data_functionalizedCrystal
_audit_creation_method	'EQeq! by Chris Wilmer'
_symmetry_space_group_name_H-M	'P1'
_symmetry_Int_Tables_number	1
_symmetry_cell_setting	triclinic
loop_
_symmetry_equiv_pos_as_xyz
  x,y,z
_cell_length_a	50.5129
_cell_length_b	50.5129
_cell_length_c	50.5129
_cell_angle_alpha	90
_cell_angle_beta	90
_cell_angle_gamma	90
loop_
_atom_site_label
_atom_site_type_symbol
_atom_site_fract_x
_atom_site_fract_y
_atom_site_fract_z
_atom_site_charge
Mof_O 	O 	0.89	0.0996	0.03406	-0.6
Mof_O 	O 	0.92458	0.12037	0.02107	-0.438
Mof_O 	O 	0.01156	0.0613	0.0927	-0.58
Mof_O 	O 	0.83688	0.10735	0.01278	-0.504
Mof_O 	O 	0.84235	0.12737	0.97564	-0.554
Mof_O 	O 	0.71412	0.0789	0.00514	-0.424
Mof_O 	O 	0.63961	0.07093	0.04056	-0.438
Mof_C 	C 	0.914	0.1044	0.03543	0.417
Mof_C 	C 	0.9297	0.0888	0.05544	-0.174
Mof_C 	C 	0.9572	0.0909	0.0568	0.123
Mof_C 	C 	0.82773	0.11582	0.99188	0.39
Mof_C 	C 	0.79951	0.11098	0.98392	-0.161
Mof_C 	C 	0.78198	0.09996	0.00186	0.134
Mof_O 	O 	0.89	0.5996	0.53406	-0.6
Mof_O 	O 	0.92458	0.62037	0.52107	-0.437
Mof_O 	O 	0.01156	0.5613	0.5927	-0.58
Mof_O 	O 	0.83688	0.60735	0.51278	-0.503
Mof_O 	O 	0.84235	0.62737	0.47564	-0.555
Mof_O 	O 	0.71412	0.5789	0.50514	-0.424
Mof_O 	O 	0.63961	0.57093	0.54056	-0.438
Mof_C 	C 	0.914	0.6044	0.53543	0.418
Mof_C 	C 	0.9297	0.5888	0.55544	-0.174
Mof_C 	C 	0.9572	0.5909	0.5568	0.124
Mof_C 	C 	0.82773	0.61582	0.49188	0.388
Mof_C 	C 	0.79951	0.61098	0.48392	-0.163
Mof_C 	C 	0.78198	0.59996	0.50186	0.139
Mof_O 	O 	0.39	0.0996	0.53406	-0.6
Mof_O 	O 	0.42458	0.12037	0.52107	-0.437
Mof_O 	O 	0.51156	0.0613	0.5927	-0.578
Mof_O 	O 	0.33688	0.10735	0.51278	-0.504
Mof_O 	O 	0.34235	0.12737	0.47564	-0.555
Mof_O 	O 	0.21412	0.0789	0.50514	-0.424
Mof_O 	O 	0.13961	0.07093	0.54056	-0.438
Mof_C 	C 	0.414	0.1044	0.53543	0.417
Mof_C 	C 	0.4297	0.0888	0.55544	-0.174
Mof_C 	C 	0.4572	0.0909	0.5568	0.123
Mof_C 	C 	0.32773	0.11582	0.49188	0.388
Mof_C 	C 	0.29951	0.11098	0.48392	-0.163
Mof_C 	C 	0.28198	0.09996	0.50186	0.139
Mof_O 	O 	0.39	0.5996	0.03406	-0.6
Mof_O 	O 	0.42458	0.62037	0.02107	-0.438
Mof_O 	O 	0.51156	0.5613	0.0927	-0.578
Mof_O 	O 	0.33688	0.60735	0.01278	-0.504
Mof_O 	O 	0.34235	0.62737	0.97564	-0.554
Mof_O 	O 	0.21412	0.5789	0.00514	-0.424
Mof_O 	O 	0.13961	0.57093	0.04056	-0.438
Mof_C 	C 	0.414	0.6044	0.03543	0.417
Mof_C 	C 	0.4297	0.5888	0.05544	-0.174
Mof_C 	C 	0.4572	0.5909	0.0568	0.122
Mof_C 	C 	0.32773	0.61582	0.99188	0.39
Mof_C 	C 	0.29951	0.61098	0.98392	-0.161
Mof_C 	C 	0.28198	0.59996	0.00186	0.135
Mof_O 	O 	0.86	0.1504	0.53406	-0.6
Mof_O 	O 	0.82542	0.12963	0.52107	-0.438
Mof_O 	O 	0.73844	0.1887	0.5927	-0.578
Mof_O 	O 	0.91312	0.14265	0.51278	-0.503
Mof_O 	O 	0.90765	0.12263	0.47564	-0.555
Mof_O 	O 	0.03588	0.1711	0.50514	-0.423
Mof_O 	O 	0.11039	0.17907	0.54056	-0.438
Mof_C 	C 	0.836	0.1456	0.53543	0.417
Mof_C 	C 	0.8203	0.1612	0.55544	-0.174
Mof_C 	C 	0.7928	0.1591	0.5568	0.123
Mof_C 	C 	0.92227	0.13418	0.49188	0.388
Mof_C 	C 	0.95049	0.13902	0.48392	-0.162
Mof_C 	C 	0.96802	0.15004	0.50186	0.138
Mof_O 	O 	0.86	0.6504	0.03406	-0.6
Mof_O 	O 	0.82542	0.62963	0.02107	-0.438
Mof_O 	O 	0.73844	0.6887	0.0927	-0.578
Mof_O 	O 	0.91312	0.64265	0.01278	-0.504
Mof_O 	O 	0.90765	0.62263	0.97564	-0.554
Mof_O 	O 	0.03588	0.6711	0.00514	-0.423
Mof_O 	O 	0.11039	0.67907	0.04056	-0.438
Mof_C 	C 	0.836	0.6456	0.03543	0.417
Mof_C 	C 	0.8203	0.6612	0.05544	-0.174
Mof_C 	C 	0.7928	0.6591	0.0568	0.122
Mof_C 	C 	0.92227	0.63418	0.99188	0.389
Mof_C 	C 	0.95049	0.63902	0.98392	-0.16
Mof_C 	C 	0.96802	0.65004	0.00186	0.134
Mof_O 	O 	0.36	0.1504	0.03406	-0.6
Mof_O 	O 	0.32542	0.12963	0.02107	-0.438
Mof_O 	O 	0.23844	0.1887	0.0927	-0.578
Mof_O 	O 	0.41312	0.14265	0.01278	-0.504
Mof_O 	O 	0.40765	0.12263	0.97564	-0.554
Mof_O 	O 	0.53588	0.1711	0.00514	-0.424
Mof_O 	O 	0.61039	0.17907	0.04056	-0.438
Mof_C 	C 	0.336	0.1456	0.03543	0.417
Mof_C 	C 	0.3203	0.1612	0.05544	-0.174
Mof_C 	C 	0.2928	0.1591	0.0568	0.122
Mof_C 	C 	0.42227	0.13418	0.99188	0.39
Mof_C 	C 	0.45049	0.13902	0.98392	-0.161
Mof_C 	C 	0.46802	0.15004	0.00186	0.134
Mof_O 	O 	0.36	0.6504	0.53406	-0.6
Mof_O 	O 	0.32542	0.62963	0.52107	-0.437
Mof_O 	O 	0.23844	0.6887	0.5927	-0.578
Mof_O 	O 	0.41312	0.64265	0.51278	-0.503
Mof_O 	O 	0.40765	0.62263	0.47564	-0.555
Mof_O 	O 	0.53588	0.6711	0.50514	-0.424
Mof_O 	O 	0.61039	0.67907	0.54056	-0.438
Mof_C 	C 	0.336	0.6456	0.53543	0.417
Mof_C 	C 	0.3203	0.6612	0.55544	-0.174
Mof_C 	C 	0.2928	0.6591	0.5568	0.123
Mof_C 	C 	0.42227	0.63418	0.49188	0.388
Mof_C 	C 	0.45049	0.63902	0.48392	-0.163
Mof_C 	C 	0.46802	0.65004	0.50186	0.139
Mof_O 	O 	0.36	0.5996	0.71594	-0.6
Mof_O 	O 	0.32542	0.62037	0.72893	-0.437
Mof_O 	O 	0.23844	0.5613	0.6573	-0.578
Mof_O 	O 	0.41312	0.60735	0.73722	-0.503
Mof_O 	O 	0.40765	0.62737	0.77436	-0.555
Mof_O 	O 	0.53588	0.5789	0.74486	-0.424
Mof_O 	O 	0.61039	0.57093	0.70944	-0.438
Mof_C 	C 	0.336	0.6044	0.71457	0.417
Mof_C 	C 	0.3203	0.5888	0.69456	-0.174
Mof_C 	C 	0.2928	0.5909	0.6932	0.123
Mof_C 	C 	0.42227	0.61582	0.75812	0.388
Mof_C 	C 	0.45049	0.61098	0.76608	-0.163
Mof_C 	C 	0.46802	0.59996	0.74814	0.139
Mof_O 	O 	0.36	0.0996	0.21594	-0.6
Mof_O 	O 	0.32542	0.12037	0.22893	-0.437
Mof_O 	O 	0.23844	0.0613	0.1573	-0.578
Mof_O 	O 	0.41312	0.10735	0.23722	-0.504
Mof_O 	O 	0.40765	0.12737	0.27436	-0.555
Mof_O 	O 	0.53588	0.0789	0.24486	-0.424
Mof_O 	O 	0.61039	0.07093	0.20944	-0.438
Mof_C 	C 	0.336	0.1044	0.21457	0.417
Mof_C 	C 	0.3203	0.0888	0.19456	-0.174
Mof_C 	C 	0.2928	0.0909	0.1932	0.123
Mof_C 	C 	0.42227	0.11582	0.25812	0.388
Mof_C 	C 	0.45049	0.11098	0.26608	-0.163
Mof_C 	C 	0.46802	0.09996	0.24814	0.139
Mof_O 	O 	0.86	0.5996	0.21594	-0.6
Mof_O 	O 	0.82542	0.62037	0.22893	-0.437
Mof_O 	O 	0.73844	0.5613	0.1573	-0.578
Mof_O 	O 	0.91312	0.60735	0.23722	-0.503
Mof_O 	O 	0.90765	0.62737	0.27436	-0.554
Mof_O 	O 	0.03588	0.5789	0.24486	-0.423
Mof_O 	O 	0.11039	0.57093	0.20944	-0.438
Mof_C 	C 	0.836	0.6044	0.21457	0.417
Mof_C 	C 	0.8203	0.5888	0.19456	-0.174
Mof_C 	C 	0.7928	0.5909	0.1932	0.123
Mof_C 	C 	0.92227	0.61582	0.25812	0.388
Mof_C 	C 	0.95049	0.61098	0.26608	-0.162
Mof_C 	C 	0.96802	0.59996	0.24814	0.138
Mof_O 	O 	0.86	0.0996	0.71594	-0.6
Mof_O 	O 	0.82542	0.12037	0.72893	-0.437
Mof_O 	O 	0.73844	0.0613	0.6573	-0.578
Mof_O 	O 	0.91312	0.10735	0.73722	-0.503
Mof_O 	O 	0.90765	0.12737	0.77436	-0.554
Mof_O 	O 	0.03588	0.0789	0.74486	-0.423
Mof_O 	O 	0.11039	0.07093	0.70944	-0.438
Mof_C 	C 	0.836	0.1044	0.71457	0.417
Mof_C 	C 	0.8203	0.0888	0.69456	-0.174
Mof_C 	C 	0.7928	0.0909	0.6932	0.123
Mof_C 	C 	0.92227	0.11582	0.75812	0.388
Mof_C 	C 	0.95049	0.11098	0.76608	-0.162
Mof_C 	C 	0.96802	0.09996	0.74814	0.138
Mof_O 	O 	0.39	0.6504	0.21594	-0.6
Mof_O 	O 	0.42458	0.62963	0.22893	-0.437
Mof_O 	O 	0.51156	0.6887	0.1573	-0.578
Mof_O 	O 	0.33688	0.64265	0.23722	-0.503
Mof_O 	O 	0.34235	0.62263	0.27436	-0.555
Mof_O 	O 	0.21412	0.6711	0.24486	-0.424
Mof_O 	O 	0.13961	0.67907	0.20944	-0.438
Mof_C 	C 	0.414	0.6456	0.21457	0.417
Mof_C 	C 	0.4297	0.6612	0.19456	-0.174
Mof_C 	C 	0.4572	0.6591	0.1932	0.123
Mof_C 	C 	0.32773	0.63418	0.25812	0.388
Mof_C 	C 	0.29951	0.63902	0.26608	-0.163
Mof_C 	C 	0.28198	0.65004	0.24814	0.139
Mof_O 	O 	0.39	0.1504	0.71594	-0.6
Mof_O 	O 	0.42458	0.12963	0.72893	-0.438
Mof_O 	O 	0.51156	0.1887	0.6573	-0.578
Mof_O 	O 	0.33688	0.14265	0.73722	-0.503
Mof_O 	O 	0.34235	0.12263	0.77436	-0.555
Mof_O 	O 	0.21412	0.1711	0.74486	-0.424
Mof_O 	O 	0.13961	0.17907	0.70944	-0.438
Mof_C 	C 	0.414	0.1456	0.71457	0.417
Mof_C 	C 	0.4297	0.1612	0.69456	-0.174
Mof_C 	C 	0.4572	0.1591	0.6932	0.123
Mof_C 	C 	0.32773	0.13418	0.75812	0.388
Mof_C 	C 	0.29951	0.13902	0.76608	-0.163
Mof_C 	C 	0.28198	0.15004	0.74814	0.139
Mof_O 	O 	0.89	0.6504	0.71594	-0.6
Mof_O 	O 	0.92458	0.62963	0.72893	-0.437
Mof_O 	O 	0.01156	0.6887	0.6573	-0.58
Mof_O 	O 	0.83688	0.64265	0.73722	-0.503
Mof_O 	O 	0.84235	0.62263	0.77436	-0.555
Mof_O 	O 	0.71412	0.6711	0.74486	-0.424
Mof_O 	O 	0.63961	0.67907	0.70944	-0.438
Mof_C 	C 	0.914	0.6456	0.71457	0.418
Mof_C 	C 	0.9297	0.6612	0.69456	-0.174
Mof_C 	C 	0.9572	0.6591	0.6932	0.125
Mof_C 	C 	0.82773	0.63418	0.75812	0.389
Mof_C 	C 	0.79951	0.63902	0.76608	-0.162
Mof_C 	C 	0.78198	0.65004	0.74814	0.14
Mof_O 	O 	0.89	0.1504	0.21594	-0.599
Mof_O 	O 	0.92458	0.12963	0.22893	-0.436
Mof_O 	O 	0.01156	0.1887	0.1573	-0.579
Mof_O 	O 	0.83688	0.14265	0.23722	-0.502
Mof_O 	O 	0.84235	0.12263	0.27436	-0.554
Mof_O 	O 	0.71412	0.1711	0.24486	-0.423
Mof_O 	O 	0.63961	0.17907	0.20944	-0.437
Mof_C 	C 	0.914	0.1456	0.21457	0.419
Mof_C 	C 	0.9297	0.1612	0.19456	-0.173
Mof_C 	C 	0.9572	0.1591	0.1932	0.125
Mof_C 	C 	0.82773	0.13418	0.25812	0.389
Mof_C 	C 	0.79951	0.13902	0.26608	-0.162
Mof_C 	C 	0.78198	0.15004	0.24814	0.14
Mof_O 	O 	0.03406	0.89	0.0996	-0.599
Mof_O 	O 	0.02107	0.92458	0.12037	-0.437
Mof_O 	O 	0.0927	0.01156	0.0613	-0.579
Mof_O 	O 	0.01278	0.83688	0.10735	-0.503
Mof_O 	O 	0.97564	0.84235	0.12737	-0.553
Mof_O 	O 	0.00514	0.71412	0.0789	-0.423
Mof_O 	O 	0.04056	0.63961	0.07093	-0.437
Mof_C 	C 	0.03543	0.914	0.1044	0.418
Mof_C 	C 	0.05544	0.9297	0.0888	-0.173
Mof_C 	C 	0.0568	0.9572	0.0909	0.124
Mof_C 	C 	0.99188	0.82773	0.11582	0.391
Mof_C 	C 	0.98392	0.79951	0.11098	-0.16
Mof_C 	C 	0.00186	0.78198	0.09996	0.135
Mof_O 	O 	0.03406	0.39	0.5996	-0.599
Mof_O 	O 	0.02107	0.42458	0.62037	-0.437
Mof_O 	O 	0.0927	0.51156	0.5613	-0.577
Mof_O 	O 	0.01278	0.33688	0.60735	-0.503
Mof_O 	O 	0.97564	0.34235	0.62737	-0.553
Mof_O 	O 	0.00514	0.21412	0.5789	-0.423
Mof_O 	O 	0.04056	0.13961	0.57093	-0.437
Mof_C 	C 	0.03543	0.414	0.6044	0.418
Mof_C 	C 	0.05544	0.4297	0.5888	-0.173
Mof_C 	C 	0.0568	0.4572	0.5909	0.123
Mof_C 	C 	0.99188	0.32773	0.61582	0.391
Mof_C 	C 	0.98392	0.29951	0.61098	-0.16
Mof_C 	C 	0.00186	0.28198	0.59996	0.136
Mof_O 	O 	0.53406	0.89	0.5996	-0.599
Mof_O 	O 	0.52107	0.92458	0.62037	-0.436
Mof_O 	O 	0.5927	0.01156	0.5613	-0.579
Mof_O 	O 	0.51278	0.83688	0.60735	-0.502
Mof_O 	O 	0.47564	0.84235	0.62737	-0.554
Mof_O 	O 	0.50514	0.71412	0.5789	-0.423
Mof_O 	O 	0.54056	0.63961	0.57093	-0.437
Mof_C 	C 	0.53543	0.914	0.6044	0.419
Mof_C 	C 	0.55544	0.9297	0.5888	-0.173
Mof_C 	C 	0.5568	0.9572	0.5909	0.125
Mof_C 	C 	0.49188	0.82773	0.61582	0.389
Mof_C 	C 	0.48392	0.79951	0.61098	-0.162
Mof_C 	C 	0.50186	0.78198	0.59996	0.14
Mof_O 	O 	0.53406	0.39	0.0996	-0.599
Mof_O 	O 	0.52107	0.42458	0.12037	-0.436
Mof_O 	O 	0.5927	0.51156	0.0613	-0.577
Mof_O 	O 	0.51278	0.33688	0.10735	-0.503
Mof_O 	O 	0.47564	0.34235	0.12737	-0.554
Mof_O 	O 	0.50514	0.21412	0.0789	-0.423
Mof_O 	O 	0.54056	0.13961	0.07093	-0.437
Mof_C 	C 	0.53543	0.414	0.1044	0.418
Mof_C 	C 	0.55544	0.4297	0.0888	-0.173
Mof_C 	C 	0.5568	0.4572	0.0909	0.124
Mof_C 	C 	0.49188	0.32773	0.11582	0.389
Mof_C 	C 	0.48392	0.29951	0.11098	-0.162
Mof_C 	C 	0.50186	0.28198	0.09996	0.14
Mof_O 	O 	0.53406	0.86	0.1504	-0.599
Mof_O 	O 	0.52107	0.82542	0.12963	-0.437
Mof_O 	O 	0.5927	0.73844	0.1887	-0.577
Mof_O 	O 	0.51278	0.91312	0.14265	-0.502
Mof_O 	O 	0.47564	0.90765	0.12263	-0.554
Mof_O 	O 	0.50514	0.03588	0.1711	-0.422
Mof_O 	O 	0.54056	0.11039	0.17907	-0.437
Mof_C 	C 	0.53543	0.836	0.1456	0.418
Mof_C 	C 	0.55544	0.8203	0.1612	-0.173
Mof_C 	C 	0.5568	0.7928	0.1591	0.124
Mof_C 	C 	0.49188	0.92227	0.13418	0.389
Mof_C 	C 	0.48392	0.95049	0.13902	-0.161
Mof_C 	C 	0.50186	0.96802	0.15004	0.139
Mof_O 	O 	0.53406	0.36	0.6504	-0.599
Mof_O 	O 	0.52107	0.32542	0.62963	-0.436
Mof_O 	O 	0.5927	0.23844	0.6887	-0.577
Mof_O 	O 	0.51278	0.41312	0.64265	-0.502
Mof_O 	O 	0.47564	0.40765	0.62263	-0.554
Mof_O 	O 	0.50514	0.53588	0.6711	-0.423
Mof_O 	O 	0.54056	0.61039	0.67907	-0.437
Mof_C 	C 	0.53543	0.336	0.6456	0.418
Mof_C 	C 	0.55544	0.3203	0.6612	-0.173
Mof_C 	C 	0.5568	0.2928	0.6591	0.124
Mof_C 	C 	0.49188	0.42227	0.63418	0.389
Mof_C 	C 	0.48392	0.45049	0.63902	-0.162
Mof_C 	C 	0.50186	0.46802	0.65004	0.14
Mof_O 	O 	0.03406	0.86	0.6504	-0.599
Mof_O 	O 	0.02107	0.82542	0.62963	-0.437
Mof_O 	O 	0.0927	0.73844	0.6887	-0.577
Mof_O 	O 	0.01278	0.91312	0.64265	-0.503
Mof_O 	O 	0.97564	0.90765	0.62263	-0.553
Mof_O 	O 	0.00514	0.03588	0.6711	-0.422
Mof_O 	O 	0.04056	0.11039	0.67907	-0.437
Mof_C 	C 	0.03543	0.836	0.6456	0.418
Mof_C 	C 	0.05544	0.8203	0.6612	-0.173
Mof_C 	C 	0.0568	0.7928	0.6591	0.123
Mof_C 	C 	0.99188	0.92227	0.63418	0.39
Mof_C 	C 	0.98392	0.95049	0.63902	-0.159
Mof_C 	C 	0.00186	0.96802	0.65004	0.135
Mof_O 	O 	0.03406	0.36	0.1504	-0.599
Mof_O 	O 	0.02107	0.32542	0.12963	-0.437
Mof_O 	O 	0.0927	0.23844	0.1887	-0.577
Mof_O 	O 	0.01278	0.41312	0.14265	-0.503
Mof_O 	O 	0.97564	0.40765	0.12263	-0.553
Mof_O 	O 	0.00514	0.53588	0.1711	-0.423
Mof_O 	O 	0.04056	0.61039	0.17907	-0.437
Mof_C 	C 	0.03543	0.336	0.1456	0.418
Mof_C 	C 	0.05544	0.3203	0.1612	-0.173
Mof_C 	C 	0.0568	0.2928	0.1591	0.123
Mof_C 	C 	0.99188	0.42227	0.13418	0.391
Mof_C 	C 	0.98392	0.45049	0.13902	-0.16
Mof_C 	C 	0.00186	0.46802	0.15004	0.135
Mof_O 	O 	0.71594	0.36	0.5996	-0.599
Mof_O 	O 	0.72893	0.32542	0.62037	-0.436
Mof_O 	O 	0.6573	0.23844	0.5613	-0.577
Mof_O 	O 	0.73722	0.41312	0.60735	-0.502
Mof_O 	O 	0.77436	0.40765	0.62737	-0.554
Mof_O 	O 	0.74486	0.53588	0.5789	-0.423
Mof_O 	O 	0.70944	0.61039	0.57093	-0.437
Mof_C 	C 	0.71457	0.336	0.6044	0.418
Mof_C 	C 	0.69456	0.3203	0.5888	-0.173
Mof_C 	C 	0.6932	0.2928	0.5909	0.124
Mof_C 	C 	0.75812	0.42227	0.61582	0.389
Mof_C 	C 	0.76608	0.45049	0.61098	-0.162
Mof_C 	C 	0.74814	0.46802	0.59996	0.14
Mof_O 	O 	0.71594	0.86	0.0996	-0.599
Mof_O 	O 	0.72893	0.82542	0.12037	-0.436
Mof_O 	O 	0.6573	0.73844	0.0613	-0.577
Mof_O 	O 	0.73722	0.91312	0.10735	-0.502
Mof_O 	O 	0.77436	0.90765	0.12737	-0.553
Mof_O 	O 	0.74486	0.03588	0.0789	-0.422
Mof_O 	O 	0.70944	0.11039	0.07093	-0.437
Mof_C 	C 	0.71457	0.836	0.1044	0.418
Mof_C 	C 	0.69456	0.8203	0.0888	-0.173
Mof_C 	C 	0.6932	0.7928	0.0909	0.124
Mof_C 	C 	0.75812	0.92227	0.11582	0.389
Mof_C 	C 	0.76608	0.95049	0.11098	-0.161
Mof_C 	C 	0.74814	0.96802	0.09996	0.139
Mof_O 	O 	0.21594	0.36	0.0996	-0.599
Mof_O 	O 	0.22893	0.32542	0.12037	-0.436
Mof_O 	O 	0.1573	0.23844	0.0613	-0.577
Mof_O 	O 	0.23722	0.41312	0.10735	-0.503
Mof_O 	O 	0.27436	0.40765	0.12737	-0.554
Mof_O 	O 	0.24486	0.53588	0.0789	-0.423
Mof_O 	O 	0.20944	0.61039	0.07093	-0.437
Mof_C 	C 	0.21457	0.336	0.1044	0.418
Mof_C 	C 	0.19456	0.3203	0.0888	-0.173
Mof_C 	C 	0.1932	0.2928	0.0909	0.124
Mof_C 	C 	0.25812	0.42227	0.11582	0.389
Mof_C 	C 	0.26608	0.45049	0.11098	-0.162
Mof_C 	C 	0.24814	0.46802	0.09996	0.14
Mof_O 	O 	0.21594	0.86	0.5996	-0.599
Mof_O 	O 	0.22893	0.82542	0.62037	-0.436
Mof_O 	O 	0.1573	0.73844	0.5613	-0.577
Mof_O 	O 	0.23722	0.91312	0.60735	-0.502
Mof_O 	O 	0.27436	0.90765	0.62737	-0.553
Mof_O 	O 	0.24486	0.03588	0.5789	-0.422
Mof_O 	O 	0.20944	0.11039	0.57093	-0.437
Mof_C 	C 	0.21457	0.836	0.6044	0.418
Mof_C 	C 	0.19456	0.8203	0.5888	-0.173
Mof_C 	C 	0.1932	0.7928	0.5909	0.124
Mof_C 	C 	0.25812	0.92227	0.61582	0.389
Mof_C 	C 	0.26608	0.95049	0.61098	-0.161
Mof_C 	C 	0.24814	0.96802	0.59996	0.139
Mof_O 	O 	0.21594	0.39	0.6504	-0.599
Mof_O 	O 	0.22893	0.42458	0.62963	-0.436
Mof_O 	O 	0.1573	0.51156	0.6887	-0.577
Mof_O 	O 	0.23722	0.33688	0.64265	-0.502
Mof_O 	O 	0.27436	0.34235	0.62263	-0.554
Mof_O 	O 	0.24486	0.21412	0.6711	-0.423
Mof_O 	O 	0.20944	0.13961	0.67907	-0.437
Mof_C 	C 	0.21457	0.414	0.6456	0.418
Mof_C 	C 	0.19456	0.4297	0.6612	-0.173
Mof_C 	C 	0.1932	0.4572	0.6591	0.124
Mof_C 	C 	0.25812	0.32773	0.63418	0.389
Mof_C 	C 	0.26608	0.29951	0.63902	-0.162
Mof_C 	C 	0.24814	0.28198	0.65004	0.14
Mof_O 	O 	0.21594	0.89	0.1504	-0.599
Mof_O 	O 	0.22893	0.92458	0.12963	-0.436
Mof_O 	O 	0.1573	0.01156	0.1887	-0.579
Mof_O 	O 	0.23722	0.83688	0.14265	-0.502
Mof_O 	O 	0.27436	0.84235	0.12263	-0.554
Mof_O 	O 	0.24486	0.71412	0.1711	-0.423
Mof_O 	O 	0.20944	0.63961	0.17907	-0.437
Mof_C 	C 	0.21457	0.914	0.1456	0.419
Mof_C 	C 	0.19456	0.9297	0.1612	-0.173
Mof_C 	C 	0.1932	0.9572	0.1591	0.125
Mof_C 	C 	0.25812	0.82773	0.13418	0.389
Mof_C 	C 	0.26608	0.79951	0.13902	-0.162
Mof_C 	C 	0.24814	0.78198	0.15004	0.14
Mof_O 	O 	0.71594	0.39	0.1504	-0.599
Mof_O 	O 	0.72893	0.42458	0.12963	-0.437
Mof_O 	O 	0.6573	0.51156	0.1887	-0.577
Mof_O 	O 	0.73722	0.33688	0.14265	-0.502
Mof_O 	O 	0.77436	0.34235	0.12263	-0.554
Mof_O 	O 	0.74486	0.21412	0.1711	-0.423
Mof_O 	O 	0.70944	0.13961	0.17907	-0.437
Mof_C 	C 	0.71457	0.414	0.1456	0.418
Mof_C 	C 	0.69456	0.4297	0.1612	-0.173
Mof_C 	C 	0.6932	0.4572	0.1591	0.124
Mof_C 	C 	0.75812	0.32773	0.13418	0.389
Mof_C 	C 	0.76608	0.29951	0.13902	-0.162
Mof_C 	C 	0.74814	0.28198	0.15004	0.14
Mof_O 	O 	0.71594	0.89	0.6504	-0.599
Mof_O 	O 	0.72893	0.92458	0.62963	-0.436
Mof_O 	O 	0.6573	0.01156	0.6887	-0.579
Mof_O 	O 	0.73722	0.83688	0.64265	-0.502
Mof_O 	O 	0.77436	0.84235	0.62263	-0.554
Mof_O 	O 	0.74486	0.71412	0.6711	-0.423
Mof_O 	O 	0.70944	0.63961	0.67907	-0.437
Mof_C 	C 	0.71457	0.914	0.6456	0.419
Mof_C 	C 	0.69456	0.9297	0.6612	-0.173
Mof_C 	C 	0.6932	0.9572	0.6591	0.125
Mof_C 	C 	0.75812	0.82773	0.63418	0.389
Mof_C 	C 	0.76608	0.79951	0.63902	-0.162
Mof_C 	C 	0.74814	0.78198	0.65004	0.14
Mof_O 	O 	0.0996	0.03406	0.89	-0.599
Mof_O 	O 	0.12037	0.02107	0.92458	-0.437
Mof_O 	O 	0.0613	0.0927	0.01156	-0.579
Mof_O 	O 	0.10735	0.01278	0.83688	-0.503
Mof_O 	O 	0.12737	0.97564	0.84235	-0.553
Mof_O 	O 	0.0789	0.00514	0.71412	-0.423
Mof_O 	O 	0.07093	0.04056	0.63961	-0.437
Mof_C 	C 	0.1044	0.03543	0.914	0.418
Mof_C 	C 	0.0888	0.05544	0.9297	-0.173
Mof_C 	C 	0.0909	0.0568	0.9572	0.124
Mof_C 	C 	0.11582	0.99188	0.82773	0.391
Mof_C 	C 	0.11098	0.98392	0.79951	-0.16
Mof_C 	C 	0.09996	0.00186	0.78198	0.135
Mof_O 	O 	0.0996	0.53406	0.39	-0.599
Mof_O 	O 	0.12037	0.52107	0.42458	-0.436
Mof_O 	O 	0.0613	0.5927	0.51156	-0.577
Mof_O 	O 	0.10735	0.51278	0.33688	-0.503
Mof_O 	O 	0.12737	0.47564	0.34235	-0.554
Mof_O 	O 	0.0789	0.50514	0.21412	-0.423
Mof_O 	O 	0.07093	0.54056	0.13961	-0.437
Mof_C 	C 	0.1044	0.53543	0.414	0.418
Mof_C 	C 	0.0888	0.55544	0.4297	-0.173
Mof_C 	C 	0.0909	0.5568	0.4572	0.124
Mof_C 	C 	0.11582	0.49188	0.32773	0.389
Mof_C 	C 	0.11098	0.48392	0.29951	-0.162
Mof_C 	C 	0.09996	0.50186	0.28198	0.14
Mof_O 	O 	0.5996	0.03406	0.39	-0.599
Mof_O 	O 	0.62037	0.02107	0.42458	-0.437
Mof_O 	O 	0.5613	0.0927	0.51156	-0.577
Mof_O 	O 	0.60735	0.01278	0.33688	-0.503
Mof_O 	O 	0.62737	0.97564	0.34235	-0.553
Mof_O 	O 	0.5789	0.00514	0.21412	-0.423
Mof_O 	O 	0.57093	0.04056	0.13961	-0.437
Mof_C 	C 	0.6044	0.03543	0.414	0.418
Mof_C 	C 	0.5888	0.05544	0.4297	-0.173
Mof_C 	C 	0.5909	0.0568	0.4572	0.123
Mof_C 	C 	0.61582	0.99188	0.32773	0.391
Mof_C 	C 	0.61098	0.98392	0.29951	-0.16
Mof_C 	C 	0.59996	0.00186	0.28198	0.136
Mof_O 	O 	0.5996	0.53406	0.89	-0.599
Mof_O 	O 	0.62037	0.52107	0.92458	-0.436
Mof_O 	O 	0.5613	0.5927	0.01156	-0.579
Mof_O 	O 	0.60735	0.51278	0.83688	-0.502
Mof_O 	O 	0.62737	0.47564	0.84235	-0.554
Mof_O 	O 	0.5789	0.50514	0.71412	-0.423
Mof_O 	O 	0.57093	0.54056	0.63961	-0.437
Mof_C 	C 	0.6044	0.53543	0.914	0.419
Mof_C 	C 	0.5888	0.55544	0.9297	-0.173
Mof_C 	C 	0.5909	0.5568	0.9572	0.125
Mof_C 	C 	0.61582	0.49188	0.82773	0.389
Mof_C 	C 	0.61098	0.48392	0.79951	-0.162
Mof_C 	C 	0.59996	0.50186	0.78198	0.14
Mof_O 	O 	0.1504	0.53406	0.86	-0.599
Mof_O 	O 	0.12963	0.52107	0.82542	-0.437
Mof_O 	O 	0.1887	0.5927	0.73844	-0.577
Mof_O 	O 	0.14265	0.51278	0.91312	-0.502
Mof_O 	O 	0.12263	0.47564	0.90765	-0.554
Mof_O 	O 	0.1711	0.50514	0.03588	-0.422
Mof_O 	O 	0.17907	0.54056	0.11039	-0.437
Mof_C 	C 	0.1456	0.53543	0.836	0.418
Mof_C 	C 	0.1612	0.55544	0.8203	-0.173
Mof_C 	C 	0.1591	0.5568	0.7928	0.124
Mof_C 	C 	0.13418	0.49188	0.92227	0.389
Mof_C 	C 	0.13902	0.48392	0.95049	-0.161
Mof_C 	C 	0.15004	0.50186	0.96802	0.139
Mof_O 	O 	0.1504	0.03406	0.36	-0.599
Mof_O 	O 	0.12963	0.02107	0.32542	-0.437
Mof_O 	O 	0.1887	0.0927	0.23844	-0.577
Mof_O 	O 	0.14265	0.01278	0.41312	-0.503
Mof_O 	O 	0.12263	0.97564	0.40765	-0.553
Mof_O 	O 	0.1711	0.00514	0.53588	-0.423
Mof_O 	O 	0.17907	0.04056	0.61039	-0.437
Mof_C 	C 	0.1456	0.03543	0.336	0.418
Mof_C 	C 	0.1612	0.05544	0.3203	-0.173
Mof_C 	C 	0.1591	0.0568	0.2928	0.123
Mof_C 	C 	0.13418	0.99188	0.42227	0.391
Mof_C 	C 	0.13902	0.98392	0.45049	-0.16
Mof_C 	C 	0.15004	0.00186	0.46802	0.135
Mof_O 	O 	0.6504	0.53406	0.36	-0.599
Mof_O 	O 	0.62963	0.52107	0.32542	-0.436
Mof_O 	O 	0.6887	0.5927	0.23844	-0.577
Mof_O 	O 	0.64265	0.51278	0.41312	-0.502
Mof_O 	O 	0.62263	0.47564	0.40765	-0.554
Mof_O 	O 	0.6711	0.50514	0.53588	-0.423
Mof_O 	O 	0.67907	0.54056	0.61039	-0.437
Mof_C 	C 	0.6456	0.53543	0.336	0.418
Mof_C 	C 	0.6612	0.55544	0.3203	-0.173
Mof_C 	C 	0.6591	0.5568	0.2928	0.124
Mof_C 	C 	0.63418	0.49188	0.42227	0.389
Mof_C 	C 	0.63902	0.48392	0.45049	-0.162
Mof_C 	C 	0.65004	0.50186	0.46802	0.14
Mof_O 	O 	0.6504	0.03406	0.86	-0.599
Mof_O 	O 	0.62963	0.02107	0.82542	-0.437
Mof_O 	O 	0.6887	0.0927	0.73844	-0.577
Mof_O 	O 	0.64265	0.01278	0.91312	-0.503
Mof_O 	O 	0.62263	0.97564	0.90765	-0.553
Mof_O 	O 	0.6711	0.00514	0.03588	-0.422
Mof_O 	O 	0.67907	0.04056	0.11039	-0.437
Mof_C 	C 	0.6456	0.03543	0.836	0.418
Mof_C 	C 	0.6612	0.05544	0.8203	-0.173
Mof_C 	C 	0.6591	0.0568	0.7928	0.123
Mof_C 	C 	0.63418	0.99188	0.92227	0.39
Mof_C 	C 	0.63902	0.98392	0.95049	-0.159
Mof_C 	C 	0.65004	0.00186	0.96802	0.135
Mof_O 	O 	0.5996	0.71594	0.36	-0.599
Mof_O 	O 	0.62037	0.72893	0.32542	-0.436
Mof_O 	O 	0.5613	0.6573	0.23844	-0.577
Mof_O 	O 	0.60735	0.73722	0.41312	-0.502
Mof_O 	O 	0.62737	0.77436	0.40765	-0.554
Mof_O 	O 	0.5789	0.74486	0.53588	-0.423
Mof_O 	O 	0.57093	0.70944	0.61039	-0.437
Mof_C 	C 	0.6044	0.71457	0.336	0.418
Mof_C 	C 	0.5888	0.69456	0.3203	-0.173
Mof_C 	C 	0.5909	0.6932	0.2928	0.124
Mof_C 	C 	0.61582	0.75812	0.42227	0.389
Mof_C 	C 	0.61098	0.76608	0.45049	-0.162
Mof_C 	C 	0.59996	0.74814	0.46802	0.14
Mof_O 	O 	0.5996	0.21594	0.86	-0.599
Mof_O 	O 	0.62037	0.22893	0.82542	-0.436
Mof_O 	O 	0.5613	0.1573	0.73844	-0.577
Mof_O 	O 	0.60735	0.23722	0.91312	-0.502
Mof_O 	O 	0.62737	0.27436	0.90765	-0.553
Mof_O 	O 	0.5789	0.24486	0.03588	-0.422
Mof_O 	O 	0.57093	0.20944	0.11039	-0.437
Mof_C 	C 	0.6044	0.21457	0.836	0.418
Mof_C 	C 	0.5888	0.19456	0.8203	-0.173
Mof_C 	C 	0.5909	0.1932	0.7928	0.124
Mof_C 	C 	0.61582	0.25812	0.92227	0.389
Mof_C 	C 	0.61098	0.26608	0.95049	-0.161
Mof_C 	C 	0.59996	0.24814	0.96802	0.139
Mof_O 	O 	0.0996	0.71594	0.86	-0.599
Mof_O 	O 	0.12037	0.72893	0.82542	-0.436
Mof_O 	O 	0.0613	0.6573	0.73844	-0.577
Mof_O 	O 	0.10735	0.73722	0.91312	-0.502
Mof_O 	O 	0.12737	0.77436	0.90765	-0.553
Mof_O 	O 	0.0789	0.74486	0.03588	-0.422
Mof_O 	O 	0.07093	0.70944	0.11039	-0.437
Mof_C 	C 	0.1044	0.71457	0.836	0.418
Mof_C 	C 	0.0888	0.69456	0.8203	-0.173
Mof_C 	C 	0.0909	0.6932	0.7928	0.124
Mof_C 	C 	0.11582	0.75812	0.92227	0.389
Mof_C 	C 	0.11098	0.76608	0.95049	-0.161
Mof_C 	C 	0.09996	0.74814	0.96802	0.139
Mof_O 	O 	0.0996	0.21594	0.36	-0.599
Mof_O 	O 	0.12037	0.22893	0.32542	-0.436
Mof_O 	O 	0.0613	0.1573	0.23844	-0.577
Mof_O 	O 	0.10735	0.23722	0.41312	-0.503
Mof_O 	O 	0.12737	0.27436	0.40765	-0.554
Mof_O 	O 	0.0789	0.24486	0.53588	-0.423
Mof_O 	O 	0.07093	0.20944	0.61039	-0.437
Mof_C 	C 	0.1044	0.21457	0.336	0.418
Mof_C 	C 	0.0888	0.19456	0.3203	-0.173
Mof_C 	C 	0.0909	0.1932	0.2928	0.124
Mof_C 	C 	0.11582	0.25812	0.42227	0.389
Mof_C 	C 	0.11098	0.26608	0.45049	-0.162
Mof_C 	C 	0.09996	0.24814	0.46802	0.14
Mof_O 	O 	0.6504	0.21594	0.39	-0.599
Mof_O 	O 	0.62963	0.22893	0.42458	-0.436
Mof_O 	O 	0.6887	0.1573	0.51156	-0.577
Mof_O 	O 	0.64265	0.23722	0.33688	-0.502
Mof_O 	O 	0.62263	0.27436	0.34235	-0.554
Mof_O 	O 	0.6711	0.24486	0.21412	-0.423
Mof_O 	O 	0.67907	0.20944	0.13961	-0.437
Mof_C 	C 	0.6456	0.21457	0.414	0.418
Mof_C 	C 	0.6612	0.19456	0.4297	-0.173
Mof_C 	C 	0.6591	0.1932	0.4572	0.124
Mof_C 	C 	0.63418	0.25812	0.32773	0.389
Mof_C 	C 	0.63902	0.26608	0.29951	-0.162
Mof_C 	C 	0.65004	0.24814	0.28198	0.14
Mof_O 	O 	0.6504	0.71594	0.89	-0.599
Mof_O 	O 	0.62963	0.72893	0.92458	-0.436
Mof_O 	O 	0.6887	0.6573	0.01156	-0.579
Mof_O 	O 	0.64265	0.73722	0.83688	-0.502
Mof_O 	O 	0.62263	0.77436	0.84235	-0.554
Mof_O 	O 	0.6711	0.74486	0.71412	-0.423
Mof_O 	O 	0.67907	0.70944	0.63961	-0.437
Mof_C 	C 	0.6456	0.71457	0.914	0.419
Mof_C 	C 	0.6612	0.69456	0.9297	-0.173
Mof_C 	C 	0.6591	0.6932	0.9572	0.125
Mof_C 	C 	0.63418	0.75812	0.82773	0.389
Mof_C 	C 	0.63902	0.76608	0.79951	-0.162
Mof_C 	C 	0.65004	0.74814	0.78198	0.14
Mof_O 	O 	0.1504	0.21594	0.89	-0.599
Mof_O 	O 	0.12963	0.22893	0.92458	-0.436
Mof_O 	O 	0.1887	0.1573	0.01156	-0.579
Mof_O 	O 	0.14265	0.23722	0.83688	-0.502
Mof_O 	O 	0.12263	0.27436	0.84235	-0.554
Mof_O 	O 	0.1711	0.24486	0.71412	-0.423
Mof_O 	O 	0.17907	0.20944	0.63961	-0.437
Mof_C 	C 	0.1456	0.21457	0.914	0.419
Mof_C 	C 	0.1612	0.19456	0.9297	-0.173
Mof_C 	C 	0.1591	0.1932	0.9572	0.125
Mof_C 	C 	0.13418	0.25812	0.82773	0.389
Mof_C 	C 	0.13902	0.26608	0.79951	-0.162
Mof_C 	C 	0.15004	0.24814	0.78198	0.14
Mof_O 	O 	0.1504	0.71594	0.39	-0.599
Mof_O 	O 	0.12963	0.72893	0.42458	-0.437
Mof_O 	O 	0.1887	0.6573	0.51156	-0.577
Mof_O 	O 	0.14265	0.73722	0.33688	-0.502
Mof_O 	O 	0.12263	0.77436	0.34235	-0.554
Mof_O 	O 	0.1711	0.74486	0.21412	-0.423
Mof_O 	O 	0.17907	0.70944	0.13961	-0.437
Mof_C 	C 	0.1456	0.71457	0.414	0.418
Mof_C 	C 	0.1612	0.69456	0.4297	-0.173
Mof_C 	C 	0.1591	0.6932	0.4572	0.124
Mof_C 	C 	0.13418	0.75812	0.32773	0.389
Mof_C 	C 	0.13902	0.76608	0.29951	-0.162
Mof_C 	C 	0.15004	0.74814	0.28198	0.14
Mof_O 	O 	0.8496	0.14	0.46594	-0.599
Mof_O 	O 	0.87037	0.17458	0.47893	-0.436
Mof_O 	O 	0.8113	0.26156	0.4073	-0.577
Mof_O 	O 	0.85735	0.08688	0.48722	-0.503
Mof_O 	O 	0.87737	0.09235	0.52436	-0.554
Mof_O 	O 	0.8289	0.96412	0.49486	-0.423
Mof_O 	O 	0.82093	0.88961	0.45944	-0.437
Mof_C 	C 	0.8544	0.164	0.46457	0.418
Mof_C 	C 	0.8388	0.1797	0.44456	-0.173
Mof_C 	C 	0.8409	0.2072	0.4432	0.124
Mof_C 	C 	0.86582	0.07773	0.50812	0.389
Mof_C 	C 	0.86098	0.04951	0.51608	-0.163
Mof_C 	C 	0.84996	0.03198	0.49814	0.141
Mof_O 	O 	0.8496	0.64	0.96594	-0.598
Mof_O 	O 	0.87037	0.67458	0.97893	-0.435
Mof_O 	O 	0.8113	0.76156	0.9073	-0.577
Mof_O 	O 	0.85735	0.58688	0.98722	-0.5
Mof_O 	O 	0.87737	0.59235	0.02436	-0.553
Mof_O 	O 	0.8289	0.46412	0.99486	-0.423
Mof_O 	O 	0.82093	0.38961	0.95944	-0.437
Mof_C 	C 	0.8544	0.664	0.96457	0.418
Mof_C 	C 	0.8388	0.6797	0.94456	-0.173
Mof_C 	C 	0.8409	0.7072	0.9432	0.124
Mof_C 	C 	0.86582	0.57773	0.00812	0.388
Mof_C 	C 	0.86098	0.54951	0.01608	-0.165
Mof_C 	C 	0.84996	0.53198	0.99814	0.144
Mof_O 	O 	0.3496	0.14	0.96594	-0.598
Mof_O 	O 	0.37037	0.17458	0.97893	-0.435
Mof_O 	O 	0.3113	0.26156	0.9073	-0.577
Mof_O 	O 	0.35735	0.08688	0.98722	-0.501
Mof_O 	O 	0.37737	0.09235	0.02436	-0.553
Mof_O 	O 	0.3289	0.96412	0.99486	-0.424
Mof_O 	O 	0.32093	0.88961	0.95944	-0.437
Mof_C 	C 	0.3544	0.164	0.96457	0.418
Mof_C 	C 	0.3388	0.1797	0.94456	-0.173
Mof_C 	C 	0.3409	0.2072	0.9432	0.124
Mof_C 	C 	0.36582	0.07773	0.00812	0.388
Mof_C 	C 	0.36098	0.04951	0.01608	-0.166
Mof_C 	C 	0.34996	0.03198	0.99814	0.145
Mof_O 	O 	0.3496	0.64	0.46594	-0.599
Mof_O 	O 	0.37037	0.67458	0.47893	-0.436
Mof_O 	O 	0.3113	0.76156	0.4073	-0.577
Mof_O 	O 	0.35735	0.58688	0.48722	-0.502
Mof_O 	O 	0.37737	0.59235	0.52436	-0.554
Mof_O 	O 	0.3289	0.46412	0.49486	-0.423
Mof_O 	O 	0.32093	0.38961	0.45944	-0.437
Mof_C 	C 	0.3544	0.664	0.46457	0.418
Mof_C 	C 	0.3388	0.6797	0.44456	-0.173
Mof_C 	C 	0.3409	0.7072	0.4432	0.124
Mof_C 	C 	0.36582	0.57773	0.50812	0.389
Mof_C 	C 	0.36098	0.54951	0.51608	-0.162
Mof_C 	C 	0.34996	0.53198	0.49814	0.14
Mof_O 	O 	0.9004	0.11	0.96594	-0.598
Mof_O 	O 	0.87963	0.07542	0.97893	-0.435
Mof_O 	O 	0.9387	0.98844	0.9073	-0.575
Mof_O 	O 	0.89265	0.16312	0.98722	-0.5
Mof_O 	O 	0.87263	0.15765	0.02436	-0.553
Mof_O 	O 	0.9211	0.28588	0.99486	-0.423
Mof_O 	O 	0.92907	0.36039	0.95944	-0.437
Mof_C 	C 	0.8956	0.086	0.96457	0.418
Mof_C 	C 	0.9112	0.0703	0.94456	-0.173
Mof_C 	C 	0.9091	0.0428	0.9432	0.123
Mof_C 	C 	0.88418	0.17227	0.00812	0.388
Mof_C 	C 	0.88902	0.20049	0.01608	-0.165
Mof_C 	C 	0.90004	0.21802	0.99814	0.144
Mof_O 	O 	0.9004	0.61	0.46594	-0.599
Mof_O 	O 	0.87963	0.57542	0.47893	-0.436
Mof_O 	O 	0.9387	0.48844	0.4073	-0.577
Mof_O 	O 	0.89265	0.66312	0.48722	-0.502
Mof_O 	O 	0.87263	0.65765	0.52436	-0.554
Mof_O 	O 	0.9211	0.78588	0.49486	-0.423
Mof_O 	O 	0.92907	0.86039	0.45944	-0.437
Mof_C 	C 	0.8956	0.586	0.46457	0.418
Mof_C 	C 	0.9112	0.5703	0.44456	-0.173
Mof_C 	C 	0.9091	0.5428	0.4432	0.124
Mof_C 	C 	0.88418	0.67227	0.50812	0.389
Mof_C 	C 	0.88902	0.70049	0.51608	-0.162
Mof_C 	C 	0.90004	0.71802	0.49814	0.14
Mof_O 	O 	0.4004	0.11	0.46594	-0.599
Mof_O 	O 	0.37963	0.07542	0.47893	-0.437
Mof_O 	O 	0.4387	0.98844	0.4073	-0.575
Mof_O 	O 	0.39265	0.16312	0.48722	-0.502
Mof_O 	O 	0.37263	0.15765	0.52436	-0.554
Mof_O 	O 	0.4211	0.28588	0.49486	-0.423
Mof_O 	O 	0.42907	0.36039	0.45944	-0.437
Mof_C 	C 	0.3956	0.086	0.46457	0.418
Mof_C 	C 	0.4112	0.0703	0.44456	-0.173
Mof_C 	C 	0.4091	0.0428	0.4432	0.123
Mof_C 	C 	0.38418	0.17227	0.50812	0.389
Mof_C 	C 	0.38902	0.20049	0.51608	-0.162
Mof_C 	C 	0.40004	0.21802	0.49814	0.14
Mof_O 	O 	0.4004	0.61	0.96594	-0.598
Mof_O 	O 	0.37963	0.57542	0.97893	-0.435
Mof_O 	O 	0.4387	0.48844	0.9073	-0.577
Mof_O 	O 	0.39265	0.66312	0.98722	-0.5
Mof_O 	O 	0.37263	0.65765	0.02436	-0.553
Mof_O 	O 	0.4211	0.78588	0.99486	-0.423
Mof_O 	O 	0.42907	0.86039	0.95944	-0.437
Mof_C 	C 	0.3956	0.586	0.96457	0.418
Mof_C 	C 	0.4112	0.5703	0.94456	-0.173
Mof_C 	C 	0.4091	0.5428	0.9432	0.124
Mof_C 	C 	0.38418	0.67227	0.00812	0.388
Mof_C 	C 	0.38902	0.70049	0.01608	-0.165
Mof_C 	C 	0.40004	0.71802	0.99814	0.144
Mof_O 	O 	0.3496	0.61	0.78406	-0.599
Mof_O 	O 	0.37037	0.57542	0.77107	-0.436
Mof_O 	O 	0.3113	0.48844	0.8427	-0.577
Mof_O 	O 	0.35735	0.66312	0.76278	-0.502
Mof_O 	O 	0.37737	0.65765	0.72564	-0.554
Mof_O 	O 	0.3289	0.78588	0.75514	-0.423
Mof_O 	O 	0.32093	0.86039	0.79056	-0.437
Mof_C 	C 	0.3544	0.586	0.78543	0.418
Mof_C 	C 	0.3388	0.5703	0.80544	-0.173
Mof_C 	C 	0.3409	0.5428	0.8068	0.124
Mof_C 	C 	0.36582	0.67227	0.74188	0.389
Mof_C 	C 	0.36098	0.70049	0.73392	-0.162
Mof_C 	C 	0.34996	0.71802	0.75186	0.14
Mof_O 	O 	0.3496	0.11	0.28406	-0.599
Mof_O 	O 	0.37037	0.07542	0.27107	-0.437
Mof_O 	O 	0.3113	0.98844	0.3427	-0.575
Mof_O 	O 	0.35735	0.16312	0.26278	-0.502
Mof_O 	O 	0.37737	0.15765	0.22564	-0.554
Mof_O 	O 	0.3289	0.28588	0.25514	-0.423
Mof_O 	O 	0.32093	0.36039	0.29056	-0.437
Mof_C 	C 	0.3544	0.086	0.28543	0.418
Mof_C 	C 	0.3388	0.0703	0.30544	-0.173
Mof_C 	C 	0.3409	0.0428	0.3068	0.123
Mof_C 	C 	0.36582	0.17227	0.24188	0.389
Mof_C 	C 	0.36098	0.20049	0.23392	-0.162
Mof_C 	C 	0.34996	0.21802	0.25186	0.14
Mof_O 	O 	0.8496	0.61	0.28406	-0.599
Mof_O 	O 	0.87037	0.57542	0.27107	-0.436
Mof_O 	O 	0.8113	0.48844	0.3427	-0.577
Mof_O 	O 	0.85735	0.66312	0.26278	-0.502
Mof_O 	O 	0.87737	0.65765	0.22564	-0.554
Mof_O 	O 	0.8289	0.78588	0.25514	-0.423
Mof_O 	O 	0.82093	0.86039	0.29056	-0.437
Mof_C 	C 	0.8544	0.586	0.28543	0.418
Mof_C 	C 	0.8388	0.5703	0.30544	-0.173
Mof_C 	C 	0.8409	0.5428	0.3068	0.124
Mof_C 	C 	0.86582	0.67227	0.24188	0.389
Mof_C 	C 	0.86098	0.70049	0.23392	-0.162
Mof_C 	C 	0.84996	0.71802	0.25186	0.14
Mof_O 	O 	0.8496	0.11	0.78406	-0.599
Mof_O 	O 	0.87037	0.07542	0.77107	-0.437
Mof_O 	O 	0.8113	0.98844	0.8427	-0.575
Mof_O 	O 	0.85735	0.16312	0.76278	-0.502
Mof_O 	O 	0.87737	0.15765	0.72564	-0.554
Mof_O 	O 	0.8289	0.28588	0.75514	-0.423
Mof_O 	O 	0.82093	0.36039	0.79056	-0.437
Mof_C 	C 	0.8544	0.086	0.78543	0.418
Mof_C 	C 	0.8388	0.0703	0.80544	-0.173
Mof_C 	C 	0.8409	0.0428	0.8068	0.123
Mof_C 	C 	0.86582	0.17227	0.74188	0.389
Mof_C 	C 	0.86098	0.20049	0.73392	-0.162
Mof_C 	C 	0.84996	0.21802	0.75186	0.14
Mof_O 	O 	0.4004	0.64	0.28406	-0.599
Mof_O 	O 	0.37963	0.67458	0.27107	-0.436
Mof_O 	O 	0.4387	0.76156	0.3427	-0.577
Mof_O 	O 	0.39265	0.58688	0.26278	-0.502
Mof_O 	O 	0.37263	0.59235	0.22564	-0.554
Mof_O 	O 	0.4211	0.46412	0.25514	-0.423
Mof_O 	O 	0.42907	0.38961	0.29056	-0.437
Mof_C 	C 	0.3956	0.664	0.28543	0.418
Mof_C 	C 	0.4112	0.6797	0.30544	-0.173
Mof_C 	C 	0.4091	0.7072	0.3068	0.124
Mof_C 	C 	0.38418	0.57773	0.24188	0.389
Mof_C 	C 	0.38902	0.54951	0.23392	-0.162
Mof_C 	C 	0.40004	0.53198	0.25186	0.14
Mof_O 	O 	0.4004	0.14	0.78406	-0.599
Mof_O 	O 	0.37963	0.17458	0.77107	-0.436
Mof_O 	O 	0.4387	0.26156	0.8427	-0.577
Mof_O 	O 	0.39265	0.08688	0.76278	-0.503
Mof_O 	O 	0.37263	0.09235	0.72564	-0.554
Mof_O 	O 	0.4211	0.96412	0.75514	-0.424
Mof_O 	O 	0.42907	0.88961	0.79056	-0.437
Mof_C 	C 	0.3956	0.164	0.78543	0.418
Mof_C 	C 	0.4112	0.1797	0.80544	-0.173
Mof_C 	C 	0.4091	0.2072	0.8068	0.124
Mof_C 	C 	0.38418	0.07773	0.74188	0.389
Mof_C 	C 	0.38902	0.04951	0.73392	-0.163
Mof_C 	C 	0.40004	0.03198	0.75186	0.141
Mof_O 	O 	0.9004	0.64	0.78406	-0.599
Mof_O 	O 	0.87963	0.67458	0.77107	-0.436
Mof_O 	O 	0.9387	0.76156	0.8427	-0.577
Mof_O 	O 	0.89265	0.58688	0.76278	-0.502
Mof_O 	O 	0.87263	0.59235	0.72564	-0.554
Mof_O 	O 	0.9211	0.46412	0.75514	-0.423
Mof_O 	O 	0.92907	0.38961	0.79056	-0.437
Mof_C 	C 	0.8956	0.664	0.78543	0.418
Mof_C 	C 	0.9112	0.6797	0.80544	-0.173
Mof_C 	C 	0.9091	0.7072	0.8068	0.124
Mof_C 	C 	0.88418	0.57773	0.74188	0.389
Mof_C 	C 	0.88902	0.54951	0.73392	-0.162
Mof_C 	C 	0.90004	0.53198	0.75186	0.14
Mof_O 	O 	0.9004	0.14	0.28406	-0.599
Mof_O 	O 	0.87963	0.17458	0.27107	-0.436
Mof_O 	O 	0.9387	0.26156	0.3427	-0.577
Mof_O 	O 	0.89265	0.08688	0.26278	-0.503
Mof_O 	O 	0.87263	0.09235	0.22564	-0.554
Mof_O 	O 	0.9211	0.96412	0.25514	-0.423
Mof_O 	O 	0.92907	0.88961	0.29056	-0.437
Mof_C 	C 	0.8956	0.164	0.28543	0.418
Mof_C 	C 	0.9112	0.1797	0.30544	-0.173
Mof_C 	C 	0.9091	0.2072	0.3068	0.124
Mof_C 	C 	0.88418	0.07773	0.24188	0.389
Mof_C 	C 	0.88902	0.04951	0.23392	-0.163
Mof_C 	C 	0.90004	0.03198	0.25186	0.141
Mof_O 	O 	0.64	0.28406	0.4004	-0.599
Mof_O 	O 	0.67458	0.27107	0.37963	-0.436
Mof_O 	O 	0.76156	0.3427	0.4387	-0.577
Mof_O 	O 	0.58688	0.26278	0.39265	-0.502
Mof_O 	O 	0.59235	0.22564	0.37263	-0.554
Mof_O 	O 	0.46412	0.25514	0.4211	-0.423
Mof_O 	O 	0.38961	0.29056	0.42907	-0.437
Mof_C 	C 	0.664	0.28543	0.3956	0.418
Mof_C 	C 	0.6797	0.30544	0.4112	-0.173
Mof_C 	C 	0.7072	0.3068	0.4091	0.124
Mof_C 	C 	0.57773	0.24188	0.38418	0.389
Mof_C 	C 	0.54951	0.23392	0.38902	-0.162
Mof_C 	C 	0.53198	0.25186	0.40004	0.14
Mof_O 	O 	0.64	0.78406	0.9004	-0.599
Mof_O 	O 	0.67458	0.77107	0.87963	-0.436
Mof_O 	O 	0.76156	0.8427	0.9387	-0.577
Mof_O 	O 	0.58688	0.76278	0.89265	-0.502
Mof_O 	O 	0.59235	0.72564	0.87263	-0.554
Mof_O 	O 	0.46412	0.75514	0.9211	-0.423
Mof_O 	O 	0.38961	0.79056	0.92907	-0.437
Mof_C 	C 	0.664	0.78543	0.8956	0.418
Mof_C 	C 	0.6797	0.80544	0.9112	-0.173
Mof_C 	C 	0.7072	0.8068	0.9091	0.124
Mof_C 	C 	0.57773	0.74188	0.88418	0.389
Mof_C 	C 	0.54951	0.73392	0.88902	-0.162
Mof_C 	C 	0.53198	0.75186	0.90004	0.14
Mof_O 	O 	0.14	0.28406	0.9004	-0.599
Mof_O 	O 	0.17458	0.27107	0.87963	-0.436
Mof_O 	O 	0.26156	0.3427	0.9387	-0.577
Mof_O 	O 	0.08688	0.26278	0.89265	-0.503
Mof_O 	O 	0.09235	0.22564	0.87263	-0.554
Mof_O 	O 	0.96412	0.25514	0.9211	-0.423
Mof_O 	O 	0.88961	0.29056	0.92907	-0.437
Mof_C 	C 	0.164	0.28543	0.8956	0.418
Mof_C 	C 	0.1797	0.30544	0.9112	-0.173
Mof_C 	C 	0.2072	0.3068	0.9091	0.124
Mof_C 	C 	0.07773	0.24188	0.88418	0.389
Mof_C 	C 	0.04951	0.23392	0.88902	-0.163
Mof_C 	C 	0.03198	0.25186	0.90004	0.141
Mof_O 	O 	0.14	0.78406	0.4004	-0.599
Mof_O 	O 	0.17458	0.77107	0.37963	-0.436
Mof_O 	O 	0.26156	0.8427	0.4387	-0.577
Mof_O 	O 	0.08688	0.76278	0.39265	-0.503
Mof_O 	O 	0.09235	0.72564	0.37263	-0.554
Mof_O 	O 	0.96412	0.75514	0.4211	-0.424
Mof_O 	O 	0.88961	0.79056	0.42907	-0.437
Mof_C 	C 	0.164	0.78543	0.3956	0.418
Mof_C 	C 	0.1797	0.80544	0.4112	-0.173
Mof_C 	C 	0.2072	0.8068	0.4091	0.124
Mof_C 	C 	0.07773	0.74188	0.38418	0.389
Mof_C 	C 	0.04951	0.73392	0.38902	-0.163
Mof_C 	C 	0.03198	0.75186	0.40004	0.141
Mof_O 	O 	0.61	0.78406	0.3496	-0.599
Mof_O 	O 	0.57542	0.77107	0.37037	-0.436
Mof_O 	O 	0.48844	0.8427	0.3113	-0.577
Mof_O 	O 	0.66312	0.76278	0.35735	-0.502
Mof_O 	O 	0.65765	0.72564	0.37737	-0.554
Mof_O 	O 	0.78588	0.75514	0.3289	-0.423
Mof_O 	O 	0.86039	0.79056	0.32093	-0.437
Mof_C 	C 	0.586	0.78543	0.3544	0.418
Mof_C 	C 	0.5703	0.80544	0.3388	-0.173
Mof_C 	C 	0.5428	0.8068	0.3409	0.124
Mof_C 	C 	0.67227	0.74188	0.36582	0.389
Mof_C 	C 	0.70049	0.73392	0.36098	-0.162
Mof_C 	C 	0.71802	0.75186	0.34996	0.14
Mof_O 	O 	0.61	0.28406	0.8496	-0.599
Mof_O 	O 	0.57542	0.27107	0.87037	-0.436
Mof_O 	O 	0.48844	0.3427	0.8113	-0.577
Mof_O 	O 	0.66312	0.26278	0.85735	-0.502
Mof_O 	O 	0.65765	0.22564	0.87737	-0.554
Mof_O 	O 	0.78588	0.25514	0.8289	-0.423
Mof_O 	O 	0.86039	0.29056	0.82093	-0.437
Mof_C 	C 	0.586	0.28543	0.8544	0.418
Mof_C 	C 	0.5703	0.30544	0.8388	-0.173
Mof_C 	C 	0.5428	0.3068	0.8409	0.124
Mof_C 	C 	0.67227	0.24188	0.86582	0.389
Mof_C 	C 	0.70049	0.23392	0.86098	-0.162
Mof_C 	C 	0.71802	0.25186	0.84996	0.14
Mof_O 	O 	0.11	0.78406	0.8496	-0.599
Mof_O 	O 	0.07542	0.77107	0.87037	-0.437
Mof_O 	O 	0.98844	0.8427	0.8113	-0.575
Mof_O 	O 	0.16312	0.76278	0.85735	-0.502
Mof_O 	O 	0.15765	0.72564	0.87737	-0.554
Mof_O 	O 	0.28588	0.75514	0.8289	-0.423
Mof_O 	O 	0.36039	0.79056	0.82093	-0.437
Mof_C 	C 	0.086	0.78543	0.8544	0.418
Mof_C 	C 	0.0703	0.80544	0.8388	-0.173
Mof_C 	C 	0.0428	0.8068	0.8409	0.123
Mof_C 	C 	0.17227	0.74188	0.86582	0.389
Mof_C 	C 	0.20049	0.73392	0.86098	-0.162
Mof_C 	C 	0.21802	0.75186	0.84996	0.14
Mof_O 	O 	0.11	0.28406	0.3496	-0.599
Mof_O 	O 	0.07542	0.27107	0.37037	-0.437
Mof_O 	O 	0.98844	0.3427	0.3113	-0.575
Mof_O 	O 	0.16312	0.26278	0.35735	-0.502
Mof_O 	O 	0.15765	0.22564	0.37737	-0.554
Mof_O 	O 	0.28588	0.25514	0.3289	-0.423
Mof_O 	O 	0.36039	0.29056	0.32093	-0.437
Mof_C 	C 	0.086	0.28543	0.3544	0.418
Mof_C 	C 	0.0703	0.30544	0.3388	-0.173
Mof_C 	C 	0.0428	0.3068	0.3409	0.123
Mof_C 	C 	0.17227	0.24188	0.36582	0.389
Mof_C 	C 	0.20049	0.23392	0.36098	-0.162
Mof_C 	C 	0.21802	0.25186	0.34996	0.14
Mof_O 	O 	0.11	0.96594	0.9004	-0.598
Mof_O 	O 	0.07542	0.97893	0.87963	-0.435
Mof_O 	O 	0.98844	0.9073	0.9387	-0.575
Mof_O 	O 	0.16312	0.98722	0.89265	-0.5
Mof_O 	O 	0.15765	0.02436	0.87263	-0.553
Mof_O 	O 	0.28588	0.99486	0.9211	-0.423
Mof_O 	O 	0.36039	0.95944	0.92907	-0.437
Mof_C 	C 	0.086	0.96457	0.8956	0.418
Mof_C 	C 	0.0703	0.94456	0.9112	-0.173
Mof_C 	C 	0.0428	0.9432	0.9091	0.123
Mof_C 	C 	0.17227	0.00812	0.88418	0.388
Mof_C 	C 	0.20049	0.01608	0.88902	-0.165
Mof_C 	C 	0.21802	0.99814	0.90004	0.144
Mof_O 	O 	0.11	0.46594	0.4004	-0.599
Mof_O 	O 	0.07542	0.47893	0.37963	-0.437
Mof_O 	O 	0.98844	0.4073	0.4387	-0.575
Mof_O 	O 	0.16312	0.48722	0.39265	-0.502
Mof_O 	O 	0.15765	0.52436	0.37263	-0.554
Mof_O 	O 	0.28588	0.49486	0.4211	-0.423
Mof_O 	O 	0.36039	0.45944	0.42907	-0.437
Mof_C 	C 	0.086	0.46457	0.3956	0.418
Mof_C 	C 	0.0703	0.44456	0.4112	-0.173
Mof_C 	C 	0.0428	0.4432	0.4091	0.123
Mof_C 	C 	0.17227	0.50812	0.38418	0.389
Mof_C 	C 	0.20049	0.51608	0.38902	-0.162
Mof_C 	C 	0.21802	0.49814	0.40004	0.14
Mof_O 	O 	0.61	0.96594	0.4004	-0.598
Mof_O 	O 	0.57542	0.97893	0.37963	-0.435
Mof_O 	O 	0.48844	0.9073	0.4387	-0.577
Mof_O 	O 	0.66312	0.98722	0.39265	-0.5
Mof_O 	O 	0.65765	0.02436	0.37263	-0.553
Mof_O 	O 	0.78588	0.99486	0.4211	-0.423
Mof_O 	O 	0.86039	0.95944	0.42907	-0.437
Mof_C 	C 	0.586	0.96457	0.3956	0.418
Mof_C 	C 	0.5703	0.94456	0.4112	-0.173
Mof_C 	C 	0.5428	0.9432	0.4091	0.124
Mof_C 	C 	0.67227	0.00812	0.38418	0.388
Mof_C 	C 	0.70049	0.01608	0.38902	-0.165
Mof_C 	C 	0.71802	0.99814	0.40004	0.144
Mof_O 	O 	0.61	0.46594	0.9004	-0.599
Mof_O 	O 	0.57542	0.47893	0.87963	-0.436
Mof_O 	O 	0.48844	0.4073	0.9387	-0.577
Mof_O 	O 	0.66312	0.48722	0.89265	-0.502
Mof_O 	O 	0.65765	0.52436	0.87263	-0.554
Mof_O 	O 	0.78588	0.49486	0.9211	-0.423
Mof_O 	O 	0.86039	0.45944	0.92907	-0.437
Mof_C 	C 	0.586	0.46457	0.8956	0.418
Mof_C 	C 	0.5703	0.44456	0.9112	-0.173
Mof_C 	C 	0.5428	0.4432	0.9091	0.124
Mof_C 	C 	0.67227	0.50812	0.88418	0.389
Mof_C 	C 	0.70049	0.51608	0.88902	-0.162
Mof_C 	C 	0.71802	0.49814	0.90004	0.14
Mof_O 	O 	0.14	0.46594	0.8496	-0.599
Mof_O 	O 	0.17458	0.47893	0.87037	-0.436
Mof_O 	O 	0.26156	0.4073	0.8113	-0.577
Mof_O 	O 	0.08688	0.48722	0.85735	-0.503
Mof_O 	O 	0.09235	0.52436	0.87737	-0.554
Mof_O 	O 	0.96412	0.49486	0.8289	-0.423
Mof_O 	O 	0.88961	0.45944	0.82093	-0.437
Mof_C 	C 	0.164	0.46457	0.8544	0.418
Mof_C 	C 	0.1797	0.44456	0.8388	-0.173
Mof_C 	C 	0.2072	0.4432	0.8409	0.124
Mof_C 	C 	0.07773	0.50812	0.86582	0.389
Mof_C 	C 	0.04951	0.51608	0.86098	-0.163
Mof_C 	C 	0.03198	0.49814	0.84996	0.141
Mof_O 	O 	0.14	0.96594	0.3496	-0.598
Mof_O 	O 	0.17458	0.97893	0.37037	-0.435
Mof_O 	O 	0.26156	0.9073	0.3113	-0.577
Mof_O 	O 	0.08688	0.98722	0.35735	-0.501
Mof_O 	O 	0.09235	0.02436	0.37737	-0.553
Mof_O 	O 	0.96412	0.99486	0.3289	-0.424
Mof_O 	O 	0.88961	0.95944	0.32093	-0.437
Mof_C 	C 	0.164	0.96457	0.3544	0.418
Mof_C 	C 	0.1797	0.94456	0.3388	-0.173
Mof_C 	C 	0.2072	0.9432	0.3409	0.124
Mof_C 	C 	0.07773	0.00812	0.36582	0.388
Mof_C 	C 	0.04951	0.01608	0.36098	-0.166
Mof_C 	C 	0.03198	0.99814	0.34996	0.145
Mof_O 	O 	0.64	0.46594	0.3496	-0.599
Mof_O 	O 	0.67458	0.47893	0.37037	-0.436
Mof_O 	O 	0.76156	0.4073	0.3113	-0.577
Mof_O 	O 	0.58688	0.48722	0.35735	-0.502
Mof_O 	O 	0.59235	0.52436	0.37737	-0.554
Mof_O 	O 	0.46412	0.49486	0.3289	-0.423
Mof_O 	O 	0.38961	0.45944	0.32093	-0.437
Mof_C 	C 	0.664	0.46457	0.3544	0.418
Mof_C 	C 	0.6797	0.44456	0.3388	-0.173
Mof_C 	C 	0.7072	0.4432	0.3409	0.124
Mof_C 	C 	0.57773	0.50812	0.36582	0.389
Mof_C 	C 	0.54951	0.51608	0.36098	-0.162
Mof_C 	C 	0.53198	0.49814	0.34996	0.14
Mof_O 	O 	0.64	0.96594	0.8496	-0.598
Mof_O 	O 	0.67458	0.97893	0.87037	-0.435
Mof_O 	O 	0.76156	0.9073	0.8113	-0.577
Mof_O 	O 	0.58688	0.98722	0.85735	-0.5
Mof_O 	O 	0.59235	0.02436	0.87737	-0.553
Mof_O 	O 	0.46412	0.99486	0.8289	-0.423
Mof_O 	O 	0.38961	0.95944	0.82093	-0.437
Mof_C 	C 	0.664	0.96457	0.8544	0.418
Mof_C 	C 	0.6797	0.94456	0.8388	-0.173
Mof_C 	C 	0.7072	0.9432	0.8409	0.124
Mof_C 	C 	0.57773	0.00812	0.86582	0.388
Mof_C 	C 	0.54951	0.01608	0.86098	-0.165
Mof_C 	C 	0.53198	0.99814	0.84996	0.144
Mof_O 	O 	0.78406	0.3496	0.61	-0.599
Mof_O 	O 	0.77107	0.37037	0.57542	-0.436
Mof_O 	O 	0.8427	0.3113	0.48844	-0.577
Mof_O 	O 	0.76278	0.35735	0.66312	-0.502
Mof_O 	O 	0.72564	0.37737	0.65765	-0.554
Mof_O 	O 	0.75514	0.3289	0.78588	-0.423
Mof_O 	O 	0.79056	0.32093	0.86039	-0.437
Mof_C 	C 	0.78543	0.3544	0.586	0.418
Mof_C 	C 	0.80544	0.3388	0.5703	-0.173
Mof_C 	C 	0.8068	0.3409	0.5428	0.124
Mof_C 	C 	0.74188	0.36582	0.67227	0.389
Mof_C 	C 	0.73392	0.36098	0.70049	-0.162
Mof_C 	C 	0.75186	0.34996	0.71802	0.14
Mof_O 	O 	0.78406	0.8496	0.11	-0.599
Mof_O 	O 	0.77107	0.87037	0.07542	-0.437
Mof_O 	O 	0.8427	0.8113	0.98844	-0.575
Mof_O 	O 	0.76278	0.85735	0.16312	-0.502
Mof_O 	O 	0.72564	0.87737	0.15765	-0.554
Mof_O 	O 	0.75514	0.8289	0.28588	-0.423
Mof_O 	O 	0.79056	0.82093	0.36039	-0.437
Mof_C 	C 	0.78543	0.8544	0.086	0.418
Mof_C 	C 	0.80544	0.8388	0.0703	-0.173
Mof_C 	C 	0.8068	0.8409	0.0428	0.123
Mof_C 	C 	0.74188	0.86582	0.17227	0.389
Mof_C 	C 	0.73392	0.86098	0.20049	-0.162
Mof_C 	C 	0.75186	0.84996	0.21802	0.14
Mof_O 	O 	0.28406	0.3496	0.11	-0.599
Mof_O 	O 	0.27107	0.37037	0.07542	-0.437
Mof_O 	O 	0.3427	0.3113	0.98844	-0.575
Mof_O 	O 	0.26278	0.35735	0.16312	-0.502
Mof_O 	O 	0.22564	0.37737	0.15765	-0.554
Mof_O 	O 	0.25514	0.3289	0.28588	-0.423
Mof_O 	O 	0.29056	0.32093	0.36039	-0.437
Mof_C 	C 	0.28543	0.3544	0.086	0.418
Mof_C 	C 	0.30544	0.3388	0.0703	-0.173
Mof_C 	C 	0.3068	0.3409	0.0428	0.123
Mof_C 	C 	0.24188	0.36582	0.17227	0.389
Mof_C 	C 	0.23392	0.36098	0.20049	-0.162
Mof_C 	C 	0.25186	0.34996	0.21802	0.14
Mof_O 	O 	0.28406	0.8496	0.61	-0.599
Mof_O 	O 	0.27107	0.87037	0.57542	-0.436
Mof_O 	O 	0.3427	0.8113	0.48844	-0.577
Mof_O 	O 	0.26278	0.85735	0.66312	-0.502
Mof_O 	O 	0.22564	0.87737	0.65765	-0.554
Mof_O 	O 	0.25514	0.8289	0.78588	-0.423
Mof_O 	O 	0.29056	0.82093	0.86039	-0.437
Mof_C 	C 	0.28543	0.8544	0.586	0.418
Mof_C 	C 	0.30544	0.8388	0.5703	-0.173
Mof_C 	C 	0.3068	0.8409	0.5428	0.124
Mof_C 	C 	0.24188	0.86582	0.67227	0.389
Mof_C 	C 	0.23392	0.86098	0.70049	-0.162
Mof_C 	C 	0.25186	0.84996	0.71802	0.14
Mof_O 	O 	0.28406	0.4004	0.64	-0.599
Mof_O 	O 	0.27107	0.37963	0.67458	-0.436
Mof_O 	O 	0.3427	0.4387	0.76156	-0.577
Mof_O 	O 	0.26278	0.39265	0.58688	-0.502
Mof_O 	O 	0.22564	0.37263	0.59235	-0.554
Mof_O 	O 	0.25514	0.4211	0.46412	-0.423
Mof_O 	O 	0.29056	0.42907	0.38961	-0.437
Mof_C 	C 	0.28543	0.3956	0.664	0.418
Mof_C 	C 	0.30544	0.4112	0.6797	-0.173
Mof_C 	C 	0.3068	0.4091	0.7072	0.124
Mof_C 	C 	0.24188	0.38418	0.57773	0.389
Mof_C 	C 	0.23392	0.38902	0.54951	-0.162
Mof_C 	C 	0.25186	0.40004	0.53198	0.14
Mof_O 	O 	0.28406	0.9004	0.14	-0.599
Mof_O 	O 	0.27107	0.87963	0.17458	-0.436
Mof_O 	O 	0.3427	0.9387	0.26156	-0.577
Mof_O 	O 	0.26278	0.89265	0.08688	-0.503
Mof_O 	O 	0.22564	0.87263	0.09235	-0.554
Mof_O 	O 	0.25514	0.9211	0.96412	-0.423
Mof_O 	O 	0.29056	0.92907	0.88961	-0.437
Mof_C 	C 	0.28543	0.8956	0.164	0.418
Mof_C 	C 	0.30544	0.9112	0.1797	-0.173
Mof_C 	C 	0.3068	0.9091	0.2072	0.124
Mof_C 	C 	0.24188	0.88418	0.07773	0.389
Mof_C 	C 	0.23392	0.88902	0.04951	-0.163
Mof_C 	C 	0.25186	0.90004	0.03198	0.141
Mof_O 	O 	0.78406	0.4004	0.14	-0.599
Mof_O 	O 	0.77107	0.37963	0.17458	-0.436
Mof_O 	O 	0.8427	0.4387	0.26156	-0.577
Mof_O 	O 	0.76278	0.39265	0.08688	-0.503
Mof_O 	O 	0.72564	0.37263	0.09235	-0.554
Mof_O 	O 	0.75514	0.4211	0.96412	-0.424
Mof_O 	O 	0.79056	0.42907	0.88961	-0.437
Mof_C 	C 	0.78543	0.3956	0.164	0.418
Mof_C 	C 	0.80544	0.4112	0.1797	-0.173
Mof_C 	C 	0.8068	0.4091	0.2072	0.124
Mof_C 	C 	0.74188	0.38418	0.07773	0.389
Mof_C 	C 	0.73392	0.38902	0.04951	-0.163
Mof_C 	C 	0.75186	0.40004	0.03198	0.141
Mof_O 	O 	0.78406	0.9004	0.64	-0.599
Mof_O 	O 	0.77107	0.87963	0.67458	-0.436
Mof_O 	O 	0.8427	0.9387	0.76156	-0.577
Mof_O 	O 	0.76278	0.89265	0.58688	-0.502
Mof_O 	O 	0.72564	0.87263	0.59235	-0.554
Mof_O 	O 	0.75514	0.9211	0.46412	-0.423
Mof_O 	O 	0.79056	0.92907	0.38961	-0.437
Mof_C 	C 	0.78543	0.8956	0.664	0.418
Mof_C 	C 	0.80544	0.9112	0.6797	-0.173
Mof_C 	C 	0.8068	0.9091	0.7072	0.124
Mof_C 	C 	0.74188	0.88418	0.57773	0.389
Mof_C 	C 	0.73392	0.88902	0.54951	-0.162
Mof_C 	C 	0.75186	0.90004	0.53198	0.14
Mof_O 	O 	0.46594	0.8496	0.14	-0.599
Mof_O 	O 	0.47893	0.87037	0.17458	-0.436
Mof_O 	O 	0.4073	0.8113	0.26156	-0.577
Mof_O 	O 	0.48722	0.85735	0.08688	-0.503
Mof_O 	O 	0.52436	0.87737	0.09235	-0.554
Mof_O 	O 	0.49486	0.8289	0.96412	-0.423
Mof_O 	O 	0.45944	0.82093	0.88961	-0.437
Mof_C 	C 	0.46457	0.8544	0.164	0.418
Mof_C 	C 	0.44456	0.8388	0.1797	-0.173
Mof_C 	C 	0.4432	0.8409	0.2072	0.124
Mof_C 	C 	0.50812	0.86582	0.07773	0.389
Mof_C 	C 	0.51608	0.86098	0.04951	-0.163
Mof_C 	C 	0.49814	0.84996	0.03198	0.141
Mof_O 	O 	0.46594	0.3496	0.64	-0.599
Mof_O 	O 	0.47893	0.37037	0.67458	-0.436
Mof_O 	O 	0.4073	0.3113	0.76156	-0.577
Mof_O 	O 	0.48722	0.35735	0.58688	-0.502
Mof_O 	O 	0.52436	0.37737	0.59235	-0.554
Mof_O 	O 	0.49486	0.3289	0.46412	-0.423
Mof_O 	O 	0.45944	0.32093	0.38961	-0.437
Mof_C 	C 	0.46457	0.3544	0.664	0.418
Mof_C 	C 	0.44456	0.3388	0.6797	-0.173
Mof_C 	C 	0.4432	0.3409	0.7072	0.124
Mof_C 	C 	0.50812	0.36582	0.57773	0.389
Mof_C 	C 	0.51608	0.36098	0.54951	-0.162
Mof_C 	C 	0.49814	0.34996	0.53198	0.14
Mof_O 	O 	0.96594	0.8496	0.64	-0.598
Mof_O 	O 	0.97893	0.87037	0.67458	-0.435
Mof_O 	O 	0.9073	0.8113	0.76156	-0.577
Mof_O 	O 	0.98722	0.85735	0.58688	-0.5
Mof_O 	O 	0.02436	0.87737	0.59235	-0.553
Mof_O 	O 	0.99486	0.8289	0.46412	-0.423
Mof_O 	O 	0.95944	0.82093	0.38961	-0.437
Mof_C 	C 	0.96457	0.8544	0.664	0.418
Mof_C 	C 	0.94456	0.8388	0.6797	-0.173
Mof_C 	C 	0.9432	0.8409	0.7072	0.124
Mof_C 	C 	0.00812	0.86582	0.57773	0.388
Mof_C 	C 	0.01608	0.86098	0.54951	-0.165
Mof_C 	C 	0.99814	0.84996	0.53198	0.144
Mof_O 	O 	0.96594	0.3496	0.14	-0.598
Mof_O 	O 	0.97893	0.37037	0.17458	-0.435
Mof_O 	O 	0.9073	0.3113	0.26156	-0.577
Mof_O 	O 	0.98722	0.35735	0.08688	-0.501
Mof_O 	O 	0.02436	0.37737	0.09235	-0.553
Mof_O 	O 	0.99486	0.3289	0.96412	-0.424
Mof_O 	O 	0.95944	0.32093	0.88961	-0.437
Mof_C 	C 	0.96457	0.3544	0.164	0.418
Mof_C 	C 	0.94456	0.3388	0.1797	-0.173
Mof_C 	C 	0.9432	0.3409	0.2072	0.124
Mof_C 	C 	0.00812	0.36582	0.07773	0.388
Mof_C 	C 	0.01608	0.36098	0.04951	-0.166
Mof_C 	C 	0.99814	0.34996	0.03198	0.145
Mof_O 	O 	0.96594	0.9004	0.11	-0.598
Mof_O 	O 	0.97893	0.87963	0.07542	-0.435
Mof_O 	O 	0.9073	0.9387	0.98844	-0.575
Mof_O 	O 	0.98722	0.89265	0.16312	-0.5
Mof_O 	O 	0.02436	0.87263	0.15765	-0.553
Mof_O 	O 	0.99486	0.9211	0.28588	-0.423
Mof_O 	O 	0.95944	0.92907	0.36039	-0.437
Mof_C 	C 	0.96457	0.8956	0.086	0.418
Mof_C 	C 	0.94456	0.9112	0.0703	-0.173
Mof_C 	C 	0.9432	0.9091	0.0428	0.123
Mof_C 	C 	0.00812	0.88418	0.17227	0.388
Mof_C 	C 	0.01608	0.88902	0.20049	-0.165
Mof_C 	C 	0.99814	0.90004	0.21802	0.144
Mof_O 	O 	0.96594	0.4004	0.61	-0.598
Mof_O 	O 	0.97893	0.37963	0.57542	-0.435
Mof_O 	O 	0.9073	0.4387	0.48844	-0.577
Mof_O 	O 	0.98722	0.39265	0.66312	-0.5
Mof_O 	O 	0.02436	0.37263	0.65765	-0.553
Mof_O 	O 	0.99486	0.4211	0.78588	-0.423
Mof_O 	O 	0.95944	0.42907	0.86039	-0.437
Mof_C 	C 	0.96457	0.3956	0.586	0.418
Mof_C 	C 	0.94456	0.4112	0.5703	-0.173
Mof_C 	C 	0.9432	0.4091	0.5428	0.124
Mof_C 	C 	0.00812	0.38418	0.67227	0.388
Mof_C 	C 	0.01608	0.38902	0.70049	-0.165
Mof_C 	C 	0.99814	0.40004	0.71802	0.144
Mof_O 	O 	0.46594	0.9004	0.61	-0.599
Mof_O 	O 	0.47893	0.87963	0.57542	-0.436
Mof_O 	O 	0.4073	0.9387	0.48844	-0.577
Mof_O 	O 	0.48722	0.89265	0.66312	-0.502
Mof_O 	O 	0.52436	0.87263	0.65765	-0.554
Mof_O 	O 	0.49486	0.9211	0.78588	-0.423
Mof_O 	O 	0.45944	0.92907	0.86039	-0.437
Mof_C 	C 	0.46457	0.8956	0.586	0.418
Mof_C 	C 	0.44456	0.9112	0.5703	-0.173
Mof_C 	C 	0.4432	0.9091	0.5428	0.124
Mof_C 	C 	0.50812	0.88418	0.67227	0.389
Mof_C 	C 	0.51608	0.88902	0.70049	-0.162
Mof_C 	C 	0.49814	0.90004	0.71802	0.14
Mof_O 	O 	0.46594	0.4004	0.11	-0.599
Mof_O 	O 	0.47893	0.37963	0.07542	-0.437
Mof_O 	O 	0.4073	0.4387	0.98844	-0.575
Mof_O 	O 	0.48722	0.39265	0.16312	-0.502
Mof_O 	O 	0.52436	0.37263	0.15765	-0.554
Mof_O 	O 	0.49486	0.4211	0.28588	-0.423
Mof_O 	O 	0.45944	0.42907	0.36039	-0.437
Mof_C 	C 	0.46457	0.3956	0.086	0.418
Mof_C 	C 	0.44456	0.4112	0.0703	-0.173
Mof_C 	C 	0.4432	0.4091	0.0428	0.123
Mof_C 	C 	0.50812	0.38418	0.17227	0.389
Mof_C 	C 	0.51608	0.38902	0.20049	-0.162
Mof_C 	C 	0.49814	0.40004	0.21802	0.14
Mof_O 	O 	0.11	0.9004	0.96594	-0.598
Mof_O 	O 	0.07542	0.87963	0.97893	-0.435
Mof_O 	O 	0.98844	0.9387	0.9073	-0.575
Mof_O 	O 	0.16312	0.89265	0.98722	-0.5
Mof_O 	O 	0.15765	0.87263	0.02436	-0.553
Mof_O 	O 	0.28588	0.9211	0.99486	-0.423
Mof_O 	O 	0.36039	0.92907	0.95944	-0.437
Mof_C 	C 	0.086	0.8956	0.96457	0.418
Mof_C 	C 	0.0703	0.9112	0.94456	-0.173
Mof_C 	C 	0.0428	0.9091	0.9432	0.123
Mof_C 	C 	0.17227	0.88418	0.00812	0.388
Mof_C 	C 	0.20049	0.88902	0.01608	-0.165
Mof_C 	C 	0.21802	0.90004	0.99814	0.144
Mof_O 	O 	0.11	0.4004	0.46594	-0.599
Mof_O 	O 	0.07542	0.37963	0.47893	-0.437
Mof_O 	O 	0.98844	0.4387	0.4073	-0.575
Mof_O 	O 	0.16312	0.39265	0.48722	-0.502
Mof_O 	O 	0.15765	0.37263	0.52436	-0.554
Mof_O 	O 	0.28588	0.4211	0.49486	-0.423
Mof_O 	O 	0.36039	0.42907	0.45944	-0.437
Mof_C 	C 	0.086	0.3956	0.46457	0.418
Mof_C 	C 	0.0703	0.4112	0.44456	-0.173
Mof_C 	C 	0.0428	0.4091	0.4432	0.123
Mof_C 	C 	0.17227	0.38418	0.50812	0.389
Mof_C 	C 	0.20049	0.38902	0.51608	-0.162
Mof_C 	C 	0.21802	0.40004	0.49814	0.14
Mof_O 	O 	0.61	0.9004	0.46594	-0.599
Mof_O 	O 	0.57542	0.87963	0.47893	-0.436
Mof_O 	O 	0.48844	0.9387	0.4073	-0.577
Mof_O 	O 	0.66312	0.89265	0.48722	-0.502
Mof_O 	O 	0.65765	0.87263	0.52436	-0.554
Mof_O 	O 	0.78588	0.9211	0.49486	-0.423
Mof_O 	O 	0.86039	0.92907	0.45944	-0.437
Mof_C 	C 	0.586	0.8956	0.46457	0.418
Mof_C 	C 	0.5703	0.9112	0.44456	-0.173
Mof_C 	C 	0.5428	0.9091	0.4432	0.124
Mof_C 	C 	0.67227	0.88418	0.50812	0.389
Mof_C 	C 	0.70049	0.88902	0.51608	-0.162
Mof_C 	C 	0.71802	0.90004	0.49814	0.14
Mof_O 	O 	0.61	0.4004	0.96594	-0.598
Mof_O 	O 	0.57542	0.37963	0.97893	-0.435
Mof_O 	O 	0.48844	0.4387	0.9073	-0.577
Mof_O 	O 	0.66312	0.39265	0.98722	-0.5
Mof_O 	O 	0.65765	0.37263	0.02436	-0.553
Mof_O 	O 	0.78588	0.4211	0.99486	-0.423
Mof_O 	O 	0.86039	0.42907	0.95944	-0.437
Mof_C 	C 	0.586	0.3956	0.96457	0.418
Mof_C 	C 	0.5703	0.4112	0.94456	-0.173
Mof_C 	C 	0.5428	0.4091	0.9432	0.124
Mof_C 	C 	0.67227	0.38418	0.00812	0.388
Mof_C 	C 	0.70049	0.38902	0.01608	-0.165
Mof_C 	C 	0.71802	0.40004	0.99814	0.144
Mof_O 	O 	0.14	0.8496	0.46594	-0.599
Mof_O 	O 	0.17458	0.87037	0.47893	-0.436
Mof_O 	O 	0.26156	0.8113	0.4073	-0.577
Mof_O 	O 	0.08688	0.85735	0.48722	-0.503
Mof_O 	O 	0.09235	0.87737	0.52436	-0.554
Mof_O 	O 	0.96412	0.8289	0.49486	-0.423
Mof_O 	O 	0.88961	0.82093	0.45944	-0.437
Mof_C 	C 	0.164	0.8544	0.46457	0.418
Mof_C 	C 	0.1797	0.8388	0.44456	-0.173
Mof_C 	C 	0.2072	0.8409	0.4432	0.124
Mof_C 	C 	0.07773	0.86582	0.50812	0.389
Mof_C 	C 	0.04951	0.86098	0.51608	-0.163
Mof_C 	C 	0.03198	0.84996	0.49814	0.141
Mof_O 	O 	0.14	0.3496	0.96594	-0.598
Mof_O 	O 	0.17458	0.37037	0.97893	-0.435
Mof_O 	O 	0.26156	0.3113	0.9073	-0.577
Mof_O 	O 	0.08688	0.35735	0.98722	-0.501
Mof_O 	O 	0.09235	0.37737	0.02436	-0.553
Mof_O 	O 	0.96412	0.3289	0.99486	-0.424
Mof_O 	O 	0.88961	0.32093	0.95944	-0.437
Mof_C 	C 	0.164	0.3544	0.96457	0.418
Mof_C 	C 	0.1797	0.3388	0.94456	-0.173
Mof_C 	C 	0.2072	0.3409	0.9432	0.124
Mof_C 	C 	0.07773	0.36582	0.00812	0.388
Mof_C 	C 	0.04951	0.36098	0.01608	-0.166
Mof_C 	C 	0.03198	0.34996	0.99814	0.145
Mof_O 	O 	0.64	0.8496	0.96594	-0.598
Mof_O 	O 	0.67458	0.87037	0.97893	-0.435
Mof_O 	O 	0.76156	0.8113	0.9073	-0.577
Mof_O 	O 	0.58688	0.85735	0.98722	-0.5
Mof_O 	O 	0.59235	0.87737	0.02436	-0.553
Mof_O 	O 	0.46412	0.8289	0.99486	-0.423
Mof_O 	O 	0.38961	0.82093	0.95944	-0.437
Mof_C 	C 	0.664	0.8544	0.96457	0.418
Mof_C 	C 	0.6797	0.8388	0.94456	-0.173
Mof_C 	C 	0.7072	0.8409	0.9432	0.124
Mof_C 	C 	0.57773	0.86582	0.00812	0.388
Mof_C 	C 	0.54951	0.86098	0.01608	-0.165
Mof_C 	C 	0.53198	0.84996	0.99814	0.144
Mof_O 	O 	0.64	0.3496	0.46594	-0.599
Mof_O 	O 	0.67458	0.37037	0.47893	-0.436
Mof_O 	O 	0.76156	0.3113	0.4073	-0.577
Mof_O 	O 	0.58688	0.35735	0.48722	-0.502
Mof_O 	O 	0.59235	0.37737	0.52436	-0.554
Mof_O 	O 	0.46412	0.3289	0.49486	-0.423
Mof_O 	O 	0.38961	0.32093	0.45944	-0.437
Mof_C 	C 	0.664	0.3544	0.46457	0.418
Mof_C 	C 	0.6797	0.3388	0.44456	-0.173
Mof_C 	C 	0.7072	0.3409	0.4432	0.124
Mof_C 	C 	0.57773	0.36582	0.50812	0.389
Mof_C 	C 	0.54951	0.36098	0.51608	-0.162
Mof_C 	C 	0.53198	0.34996	0.49814	0.14
Mof_O 	O 	0.64	0.4004	0.28406	-0.599
Mof_O 	O 	0.67458	0.37963	0.27107	-0.436
Mof_O 	O 	0.76156	0.4387	0.3427	-0.577
Mof_O 	O 	0.58688	0.39265	0.26278	-0.502
Mof_O 	O 	0.59235	0.37263	0.22564	-0.554
Mof_O 	O 	0.46412	0.4211	0.25514	-0.423
Mof_O 	O 	0.38961	0.42907	0.29056	-0.437
Mof_C 	C 	0.664	0.3956	0.28543	0.418
Mof_C 	C 	0.6797	0.4112	0.30544	-0.173
Mof_C 	C 	0.7072	0.4091	0.3068	0.124
Mof_C 	C 	0.57773	0.38418	0.24188	0.389
Mof_C 	C 	0.54951	0.38902	0.23392	-0.162
Mof_C 	C 	0.53198	0.40004	0.25186	0.14
Mof_O 	O 	0.64	0.9004	0.78406	-0.599
Mof_O 	O 	0.67458	0.87963	0.77107	-0.436
Mof_O 	O 	0.76156	0.9387	0.8427	-0.577
Mof_O 	O 	0.58688	0.89265	0.76278	-0.502
Mof_O 	O 	0.59235	0.87263	0.72564	-0.554
Mof_O 	O 	0.46412	0.9211	0.75514	-0.423
Mof_O 	O 	0.38961	0.92907	0.79056	-0.437
Mof_C 	C 	0.664	0.8956	0.78543	0.418
Mof_C 	C 	0.6797	0.9112	0.80544	-0.173
Mof_C 	C 	0.7072	0.9091	0.8068	0.124
Mof_C 	C 	0.57773	0.88418	0.74188	0.389
Mof_C 	C 	0.54951	0.88902	0.73392	-0.162
Mof_C 	C 	0.53198	0.90004	0.75186	0.14
Mof_O 	O 	0.14	0.4004	0.78406	-0.599
Mof_O 	O 	0.17458	0.37963	0.77107	-0.436
Mof_O 	O 	0.26156	0.4387	0.8427	-0.577
Mof_O 	O 	0.08688	0.39265	0.76278	-0.503
Mof_O 	O 	0.09235	0.37263	0.72564	-0.554
Mof_O 	O 	0.96412	0.4211	0.75514	-0.424
Mof_O 	O 	0.88961	0.42907	0.79056	-0.437
Mof_C 	C 	0.164	0.3956	0.78543	0.418
Mof_C 	C 	0.1797	0.4112	0.80544	-0.173
Mof_C 	C 	0.2072	0.4091	0.8068	0.124
Mof_C 	C 	0.07773	0.38418	0.74188	0.389
Mof_C 	C 	0.04951	0.38902	0.73392	-0.163
Mof_C 	C 	0.03198	0.40004	0.75186	0.141
Mof_O 	O 	0.14	0.9004	0.28406	-0.599
Mof_O 	O 	0.17458	0.87963	0.27107	-0.436
Mof_O 	O 	0.26156	0.9387	0.3427	-0.577
Mof_O 	O 	0.08688	0.89265	0.26278	-0.503
Mof_O 	O 	0.09235	0.87263	0.22564	-0.554
Mof_O 	O 	0.96412	0.9211	0.25514	-0.423
Mof_O 	O 	0.88961	0.92907	0.29056	-0.437
Mof_C 	C 	0.164	0.8956	0.28543	0.418
Mof_C 	C 	0.1797	0.9112	0.30544	-0.173
Mof_C 	C 	0.2072	0.9091	0.3068	0.124
Mof_C 	C 	0.07773	0.88418	0.24188	0.389
Mof_C 	C 	0.04951	0.88902	0.23392	-0.163
Mof_C 	C 	0.03198	0.90004	0.25186	0.141
Mof_O 	O 	0.61	0.3496	0.78406	-0.599
Mof_O 	O 	0.57542	0.37037	0.77107	-0.436
Mof_O 	O 	0.48844	0.3113	0.8427	-0.577
Mof_O 	O 	0.66312	0.35735	0.76278	-0.502
Mof_O 	O 	0.65765	0.37737	0.72564	-0.554
Mof_O 	O 	0.78588	0.3289	0.75514	-0.423
Mof_O 	O 	0.86039	0.32093	0.79056	-0.437
Mof_C 	C 	0.586	0.3544	0.78543	0.418
Mof_C 	C 	0.5703	0.3388	0.80544	-0.173
Mof_C 	C 	0.5428	0.3409	0.8068	0.124
Mof_C 	C 	0.67227	0.36582	0.74188	0.389
Mof_C 	C 	0.70049	0.36098	0.73392	-0.162
Mof_C 	C 	0.71802	0.34996	0.75186	0.14
Mof_O 	O 	0.61	0.8496	0.28406	-0.599
Mof_O 	O 	0.57542	0.87037	0.27107	-0.436
Mof_O 	O 	0.48844	0.8113	0.3427	-0.577
Mof_O 	O 	0.66312	0.85735	0.26278	-0.502
Mof_O 	O 	0.65765	0.87737	0.22564	-0.554
Mof_O 	O 	0.78588	0.8289	0.25514	-0.423
Mof_O 	O 	0.86039	0.82093	0.29056	-0.437
Mof_C 	C 	0.586	0.8544	0.28543	0.418
Mof_C 	C 	0.5703	0.8388	0.30544	-0.173
Mof_C 	C 	0.5428	0.8409	0.3068	0.124
Mof_C 	C 	0.67227	0.86582	0.24188	0.389
Mof_C 	C 	0.70049	0.86098	0.23392	-0.162
Mof_C 	C 	0.71802	0.84996	0.25186	0.14
Mof_O 	O 	0.11	0.3496	0.28406	-0.599
Mof_O 	O 	0.07542	0.37037	0.27107	-0.437
Mof_O 	O 	0.98844	0.3113	0.3427	-0.575
Mof_O 	O 	0.16312	0.35735	0.26278	-0.502
Mof_O 	O 	0.15765	0.37737	0.22564	-0.554
Mof_O 	O 	0.28588	0.3289	0.25514	-0.423
Mof_O 	O 	0.36039	0.32093	0.29056	-0.437
Mof_C 	C 	0.086	0.3544	0.28543	0.418
Mof_C 	C 	0.0703	0.3388	0.30544	-0.173
Mof_C 	C 	0.0428	0.3409	0.3068	0.123
Mof_C 	C 	0.17227	0.36582	0.24188	0.389
Mof_C 	C 	0.20049	0.36098	0.23392	-0.162
Mof_C 	C 	0.21802	0.34996	0.25186	0.14
Mof_O 	O 	0.11	0.8496	0.78406	-0.599
Mof_O 	O 	0.07542	0.87037	0.77107	-0.437
Mof_O 	O 	0.98844	0.8113	0.8427	-0.575
Mof_O 	O 	0.16312	0.85735	0.76278	-0.502
Mof_O 	O 	0.15765	0.87737	0.72564	-0.554
Mof_O 	O 	0.28588	0.8289	0.75514	-0.423
Mof_O 	O 	0.36039	0.82093	0.79056	-0.437
Mof_C 	C 	0.086	0.8544	0.78543	0.418
Mof_C 	C 	0.0703	0.8388	0.80544	-0.173
Mof_C 	C 	0.0428	0.8409	0.8068	0.123
Mof_C 	C 	0.17227	0.86582	0.74188	0.389
Mof_C 	C 	0.20049	0.86098	0.73392	-0.162
Mof_C 	C 	0.21802	0.84996	0.75186	0.14
Mof_O 	O 	0.96594	0.11	0.9004	-0.598
Mof_O 	O 	0.97893	0.07542	0.87963	-0.435
Mof_O 	O 	0.9073	0.98844	0.9387	-0.575
Mof_O 	O 	0.98722	0.16312	0.89265	-0.5
Mof_O 	O 	0.02436	0.15765	0.87263	-0.553
Mof_O 	O 	0.99486	0.28588	0.9211	-0.423
Mof_O 	O 	0.95944	0.36039	0.92907	-0.437
Mof_C 	C 	0.96457	0.086	0.8956	0.418
Mof_C 	C 	0.94456	0.0703	0.9112	-0.173
Mof_C 	C 	0.9432	0.0428	0.9091	0.123
Mof_C 	C 	0.00812	0.17227	0.88418	0.388
Mof_C 	C 	0.01608	0.20049	0.88902	-0.165
Mof_C 	C 	0.99814	0.21802	0.90004	0.144
Mof_O 	O 	0.96594	0.61	0.4004	-0.598
Mof_O 	O 	0.97893	0.57542	0.37963	-0.435
Mof_O 	O 	0.9073	0.48844	0.4387	-0.577
Mof_O 	O 	0.98722	0.66312	0.39265	-0.5
Mof_O 	O 	0.02436	0.65765	0.37263	-0.553
Mof_O 	O 	0.99486	0.78588	0.4211	-0.423
Mof_O 	O 	0.95944	0.86039	0.42907	-0.437
Mof_C 	C 	0.96457	0.586	0.3956	0.418
Mof_C 	C 	0.94456	0.5703	0.4112	-0.173
Mof_C 	C 	0.9432	0.5428	0.4091	0.124
Mof_C 	C 	0.00812	0.67227	0.38418	0.388
Mof_C 	C 	0.01608	0.70049	0.38902	-0.165
Mof_C 	C 	0.99814	0.71802	0.40004	0.144
Mof_O 	O 	0.46594	0.11	0.4004	-0.599
Mof_O 	O 	0.47893	0.07542	0.37963	-0.437
Mof_O 	O 	0.4073	0.98844	0.4387	-0.575
Mof_O 	O 	0.48722	0.16312	0.39265	-0.502
Mof_O 	O 	0.52436	0.15765	0.37263	-0.554
Mof_O 	O 	0.49486	0.28588	0.4211	-0.423
Mof_O 	O 	0.45944	0.36039	0.42907	-0.437
Mof_C 	C 	0.46457	0.086	0.3956	0.418
Mof_C 	C 	0.44456	0.0703	0.4112	-0.173
Mof_C 	C 	0.4432	0.0428	0.4091	0.123
Mof_C 	C 	0.50812	0.17227	0.38418	0.389
Mof_C 	C 	0.51608	0.20049	0.38902	-0.162
Mof_C 	C 	0.49814	0.21802	0.40004	0.14
Mof_O 	O 	0.46594	0.61	0.9004	-0.599
Mof_O 	O 	0.47893	0.57542	0.87963	-0.436
Mof_O 	O 	0.4073	0.48844	0.9387	-0.577
Mof_O 	O 	0.48722	0.66312	0.89265	-0.502
Mof_O 	O 	0.52436	0.65765	0.87263	-0.554
Mof_O 	O 	0.49486	0.78588	0.9211	-0.423
Mof_O 	O 	0.45944	0.86039	0.92907	-0.437
Mof_C 	C 	0.46457	0.586	0.8956	0.418
Mof_C 	C 	0.44456	0.5703	0.9112	-0.173
Mof_C 	C 	0.4432	0.5428	0.9091	0.124
Mof_C 	C 	0.50812	0.67227	0.88418	0.389
Mof_C 	C 	0.51608	0.70049	0.88902	-0.162
Mof_C 	C 	0.49814	0.71802	0.90004	0.14
Mof_O 	O 	0.46594	0.14	0.8496	-0.599
Mof_O 	O 	0.47893	0.17458	0.87037	-0.436
Mof_O 	O 	0.4073	0.26156	0.8113	-0.577
Mof_O 	O 	0.48722	0.08688	0.85735	-0.503
Mof_O 	O 	0.52436	0.09235	0.87737	-0.554
Mof_O 	O 	0.49486	0.96412	0.8289	-0.423
Mof_O 	O 	0.45944	0.88961	0.82093	-0.437
Mof_C 	C 	0.46457	0.164	0.8544	0.418
Mof_C 	C 	0.44456	0.1797	0.8388	-0.173
Mof_C 	C 	0.4432	0.2072	0.8409	0.124
Mof_C 	C 	0.50812	0.07773	0.86582	0.389
Mof_C 	C 	0.51608	0.04951	0.86098	-0.163
Mof_C 	C 	0.49814	0.03198	0.84996	0.141
Mof_O 	O 	0.46594	0.64	0.3496	-0.599
Mof_O 	O 	0.47893	0.67458	0.37037	-0.436
Mof_O 	O 	0.4073	0.76156	0.3113	-0.577
Mof_O 	O 	0.48722	0.58688	0.35735	-0.502
Mof_O 	O 	0.52436	0.59235	0.37737	-0.554
Mof_O 	O 	0.49486	0.46412	0.3289	-0.423
Mof_O 	O 	0.45944	0.38961	0.32093	-0.437
Mof_C 	C 	0.46457	0.664	0.3544	0.418
Mof_C 	C 	0.44456	0.6797	0.3388	-0.173
Mof_C 	C 	0.4432	0.7072	0.3409	0.124
Mof_C 	C 	0.50812	0.57773	0.36582	0.389
Mof_C 	C 	0.51608	0.54951	0.36098	-0.162
Mof_C 	C 	0.49814	0.53198	0.34996	0.14
Mof_O 	O 	0.96594	0.14	0.3496	-0.598
Mof_O 	O 	0.97893	0.17458	0.37037	-0.435
Mof_O 	O 	0.9073	0.26156	0.3113	-0.577
Mof_O 	O 	0.98722	0.08688	0.35735	-0.501
Mof_O 	O 	0.02436	0.09235	0.37737	-0.553
Mof_O 	O 	0.99486	0.96412	0.3289	-0.424
Mof_O 	O 	0.95944	0.88961	0.32093	-0.437
Mof_C 	C 	0.96457	0.164	0.3544	0.418
Mof_C 	C 	0.94456	0.1797	0.3388	-0.173
Mof_C 	C 	0.9432	0.2072	0.3409	0.124
Mof_C 	C 	0.00812	0.07773	0.36582	0.388
Mof_C 	C 	0.01608	0.04951	0.36098	-0.166
Mof_C 	C 	0.99814	0.03198	0.34996	0.145
Mof_O 	O 	0.96594	0.64	0.8496	-0.598
Mof_O 	O 	0.97893	0.67458	0.87037	-0.435
Mof_O 	O 	0.9073	0.76156	0.8113	-0.577
Mof_O 	O 	0.98722	0.58688	0.85735	-0.5
Mof_O 	O 	0.02436	0.59235	0.87737	-0.553
Mof_O 	O 	0.99486	0.46412	0.8289	-0.423
Mof_O 	O 	0.95944	0.38961	0.82093	-0.437
Mof_C 	C 	0.96457	0.664	0.8544	0.418
Mof_C 	C 	0.94456	0.6797	0.8388	-0.173
Mof_C 	C 	0.9432	0.7072	0.8409	0.124
Mof_C 	C 	0.00812	0.57773	0.86582	0.388
Mof_C 	C 	0.01608	0.54951	0.86098	-0.165
Mof_C 	C 	0.99814	0.53198	0.84996	0.144
Mof_O 	O 	0.28406	0.64	0.4004	-0.599
Mof_O 	O 	0.27107	0.67458	0.37963	-0.436
Mof_O 	O 	0.3427	0.76156	0.4387	-0.577
Mof_O 	O 	0.26278	0.58688	0.39265	-0.502
Mof_O 	O 	0.22564	0.59235	0.37263	-0.554
Mof_O 	O 	0.25514	0.46412	0.4211	-0.423
Mof_O 	O 	0.29056	0.38961	0.42907	-0.437
Mof_C 	C 	0.28543	0.664	0.3956	0.418
Mof_C 	C 	0.30544	0.6797	0.4112	-0.173
Mof_C 	C 	0.3068	0.7072	0.4091	0.124
Mof_C 	C 	0.24188	0.57773	0.38418	0.389
Mof_C 	C 	0.23392	0.54951	0.38902	-0.162
Mof_C 	C 	0.25186	0.53198	0.40004	0.14
Mof_O 	O 	0.28406	0.14	0.9004	-0.599
Mof_O 	O 	0.27107	0.17458	0.87963	-0.436
Mof_O 	O 	0.3427	0.26156	0.9387	-0.577
Mof_O 	O 	0.26278	0.08688	0.89265	-0.503
Mof_O 	O 	0.22564	0.09235	0.87263	-0.554
Mof_O 	O 	0.25514	0.96412	0.9211	-0.423
Mof_O 	O 	0.29056	0.88961	0.92907	-0.437
Mof_C 	C 	0.28543	0.164	0.8956	0.418
Mof_C 	C 	0.30544	0.1797	0.9112	-0.173
Mof_C 	C 	0.3068	0.2072	0.9091	0.124
Mof_C 	C 	0.24188	0.07773	0.88418	0.389
Mof_C 	C 	0.23392	0.04951	0.88902	-0.163
Mof_C 	C 	0.25186	0.03198	0.90004	0.141
Mof_O 	O 	0.78406	0.64	0.9004	-0.599
Mof_O 	O 	0.77107	0.67458	0.87963	-0.436
Mof_O 	O 	0.8427	0.76156	0.9387	-0.577
Mof_O 	O 	0.76278	0.58688	0.89265	-0.502
Mof_O 	O 	0.72564	0.59235	0.87263	-0.554
Mof_O 	O 	0.75514	0.46412	0.9211	-0.423
Mof_O 	O 	0.79056	0.38961	0.92907	-0.437
Mof_C 	C 	0.78543	0.664	0.8956	0.418
Mof_C 	C 	0.80544	0.6797	0.9112	-0.173
Mof_C 	C 	0.8068	0.7072	0.9091	0.124
Mof_C 	C 	0.74188	0.57773	0.88418	0.389
Mof_C 	C 	0.73392	0.54951	0.88902	-0.162
Mof_C 	C 	0.75186	0.53198	0.90004	0.14
Mof_O 	O 	0.78406	0.14	0.4004	-0.599
Mof_O 	O 	0.77107	0.17458	0.37963	-0.436
Mof_O 	O 	0.8427	0.26156	0.4387	-0.577
Mof_O 	O 	0.76278	0.08688	0.39265	-0.503
Mof_O 	O 	0.72564	0.09235	0.37263	-0.554
Mof_O 	O 	0.75514	0.96412	0.4211	-0.424
Mof_O 	O 	0.79056	0.88961	0.42907	-0.437
Mof_C 	C 	0.78543	0.164	0.3956	0.418
Mof_C 	C 	0.80544	0.1797	0.4112	-0.173
Mof_C 	C 	0.8068	0.2072	0.4091	0.124
Mof_C 	C 	0.74188	0.07773	0.38418	0.389
Mof_C 	C 	0.73392	0.04951	0.38902	-0.163
Mof_C 	C 	0.75186	0.03198	0.40004	0.141
Mof_O 	O 	0.78406	0.61	0.3496	-0.599
Mof_O 	O 	0.77107	0.57542	0.37037	-0.436
Mof_O 	O 	0.8427	0.48844	0.3113	-0.577
Mof_O 	O 	0.76278	0.66312	0.35735	-0.502
Mof_O 	O 	0.72564	0.65765	0.37737	-0.554
Mof_O 	O 	0.75514	0.78588	0.3289	-0.423
Mof_O 	O 	0.79056	0.86039	0.32093	-0.437
Mof_C 	C 	0.78543	0.586	0.3544	0.418
Mof_C 	C 	0.80544	0.5703	0.3388	-0.173
Mof_C 	C 	0.8068	0.5428	0.3409	0.124
Mof_C 	C 	0.74188	0.67227	0.36582	0.389
Mof_C 	C 	0.73392	0.70049	0.36098	-0.162
Mof_C 	C 	0.75186	0.71802	0.34996	0.14
Mof_O 	O 	0.78406	0.11	0.8496	-0.599
Mof_O 	O 	0.77107	0.07542	0.87037	-0.437
Mof_O 	O 	0.8427	0.98844	0.8113	-0.575
Mof_O 	O 	0.76278	0.16312	0.85735	-0.502
Mof_O 	O 	0.72564	0.15765	0.87737	-0.554
Mof_O 	O 	0.75514	0.28588	0.8289	-0.423
Mof_O 	O 	0.79056	0.36039	0.82093	-0.437
Mof_C 	C 	0.78543	0.086	0.8544	0.418
Mof_C 	C 	0.80544	0.0703	0.8388	-0.173
Mof_C 	C 	0.8068	0.0428	0.8409	0.123
Mof_C 	C 	0.74188	0.17227	0.86582	0.389
Mof_C 	C 	0.73392	0.20049	0.86098	-0.162
Mof_C 	C 	0.75186	0.21802	0.84996	0.14
Mof_O 	O 	0.28406	0.61	0.8496	-0.599
Mof_O 	O 	0.27107	0.57542	0.87037	-0.436
Mof_O 	O 	0.3427	0.48844	0.8113	-0.577
Mof_O 	O 	0.26278	0.66312	0.85735	-0.502
Mof_O 	O 	0.22564	0.65765	0.87737	-0.554
Mof_O 	O 	0.25514	0.78588	0.8289	-0.423
Mof_O 	O 	0.29056	0.86039	0.82093	-0.437
Mof_C 	C 	0.28543	0.586	0.8544	0.418
Mof_C 	C 	0.30544	0.5703	0.8388	-0.173
Mof_C 	C 	0.3068	0.5428	0.8409	0.124
Mof_C 	C 	0.24188	0.67227	0.86582	0.389
Mof_C 	C 	0.23392	0.70049	0.86098	-0.162
Mof_C 	C 	0.25186	0.71802	0.84996	0.14
Mof_O 	O 	0.28406	0.11	0.3496	-0.599
Mof_O 	O 	0.27107	0.07542	0.37037	-0.437
Mof_O 	O 	0.3427	0.98844	0.3113	-0.575
Mof_O 	O 	0.26278	0.16312	0.35735	-0.502
Mof_O 	O 	0.22564	0.15765	0.37737	-0.554
Mof_O 	O 	0.25514	0.28588	0.3289	-0.423
Mof_O 	O 	0.29056	0.36039	0.32093	-0.437
Mof_C 	C 	0.28543	0.086	0.3544	0.418
Mof_C 	C 	0.30544	0.0703	0.3388	-0.173
Mof_C 	C 	0.3068	0.0428	0.3409	0.123
Mof_C 	C 	0.24188	0.17227	0.36582	0.389
Mof_C 	C 	0.23392	0.20049	0.36098	-0.162
Mof_C 	C 	0.25186	0.21802	0.34996	0.14
Mof_O 	O 	0.9004	0.96594	0.11	-0.598
Mof_O 	O 	0.87963	0.97893	0.07542	-0.435
Mof_O 	O 	0.9387	0.9073	0.98844	-0.575
Mof_O 	O 	0.89265	0.98722	0.16312	-0.5
Mof_O 	O 	0.87263	0.02436	0.15765	-0.553
Mof_O 	O 	0.9211	0.99486	0.28588	-0.423
Mof_O 	O 	0.92907	0.95944	0.36039	-0.437
Mof_C 	C 	0.8956	0.96457	0.086	0.418
Mof_C 	C 	0.9112	0.94456	0.0703	-0.173
Mof_C 	C 	0.9091	0.9432	0.0428	0.123
Mof_C 	C 	0.88418	0.00812	0.17227	0.388
Mof_C 	C 	0.88902	0.01608	0.20049	-0.165
Mof_C 	C 	0.90004	0.99814	0.21802	0.144
Mof_O 	O 	0.9004	0.46594	0.61	-0.599
Mof_O 	O 	0.87963	0.47893	0.57542	-0.436
Mof_O 	O 	0.9387	0.4073	0.48844	-0.577
Mof_O 	O 	0.89265	0.48722	0.66312	-0.502
Mof_O 	O 	0.87263	0.52436	0.65765	-0.554
Mof_O 	O 	0.9211	0.49486	0.78588	-0.423
Mof_O 	O 	0.92907	0.45944	0.86039	-0.437
Mof_C 	C 	0.8956	0.46457	0.586	0.418
Mof_C 	C 	0.9112	0.44456	0.5703	-0.173
Mof_C 	C 	0.9091	0.4432	0.5428	0.124
Mof_C 	C 	0.88418	0.50812	0.67227	0.389
Mof_C 	C 	0.88902	0.51608	0.70049	-0.162
Mof_C 	C 	0.90004	0.49814	0.71802	0.14
Mof_O 	O 	0.4004	0.96594	0.61	-0.598
Mof_O 	O 	0.37963	0.97893	0.57542	-0.435
Mof_O 	O 	0.4387	0.9073	0.48844	-0.577
Mof_O 	O 	0.39265	0.98722	0.66312	-0.5
Mof_O 	O 	0.37263	0.02436	0.65765	-0.553
Mof_O 	O 	0.4211	0.99486	0.78588	-0.423
Mof_O 	O 	0.42907	0.95944	0.86039	-0.437
Mof_C 	C 	0.3956	0.96457	0.586	0.418
Mof_C 	C 	0.4112	0.94456	0.5703	-0.173
Mof_C 	C 	0.4091	0.9432	0.5428	0.124
Mof_C 	C 	0.38418	0.00812	0.67227	0.388
Mof_C 	C 	0.38902	0.01608	0.70049	-0.165
Mof_C 	C 	0.40004	0.99814	0.71802	0.144
Mof_O 	O 	0.4004	0.46594	0.11	-0.599
Mof_O 	O 	0.37963	0.47893	0.07542	-0.437
Mof_O 	O 	0.4387	0.4073	0.98844	-0.575
Mof_O 	O 	0.39265	0.48722	0.16312	-0.502
Mof_O 	O 	0.37263	0.52436	0.15765	-0.554
Mof_O 	O 	0.4211	0.49486	0.28588	-0.423
Mof_O 	O 	0.42907	0.45944	0.36039	-0.437
Mof_C 	C 	0.3956	0.46457	0.086	0.418
Mof_C 	C 	0.4112	0.44456	0.0703	-0.173
Mof_C 	C 	0.4091	0.4432	0.0428	0.123
Mof_C 	C 	0.38418	0.50812	0.17227	0.389
Mof_C 	C 	0.38902	0.51608	0.20049	-0.162
Mof_C 	C 	0.40004	0.49814	0.21802	0.14
Mof_O 	O 	0.8496	0.46594	0.14	-0.599
Mof_O 	O 	0.87037	0.47893	0.17458	-0.436
Mof_O 	O 	0.8113	0.4073	0.26156	-0.577
Mof_O 	O 	0.85735	0.48722	0.08688	-0.503
Mof_O 	O 	0.87737	0.52436	0.09235	-0.554
Mof_O 	O 	0.8289	0.49486	0.96412	-0.423
Mof_O 	O 	0.82093	0.45944	0.88961	-0.437
Mof_C 	C 	0.8544	0.46457	0.164	0.418
Mof_C 	C 	0.8388	0.44456	0.1797	-0.173
Mof_C 	C 	0.8409	0.4432	0.2072	0.124
Mof_C 	C 	0.86582	0.50812	0.07773	0.389
Mof_C 	C 	0.86098	0.51608	0.04951	-0.163
Mof_C 	C 	0.84996	0.49814	0.03198	0.141
Mof_O 	O 	0.8496	0.96594	0.64	-0.598
Mof_O 	O 	0.87037	0.97893	0.67458	-0.435
Mof_O 	O 	0.8113	0.9073	0.76156	-0.577
Mof_O 	O 	0.85735	0.98722	0.58688	-0.5
Mof_O 	O 	0.87737	0.02436	0.59235	-0.553
Mof_O 	O 	0.8289	0.99486	0.46412	-0.423
Mof_O 	O 	0.82093	0.95944	0.38961	-0.437
Mof_C 	C 	0.8544	0.96457	0.664	0.418
Mof_C 	C 	0.8388	0.94456	0.6797	-0.173
Mof_C 	C 	0.8409	0.9432	0.7072	0.124
Mof_C 	C 	0.86582	0.00812	0.57773	0.388
Mof_C 	C 	0.86098	0.01608	0.54951	-0.165
Mof_C 	C 	0.84996	0.99814	0.53198	0.144
Mof_O 	O 	0.3496	0.46594	0.64	-0.599
Mof_O 	O 	0.37037	0.47893	0.67458	-0.436
Mof_O 	O 	0.3113	0.4073	0.76156	-0.577
Mof_O 	O 	0.35735	0.48722	0.58688	-0.502
Mof_O 	O 	0.37737	0.52436	0.59235	-0.554
Mof_O 	O 	0.3289	0.49486	0.46412	-0.423
Mof_O 	O 	0.32093	0.45944	0.38961	-0.437
Mof_C 	C 	0.3544	0.46457	0.664	0.418
Mof_C 	C 	0.3388	0.44456	0.6797	-0.173
Mof_C 	C 	0.3409	0.4432	0.7072	0.124
Mof_C 	C 	0.36582	0.50812	0.57773	0.389
Mof_C 	C 	0.36098	0.51608	0.54951	-0.162
Mof_C 	C 	0.34996	0.49814	0.53198	0.14
Mof_O 	O 	0.3496	0.96594	0.14	-0.598
Mof_O 	O 	0.37037	0.97893	0.17458	-0.435
Mof_O 	O 	0.3113	0.9073	0.26156	-0.577
Mof_O 	O 	0.35735	0.98722	0.08688	-0.501
Mof_O 	O 	0.37737	0.02436	0.09235	-0.553
Mof_O 	O 	0.3289	0.99486	0.96412	-0.424
Mof_O 	O 	0.32093	0.95944	0.88961	-0.437
Mof_C 	C 	0.3544	0.96457	0.164	0.418
Mof_C 	C 	0.3388	0.94456	0.1797	-0.173
Mof_C 	C 	0.3409	0.9432	0.2072	0.124
Mof_C 	C 	0.36582	0.00812	0.07773	0.388
Mof_C 	C 	0.36098	0.01608	0.04951	-0.166
Mof_C 	C 	0.34996	0.99814	0.03198	0.145
Mof_O 	O 	0.4004	0.28406	0.64	-0.599
Mof_O 	O 	0.37963	0.27107	0.67458	-0.436
Mof_O 	O 	0.4387	0.3427	0.76156	-0.577
Mof_O 	O 	0.39265	0.26278	0.58688	-0.502
Mof_O 	O 	0.37263	0.22564	0.59235	-0.554
Mof_O 	O 	0.4211	0.25514	0.46412	-0.423
Mof_O 	O 	0.42907	0.29056	0.38961	-0.437
Mof_C 	C 	0.3956	0.28543	0.664	0.418
Mof_C 	C 	0.4112	0.30544	0.6797	-0.173
Mof_C 	C 	0.4091	0.3068	0.7072	0.124
Mof_C 	C 	0.38418	0.24188	0.57773	0.389
Mof_C 	C 	0.38902	0.23392	0.54951	-0.162
Mof_C 	C 	0.40004	0.25186	0.53198	0.14
Mof_O 	O 	0.4004	0.78406	0.14	-0.599
Mof_O 	O 	0.37963	0.77107	0.17458	-0.436
Mof_O 	O 	0.4387	0.8427	0.26156	-0.577
Mof_O 	O 	0.39265	0.76278	0.08688	-0.503
Mof_O 	O 	0.37263	0.72564	0.09235	-0.554
Mof_O 	O 	0.4211	0.75514	0.96412	-0.424
Mof_O 	O 	0.42907	0.79056	0.88961	-0.437
Mof_C 	C 	0.3956	0.78543	0.164	0.418
Mof_C 	C 	0.4112	0.80544	0.1797	-0.173
Mof_C 	C 	0.4091	0.8068	0.2072	0.124
Mof_C 	C 	0.38418	0.74188	0.07773	0.389
Mof_C 	C 	0.38902	0.73392	0.04951	-0.163
Mof_C 	C 	0.40004	0.75186	0.03198	0.141
Mof_O 	O 	0.9004	0.28406	0.14	-0.599
Mof_O 	O 	0.87963	0.27107	0.17458	-0.436
Mof_O 	O 	0.9387	0.3427	0.26156	-0.577
Mof_O 	O 	0.89265	0.26278	0.08688	-0.503
Mof_O 	O 	0.87263	0.22564	0.09235	-0.554
Mof_O 	O 	0.9211	0.25514	0.96412	-0.423
Mof_O 	O 	0.92907	0.29056	0.88961	-0.437
Mof_C 	C 	0.8956	0.28543	0.164	0.418
Mof_C 	C 	0.9112	0.30544	0.1797	-0.173
Mof_C 	C 	0.9091	0.3068	0.2072	0.124
Mof_C 	C 	0.88418	0.24188	0.07773	0.389
Mof_C 	C 	0.88902	0.23392	0.04951	-0.163
Mof_C 	C 	0.90004	0.25186	0.03198	0.141
Mof_O 	O 	0.9004	0.78406	0.64	-0.599
Mof_O 	O 	0.87963	0.77107	0.67458	-0.436
Mof_O 	O 	0.9387	0.8427	0.76156	-0.577
Mof_O 	O 	0.89265	0.76278	0.58688	-0.502
Mof_O 	O 	0.87263	0.72564	0.59235	-0.554
Mof_O 	O 	0.9211	0.75514	0.46412	-0.423
Mof_O 	O 	0.92907	0.79056	0.38961	-0.437
Mof_C 	C 	0.8956	0.78543	0.664	0.418
Mof_C 	C 	0.9112	0.80544	0.6797	-0.173
Mof_C 	C 	0.9091	0.8068	0.7072	0.124
Mof_C 	C 	0.88418	0.74188	0.57773	0.389
Mof_C 	C 	0.88902	0.73392	0.54951	-0.162
Mof_C 	C 	0.90004	0.75186	0.53198	0.14
Mof_O 	O 	0.3496	0.78406	0.61	-0.599
Mof_O 	O 	0.37037	0.77107	0.57542	-0.436
Mof_O 	O 	0.3113	0.8427	0.48844	-0.577
Mof_O 	O 	0.35735	0.76278	0.66312	-0.502
Mof_O 	O 	0.37737	0.72564	0.65765	-0.554
Mof_O 	O 	0.3289	0.75514	0.78588	-0.423
Mof_O 	O 	0.32093	0.79056	0.86039	-0.437
Mof_C 	C 	0.3544	0.78543	0.586	0.418
Mof_C 	C 	0.3388	0.80544	0.5703	-0.173
Mof_C 	C 	0.3409	0.8068	0.5428	0.124
Mof_C 	C 	0.36582	0.74188	0.67227	0.389
Mof_C 	C 	0.36098	0.73392	0.70049	-0.162
Mof_C 	C 	0.34996	0.75186	0.71802	0.14
Mof_O 	O 	0.3496	0.28406	0.11	-0.599
Mof_O 	O 	0.37037	0.27107	0.07542	-0.437
Mof_O 	O 	0.3113	0.3427	0.98844	-0.575
Mof_O 	O 	0.35735	0.26278	0.16312	-0.502
Mof_O 	O 	0.37737	0.22564	0.15765	-0.554
Mof_O 	O 	0.3289	0.25514	0.28588	-0.423
Mof_O 	O 	0.32093	0.29056	0.36039	-0.437
Mof_C 	C 	0.3544	0.28543	0.086	0.418
Mof_C 	C 	0.3388	0.30544	0.0703	-0.173
Mof_C 	C 	0.3409	0.3068	0.0428	0.123
Mof_C 	C 	0.36582	0.24188	0.17227	0.389
Mof_C 	C 	0.36098	0.23392	0.20049	-0.162
Mof_C 	C 	0.34996	0.25186	0.21802	0.14
Mof_O 	O 	0.8496	0.78406	0.11	-0.599
Mof_O 	O 	0.87037	0.77107	0.07542	-0.437
Mof_O 	O 	0.8113	0.8427	0.98844	-0.575
Mof_O 	O 	0.85735	0.76278	0.16312	-0.502
Mof_O 	O 	0.87737	0.72564	0.15765	-0.554
Mof_O 	O 	0.8289	0.75514	0.28588	-0.423
Mof_O 	O 	0.82093	0.79056	0.36039	-0.437
Mof_C 	C 	0.8544	0.78543	0.086	0.418
Mof_C 	C 	0.8388	0.80544	0.0703	-0.173
Mof_C 	C 	0.8409	0.8068	0.0428	0.123
Mof_C 	C 	0.86582	0.74188	0.17227	0.389
Mof_C 	C 	0.86098	0.73392	0.20049	-0.162
Mof_C 	C 	0.84996	0.75186	0.21802	0.14
Mof_O 	O 	0.8496	0.28406	0.61	-0.599
Mof_O 	O 	0.87037	0.27107	0.57542	-0.436
Mof_O 	O 	0.8113	0.3427	0.48844	-0.577
Mof_O 	O 	0.85735	0.26278	0.66312	-0.502
Mof_O 	O 	0.87737	0.22564	0.65765	-0.554
Mof_O 	O 	0.8289	0.25514	0.78588	-0.423
Mof_O 	O 	0.82093	0.29056	0.86039	-0.437
Mof_C 	C 	0.8544	0.28543	0.586	0.418
Mof_C 	C 	0.8388	0.30544	0.5703	-0.173
Mof_C 	C 	0.8409	0.3068	0.5428	0.124
Mof_C 	C 	0.86582	0.24188	0.67227	0.389
Mof_C 	C 	0.86098	0.23392	0.70049	-0.162
Mof_C 	C 	0.84996	0.25186	0.71802	0.14
Mof_O 	O 	0.1504	0.86	0.53406	-0.599
Mof_O 	O 	0.12963	0.82542	0.52107	-0.437
Mof_O 	O 	0.1887	0.73844	0.5927	-0.577
Mof_O 	O 	0.14265	0.91312	0.51278	-0.502
Mof_O 	O 	0.12263	0.90765	0.47564	-0.554
Mof_O 	O 	0.1711	0.03588	0.50514	-0.422
Mof_O 	O 	0.17907	0.11039	0.54056	-0.437
Mof_C 	C 	0.1456	0.836	0.53543	0.418
Mof_C 	C 	0.1612	0.8203	0.55544	-0.173
Mof_C 	C 	0.1591	0.7928	0.5568	0.124
Mof_C 	C 	0.13418	0.92227	0.49188	0.389
Mof_C 	C 	0.13902	0.95049	0.48392	-0.161
Mof_C 	C 	0.15004	0.96802	0.50186	0.139
Mof_O 	O 	0.1504	0.36	0.03406	-0.599
Mof_O 	O 	0.12963	0.32542	0.02107	-0.437
Mof_O 	O 	0.1887	0.23844	0.0927	-0.577
Mof_O 	O 	0.14265	0.41312	0.01278	-0.503
Mof_O 	O 	0.12263	0.40765	0.97564	-0.553
Mof_O 	O 	0.1711	0.53588	0.00514	-0.423
Mof_O 	O 	0.17907	0.61039	0.04056	-0.437
Mof_C 	C 	0.1456	0.336	0.03543	0.418
Mof_C 	C 	0.1612	0.3203	0.05544	-0.173
Mof_C 	C 	0.1591	0.2928	0.0568	0.123
Mof_C 	C 	0.13418	0.42227	0.99188	0.391
Mof_C 	C 	0.13902	0.45049	0.98392	-0.16
Mof_C 	C 	0.15004	0.46802	0.00186	0.135
Mof_O 	O 	0.6504	0.86	0.03406	-0.599
Mof_O 	O 	0.62963	0.82542	0.02107	-0.437
Mof_O 	O 	0.6887	0.73844	0.0927	-0.577
Mof_O 	O 	0.64265	0.91312	0.01278	-0.503
Mof_O 	O 	0.62263	0.90765	0.97564	-0.553
Mof_O 	O 	0.6711	0.03588	0.00514	-0.422
Mof_O 	O 	0.67907	0.11039	0.04056	-0.437
Mof_C 	C 	0.6456	0.836	0.03543	0.418
Mof_C 	C 	0.6612	0.8203	0.05544	-0.173
Mof_C 	C 	0.6591	0.7928	0.0568	0.123
Mof_C 	C 	0.63418	0.92227	0.99188	0.39
Mof_C 	C 	0.63902	0.95049	0.98392	-0.159
Mof_C 	C 	0.65004	0.96802	0.00186	0.135
Mof_O 	O 	0.6504	0.36	0.53406	-0.599
Mof_O 	O 	0.62963	0.32542	0.52107	-0.436
Mof_O 	O 	0.6887	0.23844	0.5927	-0.577
Mof_O 	O 	0.64265	0.41312	0.51278	-0.502
Mof_O 	O 	0.62263	0.40765	0.47564	-0.554
Mof_O 	O 	0.6711	0.53588	0.50514	-0.423
Mof_O 	O 	0.67907	0.61039	0.54056	-0.437
Mof_C 	C 	0.6456	0.336	0.53543	0.418
Mof_C 	C 	0.6612	0.3203	0.55544	-0.173
Mof_C 	C 	0.6591	0.2928	0.5568	0.124
Mof_C 	C 	0.63418	0.42227	0.49188	0.389
Mof_C 	C 	0.63902	0.45049	0.48392	-0.162
Mof_C 	C 	0.65004	0.46802	0.50186	0.14
Mof_O 	O 	0.0996	0.89	0.03406	-0.599
Mof_O 	O 	0.12037	0.92458	0.02107	-0.437
Mof_O 	O 	0.0613	0.01156	0.0927	-0.579
Mof_O 	O 	0.10735	0.83688	0.01278	-0.503
Mof_O 	O 	0.12737	0.84235	0.97564	-0.553
Mof_O 	O 	0.0789	0.71412	0.00514	-0.423
Mof_O 	O 	0.07093	0.63961	0.04056	-0.437
Mof_C 	C 	0.1044	0.914	0.03543	0.418
Mof_C 	C 	0.0888	0.9297	0.05544	-0.173
Mof_C 	C 	0.0909	0.9572	0.0568	0.124
Mof_C 	C 	0.11582	0.82773	0.99188	0.391
Mof_C 	C 	0.11098	0.79951	0.98392	-0.16
Mof_C 	C 	0.09996	0.78198	0.00186	0.135
Mof_O 	O 	0.0996	0.39	0.53406	-0.599
Mof_O 	O 	0.12037	0.42458	0.52107	-0.436
Mof_O 	O 	0.0613	0.51156	0.5927	-0.577
Mof_O 	O 	0.10735	0.33688	0.51278	-0.503
Mof_O 	O 	0.12737	0.34235	0.47564	-0.554
Mof_O 	O 	0.0789	0.21412	0.50514	-0.423
Mof_O 	O 	0.07093	0.13961	0.54056	-0.437
Mof_C 	C 	0.1044	0.414	0.53543	0.418
Mof_C 	C 	0.0888	0.4297	0.55544	-0.173
Mof_C 	C 	0.0909	0.4572	0.5568	0.124
Mof_C 	C 	0.11582	0.32773	0.49188	0.389
Mof_C 	C 	0.11098	0.29951	0.48392	-0.162
Mof_C 	C 	0.09996	0.28198	0.50186	0.14
Mof_O 	O 	0.5996	0.89	0.53406	-0.599
Mof_O 	O 	0.62037	0.92458	0.52107	-0.436
Mof_O 	O 	0.5613	0.01156	0.5927	-0.579
Mof_O 	O 	0.60735	0.83688	0.51278	-0.502
Mof_O 	O 	0.62737	0.84235	0.47564	-0.554
Mof_O 	O 	0.5789	0.71412	0.50514	-0.423
Mof_O 	O 	0.57093	0.63961	0.54056	-0.437
Mof_C 	C 	0.6044	0.914	0.53543	0.419
Mof_C 	C 	0.5888	0.9297	0.55544	-0.173
Mof_C 	C 	0.5909	0.9572	0.5568	0.125
Mof_C 	C 	0.61582	0.82773	0.49188	0.389
Mof_C 	C 	0.61098	0.79951	0.48392	-0.162
Mof_C 	C 	0.59996	0.78198	0.50186	0.14
Mof_O 	O 	0.5996	0.39	0.03406	-0.599
Mof_O 	O 	0.62037	0.42458	0.02107	-0.437
Mof_O 	O 	0.5613	0.51156	0.0927	-0.577
Mof_O 	O 	0.60735	0.33688	0.01278	-0.503
Mof_O 	O 	0.62737	0.34235	0.97564	-0.553
Mof_O 	O 	0.5789	0.21412	0.00514	-0.423
Mof_O 	O 	0.57093	0.13961	0.04056	-0.437
Mof_C 	C 	0.6044	0.414	0.03543	0.418
Mof_C 	C 	0.5888	0.4297	0.05544	-0.173
Mof_C 	C 	0.5909	0.4572	0.0568	0.123
Mof_C 	C 	0.61582	0.32773	0.99188	0.391
Mof_C 	C 	0.61098	0.29951	0.98392	-0.16
Mof_C 	C 	0.59996	0.28198	0.00186	0.136
Mof_O 	O 	0.6504	0.39	0.21594	-0.599
Mof_O 	O 	0.62963	0.42458	0.22893	-0.436
Mof_O 	O 	0.6887	0.51156	0.1573	-0.577
Mof_O 	O 	0.64265	0.33688	0.23722	-0.502
Mof_O 	O 	0.62263	0.34235	0.27436	-0.554
Mof_O 	O 	0.6711	0.21412	0.24486	-0.423
Mof_O 	O 	0.67907	0.13961	0.20944	-0.437
Mof_C 	C 	0.6456	0.414	0.21457	0.418
Mof_C 	C 	0.6612	0.4297	0.19456	-0.173
Mof_C 	C 	0.6591	0.4572	0.1932	0.124
Mof_C 	C 	0.63418	0.32773	0.25812	0.389
Mof_C 	C 	0.63902	0.29951	0.26608	-0.162
Mof_C 	C 	0.65004	0.28198	0.24814	0.14
Mof_O 	O 	0.6504	0.89	0.71594	-0.599
Mof_O 	O 	0.62963	0.92458	0.72893	-0.436
Mof_O 	O 	0.6887	0.01156	0.6573	-0.579
Mof_O 	O 	0.64265	0.83688	0.73722	-0.502
Mof_O 	O 	0.62263	0.84235	0.77436	-0.554
Mof_O 	O 	0.6711	0.71412	0.74486	-0.423
Mof_O 	O 	0.67907	0.63961	0.70944	-0.437
Mof_C 	C 	0.6456	0.914	0.71457	0.419
Mof_C 	C 	0.6612	0.9297	0.69456	-0.173
Mof_C 	C 	0.6591	0.9572	0.6932	0.125
Mof_C 	C 	0.63418	0.82773	0.75812	0.389
Mof_C 	C 	0.63902	0.79951	0.76608	-0.162
Mof_C 	C 	0.65004	0.78198	0.74814	0.14
Mof_O 	O 	0.1504	0.39	0.71594	-0.599
Mof_O 	O 	0.12963	0.42458	0.72893	-0.437
Mof_O 	O 	0.1887	0.51156	0.6573	-0.577
Mof_O 	O 	0.14265	0.33688	0.73722	-0.502
Mof_O 	O 	0.12263	0.34235	0.77436	-0.554
Mof_O 	O 	0.1711	0.21412	0.74486	-0.423
Mof_O 	O 	0.17907	0.13961	0.70944	-0.437
Mof_C 	C 	0.1456	0.414	0.71457	0.418
Mof_C 	C 	0.1612	0.4297	0.69456	-0.173
Mof_C 	C 	0.1591	0.4572	0.6932	0.124
Mof_C 	C 	0.13418	0.32773	0.75812	0.389
Mof_C 	C 	0.13902	0.29951	0.76608	-0.162
Mof_C 	C 	0.15004	0.28198	0.74814	0.14
Mof_O 	O 	0.1504	0.89	0.21594	-0.599
Mof_O 	O 	0.12963	0.92458	0.22893	-0.436
Mof_O 	O 	0.1887	0.01156	0.1573	-0.579
Mof_O 	O 	0.14265	0.83688	0.23722	-0.502
Mof_O 	O 	0.12263	0.84235	0.27436	-0.554
Mof_O 	O 	0.1711	0.71412	0.24486	-0.423
Mof_O 	O 	0.17907	0.63961	0.20944	-0.437
Mof_C 	C 	0.1456	0.914	0.21457	0.419
Mof_C 	C 	0.1612	0.9297	0.19456	-0.173
Mof_C 	C 	0.1591	0.9572	0.1932	0.125
Mof_C 	C 	0.13418	0.82773	0.25812	0.389
Mof_C 	C 	0.13902	0.79951	0.26608	-0.162
Mof_C 	C 	0.15004	0.78198	0.24814	0.14
Mof_O 	O 	0.5996	0.36	0.71594	-0.599
Mof_O 	O 	0.62037	0.32542	0.72893	-0.436
Mof_O 	O 	0.5613	0.23844	0.6573	-0.577
Mof_O 	O 	0.60735	0.41312	0.73722	-0.502
Mof_O 	O 	0.62737	0.40765	0.77436	-0.554
Mof_O 	O 	0.5789	0.53588	0.74486	-0.423
Mof_O 	O 	0.57093	0.61039	0.70944	-0.437
Mof_C 	C 	0.6044	0.336	0.71457	0.418
Mof_C 	C 	0.5888	0.3203	0.69456	-0.173
Mof_C 	C 	0.5909	0.2928	0.6932	0.124
Mof_C 	C 	0.61582	0.42227	0.75812	0.389
Mof_C 	C 	0.61098	0.45049	0.76608	-0.162
Mof_C 	C 	0.59996	0.46802	0.74814	0.14
Mof_O 	O 	0.5996	0.86	0.21594	-0.599
Mof_O 	O 	0.62037	0.82542	0.22893	-0.436
Mof_O 	O 	0.5613	0.73844	0.1573	-0.577
Mof_O 	O 	0.60735	0.91312	0.23722	-0.502
Mof_O 	O 	0.62737	0.90765	0.27436	-0.553
Mof_O 	O 	0.5789	0.03588	0.24486	-0.422
Mof_O 	O 	0.57093	0.11039	0.20944	-0.437
Mof_C 	C 	0.6044	0.836	0.21457	0.418
Mof_C 	C 	0.5888	0.8203	0.19456	-0.173
Mof_C 	C 	0.5909	0.7928	0.1932	0.124
Mof_C 	C 	0.61582	0.92227	0.25812	0.389
Mof_C 	C 	0.61098	0.95049	0.26608	-0.161
Mof_C 	C 	0.59996	0.96802	0.24814	0.139
Mof_O 	O 	0.0996	0.36	0.21594	-0.599
Mof_O 	O 	0.12037	0.32542	0.22893	-0.436
Mof_O 	O 	0.0613	0.23844	0.1573	-0.577
Mof_O 	O 	0.10735	0.41312	0.23722	-0.503
Mof_O 	O 	0.12737	0.40765	0.27436	-0.554
Mof_O 	O 	0.0789	0.53588	0.24486	-0.423
Mof_O 	O 	0.07093	0.61039	0.20944	-0.437
Mof_C 	C 	0.1044	0.336	0.21457	0.418
Mof_C 	C 	0.0888	0.3203	0.19456	-0.173
Mof_C 	C 	0.0909	0.2928	0.1932	0.124
Mof_C 	C 	0.11582	0.42227	0.25812	0.389
Mof_C 	C 	0.11098	0.45049	0.26608	-0.162
Mof_C 	C 	0.09996	0.46802	0.24814	0.14
Mof_O 	O 	0.0996	0.86	0.71594	-0.599
Mof_O 	O 	0.12037	0.82542	0.72893	-0.436
Mof_O 	O 	0.0613	0.73844	0.6573	-0.577
Mof_O 	O 	0.10735	0.91312	0.73722	-0.502
Mof_O 	O 	0.12737	0.90765	0.77436	-0.553
Mof_O 	O 	0.0789	0.03588	0.74486	-0.422
Mof_O 	O 	0.07093	0.11039	0.70944	-0.437
Mof_C 	C 	0.1044	0.836	0.71457	0.418
Mof_C 	C 	0.0888	0.8203	0.69456	-0.173
Mof_C 	C 	0.0909	0.7928	0.6932	0.124
Mof_C 	C 	0.11582	0.92227	0.75812	0.389
Mof_C 	C 	0.11098	0.95049	0.76608	-0.161
Mof_C 	C 	0.09996	0.96802	0.74814	0.139
Mof_O 	O 	0.36	0.71594	0.5996	-0.599
Mof_O 	O 	0.32542	0.72893	0.62037	-0.436
Mof_O 	O 	0.23844	0.6573	0.5613	-0.577
Mof_O 	O 	0.41312	0.73722	0.60735	-0.502
Mof_O 	O 	0.40765	0.77436	0.62737	-0.554
Mof_O 	O 	0.53588	0.74486	0.5789	-0.423
Mof_O 	O 	0.61039	0.70944	0.57093	-0.437
Mof_C 	C 	0.336	0.71457	0.6044	0.418
Mof_C 	C 	0.3203	0.69456	0.5888	-0.173
Mof_C 	C 	0.2928	0.6932	0.5909	0.124
Mof_C 	C 	0.42227	0.75812	0.61582	0.389
Mof_C 	C 	0.45049	0.76608	0.61098	-0.162
Mof_C 	C 	0.46802	0.74814	0.59996	0.14
Mof_O 	O 	0.36	0.21594	0.0996	-0.599
Mof_O 	O 	0.32542	0.22893	0.12037	-0.436
Mof_O 	O 	0.23844	0.1573	0.0613	-0.577
Mof_O 	O 	0.41312	0.23722	0.10735	-0.503
Mof_O 	O 	0.40765	0.27436	0.12737	-0.554
Mof_O 	O 	0.53588	0.24486	0.0789	-0.423
Mof_O 	O 	0.61039	0.20944	0.07093	-0.437
Mof_C 	C 	0.336	0.21457	0.1044	0.418
Mof_C 	C 	0.3203	0.19456	0.0888	-0.173
Mof_C 	C 	0.2928	0.1932	0.0909	0.124
Mof_C 	C 	0.42227	0.25812	0.11582	0.389
Mof_C 	C 	0.45049	0.26608	0.11098	-0.162
Mof_C 	C 	0.46802	0.24814	0.09996	0.14
Mof_O 	O 	0.86	0.71594	0.0996	-0.599
Mof_O 	O 	0.82542	0.72893	0.12037	-0.436
Mof_O 	O 	0.73844	0.6573	0.0613	-0.577
Mof_O 	O 	0.91312	0.73722	0.10735	-0.502
Mof_O 	O 	0.90765	0.77436	0.12737	-0.553
Mof_O 	O 	0.03588	0.74486	0.0789	-0.422
Mof_O 	O 	0.11039	0.70944	0.07093	-0.437
Mof_C 	C 	0.836	0.71457	0.1044	0.418
Mof_C 	C 	0.8203	0.69456	0.0888	-0.173
Mof_C 	C 	0.7928	0.6932	0.0909	0.124
Mof_C 	C 	0.92227	0.75812	0.11582	0.389
Mof_C 	C 	0.95049	0.76608	0.11098	-0.161
Mof_C 	C 	0.96802	0.74814	0.09996	0.139
Mof_O 	O 	0.86	0.21594	0.5996	-0.599
Mof_O 	O 	0.82542	0.22893	0.62037	-0.436
Mof_O 	O 	0.73844	0.1573	0.5613	-0.577
Mof_O 	O 	0.91312	0.23722	0.60735	-0.502
Mof_O 	O 	0.90765	0.27436	0.62737	-0.553
Mof_O 	O 	0.03588	0.24486	0.5789	-0.422
Mof_O 	O 	0.11039	0.20944	0.57093	-0.437
Mof_C 	C 	0.836	0.21457	0.6044	0.418
Mof_C 	C 	0.8203	0.19456	0.5888	-0.173
Mof_C 	C 	0.7928	0.1932	0.5909	0.124
Mof_C 	C 	0.92227	0.25812	0.61582	0.389
Mof_C 	C 	0.95049	0.26608	0.61098	-0.161
Mof_C 	C 	0.96802	0.24814	0.59996	0.139
Mof_O 	O 	0.39	0.21594	0.6504	-0.599
Mof_O 	O 	0.42458	0.22893	0.62963	-0.436
Mof_O 	O 	0.51156	0.1573	0.6887	-0.577
Mof_O 	O 	0.33688	0.23722	0.64265	-0.502
Mof_O 	O 	0.34235	0.27436	0.62263	-0.554
Mof_O 	O 	0.21412	0.24486	0.6711	-0.423
Mof_O 	O 	0.13961	0.20944	0.67907	-0.437
Mof_C 	C 	0.414	0.21457	0.6456	0.418
Mof_C 	C 	0.4297	0.19456	0.6612	-0.173
Mof_C 	C 	0.4572	0.1932	0.6591	0.124
Mof_C 	C 	0.32773	0.25812	0.63418	0.389
Mof_C 	C 	0.29951	0.26608	0.63902	-0.162
Mof_C 	C 	0.28198	0.24814	0.65004	0.14
Mof_O 	O 	0.39	0.71594	0.1504	-0.599
Mof_O 	O 	0.42458	0.72893	0.12963	-0.437
Mof_O 	O 	0.51156	0.6573	0.1887	-0.577
Mof_O 	O 	0.33688	0.73722	0.14265	-0.502
Mof_O 	O 	0.34235	0.77436	0.12263	-0.554
Mof_O 	O 	0.21412	0.74486	0.1711	-0.423
Mof_O 	O 	0.13961	0.70944	0.17907	-0.437
Mof_C 	C 	0.414	0.71457	0.1456	0.418
Mof_C 	C 	0.4297	0.69456	0.1612	-0.173
Mof_C 	C 	0.4572	0.6932	0.1591	0.124
Mof_C 	C 	0.32773	0.75812	0.13418	0.389
Mof_C 	C 	0.29951	0.76608	0.13902	-0.162
Mof_C 	C 	0.28198	0.74814	0.15004	0.14
Mof_O 	O 	0.89	0.21594	0.1504	-0.599
Mof_O 	O 	0.92458	0.22893	0.12963	-0.436
Mof_O 	O 	0.01156	0.1573	0.1887	-0.579
Mof_O 	O 	0.83688	0.23722	0.14265	-0.502
Mof_O 	O 	0.84235	0.27436	0.12263	-0.554
Mof_O 	O 	0.71412	0.24486	0.1711	-0.423
Mof_O 	O 	0.63961	0.20944	0.17907	-0.437
Mof_C 	C 	0.914	0.21457	0.1456	0.419
Mof_C 	C 	0.9297	0.19456	0.1612	-0.173
Mof_C 	C 	0.9572	0.1932	0.1591	0.125
Mof_C 	C 	0.82773	0.25812	0.13418	0.389
Mof_C 	C 	0.79951	0.26608	0.13902	-0.162
Mof_C 	C 	0.78198	0.24814	0.15004	0.14
Mof_O 	O 	0.89	0.71594	0.6504	-0.599
Mof_O 	O 	0.92458	0.72893	0.62963	-0.436
Mof_O 	O 	0.01156	0.6573	0.6887	-0.579
Mof_O 	O 	0.83688	0.73722	0.64265	-0.502
Mof_O 	O 	0.84235	0.77436	0.62263	-0.554
Mof_O 	O 	0.71412	0.74486	0.6711	-0.423
Mof_O 	O 	0.63961	0.70944	0.67907	-0.437
Mof_C 	C 	0.914	0.71457	0.6456	0.419
Mof_C 	C 	0.9297	0.69456	0.6612	-0.173
Mof_C 	C 	0.9572	0.6932	0.6591	0.125
Mof_C 	C 	0.82773	0.75812	0.63418	0.389
Mof_C 	C 	0.79951	0.76608	0.63902	-0.162
Mof_C 	C 	0.78198	0.74814	0.65004	0.14
Mof_O 	O 	0.89	0.03406	0.0996	-0.599
Mof_O 	O 	0.92458	0.02107	0.12037	-0.437
Mof_O 	O 	0.01156	0.0927	0.0613	-0.579
Mof_O 	O 	0.83688	0.01278	0.10735	-0.503
Mof_O 	O 	0.84235	0.97564	0.12737	-0.553
Mof_O 	O 	0.71412	0.00514	0.0789	-0.423
Mof_O 	O 	0.63961	0.04056	0.07093	-0.437
Mof_C 	C 	0.914	0.03543	0.1044	0.418
Mof_C 	C 	0.9297	0.05544	0.0888	-0.173
Mof_C 	C 	0.9572	0.0568	0.0909	0.124
Mof_C 	C 	0.82773	0.99188	0.11582	0.391
Mof_C 	C 	0.79951	0.98392	0.11098	-0.16
Mof_C 	C 	0.78198	0.00186	0.09996	0.135
Mof_O 	O 	0.89	0.53406	0.5996	-0.599
Mof_O 	O 	0.92458	0.52107	0.62037	-0.436
Mof_O 	O 	0.01156	0.5927	0.5613	-0.579
Mof_O 	O 	0.83688	0.51278	0.60735	-0.502
Mof_O 	O 	0.84235	0.47564	0.62737	-0.554
Mof_O 	O 	0.71412	0.50514	0.5789	-0.423
Mof_O 	O 	0.63961	0.54056	0.57093	-0.437
Mof_C 	C 	0.914	0.53543	0.6044	0.419
Mof_C 	C 	0.9297	0.55544	0.5888	-0.173
Mof_C 	C 	0.9572	0.5568	0.5909	0.125
Mof_C 	C 	0.82773	0.49188	0.61582	0.389
Mof_C 	C 	0.79951	0.48392	0.61098	-0.162
Mof_C 	C 	0.78198	0.50186	0.59996	0.14
Mof_O 	O 	0.39	0.03406	0.5996	-0.599
Mof_O 	O 	0.42458	0.02107	0.62037	-0.437
Mof_O 	O 	0.51156	0.0927	0.5613	-0.577
Mof_O 	O 	0.33688	0.01278	0.60735	-0.503
Mof_O 	O 	0.34235	0.97564	0.62737	-0.553
Mof_O 	O 	0.21412	0.00514	0.5789	-0.423
Mof_O 	O 	0.13961	0.04056	0.57093	-0.437
Mof_C 	C 	0.414	0.03543	0.6044	0.418
Mof_C 	C 	0.4297	0.05544	0.5888	-0.173
Mof_C 	C 	0.4572	0.0568	0.5909	0.123
Mof_C 	C 	0.32773	0.99188	0.61582	0.391
Mof_C 	C 	0.29951	0.98392	0.61098	-0.16
Mof_C 	C 	0.28198	0.00186	0.59996	0.136
Mof_O 	O 	0.39	0.53406	0.0996	-0.599
Mof_O 	O 	0.42458	0.52107	0.12037	-0.436
Mof_O 	O 	0.51156	0.5927	0.0613	-0.577
Mof_O 	O 	0.33688	0.51278	0.10735	-0.503
Mof_O 	O 	0.34235	0.47564	0.12737	-0.554
Mof_O 	O 	0.21412	0.50514	0.0789	-0.423
Mof_O 	O 	0.13961	0.54056	0.07093	-0.437
Mof_C 	C 	0.414	0.53543	0.1044	0.418
Mof_C 	C 	0.4297	0.55544	0.0888	-0.173
Mof_C 	C 	0.4572	0.5568	0.0909	0.124
Mof_C 	C 	0.32773	0.49188	0.11582	0.389
Mof_C 	C 	0.29951	0.48392	0.11098	-0.162
Mof_C 	C 	0.28198	0.50186	0.09996	0.14
Mof_O 	O 	0.86	0.53406	0.1504	-0.599
Mof_O 	O 	0.82542	0.52107	0.12963	-0.437
Mof_O 	O 	0.73844	0.5927	0.1887	-0.577
Mof_O 	O 	0.91312	0.51278	0.14265	-0.502
Mof_O 	O 	0.90765	0.47564	0.12263	-0.554
Mof_O 	O 	0.03588	0.50514	0.1711	-0.422
Mof_O 	O 	0.11039	0.54056	0.17907	-0.437
Mof_C 	C 	0.836	0.53543	0.1456	0.418
Mof_C 	C 	0.8203	0.55544	0.1612	-0.173
Mof_C 	C 	0.7928	0.5568	0.1591	0.124
Mof_C 	C 	0.92227	0.49188	0.13418	0.389
Mof_C 	C 	0.95049	0.48392	0.13902	-0.161
Mof_C 	C 	0.96802	0.50186	0.15004	0.139
Mof_O 	O 	0.86	0.03406	0.6504	-0.599
Mof_O 	O 	0.82542	0.02107	0.62963	-0.437
Mof_O 	O 	0.73844	0.0927	0.6887	-0.577
Mof_O 	O 	0.91312	0.01278	0.64265	-0.503
Mof_O 	O 	0.90765	0.97564	0.62263	-0.553
Mof_O 	O 	0.03588	0.00514	0.6711	-0.422
Mof_O 	O 	0.11039	0.04056	0.67907	-0.437
Mof_C 	C 	0.836	0.03543	0.6456	0.418
Mof_C 	C 	0.8203	0.05544	0.6612	-0.173
Mof_C 	C 	0.7928	0.0568	0.6591	0.123
Mof_C 	C 	0.92227	0.99188	0.63418	0.39
Mof_C 	C 	0.95049	0.98392	0.63902	-0.159
Mof_C 	C 	0.96802	0.00186	0.65004	0.135
Mof_O 	O 	0.36	0.53406	0.6504	-0.599
Mof_O 	O 	0.32542	0.52107	0.62963	-0.436
Mof_O 	O 	0.23844	0.5927	0.6887	-0.577
Mof_O 	O 	0.41312	0.51278	0.64265	-0.502
Mof_O 	O 	0.40765	0.47564	0.62263	-0.554
Mof_O 	O 	0.53588	0.50514	0.6711	-0.423
Mof_O 	O 	0.61039	0.54056	0.67907	-0.437
Mof_C 	C 	0.336	0.53543	0.6456	0.418
Mof_C 	C 	0.3203	0.55544	0.6612	-0.173
Mof_C 	C 	0.2928	0.5568	0.6591	0.124
Mof_C 	C 	0.42227	0.49188	0.63418	0.389
Mof_C 	C 	0.45049	0.48392	0.63902	-0.162
Mof_C 	C 	0.46802	0.50186	0.65004	0.14
Mof_O 	O 	0.36	0.03406	0.1504	-0.599
Mof_O 	O 	0.32542	0.02107	0.12963	-0.437
Mof_O 	O 	0.23844	0.0927	0.1887	-0.577
Mof_O 	O 	0.41312	0.01278	0.14265	-0.503
Mof_O 	O 	0.40765	0.97564	0.12263	-0.553
Mof_O 	O 	0.53588	0.00514	0.1711	-0.423
Mof_O 	O 	0.61039	0.04056	0.17907	-0.437
Mof_C 	C 	0.336	0.03543	0.1456	0.418
Mof_C 	C 	0.3203	0.05544	0.1612	-0.173
Mof_C 	C 	0.2928	0.0568	0.1591	0.123
Mof_C 	C 	0.42227	0.99188	0.13418	0.391
Mof_C 	C 	0.45049	0.98392	0.13902	-0.16
Mof_C 	C 	0.46802	0.00186	0.15004	0.135
Mof_O 	O 	0.21594	0.6504	0.39	-0.599
Mof_O 	O 	0.22893	0.62963	0.42458	-0.436
Mof_O 	O 	0.1573	0.6887	0.51156	-0.577
Mof_O 	O 	0.23722	0.64265	0.33688	-0.502
Mof_O 	O 	0.27436	0.62263	0.34235	-0.554
Mof_O 	O 	0.24486	0.6711	0.21412	-0.423
Mof_O 	O 	0.20944	0.67907	0.13961	-0.437
Mof_C 	C 	0.21457	0.6456	0.414	0.418
Mof_C 	C 	0.19456	0.6612	0.4297	-0.173
Mof_C 	C 	0.1932	0.6591	0.4572	0.124
Mof_C 	C 	0.25812	0.63418	0.32773	0.389
Mof_C 	C 	0.26608	0.63902	0.29951	-0.162
Mof_C 	C 	0.24814	0.65004	0.28198	0.14
Mof_O 	O 	0.21594	0.1504	0.89	-0.599
Mof_O 	O 	0.22893	0.12963	0.92458	-0.436
Mof_O 	O 	0.1573	0.1887	0.01156	-0.579
Mof_O 	O 	0.23722	0.14265	0.83688	-0.502
Mof_O 	O 	0.27436	0.12263	0.84235	-0.554
Mof_O 	O 	0.24486	0.1711	0.71412	-0.423
Mof_O 	O 	0.20944	0.17907	0.63961	-0.437
Mof_C 	C 	0.21457	0.1456	0.914	0.419
Mof_C 	C 	0.19456	0.1612	0.9297	-0.173
Mof_C 	C 	0.1932	0.1591	0.9572	0.125
Mof_C 	C 	0.25812	0.13418	0.82773	0.389
Mof_C 	C 	0.26608	0.13902	0.79951	-0.162
Mof_C 	C 	0.24814	0.15004	0.78198	0.14
Mof_O 	O 	0.71594	0.6504	0.89	-0.599
Mof_O 	O 	0.72893	0.62963	0.92458	-0.436
Mof_O 	O 	0.6573	0.6887	0.01156	-0.579
Mof_O 	O 	0.73722	0.64265	0.83688	-0.502
Mof_O 	O 	0.77436	0.62263	0.84235	-0.554
Mof_O 	O 	0.74486	0.6711	0.71412	-0.423
Mof_O 	O 	0.70944	0.67907	0.63961	-0.437
Mof_C 	C 	0.71457	0.6456	0.914	0.419
Mof_C 	C 	0.69456	0.6612	0.9297	-0.173
Mof_C 	C 	0.6932	0.6591	0.9572	0.125
Mof_C 	C 	0.75812	0.63418	0.82773	0.389
Mof_C 	C 	0.76608	0.63902	0.79951	-0.162
Mof_C 	C 	0.74814	0.65004	0.78198	0.14
Mof_O 	O 	0.71594	0.1504	0.39	-0.599
Mof_O 	O 	0.72893	0.12963	0.42458	-0.437
Mof_O 	O 	0.6573	0.1887	0.51156	-0.577
Mof_O 	O 	0.73722	0.14265	0.33688	-0.502
Mof_O 	O 	0.77436	0.12263	0.34235	-0.554
Mof_O 	O 	0.74486	0.1711	0.21412	-0.423
Mof_O 	O 	0.70944	0.17907	0.13961	-0.437
Mof_C 	C 	0.71457	0.1456	0.414	0.418
Mof_C 	C 	0.69456	0.1612	0.4297	-0.173
Mof_C 	C 	0.6932	0.1591	0.4572	0.124
Mof_C 	C 	0.75812	0.13418	0.32773	0.389
Mof_C 	C 	0.76608	0.13902	0.29951	-0.162
Mof_C 	C 	0.74814	0.15004	0.28198	0.14
Mof_O 	O 	0.71594	0.5996	0.36	-0.599
Mof_O 	O 	0.72893	0.62037	0.32542	-0.436
Mof_O 	O 	0.6573	0.5613	0.23844	-0.577
Mof_O 	O 	0.73722	0.60735	0.41312	-0.502
Mof_O 	O 	0.77436	0.62737	0.40765	-0.554
Mof_O 	O 	0.74486	0.5789	0.53588	-0.423
Mof_O 	O 	0.70944	0.57093	0.61039	-0.437
Mof_C 	C 	0.71457	0.6044	0.336	0.418
Mof_C 	C 	0.69456	0.5888	0.3203	-0.173
Mof_C 	C 	0.6932	0.5909	0.2928	0.124
Mof_C 	C 	0.75812	0.61582	0.42227	0.389
Mof_C 	C 	0.76608	0.61098	0.45049	-0.162
Mof_C 	C 	0.74814	0.59996	0.46802	0.14
Mof_O 	O 	0.71594	0.0996	0.86	-0.599
Mof_O 	O 	0.72893	0.12037	0.82542	-0.436
Mof_O 	O 	0.6573	0.0613	0.73844	-0.577
Mof_O 	O 	0.73722	0.10735	0.91312	-0.502
Mof_O 	O 	0.77436	0.12737	0.90765	-0.553
Mof_O 	O 	0.74486	0.0789	0.03588	-0.422
Mof_O 	O 	0.70944	0.07093	0.11039	-0.437
Mof_C 	C 	0.71457	0.1044	0.836	0.418
Mof_C 	C 	0.69456	0.0888	0.8203	-0.173
Mof_C 	C 	0.6932	0.0909	0.7928	0.124
Mof_C 	C 	0.75812	0.11582	0.92227	0.389
Mof_C 	C 	0.76608	0.11098	0.95049	-0.161
Mof_C 	C 	0.74814	0.09996	0.96802	0.139
Mof_O 	O 	0.21594	0.5996	0.86	-0.599
Mof_O 	O 	0.22893	0.62037	0.82542	-0.436
Mof_O 	O 	0.1573	0.5613	0.73844	-0.577
Mof_O 	O 	0.23722	0.60735	0.91312	-0.502
Mof_O 	O 	0.27436	0.62737	0.90765	-0.553
Mof_O 	O 	0.24486	0.5789	0.03588	-0.422
Mof_O 	O 	0.20944	0.57093	0.11039	-0.437
Mof_C 	C 	0.21457	0.6044	0.836	0.418
Mof_C 	C 	0.19456	0.5888	0.8203	-0.173
Mof_C 	C 	0.1932	0.5909	0.7928	0.124
Mof_C 	C 	0.25812	0.61582	0.92227	0.389
Mof_C 	C 	0.26608	0.61098	0.95049	-0.161
Mof_C 	C 	0.24814	0.59996	0.96802	0.139
Mof_O 	O 	0.21594	0.0996	0.36	-0.599
Mof_O 	O 	0.22893	0.12037	0.32542	-0.436
Mof_O 	O 	0.1573	0.0613	0.23844	-0.577
Mof_O 	O 	0.23722	0.10735	0.41312	-0.503
Mof_O 	O 	0.27436	0.12737	0.40765	-0.554
Mof_O 	O 	0.24486	0.0789	0.53588	-0.423
Mof_O 	O 	0.20944	0.07093	0.61039	-0.437
Mof_C 	C 	0.21457	0.1044	0.336	0.418
Mof_C 	C 	0.19456	0.0888	0.3203	-0.173
Mof_C 	C 	0.1932	0.0909	0.2928	0.124
Mof_C 	C 	0.25812	0.11582	0.42227	0.389
Mof_C 	C 	0.26608	0.11098	0.45049	-0.162
Mof_C 	C 	0.24814	0.09996	0.46802	0.14
Mof_O 	O 	0.53406	0.1504	0.86	-0.599
Mof_O 	O 	0.52107	0.12963	0.82542	-0.437
Mof_O 	O 	0.5927	0.1887	0.73844	-0.577
Mof_O 	O 	0.51278	0.14265	0.91312	-0.502
Mof_O 	O 	0.47564	0.12263	0.90765	-0.554
Mof_O 	O 	0.50514	0.1711	0.03588	-0.422
Mof_O 	O 	0.54056	0.17907	0.11039	-0.437
Mof_C 	C 	0.53543	0.1456	0.836	0.418
Mof_C 	C 	0.55544	0.1612	0.8203	-0.173
Mof_C 	C 	0.5568	0.1591	0.7928	0.124
Mof_C 	C 	0.49188	0.13418	0.92227	0.389
Mof_C 	C 	0.48392	0.13902	0.95049	-0.161
Mof_C 	C 	0.50186	0.15004	0.96802	0.139
Mof_O 	O 	0.53406	0.6504	0.36	-0.599
Mof_O 	O 	0.52107	0.62963	0.32542	-0.436
Mof_O 	O 	0.5927	0.6887	0.23844	-0.577
Mof_O 	O 	0.51278	0.64265	0.41312	-0.502
Mof_O 	O 	0.47564	0.62263	0.40765	-0.554
Mof_O 	O 	0.50514	0.6711	0.53588	-0.423
Mof_O 	O 	0.54056	0.67907	0.61039	-0.437
Mof_C 	C 	0.53543	0.6456	0.336	0.418
Mof_C 	C 	0.55544	0.6612	0.3203	-0.173
Mof_C 	C 	0.5568	0.6591	0.2928	0.124
Mof_C 	C 	0.49188	0.63418	0.42227	0.389
Mof_C 	C 	0.48392	0.63902	0.45049	-0.162
Mof_C 	C 	0.50186	0.65004	0.46802	0.14
Mof_O 	O 	0.03406	0.1504	0.36	-0.599
Mof_O 	O 	0.02107	0.12963	0.32542	-0.437
Mof_O 	O 	0.0927	0.1887	0.23844	-0.577
Mof_O 	O 	0.01278	0.14265	0.41312	-0.503
Mof_O 	O 	0.97564	0.12263	0.40765	-0.553
Mof_O 	O 	0.00514	0.1711	0.53588	-0.423
Mof_O 	O 	0.04056	0.17907	0.61039	-0.437
Mof_C 	C 	0.03543	0.1456	0.336	0.418
Mof_C 	C 	0.05544	0.1612	0.3203	-0.173
Mof_C 	C 	0.0568	0.1591	0.2928	0.123
Mof_C 	C 	0.99188	0.13418	0.42227	0.391
Mof_C 	C 	0.98392	0.13902	0.45049	-0.16
Mof_C 	C 	0.00186	0.15004	0.46802	0.135
Mof_O 	O 	0.03406	0.6504	0.86	-0.599
Mof_O 	O 	0.02107	0.62963	0.82542	-0.437
Mof_O 	O 	0.0927	0.6887	0.73844	-0.577
Mof_O 	O 	0.01278	0.64265	0.91312	-0.503
Mof_O 	O 	0.97564	0.62263	0.90765	-0.553
Mof_O 	O 	0.00514	0.6711	0.03588	-0.422
Mof_O 	O 	0.04056	0.67907	0.11039	-0.437
Mof_C 	C 	0.03543	0.6456	0.836	0.418
Mof_C 	C 	0.05544	0.6612	0.8203	-0.173
Mof_C 	C 	0.0568	0.6591	0.7928	0.123
Mof_C 	C 	0.99188	0.63418	0.92227	0.39
Mof_C 	C 	0.98392	0.63902	0.95049	-0.159
Mof_C 	C 	0.00186	0.65004	0.96802	0.135
Mof_O 	O 	0.03406	0.0996	0.89	-0.599
Mof_O 	O 	0.02107	0.12037	0.92458	-0.437
Mof_O 	O 	0.0927	0.0613	0.01156	-0.579
Mof_O 	O 	0.01278	0.10735	0.83688	-0.503
Mof_O 	O 	0.97564	0.12737	0.84235	-0.553
Mof_O 	O 	0.00514	0.0789	0.71412	-0.423
Mof_O 	O 	0.04056	0.07093	0.63961	-0.437
Mof_C 	C 	0.03543	0.1044	0.914	0.418
Mof_C 	C 	0.05544	0.0888	0.9297	-0.173
Mof_C 	C 	0.0568	0.0909	0.9572	0.124
Mof_C 	C 	0.99188	0.11582	0.82773	0.391
Mof_C 	C 	0.98392	0.11098	0.79951	-0.16
Mof_C 	C 	0.00186	0.09996	0.78198	0.135
Mof_O 	O 	0.03406	0.5996	0.39	-0.599
Mof_O 	O 	0.02107	0.62037	0.42458	-0.437
Mof_O 	O 	0.0927	0.5613	0.51156	-0.577
Mof_O 	O 	0.01278	0.60735	0.33688	-0.503
Mof_O 	O 	0.97564	0.62737	0.34235	-0.553
Mof_O 	O 	0.00514	0.5789	0.21412	-0.423
Mof_O 	O 	0.04056	0.57093	0.13961	-0.437
Mof_C 	C 	0.03543	0.6044	0.414	0.418
Mof_C 	C 	0.05544	0.5888	0.4297	-0.173
Mof_C 	C 	0.0568	0.5909	0.4572	0.123
Mof_C 	C 	0.99188	0.61582	0.32773	0.391
Mof_C 	C 	0.98392	0.61098	0.29951	-0.16
Mof_C 	C 	0.00186	0.59996	0.28198	0.136
Mof_O 	O 	0.53406	0.0996	0.39	-0.599
Mof_O 	O 	0.52107	0.12037	0.42458	-0.436
Mof_O 	O 	0.5927	0.0613	0.51156	-0.577
Mof_O 	O 	0.51278	0.10735	0.33688	-0.503
Mof_O 	O 	0.47564	0.12737	0.34235	-0.554
Mof_O 	O 	0.50514	0.0789	0.21412	-0.423
Mof_O 	O 	0.54056	0.07093	0.13961	-0.437
Mof_C 	C 	0.53543	0.1044	0.414	0.418
Mof_C 	C 	0.55544	0.0888	0.4297	-0.173
Mof_C 	C 	0.5568	0.0909	0.4572	0.124
Mof_C 	C 	0.49188	0.11582	0.32773	0.389
Mof_C 	C 	0.48392	0.11098	0.29951	-0.162
Mof_C 	C 	0.50186	0.09996	0.28198	0.14
Mof_O 	O 	0.53406	0.5996	0.89	-0.599
Mof_O 	O 	0.52107	0.62037	0.92458	-0.436
Mof_O 	O 	0.5927	0.5613	0.01156	-0.579
Mof_O 	O 	0.51278	0.60735	0.83688	-0.502
Mof_O 	O 	0.47564	0.62737	0.84235	-0.554
Mof_O 	O 	0.50514	0.5789	0.71412	-0.423
Mof_O 	O 	0.54056	0.57093	0.63961	-0.437
Mof_C 	C 	0.53543	0.6044	0.914	0.419
Mof_C 	C 	0.55544	0.5888	0.9297	-0.173
Mof_C 	C 	0.5568	0.5909	0.9572	0.125
Mof_C 	C 	0.49188	0.61582	0.82773	0.389
Mof_C 	C 	0.48392	0.61098	0.79951	-0.162
Mof_C 	C 	0.50186	0.59996	0.78198	0.14
Mof_In	In	0.87812	0.12188	-0	2.57
Mof_In	In	0.87812	0.62188	0.5	2.575
Mof_In	In	0.37812	0.12188	0.5	2.575
Mof_In	In	0.37812	0.62188	-0	2.57
Mof_In	In	0.87188	0.12812	0.5	2.575
Mof_In	In	0.87188	0.62812	-0	2.57
Mof_In	In	0.37188	0.12812	-0	2.57
Mof_In	In	0.37188	0.62812	0.5	2.575
Mof_In	In	0.37188	0.62188	0.75	2.575
Mof_In	In	0.37188	0.12188	0.25	2.575
Mof_In	In	0.87188	0.62188	0.25	2.575
Mof_In	In	0.87188	0.12188	0.75	2.575
Mof_In	In	0.37812	0.62812	0.25	2.575
Mof_In	In	0.37812	0.12812	0.75	2.575
Mof_In	In	0.87812	0.62812	0.75	2.575
Mof_In	In	0.87812	0.12812	0.25	2.575
Mof_In	In	4.56977e-34	0.87812	0.12188	2.57
Mof_In	In	-3.93581e-33	0.37812	0.62188	2.57
Mof_In	In	0.5	0.87812	0.62188	2.575
Mof_In	In	0.5	0.37812	0.12188	2.575
Mof_In	In	0.5	0.87188	0.12812	2.575
Mof_In	In	0.5	0.37188	0.62812	2.575
Mof_In	In	-3.91241e-33	0.87188	0.62812	2.57
Mof_In	In	3.61412e-33	0.37188	0.12812	2.57
Mof_In	In	0.75	0.37188	0.62188	2.575
Mof_In	In	0.75	0.87188	0.12188	2.575
Mof_In	In	0.25	0.37188	0.12188	2.575
Mof_In	In	0.25	0.87188	0.62188	2.575
Mof_In	In	0.25	0.37812	0.62812	2.575
Mof_In	In	0.25	0.87812	0.12812	2.575
Mof_In	In	0.75	0.37812	0.12812	2.575
Mof_In	In	0.75	0.87812	0.62812	2.575
Mof_In	In	0.12188	-6.26749e-33	0.87812	2.57
Mof_In	In	0.12188	0.5	0.37812	2.575
Mof_In	In	0.62188	0	0.37812	2.57
Mof_In	In	0.62188	0.5	0.87812	2.575
Mof_In	In	0.12812	0.5	0.87188	2.575
Mof_In	In	0.12812	0	0.37188	2.57
Mof_In	In	0.62812	0.5	0.37188	2.575
Mof_In	In	0.62812	0	0.87188	2.57
Mof_In	In	0.62188	0.75	0.37188	2.575
Mof_In	In	0.62188	0.25	0.87188	2.575
Mof_In	In	0.12188	0.75	0.87188	2.575
Mof_In	In	0.12188	0.25	0.37188	2.575
Mof_In	In	0.62812	0.25	0.37812	2.575
Mof_In	In	0.62812	0.75	0.87812	2.575
Mof_In	In	0.12812	0.25	0.87812	2.575
Mof_In	In	0.12812	0.75	0.37812	2.575
Mof_In	In	0.12188	0.87812	-0	2.57
Mof_In	In	0.12188	0.37812	0.5	2.575
Mof_In	In	0.62188	0.87812	0.5	2.575
Mof_In	In	0.62188	0.37812	-0	2.57
Mof_In	In	0.12812	0.87188	0.5	2.575
Mof_In	In	0.12812	0.37188	-0	2.57
Mof_In	In	0.62812	0.87188	-0	2.57
Mof_In	In	0.62812	0.37188	0.5	2.575
Mof_In	In	0.62812	0.37812	0.25	2.575
Mof_In	In	0.62812	0.87812	0.75	2.575
Mof_In	In	0.12812	0.37812	0.75	2.575
Mof_In	In	0.12812	0.87812	0.25	2.575
Mof_In	In	0.62188	0.37188	0.75	2.575
Mof_In	In	0.62188	0.87188	0.25	2.575
Mof_In	In	0.12188	0.37188	0.25	2.575
Mof_In	In	0.12188	0.87188	0.75	2.575
Mof_In	In	3.29242e-33	0.12188	0.87812	2.57
Mof_In	In	1.41772e-33	0.62188	0.37812	2.57
Mof_In	In	0.5	0.12188	0.37812	2.575
Mof_In	In	0.5	0.62188	0.87812	2.575
Mof_In	In	0.5	0.12812	0.87188	2.575
Mof_In	In	0.5	0.62812	0.37188	2.575
Mof_In	In	1.39433e-33	0.12812	0.37188	2.57
Mof_In	In	-2.99846e-33	0.62812	0.87188	2.57
Mof_In	In	0.25	0.62812	0.37812	2.575
Mof_In	In	0.25	0.12812	0.87812	2.575
Mof_In	In	0.75	0.62812	0.87812	2.575
Mof_In	In	0.75	0.12812	0.37812	2.575
Mof_In	In	0.75	0.62188	0.37188	2.575
Mof_In	In	0.75	0.12188	0.87188	2.575
Mof_In	In	0.25	0.62188	0.87188	2.575
Mof_In	In	0.25	0.12188	0.37188	2.575
Mof_In	In	0.87812	-1.56687e-33	0.12188	2.57
Mof_In	In	0.87812	0.5	0.62188	2.575
Mof_In	In	0.37812	0	0.62188	2.57
Mof_In	In	0.37812	0.5	0.12188	2.575
Mof_In	In	0.87188	0.5	0.12812	2.575
Mof_In	In	0.87188	-6.26749e-33	0.62812	2.57
Mof_In	In	0.37188	0.5	0.62812	2.575
Mof_In	In	0.37188	0	0.12812	2.57
Mof_In	In	0.37812	0.25	0.62812	2.575
Mof_In	In	0.37812	0.75	0.12812	2.575
Mof_In	In	0.87812	0.25	0.12812	2.575
Mof_In	In	0.87812	0.75	0.62812	2.575
Mof_In	In	0.37188	0.75	0.62188	2.575
Mof_In	In	0.37188	0.25	0.12188	2.575
Mof_In	In	0.87188	0.75	0.12188	2.575
Mof_In	In	0.87188	0.25	0.62188	2.575
Mof_Ni	Ni	0.67677	0.07323	0.02346	1.112
Mof_Ni	Ni	0.67677	0.57323	0.52346	1.113
Mof_Ni	Ni	0.07323	0.17677	0.52346	1.112
Mof_Ni	Ni	0.57323	0.17677	0.02346	1.112
Mof_Ni	Ni	0.57323	0.67677	0.52346	1.113
Mof_Ni	Ni	0.57323	0.57323	0.72654	1.113
Mof_Ni	Ni	0.57323	0.07323	0.22654	1.113
Mof_Ni	Ni	0.07323	0.57323	0.22654	1.113
Mof_Ni	Ni	0.07323	0.07323	0.72654	1.112
Mof_Ni	Ni	0.17677	0.67677	0.22654	1.113
Mof_Ni	Ni	0.17677	0.17677	0.72654	1.113
Mof_Ni	Ni	0.02346	0.67677	0.07323	1.112
Mof_Ni	Ni	0.02346	0.17677	0.57323	1.112
Mof_Ni	Ni	0.52346	0.67677	0.57323	1.113
Mof_Ni	Ni	0.52346	0.07323	0.17677	1.112
Mof_Ni	Ni	0.52346	0.57323	0.67677	1.113
Mof_Ni	Ni	0.72654	0.57323	0.57323	1.113
Mof_Ni	Ni	0.72654	0.07323	0.07323	1.112
Mof_Ni	Ni	0.22654	0.57323	0.07323	1.113
Mof_Ni	Ni	0.22654	0.07323	0.57323	1.113
Mof_Ni	Ni	0.22654	0.17677	0.67677	1.113
Mof_Ni	Ni	0.72654	0.17677	0.17677	1.113
Mof_Ni	Ni	0.07323	0.02346	0.67677	1.112
Mof_Ni	Ni	0.57323	0.02346	0.17677	1.112
Mof_Ni	Ni	0.57323	0.52346	0.67677	1.113
Mof_Ni	Ni	0.17677	0.52346	0.07323	1.112
Mof_Ni	Ni	0.17677	0.02346	0.57323	1.112
Mof_Ni	Ni	0.67677	0.52346	0.57323	1.113
Mof_Ni	Ni	0.57323	0.72654	0.57323	1.113
Mof_Ni	Ni	0.57323	0.22654	0.07323	1.113
Mof_Ni	Ni	0.07323	0.72654	0.07323	1.112
Mof_Ni	Ni	0.07323	0.22654	0.57323	1.113
Mof_Ni	Ni	0.67677	0.22654	0.17677	1.113
Mof_Ni	Ni	0.67677	0.72654	0.67677	1.113
Mof_Ni	Ni	0.17677	0.72654	0.17677	1.113
Mof_Ni	Ni	0.82323	0.92677	0.47654	1.113
Mof_Ni	Ni	0.82323	0.42677	0.97654	1.113
Mof_Ni	Ni	0.92677	0.32323	0.97654	1.113
Mof_Ni	Ni	0.42677	0.32323	0.47654	1.113
Mof_Ni	Ni	0.32323	0.82323	0.77345	1.113
Mof_Ni	Ni	0.32323	0.32323	0.27346	1.113
Mof_Ni	Ni	0.42677	0.42677	0.27346	1.113
Mof_Ni	Ni	0.42677	0.92677	0.77345	1.113
Mof_Ni	Ni	0.92677	0.42677	0.77345	1.113
Mof_Ni	Ni	0.92677	0.92677	0.27346	1.113
Mof_Ni	Ni	0.42677	0.27346	0.42677	1.113
Mof_Ni	Ni	0.42677	0.77345	0.92677	1.113
Mof_Ni	Ni	0.92677	0.27346	0.92677	1.113
Mof_Ni	Ni	0.92677	0.77345	0.42677	1.113
Mof_Ni	Ni	0.82323	0.77345	0.32323	1.113
Mof_Ni	Ni	0.82323	0.27346	0.82323	1.113
Mof_Ni	Ni	0.32323	0.27346	0.32323	1.113
Mof_Ni	Ni	0.32323	0.97654	0.92677	1.113
Mof_Ni	Ni	0.32323	0.47654	0.42677	1.113
Mof_Ni	Ni	0.92677	0.47654	0.82323	1.113
Mof_Ni	Ni	0.42677	0.47654	0.32323	1.113
Mof_Ni	Ni	0.77345	0.32323	0.82323	1.113
Mof_Ni	Ni	0.27346	0.32323	0.32323	1.113
Mof_Ni	Ni	0.27346	0.42677	0.42677	1.113
Mof_Ni	Ni	0.27346	0.92677	0.92677	1.113
Mof_Ni	Ni	0.77345	0.42677	0.92677	1.113
Mof_Ni	Ni	0.77345	0.92677	0.42677	1.113
Mof_Ni	Ni	0.47654	0.82323	0.92677	1.113
Mof_Ni	Ni	0.47654	0.32323	0.42677	1.113
Mof_Ni	Ni	0.97654	0.92677	0.32323	1.113
Mof_Ni	Ni	0.97654	0.42677	0.82323	1.113
Mof_Ni	Ni	0.32323	0.92677	0.97654	1.113
Mof_Ni	Ni	0.32323	0.42677	0.47654	1.113
Mof_Ni	Ni	0.92677	0.82323	0.47654	1.113
Mof_Ni	Ni	0.42677	0.82323	0.97654	1.113
Mof_Ni	Ni	0.82323	0.32323	0.77345	1.113
Mof_Ni	Ni	0.82323	0.82323	0.27346	1.113
Mof_Ni	Ni	0.97654	0.32323	0.92677	1.113
Mof_Ni	Ni	0.97654	0.82323	0.42677	1.113
Mof_Ni	Ni	0.47654	0.92677	0.82323	1.113
Mof_Ni	Ni	0.47654	0.42677	0.32323	1.113
Mof_Ni	Ni	0.77345	0.82323	0.32323	1.113
Mof_Ni	Ni	0.27346	0.82323	0.82323	1.113
Mof_Ni	Ni	0.92677	0.97654	0.32323	1.113
Mof_Ni	Ni	0.42677	0.97654	0.82323	1.113
Mof_Ni	Ni	0.82323	0.47654	0.92677	1.113
Mof_Ni	Ni	0.82323	0.97654	0.42677	1.113
Mof_Ni	Ni	0.32323	0.77345	0.82323	1.113
Mof_Ni	Ni	0.17677	0.07323	0.52346	1.112
Mof_Ni	Ni	0.17677	0.57323	0.02346	1.112
Mof_Ni	Ni	0.07323	0.67677	0.02346	1.112
Mof_Ni	Ni	0.67677	0.17677	0.22654	1.113
Mof_Ni	Ni	0.67677	0.67677	0.72654	1.113
Mof_Ni	Ni	0.17677	0.22654	0.67677	1.113
Mof_Ni	Ni	0.67677	0.02346	0.07323	1.112
Mof_Ni	Ni	0.07323	0.52346	0.17677	1.112
Mof_Ni	Ni	0.22654	0.67677	0.17677	1.113
Mof_Ni	Ni	0.72654	0.67677	0.67677	1.113
Mof_Ni	Ni	0.52346	0.17677	0.07323	1.112
Mof_Ni	Ni	0.02346	0.07323	0.67677	1.112
Mof_Ni	Ni	0.02346	0.57323	0.17677	1.112
Mof_Ni	Ni	0.04095	0.04095	0.0935	0.709
Mof_O 	O 	0.0683	0.0683	0.1061	-0.806
Mof_Ni	Ni	0.05488	0.05488	0.0975	1.007
Mof_Ni	Ni	0.04095	0.54095	0.5935	0.709
Mof_O 	O 	0.0683	0.5683	0.6061	-0.806
Mof_Ni	Ni	0.05488	0.55488	0.5975	1.007
Mof_Ni	Ni	0.54095	0.04095	0.5935	0.709
Mof_O 	O 	0.5683	0.0683	0.6061	-0.806
Mof_Ni	Ni	0.55488	0.05488	0.5975	1.007
Mof_Ni	Ni	0.54095	0.54095	0.0935	0.709
Mof_O 	O 	0.5683	0.5683	0.1061	-0.806
Mof_Ni	Ni	0.55488	0.55488	0.0975	1.007
Mof_Ni	Ni	0.70905	0.20905	0.5935	0.709
Mof_O 	O 	0.6817	0.1817	0.6061	-0.806
Mof_Ni	Ni	0.69512	0.19512	0.5975	1.007
Mof_Ni	Ni	0.70905	0.70905	0.0935	0.709
Mof_O 	O 	0.6817	0.6817	0.1061	-0.806
Mof_Ni	Ni	0.69512	0.69512	0.0975	1.007
Mof_Ni	Ni	0.20905	0.54095	0.6565	0.709
Mof_O 	O 	0.1817	0.5683	0.6439	-0.806
Mof_Ni	Ni	0.19512	0.55488	0.6525	1.007
Mof_Ni	Ni	0.20905	0.04095	0.1565	0.709
Mof_O 	O 	0.1817	0.0683	0.1439	-0.806
Mof_Ni	Ni	0.19512	0.05488	0.1525	1.007
Mof_Ni	Ni	0.54095	0.70905	0.1565	0.709
Mof_O 	O 	0.5683	0.6817	0.1439	-0.806
Mof_Ni	Ni	0.55488	0.69512	0.1525	1.007
Mof_Ni	Ni	0.04095	0.70905	0.6565	0.709
Mof_O 	O 	0.0683	0.6817	0.6439	-0.806
Mof_Ni	Ni	0.05488	0.69512	0.6525	1.007
Mof_Ni	Ni	0.0935	0.04095	0.04095	0.709
Mof_O 	O 	0.1061	0.0683	0.0683	-0.806
Mof_Ni	Ni	0.0975	0.05488	0.05488	1.007
Mof_Ni	Ni	0.0935	0.54095	0.54095	0.709
Mof_O 	O 	0.1061	0.5683	0.5683	-0.806
Mof_Ni	Ni	0.0975	0.55488	0.55488	1.007
Mof_Ni	Ni	0.5935	0.04095	0.54095	0.709
Mof_O 	O 	0.6061	0.0683	0.5683	-0.806
Mof_Ni	Ni	0.5975	0.05488	0.55488	1.007
Mof_Ni	Ni	0.5935	0.54095	0.04095	0.709
Mof_O 	O 	0.6061	0.5683	0.0683	-0.806
Mof_Ni	Ni	0.5975	0.55488	0.05488	1.007
Mof_Ni	Ni	0.5935	0.70905	0.20905	0.709
Mof_O 	O 	0.6061	0.6817	0.1817	-0.806
Mof_Ni	Ni	0.5975	0.69512	0.19512	1.007
Mof_Ni	Ni	0.0935	0.70905	0.70905	0.709
Mof_O 	O 	0.1061	0.6817	0.6817	-0.806
Mof_Ni	Ni	0.0975	0.69512	0.69512	1.007
Mof_Ni	Ni	0.6565	0.20905	0.54095	0.709
Mof_O 	O 	0.6439	0.1817	0.5683	-0.806
Mof_Ni	Ni	0.6525	0.19512	0.55488	1.007
Mof_Ni	Ni	0.6565	0.70905	0.04095	0.709
Mof_O 	O 	0.6439	0.6817	0.0683	-0.806
Mof_Ni	Ni	0.6525	0.69512	0.05488	1.007
Mof_Ni	Ni	0.1565	0.54095	0.70905	0.709
Mof_O 	O 	0.1439	0.5683	0.6817	-0.806
Mof_Ni	Ni	0.1525	0.55488	0.69512	1.007
Mof_Ni	Ni	0.1565	0.04095	0.20905	0.709
Mof_O 	O 	0.1439	0.0683	0.1817	-0.806
Mof_Ni	Ni	0.1525	0.05488	0.19512	1.007
Mof_Ni	Ni	0.04095	0.0935	0.04095	0.709
Mof_O 	O 	0.0683	0.1061	0.0683	-0.806
Mof_Ni	Ni	0.05488	0.0975	0.05488	1.007
Mof_Ni	Ni	0.04095	0.5935	0.54095	0.709
Mof_O 	O 	0.0683	0.6061	0.5683	-0.806
Mof_Ni	Ni	0.05488	0.5975	0.55488	1.007
Mof_Ni	Ni	0.54095	0.0935	0.54095	0.709
Mof_O 	O 	0.5683	0.1061	0.5683	-0.806
Mof_Ni	Ni	0.55488	0.0975	0.55488	1.007
Mof_Ni	Ni	0.54095	0.5935	0.04095	0.709
Mof_O 	O 	0.5683	0.6061	0.0683	-0.806
Mof_Ni	Ni	0.55488	0.5975	0.05488	1.007
Mof_Ni	Ni	0.20905	0.5935	0.70905	0.709
Mof_O 	O 	0.1817	0.6061	0.6817	-0.806
Mof_Ni	Ni	0.19512	0.5975	0.69512	1.007
Mof_Ni	Ni	0.20905	0.0935	0.20905	0.709
Mof_O 	O 	0.1817	0.1061	0.1817	-0.806
Mof_Ni	Ni	0.19512	0.0975	0.19512	1.007
Mof_Ni	Ni	0.54095	0.6565	0.20905	0.709
Mof_O 	O 	0.5683	0.6439	0.1817	-0.806
Mof_Ni	Ni	0.55488	0.6525	0.19512	1.007
Mof_Ni	Ni	0.04095	0.6565	0.70905	0.709
Mof_O 	O 	0.0683	0.6439	0.6817	-0.806
Mof_Ni	Ni	0.05488	0.6525	0.69512	1.007
Mof_Ni	Ni	0.70905	0.1565	0.54095	0.709
Mof_O 	O 	0.6817	0.1439	0.5683	-0.806
Mof_Ni	Ni	0.69512	0.1525	0.55488	1.007
Mof_Ni	Ni	0.70905	0.6565	0.04095	0.709
Mof_O 	O 	0.6817	0.6439	0.0683	-0.806
Mof_Ni	Ni	0.69512	0.6525	0.05488	1.007
Mof_Ni	Ni	0.79095	0.29095	0.4065	0.709
Mof_O 	O 	0.8183	0.3183	0.3939	-0.806
Mof_Ni	Ni	0.80488	0.30488	0.4025	1.007
Mof_Ni	Ni	0.79095	0.79095	0.9065	0.709
Mof_O 	O 	0.8183	0.8183	0.8939	-0.806
Mof_Ni	Ni	0.80488	0.80488	0.9025	1.007
Mof_Ni	Ni	0.95905	0.95905	0.9065	0.709
Mof_O 	O 	0.9317	0.9317	0.8939	-0.806
Mof_Ni	Ni	0.94512	0.94512	0.9025	1.007
Mof_Ni	Ni	0.95905	0.45905	0.4065	0.709
Mof_O 	O 	0.9317	0.4317	0.3939	-0.806
Mof_Ni	Ni	0.94512	0.44512	0.4025	1.007
Mof_Ni	Ni	0.45905	0.95905	0.4065	0.709
Mof_O 	O 	0.4317	0.9317	0.3939	-0.806
Mof_Ni	Ni	0.44512	0.94512	0.4025	1.007
Mof_Ni	Ni	0.45905	0.45905	0.9065	0.709
Mof_O 	O 	0.4317	0.4317	0.8939	-0.806
Mof_Ni	Ni	0.44512	0.44512	0.9025	1.007
Mof_Ni	Ni	0.29095	0.45905	0.8435	0.709
Mof_O 	O 	0.3183	0.4317	0.8561	-0.806
Mof_Ni	Ni	0.30488	0.44512	0.8475	1.007
Mof_Ni	Ni	0.29095	0.95905	0.3435	0.709
Mof_O 	O 	0.3183	0.9317	0.3561	-0.806
Mof_Ni	Ni	0.30488	0.94512	0.3475	1.007
Mof_Ni	Ni	0.45905	0.79095	0.3435	0.709
Mof_O 	O 	0.4317	0.8183	0.3561	-0.806
Mof_Ni	Ni	0.44512	0.80488	0.3475	1.007
Mof_Ni	Ni	0.95905	0.79095	0.8435	0.709
Mof_O 	O 	0.9317	0.8183	0.8561	-0.806
Mof_Ni	Ni	0.94512	0.80488	0.8475	1.007
Mof_Ni	Ni	0.79095	0.3435	0.45905	0.709
Mof_O 	O 	0.8183	0.3561	0.4317	-0.806
Mof_Ni	Ni	0.80488	0.3475	0.44512	1.007
Mof_Ni	Ni	0.79095	0.8435	0.95905	0.709
Mof_O 	O 	0.8183	0.8561	0.9317	-0.806
Mof_Ni	Ni	0.80488	0.8475	0.94512	1.007
Mof_Ni	Ni	0.45905	0.8435	0.29095	0.709
Mof_O 	O 	0.4317	0.8561	0.3183	-0.806
Mof_Ni	Ni	0.44512	0.8475	0.30488	1.007
Mof_Ni	Ni	0.95905	0.8435	0.79095	0.709
Mof_O 	O 	0.9317	0.8561	0.8183	-0.806
Mof_Ni	Ni	0.94512	0.8475	0.80488	1.007
Mof_Ni	Ni	0.95905	0.9065	0.95905	0.709
Mof_O 	O 	0.9317	0.8939	0.9317	-0.806
Mof_Ni	Ni	0.94512	0.9025	0.94512	1.007
Mof_Ni	Ni	0.95905	0.4065	0.45905	0.709
Mof_O 	O 	0.9317	0.3939	0.4317	-0.806
Mof_Ni	Ni	0.94512	0.4025	0.44512	1.007
Mof_Ni	Ni	0.45905	0.9065	0.45905	0.709
Mof_O 	O 	0.4317	0.8939	0.4317	-0.806
Mof_Ni	Ni	0.44512	0.9025	0.44512	1.007
Mof_Ni	Ni	0.45905	0.4065	0.95905	0.709
Mof_O 	O 	0.4317	0.3939	0.9317	-0.806
Mof_Ni	Ni	0.44512	0.4025	0.94512	1.007
Mof_Ni	Ni	0.29095	0.4065	0.79095	0.709
Mof_O 	O 	0.3183	0.3939	0.8183	-0.806
Mof_Ni	Ni	0.30488	0.4025	0.80488	1.007
Mof_Ni	Ni	0.29095	0.9065	0.29095	0.709
Mof_O 	O 	0.3183	0.8939	0.3183	-0.806
Mof_Ni	Ni	0.30488	0.9025	0.30488	1.007
Mof_Ni	Ni	0.8435	0.29095	0.45905	0.709
Mof_O 	O 	0.8561	0.3183	0.4317	-0.806
Mof_Ni	Ni	0.8475	0.30488	0.44512	1.007
Mof_Ni	Ni	0.8435	0.79095	0.95905	0.709
Mof_O 	O 	0.8561	0.8183	0.9317	-0.806
Mof_Ni	Ni	0.8475	0.80488	0.94512	1.007
Mof_Ni	Ni	0.3435	0.45905	0.79095	0.709
Mof_O 	O 	0.3561	0.4317	0.8183	-0.806
Mof_Ni	Ni	0.3475	0.44512	0.80488	1.007
Mof_Ni	Ni	0.3435	0.95905	0.29095	0.709
Mof_O 	O 	0.3561	0.9317	0.3183	-0.806
Mof_Ni	Ni	0.3475	0.94512	0.30488	1.007
Mof_Ni	Ni	0.4065	0.79095	0.29095	0.709
Mof_O 	O 	0.3939	0.8183	0.3183	-0.806
Mof_Ni	Ni	0.4025	0.80488	0.30488	1.007
Mof_Ni	Ni	0.9065	0.79095	0.79095	0.709
Mof_O 	O 	0.8939	0.8183	0.8183	-0.806
Mof_Ni	Ni	0.9025	0.80488	0.80488	1.007
Mof_Ni	Ni	0.9065	0.95905	0.95905	0.709
Mof_O 	O 	0.8939	0.9317	0.9317	-0.806
Mof_Ni	Ni	0.9025	0.94512	0.94512	1.007
Mof_Ni	Ni	0.9065	0.45905	0.45905	0.709
Mof_O 	O 	0.8939	0.4317	0.4317	-0.806
Mof_Ni	Ni	0.9025	0.44512	0.44512	1.007
Mof_Ni	Ni	0.4065	0.95905	0.45905	0.709
Mof_O 	O 	0.3939	0.9317	0.4317	-0.806
Mof_Ni	Ni	0.4025	0.94512	0.44512	1.007
Mof_Ni	Ni	0.4065	0.45905	0.95905	0.709
Mof_O 	O 	0.3939	0.4317	0.9317	-0.806
Mof_Ni	Ni	0.4025	0.44512	0.94512	1.007
Mof_Ni	Ni	0.29095	0.79095	0.4065	0.709
Mof_O 	O 	0.3183	0.8183	0.3939	-0.806
Mof_Ni	Ni	0.30488	0.80488	0.4025	1.007
Mof_Ni	Ni	0.29095	0.29095	0.9065	0.709
Mof_O 	O 	0.3183	0.3183	0.8939	-0.806
Mof_Ni	Ni	0.30488	0.30488	0.9025	1.007
Mof_Ni	Ni	0.79095	0.45905	0.3435	0.709
Mof_O 	O 	0.8183	0.4317	0.3561	-0.806
Mof_Ni	Ni	0.80488	0.44512	0.3475	1.007
Mof_Ni	Ni	0.79095	0.95905	0.8435	0.709
Mof_O 	O 	0.8183	0.9317	0.8561	-0.806
Mof_Ni	Ni	0.80488	0.94512	0.8475	1.007
Mof_Ni	Ni	0.45905	0.29095	0.8435	0.709
Mof_O 	O 	0.4317	0.3183	0.8561	-0.806
Mof_Ni	Ni	0.44512	0.30488	0.8475	1.007
Mof_Ni	Ni	0.95905	0.29095	0.3435	0.709
Mof_O 	O 	0.9317	0.3183	0.3561	-0.806
Mof_Ni	Ni	0.94512	0.30488	0.3475	1.007
Mof_Ni	Ni	0.4065	0.29095	0.79095	0.709
Mof_O 	O 	0.3939	0.3183	0.8183	-0.806
Mof_Ni	Ni	0.4025	0.30488	0.80488	1.007
Mof_Ni	Ni	0.9065	0.29095	0.29095	0.709
Mof_O 	O 	0.8939	0.3183	0.3183	-0.806
Mof_Ni	Ni	0.9025	0.30488	0.30488	1.007
Mof_Ni	Ni	0.3435	0.79095	0.45905	0.709
Mof_O 	O 	0.3561	0.8183	0.4317	-0.806
Mof_Ni	Ni	0.3475	0.80488	0.44512	1.007
Mof_Ni	Ni	0.3435	0.29095	0.95905	0.709
Mof_O 	O 	0.3561	0.3183	0.9317	-0.806
Mof_Ni	Ni	0.3475	0.30488	0.94512	1.007
Mof_Ni	Ni	0.8435	0.45905	0.29095	0.709
Mof_O 	O 	0.8561	0.4317	0.3183	-0.806
Mof_Ni	Ni	0.8475	0.44512	0.30488	1.007
Mof_Ni	Ni	0.8435	0.95905	0.79095	0.709
Mof_O 	O 	0.8561	0.9317	0.8183	-0.806
Mof_Ni	Ni	0.8475	0.94512	0.80488	1.007
Mof_Ni	Ni	0.79095	0.4065	0.29095	0.709
Mof_O 	O 	0.8183	0.3939	0.3183	-0.806
Mof_Ni	Ni	0.80488	0.4025	0.30488	1.007
Mof_Ni	Ni	0.79095	0.9065	0.79095	0.709
Mof_O 	O 	0.8183	0.8939	0.8183	-0.806
Mof_Ni	Ni	0.80488	0.9025	0.80488	1.007
Mof_Ni	Ni	0.45905	0.3435	0.79095	0.709
Mof_O 	O 	0.4317	0.3561	0.8183	-0.806
Mof_Ni	Ni	0.44512	0.3475	0.80488	1.007
Mof_Ni	Ni	0.95905	0.3435	0.29095	0.709
Mof_O 	O 	0.9317	0.3561	0.3183	-0.806
Mof_Ni	Ni	0.94512	0.3475	0.30488	1.007
Mof_Ni	Ni	0.29095	0.8435	0.45905	0.709
Mof_O 	O 	0.3183	0.8561	0.4317	-0.806
Mof_Ni	Ni	0.30488	0.8475	0.44512	1.007
Mof_Ni	Ni	0.29095	0.3435	0.95905	0.709
Mof_O 	O 	0.3183	0.3561	0.9317	-0.806
Mof_Ni	Ni	0.30488	0.3475	0.94512	1.007
Mof_Ni	Ni	0.20905	0.70905	0.5935	0.709
Mof_O 	O 	0.1817	0.6817	0.6061	-0.806
Mof_Ni	Ni	0.19512	0.69512	0.5975	1.007
Mof_Ni	Ni	0.20905	0.20905	0.0935	0.709
Mof_O 	O 	0.1817	0.1817	0.1061	-0.806
Mof_Ni	Ni	0.19512	0.19512	0.0975	1.007
Mof_Ni	Ni	0.70905	0.54095	0.1565	0.709
Mof_O 	O 	0.6817	0.5683	0.1439	-0.806
Mof_Ni	Ni	0.69512	0.55488	0.1525	1.007
Mof_Ni	Ni	0.70905	0.04095	0.6565	0.709
Mof_O 	O 	0.6817	0.0683	0.6439	-0.806
Mof_Ni	Ni	0.69512	0.05488	0.6525	1.007
Mof_Ni	Ni	0.54095	0.20905	0.6565	0.709
Mof_O 	O 	0.5683	0.1817	0.6439	-0.806
Mof_Ni	Ni	0.55488	0.19512	0.6525	1.007
Mof_Ni	Ni	0.04095	0.20905	0.1565	0.709
Mof_O 	O 	0.0683	0.1817	0.1439	-0.806
Mof_Ni	Ni	0.05488	0.19512	0.1525	1.007
Mof_Ni	Ni	0.20905	0.6565	0.54095	0.709
Mof_O 	O 	0.1817	0.6439	0.5683	-0.806
Mof_Ni	Ni	0.19512	0.6525	0.55488	1.007
Mof_Ni	Ni	0.20905	0.1565	0.04095	0.709
Mof_O 	O 	0.1817	0.1439	0.0683	-0.806
Mof_Ni	Ni	0.19512	0.1525	0.05488	1.007
Mof_Ni	Ni	0.54095	0.1565	0.70905	0.709
Mof_O 	O 	0.5683	0.1439	0.6817	-0.806
Mof_Ni	Ni	0.55488	0.1525	0.69512	1.007
Mof_Ni	Ni	0.04095	0.1565	0.20905	0.709
Mof_O 	O 	0.0683	0.1439	0.1817	-0.806
Mof_Ni	Ni	0.05488	0.1525	0.19512	1.007
Mof_Ni	Ni	0.70905	0.5935	0.20905	0.709
Mof_O 	O 	0.6817	0.6061	0.1817	-0.806
Mof_Ni	Ni	0.69512	0.5975	0.19512	1.007
Mof_Ni	Ni	0.70905	0.0935	0.70905	0.709
Mof_O 	O 	0.6817	0.1061	0.6817	-0.806
Mof_Ni	Ni	0.69512	0.0975	0.69512	1.007
Mof_Ni	Ni	0.1565	0.70905	0.54095	0.709
Mof_O 	O 	0.1439	0.6817	0.5683	-0.806
Mof_Ni	Ni	0.1525	0.69512	0.55488	1.007
Mof_Ni	Ni	0.1565	0.20905	0.04095	0.709
Mof_O 	O 	0.1439	0.1817	0.0683	-0.806
Mof_Ni	Ni	0.1525	0.19512	0.05488	1.007
Mof_Ni	Ni	0.6565	0.54095	0.20905	0.709
Mof_O 	O 	0.6439	0.5683	0.1817	-0.806
Mof_Ni	Ni	0.6525	0.55488	0.19512	1.007
Mof_Ni	Ni	0.6565	0.04095	0.70905	0.709
Mof_O 	O 	0.6439	0.0683	0.6817	-0.806
Mof_Ni	Ni	0.6525	0.05488	0.69512	1.007
Mof_Ni	Ni	0.5935	0.20905	0.70905	0.709
Mof_O 	O 	0.6061	0.1817	0.6817	-0.806
Mof_Ni	Ni	0.5975	0.19512	0.69512	1.007
Mof_Ni	Ni	0.0935	0.20905	0.20905	0.709
Mof_O 	O 	0.1061	0.1817	0.1817	-0.806
Mof_Ni	Ni	0.0975	0.19512	0.19512	1.007
Mof_O 	O 	0.69673	0.05327	0.05327	-0.521
Mof_O 	O 	0.05327	0.19673	0.55327	-0.521
Mof_O 	O 	0.55327	0.55327	0.69673	-0.521
Mof_O 	O 	0.19673	0.69673	0.19673	-0.521
Mof_O 	O 	0.05327	0.69673	0.05327	-0.521
Mof_O 	O 	0.55327	0.05327	0.19673	-0.521
Mof_O 	O 	0.69673	0.55327	0.55327	-0.521
Mof_O 	O 	0.19673	0.19673	0.69673	-0.521
Mof_O 	O 	0.05327	0.05327	0.69673	-0.521
Mof_O 	O 	0.19673	0.55327	0.05327	-0.521
Mof_O 	O 	0.55327	0.69673	0.55327	-0.521
Mof_O 	O 	0.69673	0.19673	0.19673	-0.521
Mof_O 	O 	0.69673	0.69673	0.69673	-0.521
Mof_O 	O 	0.80327	0.94673	0.44673	-0.521
Mof_O 	O 	0.94673	0.30327	0.94673	-0.521
Mof_O 	O 	0.30327	0.80327	0.80327	-0.521
Mof_O 	O 	0.30327	0.30327	0.30327	-0.521
Mof_O 	O 	0.44673	0.44673	0.30327	-0.521
Mof_O 	O 	0.44673	0.30327	0.44673	-0.521
Mof_O 	O 	0.80327	0.80327	0.30327	-0.521
Mof_O 	O 	0.30327	0.94673	0.94673	-0.521
Mof_O 	O 	0.94673	0.44673	0.80327	-0.521
Mof_O 	O 	0.80327	0.30327	0.80327	-0.521
Mof_O 	O 	0.30327	0.44673	0.44673	-0.521
Mof_O 	O 	0.44673	0.80327	0.94673	-0.521
Mof_O 	O 	0.94673	0.94673	0.30327	-0.521
Mof_O 	O 	0.94673	0.80327	0.44673	-0.521
Mof_O 	O 	0.44673	0.94673	0.80327	-0.521
Mof_O 	O 	0.80327	0.44673	0.94673	-0.521
Mof_O 	O 	0.19673	0.05327	0.55327	-0.521
Mof_O 	O 	0.05327	0.55327	0.19673	-0.521
Mof_O 	O 	0.55327	0.19673	0.05327	-0.521
Mof_C 	C 	0.9154	0.07042	0.07042	0.148
Mof_C 	C 	0.9707	0.075	0.075	-0.214
Mof_C 	C 	0.999	0.0757	0.0757	0.421
Mof_C 	C 	0.62937	0.06023	0.06023	0.458
Mof_C 	C 	0.60526	0.07101	0.07101	-0.225
Mof_C 	C 	0.9154	0.57042	0.57042	0.149
Mof_C 	C 	0.9707	0.575	0.575	-0.214
Mof_C 	C 	0.999	0.5757	0.5757	0.422
Mof_C 	C 	0.62937	0.56023	0.56023	0.458
Mof_C 	C 	0.60526	0.57101	0.57101	-0.224
Mof_C 	C 	0.4154	0.07042	0.57042	0.148
Mof_C 	C 	0.4707	0.075	0.575	-0.212
Mof_C 	C 	0.499	0.0757	0.5757	0.417
Mof_C 	C 	0.12937	0.06023	0.56023	0.458
Mof_C 	C 	0.10526	0.07101	0.57101	-0.225
Mof_C 	C 	0.4154	0.57042	0.07042	0.148
Mof_C 	C 	0.4707	0.575	0.075	-0.212
Mof_C 	C 	0.499	0.5757	0.0757	0.417
Mof_C 	C 	0.12937	0.56023	0.06023	0.458
Mof_C 	C 	0.10526	0.57101	0.07101	-0.225
Mof_C 	C 	0.8346	0.17958	0.57042	0.148
Mof_C 	C 	0.7793	0.175	0.575	-0.212
Mof_C 	C 	0.751	0.1743	0.5757	0.417
Mof_C 	C 	0.12063	0.18977	0.56023	0.458
Mof_C 	C 	0.14474	0.17899	0.57101	-0.224
Mof_C 	C 	0.8346	0.67958	0.07042	0.148
Mof_C 	C 	0.7793	0.675	0.075	-0.212
Mof_C 	C 	0.751	0.6743	0.0757	0.417
Mof_C 	C 	0.12063	0.68977	0.06023	0.458
Mof_C 	C 	0.14474	0.67899	0.07101	-0.225
Mof_C 	C 	0.3346	0.57042	0.67958	0.148
Mof_C 	C 	0.2793	0.575	0.675	-0.212
Mof_C 	C 	0.251	0.5757	0.6743	0.417
Mof_C 	C 	0.62063	0.56023	0.68977	0.458
Mof_C 	C 	0.64474	0.57101	0.67899	-0.224
Mof_C 	C 	0.3346	0.07042	0.17958	0.148
Mof_C 	C 	0.2793	0.075	0.175	-0.212
Mof_C 	C 	0.251	0.0757	0.1743	0.417
Mof_C 	C 	0.62063	0.06023	0.18977	0.458
Mof_C 	C 	0.64474	0.07101	0.17899	-0.225
Mof_C 	C 	0.4154	0.67958	0.17958	0.148
Mof_C 	C 	0.4707	0.675	0.175	-0.212
Mof_C 	C 	0.499	0.6743	0.1743	0.417
Mof_C 	C 	0.12937	0.68977	0.18977	0.458
Mof_C 	C 	0.10526	0.67899	0.17899	-0.224
Mof_C 	C 	0.9154	0.67958	0.67958	0.149
Mof_C 	C 	0.9707	0.675	0.675	-0.214
Mof_C 	C 	0.999	0.6743	0.6743	0.422
Mof_C 	C 	0.62937	0.68977	0.68977	0.458
Mof_C 	C 	0.60526	0.67899	0.67899	-0.224
Mof_C 	C 	0.9154	0.17958	0.17958	0.149
Mof_C 	C 	0.9707	0.175	0.175	-0.214
Mof_C 	C 	0.999	0.1743	0.1743	0.422
Mof_C 	C 	0.62937	0.18977	0.18977	0.458
Mof_C 	C 	0.60526	0.17899	0.17899	-0.224
Mof_C 	C 	0.07042	0.9154	0.07042	0.148
Mof_C 	C 	0.075	0.9707	0.075	-0.214
Mof_C 	C 	0.0757	0.999	0.0757	0.421
Mof_C 	C 	0.06023	0.62937	0.06023	0.458
Mof_C 	C 	0.07101	0.60526	0.07101	-0.225
Mof_C 	C 	0.07042	0.4154	0.57042	0.148
Mof_C 	C 	0.075	0.4707	0.575	-0.212
Mof_C 	C 	0.0757	0.499	0.5757	0.417
Mof_C 	C 	0.06023	0.12937	0.56023	0.458
Mof_C 	C 	0.07101	0.10526	0.57101	-0.225
Mof_C 	C 	0.57042	0.9154	0.57042	0.149
Mof_C 	C 	0.575	0.9707	0.575	-0.214
Mof_C 	C 	0.5757	0.999	0.5757	0.422
Mof_C 	C 	0.56023	0.62937	0.56023	0.458
Mof_C 	C 	0.57101	0.60526	0.57101	-0.224
Mof_C 	C 	0.57042	0.4154	0.07042	0.148
Mof_C 	C 	0.575	0.4707	0.075	-0.212
Mof_C 	C 	0.5757	0.499	0.0757	0.417
Mof_C 	C 	0.56023	0.12937	0.06023	0.458
Mof_C 	C 	0.57101	0.10526	0.07101	-0.225
Mof_C 	C 	0.57042	0.8346	0.17958	0.148
Mof_C 	C 	0.575	0.7793	0.175	-0.212
Mof_C 	C 	0.5757	0.751	0.1743	0.417
Mof_C 	C 	0.56023	0.12063	0.18977	0.458
Mof_C 	C 	0.57101	0.14474	0.17899	-0.224
Mof_C 	C 	0.07042	0.8346	0.67958	0.148
Mof_C 	C 	0.075	0.7793	0.675	-0.212
Mof_C 	C 	0.0757	0.751	0.6743	0.417
Mof_C 	C 	0.06023	0.12063	0.68977	0.458
Mof_C 	C 	0.07101	0.14474	0.67899	-0.225
Mof_C 	C 	0.67958	0.3346	0.57042	0.148
Mof_C 	C 	0.675	0.2793	0.575	-0.212
Mof_C 	C 	0.6743	0.251	0.5757	0.417
Mof_C 	C 	0.68977	0.62063	0.56023	0.458
Mof_C 	C 	0.67899	0.64474	0.57101	-0.224
Mof_C 	C 	0.67958	0.8346	0.07042	0.148
Mof_C 	C 	0.675	0.7793	0.075	-0.212
Mof_C 	C 	0.6743	0.751	0.0757	0.417
Mof_C 	C 	0.68977	0.12063	0.06023	0.458
Mof_C 	C 	0.67899	0.14474	0.07101	-0.225
Mof_C 	C 	0.17958	0.4154	0.67958	0.148
Mof_C 	C 	0.175	0.4707	0.675	-0.212
Mof_C 	C 	0.1743	0.499	0.6743	0.417
Mof_C 	C 	0.18977	0.12937	0.68977	0.458
Mof_C 	C 	0.17899	0.10526	0.67899	-0.224
Mof_C 	C 	0.17958	0.9154	0.17958	0.149
Mof_C 	C 	0.175	0.9707	0.175	-0.214
Mof_C 	C 	0.1743	0.999	0.1743	0.422
Mof_C 	C 	0.18977	0.62937	0.18977	0.458
Mof_C 	C 	0.17899	0.60526	0.17899	-0.224
Mof_C 	C 	0.07042	0.07042	0.9154	0.148
Mof_C 	C 	0.075	0.075	0.9707	-0.214
Mof_C 	C 	0.0757	0.0757	0.999	0.421
Mof_C 	C 	0.06023	0.06023	0.62937	0.458
Mof_C 	C 	0.07101	0.07101	0.60526	-0.225
Mof_C 	C 	0.07042	0.57042	0.4154	0.148
Mof_C 	C 	0.075	0.575	0.4707	-0.212
Mof_C 	C 	0.0757	0.5757	0.499	0.417
Mof_C 	C 	0.06023	0.56023	0.12937	0.458
Mof_C 	C 	0.07101	0.57101	0.10526	-0.225
Mof_C 	C 	0.57042	0.07042	0.4154	0.148
Mof_C 	C 	0.575	0.075	0.4707	-0.212
Mof_C 	C 	0.5757	0.0757	0.499	0.417
Mof_C 	C 	0.56023	0.06023	0.12937	0.458
Mof_C 	C 	0.57101	0.07101	0.10526	-0.225
Mof_C 	C 	0.57042	0.57042	0.9154	0.149
Mof_C 	C 	0.575	0.575	0.9707	-0.214
Mof_C 	C 	0.5757	0.5757	0.999	0.422
Mof_C 	C 	0.56023	0.56023	0.62937	0.458
Mof_C 	C 	0.57101	0.57101	0.60526	-0.224
Mof_C 	C 	0.17958	0.57042	0.8346	0.148
Mof_C 	C 	0.175	0.575	0.7793	-0.212
Mof_C 	C 	0.1743	0.5757	0.751	0.417
Mof_C 	C 	0.18977	0.56023	0.12063	0.458
Mof_C 	C 	0.17899	0.57101	0.14474	-0.224
Mof_C 	C 	0.17958	0.07042	0.3346	0.148
Mof_C 	C 	0.175	0.075	0.2793	-0.212
Mof_C 	C 	0.1743	0.0757	0.251	0.417
Mof_C 	C 	0.18977	0.06023	0.62063	0.458
Mof_C 	C 	0.17899	0.07101	0.64474	-0.225
Mof_C 	C 	0.57042	0.67958	0.3346	0.148
Mof_C 	C 	0.575	0.675	0.2793	-0.212
Mof_C 	C 	0.5757	0.6743	0.251	0.417
Mof_C 	C 	0.56023	0.68977	0.62063	0.458
Mof_C 	C 	0.57101	0.67899	0.64474	-0.224
Mof_C 	C 	0.07042	0.67958	0.8346	0.148
Mof_C 	C 	0.075	0.675	0.7793	-0.212
Mof_C 	C 	0.0757	0.6743	0.751	0.417
Mof_C 	C 	0.06023	0.68977	0.12063	0.458
Mof_C 	C 	0.07101	0.67899	0.14474	-0.225
Mof_C 	C 	0.67958	0.17958	0.4154	0.148
Mof_C 	C 	0.675	0.175	0.4707	-0.212
Mof_C 	C 	0.6743	0.1743	0.499	0.417
Mof_C 	C 	0.68977	0.18977	0.12937	0.458
Mof_C 	C 	0.67899	0.17899	0.10526	-0.224
Mof_C 	C 	0.67958	0.67958	0.9154	0.149
Mof_C 	C 	0.675	0.675	0.9707	-0.214
Mof_C 	C 	0.6743	0.6743	0.999	0.422
Mof_C 	C 	0.68977	0.68977	0.62937	0.458
Mof_C 	C 	0.67899	0.67899	0.60526	-0.224
Mof_C 	C 	0.17958	0.17958	0.9154	0.149
Mof_C 	C 	0.175	0.175	0.9707	-0.214
Mof_C 	C 	0.1743	0.1743	0.999	0.422
Mof_C 	C 	0.18977	0.18977	0.62937	0.458
Mof_C 	C 	0.17899	0.17899	0.60526	-0.224
Mof_C 	C 	0.82042	0.1654	0.42958	0.148
Mof_C 	C 	0.825	0.2207	0.425	-0.212
Mof_C 	C 	0.8257	0.249	0.4243	0.417
Mof_C 	C 	0.81023	0.87937	0.43977	0.458
Mof_C 	C 	0.82101	0.85526	0.42899	-0.224
Mof_C 	C 	0.82042	0.6654	0.92958	0.148
Mof_C 	C 	0.825	0.7207	0.925	-0.212
Mof_C 	C 	0.8257	0.749	0.9243	0.417
Mof_C 	C 	0.81023	0.37937	0.93977	0.458
Mof_C 	C 	0.82101	0.35526	0.92899	-0.224
Mof_C 	C 	0.92958	0.0846	0.92958	0.148
Mof_C 	C 	0.925	0.0293	0.925	-0.211
Mof_C 	C 	0.9243	0.001	0.9243	0.413
Mof_C 	C 	0.93977	0.37063	0.93977	0.458
Mof_C 	C 	0.92899	0.39474	0.92899	-0.224
Mof_C 	C 	0.92958	0.5846	0.42958	0.148
Mof_C 	C 	0.925	0.5293	0.425	-0.212
Mof_C 	C 	0.9243	0.501	0.4243	0.417
Mof_C 	C 	0.93977	0.87063	0.43977	0.458
Mof_C 	C 	0.92899	0.89474	0.42899	-0.224
Mof_C 	C 	0.42958	0.0846	0.42958	0.148
Mof_C 	C 	0.425	0.0293	0.425	-0.211
Mof_C 	C 	0.4243	0.001	0.4243	0.413
Mof_C 	C 	0.43977	0.37063	0.43977	0.458
Mof_C 	C 	0.42899	0.39474	0.42899	-0.224
Mof_C 	C 	0.42958	0.5846	0.92958	0.148
Mof_C 	C 	0.425	0.5293	0.925	-0.212
Mof_C 	C 	0.4243	0.501	0.9243	0.417
Mof_C 	C 	0.43977	0.87063	0.93977	0.458
Mof_C 	C 	0.42899	0.89474	0.92899	-0.224
Mof_C 	C 	0.32042	0.5846	0.82042	0.148
Mof_C 	C 	0.325	0.5293	0.825	-0.212
Mof_C 	C 	0.3257	0.501	0.8257	0.417
Mof_C 	C 	0.31023	0.87063	0.81023	0.458
Mof_C 	C 	0.32101	0.89474	0.82101	-0.224
Mof_C 	C 	0.32042	0.0846	0.32042	0.148
Mof_C 	C 	0.325	0.0293	0.325	-0.211
Mof_C 	C 	0.3257	0.001	0.3257	0.413
Mof_C 	C 	0.31023	0.37063	0.31023	0.458
Mof_C 	C 	0.32101	0.39474	0.32101	-0.224
Mof_C 	C 	0.42958	0.6654	0.32042	0.148
Mof_C 	C 	0.425	0.7207	0.325	-0.212
Mof_C 	C 	0.4243	0.749	0.3257	0.417
Mof_C 	C 	0.43977	0.37937	0.31023	0.458
Mof_C 	C 	0.42899	0.35526	0.32101	-0.224
Mof_C 	C 	0.92958	0.6654	0.82042	0.148
Mof_C 	C 	0.925	0.7207	0.825	-0.212
Mof_C 	C 	0.9243	0.749	0.8257	0.417
Mof_C 	C 	0.93977	0.37937	0.81023	0.458
Mof_C 	C 	0.92899	0.35526	0.82101	-0.224
Mof_C 	C 	0.6654	0.32042	0.42958	0.148
Mof_C 	C 	0.7207	0.325	0.425	-0.212
Mof_C 	C 	0.749	0.3257	0.4243	0.417
Mof_C 	C 	0.37937	0.31023	0.43977	0.458
Mof_C 	C 	0.35526	0.32101	0.42899	-0.224
Mof_C 	C 	0.6654	0.82042	0.92958	0.148
Mof_C 	C 	0.7207	0.825	0.925	-0.212
Mof_C 	C 	0.749	0.8257	0.9243	0.417
Mof_C 	C 	0.37937	0.81023	0.93977	0.458
Mof_C 	C 	0.35526	0.82101	0.92899	-0.224
Mof_C 	C 	0.5846	0.82042	0.32042	0.148
Mof_C 	C 	0.5293	0.825	0.325	-0.212
Mof_C 	C 	0.501	0.8257	0.3257	0.417
Mof_C 	C 	0.87063	0.81023	0.31023	0.458
Mof_C 	C 	0.89474	0.82101	0.32101	-0.224
Mof_C 	C 	0.0846	0.82042	0.82042	0.148
Mof_C 	C 	0.0293	0.825	0.825	-0.211
Mof_C 	C 	0.001	0.8257	0.8257	0.413
Mof_C 	C 	0.37063	0.81023	0.81023	0.458
Mof_C 	C 	0.39474	0.82101	0.82101	-0.224
Mof_C 	C 	0.0846	0.32042	0.32042	0.148
Mof_C 	C 	0.0293	0.325	0.325	-0.211
Mof_C 	C 	0.001	0.3257	0.3257	0.413
Mof_C 	C 	0.37063	0.31023	0.31023	0.458
Mof_C 	C 	0.39474	0.32101	0.32101	-0.224
Mof_C 	C 	0.0846	0.92958	0.92958	0.148
Mof_C 	C 	0.0293	0.925	0.925	-0.211
Mof_C 	C 	0.001	0.9243	0.9243	0.413
Mof_C 	C 	0.37063	0.93977	0.93977	0.458
Mof_C 	C 	0.39474	0.92899	0.92899	-0.224
Mof_C 	C 	0.0846	0.42958	0.42958	0.148
Mof_C 	C 	0.0293	0.425	0.425	-0.211
Mof_C 	C 	0.001	0.4243	0.4243	0.413
Mof_C 	C 	0.37063	0.43977	0.43977	0.458
Mof_C 	C 	0.39474	0.42899	0.42899	-0.224
Mof_C 	C 	0.5846	0.92958	0.42958	0.148
Mof_C 	C 	0.5293	0.925	0.425	-0.212
Mof_C 	C 	0.501	0.9243	0.4243	0.417
Mof_C 	C 	0.87063	0.93977	0.43977	0.458
Mof_C 	C 	0.89474	0.92899	0.42899	-0.224
Mof_C 	C 	0.5846	0.42958	0.92958	0.148
Mof_C 	C 	0.5293	0.425	0.925	-0.212
Mof_C 	C 	0.501	0.4243	0.9243	0.417
Mof_C 	C 	0.87063	0.43977	0.93977	0.458
Mof_C 	C 	0.89474	0.42899	0.92899	-0.224
Mof_C 	C 	0.1654	0.42958	0.82042	0.148
Mof_C 	C 	0.2207	0.425	0.825	-0.212
Mof_C 	C 	0.249	0.4243	0.8257	0.417
Mof_C 	C 	0.87937	0.43977	0.81023	0.458
Mof_C 	C 	0.85526	0.42899	0.82101	-0.224
Mof_C 	C 	0.1654	0.92958	0.32042	0.148
Mof_C 	C 	0.2207	0.925	0.325	-0.212
Mof_C 	C 	0.249	0.9243	0.3257	0.417
Mof_C 	C 	0.87937	0.93977	0.31023	0.458
Mof_C 	C 	0.85526	0.92899	0.32101	-0.224
Mof_C 	C 	0.82042	0.32042	0.5846	0.148
Mof_C 	C 	0.825	0.325	0.5293	-0.212
Mof_C 	C 	0.8257	0.3257	0.501	0.417
Mof_C 	C 	0.81023	0.31023	0.87063	0.458
Mof_C 	C 	0.82101	0.32101	0.89474	-0.224
Mof_C 	C 	0.82042	0.82042	0.0846	0.148
Mof_C 	C 	0.825	0.825	0.0293	-0.211
Mof_C 	C 	0.8257	0.8257	0.001	0.413
Mof_C 	C 	0.81023	0.81023	0.37063	0.458
Mof_C 	C 	0.82101	0.82101	0.39474	-0.224
Mof_C 	C 	0.32042	0.32042	0.0846	0.148
Mof_C 	C 	0.325	0.325	0.0293	-0.211
Mof_C 	C 	0.3257	0.3257	0.001	0.413
Mof_C 	C 	0.31023	0.31023	0.37063	0.458
Mof_C 	C 	0.32101	0.32101	0.39474	-0.224
Mof_C 	C 	0.32042	0.42958	0.6654	0.148
Mof_C 	C 	0.325	0.425	0.7207	-0.212
Mof_C 	C 	0.3257	0.4243	0.749	0.417
Mof_C 	C 	0.31023	0.43977	0.37937	0.458
Mof_C 	C 	0.32101	0.42899	0.35526	-0.224
Mof_C 	C 	0.32042	0.92958	0.1654	0.148
Mof_C 	C 	0.325	0.925	0.2207	-0.212
Mof_C 	C 	0.3257	0.9243	0.249	0.417
Mof_C 	C 	0.31023	0.93977	0.87937	0.458
Mof_C 	C 	0.32101	0.92899	0.85526	-0.224
Mof_C 	C 	0.42958	0.82042	0.1654	0.148
Mof_C 	C 	0.425	0.825	0.2207	-0.212
Mof_C 	C 	0.4243	0.8257	0.249	0.417
Mof_C 	C 	0.43977	0.81023	0.87937	0.458
Mof_C 	C 	0.42899	0.82101	0.85526	-0.224
Mof_C 	C 	0.92958	0.82042	0.6654	0.148
Mof_C 	C 	0.925	0.825	0.7207	-0.212
Mof_C 	C 	0.9243	0.8257	0.749	0.417
Mof_C 	C 	0.93977	0.81023	0.37937	0.458
Mof_C 	C 	0.92899	0.82101	0.35526	-0.224
Mof_C 	C 	0.92958	0.92958	0.0846	0.148
Mof_C 	C 	0.925	0.925	0.0293	-0.211
Mof_C 	C 	0.9243	0.9243	0.001	0.413
Mof_C 	C 	0.93977	0.93977	0.37063	0.458
Mof_C 	C 	0.92899	0.92899	0.39474	-0.224
Mof_C 	C 	0.92958	0.42958	0.5846	0.148
Mof_C 	C 	0.925	0.425	0.5293	-0.212
Mof_C 	C 	0.9243	0.4243	0.501	0.417
Mof_C 	C 	0.93977	0.43977	0.87063	0.458
Mof_C 	C 	0.92899	0.42899	0.89474	-0.224
Mof_C 	C 	0.42958	0.92958	0.5846	0.148
Mof_C 	C 	0.425	0.925	0.5293	-0.212
Mof_C 	C 	0.4243	0.9243	0.501	0.417
Mof_C 	C 	0.43977	0.93977	0.87063	0.458
Mof_C 	C 	0.42899	0.92899	0.89474	-0.224
Mof_C 	C 	0.42958	0.42958	0.0846	0.148
Mof_C 	C 	0.425	0.425	0.0293	-0.211
Mof_C 	C 	0.4243	0.4243	0.001	0.413
Mof_C 	C 	0.43977	0.43977	0.37063	0.458
Mof_C 	C 	0.42899	0.42899	0.39474	-0.224
Mof_C 	C 	0.1654	0.82042	0.42958	0.148
Mof_C 	C 	0.2207	0.825	0.425	-0.212
Mof_C 	C 	0.249	0.8257	0.4243	0.417
Mof_C 	C 	0.87937	0.81023	0.43977	0.458
Mof_C 	C 	0.85526	0.82101	0.42899	-0.224
Mof_C 	C 	0.1654	0.32042	0.92958	0.148
Mof_C 	C 	0.2207	0.325	0.925	-0.212
Mof_C 	C 	0.249	0.3257	0.9243	0.417
Mof_C 	C 	0.87937	0.31023	0.93977	0.458
Mof_C 	C 	0.85526	0.32101	0.92899	-0.224
Mof_C 	C 	0.6654	0.42958	0.32042	0.148
Mof_C 	C 	0.7207	0.425	0.325	-0.212
Mof_C 	C 	0.749	0.4243	0.3257	0.417
Mof_C 	C 	0.37937	0.43977	0.31023	0.458
Mof_C 	C 	0.35526	0.42899	0.32101	-0.224
Mof_C 	C 	0.6654	0.92958	0.82042	0.148
Mof_C 	C 	0.7207	0.925	0.825	-0.212
Mof_C 	C 	0.749	0.9243	0.8257	0.417
Mof_C 	C 	0.37937	0.93977	0.81023	0.458
Mof_C 	C 	0.35526	0.92899	0.82101	-0.224
Mof_C 	C 	0.5846	0.32042	0.82042	0.148
Mof_C 	C 	0.5293	0.325	0.825	-0.212
Mof_C 	C 	0.501	0.3257	0.8257	0.417
Mof_C 	C 	0.87063	0.31023	0.81023	0.458
Mof_C 	C 	0.89474	0.32101	0.82101	-0.224
Mof_C 	C 	0.42958	0.1654	0.82042	0.148
Mof_C 	C 	0.425	0.2207	0.825	-0.212
Mof_C 	C 	0.4243	0.249	0.8257	0.417
Mof_C 	C 	0.43977	0.87937	0.81023	0.458
Mof_C 	C 	0.42899	0.85526	0.82101	-0.224
Mof_C 	C 	0.92958	0.1654	0.32042	0.148
Mof_C 	C 	0.925	0.2207	0.325	-0.212
Mof_C 	C 	0.9243	0.249	0.3257	0.417
Mof_C 	C 	0.93977	0.87937	0.31023	0.458
Mof_C 	C 	0.92899	0.85526	0.32101	-0.224
Mof_C 	C 	0.32042	0.6654	0.42958	0.148
Mof_C 	C 	0.325	0.7207	0.425	-0.212
Mof_C 	C 	0.3257	0.749	0.4243	0.417
Mof_C 	C 	0.31023	0.37937	0.43977	0.458
Mof_C 	C 	0.32101	0.35526	0.42899	-0.224
Mof_C 	C 	0.32042	0.1654	0.92958	0.148
Mof_C 	C 	0.325	0.2207	0.925	-0.212
Mof_C 	C 	0.3257	0.249	0.9243	0.417
Mof_C 	C 	0.31023	0.87937	0.93977	0.458
Mof_C 	C 	0.32101	0.85526	0.92899	-0.224
Mof_C 	C 	0.82042	0.5846	0.32042	0.148
Mof_C 	C 	0.825	0.5293	0.325	-0.212
Mof_C 	C 	0.8257	0.501	0.3257	0.417
Mof_C 	C 	0.81023	0.87063	0.31023	0.458
Mof_C 	C 	0.82101	0.89474	0.32101	-0.224
Mof_C 	C 	0.82042	0.0846	0.82042	0.148
Mof_C 	C 	0.825	0.0293	0.825	-0.211
Mof_C 	C 	0.8257	0.001	0.8257	0.413
Mof_C 	C 	0.81023	0.37063	0.81023	0.458
Mof_C 	C 	0.82101	0.39474	0.82101	-0.224
Mof_C 	C 	0.82042	0.42958	0.1654	0.148
Mof_C 	C 	0.825	0.425	0.2207	-0.212
Mof_C 	C 	0.8257	0.4243	0.249	0.417
Mof_C 	C 	0.81023	0.43977	0.87937	0.458
Mof_C 	C 	0.82101	0.42899	0.85526	-0.224
Mof_C 	C 	0.82042	0.92958	0.6654	0.148
Mof_C 	C 	0.825	0.925	0.7207	-0.212
Mof_C 	C 	0.8257	0.9243	0.749	0.417
Mof_C 	C 	0.81023	0.93977	0.37937	0.458
Mof_C 	C 	0.82101	0.92899	0.35526	-0.224
Mof_C 	C 	0.42958	0.32042	0.6654	0.148
Mof_C 	C 	0.425	0.325	0.7207	-0.212
Mof_C 	C 	0.4243	0.3257	0.749	0.417
Mof_C 	C 	0.43977	0.31023	0.37937	0.458
Mof_C 	C 	0.42899	0.32101	0.35526	-0.224
Mof_C 	C 	0.92958	0.32042	0.1654	0.148
Mof_C 	C 	0.925	0.325	0.2207	-0.212
Mof_C 	C 	0.9243	0.3257	0.249	0.417
Mof_C 	C 	0.93977	0.31023	0.87937	0.458
Mof_C 	C 	0.92899	0.32101	0.85526	-0.224
Mof_C 	C 	0.32042	0.82042	0.5846	0.148
Mof_C 	C 	0.325	0.825	0.5293	-0.212
Mof_C 	C 	0.3257	0.8257	0.501	0.417
Mof_C 	C 	0.31023	0.81023	0.87063	0.458
Mof_C 	C 	0.32101	0.82101	0.89474	-0.224
Mof_C 	C 	0.17958	0.8346	0.57042	0.148
Mof_C 	C 	0.175	0.7793	0.575	-0.212
Mof_C 	C 	0.1743	0.751	0.5757	0.417
Mof_C 	C 	0.18977	0.12063	0.56023	0.458
Mof_C 	C 	0.17899	0.14474	0.57101	-0.224
Mof_C 	C 	0.17958	0.3346	0.07042	0.148
Mof_C 	C 	0.175	0.2793	0.075	-0.212
Mof_C 	C 	0.1743	0.251	0.0757	0.417
Mof_C 	C 	0.18977	0.62063	0.06023	0.458
Mof_C 	C 	0.17899	0.64474	0.07101	-0.225
Mof_C 	C 	0.67958	0.4154	0.17958	0.148
Mof_C 	C 	0.675	0.4707	0.175	-0.212
Mof_C 	C 	0.6743	0.499	0.1743	0.417
Mof_C 	C 	0.68977	0.12937	0.18977	0.458
Mof_C 	C 	0.67899	0.10526	0.17899	-0.224
Mof_C 	C 	0.67958	0.9154	0.67958	0.149
Mof_C 	C 	0.675	0.9707	0.675	-0.214
Mof_C 	C 	0.6743	0.999	0.6743	0.422
Mof_C 	C 	0.68977	0.62937	0.68977	0.458
Mof_C 	C 	0.67899	0.60526	0.67899	-0.224
Mof_C 	C 	0.57042	0.3346	0.67958	0.148
Mof_C 	C 	0.575	0.2793	0.675	-0.212
Mof_C 	C 	0.5757	0.251	0.6743	0.417
Mof_C 	C 	0.56023	0.62063	0.68977	0.458
Mof_C 	C 	0.57101	0.64474	0.67899	-0.224
Mof_C 	C 	0.07042	0.3346	0.17958	0.148
Mof_C 	C 	0.075	0.2793	0.175	-0.212
Mof_C 	C 	0.0757	0.251	0.1743	0.417
Mof_C 	C 	0.06023	0.62063	0.18977	0.458
Mof_C 	C 	0.07101	0.64474	0.17899	-0.225
Mof_C 	C 	0.3346	0.67958	0.57042	0.148
Mof_C 	C 	0.2793	0.675	0.575	-0.212
Mof_C 	C 	0.251	0.6743	0.5757	0.417
Mof_C 	C 	0.62063	0.68977	0.56023	0.458
Mof_C 	C 	0.64474	0.67899	0.57101	-0.224
Mof_C 	C 	0.3346	0.17958	0.07042	0.148
Mof_C 	C 	0.2793	0.175	0.075	-0.212
Mof_C 	C 	0.251	0.1743	0.0757	0.417
Mof_C 	C 	0.62063	0.18977	0.06023	0.458
Mof_C 	C 	0.64474	0.17899	0.07101	-0.225
Mof_C 	C 	0.4154	0.17958	0.67958	0.148
Mof_C 	C 	0.4707	0.175	0.675	-0.212
Mof_C 	C 	0.499	0.1743	0.6743	0.417
Mof_C 	C 	0.12937	0.18977	0.68977	0.458
Mof_C 	C 	0.10526	0.17899	0.67899	-0.224
Mof_C 	C 	0.8346	0.57042	0.17958	0.148
Mof_C 	C 	0.7793	0.575	0.175	-0.212
Mof_C 	C 	0.751	0.5757	0.1743	0.417
Mof_C 	C 	0.12063	0.56023	0.18977	0.458
Mof_C 	C 	0.14474	0.57101	0.17899	-0.224
Mof_C 	C 	0.8346	0.07042	0.67958	0.148
Mof_C 	C 	0.7793	0.075	0.675	-0.212
Mof_C 	C 	0.751	0.0757	0.6743	0.417
Mof_C 	C 	0.12063	0.06023	0.68977	0.458
Mof_C 	C 	0.14474	0.07101	0.67899	-0.225
Mof_C 	C 	0.17958	0.67958	0.4154	0.148
Mof_C 	C 	0.175	0.675	0.4707	-0.212
Mof_C 	C 	0.1743	0.6743	0.499	0.417
Mof_C 	C 	0.18977	0.68977	0.12937	0.458
Mof_C 	C 	0.17899	0.67899	0.10526	-0.224
Mof_C 	C 	0.67958	0.57042	0.3346	0.148
Mof_C 	C 	0.675	0.575	0.2793	-0.212
Mof_C 	C 	0.6743	0.5757	0.251	0.417
Mof_C 	C 	0.68977	0.56023	0.62063	0.458
Mof_C 	C 	0.67899	0.57101	0.64474	-0.224
Mof_C 	C 	0.67958	0.07042	0.8346	0.148
Mof_C 	C 	0.675	0.075	0.7793	-0.212
Mof_C 	C 	0.6743	0.0757	0.751	0.417
Mof_C 	C 	0.68977	0.06023	0.12063	0.458
Mof_C 	C 	0.67899	0.07101	0.14474	-0.225
Mof_C 	C 	0.57042	0.17958	0.8346	0.148
Mof_C 	C 	0.575	0.175	0.7793	-0.212
Mof_C 	C 	0.5757	0.1743	0.751	0.417
Mof_C 	C 	0.56023	0.18977	0.12063	0.458
Mof_C 	C 	0.57101	0.17899	0.14474	-0.224
Mof_C 	C 	0.07042	0.17958	0.3346	0.148
Mof_C 	C 	0.075	0.175	0.2793	-0.212
Mof_C 	C 	0.0757	0.1743	0.251	0.417
Mof_C 	C 	0.06023	0.18977	0.62063	0.458
Mof_C 	C 	0.07101	0.17899	0.64474	-0.225
Mof_C 	C 	0.79164	0.1172	0.95836	0.143
Mof_C 	C 	0.75598	0.09451	0.99402	-0.18
Mof_C 	C 	0.73656	0.08266	0.01344	0.452
Mof_C 	C 	0.29164	0.1172	0.45836	0.144
Mof_C 	C 	0.25598	0.09451	0.49402	-0.185
Mof_C 	C 	0.23656	0.08266	0.51344	0.455
Mof_C 	C 	0.95836	0.1328	0.45836	0.143
Mof_C 	C 	0.99402	0.15549	0.49402	-0.18
Mof_C 	C 	0.01344	0.16734	0.51344	0.452
Mof_C 	C 	0.95836	0.6328	0.95836	0.142
Mof_C 	C 	0.99402	0.65549	0.99402	-0.176
Mof_C 	C 	0.01344	0.66734	0.01344	0.45
Mof_C 	C 	0.45836	0.6172	0.79164	0.144
Mof_C 	C 	0.49402	0.59451	0.75598	-0.185
Mof_C 	C 	0.51344	0.58266	0.73656	0.455
Mof_C 	C 	0.45836	0.1172	0.29164	0.144
Mof_C 	C 	0.49402	0.09451	0.25598	-0.185
Mof_C 	C 	0.51344	0.08266	0.23656	0.455
Mof_C 	C 	0.29164	0.6328	0.29164	0.144
Mof_C 	C 	0.25598	0.65549	0.25598	-0.185
Mof_C 	C 	0.23656	0.66734	0.23656	0.455
Mof_C 	C 	0.29164	0.1328	0.79164	0.144
Mof_C 	C 	0.25598	0.15549	0.75598	-0.185
Mof_C 	C 	0.23656	0.16734	0.73656	0.455
Mof_C 	C 	0.79164	0.6328	0.79164	0.144
Mof_C 	C 	0.75598	0.65549	0.75598	-0.185
Mof_C 	C 	0.73656	0.66734	0.73656	0.455
Mof_C 	C 	0.79164	0.1328	0.29164	0.144
Mof_C 	C 	0.75598	0.15549	0.25598	-0.185
Mof_C 	C 	0.73656	0.16734	0.23656	0.455
Mof_C 	C 	0.95836	0.79164	0.1172	0.143
Mof_C 	C 	0.99402	0.75598	0.09451	-0.18
Mof_C 	C 	0.01344	0.73656	0.08266	0.452
Mof_C 	C 	0.95836	0.29164	0.6172	0.143
Mof_C 	C 	0.99402	0.25598	0.59451	-0.18
Mof_C 	C 	0.01344	0.23656	0.58266	0.452
Mof_C 	C 	0.45836	0.95836	0.1328	0.143
Mof_C 	C 	0.49402	0.99402	0.15549	-0.18
Mof_C 	C 	0.51344	0.01344	0.16734	0.452
Mof_C 	C 	0.45836	0.45836	0.6328	0.144
Mof_C 	C 	0.49402	0.49402	0.65549	-0.185
Mof_C 	C 	0.51344	0.51344	0.66734	0.455
Mof_C 	C 	0.95836	0.95836	0.6328	0.142
Mof_C 	C 	0.99402	0.99402	0.65549	-0.176
Mof_C 	C 	0.01344	0.01344	0.66734	0.45
Mof_C 	C 	0.79164	0.45836	0.6172	0.144
Mof_C 	C 	0.75598	0.49402	0.59451	-0.185
Mof_C 	C 	0.73656	0.51344	0.58266	0.455
Mof_C 	C 	0.29164	0.45836	0.1172	0.144
Mof_C 	C 	0.25598	0.49402	0.09451	-0.185
Mof_C 	C 	0.23656	0.51344	0.08266	0.455
Mof_C 	C 	0.29164	0.29164	0.6328	0.144
Mof_C 	C 	0.25598	0.25598	0.65549	-0.185
Mof_C 	C 	0.23656	0.23656	0.66734	0.455
Mof_C 	C 	0.29164	0.79164	0.1328	0.144
Mof_C 	C 	0.25598	0.75598	0.15549	-0.185
Mof_C 	C 	0.23656	0.73656	0.16734	0.455
Mof_C 	C 	0.79164	0.29164	0.1328	0.144
Mof_C 	C 	0.75598	0.25598	0.15549	-0.185
Mof_C 	C 	0.73656	0.23656	0.16734	0.455
Mof_C 	C 	0.79164	0.79164	0.6328	0.144
Mof_C 	C 	0.75598	0.75598	0.65549	-0.185
Mof_C 	C 	0.73656	0.73656	0.66734	0.455
Mof_C 	C 	0.1172	0.95836	0.79164	0.143
Mof_C 	C 	0.09451	0.99402	0.75598	-0.18
Mof_C 	C 	0.08266	0.01344	0.73656	0.452
Mof_C 	C 	0.1172	0.45836	0.29164	0.144
Mof_C 	C 	0.09451	0.49402	0.25598	-0.185
Mof_C 	C 	0.08266	0.51344	0.23656	0.455
Mof_C 	C 	0.1328	0.45836	0.95836	0.143
Mof_C 	C 	0.15549	0.49402	0.99402	-0.18
Mof_C 	C 	0.16734	0.51344	0.01344	0.452
Mof_C 	C 	0.6328	0.45836	0.45836	0.144
Mof_C 	C 	0.65549	0.49402	0.49402	-0.185
Mof_C 	C 	0.66734	0.51344	0.51344	0.455
Mof_C 	C 	0.6328	0.95836	0.95836	0.142
Mof_C 	C 	0.65549	0.99402	0.99402	-0.176
Mof_C 	C 	0.66734	0.01344	0.01344	0.45
Mof_C 	C 	0.6172	0.79164	0.45836	0.144
Mof_C 	C 	0.59451	0.75598	0.49402	-0.185
Mof_C 	C 	0.58266	0.73656	0.51344	0.455
Mof_C 	C 	0.6172	0.29164	0.95836	0.143
Mof_C 	C 	0.59451	0.25598	0.99402	-0.18
Mof_C 	C 	0.58266	0.23656	0.01344	0.452
Mof_C 	C 	0.6328	0.29164	0.29164	0.144
Mof_C 	C 	0.65549	0.25598	0.25598	-0.185
Mof_C 	C 	0.66734	0.23656	0.23656	0.455
Mof_C 	C 	0.6328	0.79164	0.79164	0.144
Mof_C 	C 	0.65549	0.75598	0.75598	-0.185
Mof_C 	C 	0.66734	0.73656	0.73656	0.455
Mof_C 	C 	0.1328	0.29164	0.79164	0.144
Mof_C 	C 	0.15549	0.25598	0.75598	-0.185
Mof_C 	C 	0.16734	0.23656	0.73656	0.455
Mof_C 	C 	0.1328	0.79164	0.29164	0.144
Mof_C 	C 	0.15549	0.75598	0.25598	-0.185
Mof_C 	C 	0.16734	0.73656	0.23656	0.455
Mof_C 	C 	0.8672	0.04164	0.54164	0.145
Mof_C 	C 	0.84451	0.00598	0.50598	-0.189
Mof_C 	C 	0.83266	0.98656	0.48656	0.457
Mof_C 	C 	0.3672	0.04164	0.04164	0.145
Mof_C 	C 	0.34451	0.00598	0.00598	-0.194
Mof_C 	C 	0.33266	0.98656	0.98656	0.46
Mof_C 	C 	0.3672	0.54164	0.54164	0.144
Mof_C 	C 	0.34451	0.50598	0.50598	-0.185
Mof_C 	C 	0.33266	0.48656	0.48656	0.455
Mof_C 	C 	0.8828	0.20836	0.04164	0.145
Mof_C 	C 	0.90549	0.24402	0.00598	-0.189
Mof_C 	C 	0.91734	0.26344	0.98656	0.457
Mof_C 	C 	0.8828	0.70836	0.54164	0.144
Mof_C 	C 	0.90549	0.74402	0.50598	-0.185
Mof_C 	C 	0.91734	0.76344	0.48656	0.455
Mof_C 	C 	0.3828	0.20836	0.54164	0.144
Mof_C 	C 	0.40549	0.24402	0.50598	-0.185
Mof_C 	C 	0.41734	0.26344	0.48656	0.455
Mof_C 	C 	0.3672	0.70836	0.70836	0.144
Mof_C 	C 	0.34451	0.74402	0.74402	-0.185
Mof_C 	C 	0.33266	0.76344	0.76344	0.455
Mof_C 	C 	0.3672	0.20836	0.20836	0.144
Mof_C 	C 	0.34451	0.24402	0.24402	-0.185
Mof_C 	C 	0.33266	0.26344	0.26344	0.455
Mof_C 	C 	0.8672	0.70836	0.20836	0.144
Mof_C 	C 	0.84451	0.74402	0.24402	-0.185
Mof_C 	C 	0.83266	0.76344	0.26344	0.455
Mof_C 	C 	0.8672	0.20836	0.70836	0.144
Mof_C 	C 	0.84451	0.24402	0.74402	-0.185
Mof_C 	C 	0.83266	0.26344	0.76344	0.455
Mof_C 	C 	0.3828	0.54164	0.20836	0.144
Mof_C 	C 	0.40549	0.50598	0.24402	-0.185
Mof_C 	C 	0.41734	0.48656	0.26344	0.455
Mof_C 	C 	0.3828	0.04164	0.70836	0.145
Mof_C 	C 	0.40549	0.00598	0.74402	-0.189
Mof_C 	C 	0.41734	0.98656	0.76344	0.457
Mof_C 	C 	0.54164	0.20836	0.3828	0.144
Mof_C 	C 	0.50598	0.24402	0.40549	-0.185
Mof_C 	C 	0.48656	0.26344	0.41734	0.455
Mof_C 	C 	0.54164	0.70836	0.8828	0.144
Mof_C 	C 	0.50598	0.74402	0.90549	-0.185
Mof_C 	C 	0.48656	0.76344	0.91734	0.455
Mof_C 	C 	0.70836	0.70836	0.3672	0.144
Mof_C 	C 	0.74402	0.74402	0.34451	-0.185
Mof_C 	C 	0.76344	0.76344	0.33266	0.455
Mof_C 	C 	0.70836	0.20836	0.8672	0.144
Mof_C 	C 	0.74402	0.24402	0.84451	-0.185
Mof_C 	C 	0.76344	0.26344	0.83266	0.455
Mof_C 	C 	0.20836	0.70836	0.8672	0.144
Mof_C 	C 	0.24402	0.74402	0.84451	-0.185
Mof_C 	C 	0.26344	0.76344	0.83266	0.455
Mof_C 	C 	0.20836	0.20836	0.3672	0.144
Mof_C 	C 	0.24402	0.24402	0.34451	-0.185
Mof_C 	C 	0.26344	0.26344	0.33266	0.455
Mof_C 	C 	0.20836	0.04164	0.8828	0.145
Mof_C 	C 	0.24402	0.00598	0.90549	-0.189
Mof_C 	C 	0.26344	0.98656	0.91734	0.457
Mof_C 	C 	0.20836	0.54164	0.3828	0.144
Mof_C 	C 	0.24402	0.50598	0.40549	-0.185
Mof_C 	C 	0.26344	0.48656	0.41734	0.455
Mof_C 	C 	0.70836	0.04164	0.3828	0.145
Mof_C 	C 	0.74402	0.00598	0.40549	-0.189
Mof_C 	C 	0.76344	0.98656	0.41734	0.457
Mof_C 	C 	0.04164	0.54164	0.8672	0.145
Mof_C 	C 	0.00598	0.50598	0.84451	-0.189
Mof_C 	C 	0.98656	0.48656	0.83266	0.457
Mof_C 	C 	0.04164	0.04164	0.3672	0.145
Mof_C 	C 	0.00598	0.00598	0.34451	-0.194
Mof_C 	C 	0.98656	0.98656	0.33266	0.46
Mof_C 	C 	0.54164	0.54164	0.3672	0.144
Mof_C 	C 	0.50598	0.50598	0.34451	-0.185
Mof_C 	C 	0.48656	0.48656	0.33266	0.455
Mof_C 	C 	0.70836	0.3672	0.70836	0.144
Mof_C 	C 	0.74402	0.34451	0.74402	-0.185
Mof_C 	C 	0.76344	0.33266	0.76344	0.455
Mof_C 	C 	0.70836	0.8672	0.20836	0.144
Mof_C 	C 	0.74402	0.84451	0.24402	-0.185
Mof_C 	C 	0.76344	0.83266	0.26344	0.455
Mof_C 	C 	0.20836	0.3672	0.20836	0.144
Mof_C 	C 	0.24402	0.34451	0.24402	-0.185
Mof_C 	C 	0.26344	0.33266	0.26344	0.455
Mof_C 	C 	0.20836	0.8672	0.70836	0.144
Mof_C 	C 	0.24402	0.84451	0.74402	-0.185
Mof_C 	C 	0.26344	0.83266	0.76344	0.455
Mof_C 	C 	0.20836	0.3828	0.54164	0.144
Mof_C 	C 	0.24402	0.40549	0.50598	-0.185
Mof_C 	C 	0.26344	0.41734	0.48656	0.455
Mof_C 	C 	0.70836	0.3828	0.04164	0.145
Mof_C 	C 	0.74402	0.40549	0.00598	-0.189
Mof_C 	C 	0.76344	0.41734	0.98656	0.457
Mof_C 	C 	0.54164	0.8672	0.04164	0.145
Mof_C 	C 	0.50598	0.84451	0.00598	-0.189
Mof_C 	C 	0.48656	0.83266	0.98656	0.457
Mof_C 	C 	0.54164	0.3672	0.54164	0.144
Mof_C 	C 	0.50598	0.34451	0.50598	-0.185
Mof_C 	C 	0.48656	0.33266	0.48656	0.455
Mof_C 	C 	0.04164	0.8828	0.20836	0.145
Mof_C 	C 	0.00598	0.90549	0.24402	-0.189
Mof_C 	C 	0.98656	0.91734	0.26344	0.457
Mof_C 	C 	0.04164	0.3828	0.70836	0.145
Mof_C 	C 	0.00598	0.40549	0.74402	-0.189
Mof_C 	C 	0.98656	0.41734	0.76344	0.457
Mof_C 	C 	0.54164	0.3828	0.20836	0.144
Mof_C 	C 	0.50598	0.40549	0.24402	-0.185
Mof_C 	C 	0.48656	0.41734	0.26344	0.455
Mof_C 	C 	0.20836	0.8828	0.04164	0.145
Mof_C 	C 	0.24402	0.90549	0.00598	-0.189
Mof_C 	C 	0.26344	0.91734	0.98656	0.457
Mof_C 	C 	0.70836	0.8828	0.54164	0.144
Mof_C 	C 	0.74402	0.90549	0.50598	-0.185
Mof_C 	C 	0.76344	0.91734	0.48656	0.455
Mof_C 	C 	0.04164	0.8672	0.54164	0.145
Mof_C 	C 	0.00598	0.84451	0.50598	-0.189
Mof_C 	C 	0.98656	0.83266	0.48656	0.457
Mof_C 	C 	0.04164	0.3672	0.04164	0.145
Mof_C 	C 	0.00598	0.34451	0.00598	-0.194
Mof_C 	C 	0.98656	0.33266	0.98656	0.46
Mof_C 	C 	0.54164	0.8828	0.70836	0.144
Mof_C 	C 	0.50598	0.90549	0.74402	-0.185
Mof_C 	C 	0.48656	0.91734	0.76344	0.455
Mof_C 	C 	0.04164	0.20836	0.8828	0.145
Mof_C 	C 	0.00598	0.24402	0.90549	-0.189
Mof_C 	C 	0.98656	0.26344	0.91734	0.457
Mof_C 	C 	0.04164	0.70836	0.3828	0.145
Mof_C 	C 	0.00598	0.74402	0.40549	-0.189
Mof_C 	C 	0.98656	0.76344	0.41734	0.457
Mof_C 	C 	0.54164	0.04164	0.8672	0.145
Mof_C 	C 	0.50598	0.00598	0.84451	-0.189
Mof_C 	C 	0.48656	0.98656	0.83266	0.457
Mof_C 	C 	0.70836	0.54164	0.8828	0.144
Mof_C 	C 	0.74402	0.50598	0.90549	-0.185
Mof_C 	C 	0.76344	0.48656	0.91734	0.455
Mof_C 	C 	0.8828	0.04164	0.20836	0.145
Mof_C 	C 	0.90549	0.00598	0.24402	-0.189
Mof_C 	C 	0.91734	0.98656	0.26344	0.457
Mof_C 	C 	0.8828	0.54164	0.70836	0.144
Mof_C 	C 	0.90549	0.50598	0.74402	-0.185
Mof_C 	C 	0.91734	0.48656	0.76344	0.455
Mof_C 	C 	0.8672	0.54164	0.04164	0.145
Mof_C 	C 	0.84451	0.50598	0.00598	-0.189
Mof_C 	C 	0.83266	0.48656	0.98656	0.457
Mof_C 	C 	0.3828	0.70836	0.04164	0.145
Mof_C 	C 	0.40549	0.74402	0.00598	-0.189
Mof_C 	C 	0.41734	0.76344	0.98656	0.457
Mof_C 	C 	0.1328	0.95836	0.45836	0.143
Mof_C 	C 	0.15549	0.99402	0.49402	-0.18
Mof_C 	C 	0.16734	0.01344	0.51344	0.452
Mof_C 	C 	0.1172	0.79164	0.95836	0.143
Mof_C 	C 	0.09451	0.75598	0.99402	-0.18
Mof_C 	C 	0.08266	0.73656	0.01344	0.452
Mof_C 	C 	0.1172	0.29164	0.45836	0.144
Mof_C 	C 	0.09451	0.25598	0.49402	-0.185
Mof_C 	C 	0.08266	0.23656	0.51344	0.455
Mof_C 	C 	0.6172	0.45836	0.79164	0.144
Mof_C 	C 	0.59451	0.49402	0.75598	-0.185
Mof_C 	C 	0.58266	0.51344	0.73656	0.455
Mof_C 	C 	0.6172	0.95836	0.29164	0.143
Mof_C 	C 	0.59451	0.99402	0.25598	-0.18
Mof_C 	C 	0.58266	0.01344	0.23656	0.452
Mof_C 	C 	0.45836	0.79164	0.6172	0.144
Mof_C 	C 	0.49402	0.75598	0.59451	-0.185
Mof_C 	C 	0.51344	0.73656	0.58266	0.455
Mof_C 	C 	0.45836	0.29164	0.1172	0.144
Mof_C 	C 	0.49402	0.25598	0.09451	-0.185
Mof_C 	C 	0.51344	0.23656	0.08266	0.455
Mof_C 	C 	0.79164	0.95836	0.1172	0.143
Mof_C 	C 	0.75598	0.99402	0.09451	-0.18
Mof_C 	C 	0.73656	0.01344	0.08266	0.452
Mof_C 	C 	0.29164	0.95836	0.6172	0.143
Mof_C 	C 	0.25598	0.99402	0.59451	-0.18
Mof_C 	C 	0.23656	0.01344	0.58266	0.452
Mof_C 	C 	0.95836	0.45836	0.1328	0.143
Mof_C 	C 	0.99402	0.49402	0.15549	-0.18
Mof_C 	C 	0.01344	0.51344	0.16734	0.452
Mof_C 	C 	0.79164	0.6172	0.45836	0.144
Mof_C 	C 	0.75598	0.59451	0.49402	-0.185
Mof_C 	C 	0.73656	0.58266	0.51344	0.455
Mof_C 	C 	0.29164	0.6172	0.95836	0.143
Mof_C 	C 	0.25598	0.59451	0.99402	-0.18
Mof_C 	C 	0.23656	0.58266	0.01344	0.452
Mof_C 	C 	0.45836	0.1328	0.95836	0.143
Mof_C 	C 	0.49402	0.15549	0.99402	-0.18
Mof_C 	C 	0.51344	0.16734	0.01344	0.452
Mof_C 	C 	0.45836	0.6328	0.45836	0.144
Mof_C 	C 	0.49402	0.65549	0.49402	-0.185
Mof_C 	C 	0.51344	0.66734	0.51344	0.455
Mof_C 	C 	0.95836	0.1172	0.79164	0.143
Mof_C 	C 	0.99402	0.09451	0.75598	-0.18
Mof_C 	C 	0.01344	0.08266	0.73656	0.452
Mof_C 	C 	0.95836	0.6172	0.29164	0.143
Mof_C 	C 	0.99402	0.59451	0.25598	-0.18
Mof_C 	C 	0.01344	0.58266	0.23656	0.452
Mof_C 	C 	0.59383	0.09383	0.06027	0.162
Mof_C 	C 	0.59383	0.59383	0.56027	0.162
Mof_C 	C 	0.15617	0.15617	0.56027	0.162
Mof_C 	C 	0.15617	0.65617	0.06027	0.162
Mof_C 	C 	0.65617	0.15617	0.06027	0.162
Mof_C 	C 	0.65617	0.65617	0.56027	0.162
Mof_C 	C 	0.65617	0.59383	0.68973	0.162
Mof_C 	C 	0.15617	0.59383	0.18973	0.162
Mof_C 	C 	0.09383	0.65617	0.18973	0.162
Mof_C 	C 	0.09383	0.15617	0.68973	0.162
Mof_C 	C 	0.06027	0.59383	0.09383	0.162
Mof_C 	C 	0.56027	0.59383	0.59383	0.162
Mof_C 	C 	0.56027	0.15617	0.15617	0.162
Mof_C 	C 	0.56027	0.65617	0.65617	0.162
Mof_C 	C 	0.06027	0.15617	0.65617	0.162
Mof_C 	C 	0.06027	0.65617	0.15617	0.162
Mof_C 	C 	0.68973	0.65617	0.59383	0.162
Mof_C 	C 	0.68973	0.15617	0.09383	0.162
Mof_C 	C 	0.18973	0.09383	0.65617	0.162
Mof_C 	C 	0.18973	0.59383	0.15617	0.162
Mof_C 	C 	0.09383	0.06027	0.59383	0.162
Mof_C 	C 	0.09383	0.56027	0.09383	0.162
Mof_C 	C 	0.15617	0.56027	0.15617	0.162
Mof_C 	C 	0.15617	0.06027	0.65617	0.162
Mof_C 	C 	0.65617	0.56027	0.65617	0.162
Mof_C 	C 	0.65617	0.06027	0.15617	0.162
Mof_C 	C 	0.59383	0.68973	0.65617	0.162
Mof_C 	C 	0.59383	0.18973	0.15617	0.162
Mof_C 	C 	0.65617	0.18973	0.09383	0.162
Mof_C 	C 	0.15617	0.18973	0.59383	0.162
Mof_C 	C 	0.84383	0.84383	0.43973	0.162
Mof_C 	C 	0.84383	0.34383	0.93973	0.162
Mof_C 	C 	0.34383	0.84383	0.93973	0.162
Mof_C 	C 	0.34383	0.34383	0.43973	0.162
Mof_C 	C 	0.90617	0.40617	0.93973	0.162
Mof_C 	C 	0.90617	0.90617	0.43973	0.162
Mof_C 	C 	0.34383	0.90617	0.81027	0.162
Mof_C 	C 	0.84383	0.90617	0.31027	0.162
Mof_C 	C 	0.40617	0.34383	0.31027	0.162
Mof_C 	C 	0.40617	0.84383	0.81027	0.162
Mof_C 	C 	0.34383	0.31027	0.40617	0.162
Mof_C 	C 	0.84383	0.31027	0.90617	0.162
Mof_C 	C 	0.90617	0.81027	0.34383	0.162
Mof_C 	C 	0.90617	0.31027	0.84383	0.162
Mof_C 	C 	0.40617	0.93973	0.90617	0.162
Mof_C 	C 	0.40617	0.43973	0.40617	0.162
Mof_C 	C 	0.84383	0.43973	0.84383	0.162
Mof_C 	C 	0.84383	0.93973	0.34383	0.162
Mof_C 	C 	0.34383	0.43973	0.34383	0.162
Mof_C 	C 	0.34383	0.93973	0.84383	0.162
Mof_C 	C 	0.81027	0.34383	0.90617	0.162
Mof_C 	C 	0.81027	0.84383	0.40617	0.162
Mof_C 	C 	0.31027	0.40617	0.34383	0.162
Mof_C 	C 	0.31027	0.90617	0.84383	0.162
Mof_C 	C 	0.43973	0.84383	0.84383	0.162
Mof_C 	C 	0.43973	0.34383	0.34383	0.162
Mof_C 	C 	0.93973	0.84383	0.34383	0.162
Mof_C 	C 	0.93973	0.34383	0.84383	0.162
Mof_C 	C 	0.93973	0.90617	0.40617	0.162
Mof_C 	C 	0.43973	0.90617	0.90617	0.162
Mof_C 	C 	0.40617	0.90617	0.93973	0.162
Mof_C 	C 	0.40617	0.40617	0.43973	0.162
Mof_C 	C 	0.34383	0.40617	0.31027	0.162
Mof_C 	C 	0.84383	0.40617	0.81027	0.162
Mof_C 	C 	0.90617	0.34383	0.81027	0.162
Mof_C 	C 	0.90617	0.84383	0.31027	0.162
Mof_C 	C 	0.93973	0.40617	0.90617	0.162
Mof_C 	C 	0.43973	0.40617	0.40617	0.162
Mof_C 	C 	0.31027	0.34383	0.40617	0.162
Mof_C 	C 	0.31027	0.84383	0.90617	0.162
Mof_C 	C 	0.81027	0.90617	0.34383	0.162
Mof_C 	C 	0.81027	0.40617	0.84383	0.162
Mof_C 	C 	0.90617	0.93973	0.40617	0.162
Mof_C 	C 	0.90617	0.43973	0.90617	0.162
Mof_C 	C 	0.40617	0.31027	0.34383	0.162
Mof_C 	C 	0.40617	0.81027	0.84383	0.162
Mof_C 	C 	0.34383	0.81027	0.90617	0.162
Mof_C 	C 	0.84383	0.81027	0.40617	0.162
Mof_C 	C 	0.09383	0.59383	0.06027	0.162
Mof_C 	C 	0.09383	0.09383	0.56027	0.162
Mof_C 	C 	0.65617	0.09383	0.18973	0.162
Mof_C 	C 	0.15617	0.09383	0.68973	0.162
Mof_C 	C 	0.59383	0.65617	0.68973	0.162
Mof_C 	C 	0.59383	0.15617	0.18973	0.162
Mof_C 	C 	0.65617	0.68973	0.59383	0.162
Mof_C 	C 	0.15617	0.68973	0.09383	0.162
Mof_C 	C 	0.09383	0.18973	0.65617	0.162
Mof_C 	C 	0.09383	0.68973	0.15617	0.162
Mof_C 	C 	0.59383	0.06027	0.09383	0.162
Mof_C 	C 	0.59383	0.56027	0.59383	0.162
Mof_C 	C 	0.18973	0.65617	0.09383	0.162
Mof_C 	C 	0.18973	0.15617	0.59383	0.162
Mof_C 	C 	0.68973	0.59383	0.65617	0.162
Mof_C 	C 	0.68973	0.09383	0.15617	0.162
Mof_C 	C 	0.06027	0.09383	0.59383	0.162
Mof_C 	C 	0.56027	0.09383	0.09383	0.162
_end
