data_functionalizedCrystal
_audit_creation_method	'EQeq! by Chris Wilmer'
_symmetry_space_group_name_H-M	'P1'
_symmetry_Int_Tables_number	1
_symmetry_cell_setting	triclinic
loop_
_symmetry_equiv_pos_as_xyz
  x,y,z
_cell_length_a	18.1568
_cell_length_b	18.1568
_cell_length_c	48.6603
_cell_angle_alpha	90
_cell_angle_beta	90
_cell_angle_gamma	120
loop_
_atom_site_label
_atom_site_type_symbol
_atom_site_fract_x
_atom_site_fract_y
_atom_site_fract_z
_atom_site_charge
Mof_Cu	Cu	0.5113	0.4471	0.52	0.933
Mof_C 	C 	0.6254	0.5456	0.4721	0.321
Mof_O 	O 	0.609	0.5138	0.4962	-0.391
Mof_O 	O 	0.5687	0.551	0.4585	-0.339
Mof_C 	C 	0.8051	0.639	0.4226	0.147
Mof_C 	C 	0.8676	0.629	0.4358	-0.112
Mof_H 	H 	0.9193	0.647	0.4274	0.082
Mof_C 	C 	0.8519	0.592	0.4617	-0.022
Mof_C 	C 	0.7738	0.564	0.4744	-0.039
Mof_H 	H 	0.7635	0.54	0.4915	0.077
Mof_C 	C 	0.7114	0.5741	0.4611	-0.023
Mof_C 	C 	0.7271	0.6112	0.4352	-0.12
Mof_H 	H 	0.6857	0.618	0.4264	0.108
Mof_C 	C 	0.9075	0.5679	0.4791	0.336
Mof_O 	O 	0.8766	0.531	0.5018	-0.404
Mof_O 	O 	0.9797	0.581	0.4712	-0.407
Mof_N 	N 	0.8404	0.6804	0.3968	-0.242
Mof_C 	C 	0.795	0.697	0.3789	0.232
Mof_O 	O 	0.719	0.669	0.3812	-0.245
Mof_H 	H 	0.8935	0.699	0.3924	0.127
Mof_C 	C 	0.8323	0.7297	0.3507	-0.063
Mof_C 	C 	0.7815	0.733	0.33	0.005
Mof_C 	C 	0.815	0.763	0.3041	-0.042
Mof_C 	C 	0.9	0.7895	0.2989	0.058
Mof_C 	C 	0.9512	0.786	0.3196	-0.057
Mof_C 	C 	0.9172	0.756	0.3455	-0.017
Mof_H 	H 	0.7253	0.716	0.3335	0.028
Mof_H 	H 	0.782	0.766	0.2904	0.045
Mof_H 	H 	0.0074	0.803	0.3161	0.043
Mof_H 	H 	0.9509	0.754	0.3592	0.021
Mof_C 	C 	0.9356	0.8205	0.272	-0.053
Mof_C 	C 	0.8988	0.7788	0.2458	0.04
Mof_N 	N 	0.932	0.8067	0.2209	-0.198
Mof_C 	C 	0.006	0.8793	0.2195	0.102
Mof_N 	N 	0.049	0.9262	0.2411	-0.121
Mof_C 	C 	0.0157	0.8983	0.266	0.039
Mof_H 	H 	0.0437	0.929	0.2814	0.023
Mof_H 	H 	0.031	0.9	0.2027	0.013
Mof_H 	H 	0.8479	0.7285	0.2455	0.03
Mof_C 	C 	0.7804	0.7005	0.3277	-0.014
Mof_C 	C 	0.814	0.73	0.3017	-0.061
Mof_C 	C 	0.9523	0.8187	0.322	-0.039
Mof_C 	C 	0.9183	0.7888	0.3479	0.004
Mof_H 	H 	0.7235	0.661	0.3295	0.042
Mof_H 	H 	0.78	0.711	0.2865	0.061
Mof_H 	H 	0.0092	0.858	0.3201	0.037
Mof_H 	H 	0.9527	0.808	0.3632	0.019
Mof_Cu	Cu	0.17797	0.78043	0.85333	0.934
Mof_C 	C 	0.29207	0.87893	0.80543	0.322
Mof_O 	O 	0.27567	0.84713	0.82953	-0.39
Mof_O 	O 	0.23537	0.88433	0.79183	-0.338
Mof_C 	C 	0.47177	0.97233	0.75593	0.149
Mof_C 	C 	0.53427	0.96233	0.76913	-0.112
Mof_H 	H 	0.58597	0.98033	0.76073	0.083
Mof_C 	C 	0.51857	0.92533	0.79503	-0.021
Mof_C 	C 	0.44047	0.89733	0.80773	-0.038
Mof_H 	H 	0.43017	0.87333	0.82483	0.078
Mof_C 	C 	0.37807	0.90743	0.79443	-0.022
Mof_C 	C 	0.39377	0.94453	0.76853	-0.119
Mof_H 	H 	0.35237	0.95133	0.75973	0.109
Mof_C 	C 	0.57417	0.90123	0.81243	0.337
Mof_O 	O 	0.54327	0.86433	0.83513	-0.403
Mof_O 	O 	0.64637	0.91433	0.80453	-0.406
Mof_N 	N 	0.50707	0.01373	0.73013	-0.242
Mof_C 	C 	0.46167	0.03033	0.71223	0.233
Mof_O 	O 	0.38567	0.00233	0.71453	-0.244
Mof_H 	H 	0.56017	0.03233	0.72573	0.128
Mof_C 	C 	0.49897	0.06303	0.68403	-0.063
Mof_C 	C 	0.44817	0.06633	0.66333	0.005
Mof_C 	C 	0.48167	0.09633	0.63743	-0.042
Mof_C 	C 	0.56667	0.12283	0.63223	0.06
Mof_C 	C 	0.61787	0.11933	0.65293	-0.057
Mof_C 	C 	0.58387	0.08933	0.67883	-0.015
Mof_H 	H 	0.39197	0.04933	0.66683	0.029
Mof_H 	H 	0.44867	0.09933	0.62373	0.047
Mof_H 	H 	0.67407	0.13633	0.64943	0.044
Mof_H 	H 	0.61757	0.08733	0.69253	0.021
Mof_C 	C 	0.60227	0.15383	0.60533	-0.052
Mof_C 	C 	0.56547	0.11213	0.57913	0.041
Mof_N 	N 	0.59867	0.14003	0.55423	-0.197
Mof_C 	C 	0.67267	0.21263	0.55283	0.104
Mof_N 	N 	0.71567	0.25953	0.57443	-0.121
Mof_C 	C 	0.68237	0.23163	0.59933	0.041
Mof_H 	H 	0.71037	0.26233	0.61473	0.024
Mof_H 	H 	0.69767	0.23333	0.53603	0.014
Mof_H 	H 	0.51457	0.06183	0.57883	0.031
Mof_C 	C 	0.44707	0.03383	0.66103	-0.012
Mof_C 	C 	0.48067	0.06333	0.63503	-0.061
Mof_C 	C 	0.61897	0.15203	0.65533	-0.04
Mof_C 	C 	0.58497	0.12213	0.68123	0.004
Mof_H 	H 	0.39017	0.99433	0.66283	0.042
Mof_H 	H 	0.44667	0.04433	0.61983	0.061
Mof_H 	H 	0.67587	0.19133	0.65343	0.037
Mof_H 	H 	0.61937	0.14133	0.69653	0.019
Mof_Cu	Cu	0.84463	0.11377	0.18667	0.934
Mof_C 	C 	0.95873	0.21227	0.13877	0.322
Mof_O 	O 	0.94233	0.18047	0.16287	-0.39
Mof_O 	O 	0.90203	0.21767	0.12517	-0.338
Mof_C 	C 	0.13843	0.30567	0.08927	0.148
Mof_C 	C 	0.20093	0.29567	0.10247	-0.111
Mof_H 	H 	0.25263	0.31367	0.09407	0.083
Mof_C 	C 	0.18523	0.25867	0.12837	-0.021
Mof_C 	C 	0.10713	0.23067	0.14107	-0.038
Mof_H 	H 	0.09683	0.20667	0.15817	0.078
Mof_C 	C 	0.04473	0.24077	0.12777	-0.022
Mof_C 	C 	0.06043	0.27787	0.10187	-0.119
Mof_H 	H 	0.01903	0.28467	0.09307	0.109
Mof_C 	C 	0.24083	0.23457	0.14577	0.337
Mof_O 	O 	0.20993	0.19767	0.16847	-0.403
Mof_O 	O 	0.31303	0.24767	0.13787	-0.407
Mof_N 	N 	0.17373	0.34707	0.06347	-0.241
Mof_C 	C 	0.12833	0.36367	0.04557	0.233
Mof_O 	O 	0.05233	0.33567	0.04787	-0.244
Mof_H 	H 	0.22683	0.36567	0.05907	0.128
Mof_C 	C 	0.16563	0.39637	0.01737	-0.063
Mof_C 	C 	0.11483	0.39967	0.99667	0.006
Mof_C 	C 	0.14833	0.42967	0.97077	-0.041
Mof_C 	C 	0.23333	0.45617	0.96557	0.06
Mof_C 	C 	0.28453	0.45267	0.98627	-0.057
Mof_C 	C 	0.25053	0.42267	0.01217	-0.015
Mof_H 	H 	0.05863	0.38267	0.00017	0.029
Mof_H 	H 	0.11533	0.43267	0.95707	0.046
Mof_H 	H 	0.34073	0.46967	0.98277	0.044
Mof_H 	H 	0.28423	0.42067	0.02587	0.021
Mof_C 	C 	0.26893	0.48717	0.93867	-0.052
Mof_C 	C 	0.23213	0.44547	0.91247	0.041
Mof_N 	N 	0.26533	0.47337	0.88757	-0.197
Mof_C 	C 	0.33933	0.54597	0.88617	0.104
Mof_N 	N 	0.38233	0.59287	0.90777	-0.121
Mof_C 	C 	0.34903	0.56497	0.93267	0.041
Mof_H 	H 	0.37703	0.59567	0.94807	0.024
Mof_H 	H 	0.36433	0.56667	0.86937	0.014
Mof_H 	H 	0.18123	0.39517	0.91217	0.031
Mof_C 	C 	0.11373	0.36717	0.99437	-0.013
Mof_C 	C 	0.14733	0.39667	0.96837	-0.061
Mof_C 	C 	0.28563	0.48537	0.98867	-0.04
Mof_C 	C 	0.25163	0.45547	0.01457	0.004
Mof_H 	H 	0.05683	0.32767	0.99617	0.042
Mof_H 	H 	0.11333	0.37767	0.95317	0.061
Mof_H 	H 	0.34253	0.52467	0.98677	0.037
Mof_H 	H 	0.28603	0.47467	0.02987	0.019
Mof_Cu	Cu	0.5529	0.0642	0.52	0.934
Mof_C 	C 	0.4544	0.0798	0.4721	0.322
Mof_O 	O 	0.4862	0.0952	0.4962	-0.39
Mof_O 	O 	0.449	0.0177	0.4585	-0.338
Mof_C 	C 	0.361	0.1661	0.4226	0.148
Mof_C 	C 	0.371	0.2386	0.4358	-0.111
Mof_H 	H 	0.353	0.2723	0.4274	0.083
Mof_C 	C 	0.408	0.2599	0.4617	-0.021
Mof_C 	C 	0.436	0.2098	0.4744	-0.038
Mof_H 	H 	0.46	0.2235	0.4915	0.078
Mof_C 	C 	0.4259	0.1373	0.4611	-0.022
Mof_C 	C 	0.3888	0.1159	0.4352	-0.119
Mof_H 	H 	0.382	0.0677	0.4264	0.109
Mof_C 	C 	0.4321	0.3396	0.4791	0.337
Mof_O 	O 	0.469	0.3456	0.5018	-0.403
Mof_O 	O 	0.419	0.3987	0.4712	-0.407
Mof_N 	N 	0.3196	0.16	0.3968	-0.241
Mof_C 	C 	0.303	0.098	0.3789	0.233
Mof_O 	O 	0.331	0.05	0.3812	-0.244
Mof_H 	H 	0.301	0.1945	0.3924	0.128
Mof_C 	C 	0.2703	0.1026	0.3507	-0.063
Mof_C 	C 	0.267	0.0485	0.33	0.006
Mof_C 	C 	0.237	0.052	0.3041	-0.041
Mof_C 	C 	0.2105	0.1105	0.2989	0.06
Mof_C 	C 	0.214	0.1652	0.3196	-0.057
Mof_C 	C 	0.244	0.1612	0.3455	-0.015
Mof_H 	H 	0.284	0.0093	0.3335	0.029
Mof_H 	H 	0.234	0.016	0.2904	0.047
Mof_H 	H 	0.197	0.2044	0.3161	0.044
Mof_H 	H 	0.246	0.1969	0.3592	0.021
Mof_C 	C 	0.1795	0.1151	0.272	-0.052
Mof_C 	C 	0.2212	0.12	0.2458	0.041
Mof_N 	N 	0.1933	0.1253	0.2209	-0.197
Mof_C 	C 	0.1207	0.1267	0.2195	0.104
Mof_N 	N 	0.0738	0.1228	0.2411	-0.121
Mof_C 	C 	0.1017	0.1174	0.266	0.041
Mof_H 	H 	0.071	0.1147	0.2814	0.024
Mof_H 	H 	0.1	0.131	0.2027	0.014
Mof_H 	H 	0.2715	0.1194	0.2455	0.031
Mof_C 	C 	0.2995	0.0799	0.3277	-0.013
Mof_C 	C 	0.27	0.084	0.3017	-0.061
Mof_C 	C 	0.1813	0.1336	0.322	-0.04
Mof_C 	C 	0.2112	0.1295	0.3479	0.004
Mof_H 	H 	0.339	0.0625	0.3295	0.042
Mof_H 	H 	0.289	0.069	0.2865	0.061
Mof_H 	H 	0.142	0.1512	0.3201	0.037
Mof_H 	H 	0.192	0.1447	0.3632	0.019
Mof_Cu	Cu	0.21957	0.39753	0.85333	0.934
Mof_C 	C 	0.12107	0.41313	0.80543	0.322
Mof_O 	O 	0.15287	0.42853	0.82953	-0.39
Mof_O 	O 	0.11567	0.35103	0.79183	-0.338
Mof_C 	C 	0.02767	0.49943	0.75593	0.149
Mof_C 	C 	0.03767	0.57193	0.76913	-0.112
Mof_H 	H 	0.01967	0.60563	0.76073	0.083
Mof_C 	C 	0.07467	0.59323	0.79503	-0.021
Mof_C 	C 	0.10267	0.54313	0.80773	-0.038
Mof_H 	H 	0.12667	0.55683	0.82483	0.078
Mof_C 	C 	0.09257	0.47063	0.79443	-0.022
Mof_C 	C 	0.05547	0.44923	0.76853	-0.119
Mof_H 	H 	0.04867	0.40103	0.75973	0.109
Mof_C 	C 	0.09877	0.67293	0.81243	0.337
Mof_O 	O 	0.13567	0.67893	0.83513	-0.403
Mof_O 	O 	0.08567	0.73203	0.80453	-0.406
Mof_N 	N 	0.98627	0.49333	0.73013	-0.242
Mof_C 	C 	0.96967	0.43133	0.71223	0.233
Mof_O 	O 	0.99767	0.38333	0.71453	-0.244
Mof_H 	H 	0.96767	0.52783	0.72573	0.128
Mof_C 	C 	0.93697	0.43593	0.68403	-0.063
Mof_C 	C 	0.93367	0.38183	0.66333	0.005
Mof_C 	C 	0.90367	0.38533	0.63743	-0.042
Mof_C 	C 	0.87717	0.44383	0.63223	0.06
Mof_C 	C 	0.88067	0.49853	0.65293	-0.057
Mof_C 	C 	0.91067	0.49453	0.67883	-0.015
Mof_H 	H 	0.95067	0.34263	0.66683	0.029
Mof_H 	H 	0.90067	0.34933	0.62373	0.047
Mof_H 	H 	0.86367	0.53773	0.64943	0.044
Mof_H 	H 	0.91267	0.53023	0.69253	0.021
Mof_C 	C 	0.84617	0.44843	0.60533	-0.052
Mof_C 	C 	0.88787	0.45333	0.57913	0.041
Mof_N 	N 	0.85997	0.45863	0.55423	-0.197
Mof_C 	C 	0.78737	0.46003	0.55283	0.104
Mof_N 	N 	0.74047	0.45613	0.57443	-0.121
Mof_C 	C 	0.76837	0.45073	0.59933	0.041
Mof_H 	H 	0.73767	0.44803	0.61473	0.024
Mof_H 	H 	0.76667	0.46433	0.53603	0.014
Mof_H 	H 	0.93817	0.45273	0.57883	0.031
Mof_C 	C 	0.96617	0.41323	0.66103	-0.012
Mof_C 	C 	0.93667	0.41733	0.63503	-0.061
Mof_C 	C 	0.84797	0.46693	0.65533	-0.04
Mof_C 	C 	0.87787	0.46283	0.68123	0.004
Mof_H 	H 	0.00567	0.39583	0.66283	0.042
Mof_H 	H 	0.95567	0.40233	0.61983	0.061
Mof_H 	H 	0.80867	0.48453	0.65343	0.037
Mof_H 	H 	0.85867	0.47803	0.69653	0.019
Mof_Cu	Cu	0.88623	0.73087	0.18667	0.934
Mof_C 	C 	0.78773	0.74647	0.13877	0.322
Mof_O 	O 	0.81953	0.76187	0.16287	-0.39
Mof_O 	O 	0.78233	0.68437	0.12517	-0.338
Mof_C 	C 	0.69433	0.83277	0.08927	0.148
Mof_C 	C 	0.70433	0.90527	0.10247	-0.111
Mof_H 	H 	0.68633	0.93897	0.09407	0.083
Mof_C 	C 	0.74133	0.92657	0.12837	-0.021
Mof_C 	C 	0.76933	0.87647	0.14107	-0.038
Mof_H 	H 	0.79333	0.89017	0.15817	0.078
Mof_C 	C 	0.75923	0.80397	0.12777	-0.022
Mof_C 	C 	0.72213	0.78257	0.10187	-0.119
Mof_H 	H 	0.71533	0.73437	0.09307	0.109
Mof_C 	C 	0.76543	0.00627	0.14577	0.337
Mof_O 	O 	0.80233	0.01227	0.16847	-0.403
Mof_O 	O 	0.75233	0.06537	0.13787	-0.407
Mof_N 	N 	0.65293	0.82667	0.06347	-0.241
Mof_C 	C 	0.63633	0.76467	0.04557	0.233
Mof_O 	O 	0.66433	0.71667	0.04787	-0.244
Mof_H 	H 	0.63433	0.86117	0.05907	0.128
Mof_C 	C 	0.60363	0.76927	0.01737	-0.063
Mof_C 	C 	0.60033	0.71517	0.99667	0.006
Mof_C 	C 	0.57033	0.71867	0.97077	-0.041
Mof_C 	C 	0.54383	0.77717	0.96557	0.06
Mof_C 	C 	0.54733	0.83187	0.98627	-0.057
Mof_C 	C 	0.57733	0.82787	0.01217	-0.015
Mof_H 	H 	0.61733	0.67597	0.00017	0.029
Mof_H 	H 	0.56733	0.68267	0.95707	0.046
Mof_H 	H 	0.53033	0.87107	0.98277	0.044
Mof_H 	H 	0.57933	0.86357	0.02587	0.021
Mof_C 	C 	0.51283	0.78177	0.93867	-0.052
Mof_C 	C 	0.55453	0.78667	0.91247	0.041
Mof_N 	N 	0.52663	0.79197	0.88757	-0.197
Mof_C 	C 	0.45403	0.79337	0.88617	0.104
Mof_N 	N 	0.40713	0.78947	0.90777	-0.121
Mof_C 	C 	0.43503	0.78407	0.93267	0.041
Mof_H 	H 	0.40433	0.78137	0.94807	0.024
Mof_H 	H 	0.43333	0.79767	0.86937	0.014
Mof_H 	H 	0.60483	0.78607	0.91217	0.031
Mof_C 	C 	0.63283	0.74657	0.99437	-0.013
Mof_C 	C 	0.60333	0.75067	0.96837	-0.061
Mof_C 	C 	0.51463	0.80027	0.98867	-0.04
Mof_C 	C 	0.54453	0.79617	0.01457	0.004
Mof_H 	H 	0.67233	0.72917	0.99617	0.042
Mof_H 	H 	0.62233	0.73567	0.95317	0.061
Mof_H 	H 	0.47533	0.81787	0.98677	0.037
Mof_H 	H 	0.52533	0.81137	0.02987	0.019
Mof_Cu	Cu	0.9358	0.4887	0.52	0.934
Mof_C 	C 	0.9202	0.3746	0.4721	0.322
Mof_O 	O 	0.9048	0.391	0.4962	-0.39
Mof_O 	O 	0.9823	0.4313	0.4585	-0.338
Mof_C 	C 	0.8339	0.1949	0.4226	0.148
Mof_C 	C 	0.7614	0.1324	0.4358	-0.112
Mof_H 	H 	0.7277	0.0807	0.4274	0.083
Mof_C 	C 	0.7401	0.1481	0.4617	-0.021
Mof_C 	C 	0.7902	0.2262	0.4744	-0.038
Mof_H 	H 	0.7765	0.2365	0.4915	0.078
Mof_C 	C 	0.8627	0.2886	0.4611	-0.022
Mof_C 	C 	0.8841	0.2729	0.4352	-0.119
Mof_H 	H 	0.9323	0.3143	0.4264	0.109
Mof_C 	C 	0.6604	0.0925	0.4791	0.337
Mof_O 	O 	0.6544	0.1234	0.5018	-0.403
Mof_O 	O 	0.6013	0.0203	0.4712	-0.407
Mof_N 	N 	0.84	0.1596	0.3968	-0.241
Mof_C 	C 	0.902	0.205	0.3789	0.233
Mof_O 	O 	0.95	0.281	0.3812	-0.244
Mof_H 	H 	0.8055	0.1065	0.3924	0.128
Mof_C 	C 	0.8974	0.1677	0.3507	-0.062
Mof_C 	C 	0.9515	0.2185	0.33	0.006
Mof_C 	C 	0.948	0.185	0.3041	-0.041
Mof_C 	C 	0.8895	0.1	0.2989	0.059
Mof_C 	C 	0.8348	0.0488	0.3196	-0.056
Mof_C 	C 	0.8388	0.0828	0.3455	-0.016
Mof_H 	H 	0.9907	0.2747	0.3335	0.029
Mof_H 	H 	0.984	0.218	0.2904	0.047
Mof_H 	H 	0.7956	0.9926	0.3161	0.044
Mof_H 	H 	0.8031	0.0491	0.3592	0.022
Mof_C 	C 	0.8849	0.0644	0.272	-0.052
Mof_C 	C 	0.88	0.1012	0.2458	0.041
Mof_N 	N 	0.8747	0.068	0.2209	-0.197
Mof_C 	C 	0.8733	0.994	0.2195	0.103
Mof_N 	N 	0.8772	0.951	0.2411	-0.12
Mof_C 	C 	0.8826	0.9843	0.266	0.04
Mof_H 	H 	0.8853	0.9563	0.2814	0.024
Mof_H 	H 	0.869	0.969	0.2027	0.014
Mof_H 	H 	0.8806	0.1521	0.2455	0.031
Mof_C 	C 	0.9201	0.2196	0.3277	-0.013
Mof_C 	C 	0.916	0.186	0.3017	-0.061
Mof_C 	C 	0.8664	0.0477	0.322	-0.039
Mof_C 	C 	0.8705	0.0817	0.3479	0.004
Mof_H 	H 	0.9375	0.2765	0.3295	0.042
Mof_H 	H 	0.931	0.22	0.2865	0.061
Mof_H 	H 	0.8488	0.9908	0.3201	0.037
Mof_H 	H 	0.8553	0.0473	0.3632	0.019
Mof_Cu	Cu	0.60247	0.82203	0.85333	0.934
Mof_C 	C 	0.58687	0.70793	0.80543	0.322
Mof_O 	O 	0.57147	0.72433	0.82953	-0.39
Mof_O 	O 	0.64897	0.76463	0.79183	-0.338
Mof_C 	C 	0.50057	0.52823	0.75593	0.148
Mof_C 	C 	0.42807	0.46573	0.76913	-0.111
Mof_H 	H 	0.39437	0.41403	0.76073	0.083
Mof_C 	C 	0.40677	0.48143	0.79503	-0.021
Mof_C 	C 	0.45687	0.55953	0.80773	-0.038
Mof_H 	H 	0.44317	0.56983	0.82483	0.078
Mof_C 	C 	0.52937	0.62193	0.79443	-0.022
Mof_C 	C 	0.55077	0.60623	0.76853	-0.119
Mof_H 	H 	0.59897	0.64763	0.75973	0.109
Mof_C 	C 	0.32707	0.42583	0.81243	0.337
Mof_O 	O 	0.32107	0.45673	0.83513	-0.403
Mof_O 	O 	0.26797	0.35363	0.80453	-0.407
Mof_N 	N 	0.50667	0.49293	0.73013	-0.241
Mof_C 	C 	0.56867	0.53833	0.71223	0.233
Mof_O 	O 	0.61667	0.61433	0.71453	-0.244
Mof_H 	H 	0.47217	0.43983	0.72573	0.128
Mof_C 	C 	0.56407	0.50103	0.68403	-0.063
Mof_C 	C 	0.61817	0.55183	0.66333	0.006
Mof_C 	C 	0.61467	0.51833	0.63743	-0.041
Mof_C 	C 	0.55617	0.43333	0.63223	0.06
Mof_C 	C 	0.50147	0.38213	0.65293	-0.057
Mof_C 	C 	0.50547	0.41613	0.67883	-0.015
Mof_H 	H 	0.65737	0.60803	0.66683	0.029
Mof_H 	H 	0.65067	0.55133	0.62373	0.046
Mof_H 	H 	0.46227	0.32593	0.64943	0.044
Mof_H 	H 	0.46977	0.38243	0.69253	0.021
Mof_C 	C 	0.55157	0.39773	0.60533	-0.052
Mof_C 	C 	0.54667	0.43453	0.57913	0.041
Mof_N 	N 	0.54137	0.40133	0.55423	-0.197
Mof_C 	C 	0.53997	0.32733	0.55283	0.104
Mof_N 	N 	0.54387	0.28433	0.57443	-0.121
Mof_C 	C 	0.54927	0.31763	0.59933	0.041
Mof_H 	H 	0.55197	0.28963	0.61473	0.024
Mof_H 	H 	0.53567	0.30233	0.53603	0.014
Mof_H 	H 	0.54727	0.48543	0.57883	0.031
Mof_C 	C 	0.58677	0.55293	0.66103	-0.013
Mof_C 	C 	0.58267	0.51933	0.63503	-0.061
Mof_C 	C 	0.53307	0.38103	0.65533	-0.04
Mof_C 	C 	0.53717	0.41503	0.68123	0.004
Mof_H 	H 	0.60417	0.60983	0.66283	0.042
Mof_H 	H 	0.59767	0.55333	0.61983	0.061
Mof_H 	H 	0.51547	0.32413	0.65343	0.037
Mof_H 	H 	0.52197	0.38063	0.69653	0.019
Mof_Cu	Cu	0.26913	0.15537	0.18667	0.934
Mof_C 	C 	0.25353	0.04127	0.13877	0.322
Mof_O 	O 	0.23813	0.05767	0.16287	-0.39
Mof_O 	O 	0.31563	0.09797	0.12517	-0.338
Mof_C 	C 	0.16723	0.86157	0.08927	0.148
Mof_C 	C 	0.09473	0.79907	0.10247	-0.111
Mof_H 	H 	0.06103	0.74737	0.09407	0.083
Mof_C 	C 	0.07343	0.81477	0.12837	-0.022
Mof_C 	C 	0.12353	0.89287	0.14107	-0.038
Mof_H 	H 	0.10983	0.90317	0.15817	0.078
Mof_C 	C 	0.19603	0.95527	0.12777	-0.023
Mof_C 	C 	0.21743	0.93957	0.10187	-0.119
Mof_H 	H 	0.26563	0.98097	0.09307	0.108
Mof_C 	C 	0.99373	0.75917	0.14577	0.337
Mof_O 	O 	0.98773	0.79007	0.16847	-0.403
Mof_O 	O 	0.93463	0.68697	0.13787	-0.407
Mof_N 	N 	0.17333	0.82627	0.06347	-0.241
Mof_C 	C 	0.23533	0.87167	0.04557	0.233
Mof_O 	O 	0.28333	0.94767	0.04787	-0.244
Mof_H 	H 	0.13883	0.77317	0.05907	0.128
Mof_C 	C 	0.23073	0.83437	0.01737	-0.063
Mof_C 	C 	0.28483	0.88517	0.99667	0.006
Mof_C 	C 	0.28133	0.85167	0.97077	-0.041
Mof_C 	C 	0.22283	0.76667	0.96557	0.06
Mof_C 	C 	0.16813	0.71547	0.98627	-0.057
Mof_C 	C 	0.17213	0.74947	0.01217	-0.015
Mof_H 	H 	0.32403	0.94137	0.00017	0.029
Mof_H 	H 	0.31733	0.88467	0.95707	0.047
Mof_H 	H 	0.12893	0.65927	0.98277	0.044
Mof_H 	H 	0.13643	0.71577	0.02587	0.021
Mof_C 	C 	0.21823	0.73107	0.93867	-0.052
Mof_C 	C 	0.21333	0.76787	0.91247	0.041
Mof_N 	N 	0.20803	0.73467	0.88757	-0.197
Mof_C 	C 	0.20663	0.66067	0.88617	0.104
Mof_N 	N 	0.21053	0.61767	0.90777	-0.121
Mof_C 	C 	0.21593	0.65097	0.93267	0.041
Mof_H 	H 	0.21863	0.62297	0.94807	0.024
Mof_H 	H 	0.20233	0.63567	0.86937	0.014
Mof_H 	H 	0.21393	0.81877	0.91217	0.031
Mof_C 	C 	0.25343	0.88627	0.99437	-0.013
Mof_C 	C 	0.24933	0.85267	0.96837	-0.061
Mof_C 	C 	0.19973	0.71437	0.98867	-0.04
Mof_C 	C 	0.20383	0.74837	0.01457	0.004
Mof_H 	H 	0.27083	0.94317	0.99617	0.042
Mof_H 	H 	0.26433	0.88667	0.95317	0.061
Mof_H 	H 	0.18213	0.65747	0.98677	0.037
Mof_H 	H 	0.18863	0.71397	0.02987	0.019
Mof_Cu	Cu	0.4471	0.5113	0.48	0.934
Mof_C 	C 	0.5456	0.6254	0.5279	0.322
Mof_O 	O 	0.5138	0.609	0.5038	-0.39
Mof_O 	O 	0.551	0.5687	0.5415	-0.338
Mof_C 	C 	0.639	0.8051	0.5774	0.148
Mof_C 	C 	0.629	0.8676	0.5642	-0.111
Mof_H 	H 	0.647	0.9193	0.5726	0.083
Mof_C 	C 	0.592	0.8519	0.5383	-0.021
Mof_C 	C 	0.564	0.7738	0.5256	-0.038
Mof_H 	H 	0.54	0.7635	0.5085	0.078
Mof_C 	C 	0.5741	0.7114	0.5389	-0.022
Mof_C 	C 	0.6112	0.7271	0.5648	-0.119
Mof_H 	H 	0.618	0.6857	0.5736	0.109
Mof_C 	C 	0.5679	0.9075	0.5209	0.337
Mof_O 	O 	0.531	0.8766	0.4982	-0.403
Mof_O 	O 	0.581	0.9797	0.5288	-0.406
Mof_N 	N 	0.6804	0.8404	0.6032	-0.241
Mof_C 	C 	0.697	0.795	0.6211	0.233
Mof_O 	O 	0.669	0.719	0.6188	-0.244
Mof_H 	H 	0.699	0.8935	0.6076	0.128
Mof_C 	C 	0.7297	0.8323	0.6493	-0.062
Mof_C 	C 	0.733	0.7815	0.67	0.006
Mof_C 	C 	0.763	0.815	0.6959	-0.041
Mof_C 	C 	0.7895	0.9	0.7011	0.059
Mof_C 	C 	0.786	0.9512	0.6804	-0.056
Mof_C 	C 	0.756	0.9172	0.6545	-0.016
Mof_H 	H 	0.716	0.7253	0.6665	0.029
Mof_H 	H 	0.766	0.782	0.7096	0.046
Mof_H 	H 	0.803	0.0074	0.6839	0.044
Mof_H 	H 	0.754	0.9509	0.6408	0.022
Mof_C 	C 	0.8205	0.9356	0.728	-0.052
Mof_C 	C 	0.7788	0.8988	0.7542	0.041
Mof_N 	N 	0.8067	0.932	0.7791	-0.197
Mof_C 	C 	0.8793	0.006	0.7805	0.103
Mof_N 	N 	0.9262	0.049	0.7589	-0.12
Mof_C 	C 	0.8983	0.0157	0.734	0.04
Mof_H 	H 	0.929	0.0437	0.7186	0.024
Mof_H 	H 	0.9	0.031	0.7973	0.014
Mof_H 	H 	0.7285	0.8479	0.7545	0.031
Mof_C 	C 	0.7005	0.7804	0.6723	-0.013
Mof_C 	C 	0.73	0.814	0.6983	-0.061
Mof_C 	C 	0.8187	0.9523	0.678	-0.039
Mof_C 	C 	0.7888	0.9183	0.6521	0.004
Mof_H 	H 	0.661	0.7235	0.6705	0.042
Mof_H 	H 	0.711	0.78	0.7135	0.061
Mof_H 	H 	0.858	0.0092	0.6799	0.037
Mof_H 	H 	0.808	0.9527	0.6368	0.019
Mof_Cu	Cu	0.11377	0.84463	0.81333	0.934
Mof_C 	C 	0.21227	0.95873	0.86123	0.322
Mof_O 	O 	0.18047	0.94233	0.83713	-0.39
Mof_O 	O 	0.21767	0.90203	0.87483	-0.338
Mof_C 	C 	0.30567	0.13843	0.91073	0.148
Mof_C 	C 	0.29567	0.20093	0.89753	-0.111
Mof_H 	H 	0.31367	0.25263	0.90593	0.083
Mof_C 	C 	0.25867	0.18523	0.87163	-0.021
Mof_C 	C 	0.23067	0.10713	0.85893	-0.038
Mof_H 	H 	0.20667	0.09683	0.84183	0.078
Mof_C 	C 	0.24077	0.04473	0.87223	-0.022
Mof_C 	C 	0.27787	0.06043	0.89813	-0.119
Mof_H 	H 	0.28467	0.01903	0.90693	0.109
Mof_C 	C 	0.23457	0.24083	0.85423	0.337
Mof_O 	O 	0.19767	0.20993	0.83153	-0.403
Mof_O 	O 	0.24767	0.31303	0.86213	-0.407
Mof_N 	N 	0.34707	0.17373	0.93653	-0.241
Mof_C 	C 	0.36367	0.12833	0.95443	0.233
Mof_O 	O 	0.33567	0.05233	0.95213	-0.244
Mof_H 	H 	0.36567	0.22683	0.94093	0.128
Mof_C 	C 	0.39637	0.16563	0.98263	-0.063
Mof_C 	C 	0.39967	0.11483	0.00333	0.006
Mof_C 	C 	0.42967	0.14833	0.02923	-0.041
Mof_C 	C 	0.45617	0.23333	0.03443	0.06
Mof_C 	C 	0.45267	0.28453	0.01373	-0.057
Mof_C 	C 	0.42267	0.25053	0.98783	-0.015
Mof_H 	H 	0.38267	0.05863	0.99983	0.029
Mof_H 	H 	0.43267	0.11533	0.04293	0.046
Mof_H 	H 	0.46967	0.34073	0.01723	0.044
Mof_H 	H 	0.42067	0.28423	0.97413	0.021
Mof_C 	C 	0.48717	0.26893	0.06133	-0.052
Mof_C 	C 	0.44547	0.23213	0.08753	0.041
Mof_N 	N 	0.47337	0.26533	0.11243	-0.197
Mof_C 	C 	0.54597	0.33933	0.11383	0.104
Mof_N 	N 	0.59287	0.38233	0.09223	-0.121
Mof_C 	C 	0.56497	0.34903	0.06733	0.041
Mof_H 	H 	0.59567	0.37703	0.05193	0.024
Mof_H 	H 	0.56667	0.36433	0.13063	0.014
Mof_H 	H 	0.39517	0.18123	0.08783	0.031
Mof_C 	C 	0.36717	0.11373	0.00563	-0.013
Mof_C 	C 	0.39667	0.14733	0.03163	-0.061
Mof_C 	C 	0.48537	0.28563	0.01133	-0.04
Mof_C 	C 	0.45547	0.25163	0.98543	0.004
Mof_H 	H 	0.32767	0.05683	0.00383	0.042
Mof_H 	H 	0.37767	0.11333	0.04683	0.061
Mof_H 	H 	0.52467	0.34253	0.01323	0.037
Mof_H 	H 	0.47467	0.28603	0.97013	0.019
Mof_Cu	Cu	0.78043	0.17797	0.14667	0.934
Mof_C 	C 	0.87893	0.29207	0.19457	0.322
Mof_O 	O 	0.84713	0.27567	0.17047	-0.39
Mof_O 	O 	0.88433	0.23537	0.20817	-0.338
Mof_C 	C 	0.97233	0.47177	0.24407	0.149
Mof_C 	C 	0.96233	0.53427	0.23087	-0.112
Mof_H 	H 	0.98033	0.58597	0.23927	0.083
Mof_C 	C 	0.92533	0.51857	0.20497	-0.021
Mof_C 	C 	0.89733	0.44047	0.19227	-0.038
Mof_H 	H 	0.87333	0.43017	0.17517	0.078
Mof_C 	C 	0.90743	0.37807	0.20557	-0.022
Mof_C 	C 	0.94453	0.39377	0.23147	-0.119
Mof_H 	H 	0.95133	0.35237	0.24027	0.109
Mof_C 	C 	0.90123	0.57417	0.18757	0.337
Mof_O 	O 	0.86433	0.54327	0.16487	-0.403
Mof_O 	O 	0.91433	0.64637	0.19547	-0.406
Mof_N 	N 	0.01373	0.50707	0.26987	-0.242
Mof_C 	C 	0.03033	0.46167	0.28777	0.233
Mof_O 	O 	0.00233	0.38567	0.28547	-0.244
Mof_H 	H 	0.03233	0.56017	0.27427	0.128
Mof_C 	C 	0.06303	0.49897	0.31597	-0.063
Mof_C 	C 	0.06633	0.44817	0.33667	0.005
Mof_C 	C 	0.09633	0.48167	0.36257	-0.042
Mof_C 	C 	0.12283	0.56667	0.36777	0.06
Mof_C 	C 	0.11933	0.61787	0.34707	-0.057
Mof_C 	C 	0.08933	0.58387	0.32117	-0.015
Mof_H 	H 	0.04933	0.39197	0.33317	0.029
Mof_H 	H 	0.09933	0.44867	0.37627	0.047
Mof_H 	H 	0.13633	0.67407	0.35057	0.044
Mof_H 	H 	0.08733	0.61757	0.30747	0.021
Mof_C 	C 	0.15383	0.60227	0.39467	-0.052
Mof_C 	C 	0.11213	0.56547	0.42087	0.041
Mof_N 	N 	0.14003	0.59867	0.44577	-0.197
Mof_C 	C 	0.21263	0.67267	0.44717	0.104
Mof_N 	N 	0.25953	0.71567	0.42557	-0.121
Mof_C 	C 	0.23163	0.68237	0.40067	0.041
Mof_H 	H 	0.26233	0.71037	0.38527	0.024
Mof_H 	H 	0.23333	0.69767	0.46397	0.014
Mof_H 	H 	0.06183	0.51457	0.42117	0.031
Mof_C 	C 	0.03383	0.44707	0.33897	-0.012
Mof_C 	C 	0.06333	0.48067	0.36497	-0.061
Mof_C 	C 	0.15203	0.61897	0.34467	-0.04
Mof_C 	C 	0.12213	0.58497	0.31877	0.004
Mof_H 	H 	0.99433	0.39017	0.33717	0.042
Mof_H 	H 	0.04433	0.44667	0.38017	0.061
Mof_H 	H 	0.19133	0.67587	0.34657	0.037
Mof_H 	H 	0.14133	0.61937	0.30347	0.019
Mof_Cu	Cu	0.0642	0.5529	0.48	0.934
Mof_C 	C 	0.0798	0.4544	0.5279	0.322
Mof_O 	O 	0.0952	0.4862	0.5038	-0.39
Mof_O 	O 	0.0177	0.449	0.5415	-0.338
Mof_C 	C 	0.1661	0.361	0.5774	0.148
Mof_C 	C 	0.2386	0.371	0.5642	-0.111
Mof_H 	H 	0.2723	0.353	0.5726	0.083
Mof_C 	C 	0.2599	0.408	0.5383	-0.021
Mof_C 	C 	0.2098	0.436	0.5256	-0.038
Mof_H 	H 	0.2235	0.46	0.5085	0.078
Mof_C 	C 	0.1373	0.4259	0.5389	-0.022
Mof_C 	C 	0.1159	0.3888	0.5648	-0.119
Mof_H 	H 	0.0677	0.382	0.5736	0.109
Mof_C 	C 	0.3396	0.4321	0.5209	0.337
Mof_O 	O 	0.3456	0.469	0.4982	-0.403
Mof_O 	O 	0.3987	0.419	0.5288	-0.407
Mof_N 	N 	0.16	0.3196	0.6032	-0.241
Mof_C 	C 	0.098	0.303	0.6211	0.233
Mof_O 	O 	0.05	0.331	0.6188	-0.244
Mof_H 	H 	0.1945	0.301	0.6076	0.128
Mof_C 	C 	0.1026	0.2703	0.6493	-0.063
Mof_C 	C 	0.0485	0.267	0.67	0.006
Mof_C 	C 	0.052	0.237	0.6959	-0.041
Mof_C 	C 	0.1105	0.2105	0.7011	0.06
Mof_C 	C 	0.1652	0.214	0.6804	-0.057
Mof_C 	C 	0.1612	0.244	0.6545	-0.015
Mof_H 	H 	0.0093	0.284	0.6665	0.029
Mof_H 	H 	0.016	0.234	0.7096	0.047
Mof_H 	H 	0.2044	0.197	0.6839	0.044
Mof_H 	H 	0.1969	0.246	0.6408	0.021
Mof_C 	C 	0.1151	0.1795	0.728	-0.052
Mof_C 	C 	0.12	0.2212	0.7542	0.041
Mof_N 	N 	0.1253	0.1933	0.7791	-0.197
Mof_C 	C 	0.1267	0.1207	0.7805	0.104
Mof_N 	N 	0.1228	0.0738	0.7589	-0.121
Mof_C 	C 	0.1174	0.1017	0.734	0.041
Mof_H 	H 	0.1147	0.071	0.7186	0.024
Mof_H 	H 	0.131	0.1	0.7973	0.014
Mof_H 	H 	0.1194	0.2715	0.7545	0.031
Mof_C 	C 	0.0799	0.2995	0.6723	-0.013
Mof_C 	C 	0.084	0.27	0.6983	-0.061
Mof_C 	C 	0.1336	0.1813	0.678	-0.04
Mof_C 	C 	0.1295	0.2112	0.6521	0.004
Mof_H 	H 	0.0625	0.339	0.6705	0.042
Mof_H 	H 	0.069	0.289	0.7135	0.061
Mof_H 	H 	0.1512	0.142	0.6799	0.037
Mof_H 	H 	0.1447	0.192	0.6368	0.019
Mof_Cu	Cu	0.73087	0.88623	0.81333	0.934
Mof_C 	C 	0.74647	0.78773	0.86123	0.322
Mof_O 	O 	0.76187	0.81953	0.83713	-0.39
Mof_O 	O 	0.68437	0.78233	0.87483	-0.338
Mof_C 	C 	0.83277	0.69433	0.91073	0.148
Mof_C 	C 	0.90527	0.70433	0.89753	-0.111
Mof_H 	H 	0.93897	0.68633	0.90593	0.083
Mof_C 	C 	0.92657	0.74133	0.87163	-0.021
Mof_C 	C 	0.87647	0.76933	0.85893	-0.038
Mof_H 	H 	0.89017	0.79333	0.84183	0.078
Mof_C 	C 	0.80397	0.75923	0.87223	-0.022
Mof_C 	C 	0.78257	0.72213	0.89813	-0.119
Mof_H 	H 	0.73437	0.71533	0.90693	0.109
Mof_C 	C 	0.00627	0.76543	0.85423	0.337
Mof_O 	O 	0.01227	0.80233	0.83153	-0.403
Mof_O 	O 	0.06537	0.75233	0.86213	-0.407
Mof_N 	N 	0.82667	0.65293	0.93653	-0.241
Mof_C 	C 	0.76467	0.63633	0.95443	0.233
Mof_O 	O 	0.71667	0.66433	0.95213	-0.244
Mof_H 	H 	0.86117	0.63433	0.94093	0.128
Mof_C 	C 	0.76927	0.60363	0.98263	-0.063
Mof_C 	C 	0.71517	0.60033	0.00333	0.006
Mof_C 	C 	0.71867	0.57033	0.02923	-0.041
Mof_C 	C 	0.77717	0.54383	0.03443	0.06
Mof_C 	C 	0.83187	0.54733	0.01373	-0.057
Mof_C 	C 	0.82787	0.57733	0.98783	-0.015
Mof_H 	H 	0.67597	0.61733	0.99983	0.029
Mof_H 	H 	0.68267	0.56733	0.04293	0.046
Mof_H 	H 	0.87107	0.53033	0.01723	0.044
Mof_H 	H 	0.86357	0.57933	0.97413	0.021
Mof_C 	C 	0.78177	0.51283	0.06133	-0.052
Mof_C 	C 	0.78667	0.55453	0.08753	0.041
Mof_N 	N 	0.79197	0.52663	0.11243	-0.197
Mof_C 	C 	0.79337	0.45403	0.11383	0.104
Mof_N 	N 	0.78947	0.40713	0.09223	-0.121
Mof_C 	C 	0.78407	0.43503	0.06733	0.041
Mof_H 	H 	0.78137	0.40433	0.05193	0.024
Mof_H 	H 	0.79767	0.43333	0.13063	0.014
Mof_H 	H 	0.78607	0.60483	0.08783	0.031
Mof_C 	C 	0.74657	0.63283	0.00563	-0.013
Mof_C 	C 	0.75067	0.60333	0.03163	-0.061
Mof_C 	C 	0.80027	0.51463	0.01133	-0.04
Mof_C 	C 	0.79617	0.54453	0.98543	0.004
Mof_H 	H 	0.72917	0.67233	0.00383	0.042
Mof_H 	H 	0.73567	0.62233	0.04683	0.061
Mof_H 	H 	0.81787	0.47533	0.01323	0.037
Mof_H 	H 	0.81137	0.52533	0.97013	0.019
Mof_Cu	Cu	0.39753	0.21957	0.14667	0.934
Mof_C 	C 	0.41313	0.12107	0.19457	0.322
Mof_O 	O 	0.42853	0.15287	0.17047	-0.39
Mof_O 	O 	0.35103	0.11567	0.20817	-0.338
Mof_C 	C 	0.49943	0.02767	0.24407	0.149
Mof_C 	C 	0.57193	0.03767	0.23087	-0.112
Mof_H 	H 	0.60563	0.01967	0.23927	0.083
Mof_C 	C 	0.59323	0.07467	0.20497	-0.021
Mof_C 	C 	0.54313	0.10267	0.19227	-0.038
Mof_H 	H 	0.55683	0.12667	0.17517	0.078
Mof_C 	C 	0.47063	0.09257	0.20557	-0.022
Mof_C 	C 	0.44923	0.05547	0.23147	-0.119
Mof_H 	H 	0.40103	0.04867	0.24027	0.109
Mof_C 	C 	0.67293	0.09877	0.18757	0.337
Mof_O 	O 	0.67893	0.13567	0.16487	-0.403
Mof_O 	O 	0.73203	0.08567	0.19547	-0.406
Mof_N 	N 	0.49333	0.98627	0.26987	-0.242
Mof_C 	C 	0.43133	0.96967	0.28777	0.233
Mof_O 	O 	0.38333	0.99767	0.28547	-0.244
Mof_H 	H 	0.52783	0.96767	0.27427	0.128
Mof_C 	C 	0.43593	0.93697	0.31597	-0.063
Mof_C 	C 	0.38183	0.93367	0.33667	0.005
Mof_C 	C 	0.38533	0.90367	0.36257	-0.042
Mof_C 	C 	0.44383	0.87717	0.36777	0.06
Mof_C 	C 	0.49853	0.88067	0.34707	-0.057
Mof_C 	C 	0.49453	0.91067	0.32117	-0.015
Mof_H 	H 	0.34263	0.95067	0.33317	0.029
Mof_H 	H 	0.34933	0.90067	0.37627	0.047
Mof_H 	H 	0.53773	0.86367	0.35057	0.044
Mof_H 	H 	0.53023	0.91267	0.30747	0.021
Mof_C 	C 	0.44843	0.84617	0.39467	-0.052
Mof_C 	C 	0.45333	0.88787	0.42087	0.041
Mof_N 	N 	0.45863	0.85997	0.44577	-0.197
Mof_C 	C 	0.46003	0.78737	0.44717	0.104
Mof_N 	N 	0.45613	0.74047	0.42557	-0.121
Mof_C 	C 	0.45073	0.76837	0.40067	0.041
Mof_H 	H 	0.44803	0.73767	0.38527	0.024
Mof_H 	H 	0.46433	0.76667	0.46397	0.014
Mof_H 	H 	0.45273	0.93817	0.42117	0.031
Mof_C 	C 	0.41323	0.96617	0.33897	-0.012
Mof_C 	C 	0.41733	0.93667	0.36497	-0.061
Mof_C 	C 	0.46693	0.84797	0.34467	-0.04
Mof_C 	C 	0.46283	0.87787	0.31877	0.004
Mof_H 	H 	0.39583	0.00567	0.33717	0.042
Mof_H 	H 	0.40233	0.95567	0.38017	0.061
Mof_H 	H 	0.48453	0.80867	0.34657	0.037
Mof_H 	H 	0.47803	0.85867	0.30347	0.019
Mof_Cu	Cu	0.4887	0.9358	0.48	0.934
Mof_C 	C 	0.3746	0.9202	0.5279	0.322
Mof_O 	O 	0.391	0.9048	0.5038	-0.39
Mof_O 	O 	0.4313	0.9823	0.5415	-0.338
Mof_C 	C 	0.1949	0.8339	0.5774	0.148
Mof_C 	C 	0.1324	0.7614	0.5642	-0.112
Mof_H 	H 	0.0807	0.7277	0.5726	0.083
Mof_C 	C 	0.1481	0.7401	0.5383	-0.021
Mof_C 	C 	0.2262	0.7902	0.5256	-0.038
Mof_H 	H 	0.2365	0.7765	0.5085	0.078
Mof_C 	C 	0.2886	0.8627	0.5389	-0.022
Mof_C 	C 	0.2729	0.8841	0.5648	-0.119
Mof_H 	H 	0.3143	0.9323	0.5736	0.109
Mof_C 	C 	0.0925	0.6604	0.5209	0.337
Mof_O 	O 	0.1234	0.6544	0.4982	-0.403
Mof_O 	O 	0.0203	0.6013	0.5288	-0.407
Mof_N 	N 	0.1596	0.84	0.6032	-0.241
Mof_C 	C 	0.205	0.902	0.6211	0.233
Mof_O 	O 	0.281	0.95	0.6188	-0.244
Mof_H 	H 	0.1065	0.8055	0.6076	0.128
Mof_C 	C 	0.1677	0.8974	0.6493	-0.062
Mof_C 	C 	0.2185	0.9515	0.67	0.006
Mof_C 	C 	0.185	0.948	0.6959	-0.041
Mof_C 	C 	0.1	0.8895	0.7011	0.059
Mof_C 	C 	0.0488	0.8348	0.6804	-0.056
Mof_C 	C 	0.0828	0.8388	0.6545	-0.016
Mof_H 	H 	0.2747	0.9907	0.6665	0.029
Mof_H 	H 	0.218	0.984	0.7096	0.047
Mof_H 	H 	0.9926	0.7956	0.6839	0.044
Mof_H 	H 	0.0491	0.8031	0.6408	0.022
Mof_C 	C 	0.0644	0.8849	0.728	-0.052
Mof_C 	C 	0.1012	0.88	0.7542	0.041
Mof_N 	N 	0.068	0.8747	0.7791	-0.197
Mof_C 	C 	0.994	0.8733	0.7805	0.103
Mof_N 	N 	0.951	0.8772	0.7589	-0.12
Mof_C 	C 	0.9843	0.8826	0.734	0.04
Mof_H 	H 	0.9563	0.8853	0.7186	0.024
Mof_H 	H 	0.969	0.869	0.7973	0.014
Mof_H 	H 	0.1521	0.8806	0.7545	0.031
Mof_C 	C 	0.2196	0.9201	0.6723	-0.013
Mof_C 	C 	0.186	0.916	0.6983	-0.061
Mof_C 	C 	0.0477	0.8664	0.678	-0.039
Mof_C 	C 	0.0817	0.8705	0.6521	0.004
Mof_H 	H 	0.2765	0.9375	0.6705	0.042
Mof_H 	H 	0.22	0.931	0.7135	0.061
Mof_H 	H 	0.9908	0.8488	0.6799	0.037
Mof_H 	H 	0.0473	0.8553	0.6368	0.019
Mof_Cu	Cu	0.15537	0.26913	0.81333	0.934
Mof_C 	C 	0.04127	0.25353	0.86123	0.322
Mof_O 	O 	0.05767	0.23813	0.83713	-0.39
Mof_O 	O 	0.09797	0.31563	0.87483	-0.338
Mof_C 	C 	0.86157	0.16723	0.91073	0.148
Mof_C 	C 	0.79907	0.09473	0.89753	-0.111
Mof_H 	H 	0.74737	0.06103	0.90593	0.083
Mof_C 	C 	0.81477	0.07343	0.87163	-0.022
Mof_C 	C 	0.89287	0.12353	0.85893	-0.038
Mof_H 	H 	0.90317	0.10983	0.84183	0.078
Mof_C 	C 	0.95527	0.19603	0.87223	-0.023
Mof_C 	C 	0.93957	0.21743	0.89813	-0.119
Mof_H 	H 	0.98097	0.26563	0.90693	0.108
Mof_C 	C 	0.75917	0.99373	0.85423	0.337
Mof_O 	O 	0.79007	0.98773	0.83153	-0.403
Mof_O 	O 	0.68697	0.93463	0.86213	-0.407
Mof_N 	N 	0.82627	0.17333	0.93653	-0.241
Mof_C 	C 	0.87167	0.23533	0.95443	0.233
Mof_O 	O 	0.94767	0.28333	0.95213	-0.244
Mof_H 	H 	0.77317	0.13883	0.94093	0.128
Mof_C 	C 	0.83437	0.23073	0.98263	-0.063
Mof_C 	C 	0.88517	0.28483	0.00333	0.006
Mof_C 	C 	0.85167	0.28133	0.02923	-0.041
Mof_C 	C 	0.76667	0.22283	0.03443	0.06
Mof_C 	C 	0.71547	0.16813	0.01373	-0.057
Mof_C 	C 	0.74947	0.17213	0.98783	-0.015
Mof_H 	H 	0.94137	0.32403	0.99983	0.029
Mof_H 	H 	0.88467	0.31733	0.04293	0.047
Mof_H 	H 	0.65927	0.12893	0.01723	0.044
Mof_H 	H 	0.71577	0.13643	0.97413	0.021
Mof_C 	C 	0.73107	0.21823	0.06133	-0.052
Mof_C 	C 	0.76787	0.21333	0.08753	0.041
Mof_N 	N 	0.73467	0.20803	0.11243	-0.197
Mof_C 	C 	0.66067	0.20663	0.11383	0.104
Mof_N 	N 	0.61767	0.21053	0.09223	-0.121
Mof_C 	C 	0.65097	0.21593	0.06733	0.041
Mof_H 	H 	0.62297	0.21863	0.05193	0.024
Mof_H 	H 	0.63567	0.20233	0.13063	0.014
Mof_H 	H 	0.81877	0.21393	0.08783	0.031
Mof_C 	C 	0.88627	0.25343	0.00563	-0.013
Mof_C 	C 	0.85267	0.24933	0.03163	-0.061
Mof_C 	C 	0.71437	0.19973	0.01133	-0.04
Mof_C 	C 	0.74837	0.20383	0.98543	0.004
Mof_H 	H 	0.94317	0.27083	0.00383	0.042
Mof_H 	H 	0.88667	0.26433	0.04683	0.061
Mof_H 	H 	0.65747	0.18213	0.01323	0.037
Mof_H 	H 	0.71397	0.18863	0.97013	0.019
Mof_Cu	Cu	0.82203	0.60247	0.14667	0.934
Mof_C 	C 	0.70793	0.58687	0.19457	0.322
Mof_O 	O 	0.72433	0.57147	0.17047	-0.39
Mof_O 	O 	0.76463	0.64897	0.20817	-0.338
Mof_C 	C 	0.52823	0.50057	0.24407	0.148
Mof_C 	C 	0.46573	0.42807	0.23087	-0.111
Mof_H 	H 	0.41403	0.39437	0.23927	0.083
Mof_C 	C 	0.48143	0.40677	0.20497	-0.021
Mof_C 	C 	0.55953	0.45687	0.19227	-0.038
Mof_H 	H 	0.56983	0.44317	0.17517	0.078
Mof_C 	C 	0.62193	0.52937	0.20557	-0.022
Mof_C 	C 	0.60623	0.55077	0.23147	-0.119
Mof_H 	H 	0.64763	0.59897	0.24027	0.109
Mof_C 	C 	0.42583	0.32707	0.18757	0.337
Mof_O 	O 	0.45673	0.32107	0.16487	-0.403
Mof_O 	O 	0.35363	0.26797	0.19547	-0.407
Mof_N 	N 	0.49293	0.50667	0.26987	-0.241
Mof_C 	C 	0.53833	0.56867	0.28777	0.233
Mof_O 	O 	0.61433	0.61667	0.28547	-0.244
Mof_H 	H 	0.43983	0.47217	0.27427	0.128
Mof_C 	C 	0.50103	0.56407	0.31597	-0.063
Mof_C 	C 	0.55183	0.61817	0.33667	0.006
Mof_C 	C 	0.51833	0.61467	0.36257	-0.041
Mof_C 	C 	0.43333	0.55617	0.36777	0.06
Mof_C 	C 	0.38213	0.50147	0.34707	-0.057
Mof_C 	C 	0.41613	0.50547	0.32117	-0.015
Mof_H 	H 	0.60803	0.65737	0.33317	0.029
Mof_H 	H 	0.55133	0.65067	0.37627	0.046
Mof_H 	H 	0.32593	0.46227	0.35057	0.044
Mof_H 	H 	0.38243	0.46977	0.30747	0.021
Mof_C 	C 	0.39773	0.55157	0.39467	-0.052
Mof_C 	C 	0.43453	0.54667	0.42087	0.041
Mof_N 	N 	0.40133	0.54137	0.44577	-0.197
Mof_C 	C 	0.32733	0.53997	0.44717	0.104
Mof_N 	N 	0.28433	0.54387	0.42557	-0.121
Mof_C 	C 	0.31763	0.54927	0.40067	0.041
Mof_H 	H 	0.28963	0.55197	0.38527	0.024
Mof_H 	H 	0.30233	0.53567	0.46397	0.014
Mof_H 	H 	0.48543	0.54727	0.42117	0.031
Mof_C 	C 	0.55293	0.58677	0.33897	-0.013
Mof_C 	C 	0.51933	0.58267	0.36497	-0.061
Mof_C 	C 	0.38103	0.53307	0.34467	-0.04
Mof_C 	C 	0.41503	0.53717	0.31877	0.004
Mof_H 	H 	0.60983	0.60417	0.33717	0.042
Mof_H 	H 	0.55333	0.59767	0.38017	0.061
Mof_H 	H 	0.32413	0.51547	0.34657	0.037
Mof_H 	H 	0.38063	0.52197	0.30347	0.019
_end
