data_functionalizedCrystal
_audit_creation_method	'EQeq! by Chris Wilmer'
_symmetry_space_group_name_H-M	'P1'
_symmetry_Int_Tables_number	1
_symmetry_cell_setting	triclinic
loop_
_symmetry_equiv_pos_as_xyz
  x,y,z
_cell_length_a	13.0882
_cell_length_b	26.6665
_cell_length_c	13.1336
_cell_angle_alpha	90
_cell_angle_beta	116.072
_cell_angle_gamma	90
loop_
_atom_site_label
_atom_site_type_symbol
_atom_site_fract_x
_atom_site_fract_y
_atom_site_fract_z
_atom_site_charge
Mof_Gd	Gd	0.8207	0.00486	0.91889	1.837
Mof_O 	O 	0.8771	0.0675	0.0637	-0.488
Mof_O 	O 	0.6889	0.05324	0.782	-0.542
Mof_O 	O 	0.9434	0.95296	0.8836	-0.524
Mof_O 	O 	0.8908	0.95188	0.074	-0.511
Mof_O 	O 	0.9261	0.06527	0.8703	-0.486
Mof_O 	O 	0.6953	0.93736	0.8321	-0.517
Mof_C 	C 	0.9798	0.0769	0.1128	0.483
Mof_C 	C 	0.6218	0.0812	0.7038	0.534
Mof_C 	C 	0.0141	0.128	0.1663	-0.214
Mof_C 	C 	0.6028	0.133	0.7366	-0.23
Mof_O 	O 	0.5699	0.06845	0.6034	-0.519
Mof_C 	C 	0.1172	0.1484	0.18	0.109
Mof_C 	C 	0.9409	0.1555	0.1948	0.152
Mof_C 	C 	0.5185	0.1638	0.6559	0.157
Mof_C 	C 	0.6681	0.1509	0.8472	0.105
Mof_Gd	Gd	0.45081	0.00676	0.50369	0.908
Mof_H 	H 	0.167	0.1295	0.1624	-0.004
Mof_C 	C 	0.1455	0.1972	0.2203	-0.179
Mof_H 	H 	0.872	0.1419	0.1855	-0.026
Mof_C 	C 	0.971	0.2033	0.2371	-0.252
Mof_H 	H 	0.4744	0.1521	0.5829	-0.016
Mof_C 	C 	0.5024	0.2113	0.6863	-0.258
Mof_H 	H 	0.7227	0.1302	0.9004	-0.013
Mof_C 	C 	0.6521	0.1989	0.8778	-0.173
Mof_O 	O 	0.3125	0.0751	0.5087	-0.214
Mof_O 	O 	0.3845	0.0328	0.649	-0.219
Mof_O 	O 	0.5783	0.9539	0.6549	-0.526
Mof_H 	H 	0.214	0.2111	0.2289	0.071
Mof_C 	C 	0.0731	0.2245	0.247	0.08
Mof_C 	C 	0.9071	0.24	0.2785	0.584
Mof_C 	C 	0.5669	0.2292	0.7962	0.059
Mof_C 	C 	0.4193	0.2512	0.6133	0.612
Mof_H 	H 	0.6966	0.2109	0.9505	0.054
Mof_N 	N 	0.3085	0.066	0.597	0.083
Mof_C 	C 	0.0776	0.2766	0.2842	0.063
Mof_C 	C 	0.904	0.2219	0.3875	-1.038
Mof_C 	C 	0.7879	0.2504	0.1856	-1.15
Mof_C 	C 	0.982	0.2866	0.3024	-0.244
Mof_C 	C 	0.5349	0.2811	0.8028	0.095
Mof_C 	C 	0.2952	0.2324	0.5726	-1.164
Mof_C 	C 	0.4393	0.2664	0.5134	-1.1
Mof_C 	C 	0.4466	0.2939	0.6989	-0.274
Mof_O 	O 	0.2702	0.0885	0.639	-0.156
Mof_C 	C 	0.156	0.315	0.3004	-0.17
Mof_H 	H 	0.8734	0.247	0.4181	0.335
Mof_H 	H 	0.983	0.215	0.44	0.323
Mof_H 	H 	0.8587	0.192	0.3739	0.329
Mof_H 	H 	0.7537	0.2764	0.2103	0.372
Mof_H 	H 	0.7437	0.2204	0.1742	0.357
Mof_H 	H 	0.788	0.26	0.1161	0.369
Mof_C 	C 	0.9633	0.3344	0.3324	0.144
Mof_C 	C 	0.5739	0.3144	0.8908	-0.214
Mof_H 	H 	0.2838	0.2212	0.6355	0.383
Mof_H 	H 	0.2806	0.2055	0.5205	0.387
Mof_H 	H 	0.2429	0.2594	0.5356	0.368
Mof_H 	H 	0.3923	0.2948	0.4764	0.353
Mof_H 	H 	0.4193	0.2391	0.4613	0.358
Mof_H 	H 	0.5196	0.2747	0.5394	0.334
Mof_C 	C 	0.3978	0.3409	0.6839	0.173
Mof_H 	H 	0.2192	0.309	0.2873	0.065
Mof_C 	C 	0.1398	0.3613	0.3354	0.105
Mof_H 	H 	0.8976	0.3413	0.3405	-0.023
Mof_C 	C 	0.0425	0.372	0.3502	-0.215
Mof_H 	H 	0.6316	0.305	0.9606	0.074
Mof_C 	C 	0.5285	0.3612	0.8764	0.143
Mof_H 	H 	0.3388	0.3499	0.6145	-0.034
Mof_C 	C 	0.4375	0.3745	0.7732	-0.251
Mof_H 	H 	0.1943	0.3861	0.3497	0.002
Mof_C 	C 	0.0253	0.4234	0.3847	0.488
Mof_H 	H 	0.5579	0.3844	0.9351	-0.026
Mof_C 	C 	0.381	0.4254	0.7594	0.528
Mof_Gd	Gd	0.1793	0.50486	0.58111	1.842
Mof_O 	O 	0.1229	0.5675	0.4363	-0.492
Mof_O 	O 	0.3111	0.55324	0.718	-0.543
Mof_O 	O 	0.0566	0.45296	0.6164	-0.529
Mof_O 	O 	0.1092	0.45188	0.426	-0.512
Mof_O 	O 	0.0739	0.56527	0.6297	-0.485
Mof_O 	O 	0.3047	0.43736	0.6679	-0.519
Mof_C 	C 	0.0202	0.5769	0.3872	0.484
Mof_C 	C 	0.3782	0.5812	0.7962	0.534
Mof_C 	C 	0.9859	0.628	0.3337	-0.216
Mof_C 	C 	0.3972	0.633	0.7634	-0.229
Mof_O 	O 	0.4301	0.56845	0.8966	-0.518
Mof_C 	C 	0.8828	0.6484	0.32	0.11
Mof_C 	C 	0.0591	0.6555	0.3052	0.153
Mof_C 	C 	0.4815	0.6638	0.8441	0.154
Mof_C 	C 	0.3319	0.6509	0.6528	0.104
Mof_Gd	Gd	0.54919	0.50676	0.99631	0.908
Mof_H 	H 	0.833	0.6295	0.3376	-0.005
Mof_C 	C 	0.8545	0.6972	0.2797	-0.18
Mof_H 	H 	0.128	0.6419	0.3145	-0.027
Mof_C 	C 	0.029	0.7033	0.2629	-0.252
Mof_H 	H 	0.5256	0.6521	0.9171	-0.014
Mof_C 	C 	0.4976	0.7113	0.8137	-0.254
Mof_H 	H 	0.2773	0.6302	0.5996	-0.012
Mof_C 	C 	0.3479	0.6989	0.6222	-0.173
Mof_O 	O 	0.6875	0.5751	0.9913	-0.213
Mof_O 	O 	0.6155	0.5328	0.851	-0.219
Mof_O 	O 	0.4217	0.4539	0.8451	-0.527
Mof_H 	H 	0.786	0.7111	0.2711	0.072
Mof_C 	C 	0.9269	0.7245	0.253	0.081
Mof_C 	C 	0.0929	0.74	0.2215	0.583
Mof_C 	C 	0.4331	0.7292	0.7038	0.058
Mof_C 	C 	0.5807	0.7512	0.8867	0.603
Mof_H 	H 	0.3034	0.7109	0.5495	0.055
Mof_N 	N 	0.6915	0.566	0.903	0.083
Mof_C 	C 	0.9224	0.7766	0.2158	0.063
Mof_C 	C 	0.096	0.7219	0.1125	-1.035
Mof_C 	C 	0.2121	0.7504	0.3144	-1.147
Mof_C 	C 	0.018	0.7866	0.1976	-0.244
Mof_C 	C 	0.4651	0.7811	0.6972	0.094
Mof_C 	C 	0.7048	0.7324	0.9274	-1.155
Mof_C 	C 	0.5607	0.7664	0.9866	-1.074
Mof_C 	C 	0.5534	0.7939	0.8011	-0.27
Mof_O 	O 	0.7298	0.5885	0.861	-0.156
Mof_C 	C 	0.844	0.815	0.1996	-0.17
Mof_H 	H 	0.1266	0.747	0.0819	0.333
Mof_H 	H 	0.017	0.715	0.06	0.321
Mof_H 	H 	0.1413	0.692	0.1261	0.328
Mof_H 	H 	0.2463	0.7764	0.2897	0.371
Mof_H 	H 	0.2563	0.7204	0.3258	0.355
Mof_H 	H 	0.212	0.76	0.3839	0.367
Mof_C 	C 	0.0367	0.8344	0.1676	0.141
Mof_C 	C 	0.4261	0.8144	0.6092	-0.212
Mof_H 	H 	0.7162	0.7212	0.8645	0.38
Mof_H 	H 	0.7194	0.7055	0.9795	0.385
Mof_H 	H 	0.7571	0.7594	0.9644	0.366
Mof_H 	H 	0.6077	0.7948	0.0236	0.343
Mof_H 	H 	0.5807	0.7391	0.0387	0.349
Mof_H 	H 	0.4804	0.7747	0.9606	0.328
Mof_C 	C 	0.6022	0.8409	0.8161	0.17
Mof_H 	H 	0.7808	0.809	0.2127	0.064
Mof_C 	C 	0.8602	0.8613	0.1646	0.104
Mof_H 	H 	0.1024	0.8413	0.1595	-0.022
Mof_C 	C 	0.9575	0.872	0.1498	-0.214
Mof_H 	H 	0.3684	0.805	0.5394	0.074
Mof_C 	C 	0.4715	0.8612	0.6236	0.142
Mof_H 	H 	0.6612	0.8499	0.8855	-0.032
Mof_C 	C 	0.5625	0.8745	0.7268	-0.249
Mof_H 	H 	0.8057	0.8861	0.1503	0.003
Mof_C 	C 	0.9747	0.9234	0.1153	0.489
Mof_H 	H 	0.4421	0.8844	0.5649	-0.025
Mof_C 	C 	0.619	0.9254	0.7406	0.527
Mof_Gd	Gd	0.1793	0.99514	0.08111	1.836
Mof_O 	O 	0.1229	0.9325	0.9363	-0.489
Mof_O 	O 	0.3111	0.94676	0.218	-0.543
Mof_O 	O 	0.0566	0.04704	0.1164	-0.525
Mof_O 	O 	0.1092	0.04812	0.926	-0.512
Mof_O 	O 	0.0739	0.93473	0.1297	-0.487
Mof_O 	O 	0.3047	0.06264	0.1679	-0.517
Mof_C 	C 	0.0202	0.9231	0.8872	0.483
Mof_C 	C 	0.3782	0.9188	0.2962	0.534
Mof_C 	C 	0.9859	0.872	0.8337	-0.214
Mof_C 	C 	0.3972	0.867	0.2634	-0.23
Mof_O 	O 	0.4301	0.93155	0.3966	-0.519
Mof_C 	C 	0.8828	0.8516	0.82	0.109
Mof_C 	C 	0.0591	0.8445	0.8052	0.152
Mof_C 	C 	0.4815	0.8362	0.3441	0.157
Mof_C 	C 	0.3319	0.8491	0.1528	0.105
Mof_Gd	Gd	0.54919	0.99324	0.49631	0.908
Mof_H 	H 	0.833	0.8705	0.8376	-0.004
Mof_C 	C 	0.8545	0.8028	0.7797	-0.179
Mof_H 	H 	0.128	0.8581	0.8145	-0.026
Mof_C 	C 	0.029	0.7967	0.7629	-0.252
Mof_H 	H 	0.5256	0.8479	0.4171	-0.016
Mof_C 	C 	0.4976	0.7887	0.3137	-0.258
Mof_H 	H 	0.2773	0.8698	0.0996	-0.013
Mof_C 	C 	0.3479	0.8011	0.1222	-0.173
Mof_O 	O 	0.6875	0.9249	0.4913	-0.214
Mof_O 	O 	0.6155	0.9672	0.351	-0.219
Mof_O 	O 	0.4217	0.0461	0.3451	-0.526
Mof_H 	H 	0.786	0.7889	0.7711	0.071
Mof_C 	C 	0.9269	0.7755	0.753	0.08
Mof_C 	C 	0.0929	0.76	0.7215	0.584
Mof_C 	C 	0.4331	0.7708	0.2038	0.059
Mof_C 	C 	0.5807	0.7488	0.3867	0.612
Mof_H 	H 	0.3034	0.7891	0.0495	0.054
Mof_N 	N 	0.6915	0.934	0.403	0.083
Mof_C 	C 	0.9224	0.7234	0.7158	0.063
Mof_C 	C 	0.096	0.7781	0.6125	-1.038
Mof_C 	C 	0.2121	0.7496	0.8144	-1.15
Mof_C 	C 	0.018	0.7134	0.6976	-0.244
Mof_C 	C 	0.4651	0.7189	0.1972	0.095
Mof_C 	C 	0.7048	0.7676	0.4274	-1.164
Mof_C 	C 	0.5607	0.7336	0.4866	-1.1
Mof_C 	C 	0.5534	0.7061	0.3011	-0.274
Mof_O 	O 	0.7298	0.9115	0.361	-0.156
Mof_C 	C 	0.844	0.685	0.6996	-0.17
Mof_H 	H 	0.1266	0.753	0.5819	0.335
Mof_H 	H 	0.017	0.785	0.56	0.323
Mof_H 	H 	0.1413	0.808	0.6261	0.329
Mof_H 	H 	0.2463	0.7236	0.7897	0.372
Mof_H 	H 	0.2563	0.7796	0.8258	0.357
Mof_H 	H 	0.212	0.74	0.8839	0.369
Mof_C 	C 	0.0367	0.6656	0.6676	0.144
Mof_C 	C 	0.4261	0.6856	0.1092	-0.214
Mof_H 	H 	0.7162	0.7788	0.3645	0.383
Mof_H 	H 	0.7194	0.7945	0.4795	0.387
Mof_H 	H 	0.7571	0.7406	0.4644	0.368
Mof_H 	H 	0.6077	0.7052	0.5236	0.353
Mof_H 	H 	0.5807	0.7609	0.5387	0.358
Mof_H 	H 	0.4804	0.7253	0.4606	0.334
Mof_C 	C 	0.6022	0.6591	0.3161	0.173
Mof_H 	H 	0.7808	0.691	0.7127	0.065
Mof_C 	C 	0.8602	0.6387	0.6646	0.105
Mof_H 	H 	0.1024	0.6587	0.6595	-0.023
Mof_C 	C 	0.9575	0.628	0.6498	-0.215
Mof_H 	H 	0.3684	0.695	0.0394	0.074
Mof_C 	C 	0.4715	0.6388	0.1236	0.143
Mof_H 	H 	0.6612	0.6501	0.3855	-0.034
Mof_C 	C 	0.5625	0.6255	0.2268	-0.251
Mof_H 	H 	0.8057	0.6139	0.6503	0.002
Mof_C 	C 	0.9747	0.5766	0.6153	0.488
Mof_H 	H 	0.4421	0.6156	0.0649	-0.026
Mof_C 	C 	0.619	0.5746	0.2406	0.528
Mof_Gd	Gd	0.8207	0.49514	0.41889	1.842
Mof_O 	O 	0.8771	0.4325	0.5637	-0.492
Mof_O 	O 	0.6889	0.44676	0.282	-0.543
Mof_O 	O 	0.9434	0.54704	0.3836	-0.529
Mof_O 	O 	0.8908	0.54812	0.574	-0.512
Mof_O 	O 	0.9261	0.43473	0.3703	-0.485
Mof_O 	O 	0.6953	0.56264	0.3321	-0.519
Mof_C 	C 	0.9798	0.4231	0.6128	0.484
Mof_C 	C 	0.6218	0.4188	0.2038	0.534
Mof_C 	C 	0.0141	0.372	0.6663	-0.216
Mof_C 	C 	0.6028	0.367	0.2366	-0.229
Mof_O 	O 	0.5699	0.43155	0.1034	-0.518
Mof_C 	C 	0.1172	0.3516	0.68	0.11
Mof_C 	C 	0.9409	0.3445	0.6948	0.153
Mof_C 	C 	0.5185	0.3362	0.1559	0.154
Mof_C 	C 	0.6681	0.3491	0.3472	0.104
Mof_Gd	Gd	0.45081	0.49324	0.00369	0.908
Mof_H 	H 	0.167	0.3705	0.6624	-0.005
Mof_C 	C 	0.1455	0.3028	0.7203	-0.18
Mof_H 	H 	0.872	0.3581	0.6855	-0.027
Mof_C 	C 	0.971	0.2967	0.7371	-0.252
Mof_H 	H 	0.4744	0.3479	0.0829	-0.014
Mof_C 	C 	0.5024	0.2887	0.1863	-0.254
Mof_H 	H 	0.7227	0.3698	0.4004	-0.012
Mof_C 	C 	0.6521	0.3011	0.3778	-0.173
Mof_O 	O 	0.3125	0.4249	0.0087	-0.213
Mof_O 	O 	0.3845	0.4672	0.149	-0.219
Mof_O 	O 	0.5783	0.5461	0.1549	-0.527
Mof_H 	H 	0.214	0.2889	0.7289	0.072
Mof_C 	C 	0.0731	0.2755	0.747	0.081
Mof_C 	C 	0.9071	0.26	0.7785	0.583
Mof_C 	C 	0.5669	0.2708	0.2962	0.058
Mof_C 	C 	0.4193	0.2488	0.1133	0.603
Mof_H 	H 	0.6966	0.2891	0.4505	0.055
Mof_N 	N 	0.3085	0.434	0.097	0.083
Mof_C 	C 	0.0776	0.2234	0.7842	0.063
Mof_C 	C 	0.904	0.2781	0.8875	-1.035
Mof_C 	C 	0.7879	0.2496	0.6856	-1.147
Mof_C 	C 	0.982	0.2134	0.8024	-0.244
Mof_C 	C 	0.5349	0.2189	0.3028	0.094
Mof_C 	C 	0.2952	0.2676	0.0726	-1.155
Mof_C 	C 	0.4393	0.2336	0.0134	-1.074
Mof_C 	C 	0.4466	0.2061	0.1989	-0.27
Mof_O 	O 	0.2702	0.4115	0.139	-0.156
Mof_C 	C 	0.156	0.185	0.8004	-0.17
Mof_H 	H 	0.8734	0.253	0.9181	0.333
Mof_H 	H 	0.983	0.285	0.94	0.321
Mof_H 	H 	0.8587	0.308	0.8739	0.328
Mof_H 	H 	0.7537	0.2236	0.7103	0.371
Mof_H 	H 	0.7437	0.2796	0.6742	0.355
Mof_H 	H 	0.788	0.24	0.6161	0.367
Mof_C 	C 	0.9633	0.1656	0.8324	0.141
Mof_C 	C 	0.5739	0.1856	0.3908	-0.212
Mof_H 	H 	0.2838	0.2788	0.1355	0.38
Mof_H 	H 	0.2806	0.2945	0.0205	0.385
Mof_H 	H 	0.2429	0.2406	0.0356	0.366
Mof_H 	H 	0.3923	0.2052	0.9764	0.343
Mof_H 	H 	0.4193	0.2609	0.9613	0.349
Mof_H 	H 	0.5196	0.2253	0.0394	0.328
Mof_C 	C 	0.3978	0.1591	0.1839	0.17
Mof_H 	H 	0.2192	0.191	0.7873	0.064
Mof_C 	C 	0.1398	0.1387	0.8354	0.104
Mof_H 	H 	0.8976	0.1587	0.8405	-0.022
Mof_C 	C 	0.0425	0.128	0.8502	-0.214
Mof_H 	H 	0.6316	0.195	0.4606	0.074
Mof_C 	C 	0.5285	0.1388	0.3764	0.142
Mof_H 	H 	0.3388	0.1501	0.1145	-0.032
Mof_C 	C 	0.4375	0.1255	0.2732	-0.249
Mof_H 	H 	0.1943	0.1139	0.8497	0.003
Mof_C 	C 	0.0253	0.0766	0.8847	0.489
Mof_H 	H 	0.5579	0.1156	0.4351	-0.025
Mof_C 	C 	0.381	0.0746	0.2594	0.527
_end
