data_functionalizedCrystal
_audit_creation_method	'EQeq! by Chris Wilmer'
_symmetry_space_group_name_H-M	'P1'
_symmetry_Int_Tables_number	1
_symmetry_cell_setting	triclinic
loop_
_symmetry_equiv_pos_as_xyz
  x,y,z
_cell_length_a	26.8674
_cell_length_b	26.8674
_cell_length_c	95.505
_cell_angle_alpha	90
_cell_angle_beta	90
_cell_angle_gamma	120
loop_
_atom_site_label
_atom_site_type_symbol
_atom_site_fract_x
_atom_site_fract_y
_atom_site_fract_z
_atom_site_charge
Mof_C 	C 	0.197	0.4767	0.52724	0.341
Mof_C 	C 	0.151	0.4471	0.53817	-0.201
Mof_C 	C 	0.1224	0.3865	0.53835	0.14
Mof_H 	H 	0.1321	0.3664	0.532	-0.001
Mof_C 	C 	0.0789	0.3575	0.54823	-0.259
Mof_H 	H 	0.0594	0.3175	0.5486	0.132
Mof_C 	C 	0.065	0.3881	0.55752	0.279
Mof_C 	C 	0.0938	0.447	0.55719	-0.282
Mof_H 	H 	0.0854	0.4679	0.5636	0.133
Mof_C 	C 	0.1359	0.4745	0.54699	0.171
Mof_H 	H 	0.1542	0.5144	0.5464	-0.011
Mof_C 	C 	0.0034	0.3805	0.57648	0.002
Mof_H 	H 	0.9961	0.4085	0.5719	0.048
Mof_H 	H 	0.0332	0.4001	0.5835	0.043
Mof_C 	C 	0.8304	0.3579	0.51079	0.425
Mof_C 	C 	0.8485	0.3558	0.5254	-0.237
Mof_C 	C 	0.8626	0.4003	0.53465	0.209
Mof_H 	H 	0.8641	0.434	0.5317	-0.027
Mof_C 	C 	0.8745	0.3936	0.54858	-0.348
Mof_H 	H 	0.8791	0.4214	0.5551	0.161
Mof_C 	C 	0.8794	0.3501	0.55283	0.341
Mof_C 	C 	0.863	0.3024	0.54411	-0.309
Mof_H 	H 	0.863	0.2696	0.5472	0.148
Mof_C 	C 	0.8468	0.307	0.53054	0.196
Mof_H 	H 	0.8342	0.2754	0.5246	-0.017
Mof_C 	C 	0.903	0.3062	0.57191	0.023
Mof_H 	H 	0.9164	0.291	0.5645	0.036
Mof_H 	H 	0.8677	0.2749	0.5757	0.046
Mof_C 	C 	0.2564	0.5645	0.48686	0.637
Mof_C 	C 	0.2318	0.535	0.47324	-0.585
Mof_C 	C 	0.1868	0.4835	0.47353	0.543
Mof_H 	H 	0.1713	0.4666	0.4821	-0.153
Mof_C 	C 	0.1616	0.4539	0.46146	-0.586
Mof_H 	H 	0.131	0.4164	0.4618	0.247
Mof_C 	C 	0.1835	0.4819	0.44865	0.592
Mof_C 	C 	0.2284	0.5325	0.4493	-0.665
Mof_H 	H 	0.2451	0.5504	0.4409	0.265
Mof_C 	C 	0.2537	0.562	0.46149	0.574
Mof_H 	H 	0.2848	0.5993	0.4613	-0.137
Mof_O 	O 	0.135	0.4324	0.44104	-0.054
Mof_O 	O 	0.051	0.4568	0.43467	-0.041
Mof_C 	C 	0.1467	0.4302	0.4259	0.532
Mof_H 	H 	0.1752	0.4261	0.4205	-0.113
Mof_H 	H 	0.1602	0.4706	0.4275	-0.136
Mof_C 	C 	0.0494	0.4247	0.42162	-0.051
Mof_H 	H 	0.0607	0.4624	0.4178	0.053
Mof_H 	H 	0.0168	0.3952	0.4165	0.027
Mof_C 	C 	0.9908	0.4272	0.44129	0.456
Mof_C 	C 	0.9543	0.3641	0.44189	-0.335
Mof_H 	H 	0.9597	0.3383	0.4365	0.154
Mof_C 	C 	0.9073	0.3479	0.45241	0.213
Mof_H 	H 	0.8827	0.3095	0.4546	-0.02
Mof_C 	C 	0.9013	0.3888	0.45855	-0.295
Mof_C 	C 	0.9412	0.4465	0.4546	0.317
Mof_H 	H 	0.9337	0.4749	0.4577	-0.06
Mof_C 	C 	0.9895	0.464	0.4467	-0.562
Mof_H 	H 	0.0182	0.5022	0.4458	0.238
Mof_C 	C 	0.858	0.3785	0.46931	0.459
Mof_Co	Co	0.28895	0.52828	0.51339	1.183
Mof_Co	Co	0.42957	0.62043	0.51097	1.162
Mof_O 	O 	0.02093	0.35386	0.56659	-0.243
Mof_O 	O 	0.21232	0.44909	0.51968	-0.368
Mof_O 	O 	0.22229	0.53138	0.52658	-0.475
Mof_O 	O 	0.23925	0.5459	0.498	-0.657
Mof_O 	O 	0.3	0.6131	0.48581	-0.455
Mof_O 	O 	0.35015	0.61258	0.51438	-0.587
Mof_O 	O 	0.8933	0.3503	0.56658	-0.258
Mof_O 	O 	0.81473	0.31481	0.50326	-0.448
Mof_O 	O 	0.82067	0.3252	0.47131	-0.434
Mof_O 	O 	0.8343	0.40528	0.50694	-0.452
Mof_O 	O 	0.85953	0.42056	0.4749	-0.479
Mof_O 	O 	0.1631	0.4458	0.43544	-0.484
Mof_O 	O 	0.0344	0.4482	0.42937	-0.256
Mof_C 	C 	0.1547	0.4818	0.42553	0.208
Mof_H 	H 	0.1881	0.5134	0.4212	-0.03
Mof_H 	H 	0.1369	0.4973	0.4316	-0.005
Mof_C 	C 	0.0512	0.4049	0.42587	0.175
Mof_H 	H 	0.027	0.37	0.4207	-0.04
Mof_H 	H 	0.0572	0.3936	0.4351	-0.019
Mof_C 	C 	0.86367	0.81003	0.86057	0.343
Mof_C 	C 	0.81767	0.78043	0.8715	-0.2
Mof_C 	C 	0.78907	0.71983	0.87168	0.143
Mof_H 	H 	0.79877	0.69973	0.86533	0.001
Mof_C 	C 	0.74557	0.69083	0.88156	-0.259
Mof_H 	H 	0.72607	0.65083	0.88193	0.136
Mof_C 	C 	0.73167	0.72143	0.89085	0.285
Mof_C 	C 	0.76047	0.78033	0.89052	-0.283
Mof_H 	H 	0.75207	0.80123	0.89693	0.137
Mof_C 	C 	0.80257	0.80783	0.88032	0.174
Mof_H 	H 	0.82087	0.84773	0.87973	-0.01
Mof_C 	C 	0.67007	0.71383	0.90981	0.035
Mof_H 	H 	0.66277	0.74183	0.90523	0.034
Mof_H 	H 	0.69987	0.73343	0.91683	0.038
Mof_C 	C 	0.49707	0.69123	0.84412	0.427
Mof_C 	C 	0.51517	0.68913	0.85873	-0.237
Mof_C 	C 	0.52927	0.73363	0.86798	0.21
Mof_H 	H 	0.53077	0.76733	0.86503	-0.026
Mof_C 	C 	0.54117	0.72693	0.88191	-0.348
Mof_H 	H 	0.54577	0.75473	0.88843	0.163
Mof_C 	C 	0.54607	0.68343	0.88616	0.342
Mof_C 	C 	0.52967	0.63573	0.87744	-0.31
Mof_H 	H 	0.52967	0.60293	0.88053	0.149
Mof_C 	C 	0.51347	0.64033	0.86387	0.197
Mof_H 	H 	0.50087	0.60873	0.85793	-0.016
Mof_C 	C 	0.56967	0.63953	0.90524	0.032
Mof_H 	H 	0.58307	0.62433	0.89783	0.034
Mof_H 	H 	0.53437	0.60823	0.90903	0.045
Mof_C 	C 	0.92307	0.89783	0.82019	0.634
Mof_C 	C 	0.89847	0.86833	0.80657	-0.578
Mof_C 	C 	0.85347	0.81683	0.80686	0.54
Mof_H 	H 	0.83797	0.79993	0.81543	-0.15
Mof_C 	C 	0.82827	0.78723	0.79479	-0.582
Mof_H 	H 	0.79767	0.74973	0.79513	0.248
Mof_C 	C 	0.85017	0.81523	0.78198	0.59
Mof_C 	C 	0.89507	0.86583	0.78263	-0.66
Mof_H 	H 	0.91177	0.88373	0.77423	0.267
Mof_C 	C 	0.92037	0.89533	0.79482	0.57
Mof_H 	H 	0.95147	0.93263	0.79463	-0.131
Mof_O 	O 	0.80167	0.76573	0.77437	-0.054
Mof_O 	O 	0.71767	0.79013	0.768	-0.041
Mof_C 	C 	0.81337	0.76353	0.75923	0.531
Mof_H 	H 	0.84187	0.75943	0.75383	-0.112
Mof_H 	H 	0.82687	0.80393	0.76083	-0.137
Mof_C 	C 	0.71607	0.75803	0.75495	-0.051
Mof_H 	H 	0.72737	0.79573	0.75113	0.053
Mof_H 	H 	0.68347	0.72853	0.74983	0.028
Mof_C 	C 	0.65747	0.76053	0.77462	0.472
Mof_C 	C 	0.62097	0.69743	0.77522	-0.349
Mof_H 	H 	0.62637	0.67163	0.76983	0.156
Mof_C 	C 	0.57397	0.68123	0.78574	0.224
Mof_H 	H 	0.54937	0.64283	0.78793	-0.024
Mof_C 	C 	0.56797	0.72213	0.79188	-0.309
Mof_C 	C 	0.60787	0.77983	0.78793	0.341
Mof_H 	H 	0.60037	0.80823	0.79103	-0.069
Mof_C 	C 	0.65617	0.79733	0.78003	-0.605
Mof_H 	H 	0.68487	0.83553	0.77913	0.258
Mof_C 	C 	0.52467	0.71183	0.80264	0.464
Mof_Co	Co	0.95562	0.86161	0.84673	1.184
Mof_Co	Co	0.09624	0.95376	0.8443	1.164
Mof_O 	O 	0.6876	0.68719	0.89992	-0.246
Mof_O 	O 	0.87899	0.78242	0.85301	-0.367
Mof_O 	O 	0.88896	0.86471	0.85991	-0.473
Mof_O 	O 	0.90592	0.87923	0.83133	-0.654
Mof_O 	O 	0.96667	0.94643	0.81914	-0.446
Mof_O 	O 	0.01682	0.94591	0.84771	-0.588
Mof_O 	O 	0.55997	0.68363	0.89991	-0.259
Mof_O 	O 	0.4814	0.64814	0.83659	-0.449
Mof_O 	O 	0.48734	0.65853	0.80464	-0.436
Mof_O 	O 	0.50097	0.73861	0.84027	-0.452
Mof_O 	O 	0.5262	0.75389	0.80823	-0.481
Mof_O 	O 	0.82977	0.77913	0.76877	-0.482
Mof_O 	O 	0.70107	0.78153	0.7627	-0.255
Mof_C 	C 	0.82137	0.81513	0.75886	0.209
Mof_H 	H 	0.85477	0.84673	0.75453	-0.03
Mof_H 	H 	0.80357	0.83063	0.76493	-0.005
Mof_C 	C 	0.71787	0.73823	0.7592	0.174
Mof_H 	H 	0.69367	0.70333	0.75403	-0.038
Mof_H 	H 	0.72387	0.72693	0.76843	-0.017
Mof_C 	C 	0.53033	0.14337	0.19391	0.347
Mof_C 	C 	0.48433	0.11377	0.20484	-0.213
Mof_C 	C 	0.45573	0.05317	0.20502	0.162
Mof_H 	H 	0.46543	0.03307	0.19867	-0.008
Mof_C 	C 	0.41223	0.02417	0.2149	-0.292
Mof_H 	H 	0.39273	0.98417	0.21527	0.154
Mof_C 	C 	0.39833	0.05477	0.22419	0.301
Mof_C 	C 	0.42713	0.11367	0.22386	-0.299
Mof_H 	H 	0.41873	0.13457	0.23027	0.142
Mof_C 	C 	0.46923	0.14117	0.21366	0.188
Mof_H 	H 	0.48753	0.18107	0.21307	-0.016
Mof_C 	C 	0.33673	0.04717	0.24315	0.049
Mof_H 	H 	0.32943	0.07517	0.23857	0.029
Mof_H 	H 	0.36653	0.06677	0.25017	0.032
Mof_C 	C 	0.16373	0.02457	0.17746	0.417
Mof_C 	C 	0.18183	0.02247	0.19207	-0.245
Mof_C 	C 	0.19593	0.06697	0.20132	0.21
Mof_H 	H 	0.19743	0.10067	0.19837	-0.027
Mof_C 	C 	0.20783	0.06027	0.21525	-0.347
Mof_H 	H 	0.21243	0.08807	0.22177	0.162
Mof_C 	C 	0.21273	0.01677	0.2195	0.334
Mof_C 	C 	0.19633	0.96907	0.21078	-0.302
Mof_H 	H 	0.19633	0.93627	0.21387	0.148
Mof_C 	C 	0.18013	0.97367	0.19721	0.206
Mof_H 	H 	0.16753	0.94207	0.19127	-0.018
Mof_C 	C 	0.23633	0.97287	0.23858	0.061
Mof_H 	H 	0.24973	0.95767	0.23117	0.028
Mof_H 	H 	0.20103	0.94157	0.24237	0.038
Mof_C 	C 	0.58973	0.23117	0.15353	0.638
Mof_C 	C 	0.56513	0.20167	0.13991	-0.584
Mof_C 	C 	0.52013	0.15017	0.1402	0.545
Mof_H 	H 	0.50463	0.13327	0.14877	-0.152
Mof_C 	C 	0.49493	0.12057	0.12813	-0.585
Mof_H 	H 	0.46433	0.08307	0.12847	0.248
Mof_C 	C 	0.51683	0.14857	0.11532	0.593
Mof_C 	C 	0.56173	0.19917	0.11597	-0.664
Mof_H 	H 	0.57843	0.21707	0.10757	0.266
Mof_C 	C 	0.58703	0.22867	0.12816	0.574
Mof_H 	H 	0.61813	0.26597	0.12797	-0.137
Mof_O 	O 	0.46833	0.09907	0.10771	-0.054
Mof_O 	O 	0.38433	0.12347	0.10134	-0.041
Mof_C 	C 	0.48003	0.09687	0.09257	0.532
Mof_H 	H 	0.50853	0.09277	0.08717	-0.113
Mof_H 	H 	0.49353	0.13727	0.09417	-0.136
Mof_C 	C 	0.38273	0.09137	0.08829	-0.051
Mof_H 	H 	0.39403	0.12907	0.08447	0.053
Mof_H 	H 	0.35013	0.06187	0.08317	0.027
Mof_C 	C 	0.32413	0.09387	0.10796	0.454
Mof_C 	C 	0.28763	0.03077	0.10856	-0.33
Mof_H 	H 	0.29303	0.00497	0.10317	0.147
Mof_C 	C 	0.24063	0.01457	0.11908	0.189
Mof_H 	H 	0.21603	0.97617	0.12127	-0.006
Mof_C 	C 	0.23463	0.05547	0.12522	-0.288
Mof_C 	C 	0.27453	0.11317	0.12127	0.32
Mof_H 	H 	0.26703	0.14157	0.12437	-0.063
Mof_C 	C 	0.32283	0.13067	0.11337	-0.58
Mof_H 	H 	0.35153	0.16887	0.11247	0.249
Mof_C 	C 	0.19133	0.04517	0.13598	0.445
Mof_Co	Co	0.62228	0.19495	0.18006	1.183
Mof_Co	Co	0.7629	0.2871	0.17764	1.162
Mof_O 	O 	0.35426	0.02053	0.23326	-0.256
Mof_O 	O 	0.54565	0.11576	0.18635	-0.37
Mof_O 	O 	0.55562	0.19805	0.19325	-0.476
Mof_O 	O 	0.57258	0.21257	0.16467	-0.657
Mof_O 	O 	0.63333	0.27977	0.15248	-0.455
Mof_O 	O 	0.68348	0.27925	0.18105	-0.588
Mof_O 	O 	0.22663	0.01697	0.23325	-0.267
Mof_O 	O 	0.14806	0.98148	0.16993	-0.439
Mof_O 	O 	0.154	0.99187	0.13798	-0.425
Mof_O 	O 	0.16763	0.07195	0.17361	-0.451
Mof_O 	O 	0.19286	0.08723	0.14157	-0.477
Mof_O 	O 	0.49643	0.11247	0.10211	-0.484
Mof_O 	O 	0.36773	0.11487	0.09604	-0.253
Mof_C 	C 	0.48803	0.14847	0.0922	0.208
Mof_H 	H 	0.52143	0.18007	0.08787	-0.03
Mof_H 	H 	0.47023	0.16397	0.09827	-0.005
Mof_C 	C 	0.38453	0.07157	0.09254	0.174
Mof_H 	H 	0.36033	0.03667	0.08737	-0.038
Mof_H 	H 	0.39053	0.06027	0.10177	-0.018
Mof_C 	C 	0.5233	0.7203	0.52724	0.343
Mof_C 	C 	0.5529	0.7039	0.53817	-0.201
Mof_C 	C 	0.6135	0.7359	0.53835	0.144
Mof_H 	H 	0.6336	0.7657	0.532	0.001
Mof_C 	C 	0.6425	0.7214	0.54823	-0.26
Mof_H 	H 	0.6825	0.7419	0.5486	0.137
Mof_C 	C 	0.6119	0.6769	0.55752	0.285
Mof_C 	C 	0.553	0.6468	0.55719	-0.284
Mof_H 	H 	0.5321	0.6175	0.5636	0.137
Mof_C 	C 	0.5255	0.6614	0.54699	0.175
Mof_H 	H 	0.4856	0.6398	0.5464	-0.011
Mof_C 	C 	0.6195	0.6229	0.57648	0.035
Mof_H 	H 	0.5915	0.5876	0.5719	0.034
Mof_H 	H 	0.5999	0.6331	0.5835	0.037
Mof_C 	C 	0.6421	0.4725	0.51079	0.427
Mof_C 	C 	0.6442	0.4927	0.5254	-0.237
Mof_C 	C 	0.5997	0.4623	0.53465	0.21
Mof_H 	H 	0.566	0.4301	0.5317	-0.027
Mof_C 	C 	0.6064	0.4809	0.54858	-0.348
Mof_H 	H 	0.5786	0.4577	0.5551	0.163
Mof_C 	C 	0.6499	0.5293	0.55283	0.342
Mof_C 	C 	0.6976	0.5606	0.54411	-0.31
Mof_H 	H 	0.7304	0.5934	0.5472	0.15
Mof_C 	C 	0.693	0.5398	0.53054	0.197
Mof_H 	H 	0.7246	0.5588	0.5246	-0.016
Mof_C 	C 	0.6938	0.5968	0.57191	0.032
Mof_H 	H 	0.709	0.6254	0.5645	0.034
Mof_H 	H 	0.7251	0.5928	0.5757	0.045
Mof_C 	C 	0.4355	0.6919	0.48686	0.638
Mof_C 	C 	0.465	0.6968	0.47324	-0.584
Mof_C 	C 	0.5165	0.7033	0.47353	0.545
Mof_H 	H 	0.5334	0.7047	0.4821	-0.151
Mof_C 	C 	0.5461	0.7077	0.46146	-0.586
Mof_H 	H 	0.5836	0.7146	0.4618	0.25
Mof_C 	C 	0.5181	0.7016	0.44865	0.593
Mof_C 	C 	0.4675	0.6959	0.4493	-0.665
Mof_H 	H 	0.4496	0.6947	0.4409	0.267
Mof_C 	C 	0.438	0.6917	0.46149	0.575
Mof_H 	H 	0.4007	0.6855	0.4613	-0.137
Mof_O 	O 	0.5676	0.7026	0.44104	-0.053
Mof_O 	O 	0.5432	0.5942	0.43467	-0.041
Mof_C 	C 	0.5698	0.7165	0.4259	0.533
Mof_H 	H 	0.5739	0.7491	0.4205	-0.114
Mof_H 	H 	0.5294	0.6896	0.4275	-0.136
Mof_C 	C 	0.5753	0.6247	0.42162	-0.051
Mof_H 	H 	0.5376	0.5983	0.4178	0.053
Mof_H 	H 	0.6048	0.6216	0.4165	0.028
Mof_C 	C 	0.5728	0.5636	0.44129	0.472
Mof_C 	C 	0.6359	0.5902	0.44189	-0.349
Mof_H 	H 	0.6617	0.6214	0.4365	0.156
Mof_C 	C 	0.6521	0.5594	0.45241	0.225
Mof_H 	H 	0.6905	0.5732	0.4546	-0.024
Mof_C 	C 	0.6112	0.5125	0.45855	-0.309
Mof_C 	C 	0.5535	0.4947	0.4546	0.341
Mof_H 	H 	0.5251	0.4588	0.4577	-0.069
Mof_C 	C 	0.536	0.5255	0.4467	-0.605
Mof_H 	H 	0.4978	0.516	0.4458	0.258
Mof_C 	C 	0.6215	0.4795	0.46931	0.464
Mof_Co	Co	0.47172	0.76067	0.51339	1.183
Mof_Co	Co	0.37957	0.80914	0.51097	1.162
Mof_O 	O 	0.64614	0.66707	0.56659	-0.246
Mof_O 	O 	0.55091	0.76323	0.51968	-0.367
Mof_O 	O 	0.46862	0.69091	0.52658	-0.475
Mof_O 	O 	0.4541	0.69335	0.498	-0.657
Mof_O 	O 	0.3869	0.6869	0.48581	-0.455
Mof_O 	O 	0.38742	0.73757	0.51438	-0.587
Mof_O 	O 	0.6497	0.543	0.56658	-0.259
Mof_O 	O 	0.68519	0.49992	0.50326	-0.448
Mof_O 	O 	0.6748	0.49547	0.47131	-0.436
Mof_O 	O 	0.59472	0.42902	0.50694	-0.452
Mof_O 	O 	0.57944	0.43897	0.4749	-0.481
Mof_O 	O 	0.5542	0.7173	0.43544	-0.484
Mof_O 	O 	0.5518	0.5862	0.42937	-0.255
Mof_C 	C 	0.5182	0.6729	0.42553	0.208
Mof_H 	H 	0.4866	0.6747	0.4212	-0.03
Mof_H 	H 	0.5027	0.6396	0.4316	-0.005
Mof_C 	C 	0.5951	0.6463	0.42587	0.175
Mof_H 	H 	0.63	0.657	0.4207	-0.038
Mof_H 	H 	0.6064	0.6636	0.4351	-0.017
Mof_C 	C 	0.18997	0.05363	0.86057	0.347
Mof_C 	C 	0.21957	0.03723	0.8715	-0.215
Mof_C 	C 	0.28017	0.06923	0.87168	0.147
Mof_H 	H 	0.30027	0.09903	0.86533	-0.002
Mof_C 	C 	0.30917	0.05473	0.88156	-0.261
Mof_H 	H 	0.34917	0.07523	0.88193	0.135
Mof_C 	C 	0.27857	0.01023	0.89085	0.277
Mof_C 	C 	0.21967	0.98013	0.89052	-0.279
Mof_H 	H 	0.19877	0.95083	0.89693	0.136
Mof_C 	C 	0.19217	0.99473	0.88032	0.189
Mof_H 	H 	0.15227	0.97313	0.87973	-0.014
Mof_C 	C 	0.28617	0.95623	0.90981	0.037
Mof_H 	H 	0.25817	0.92093	0.90523	0.034
Mof_H 	H 	0.26657	0.96643	0.91683	0.039
Mof_C 	C 	0.30877	0.80583	0.84412	0.427
Mof_C 	C 	0.31087	0.82603	0.85873	-0.237
Mof_C 	C 	0.26637	0.79563	0.86798	0.21
Mof_H 	H 	0.23267	0.76343	0.86503	-0.027
Mof_C 	C 	0.27307	0.81423	0.88191	-0.347
Mof_H 	H 	0.24527	0.79103	0.88843	0.163
Mof_C 	C 	0.31657	0.86263	0.88616	0.342
Mof_C 	C 	0.36427	0.89393	0.87744	-0.309
Mof_H 	H 	0.39707	0.92673	0.88053	0.15
Mof_C 	C 	0.35967	0.87313	0.86387	0.197
Mof_H 	H 	0.39127	0.89213	0.85793	-0.016
Mof_C 	C 	0.36047	0.93013	0.90524	0.024
Mof_H 	H 	0.37567	0.95873	0.89783	0.038
Mof_H 	H 	0.39177	0.92613	0.90903	0.048
Mof_C 	C 	0.10217	0.02523	0.82019	0.64
Mof_C 	C 	0.13167	0.03013	0.80657	-0.59
Mof_C 	C 	0.18317	0.03663	0.80686	0.548
Mof_H 	H 	0.20007	0.03803	0.81543	-0.154
Mof_C 	C 	0.21277	0.04103	0.79479	-0.59
Mof_H 	H 	0.25027	0.04793	0.79513	0.249
Mof_C 	C 	0.18477	0.03493	0.78198	0.595
Mof_C 	C 	0.13417	0.02923	0.78263	-0.67
Mof_H 	H 	0.11627	0.02803	0.77423	0.266
Mof_C 	C 	0.10467	0.02503	0.79482	0.579
Mof_H 	H 	0.06737	0.01883	0.79463	-0.142
Mof_O 	O 	0.23427	0.03593	0.77437	-0.057
Mof_O 	O 	0.20987	0.92753	0.768	-0.037
Mof_C 	C 	0.23647	0.04983	0.75923	0.54
Mof_H 	H 	0.24057	0.08243	0.75383	-0.116
Mof_H 	H 	0.19607	0.02293	0.76083	-0.14
Mof_C 	C 	0.24197	0.95803	0.75495	-0.052
Mof_H 	H 	0.20427	0.93163	0.75113	0.053
Mof_H 	H 	0.27147	0.95493	0.74983	0.029
Mof_C 	C 	0.23947	0.89693	0.77462	0.473
Mof_C 	C 	0.30257	0.92353	0.77522	-0.35
Mof_H 	H 	0.32837	0.95473	0.76983	0.157
Mof_C 	C 	0.31877	0.89273	0.78574	0.225
Mof_H 	H 	0.35717	0.90653	0.78793	-0.024
Mof_C 	C 	0.27787	0.84583	0.79188	-0.31
Mof_C 	C 	0.22017	0.82803	0.78793	0.342
Mof_H 	H 	0.19177	0.79213	0.79103	-0.07
Mof_C 	C 	0.20267	0.85883	0.78003	-0.606
Mof_H 	H 	0.16447	0.84933	0.77913	0.259
Mof_C 	C 	0.28817	0.81283	0.80264	0.465
Mof_Co	Co	0.13839	0.094	0.84673	1.183
Mof_Co	Co	0.04624	0.14247	0.8443	1.159
Mof_O 	O 	0.31281	0.0004	0.89992	-0.251
Mof_O 	O 	0.21758	0.09656	0.85301	-0.369
Mof_O 	O 	0.13529	0.02424	0.85991	-0.481
Mof_O 	O 	0.12077	0.02668	0.83133	-0.66
Mof_O 	O 	0.05357	0.02023	0.81914	-0.461
Mof_O 	O 	0.05409	0.0709	0.84771	-0.592
Mof_O 	O 	0.31637	0.87633	0.89991	-0.258
Mof_O 	O 	0.35186	0.83325	0.83659	-0.448
Mof_O 	O 	0.34147	0.8288	0.80464	-0.435
Mof_O 	O 	0.26139	0.76235	0.84027	-0.452
Mof_O 	O 	0.24611	0.7723	0.80823	-0.481
Mof_O 	O 	0.22087	0.05063	0.76877	-0.485
Mof_O 	O 	0.21847	0.91953	0.7627	-0.259
Mof_C 	C 	0.18487	0.00623	0.75886	0.21
Mof_H 	H 	0.15327	0.00803	0.75453	-0.037
Mof_H 	H 	0.16937	0.97293	0.76493	-0
Mof_C 	C 	0.26177	0.97963	0.7592	0.182
Mof_H 	H 	0.29667	0.99033	0.75403	-0.035
Mof_H 	H 	0.27307	0.99693	0.76843	-0.017
Mof_C 	C 	0.85663	0.38697	0.19391	0.339
Mof_C 	C 	0.88623	0.37057	0.20484	-0.19
Mof_C 	C 	0.94683	0.40257	0.20502	0.127
Mof_H 	H 	0.96693	0.43237	0.19867	0.008
Mof_C 	C 	0.97583	0.38807	0.2149	-0.231
Mof_H 	H 	0.01583	0.40857	0.21527	0.12
Mof_C 	C 	0.94523	0.34357	0.22419	0.273
Mof_C 	C 	0.88633	0.31347	0.22386	-0.272
Mof_H 	H 	0.86543	0.28417	0.23027	0.133
Mof_C 	C 	0.85883	0.32807	0.21366	0.164
Mof_H 	H 	0.81893	0.30647	0.21307	-0.007
Mof_C 	C 	0.95283	0.28957	0.24315	0.052
Mof_H 	H 	0.92483	0.25427	0.23857	0.03
Mof_H 	H 	0.93323	0.29977	0.25017	0.034
Mof_C 	C 	0.97543	0.13917	0.17746	0.436
Mof_C 	C 	0.97753	0.15937	0.19207	-0.233
Mof_C 	C 	0.93303	0.12897	0.20132	0.213
Mof_H 	H 	0.89933	0.09677	0.19837	-0.029
Mof_C 	C 	0.93973	0.14757	0.21525	-0.353
Mof_H 	H 	0.91193	0.12437	0.22177	0.164
Mof_C 	C 	0.98323	0.19597	0.2195	0.355
Mof_C 	C 	0.03093	0.22727	0.21078	-0.322
Mof_H 	H 	0.06373	0.26007	0.21387	0.152
Mof_C 	C 	0.02633	0.20647	0.19721	0.191
Mof_H 	H 	0.05793	0.22547	0.19127	-0.016
Mof_C 	C 	0.02713	0.26347	0.23858	0.034
Mof_H 	H 	0.04233	0.29207	0.23117	0.031
Mof_H 	H 	0.05843	0.25947	0.24237	0.043
Mof_C 	C 	0.76883	0.35857	0.15353	0.638
Mof_C 	C 	0.79833	0.36347	0.13991	-0.584
Mof_C 	C 	0.84983	0.36997	0.1402	0.545
Mof_H 	H 	0.86673	0.37137	0.14877	-0.151
Mof_C 	C 	0.87943	0.37437	0.12813	-0.586
Mof_H 	H 	0.91693	0.38127	0.12847	0.25
Mof_C 	C 	0.85143	0.36827	0.11532	0.593
Mof_C 	C 	0.80083	0.36257	0.11597	-0.665
Mof_H 	H 	0.78293	0.36137	0.10757	0.267
Mof_C 	C 	0.77133	0.35837	0.12816	0.575
Mof_H 	H 	0.73403	0.35217	0.12797	-0.137
Mof_O 	O 	0.90093	0.36927	0.10771	-0.053
Mof_O 	O 	0.87653	0.26087	0.10134	-0.041
Mof_C 	C 	0.90313	0.38317	0.09257	0.533
Mof_H 	H 	0.90723	0.41577	0.08717	-0.113
Mof_H 	H 	0.86273	0.35627	0.09417	-0.136
Mof_C 	C 	0.90863	0.29137	0.08829	-0.052
Mof_H 	H 	0.87093	0.26497	0.08447	0.054
Mof_H 	H 	0.93813	0.28827	0.08317	0.029
Mof_C 	C 	0.90613	0.23027	0.10796	0.489
Mof_C 	C 	0.96923	0.25687	0.10856	-0.368
Mof_H 	H 	0.99503	0.28807	0.10317	0.164
Mof_C 	C 	0.98543	0.22607	0.11908	0.257
Mof_H 	H 	0.02383	0.23987	0.12127	-0.041
Mof_C 	C 	0.94453	0.17917	0.12522	-0.33
Mof_C 	C 	0.88683	0.16137	0.12127	0.361
Mof_H 	H 	0.85843	0.12547	0.12437	-0.076
Mof_C 	C 	0.86933	0.19217	0.11337	-0.628
Mof_H 	H 	0.83113	0.18267	0.11247	0.266
Mof_C 	C 	0.95483	0.14617	0.13598	0.482
Mof_Co	Co	0.80505	0.42734	0.18006	1.183
Mof_Co	Co	0.7129	0.47581	0.17764	1.162
Mof_O 	O 	0.97947	0.33374	0.23326	-0.242
Mof_O 	O 	0.88424	0.4299	0.18635	-0.366
Mof_O 	O 	0.80195	0.35758	0.19325	-0.474
Mof_O 	O 	0.78743	0.36002	0.16467	-0.656
Mof_O 	O 	0.72023	0.35357	0.15248	-0.455
Mof_O 	O 	0.72075	0.40424	0.18105	-0.587
Mof_O 	O 	0.98303	0.20967	0.23325	-0.257
Mof_O 	O 	0.01852	0.16659	0.16993	-0.457
Mof_O 	O 	0.00813	0.16214	0.13798	-0.447
Mof_O 	O 	0.92805	0.09569	0.17361	-0.455
Mof_O 	O 	0.91277	0.10564	0.14157	-0.486
Mof_O 	O 	0.88753	0.38397	0.10211	-0.484
Mof_O 	O 	0.88513	0.25287	0.09604	-0.258
Mof_C 	C 	0.85153	0.33957	0.0922	0.208
Mof_H 	H 	0.81993	0.34137	0.08787	-0.03
Mof_H 	H 	0.83603	0.30627	0.09827	-0.005
Mof_C 	C 	0.92843	0.31297	0.09254	0.176
Mof_H 	H 	0.96333	0.32367	0.08737	-0.039
Mof_H 	H 	0.93973	0.33027	0.10177	-0.018
Mof_C 	C 	0.2797	0.803	0.52724	0.344
Mof_C 	C 	0.2961	0.849	0.53817	-0.203
Mof_C 	C 	0.2641	0.8776	0.53835	0.146
Mof_H 	H 	0.2343	0.8679	0.532	-0
Mof_C 	C 	0.2786	0.9211	0.54823	-0.263
Mof_H 	H 	0.2581	0.9406	0.5486	0.139
Mof_C 	C 	0.3231	0.935	0.55752	0.291
Mof_C 	C 	0.3532	0.9062	0.55719	-0.288
Mof_H 	H 	0.3825	0.9146	0.5636	0.14
Mof_C 	C 	0.3386	0.8641	0.54699	0.178
Mof_H 	H 	0.3602	0.8458	0.5464	-0.012
Mof_C 	C 	0.3771	0.9966	0.57648	0.071
Mof_H 	H 	0.4124	0.0039	0.5719	0.017
Mof_H 	H 	0.3669	0.9668	0.5835	0.029
Mof_C 	C 	0.5275	0.1696	0.51079	0.427
Mof_C 	C 	0.5073	0.1515	0.5254	-0.239
Mof_C 	C 	0.5377	0.1374	0.53465	0.211
Mof_H 	H 	0.5699	0.1359	0.5317	-0.027
Mof_C 	C 	0.5191	0.1255	0.54858	-0.349
Mof_H 	H 	0.5423	0.1209	0.5551	0.163
Mof_C 	C 	0.4707	0.1206	0.55283	0.343
Mof_C 	C 	0.4394	0.137	0.54411	-0.312
Mof_H 	H 	0.4066	0.137	0.5472	0.149
Mof_C 	C 	0.4602	0.1532	0.53054	0.197
Mof_H 	H 	0.4412	0.1658	0.5246	-0.017
Mof_C 	C 	0.4032	0.097	0.57191	0.042
Mof_H 	H 	0.3746	0.0836	0.5645	0.029
Mof_H 	H 	0.4072	0.1323	0.5757	0.042
Mof_C 	C 	0.3081	0.7436	0.48686	0.638
Mof_C 	C 	0.3032	0.7682	0.47324	-0.584
Mof_C 	C 	0.2967	0.8132	0.47353	0.545
Mof_H 	H 	0.2953	0.8287	0.4821	-0.151
Mof_C 	C 	0.2923	0.8384	0.46146	-0.586
Mof_H 	H 	0.2854	0.869	0.4618	0.25
Mof_C 	C 	0.2984	0.8165	0.44865	0.594
Mof_C 	C 	0.3041	0.7716	0.4493	-0.665
Mof_H 	H 	0.3053	0.7549	0.4409	0.267
Mof_C 	C 	0.3083	0.7463	0.46149	0.575
Mof_H 	H 	0.3145	0.7152	0.4613	-0.137
Mof_O 	O 	0.2974	0.865	0.44104	-0.053
Mof_O 	O 	0.4058	0.949	0.43467	-0.041
Mof_C 	C 	0.2835	0.8533	0.4259	0.533
Mof_H 	H 	0.2509	0.8248	0.4205	-0.113
Mof_H 	H 	0.3104	0.8398	0.4275	-0.136
Mof_C 	C 	0.3753	0.9506	0.42162	-0.052
Mof_H 	H 	0.4017	0.9393	0.4178	0.054
Mof_H 	H 	0.3784	0.9832	0.4165	0.03
Mof_C 	C 	0.4364	0.0092	0.44129	0.487
Mof_C 	C 	0.4098	0.0457	0.44189	-0.363
Mof_H 	H 	0.3786	0.0403	0.4365	0.157
Mof_C 	C 	0.4406	0.0927	0.45241	0.235
Mof_H 	H 	0.4268	0.1173	0.4546	-0.029
Mof_C 	C 	0.4875	0.0987	0.45855	-0.323
Mof_C 	C 	0.5053	0.0588	0.4546	0.364
Mof_H 	H 	0.5412	0.0663	0.4577	-0.079
Mof_C 	C 	0.4745	0.0105	0.4467	-0.645
Mof_H 	H 	0.484	0.9818	0.4458	0.277
Mof_C 	C 	0.5205	0.142	0.46931	0.469
Mof_Co	Co	0.23933	0.71105	0.51339	1.183
Mof_Co	Co	0.19086	0.57043	0.51097	1.162
Mof_O 	O 	0.33293	0.97907	0.56659	-0.251
Mof_O 	O 	0.23677	0.78768	0.51968	-0.368
Mof_O 	O 	0.30909	0.77771	0.52658	-0.475
Mof_O 	O 	0.30665	0.76075	0.498	-0.656
Mof_O 	O 	0.3131	0.7	0.48581	-0.455
Mof_O 	O 	0.26243	0.64985	0.51438	-0.587
Mof_O 	O 	0.457	0.1067	0.56658	-0.262
Mof_O 	O 	0.50008	0.18527	0.50326	-0.449
Mof_O 	O 	0.50453	0.17933	0.47131	-0.437
Mof_O 	O 	0.57098	0.1657	0.50694	-0.453
Mof_O 	O 	0.56103	0.14047	0.4749	-0.483
Mof_O 	O 	0.2827	0.8369	0.43544	-0.485
Mof_O 	O 	0.4138	0.9656	0.42937	-0.254
Mof_C 	C 	0.3271	0.8453	0.42553	0.208
Mof_H 	H 	0.3253	0.8119	0.4212	-0.03
Mof_H 	H 	0.3604	0.8631	0.4316	-0.005
Mof_C 	C 	0.3537	0.9488	0.42587	0.174
Mof_H 	H 	0.343	0.973	0.4207	-0.037
Mof_H 	H 	0.3364	0.9428	0.4351	-0.016
Mof_C 	C 	0.94637	0.13633	0.86057	0.339
Mof_C 	C 	0.96277	0.18233	0.8715	-0.187
Mof_C 	C 	0.93077	0.21093	0.87168	0.14
Mof_H 	H 	0.90097	0.20123	0.86533	0.002
Mof_C 	C 	0.94527	0.25443	0.88156	-0.259
Mof_H 	H 	0.92477	0.27393	0.88193	0.137
Mof_C 	C 	0.98977	0.26833	0.89085	0.294
Mof_C 	C 	0.01987	0.23953	0.89052	-0.291
Mof_H 	H 	0.04917	0.24793	0.89693	0.137
Mof_C 	C 	0.00527	0.19743	0.88032	0.16
Mof_H 	H 	0.02687	0.17913	0.87973	-0.009
Mof_C 	C 	0.04377	0.32993	0.90981	0.035
Mof_H 	H 	0.07907	0.33723	0.90523	0.033
Mof_H 	H 	0.03357	0.30013	0.91683	0.034
Mof_C 	C 	0.19417	0.50293	0.84412	0.427
Mof_C 	C 	0.17397	0.48483	0.85873	-0.238
Mof_C 	C 	0.20437	0.47073	0.86798	0.211
Mof_H 	H 	0.23657	0.46923	0.86503	-0.027
Mof_C 	C 	0.18577	0.45883	0.88191	-0.349
Mof_H 	H 	0.20897	0.45423	0.88843	0.163
Mof_C 	C 	0.13737	0.45393	0.88616	0.343
Mof_C 	C 	0.10607	0.47033	0.87744	-0.311
Mof_H 	H 	0.07327	0.47033	0.88053	0.149
Mof_C 	C 	0.12687	0.48653	0.86387	0.197
Mof_H 	H 	0.10787	0.49913	0.85793	-0.017
Mof_C 	C 	0.06987	0.43033	0.90524	0.042
Mof_H 	H 	0.04127	0.41693	0.89783	0.028
Mof_H 	H 	0.07387	0.46563	0.90903	0.042
Mof_C 	C 	0.97477	0.07693	0.82019	0.64
Mof_C 	C 	0.96987	0.10153	0.80657	-0.588
Mof_C 	C 	0.96337	0.14653	0.80686	0.552
Mof_H 	H 	0.96197	0.16203	0.81543	-0.152
Mof_C 	C 	0.95897	0.17173	0.79479	-0.591
Mof_H 	H 	0.95207	0.20233	0.79513	0.252
Mof_C 	C 	0.96507	0.14983	0.78198	0.601
Mof_C 	C 	0.97077	0.10493	0.78263	-0.671
Mof_H 	H 	0.97197	0.08823	0.77423	0.269
Mof_C 	C 	0.97497	0.07963	0.79482	0.581
Mof_H 	H 	0.98117	0.04853	0.79463	-0.139
Mof_O 	O 	0.96407	0.19833	0.77437	-0.043
Mof_O 	O 	0.07247	0.28233	0.768	-0.044
Mof_C 	C 	0.95017	0.18663	0.75923	0.553
Mof_H 	H 	0.91757	0.15813	0.75383	-0.119
Mof_H 	H 	0.97707	0.17313	0.76083	-0.126
Mof_C 	C 	0.04197	0.28393	0.75495	-0.048
Mof_H 	H 	0.06837	0.27263	0.75113	0.051
Mof_H 	H 	0.04507	0.31653	0.74983	0.026
Mof_C 	C 	0.10307	0.34253	0.77462	0.471
Mof_C 	C 	0.07647	0.37903	0.77522	-0.35
Mof_H 	H 	0.04527	0.37363	0.76983	0.154
Mof_C 	C 	0.10727	0.42603	0.78574	0.224
Mof_H 	H 	0.09347	0.45063	0.78793	-0.025
Mof_C 	C 	0.15417	0.43203	0.79188	-0.31
Mof_C 	C 	0.17197	0.39213	0.78793	0.341
Mof_H 	H 	0.20787	0.39963	0.79103	-0.069
Mof_C 	C 	0.14117	0.34383	0.78003	-0.605
Mof_H 	H 	0.15067	0.31513	0.77913	0.258
Mof_C 	C 	0.18717	0.47533	0.80264	0.464
Mof_Co	Co	0.906	0.04438	0.84673	1.182
Mof_Co	Co	0.85753	0.90376	0.8443	1.163
Mof_O 	O 	0.9996	0.3124	0.89992	-0.242
Mof_O 	O 	0.90344	0.12101	0.85301	-0.366
Mof_O 	O 	0.97576	0.11104	0.85991	-0.47
Mof_O 	O 	0.97332	0.09408	0.83133	-0.654
Mof_O 	O 	0.97977	0.03333	0.81914	-0.454
Mof_O 	O 	0.9291	0.98318	0.84771	-0.58
Mof_O 	O 	0.12367	0.44003	0.89991	-0.261
Mof_O 	O 	0.16675	0.5186	0.83659	-0.449
Mof_O 	O 	0.1712	0.51266	0.80464	-0.436
Mof_O 	O 	0.23765	0.49903	0.84027	-0.453
Mof_O 	O 	0.2277	0.4738	0.80823	-0.481
Mof_O 	O 	0.94937	0.17023	0.76877	-0.502
Mof_O 	O 	0.08047	0.29893	0.7627	-0.254
Mof_C 	C 	0.99377	0.17863	0.75886	0.196
Mof_H 	H 	0.99197	0.14523	0.75453	-0.021
Mof_H 	H 	0.02707	0.19643	0.76493	-0.007
Mof_C 	C 	0.02037	0.28213	0.7592	0.176
Mof_H 	H 	0.00967	0.30633	0.75403	-0.045
Mof_H 	H 	0.00307	0.27613	0.76843	-0.022
Mof_C 	C 	0.61303	0.46967	0.19391	0.343
Mof_C 	C 	0.62943	0.51567	0.20484	-0.201
Mof_C 	C 	0.59743	0.54427	0.20502	0.144
Mof_H 	H 	0.56763	0.53457	0.19867	0
Mof_C 	C 	0.61193	0.58777	0.2149	-0.26
Mof_H 	H 	0.59143	0.60727	0.21527	0.136
Mof_C 	C 	0.65643	0.60167	0.22419	0.285
Mof_C 	C 	0.68653	0.57287	0.22386	-0.284
Mof_H 	H 	0.71583	0.58127	0.23027	0.137
Mof_C 	C 	0.67193	0.53077	0.21366	0.175
Mof_H 	H 	0.69353	0.51247	0.21307	-0.011
Mof_C 	C 	0.71043	0.66327	0.24315	0.035
Mof_H 	H 	0.74573	0.67057	0.23857	0.034
Mof_H 	H 	0.70023	0.63347	0.25017	0.037
Mof_C 	C 	0.86083	0.83627	0.17746	0.426
Mof_C 	C 	0.84063	0.81817	0.19207	-0.236
Mof_C 	C 	0.87103	0.80407	0.20132	0.21
Mof_H 	H 	0.90323	0.80257	0.19837	-0.025
Mof_C 	C 	0.85243	0.79217	0.21525	-0.347
Mof_H 	H 	0.87563	0.78757	0.22177	0.163
Mof_C 	C 	0.80403	0.78727	0.2195	0.342
Mof_C 	C 	0.77273	0.80367	0.21078	-0.309
Mof_H 	H 	0.73993	0.80367	0.21387	0.149
Mof_C 	C 	0.79353	0.81987	0.19721	0.196
Mof_H 	H 	0.77453	0.83247	0.19127	-0.016
Mof_C 	C 	0.73653	0.76367	0.23858	0.032
Mof_H 	H 	0.70793	0.75027	0.23117	0.034
Mof_H 	H 	0.74053	0.79897	0.24237	0.046
Mof_C 	C 	0.64143	0.41027	0.15353	0.638
Mof_C 	C 	0.63653	0.43487	0.13991	-0.584
Mof_C 	C 	0.63003	0.47987	0.1402	0.545
Mof_H 	H 	0.62863	0.49537	0.14877	-0.151
Mof_C 	C 	0.62563	0.50507	0.12813	-0.586
Mof_H 	H 	0.61873	0.53567	0.12847	0.249
Mof_C 	C 	0.63173	0.48317	0.11532	0.593
Mof_C 	C 	0.63743	0.43827	0.11597	-0.665
Mof_H 	H 	0.63863	0.42157	0.10757	0.267
Mof_C 	C 	0.64163	0.41297	0.12816	0.575
Mof_H 	H 	0.64783	0.38187	0.12797	-0.137
Mof_O 	O 	0.63073	0.53167	0.10771	-0.053
Mof_O 	O 	0.73913	0.61567	0.10134	-0.042
Mof_C 	C 	0.61683	0.51997	0.09257	0.533
Mof_H 	H 	0.58423	0.49147	0.08717	-0.113
Mof_H 	H 	0.64373	0.50647	0.09417	-0.136
Mof_C 	C 	0.70863	0.61727	0.08829	-0.051
Mof_H 	H 	0.73503	0.60597	0.08447	0.053
Mof_H 	H 	0.71173	0.64987	0.08317	0.029
Mof_C 	C 	0.76973	0.67587	0.10796	0.472
Mof_C 	C 	0.74313	0.71237	0.10856	-0.349
Mof_H 	H 	0.71193	0.70697	0.10317	0.156
Mof_C 	C 	0.77393	0.75937	0.11908	0.224
Mof_H 	H 	0.76013	0.78397	0.12127	-0.024
Mof_C 	C 	0.82083	0.76537	0.12522	-0.308
Mof_C 	C 	0.83863	0.72547	0.12127	0.341
Mof_H 	H 	0.87453	0.73297	0.12437	-0.069
Mof_C 	C 	0.80783	0.67717	0.11337	-0.604
Mof_H 	H 	0.81733	0.64847	0.11247	0.258
Mof_C 	C 	0.85383	0.80867	0.13598	0.464
Mof_Co	Co	0.57266	0.37772	0.18006	1.183
Mof_Co	Co	0.52419	0.2371	0.17764	1.162
Mof_O 	O 	0.66626	0.64574	0.23326	-0.246
Mof_O 	O 	0.5701	0.45435	0.18635	-0.368
Mof_O 	O 	0.64242	0.44438	0.19325	-0.475
Mof_O 	O 	0.63998	0.42742	0.16467	-0.657
Mof_O 	O 	0.64643	0.36667	0.15248	-0.455
Mof_O 	O 	0.59576	0.31652	0.18105	-0.587
Mof_O 	O 	0.79033	0.77337	0.23325	-0.259
Mof_O 	O 	0.83341	0.85194	0.16993	-0.448
Mof_O 	O 	0.83786	0.846	0.13798	-0.435
Mof_O 	O 	0.90431	0.83237	0.17361	-0.45
Mof_O 	O 	0.89436	0.80714	0.14157	-0.48
Mof_O 	O 	0.61603	0.50357	0.10211	-0.484
Mof_O 	O 	0.74713	0.63227	0.09604	-0.254
Mof_C 	C 	0.66043	0.51197	0.0922	0.208
Mof_H 	H 	0.65863	0.47857	0.08787	-0.03
Mof_H 	H 	0.69373	0.52977	0.09827	-0.005
Mof_C 	C 	0.68703	0.61547	0.09254	0.174
Mof_H 	H 	0.67633	0.63967	0.08737	-0.038
Mof_H 	H 	0.66973	0.60947	0.10177	-0.017
Mof_C 	C 	0.4767	0.197	0.97276	0.342
Mof_C 	C 	0.4471	0.151	0.96183	-0.2
Mof_C 	C 	0.3865	0.1224	0.96165	0.141
Mof_H 	H 	0.3664	0.1321	0.968	0
Mof_C 	C 	0.3575	0.0789	0.95177	-0.258
Mof_H 	H 	0.3175	0.0594	0.9514	0.133
Mof_C 	C 	0.3881	0.065	0.94248	0.28
Mof_C 	C 	0.447	0.0938	0.94281	-0.281
Mof_H 	H 	0.4679	0.0854	0.9364	0.134
Mof_C 	C 	0.4745	0.1359	0.95301	0.172
Mof_H 	H 	0.5144	0.1542	0.9536	-0.01
Mof_C 	C 	0.3805	0.0034	0.92352	0.003
Mof_H 	H 	0.4085	0.9961	0.9281	0.049
Mof_H 	H 	0.4001	0.0332	0.9165	0.044
Mof_C 	C 	0.3579	0.8304	0.98921	0.426
Mof_C 	C 	0.3558	0.8485	0.9746	-0.236
Mof_C 	C 	0.4003	0.8626	0.96535	0.21
Mof_H 	H 	0.434	0.8641	0.9683	-0.026
Mof_C 	C 	0.3936	0.8745	0.95142	-0.347
Mof_H 	H 	0.4214	0.8791	0.9449	0.162
Mof_C 	C 	0.3501	0.8794	0.94717	0.342
Mof_C 	C 	0.3024	0.863	0.95589	-0.308
Mof_H 	H 	0.2696	0.863	0.9528	0.149
Mof_C 	C 	0.307	0.8468	0.96946	0.197
Mof_H 	H 	0.2754	0.8342	0.9754	-0.016
Mof_C 	C 	0.3062	0.903	0.92809	0.024
Mof_H 	H 	0.291	0.9164	0.9355	0.037
Mof_H 	H 	0.2749	0.8677	0.9243	0.047
Mof_C 	C 	0.5645	0.2564	0.01314	0.638
Mof_C 	C 	0.535	0.2318	0.02676	-0.584
Mof_C 	C 	0.4835	0.1868	0.02647	0.544
Mof_H 	H 	0.4666	0.1713	0.0179	-0.152
Mof_C 	C 	0.4539	0.1616	0.03854	-0.585
Mof_H 	H 	0.4164	0.131	0.0382	0.248
Mof_C 	C 	0.4819	0.1835	0.05135	0.593
Mof_C 	C 	0.5325	0.2284	0.0507	-0.664
Mof_H 	H 	0.5504	0.2451	0.0591	0.266
Mof_C 	C 	0.562	0.2537	0.03851	0.574
Mof_H 	H 	0.5993	0.2848	0.0387	-0.137
Mof_O 	O 	0.4324	0.135	0.05896	-0.054
Mof_O 	O 	0.4568	0.051	0.06533	-0.041
Mof_C 	C 	0.4302	0.1467	0.0741	0.532
Mof_H 	H 	0.4261	0.1752	0.0795	-0.113
Mof_H 	H 	0.4706	0.1602	0.0725	-0.136
Mof_C 	C 	0.4247	0.0494	0.07838	-0.051
Mof_H 	H 	0.4624	0.0607	0.0822	0.053
Mof_H 	H 	0.3952	0.0168	0.0835	0.027
Mof_C 	C 	0.4272	0.9908	0.05871	0.456
Mof_C 	C 	0.3641	0.9543	0.05811	-0.335
Mof_H 	H 	0.3383	0.9597	0.0635	0.154
Mof_C 	C 	0.3479	0.9073	0.04759	0.213
Mof_H 	H 	0.3095	0.8827	0.0454	-0.02
Mof_C 	C 	0.3888	0.9013	0.04145	-0.295
Mof_C 	C 	0.4465	0.9412	0.0454	0.317
Mof_H 	H 	0.4749	0.9337	0.0423	-0.06
Mof_C 	C 	0.464	0.9895	0.0533	-0.562
Mof_H 	H 	0.5022	0.0182	0.0542	0.238
Mof_C 	C 	0.3785	0.858	0.03069	0.459
Mof_Co	Co	0.52828	0.28895	0.98661	1.183
Mof_Co	Co	0.62043	0.42957	0.98903	1.162
Mof_O 	O 	0.35386	0.02093	0.93341	-0.243
Mof_O 	O 	0.44909	0.21232	0.98032	-0.368
Mof_O 	O 	0.53138	0.22229	0.97342	-0.475
Mof_O 	O 	0.5459	0.23925	0.002	-0.657
Mof_O 	O 	0.6131	0.3	0.01419	-0.455
Mof_O 	O 	0.61258	0.35015	0.98562	-0.587
Mof_O 	O 	0.3503	0.8933	0.93342	-0.258
Mof_O 	O 	0.31481	0.81473	0.99674	-0.448
Mof_O 	O 	0.3252	0.82067	0.02869	-0.434
Mof_O 	O 	0.40528	0.8343	0.99306	-0.452
Mof_O 	O 	0.42056	0.85953	0.0251	-0.479
Mof_O 	O 	0.4458	0.1631	0.06456	-0.484
Mof_O 	O 	0.4482	0.0344	0.07063	-0.256
Mof_C 	C 	0.4818	0.1547	0.07447	0.208
Mof_H 	H 	0.5134	0.1881	0.0788	-0.03
Mof_H 	H 	0.4973	0.1369	0.0684	-0.005
Mof_C 	C 	0.4049	0.0512	0.07413	0.175
Mof_H 	H 	0.37	0.027	0.0793	-0.04
Mof_H 	H 	0.3936	0.0572	0.0649	-0.019
Mof_C 	C 	0.14337	0.53033	0.30609	0.347
Mof_C 	C 	0.11377	0.48433	0.29516	-0.213
Mof_C 	C 	0.05317	0.45573	0.29498	0.162
Mof_H 	H 	0.03307	0.46543	0.30133	-0.008
Mof_C 	C 	0.02417	0.41223	0.2851	-0.292
Mof_H 	H 	0.98417	0.39273	0.28473	0.154
Mof_C 	C 	0.05477	0.39833	0.27581	0.301
Mof_C 	C 	0.11367	0.42713	0.27614	-0.299
Mof_H 	H 	0.13457	0.41873	0.26973	0.142
Mof_C 	C 	0.14117	0.46923	0.28634	0.188
Mof_H 	H 	0.18107	0.48753	0.28693	-0.016
Mof_C 	C 	0.04717	0.33673	0.25685	0.049
Mof_H 	H 	0.07517	0.32943	0.26143	0.029
Mof_H 	H 	0.06677	0.36653	0.24983	0.032
Mof_C 	C 	0.02457	0.16373	0.32254	0.417
Mof_C 	C 	0.02247	0.18183	0.30793	-0.245
Mof_C 	C 	0.06697	0.19593	0.29868	0.21
Mof_H 	H 	0.10067	0.19743	0.30163	-0.027
Mof_C 	C 	0.06027	0.20783	0.28475	-0.347
Mof_H 	H 	0.08807	0.21243	0.27823	0.162
Mof_C 	C 	0.01677	0.21273	0.2805	0.334
Mof_C 	C 	0.96907	0.19633	0.28922	-0.302
Mof_H 	H 	0.93627	0.19633	0.28613	0.148
Mof_C 	C 	0.97367	0.18013	0.30279	0.206
Mof_H 	H 	0.94207	0.16753	0.30873	-0.018
Mof_C 	C 	0.97287	0.23633	0.26142	0.061
Mof_H 	H 	0.95767	0.24973	0.26883	0.028
Mof_H 	H 	0.94157	0.20103	0.25763	0.038
Mof_C 	C 	0.23117	0.58973	0.34647	0.638
Mof_C 	C 	0.20167	0.56513	0.36009	-0.584
Mof_C 	C 	0.15017	0.52013	0.3598	0.545
Mof_H 	H 	0.13327	0.50463	0.35123	-0.152
Mof_C 	C 	0.12057	0.49493	0.37187	-0.585
Mof_H 	H 	0.08307	0.46433	0.37153	0.248
Mof_C 	C 	0.14857	0.51683	0.38468	0.593
Mof_C 	C 	0.19917	0.56173	0.38403	-0.664
Mof_H 	H 	0.21707	0.57843	0.39243	0.266
Mof_C 	C 	0.22867	0.58703	0.37184	0.574
Mof_H 	H 	0.26597	0.61813	0.37203	-0.137
Mof_O 	O 	0.09907	0.46833	0.39229	-0.054
Mof_O 	O 	0.12347	0.38433	0.39866	-0.041
Mof_C 	C 	0.09687	0.48003	0.40743	0.532
Mof_H 	H 	0.09277	0.50853	0.41283	-0.113
Mof_H 	H 	0.13727	0.49353	0.40583	-0.136
Mof_C 	C 	0.09137	0.38273	0.41171	-0.051
Mof_H 	H 	0.12907	0.39403	0.41553	0.053
Mof_H 	H 	0.06187	0.35013	0.41683	0.027
Mof_C 	C 	0.09387	0.32413	0.39204	0.454
Mof_C 	C 	0.03077	0.28763	0.39144	-0.33
Mof_H 	H 	0.00497	0.29303	0.39683	0.147
Mof_C 	C 	0.01457	0.24063	0.38092	0.189
Mof_H 	H 	0.97617	0.21603	0.37873	-0.006
Mof_C 	C 	0.05547	0.23463	0.37478	-0.288
Mof_C 	C 	0.11317	0.27453	0.37873	0.32
Mof_H 	H 	0.14157	0.26703	0.37563	-0.063
Mof_C 	C 	0.13067	0.32283	0.38663	-0.58
Mof_H 	H 	0.16887	0.35153	0.38753	0.249
Mof_C 	C 	0.04517	0.19133	0.36402	0.445
Mof_Co	Co	0.19495	0.62228	0.31994	1.183
Mof_Co	Co	0.2871	0.7629	0.32236	1.162
Mof_O 	O 	0.02053	0.35426	0.26674	-0.256
Mof_O 	O 	0.11576	0.54565	0.31365	-0.37
Mof_O 	O 	0.19805	0.55562	0.30675	-0.476
Mof_O 	O 	0.21257	0.57258	0.33533	-0.657
Mof_O 	O 	0.27977	0.63333	0.34752	-0.455
Mof_O 	O 	0.27925	0.68348	0.31895	-0.588
Mof_O 	O 	0.01697	0.22663	0.26675	-0.267
Mof_O 	O 	0.98148	0.14806	0.33007	-0.439
Mof_O 	O 	0.99187	0.154	0.36202	-0.425
Mof_O 	O 	0.07195	0.16763	0.32639	-0.451
Mof_O 	O 	0.08723	0.19286	0.35843	-0.477
Mof_O 	O 	0.11247	0.49643	0.39789	-0.484
Mof_O 	O 	0.11487	0.36773	0.40396	-0.253
Mof_C 	C 	0.14847	0.48803	0.4078	0.208
Mof_H 	H 	0.18007	0.52143	0.41213	-0.03
Mof_H 	H 	0.16397	0.47023	0.40173	-0.005
Mof_C 	C 	0.07157	0.38453	0.40746	0.174
Mof_H 	H 	0.03667	0.36033	0.41263	-0.038
Mof_H 	H 	0.06027	0.39053	0.39823	-0.018
Mof_C 	C 	0.81003	0.86367	0.63943	0.343
Mof_C 	C 	0.78043	0.81767	0.6285	-0.2
Mof_C 	C 	0.71983	0.78907	0.62832	0.143
Mof_H 	H 	0.69973	0.79877	0.63467	0.001
Mof_C 	C 	0.69083	0.74557	0.61844	-0.259
Mof_H 	H 	0.65083	0.72607	0.61807	0.136
Mof_C 	C 	0.72143	0.73167	0.60915	0.285
Mof_C 	C 	0.78033	0.76047	0.60948	-0.283
Mof_H 	H 	0.80123	0.75207	0.60307	0.137
Mof_C 	C 	0.80783	0.80257	0.61968	0.174
Mof_H 	H 	0.84773	0.82087	0.62027	-0.01
Mof_C 	C 	0.71383	0.67007	0.59019	0.035
Mof_H 	H 	0.74183	0.66277	0.59477	0.034
Mof_H 	H 	0.73343	0.69987	0.58317	0.038
Mof_C 	C 	0.69123	0.49707	0.65588	0.427
Mof_C 	C 	0.68913	0.51517	0.64127	-0.237
Mof_C 	C 	0.73363	0.52927	0.63202	0.21
Mof_H 	H 	0.76733	0.53077	0.63497	-0.026
Mof_C 	C 	0.72693	0.54117	0.61809	-0.348
Mof_H 	H 	0.75473	0.54577	0.61157	0.163
Mof_C 	C 	0.68343	0.54607	0.61384	0.342
Mof_C 	C 	0.63573	0.52967	0.62256	-0.31
Mof_H 	H 	0.60293	0.52967	0.61947	0.149
Mof_C 	C 	0.64033	0.51347	0.63613	0.197
Mof_H 	H 	0.60873	0.50087	0.64207	-0.016
Mof_C 	C 	0.63953	0.56967	0.59476	0.032
Mof_H 	H 	0.62433	0.58307	0.60217	0.034
Mof_H 	H 	0.60823	0.53437	0.59097	0.045
Mof_C 	C 	0.89783	0.92307	0.67981	0.634
Mof_C 	C 	0.86833	0.89847	0.69343	-0.578
Mof_C 	C 	0.81683	0.85347	0.69314	0.54
Mof_H 	H 	0.79993	0.83797	0.68457	-0.15
Mof_C 	C 	0.78723	0.82827	0.70521	-0.582
Mof_H 	H 	0.74973	0.79767	0.70487	0.248
Mof_C 	C 	0.81523	0.85017	0.71802	0.59
Mof_C 	C 	0.86583	0.89507	0.71737	-0.66
Mof_H 	H 	0.88373	0.91177	0.72577	0.267
Mof_C 	C 	0.89533	0.92037	0.70518	0.57
Mof_H 	H 	0.93263	0.95147	0.70537	-0.131
Mof_O 	O 	0.76573	0.80167	0.72563	-0.054
Mof_O 	O 	0.79013	0.71767	0.732	-0.041
Mof_C 	C 	0.76353	0.81337	0.74077	0.531
Mof_H 	H 	0.75943	0.84187	0.74617	-0.112
Mof_H 	H 	0.80393	0.82687	0.73917	-0.137
Mof_C 	C 	0.75803	0.71607	0.74505	-0.051
Mof_H 	H 	0.79573	0.72737	0.74887	0.053
Mof_H 	H 	0.72853	0.68347	0.75017	0.028
Mof_C 	C 	0.76053	0.65747	0.72538	0.472
Mof_C 	C 	0.69743	0.62097	0.72478	-0.349
Mof_H 	H 	0.67163	0.62637	0.73017	0.156
Mof_C 	C 	0.68123	0.57397	0.71426	0.224
Mof_H 	H 	0.64283	0.54937	0.71207	-0.024
Mof_C 	C 	0.72213	0.56797	0.70812	-0.309
Mof_C 	C 	0.77983	0.60787	0.71207	0.341
Mof_H 	H 	0.80823	0.60037	0.70897	-0.069
Mof_C 	C 	0.79733	0.65617	0.71997	-0.605
Mof_H 	H 	0.83553	0.68487	0.72087	0.258
Mof_C 	C 	0.71183	0.52467	0.69736	0.464
Mof_Co	Co	0.86161	0.95562	0.65327	1.184
Mof_Co	Co	0.95376	0.09624	0.6557	1.164
Mof_O 	O 	0.68719	0.6876	0.60008	-0.246
Mof_O 	O 	0.78242	0.87899	0.64699	-0.367
Mof_O 	O 	0.86471	0.88896	0.64009	-0.473
Mof_O 	O 	0.87923	0.90592	0.66867	-0.654
Mof_O 	O 	0.94643	0.96667	0.68086	-0.446
Mof_O 	O 	0.94591	0.01682	0.65229	-0.588
Mof_O 	O 	0.68363	0.55997	0.60009	-0.259
Mof_O 	O 	0.64814	0.4814	0.66341	-0.449
Mof_O 	O 	0.65853	0.48734	0.69536	-0.436
Mof_O 	O 	0.73861	0.50097	0.65973	-0.452
Mof_O 	O 	0.75389	0.5262	0.69177	-0.481
Mof_O 	O 	0.77913	0.82977	0.73123	-0.482
Mof_O 	O 	0.78153	0.70107	0.7373	-0.255
Mof_C 	C 	0.81513	0.82137	0.74114	0.209
Mof_H 	H 	0.84673	0.85477	0.74547	-0.03
Mof_H 	H 	0.83063	0.80357	0.73507	-0.005
Mof_C 	C 	0.73823	0.71787	0.7408	0.174
Mof_H 	H 	0.70333	0.69367	0.74597	-0.038
Mof_H 	H 	0.72693	0.72387	0.73157	-0.017
Mof_C 	C 	0.7203	0.5233	0.97276	0.343
Mof_C 	C 	0.7039	0.5529	0.96183	-0.201
Mof_C 	C 	0.7359	0.6135	0.96165	0.144
Mof_H 	H 	0.7657	0.6336	0.968	0.001
Mof_C 	C 	0.7214	0.6425	0.95177	-0.26
Mof_H 	H 	0.7419	0.6825	0.9514	0.137
Mof_C 	C 	0.6769	0.6119	0.94248	0.285
Mof_C 	C 	0.6468	0.553	0.94281	-0.284
Mof_H 	H 	0.6175	0.5321	0.9364	0.137
Mof_C 	C 	0.6614	0.5255	0.95301	0.175
Mof_H 	H 	0.6398	0.4856	0.9536	-0.011
Mof_C 	C 	0.6229	0.6195	0.92352	0.035
Mof_H 	H 	0.5876	0.5915	0.9281	0.034
Mof_H 	H 	0.6331	0.5999	0.9165	0.037
Mof_C 	C 	0.4725	0.6421	0.98921	0.427
Mof_C 	C 	0.4927	0.6442	0.9746	-0.237
Mof_C 	C 	0.4623	0.5997	0.96535	0.21
Mof_H 	H 	0.4301	0.566	0.9683	-0.027
Mof_C 	C 	0.4809	0.6064	0.95142	-0.348
Mof_H 	H 	0.4577	0.5786	0.9449	0.163
Mof_C 	C 	0.5293	0.6499	0.94717	0.342
Mof_C 	C 	0.5606	0.6976	0.95589	-0.31
Mof_H 	H 	0.5934	0.7304	0.9528	0.15
Mof_C 	C 	0.5398	0.693	0.96946	0.197
Mof_H 	H 	0.5588	0.7246	0.9754	-0.016
Mof_C 	C 	0.5968	0.6938	0.92809	0.032
Mof_H 	H 	0.6254	0.709	0.9355	0.034
Mof_H 	H 	0.5928	0.7251	0.9243	0.045
Mof_C 	C 	0.6919	0.4355	0.01314	0.638
Mof_C 	C 	0.6968	0.465	0.02676	-0.584
Mof_C 	C 	0.7033	0.5165	0.02647	0.545
Mof_H 	H 	0.7047	0.5334	0.0179	-0.151
Mof_C 	C 	0.7077	0.5461	0.03854	-0.586
Mof_H 	H 	0.7146	0.5836	0.0382	0.25
Mof_C 	C 	0.7016	0.5181	0.05135	0.593
Mof_C 	C 	0.6959	0.4675	0.0507	-0.665
Mof_H 	H 	0.6947	0.4496	0.0591	0.267
Mof_C 	C 	0.6917	0.438	0.03851	0.575
Mof_H 	H 	0.6855	0.4007	0.0387	-0.137
Mof_O 	O 	0.7026	0.5676	0.05896	-0.053
Mof_O 	O 	0.5942	0.5432	0.06533	-0.041
Mof_C 	C 	0.7165	0.5698	0.0741	0.533
Mof_H 	H 	0.7491	0.5739	0.0795	-0.114
Mof_H 	H 	0.6896	0.5294	0.0725	-0.136
Mof_C 	C 	0.6247	0.5753	0.07838	-0.051
Mof_H 	H 	0.5983	0.5376	0.0822	0.053
Mof_H 	H 	0.6216	0.6048	0.0835	0.028
Mof_C 	C 	0.5636	0.5728	0.05871	0.472
Mof_C 	C 	0.5902	0.6359	0.05811	-0.349
Mof_H 	H 	0.6214	0.6617	0.0635	0.156
Mof_C 	C 	0.5594	0.6521	0.04759	0.225
Mof_H 	H 	0.5732	0.6905	0.0454	-0.024
Mof_C 	C 	0.5125	0.6112	0.04145	-0.309
Mof_C 	C 	0.4947	0.5535	0.0454	0.341
Mof_H 	H 	0.4588	0.5251	0.0423	-0.069
Mof_C 	C 	0.5255	0.536	0.0533	-0.605
Mof_H 	H 	0.516	0.4978	0.0542	0.258
Mof_C 	C 	0.4795	0.6215	0.03069	0.464
Mof_Co	Co	0.76067	0.47172	0.98661	1.183
Mof_Co	Co	0.80914	0.37957	0.98903	1.162
Mof_O 	O 	0.66707	0.64614	0.93341	-0.246
Mof_O 	O 	0.76323	0.55091	0.98032	-0.367
Mof_O 	O 	0.69091	0.46862	0.97342	-0.475
Mof_O 	O 	0.69335	0.4541	0.002	-0.657
Mof_O 	O 	0.6869	0.3869	0.01419	-0.455
Mof_O 	O 	0.73757	0.38742	0.98562	-0.587
Mof_O 	O 	0.543	0.6497	0.93342	-0.259
Mof_O 	O 	0.49992	0.68519	0.99674	-0.448
Mof_O 	O 	0.49547	0.6748	0.02869	-0.436
Mof_O 	O 	0.42902	0.59472	0.99306	-0.452
Mof_O 	O 	0.43897	0.57944	0.0251	-0.481
Mof_O 	O 	0.7173	0.5542	0.06456	-0.484
Mof_O 	O 	0.5862	0.5518	0.07063	-0.255
Mof_C 	C 	0.6729	0.5182	0.07447	0.208
Mof_H 	H 	0.6747	0.4866	0.0788	-0.03
Mof_H 	H 	0.6396	0.5027	0.0684	-0.005
Mof_C 	C 	0.6463	0.5951	0.07413	0.175
Mof_H 	H 	0.657	0.63	0.0793	-0.038
Mof_H 	H 	0.6636	0.6064	0.0649	-0.017
Mof_C 	C 	0.38697	0.85663	0.30609	0.339
Mof_C 	C 	0.37057	0.88623	0.29516	-0.19
Mof_C 	C 	0.40257	0.94683	0.29498	0.127
Mof_H 	H 	0.43237	0.96693	0.30133	0.008
Mof_C 	C 	0.38807	0.97583	0.2851	-0.231
Mof_H 	H 	0.40857	0.01583	0.28473	0.12
Mof_C 	C 	0.34357	0.94523	0.27581	0.273
Mof_C 	C 	0.31347	0.88633	0.27614	-0.272
Mof_H 	H 	0.28417	0.86543	0.26973	0.133
Mof_C 	C 	0.32807	0.85883	0.28634	0.164
Mof_H 	H 	0.30647	0.81893	0.28693	-0.007
Mof_C 	C 	0.28957	0.95283	0.25685	0.052
Mof_H 	H 	0.25427	0.92483	0.26143	0.03
Mof_H 	H 	0.29977	0.93323	0.24983	0.034
Mof_C 	C 	0.13917	0.97543	0.32254	0.436
Mof_C 	C 	0.15937	0.97753	0.30793	-0.233
Mof_C 	C 	0.12897	0.93303	0.29868	0.213
Mof_H 	H 	0.09677	0.89933	0.30163	-0.029
Mof_C 	C 	0.14757	0.93973	0.28475	-0.353
Mof_H 	H 	0.12437	0.91193	0.27823	0.164
Mof_C 	C 	0.19597	0.98323	0.2805	0.355
Mof_C 	C 	0.22727	0.03093	0.28922	-0.322
Mof_H 	H 	0.26007	0.06373	0.28613	0.152
Mof_C 	C 	0.20647	0.02633	0.30279	0.191
Mof_H 	H 	0.22547	0.05793	0.30873	-0.016
Mof_C 	C 	0.26347	0.02713	0.26142	0.034
Mof_H 	H 	0.29207	0.04233	0.26883	0.031
Mof_H 	H 	0.25947	0.05843	0.25763	0.043
Mof_C 	C 	0.35857	0.76883	0.34647	0.638
Mof_C 	C 	0.36347	0.79833	0.36009	-0.584
Mof_C 	C 	0.36997	0.84983	0.3598	0.545
Mof_H 	H 	0.37137	0.86673	0.35123	-0.151
Mof_C 	C 	0.37437	0.87943	0.37187	-0.586
Mof_H 	H 	0.38127	0.91693	0.37153	0.25
Mof_C 	C 	0.36827	0.85143	0.38468	0.593
Mof_C 	C 	0.36257	0.80083	0.38403	-0.665
Mof_H 	H 	0.36137	0.78293	0.39243	0.267
Mof_C 	C 	0.35837	0.77133	0.37184	0.575
Mof_H 	H 	0.35217	0.73403	0.37203	-0.137
Mof_O 	O 	0.36927	0.90093	0.39229	-0.053
Mof_O 	O 	0.26087	0.87653	0.39866	-0.041
Mof_C 	C 	0.38317	0.90313	0.40743	0.533
Mof_H 	H 	0.41577	0.90723	0.41283	-0.113
Mof_H 	H 	0.35627	0.86273	0.40583	-0.136
Mof_C 	C 	0.29137	0.90863	0.41171	-0.052
Mof_H 	H 	0.26497	0.87093	0.41553	0.054
Mof_H 	H 	0.28827	0.93813	0.41683	0.029
Mof_C 	C 	0.23027	0.90613	0.39204	0.489
Mof_C 	C 	0.25687	0.96923	0.39144	-0.368
Mof_H 	H 	0.28807	0.99503	0.39683	0.164
Mof_C 	C 	0.22607	0.98543	0.38092	0.257
Mof_H 	H 	0.23987	0.02383	0.37873	-0.041
Mof_C 	C 	0.17917	0.94453	0.37478	-0.33
Mof_C 	C 	0.16137	0.88683	0.37873	0.361
Mof_H 	H 	0.12547	0.85843	0.37563	-0.076
Mof_C 	C 	0.19217	0.86933	0.38663	-0.628
Mof_H 	H 	0.18267	0.83113	0.38753	0.266
Mof_C 	C 	0.14617	0.95483	0.36402	0.482
Mof_Co	Co	0.42734	0.80505	0.31994	1.183
Mof_Co	Co	0.47581	0.7129	0.32236	1.162
Mof_O 	O 	0.33374	0.97947	0.26674	-0.242
Mof_O 	O 	0.4299	0.88424	0.31365	-0.366
Mof_O 	O 	0.35758	0.80195	0.30675	-0.474
Mof_O 	O 	0.36002	0.78743	0.33533	-0.656
Mof_O 	O 	0.35357	0.72023	0.34752	-0.455
Mof_O 	O 	0.40424	0.72075	0.31895	-0.587
Mof_O 	O 	0.20967	0.98303	0.26675	-0.257
Mof_O 	O 	0.16659	0.01852	0.33007	-0.457
Mof_O 	O 	0.16214	0.00813	0.36202	-0.447
Mof_O 	O 	0.09569	0.92805	0.32639	-0.455
Mof_O 	O 	0.10564	0.91277	0.35843	-0.486
Mof_O 	O 	0.38397	0.88753	0.39789	-0.484
Mof_O 	O 	0.25287	0.88513	0.40396	-0.258
Mof_C 	C 	0.33957	0.85153	0.4078	0.208
Mof_H 	H 	0.34137	0.81993	0.41213	-0.03
Mof_H 	H 	0.30627	0.83603	0.40173	-0.005
Mof_C 	C 	0.31297	0.92843	0.40746	0.176
Mof_H 	H 	0.32367	0.96333	0.41263	-0.039
Mof_H 	H 	0.33027	0.93973	0.39823	-0.018
Mof_C 	C 	0.05363	0.18997	0.63943	0.347
Mof_C 	C 	0.03723	0.21957	0.6285	-0.215
Mof_C 	C 	0.06923	0.28017	0.62832	0.147
Mof_H 	H 	0.09903	0.30027	0.63467	-0.002
Mof_C 	C 	0.05473	0.30917	0.61844	-0.261
Mof_H 	H 	0.07523	0.34917	0.61807	0.135
Mof_C 	C 	0.01023	0.27857	0.60915	0.277
Mof_C 	C 	0.98013	0.21967	0.60948	-0.279
Mof_H 	H 	0.95083	0.19877	0.60307	0.136
Mof_C 	C 	0.99473	0.19217	0.61968	0.189
Mof_H 	H 	0.97313	0.15227	0.62027	-0.014
Mof_C 	C 	0.95623	0.28617	0.59019	0.037
Mof_H 	H 	0.92093	0.25817	0.59477	0.034
Mof_H 	H 	0.96643	0.26657	0.58317	0.039
Mof_C 	C 	0.80583	0.30877	0.65588	0.427
Mof_C 	C 	0.82603	0.31087	0.64127	-0.237
Mof_C 	C 	0.79563	0.26637	0.63202	0.21
Mof_H 	H 	0.76343	0.23267	0.63497	-0.027
Mof_C 	C 	0.81423	0.27307	0.61809	-0.347
Mof_H 	H 	0.79103	0.24527	0.61157	0.163
Mof_C 	C 	0.86263	0.31657	0.61384	0.342
Mof_C 	C 	0.89393	0.36427	0.62256	-0.309
Mof_H 	H 	0.92673	0.39707	0.61947	0.15
Mof_C 	C 	0.87313	0.35967	0.63613	0.197
Mof_H 	H 	0.89213	0.39127	0.64207	-0.016
Mof_C 	C 	0.93013	0.36047	0.59476	0.024
Mof_H 	H 	0.95873	0.37567	0.60217	0.038
Mof_H 	H 	0.92613	0.39177	0.59097	0.048
Mof_C 	C 	0.02523	0.10217	0.67981	0.64
Mof_C 	C 	0.03013	0.13167	0.69343	-0.59
Mof_C 	C 	0.03663	0.18317	0.69314	0.548
Mof_H 	H 	0.03803	0.20007	0.68457	-0.154
Mof_C 	C 	0.04103	0.21277	0.70521	-0.59
Mof_H 	H 	0.04793	0.25027	0.70487	0.249
Mof_C 	C 	0.03493	0.18477	0.71802	0.595
Mof_C 	C 	0.02923	0.13417	0.71737	-0.67
Mof_H 	H 	0.02803	0.11627	0.72577	0.266
Mof_C 	C 	0.02503	0.10467	0.70518	0.579
Mof_H 	H 	0.01883	0.06737	0.70537	-0.142
Mof_O 	O 	0.03593	0.23427	0.72563	-0.057
Mof_O 	O 	0.92753	0.20987	0.732	-0.037
Mof_C 	C 	0.04983	0.23647	0.74077	0.54
Mof_H 	H 	0.08243	0.24057	0.74617	-0.116
Mof_H 	H 	0.02293	0.19607	0.73917	-0.14
Mof_C 	C 	0.95803	0.24197	0.74505	-0.052
Mof_H 	H 	0.93163	0.20427	0.74887	0.053
Mof_H 	H 	0.95493	0.27147	0.75017	0.029
Mof_C 	C 	0.89693	0.23947	0.72538	0.473
Mof_C 	C 	0.92353	0.30257	0.72478	-0.35
Mof_H 	H 	0.95473	0.32837	0.73017	0.157
Mof_C 	C 	0.89273	0.31877	0.71426	0.225
Mof_H 	H 	0.90653	0.35717	0.71207	-0.024
Mof_C 	C 	0.84583	0.27787	0.70812	-0.31
Mof_C 	C 	0.82803	0.22017	0.71207	0.342
Mof_H 	H 	0.79213	0.19177	0.70897	-0.07
Mof_C 	C 	0.85883	0.20267	0.71997	-0.606
Mof_H 	H 	0.84933	0.16447	0.72087	0.259
Mof_C 	C 	0.81283	0.28817	0.69736	0.465
Mof_Co	Co	0.094	0.13839	0.65327	1.183
Mof_Co	Co	0.14247	0.04624	0.6557	1.159
Mof_O 	O 	0.0004	0.31281	0.60008	-0.251
Mof_O 	O 	0.09656	0.21758	0.64699	-0.369
Mof_O 	O 	0.02424	0.13529	0.64009	-0.481
Mof_O 	O 	0.02668	0.12077	0.66867	-0.66
Mof_O 	O 	0.02023	0.05357	0.68086	-0.461
Mof_O 	O 	0.0709	0.05409	0.65229	-0.592
Mof_O 	O 	0.87633	0.31637	0.60009	-0.258
Mof_O 	O 	0.83325	0.35186	0.66341	-0.448
Mof_O 	O 	0.8288	0.34147	0.69536	-0.435
Mof_O 	O 	0.76235	0.26139	0.65973	-0.452
Mof_O 	O 	0.7723	0.24611	0.69177	-0.481
Mof_O 	O 	0.05063	0.22087	0.73123	-0.485
Mof_O 	O 	0.91953	0.21847	0.7373	-0.259
Mof_C 	C 	0.00623	0.18487	0.74114	0.21
Mof_H 	H 	0.00803	0.15327	0.74547	-0.037
Mof_H 	H 	0.97293	0.16937	0.73507	-0
Mof_C 	C 	0.97963	0.26177	0.7408	0.182
Mof_H 	H 	0.99033	0.29667	0.74597	-0.035
Mof_H 	H 	0.99693	0.27307	0.73157	-0.017
Mof_C 	C 	0.803	0.2797	0.97276	0.344
Mof_C 	C 	0.849	0.2961	0.96183	-0.203
Mof_C 	C 	0.8776	0.2641	0.96165	0.146
Mof_H 	H 	0.8679	0.2343	0.968	-0
Mof_C 	C 	0.9211	0.2786	0.95177	-0.263
Mof_H 	H 	0.9406	0.2581	0.9514	0.139
Mof_C 	C 	0.935	0.3231	0.94248	0.291
Mof_C 	C 	0.9062	0.3532	0.94281	-0.288
Mof_H 	H 	0.9146	0.3825	0.9364	0.14
Mof_C 	C 	0.8641	0.3386	0.95301	0.178
Mof_H 	H 	0.8458	0.3602	0.9536	-0.012
Mof_C 	C 	0.9966	0.3771	0.92352	0.071
Mof_H 	H 	0.0039	0.4124	0.9281	0.017
Mof_H 	H 	0.9668	0.3669	0.9165	0.029
Mof_C 	C 	0.1696	0.5275	0.98921	0.427
Mof_C 	C 	0.1515	0.5073	0.9746	-0.239
Mof_C 	C 	0.1374	0.5377	0.96535	0.211
Mof_H 	H 	0.1359	0.5699	0.9683	-0.027
Mof_C 	C 	0.1255	0.5191	0.95142	-0.349
Mof_H 	H 	0.1209	0.5423	0.9449	0.163
Mof_C 	C 	0.1206	0.4707	0.94717	0.343
Mof_C 	C 	0.137	0.4394	0.95589	-0.312
Mof_H 	H 	0.137	0.4066	0.9528	0.149
Mof_C 	C 	0.1532	0.4602	0.96946	0.197
Mof_H 	H 	0.1658	0.4412	0.9754	-0.017
Mof_C 	C 	0.097	0.4032	0.92809	0.042
Mof_H 	H 	0.0836	0.3746	0.9355	0.029
Mof_H 	H 	0.1323	0.4072	0.9243	0.042
Mof_C 	C 	0.7436	0.3081	0.01314	0.638
Mof_C 	C 	0.7682	0.3032	0.02676	-0.584
Mof_C 	C 	0.8132	0.2967	0.02647	0.545
Mof_H 	H 	0.8287	0.2953	0.0179	-0.151
Mof_C 	C 	0.8384	0.2923	0.03854	-0.586
Mof_H 	H 	0.869	0.2854	0.0382	0.25
Mof_C 	C 	0.8165	0.2984	0.05135	0.594
Mof_C 	C 	0.7716	0.3041	0.0507	-0.665
Mof_H 	H 	0.7549	0.3053	0.0591	0.267
Mof_C 	C 	0.7463	0.3083	0.03851	0.575
Mof_H 	H 	0.7152	0.3145	0.0387	-0.137
Mof_O 	O 	0.865	0.2974	0.05896	-0.053
Mof_O 	O 	0.949	0.4058	0.06533	-0.041
Mof_C 	C 	0.8533	0.2835	0.0741	0.533
Mof_H 	H 	0.8248	0.2509	0.0795	-0.113
Mof_H 	H 	0.8398	0.3104	0.0725	-0.136
Mof_C 	C 	0.9506	0.3753	0.07838	-0.052
Mof_H 	H 	0.9393	0.4017	0.0822	0.054
Mof_H 	H 	0.9832	0.3784	0.0835	0.03
Mof_C 	C 	0.0092	0.4364	0.05871	0.487
Mof_C 	C 	0.0457	0.4098	0.05811	-0.363
Mof_H 	H 	0.0403	0.3786	0.0635	0.157
Mof_C 	C 	0.0927	0.4406	0.04759	0.235
Mof_H 	H 	0.1173	0.4268	0.0454	-0.029
Mof_C 	C 	0.0987	0.4875	0.04145	-0.323
Mof_C 	C 	0.0588	0.5053	0.0454	0.364
Mof_H 	H 	0.0663	0.5412	0.0423	-0.079
Mof_C 	C 	0.0105	0.4745	0.0533	-0.645
Mof_H 	H 	0.9818	0.484	0.0542	0.277
Mof_C 	C 	0.142	0.5205	0.03069	0.469
Mof_Co	Co	0.71105	0.23933	0.98661	1.183
Mof_Co	Co	0.57043	0.19086	0.98903	1.162
Mof_O 	O 	0.97907	0.33293	0.93341	-0.251
Mof_O 	O 	0.78768	0.23677	0.98032	-0.368
Mof_O 	O 	0.77771	0.30909	0.97342	-0.475
Mof_O 	O 	0.76075	0.30665	0.002	-0.656
Mof_O 	O 	0.7	0.3131	0.01419	-0.455
Mof_O 	O 	0.64985	0.26243	0.98562	-0.587
Mof_O 	O 	0.1067	0.457	0.93342	-0.262
Mof_O 	O 	0.18527	0.50008	0.99674	-0.449
Mof_O 	O 	0.17933	0.50453	0.02869	-0.437
Mof_O 	O 	0.1657	0.57098	0.99306	-0.453
Mof_O 	O 	0.14047	0.56103	0.0251	-0.483
Mof_O 	O 	0.8369	0.2827	0.06456	-0.485
Mof_O 	O 	0.9656	0.4138	0.07063	-0.254
Mof_C 	C 	0.8453	0.3271	0.07447	0.208
Mof_H 	H 	0.8119	0.3253	0.0788	-0.03
Mof_H 	H 	0.8631	0.3604	0.0684	-0.005
Mof_C 	C 	0.9488	0.3537	0.07413	0.174
Mof_H 	H 	0.973	0.343	0.0793	-0.037
Mof_H 	H 	0.9428	0.3364	0.0649	-0.016
Mof_C 	C 	0.46967	0.61303	0.30609	0.343
Mof_C 	C 	0.51567	0.62943	0.29516	-0.201
Mof_C 	C 	0.54427	0.59743	0.29498	0.144
Mof_H 	H 	0.53457	0.56763	0.30133	0
Mof_C 	C 	0.58777	0.61193	0.2851	-0.26
Mof_H 	H 	0.60727	0.59143	0.28473	0.136
Mof_C 	C 	0.60167	0.65643	0.27581	0.285
Mof_C 	C 	0.57287	0.68653	0.27614	-0.284
Mof_H 	H 	0.58127	0.71583	0.26973	0.137
Mof_C 	C 	0.53077	0.67193	0.28634	0.175
Mof_H 	H 	0.51247	0.69353	0.28693	-0.011
Mof_C 	C 	0.66327	0.71043	0.25685	0.035
Mof_H 	H 	0.67057	0.74573	0.26143	0.034
Mof_H 	H 	0.63347	0.70023	0.24983	0.037
Mof_C 	C 	0.83627	0.86083	0.32254	0.426
Mof_C 	C 	0.81817	0.84063	0.30793	-0.236
Mof_C 	C 	0.80407	0.87103	0.29868	0.21
Mof_H 	H 	0.80257	0.90323	0.30163	-0.025
Mof_C 	C 	0.79217	0.85243	0.28475	-0.347
Mof_H 	H 	0.78757	0.87563	0.27823	0.163
Mof_C 	C 	0.78727	0.80403	0.2805	0.342
Mof_C 	C 	0.80367	0.77273	0.28922	-0.309
Mof_H 	H 	0.80367	0.73993	0.28613	0.149
Mof_C 	C 	0.81987	0.79353	0.30279	0.196
Mof_H 	H 	0.83247	0.77453	0.30873	-0.016
Mof_C 	C 	0.76367	0.73653	0.26142	0.032
Mof_H 	H 	0.75027	0.70793	0.26883	0.034
Mof_H 	H 	0.79897	0.74053	0.25763	0.046
Mof_C 	C 	0.41027	0.64143	0.34647	0.638
Mof_C 	C 	0.43487	0.63653	0.36009	-0.584
Mof_C 	C 	0.47987	0.63003	0.3598	0.545
Mof_H 	H 	0.49537	0.62863	0.35123	-0.151
Mof_C 	C 	0.50507	0.62563	0.37187	-0.586
Mof_H 	H 	0.53567	0.61873	0.37153	0.249
Mof_C 	C 	0.48317	0.63173	0.38468	0.593
Mof_C 	C 	0.43827	0.63743	0.38403	-0.665
Mof_H 	H 	0.42157	0.63863	0.39243	0.267
Mof_C 	C 	0.41297	0.64163	0.37184	0.575
Mof_H 	H 	0.38187	0.64783	0.37203	-0.137
Mof_O 	O 	0.53167	0.63073	0.39229	-0.053
Mof_O 	O 	0.61567	0.73913	0.39866	-0.042
Mof_C 	C 	0.51997	0.61683	0.40743	0.533
Mof_H 	H 	0.49147	0.58423	0.41283	-0.113
Mof_H 	H 	0.50647	0.64373	0.40583	-0.136
Mof_C 	C 	0.61727	0.70863	0.41171	-0.051
Mof_H 	H 	0.60597	0.73503	0.41553	0.053
Mof_H 	H 	0.64987	0.71173	0.41683	0.029
Mof_C 	C 	0.67587	0.76973	0.39204	0.472
Mof_C 	C 	0.71237	0.74313	0.39144	-0.349
Mof_H 	H 	0.70697	0.71193	0.39683	0.156
Mof_C 	C 	0.75937	0.77393	0.38092	0.224
Mof_H 	H 	0.78397	0.76013	0.37873	-0.024
Mof_C 	C 	0.76537	0.82083	0.37478	-0.308
Mof_C 	C 	0.72547	0.83863	0.37873	0.341
Mof_H 	H 	0.73297	0.87453	0.37563	-0.069
Mof_C 	C 	0.67717	0.80783	0.38663	-0.604
Mof_H 	H 	0.64847	0.81733	0.38753	0.258
Mof_C 	C 	0.80867	0.85383	0.36402	0.464
Mof_Co	Co	0.37772	0.57266	0.31994	1.183
Mof_Co	Co	0.2371	0.52419	0.32236	1.162
Mof_O 	O 	0.64574	0.66626	0.26674	-0.246
Mof_O 	O 	0.45435	0.5701	0.31365	-0.368
Mof_O 	O 	0.44438	0.64242	0.30675	-0.475
Mof_O 	O 	0.42742	0.63998	0.33533	-0.657
Mof_O 	O 	0.36667	0.64643	0.34752	-0.455
Mof_O 	O 	0.31652	0.59576	0.31895	-0.587
Mof_O 	O 	0.77337	0.79033	0.26675	-0.259
Mof_O 	O 	0.85194	0.83341	0.33007	-0.448
Mof_O 	O 	0.846	0.83786	0.36202	-0.435
Mof_O 	O 	0.83237	0.90431	0.32639	-0.45
Mof_O 	O 	0.80714	0.89436	0.35843	-0.48
Mof_O 	O 	0.50357	0.61603	0.39789	-0.484
Mof_O 	O 	0.63227	0.74713	0.40396	-0.254
Mof_C 	C 	0.51197	0.66043	0.4078	0.208
Mof_H 	H 	0.47857	0.65863	0.41213	-0.03
Mof_H 	H 	0.52977	0.69373	0.40173	-0.005
Mof_C 	C 	0.61547	0.68703	0.40746	0.174
Mof_H 	H 	0.63967	0.67633	0.41263	-0.038
Mof_H 	H 	0.60947	0.66973	0.39823	-0.017
Mof_C 	C 	0.13633	0.94637	0.63943	0.339
Mof_C 	C 	0.18233	0.96277	0.6285	-0.187
Mof_C 	C 	0.21093	0.93077	0.62832	0.14
Mof_H 	H 	0.20123	0.90097	0.63467	0.002
Mof_C 	C 	0.25443	0.94527	0.61844	-0.259
Mof_H 	H 	0.27393	0.92477	0.61807	0.137
Mof_C 	C 	0.26833	0.98977	0.60915	0.294
Mof_C 	C 	0.23953	0.01987	0.60948	-0.291
Mof_H 	H 	0.24793	0.04917	0.60307	0.137
Mof_C 	C 	0.19743	0.00527	0.61968	0.16
Mof_H 	H 	0.17913	0.02687	0.62027	-0.009
Mof_C 	C 	0.32993	0.04377	0.59019	0.035
Mof_H 	H 	0.33723	0.07907	0.59477	0.033
Mof_H 	H 	0.30013	0.03357	0.58317	0.034
Mof_C 	C 	0.50293	0.19417	0.65588	0.427
Mof_C 	C 	0.48483	0.17397	0.64127	-0.238
Mof_C 	C 	0.47073	0.20437	0.63202	0.211
Mof_H 	H 	0.46923	0.23657	0.63497	-0.027
Mof_C 	C 	0.45883	0.18577	0.61809	-0.349
Mof_H 	H 	0.45423	0.20897	0.61157	0.163
Mof_C 	C 	0.45393	0.13737	0.61384	0.343
Mof_C 	C 	0.47033	0.10607	0.62256	-0.311
Mof_H 	H 	0.47033	0.07327	0.61947	0.149
Mof_C 	C 	0.48653	0.12687	0.63613	0.197
Mof_H 	H 	0.49913	0.10787	0.64207	-0.017
Mof_C 	C 	0.43033	0.06987	0.59476	0.042
Mof_H 	H 	0.41693	0.04127	0.60217	0.028
Mof_H 	H 	0.46563	0.07387	0.59097	0.042
Mof_C 	C 	0.07693	0.97477	0.67981	0.64
Mof_C 	C 	0.10153	0.96987	0.69343	-0.588
Mof_C 	C 	0.14653	0.96337	0.69314	0.552
Mof_H 	H 	0.16203	0.96197	0.68457	-0.152
Mof_C 	C 	0.17173	0.95897	0.70521	-0.591
Mof_H 	H 	0.20233	0.95207	0.70487	0.252
Mof_C 	C 	0.14983	0.96507	0.71802	0.601
Mof_C 	C 	0.10493	0.97077	0.71737	-0.671
Mof_H 	H 	0.08823	0.97197	0.72577	0.269
Mof_C 	C 	0.07963	0.97497	0.70518	0.581
Mof_H 	H 	0.04853	0.98117	0.70537	-0.139
Mof_O 	O 	0.19833	0.96407	0.72563	-0.043
Mof_O 	O 	0.28233	0.07247	0.732	-0.044
Mof_C 	C 	0.18663	0.95017	0.74077	0.553
Mof_H 	H 	0.15813	0.91757	0.74617	-0.119
Mof_H 	H 	0.17313	0.97707	0.73917	-0.126
Mof_C 	C 	0.28393	0.04197	0.74505	-0.048
Mof_H 	H 	0.27263	0.06837	0.74887	0.051
Mof_H 	H 	0.31653	0.04507	0.75017	0.026
Mof_C 	C 	0.34253	0.10307	0.72538	0.471
Mof_C 	C 	0.37903	0.07647	0.72478	-0.35
Mof_H 	H 	0.37363	0.04527	0.73017	0.154
Mof_C 	C 	0.42603	0.10727	0.71426	0.224
Mof_H 	H 	0.45063	0.09347	0.71207	-0.025
Mof_C 	C 	0.43203	0.15417	0.70812	-0.31
Mof_C 	C 	0.39213	0.17197	0.71207	0.341
Mof_H 	H 	0.39963	0.20787	0.70897	-0.069
Mof_C 	C 	0.34383	0.14117	0.71997	-0.605
Mof_H 	H 	0.31513	0.15067	0.72087	0.258
Mof_C 	C 	0.47533	0.18717	0.69736	0.464
Mof_Co	Co	0.04438	0.906	0.65327	1.182
Mof_Co	Co	0.90376	0.85753	0.6557	1.163
Mof_O 	O 	0.3124	0.9996	0.60008	-0.242
Mof_O 	O 	0.12101	0.90344	0.64699	-0.366
Mof_O 	O 	0.11104	0.97576	0.64009	-0.47
Mof_O 	O 	0.09408	0.97332	0.66867	-0.654
Mof_O 	O 	0.03333	0.97977	0.68086	-0.454
Mof_O 	O 	0.98318	0.9291	0.65229	-0.58
Mof_O 	O 	0.44003	0.12367	0.60009	-0.261
Mof_O 	O 	0.5186	0.16675	0.66341	-0.449
Mof_O 	O 	0.51266	0.1712	0.69536	-0.436
Mof_O 	O 	0.49903	0.23765	0.65973	-0.453
Mof_O 	O 	0.4738	0.2277	0.69177	-0.481
Mof_O 	O 	0.17023	0.94937	0.73123	-0.502
Mof_O 	O 	0.29893	0.08047	0.7373	-0.254
Mof_C 	C 	0.17863	0.99377	0.74114	0.196
Mof_H 	H 	0.14523	0.99197	0.74547	-0.021
Mof_H 	H 	0.19643	0.02707	0.73507	-0.007
Mof_C 	C 	0.28213	0.02037	0.7408	0.176
Mof_H 	H 	0.30633	0.00967	0.74597	-0.045
Mof_H 	H 	0.27613	0.00307	0.73157	-0.022
Mof_C 	C 	0.803	0.5233	0.47276	0.344
Mof_C 	C 	0.849	0.5529	0.46183	-0.203
Mof_C 	C 	0.8776	0.6135	0.46165	0.146
Mof_H 	H 	0.8679	0.6336	0.468	0
Mof_C 	C 	0.9211	0.6425	0.45177	-0.263
Mof_H 	H 	0.9406	0.6825	0.4514	0.139
Mof_C 	C 	0.935	0.6119	0.44248	0.291
Mof_C 	C 	0.9062	0.553	0.44281	-0.287
Mof_H 	H 	0.9146	0.5321	0.4364	0.139
Mof_C 	C 	0.8641	0.5255	0.45301	0.178
Mof_H 	H 	0.8458	0.4856	0.4536	-0.012
Mof_C 	C 	0.9966	0.6195	0.42352	0.069
Mof_H 	H 	0.0039	0.5915	0.4281	0.018
Mof_H 	H 	0.9668	0.5999	0.4165	0.029
Mof_C 	C 	0.1696	0.6421	0.48921	0.427
Mof_C 	C 	0.1515	0.6442	0.4746	-0.239
Mof_C 	C 	0.1374	0.5997	0.46535	0.211
Mof_H 	H 	0.1359	0.566	0.4683	-0.027
Mof_C 	C 	0.1255	0.6064	0.45142	-0.349
Mof_H 	H 	0.1209	0.5786	0.4449	0.163
Mof_C 	C 	0.1206	0.6499	0.44717	0.343
Mof_C 	C 	0.137	0.6976	0.45589	-0.311
Mof_H 	H 	0.137	0.7304	0.4528	0.15
Mof_C 	C 	0.1532	0.693	0.46946	0.197
Mof_H 	H 	0.1658	0.7246	0.4754	-0.017
Mof_C 	C 	0.097	0.6938	0.42809	0.041
Mof_H 	H 	0.0836	0.709	0.4355	0.03
Mof_H 	H 	0.1323	0.7251	0.4243	0.043
Mof_C 	C 	0.7436	0.4355	0.51314	0.638
Mof_C 	C 	0.7682	0.465	0.52676	-0.584
Mof_C 	C 	0.8132	0.5165	0.52647	0.546
Mof_H 	H 	0.8287	0.5334	0.5179	-0.151
Mof_C 	C 	0.8384	0.5461	0.53854	-0.586
Mof_H 	H 	0.869	0.5836	0.5382	0.25
Mof_C 	C 	0.8165	0.5181	0.55135	0.594
Mof_C 	C 	0.7716	0.4675	0.5507	-0.665
Mof_H 	H 	0.7549	0.4496	0.5591	0.267
Mof_C 	C 	0.7463	0.438	0.53851	0.575
Mof_H 	H 	0.7152	0.4007	0.5387	-0.137
Mof_O 	O 	0.865	0.5676	0.55896	-0.052
Mof_O 	O 	0.949	0.5432	0.56533	-0.041
Mof_C 	C 	0.8533	0.5698	0.5741	0.534
Mof_H 	H 	0.8248	0.5739	0.5795	-0.114
Mof_H 	H 	0.8398	0.5294	0.5725	-0.136
Mof_C 	C 	0.9506	0.5753	0.57838	-0.052
Mof_H 	H 	0.9393	0.5376	0.5822	0.054
Mof_H 	H 	0.9832	0.6048	0.5835	0.03
Mof_C 	C 	0.0092	0.5728	0.55871	0.488
Mof_C 	C 	0.0457	0.6359	0.55811	-0.363
Mof_H 	H 	0.0403	0.6617	0.5635	0.158
Mof_C 	C 	0.0927	0.6521	0.54759	0.235
Mof_H 	H 	0.1173	0.6905	0.5454	-0.028
Mof_C 	C 	0.0987	0.6112	0.54145	-0.323
Mof_C 	C 	0.0588	0.5535	0.5454	0.364
Mof_H 	H 	0.0663	0.5251	0.5423	-0.079
Mof_C 	C 	0.0105	0.536	0.5533	-0.646
Mof_H 	H 	0.9818	0.4978	0.5542	0.277
Mof_C 	C 	0.142	0.6215	0.53069	0.469
Mof_Co	Co	0.71105	0.47172	0.48661	1.183
Mof_Co	Co	0.57043	0.37957	0.48903	1.162
Mof_O 	O 	0.97907	0.64614	0.43341	-0.25
Mof_O 	O 	0.78768	0.55091	0.48032	-0.367
Mof_O 	O 	0.77771	0.46862	0.47342	-0.475
Mof_O 	O 	0.76075	0.4541	0.502	-0.656
Mof_O 	O 	0.7	0.3869	0.51419	-0.455
Mof_O 	O 	0.64985	0.38742	0.48562	-0.587
Mof_O 	O 	0.1067	0.6497	0.43342	-0.261
Mof_O 	O 	0.18527	0.68519	0.49674	-0.449
Mof_O 	O 	0.17933	0.6748	0.52869	-0.437
Mof_O 	O 	0.1657	0.59472	0.49306	-0.453
Mof_O 	O 	0.14047	0.57944	0.5251	-0.483
Mof_O 	O 	0.8369	0.5542	0.56456	-0.485
Mof_O 	O 	0.9656	0.5518	0.57063	-0.254
Mof_C 	C 	0.8453	0.5182	0.57447	0.208
Mof_H 	H 	0.8119	0.4866	0.5788	-0.03
Mof_H 	H 	0.8631	0.5027	0.5684	-0.005
Mof_C 	C 	0.9488	0.5951	0.57413	0.174
Mof_H 	H 	0.973	0.63	0.5793	-0.037
Mof_H 	H 	0.9428	0.6064	0.5649	-0.016
Mof_C 	C 	0.46967	0.85663	0.80609	0.339
Mof_C 	C 	0.51567	0.88623	0.79516	-0.191
Mof_C 	C 	0.54427	0.94683	0.79498	0.127
Mof_H 	H 	0.53457	0.96693	0.80133	0.008
Mof_C 	C 	0.58777	0.97583	0.7851	-0.232
Mof_H 	H 	0.60727	0.01583	0.78473	0.12
Mof_C 	C 	0.60167	0.94523	0.77581	0.273
Mof_C 	C 	0.57287	0.88633	0.77614	-0.273
Mof_H 	H 	0.58127	0.86543	0.76973	0.133
Mof_C 	C 	0.53077	0.85883	0.78634	0.164
Mof_H 	H 	0.51247	0.81893	0.78693	-0.007
Mof_C 	C 	0.66327	0.95283	0.75685	0.051
Mof_H 	H 	0.67057	0.92483	0.76143	0.03
Mof_H 	H 	0.63347	0.93323	0.74983	0.034
Mof_C 	C 	0.83627	0.97543	0.82254	0.435
Mof_C 	C 	0.81817	0.97753	0.80793	-0.232
Mof_C 	C 	0.80407	0.93303	0.79868	0.212
Mof_H 	H 	0.80257	0.89933	0.80163	-0.027
Mof_C 	C 	0.79217	0.93973	0.78475	-0.352
Mof_H 	H 	0.78757	0.91193	0.77823	0.165
Mof_C 	C 	0.78727	0.98323	0.7805	0.353
Mof_C 	C 	0.80367	0.03093	0.78922	-0.32
Mof_H 	H 	0.80367	0.06373	0.78613	0.152
Mof_C 	C 	0.81987	0.02633	0.80279	0.191
Mof_H 	H 	0.83247	0.05793	0.80873	-0.015
Mof_C 	C 	0.76367	0.02713	0.76142	0.034
Mof_H 	H 	0.75027	0.04233	0.76883	0.031
Mof_H 	H 	0.79897	0.05843	0.75763	0.044
Mof_C 	C 	0.41027	0.76883	0.84647	0.638
Mof_C 	C 	0.43487	0.79833	0.86009	-0.584
Mof_C 	C 	0.47987	0.84983	0.8598	0.545
Mof_H 	H 	0.49537	0.86673	0.85123	-0.151
Mof_C 	C 	0.50507	0.87943	0.87187	-0.586
Mof_H 	H 	0.53567	0.91693	0.87153	0.25
Mof_C 	C 	0.48317	0.85143	0.88468	0.594
Mof_C 	C 	0.43827	0.80083	0.88403	-0.665
Mof_H 	H 	0.42157	0.78293	0.89243	0.267
Mof_C 	C 	0.41297	0.77133	0.87184	0.575
Mof_H 	H 	0.38187	0.73403	0.87203	-0.137
Mof_O 	O 	0.53167	0.90093	0.89229	-0.053
Mof_O 	O 	0.61567	0.87653	0.89866	-0.042
Mof_C 	C 	0.51997	0.90313	0.90743	0.533
Mof_H 	H 	0.49147	0.90723	0.91283	-0.113
Mof_H 	H 	0.50647	0.86273	0.90583	-0.136
Mof_C 	C 	0.61727	0.90863	0.91171	-0.052
Mof_H 	H 	0.60597	0.87093	0.91553	0.054
Mof_H 	H 	0.64987	0.93813	0.91683	0.029
Mof_C 	C 	0.67587	0.90613	0.89204	0.487
Mof_C 	C 	0.71237	0.96923	0.89144	-0.366
Mof_H 	H 	0.70697	0.99503	0.89683	0.164
Mof_C 	C 	0.75937	0.98543	0.88092	0.254
Mof_H 	H 	0.78397	0.02383	0.87873	-0.039
Mof_C 	C 	0.76537	0.94453	0.87478	-0.327
Mof_C 	C 	0.72547	0.88683	0.87873	0.359
Mof_H 	H 	0.73297	0.85843	0.87563	-0.075
Mof_C 	C 	0.67717	0.86933	0.88663	-0.625
Mof_H 	H 	0.64847	0.83113	0.88753	0.265
Mof_C 	C 	0.80867	0.95483	0.86402	0.48
Mof_Co	Co	0.37772	0.80505	0.81994	1.183
Mof_Co	Co	0.2371	0.7129	0.82236	1.162
Mof_O 	O 	0.64574	0.97947	0.76674	-0.242
Mof_O 	O 	0.45435	0.88424	0.81365	-0.366
Mof_O 	O 	0.44438	0.80195	0.80675	-0.474
Mof_O 	O 	0.42742	0.78743	0.83533	-0.656
Mof_O 	O 	0.36667	0.72023	0.84752	-0.455
Mof_O 	O 	0.31652	0.72075	0.81895	-0.587
Mof_O 	O 	0.77337	0.98303	0.76675	-0.257
Mof_O 	O 	0.85194	0.01852	0.83007	-0.456
Mof_O 	O 	0.846	0.00813	0.86202	-0.445
Mof_O 	O 	0.83237	0.92805	0.82639	-0.453
Mof_O 	O 	0.80714	0.91277	0.85843	-0.484
Mof_O 	O 	0.50357	0.88753	0.89789	-0.484
Mof_O 	O 	0.63227	0.88513	0.90396	-0.257
Mof_C 	C 	0.51197	0.85153	0.9078	0.208
Mof_H 	H 	0.47857	0.81993	0.91213	-0.03
Mof_H 	H 	0.52977	0.83603	0.90173	-0.005
Mof_C 	C 	0.61547	0.92843	0.90746	0.175
Mof_H 	H 	0.63967	0.96333	0.91263	-0.039
Mof_H 	H 	0.60947	0.93973	0.89823	-0.017
Mof_C 	C 	0.13633	0.18997	0.13943	0.343
Mof_C 	C 	0.18233	0.21957	0.1285	-0.202
Mof_C 	C 	0.21093	0.28017	0.12832	0.144
Mof_H 	H 	0.20123	0.30027	0.13467	-0
Mof_C 	C 	0.25443	0.30917	0.11844	-0.261
Mof_H 	H 	0.27393	0.34917	0.11807	0.136
Mof_C 	C 	0.26833	0.27857	0.10915	0.286
Mof_C 	C 	0.23953	0.21967	0.10948	-0.285
Mof_H 	H 	0.24793	0.19877	0.10307	0.136
Mof_C 	C 	0.19743	0.19217	0.11968	0.175
Mof_H 	H 	0.17913	0.15227	0.12027	-0.013
Mof_C 	C 	0.32993	0.28617	0.09019	0.036
Mof_H 	H 	0.33723	0.25817	0.09477	0.034
Mof_H 	H 	0.30013	0.26657	0.08317	0.036
Mof_C 	C 	0.50293	0.30877	0.15588	0.427
Mof_C 	C 	0.48483	0.31087	0.14127	-0.238
Mof_C 	C 	0.47073	0.26637	0.13202	0.21
Mof_H 	H 	0.46923	0.23267	0.13497	-0.027
Mof_C 	C 	0.45883	0.27307	0.11809	-0.348
Mof_H 	H 	0.45423	0.24527	0.11157	0.163
Mof_C 	C 	0.45393	0.31657	0.11384	0.343
Mof_C 	C 	0.47033	0.36427	0.12256	-0.31
Mof_H 	H 	0.47033	0.39707	0.11947	0.149
Mof_C 	C 	0.48653	0.35967	0.13613	0.197
Mof_H 	H 	0.49913	0.39127	0.14207	-0.016
Mof_C 	C 	0.43033	0.36047	0.09476	0.033
Mof_H 	H 	0.41693	0.37567	0.10217	0.034
Mof_H 	H 	0.46563	0.39177	0.09097	0.045
Mof_C 	C 	0.07693	0.10217	0.17981	0.641
Mof_C 	C 	0.10153	0.13167	0.19343	-0.589
Mof_C 	C 	0.14653	0.18317	0.19314	0.549
Mof_H 	H 	0.16203	0.20007	0.18457	-0.153
Mof_C 	C 	0.17173	0.21277	0.20521	-0.589
Mof_H 	H 	0.20233	0.25027	0.20487	0.25
Mof_C 	C 	0.14983	0.18477	0.21802	0.596
Mof_C 	C 	0.10493	0.13417	0.21737	-0.669
Mof_H 	H 	0.08823	0.11627	0.22577	0.266
Mof_C 	C 	0.07963	0.10467	0.20518	0.579
Mof_H 	H 	0.04853	0.06737	0.20537	-0.142
Mof_O 	O 	0.19833	0.23427	0.22563	-0.053
Mof_O 	O 	0.28233	0.20987	0.232	-0.041
Mof_C 	C 	0.18663	0.23647	0.24077	0.535
Mof_H 	H 	0.15813	0.24057	0.24617	-0.114
Mof_H 	H 	0.17313	0.19607	0.23917	-0.136
Mof_C 	C 	0.28393	0.24197	0.24505	-0.051
Mof_H 	H 	0.27263	0.20427	0.24887	0.053
Mof_H 	H 	0.31653	0.27147	0.25017	0.028
Mof_C 	C 	0.34253	0.23947	0.22538	0.472
Mof_C 	C 	0.37903	0.30257	0.22478	-0.35
Mof_H 	H 	0.37363	0.32837	0.23017	0.156
Mof_C 	C 	0.42603	0.31877	0.21426	0.224
Mof_H 	H 	0.45063	0.35717	0.21207	-0.024
Mof_C 	C 	0.43203	0.27787	0.20812	-0.309
Mof_C 	C 	0.39213	0.22017	0.21207	0.341
Mof_H 	H 	0.39963	0.19177	0.20897	-0.07
Mof_C 	C 	0.34383	0.20267	0.21997	-0.605
Mof_H 	H 	0.31513	0.16447	0.22087	0.258
Mof_C 	C 	0.47533	0.28817	0.19736	0.464
Mof_Co	Co	0.04438	0.13839	0.15327	1.181
Mof_Co	Co	0.90376	0.04624	0.1557	1.16
Mof_O 	O 	0.3124	0.31281	0.10008	-0.247
Mof_O 	O 	0.12101	0.21758	0.14699	-0.368
Mof_O 	O 	0.11104	0.13529	0.14009	-0.477
Mof_O 	O 	0.09408	0.12077	0.16867	-0.658
Mof_O 	O 	0.03333	0.05357	0.18086	-0.462
Mof_O 	O 	0.98318	0.05409	0.15229	-0.584
Mof_O 	O 	0.44003	0.31637	0.10009	-0.259
Mof_O 	O 	0.5186	0.35186	0.16341	-0.449
Mof_O 	O 	0.51266	0.34147	0.19536	-0.436
Mof_O 	O 	0.49903	0.26139	0.15973	-0.452
Mof_O 	O 	0.4738	0.24611	0.19177	-0.481
Mof_O 	O 	0.17023	0.22087	0.23123	-0.486
Mof_O 	O 	0.29893	0.21847	0.2373	-0.255
Mof_C 	C 	0.17863	0.18487	0.24114	0.208
Mof_H 	H 	0.14523	0.15327	0.24547	-0.031
Mof_H 	H 	0.19643	0.16937	0.23507	-0.005
Mof_C 	C 	0.28213	0.26177	0.2408	0.175
Mof_H 	H 	0.30633	0.29667	0.24597	-0.039
Mof_H 	H 	0.27613	0.27307	0.23157	-0.018
Mof_C 	C 	0.4767	0.2797	0.47276	0.343
Mof_C 	C 	0.4471	0.2961	0.46183	-0.201
Mof_C 	C 	0.3865	0.2641	0.46165	0.143
Mof_H 	H 	0.3664	0.2343	0.468	-0.001
Mof_C 	C 	0.3575	0.2786	0.45177	-0.26
Mof_H 	H 	0.3175	0.2581	0.4514	0.135
Mof_C 	C 	0.3881	0.3231	0.44248	0.285
Mof_C 	C 	0.447	0.3532	0.44281	-0.284
Mof_H 	H 	0.4679	0.3825	0.4364	0.137
Mof_C 	C 	0.4745	0.3386	0.45301	0.175
Mof_H 	H 	0.5144	0.3602	0.4536	-0.011
Mof_C 	C 	0.3805	0.3771	0.42352	0.036
Mof_H 	H 	0.4085	0.4124	0.4281	0.034
Mof_H 	H 	0.4001	0.3669	0.4165	0.037
Mof_C 	C 	0.3579	0.5275	0.48921	0.427
Mof_C 	C 	0.3558	0.5073	0.4746	-0.238
Mof_C 	C 	0.4003	0.5377	0.46535	0.21
Mof_H 	H 	0.434	0.5699	0.4683	-0.027
Mof_C 	C 	0.3936	0.5191	0.45142	-0.348
Mof_H 	H 	0.4214	0.5423	0.4449	0.163
Mof_C 	C 	0.3501	0.4707	0.44717	0.342
Mof_C 	C 	0.3024	0.4394	0.45589	-0.31
Mof_H 	H 	0.2696	0.4066	0.4528	0.149
Mof_C 	C 	0.307	0.4602	0.46946	0.197
Mof_H 	H 	0.2754	0.4412	0.4754	-0.017
Mof_C 	C 	0.3062	0.4032	0.42809	0.033
Mof_H 	H 	0.291	0.3746	0.4355	0.033
Mof_H 	H 	0.2749	0.4072	0.4243	0.045
Mof_C 	C 	0.5645	0.3081	0.51314	0.638
Mof_C 	C 	0.535	0.3032	0.52676	-0.584
Mof_C 	C 	0.4835	0.2967	0.52647	0.545
Mof_H 	H 	0.4666	0.2953	0.5179	-0.152
Mof_C 	C 	0.4539	0.2923	0.53854	-0.585
Mof_H 	H 	0.4164	0.2854	0.5382	0.249
Mof_C 	C 	0.4819	0.2984	0.55135	0.593
Mof_C 	C 	0.5325	0.3041	0.5507	-0.665
Mof_H 	H 	0.5504	0.3053	0.5591	0.267
Mof_C 	C 	0.562	0.3083	0.53851	0.575
Mof_H 	H 	0.5993	0.3145	0.5387	-0.137
Mof_O 	O 	0.4324	0.2974	0.55896	-0.054
Mof_O 	O 	0.4568	0.4058	0.56533	-0.041
Mof_C 	C 	0.4302	0.2835	0.5741	0.533
Mof_H 	H 	0.4261	0.2509	0.5795	-0.113
Mof_H 	H 	0.4706	0.3104	0.5725	-0.136
Mof_C 	C 	0.4247	0.3753	0.57838	-0.051
Mof_H 	H 	0.4624	0.4017	0.5822	0.053
Mof_H 	H 	0.3952	0.3784	0.5835	0.028
Mof_C 	C 	0.4272	0.4364	0.55871	0.472
Mof_C 	C 	0.3641	0.4098	0.55811	-0.35
Mof_H 	H 	0.3383	0.3786	0.5635	0.155
Mof_C 	C 	0.3479	0.4406	0.54759	0.224
Mof_H 	H 	0.3095	0.4268	0.5454	-0.025
Mof_C 	C 	0.3888	0.4875	0.54145	-0.309
Mof_C 	C 	0.4465	0.5053	0.5454	0.341
Mof_H 	H 	0.4749	0.5412	0.5423	-0.069
Mof_C 	C 	0.464	0.4745	0.5533	-0.605
Mof_H 	H 	0.5022	0.484	0.5542	0.258
Mof_C 	C 	0.3785	0.5205	0.53069	0.464
Mof_Co	Co	0.52828	0.23933	0.48661	1.183
Mof_Co	Co	0.62043	0.19086	0.48903	1.162
Mof_O 	O 	0.35386	0.33293	0.43341	-0.247
Mof_O 	O 	0.44909	0.23677	0.48032	-0.368
Mof_O 	O 	0.53138	0.30909	0.47342	-0.475
Mof_O 	O 	0.5459	0.30665	0.502	-0.657
Mof_O 	O 	0.6131	0.3131	0.51419	-0.455
Mof_O 	O 	0.61258	0.26243	0.48562	-0.587
Mof_O 	O 	0.3503	0.457	0.43342	-0.26
Mof_O 	O 	0.31481	0.50008	0.49674	-0.449
Mof_O 	O 	0.3252	0.50453	0.52869	-0.436
Mof_O 	O 	0.40528	0.57098	0.49306	-0.452
Mof_O 	O 	0.42056	0.56103	0.5251	-0.481
Mof_O 	O 	0.4458	0.2827	0.56456	-0.484
Mof_O 	O 	0.4482	0.4138	0.57063	-0.255
Mof_C 	C 	0.4818	0.3271	0.57447	0.208
Mof_H 	H 	0.5134	0.3253	0.5788	-0.03
Mof_H 	H 	0.4973	0.3604	0.5684	-0.005
Mof_C 	C 	0.4049	0.3537	0.57413	0.175
Mof_H 	H 	0.37	0.343	0.5793	-0.039
Mof_H 	H 	0.3936	0.3364	0.5649	-0.018
Mof_C 	C 	0.14337	0.61303	0.80609	0.347
Mof_C 	C 	0.11377	0.62943	0.79516	-0.213
Mof_C 	C 	0.05317	0.59743	0.79498	0.162
Mof_H 	H 	0.03307	0.56763	0.80133	-0.008
Mof_C 	C 	0.02417	0.61193	0.7851	-0.291
Mof_H 	H 	0.98417	0.59143	0.78473	0.153
Mof_C 	C 	0.05477	0.65643	0.77581	0.301
Mof_C 	C 	0.11367	0.68653	0.77614	-0.298
Mof_H 	H 	0.13457	0.71583	0.76973	0.142
Mof_C 	C 	0.14117	0.67193	0.78634	0.188
Mof_H 	H 	0.18107	0.69353	0.78693	-0.016
Mof_C 	C 	0.04717	0.71043	0.75685	0.048
Mof_H 	H 	0.07517	0.74573	0.76143	0.03
Mof_H 	H 	0.06677	0.70023	0.74983	0.032
Mof_C 	C 	0.02457	0.86083	0.82254	0.418
Mof_C 	C 	0.02247	0.84063	0.80793	-0.243
Mof_C 	C 	0.06697	0.87103	0.79868	0.209
Mof_H 	H 	0.10067	0.90323	0.80163	-0.025
Mof_C 	C 	0.06027	0.85243	0.78475	-0.345
Mof_H 	H 	0.08807	0.87563	0.77823	0.162
Mof_C 	C 	0.01677	0.80403	0.7805	0.334
Mof_C 	C 	0.96907	0.77273	0.78922	-0.301
Mof_H 	H 	0.93627	0.73993	0.78613	0.148
Mof_C 	C 	0.97367	0.79353	0.80279	0.204
Mof_H 	H 	0.94207	0.77453	0.80873	-0.018
Mof_C 	C 	0.97287	0.73653	0.76142	0.058
Mof_H 	H 	0.95767	0.70793	0.76883	0.029
Mof_H 	H 	0.94157	0.74053	0.75763	0.039
Mof_C 	C 	0.23117	0.64143	0.84647	0.638
Mof_C 	C 	0.20167	0.63653	0.86009	-0.584
Mof_C 	C 	0.15017	0.63003	0.8598	0.544
Mof_H 	H 	0.13327	0.62863	0.85123	-0.152
Mof_C 	C 	0.12057	0.62563	0.87187	-0.585
Mof_H 	H 	0.08307	0.61873	0.87153	0.248
Mof_C 	C 	0.14857	0.63173	0.88468	0.593
Mof_C 	C 	0.19917	0.63743	0.88403	-0.664
Mof_H 	H 	0.21707	0.63863	0.89243	0.266
Mof_C 	C 	0.22867	0.64163	0.87184	0.574
Mof_H 	H 	0.26597	0.64783	0.87203	-0.137
Mof_O 	O 	0.09907	0.63073	0.89229	-0.054
Mof_O 	O 	0.12347	0.73913	0.89866	-0.041
Mof_C 	C 	0.09687	0.61683	0.90743	0.532
Mof_H 	H 	0.09277	0.58423	0.91283	-0.113
Mof_H 	H 	0.13727	0.64373	0.90583	-0.136
Mof_C 	C 	0.09137	0.70863	0.91171	-0.051
Mof_H 	H 	0.12907	0.73503	0.91553	0.053
Mof_H 	H 	0.06187	0.71173	0.91683	0.028
Mof_C 	C 	0.09387	0.76973	0.89204	0.455
Mof_C 	C 	0.03077	0.74313	0.89144	-0.331
Mof_H 	H 	0.00497	0.71193	0.89683	0.147
Mof_C 	C 	0.01457	0.77393	0.88092	0.192
Mof_H 	H 	0.97617	0.76013	0.87873	-0.007
Mof_C 	C 	0.05547	0.82083	0.87478	-0.289
Mof_C 	C 	0.11317	0.83863	0.87873	0.322
Mof_H 	H 	0.14157	0.87453	0.87563	-0.062
Mof_C 	C 	0.13067	0.80783	0.88663	-0.582
Mof_H 	H 	0.16887	0.81733	0.88753	0.25
Mof_C 	C 	0.04517	0.85383	0.86402	0.447
Mof_Co	Co	0.19495	0.57266	0.81994	1.183
Mof_Co	Co	0.2871	0.52419	0.82236	1.162
Mof_O 	O 	0.02053	0.66626	0.76674	-0.256
Mof_O 	O 	0.11576	0.5701	0.81365	-0.37
Mof_O 	O 	0.19805	0.64242	0.80675	-0.476
Mof_O 	O 	0.21257	0.63998	0.83533	-0.657
Mof_O 	O 	0.27977	0.64643	0.84752	-0.455
Mof_O 	O 	0.27925	0.59576	0.81895	-0.587
Mof_O 	O 	0.01697	0.79033	0.76675	-0.266
Mof_O 	O 	0.98148	0.83341	0.83007	-0.44
Mof_O 	O 	0.99187	0.83786	0.86202	-0.425
Mof_O 	O 	0.07195	0.90431	0.82639	-0.449
Mof_O 	O 	0.08723	0.89436	0.85843	-0.476
Mof_O 	O 	0.11247	0.61603	0.89789	-0.484
Mof_O 	O 	0.11487	0.74713	0.90396	-0.252
Mof_C 	C 	0.14847	0.66043	0.9078	0.208
Mof_H 	H 	0.18007	0.65863	0.91213	-0.03
Mof_H 	H 	0.16397	0.69373	0.90173	-0.005
Mof_C 	C 	0.07157	0.68703	0.90746	0.174
Mof_H 	H 	0.03667	0.67633	0.91263	-0.038
Mof_H 	H 	0.06027	0.66973	0.89823	-0.018
Mof_C 	C 	0.81003	0.94637	0.13943	0.339
Mof_C 	C 	0.78043	0.96277	0.1285	-0.187
Mof_C 	C 	0.71983	0.93077	0.12832	0.14
Mof_H 	H 	0.69973	0.90097	0.13467	0.002
Mof_C 	C 	0.69083	0.94527	0.11844	-0.259
Mof_H 	H 	0.65083	0.92477	0.11807	0.137
Mof_C 	C 	0.72143	0.98977	0.10915	0.293
Mof_C 	C 	0.78033	0.01987	0.10948	-0.29
Mof_H 	H 	0.80123	0.04917	0.10307	0.137
Mof_C 	C 	0.80783	0.00527	0.11968	0.161
Mof_H 	H 	0.84773	0.02687	0.12027	-0.008
Mof_C 	C 	0.71383	0.04377	0.09019	0.034
Mof_H 	H 	0.74183	0.07907	0.09477	0.033
Mof_H 	H 	0.73343	0.03357	0.08317	0.035
Mof_C 	C 	0.69123	0.19417	0.15588	0.427
Mof_C 	C 	0.68913	0.17397	0.14127	-0.238
Mof_C 	C 	0.73363	0.20437	0.13202	0.21
Mof_H 	H 	0.76733	0.23657	0.13497	-0.027
Mof_C 	C 	0.72693	0.18577	0.11809	-0.349
Mof_H 	H 	0.75473	0.20897	0.11157	0.163
Mof_C 	C 	0.68343	0.13737	0.11384	0.343
Mof_C 	C 	0.63573	0.10607	0.12256	-0.311
Mof_H 	H 	0.60293	0.07327	0.11947	0.149
Mof_C 	C 	0.64033	0.12687	0.13613	0.197
Mof_H 	H 	0.60873	0.10787	0.14207	-0.017
Mof_C 	C 	0.63953	0.06987	0.09476	0.042
Mof_H 	H 	0.62433	0.04127	0.10217	0.029
Mof_H 	H 	0.60823	0.07387	0.09097	0.042
Mof_C 	C 	0.89783	0.97477	0.17981	0.637
Mof_C 	C 	0.86833	0.96987	0.19343	-0.583
Mof_C 	C 	0.81683	0.96337	0.19314	0.547
Mof_H 	H 	0.79993	0.96197	0.18457	-0.151
Mof_C 	C 	0.78723	0.95897	0.20521	-0.588
Mof_H 	H 	0.74973	0.95207	0.20487	0.251
Mof_C 	C 	0.81523	0.96507	0.21802	0.598
Mof_C 	C 	0.86583	0.97077	0.21737	-0.666
Mof_H 	H 	0.88373	0.97197	0.22577	0.27
Mof_C 	C 	0.89533	0.97497	0.20518	0.576
Mof_H 	H 	0.93263	0.98117	0.20537	-0.134
Mof_O 	O 	0.76573	0.96407	0.22563	-0.044
Mof_O 	O 	0.79013	0.07247	0.232	-0.043
Mof_C 	C 	0.76353	0.95017	0.24077	0.55
Mof_H 	H 	0.75943	0.91757	0.24617	-0.118
Mof_H 	H 	0.80393	0.97707	0.23917	-0.127
Mof_C 	C 	0.75803	0.04197	0.24505	-0.048
Mof_H 	H 	0.79573	0.06837	0.24887	0.052
Mof_H 	H 	0.72853	0.04507	0.25017	0.026
Mof_C 	C 	0.76053	0.10307	0.22538	0.471
Mof_C 	C 	0.69743	0.07647	0.22478	-0.35
Mof_H 	H 	0.67163	0.04527	0.23017	0.155
Mof_C 	C 	0.68123	0.10727	0.21426	0.224
Mof_H 	H 	0.64283	0.09347	0.21207	-0.025
Mof_C 	C 	0.72213	0.15417	0.20812	-0.309
Mof_C 	C 	0.77983	0.17197	0.21207	0.341
Mof_H 	H 	0.80823	0.20787	0.20897	-0.069
Mof_C 	C 	0.79733	0.14117	0.21997	-0.605
Mof_H 	H 	0.83553	0.15067	0.22087	0.258
Mof_C 	C 	0.71183	0.18717	0.19736	0.464
Mof_Co	Co	0.86161	0.906	0.15327	1.183
Mof_Co	Co	0.95376	0.85753	0.1557	1.165
Mof_O 	O 	0.68719	0.9996	0.10008	-0.242
Mof_O 	O 	0.78242	0.90344	0.14699	-0.366
Mof_O 	O 	0.86471	0.97576	0.14009	-0.469
Mof_O 	O 	0.87923	0.97332	0.16867	-0.653
Mof_O 	O 	0.94643	0.97977	0.18086	-0.447
Mof_O 	O 	0.94591	0.9291	0.15229	-0.582
Mof_O 	O 	0.68363	0.12367	0.10009	-0.261
Mof_O 	O 	0.64814	0.16675	0.16341	-0.449
Mof_O 	O 	0.65853	0.1712	0.19536	-0.436
Mof_O 	O 	0.73861	0.23765	0.15973	-0.452
Mof_O 	O 	0.75389	0.2277	0.19177	-0.481
Mof_O 	O 	0.77913	0.94937	0.23123	-0.499
Mof_O 	O 	0.78153	0.08047	0.2373	-0.254
Mof_C 	C 	0.81513	0.99377	0.24114	0.197
Mof_H 	H 	0.84673	0.99197	0.24547	-0.021
Mof_H 	H 	0.83063	0.02707	0.23507	-0.007
Mof_C 	C 	0.73823	0.02037	0.2408	0.176
Mof_H 	H 	0.70333	0.00967	0.24597	-0.044
Mof_H 	H 	0.72693	0.00307	0.23157	-0.022
Mof_C 	C 	0.7203	0.197	0.47276	0.342
Mof_C 	C 	0.7039	0.151	0.46183	-0.199
Mof_C 	C 	0.7359	0.1224	0.46165	0.141
Mof_H 	H 	0.7657	0.1321	0.468	0.001
Mof_C 	C 	0.7214	0.0789	0.45177	-0.257
Mof_H 	H 	0.7419	0.0594	0.4514	0.134
Mof_C 	C 	0.6769	0.065	0.44248	0.28
Mof_C 	C 	0.6468	0.0938	0.44281	-0.281
Mof_H 	H 	0.6175	0.0854	0.4364	0.134
Mof_C 	C 	0.6614	0.1359	0.45301	0.172
Mof_H 	H 	0.6398	0.1542	0.4536	-0.01
Mof_C 	C 	0.6229	0.0034	0.42352	0.003
Mof_H 	H 	0.5876	0.9961	0.4281	0.049
Mof_H 	H 	0.6331	0.0332	0.4165	0.044
Mof_C 	C 	0.4725	0.8304	0.48921	0.426
Mof_C 	C 	0.4927	0.8485	0.4746	-0.236
Mof_C 	C 	0.4623	0.8626	0.46535	0.21
Mof_H 	H 	0.4301	0.8641	0.4683	-0.026
Mof_C 	C 	0.4809	0.8745	0.45142	-0.347
Mof_H 	H 	0.4577	0.8791	0.4449	0.162
Mof_C 	C 	0.5293	0.8794	0.44717	0.342
Mof_C 	C 	0.5606	0.863	0.45589	-0.308
Mof_H 	H 	0.5934	0.863	0.4528	0.15
Mof_C 	C 	0.5398	0.8468	0.46946	0.197
Mof_H 	H 	0.5588	0.8342	0.4754	-0.016
Mof_C 	C 	0.5968	0.903	0.42809	0.024
Mof_H 	H 	0.6254	0.9164	0.4355	0.038
Mof_H 	H 	0.5928	0.8677	0.4243	0.047
Mof_C 	C 	0.6919	0.2564	0.51314	0.638
Mof_C 	C 	0.6968	0.2318	0.52676	-0.584
Mof_C 	C 	0.7033	0.1868	0.52647	0.545
Mof_H 	H 	0.7047	0.1713	0.5179	-0.152
Mof_C 	C 	0.7077	0.1616	0.53854	-0.586
Mof_H 	H 	0.7146	0.131	0.5382	0.248
Mof_C 	C 	0.7016	0.1835	0.55135	0.593
Mof_C 	C 	0.6959	0.2284	0.5507	-0.665
Mof_H 	H 	0.6947	0.2451	0.5591	0.267
Mof_C 	C 	0.6917	0.2537	0.53851	0.574
Mof_H 	H 	0.6855	0.2848	0.5387	-0.137
Mof_O 	O 	0.7026	0.135	0.55896	-0.054
Mof_O 	O 	0.5942	0.051	0.56533	-0.041
Mof_C 	C 	0.7165	0.1467	0.5741	0.533
Mof_H 	H 	0.7491	0.1752	0.5795	-0.113
Mof_H 	H 	0.6896	0.1602	0.5725	-0.136
Mof_C 	C 	0.6247	0.0494	0.57838	-0.051
Mof_H 	H 	0.5983	0.0607	0.5822	0.053
Mof_H 	H 	0.6216	0.0168	0.5835	0.027
Mof_C 	C 	0.5636	0.9908	0.55871	0.455
Mof_C 	C 	0.5902	0.9543	0.55811	-0.335
Mof_H 	H 	0.6214	0.9597	0.5635	0.154
Mof_C 	C 	0.5594	0.9073	0.54759	0.213
Mof_H 	H 	0.5732	0.8827	0.5454	-0.02
Mof_C 	C 	0.5125	0.9013	0.54145	-0.295
Mof_C 	C 	0.4947	0.9412	0.5454	0.317
Mof_H 	H 	0.4588	0.9337	0.5423	-0.06
Mof_C 	C 	0.5255	0.9895	0.5533	-0.562
Mof_H 	H 	0.516	0.0182	0.5542	0.238
Mof_C 	C 	0.4795	0.858	0.53069	0.459
Mof_Co	Co	0.76067	0.28895	0.48661	1.183
Mof_Co	Co	0.80914	0.42957	0.48903	1.162
Mof_O 	O 	0.66707	0.02093	0.43341	-0.242
Mof_O 	O 	0.76323	0.21232	0.48032	-0.367
Mof_O 	O 	0.69091	0.22229	0.47342	-0.475
Mof_O 	O 	0.69335	0.23925	0.502	-0.657
Mof_O 	O 	0.6869	0.3	0.51419	-0.455
Mof_O 	O 	0.73757	0.35015	0.48562	-0.587
Mof_O 	O 	0.543	0.8933	0.43342	-0.258
Mof_O 	O 	0.49992	0.81473	0.49674	-0.448
Mof_O 	O 	0.49547	0.82067	0.52869	-0.434
Mof_O 	O 	0.42902	0.8343	0.49306	-0.452
Mof_O 	O 	0.43897	0.85953	0.5251	-0.479
Mof_O 	O 	0.7173	0.1631	0.56456	-0.484
Mof_O 	O 	0.5862	0.0344	0.57063	-0.256
Mof_C 	C 	0.6729	0.1547	0.57447	0.208
Mof_H 	H 	0.6747	0.1881	0.5788	-0.03
Mof_H 	H 	0.6396	0.1369	0.5684	-0.005
Mof_C 	C 	0.6463	0.0512	0.57413	0.175
Mof_H 	H 	0.657	0.027	0.5793	-0.04
Mof_H 	H 	0.6636	0.0572	0.5649	-0.019
Mof_C 	C 	0.38697	0.53033	0.80609	0.343
Mof_C 	C 	0.37057	0.48433	0.79516	-0.201
Mof_C 	C 	0.40257	0.45573	0.79498	0.143
Mof_H 	H 	0.43237	0.46543	0.80133	0
Mof_C 	C 	0.38807	0.41223	0.7851	-0.26
Mof_H 	H 	0.40857	0.39273	0.78473	0.136
Mof_C 	C 	0.34357	0.39833	0.77581	0.285
Mof_C 	C 	0.31347	0.42713	0.77614	-0.284
Mof_H 	H 	0.28417	0.41873	0.76973	0.137
Mof_C 	C 	0.32807	0.46923	0.78634	0.175
Mof_H 	H 	0.30647	0.48753	0.78693	-0.011
Mof_C 	C 	0.28957	0.33673	0.75685	0.036
Mof_H 	H 	0.25427	0.32943	0.76143	0.034
Mof_H 	H 	0.29977	0.36653	0.74983	0.037
Mof_C 	C 	0.13917	0.16373	0.82254	0.427
Mof_C 	C 	0.15937	0.18183	0.80793	-0.239
Mof_C 	C 	0.12897	0.19593	0.79868	0.211
Mof_H 	H 	0.09677	0.19743	0.80163	-0.029
Mof_C 	C 	0.14757	0.20783	0.78475	-0.35
Mof_H 	H 	0.12437	0.21243	0.77823	0.162
Mof_C 	C 	0.19597	0.21273	0.7805	0.343
Mof_C 	C 	0.22727	0.19633	0.78922	-0.311
Mof_H 	H 	0.26007	0.19633	0.78613	0.15
Mof_C 	C 	0.20647	0.18013	0.80279	0.198
Mof_H 	H 	0.22547	0.16753	0.80873	-0.017
Mof_C 	C 	0.26347	0.23633	0.76142	0.033
Mof_H 	H 	0.29207	0.24973	0.76883	0.033
Mof_H 	H 	0.25947	0.20103	0.75763	0.045
Mof_C 	C 	0.35857	0.58973	0.84647	0.638
Mof_C 	C 	0.36347	0.56513	0.86009	-0.584
Mof_C 	C 	0.36997	0.52013	0.8598	0.545
Mof_H 	H 	0.37137	0.50463	0.85123	-0.151
Mof_C 	C 	0.37437	0.49493	0.87187	-0.585
Mof_H 	H 	0.38127	0.46433	0.87153	0.249
Mof_C 	C 	0.36827	0.51683	0.88468	0.593
Mof_C 	C 	0.36257	0.56173	0.88403	-0.665
Mof_H 	H 	0.36137	0.57843	0.89243	0.267
Mof_C 	C 	0.35837	0.58703	0.87184	0.575
Mof_H 	H 	0.35217	0.61813	0.87203	-0.137
Mof_O 	O 	0.36927	0.46833	0.89229	-0.053
Mof_O 	O 	0.26087	0.38433	0.89866	-0.041
Mof_C 	C 	0.38317	0.48003	0.90743	0.533
Mof_H 	H 	0.41577	0.50853	0.91283	-0.113
Mof_H 	H 	0.35627	0.49353	0.90583	-0.136
Mof_C 	C 	0.29137	0.38273	0.91171	-0.052
Mof_H 	H 	0.26497	0.39403	0.91553	0.053
Mof_H 	H 	0.28827	0.35013	0.91683	0.028
Mof_C 	C 	0.23027	0.32413	0.89204	0.472
Mof_C 	C 	0.25687	0.28763	0.89144	-0.35
Mof_H 	H 	0.28807	0.29303	0.89683	0.156
Mof_C 	C 	0.22607	0.24063	0.88092	0.225
Mof_H 	H 	0.23987	0.21603	0.87873	-0.025
Mof_C 	C 	0.17917	0.23463	0.87478	-0.31
Mof_C 	C 	0.16137	0.27453	0.87873	0.341
Mof_H 	H 	0.12547	0.26703	0.87563	-0.07
Mof_C 	C 	0.19217	0.32283	0.88663	-0.605
Mof_H 	H 	0.18267	0.35153	0.88753	0.258
Mof_C 	C 	0.14617	0.19133	0.86402	0.464
Mof_Co	Co	0.42734	0.62228	0.81994	1.183
Mof_Co	Co	0.47581	0.7629	0.82236	1.162
Mof_O 	O 	0.33374	0.35426	0.76674	-0.246
Mof_O 	O 	0.4299	0.54565	0.81365	-0.368
Mof_O 	O 	0.35758	0.55562	0.80675	-0.475
Mof_O 	O 	0.36002	0.57258	0.83533	-0.657
Mof_O 	O 	0.35357	0.63333	0.84752	-0.455
Mof_O 	O 	0.40424	0.68348	0.81895	-0.587
Mof_O 	O 	0.20967	0.22663	0.76675	-0.26
Mof_O 	O 	0.16659	0.14806	0.83007	-0.449
Mof_O 	O 	0.16214	0.154	0.86202	-0.437
Mof_O 	O 	0.09569	0.16763	0.82639	-0.455
Mof_O 	O 	0.10564	0.19286	0.85843	-0.483
Mof_O 	O 	0.38397	0.49643	0.89789	-0.484
Mof_O 	O 	0.25287	0.36773	0.90396	-0.256
Mof_C 	C 	0.33957	0.48803	0.9078	0.208
Mof_H 	H 	0.34137	0.52143	0.91213	-0.03
Mof_H 	H 	0.30627	0.47023	0.90173	-0.005
Mof_C 	C 	0.31297	0.38453	0.90746	0.175
Mof_H 	H 	0.32367	0.36033	0.91263	-0.039
Mof_H 	H 	0.33027	0.39053	0.89823	-0.018
Mof_C 	C 	0.05363	0.86367	0.13943	0.346
Mof_C 	C 	0.03723	0.81767	0.1285	-0.212
Mof_C 	C 	0.06923	0.78907	0.12832	0.146
Mof_H 	H 	0.09903	0.79877	0.13467	-0.001
Mof_C 	C 	0.05473	0.74557	0.11844	-0.26
Mof_H 	H 	0.07523	0.72607	0.11807	0.135
Mof_C 	C 	0.01023	0.73167	0.10915	0.278
Mof_C 	C 	0.98013	0.76047	0.10948	-0.278
Mof_H 	H 	0.95083	0.75207	0.10307	0.136
Mof_C 	C 	0.99473	0.80257	0.11968	0.187
Mof_H 	H 	0.97313	0.82087	0.12027	-0.013
Mof_C 	C 	0.95623	0.67007	0.09019	0.036
Mof_H 	H 	0.92093	0.66277	0.09477	0.035
Mof_H 	H 	0.96643	0.69987	0.08317	0.039
Mof_C 	C 	0.80583	0.49707	0.15588	0.426
Mof_C 	C 	0.82603	0.51517	0.14127	-0.237
Mof_C 	C 	0.79563	0.52927	0.13202	0.21
Mof_H 	H 	0.76343	0.53077	0.13497	-0.026
Mof_C 	C 	0.81423	0.54117	0.11809	-0.347
Mof_H 	H 	0.79103	0.54577	0.11157	0.162
Mof_C 	C 	0.86263	0.54607	0.11384	0.342
Mof_C 	C 	0.89393	0.52967	0.12256	-0.309
Mof_H 	H 	0.92673	0.52967	0.11947	0.15
Mof_C 	C 	0.87313	0.51347	0.13613	0.197
Mof_H 	H 	0.89213	0.50087	0.14207	-0.016
Mof_C 	C 	0.93013	0.56967	0.09476	0.024
Mof_H 	H 	0.95873	0.58307	0.10217	0.038
Mof_H 	H 	0.92613	0.53437	0.09097	0.048
Mof_C 	C 	0.02523	0.92307	0.17981	0.636
Mof_C 	C 	0.03013	0.89847	0.19343	-0.584
Mof_C 	C 	0.03663	0.85347	0.19314	0.543
Mof_H 	H 	0.03803	0.83797	0.18457	-0.152
Mof_C 	C 	0.04103	0.82827	0.20521	-0.586
Mof_H 	H 	0.04793	0.79767	0.20487	0.248
Mof_C 	C 	0.03493	0.85017	0.21802	0.592
Mof_C 	C 	0.02923	0.89507	0.21737	-0.665
Mof_H 	H 	0.02803	0.91177	0.22577	0.266
Mof_C 	C 	0.02503	0.92037	0.20518	0.574
Mof_H 	H 	0.01883	0.95147	0.20537	-0.136
Mof_O 	O 	0.03593	0.80167	0.22563	-0.058
Mof_O 	O 	0.92753	0.71767	0.232	-0.037
Mof_C 	C 	0.04983	0.81337	0.24077	0.538
Mof_H 	H 	0.08243	0.84187	0.24617	-0.114
Mof_H 	H 	0.02293	0.82687	0.23917	-0.14
Mof_C 	C 	0.95803	0.71607	0.24505	-0.052
Mof_H 	H 	0.93163	0.72737	0.24887	0.053
Mof_H 	H 	0.95493	0.68347	0.25017	0.029
Mof_C 	C 	0.89693	0.65747	0.22538	0.473
Mof_C 	C 	0.92353	0.62097	0.22478	-0.349
Mof_H 	H 	0.95473	0.62637	0.23017	0.157
Mof_C 	C 	0.89273	0.57397	0.21426	0.225
Mof_H 	H 	0.90653	0.54937	0.21207	-0.024
Mof_C 	C 	0.84583	0.56797	0.20812	-0.309
Mof_C 	C 	0.82803	0.60787	0.21207	0.342
Mof_H 	H 	0.79213	0.60037	0.20897	-0.07
Mof_C 	C 	0.85883	0.65617	0.21997	-0.605
Mof_H 	H 	0.84933	0.68487	0.22087	0.258
Mof_C 	C 	0.81283	0.52467	0.19736	0.465
Mof_Co	Co	0.094	0.95562	0.15327	1.184
Mof_Co	Co	0.14247	0.09624	0.1557	1.161
Mof_O 	O 	0.0004	0.6876	0.10008	-0.25
Mof_O 	O 	0.09656	0.87899	0.14699	-0.369
Mof_O 	O 	0.02424	0.88896	0.14009	-0.478
Mof_O 	O 	0.02668	0.90592	0.16867	-0.658
Mof_O 	O 	0.02023	0.96667	0.18086	-0.452
Mof_O 	O 	0.0709	0.01682	0.15229	-0.594
Mof_O 	O 	0.87633	0.55997	0.10009	-0.258
Mof_O 	O 	0.83325	0.4814	0.16341	-0.448
Mof_O 	O 	0.8288	0.48734	0.19536	-0.435
Mof_O 	O 	0.76235	0.50097	0.15973	-0.452
Mof_O 	O 	0.7723	0.5262	0.19177	-0.481
Mof_O 	O 	0.05063	0.82977	0.23123	-0.483
Mof_O 	O 	0.91953	0.70107	0.2373	-0.259
Mof_C 	C 	0.00623	0.82137	0.24114	0.21
Mof_H 	H 	0.00803	0.85477	0.24547	-0.036
Mof_H 	H 	0.97293	0.80357	0.23507	-0.001
Mof_C 	C 	0.97963	0.71787	0.2408	0.182
Mof_H 	H 	0.99033	0.69367	0.24597	-0.035
Mof_H 	H 	0.99693	0.72387	0.23157	-0.017
Mof_C 	C 	0.5233	0.803	0.02724	0.344
Mof_C 	C 	0.5529	0.849	0.03817	-0.203
Mof_C 	C 	0.6135	0.8776	0.03835	0.146
Mof_H 	H 	0.6336	0.8679	0.032	0
Mof_C 	C 	0.6425	0.9211	0.04823	-0.263
Mof_H 	H 	0.6825	0.9406	0.0486	0.139
Mof_C 	C 	0.6119	0.935	0.05752	0.291
Mof_C 	C 	0.553	0.9062	0.05719	-0.287
Mof_H 	H 	0.5321	0.9146	0.0636	0.139
Mof_C 	C 	0.5255	0.8641	0.04699	0.178
Mof_H 	H 	0.4856	0.8458	0.0464	-0.012
Mof_C 	C 	0.6195	0.9966	0.07648	0.069
Mof_H 	H 	0.5915	0.0039	0.0719	0.018
Mof_H 	H 	0.5999	0.9668	0.0835	0.029
Mof_C 	C 	0.6421	0.1696	0.01079	0.427
Mof_C 	C 	0.6442	0.1515	0.0254	-0.239
Mof_C 	C 	0.5997	0.1374	0.03465	0.211
Mof_H 	H 	0.566	0.1359	0.0317	-0.027
Mof_C 	C 	0.6064	0.1255	0.04858	-0.349
Mof_H 	H 	0.5786	0.1209	0.0551	0.163
Mof_C 	C 	0.6499	0.1206	0.05283	0.343
Mof_C 	C 	0.6976	0.137	0.04411	-0.311
Mof_H 	H 	0.7304	0.137	0.0472	0.15
Mof_C 	C 	0.693	0.1532	0.03054	0.197
Mof_H 	H 	0.7246	0.1658	0.0246	-0.017
Mof_C 	C 	0.6938	0.097	0.07191	0.041
Mof_H 	H 	0.709	0.0836	0.0645	0.03
Mof_H 	H 	0.7251	0.1323	0.0757	0.043
Mof_C 	C 	0.4355	0.7436	0.98686	0.638
Mof_C 	C 	0.465	0.7682	0.97324	-0.584
Mof_C 	C 	0.5165	0.8132	0.97353	0.546
Mof_H 	H 	0.5334	0.8287	0.9821	-0.151
Mof_C 	C 	0.5461	0.8384	0.96146	-0.586
Mof_H 	H 	0.5836	0.869	0.9618	0.25
Mof_C 	C 	0.5181	0.8165	0.94865	0.594
Mof_C 	C 	0.4675	0.7716	0.9493	-0.665
Mof_H 	H 	0.4496	0.7549	0.9409	0.267
Mof_C 	C 	0.438	0.7463	0.96149	0.575
Mof_H 	H 	0.4007	0.7152	0.9613	-0.137
Mof_O 	O 	0.5676	0.865	0.94104	-0.052
Mof_O 	O 	0.5432	0.949	0.93467	-0.041
Mof_C 	C 	0.5698	0.8533	0.9259	0.534
Mof_H 	H 	0.5739	0.8248	0.9205	-0.114
Mof_H 	H 	0.5294	0.8398	0.9275	-0.136
Mof_C 	C 	0.5753	0.9506	0.92162	-0.052
Mof_H 	H 	0.5376	0.9393	0.9178	0.054
Mof_H 	H 	0.6048	0.9832	0.9165	0.03
Mof_C 	C 	0.5728	0.0092	0.94129	0.488
Mof_C 	C 	0.6359	0.0457	0.94189	-0.363
Mof_H 	H 	0.6617	0.0403	0.9365	0.158
Mof_C 	C 	0.6521	0.0927	0.95241	0.235
Mof_H 	H 	0.6905	0.1173	0.9546	-0.028
Mof_C 	C 	0.6112	0.0987	0.95855	-0.323
Mof_C 	C 	0.5535	0.0588	0.9546	0.364
Mof_H 	H 	0.5251	0.0663	0.9577	-0.079
Mof_C 	C 	0.536	0.0105	0.9467	-0.646
Mof_H 	H 	0.4978	0.9818	0.9458	0.277
Mof_C 	C 	0.6215	0.142	0.96931	0.469
Mof_Co	Co	0.47172	0.71105	0.01339	1.183
Mof_Co	Co	0.37957	0.57043	0.01097	1.162
Mof_O 	O 	0.64614	0.97907	0.06659	-0.25
Mof_O 	O 	0.55091	0.78768	0.01968	-0.367
Mof_O 	O 	0.46862	0.77771	0.02658	-0.475
Mof_O 	O 	0.4541	0.76075	0.998	-0.656
Mof_O 	O 	0.3869	0.7	0.98581	-0.455
Mof_O 	O 	0.38742	0.64985	0.01438	-0.587
Mof_O 	O 	0.6497	0.1067	0.06658	-0.261
Mof_O 	O 	0.68519	0.18527	0.00326	-0.449
Mof_O 	O 	0.6748	0.17933	0.97131	-0.437
Mof_O 	O 	0.59472	0.1657	0.00694	-0.453
Mof_O 	O 	0.57944	0.14047	0.9749	-0.483
Mof_O 	O 	0.5542	0.8369	0.93544	-0.485
Mof_O 	O 	0.5518	0.9656	0.92937	-0.254
Mof_C 	C 	0.5182	0.8453	0.92553	0.208
Mof_H 	H 	0.4866	0.8119	0.9212	-0.03
Mof_H 	H 	0.5027	0.8631	0.9316	-0.005
Mof_C 	C 	0.5951	0.9488	0.92587	0.174
Mof_H 	H 	0.63	0.973	0.9207	-0.037
Mof_H 	H 	0.6064	0.9428	0.9351	-0.016
Mof_C 	C 	0.18997	0.13633	0.36057	0.343
Mof_C 	C 	0.21957	0.18233	0.3715	-0.202
Mof_C 	C 	0.28017	0.21093	0.37168	0.144
Mof_H 	H 	0.30027	0.20123	0.36533	-0
Mof_C 	C 	0.30917	0.25443	0.38156	-0.261
Mof_H 	H 	0.34917	0.27393	0.38193	0.136
Mof_C 	C 	0.27857	0.26833	0.39085	0.286
Mof_C 	C 	0.21967	0.23953	0.39052	-0.285
Mof_H 	H 	0.19877	0.24793	0.39693	0.136
Mof_C 	C 	0.19217	0.19743	0.38032	0.175
Mof_H 	H 	0.15227	0.17913	0.37973	-0.013
Mof_C 	C 	0.28617	0.32993	0.40981	0.036
Mof_H 	H 	0.25817	0.33723	0.40523	0.034
Mof_H 	H 	0.26657	0.30013	0.41683	0.036
Mof_C 	C 	0.30877	0.50293	0.34412	0.427
Mof_C 	C 	0.31087	0.48483	0.35873	-0.238
Mof_C 	C 	0.26637	0.47073	0.36798	0.21
Mof_H 	H 	0.23267	0.46923	0.36503	-0.027
Mof_C 	C 	0.27307	0.45883	0.38191	-0.348
Mof_H 	H 	0.24527	0.45423	0.38843	0.163
Mof_C 	C 	0.31657	0.45393	0.38616	0.343
Mof_C 	C 	0.36427	0.47033	0.37744	-0.31
Mof_H 	H 	0.39707	0.47033	0.38053	0.149
Mof_C 	C 	0.35967	0.48653	0.36387	0.197
Mof_H 	H 	0.39127	0.49913	0.35793	-0.016
Mof_C 	C 	0.36047	0.43033	0.40524	0.033
Mof_H 	H 	0.37567	0.41693	0.39783	0.034
Mof_H 	H 	0.39177	0.46563	0.40903	0.045
Mof_C 	C 	0.10217	0.07693	0.32019	0.641
Mof_C 	C 	0.13167	0.10153	0.30657	-0.589
Mof_C 	C 	0.18317	0.14653	0.30686	0.549
Mof_H 	H 	0.20007	0.16203	0.31543	-0.153
Mof_C 	C 	0.21277	0.17173	0.29479	-0.589
Mof_H 	H 	0.25027	0.20233	0.29513	0.25
Mof_C 	C 	0.18477	0.14983	0.28198	0.596
Mof_C 	C 	0.13417	0.10493	0.28263	-0.669
Mof_H 	H 	0.11627	0.08823	0.27423	0.266
Mof_C 	C 	0.10467	0.07963	0.29482	0.579
Mof_H 	H 	0.06737	0.04853	0.29463	-0.142
Mof_O 	O 	0.23427	0.19833	0.27437	-0.053
Mof_O 	O 	0.20987	0.28233	0.268	-0.041
Mof_C 	C 	0.23647	0.18663	0.25923	0.535
Mof_H 	H 	0.24057	0.15813	0.25383	-0.114
Mof_H 	H 	0.19607	0.17313	0.26083	-0.136
Mof_C 	C 	0.24197	0.28393	0.25495	-0.051
Mof_H 	H 	0.20427	0.27263	0.25113	0.053
Mof_H 	H 	0.27147	0.31653	0.24983	0.028
Mof_C 	C 	0.23947	0.34253	0.27462	0.472
Mof_C 	C 	0.30257	0.37903	0.27522	-0.35
Mof_H 	H 	0.32837	0.37363	0.26983	0.156
Mof_C 	C 	0.31877	0.42603	0.28574	0.224
Mof_H 	H 	0.35717	0.45063	0.28793	-0.024
Mof_C 	C 	0.27787	0.43203	0.29188	-0.309
Mof_C 	C 	0.22017	0.39213	0.28793	0.341
Mof_H 	H 	0.19177	0.39963	0.29103	-0.07
Mof_C 	C 	0.20267	0.34383	0.28003	-0.605
Mof_H 	H 	0.16447	0.31513	0.27913	0.258
Mof_C 	C 	0.28817	0.47533	0.30264	0.464
Mof_Co	Co	0.13839	0.04438	0.34673	1.181
Mof_Co	Co	0.04624	0.90376	0.3443	1.16
Mof_O 	O 	0.31281	0.3124	0.39992	-0.247
Mof_O 	O 	0.21758	0.12101	0.35301	-0.368
Mof_O 	O 	0.13529	0.11104	0.35991	-0.477
Mof_O 	O 	0.12077	0.09408	0.33133	-0.658
Mof_O 	O 	0.05357	0.03333	0.31914	-0.462
Mof_O 	O 	0.05409	0.98318	0.34771	-0.584
Mof_O 	O 	0.31637	0.44003	0.39991	-0.259
Mof_O 	O 	0.35186	0.5186	0.33659	-0.449
Mof_O 	O 	0.34147	0.51266	0.30464	-0.436
Mof_O 	O 	0.26139	0.49903	0.34027	-0.452
Mof_O 	O 	0.24611	0.4738	0.30823	-0.481
Mof_O 	O 	0.22087	0.17023	0.26877	-0.486
Mof_O 	O 	0.21847	0.29893	0.2627	-0.255
Mof_C 	C 	0.18487	0.17863	0.25886	0.208
Mof_H 	H 	0.15327	0.14523	0.25453	-0.031
Mof_H 	H 	0.16937	0.19643	0.26493	-0.005
Mof_C 	C 	0.26177	0.28213	0.2592	0.175
Mof_H 	H 	0.29667	0.30633	0.25403	-0.039
Mof_H 	H 	0.27307	0.27613	0.26843	-0.018
Mof_C 	C 	0.85663	0.46967	0.69391	0.339
Mof_C 	C 	0.88623	0.51567	0.70484	-0.191
Mof_C 	C 	0.94683	0.54427	0.70502	0.127
Mof_H 	H 	0.96693	0.53457	0.69867	0.008
Mof_C 	C 	0.97583	0.58777	0.7149	-0.232
Mof_H 	H 	0.01583	0.60727	0.71527	0.12
Mof_C 	C 	0.94523	0.60167	0.72419	0.273
Mof_C 	C 	0.88633	0.57287	0.72386	-0.273
Mof_H 	H 	0.86543	0.58127	0.73027	0.133
Mof_C 	C 	0.85883	0.53077	0.71366	0.164
Mof_H 	H 	0.81893	0.51247	0.71307	-0.007
Mof_C 	C 	0.95283	0.66327	0.74315	0.051
Mof_H 	H 	0.92483	0.67057	0.73857	0.03
Mof_H 	H 	0.93323	0.63347	0.75017	0.034
Mof_C 	C 	0.97543	0.83627	0.67746	0.435
Mof_C 	C 	0.97753	0.81817	0.69207	-0.232
Mof_C 	C 	0.93303	0.80407	0.70132	0.212
Mof_H 	H 	0.89933	0.80257	0.69837	-0.027
Mof_C 	C 	0.93973	0.79217	0.71525	-0.352
Mof_H 	H 	0.91193	0.78757	0.72177	0.165
Mof_C 	C 	0.98323	0.78727	0.7195	0.353
Mof_C 	C 	0.03093	0.80367	0.71078	-0.32
Mof_H 	H 	0.06373	0.80367	0.71387	0.152
Mof_C 	C 	0.02633	0.81987	0.69721	0.191
Mof_H 	H 	0.05793	0.83247	0.69127	-0.015
Mof_C 	C 	0.02713	0.76367	0.73858	0.034
Mof_H 	H 	0.04233	0.75027	0.73117	0.031
Mof_H 	H 	0.05843	0.79897	0.74237	0.044
Mof_C 	C 	0.76883	0.41027	0.65353	0.638
Mof_C 	C 	0.79833	0.43487	0.63991	-0.584
Mof_C 	C 	0.84983	0.47987	0.6402	0.545
Mof_H 	H 	0.86673	0.49537	0.64877	-0.151
Mof_C 	C 	0.87943	0.50507	0.62813	-0.586
Mof_H 	H 	0.91693	0.53567	0.62847	0.25
Mof_C 	C 	0.85143	0.48317	0.61532	0.594
Mof_C 	C 	0.80083	0.43827	0.61597	-0.665
Mof_H 	H 	0.78293	0.42157	0.60757	0.267
Mof_C 	C 	0.77133	0.41297	0.62816	0.575
Mof_H 	H 	0.73403	0.38187	0.62797	-0.137
Mof_O 	O 	0.90093	0.53167	0.60771	-0.053
Mof_O 	O 	0.87653	0.61567	0.60134	-0.042
Mof_C 	C 	0.90313	0.51997	0.59257	0.533
Mof_H 	H 	0.90723	0.49147	0.58717	-0.113
Mof_H 	H 	0.86273	0.50647	0.59417	-0.136
Mof_C 	C 	0.90863	0.61727	0.58829	-0.052
Mof_H 	H 	0.87093	0.60597	0.58447	0.054
Mof_H 	H 	0.93813	0.64987	0.58317	0.029
Mof_C 	C 	0.90613	0.67587	0.60796	0.487
Mof_C 	C 	0.96923	0.71237	0.60856	-0.366
Mof_H 	H 	0.99503	0.70697	0.60317	0.164
Mof_C 	C 	0.98543	0.75937	0.61908	0.254
Mof_H 	H 	0.02383	0.78397	0.62127	-0.039
Mof_C 	C 	0.94453	0.76537	0.62522	-0.327
Mof_C 	C 	0.88683	0.72547	0.62127	0.359
Mof_H 	H 	0.85843	0.73297	0.62437	-0.075
Mof_C 	C 	0.86933	0.67717	0.61337	-0.625
Mof_H 	H 	0.83113	0.64847	0.61247	0.265
Mof_C 	C 	0.95483	0.80867	0.63598	0.48
Mof_Co	Co	0.80505	0.37772	0.68006	1.183
Mof_Co	Co	0.7129	0.2371	0.67764	1.162
Mof_O 	O 	0.97947	0.64574	0.73326	-0.242
Mof_O 	O 	0.88424	0.45435	0.68635	-0.366
Mof_O 	O 	0.80195	0.44438	0.69325	-0.474
Mof_O 	O 	0.78743	0.42742	0.66467	-0.656
Mof_O 	O 	0.72023	0.36667	0.65248	-0.455
Mof_O 	O 	0.72075	0.31652	0.68105	-0.587
Mof_O 	O 	0.98303	0.77337	0.73325	-0.257
Mof_O 	O 	0.01852	0.85194	0.66993	-0.456
Mof_O 	O 	0.00813	0.846	0.63798	-0.445
Mof_O 	O 	0.92805	0.83237	0.67361	-0.453
Mof_O 	O 	0.91277	0.80714	0.64157	-0.484
Mof_O 	O 	0.88753	0.50357	0.60211	-0.484
Mof_O 	O 	0.88513	0.63227	0.59604	-0.257
Mof_C 	C 	0.85153	0.51197	0.5922	0.208
Mof_H 	H 	0.81993	0.47857	0.58787	-0.03
Mof_H 	H 	0.83603	0.52977	0.59827	-0.005
Mof_C 	C 	0.92843	0.61547	0.59254	0.175
Mof_H 	H 	0.96333	0.63967	0.58737	-0.039
Mof_H 	H 	0.93973	0.60947	0.60177	-0.017
Mof_C 	C 	0.2797	0.4767	0.02724	0.343
Mof_C 	C 	0.2961	0.4471	0.03817	-0.201
Mof_C 	C 	0.2641	0.3865	0.03835	0.143
Mof_H 	H 	0.2343	0.3664	0.032	-0.001
Mof_C 	C 	0.2786	0.3575	0.04823	-0.26
Mof_H 	H 	0.2581	0.3175	0.0486	0.135
Mof_C 	C 	0.3231	0.3881	0.05752	0.285
Mof_C 	C 	0.3532	0.447	0.05719	-0.284
Mof_H 	H 	0.3825	0.4679	0.0636	0.137
Mof_C 	C 	0.3386	0.4745	0.04699	0.175
Mof_H 	H 	0.3602	0.5144	0.0464	-0.011
Mof_C 	C 	0.3771	0.3805	0.07648	0.036
Mof_H 	H 	0.4124	0.4085	0.0719	0.034
Mof_H 	H 	0.3669	0.4001	0.0835	0.037
Mof_C 	C 	0.5275	0.3579	0.01079	0.427
Mof_C 	C 	0.5073	0.3558	0.0254	-0.238
Mof_C 	C 	0.5377	0.4003	0.03465	0.21
Mof_H 	H 	0.5699	0.434	0.0317	-0.027
Mof_C 	C 	0.5191	0.3936	0.04858	-0.348
Mof_H 	H 	0.5423	0.4214	0.0551	0.163
Mof_C 	C 	0.4707	0.3501	0.05283	0.342
Mof_C 	C 	0.4394	0.3024	0.04411	-0.31
Mof_H 	H 	0.4066	0.2696	0.0472	0.149
Mof_C 	C 	0.4602	0.307	0.03054	0.197
Mof_H 	H 	0.4412	0.2754	0.0246	-0.017
Mof_C 	C 	0.4032	0.3062	0.07191	0.033
Mof_H 	H 	0.3746	0.291	0.0645	0.033
Mof_H 	H 	0.4072	0.2749	0.0757	0.045
Mof_C 	C 	0.3081	0.5645	0.98686	0.638
Mof_C 	C 	0.3032	0.535	0.97324	-0.584
Mof_C 	C 	0.2967	0.4835	0.97353	0.545
Mof_H 	H 	0.2953	0.4666	0.9821	-0.152
Mof_C 	C 	0.2923	0.4539	0.96146	-0.585
Mof_H 	H 	0.2854	0.4164	0.9618	0.249
Mof_C 	C 	0.2984	0.4819	0.94865	0.593
Mof_C 	C 	0.3041	0.5325	0.9493	-0.665
Mof_H 	H 	0.3053	0.5504	0.9409	0.267
Mof_C 	C 	0.3083	0.562	0.96149	0.575
Mof_H 	H 	0.3145	0.5993	0.9613	-0.137
Mof_O 	O 	0.2974	0.4324	0.94104	-0.054
Mof_O 	O 	0.4058	0.4568	0.93467	-0.041
Mof_C 	C 	0.2835	0.4302	0.9259	0.533
Mof_H 	H 	0.2509	0.4261	0.9205	-0.113
Mof_H 	H 	0.3104	0.4706	0.9275	-0.136
Mof_C 	C 	0.3753	0.4247	0.92162	-0.051
Mof_H 	H 	0.4017	0.4624	0.9178	0.053
Mof_H 	H 	0.3784	0.3952	0.9165	0.028
Mof_C 	C 	0.4364	0.4272	0.94129	0.472
Mof_C 	C 	0.4098	0.3641	0.94189	-0.35
Mof_H 	H 	0.3786	0.3383	0.9365	0.155
Mof_C 	C 	0.4406	0.3479	0.95241	0.224
Mof_H 	H 	0.4268	0.3095	0.9546	-0.025
Mof_C 	C 	0.4875	0.3888	0.95855	-0.309
Mof_C 	C 	0.5053	0.4465	0.9546	0.341
Mof_H 	H 	0.5412	0.4749	0.9577	-0.069
Mof_C 	C 	0.4745	0.464	0.9467	-0.605
Mof_H 	H 	0.484	0.5022	0.9458	0.258
Mof_C 	C 	0.5205	0.3785	0.96931	0.464
Mof_Co	Co	0.23933	0.52828	0.01339	1.183
Mof_Co	Co	0.19086	0.62043	0.01097	1.162
Mof_O 	O 	0.33293	0.35386	0.06659	-0.247
Mof_O 	O 	0.23677	0.44909	0.01968	-0.368
Mof_O 	O 	0.30909	0.53138	0.02658	-0.475
Mof_O 	O 	0.30665	0.5459	0.998	-0.657
Mof_O 	O 	0.3131	0.6131	0.98581	-0.455
Mof_O 	O 	0.26243	0.61258	0.01438	-0.587
Mof_O 	O 	0.457	0.3503	0.06658	-0.26
Mof_O 	O 	0.50008	0.31481	0.00326	-0.449
Mof_O 	O 	0.50453	0.3252	0.97131	-0.436
Mof_O 	O 	0.57098	0.40528	0.00694	-0.452
Mof_O 	O 	0.56103	0.42056	0.9749	-0.481
Mof_O 	O 	0.2827	0.4458	0.93544	-0.484
Mof_O 	O 	0.4138	0.4482	0.92937	-0.255
Mof_C 	C 	0.3271	0.4818	0.92553	0.208
Mof_H 	H 	0.3253	0.5134	0.9212	-0.03
Mof_H 	H 	0.3604	0.4973	0.9316	-0.005
Mof_C 	C 	0.3537	0.4049	0.92587	0.175
Mof_H 	H 	0.343	0.37	0.9207	-0.039
Mof_H 	H 	0.3364	0.3936	0.9351	-0.018
Mof_C 	C 	0.94637	0.81003	0.36057	0.339
Mof_C 	C 	0.96277	0.78043	0.3715	-0.187
Mof_C 	C 	0.93077	0.71983	0.37168	0.14
Mof_H 	H 	0.90097	0.69973	0.36533	0.002
Mof_C 	C 	0.94527	0.69083	0.38156	-0.259
Mof_H 	H 	0.92477	0.65083	0.38193	0.137
Mof_C 	C 	0.98977	0.72143	0.39085	0.293
Mof_C 	C 	0.01987	0.78033	0.39052	-0.29
Mof_H 	H 	0.04917	0.80123	0.39693	0.137
Mof_C 	C 	0.00527	0.80783	0.38032	0.161
Mof_H 	H 	0.02687	0.84773	0.37973	-0.008
Mof_C 	C 	0.04377	0.71383	0.40981	0.034
Mof_H 	H 	0.07907	0.74183	0.40523	0.033
Mof_H 	H 	0.03357	0.73343	0.41683	0.035
Mof_C 	C 	0.19417	0.69123	0.34412	0.427
Mof_C 	C 	0.17397	0.68913	0.35873	-0.238
Mof_C 	C 	0.20437	0.73363	0.36798	0.21
Mof_H 	H 	0.23657	0.76733	0.36503	-0.027
Mof_C 	C 	0.18577	0.72693	0.38191	-0.349
Mof_H 	H 	0.20897	0.75473	0.38843	0.163
Mof_C 	C 	0.13737	0.68343	0.38616	0.343
Mof_C 	C 	0.10607	0.63573	0.37744	-0.311
Mof_H 	H 	0.07327	0.60293	0.38053	0.149
Mof_C 	C 	0.12687	0.64033	0.36387	0.197
Mof_H 	H 	0.10787	0.60873	0.35793	-0.017
Mof_C 	C 	0.06987	0.63953	0.40524	0.042
Mof_H 	H 	0.04127	0.62433	0.39783	0.029
Mof_H 	H 	0.07387	0.60823	0.40903	0.042
Mof_C 	C 	0.97477	0.89783	0.32019	0.637
Mof_C 	C 	0.96987	0.86833	0.30657	-0.583
Mof_C 	C 	0.96337	0.81683	0.30686	0.547
Mof_H 	H 	0.96197	0.79993	0.31543	-0.151
Mof_C 	C 	0.95897	0.78723	0.29479	-0.588
Mof_H 	H 	0.95207	0.74973	0.29513	0.251
Mof_C 	C 	0.96507	0.81523	0.28198	0.598
Mof_C 	C 	0.97077	0.86583	0.28263	-0.666
Mof_H 	H 	0.97197	0.88373	0.27423	0.27
Mof_C 	C 	0.97497	0.89533	0.29482	0.576
Mof_H 	H 	0.98117	0.93263	0.29463	-0.134
Mof_O 	O 	0.96407	0.76573	0.27437	-0.044
Mof_O 	O 	0.07247	0.79013	0.268	-0.043
Mof_C 	C 	0.95017	0.76353	0.25923	0.55
Mof_H 	H 	0.91757	0.75943	0.25383	-0.118
Mof_H 	H 	0.97707	0.80393	0.26083	-0.127
Mof_C 	C 	0.04197	0.75803	0.25495	-0.048
Mof_H 	H 	0.06837	0.79573	0.25113	0.052
Mof_H 	H 	0.04507	0.72853	0.24983	0.026
Mof_C 	C 	0.10307	0.76053	0.27462	0.471
Mof_C 	C 	0.07647	0.69743	0.27522	-0.35
Mof_H 	H 	0.04527	0.67163	0.26983	0.155
Mof_C 	C 	0.10727	0.68123	0.28574	0.224
Mof_H 	H 	0.09347	0.64283	0.28793	-0.025
Mof_C 	C 	0.15417	0.72213	0.29188	-0.309
Mof_C 	C 	0.17197	0.77983	0.28793	0.341
Mof_H 	H 	0.20787	0.80823	0.29103	-0.069
Mof_C 	C 	0.14117	0.79733	0.28003	-0.605
Mof_H 	H 	0.15067	0.83553	0.27913	0.258
Mof_C 	C 	0.18717	0.71183	0.30264	0.464
Mof_Co	Co	0.906	0.86161	0.34673	1.183
Mof_Co	Co	0.85753	0.95376	0.3443	1.165
Mof_O 	O 	0.9996	0.68719	0.39992	-0.242
Mof_O 	O 	0.90344	0.78242	0.35301	-0.366
Mof_O 	O 	0.97576	0.86471	0.35991	-0.469
Mof_O 	O 	0.97332	0.87923	0.33133	-0.653
Mof_O 	O 	0.97977	0.94643	0.31914	-0.447
Mof_O 	O 	0.9291	0.94591	0.34771	-0.582
Mof_O 	O 	0.12367	0.68363	0.39991	-0.261
Mof_O 	O 	0.16675	0.64814	0.33659	-0.449
Mof_O 	O 	0.1712	0.65853	0.30464	-0.436
Mof_O 	O 	0.23765	0.73861	0.34027	-0.452
Mof_O 	O 	0.2277	0.75389	0.30823	-0.481
Mof_O 	O 	0.94937	0.77913	0.26877	-0.499
Mof_O 	O 	0.08047	0.78153	0.2627	-0.254
Mof_C 	C 	0.99377	0.81513	0.25886	0.197
Mof_H 	H 	0.99197	0.84673	0.25453	-0.021
Mof_H 	H 	0.02707	0.83063	0.26493	-0.007
Mof_C 	C 	0.02037	0.73823	0.2592	0.176
Mof_H 	H 	0.00967	0.70333	0.25403	-0.044
Mof_H 	H 	0.00307	0.72693	0.26843	-0.022
Mof_C 	C 	0.61303	0.14337	0.69391	0.347
Mof_C 	C 	0.62943	0.11377	0.70484	-0.213
Mof_C 	C 	0.59743	0.05317	0.70502	0.162
Mof_H 	H 	0.56763	0.03307	0.69867	-0.008
Mof_C 	C 	0.61193	0.02417	0.7149	-0.291
Mof_H 	H 	0.59143	0.98417	0.71527	0.153
Mof_C 	C 	0.65643	0.05477	0.72419	0.301
Mof_C 	C 	0.68653	0.11367	0.72386	-0.298
Mof_H 	H 	0.71583	0.13457	0.73027	0.142
Mof_C 	C 	0.67193	0.14117	0.71366	0.188
Mof_H 	H 	0.69353	0.18107	0.71307	-0.016
Mof_C 	C 	0.71043	0.04717	0.74315	0.048
Mof_H 	H 	0.74573	0.07517	0.73857	0.03
Mof_H 	H 	0.70023	0.06677	0.75017	0.032
Mof_C 	C 	0.86083	0.02457	0.67746	0.418
Mof_C 	C 	0.84063	0.02247	0.69207	-0.243
Mof_C 	C 	0.87103	0.06697	0.70132	0.209
Mof_H 	H 	0.90323	0.10067	0.69837	-0.025
Mof_C 	C 	0.85243	0.06027	0.71525	-0.345
Mof_H 	H 	0.87563	0.08807	0.72177	0.162
Mof_C 	C 	0.80403	0.01677	0.7195	0.334
Mof_C 	C 	0.77273	0.96907	0.71078	-0.301
Mof_H 	H 	0.73993	0.93627	0.71387	0.148
Mof_C 	C 	0.79353	0.97367	0.69721	0.204
Mof_H 	H 	0.77453	0.94207	0.69127	-0.018
Mof_C 	C 	0.73653	0.97287	0.73858	0.058
Mof_H 	H 	0.70793	0.95767	0.73117	0.029
Mof_H 	H 	0.74053	0.94157	0.74237	0.039
Mof_C 	C 	0.64143	0.23117	0.65353	0.638
Mof_C 	C 	0.63653	0.20167	0.63991	-0.584
Mof_C 	C 	0.63003	0.15017	0.6402	0.544
Mof_H 	H 	0.62863	0.13327	0.64877	-0.152
Mof_C 	C 	0.62563	0.12057	0.62813	-0.585
Mof_H 	H 	0.61873	0.08307	0.62847	0.248
Mof_C 	C 	0.63173	0.14857	0.61532	0.593
Mof_C 	C 	0.63743	0.19917	0.61597	-0.664
Mof_H 	H 	0.63863	0.21707	0.60757	0.266
Mof_C 	C 	0.64163	0.22867	0.62816	0.574
Mof_H 	H 	0.64783	0.26597	0.62797	-0.137
Mof_O 	O 	0.63073	0.09907	0.60771	-0.054
Mof_O 	O 	0.73913	0.12347	0.60134	-0.041
Mof_C 	C 	0.61683	0.09687	0.59257	0.532
Mof_H 	H 	0.58423	0.09277	0.58717	-0.113
Mof_H 	H 	0.64373	0.13727	0.59417	-0.136
Mof_C 	C 	0.70863	0.09137	0.58829	-0.051
Mof_H 	H 	0.73503	0.12907	0.58447	0.053
Mof_H 	H 	0.71173	0.06187	0.58317	0.028
Mof_C 	C 	0.76973	0.09387	0.60796	0.455
Mof_C 	C 	0.74313	0.03077	0.60856	-0.331
Mof_H 	H 	0.71193	0.00497	0.60317	0.147
Mof_C 	C 	0.77393	0.01457	0.61908	0.192
Mof_H 	H 	0.76013	0.97617	0.62127	-0.007
Mof_C 	C 	0.82083	0.05547	0.62522	-0.289
Mof_C 	C 	0.83863	0.11317	0.62127	0.322
Mof_H 	H 	0.87453	0.14157	0.62437	-0.062
Mof_C 	C 	0.80783	0.13067	0.61337	-0.582
Mof_H 	H 	0.81733	0.16887	0.61247	0.25
Mof_C 	C 	0.85383	0.04517	0.63598	0.447
Mof_Co	Co	0.57266	0.19495	0.68006	1.183
Mof_Co	Co	0.52419	0.2871	0.67764	1.162
Mof_O 	O 	0.66626	0.02053	0.73326	-0.256
Mof_O 	O 	0.5701	0.11576	0.68635	-0.37
Mof_O 	O 	0.64242	0.19805	0.69325	-0.476
Mof_O 	O 	0.63998	0.21257	0.66467	-0.657
Mof_O 	O 	0.64643	0.27977	0.65248	-0.455
Mof_O 	O 	0.59576	0.27925	0.68105	-0.587
Mof_O 	O 	0.79033	0.01697	0.73325	-0.266
Mof_O 	O 	0.83341	0.98148	0.66993	-0.44
Mof_O 	O 	0.83786	0.99187	0.63798	-0.425
Mof_O 	O 	0.90431	0.07195	0.67361	-0.449
Mof_O 	O 	0.89436	0.08723	0.64157	-0.476
Mof_O 	O 	0.61603	0.11247	0.60211	-0.484
Mof_O 	O 	0.74713	0.11487	0.59604	-0.252
Mof_C 	C 	0.66043	0.14847	0.5922	0.208
Mof_H 	H 	0.65863	0.18007	0.58787	-0.03
Mof_H 	H 	0.69373	0.16397	0.59827	-0.005
Mof_C 	C 	0.68703	0.07157	0.59254	0.174
Mof_H 	H 	0.67633	0.03667	0.58737	-0.038
Mof_H 	H 	0.66973	0.06027	0.60177	-0.018
Mof_C 	C 	0.197	0.7203	0.02724	0.342
Mof_C 	C 	0.151	0.7039	0.03817	-0.199
Mof_C 	C 	0.1224	0.7359	0.03835	0.141
Mof_H 	H 	0.1321	0.7657	0.032	0.001
Mof_C 	C 	0.0789	0.7214	0.04823	-0.257
Mof_H 	H 	0.0594	0.7419	0.0486	0.134
Mof_C 	C 	0.065	0.6769	0.05752	0.28
Mof_C 	C 	0.0938	0.6468	0.05719	-0.281
Mof_H 	H 	0.0854	0.6175	0.0636	0.134
Mof_C 	C 	0.1359	0.6614	0.04699	0.172
Mof_H 	H 	0.1542	0.6398	0.0464	-0.01
Mof_C 	C 	0.0034	0.6229	0.07648	0.003
Mof_H 	H 	0.9961	0.5876	0.0719	0.049
Mof_H 	H 	0.0332	0.6331	0.0835	0.044
Mof_C 	C 	0.8304	0.4725	0.01079	0.426
Mof_C 	C 	0.8485	0.4927	0.0254	-0.236
Mof_C 	C 	0.8626	0.4623	0.03465	0.21
Mof_H 	H 	0.8641	0.4301	0.0317	-0.026
Mof_C 	C 	0.8745	0.4809	0.04858	-0.347
Mof_H 	H 	0.8791	0.4577	0.0551	0.162
Mof_C 	C 	0.8794	0.5293	0.05283	0.342
Mof_C 	C 	0.863	0.5606	0.04411	-0.308
Mof_H 	H 	0.863	0.5934	0.0472	0.15
Mof_C 	C 	0.8468	0.5398	0.03054	0.197
Mof_H 	H 	0.8342	0.5588	0.0246	-0.016
Mof_C 	C 	0.903	0.5968	0.07191	0.024
Mof_H 	H 	0.9164	0.6254	0.0645	0.038
Mof_H 	H 	0.8677	0.5928	0.0757	0.047
Mof_C 	C 	0.2564	0.6919	0.98686	0.638
Mof_C 	C 	0.2318	0.6968	0.97324	-0.584
Mof_C 	C 	0.1868	0.7033	0.97353	0.545
Mof_H 	H 	0.1713	0.7047	0.9821	-0.152
Mof_C 	C 	0.1616	0.7077	0.96146	-0.586
Mof_H 	H 	0.131	0.7146	0.9618	0.248
Mof_C 	C 	0.1835	0.7016	0.94865	0.593
Mof_C 	C 	0.2284	0.6959	0.9493	-0.665
Mof_H 	H 	0.2451	0.6947	0.9409	0.267
Mof_C 	C 	0.2537	0.6917	0.96149	0.574
Mof_H 	H 	0.2848	0.6855	0.9613	-0.137
Mof_O 	O 	0.135	0.7026	0.94104	-0.054
Mof_O 	O 	0.051	0.5942	0.93467	-0.041
Mof_C 	C 	0.1467	0.7165	0.9259	0.533
Mof_H 	H 	0.1752	0.7491	0.9205	-0.113
Mof_H 	H 	0.1602	0.6896	0.9275	-0.136
Mof_C 	C 	0.0494	0.6247	0.92162	-0.051
Mof_H 	H 	0.0607	0.5983	0.9178	0.053
Mof_H 	H 	0.0168	0.6216	0.9165	0.027
Mof_C 	C 	0.9908	0.5636	0.94129	0.455
Mof_C 	C 	0.9543	0.5902	0.94189	-0.335
Mof_H 	H 	0.9597	0.6214	0.9365	0.154
Mof_C 	C 	0.9073	0.5594	0.95241	0.213
Mof_H 	H 	0.8827	0.5732	0.9546	-0.02
Mof_C 	C 	0.9013	0.5125	0.95855	-0.295
Mof_C 	C 	0.9412	0.4947	0.9546	0.317
Mof_H 	H 	0.9337	0.4588	0.9577	-0.06
Mof_C 	C 	0.9895	0.5255	0.9467	-0.562
Mof_H 	H 	0.0182	0.516	0.9458	0.238
Mof_C 	C 	0.858	0.4795	0.96931	0.459
Mof_Co	Co	0.28895	0.76067	0.01339	1.183
Mof_Co	Co	0.42957	0.80914	0.01097	1.162
Mof_O 	O 	0.02093	0.66707	0.06659	-0.242
Mof_O 	O 	0.21232	0.76323	0.01968	-0.367
Mof_O 	O 	0.22229	0.69091	0.02658	-0.475
Mof_O 	O 	0.23925	0.69335	0.998	-0.657
Mof_O 	O 	0.3	0.6869	0.98581	-0.455
Mof_O 	O 	0.35015	0.73757	0.01438	-0.587
Mof_O 	O 	0.8933	0.543	0.06658	-0.258
Mof_O 	O 	0.81473	0.49992	0.00326	-0.448
Mof_O 	O 	0.82067	0.49547	0.97131	-0.434
Mof_O 	O 	0.8343	0.42902	0.00694	-0.452
Mof_O 	O 	0.85953	0.43897	0.9749	-0.479
Mof_O 	O 	0.1631	0.7173	0.93544	-0.484
Mof_O 	O 	0.0344	0.5862	0.92937	-0.256
Mof_C 	C 	0.1547	0.6729	0.92553	0.208
Mof_H 	H 	0.1881	0.6747	0.9212	-0.03
Mof_H 	H 	0.1369	0.6396	0.9316	-0.005
Mof_C 	C 	0.0512	0.6463	0.92587	0.175
Mof_H 	H 	0.027	0.657	0.9207	-0.04
Mof_H 	H 	0.0572	0.6636	0.9351	-0.019
Mof_C 	C 	0.86367	0.05363	0.36057	0.346
Mof_C 	C 	0.81767	0.03723	0.3715	-0.212
Mof_C 	C 	0.78907	0.06923	0.37168	0.146
Mof_H 	H 	0.79877	0.09903	0.36533	-0.001
Mof_C 	C 	0.74557	0.05473	0.38156	-0.26
Mof_H 	H 	0.72607	0.07523	0.38193	0.135
Mof_C 	C 	0.73167	0.01023	0.39085	0.278
Mof_C 	C 	0.76047	0.98013	0.39052	-0.278
Mof_H 	H 	0.75207	0.95083	0.39693	0.136
Mof_C 	C 	0.80257	0.99473	0.38032	0.187
Mof_H 	H 	0.82087	0.97313	0.37973	-0.013
Mof_C 	C 	0.67007	0.95623	0.40981	0.036
Mof_H 	H 	0.66277	0.92093	0.40523	0.035
Mof_H 	H 	0.69987	0.96643	0.41683	0.039
Mof_C 	C 	0.49707	0.80583	0.34412	0.426
Mof_C 	C 	0.51517	0.82603	0.35873	-0.237
Mof_C 	C 	0.52927	0.79563	0.36798	0.21
Mof_H 	H 	0.53077	0.76343	0.36503	-0.026
Mof_C 	C 	0.54117	0.81423	0.38191	-0.347
Mof_H 	H 	0.54577	0.79103	0.38843	0.162
Mof_C 	C 	0.54607	0.86263	0.38616	0.342
Mof_C 	C 	0.52967	0.89393	0.37744	-0.309
Mof_H 	H 	0.52967	0.92673	0.38053	0.15
Mof_C 	C 	0.51347	0.87313	0.36387	0.197
Mof_H 	H 	0.50087	0.89213	0.35793	-0.016
Mof_C 	C 	0.56967	0.93013	0.40524	0.024
Mof_H 	H 	0.58307	0.95873	0.39783	0.038
Mof_H 	H 	0.53437	0.92613	0.40903	0.048
Mof_C 	C 	0.92307	0.02523	0.32019	0.636
Mof_C 	C 	0.89847	0.03013	0.30657	-0.584
Mof_C 	C 	0.85347	0.03663	0.30686	0.543
Mof_H 	H 	0.83797	0.03803	0.31543	-0.152
Mof_C 	C 	0.82827	0.04103	0.29479	-0.586
Mof_H 	H 	0.79767	0.04793	0.29513	0.248
Mof_C 	C 	0.85017	0.03493	0.28198	0.592
Mof_C 	C 	0.89507	0.02923	0.28263	-0.665
Mof_H 	H 	0.91177	0.02803	0.27423	0.266
Mof_C 	C 	0.92037	0.02503	0.29482	0.574
Mof_H 	H 	0.95147	0.01883	0.29463	-0.136
Mof_O 	O 	0.80167	0.03593	0.27437	-0.058
Mof_O 	O 	0.71767	0.92753	0.268	-0.037
Mof_C 	C 	0.81337	0.04983	0.25923	0.538
Mof_H 	H 	0.84187	0.08243	0.25383	-0.114
Mof_H 	H 	0.82687	0.02293	0.26083	-0.14
Mof_C 	C 	0.71607	0.95803	0.25495	-0.052
Mof_H 	H 	0.72737	0.93163	0.25113	0.053
Mof_H 	H 	0.68347	0.95493	0.24983	0.029
Mof_C 	C 	0.65747	0.89693	0.27462	0.473
Mof_C 	C 	0.62097	0.92353	0.27522	-0.349
Mof_H 	H 	0.62637	0.95473	0.26983	0.157
Mof_C 	C 	0.57397	0.89273	0.28574	0.225
Mof_H 	H 	0.54937	0.90653	0.28793	-0.024
Mof_C 	C 	0.56797	0.84583	0.29188	-0.309
Mof_C 	C 	0.60787	0.82803	0.28793	0.342
Mof_H 	H 	0.60037	0.79213	0.29103	-0.07
Mof_C 	C 	0.65617	0.85883	0.28003	-0.605
Mof_H 	H 	0.68487	0.84933	0.27913	0.258
Mof_C 	C 	0.52467	0.81283	0.30264	0.465
Mof_Co	Co	0.95562	0.094	0.34673	1.184
Mof_Co	Co	0.09624	0.14247	0.3443	1.161
Mof_O 	O 	0.6876	0.0004	0.39992	-0.25
Mof_O 	O 	0.87899	0.09656	0.35301	-0.369
Mof_O 	O 	0.88896	0.02424	0.35991	-0.478
Mof_O 	O 	0.90592	0.02668	0.33133	-0.658
Mof_O 	O 	0.96667	0.02023	0.31914	-0.452
Mof_O 	O 	0.01682	0.0709	0.34771	-0.594
Mof_O 	O 	0.55997	0.87633	0.39991	-0.258
Mof_O 	O 	0.4814	0.83325	0.33659	-0.448
Mof_O 	O 	0.48734	0.8288	0.30464	-0.435
Mof_O 	O 	0.50097	0.76235	0.34027	-0.452
Mof_O 	O 	0.5262	0.7723	0.30823	-0.481
Mof_O 	O 	0.82977	0.05063	0.26877	-0.483
Mof_O 	O 	0.70107	0.91953	0.2627	-0.259
Mof_C 	C 	0.82137	0.00623	0.25886	0.21
Mof_H 	H 	0.85477	0.00803	0.25453	-0.036
Mof_H 	H 	0.80357	0.97293	0.26493	-0.001
Mof_C 	C 	0.71787	0.97963	0.2592	0.182
Mof_H 	H 	0.69367	0.99033	0.25403	-0.035
Mof_H 	H 	0.72387	0.99693	0.26843	-0.017
Mof_C 	C 	0.53033	0.38697	0.69391	0.343
Mof_C 	C 	0.48433	0.37057	0.70484	-0.201
Mof_C 	C 	0.45573	0.40257	0.70502	0.143
Mof_H 	H 	0.46543	0.43237	0.69867	0
Mof_C 	C 	0.41223	0.38807	0.7149	-0.26
Mof_H 	H 	0.39273	0.40857	0.71527	0.136
Mof_C 	C 	0.39833	0.34357	0.72419	0.285
Mof_C 	C 	0.42713	0.31347	0.72386	-0.284
Mof_H 	H 	0.41873	0.28417	0.73027	0.137
Mof_C 	C 	0.46923	0.32807	0.71366	0.175
Mof_H 	H 	0.48753	0.30647	0.71307	-0.011
Mof_C 	C 	0.33673	0.28957	0.74315	0.036
Mof_H 	H 	0.32943	0.25427	0.73857	0.034
Mof_H 	H 	0.36653	0.29977	0.75017	0.037
Mof_C 	C 	0.16373	0.13917	0.67746	0.427
Mof_C 	C 	0.18183	0.15937	0.69207	-0.239
Mof_C 	C 	0.19593	0.12897	0.70132	0.211
Mof_H 	H 	0.19743	0.09677	0.69837	-0.029
Mof_C 	C 	0.20783	0.14757	0.71525	-0.35
Mof_H 	H 	0.21243	0.12437	0.72177	0.162
Mof_C 	C 	0.21273	0.19597	0.7195	0.343
Mof_C 	C 	0.19633	0.22727	0.71078	-0.311
Mof_H 	H 	0.19633	0.26007	0.71387	0.15
Mof_C 	C 	0.18013	0.20647	0.69721	0.198
Mof_H 	H 	0.16753	0.22547	0.69127	-0.017
Mof_C 	C 	0.23633	0.26347	0.73858	0.033
Mof_H 	H 	0.24973	0.29207	0.73117	0.033
Mof_H 	H 	0.20103	0.25947	0.74237	0.045
Mof_C 	C 	0.58973	0.35857	0.65353	0.638
Mof_C 	C 	0.56513	0.36347	0.63991	-0.584
Mof_C 	C 	0.52013	0.36997	0.6402	0.545
Mof_H 	H 	0.50463	0.37137	0.64877	-0.151
Mof_C 	C 	0.49493	0.37437	0.62813	-0.585
Mof_H 	H 	0.46433	0.38127	0.62847	0.249
Mof_C 	C 	0.51683	0.36827	0.61532	0.593
Mof_C 	C 	0.56173	0.36257	0.61597	-0.665
Mof_H 	H 	0.57843	0.36137	0.60757	0.267
Mof_C 	C 	0.58703	0.35837	0.62816	0.575
Mof_H 	H 	0.61813	0.35217	0.62797	-0.137
Mof_O 	O 	0.46833	0.36927	0.60771	-0.053
Mof_O 	O 	0.38433	0.26087	0.60134	-0.041
Mof_C 	C 	0.48003	0.38317	0.59257	0.533
Mof_H 	H 	0.50853	0.41577	0.58717	-0.113
Mof_H 	H 	0.49353	0.35627	0.59417	-0.136
Mof_C 	C 	0.38273	0.29137	0.58829	-0.052
Mof_H 	H 	0.39403	0.26497	0.58447	0.053
Mof_H 	H 	0.35013	0.28827	0.58317	0.028
Mof_C 	C 	0.32413	0.23027	0.60796	0.472
Mof_C 	C 	0.28763	0.25687	0.60856	-0.35
Mof_H 	H 	0.29303	0.28807	0.60317	0.156
Mof_C 	C 	0.24063	0.22607	0.61908	0.225
Mof_H 	H 	0.21603	0.23987	0.62127	-0.025
Mof_C 	C 	0.23463	0.17917	0.62522	-0.31
Mof_C 	C 	0.27453	0.16137	0.62127	0.341
Mof_H 	H 	0.26703	0.12547	0.62437	-0.07
Mof_C 	C 	0.32283	0.19217	0.61337	-0.605
Mof_H 	H 	0.35153	0.18267	0.61247	0.258
Mof_C 	C 	0.19133	0.14617	0.63598	0.464
Mof_Co	Co	0.62228	0.42734	0.68006	1.183
Mof_Co	Co	0.7629	0.47581	0.67764	1.162
Mof_O 	O 	0.35426	0.33374	0.73326	-0.246
Mof_O 	O 	0.54565	0.4299	0.68635	-0.368
Mof_O 	O 	0.55562	0.35758	0.69325	-0.475
Mof_O 	O 	0.57258	0.36002	0.66467	-0.657
Mof_O 	O 	0.63333	0.35357	0.65248	-0.455
Mof_O 	O 	0.68348	0.40424	0.68105	-0.587
Mof_O 	O 	0.22663	0.20967	0.73325	-0.26
Mof_O 	O 	0.14806	0.16659	0.66993	-0.449
Mof_O 	O 	0.154	0.16214	0.63798	-0.437
Mof_O 	O 	0.16763	0.09569	0.67361	-0.455
Mof_O 	O 	0.19286	0.10564	0.64157	-0.483
Mof_O 	O 	0.49643	0.38397	0.60211	-0.484
Mof_O 	O 	0.36773	0.25287	0.59604	-0.256
Mof_C 	C 	0.48803	0.33957	0.5922	0.208
Mof_H 	H 	0.52143	0.34137	0.58787	-0.03
Mof_H 	H 	0.47023	0.30627	0.59827	-0.005
Mof_C 	C 	0.38453	0.31297	0.59254	0.175
Mof_H 	H 	0.36033	0.32367	0.58737	-0.039
Mof_H 	H 	0.39053	0.33027	0.60177	-0.018
Mof_C 	C 	0.94842	0.33333	0.58333	0.013
Mof_C 	C 	0.66667	0.61508	0.58333	-0.002
Mof_C 	C 	0.38492	0.05158	0.58333	-0.02
Mof_C 	C 	0.33333	0.94842	0.91667	0.013
Mof_C 	C 	-1.74313e-17	0.28175	0.25	-0.025
Mof_C 	C 	0.61508	0.66667	0.91667	-0.002
Mof_C 	C 	0.28175	0	0.25	-0.025
Mof_C 	C 	0.05158	0.38492	0.91667	-0.02
Mof_C 	C 	0.71825	0.71825	0.25	-0.002
Mof_C 	C 	0.05158	0.66667	0.41667	-0.018
Mof_C 	C 	0.71825	0	0.75	-0.023
Mof_C 	C 	0.33333	0.38492	0.41667	-0.003
Mof_C 	C 	-2.18273e-17	0.71825	0.75	-0.023
Mof_C 	C 	0.61508	0.94842	0.41667	0.013
Mof_C 	C 	0.28175	0.28175	0.75	-0.003
Mof_C 	C 	0.66667	0.05158	0.08333	-0.018
Mof_C 	C 	0.38492	0.33333	0.08333	-0.003
Mof_C 	C 	0.94842	0.61508	0.08333	0.013
Mof_C 	C 	0.10878	0.44212	0.41667	-0.16
Mof_C 	C 	0.10453	0.43787	0.41667	-0.199
Mof_C 	C 	0.77545	0.77545	0.75	-0.159
Mof_C 	C 	0.7712	0.7712	0.75	-0.199
Mof_C 	C 	0.55788	0.66667	0.41667	-0.159
Mof_C 	C 	0.56213	0.66667	0.41667	-0.199
Mof_C 	C 	0.22455	0	0.75	-0.167
Mof_C 	C 	0.2288	0	0.75	-0.206
Mof_C 	C 	0.33333	0.89122	0.41667	-0.16
Mof_C 	C 	0.33333	0.89547	0.41667	-0.199
Mof_C 	C 	8.63915e-18	0.22455	0.75	-0.167
Mof_C 	C 	8.63915e-18	0.2288	0.75	-0.206
Mof_C 	C 	0.44212	0.10878	0.08333	-0.16
Mof_C 	C 	0.43787	0.10453	0.08333	-0.199
Mof_C 	C 	0.66667	0.55788	0.08333	-0.159
Mof_C 	C 	0.66667	0.56213	0.08333	-0.199
Mof_C 	C 	0.89122	0.33333	0.08333	-0.16
Mof_C 	C 	0.89547	0.33333	0.08333	-0.199
Mof_C 	C 	0.89122	0.55788	0.58333	-0.16
Mof_C 	C 	0.89547	0.56213	0.58333	-0.199
Mof_C 	C 	0.44212	0.33333	0.58333	-0.16
Mof_C 	C 	0.43787	0.33333	0.58333	-0.199
Mof_C 	C 	0.66667	0.10878	0.58333	-0.159
Mof_C 	C 	0.66667	0.10453	0.58333	-0.199
Mof_C 	C 	0.55788	0.89122	0.91667	-0.16
Mof_C 	C 	0.56213	0.89547	0.91667	-0.199
Mof_C 	C 	0.22455	0.22455	0.25	-0.16
Mof_C 	C 	0.2288	0.2288	0.25	-0.2
Mof_C 	C 	0.33333	0.44212	0.91667	-0.16
Mof_C 	C 	0.33333	0.43787	0.91667	-0.199
Mof_C 	C 	1.30352e-17	0.77545	0.25	-0.166
Mof_C 	C 	1.30352e-17	0.7712	0.25	-0.205
Mof_C 	C 	0.10878	0.66667	0.91667	-0.159
Mof_C 	C 	0.10453	0.66667	0.91667	-0.199
Mof_C 	C 	0.77545	0	0.25	-0.166
Mof_C 	C 	0.7712	0	0.25	-0.205
Mof_Co	Co	0.33333	0.66667	0.50198	1.193
Mof_Co	Co	2.70597e-32	5.41193e-32	0.83531	1.186
Mof_Co	Co	0.66667	0.33333	0.16865	1.193
Mof_Co	Co	0.66667	0.33333	0.99802	1.193
Mof_Co	Co	0.33333	0.66667	0.33135	1.193
Mof_Co	Co	-5.41193e-32	0	0.66469	1.186
Mof_Co	Co	0.66667	0.33333	0.49802	1.193
Mof_Co	Co	0.33333	0.66667	0.83135	1.193
Mof_Co	Co	-0	0	0.16469	1.186
Mof_Co	Co	0.33333	0.66667	0.00198	1.193
Mof_Co	Co	-0	0	0.33531	1.186
Mof_Co	Co	0.66667	0.33333	0.66865	1.193
_end
