data_functionalizedCrystal
_audit_creation_method	'EQeq! by Chris Wilmer'
_symmetry_space_group_name_H-M	'P1'
_symmetry_Int_Tables_number	1
_symmetry_cell_setting	triclinic
loop_
_symmetry_equiv_pos_as_xyz
  x,y,z
_cell_length_a	12.7623
_cell_length_b	8.3831
_cell_length_c	23.961
_cell_angle_alpha	90
_cell_angle_beta	104.924
_cell_angle_gamma	90
loop_
_atom_site_label
_atom_site_type_symbol
_atom_site_fract_x
_atom_site_fract_y
_atom_site_fract_z
_atom_site_charge
Mof_La	La	0.90642	0.71699	0.1252	2.204
Mof_La	La	0.0936	0.00943	0.38315	1.901
Mof_C 	C 	0.9742	0.5452	0.26512	-0.324
Mof_H 	H 	0.0382	0.4828	0.2618	0.097
Mof_H 	H 	0.9525	0.5068	0.2996	0.12
Mof_C 	C 	0.0045	0.7206	0.27279	0.493
Mof_C 	C 	0.7825	0.5712	0.22612	-0.351
Mof_H 	H 	0.7942	0.6751	0.2464	0.12
Mof_H 	H 	0.7613	0.4925	0.252	0.145
Mof_C 	C 	0.6917	0.5875	0.17123	0.489
Mof_C 	C 	0.0402	0.3986	0.0888	-0.356
Mof_H 	H 	0.0254	0.4406	0.0489	0.123
Mof_H 	H 	0.0669	0.2877	0.0887	0.141
Mof_C 	C 	0.1266	0.5007	0.12891	0.498
Mof_C 	C 	0.8478	0.3335	0.06305	-0.355
Mof_H 	H 	0.7948	0.285	0.0817	0.14
Mof_H 	H 	0.8758	0.2477	0.0424	0.162
Mof_C 	C 	0.7896	0.4572	0.01905	0.504
Mof_C 	C 	0.8758	0.3486	0.1964	-0.08
Mof_H 	H 	0.8014	0.3265	0.1727	0.046
Mof_H 	H 	0.889	0.2815	0.2315	0.045
Mof_C 	C 	0.9568	0.3055	0.16226	-0.066
Mof_H 	H 	0.0312	0.3255	0.1863	0.027
Mof_H 	H 	0.9505	0.1905	0.1527	0.058
Mof_N 	N 	0.8847	0.5194	0.21333	-0.114
Mof_N 	N 	0.9386	0.3996	0.10814	-0.109
Mof_N 	N 	0.7424	0.9909	0.11319	0.06
Mof_N 	N 	0.0564	0.9002	0.06546	0.065
Mof_O 	O 	0.9885	0.807	0.22833	-0.504
Mof_O 	O 	0.0454	0.7668	0.32334	-0.512
Mof_O 	O 	0.7169	0.6319	0.12596	-0.517
Mof_O 	O 	0.5978	0.5592	0.17423	-0.534
Mof_O 	O 	0.0946	0.611	0.15671	-0.509
Mof_O 	O 	0.2232	0.4704	0.13229	-0.541
Mof_O 	O 	0.8183	0.6011	0.02801	-0.548
Mof_O 	O 	0.7159	0.4074	0.97806	-0.533
Mof_O 	O 	0.76	0.9327	0.06795	-0.264
Mof_O 	O 	0.8069	0.958	0.16081	-0.297
Mof_O 	O 	0.6638	0.0789	0.11107	-0.161
Mof_O 	O 	0.036	0.9524	0.11233	-0.285
Mof_O 	O 	0.007	0.7763	0.0441	-0.286
Mof_O 	O 	0.1215	0.9681	0.0441	-0.143
Mof_O 	O 	0.1885	0.7496	0.43456	-1.364
Mof_H 	H 	0.2029	0.7256	0.4104	0.788
Mof_H 	H 	0.2393	0.7808	0.4674	0.507
Mof_La	La	0.59358	0.21699	0.3748	2.216
Mof_La	La	0.4064	0.50943	0.11685	1.933
Mof_C 	C 	0.5258	0.0452	0.23488	-0.322
Mof_H 	H 	0.4618	0.9828	0.2382	0.099
Mof_H 	H 	0.5475	0.0068	0.2004	0.118
Mof_C 	C 	0.4955	0.2206	0.22721	0.483
Mof_C 	C 	0.7175	0.0712	0.27388	-0.347
Mof_H 	H 	0.7058	0.1751	0.2536	0.119
Mof_H 	H 	0.7387	0.9925	0.248	0.143
Mof_C 	C 	0.8083	0.0875	0.32877	0.486
Mof_C 	C 	0.4598	0.8986	0.4112	-0.346
Mof_H 	H 	0.4746	0.9406	0.4511	0.122
Mof_H 	H 	0.4331	0.7877	0.4113	0.141
Mof_C 	C 	0.3734	0.0007	0.37109	0.483
Mof_C 	C 	0.6522	0.8335	0.43695	-0.353
Mof_H 	H 	0.7052	0.785	0.4183	0.14
Mof_H 	H 	0.6242	0.7477	0.4576	0.162
Mof_C 	C 	0.7104	0.9572	0.48095	0.5
Mof_C 	C 	0.6242	0.8486	0.3036	-0.075
Mof_H 	H 	0.6986	0.8265	0.3273	0.044
Mof_H 	H 	0.611	0.7815	0.2685	0.043
Mof_C 	C 	0.5432	0.8055	0.33774	-0.072
Mof_H 	H 	0.4688	0.8255	0.3137	0.032
Mof_H 	H 	0.5495	0.6905	0.3473	0.059
Mof_N 	N 	0.6153	0.0194	0.28667	-0.116
Mof_N 	N 	0.5614	0.8996	0.39186	-0.109
Mof_N 	N 	0.7576	0.4909	0.38681	0.061
Mof_N 	N 	0.4436	0.4002	0.43454	0.066
Mof_O 	O 	0.5115	0.307	0.27167	-0.498
Mof_O 	O 	0.4546	0.2668	0.17666	-0.518
Mof_O 	O 	0.7831	0.1319	0.37404	-0.515
Mof_O 	O 	0.9022	0.0592	0.32577	-0.527
Mof_O 	O 	0.4054	0.111	0.34329	-0.509
Mof_O 	O 	0.2768	0.9704	0.36771	-0.527
Mof_O 	O 	0.6817	0.1011	0.47199	-0.543
Mof_O 	O 	0.7841	0.9074	0.52194	-0.532
Mof_O 	O 	0.74	0.4327	0.43205	-0.261
Mof_O 	O 	0.6931	0.458	0.33919	-0.296
Mof_O 	O 	0.8362	0.5789	0.38893	-0.162
Mof_O 	O 	0.464	0.4524	0.38767	-0.292
Mof_O 	O 	0.493	0.2763	0.4559	-0.289
Mof_O 	O 	0.3785	0.4681	0.4559	-0.146
Mof_O 	O 	0.3115	0.2496	0.06544	-1.371
Mof_H 	H 	0.2971	0.2256	0.0896	0.788
Mof_H 	H 	0.2607	0.2808	0.0326	0.507
Mof_La	La	0.09358	0.28301	0.8748	2.205
Mof_La	La	0.9064	0.99057	0.61685	1.902
Mof_C 	C 	0.0258	0.4548	0.73488	-0.324
Mof_H 	H 	0.9618	0.5172	0.7382	0.097
Mof_H 	H 	0.0475	0.4932	0.7004	0.12
Mof_C 	C 	0.9955	0.2794	0.72721	0.493
Mof_C 	C 	0.2175	0.4288	0.77388	-0.351
Mof_H 	H 	0.2058	0.3249	0.7536	0.12
Mof_H 	H 	0.2387	0.5075	0.748	0.145
Mof_C 	C 	0.3083	0.4125	0.82877	0.489
Mof_C 	C 	0.9598	0.6014	0.9112	-0.356
Mof_H 	H 	0.9746	0.5594	0.9511	0.123
Mof_H 	H 	0.9331	0.7123	0.9113	0.141
Mof_C 	C 	0.8734	0.4993	0.87109	0.498
Mof_C 	C 	0.1522	0.6665	0.93695	-0.355
Mof_H 	H 	0.2052	0.715	0.9183	0.14
Mof_H 	H 	0.1242	0.7523	0.9576	0.162
Mof_C 	C 	0.2104	0.5428	0.98095	0.504
Mof_C 	C 	0.1242	0.6514	0.8036	-0.08
Mof_H 	H 	0.1986	0.6735	0.8273	0.046
Mof_H 	H 	0.111	0.7185	0.7685	0.045
Mof_C 	C 	0.0432	0.6945	0.83774	-0.066
Mof_H 	H 	0.9688	0.6745	0.8137	0.027
Mof_H 	H 	0.0495	0.8095	0.8473	0.058
Mof_N 	N 	0.1153	0.4806	0.78667	-0.114
Mof_N 	N 	0.0614	0.6004	0.89186	-0.109
Mof_N 	N 	0.2576	0.0091	0.88681	0.06
Mof_N 	N 	0.9436	0.0998	0.93454	0.065
Mof_O 	O 	0.0115	0.193	0.77167	-0.504
Mof_O 	O 	0.9546	0.2332	0.67666	-0.512
Mof_O 	O 	0.2831	0.3681	0.87404	-0.517
Mof_O 	O 	0.4022	0.4408	0.82577	-0.534
Mof_O 	O 	0.9054	0.389	0.84329	-0.509
Mof_O 	O 	0.7768	0.5296	0.86771	-0.541
Mof_O 	O 	0.1817	0.3989	0.97199	-0.548
Mof_O 	O 	0.2841	0.5926	0.02194	-0.533
Mof_O 	O 	0.24	0.0673	0.93205	-0.264
Mof_O 	O 	0.1931	0.042	0.83919	-0.297
Mof_O 	O 	0.3362	0.9211	0.88893	-0.161
Mof_O 	O 	0.964	0.0476	0.88767	-0.285
Mof_O 	O 	0.993	0.2237	0.9559	-0.286
Mof_O 	O 	0.8785	0.0319	0.9559	-0.143
Mof_O 	O 	0.8115	0.2504	0.56544	-1.364
Mof_H 	H 	0.7971	0.2744	0.5896	0.788
Mof_H 	H 	0.7607	0.2192	0.5326	0.507
Mof_La	La	0.40642	0.78301	0.6252	2.216
Mof_La	La	0.5936	0.49057	0.88315	1.933
Mof_C 	C 	0.4742	0.9548	0.76512	-0.322
Mof_H 	H 	0.5382	0.0172	0.7618	0.099
Mof_H 	H 	0.4525	0.9932	0.7996	0.118
Mof_C 	C 	0.5045	0.7794	0.77279	0.483
Mof_C 	C 	0.2825	0.9288	0.72612	-0.347
Mof_H 	H 	0.2942	0.8249	0.7464	0.119
Mof_H 	H 	0.2613	0.0075	0.752	0.143
Mof_C 	C 	0.1917	0.9125	0.67123	0.486
Mof_C 	C 	0.5402	0.1014	0.5888	-0.346
Mof_H 	H 	0.5254	0.0594	0.5489	0.122
Mof_H 	H 	0.5669	0.2123	0.5887	0.141
Mof_C 	C 	0.6266	0.9993	0.62891	0.483
Mof_C 	C 	0.3478	0.1665	0.56305	-0.353
Mof_H 	H 	0.2948	0.215	0.5817	0.14
Mof_H 	H 	0.3758	0.2523	0.5424	0.162
Mof_C 	C 	0.2896	0.0428	0.51905	0.5
Mof_C 	C 	0.3758	0.1514	0.6964	-0.075
Mof_H 	H 	0.3014	0.1735	0.6727	0.044
Mof_H 	H 	0.389	0.2185	0.7315	0.043
Mof_C 	C 	0.4568	0.1945	0.66226	-0.072
Mof_H 	H 	0.5312	0.1745	0.6863	0.032
Mof_H 	H 	0.4505	0.3095	0.6527	0.059
Mof_N 	N 	0.3847	0.9806	0.71333	-0.116
Mof_N 	N 	0.4386	0.1004	0.60814	-0.109
Mof_N 	N 	0.2424	0.5091	0.61319	0.061
Mof_N 	N 	0.5564	0.5998	0.56546	0.066
Mof_O 	O 	0.4885	0.693	0.72833	-0.498
Mof_O 	O 	0.5454	0.7332	0.82334	-0.518
Mof_O 	O 	0.2169	0.8681	0.62596	-0.515
Mof_O 	O 	0.0978	0.9408	0.67423	-0.527
Mof_O 	O 	0.5946	0.889	0.65671	-0.509
Mof_O 	O 	0.7232	0.0296	0.63229	-0.527
Mof_O 	O 	0.3183	0.8989	0.52801	-0.543
Mof_O 	O 	0.2159	0.0926	0.47806	-0.532
Mof_O 	O 	0.26	0.5673	0.56795	-0.261
Mof_O 	O 	0.3069	0.542	0.66081	-0.296
Mof_O 	O 	0.1638	0.4211	0.61107	-0.162
Mof_O 	O 	0.536	0.5476	0.61233	-0.292
Mof_O 	O 	0.507	0.7237	0.5441	-0.289
Mof_O 	O 	0.6215	0.5319	0.5441	-0.146
Mof_O 	O 	0.6885	0.7504	0.93456	-1.371
Mof_H 	H 	0.7029	0.7744	0.9104	0.788
Mof_H 	H 	0.7393	0.7192	0.9674	0.507
_end
