data_functionalizedCrystal
_audit_creation_method	'EQeq! by Chris Wilmer'
_symmetry_space_group_name_H-M	'P1'
_symmetry_Int_Tables_number	1
_symmetry_cell_setting	triclinic
loop_
_symmetry_equiv_pos_as_xyz
  x,y,z
_cell_length_a	9.2741
_cell_length_b	9.3899
_cell_length_c	15.0567
_cell_angle_alpha	108.169
_cell_angle_beta	92.5244
_cell_angle_gamma	90
loop_
_atom_site_label
_atom_site_type_symbol
_atom_site_fract_x
_atom_site_fract_y
_atom_site_fract_z
_atom_site_charge
Mof_Cu	Cu	0.87996	0.36179	0.38492	0.891
Mof_Cu	Cu	0.62004	0.97687	0.61508	0.889
Mof_Cu	Cu	0.12004	0.63821	0.61508	0.891
Mof_Cu	Cu	0.37996	0.02313	0.38492	0.891
Mof_H 	H 	0.1431	0.7044	0.254	0.133
Mof_H 	H 	0.0356	0.6317	0.3664	-0.017
Mof_H 	H 	0.0434	0.2986	0.0702	0.106
Mof_H 	H 	0.9307	0.24	0.188	-0.008
Mof_H 	H 	0.1083	0.6034	0.0426	0.122
Mof_H 	H 	0.2544	0.6327	0.104	0.13
Mof_H 	H 	0.3224	0.3852	0.0304	-0.003
Mof_H 	H 	0.3569	0.4504	0.746	0.134
Mof_H 	H 	0.4644	0.2653	0.6336	-0.018
Mof_H 	H 	0.4566	0.2284	0.9298	0.115
Mof_H 	H 	0.5693	0.052	0.812	-0.005
Mof_H 	H 	0.3917	0.5608	0.9574	0.127
Mof_H 	H 	0.2456	0.5287	0.896	0.131
Mof_H 	H 	0.1776	0.3548	0.9696	0.01
Mof_H 	H 	0.8569	0.2956	0.746	0.134
Mof_H 	H 	0.9644	0.3683	0.6336	-0.018
Mof_H 	H 	0.9566	0.7014	0.9298	0.115
Mof_H 	H 	0.0693	0.76	0.812	-0.006
Mof_H 	H 	0.8917	0.3966	0.9574	0.128
Mof_H 	H 	0.7456	0.3673	0.896	0.132
Mof_H 	H 	0.6776	0.6148	0.9696	0.009
Mof_H 	H 	0.6431	0.5496	0.254	0.133
Mof_H 	H 	0.5356	0.7347	0.3664	-0.018
Mof_H 	H 	0.5434	0.7716	0.0702	0.107
Mof_H 	H 	0.4307	0.948	0.188	-0.007
Mof_H 	H 	0.6083	0.4392	0.0426	0.121
Mof_H 	H 	0.7544	0.4713	0.104	0.13
Mof_H 	H 	0.8224	0.6452	0.0304	-0.003
Mof_C 	C 	0.1022	0.6077	0.2388	-0.24
Mof_C 	C 	0.0368	0.5638	0.3054	0.142
Mof_C 	C 	0.0426	0.3691	0.1302	-0.232
Mof_C 	C 	0.1084	0.509	0.1478	0.214
Mof_C 	C 	0.9762	0.3342	0.2014	0.126
Mof_C 	C 	0.1804	0.5565	0.0736	-0.329
Mof_C 	C 	0.1404	0.2013	0.4064	0.017
Mof_C 	C 	0.0992	0.0676	0.3244	0.27
Mof_C 	C 	0.3978	0.3689	0.7612	-0.24
Mof_C 	C 	0.4632	0.2584	0.6946	0.143
Mof_C 	C 	0.4574	0.2389	0.8698	-0.231
Mof_C 	C 	0.3916	0.3612	0.8522	0.215
Mof_C 	C 	0.5238	0.1328	0.7986	0.127
Mof_C 	C 	0.3196	0.4829	0.9264	-0.321
Mof_C 	C 	0.3596	0.7949	0.5936	0.015
Mof_C 	C 	0.4008	0.7432	0.6756	0.278
Mof_C 	C 	0.8978	0.3923	0.7612	-0.241
Mof_C 	C 	0.9632	0.4362	0.6946	0.143
Mof_C 	C 	0.9574	0.6309	0.8698	-0.234
Mof_C 	C 	0.8916	0.491	0.8522	0.217
Mof_C 	C 	0.0238	0.6658	0.7986	0.129
Mof_C 	C 	0.8196	0.4435	0.9264	-0.323
Mof_C 	C 	0.8596	0.7987	0.5936	0.017
Mof_C 	C 	0.9008	0.9324	0.6756	0.268
Mof_C 	C 	0.6022	0.6311	0.2388	-0.24
Mof_C 	C 	0.5368	0.7416	0.3054	0.142
Mof_C 	C 	0.5426	0.7611	0.1302	-0.231
Mof_C 	C 	0.6084	0.6388	0.1478	0.214
Mof_C 	C 	0.4762	0.8672	0.2014	0.125
Mof_C 	C 	0.6804	0.5171	0.0736	-0.33
Mof_C 	C 	0.6404	0.2051	0.4064	0.015
Mof_C 	C 	0.5992	0.2568	0.3244	0.278
Mof_C 	C 	0.25	0.4309	-0	0.093
Mof_C 	C 	0.75	0.5691	-0	0.095
Mof_N 	N 	0.974	0.42877	0.28854	-0.246
Mof_N 	N 	0.0723	0.32768	0.44316	-0.173
Mof_N 	N 	0.1592	0.41133	0.51246	-0.124
Mof_N 	N 	0.2797	0.33805	0.5171	-0.051
Mof_N 	N 	0.269	0.20487	0.44994	-0.167
Mof_N 	N 	0.526	0.14023	0.71146	-0.245
Mof_N 	N 	0.4277	0.88452	0.55684	-0.173
Mof_N 	N 	0.3408	0.89887	0.48754	-0.123
Mof_N 	N 	0.2203	0.82095	0.4829	-0.051
Mof_N 	N 	0.231	0.75493	0.55006	-0.166
Mof_N 	N 	0.026	0.57123	0.71146	-0.246
Mof_N 	N 	0.9277	0.67232	0.55684	-0.174
Mof_N 	N 	0.8408	0.58867	0.48754	-0.124
Mof_N 	N 	0.7203	0.66195	0.4829	-0.052
Mof_N 	N 	0.731	0.79513	0.55006	-0.167
Mof_N 	N 	0.474	0.85977	0.28854	-0.245
Mof_N 	N 	0.5723	0.11548	0.44316	-0.172
Mof_N 	N 	0.6592	0.10113	0.51246	-0.123
Mof_N 	N 	0.7797	0.17905	0.5171	-0.051
Mof_N 	N 	0.769	0.24507	0.44994	-0.167
Mof_O 	O 	0.1983	0.9711	0.3054	-0.361
Mof_O 	O 	0.9796	0.06282	0.28504	-0.268
Mof_O 	O 	0.3017	0.6657	0.6946	-0.364
Mof_O 	O 	0.5204	0.77778	0.71496	-0.272
Mof_O 	O 	0.8017	0.0289	0.6946	-0.358
Mof_O 	O 	0.0204	0.93718	0.71496	-0.266
Mof_O 	O 	0.6983	0.3343	0.3054	-0.365
Mof_O 	O 	0.4796	0.22222	0.28504	-0.273
_end
