data_functionalizedCrystal
_audit_creation_method	'EQeq! by Chris Wilmer'
_symmetry_space_group_name_H-M	'P1'
_symmetry_Int_Tables_number	1
_symmetry_cell_setting	triclinic
loop_
_symmetry_equiv_pos_as_xyz
  x,y,z
_cell_length_a	19.275
_cell_length_b	19.275
_cell_length_c	13.123
_cell_angle_alpha	90
_cell_angle_beta	90
_cell_angle_gamma	120
loop_
_atom_site_label
_atom_site_type_symbol
_atom_site_fract_x
_atom_site_fract_y
_atom_site_fract_z
_atom_site_charge
Mof_I 	I 	0.29947	0.52021	0.68535	-0.805
Mof_Cu	Cu	0.40034	0.64565	0.57622	0.721
Mof_N 	N 	0.484	0.6217	0.5214	-0.221
Mof_C 	C 	0.5557	0.6492	0.5668	0.031
Mof_H 	H 	0.5641	0.6744	0.6314	-0.004
Mof_C 	C 	0.5332	0.577	0.3822	0.034
Mof_C 	C 	0.4742	0.5865	0.4314	-0.006
Mof_H 	H 	0.4239	0.5664	0.3984	0.014
Mof_C 	C 	0.6162	0.6426	0.5255	-0.06
Mof_H 	H 	0.6656	0.6623	0.5606	0.056
Mof_N 	N 	0.5261	0.5921	0.189	-0.213
Mof_C 	C 	0.518	0.5389	0.2751	-0.079
Mof_H 	H 	0.5559	0.519	0.2642	-0.001
Mof_H 	H 	0.4632	0.4919	0.2737	0.006
Mof_C 	C 	0.4663	0.617	0.185	-0.194
Mof_H 	H 	0.4788	0.6538	0.1265	0.008
Mof_H 	H 	0.4711	0.6477	0.2477	0.092
Mof_C 	C 	0.3831	0.5525	0.1755	0.143
Mof_H 	H 	0.3678	0.5174	0.2363	-0.022
Mof_H 	H 	0.3473	0.5754	0.1716	-0.024
Mof_C 	C 	0.6048	0.606	0.4291	-0.062
Mof_H 	H 	0.6469	0.6018	0.3977	0.063
Mof_C 	C 	0.6072	0.6636	0.1816	-0.072
Mof_C 	C 	0.6703	0.6475	0.1569	0.031
Mof_H 	H 	0.6722	0.6109	0.2085	0.015
Mof_H 	H 	0.7224	0.6981	0.158	0.011
Mof_O 	O 	0.3741	0.5067	0.0861	-0.498
Mof_O 	O 	0.6567	0.6104	0.0546	-0.454
Mof_C 	C 	0.7117	0.5851	0.0357	-0.265
Mof_H 	H 	0.7014	0.5407	0.0824	0.005
Mof_H 	H 	0.7666	0.6298	0.0488	0.059
Mof_C 	C 	0.2947	0.4423	0.0722	-0.28
Mof_H 	H 	0.2556	0.4604	0.0854	0.042
Mof_H 	H 	0.2835	0.398	0.1197	0.051
Mof_O 	O 	0.5024	0.632	0.899	-0.464
Mof_Cu	Cu	0.4516	0.6894	0.8495	0.794
Mof_I 	I 	0.5689	0.6765	0.872	-0.092
Mof_I 	I 	0.47979	0.77926	0.68535	-0.792
Mof_Cu	Cu	0.35435	0.75469	0.57622	0.723
Mof_N 	N 	0.3783	0.8623	0.5214	-0.221
Mof_C 	C 	0.3508	0.9065	0.5668	0.003
Mof_H 	H 	0.3256	0.8897	0.6314	0.01
Mof_C 	C 	0.423	0.9562	0.3822	-0.019
Mof_C 	C 	0.4135	0.8877	0.4314	0.022
Mof_H 	H 	0.4336	0.8575	0.3984	0.008
Mof_C 	C 	0.3574	0.9736	0.5255	0.007
Mof_H 	H 	0.3377	0.0033	0.5606	-0.016
Mof_N 	N 	0.4079	0.934	0.189	-0.213
Mof_C 	C 	0.4611	0.9791	0.2751	0.045
Mof_H 	H 	0.481	0.0369	0.2642	-0.065
Mof_H 	H 	0.5081	0.9713	0.2737	-0.005
Mof_C 	C 	0.383	0.8493	0.185	-0.171
Mof_H 	H 	0.3462	0.825	0.1265	0.006
Mof_H 	H 	0.3523	0.8234	0.2477	0.081
Mof_C 	C 	0.4475	0.8306	0.1755	0.121
Mof_H 	H 	0.4826	0.8504	0.2363	-0.009
Mof_H 	H 	0.4246	0.7719	0.1716	-0.017
Mof_C 	C 	0.394	0.9988	0.4291	0.036
Mof_H 	H 	0.3982	0.0451	0.3977	-0.008
Mof_C 	C 	0.3364	0.9436	0.1816	-0.01
Mof_C 	C 	0.3525	0.0228	0.1569	-0.048
Mof_H 	H 	0.3891	0.0613	0.2085	0.029
Mof_H 	H 	0.3019	0.0243	0.158	0.001
Mof_O 	O 	0.4933	0.8674	0.0861	-0.456
Mof_O 	O 	0.3896	0.0463	0.0546	-0.438
Mof_C 	C 	0.4149	0.1266	0.0357	-0.275
Mof_H 	H 	0.4593	0.1607	0.0824	0.011
Mof_H 	H 	0.3702	0.1368	0.0488	0.047
Mof_C 	C 	0.5577	0.8524	0.0722	-0.281
Mof_H 	H 	0.5396	0.7952	0.0854	0.046
Mof_H 	H 	0.602	0.8855	0.1197	0.072
Mof_O 	O 	0.368	0.8704	0.899	-0.446
Mof_Cu	Cu	0.3106	0.7622	0.8495	0.794
Mof_I 	I 	0.3235	0.8924	0.872	-0.056
Mof_I 	I 	0.22074	0.70053	0.68535	-0.803
Mof_Cu	Cu	0.24531	0.59966	0.57622	0.721
Mof_N 	N 	0.1377	0.516	0.5214	-0.221
Mof_C 	C 	0.0935	0.4443	0.5668	0.052
Mof_H 	H 	0.1103	0.4359	0.6314	-0.024
Mof_C 	C 	0.0438	0.4668	0.3822	0.099
Mof_C 	C 	0.1123	0.5258	0.4314	-0.045
Mof_H 	H 	0.1425	0.5761	0.3984	0.024
Mof_C 	C 	0.0264	0.3838	0.5255	-0.137
Mof_H 	H 	0.9967	0.3344	0.5606	0.118
Mof_N 	N 	0.066	0.4739	0.189	-0.18
Mof_C 	C 	0.0209	0.482	0.2751	-0.234
Mof_H 	H 	0.9631	0.4441	0.2642	0.091
Mof_H 	H 	0.0287	0.5368	0.2737	0.038
Mof_C 	C 	0.1507	0.5337	0.185	-0.191
Mof_H 	H 	0.175	0.5212	0.1265	0.011
Mof_H 	H 	0.1766	0.5289	0.2477	0.092
Mof_C 	C 	0.1694	0.6169	0.1755	0.135
Mof_H 	H 	0.1496	0.6322	0.2363	-0.021
Mof_H 	H 	0.2281	0.6527	0.1716	-0.021
Mof_C 	C 	0.0012	0.3952	0.4291	-0.186
Mof_H 	H 	0.9549	0.3531	0.3977	0.139
Mof_C 	C 	0.0564	0.3928	0.1816	-0.153
Mof_C 	C 	0.9772	0.3297	0.1569	0.131
Mof_H 	H 	0.9387	0.3278	0.2085	-0.004
Mof_H 	H 	0.9757	0.2776	0.158	-0.011
Mof_O 	O 	0.1326	0.6259	0.0861	-0.473
Mof_O 	O 	0.9537	0.3433	0.0546	-0.418
Mof_C 	C 	0.8734	0.2883	0.0357	-0.257
Mof_H 	H 	0.8393	0.2986	0.0824	0.009
Mof_H 	H 	0.8632	0.2334	0.0488	0.051
Mof_C 	C 	0.1476	0.7053	0.0722	-0.278
Mof_H 	H 	0.2048	0.7444	0.0854	0.044
Mof_H 	H 	0.1145	0.7165	0.1197	0.05
Mof_O 	O 	0.1296	0.4976	0.899	-0.428
Mof_Cu	Cu	0.2378	0.5484	0.8495	0.794
Mof_I 	I 	0.1076	0.4311	0.872	-0.137
Mof_I 	I 	0.70053	0.47979	0.31465	-0.81
Mof_Cu	Cu	0.59966	0.35435	0.42378	0.724
Mof_N 	N 	0.516	0.3783	0.4786	-0.219
Mof_C 	C 	0.4443	0.3508	0.4332	0.02
Mof_H 	H 	0.4359	0.3256	0.3686	-0.006
Mof_C 	C 	0.4668	0.423	0.6178	0.038
Mof_C 	C 	0.5258	0.4135	0.5686	-0.011
Mof_H 	H 	0.5761	0.4336	0.6016	0.018
Mof_C 	C 	0.3838	0.3574	0.4745	-0.054
Mof_H 	H 	0.3344	0.3377	0.4394	0.034
Mof_N 	N 	0.4739	0.4079	0.811	-0.184
Mof_C 	C 	0.482	0.4611	0.7249	-0.087
Mof_H 	H 	0.4441	0.481	0.7358	0.009
Mof_H 	H 	0.5368	0.5081	0.7263	0.019
Mof_C 	C 	0.5337	0.383	0.815	-0.216
Mof_H 	H 	0.5212	0.3462	0.8735	0.107
Mof_H 	H 	0.5289	0.3523	0.7523	0.104
Mof_C 	C 	0.6169	0.4475	0.8245	0.183
Mof_H 	H 	0.6322	0.4826	0.7637	-0.03
Mof_H 	H 	0.6527	0.4246	0.8284	0.012
Mof_C 	C 	0.3952	0.394	0.5709	-0.072
Mof_H 	H 	0.3531	0.3982	0.6023	0.061
Mof_C 	C 	0.3928	0.3364	0.8184	-0.002
Mof_C 	C 	0.3297	0.3525	0.8431	0.031
Mof_H 	H 	0.3278	0.3891	0.7915	0.014
Mof_H 	H 	0.2776	0.3019	0.842	0.043
Mof_O 	O 	0.6259	0.4933	0.9139	-0.462
Mof_O 	O 	0.3433	0.3896	0.9454	-0.415
Mof_C 	C 	0.2883	0.4149	0.9643	0.39
Mof_H 	H 	0.2986	0.4593	0.9176	-0.116
Mof_H 	H 	0.2334	0.3702	0.9512	-0.038
Mof_C 	C 	0.7053	0.5577	0.9278	0.366
Mof_H 	H 	0.7444	0.5396	0.9146	-0.035
Mof_H 	H 	0.7165	0.602	0.8803	-0.044
Mof_O 	O 	0.4976	0.368	0.101	-0.488
Mof_Cu	Cu	0.5484	0.3106	0.1505	0.775
Mof_I 	I 	0.4311	0.3235	0.128	-0.363
Mof_I 	I 	0.52021	0.22074	0.31465	-0.82
Mof_Cu	Cu	0.64565	0.24531	0.42378	0.724
Mof_N 	N 	0.6217	0.1377	0.4786	-0.22
Mof_C 	C 	0.6492	0.0935	0.4332	0.05
Mof_H 	H 	0.6744	0.1103	0.3686	-0.02
Mof_C 	C 	0.577	0.0438	0.6178	0.088
Mof_C 	C 	0.5865	0.1123	0.5686	-0.038
Mof_H 	H 	0.5664	0.1425	0.6016	0.024
Mof_C 	C 	0.6426	0.0264	0.4745	-0.126
Mof_H 	H 	0.6623	0.9967	0.4394	0.108
Mof_N 	N 	0.5921	0.066	0.811	-0.16
Mof_C 	C 	0.5389	0.0209	0.7249	-0.21
Mof_H 	H 	0.519	0.9631	0.7358	0.083
Mof_H 	H 	0.4919	0.0287	0.7263	0.042
Mof_C 	C 	0.617	0.1507	0.815	-0.215
Mof_H 	H 	0.6538	0.175	0.8735	0.112
Mof_H 	H 	0.6477	0.1766	0.7523	0.107
Mof_C 	C 	0.5525	0.1694	0.8245	0.179
Mof_H 	H 	0.5174	0.1496	0.7637	-0.033
Mof_H 	H 	0.5754	0.2281	0.8284	0.012
Mof_C 	C 	0.606	0.0012	0.5709	-0.164
Mof_H 	H 	0.6018	0.9549	0.6023	0.13
Mof_C 	C 	0.6636	0.0564	0.8184	-0.045
Mof_C 	C 	0.6475	0.9772	0.8431	0.087
Mof_H 	H 	0.6109	0.9387	0.7915	0.011
Mof_H 	H 	0.6981	0.9757	0.842	0.056
Mof_O 	O 	0.5067	0.1326	0.9139	-0.442
Mof_O 	O 	0.6104	0.9537	0.9454	-0.375
Mof_C 	C 	0.5851	0.8734	0.9643	0.378
Mof_H 	H 	0.5407	0.8393	0.9176	-0.108
Mof_H 	H 	0.6298	0.8632	0.9512	-0.024
Mof_C 	C 	0.4423	0.1476	0.9278	0.372
Mof_H 	H 	0.4604	0.2048	0.9146	-0.04
Mof_H 	H 	0.398	0.1145	0.8803	-0.058
Mof_O 	O 	0.632	0.1296	0.101	-0.468
Mof_Cu	Cu	0.6894	0.2378	0.1505	0.776
Mof_I 	I 	0.6765	0.1076	0.128	-0.366
Mof_I 	I 	0.77926	0.29947	0.31465	-0.809
Mof_Cu	Cu	0.75469	0.40034	0.42378	0.725
Mof_N 	N 	0.8623	0.484	0.4786	-0.217
Mof_C 	C 	0.9065	0.5557	0.4332	-0.006
Mof_H 	H 	0.8897	0.5641	0.3686	0.017
Mof_C 	C 	0.9562	0.5332	0.6178	-0.02
Mof_C 	C 	0.8877	0.4742	0.5686	0.025
Mof_H 	H 	0.8575	0.4239	0.6016	0.009
Mof_C 	C 	0.9736	0.6162	0.4745	0.033
Mof_H 	H 	0.0033	0.6656	0.4394	-0.032
Mof_N 	N 	0.934	0.5261	0.811	-0.187
Mof_C 	C 	0.9791	0.518	0.7249	0.05
Mof_H 	H 	0.0369	0.5559	0.7358	-0.061
Mof_H 	H 	0.9713	0.4632	0.7263	0.004
Mof_C 	C 	0.8493	0.4663	0.815	-0.192
Mof_H 	H 	0.825	0.4788	0.8735	0.107
Mof_H 	H 	0.8234	0.4711	0.7523	0.096
Mof_C 	C 	0.8306	0.3831	0.8245	0.16
Mof_H 	H 	0.8504	0.3678	0.7637	-0.019
Mof_H 	H 	0.7719	0.3473	0.8284	0.018
Mof_C 	C 	0.9988	0.6048	0.5709	0.042
Mof_H 	H 	0.0451	0.6469	0.6023	-0.01
Mof_C 	C 	0.9436	0.6072	0.8184	0.088
Mof_C 	C 	0.0228	0.6703	0.8431	-0.078
Mof_H 	H 	0.0613	0.6722	0.7915	0.042
Mof_H 	H 	0.0243	0.7224	0.842	0.068
Mof_O 	O 	0.8674	0.3741	0.9139	-0.414
Mof_O 	O 	0.0463	0.6567	0.9454	-0.384
Mof_C 	C 	0.1266	0.7117	0.9643	0.375
Mof_H 	H 	0.1607	0.7014	0.9176	-0.107
Mof_H 	H 	0.1368	0.7666	0.9512	-0.03
Mof_C 	C 	0.8524	0.2947	0.9278	0.35
Mof_H 	H 	0.7952	0.2556	0.9146	-0.032
Mof_H 	H 	0.8855	0.2835	0.8803	-0.033
Mof_O 	O 	0.8704	0.5024	0.101	-0.48
Mof_Cu	Cu	0.7622	0.4516	0.1505	0.775
Mof_I 	I 	0.8924	0.5689	0.128	-0.271
Mof_I 	I 	0.33333	0.66667	0.40693	-0.596
Mof_Cu	Cu	0.33333	0.66667	0.74913	0.575
Mof_I 	I 	0.33333	0.66667	0.94872	-0.641
Mof_I 	I 	0.66667	0.33333	0.59307	-0.581
Mof_Cu	Cu	0.66667	0.33333	0.25087	0.583
Mof_I 	I 	0.66667	0.33333	0.05128	-1.036
Mof_K 	K 	0.5	0.5	-0	2.917
Mof_K 	K 	0.5	0	-0	2.637
Mof_K 	K 	-0	0.5	-0	2.584
_end
