data_functionalizedCrystal
_audit_creation_method	'EQeq! by Chris Wilmer'
_symmetry_space_group_name_H-M	'P1'
_symmetry_Int_Tables_number	1
_symmetry_cell_setting	triclinic
loop_
_symmetry_equiv_pos_as_xyz
  x,y,z
_cell_length_a	14.5345
_cell_length_b	14.5345
_cell_length_c	21.9356
_cell_angle_alpha	82.2636
_cell_angle_beta	82.2636
_cell_angle_gamma	66.6477
loop_
_atom_site_label
_atom_site_type_symbol
_atom_site_fract_x
_atom_site_fract_y
_atom_site_fract_z
_atom_site_charge
Mof_Ce	Ce	0.53207	0.95185	0.59573	2.563
Mof_Ce	Ce	0.04815	0.46793	0.90427	2.539
Mof_Ce	Ce	0.46793	0.04815	0.40427	2.563
Mof_Ce	Ce	0.95185	0.53207	0.09573	2.539
Mof_Si	Si	0.8893	0.34932	0.50609	0.774
Mof_Si	Si	0.65068	0.1107	0.99391	0.763
Mof_Si	Si	0.1107	0.65068	0.49391	0.774
Mof_Si	Si	0.34932	0.8893	0.00609	0.763
Mof_H 	H 	0.743	0.7062	0.5385	0.008
Mof_H 	H 	0.8193	0.5689	0.4817	0.011
Mof_H 	H 	0.8257	0.3869	0.635	0.01
Mof_H 	H 	0.754	0.5224	0.6914	0.012
Mof_H 	H 	0.6803	0.3767	0.5049	-0.026
Mof_H 	H 	0.5844	0.2822	0.5321	0.072
Mof_H 	H 	0.8267	0.0475	0.5877	0.086
Mof_H 	H 	0.9238	0.1422	0.5578	-0.019
Mof_H 	H 	0.0154	0.4918	0.3175	0.093
Mof_H 	H 	0.0032	0.4426	0.4213	-0.018
Mof_H 	H 	0.7916	0.343	0.3962	-0.023
Mof_H 	H 	0.8081	0.3881	0.2916	0.084
Mof_H 	H 	0.0274	0.34	0.5984	-0.006
Mof_H 	H 	0.1906	0.24	0.6181	0.071
Mof_H 	H 	0.2188	0.0888	0.4719	0.046
Mof_H 	H 	0.0547	0.1845	0.4553	-0.005
Mof_H 	H 	0.7046	0.6448	0.7255	0.291
Mof_H 	H 	0.2938	0.257	0.9615	0.004
Mof_H 	H 	0.4311	0.1807	0.0183	0.017
Mof_H 	H 	0.6131	0.1743	0.865	0.012
Mof_H 	H 	0.4776	0.246	0.8086	0.01
Mof_H 	H 	0.6233	0.3197	0.9951	-0.025
Mof_H 	H 	0.7178	0.4156	0.9679	0.072
Mof_H 	H 	0.9525	0.1733	0.9123	0.087
Mof_H 	H 	0.8578	0.0762	0.9422	-0.018
Mof_H 	H 	0.5082	0.9846	0.1825	0.086
Mof_H 	H 	0.5574	0.9968	0.0787	-0.021
Mof_H 	H 	0.657	0.2084	0.1038	-0.022
Mof_H 	H 	0.6119	0.1919	0.2084	0.083
Mof_H 	H 	0.66	0.9726	0.9016	-0.004
Mof_H 	H 	0.76	0.8094	0.8819	0.072
Mof_H 	H 	0.9112	0.7812	0.0281	0.045
Mof_H 	H 	0.8155	0.9453	0.0447	-0.004
Mof_H 	H 	0.3552	0.2954	0.7745	0.291
Mof_H 	H 	0.257	0.2938	0.4615	0.008
Mof_H 	H 	0.1807	0.4311	0.5183	0.011
Mof_H 	H 	0.1743	0.6131	0.365	0.01
Mof_H 	H 	0.246	0.4776	0.3086	0.012
Mof_H 	H 	0.3197	0.6233	0.4951	-0.026
Mof_H 	H 	0.4156	0.7178	0.4679	0.072
Mof_H 	H 	0.1733	0.9525	0.4123	0.086
Mof_H 	H 	0.0762	0.8578	0.4422	-0.019
Mof_H 	H 	0.9846	0.5082	0.6825	0.093
Mof_H 	H 	0.9968	0.5574	0.5787	-0.018
Mof_H 	H 	0.2084	0.657	0.6038	-0.023
Mof_H 	H 	0.1919	0.6119	0.7084	0.084
Mof_H 	H 	0.9726	0.66	0.4016	-0.006
Mof_H 	H 	0.8094	0.76	0.3819	0.071
Mof_H 	H 	0.7812	0.9112	0.5281	0.046
Mof_H 	H 	0.9453	0.8155	0.5447	-0.005
Mof_H 	H 	0.2954	0.3552	0.2745	0.291
Mof_H 	H 	0.7062	0.743	0.0385	0.004
Mof_H 	H 	0.5689	0.8193	0.9817	0.017
Mof_H 	H 	0.3869	0.8257	0.135	0.012
Mof_H 	H 	0.5224	0.754	0.1914	0.01
Mof_H 	H 	0.3767	0.6803	0.0049	-0.025
Mof_H 	H 	0.2822	0.5844	0.0321	0.072
Mof_H 	H 	0.0475	0.8267	0.0877	0.087
Mof_H 	H 	0.1422	0.9238	0.0578	-0.018
Mof_H 	H 	0.4918	0.0154	0.8175	0.086
Mof_H 	H 	0.4426	0.0032	0.9213	-0.021
Mof_H 	H 	0.343	0.7916	0.8962	-0.022
Mof_H 	H 	0.3881	0.8081	0.7916	0.083
Mof_H 	H 	0.34	0.0274	0.0984	-0.004
Mof_H 	H 	0.24	0.1906	0.1181	0.072
Mof_H 	H 	0.0888	0.2188	0.9719	0.045
Mof_H 	H 	0.1845	0.0547	0.9553	-0.004
Mof_H 	H 	0.6448	0.7046	0.2255	0.291
Mof_C 	C 	0.69323	0.71763	0.65864	0.525
Mof_C 	C 	0.73879	0.62859	0.62103	-0.18
Mof_C 	C 	0.75958	0.64158	0.55823	0.009
Mof_C 	C 	0.80515	0.55875	0.52406	0.018
Mof_C 	C 	0.83011	0.46191	0.55118	-0.24
Mof_C 	C 	0.8094	0.4512	0.61488	0.025
Mof_C 	C 	0.7657	0.5325	0.64877	-0.004
Mof_C 	C 	0.81391	0.26931	0.52754	-0.293
Mof_C 	C 	0.71055	0.31015	0.52092	0.109
Mof_C 	C 	0.65272	0.25392	0.53762	-0.133
Mof_C 	C 	0.69582	0.15502	0.56274	0.01
Mof_C 	C 	0.63404	0.09244	0.58029	0.278
Mof_C 	C 	0.79717	0.11357	0.57057	-0.13
Mof_C 	C 	0.85531	0.17091	0.5527	0.113
Mof_C 	C 	0.32875	0.09135	0.55913	0.389
Mof_C 	C 	0.92739	0.47079	0.22556	0.304
Mof_C 	C 	0.91428	0.44288	0.29327	0.024
Mof_C 	C 	0.9712	0.4606	0.33315	-0.127
Mof_C 	C 	0.96276	0.43236	0.3956	0.109
Mof_C 	C 	0.89448	0.38868	0.421	-0.288
Mof_C 	C 	0.83723	0.37243	0.38068	0.113
Mof_C 	C 	0.84724	0.39944	0.31762	-0.126
Mof_C 	C 	0.02224	0.27364	0.52429	-0.267
Mof_C 	C 	0.06538	0.28898	0.57316	0.077
Mof_C 	C 	0.16367	0.22967	0.58472	-0.078
Mof_C 	C 	0.22239	0.15459	0.54664	-0.073
Mof_C 	C 	0.18034	0.13874	0.49773	-0.068
Mof_C 	C 	0.08209	0.19689	0.48766	0.074
Mof_C 	C 	0.28237	0.30677	0.84136	0.526
Mof_C 	C 	0.37141	0.26121	0.87897	-0.185
Mof_C 	C 	0.35842	0.24042	0.94177	0.016
Mof_C 	C 	0.44125	0.19485	0.97594	0.005
Mof_C 	C 	0.53809	0.16989	0.94882	-0.232
Mof_C 	C 	0.5488	0.1906	0.88512	0.018
Mof_C 	C 	0.4675	0.2343	0.85123	0.002
Mof_C 	C 	0.73069	0.18609	0.97246	-0.29
Mof_C 	C 	0.68985	0.28945	0.97908	0.108
Mof_C 	C 	0.74608	0.34728	0.96238	-0.132
Mof_C 	C 	0.84498	0.30418	0.93726	0.011
Mof_C 	C 	0.90756	0.36596	0.91971	0.277
Mof_C 	C 	0.88643	0.20283	0.92943	-0.129
Mof_C 	C 	0.82909	0.14469	0.9473	0.112
Mof_C 	C 	0.90865	0.67125	0.94087	0.386
Mof_C 	C 	0.52921	0.07261	0.27444	0.306
Mof_C 	C 	0.55712	0.08572	0.20673	0.021
Mof_C 	C 	0.5394	0.0288	0.16685	-0.118
Mof_C 	C 	0.56764	0.03724	0.1044	0.109
Mof_C 	C 	0.61132	0.10552	0.079	-0.284
Mof_C 	C 	0.62757	0.16277	0.11932	0.11
Mof_C 	C 	0.60056	0.15276	0.18238	-0.123
Mof_C 	C 	0.72636	0.97776	0.97571	-0.254
Mof_C 	C 	0.71102	0.93462	0.92684	0.073
Mof_C 	C 	0.77033	0.83633	0.91528	-0.078
Mof_C 	C 	0.84541	0.77761	0.95336	-0.064
Mof_C 	C 	0.86126	0.81966	0.00227	-0.074
Mof_C 	C 	0.80311	0.91791	0.01234	0.064
Mof_C 	C 	0.30677	0.28237	0.34136	0.525
Mof_C 	C 	0.26121	0.37141	0.37897	-0.18
Mof_C 	C 	0.24042	0.35842	0.44177	0.009
Mof_C 	C 	0.19485	0.44125	0.47594	0.018
Mof_C 	C 	0.16989	0.53809	0.44882	-0.24
Mof_C 	C 	0.1906	0.5488	0.38512	0.025
Mof_C 	C 	0.2343	0.4675	0.35123	-0.004
Mof_C 	C 	0.18609	0.73069	0.47246	-0.293
Mof_C 	C 	0.28945	0.68985	0.47908	0.109
Mof_C 	C 	0.34728	0.74608	0.46238	-0.133
Mof_C 	C 	0.30418	0.84498	0.43726	0.01
Mof_C 	C 	0.36596	0.90756	0.41971	0.278
Mof_C 	C 	0.20283	0.88643	0.42943	-0.13
Mof_C 	C 	0.14469	0.82909	0.4473	0.113
Mof_C 	C 	0.67125	0.90865	0.44087	0.389
Mof_C 	C 	0.07261	0.52921	0.77444	0.304
Mof_C 	C 	0.08572	0.55712	0.70673	0.024
Mof_C 	C 	0.0288	0.5394	0.66685	-0.127
Mof_C 	C 	0.03724	0.56764	0.6044	0.109
Mof_C 	C 	0.10552	0.61132	0.579	-0.288
Mof_C 	C 	0.16277	0.62757	0.61932	0.113
Mof_C 	C 	0.15276	0.60056	0.68238	-0.126
Mof_C 	C 	0.97776	0.72636	0.47571	-0.267
Mof_C 	C 	0.93462	0.71102	0.42684	0.077
Mof_C 	C 	0.83633	0.77033	0.41528	-0.078
Mof_C 	C 	0.77761	0.84541	0.45336	-0.073
Mof_C 	C 	0.81966	0.86126	0.50227	-0.068
Mof_C 	C 	0.91791	0.80311	0.51234	0.074
Mof_C 	C 	0.71763	0.69323	0.15864	0.526
Mof_C 	C 	0.62859	0.73879	0.12103	-0.185
Mof_C 	C 	0.64158	0.75958	0.05823	0.016
Mof_C 	C 	0.55875	0.80515	0.02406	0.005
Mof_C 	C 	0.46191	0.83011	0.05118	-0.232
Mof_C 	C 	0.4512	0.8094	0.11488	0.018
Mof_C 	C 	0.5325	0.7657	0.14877	0.002
Mof_C 	C 	0.26931	0.81391	0.02754	-0.29
Mof_C 	C 	0.31015	0.71055	0.02092	0.108
Mof_C 	C 	0.25392	0.65272	0.03762	-0.132
Mof_C 	C 	0.15502	0.69582	0.06274	0.011
Mof_C 	C 	0.09244	0.63404	0.08029	0.277
Mof_C 	C 	0.11357	0.79717	0.07057	-0.129
Mof_C 	C 	0.17091	0.85531	0.0527	0.112
Mof_C 	C 	0.09135	0.32875	0.05913	0.386
Mof_C 	C 	0.47079	0.92739	0.72556	0.306
Mof_C 	C 	0.44288	0.91428	0.79327	0.021
Mof_C 	C 	0.4606	0.9712	0.83315	-0.118
Mof_C 	C 	0.43236	0.96276	0.8956	0.109
Mof_C 	C 	0.38868	0.89448	0.921	-0.284
Mof_C 	C 	0.37243	0.83723	0.88068	0.11
Mof_C 	C 	0.39944	0.84724	0.81762	-0.123
Mof_C 	C 	0.27364	0.02224	0.02429	-0.254
Mof_C 	C 	0.28898	0.06538	0.07316	0.073
Mof_C 	C 	0.22967	0.16367	0.08472	-0.078
Mof_C 	C 	0.15459	0.22239	0.04664	-0.064
Mof_C 	C 	0.13874	0.18034	0.99773	-0.074
Mof_C 	C 	0.19689	0.08209	0.98766	0.064
Mof_O 	O 	0.6833	0.7051	0.71458	-0.566
Mof_O 	O 	0.67026	0.80434	0.62962	-0.588
Mof_O 	O 	0.67377	0.00629	0.608	-0.441
Mof_O 	O 	0.54417	0.12557	0.5658	-0.468
Mof_O 	O 	0.35354	0.07926	0.61277	-0.5
Mof_O 	O 	0.87991	0.44903	0.18915	-0.468
Mof_O 	O 	0.9862	0.51498	0.20542	-0.456
Mof_O 	O 	0.39265	0.04857	0.51493	-0.706
Mof_O 	O 	0.2949	0.3167	0.78542	-0.567
Mof_O 	O 	0.19566	0.32974	0.87038	-0.587
Mof_O 	O 	0.99371	0.32623	0.892	-0.435
Mof_O 	O 	0.87443	0.45583	0.9342	-0.464
Mof_O 	O 	0.92074	0.64646	0.88723	-0.494
Mof_O 	O 	0.55097	0.12009	0.31085	-0.47
Mof_O 	O 	0.48502	0.0138	0.29458	-0.455
Mof_O 	O 	0.95143	0.60735	0.98507	-0.697
Mof_O 	O 	0.3167	0.2949	0.28542	-0.566
Mof_O 	O 	0.32974	0.19566	0.37038	-0.588
Mof_O 	O 	0.32623	0.99371	0.392	-0.441
Mof_O 	O 	0.45583	0.87443	0.4342	-0.468
Mof_O 	O 	0.64646	0.92074	0.38723	-0.5
Mof_O 	O 	0.12009	0.55097	0.81085	-0.468
Mof_O 	O 	0.0138	0.48502	0.79458	-0.456
Mof_O 	O 	0.60735	0.95143	0.48507	-0.706
Mof_O 	O 	0.7051	0.6833	0.21458	-0.567
Mof_O 	O 	0.80434	0.67026	0.12962	-0.587
Mof_O 	O 	0.00629	0.67377	0.108	-0.435
Mof_O 	O 	0.12557	0.54417	0.0658	-0.464
Mof_O 	O 	0.07926	0.35354	0.11277	-0.494
Mof_O 	O 	0.44903	0.87991	0.68915	-0.47
Mof_O 	O 	0.51498	0.9862	0.70542	-0.455
Mof_O 	O 	0.04857	0.39265	0.01493	-0.697
_end
