data_functionalizedCrystal
_audit_creation_method	'EQeq! by Chris Wilmer'
_symmetry_space_group_name_H-M	'P1'
_symmetry_Int_Tables_number	1
_symmetry_cell_setting	triclinic
loop_
_symmetry_equiv_pos_as_xyz
  x,y,z
_cell_length_a	8.2368
_cell_length_b	9.4063
_cell_length_c	20.366
_cell_angle_alpha	90
_cell_angle_beta	90
_cell_angle_gamma	110.286
loop_
_atom_site_label
_atom_site_type_symbol
_atom_site_fract_x
_atom_site_fract_y
_atom_site_fract_z
_atom_site_charge
Mof_Nd	Nd	0.38068	0.4028	0.64808	2.305
Mof_Nd	Nd	0.61932	0.0972	0.14808	2.283
Mof_Nd	Nd	0.61932	0.5972	0.35192	2.304
Mof_Nd	Nd	0.38068	0.9028	0.85192	2.282
Mof_Cu	Cu	0.03966	0.95409	0.70291	0.904
Mof_Cu	Cu	0.96034	0.54591	0.20291	0.909
Mof_Cu	Cu	0.96034	0.04591	0.29709	0.904
Mof_Cu	Cu	0.03966	0.45409	0.79709	0.909
Mof_P 	P 	0.21773	0.69964	0.69938	0.487
Mof_P 	P 	0.78227	0.80036	0.19938	0.487
Mof_P 	P 	0.78227	0.30036	0.30062	0.487
Mof_P 	P 	0.21773	0.19964	0.80062	0.487
Mof_H 	H 	0.7827	0.7382	0.5914	0.11
Mof_H 	H 	0.8735	0.615	0.6037	0.131
Mof_H 	H 	0.1107	0.9051	0.5287	0.123
Mof_H 	H 	0.9474	0.9467	0.5532	0.116
Mof_H 	H 	0.1522	0.6884	0.5895	0.103
Mof_H 	H 	0.2864	0.8504	0.6066	0.098
Mof_H 	H 	0.2173	0.7618	0.0914	0.112
Mof_H 	H 	0.1265	0.885	0.1037	0.132
Mof_H 	H 	0.8893	0.5949	0.0287	0.119
Mof_H 	H 	0.0526	0.5533	0.0532	0.109
Mof_H 	H 	0.8478	0.8116	0.0895	0.105
Mof_H 	H 	0.7136	0.6496	0.1066	0.099
Mof_H 	H 	0.2173	0.2618	0.4086	0.11
Mof_H 	H 	0.1265	0.385	0.3963	0.131
Mof_H 	H 	0.8893	0.0949	0.4713	0.123
Mof_H 	H 	0.0526	0.0533	0.4468	0.116
Mof_H 	H 	0.8478	0.3116	0.4105	0.103
Mof_H 	H 	0.7136	0.1496	0.3934	0.098
Mof_H 	H 	0.7827	0.2382	0.9086	0.112
Mof_H 	H 	0.8735	0.115	0.8963	0.132
Mof_H 	H 	0.1107	0.4051	0.9713	0.119
Mof_H 	H 	0.9474	0.4467	0.9468	0.109
Mof_H 	H 	0.1522	0.1884	0.9105	0.105
Mof_H 	H 	0.2864	0.3504	0.8934	0.099
Mof_C 	C 	0.7826	0.6796	0.68958	0.448
Mof_C 	C 	0.8613	0.7091	0.621	-0.334
Mof_C 	C 	0.06	0.9404	0.56678	-0.331
Mof_C 	C 	0.1809	0.0957	0.58864	0.378
Mof_C 	C 	0.1799	0.7716	0.62087	-0.255
Mof_C 	C 	0.5696	0.462	0.50264	0.275
Mof_C 	C 	0.2174	0.8204	0.18958	0.448
Mof_C 	C 	0.1387	0.7909	0.121	-0.339
Mof_C 	C 	0.94	0.5596	0.06678	-0.312
Mof_C 	C 	0.8191	0.4043	0.08864	0.366
Mof_C 	C 	0.8201	0.7284	0.12087	-0.255
Mof_C 	C 	0.4304	0.038	0.00264	0.268
Mof_C 	C 	0.2174	0.3204	0.31042	0.448
Mof_C 	C 	0.1387	0.2909	0.379	-0.334
Mof_C 	C 	0.94	0.0596	0.43322	-0.331
Mof_C 	C 	0.8191	0.9043	0.41136	0.378
Mof_C 	C 	0.8201	0.2284	0.37913	-0.255
Mof_C 	C 	0.4304	0.538	0.49736	0.275
Mof_C 	C 	0.7826	0.1796	0.81042	0.448
Mof_C 	C 	0.8613	0.2091	0.879	-0.339
Mof_C 	C 	0.06	0.4404	0.93322	-0.312
Mof_C 	C 	0.1809	0.5957	0.91136	0.366
Mof_C 	C 	0.1799	0.2716	0.87913	-0.255
Mof_C 	C 	0.5696	0.962	0.99736	0.268
Mof_N 	N 	0.0341	0.8321	0.62175	-0.094
Mof_N 	N 	0.9659	0.6679	0.12175	-0.093
Mof_N 	N 	0.9659	0.1679	0.37825	-0.094
Mof_N 	N 	0.0341	0.3321	0.87825	-0.093
Mof_O 	O 	0.844	0.7812	0.73333	-0.439
Mof_O 	O 	0.6583	0.559	0.6997	-0.522
Mof_O 	O 	0.204	0.1168	0.65119	-0.598
Mof_O 	O 	0.2485	0.1983	0.5493	-0.448
Mof_O 	O 	0.3628	0.6381	0.68955	-0.517
Mof_O 	O 	0.0478	0.5708	0.7186	-0.425
Mof_O 	O 	0.261	0.8354	0.74497	-0.57
Mof_O 	O 	0.5936	0.4146	0.55853	-0.466
Mof_O 	O 	0.6482	0.455	0.45095	-0.48
Mof_O 	O 	0.156	0.7188	0.23333	-0.44
Mof_O 	O 	0.3417	0.941	0.1997	-0.517
Mof_O 	O 	0.796	0.3832	0.15119	-0.598
Mof_O 	O 	0.7515	0.3017	0.0493	-0.447
Mof_O 	O 	0.6372	0.8619	0.18955	-0.513
Mof_O 	O 	0.9522	0.9292	0.2186	-0.418
Mof_O 	O 	0.739	0.6646	0.24497	-0.57
Mof_O 	O 	0.4064	0.0854	0.05853	-0.464
Mof_O 	O 	0.3518	0.045	0.95095	-0.469
Mof_O 	O 	0.156	0.2188	0.26667	-0.439
Mof_O 	O 	0.3417	0.441	0.3003	-0.522
Mof_O 	O 	0.796	0.8832	0.34881	-0.598
Mof_O 	O 	0.7515	0.8017	0.4507	-0.448
Mof_O 	O 	0.6372	0.3619	0.31045	-0.517
Mof_O 	O 	0.9522	0.4292	0.2814	-0.425
Mof_O 	O 	0.739	0.1646	0.25503	-0.57
Mof_O 	O 	0.4064	0.5854	0.44147	-0.466
Mof_O 	O 	0.3518	0.545	0.54905	-0.48
Mof_O 	O 	0.844	0.2812	0.76667	-0.44
Mof_O 	O 	0.6583	0.059	0.8003	-0.517
Mof_O 	O 	0.204	0.6168	0.84881	-0.598
Mof_O 	O 	0.2485	0.6983	0.9507	-0.447
Mof_O 	O 	0.3628	0.1381	0.81045	-0.513
Mof_O 	O 	0.0478	0.0708	0.7814	-0.418
Mof_O 	O 	0.261	0.3354	0.75503	-0.57
Mof_O 	O 	0.5936	0.9146	0.94147	-0.464
Mof_O 	O 	0.6482	0.955	0.04905	-0.469
_end
