data_functionalizedCrystal
_audit_creation_method	'EQeq! by Chris Wilmer'
_symmetry_space_group_name_H-M	'P1'
_symmetry_Int_Tables_number	1
_symmetry_cell_setting	triclinic
loop_
_symmetry_equiv_pos_as_xyz
  x,y,z
_cell_length_a	14.7409
_cell_length_b	15.3429
_cell_length_c	22.1924
_cell_angle_alpha	90
_cell_angle_beta	103.716
_cell_angle_gamma	90
loop_
_atom_site_label
_atom_site_type_symbol
_atom_site_fract_x
_atom_site_fract_y
_atom_site_fract_z
_atom_site_charge
Mof_C 	C 	0.1658	0.6744	0.1644	0.014
Mof_H 	H 	0.1663	0.6142	0.1594	0.052
Mof_C 	C 	0.1668	0.7301	0.1131	-0.217
Mof_O 	O 	0.1646	0.8761	0.076	-0.462
Mof_C 	C 	0.1654	0.8211	0.1178	0.294
Mof_C 	C 	0.1613	0.8522	0.1808	-0.19
Mof_H 	H 	0.1567	0.9118	0.1871	0.112
Mof_C 	C 	0.164	0.7981	0.2292	0.014
Mof_H 	H 	0.1656	0.8205	0.2683	0.035
Mof_C 	C 	0.1643	0.7083	0.2199	0.03
Mof_N 	N 	0.1635	0.6478	0.2661	-0.083
Mof_O 	O 	0.0206	0.7887	0.7548	-0.453
Mof_C 	C 	0.9445	0.7951	0.7732	0.328
Mof_C 	C 	0.8615	0.7848	0.731	-0.253
Mof_H 	H 	0.8637	0.7728	0.6903	0.122
Mof_C 	C 	0.9434	0.8172	0.8351	-0.24
Mof_C 	C 	0.8525	0.8168	0.8495	0.033
Mof_H 	H 	0.8497	0.821	0.8908	0.05
Mof_C 	C 	0.7763	0.7904	0.7432	0.054
Mof_H 	H 	0.723	0.781	0.7118	0.026
Mof_C 	C 	0.7682	0.8106	0.804	0.022
Mof_N 	N 	0.6886	0.8106	0.8271	-0.079
Mof_Zn	Zn	0.15394	0.59981	0.95404	1.196
Mof_O 	O 	0.1668	0.603	0.0485	-0.416
Mof_O 	O 	0.1592	0.7287	0.0012	-0.537
Mof_C 	C 	0.1638	0.687	0.0534	0.338
Mof_Zn	Zn	0.14892	0.86595	0.98783	1.204
Mof_O 	O 	0.1053	0.8185	0.8802	-0.572
Mof_C 	C 	0.0217	0.8284	0.8873	0.397
Mof_N 	N 	0.145	0.0064	0.9836	-0.231
Mof_C 	C 	0.2157	0.053	0.0232	0.049
Mof_H 	H 	0.2607	0.0237	0.0527	-0.003
Mof_C 	C 	0.219	0.1432	0.0186	-0.116
Mof_H 	H 	0.2663	0.1743	0.0451	0.074
Mof_C 	C 	0.1517	0.1869	0.9745	0.053
Mof_C 	C 	0.081	0.1404	0.9349	-0.114
Mof_H 	H 	0.036	0.1696	0.9054	0.076
Mof_C 	C 	0.0777	0.0501	0.9395	0.052
Mof_H 	H 	0.0304	0.019	0.913	0.014
Mof_O 	O 	0.0108	0.8561	0.9391	-0.431
Mof_N 	N 	0.1564	0.4638	0.9574	-0.247
Mof_C 	C 	0.2397	0.4191	0.9792	0.056
Mof_H 	H 	0.2957	0.4497	0.9907	-0.019
Mof_C 	C 	0.2395	0.3288	0.9839	-0.117
Mof_H 	H 	0.2952	0.2989	0.9985	0.067
Mof_C 	C 	0.1558	0.2831	0.9667	0.051
Mof_C 	C 	0.0725	0.3278	0.9449	-0.106
Mof_H 	H 	0.0166	0.2973	0.9334	0.069
Mof_C 	C 	0.0727	0.4182	0.9403	0.049
Mof_H 	H 	0.017	0.4481	0.9257	0.008
Mof_Zn	Zn	0.15251	0.80752	0.80565	1.23
Mof_C 	C 	0.2803	0.7483	0.7286	0.381
Mof_C 	C 	0.3583	0.7918	0.841	0.242
Mof_C 	C 	0.3646	0.7713	0.78	-0.2
Mof_C 	C 	0.45	0.7715	0.7622	0.012
Mof_H 	H 	0.4529	0.7559	0.7222	0.055
Mof_C 	C 	0.53	0.7958	0.8062	0.039
Mof_C 	C 	0.5269	0.8125	0.8679	0.002
Mof_H 	H 	0.5816	0.8246	0.8974	0.034
Mof_C 	C 	0.4435	0.8111	0.8843	-0.184
Mof_H 	H 	0.4423	0.823	0.9252	0.086
Mof_C 	C 	0.1528	0.648	0.5324	0.376
Mof_C 	C 	0.1563	0.6053	0.4737	-0.213
Mof_C 	C 	0.1589	0.6525	0.4218	0.017
Mof_H 	H 	0.1588	0.7128	0.4255	0.046
Mof_C 	C 	0.1616	0.6185	0.3639	0.039
Mof_C 	C 	0.1633	0.5283	0.3597	-0.015
Mof_H 	H 	0.1658	0.5034	0.322	0.049
Mof_C 	C 	0.1615	0.4723	0.4102	-0.169
Mof_H 	H 	0.162	0.4121	0.4052	0.097
Mof_C 	C 	0.1586	0.5099	0.4703	0.264
Mof_N 	N 	0.1629	0.6741	0.317	-0.086
Mof_N 	N 	0.615	0.7933	0.7867	-0.078
Mof_O 	O 	0.2798	0.7879	0.8607	-0.436
Mof_O 	O 	0.1981	0.7455	0.7385	-0.569
Mof_O 	O 	0.2883	0.7321	0.6755	-0.449
Mof_O 	O 	0.1515	0.6079	0.5833	-0.567
Mof_O 	O 	0.1458	0.7291	0.532	-0.445
Mof_O 	O 	0.1527	0.4561	0.5126	-0.445
Mof_C 	C 	0.2274	0.0772	0.8086	-0.202
Mof_H 	H 	0.2817	0.1063	0.8281	0.094
Mof_C 	C 	0.2326	0.991	0.8054	0.121
Mof_H 	H 	0.2908	0.9641	0.813	-0.032
Mof_N 	N 	0.1569	0.9436	0.7916	-0.282
Mof_C 	C 	0.0819	0.9875	0.7743	0.148
Mof_H 	H 	0.027	0.9552	0.7644	-0.035
Mof_C 	C 	0.065	0.2663	0.7596	-0.101
Mof_H 	H 	0.0109	0.2356	0.7416	0.071
Mof_C 	C 	0.066	0.3562	0.7588	0.042
Mof_H 	H 	0.0129	0.3859	0.7378	-0.001
Mof_C 	C 	0.1507	0.2205	0.7892	0.02
Mof_N 	N 	0.1443	0.4033	0.7886	-0.244
Mof_C 	C 	0.2215	0.2722	0.8214	-0.117
Mof_H 	H 	0.2749	0.2455	0.845	0.065
Mof_C 	C 	0.2172	0.3596	0.8205	0.075
Mof_H 	H 	0.2678	0.3908	0.8433	-0.009
Mof_C 	C 	0.072	0.0705	0.7687	-0.201
Mof_H 	H 	0.0137	0.0956	0.7531	0.109
Mof_C 	C 	0.1558	0.1238	0.7876	0.116
Mof_C 	C 	0.0278	0.5999	0.8518	0.405
Mof_C 	C 	0.9432	0.5851	0.7999	-0.236
Mof_C 	C 	0.8574	0.5875	0.8156	0.032
Mof_H 	H 	0.8565	0.599	0.8566	0.05
Mof_C 	C 	0.7722	0.5736	0.7728	0.025
Mof_C 	C 	0.778	0.5503	0.714	0.017
Mof_H 	H 	0.7234	0.5352	0.6853	0.037
Mof_C 	C 	0.8586	0.5484	0.6963	-0.197
Mof_H 	H 	0.8582	0.5362	0.6552	0.098
Mof_C 	C 	0.9472	0.5655	0.7407	0.277
Mof_C 	C 	0.2882	0.5142	0.6939	0.385
Mof_C 	C 	0.3698	0.5379	0.7471	-0.189
Mof_C 	C 	0.3609	0.5537	0.807	0.229
Mof_C 	C 	0.4472	0.5741	0.8541	-0.153
Mof_H 	H 	0.4445	0.588	0.8944	0.082
Mof_C 	C 	0.5309	0.5724	0.8381	-0.01
Mof_H 	H 	0.5859	0.5805	0.8683	0.042
Mof_C 	C 	0.5341	0.5589	0.7773	0.044
Mof_C 	C 	0.4566	0.536	0.7333	0.009
Mof_H 	H 	0.4619	0.5192	0.694	0.057
Mof_N 	N 	0.6206	0.5596	0.757	-0.079
Mof_N 	N 	0.6912	0.5767	0.797	-0.076
Mof_O 	O 	0.2788	0.5565	0.8252	-0.429
Mof_O 	O 	0.2033	0.5232	0.6989	-0.574
Mof_O 	O 	0.303	0.4878	0.6452	-0.412
Mof_O 	O 	0.0191	0.6115	0.9054	-0.453
Mof_O 	O 	0.1091	0.5961	0.8423	-0.589
Mof_O 	O 	0.0232	0.5571	0.7204	-0.448
Mof_Zn	Zn	0.1524	0.53879	0.7749	1.232
Mof_Zn	Zn	0.15737	0.47769	0.5998	1.213
Mof_C 	C 	0.2306	0.2942	0.6475	0.123
Mof_H 	H 	0.2818	0.3237	0.6713	-0.014
Mof_C 	C 	0.2331	0.2063	0.6482	-0.191
Mof_H 	H 	0.287	0.1786	0.6699	0.097
Mof_C 	C 	0.1626	0.1588	0.6196	0.107
Mof_C 	C 	0.0863	0.2054	0.5886	-0.179
Mof_H 	H 	0.0326	0.176	0.5681	0.091
Mof_C 	C 	0.088	0.2948	0.5873	0.109
Mof_H 	H 	0.0349	0.3236	0.5654	-0.036
Mof_C 	C 	0.2331	0.9209	0.6362	0.077
Mof_H 	H 	0.2897	0.8911	0.645	-0.004
Mof_C 	C 	0.2383	0.0113	0.6382	-0.116
Mof_H 	H 	0.2958	0.0377	0.6539	0.07
Mof_C 	C 	0.1603	0.0632	0.6177	0.023
Mof_C 	C 	0.0794	0.0149	0.6053	-0.106
Mof_H 	H 	0.0222	0.0436	0.5948	0.067
Mof_C 	C 	0.0807	0.9243	0.6081	0.048
Mof_H 	H 	0.0233	0.8959	0.5986	-0.017
Mof_N 	N 	0.1601	0.3421	0.6151	-0.27
Mof_N 	N 	0.1587	0.8735	0.6235	-0.273
Mof_Zn	Zn	0.15565	0.74224	0.62598	1.197
Mof_C 	C 	0.8342	0.1744	0.8356	0.013
Mof_H 	H 	0.8337	0.1142	0.8406	0.052
Mof_C 	C 	0.8332	0.2301	0.8869	-0.218
Mof_O 	O 	0.8354	0.3761	0.924	-0.463
Mof_C 	C 	0.8346	0.3211	0.8822	0.293
Mof_C 	C 	0.8387	0.3522	0.8192	-0.19
Mof_H 	H 	0.8433	0.4118	0.8129	0.113
Mof_C 	C 	0.836	0.2981	0.7708	0.013
Mof_H 	H 	0.8344	0.3205	0.7317	0.036
Mof_C 	C 	0.8357	0.2083	0.7801	0.031
Mof_N 	N 	0.8365	0.1478	0.7339	-0.083
Mof_O 	O 	0.9794	0.2887	0.2452	-0.452
Mof_C 	C 	0.0555	0.2951	0.2268	0.327
Mof_C 	C 	0.1385	0.2848	0.269	-0.252
Mof_H 	H 	0.1363	0.2728	0.3097	0.122
Mof_C 	C 	0.0566	0.3172	0.1649	-0.239
Mof_C 	C 	0.1475	0.3168	0.1505	0.033
Mof_H 	H 	0.1503	0.321	0.1092	0.051
Mof_C 	C 	0.2237	0.2904	0.2568	0.054
Mof_H 	H 	0.277	0.281	0.2882	0.026
Mof_C 	C 	0.2318	0.3106	0.196	0.023
Mof_N 	N 	0.3114	0.3106	0.1729	-0.078
Mof_Zn	Zn	0.84606	0.09981	0.04596	1.195
Mof_O 	O 	0.8332	0.103	0.9515	-0.415
Mof_O 	O 	0.8408	0.2287	0.9988	-0.537
Mof_C 	C 	0.8362	0.187	0.9466	0.337
Mof_Zn	Zn	0.85108	0.36595	0.01217	1.205
Mof_O 	O 	0.8947	0.3185	0.1198	-0.571
Mof_C 	C 	0.9783	0.3284	0.1127	0.398
Mof_N 	N 	0.855	0.5064	0.0164	-0.235
Mof_C 	C 	0.7843	0.553	0.9768	0.053
Mof_H 	H 	0.7393	0.5237	0.9473	-0.004
Mof_C 	C 	0.781	0.6432	0.9814	-0.116
Mof_H 	H 	0.7337	0.6743	0.9549	0.074
Mof_C 	C 	0.8483	0.6869	0.0255	0.052
Mof_C 	C 	0.919	0.6404	0.0651	-0.115
Mof_H 	H 	0.964	0.6696	0.0946	0.076
Mof_C 	C 	0.9223	0.5501	0.0605	0.052
Mof_H 	H 	0.9696	0.519	0.087	0.011
Mof_O 	O 	0.9892	0.3561	0.0609	-0.429
Mof_N 	N 	0.8436	0.9638	0.0426	-0.247
Mof_C 	C 	0.7603	0.9191	0.0208	0.056
Mof_H 	H 	0.7043	0.9497	0.0093	-0.019
Mof_C 	C 	0.7605	0.8288	0.0161	-0.117
Mof_H 	H 	0.7048	0.7989	0.0015	0.067
Mof_C 	C 	0.8442	0.7831	0.0333	0.051
Mof_C 	C 	0.9275	0.8278	0.0551	-0.106
Mof_H 	H 	0.9834	0.7973	0.0666	0.069
Mof_C 	C 	0.9273	0.9182	0.0597	0.05
Mof_H 	H 	0.983	0.9481	0.0743	0.008
Mof_Zn	Zn	0.84749	0.30752	0.19435	1.231
Mof_C 	C 	0.7197	0.2483	0.2714	0.381
Mof_C 	C 	0.6417	0.2918	0.159	0.242
Mof_C 	C 	0.6354	0.2713	0.22	-0.2
Mof_C 	C 	0.55	0.2715	0.2378	0.012
Mof_H 	H 	0.5471	0.2559	0.2778	0.055
Mof_C 	C 	0.47	0.2958	0.1938	0.039
Mof_C 	C 	0.4731	0.3125	0.1321	0.003
Mof_H 	H 	0.4184	0.3246	0.1026	0.035
Mof_C 	C 	0.5565	0.3111	0.1157	-0.183
Mof_H 	H 	0.5577	0.323	0.0748	0.087
Mof_C 	C 	0.8472	0.148	0.4676	0.378
Mof_C 	C 	0.8437	0.1053	0.5263	-0.217
Mof_C 	C 	0.8411	0.1525	0.5782	0.021
Mof_H 	H 	0.8412	0.2128	0.5745	0.045
Mof_C 	C 	0.8384	0.1185	0.6361	0.034
Mof_C 	C 	0.8367	0.0283	0.6403	-0.004
Mof_H 	H 	0.8342	0.0034	0.678	0.046
Mof_C 	C 	0.8385	0.9723	0.5898	-0.183
Mof_H 	H 	0.838	0.9121	0.5948	0.101
Mof_C 	C 	0.8414	0.0099	0.5297	0.274
Mof_N 	N 	0.8371	0.1741	0.683	-0.085
Mof_N 	N 	0.385	0.2933	0.2133	-0.078
Mof_O 	O 	0.7202	0.2879	0.1393	-0.436
Mof_O 	O 	0.8019	0.2455	0.2615	-0.569
Mof_O 	O 	0.7117	0.2321	0.3245	-0.449
Mof_O 	O 	0.8485	0.1079	0.4167	-0.567
Mof_O 	O 	0.8542	0.2291	0.468	-0.445
Mof_O 	O 	0.8473	0.9561	0.4874	-0.449
Mof_C 	C 	0.7726	0.5772	0.1914	-0.238
Mof_H 	H 	0.7183	0.6063	0.1719	0.105
Mof_C 	C 	0.7674	0.491	0.1946	0.15
Mof_H 	H 	0.7092	0.4641	0.187	-0.041
Mof_N 	N 	0.8431	0.4436	0.2084	-0.292
Mof_C 	C 	0.9181	0.4875	0.2257	0.178
Mof_H 	H 	0.973	0.4552	0.2356	-0.043
Mof_C 	C 	0.935	0.7663	0.2404	-0.094
Mof_H 	H 	0.9891	0.7356	0.2584	0.068
Mof_C 	C 	0.934	0.8562	0.2412	0.039
Mof_H 	H 	0.9871	0.8859	0.2622	0.001
Mof_C 	C 	0.8493	0.7205	0.2108	0.007
Mof_N 	N 	0.8557	0.9033	0.2114	-0.242
Mof_C 	C 	0.7785	0.7722	0.1786	-0.108
Mof_H 	H 	0.7251	0.7455	0.155	0.061
Mof_C 	C 	0.7828	0.8596	0.1795	0.07
Mof_H 	H 	0.7322	0.8908	0.1567	-0.008
Mof_C 	C 	0.928	0.5705	0.2313	-0.234
Mof_H 	H 	0.9863	0.5956	0.2469	0.119
Mof_C 	C 	0.8442	0.6238	0.2124	0.142
Mof_C 	C 	0.9722	0.0999	0.1482	0.405
Mof_C 	C 	0.0568	0.0851	0.2001	-0.236
Mof_C 	C 	0.1426	0.0875	0.1844	0.032
Mof_H 	H 	0.1435	0.099	0.1434	0.05
Mof_C 	C 	0.2278	0.0736	0.2272	0.025
Mof_C 	C 	0.222	0.0503	0.286	0.017
Mof_H 	H 	0.2766	0.0352	0.3147	0.037
Mof_C 	C 	0.1414	0.0484	0.3037	-0.197
Mof_H 	H 	0.1418	0.0362	0.3448	0.099
Mof_C 	C 	0.0528	0.0655	0.2593	0.278
Mof_C 	C 	0.7118	0.0142	0.3061	0.387
Mof_C 	C 	0.6302	0.0379	0.2529	-0.189
Mof_C 	C 	0.6391	0.0537	0.193	0.229
Mof_C 	C 	0.5528	0.0741	0.1459	-0.153
Mof_H 	H 	0.5555	0.088	0.1056	0.082
Mof_C 	C 	0.4691	0.0724	0.1619	-0.01
Mof_H 	H 	0.4141	0.0805	0.1317	0.042
Mof_C 	C 	0.4659	0.0589	0.2227	0.044
Mof_C 	C 	0.5434	0.036	0.2667	0.009
Mof_H 	H 	0.5381	0.0192	0.306	0.057
Mof_N 	N 	0.3794	0.0596	0.243	-0.079
Mof_N 	N 	0.3088	0.0767	0.203	-0.076
Mof_O 	O 	0.7212	0.0565	0.1748	-0.429
Mof_O 	O 	0.7967	0.0232	0.3011	-0.574
Mof_O 	O 	0.697	0.9878	0.3548	-0.414
Mof_O 	O 	0.9809	0.1115	0.0946	-0.454
Mof_O 	O 	0.8909	0.0961	0.1577	-0.589
Mof_O 	O 	0.9768	0.0571	0.2796	-0.448
Mof_Zn	Zn	0.8476	0.03879	0.2251	1.232
Mof_Zn	Zn	0.84263	0.97769	0.4002	1.212
Mof_C 	C 	0.7694	0.7942	0.3525	0.119
Mof_H 	H 	0.7182	0.8237	0.3287	-0.013
Mof_C 	C 	0.7669	0.7063	0.3518	-0.185
Mof_H 	H 	0.713	0.6786	0.3301	0.094
Mof_C 	C 	0.8374	0.6588	0.3804	0.099
Mof_C 	C 	0.9137	0.7054	0.4114	-0.174
Mof_H 	H 	0.9674	0.676	0.4319	0.089
Mof_C 	C 	0.912	0.7948	0.4127	0.106
Mof_H 	H 	0.9651	0.8236	0.4346	-0.035
Mof_C 	C 	0.7669	0.4209	0.3638	0.091
Mof_H 	H 	0.7103	0.3911	0.355	-0.008
Mof_C 	C 	0.7617	0.5113	0.3618	-0.133
Mof_H 	H 	0.7042	0.5377	0.3461	0.075
Mof_C 	C 	0.8397	0.5632	0.3823	0.035
Mof_C 	C 	0.9206	0.5149	0.3947	-0.123
Mof_H 	H 	0.9778	0.5436	0.4052	0.072
Mof_C 	C 	0.9193	0.4243	0.3919	0.061
Mof_H 	H 	0.9767	0.3959	0.4014	-0.02
Mof_N 	N 	0.8399	0.8421	0.3849	-0.269
Mof_N 	N 	0.8413	0.3735	0.3765	-0.277
Mof_Zn	Zn	0.84435	0.24224	0.37402	1.198
_end
