data_functionalizedCrystal
_audit_creation_method	'EQeq! by Chris Wilmer'
_symmetry_space_group_name_H-M	'P1'
_symmetry_Int_Tables_number	1
_symmetry_cell_setting	triclinic
loop_
_symmetry_equiv_pos_as_xyz
  x,y,z
_cell_length_a	17.7756
_cell_length_b	17.7756
_cell_length_c	24.837
_cell_angle_alpha	90
_cell_angle_beta	90
_cell_angle_gamma	116.396
loop_
_atom_site_label
_atom_site_type_symbol
_atom_site_fract_x
_atom_site_fract_y
_atom_site_fract_z
_atom_site_charge
Mof_Eu	Eu	0.62939	0.01716	-0	2.02
Mof_Eu	Eu	0.68346	0.77171	-0	1.603
Mof_Eu	Eu	0.37061	0.98284	-0	2.084
Mof_Eu	Eu	0.31654	0.22829	-0	1.58
Mof_Eu	Eu	0.98284	0.37061	0.5	2.536
Mof_Eu	Eu	0.22829	0.31654	0.5	1.979
Mof_Eu	Eu	0.01716	0.62939	0.5	2.47
Mof_Eu	Eu	0.77171	0.68346	0.5	2.001
Mof_Si	Si	1.43641e-32	0	0.75	0.583
Mof_Si	Si	3.59103e-33	0	0.25	0.565
Mof_Si	Si	0.61619	0.38381	0.25	0.86
Mof_Si	Si	0.38381	0.61619	0.25	0.86
Mof_Si	Si	0.38381	0.61619	0.75	0.891
Mof_Si	Si	0.61619	0.38381	0.75	0.891
Mof_H 	H 	0.8363	0.0841	0.8701	0.041
Mof_H 	H 	0.8582	0.8542	0.8004	0.028
Mof_H 	H 	0.8	0.3222	0.3667	0.036
Mof_H 	H 	0.7633	0.8371	0.8675	0.004
Mof_H 	H 	0.7023	0.2941	0.2996	-0.015
Mof_H 	H 	0.7355	0.5271	0.3058	-0.011
Mof_H 	H 	0.9314	0.1028	0.8026	0.035
Mof_H 	H 	0.8303	0.5571	0.3741	0.04
Mof_H 	H 	0.7777	0.6369	0.1401	0.117
Mof_H 	H 	0.7598	0.5404	0.2054	-0.068
Mof_H 	H 	0.5143	0.4603	0.1973	-0.047
Mof_H 	H 	0.535	0.557	0.1309	0.133
Mof_H 	H 	0.1637	0.9159	0.8701	0.037
Mof_H 	H 	0.1418	0.1458	0.8004	0.015
Mof_H 	H 	0.2	0.6778	0.3667	0.036
Mof_H 	H 	0.2367	0.1629	0.8675	0.008
Mof_H 	H 	0.2977	0.7059	0.2996	-0.012
Mof_H 	H 	0.2645	0.4729	0.3058	-0.011
Mof_H 	H 	0.0686	0.8972	0.8026	0.012
Mof_H 	H 	0.1697	0.4429	0.3741	0.037
Mof_H 	H 	0.2223	0.3631	0.1401	0.113
Mof_H 	H 	0.2402	0.4596	0.2054	-0.071
Mof_H 	H 	0.4857	0.5397	0.1973	-0.046
Mof_H 	H 	0.465	0.443	0.1309	0.133
Mof_H 	H 	0.9159	0.1637	0.6299	0.007
Mof_H 	H 	0.1458	0.1418	0.6996	0.02
Mof_H 	H 	0.6778	0.2	0.1333	0.04
Mof_H 	H 	0.1629	0.2367	0.6325	-0.023
Mof_H 	H 	0.7059	0.2977	0.2004	-0.022
Mof_H 	H 	0.4729	0.2645	0.1942	-0.017
Mof_H 	H 	0.8972	0.0686	0.6974	0.015
Mof_H 	H 	0.4429	0.1697	0.1259	0.049
Mof_H 	H 	0.3631	0.2223	0.3599	0.132
Mof_H 	H 	0.4596	0.2402	0.2946	-0.074
Mof_H 	H 	0.5397	0.4857	0.3027	-0.052
Mof_H 	H 	0.443	0.465	0.3691	0.148
Mof_H 	H 	0.0841	0.8363	0.6299	0.012
Mof_H 	H 	0.8542	0.8582	0.6996	0.033
Mof_H 	H 	0.3222	0.8	0.1333	0.04
Mof_H 	H 	0.8371	0.7633	0.6325	-0.027
Mof_H 	H 	0.2941	0.7023	0.2004	-0.024
Mof_H 	H 	0.5271	0.7355	0.1942	-0.017
Mof_H 	H 	0.1028	0.9314	0.6974	0.039
Mof_H 	H 	0.5571	0.8303	0.1259	0.052
Mof_H 	H 	0.6369	0.7777	0.3599	0.136
Mof_H 	H 	0.5404	0.7598	0.2946	-0.071
Mof_H 	H 	0.4603	0.5143	0.3027	-0.053
Mof_H 	H 	0.557	0.535	0.3691	0.148
Mof_H 	H 	0.1637	0.9159	0.1299	0.005
Mof_H 	H 	0.1418	0.1458	0.1996	0.016
Mof_H 	H 	0.2	0.6778	0.6333	0.039
Mof_H 	H 	0.2367	0.1629	0.1325	-0.013
Mof_H 	H 	0.2977	0.7059	0.7004	-0.015
Mof_H 	H 	0.2645	0.4729	0.6942	-0.014
Mof_H 	H 	0.0686	0.8972	0.1974	0.01
Mof_H 	H 	0.1697	0.4429	0.6259	0.04
Mof_H 	H 	0.2223	0.3631	0.8599	0.158
Mof_H 	H 	0.2402	0.4596	0.7946	-0.078
Mof_H 	H 	0.4857	0.5397	0.8027	-0.06
Mof_H 	H 	0.465	0.443	0.8691	0.163
Mof_H 	H 	0.8363	0.0841	0.1299	0.009
Mof_H 	H 	0.8582	0.8542	0.1996	0.029
Mof_H 	H 	0.8	0.3222	0.6333	0.04
Mof_H 	H 	0.7633	0.8371	0.1325	-0.017
Mof_H 	H 	0.7023	0.2941	0.7004	-0.017
Mof_H 	H 	0.7355	0.5271	0.6942	-0.014
Mof_H 	H 	0.9314	0.1028	0.1974	0.034
Mof_H 	H 	0.8303	0.5571	0.6259	0.043
Mof_H 	H 	0.7777	0.6369	0.8599	0.163
Mof_H 	H 	0.7598	0.5404	0.7946	-0.075
Mof_H 	H 	0.5143	0.4603	0.8027	-0.06
Mof_H 	H 	0.535	0.557	0.8691	0.163
Mof_H 	H 	0.0841	0.8363	0.3701	0.01
Mof_H 	H 	0.8542	0.8582	0.3004	0.035
Mof_H 	H 	0.3222	0.8	0.8667	0.069
Mof_H 	H 	0.8371	0.7633	0.3675	-0.029
Mof_H 	H 	0.2941	0.7023	0.7996	-0.024
Mof_H 	H 	0.5271	0.7355	0.8058	-0.024
Mof_H 	H 	0.1028	0.9314	0.3026	0.041
Mof_H 	H 	0.5571	0.8303	0.8741	0.069
Mof_H 	H 	0.6369	0.7777	0.6401	0.139
Mof_H 	H 	0.5404	0.7598	0.7054	-0.075
Mof_H 	H 	0.4603	0.5143	0.6973	-0.056
Mof_H 	H 	0.557	0.535	0.6309	0.15
Mof_H 	H 	0.9159	0.1637	0.3701	0.005
Mof_H 	H 	0.1458	0.1418	0.3004	0.022
Mof_H 	H 	0.6778	0.2	0.8667	0.069
Mof_H 	H 	0.1629	0.2367	0.3675	-0.025
Mof_H 	H 	0.7059	0.2977	0.7996	-0.021
Mof_H 	H 	0.4729	0.2645	0.8058	-0.024
Mof_H 	H 	0.8972	0.0686	0.3026	0.017
Mof_H 	H 	0.4429	0.1697	0.8741	0.066
Mof_H 	H 	0.3631	0.2223	0.6401	0.135
Mof_H 	H 	0.4596	0.2402	0.7054	-0.078
Mof_H 	H 	0.5397	0.4857	0.6973	-0.056
Mof_H 	H 	0.443	0.465	0.6309	0.15
Mof_C 	C 	0.88698	0.46102	0.42373	0.606
Mof_C 	C 	0.82622	0.44278	0.37769	-0.147
Mof_C 	C 	0.72987	0.94833	0.92036	0.525
Mof_C 	C 	0.78962	0.95918	0.87541	-0.14
Mof_C 	C 	0.91005	0.98155	0.79472	-0.139
Mof_C 	C 	0.70737	0.40763	0.2953	-0.297
Mof_C 	C 	0.84068	0.03772	0.8561	-0.003
Mof_C 	C 	0.85523	0.90117	0.81462	-0.026
Mof_C 	C 	0.78702	0.36458	0.35481	-0.035
Mof_C 	C 	0.79747	0.89073	0.85453	0.018
Mof_C 	C 	0.72816	0.34784	0.31422	0.074
Mof_C 	C 	0.74774	0.48446	0.31836	0.077
Mof_C 	C 	0.89897	0.04903	0.8159	-0.034
Mof_C 	C 	0.80558	0.50342	0.35925	-0.035
Mof_C 	C 	0.63586	0.47474	0.20378	-0.37
Mof_C 	C 	0.67447	0.66713	0.08621	0.081
Mof_C 	C 	0.66202	0.59798	0.12694	0.192
Mof_C 	C 	0.7238	0.5974	0.1494	-0.317
Mof_C 	C 	0.7122	0.5378	0.1883	0.237
Mof_C 	C 	0.5681	0.4911	0.1834	0.19
Mof_C 	C 	0.5797	0.5495	0.1448	-0.262
Mof_C 	C 	0.11302	0.53898	0.42373	0.609
Mof_C 	C 	0.17378	0.55722	0.37769	-0.153
Mof_C 	C 	0.27013	0.05167	0.92036	0.484
Mof_C 	C 	0.21038	0.04082	0.87541	-0.16
Mof_C 	C 	0.08995	0.01845	0.79472	-0.211
Mof_C 	C 	0.29263	0.59237	0.2953	-0.296
Mof_C 	C 	0.15932	0.96228	0.8561	0.014
Mof_C 	C 	0.14477	0.09883	0.81462	-0.004
Mof_C 	C 	0.21298	0.63542	0.35481	-0.032
Mof_C 	C 	0.20253	0.10927	0.85453	0.002
Mof_C 	C 	0.27184	0.65216	0.31422	0.071
Mof_C 	C 	0.25226	0.51554	0.31836	0.073
Mof_C 	C 	0.10103	0.95097	0.8159	0.019
Mof_C 	C 	0.19442	0.49658	0.35925	-0.033
Mof_C 	C 	0.36414	0.52526	0.20378	-0.371
Mof_C 	C 	0.32553	0.33287	0.08621	0.08
Mof_C 	C 	0.33798	0.40202	0.12694	0.19
Mof_C 	C 	0.2762	0.4026	0.1494	-0.317
Mof_C 	C 	0.2878	0.4622	0.1883	0.236
Mof_C 	C 	0.4319	0.5089	0.1834	0.19
Mof_C 	C 	0.4203	0.4505	0.1448	-0.262
Mof_C 	C 	0.53898	0.11302	0.07627	0.552
Mof_C 	C 	0.55722	0.17378	0.12231	-0.126
Mof_C 	C 	0.05167	0.27013	0.57964	0.551
Mof_C 	C 	0.04082	0.21038	0.62459	-0.224
Mof_C 	C 	0.01845	0.08995	0.70528	-0.198
Mof_C 	C 	0.59237	0.29263	0.2047	-0.309
Mof_C 	C 	0.96228	0.15932	0.6439	0.05
Mof_C 	C 	0.09883	0.14477	0.68538	-0.037
Mof_C 	C 	0.63542	0.21298	0.14519	-0.059
Mof_C 	C 	0.10927	0.20253	0.64547	0.037
Mof_C 	C 	0.65216	0.27184	0.18578	0.086
Mof_C 	C 	0.51554	0.25226	0.18164	0.091
Mof_C 	C 	0.95097	0.10103	0.6841	-0.014
Mof_C 	C 	0.49658	0.19442	0.14075	-0.061
Mof_C 	C 	0.52526	0.36414	0.29622	-0.379
Mof_C 	C 	0.33287	0.32553	0.41379	0.048
Mof_C 	C 	0.40202	0.33798	0.37306	0.23
Mof_C 	C 	0.4026	0.2762	0.3506	-0.346
Mof_C 	C 	0.4622	0.2878	0.3117	0.259
Mof_C 	C 	0.5089	0.4319	0.3166	0.208
Mof_C 	C 	0.4505	0.4203	0.3552	-0.284
Mof_C 	C 	0.46102	0.88698	0.07627	0.549
Mof_C 	C 	0.44278	0.82622	0.12231	-0.12
Mof_C 	C 	0.94833	0.72987	0.57964	0.593
Mof_C 	C 	0.95918	0.78962	0.62459	-0.204
Mof_C 	C 	0.98155	0.91005	0.70528	-0.126
Mof_C 	C 	0.40763	0.70737	0.2047	-0.31
Mof_C 	C 	0.03772	0.84068	0.6439	0.033
Mof_C 	C 	0.90117	0.85523	0.68538	-0.058
Mof_C 	C 	0.36458	0.78702	0.14519	-0.061
Mof_C 	C 	0.89073	0.79747	0.64547	0.053
Mof_C 	C 	0.34784	0.72816	0.18578	0.089
Mof_C 	C 	0.48446	0.74774	0.18164	0.095
Mof_C 	C 	0.04903	0.89897	0.6841	-0.066
Mof_C 	C 	0.50342	0.80558	0.14075	-0.062
Mof_C 	C 	0.47474	0.63586	0.29622	-0.378
Mof_C 	C 	0.66713	0.67447	0.41379	0.05
Mof_C 	C 	0.59798	0.66202	0.37306	0.232
Mof_C 	C 	0.5974	0.7238	0.3506	-0.346
Mof_C 	C 	0.5378	0.7122	0.3117	0.261
Mof_C 	C 	0.4911	0.5681	0.3166	0.208
Mof_C 	C 	0.5495	0.5797	0.3552	-0.284
Mof_C 	C 	0.11302	0.53898	0.57627	0.607
Mof_C 	C 	0.17378	0.55722	0.62231	-0.146
Mof_C 	C 	0.27013	0.05167	0.07964	0.504
Mof_C 	C 	0.21038	0.04082	0.12459	-0.206
Mof_C 	C 	0.08995	0.01845	0.20528	-0.201
Mof_C 	C 	0.29263	0.59237	0.7047	-0.306
Mof_C 	C 	0.15932	0.96228	0.1439	0.033
Mof_C 	C 	0.14477	0.09883	0.18538	-0.03
Mof_C 	C 	0.21298	0.63542	0.64519	-0.038
Mof_C 	C 	0.20253	0.10927	0.14547	0.017
Mof_C 	C 	0.27184	0.65216	0.68578	0.083
Mof_C 	C 	0.25226	0.51554	0.68164	0.085
Mof_C 	C 	0.10103	0.95097	0.1841	-0.008
Mof_C 	C 	0.19442	0.49658	0.64075	-0.039
Mof_C 	C 	0.36414	0.52526	0.79622	-0.395
Mof_C 	C 	0.32553	0.33287	0.91379	0.039
Mof_C 	C 	0.33798	0.40202	0.87306	0.265
Mof_C 	C 	0.2762	0.4026	0.8506	-0.372
Mof_C 	C 	0.2878	0.4622	0.8117	0.289
Mof_C 	C 	0.4319	0.5089	0.8166	0.231
Mof_C 	C 	0.4203	0.4505	0.8552	-0.305
Mof_C 	C 	0.88698	0.46102	0.57627	0.605
Mof_C 	C 	0.82622	0.44278	0.62231	-0.141
Mof_C 	C 	0.72987	0.94833	0.07964	0.546
Mof_C 	C 	0.78962	0.95918	0.12459	-0.185
Mof_C 	C 	0.91005	0.98155	0.20528	-0.13
Mof_C 	C 	0.70737	0.40763	0.7047	-0.307
Mof_C 	C 	0.84068	0.03772	0.1439	0.017
Mof_C 	C 	0.85523	0.90117	0.18538	-0.052
Mof_C 	C 	0.78702	0.36458	0.64519	-0.04
Mof_C 	C 	0.79747	0.89073	0.14547	0.034
Mof_C 	C 	0.72816	0.34784	0.68578	0.086
Mof_C 	C 	0.74774	0.48446	0.68164	0.088
Mof_C 	C 	0.89897	0.04903	0.1841	-0.061
Mof_C 	C 	0.80558	0.50342	0.64075	-0.041
Mof_C 	C 	0.63586	0.47474	0.79622	-0.394
Mof_C 	C 	0.67447	0.66713	0.91379	0.04
Mof_C 	C 	0.66202	0.59798	0.87306	0.267
Mof_C 	C 	0.7238	0.5974	0.8506	-0.373
Mof_C 	C 	0.7122	0.5378	0.8117	0.29
Mof_C 	C 	0.5681	0.4911	0.8166	0.232
Mof_C 	C 	0.5797	0.5495	0.8552	-0.305
Mof_C 	C 	0.46102	0.88698	0.92373	0.528
Mof_C 	C 	0.44278	0.82622	0.87769	-0.074
Mof_C 	C 	0.94833	0.72987	0.42036	0.593
Mof_C 	C 	0.95918	0.78962	0.37541	-0.207
Mof_C 	C 	0.98155	0.91005	0.29472	-0.12
Mof_C 	C 	0.40763	0.70737	0.7953	-0.329
Mof_C 	C 	0.03772	0.84068	0.3561	0.036
Mof_C 	C 	0.90117	0.85523	0.31462	-0.064
Mof_C 	C 	0.36458	0.78702	0.85481	-0.081
Mof_C 	C 	0.89073	0.79747	0.35453	0.056
Mof_C 	C 	0.34784	0.72816	0.81422	0.122
Mof_C 	C 	0.48446	0.74774	0.81836	0.124
Mof_C 	C 	0.04903	0.89897	0.3159	-0.071
Mof_C 	C 	0.50342	0.80558	0.85925	-0.082
Mof_C 	C 	0.47474	0.63586	0.70378	-0.391
Mof_C 	C 	0.66713	0.67447	0.58621	0.048
Mof_C 	C 	0.59798	0.66202	0.62694	0.239
Mof_C 	C 	0.5974	0.7238	0.6494	-0.355
Mof_C 	C 	0.5378	0.7122	0.6883	0.271
Mof_C 	C 	0.4911	0.5681	0.6834	0.217
Mof_C 	C 	0.5495	0.5797	0.6448	-0.291
Mof_C 	C 	0.53898	0.11302	0.92373	0.531
Mof_C 	C 	0.55722	0.17378	0.87769	-0.08
Mof_C 	C 	0.05167	0.27013	0.42036	0.552
Mof_C 	C 	0.04082	0.21038	0.37541	-0.228
Mof_C 	C 	0.01845	0.08995	0.29472	-0.192
Mof_C 	C 	0.59237	0.29263	0.7953	-0.327
Mof_C 	C 	0.96228	0.15932	0.3561	0.053
Mof_C 	C 	0.09883	0.14477	0.31462	-0.043
Mof_C 	C 	0.63542	0.21298	0.85481	-0.079
Mof_C 	C 	0.10927	0.20253	0.35453	0.04
Mof_C 	C 	0.65216	0.27184	0.81422	0.119
Mof_C 	C 	0.51554	0.25226	0.81836	0.121
Mof_C 	C 	0.95097	0.10103	0.3159	-0.019
Mof_C 	C 	0.49658	0.19442	0.85925	-0.08
Mof_C 	C 	0.52526	0.36414	0.70378	-0.391
Mof_C 	C 	0.33287	0.32553	0.58621	0.046
Mof_C 	C 	0.40202	0.33798	0.62694	0.237
Mof_C 	C 	0.4026	0.2762	0.6494	-0.355
Mof_C 	C 	0.4622	0.2878	0.6883	0.27
Mof_C 	C 	0.5089	0.4319	0.6834	0.217
Mof_C 	C 	0.4505	0.4203	0.6448	-0.291
Mof_O 	O 	0.69298	0.87762	0.94159	-0.506
Mof_O 	O 	0.72005	0.00873	0.9341	-0.53
Mof_O 	O 	0.90047	0.40227	0.43929	-0.65
Mof_O 	O 	0.92018	0.53126	0.4425	-0.651
Mof_O 	O 	0.6026	0.6688	0.064	-0.35
Mof_O 	O 	0.6821	0.6429	0.0387	-0.334
Mof_O 	O 	0.30702	0.12238	0.94159	-0.5
Mof_O 	O 	0.27995	0.99127	0.9341	-0.502
Mof_O 	O 	0.09953	0.59773	0.43929	-0.65
Mof_O 	O 	0.07982	0.46874	0.4425	-0.673
Mof_O 	O 	0.3974	0.3312	0.064	-0.348
Mof_O 	O 	0.3179	0.3571	0.0387	-0.335
Mof_O 	O 	0.12238	0.30702	0.55841	-0.639
Mof_O 	O 	0.99127	0.27995	0.5659	-0.627
Mof_O 	O 	0.59773	0.09953	0.06071	-0.606
Mof_O 	O 	0.46874	0.07982	0.0575	-0.625
Mof_O 	O 	0.3312	0.3974	0.436	-0.353
Mof_O 	O 	0.3571	0.3179	0.4613	-0.292
Mof_O 	O 	0.87762	0.69298	0.55841	-0.645
Mof_O 	O 	0.00873	0.72005	0.5659	-0.656
Mof_O 	O 	0.40227	0.90047	0.06071	-0.607
Mof_O 	O 	0.53126	0.92018	0.0575	-0.604
Mof_O 	O 	0.6688	0.6026	0.436	-0.355
Mof_O 	O 	0.6429	0.6821	0.4613	-0.291
Mof_O 	O 	0.30702	0.12238	0.05841	-0.599
Mof_O 	O 	0.27995	0.99127	0.0659	-0.586
Mof_O 	O 	0.09953	0.59773	0.56071	-0.649
Mof_O 	O 	0.07982	0.46874	0.5575	-0.672
Mof_O 	O 	0.3974	0.3312	0.936	-0.263
Mof_O 	O 	0.3179	0.3571	0.9613	-0.177
Mof_O 	O 	0.69298	0.87762	0.05841	-0.604
Mof_O 	O 	0.72005	0.00873	0.0659	-0.614
Mof_O 	O 	0.90047	0.40227	0.56071	-0.649
Mof_O 	O 	0.92018	0.53126	0.5575	-0.65
Mof_O 	O 	0.6026	0.6688	0.936	-0.265
Mof_O 	O 	0.6821	0.6429	0.9613	-0.176
Mof_O 	O 	0.87762	0.69298	0.44159	-0.646
Mof_O 	O 	0.00873	0.72005	0.4341	-0.657
Mof_O 	O 	0.40227	0.90047	0.93929	-0.516
Mof_O 	O 	0.53126	0.92018	0.9425	-0.513
Mof_O 	O 	0.6688	0.6026	0.564	-0.355
Mof_O 	O 	0.6429	0.6821	0.5387	-0.29
Mof_O 	O 	0.12238	0.30702	0.44159	-0.64
Mof_O 	O 	0.99127	0.27995	0.4341	-0.628
Mof_O 	O 	0.59773	0.09953	0.93929	-0.516
Mof_O 	O 	0.46874	0.07982	0.9425	-0.534
Mof_O 	O 	0.3312	0.3974	0.564	-0.353
Mof_O 	O 	0.3571	0.3179	0.5387	-0.291
_end
