data_functionalizedCrystal
_audit_creation_method	'EQeq! by Chris Wilmer'
_symmetry_space_group_name_H-M	'P1'
_symmetry_Int_Tables_number	1
_symmetry_cell_setting	triclinic
loop_
_symmetry_equiv_pos_as_xyz
  x,y,z
_cell_length_a	7.7351
_cell_length_b	10.8172
_cell_length_c	7.154
_cell_angle_alpha	90
_cell_angle_beta	90
_cell_angle_gamma	90
loop_
_atom_site_label
_atom_site_type_symbol
_atom_site_fract_x
_atom_site_fract_y
_atom_site_fract_z
_atom_site_charge
Mof_N 	N 	0.0911	0.58155	0.3954	-0.151
Mof_N 	N 	0.9214	0.59212	0.4041	-0.148
Mof_C 	C 	0.1635	0.4893	0.4908	0.083
Mof_H 	H 	0.284	0.481	0.483	-0.031
Mof_N 	N 	0.9089	0.08155	0.6046	-0.152
Mof_N 	N 	0.0786	0.09212	0.5959	-0.149
Mof_C 	C 	0.8365	0.9893	0.5092	0.083
Mof_H 	H 	0.716	0.981	0.517	-0.031
Mof_N 	N 	0.9089	0.41845	0.6046	-0.152
Mof_N 	N 	0.0786	0.40788	0.5959	-0.149
Mof_C 	C 	0.8365	0.5107	0.5092	0.083
Mof_H 	H 	0.716	0.519	0.517	-0.031
Mof_N 	N 	0.0911	0.91845	0.3954	-0.152
Mof_N 	N 	0.9214	0.90788	0.4041	-0.149
Mof_C 	C 	0.1635	0.0107	0.4908	0.083
Mof_H 	H 	0.284	0.019	0.483	-0.031
Mof_Ag	Ag	0.27445	0.75	0.29211	0.497
Mof_Ag	Ag	0.72555	0.25	0.70789	0.497
Mof_N 	N 	0.4089	0.41845	0.8954	-0.152
Mof_N 	N 	0.5786	0.40788	0.9041	-0.148
Mof_C 	C 	0.3365	0.5107	0.9908	0.083
Mof_H 	H 	0.216	0.519	0.983	-0.031
Mof_N 	N 	0.5911	0.91845	0.1046	-0.152
Mof_N 	N 	0.4214	0.90788	0.0959	-0.148
Mof_C 	C 	0.6635	0.0107	0.0092	0.082
Mof_H 	H 	0.784	0.019	0.017	-0.031
Mof_N 	N 	0.5911	0.58155	0.1046	-0.152
Mof_N 	N 	0.4214	0.59212	0.0959	-0.148
Mof_C 	C 	0.6635	0.4893	0.0092	0.083
Mof_H 	H 	0.784	0.481	0.017	-0.031
Mof_N 	N 	0.4089	0.08155	0.8954	-0.152
Mof_N 	N 	0.5786	0.09212	0.9041	-0.148
Mof_C 	C 	0.3365	0.9893	0.9908	0.082
Mof_H 	H 	0.216	0.981	0.983	-0.031
Mof_Ag	Ag	0.22555	0.25	0.79211	0.497
Mof_Ag	Ag	0.77445	0.75	0.20789	0.497
_end
