data_functionalizedCrystal
_audit_creation_method	'EQeq! by Chris Wilmer'
_symmetry_space_group_name_H-M	'P1'
_symmetry_Int_Tables_number	1
_symmetry_cell_setting	triclinic
loop_
_symmetry_equiv_pos_as_xyz
  x,y,z
_cell_length_a	8.7
_cell_length_b	18.146
_cell_length_c	9.087
_cell_angle_alpha	90
_cell_angle_beta	107.28
_cell_angle_gamma	90
loop_
_atom_site_label
_atom_site_type_symbol
_atom_site_fract_x
_atom_site_fract_y
_atom_site_fract_z
_atom_site_charge
Mof_Ga	Ga	0.0818	0.2952	0.2911	4.856
Mof_Ga	Ga	0.1364	0.1079	0.161	4.727
Mof_Ga	Ga	0.5291	0.3209	0.1966	4.431
Mof_P 	P 	0.3502	0.4268	0.3596	1.297
Mof_P 	P 	0.8148	0.293	0.482	1.186
Mof_P 	P 	0.267	0.1694	0.4965	1.148
Mof_O 	O 	0.0395	0.205	0.18	-2.259
Mof_O 	O 	0.1983	0.3812	0.3019	-1.353
Mof_O 	O 	0.2606	0.25	0.4425	-1.346
Mof_O 	O 	0.9644	0.306	0.4323	-1.365
Mof_O 	O 	0.4222	0.1561	0.6242	-1.202
Mof_O 	O 	0.4712	0.4045	0.2732	-1.434
Mof_O 	O 	0.8473	0.232	0.6048	-1.405
Mof_O 	O 	0.1197	0.1517	0.55	-1.39
Mof_O 	O 	0.6721	0.2665	0.346	-1.391
Mof_O 	O 	0.2627	0.1151	0.3664	-1.237
Mof_O 	O 	0.4286	0.4144	0.5307	-1.341
Mof_O 	O 	0.3015	0.5064	0.3235	-1.193
Mof_O 	O 	0.7716	0.3648	0.5467	-1.358
Mof_H 	H 	0.9636	0.2131	0.0963	0.627
Mof_Ga	Ga	0.4182	0.7952	0.2089	4.899
Mof_Ga	Ga	0.3636	0.6079	0.339	4.775
Mof_Ga	Ga	0.9709	0.8209	0.3034	4.354
Mof_P 	P 	0.1498	0.9268	0.1404	1.281
Mof_P 	P 	0.6852	0.793	0.018	1.177
Mof_P 	P 	0.233	0.6694	0.0035	1.138
Mof_O 	O 	0.4605	0.705	0.32	-2.245
Mof_O 	O 	0.3017	0.8812	0.1981	-1.356
Mof_O 	O 	0.2394	0.75	0.0575	-1.355
Mof_O 	O 	0.5356	0.806	0.0677	-1.387
Mof_O 	O 	0.0778	0.6561	0.8758	-1.182
Mof_O 	O 	0.0288	0.9045	0.2268	-1.405
Mof_O 	O 	0.6527	0.732	0.8952	-1.423
Mof_O 	O 	0.3803	0.6517	0.95	-1.395
Mof_O 	O 	0.8279	0.7665	0.154	-1.384
Mof_O 	O 	0.2373	0.6151	0.1336	-1.245
Mof_O 	O 	0.0714	0.9144	0.9693	-1.308
Mof_O 	O 	0.1985	0.0064	0.1765	-1.189
Mof_O 	O 	0.7284	0.8648	0.9533	-1.347
Mof_H 	H 	0.5364	0.7131	0.4037	0.601
Mof_Ga	Ga	0.9182	0.7048	0.7089	4.855
Mof_Ga	Ga	0.8636	0.8921	0.839	4.726
Mof_Ga	Ga	0.4709	0.6791	0.8034	4.43
Mof_P 	P 	0.6498	0.5732	0.6404	1.296
Mof_P 	P 	0.1852	0.707	0.518	1.186
Mof_P 	P 	0.733	0.8306	0.5035	1.148
Mof_O 	O 	0.9605	0.795	0.82	-2.259
Mof_O 	O 	0.8017	0.6188	0.6981	-1.353
Mof_O 	O 	0.7394	0.75	0.5575	-1.346
Mof_O 	O 	0.0356	0.694	0.5677	-1.365
Mof_O 	O 	0.5778	0.8439	0.3758	-1.202
Mof_O 	O 	0.5288	0.5955	0.7268	-1.434
Mof_O 	O 	0.1527	0.768	0.3952	-1.405
Mof_O 	O 	0.8803	0.8483	0.45	-1.39
Mof_O 	O 	0.3279	0.7335	0.654	-1.391
Mof_O 	O 	0.7373	0.8849	0.6336	-1.237
Mof_O 	O 	0.5714	0.5856	0.4693	-1.341
Mof_O 	O 	0.6985	0.4936	0.6765	-1.193
Mof_O 	O 	0.2284	0.6352	0.4533	-1.358
Mof_H 	H 	0.0364	0.7869	0.9037	0.627
Mof_Ga	Ga	0.5818	0.2048	0.7911	4.899
Mof_Ga	Ga	0.6364	0.3921	0.661	4.775
Mof_Ga	Ga	0.0291	0.1791	0.6966	4.354
Mof_P 	P 	0.8502	0.0732	0.8596	1.281
Mof_P 	P 	0.3148	0.207	0.982	1.177
Mof_P 	P 	0.767	0.3306	0.9965	1.138
Mof_O 	O 	0.5395	0.295	0.68	-2.245
Mof_O 	O 	0.6983	0.1188	0.8019	-1.356
Mof_O 	O 	0.7606	0.25	0.9425	-1.355
Mof_O 	O 	0.4644	0.194	0.9323	-1.387
Mof_O 	O 	0.9222	0.3439	0.1242	-1.182
Mof_O 	O 	0.9712	0.0955	0.7732	-1.405
Mof_O 	O 	0.3473	0.268	0.1048	-1.423
Mof_O 	O 	0.6197	0.3483	0.05	-1.395
Mof_O 	O 	0.1721	0.2335	0.846	-1.384
Mof_O 	O 	0.7627	0.3849	0.8664	-1.245
Mof_O 	O 	0.9286	0.0856	0.0307	-1.308
Mof_O 	O 	0.8015	0.9936	0.8235	-1.189
Mof_O 	O 	0.2716	0.1352	0.0467	-1.347
Mof_H 	H 	0.4636	0.2869	0.5963	0.601
_end
