data_functionalizedCrystal
_audit_creation_method	'EQeq! by Chris Wilmer'
_symmetry_space_group_name_H-M	'P1'
_symmetry_Int_Tables_number	1
_symmetry_cell_setting	triclinic
loop_
_symmetry_equiv_pos_as_xyz
  x,y,z
_cell_length_a	15.04
_cell_length_b	15.09
_cell_length_c	15.179
_cell_angle_alpha	105.689
_cell_angle_beta	103.559
_cell_angle_gamma	117.111
loop_
_atom_site_label
_atom_site_type_symbol
_atom_site_fract_x
_atom_site_fract_y
_atom_site_fract_z
_atom_site_charge
Mof_Sm	Sm	0.81753	0.11268	0.68093	2.497
Mof_Sm	Sm	0.55724	0.86681	0.69783	2.487
Mof_Sm	Sm	0.4157	0.06229	0.64294	2.392
Mof_Sm	Sm	0.18247	0.88732	0.31907	2.497
Mof_Sm	Sm	0.44276	0.13319	0.30217	2.486
Mof_Sm	Sm	0.5843	0.93771	0.35706	2.391
Mof_P 	P 	0.6169	0.1417	0.5226	0.577
Mof_P 	P 	0.6946	0.1719	0.8009	0.526
Mof_P 	P 	0.625	0.8105	0.5212	0.536
Mof_P 	P 	0.3831	0.8583	0.4774	0.577
Mof_P 	P 	0.3054	0.8281	0.1991	0.526
Mof_P 	P 	0.375	0.1895	0.4788	0.536
Mof_H 	H 	0.7984	0.6252	0.0673	0.266
Mof_H 	H 	0.7498	0.3203	0.7097	0.13
Mof_H 	H 	0.6571	0.0936	0.9368	0.119
Mof_H 	H 	0.8366	0.8903	0.5568	0.115
Mof_H 	H 	0.6749	0.3148	0.5286	0.099
Mof_H 	H 	0.7752	0.3046	0.5571	0.102
Mof_H 	H 	0.8482	0.5094	0.6889	0.047
Mof_H 	H 	0.9084	0.4499	0.7039	0.049
Mof_H 	H 	0.964	0.5919	0.8613	0.055
Mof_H 	H 	0.9024	0.4769	0.8627	0.077
Mof_H 	H 	0.8073	0.5949	0.8383	0.084
Mof_H 	H 	0.6403	0.4534	0.8142	0.052
Mof_H 	H 	0.6931	0.3879	0.8322	0.056
Mof_H 	H 	0.5875	0.3139	0.6586	0.032
Mof_H 	H 	0.6605	0.4315	0.6654	0.05
Mof_H 	H 	0.8358	0.2197	0.9443	0.114
Mof_H 	H 	0.8001	0.3017	0.9691	0.108
Mof_H 	H 	0.7179	0.29	0.0782	0.053
Mof_H 	H 	0.6138	0.2199	0.976	0.042
Mof_H 	H 	0.5643	0.1945	0.1076	0.041
Mof_H 	H 	0.5284	0.0837	0.0246	0.049
Mof_H 	H 	0.7145	0.207	0.2073	0.085
Mof_H 	H 	0.7656	0.0864	0.1629	0.044
Mof_H 	H 	0.6622	0.0109	0.0603	0.052
Mof_H 	H 	0.8128	0.1178	0.0333	0.064
Mof_H 	H 	0.8404	0.2265	0.113	0.052
Mof_H 	H 	0.669	0.681	0.4882	0.104
Mof_H 	H 	0.7177	0.7474	0.6043	0.106
Mof_H 	H 	0.8889	0.7559	0.6013	0.058
Mof_H 	H 	0.906	0.8558	0.6843	0.064
Mof_H 	H 	0.0724	0.8995	0.6741	0.033
Mof_H 	H 	0.0372	0.9735	0.644	0.046
Mof_H 	H 	0.0088	0.7899	0.5062	0.101
Mof_H 	H 	0.9249	0.8119	0.3755	0.017
Mof_H 	H 	0.9434	0.9176	0.4514	0.033
Mof_H 	H 	0.7616	0.7719	0.3895	0.055
Mof_H 	H 	0.8	0.7018	0.4237	0.065
Mof_H 	H 	0.0013	0.1678	0.0253	0.049
Mof_H 	H 	0.1309	0.1751	0.1586	0.04
Mof_H 	H 	0.2385	0.0678	0.9601	0.036
Mof_H 	H 	0.1109	0.0586	0.8301	0.044
Mof_H 	H 	0.0106	0.4068	0.5781	0.044
Mof_H 	H 	0.1618	0.55	0.5725	0.039
Mof_H 	H 	0.3662	0.5801	0.8201	0.04
Mof_H 	H 	0.2177	0.4465	0.8328	0.043
Mof_H 	H 	0.2016	0.3748	0.9327	0.266
Mof_H 	H 	0.2502	0.6797	0.2903	0.13
Mof_H 	H 	0.3429	0.9064	0.0632	0.119
Mof_H 	H 	0.1634	0.1097	0.4432	0.115
Mof_H 	H 	0.3251	0.6852	0.4714	0.099
Mof_H 	H 	0.2248	0.6954	0.4429	0.102
Mof_H 	H 	0.1518	0.4906	0.3111	0.047
Mof_H 	H 	0.0916	0.5501	0.2961	0.049
Mof_H 	H 	0.036	0.4081	0.1387	0.055
Mof_H 	H 	0.0976	0.5231	0.1373	0.077
Mof_H 	H 	0.1927	0.4051	0.1617	0.084
Mof_H 	H 	0.3597	0.5466	0.1858	0.052
Mof_H 	H 	0.3069	0.6121	0.1678	0.056
Mof_H 	H 	0.4125	0.6861	0.3414	0.032
Mof_H 	H 	0.3395	0.5685	0.3346	0.05
Mof_H 	H 	0.1642	0.7803	0.0557	0.114
Mof_H 	H 	0.1999	0.6983	0.0309	0.108
Mof_H 	H 	0.2821	0.71	0.9218	0.053
Mof_H 	H 	0.3862	0.7801	0.024	0.042
Mof_H 	H 	0.4357	0.8055	0.8924	0.041
Mof_H 	H 	0.4716	0.9163	0.9754	0.049
Mof_H 	H 	0.2855	0.793	0.7927	0.085
Mof_H 	H 	0.2344	0.9136	0.8371	0.044
Mof_H 	H 	0.3378	0.9891	0.9397	0.052
Mof_H 	H 	0.1872	0.8822	0.9667	0.064
Mof_H 	H 	0.1596	0.7735	0.887	0.052
Mof_H 	H 	0.331	0.319	0.5118	0.104
Mof_H 	H 	0.2823	0.2526	0.3957	0.106
Mof_H 	H 	0.1111	0.2441	0.3987	0.058
Mof_H 	H 	0.094	0.1442	0.3157	0.064
Mof_H 	H 	0.9276	0.1005	0.3259	0.033
Mof_H 	H 	0.9628	0.0265	0.356	0.046
Mof_H 	H 	0.9912	0.2101	0.4938	0.101
Mof_H 	H 	0.0751	0.1881	0.6245	0.017
Mof_H 	H 	0.0566	0.0824	0.5486	0.033
Mof_H 	H 	0.2384	0.2281	0.6105	0.055
Mof_H 	H 	0.2	0.2982	0.5763	0.065
Mof_H 	H 	0.9987	0.8322	0.9747	0.049
Mof_H 	H 	0.8691	0.8249	0.8414	0.04
Mof_H 	H 	0.7615	0.9322	0.0399	0.036
Mof_H 	H 	0.8891	0.9414	0.1699	0.044
Mof_H 	H 	0.9894	0.5932	0.4219	0.044
Mof_H 	H 	0.8382	0.45	0.4275	0.039
Mof_H 	H 	0.6338	0.4199	0.1799	0.04
Mof_H 	H 	0.7823	0.5535	0.1672	0.043
Mof_C 	C 	0.7102	0.2901	0.5681	-0.235
Mof_C 	C 	0.8553	0.4626	0.7186	-0.052
Mof_C 	C 	0.8936	0.5228	0.8328	-0.083
Mof_C 	C 	0.8095	0.5419	0.8611	-0.142
Mof_C 	C 	0.6935	0.4381	0.8039	-0.076
Mof_C 	C 	0.6603	0.3809	0.693	-0.039
Mof_C 	C 	0.842	0.589	0.974	0.404
Mof_C 	C 	0.7731	0.225	0.9356	-0.231
Mof_C 	C 	0.6604	0.2159	0.0287	-0.057
Mof_C 	C 	0.5913	0.1544	0.076	-0.047
Mof_C 	C 	0.6583	0.1353	0.1529	-0.171
Mof_C 	C 	0.7159	0.0863	0.1092	-0.048
Mof_C 	C 	0.7811	0.1534	0.0627	-0.067
Mof_C 	C 	0.589	0.0635	0.1973	0.447
Mof_C 	C 	0.7081	0.7538	0.5417	-0.235
Mof_C 	C 	0.9063	0.8297	0.6193	-0.089
Mof_C 	C 	0.0184	0.8991	0.6244	-0.013
Mof_C 	C 	0.023	0.8623	0.5218	-0.225
Mof_C 	C 	0.9277	0.8453	0.4404	0.007
Mof_C 	C 	0.8183	0.7756	0.4393	-0.102
Mof_C 	C 	0.1344	0.9333	0.5234	0.486
Mof_C 	C 	0.952	0.0956	0.8318	0.318
Mof_C 	C 	0.0403	0.1068	0.9148	-0.046
Mof_C 	C 	0.0488	0.1448	0.0124	-0.028
Mof_C 	C 	0.1271	0.1516	0.0916	-0.011
Mof_C 	C 	0.1985	0.1192	0.0724	-0.074
Mof_C 	C 	0.1891	0.088	0.9727	-0.01
Mof_C 	C 	0.1118	0.0787	0.8962	-0.033
Mof_C 	C 	0.2789	0.1267	0.1526	0.323
Mof_C 	C 	0.0018	0.3198	0.706	0.331
Mof_C 	C 	0.1022	0.414	0.7041	-0.062
Mof_C 	C 	0.0845	0.4438	0.6281	-0.035
Mof_C 	C 	0.1735	0.5268	0.6251	-0.016
Mof_C 	C 	0.2802	0.5805	0.6977	-0.083
Mof_C 	C 	0.2926	0.5458	0.7709	-0.014
Mof_C 	C 	0.2074	0.4656	0.7771	-0.033
Mof_C 	C 	0.3724	0.6693	0.691	0.321
Mof_C 	C 	0.2898	0.7099	0.4319	-0.235
Mof_C 	C 	0.1447	0.5374	0.2814	-0.052
Mof_C 	C 	0.1064	0.4772	0.1672	-0.083
Mof_C 	C 	0.1905	0.4581	0.1389	-0.142
Mof_C 	C 	0.3065	0.5619	0.1961	-0.076
Mof_C 	C 	0.3397	0.6191	0.307	-0.039
Mof_C 	C 	0.158	0.411	0.026	0.404
Mof_C 	C 	0.2269	0.775	0.0644	-0.231
Mof_C 	C 	0.3396	0.7841	0.9713	-0.057
Mof_C 	C 	0.4087	0.8456	0.924	-0.047
Mof_C 	C 	0.3417	0.8647	0.8471	-0.171
Mof_C 	C 	0.2841	0.9137	0.8908	-0.048
Mof_C 	C 	0.2189	0.8466	0.9373	-0.067
Mof_C 	C 	0.411	0.9365	0.8027	0.447
Mof_C 	C 	0.2919	0.2462	0.4583	-0.235
Mof_C 	C 	0.0937	0.1703	0.3807	-0.089
Mof_C 	C 	0.9816	0.1009	0.3756	-0.013
Mof_C 	C 	0.977	0.1377	0.4782	-0.225
Mof_C 	C 	0.0723	0.1547	0.5596	0.007
Mof_C 	C 	0.1817	0.2244	0.5607	-0.102
Mof_C 	C 	0.8656	0.0667	0.4766	0.486
Mof_C 	C 	0.048	0.9044	0.1682	0.318
Mof_C 	C 	0.9597	0.8932	0.0852	-0.046
Mof_C 	C 	0.9512	0.8552	0.9876	-0.028
Mof_C 	C 	0.8729	0.8484	0.9084	-0.011
Mof_C 	C 	0.8015	0.8808	0.9276	-0.074
Mof_C 	C 	0.8109	0.912	0.0273	-0.01
Mof_C 	C 	0.8882	0.9213	0.1038	-0.033
Mof_C 	C 	0.7211	0.8733	0.8474	0.323
Mof_C 	C 	0.9982	0.6802	0.294	0.331
Mof_C 	C 	0.8978	0.586	0.2959	-0.062
Mof_C 	C 	0.9155	0.5562	0.3719	-0.035
Mof_C 	C 	0.8265	0.4732	0.3749	-0.016
Mof_C 	C 	0.7198	0.4195	0.3023	-0.083
Mof_C 	C 	0.7074	0.4542	0.2291	-0.014
Mof_C 	C 	0.7926	0.5344	0.2229	-0.033
Mof_C 	C 	0.6276	0.3307	0.309	0.321
Mof_N 	N 	0.7439	0.3597	0.6759	-0.14
Mof_N 	N 	0.7115	0.1623	0.9843	-0.132
Mof_N 	N 	0.8193	0.821	0.5419	-0.122
Mof_N 	N 	0.2561	0.6403	0.3241	-0.14
Mof_N 	N 	0.2885	0.8377	0.0157	-0.132
Mof_N 	N 	0.1807	0.179	0.4581	-0.122
Mof_O 	O 	0.554	0.0943	0.4087	-0.685
Mof_O 	O 	0.5462	0.1266	0.5792	-0.577
Mof_O 	O 	0.6816	0.0893	0.5368	-0.686
Mof_O 	O 	0.9272	0.6124	0.0286	-0.297
Mof_O 	O 	0.7735	0.6012	0.0035	-0.475
Mof_O 	O 	0.7792	0.2476	0.7711	-0.474
Mof_O 	O 	0.6701	0.0555	0.7495	-0.71
Mof_O 	O 	0.5938	0.1729	0.7856	-0.525
Mof_O 	O 	0.4962	0.052	0.1826	-0.539
Mof_O 	O 	0.6292	0.0252	0.2465	-0.546
Mof_O 	O 	0.6127	0.8207	0.423	-0.536
Mof_O 	O 	0.6878	0.9228	0.6119	-0.714
Mof_O 	O 	0.5226	0.7378	0.5324	-0.488
Mof_O 	O 	0.2175	0.9643	0.5979	-0.551
Mof_O 	O 	0.1403	0.9612	0.4529	-0.564
Mof_O 	O 	0.9122	0.2711	0.6376	-0.479
Mof_O 	O 	0.019	0.2892	0.7745	-0.413
Mof_O 	O 	0.3545	0.7194	0.6429	-0.458
Mof_O 	O 	0.4699	0.6986	0.7383	-0.428
Mof_O 	O 	0.9436	0.052	0.7426	-0.431
Mof_O 	O 	0.8989	0.1331	0.8515	-0.481
Mof_O 	O 	0.3017	0.1797	0.2437	-0.444
Mof_O 	O 	0.3191	0.0723	0.1269	-0.453
Mof_O 	O 	0.446	0.9057	0.5913	-0.685
Mof_O 	O 	0.4538	0.8734	0.4208	-0.577
Mof_O 	O 	0.3184	0.9107	0.4632	-0.686
Mof_O 	O 	0.0728	0.3876	0.9714	-0.297
Mof_O 	O 	0.2265	0.3988	0.9965	-0.475
Mof_O 	O 	0.2208	0.7524	0.2289	-0.474
Mof_O 	O 	0.3299	0.9445	0.2505	-0.71
Mof_O 	O 	0.4062	0.8271	0.2144	-0.525
Mof_O 	O 	0.5038	0.948	0.8174	-0.539
Mof_O 	O 	0.3708	0.9748	0.7535	-0.546
Mof_O 	O 	0.3873	0.1793	0.577	-0.536
Mof_O 	O 	0.3122	0.0772	0.3881	-0.714
Mof_O 	O 	0.4774	0.2622	0.4676	-0.488
Mof_O 	O 	0.7825	0.0357	0.4021	-0.551
Mof_O 	O 	0.8597	0.0388	0.5471	-0.564
Mof_O 	O 	0.0878	0.7289	0.3624	-0.479
Mof_O 	O 	0.981	0.7108	0.2255	-0.413
Mof_O 	O 	0.6455	0.2806	0.3571	-0.458
Mof_O 	O 	0.5301	0.3014	0.2617	-0.428
Mof_O 	O 	0.0564	0.948	0.2574	-0.431
Mof_O 	O 	0.1011	0.8669	0.1485	-0.481
Mof_O 	O 	0.6983	0.8203	0.7563	-0.444
Mof_O 	O 	0.6809	0.9277	0.8731	-0.453
_end
