data_functionalizedCrystal
_audit_creation_method	'EQeq! by Chris Wilmer'
_symmetry_space_group_name_H-M	'P1'
_symmetry_Int_Tables_number	1
_symmetry_cell_setting	triclinic
loop_
_symmetry_equiv_pos_as_xyz
  x,y,z
_cell_length_a	16.21
_cell_length_b	16.21
_cell_length_c	16.21
_cell_angle_alpha	90
_cell_angle_beta	90
_cell_angle_gamma	90
loop_
_atom_site_label
_atom_site_type_symbol
_atom_site_fract_x
_atom_site_fract_y
_atom_site_fract_z
_atom_site_charge
Mof_S 	S 	0.91162	0.10896	0.84046	1.023
Mof_C 	C 	0.8366	0.1721	0.895	0.736
Mof_O 	O 	0.9059	0.0302	0.8747	-0.96
Mof_O 	O 	0.9912	0.1514	0.8659	-0.434
Mof_O 	O 	0.8981	0.8779	0.7434	-0.966
Mof_F 	F 	0.839	0.2471	0.8673	-0.399
Mof_F 	F 	0.8501	0.1731	0.971	-0.43
Mof_F 	F 	0.7631	0.142	0.8814	-0.432
Mof_H 	H 	0.009	0.1413	0.9204	0.293
Mof_S 	S 	0.41162	0.60896	0.34046	1.024
Mof_C 	C 	0.3366	0.6721	0.395	0.737
Mof_O 	O 	0.4059	0.5302	0.3747	-0.958
Mof_O 	O 	0.4912	0.6514	0.3659	-0.436
Mof_O 	O 	0.3981	0.3779	0.2434	-0.966
Mof_F 	F 	0.339	0.7471	0.3673	-0.4
Mof_F 	F 	0.3501	0.6731	0.471	-0.431
Mof_F 	F 	0.2631	0.642	0.3814	-0.432
Mof_H 	H 	0.509	0.6413	0.4204	0.295
Mof_S 	S 	0.58838	0.89104	0.34046	1.024
Mof_C 	C 	0.6634	0.8279	0.395	0.737
Mof_O 	O 	0.5941	0.9698	0.3747	-0.958
Mof_O 	O 	0.5088	0.8486	0.3659	-0.436
Mof_O 	O 	0.6019	0.1221	0.2434	-0.966
Mof_F 	F 	0.661	0.7529	0.3673	-0.4
Mof_F 	F 	0.6499	0.8269	0.471	-0.431
Mof_F 	F 	0.7369	0.858	0.3814	-0.431
Mof_H 	H 	0.491	0.8587	0.4204	0.295
Mof_S 	S 	0.08838	0.39104	0.84046	1.025
Mof_C 	C 	0.1634	0.3279	0.895	0.737
Mof_O 	O 	0.0941	0.4698	0.8747	-0.958
Mof_O 	O 	0.0088	0.3486	0.8659	-0.437
Mof_O 	O 	0.1019	0.6221	0.7434	-0.966
Mof_F 	F 	0.161	0.2529	0.8673	-0.4
Mof_F 	F 	0.1499	0.3269	0.971	-0.431
Mof_F 	F 	0.2369	0.358	0.8814	-0.431
Mof_H 	H 	0.991	0.3587	0.9204	0.296
Mof_S 	S 	0.08838	0.60896	0.65954	1.025
Mof_C 	C 	0.1634	0.6721	0.605	0.737
Mof_O 	O 	0.0941	0.5302	0.6253	-0.958
Mof_O 	O 	0.0088	0.6514	0.6341	-0.437
Mof_O 	O 	0.1019	0.3779	0.7566	-0.966
Mof_F 	F 	0.161	0.7471	0.6327	-0.4
Mof_F 	F 	0.1499	0.6731	0.529	-0.431
Mof_F 	F 	0.2369	0.642	0.6186	-0.432
Mof_H 	H 	0.991	0.6413	0.5796	0.296
Mof_S 	S 	0.58838	0.10896	0.15954	1.024
Mof_C 	C 	0.6634	0.1721	0.105	0.737
Mof_O 	O 	0.5941	0.0302	0.1253	-0.959
Mof_O 	O 	0.5088	0.1514	0.1341	-0.436
Mof_O 	O 	0.6019	0.8779	0.2566	-0.966
Mof_F 	F 	0.661	0.2471	0.1327	-0.4
Mof_F 	F 	0.6499	0.1731	0.029	-0.431
Mof_F 	F 	0.7369	0.142	0.1186	-0.432
Mof_H 	H 	0.491	0.1413	0.0796	0.294
Mof_S 	S 	0.41162	0.39104	0.15954	1.024
Mof_C 	C 	0.3366	0.3279	0.105	0.737
Mof_O 	O 	0.4059	0.4698	0.1253	-0.958
Mof_O 	O 	0.4912	0.3486	0.1341	-0.436
Mof_O 	O 	0.3981	0.6221	0.2566	-0.966
Mof_F 	F 	0.339	0.2529	0.1327	-0.4
Mof_F 	F 	0.3501	0.3269	0.029	-0.431
Mof_F 	F 	0.2631	0.358	0.1186	-0.432
Mof_H 	H 	0.509	0.3587	0.0796	0.294
Mof_S 	S 	0.91162	0.89104	0.65954	1.024
Mof_C 	C 	0.8366	0.8279	0.605	0.737
Mof_O 	O 	0.9059	0.9698	0.6253	-0.958
Mof_O 	O 	0.9912	0.8486	0.6341	-0.434
Mof_O 	O 	0.8981	0.1221	0.7566	-0.966
Mof_F 	F 	0.839	0.7529	0.6327	-0.4
Mof_F 	F 	0.8501	0.8269	0.529	-0.43
Mof_F 	F 	0.7631	0.858	0.6186	-0.431
Mof_H 	H 	0.009	0.8587	0.5796	0.293
Mof_S 	S 	0.84046	0.91162	0.10896	1.024
Mof_C 	C 	0.895	0.8366	0.1721	0.737
Mof_O 	O 	0.8747	0.9059	0.0302	-0.959
Mof_O 	O 	0.8659	0.9912	0.1514	-0.434
Mof_O 	O 	0.7434	0.8981	0.8779	-0.966
Mof_F 	F 	0.8673	0.839	0.2471	-0.399
Mof_F 	F 	0.971	0.8501	0.1731	-0.43
Mof_F 	F 	0.8814	0.7631	0.142	-0.432
Mof_H 	H 	0.9204	0.009	0.1413	0.293
Mof_S 	S 	0.34046	0.41162	0.60896	1.024
Mof_C 	C 	0.395	0.3366	0.6721	0.737
Mof_O 	O 	0.3747	0.4059	0.5302	-0.958
Mof_O 	O 	0.3659	0.4912	0.6514	-0.436
Mof_O 	O 	0.2434	0.3981	0.3779	-0.966
Mof_F 	F 	0.3673	0.339	0.7471	-0.4
Mof_F 	F 	0.471	0.3501	0.6731	-0.431
Mof_F 	F 	0.3814	0.2631	0.642	-0.432
Mof_H 	H 	0.4204	0.509	0.6413	0.295
Mof_S 	S 	0.34046	0.58838	0.89104	1.024
Mof_C 	C 	0.395	0.6634	0.8279	0.737
Mof_O 	O 	0.3747	0.5941	0.9698	-0.958
Mof_O 	O 	0.3659	0.5088	0.8486	-0.436
Mof_O 	O 	0.2434	0.6019	0.1221	-0.966
Mof_F 	F 	0.3673	0.661	0.7529	-0.4
Mof_F 	F 	0.471	0.6499	0.8269	-0.431
Mof_F 	F 	0.3814	0.7369	0.858	-0.431
Mof_H 	H 	0.4204	0.491	0.8587	0.295
Mof_S 	S 	0.84046	0.08838	0.39104	1.025
Mof_C 	C 	0.895	0.1634	0.3279	0.737
Mof_O 	O 	0.8747	0.0941	0.4698	-0.958
Mof_O 	O 	0.8659	0.0088	0.3486	-0.437
Mof_O 	O 	0.7434	0.1019	0.6221	-0.966
Mof_F 	F 	0.8673	0.161	0.2529	-0.4
Mof_F 	F 	0.971	0.1499	0.3269	-0.431
Mof_F 	F 	0.8814	0.2369	0.358	-0.431
Mof_H 	H 	0.9204	0.991	0.3587	0.296
Mof_S 	S 	0.65954	0.08838	0.60896	1.025
Mof_C 	C 	0.605	0.1634	0.6721	0.737
Mof_O 	O 	0.6253	0.0941	0.5302	-0.958
Mof_O 	O 	0.6341	0.0088	0.6514	-0.437
Mof_O 	O 	0.7566	0.1019	0.3779	-0.966
Mof_F 	F 	0.6327	0.161	0.7471	-0.4
Mof_F 	F 	0.529	0.1499	0.6731	-0.431
Mof_F 	F 	0.6186	0.2369	0.642	-0.432
Mof_H 	H 	0.5796	0.991	0.6413	0.296
Mof_S 	S 	0.15954	0.58838	0.10896	1.024
Mof_C 	C 	0.105	0.6634	0.1721	0.737
Mof_O 	O 	0.1253	0.5941	0.0302	-0.959
Mof_O 	O 	0.1341	0.5088	0.1514	-0.436
Mof_O 	O 	0.2566	0.6019	0.8779	-0.966
Mof_F 	F 	0.1327	0.661	0.2471	-0.4
Mof_F 	F 	0.029	0.6499	0.1731	-0.431
Mof_F 	F 	0.1186	0.7369	0.142	-0.432
Mof_H 	H 	0.0796	0.491	0.1413	0.294
Mof_S 	S 	0.15954	0.41162	0.39104	1.024
Mof_C 	C 	0.105	0.3366	0.3279	0.737
Mof_O 	O 	0.1253	0.4059	0.4698	-0.958
Mof_O 	O 	0.1341	0.4912	0.3486	-0.436
Mof_O 	O 	0.2566	0.3981	0.6221	-0.966
Mof_F 	F 	0.1327	0.339	0.2529	-0.4
Mof_F 	F 	0.029	0.3501	0.3269	-0.431
Mof_F 	F 	0.1186	0.2631	0.358	-0.432
Mof_H 	H 	0.0796	0.509	0.3587	0.294
Mof_S 	S 	0.65954	0.91162	0.89104	1.024
Mof_C 	C 	0.605	0.8366	0.8279	0.737
Mof_O 	O 	0.6253	0.9059	0.9698	-0.958
Mof_O 	O 	0.6341	0.9912	0.8486	-0.434
Mof_O 	O 	0.7566	0.8981	0.1221	-0.966
Mof_F 	F 	0.6327	0.839	0.7529	-0.4
Mof_F 	F 	0.529	0.8501	0.8269	-0.43
Mof_F 	F 	0.6186	0.7631	0.858	-0.431
Mof_H 	H 	0.5796	0.009	0.8587	0.293
Mof_S 	S 	0.10896	0.84046	0.91162	1.024
Mof_C 	C 	0.1721	0.895	0.8366	0.737
Mof_O 	O 	0.0302	0.8747	0.9059	-0.959
Mof_O 	O 	0.1514	0.8659	0.9912	-0.434
Mof_O 	O 	0.8779	0.7434	0.8981	-0.966
Mof_F 	F 	0.2471	0.8673	0.839	-0.399
Mof_F 	F 	0.1731	0.971	0.8501	-0.43
Mof_F 	F 	0.142	0.8814	0.7631	-0.432
Mof_H 	H 	0.1413	0.9204	0.009	0.293
Mof_S 	S 	0.60896	0.34046	0.41162	1.024
Mof_C 	C 	0.6721	0.395	0.3366	0.737
Mof_O 	O 	0.5302	0.3747	0.4059	-0.958
Mof_O 	O 	0.6514	0.3659	0.4912	-0.436
Mof_O 	O 	0.3779	0.2434	0.3981	-0.966
Mof_F 	F 	0.7471	0.3673	0.339	-0.4
Mof_F 	F 	0.6731	0.471	0.3501	-0.431
Mof_F 	F 	0.642	0.3814	0.2631	-0.432
Mof_H 	H 	0.6413	0.4204	0.509	0.295
Mof_S 	S 	0.89104	0.34046	0.58838	1.024
Mof_C 	C 	0.8279	0.395	0.6634	0.737
Mof_O 	O 	0.9698	0.3747	0.5941	-0.958
Mof_O 	O 	0.8486	0.3659	0.5088	-0.436
Mof_O 	O 	0.1221	0.2434	0.6019	-0.966
Mof_F 	F 	0.7529	0.3673	0.661	-0.4
Mof_F 	F 	0.8269	0.471	0.6499	-0.431
Mof_F 	F 	0.858	0.3814	0.7369	-0.431
Mof_H 	H 	0.8587	0.4204	0.491	0.295
Mof_S 	S 	0.39104	0.84046	0.08838	1.025
Mof_C 	C 	0.3279	0.895	0.1634	0.737
Mof_O 	O 	0.4698	0.8747	0.0941	-0.958
Mof_O 	O 	0.3486	0.8659	0.0088	-0.437
Mof_O 	O 	0.6221	0.7434	0.1019	-0.966
Mof_F 	F 	0.2529	0.8673	0.161	-0.4
Mof_F 	F 	0.3269	0.971	0.1499	-0.431
Mof_F 	F 	0.358	0.8814	0.2369	-0.431
Mof_H 	H 	0.3587	0.9204	0.991	0.296
Mof_S 	S 	0.60896	0.65954	0.08838	1.025
Mof_C 	C 	0.6721	0.605	0.1634	0.737
Mof_O 	O 	0.5302	0.6253	0.0941	-0.958
Mof_O 	O 	0.6514	0.6341	0.0088	-0.437
Mof_O 	O 	0.3779	0.7566	0.1019	-0.966
Mof_F 	F 	0.7471	0.6327	0.161	-0.4
Mof_F 	F 	0.6731	0.529	0.1499	-0.431
Mof_F 	F 	0.642	0.6186	0.2369	-0.432
Mof_H 	H 	0.6413	0.5796	0.991	0.296
Mof_S 	S 	0.10896	0.15954	0.58838	1.024
Mof_C 	C 	0.1721	0.105	0.6634	0.737
Mof_O 	O 	0.0302	0.1253	0.5941	-0.959
Mof_O 	O 	0.1514	0.1341	0.5088	-0.436
Mof_O 	O 	0.8779	0.2566	0.6019	-0.966
Mof_F 	F 	0.2471	0.1327	0.661	-0.4
Mof_F 	F 	0.1731	0.029	0.6499	-0.431
Mof_F 	F 	0.142	0.1186	0.7369	-0.432
Mof_H 	H 	0.1413	0.0796	0.491	0.294
Mof_S 	S 	0.39104	0.15954	0.41162	1.024
Mof_C 	C 	0.3279	0.105	0.3366	0.737
Mof_O 	O 	0.4698	0.1253	0.4059	-0.958
Mof_O 	O 	0.3486	0.1341	0.4912	-0.436
Mof_O 	O 	0.6221	0.2566	0.3981	-0.966
Mof_F 	F 	0.2529	0.1327	0.339	-0.4
Mof_F 	F 	0.3269	0.029	0.3501	-0.431
Mof_F 	F 	0.358	0.1186	0.2631	-0.432
Mof_H 	H 	0.3587	0.0796	0.509	0.294
Mof_S 	S 	0.89104	0.65954	0.91162	1.024
Mof_C 	C 	0.8279	0.605	0.8366	0.737
Mof_O 	O 	0.9698	0.6253	0.9059	-0.958
Mof_O 	O 	0.8486	0.6341	0.9912	-0.434
Mof_O 	O 	0.1221	0.7566	0.8981	-0.966
Mof_F 	F 	0.7529	0.6327	0.839	-0.4
Mof_F 	F 	0.8269	0.529	0.8501	-0.43
Mof_F 	F 	0.858	0.6186	0.7631	-0.431
Mof_H 	H 	0.8587	0.5796	0.009	0.293
Mof_Na	Na	0.88665	0.88665	0.88665	4.705
Mof_Na	Na	0.38665	0.38665	0.38665	4.7
Mof_Na	Na	0.61335	0.11335	0.38665	4.698
Mof_Na	Na	0.11335	0.61335	0.88665	4.7
Mof_Na	Na	0.11335	0.38665	0.61335	4.698
Mof_Na	Na	0.61335	0.88665	0.11335	4.7
Mof_Na	Na	0.38665	0.61335	0.11335	4.698
Mof_Na	Na	0.88665	0.11335	0.61335	4.7
_end
