data_functionalizedCrystal
_audit_creation_method	'EQeq! by Chris Wilmer'
_symmetry_space_group_name_H-M	'P1'
_symmetry_Int_Tables_number	1
_symmetry_cell_setting	triclinic
loop_
_symmetry_equiv_pos_as_xyz
  x,y,z
_cell_length_a	17.3088
_cell_length_b	17.4277
_cell_length_c	7.8949
_cell_angle_alpha	90
_cell_angle_beta	90
_cell_angle_gamma	90
loop_
_atom_site_label
_atom_site_type_symbol
_atom_site_fract_x
_atom_site_fract_y
_atom_site_fract_z
_atom_site_charge
Mof_Ca	Ca	0.91951	0.30382	0.17959	1.33
Mof_O 	O 	0.9275	0.6277	0.5477	-0.31
Mof_O 	O 	0.9782	0.6103	0.8041	-0.47
Mof_O 	O 	0.84327	0.36129	0.9834	-0.714
Mof_O 	O 	0.82114	0.28608	0.6846	-0.591
Mof_O 	O 	0.84481	0.35802	0.3831	-0.699
Mof_C 	C 	0.9412	0.5857	0.678	0.301
Mof_C 	C 	0.9102	0.5063	0.68	-0.084
Mof_C 	C 	0.8956	0.4699	0.8356	-0.292
Mof_H 	H 	0.9076	0.4947	0.9365	-0.05
Mof_C 	C 	0.863	0.3963	0.8387	0.004
Mof_C 	C 	0.8492	0.3584	0.6822	-0.107
Mof_C 	C 	0.8633	0.3947	0.5268	0.01
Mof_C 	C 	0.8943	0.469	0.5279	-0.276
Mof_H 	H 	0.9044	0.4937	0.4259	-0.046
Mof_O 	O 	0.9924	0.2551	0.9266	-0.398
Mof_K 	K 	0.78394	0.48207	0.18251	2.466
Mof_O 	O 	0.7324	0.5918	0.9416	-0.665
Mof_Ca	Ca	0.58049	0.19618	0.17959	1.34
Mof_O 	O 	0.5725	0.8723	0.5477	-0.312
Mof_O 	O 	0.5218	0.8897	0.8041	-0.474
Mof_O 	O 	0.65673	0.13871	0.9834	-0.716
Mof_O 	O 	0.67886	0.21392	0.6846	-0.592
Mof_O 	O 	0.65519	0.14198	0.3831	-0.701
Mof_C 	C 	0.5588	0.9143	0.678	0.299
Mof_C 	C 	0.5898	0.9937	0.68	-0.078
Mof_C 	C 	0.6044	0.0301	0.8356	-0.296
Mof_H 	H 	0.5924	0.0053	0.9365	-0.048
Mof_C 	C 	0.637	0.1037	0.8387	0.006
Mof_C 	C 	0.6508	0.1416	0.6822	-0.108
Mof_C 	C 	0.6367	0.1053	0.5268	0.012
Mof_C 	C 	0.6057	0.031	0.5279	-0.28
Mof_H 	H 	0.5956	0.0063	0.4259	-0.043
Mof_O 	O 	0.5076	0.2449	0.9266	-0.398
Mof_K 	K 	0.71606	0.01793	0.18251	2.458
Mof_O 	O 	0.7676	0.9082	0.9416	-0.662
Mof_Ca	Ca	0.08049	0.80382	0.32041	1.339
Mof_O 	O 	0.0725	0.1277	0.9523	-0.308
Mof_O 	O 	0.0218	0.1103	0.6959	-0.467
Mof_O 	O 	0.15673	0.86129	0.5166	-0.725
Mof_O 	O 	0.17886	0.78608	0.8154	-0.591
Mof_O 	O 	0.15519	0.85802	0.1169	-0.701
Mof_C 	C 	0.0588	0.0857	0.822	0.286
Mof_C 	C 	0.0898	0.0063	0.82	-0.037
Mof_C 	C 	0.1044	0.9699	0.6644	-0.328
Mof_H 	H 	0.0924	0.9947	0.5635	-0.044
Mof_C 	C 	0.137	0.8963	0.6613	0.019
Mof_C 	C 	0.1508	0.8584	0.8178	-0.116
Mof_C 	C 	0.1367	0.8947	0.9732	0.021
Mof_C 	C 	0.1057	0.969	0.9721	-0.326
Mof_H 	H 	0.0956	0.9937	0.0741	-0.027
Mof_O 	O 	0.0076	0.7551	0.5734	-0.402
Mof_K 	K 	0.21606	0.98207	0.31749	2.498
Mof_O 	O 	0.2676	0.0918	0.5584	-0.663
Mof_Ca	Ca	0.41951	0.69618	0.32041	1.344
Mof_O 	O 	0.4275	0.3723	0.9523	-0.314
Mof_O 	O 	0.4782	0.3897	0.6959	-0.475
Mof_O 	O 	0.34327	0.63871	0.5166	-0.721
Mof_O 	O 	0.32114	0.71392	0.8154	-0.594
Mof_O 	O 	0.34481	0.64198	0.1169	-0.7
Mof_C 	C 	0.4412	0.4143	0.822	0.301
Mof_C 	C 	0.4102	0.4937	0.82	-0.084
Mof_C 	C 	0.3956	0.5301	0.6644	-0.292
Mof_H 	H 	0.4076	0.5053	0.5635	-0.053
Mof_C 	C 	0.363	0.6037	0.6613	0.005
Mof_C 	C 	0.3492	0.6416	0.8178	-0.105
Mof_C 	C 	0.3633	0.6053	0.9732	0.006
Mof_C 	C 	0.3943	0.531	0.9721	-0.278
Mof_H 	H 	0.4044	0.5063	0.0741	-0.045
Mof_O 	O 	0.4924	0.7449	0.5734	-0.399
Mof_K 	K 	0.28394	0.51793	0.31749	2.496
Mof_O 	O 	0.2324	0.4082	0.5584	-0.667
Mof_Ca	Ca	0.08049	0.69618	0.82041	1.329
Mof_O 	O 	0.0725	0.3723	0.4523	-0.311
Mof_O 	O 	0.0218	0.3897	0.1959	-0.471
Mof_O 	O 	0.15673	0.63871	0.0166	-0.715
Mof_O 	O 	0.17886	0.71392	0.3154	-0.592
Mof_O 	O 	0.15519	0.64198	0.6169	-0.7
Mof_C 	C 	0.0588	0.4143	0.322	0.3
Mof_C 	C 	0.0898	0.4937	0.32	-0.085
Mof_C 	C 	0.1044	0.5301	0.1644	-0.292
Mof_H 	H 	0.0924	0.5053	0.0635	-0.05
Mof_C 	C 	0.137	0.6037	0.1613	0.004
Mof_C 	C 	0.1508	0.6416	0.3178	-0.107
Mof_C 	C 	0.1367	0.6053	0.4732	0.01
Mof_C 	C 	0.1057	0.531	0.4721	-0.276
Mof_H 	H 	0.0956	0.5063	0.5741	-0.046
Mof_O 	O 	0.0076	0.7449	0.0734	-0.398
Mof_K 	K 	0.21606	0.51793	0.81749	2.466
Mof_O 	O 	0.2676	0.4082	0.0584	-0.665
Mof_Ca	Ca	0.41951	0.80382	0.82041	1.34
Mof_O 	O 	0.4275	0.1277	0.4523	-0.312
Mof_O 	O 	0.4782	0.1103	0.1959	-0.474
Mof_O 	O 	0.34327	0.86129	0.0166	-0.716
Mof_O 	O 	0.32114	0.78608	0.3154	-0.592
Mof_O 	O 	0.34481	0.85802	0.6169	-0.701
Mof_C 	C 	0.4412	0.0857	0.322	0.299
Mof_C 	C 	0.4102	0.0063	0.32	-0.078
Mof_C 	C 	0.3956	0.9699	0.1644	-0.296
Mof_H 	H 	0.4076	0.9947	0.0635	-0.048
Mof_C 	C 	0.363	0.8963	0.1613	0.006
Mof_C 	C 	0.3492	0.8584	0.3178	-0.108
Mof_C 	C 	0.3633	0.8947	0.4732	0.012
Mof_C 	C 	0.3943	0.969	0.4721	-0.28
Mof_H 	H 	0.4044	0.9937	0.5741	-0.043
Mof_O 	O 	0.4924	0.7551	0.0734	-0.398
Mof_K 	K 	0.28394	0.98207	0.81749	2.458
Mof_O 	O 	0.2324	0.0918	0.0584	-0.662
Mof_Ca	Ca	0.91951	0.19618	0.67959	1.339
Mof_O 	O 	0.9275	0.8723	0.0477	-0.308
Mof_O 	O 	0.9782	0.8897	0.3041	-0.467
Mof_O 	O 	0.84327	0.13871	0.4834	-0.725
Mof_O 	O 	0.82114	0.21392	0.1846	-0.591
Mof_O 	O 	0.84481	0.14198	0.8831	-0.701
Mof_C 	C 	0.9412	0.9143	0.178	0.286
Mof_C 	C 	0.9102	0.9937	0.18	-0.037
Mof_C 	C 	0.8956	0.0301	0.3356	-0.328
Mof_H 	H 	0.9076	0.0053	0.4365	-0.044
Mof_C 	C 	0.863	0.1037	0.3387	0.019
Mof_C 	C 	0.8492	0.1416	0.1822	-0.116
Mof_C 	C 	0.8633	0.1053	0.0268	0.021
Mof_C 	C 	0.8943	0.031	0.0279	-0.326
Mof_H 	H 	0.9044	0.0063	0.9259	-0.027
Mof_O 	O 	0.9924	0.2449	0.4266	-0.402
Mof_K 	K 	0.78394	0.01793	0.68251	2.498
Mof_O 	O 	0.7324	0.9082	0.4416	-0.663
Mof_Ca	Ca	0.58049	0.30382	0.67959	1.344
Mof_O 	O 	0.5725	0.6277	0.0477	-0.314
Mof_O 	O 	0.5218	0.6103	0.3041	-0.475
Mof_O 	O 	0.65673	0.36129	0.4834	-0.721
Mof_O 	O 	0.67886	0.28608	0.1846	-0.594
Mof_O 	O 	0.65519	0.35802	0.8831	-0.7
Mof_C 	C 	0.5588	0.5857	0.178	0.301
Mof_C 	C 	0.5898	0.5063	0.18	-0.084
Mof_C 	C 	0.6044	0.4699	0.3356	-0.292
Mof_H 	H 	0.5924	0.4947	0.4365	-0.053
Mof_C 	C 	0.637	0.3963	0.3387	0.005
Mof_C 	C 	0.6508	0.3584	0.1822	-0.105
Mof_C 	C 	0.6367	0.3947	0.0268	0.006
Mof_C 	C 	0.6057	0.469	0.0279	-0.278
Mof_H 	H 	0.5956	0.4937	0.9259	-0.045
Mof_O 	O 	0.5076	0.2551	0.4266	-0.399
Mof_K 	K 	0.71606	0.48207	0.68251	2.496
Mof_O 	O 	0.7676	0.5918	0.4416	-0.667
Mof_Ca	Ca	0.75	0.25	0.93378	1.171
Mof_Ca	Ca	0.25	0.75	0.56622	1.164
Mof_Ca	Ca	0.25	0.75	0.06622	1.171
Mof_Ca	Ca	0.75	0.25	0.43378	1.164
_end
