data_functionalizedCrystal
_audit_creation_method	'EQeq! by Chris Wilmer'
_symmetry_space_group_name_H-M	'P1'
_symmetry_Int_Tables_number	1
_symmetry_cell_setting	triclinic
loop_
_symmetry_equiv_pos_as_xyz
  x,y,z
_cell_length_a	34.2494
_cell_length_b	34.2494
_cell_length_c	34.2494
_cell_angle_alpha	60
_cell_angle_beta	60
_cell_angle_gamma	60
loop_
_atom_site_label
_atom_site_type_symbol
_atom_site_fract_x
_atom_site_fract_y
_atom_site_fract_z
_atom_site_charge
Mof_Cd	Cd	0.57395	0.97698	0.02302	0.495
Mof_Cd	Cd	0.97698	0.57395	0.42605	0.495
Mof_Cd	Cd	0.02302	0.42605	0.57395	0.495
Mof_Cd	Cd	0.42605	0.02302	0.97698	0.495
Mof_Cd	Cd	0.57395	0.02302	0.42605	0.495
Mof_Cd	Cd	0.97698	0.42605	0.02302	0.495
Mof_Cd	Cd	0.02302	0.57395	0.97698	0.495
Mof_Cd	Cd	0.42605	0.97698	0.57395	0.495
Mof_Cd	Cd	0.57395	0.42605	0.97698	0.495
Mof_Cd	Cd	0.97698	0.02302	0.57395	0.495
Mof_Cd	Cd	0.02302	0.97698	0.42605	0.495
Mof_Cd	Cd	0.42605	0.57395	0.02302	0.495
Mof_Cd	Cd	0.52302	0.92605	0.47698	0.495
Mof_Cd	Cd	0.92605	0.52302	0.07395	0.495
Mof_Cd	Cd	0.07395	0.47698	0.92605	0.495
Mof_Cd	Cd	0.47698	0.07395	0.52302	0.495
Mof_Cd	Cd	0.47698	0.92605	0.07395	0.495
Mof_Cd	Cd	0.07395	0.52302	0.47698	0.495
Mof_Cd	Cd	0.92605	0.47698	0.52302	0.494
Mof_Cd	Cd	0.52302	0.07395	0.92605	0.494
Mof_Cd	Cd	0.07395	0.92605	0.52302	0.494
Mof_Cd	Cd	0.47698	0.52302	0.92605	0.494
Mof_Cd	Cd	0.52302	0.47698	0.07395	0.494
Mof_Cd	Cd	0.92605	0.07395	0.47698	0.494
Mof_H 	H 	0.4275	0.9599	0.1657	0.068
Mof_H 	H 	0.4933	0.9399	0.2687	0.052
Mof_H 	H 	0.5391	0.9463	0.1889	0.041
Mof_H 	H 	0.3417	0.0003	0.2007	0.021
Mof_H 	H 	0.298	0.9948	0.2498	0.014
Mof_H 	H 	0.3114	0.0406	0.2704	0.132
Mof_H 	H 	0.3104	0.0694	0.2168	0.127
Mof_H 	H 	0.3603	0.0409	0.2265	0.137
Mof_H 	H 	0.3345	0.8995	0.2733	0.011
Mof_H 	H 	0.3755	0.9071	0.2225	0.028
Mof_H 	H 	0.4339	0.8573	0.2601	0.159
Mof_H 	H 	0.4003	0.8297	0.2733	0.149
Mof_H 	H 	0.3926	0.8496	0.311	0.148
Mof_H 	H 	0.9599	0.4275	0.4469	0.068
Mof_H 	H 	0.9399	0.4933	0.2981	0.052
Mof_H 	H 	0.9463	0.5391	0.3257	0.041
Mof_H 	H 	0.0003	0.3417	0.4573	0.021
Mof_H 	H 	0.9948	0.298	0.4574	0.014
Mof_H 	H 	0.0406	0.3114	0.3776	0.132
Mof_H 	H 	0.0694	0.3104	0.4034	0.128
Mof_H 	H 	0.0409	0.3603	0.3723	0.137
Mof_H 	H 	0.8995	0.3345	0.4927	0.011
Mof_H 	H 	0.9071	0.3755	0.4949	0.028
Mof_H 	H 	0.8573	0.4339	0.4487	0.159
Mof_H 	H 	0.8297	0.4003	0.4967	0.149
Mof_H 	H 	0.8496	0.3926	0.4468	0.148
Mof_H 	H 	0.1657	0.4469	0.4275	0.068
Mof_H 	H 	0.2687	0.2981	0.4933	0.052
Mof_H 	H 	0.1889	0.3257	0.5391	0.041
Mof_H 	H 	0.2007	0.4573	0.3417	0.02
Mof_H 	H 	0.2498	0.4574	0.298	0.014
Mof_H 	H 	0.2704	0.3776	0.3114	0.133
Mof_H 	H 	0.2168	0.4034	0.3104	0.128
Mof_H 	H 	0.2265	0.3723	0.3603	0.137
Mof_H 	H 	0.2733	0.4927	0.3345	0.011
Mof_H 	H 	0.2225	0.4949	0.3755	0.028
Mof_H 	H 	0.2601	0.4487	0.4339	0.159
Mof_H 	H 	0.2733	0.4967	0.4003	0.149
Mof_H 	H 	0.311	0.4468	0.3926	0.149
Mof_H 	H 	0.4469	0.1657	0.9599	0.068
Mof_H 	H 	0.2981	0.2687	0.9399	0.052
Mof_H 	H 	0.3257	0.1889	0.9463	0.041
Mof_H 	H 	0.4573	0.2007	0.0003	0.021
Mof_H 	H 	0.4574	0.2498	0.9948	0.014
Mof_H 	H 	0.3776	0.2704	0.0406	0.132
Mof_H 	H 	0.4034	0.2168	0.0694	0.128
Mof_H 	H 	0.3723	0.2265	0.0409	0.137
Mof_H 	H 	0.4927	0.2733	0.8995	0.011
Mof_H 	H 	0.4949	0.2225	0.9071	0.028
Mof_H 	H 	0.4487	0.2601	0.8573	0.159
Mof_H 	H 	0.4967	0.2733	0.8297	0.149
Mof_H 	H 	0.4468	0.311	0.8496	0.148
Mof_H 	H 	0.4275	0.1657	0.4469	0.068
Mof_H 	H 	0.4933	0.2687	0.2981	0.052
Mof_H 	H 	0.5391	0.1889	0.3257	0.041
Mof_H 	H 	0.3417	0.2007	0.4573	0.02
Mof_H 	H 	0.298	0.2498	0.4574	0.014
Mof_H 	H 	0.3114	0.2704	0.3776	0.133
Mof_H 	H 	0.3104	0.2168	0.4034	0.128
Mof_H 	H 	0.3603	0.2265	0.3723	0.137
Mof_H 	H 	0.3345	0.2733	0.4927	0.011
Mof_H 	H 	0.3755	0.2225	0.4949	0.028
Mof_H 	H 	0.4339	0.2601	0.4487	0.159
Mof_H 	H 	0.4003	0.2733	0.4967	0.149
Mof_H 	H 	0.3926	0.311	0.4468	0.149
Mof_H 	H 	0.9599	0.4469	0.1657	0.068
Mof_H 	H 	0.9399	0.2981	0.2687	0.052
Mof_H 	H 	0.9463	0.3257	0.1889	0.041
Mof_H 	H 	0.0003	0.4573	0.2007	0.021
Mof_H 	H 	0.9948	0.4574	0.2498	0.014
Mof_H 	H 	0.0406	0.3776	0.2704	0.132
Mof_H 	H 	0.0694	0.4034	0.2168	0.128
Mof_H 	H 	0.0409	0.3723	0.2265	0.137
Mof_H 	H 	0.8995	0.4927	0.2733	0.011
Mof_H 	H 	0.9071	0.4949	0.2225	0.028
Mof_H 	H 	0.8573	0.4487	0.2601	0.159
Mof_H 	H 	0.8297	0.4967	0.2733	0.149
Mof_H 	H 	0.8496	0.4468	0.311	0.148
Mof_H 	H 	0.1657	0.4275	0.9599	0.068
Mof_H 	H 	0.2687	0.4933	0.9399	0.052
Mof_H 	H 	0.1889	0.5391	0.9463	0.041
Mof_H 	H 	0.2007	0.3417	0.0003	0.021
Mof_H 	H 	0.2498	0.298	0.9948	0.014
Mof_H 	H 	0.2704	0.3114	0.0406	0.132
Mof_H 	H 	0.2168	0.3104	0.0694	0.127
Mof_H 	H 	0.2265	0.3603	0.0409	0.137
Mof_H 	H 	0.2733	0.3345	0.8995	0.011
Mof_H 	H 	0.2225	0.3755	0.9071	0.028
Mof_H 	H 	0.2601	0.4339	0.8573	0.159
Mof_H 	H 	0.2733	0.4003	0.8297	0.149
Mof_H 	H 	0.311	0.3926	0.8496	0.148
Mof_H 	H 	0.4469	0.9599	0.4275	0.068
Mof_H 	H 	0.2981	0.9399	0.4933	0.052
Mof_H 	H 	0.3257	0.9463	0.5391	0.041
Mof_H 	H 	0.4573	0.0003	0.3417	0.021
Mof_H 	H 	0.4574	0.9948	0.298	0.014
Mof_H 	H 	0.3776	0.0406	0.3114	0.132
Mof_H 	H 	0.4034	0.0694	0.3104	0.128
Mof_H 	H 	0.3723	0.0409	0.3603	0.137
Mof_H 	H 	0.4927	0.8995	0.3345	0.011
Mof_H 	H 	0.4949	0.9071	0.3755	0.028
Mof_H 	H 	0.4487	0.8573	0.4339	0.159
Mof_H 	H 	0.4967	0.8297	0.4003	0.149
Mof_H 	H 	0.4468	0.8496	0.3926	0.148
Mof_H 	H 	0.4275	0.4469	0.9599	0.068
Mof_H 	H 	0.4933	0.2981	0.9399	0.052
Mof_H 	H 	0.5391	0.3257	0.9463	0.041
Mof_H 	H 	0.3417	0.4573	0.0003	0.021
Mof_H 	H 	0.298	0.4574	0.9948	0.014
Mof_H 	H 	0.3114	0.3776	0.0406	0.132
Mof_H 	H 	0.3104	0.4034	0.0694	0.128
Mof_H 	H 	0.3603	0.3723	0.0409	0.137
Mof_H 	H 	0.3345	0.4927	0.8995	0.011
Mof_H 	H 	0.3755	0.4949	0.9071	0.028
Mof_H 	H 	0.4339	0.4487	0.8573	0.159
Mof_H 	H 	0.4003	0.4967	0.8297	0.149
Mof_H 	H 	0.3926	0.4468	0.8496	0.148
Mof_H 	H 	0.9599	0.1657	0.4275	0.068
Mof_H 	H 	0.9399	0.2687	0.4933	0.052
Mof_H 	H 	0.9463	0.1889	0.5391	0.041
Mof_H 	H 	0.0003	0.2007	0.3417	0.021
Mof_H 	H 	0.9948	0.2498	0.298	0.014
Mof_H 	H 	0.0406	0.2704	0.3114	0.132
Mof_H 	H 	0.0694	0.2168	0.3104	0.127
Mof_H 	H 	0.0409	0.2265	0.3603	0.137
Mof_H 	H 	0.8995	0.2733	0.3345	0.011
Mof_H 	H 	0.9071	0.2225	0.3755	0.028
Mof_H 	H 	0.8573	0.2601	0.4339	0.159
Mof_H 	H 	0.8297	0.2733	0.4003	0.149
Mof_H 	H 	0.8496	0.311	0.3926	0.148
Mof_H 	H 	0.1657	0.9599	0.4469	0.068
Mof_H 	H 	0.2687	0.9399	0.2981	0.052
Mof_H 	H 	0.1889	0.9463	0.3257	0.041
Mof_H 	H 	0.2007	0.0003	0.4573	0.021
Mof_H 	H 	0.2498	0.9948	0.4574	0.014
Mof_H 	H 	0.2704	0.0406	0.3776	0.132
Mof_H 	H 	0.2168	0.0694	0.4034	0.128
Mof_H 	H 	0.2265	0.0409	0.3723	0.137
Mof_H 	H 	0.2733	0.8995	0.4927	0.011
Mof_H 	H 	0.2225	0.9071	0.4949	0.028
Mof_H 	H 	0.2601	0.8573	0.4487	0.159
Mof_H 	H 	0.2733	0.8297	0.4967	0.149
Mof_H 	H 	0.311	0.8496	0.4468	0.148
Mof_H 	H 	0.4469	0.4275	0.1657	0.068
Mof_H 	H 	0.2981	0.4933	0.2687	0.052
Mof_H 	H 	0.3257	0.5391	0.1889	0.041
Mof_H 	H 	0.4573	0.3417	0.2007	0.02
Mof_H 	H 	0.4574	0.298	0.2498	0.014
Mof_H 	H 	0.3776	0.3114	0.2704	0.133
Mof_H 	H 	0.4034	0.3104	0.2168	0.128
Mof_H 	H 	0.3723	0.3603	0.2265	0.137
Mof_H 	H 	0.4927	0.3345	0.2733	0.011
Mof_H 	H 	0.4949	0.3755	0.2225	0.028
Mof_H 	H 	0.4487	0.4339	0.2601	0.159
Mof_H 	H 	0.4967	0.4003	0.2733	0.149
Mof_H 	H 	0.4468	0.3926	0.311	0.149
Mof_H 	H 	0.5401	0.0725	0.3343	0.068
Mof_H 	H 	0.5601	0.0067	0.2313	0.052
Mof_H 	H 	0.5537	0.9609	0.3111	0.041
Mof_H 	H 	0.4997	0.1583	0.2993	0.02
Mof_H 	H 	0.5052	0.202	0.2502	0.014
Mof_H 	H 	0.4594	0.1886	0.2296	0.133
Mof_H 	H 	0.4306	0.1896	0.2832	0.128
Mof_H 	H 	0.4591	0.1397	0.2735	0.137
Mof_H 	H 	0.6005	0.1655	0.2267	0.011
Mof_H 	H 	0.5929	0.1245	0.2775	0.028
Mof_H 	H 	0.6427	0.0661	0.2399	0.159
Mof_H 	H 	0.6703	0.0997	0.2267	0.149
Mof_H 	H 	0.6504	0.1074	0.189	0.148
Mof_H 	H 	0.0725	0.5401	0.0531	0.068
Mof_H 	H 	0.0067	0.5601	0.2019	0.052
Mof_H 	H 	0.9609	0.5537	0.1743	0.041
Mof_H 	H 	0.1583	0.4997	0.0427	0.02
Mof_H 	H 	0.202	0.5052	0.0426	0.014
Mof_H 	H 	0.1886	0.4594	0.1224	0.133
Mof_H 	H 	0.1896	0.4306	0.0966	0.128
Mof_H 	H 	0.1397	0.4591	0.1277	0.137
Mof_H 	H 	0.1655	0.6005	0.0073	0.011
Mof_H 	H 	0.1245	0.5929	0.0051	0.028
Mof_H 	H 	0.0661	0.6427	0.0513	0.159
Mof_H 	H 	0.0997	0.6703	0.0033	0.149
Mof_H 	H 	0.1074	0.6504	0.0532	0.148
Mof_H 	H 	0.0531	0.3343	0.0725	0.068
Mof_H 	H 	0.2019	0.2313	0.0067	0.052
Mof_H 	H 	0.1743	0.3111	0.9609	0.042
Mof_H 	H 	0.0427	0.2993	0.1583	0.02
Mof_H 	H 	0.0426	0.2502	0.202	0.014
Mof_H 	H 	0.1224	0.2296	0.1886	0.133
Mof_H 	H 	0.0966	0.2832	0.1896	0.128
Mof_H 	H 	0.1277	0.2735	0.1397	0.137
Mof_H 	H 	0.0073	0.2267	0.1655	0.011
Mof_H 	H 	0.0051	0.2775	0.1245	0.028
Mof_H 	H 	0.0513	0.2399	0.0661	0.16
Mof_H 	H 	0.0033	0.2267	0.0997	0.149
Mof_H 	H 	0.0532	0.189	0.1074	0.149
Mof_H 	H 	0.3343	0.0531	0.5401	0.068
Mof_H 	H 	0.2313	0.2019	0.5601	0.052
Mof_H 	H 	0.3111	0.1743	0.5537	0.041
Mof_H 	H 	0.2993	0.0427	0.4997	0.02
Mof_H 	H 	0.2502	0.0426	0.5052	0.014
Mof_H 	H 	0.2296	0.1224	0.4594	0.133
Mof_H 	H 	0.2832	0.0966	0.4306	0.128
Mof_H 	H 	0.2735	0.1277	0.4591	0.137
Mof_H 	H 	0.2267	0.0073	0.6005	0.011
Mof_H 	H 	0.2775	0.0051	0.5929	0.028
Mof_H 	H 	0.2399	0.0513	0.6427	0.159
Mof_H 	H 	0.2267	0.0033	0.6703	0.149
Mof_H 	H 	0.189	0.0532	0.6504	0.148
Mof_H 	H 	0.3343	0.0725	0.0531	0.068
Mof_H 	H 	0.2313	0.0067	0.2019	0.052
Mof_H 	H 	0.3111	0.9609	0.1743	0.042
Mof_H 	H 	0.2993	0.1583	0.0427	0.02
Mof_H 	H 	0.2502	0.202	0.0426	0.014
Mof_H 	H 	0.2296	0.1886	0.1224	0.133
Mof_H 	H 	0.2832	0.1896	0.0966	0.128
Mof_H 	H 	0.2735	0.1397	0.1277	0.137
Mof_H 	H 	0.2267	0.1655	0.0073	0.011
Mof_H 	H 	0.2775	0.1245	0.0051	0.028
Mof_H 	H 	0.2399	0.0661	0.0513	0.16
Mof_H 	H 	0.2267	0.0997	0.0033	0.149
Mof_H 	H 	0.189	0.1074	0.0532	0.149
Mof_H 	H 	0.0531	0.5401	0.3343	0.068
Mof_H 	H 	0.2019	0.5601	0.2313	0.052
Mof_H 	H 	0.1743	0.5537	0.3111	0.041
Mof_H 	H 	0.0427	0.4997	0.2993	0.02
Mof_H 	H 	0.0426	0.5052	0.2502	0.014
Mof_H 	H 	0.1224	0.4594	0.2296	0.133
Mof_H 	H 	0.0966	0.4306	0.2832	0.128
Mof_H 	H 	0.1277	0.4591	0.2735	0.137
Mof_H 	H 	0.0073	0.6005	0.2267	0.011
Mof_H 	H 	0.0051	0.5929	0.2775	0.028
Mof_H 	H 	0.0513	0.6427	0.2399	0.159
Mof_H 	H 	0.0033	0.6703	0.2267	0.149
Mof_H 	H 	0.0532	0.6504	0.189	0.148
Mof_H 	H 	0.0725	0.3343	0.5401	0.068
Mof_H 	H 	0.0067	0.2313	0.5601	0.052
Mof_H 	H 	0.9609	0.3111	0.5537	0.041
Mof_H 	H 	0.1583	0.2993	0.4997	0.02
Mof_H 	H 	0.202	0.2502	0.5052	0.014
Mof_H 	H 	0.1886	0.2296	0.4594	0.133
Mof_H 	H 	0.1896	0.2832	0.4306	0.128
Mof_H 	H 	0.1397	0.2735	0.4591	0.137
Mof_H 	H 	0.1655	0.2267	0.6005	0.011
Mof_H 	H 	0.1245	0.2775	0.5929	0.028
Mof_H 	H 	0.0661	0.2399	0.6427	0.159
Mof_H 	H 	0.0997	0.2267	0.6703	0.149
Mof_H 	H 	0.1074	0.189	0.6504	0.148
Mof_H 	H 	0.5401	0.0531	0.0725	0.068
Mof_H 	H 	0.5601	0.2019	0.0067	0.052
Mof_H 	H 	0.5537	0.1743	0.9609	0.041
Mof_H 	H 	0.4997	0.0427	0.1583	0.02
Mof_H 	H 	0.5052	0.0426	0.202	0.014
Mof_H 	H 	0.4594	0.1224	0.1886	0.133
Mof_H 	H 	0.4306	0.0966	0.1896	0.128
Mof_H 	H 	0.4591	0.1277	0.1397	0.137
Mof_H 	H 	0.6005	0.0073	0.1655	0.011
Mof_H 	H 	0.5929	0.0051	0.1245	0.028
Mof_H 	H 	0.6427	0.0513	0.0661	0.159
Mof_H 	H 	0.6703	0.0033	0.0997	0.149
Mof_H 	H 	0.6504	0.0532	0.1074	0.148
Mof_H 	H 	0.0531	0.0725	0.5401	0.068
Mof_H 	H 	0.2019	0.0067	0.5601	0.052
Mof_H 	H 	0.1743	0.9609	0.5537	0.041
Mof_H 	H 	0.0427	0.1583	0.4997	0.02
Mof_H 	H 	0.0426	0.202	0.5052	0.014
Mof_H 	H 	0.1224	0.1886	0.4594	0.133
Mof_H 	H 	0.0966	0.1896	0.4306	0.128
Mof_H 	H 	0.1277	0.1397	0.4591	0.137
Mof_H 	H 	0.0073	0.1655	0.6005	0.011
Mof_H 	H 	0.0051	0.1245	0.5929	0.028
Mof_H 	H 	0.0513	0.0661	0.6427	0.159
Mof_H 	H 	0.0033	0.0997	0.6703	0.149
Mof_H 	H 	0.0532	0.1074	0.6504	0.148
Mof_H 	H 	0.3343	0.5401	0.0725	0.068
Mof_H 	H 	0.2313	0.5601	0.0067	0.052
Mof_H 	H 	0.3111	0.5537	0.9609	0.041
Mof_H 	H 	0.2993	0.4997	0.1583	0.02
Mof_H 	H 	0.2502	0.5052	0.202	0.014
Mof_H 	H 	0.2296	0.4594	0.1886	0.133
Mof_H 	H 	0.2832	0.4306	0.1896	0.128
Mof_H 	H 	0.2735	0.4591	0.1397	0.137
Mof_H 	H 	0.2267	0.6005	0.1655	0.011
Mof_H 	H 	0.2775	0.5929	0.1245	0.028
Mof_H 	H 	0.2399	0.6427	0.0661	0.159
Mof_H 	H 	0.2267	0.6703	0.0997	0.149
Mof_H 	H 	0.189	0.6504	0.1074	0.148
Mof_H 	H 	0.5401	0.3343	0.0531	0.068
Mof_H 	H 	0.5601	0.2313	0.2019	0.052
Mof_H 	H 	0.5537	0.3111	0.1743	0.041
Mof_H 	H 	0.4997	0.2993	0.0427	0.02
Mof_H 	H 	0.5052	0.2502	0.0426	0.014
Mof_H 	H 	0.4594	0.2296	0.1224	0.133
Mof_H 	H 	0.4306	0.2832	0.0966	0.128
Mof_H 	H 	0.4591	0.2735	0.1277	0.137
Mof_H 	H 	0.6005	0.2267	0.0073	0.011
Mof_H 	H 	0.5929	0.2775	0.0051	0.028
Mof_H 	H 	0.6427	0.2399	0.0513	0.159
Mof_H 	H 	0.6703	0.2267	0.0033	0.149
Mof_H 	H 	0.6504	0.189	0.0532	0.148
Mof_H 	H 	0.0725	0.0531	0.3343	0.068
Mof_H 	H 	0.0067	0.2019	0.2313	0.052
Mof_H 	H 	0.9609	0.1743	0.3111	0.042
Mof_H 	H 	0.1583	0.0427	0.2993	0.02
Mof_H 	H 	0.202	0.0426	0.2502	0.014
Mof_H 	H 	0.1886	0.1224	0.2296	0.133
Mof_H 	H 	0.1896	0.0966	0.2832	0.128
Mof_H 	H 	0.1397	0.1277	0.2735	0.137
Mof_H 	H 	0.1655	0.0073	0.2267	0.011
Mof_H 	H 	0.1245	0.0051	0.2775	0.028
Mof_H 	H 	0.0661	0.0513	0.2399	0.16
Mof_H 	H 	0.0997	0.0033	0.2267	0.149
Mof_H 	H 	0.1074	0.0532	0.189	0.149
Mof_H 	H 	0.5725	0.0401	0.8343	0.068
Mof_H 	H 	0.5067	0.0601	0.7313	0.052
Mof_H 	H 	0.4609	0.0537	0.8111	0.041
Mof_H 	H 	0.6583	0.9997	0.7993	0.021
Mof_H 	H 	0.702	0.0052	0.7502	0.014
Mof_H 	H 	0.6886	0.9594	0.7296	0.132
Mof_H 	H 	0.6896	0.9306	0.7832	0.127
Mof_H 	H 	0.6397	0.9591	0.7735	0.137
Mof_H 	H 	0.6655	0.1005	0.7267	0.011
Mof_H 	H 	0.6245	0.0929	0.7775	0.028
Mof_H 	H 	0.5661	0.1427	0.7399	0.159
Mof_H 	H 	0.5997	0.1703	0.7267	0.149
Mof_H 	H 	0.6074	0.1504	0.689	0.148
Mof_H 	H 	0.0401	0.5725	0.5531	0.068
Mof_H 	H 	0.0601	0.5067	0.7019	0.052
Mof_H 	H 	0.0537	0.4609	0.6743	0.041
Mof_H 	H 	0.9997	0.6583	0.5427	0.021
Mof_H 	H 	0.0052	0.702	0.5426	0.014
Mof_H 	H 	0.9594	0.6886	0.6224	0.132
Mof_H 	H 	0.9306	0.6896	0.5966	0.128
Mof_H 	H 	0.9591	0.6397	0.6277	0.137
Mof_H 	H 	0.1005	0.6655	0.5073	0.011
Mof_H 	H 	0.0929	0.6245	0.5051	0.028
Mof_H 	H 	0.1427	0.5661	0.5513	0.159
Mof_H 	H 	0.1703	0.5997	0.5033	0.149
Mof_H 	H 	0.1504	0.6074	0.5532	0.148
Mof_H 	H 	0.8343	0.5531	0.5725	0.068
Mof_H 	H 	0.7313	0.7019	0.5067	0.052
Mof_H 	H 	0.8111	0.6743	0.4609	0.041
Mof_H 	H 	0.7993	0.5427	0.6583	0.02
Mof_H 	H 	0.7502	0.5426	0.702	0.014
Mof_H 	H 	0.7296	0.6224	0.6886	0.133
Mof_H 	H 	0.7832	0.5966	0.6896	0.128
Mof_H 	H 	0.7735	0.6277	0.6397	0.137
Mof_H 	H 	0.7267	0.5073	0.6655	0.011
Mof_H 	H 	0.7775	0.5051	0.6245	0.028
Mof_H 	H 	0.7399	0.5513	0.5661	0.159
Mof_H 	H 	0.7267	0.5033	0.5997	0.149
Mof_H 	H 	0.689	0.5532	0.6074	0.149
Mof_H 	H 	0.5531	0.8343	0.0401	0.068
Mof_H 	H 	0.7019	0.7313	0.0601	0.052
Mof_H 	H 	0.6743	0.8111	0.0537	0.041
Mof_H 	H 	0.5427	0.7993	0.9997	0.021
Mof_H 	H 	0.5426	0.7502	0.0052	0.014
Mof_H 	H 	0.6224	0.7296	0.9594	0.132
Mof_H 	H 	0.5966	0.7832	0.9306	0.128
Mof_H 	H 	0.6277	0.7735	0.9591	0.137
Mof_H 	H 	0.5073	0.7267	0.1005	0.011
Mof_H 	H 	0.5051	0.7775	0.0929	0.028
Mof_H 	H 	0.5513	0.7399	0.1427	0.159
Mof_H 	H 	0.5033	0.7267	0.1703	0.149
Mof_H 	H 	0.5532	0.689	0.1504	0.148
Mof_H 	H 	0.5725	0.8343	0.5531	0.068
Mof_H 	H 	0.5067	0.7313	0.7019	0.052
Mof_H 	H 	0.4609	0.8111	0.6743	0.041
Mof_H 	H 	0.6583	0.7993	0.5427	0.02
Mof_H 	H 	0.702	0.7502	0.5426	0.014
Mof_H 	H 	0.6886	0.7296	0.6224	0.133
Mof_H 	H 	0.6896	0.7832	0.5966	0.128
Mof_H 	H 	0.6397	0.7735	0.6277	0.137
Mof_H 	H 	0.6655	0.7267	0.5073	0.011
Mof_H 	H 	0.6245	0.7775	0.5051	0.028
Mof_H 	H 	0.5661	0.7399	0.5513	0.159
Mof_H 	H 	0.5997	0.7267	0.5033	0.149
Mof_H 	H 	0.6074	0.689	0.5532	0.149
Mof_H 	H 	0.0401	0.5531	0.8343	0.068
Mof_H 	H 	0.0601	0.7019	0.7313	0.052
Mof_H 	H 	0.0537	0.6743	0.8111	0.041
Mof_H 	H 	0.9997	0.5427	0.7993	0.021
Mof_H 	H 	0.0052	0.5426	0.7502	0.014
Mof_H 	H 	0.9594	0.6224	0.7296	0.132
Mof_H 	H 	0.9306	0.5966	0.7832	0.128
Mof_H 	H 	0.9591	0.6277	0.7735	0.137
Mof_H 	H 	0.1005	0.5073	0.7267	0.011
Mof_H 	H 	0.0929	0.5051	0.7775	0.028
Mof_H 	H 	0.1427	0.5513	0.7399	0.159
Mof_H 	H 	0.1703	0.5033	0.7267	0.149
Mof_H 	H 	0.1504	0.5532	0.689	0.148
Mof_H 	H 	0.8343	0.5725	0.0401	0.068
Mof_H 	H 	0.7313	0.5067	0.0601	0.052
Mof_H 	H 	0.8111	0.4609	0.0537	0.041
Mof_H 	H 	0.7993	0.6583	0.9997	0.021
Mof_H 	H 	0.7502	0.702	0.0052	0.014
Mof_H 	H 	0.7296	0.6886	0.9594	0.132
Mof_H 	H 	0.7832	0.6896	0.9306	0.127
Mof_H 	H 	0.7735	0.6397	0.9591	0.137
Mof_H 	H 	0.7267	0.6655	0.1005	0.011
Mof_H 	H 	0.7775	0.6245	0.0929	0.028
Mof_H 	H 	0.7399	0.5661	0.1427	0.159
Mof_H 	H 	0.7267	0.5997	0.1703	0.149
Mof_H 	H 	0.689	0.6074	0.1504	0.148
Mof_H 	H 	0.5531	0.0401	0.5725	0.068
Mof_H 	H 	0.7019	0.0601	0.5067	0.052
Mof_H 	H 	0.6743	0.0537	0.4609	0.041
Mof_H 	H 	0.5427	0.9997	0.6583	0.021
Mof_H 	H 	0.5426	0.0052	0.702	0.014
Mof_H 	H 	0.6224	0.9594	0.6886	0.132
Mof_H 	H 	0.5966	0.9306	0.6896	0.128
Mof_H 	H 	0.6277	0.9591	0.6397	0.137
Mof_H 	H 	0.5073	0.1005	0.6655	0.011
Mof_H 	H 	0.5051	0.0929	0.6245	0.028
Mof_H 	H 	0.5513	0.1427	0.5661	0.159
Mof_H 	H 	0.5033	0.1703	0.5997	0.149
Mof_H 	H 	0.5532	0.1504	0.6074	0.148
Mof_H 	H 	0.5725	0.5531	0.0401	0.068
Mof_H 	H 	0.5067	0.7019	0.0601	0.052
Mof_H 	H 	0.4609	0.6743	0.0537	0.041
Mof_H 	H 	0.6583	0.5427	0.9997	0.021
Mof_H 	H 	0.702	0.5426	0.0052	0.014
Mof_H 	H 	0.6886	0.6224	0.9594	0.132
Mof_H 	H 	0.6896	0.5966	0.9306	0.128
Mof_H 	H 	0.6397	0.6277	0.9591	0.137
Mof_H 	H 	0.6655	0.5073	0.1005	0.011
Mof_H 	H 	0.6245	0.5051	0.0929	0.028
Mof_H 	H 	0.5661	0.5513	0.1427	0.159
Mof_H 	H 	0.5997	0.5033	0.1703	0.149
Mof_H 	H 	0.6074	0.5532	0.1504	0.148
Mof_H 	H 	0.0401	0.8343	0.5725	0.068
Mof_H 	H 	0.0601	0.7313	0.5067	0.052
Mof_H 	H 	0.0537	0.8111	0.4609	0.041
Mof_H 	H 	0.9997	0.7993	0.6583	0.021
Mof_H 	H 	0.0052	0.7502	0.702	0.014
Mof_H 	H 	0.9594	0.7296	0.6886	0.132
Mof_H 	H 	0.9306	0.7832	0.6896	0.127
Mof_H 	H 	0.9591	0.7735	0.6397	0.137
Mof_H 	H 	0.1005	0.7267	0.6655	0.011
Mof_H 	H 	0.0929	0.7775	0.6245	0.028
Mof_H 	H 	0.1427	0.7399	0.5661	0.159
Mof_H 	H 	0.1703	0.7267	0.5997	0.149
Mof_H 	H 	0.1504	0.689	0.6074	0.148
Mof_H 	H 	0.8343	0.0401	0.5531	0.068
Mof_H 	H 	0.7313	0.0601	0.7019	0.052
Mof_H 	H 	0.8111	0.0537	0.6743	0.041
Mof_H 	H 	0.7993	0.9997	0.5427	0.021
Mof_H 	H 	0.7502	0.0052	0.5426	0.014
Mof_H 	H 	0.7296	0.9594	0.6224	0.132
Mof_H 	H 	0.7832	0.9306	0.5966	0.128
Mof_H 	H 	0.7735	0.9591	0.6277	0.137
Mof_H 	H 	0.7267	0.1005	0.5073	0.011
Mof_H 	H 	0.7775	0.0929	0.5051	0.028
Mof_H 	H 	0.7399	0.1427	0.5513	0.159
Mof_H 	H 	0.7267	0.1703	0.5033	0.149
Mof_H 	H 	0.689	0.1504	0.5532	0.148
Mof_H 	H 	0.5531	0.5725	0.8343	0.068
Mof_H 	H 	0.7019	0.5067	0.7313	0.052
Mof_H 	H 	0.6743	0.4609	0.8111	0.041
Mof_H 	H 	0.5427	0.6583	0.7993	0.02
Mof_H 	H 	0.5426	0.702	0.7502	0.014
Mof_H 	H 	0.6224	0.6886	0.7296	0.133
Mof_H 	H 	0.5966	0.6896	0.7832	0.128
Mof_H 	H 	0.6277	0.6397	0.7735	0.137
Mof_H 	H 	0.5073	0.6655	0.7267	0.011
Mof_H 	H 	0.5051	0.6245	0.7775	0.028
Mof_H 	H 	0.5513	0.5661	0.7399	0.159
Mof_H 	H 	0.5033	0.5997	0.7267	0.149
Mof_H 	H 	0.5532	0.6074	0.689	0.149
Mof_H 	H 	0.4599	0.9275	0.6657	0.068
Mof_H 	H 	0.4399	0.9933	0.7687	0.052
Mof_H 	H 	0.4463	0.0391	0.6889	0.041
Mof_H 	H 	0.5003	0.8417	0.7007	0.02
Mof_H 	H 	0.4948	0.798	0.7498	0.014
Mof_H 	H 	0.5406	0.8114	0.7704	0.133
Mof_H 	H 	0.5694	0.8104	0.7168	0.128
Mof_H 	H 	0.5409	0.8603	0.7265	0.137
Mof_H 	H 	0.3995	0.8345	0.7733	0.011
Mof_H 	H 	0.4071	0.8755	0.7225	0.028
Mof_H 	H 	0.3573	0.9339	0.7601	0.159
Mof_H 	H 	0.3297	0.9003	0.7733	0.149
Mof_H 	H 	0.3496	0.8926	0.811	0.148
Mof_H 	H 	0.9275	0.4599	0.9469	0.068
Mof_H 	H 	0.9933	0.4399	0.7981	0.052
Mof_H 	H 	0.0391	0.4463	0.8257	0.041
Mof_H 	H 	0.8417	0.5003	0.9573	0.02
Mof_H 	H 	0.798	0.4948	0.9574	0.014
Mof_H 	H 	0.8114	0.5406	0.8776	0.133
Mof_H 	H 	0.8104	0.5694	0.9034	0.128
Mof_H 	H 	0.8603	0.5409	0.8723	0.137
Mof_H 	H 	0.8345	0.3995	0.9927	0.011
Mof_H 	H 	0.8755	0.4071	0.9949	0.028
Mof_H 	H 	0.9339	0.3573	0.9487	0.159
Mof_H 	H 	0.9003	0.3297	0.9967	0.149
Mof_H 	H 	0.8926	0.3496	0.9468	0.148
Mof_H 	H 	0.9469	0.6657	0.9275	0.068
Mof_H 	H 	0.7981	0.7687	0.9933	0.052
Mof_H 	H 	0.8257	0.6889	0.0391	0.042
Mof_H 	H 	0.9573	0.7007	0.8417	0.02
Mof_H 	H 	0.9574	0.7498	0.798	0.014
Mof_H 	H 	0.8776	0.7704	0.8114	0.133
Mof_H 	H 	0.9034	0.7168	0.8104	0.128
Mof_H 	H 	0.8723	0.7265	0.8603	0.137
Mof_H 	H 	0.9927	0.7733	0.8345	0.011
Mof_H 	H 	0.9949	0.7225	0.8755	0.028
Mof_H 	H 	0.9487	0.7601	0.9339	0.16
Mof_H 	H 	0.9967	0.7733	0.9003	0.149
Mof_H 	H 	0.9468	0.811	0.8926	0.149
Mof_H 	H 	0.6657	0.9469	0.4599	0.068
Mof_H 	H 	0.7687	0.7981	0.4399	0.052
Mof_H 	H 	0.6889	0.8257	0.4463	0.041
Mof_H 	H 	0.7007	0.9573	0.5003	0.02
Mof_H 	H 	0.7498	0.9574	0.4948	0.014
Mof_H 	H 	0.7704	0.8776	0.5406	0.133
Mof_H 	H 	0.7168	0.9034	0.5694	0.128
Mof_H 	H 	0.7265	0.8723	0.5409	0.137
Mof_H 	H 	0.7733	0.9927	0.3995	0.011
Mof_H 	H 	0.7225	0.9949	0.4071	0.028
Mof_H 	H 	0.7601	0.9487	0.3573	0.159
Mof_H 	H 	0.7733	0.9967	0.3297	0.149
Mof_H 	H 	0.811	0.9468	0.3496	0.148
Mof_H 	H 	0.6657	0.9275	0.9469	0.068
Mof_H 	H 	0.7687	0.9933	0.7981	0.052
Mof_H 	H 	0.6889	0.0391	0.8257	0.042
Mof_H 	H 	0.7007	0.8417	0.9573	0.02
Mof_H 	H 	0.7498	0.798	0.9574	0.014
Mof_H 	H 	0.7704	0.8114	0.8776	0.133
Mof_H 	H 	0.7168	0.8104	0.9034	0.128
Mof_H 	H 	0.7265	0.8603	0.8723	0.137
Mof_H 	H 	0.7733	0.8345	0.9927	0.011
Mof_H 	H 	0.7225	0.8755	0.9949	0.028
Mof_H 	H 	0.7601	0.9339	0.9487	0.16
Mof_H 	H 	0.7733	0.9003	0.9967	0.149
Mof_H 	H 	0.811	0.8926	0.9468	0.149
Mof_H 	H 	0.9469	0.4599	0.6657	0.068
Mof_H 	H 	0.7981	0.4399	0.7687	0.052
Mof_H 	H 	0.8257	0.4463	0.6889	0.041
Mof_H 	H 	0.9573	0.5003	0.7007	0.02
Mof_H 	H 	0.9574	0.4948	0.7498	0.014
Mof_H 	H 	0.8776	0.5406	0.7704	0.133
Mof_H 	H 	0.9034	0.5694	0.7168	0.128
Mof_H 	H 	0.8723	0.5409	0.7265	0.137
Mof_H 	H 	0.9927	0.3995	0.7733	0.011
Mof_H 	H 	0.9949	0.4071	0.7225	0.028
Mof_H 	H 	0.9487	0.3573	0.7601	0.159
Mof_H 	H 	0.9967	0.3297	0.7733	0.149
Mof_H 	H 	0.9468	0.3496	0.811	0.148
Mof_H 	H 	0.9275	0.6657	0.4599	0.068
Mof_H 	H 	0.9933	0.7687	0.4399	0.052
Mof_H 	H 	0.0391	0.6889	0.4463	0.041
Mof_H 	H 	0.8417	0.7007	0.5003	0.02
Mof_H 	H 	0.798	0.7498	0.4948	0.014
Mof_H 	H 	0.8114	0.7704	0.5406	0.133
Mof_H 	H 	0.8104	0.7168	0.5694	0.128
Mof_H 	H 	0.8603	0.7265	0.5409	0.137
Mof_H 	H 	0.8345	0.7733	0.3995	0.011
Mof_H 	H 	0.8755	0.7225	0.4071	0.028
Mof_H 	H 	0.9339	0.7601	0.3573	0.159
Mof_H 	H 	0.9003	0.7733	0.3297	0.149
Mof_H 	H 	0.8926	0.811	0.3496	0.148
Mof_H 	H 	0.4599	0.9469	0.9275	0.068
Mof_H 	H 	0.4399	0.7981	0.9933	0.052
Mof_H 	H 	0.4463	0.8257	0.0391	0.041
Mof_H 	H 	0.5003	0.9573	0.8417	0.02
Mof_H 	H 	0.4948	0.9574	0.798	0.014
Mof_H 	H 	0.5406	0.8776	0.8114	0.133
Mof_H 	H 	0.5694	0.9034	0.8104	0.128
Mof_H 	H 	0.5409	0.8723	0.8603	0.137
Mof_H 	H 	0.3995	0.9927	0.8345	0.011
Mof_H 	H 	0.4071	0.9949	0.8755	0.028
Mof_H 	H 	0.3573	0.9487	0.9339	0.159
Mof_H 	H 	0.3297	0.9967	0.9003	0.149
Mof_H 	H 	0.3496	0.9468	0.8926	0.148
Mof_H 	H 	0.9469	0.9275	0.4599	0.068
Mof_H 	H 	0.7981	0.9933	0.4399	0.052
Mof_H 	H 	0.8257	0.0391	0.4463	0.041
Mof_H 	H 	0.9573	0.8417	0.5003	0.02
Mof_H 	H 	0.9574	0.798	0.4948	0.014
Mof_H 	H 	0.8776	0.8114	0.5406	0.133
Mof_H 	H 	0.9034	0.8104	0.5694	0.128
Mof_H 	H 	0.8723	0.8603	0.5409	0.137
Mof_H 	H 	0.9927	0.8345	0.3995	0.011
Mof_H 	H 	0.9949	0.8755	0.4071	0.028
Mof_H 	H 	0.9487	0.9339	0.3573	0.159
Mof_H 	H 	0.9967	0.9003	0.3297	0.149
Mof_H 	H 	0.9468	0.8926	0.3496	0.148
Mof_H 	H 	0.6657	0.4599	0.9275	0.068
Mof_H 	H 	0.7687	0.4399	0.9933	0.052
Mof_H 	H 	0.6889	0.4463	0.0391	0.041
Mof_H 	H 	0.7007	0.5003	0.8417	0.02
Mof_H 	H 	0.7498	0.4948	0.798	0.014
Mof_H 	H 	0.7704	0.5406	0.8114	0.133
Mof_H 	H 	0.7168	0.5694	0.8104	0.128
Mof_H 	H 	0.7265	0.5409	0.8603	0.137
Mof_H 	H 	0.7733	0.3995	0.8345	0.011
Mof_H 	H 	0.7225	0.4071	0.8755	0.028
Mof_H 	H 	0.7601	0.3573	0.9339	0.159
Mof_H 	H 	0.7733	0.3297	0.9003	0.149
Mof_H 	H 	0.811	0.3496	0.8926	0.148
Mof_H 	H 	0.4599	0.6657	0.9469	0.068
Mof_H 	H 	0.4399	0.7687	0.7981	0.052
Mof_H 	H 	0.4463	0.6889	0.8257	0.041
Mof_H 	H 	0.5003	0.7007	0.9573	0.02
Mof_H 	H 	0.4948	0.7498	0.9574	0.014
Mof_H 	H 	0.5406	0.7704	0.8776	0.133
Mof_H 	H 	0.5694	0.7168	0.9034	0.128
Mof_H 	H 	0.5409	0.7265	0.8723	0.137
Mof_H 	H 	0.3995	0.7733	0.9927	0.011
Mof_H 	H 	0.4071	0.7225	0.9949	0.028
Mof_H 	H 	0.3573	0.7601	0.9487	0.159
Mof_H 	H 	0.3297	0.7733	0.9967	0.149
Mof_H 	H 	0.3496	0.811	0.9468	0.148
Mof_H 	H 	0.9275	0.9469	0.6657	0.068
Mof_H 	H 	0.9933	0.7981	0.7687	0.052
Mof_H 	H 	0.0391	0.8257	0.6889	0.042
Mof_H 	H 	0.8417	0.9573	0.7007	0.02
Mof_H 	H 	0.798	0.9574	0.7498	0.014
Mof_H 	H 	0.8114	0.8776	0.7704	0.133
Mof_H 	H 	0.8104	0.9034	0.7168	0.128
Mof_H 	H 	0.8603	0.8723	0.7265	0.137
Mof_H 	H 	0.8345	0.9927	0.7733	0.011
Mof_H 	H 	0.8755	0.9949	0.7225	0.028
Mof_H 	H 	0.9339	0.9487	0.7601	0.16
Mof_H 	H 	0.9003	0.9967	0.7733	0.149
Mof_H 	H 	0.8926	0.9468	0.811	0.149
Mof_C 	C 	0.51616	0.96316	0.1173	0.293
Mof_C 	C 	0.48738	0.95526	0.16926	-0.059
Mof_C 	C 	0.44091	0.95593	0.18639	-0.046
Mof_C 	C 	0.41429	0.95077	0.23419	0.007
Mof_C 	C 	0.43256	0.9461	0.26524	0.013
Mof_C 	C 	0.47975	0.94411	0.24795	-0.079
Mof_C 	C 	0.50676	0.94826	0.2004	-0.008
Mof_C 	C 	0.36402	0.94902	0.2591	-0.048
Mof_C 	C 	0.35449	0.94425	0.30967	0.012
Mof_C 	C 	0.3944	0.94388	0.31262	-0.037
Mof_C 	C 	0.33064	0.99666	0.2348	0.036
Mof_C 	C 	0.32792	0.04076	0.23738	-0.399
Mof_C 	C 	0.36684	0.90232	0.25646	0.047
Mof_C 	C 	0.4014	0.85568	0.27704	-0.429
Mof_C 	C 	0.96316	0.51616	0.40338	0.293
Mof_C 	C 	0.95526	0.48738	0.3881	-0.059
Mof_C 	C 	0.95593	0.44091	0.41677	-0.046
Mof_C 	C 	0.95077	0.41429	0.40075	0.007
Mof_C 	C 	0.9461	0.43256	0.3561	0.013
Mof_C 	C 	0.94411	0.47975	0.32819	-0.079
Mof_C 	C 	0.94826	0.50676	0.34458	-0.008
Mof_C 	C 	0.94902	0.36402	0.42786	-0.048
Mof_C 	C 	0.94425	0.35449	0.39159	0.012
Mof_C 	C 	0.94388	0.3944	0.3491	-0.037
Mof_C 	C 	0.99666	0.33064	0.4379	0.036
Mof_C 	C 	0.04076	0.32792	0.39394	-0.4
Mof_C 	C 	0.90232	0.36684	0.47438	0.047
Mof_C 	C 	0.85568	0.4014	0.46588	-0.429
Mof_C 	C 	0.1173	0.40338	0.51616	0.293
Mof_C 	C 	0.16926	0.3881	0.48738	-0.059
Mof_C 	C 	0.18639	0.41677	0.44091	-0.046
Mof_C 	C 	0.23419	0.40075	0.41429	0.007
Mof_C 	C 	0.26524	0.3561	0.43256	0.013
Mof_C 	C 	0.24795	0.32819	0.47975	-0.079
Mof_C 	C 	0.2004	0.34458	0.50676	-0.008
Mof_C 	C 	0.2591	0.42786	0.36402	-0.049
Mof_C 	C 	0.30967	0.39159	0.35449	0.012
Mof_C 	C 	0.31262	0.3491	0.3944	-0.037
Mof_C 	C 	0.2348	0.4379	0.33064	0.037
Mof_C 	C 	0.23738	0.39394	0.32792	-0.401
Mof_C 	C 	0.25646	0.47438	0.36684	0.047
Mof_C 	C 	0.27704	0.46588	0.4014	-0.429
Mof_C 	C 	0.40338	0.1173	0.96316	0.293
Mof_C 	C 	0.3881	0.16926	0.95526	-0.059
Mof_C 	C 	0.41677	0.18639	0.95593	-0.046
Mof_C 	C 	0.40075	0.23419	0.95077	0.007
Mof_C 	C 	0.3561	0.26524	0.9461	0.013
Mof_C 	C 	0.32819	0.24795	0.94411	-0.079
Mof_C 	C 	0.34458	0.2004	0.94826	-0.008
Mof_C 	C 	0.42786	0.2591	0.94902	-0.048
Mof_C 	C 	0.39159	0.30967	0.94425	0.012
Mof_C 	C 	0.3491	0.31262	0.94388	-0.037
Mof_C 	C 	0.4379	0.2348	0.99666	0.036
Mof_C 	C 	0.39394	0.23738	0.04076	-0.4
Mof_C 	C 	0.47438	0.25646	0.90232	0.047
Mof_C 	C 	0.46588	0.27704	0.85568	-0.429
Mof_C 	C 	0.51616	0.1173	0.40338	0.293
Mof_C 	C 	0.48738	0.16926	0.3881	-0.059
Mof_C 	C 	0.44091	0.18639	0.41677	-0.046
Mof_C 	C 	0.41429	0.23419	0.40075	0.007
Mof_C 	C 	0.43256	0.26524	0.3561	0.013
Mof_C 	C 	0.47975	0.24795	0.32819	-0.079
Mof_C 	C 	0.50676	0.2004	0.34458	-0.008
Mof_C 	C 	0.36402	0.2591	0.42786	-0.049
Mof_C 	C 	0.35449	0.30967	0.39159	0.012
Mof_C 	C 	0.3944	0.31262	0.3491	-0.037
Mof_C 	C 	0.33064	0.2348	0.4379	0.037
Mof_C 	C 	0.32792	0.23738	0.39394	-0.401
Mof_C 	C 	0.36684	0.25646	0.47438	0.047
Mof_C 	C 	0.4014	0.27704	0.46588	-0.429
Mof_C 	C 	0.96316	0.40338	0.1173	0.293
Mof_C 	C 	0.95526	0.3881	0.16926	-0.059
Mof_C 	C 	0.95593	0.41677	0.18639	-0.046
Mof_C 	C 	0.95077	0.40075	0.23419	0.007
Mof_C 	C 	0.9461	0.3561	0.26524	0.013
Mof_C 	C 	0.94411	0.32819	0.24795	-0.079
Mof_C 	C 	0.94826	0.34458	0.2004	-0.008
Mof_C 	C 	0.94902	0.42786	0.2591	-0.048
Mof_C 	C 	0.94425	0.39159	0.30967	0.012
Mof_C 	C 	0.94388	0.3491	0.31262	-0.037
Mof_C 	C 	0.99666	0.4379	0.2348	0.036
Mof_C 	C 	0.04076	0.39394	0.23738	-0.4
Mof_C 	C 	0.90232	0.47438	0.25646	0.047
Mof_C 	C 	0.85568	0.46588	0.27704	-0.429
Mof_C 	C 	0.1173	0.51616	0.96316	0.293
Mof_C 	C 	0.16926	0.48738	0.95526	-0.059
Mof_C 	C 	0.18639	0.44091	0.95593	-0.046
Mof_C 	C 	0.23419	0.41429	0.95077	0.007
Mof_C 	C 	0.26524	0.43256	0.9461	0.013
Mof_C 	C 	0.24795	0.47975	0.94411	-0.079
Mof_C 	C 	0.2004	0.50676	0.94826	-0.008
Mof_C 	C 	0.2591	0.36402	0.94902	-0.048
Mof_C 	C 	0.30967	0.35449	0.94425	0.012
Mof_C 	C 	0.31262	0.3944	0.94388	-0.037
Mof_C 	C 	0.2348	0.33064	0.99666	0.036
Mof_C 	C 	0.23738	0.32792	0.04076	-0.399
Mof_C 	C 	0.25646	0.36684	0.90232	0.047
Mof_C 	C 	0.27704	0.4014	0.85568	-0.429
Mof_C 	C 	0.40338	0.96316	0.51616	0.293
Mof_C 	C 	0.3881	0.95526	0.48738	-0.059
Mof_C 	C 	0.41677	0.95593	0.44091	-0.046
Mof_C 	C 	0.40075	0.95077	0.41429	0.007
Mof_C 	C 	0.3561	0.9461	0.43256	0.013
Mof_C 	C 	0.32819	0.94411	0.47975	-0.079
Mof_C 	C 	0.34458	0.94826	0.50676	-0.008
Mof_C 	C 	0.42786	0.94902	0.36402	-0.048
Mof_C 	C 	0.39159	0.94425	0.35449	0.012
Mof_C 	C 	0.3491	0.94388	0.3944	-0.037
Mof_C 	C 	0.4379	0.99666	0.33064	0.036
Mof_C 	C 	0.39394	0.04076	0.32792	-0.4
Mof_C 	C 	0.47438	0.90232	0.36684	0.047
Mof_C 	C 	0.46588	0.85568	0.4014	-0.429
Mof_C 	C 	0.51616	0.40338	0.96316	0.293
Mof_C 	C 	0.48738	0.3881	0.95526	-0.059
Mof_C 	C 	0.44091	0.41677	0.95593	-0.046
Mof_C 	C 	0.41429	0.40075	0.95077	0.007
Mof_C 	C 	0.43256	0.3561	0.9461	0.013
Mof_C 	C 	0.47975	0.32819	0.94411	-0.079
Mof_C 	C 	0.50676	0.34458	0.94826	-0.008
Mof_C 	C 	0.36402	0.42786	0.94902	-0.048
Mof_C 	C 	0.35449	0.39159	0.94425	0.012
Mof_C 	C 	0.3944	0.3491	0.94388	-0.037
Mof_C 	C 	0.33064	0.4379	0.99666	0.036
Mof_C 	C 	0.32792	0.39394	0.04076	-0.4
Mof_C 	C 	0.36684	0.47438	0.90232	0.047
Mof_C 	C 	0.4014	0.46588	0.85568	-0.429
Mof_C 	C 	0.96316	0.1173	0.51616	0.293
Mof_C 	C 	0.95526	0.16926	0.48738	-0.059
Mof_C 	C 	0.95593	0.18639	0.44091	-0.046
Mof_C 	C 	0.95077	0.23419	0.41429	0.007
Mof_C 	C 	0.9461	0.26524	0.43256	0.013
Mof_C 	C 	0.94411	0.24795	0.47975	-0.079
Mof_C 	C 	0.94826	0.2004	0.50676	-0.008
Mof_C 	C 	0.94902	0.2591	0.36402	-0.048
Mof_C 	C 	0.94425	0.30967	0.35449	0.012
Mof_C 	C 	0.94388	0.31262	0.3944	-0.037
Mof_C 	C 	0.99666	0.2348	0.33064	0.036
Mof_C 	C 	0.04076	0.23738	0.32792	-0.399
Mof_C 	C 	0.90232	0.25646	0.36684	0.047
Mof_C 	C 	0.85568	0.27704	0.4014	-0.429
Mof_C 	C 	0.1173	0.96316	0.40338	0.293
Mof_C 	C 	0.16926	0.95526	0.3881	-0.059
Mof_C 	C 	0.18639	0.95593	0.41677	-0.046
Mof_C 	C 	0.23419	0.95077	0.40075	0.007
Mof_C 	C 	0.26524	0.9461	0.3561	0.013
Mof_C 	C 	0.24795	0.94411	0.32819	-0.079
Mof_C 	C 	0.2004	0.94826	0.34458	-0.008
Mof_C 	C 	0.2591	0.94902	0.42786	-0.048
Mof_C 	C 	0.30967	0.94425	0.39159	0.012
Mof_C 	C 	0.31262	0.94388	0.3491	-0.037
Mof_C 	C 	0.2348	0.99666	0.4379	0.036
Mof_C 	C 	0.23738	0.04076	0.39394	-0.4
Mof_C 	C 	0.25646	0.90232	0.47438	0.047
Mof_C 	C 	0.27704	0.85568	0.46588	-0.429
Mof_C 	C 	0.40338	0.51616	0.1173	0.293
Mof_C 	C 	0.3881	0.48738	0.16926	-0.059
Mof_C 	C 	0.41677	0.44091	0.18639	-0.046
Mof_C 	C 	0.40075	0.41429	0.23419	0.007
Mof_C 	C 	0.3561	0.43256	0.26524	0.013
Mof_C 	C 	0.32819	0.47975	0.24795	-0.079
Mof_C 	C 	0.34458	0.50676	0.2004	-0.008
Mof_C 	C 	0.42786	0.36402	0.2591	-0.049
Mof_C 	C 	0.39159	0.35449	0.30967	0.012
Mof_C 	C 	0.3491	0.3944	0.31262	-0.037
Mof_C 	C 	0.4379	0.33064	0.2348	0.037
Mof_C 	C 	0.39394	0.32792	0.23738	-0.401
Mof_C 	C 	0.47438	0.36684	0.25646	0.047
Mof_C 	C 	0.46588	0.4014	0.27704	-0.429
Mof_C 	C 	0.53684	0.98384	0.3827	0.293
Mof_C 	C 	0.54474	0.01262	0.33074	-0.059
Mof_C 	C 	0.54407	0.05909	0.31361	-0.047
Mof_C 	C 	0.54923	0.08571	0.26581	0.007
Mof_C 	C 	0.5539	0.06744	0.23476	0.013
Mof_C 	C 	0.55589	0.02025	0.25205	-0.079
Mof_C 	C 	0.55174	0.99324	0.2996	-0.008
Mof_C 	C 	0.55098	0.13598	0.2409	-0.049
Mof_C 	C 	0.55575	0.14551	0.19033	0.012
Mof_C 	C 	0.55612	0.1056	0.18738	-0.037
Mof_C 	C 	0.50334	0.16936	0.2652	0.037
Mof_C 	C 	0.45924	0.17208	0.26262	-0.401
Mof_C 	C 	0.59768	0.13316	0.24354	0.047
Mof_C 	C 	0.64432	0.0986	0.22296	-0.429
Mof_C 	C 	0.98384	0.53684	0.09662	0.292
Mof_C 	C 	0.01262	0.54474	0.1119	-0.058
Mof_C 	C 	0.05909	0.54407	0.08323	-0.047
Mof_C 	C 	0.08571	0.54923	0.09925	0.008
Mof_C 	C 	0.06744	0.5539	0.1439	0.013
Mof_C 	C 	0.02025	0.55589	0.17181	-0.078
Mof_C 	C 	0.99324	0.55174	0.15542	-0.009
Mof_C 	C 	0.13598	0.55098	0.07214	-0.049
Mof_C 	C 	0.14551	0.55575	0.10841	0.012
Mof_C 	C 	0.1056	0.55612	0.1509	-0.036
Mof_C 	C 	0.16936	0.50334	0.0621	0.037
Mof_C 	C 	0.17208	0.45924	0.10606	-0.401
Mof_C 	C 	0.13316	0.59768	0.02562	0.047
Mof_C 	C 	0.0986	0.64432	0.03412	-0.429
Mof_C 	C 	0.09662	0.3827	0.98384	0.292
Mof_C 	C 	0.1119	0.33074	0.01262	-0.057
Mof_C 	C 	0.08323	0.31361	0.05909	-0.047
Mof_C 	C 	0.09925	0.26581	0.08571	0.008
Mof_C 	C 	0.1439	0.23476	0.06744	0.012
Mof_C 	C 	0.17181	0.25205	0.02025	-0.078
Mof_C 	C 	0.15542	0.2996	0.99324	-0.01
Mof_C 	C 	0.07214	0.2409	0.13598	-0.049
Mof_C 	C 	0.10841	0.19033	0.14551	0.012
Mof_C 	C 	0.1509	0.18738	0.1056	-0.036
Mof_C 	C 	0.0621	0.2652	0.16936	0.037
Mof_C 	C 	0.10606	0.26262	0.17208	-0.401
Mof_C 	C 	0.02562	0.24354	0.13316	0.047
Mof_C 	C 	0.03412	0.22296	0.0986	-0.43
Mof_C 	C 	0.3827	0.09662	0.53684	0.293
Mof_C 	C 	0.33074	0.1119	0.54474	-0.059
Mof_C 	C 	0.31361	0.08323	0.54407	-0.046
Mof_C 	C 	0.26581	0.09925	0.54923	0.007
Mof_C 	C 	0.23476	0.1439	0.5539	0.013
Mof_C 	C 	0.25205	0.17181	0.55589	-0.079
Mof_C 	C 	0.2996	0.15542	0.55174	-0.008
Mof_C 	C 	0.2409	0.07214	0.55098	-0.049
Mof_C 	C 	0.19033	0.10841	0.55575	0.012
Mof_C 	C 	0.18738	0.1509	0.55612	-0.037
Mof_C 	C 	0.2652	0.0621	0.50334	0.037
Mof_C 	C 	0.26262	0.10606	0.45924	-0.401
Mof_C 	C 	0.24354	0.02562	0.59768	0.047
Mof_C 	C 	0.22296	0.03412	0.64432	-0.429
Mof_C 	C 	0.3827	0.98384	0.09662	0.292
Mof_C 	C 	0.33074	0.01262	0.1119	-0.057
Mof_C 	C 	0.31361	0.05909	0.08323	-0.047
Mof_C 	C 	0.26581	0.08571	0.09925	0.008
Mof_C 	C 	0.23476	0.06744	0.1439	0.012
Mof_C 	C 	0.25205	0.02025	0.17181	-0.078
Mof_C 	C 	0.2996	0.99324	0.15542	-0.01
Mof_C 	C 	0.2409	0.13598	0.07214	-0.049
Mof_C 	C 	0.19033	0.14551	0.10841	0.012
Mof_C 	C 	0.18738	0.1056	0.1509	-0.036
Mof_C 	C 	0.2652	0.16936	0.0621	0.037
Mof_C 	C 	0.26262	0.17208	0.10606	-0.401
Mof_C 	C 	0.24354	0.13316	0.02562	0.047
Mof_C 	C 	0.22296	0.0986	0.03412	-0.43
Mof_C 	C 	0.09662	0.53684	0.3827	0.293
Mof_C 	C 	0.1119	0.54474	0.33074	-0.059
Mof_C 	C 	0.08323	0.54407	0.31361	-0.046
Mof_C 	C 	0.09925	0.54923	0.26581	0.007
Mof_C 	C 	0.1439	0.5539	0.23476	0.013
Mof_C 	C 	0.17181	0.55589	0.25205	-0.079
Mof_C 	C 	0.15542	0.55174	0.2996	-0.008
Mof_C 	C 	0.07214	0.55098	0.2409	-0.049
Mof_C 	C 	0.10841	0.55575	0.19033	0.012
Mof_C 	C 	0.1509	0.55612	0.18738	-0.037
Mof_C 	C 	0.0621	0.50334	0.2652	0.037
Mof_C 	C 	0.10606	0.45924	0.26262	-0.401
Mof_C 	C 	0.02562	0.59768	0.24354	0.047
Mof_C 	C 	0.03412	0.64432	0.22296	-0.429
Mof_C 	C 	0.98384	0.3827	0.53684	0.293
Mof_C 	C 	0.01262	0.33074	0.54474	-0.059
Mof_C 	C 	0.05909	0.31361	0.54407	-0.047
Mof_C 	C 	0.08571	0.26581	0.54923	0.007
Mof_C 	C 	0.06744	0.23476	0.5539	0.013
Mof_C 	C 	0.02025	0.25205	0.55589	-0.079
Mof_C 	C 	0.99324	0.2996	0.55174	-0.008
Mof_C 	C 	0.13598	0.2409	0.55098	-0.049
Mof_C 	C 	0.14551	0.19033	0.55575	0.012
Mof_C 	C 	0.1056	0.18738	0.55612	-0.037
Mof_C 	C 	0.16936	0.2652	0.50334	0.037
Mof_C 	C 	0.17208	0.26262	0.45924	-0.401
Mof_C 	C 	0.13316	0.24354	0.59768	0.047
Mof_C 	C 	0.0986	0.22296	0.64432	-0.429
Mof_C 	C 	0.53684	0.09662	0.98384	0.292
Mof_C 	C 	0.54474	0.1119	0.01262	-0.058
Mof_C 	C 	0.54407	0.08323	0.05909	-0.047
Mof_C 	C 	0.54923	0.09925	0.08571	0.008
Mof_C 	C 	0.5539	0.1439	0.06744	0.013
Mof_C 	C 	0.55589	0.17181	0.02025	-0.078
Mof_C 	C 	0.55174	0.15542	0.99324	-0.009
Mof_C 	C 	0.55098	0.07214	0.13598	-0.049
Mof_C 	C 	0.55575	0.10841	0.14551	0.012
Mof_C 	C 	0.55612	0.1509	0.1056	-0.036
Mof_C 	C 	0.50334	0.0621	0.16936	0.037
Mof_C 	C 	0.45924	0.10606	0.17208	-0.401
Mof_C 	C 	0.59768	0.02562	0.13316	0.047
Mof_C 	C 	0.64432	0.03412	0.0986	-0.429
Mof_C 	C 	0.09662	0.98384	0.53684	0.292
Mof_C 	C 	0.1119	0.01262	0.54474	-0.058
Mof_C 	C 	0.08323	0.05909	0.54407	-0.047
Mof_C 	C 	0.09925	0.08571	0.54923	0.008
Mof_C 	C 	0.1439	0.06744	0.5539	0.013
Mof_C 	C 	0.17181	0.02025	0.55589	-0.078
Mof_C 	C 	0.15542	0.99324	0.55174	-0.009
Mof_C 	C 	0.07214	0.13598	0.55098	-0.049
Mof_C 	C 	0.10841	0.14551	0.55575	0.012
Mof_C 	C 	0.1509	0.1056	0.55612	-0.036
Mof_C 	C 	0.0621	0.16936	0.50334	0.037
Mof_C 	C 	0.10606	0.17208	0.45924	-0.401
Mof_C 	C 	0.02562	0.13316	0.59768	0.047
Mof_C 	C 	0.03412	0.0986	0.64432	-0.429
Mof_C 	C 	0.3827	0.53684	0.98384	0.293
Mof_C 	C 	0.33074	0.54474	0.01262	-0.059
Mof_C 	C 	0.31361	0.54407	0.05909	-0.047
Mof_C 	C 	0.26581	0.54923	0.08571	0.007
Mof_C 	C 	0.23476	0.5539	0.06744	0.013
Mof_C 	C 	0.25205	0.55589	0.02025	-0.079
Mof_C 	C 	0.2996	0.55174	0.99324	-0.008
Mof_C 	C 	0.2409	0.55098	0.13598	-0.049
Mof_C 	C 	0.19033	0.55575	0.14551	0.012
Mof_C 	C 	0.18738	0.55612	0.1056	-0.037
Mof_C 	C 	0.2652	0.50334	0.16936	0.037
Mof_C 	C 	0.26262	0.45924	0.17208	-0.401
Mof_C 	C 	0.24354	0.59768	0.13316	0.047
Mof_C 	C 	0.22296	0.64432	0.0986	-0.429
Mof_C 	C 	0.53684	0.3827	0.09662	0.293
Mof_C 	C 	0.54474	0.33074	0.1119	-0.059
Mof_C 	C 	0.54407	0.31361	0.08323	-0.046
Mof_C 	C 	0.54923	0.26581	0.09925	0.007
Mof_C 	C 	0.5539	0.23476	0.1439	0.013
Mof_C 	C 	0.55589	0.25205	0.17181	-0.079
Mof_C 	C 	0.55174	0.2996	0.15542	-0.008
Mof_C 	C 	0.55098	0.2409	0.07214	-0.049
Mof_C 	C 	0.55575	0.19033	0.10841	0.012
Mof_C 	C 	0.55612	0.18738	0.1509	-0.037
Mof_C 	C 	0.50334	0.2652	0.0621	0.037
Mof_C 	C 	0.45924	0.26262	0.10606	-0.401
Mof_C 	C 	0.59768	0.24354	0.02562	0.047
Mof_C 	C 	0.64432	0.22296	0.03412	-0.429
Mof_C 	C 	0.98384	0.09662	0.3827	0.292
Mof_C 	C 	0.01262	0.1119	0.33074	-0.057
Mof_C 	C 	0.05909	0.08323	0.31361	-0.047
Mof_C 	C 	0.08571	0.09925	0.26581	0.008
Mof_C 	C 	0.06744	0.1439	0.23476	0.012
Mof_C 	C 	0.02025	0.17181	0.25205	-0.078
Mof_C 	C 	0.99324	0.15542	0.2996	-0.01
Mof_C 	C 	0.13598	0.07214	0.2409	-0.049
Mof_C 	C 	0.14551	0.10841	0.19033	0.012
Mof_C 	C 	0.1056	0.1509	0.18738	-0.036
Mof_C 	C 	0.16936	0.0621	0.2652	0.037
Mof_C 	C 	0.17208	0.10606	0.26262	-0.401
Mof_C 	C 	0.13316	0.02562	0.24354	0.047
Mof_C 	C 	0.0986	0.03412	0.22296	-0.43
Mof_C 	C 	0.48384	0.03684	0.8827	0.293
Mof_C 	C 	0.51262	0.04474	0.83074	-0.059
Mof_C 	C 	0.55909	0.04407	0.81361	-0.046
Mof_C 	C 	0.58571	0.04923	0.76581	0.007
Mof_C 	C 	0.56744	0.0539	0.73476	0.013
Mof_C 	C 	0.52025	0.05589	0.75205	-0.079
Mof_C 	C 	0.49324	0.05174	0.7996	-0.008
Mof_C 	C 	0.63598	0.05098	0.7409	-0.048
Mof_C 	C 	0.64551	0.05575	0.69033	0.012
Mof_C 	C 	0.6056	0.05612	0.68738	-0.037
Mof_C 	C 	0.66936	0.00334	0.7652	0.036
Mof_C 	C 	0.67208	0.95924	0.76262	-0.399
Mof_C 	C 	0.63316	0.09768	0.74354	0.047
Mof_C 	C 	0.5986	0.14432	0.72296	-0.429
Mof_C 	C 	0.03684	0.48384	0.59662	0.293
Mof_C 	C 	0.04474	0.51262	0.6119	-0.059
Mof_C 	C 	0.04407	0.55909	0.58323	-0.046
Mof_C 	C 	0.04923	0.58571	0.59925	0.007
Mof_C 	C 	0.0539	0.56744	0.6439	0.013
Mof_C 	C 	0.05589	0.52025	0.67181	-0.079
Mof_C 	C 	0.05174	0.49324	0.65542	-0.008
Mof_C 	C 	0.05098	0.63598	0.57214	-0.048
Mof_C 	C 	0.05575	0.64551	0.60841	0.012
Mof_C 	C 	0.05612	0.6056	0.6509	-0.037
Mof_C 	C 	0.00334	0.66936	0.5621	0.036
Mof_C 	C 	0.95924	0.67208	0.60606	-0.4
Mof_C 	C 	0.09768	0.63316	0.52562	0.047
Mof_C 	C 	0.14432	0.5986	0.53412	-0.429
Mof_C 	C 	0.8827	0.59662	0.48384	0.293
Mof_C 	C 	0.83074	0.6119	0.51262	-0.059
Mof_C 	C 	0.81361	0.58323	0.55909	-0.046
Mof_C 	C 	0.76581	0.59925	0.58571	0.007
Mof_C 	C 	0.73476	0.6439	0.56744	0.013
Mof_C 	C 	0.75205	0.67181	0.52025	-0.079
Mof_C 	C 	0.7996	0.65542	0.49324	-0.008
Mof_C 	C 	0.7409	0.57214	0.63598	-0.049
Mof_C 	C 	0.69033	0.60841	0.64551	0.012
Mof_C 	C 	0.68738	0.6509	0.6056	-0.037
Mof_C 	C 	0.7652	0.5621	0.66936	0.037
Mof_C 	C 	0.76262	0.60606	0.67208	-0.401
Mof_C 	C 	0.74354	0.52562	0.63316	0.047
Mof_C 	C 	0.72296	0.53412	0.5986	-0.429
Mof_C 	C 	0.59662	0.8827	0.03684	0.293
Mof_C 	C 	0.6119	0.83074	0.04474	-0.059
Mof_C 	C 	0.58323	0.81361	0.04407	-0.046
Mof_C 	C 	0.59925	0.76581	0.04923	0.007
Mof_C 	C 	0.6439	0.73476	0.0539	0.013
Mof_C 	C 	0.67181	0.75205	0.05589	-0.079
Mof_C 	C 	0.65542	0.7996	0.05174	-0.008
Mof_C 	C 	0.57214	0.7409	0.05098	-0.048
Mof_C 	C 	0.60841	0.69033	0.05575	0.012
Mof_C 	C 	0.6509	0.68738	0.05612	-0.037
Mof_C 	C 	0.5621	0.7652	0.00334	0.036
Mof_C 	C 	0.60606	0.76262	0.95924	-0.4
Mof_C 	C 	0.52562	0.74354	0.09768	0.047
Mof_C 	C 	0.53412	0.72296	0.14432	-0.429
Mof_C 	C 	0.48384	0.8827	0.59662	0.293
Mof_C 	C 	0.51262	0.83074	0.6119	-0.059
Mof_C 	C 	0.55909	0.81361	0.58323	-0.046
Mof_C 	C 	0.58571	0.76581	0.59925	0.007
Mof_C 	C 	0.56744	0.73476	0.6439	0.013
Mof_C 	C 	0.52025	0.75205	0.67181	-0.079
Mof_C 	C 	0.49324	0.7996	0.65542	-0.008
Mof_C 	C 	0.63598	0.7409	0.57214	-0.049
Mof_C 	C 	0.64551	0.69033	0.60841	0.012
Mof_C 	C 	0.6056	0.68738	0.6509	-0.037
Mof_C 	C 	0.66936	0.7652	0.5621	0.037
Mof_C 	C 	0.67208	0.76262	0.60606	-0.401
Mof_C 	C 	0.63316	0.74354	0.52562	0.047
Mof_C 	C 	0.5986	0.72296	0.53412	-0.429
Mof_C 	C 	0.03684	0.59662	0.8827	0.293
Mof_C 	C 	0.04474	0.6119	0.83074	-0.059
Mof_C 	C 	0.04407	0.58323	0.81361	-0.046
Mof_C 	C 	0.04923	0.59925	0.76581	0.007
Mof_C 	C 	0.0539	0.6439	0.73476	0.013
Mof_C 	C 	0.05589	0.67181	0.75205	-0.079
Mof_C 	C 	0.05174	0.65542	0.7996	-0.008
Mof_C 	C 	0.05098	0.57214	0.7409	-0.048
Mof_C 	C 	0.05575	0.60841	0.69033	0.012
Mof_C 	C 	0.05612	0.6509	0.68738	-0.037
Mof_C 	C 	0.00334	0.5621	0.7652	0.036
Mof_C 	C 	0.95924	0.60606	0.76262	-0.4
Mof_C 	C 	0.09768	0.52562	0.74354	0.047
Mof_C 	C 	0.14432	0.53412	0.72296	-0.429
Mof_C 	C 	0.8827	0.48384	0.03684	0.293
Mof_C 	C 	0.83074	0.51262	0.04474	-0.059
Mof_C 	C 	0.81361	0.55909	0.04407	-0.046
Mof_C 	C 	0.76581	0.58571	0.04923	0.007
Mof_C 	C 	0.73476	0.56744	0.0539	0.013
Mof_C 	C 	0.75205	0.52025	0.05589	-0.079
Mof_C 	C 	0.7996	0.49324	0.05174	-0.008
Mof_C 	C 	0.7409	0.63598	0.05098	-0.048
Mof_C 	C 	0.69033	0.64551	0.05575	0.012
Mof_C 	C 	0.68738	0.6056	0.05612	-0.037
Mof_C 	C 	0.7652	0.66936	0.00334	0.036
Mof_C 	C 	0.76262	0.67208	0.95924	-0.399
Mof_C 	C 	0.74354	0.63316	0.09768	0.047
Mof_C 	C 	0.72296	0.5986	0.14432	-0.429
Mof_C 	C 	0.59662	0.03684	0.48384	0.293
Mof_C 	C 	0.6119	0.04474	0.51262	-0.059
Mof_C 	C 	0.58323	0.04407	0.55909	-0.046
Mof_C 	C 	0.59925	0.04923	0.58571	0.007
Mof_C 	C 	0.6439	0.0539	0.56744	0.013
Mof_C 	C 	0.67181	0.05589	0.52025	-0.079
Mof_C 	C 	0.65542	0.05174	0.49324	-0.008
Mof_C 	C 	0.57214	0.05098	0.63598	-0.048
Mof_C 	C 	0.60841	0.05575	0.64551	0.012
Mof_C 	C 	0.6509	0.05612	0.6056	-0.037
Mof_C 	C 	0.5621	0.00334	0.66936	0.036
Mof_C 	C 	0.60606	0.95924	0.67208	-0.4
Mof_C 	C 	0.52562	0.09768	0.63316	0.047
Mof_C 	C 	0.53412	0.14432	0.5986	-0.429
Mof_C 	C 	0.48384	0.59662	0.03684	0.293
Mof_C 	C 	0.51262	0.6119	0.04474	-0.059
Mof_C 	C 	0.55909	0.58323	0.04407	-0.046
Mof_C 	C 	0.58571	0.59925	0.04923	0.007
Mof_C 	C 	0.56744	0.6439	0.0539	0.013
Mof_C 	C 	0.52025	0.67181	0.05589	-0.079
Mof_C 	C 	0.49324	0.65542	0.05174	-0.008
Mof_C 	C 	0.63598	0.57214	0.05098	-0.048
Mof_C 	C 	0.64551	0.60841	0.05575	0.012
Mof_C 	C 	0.6056	0.6509	0.05612	-0.037
Mof_C 	C 	0.66936	0.5621	0.00334	0.036
Mof_C 	C 	0.67208	0.60606	0.95924	-0.4
Mof_C 	C 	0.63316	0.52562	0.09768	0.047
Mof_C 	C 	0.5986	0.53412	0.14432	-0.429
Mof_C 	C 	0.03684	0.8827	0.48384	0.293
Mof_C 	C 	0.04474	0.83074	0.51262	-0.059
Mof_C 	C 	0.04407	0.81361	0.55909	-0.046
Mof_C 	C 	0.04923	0.76581	0.58571	0.007
Mof_C 	C 	0.0539	0.73476	0.56744	0.013
Mof_C 	C 	0.05589	0.75205	0.52025	-0.079
Mof_C 	C 	0.05174	0.7996	0.49324	-0.008
Mof_C 	C 	0.05098	0.7409	0.63598	-0.048
Mof_C 	C 	0.05575	0.69033	0.64551	0.012
Mof_C 	C 	0.05612	0.68738	0.6056	-0.037
Mof_C 	C 	0.00334	0.7652	0.66936	0.036
Mof_C 	C 	0.95924	0.76262	0.67208	-0.399
Mof_C 	C 	0.09768	0.74354	0.63316	0.047
Mof_C 	C 	0.14432	0.72296	0.5986	-0.429
Mof_C 	C 	0.8827	0.03684	0.59662	0.293
Mof_C 	C 	0.83074	0.04474	0.6119	-0.059
Mof_C 	C 	0.81361	0.04407	0.58323	-0.046
Mof_C 	C 	0.76581	0.04923	0.59925	0.007
Mof_C 	C 	0.73476	0.0539	0.6439	0.013
Mof_C 	C 	0.75205	0.05589	0.67181	-0.079
Mof_C 	C 	0.7996	0.05174	0.65542	-0.008
Mof_C 	C 	0.7409	0.05098	0.57214	-0.048
Mof_C 	C 	0.69033	0.05575	0.60841	0.012
Mof_C 	C 	0.68738	0.05612	0.6509	-0.037
Mof_C 	C 	0.7652	0.00334	0.5621	0.036
Mof_C 	C 	0.76262	0.95924	0.60606	-0.4
Mof_C 	C 	0.74354	0.09768	0.52562	0.047
Mof_C 	C 	0.72296	0.14432	0.53412	-0.429
Mof_C 	C 	0.59662	0.48384	0.8827	0.293
Mof_C 	C 	0.6119	0.51262	0.83074	-0.059
Mof_C 	C 	0.58323	0.55909	0.81361	-0.046
Mof_C 	C 	0.59925	0.58571	0.76581	0.007
Mof_C 	C 	0.6439	0.56744	0.73476	0.013
Mof_C 	C 	0.67181	0.52025	0.75205	-0.079
Mof_C 	C 	0.65542	0.49324	0.7996	-0.008
Mof_C 	C 	0.57214	0.63598	0.7409	-0.049
Mof_C 	C 	0.60841	0.64551	0.69033	0.012
Mof_C 	C 	0.6509	0.6056	0.68738	-0.037
Mof_C 	C 	0.5621	0.66936	0.7652	0.037
Mof_C 	C 	0.60606	0.67208	0.76262	-0.401
Mof_C 	C 	0.52562	0.63316	0.74354	0.047
Mof_C 	C 	0.53412	0.5986	0.72296	-0.429
Mof_C 	C 	0.46316	0.01616	0.6173	0.293
Mof_C 	C 	0.45526	0.98738	0.66926	-0.059
Mof_C 	C 	0.45593	0.94091	0.68639	-0.047
Mof_C 	C 	0.45077	0.91429	0.73419	0.007
Mof_C 	C 	0.4461	0.93256	0.76524	0.013
Mof_C 	C 	0.44411	0.97975	0.74795	-0.079
Mof_C 	C 	0.44826	0.00676	0.7004	-0.008
Mof_C 	C 	0.44902	0.86402	0.7591	-0.049
Mof_C 	C 	0.44425	0.85449	0.80967	0.012
Mof_C 	C 	0.44388	0.8944	0.81262	-0.037
Mof_C 	C 	0.49666	0.83064	0.7348	0.037
Mof_C 	C 	0.54076	0.82792	0.73738	-0.401
Mof_C 	C 	0.40232	0.86684	0.75646	0.047
Mof_C 	C 	0.35568	0.9014	0.77704	-0.429
Mof_C 	C 	0.01616	0.46316	0.90338	0.292
Mof_C 	C 	0.98738	0.45526	0.8881	-0.058
Mof_C 	C 	0.94091	0.45593	0.91677	-0.047
Mof_C 	C 	0.91429	0.45077	0.90075	0.008
Mof_C 	C 	0.93256	0.4461	0.8561	0.013
Mof_C 	C 	0.97975	0.44411	0.82819	-0.078
Mof_C 	C 	0.00676	0.44826	0.84458	-0.009
Mof_C 	C 	0.86402	0.44902	0.92786	-0.049
Mof_C 	C 	0.85449	0.44425	0.89159	0.012
Mof_C 	C 	0.8944	0.44388	0.8491	-0.036
Mof_C 	C 	0.83064	0.49666	0.9379	0.037
Mof_C 	C 	0.82792	0.54076	0.89394	-0.401
Mof_C 	C 	0.86684	0.40232	0.97438	0.047
Mof_C 	C 	0.9014	0.35568	0.96588	-0.429
Mof_C 	C 	0.90338	0.6173	0.01616	0.292
Mof_C 	C 	0.8881	0.66926	0.98738	-0.057
Mof_C 	C 	0.91677	0.68639	0.94091	-0.047
Mof_C 	C 	0.90075	0.73419	0.91429	0.008
Mof_C 	C 	0.8561	0.76524	0.93256	0.012
Mof_C 	C 	0.82819	0.74795	0.97975	-0.078
Mof_C 	C 	0.84458	0.7004	0.00676	-0.01
Mof_C 	C 	0.92786	0.7591	0.86402	-0.049
Mof_C 	C 	0.89159	0.80967	0.85449	0.012
Mof_C 	C 	0.8491	0.81262	0.8944	-0.036
Mof_C 	C 	0.9379	0.7348	0.83064	0.037
Mof_C 	C 	0.89394	0.73738	0.82792	-0.401
Mof_C 	C 	0.97438	0.75646	0.86684	0.047
Mof_C 	C 	0.96588	0.77704	0.9014	-0.43
Mof_C 	C 	0.6173	0.90338	0.46316	0.293
Mof_C 	C 	0.66926	0.8881	0.45526	-0.059
Mof_C 	C 	0.68639	0.91677	0.45593	-0.046
Mof_C 	C 	0.73419	0.90075	0.45077	0.007
Mof_C 	C 	0.76524	0.8561	0.4461	0.013
Mof_C 	C 	0.74795	0.82819	0.44411	-0.079
Mof_C 	C 	0.7004	0.84458	0.44826	-0.008
Mof_C 	C 	0.7591	0.92786	0.44902	-0.049
Mof_C 	C 	0.80967	0.89159	0.44425	0.012
Mof_C 	C 	0.81262	0.8491	0.44388	-0.037
Mof_C 	C 	0.7348	0.9379	0.49666	0.037
Mof_C 	C 	0.73738	0.89394	0.54076	-0.401
Mof_C 	C 	0.75646	0.97438	0.40232	0.047
Mof_C 	C 	0.77704	0.96588	0.35568	-0.429
Mof_C 	C 	0.6173	0.01616	0.90338	0.292
Mof_C 	C 	0.66926	0.98738	0.8881	-0.057
Mof_C 	C 	0.68639	0.94091	0.91677	-0.047
Mof_C 	C 	0.73419	0.91429	0.90075	0.008
Mof_C 	C 	0.76524	0.93256	0.8561	0.012
Mof_C 	C 	0.74795	0.97975	0.82819	-0.078
Mof_C 	C 	0.7004	0.00676	0.84458	-0.01
Mof_C 	C 	0.7591	0.86402	0.92786	-0.049
Mof_C 	C 	0.80967	0.85449	0.89159	0.012
Mof_C 	C 	0.81262	0.8944	0.8491	-0.036
Mof_C 	C 	0.7348	0.83064	0.9379	0.037
Mof_C 	C 	0.73738	0.82792	0.89394	-0.401
Mof_C 	C 	0.75646	0.86684	0.97438	0.047
Mof_C 	C 	0.77704	0.9014	0.96588	-0.43
Mof_C 	C 	0.90338	0.46316	0.6173	0.293
Mof_C 	C 	0.8881	0.45526	0.66926	-0.059
Mof_C 	C 	0.91677	0.45593	0.68639	-0.046
Mof_C 	C 	0.90075	0.45077	0.73419	0.007
Mof_C 	C 	0.8561	0.4461	0.76524	0.013
Mof_C 	C 	0.82819	0.44411	0.74795	-0.079
Mof_C 	C 	0.84458	0.44826	0.7004	-0.008
Mof_C 	C 	0.92786	0.44902	0.7591	-0.049
Mof_C 	C 	0.89159	0.44425	0.80967	0.012
Mof_C 	C 	0.8491	0.44388	0.81262	-0.037
Mof_C 	C 	0.9379	0.49666	0.7348	0.037
Mof_C 	C 	0.89394	0.54076	0.73738	-0.401
Mof_C 	C 	0.97438	0.40232	0.75646	0.047
Mof_C 	C 	0.96588	0.35568	0.77704	-0.429
Mof_C 	C 	0.01616	0.6173	0.46316	0.293
Mof_C 	C 	0.98738	0.66926	0.45526	-0.059
Mof_C 	C 	0.94091	0.68639	0.45593	-0.047
Mof_C 	C 	0.91429	0.73419	0.45077	0.007
Mof_C 	C 	0.93256	0.76524	0.4461	0.013
Mof_C 	C 	0.97975	0.74795	0.44411	-0.079
Mof_C 	C 	0.00676	0.7004	0.44826	-0.008
Mof_C 	C 	0.86402	0.7591	0.44902	-0.049
Mof_C 	C 	0.85449	0.80967	0.44425	0.012
Mof_C 	C 	0.8944	0.81262	0.44388	-0.037
Mof_C 	C 	0.83064	0.7348	0.49666	0.037
Mof_C 	C 	0.82792	0.73738	0.54076	-0.401
Mof_C 	C 	0.86684	0.75646	0.40232	0.047
Mof_C 	C 	0.9014	0.77704	0.35568	-0.429
Mof_C 	C 	0.46316	0.90338	0.01616	0.292
Mof_C 	C 	0.45526	0.8881	0.98738	-0.058
Mof_C 	C 	0.45593	0.91677	0.94091	-0.047
Mof_C 	C 	0.45077	0.90075	0.91429	0.008
Mof_C 	C 	0.4461	0.8561	0.93256	0.013
Mof_C 	C 	0.44411	0.82819	0.97975	-0.078
Mof_C 	C 	0.44826	0.84458	0.00676	-0.009
Mof_C 	C 	0.44902	0.92786	0.86402	-0.049
Mof_C 	C 	0.44425	0.89159	0.85449	0.012
Mof_C 	C 	0.44388	0.8491	0.8944	-0.036
Mof_C 	C 	0.49666	0.9379	0.83064	0.037
Mof_C 	C 	0.54076	0.89394	0.82792	-0.401
Mof_C 	C 	0.40232	0.97438	0.86684	0.047
Mof_C 	C 	0.35568	0.96588	0.9014	-0.429
Mof_C 	C 	0.90338	0.01616	0.46316	0.292
Mof_C 	C 	0.8881	0.98738	0.45526	-0.058
Mof_C 	C 	0.91677	0.94091	0.45593	-0.047
Mof_C 	C 	0.90075	0.91429	0.45077	0.008
Mof_C 	C 	0.8561	0.93256	0.4461	0.013
Mof_C 	C 	0.82819	0.97975	0.44411	-0.078
Mof_C 	C 	0.84458	0.00676	0.44826	-0.009
Mof_C 	C 	0.92786	0.86402	0.44902	-0.049
Mof_C 	C 	0.89159	0.85449	0.44425	0.012
Mof_C 	C 	0.8491	0.8944	0.44388	-0.036
Mof_C 	C 	0.9379	0.83064	0.49666	0.037
Mof_C 	C 	0.89394	0.82792	0.54076	-0.401
Mof_C 	C 	0.97438	0.86684	0.40232	0.047
Mof_C 	C 	0.96588	0.9014	0.35568	-0.429
Mof_C 	C 	0.6173	0.46316	0.01616	0.293
Mof_C 	C 	0.66926	0.45526	0.98738	-0.059
Mof_C 	C 	0.68639	0.45593	0.94091	-0.047
Mof_C 	C 	0.73419	0.45077	0.91429	0.007
Mof_C 	C 	0.76524	0.4461	0.93256	0.013
Mof_C 	C 	0.74795	0.44411	0.97975	-0.079
Mof_C 	C 	0.7004	0.44826	0.00676	-0.008
Mof_C 	C 	0.7591	0.44902	0.86402	-0.049
Mof_C 	C 	0.80967	0.44425	0.85449	0.012
Mof_C 	C 	0.81262	0.44388	0.8944	-0.037
Mof_C 	C 	0.7348	0.49666	0.83064	0.037
Mof_C 	C 	0.73738	0.54076	0.82792	-0.401
Mof_C 	C 	0.75646	0.40232	0.86684	0.047
Mof_C 	C 	0.77704	0.35568	0.9014	-0.429
Mof_C 	C 	0.46316	0.6173	0.90338	0.293
Mof_C 	C 	0.45526	0.66926	0.8881	-0.059
Mof_C 	C 	0.45593	0.68639	0.91677	-0.046
Mof_C 	C 	0.45077	0.73419	0.90075	0.007
Mof_C 	C 	0.4461	0.76524	0.8561	0.013
Mof_C 	C 	0.44411	0.74795	0.82819	-0.079
Mof_C 	C 	0.44826	0.7004	0.84458	-0.008
Mof_C 	C 	0.44902	0.7591	0.92786	-0.049
Mof_C 	C 	0.44425	0.80967	0.89159	0.012
Mof_C 	C 	0.44388	0.81262	0.8491	-0.037
Mof_C 	C 	0.49666	0.7348	0.9379	0.037
Mof_C 	C 	0.54076	0.73738	0.89394	-0.401
Mof_C 	C 	0.40232	0.75646	0.97438	0.047
Mof_C 	C 	0.35568	0.77704	0.96588	-0.429
Mof_C 	C 	0.01616	0.90338	0.6173	0.292
Mof_C 	C 	0.98738	0.8881	0.66926	-0.057
Mof_C 	C 	0.94091	0.91677	0.68639	-0.047
Mof_C 	C 	0.91429	0.90075	0.73419	0.008
Mof_C 	C 	0.93256	0.8561	0.76524	0.012
Mof_C 	C 	0.97975	0.82819	0.74795	-0.078
Mof_C 	C 	0.00676	0.84458	0.7004	-0.01
Mof_C 	C 	0.86402	0.92786	0.7591	-0.049
Mof_C 	C 	0.85449	0.89159	0.80967	0.012
Mof_C 	C 	0.8944	0.8491	0.81262	-0.036
Mof_C 	C 	0.83064	0.9379	0.7348	0.037
Mof_C 	C 	0.82792	0.89394	0.73738	-0.401
Mof_C 	C 	0.86684	0.97438	0.75646	0.047
Mof_C 	C 	0.9014	0.96588	0.77704	-0.43
Mof_O 	O 	0.55717	0.96507	0.10207	-0.27
Mof_O 	O 	0.49825	0.96971	0.08887	-0.281
Mof_O 	O 	0.96507	0.55717	0.37569	-0.27
Mof_O 	O 	0.96971	0.49825	0.44317	-0.281
Mof_O 	O 	0.10207	0.37569	0.55717	-0.27
Mof_O 	O 	0.08887	0.44317	0.49825	-0.281
Mof_O 	O 	0.37569	0.10207	0.96507	-0.27
Mof_O 	O 	0.44317	0.08887	0.96971	-0.281
Mof_O 	O 	0.55717	0.10207	0.37569	-0.27
Mof_O 	O 	0.49825	0.08887	0.44317	-0.281
Mof_O 	O 	0.96507	0.37569	0.10207	-0.27
Mof_O 	O 	0.96971	0.44317	0.08887	-0.281
Mof_O 	O 	0.10207	0.55717	0.96507	-0.27
Mof_O 	O 	0.08887	0.49825	0.96971	-0.281
Mof_O 	O 	0.37569	0.96507	0.55717	-0.27
Mof_O 	O 	0.44317	0.96971	0.49825	-0.281
Mof_O 	O 	0.55717	0.37569	0.96507	-0.27
Mof_O 	O 	0.49825	0.44317	0.96971	-0.281
Mof_O 	O 	0.96507	0.10207	0.55717	-0.27
Mof_O 	O 	0.96971	0.08887	0.49825	-0.281
Mof_O 	O 	0.10207	0.96507	0.37569	-0.27
Mof_O 	O 	0.08887	0.96971	0.44317	-0.281
Mof_O 	O 	0.37569	0.55717	0.10207	-0.27
Mof_O 	O 	0.44317	0.49825	0.08887	-0.281
Mof_O 	O 	0.53493	0.94283	0.39793	-0.27
Mof_O 	O 	0.53029	0.00175	0.41113	-0.281
Mof_O 	O 	0.94283	0.53493	0.12431	-0.27
Mof_O 	O 	0.00175	0.53029	0.05683	-0.28
Mof_O 	O 	0.12431	0.39793	0.94283	-0.269
Mof_O 	O 	0.05683	0.41113	0.00175	-0.28
Mof_O 	O 	0.39793	0.12431	0.53493	-0.27
Mof_O 	O 	0.41113	0.05683	0.53029	-0.281
Mof_O 	O 	0.39793	0.94283	0.12431	-0.269
Mof_O 	O 	0.41113	0.00175	0.05683	-0.28
Mof_O 	O 	0.12431	0.53493	0.39793	-0.27
Mof_O 	O 	0.05683	0.53029	0.41113	-0.281
Mof_O 	O 	0.94283	0.39793	0.53493	-0.27
Mof_O 	O 	0.00175	0.41113	0.53029	-0.281
Mof_O 	O 	0.53493	0.12431	0.94283	-0.27
Mof_O 	O 	0.53029	0.05683	0.00175	-0.28
Mof_O 	O 	0.12431	0.94283	0.53493	-0.27
Mof_O 	O 	0.05683	0.00175	0.53029	-0.28
Mof_O 	O 	0.39793	0.53493	0.94283	-0.27
Mof_O 	O 	0.41113	0.53029	0.00175	-0.281
Mof_O 	O 	0.53493	0.39793	0.12431	-0.27
Mof_O 	O 	0.53029	0.41113	0.05683	-0.281
Mof_O 	O 	0.94283	0.12431	0.39793	-0.269
Mof_O 	O 	0.00175	0.05683	0.41113	-0.28
Mof_O 	O 	0.44283	0.03493	0.89793	-0.27
Mof_O 	O 	0.50175	0.03029	0.91113	-0.281
Mof_O 	O 	0.03493	0.44283	0.62431	-0.27
Mof_O 	O 	0.03029	0.50175	0.55683	-0.281
Mof_O 	O 	0.89793	0.62431	0.44283	-0.27
Mof_O 	O 	0.91113	0.55683	0.50175	-0.281
Mof_O 	O 	0.62431	0.89793	0.03493	-0.27
Mof_O 	O 	0.55683	0.91113	0.03029	-0.281
Mof_O 	O 	0.44283	0.89793	0.62431	-0.27
Mof_O 	O 	0.50175	0.91113	0.55683	-0.281
Mof_O 	O 	0.03493	0.62431	0.89793	-0.27
Mof_O 	O 	0.03029	0.55683	0.91113	-0.281
Mof_O 	O 	0.89793	0.44283	0.03493	-0.27
Mof_O 	O 	0.91113	0.50175	0.03029	-0.281
Mof_O 	O 	0.62431	0.03493	0.44283	-0.27
Mof_O 	O 	0.55683	0.03029	0.50175	-0.281
Mof_O 	O 	0.44283	0.62431	0.03493	-0.27
Mof_O 	O 	0.50175	0.55683	0.03029	-0.281
Mof_O 	O 	0.03493	0.89793	0.44283	-0.27
Mof_O 	O 	0.03029	0.91113	0.50175	-0.281
Mof_O 	O 	0.89793	0.03493	0.62431	-0.27
Mof_O 	O 	0.91113	0.03029	0.55683	-0.281
Mof_O 	O 	0.62431	0.44283	0.89793	-0.27
Mof_O 	O 	0.55683	0.50175	0.91113	-0.281
Mof_O 	O 	0.46507	0.05717	0.60207	-0.27
Mof_O 	O 	0.46971	0.99825	0.58887	-0.281
Mof_O 	O 	0.05717	0.46507	0.87569	-0.27
Mof_O 	O 	0.99825	0.46971	0.94317	-0.28
Mof_O 	O 	0.87569	0.60207	0.05717	-0.269
Mof_O 	O 	0.94317	0.58887	0.99825	-0.28
Mof_O 	O 	0.60207	0.87569	0.46507	-0.27
Mof_O 	O 	0.58887	0.94317	0.46971	-0.281
Mof_O 	O 	0.60207	0.05717	0.87569	-0.269
Mof_O 	O 	0.58887	0.99825	0.94317	-0.28
Mof_O 	O 	0.87569	0.46507	0.60207	-0.27
Mof_O 	O 	0.94317	0.46971	0.58887	-0.281
Mof_O 	O 	0.05717	0.60207	0.46507	-0.27
Mof_O 	O 	0.99825	0.58887	0.46971	-0.281
Mof_O 	O 	0.46507	0.87569	0.05717	-0.27
Mof_O 	O 	0.46971	0.94317	0.99825	-0.28
Mof_O 	O 	0.87569	0.05717	0.46507	-0.27
Mof_O 	O 	0.94317	0.99825	0.46971	-0.28
Mof_O 	O 	0.60207	0.46507	0.05717	-0.27
Mof_O 	O 	0.58887	0.46971	0.99825	-0.281
Mof_O 	O 	0.46507	0.60207	0.87569	-0.27
Mof_O 	O 	0.46971	0.58887	0.94317	-0.281
Mof_O 	O 	0.05717	0.87569	0.60207	-0.269
Mof_O 	O 	0.99825	0.94317	0.58887	-0.28
Mof_O 	O 	0.63915	0.99569	0.00431	-0.173
Mof_O 	O 	0.99569	0.63915	0.36085	-0.173
Mof_O 	O 	0.00431	0.36085	0.63915	-0.173
Mof_O 	O 	0.36085	0.00431	0.99569	-0.173
Mof_O 	O 	0.63915	0.00431	0.36085	-0.173
Mof_O 	O 	0.99569	0.36085	0.00431	-0.173
Mof_O 	O 	0.00431	0.63915	0.99569	-0.173
Mof_O 	O 	0.36085	0.99569	0.63915	-0.173
Mof_O 	O 	0.63915	0.36085	0.99569	-0.173
Mof_O 	O 	0.99569	0.00431	0.63915	-0.173
Mof_O 	O 	0.00431	0.99569	0.36085	-0.173
Mof_O 	O 	0.36085	0.63915	0.00431	-0.173
Mof_O 	O 	0.50431	0.86085	0.49569	-0.173
Mof_O 	O 	0.86085	0.50431	0.13915	-0.173
Mof_O 	O 	0.13915	0.49569	0.86085	-0.173
Mof_O 	O 	0.49569	0.13915	0.50431	-0.173
Mof_O 	O 	0.49569	0.86085	0.13915	-0.173
Mof_O 	O 	0.13915	0.50431	0.49569	-0.173
Mof_O 	O 	0.86085	0.49569	0.50431	-0.173
Mof_O 	O 	0.50431	0.13915	0.86085	-0.173
Mof_O 	O 	0.13915	0.86085	0.50431	-0.173
Mof_O 	O 	0.49569	0.50431	0.86085	-0.173
Mof_O 	O 	0.50431	0.49569	0.13915	-0.173
Mof_O 	O 	0.86085	0.13915	0.49569	-0.173
_end
