data_functionalizedCrystal
_audit_creation_method	'EQeq! by Chris Wilmer'
_symmetry_space_group_name_H-M	'P1'
_symmetry_Int_Tables_number	1
_symmetry_cell_setting	triclinic
loop_
_symmetry_equiv_pos_as_xyz
  x,y,z
_cell_length_a	10.7471
_cell_length_b	10.7471
_cell_length_c	18.761
_cell_angle_alpha	73.8124
_cell_angle_beta	73.8124
_cell_angle_gamma	64.5024
loop_
_atom_site_label
_atom_site_type_symbol
_atom_site_fract_x
_atom_site_fract_y
_atom_site_fract_z
_atom_site_charge
Mof_Y 	Y 	0.56503	0.43719	0.39565	1.592
Mof_Y 	Y 	0.56281	0.43497	0.10435	1.591
Mof_Y 	Y 	0.43497	0.56281	0.60435	1.592
Mof_Y 	Y 	0.43719	0.56503	0.89565	1.591
Mof_H 	H 	0.2018	0.4566	0.4093	0.053
Mof_H 	H 	0.8976	0.5106	0.2699	0.044
Mof_H 	H 	0.9897	0.5677	0.609	0.045
Mof_H 	H 	0.7998	0.6164	0.0647	0.029
Mof_H 	H 	0.0171	0.6235	0.0113	0.04
Mof_H 	H 	0.1163	0.5149	0.2161	0.05
Mof_H 	H 	0.5434	0.7982	0.0907	0.052
Mof_H 	H 	0.4894	0.1024	0.2301	0.043
Mof_H 	H 	0.4323	0.0103	0.891	0.045
Mof_H 	H 	0.3836	0.2002	0.4353	0.03
Mof_H 	H 	0.3765	0.9829	0.4887	0.038
Mof_H 	H 	0.4851	0.8837	0.2839	0.05
Mof_H 	H 	0.7982	0.5434	0.5907	0.052
Mof_H 	H 	0.1024	0.4894	0.7301	0.043
Mof_H 	H 	0.0103	0.4323	0.391	0.045
Mof_H 	H 	0.2002	0.3836	0.9353	0.029
Mof_H 	H 	0.9829	0.3765	0.9887	0.04
Mof_H 	H 	0.8837	0.4851	0.7839	0.05
Mof_H 	H 	0.4566	0.2018	0.9093	0.052
Mof_H 	H 	0.5106	0.8976	0.7699	0.043
Mof_H 	H 	0.5677	0.9897	0.109	0.045
Mof_H 	H 	0.6164	0.7998	0.5647	0.03
Mof_H 	H 	0.6235	0.0171	0.5113	0.038
Mof_H 	H 	0.5149	0.1163	0.7161	0.05
Mof_C 	C 	0.6891	0.5433	0.2069	0.449
Mof_C 	C 	0.1158	0.5148	0.5112	-0.104
Mof_C 	C 	0.0912	0.5658	0.107	-0.104
Mof_C 	C 	0.2384	0.554	0.0711	0.444
Mof_C 	C 	0.8272	0.5596	0.1728	-0.128
Mof_C 	C 	0.2406	0.529	0.5233	0.424
Mof_C 	C 	0.1206	0.4742	0.4459	-0.016
Mof_C 	C 	0.9223	0.5315	0.2177	-0.002
Mof_C 	C 	0.9943	0.5405	0.5651	-0.008
Mof_C 	C 	0.8638	0.595	0.0953	-0.002
Mof_C 	C 	0.9942	0.5984	0.0634	-0.018
Mof_C 	C 	0.0529	0.5341	0.1855	-0.017
Mof_C 	C 	0.4567	0.3109	0.2931	0.448
Mof_C 	C 	0.4852	0.8842	0.9888	-0.106
Mof_C 	C 	0.4342	0.9088	0.393	-0.107
Mof_C 	C 	0.446	0.7616	0.4289	0.445
Mof_C 	C 	0.4404	0.1728	0.3272	-0.127
Mof_C 	C 	0.471	0.7594	0.9767	0.424
Mof_C 	C 	0.5258	0.8794	0.0541	-0.016
Mof_C 	C 	0.4685	0.0777	0.2823	-0.004
Mof_C 	C 	0.4595	0.0057	0.9349	-0.007
Mof_C 	C 	0.405	0.1362	0.4047	-0.004
Mof_C 	C 	0.4016	0.0058	0.4366	-0.014
Mof_C 	C 	0.4659	0.9471	0.3145	-0.016
Mof_C 	C 	0.3109	0.4567	0.7931	0.449
Mof_C 	C 	0.8842	0.4852	0.4888	-0.104
Mof_C 	C 	0.9088	0.4342	0.893	-0.104
Mof_C 	C 	0.7616	0.446	0.9289	0.444
Mof_C 	C 	0.1728	0.4404	0.8272	-0.128
Mof_C 	C 	0.7594	0.471	0.4767	0.424
Mof_C 	C 	0.8794	0.5258	0.5541	-0.016
Mof_C 	C 	0.0777	0.4685	0.7823	-0.002
Mof_C 	C 	0.0057	0.4595	0.4349	-0.008
Mof_C 	C 	0.1362	0.405	0.9047	-0.002
Mof_C 	C 	0.0058	0.4016	0.9366	-0.018
Mof_C 	C 	0.9471	0.4659	0.8145	-0.017
Mof_C 	C 	0.5433	0.6891	0.7069	0.448
Mof_C 	C 	0.5148	0.1158	0.0112	-0.106
Mof_C 	C 	0.5658	0.0912	0.607	-0.107
Mof_C 	C 	0.554	0.2384	0.5711	0.445
Mof_C 	C 	0.5596	0.8272	0.6728	-0.127
Mof_C 	C 	0.529	0.2406	0.0233	0.424
Mof_C 	C 	0.4742	0.1206	0.9459	-0.016
Mof_C 	C 	0.5315	0.9223	0.7177	-0.004
Mof_C 	C 	0.5405	0.9943	0.0651	-0.007
Mof_C 	C 	0.595	0.8638	0.5953	-0.004
Mof_C 	C 	0.5984	0.9942	0.5634	-0.014
Mof_C 	C 	0.5341	0.0529	0.6855	-0.016
Mof_O 	O 	0.6605	0.5151	0.27707	-0.466
Mof_O 	O 	0.6119	0.5597	0.16298	-0.479
Mof_O 	O 	0.3519	0.4967	0.476	-0.467
Mof_O 	O 	0.3266	0.5086	0.1127	-0.449
Mof_O 	O 	0.2285	0.5719	0.5814	-0.439
Mof_O 	O 	0.2611	0.5913	0.00068	-0.468
Mof_O 	O 	0.4849	0.3395	0.22293	-0.466
Mof_O 	O 	0.4403	0.3881	0.33702	-0.478
Mof_O 	O 	0.5033	0.6481	0.024	-0.467
Mof_O 	O 	0.4914	0.6734	0.3873	-0.449
Mof_O 	O 	0.4281	0.7715	0.9186	-0.439
Mof_O 	O 	0.4087	0.7389	0.49932	-0.468
Mof_O 	O 	0.3395	0.4849	0.72293	-0.466
Mof_O 	O 	0.3881	0.4403	0.83702	-0.479
Mof_O 	O 	0.6481	0.5033	0.524	-0.467
Mof_O 	O 	0.6734	0.4914	0.8873	-0.449
Mof_O 	O 	0.7715	0.4281	0.4186	-0.439
Mof_O 	O 	0.7389	0.4087	0.99932	-0.468
Mof_O 	O 	0.5151	0.6605	0.77707	-0.466
Mof_O 	O 	0.5597	0.6119	0.66298	-0.478
Mof_O 	O 	0.4967	0.3519	0.976	-0.467
Mof_O 	O 	0.5086	0.3266	0.6127	-0.449
Mof_O 	O 	0.5719	0.2285	0.0814	-0.439
Mof_O 	O 	0.5913	0.2611	0.50068	-0.468
_end
