data_functionalizedCrystal
_audit_creation_method	'EQeq! by Chris Wilmer'
_symmetry_space_group_name_H-M	'P1'
_symmetry_Int_Tables_number	1
_symmetry_cell_setting	triclinic
loop_
_symmetry_equiv_pos_as_xyz
  x,y,z
_cell_length_a	13.4623
_cell_length_b	13.4623
_cell_length_c	25.1103
_cell_angle_alpha	74.4509
_cell_angle_beta	74.4509
_cell_angle_gamma	89.9999
loop_
_atom_site_label
_atom_site_type_symbol
_atom_site_fract_x
_atom_site_fract_y
_atom_site_fract_z
_atom_site_charge
Mof_Cu	Cu	0.84702	0.59702	0.80596	0.878
Mof_Cu	Cu	0.59702	0.84702	0.30596	0.877
Mof_H 	H 	0.8491	0.676	0.9034	0.018
Mof_H 	H 	0.7417	0.6999	0.9854	0.172
Mof_H 	H 	0.4994	0.6323	0.934	0.192
Mof_H 	H 	0.6134	0.6084	0.8532	0.048
Mof_H 	H 	0.6783	0.747	0.1244	0.174
Mof_H 	H 	0.7077	0.7913	0.2014	0.078
Mof_H 	H 	0.4118	0.7898	0.2714	0.078
Mof_H 	H 	0.3726	0.7486	0.1958	0.181
Mof_H 	H 	0.7475	0.4206	0.9034	0.016
Mof_H 	H 	0.7729	0.3147	0.9854	0.177
Mof_H 	H 	0.0666	0.4337	0.934	0.199
Mof_H 	H 	0.0334	0.5384	0.8532	0.042
Mof_H 	H 	0.6973	0.1286	0.1244	0.173
Mof_H 	H 	0.5909	0.0073	0.2014	0.078
Mof_H 	H 	0.8168	0.9388	0.2714	0.078
Mof_H 	H 	0.9316	0.0556	0.1958	0.182
Mof_H 	H 	0.676	0.7475	0.4034	0.018
Mof_H 	H 	0.6999	0.7729	0.4854	0.173
Mof_H 	H 	0.6323	0.0666	0.434	0.195
Mof_H 	H 	0.6084	0.0334	0.3532	0.047
Mof_H 	H 	0.747	0.6973	0.6244	0.175
Mof_H 	H 	0.7913	0.5909	0.7014	0.079
Mof_H 	H 	0.7898	0.8168	0.7714	0.079
Mof_H 	H 	0.7486	0.9316	0.6958	0.182
Mof_H 	H 	0.4206	0.8491	0.4034	0.019
Mof_H 	H 	0.3147	0.7417	0.4854	0.173
Mof_H 	H 	0.4337	0.4994	0.434	0.194
Mof_H 	H 	0.5384	0.6134	0.3532	0.049
Mof_H 	H 	0.1286	0.6783	0.6244	0.174
Mof_H 	H 	0.0073	0.7077	0.7014	0.079
Mof_H 	H 	0.9388	0.4118	0.7714	0.079
Mof_H 	H 	0.0556	0.3726	0.6958	0.182
Mof_C 	C 	0.77801	0.66671	0.90978	0.145
Mof_C 	C 	0.71438	0.68118	0.95884	-0.104
Mof_C 	C 	0.60954	0.66794	0.96852	0.144
Mof_C 	C 	0.57026	0.64086	0.92848	-0.128
Mof_C 	C 	0.63931	0.62711	0.88018	0.155
Mof_C 	C 	0.53951	0.67851	0.02318	0.215
Mof_C 	C 	0.50033	0.71223	0.10354	0.222
Mof_C 	C 	0.52165	0.73955	0.1521	0.109
Mof_C 	C 	0.62287	0.75487	0.15406	-0.068
Mof_C 	C 	0.64008	0.78188	0.20004	0.106
Mof_C 	C 	0.46573	0.78143	0.24114	0.148
Mof_C 	C 	0.441	0.7554	0.1964	-0.078
Mof_C 	C 	0.81221	0.42351	0.90978	0.152
Mof_C 	C 	0.82678	0.35998	0.95884	-0.115
Mof_C 	C 	0.92194	0.36354	0.96852	0.161
Mof_C 	C 	0.00126	0.43066	0.92848	-0.147
Mof_C 	C 	0.98051	0.49271	0.88018	0.17
Mof_C 	C 	0.93731	0.29831	0.02318	0.204
Mof_C 	C 	0.89613	0.18423	0.10354	0.221
Mof_C 	C 	0.82625	0.10835	0.1521	0.109
Mof_C 	C 	0.72307	0.09107	0.15406	-0.069
Mof_C 	C 	0.65988	0.01808	0.20004	0.104
Mof_C 	C 	0.79313	0.97743	0.24114	0.152
Mof_C 	C 	0.8626	0.0482	0.1964	-0.082
Mof_C 	C 	0.66671	0.81221	0.40978	0.147
Mof_C 	C 	0.68118	0.82678	0.45884	-0.107
Mof_C 	C 	0.66794	0.92194	0.46852	0.147
Mof_C 	C 	0.64086	0.00126	0.42848	-0.133
Mof_C 	C 	0.62711	0.98051	0.38018	0.159
Mof_C 	C 	0.67851	0.93731	0.52318	0.213
Mof_C 	C 	0.71223	0.89613	0.60354	0.222
Mof_C 	C 	0.73955	0.82625	0.6521	0.109
Mof_C 	C 	0.75487	0.72307	0.65406	-0.068
Mof_C 	C 	0.78188	0.65988	0.70004	0.106
Mof_C 	C 	0.78143	0.79313	0.74114	0.148
Mof_C 	C 	0.7554	0.8626	0.6964	-0.078
Mof_C 	C 	0.42351	0.77801	0.40978	0.146
Mof_C 	C 	0.35998	0.71438	0.45884	-0.105
Mof_C 	C 	0.36354	0.60954	0.46852	0.145
Mof_C 	C 	0.43066	0.57026	0.42848	-0.129
Mof_C 	C 	0.49271	0.63931	0.38018	0.155
Mof_C 	C 	0.29831	0.53951	0.52318	0.214
Mof_C 	C 	0.18423	0.50033	0.60354	0.222
Mof_C 	C 	0.10835	0.52165	0.6521	0.109
Mof_C 	C 	0.09107	0.62287	0.65406	-0.068
Mof_C 	C 	0.01808	0.64008	0.70004	0.104
Mof_C 	C 	0.97743	0.46573	0.74114	0.15
Mof_C 	C 	0.0482	0.441	0.6964	-0.08
Mof_N 	N 	0.74176	0.63916	0.87008	-0.224
Mof_N 	N 	0.44228	0.65578	0.04424	-0.065
Mof_N 	N 	0.41837	0.68007	0.09786	-0.065
Mof_N 	N 	0.56044	0.79504	0.24352	-0.213
Mof_N 	N 	0.88816	0.49076	0.87008	-0.228
Mof_N 	N 	0.01348	0.29998	0.04424	-0.061
Mof_N 	N 	0.98377	0.22207	0.09786	-0.067
Mof_N 	N 	0.69604	0.96144	0.24352	-0.213
Mof_N 	N 	0.63916	0.88816	0.37008	-0.225
Mof_N 	N 	0.65578	0.01348	0.54424	-0.065
Mof_N 	N 	0.68007	0.98377	0.59786	-0.066
Mof_N 	N 	0.79504	0.69604	0.74352	-0.213
Mof_N 	N 	0.49076	0.74176	0.37008	-0.224
Mof_N 	N 	0.29998	0.44228	0.54424	-0.065
Mof_N 	N 	0.22207	0.41837	0.59786	-0.066
Mof_N 	N 	0.96144	0.56044	0.74352	-0.213
Mof_O 	O 	0.58375	0.71315	0.0577	-0.161
Mof_O 	O 	0.85855	0.22915	0.0577	-0.16
Mof_O 	O 	0.71315	0.85855	0.5577	-0.161
Mof_O 	O 	0.22915	0.58375	0.5577	-0.161
Mof_Cu	Cu	0.15298	0.40298	0.19404	0.879
Mof_Cu	Cu	0.40298	0.15298	0.69404	0.878
Mof_H 	H 	0.1509	0.324	0.0966	0.019
Mof_H 	H 	0.2583	0.3001	0.0146	0.173
Mof_H 	H 	0.5006	0.3677	0.066	0.193
Mof_H 	H 	0.3866	0.3916	0.1468	0.049
Mof_H 	H 	0.3217	0.253	0.8756	0.175
Mof_H 	H 	0.2923	0.2087	0.7986	0.079
Mof_H 	H 	0.5882	0.2102	0.7286	0.079
Mof_H 	H 	0.6274	0.2514	0.8042	0.182
Mof_H 	H 	0.2525	0.5794	0.0966	0.017
Mof_H 	H 	0.2271	0.6853	0.0146	0.178
Mof_H 	H 	0.9334	0.5663	0.066	0.2
Mof_H 	H 	0.9666	0.4616	0.1468	0.043
Mof_H 	H 	0.3027	0.8714	0.8756	0.174
Mof_H 	H 	0.4091	0.9927	0.7986	0.079
Mof_H 	H 	0.1832	0.0612	0.7286	0.078
Mof_H 	H 	0.0684	0.9444	0.8042	0.182
Mof_H 	H 	0.324	0.2525	0.5966	0.018
Mof_H 	H 	0.3001	0.2271	0.5146	0.173
Mof_H 	H 	0.3677	0.9334	0.566	0.195
Mof_H 	H 	0.3916	0.9666	0.6468	0.047
Mof_H 	H 	0.253	0.3027	0.3756	0.175
Mof_H 	H 	0.2087	0.4091	0.2986	0.079
Mof_H 	H 	0.2102	0.1832	0.2286	0.079
Mof_H 	H 	0.2514	0.0684	0.3042	0.182
Mof_H 	H 	0.5794	0.1509	0.5966	0.019
Mof_H 	H 	0.6853	0.2583	0.5146	0.173
Mof_H 	H 	0.5663	0.5006	0.566	0.194
Mof_H 	H 	0.4616	0.3866	0.6468	0.049
Mof_H 	H 	0.8714	0.3217	0.3756	0.174
Mof_H 	H 	0.9927	0.2923	0.2986	0.079
Mof_H 	H 	0.0612	0.5882	0.2286	0.079
Mof_H 	H 	0.9444	0.6274	0.3042	0.182
Mof_C 	C 	0.22199	0.33329	0.09022	0.145
Mof_C 	C 	0.28562	0.31882	0.04116	-0.104
Mof_C 	C 	0.39046	0.33206	0.03148	0.144
Mof_C 	C 	0.42974	0.35914	0.07152	-0.128
Mof_C 	C 	0.36069	0.37289	0.11982	0.155
Mof_C 	C 	0.46049	0.32149	0.97682	0.215
Mof_C 	C 	0.49967	0.28777	0.89646	0.222
Mof_C 	C 	0.47835	0.26045	0.8479	0.109
Mof_C 	C 	0.37713	0.24513	0.84594	-0.068
Mof_C 	C 	0.35992	0.21812	0.79996	0.106
Mof_C 	C 	0.53427	0.21857	0.75886	0.148
Mof_C 	C 	0.559	0.2446	0.8036	-0.078
Mof_C 	C 	0.18779	0.57649	0.09022	0.152
Mof_C 	C 	0.17322	0.64002	0.04116	-0.115
Mof_C 	C 	0.07806	0.63646	0.03148	0.161
Mof_C 	C 	0.99874	0.56934	0.07152	-0.147
Mof_C 	C 	0.01949	0.50729	0.11982	0.17
Mof_C 	C 	0.06269	0.70169	0.97682	0.204
Mof_C 	C 	0.10387	0.81577	0.89646	0.221
Mof_C 	C 	0.17375	0.89165	0.8479	0.109
Mof_C 	C 	0.27693	0.90893	0.84594	-0.069
Mof_C 	C 	0.34012	0.98192	0.79996	0.104
Mof_C 	C 	0.20687	0.02257	0.75886	0.152
Mof_C 	C 	0.1374	0.9518	0.8036	-0.082
Mof_C 	C 	0.33329	0.18779	0.59022	0.147
Mof_C 	C 	0.31882	0.17322	0.54116	-0.107
Mof_C 	C 	0.33206	0.07806	0.53148	0.147
Mof_C 	C 	0.35914	0.99874	0.57152	-0.133
Mof_C 	C 	0.37289	0.01949	0.61982	0.159
Mof_C 	C 	0.32149	0.06269	0.47682	0.213
Mof_C 	C 	0.28777	0.10387	0.39646	0.222
Mof_C 	C 	0.26045	0.17375	0.3479	0.109
Mof_C 	C 	0.24513	0.27693	0.34594	-0.068
Mof_C 	C 	0.21812	0.34012	0.29996	0.106
Mof_C 	C 	0.21857	0.20687	0.25886	0.148
Mof_C 	C 	0.2446	0.1374	0.3036	-0.078
Mof_C 	C 	0.57649	0.22199	0.59022	0.146
Mof_C 	C 	0.64002	0.28562	0.54116	-0.105
Mof_C 	C 	0.63646	0.39046	0.53148	0.145
Mof_C 	C 	0.56934	0.42974	0.57152	-0.129
Mof_C 	C 	0.50729	0.36069	0.61982	0.155
Mof_C 	C 	0.70169	0.46049	0.47682	0.214
Mof_C 	C 	0.81577	0.49967	0.39646	0.222
Mof_C 	C 	0.89165	0.47835	0.3479	0.109
Mof_C 	C 	0.90893	0.37713	0.34594	-0.068
Mof_C 	C 	0.98192	0.35992	0.29996	0.104
Mof_C 	C 	0.02257	0.53427	0.25886	0.15
Mof_C 	C 	0.9518	0.559	0.3036	-0.08
Mof_N 	N 	0.25824	0.36084	0.12992	-0.224
Mof_N 	N 	0.55772	0.34422	0.95576	-0.065
Mof_N 	N 	0.58163	0.31993	0.90214	-0.065
Mof_N 	N 	0.43956	0.20496	0.75648	-0.213
Mof_N 	N 	0.11184	0.50924	0.12992	-0.228
Mof_N 	N 	0.98652	0.70002	0.95576	-0.061
Mof_N 	N 	0.01623	0.77793	0.90214	-0.067
Mof_N 	N 	0.30396	0.03856	0.75648	-0.213
Mof_N 	N 	0.36084	0.11184	0.62992	-0.225
Mof_N 	N 	0.34422	0.98652	0.45576	-0.065
Mof_N 	N 	0.31993	0.01623	0.40214	-0.066
Mof_N 	N 	0.20496	0.30396	0.25648	-0.213
Mof_N 	N 	0.50924	0.25824	0.62992	-0.224
Mof_N 	N 	0.70002	0.55772	0.45576	-0.065
Mof_N 	N 	0.77793	0.58163	0.40214	-0.066
Mof_N 	N 	0.03856	0.43956	0.25648	-0.213
Mof_O 	O 	0.41625	0.28685	0.9423	-0.161
Mof_O 	O 	0.14145	0.77085	0.9423	-0.16
Mof_O 	O 	0.28685	0.14145	0.4423	-0.161
Mof_O 	O 	0.77085	0.41625	0.4423	-0.161
Mof_P 	P 	0.6109	0.9546	0.8596	1.171
Mof_F 	F 	0.5838	0.9048	0.9264	-0.35
Mof_F 	F 	0.6651	0.0476	0.8698	-0.327
Mof_F 	F 	0.6382	0.0032	0.7936	-0.358
Mof_F 	F 	0.5762	0.8695	0.8356	-0.362
Mof_F 	F 	0.7113	0.8959	0.8542	-0.354
Mof_F 	F 	0.5057	0.0032	0.864	-0.386
Mof_P 	P 	0.0295	0.1858	0.8596	1.172
Mof_F 	F 	0.9898	0.1688	0.9264	-0.348
Mof_F 	F 	0.9651	0.0826	0.8698	-0.327
Mof_F 	F 	0.0682	0.2032	0.7936	-0.359
Mof_F 	F 	0.0882	0.2949	0.8356	-0.362
Mof_F 	F 	0.9345	0.2499	0.8542	-0.353
Mof_F 	F 	0.1303	0.1328	0.864	-0.387
Mof_P 	P 	0.9546	0.0295	0.3596	1.171
Mof_F 	F 	0.9048	0.9898	0.4264	-0.349
Mof_F 	F 	0.0476	0.9651	0.3698	-0.328
Mof_F 	F 	0.0032	0.0682	0.2936	-0.358
Mof_F 	F 	0.8695	0.0882	0.3356	-0.363
Mof_F 	F 	0.8959	0.9345	0.3542	-0.354
Mof_F 	F 	0.0032	0.1303	0.364	-0.386
Mof_P 	P 	0.1858	0.6109	0.3596	1.174
Mof_F 	F 	0.1688	0.5838	0.4264	-0.35
Mof_F 	F 	0.0826	0.6651	0.3698	-0.329
Mof_F 	F 	0.2032	0.6382	0.2936	-0.359
Mof_F 	F 	0.2949	0.5762	0.3356	-0.362
Mof_F 	F 	0.2499	0.7113	0.3542	-0.354
Mof_F 	F 	0.1328	0.5057	0.364	-0.387
Mof_P 	P 	0.3891	0.0454	0.1404	1.171
Mof_F 	F 	0.4162	0.0952	0.0736	-0.35
Mof_F 	F 	0.3349	0.9524	0.1302	-0.327
Mof_F 	F 	0.3618	0.9968	0.2064	-0.358
Mof_F 	F 	0.4238	0.1305	0.1644	-0.362
Mof_F 	F 	0.2887	0.1041	0.1458	-0.354
Mof_F 	F 	0.4943	0.9968	0.136	-0.386
Mof_P 	P 	0.9705	0.8142	0.1404	1.172
Mof_F 	F 	0.0102	0.8312	0.0736	-0.348
Mof_F 	F 	0.0349	0.9174	0.1302	-0.327
Mof_F 	F 	0.9318	0.7968	0.2064	-0.359
Mof_F 	F 	0.9118	0.7051	0.1644	-0.362
Mof_F 	F 	0.0655	0.7501	0.1458	-0.353
Mof_F 	F 	0.8697	0.8672	0.136	-0.387
Mof_P 	P 	0.0454	0.9705	0.6404	1.171
Mof_F 	F 	0.0952	0.0102	0.5736	-0.349
Mof_F 	F 	0.9524	0.0349	0.6302	-0.328
Mof_F 	F 	0.9968	0.9318	0.7064	-0.358
Mof_F 	F 	0.1305	0.9118	0.6644	-0.363
Mof_F 	F 	0.1041	0.0655	0.6458	-0.354
Mof_F 	F 	0.9968	0.8697	0.636	-0.386
Mof_P 	P 	0.8142	0.3891	0.6404	1.174
Mof_F 	F 	0.8312	0.4162	0.5736	-0.35
Mof_F 	F 	0.9174	0.3349	0.6302	-0.329
Mof_F 	F 	0.7968	0.3618	0.7064	-0.359
Mof_F 	F 	0.7051	0.4238	0.6644	-0.362
Mof_F 	F 	0.7501	0.2887	0.6458	-0.354
Mof_F 	F 	0.8672	0.4943	0.636	-0.387
Mof_P 	P 	0.68811	0.43811	0.12378	1.24
Mof_F 	F 	0.7948	0.3913	0.12	-0.378
Mof_F 	F 	0.6454	0.3344	0.1186	-0.359
Mof_F 	F 	0.684	0.4529	0.0612	-0.265
Mof_F 	F 	0.5852	0.4887	0.12	-0.377
Mof_F 	F 	0.736	0.547	0.1186	-0.359
Mof_F 	F 	0.7548	0.4859	0.0612	-0.265
Mof_F 	F 	0.6553	0.4053	0.1894	-0.348
Mof_P 	P 	0.43811	0.68811	0.62378	1.24
Mof_F 	F 	0.3913	0.5852	0.62	-0.377
Mof_F 	F 	0.3344	0.736	0.6186	-0.359
Mof_F 	F 	0.4529	0.7548	0.5612	-0.265
Mof_F 	F 	0.4887	0.7948	0.62	-0.377
Mof_F 	F 	0.547	0.6454	0.6186	-0.358
Mof_F 	F 	0.4859	0.684	0.5612	-0.265
Mof_F 	F 	0.4053	0.6553	0.6894	-0.348
Mof_P 	P 	0.31189	0.56189	0.87622	1.24
Mof_F 	F 	0.2052	0.6087	0.88	-0.378
Mof_F 	F 	0.3546	0.6656	0.8814	-0.359
Mof_F 	F 	0.316	0.5471	0.9388	-0.265
Mof_F 	F 	0.4148	0.5113	0.88	-0.377
Mof_F 	F 	0.264	0.453	0.8814	-0.359
Mof_F 	F 	0.2452	0.5141	0.9388	-0.265
Mof_F 	F 	0.3447	0.5947	0.8106	-0.348
Mof_P 	P 	0.56189	0.31189	0.37622	1.24
Mof_F 	F 	0.6087	0.4148	0.38	-0.377
Mof_F 	F 	0.6656	0.264	0.3814	-0.359
Mof_F 	F 	0.5471	0.2452	0.4388	-0.265
Mof_F 	F 	0.5113	0.2052	0.38	-0.377
Mof_F 	F 	0.453	0.3546	0.3814	-0.358
Mof_F 	F 	0.5141	0.316	0.4388	-0.265
Mof_F 	F 	0.5947	0.3447	0.3106	-0.348
_end
