data_functionalizedCrystal
_audit_creation_method	'EQeq! by Chris Wilmer'
_symmetry_space_group_name_H-M	'P1'
_symmetry_Int_Tables_number	1
_symmetry_cell_setting	triclinic
loop_
_symmetry_equiv_pos_as_xyz
  x,y,z
_cell_length_a	19.1593
_cell_length_b	19.1593
_cell_length_c	37.391
_cell_angle_alpha	90
_cell_angle_beta	90
_cell_angle_gamma	120
loop_
_atom_site_label
_atom_site_type_symbol
_atom_site_fract_x
_atom_site_fract_y
_atom_site_fract_z
_atom_site_charge
Mof_O 	O 	0.11349	0.62982	0.00677	-0.473
Mof_O 	O 	0.03713	0.59152	0.95746	-0.481
Mof_C 	C 	0.0982	0.6409	0.9754	0.405
Mof_C 	C 	0.1555	0.7182	0.95804	-0.118
Mof_C 	C 	0.141	0.7345	0.92276	0.008
Mof_H 	H 	0.0936	0.6977	0.9113	0.047
Mof_C 	C 	0.2417	0.8557	0.8454	0.026
Mof_C 	C 	0.2061	0.8914	0.8563	-0.021
Mof_N 	N 	0.22473	0.87277	0.81037	-0.122
Mof_O 	O 	0.78016	0.96315	0.3401	-0.473
Mof_O 	O 	0.7038	0.92485	0.29079	-0.482
Mof_C 	C 	0.76487	0.97423	0.30873	0.403
Mof_C 	C 	0.82217	0.05153	0.29137	-0.119
Mof_C 	C 	0.80767	0.06783	0.25609	0.007
Mof_H 	H 	0.76027	0.03103	0.24463	0.047
Mof_C 	C 	0.90837	0.18903	0.17873	0.025
Mof_C 	C 	0.87277	0.22473	0.18963	-0.022
Mof_N 	N 	0.8914	0.2061	0.1437	-0.123
Mof_O 	O 	0.44682	0.29649	0.67344	-0.474
Mof_O 	O 	0.37046	0.25819	0.62413	-0.482
Mof_C 	C 	0.43153	0.30757	0.64207	0.403
Mof_C 	C 	0.48883	0.38487	0.62471	-0.119
Mof_C 	C 	0.47433	0.40117	0.58943	0.007
Mof_H 	H 	0.42693	0.36437	0.57797	0.046
Mof_C 	C 	0.57503	0.52237	0.51207	0.025
Mof_C 	C 	0.53943	0.55807	0.52297	-0.022
Mof_N 	N 	0.55807	0.53943	0.47703	-0.123
Mof_O 	O 	0.37018	0.48367	0.00677	-0.474
Mof_O 	O 	0.40848	0.44561	0.95746	-0.482
Mof_C 	C 	0.3591	0.4573	0.9754	0.403
Mof_C 	C 	0.2818	0.4373	0.95804	-0.119
Mof_C 	C 	0.2655	0.4065	0.92276	0.007
Mof_H 	H 	0.3023	0.3959	0.9113	0.046
Mof_C 	C 	0.1443	0.386	0.8454	0.025
Mof_C 	C 	0.1086	0.3147	0.8563	-0.022
Mof_N 	N 	0.12723	0.35197	0.81037	-0.123
Mof_O 	O 	0.03685	0.817	0.3401	-0.474
Mof_O 	O 	0.07515	0.77894	0.29079	-0.482
Mof_C 	C 	0.02577	0.79063	0.30873	0.403
Mof_C 	C 	0.94847	0.77063	0.29137	-0.119
Mof_C 	C 	0.93217	0.73983	0.25609	0.007
Mof_H 	H 	0.96897	0.72923	0.24463	0.046
Mof_C 	C 	0.81097	0.71933	0.17873	0.025
Mof_C 	C 	0.77527	0.64803	0.18963	-0.022
Mof_N 	N 	0.7939	0.6853	0.1437	-0.123
Mof_O 	O 	0.70351	0.15034	0.67344	-0.474
Mof_O 	O 	0.74181	0.11228	0.62413	-0.482
Mof_C 	C 	0.69243	0.12397	0.64207	0.403
Mof_C 	C 	0.61513	0.10397	0.62471	-0.119
Mof_C 	C 	0.59883	0.07317	0.58943	0.007
Mof_H 	H 	0.63563	0.06257	0.57797	0.046
Mof_C 	C 	0.47763	0.05267	0.51207	0.025
Mof_C 	C 	0.44193	0.98137	0.52297	-0.022
Mof_N 	N 	0.46057	0.01863	0.47703	-0.123
Mof_O 	O 	0.51633	0.88651	0.00677	-0.474
Mof_O 	O 	0.55439	0.96287	0.95746	-0.482
Mof_C 	C 	0.5427	0.9018	0.9754	0.403
Mof_C 	C 	0.5627	0.8445	0.95804	-0.119
Mof_C 	C 	0.5935	0.859	0.92276	0.007
Mof_H 	H 	0.6041	0.9064	0.9113	0.046
Mof_C 	C 	0.614	0.7583	0.8454	0.025
Mof_C 	C 	0.6853	0.7939	0.8563	-0.022
Mof_N 	N 	0.64803	0.77527	0.81037	-0.123
Mof_O 	O 	0.183	0.21984	0.3401	-0.474
Mof_O 	O 	0.22106	0.2962	0.29079	-0.482
Mof_C 	C 	0.20937	0.23513	0.30873	0.403
Mof_C 	C 	0.22937	0.17783	0.29137	-0.119
Mof_C 	C 	0.26017	0.19233	0.25609	0.007
Mof_H 	H 	0.27077	0.23973	0.24463	0.046
Mof_C 	C 	0.28067	0.09163	0.17873	0.025
Mof_C 	C 	0.35197	0.12723	0.18963	-0.022
Mof_N 	N 	0.3147	0.1086	0.1437	-0.123
Mof_O 	O 	0.84966	0.55318	0.67344	-0.474
Mof_O 	O 	0.88772	0.62954	0.62413	-0.482
Mof_C 	C 	0.87603	0.56847	0.64207	0.403
Mof_C 	C 	0.89603	0.51117	0.62471	-0.119
Mof_C 	C 	0.92683	0.52567	0.58943	0.007
Mof_H 	H 	0.93743	0.57307	0.57797	0.046
Mof_C 	C 	0.94733	0.42497	0.51207	0.025
Mof_C 	C 	0.01863	0.46057	0.52297	-0.022
Mof_N 	N 	0.98137	0.44193	0.47703	-0.123
Mof_O 	O 	0.62982	0.11349	0.99323	-0.474
Mof_O 	O 	0.59152	0.03713	0.04254	-0.482
Mof_C 	C 	0.6409	0.0982	0.0246	0.403
Mof_C 	C 	0.7182	0.1555	0.04196	-0.119
Mof_C 	C 	0.7345	0.141	0.07724	0.006
Mof_H 	H 	0.6977	0.0936	0.0887	0.043
Mof_C 	C 	0.8557	0.2417	0.1546	0.043
Mof_O 	O 	0.29649	0.44682	0.32656	-0.474
Mof_O 	O 	0.25819	0.37046	0.37587	-0.482
Mof_C 	C 	0.30757	0.43153	0.35793	0.403
Mof_C 	C 	0.38487	0.48883	0.37529	-0.119
Mof_C 	C 	0.40117	0.47433	0.41057	0.005
Mof_H 	H 	0.36437	0.42693	0.42203	0.043
Mof_C 	C 	0.52237	0.57503	0.48793	0.043
Mof_O 	O 	0.96315	0.78016	0.6599	-0.474
Mof_O 	O 	0.92485	0.7038	0.70921	-0.482
Mof_C 	C 	0.97423	0.76487	0.69127	0.403
Mof_C 	C 	0.05153	0.82217	0.70863	-0.118
Mof_C 	C 	0.06783	0.80767	0.74391	0.005
Mof_H 	H 	0.03103	0.76027	0.75537	0.044
Mof_C 	C 	0.18903	0.90837	0.82127	0.043
Mof_O 	O 	0.48367	0.37018	0.99323	-0.474
Mof_O 	O 	0.44561	0.40848	0.04254	-0.482
Mof_C 	C 	0.4573	0.3591	0.0246	0.403
Mof_C 	C 	0.4373	0.2818	0.04196	-0.119
Mof_C 	C 	0.4065	0.2655	0.07724	0.005
Mof_H 	H 	0.3959	0.3023	0.0887	0.043
Mof_C 	C 	0.386	0.1443	0.1546	0.043
Mof_O 	O 	0.15034	0.70351	0.32656	-0.474
Mof_O 	O 	0.11228	0.74181	0.37587	-0.482
Mof_C 	C 	0.12397	0.69243	0.35793	0.403
Mof_C 	C 	0.10397	0.61513	0.37529	-0.119
Mof_C 	C 	0.07317	0.59883	0.41057	0.005
Mof_H 	H 	0.06257	0.63563	0.42203	0.043
Mof_C 	C 	0.05267	0.47763	0.48793	0.043
Mof_O 	O 	0.817	0.03685	0.6599	-0.474
Mof_O 	O 	0.77894	0.07515	0.70921	-0.482
Mof_C 	C 	0.79063	0.02577	0.69127	0.403
Mof_C 	C 	0.77063	0.94847	0.70863	-0.118
Mof_C 	C 	0.73983	0.93217	0.74391	0.005
Mof_H 	H 	0.72923	0.96897	0.75537	0.044
Mof_C 	C 	0.71933	0.81097	0.82127	0.043
Mof_O 	O 	0.88651	0.51633	0.99323	-0.474
Mof_O 	O 	0.96287	0.55439	0.04254	-0.482
Mof_C 	C 	0.9018	0.5427	0.0246	0.403
Mof_C 	C 	0.8445	0.5627	0.04196	-0.119
Mof_C 	C 	0.859	0.5935	0.07724	0.005
Mof_H 	H 	0.9064	0.6041	0.0887	0.043
Mof_C 	C 	0.7583	0.614	0.1546	0.043
Mof_O 	O 	0.55318	0.84966	0.32656	-0.474
Mof_O 	O 	0.62954	0.88772	0.37587	-0.482
Mof_C 	C 	0.56847	0.87603	0.35793	0.403
Mof_C 	C 	0.51117	0.89603	0.37529	-0.119
Mof_C 	C 	0.52567	0.92683	0.41057	0.005
Mof_H 	H 	0.57307	0.93743	0.42203	0.043
Mof_C 	C 	0.42497	0.94733	0.48793	0.043
Mof_O 	O 	0.21984	0.183	0.6599	-0.474
Mof_O 	O 	0.2962	0.22106	0.70921	-0.482
Mof_C 	C 	0.23513	0.20937	0.69127	0.403
Mof_C 	C 	0.17783	0.22937	0.70863	-0.119
Mof_C 	C 	0.19233	0.26017	0.74391	0.005
Mof_H 	H 	0.23973	0.27077	0.75537	0.044
Mof_C 	C 	0.09163	0.28067	0.82127	0.043
Mof_O 	O 	0.88651	0.37018	0.99323	-0.474
Mof_O 	O 	0.96287	0.40848	0.04254	-0.482
Mof_C 	C 	0.9018	0.3591	0.0246	0.404
Mof_C 	C 	0.8445	0.2818	0.04196	-0.119
Mof_C 	C 	0.859	0.2655	0.07724	0.007
Mof_H 	H 	0.9064	0.3023	0.0887	0.046
Mof_C 	C 	0.7583	0.1443	0.1546	0.025
Mof_C 	C 	0.7939	0.1086	0.1437	-0.022
Mof_N 	N 	0.77527	0.12723	0.18963	-0.123
Mof_O 	O 	0.55318	0.70351	0.32656	-0.474
Mof_O 	O 	0.62954	0.74181	0.37587	-0.482
Mof_C 	C 	0.56847	0.69243	0.35793	0.403
Mof_C 	C 	0.51117	0.61513	0.37529	-0.119
Mof_C 	C 	0.52567	0.59883	0.41057	0.007
Mof_H 	H 	0.57307	0.63563	0.42203	0.046
Mof_C 	C 	0.42497	0.47763	0.48793	0.025
Mof_C 	C 	0.46057	0.44193	0.47703	-0.022
Mof_N 	N 	0.44193	0.46057	0.52297	-0.123
Mof_O 	O 	0.21984	0.03685	0.6599	-0.474
Mof_O 	O 	0.2962	0.07515	0.70921	-0.482
Mof_C 	C 	0.23513	0.02577	0.69127	0.403
Mof_C 	C 	0.17783	0.94847	0.70863	-0.119
Mof_C 	C 	0.19233	0.93217	0.74391	0.007
Mof_H 	H 	0.23973	0.96897	0.75537	0.047
Mof_C 	C 	0.09163	0.81097	0.82127	0.025
Mof_C 	C 	0.12723	0.77527	0.81037	-0.022
Mof_N 	N 	0.1086	0.7939	0.8563	-0.123
Mof_O 	O 	0.62982	0.51633	0.99323	-0.474
Mof_O 	O 	0.59152	0.55439	0.04254	-0.482
Mof_C 	C 	0.6409	0.5427	0.0246	0.403
Mof_C 	C 	0.7182	0.5627	0.04196	-0.119
Mof_C 	C 	0.7345	0.5935	0.07724	0.007
Mof_H 	H 	0.6977	0.6041	0.0887	0.046
Mof_C 	C 	0.8557	0.614	0.1546	0.025
Mof_C 	C 	0.8914	0.6853	0.1437	-0.022
Mof_N 	N 	0.87277	0.64803	0.18963	-0.123
Mof_O 	O 	0.29649	0.84966	0.32656	-0.474
Mof_O 	O 	0.25819	0.88772	0.37587	-0.482
Mof_C 	C 	0.30757	0.87603	0.35793	0.403
Mof_C 	C 	0.38487	0.89603	0.37529	-0.119
Mof_C 	C 	0.40117	0.92683	0.41057	0.007
Mof_H 	H 	0.36437	0.93743	0.42203	0.046
Mof_C 	C 	0.52237	0.94733	0.48793	0.025
Mof_C 	C 	0.55807	0.01863	0.47703	-0.022
Mof_N 	N 	0.53943	0.98137	0.52297	-0.123
Mof_O 	O 	0.96315	0.183	0.6599	-0.474
Mof_O 	O 	0.92485	0.22106	0.70921	-0.482
Mof_C 	C 	0.97423	0.20937	0.69127	0.403
Mof_C 	C 	0.05153	0.22937	0.70863	-0.119
Mof_C 	C 	0.06783	0.26017	0.74391	0.007
Mof_H 	H 	0.03103	0.27077	0.75537	0.046
Mof_C 	C 	0.18903	0.28067	0.82127	0.025
Mof_C 	C 	0.22473	0.35197	0.81037	-0.022
Mof_N 	N 	0.2061	0.3147	0.8563	-0.123
Mof_O 	O 	0.48367	0.11349	0.99323	-0.474
Mof_O 	O 	0.44561	0.03713	0.04254	-0.482
Mof_C 	C 	0.4573	0.0982	0.0246	0.403
Mof_C 	C 	0.4373	0.1555	0.04196	-0.119
Mof_C 	C 	0.4065	0.141	0.07724	0.007
Mof_H 	H 	0.3959	0.0936	0.0887	0.046
Mof_C 	C 	0.386	0.2417	0.1546	0.025
Mof_C 	C 	0.3147	0.2061	0.1437	-0.022
Mof_N 	N 	0.35197	0.22473	0.18963	-0.123
Mof_O 	O 	0.15034	0.44682	0.32656	-0.474
Mof_O 	O 	0.11228	0.37046	0.37587	-0.482
Mof_C 	C 	0.12397	0.43153	0.35793	0.403
Mof_C 	C 	0.10397	0.48883	0.37529	-0.119
Mof_C 	C 	0.07317	0.47433	0.41057	0.007
Mof_H 	H 	0.06257	0.42693	0.42203	0.046
Mof_C 	C 	0.05267	0.57503	0.48793	0.025
Mof_C 	C 	0.98137	0.53943	0.47703	-0.022
Mof_N 	N 	0.01863	0.55807	0.52297	-0.123
Mof_O 	O 	0.817	0.78016	0.6599	-0.474
Mof_O 	O 	0.77894	0.7038	0.70921	-0.482
Mof_C 	C 	0.79063	0.76487	0.69127	0.403
Mof_C 	C 	0.77063	0.82217	0.70863	-0.119
Mof_C 	C 	0.73983	0.80767	0.74391	0.007
Mof_H 	H 	0.72923	0.76027	0.75537	0.046
Mof_C 	C 	0.71933	0.90837	0.82127	0.025
Mof_C 	C 	0.64803	0.87277	0.81037	-0.022
Mof_N 	N 	0.6853	0.8914	0.8563	-0.123
Mof_O 	O 	0.37018	0.88651	0.00677	-0.474
Mof_O 	O 	0.40848	0.96287	0.95746	-0.482
Mof_C 	C 	0.3591	0.9018	0.9754	0.403
Mof_C 	C 	0.2818	0.8445	0.95804	-0.119
Mof_C 	C 	0.2655	0.859	0.92276	0.006
Mof_H 	H 	0.3023	0.9064	0.9113	0.043
Mof_C 	C 	0.1443	0.7583	0.8454	0.043
Mof_O 	O 	0.03685	0.21984	0.3401	-0.474
Mof_O 	O 	0.07515	0.2962	0.29079	-0.482
Mof_C 	C 	0.02577	0.23513	0.30873	0.403
Mof_C 	C 	0.94847	0.17783	0.29137	-0.118
Mof_C 	C 	0.93217	0.19233	0.25609	0.005
Mof_H 	H 	0.96897	0.23973	0.24463	0.044
Mof_C 	C 	0.81097	0.09163	0.17873	0.043
Mof_O 	O 	0.70351	0.55318	0.67344	-0.474
Mof_O 	O 	0.74181	0.62954	0.62413	-0.482
Mof_C 	C 	0.69243	0.56847	0.64207	0.403
Mof_C 	C 	0.61513	0.51117	0.62471	-0.119
Mof_C 	C 	0.59883	0.52567	0.58943	0.005
Mof_H 	H 	0.63563	0.57307	0.57797	0.043
Mof_C 	C 	0.47763	0.42497	0.51207	0.043
Mof_O 	O 	0.51633	0.62982	0.00677	-0.474
Mof_O 	O 	0.55439	0.59152	0.95746	-0.482
Mof_C 	C 	0.5427	0.6409	0.9754	0.403
Mof_C 	C 	0.5627	0.7182	0.95804	-0.119
Mof_C 	C 	0.5935	0.7345	0.92276	0.005
Mof_H 	H 	0.6041	0.6977	0.9113	0.043
Mof_C 	C 	0.614	0.8557	0.8454	0.043
Mof_O 	O 	0.183	0.96315	0.3401	-0.474
Mof_O 	O 	0.22106	0.92485	0.29079	-0.482
Mof_C 	C 	0.20937	0.97423	0.30873	0.403
Mof_C 	C 	0.22937	0.05153	0.29137	-0.118
Mof_C 	C 	0.26017	0.06783	0.25609	0.005
Mof_H 	H 	0.27077	0.03103	0.24463	0.044
Mof_C 	C 	0.28067	0.18903	0.17873	0.043
Mof_O 	O 	0.84966	0.29649	0.67344	-0.474
Mof_O 	O 	0.88772	0.25819	0.62413	-0.482
Mof_C 	C 	0.87603	0.30757	0.64207	0.403
Mof_C 	C 	0.89603	0.38487	0.62471	-0.119
Mof_C 	C 	0.92683	0.40117	0.58943	0.005
Mof_H 	H 	0.93743	0.36437	0.57797	0.043
Mof_C 	C 	0.94733	0.52237	0.51207	0.043
Mof_O 	O 	0.11349	0.48367	0.00677	-0.474
Mof_O 	O 	0.03713	0.44561	0.95746	-0.482
Mof_C 	C 	0.0982	0.4573	0.9754	0.403
Mof_C 	C 	0.1555	0.4373	0.95804	-0.119
Mof_C 	C 	0.141	0.4065	0.92276	0.005
Mof_H 	H 	0.0936	0.3959	0.9113	0.043
Mof_C 	C 	0.2417	0.386	0.8454	0.043
Mof_O 	O 	0.78016	0.817	0.3401	-0.474
Mof_O 	O 	0.7038	0.77894	0.29079	-0.482
Mof_C 	C 	0.76487	0.79063	0.30873	0.403
Mof_C 	C 	0.82217	0.77063	0.29137	-0.119
Mof_C 	C 	0.80767	0.73983	0.25609	0.005
Mof_H 	H 	0.76027	0.72923	0.24463	0.044
Mof_C 	C 	0.90837	0.71933	0.17873	0.043
Mof_O 	O 	0.44682	0.15034	0.67344	-0.474
Mof_O 	O 	0.37046	0.11228	0.62413	-0.482
Mof_C 	C 	0.43153	0.12397	0.64207	0.403
Mof_C 	C 	0.48883	0.10397	0.62471	-0.119
Mof_C 	C 	0.47433	0.07317	0.58943	0.005
Mof_H 	H 	0.42693	0.06257	0.57797	0.043
Mof_C 	C 	0.57503	0.05267	0.51207	0.043
Mof_Zn	Zn	0.04867	0.52434	0.03353	1.199
Mof_Zn	Zn	0.71534	0.85767	0.36686	1.199
Mof_Zn	Zn	0.382	0.191	0.70019	1.199
Mof_Zn	Zn	0.47567	0.52434	0.03353	1.199
Mof_Zn	Zn	0.14233	0.85767	0.36686	1.199
Mof_Zn	Zn	0.809	0.191	0.70019	1.199
Mof_Zn	Zn	0.47566	0.95133	0.03353	1.199
Mof_Zn	Zn	0.14233	0.28466	0.36686	1.199
Mof_Zn	Zn	0.809	0.618	0.70019	1.199
Mof_Zn	Zn	0.52434	0.04867	0.96647	1.199
Mof_Zn	Zn	0.191	0.382	0.29981	1.199
Mof_Zn	Zn	0.85767	0.71534	0.63314	1.199
Mof_Zn	Zn	0.52434	0.47566	0.96647	1.199
Mof_Zn	Zn	0.191	0.809	0.29981	1.199
Mof_Zn	Zn	0.85767	0.14233	0.63314	1.199
Mof_Zn	Zn	0.95133	0.47566	0.96647	1.199
Mof_Zn	Zn	0.618	0.809	0.29981	1.199
Mof_Zn	Zn	0.28466	0.14233	0.63314	1.199
Mof_C 	C 	0.22526	0.77474	0.9753	0.061
Mof_H 	H 	0.2343	0.7657	0.9989	0.034
Mof_C 	C 	0.1959	0.8041	0.90478	-0.02
Mof_C 	C 	0.1808	0.8192	0.86803	0.044
Mof_C 	C 	0.89193	0.10807	0.30863	0.06
Mof_H 	H 	0.90097	0.09903	0.33223	0.035
Mof_C 	C 	0.86257	0.13743	0.23811	-0.019
Mof_C 	C 	0.84747	0.15253	0.20136	0.044
Mof_C 	C 	0.55859	0.44141	0.64197	0.061
Mof_H 	H 	0.56763	0.43237	0.66557	0.034
Mof_C 	C 	0.52923	0.47077	0.57145	-0.02
Mof_C 	C 	0.51413	0.48587	0.5347	0.044
Mof_C 	C 	0.22526	0.45052	0.9753	0.061
Mof_H 	H 	0.2343	0.4686	0.9989	0.034
Mof_C 	C 	0.1959	0.3918	0.90478	-0.02
Mof_C 	C 	0.1808	0.3616	0.86803	0.044
Mof_C 	C 	0.89193	0.78385	0.30863	0.061
Mof_H 	H 	0.90097	0.80193	0.33223	0.035
Mof_C 	C 	0.86257	0.72513	0.23811	-0.019
Mof_C 	C 	0.84747	0.69493	0.20136	0.044
Mof_C 	C 	0.55859	0.11719	0.64197	0.061
Mof_H 	H 	0.56763	0.13527	0.66557	0.034
Mof_C 	C 	0.52923	0.05847	0.57145	-0.02
Mof_C 	C 	0.51413	0.02827	0.5347	0.044
Mof_C 	C 	0.54948	0.77474	0.9753	0.061
Mof_H 	H 	0.5314	0.7657	0.9989	0.034
Mof_C 	C 	0.6082	0.8041	0.90478	-0.02
Mof_C 	C 	0.6384	0.8192	0.86803	0.044
Mof_C 	C 	0.21615	0.10807	0.30863	0.061
Mof_H 	H 	0.19807	0.09903	0.33223	0.035
Mof_C 	C 	0.27487	0.13743	0.23811	-0.019
Mof_C 	C 	0.30507	0.15253	0.20136	0.044
Mof_C 	C 	0.88281	0.44141	0.64197	0.061
Mof_H 	H 	0.86473	0.43237	0.66557	0.034
Mof_C 	C 	0.94153	0.47077	0.57145	-0.02
Mof_C 	C 	0.97173	0.48587	0.5347	0.044
Mof_C 	C 	0.77474	0.22526	0.0247	0.061
Mof_H 	H 	0.7657	0.2343	0.0011	0.034
Mof_C 	C 	0.8041	0.1959	0.09522	-0.02
Mof_C 	C 	0.8192	0.1808	0.13197	0.044
Mof_C 	C 	0.44141	0.55859	0.35803	0.061
Mof_H 	H 	0.43237	0.56763	0.33443	0.034
Mof_C 	C 	0.47077	0.52923	0.42855	-0.02
Mof_C 	C 	0.48587	0.51413	0.4653	0.044
Mof_C 	C 	0.10807	0.89193	0.69137	0.06
Mof_H 	H 	0.09903	0.90097	0.66777	0.035
Mof_C 	C 	0.13743	0.86257	0.76189	-0.019
Mof_C 	C 	0.15253	0.84747	0.79864	0.044
Mof_C 	C 	0.45052	0.22526	0.0247	0.061
Mof_H 	H 	0.4686	0.2343	0.0011	0.034
Mof_C 	C 	0.3918	0.1959	0.09522	-0.02
Mof_C 	C 	0.3616	0.1808	0.13197	0.044
Mof_C 	C 	0.11719	0.55859	0.35803	0.061
Mof_H 	H 	0.13527	0.56763	0.33443	0.034
Mof_C 	C 	0.05847	0.52923	0.42855	-0.02
Mof_C 	C 	0.02827	0.51413	0.4653	0.044
Mof_C 	C 	0.78385	0.89193	0.69137	0.061
Mof_H 	H 	0.80193	0.90097	0.66777	0.035
Mof_C 	C 	0.72513	0.86257	0.76189	-0.019
Mof_C 	C 	0.69493	0.84747	0.79864	0.044
Mof_C 	C 	0.77474	0.54948	0.0247	0.061
Mof_H 	H 	0.7657	0.5314	0.0011	0.034
Mof_C 	C 	0.8041	0.6082	0.09522	-0.02
Mof_C 	C 	0.8192	0.6384	0.13197	0.044
Mof_C 	C 	0.44141	0.88281	0.35803	0.061
Mof_H 	H 	0.43237	0.86473	0.33443	0.034
Mof_C 	C 	0.47077	0.94153	0.42855	-0.02
Mof_C 	C 	0.48587	0.97173	0.4653	0.044
Mof_C 	C 	0.10807	0.21615	0.69137	0.061
Mof_H 	H 	0.09903	0.19807	0.66777	0.035
Mof_C 	C 	0.13743	0.27487	0.76189	-0.019
Mof_C 	C 	0.15253	0.30507	0.79864	0.044
_end
