data_functionalizedCrystal
_audit_creation_method	'EQeq! by Chris Wilmer'
_symmetry_space_group_name_H-M	'P1'
_symmetry_Int_Tables_number	1
_symmetry_cell_setting	triclinic
loop_
_symmetry_equiv_pos_as_xyz
  x,y,z
_cell_length_a	19.651
_cell_length_b	14.8963
_cell_length_c	8.5229
_cell_angle_alpha	90
_cell_angle_beta	108.902
_cell_angle_gamma	90
loop_
_atom_site_label
_atom_site_type_symbol
_atom_site_fract_x
_atom_site_fract_y
_atom_site_fract_z
_atom_site_charge
Mof_C 	C 	0.10286	0.56515	0.52605	0.382
Mof_C 	C 	0.18022	0.58101	0.53497	-0.106
Mof_C 	C 	0.20569	0.54511	0.4147	0.013
Mof_H 	H 	0.176	0.5092	0.3311	0.039
Mof_C 	C 	0.27568	0.56283	0.4191	-0.072
Mof_H 	H 	0.2928	0.5385	0.3387	0.058
Mof_C 	C 	0.32	0.61657	0.5427	-0.021
Mof_H 	H 	0.3663	0.6295	0.5428	0.038
Mof_C 	C 	0.29596	0.65161	0.66714	-0.038
Mof_C 	C 	0.22561	0.63326	0.66121	-0.002
Mof_H 	H 	0.2087	0.6563	0.743	0.04
Mof_C 	C 	0.34387	0.70721	0.8024	0.103
Mof_C 	C 	0.39348	0.76633	0.77408	-0.164
Mof_H 	H 	0.3978	0.7706	0.6688	0.093
Mof_C 	C 	0.43637	0.81878	0.90186	0.095
Mof_H 	H 	0.4684	0.8585	0.8789	0.007
Mof_C 	C 	0.38714	0.75727	0.08574	0.1
Mof_H 	H 	0.3851	0.753	0.193	-0.001
Mof_C 	C 	0.3414	0.70348	0.96413	-0.171
Mof_H 	H 	0.3093	0.6651	0.9901	0.091
Mof_N 	N 	0.43403	0.8151	0.05754	-0.19
Mof_O 	O 	0.08362	0.5994	0.63945	-0.385
Mof_O 	O 	0.06334	0.52241	0.40557	-0.391
Mof_C 	C 	0.60286	0.06515	0.52605	0.389
Mof_C 	C 	0.68022	0.08101	0.53497	-0.108
Mof_C 	C 	0.70569	0.04511	0.4147	0.014
Mof_H 	H 	0.676	0.0092	0.3311	0.038
Mof_C 	C 	0.77568	0.06283	0.4191	-0.07
Mof_H 	H 	0.7928	0.0385	0.3387	0.061
Mof_C 	C 	0.82	0.11657	0.5427	-0.022
Mof_H 	H 	0.8663	0.1295	0.5428	0.049
Mof_C 	C 	0.79596	0.15161	0.66714	-0.035
Mof_C 	C 	0.72561	0.13326	0.66121	-0.001
Mof_H 	H 	0.7087	0.1563	0.743	0.039
Mof_C 	C 	0.84387	0.20721	0.8024	0.104
Mof_C 	C 	0.89348	0.26633	0.77408	-0.153
Mof_H 	H 	0.8978	0.2706	0.6688	0.1
Mof_C 	C 	0.93637	0.31878	0.90186	0.092
Mof_H 	H 	0.9684	0.3585	0.8789	0.036
Mof_C 	C 	0.88714	0.25727	0.08574	0.109
Mof_H 	H 	0.8851	0.253	0.193	0.007
Mof_C 	C 	0.8414	0.20348	0.96413	-0.17
Mof_H 	H 	0.8093	0.1651	0.9901	0.092
Mof_N 	N 	0.93403	0.3151	0.05754	-0.164
Mof_O 	O 	0.58362	0.0994	0.63945	-0.383
Mof_O 	O 	0.56334	0.02241	0.40557	-0.384
Mof_C 	C 	0.89714	0.56515	0.97395	0.365
Mof_C 	C 	0.81978	0.58101	0.96503	-0.098
Mof_C 	C 	0.79431	0.54511	0.0853	0.008
Mof_H 	H 	0.824	0.5092	0.1689	0.042
Mof_C 	C 	0.72432	0.56283	0.0809	-0.064
Mof_H 	H 	0.7072	0.5385	0.1613	0.055
Mof_C 	C 	0.68	0.61657	0.9573	-0.029
Mof_H 	H 	0.6337	0.6295	0.9572	0.04
Mof_C 	C 	0.70404	0.65161	0.83286	-0.034
Mof_C 	C 	0.77439	0.63326	0.83879	-0.008
Mof_H 	H 	0.7913	0.6563	0.757	0.042
Mof_C 	C 	0.65613	0.70721	0.6976	0.1
Mof_C 	C 	0.60652	0.76633	0.72592	-0.162
Mof_H 	H 	0.6022	0.7706	0.8312	0.092
Mof_C 	C 	0.56363	0.81878	0.59814	0.095
Mof_H 	H 	0.5316	0.8585	0.6211	0.007
Mof_C 	C 	0.61286	0.75727	0.41426	0.099
Mof_H 	H 	0.6149	0.753	0.307	-0.001
Mof_C 	C 	0.6586	0.70348	0.53587	-0.168
Mof_H 	H 	0.6907	0.6651	0.5099	0.09
Mof_N 	N 	0.56597	0.8151	0.44246	-0.19
Mof_O 	O 	0.91638	0.5994	0.86055	-0.339
Mof_O 	O 	0.93666	0.52241	0.09443	-0.33
Mof_C 	C 	0.39714	0.06515	0.97395	0.387
Mof_C 	C 	0.31978	0.08101	0.96503	-0.114
Mof_C 	C 	0.29431	0.04511	0.0853	0.02
Mof_H 	H 	0.324	0.0092	0.1689	0.035
Mof_C 	C 	0.22432	0.06283	0.0809	-0.074
Mof_H 	H 	0.2072	0.0385	0.1613	0.055
Mof_C 	C 	0.18	0.11657	0.9573	-0.022
Mof_H 	H 	0.1337	0.1295	0.9572	0.027
Mof_C 	C 	0.20404	0.15161	0.83286	-0.043
Mof_C 	C 	0.27439	0.13326	0.83879	0.002
Mof_H 	H 	0.2913	0.1563	0.757	0.038
Mof_C 	C 	0.15613	0.20721	0.6976	0.1
Mof_C 	C 	0.10652	0.26633	0.72592	-0.17
Mof_H 	H 	0.1022	0.2706	0.8312	0.086
Mof_C 	C 	0.06363	0.31878	0.59814	0.09
Mof_H 	H 	0.0316	0.3585	0.6211	-0.012
Mof_C 	C 	0.11286	0.25727	0.41426	0.093
Mof_H 	H 	0.1149	0.253	0.307	-0.005
Mof_C 	C 	0.1586	0.20348	0.53587	-0.173
Mof_H 	H 	0.1907	0.1651	0.5099	0.089
Mof_N 	N 	0.06597	0.3151	0.44246	-0.194
Mof_O 	O 	0.41638	0.0994	0.86055	-0.383
Mof_O 	O 	0.43666	0.02241	0.09443	-0.382
Mof_C 	C 	0.89714	0.43485	0.47395	0.369
Mof_C 	C 	0.81978	0.41899	0.46503	-0.096
Mof_C 	C 	0.79431	0.45489	0.5853	0.005
Mof_H 	H 	0.824	0.4908	0.6689	0.042
Mof_C 	C 	0.72432	0.43717	0.5809	-0.066
Mof_H 	H 	0.7072	0.4615	0.6613	0.055
Mof_C 	C 	0.68	0.38343	0.4573	-0.027
Mof_H 	H 	0.6337	0.3705	0.4572	0.04
Mof_C 	C 	0.70404	0.34839	0.33286	-0.033
Mof_C 	C 	0.77439	0.36674	0.33879	-0.008
Mof_H 	H 	0.7913	0.3437	0.257	0.043
Mof_C 	C 	0.65613	0.29279	0.1976	0.099
Mof_C 	C 	0.60652	0.23367	0.22592	-0.163
Mof_H 	H 	0.6022	0.2294	0.3312	0.093
Mof_C 	C 	0.56363	0.18122	0.09814	0.098
Mof_H 	H 	0.5316	0.1415	0.1211	0.007
Mof_C 	C 	0.61286	0.24273	0.91426	0.093
Mof_H 	H 	0.6149	0.247	0.807	0.001
Mof_C 	C 	0.6586	0.29652	0.03587	-0.163
Mof_H 	H 	0.6907	0.3349	0.0099	0.089
Mof_N 	N 	0.56597	0.1849	0.94246	-0.191
Mof_O 	O 	0.91638	0.4006	0.36055	-0.338
Mof_O 	O 	0.93666	0.47759	0.59443	-0.333
Mof_C 	C 	0.39714	0.93485	0.47395	0.39
Mof_C 	C 	0.31978	0.91899	0.46503	-0.112
Mof_C 	C 	0.29431	0.95489	0.5853	0.019
Mof_H 	H 	0.324	0.9908	0.6689	0.036
Mof_C 	C 	0.22432	0.93717	0.5809	-0.079
Mof_H 	H 	0.2072	0.9615	0.6613	0.057
Mof_C 	C 	0.18	0.88343	0.4573	-0.017
Mof_H 	H 	0.1337	0.8705	0.4572	0.026
Mof_C 	C 	0.20404	0.84839	0.33286	-0.045
Mof_C 	C 	0.27439	0.86674	0.33879	0.003
Mof_H 	H 	0.2913	0.8437	0.257	0.038
Mof_C 	C 	0.15613	0.79279	0.1976	0.101
Mof_C 	C 	0.10652	0.73367	0.22592	-0.171
Mof_H 	H 	0.1022	0.7294	0.3312	0.086
Mof_C 	C 	0.06363	0.68122	0.09814	0.092
Mof_H 	H 	0.0316	0.6415	0.1211	-0.013
Mof_C 	C 	0.11286	0.74273	0.91426	0.093
Mof_H 	H 	0.1149	0.747	0.807	-0.005
Mof_C 	C 	0.1586	0.79652	0.03587	-0.172
Mof_H 	H 	0.1907	0.8349	0.0099	0.089
Mof_N 	N 	0.06597	0.6849	0.94246	-0.194
Mof_O 	O 	0.41638	0.9006	0.36055	-0.383
Mof_O 	O 	0.43666	0.97759	0.59443	-0.385
Mof_C 	C 	0.10286	0.43485	0.02605	0.383
Mof_C 	C 	0.18022	0.41899	0.03497	-0.105
Mof_C 	C 	0.20569	0.45489	0.9147	0.012
Mof_H 	H 	0.176	0.4908	0.8311	0.039
Mof_C 	C 	0.27568	0.43717	0.9191	-0.074
Mof_H 	H 	0.2928	0.4615	0.8387	0.058
Mof_C 	C 	0.32	0.38343	0.0427	-0.018
Mof_H 	H 	0.3663	0.3705	0.0428	0.037
Mof_C 	C 	0.29596	0.34839	0.16714	-0.039
Mof_C 	C 	0.22561	0.36674	0.16121	-0.002
Mof_H 	H 	0.2087	0.3437	0.243	0.04
Mof_C 	C 	0.34387	0.29279	0.3024	0.103
Mof_C 	C 	0.39348	0.23367	0.27408	-0.165
Mof_H 	H 	0.3978	0.2294	0.1688	0.094
Mof_C 	C 	0.43637	0.18122	0.40186	0.096
Mof_H 	H 	0.4684	0.1415	0.3789	0.007
Mof_C 	C 	0.38714	0.24273	0.58574	0.1
Mof_H 	H 	0.3851	0.247	0.693	-0.001
Mof_C 	C 	0.3414	0.29652	0.46413	-0.17
Mof_H 	H 	0.3093	0.3349	0.4901	0.091
Mof_N 	N 	0.43403	0.1849	0.55754	-0.19
Mof_O 	O 	0.08362	0.4006	0.13945	-0.385
Mof_O 	O 	0.06334	0.47759	0.90557	-0.392
Mof_C 	C 	0.60286	0.93485	0.02605	0.388
Mof_C 	C 	0.68022	0.91899	0.03497	-0.108
Mof_C 	C 	0.70569	0.95489	0.9147	0.014
Mof_H 	H 	0.676	0.9908	0.8311	0.037
Mof_C 	C 	0.77568	0.93717	0.9191	-0.071
Mof_H 	H 	0.7928	0.9615	0.8387	0.061
Mof_C 	C 	0.82	0.88343	0.0427	-0.021
Mof_H 	H 	0.8663	0.8705	0.0428	0.049
Mof_C 	C 	0.79596	0.84839	0.16714	-0.034
Mof_C 	C 	0.72561	0.86674	0.16121	-0.002
Mof_H 	H 	0.7087	0.8437	0.243	0.04
Mof_C 	C 	0.84387	0.79279	0.3024	0.103
Mof_C 	C 	0.89348	0.73367	0.27408	-0.153
Mof_H 	H 	0.8978	0.7294	0.1688	0.1
Mof_C 	C 	0.93637	0.68122	0.40186	0.097
Mof_H 	H 	0.9684	0.6415	0.3789	0.036
Mof_C 	C 	0.88714	0.74273	0.58574	0.102
Mof_H 	H 	0.8851	0.747	0.693	0.009
Mof_C 	C 	0.8414	0.79652	0.46413	-0.162
Mof_H 	H 	0.8093	0.8349	0.4901	0.09
Mof_N 	N 	0.93403	0.6849	0.55754	-0.165
Mof_O 	O 	0.58362	0.9006	0.13945	-0.383
Mof_O 	O 	0.56334	0.97759	0.90557	-0.384
Mof_Mn	Mn	1.61472e-33	0.58035	0.75	0.833
Mof_Mn	Mn	0.5	0.08035	0.75	0.941
Mof_Mn	Mn	5.3824e-34	0.41965	0.25	0.833
Mof_Mn	Mn	0.5	0.91965	0.25	0.941
_end
