data_functionalizedCrystal
_audit_creation_method	'EQeq! by Chris Wilmer'
_symmetry_space_group_name_H-M	'P1'
_symmetry_Int_Tables_number	1
_symmetry_cell_setting	triclinic
loop_
_symmetry_equiv_pos_as_xyz
  x,y,z
_cell_length_a	14.7547
_cell_length_b	14.7547
_cell_length_c	14.7547
_cell_angle_alpha	60
_cell_angle_beta	60
_cell_angle_gamma	60
loop_
_atom_site_label
_atom_site_type_symbol
_atom_site_fract_x
_atom_site_fract_y
_atom_site_fract_z
_atom_site_charge
Mof_C 	C 	0.30002	0.00454	0.6909	0.448
Mof_C 	C 	0.44556	0.5397	0.08974	0.01
Mof_C 	C 	0.5397	0.08974	0.44558	0.01
Mof_C 	C 	0.00454	0.30002	0.00454	0.436
Mof_C 	C 	0.00692	0.39864	0.58754	-0.152
Mof_C 	C 	0.00454	0.6909	0.00454	0.415
Mof_C 	C 	0.925	0.5397	0.08974	0.036
Mof_C 	C 	0.5397	0.08974	0.925	0.036
Mof_C 	C 	0.00454	0.6909	0.30002	0.447
Mof_C 	C 	0.5397	0.44558	0.925	0.042
Mof_C 	C 	0.6909	0.00454	0.00454	0.415
Mof_C 	C 	0.925	0.5397	0.44558	0.042
Mof_C 	C 	0.30002	0.6909	0.00454	0.447
Mof_C 	C 	0.58754	0.39864	0.00692	-0.152
Mof_C 	C 	0.08974	0.5397	0.44558	0.009
Mof_C 	C 	0.08974	0.5397	0.925	0.036
Mof_C 	C 	0.39865	0.00691	0.00691	-0.17
Mof_C 	C 	0.6909	0.30002	0.00454	0.447
Mof_C 	C 	0.39864	0.00692	0.58754	-0.152
Mof_C 	C 	0.58754	0.00692	0.39864	-0.152
Mof_C 	C 	0.00454	0.30002	0.6909	0.447
Mof_C 	C 	0.00692	0.58754	0.39864	-0.152
Mof_C 	C 	0.00691	0.58755	0.00691	-0.172
Mof_C 	C 	0.6909	0.00454	0.30002	0.447
Mof_C 	C 	0.08974	0.925	0.5397	0.036
Mof_C 	C 	0.39864	0.58754	0.00692	-0.152
Mof_C 	C 	0.925	0.44558	0.08974	0.032
Mof_C 	C 	0.44556	0.08974	0.5397	0.009
Mof_C 	C 	0.925	0.44558	0.5397	0.042
Mof_C 	C 	0.08974	0.44558	0.925	0.032
Mof_C 	C 	0.08974	0.44558	0.5397	0.009
Mof_C 	C 	0.925	0.08974	0.5397	0.036
Mof_C 	C 	0.44556	0.5397	0.925	0.042
Mof_C 	C 	0.58755	0.00691	0.00691	-0.172
Mof_C 	C 	0.00691	0.00691	0.39865	-0.17
Mof_C 	C 	0.925	0.08974	0.44556	0.032
Mof_C 	C 	0.5397	0.925	0.44558	0.042
Mof_C 	C 	0.00454	0.00454	0.30002	0.435
Mof_C 	C 	0.5397	0.44558	0.08974	0.009
Mof_C 	C 	0.00691	0.00691	0.58755	-0.172
Mof_C 	C 	0.5397	0.925	0.08974	0.036
Mof_C 	C 	0.44556	0.925	0.08974	0.032
Mof_C 	C 	0.44556	0.925	0.5397	0.042
Mof_C 	C 	0.30002	0.00454	0.00454	0.435
Mof_C 	C 	0.00691	0.39865	0.00691	-0.17
Mof_C 	C 	0.00454	0.00454	0.6909	0.415
Mof_C 	C 	0.44556	0.08974	0.925	0.032
Mof_C 	C 	0.08974	0.925	0.44558	0.032
Mof_H 	H 	0.57791	0.15295	0.86167	0.036
Mof_H 	H 	0.86166	0.40746	0.57792	0.037
Mof_H 	H 	0.90558	0.90558	0.28324	0.311
Mof_H 	H 	0.86167	0.15295	0.40745	0.036
Mof_H 	H 	0.57792	0.15294	0.40746	0.038
Mof_H 	H 	0.15294	0.40746	0.86166	0.036
Mof_H 	H 	0.57792	0.86166	0.15294	0.036
Mof_H 	H 	0.86166	0.57792	0.15294	0.036
Mof_H 	H 	0.86166	0.57792	0.40746	0.037
Mof_H 	H 	0.28325	0.90559	0.90557	0.31
Mof_H 	H 	0.15294	0.86168	0.40746	0.036
Mof_H 	H 	0.57792	0.86166	0.40746	0.037
Mof_H 	H 	0.15294	0.86168	0.57792	0.036
Mof_H 	H 	0.90558	0.90558	0.90558	0.318
Mof_H 	H 	0.15294	0.40746	0.57792	0.038
Mof_H 	H 	0.40745	0.15295	0.86167	0.036
Mof_H 	H 	0.40746	0.57792	0.86166	0.037
Mof_H 	H 	0.40746	0.15294	0.57792	0.038
Mof_H 	H 	0.90559	0.28325	0.90557	0.31
Mof_H 	H 	0.15294	0.57792	0.40746	0.038
Mof_H 	H 	0.86167	0.15295	0.57791	0.036
Mof_H 	H 	0.15294	0.57792	0.86166	0.036
Mof_H 	H 	0.86166	0.40746	0.15294	0.036
Mof_H 	H 	0.40746	0.86168	0.15294	0.036
Mof_H 	H 	0.40746	0.86168	0.57792	0.037
Mof_H 	H 	0.57792	0.40746	0.15294	0.038
Mof_H 	H 	0.40746	0.57792	0.15294	0.038
Mof_H 	H 	0.57792	0.40746	0.86166	0.037
Mof_O 	O 	0.26174	0.73228	0.08	-0.655
Mof_O 	O 	0.93249	0.20253	0.93249	-1.15
Mof_O 	O 	0.08	0.26174	0.73228	-0.655
Mof_O 	O 	0.92598	0.08	0.26174	-0.635
Mof_O 	O 	0.26174	0.08	0.73228	-0.655
Mof_O 	O 	0.04964	0.04964	0.85108	-1.408
Mof_O 	O 	0.92598	0.26174	0.73228	-0.621
Mof_O 	O 	0.73228	0.26174	0.08	-0.655
Mof_O 	O 	0.26174	0.92598	0.08	-0.635
Mof_O 	O 	0.04964	0.04964	0.04966	-1.414
Mof_O 	O 	0.26174	0.73228	0.92598	-0.621
Mof_O 	O 	0.73228	0.92598	0.08	-0.625
Mof_O 	O 	0.92598	0.26174	0.08	-0.635
Mof_O 	O 	0.08	0.92598	0.26174	-0.635
Mof_O 	O 	0.93249	0.93249	0.20253	-1.15
Mof_O 	O 	0.08	0.73228	0.26174	-0.655
Mof_O 	O 	0.08	0.92598	0.73228	-0.625
Mof_O 	O 	0.73228	0.08	0.26174	-0.655
Mof_O 	O 	0.93249	0.93249	0.93249	-1.117
Mof_O 	O 	0.08	0.26174	0.92598	-0.635
Mof_O 	O 	0.73228	0.08	0.92598	-0.625
Mof_O 	O 	0.85107	0.04965	0.04965	-1.408
Mof_O 	O 	0.26174	0.92598	0.73228	-0.621
Mof_O 	O 	0.92598	0.73228	0.26174	-0.621
Mof_O 	O 	0.73228	0.92598	0.26174	-0.621
Mof_O 	O 	0.26174	0.08	0.92598	-0.635
Mof_O 	O 	0.73228	0.26174	0.92598	-0.621
Mof_O 	O 	0.20253	0.93249	0.93249	-1.15
Mof_O 	O 	0.92598	0.08	0.73228	-0.625
Mof_O 	O 	0.04965	0.85107	0.04965	-1.408
Mof_O 	O 	0.92598	0.73228	0.08	-0.625
Mof_O 	O 	0.08	0.73228	0.92598	-0.625
Mof_Zr	Zr	0.87956	0.12044	0.87956	3.214
Mof_Zr	Zr	0.12044	0.12044	0.87956	3.212
Mof_Zr	Zr	0.87956	0.12044	0.12044	3.212
Mof_Zr	Zr	0.87956	0.87956	0.12044	3.214
Mof_Zr	Zr	0.12044	0.87956	0.87956	3.214
Mof_Zr	Zr	0.12044	0.87956	0.12044	3.212
_end
