data_functionalizedCrystal
_audit_creation_method	'EQeq! by Chris Wilmer'
_symmetry_space_group_name_H-M	'P1'
_symmetry_Int_Tables_number	1
_symmetry_cell_setting	triclinic
loop_
_symmetry_equiv_pos_as_xyz
  x,y,z
_cell_length_a	18.67
_cell_length_b	24.31
_cell_length_c	14.01
_cell_angle_alpha	89.258
_cell_angle_beta	135.719
_cell_angle_gamma	90.789
loop_
_atom_site_label
_atom_site_type_symbol
_atom_site_fract_x
_atom_site_fract_y
_atom_site_fract_z
_atom_site_charge
Mof_C 	C 	0.7506	0.3749	0.7881	-0.004
Mof_C 	C 	0.7704	0.3772	0.6366	-0.005
Mof_C 	C 	0.947	0.5731	0.9103	0.405
Mof_C 	C 	0.5728	0.5762	0.5276	0.385
Mof_C 	C 	0.76	0.6769	0.7204	0.369
Mof_C 	C 	0.7603	0.4074	0.713	-0.076
Mof_C 	C 	0.7599	0.4714	0.7148	0.372
Mof_C 	C 	0.8582	0.5912	0.5101	0.041
Mof_C 	C 	0.8549	0.5908	0.4065	-0.067
Mof_C 	C 	0.7645	0.5756	0.2734	0.026
Mof_C 	C 	0.6803	0.5602	0.2488	-0.065
Mof_C 	C 	0.6876	0.5601	0.3554	0.037
Mof_C 	C 	0.6701	0.5971	0.9315	0.04
Mof_C 	C 	0.6747	0.5989	0.0361	-0.059
Mof_C 	C 	0.758	0.5745	0.1638	0.02
Mof_C 	C 	0.8337	0.5478	0.1818	-0.059
Mof_C 	C 	0.825	0.5459	0.0739	0.034
Mof_C 	C 	0.7589	0.7408	0.7268	-0.082
Mof_C 	C 	0.7694	0.7777	0.6572	-0.01
Mof_C 	C 	0.7676	0.8368	0.6668	0.013
Mof_C 	C 	0.7552	0.8603	0.7465	0.007
Mof_C 	C 	0.7448	0.824	0.8151	-0.049
Mof_C 	C 	0.7466	0.7661	0.8054	0.009
Mof_C 	C 	0.7534	0.9194	0.7561	-0.004
Mof_C 	C 	0.7639	0.9563	0.6865	-0.099
Mof_C 	C 	0.7761	0.931	0.6079	0.023
Mof_C 	C 	0.778	0.8731	0.5982	-0.056
Mof_C 	C 	0.1357	0.1236	0.0126	0.009
Mof_C 	C 	0.243	0.1225	0.1362	0.006
Mof_C 	C 	0.277	0.1199	0.2645	0.012
Mof_C 	C 	0.2026	0.118	0.2665	-0.055
Mof_C 	C 	0.0971	0.1189	0.1447	0.023
Mof_C 	C 	0.3843	0.119	0.3881	-0.003
Mof_C 	C 	0.4594	0.1205	0.3859	-0.095
Mof_C 	C 	0.4228	0.1228	0.2559	0.018
Mof_C 	C 	0.3173	0.1239	0.1341	-0.051
Mof_C 	C 	0.1334	0.5823	0.0256	0.018
Mof_C 	C 	0.2407	0.5811	0.1491	-0.011
Mof_C 	C 	0.2747	0.5749	0.2771	0.052
Mof_C 	C 	0.2004	0.5704	0.2788	-0.068
Mof_C 	C 	0.0949	0.5719	0.157	0.032
Mof_C 	C 	0.382	0.5734	0.4006	-0.069
Mof_C 	C 	0.4572	0.5781	0.3988	-0.059
Mof_C 	C 	0.4205	0.5848	0.2694	0.003
Mof_C 	C 	0.315	0.5861	0.1476	-0.037
Mof_C 	C 	0.7626	0.0164	0.7046	0.381
Mof_C 	C 	0.751	0.3161	0.7868	-0.004
Mof_C 	C 	0.7709	0.3184	0.6353	-0.004
Mof_C 	C 	0.575	0.1199	0.5147	0.393
Mof_C 	C 	0.9493	0.1175	0.8976	0.404
Mof_C 	C 	0.7612	0.2859	0.7104	-0.077
Mof_C 	C 	0.7617	0.2219	0.7089	0.372
Mof_C 	C 	0.8555	0.0991	0.496	0.035
Mof_C 	C 	0.8514	0.0975	0.3918	-0.061
Mof_C 	C 	0.7651	0.1188	0.2614	0.02
Mof_C 	C 	0.6861	0.1425	0.2403	-0.06
Mof_C 	C 	0.6944	0.1444	0.3479	0.032
Mof_C 	C 	0.6672	0.098	0.9176	0.041
Mof_C 	C 	0.6709	0.0983	0.0216	-0.066
Mof_C 	C 	0.7585	0.1177	0.1518	0.026
Mof_C 	C 	0.8396	0.1373	0.1731	-0.065
Mof_C 	C 	0.8317	0.1375	0.066	0.037
Mof_C 	C 	0.0583	0.5777	0.0274	-0.118
Mof_C 	C 	0.0605	0.1219	0.0147	-0.112
Mof_H 	H 	0.7421	0.3956	0.8526	0.044
Mof_H 	H 	0.7786	0.3998	0.573	0.042
Mof_H 	H 	0.9312	0.6044	0.6175	0.014
Mof_H 	H 	0.9255	0.6026	0.4305	0.044
Mof_H 	H 	0.6058	0.5479	0.1418	0.047
Mof_H 	H 	0.619	0.5462	0.3345	0.018
Mof_H 	H 	0.6032	0.6179	0.8288	0.024
Mof_H 	H 	0.6108	0.6201	0.0173	0.045
Mof_H 	H 	0.9022	0.5275	0.2843	0.043
Mof_H 	H 	0.8861	0.5232	0.0889	0.018
Mof_H 	H 	0.7794	0.7592	0.5926	0.042
Mof_H 	H 	0.7346	0.8409	0.8808	0.04
Mof_H 	H 	0.738	0.738	0.8623	0.039
Mof_H 	H 	0.7432	0.9363	0.8218	0.041
Mof_H 	H 	0.7851	0.9573	0.5491	0.036
Mof_H 	H 	0.788	0.8546	0.5336	0.042
Mof_H 	H 	0.1088	0.1259	0.9095	0.039
Mof_H 	H 	0.2273	0.1158	0.3682	0.042
Mof_H 	H 	0.0384	0.1171	0.1491	0.037
Mof_H 	H 	0.409	0.117	0.4898	0.041
Mof_H 	H 	0.4792	0.1239	0.2473	0.035
Mof_H 	H 	0.2907	0.1259	0.0311	0.041
Mof_H 	H 	0.1065	0.587	0.9227	0.037
Mof_H 	H 	0.225	0.5654	0.3801	0.059
Mof_H 	H 	0.0361	0.5684	0.1611	0.037
Mof_H 	H 	0.4067	0.5682	0.502	0.211
Mof_H 	H 	0.4769	0.5894	0.2612	0.039
Mof_H 	H 	0.2883	0.5914	0.045	0.039
Mof_H 	H 	0.7427	0.2935	0.8502	0.042
Mof_H 	H 	0.7794	0.2977	0.5709	0.041
Mof_H 	H 	0.9248	0.0808	0.6009	0.016
Mof_H 	H 	0.918	0.079	0.4131	0.042
Mof_H 	H 	0.6151	0.1601	0.1356	0.043
Mof_H 	H 	0.6305	0.1648	0.3303	0.018
Mof_H 	H 	0.5967	0.0815	0.8127	0.014
Mof_H 	H 	0.6029	0.0829	0.0002	0.044
Mof_H 	H 	0.9117	0.1532	0.2778	0.044
Mof_H 	H 	0.8973	0.1548	0.0839	0.016
Mof_N 	N 	0.7448	0.5709	0.952	-0.244
Mof_N 	N 	0.7749	0.5761	0.483	-0.248
Mof_N 	N 	0.7472	0.1174	0.9414	-0.248
Mof_N 	N 	0.7774	0.1223	0.4724	-0.246
Mof_O 	O 	0.8859	0.572	0.9234	-0.485
Mof_O 	O 	0.6098	0.5735	0.6473	-0.45
Mof_O 	O 	0.7499	0.6475	0.787	-0.456
Mof_O 	O 	0.75	0.4971	0.7848	-0.449
Mof_O 	O 	0.6341	0.5774	0.5147	-0.477
Mof_O 	O 	0.9099	0.5749	0.7903	-0.469
Mof_O 	O 	0.7696	0.4998	0.6467	-0.451
Mof_O 	O 	0.7707	0.6521	0.65	-0.445
Mof_O 	O 	0.7727	0.0457	0.6378	-0.458
Mof_O 	O 	0.7518	0.0412	0.7747	-0.449
Mof_O 	O 	0.6121	0.1183	0.6347	-0.465
Mof_O 	O 	0.8879	0.1163	0.9104	-0.485
Mof_O 	O 	0.7521	0.1935	0.7771	-0.452
Mof_O 	O 	0.9123	0.1199	0.7778	-0.468
Mof_O 	O 	0.6362	0.1209	0.5016	-0.479
Mof_O 	O 	0.7717	0.1962	0.639	-0.452
Mof_O 	O 	0.4199	0.5418	0.5577	-0.27
Mof_Zn	Zn	0.7469	0.572	0.8171	1.263
Mof_Zn	Zn	0.7731	0.5762	0.6187	1.26
Mof_Zn	Zn	0.749	0.1172	0.8058	1.26
Mof_Zn	Zn	0.7753	0.1212	0.6075	1.262
_end
