data_functionalizedCrystal
_audit_creation_method	'EQeq! by Chris Wilmer'
_symmetry_space_group_name_H-M	'P1'
_symmetry_Int_Tables_number	1
_symmetry_cell_setting	triclinic
loop_
_symmetry_equiv_pos_as_xyz
  x,y,z
_cell_length_a	17.4421
_cell_length_b	17.4421
_cell_length_c	26.682
_cell_angle_alpha	90.0326
_cell_angle_beta	90.0326
_cell_angle_gamma	98.7212
loop_
_atom_site_label
_atom_site_type_symbol
_atom_site_fract_x
_atom_site_fract_y
_atom_site_fract_z
_atom_site_charge
Mof_Mn	Mn	0.7684	0.7308	0.24953	0.906
Mof_Mn	Mn	0.2692	0.2316	0.25047	0.902
Mof_Mn	Mn	0.2316	0.2692	0.75047	0.901
Mof_Mn	Mn	0.7308	0.7684	0.74953	0.906
Mof_Mn	Mn	0.5	0.5	0.5	0.82
Mof_Mn	Mn	0.5	0.5	-0	0.768
Mof_Mn	Mn	-1.38371e-20	-1.10697e-19	0.5	0.704
Mof_Mn	Mn	-0	0	-0	0.654
Mof_Mn	Mn	-1.1637e-17	0.5	0.5	0.864
Mof_Mn	Mn	0.5	0	-0	0.815
Mof_Mn	Mn	0.5	-1.10697e-19	0.5	0.764
Mof_Mn	Mn	-1.41692e-17	0.5	-0	0.716
Mof_H 	H 	0.6665	0.4079	0.3598	0.07
Mof_H 	H 	0.5713	0.2925	0.3799	0.068
Mof_H 	H 	0.6444	0.7762	0.4814	0.062
Mof_H 	H 	0.7031	0.7045	0.4165	0.078
Mof_H 	H 	0.671	0.6344	0.3316	0.05
Mof_H 	H 	0.8891	0.6207	0.3005	0.041
Mof_H 	H 	0.895	0.5326	0.3641	0.088
Mof_H 	H 	0.7869	0.4965	0.4154	0.062
Mof_H 	H 	0.4985	0.8193	0.5044	0.063
Mof_H 	H 	0.5941	0.9705	0.6035	0.058
Mof_H 	H 	0.6345	0.8739	0.6514	0.077
Mof_H 	H 	0.6052	0.7438	0.6247	0.081
Mof_H 	H 	0.0621	0.8107	0.6362	0.051
Mof_H 	H 	0.189	0.8884	0.617	0.085
Mof_H 	H 	0.7126	0.8842	0.5092	0.066
Mof_H 	H 	0.7736	0.8126	0.5742	0.062
Mof_H 	H 	0.3193	0.9789	0.5029	0.036
Mof_H 	H 	0.4653	0.0473	0.6117	0.026
Mof_H 	H 	0.3663	0.0697	0.6637	0.084
Mof_H 	H 	0.237	0.0452	0.6346	0.058
Mof_H 	H 	0.8466	0.8556	0.6636	0.058
Mof_H 	H 	0.8111	0.6351	0.7007	0.034
Mof_H 	H 	0.8972	0.605	0.6409	0.077
Mof_H 	H 	0.9556	0.7028	0.5866	0.082
Mof_H 	H 	0.875	0.2658	0.6044	0.084
Mof_H 	H 	0.7754	0.353	0.6028	0.067
Mof_H 	H 	0.7571	0.6307	0.5248	0.064
Mof_H 	H 	0.8437	0.7243	0.4729	0.065
Mof_H 	H 	0.6791	0.4797	0.5051	0.03
Mof_H 	H 	0.5396	0.49	0.619	0.019
Mof_H 	H 	0.6407	0.4961	0.6752	0.084
Mof_H 	H 	0.7675	0.4979	0.6452	0.055
Mof_H 	H 	0.0177	0.8167	0.4904	0.059
Mof_H 	H 	0.9738	0.9554	0.382	0.043
Mof_H 	H 	0.9439	0.8517	0.3274	0.074
Mof_H 	H 	0.9484	0.7258	0.3564	0.078
Mof_H 	H 	0.5921	0.3335	0.1402	0.067
Mof_H 	H 	0.7075	0.4287	0.1201	0.074
Mof_H 	H 	0.2238	0.3556	0.0186	0.04
Mof_H 	H 	0.2955	0.2969	0.0835	0.081
Mof_H 	H 	0.3656	0.329	0.1684	0.049
Mof_H 	H 	0.3793	0.1109	0.1995	0.033
Mof_H 	H 	0.4674	0.105	0.1359	0.08
Mof_H 	H 	0.5035	0.2131	0.0846	0.056
Mof_H 	H 	0.1807	0.5015	0.9956	0.074
Mof_H 	H 	0.0295	0.4059	0.8965	0.033
Mof_H 	H 	0.1261	0.3655	0.8486	0.074
Mof_H 	H 	0.2562	0.3948	0.8753	0.077
Mof_H 	H 	0.1893	0.9379	0.8638	0.092
Mof_H 	H 	0.1116	0.811	0.883	0.052
Mof_H 	H 	0.1158	0.2874	0.9908	0.047
Mof_H 	H 	0.1874	0.2264	0.9258	0.083
Mof_H 	H 	0.0211	0.6807	0.9971	0.092
Mof_H 	H 	0.9527	0.5347	0.8883	0.054
Mof_H 	H 	0.9303	0.6337	0.8363	0.072
Mof_H 	H 	0.9548	0.763	0.8654	0.097
Mof_H 	H 	0.1444	0.1534	0.8364	0.051
Mof_H 	H 	0.3649	0.1889	0.7993	0.035
Mof_H 	H 	0.395	0.1028	0.8591	0.06
Mof_H 	H 	0.2972	0.0444	0.9134	0.076
Mof_H 	H 	0.7342	0.125	0.8956	0.061
Mof_H 	H 	0.647	0.2246	0.8972	0.076
Mof_H 	H 	0.3693	0.2429	0.9752	0.051
Mof_H 	H 	0.2757	0.1563	0.0271	0.08
Mof_H 	H 	0.5203	0.3209	0.9949	0.045
Mof_H 	H 	0.51	0.4604	0.881	0.021
Mof_H 	H 	0.5039	0.3593	0.8248	0.083
Mof_H 	H 	0.5021	0.2325	0.8548	0.052
Mof_H 	H 	0.1833	0.9823	0.0096	0.007
Mof_H 	H 	0.0446	0.0262	0.118	-0.003
Mof_H 	H 	0.1483	0.0561	0.1726	0.079
Mof_H 	H 	0.2742	0.0516	0.1436	0.048
Mof_H 	H 	0.3335	0.5921	0.6402	0.069
Mof_H 	H 	0.4287	0.7075	0.6201	0.071
Mof_H 	H 	0.3556	0.2238	0.5186	0.06
Mof_H 	H 	0.2969	0.2955	0.5835	0.078
Mof_H 	H 	0.329	0.3656	0.6684	0.049
Mof_H 	H 	0.1109	0.3793	0.6995	0.033
Mof_H 	H 	0.105	0.4674	0.6359	0.079
Mof_H 	H 	0.2131	0.5035	0.5846	0.063
Mof_H 	H 	0.5015	0.1807	0.4956	0.061
Mof_H 	H 	0.4059	0.0295	0.3965	0.031
Mof_H 	H 	0.3655	0.1261	0.3486	0.072
Mof_H 	H 	0.3948	0.2562	0.3753	0.08
Mof_H 	H 	0.9379	0.1893	0.3638	0.093
Mof_H 	H 	0.811	0.1116	0.383	0.048
Mof_H 	H 	0.2874	0.1158	0.4908	0.057
Mof_H 	H 	0.2264	0.1874	0.4258	0.069
Mof_H 	H 	0.6807	0.0211	0.4971	0.074
Mof_H 	H 	0.5347	0.9527	0.3883	0.05
Mof_H 	H 	0.6337	0.9303	0.3363	0.074
Mof_H 	H 	0.763	0.9548	0.3654	0.094
Mof_H 	H 	0.1534	0.1444	0.3364	0.05
Mof_H 	H 	0.1889	0.3649	0.2993	0.034
Mof_H 	H 	0.1028	0.395	0.3591	0.06
Mof_H 	H 	0.0444	0.2972	0.4134	0.068
Mof_H 	H 	0.125	0.7342	0.3956	0.06
Mof_H 	H 	0.2246	0.647	0.3972	0.073
Mof_H 	H 	0.2429	0.3693	0.4752	0.063
Mof_H 	H 	0.1563	0.2757	0.5271	0.064
Mof_H 	H 	0.3209	0.5203	0.4949	0.031
Mof_H 	H 	0.4604	0.51	0.381	0.019
Mof_H 	H 	0.3593	0.5039	0.3248	0.083
Mof_H 	H 	0.2325	0.5021	0.3548	0.052
Mof_H 	H 	0.9823	0.1833	0.5096	0.017
Mof_H 	H 	0.0262	0.0446	0.618	-0.004
Mof_H 	H 	0.0561	0.1483	0.6726	0.079
Mof_H 	H 	0.0516	0.2742	0.6436	0.047
Mof_H 	H 	0.4079	0.6665	0.8598	0.072
Mof_H 	H 	0.2925	0.5713	0.8799	0.066
Mof_H 	H 	0.7762	0.6444	0.9814	0.083
Mof_H 	H 	0.7045	0.7031	0.9165	0.075
Mof_H 	H 	0.6344	0.671	0.8316	0.05
Mof_H 	H 	0.6207	0.8891	0.8005	0.041
Mof_H 	H 	0.5326	0.895	0.8641	0.088
Mof_H 	H 	0.4965	0.7869	0.9154	0.07
Mof_H 	H 	0.8193	0.4985	0.0044	0.054
Mof_H 	H 	0.9705	0.5941	0.1035	0.06
Mof_H 	H 	0.8739	0.6345	0.1514	0.074
Mof_H 	H 	0.7438	0.6052	0.1247	0.084
Mof_H 	H 	0.8107	0.0621	0.1362	0.051
Mof_H 	H 	0.8884	0.189	0.117	0.081
Mof_H 	H 	0.8842	0.7126	0.0092	0.076
Mof_H 	H 	0.8126	0.7736	0.0742	0.049
Mof_H 	H 	0.9789	0.3193	0.0029	0.021
Mof_H 	H 	0.0473	0.4653	0.1117	0.025
Mof_H 	H 	0.0697	0.3663	0.1637	0.086
Mof_H 	H 	0.0452	0.237	0.1346	0.054
Mof_H 	H 	0.8556	0.8466	0.1636	0.057
Mof_H 	H 	0.6351	0.8111	0.2007	0.034
Mof_H 	H 	0.605	0.8972	0.1409	0.078
Mof_H 	H 	0.7028	0.9556	0.0866	0.075
Mof_H 	H 	0.2658	0.875	0.1044	0.083
Mof_H 	H 	0.353	0.7754	0.1028	0.065
Mof_H 	H 	0.6307	0.7571	0.0248	0.075
Mof_H 	H 	0.7243	0.8437	0.9729	0.05
Mof_H 	H 	0.4797	0.6791	0.0051	0.019
Mof_H 	H 	0.49	0.5396	0.119	0.02
Mof_H 	H 	0.4961	0.6407	0.1752	0.084
Mof_H 	H 	0.4979	0.7675	0.1452	0.055
Mof_H 	H 	0.8167	0.0177	0.9904	0.071
Mof_H 	H 	0.9554	0.9738	0.882	0.044
Mof_H 	H 	0.8517	0.9439	0.8274	0.074
Mof_H 	H 	0.7258	0.9484	0.8564	0.076
Mof_C 	C 	0.60974	0.4675	0.41534	0.102
Mof_C 	C 	0.62638	0.40514	0.38406	-0.072
Mof_C 	C 	0.57508	0.34206	0.39526	-0.07
Mof_C 	C 	0.47271	0.63643	0.56533	0.108
Mof_C 	C 	0.53152	0.68832	0.5409	-0.1
Mof_C 	C 	0.57284	0.6692	0.49927	0.102
Mof_C 	C 	0.63097	0.72251	0.4741	-0.067
Mof_C 	C 	0.66281	0.68363	0.43877	-0.078
Mof_C 	C 	0.62549	0.60493	0.44026	0.101
Mof_C 	C 	0.64739	0.54359	0.41186	-0.097
Mof_C 	C 	0.71657	0.56235	0.37892	0.03
Mof_C 	C 	0.71719	0.61377	0.33887	0.007
Mof_C 	C 	0.84438	0.60542	0.32044	0.046
Mof_C 	C 	0.84854	0.55346	0.35849	-0.068
Mof_C 	C 	0.78462	0.5318	0.38853	-0.041
Mof_C 	C 	0.54964	0.76818	0.5607	0.047
Mof_C 	C 	0.52695	0.83003	0.53464	-0.016
Mof_C 	C 	0.58233	0.91827	0.59244	0.039
Mof_C 	C 	0.60658	0.86122	0.62119	-0.05
Mof_C 	C 	0.58958	0.78442	0.60526	-0.069
Mof_C 	C 	0.01467	0.87993	0.58195	0.047
Mof_C 	C 	0.07146	0.85174	0.61261	-0.041
Mof_C 	C 	0.14069	0.89395	0.60205	-0.101
Mof_C 	C 	0.12814	0.94876	0.56414	0.152
Mof_C 	C 	0.18626	0.003	0.54291	-0.125
Mof_C 	C 	0.17374	0.05162	0.50317	0.102
Mof_C 	C 	0.76585	0.89219	0.51831	-0.071
Mof_C 	C 	0.79922	0.85312	0.55371	-0.066
Mof_C 	C 	0.87977	0.88347	0.55501	0.093
Mof_C 	C 	0.93486	0.85392	0.58432	-0.04
Mof_C 	C 	0.26493	0.01135	0.56444	-0.028
Mof_C 	C 	0.32846	0.99812	0.53605	0.099
Mof_C 	C 	0.41359	0.03741	0.59949	0.056
Mof_C 	C 	0.3552	0.051	0.63063	-0.085
Mof_C 	C 	0.27871	0.03709	0.61335	-0.018
Mof_C 	C 	0.90536	0.78908	0.61847	0.026
Mof_C 	C 	0.85573	0.80395	0.65825	0.006
Mof_C 	C 	0.83658	0.67562	0.68021	0.054
Mof_C 	C 	0.88668	0.65672	0.64399	-0.058
Mof_C 	C 	0.92137	0.71429	0.61226	-0.041
Mof_C 	C 	0.94487	0.35257	0.55987	0.159
Mof_C 	C 	0.87928	0.31478	0.58827	-0.087
Mof_C 	C 	0.82508	0.36254	0.58745	-0.061
Mof_C 	C 	0.85607	0.43043	0.55931	0.109
Mof_C 	C 	0.8164	0.49282	0.54921	-0.09
Mof_C 	C 	0.84588	0.55716	0.52056	0.107
Mof_C 	C 	0.80679	0.62425	0.51249	-0.075
Mof_C 	C 	0.85412	0.67538	0.48441	-0.073
Mof_C 	C 	0.924	0.64186	0.47511	0.106
Mof_C 	C 	0.98811	0.67879	0.44798	-0.063
Mof_C 	C 	0.73682	0.48936	0.5713	0.023
Mof_C 	C 	0.67185	0.48417	0.54017	0.005
Mof_C 	C 	0.59044	0.4896	0.60638	0.064
Mof_C 	C 	0.6504	0.49368	0.64026	-0.07
Mof_C 	C 	0.72498	0.49424	0.62263	-0.036
Mof_C 	C 	0.98263	0.75749	0.42696	0.094
Mof_C 	C 	0.00131	0.82337	0.45695	-0.1
Mof_C 	C 	0.97645	0.90455	0.39386	0.042
Mof_C 	C 	0.95827	0.84313	0.3611	-0.029
Mof_C 	C 	0.96115	0.76885	0.37824	-0.074
Mof_C 	C 	0.5325	0.39026	0.08466	0.097
Mof_C 	C 	0.59486	0.37362	0.11594	-0.067
Mof_C 	C 	0.65794	0.42492	0.10474	-0.081
Mof_C 	C 	0.36357	0.52729	0.93467	0.095
Mof_C 	C 	0.31168	0.46848	0.9591	-0.046
Mof_C 	C 	0.3308	0.42716	0.00073	0.046
Mof_C 	C 	0.27749	0.36903	0.0259	-0.044
Mof_C 	C 	0.31637	0.33719	0.06123	-0.096
Mof_C 	C 	0.39507	0.37451	0.05974	0.101
Mof_C 	C 	0.45641	0.35261	0.08814	-0.1
Mof_C 	C 	0.43765	0.28343	0.12108	0.028
Mof_C 	C 	0.38623	0.28281	0.16113	0.007
Mof_C 	C 	0.39458	0.15562	0.17956	0.046
Mof_C 	C 	0.44654	0.15146	0.14151	-0.07
Mof_C 	C 	0.4682	0.21538	0.11147	-0.041
Mof_C 	C 	0.23182	0.45036	0.9393	0.033
Mof_C 	C 	0.16997	0.47305	0.96536	-0.006
Mof_C 	C 	0.08173	0.41767	0.90756	0.041
Mof_C 	C 	0.13878	0.39342	0.87881	-0.062
Mof_C 	C 	0.21558	0.41042	0.89474	-0.057
Mof_C 	C 	0.12007	0.98533	0.91805	0.163
Mof_C 	C 	0.14826	0.92854	0.88739	-0.106
Mof_C 	C 	0.10605	0.85931	0.89795	-0.047
Mof_C 	C 	0.05124	0.87186	0.93586	0.069
Mof_C 	C 	0.997	0.81374	0.95709	-0.088
Mof_C 	C 	0.94838	0.82626	0.99683	0.182
Mof_C 	C 	0.10781	0.23415	0.98169	0.007
Mof_C 	C 	0.14688	0.20078	0.94629	-0.117
Mof_C 	C 	0.11653	0.12023	0.94499	0.129
Mof_C 	C 	0.14608	0.06514	0.91568	-0.156
Mof_C 	C 	0.98865	0.73507	0.93556	0.12
Mof_C 	C 	0.00188	0.67154	0.96395	-0.111
Mof_C 	C 	0.96259	0.58641	0.90051	0.029
Mof_C 	C 	0.949	0.6448	0.86937	-0.012
Mof_C 	C 	0.96291	0.72129	0.88665	-0.088
Mof_C 	C 	0.21092	0.09464	0.88153	0.053
Mof_C 	C 	0.19605	0.14427	0.84175	-0.017
Mof_C 	C 	0.32438	0.16342	0.81979	0.04
Mof_C 	C 	0.34328	0.11332	0.85601	-0.048
Mof_C 	C 	0.28571	0.07863	0.88774	-0.073
Mof_C 	C 	0.64743	0.05513	0.94013	0.068
Mof_C 	C 	0.68522	0.12072	0.91173	-0.052
Mof_C 	C 	0.63746	0.17492	0.91255	-0.081
Mof_C 	C 	0.56957	0.14393	0.94069	0.117
Mof_C 	C 	0.50718	0.1836	0.95079	-0.093
Mof_C 	C 	0.44284	0.15412	0.97944	0.12
Mof_C 	C 	0.37575	0.19321	0.98751	-0.009
Mof_C 	C 	0.32462	0.14588	0.01559	-0.148
Mof_C 	C 	0.35814	0.076	0.02489	0.123
Mof_C 	C 	0.32121	0.01189	0.05202	-0.134
Mof_C 	C 	0.51064	0.26318	0.9287	0.028
Mof_C 	C 	0.51583	0.32815	0.95983	0.006
Mof_C 	C 	0.5104	0.40956	0.89362	0.064
Mof_C 	C 	0.50632	0.3496	0.85974	-0.068
Mof_C 	C 	0.50576	0.27502	0.87737	-0.038
Mof_C 	C 	0.24251	0.01737	0.07304	-0.034
Mof_C 	C 	0.17663	0.99869	0.04305	0.098
Mof_C 	C 	0.09545	0.02355	0.10614	0.063
Mof_C 	C 	0.15687	0.04173	0.1389	-0.099
Mof_C 	C 	0.23115	0.03885	0.12176	-0.013
Mof_C 	C 	0.39026	0.5325	0.58466	0.102
Mof_C 	C 	0.37362	0.59486	0.61594	-0.07
Mof_C 	C 	0.42492	0.65794	0.60474	-0.071
Mof_C 	C 	0.52729	0.36357	0.43467	0.107
Mof_C 	C 	0.46848	0.31168	0.4591	-0.099
Mof_C 	C 	0.42716	0.3308	0.50073	0.102
Mof_C 	C 	0.36903	0.27749	0.5259	-0.066
Mof_C 	C 	0.33719	0.31637	0.56123	-0.079
Mof_C 	C 	0.37451	0.39507	0.55974	0.101
Mof_C 	C 	0.35261	0.45641	0.58814	-0.097
Mof_C 	C 	0.28343	0.43765	0.62108	0.03
Mof_C 	C 	0.28281	0.38623	0.66113	0.006
Mof_C 	C 	0.15562	0.39458	0.67956	0.045
Mof_C 	C 	0.15146	0.44654	0.64151	-0.068
Mof_C 	C 	0.21538	0.4682	0.61147	-0.043
Mof_C 	C 	0.45036	0.23182	0.4393	0.045
Mof_C 	C 	0.47305	0.16997	0.46536	-0.018
Mof_C 	C 	0.41767	0.08173	0.40756	0.035
Mof_C 	C 	0.39342	0.13878	0.37881	-0.057
Mof_C 	C 	0.41042	0.21558	0.39474	-0.068
Mof_C 	C 	0.98533	0.12007	0.41805	0.161
Mof_C 	C 	0.92854	0.14826	0.38739	-0.111
Mof_C 	C 	0.85931	0.10605	0.39795	-0.041
Mof_C 	C 	0.87186	0.05124	0.43586	0.052
Mof_C 	C 	0.81374	0.997	0.45709	-0.065
Mof_C 	C 	0.82626	0.94838	0.49683	0.107
Mof_C 	C 	0.23415	0.10781	0.48169	-0.07
Mof_C 	C 	0.20078	0.14688	0.44629	-0.087
Mof_C 	C 	0.12023	0.11653	0.44499	0.113
Mof_C 	C 	0.06514	0.14608	0.41568	-0.158
Mof_C 	C 	0.73507	0.98865	0.43556	0.102
Mof_C 	C 	0.67154	0.00188	0.46395	-0.107
Mof_C 	C 	0.58641	0.96259	0.40051	0.031
Mof_C 	C 	0.6448	0.949	0.36937	-0.019
Mof_C 	C 	0.72129	0.96291	0.38665	-0.079
Mof_C 	C 	0.09464	0.21092	0.38153	0.049
Mof_C 	C 	0.14427	0.19605	0.34175	-0.015
Mof_C 	C 	0.16342	0.32438	0.31979	0.041
Mof_C 	C 	0.11332	0.34328	0.35601	-0.05
Mof_C 	C 	0.07863	0.28571	0.38774	-0.071
Mof_C 	C 	0.05513	0.64743	0.44013	0.066
Mof_C 	C 	0.12072	0.68522	0.41173	-0.056
Mof_C 	C 	0.17492	0.63746	0.41255	-0.081
Mof_C 	C 	0.14393	0.56957	0.44069	0.111
Mof_C 	C 	0.1836	0.50718	0.45079	-0.095
Mof_C 	C 	0.15412	0.44284	0.47944	0.105
Mof_C 	C 	0.19321	0.37575	0.48751	-0.073
Mof_C 	C 	0.14588	0.32462	0.51559	-0.078
Mof_C 	C 	0.076	0.35814	0.52489	0.11
Mof_C 	C 	0.01189	0.32121	0.55202	-0.126
Mof_C 	C 	0.26318	0.51064	0.4287	0.024
Mof_C 	C 	0.32815	0.51583	0.45983	0.005
Mof_C 	C 	0.40956	0.5104	0.39362	0.064
Mof_C 	C 	0.3496	0.50632	0.35974	-0.071
Mof_C 	C 	0.27502	0.50576	0.37737	-0.036
Mof_C 	C 	0.01737	0.24251	0.57304	-0.037
Mof_C 	C 	0.99869	0.17663	0.54305	0.102
Mof_C 	C 	0.02355	0.09545	0.60614	0.065
Mof_C 	C 	0.04173	0.15687	0.6389	-0.1
Mof_C 	C 	0.03885	0.23115	0.62176	-0.011
Mof_C 	C 	0.4675	0.60974	0.91534	0.107
Mof_C 	C 	0.40514	0.62638	0.88406	-0.074
Mof_C 	C 	0.34206	0.57508	0.89526	-0.06
Mof_C 	C 	0.63643	0.47271	0.06533	0.119
Mof_C 	C 	0.68832	0.53152	0.0409	-0.148
Mof_C 	C 	0.6692	0.57284	0.99927	0.158
Mof_C 	C 	0.72251	0.63097	0.9741	-0.088
Mof_C 	C 	0.68363	0.66281	0.93877	-0.061
Mof_C 	C 	0.60493	0.62549	0.94026	0.101
Mof_C 	C 	0.54359	0.64739	0.91186	-0.091
Mof_C 	C 	0.56235	0.71657	0.87892	0.031
Mof_C 	C 	0.61377	0.71719	0.83887	0.006
Mof_C 	C 	0.60542	0.84438	0.82044	0.046
Mof_C 	C 	0.55346	0.84854	0.85849	-0.066
Mof_C 	C 	0.5318	0.78462	0.88853	-0.042
Mof_C 	C 	0.76818	0.54964	0.0607	0.059
Mof_C 	C 	0.83003	0.52695	0.03464	-0.027
Mof_C 	C 	0.91827	0.58233	0.09244	0.032
Mof_C 	C 	0.86122	0.60658	0.12119	-0.043
Mof_C 	C 	0.78442	0.58958	0.10526	-0.08
Mof_C 	C 	0.87993	0.01467	0.08195	0.043
Mof_C 	C 	0.85174	0.07146	0.11261	-0.044
Mof_C 	C 	0.89395	0.14069	0.10205	-0.095
Mof_C 	C 	0.94876	0.12814	0.06414	0.137
Mof_C 	C 	0.003	0.18626	0.04291	-0.098
Mof_C 	C 	0.05162	0.17374	0.00317	0.023
Mof_C 	C 	0.89219	0.76585	0.01831	-0.143
Mof_C 	C 	0.85312	0.79922	0.05371	-0.037
Mof_C 	C 	0.88347	0.87977	0.05501	0.077
Mof_C 	C 	0.85392	0.93486	0.08432	-0.037
Mof_C 	C 	0.01135	0.26493	0.06444	-0.049
Mof_C 	C 	0.99812	0.32846	0.03605	0.107
Mof_C 	C 	0.03741	0.41359	0.09949	0.058
Mof_C 	C 	0.051	0.3552	0.13063	-0.092
Mof_C 	C 	0.03709	0.27871	0.11335	-0.008
Mof_C 	C 	0.78908	0.90536	0.11847	0.021
Mof_C 	C 	0.80395	0.85573	0.15825	0.009
Mof_C 	C 	0.67562	0.83658	0.18021	0.055
Mof_C 	C 	0.65672	0.88668	0.14399	-0.061
Mof_C 	C 	0.71429	0.92137	0.11226	-0.038
Mof_C 	C 	0.35257	0.94487	0.05987	0.158
Mof_C 	C 	0.31478	0.87928	0.08827	-0.09
Mof_C 	C 	0.36254	0.82508	0.08745	-0.061
Mof_C 	C 	0.43043	0.85607	0.05931	0.103
Mof_C 	C 	0.49282	0.8164	0.04921	-0.088
Mof_C 	C 	0.55716	0.84588	0.02056	0.093
Mof_C 	C 	0.62425	0.80679	0.01249	-0.136
Mof_C 	C 	0.67538	0.85412	0.98441	-0.005
Mof_C 	C 	0.64186	0.924	0.97511	0.093
Mof_C 	C 	0.67879	0.98811	0.94798	-0.053
Mof_C 	C 	0.48936	0.73682	0.0713	0.021
Mof_C 	C 	0.48417	0.67185	0.04017	0.004
Mof_C 	C 	0.4896	0.59044	0.10638	0.063
Mof_C 	C 	0.49368	0.6504	0.14026	-0.071
Mof_C 	C 	0.49424	0.72498	0.12263	-0.036
Mof_C 	C 	0.75749	0.98263	0.92696	0.09
Mof_C 	C 	0.82337	0.00131	0.95695	-0.092
Mof_C 	C 	0.90455	0.97645	0.89386	0.043
Mof_C 	C 	0.84313	0.95827	0.8611	-0.029
Mof_C 	C 	0.76885	0.96115	0.87824	-0.071
Mof_N 	N 	0.45112	0.55958	0.55316	-0.221
Mof_N 	N 	0.56802	0.59696	0.47726	-0.22
Mof_N 	N 	0.77946	0.63566	0.31008	-0.15
Mof_N 	N 	0.54296	0.90388	0.54982	-0.14
Mof_N 	N 	0.05043	0.93857	0.55148	-0.203
Mof_N 	N 	0.1045	0.05628	0.47978	-0.225
Mof_N 	N 	0.4016	0.01076	0.55244	-0.196
Mof_N 	N 	0.82146	0.74802	0.68836	-0.151
Mof_N 	N 	0.92993	0.42381	0.54242	-0.203
Mof_N 	N 	0.91711	0.56985	0.49726	-0.197
Mof_N 	N 	0.59916	0.48514	0.55734	-0.166
Mof_N 	N 	0.99724	0.89602	0.44092	-0.105
Mof_N 	N 	0.44042	0.54888	0.94684	-0.204
Mof_N 	N 	0.40304	0.43198	0.02274	-0.214
Mof_N 	N 	0.36434	0.22054	0.18992	-0.151
Mof_N 	N 	0.09612	0.45704	0.95018	-0.145
Mof_N 	N 	0.06143	0.94957	0.94852	-0.2
Mof_N 	N 	0.94372	0.8955	0.02022	-0.206
Mof_N 	N 	0.98924	0.5984	0.94756	-0.102
Mof_N 	N 	0.25198	0.17854	0.81164	-0.148
Mof_N 	N 	0.57619	0.07007	0.95758	-0.195
Mof_N 	N 	0.43015	0.08289	0.00274	-0.231
Mof_N 	N 	0.51486	0.40084	0.94266	-0.155
Mof_N 	N 	0.10398	0.00276	0.05908	-0.198
Mof_N 	N 	0.54888	0.44042	0.44684	-0.221
Mof_N 	N 	0.43198	0.40304	0.52274	-0.22
Mof_N 	N 	0.22054	0.36434	0.68992	-0.15
Mof_N 	N 	0.45704	0.09612	0.45018	-0.155
Mof_N 	N 	0.94957	0.06143	0.44852	-0.21
Mof_N 	N 	0.8955	0.94372	0.52022	-0.186
Mof_N 	N 	0.5984	0.98924	0.44756	-0.115
Mof_N 	N 	0.17854	0.25198	0.31164	-0.149
Mof_N 	N 	0.07007	0.57619	0.45758	-0.208
Mof_N 	N 	0.08289	0.43015	0.50274	-0.214
Mof_N 	N 	0.40084	0.51486	0.44266	-0.166
Mof_N 	N 	0.00276	0.10398	0.55908	-0.198
Mof_N 	N 	0.55958	0.45112	0.05316	-0.224
Mof_N 	N 	0.59696	0.56802	0.97726	-0.212
Mof_N 	N 	0.63566	0.77946	0.81008	-0.15
Mof_N 	N 	0.90388	0.54296	0.04982	-0.139
Mof_N 	N 	0.93857	0.05043	0.05148	-0.199
Mof_N 	N 	0.05628	0.1045	0.97978	-0.189
Mof_N 	N 	0.01076	0.4016	0.05244	-0.201
Mof_N 	N 	0.74802	0.82146	0.18836	-0.151
Mof_N 	N 	0.42381	0.92993	0.04242	-0.202
Mof_N 	N 	0.56985	0.91711	0.99726	-0.167
Mof_N 	N 	0.48514	0.59916	0.05734	-0.167
Mof_N 	N 	0.89602	0.99724	0.94092	-0.097
Mof_Cl	Cl	0.04924	0.5756	0.579	-0.424
Mof_Cl	Cl	0.66576	0.64822	0.20805	-0.434
Mof_Cl	Cl	0.90411	0.73991	0.23073	-0.42
Mof_Cl	Cl	0.7279	0.80784	0.31475	-0.434
Mof_Cl	Cl	0.58701	0.10175	0.54881	-0.418
Mof_Cl	Cl	0.4244	0.95076	0.921	-0.352
Mof_Cl	Cl	0.35178	0.33424	0.29195	-0.435
Mof_Cl	Cl	0.26009	0.09589	0.26927	-0.451
Mof_Cl	Cl	0.19216	0.2721	0.18525	-0.445
Mof_Cl	Cl	0.89825	0.41299	0.95119	-0.352
Mof_Cl	Cl	0.95076	0.4244	0.421	-0.372
Mof_Cl	Cl	0.33424	0.35178	0.79195	-0.434
Mof_Cl	Cl	0.09589	0.26009	0.76927	-0.45
Mof_Cl	Cl	0.2721	0.19216	0.68525	-0.444
Mof_Cl	Cl	0.41299	0.89825	0.45119	-0.383
Mof_Cl	Cl	0.5756	0.04924	0.079	-0.431
Mof_Cl	Cl	0.64822	0.66576	0.70805	-0.434
Mof_Cl	Cl	0.73991	0.90411	0.73073	-0.42
Mof_Cl	Cl	0.80784	0.7279	0.81475	-0.433
Mof_Cl	Cl	0.10175	0.58701	0.04881	-0.435
_end
