data_functionalizedCrystal
_audit_creation_method	'EQeq! by Chris Wilmer'
_symmetry_space_group_name_H-M	'P1'
_symmetry_Int_Tables_number	1
_symmetry_cell_setting	triclinic
loop_
_symmetry_equiv_pos_as_xyz
  x,y,z
_cell_length_a	15.084
_cell_length_b	27.43
_cell_length_c	15.799
_cell_angle_alpha	90
_cell_angle_beta	95.447
_cell_angle_gamma	90
loop_
_atom_site_label
_atom_site_type_symbol
_atom_site_fract_x
_atom_site_fract_y
_atom_site_fract_z
_atom_site_charge
Mof_Zn	Zn	0.06349	0.50373	0.43543	1.219
Mof_O 	O 	0.104	0.44027	0.4942	-0.469
Mof_O 	O 	0.0083	0.435	0.5926	-0.469
Mof_O 	O 	0.3742	0.03909	0.9625	-0.475
Mof_O 	O 	0.4706	0.03619	0.8652	-0.464
Mof_N 	N 	0.1597	0.50962	0.3554	-0.268
Mof_C 	C 	0.0715	0.4192	0.5543	0.409
Mof_C 	C 	0.1121	0.37153	0.5827	-0.154
Mof_C 	C 	0.0802	0.3464	0.6496	0.076
Mof_H 	H 	0.0321	0.3594	0.6772	0.018
Mof_C 	C 	0.1182	0.3025	0.6764	-0.148
Mof_H 	H 	0.0966	0.2857	0.7229	0.077
Mof_C 	C 	0.1882	0.2826	0.6353	0.105
Mof_C 	C 	0.2189	0.3084	0.5694	-0.159
Mof_H 	H 	0.2675	0.2958	0.542	0.079
Mof_C 	C 	0.1811	0.35165	0.5424	0.081
Mof_H 	H 	0.2025	0.3682	0.4956	0.012
Mof_C 	C 	0.2318	0.2361	0.6627	-0.085
Mof_H 	H 	0.2833	0.2269	0.6363	0.058
Mof_C 	C 	0.2053	0.207	0.7199	-0.075
Mof_H 	H 	0.1502	0.2147	0.7413	0.051
Mof_C 	C 	0.2519	0.163	0.7553	0.099
Mof_C 	C 	0.2249	0.1448	0.8298	-0.15
Mof_H 	H 	0.1735	0.1578	0.852	0.078
Mof_C 	C 	0.2717	0.10806	0.8722	0.076
Mof_H 	H 	0.253	0.0964	0.9243	0.02
Mof_C 	C 	0.3462	0.08744	0.8406	-0.148
Mof_C 	C 	0.3703	0.10342	0.7629	0.074
Mof_H 	H 	0.4189	0.0885	0.7388	0.026
Mof_C 	C 	0.324	0.141	0.7201	-0.143
Mof_H 	H 	0.341	0.1519	0.667	0.081
Mof_C 	C 	0.4009	0.0512	0.8933	0.416
Mof_C 	C 	0.2356	0.4857	0.376	0.109
Mof_H 	H 	0.2421	0.4677	0.4277	-0.01
Mof_C 	C 	0.3051	0.4859	0.3252	-0.19
Mof_H 	H 	0.3592	0.4696	0.3429	0.101
Mof_C 	C 	0.2948	0.5103	0.2478	0.163
Mof_C 	C 	0.2136	0.52985	0.2241	-0.203
Mof_H 	H 	0.2018	0.5445	0.1697	0.108
Mof_C 	C 	0.1486	0.52826	0.279	0.135
Mof_H 	H 	0.092	0.5415	0.2604	-0.012
Mof_C 	C 	0.368	0.5072	0.1917	-0.153
Mof_H 	H 	0.4269	0.5042	0.2185	0.08
Mof_C 	C 	0.3591	0.50828	0.1113	0.015
Mof_H 	H 	0.3005	0.5123	0.0845	0.034
Mof_C 	C 	0.4319	0.5038	0.0554	-0.032
Mof_C 	C 	0.4472	0.54211	0.0004	0.014
Mof_C 	C 	0.5157	0.5381	0.9434	0.013
Mof_C 	C 	0.5289	0.5789	0.8899	-0.07
Mof_H 	H 	0.5755	0.5778	0.8536	0.056
Mof_C 	C 	0.4773	0.6189	0.8894	-0.029
Mof_H 	H 	0.4864	0.6448	0.8513	0.034
Mof_C 	C 	0.4091	0.6227	0.9455	-0.031
Mof_H 	H 	0.3729	0.6511	0.9447	0.039
Mof_C 	C 	0.3961	0.586	0.9996	-0.066
Mof_H 	H 	0.3519	0.5894	0.0383	0.056
Mof_Zn	Zn	0.43651	0.00373	0.06457	1.217
Mof_O 	O 	0.396	0.94027	0.0058	-0.466
Mof_O 	O 	0.4917	0.935	0.9074	-0.469
Mof_O 	O 	0.1258	0.53909	0.5375	-0.477
Mof_O 	O 	0.0294	0.53619	0.6348	-0.467
Mof_N 	N 	0.3403	0.00962	0.1446	-0.27
Mof_C 	C 	0.4285	0.9192	0.9457	0.402
Mof_C 	C 	0.3879	0.87153	0.9173	-0.15
Mof_C 	C 	0.4198	0.8464	0.8504	0.071
Mof_H 	H 	0.4679	0.8594	0.8228	0.02
Mof_C 	C 	0.3818	0.8025	0.8236	-0.144
Mof_H 	H 	0.4034	0.7857	0.7771	0.076
Mof_C 	C 	0.3118	0.7826	0.8647	0.1
Mof_C 	C 	0.2811	0.8084	0.9306	-0.152
Mof_H 	H 	0.2325	0.7958	0.958	0.076
Mof_C 	C 	0.3189	0.85165	0.9576	0.071
Mof_H 	H 	0.2975	0.8682	0.0044	0.017
Mof_C 	C 	0.2682	0.7361	0.8373	-0.083
Mof_H 	H 	0.2167	0.7269	0.8637	0.056
Mof_C 	C 	0.2947	0.707	0.7801	-0.077
Mof_H 	H 	0.3498	0.7147	0.7587	0.052
Mof_C 	C 	0.2481	0.663	0.7447	0.1
Mof_C 	C 	0.2751	0.6448	0.6702	-0.152
Mof_H 	H 	0.3265	0.6578	0.648	0.079
Mof_C 	C 	0.2283	0.60806	0.6278	0.077
Mof_H 	H 	0.247	0.5964	0.5757	0.02
Mof_C 	C 	0.1538	0.58744	0.6594	-0.149
Mof_C 	C 	0.1297	0.60342	0.7371	0.074
Mof_H 	H 	0.0811	0.5885	0.7612	0.025
Mof_C 	C 	0.176	0.641	0.7799	-0.144
Mof_H 	H 	0.159	0.6519	0.833	0.082
Mof_C 	C 	0.0991	0.5512	0.6067	0.416
Mof_C 	C 	0.2644	0.9857	0.124	0.111
Mof_H 	H 	0.2579	0.9677	0.0723	-0.009
Mof_C 	C 	0.1949	0.9859	0.1748	-0.188
Mof_H 	H 	0.1408	0.9696	0.1571	0.101
Mof_C 	C 	0.2052	0.0103	0.2522	0.161
Mof_C 	C 	0.2864	0.02985	0.2759	-0.202
Mof_H 	H 	0.2982	0.0445	0.3303	0.108
Mof_C 	C 	0.3514	0.02826	0.221	0.134
Mof_H 	H 	0.408	0.0415	0.2396	-0.012
Mof_C 	C 	0.132	0.0072	0.3083	-0.152
Mof_H 	H 	0.0731	0.0042	0.2815	0.08
Mof_C 	C 	0.1409	0.00828	0.3887	0.014
Mof_H 	H 	0.1995	0.0123	0.4155	0.034
Mof_C 	C 	0.0681	0.0038	0.4446	-0.031
Mof_C 	C 	0.0528	0.04211	0.4996	0.012
Mof_C 	C 	0.9843	0.0381	0.5566	0.014
Mof_C 	C 	0.9711	0.0789	0.6101	-0.071
Mof_H 	H 	0.9245	0.0778	0.6464	0.056
Mof_C 	C 	0.0227	0.1189	0.6106	-0.028
Mof_H 	H 	0.0136	0.1448	0.6487	0.033
Mof_C 	C 	0.0909	0.1227	0.5545	-0.033
Mof_H 	H 	0.1271	0.1511	0.5553	0.04
Mof_C 	C 	0.1039	0.086	0.5004	-0.062
Mof_H 	H 	0.1481	0.0894	0.4617	0.054
Mof_Zn	Zn	0.93651	0.49627	0.56457	1.218
Mof_O 	O 	0.896	0.55973	0.5058	-0.47
Mof_O 	O 	0.9917	0.565	0.4074	-0.47
Mof_O 	O 	0.6258	0.96091	0.0375	-0.476
Mof_O 	O 	0.5294	0.96381	0.1348	-0.465
Mof_N 	N 	0.8403	0.49038	0.6446	-0.269
Mof_C 	C 	0.9285	0.5808	0.4457	0.408
Mof_C 	C 	0.8879	0.62847	0.4173	-0.155
Mof_C 	C 	0.9198	0.6536	0.3504	0.076
Mof_H 	H 	0.9679	0.6406	0.3228	0.018
Mof_C 	C 	0.8818	0.6975	0.3236	-0.148
Mof_H 	H 	0.9034	0.7143	0.2771	0.077
Mof_C 	C 	0.8118	0.7174	0.3647	0.105
Mof_C 	C 	0.7811	0.6916	0.4306	-0.159
Mof_H 	H 	0.7325	0.7042	0.458	0.079
Mof_C 	C 	0.8189	0.64835	0.4576	0.081
Mof_H 	H 	0.7975	0.6318	0.5044	0.012
Mof_C 	C 	0.7682	0.7639	0.3373	-0.085
Mof_H 	H 	0.7167	0.7731	0.3637	0.058
Mof_C 	C 	0.7947	0.793	0.2801	-0.075
Mof_H 	H 	0.8498	0.7853	0.2587	0.051
Mof_C 	C 	0.7481	0.837	0.2447	0.099
Mof_C 	C 	0.7751	0.8552	0.1702	-0.15
Mof_H 	H 	0.8265	0.8422	0.148	0.078
Mof_C 	C 	0.7283	0.89194	0.1278	0.076
Mof_H 	H 	0.747	0.9036	0.0757	0.02
Mof_C 	C 	0.6538	0.91256	0.1594	-0.148
Mof_C 	C 	0.6297	0.89658	0.2371	0.074
Mof_H 	H 	0.5811	0.9115	0.2612	0.026
Mof_C 	C 	0.676	0.859	0.2799	-0.143
Mof_H 	H 	0.659	0.8481	0.333	0.081
Mof_C 	C 	0.5991	0.9488	0.1067	0.416
Mof_C 	C 	0.7644	0.5143	0.624	0.109
Mof_H 	H 	0.7579	0.5323	0.5723	-0.01
Mof_C 	C 	0.6949	0.5141	0.6748	-0.19
Mof_H 	H 	0.6408	0.5304	0.6571	0.101
Mof_C 	C 	0.7052	0.4897	0.7522	0.163
Mof_C 	C 	0.7864	0.47015	0.7759	-0.203
Mof_H 	H 	0.7982	0.4555	0.8303	0.108
Mof_C 	C 	0.8514	0.47174	0.721	0.135
Mof_H 	H 	0.908	0.4585	0.7396	-0.012
Mof_C 	C 	0.632	0.4928	0.8083	-0.153
Mof_H 	H 	0.5731	0.4958	0.7815	0.08
Mof_C 	C 	0.6409	0.49172	0.8887	0.015
Mof_H 	H 	0.6995	0.4877	0.9155	0.034
Mof_C 	C 	0.5681	0.4962	0.9446	-0.032
Mof_C 	C 	0.5528	0.45789	0.9996	0.014
Mof_C 	C 	0.4843	0.4619	0.0566	0.013
Mof_C 	C 	0.4711	0.4211	0.1101	-0.07
Mof_H 	H 	0.4245	0.4222	0.1464	0.056
Mof_C 	C 	0.5227	0.3811	0.1106	-0.029
Mof_H 	H 	0.5136	0.3552	0.1487	0.034
Mof_C 	C 	0.5909	0.3773	0.0545	-0.031
Mof_H 	H 	0.6271	0.3489	0.0553	0.039
Mof_C 	C 	0.6039	0.414	0.0004	-0.066
Mof_H 	H 	0.6481	0.4106	0.9617	0.056
Mof_Zn	Zn	0.56349	0.99627	0.93543	1.217
Mof_O 	O 	0.604	0.05973	0.9942	-0.466
Mof_O 	O 	0.5083	0.065	0.0926	-0.469
Mof_O 	O 	0.8742	0.46091	0.4625	-0.477
Mof_O 	O 	0.9706	0.46381	0.3652	-0.467
Mof_N 	N 	0.6597	0.99038	0.8554	-0.27
Mof_C 	C 	0.5715	0.0808	0.0543	0.402
Mof_C 	C 	0.6121	0.12847	0.0827	-0.15
Mof_C 	C 	0.5802	0.1536	0.1496	0.071
Mof_H 	H 	0.5321	0.1406	0.1772	0.02
Mof_C 	C 	0.6182	0.1975	0.1764	-0.144
Mof_H 	H 	0.5966	0.2143	0.2229	0.076
Mof_C 	C 	0.6882	0.2174	0.1353	0.1
Mof_C 	C 	0.7189	0.1916	0.0694	-0.152
Mof_H 	H 	0.7675	0.2042	0.042	0.076
Mof_C 	C 	0.6811	0.14835	0.0424	0.071
Mof_H 	H 	0.7025	0.1318	0.9956	0.017
Mof_C 	C 	0.7318	0.2639	0.1627	-0.083
Mof_H 	H 	0.7833	0.2731	0.1363	0.056
Mof_C 	C 	0.7053	0.293	0.2199	-0.077
Mof_H 	H 	0.6502	0.2853	0.2413	0.052
Mof_C 	C 	0.7519	0.337	0.2553	0.1
Mof_C 	C 	0.7249	0.3552	0.3298	-0.152
Mof_H 	H 	0.6735	0.3422	0.352	0.079
Mof_C 	C 	0.7717	0.39194	0.3722	0.077
Mof_H 	H 	0.753	0.4036	0.4243	0.02
Mof_C 	C 	0.8462	0.41256	0.3406	-0.149
Mof_C 	C 	0.8703	0.39658	0.2629	0.074
Mof_H 	H 	0.9189	0.4115	0.2388	0.025
Mof_C 	C 	0.824	0.359	0.2201	-0.144
Mof_H 	H 	0.841	0.3481	0.167	0.082
Mof_C 	C 	0.9009	0.4488	0.3933	0.416
Mof_C 	C 	0.7356	0.0143	0.876	0.111
Mof_H 	H 	0.7421	0.0323	0.9277	-0.009
Mof_C 	C 	0.8051	0.0141	0.8252	-0.188
Mof_H 	H 	0.8592	0.0304	0.8429	0.101
Mof_C 	C 	0.7948	0.9897	0.7478	0.161
Mof_C 	C 	0.7136	0.97015	0.7241	-0.202
Mof_H 	H 	0.7018	0.9555	0.6697	0.108
Mof_C 	C 	0.6486	0.97174	0.779	0.134
Mof_H 	H 	0.592	0.9585	0.7604	-0.012
Mof_C 	C 	0.868	0.9928	0.6917	-0.152
Mof_H 	H 	0.9269	0.9958	0.7185	0.08
Mof_C 	C 	0.8591	0.99172	0.6113	0.014
Mof_H 	H 	0.8005	0.9877	0.5845	0.034
Mof_C 	C 	0.9319	0.9962	0.5554	-0.031
Mof_C 	C 	0.9472	0.95789	0.5004	0.012
Mof_C 	C 	0.0157	0.9619	0.4434	0.014
Mof_C 	C 	0.0289	0.9211	0.3899	-0.071
Mof_H 	H 	0.0755	0.9222	0.3536	0.056
Mof_C 	C 	0.9773	0.8811	0.3894	-0.028
Mof_H 	H 	0.9864	0.8552	0.3513	0.033
Mof_C 	C 	0.9091	0.8773	0.4455	-0.033
Mof_H 	H 	0.8729	0.8489	0.4447	0.04
Mof_C 	C 	0.8961	0.914	0.4996	-0.062
Mof_H 	H 	0.8519	0.9106	0.5383	0.054
Mof_Zn	Zn	0.56349	0.00373	0.43543	1.218
Mof_O 	O 	0.604	0.94027	0.4942	-0.47
Mof_O 	O 	0.5083	0.935	0.5926	-0.47
Mof_O 	O 	0.8742	0.53909	0.9625	-0.477
Mof_O 	O 	0.9706	0.53619	0.8652	-0.466
Mof_N 	N 	0.6597	0.00962	0.3554	-0.269
Mof_C 	C 	0.5715	0.9192	0.5543	0.408
Mof_C 	C 	0.6121	0.87153	0.5827	-0.155
Mof_C 	C 	0.5802	0.8464	0.6496	0.076
Mof_H 	H 	0.5321	0.8594	0.6772	0.019
Mof_C 	C 	0.6182	0.8025	0.6764	-0.148
Mof_H 	H 	0.5966	0.7857	0.7229	0.077
Mof_C 	C 	0.6882	0.7826	0.6353	0.105
Mof_C 	C 	0.7189	0.8084	0.5694	-0.159
Mof_H 	H 	0.7675	0.7958	0.542	0.079
Mof_C 	C 	0.6811	0.85165	0.5424	0.081
Mof_H 	H 	0.7025	0.8682	0.4956	0.012
Mof_C 	C 	0.7318	0.7361	0.6627	-0.085
Mof_H 	H 	0.7833	0.7269	0.6363	0.058
Mof_C 	C 	0.7053	0.707	0.7199	-0.075
Mof_H 	H 	0.6502	0.7147	0.7413	0.051
Mof_C 	C 	0.7519	0.663	0.7553	0.099
Mof_C 	C 	0.7249	0.6448	0.8298	-0.151
Mof_H 	H 	0.6735	0.6578	0.852	0.078
Mof_C 	C 	0.7717	0.60806	0.8722	0.076
Mof_H 	H 	0.753	0.5964	0.9243	0.02
Mof_C 	C 	0.8462	0.58744	0.8406	-0.148
Mof_C 	C 	0.8703	0.60342	0.7629	0.074
Mof_H 	H 	0.9189	0.5885	0.7388	0.026
Mof_C 	C 	0.824	0.641	0.7201	-0.143
Mof_H 	H 	0.841	0.6519	0.667	0.082
Mof_C 	C 	0.9009	0.5512	0.8933	0.416
Mof_C 	C 	0.7356	0.9857	0.376	0.109
Mof_H 	H 	0.7421	0.9677	0.4277	-0.009
Mof_C 	C 	0.8051	0.9859	0.3252	-0.187
Mof_H 	H 	0.8592	0.9696	0.3429	0.1
Mof_C 	C 	0.7948	0.0103	0.2478	0.161
Mof_C 	C 	0.7136	0.02985	0.2241	-0.202
Mof_H 	H 	0.7018	0.0445	0.1697	0.107
Mof_C 	C 	0.6486	0.02826	0.279	0.134
Mof_H 	H 	0.592	0.0415	0.2604	-0.012
Mof_C 	C 	0.868	0.0072	0.1917	-0.152
Mof_H 	H 	0.9269	0.0042	0.2185	0.079
Mof_C 	C 	0.8591	0.00828	0.1113	0.014
Mof_H 	H 	0.8005	0.0123	0.0845	0.033
Mof_C 	C 	0.9319	0.0038	0.0554	-0.033
Mof_C 	C 	0.9472	0.04211	0.0004	-0.003
Mof_C 	C 	0.0157	0.0381	0.9434	0.025
Mof_C 	C 	0.0289	0.0789	0.8899	-0.085
Mof_H 	H 	0.0755	0.0778	0.8536	0.061
Mof_C 	C 	0.9773	0.1189	0.8894	-0.011
Mof_H 	H 	0.9864	0.1448	0.8513	0.029
Mof_C 	C 	0.9091	0.1227	0.9455	-0.05
Mof_H 	H 	0.8729	0.1511	0.9447	0.046
Mof_C 	C 	0.8961	0.086	0.9996	-0.038
Mof_H 	H 	0.8519	0.0894	0.0383	0.044
Mof_Zn	Zn	0.93651	0.50373	0.06457	1.218
Mof_O 	O 	0.896	0.44027	0.0058	-0.473
Mof_O 	O 	0.9917	0.435	0.9074	-0.47
Mof_O 	O 	0.6258	0.03909	0.5375	-0.477
Mof_O 	O 	0.5294	0.03619	0.6348	-0.466
Mof_N 	N 	0.8403	0.50962	0.1446	-0.269
Mof_C 	C 	0.9285	0.4192	0.9457	0.411
Mof_C 	C 	0.8879	0.37153	0.9173	-0.159
Mof_C 	C 	0.9198	0.3464	0.8504	0.079
Mof_H 	H 	0.9679	0.3594	0.8228	0.018
Mof_C 	C 	0.8818	0.3025	0.8236	-0.15
Mof_H 	H 	0.9034	0.2857	0.7771	0.078
Mof_C 	C 	0.8118	0.2826	0.8647	0.108
Mof_C 	C 	0.7811	0.3084	0.9306	-0.163
Mof_H 	H 	0.7325	0.2958	0.958	0.082
Mof_C 	C 	0.8189	0.35165	0.9576	0.088
Mof_H 	H 	0.7975	0.3682	0.0044	0.008
Mof_C 	C 	0.7682	0.2361	0.8373	-0.087
Mof_H 	H 	0.7167	0.2269	0.8637	0.058
Mof_C 	C 	0.7947	0.207	0.7801	-0.074
Mof_H 	H 	0.8498	0.2147	0.7587	0.051
Mof_C 	C 	0.7481	0.163	0.7447	0.099
Mof_C 	C 	0.7751	0.1448	0.6702	-0.15
Mof_H 	H 	0.8265	0.1578	0.648	0.078
Mof_C 	C 	0.7283	0.10806	0.6278	0.076
Mof_H 	H 	0.747	0.0964	0.5757	0.02
Mof_C 	C 	0.6538	0.08744	0.6594	-0.148
Mof_C 	C 	0.6297	0.10342	0.7371	0.074
Mof_H 	H 	0.5811	0.0885	0.7612	0.026
Mof_C 	C 	0.676	0.141	0.7799	-0.143
Mof_H 	H 	0.659	0.1519	0.833	0.082
Mof_C 	C 	0.5991	0.0512	0.6067	0.416
Mof_C 	C 	0.7644	0.4857	0.124	0.109
Mof_H 	H 	0.7579	0.4677	0.0723	-0.01
Mof_C 	C 	0.6949	0.4859	0.1748	-0.19
Mof_H 	H 	0.6408	0.4696	0.1571	0.101
Mof_C 	C 	0.7052	0.5103	0.2522	0.163
Mof_C 	C 	0.7864	0.52985	0.2759	-0.203
Mof_H 	H 	0.7982	0.5445	0.3303	0.108
Mof_C 	C 	0.8514	0.52826	0.221	0.135
Mof_H 	H 	0.908	0.5415	0.2396	-0.012
Mof_C 	C 	0.632	0.5072	0.3083	-0.153
Mof_H 	H 	0.5731	0.5042	0.2815	0.08
Mof_C 	C 	0.6409	0.50828	0.3887	0.015
Mof_H 	H 	0.6995	0.5123	0.4155	0.034
Mof_C 	C 	0.5681	0.5038	0.4446	-0.032
Mof_C 	C 	0.5528	0.54211	0.4996	0.012
Mof_C 	C 	0.4843	0.5381	0.5566	0.014
Mof_C 	C 	0.4711	0.5789	0.6101	-0.072
Mof_H 	H 	0.4245	0.5778	0.6464	0.056
Mof_C 	C 	0.5227	0.6189	0.6106	-0.027
Mof_H 	H 	0.5136	0.6448	0.6487	0.033
Mof_C 	C 	0.5909	0.6227	0.5545	-0.034
Mof_H 	H 	0.6271	0.6511	0.5553	0.04
Mof_C 	C 	0.6039	0.586	0.5004	-0.061
Mof_H 	H 	0.6481	0.5894	0.4617	0.054
Mof_Zn	Zn	0.43651	0.99627	0.56457	1.218
Mof_O 	O 	0.396	0.05973	0.5058	-0.47
Mof_O 	O 	0.4917	0.065	0.4074	-0.47
Mof_O 	O 	0.1258	0.46091	0.0375	-0.477
Mof_O 	O 	0.0294	0.46381	0.1348	-0.466
Mof_N 	N 	0.3403	0.99038	0.6446	-0.269
Mof_C 	C 	0.4285	0.0808	0.4457	0.408
Mof_C 	C 	0.3879	0.12847	0.4173	-0.155
Mof_C 	C 	0.4198	0.1536	0.3504	0.076
Mof_H 	H 	0.4679	0.1406	0.3228	0.019
Mof_C 	C 	0.3818	0.1975	0.3236	-0.148
Mof_H 	H 	0.4034	0.2143	0.2771	0.077
Mof_C 	C 	0.3118	0.2174	0.3647	0.105
Mof_C 	C 	0.2811	0.1916	0.4306	-0.159
Mof_H 	H 	0.2325	0.2042	0.458	0.079
Mof_C 	C 	0.3189	0.14835	0.4576	0.081
Mof_H 	H 	0.2975	0.1318	0.5044	0.012
Mof_C 	C 	0.2682	0.2639	0.3373	-0.085
Mof_H 	H 	0.2167	0.2731	0.3637	0.058
Mof_C 	C 	0.2947	0.293	0.2801	-0.075
Mof_H 	H 	0.3498	0.2853	0.2587	0.051
Mof_C 	C 	0.2481	0.337	0.2447	0.099
Mof_C 	C 	0.2751	0.3552	0.1702	-0.151
Mof_H 	H 	0.3265	0.3422	0.148	0.078
Mof_C 	C 	0.2283	0.39194	0.1278	0.076
Mof_H 	H 	0.247	0.4036	0.0757	0.02
Mof_C 	C 	0.1538	0.41256	0.1594	-0.148
Mof_C 	C 	0.1297	0.39658	0.2371	0.074
Mof_H 	H 	0.0811	0.4115	0.2612	0.026
Mof_C 	C 	0.176	0.359	0.2799	-0.143
Mof_H 	H 	0.159	0.3481	0.333	0.082
Mof_C 	C 	0.0991	0.4488	0.1067	0.416
Mof_C 	C 	0.2644	0.0143	0.624	0.109
Mof_H 	H 	0.2579	0.0323	0.5723	-0.009
Mof_C 	C 	0.1949	0.0141	0.6748	-0.187
Mof_H 	H 	0.1408	0.0304	0.6571	0.1
Mof_C 	C 	0.2052	0.9897	0.7522	0.161
Mof_C 	C 	0.2864	0.97015	0.7759	-0.202
Mof_H 	H 	0.2982	0.9555	0.8303	0.107
Mof_C 	C 	0.3514	0.97174	0.721	0.134
Mof_H 	H 	0.408	0.9585	0.7396	-0.012
Mof_C 	C 	0.132	0.9928	0.8083	-0.152
Mof_H 	H 	0.0731	0.9958	0.7815	0.079
Mof_C 	C 	0.1409	0.99172	0.8887	0.014
Mof_H 	H 	0.1995	0.9877	0.9155	0.033
Mof_C 	C 	0.0681	0.9962	0.9446	-0.033
Mof_C 	C 	0.0528	0.95789	0.9996	-0.003
Mof_C 	C 	0.9843	0.9619	0.0566	0.025
Mof_C 	C 	0.9711	0.9211	0.1101	-0.085
Mof_H 	H 	0.9245	0.9222	0.1464	0.061
Mof_C 	C 	0.0227	0.8811	0.1106	-0.011
Mof_H 	H 	0.0136	0.8552	0.1487	0.029
Mof_C 	C 	0.0909	0.8773	0.0545	-0.05
Mof_H 	H 	0.1271	0.8489	0.0553	0.046
Mof_C 	C 	0.1039	0.914	0.0004	-0.038
Mof_H 	H 	0.1481	0.9106	0.9617	0.044
Mof_Zn	Zn	0.06349	0.49627	0.93543	1.218
Mof_O 	O 	0.104	0.55973	0.9942	-0.473
Mof_O 	O 	0.0083	0.565	0.0926	-0.47
Mof_O 	O 	0.3742	0.96091	0.4625	-0.477
Mof_O 	O 	0.4706	0.96381	0.3652	-0.466
Mof_N 	N 	0.1597	0.49038	0.8554	-0.269
Mof_C 	C 	0.0715	0.5808	0.0543	0.411
Mof_C 	C 	0.1121	0.62847	0.0827	-0.159
Mof_C 	C 	0.0802	0.6536	0.1496	0.079
Mof_H 	H 	0.0321	0.6406	0.1772	0.018
Mof_C 	C 	0.1182	0.6975	0.1764	-0.15
Mof_H 	H 	0.0966	0.7143	0.2229	0.078
Mof_C 	C 	0.1882	0.7174	0.1353	0.108
Mof_C 	C 	0.2189	0.6916	0.0694	-0.163
Mof_H 	H 	0.2675	0.7042	0.042	0.082
Mof_C 	C 	0.1811	0.64835	0.0424	0.088
Mof_H 	H 	0.2025	0.6318	0.9956	0.008
Mof_C 	C 	0.2318	0.7639	0.1627	-0.087
Mof_H 	H 	0.2833	0.7731	0.1363	0.058
Mof_C 	C 	0.2053	0.793	0.2199	-0.074
Mof_H 	H 	0.1502	0.7853	0.2413	0.051
Mof_C 	C 	0.2519	0.837	0.2553	0.099
Mof_C 	C 	0.2249	0.8552	0.3298	-0.15
Mof_H 	H 	0.1735	0.8422	0.352	0.078
Mof_C 	C 	0.2717	0.89194	0.3722	0.076
Mof_H 	H 	0.253	0.9036	0.4243	0.02
Mof_C 	C 	0.3462	0.91256	0.3406	-0.148
Mof_C 	C 	0.3703	0.89658	0.2629	0.074
Mof_H 	H 	0.4189	0.9115	0.2388	0.026
Mof_C 	C 	0.324	0.859	0.2201	-0.143
Mof_H 	H 	0.341	0.8481	0.167	0.082
Mof_C 	C 	0.4009	0.9488	0.3933	0.416
Mof_C 	C 	0.2356	0.5143	0.876	0.109
Mof_H 	H 	0.2421	0.5323	0.9277	-0.01
Mof_C 	C 	0.3051	0.5141	0.8252	-0.19
Mof_H 	H 	0.3592	0.5304	0.8429	0.101
Mof_C 	C 	0.2948	0.4897	0.7478	0.163
Mof_C 	C 	0.2136	0.47015	0.7241	-0.203
Mof_H 	H 	0.2018	0.4555	0.6697	0.108
Mof_C 	C 	0.1486	0.47174	0.779	0.135
Mof_H 	H 	0.092	0.4585	0.7604	-0.012
Mof_C 	C 	0.368	0.4928	0.6917	-0.153
Mof_H 	H 	0.4269	0.4958	0.7185	0.08
Mof_C 	C 	0.3591	0.49172	0.6113	0.015
Mof_H 	H 	0.3005	0.4877	0.5845	0.034
Mof_C 	C 	0.4319	0.4962	0.5554	-0.032
Mof_C 	C 	0.4472	0.45789	0.5004	0.012
Mof_C 	C 	0.5157	0.4619	0.4434	0.014
Mof_C 	C 	0.5289	0.4211	0.3899	-0.072
Mof_H 	H 	0.5755	0.4222	0.3536	0.056
Mof_C 	C 	0.4773	0.3811	0.3894	-0.027
Mof_H 	H 	0.4864	0.3552	0.3513	0.033
Mof_C 	C 	0.4091	0.3773	0.4455	-0.034
Mof_H 	H 	0.3729	0.3489	0.4447	0.04
Mof_C 	C 	0.3961	0.414	0.4996	-0.061
Mof_H 	H 	0.3519	0.4106	0.5383	0.054
_end
