data_functionalizedCrystal
_audit_creation_method	'EQeq! by Chris Wilmer'
_symmetry_space_group_name_H-M	'P1'
_symmetry_Int_Tables_number	1
_symmetry_cell_setting	triclinic
loop_
_symmetry_equiv_pos_as_xyz
  x,y,z
_cell_length_a	18.1997
_cell_length_b	18.1997
_cell_length_c	20.0204
_cell_angle_alpha	90
_cell_angle_beta	90
_cell_angle_gamma	120
loop_
_atom_site_label
_atom_site_type_symbol
_atom_site_fract_x
_atom_site_fract_y
_atom_site_fract_z
_atom_site_charge
Mof_O 	O 	0.0726	0.1119	0.1953	-0.628
Mof_O 	O 	0.3138	0.3205	0.0726	-0.542
Mof_O 	O 	0.419	0.4306	0.1194	-0.454
Mof_O 	O 	0.5484	0.449	0.00607	-0.498
Mof_O 	O 	0.4571	0.314	0.007	-0.504
Mof_C 	C 	0.3104	0.3286	0.1891	-0.19
Mof_C 	C 	0.352	0.3636	0.1245	0.373
Mof_C 	C 	0.232	0.258	0.1913	0.142
Mof_H 	H 	0.2054	0.2337	0.1511	-0.037
Mof_C 	C 	0.5815	0.2678	0.0107	0.076
Mof_C 	C 	0.6036	0.3542	0.0116	-0.141
Mof_C 	C 	0.5311	0.374	0.008	0.355
Mof_O 	O 	0.8881	0.9607	0.1953	-0.342
Mof_O 	O 	0.6795	0.9933	0.0726	-0.341
Mof_O 	O 	0.5694	0.9884	0.1194	-0.319
Mof_O 	O 	0.551	0.0994	0.00607	-0.507
Mof_O 	O 	0.686	0.1431	0.007	-0.455
Mof_C 	C 	0.6714	0.9818	0.1891	-0.067
Mof_C 	C 	0.6364	0.9884	0.1245	0.328
Mof_C 	C 	0.742	0.974	0.1913	0.059
Mof_H 	H 	0.7663	0.9717	0.1511	0.062
Mof_C 	C 	0.7322	0.3137	0.0107	0.102
Mof_C 	C 	0.6458	0.2494	0.0116	-0.15
Mof_C 	C 	0.626	0.1571	0.008	0.354
Mof_O 	O 	0.0393	0.9274	0.1953	-0.467
Mof_O 	O 	0.0067	0.6862	0.0726	-0.506
Mof_O 	O 	0.0116	0.581	0.1194	-0.459
Mof_O 	O 	0.9006	0.4516	0.00607	-0.368
Mof_O 	O 	0.8569	0.5429	0.007	-0.364
Mof_C 	C 	0.0182	0.6896	0.1891	-0.191
Mof_C 	C 	0.0116	0.648	0.1245	0.37
Mof_C 	C 	0.026	0.768	0.1913	0.124
Mof_H 	H 	0.0283	0.7946	0.1511	-0.011
Mof_C 	C 	0.6863	0.4185	0.0107	0.104
Mof_C 	C 	0.7506	0.3964	0.0116	-0.129
Mof_C 	C 	0.8429	0.4689	0.008	0.336
Mof_O 	O 	0.0726	0.1119	0.3047	-0.615
Mof_O 	O 	0.3138	0.3205	0.4274	-0.547
Mof_O 	O 	0.419	0.4306	0.3806	-0.465
Mof_O 	O 	0.5484	0.449	0.49393	-0.5
Mof_O 	O 	0.4571	0.314	0.493	-0.507
Mof_C 	C 	0.3104	0.3286	0.3109	-0.178
Mof_C 	C 	0.352	0.3636	0.3755	0.372
Mof_C 	C 	0.232	0.258	0.3087	0.138
Mof_H 	H 	0.2054	0.2337	0.3489	-0.021
Mof_C 	C 	0.5815	0.2678	0.4893	0.105
Mof_C 	C 	0.6036	0.3542	0.4884	-0.134
Mof_C 	C 	0.5311	0.374	0.492	0.362
Mof_O 	O 	0.8881	0.9607	0.3047	-0.33
Mof_O 	O 	0.6795	0.9933	0.4274	-0.345
Mof_O 	O 	0.5694	0.9884	0.3806	-0.33
Mof_O 	O 	0.551	0.0994	0.49393	-0.508
Mof_O 	O 	0.686	0.1431	0.493	-0.458
Mof_C 	C 	0.6714	0.9818	0.3109	-0.055
Mof_C 	C 	0.6364	0.9884	0.3755	0.327
Mof_C 	C 	0.742	0.974	0.3087	0.056
Mof_H 	H 	0.7663	0.9717	0.3489	0.077
Mof_C 	C 	0.7322	0.3137	0.4893	0.131
Mof_C 	C 	0.6458	0.2494	0.4884	-0.143
Mof_C 	C 	0.626	0.1571	0.492	0.361
Mof_O 	O 	0.0393	0.9274	0.3047	-0.456
Mof_O 	O 	0.0067	0.6862	0.4274	-0.511
Mof_O 	O 	0.0116	0.581	0.3806	-0.47
Mof_O 	O 	0.9006	0.4516	0.49393	-0.367
Mof_O 	O 	0.8569	0.5429	0.493	-0.366
Mof_C 	C 	0.0182	0.6896	0.3109	-0.179
Mof_C 	C 	0.0116	0.648	0.3755	0.369
Mof_C 	C 	0.026	0.768	0.3087	0.121
Mof_H 	H 	0.0283	0.7946	0.3489	0.004
Mof_C 	C 	0.6863	0.4185	0.4893	0.133
Mof_C 	C 	0.7506	0.3964	0.4884	-0.123
Mof_C 	C 	0.8429	0.4689	0.492	0.343
Mof_O 	O 	0.1119	0.0726	0.8047	-0.594
Mof_O 	O 	0.3205	0.3138	0.9274	-0.426
Mof_O 	O 	0.4306	0.419	0.8806	-0.371
Mof_O 	O 	0.449	0.5484	0.99393	-0.384
Mof_O 	O 	0.314	0.4571	0.993	-0.404
Mof_C 	C 	0.3286	0.3104	0.8109	-0.135
Mof_C 	C 	0.3636	0.352	0.8755	0.347
Mof_C 	C 	0.258	0.232	0.8087	0.113
Mof_H 	H 	0.2337	0.2054	0.8489	0.006
Mof_C 	C 	0.2678	0.5815	0.9893	0.131
Mof_C 	C 	0.3542	0.6036	0.9884	-0.124
Mof_C 	C 	0.374	0.5311	0.992	0.353
Mof_O 	O 	0.9607	0.8881	0.8047	-0.313
Mof_O 	O 	0.9933	0.6795	0.9274	-0.233
Mof_O 	O 	0.9884	0.5694	0.8806	-0.243
Mof_O 	O 	0.0994	0.551	0.99393	-0.394
Mof_O 	O 	0.1431	0.686	0.993	-0.358
Mof_C 	C 	0.9818	0.6714	0.8109	-0.016
Mof_C 	C 	0.9884	0.6364	0.8755	0.303
Mof_C 	C 	0.974	0.742	0.8087	0.032
Mof_H 	H 	0.9717	0.7663	0.8489	0.102
Mof_C 	C 	0.3137	0.7322	0.9893	0.156
Mof_C 	C 	0.2494	0.6458	0.9884	-0.133
Mof_C 	C 	0.1571	0.626	0.992	0.353
Mof_O 	O 	0.9274	0.0393	0.8047	-0.439
Mof_O 	O 	0.6862	0.0067	0.9274	-0.393
Mof_O 	O 	0.581	0.0116	0.8806	-0.377
Mof_O 	O 	0.4516	0.9006	0.99393	-0.254
Mof_O 	O 	0.5429	0.8569	0.993	-0.265
Mof_C 	C 	0.6896	0.0182	0.8109	-0.138
Mof_C 	C 	0.648	0.0116	0.8755	0.344
Mof_C 	C 	0.768	0.026	0.8087	0.096
Mof_H 	H 	0.7946	0.0283	0.8489	0.029
Mof_C 	C 	0.4185	0.6863	0.9893	0.159
Mof_C 	C 	0.3964	0.7506	0.9884	-0.113
Mof_C 	C 	0.4689	0.8429	0.992	0.335
Mof_O 	O 	0.1119	0.0726	0.6953	-0.607
Mof_O 	O 	0.3205	0.3138	0.5726	-0.543
Mof_O 	O 	0.4306	0.419	0.6194	-0.454
Mof_O 	O 	0.449	0.5484	0.50607	-0.5
Mof_O 	O 	0.314	0.4571	0.507	-0.508
Mof_C 	C 	0.3286	0.3104	0.6891	-0.151
Mof_C 	C 	0.3636	0.352	0.6245	0.365
Mof_C 	C 	0.258	0.232	0.6913	0.119
Mof_H 	H 	0.2337	0.2054	0.6511	-0.012
Mof_C 	C 	0.2678	0.5815	0.5107	0.102
Mof_C 	C 	0.3542	0.6036	0.5116	-0.135
Mof_C 	C 	0.374	0.5311	0.508	0.36
Mof_O 	O 	0.9607	0.8881	0.6953	-0.324
Mof_O 	O 	0.9933	0.6795	0.5726	-0.344
Mof_O 	O 	0.9884	0.5694	0.6194	-0.322
Mof_O 	O 	0.0994	0.551	0.50607	-0.508
Mof_O 	O 	0.1431	0.686	0.507	-0.459
Mof_C 	C 	0.9818	0.6714	0.6891	-0.031
Mof_C 	C 	0.9884	0.6364	0.6245	0.321
Mof_C 	C 	0.974	0.742	0.6913	0.037
Mof_H 	H 	0.9717	0.7663	0.6511	0.086
Mof_C 	C 	0.3137	0.7322	0.5107	0.128
Mof_C 	C 	0.2494	0.6458	0.5116	-0.144
Mof_C 	C 	0.1571	0.626	0.508	0.36
Mof_O 	O 	0.9274	0.0393	0.6953	-0.451
Mof_O 	O 	0.6862	0.0067	0.5726	-0.508
Mof_O 	O 	0.581	0.0116	0.6194	-0.459
Mof_O 	O 	0.4516	0.9006	0.50607	-0.366
Mof_O 	O 	0.5429	0.8569	0.507	-0.365
Mof_C 	C 	0.6896	0.0182	0.6891	-0.154
Mof_C 	C 	0.648	0.0116	0.6245	0.363
Mof_C 	C 	0.768	0.026	0.6913	0.102
Mof_H 	H 	0.7946	0.0283	0.6511	0.012
Mof_C 	C 	0.4185	0.6863	0.5107	0.131
Mof_C 	C 	0.3964	0.7506	0.5116	-0.123
Mof_C 	C 	0.4689	0.8429	0.508	0.341
Mof_In	In	0.40891	0.40891	-0	2.025
Mof_In	In	0.59109	0	-0	1.462
Mof_In	In	3.95921e-17	0.59109	-0	1.476
Mof_In	In	0.40891	0.40891	0.5	2.462
Mof_In	In	0.59109	0	0.5	1.888
Mof_In	In	5.14182e-17	0.59109	0.5	1.896
Mof_Co	Co	-2.1978e-33	0	0.14704	0.943
Mof_Co	Co	-0	0	0.35296	0.958
Mof_Co	Co	-0	0	0.85296	0.978
Mof_Co	Co	8.79121e-33	0	0.64704	0.96
Mof_C 	C 	0.1031	0.1406	0.25	0.511
Mof_C 	C 	0.1898	0.2204	0.25	-0.265
Mof_C 	C 	0.3504	0.3635	0.25	0.098
Mof_H 	H 	0.4045	0.4108	0.25	0.026
Mof_C 	C 	0.8594	0.9625	0.25	0.445
Mof_C 	C 	0.7796	0.9694	0.25	-0.093
Mof_C 	C 	0.6365	0.9869	0.25	0.035
Mof_H 	H 	0.5892	0.9937	0.25	0.079
Mof_C 	C 	0.0375	0.8969	0.25	0.471
Mof_C 	C 	0.0306	0.8102	0.25	-0.214
Mof_C 	C 	0.0131	0.6496	0.25	0.095
Mof_H 	H 	0.0063	0.5955	0.25	-0.002
Mof_C 	C 	0.1406	0.1031	0.75	0.5
Mof_C 	C 	0.2204	0.1898	0.75	-0.229
Mof_C 	C 	0.3635	0.3504	0.75	0.074
Mof_H 	H 	0.4108	0.4045	0.75	0.047
Mof_C 	C 	0.9625	0.8594	0.75	0.435
Mof_C 	C 	0.9694	0.7796	0.75	-0.06
Mof_C 	C 	0.9869	0.6365	0.75	0.013
Mof_H 	H 	0.9937	0.5892	0.75	0.098
Mof_C 	C 	0.8969	0.0375	0.75	0.461
Mof_C 	C 	0.8102	0.0306	0.75	-0.181
Mof_C 	C 	0.6496	0.0131	0.75	0.073
Mof_H 	H 	0.5955	0.0063	0.75	0.018
_end
