data_functionalizedCrystal
_audit_creation_method	'EQeq! by Chris Wilmer'
_symmetry_space_group_name_H-M	'P1'
_symmetry_Int_Tables_number	1
_symmetry_cell_setting	triclinic
loop_
_symmetry_equiv_pos_as_xyz
  x,y,z
_cell_length_a	23.63
_cell_length_b	23.63
_cell_length_c	41.39
_cell_angle_alpha	90
_cell_angle_beta	90
_cell_angle_gamma	120
loop_
_atom_site_label
_atom_site_type_symbol
_atom_site_fract_x
_atom_site_fract_y
_atom_site_fract_z
_atom_site_charge
Mof_Cu	Cu	0.28977	0.55695	0.5787	0.828
Mof_F 	F 	0.598	0.346	0.6403	0.361
Mof_F 	F 	0.5021	0.3096	0.66336	-0.367
Mof_F 	F 	0.6038	0.5482	0.74501	-0.445
Mof_F 	F 	0.6713	0.5361	0.7687	0.063
Mof_F 	F 	0.6943	0.5956	0.72423	-0.431
Mof_F 	F 	0.5023	0.7023	0.6671	-0.286
Mof_F 	F 	0.4111	0.6725	0.6888	-0.354
Mof_F 	F 	0.4528	0.6172	0.70225	-0.262
Mof_F 	F 	0.3363	0.4706	0.5649	0.281
Mof_F 	F 	0.424	0.4709	0.58466	-0.366
Mof_F 	F 	0.3291	0.4172	0.60433	-0.422
Mof_F 	F 	0.1605	0.4606	0.59684	-0.476
Mof_F 	F 	0.1221	0.3953	0.55589	-0.393
Mof_F 	F 	0.0707	0.4352	0.57871	-0.436
Mof_F 	F 	0.1489	0.5918	0.45913	-0.404
Mof_F 	F 	0.1801	0.6694	0.49112	-0.412
Mof_F 	F 	0.2493	0.6526	0.46825	-0.421
Mof_N 	N 	0.66157	0.44565	0.72079	-0.162
Mof_N 	N 	0.63735	0.39824	0.6982	-0.171
Mof_N 	N 	0.3741	0.6112	0.62987	-0.137
Mof_N 	N 	0.35298	0.5627	0.60736	-0.159
Mof_N 	N 	0.22539	0.54859	0.54895	-0.173
Mof_N 	N 	0.2428	0.596	0.52554	-0.167
Mof_C 	C 	0.6357	0.4828	0.71622	-0.11
Mof_C 	C 	0.5914	0.4606	0.69076	0.174
Mof_C 	C 	0.5942	0.4057	0.68047	-0.077
Mof_C 	C 	0.5593	0.3605	0.65319	0.786
Mof_C 	C 	0.656	0.5425	0.73749	0.991
Mof_C 	C 	0.5497	0.486	0.67786	0.079
Mof_C 	C 	0.4795	0.4447	0.67563	0.013
Mof_H 	H 	0.4597	0.40183	0.68303	0.16
Mof_C 	C 	0.4428	0.4676	0.66302	0.021
Mof_H 	H 	0.39785	0.43997	0.6614	0.152
Mof_C 	C 	0.4702	0.5319	0.65227	0.057
Mof_C 	C 	0.533	0.5715	0.65492	0.019
Mof_H 	H 	0.55023	0.61484	0.64866	0.177
Mof_C 	C 	0.5762	0.5508	0.66707	0.015
Mof_H 	H 	0.62101	0.57965	0.66784	0.156
Mof_C 	C 	0.4244	0.5529	0.63849	0.264
Mof_C 	C 	0.3834	0.529	0.61233	-0.188
Mof_C 	C 	0.4171	0.6062	0.64886	-0.18
Mof_C 	C 	0.4481	0.6518	0.6753	1.158
Mof_C 	C 	0.3685	0.4754	0.5918	0.945
Mof_C 	C 	0.1608	0.5051	0.546	-0.121
Mof_C 	C 	0.134	0.5238	0.52093	0.194
Mof_C 	C 	0.1873	0.5793	0.50951	-0.092
Mof_C 	C 	0.1921	0.6225	0.48124	0.918
Mof_C 	C 	0.1296	0.451	0.56952	0.888
Mof_C 	C 	0.0642	0.4875	0.50987	0.075
Mof_C 	C 	0.0303	0.4216	0.50501	-0
Mof_H 	H 	0.05084	0.39752	0.50894	0.152
Mof_C 	C 	0.0321	0.5246	0.50546	0.017
Mof_H 	H 	0.05363	0.56914	0.50981	0.179
Mof_F 	F 	0.534	0.381	0.6327	-0.288
Mof_F 	F 	0.5877	0.3253	0.6402	-0.722
Mof_F 	F 	0.691	0.541	0.76	-0.574
Mof_F 	F 	0.4972	0.657	0.6854	-0.376
Mof_F 	F 	0.456	0.713	0.6692	-0.288
Mof_F 	F 	0.36	0.4812	0.5626	-0.785
Mof_F 	F 	0.565	0.399	0.6267	-0.13
Mof_Cu	Cu	0.44305	0.73282	0.5787	0.827
Mof_F 	F 	0.654	0.252	0.6403	0.36
Mof_F 	F 	0.6904	0.1925	0.66336	-0.368
Mof_F 	F 	0.4518	0.0556	0.74501	-0.446
Mof_F 	F 	0.4639	0.1352	0.7687	0.062
Mof_F 	F 	0.4044	0.0987	0.72423	-0.432
Mof_F 	F 	0.2977	0.8	0.6671	-0.287
Mof_F 	F 	0.3275	0.7386	0.6888	-0.355
Mof_F 	F 	0.3828	0.8356	0.70225	-0.262
Mof_F 	F 	0.5294	0.8657	0.5649	0.281
Mof_F 	F 	0.5291	0.9531	0.58466	-0.366
Mof_F 	F 	0.5828	0.9119	0.60433	-0.422
Mof_F 	F 	0.5394	0.6999	0.59684	-0.476
Mof_F 	F 	0.6047	0.7268	0.55589	-0.393
Mof_F 	F 	0.5648	0.6355	0.57871	-0.436
Mof_F 	F 	0.4082	0.5571	0.45913	-0.404
Mof_F 	F 	0.3306	0.5107	0.49112	-0.412
Mof_F 	F 	0.3474	0.5967	0.46825	-0.421
Mof_N 	N 	0.55435	0.21592	0.72079	-0.162
Mof_N 	N 	0.60176	0.23911	0.6982	-0.171
Mof_N 	N 	0.3888	0.7629	0.62987	-0.137
Mof_N 	N 	0.4373	0.79028	0.60736	-0.159
Mof_N 	N 	0.45141	0.6768	0.54895	-0.173
Mof_N 	N 	0.404	0.6468	0.52554	-0.167
Mof_C 	C 	0.5172	0.1529	0.71622	-0.11
Mof_C 	C 	0.5394	0.1308	0.69076	0.174
Mof_C 	C 	0.5943	0.1885	0.68047	-0.077
Mof_C 	C 	0.6395	0.1988	0.65319	0.786
Mof_C 	C 	0.4575	0.1135	0.73749	0.991
Mof_C 	C 	0.514	0.0637	0.67786	0.079
Mof_C 	C 	0.5553	0.0348	0.67563	0.013
Mof_H 	H 	0.59817	0.05787	0.68303	0.16
Mof_C 	C 	0.5324	0.9752	0.66302	0.021
Mof_H 	H 	0.56003	0.95788	0.6614	0.152
Mof_C 	C 	0.4681	0.9383	0.65227	0.057
Mof_C 	C 	0.4285	0.9615	0.65492	0.019
Mof_H 	H 	0.38516	0.93539	0.64866	0.177
Mof_C 	C 	0.4492	0.0254	0.66707	0.015
Mof_H 	H 	0.42035	0.04136	0.66784	0.156
Mof_C 	C 	0.4471	0.8715	0.63849	0.264
Mof_C 	C 	0.471	0.8544	0.61233	-0.188
Mof_C 	C 	0.3938	0.8109	0.64886	-0.18
Mof_C 	C 	0.3482	0.7963	0.6753	1.158
Mof_C 	C 	0.5246	0.8931	0.5918	0.945
Mof_C 	C 	0.4949	0.6557	0.546	-0.121
Mof_C 	C 	0.4762	0.6102	0.52093	0.194
Mof_C 	C 	0.4207	0.608	0.50951	-0.092
Mof_C 	C 	0.3775	0.5696	0.48124	0.918
Mof_C 	C 	0.549	0.6786	0.56952	0.888
Mof_C 	C 	0.5125	0.5767	0.50987	0.075
Mof_C 	C 	0.5784	0.6087	0.50501	-0
Mof_H 	H 	0.60248	0.65332	0.50894	0.152
Mof_C 	C 	0.4754	0.5075	0.50546	0.017
Mof_H 	H 	0.43086	0.48449	0.50981	0.179
Mof_F 	F 	0.619	0.153	0.6327	-0.288
Mof_F 	F 	0.6747	0.2624	0.6402	-0.722
Mof_F 	F 	0.459	0.15	0.76	-0.574
Mof_F 	F 	0.343	0.8402	0.6854	-0.377
Mof_F 	F 	0.287	0.743	0.6692	-0.288
Mof_F 	F 	0.5188	0.8788	0.5626	-0.785
Mof_F 	F 	0.601	0.166	0.6267	-0.13
Mof_Cu	Cu	0.26718	0.71023	0.5787	0.827
Mof_F 	F 	0.748	0.402	0.6403	0.36
Mof_F 	F 	0.8075	0.4979	0.66336	-0.368
Mof_F 	F 	0.9444	0.3962	0.74501	-0.446
Mof_F 	F 	0.8648	0.3287	0.7687	0.062
Mof_F 	F 	0.9013	0.3057	0.72423	-0.432
Mof_F 	F 	0.2	0.4977	0.6671	-0.287
Mof_F 	F 	0.2614	0.5889	0.6888	-0.355
Mof_F 	F 	0.1644	0.5472	0.70225	-0.262
Mof_F 	F 	0.1343	0.6637	0.5649	0.281
Mof_F 	F 	0.0469	0.576	0.58466	-0.366
Mof_F 	F 	0.0881	0.6709	0.60433	-0.422
Mof_F 	F 	0.3001	0.8395	0.59684	-0.476
Mof_F 	F 	0.2732	0.8779	0.55589	-0.393
Mof_F 	F 	0.3645	0.9293	0.57871	-0.436
Mof_F 	F 	0.4429	0.8511	0.45913	-0.404
Mof_F 	F 	0.4893	0.8199	0.49112	-0.412
Mof_F 	F 	0.4033	0.7507	0.46825	-0.421
Mof_N 	N 	0.78408	0.33843	0.72079	-0.162
Mof_N 	N 	0.76089	0.36265	0.6982	-0.171
Mof_N 	N 	0.2371	0.6259	0.62987	-0.137
Mof_N 	N 	0.20972	0.64702	0.60736	-0.159
Mof_N 	N 	0.3232	0.77461	0.54895	-0.173
Mof_N 	N 	0.3532	0.7572	0.52554	-0.167
Mof_C 	C 	0.8471	0.3643	0.71622	-0.11
Mof_C 	C 	0.8692	0.4086	0.69076	0.174
Mof_C 	C 	0.8115	0.4058	0.68047	-0.077
Mof_C 	C 	0.8012	0.4407	0.65319	0.786
Mof_C 	C 	0.8865	0.344	0.73749	0.991
Mof_C 	C 	0.9363	0.4503	0.67786	0.079
Mof_C 	C 	0.9652	0.5205	0.67563	0.013
Mof_H 	H 	0.94213	0.5403	0.68303	0.16
Mof_C 	C 	0.0248	0.5572	0.66302	0.021
Mof_H 	H 	0.04212	0.60215	0.6614	0.152
Mof_C 	C 	0.0617	0.5298	0.65227	0.057
Mof_C 	C 	0.0385	0.467	0.65492	0.019
Mof_H 	H 	0.06461	0.44977	0.64866	0.177
Mof_C 	C 	0.9746	0.4238	0.66707	0.015
Mof_H 	H 	0.95864	0.37899	0.66784	0.156
Mof_C 	C 	0.1285	0.5756	0.63849	0.264
Mof_C 	C 	0.1456	0.6166	0.61233	-0.188
Mof_C 	C 	0.1891	0.5829	0.64886	-0.18
Mof_C 	C 	0.2037	0.5519	0.6753	1.158
Mof_C 	C 	0.1069	0.6315	0.5918	0.945
Mof_C 	C 	0.3443	0.8392	0.546	-0.121
Mof_C 	C 	0.3898	0.866	0.52093	0.194
Mof_C 	C 	0.392	0.8127	0.50951	-0.092
Mof_C 	C 	0.4304	0.8079	0.48124	0.918
Mof_C 	C 	0.3214	0.8704	0.56952	0.888
Mof_C 	C 	0.4233	0.9358	0.50987	0.075
Mof_C 	C 	0.3913	0.9697	0.50501	-0.001
Mof_H 	H 	0.34668	0.94916	0.50894	0.152
Mof_C 	C 	0.4925	0.9679	0.50546	0.017
Mof_H 	H 	0.51551	0.94637	0.50981	0.179
Mof_F 	F 	0.847	0.466	0.6327	-0.288
Mof_F 	F 	0.7376	0.4123	0.6402	-0.722
Mof_F 	F 	0.85	0.309	0.76	-0.574
Mof_F 	F 	0.1598	0.5028	0.6854	-0.376
Mof_F 	F 	0.257	0.544	0.6692	-0.288
Mof_F 	F 	0.1212	0.64	0.5626	-0.785
Mof_F 	F 	0.834	0.435	0.6267	-0.13
Mof_Cu	Cu	0.71023	0.44305	0.0787	0.827
Mof_F 	F 	0.402	0.654	0.1403	0.36
Mof_F 	F 	0.4979	0.6904	0.16336	-0.368
Mof_F 	F 	0.3962	0.4518	0.24501	-0.446
Mof_F 	F 	0.3287	0.4639	0.2687	0.062
Mof_F 	F 	0.3057	0.4044	0.22423	-0.432
Mof_F 	F 	0.4977	0.2977	0.1671	-0.287
Mof_F 	F 	0.5889	0.3275	0.1888	-0.355
Mof_F 	F 	0.5472	0.3828	0.20225	-0.262
Mof_F 	F 	0.6637	0.5294	0.0649	0.281
Mof_F 	F 	0.576	0.5291	0.08466	-0.366
Mof_F 	F 	0.6709	0.5828	0.10433	-0.422
Mof_F 	F 	0.8395	0.5394	0.09684	-0.476
Mof_F 	F 	0.8779	0.6047	0.05589	-0.393
Mof_F 	F 	0.9293	0.5648	0.07871	-0.436
Mof_F 	F 	0.8511	0.4082	0.95913	-0.404
Mof_F 	F 	0.8199	0.3306	0.99112	-0.412
Mof_F 	F 	0.7507	0.3474	0.96825	-0.421
Mof_N 	N 	0.33843	0.55435	0.22079	-0.162
Mof_N 	N 	0.36265	0.60176	0.1982	-0.171
Mof_N 	N 	0.6259	0.3888	0.12987	-0.137
Mof_N 	N 	0.64702	0.4373	0.10736	-0.159
Mof_N 	N 	0.77461	0.45141	0.04895	-0.173
Mof_N 	N 	0.7572	0.404	0.02554	-0.167
Mof_C 	C 	0.3643	0.5172	0.21622	-0.11
Mof_C 	C 	0.4086	0.5394	0.19076	0.174
Mof_C 	C 	0.4058	0.5943	0.18047	-0.077
Mof_C 	C 	0.4407	0.6395	0.15319	0.786
Mof_C 	C 	0.344	0.4575	0.23749	0.991
Mof_C 	C 	0.4503	0.514	0.17786	0.079
Mof_C 	C 	0.5205	0.5553	0.17563	0.013
Mof_H 	H 	0.5403	0.59817	0.18303	0.16
Mof_C 	C 	0.5572	0.5324	0.16302	0.021
Mof_H 	H 	0.60215	0.56003	0.1614	0.152
Mof_C 	C 	0.5298	0.4681	0.15227	0.057
Mof_C 	C 	0.467	0.4285	0.15492	0.019
Mof_H 	H 	0.44977	0.38516	0.14866	0.177
Mof_C 	C 	0.4238	0.4492	0.16707	0.015
Mof_H 	H 	0.37899	0.42035	0.16784	0.156
Mof_C 	C 	0.5756	0.4471	0.13849	0.264
Mof_C 	C 	0.6166	0.471	0.11233	-0.188
Mof_C 	C 	0.5829	0.3938	0.14886	-0.18
Mof_C 	C 	0.5519	0.3482	0.1753	1.158
Mof_C 	C 	0.6315	0.5246	0.0918	0.945
Mof_C 	C 	0.8392	0.4949	0.046	-0.121
Mof_C 	C 	0.866	0.4762	0.02093	0.194
Mof_C 	C 	0.8127	0.4207	0.00951	-0.092
Mof_C 	C 	0.8079	0.3775	0.98124	0.918
Mof_C 	C 	0.8704	0.549	0.06952	0.888
Mof_C 	C 	0.9358	0.5125	0.00987	0.075
Mof_C 	C 	0.9697	0.5784	0.00501	-0
Mof_H 	H 	0.94916	0.60248	0.00894	0.152
Mof_C 	C 	0.9679	0.4754	0.00546	0.017
Mof_H 	H 	0.94637	0.43086	0.00981	0.179
Mof_F 	F 	0.466	0.619	0.1327	-0.288
Mof_F 	F 	0.4123	0.6747	0.1402	-0.722
Mof_F 	F 	0.309	0.459	0.26	-0.574
Mof_F 	F 	0.5028	0.343	0.1854	-0.376
Mof_F 	F 	0.544	0.287	0.1692	-0.288
Mof_F 	F 	0.64	0.5188	0.0626	-0.785
Mof_F 	F 	0.435	0.601	0.1267	-0.13
Mof_Cu	Cu	0.55695	0.26718	0.0787	0.827
Mof_F 	F 	0.346	0.748	0.1403	0.36
Mof_F 	F 	0.3096	0.8075	0.16336	-0.368
Mof_F 	F 	0.5482	0.9444	0.24501	-0.446
Mof_F 	F 	0.5361	0.8648	0.2687	0.062
Mof_F 	F 	0.5956	0.9013	0.22423	-0.432
Mof_F 	F 	0.7023	0.2	0.1671	-0.287
Mof_F 	F 	0.6725	0.2614	0.1888	-0.355
Mof_F 	F 	0.6172	0.1644	0.20225	-0.262
Mof_F 	F 	0.4706	0.1343	0.0649	0.281
Mof_F 	F 	0.4709	0.0469	0.08466	-0.366
Mof_F 	F 	0.4172	0.0881	0.10433	-0.422
Mof_F 	F 	0.4606	0.3001	0.09684	-0.476
Mof_F 	F 	0.3953	0.2732	0.05589	-0.393
Mof_F 	F 	0.4352	0.3645	0.07871	-0.436
Mof_F 	F 	0.5918	0.4429	0.95913	-0.404
Mof_F 	F 	0.6694	0.4893	0.99112	-0.412
Mof_F 	F 	0.6526	0.4033	0.96825	-0.421
Mof_N 	N 	0.44565	0.78408	0.22079	-0.162
Mof_N 	N 	0.39824	0.76089	0.1982	-0.171
Mof_N 	N 	0.6112	0.2371	0.12987	-0.137
Mof_N 	N 	0.5627	0.20972	0.10736	-0.159
Mof_N 	N 	0.54859	0.3232	0.04895	-0.173
Mof_N 	N 	0.596	0.3532	0.02554	-0.167
Mof_C 	C 	0.4828	0.8471	0.21622	-0.11
Mof_C 	C 	0.4606	0.8692	0.19076	0.174
Mof_C 	C 	0.4057	0.8115	0.18047	-0.077
Mof_C 	C 	0.3605	0.8012	0.15319	0.786
Mof_C 	C 	0.5425	0.8865	0.23749	0.991
Mof_C 	C 	0.486	0.9363	0.17786	0.079
Mof_C 	C 	0.4447	0.9652	0.17563	0.013
Mof_H 	H 	0.40183	0.94213	0.18303	0.16
Mof_C 	C 	0.4676	0.0248	0.16302	0.021
Mof_H 	H 	0.43997	0.04212	0.1614	0.152
Mof_C 	C 	0.5319	0.0617	0.15227	0.057
Mof_C 	C 	0.5715	0.0385	0.15492	0.019
Mof_H 	H 	0.61484	0.06461	0.14866	0.177
Mof_C 	C 	0.5508	0.9746	0.16707	0.016
Mof_H 	H 	0.57965	0.95864	0.16784	0.156
Mof_C 	C 	0.5529	0.1285	0.13849	0.264
Mof_C 	C 	0.529	0.1456	0.11233	-0.188
Mof_C 	C 	0.6062	0.1891	0.14886	-0.18
Mof_C 	C 	0.6518	0.2037	0.1753	1.158
Mof_C 	C 	0.4754	0.1069	0.0918	0.945
Mof_C 	C 	0.5051	0.3443	0.046	-0.121
Mof_C 	C 	0.5238	0.3898	0.02093	0.194
Mof_C 	C 	0.5793	0.392	0.00951	-0.092
Mof_C 	C 	0.6225	0.4304	0.98124	0.918
Mof_C 	C 	0.451	0.3214	0.06952	0.888
Mof_C 	C 	0.4875	0.4233	0.00987	0.075
Mof_C 	C 	0.4216	0.3913	0.00501	-0
Mof_H 	H 	0.39752	0.34668	0.00894	0.152
Mof_C 	C 	0.5246	0.4925	0.00546	0.017
Mof_H 	H 	0.56914	0.51551	0.00981	0.179
Mof_F 	F 	0.381	0.847	0.1327	-0.288
Mof_F 	F 	0.3253	0.7376	0.1402	-0.722
Mof_F 	F 	0.541	0.85	0.26	-0.574
Mof_F 	F 	0.657	0.1598	0.1854	-0.377
Mof_F 	F 	0.713	0.257	0.1692	-0.288
Mof_F 	F 	0.4812	0.1212	0.0626	-0.785
Mof_F 	F 	0.399	0.834	0.1267	-0.13
Mof_Cu	Cu	0.73282	0.28977	0.0787	0.827
Mof_F 	F 	0.252	0.598	0.1403	0.36
Mof_F 	F 	0.1925	0.5021	0.16336	-0.368
Mof_F 	F 	0.0556	0.6038	0.24501	-0.446
Mof_F 	F 	0.1352	0.6713	0.2687	0.062
Mof_F 	F 	0.0987	0.6943	0.22423	-0.432
Mof_F 	F 	0.8	0.5023	0.1671	-0.287
Mof_F 	F 	0.7386	0.4111	0.1888	-0.355
Mof_F 	F 	0.8356	0.4528	0.20225	-0.262
Mof_F 	F 	0.8657	0.3363	0.0649	0.281
Mof_F 	F 	0.9531	0.424	0.08466	-0.366
Mof_F 	F 	0.9119	0.3291	0.10433	-0.422
Mof_F 	F 	0.6999	0.1605	0.09684	-0.476
Mof_F 	F 	0.7268	0.1221	0.05589	-0.393
Mof_F 	F 	0.6355	0.0707	0.07871	-0.436
Mof_F 	F 	0.5571	0.1489	0.95913	-0.404
Mof_F 	F 	0.5107	0.1801	0.99112	-0.412
Mof_F 	F 	0.5967	0.2493	0.96825	-0.421
Mof_N 	N 	0.21592	0.66157	0.22079	-0.162
Mof_N 	N 	0.23911	0.63735	0.1982	-0.171
Mof_N 	N 	0.7629	0.3741	0.12987	-0.137
Mof_N 	N 	0.79028	0.35298	0.10736	-0.159
Mof_N 	N 	0.6768	0.22539	0.04895	-0.173
Mof_N 	N 	0.6468	0.2428	0.02554	-0.167
Mof_C 	C 	0.1529	0.6357	0.21622	-0.11
Mof_C 	C 	0.1308	0.5914	0.19076	0.174
Mof_C 	C 	0.1885	0.5942	0.18047	-0.077
Mof_C 	C 	0.1988	0.5593	0.15319	0.786
Mof_C 	C 	0.1135	0.656	0.23749	0.991
Mof_C 	C 	0.0637	0.5497	0.17786	0.079
Mof_C 	C 	0.0348	0.4795	0.17563	0.013
Mof_H 	H 	0.05787	0.4597	0.18303	0.16
Mof_C 	C 	0.9752	0.4428	0.16302	0.021
Mof_H 	H 	0.95788	0.39785	0.1614	0.152
Mof_C 	C 	0.9383	0.4702	0.15227	0.057
Mof_C 	C 	0.9615	0.533	0.15492	0.019
Mof_H 	H 	0.93539	0.55023	0.14866	0.177
Mof_C 	C 	0.0254	0.5762	0.16707	0.015
Mof_H 	H 	0.04136	0.62101	0.16784	0.156
Mof_C 	C 	0.8715	0.4244	0.13849	0.264
Mof_C 	C 	0.8544	0.3834	0.11233	-0.188
Mof_C 	C 	0.8109	0.4171	0.14886	-0.18
Mof_C 	C 	0.7963	0.4481	0.1753	1.158
Mof_C 	C 	0.8931	0.3685	0.0918	0.945
Mof_C 	C 	0.6557	0.1608	0.046	-0.121
Mof_C 	C 	0.6102	0.134	0.02093	0.194
Mof_C 	C 	0.608	0.1873	0.00951	-0.092
Mof_C 	C 	0.5696	0.1921	0.98124	0.918
Mof_C 	C 	0.6786	0.1296	0.06952	0.888
Mof_C 	C 	0.5767	0.0642	0.00987	0.076
Mof_C 	C 	0.6087	0.0303	0.00501	-0.001
Mof_H 	H 	0.65332	0.05084	0.00894	0.152
Mof_C 	C 	0.5075	0.0321	0.00546	0.017
Mof_H 	H 	0.48449	0.05363	0.00981	0.179
Mof_F 	F 	0.153	0.534	0.1327	-0.288
Mof_F 	F 	0.2624	0.5877	0.1402	-0.722
Mof_F 	F 	0.15	0.691	0.26	-0.574
Mof_F 	F 	0.8402	0.4972	0.1854	-0.376
Mof_F 	F 	0.743	0.456	0.1692	-0.288
Mof_F 	F 	0.8788	0.36	0.0626	-0.785
Mof_F 	F 	0.166	0.565	0.1267	-0.13
Mof_Cu	Cu	0.55695	0.28977	0.4213	0.827
Mof_F 	F 	0.346	0.598	0.3597	0.36
Mof_F 	F 	0.3096	0.5021	0.33664	-0.368
Mof_F 	F 	0.5482	0.6038	0.25499	-0.446
Mof_F 	F 	0.5361	0.6713	0.2313	0.062
Mof_F 	F 	0.5956	0.6943	0.27577	-0.432
Mof_F 	F 	0.7023	0.5023	0.3329	-0.287
Mof_F 	F 	0.6725	0.4111	0.3112	-0.355
Mof_F 	F 	0.6172	0.4528	0.29775	-0.262
Mof_F 	F 	0.4706	0.3363	0.4351	0.281
Mof_F 	F 	0.4709	0.424	0.41534	-0.366
Mof_F 	F 	0.4172	0.3291	0.39567	-0.422
Mof_F 	F 	0.4606	0.1605	0.40316	-0.476
Mof_F 	F 	0.3953	0.1221	0.44411	-0.393
Mof_F 	F 	0.4352	0.0707	0.42129	-0.436
Mof_F 	F 	0.5918	0.1489	0.54087	-0.404
Mof_F 	F 	0.6694	0.1801	0.50888	-0.412
Mof_F 	F 	0.6526	0.2493	0.53175	-0.421
Mof_N 	N 	0.44565	0.66157	0.27921	-0.162
Mof_N 	N 	0.39824	0.63735	0.3018	-0.171
Mof_N 	N 	0.6112	0.3741	0.37013	-0.137
Mof_N 	N 	0.5627	0.35298	0.39264	-0.159
Mof_N 	N 	0.54859	0.22539	0.45105	-0.173
Mof_N 	N 	0.596	0.2428	0.47446	-0.167
Mof_C 	C 	0.4828	0.6357	0.28378	-0.11
Mof_C 	C 	0.4606	0.5914	0.30924	0.174
Mof_C 	C 	0.4057	0.5942	0.31953	-0.077
Mof_C 	C 	0.3605	0.5593	0.34681	0.786
Mof_C 	C 	0.5425	0.656	0.26251	0.991
Mof_C 	C 	0.486	0.5497	0.32214	0.079
Mof_C 	C 	0.4447	0.4795	0.32437	0.013
Mof_H 	H 	0.40183	0.4597	0.31697	0.16
Mof_C 	C 	0.4676	0.4428	0.33698	0.021
Mof_H 	H 	0.43997	0.39785	0.3386	0.152
Mof_C 	C 	0.5319	0.4702	0.34773	0.057
Mof_C 	C 	0.5715	0.533	0.34508	0.019
Mof_H 	H 	0.61484	0.55023	0.35134	0.177
Mof_C 	C 	0.5508	0.5762	0.33293	0.015
Mof_H 	H 	0.57965	0.62101	0.33216	0.156
Mof_C 	C 	0.5529	0.4244	0.36151	0.264
Mof_C 	C 	0.529	0.3834	0.38767	-0.188
Mof_C 	C 	0.6062	0.4171	0.35114	-0.18
Mof_C 	C 	0.6518	0.4481	0.3247	1.158
Mof_C 	C 	0.4754	0.3685	0.4082	0.945
Mof_C 	C 	0.5051	0.1608	0.454	-0.121
Mof_C 	C 	0.5238	0.134	0.47907	0.194
Mof_C 	C 	0.5793	0.1873	0.49049	-0.092
Mof_C 	C 	0.6225	0.1921	0.51876	0.918
Mof_C 	C 	0.451	0.1296	0.43048	0.888
Mof_C 	C 	0.4875	0.0642	0.49013	0.075
Mof_C 	C 	0.4216	0.0303	0.49499	-0
Mof_H 	H 	0.39752	0.05084	0.49106	0.152
Mof_C 	C 	0.5246	0.0321	0.49454	0.017
Mof_H 	H 	0.56914	0.05363	0.49019	0.179
Mof_F 	F 	0.381	0.534	0.3673	-0.288
Mof_F 	F 	0.3253	0.5877	0.3598	-0.722
Mof_F 	F 	0.541	0.691	0.24	-0.574
Mof_F 	F 	0.657	0.4972	0.3146	-0.376
Mof_F 	F 	0.713	0.456	0.3308	-0.288
Mof_F 	F 	0.4812	0.36	0.4374	-0.785
Mof_F 	F 	0.399	0.565	0.3733	-0.13
Mof_Cu	Cu	0.73282	0.44305	0.4213	0.827
Mof_F 	F 	0.252	0.654	0.3597	0.36
Mof_F 	F 	0.1925	0.6904	0.33664	-0.368
Mof_F 	F 	0.0556	0.4518	0.25499	-0.446
Mof_F 	F 	0.1352	0.4639	0.2313	0.062
Mof_F 	F 	0.0987	0.4044	0.27577	-0.432
Mof_F 	F 	0.8	0.2977	0.3329	-0.287
Mof_F 	F 	0.7386	0.3275	0.3112	-0.355
Mof_F 	F 	0.8356	0.3828	0.29775	-0.262
Mof_F 	F 	0.8657	0.5294	0.4351	0.281
Mof_F 	F 	0.9531	0.5291	0.41534	-0.366
Mof_F 	F 	0.9119	0.5828	0.39567	-0.422
Mof_F 	F 	0.6999	0.5394	0.40316	-0.476
Mof_F 	F 	0.7268	0.6047	0.44411	-0.393
Mof_F 	F 	0.6355	0.5648	0.42129	-0.436
Mof_F 	F 	0.5571	0.4082	0.54087	-0.404
Mof_F 	F 	0.5107	0.3306	0.50888	-0.412
Mof_F 	F 	0.5967	0.3474	0.53175	-0.421
Mof_N 	N 	0.21592	0.55435	0.27921	-0.162
Mof_N 	N 	0.23911	0.60176	0.3018	-0.171
Mof_N 	N 	0.7629	0.3888	0.37013	-0.137
Mof_N 	N 	0.79028	0.4373	0.39264	-0.159
Mof_N 	N 	0.6768	0.45141	0.45105	-0.173
Mof_N 	N 	0.6468	0.404	0.47446	-0.167
Mof_C 	C 	0.1529	0.5172	0.28378	-0.11
Mof_C 	C 	0.1308	0.5394	0.30924	0.174
Mof_C 	C 	0.1885	0.5943	0.31953	-0.077
Mof_C 	C 	0.1988	0.6395	0.34681	0.786
Mof_C 	C 	0.1135	0.4575	0.26251	0.991
Mof_C 	C 	0.0637	0.514	0.32214	0.079
Mof_C 	C 	0.0348	0.5553	0.32437	0.013
Mof_H 	H 	0.05787	0.59817	0.31697	0.16
Mof_C 	C 	0.9752	0.5324	0.33698	0.021
Mof_H 	H 	0.95788	0.56003	0.3386	0.152
Mof_C 	C 	0.9383	0.4681	0.34773	0.057
Mof_C 	C 	0.9615	0.4285	0.34508	0.019
Mof_H 	H 	0.93539	0.38516	0.35134	0.177
Mof_C 	C 	0.0254	0.4492	0.33293	0.015
Mof_H 	H 	0.04136	0.42035	0.33216	0.156
Mof_C 	C 	0.8715	0.4471	0.36151	0.264
Mof_C 	C 	0.8544	0.471	0.38767	-0.188
Mof_C 	C 	0.8109	0.3938	0.35114	-0.18
Mof_C 	C 	0.7963	0.3482	0.3247	1.158
Mof_C 	C 	0.8931	0.5246	0.4082	0.945
Mof_C 	C 	0.6557	0.4949	0.454	-0.121
Mof_C 	C 	0.6102	0.4762	0.47907	0.194
Mof_C 	C 	0.608	0.4207	0.49049	-0.092
Mof_C 	C 	0.5696	0.3775	0.51876	0.918
Mof_C 	C 	0.6786	0.549	0.43048	0.888
Mof_C 	C 	0.5767	0.5125	0.49013	0.075
Mof_C 	C 	0.6087	0.5784	0.49499	-0
Mof_H 	H 	0.65332	0.60248	0.49106	0.152
Mof_C 	C 	0.5075	0.4754	0.49454	0.017
Mof_H 	H 	0.48449	0.43086	0.49019	0.179
Mof_F 	F 	0.153	0.619	0.3673	-0.288
Mof_F 	F 	0.2624	0.6747	0.3598	-0.722
Mof_F 	F 	0.15	0.459	0.24	-0.574
Mof_F 	F 	0.8402	0.343	0.3146	-0.377
Mof_F 	F 	0.743	0.287	0.3308	-0.288
Mof_F 	F 	0.8788	0.5188	0.4374	-0.785
Mof_F 	F 	0.166	0.601	0.3733	-0.13
Mof_Cu	Cu	0.71023	0.26718	0.4213	0.827
Mof_F 	F 	0.402	0.748	0.3597	0.36
Mof_F 	F 	0.4979	0.8075	0.33664	-0.368
Mof_F 	F 	0.3962	0.9444	0.25499	-0.446
Mof_F 	F 	0.3287	0.8648	0.2313	0.062
Mof_F 	F 	0.3057	0.9013	0.27577	-0.432
Mof_F 	F 	0.4977	0.2	0.3329	-0.287
Mof_F 	F 	0.5889	0.2614	0.3112	-0.355
Mof_F 	F 	0.5472	0.1644	0.29775	-0.262
Mof_F 	F 	0.6637	0.1343	0.4351	0.281
Mof_F 	F 	0.576	0.0469	0.41534	-0.366
Mof_F 	F 	0.6709	0.0881	0.39567	-0.422
Mof_F 	F 	0.8395	0.3001	0.40316	-0.476
Mof_F 	F 	0.8779	0.2732	0.44411	-0.393
Mof_F 	F 	0.9293	0.3645	0.42129	-0.436
Mof_F 	F 	0.8511	0.4429	0.54087	-0.404
Mof_F 	F 	0.8199	0.4893	0.50888	-0.412
Mof_F 	F 	0.7507	0.4033	0.53175	-0.421
Mof_N 	N 	0.33843	0.78408	0.27921	-0.162
Mof_N 	N 	0.36265	0.76089	0.3018	-0.171
Mof_N 	N 	0.6259	0.2371	0.37013	-0.137
Mof_N 	N 	0.64702	0.20972	0.39264	-0.159
Mof_N 	N 	0.77461	0.3232	0.45105	-0.173
Mof_N 	N 	0.7572	0.3532	0.47446	-0.167
Mof_C 	C 	0.3643	0.8471	0.28378	-0.11
Mof_C 	C 	0.4086	0.8692	0.30924	0.174
Mof_C 	C 	0.4058	0.8115	0.31953	-0.077
Mof_C 	C 	0.4407	0.8012	0.34681	0.786
Mof_C 	C 	0.344	0.8865	0.26251	0.991
Mof_C 	C 	0.4503	0.9363	0.32214	0.079
Mof_C 	C 	0.5205	0.9652	0.32437	0.013
Mof_H 	H 	0.5403	0.94213	0.31697	0.16
Mof_C 	C 	0.5572	0.0248	0.33698	0.021
Mof_H 	H 	0.60215	0.04212	0.3386	0.152
Mof_C 	C 	0.5298	0.0617	0.34773	0.057
Mof_C 	C 	0.467	0.0385	0.34508	0.019
Mof_H 	H 	0.44977	0.06461	0.35134	0.177
Mof_C 	C 	0.4238	0.9746	0.33293	0.015
Mof_H 	H 	0.37899	0.95864	0.33216	0.156
Mof_C 	C 	0.5756	0.1285	0.36151	0.264
Mof_C 	C 	0.6166	0.1456	0.38767	-0.188
Mof_C 	C 	0.5829	0.1891	0.35114	-0.18
Mof_C 	C 	0.5519	0.2037	0.3247	1.158
Mof_C 	C 	0.6315	0.1069	0.4082	0.945
Mof_C 	C 	0.8392	0.3443	0.454	-0.121
Mof_C 	C 	0.866	0.3898	0.47907	0.194
Mof_C 	C 	0.8127	0.392	0.49049	-0.092
Mof_C 	C 	0.8079	0.4304	0.51876	0.918
Mof_C 	C 	0.8704	0.3214	0.43048	0.888
Mof_C 	C 	0.9358	0.4233	0.49013	0.075
Mof_C 	C 	0.9697	0.3913	0.49499	-0.001
Mof_H 	H 	0.94916	0.34668	0.49106	0.152
Mof_C 	C 	0.9679	0.4925	0.49454	0.017
Mof_H 	H 	0.94637	0.51551	0.49019	0.179
Mof_F 	F 	0.466	0.847	0.3673	-0.288
Mof_F 	F 	0.4123	0.7376	0.3598	-0.722
Mof_F 	F 	0.309	0.85	0.24	-0.574
Mof_F 	F 	0.5028	0.1598	0.3146	-0.376
Mof_F 	F 	0.544	0.257	0.3308	-0.288
Mof_F 	F 	0.64	0.1212	0.4374	-0.785
Mof_F 	F 	0.435	0.834	0.3733	-0.13
Mof_Cu	Cu	0.44305	0.71023	0.9213	0.827
Mof_F 	F 	0.654	0.402	0.8597	0.36
Mof_F 	F 	0.6904	0.4979	0.83664	-0.368
Mof_F 	F 	0.4518	0.3962	0.75499	-0.446
Mof_F 	F 	0.4639	0.3287	0.7313	0.062
Mof_F 	F 	0.4044	0.3057	0.77577	-0.432
Mof_F 	F 	0.2977	0.4977	0.8329	-0.287
Mof_F 	F 	0.3275	0.5889	0.8112	-0.355
Mof_F 	F 	0.3828	0.5472	0.79775	-0.262
Mof_F 	F 	0.5294	0.6637	0.9351	0.281
Mof_F 	F 	0.5291	0.576	0.91534	-0.366
Mof_F 	F 	0.5828	0.6709	0.89567	-0.422
Mof_F 	F 	0.5394	0.8395	0.90316	-0.476
Mof_F 	F 	0.6047	0.8779	0.94411	-0.393
Mof_F 	F 	0.5648	0.9293	0.92129	-0.436
Mof_F 	F 	0.4082	0.8511	0.04087	-0.404
Mof_F 	F 	0.3306	0.8199	0.00888	-0.412
Mof_F 	F 	0.3474	0.7507	0.03175	-0.421
Mof_N 	N 	0.55435	0.33843	0.77921	-0.162
Mof_N 	N 	0.60176	0.36265	0.8018	-0.171
Mof_N 	N 	0.3888	0.6259	0.87013	-0.137
Mof_N 	N 	0.4373	0.64702	0.89264	-0.159
Mof_N 	N 	0.45141	0.77461	0.95105	-0.173
Mof_N 	N 	0.404	0.7572	0.97446	-0.167
Mof_C 	C 	0.5172	0.3643	0.78378	-0.11
Mof_C 	C 	0.5394	0.4086	0.80924	0.174
Mof_C 	C 	0.5943	0.4058	0.81953	-0.077
Mof_C 	C 	0.6395	0.4407	0.84681	0.786
Mof_C 	C 	0.4575	0.344	0.76251	0.991
Mof_C 	C 	0.514	0.4503	0.82214	0.079
Mof_C 	C 	0.5553	0.5205	0.82437	0.013
Mof_H 	H 	0.59817	0.5403	0.81697	0.16
Mof_C 	C 	0.5324	0.5572	0.83698	0.021
Mof_H 	H 	0.56003	0.60215	0.8386	0.152
Mof_C 	C 	0.4681	0.5298	0.84773	0.057
Mof_C 	C 	0.4285	0.467	0.84508	0.019
Mof_H 	H 	0.38516	0.44977	0.85134	0.177
Mof_C 	C 	0.4492	0.4238	0.83293	0.015
Mof_H 	H 	0.42035	0.37899	0.83216	0.156
Mof_C 	C 	0.4471	0.5756	0.86151	0.264
Mof_C 	C 	0.471	0.6166	0.88767	-0.188
Mof_C 	C 	0.3938	0.5829	0.85114	-0.18
Mof_C 	C 	0.3482	0.5519	0.8247	1.158
Mof_C 	C 	0.5246	0.6315	0.9082	0.945
Mof_C 	C 	0.4949	0.8392	0.954	-0.121
Mof_C 	C 	0.4762	0.866	0.97907	0.194
Mof_C 	C 	0.4207	0.8127	0.99049	-0.092
Mof_C 	C 	0.3775	0.8079	0.01876	0.918
Mof_C 	C 	0.549	0.8704	0.93048	0.888
Mof_C 	C 	0.5125	0.9358	0.99013	0.075
Mof_C 	C 	0.5784	0.9697	0.99499	-0
Mof_H 	H 	0.60248	0.94916	0.99106	0.152
Mof_C 	C 	0.4754	0.9679	0.99454	0.017
Mof_H 	H 	0.43086	0.94637	0.99019	0.179
Mof_F 	F 	0.619	0.466	0.8673	-0.288
Mof_F 	F 	0.6747	0.4123	0.8598	-0.722
Mof_F 	F 	0.459	0.309	0.74	-0.574
Mof_F 	F 	0.343	0.5028	0.8146	-0.376
Mof_F 	F 	0.287	0.544	0.8308	-0.288
Mof_F 	F 	0.5188	0.64	0.9374	-0.785
Mof_F 	F 	0.601	0.435	0.8733	-0.13
Mof_Cu	Cu	0.26718	0.55695	0.9213	0.827
Mof_F 	F 	0.748	0.346	0.8597	0.36
Mof_F 	F 	0.8075	0.3096	0.83664	-0.368
Mof_F 	F 	0.9444	0.5482	0.75499	-0.446
Mof_F 	F 	0.8648	0.5361	0.7313	0.062
Mof_F 	F 	0.9013	0.5956	0.77577	-0.432
Mof_F 	F 	0.2	0.7023	0.8329	-0.287
Mof_F 	F 	0.2614	0.6725	0.8112	-0.355
Mof_F 	F 	0.1644	0.6172	0.79775	-0.262
Mof_F 	F 	0.1343	0.4706	0.9351	0.281
Mof_F 	F 	0.0469	0.4709	0.91534	-0.366
Mof_F 	F 	0.0881	0.4172	0.89567	-0.422
Mof_F 	F 	0.3001	0.4606	0.90316	-0.476
Mof_F 	F 	0.2732	0.3953	0.94411	-0.393
Mof_F 	F 	0.3645	0.4352	0.92129	-0.436
Mof_F 	F 	0.4429	0.5918	0.04087	-0.404
Mof_F 	F 	0.4893	0.6694	0.00888	-0.412
Mof_F 	F 	0.4033	0.6526	0.03175	-0.421
Mof_N 	N 	0.78408	0.44565	0.77921	-0.162
Mof_N 	N 	0.76089	0.39824	0.8018	-0.171
Mof_N 	N 	0.2371	0.6112	0.87013	-0.137
Mof_N 	N 	0.20972	0.5627	0.89264	-0.159
Mof_N 	N 	0.3232	0.54859	0.95105	-0.173
Mof_N 	N 	0.3532	0.596	0.97446	-0.167
Mof_C 	C 	0.8471	0.4828	0.78378	-0.11
Mof_C 	C 	0.8692	0.4606	0.80924	0.174
Mof_C 	C 	0.8115	0.4057	0.81953	-0.077
Mof_C 	C 	0.8012	0.3605	0.84681	0.786
Mof_C 	C 	0.8865	0.5425	0.76251	0.991
Mof_C 	C 	0.9363	0.486	0.82214	0.079
Mof_C 	C 	0.9652	0.4447	0.82437	0.013
Mof_H 	H 	0.94213	0.40183	0.81697	0.16
Mof_C 	C 	0.0248	0.4676	0.83698	0.021
Mof_H 	H 	0.04212	0.43997	0.8386	0.152
Mof_C 	C 	0.0617	0.5319	0.84773	0.057
Mof_C 	C 	0.0385	0.5715	0.84508	0.019
Mof_H 	H 	0.06461	0.61484	0.85134	0.177
Mof_C 	C 	0.9746	0.5508	0.83293	0.016
Mof_H 	H 	0.95864	0.57965	0.83216	0.156
Mof_C 	C 	0.1285	0.5529	0.86151	0.264
Mof_C 	C 	0.1456	0.529	0.88767	-0.188
Mof_C 	C 	0.1891	0.6062	0.85114	-0.18
Mof_C 	C 	0.2037	0.6518	0.8247	1.158
Mof_C 	C 	0.1069	0.4754	0.9082	0.945
Mof_C 	C 	0.3443	0.5051	0.954	-0.121
Mof_C 	C 	0.3898	0.5238	0.97907	0.194
Mof_C 	C 	0.392	0.5793	0.99049	-0.092
Mof_C 	C 	0.4304	0.6225	0.01876	0.918
Mof_C 	C 	0.3214	0.451	0.93048	0.888
Mof_C 	C 	0.4233	0.4875	0.99013	0.075
Mof_C 	C 	0.3913	0.4216	0.99499	-0
Mof_H 	H 	0.34668	0.39752	0.99106	0.152
Mof_C 	C 	0.4925	0.5246	0.99454	0.017
Mof_H 	H 	0.51551	0.56914	0.99019	0.179
Mof_F 	F 	0.847	0.381	0.8673	-0.288
Mof_F 	F 	0.7376	0.3253	0.8598	-0.722
Mof_F 	F 	0.85	0.541	0.74	-0.574
Mof_F 	F 	0.1598	0.657	0.8146	-0.377
Mof_F 	F 	0.257	0.713	0.8308	-0.288
Mof_F 	F 	0.1212	0.4812	0.9374	-0.785
Mof_F 	F 	0.834	0.399	0.8733	-0.13
Mof_Cu	Cu	0.28977	0.73282	0.9213	0.827
Mof_F 	F 	0.598	0.252	0.8597	0.36
Mof_F 	F 	0.5021	0.1925	0.83664	-0.368
Mof_F 	F 	0.6038	0.0556	0.75499	-0.446
Mof_F 	F 	0.6713	0.1352	0.7313	0.062
Mof_F 	F 	0.6943	0.0987	0.77577	-0.432
Mof_F 	F 	0.5023	0.8	0.8329	-0.287
Mof_F 	F 	0.4111	0.7386	0.8112	-0.355
Mof_F 	F 	0.4528	0.8356	0.79775	-0.262
Mof_F 	F 	0.3363	0.8657	0.9351	0.281
Mof_F 	F 	0.424	0.9531	0.91534	-0.366
Mof_F 	F 	0.3291	0.9119	0.89567	-0.422
Mof_F 	F 	0.1605	0.6999	0.90316	-0.476
Mof_F 	F 	0.1221	0.7268	0.94411	-0.393
Mof_F 	F 	0.0707	0.6355	0.92129	-0.436
Mof_F 	F 	0.1489	0.5571	0.04087	-0.404
Mof_F 	F 	0.1801	0.5107	0.00888	-0.412
Mof_F 	F 	0.2493	0.5967	0.03175	-0.421
Mof_N 	N 	0.66157	0.21592	0.77921	-0.162
Mof_N 	N 	0.63735	0.23911	0.8018	-0.171
Mof_N 	N 	0.3741	0.7629	0.87013	-0.137
Mof_N 	N 	0.35298	0.79028	0.89264	-0.159
Mof_N 	N 	0.22539	0.6768	0.95105	-0.173
Mof_N 	N 	0.2428	0.6468	0.97446	-0.167
Mof_C 	C 	0.6357	0.1529	0.78378	-0.11
Mof_C 	C 	0.5914	0.1308	0.80924	0.174
Mof_C 	C 	0.5942	0.1885	0.81953	-0.077
Mof_C 	C 	0.5593	0.1988	0.84681	0.786
Mof_C 	C 	0.656	0.1135	0.76251	0.991
Mof_C 	C 	0.5497	0.0637	0.82214	0.079
Mof_C 	C 	0.4795	0.0348	0.82437	0.013
Mof_H 	H 	0.4597	0.05787	0.81697	0.16
Mof_C 	C 	0.4428	0.9752	0.83698	0.021
Mof_H 	H 	0.39785	0.95788	0.8386	0.152
Mof_C 	C 	0.4702	0.9383	0.84773	0.057
Mof_C 	C 	0.533	0.9615	0.84508	0.019
Mof_H 	H 	0.55023	0.93539	0.85134	0.177
Mof_C 	C 	0.5762	0.0254	0.83293	0.015
Mof_H 	H 	0.62101	0.04136	0.83216	0.156
Mof_C 	C 	0.4244	0.8715	0.86151	0.264
Mof_C 	C 	0.3834	0.8544	0.88767	-0.188
Mof_C 	C 	0.4171	0.8109	0.85114	-0.18
Mof_C 	C 	0.4481	0.7963	0.8247	1.158
Mof_C 	C 	0.3685	0.8931	0.9082	0.945
Mof_C 	C 	0.1608	0.6557	0.954	-0.121
Mof_C 	C 	0.134	0.6102	0.97907	0.194
Mof_C 	C 	0.1873	0.608	0.99049	-0.092
Mof_C 	C 	0.1921	0.5696	0.01876	0.918
Mof_C 	C 	0.1296	0.6786	0.93048	0.888
Mof_C 	C 	0.0642	0.5767	0.99013	0.076
Mof_C 	C 	0.0303	0.6087	0.99499	-0.001
Mof_H 	H 	0.05084	0.65332	0.99106	0.152
Mof_C 	C 	0.0321	0.5075	0.99454	0.017
Mof_H 	H 	0.05363	0.48449	0.99019	0.179
Mof_F 	F 	0.534	0.153	0.8673	-0.288
Mof_F 	F 	0.5877	0.2624	0.8598	-0.722
Mof_F 	F 	0.691	0.15	0.74	-0.574
Mof_F 	F 	0.4972	0.8402	0.8146	-0.376
Mof_F 	F 	0.456	0.743	0.8308	-0.288
Mof_F 	F 	0.36	0.8788	0.9374	-0.785
Mof_F 	F 	0.565	0.166	0.8733	-0.13
Mof_Cu	Cu	0.72274	0.44548	0.75	0.844
Mof_Cu	Cu	0.55452	0.27726	0.75	0.844
Mof_Cu	Cu	0.72274	0.27726	0.75	0.844
Mof_Cu	Cu	0.27726	0.55452	0.25	0.844
Mof_Cu	Cu	0.44548	0.72274	0.25	0.844
Mof_Cu	Cu	0.27726	0.72274	0.25	0.844
Mof_Cu	Cu	0.66667	0.33333	0.69771	0.831
Mof_Cu	Cu	0.33333	0.66667	0.19771	0.831
Mof_Cu	Cu	0.33333	0.66667	0.30229	0.831
Mof_Cu	Cu	0.66667	0.33333	0.80229	0.831
Mof_Cu	Cu	0.33333	0.66667	0.63151	0.848
Mof_Cu	Cu	0.33333	0.66667	0.52554	0.834
Mof_Cu	Cu	0.66667	0.33333	0.13151	0.848
Mof_Cu	Cu	0.66667	0.33333	0.02554	0.834
Mof_Cu	Cu	0.66667	0.33333	0.36849	0.848
Mof_Cu	Cu	0.66667	0.33333	0.47446	0.834
Mof_Cu	Cu	0.33333	0.66667	0.86849	0.848
Mof_Cu	Cu	0.33333	0.66667	0.97446	0.834
_end
