data_functionalizedCrystal
_audit_creation_method	'EQeq! by Chris Wilmer'
_symmetry_space_group_name_H-M	'P1'
_symmetry_Int_Tables_number	1
_symmetry_cell_setting	triclinic
loop_
_symmetry_equiv_pos_as_xyz
  x,y,z
_cell_length_a	42.61
_cell_length_b	6.32
_cell_length_c	25.202
_cell_angle_alpha	90
_cell_angle_beta	126.229
_cell_angle_gamma	90
loop_
_atom_site_label
_atom_site_type_symbol
_atom_site_fract_x
_atom_site_fract_y
_atom_site_fract_z
_atom_site_charge
Mof_C 	C 	0.60305	0.14579	0.73854	-0.138
Mof_H 	H 	0.5937	0.0045	0.7314	0.076
Mof_Ni	Ni	0.24269	0.75006	0.55194	1.068
Mof_O 	O 	0.26627	0.94533	0.52004	-0.663
Mof_C 	C 	0.63117	0.55181	0.75936	0.065
Mof_H 	H 	0.6409	0.6919	0.7661	0.014
Mof_O 	O 	0.71588	0.29253	0.89797	-0.428
Mof_C 	C 	0.59406	0.50416	0.70326	-0.139
Mof_H 	H 	0.5786	0.6125	0.6724	0.078
Mof_C 	C 	0.65361	0.39788	0.80474	-0.143
Mof_O 	O 	0.70279	0.63817	0.87744	-0.455
Mof_C 	C 	0.63942	0.19339	0.79454	0.064
Mof_H 	H 	0.6547	0.0862	0.8261	0.013
Mof_C 	C 	0.49877	0.93763	0.47541	-0.012
Mof_C 	C 	0.56988	0.93965	0.54021	-0.057
Mof_H 	H 	0.5931	0.8999	0.5455	0.048
Mof_O 	O 	0.31285	0.63911	0.51158	-0.448
Mof_C 	C 	0.3766	0.19372	0.55352	0.05
Mof_H 	H 	0.3622	0.0856	0.5564	0.021
Mof_C 	C 	0.57255	0.05295	0.58736	-0.055
Mof_H 	H 	0.5976	0.089	0.6256	0.048
Mof_O 	O 	0.29998	0.29193	0.50431	-0.436
Mof_C 	C 	0.69376	0.44923	0.86505	0.381
Mof_C 	C 	0.53859	0.12219	0.582	0.018
Mof_C 	C 	0.41227	0.14809	0.56568	-0.125
Mof_H 	H 	0.422	0.0076	0.5771	0.072
Mof_C 	C 	0.57971	0.30084	0.69227	0.082
Mof_C 	C 	0.32212	0.4472	0.51676	0.371
Mof_C 	C 	0.53296	0.87562	0.48158	0.019
Mof_C 	C 	0.38473	0.55609	0.5371	0.053
Mof_H 	H 	0.3759	0.6985	0.5296	0.016
Mof_C 	C 	0.50699	0.30741	0.62189	-0.044
Mof_H 	H 	0.5088	0.3966	0.6539	0.049
Mof_C 	C 	0.36229	0.39998	0.53712	-0.136
Mof_C 	C 	0.42032	0.5103	0.54793	-0.13
Mof_H 	H 	0.4348	0.6202	0.546	0.075
Mof_C 	C 	0.43431	0.3043	0.56149	0.072
Mof_C 	C 	0.54076	0.24395	0.63029	-0.033
Mof_C 	C 	0.47029	0.24356	0.56745	-0.03
Mof_H 	H 	0.29292	0.937	0.5612	0.175
Mof_C 	C 	0.10305	0.64579	0.73854	-0.137
Mof_H 	H 	0.0937	0.5045	0.7314	0.077
Mof_Ni	Ni	0.74269	0.25006	0.55194	1.068
Mof_O 	O 	0.76627	0.44533	0.52004	-0.664
Mof_C 	C 	0.13117	0.05181	0.75936	0.069
Mof_H 	H 	0.1409	0.1919	0.7661	0.013
Mof_O 	O 	0.21588	0.79253	0.89797	-0.427
Mof_C 	C 	0.09406	0.00416	0.70326	-0.135
Mof_H 	H 	0.0786	0.1125	0.6724	0.077
Mof_C 	C 	0.15361	0.89788	0.80474	-0.147
Mof_O 	O 	0.20279	0.13817	0.87744	-0.452
Mof_C 	C 	0.13942	0.69339	0.79454	0.065
Mof_H 	H 	0.1547	0.5862	0.8261	0.014
Mof_C 	C 	0.99877	0.43763	0.47541	-0.015
Mof_C 	C 	0.06988	0.43965	0.54021	-0.057
Mof_H 	H 	0.0931	0.3999	0.5455	0.048
Mof_O 	O 	0.81285	0.13911	0.51158	-0.444
Mof_C 	C 	0.8766	0.69372	0.55352	0.05
Mof_H 	H 	0.8622	0.5856	0.5564	0.021
Mof_C 	C 	0.07255	0.55295	0.58736	-0.055
Mof_H 	H 	0.0976	0.589	0.6256	0.048
Mof_O 	O 	0.79998	0.79193	0.50431	-0.435
Mof_C 	C 	0.19376	0.94923	0.86505	0.376
Mof_C 	C 	0.03859	0.62219	0.582	0.018
Mof_C 	C 	0.91227	0.64809	0.56568	-0.125
Mof_H 	H 	0.922	0.5076	0.5771	0.072
Mof_C 	C 	0.07971	0.80084	0.69227	0.078
Mof_C 	C 	0.82212	0.9472	0.51676	0.366
Mof_C 	C 	0.03296	0.37562	0.48158	0.02
Mof_C 	C 	0.88473	0.05609	0.5371	0.058
Mof_H 	H 	0.8759	0.1985	0.5296	0.015
Mof_C 	C 	0.00699	0.80741	0.62189	-0.044
Mof_H 	H 	0.0088	0.8966	0.6539	0.048
Mof_C 	C 	0.86229	0.89998	0.53712	-0.14
Mof_C 	C 	0.92032	0.0103	0.54793	-0.126
Mof_H 	H 	0.9348	0.1202	0.546	0.074
Mof_C 	C 	0.93431	0.8043	0.56149	0.068
Mof_C 	C 	0.04076	0.74395	0.63029	-0.032
Mof_C 	C 	0.97029	0.74356	0.56745	-0.03
Mof_H 	H 	0.79292	0.437	0.5612	0.175
Mof_C 	C 	0.39695	0.14579	0.76146	-0.142
Mof_H 	H 	0.4063	0.0045	0.7686	0.078
Mof_Ni	Ni	0.75731	0.75006	0.94806	1.081
Mof_O 	O 	0.73373	0.94533	0.97996	-0.639
Mof_C 	C 	0.36883	0.55181	0.74064	0.069
Mof_H 	H 	0.3591	0.6919	0.7339	0.013
Mof_O 	O 	0.28412	0.29253	0.60203	-0.44
Mof_C 	C 	0.40594	0.50416	0.79674	-0.142
Mof_H 	H 	0.4214	0.6125	0.8276	0.082
Mof_C 	C 	0.34639	0.39788	0.69526	-0.147
Mof_O 	O 	0.29721	0.63817	0.62256	-0.461
Mof_C 	C 	0.36058	0.19339	0.70546	0.069
Mof_H 	H 	0.3453	0.0862	0.6739	0.011
Mof_C 	C 	0.50123	0.93763	0.02459	-0.026
Mof_C 	C 	0.43012	0.93965	0.95979	0.005
Mof_H 	H 	0.4069	0.8999	0.9545	0.041
Mof_O 	O 	0.68715	0.63911	0.98842	-0.435
Mof_C 	C 	0.6234	0.19372	0.94648	0.055
Mof_H 	H 	0.6378	0.0856	0.9436	0.021
Mof_C 	C 	0.42745	0.05295	0.91264	-0.079
Mof_H 	H 	0.4024	0.089	0.8744	0.059
Mof_O 	O 	0.70002	0.29193	0.99569	-0.42
Mof_C 	C 	0.30624	0.44923	0.63495	0.383
Mof_C 	C 	0.46141	0.12219	0.918	0.033
Mof_C 	C 	0.58773	0.14809	0.93432	-0.128
Mof_H 	H 	0.578	0.0076	0.9229	0.075
Mof_C 	C 	0.42029	0.30084	0.80773	0.088
Mof_C 	C 	0.67788	0.4472	0.98324	0.371
Mof_C 	C 	0.46704	0.87562	0.01842	-0.028
Mof_C 	C 	0.61527	0.55609	0.9629	0.06
Mof_H 	H 	0.6241	0.6985	0.9704	0.019
Mof_C 	C 	0.49301	0.30741	0.87811	-0.03
Mof_H 	H 	0.4912	0.3966	0.8461	0.045
Mof_C 	C 	0.63771	0.39998	0.96288	-0.134
Mof_C 	C 	0.57968	0.5103	0.95207	-0.133
Mof_H 	H 	0.5652	0.6202	0.954	0.082
Mof_C 	C 	0.56569	0.3043	0.93851	0.086
Mof_C 	C 	0.45924	0.24395	0.86971	-0.041
Mof_C 	C 	0.52971	0.24356	0.93255	-0.047
Mof_H 	H 	0.70708	0.937	0.9388	0.173
Mof_C 	C 	0.89695	0.64579	0.76146	-0.141
Mof_H 	H 	0.9063	0.5045	0.7686	0.079
Mof_Ni	Ni	0.25731	0.25006	0.94806	1.082
Mof_O 	O 	0.23373	0.44533	0.97996	-0.641
Mof_C 	C 	0.86883	0.05181	0.74064	0.073
Mof_H 	H 	0.8591	0.1919	0.7339	0.012
Mof_O 	O 	0.78412	0.79253	0.60203	-0.439
Mof_C 	C 	0.90594	0.00416	0.79674	-0.139
Mof_H 	H 	0.9214	0.1125	0.8276	0.081
Mof_C 	C 	0.84639	0.89788	0.69526	-0.15
Mof_O 	O 	0.79721	0.13817	0.62256	-0.457
Mof_C 	C 	0.86058	0.69339	0.70546	0.069
Mof_H 	H 	0.8453	0.5862	0.6739	0.012
Mof_C 	C 	0.00123	0.43763	0.02459	-0.023
Mof_C 	C 	0.93012	0.43965	0.95979	0.009
Mof_H 	H 	0.9069	0.3999	0.9545	0.04
Mof_O 	O 	0.18715	0.13911	0.98842	-0.431
Mof_C 	C 	0.1234	0.69372	0.94648	0.055
Mof_H 	H 	0.1378	0.5856	0.9436	0.022
Mof_C 	C 	0.92745	0.55295	0.91264	-0.083
Mof_H 	H 	0.9024	0.589	0.8744	0.06
Mof_O 	O 	0.20002	0.79193	0.99569	-0.419
Mof_C 	C 	0.80624	0.94923	0.63495	0.379
Mof_C 	C 	0.96141	0.62219	0.918	0.035
Mof_C 	C 	0.08773	0.64809	0.93432	-0.128
Mof_H 	H 	0.078	0.5076	0.9229	0.076
Mof_C 	C 	0.92029	0.80084	0.80773	0.085
Mof_C 	C 	0.17788	0.9472	0.98324	0.366
Mof_C 	C 	0.96704	0.37562	0.01842	-0.031
Mof_C 	C 	0.11527	0.05609	0.9629	0.064
Mof_H 	H 	0.1241	0.1985	0.9704	0.017
Mof_C 	C 	0.99301	0.80741	0.87811	-0.032
Mof_H 	H 	0.9912	0.8966	0.8461	0.044
Mof_C 	C 	0.13771	0.89998	0.96288	-0.138
Mof_C 	C 	0.07968	0.0103	0.95207	-0.13
Mof_H 	H 	0.0652	0.1202	0.954	0.082
Mof_C 	C 	0.06569	0.8043	0.93851	0.082
Mof_C 	C 	0.95924	0.74395	0.86971	-0.041
Mof_C 	C 	0.02971	0.74356	0.93255	-0.046
Mof_H 	H 	0.20708	0.437	0.9388	0.172
Mof_C 	C 	0.39695	0.85421	0.26146	-0.139
Mof_H 	H 	0.4063	0.9955	0.2686	0.077
Mof_Ni	Ni	0.75731	0.24994	0.44806	1.067
Mof_O 	O 	0.73373	0.05467	0.47996	-0.662
Mof_C 	C 	0.36883	0.44819	0.24064	0.067
Mof_H 	H 	0.3591	0.3081	0.2339	0.013
Mof_O 	O 	0.28412	0.70747	0.10203	-0.448
Mof_C 	C 	0.40594	0.49584	0.29674	-0.141
Mof_H 	H 	0.4214	0.3875	0.3276	0.079
Mof_C 	C 	0.34639	0.60212	0.19526	-0.147
Mof_O 	O 	0.29721	0.36183	0.12256	-0.466
Mof_C 	C 	0.36058	0.80661	0.20546	0.066
Mof_H 	H 	0.3453	0.9138	0.1739	0.011
Mof_C 	C 	0.50123	0.06237	0.52459	-0.011
Mof_C 	C 	0.43012	0.06035	0.45979	-0.055
Mof_H 	H 	0.4069	0.1001	0.4545	0.047
Mof_O 	O 	0.68715	0.36089	0.48842	-0.447
Mof_C 	C 	0.6234	0.80628	0.44648	0.05
Mof_H 	H 	0.6378	0.9144	0.4436	0.021
Mof_C 	C 	0.42745	0.94705	0.41264	-0.057
Mof_H 	H 	0.4024	0.911	0.3744	0.047
Mof_O 	O 	0.70002	0.70807	0.49569	-0.435
Mof_C 	C 	0.30624	0.55077	0.13495	0.383
Mof_C 	C 	0.46141	0.87781	0.418	0.02
Mof_C 	C 	0.58773	0.85191	0.43432	-0.125
Mof_H 	H 	0.578	0.9924	0.4229	0.072
Mof_C 	C 	0.42029	0.69916	0.30773	0.083
Mof_C 	C 	0.67788	0.5528	0.48324	0.371
Mof_C 	C 	0.46704	0.12438	0.51842	0.018
Mof_C 	C 	0.61527	0.44391	0.4629	0.054
Mof_H 	H 	0.6241	0.3015	0.4704	0.017
Mof_C 	C 	0.49301	0.69259	0.37811	-0.043
Mof_H 	H 	0.4912	0.6034	0.3461	0.049
Mof_C 	C 	0.63771	0.60002	0.46288	-0.136
Mof_C 	C 	0.57968	0.4897	0.45207	-0.129
Mof_H 	H 	0.5652	0.3798	0.454	0.075
Mof_C 	C 	0.56569	0.6957	0.43851	0.072
Mof_C 	C 	0.45924	0.75605	0.36971	-0.034
Mof_C 	C 	0.52971	0.75644	0.43255	-0.031
Mof_H 	H 	0.70708	0.063	0.4388	0.175
Mof_C 	C 	0.89695	0.35421	0.26146	-0.139
Mof_H 	H 	0.9063	0.4955	0.2686	0.077
Mof_Ni	Ni	0.25731	0.74994	0.44806	1.067
Mof_O 	O 	0.23373	0.55467	0.47996	-0.664
Mof_C 	C 	0.86883	0.94819	0.24064	0.07
Mof_H 	H 	0.8591	0.8081	0.2339	0.011
Mof_O 	O 	0.78412	0.20747	0.10203	-0.447
Mof_C 	C 	0.90594	0.99584	0.29674	-0.138
Mof_H 	H 	0.9214	0.8875	0.3276	0.078
Mof_C 	C 	0.84639	0.10212	0.19526	-0.15
Mof_O 	O 	0.79721	0.86183	0.12256	-0.463
Mof_C 	C 	0.86058	0.30661	0.20546	0.066
Mof_H 	H 	0.8453	0.4138	0.1739	0.012
Mof_C 	C 	0.00123	0.56237	0.52459	-0.008
Mof_C 	C 	0.93012	0.56035	0.45979	-0.054
Mof_H 	H 	0.9069	0.6001	0.4545	0.046
Mof_O 	O 	0.18715	0.86089	0.48842	-0.444
Mof_C 	C 	0.1234	0.30628	0.44648	0.05
Mof_H 	H 	0.1378	0.4144	0.4436	0.022
Mof_C 	C 	0.92745	0.44705	0.41264	-0.058
Mof_H 	H 	0.9024	0.411	0.3744	0.047
Mof_O 	O 	0.20002	0.20807	0.49569	-0.434
Mof_C 	C 	0.80624	0.05077	0.13495	0.379
Mof_C 	C 	0.96141	0.37781	0.418	0.02
Mof_C 	C 	0.08773	0.35191	0.43432	-0.125
Mof_H 	H 	0.078	0.4924	0.4229	0.072
Mof_C 	C 	0.92029	0.19916	0.30773	0.08
Mof_C 	C 	0.17788	0.0528	0.48324	0.367
Mof_C 	C 	0.96704	0.62438	0.51842	0.016
Mof_C 	C 	0.11527	0.94391	0.4629	0.057
Mof_H 	H 	0.1241	0.8015	0.4704	0.015
Mof_C 	C 	0.99301	0.19259	0.37811	-0.045
Mof_H 	H 	0.9912	0.1034	0.3461	0.048
Mof_C 	C 	0.13771	0.10002	0.46288	-0.139
Mof_C 	C 	0.07968	0.9897	0.45207	-0.127
Mof_H 	H 	0.0652	0.8798	0.454	0.074
Mof_C 	C 	0.06569	0.1957	0.43851	0.069
Mof_C 	C 	0.95924	0.25605	0.36971	-0.033
Mof_C 	C 	0.02971	0.25644	0.43255	-0.03
Mof_H 	H 	0.20708	0.563	0.4388	0.175
Mof_C 	C 	0.60305	0.85421	0.23854	-0.135
Mof_H 	H 	0.5937	0.9955	0.2314	0.075
Mof_Ni	Ni	0.24269	0.24994	0.05194	1.053
Mof_O 	O 	0.26627	0.05467	0.02004	-0.681
Mof_C 	C 	0.63117	0.44819	0.25936	0.063
Mof_H 	H 	0.6409	0.3081	0.2661	0.013
Mof_O 	O 	0.71588	0.70747	0.39797	-0.441
Mof_C 	C 	0.59406	0.49584	0.20326	-0.137
Mof_H 	H 	0.5786	0.3875	0.1724	0.075
Mof_C 	C 	0.65361	0.60212	0.30474	-0.144
Mof_O 	O 	0.70279	0.36183	0.37744	-0.462
Mof_C 	C 	0.63942	0.80661	0.29454	0.063
Mof_H 	H 	0.6547	0.9138	0.3261	0.013
Mof_C 	C 	0.49877	0.06237	0.97541	0.003
Mof_C 	C 	0.56988	0.06035	0.04021	-0.118
Mof_H 	H 	0.5931	0.1001	0.0455	0.054
Mof_O 	O 	0.31285	0.36089	0.01158	-0.459
Mof_C 	C 	0.3766	0.80628	0.05352	0.044
Mof_H 	H 	0.3622	0.9144	0.0564	0.02
Mof_C 	C 	0.57255	0.94705	0.08736	-0.032
Mof_H 	H 	0.5976	0.911	0.1256	0.036
Mof_O 	O 	0.29998	0.70807	0.00431	-0.446
Mof_C 	C 	0.69376	0.55077	0.36505	0.382
Mof_C 	C 	0.53859	0.87781	0.082	0.005
Mof_C 	C 	0.41227	0.85191	0.06568	-0.122
Mof_H 	H 	0.422	0.9924	0.0771	0.068
Mof_C 	C 	0.57971	0.69916	0.19227	0.077
Mof_C 	C 	0.32212	0.5528	0.01676	0.37
Mof_C 	C 	0.53296	0.12438	0.98158	0.065
Mof_C 	C 	0.38473	0.44391	0.0371	0.047
Mof_H 	H 	0.3759	0.3015	0.0296	0.015
Mof_C 	C 	0.50699	0.69259	0.12189	-0.056
Mof_H 	H 	0.5088	0.6034	0.1539	0.053
Mof_C 	C 	0.36229	0.60002	0.03712	-0.137
Mof_C 	C 	0.42032	0.4897	0.04793	-0.126
Mof_H 	H 	0.4348	0.3798	0.046	0.068
Mof_C 	C 	0.43431	0.6957	0.06149	0.058
Mof_C 	C 	0.54076	0.75605	0.13029	-0.025
Mof_C 	C 	0.47029	0.75644	0.06745	-0.014
Mof_H 	H 	0.29292	0.063	0.0612	0.178
Mof_C 	C 	0.10305	0.35421	0.23854	-0.134
Mof_H 	H 	0.0937	0.4955	0.2314	0.076
Mof_Ni	Ni	0.74269	0.74994	0.05194	1.053
Mof_O 	O 	0.76627	0.55467	0.02004	-0.683
Mof_C 	C 	0.13117	0.94819	0.25936	0.066
Mof_H 	H 	0.1409	0.8081	0.2661	0.012
Mof_O 	O 	0.21588	0.20747	0.39797	-0.44
Mof_C 	C 	0.09406	0.99584	0.20326	-0.134
Mof_H 	H 	0.0786	0.8875	0.1724	0.074
Mof_C 	C 	0.15361	0.10212	0.30474	-0.147
Mof_O 	O 	0.20279	0.86183	0.37744	-0.459
Mof_C 	C 	0.13942	0.30661	0.29454	0.063
Mof_H 	H 	0.1547	0.4138	0.3261	0.014
Mof_C 	C 	0.99877	0.56237	0.97541	-0
Mof_C 	C 	0.06988	0.56035	0.04021	-0.12
Mof_H 	H 	0.0931	0.6001	0.0455	0.054
Mof_O 	O 	0.81285	0.86089	0.01158	-0.456
Mof_C 	C 	0.8766	0.30628	0.05352	0.044
Mof_H 	H 	0.8622	0.4144	0.0564	0.021
Mof_C 	C 	0.07255	0.44705	0.08736	-0.031
Mof_H 	H 	0.0976	0.411	0.1256	0.035
Mof_O 	O 	0.79998	0.20807	0.00431	-0.445
Mof_C 	C 	0.19376	0.05077	0.36505	0.378
Mof_C 	C 	0.03859	0.37781	0.082	0.003
Mof_C 	C 	0.91227	0.35191	0.06568	-0.122
Mof_H 	H 	0.922	0.4924	0.0771	0.068
Mof_C 	C 	0.07971	0.19916	0.19227	0.073
Mof_C 	C 	0.82212	0.0528	0.01676	0.366
Mof_C 	C 	0.03296	0.62438	0.98158	0.067
Mof_C 	C 	0.88473	0.94391	0.0371	0.05
Mof_H 	H 	0.8759	0.8015	0.0296	0.013
Mof_C 	C 	0.00699	0.19259	0.12189	-0.057
Mof_H 	H 	0.0088	0.1034	0.1539	0.052
Mof_C 	C 	0.86229	0.10002	0.03712	-0.14
Mof_C 	C 	0.92032	0.9897	0.04793	-0.123
Mof_H 	H 	0.9348	0.8798	0.046	0.067
Mof_C 	C 	0.93431	0.1957	0.06149	0.054
Mof_C 	C 	0.04076	0.25605	0.13029	-0.024
Mof_C 	C 	0.97029	0.25644	0.06745	-0.013
Mof_H 	H 	0.79292	0.563	0.0612	0.177
Mof_Ni	Ni	0.25	0.25	0.5	1.126
Mof_Ni	Ni	0.75	0.25	-0	1.111
Mof_Ni	Ni	0.75	0.75	0.5	1.126
Mof_Ni	Ni	0.25	0.75	-0	1.111
_end
