data_functionalizedCrystal
_audit_creation_method	'EQeq! by Chris Wilmer'
_symmetry_space_group_name_H-M	'P1'
_symmetry_Int_Tables_number	1
_symmetry_cell_setting	triclinic
loop_
_symmetry_equiv_pos_as_xyz
  x,y,z
_cell_length_a	22.4562
_cell_length_b	22.4562
_cell_length_c	72.1481
_cell_angle_alpha	90
_cell_angle_beta	90
_cell_angle_gamma	120
loop_
_atom_site_label
_atom_site_type_symbol
_atom_site_fract_x
_atom_site_fract_y
_atom_site_fract_z
_atom_site_charge
Mof_Ag	Ag	0.36355	0.18762	0.98171	0.431
Mof_O 	O 	0.59043	0.29874	0.90561	-1.357
Mof_C 	C 	0.5436	0.2374	0.90761	0.745
Mof_O 	O 	0.74545	0.36618	0.87498	-1.289
Mof_C 	C 	0.8163	0.3459	0.8958	-0.792
Mof_H 	H 	0.8617	0.3561	0.8988	0.273
Mof_C 	C 	0.8032	0.3711	0.87933	0.66
Mof_C 	C 	0.5011	0.2199	0.92541	-0.227
Mof_C 	C 	0.5268	0.2653	0.93955	0.06
Mof_H 	H 	0.7376	0.4307	0.9383	0.022
Mof_C 	C 	0.4891	0.2493	0.95617	-0.044
Mof_H 	H 	0.7624	0.4892	0.9673	0.009
Mof_N 	N 	0.4219	0.1997	0.95645	-0.178
Mof_C 	C 	0.7551	0.5985	0.94372	0.008
Mof_H 	H 	0.7558	0.6408	0.9455	-0.005
Mof_C 	C 	0.729	0.5638	0.92703	0.014
Mof_H 	H 	0.7187	0.5848	0.9171	-0.014
Mof_C 	C 	0.5501	0.1427	0.86505	-0.269
Mof_C 	C 	0.5017	0.0733	0.86869	0.145
Mof_H 	H 	0.4807	0.0592	0.8806	-0.079
Mof_C 	C 	0.4859	0.0271	0.85459	-0.287
Mof_H 	H 	0.456	0.9799	0.8574	0.171
Mof_N 	N 	0.509	0.0426	0.83712	-0.184
Mof_C 	C 	0.5535	0.1067	0.83383	-0.043
Mof_H 	H 	0.5743	0.1192	0.822	-0.01
Mof_C 	C 	0.5719	0.1579	0.8472	0.094
Mof_H 	H 	0.6003	0.2047	0.8438	0.027
Mof_Ag	Ag	0.03022	0.52095	0.31504	0.319
Mof_O 	O 	0.2571	0.63207	0.23894	-1.359
Mof_C 	C 	0.21027	0.57073	0.24094	0.737
Mof_O 	O 	0.41212	0.69951	0.20831	-1.293
Mof_C 	C 	0.48297	0.67923	0.22913	-0.803
Mof_H 	H 	0.52837	0.68943	0.23213	0.274
Mof_C 	C 	0.46987	0.70443	0.21266	0.682
Mof_C 	C 	0.16777	0.55323	0.25874	-0.231
Mof_C 	C 	0.19347	0.59863	0.27288	0.059
Mof_H 	H 	0.40427	0.76403	0.27163	0.023
Mof_C 	C 	0.15577	0.58263	0.2895	-0.049
Mof_H 	H 	0.42907	0.82253	0.30063	0.005
Mof_N 	N 	0.08857	0.53303	0.28978	-0.174
Mof_C 	C 	0.42177	0.93183	0.27705	0.027
Mof_H 	H 	0.42247	0.97413	0.27883	0.024
Mof_C 	C 	0.39567	0.89713	0.26036	0.021
Mof_H 	H 	0.38537	0.91813	0.25043	0.012
Mof_C 	C 	0.21677	0.47603	0.19838	-0.2
Mof_C 	C 	0.16837	0.40663	0.20202	-0.003
Mof_H 	H 	0.14737	0.39253	0.21393	-0.017
Mof_C 	C 	0.15257	0.36043	0.18792	-0.013
Mof_H 	H 	0.12267	0.31323	0.19073	-0.024
Mof_N 	N 	0.17567	0.37593	0.17045	-0.184
Mof_C 	C 	0.22017	0.44003	0.16716	-0.012
Mof_H 	H 	0.24097	0.45253	0.15533	0.002
Mof_C 	C 	0.23857	0.49123	0.18053	0.046
Mof_H 	H 	0.26697	0.53803	0.17713	0.043
Mof_Ag	Ag	0.69688	0.85429	0.64838	0.523
Mof_O 	O 	0.92376	0.96541	0.57228	-0.937
Mof_C 	C 	0.87693	0.90407	0.57428	0.556
Mof_O 	O 	0.07878	0.03285	0.54165	-1.079
Mof_C 	C 	0.14963	0.01257	0.56247	-0.891
Mof_H 	H 	0.19503	0.02277	0.56547	0.26
Mof_C 	C 	0.13653	0.03777	0.546	0.613
Mof_C 	C 	0.83443	0.88657	0.59208	-0.113
Mof_C 	C 	0.86013	0.93197	0.60622	-0.001
Mof_H 	H 	0.07093	0.09737	0.60497	0.004
Mof_C 	C 	0.82243	0.91597	0.62284	0.015
Mof_H 	H 	0.09573	0.15587	0.63397	-0.032
Mof_N 	N 	0.75523	0.86637	0.62312	-0.191
Mof_C 	C 	0.08843	0.26517	0.61039	0.027
Mof_H 	H 	0.08913	0.30747	0.61217	-0.026
Mof_C 	C 	0.06233	0.23047	0.5937	-0.06
Mof_H 	H 	0.05203	0.25147	0.58377	-0.011
Mof_C 	C 	0.88343	0.80937	0.53172	-0.102
Mof_C 	C 	0.83503	0.73997	0.53536	-0.043
Mof_H 	H 	0.81403	0.72587	0.54727	0.022
Mof_C 	C 	0.81923	0.69377	0.52126	0.028
Mof_H 	H 	0.78933	0.64657	0.52407	-0.01
Mof_N 	N 	0.84233	0.70927	0.50379	-0.194
Mof_C 	C 	0.88683	0.77337	0.5005	0.033
Mof_H 	H 	0.90763	0.78587	0.48867	0.007
Mof_C 	C 	0.90523	0.82457	0.51387	-0.012
Mof_H 	H 	0.93363	0.87137	0.51047	0.088
Mof_Ag	Ag	0.81238	0.17593	0.98171	0.46
Mof_O 	O 	0.70126	0.29169	0.90561	-1.357
Mof_C 	C 	0.7626	0.3062	0.90761	0.74
Mof_O 	O 	0.63382	0.37927	0.87498	-1.294
Mof_C 	C 	0.6541	0.4704	0.8958	-0.804
Mof_H 	H 	0.6439	0.5056	0.8988	0.269
Mof_C 	C 	0.6289	0.4321	0.87933	0.678
Mof_C 	C 	0.7801	0.2812	0.92541	-0.217
Mof_C 	C 	0.7347	0.2615	0.93955	0.057
Mof_H 	H 	0.5693	0.3069	0.9383	0.018
Mof_C 	C 	0.7507	0.2398	0.95617	-0.039
Mof_H 	H 	0.5108	0.2732	0.9673	0.004
Mof_N 	N 	0.8003	0.2222	0.95645	-0.177
Mof_C 	C 	0.4015	0.1566	0.94372	0.002
Mof_H 	H 	0.3592	0.115	0.9455	-0.02
Mof_C 	C 	0.4362	0.1652	0.92703	0.011
Mof_H 	H 	0.4152	0.1339	0.9171	-0.024
Mof_C 	C 	0.8573	0.4074	0.86505	-0.136
Mof_C 	C 	0.9267	0.4284	0.86869	-0.116
Mof_H 	H 	0.9408	0.4215	0.8806	0.06
Mof_C 	C 	0.9729	0.4588	0.85459	0.231
Mof_H 	H 	0.0201	0.4761	0.8574	-0.151
Mof_N 	N 	0.9574	0.4664	0.83712	-0.183
Mof_C 	C 	0.8933	0.4468	0.83383	0.021
Mof_H 	H 	0.8808	0.4551	0.822	0.009
Mof_C 	C 	0.8421	0.414	0.8472	0.008
Mof_H 	H 	0.7953	0.3956	0.8438	0.057
Mof_Ag	Ag	0.47905	0.50926	0.31504	0.465
Mof_O 	O 	0.36793	0.62502	0.23894	-1.356
Mof_C 	C 	0.42927	0.63953	0.24094	0.744
Mof_O 	O 	0.30049	0.7126	0.20831	-1.296
Mof_C 	C 	0.32077	0.80373	0.22913	-0.804
Mof_H 	H 	0.31057	0.83893	0.23213	0.276
Mof_C 	C 	0.29557	0.76543	0.21266	0.679
Mof_C 	C 	0.44677	0.61453	0.25874	-0.219
Mof_C 	C 	0.40137	0.59483	0.27288	0.059
Mof_H 	H 	0.23597	0.64023	0.27163	0.017
Mof_C 	C 	0.41737	0.57313	0.2895	-0.038
Mof_H 	H 	0.17747	0.60653	0.30063	0.008
Mof_N 	N 	0.46697	0.55553	0.28978	-0.178
Mof_C 	C 	0.06817	0.48993	0.27705	-0.011
Mof_H 	H 	0.02587	0.44833	0.27883	-0.027
Mof_C 	C 	0.10287	0.49853	0.26036	0.008
Mof_H 	H 	0.08187	0.46723	0.25043	-0.036
Mof_C 	C 	0.52397	0.74073	0.19838	-0.192
Mof_C 	C 	0.59337	0.76173	0.20202	0.008
Mof_H 	H 	0.60747	0.75483	0.21393	0.006
Mof_C 	C 	0.63957	0.79213	0.18792	0.002
Mof_H 	H 	0.68677	0.80943	0.19073	0.011
Mof_N 	N 	0.62407	0.79973	0.17045	-0.183
Mof_C 	C 	0.55997	0.78013	0.16716	-0.002
Mof_H 	H 	0.54747	0.78843	0.15533	0.003
Mof_C 	C 	0.50877	0.74733	0.18053	0.048
Mof_H 	H 	0.46197	0.72893	0.17713	0.043
Mof_Ag	Ag	0.14571	0.8426	0.64838	0.476
Mof_O 	O 	0.03459	0.95836	0.57228	-1.079
Mof_C 	C 	0.09593	0.97287	0.57428	0.794
Mof_O 	O 	0.96715	0.04594	0.54165	-0.975
Mof_C 	C 	0.98743	0.13707	0.56247	-0.459
Mof_H 	H 	0.97723	0.17227	0.56547	0.187
Mof_C 	C 	0.96223	0.09877	0.546	0.486
Mof_C 	C 	0.11343	0.94787	0.59208	-0.215
Mof_C 	C 	0.06803	0.92817	0.60622	0.061
Mof_H 	H 	0.90263	0.97357	0.60497	0.091
Mof_C 	C 	0.08403	0.90647	0.62284	-0.034
Mof_H 	H 	0.84413	0.93987	0.63397	0.025
Mof_N 	N 	0.13363	0.88887	0.62312	-0.177
Mof_C 	C 	0.73483	0.82327	0.61039	0.048
Mof_H 	H 	0.69253	0.78167	0.61217	-0.015
Mof_C 	C 	0.76953	0.83187	0.5937	-0.044
Mof_H 	H 	0.74853	0.80057	0.58377	0.013
Mof_C 	C 	0.19063	0.07407	0.53172	-0.201
Mof_C 	C 	0.26003	0.09507	0.53536	-0.005
Mof_H 	H 	0.27413	0.08817	0.54727	-0.017
Mof_C 	C 	0.30623	0.12547	0.52126	-0.017
Mof_H 	H 	0.35343	0.14277	0.52407	-0.013
Mof_N 	N 	0.29073	0.13307	0.50379	-0.184
Mof_C 	C 	0.22663	0.11347	0.5005	-0.023
Mof_H 	H 	0.21413	0.12177	0.48867	0.001
Mof_C 	C 	0.17543	0.08067	0.51387	0.031
Mof_H 	H 	0.12863	0.06227	0.51047	0.019
Mof_Ag	Ag	0.82407	0.63645	0.98171	0.494
Mof_O 	O 	0.70831	0.40957	0.90561	-1.354
Mof_C 	C 	0.6938	0.4564	0.90761	0.742
Mof_O 	O 	0.62073	0.25455	0.87498	-1.3
Mof_C 	C 	0.5296	0.1837	0.8958	-0.819
Mof_H 	H 	0.4944	0.1383	0.8988	0.265
Mof_C 	C 	0.5679	0.1968	0.87933	0.701
Mof_C 	C 	0.7188	0.4989	0.92541	-0.22
Mof_C 	C 	0.7385	0.4732	0.93955	0.061
Mof_H 	H 	0.6931	0.2624	0.9383	0.016
Mof_C 	C 	0.7602	0.5109	0.95617	-0.035
Mof_H 	H 	0.7268	0.2376	0.9673	0.002
Mof_N 	N 	0.7778	0.5781	0.95645	-0.178
Mof_C 	C 	0.8434	0.2449	0.94372	0.01
Mof_H 	H 	0.885	0.2442	0.9455	0.014
Mof_C 	C 	0.8348	0.271	0.92703	0.017
Mof_H 	H 	0.8661	0.2813	0.9171	-0.002
Mof_C 	C 	0.5926	0.4499	0.86505	-0.197
Mof_C 	C 	0.5716	0.4983	0.86869	0.003
Mof_H 	H 	0.5785	0.5193	0.8806	-0.004
Mof_C 	C 	0.5412	0.5141	0.85459	-0.006
Mof_H 	H 	0.5239	0.544	0.8574	-0.004
Mof_N 	N 	0.5336	0.491	0.83712	-0.183
Mof_C 	C 	0.5532	0.4465	0.83383	-0.008
Mof_H 	H 	0.5449	0.4257	0.822	0
Mof_C 	C 	0.586	0.4281	0.8472	0.047
Mof_H 	H 	0.6044	0.3997	0.8438	0.043
Mof_Ag	Ag	0.49074	0.96978	0.31504	0.639
Mof_O 	O 	0.37498	0.7429	0.23894	-1.352
Mof_C 	C 	0.36047	0.78973	0.24094	0.747
Mof_O 	O 	0.2874	0.58788	0.20831	-1.294
Mof_C 	C 	0.19627	0.51703	0.22913	-0.805
Mof_H 	H 	0.16107	0.47163	0.23213	0.259
Mof_C 	C 	0.23457	0.53013	0.21266	0.675
Mof_C 	C 	0.38547	0.83223	0.25874	-0.211
Mof_C 	C 	0.40517	0.80653	0.27288	0.061
Mof_H 	H 	0.35977	0.59573	0.27163	0.019
Mof_C 	C 	0.42687	0.84423	0.2895	-0.027
Mof_H 	H 	0.39347	0.57093	0.30063	0.005
Mof_N 	N 	0.44447	0.91143	0.28978	-0.181
Mof_C 	C 	0.51007	0.57823	0.27705	0.01
Mof_H 	H 	0.55167	0.57753	0.27883	-0.001
Mof_C 	C 	0.50147	0.60433	0.26036	0.015
Mof_H 	H 	0.53277	0.61463	0.25043	-0.009
Mof_C 	C 	0.25927	0.78323	0.19838	-0.198
Mof_C 	C 	0.23827	0.83163	0.20202	0.003
Mof_H 	H 	0.24517	0.85263	0.21393	0.003
Mof_C 	C 	0.20787	0.84743	0.18792	-0.005
Mof_H 	H 	0.19057	0.87733	0.19073	0.003
Mof_N 	N 	0.20027	0.82433	0.17045	-0.184
Mof_C 	C 	0.21987	0.77983	0.16716	-0.009
Mof_H 	H 	0.21157	0.75903	0.15533	-0.004
Mof_C 	C 	0.25267	0.76143	0.18053	0.045
Mof_H 	H 	0.27107	0.73303	0.17713	0.043
Mof_Ag	Ag	0.1574	0.30312	0.64838	0.405
Mof_O 	O 	0.04164	0.07624	0.57228	-1.061
Mof_C 	C 	0.02713	0.12307	0.57428	0.423
Mof_O 	O 	0.95406	0.92122	0.54165	-0.896
Mof_C 	C 	0.86293	0.85037	0.56247	-0.588
Mof_H 	H 	0.82773	0.80497	0.56547	0.206
Mof_C 	C 	0.90123	0.86347	0.546	0.509
Mof_C 	C 	0.05213	0.16557	0.59208	-0.137
Mof_C 	C 	0.07183	0.13987	0.60622	-0.021
Mof_H 	H 	0.02643	0.92907	0.60497	0.009
Mof_C 	C 	0.09353	0.17757	0.62284	-0.025
Mof_H 	H 	0.06013	0.90427	0.63397	0.003
Mof_N 	N 	0.11113	0.24477	0.62312	-0.191
Mof_C 	C 	0.17673	0.91157	0.61039	0.014
Mof_H 	H 	0.21833	0.91087	0.61217	0.012
Mof_C 	C 	0.16813	0.93767	0.5937	0.028
Mof_H 	H 	0.19943	0.94797	0.58377	0.015
Mof_C 	C 	0.92593	0.11657	0.53172	-0.115
Mof_C 	C 	0.90493	0.16497	0.53536	-0.043
Mof_H 	H 	0.91183	0.18597	0.54727	0.024
Mof_C 	C 	0.87453	0.18077	0.52126	0.022
Mof_H 	H 	0.85723	0.21067	0.52407	-0.009
Mof_N 	N 	0.86693	0.15767	0.50379	-0.193
Mof_C 	C 	0.88653	0.11317	0.5005	0.024
Mof_H 	H 	0.87823	0.09237	0.48867	-0.017
Mof_C 	C 	0.91933	0.09477	0.51387	-0.012
Mof_H 	H 	0.93773	0.06637	0.51047	0.058
Mof_Ag	Ag	0.81238	0.63645	0.48171	0.493
Mof_O 	O 	0.70126	0.40957	0.40561	-1.355
Mof_C 	C 	0.7626	0.4564	0.40761	0.74
Mof_O 	O 	0.63382	0.25455	0.37498	-1.3
Mof_C 	C 	0.6541	0.1837	0.3958	-0.819
Mof_H 	H 	0.6439	0.1383	0.3988	0.265
Mof_C 	C 	0.6289	0.1968	0.37933	0.701
Mof_C 	C 	0.7801	0.4989	0.42541	-0.216
Mof_C 	C 	0.7347	0.4732	0.43955	0.059
Mof_H 	H 	0.5693	0.2624	0.4383	0.016
Mof_C 	C 	0.7507	0.5109	0.45617	-0.035
Mof_H 	H 	0.5108	0.2376	0.4673	0.001
Mof_N 	N 	0.8003	0.5781	0.45645	-0.177
Mof_C 	C 	0.4015	0.2449	0.44372	0.006
Mof_H 	H 	0.3592	0.2442	0.4455	-0
Mof_C 	C 	0.4362	0.271	0.42703	0.014
Mof_H 	H 	0.4152	0.2813	0.4171	-0.012
Mof_C 	C 	0.8573	0.4499	0.36505	-0.137
Mof_C 	C 	0.9267	0.4983	0.36869	-0.115
Mof_H 	H 	0.9408	0.5193	0.3806	0.059
Mof_C 	C 	0.9729	0.5141	0.35459	0.228
Mof_H 	H 	0.0201	0.544	0.3574	-0.149
Mof_N 	N 	0.9574	0.491	0.33712	-0.183
Mof_C 	C 	0.8933	0.4465	0.33383	0.021
Mof_H 	H 	0.8808	0.4257	0.322	0.009
Mof_C 	C 	0.8421	0.4281	0.3472	0.008
Mof_H 	H 	0.7953	0.3997	0.3438	0.057
Mof_Ag	Ag	0.47905	0.96978	0.81504	0.64
Mof_O 	O 	0.36793	0.7429	0.73894	-1.353
Mof_C 	C 	0.42927	0.78973	0.74094	0.749
Mof_O 	O 	0.30049	0.58788	0.70831	-1.295
Mof_C 	C 	0.32077	0.51703	0.72913	-0.805
Mof_H 	H 	0.31057	0.47163	0.73213	0.264
Mof_C 	C 	0.29557	0.53013	0.71266	0.675
Mof_C 	C 	0.44677	0.83223	0.75874	-0.209
Mof_C 	C 	0.40137	0.80653	0.77288	0.06
Mof_H 	H 	0.23597	0.59573	0.77163	0.016
Mof_C 	C 	0.41737	0.84423	0.7895	-0.026
Mof_H 	H 	0.17747	0.57093	0.80063	0.006
Mof_N 	N 	0.46697	0.91143	0.78978	-0.182
Mof_C 	C 	0.06817	0.57823	0.77705	-0.008
Mof_H 	H 	0.02587	0.57753	0.77883	-0.024
Mof_C 	C 	0.10287	0.60433	0.76036	0.009
Mof_H 	H 	0.08187	0.61463	0.75043	-0.033
Mof_C 	C 	0.52397	0.78323	0.69838	-0.194
Mof_C 	C 	0.59337	0.83163	0.70202	0.008
Mof_H 	H 	0.60747	0.85263	0.71393	0.011
Mof_C 	C 	0.63957	0.84743	0.68792	0.002
Mof_H 	H 	0.68677	0.87733	0.69073	0.016
Mof_N 	N 	0.62407	0.82433	0.67045	-0.183
Mof_C 	C 	0.55997	0.77983	0.66716	-0.004
Mof_H 	H 	0.54747	0.75903	0.65533	-0.001
Mof_C 	C 	0.50877	0.76143	0.68053	0.047
Mof_H 	H 	0.46197	0.73303	0.67713	0.043
Mof_Ag	Ag	0.14571	0.30312	0.14838	0.406
Mof_O 	O 	0.03459	0.07624	0.07228	-1.116
Mof_C 	C 	0.09593	0.12307	0.07428	0.604
Mof_O 	O 	0.96715	0.92122	0.04165	-0.889
Mof_C 	C 	0.98743	0.85037	0.06247	-0.431
Mof_H 	H 	0.97723	0.80497	0.06547	0.181
Mof_C 	C 	0.96223	0.86347	0.046	0.466
Mof_C 	C 	0.11343	0.16557	0.09208	-0.194
Mof_C 	C 	0.06803	0.13987	0.10622	0.022
Mof_H 	H 	0.90263	0.92907	0.10497	0.059
Mof_C 	C 	0.08403	0.17757	0.12284	-0.045
Mof_H 	H 	0.84413	0.90427	0.13397	0.026
Mof_N 	N 	0.13363	0.24477	0.12312	-0.183
Mof_C 	C 	0.73483	0.91157	0.11039	0.032
Mof_H 	H 	0.69253	0.91087	0.11217	0.007
Mof_C 	C 	0.76953	0.93767	0.0937	0.009
Mof_H 	H 	0.74853	0.94797	0.08377	0.022
Mof_C 	C 	0.19063	0.11657	0.03172	-0.175
Mof_C 	C 	0.26003	0.16497	0.03536	-0.02
Mof_H 	H 	0.27413	0.18597	0.04727	-0.002
Mof_C 	C 	0.30623	0.18077	0.02126	-0.005
Mof_H 	H 	0.35343	0.21067	0.02407	-0.011
Mof_N 	N 	0.29073	0.15767	0.00379	-0.188
Mof_C 	C 	0.22663	0.11317	0.0005	-0.009
Mof_H 	H 	0.21413	0.09237	0.98867	-0.015
Mof_C 	C 	0.17543	0.09477	0.01387	0.015
Mof_H 	H 	0.12863	0.06637	0.01047	0.021
Mof_Ag	Ag	0.82407	0.18762	0.48171	0.462
Mof_O 	O 	0.70831	0.29874	0.40561	-1.356
Mof_C 	C 	0.6938	0.2374	0.40761	0.746
Mof_O 	O 	0.62073	0.36618	0.37498	-1.294
Mof_C 	C 	0.5296	0.3459	0.3958	-0.804
Mof_H 	H 	0.4944	0.3561	0.3988	0.27
Mof_C 	C 	0.5679	0.3711	0.37933	0.678
Mof_C 	C 	0.7188	0.2199	0.42541	-0.226
Mof_C 	C 	0.7385	0.2653	0.43955	0.062
Mof_H 	H 	0.6931	0.4307	0.4383	0.02
Mof_C 	C 	0.7602	0.2493	0.45617	-0.04
Mof_H 	H 	0.7268	0.4892	0.4673	0.006
Mof_N 	N 	0.7778	0.1997	0.45645	-0.178
Mof_C 	C 	0.8434	0.5985	0.44372	0.011
Mof_H 	H 	0.885	0.6408	0.4455	0.011
Mof_C 	C 	0.8348	0.5638	0.42703	0.016
Mof_H 	H 	0.8661	0.5848	0.4171	-0.003
Mof_C 	C 	0.5926	0.1427	0.36505	-0.269
Mof_C 	C 	0.5716	0.0733	0.36869	0.143
Mof_H 	H 	0.5785	0.0592	0.3806	-0.079
Mof_C 	C 	0.5412	0.0271	0.35459	-0.285
Mof_H 	H 	0.5239	0.9799	0.3574	0.17
Mof_N 	N 	0.5336	0.0426	0.33712	-0.184
Mof_C 	C 	0.5532	0.1067	0.33383	-0.043
Mof_H 	H 	0.5449	0.1192	0.322	-0.01
Mof_C 	C 	0.586	0.1579	0.3472	0.093
Mof_H 	H 	0.6044	0.2047	0.3438	0.027
Mof_Ag	Ag	0.49074	0.52095	0.81504	0.464
Mof_O 	O 	0.37498	0.63207	0.73894	-1.355
Mof_C 	C 	0.36047	0.57073	0.74094	0.741
Mof_O 	O 	0.2874	0.69951	0.70831	-1.293
Mof_C 	C 	0.19627	0.67923	0.72913	-0.804
Mof_H 	H 	0.16107	0.68943	0.73213	0.265
Mof_C 	C 	0.23457	0.70443	0.71266	0.679
Mof_C 	C 	0.38547	0.55323	0.75874	-0.223
Mof_C 	C 	0.40517	0.59863	0.77288	0.06
Mof_H 	H 	0.35977	0.76403	0.77163	0.023
Mof_C 	C 	0.42687	0.58263	0.7895	-0.04
Mof_H 	H 	0.39347	0.82253	0.80063	0.004
Mof_N 	N 	0.44447	0.53303	0.78978	-0.177
Mof_C 	C 	0.51007	0.93183	0.77705	0.029
Mof_H 	H 	0.55167	0.97413	0.77883	0.024
Mof_C 	C 	0.50147	0.89713	0.76036	0.021
Mof_H 	H 	0.53277	0.91813	0.75043	0.015
Mof_C 	C 	0.25927	0.47603	0.69838	-0.202
Mof_C 	C 	0.23827	0.40663	0.70202	-0.003
Mof_H 	H 	0.24517	0.39253	0.71393	-0.013
Mof_C 	C 	0.20787	0.36043	0.68792	-0.013
Mof_H 	H 	0.19057	0.31323	0.69073	-0.021
Mof_N 	N 	0.20027	0.37593	0.67045	-0.184
Mof_C 	C 	0.21987	0.44003	0.66716	-0.014
Mof_H 	H 	0.21157	0.45253	0.65533	-0.002
Mof_C 	C 	0.25267	0.49123	0.68053	0.045
Mof_H 	H 	0.27107	0.53803	0.67713	0.043
Mof_Ag	Ag	0.1574	0.85429	0.14838	0.472
Mof_O 	O 	0.04164	0.96541	0.07228	-0.959
Mof_C 	C 	0.02713	0.90407	0.07428	0.412
Mof_O 	O 	0.95406	0.03285	0.04165	-0.99
Mof_C 	C 	0.86293	0.01257	0.06247	-0.826
Mof_H 	H 	0.82773	0.02277	0.06547	0.246
Mof_C 	C 	0.90123	0.03777	0.046	0.584
Mof_C 	C 	0.05213	0.88657	0.09208	-0.097
Mof_C 	C 	0.07183	0.93197	0.10622	-0.031
Mof_H 	H 	0.02643	0.09737	0.10497	-0.024
Mof_C 	C 	0.09353	0.91597	0.12284	0.008
Mof_H 	H 	0.06013	0.15587	0.13397	-0.03
Mof_N 	N 	0.11113	0.86637	0.12312	-0.195
Mof_C 	C 	0.17673	0.26517	0.11039	0.011
Mof_H 	H 	0.21833	0.30747	0.11217	-0.007
Mof_C 	C 	0.16813	0.23047	0.0937	-0.012
Mof_H 	H 	0.19943	0.25147	0.08377	-0.004
Mof_C 	C 	0.92593	0.80937	0.03172	-0.082
Mof_C 	C 	0.90493	0.73997	0.03536	-0.054
Mof_H 	H 	0.91183	0.72587	0.04727	0.034
Mof_C 	C 	0.87453	0.69377	0.02126	0.038
Mof_H 	H 	0.85723	0.64657	0.02407	-0.008
Mof_N 	N 	0.86693	0.70927	0.00379	-0.196
Mof_C 	C 	0.88653	0.77337	0.0005	0.043
Mof_H 	H 	0.87823	0.78587	0.98867	-0.005
Mof_C 	C 	0.91933	0.82457	0.01387	-0.025
Mof_H 	H 	0.93773	0.87137	0.01047	0.089
Mof_Ag	Ag	0.36355	0.17593	0.48171	0.429
Mof_O 	O 	0.59043	0.29169	0.40561	-1.358
Mof_C 	C 	0.5436	0.3062	0.40761	0.742
Mof_O 	O 	0.74545	0.37927	0.37498	-1.289
Mof_C 	C 	0.8163	0.4704	0.3958	-0.792
Mof_H 	H 	0.8617	0.5056	0.3988	0.272
Mof_C 	C 	0.8032	0.4321	0.37933	0.659
Mof_C 	C 	0.5011	0.2812	0.42541	-0.223
Mof_C 	C 	0.5268	0.2615	0.43955	0.058
Mof_H 	H 	0.7376	0.3069	0.4383	0.021
Mof_C 	C 	0.4891	0.2398	0.45617	-0.044
Mof_H 	H 	0.7624	0.2732	0.4673	0.008
Mof_N 	N 	0.4219	0.2222	0.45645	-0.177
Mof_C 	C 	0.7551	0.1566	0.44372	0.003
Mof_H 	H 	0.7558	0.115	0.4455	-0.021
Mof_C 	C 	0.729	0.1652	0.42703	0.011
Mof_H 	H 	0.7187	0.1339	0.4171	-0.025
Mof_C 	C 	0.5501	0.4074	0.36505	-0.197
Mof_C 	C 	0.5017	0.4284	0.36869	0.002
Mof_H 	H 	0.4807	0.4215	0.3806	-0.003
Mof_C 	C 	0.4859	0.4588	0.35459	-0.005
Mof_H 	H 	0.456	0.4761	0.3574	-0.005
Mof_N 	N 	0.509	0.4664	0.33712	-0.183
Mof_C 	C 	0.5535	0.4468	0.33383	-0.008
Mof_H 	H 	0.5743	0.4551	0.322	0.001
Mof_C 	C 	0.5719	0.414	0.3472	0.047
Mof_H 	H 	0.6003	0.3956	0.3438	0.043
Mof_Ag	Ag	0.03022	0.50926	0.81504	0.319
Mof_O 	O 	0.2571	0.62502	0.73894	-1.36
Mof_C 	C 	0.21027	0.63953	0.74094	0.739
Mof_O 	O 	0.41212	0.7126	0.70831	-1.294
Mof_C 	C 	0.48297	0.80373	0.72913	-0.803
Mof_H 	H 	0.52837	0.83893	0.73213	0.28
Mof_C 	C 	0.46987	0.76543	0.71266	0.682
Mof_C 	C 	0.16777	0.61453	0.75874	-0.228
Mof_C 	C 	0.19347	0.59483	0.77288	0.059
Mof_H 	H 	0.40427	0.64023	0.77163	0.02
Mof_C 	C 	0.15577	0.57313	0.7895	-0.048
Mof_H 	H 	0.42907	0.60653	0.80063	0.007
Mof_N 	N 	0.08857	0.55553	0.78978	-0.174
Mof_C 	C 	0.42177	0.48993	0.77705	0.005
Mof_H 	H 	0.42247	0.44833	0.77883	-0.005
Mof_C 	C 	0.39567	0.49853	0.76036	0.013
Mof_H 	H 	0.38537	0.46723	0.75043	-0.016
Mof_C 	C 	0.21677	0.74073	0.69838	-0.194
Mof_C 	C 	0.16837	0.76173	0.70202	0.004
Mof_H 	H 	0.14737	0.75483	0.71393	-0.006
Mof_C 	C 	0.15257	0.79213	0.68792	-0.004
Mof_H 	H 	0.12267	0.80943	0.69073	-0.006
Mof_N 	N 	0.17567	0.79973	0.67045	-0.183
Mof_C 	C 	0.22017	0.78013	0.66716	-0.005
Mof_H 	H 	0.24097	0.78843	0.65533	0.005
Mof_C 	C 	0.23857	0.74733	0.68053	0.048
Mof_H 	H 	0.26697	0.72893	0.67713	0.043
Mof_Ag	Ag	0.69688	0.8426	0.14838	0.525
Mof_O 	O 	0.92376	0.95836	0.07228	-0.998
Mof_C 	C 	0.87693	0.97287	0.07428	0.754
Mof_O 	O 	0.07878	0.04594	0.04165	-1.069
Mof_C 	C 	0.14963	0.13707	0.06247	-0.682
Mof_H 	H 	0.19503	0.17227	0.06547	0.225
Mof_C 	C 	0.13653	0.09877	0.046	0.556
Mof_C 	C 	0.83443	0.94787	0.09208	-0.175
Mof_C 	C 	0.86013	0.92817	0.10622	0.047
Mof_H 	H 	0.07093	0.97357	0.10497	0.069
Mof_C 	C 	0.82243	0.90647	0.12284	-0.007
Mof_H 	H 	0.09573	0.93987	0.13397	0.001
Mof_N 	N 	0.75523	0.88887	0.12312	-0.182
Mof_C 	C 	0.08843	0.82327	0.11039	0.046
Mof_H 	H 	0.08913	0.78167	0.11217	-0.03
Mof_C 	C 	0.06233	0.83187	0.0937	-0.075
Mof_H 	H 	0.05203	0.80057	0.08377	-0.002
Mof_C 	C 	0.88343	0.07407	0.03172	-0.162
Mof_C 	C 	0.83503	0.09507	0.03536	-0.018
Mof_H 	H 	0.81403	0.08817	0.04727	-0.004
Mof_C 	C 	0.81923	0.12547	0.02126	0
Mof_H 	H 	0.78933	0.14277	0.02407	-0.013
Mof_N 	N 	0.84233	0.13307	0.00379	-0.188
Mof_C 	C 	0.88683	0.11347	0.0005	-0.001
Mof_H 	H 	0.90763	0.12177	0.98867	0.012
Mof_C 	C 	0.90523	0.08067	0.01387	0.017
Mof_H 	H 	0.93363	0.06227	0.01047	0.054
Mof_Al	Al	0.66667	0.33333	0.89006	5.835
Mof_Al	Al	0.33333	0.66667	0.22339	5.835
Mof_Al	Al	1.28187e-32	0	0.55673	4.22
Mof_Al	Al	0.66667	0.33333	0.39006	5.835
Mof_Al	Al	0.33333	0.66667	0.72339	5.835
Mof_Al	Al	1.60233e-33	0	0.05673	4.217
Mof_Ag	Ag	0.32817	0.19064	0.88518	0.479
Mof_O 	O 	0.5899	0.2973	0.81825	-1.317
Mof_C 	C 	0.5304	0.2432	0.81631	0.687
Mof_O 	O 	0.7434	0.3676	0.78707	-1.29
Mof_C 	C 	0.8039	0.3175	0.80161	-0.777
Mof_H 	H 	0.8419	0.3101	0.8006	0.258
Mof_C 	C 	0.7953	0.3576	0.78874	0.671
Mof_C 	C 	0.4808	0.2279	0.83173	-0.219
Mof_C 	C 	0.5053	0.2603	0.84844	0.059
Mof_H 	H 	0.7371	0.4468	0.8503	0.045
Mof_C 	C 	0.459	0.2481	0.86258	-0.005
Mof_H 	H 	0.797	0.5243	0.8739	-0.001
Mof_N 	N 	0.3937	0.2044	0.86111	-0.178
Mof_C 	C 	0.8024	0.6301	0.84469	-0.016
Mof_H 	H 	0.8221	0.6784	0.8433	0.016
Mof_C 	C 	0.7687	0.5907	0.83039	0.025
Mof_H 	H 	0.7594	0.6092	0.8197	-0.021
Mof_C 	C 	0.5441	0.1558	0.77323	-0.203
Mof_C 	C 	0.4873	0.0907	0.77312	0.014
Mof_H 	H 	0.4609	0.0731	0.7841	-0.046
Mof_C 	C 	0.4679	0.05	0.75712	-0.034
Mof_H 	H 	0.424	0.0095	0.7566	-0.024
Mof_N 	N 	0.5107	0.0676	0.74241	-0.182
Mof_C 	C 	0.5631	0.1279	0.74166	0.003
Mof_H 	H 	0.5899	0.1412	0.7307	-0.006
Mof_C 	C 	0.584	0.1775	0.75667	0.038
Mof_H 	H 	0.6226	0.2224	0.7555	0.045
Mof_Ag	Ag	0.99484	0.52397	0.21851	0.631
Mof_O 	O 	0.25657	0.63063	0.15158	-1.324
Mof_C 	C 	0.19707	0.57653	0.14964	0.707
Mof_O 	O 	0.41007	0.70093	0.1204	-1.29
Mof_C 	C 	0.47057	0.65083	0.13494	-0.777
Mof_H 	H 	0.50857	0.64343	0.13393	0.253
Mof_C 	C 	0.46197	0.69093	0.12207	0.67
Mof_C 	C 	0.14747	0.56123	0.16506	-0.286
Mof_C 	C 	0.17197	0.59363	0.18177	0.104
Mof_H 	H 	0.40377	0.78013	0.18363	0.064
Mof_C 	C 	0.12567	0.58143	0.19591	-0.038
Mof_H 	H 	0.46367	0.85763	0.20723	0.006
Mof_N 	N 	0.06037	0.53773	0.19444	-0.172
Mof_C 	C 	0.46907	0.96343	0.17802	0.286
Mof_H 	H 	0.48877	0.01173	0.17663	-0.16
Mof_C 	C 	0.43537	0.92403	0.16372	-0.146
Mof_H 	H 	0.42607	0.94253	0.15303	0.077
Mof_C 	C 	0.21077	0.48913	0.10656	-0.196
Mof_C 	C 	0.15397	0.42403	0.10645	0.015
Mof_H 	H 	0.12757	0.40643	0.11743	-0.03
Mof_C 	C 	0.13457	0.38333	0.09045	-0.015
Mof_H 	H 	0.09067	0.34283	0.08993	-0.016
Mof_N 	N 	0.17737	0.40093	0.07574	-0.187
Mof_C 	C 	0.22977	0.46123	0.07499	0.013
Mof_H 	H 	0.25657	0.47453	0.06403	-0.006
Mof_C 	C 	0.25067	0.51083	0.09	0.039
Mof_H 	H 	0.28927	0.55573	0.08883	0.046
Mof_Ag	Ag	0.6615	0.85731	0.55185	0.528
Mof_O 	O 	0.92323	0.96397	0.48492	-0.901
Mof_C 	C 	0.86373	0.90987	0.48298	0.511
Mof_O 	O 	0.07673	0.03427	0.45374	-1.001
Mof_C 	C 	0.13723	0.98417	0.46828	-0.384
Mof_H 	H 	0.17523	0.97677	0.46727	0.165
Mof_C 	C 	0.12863	0.02427	0.45541	0.332
Mof_C 	C 	0.81413	0.89457	0.4984	-0.117
Mof_C 	C 	0.83863	0.92697	0.51511	-0.005
Mof_H 	H 	0.07043	0.11347	0.51697	0.025
Mof_C 	C 	0.79233	0.91477	0.52925	0.04
Mof_H 	H 	0.13033	0.19097	0.54057	-0
Mof_N 	N 	0.72703	0.87107	0.52778	-0.189
Mof_C 	C 	0.13573	0.29677	0.51136	-0.027
Mof_H 	H 	0.15543	0.34507	0.50997	0.012
Mof_C 	C 	0.10203	0.25737	0.49706	0.014
Mof_H 	H 	0.09273	0.27587	0.48637	-0.026
Mof_C 	C 	0.87743	0.82247	0.4399	-0.108
Mof_C 	C 	0.82063	0.75737	0.43979	-0.028
Mof_H 	H 	0.79423	0.73977	0.45077	-0.002
Mof_C 	C 	0.80123	0.71667	0.42379	0.011
Mof_H 	H 	0.75733	0.67617	0.42327	-0.008
Mof_N 	N 	0.84403	0.73427	0.40908	-0.195
Mof_C 	C 	0.89643	0.79457	0.40833	0.046
Mof_H 	H 	0.92323	0.80787	0.39737	0.005
Mof_C 	C 	0.91733	0.84417	0.42334	-0.012
Mof_H 	H 	0.95593	0.88907	0.42217	0.101
Mof_Ag	Ag	0.80936	0.13753	0.88518	0.459
Mof_O 	O 	0.7027	0.2926	0.81825	-1.319
Mof_C 	C 	0.7568	0.2872	0.81631	0.687
Mof_O 	O 	0.6324	0.3758	0.78707	-1.291
Mof_C 	C 	0.6825	0.4864	0.80161	-0.776
Mof_H 	H 	0.6899	0.5318	0.8006	0.252
Mof_C 	C 	0.6424	0.4377	0.78874	0.668
Mof_C 	C 	0.7721	0.2529	0.83173	-0.218
Mof_C 	C 	0.7397	0.245	0.84844	0.057
Mof_H 	H 	0.5532	0.2903	0.8503	0.045
Mof_C 	C 	0.7519	0.2109	0.86258	-0.005
Mof_H 	H 	0.4757	0.2727	0.8739	-0.002
Mof_N 	N 	0.7956	0.1893	0.86111	-0.177
Mof_C 	C 	0.3699	0.1723	0.84469	-0.027
Mof_H 	H 	0.3216	0.1437	0.8433	0.012
Mof_C 	C 	0.4093	0.178	0.83039	0.023
Mof_H 	H 	0.3908	0.1502	0.8197	-0.027
Mof_C 	C 	0.8442	0.3883	0.77323	-0.185
Mof_C 	C 	0.9093	0.3966	0.77312	0.02
Mof_H 	H 	0.9269	0.3878	0.7841	0.001
Mof_C 	C 	0.95	0.4179	0.75712	0.002
Mof_H 	H 	0.9905	0.4145	0.7566	0.019
Mof_N 	N 	0.9324	0.4431	0.74241	-0.192
Mof_C 	C 	0.8721	0.4352	0.74166	0.024
Mof_H 	H 	0.8588	0.4487	0.7307	-0.007
Mof_C 	C 	0.8225	0.4065	0.75667	0.038
Mof_H 	H 	0.7776	0.4002	0.7555	0.048
Mof_Ag	Ag	0.47603	0.47086	0.21851	0.491
Mof_O 	O 	0.36937	0.62593	0.15158	-1.317
Mof_C 	C 	0.42347	0.62053	0.14964	0.687
Mof_O 	O 	0.29907	0.70913	0.1204	-1.291
Mof_C 	C 	0.34917	0.81973	0.13494	-0.763
Mof_H 	H 	0.35657	0.86513	0.13393	0.26
Mof_C 	C 	0.30907	0.77103	0.12207	0.665
Mof_C 	C 	0.43877	0.58623	0.16506	-0.217
Mof_C 	C 	0.40637	0.57833	0.18177	0.058
Mof_H 	H 	0.21987	0.62363	0.18363	0.029
Mof_C 	C 	0.41857	0.54423	0.19591	-0.003
Mof_H 	H 	0.14237	0.60603	0.20723	-0.009
Mof_N 	N 	0.46227	0.52263	0.19444	-0.178
Mof_C 	C 	0.03657	0.50563	0.17802	-0.278
Mof_H 	H 	0.98827	0.47703	0.17663	0.162
Mof_C 	C 	0.07597	0.51133	0.16372	0.166
Mof_H 	H 	0.05747	0.48353	0.15303	-0.103
Mof_C 	C 	0.51087	0.72163	0.10656	-0.193
Mof_C 	C 	0.57597	0.72993	0.10645	0.019
Mof_H 	H 	0.59357	0.72113	0.11743	-0.021
Mof_C 	C 	0.61667	0.75123	0.09045	-0.014
Mof_H 	H 	0.65717	0.74783	0.08993	0.002
Mof_N 	N 	0.59907	0.77643	0.07574	-0.187
Mof_C 	C 	0.53877	0.76853	0.07499	0.017
Mof_H 	H 	0.52547	0.78203	0.06403	-0.004
Mof_C 	C 	0.48917	0.73983	0.09	0.041
Mof_H 	H 	0.44427	0.73353	0.08883	0.045
Mof_Ag	Ag	0.14269	0.8042	0.55185	0.493
Mof_O 	O 	0.03603	0.95927	0.48492	-0.968
Mof_C 	C 	0.09013	0.95387	0.48298	0.474
Mof_O 	O 	0.96573	0.04247	0.45374	-1.027
Mof_C 	C 	0.01583	0.15307	0.46828	-0.837
Mof_H 	H 	0.02323	0.19847	0.46727	0.244
Mof_C 	C 	0.97573	0.10437	0.45541	0.711
Mof_C 	C 	0.10543	0.91957	0.4984	-0.111
Mof_C 	C 	0.07303	0.91167	0.51511	-0.007
Mof_H 	H 	0.88653	0.95697	0.51697	0.101
Mof_C 	C 	0.08523	0.87757	0.52925	0.037
Mof_H 	H 	0.80903	0.93937	0.54057	0.011
Mof_N 	N 	0.12893	0.85597	0.52778	-0.188
Mof_C 	C 	0.70323	0.83897	0.51136	0.017
Mof_H 	H 	0.65493	0.81037	0.50997	0.005
Mof_C 	C 	0.74263	0.84467	0.49706	-0.027
Mof_H 	H 	0.72413	0.81687	0.48637	0.002
Mof_C 	C 	0.17753	0.05497	0.4399	-0.098
Mof_C 	C 	0.24263	0.06327	0.43979	-0.063
Mof_H 	H 	0.26023	0.05447	0.45077	-0.02
Mof_C 	C 	0.28333	0.08457	0.42379	0.002
Mof_H 	H 	0.32383	0.08117	0.42327	-0.025
Mof_N 	N 	0.26573	0.10977	0.40908	-0.198
Mof_C 	C 	0.20543	0.10187	0.40833	0.021
Mof_H 	H 	0.19213	0.11537	0.39737	-0.015
Mof_C 	C 	0.15583	0.07317	0.42334	-0.039
Mof_H 	H 	0.11093	0.06687	0.42217	0.043
Mof_Ag	Ag	0.86247	0.67183	0.88518	0.54
Mof_O 	O 	0.7074	0.4101	0.81825	-1.316
Mof_C 	C 	0.7128	0.4696	0.81631	0.688
Mof_O 	O 	0.6242	0.2566	0.78707	-1.293
Mof_C 	C 	0.5136	0.1961	0.80161	-0.778
Mof_H 	H 	0.4682	0.1581	0.8006	0.247
Mof_C 	C 	0.5623	0.2047	0.78874	0.666
Mof_C 	C 	0.7471	0.5192	0.83173	-0.214
Mof_C 	C 	0.755	0.4947	0.84844	0.059
Mof_H 	H 	0.7097	0.2629	0.8503	0.045
Mof_C 	C 	0.7891	0.541	0.86258	0.001
Mof_H 	H 	0.7273	0.203	0.8739	-0.006
Mof_N 	N 	0.8107	0.6063	0.86111	-0.179
Mof_C 	C 	0.8277	0.1976	0.84469	-0.022
Mof_H 	H 	0.8563	0.1779	0.8433	0.019
Mof_C 	C 	0.822	0.2313	0.83039	0.024
Mof_H 	H 	0.8498	0.2406	0.8197	-0.016
Mof_C 	C 	0.6117	0.4559	0.77323	-0.194
Mof_C 	C 	0.6034	0.5127	0.77312	0.017
Mof_H 	H 	0.6122	0.5391	0.7841	-0.019
Mof_C 	C 	0.5821	0.5321	0.75712	-0.015
Mof_H 	H 	0.5855	0.576	0.7566	0.004
Mof_N 	N 	0.5569	0.4893	0.74241	-0.188
Mof_C 	C 	0.5648	0.4369	0.74166	0.014
Mof_H 	H 	0.5513	0.4101	0.7307	-0.009
Mof_C 	C 	0.5935	0.416	0.75667	0.037
Mof_H 	H 	0.5998	0.3774	0.7555	0.046
Mof_Ag	Ag	0.52914	0.00516	0.21851	0.333
Mof_O 	O 	0.37407	0.74343	0.15158	-1.31
Mof_C 	C 	0.37947	0.80293	0.14964	0.663
Mof_O 	O 	0.29087	0.58993	0.1204	-1.292
Mof_C 	C 	0.18027	0.52943	0.13494	-0.789
Mof_H 	H 	0.13487	0.49143	0.13393	0.246
Mof_C 	C 	0.22897	0.53803	0.12207	0.671
Mof_C 	C 	0.41377	0.85253	0.16506	-0.132
Mof_C 	C 	0.42167	0.82803	0.18177	0.004
Mof_H 	H 	0.37637	0.59623	0.18363	0.045
Mof_C 	C 	0.45577	0.87433	0.19591	0.04
Mof_H 	H 	0.39397	0.53633	0.20723	-0.004
Mof_N 	N 	0.47737	0.93963	0.19444	-0.185
Mof_C 	C 	0.49437	0.53093	0.17802	-0.021
Mof_H 	H 	0.52297	0.51123	0.17663	0.017
Mof_C 	C 	0.48867	0.56463	0.16372	0.024
Mof_H 	H 	0.51647	0.57393	0.15303	-0.02
Mof_C 	C 	0.27837	0.78923	0.10656	-0.192
Mof_C 	C 	0.27007	0.84603	0.10645	0.018
Mof_H 	H 	0.27887	0.87243	0.11743	-0.009
Mof_C 	C 	0.24877	0.86543	0.09045	-0.014
Mof_H 	H 	0.25217	0.90933	0.08993	0.019
Mof_N 	N 	0.22357	0.82263	0.07574	-0.189
Mof_C 	C 	0.23147	0.77023	0.07499	0.014
Mof_H 	H 	0.21797	0.74343	0.06403	-0.012
Mof_C 	C 	0.26017	0.74933	0.09	0.034
Mof_H 	H 	0.26647	0.71073	0.08883	0.048
Mof_Ag	Ag	0.1958	0.3385	0.55185	0.475
Mof_O 	O 	0.04073	0.07677	0.48492	-1.088
Mof_C 	C 	0.04613	0.13627	0.48298	0.611
Mof_O 	O 	0.95753	0.92327	0.45374	-0.886
Mof_C 	C 	0.84693	0.86277	0.46828	-0.567
Mof_H 	H 	0.80153	0.82477	0.46727	0.187
Mof_C 	C 	0.89563	0.87137	0.45541	0.498
Mof_C 	C 	0.08043	0.18587	0.4984	-0.211
Mof_C 	C 	0.08833	0.16137	0.51511	0.037
Mof_H 	H 	0.04303	0.92957	0.51697	0.066
Mof_C 	C 	0.12243	0.20767	0.52925	-0.012
Mof_H 	H 	0.06063	0.86967	0.54057	-0.018
Mof_N 	N 	0.14403	0.27297	0.52778	-0.18
Mof_C 	C 	0.16103	0.86427	0.51136	0.019
Mof_H 	H 	0.18963	0.84457	0.50997	0.008
Mof_C 	C 	0.15533	0.89797	0.49706	-0.032
Mof_H 	H 	0.18313	0.90727	0.48637	0.015
Mof_C 	C 	0.94503	0.12257	0.4399	-0.199
Mof_C 	C 	0.93673	0.17937	0.43979	0.037
Mof_H 	H 	0.94553	0.20577	0.45077	0
Mof_C 	C 	0.91543	0.19877	0.42379	-0.007
Mof_H 	H 	0.91883	0.24267	0.42327	0.016
Mof_N 	N 	0.89023	0.15597	0.40908	-0.186
Mof_C 	C 	0.89813	0.10357	0.40833	0.018
Mof_H 	H 	0.88463	0.07677	0.39737	-0.012
Mof_C 	C 	0.92683	0.08267	0.42334	0.043
Mof_H 	H 	0.93313	0.04407	0.42217	0.026
Mof_Ag	Ag	0.80936	0.67183	0.38518	0.511
Mof_O 	O 	0.7027	0.4101	0.31825	-1.317
Mof_C 	C 	0.7568	0.4696	0.31631	0.688
Mof_O 	O 	0.6324	0.2566	0.28707	-1.293
Mof_C 	C 	0.6825	0.1961	0.30161	-0.777
Mof_H 	H 	0.6899	0.1581	0.3006	0.247
Mof_C 	C 	0.6424	0.2047	0.28874	0.666
Mof_C 	C 	0.7721	0.5192	0.33173	-0.215
Mof_C 	C 	0.7397	0.4947	0.34844	0.057
Mof_H 	H 	0.5532	0.2629	0.3503	0.045
Mof_C 	C 	0.7519	0.541	0.36258	-0.001
Mof_H 	H 	0.4757	0.203	0.3739	-0.005
Mof_N 	N 	0.7956	0.6063	0.36111	-0.178
Mof_C 	C 	0.3699	0.1976	0.34469	-0.027
Mof_H 	H 	0.3216	0.1779	0.3433	0.016
Mof_C 	C 	0.4093	0.2313	0.33039	0.023
Mof_H 	H 	0.3908	0.2406	0.3197	-0.021
Mof_C 	C 	0.8442	0.4559	0.27323	-0.186
Mof_C 	C 	0.9093	0.5127	0.27312	0.02
Mof_H 	H 	0.9269	0.5391	0.2841	0.001
Mof_C 	C 	0.95	0.5321	0.25712	0.002
Mof_H 	H 	0.9905	0.576	0.2566	0.021
Mof_N 	N 	0.9324	0.4893	0.24241	-0.192
Mof_C 	C 	0.8721	0.4369	0.24166	0.024
Mof_H 	H 	0.8588	0.4101	0.2307	-0.008
Mof_C 	C 	0.8225	0.416	0.25667	0.037
Mof_H 	H 	0.7776	0.3774	0.2555	0.048
Mof_Ag	Ag	0.47603	0.00516	0.71851	0.33
Mof_O 	O 	0.36937	0.74343	0.65158	-1.31
Mof_C 	C 	0.42347	0.80293	0.64964	0.664
Mof_O 	O 	0.29907	0.58993	0.6204	-1.292
Mof_C 	C 	0.34917	0.52943	0.63494	-0.777
Mof_H 	H 	0.35657	0.49143	0.63393	0.252
Mof_C 	C 	0.30907	0.53803	0.62207	0.668
Mof_C 	C 	0.43877	0.85253	0.66506	-0.133
Mof_C 	C 	0.40637	0.82803	0.68177	0.004
Mof_H 	H 	0.21987	0.59623	0.68363	0.029
Mof_C 	C 	0.41857	0.87433	0.69591	0.039
Mof_H 	H 	0.14237	0.53633	0.70723	-0.011
Mof_N 	N 	0.46227	0.93963	0.69444	-0.184
Mof_C 	C 	0.03657	0.53093	0.67802	-0.277
Mof_H 	H 	0.98827	0.51123	0.67663	0.161
Mof_C 	C 	0.07597	0.56463	0.66372	0.165
Mof_H 	H 	0.05747	0.57393	0.65303	-0.102
Mof_C 	C 	0.51087	0.78923	0.60656	-0.191
Mof_C 	C 	0.57597	0.84603	0.60645	0.02
Mof_H 	H 	0.59357	0.87243	0.61743	-0.009
Mof_C 	C 	0.61667	0.86543	0.59045	-0.013
Mof_H 	H 	0.65717	0.90933	0.58993	0.019
Mof_N 	N 	0.59907	0.82263	0.57574	-0.188
Mof_C 	C 	0.53877	0.77023	0.57499	0.016
Mof_H 	H 	0.52547	0.74343	0.56403	-0.008
Mof_C 	C 	0.48917	0.74933	0.59	0.036
Mof_H 	H 	0.44427	0.71073	0.58883	0.047
Mof_Ag	Ag	0.14269	0.3385	0.05185	0.468
Mof_O 	O 	0.03603	0.07677	0.98492	-1.081
Mof_C 	C 	0.09013	0.13627	0.98298	0.561
Mof_O 	O 	0.96573	0.92327	0.95374	-0.932
Mof_C 	C 	0.01583	0.86277	0.96828	-0.768
Mof_H 	H 	0.02323	0.82477	0.96727	0.224
Mof_C 	C 	0.97573	0.87137	0.95541	0.664
Mof_C 	C 	0.10543	0.18587	0.9984	-0.183
Mof_C 	C 	0.07303	0.16137	0.01511	0.025
Mof_H 	H 	0.88653	0.92957	0.01697	0.098
Mof_C 	C 	0.08523	0.20767	0.02925	-0.001
Mof_H 	H 	0.80903	0.86967	0.04057	-0.006
Mof_N 	N 	0.12893	0.27297	0.02778	-0.182
Mof_C 	C 	0.70323	0.86427	0.01136	0.031
Mof_H 	H 	0.65493	0.84457	0.00997	0.005
Mof_C 	C 	0.74263	0.89797	0.99706	-0.042
Mof_H 	H 	0.72413	0.90727	0.98637	0.019
Mof_C 	C 	0.17753	0.12257	0.9399	-0.17
Mof_C 	C 	0.24263	0.17937	0.93979	-0.001
Mof_H 	H 	0.26023	0.20577	0.95077	-0.011
Mof_C 	C 	0.28333	0.19877	0.92379	-0.008
Mof_H 	H 	0.32383	0.24267	0.92327	-0.001
Mof_N 	N 	0.26573	0.15597	0.90908	-0.189
Mof_C 	C 	0.20543	0.10357	0.90833	0.01
Mof_H 	H 	0.19213	0.07677	0.89737	-0.021
Mof_C 	C 	0.15583	0.08267	0.92334	0.012
Mof_H 	H 	0.11093	0.04407	0.92217	0.008
Mof_Ag	Ag	0.86247	0.19064	0.38518	0.526
Mof_O 	O 	0.7074	0.2973	0.31825	-1.317
Mof_C 	C 	0.7128	0.2432	0.31631	0.688
Mof_O 	O 	0.6242	0.3676	0.28707	-1.291
Mof_C 	C 	0.5136	0.3175	0.30161	-0.778
Mof_H 	H 	0.4682	0.3101	0.3006	0.253
Mof_C 	C 	0.5623	0.3576	0.28874	0.669
Mof_C 	C 	0.7471	0.2279	0.33173	-0.216
Mof_C 	C 	0.755	0.2603	0.34844	0.06
Mof_H 	H 	0.7097	0.4468	0.3503	0.045
Mof_C 	C 	0.7891	0.2481	0.36258	-0.001
Mof_H 	H 	0.7273	0.5243	0.3739	-0.004
Mof_N 	N 	0.8107	0.2044	0.36111	-0.179
Mof_C 	C 	0.8277	0.6301	0.34469	-0.016
Mof_H 	H 	0.8563	0.6784	0.3433	0.019
Mof_C 	C 	0.822	0.5907	0.33039	0.025
Mof_H 	H 	0.8498	0.6092	0.3197	-0.016
Mof_C 	C 	0.6117	0.1558	0.27323	-0.204
Mof_C 	C 	0.6034	0.0907	0.27312	0.014
Mof_H 	H 	0.6122	0.0731	0.2841	-0.045
Mof_C 	C 	0.5821	0.05	0.25712	-0.035
Mof_H 	H 	0.5855	0.0095	0.2566	-0.021
Mof_N 	N 	0.5569	0.0676	0.24241	-0.182
Mof_C 	C 	0.5648	0.1279	0.24166	0.003
Mof_H 	H 	0.5513	0.1412	0.2307	-0.008
Mof_C 	C 	0.5935	0.1775	0.25667	0.038
Mof_H 	H 	0.5998	0.2224	0.2555	0.045
Mof_Ag	Ag	0.52914	0.52397	0.71851	0.497
Mof_O 	O 	0.37407	0.63063	0.65158	-1.317
Mof_C 	C 	0.37947	0.57653	0.64964	0.687
Mof_O 	O 	0.29087	0.70093	0.6204	-1.291
Mof_C 	C 	0.18027	0.65083	0.63494	-0.789
Mof_H 	H 	0.13487	0.64343	0.63393	0.247
Mof_C 	C 	0.22897	0.69093	0.62207	0.672
Mof_C 	C 	0.41377	0.56123	0.66506	-0.216
Mof_C 	C 	0.42167	0.59363	0.68177	0.058
Mof_H 	H 	0.37637	0.78013	0.68363	0.064
Mof_C 	C 	0.45577	0.58143	0.69591	-0.003
Mof_H 	H 	0.39397	0.85763	0.70723	0.005
Mof_N 	N 	0.47737	0.53773	0.69444	-0.178
Mof_C 	C 	0.49437	0.96343	0.67802	0.285
Mof_H 	H 	0.52297	0.01173	0.67663	-0.158
Mof_C 	C 	0.48867	0.92403	0.66372	-0.145
Mof_H 	H 	0.51647	0.94253	0.65303	0.077
Mof_C 	C 	0.27837	0.48913	0.60656	-0.194
Mof_C 	C 	0.27007	0.42403	0.60645	0.015
Mof_H 	H 	0.27887	0.40643	0.61743	-0.02
Mof_C 	C 	0.24877	0.38333	0.59045	-0.015
Mof_H 	H 	0.25217	0.34283	0.58993	-0.001
Mof_N 	N 	0.22357	0.40093	0.57574	-0.188
Mof_C 	C 	0.23147	0.46123	0.57499	0.012
Mof_H 	H 	0.21797	0.47453	0.56403	-0.011
Mof_C 	C 	0.26017	0.51083	0.59	0.035
Mof_H 	H 	0.26647	0.55573	0.58883	0.047
Mof_Ag	Ag	0.1958	0.85731	0.05185	0.511
Mof_O 	O 	0.04073	0.96397	0.98492	-0.979
Mof_C 	C 	0.04613	0.90987	0.98298	0.576
Mof_O 	O 	0.95753	0.03427	0.95374	-0.916
Mof_C 	C 	0.84693	0.98417	0.96828	-0.367
Mof_H 	H 	0.80153	0.97677	0.96727	0.156
Mof_C 	C 	0.89563	0.02427	0.95541	0.325
Mof_C 	C 	0.08043	0.89457	0.9984	-0.168
Mof_C 	C 	0.08833	0.92697	0.01511	0.019
Mof_H 	H 	0.04303	0.11347	0.01697	0.021
Mof_C 	C 	0.12243	0.91477	0.02925	0.014
Mof_H 	H 	0.06063	0.19097	0.04057	-0.016
Mof_N 	N 	0.14403	0.87107	0.02778	-0.184
Mof_C 	C 	0.16103	0.29677	0.01136	-0.014
Mof_H 	H 	0.18963	0.34507	0.00997	0.012
Mof_C 	C 	0.15533	0.25737	0.99706	-0
Mof_H 	H 	0.18313	0.27587	0.98637	-0.011
Mof_C 	C 	0.94503	0.82247	0.9399	-0.162
Mof_C 	C 	0.93673	0.75737	0.93979	0.018
Mof_H 	H 	0.94553	0.73977	0.95077	0.005
Mof_C 	C 	0.91543	0.71667	0.92379	0.004
Mof_H 	H 	0.91883	0.67617	0.92327	0.011
Mof_N 	N 	0.89023	0.73427	0.90908	-0.189
Mof_C 	C 	0.89813	0.79457	0.90833	0.037
Mof_H 	H 	0.88463	0.80787	0.89737	0
Mof_C 	C 	0.92683	0.84417	0.92334	0.026
Mof_H 	H 	0.93313	0.88907	0.92217	0.074
Mof_Ag	Ag	0.32817	0.13753	0.38518	0.441
Mof_O 	O 	0.5899	0.2926	0.31825	-1.319
Mof_C 	C 	0.5304	0.2872	0.31631	0.686
Mof_O 	O 	0.7434	0.3758	0.28707	-1.29
Mof_C 	C 	0.8039	0.4864	0.30161	-0.776
Mof_H 	H 	0.8419	0.5318	0.3006	0.258
Mof_C 	C 	0.7953	0.4377	0.28874	0.671
Mof_C 	C 	0.4808	0.2529	0.33173	-0.22
Mof_C 	C 	0.5053	0.245	0.34844	0.057
Mof_H 	H 	0.7371	0.2903	0.3503	0.045
Mof_C 	C 	0.459	0.2109	0.36258	-0.007
Mof_H 	H 	0.797	0.2727	0.3739	-0.001
Mof_N 	N 	0.3937	0.1893	0.36111	-0.177
Mof_C 	C 	0.8024	0.1723	0.34469	-0.022
Mof_H 	H 	0.8221	0.1437	0.3433	0.013
Mof_C 	C 	0.7687	0.178	0.33039	0.024
Mof_H 	H 	0.7594	0.1502	0.3197	-0.027
Mof_C 	C 	0.5441	0.3883	0.27323	-0.193
Mof_C 	C 	0.4873	0.3966	0.27312	0.017
Mof_H 	H 	0.4609	0.3878	0.2841	-0.021
Mof_C 	C 	0.4679	0.4179	0.25712	-0.014
Mof_H 	H 	0.424	0.4145	0.2566	-0.002
Mof_N 	N 	0.5107	0.4431	0.24241	-0.187
Mof_C 	C 	0.5631	0.4352	0.24166	0.015
Mof_H 	H 	0.5899	0.4487	0.2307	-0.006
Mof_C 	C 	0.584	0.4065	0.25667	0.038
Mof_H 	H 	0.6226	0.4002	0.2555	0.047
Mof_Ag	Ag	0.99484	0.47086	0.71851	0.629
Mof_O 	O 	0.25657	0.62593	0.65158	-1.324
Mof_C 	C 	0.19707	0.62053	0.64964	0.707
Mof_O 	O 	0.41007	0.70913	0.6204	-1.29
Mof_C 	C 	0.47057	0.81973	0.63494	-0.763
Mof_H 	H 	0.50857	0.86513	0.63393	0.26
Mof_C 	C 	0.46197	0.77103	0.62207	0.665
Mof_C 	C 	0.14747	0.58623	0.66506	-0.286
Mof_C 	C 	0.17197	0.57833	0.68177	0.103
Mof_H 	H 	0.40377	0.62363	0.68363	0.045
Mof_C 	C 	0.12567	0.54423	0.69591	-0.039
Mof_H 	H 	0.46367	0.60603	0.70723	-0.002
Mof_N 	N 	0.06037	0.52263	0.69444	-0.173
Mof_C 	C 	0.46907	0.50563	0.67802	-0.021
Mof_H 	H 	0.48877	0.47703	0.67663	0.015
Mof_C 	C 	0.43537	0.51133	0.66372	0.024
Mof_H 	H 	0.42607	0.48353	0.65303	-0.022
Mof_C 	C 	0.21077	0.72163	0.60656	-0.195
Mof_C 	C 	0.15397	0.72993	0.60645	0.017
Mof_H 	H 	0.12757	0.72113	0.61743	-0.03
Mof_C 	C 	0.13457	0.75123	0.59045	-0.015
Mof_H 	H 	0.09067	0.74783	0.58993	-0.014
Mof_N 	N 	0.17737	0.77643	0.57574	-0.186
Mof_C 	C 	0.22977	0.76853	0.57499	0.016
Mof_H 	H 	0.25657	0.78203	0.56403	-0.003
Mof_C 	C 	0.25067	0.73983	0.59	0.042
Mof_H 	H 	0.28927	0.73353	0.58883	0.045
Mof_Ag	Ag	0.6615	0.8042	0.05185	0.519
Mof_O 	O 	0.92323	0.95927	0.98492	-0.894
Mof_C 	C 	0.86373	0.95387	0.98298	0.457
Mof_O 	O 	0.07673	0.04247	0.95374	-1.063
Mof_C 	C 	0.13723	0.15307	0.96828	-0.653
Mof_H 	H 	0.17523	0.19847	0.96727	0.215
Mof_C 	C 	0.12863	0.10437	0.95541	0.551
Mof_C 	C 	0.81413	0.91957	0.9984	-0.087
Mof_C 	C 	0.83863	0.91167	0.01511	-0.018
Mof_H 	H 	0.07043	0.95697	0.01697	0.073
Mof_C 	C 	0.79233	0.87757	0.02925	0.052
Mof_H 	H 	0.13033	0.93937	0.04057	0.015
Mof_N 	N 	0.72703	0.85597	0.02778	-0.191
Mof_C 	C 	0.13573	0.83897	0.01136	-0.007
Mof_H 	H 	0.15543	0.81037	0.00997	0.008
Mof_C 	C 	0.10203	0.84467	0.99706	-0.004
Mof_H 	H 	0.09273	0.81687	0.98637	-0.018
Mof_C 	C 	0.87743	0.05497	0.9399	-0.074
Mof_C 	C 	0.82063	0.06327	0.93979	-0.071
Mof_H 	H 	0.79423	0.05447	0.95077	-0.015
Mof_C 	C 	0.80123	0.08457	0.92379	0.01
Mof_H 	H 	0.75733	0.08117	0.92327	-0.028
Mof_N 	N 	0.84403	0.10977	0.90908	-0.2
Mof_C 	C 	0.89643	0.10187	0.90833	0.038
Mof_H 	H 	0.92323	0.11537	0.89737	-0.001
Mof_C 	C 	0.91733	0.07317	0.92334	-0.046
Mof_H 	H 	0.95593	0.06687	0.92217	0.088
Mof_Al	Al	0.66667	0.33333	0.80277	5.828
Mof_Al	Al	0.33333	0.66667	0.1361	5.827
Mof_Al	Al	-1.28187e-32	-2.56373e-32	0.46944	4.188
Mof_Al	Al	0.66667	0.33333	0.30277	5.828
Mof_Al	Al	0.33333	0.66667	0.6361	5.827
Mof_Al	Al	-7.69119e-32	-5.12746e-32	0.96944	4.185
Mof_Ag	Ag	0.30263	0.13712	0.7831	0.402
Mof_O 	O 	0.58809	0.28491	0.72293	-1.231
Mof_C 	C 	0.5309	0.231	0.71874	0.626
Mof_O 	O 	0.74311	0.3781	0.69197	-1.206
Mof_C 	C 	0.8059	0.324	0.70199	-0.701
Mof_H 	H 	0.8399	0.3124	0.6989	0.231
Mof_C 	C 	0.7919	0.366	0.68968	0.644
Mof_C 	C 	0.4738	0.2081	0.73257	-0.197
Mof_C 	C 	0.4887	0.2448	0.74957	0.047
Mof_H 	H 	0.7484	0.4664	0.752	0.037
Mof_C 	C 	0.4397	0.2266	0.76203	-0.034
Mof_H 	H 	0.8016	0.5499	0.7733	0.019
Mof_N 	N 	0.3737	0.1724	0.75933	-0.172
Mof_C 	C 	0.7749	0.6395	0.7444	-0.011
Mof_H 	H 	0.7799	0.6837	0.7427	0.009
Mof_C 	C 	0.7424	0.5887	0.73105	0.034
Mof_H 	H 	0.7252	0.5993	0.7203	-0.013
Mof_C 	C 	0.5634	0.1648	0.67369	-0.223
Mof_C 	C 	0.4983	0.1283	0.66447	0.019
Mof_H 	H 	0.4579	0.1221	0.6705	-0.023
Mof_C 	C 	0.4946	0.1033	0.64755	-0.032
Mof_H 	H 	0.4563	0.0943	0.64	-0.01
Mof_N 	N 	0.543	0.0899	0.64047	-0.171
Mof_C 	C 	0.6041	0.1224	0.6494	-0.045
Mof_H 	H 	0.6414	0.1187	0.6445	-0.001
Mof_C 	C 	0.6148	0.161	0.66548	0.066
Mof_H 	H 	0.6596	0.1851	0.6707	0.01
Mof_Ag	Ag	0.9693	0.47045	0.11643	0.604
Mof_O 	O 	0.25476	0.61824	0.05626	-1.238
Mof_C 	C 	0.19757	0.56433	0.05207	0.654
Mof_O 	O 	0.40978	0.71143	0.0253	-1.205
Mof_C 	C 	0.47257	0.65733	0.03532	-0.699
Mof_H 	H 	0.50657	0.64573	0.03223	0.23
Mof_C 	C 	0.45857	0.69933	0.02301	0.645
Mof_C 	C 	0.14047	0.54143	0.0659	-0.275
Mof_C 	C 	0.15537	0.57813	0.0829	0.099
Mof_H 	H 	0.41507	0.79973	0.08533	0.058
Mof_C 	C 	0.10637	0.55993	0.09536	-0.075
Mof_H 	H 	0.46827	0.88323	0.10663	0.018
Mof_N 	N 	0.04037	0.50573	0.09266	-0.162
Mof_C 	C 	0.44157	0.97283	0.07773	0.283
Mof_H 	H 	0.44657	0.01703	0.07603	-0.187
Mof_C 	C 	0.40907	0.92203	0.06438	-0.138
Mof_H 	H 	0.39187	0.93263	0.05363	0.062
Mof_C 	C 	0.23007	0.49813	0.00702	-0.224
Mof_C 	C 	0.16497	0.46163	0.9978	0.018
Mof_H 	H 	0.12457	0.45543	0.00383	-0.021
Mof_C 	C 	0.16127	0.43663	0.98088	-0.022
Mof_H 	H 	0.12297	0.42763	0.97333	-0.011
Mof_N 	N 	0.20967	0.42323	0.9738	-0.176
Mof_C 	C 	0.27077	0.45573	0.98273	-0.038
Mof_H 	H 	0.30807	0.45203	0.97783	0.008
Mof_C 	C 	0.28147	0.49433	0.99881	0.066
Mof_H 	H 	0.32627	0.51843	0.00403	0.014
Mof_Ag	Ag	0.63596	0.80379	0.44977	0.493
Mof_O 	O 	0.92142	0.95158	0.3896	-0.844
Mof_C 	C 	0.86423	0.89767	0.38541	0.471
Mof_O 	O 	0.07644	0.04477	0.35864	-0.946
Mof_C 	C 	0.13923	0.99067	0.36866	-0.358
Mof_H 	H 	0.17323	0.97907	0.36557	0.157
Mof_C 	C 	0.12523	0.03267	0.35635	0.33
Mof_C 	C 	0.80713	0.87477	0.39924	-0.098
Mof_C 	C 	0.82203	0.91147	0.41624	-0.013
Mof_H 	H 	0.08173	0.13307	0.41867	0.021
Mof_C 	C 	0.77303	0.89327	0.4287	0.017
Mof_H 	H 	0.13493	0.21657	0.43997	0.016
Mof_N 	N 	0.70703	0.83907	0.426	-0.181
Mof_C 	C 	0.10823	0.30617	0.41107	-0.027
Mof_H 	H 	0.11323	0.35037	0.40937	-0.014
Mof_C 	C 	0.07573	0.25537	0.39772	0.018
Mof_H 	H 	0.05853	0.26597	0.38697	-0.034
Mof_C 	C 	0.89673	0.83147	0.34036	-0.119
Mof_C 	C 	0.83163	0.79497	0.33114	-0.026
Mof_H 	H 	0.79123	0.78877	0.33717	0.02
Mof_C 	C 	0.82793	0.76997	0.31422	0.021
Mof_H 	H 	0.78963	0.76097	0.30667	0.004
Mof_N 	N 	0.87633	0.75657	0.30714	-0.186
Mof_C 	C 	0.93743	0.78907	0.31607	0.013
Mof_H 	H 	0.97473	0.78537	0.31117	0.022
Mof_C 	C 	0.94813	0.82767	0.33215	0.007
Mof_H 	H 	0.99293	0.85177	0.33737	0.073
Mof_Ag	Ag	0.86288	0.16551	0.7831	0.455
Mof_O 	O 	0.71509	0.30318	0.72293	-1.231
Mof_C 	C 	0.769	0.2999	0.71874	0.626
Mof_O 	O 	0.6219	0.36501	0.69197	-1.208
Mof_C 	C 	0.676	0.4819	0.70199	-0.7
Mof_H 	H 	0.6876	0.5275	0.6989	0.234
Mof_C 	C 	0.634	0.4259	0.68968	0.645
Mof_C 	C 	0.7919	0.2657	0.73257	-0.199
Mof_C 	C 	0.7552	0.2439	0.74957	0.045
Mof_H 	H 	0.5336	0.282	0.752	0.036
Mof_C 	C 	0.7734	0.2131	0.76203	-0.036
Mof_H 	H 	0.4501	0.2517	0.7733	0.015
Mof_N 	N 	0.8276	0.2013	0.75933	-0.173
Mof_C 	C 	0.3605	0.1354	0.7444	-0.021
Mof_H 	H 	0.3163	0.0962	0.7427	-0.025
Mof_C 	C 	0.4113	0.1537	0.73105	0.026
Mof_H 	H 	0.4007	0.1259	0.7203	-0.028
Mof_C 	C 	0.8352	0.3986	0.67369	-0.217
Mof_C 	C 	0.8717	0.37	0.66447	0.016
Mof_H 	H 	0.8779	0.3358	0.6705	-0.001
Mof_C 	C 	0.8967	0.3913	0.64755	-0.006
Mof_H 	H 	0.9057	0.362	0.64	0.01
Mof_N 	N 	0.9101	0.4531	0.64047	-0.181
Mof_C 	C 	0.8776	0.4817	0.6494	-0.029
Mof_H 	H 	0.8813	0.5227	0.6445	0.016
Mof_C 	C 	0.839	0.4538	0.66548	0.062
Mof_H 	H 	0.8149	0.4745	0.6707	0.021
Mof_Ag	Ag	0.52955	0.49884	0.11643	0.46
Mof_O 	O 	0.38176	0.63651	0.05626	-1.23
Mof_C 	C 	0.43567	0.63323	0.05207	0.628
Mof_O 	O 	0.28857	0.69834	0.0253	-1.207
Mof_C 	C 	0.34267	0.81523	0.03532	-0.682
Mof_H 	H 	0.35427	0.86083	0.03223	0.232
Mof_C 	C 	0.30067	0.75923	0.02301	0.638
Mof_C 	C 	0.45857	0.59903	0.0659	-0.197
Mof_C 	C 	0.42187	0.57723	0.0829	0.048
Mof_H 	H 	0.20027	0.61533	0.08533	0.018
Mof_C 	C 	0.44007	0.54643	0.09536	-0.033
Mof_H 	H 	0.11677	0.58503	0.10663	0.01
Mof_N 	N 	0.49427	0.53463	0.09266	-0.171
Mof_C 	C 	0.02717	0.46873	0.07773	-0.267
Mof_H 	H 	0.98297	0.42953	0.07603	0.15
Mof_C 	C 	0.07797	0.48703	0.06438	0.17
Mof_H 	H 	0.06737	0.45923	0.05363	-0.085
Mof_C 	C 	0.50187	0.73193	0.00702	-0.218
Mof_C 	C 	0.53837	0.70333	0.9978	0.018
Mof_H 	H 	0.54457	0.66913	0.00383	-0.009
Mof_C 	C 	0.56337	0.72463	0.98088	-0.016
Mof_H 	H 	0.57237	0.69533	0.97333	0.002
Mof_N 	N 	0.57677	0.78643	0.9738	-0.177
Mof_C 	C 	0.54427	0.81503	0.98273	-0.033
Mof_H 	H 	0.54797	0.85603	0.97783	0.022
Mof_C 	C 	0.50567	0.78713	0.99881	0.067
Mof_H 	H 	0.48157	0.80783	0.00403	0.022
Mof_Ag	Ag	0.19621	0.83218	0.44977	0.477
Mof_O 	O 	0.04842	0.96985	0.3896	-0.902
Mof_C 	C 	0.10233	0.96657	0.38541	0.443
Mof_O 	O 	0.95523	0.03168	0.35864	-0.965
Mof_C 	C 	0.00933	0.14857	0.36866	-0.754
Mof_H 	H 	0.02093	0.19417	0.36557	0.216
Mof_C 	C 	0.96733	0.09257	0.35635	0.672
Mof_C 	C 	0.12523	0.93237	0.39924	-0.097
Mof_C 	C 	0.08853	0.91057	0.41624	-0.006
Mof_H 	H 	0.86693	0.94867	0.41867	0.093
Mof_C 	C 	0.10673	0.87977	0.4287	0.007
Mof_H 	H 	0.78343	0.91837	0.43997	0.023
Mof_N 	N 	0.16093	0.86797	0.426	-0.185
Mof_C 	C 	0.69383	0.80207	0.41107	0.023
Mof_H 	H 	0.64963	0.76287	0.40937	-0.012
Mof_C 	C 	0.74463	0.82037	0.39772	-0.027
Mof_H 	H 	0.73403	0.79257	0.38697	0.01
Mof_C 	C 	0.16853	0.06527	0.34036	-0.117
Mof_C 	C 	0.20503	0.03667	0.33114	-0.07
Mof_H 	H 	0.21123	0.00247	0.33717	-0.024
Mof_C 	C 	0.23003	0.05797	0.31422	0.007
Mof_H 	H 	0.23903	0.02867	0.30667	-0.042
Mof_N 	N 	0.24343	0.11977	0.30714	-0.192
Mof_C 	C 	0.21093	0.14837	0.31607	-0.011
Mof_H 	H 	0.21463	0.18937	0.31117	-0.014
Mof_C 	C 	0.17233	0.12047	0.33215	-0.025
Mof_H 	H 	0.14823	0.14117	0.33737	0.028
Mof_Ag	Ag	0.83449	0.69737	0.7831	0.517
Mof_O 	O 	0.69682	0.41191	0.72293	-1.23
Mof_C 	C 	0.7001	0.4691	0.71874	0.63
Mof_O 	O 	0.63499	0.25689	0.69197	-1.208
Mof_C 	C 	0.5181	0.1941	0.70199	-0.698
Mof_H 	H 	0.4725	0.1601	0.6989	0.225
Mof_C 	C 	0.5741	0.2081	0.68968	0.643
Mof_C 	C 	0.7343	0.5262	0.73257	-0.194
Mof_C 	C 	0.7561	0.5113	0.74957	0.05
Mof_H 	H 	0.718	0.2516	0.752	0.035
Mof_C 	C 	0.7869	0.5603	0.76203	-0.027
Mof_H 	H 	0.7483	0.1984	0.7733	0.007
Mof_N 	N 	0.7987	0.6263	0.75933	-0.169
Mof_C 	C 	0.8646	0.2251	0.7444	-0.02
Mof_H 	H 	0.9038	0.2201	0.7427	0.004
Mof_C 	C 	0.8463	0.2576	0.73105	0.03
Mof_H 	H 	0.8741	0.2748	0.7203	-0.015
Mof_C 	C 	0.6014	0.4366	0.67369	-0.219
Mof_C 	C 	0.63	0.5017	0.66447	0.018
Mof_H 	H 	0.6642	0.5421	0.6705	-0.004
Mof_C 	C 	0.6087	0.5054	0.64755	-0.016
Mof_H 	H 	0.638	0.5437	0.64	0.008
Mof_N 	N 	0.5469	0.457	0.64047	-0.176
Mof_C 	C 	0.5183	0.3959	0.6494	-0.036
Mof_H 	H 	0.4773	0.3586	0.6445	0.002
Mof_C 	C 	0.5462	0.3852	0.66548	0.062
Mof_H 	H 	0.5255	0.3404	0.6707	0.012
Mof_Ag	Ag	0.50116	0.0307	0.11643	0.286
Mof_O 	O 	0.36349	0.74524	0.05626	-1.222
Mof_C 	C 	0.36677	0.80243	0.05207	0.596
Mof_O 	O 	0.30166	0.59022	0.0253	-1.209
Mof_C 	C 	0.18477	0.52743	0.03532	-0.715
Mof_H 	H 	0.13917	0.49343	0.03223	0.23
Mof_C 	C 	0.24077	0.54143	0.02301	0.648
Mof_C 	C 	0.40097	0.85953	0.0659	-0.103
Mof_C 	C 	0.42277	0.84463	0.0829	-0.014
Mof_H 	H 	0.38467	0.58493	0.08533	0.036
Mof_C 	C 	0.45357	0.89363	0.09536	0.019
Mof_H 	H 	0.41497	0.53173	0.10663	0.013
Mof_N 	N 	0.46537	0.95963	0.09266	-0.182
Mof_C 	C 	0.53127	0.55843	0.07773	-0.018
Mof_H 	H 	0.57047	0.55343	0.07603	-0.002
Mof_C 	C 	0.51297	0.59093	0.06438	0.031
Mof_H 	H 	0.54077	0.60813	0.05363	-0.018
Mof_C 	C 	0.26807	0.76993	0.00702	-0.214
Mof_C 	C 	0.29667	0.83503	0.9978	0.018
Mof_H 	H 	0.33087	0.87543	0.00383	0.007
Mof_C 	C 	0.27537	0.83873	0.98088	-0.011
Mof_H 	H 	0.30467	0.87703	0.97333	0.022
Mof_N 	N 	0.21357	0.79033	0.9738	-0.176
Mof_C 	C 	0.18497	0.72923	0.98273	-0.034
Mof_H 	H 	0.14397	0.69193	0.97783	-0.007
Mof_C 	C 	0.21287	0.71853	0.99881	0.058
Mof_H 	H 	0.19217	0.67373	0.00403	0.01
Mof_Ag	Ag	0.16782	0.36404	0.44977	0.432
Mof_O 	O 	0.03015	0.07858	0.3896	-1.025
Mof_C 	C 	0.03343	0.13577	0.38541	0.555
Mof_O 	O 	0.96832	0.92356	0.35864	-0.824
Mof_C 	C 	0.85143	0.86077	0.36866	-0.507
Mof_H 	H 	0.80583	0.82677	0.36557	0.177
Mof_C 	C 	0.90743	0.87477	0.35635	0.486
Mof_C 	C 	0.06763	0.19287	0.39924	-0.196
Mof_C 	C 	0.08943	0.17797	0.41624	0.029
Mof_H 	H 	0.05133	0.91827	0.41867	0.043
Mof_C 	C 	0.12023	0.22697	0.4287	-0.039
Mof_H 	H 	0.08163	0.86507	0.43997	-0.01
Mof_N 	N 	0.13203	0.29297	0.426	-0.172
Mof_C 	C 	0.19793	0.89177	0.41107	0.028
Mof_H 	H 	0.23713	0.88677	0.40937	-0.002
Mof_C 	C 	0.17963	0.92427	0.39772	-0.027
Mof_H 	H 	0.20743	0.94147	0.38697	0.028
Mof_C 	C 	0.93473	0.10327	0.34036	-0.222
Mof_C 	C 	0.96333	0.16837	0.33114	0.033
Mof_H 	H 	0.99753	0.20877	0.33717	0.023
Mof_C 	C 	0.94203	0.17207	0.31422	-0.017
Mof_H 	H 	0.97133	0.21037	0.30667	0.025
Mof_N 	N 	0.88023	0.12367	0.30714	-0.175
Mof_C 	C 	0.85163	0.06257	0.31607	-0.038
Mof_H 	H 	0.81063	0.02527	0.31117	-0.014
Mof_C 	C 	0.87953	0.05187	0.33215	0.061
Mof_H 	H 	0.85883	0.00707	0.33737	-0.012
Mof_Ag	Ag	0.86288	0.69737	0.2831	0.515
Mof_O 	O 	0.71509	0.41191	0.22293	-1.231
Mof_C 	C 	0.769	0.4691	0.21874	0.629
Mof_O 	O 	0.6219	0.25689	0.19197	-1.209
Mof_C 	C 	0.676	0.1941	0.20199	-0.698
Mof_H 	H 	0.6876	0.1601	0.1989	0.229
Mof_C 	C 	0.634	0.2081	0.18968	0.644
Mof_C 	C 	0.7919	0.5262	0.23257	-0.196
Mof_C 	C 	0.7552	0.5113	0.24957	0.048
Mof_H 	H 	0.5336	0.2516	0.252	0.035
Mof_C 	C 	0.7734	0.5603	0.26203	-0.03
Mof_H 	H 	0.4501	0.1984	0.2733	0.008
Mof_N 	N 	0.8276	0.6263	0.25933	-0.171
Mof_C 	C 	0.3605	0.2251	0.2444	-0.024
Mof_H 	H 	0.3163	0.2201	0.2427	-0.016
Mof_C 	C 	0.4113	0.2576	0.23105	0.026
Mof_H 	H 	0.4007	0.2748	0.2203	-0.024
Mof_C 	C 	0.8352	0.4366	0.17369	-0.216
Mof_C 	C 	0.8717	0.5017	0.16447	0.016
Mof_H 	H 	0.8779	0.5421	0.1705	0.004
Mof_C 	C 	0.8967	0.5054	0.14755	-0.005
Mof_H 	H 	0.9057	0.5437	0.14	0.014
Mof_N 	N 	0.9101	0.457	0.14047	-0.181
Mof_C 	C 	0.8776	0.3959	0.1494	-0.028
Mof_H 	H 	0.8813	0.3586	0.1445	0.013
Mof_C 	C 	0.839	0.3852	0.16548	0.062
Mof_H 	H 	0.8149	0.3404	0.1707	0.018
Mof_Ag	Ag	0.52955	0.0307	0.61643	0.287
Mof_O 	O 	0.38176	0.74524	0.55626	-1.222
Mof_C 	C 	0.43567	0.80243	0.55207	0.597
Mof_O 	O 	0.28857	0.59022	0.5253	-1.209
Mof_C 	C 	0.34267	0.52743	0.53532	-0.7
Mof_H 	H 	0.35427	0.49343	0.53223	0.231
Mof_C 	C 	0.30067	0.54143	0.52301	0.643
Mof_C 	C 	0.45857	0.85953	0.5659	-0.105
Mof_C 	C 	0.42187	0.84463	0.5829	-0.012
Mof_H 	H 	0.20027	0.58493	0.58533	0.018
Mof_C 	C 	0.44007	0.89363	0.59536	0.018
Mof_H 	H 	0.11677	0.53173	0.60663	0.01
Mof_N 	N 	0.49427	0.95963	0.59266	-0.181
Mof_C 	C 	0.02717	0.55843	0.57773	-0.264
Mof_H 	H 	0.98297	0.55343	0.57603	0.148
Mof_C 	C 	0.07797	0.59093	0.56438	0.168
Mof_H 	H 	0.06737	0.60813	0.55363	-0.084
Mof_C 	C 	0.50187	0.76993	0.50702	-0.214
Mof_C 	C 	0.53837	0.83503	0.4978	0.018
Mof_H 	H 	0.54457	0.87543	0.50383	0.006
Mof_C 	C 	0.56337	0.83873	0.48088	-0.011
Mof_H 	H 	0.57237	0.87703	0.47333	0.021
Mof_N 	N 	0.57677	0.79033	0.4738	-0.176
Mof_C 	C 	0.54427	0.72923	0.48273	-0.033
Mof_H 	H 	0.54797	0.69193	0.47783	0.005
Mof_C 	C 	0.50567	0.71853	0.49881	0.061
Mof_H 	H 	0.48157	0.67373	0.50403	0.016
Mof_Ag	Ag	0.19621	0.36404	0.94977	0.438
Mof_O 	O 	0.04842	0.07858	0.8896	-1.014
Mof_C 	C 	0.10233	0.13577	0.88541	0.515
Mof_O 	O 	0.95523	0.92356	0.85864	-0.869
Mof_C 	C 	0.00933	0.86077	0.86866	-0.685
Mof_H 	H 	0.02093	0.82677	0.86557	0.204
Mof_C 	C 	0.96733	0.87477	0.85635	0.635
Mof_C 	C 	0.12523	0.19287	0.89924	-0.17
Mof_C 	C 	0.08853	0.17797	0.91624	0.022
Mof_H 	H 	0.86693	0.91827	0.91867	0.078
Mof_C 	C 	0.10673	0.22697	0.9287	-0.03
Mof_H 	H 	0.78343	0.86507	0.93997	0.002
Mof_N 	N 	0.16093	0.29297	0.926	-0.177
Mof_C 	C 	0.69383	0.89177	0.91107	0.04
Mof_H 	H 	0.64963	0.88677	0.90937	-0.004
Mof_C 	C 	0.74463	0.92427	0.89772	-0.039
Mof_H 	H 	0.73403	0.94147	0.88697	0.035
Mof_C 	C 	0.16853	0.10327	0.84036	-0.194
Mof_C 	C 	0.20503	0.16837	0.83114	-0.01
Mof_H 	H 	0.21123	0.20877	0.83717	-0.006
Mof_C 	C 	0.23003	0.17207	0.81422	-0.016
Mof_H 	H 	0.23903	0.21037	0.80667	-0.009
Mof_N 	N 	0.24343	0.12367	0.80714	-0.182
Mof_C 	C 	0.21093	0.06257	0.81607	-0.039
Mof_H 	H 	0.21463	0.02527	0.81117	-0.026
Mof_C 	C 	0.17233	0.05187	0.83215	0.026
Mof_H 	H 	0.14823	0.00707	0.83737	-0.017
Mof_Ag	Ag	0.83449	0.13712	0.2831	0.459
Mof_O 	O 	0.69682	0.28491	0.22293	-1.23
Mof_C 	C 	0.7001	0.231	0.21874	0.629
Mof_O 	O 	0.63499	0.3781	0.19197	-1.207
Mof_C 	C 	0.5181	0.324	0.20199	-0.699
Mof_H 	H 	0.4725	0.3124	0.1989	0.226
Mof_C 	C 	0.5741	0.366	0.18968	0.643
Mof_C 	C 	0.7343	0.2081	0.23257	-0.194
Mof_C 	C 	0.7561	0.2448	0.24957	0.05
Mof_H 	H 	0.718	0.4664	0.252	0.036
Mof_C 	C 	0.7869	0.2266	0.26203	-0.029
Mof_H 	H 	0.7483	0.5499	0.2733	0.013
Mof_N 	N 	0.7987	0.1724	0.25933	-0.17
Mof_C 	C 	0.8646	0.6395	0.2444	-0.014
Mof_H 	H 	0.9038	0.6837	0.2427	0.016
Mof_C 	C 	0.8463	0.5887	0.23105	0.034
Mof_H 	H 	0.8741	0.5993	0.2203	-0.01
Mof_C 	C 	0.6014	0.1648	0.17369	-0.223
Mof_C 	C 	0.63	0.1283	0.16447	0.02
Mof_H 	H 	0.6642	0.1221	0.1705	-0.018
Mof_C 	C 	0.6087	0.1033	0.14755	-0.031
Mof_H 	H 	0.638	0.0943	0.14	-0.005
Mof_N 	N 	0.5469	0.0899	0.14047	-0.171
Mof_C 	C 	0.5183	0.1224	0.1494	-0.045
Mof_H 	H 	0.4773	0.1187	0.1445	-0.005
Mof_C 	C 	0.5462	0.161	0.16548	0.065
Mof_H 	H 	0.5255	0.1851	0.1707	0.007
Mof_Ag	Ag	0.50116	0.47045	0.61643	0.459
Mof_O 	O 	0.36349	0.61824	0.55626	-1.23
Mof_C 	C 	0.36677	0.56433	0.55207	0.628
Mof_O 	O 	0.30166	0.71143	0.5253	-1.208
Mof_C 	C 	0.18477	0.65733	0.53532	-0.714
Mof_H 	H 	0.13917	0.64573	0.53223	0.229
Mof_C 	C 	0.24077	0.69933	0.52301	0.649
Mof_C 	C 	0.40097	0.54143	0.5659	-0.196
Mof_C 	C 	0.42277	0.57813	0.5829	0.048
Mof_H 	H 	0.38467	0.79973	0.58533	0.057
Mof_C 	C 	0.45357	0.55993	0.59536	-0.032
Mof_H 	H 	0.41497	0.88323	0.60663	0.018
Mof_N 	N 	0.46537	0.50573	0.59266	-0.171
Mof_C 	C 	0.53127	0.97283	0.57773	0.278
Mof_H 	H 	0.57047	0.01703	0.57603	-0.183
Mof_C 	C 	0.51297	0.92203	0.56438	-0.134
Mof_H 	H 	0.54077	0.93263	0.55363	0.06
Mof_C 	C 	0.26807	0.49813	0.50702	-0.22
Mof_C 	C 	0.29667	0.46163	0.4978	0.018
Mof_H 	H 	0.33087	0.45543	0.50383	-0.008
Mof_C 	C 	0.27537	0.43663	0.48088	-0.017
Mof_H 	H 	0.30467	0.42763	0.47333	0.005
Mof_N 	N 	0.21357	0.42323	0.4738	-0.175
Mof_C 	C 	0.18497	0.45573	0.48273	-0.037
Mof_H 	H 	0.14397	0.45203	0.47783	-0.006
Mof_C 	C 	0.21287	0.49433	0.49881	0.06
Mof_H 	H 	0.19217	0.51843	0.50403	0.009
Mof_Ag	Ag	0.16782	0.80379	0.94977	0.464
Mof_O 	O 	0.03015	0.95158	0.8896	-0.922
Mof_C 	C 	0.03343	0.89767	0.88541	0.525
Mof_O 	O 	0.96832	0.04477	0.85864	-0.859
Mof_C 	C 	0.85143	0.99067	0.86866	-0.337
Mof_H 	H 	0.80583	0.97907	0.86557	0.152
Mof_C 	C 	0.90743	0.03267	0.85635	0.326
Mof_C 	C 	0.06763	0.87477	0.89924	-0.15
Mof_C 	C 	0.08943	0.91147	0.91624	0.008
Mof_H 	H 	0.05133	0.13307	0.91867	0.007
Mof_C 	C 	0.12023	0.89327	0.9287	-0.009
Mof_H 	H 	0.08163	0.21657	0.93997	-0.003
Mof_N 	N 	0.13203	0.83907	0.926	-0.175
Mof_C 	C 	0.19793	0.30617	0.91107	-0.011
Mof_H 	H 	0.23713	0.35037	0.90937	-0.008
Mof_C 	C 	0.17963	0.25537	0.89772	0.006
Mof_H 	H 	0.20743	0.26597	0.88697	-0.011
Mof_C 	C 	0.93473	0.83147	0.84036	-0.177
Mof_C 	C 	0.96333	0.79497	0.83114	0.02
Mof_H 	H 	0.99753	0.78877	0.83717	0.035
Mof_C 	C 	0.94203	0.76997	0.81422	0.005
Mof_H 	H 	0.97133	0.76097	0.80667	0.03
Mof_N 	N 	0.88023	0.75657	0.80714	-0.178
Mof_C 	C 	0.85163	0.78907	0.81607	-0.009
Mof_H 	H 	0.81063	0.78537	0.81117	0.012
Mof_C 	C 	0.87953	0.82767	0.83215	0.046
Mof_H 	H 	0.85883	0.85177	0.83737	0.037
Mof_Ag	Ag	0.30263	0.16551	0.2831	0.4
Mof_O 	O 	0.58809	0.30318	0.22293	-1.231
Mof_C 	C 	0.5309	0.2999	0.21874	0.625
Mof_O 	O 	0.74311	0.36501	0.19197	-1.207
Mof_C 	C 	0.8059	0.4819	0.20199	-0.701
Mof_H 	H 	0.8399	0.5275	0.1989	0.235
Mof_C 	C 	0.7919	0.4259	0.18968	0.645
Mof_C 	C 	0.4738	0.2657	0.23257	-0.2
Mof_C 	C 	0.4887	0.2439	0.24957	0.045
Mof_H 	H 	0.7484	0.282	0.252	0.037
Mof_C 	C 	0.4397	0.2131	0.26203	-0.038
Mof_H 	H 	0.8016	0.2517	0.2733	0.02
Mof_N 	N 	0.3737	0.2013	0.25933	-0.174
Mof_C 	C 	0.7749	0.1354	0.2444	-0.015
Mof_H 	H 	0.7799	0.0962	0.2427	-0.012
Mof_C 	C 	0.7424	0.1537	0.23105	0.031
Mof_H 	H 	0.7252	0.1259	0.2203	-0.022
Mof_C 	C 	0.5634	0.3986	0.17369	-0.22
Mof_C 	C 	0.4983	0.37	0.16447	0.017
Mof_H 	H 	0.4579	0.3358	0.1705	-0.014
Mof_C 	C 	0.4946	0.3913	0.14755	-0.018
Mof_H 	H 	0.4563	0.362	0.14	-0.001
Mof_N 	N 	0.543	0.4531	0.14047	-0.176
Mof_C 	C 	0.6041	0.4817	0.1494	-0.036
Mof_H 	H 	0.6414	0.5227	0.1445	0.011
Mof_C 	C 	0.6148	0.4538	0.16548	0.064
Mof_H 	H 	0.6596	0.4745	0.1707	0.017
Mof_Ag	Ag	0.9693	0.49884	0.61643	0.604
Mof_O 	O 	0.25476	0.63651	0.55626	-1.238
Mof_C 	C 	0.19757	0.63323	0.55207	0.653
Mof_O 	O 	0.40978	0.69834	0.5253	-1.205
Mof_C 	C 	0.47257	0.81523	0.53532	-0.682
Mof_H 	H 	0.50657	0.86083	0.53223	0.231
Mof_C 	C 	0.45857	0.75923	0.52301	0.639
Mof_C 	C 	0.14047	0.59903	0.5659	-0.274
Mof_C 	C 	0.15537	0.57723	0.5829	0.098
Mof_H 	H 	0.41507	0.61533	0.58533	0.036
Mof_C 	C 	0.10637	0.54643	0.59536	-0.074
Mof_H 	H 	0.46827	0.58503	0.60663	0.014
Mof_N 	N 	0.04037	0.53463	0.59266	-0.163
Mof_C 	C 	0.44157	0.46873	0.57773	-0.016
Mof_H 	H 	0.44657	0.42953	0.57603	-0.004
Mof_C 	C 	0.40907	0.48703	0.56438	0.03
Mof_H 	H 	0.39187	0.45923	0.55363	-0.018
Mof_C 	C 	0.23007	0.73193	0.50702	-0.223
Mof_C 	C 	0.16497	0.70333	0.4978	0.018
Mof_H 	H 	0.12457	0.66913	0.50383	-0.021
Mof_C 	C 	0.16127	0.72463	0.48088	-0.021
Mof_H 	H 	0.12297	0.69533	0.47333	-0.012
Mof_N 	N 	0.20967	0.78643	0.4738	-0.177
Mof_C 	C 	0.27077	0.81503	0.48273	-0.036
Mof_H 	H 	0.30807	0.85603	0.47783	0.023
Mof_C 	C 	0.28147	0.78713	0.49881	0.07
Mof_H 	H 	0.32627	0.80783	0.50403	0.021
Mof_Ag	Ag	0.63596	0.83218	0.94977	0.5
Mof_O 	O 	0.92142	0.96985	0.8896	-0.833
Mof_C 	C 	0.86423	0.96657	0.88541	0.428
Mof_O 	O 	0.07644	0.03168	0.85864	-1.004
Mof_C 	C 	0.13923	0.14857	0.86866	-0.598
Mof_H 	H 	0.17323	0.19417	0.86557	0.193
Mof_C 	C 	0.12523	0.09257	0.85635	0.526
Mof_C 	C 	0.80713	0.93237	0.89924	-0.071
Mof_C 	C 	0.82203	0.91057	0.91624	-0.02
Mof_H 	H 	0.08173	0.94867	0.91867	0.072
Mof_C 	C 	0.77303	0.87977	0.9287	0.025
Mof_H 	H 	0.13493	0.91837	0.93997	0.031
Mof_N 	N 	0.70703	0.86797	0.926	-0.186
Mof_C 	C 	0.10823	0.80207	0.91107	-0.006
Mof_H 	H 	0.11323	0.76287	0.90937	-0.017
Mof_C 	C 	0.07573	0.82037	0.89772	-0.003
Mof_H 	H 	0.05853	0.79257	0.88697	-0.02
Mof_C 	C 	0.89673	0.06527	0.84036	-0.087
Mof_C 	C 	0.83163	0.03667	0.83114	-0.074
Mof_H 	H 	0.79123	0.00247	0.83717	-0.012
Mof_C 	C 	0.82793	0.05797	0.81422	0.023
Mof_H 	H 	0.78963	0.02867	0.80667	-0.035
Mof_N 	N 	0.87633	0.11977	0.80714	-0.194
Mof_C 	C 	0.93743	0.14837	0.81607	0.013
Mof_H 	H 	0.97473	0.18937	0.81117	0.01
Mof_C 	C 	0.94813	0.12047	0.83215	-0.031
Mof_H 	H 	0.99293	0.14117	0.83737	0.071
Mof_Al	Al	0.66667	0.33333	0.70812	5.4
Mof_Al	Al	0.33333	0.66667	0.04145	5.399
Mof_Al	Al	-0	2.56373e-32	0.37479	3.882
Mof_Al	Al	0.66667	0.33333	0.20812	5.4
Mof_Al	Al	0.33333	0.66667	0.54145	5.399
Mof_Al	Al	-7.69119e-32	-5.12746e-32	0.87479	3.879
_end
