data_functionalizedCrystal
_audit_creation_method	'EQeq! by Chris Wilmer'
_symmetry_space_group_name_H-M	'P1'
_symmetry_Int_Tables_number	1
_symmetry_cell_setting	triclinic
loop_
_symmetry_equiv_pos_as_xyz
  x,y,z
_cell_length_a	10.2511
_cell_length_b	13.8478
_cell_length_c	16.0022
_cell_angle_alpha	90
_cell_angle_beta	95.643
_cell_angle_gamma	90
loop_
_atom_site_label
_atom_site_type_symbol
_atom_site_fract_x
_atom_site_fract_y
_atom_site_fract_z
_atom_site_charge
Mof_Zn	Zn	0.87616	0.03214	0.04527	1.22
Mof_Zn	Zn	0.01921	0.19762	0.93118	1.203
Mof_C 	C 	0.61683	0.17629	0.85386	-0.123
Mof_C 	C 	0.61498	0.24751	0.79254	0.057
Mof_H 	H 	0.695	0.2732	0.7769	0.045
Mof_C 	C 	0.49608	0.2811	0.75414	-0.1
Mof_C 	C 	0.37904	0.24346	0.77705	0.059
Mof_H 	H 	0.2978	0.2664	0.7508	0.045
Mof_C 	C 	0.38089	0.17224	0.83837	-0.124
Mof_C 	C 	0.49979	0.13865	0.87677	0.069
Mof_H 	H 	0.5011	0.09	0.9187	0.045
Mof_C 	C 	0.74494	0.14424	0.89927	0.396
Mof_C 	C 	0.49863	0.35619	0.68508	0.329
Mof_C 	C 	0.25572	0.13401	0.86689	0.389
Mof_O 	O 	0.84786	0.17211	0.86948	-0.489
Mof_O 	O 	0.73941	0.09259	0.96397	-0.46
Mof_O 	O 	0.60716	0.38452	0.6672	-0.278
Mof_O 	O 	0.38807	0.38505	0.65	-0.418
Mof_O 	O 	0.26184	0.05367	0.9039	-0.434
Mof_O 	O 	0.15456	0.18539	0.85247	-0.48
Mof_O 	O 	0.04976	0.08707	0.00551	-0.651
Mof_I 	I 	0.01793	0.35376	0.01078	-0.297
Mof_Zn	Zn	0.62384	0.53214	0.45473	1.227
Mof_Zn	Zn	0.48079	0.69762	0.56882	1.208
Mof_C 	C 	0.88317	0.67629	0.64614	-0.116
Mof_C 	C 	0.88502	0.74751	0.70746	0.066
Mof_H 	H 	0.805	0.7732	0.7231	0.044
Mof_C 	C 	0.00392	0.7811	0.74586	-0.104
Mof_C 	C 	0.12096	0.74346	0.72295	0.058
Mof_H 	H 	0.2022	0.7664	0.7492	0.046
Mof_C 	C 	0.11911	0.67224	0.66163	-0.12
Mof_C 	C 	0.00021	0.63865	0.62323	0.055
Mof_H 	H 	0.9989	0.59	0.5813	0.052
Mof_C 	C 	0.75506	0.64424	0.60073	0.395
Mof_C 	C 	0.00137	0.85619	0.81492	0.315
Mof_C 	C 	0.24428	0.63401	0.63311	0.387
Mof_O 	O 	0.65214	0.67211	0.63052	-0.491
Mof_O 	O 	0.76059	0.59259	0.53603	-0.462
Mof_O 	O 	0.89284	0.88452	0.8328	-0.268
Mof_O 	O 	0.11193	0.88505	0.85	-0.419
Mof_O 	O 	0.23816	0.55367	0.5961	-0.433
Mof_O 	O 	0.34544	0.68539	0.64753	-0.477
Mof_O 	O 	0.45024	0.58707	0.49449	-0.66
Mof_I 	I 	0.48207	0.85376	0.48922	-0.309
Mof_Zn	Zn	0.12384	0.96786	0.95473	1.221
Mof_Zn	Zn	0.98079	0.80238	0.06882	1.204
Mof_C 	C 	0.38317	0.82371	0.14614	-0.122
Mof_C 	C 	0.38502	0.75249	0.20746	0.058
Mof_H 	H 	0.305	0.7268	0.2231	0.046
Mof_C 	C 	0.50392	0.7189	0.24586	-0.099
Mof_C 	C 	0.62096	0.75654	0.22295	0.059
Mof_H 	H 	0.7022	0.7336	0.2492	0.045
Mof_C 	C 	0.61911	0.82776	0.16163	-0.124
Mof_C 	C 	0.50021	0.86135	0.12323	0.069
Mof_H 	H 	0.4989	0.91	0.0813	0.045
Mof_C 	C 	0.25506	0.85576	0.10073	0.396
Mof_C 	C 	0.50137	0.64381	0.31492	0.329
Mof_C 	C 	0.74428	0.86599	0.13311	0.389
Mof_O 	O 	0.15214	0.82789	0.13052	-0.489
Mof_O 	O 	0.26059	0.90741	0.03603	-0.46
Mof_O 	O 	0.39284	0.61548	0.3328	-0.278
Mof_O 	O 	0.61193	0.61495	0.35	-0.418
Mof_O 	O 	0.73816	0.94633	0.0961	-0.434
Mof_O 	O 	0.84544	0.81461	0.14753	-0.48
Mof_O 	O 	0.95024	0.91293	0.99449	-0.651
Mof_I 	I 	0.98207	0.64624	0.98922	-0.297
Mof_Zn	Zn	0.37616	0.46786	0.54527	1.227
Mof_Zn	Zn	0.51921	0.30238	0.43118	1.208
Mof_C 	C 	0.11683	0.32371	0.35386	-0.116
Mof_C 	C 	0.11498	0.25249	0.29254	0.066
Mof_H 	H 	0.195	0.2268	0.2769	0.044
Mof_C 	C 	0.99608	0.2189	0.25414	-0.104
Mof_C 	C 	0.87904	0.25654	0.27705	0.058
Mof_H 	H 	0.7978	0.2336	0.2508	0.046
Mof_C 	C 	0.88089	0.32776	0.33837	-0.12
Mof_C 	C 	0.99979	0.36135	0.37677	0.055
Mof_H 	H 	0.0011	0.41	0.4187	0.052
Mof_C 	C 	0.24494	0.35576	0.39927	0.395
Mof_C 	C 	0.99863	0.14381	0.18508	0.315
Mof_C 	C 	0.75572	0.36599	0.36689	0.387
Mof_O 	O 	0.34786	0.32789	0.36948	-0.491
Mof_O 	O 	0.23941	0.40741	0.46397	-0.462
Mof_O 	O 	0.10716	0.11548	0.1672	-0.268
Mof_O 	O 	0.88807	0.11495	0.15	-0.419
Mof_O 	O 	0.76184	0.44633	0.4039	-0.433
Mof_O 	O 	0.65456	0.31461	0.35247	-0.477
Mof_O 	O 	0.54976	0.41293	0.50551	-0.66
Mof_I 	I 	0.51793	0.14624	0.51078	-0.309
_end
