data_functionalizedCrystal
_audit_creation_method	'EQeq! by Chris Wilmer'
_symmetry_space_group_name_H-M	'P1'
_symmetry_Int_Tables_number	1
_symmetry_cell_setting	triclinic
loop_
_symmetry_equiv_pos_as_xyz
  x,y,z
_cell_length_a	6.897
_cell_length_b	12.1864
_cell_length_c	18.516
_cell_angle_alpha	90
_cell_angle_beta	90
_cell_angle_gamma	90
loop_
_atom_site_label
_atom_site_type_symbol
_atom_site_fract_x
_atom_site_fract_y
_atom_site_fract_z
_atom_site_charge
Mof_Sr	Sr	0.25	0.08464	0.51764	1.423
Mof_Sr	Sr	0.75	0.41536	0.01764	1.423
Mof_Sr	Sr	0.75	0.91536	0.48236	1.423
Mof_Sr	Sr	0.25	0.58464	0.98236	1.423
Mof_H 	H 	0.9573	0.8379	0.3257	-0.047
Mof_H 	H 	0.9581	0.7568	0.2119	0.054
Mof_H 	H 	0.0427	0.6621	0.8257	-0.046
Mof_H 	H 	0.0419	0.7432	0.7119	0.059
Mof_H 	H 	0.4573	0.1621	0.6743	-0.042
Mof_H 	H 	0.4581	0.2432	0.7881	0.06
Mof_H 	H 	0.5427	0.3379	0.1743	-0.043
Mof_H 	H 	0.5419	0.2568	0.2881	0.06
Mof_H 	H 	0.0427	0.1621	0.6743	-0.047
Mof_H 	H 	0.0419	0.2432	0.7881	0.054
Mof_H 	H 	0.9573	0.3379	0.1743	-0.046
Mof_H 	H 	0.9581	0.2568	0.2881	0.059
Mof_H 	H 	0.5427	0.8379	0.3257	-0.042
Mof_H 	H 	0.5419	0.7568	0.2119	0.06
Mof_H 	H 	0.4573	0.6621	0.8257	-0.043
Mof_H 	H 	0.4581	0.7432	0.7119	0.06
Mof_C 	C 	0.0771	0.8212	0.3028	0.081
Mof_C 	C 	0.0778	0.7731	0.2349	-0.099
Mof_C 	C 	0.9229	0.6788	0.8028	0.081
Mof_C 	C 	0.9222	0.7269	0.7349	-0.105
Mof_C 	C 	0.5771	0.1788	0.6972	0.076
Mof_C 	C 	0.5778	0.2269	0.7651	-0.105
Mof_C 	C 	0.4229	0.3212	0.1972	0.077
Mof_C 	C 	0.4222	0.2731	0.2651	-0.107
Mof_C 	C 	0.9229	0.1788	0.6972	0.081
Mof_C 	C 	0.9222	0.2269	0.7651	-0.099
Mof_C 	C 	0.0771	0.3212	0.1972	0.081
Mof_C 	C 	0.0778	0.2731	0.2651	-0.105
Mof_C 	C 	0.4229	0.8212	0.3028	0.076
Mof_C 	C 	0.4222	0.7731	0.2349	-0.105
Mof_C 	C 	0.5771	0.6788	0.8028	0.077
Mof_C 	C 	0.5778	0.7269	0.7349	-0.107
Mof_C 	C 	0.25	0.8992	0.4107	0.449
Mof_C 	C 	0.25	0.8451	0.3375	-0.209
Mof_C 	C 	0.25	0.6994	0.1256	0.291
Mof_C 	C 	0.25	0.7485	0.2	-0.024
Mof_C 	C 	0.75	0.6008	0.9107	0.449
Mof_C 	C 	0.75	0.6549	0.8375	-0.21
Mof_C 	C 	0.75	0.8006	0.6256	0.29
Mof_C 	C 	0.75	0.7515	0.7	-0.022
Mof_C 	C 	0.75	0.1008	0.5893	0.449
Mof_C 	C 	0.75	0.1549	0.6625	-0.209
Mof_C 	C 	0.75	0.3006	0.8744	0.291
Mof_C 	C 	0.75	0.2515	0.8	-0.024
Mof_C 	C 	0.25	0.3992	0.0893	0.449
Mof_C 	C 	0.25	0.3451	0.1625	-0.21
Mof_C 	C 	0.25	0.1994	0.3744	0.29
Mof_C 	C 	0.25	0.2485	0.3	-0.022
Mof_O 	O 	0.0906	0.9234	0.43946	-0.561
Mof_O 	O 	0.0904	0.6803	0.0955	-0.39
Mof_O 	O 	0.9094	0.5766	0.93946	-0.561
Mof_O 	O 	0.9096	0.8197	0.5955	-0.392
Mof_O 	O 	0.5906	0.0766	0.56054	-0.563
Mof_O 	O 	0.5904	0.3197	0.9045	-0.392
Mof_O 	O 	0.4094	0.4234	0.06054	-0.563
Mof_O 	O 	0.4096	0.1803	0.4045	-0.392
Mof_O 	O 	0.9094	0.0766	0.56054	-0.561
Mof_O 	O 	0.9096	0.3197	0.9045	-0.39
Mof_O 	O 	0.0906	0.4234	0.06054	-0.561
Mof_O 	O 	0.0904	0.1803	0.4045	-0.392
Mof_O 	O 	0.4094	0.9234	0.43946	-0.563
Mof_O 	O 	0.4096	0.6803	0.0955	-0.392
Mof_O 	O 	0.5906	0.5766	0.93946	-0.563
Mof_O 	O 	0.5904	0.8197	0.5955	-0.392
_end
