data_functionalizedCrystal
_audit_creation_method	'EQeq! by Chris Wilmer'
_symmetry_space_group_name_H-M	'P1'
_symmetry_Int_Tables_number	1
_symmetry_cell_setting	triclinic
loop_
_symmetry_equiv_pos_as_xyz
  x,y,z
_cell_length_a	7.247
_cell_length_b	14.983
_cell_length_c	22.489
_cell_angle_alpha	90
_cell_angle_beta	90.905
_cell_angle_gamma	90
loop_
_atom_site_label
_atom_site_type_symbol
_atom_site_fract_x
_atom_site_fract_y
_atom_site_fract_z
_atom_site_charge
Mof_Mn	Mn	0.75335	0.52676	0.76677	0.694
Mof_Mn	Mn	0.74665	0.02676	0.73323	0.666
Mof_Mn	Mn	0.24665	0.47324	0.23323	0.683
Mof_Mn	Mn	0.25335	0.97324	0.26677	0.713
Mof_Mn	Mn	0.5	0.5	0.5	0.642
Mof_Mn	Mn	-0	0	-0	0.571
Mof_H 	H 	0.6786	0.489	0.6297	-0.014
Mof_H 	H 	0.6231	0.7022	0.5299	0.001
Mof_H 	H 	0.7097	0.791	0.6103	0.084
Mof_H 	H 	0.7583	0.7227	0.7035	0.001
Mof_H 	H 	0.8214	0.989	0.8703	0.02
Mof_H 	H 	0.8769	0.2022	0.9701	0.013
Mof_H 	H 	0.7903	0.291	0.8897	0.082
Mof_H 	H 	0.7417	0.2227	0.7965	0
Mof_H 	H 	0.3214	0.511	0.3703	-0.015
Mof_H 	H 	0.3769	0.2978	0.4701	-0
Mof_H 	H 	0.2903	0.209	0.3897	0.074
Mof_H 	H 	0.2417	0.2773	0.2965	-0.005
Mof_H 	H 	0.1786	0.011	0.1297	-0.043
Mof_H 	H 	0.1231	0.7978	0.0299	-0.006
Mof_H 	H 	0.2097	0.709	0.1103	0.076
Mof_H 	H 	0.2583	0.7773	0.2035	-0.005
Mof_W 	W 	0.23778	0.28623	0.6782	0.517
Mof_W 	W 	0.26222	0.78623	0.8218	0.526
Mof_W 	W 	0.76222	0.71377	0.3218	0.521
Mof_W 	W 	0.73778	0.21377	0.1782	0.514
Mof_C 	C 	0.4572	0.3694	0.7131	-0.026
Mof_C 	C 	0.4577	0.1913	0.6934	-0.02
Mof_C 	C 	0.0746	0.169	0.6965	-0.046
Mof_C 	C 	0.0861	0.3972	0.7144	-0.05
Mof_C 	C 	0.3168	0.3792	0.6095	-0.026
Mof_C 	C 	0.2712	0.2095	0.5974	-0.04
Mof_C 	C 	0.9839	0.3025	0.6274	-0.02
Mof_C 	C 	0.242	0.2659	0.7735	-0.043
Mof_C 	C 	0.6799	0.5522	0.6261	0.116
Mof_C 	C 	0.6504	0.6754	0.5673	0.089
Mof_C 	C 	0.6982	0.7282	0.6147	-0.146
Mof_C 	C 	0.7298	0.6872	0.6696	0.095
Mof_C 	C 	0.0428	0.8694	0.7869	-0.043
Mof_C 	C 	0.0423	0.6913	0.8066	-0.038
Mof_C 	C 	0.4254	0.669	0.8035	-0.022
Mof_C 	C 	0.4139	0.8972	0.7856	-0.026
Mof_C 	C 	0.1832	0.8792	0.8905	-0.02
Mof_C 	C 	0.2288	0.7095	0.9026	-0.033
Mof_C 	C 	0.5161	0.8025	0.8726	-0.031
Mof_C 	C 	0.258	0.7659	0.7265	-0.042
Mof_C 	C 	0.8201	0.0522	0.8739	0.078
Mof_C 	C 	0.8496	0.1754	0.9327	0.087
Mof_C 	C 	0.8018	0.2282	0.8853	-0.14
Mof_C 	C 	0.7702	0.1872	0.8304	0.092
Mof_C 	C 	0.5428	0.6306	0.2869	-0.029
Mof_C 	C 	0.5423	0.8087	0.3066	-0.018
Mof_C 	C 	0.9254	0.831	0.3035	-0.002
Mof_C 	C 	0.9139	0.6028	0.2856	-0.012
Mof_C 	C 	0.6832	0.6208	0.3905	-0.02
Mof_C 	C 	0.7288	0.7905	0.4026	-0.031
Mof_C 	C 	0.0161	0.6975	0.3726	-0.051
Mof_C 	C 	0.758	0.7341	0.2265	-0.04
Mof_C 	C 	0.3201	0.4478	0.3739	0.114
Mof_C 	C 	0.3496	0.3246	0.4327	0.085
Mof_C 	C 	0.3018	0.2718	0.3853	-0.147
Mof_C 	C 	0.2702	0.3128	0.3304	0.091
Mof_C 	C 	0.9572	0.1306	0.2131	-0.011
Mof_C 	C 	0.9577	0.3087	0.1934	-0.002
Mof_C 	C 	0.5746	0.331	0.1965	-0.023
Mof_C 	C 	0.5861	0.1028	0.2144	-0.032
Mof_C 	C 	0.8168	0.1208	0.1095	-0.026
Mof_C 	C 	0.7712	0.2905	0.0974	-0.036
Mof_C 	C 	0.4839	0.1975	0.1274	-0.039
Mof_C 	C 	0.742	0.2341	0.2735	-0.041
Mof_C 	C 	0.1799	0.9478	0.1261	0.153
Mof_C 	C 	0.1504	0.8246	0.0673	0.088
Mof_C 	C 	0.1982	0.7718	0.1147	-0.151
Mof_C 	C 	0.2298	0.8128	0.1696	0.094
Mof_N 	N 	0.5686	0.4176	0.7321	-0.163
Mof_N 	N 	0.9331	0.6394	0.7958	-0.15
Mof_N 	N 	0.5132	0.6069	0.7936	-0.164
Mof_N 	N 	0.9972	0.4543	0.7339	-0.15
Mof_N 	N 	0.3624	0.4257	0.5725	-0.169
Mof_N 	N 	0.2872	0.1698	0.5547	-0.1
Mof_N 	N 	0.8504	0.3133	0.6015	-0.104
Mof_N 	N 	0.2474	0.2522	0.8239	-0.096
Mof_N 	N 	0.7209	0.5986	0.6749	-0.189
Mof_N 	N 	0.6413	0.5861	0.5729	-0.198
Mof_N 	N 	0.9314	0.9176	0.7679	-0.141
Mof_N 	N 	0.5669	0.1394	0.7042	-0.165
Mof_N 	N 	0.9868	0.1069	0.7064	-0.151
Mof_N 	N 	0.5028	0.9543	0.7661	-0.154
Mof_N 	N 	0.1376	0.9257	0.9275	-0.151
Mof_N 	N 	0.2128	0.6698	0.9453	-0.09
Mof_N 	N 	0.6496	0.8133	0.8985	-0.092
Mof_N 	N 	0.2526	0.7522	0.6761	-0.096
Mof_N 	N 	0.7791	0.0986	0.8251	-0.183
Mof_N 	N 	0.8587	0.0861	0.9271	-0.181
Mof_N 	N 	0.4314	0.5824	0.2679	-0.163
Mof_N 	N 	0.0669	0.3606	0.2042	-0.178
Mof_N 	N 	0.4868	0.3931	0.2064	-0.165
Mof_N 	N 	0.0028	0.5457	0.2661	-0.178
Mof_N 	N 	0.6376	0.5743	0.4275	-0.168
Mof_N 	N 	0.7128	0.8302	0.4453	-0.091
Mof_N 	N 	0.1496	0.6867	0.3985	-0.101
Mof_N 	N 	0.7526	0.7478	0.1761	-0.092
Mof_N 	N 	0.2791	0.4014	0.3251	-0.19
Mof_N 	N 	0.3587	0.4139	0.4271	-0.199
Mof_N 	N 	0.0686	0.0824	0.2321	-0.184
Mof_N 	N 	0.4331	0.8606	0.2958	-0.164
Mof_N 	N 	0.0132	0.8931	0.2936	-0.176
Mof_N 	N 	0.4972	0.0457	0.2339	-0.174
Mof_N 	N 	0.8624	0.0743	0.0725	-0.164
Mof_N 	N 	0.7872	0.3302	0.0547	-0.099
Mof_N 	N 	0.3504	0.1867	0.1015	-0.108
Mof_N 	N 	0.7474	0.2478	0.3239	-0.094
Mof_N 	N 	0.2209	0.9014	0.1749	-0.195
Mof_N 	N 	0.1413	0.9139	0.0729	-0.199
_end
