data_functionalizedCrystal
_audit_creation_method	'EQeq! by Chris Wilmer'
_symmetry_space_group_name_H-M	'P1'
_symmetry_Int_Tables_number	1
_symmetry_cell_setting	triclinic
loop_
_symmetry_equiv_pos_as_xyz
  x,y,z
_cell_length_a	9.461
_cell_length_b	9.4028
_cell_length_c	20.963
_cell_angle_alpha	90
_cell_angle_beta	100.186
_cell_angle_gamma	90
loop_
_atom_site_label
_atom_site_type_symbol
_atom_site_fract_x
_atom_site_fract_y
_atom_site_fract_z
_atom_site_charge
Mof_O 	O 	0.2467	0.1501	0.41042	-0.702
Mof_In	In	0.37242	0.33423	0.4033	3.072
Mof_In	In	0.12489	0.1645	0.59038	3.109
Mof_P 	P 	0.61911	0.58904	0.43992	0.636
Mof_P 	P 	0.6661	0.12552	0.44278	0.662
Mof_P 	P 	0.20846	0.2634	0.25262	0.558
Mof_P 	P 	0.096	0.11886	0.42294	0.641
Mof_P 	P 	0.03491	0.51114	0.39719	0.639
Mof_O 	O 	0.3381	0.3241	0.29886	-0.609
Mof_O 	O 	0.0662	0.179	0.48677	-0.747
Mof_O 	O 	0.2334	0.1089	0.23631	-0.278
Mof_O 	O 	0.4946	0.5239	0.39095	-0.621
Mof_O 	O 	0.1694	0.3564	0.19323	-0.646
Mof_O 	O 	0.0271	0.671	0.40296	-0.666
Mof_O 	O 	0.0668	0.9597	0.41465	-0.656
Mof_O 	O 	0.7033	0.6909	0.40464	-0.712
Mof_O 	O 	0.5616	0.6589	0.49552	-0.738
Mof_O 	O 	0.1868	0.4649	0.39765	-0.686
Mof_O 	O 	0.5547	0.2046	0.39651	-0.663
Mof_O 	O 	0.7441	0.0163	0.4119	-0.721
Mof_H 	H 	0.09	0.26	0.28	-0.058
Mof_H 	H 	0.006	0.192	0.38	-0.094
Mof_H 	H 	0.713	0.481	0.462	-0.106
Mof_H 	H 	0.987	0.439	0.447	-0.094
Mof_O 	O 	0.9367	0.4566	0.336	-0.485
Mof_H 	H 	0.854	0.4822	0.3363	0.277
Mof_O 	O 	0.7699	0.2336	0.4795	-0.507
Mof_H 	H 	0.8523	0.2128	0.4759	0.273
Mof_H 	H 	0.592	0.047	0.485	-0.079
Mof_O 	O 	0.7533	0.6501	0.08958	-0.703
Mof_In	In	0.62758	0.83423	0.0967	3.071
Mof_In	In	0.87511	0.6645	0.90962	3.114
Mof_P 	P 	0.38089	0.08904	0.06008	0.633
Mof_P 	P 	0.3339	0.62552	0.05722	0.662
Mof_P 	P 	0.79154	0.7634	0.24738	0.558
Mof_P 	P 	0.904	0.61886	0.07706	0.651
Mof_P 	P 	0.96509	0.01114	0.10281	0.66
Mof_O 	O 	0.6619	0.8241	0.20114	-0.61
Mof_O 	O 	0.9338	0.679	0.01323	-0.746
Mof_O 	O 	0.7666	0.6089	0.26369	-0.273
Mof_O 	O 	0.5054	0.0239	0.10905	-0.619
Mof_O 	O 	0.8306	0.8564	0.30677	-0.647
Mof_O 	O 	0.9729	0.171	0.09704	-0.666
Mof_O 	O 	0.9332	0.4597	0.08535	-0.663
Mof_O 	O 	0.2967	0.1909	0.09536	-0.714
Mof_O 	O 	0.4384	0.1589	0.00448	-0.737
Mof_O 	O 	0.8132	0.9649	0.10235	-0.698
Mof_O 	O 	0.4453	0.7046	0.10349	-0.664
Mof_O 	O 	0.2559	0.5163	0.0881	-0.727
Mof_H 	H 	0.91	0.76	0.22	-0.057
Mof_H 	H 	0.994	0.692	0.12	-0.093
Mof_H 	H 	0.287	0.981	0.038	-0.105
Mof_H 	H 	0.013	0.939	0.053	-0.098
Mof_O 	O 	0.0633	0.9566	0.164	-0.49
Mof_H 	H 	0.146	0.9822	0.1637	0.28
Mof_O 	O 	0.2301	0.7336	0.0205	-0.507
Mof_H 	H 	0.1477	0.7128	0.0241	0.269
Mof_H 	H 	0.408	0.547	0.015	-0.079
Mof_O 	O 	0.7533	0.8499	0.58958	-0.703
Mof_In	In	0.62758	0.66577	0.5967	3.071
Mof_In	In	0.87511	0.8355	0.40962	3.109
Mof_P 	P 	0.38089	0.41096	0.56008	0.636
Mof_P 	P 	0.3339	0.87448	0.55722	0.662
Mof_P 	P 	0.79154	0.7366	0.74738	0.558
Mof_P 	P 	0.904	0.88114	0.57706	0.641
Mof_P 	P 	0.96509	0.48886	0.60281	0.639
Mof_O 	O 	0.6619	0.6759	0.70114	-0.609
Mof_O 	O 	0.9338	0.821	0.51323	-0.747
Mof_O 	O 	0.7666	0.8911	0.76369	-0.278
Mof_O 	O 	0.5054	0.4761	0.60905	-0.621
Mof_O 	O 	0.8306	0.6436	0.80677	-0.646
Mof_O 	O 	0.9729	0.329	0.59704	-0.666
Mof_O 	O 	0.9332	0.0403	0.58535	-0.656
Mof_O 	O 	0.2967	0.3091	0.59536	-0.712
Mof_O 	O 	0.4384	0.3411	0.50448	-0.738
Mof_O 	O 	0.8132	0.5351	0.60235	-0.686
Mof_O 	O 	0.4453	0.7954	0.60349	-0.663
Mof_O 	O 	0.2559	0.9837	0.5881	-0.721
Mof_H 	H 	0.91	0.74	0.72	-0.058
Mof_H 	H 	0.994	0.808	0.62	-0.094
Mof_H 	H 	0.287	0.519	0.538	-0.106
Mof_H 	H 	0.013	0.561	0.553	-0.094
Mof_O 	O 	0.0633	0.5434	0.664	-0.485
Mof_H 	H 	0.146	0.5178	0.6637	0.277
Mof_O 	O 	0.2301	0.7664	0.5205	-0.507
Mof_H 	H 	0.1477	0.7872	0.5241	0.273
Mof_H 	H 	0.408	0.953	0.515	-0.079
Mof_O 	O 	0.2467	0.3499	0.91042	-0.703
Mof_In	In	0.37242	0.16577	0.9033	3.071
Mof_In	In	0.12489	0.3355	0.09038	3.114
Mof_P 	P 	0.61911	0.91096	0.93992	0.633
Mof_P 	P 	0.6661	0.37448	0.94278	0.662
Mof_P 	P 	0.20846	0.2366	0.75262	0.558
Mof_P 	P 	0.096	0.38114	0.92294	0.651
Mof_P 	P 	0.03491	0.98886	0.89719	0.66
Mof_O 	O 	0.3381	0.1759	0.79886	-0.61
Mof_O 	O 	0.0662	0.321	0.98677	-0.746
Mof_O 	O 	0.2334	0.3911	0.73631	-0.273
Mof_O 	O 	0.4946	0.9761	0.89095	-0.619
Mof_O 	O 	0.1694	0.1436	0.69323	-0.647
Mof_O 	O 	0.0271	0.829	0.90296	-0.666
Mof_O 	O 	0.0668	0.5403	0.91465	-0.663
Mof_O 	O 	0.7033	0.8091	0.90464	-0.714
Mof_O 	O 	0.5616	0.8411	0.99552	-0.737
Mof_O 	O 	0.1868	0.0351	0.89765	-0.698
Mof_O 	O 	0.5547	0.2954	0.89651	-0.664
Mof_O 	O 	0.7441	0.4837	0.9119	-0.727
Mof_H 	H 	0.09	0.24	0.78	-0.057
Mof_H 	H 	0.006	0.308	0.88	-0.093
Mof_H 	H 	0.713	0.019	0.962	-0.105
Mof_H 	H 	0.987	0.061	0.947	-0.098
Mof_O 	O 	0.9367	0.0434	0.836	-0.49
Mof_H 	H 	0.854	0.0178	0.8363	0.28
Mof_O 	O 	0.7699	0.2664	0.9795	-0.507
Mof_H 	H 	0.8523	0.2872	0.9759	0.269
Mof_H 	H 	0.592	0.453	0.985	-0.079
_end
