data_functionalizedCrystal
_audit_creation_method	'EQeq! by Chris Wilmer'
_symmetry_space_group_name_H-M	'P1'
_symmetry_Int_Tables_number	1
_symmetry_cell_setting	triclinic
loop_
_symmetry_equiv_pos_as_xyz
  x,y,z
_cell_length_a	16.7094
_cell_length_b	20.2857
_cell_length_c	17.1936
_cell_angle_alpha	90
_cell_angle_beta	99.178
_cell_angle_gamma	90
loop_
_atom_site_label
_atom_site_type_symbol
_atom_site_fract_x
_atom_site_fract_y
_atom_site_fract_z
_atom_site_charge
Mof_Mn	Mn	0.03628	0.83793	0.24945	1.016
Mof_Mn	Mn	0.15001	0.88419	0.44488	0.792
Mof_Mn	Mn	0.9113	0.85701	0.05124	0.839
Mof_S 	S 	0.90031	0.51886	0.54224	0.271
Mof_S 	S 	0.56093	0.72651	0.27533	0.268
Mof_S 	S 	0.9557	0.43167	0.15342	0.259
Mof_O 	O 	0.9941	0.75864	0.17317	-0.398
Mof_O 	O 	0.01953	0.77519	0.34582	-0.376
Mof_O 	O 	0.42533	0.42244	0.17897	-0.418
Mof_O 	O 	0.58843	0.37213	0.25176	-0.379
Mof_O 	O 	0.16433	0.80811	0.25509	-0.363
Mof_O 	O 	0.5377	0.60645	0.63659	-0.401
Mof_O 	O 	0.21094	0.81666	0.38489	-0.392
Mof_O 	O 	0.06261	0.81211	0.46854	-0.371
Mof_O 	O 	0.43616	0.46447	0.06259	-0.356
Mof_O 	O 	0.66015	0.39016	0.3713	-0.408
Mof_O 	O 	0.92281	0.755	0.0532	-0.4
Mof_O 	O 	0.50828	0.59718	0.50767	-0.376
Mof_O 	O 	0.89838	0.47131	0.47979	-0.212
Mof_O 	O 	0.94559	0.50506	0.6191	-0.214
Mof_O 	O 	0.60942	0.72474	0.35235	-0.204
Mof_O 	O 	0.58594	0.76704	0.21455	-0.211
Mof_O 	O 	0.945	0.40065	0.07738	-0.208
Mof_O 	O 	0.02477	0.41509	0.21197	-0.204
Mof_C 	C 	0.0272	0.77126	0.4192	0.38
Mof_C 	C 	0.99236	0.70996	0.4516	-0.1
Mof_C 	C 	0.9509	0.66433	0.4	0.029
Mof_H 	H 	0.9423	0.673	0.3462	0.039
Mof_C 	C 	0.9221	0.60611	0.42745	-0.07
Mof_H 	H 	0.8954	0.5752	0.3926	0.074
Mof_C 	C 	0.93378	0.59481	0.50816	0.016
Mof_C 	C 	0.9736	0.64026	0.5611	-0.073
Mof_H 	H 	0.9805	0.6322	0.615	0.082
Mof_C 	C 	0.0028	0.69758	0.53246	0.026
Mof_H 	H 	0.0298	0.7282	0.5674	0.045
Mof_C 	C 	0.79903	0.53564	0.55369	0.009
Mof_C 	C 	0.738	0.52584	0.48961	-0.088
Mof_H 	H 	0.7499	0.5081	0.4429	0.075
Mof_C 	C 	0.6595	0.54287	0.4965	0.027
Mof_H 	H 	0.6179	0.5363	0.4544	0.031
Mof_C 	C 	0.6423	0.56993	0.56688	-0.109
Mof_C 	C 	0.7036	0.57713	0.6314	0.03
Mof_H 	H 	0.6914	0.5931	0.6789	0.034
Mof_C 	C 	0.783	0.56052	0.62487	-0.088
Mof_H 	H 	0.8245	0.5659	0.6673	0.083
Mof_C 	C 	0.5577	0.59244	0.5712	0.355
Mof_C 	C 	0.219	0.80415	0.31427	0.369
Mof_C 	C 	0.30295	0.78287	0.30272	-0.102
Mof_C 	C 	0.36199	0.77183	0.36908	0.021
Mof_H 	H 	0.3482	0.7763	0.4191	0.038
Mof_C 	C 	0.4403	0.75449	0.3613	-0.072
Mof_H 	H 	0.4789	0.7467	0.4056	0.079
Mof_C 	C 	0.46049	0.7489	0.28588	0.011
Mof_C 	C 	0.4025	0.75976	0.21922	-0.071
Mof_H 	H 	0.4166	0.7561	0.1692	0.067
Mof_C 	C 	0.3243	0.77599	0.22774	0.023
Mof_H 	H 	0.2854	0.7824	0.1833	0.04
Mof_C 	C 	0.54792	0.64497	0.23835	0.003
Mof_C 	C 	0.5309	0.59451	0.2884	-0.08
Mof_H 	H 	0.5362	0.6015	0.3424	0.075
Mof_C 	C 	0.506	0.53401	0.2563	0.02
Mof_H 	H 	0.4946	0.4998	0.2888	0.035
Mof_C 	C 	0.4981	0.52417	0.17502	-0.096
Mof_C 	C 	0.5225	0.573	0.1268	0.011
Mof_H 	H 	0.5225	0.5646	0.0736	0.048
Mof_C 	C 	0.5469	0.63402	0.1582	-0.077
Mof_H 	H 	0.5623	0.6672	0.1263	0.071
Mof_C 	C 	0.4529	0.4656	0.1368	0.343
Mof_C 	C 	0.9578	0.72802	0.11575	0.401
Mof_C 	C 	0.95602	0.6542	0.1219	-0.125
Mof_C 	C 	0.9248	0.61395	0.0589	0.043
Mof_H 	H 	0.9038	0.6327	0.0106	0.029
Mof_C 	C 	0.9248	0.54598	0.0676	-0.096
Mof_H 	H 	0.9039	0.5192	0.0254	0.075
Mof_C 	C 	0.9562	0.51831	0.1396	0.02
Mof_C 	C 	0.9874	0.55792	0.2038	-0.102
Mof_H 	H 	0.0079	0.5391	0.2522	0.095
Mof_C 	C 	0.9872	0.62526	0.19411	0.046
Mof_H 	H 	0.0083	0.652	0.2364	0.035
Mof_C 	C 	0.8668	0.41882	0.1956	0.021
Mof_C 	C 	0.7951	0.4018	0.1476	-0.082
Mof_H 	H 	0.7937	0.3967	0.0936	0.076
Mof_C 	C 	0.7259	0.3924	0.1806	0.035
Mof_H 	H 	0.6775	0.3815	0.1485	0.037
Mof_C 	C 	0.7277	0.39912	0.26186	-0.113
Mof_C 	C 	0.8	0.41584	0.30905	0.039
Mof_H 	H 	0.802	0.42	0.3632	0.044
Mof_C 	C 	0.8696	0.42646	0.2762	-0.083
Mof_H 	H 	0.9177	0.4386	0.3079	0.089
Mof_C 	C 	0.652	0.38619	0.297	0.392
Mof_Mn	Mn	0.46372	0.33793	0.25055	1.017
Mof_Mn	Mn	0.34999	0.38419	0.05512	0.794
Mof_Mn	Mn	0.5887	0.35701	0.44876	0.84
Mof_S 	S 	0.59969	0.01886	0.95776	0.272
Mof_S 	S 	0.93907	0.22651	0.22467	0.269
Mof_S 	S 	0.5443	0.93167	0.34658	0.261
Mof_O 	O 	0.5059	0.25864	0.32683	-0.398
Mof_O 	O 	0.48047	0.27519	0.15418	-0.376
Mof_O 	O 	0.07467	0.92244	0.32103	-0.417
Mof_O 	O 	0.91157	0.87213	0.24824	-0.378
Mof_O 	O 	0.33567	0.30811	0.24491	-0.363
Mof_O 	O 	0.9623	0.10645	0.86341	-0.401
Mof_O 	O 	0.28906	0.31666	0.11511	-0.392
Mof_O 	O 	0.43739	0.31211	0.03146	-0.371
Mof_O 	O 	0.06384	0.96447	0.43741	-0.355
Mof_O 	O 	0.83985	0.89016	0.1287	-0.408
Mof_O 	O 	0.57719	0.255	0.4468	-0.4
Mof_O 	O 	0.99172	0.09718	0.99233	-0.376
Mof_O 	O 	0.60162	0.97131	0.02021	-0.212
Mof_O 	O 	0.55441	0.00506	0.8809	-0.214
Mof_O 	O 	0.89058	0.22474	0.14765	-0.204
Mof_O 	O 	0.91406	0.26704	0.28545	-0.212
Mof_O 	O 	0.555	0.90065	0.42262	-0.208
Mof_O 	O 	0.47523	0.91509	0.28803	-0.205
Mof_C 	C 	0.4728	0.27126	0.0808	0.381
Mof_C 	C 	0.50764	0.20996	0.0484	-0.102
Mof_C 	C 	0.5491	0.16433	0.1	0.031
Mof_H 	H 	0.5577	0.173	0.1538	0.039
Mof_C 	C 	0.5779	0.10611	0.07255	-0.071
Mof_H 	H 	0.6046	0.0752	0.1074	0.074
Mof_C 	C 	0.56622	0.09481	0.99184	0.018
Mof_C 	C 	0.5264	0.14026	0.9389	-0.075
Mof_H 	H 	0.5195	0.1322	0.885	0.083
Mof_C 	C 	0.4972	0.19758	0.96754	0.029
Mof_H 	H 	0.4702	0.2282	0.9326	0.044
Mof_C 	C 	0.70097	0.03564	0.94631	0.01
Mof_C 	C 	0.762	0.02584	0.01039	-0.088
Mof_H 	H 	0.7501	0.0081	0.0571	0.075
Mof_C 	C 	0.8405	0.04287	0.0035	0.027
Mof_H 	H 	0.8821	0.0363	0.0456	0.03
Mof_C 	C 	0.8577	0.06993	0.93312	-0.108
Mof_C 	C 	0.7964	0.07713	0.8686	0.03
Mof_H 	H 	0.8086	0.0931	0.8211	0.034
Mof_C 	C 	0.717	0.06052	0.87513	-0.088
Mof_H 	H 	0.6755	0.0659	0.8327	0.083
Mof_C 	C 	0.9423	0.09244	0.9288	0.355
Mof_C 	C 	0.281	0.30415	0.18573	0.369
Mof_C 	C 	0.19705	0.28287	0.19728	-0.102
Mof_C 	C 	0.13801	0.27183	0.13092	0.021
Mof_H 	H 	0.1518	0.2763	0.0809	0.038
Mof_C 	C 	0.0597	0.25449	0.1387	-0.073
Mof_H 	H 	0.0211	0.2467	0.0944	0.08
Mof_C 	C 	0.03951	0.2489	0.21412	0.012
Mof_C 	C 	0.0975	0.25976	0.28078	-0.071
Mof_H 	H 	0.0834	0.2561	0.3308	0.067
Mof_C 	C 	0.1757	0.27599	0.27226	0.023
Mof_H 	H 	0.2146	0.2824	0.3167	0.04
Mof_C 	C 	0.95208	0.14497	0.26165	0.001
Mof_C 	C 	0.9691	0.09451	0.2116	-0.077
Mof_H 	H 	0.9638	0.1015	0.1576	0.073
Mof_C 	C 	0.994	0.03401	0.2437	0.014
Mof_H 	H 	0.0054	0.9998	0.2112	0.037
Mof_C 	C 	0.0019	0.02417	0.32498	-0.09
Mof_C 	C 	0.9775	0.073	0.3732	0.006
Mof_H 	H 	0.9775	0.0646	0.4264	0.049
Mof_C 	C 	0.9531	0.13402	0.3418	-0.074
Mof_H 	H 	0.9377	0.1672	0.3737	0.07
Mof_C 	C 	0.0471	0.9656	0.3632	0.34
Mof_C 	C 	0.5422	0.22802	0.38425	0.4
Mof_C 	C 	0.54398	0.1542	0.3781	-0.125
Mof_C 	C 	0.5752	0.11395	0.4411	0.043
Mof_H 	H 	0.5962	0.1327	0.4894	0.029
Mof_C 	C 	0.5752	0.04598	0.4324	-0.095
Mof_H 	H 	0.5961	0.0192	0.4746	0.075
Mof_C 	C 	0.5438	0.01831	0.3604	0.019
Mof_C 	C 	0.5126	0.05792	0.2962	-0.101
Mof_H 	H 	0.4921	0.0391	0.2478	0.095
Mof_C 	C 	0.5128	0.12526	0.30589	0.046
Mof_H 	H 	0.4917	0.152	0.2636	0.036
Mof_C 	C 	0.6332	0.91882	0.3044	0.021
Mof_C 	C 	0.7049	0.9018	0.3524	-0.082
Mof_H 	H 	0.7063	0.8967	0.4064	0.076
Mof_C 	C 	0.7741	0.8924	0.3194	0.035
Mof_H 	H 	0.8225	0.8815	0.3515	0.037
Mof_C 	C 	0.7723	0.89912	0.23814	-0.113
Mof_C 	C 	0.7	0.91584	0.19095	0.038
Mof_H 	H 	0.698	0.92	0.1368	0.044
Mof_C 	C 	0.6304	0.92646	0.2238	-0.082
Mof_H 	H 	0.5823	0.9386	0.1921	0.089
Mof_C 	C 	0.848	0.88619	0.203	0.392
Mof_Mn	Mn	0.96372	0.16207	0.75055	1.017
Mof_Mn	Mn	0.84999	0.11581	0.55512	0.793
Mof_Mn	Mn	0.0887	0.14299	0.94876	0.84
Mof_S 	S 	0.09969	0.48114	0.45776	0.272
Mof_S 	S 	0.43907	0.27349	0.72467	0.269
Mof_S 	S 	0.0443	0.56833	0.84658	0.26
Mof_O 	O 	0.0059	0.24136	0.82683	-0.398
Mof_O 	O 	0.98047	0.22481	0.65418	-0.376
Mof_O 	O 	0.57467	0.57756	0.82103	-0.418
Mof_O 	O 	0.41157	0.62787	0.74824	-0.379
Mof_O 	O 	0.83567	0.19189	0.74491	-0.363
Mof_O 	O 	0.4623	0.39355	0.36341	-0.401
Mof_O 	O 	0.78906	0.18334	0.61511	-0.392
Mof_O 	O 	0.93739	0.18789	0.53146	-0.371
Mof_O 	O 	0.56384	0.53553	0.93741	-0.356
Mof_O 	O 	0.33985	0.60984	0.6287	-0.408
Mof_O 	O 	0.07719	0.245	0.9468	-0.4
Mof_O 	O 	0.49172	0.40282	0.49233	-0.376
Mof_O 	O 	0.10162	0.52869	0.52021	-0.212
Mof_O 	O 	0.05441	0.49494	0.3809	-0.214
Mof_O 	O 	0.39058	0.27526	0.64765	-0.204
Mof_O 	O 	0.41406	0.23296	0.78545	-0.211
Mof_O 	O 	0.055	0.59935	0.92262	-0.208
Mof_O 	O 	0.97523	0.58491	0.78803	-0.204
Mof_C 	C 	0.9728	0.22874	0.5808	0.38
Mof_C 	C 	0.00764	0.29004	0.5484	-0.1
Mof_C 	C 	0.0491	0.33567	0.6	0.029
Mof_H 	H 	0.0577	0.327	0.6538	0.039
Mof_C 	C 	0.0779	0.39389	0.57255	-0.07
Mof_H 	H 	0.1046	0.4248	0.6074	0.074
Mof_C 	C 	0.06622	0.40519	0.49184	0.016
Mof_C 	C 	0.0264	0.35974	0.4389	-0.073
Mof_H 	H 	0.0195	0.3678	0.385	0.082
Mof_C 	C 	0.9972	0.30242	0.46754	0.026
Mof_H 	H 	0.9702	0.2718	0.4326	0.045
Mof_C 	C 	0.20097	0.46436	0.44631	0.009
Mof_C 	C 	0.262	0.47416	0.51039	-0.088
Mof_H 	H 	0.2501	0.4919	0.5571	0.075
Mof_C 	C 	0.3405	0.45713	0.5035	0.027
Mof_H 	H 	0.3821	0.4637	0.5456	0.031
Mof_C 	C 	0.3577	0.43007	0.43312	-0.109
Mof_C 	C 	0.2964	0.42287	0.3686	0.03
Mof_H 	H 	0.3086	0.4069	0.3211	0.034
Mof_C 	C 	0.217	0.43948	0.37513	-0.088
Mof_H 	H 	0.1755	0.4341	0.3327	0.083
Mof_C 	C 	0.4423	0.40756	0.4288	0.355
Mof_C 	C 	0.781	0.19585	0.68573	0.369
Mof_C 	C 	0.69705	0.21713	0.69728	-0.102
Mof_C 	C 	0.63801	0.22817	0.63092	0.021
Mof_H 	H 	0.6518	0.2237	0.5809	0.038
Mof_C 	C 	0.5597	0.24551	0.6387	-0.072
Mof_H 	H 	0.5211	0.2533	0.5944	0.079
Mof_C 	C 	0.53951	0.2511	0.71412	0.011
Mof_C 	C 	0.5975	0.24024	0.78078	-0.071
Mof_H 	H 	0.5834	0.2439	0.8308	0.067
Mof_C 	C 	0.6757	0.22401	0.77226	0.023
Mof_H 	H 	0.7146	0.2176	0.8167	0.04
Mof_C 	C 	0.45208	0.35503	0.76165	0.003
Mof_C 	C 	0.4691	0.40549	0.7116	-0.08
Mof_H 	H 	0.4638	0.3985	0.6576	0.075
Mof_C 	C 	0.494	0.46599	0.7437	0.02
Mof_H 	H 	0.5054	0.5002	0.7112	0.035
Mof_C 	C 	0.5019	0.47583	0.82498	-0.096
Mof_C 	C 	0.4775	0.427	0.8732	0.011
Mof_H 	H 	0.4775	0.4354	0.9264	0.048
Mof_C 	C 	0.4531	0.36598	0.8418	-0.077
Mof_H 	H 	0.4377	0.3328	0.8737	0.071
Mof_C 	C 	0.5471	0.5344	0.8632	0.343
Mof_C 	C 	0.0422	0.27198	0.88425	0.401
Mof_C 	C 	0.04398	0.3458	0.8781	-0.125
Mof_C 	C 	0.0752	0.38605	0.9411	0.043
Mof_H 	H 	0.0962	0.3673	0.9894	0.029
Mof_C 	C 	0.0752	0.45402	0.9324	-0.096
Mof_H 	H 	0.0961	0.4808	0.9746	0.075
Mof_C 	C 	0.0438	0.48169	0.8604	0.02
Mof_C 	C 	0.0126	0.44208	0.7962	-0.102
Mof_H 	H 	0.9921	0.4609	0.7478	0.095
Mof_C 	C 	0.0128	0.37474	0.80589	0.046
Mof_H 	H 	0.9917	0.348	0.7636	0.035
Mof_C 	C 	0.1332	0.58118	0.8044	0.021
Mof_C 	C 	0.2049	0.5982	0.8524	-0.082
Mof_H 	H 	0.2063	0.6033	0.9064	0.076
Mof_C 	C 	0.2741	0.6076	0.8194	0.035
Mof_H 	H 	0.3225	0.6185	0.8515	0.037
Mof_C 	C 	0.2723	0.60088	0.73814	-0.113
Mof_C 	C 	0.2	0.58416	0.69095	0.039
Mof_H 	H 	0.198	0.58	0.6368	0.044
Mof_C 	C 	0.1304	0.57354	0.7238	-0.083
Mof_H 	H 	0.0823	0.5614	0.6921	0.089
Mof_C 	C 	0.348	0.61381	0.703	0.392
Mof_Mn	Mn	0.53628	0.66207	0.74945	1.017
Mof_Mn	Mn	0.65001	0.61581	0.94488	0.794
Mof_Mn	Mn	0.4113	0.64299	0.55124	0.84
Mof_S 	S 	0.40031	0.98114	0.04224	0.272
Mof_S 	S 	0.06093	0.77349	0.77533	0.269
Mof_S 	S 	0.4557	0.06833	0.65342	0.261
Mof_O 	O 	0.4941	0.74136	0.67317	-0.398
Mof_O 	O 	0.51953	0.72481	0.84582	-0.376
Mof_O 	O 	0.92533	0.07756	0.67897	-0.417
Mof_O 	O 	0.08843	0.12787	0.75176	-0.378
Mof_O 	O 	0.66433	0.69189	0.75509	-0.363
Mof_O 	O 	0.0377	0.89355	0.13659	-0.401
Mof_O 	O 	0.71094	0.68334	0.88489	-0.392
Mof_O 	O 	0.56261	0.68789	0.96854	-0.371
Mof_O 	O 	0.93616	0.03553	0.56259	-0.355
Mof_O 	O 	0.16015	0.10984	0.8713	-0.408
Mof_O 	O 	0.42281	0.745	0.5532	-0.4
Mof_O 	O 	0.00828	0.90282	0.00767	-0.376
Mof_O 	O 	0.39838	0.02869	0.97979	-0.212
Mof_O 	O 	0.44559	0.99494	0.1191	-0.214
Mof_O 	O 	0.10942	0.77526	0.85235	-0.204
Mof_O 	O 	0.08594	0.73296	0.71455	-0.212
Mof_O 	O 	0.445	0.09935	0.57738	-0.208
Mof_O 	O 	0.52477	0.08491	0.71197	-0.205
Mof_C 	C 	0.5272	0.72874	0.9192	0.381
Mof_C 	C 	0.49236	0.79004	0.9516	-0.102
Mof_C 	C 	0.4509	0.83567	0.9	0.031
Mof_H 	H 	0.4423	0.827	0.8462	0.039
Mof_C 	C 	0.4221	0.89389	0.92745	-0.071
Mof_H 	H 	0.3954	0.9248	0.8926	0.074
Mof_C 	C 	0.43378	0.90519	0.00816	0.018
Mof_C 	C 	0.4736	0.85974	0.0611	-0.075
Mof_H 	H 	0.4805	0.8678	0.115	0.083
Mof_C 	C 	0.5028	0.80242	0.03246	0.029
Mof_H 	H 	0.5298	0.7718	0.0674	0.044
Mof_C 	C 	0.29903	0.96436	0.05369	0.01
Mof_C 	C 	0.238	0.97416	0.98961	-0.088
Mof_H 	H 	0.2499	0.9919	0.9429	0.075
Mof_C 	C 	0.1595	0.95713	0.9965	0.027
Mof_H 	H 	0.1179	0.9637	0.9544	0.03
Mof_C 	C 	0.1423	0.93007	0.06688	-0.108
Mof_C 	C 	0.2036	0.92287	0.1314	0.03
Mof_H 	H 	0.1914	0.9069	0.1789	0.034
Mof_C 	C 	0.283	0.93948	0.12487	-0.088
Mof_H 	H 	0.3245	0.9341	0.1673	0.083
Mof_C 	C 	0.0577	0.90756	0.0712	0.355
Mof_C 	C 	0.719	0.69585	0.81427	0.369
Mof_C 	C 	0.80295	0.71713	0.80272	-0.102
Mof_C 	C 	0.86199	0.72817	0.86908	0.021
Mof_H 	H 	0.8482	0.7237	0.9191	0.038
Mof_C 	C 	0.9403	0.74551	0.8613	-0.073
Mof_H 	H 	0.9789	0.7533	0.9056	0.08
Mof_C 	C 	0.96049	0.7511	0.78588	0.012
Mof_C 	C 	0.9025	0.74024	0.71922	-0.071
Mof_H 	H 	0.9166	0.7439	0.6692	0.067
Mof_C 	C 	0.8243	0.72401	0.72774	0.023
Mof_H 	H 	0.7854	0.7176	0.6833	0.04
Mof_C 	C 	0.04792	0.85503	0.73835	0.001
Mof_C 	C 	0.0309	0.90549	0.7884	-0.077
Mof_H 	H 	0.0362	0.8985	0.8424	0.073
Mof_C 	C 	0.006	0.96599	0.7563	0.014
Mof_H 	H 	0.9946	0.0002	0.7888	0.037
Mof_C 	C 	0.9981	0.97583	0.67502	-0.09
Mof_C 	C 	0.0225	0.927	0.6268	0.006
Mof_H 	H 	0.0225	0.9354	0.5736	0.049
Mof_C 	C 	0.0469	0.86598	0.6582	-0.074
Mof_H 	H 	0.0623	0.8328	0.6263	0.07
Mof_C 	C 	0.9529	0.0344	0.6368	0.34
Mof_C 	C 	0.4578	0.77198	0.61575	0.4
Mof_C 	C 	0.45602	0.8458	0.6219	-0.125
Mof_C 	C 	0.4248	0.88605	0.5589	0.043
Mof_H 	H 	0.4038	0.8673	0.5106	0.029
Mof_C 	C 	0.4248	0.95402	0.5676	-0.095
Mof_H 	H 	0.4039	0.9808	0.5254	0.075
Mof_C 	C 	0.4562	0.98169	0.6396	0.019
Mof_C 	C 	0.4874	0.94208	0.7038	-0.101
Mof_H 	H 	0.5079	0.9609	0.7522	0.095
Mof_C 	C 	0.4872	0.87474	0.69411	0.046
Mof_H 	H 	0.5083	0.848	0.7364	0.036
Mof_C 	C 	0.3668	0.08118	0.6956	0.021
Mof_C 	C 	0.2951	0.0982	0.6476	-0.082
Mof_H 	H 	0.2937	0.1033	0.5936	0.076
Mof_C 	C 	0.2259	0.1076	0.6806	0.035
Mof_H 	H 	0.1775	0.1185	0.6485	0.037
Mof_C 	C 	0.2277	0.10088	0.76186	-0.113
Mof_C 	C 	0.3	0.08416	0.80905	0.038
Mof_H 	H 	0.302	0.08	0.8632	0.044
Mof_C 	C 	0.3696	0.07354	0.7762	-0.082
Mof_H 	H 	0.4177	0.0614	0.8079	0.089
Mof_C 	C 	0.152	0.11381	0.797	0.392
_end
