data_functionalizedCrystal
_audit_creation_method	'EQeq! by Chris Wilmer'
_symmetry_space_group_name_H-M	'P1'
_symmetry_Int_Tables_number	1
_symmetry_cell_setting	triclinic
loop_
_symmetry_equiv_pos_as_xyz
  x,y,z
_cell_length_a	9.3137
_cell_length_b	10.4063
_cell_length_c	23.889
_cell_angle_alpha	91.603
_cell_angle_beta	90
_cell_angle_gamma	90
loop_
_atom_site_label
_atom_site_type_symbol
_atom_site_fract_x
_atom_site_fract_y
_atom_site_fract_z
_atom_site_charge
Mof_Co	Co	0.14072	-6.14007e-18	0.75	1.136
Mof_Co	Co	0.85928	0	0.25	1.136
Mof_Co	Co	0.5	0.5	0.5	1.118
Mof_Co	Co	0.5	0.5	-0	1.1
Mof_H 	H 	0.8694	0.8121	0.6279	-0.005
Mof_H 	H 	0.2921	0.4009	0.3012	0.061
Mof_H 	H 	0.1881	0.3086	0.2672	0.056
Mof_H 	H 	0.9248	0.6357	0.3823	0.149
Mof_H 	H 	0.5159	0.9085	0.5442	-0.031
Mof_H 	H 	0.7465	0.6492	0.4469	-0.03
Mof_H 	H 	0.7339	0.1771	0.6319	-0.018
Mof_H 	H 	0.5684	0.3424	0.1608	0.141
Mof_H 	H 	0.8189	0.2676	0.3553	0.149
Mof_H 	H 	0.4091	0.2181	0.3048	0.15
Mof_H 	H 	0.5393	0.1186	0.5764	0.127
Mof_H 	H 	0.6399	0.295	0.4191	-0.035
Mof_H 	H 	0.606	0.0904	0.3118	-0.061
Mof_H 	H 	0.764	0.2147	0.1739	-0.046
Mof_H 	H 	0.1236	0.5701	0.3307	0.06
Mof_H 	H 	0.9991	0.6099	0.2902	0.062
Mof_H 	H 	0.8694	0.1879	0.8721	0.093
Mof_H 	H 	0.2921	0.5991	0.1988	0.064
Mof_H 	H 	0.1881	0.6914	0.2328	0.062
Mof_H 	H 	0.9248	0.3643	0.1177	0.146
Mof_H 	H 	0.5159	0.0915	0.9558	0.089
Mof_H 	H 	0.7465	0.3508	0.0531	-0.047
Mof_H 	H 	0.7339	0.8229	0.8681	0.082
Mof_H 	H 	0.5684	0.6576	0.3392	0.144
Mof_H 	H 	0.8189	0.7324	0.1447	0.155
Mof_H 	H 	0.4091	0.7819	0.1952	0.154
Mof_H 	H 	0.5393	0.8814	0.9236	0.011
Mof_H 	H 	0.6399	0.705	0.0809	-0.032
Mof_H 	H 	0.606	0.9096	0.1882	-0.039
Mof_H 	H 	0.764	0.7853	0.3261	-0.036
Mof_H 	H 	0.1236	0.4299	0.1693	0.06
Mof_H 	H 	0.9991	0.3901	0.2098	0.062
Mof_H 	H 	0.1306	0.1879	0.3721	0.091
Mof_H 	H 	0.7079	0.5991	0.6988	0.065
Mof_H 	H 	0.8119	0.6914	0.7328	0.062
Mof_H 	H 	0.0752	0.3643	0.6177	0.147
Mof_H 	H 	0.4841	0.0915	0.4558	0.079
Mof_H 	H 	0.2535	0.3508	0.5531	-0.037
Mof_H 	H 	0.2661	0.8229	0.3681	0.08
Mof_H 	H 	0.4316	0.6576	0.8392	0.146
Mof_H 	H 	0.1811	0.7324	0.6447	0.155
Mof_H 	H 	0.5909	0.7819	0.6952	0.154
Mof_H 	H 	0.4607	0.8814	0.4236	0.005
Mof_H 	H 	0.3601	0.705	0.5809	-0.029
Mof_H 	H 	0.394	0.9096	0.6882	-0.039
Mof_H 	H 	0.236	0.7853	0.8261	-0.035
Mof_H 	H 	0.8764	0.4299	0.6693	0.061
Mof_H 	H 	0.0009	0.3901	0.7098	0.061
Mof_H 	H 	0.1306	0.8121	0.1279	-0.006
Mof_H 	H 	0.7079	0.4009	0.8012	0.062
Mof_H 	H 	0.8119	0.3086	0.7672	0.057
Mof_H 	H 	0.0752	0.6357	0.8823	0.152
Mof_H 	H 	0.4841	0.9085	0.0442	-0.04
Mof_H 	H 	0.2535	0.6492	0.9469	-0.018
Mof_H 	H 	0.2661	0.1771	0.1319	-0.02
Mof_H 	H 	0.4316	0.3424	0.6608	0.142
Mof_H 	H 	0.1811	0.2676	0.8553	0.15
Mof_H 	H 	0.5909	0.2181	0.8048	0.149
Mof_H 	H 	0.4607	0.1186	0.0764	0.122
Mof_H 	H 	0.3601	0.295	0.9191	-0.032
Mof_H 	H 	0.394	0.0904	0.8118	-0.06
Mof_H 	H 	0.236	0.2147	0.6739	-0.045
Mof_H 	H 	0.8764	0.5701	0.8307	0.061
Mof_H 	H 	0.0009	0.6099	0.7902	0.062
Mof_C 	C 	0.8038	0.8741	0.6172	0.201
Mof_C 	C 	0.2465	0.3855	0.26518	-0.003
Mof_C 	C 	0.8662	0.565	0.38829	-0.304
Mof_C 	C 	0.592	0.9313	0.56765	0.235
Mof_C 	C 	0.8223	0.0012	0.63519	-0.252
Mof_C 	C 	0.6885	0.8391	0.5834	-0.231
Mof_C 	C 	0.9463	0.039	0.67094	0.335
Mof_C 	C 	0.8861	0.451	0.35798	0.321
Mof_C 	C 	0.4649	0.2941	0.23152	0.325
Mof_C 	C 	0.7587	0.5716	0.42718	0.165
Mof_C 	C 	0.6692	0.6998	0.56585	0.396
Mof_C 	C 	0.7229	0.092	0.61973	0.175
Mof_C 	C 	0.5741	0.292	0.19224	-0.307
Mof_C 	C 	0.8033	0.3481	0.3721	-0.302
Mof_C 	C 	0.4793	0.2182	0.27711	-0.32
Mof_C 	C 	0.6068	0.0573	0.58626	-0.314
Mof_C 	C 	0.6974	0.3654	0.4112	0.168
Mof_C 	C 	0.5984	0.143	0.28113	0.175
Mof_C 	C 	0.691	0.2145	0.20041	0.18
Mof_C 	C 	0.0627	0.5403	0.30009	-0.008
Mof_C 	C 	0.8038	0.1259	0.8828	-0.111
Mof_C 	C 	0.2465	0.6145	0.23482	-0.006
Mof_C 	C 	0.8662	0.435	0.11171	-0.309
Mof_C 	C 	0.592	0.0687	0.93235	-0.148
Mof_C 	C 	0.8223	0.9988	0.86481	0.021
Mof_C 	C 	0.6885	0.1609	0.9166	-0
Mof_C 	C 	0.9463	0.961	0.82906	0.357
Mof_C 	C 	0.8861	0.549	0.14202	0.322
Mof_C 	C 	0.4649	0.7059	0.26848	0.325
Mof_C 	C 	0.7587	0.4284	0.07282	0.165
Mof_C 	C 	0.6692	0.3002	0.93415	0.31
Mof_C 	C 	0.7229	0.908	0.88027	-0.096
Mof_C 	C 	0.5741	0.708	0.30776	-0.302
Mof_C 	C 	0.8033	0.6519	0.1279	-0.303
Mof_C 	C 	0.4793	0.7818	0.22289	-0.311
Mof_C 	C 	0.6068	0.9427	0.91374	0.096
Mof_C 	C 	0.6974	0.6346	0.0888	0.167
Mof_C 	C 	0.5984	0.857	0.21887	0.181
Mof_C 	C 	0.691	0.7855	0.29959	0.187
Mof_C 	C 	0.0627	0.4597	0.19991	-0.007
Mof_C 	C 	0.1962	0.1259	0.3828	-0.111
Mof_C 	C 	0.7535	0.6145	0.73482	-0.007
Mof_C 	C 	0.1338	0.435	0.61171	-0.306
Mof_C 	C 	0.408	0.0687	0.43235	-0.149
Mof_C 	C 	0.1777	0.9988	0.36481	0.019
Mof_C 	C 	0.3115	0.1609	0.4166	-0.007
Mof_C 	C 	0.0537	0.961	0.32906	0.357
Mof_C 	C 	0.1139	0.549	0.64202	0.323
Mof_C 	C 	0.5351	0.7059	0.76848	0.325
Mof_C 	C 	0.2413	0.4284	0.57282	0.167
Mof_C 	C 	0.3308	0.3002	0.43415	0.312
Mof_C 	C 	0.2771	0.908	0.38027	-0.098
Mof_C 	C 	0.4259	0.708	0.80776	-0.302
Mof_C 	C 	0.1967	0.6519	0.6279	-0.301
Mof_C 	C 	0.5207	0.7818	0.72289	-0.311
Mof_C 	C 	0.3932	0.9427	0.41374	0.092
Mof_C 	C 	0.3026	0.6346	0.5888	0.169
Mof_C 	C 	0.4016	0.857	0.71887	0.18
Mof_C 	C 	0.309	0.7855	0.79959	0.187
Mof_C 	C 	0.9373	0.4597	0.69991	-0.008
Mof_C 	C 	0.1962	0.8741	0.1172	0.203
Mof_C 	C 	0.7535	0.3855	0.76518	-0.004
Mof_C 	C 	0.1338	0.565	0.88829	-0.3
Mof_C 	C 	0.408	0.9313	0.06765	0.237
Mof_C 	C 	0.1777	0.0012	0.13519	-0.255
Mof_C 	C 	0.3115	0.8391	0.0834	-0.239
Mof_C 	C 	0.0537	0.039	0.17094	0.334
Mof_C 	C 	0.1139	0.451	0.85798	0.321
Mof_C 	C 	0.5351	0.2941	0.73152	0.325
Mof_C 	C 	0.2413	0.5716	0.92718	0.167
Mof_C 	C 	0.3308	0.6998	0.06585	0.397
Mof_C 	C 	0.2771	0.092	0.11973	0.175
Mof_C 	C 	0.4259	0.292	0.69224	-0.306
Mof_C 	C 	0.1967	0.3481	0.8721	-0.299
Mof_C 	C 	0.5207	0.2182	0.77711	-0.32
Mof_C 	C 	0.3932	0.0573	0.08626	-0.321
Mof_C 	C 	0.3026	0.3654	0.9112	0.171
Mof_C 	C 	0.4016	0.143	0.78113	0.174
Mof_C 	C 	0.309	0.2145	0.70041	0.18
Mof_C 	C 	0.9373	0.5403	0.80009	-0.008
Mof_C 	C 	0.1542	0.5	0.25	0.043
Mof_C 	C 	0.8458	0.5	0.75	0.044
Mof_N 	N 	0.7059	0.14	0.24343	-0.299
Mof_N 	N 	0.6703	0.4758	0.43907	-0.278
Mof_N 	N 	0.7059	0.86	0.25657	-0.282
Mof_N 	N 	0.6703	0.5242	0.06093	-0.283
Mof_N 	N 	0.2941	0.86	0.75657	-0.282
Mof_N 	N 	0.3297	0.5242	0.56093	-0.278
Mof_N 	N 	0.2941	0.14	0.74343	-0.299
Mof_N 	N 	0.3297	0.4758	0.93907	-0.268
Mof_O 	O 	0.7358	0.6183	0.59217	-0.309
Mof_O 	O 	0.5808	0.6759	0.5271	-0.449
Mof_O 	O 	0.0367	0.9523	0.6821	-0.404
Mof_O 	O 	0.9582	0.1489	0.68996	-0.331
Mof_O 	O 	0.981	0.4321	0.31657	-0.252
Mof_O 	O 	0.3532	0.3703	0.22187	-0.255
Mof_O 	O 	0.7358	0.3817	0.90783	-0.28
Mof_O 	O 	0.5808	0.3241	0.9729	-0.412
Mof_O 	O 	0.0367	0.0477	0.8179	-0.477
Mof_O 	O 	0.9582	0.8511	0.81004	-0.322
Mof_O 	O 	0.981	0.5679	0.18343	-0.25
Mof_O 	O 	0.3532	0.6297	0.27813	-0.254
Mof_O 	O 	0.2642	0.3817	0.40783	-0.288
Mof_O 	O 	0.4192	0.3241	0.4729	-0.434
Mof_O 	O 	0.9633	0.0477	0.3179	-0.479
Mof_O 	O 	0.0418	0.8511	0.31004	-0.323
Mof_O 	O 	0.019	0.5679	0.68343	-0.25
Mof_O 	O 	0.6468	0.6297	0.77813	-0.253
Mof_O 	O 	0.2642	0.6183	0.09217	-0.315
Mof_O 	O 	0.4192	0.6759	0.0271	-0.464
Mof_O 	O 	0.9633	0.9523	0.1821	-0.405
Mof_O 	O 	0.0418	0.1489	0.18996	-0.332
Mof_O 	O 	0.019	0.4321	0.81657	-0.251
Mof_O 	O 	0.6468	0.3703	0.72187	-0.254
_end
