data_functionalizedCrystal
_audit_creation_method	'EQeq! by Chris Wilmer'
_symmetry_space_group_name_H-M	'P1'
_symmetry_Int_Tables_number	1
_symmetry_cell_setting	triclinic
loop_
_symmetry_equiv_pos_as_xyz
  x,y,z
_cell_length_a	7.3354
_cell_length_b	10.179
_cell_length_c	18.14
_cell_angle_alpha	90
_cell_angle_beta	90
_cell_angle_gamma	94.337
loop_
_atom_site_label
_atom_site_type_symbol
_atom_site_fract_x
_atom_site_fract_y
_atom_site_fract_z
_atom_site_charge
Mof_Cu	Cu	0.86543	0.21696	0.90551	0.917
Mof_Cu	Cu	0.04321	0.93155	0.9315	0.933
Mof_Cu	Cu	0.63457	0.28304	0.40551	0.918
Mof_Cu	Cu	0.45679	0.56845	0.4315	0.939
Mof_Cu	Cu	0.13457	0.78304	0.09449	0.918
Mof_Cu	Cu	0.95679	0.06845	0.0685	0.934
Mof_Cu	Cu	0.36543	0.71696	0.59449	0.918
Mof_Cu	Cu	0.54321	0.43155	0.5685	0.939
Mof_H 	H 	0.7824	0.1659	0.6923	0.049
Mof_H 	H 	0.9373	0.7962	0.7068	0.035
Mof_H 	H 	0.7806	0.9386	0.5111	0.029
Mof_H 	H 	0.7176	0.3341	0.1923	0.047
Mof_H 	H 	0.5627	0.7038	0.2068	0.033
Mof_H 	H 	0.7194	0.5614	0.0111	0.029
Mof_H 	H 	0.2176	0.8341	0.3077	0.049
Mof_H 	H 	0.0627	0.2038	0.2932	0.035
Mof_H 	H 	0.2194	0.0614	0.4889	0.029
Mof_H 	H 	0.2824	0.6659	0.8077	0.047
Mof_H 	H 	0.4373	0.2962	0.7932	0.033
Mof_H 	H 	0.2806	0.4386	0.9889	0.029
Mof_C 	C 	0.8615	0.8496	0.6041	-0.147
Mof_C 	C 	0.771	0.0691	0.595	-0.128
Mof_C 	C 	0.8036	0.0861	0.67	0.058
Mof_C 	C 	0.8679	0.9848	0.7124	-0.117
Mof_C 	C 	0.902	0.0091	0.7929	0.378
Mof_C 	C 	0.896	0.8651	0.6792	0.061
Mof_C 	C 	0.8009	0.9504	0.5613	0.065
Mof_C 	C 	0.6987	0.1821	0.5534	0.39
Mof_C 	C 	0.6385	0.6504	0.1041	-0.149
Mof_C 	C 	0.729	0.4309	0.095	-0.126
Mof_C 	C 	0.6964	0.4139	0.17	0.065
Mof_C 	C 	0.6321	0.5152	0.2124	-0.127
Mof_C 	C 	0.598	0.4909	0.2929	0.388
Mof_C 	C 	0.604	0.6349	0.1792	0.065
Mof_C 	C 	0.6991	0.5496	0.0613	0.062
Mof_C 	C 	0.8013	0.3179	0.0534	0.386
Mof_C 	C 	0.1385	0.1504	0.3959	-0.147
Mof_C 	C 	0.229	0.9309	0.405	-0.128
Mof_C 	C 	0.1964	0.9139	0.33	0.058
Mof_C 	C 	0.1321	0.0152	0.2876	-0.117
Mof_C 	C 	0.098	0.9909	0.2071	0.378
Mof_C 	C 	0.104	0.1349	0.3208	0.061
Mof_C 	C 	0.1991	0.0496	0.4387	0.065
Mof_C 	C 	0.3013	0.8179	0.4466	0.39
Mof_C 	C 	0.3615	0.3496	0.8959	-0.149
Mof_C 	C 	0.271	0.5691	0.905	-0.126
Mof_C 	C 	0.3036	0.5861	0.83	0.065
Mof_C 	C 	0.3679	0.4848	0.7876	-0.127
Mof_C 	C 	0.402	0.5091	0.7071	0.388
Mof_C 	C 	0.396	0.3651	0.8208	0.065
Mof_C 	C 	0.3009	0.4504	0.9387	0.062
Mof_C 	C 	0.1987	0.6821	0.9466	0.386
Mof_S 	S 	0.8794	0.69095	0.56537	0.543
Mof_S 	S 	0.6206	0.80905	0.06537	0.541
Mof_S 	S 	0.1206	0.30905	0.43463	0.543
Mof_S 	S 	0.3794	0.19095	0.93463	0.541
Mof_O 	O 	0.9474	0.9144	0.83196	-0.376
Mof_O 	O 	0.8706	0.0574	0.96521	-0.486
Mof_O 	O 	0.6588	0.1633	0.48647	-0.43
Mof_O 	O 	0.8812	0.1252	0.81393	-0.412
Mof_O 	O 	0.8703	0.7019	0.4872	-0.282
Mof_O 	O 	0.6856	0.2859	0.5896	-0.392
Mof_O 	O 	0.7263	0.6121	0.5973	-0.375
Mof_O 	O 	0.0492	0.6451	0.5927	-0.314
Mof_O 	O 	0.5526	0.5856	0.33196	-0.383
Mof_O 	O 	0.6294	0.4426	0.46521	-0.487
Mof_O 	O 	0.8412	0.3367	0.98647	-0.426
Mof_O 	O 	0.6188	0.3748	0.31393	-0.415
Mof_O 	O 	0.6297	0.7981	0.9872	-0.282
Mof_O 	O 	0.8144	0.2141	0.0896	-0.394
Mof_O 	O 	0.7737	0.8879	0.0973	-0.373
Mof_O 	O 	0.4508	0.8549	0.0927	-0.311
Mof_O 	O 	0.0526	0.0856	0.16804	-0.376
Mof_O 	O 	0.1294	0.9426	0.03479	-0.486
Mof_O 	O 	0.3412	0.8367	0.51353	-0.43
Mof_O 	O 	0.1188	0.8748	0.18607	-0.412
Mof_O 	O 	0.1297	0.2981	0.5128	-0.282
Mof_O 	O 	0.3144	0.7141	0.4104	-0.392
Mof_O 	O 	0.2737	0.3879	0.4027	-0.375
Mof_O 	O 	0.9508	0.3549	0.4073	-0.314
Mof_O 	O 	0.4474	0.4144	0.66804	-0.383
Mof_O 	O 	0.3706	0.5574	0.53479	-0.487
Mof_O 	O 	0.1588	0.6633	0.01353	-0.426
Mof_O 	O 	0.3812	0.6252	0.68607	-0.415
Mof_O 	O 	0.3703	0.2019	0.0128	-0.282
Mof_O 	O 	0.1856	0.7859	0.9104	-0.394
Mof_O 	O 	0.2263	0.1121	0.9027	-0.373
Mof_O 	O 	0.5492	0.1451	0.9073	-0.311
_end
