data_functionalizedCrystal
_audit_creation_method	'EQeq! by Chris Wilmer'
_symmetry_space_group_name_H-M	'P1'
_symmetry_Int_Tables_number	1
_symmetry_cell_setting	triclinic
loop_
_symmetry_equiv_pos_as_xyz
  x,y,z
_cell_length_a	16.1093
_cell_length_b	14.5197
_cell_length_c	15.1862
_cell_angle_alpha	89.9953
_cell_angle_beta	89.9994
_cell_angle_gamma	83.5708
loop_
_atom_site_label
_atom_site_type_symbol
_atom_site_fract_x
_atom_site_fract_y
_atom_site_fract_z
_atom_site_charge
Mof_O 	O 	0.10334	0.11854	0.92683	-0.388
Mof_O 	O 	0.8613	0.13329	0.92681	-0.415
Mof_O 	O 	0.98874	0.99166	0.92683	-0.399
Mof_O 	O 	0.9759	0.26017	0.92681	-0.418
Mof_O 	O 	0.98873	0.99166	0.07328	-0.455
Mof_O 	O 	0.86129	0.13329	0.07327	-0.472
Mof_O 	O 	0.10333	0.11854	0.07328	-0.443
Mof_Zn	Zn	0.98231	0.12591	0.09653	1.218
Mof_Zn	Zn	0.98232	0.12592	0.90356	1.226
Mof_O 	O 	0.97589	0.26017	0.07327	-0.475
Mof_C 	C 	0.83032	0.13269	4e-05	0.358
Mof_C 	C 	0.73802	0.1309	3e-05	-0.106
Mof_C 	C 	0.98813	0.9573	6e-05	0.358
Mof_C 	C 	0.98634	0.85493	6e-05	-0.104
Mof_C 	C 	0.51589	0.21077	4e-05	-0.033
Mof_C 	C 	0.42916	0.20908	4e-05	-0.033
Mof_C 	C 	0.44875	0.04105	5e-05	-0.054
Mof_C 	C 	0.53547	0.04274	5e-05	-0.055
Mof_C 	C 	0.56904	0.12761	4e-05	-0
Mof_C 	C 	0.39559	0.12422	5e-05	0.002
Mof_C 	C 	0.30156	0.12239	5e-05	0.038
Mof_C 	C 	0.66307	0.12944	4e-05	0.036
Mof_C 	C 	0.97974	0.48005	3e-05	0.049
Mof_C 	C 	0.98157	0.58435	4e-05	-0.024
Mof_C 	C 	0.98304	0.66748	4e-05	-0.022
Mof_C 	C 	0.98487	0.77179	5e-05	0.049
Mof_C 	C 	0.13431	0.11914	5e-05	0.355
Mof_C 	C 	0.22661	0.12093	5e-05	-0.094
Mof_C 	C 	0.97649	0.29453	4e-05	0.36
Mof_C 	C 	0.97829	0.3969	3e-05	-0.112
Mof_N 	N 	0.98231	0.12591	0.22822	-0.264
Mof_N 	N 	0.98233	0.12591	0.77187	-0.243
Mof_C 	C 	0.03875	0.06322	0.45395	0.235
Mof_C 	C 	0.03876	0.06322	0.54614	-0.087
Mof_C 	C 	0.92587	0.18861	0.54614	-0.122
Mof_C 	C 	0.92587	0.1886	0.45395	0.199
Mof_C 	C 	0.98231	0.12591	0.40786	-0.199
Mof_C 	C 	0.98232	0.12591	0.59224	0.005
Mof_C 	C 	0.98232	0.12591	0.69219	0.08
Mof_C 	C 	0.98231	0.12591	0.3079	0.162
Mof_H 	H 	0.54321	0.27988	4e-05	0.039
Mof_H 	H 	0.38589	0.27681	4e-05	0.042
Mof_O 	O 	0.09361	0.00223	0.40932	-0.245
Mof_C 	C 	0.2056	0.87789	0.41905	-0.173
Mof_C 	C 	0.14351	0.9469	0.46971	0.106
Mof_H 	H 	0.24598	0.83316	0.46786	0.079
Mof_H 	H 	0.16968	0.83174	0.37593	0.093
Mof_H 	H 	0.24715	0.91774	0.37586	0.091
Mof_H 	H 	0.10194	0.90714	0.51295	0.032
Mof_H 	H 	0.17949	0.99305	0.51278	0.031
Mof_H 	H 	0.42141	0.97195	6e-05	0.062
Mof_H 	H 	0.57875	0.97501	5e-05	0.061
Mof_H 	H 	0.08472	0.01217	0.58367	0.058
Mof_H 	H 	0.87992	0.23965	0.58367	0.063
Mof_O 	O 	0.87101	0.2496	0.4093	-0.234
Mof_C 	C 	0.75901	0.37393	0.41902	-0.168
Mof_C 	C 	0.8211	0.30493	0.46969	0.084
Mof_H 	H 	0.71863	0.41867	0.46782	0.071
Mof_H 	H 	0.79492	0.42007	0.37587	0.078
Mof_H 	H 	0.71745	0.33407	0.37585	0.078
Mof_H 	H 	0.86267	0.3447	0.51291	0.019
Mof_H 	H 	0.78514	0.25878	0.51278	0.02
_end
