data_functionalizedCrystal
_audit_creation_method	'EQeq! by Chris Wilmer'
_symmetry_space_group_name_H-M	'P1'
_symmetry_Int_Tables_number	1
_symmetry_cell_setting	triclinic
loop_
_symmetry_equiv_pos_as_xyz
  x,y,z
_cell_length_a	33.391
_cell_length_b	14.3975
_cell_length_c	33.897
_cell_angle_alpha	90
_cell_angle_beta	105.273
_cell_angle_gamma	90
loop_
_atom_site_label
_atom_site_type_symbol
_atom_site_fract_x
_atom_site_fract_y
_atom_site_fract_z
_atom_site_charge
Mof_C 	C 	0.8675	0.0357	0.111	0.054
Mof_H 	H 	0.8807	0.0693	0.135	0.01
Mof_C 	C 	0.8479	0.0841	0.0751	-0.104
Mof_H 	H 	0.8501	0.1499	0.0742	0.099
Mof_C 	C 	0.8257	0.0367	0.0413	0.053
Mof_C 	C 	0.8255	0.9382	0.0433	-0.115
Mof_H 	H 	0.8109	0.9021	0.0206	0.086
Mof_C 	C 	0.847	0.897	0.079	0.059
Mof_H 	H 	0.847	0.8311	0.0804	0.039
Mof_C 	C 	0.772	0.4663	0.936	0.082
Mof_H 	H 	0.7544	0.501	0.9145	0.002
Mof_C 	C 	0.7669	0.3726	0.9355	-0.126
Mof_H 	H 	0.7472	0.3434	0.9135	0.091
Mof_C 	C 	0.7908	0.3204	0.9674	0.065
Mof_C 	C 	0.819	0.3682	0.9974	-0.122
Mof_H 	H 	0.8364	0.3353	0.0197	0.087
Mof_C 	C 	0.8221	0.4638	0.9954	0.075
Mof_H 	H 	0.841	0.4953	0.0171	0.011
Mof_C 	C 	0.6805	0.9028	0.8861	0.053
Mof_H 	H 	0.6773	0.8374	0.8868	0.034
Mof_C 	C 	0.7115	0.9454	0.9164	-0.104
Mof_H 	H 	0.7285	0.9097	0.9379	0.096
Mof_C 	C 	0.7174	0.0434	0.9146	0.059
Mof_C 	C 	0.6906	0.0919	0.8824	-0.1
Mof_H 	H 	0.6931	0.1573	0.8802	0.115
Mof_C 	C 	0.6609	0.0444	0.8543	0.088
Mof_H 	H 	0.6434	0.0789	0.8325	0.044
Mof_C 	C 	0.8016	0.0867	0.0045	0.1
Mof_C 	C 	0.7853	0.2191	0.9703	0.098
Mof_C 	C 	0.7506	0.0883	0.9459	0.101
Mof_C 	C 	0.8279	0.721	0.8898	0.087
Mof_H 	H 	0.8017	0.7509	0.8855	0.004
Mof_C 	C 	0.8498	0.7343	0.862	-0.145
Mof_H 	H 	0.8389	0.7719	0.8386	0.092
Mof_C 	C 	0.8879	0.6932	0.8678	0.078
Mof_C 	C 	0.9	0.6334	0.9008	-0.172
Mof_H 	H 	0.9247	0.5977	0.9051	0.087
Mof_C 	C 	0.8753	0.628	0.9264	0.125
Mof_H 	H 	0.8846	0.5897	0.9499	-0.031
Mof_C 	C 	0.935	0.9851	0.7144	0.045
Mof_H 	H 	0.955	0.0116	0.7022	-0.029
Mof_C 	C 	0.9465	0.9079	0.7419	-0.122
Mof_H 	H 	0.9735	0.8817	0.7477	0.088
Mof_C 	C 	0.9171	0.8738	0.7593	0.043
Mof_C 	C 	0.8784	0.9119	0.7508	-0.118
Mof_H 	H 	0.8582	0.8883	0.7634	0.08
Mof_C 	C 	0.869	0.9842	0.7241	0.064
Mof_H 	H 	0.842	0.0106	0.718	0.013
Mof_C 	C 	0.0331	0.4525	0.8279	0.088
Mof_H 	H 	0.0368	0.3973	0.8438	-0.003
Mof_C 	C 	0.0002	0.51	0.8292	-0.131
Mof_H 	H 	0.9805	0.4933	0.8437	0.088
Mof_C 	C 	0.9978	0.5938	0.8081	0.095
Mof_C 	C 	0.0248	0.6135	0.7844	-0.094
Mof_H 	H 	0.0228	0.6699	0.7694	0.142
Mof_C 	C 	0.0553	0.5463	0.7835	0.092
Mof_H 	H 	0.0731	0.5565	0.7662	0.022
Mof_C 	C 	0.9134	0.708	0.8388	0.055
Mof_C 	C 	0.9268	0.7896	0.7878	0.031
Mof_C 	C 	0.9642	0.6607	0.8104	0.075
Mof_C 	C 	0.841	0.0993	0.5753	0.053
Mof_H 	H 	0.8413	0.1652	0.576	0.036
Mof_C 	C 	0.8211	0.0559	0.54	-0.092
Mof_H 	H 	0.8075	0.0914	0.5167	0.104
Mof_C 	C 	0.8206	0.9588	0.5381	0.039
Mof_C 	C 	0.841	0.9085	0.5735	-0.094
Mof_H 	H 	0.8412	0.8425	0.5736	0.099
Mof_C 	C 	0.8606	0.9582	0.6079	0.047
Mof_H 	H 	0.8748	0.9246	0.6316	0.013
Mof_C 	C 	0.6581	0.9542	0.3498	0.079
Mof_H 	H 	0.6398	0.9212	0.3282	0.04
Mof_C 	C 	0.688	0.9042	0.3797	-0.105
Mof_H 	H 	0.6899	0.8385	0.3786	0.129
Mof_C 	C 	0.7142	0.9548	0.4105	0.068
Mof_C 	C 	0.7104	0.0489	0.4117	-0.121
Mof_H 	H 	0.7283	0.0839	0.433	0.117
Mof_C 	C 	0.6801	0.0931	0.3816	0.081
Mof_H 	H 	0.6773	0.1586	0.3825	0.019
Mof_C 	C 	0.8162	0.5268	0.4924	0.048
Mof_H 	H 	0.8326	0.4925	0.5147	-0.006
Mof_C 	C 	0.8131	0.6254	0.4952	-0.103
Mof_H 	H 	0.8283	0.6578	0.5188	0.09
Mof_C 	C 	0.7881	0.6716	0.4633	0.07
Mof_C 	C 	0.7658	0.6229	0.4279	-0.128
Mof_H 	H 	0.7475	0.6545	0.4058	0.105
Mof_C 	C 	0.7716	0.5283	0.4268	0.094
Mof_H 	H 	0.7578	0.4948	0.4029	-0.013
Mof_C 	C 	0.7971	0.9079	0.5015	0.114
Mof_C 	C 	0.7464	0.9034	0.4419	0.114
Mof_C 	C 	0.7812	0.7744	0.4663	0.125
Mof_C 	C 	0.5353	0.0534	0.3272	0.092
Mof_H 	H 	0.5388	0.1087	0.343	0.002
Mof_C 	C 	0.5053	0.9904	0.3301	-0.128
Mof_H 	H 	0.4893	0.001	0.349	0.098
Mof_C 	C 	0.4981	0.9116	0.3058	0.073
Mof_C 	C 	0.5221	0.8977	0.279	-0.087
Mof_H 	H 	0.5183	0.8441	0.2621	0.094
Mof_C 	C 	0.5523	0.9646	0.2772	0.062
Mof_H 	H 	0.568	0.9577	0.2577	0.021
Mof_C 	C 	0.3781	0.8661	0.4281	0.075
Mof_H 	H 	0.3882	0.899	0.4531	-0.033
Mof_C 	C 	0.4027	0.8616	0.3988	-0.114
Mof_H 	H 	0.4266	0.8997	0.4021	0.086
Mof_C 	C 	0.3912	0.8023	0.3665	0.068
Mof_C 	C 	0.3548	0.7546	0.3613	-0.115
Mof_H 	H 	0.3464	0.7116	0.3394	0.09
Mof_C 	C 	0.3304	0.769	0.3876	0.073
Mof_H 	H 	0.3044	0.7384	0.3826	0.001
Mof_C 	C 	0.4478	0.5237	0.2156	0.085
Mof_H 	H 	0.469	0.5019	0.2039	-0.035
Mof_C 	C 	0.4561	0.598	0.2412	-0.118
Mof_H 	H 	0.4823	0.6281	0.2469	0.087
Mof_C 	C 	0.4253	0.6293	0.2588	0.064
Mof_C 	C 	0.3872	0.5817	0.2495	-0.12
Mof_H 	H 	0.366	0.6001	0.2617	0.09
Mof_C 	C 	0.381	0.509	0.2229	0.092
Mof_H 	H 	0.3548	0.4789	0.2162	-0.003
Mof_C 	C 	0.4664	0.8417	0.309	0.134
Mof_C 	C 	0.4174	0.7912	0.3375	0.128
Mof_C 	C 	0.433	0.708	0.287	0.117
Mof_N 	N 	0.8678	0.9435	0.1117	-0.287
Mof_N 	N 	0.7997	0.5131	0.9644	-0.252
Mof_N 	N 	0.6546	0.9526	0.8552	-0.248
Mof_N 	N 	0.8095	0.1753	0.0019	-0.134
Mof_N 	N 	0.7543	0.1807	0.9403	-0.13
Mof_N 	N 	0.7713	0.0388	0.9776	-0.14
Mof_N 	N 	0.8409	0.669	0.9222	-0.276
Mof_N 	N 	0.8974	0.0194	0.7058	-0.299
Mof_N 	N 	0.0601	0.469	0.8059	-0.236
Mof_N 	N 	0.904	0.7811	0.8132	-0.153
Mof_N 	N 	0.958	0.7335	0.7837	-0.144
Mof_N 	N 	0.9451	0.649	0.8393	-0.147
Mof_N 	N 	0.8607	0.0519	0.6101	-0.314
Mof_N 	N 	0.6551	0.0453	0.3514	-0.248
Mof_N 	N 	0.7957	0.4827	0.458	-0.283
Mof_N 	N 	0.7688	0.954	0.4744	-0.139
Mof_N 	N 	0.7525	0.8147	0.4373	-0.126
Mof_N 	N 	0.8058	0.8165	0.4991	-0.127
Mof_N 	N 	0.5594	0.038	0.3026	-0.252
Mof_N 	N 	0.3424	0.8251	0.4203	-0.3
Mof_N 	N 	0.4101	0.4787	0.2059	-0.251
Mof_N 	N 	0.4455	0.8552	0.337	-0.129
Mof_N 	N 	0.409	0.715	0.3132	-0.128
Mof_N 	N 	0.4611	0.7704	0.2831	-0.132
Mof_Zn	Zn	0.8971	0.8722	0.16446	0.824
Mof_Cl	Cl	0.958	0.8256	0.1565	-5.325
Mof_Cl	Cl	0.8509	0.7813	0.1817	-0.051
Mof_Zn	Zn	0.80635	0.6544	0.9636	0.604
Mof_Cl	Cl	0.8422	0.6906	0.0259	-0.423
Mof_Cl	Cl	0.74493	0.7168	0.9344	-0.455
Mof_Zn	Zn	0.6105	0.8853	0.81074	0.435
Mof_Cl	Cl	0.5983	0.7515	0.8378	-0.313
Mof_Cl	Cl	0.6303	0.9042	0.7534	-0.559
Mof_Zn	Zn	0.87825	0.12526	0.66383	1.039
Mof_Cl	Cl	0.9329	0.2114	0.66541	-0.745
Mof_Cl	Cl	0.81759	0.1793	0.67169	-0.248
Mof_Zn	Zn	0.61174	0.11583	0.30558	1.211
Mof_Cl	Cl	0.62944	0.084	0.24841	-0.511
Mof_Cl	Cl	0.60357	0.2516	0.33363	-0.541
Mof_Zn	Zn	0.30041	0.8405	0.45439	0.814
Mof_Cl	Cl	0.2405	0.7831	0.4177	0.026
Mof_Cl	Cl	0.3291	0.7981	0.5176	-0.953
Mof_Zn	Zn	0.9136	0.8703	0.1556	1.15
Mof_Cl	Cl	0.977	0.838	0.15	4.52
Mof_Cl	Cl	0.872	0.763	0.171	-0.486
Mof_Zn	Zn	0.8001	0.658	0.958	0.567
Mof_Cl	Cl	0.826	0.701	0.022	-0.086
Mof_Cl	Cl	0.746	0.703	0.907	-0.134
Mof_Zn	Zn	0.617	0.876	0.8069	0.784
Mof_Cl	Cl	0.609	0.753	0.838	-0.203
Mof_Cl	Cl	0.635	0.875	0.762	-0.001
Mof_Zn	Zn	0.9082	0.1213	0.6588	1.043
Mof_Cl	Cl	0.9672	0.151	0.6428	-0.289
Mof_Cl	Cl	0.8634	0.22	0.6778	-0.69
Mof_Zn	Zn	0.3162	0.8377	0.4706	0.844
Mof_Cl	Cl	0.356	0.8131	0.5322	0.253
Mof_Cl	Cl	0.2572	0.7666	0.4451	-0.708
Mof_C 	C 	0.3675	0.5357	0.111	0.043
Mof_H 	H 	0.3807	0.5693	0.135	0.011
Mof_C 	C 	0.3479	0.5841	0.0751	-0.098
Mof_H 	H 	0.3501	0.6499	0.0742	0.096
Mof_C 	C 	0.3257	0.5367	0.0413	0.041
Mof_C 	C 	0.3255	0.4382	0.0433	-0.105
Mof_H 	H 	0.3109	0.4021	0.0206	0.082
Mof_C 	C 	0.347	0.397	0.079	0.054
Mof_H 	H 	0.347	0.3311	0.0804	0.041
Mof_C 	C 	0.272	0.9663	0.936	0.062
Mof_H 	H 	0.2544	0.001	0.9145	0.012
Mof_C 	C 	0.2669	0.8726	0.9355	-0.115
Mof_H 	H 	0.2472	0.8434	0.9135	0.086
Mof_C 	C 	0.2908	0.8204	0.9674	0.058
Mof_C 	C 	0.319	0.8682	0.9974	-0.115
Mof_H 	H 	0.3364	0.8353	0.0197	0.084
Mof_C 	C 	0.3221	0.9638	0.9954	0.065
Mof_H 	H 	0.341	0.9953	0.0171	0.012
Mof_C 	C 	0.1805	0.4028	0.8861	0.049
Mof_H 	H 	0.1773	0.3374	0.8868	0.035
Mof_C 	C 	0.2115	0.4454	0.9164	-0.093
Mof_H 	H 	0.2285	0.4097	0.9379	0.094
Mof_C 	C 	0.2174	0.5434	0.9146	0.049
Mof_C 	C 	0.1906	0.5919	0.8824	-0.093
Mof_H 	H 	0.1931	0.6573	0.8802	0.112
Mof_C 	C 	0.1609	0.5444	0.8543	0.078
Mof_H 	H 	0.1434	0.5789	0.8325	0.046
Mof_C 	C 	0.3016	0.5867	0.0045	0.102
Mof_C 	C 	0.2853	0.7191	0.9703	0.1
Mof_C 	C 	0.2506	0.5883	0.9459	0.102
Mof_C 	C 	0.3279	0.221	0.8898	0.088
Mof_H 	H 	0.3017	0.2509	0.8855	0.004
Mof_C 	C 	0.3498	0.2343	0.862	-0.145
Mof_H 	H 	0.3389	0.2719	0.8386	0.093
Mof_C 	C 	0.3879	0.1932	0.8678	0.078
Mof_C 	C 	0.4	0.1334	0.9008	-0.172
Mof_H 	H 	0.4247	0.0977	0.9051	0.087
Mof_C 	C 	0.3753	0.128	0.9264	0.125
Mof_H 	H 	0.3846	0.0897	0.9499	-0.03
Mof_C 	C 	0.435	0.4851	0.7144	0.064
Mof_H 	H 	0.455	0.5116	0.7022	-0.038
Mof_C 	C 	0.4465	0.4079	0.7419	-0.134
Mof_H 	H 	0.4735	0.3817	0.7477	0.093
Mof_C 	C 	0.4171	0.3738	0.7593	0.052
Mof_C 	C 	0.3784	0.4119	0.7508	-0.132
Mof_H 	H 	0.3582	0.3883	0.7634	0.085
Mof_C 	C 	0.369	0.4842	0.7241	0.084
Mof_H 	H 	0.342	0.5106	0.718	0.003
Mof_C 	C 	0.5331	0.9525	0.8279	0.073
Mof_H 	H 	0.5368	0.8973	0.8438	0.001
Mof_C 	C 	0.5002	0.01	0.8292	-0.109
Mof_H 	H 	0.4805	0.9933	0.8437	0.077
Mof_C 	C 	0.4978	0.0938	0.8081	0.087
Mof_C 	C 	0.5248	0.1135	0.7844	-0.091
Mof_H 	H 	0.5228	0.1699	0.7694	0.141
Mof_C 	C 	0.5553	0.0463	0.7835	0.095
Mof_H 	H 	0.5731	0.0565	0.7662	0.022
Mof_C 	C 	0.4134	0.208	0.8388	0.056
Mof_C 	C 	0.4268	0.2896	0.7878	0.029
Mof_C 	C 	0.4642	0.1607	0.8104	0.078
Mof_C 	C 	0.341	0.5993	0.5753	0.057
Mof_H 	H 	0.3413	0.6652	0.576	0.034
Mof_C 	C 	0.3211	0.5559	0.54	-0.102
Mof_H 	H 	0.3075	0.5914	0.5167	0.107
Mof_C 	C 	0.3206	0.4588	0.5381	0.049
Mof_C 	C 	0.341	0.4085	0.5735	-0.1
Mof_H 	H 	0.3412	0.3425	0.5736	0.102
Mof_C 	C 	0.3606	0.4582	0.6079	0.056
Mof_H 	H 	0.3748	0.4246	0.6316	0.011
Mof_C 	C 	0.1581	0.4542	0.3498	0.088
Mof_H 	H 	0.1398	0.4212	0.3282	0.038
Mof_C 	C 	0.188	0.4042	0.3797	-0.112
Mof_H 	H 	0.1899	0.3385	0.3786	0.132
Mof_C 	C 	0.2142	0.4548	0.4105	0.078
Mof_C 	C 	0.2104	0.5489	0.4117	-0.132
Mof_H 	H 	0.2283	0.5839	0.433	0.12
Mof_C 	C 	0.1801	0.5931	0.3816	0.085
Mof_H 	H 	0.1773	0.6586	0.3825	0.017
Mof_C 	C 	0.3162	0.0268	0.4924	0.066
Mof_H 	H 	0.3326	0.9925	0.5147	-0.015
Mof_C 	C 	0.3131	0.1254	0.4952	-0.114
Mof_H 	H 	0.3283	0.1578	0.5188	0.094
Mof_C 	C 	0.2881	0.1716	0.4633	0.078
Mof_C 	C 	0.2658	0.1229	0.4279	-0.139
Mof_H 	H 	0.2475	0.1545	0.4058	0.11
Mof_C 	C 	0.2716	0.0283	0.4268	0.113
Mof_H 	H 	0.2578	0.9948	0.4029	-0.023
Mof_C 	C 	0.2971	0.4079	0.5015	0.112
Mof_C 	C 	0.2464	0.4034	0.4419	0.112
Mof_C 	C 	0.2812	0.2744	0.4663	0.123
Mof_C 	C 	0.0353	0.5534	0.3272	0.076
Mof_H 	H 	0.0388	0.6087	0.343	0.007
Mof_C 	C 	0.0053	0.4904	0.3301	-0.106
Mof_H 	H 	0.9893	0.501	0.349	0.087
Mof_C 	C 	0.9981	0.4116	0.3058	0.065
Mof_C 	C 	0.0221	0.3977	0.279	-0.083
Mof_H 	H 	0.0183	0.3441	0.2621	0.093
Mof_C 	C 	0.0523	0.4646	0.2772	0.064
Mof_H 	H 	0.068	0.4577	0.2577	0.022
Mof_C 	C 	0.8781	0.3661	0.4281	0.076
Mof_H 	H 	0.8882	0.399	0.4531	-0.032
Mof_C 	C 	0.9027	0.3616	0.3988	-0.114
Mof_H 	H 	0.9266	0.3997	0.4021	0.087
Mof_C 	C 	0.8912	0.3023	0.3665	0.069
Mof_C 	C 	0.8548	0.2546	0.3613	-0.115
Mof_H 	H 	0.8464	0.2116	0.3394	0.091
Mof_C 	C 	0.8304	0.269	0.3876	0.074
Mof_H 	H 	0.8044	0.2384	0.3826	0.002
Mof_C 	C 	0.9478	0.0237	0.2156	0.094
Mof_H 	H 	0.969	0.0019	0.2039	-0.035
Mof_C 	C 	0.9561	0.098	0.2412	-0.124
Mof_H 	H 	0.9823	0.1281	0.2469	0.09
Mof_C 	C 	0.9253	0.1293	0.2588	0.07
Mof_C 	C 	0.8872	0.0817	0.2495	-0.131
Mof_H 	H 	0.866	0.1001	0.2617	0.095
Mof_C 	C 	0.881	0.009	0.2229	0.111
Mof_H 	H 	0.8548	0.9789	0.2162	-0.013
Mof_C 	C 	0.9664	0.3417	0.309	0.137
Mof_C 	C 	0.9174	0.2912	0.3375	0.128
Mof_C 	C 	0.933	0.208	0.287	0.115
Mof_N 	N 	0.3678	0.4435	0.1117	-0.282
Mof_N 	N 	0.2997	0.0131	0.9644	-0.243
Mof_N 	N 	0.1546	0.4526	0.8552	-0.243
Mof_N 	N 	0.3095	0.6753	0.0019	-0.135
Mof_N 	N 	0.2543	0.6807	0.9403	-0.13
Mof_N 	N 	0.2713	0.5388	0.9776	-0.143
Mof_N 	N 	0.3409	0.169	0.9222	-0.276
Mof_N 	N 	0.3974	0.5194	0.7058	-0.31
Mof_N 	N 	0.5601	0.969	0.8059	-0.236
Mof_N 	N 	0.404	0.2811	0.8132	-0.152
Mof_N 	N 	0.458	0.2335	0.7837	-0.144
Mof_N 	N 	0.4451	0.149	0.8393	-0.147
Mof_N 	N 	0.3607	0.5519	0.6101	-0.318
Mof_N 	N 	0.1551	0.5453	0.3514	-0.252
Mof_N 	N 	0.2957	0.9827	0.458	-0.293
Mof_N 	N 	0.2688	0.454	0.4744	-0.137
Mof_N 	N 	0.2525	0.3147	0.4373	-0.125
Mof_N 	N 	0.3058	0.3165	0.4991	-0.126
Mof_N 	N 	0.0594	0.538	0.3026	-0.252
Mof_N 	N 	0.8424	0.3251	0.4203	-0.3
Mof_N 	N 	0.9101	0.9787	0.2059	-0.26
Mof_N 	N 	0.9455	0.3552	0.337	-0.129
Mof_N 	N 	0.909	0.215	0.3132	-0.127
Mof_N 	N 	0.9611	0.2704	0.2831	-0.132
Mof_Zn	Zn	0.3971	0.3722	0.16446	0.824
Mof_Cl	Cl	0.458	0.3256	0.1565	-5.328
Mof_Cl	Cl	0.3509	0.2813	0.1817	-0.049
Mof_Zn	Zn	0.30635	0.1544	0.9636	0.604
Mof_Cl	Cl	0.3422	0.1906	0.0259	-0.424
Mof_Cl	Cl	0.24493	0.2168	0.9344	-0.455
Mof_Zn	Zn	0.1105	0.3853	0.81074	0.437
Mof_Cl	Cl	0.0983	0.2515	0.8378	-0.313
Mof_Cl	Cl	0.1303	0.4042	0.7534	-0.56
Mof_Zn	Zn	0.37825	0.62526	0.66383	1.039
Mof_Cl	Cl	0.4329	0.7114	0.66541	-0.746
Mof_Cl	Cl	0.31759	0.6793	0.67169	-0.249
Mof_Zn	Zn	0.11174	0.61583	0.30558	1.211
Mof_Cl	Cl	0.12944	0.584	0.24841	-0.513
Mof_Cl	Cl	0.10357	0.7516	0.33363	-0.542
Mof_Zn	Zn	0.80041	0.3405	0.45439	0.814
Mof_Cl	Cl	0.7405	0.2831	0.4177	0.026
Mof_Cl	Cl	0.8291	0.2981	0.5176	-0.953
Mof_Zn	Zn	0.4136	0.3703	0.1556	1.15
Mof_Cl	Cl	0.477	0.338	0.15	4.524
Mof_Cl	Cl	0.372	0.263	0.171	-0.486
Mof_Zn	Zn	0.3001	0.158	0.958	0.568
Mof_Cl	Cl	0.326	0.201	0.022	-0.084
Mof_Cl	Cl	0.246	0.203	0.907	-0.134
Mof_Zn	Zn	0.117	0.376	0.8069	0.782
Mof_Cl	Cl	0.109	0.253	0.838	-0.202
Mof_Cl	Cl	0.135	0.375	0.762	0.001
Mof_Zn	Zn	0.4082	0.6213	0.6588	1.042
Mof_Cl	Cl	0.4672	0.651	0.6428	-0.29
Mof_Cl	Cl	0.3634	0.72	0.6778	-0.691
Mof_Zn	Zn	0.8162	0.3377	0.4706	0.844
Mof_Cl	Cl	0.856	0.3131	0.5322	0.254
Mof_Cl	Cl	0.7572	0.2666	0.4451	-0.707
Mof_C 	C 	0.1325	0.0357	0.889	0.053
Mof_H 	H 	0.1193	0.0693	0.865	0.009
Mof_C 	C 	0.1521	0.0841	0.9249	-0.105
Mof_H 	H 	0.1499	0.1499	0.9258	0.098
Mof_C 	C 	0.1743	0.0367	0.9587	0.052
Mof_C 	C 	0.1745	0.9382	0.9567	-0.116
Mof_H 	H 	0.1891	0.9021	0.9794	0.085
Mof_C 	C 	0.153	0.897	0.921	0.058
Mof_H 	H 	0.153	0.8311	0.9196	0.039
Mof_C 	C 	0.228	0.4663	0.064	0.082
Mof_H 	H 	0.2456	0.501	0.0855	0.002
Mof_C 	C 	0.2331	0.3726	0.0645	-0.126
Mof_H 	H 	0.2528	0.3434	0.0865	0.091
Mof_C 	C 	0.2092	0.3204	0.0326	0.065
Mof_C 	C 	0.181	0.3682	0.0026	-0.122
Mof_H 	H 	0.1636	0.3353	0.9803	0.087
Mof_C 	C 	0.1779	0.4638	0.0046	0.075
Mof_H 	H 	0.159	0.4953	0.9829	0.011
Mof_C 	C 	0.3195	0.9028	0.1139	0.053
Mof_H 	H 	0.3227	0.8374	0.1132	0.034
Mof_C 	C 	0.2885	0.9454	0.0836	-0.104
Mof_H 	H 	0.2715	0.9097	0.0621	0.096
Mof_C 	C 	0.2826	0.0434	0.0854	0.059
Mof_C 	C 	0.3094	0.0919	0.1176	-0.1
Mof_H 	H 	0.3069	0.1573	0.1198	0.115
Mof_C 	C 	0.3391	0.0444	0.1457	0.088
Mof_H 	H 	0.3566	0.0789	0.1675	0.044
Mof_C 	C 	0.1984	0.0867	0.9955	0.1
Mof_C 	C 	0.2147	0.2191	0.0297	0.098
Mof_C 	C 	0.2494	0.0883	0.0541	0.101
Mof_C 	C 	0.1721	0.721	0.1102	0.087
Mof_H 	H 	0.1983	0.7509	0.1145	0.004
Mof_C 	C 	0.1502	0.7343	0.138	-0.145
Mof_H 	H 	0.1611	0.7719	0.1614	0.092
Mof_C 	C 	0.1121	0.6932	0.1322	0.078
Mof_C 	C 	0.1	0.6334	0.0992	-0.172
Mof_H 	H 	0.0753	0.5977	0.0949	0.087
Mof_C 	C 	0.1247	0.628	0.0736	0.125
Mof_H 	H 	0.1154	0.5897	0.0501	-0.031
Mof_C 	C 	0.065	0.9851	0.2856	0.045
Mof_H 	H 	0.045	0.0116	0.2978	-0.029
Mof_C 	C 	0.0535	0.9079	0.2581	-0.122
Mof_H 	H 	0.0265	0.8817	0.2523	0.088
Mof_C 	C 	0.0829	0.8738	0.2407	0.043
Mof_C 	C 	0.1216	0.9119	0.2492	-0.118
Mof_H 	H 	0.1418	0.8883	0.2366	0.08
Mof_C 	C 	0.131	0.9842	0.2759	0.064
Mof_H 	H 	0.158	0.0106	0.282	0.013
Mof_C 	C 	0.9669	0.4525	0.1721	0.088
Mof_H 	H 	0.9632	0.3973	0.1562	-0.003
Mof_C 	C 	0.9998	0.51	0.1708	-0.131
Mof_H 	H 	0.0195	0.4933	0.1563	0.088
Mof_C 	C 	0.0022	0.5938	0.1919	0.095
Mof_C 	C 	0.9752	0.6135	0.2156	-0.094
Mof_H 	H 	0.9772	0.6699	0.2306	0.142
Mof_C 	C 	0.9447	0.5463	0.2165	0.092
Mof_H 	H 	0.9269	0.5565	0.2338	0.022
Mof_C 	C 	0.0866	0.708	0.1612	0.055
Mof_C 	C 	0.0732	0.7896	0.2122	0.031
Mof_C 	C 	0.0358	0.6607	0.1896	0.075
Mof_C 	C 	0.159	0.0993	0.4247	0.053
Mof_H 	H 	0.1587	0.1652	0.424	0.036
Mof_C 	C 	0.1789	0.0559	0.46	-0.092
Mof_H 	H 	0.1925	0.0914	0.4833	0.104
Mof_C 	C 	0.1794	0.9588	0.4619	0.039
Mof_C 	C 	0.159	0.9085	0.4265	-0.094
Mof_H 	H 	0.1588	0.8425	0.4264	0.099
Mof_C 	C 	0.1394	0.9582	0.3921	0.047
Mof_H 	H 	0.1252	0.9246	0.3684	0.013
Mof_C 	C 	0.3419	0.9542	0.6502	0.079
Mof_H 	H 	0.3602	0.9212	0.6718	0.04
Mof_C 	C 	0.312	0.9042	0.6203	-0.105
Mof_H 	H 	0.3101	0.8385	0.6214	0.129
Mof_C 	C 	0.2858	0.9548	0.5895	0.068
Mof_C 	C 	0.2896	0.0489	0.5883	-0.121
Mof_H 	H 	0.2717	0.0839	0.567	0.117
Mof_C 	C 	0.3199	0.0931	0.6184	0.081
Mof_H 	H 	0.3227	0.1586	0.6175	0.019
Mof_C 	C 	0.1838	0.5268	0.5076	0.048
Mof_H 	H 	0.1674	0.4925	0.4853	-0.006
Mof_C 	C 	0.1869	0.6254	0.5048	-0.103
Mof_H 	H 	0.1717	0.6578	0.4812	0.09
Mof_C 	C 	0.2119	0.6716	0.5367	0.07
Mof_C 	C 	0.2342	0.6229	0.5721	-0.128
Mof_H 	H 	0.2525	0.6545	0.5942	0.105
Mof_C 	C 	0.2284	0.5283	0.5732	0.094
Mof_H 	H 	0.2422	0.4948	0.5971	-0.013
Mof_C 	C 	0.2029	0.9079	0.4985	0.114
Mof_C 	C 	0.2536	0.9034	0.5581	0.114
Mof_C 	C 	0.2188	0.7744	0.5337	0.125
Mof_C 	C 	0.4647	0.0534	0.6728	0.092
Mof_H 	H 	0.4612	0.1087	0.657	0.002
Mof_C 	C 	0.4947	0.9904	0.6699	-0.128
Mof_H 	H 	0.5107	0.001	0.651	0.098
Mof_C 	C 	0.5019	0.9116	0.6942	0.073
Mof_C 	C 	0.4779	0.8977	0.721	-0.087
Mof_H 	H 	0.4817	0.8441	0.7379	0.094
Mof_C 	C 	0.4477	0.9646	0.7228	0.062
Mof_H 	H 	0.432	0.9577	0.7423	0.021
Mof_C 	C 	0.6219	0.8661	0.5719	0.075
Mof_H 	H 	0.6118	0.899	0.5469	-0.033
Mof_C 	C 	0.5973	0.8616	0.6012	-0.114
Mof_H 	H 	0.5734	0.8997	0.5979	0.086
Mof_C 	C 	0.6088	0.8023	0.6335	0.068
Mof_C 	C 	0.6452	0.7546	0.6387	-0.115
Mof_H 	H 	0.6536	0.7116	0.6606	0.09
Mof_C 	C 	0.6696	0.769	0.6124	0.073
Mof_H 	H 	0.6956	0.7384	0.6174	0.001
Mof_C 	C 	0.5522	0.5237	0.7844	0.085
Mof_H 	H 	0.531	0.5019	0.7961	-0.035
Mof_C 	C 	0.5439	0.598	0.7588	-0.118
Mof_H 	H 	0.5177	0.6281	0.7531	0.087
Mof_C 	C 	0.5747	0.6293	0.7412	0.064
Mof_C 	C 	0.6128	0.5817	0.7505	-0.12
Mof_H 	H 	0.634	0.6001	0.7383	0.09
Mof_C 	C 	0.619	0.509	0.7771	0.092
Mof_H 	H 	0.6452	0.4789	0.7838	-0.003
Mof_C 	C 	0.5336	0.8417	0.691	0.134
Mof_C 	C 	0.5826	0.7912	0.6625	0.128
Mof_C 	C 	0.567	0.708	0.713	0.117
Mof_N 	N 	0.1322	0.9435	0.8883	-0.287
Mof_N 	N 	0.2003	0.5131	0.0356	-0.252
Mof_N 	N 	0.3454	0.9526	0.1448	-0.248
Mof_N 	N 	0.1905	0.1753	0.9981	-0.134
Mof_N 	N 	0.2457	0.1807	0.0597	-0.13
Mof_N 	N 	0.2287	0.0388	0.0224	-0.14
Mof_N 	N 	0.1591	0.669	0.0778	-0.276
Mof_N 	N 	0.1026	0.0194	0.2942	-0.299
Mof_N 	N 	0.9399	0.469	0.1941	-0.236
Mof_N 	N 	0.096	0.7811	0.1868	-0.153
Mof_N 	N 	0.042	0.7335	0.2163	-0.144
Mof_N 	N 	0.0549	0.649	0.1607	-0.147
Mof_N 	N 	0.1393	0.0519	0.3899	-0.314
Mof_N 	N 	0.3449	0.0453	0.6486	-0.248
Mof_N 	N 	0.2043	0.4827	0.542	-0.283
Mof_N 	N 	0.2312	0.954	0.5256	-0.139
Mof_N 	N 	0.2475	0.8147	0.5627	-0.126
Mof_N 	N 	0.1942	0.8165	0.5009	-0.127
Mof_N 	N 	0.4406	0.038	0.6974	-0.252
Mof_N 	N 	0.6576	0.8251	0.5797	-0.3
Mof_N 	N 	0.5899	0.4787	0.7941	-0.251
Mof_N 	N 	0.5545	0.8552	0.663	-0.129
Mof_N 	N 	0.591	0.715	0.6868	-0.128
Mof_N 	N 	0.5389	0.7704	0.7169	-0.132
Mof_Zn	Zn	0.1029	0.8722	0.83554	0.824
Mof_Cl	Cl	0.042	0.8256	0.8435	-5.325
Mof_Cl	Cl	0.1491	0.7813	0.8183	-0.051
Mof_Zn	Zn	0.19365	0.6544	0.0364	0.604
Mof_Cl	Cl	0.1578	0.6906	0.9741	-0.423
Mof_Cl	Cl	0.25507	0.7168	0.0656	-0.455
Mof_Zn	Zn	0.3895	0.8853	0.18926	0.435
Mof_Cl	Cl	0.4017	0.7515	0.1622	-0.313
Mof_Cl	Cl	0.3697	0.9042	0.2466	-0.559
Mof_Zn	Zn	0.12175	0.12526	0.33617	1.039
Mof_Cl	Cl	0.0671	0.2114	0.33459	-0.745
Mof_Cl	Cl	0.18241	0.1793	0.32831	-0.248
Mof_Zn	Zn	0.38826	0.11583	0.69442	1.211
Mof_Cl	Cl	0.37056	0.084	0.75159	-0.511
Mof_Cl	Cl	0.39643	0.2516	0.66637	-0.541
Mof_Zn	Zn	0.69959	0.8405	0.54561	0.814
Mof_Cl	Cl	0.7595	0.7831	0.5823	0.026
Mof_Cl	Cl	0.6709	0.7981	0.4824	-0.953
Mof_Zn	Zn	0.0864	0.8703	0.8444	1.15
Mof_Cl	Cl	0.023	0.838	0.85	4.52
Mof_Cl	Cl	0.128	0.763	0.829	-0.486
Mof_Zn	Zn	0.1999	0.658	0.042	0.567
Mof_Cl	Cl	0.174	0.701	0.978	-0.086
Mof_Cl	Cl	0.254	0.703	0.093	-0.134
Mof_Zn	Zn	0.383	0.876	0.1931	0.784
Mof_Cl	Cl	0.391	0.753	0.162	-0.203
Mof_Cl	Cl	0.365	0.875	0.238	-0.001
Mof_Zn	Zn	0.0918	0.1213	0.3412	1.043
Mof_Cl	Cl	0.0328	0.151	0.3572	-0.289
Mof_Cl	Cl	0.1366	0.22	0.3222	-0.69
Mof_Zn	Zn	0.6838	0.8377	0.5294	0.844
Mof_Cl	Cl	0.644	0.8131	0.4678	0.253
Mof_Cl	Cl	0.7428	0.7666	0.5549	-0.708
Mof_C 	C 	0.6325	0.5357	0.889	0.043
Mof_H 	H 	0.6193	0.5693	0.865	0.011
Mof_C 	C 	0.6521	0.5841	0.9249	-0.098
Mof_H 	H 	0.6499	0.6499	0.9258	0.096
Mof_C 	C 	0.6743	0.5367	0.9587	0.041
Mof_C 	C 	0.6745	0.4382	0.9567	-0.105
Mof_H 	H 	0.6891	0.4021	0.9794	0.082
Mof_C 	C 	0.653	0.397	0.921	0.054
Mof_H 	H 	0.653	0.3311	0.9196	0.041
Mof_C 	C 	0.728	0.9663	0.064	0.062
Mof_H 	H 	0.7456	0.001	0.0855	0.012
Mof_C 	C 	0.7331	0.8726	0.0645	-0.115
Mof_H 	H 	0.7528	0.8434	0.0865	0.086
Mof_C 	C 	0.7092	0.8204	0.0326	0.058
Mof_C 	C 	0.681	0.8682	0.0026	-0.115
Mof_H 	H 	0.6636	0.8353	0.9803	0.084
Mof_C 	C 	0.6779	0.9638	0.0046	0.065
Mof_H 	H 	0.659	0.9953	0.9829	0.012
Mof_C 	C 	0.8195	0.4028	0.1139	0.049
Mof_H 	H 	0.8227	0.3374	0.1132	0.035
Mof_C 	C 	0.7885	0.4454	0.0836	-0.093
Mof_H 	H 	0.7715	0.4097	0.0621	0.094
Mof_C 	C 	0.7826	0.5434	0.0854	0.049
Mof_C 	C 	0.8094	0.5919	0.1176	-0.093
Mof_H 	H 	0.8069	0.6573	0.1198	0.112
Mof_C 	C 	0.8391	0.5444	0.1457	0.078
Mof_H 	H 	0.8566	0.5789	0.1675	0.046
Mof_C 	C 	0.6984	0.5867	0.9955	0.102
Mof_C 	C 	0.7147	0.7191	0.0297	0.1
Mof_C 	C 	0.7494	0.5883	0.0541	0.102
Mof_C 	C 	0.6721	0.221	0.1102	0.088
Mof_H 	H 	0.6983	0.2509	0.1145	0.004
Mof_C 	C 	0.6502	0.2343	0.138	-0.145
Mof_H 	H 	0.6611	0.2719	0.1614	0.093
Mof_C 	C 	0.6121	0.1932	0.1322	0.078
Mof_C 	C 	0.6	0.1334	0.0992	-0.172
Mof_H 	H 	0.5753	0.0977	0.0949	0.087
Mof_C 	C 	0.6247	0.128	0.0736	0.125
Mof_H 	H 	0.6154	0.0897	0.0501	-0.03
Mof_C 	C 	0.565	0.4851	0.2856	0.064
Mof_H 	H 	0.545	0.5116	0.2978	-0.038
Mof_C 	C 	0.5535	0.4079	0.2581	-0.134
Mof_H 	H 	0.5265	0.3817	0.2523	0.093
Mof_C 	C 	0.5829	0.3738	0.2407	0.052
Mof_C 	C 	0.6216	0.4119	0.2492	-0.132
Mof_H 	H 	0.6418	0.3883	0.2366	0.085
Mof_C 	C 	0.631	0.4842	0.2759	0.084
Mof_H 	H 	0.658	0.5106	0.282	0.003
Mof_C 	C 	0.4669	0.9525	0.1721	0.073
Mof_H 	H 	0.4632	0.8973	0.1562	0.001
Mof_C 	C 	0.4998	0.01	0.1708	-0.109
Mof_H 	H 	0.5195	0.9933	0.1563	0.077
Mof_C 	C 	0.5022	0.0938	0.1919	0.087
Mof_C 	C 	0.4752	0.1135	0.2156	-0.091
Mof_H 	H 	0.4772	0.1699	0.2306	0.141
Mof_C 	C 	0.4447	0.0463	0.2165	0.095
Mof_H 	H 	0.4269	0.0565	0.2338	0.022
Mof_C 	C 	0.5866	0.208	0.1612	0.056
Mof_C 	C 	0.5732	0.2896	0.2122	0.029
Mof_C 	C 	0.5358	0.1607	0.1896	0.078
Mof_C 	C 	0.659	0.5993	0.4247	0.057
Mof_H 	H 	0.6587	0.6652	0.424	0.034
Mof_C 	C 	0.6789	0.5559	0.46	-0.102
Mof_H 	H 	0.6925	0.5914	0.4833	0.107
Mof_C 	C 	0.6794	0.4588	0.4619	0.049
Mof_C 	C 	0.659	0.4085	0.4265	-0.1
Mof_H 	H 	0.6588	0.3425	0.4264	0.102
Mof_C 	C 	0.6394	0.4582	0.3921	0.056
Mof_H 	H 	0.6252	0.4246	0.3684	0.011
Mof_C 	C 	0.8419	0.4542	0.6502	0.088
Mof_H 	H 	0.8602	0.4212	0.6718	0.038
Mof_C 	C 	0.812	0.4042	0.6203	-0.112
Mof_H 	H 	0.8101	0.3385	0.6214	0.132
Mof_C 	C 	0.7858	0.4548	0.5895	0.078
Mof_C 	C 	0.7896	0.5489	0.5883	-0.132
Mof_H 	H 	0.7717	0.5839	0.567	0.12
Mof_C 	C 	0.8199	0.5931	0.6184	0.085
Mof_H 	H 	0.8227	0.6586	0.6175	0.017
Mof_C 	C 	0.6838	0.0268	0.5076	0.066
Mof_H 	H 	0.6674	0.9925	0.4853	-0.015
Mof_C 	C 	0.6869	0.1254	0.5048	-0.114
Mof_H 	H 	0.6717	0.1578	0.4812	0.094
Mof_C 	C 	0.7119	0.1716	0.5367	0.078
Mof_C 	C 	0.7342	0.1229	0.5721	-0.139
Mof_H 	H 	0.7525	0.1545	0.5942	0.11
Mof_C 	C 	0.7284	0.0283	0.5732	0.113
Mof_H 	H 	0.7422	0.9948	0.5971	-0.023
Mof_C 	C 	0.7029	0.4079	0.4985	0.112
Mof_C 	C 	0.7536	0.4034	0.5581	0.112
Mof_C 	C 	0.7188	0.2744	0.5337	0.123
Mof_C 	C 	0.9647	0.5534	0.6728	0.076
Mof_H 	H 	0.9612	0.6087	0.657	0.007
Mof_C 	C 	0.9947	0.4904	0.6699	-0.106
Mof_H 	H 	0.0107	0.501	0.651	0.087
Mof_C 	C 	0.0019	0.4116	0.6942	0.065
Mof_C 	C 	0.9779	0.3977	0.721	-0.083
Mof_H 	H 	0.9817	0.3441	0.7379	0.093
Mof_C 	C 	0.9477	0.4646	0.7228	0.064
Mof_H 	H 	0.932	0.4577	0.7423	0.022
Mof_C 	C 	0.1219	0.3661	0.5719	0.076
Mof_H 	H 	0.1118	0.399	0.5469	-0.032
Mof_C 	C 	0.0973	0.3616	0.6012	-0.114
Mof_H 	H 	0.0734	0.3997	0.5979	0.087
Mof_C 	C 	0.1088	0.3023	0.6335	0.069
Mof_C 	C 	0.1452	0.2546	0.6387	-0.115
Mof_H 	H 	0.1536	0.2116	0.6606	0.091
Mof_C 	C 	0.1696	0.269	0.6124	0.074
Mof_H 	H 	0.1956	0.2384	0.6174	0.002
Mof_C 	C 	0.0522	0.0237	0.7844	0.094
Mof_H 	H 	0.031	0.0019	0.7961	-0.035
Mof_C 	C 	0.0439	0.098	0.7588	-0.124
Mof_H 	H 	0.0177	0.1281	0.7531	0.09
Mof_C 	C 	0.0747	0.1293	0.7412	0.07
Mof_C 	C 	0.1128	0.0817	0.7505	-0.131
Mof_H 	H 	0.134	0.1001	0.7383	0.095
Mof_C 	C 	0.119	0.009	0.7771	0.111
Mof_H 	H 	0.1452	0.9789	0.7838	-0.013
Mof_C 	C 	0.0336	0.3417	0.691	0.137
Mof_C 	C 	0.0826	0.2912	0.6625	0.128
Mof_C 	C 	0.067	0.208	0.713	0.115
Mof_N 	N 	0.6322	0.4435	0.8883	-0.282
Mof_N 	N 	0.7003	0.0131	0.0356	-0.243
Mof_N 	N 	0.8454	0.4526	0.1448	-0.243
Mof_N 	N 	0.6905	0.6753	0.9981	-0.135
Mof_N 	N 	0.7457	0.6807	0.0597	-0.13
Mof_N 	N 	0.7287	0.5388	0.0224	-0.143
Mof_N 	N 	0.6591	0.169	0.0778	-0.276
Mof_N 	N 	0.6026	0.5194	0.2942	-0.31
Mof_N 	N 	0.4399	0.969	0.1941	-0.236
Mof_N 	N 	0.596	0.2811	0.1868	-0.152
Mof_N 	N 	0.542	0.2335	0.2163	-0.144
Mof_N 	N 	0.5549	0.149	0.1607	-0.147
Mof_N 	N 	0.6393	0.5519	0.3899	-0.318
Mof_N 	N 	0.8449	0.5453	0.6486	-0.252
Mof_N 	N 	0.7043	0.9827	0.542	-0.293
Mof_N 	N 	0.7312	0.454	0.5256	-0.137
Mof_N 	N 	0.7475	0.3147	0.5627	-0.125
Mof_N 	N 	0.6942	0.3165	0.5009	-0.126
Mof_N 	N 	0.9406	0.538	0.6974	-0.252
Mof_N 	N 	0.1576	0.3251	0.5797	-0.3
Mof_N 	N 	0.0899	0.9787	0.7941	-0.26
Mof_N 	N 	0.0545	0.3552	0.663	-0.129
Mof_N 	N 	0.091	0.215	0.6868	-0.127
Mof_N 	N 	0.0389	0.2704	0.7169	-0.132
Mof_Zn	Zn	0.6029	0.3722	0.83554	0.824
Mof_Cl	Cl	0.542	0.3256	0.8435	-5.328
Mof_Cl	Cl	0.6491	0.2813	0.8183	-0.049
Mof_Zn	Zn	0.69365	0.1544	0.0364	0.604
Mof_Cl	Cl	0.6578	0.1906	0.9741	-0.424
Mof_Cl	Cl	0.75507	0.2168	0.0656	-0.455
Mof_Zn	Zn	0.8895	0.3853	0.18926	0.437
Mof_Cl	Cl	0.9017	0.2515	0.1622	-0.313
Mof_Cl	Cl	0.8697	0.4042	0.2466	-0.56
Mof_Zn	Zn	0.62175	0.62526	0.33617	1.039
Mof_Cl	Cl	0.5671	0.7114	0.33459	-0.746
Mof_Cl	Cl	0.68241	0.6793	0.32831	-0.249
Mof_Zn	Zn	0.88826	0.61583	0.69442	1.211
Mof_Cl	Cl	0.87056	0.584	0.75159	-0.513
Mof_Cl	Cl	0.89643	0.7516	0.66637	-0.542
Mof_Zn	Zn	0.19959	0.3405	0.54561	0.814
Mof_Cl	Cl	0.2595	0.2831	0.5823	0.026
Mof_Cl	Cl	0.1709	0.2981	0.4824	-0.953
Mof_Zn	Zn	0.5864	0.3703	0.8444	1.15
Mof_Cl	Cl	0.523	0.338	0.85	4.524
Mof_Cl	Cl	0.628	0.263	0.829	-0.486
Mof_Zn	Zn	0.6999	0.158	0.042	0.568
Mof_Cl	Cl	0.674	0.201	0.978	-0.084
Mof_Cl	Cl	0.754	0.203	0.093	-0.134
Mof_Zn	Zn	0.883	0.376	0.1931	0.782
Mof_Cl	Cl	0.891	0.253	0.162	-0.202
Mof_Cl	Cl	0.865	0.375	0.238	0.001
Mof_Zn	Zn	0.5918	0.6213	0.3412	1.042
Mof_Cl	Cl	0.5328	0.651	0.3572	-0.29
Mof_Cl	Cl	0.6366	0.72	0.3222	-0.691
Mof_Zn	Zn	0.1838	0.3377	0.5294	0.844
Mof_Cl	Cl	0.144	0.3131	0.4678	0.254
Mof_Cl	Cl	0.2428	0.2666	0.5549	-0.707
_end
