data_functionalizedCrystal
_audit_creation_method	'EQeq! by Chris Wilmer'
_symmetry_space_group_name_H-M	'P1'
_symmetry_Int_Tables_number	1
_symmetry_cell_setting	triclinic
loop_
_symmetry_equiv_pos_as_xyz
  x,y,z
_cell_length_a	18.9479
_cell_length_b	18.9479
_cell_length_c	35.9127
_cell_angle_alpha	90
_cell_angle_beta	90
_cell_angle_gamma	120
loop_
_atom_site_label
_atom_site_type_symbol
_atom_site_fract_x
_atom_site_fract_y
_atom_site_fract_z
_atom_site_charge
Mof_Zn	Zn	0.04939	0.5247	0.0336	1.224
Mof_Zn	Zn	0.04939	0.5247	0.4664	1.224
Mof_Zn	Zn	0.52469	0.4753	0.9664	1.223
Mof_Zn	Zn	0.52469	0.4753	0.5336	1.223
Mof_Zn	Zn	0.47531	0.95062	0.0336	1.223
Mof_Zn	Zn	0.95061	0.4753	0.5336	1.223
Mof_Zn	Zn	0.47531	0.5247	0.0336	1.223
Mof_Zn	Zn	0.52469	0.04938	0.5336	1.223
Mof_Zn	Zn	0.47531	0.5247	0.4664	1.223
Mof_Zn	Zn	0.47531	0.95062	0.4664	1.223
Mof_Zn	Zn	0.95061	0.4753	0.9664	1.223
Mof_Zn	Zn	0.52469	0.04938	0.9664	1.223
Mof_Cr	Cr	0.55008	0.27504	0.75	2.135
Mof_Cr	Cr	0.44992	0.72496	0.25	2.135
Mof_Cr	Cr	0.27504	0.72496	0.25	2.135
Mof_Cr	Cr	0.72496	0.27504	0.75	2.135
Mof_Cr	Cr	0.27504	0.55008	0.25	2.135
Mof_Cr	Cr	0.72496	0.44992	0.75	2.135
Mof_H 	H 	0.1681	0.8319	0.6157	0.08
Mof_H 	H 	0.4746	0.2373	0.003	0.03
Mof_H 	H 	0.3505	0.9053	0.4087	0.021
Mof_H 	H 	0.4667	0.1432	0.6518	0.036
Mof_H 	H 	0.6765	0.1432	0.8482	0.036
Mof_H 	H 	0.6765	0.1432	0.6518	0.036
Mof_H 	H 	0.1681	0.8319	0.8843	0.08
Mof_H 	H 	0.0847	0.7041	0.5901	0.015
Mof_H 	H 	0.6638	0.8319	0.8843	0.08
Mof_H 	H 	0.8319	0.6638	0.3843	0.08
Mof_H 	H 	0.1681	0.3362	0.6157	0.08
Mof_H 	H 	0.4667	0.1432	0.8482	0.036
Mof_H 	H 	0.7627	0.2373	0.497	0.03
Mof_H 	H 	0.0947	0.6495	0.4087	0.021
Mof_H 	H 	0.0847	0.3806	0.9099	0.015
Mof_H 	H 	0.0847	0.7041	0.9099	0.015
Mof_H 	H 	0.5548	0.9053	0.0913	0.021
Mof_H 	H 	0.1432	0.4667	0.1518	0.036
Mof_H 	H 	0.5548	0.9053	0.4087	0.021
Mof_H 	H 	0.0947	0.6495	0.0913	0.021
Mof_H 	H 	0.7627	0.2373	0.003	0.03
Mof_H 	H 	0.8319	0.6638	0.1157	0.08
Mof_H 	H 	0.4452	0.3505	0.5913	0.021
Mof_H 	H 	0.9053	0.5548	0.5913	0.021
Mof_H 	H 	0.6495	0.5548	0.9087	0.021
Mof_H 	H 	0.6495	0.0947	0.5913	0.021
Mof_H 	H 	0.1681	0.3362	0.8843	0.08
Mof_H 	H 	0.4452	0.0947	0.5913	0.021
Mof_H 	H 	0.4667	0.3235	0.8482	0.036
Mof_H 	H 	0.3505	0.9053	0.0913	0.021
Mof_H 	H 	0.6495	0.5548	0.5913	0.021
Mof_H 	H 	0.4746	0.2373	0.497	0.03
Mof_H 	H 	0.8568	0.3235	0.6518	0.036
Mof_H 	H 	0.2959	0.3806	0.9099	0.015
Mof_H 	H 	0.7041	0.6194	0.0901	0.015
Mof_H 	H 	0.2373	0.7627	0.997	0.03
Mof_H 	H 	0.3235	0.8568	0.3482	0.036
Mof_H 	H 	0.6765	0.5333	0.8482	0.036
Mof_H 	H 	0.7627	0.5254	0.497	0.03
Mof_H 	H 	0.2373	0.7627	0.503	0.03
Mof_H 	H 	0.9153	0.2959	0.0901	0.015
Mof_H 	H 	0.9053	0.3505	0.5913	0.021
Mof_H 	H 	0.8319	0.1681	0.3843	0.08
Mof_H 	H 	0.7041	0.0847	0.4099	0.015
Mof_H 	H 	0.9153	0.6194	0.4099	0.015
Mof_H 	H 	0.0947	0.4452	0.4087	0.021
Mof_H 	H 	0.3806	0.2959	0.0901	0.015
Mof_H 	H 	0.2959	0.9153	0.9099	0.015
Mof_H 	H 	0.6194	0.9153	0.9099	0.015
Mof_H 	H 	0.3235	0.4667	0.3482	0.036
Mof_H 	H 	0.5333	0.8568	0.3482	0.036
Mof_H 	H 	0.5333	0.6765	0.3482	0.036
Mof_H 	H 	0.1432	0.6765	0.3482	0.036
Mof_H 	H 	0.6638	0.8319	0.6157	0.08
Mof_H 	H 	0.3806	0.0847	0.0901	0.015
Mof_H 	H 	0.3362	0.1681	0.1157	0.08
Mof_H 	H 	0.8568	0.5333	0.6518	0.036
Mof_H 	H 	0.3505	0.4452	0.0913	0.021
Mof_H 	H 	0.3505	0.4452	0.4087	0.021
Mof_H 	H 	0.5254	0.7627	0.503	0.03
Mof_H 	H 	0.3362	0.1681	0.3843	0.08
Mof_H 	H 	0.3806	0.0847	0.4099	0.015
Mof_H 	H 	0.5548	0.6495	0.4087	0.021
Mof_H 	H 	0.4452	0.0947	0.9087	0.021
Mof_H 	H 	0.1432	0.6765	0.1518	0.036
Mof_H 	H 	0.4667	0.3235	0.6518	0.036
Mof_H 	H 	0.5333	0.6765	0.1518	0.036
Mof_H 	H 	0.5333	0.8568	0.1518	0.036
Mof_H 	H 	0.3235	0.4667	0.1518	0.036
Mof_H 	H 	0.5254	0.7627	0.997	0.03
Mof_H 	H 	0.2959	0.3806	0.5901	0.015
Mof_H 	H 	0.3806	0.2959	0.4099	0.015
Mof_H 	H 	0.0947	0.4452	0.0913	0.021
Mof_H 	H 	0.6194	0.7041	0.9099	0.015
Mof_H 	H 	0.9153	0.6194	0.0901	0.015
Mof_H 	H 	0.7041	0.0847	0.0901	0.015
Mof_H 	H 	0.8319	0.1681	0.1157	0.08
Mof_H 	H 	0.1432	0.4667	0.3482	0.036
Mof_H 	H 	0.0847	0.3806	0.5901	0.015
Mof_H 	H 	0.9053	0.5548	0.9087	0.021
Mof_H 	H 	0.4452	0.3505	0.9087	0.021
Mof_H 	H 	0.2373	0.4746	0.997	0.03
Mof_H 	H 	0.6194	0.9153	0.5901	0.015
Mof_H 	H 	0.9153	0.2959	0.4099	0.015
Mof_H 	H 	0.8568	0.5333	0.8482	0.036
Mof_H 	H 	0.7627	0.5254	0.003	0.03
Mof_H 	H 	0.5548	0.6495	0.0913	0.021
Mof_H 	H 	0.9053	0.3505	0.9087	0.021
Mof_H 	H 	0.8568	0.3235	0.8482	0.036
Mof_H 	H 	0.3235	0.8568	0.1518	0.036
Mof_H 	H 	0.6765	0.5333	0.6518	0.036
Mof_H 	H 	0.6194	0.7041	0.5901	0.015
Mof_H 	H 	0.7041	0.6194	0.4099	0.015
Mof_H 	H 	0.2373	0.4746	0.503	0.03
Mof_H 	H 	0.6495	0.0947	0.9087	0.021
Mof_H 	H 	0.2959	0.9153	0.5901	0.015
Mof_C 	C 	0.4539	0.3581	0.02595	0.425
Mof_C 	C 	0.59247	0.18494	0.80366	0.571
Mof_C 	C 	0.8947	0.5062	0.89625	0.019
Mof_C 	C 	0.278	0.8486	0.95638	-0.163
Mof_C 	C 	0.42638	0.85276	0.15805	-0.145
Mof_C 	C 	0.722	0.5706	0.04362	-0.163
Mof_C 	C 	0.742	0.6089	0.42239	0.089
Mof_C 	C 	0.5059	0.3723	0.86015	0.006
Mof_C 	C 	0.5517	0.77585	0.97343	0.101
Mof_C 	C 	0.8669	0.6089	0.42239	0.089
Mof_C 	C 	0.0958	0.6419	0.52595	0.425
Mof_C 	C 	0.5706	0.722	0.95638	-0.163
Mof_C 	C 	0.40753	0.81506	0.19634	0.571
Mof_C 	C 	0.81506	0.40753	0.69634	0.571
Mof_C 	C 	0.3723	0.5059	0.13985	0.006
Mof_C 	C 	0.258	0.8669	0.92239	0.089
Mof_C 	C 	0.1053	0.6115	0.39625	0.019
Mof_C 	C 	0.1514	0.722	0.54362	-0.163
Mof_C 	C 	0.8664	0.3723	0.86015	0.006
Mof_C 	C 	0.6277	0.4941	0.86015	0.006
Mof_C 	C 	0.5062	0.8947	0.10375	0.019
Mof_C 	C 	0.57362	0.14724	0.65805	-0.145
Mof_C 	C 	0.3885	0.8947	0.10375	0.019
Mof_C 	C 	0.8486	0.278	0.04362	-0.163
Mof_C 	C 	0.184	0.368	0.5937	-0.149
Mof_C 	C 	0.77585	0.22415	0.47343	0.101
Mof_C 	C 	0.1336	0.5059	0.36015	0.006
Mof_C 	C 	0.1514	0.4294	0.95638	-0.163
Mof_C 	C 	0.3581	0.4539	0.52595	0.425
Mof_C 	C 	0.5059	0.1336	0.63985	0.006
Mof_C 	C 	0.57362	0.42638	0.84195	-0.145
Mof_C 	C 	0.1336	0.5059	0.13985	0.006
Mof_C 	C 	0.77585	0.22415	0.02657	0.101
Mof_C 	C 	0.22415	0.4483	0.52657	0.101
Mof_C 	C 	0.4938	0.3885	0.89625	0.019
Mof_C 	C 	0.1331	0.3911	0.57761	0.089
Mof_C 	C 	0.8486	0.278	0.45638	-0.163
Mof_C 	C 	0.3885	0.8947	0.39625	0.019
Mof_C 	C 	0.8664	0.4941	0.86015	0.006
Mof_C 	C 	0.1514	0.722	0.95638	-0.163
Mof_C 	C 	0.5461	0.6419	0.97405	0.425
Mof_C 	C 	0.5062	0.8947	0.39625	0.019
Mof_C 	C 	0.5706	0.722	0.54362	-0.163
Mof_C 	C 	0.8947	0.3885	0.60375	0.019
Mof_C 	C 	0.4938	0.1053	0.89625	0.019
Mof_C 	C 	0.1053	0.6115	0.10375	0.019
Mof_C 	C 	0.3581	0.4539	0.97405	0.425
Mof_C 	C 	0.6277	0.1336	0.86015	0.006
Mof_C 	C 	0.3723	0.5059	0.36015	0.006
Mof_C 	C 	0.40753	0.81506	0.30366	0.571
Mof_C 	C 	0.258	0.8669	0.57761	0.089
Mof_C 	C 	0.8669	0.6089	0.07761	0.089
Mof_C 	C 	0.59247	0.18494	0.69634	0.571
Mof_C 	C 	0.1331	0.742	0.57761	0.089
Mof_C 	C 	0.278	0.8486	0.54362	-0.163
Mof_C 	C 	0.742	0.6089	0.07761	0.089
Mof_C 	C 	0.722	0.5706	0.45638	-0.163
Mof_C 	C 	0.258	0.3911	0.92239	0.089
Mof_C 	C 	0.42638	0.85276	0.34195	-0.145
Mof_C 	C 	0.5062	0.6115	0.10375	0.019
Mof_C 	C 	0.8664	0.3723	0.63985	0.006
Mof_C 	C 	0.4539	0.3581	0.47405	0.425
Mof_C 	C 	0.742	0.1331	0.07761	0.089
Mof_C 	C 	0.9042	0.3581	0.47405	0.425
Mof_C 	C 	0.4938	0.1053	0.60375	0.019
Mof_C 	C 	0.81506	0.40753	0.80366	0.571
Mof_C 	C 	0.4294	0.278	0.04362	-0.163
Mof_C 	C 	0.5517	0.77585	0.52657	0.101
Mof_C 	C 	0.85276	0.42638	0.65805	-0.145
Mof_C 	C 	0.5461	0.9042	0.52595	0.425
Mof_C 	C 	0.4539	0.0958	0.02595	0.425
Mof_C 	C 	0.57362	0.42638	0.65805	-0.145
Mof_C 	C 	0.184	0.368	0.9063	-0.149
Mof_C 	C 	0.4941	0.8664	0.36015	0.006
Mof_C 	C 	0.5706	0.8486	0.95638	-0.163
Mof_C 	C 	0.6089	0.8669	0.92239	0.089
Mof_C 	C 	0.8486	0.5706	0.04362	-0.163
Mof_C 	C 	0.6089	0.8669	0.57761	0.089
Mof_C 	C 	0.8664	0.4941	0.63985	0.006
Mof_C 	C 	0.77585	0.5517	0.02657	0.101
Mof_C 	C 	0.18494	0.59247	0.30366	0.571
Mof_C 	C 	0.816	0.184	0.4063	-0.149
Mof_C 	C 	0.5461	0.9042	0.97405	0.425
Mof_C 	C 	0.722	0.1514	0.45638	-0.163
Mof_C 	C 	0.6419	0.5461	0.47405	0.425
Mof_C 	C 	0.6419	0.0958	0.47405	0.425
Mof_C 	C 	0.42638	0.57362	0.34195	-0.145
Mof_C 	C 	0.9042	0.5461	0.47405	0.425
Mof_C 	C 	0.184	0.816	0.5937	-0.149
Mof_C 	C 	0.3581	0.9042	0.52595	0.425
Mof_C 	C 	0.8947	0.5062	0.60375	0.019
Mof_C 	C 	0.6115	0.1053	0.60375	0.019
Mof_C 	C 	0.40753	0.59247	0.30366	0.571
Mof_C 	C 	0.4941	0.6277	0.13985	0.006
Mof_C 	C 	0.6115	0.1053	0.89625	0.019
Mof_C 	C 	0.59247	0.40753	0.80366	0.571
Mof_C 	C 	0.4294	0.1514	0.04362	-0.163
Mof_C 	C 	0.14724	0.57362	0.15805	-0.145
Mof_C 	C 	0.1053	0.4938	0.39625	0.019
Mof_C 	C 	0.258	0.3911	0.57761	0.089
Mof_C 	C 	0.3911	0.1331	0.07761	0.089
Mof_C 	C 	0.6277	0.4941	0.63985	0.006
Mof_C 	C 	0.6277	0.1336	0.63985	0.006
Mof_C 	C 	0.4483	0.22415	0.47343	0.101
Mof_C 	C 	0.0958	0.4539	0.97405	0.425
Mof_C 	C 	0.1336	0.6277	0.36015	0.006
Mof_C 	C 	0.0958	0.6419	0.97405	0.425
Mof_C 	C 	0.5461	0.6419	0.52595	0.425
Mof_C 	C 	0.3723	0.8664	0.36015	0.006
Mof_C 	C 	0.278	0.4294	0.54362	-0.163
Mof_C 	C 	0.816	0.632	0.0937	-0.149
Mof_C 	C 	0.3885	0.4938	0.10375	0.019
Mof_C 	C 	0.8669	0.258	0.07761	0.089
Mof_C 	C 	0.3911	0.258	0.07761	0.089
Mof_C 	C 	0.3911	0.258	0.42239	0.089
Mof_C 	C 	0.278	0.4294	0.95638	-0.163
Mof_C 	C 	0.8669	0.258	0.42239	0.089
Mof_C 	C 	0.3885	0.4938	0.39625	0.019
Mof_C 	C 	0.816	0.632	0.4063	-0.149
Mof_C 	C 	0.3723	0.8664	0.13985	0.006
Mof_C 	C 	0.57362	0.14724	0.84195	-0.145
Mof_C 	C 	0.368	0.184	0.0937	-0.149
Mof_C 	C 	0.1336	0.6277	0.13985	0.006
Mof_C 	C 	0.1514	0.4294	0.54362	-0.163
Mof_C 	C 	0.8947	0.3885	0.89625	0.019
Mof_C 	C 	0.4483	0.22415	0.02657	0.101
Mof_C 	C 	0.3911	0.1331	0.42239	0.089
Mof_C 	C 	0.77585	0.5517	0.47343	0.101
Mof_C 	C 	0.184	0.816	0.9063	-0.149
Mof_C 	C 	0.0958	0.4539	0.52595	0.425
Mof_C 	C 	0.1053	0.4938	0.10375	0.019
Mof_C 	C 	0.14724	0.57362	0.34195	-0.145
Mof_C 	C 	0.632	0.816	0.9063	-0.149
Mof_C 	C 	0.4294	0.1514	0.45638	-0.163
Mof_C 	C 	0.1331	0.742	0.92239	0.089
Mof_C 	C 	0.4941	0.6277	0.36015	0.006
Mof_C 	C 	0.40753	0.59247	0.19634	0.571
Mof_C 	C 	0.22415	0.4483	0.97343	0.101
Mof_C 	C 	0.5059	0.3723	0.63985	0.006
Mof_C 	C 	0.4938	0.3885	0.60375	0.019
Mof_C 	C 	0.59247	0.40753	0.69634	0.571
Mof_C 	C 	0.9042	0.5461	0.02595	0.425
Mof_C 	C 	0.6089	0.742	0.92239	0.089
Mof_C 	C 	0.632	0.816	0.5937	-0.149
Mof_C 	C 	0.42638	0.57362	0.15805	-0.145
Mof_C 	C 	0.1331	0.3911	0.92239	0.089
Mof_C 	C 	0.6419	0.0958	0.02595	0.425
Mof_C 	C 	0.3581	0.9042	0.97405	0.425
Mof_C 	C 	0.6419	0.5461	0.02595	0.425
Mof_C 	C 	0.722	0.1514	0.04362	-0.163
Mof_C 	C 	0.22415	0.77585	0.52657	0.101
Mof_C 	C 	0.816	0.184	0.0937	-0.149
Mof_C 	C 	0.18494	0.59247	0.19634	0.571
Mof_C 	C 	0.5062	0.6115	0.39625	0.019
Mof_C 	C 	0.8486	0.5706	0.45638	-0.163
Mof_C 	C 	0.5059	0.1336	0.86015	0.006
Mof_C 	C 	0.368	0.184	0.4063	-0.149
Mof_C 	C 	0.6089	0.742	0.57761	0.089
Mof_C 	C 	0.4941	0.8664	0.13985	0.006
Mof_C 	C 	0.6115	0.5062	0.89625	0.019
Mof_C 	C 	0.85276	0.42638	0.84195	-0.145
Mof_C 	C 	0.4539	0.0958	0.47405	0.425
Mof_C 	C 	0.5706	0.8486	0.54362	-0.163
Mof_C 	C 	0.6115	0.5062	0.60375	0.019
Mof_C 	C 	0.4294	0.278	0.45638	-0.163
Mof_C 	C 	0.9042	0.3581	0.02595	0.425
Mof_C 	C 	0.742	0.1331	0.42239	0.089
Mof_C 	C 	0.22415	0.77585	0.97343	0.101
Mof_N 	N 	0.09262	0.54631	0.41412	-0.229
Mof_N 	N 	0.45369	0.90738	0.08588	-0.229
Mof_N 	N 	0.54631	0.09262	0.58588	-0.229
Mof_N 	N 	0.54631	0.09262	0.91412	-0.229
Mof_N 	N 	0.54631	0.45369	0.91412	-0.229
Mof_N 	N 	0.45369	0.90738	0.41412	-0.229
Mof_N 	N 	0.09262	0.54631	0.08588	-0.229
Mof_N 	N 	0.54631	0.45369	0.58588	-0.229
Mof_N 	N 	0.45369	0.54631	0.41412	-0.229
Mof_N 	N 	0.90738	0.45369	0.91412	-0.229
Mof_N 	N 	0.45369	0.54631	0.08588	-0.229
Mof_N 	N 	0.90738	0.45369	0.58588	-0.229
Mof_O 	O 	0.5918	0.0353	0.45613	-0.48
Mof_O 	O 	0.45933	0.79994	0.21026	-0.68
Mof_O 	O 	0.48277	0.11362	0.50637	-0.466
Mof_O 	O 	0.9647	0.5565	0.04387	-0.48
Mof_O 	O 	0.4435	0.4082	0.45613	-0.48
Mof_O 	O 	0.65939	0.20006	0.71026	-0.68
Mof_O 	O 	0.63085	0.11362	0.50637	-0.466
Mof_O 	O 	0.11362	0.63085	0.00637	-0.467
Mof_O 	O 	0.48277	0.36915	0.50637	-0.466
Mof_O 	O 	0.36915	0.88638	0.49363	-0.466
Mof_O 	O 	0.65939	0.45933	0.71026	-0.68
Mof_O 	O 	0.45933	0.79994	0.28974	-0.68
Mof_O 	O 	0.88638	0.36915	0.50637	-0.466
Mof_O 	O 	0.33333	0.66666	0.25	-1.158
Mof_O 	O 	0.88638	0.36915	0.99363	-0.467
Mof_O 	O 	0.79994	0.34061	0.71026	-0.68
Mof_O 	O 	0.88638	0.51723	0.50637	-0.466
Mof_O 	O 	0.4435	0.4082	0.04387	-0.48
Mof_O 	O 	0.5565	0.5918	0.95613	-0.48
Mof_O 	O 	0.9647	0.5565	0.45613	-0.48
Mof_O 	O 	0.79994	0.34061	0.78974	-0.68
Mof_O 	O 	0.5918	0.0353	0.04387	-0.48
Mof_O 	O 	0.79994	0.45933	0.71026	-0.68
Mof_O 	O 	0.65939	0.45933	0.78974	-0.68
Mof_O 	O 	0.66667	0.33334	0.75	-1.158
Mof_O 	O 	0.5565	0.5918	0.54387	-0.48
Mof_O 	O 	0.0353	0.4435	0.54387	-0.48
Mof_O 	O 	0.11362	0.63085	0.49363	-0.466
Mof_O 	O 	0.63085	0.51723	0.99363	-0.466
Mof_O 	O 	0.5918	0.5565	0.04387	-0.48
Mof_O 	O 	0.11362	0.48277	0.00637	-0.467
Mof_O 	O 	0.5565	0.9647	0.54387	-0.48
Mof_O 	O 	0.79994	0.45933	0.78974	-0.68
Mof_O 	O 	0.0353	0.5918	0.54387	-0.48
Mof_O 	O 	0.36915	0.88638	0.00637	-0.467
Mof_O 	O 	0.20006	0.65939	0.28974	-0.68
Mof_O 	O 	0.51723	0.88638	0.00637	-0.467
Mof_O 	O 	0.54067	0.20006	0.71026	-0.68
Mof_O 	O 	0.4435	0.0353	0.04387	-0.48
Mof_O 	O 	0.9647	0.4082	0.04387	-0.48
Mof_O 	O 	0.45933	0.65939	0.21026	-0.68
Mof_O 	O 	0.54067	0.34061	0.78974	-0.68
Mof_O 	O 	0.20006	0.54067	0.28974	-0.68
Mof_O 	O 	0.4082	0.9647	0.54387	-0.48
Mof_O 	O 	0.36915	0.48277	0.00637	-0.466
Mof_O 	O 	0.0353	0.4435	0.95613	-0.48
Mof_O 	O 	0.34061	0.79994	0.21026	-0.68
Mof_O 	O 	0.51723	0.63085	0.49363	-0.466
Mof_O 	O 	0.5565	0.9647	0.95613	-0.48
Mof_O 	O 	0.0353	0.5918	0.95613	-0.48
Mof_O 	O 	0.4082	0.4435	0.95613	-0.48
Mof_O 	O 	0.88638	0.51723	0.99363	-0.467
Mof_O 	O 	0.65939	0.20006	0.78974	-0.68
Mof_O 	O 	0.63085	0.11362	0.99363	-0.467
Mof_O 	O 	0.51723	0.63085	0.00637	-0.466
Mof_O 	O 	0.34061	0.54067	0.21026	-0.68
Mof_O 	O 	0.34061	0.79994	0.28974	-0.68
Mof_O 	O 	0.48277	0.36915	0.99363	-0.466
Mof_O 	O 	0.4082	0.9647	0.95613	-0.48
Mof_O 	O 	0.36915	0.48277	0.49363	-0.466
Mof_O 	O 	0.48277	0.11362	0.99363	-0.467
Mof_O 	O 	0.20006	0.54067	0.21026	-0.68
Mof_O 	O 	0.63085	0.51723	0.50637	-0.466
Mof_O 	O 	0.45933	0.65939	0.28974	-0.68
Mof_O 	O 	0.9647	0.4082	0.45613	-0.48
Mof_O 	O 	0.4435	0.0353	0.45613	-0.48
Mof_O 	O 	0.51723	0.88638	0.49363	-0.466
Mof_O 	O 	0.20006	0.65939	0.21026	-0.68
Mof_O 	O 	0.11362	0.48277	0.49363	-0.466
Mof_O 	O 	0.5918	0.5565	0.45613	-0.48
Mof_O 	O 	0.54067	0.34061	0.71026	-0.68
Mof_O 	O 	0.54067	0.20006	0.78974	-0.68
Mof_O 	O 	0.34061	0.54067	0.28974	-0.68
Mof_O 	O 	0.4082	0.4435	0.54387	-0.48
_end
