data_functionalizedCrystal
_audit_creation_method	'EQeq! by Chris Wilmer'
_symmetry_space_group_name_H-M	'P1'
_symmetry_Int_Tables_number	1
_symmetry_cell_setting	triclinic
loop_
_symmetry_equiv_pos_as_xyz
  x,y,z
_cell_length_a	19.692
_cell_length_b	19.692
_cell_length_c	20.101
_cell_angle_alpha	90
_cell_angle_beta	90
_cell_angle_gamma	90
loop_
_atom_site_label
_atom_site_type_symbol
_atom_site_fract_x
_atom_site_fract_y
_atom_site_fract_z
_atom_site_charge
Mof_Mn	Mn	0.60456	0.51543	0.0273	0.674
Mof_N 	N 	0.8385	0.3695	0.82764	-0.184
Mof_N 	N 	0.6898	0.4785	0.95706	-0.145
Mof_N 	N 	0.7588	0.4693	0.95652	-0.093
Mof_N 	N 	0.71522	0.42061	0.86507	-0.186
Mof_N 	N 	0.55269	0.47066	0.93824	-0.16
Mof_N 	N 	0.4879	0.4638	0.91367	-0.165
Mof_N 	N 	0.5607	0.4267	0.83578	-0.143
Mof_C 	C 	0.8983	0.346	0.806	0.094
Mof_H 	H 	0.8986	0.3152	0.7709	-0.012
Mof_C 	C 	0.9591	0.3652	0.833	-0.153
Mof_H 	H 	0.9996	0.3478	0.8163	0.079
Mof_C 	C 	0.9596	0.4099	0.8843	0.068
Mof_H 	H 	0.0004	0.424	0.9031	0.005
Mof_C 	C 	0.8981	0.4342	0.9084	-0.137
Mof_H 	H 	0.8971	0.465	0.9435	0.083
Mof_C 	C 	0.8387	0.412	0.8795	0.074
Mof_C 	C 	0.7715	0.435	0.9006	0.077
Mof_C 	C 	0.6659	0.449	0.9023	0.077
Mof_C 	C 	0.5935	0.4482	0.8903	0.066
Mof_C 	C 	0.4953	0.4382	0.8534	0.096
Mof_H 	H 	0.4588	0.4289	0.8255	-0.003
Mof_Mn	Mn	0.10456	0.01543	0.5273	0.672
Mof_N 	N 	0.3385	0.8695	0.32764	-0.185
Mof_N 	N 	0.1898	0.9785	0.45706	-0.146
Mof_N 	N 	0.2588	0.9693	0.45652	-0.094
Mof_N 	N 	0.21522	0.92061	0.36507	-0.187
Mof_N 	N 	0.05269	0.97066	0.43824	-0.16
Mof_N 	N 	0.9879	0.9638	0.41367	-0.167
Mof_N 	N 	0.0607	0.9267	0.33578	-0.143
Mof_C 	C 	0.3983	0.846	0.306	0.093
Mof_H 	H 	0.3986	0.8152	0.2709	-0.013
Mof_C 	C 	0.4591	0.8652	0.333	-0.154
Mof_H 	H 	0.4996	0.8478	0.3163	0.078
Mof_C 	C 	0.4596	0.9099	0.3843	0.066
Mof_H 	H 	0.5004	0.924	0.4031	0.005
Mof_C 	C 	0.3981	0.9342	0.4084	-0.136
Mof_H 	H 	0.3971	0.965	0.4435	0.083
Mof_C 	C 	0.3387	0.912	0.3795	0.074
Mof_C 	C 	0.2715	0.935	0.4006	0.077
Mof_C 	C 	0.1659	0.949	0.4023	0.078
Mof_C 	C 	0.0935	0.9482	0.3903	0.066
Mof_C 	C 	0.9953	0.9382	0.3534	0.095
Mof_H 	H 	0.9588	0.9289	0.3255	-0.003
Mof_Mn	Mn	0.89544	0.48457	0.5273	0.673
Mof_N 	N 	0.6615	0.6305	0.32764	-0.185
Mof_N 	N 	0.8102	0.5215	0.45706	-0.146
Mof_N 	N 	0.7412	0.5307	0.45652	-0.094
Mof_N 	N 	0.78478	0.57939	0.36507	-0.187
Mof_N 	N 	0.94731	0.52934	0.43824	-0.161
Mof_N 	N 	0.0121	0.5362	0.41367	-0.166
Mof_N 	N 	0.9393	0.5733	0.33578	-0.144
Mof_C 	C 	0.6017	0.654	0.306	0.093
Mof_H 	H 	0.6014	0.6848	0.2709	-0.013
Mof_C 	C 	0.5409	0.6348	0.333	-0.154
Mof_H 	H 	0.5004	0.6522	0.3163	0.078
Mof_C 	C 	0.5404	0.5901	0.3843	0.066
Mof_H 	H 	0.4996	0.576	0.4031	0.005
Mof_C 	C 	0.6019	0.5658	0.4084	-0.136
Mof_H 	H 	0.6029	0.535	0.4435	0.083
Mof_C 	C 	0.6613	0.588	0.3795	0.074
Mof_C 	C 	0.7285	0.565	0.4006	0.077
Mof_C 	C 	0.8341	0.551	0.4023	0.077
Mof_C 	C 	0.9065	0.5518	0.3903	0.066
Mof_C 	C 	0.0047	0.5618	0.3534	0.096
Mof_H 	H 	0.0412	0.5711	0.3255	-0.003
Mof_Mn	Mn	0.39544	0.98457	0.0273	0.673
Mof_N 	N 	0.1615	0.1305	0.82764	-0.185
Mof_N 	N 	0.3102	0.0215	0.95706	-0.146
Mof_N 	N 	0.2412	0.0307	0.95652	-0.094
Mof_N 	N 	0.28478	0.07939	0.86507	-0.187
Mof_N 	N 	0.44731	0.02934	0.93824	-0.161
Mof_N 	N 	0.5121	0.0362	0.91367	-0.166
Mof_N 	N 	0.4393	0.0733	0.83578	-0.144
Mof_C 	C 	0.1017	0.154	0.806	0.091
Mof_H 	H 	0.1014	0.1848	0.7709	-0.012
Mof_C 	C 	0.0409	0.1348	0.833	-0.151
Mof_H 	H 	0.0004	0.1522	0.8163	0.077
Mof_C 	C 	0.0404	0.0901	0.8843	0.063
Mof_H 	H 	0.9996	0.076	0.9031	0.007
Mof_C 	C 	0.1019	0.0658	0.9084	-0.134
Mof_H 	H 	0.1029	0.035	0.9435	0.082
Mof_C 	C 	0.1613	0.088	0.8795	0.073
Mof_C 	C 	0.2285	0.065	0.9006	0.077
Mof_C 	C 	0.3341	0.051	0.9023	0.077
Mof_C 	C 	0.4065	0.0518	0.8903	0.066
Mof_C 	C 	0.5047	0.0618	0.8534	0.096
Mof_H 	H 	0.5412	0.0711	0.8255	-0.003
Mof_Mn	Mn	0.23457	0.85456	0.2773	0.673
Mof_N 	N 	0.3805	0.0885	0.07764	-0.185
Mof_N 	N 	0.2715	0.9398	0.20706	-0.146
Mof_N 	N 	0.2807	0.0088	0.20652	-0.094
Mof_N 	N 	0.32939	0.96522	0.11507	-0.187
Mof_N 	N 	0.27934	0.80269	0.18824	-0.161
Mof_N 	N 	0.2862	0.7379	0.16367	-0.166
Mof_N 	N 	0.3233	0.8107	0.08578	-0.144
Mof_C 	C 	0.404	0.1483	0.056	0.093
Mof_H 	H 	0.4348	0.1486	0.0209	-0.013
Mof_C 	C 	0.3848	0.2091	0.083	-0.154
Mof_H 	H 	0.4022	0.2496	0.0663	0.078
Mof_C 	C 	0.3401	0.2096	0.1343	0.066
Mof_H 	H 	0.326	0.2504	0.1531	0.005
Mof_C 	C 	0.3158	0.1481	0.1584	-0.136
Mof_H 	H 	0.285	0.1471	0.1935	0.083
Mof_C 	C 	0.338	0.0887	0.1295	0.074
Mof_C 	C 	0.315	0.0215	0.1506	0.077
Mof_C 	C 	0.301	0.9159	0.1523	0.078
Mof_C 	C 	0.3018	0.8435	0.1403	0.066
Mof_C 	C 	0.3118	0.7453	0.1034	0.096
Mof_H 	H 	0.3211	0.7088	0.0755	-0.003
Mof_Mn	Mn	0.73457	0.35456	0.7773	0.673
Mof_N 	N 	0.8805	0.5885	0.57764	-0.185
Mof_N 	N 	0.7715	0.4398	0.70706	-0.146
Mof_N 	N 	0.7807	0.5088	0.70652	-0.094
Mof_N 	N 	0.82939	0.46522	0.61507	-0.187
Mof_N 	N 	0.77934	0.30269	0.68824	-0.161
Mof_N 	N 	0.7862	0.2379	0.66367	-0.166
Mof_N 	N 	0.8233	0.3107	0.58578	-0.144
Mof_C 	C 	0.904	0.6483	0.556	0.093
Mof_H 	H 	0.9348	0.6486	0.5209	-0.013
Mof_C 	C 	0.8848	0.7091	0.583	-0.154
Mof_H 	H 	0.9022	0.7496	0.5663	0.078
Mof_C 	C 	0.8401	0.7096	0.6343	0.066
Mof_H 	H 	0.826	0.7504	0.6531	0.005
Mof_C 	C 	0.8158	0.6481	0.6584	-0.136
Mof_H 	H 	0.785	0.6471	0.6935	0.083
Mof_C 	C 	0.838	0.5887	0.6295	0.074
Mof_C 	C 	0.815	0.5215	0.6506	0.077
Mof_C 	C 	0.801	0.4159	0.6523	0.077
Mof_C 	C 	0.8018	0.3435	0.6403	0.066
Mof_C 	C 	0.8118	0.2453	0.6034	0.096
Mof_H 	H 	0.8211	0.2088	0.5755	-0.003
Mof_Mn	Mn	0.26543	0.14544	0.7773	0.673
Mof_N 	N 	0.1195	0.9115	0.57764	-0.185
Mof_N 	N 	0.2285	0.0602	0.70706	-0.146
Mof_N 	N 	0.2193	0.9912	0.70652	-0.094
Mof_N 	N 	0.17061	0.03478	0.61507	-0.187
Mof_N 	N 	0.22066	0.19731	0.68824	-0.161
Mof_N 	N 	0.2138	0.2621	0.66367	-0.166
Mof_N 	N 	0.1767	0.1893	0.58578	-0.144
Mof_C 	C 	0.096	0.8517	0.556	0.093
Mof_H 	H 	0.0652	0.8514	0.5209	-0.013
Mof_C 	C 	0.1152	0.7909	0.583	-0.154
Mof_H 	H 	0.0978	0.7504	0.5663	0.078
Mof_C 	C 	0.1599	0.7904	0.6343	0.066
Mof_H 	H 	0.174	0.7496	0.6531	0.005
Mof_C 	C 	0.1842	0.8519	0.6584	-0.136
Mof_H 	H 	0.215	0.8529	0.6935	0.083
Mof_C 	C 	0.162	0.9113	0.6295	0.074
Mof_C 	C 	0.185	0.9785	0.6506	0.078
Mof_C 	C 	0.199	0.0841	0.6523	0.077
Mof_C 	C 	0.1982	0.1565	0.6403	0.066
Mof_C 	C 	0.1882	0.2547	0.6034	0.096
Mof_H 	H 	0.1789	0.2912	0.5755	-0.003
Mof_Mn	Mn	0.76543	0.64544	0.2773	0.673
Mof_N 	N 	0.6195	0.4115	0.07764	-0.185
Mof_N 	N 	0.7285	0.5602	0.20706	-0.146
Mof_N 	N 	0.7193	0.4912	0.20652	-0.094
Mof_N 	N 	0.67061	0.53478	0.11507	-0.187
Mof_N 	N 	0.72066	0.69731	0.18824	-0.161
Mof_N 	N 	0.7138	0.7621	0.16367	-0.166
Mof_N 	N 	0.6767	0.6893	0.08578	-0.144
Mof_C 	C 	0.596	0.3517	0.056	0.093
Mof_H 	H 	0.5652	0.3514	0.0209	-0.013
Mof_C 	C 	0.6152	0.2909	0.083	-0.154
Mof_H 	H 	0.5978	0.2504	0.0663	0.078
Mof_C 	C 	0.6599	0.2904	0.1343	0.066
Mof_H 	H 	0.674	0.2496	0.1531	0.005
Mof_C 	C 	0.6842	0.3519	0.1584	-0.136
Mof_H 	H 	0.715	0.3529	0.1935	0.083
Mof_C 	C 	0.662	0.4113	0.1295	0.074
Mof_C 	C 	0.685	0.4785	0.1506	0.077
Mof_C 	C 	0.699	0.5841	0.1523	0.077
Mof_C 	C 	0.6982	0.6565	0.1403	0.066
Mof_C 	C 	0.6882	0.7547	0.1034	0.096
Mof_H 	H 	0.6789	0.7912	0.0755	-0.003
Mof_Mn	Mn	0.39544	0.48457	0.9727	0.673
Mof_N 	N 	0.1615	0.6305	0.17236	-0.185
Mof_N 	N 	0.3102	0.5215	0.04294	-0.146
Mof_N 	N 	0.2412	0.5307	0.04348	-0.094
Mof_N 	N 	0.28478	0.57939	0.13493	-0.187
Mof_N 	N 	0.44731	0.52934	0.06176	-0.161
Mof_N 	N 	0.5121	0.5362	0.08633	-0.166
Mof_N 	N 	0.4393	0.5733	0.16422	-0.144
Mof_C 	C 	0.1017	0.654	0.194	0.093
Mof_H 	H 	0.1014	0.6848	0.2291	-0.013
Mof_C 	C 	0.0409	0.6348	0.167	-0.154
Mof_H 	H 	0.0004	0.6522	0.1837	0.078
Mof_C 	C 	0.0404	0.5901	0.1157	0.067
Mof_H 	H 	0.9996	0.576	0.0969	0.004
Mof_C 	C 	0.1019	0.5658	0.0916	-0.137
Mof_H 	H 	0.1029	0.535	0.0565	0.083
Mof_C 	C 	0.1613	0.588	0.1205	0.074
Mof_C 	C 	0.2285	0.565	0.0994	0.077
Mof_C 	C 	0.3341	0.551	0.0977	0.077
Mof_C 	C 	0.4065	0.5518	0.1097	0.066
Mof_C 	C 	0.5047	0.5618	0.1466	0.096
Mof_H 	H 	0.5412	0.5711	0.1745	-0.003
Mof_Mn	Mn	0.89544	0.98457	0.4727	0.672
Mof_N 	N 	0.6615	0.1305	0.67236	-0.185
Mof_N 	N 	0.8102	0.0215	0.54294	-0.146
Mof_N 	N 	0.7412	0.0307	0.54348	-0.094
Mof_N 	N 	0.78478	0.07939	0.63493	-0.187
Mof_N 	N 	0.94731	0.02934	0.56176	-0.16
Mof_N 	N 	0.0121	0.0362	0.58633	-0.167
Mof_N 	N 	0.9393	0.0733	0.66422	-0.143
Mof_C 	C 	0.6017	0.154	0.694	0.093
Mof_H 	H 	0.6014	0.1848	0.7291	-0.013
Mof_C 	C 	0.5409	0.1348	0.667	-0.154
Mof_H 	H 	0.5004	0.1522	0.6837	0.078
Mof_C 	C 	0.5404	0.0901	0.6157	0.066
Mof_H 	H 	0.4996	0.076	0.5969	0.005
Mof_C 	C 	0.6019	0.0658	0.5916	-0.136
Mof_H 	H 	0.6029	0.035	0.5565	0.083
Mof_C 	C 	0.6613	0.088	0.6205	0.074
Mof_C 	C 	0.7285	0.065	0.5994	0.077
Mof_C 	C 	0.8341	0.051	0.5977	0.078
Mof_C 	C 	0.9065	0.0518	0.6097	0.066
Mof_C 	C 	0.0047	0.0618	0.6466	0.095
Mof_H 	H 	0.0412	0.0711	0.6745	-0.003
Mof_Mn	Mn	0.10456	0.51543	0.4727	0.673
Mof_N 	N 	0.3385	0.3695	0.67236	-0.185
Mof_N 	N 	0.1898	0.4785	0.54294	-0.146
Mof_N 	N 	0.2588	0.4693	0.54348	-0.094
Mof_N 	N 	0.21522	0.42061	0.63493	-0.187
Mof_N 	N 	0.05269	0.47066	0.56176	-0.161
Mof_N 	N 	0.9879	0.4638	0.58633	-0.166
Mof_N 	N 	0.0607	0.4267	0.66422	-0.144
Mof_C 	C 	0.3983	0.346	0.694	0.093
Mof_H 	H 	0.3986	0.3152	0.7291	-0.013
Mof_C 	C 	0.4591	0.3652	0.667	-0.154
Mof_H 	H 	0.4996	0.3478	0.6837	0.078
Mof_C 	C 	0.4596	0.4099	0.6157	0.066
Mof_H 	H 	0.5004	0.424	0.5969	0.005
Mof_C 	C 	0.3981	0.4342	0.5916	-0.136
Mof_H 	H 	0.3971	0.465	0.5565	0.083
Mof_C 	C 	0.3387	0.412	0.6205	0.074
Mof_C 	C 	0.2715	0.435	0.5994	0.077
Mof_C 	C 	0.1659	0.449	0.5977	0.077
Mof_C 	C 	0.0935	0.4482	0.6097	0.066
Mof_C 	C 	0.9953	0.4382	0.6466	0.096
Mof_H 	H 	0.9588	0.4289	0.6745	-0.003
Mof_Mn	Mn	0.60456	0.01543	0.9727	0.673
Mof_N 	N 	0.8385	0.8695	0.17236	-0.185
Mof_N 	N 	0.6898	0.9785	0.04294	-0.146
Mof_N 	N 	0.7588	0.9693	0.04348	-0.094
Mof_N 	N 	0.71522	0.92061	0.13493	-0.187
Mof_N 	N 	0.55269	0.97066	0.06176	-0.161
Mof_N 	N 	0.4879	0.9638	0.08633	-0.166
Mof_N 	N 	0.5607	0.9267	0.16422	-0.144
Mof_C 	C 	0.8983	0.846	0.194	0.091
Mof_H 	H 	0.8986	0.8152	0.2291	-0.012
Mof_C 	C 	0.9591	0.8652	0.167	-0.151
Mof_H 	H 	0.9996	0.8478	0.1837	0.077
Mof_C 	C 	0.9596	0.9099	0.1157	0.063
Mof_H 	H 	0.0004	0.924	0.0969	0.007
Mof_C 	C 	0.8981	0.9342	0.0916	-0.134
Mof_H 	H 	0.8971	0.965	0.0565	0.082
Mof_C 	C 	0.8387	0.912	0.1205	0.073
Mof_C 	C 	0.7715	0.935	0.0994	0.077
Mof_C 	C 	0.6659	0.949	0.0977	0.077
Mof_C 	C 	0.5935	0.9482	0.1097	0.066
Mof_C 	C 	0.4953	0.9382	0.1466	0.096
Mof_H 	H 	0.4588	0.9289	0.1745	-0.003
Mof_Mn	Mn	0.76543	0.14544	0.7227	0.673
Mof_N 	N 	0.6195	0.9115	0.92236	-0.185
Mof_N 	N 	0.7285	0.0602	0.79294	-0.146
Mof_N 	N 	0.7193	0.9912	0.79348	-0.094
Mof_N 	N 	0.67061	0.03478	0.88493	-0.187
Mof_N 	N 	0.72066	0.19731	0.81176	-0.161
Mof_N 	N 	0.7138	0.2621	0.83633	-0.166
Mof_N 	N 	0.6767	0.1893	0.91422	-0.144
Mof_C 	C 	0.596	0.8517	0.944	0.093
Mof_H 	H 	0.5652	0.8514	0.9791	-0.013
Mof_C 	C 	0.6152	0.7909	0.917	-0.154
Mof_H 	H 	0.5978	0.7504	0.9337	0.078
Mof_C 	C 	0.6599	0.7904	0.8657	0.066
Mof_H 	H 	0.674	0.7496	0.8469	0.005
Mof_C 	C 	0.6842	0.8519	0.8416	-0.136
Mof_H 	H 	0.715	0.8529	0.8065	0.083
Mof_C 	C 	0.662	0.9113	0.8705	0.074
Mof_C 	C 	0.685	0.9785	0.8494	0.077
Mof_C 	C 	0.699	0.0841	0.8477	0.078
Mof_C 	C 	0.6982	0.1565	0.8597	0.066
Mof_C 	C 	0.6882	0.2547	0.8966	0.096
Mof_H 	H 	0.6789	0.2912	0.9245	-0.003
Mof_Mn	Mn	0.26543	0.64544	0.2227	0.673
Mof_N 	N 	0.1195	0.4115	0.42236	-0.185
Mof_N 	N 	0.2285	0.5602	0.29294	-0.146
Mof_N 	N 	0.2193	0.4912	0.29348	-0.094
Mof_N 	N 	0.17061	0.53478	0.38493	-0.187
Mof_N 	N 	0.22066	0.69731	0.31176	-0.161
Mof_N 	N 	0.2138	0.7621	0.33633	-0.166
Mof_N 	N 	0.1767	0.6893	0.41422	-0.144
Mof_C 	C 	0.096	0.3517	0.444	0.093
Mof_H 	H 	0.0652	0.3514	0.4791	-0.013
Mof_C 	C 	0.1152	0.2909	0.417	-0.154
Mof_H 	H 	0.0978	0.2504	0.4337	0.078
Mof_C 	C 	0.1599	0.2904	0.3657	0.066
Mof_H 	H 	0.174	0.2496	0.3469	0.005
Mof_C 	C 	0.1842	0.3519	0.3416	-0.136
Mof_H 	H 	0.215	0.3529	0.3065	0.083
Mof_C 	C 	0.162	0.4113	0.3705	0.074
Mof_C 	C 	0.185	0.4785	0.3494	0.077
Mof_C 	C 	0.199	0.5841	0.3477	0.077
Mof_C 	C 	0.1982	0.6565	0.3597	0.066
Mof_C 	C 	0.1882	0.7547	0.3966	0.096
Mof_H 	H 	0.1789	0.7912	0.4245	-0.003
Mof_Mn	Mn	0.73457	0.85456	0.2227	0.673
Mof_N 	N 	0.8805	0.0885	0.42236	-0.185
Mof_N 	N 	0.7715	0.9398	0.29294	-0.146
Mof_N 	N 	0.7807	0.0088	0.29348	-0.094
Mof_N 	N 	0.82939	0.96522	0.38493	-0.187
Mof_N 	N 	0.77934	0.80269	0.31176	-0.161
Mof_N 	N 	0.7862	0.7379	0.33633	-0.166
Mof_N 	N 	0.8233	0.8107	0.41422	-0.144
Mof_C 	C 	0.904	0.1483	0.444	0.093
Mof_H 	H 	0.9348	0.1486	0.4791	-0.013
Mof_C 	C 	0.8848	0.2091	0.417	-0.154
Mof_H 	H 	0.9022	0.2496	0.4337	0.078
Mof_C 	C 	0.8401	0.2096	0.3657	0.066
Mof_H 	H 	0.826	0.2504	0.3469	0.005
Mof_C 	C 	0.8158	0.1481	0.3416	-0.136
Mof_H 	H 	0.785	0.1471	0.3065	0.083
Mof_C 	C 	0.838	0.0887	0.3705	0.074
Mof_C 	C 	0.815	0.0215	0.3494	0.078
Mof_C 	C 	0.801	0.9159	0.3477	0.077
Mof_C 	C 	0.8018	0.8435	0.3597	0.066
Mof_C 	C 	0.8118	0.7453	0.3966	0.096
Mof_H 	H 	0.8211	0.7088	0.4245	-0.003
Mof_Mn	Mn	0.23457	0.35456	0.7227	0.673
Mof_N 	N 	0.3805	0.5885	0.92236	-0.185
Mof_N 	N 	0.2715	0.4398	0.79294	-0.146
Mof_N 	N 	0.2807	0.5088	0.79348	-0.094
Mof_N 	N 	0.32939	0.46522	0.88493	-0.187
Mof_N 	N 	0.27934	0.30269	0.81176	-0.161
Mof_N 	N 	0.2862	0.2379	0.83633	-0.166
Mof_N 	N 	0.3233	0.3107	0.91422	-0.144
Mof_C 	C 	0.404	0.6483	0.944	0.093
Mof_H 	H 	0.4348	0.6486	0.9791	-0.013
Mof_C 	C 	0.3848	0.7091	0.917	-0.154
Mof_H 	H 	0.4022	0.7496	0.9337	0.078
Mof_C 	C 	0.3401	0.7096	0.8657	0.066
Mof_H 	H 	0.326	0.7504	0.8469	0.005
Mof_C 	C 	0.3158	0.6481	0.8416	-0.136
Mof_H 	H 	0.285	0.6471	0.8065	0.083
Mof_C 	C 	0.338	0.5887	0.8705	0.074
Mof_C 	C 	0.315	0.5215	0.8494	0.077
Mof_C 	C 	0.301	0.4159	0.8477	0.077
Mof_C 	C 	0.3018	0.3435	0.8597	0.066
Mof_C 	C 	0.3118	0.2453	0.8966	0.096
Mof_H 	H 	0.3211	0.2088	0.9245	-0.003
_end
