data_functionalizedCrystal
_audit_creation_method	'EQeq! by Chris Wilmer'
_symmetry_space_group_name_H-M	'P1'
_symmetry_Int_Tables_number	1
_symmetry_cell_setting	triclinic
loop_
_symmetry_equiv_pos_as_xyz
  x,y,z
_cell_length_a	12.297
_cell_length_b	26.057
_cell_length_c	26.084
_cell_angle_alpha	90
_cell_angle_beta	90
_cell_angle_gamma	90
loop_
_atom_site_label
_atom_site_type_symbol
_atom_site_fract_x
_atom_site_fract_y
_atom_site_fract_z
_atom_site_charge
Mof_Cu	Cu	0.07413	0.5064	0.96363	0.905
Mof_Cu	Cu	0.92587	0.4936	0.46363	0.905
Mof_Cu	Cu	0.92587	0.0064	0.53637	0.902
Mof_Cu	Cu	0.07413	0.9936	0.03637	0.901
Mof_Cu	Cu	0.92587	0.4936	0.03637	0.904
Mof_Cu	Cu	0.07413	0.5064	0.53637	0.905
Mof_Cu	Cu	0.07413	0.9936	0.46363	0.902
Mof_Cu	Cu	0.92587	0.0064	0.96363	0.902
Mof_Cu	Cu	0.85347	0.77572	0.75	0.9
Mof_Cu	Cu	0.004	0.70302	0.75	0.91
Mof_Cu	Cu	0.14653	0.22428	0.25	0.899
Mof_Cu	Cu	0.996	0.29698	0.25	0.909
Mof_Cu	Cu	0.14653	0.27572	0.75	0.899
Mof_Cu	Cu	0.996	0.20302	0.75	0.908
Mof_Cu	Cu	0.85347	0.72428	0.25	0.899
Mof_Cu	Cu	0.004	0.79698	0.25	0.908
Mof_H 	H 	0.2086	0.7556	0.867	0.109
Mof_H 	H 	0.2457	0.8673	0.9713	0.102
Mof_H 	H 	0.9998	0.8751	0.8689	0.082
Mof_H 	H 	0.4293	0.8245	0.9746	0.058
Mof_H 	H 	0.3351	0.8045	0.0103	0.056
Mof_H 	H 	0.577	0.7402	0.0548	0.06
Mof_H 	H 	0.4815	0.7753	0.0745	0.059
Mof_H 	H 	0.6603	0.7816	0.119	0.098
Mof_H 	H 	0.9026	0.8854	0.128	0.078
Mof_H 	H 	0.6987	0.8865	0.0072	0.107
Mof_H 	H 	0.7914	0.2444	0.367	0.109
Mof_H 	H 	0.7543	0.1327	0.4713	0.101
Mof_H 	H 	0.0002	0.1249	0.3689	0.082
Mof_H 	H 	0.5707	0.1755	0.4746	0.06
Mof_H 	H 	0.6649	0.1955	0.5103	0.059
Mof_H 	H 	0.423	0.2598	0.5548	0.061
Mof_H 	H 	0.5185	0.2247	0.5745	0.06
Mof_H 	H 	0.3397	0.2184	0.619	0.098
Mof_H 	H 	0.0974	0.1146	0.628	0.078
Mof_H 	H 	0.3013	0.1135	0.5072	0.107
Mof_H 	H 	0.7914	0.2556	0.633	0.108
Mof_H 	H 	0.7543	0.3673	0.5287	0.1
Mof_H 	H 	0.0002	0.3751	0.6311	0.077
Mof_H 	H 	0.5707	0.3245	0.5254	0.06
Mof_H 	H 	0.6649	0.3045	0.4897	0.059
Mof_H 	H 	0.423	0.2402	0.4452	0.061
Mof_H 	H 	0.5185	0.2753	0.4255	0.06
Mof_H 	H 	0.3397	0.2816	0.381	0.098
Mof_H 	H 	0.0974	0.3854	0.372	0.078
Mof_H 	H 	0.3013	0.3865	0.4928	0.107
Mof_H 	H 	0.2086	0.7444	0.133	0.108
Mof_H 	H 	0.2457	0.6327	0.0287	0.1
Mof_H 	H 	0.9998	0.6249	0.1311	0.077
Mof_H 	H 	0.4293	0.6755	0.0254	0.06
Mof_H 	H 	0.3351	0.6955	0.9897	0.061
Mof_H 	H 	0.577	0.7598	0.9452	0.06
Mof_H 	H 	0.4815	0.7247	0.9255	0.059
Mof_H 	H 	0.6603	0.7184	0.881	0.098
Mof_H 	H 	0.9026	0.6146	0.872	0.078
Mof_H 	H 	0.6987	0.6135	0.9928	0.107
Mof_H 	H 	0.7914	0.2444	0.133	0.109
Mof_H 	H 	0.7543	0.1327	0.0287	0.101
Mof_H 	H 	0.0002	0.1249	0.1311	0.082
Mof_H 	H 	0.5707	0.1755	0.0254	0.06
Mof_H 	H 	0.6649	0.1955	0.9897	0.059
Mof_H 	H 	0.423	0.2598	0.9452	0.06
Mof_H 	H 	0.5185	0.2247	0.9255	0.06
Mof_H 	H 	0.3397	0.2184	0.881	0.098
Mof_H 	H 	0.0974	0.1146	0.872	0.078
Mof_H 	H 	0.3013	0.1135	0.9928	0.107
Mof_H 	H 	0.2086	0.7556	0.633	0.109
Mof_H 	H 	0.2457	0.8673	0.5287	0.101
Mof_H 	H 	0.9998	0.8751	0.6311	0.082
Mof_H 	H 	0.4293	0.8245	0.5254	0.06
Mof_H 	H 	0.3351	0.8045	0.4897	0.059
Mof_H 	H 	0.577	0.7402	0.4452	0.061
Mof_H 	H 	0.4815	0.7753	0.4255	0.06
Mof_H 	H 	0.6603	0.7816	0.381	0.098
Mof_H 	H 	0.9026	0.8854	0.372	0.078
Mof_H 	H 	0.6987	0.8865	0.4928	0.107
Mof_H 	H 	0.2086	0.7444	0.367	0.108
Mof_H 	H 	0.2457	0.6327	0.4713	0.1
Mof_H 	H 	0.9998	0.6249	0.3689	0.077
Mof_H 	H 	0.4293	0.6755	0.4746	0.06
Mof_H 	H 	0.3351	0.6955	0.5103	0.059
Mof_H 	H 	0.577	0.7598	0.5548	0.061
Mof_H 	H 	0.4815	0.7247	0.5745	0.06
Mof_H 	H 	0.6603	0.7184	0.619	0.098
Mof_H 	H 	0.9026	0.6146	0.628	0.078
Mof_H 	H 	0.6987	0.6135	0.5072	0.107
Mof_H 	H 	0.7914	0.2556	0.867	0.108
Mof_H 	H 	0.7543	0.3673	0.9713	0.1
Mof_H 	H 	0.0002	0.3751	0.8689	0.078
Mof_H 	H 	0.5707	0.3245	0.9746	0.059
Mof_H 	H 	0.6649	0.3045	0.0103	0.057
Mof_H 	H 	0.423	0.2402	0.0548	0.06
Mof_H 	H 	0.5185	0.2753	0.0745	0.06
Mof_H 	H 	0.3397	0.2816	0.119	0.098
Mof_H 	H 	0.0974	0.3854	0.128	0.078
Mof_H 	H 	0.3013	0.3865	0.0072	0.106
Mof_C 	C 	0.0332	0.7865	0.8182	0.33
Mof_C 	C 	0.0946	0.8117	0.8611	-0.009
Mof_C 	C 	0.1858	0.7865	0.8812	-0.139
Mof_C 	C 	0.2421	0.8075	0.9221	0.201
Mof_C 	C 	0.2084	0.8535	0.9435	-0.145
Mof_C 	C 	0.1181	0.8791	0.9233	-0.007
Mof_C 	C 	0.0602	0.8582	0.8821	-0.051
Mof_C 	C 	0.0777	0.927	0.9488	0.328
Mof_C 	C 	0.3848	0.795	0.9831	-0.017
Mof_C 	C 	0.5267	0.7671	0.0452	-0.026
Mof_C 	C 	0.6665	0.8302	0.0582	0.194
Mof_C 	C 	0.698	0.8092	0.105	-0.139
Mof_C 	C 	0.7868	0.8302	0.1305	-0.01
Mof_C 	C 	0.843	0.8719	0.1106	-0.042
Mof_C 	C 	0.8088	0.8932	0.0643	-0.011
Mof_C 	C 	0.721	0.8723	0.0382	-0.135
Mof_C 	C 	0.83	0.8061	0.1791	0.335
Mof_C 	C 	0.8744	0.9358	0.0405	0.332
Mof_C 	C 	0.9668	0.2135	0.3182	0.33
Mof_C 	C 	0.9054	0.1883	0.3611	-0.009
Mof_C 	C 	0.8142	0.2135	0.3812	-0.139
Mof_C 	C 	0.7579	0.1925	0.4221	0.2
Mof_C 	C 	0.7916	0.1465	0.4435	-0.145
Mof_C 	C 	0.8819	0.1209	0.4233	-0.008
Mof_C 	C 	0.9398	0.1418	0.3821	-0.051
Mof_C 	C 	0.9223	0.073	0.4488	0.328
Mof_C 	C 	0.6152	0.205	0.4831	-0.024
Mof_C 	C 	0.4733	0.2329	0.5452	-0.028
Mof_C 	C 	0.3335	0.1698	0.5582	0.194
Mof_C 	C 	0.302	0.1908	0.605	-0.139
Mof_C 	C 	0.2132	0.1698	0.6305	-0.01
Mof_C 	C 	0.157	0.1281	0.6106	-0.042
Mof_C 	C 	0.1912	0.1068	0.5643	-0.01
Mof_C 	C 	0.279	0.1277	0.5382	-0.135
Mof_C 	C 	0.17	0.1939	0.6791	0.335
Mof_C 	C 	0.1256	0.0642	0.5405	0.332
Mof_C 	C 	0.9668	0.2865	0.6818	0.333
Mof_C 	C 	0.9054	0.3117	0.6389	-0.013
Mof_C 	C 	0.8142	0.2865	0.6188	-0.136
Mof_C 	C 	0.7579	0.3075	0.5779	0.198
Mof_C 	C 	0.7916	0.3535	0.5565	-0.142
Mof_C 	C 	0.8819	0.3791	0.5767	-0.012
Mof_C 	C 	0.9398	0.3582	0.6179	-0.043
Mof_C 	C 	0.9223	0.427	0.5512	0.334
Mof_C 	C 	0.6152	0.295	0.5169	-0.025
Mof_C 	C 	0.4733	0.2671	0.4548	-0.028
Mof_C 	C 	0.3335	0.3302	0.4418	0.194
Mof_C 	C 	0.302	0.3092	0.395	-0.139
Mof_C 	C 	0.2132	0.3302	0.3695	-0.011
Mof_C 	C 	0.157	0.3719	0.3894	-0.042
Mof_C 	C 	0.1912	0.3932	0.4357	-0.011
Mof_C 	C 	0.279	0.3723	0.4618	-0.135
Mof_C 	C 	0.17	0.3061	0.3209	0.335
Mof_C 	C 	0.1256	0.4358	0.4595	0.333
Mof_C 	C 	0.0332	0.7135	0.1818	0.333
Mof_C 	C 	0.0946	0.6883	0.1389	-0.013
Mof_C 	C 	0.1858	0.7135	0.1188	-0.136
Mof_C 	C 	0.2421	0.6925	0.0779	0.198
Mof_C 	C 	0.2084	0.6465	0.0565	-0.141
Mof_C 	C 	0.1181	0.6209	0.0767	-0.012
Mof_C 	C 	0.0602	0.6418	0.1179	-0.043
Mof_C 	C 	0.0777	0.573	0.0512	0.335
Mof_C 	C 	0.3848	0.705	0.0169	-0.026
Mof_C 	C 	0.5267	0.7329	0.9548	-0.024
Mof_C 	C 	0.6665	0.6698	0.9418	0.195
Mof_C 	C 	0.698	0.6908	0.895	-0.139
Mof_C 	C 	0.7868	0.6698	0.8695	-0.01
Mof_C 	C 	0.843	0.6281	0.8894	-0.042
Mof_C 	C 	0.8088	0.6068	0.9357	-0.011
Mof_C 	C 	0.721	0.6277	0.9618	-0.135
Mof_C 	C 	0.83	0.6939	0.8209	0.335
Mof_C 	C 	0.8744	0.5642	0.9595	0.333
Mof_C 	C 	0.9668	0.2135	0.1818	0.33
Mof_C 	C 	0.9054	0.1883	0.1389	-0.009
Mof_C 	C 	0.8142	0.2135	0.1188	-0.139
Mof_C 	C 	0.7579	0.1925	0.0779	0.2
Mof_C 	C 	0.7916	0.1465	0.0565	-0.145
Mof_C 	C 	0.8819	0.1209	0.0767	-0.008
Mof_C 	C 	0.9398	0.1418	0.1179	-0.051
Mof_C 	C 	0.9223	0.073	0.0512	0.328
Mof_C 	C 	0.6152	0.205	0.0169	-0.025
Mof_C 	C 	0.4733	0.2329	0.9548	-0.026
Mof_C 	C 	0.3335	0.1698	0.9418	0.195
Mof_C 	C 	0.302	0.1908	0.895	-0.139
Mof_C 	C 	0.2132	0.1698	0.8695	-0.01
Mof_C 	C 	0.157	0.1281	0.8894	-0.042
Mof_C 	C 	0.1912	0.1068	0.9357	-0.01
Mof_C 	C 	0.279	0.1277	0.9618	-0.135
Mof_C 	C 	0.17	0.1939	0.8209	0.335
Mof_C 	C 	0.1256	0.0642	0.9595	0.332
Mof_C 	C 	0.0332	0.7865	0.6818	0.33
Mof_C 	C 	0.0946	0.8117	0.6389	-0.009
Mof_C 	C 	0.1858	0.7865	0.6188	-0.139
Mof_C 	C 	0.2421	0.8075	0.5779	0.2
Mof_C 	C 	0.2084	0.8535	0.5565	-0.145
Mof_C 	C 	0.1181	0.8791	0.5767	-0.008
Mof_C 	C 	0.0602	0.8582	0.6179	-0.051
Mof_C 	C 	0.0777	0.927	0.5512	0.328
Mof_C 	C 	0.3848	0.795	0.5169	-0.024
Mof_C 	C 	0.5267	0.7671	0.4548	-0.028
Mof_C 	C 	0.6665	0.8302	0.4418	0.194
Mof_C 	C 	0.698	0.8092	0.395	-0.139
Mof_C 	C 	0.7868	0.8302	0.3695	-0.01
Mof_C 	C 	0.843	0.8719	0.3894	-0.042
Mof_C 	C 	0.8088	0.8932	0.4357	-0.01
Mof_C 	C 	0.721	0.8723	0.4618	-0.135
Mof_C 	C 	0.83	0.8061	0.3209	0.335
Mof_C 	C 	0.8744	0.9358	0.4595	0.332
Mof_C 	C 	0.0332	0.7135	0.3182	0.333
Mof_C 	C 	0.0946	0.6883	0.3611	-0.013
Mof_C 	C 	0.1858	0.7135	0.3812	-0.136
Mof_C 	C 	0.2421	0.6925	0.4221	0.198
Mof_C 	C 	0.2084	0.6465	0.4435	-0.142
Mof_C 	C 	0.1181	0.6209	0.4233	-0.012
Mof_C 	C 	0.0602	0.6418	0.3821	-0.043
Mof_C 	C 	0.0777	0.573	0.4488	0.334
Mof_C 	C 	0.3848	0.705	0.4831	-0.025
Mof_C 	C 	0.5267	0.7329	0.5452	-0.028
Mof_C 	C 	0.6665	0.6698	0.5582	0.194
Mof_C 	C 	0.698	0.6908	0.605	-0.139
Mof_C 	C 	0.7868	0.6698	0.6305	-0.011
Mof_C 	C 	0.843	0.6281	0.6106	-0.042
Mof_C 	C 	0.8088	0.6068	0.5643	-0.011
Mof_C 	C 	0.721	0.6277	0.5382	-0.135
Mof_C 	C 	0.83	0.6939	0.6791	0.335
Mof_C 	C 	0.8744	0.5642	0.5405	0.333
Mof_C 	C 	0.9668	0.2865	0.8182	0.333
Mof_C 	C 	0.9054	0.3117	0.8611	-0.013
Mof_C 	C 	0.8142	0.2865	0.8812	-0.136
Mof_C 	C 	0.7579	0.3075	0.9221	0.199
Mof_C 	C 	0.7916	0.3535	0.9435	-0.142
Mof_C 	C 	0.8819	0.3791	0.9233	-0.011
Mof_C 	C 	0.9398	0.3582	0.8821	-0.043
Mof_C 	C 	0.9223	0.427	0.9488	0.334
Mof_C 	C 	0.6152	0.295	0.9831	-0.021
Mof_C 	C 	0.4733	0.2671	0.0452	-0.027
Mof_C 	C 	0.3335	0.3302	0.0582	0.194
Mof_C 	C 	0.302	0.3092	0.105	-0.139
Mof_C 	C 	0.2132	0.3302	0.1305	-0.011
Mof_C 	C 	0.157	0.3719	0.1106	-0.042
Mof_C 	C 	0.1912	0.3932	0.0643	-0.011
Mof_C 	C 	0.279	0.3723	0.0382	-0.135
Mof_C 	C 	0.17	0.3061	0.1791	0.335
Mof_C 	C 	0.1256	0.4358	0.0405	0.333
Mof_C 	C 	0.4566	0.75	-0	0.047
Mof_C 	C 	0.5434	0.25	0.5	0.052
Mof_C 	C 	0.5434	0.25	-0	0.05
Mof_C 	C 	0.4566	0.75	0.5	0.052
Mof_O 	O 	0.9476	0.80776	0.80311	-0.391
Mof_O 	O 	0.0713	0.7447	0.8024	-0.405
Mof_O 	O 	0.9978	0.94903	0.92876	-0.391
Mof_O 	O 	0.1247	0.93955	0.98967	-0.401
Mof_O 	O 	0.3255	0.7781	0.9389	-0.224
Mof_O 	O 	0.5849	0.81184	0.02822	-0.22
Mof_O 	O 	0.7853	0.76641	0.19545	-0.398
Mof_O 	O 	0.9136	0.8273	0.1975	-0.402
Mof_O 	O 	0.962	0.94671	0.06211	-0.403
Mof_O 	O 	0.8369	0.95567	2e-05	-0.392
Mof_O 	O 	0.0524	0.19224	0.30311	-0.391
Mof_O 	O 	0.9287	0.2553	0.3024	-0.405
Mof_O 	O 	0.0022	0.05097	0.42876	-0.392
Mof_O 	O 	0.8753	0.06045	0.48967	-0.402
Mof_O 	O 	0.6745	0.2219	0.4389	-0.222
Mof_O 	O 	0.4151	0.18816	0.52822	-0.219
Mof_O 	O 	0.2147	0.23359	0.69545	-0.398
Mof_O 	O 	0.0864	0.1727	0.6975	-0.401
Mof_O 	O 	0.038	0.05329	0.56211	-0.403
Mof_O 	O 	0.1631	0.04433	0.50002	-0.391
Mof_O 	O 	0.0524	0.30776	0.69689	-0.392
Mof_O 	O 	0.9287	0.2447	0.6976	-0.405
Mof_O 	O 	0.0022	0.44903	0.57124	-0.397
Mof_O 	O 	0.8753	0.43955	0.51033	-0.402
Mof_O 	O 	0.6745	0.2781	0.5611	-0.222
Mof_O 	O 	0.4151	0.31184	0.47178	-0.219
Mof_O 	O 	0.2147	0.26641	0.30455	-0.398
Mof_O 	O 	0.0864	0.3273	0.3025	-0.402
Mof_O 	O 	0.038	0.44671	0.43789	-0.405
Mof_O 	O 	0.1631	0.45567	0.49998	-0.393
Mof_O 	O 	0.9476	0.69224	0.19689	-0.392
Mof_O 	O 	0.0713	0.7553	0.1976	-0.406
Mof_O 	O 	0.9978	0.55097	0.07124	-0.397
Mof_O 	O 	0.1247	0.56045	0.01033	-0.403
Mof_O 	O 	0.3255	0.7219	0.0611	-0.222
Mof_O 	O 	0.5849	0.68816	0.97178	-0.219
Mof_O 	O 	0.7853	0.73359	0.80455	-0.398
Mof_O 	O 	0.9136	0.6727	0.8025	-0.402
Mof_O 	O 	0.962	0.55329	0.93789	-0.405
Mof_O 	O 	0.8369	0.54433	0.99998	-0.392
Mof_O 	O 	0.0524	0.19224	0.19689	-0.391
Mof_O 	O 	0.9287	0.2553	0.1976	-0.405
Mof_O 	O 	0.0022	0.05097	0.07124	-0.392
Mof_O 	O 	0.8753	0.06045	0.01033	-0.402
Mof_O 	O 	0.6745	0.2219	0.0611	-0.222
Mof_O 	O 	0.4151	0.18816	0.97178	-0.219
Mof_O 	O 	0.2147	0.23359	0.80455	-0.398
Mof_O 	O 	0.0864	0.1727	0.8025	-0.401
Mof_O 	O 	0.038	0.05329	0.93789	-0.403
Mof_O 	O 	0.1631	0.04433	0.99998	-0.391
Mof_O 	O 	0.9476	0.80776	0.69689	-0.391
Mof_O 	O 	0.0713	0.7447	0.6976	-0.405
Mof_O 	O 	0.9978	0.94903	0.57124	-0.392
Mof_O 	O 	0.1247	0.93955	0.51033	-0.402
Mof_O 	O 	0.3255	0.7781	0.5611	-0.222
Mof_O 	O 	0.5849	0.81184	0.47178	-0.219
Mof_O 	O 	0.7853	0.76641	0.30455	-0.398
Mof_O 	O 	0.9136	0.8273	0.3025	-0.402
Mof_O 	O 	0.962	0.94671	0.43789	-0.403
Mof_O 	O 	0.8369	0.95567	0.49998	-0.391
Mof_O 	O 	0.9476	0.69224	0.30311	-0.392
Mof_O 	O 	0.0713	0.7553	0.3024	-0.406
Mof_O 	O 	0.9978	0.55097	0.42876	-0.397
Mof_O 	O 	0.1247	0.56045	0.48967	-0.402
Mof_O 	O 	0.3255	0.7219	0.4389	-0.222
Mof_O 	O 	0.5849	0.68816	0.52822	-0.219
Mof_O 	O 	0.7853	0.73359	0.69545	-0.398
Mof_O 	O 	0.9136	0.6727	0.6975	-0.402
Mof_O 	O 	0.962	0.55329	0.56211	-0.405
Mof_O 	O 	0.8369	0.54433	0.50002	-0.393
Mof_O 	O 	0.0524	0.30776	0.80311	-0.392
Mof_O 	O 	0.9287	0.2447	0.8024	-0.405
Mof_O 	O 	0.0022	0.44903	0.92876	-0.396
Mof_O 	O 	0.8753	0.43955	0.98967	-0.402
Mof_O 	O 	0.6745	0.2781	0.9389	-0.222
Mof_O 	O 	0.4151	0.31184	0.02822	-0.22
Mof_O 	O 	0.2147	0.26641	0.19545	-0.398
Mof_O 	O 	0.0864	0.3273	0.1975	-0.402
Mof_O 	O 	0.038	0.44671	0.06211	-0.405
Mof_O 	O 	0.1631	0.45567	2e-05	-0.393
_end
