data_functionalizedCrystal
_audit_creation_method	'EQeq! by Chris Wilmer'
_symmetry_space_group_name_H-M	'P1'
_symmetry_Int_Tables_number	1
_symmetry_cell_setting	triclinic
loop_
_symmetry_equiv_pos_as_xyz
  x,y,z
_cell_length_a	8.2412
_cell_length_b	10.8347
_cell_length_c	22.8445
_cell_angle_alpha	82.9155
_cell_angle_beta	79.6083
_cell_angle_gamma	67.6467
loop_
_atom_site_label
_atom_site_type_symbol
_atom_site_fract_x
_atom_site_fract_y
_atom_site_fract_z
_atom_site_charge
Mof_Ag	Ag	0.14057	0.11663	0.15297	0.692
Mof_Ag	Ag	0.41017	0.38337	0.34703	0.698
Mof_Ag	Ag	0.85943	0.88337	0.84703	0.692
Mof_Ag	Ag	0.58983	0.61663	0.65297	0.698
Mof_H 	H 	0.248	0.1561	0.9953	0.023
Mof_H 	H 	0.8176	0.3741	0.0935	0.027
Mof_H 	H 	0.6701	0.8605	0.7221	-0.002
Mof_H 	H 	0.6175	0.5295	0.7953	0.008
Mof_H 	H 	0.9918	0.9732	0.0702	0.026
Mof_H 	H 	0.4853	0.8205	0.0991	0.019
Mof_H 	H 	0.3994	0.3439	0.5047	0.021
Mof_H 	H 	0.2852	0.1259	0.4065	0.027
Mof_H 	H 	0.2527	0.6395	0.7779	-0.002
Mof_H 	H 	0.9423	0.9705	0.7047	0.002
Mof_H 	H 	0.0352	0.5268	0.4298	0.026
Mof_H 	H 	0.4049	0.6795	0.4009	0.019
Mof_H 	H 	0.752	0.8439	0.0047	0.023
Mof_H 	H 	0.1824	0.6259	0.9065	0.027
Mof_H 	H 	0.3299	0.1395	0.2779	-0.002
Mof_H 	H 	0.3825	0.4705	0.2047	0.008
Mof_H 	H 	0.0082	0.0268	0.9298	0.026
Mof_H 	H 	0.5147	0.1795	0.9009	0.019
Mof_H 	H 	0.6006	0.6561	0.4953	0.021
Mof_H 	H 	0.7148	0.8741	0.5935	0.027
Mof_H 	H 	0.7473	0.3605	0.2221	-0.002
Mof_H 	H 	0.0577	0.0295	0.2953	0.002
Mof_H 	H 	0.9648	0.4732	0.5702	0.026
Mof_H 	H 	0.5951	0.3205	0.5991	0.019
Mof_C 	C 	0.62336	0.58377	0.02051	0.112
Mof_C 	C 	0.76676	0.50018	0.9791	0.032
Mof_C 	C 	0.77415	0.53066	0.91824	0.038
Mof_C 	C 	0.64985	0.64463	0.89407	0.039
Mof_C 	C 	0.51898	0.73016	0.93328	0.03
Mof_C 	C 	0.50542	0.70269	0.99427	0.025
Mof_C 	C 	0.13662	0.22446	0.0067	0.102
Mof_C 	C 	0.9067	0.3392	0.0608	0.12
Mof_C 	C 	0.6641	0.79066	0.75094	0.124
Mof_C 	C 	0.6354	0.61202	0.78918	0.115
Mof_C 	C 	0.11553	0.92223	0.06551	0.106
Mof_C 	C 	0.37962	0.84196	0.0824	0.117
Mof_C 	C 	0.22764	0.91623	0.47949	0.111
Mof_C 	C 	0.24604	0.99982	0.5209	0.034
Mof_C 	C 	0.22305	0.96934	0.58176	0.038
Mof_C 	C 	0.18855	0.85537	0.60593	0.04
Mof_C 	C 	0.18242	0.76984	0.56672	0.03
Mof_C 	C 	0.20238	0.79731	0.50573	0.026
Mof_C 	C 	0.36778	0.27554	0.4933	0.106
Mof_C 	C 	0.3067	0.1608	0.4392	0.117
Mof_C 	C 	0.2057	0.70934	0.74906	0.125
Mof_C 	C 	0.0366	0.88798	0.71082	0.123
Mof_C 	C 	0.10327	0.57777	0.43449	0.105
Mof_C 	C 	0.30398	0.65804	0.4176	0.117
Mof_C 	C 	0.37664	0.41623	0.97949	0.112
Mof_C 	C 	0.23324	0.49982	0.0209	0.032
Mof_C 	C 	0.22585	0.46934	0.08176	0.038
Mof_C 	C 	0.35015	0.35537	0.10593	0.039
Mof_C 	C 	0.48102	0.26984	0.06672	0.03
Mof_C 	C 	0.49458	0.29731	0.00573	0.025
Mof_C 	C 	0.86338	0.77554	0.9933	0.102
Mof_C 	C 	0.0933	0.6608	0.9392	0.12
Mof_C 	C 	0.3359	0.20934	0.24906	0.124
Mof_C 	C 	0.3646	0.38798	0.21082	0.115
Mof_C 	C 	0.88447	0.07777	0.93449	0.106
Mof_C 	C 	0.62038	0.15804	0.9176	0.117
Mof_C 	C 	0.77236	0.08377	0.52051	0.111
Mof_C 	C 	0.75396	0.00018	0.4791	0.034
Mof_C 	C 	0.77695	0.03066	0.41824	0.038
Mof_C 	C 	0.81145	0.14463	0.39407	0.04
Mof_C 	C 	0.81758	0.23016	0.43328	0.03
Mof_C 	C 	0.79762	0.20269	0.49427	0.026
Mof_C 	C 	0.63222	0.72446	0.5067	0.106
Mof_C 	C 	0.6933	0.8392	0.5608	0.117
Mof_C 	C 	0.7943	0.29066	0.25094	0.125
Mof_C 	C 	0.9634	0.11202	0.28918	0.123
Mof_C 	C 	0.89673	0.42223	0.56551	0.105
Mof_C 	C 	0.69602	0.34196	0.5824	0.117
Mof_N 	N 	0.89962	0.38895	0.00361	-0.083
Mof_N 	N 	0.05084	0.31419	0.96833	-0.067
Mof_N 	N 	0.05471	0.23562	0.06456	-0.19
Mof_N 	N 	0.91185	0.44591	0.87359	0.004
Mof_N 	N 	0.66085	0.67514	0.83156	-0.093
Mof_N 	N 	0.67955	0.79213	0.80717	-0.142
Mof_N 	N 	0.63895	0.68149	0.73761	-0.199
Mof_N 	N 	0.39522	0.85544	0.90812	0.005
Mof_N 	N 	0.36832	0.79156	0.033	-0.084
Mof_N 	N 	0.19622	0.8439	0.02146	-0.071
Mof_N 	N 	0.22248	0.92539	0.10425	-0.191
Mof_N 	N 	0.29218	0.11105	0.49639	-0.084
Mof_N 	N 	0.33336	0.18581	0.53167	-0.068
Mof_N 	N 	0.35489	0.26438	0.43544	-0.189
Mof_N 	N 	0.23135	0.05409	0.62641	0.005
Mof_N 	N 	0.16755	0.82486	0.66844	-0.095
Mof_N 	N 	0.27885	0.70787	0.69283	-0.142
Mof_N 	N 	0.05805	0.81851	0.76239	-0.199
Mof_N 	N 	0.15878	0.64456	0.59188	0.005
Mof_N 	N 	0.19288	0.70844	0.467	-0.084
Mof_N 	N 	0.06158	0.6561	0.47854	-0.071
Mof_N 	N 	0.25212	0.57461	0.39575	-0.192
Mof_N 	N 	0.10038	0.61105	0.99639	-0.083
Mof_N 	N 	0.94916	0.68581	0.03167	-0.067
Mof_N 	N 	0.94529	0.76438	0.93544	-0.19
Mof_N 	N 	0.08815	0.55409	0.12641	0.004
Mof_N 	N 	0.33915	0.32486	0.16844	-0.093
Mof_N 	N 	0.32045	0.20787	0.19283	-0.142
Mof_N 	N 	0.36105	0.31851	0.26239	-0.199
Mof_N 	N 	0.60478	0.14456	0.09188	0.005
Mof_N 	N 	0.63168	0.20844	0.967	-0.084
Mof_N 	N 	0.80378	0.1561	0.97854	-0.071
Mof_N 	N 	0.77752	0.07461	0.89575	-0.191
Mof_N 	N 	0.70782	0.88895	0.50361	-0.084
Mof_N 	N 	0.66664	0.81419	0.46833	-0.068
Mof_N 	N 	0.64511	0.73562	0.56456	-0.189
Mof_N 	N 	0.76865	0.94591	0.37359	0.005
Mof_N 	N 	0.83245	0.17514	0.33156	-0.095
Mof_N 	N 	0.72115	0.29213	0.30717	-0.142
Mof_N 	N 	0.94195	0.18149	0.23761	-0.199
Mof_N 	N 	0.84122	0.35544	0.40812	0.005
Mof_N 	N 	0.80712	0.29156	0.533	-0.084
Mof_N 	N 	0.93842	0.3439	0.52146	-0.071
Mof_N 	N 	0.74788	0.42539	0.60425	-0.192
Mof_O 	O 	0.60471	0.5564	0.07598	-0.172
Mof_O 	O 	0.88916	0.34838	0.8603	-0.101
Mof_O 	O 	0.03321	0.48412	0.85126	-0.114
Mof_O 	O 	0.39374	0.96059	0.92353	-0.13
Mof_O 	O 	0.30394	0.84654	0.87338	-0.129
Mof_O 	O 	0.23709	0.9436	0.42402	-0.171
Mof_O 	O 	0.09784	0.15162	0.6397	-0.101
Mof_O 	O 	0.36859	0.01588	0.64874	-0.115
Mof_O 	O 	0.27786	0.53941	0.57647	-0.13
Mof_O 	O 	0.02386	0.65346	0.62662	-0.128
Mof_O 	O 	0.39529	0.4436	0.92402	-0.172
Mof_O 	O 	0.11084	0.65162	0.1397	-0.101
Mof_O 	O 	0.96679	0.51588	0.14874	-0.114
Mof_O 	O 	0.60626	0.03941	0.07647	-0.13
Mof_O 	O 	0.69606	0.15346	0.12662	-0.129
Mof_O 	O 	0.76291	0.0564	0.57598	-0.171
Mof_O 	O 	0.90216	0.84838	0.3603	-0.101
Mof_O 	O 	0.63141	0.98412	0.35126	-0.115
Mof_O 	O 	0.72214	0.46059	0.42353	-0.13
Mof_O 	O 	0.97614	0.34654	0.37338	-0.128
_end
