data_functionalizedCrystal
_audit_creation_method	'EQeq! by Chris Wilmer'
_symmetry_space_group_name_H-M	'P1'
_symmetry_Int_Tables_number	1
_symmetry_cell_setting	triclinic
loop_
_symmetry_equiv_pos_as_xyz
  x,y,z
_cell_length_a	13.5392
_cell_length_b	13.5392
_cell_length_c	8.0692
_cell_angle_alpha	90
_cell_angle_beta	90
_cell_angle_gamma	120
loop_
_atom_site_label
_atom_site_type_symbol
_atom_site_fract_x
_atom_site_fract_y
_atom_site_fract_z
_atom_site_charge
Mof_Mn	Mn	0.29673	0.33238	0.54381	0.793
Mof_O 	O 	0.2259	0.1769	0.4067	-0.349
Mof_C 	C 	0.5307	0.3195	0.5613	-0.265
Mof_C 	C 	0.3541	0.5549	0.7731	-0.269
Mof_O 	O 	0.2397	0.0533	0.2453	-0.346
Mof_C 	C 	0.2615	0.1541	0.2803	0.352
Mof_N 	N 	0.3404	0.205	0.9987	-0.256
Mof_H 	H 	0.4041	0.2527	0.9426	0.111
Mof_H 	H 	0.2796	0.1946	0.9396	0.151
Mof_C 	C 	0.3406	0.252	0.1634	-0.142
Mof_H 	H 	0.418	0.2837	0.2074	0.051
Mof_N 	N 	0.3639	0.4242	0.3037	-0.298
Mof_H 	H 	0.3479	0.4811	0.2968	0.1
Mof_H 	H 	0.4402	0.4556	0.3024	0.104
Mof_C 	C 	0.3157	0.3495	0.1577	0.005
Mof_H 	H 	0.3481	0.3937	0.0576	0.006
Mof_H 	H 	0.2338	0.3189	0.1545	0.026
Mof_N 	N 	0.4506	0.3174	0.6126	-0.113
Mof_N 	N 	0.3649	0.4941	0.6887	-0.113
Mof_Mn	Mn	0.66762	0.96435	0.54381	0.788
Mof_O 	O 	0.8231	0.049	0.4067	-0.348
Mof_C 	C 	0.6805	0.2112	0.5613	-0.266
Mof_C 	C 	0.4451	0.7992	0.7731	-0.271
Mof_O 	O 	0.9467	0.1864	0.2453	-0.346
Mof_C 	C 	0.8459	0.1074	0.2803	0.351
Mof_N 	N 	0.795	0.1354	0.9987	-0.255
Mof_H 	H 	0.7473	0.1514	0.9426	0.111
Mof_H 	H 	0.8054	0.085	0.9396	0.153
Mof_C 	C 	0.748	0.0886	0.1634	-0.142
Mof_H 	H 	0.7163	0.1343	0.2074	0.051
Mof_N 	N 	0.5758	0.9397	0.3037	-0.298
Mof_H 	H 	0.5189	0.8668	0.2968	0.1
Mof_H 	H 	0.5444	0.9846	0.3024	0.103
Mof_C 	C 	0.6505	0.9662	0.1577	0.004
Mof_H 	H 	0.6063	0.9544	0.0576	0.006
Mof_H 	H 	0.6811	0.9149	0.1545	0.026
Mof_N 	N 	0.6826	0.1332	0.6126	-0.111
Mof_N 	N 	0.5059	0.8708	0.6887	-0.114
Mof_Mn	Mn	0.03565	0.70327	0.54381	0.787
Mof_O 	O 	0.951	0.7741	0.4067	-0.348
Mof_C 	C 	0.7888	0.4693	0.5613	-0.266
Mof_C 	C 	0.2008	0.6459	0.7731	-0.272
Mof_O 	O 	0.8136	0.7603	0.2453	-0.347
Mof_C 	C 	0.8926	0.7385	0.2803	0.351
Mof_N 	N 	0.8646	0.6596	0.9987	-0.256
Mof_H 	H 	0.8486	0.5959	0.9426	0.111
Mof_H 	H 	0.915	0.7204	0.9396	0.152
Mof_C 	C 	0.9114	0.6594	0.1634	-0.14
Mof_H 	H 	0.8657	0.582	0.2074	0.051
Mof_N 	N 	0.0603	0.6361	0.3037	-0.298
Mof_H 	H 	0.1332	0.6521	0.2968	0.1
Mof_H 	H 	0.0154	0.5598	0.3024	0.103
Mof_C 	C 	0.0338	0.6843	0.1577	0.003
Mof_H 	H 	0.0456	0.6519	0.0576	0.007
Mof_H 	H 	0.0851	0.7662	0.1545	0.027
Mof_N 	N 	0.8668	0.5494	0.6126	-0.111
Mof_N 	N 	0.1292	0.6351	0.6887	-0.114
Mof_Mn	Mn	0.70327	0.66762	0.04381	0.739
Mof_O 	O 	0.7741	0.8231	0.9067	-0.323
Mof_C 	C 	0.4693	0.6805	0.0613	-0.315
Mof_C 	C 	0.6459	0.4451	0.2731	-0.265
Mof_O 	O 	0.7603	0.9467	0.7453	-0.339
Mof_C 	C 	0.7385	0.8459	0.7803	0.344
Mof_N 	N 	0.6596	0.795	0.4987	-0.28
Mof_H 	H 	0.5959	0.7473	0.4426	0.103
Mof_H 	H 	0.7204	0.8054	0.4396	0.144
Mof_C 	C 	0.6594	0.748	0.6634	-0.104
Mof_H 	H 	0.582	0.7163	0.7074	0.048
Mof_N 	N 	0.6361	0.5758	0.8037	-0.289
Mof_H 	H 	0.6521	0.5189	0.7968	0.106
Mof_H 	H 	0.5598	0.5444	0.8024	0.111
Mof_C 	C 	0.6843	0.6505	0.6577	-0.013
Mof_H 	H 	0.6519	0.6063	0.5576	0.024
Mof_H 	H 	0.7662	0.6811	0.6545	0.04
Mof_N 	N 	0.5494	0.6826	0.1126	-0.105
Mof_N 	N 	0.6351	0.5059	0.1887	-0.121
Mof_Mn	Mn	0.33238	0.03565	0.04381	0.742
Mof_O 	O 	0.1769	0.951	0.9067	-0.329
Mof_C 	C 	0.3195	0.7888	0.0613	-0.315
Mof_C 	C 	0.5549	0.2008	0.2731	-0.265
Mof_O 	O 	0.0533	0.8136	0.7453	-0.341
Mof_C 	C 	0.1541	0.8926	0.7803	0.346
Mof_N 	N 	0.205	0.8646	0.4987	-0.279
Mof_H 	H 	0.2527	0.8486	0.4426	0.102
Mof_H 	H 	0.1946	0.915	0.4396	0.143
Mof_C 	C 	0.252	0.9114	0.6634	-0.111
Mof_H 	H 	0.2837	0.8657	0.7074	0.048
Mof_N 	N 	0.4242	0.0603	0.8037	-0.29
Mof_H 	H 	0.4811	0.1332	0.7968	0.107
Mof_H 	H 	0.4556	0.0154	0.8024	0.113
Mof_C 	C 	0.3495	0.0338	0.6577	-0.006
Mof_H 	H 	0.3937	0.0456	0.5576	0.022
Mof_H 	H 	0.3189	0.0851	0.6545	0.038
Mof_N 	N 	0.3174	0.8668	0.1126	-0.105
Mof_N 	N 	0.4941	0.1292	0.1887	-0.121
Mof_Mn	Mn	0.96435	0.29673	0.04381	0.738
Mof_O 	O 	0.049	0.2259	0.9067	-0.326
Mof_C 	C 	0.2112	0.5307	0.0613	-0.315
Mof_C 	C 	0.7992	0.3541	0.2731	-0.265
Mof_O 	O 	0.1864	0.2397	0.7453	-0.338
Mof_C 	C 	0.1074	0.2615	0.7803	0.345
Mof_N 	N 	0.1354	0.3404	0.4987	-0.279
Mof_H 	H 	0.1514	0.4041	0.4426	0.102
Mof_H 	H 	0.085	0.2796	0.4396	0.143
Mof_C 	C 	0.0886	0.3406	0.6634	-0.11
Mof_H 	H 	0.1343	0.418	0.7074	0.048
Mof_N 	N 	0.9397	0.3639	0.8037	-0.289
Mof_H 	H 	0.8668	0.3479	0.7968	0.107
Mof_H 	H 	0.9846	0.4402	0.8024	0.113
Mof_C 	C 	0.9662	0.3157	0.6577	-0.007
Mof_H 	H 	0.9544	0.3481	0.5576	0.022
Mof_H 	H 	0.9149	0.2338	0.6545	0.039
Mof_N 	N 	0.1332	0.4506	0.1126	-0.105
Mof_N 	N 	0.8708	0.3649	0.1887	-0.121
Mof_Cr	Cr	0.33333	0.66667	0.9244	1.498
Mof_Cr	Cr	0.66667	0.33333	0.4244	1.366
_end
