data_functionalizedCrystal
_audit_creation_method	'EQeq! by Chris Wilmer'
_symmetry_space_group_name_H-M	'P1'
_symmetry_Int_Tables_number	1
_symmetry_cell_setting	triclinic
loop_
_symmetry_equiv_pos_as_xyz
  x,y,z
_cell_length_a	28.4727
_cell_length_b	28.4727
_cell_length_c	28.4727
_cell_angle_alpha	96.5294
_cell_angle_beta	116.305
_cell_angle_gamma	116.305
loop_
_atom_site_label
_atom_site_type_symbol
_atom_site_fract_x
_atom_site_fract_y
_atom_site_fract_z
_atom_site_charge
Mof_Zn	Zn	0.6055	0.53934	0.31662	1.135
Mof_Zn	Zn	0.52778	0.38824	0.27626	1.188
Mof_Zn	Zn	0.48843	0.57332	0.27829	1.175
Mof_Zn	Zn	0.71545	0.60652	0.46773	1.184
Mof_Zn	Zn	0.68452	0.58336	0.24296	1.174
Mof_Zn	Zn	0.1055	0.78888	0.06616	1.135
Mof_Zn	Zn	0.02778	0.75152	0.13954	1.187
Mof_Zn	Zn	0.98843	0.71014	0.91511	1.175
Mof_Zn	Zn	0.21545	0.74772	0.10893	1.184
Mof_Zn	Zn	0.18452	0.94156	0.10116	1.174
Mof_H 	H 	0.3858	0.205	0.119	0.105
Mof_H 	H 	0.4134	0.2208	0.2714	0.09
Mof_H 	H 	0.3402	0.1249	0.2371	0.009
Mof_H 	H 	0.2465	0.6027	0.0896	0.121
Mof_H 	H 	0.3762	0.735	0.238	0.087
Mof_H 	H 	0.4292	0.6914	0.2676	0.007
Mof_H 	H 	0.8683	0.6901	0.512	0.07
Mof_H 	H 	0.9558	0.7433	0.5101	0.025
Mof_H 	H 	0.9453	0.7406	0.4247	0.039
Mof_H 	H 	0.8472	0.6848	0.3412	0.063
Mof_H 	H 	0.3398	0.462	0.2192	0.052
Mof_H 	H 	0.2557	0.3697	0.1832	0.039
Mof_H 	H 	0.2714	0.2968	0.1832	0.026
Mof_H 	H 	0.3713	0.3163	0.2194	0.068
Mof_H 	H 	0.5253	0.6812	0.3815	0.06
Mof_H 	H 	0.5785	0.7508	0.4701	0.027
Mof_H 	H 	0.6692	0.7654	0.5458	0.033
Mof_H 	H 	0.7066	0.7106	0.533	0.065
Mof_H 	H 	0.5665	0.3264	0.2041	0.066
Mof_H 	H 	0.609	0.3153	0.1539	0.029
Mof_H 	H 	0.6719	0.3926	0.1419	0.036
Mof_H 	H 	0.6921	0.4811	0.18	0.054
Mof_H 	H 	0.4877	0.6474	0.1873	0.057
Mof_H 	H 	0.5164	0.6958	0.1362	0.048
Mof_H 	H 	0.5946	0.7021	0.1275	0.015
Mof_H 	H 	0.6441	0.66	0.1699	0.072
Mof_H 	H 	0.573	0.3459	0.3885	0.066
Mof_H 	H 	0.6266	0.3482	0.4774	0.033
Mof_H 	H 	0.7031	0.4332	0.5525	0.029
Mof_H 	H 	0.726	0.5158	0.5386	0.07
Mof_H 	H 	0.294	0.0687	0.0581	0.182
Mof_H 	H 	0.3269	0.124	0.0535	0.155
Mof_H 	H 	0.3114	0.5295	0.1249	0.196
Mof_H 	H 	0.2587	0.53	0.0797	0.167
Mof_H 	H 	0.8858	0.7668	0.1808	0.106
Mof_H 	H 	0.9134	0.642	0.1926	0.091
Mof_H 	H 	0.8402	0.6031	0.2153	0.01
Mof_H 	H 	0.7465	0.6569	0.6438	0.122
Mof_H 	H 	0.8762	0.6382	0.6412	0.088
Mof_H 	H 	0.9292	0.6616	0.7378	0.008
Mof_H 	H 	0.3683	0.8563	0.1782	0.071
Mof_H 	H 	0.4558	0.9457	0.2125	0.026
Mof_H 	H 	0.4453	0.0206	0.2047	0.04
Mof_H 	H 	0.3472	0.006	0.1624	0.065
Mof_H 	H 	0.8398	0.6206	0.8778	0.053
Mof_H 	H 	0.7557	0.5725	0.886	0.039
Mof_H 	H 	0.7714	0.5882	0.9746	0.027
Mof_H 	H 	0.8713	0.6519	0.055	0.069
Mof_H 	H 	0.0253	0.6438	0.8441	0.061
Mof_H 	H 	0.0785	0.6084	0.8277	0.028
Mof_H 	H 	0.1692	0.6234	0.9038	0.034
Mof_H 	H 	0.2066	0.6736	0.996	0.066
Mof_H 	H 	0.0665	0.8624	0.2401	0.067
Mof_H 	H 	0.109	0.9551	0.2937	0.029
Mof_H 	H 	0.1719	0.03	0.2793	0.038
Mof_H 	H 	0.1921	0.0121	0.211	0.056
Mof_H 	H 	0.9877	0.8004	0.8403	0.056
Mof_H 	H 	0.0164	0.8802	0.8206	0.05
Mof_H 	H 	0.0946	0.9671	0.8925	0.014
Mof_H 	H 	0.1441	0.9742	0.9841	0.073
Mof_H 	H 	0.073	0.6845	0.2271	0.065
Mof_H 	H 	0.1266	0.6492	0.2784	0.033
Mof_H 	H 	0.2031	0.6506	0.2699	0.029
Mof_H 	H 	0.226	0.6874	0.2102	0.07
Mof_H 	H 	0.794	0.7359	0.2253	0.182
Mof_H 	H 	0.8269	0.7734	0.2029	0.156
Mof_H 	H 	0.8114	0.6865	0.7819	0.196
Mof_H 	H 	0.7587	0.679	0.7287	0.167
Mof_C 	C 	0.3194	0.1078	0.1576	-0.193
Mof_C 	C 	0.3329	0.1317	0.1224	0.24
Mof_C 	C 	0.3766	0.1889	0.1429	-0.196
Mof_C 	C 	0.4066	0.2221	0.1985	0.023
Mof_C 	C 	0.3931	0.1983	0.2338	-0.127
Mof_C 	C 	0.3494	0.1411	0.2133	0.088
Mof_C 	C 	0.4535	0.2827	0.2226	0.293
Mof_C 	C 	0.2691	0.042	0.1339	0.338
Mof_C 	C 	0.3695	0.621	0.1963	-0.217
Mof_C 	C 	0.315	0.5946	0.1432	0.29
Mof_C 	C 	0.2834	0.6206	0.1256	-0.238
Mof_C 	C 	0.3063	0.6731	0.161	0.04
Mof_C 	C 	0.3607	0.6995	0.214	-0.137
Mof_C 	C 	0.3924	0.6735	0.2317	0.101
Mof_C 	C 	0.4064	0.5936	0.22	0.334
Mof_C 	C 	0.2692	0.6951	0.1343	0.279
Mof_C 	C 	0.7993	0.6542	0.3769	0.054
Mof_C 	C 	0.8056	0.6558	0.4278	0.076
Mof_C 	C 	0.8641	0.6891	0.4776	-0.134
Mof_C 	C 	0.9162	0.7208	0.4764	-0.001
Mof_C 	C 	0.9099	0.7192	0.4255	-0.036
Mof_C 	C 	0.8515	0.6859	0.3758	-0.097
Mof_C 	C 	0.4152	0.4009	0.2409	0.082
Mof_C 	C 	0.4057	0.4443	0.2408	0.041
Mof_C 	C 	0.3461	0.4327	0.2192	-0.1
Mof_C 	C 	0.2959	0.3776	0.1977	-0.035
Mof_C 	C 	0.3053	0.3341	0.1978	-0.006
Mof_C 	C 	0.3649	0.3457	0.2194	-0.128
Mof_C 	C 	0.6384	0.6631	0.4495	0.067
Mof_C 	C 	0.584	0.65429	0.40409	0.06
Mof_C 	C 	0.5616	0.6871	0.4119	-0.119
Mof_C 	C 	0.5935	0.7288	0.4649	-0.02
Mof_C 	C 	0.6478	0.7375	0.5103	-0.026
Mof_C 	C 	0.6703	0.7048	0.5027	-0.106
Mof_C 	C 	0.6414	0.45673	0.21493	0.043
Mof_C 	C 	0.6037	0.4104	0.2221	0.087
Mof_C 	C 	0.5917	0.3574	0.1993	-0.126
Mof_C 	C 	0.61721	0.35079	0.1692	-0.01
Mof_C 	C 	0.6549	0.39712	0.16202	-0.037
Mof_C 	C 	0.66695	0.4501	0.18485	-0.102
Mof_C 	C 	0.5952	0.6287	0.2037	0.083
Mof_C 	C 	0.5489	0.625	0.2089	0.035
Mof_C 	C 	0.5196	0.65	0.1838	-0.082
Mof_C 	C 	0.5366	0.6787	0.1535	-0.053
Mof_C 	C 	0.583	0.6824	0.1484	0.018
Mof_C 	C 	0.6122	0.6574	0.1734	-0.149
Mof_C 	C 	0.663	0.4797	0.4553	0.072
Mof_C 	C 	0.6177	0.4294	0.4109	0.063
Mof_C 	C 	0.6042	0.3805	0.4191	-0.116
Mof_C 	C 	0.636	0.382	0.4718	-0.019
Mof_C 	C 	0.6812	0.4322	0.5162	-0.01
Mof_C 	C 	0.6948	0.4812	0.508	-0.124
Mof_C 	C 	0.8194	0.6618	0.2116	-0.194
Mof_C 	C 	0.8329	0.7105	0.2012	0.24
Mof_C 	C 	0.8766	0.7337	0.1877	-0.197
Mof_C 	C 	0.9066	0.7081	0.1845	0.023
Mof_C 	C 	0.8931	0.6593	0.1948	-0.128
Mof_C 	C 	0.8494	0.6361	0.2083	0.088
Mof_C 	C 	0.9535	0.7309	0.1708	0.292
Mof_C 	C 	0.7691	0.6352	0.2271	0.338
Mof_C 	C 	0.8695	0.6732	0.7485	-0.217
Mof_C 	C 	0.815	0.6718	0.7204	0.291
Mof_C 	C 	0.7834	0.6578	0.6628	-0.239
Mof_C 	C 	0.8063	0.6453	0.6332	0.041
Mof_C 	C 	0.8607	0.6467	0.6612	-0.137
Mof_C 	C 	0.8924	0.6607	0.7189	0.102
Mof_C 	C 	0.9064	0.6864	0.8128	0.335
Mof_C 	C 	0.7692	0.6349	0.5741	0.279
Mof_C 	C 	0.2993	0.9224	0.1451	0.054
Mof_C 	C 	0.3056	0.8778	0.1498	0.075
Mof_C 	C 	0.3641	0.8865	0.175	-0.134
Mof_C 	C 	0.4162	0.9398	0.1954	-0.002
Mof_C 	C 	0.4099	0.9844	0.1907	-0.036
Mof_C 	C 	0.3515	0.9757	0.1656	-0.098
Mof_C 	C 	0.9152	0.6743	0.0143	0.083
Mof_C 	C 	0.9057	0.6649	0.9614	0.04
Mof_C 	C 	0.8461	0.6269	0.9134	-0.1
Mof_C 	C 	0.7959	0.5982	0.9183	-0.034
Mof_C 	C 	0.8053	0.6075	0.9712	-0.008
Mof_C 	C 	0.8649	0.6455	0.0192	-0.126
Mof_C 	C 	0.1384	0.6889	0.9753	0.069
Mof_C 	C 	0.084	0.67991	0.92971	0.06
Mof_C 	C 	0.0616	0.6497	0.8745	-0.118
Mof_C 	C 	0.0935	0.6286	0.8647	-0.021
Mof_C 	C 	0.1478	0.6375	0.9103	-0.025
Mof_C 	C 	0.1703	0.6676	0.9655	-0.107
Mof_C 	C 	0.1414	0.92647	0.18467	0.043
Mof_C 	C 	0.1037	0.8816	0.1933	0.087
Mof_C 	C 	0.0917	0.8924	0.2343	-0.127
Mof_C 	C 	0.11721	0.94801	0.26642	-0.009
Mof_C 	C 	0.1549	0.99288	0.25778	-0.039
Mof_C 	C 	0.16695	0.9821	0.21685	-0.103
Mof_C 	C 	0.0952	0.8915	0.9665	0.087
Mof_C 	C 	0.0489	0.84	0.9239	0.032
Mof_C 	C 	0.0196	0.8358	0.8696	-0.077
Mof_C 	C 	0.0366	0.8831	0.8579	-0.057
Mof_C 	C 	0.083	0.9346	0.9006	0.022
Mof_C 	C 	0.1122	0.9388	0.9548	-0.153
Mof_C 	C 	0.163	0.7077	0.1833	0.072
Mof_C 	C 	0.1177	0.7068	0.1883	0.062
Mof_C 	C 	0.1042	0.6851	0.2237	-0.116
Mof_C 	C 	0.136	0.6642	0.254	-0.02
Mof_C 	C 	0.1812	0.665	0.249	-0.01
Mof_C 	C 	0.1948	0.6868	0.2136	-0.124
Mof_N 	N 	0.7368	0.6176	0.3346	-0.213
Mof_N 	N 	0.7077	0.5999	0.3598	-0.201
Mof_N 	N 	0.7484	0.6229	0.4169	-0.249
Mof_N 	N 	0.4759	0.4209	0.2604	-0.248
Mof_N 	N 	0.5039	0.4765	0.275	-0.203
Mof_N 	N 	0.4633	0.4911	0.263	-0.243
Mof_N 	N 	0.6511	0.6254	0.4317	-0.242
Mof_N 	N 	0.606	0.5966	0.3762	-0.205
Mof_N 	N 	0.5667	0.6139	0.3598	-0.243
Mof_N 	N 	0.6427	0.5016	0.2405	-0.24
Mof_N 	N 	0.6086	0.4813	0.2623	-0.203
Mof_N 	N 	0.5843	0.4264	0.2513	-0.253
Mof_N 	N 	0.6187	0.6016	0.2335	-0.243
Mof_N 	N 	0.5869	0.5807	0.2574	-0.209
Mof_N 	N 	0.5431	0.5925	0.2424	-0.218
Mof_N 	N 	0.6645	0.5199	0.4342	-0.241
Mof_N 	N 	0.6213	0.4936	0.3777	-0.196
Mof_N 	N 	0.5911	0.4376	0.3613	-0.236
Mof_N 	N 	0.3161	0.1052	0.0725	-0.358
Mof_N 	N 	0.2929	0.5466	0.1129	-0.391
Mof_N 	N 	0.2368	0.9022	0.1192	-0.213
Mof_N 	N 	0.2077	0.8479	0.1078	-0.201
Mof_N 	N 	0.2484	0.8315	0.1255	-0.249
Mof_N 	N 	0.9759	0.7155	0.055	-0.246
Mof_N 	N 	0.0039	0.7289	0.0274	-0.204
Mof_N 	N 	0.9633	0.7003	0.9722	-0.243
Mof_N 	N 	0.1511	0.7194	0.0257	-0.243
Mof_N 	N 	0.106	0.7298	0.0094	-0.206
Mof_N 	N 	0.0667	0.7069	0.9528	-0.242
Mof_N 	N 	0.1427	0.9022	0.1411	-0.241
Mof_N 	N 	0.1086	0.8463	0.1273	-0.204
Mof_N 	N 	0.0843	0.833	0.1579	-0.253
Mof_N 	N 	0.1187	0.8852	0.0171	-0.244
Mof_N 	N 	0.0869	0.8295	0.0062	-0.211
Mof_N 	N 	0.0431	0.8007	0.9506	-0.217
Mof_N 	N 	0.1645	0.7303	0.1446	-0.241
Mof_N 	N 	0.1213	0.7436	0.1277	-0.196
Mof_N 	N 	0.0911	0.7298	0.1535	-0.236
Mof_N 	N 	0.8161	0.7436	0.2109	-0.358
Mof_N 	N 	0.7929	0.68	0.7463	-0.391
Mof_O 	O 	0.4831	0.3103	0.2764	-0.439
Mof_O 	O 	0.4596	0.309	0.1938	-0.39
Mof_O 	O 	0.2558	0.0225	0.1665	-0.441
Mof_O 	O 	0.2428	0.0102	0.084	-0.429
Mof_O 	O 	0.4594	0.6261	0.2695	-0.457
Mof_O 	O 	0.3899	0.5462	0.1931	-0.395
Mof_O 	O 	0.2937	0.7474	0.1617	-0.423
Mof_O 	O 	0.2148	0.6691	0.0937	-0.394
Mof_O 	O 	0.9831	0.7067	0.1728	-0.438
Mof_O 	O 	0.9596	0.7658	0.1506	-0.389
Mof_O 	O 	0.7558	0.5893	0.2333	-0.442
Mof_O 	O 	0.7428	0.6588	0.2326	-0.429
Mof_O 	O 	0.9594	0.6899	0.8333	-0.457
Mof_O 	O 	0.8899	0.6968	0.8437	-0.395
Mof_O 	O 	0.7937	0.632	0.5463	-0.423
Mof_O 	O 	0.7148	0.6211	0.5457	-0.393
Mof_Zn	Zn	0.8945	0.21112	0.93384	1.136
Mof_Zn	Zn	0.97222	0.24848	0.86046	1.188
Mof_Zn	Zn	0.01157	0.28986	0.08489	1.176
Mof_Zn	Zn	0.78455	0.25228	0.89107	1.185
Mof_Zn	Zn	0.81548	0.05844	0.89884	1.175
Mof_Zn	Zn	0.3945	0.46066	0.68338	1.136
Mof_Zn	Zn	0.47222	0.61176	0.72374	1.189
Mof_Zn	Zn	0.51157	0.42668	0.72171	1.176
Mof_Zn	Zn	0.28455	0.39348	0.53227	1.185
Mof_Zn	Zn	0.31548	0.41664	0.75704	1.175
Mof_H 	H 	0.1142	0.2332	0.8192	0.106
Mof_H 	H 	0.0866	0.358	0.8074	0.091
Mof_H 	H 	0.1598	0.3969	0.7847	0.01
Mof_H 	H 	0.2535	0.3431	0.3562	0.122
Mof_H 	H 	0.1238	0.3618	0.3588	0.088
Mof_H 	H 	0.0708	0.3384	0.2622	0.008
Mof_H 	H 	0.6317	0.1437	0.8218	0.071
Mof_H 	H 	0.5442	0.0543	0.7875	0.026
Mof_H 	H 	0.5547	0.9794	0.7953	0.04
Mof_H 	H 	0.6528	0.994	0.8376	0.065
Mof_H 	H 	0.1602	0.3794	0.1222	0.053
Mof_H 	H 	0.2443	0.4275	0.114	0.039
Mof_H 	H 	0.2286	0.4118	0.0254	0.027
Mof_H 	H 	0.1287	0.3481	0.945	0.069
Mof_H 	H 	0.9747	0.3562	0.1559	0.061
Mof_H 	H 	0.9215	0.3916	0.1723	0.028
Mof_H 	H 	0.8308	0.3766	0.0962	0.034
Mof_H 	H 	0.7934	0.3264	0.004	0.066
Mof_H 	H 	0.9335	0.1376	0.7599	0.067
Mof_H 	H 	0.891	0.0449	0.7063	0.029
Mof_H 	H 	0.8281	0.97	0.7207	0.038
Mof_H 	H 	0.8079	0.9879	0.789	0.056
Mof_H 	H 	0.0123	0.1996	0.1597	0.056
Mof_H 	H 	0.9836	0.1198	0.1794	0.05
Mof_H 	H 	0.9054	0.0329	0.1075	0.014
Mof_H 	H 	0.8559	0.0258	0.0159	0.073
Mof_H 	H 	0.927	0.3155	0.7729	0.065
Mof_H 	H 	0.8734	0.3508	0.7216	0.033
Mof_H 	H 	0.7969	0.3494	0.7301	0.029
Mof_H 	H 	0.774	0.3126	0.7898	0.07
Mof_H 	H 	0.206	0.2641	0.7747	0.182
Mof_H 	H 	0.1731	0.2266	0.7971	0.156
Mof_H 	H 	0.1886	0.3135	0.2181	0.196
Mof_H 	H 	0.2413	0.321	0.2713	0.167
Mof_H 	H 	0.6142	0.795	0.881	0.106
Mof_H 	H 	0.5866	0.7792	0.7286	0.091
Mof_H 	H 	0.6598	0.8751	0.7629	0.01
Mof_H 	H 	0.7535	0.3973	0.9104	0.122
Mof_H 	H 	0.6238	0.265	0.762	0.088
Mof_H 	H 	0.5708	0.3086	0.7324	0.008
Mof_H 	H 	0.1317	0.3099	0.488	0.071
Mof_H 	H 	0.0442	0.2567	0.4899	0.026
Mof_H 	H 	0.0547	0.2594	0.5753	0.04
Mof_H 	H 	0.1528	0.3152	0.6588	0.064
Mof_H 	H 	0.6602	0.538	0.7808	0.053
Mof_H 	H 	0.7443	0.6303	0.8168	0.04
Mof_H 	H 	0.7286	0.7032	0.8168	0.027
Mof_H 	H 	0.6287	0.6837	0.7806	0.069
Mof_H 	H 	0.4747	0.3188	0.6185	0.061
Mof_H 	H 	0.4215	0.2492	0.5299	0.028
Mof_H 	H 	0.3308	0.2346	0.4542	0.034
Mof_H 	H 	0.2934	0.2894	0.467	0.066
Mof_H 	H 	0.4335	0.6736	0.7959	0.067
Mof_H 	H 	0.391	0.6847	0.8461	0.03
Mof_H 	H 	0.3281	0.6074	0.8581	0.037
Mof_H 	H 	0.3079	0.5189	0.82	0.055
Mof_H 	H 	0.5123	0.3526	0.8127	0.058
Mof_H 	H 	0.4836	0.3042	0.8638	0.049
Mof_H 	H 	0.4054	0.2979	0.8725	0.015
Mof_H 	H 	0.3559	0.34	0.8301	0.072
Mof_H 	H 	0.427	0.6541	0.6115	0.066
Mof_H 	H 	0.3734	0.6518	0.5226	0.033
Mof_H 	H 	0.2969	0.5668	0.4475	0.029
Mof_H 	H 	0.274	0.4842	0.4614	0.07
Mof_H 	H 	0.706	0.9313	0.9419	0.182
Mof_H 	H 	0.6731	0.876	0.9465	0.155
Mof_H 	H 	0.6886	0.4705	0.8751	0.196
Mof_H 	H 	0.7413	0.47	0.9203	0.167
Mof_C 	C 	0.1806	0.3382	0.7884	-0.194
Mof_C 	C 	0.1671	0.2895	0.7988	0.24
Mof_C 	C 	0.1234	0.2663	0.8123	-0.197
Mof_C 	C 	0.0934	0.2919	0.8155	0.023
Mof_C 	C 	0.1069	0.3407	0.8052	-0.128
Mof_C 	C 	0.1506	0.3639	0.7917	0.088
Mof_C 	C 	0.0465	0.2691	0.8292	0.292
Mof_C 	C 	0.2309	0.3648	0.7729	0.338
Mof_C 	C 	0.1305	0.3268	0.2515	-0.217
Mof_C 	C 	0.185	0.3282	0.2796	0.291
Mof_C 	C 	0.2166	0.3422	0.3372	-0.239
Mof_C 	C 	0.1937	0.3547	0.3668	0.041
Mof_C 	C 	0.1393	0.3533	0.3388	-0.137
Mof_C 	C 	0.1076	0.3393	0.2811	0.102
Mof_C 	C 	0.0936	0.3136	0.1872	0.335
Mof_C 	C 	0.2308	0.3651	0.4259	0.279
Mof_C 	C 	0.7007	0.0776	0.8549	0.054
Mof_C 	C 	0.6944	0.1222	0.8502	0.075
Mof_C 	C 	0.6359	0.1135	0.825	-0.134
Mof_C 	C 	0.5838	0.0602	0.8046	-0.002
Mof_C 	C 	0.5901	0.0156	0.8093	-0.036
Mof_C 	C 	0.6485	0.0243	0.8344	-0.098
Mof_C 	C 	0.0848	0.3257	0.9857	0.083
Mof_C 	C 	0.0943	0.3351	0.0386	0.04
Mof_C 	C 	0.1539	0.3731	0.0866	-0.1
Mof_C 	C 	0.2041	0.4018	0.0817	-0.034
Mof_C 	C 	0.1947	0.3925	0.0288	-0.008
Mof_C 	C 	0.1351	0.3545	0.9808	-0.126
Mof_C 	C 	0.8616	0.3111	0.0247	0.069
Mof_C 	C 	0.916	0.32009	0.07029	0.06
Mof_C 	C 	0.9384	0.3503	0.1255	-0.118
Mof_C 	C 	0.9065	0.3714	0.1353	-0.021
Mof_C 	C 	0.8522	0.3625	0.0897	-0.025
Mof_C 	C 	0.8297	0.3324	0.0345	-0.107
Mof_C 	C 	0.8586	0.07353	0.81533	0.043
Mof_C 	C 	0.8963	0.1184	0.8067	0.087
Mof_C 	C 	0.9083	0.1076	0.7657	-0.127
Mof_C 	C 	0.88279	0.05199	0.73358	-0.009
Mof_C 	C 	0.8451	0.00712	0.74222	-0.039
Mof_C 	C 	0.83305	0.0179	0.78315	-0.103
Mof_C 	C 	0.9048	0.1085	0.0335	0.087
Mof_C 	C 	0.9511	0.16	0.0761	0.032
Mof_C 	C 	0.9804	0.1642	0.1304	-0.077
Mof_C 	C 	0.9634	0.1169	0.1421	-0.057
Mof_C 	C 	0.917	0.0654	0.0994	0.022
Mof_C 	C 	0.8878	0.0612	0.0452	-0.153
Mof_C 	C 	0.837	0.2923	0.8167	0.072
Mof_C 	C 	0.8823	0.2932	0.8117	0.062
Mof_C 	C 	0.8958	0.3149	0.7763	-0.116
Mof_C 	C 	0.864	0.3358	0.746	-0.02
Mof_C 	C 	0.8188	0.335	0.751	-0.01
Mof_C 	C 	0.8052	0.3132	0.7864	-0.124
Mof_C 	C 	0.6806	0.8922	0.8424	-0.193
Mof_C 	C 	0.6671	0.8683	0.8776	0.24
Mof_C 	C 	0.6234	0.8111	0.8571	-0.196
Mof_C 	C 	0.5934	0.7779	0.8015	0.023
Mof_C 	C 	0.6069	0.8017	0.7662	-0.127
Mof_C 	C 	0.6506	0.8589	0.7867	0.088
Mof_C 	C 	0.5465	0.7173	0.7774	0.293
Mof_C 	C 	0.7309	0.958	0.8661	0.338
Mof_C 	C 	0.6305	0.379	0.8037	-0.217
Mof_C 	C 	0.685	0.4054	0.8568	0.29
Mof_C 	C 	0.7166	0.3794	0.8744	-0.238
Mof_C 	C 	0.6937	0.3269	0.839	0.04
Mof_C 	C 	0.6393	0.3005	0.786	-0.137
Mof_C 	C 	0.6076	0.3265	0.7683	0.101
Mof_C 	C 	0.5936	0.4064	0.78	0.334
Mof_C 	C 	0.7308	0.3049	0.8657	0.279
Mof_C 	C 	0.2007	0.3458	0.6231	0.054
Mof_C 	C 	0.1944	0.3442	0.5722	0.076
Mof_C 	C 	0.1359	0.3109	0.5224	-0.134
Mof_C 	C 	0.0838	0.2792	0.5236	-0.001
Mof_C 	C 	0.0901	0.2808	0.5745	-0.036
Mof_C 	C 	0.1485	0.3141	0.6242	-0.097
Mof_C 	C 	0.5848	0.5991	0.7591	0.082
Mof_C 	C 	0.5943	0.5557	0.7592	0.041
Mof_C 	C 	0.6539	0.5673	0.7808	-0.1
Mof_C 	C 	0.7041	0.6224	0.8023	-0.035
Mof_C 	C 	0.6947	0.6659	0.8022	-0.006
Mof_C 	C 	0.6351	0.6543	0.7806	-0.128
Mof_C 	C 	0.3616	0.3369	0.5505	0.067
Mof_C 	C 	0.416	0.34571	0.59591	0.06
Mof_C 	C 	0.4384	0.3129	0.5881	-0.119
Mof_C 	C 	0.4065	0.2712	0.5351	-0.02
Mof_C 	C 	0.3522	0.2625	0.4897	-0.026
Mof_C 	C 	0.3297	0.2952	0.4973	-0.106
Mof_C 	C 	0.3586	0.54327	0.78507	0.043
Mof_C 	C 	0.3963	0.5896	0.7779	0.087
Mof_C 	C 	0.4083	0.6426	0.8007	-0.126
Mof_C 	C 	0.38279	0.64921	0.8308	-0.01
Mof_C 	C 	0.3451	0.60288	0.83798	-0.037
Mof_C 	C 	0.33305	0.5499	0.81515	-0.102
Mof_C 	C 	0.4048	0.3713	0.7963	0.083
Mof_C 	C 	0.4511	0.375	0.7911	0.035
Mof_C 	C 	0.4804	0.35	0.8162	-0.082
Mof_C 	C 	0.4634	0.3213	0.8465	-0.053
Mof_C 	C 	0.417	0.3176	0.8516	0.018
Mof_C 	C 	0.3878	0.3426	0.8266	-0.149
Mof_C 	C 	0.337	0.5203	0.5447	0.072
Mof_C 	C 	0.3823	0.5706	0.5891	0.063
Mof_C 	C 	0.3958	0.6195	0.5809	-0.116
Mof_C 	C 	0.364	0.618	0.5282	-0.019
Mof_C 	C 	0.3188	0.5678	0.4838	-0.01
Mof_C 	C 	0.3052	0.5188	0.492	-0.124
Mof_N 	N 	0.7632	0.0978	0.8808	-0.213
Mof_N 	N 	0.7923	0.1521	0.8922	-0.201
Mof_N 	N 	0.7516	0.1685	0.8745	-0.249
Mof_N 	N 	0.0241	0.2845	0.945	-0.246
Mof_N 	N 	0.9961	0.2711	0.9726	-0.204
Mof_N 	N 	0.0367	0.2997	0.0278	-0.243
Mof_N 	N 	0.8489	0.2806	0.9743	-0.243
Mof_N 	N 	0.894	0.2702	0.9906	-0.206
Mof_N 	N 	0.9333	0.2931	0.0472	-0.242
Mof_N 	N 	0.8573	0.0978	0.8589	-0.241
Mof_N 	N 	0.8914	0.1537	0.8727	-0.204
Mof_N 	N 	0.9157	0.167	0.8421	-0.253
Mof_N 	N 	0.8813	0.1148	0.9829	-0.244
Mof_N 	N 	0.9131	0.1705	0.9938	-0.211
Mof_N 	N 	0.9569	0.1993	0.0494	-0.217
Mof_N 	N 	0.8355	0.2697	0.8554	-0.241
Mof_N 	N 	0.8787	0.2564	0.8723	-0.196
Mof_N 	N 	0.9089	0.2702	0.8465	-0.236
Mof_N 	N 	0.1839	0.2564	0.7891	-0.358
Mof_N 	N 	0.2071	0.32	0.2537	-0.391
Mof_N 	N 	0.2632	0.3824	0.6654	-0.213
Mof_N 	N 	0.2923	0.4001	0.6402	-0.201
Mof_N 	N 	0.2516	0.3771	0.5831	-0.249
Mof_N 	N 	0.5241	0.5791	0.7396	-0.248
Mof_N 	N 	0.4961	0.5235	0.725	-0.203
Mof_N 	N 	0.5367	0.5089	0.737	-0.243
Mof_N 	N 	0.3489	0.3746	0.5683	-0.242
Mof_N 	N 	0.394	0.4034	0.6238	-0.205
Mof_N 	N 	0.4333	0.3861	0.6402	-0.243
Mof_N 	N 	0.3573	0.4984	0.7595	-0.24
Mof_N 	N 	0.3914	0.5187	0.7377	-0.203
Mof_N 	N 	0.4157	0.5736	0.7487	-0.253
Mof_N 	N 	0.3813	0.3984	0.7665	-0.243
Mof_N 	N 	0.4131	0.4193	0.7426	-0.209
Mof_N 	N 	0.4569	0.4075	0.7576	-0.218
Mof_N 	N 	0.3355	0.4801	0.5658	-0.241
Mof_N 	N 	0.3787	0.5064	0.6223	-0.196
Mof_N 	N 	0.4089	0.5624	0.6387	-0.236
Mof_N 	N 	0.6839	0.8948	0.9275	-0.358
Mof_N 	N 	0.7071	0.4534	0.8871	-0.391
Mof_O 	O 	0.0169	0.2933	0.8272	-0.438
Mof_O 	O 	0.0404	0.2342	0.8494	-0.389
Mof_O 	O 	0.2442	0.4107	0.7667	-0.442
Mof_O 	O 	0.2572	0.3412	0.7674	-0.429
Mof_O 	O 	0.0406	0.3101	0.1667	-0.457
Mof_O 	O 	0.1101	0.3032	0.1563	-0.395
Mof_O 	O 	0.2063	0.368	0.4537	-0.423
Mof_O 	O 	0.2852	0.3789	0.4543	-0.393
Mof_O 	O 	0.5169	0.6897	0.7236	-0.439
Mof_O 	O 	0.5404	0.691	0.8062	-0.39
Mof_O 	O 	0.7442	0.9775	0.8335	-0.441
Mof_O 	O 	0.7572	0.9898	0.916	-0.429
Mof_O 	O 	0.5406	0.3739	0.7305	-0.457
Mof_O 	O 	0.6101	0.4538	0.8069	-0.395
Mof_O 	O 	0.7063	0.2526	0.8383	-0.423
Mof_O 	O 	0.7852	0.3309	0.9063	-0.394
Mof_Zn	Zn	0.77728	0.31662	0.21112	1.136
Mof_Zn	Zn	0.88802	0.27626	0.24848	1.189
Mof_Zn	Zn	0.70497	0.27829	0.28986	1.176
Mof_Zn	Zn	0.86121	0.46773	0.25228	1.185
Mof_Zn	Zn	0.6596	0.24296	0.05844	1.175
Mof_Zn	Zn	0.27728	0.06616	0.46066	1.136
Mof_Zn	Zn	0.38802	0.13954	0.61176	1.189
Mof_Zn	Zn	0.20497	0.91511	0.42668	1.176
Mof_Zn	Zn	0.36121	0.10893	0.39348	1.185
Mof_Zn	Zn	0.1596	0.10116	0.41664	1.175
Mof_H 	H 	0.914	0.119	0.2332	0.106
Mof_H 	H 	0.0506	0.2714	0.358	0.09
Mof_H 	H 	0.1122	0.2371	0.3969	0.011
Mof_H 	H 	0.4869	0.0896	0.3431	0.122
Mof_H 	H 	0.503	0.238	0.3618	0.088
Mof_H 	H 	0.5762	0.2676	0.3384	0.008
Mof_H 	H 	0.8219	0.512	0.1437	0.071
Mof_H 	H 	0.7668	0.5101	0.0543	0.026
Mof_H 	H 	0.6841	0.4247	0.9794	0.038
Mof_H 	H 	0.6564	0.3412	0.994	0.063
Mof_H 	H 	0.7572	0.2192	0.3794	0.053
Mof_H 	H 	0.8135	0.1832	0.4275	0.04
Mof_H 	H 	0.8864	0.1832	0.4118	0.027
Mof_H 	H 	0.9031	0.2194	0.3481	0.069
Mof_H 	H 	0.7003	0.3815	0.3562	0.061
Mof_H 	H 	0.7193	0.4701	0.3916	0.028
Mof_H 	H 	0.7804	0.5458	0.3766	0.034
Mof_H 	H 	0.8224	0.533	0.3264	0.066
Mof_H 	H 	0.8777	0.2041	0.1376	0.067
Mof_H 	H 	0.8386	0.1539	0.0449	0.03
Mof_H 	H 	0.7493	0.1419	0.97	0.035
Mof_H 	H 	0.6989	0.18	0.9879	0.054
Mof_H 	H 	0.5399	0.1873	0.1996	0.058
Mof_H 	H 	0.4404	0.1362	0.1198	0.049
Mof_H 	H 	0.4254	0.1275	0.0329	0.015
Mof_H 	H 	0.5099	0.1699	0.0258	0.072
Mof_H 	H 	0.0426	0.3885	0.3155	0.066
Mof_H 	H 	0.1292	0.4774	0.3508	0.033
Mof_H 	H 	0.1193	0.5525	0.3494	0.029
Mof_H 	H 	0.0228	0.5386	0.3126	0.07
Mof_H 	H 	0.9894	0.0581	0.2641	0.182
Mof_H 	H 	0.9295	0.0535	0.2266	0.156
Mof_H 	H 	0.5954	0.1249	0.3135	0.196
Mof_H 	H 	0.5497	0.0797	0.321	0.167
Mof_H 	H 	0.414	0.1808	0.795	0.106
Mof_H 	H 	0.5506	0.1926	0.7792	0.091
Mof_H 	H 	0.6122	0.2153	0.8751	0.01
Mof_H 	H 	0.9869	0.6438	0.3973	0.125
Mof_H 	H 	0.003	0.6412	0.265	0.089
Mof_H 	H 	0.0762	0.7378	0.3086	0.006
Mof_H 	H 	0.3219	0.1782	0.3099	0.071
Mof_H 	H 	0.2668	0.2125	0.2567	0.026
Mof_H 	H 	0.1841	0.2047	0.2594	0.039
Mof_H 	H 	0.1564	0.1624	0.3152	0.064
Mof_H 	H 	0.2572	0.8778	0.538	0.053
Mof_H 	H 	0.3135	0.886	0.6303	0.04
Mof_H 	H 	0.3864	0.9746	0.7032	0.027
Mof_H 	H 	0.4031	0.055	0.6837	0.069
Mof_H 	H 	0.2003	0.8441	0.3188	0.061
Mof_H 	H 	0.2193	0.8277	0.2492	0.028
Mof_H 	H 	0.2804	0.9038	0.2346	0.035
Mof_H 	H 	0.3224	0.996	0.2894	0.065
Mof_H 	H 	0.3777	0.2401	0.6736	0.067
Mof_H 	H 	0.3386	0.2937	0.6847	0.03
Mof_H 	H 	0.2493	0.2793	0.6074	0.037
Mof_H 	H 	0.1989	0.211	0.5189	0.055
Mof_H 	H 	0.0399	0.8403	0.3526	0.059
Mof_H 	H 	0.9404	0.8206	0.3042	0.048
Mof_H 	H 	0.9254	0.8925	0.2979	0.015
Mof_H 	H 	0.0099	0.9841	0.34	0.072
Mof_H 	H 	0.5426	0.2271	0.6541	0.066
Mof_H 	H 	0.6292	0.2784	0.6518	0.033
Mof_H 	H 	0.6193	0.2699	0.5668	0.029
Mof_H 	H 	0.5228	0.2102	0.4842	0.07
Mof_H 	H 	0.4894	0.2253	0.9313	0.182
Mof_H 	H 	0.4295	0.2029	0.876	0.156
Mof_H 	H 	0.0954	0.7819	0.4705	0.197
Mof_H 	H 	0.0497	0.7287	0.47	0.167
Mof_C 	C 	0.0498	0.1576	0.3382	-0.193
Mof_C 	C 	0.9907	0.1224	0.2895	0.239
Mof_C 	C 	0.954	0.1429	0.2663	-0.196
Mof_C 	C 	0.9764	0.1985	0.2919	0.023
Mof_C 	C 	0.0355	0.2338	0.3407	-0.127
Mof_C 	C 	0.0722	0.2133	0.3639	0.087
Mof_C 	C 	0.9399	0.2226	0.2691	0.293
Mof_C 	C 	0.0919	0.1339	0.3648	0.338
Mof_C 	C 	0.5753	0.1963	0.3268	-0.217
Mof_C 	C 	0.5486	0.1432	0.3282	0.291
Mof_C 	C 	0.505	0.1256	0.3422	-0.239
Mof_C 	C 	0.4879	0.161	0.3547	0.041
Mof_C 	C 	0.5145	0.214	0.3533	-0.137
Mof_C 	C 	0.5582	0.2317	0.3393	0.102
Mof_C 	C 	0.6264	0.22	0.3136	0.335
Mof_C 	C 	0.4392	0.1343	0.3651	0.279
Mof_C 	C 	0.7227	0.3769	0.0776	0.054
Mof_C 	C 	0.772	0.4278	0.1222	0.075
Mof_C 	C 	0.7885	0.4776	0.1135	-0.134
Mof_C 	C 	0.7556	0.4764	0.0602	-0.003
Mof_C 	C 	0.7063	0.4255	0.0156	-0.034
Mof_C 	C 	0.6899	0.3758	0.0243	-0.096
Mof_C 	C 	0.84	0.2409	0.3257	0.082
Mof_C 	C 	0.7965	0.2408	0.3351	0.041
Mof_C 	C 	0.7865	0.2192	0.3731	-0.1
Mof_C 	C 	0.8201	0.1977	0.4018	-0.035
Mof_C 	C 	0.8637	0.1978	0.3925	-0.006
Mof_C 	C 	0.8737	0.2194	0.3545	-0.128
Mof_C 	C 	0.7864	0.4495	0.3111	0.067
Mof_C 	C 	0.7498	0.40409	0.32009	0.06
Mof_C 	C 	0.7248	0.4119	0.3503	-0.119
Mof_C 	C 	0.7361	0.4649	0.3714	-0.02
Mof_C 	C 	0.7728	0.5103	0.3625	-0.026
Mof_C 	C 	0.7979	0.5027	0.3324	-0.106
Mof_C 	C 	0.7582	0.21493	0.07353	0.043
Mof_C 	C 	0.8117	0.2221	0.1184	0.087
Mof_C 	C 	0.8419	0.1993	0.1076	-0.126
Mof_C 	C 	0.81841	0.1692	0.05199	-0.011
Mof_C 	C 	0.7649	0.16202	0.00712	-0.035
Mof_C 	C 	0.73475	0.18485	0.0179	-0.101
Mof_C 	C 	0.575	0.2037	0.1085	0.083
Mof_C 	C 	0.5839	0.2089	0.16	0.035
Mof_C 	C 	0.5338	0.1838	0.1642	-0.081
Mof_C 	C 	0.4748	0.1535	0.1169	-0.053
Mof_C 	C 	0.466	0.1484	0.0654	0.018
Mof_C 	C 	0.516	0.1734	0.0612	-0.149
Mof_C 	C 	0.9756	0.4553	0.2923	0.073
Mof_C 	C 	0.9815	0.4109	0.2932	0.063
Mof_C 	C 	0.0386	0.4191	0.3149	-0.117
Mof_C 	C 	0.0898	0.4718	0.3358	-0.019
Mof_C 	C 	0.084	0.5162	0.335	-0.01
Mof_C 	C 	0.0268	0.508	0.3132	-0.125
Mof_C 	C 	0.5498	0.2116	0.8922	-0.194
Mof_C 	C 	0.4907	0.2012	0.8683	0.24
Mof_C 	C 	0.454	0.1877	0.8111	-0.196
Mof_C 	C 	0.4764	0.1845	0.7779	0.023
Mof_C 	C 	0.5355	0.1948	0.8017	-0.127
Mof_C 	C 	0.5722	0.2083	0.8589	0.088
Mof_C 	C 	0.4399	0.1708	0.7173	0.293
Mof_C 	C 	0.5919	0.2271	0.958	0.338
Mof_C 	C 	0.0753	0.7485	0.379	-0.22
Mof_C 	C 	0.0486	0.7204	0.4054	0.294
Mof_C 	C 	0.005	0.6628	0.3794	-0.245
Mof_C 	C 	0.9879	0.6332	0.3269	0.047
Mof_C 	C 	0.0145	0.6612	0.3005	-0.143
Mof_C 	C 	0.0582	0.7189	0.3265	0.105
Mof_C 	C 	0.1264	0.8128	0.4064	0.335
Mof_C 	C 	0.9392	0.5741	0.3049	0.277
Mof_C 	C 	0.2227	0.1451	0.3458	0.054
Mof_C 	C 	0.272	0.1498	0.3442	0.076
Mof_C 	C 	0.2885	0.175	0.3109	-0.134
Mof_C 	C 	0.2556	0.1954	0.2792	-0.002
Mof_C 	C 	0.2063	0.1907	0.2808	-0.036
Mof_C 	C 	0.1899	0.1656	0.3141	-0.097
Mof_C 	C 	0.34	0.0143	0.5991	0.083
Mof_C 	C 	0.2965	0.9614	0.5557	0.041
Mof_C 	C 	0.2865	0.9134	0.5673	-0.1
Mof_C 	C 	0.3201	0.9183	0.6224	-0.035
Mof_C 	C 	0.3637	0.9712	0.6659	-0.006
Mof_C 	C 	0.3737	0.0192	0.6543	-0.128
Mof_C 	C 	0.2864	0.9753	0.3369	0.066
Mof_C 	C 	0.2498	0.92971	0.34571	0.061
Mof_C 	C 	0.2248	0.8745	0.3129	-0.119
Mof_C 	C 	0.2361	0.8647	0.2712	-0.02
Mof_C 	C 	0.2728	0.9103	0.2625	-0.026
Mof_C 	C 	0.2979	0.9655	0.2952	-0.105
Mof_C 	C 	0.2582	0.18467	0.54327	0.043
Mof_C 	C 	0.3117	0.1933	0.5896	0.087
Mof_C 	C 	0.3419	0.2343	0.6426	-0.126
Mof_C 	C 	0.31841	0.26642	0.64921	-0.01
Mof_C 	C 	0.2649	0.25778	0.60288	-0.037
Mof_C 	C 	0.23475	0.21685	0.5499	-0.102
Mof_C 	C 	0.075	0.9665	0.3713	0.082
Mof_C 	C 	0.0839	0.9239	0.375	0.036
Mof_C 	C 	0.0338	0.8696	0.35	-0.085
Mof_C 	C 	0.9748	0.8579	0.3213	-0.05
Mof_C 	C 	0.966	0.9006	0.3176	0.02
Mof_C 	C 	0.016	0.9548	0.3426	-0.151
Mof_C 	C 	0.4756	0.1833	0.5203	0.072
Mof_C 	C 	0.4815	0.1883	0.5706	0.063
Mof_C 	C 	0.5386	0.2237	0.6195	-0.116
Mof_C 	C 	0.5898	0.254	0.618	-0.019
Mof_C 	C 	0.584	0.249	0.5678	-0.01
Mof_C 	C 	0.5268	0.2136	0.5188	-0.124
Mof_N 	N 	0.717	0.3346	0.0978	-0.213
Mof_N 	N 	0.7599	0.3598	0.1521	-0.201
Mof_N 	N 	0.794	0.4169	0.1685	-0.249
Mof_N 	N 	0.8395	0.2604	0.2845	-0.248
Mof_N 	N 	0.7985	0.275	0.2711	-0.203
Mof_N 	N 	0.7719	0.263	0.2997	-0.243
Mof_N 	N 	0.8063	0.4317	0.2806	-0.242
Mof_N 	N 	0.7796	0.3762	0.2702	-0.205
Mof_N 	N 	0.7459	0.3598	0.2931	-0.243
Mof_N 	N 	0.7389	0.2405	0.0978	-0.24
Mof_N 	N 	0.781	0.2623	0.1537	-0.203
Mof_N 	N 	0.8249	0.2513	0.167	-0.253
Mof_N 	N 	0.6319	0.2335	0.1148	-0.243
Mof_N 	N 	0.6767	0.2574	0.1705	-0.209
Mof_N 	N 	0.6499	0.2424	0.1993	-0.218
Mof_N 	N 	0.9143	0.4342	0.2697	-0.241
Mof_N 	N 	0.8841	0.3777	0.2564	-0.196
Mof_N 	N 	0.9237	0.3613	0.2702	-0.236
Mof_N 	N 	0.9673	0.0725	0.2564	-0.358
Mof_N 	N 	0.5663	0.1129	0.32	-0.391
Mof_N 	N 	0.217	0.1192	0.3824	-0.213
Mof_N 	N 	0.2599	0.1078	0.4001	-0.201
Mof_N 	N 	0.294	0.1255	0.3771	-0.249
Mof_N 	N 	0.3395	0.055	0.5791	-0.248
Mof_N 	N 	0.2985	0.0274	0.5235	-0.202
Mof_N 	N 	0.2719	0.9722	0.5089	-0.243
Mof_N 	N 	0.3063	0.0257	0.3746	-0.242
Mof_N 	N 	0.2796	0.0094	0.4034	-0.205
Mof_N 	N 	0.2459	0.9528	0.3861	-0.243
Mof_N 	N 	0.2389	0.1411	0.4984	-0.24
Mof_N 	N 	0.281	0.1273	0.5187	-0.203
Mof_N 	N 	0.3249	0.1579	0.5736	-0.253
Mof_N 	N 	0.1319	0.0171	0.3984	-0.242
Mof_N 	N 	0.1767	0.0062	0.4193	-0.209
Mof_N 	N 	0.1499	0.9506	0.4075	-0.219
Mof_N 	N 	0.4143	0.1446	0.4801	-0.241
Mof_N 	N 	0.3841	0.1277	0.5064	-0.196
Mof_N 	N 	0.4237	0.1535	0.5624	-0.236
Mof_N 	N 	0.4673	0.2109	0.8948	-0.358
Mof_N 	N 	0.0663	0.7463	0.4534	-0.392
Mof_O 	O 	0.9661	0.2764	0.2933	-0.439
Mof_O 	O 	0.8848	0.1938	0.2342	-0.39
Mof_O 	O 	0.144	0.1665	0.4107	-0.442
Mof_O 	O 	0.0738	0.084	0.3412	-0.429
Mof_O 	O 	0.6434	0.2695	0.3101	-0.457
Mof_O 	O 	0.6469	0.1931	0.3032	-0.395
Mof_O 	O 	0.4143	0.1617	0.368	-0.423
Mof_O 	O 	0.4246	0.0937	0.3789	-0.393
Mof_O 	O 	0.4661	0.1728	0.6897	-0.439
Mof_O 	O 	0.3848	0.1506	0.691	-0.39
Mof_O 	O 	0.644	0.2333	0.9775	-0.442
Mof_O 	O 	0.5738	0.2326	0.9898	-0.43
Mof_O 	O 	0.1434	0.8333	0.3739	-0.457
Mof_O 	O 	0.1469	0.8437	0.4538	-0.395
Mof_O 	O 	0.9143	0.5463	0.2526	-0.422
Mof_O 	O 	0.9246	0.5457	0.3309	-0.392
Mof_Zn	Zn	0.72272	0.93384	0.53934	1.136
Mof_Zn	Zn	0.61198	0.86046	0.38824	1.189
Mof_Zn	Zn	0.79503	0.08489	0.57332	1.176
Mof_Zn	Zn	0.63879	0.89107	0.60652	1.185
Mof_Zn	Zn	0.8404	0.89884	0.58336	1.175
Mof_Zn	Zn	0.22272	0.68338	0.78888	1.136
Mof_Zn	Zn	0.11198	0.72374	0.75152	1.189
Mof_Zn	Zn	0.29503	0.72171	0.71014	1.176
Mof_Zn	Zn	0.13879	0.53227	0.74772	1.185
Mof_Zn	Zn	0.3404	0.75704	0.94156	1.175
Mof_H 	H 	0.586	0.8192	0.205	0.106
Mof_H 	H 	0.4494	0.8074	0.2208	0.091
Mof_H 	H 	0.3878	0.7847	0.1249	0.01
Mof_H 	H 	0.0131	0.3562	0.6027	0.125
Mof_H 	H 	0.997	0.3588	0.735	0.089
Mof_H 	H 	0.9238	0.2622	0.6914	0.006
Mof_H 	H 	0.6781	0.8218	0.6901	0.071
Mof_H 	H 	0.7332	0.7875	0.7433	0.026
Mof_H 	H 	0.8159	0.7953	0.7406	0.039
Mof_H 	H 	0.8436	0.8376	0.6848	0.064
Mof_H 	H 	0.7428	0.1222	0.462	0.053
Mof_H 	H 	0.6865	0.114	0.3697	0.04
Mof_H 	H 	0.6136	0.0254	0.2968	0.027
Mof_H 	H 	0.5969	0.945	0.3163	0.069
Mof_H 	H 	0.7997	0.1559	0.6812	0.061
Mof_H 	H 	0.7807	0.1723	0.7508	0.028
Mof_H 	H 	0.7196	0.0962	0.7654	0.035
Mof_H 	H 	0.6776	0.004	0.7106	0.065
Mof_H 	H 	0.6223	0.7599	0.3264	0.067
Mof_H 	H 	0.6614	0.7063	0.3153	0.03
Mof_H 	H 	0.7507	0.7207	0.3926	0.037
Mof_H 	H 	0.8011	0.789	0.4811	0.055
Mof_H 	H 	0.9601	0.1597	0.6474	0.059
Mof_H 	H 	0.0596	0.1794	0.6958	0.048
Mof_H 	H 	0.0746	0.1075	0.7021	0.015
Mof_H 	H 	0.9901	0.0159	0.66	0.072
Mof_H 	H 	0.4574	0.7729	0.3459	0.066
Mof_H 	H 	0.3708	0.7216	0.3482	0.033
Mof_H 	H 	0.3807	0.7301	0.4332	0.029
Mof_H 	H 	0.4772	0.7898	0.5158	0.07
Mof_H 	H 	0.5106	0.7747	0.0687	0.182
Mof_H 	H 	0.5705	0.7971	0.124	0.156
Mof_H 	H 	0.9046	0.2181	0.5295	0.197
Mof_H 	H 	0.9503	0.2713	0.53	0.167
Mof_H 	H 	0.086	0.881	0.7668	0.106
Mof_H 	H 	0.9494	0.7286	0.642	0.09
Mof_H 	H 	0.8878	0.7629	0.6031	0.011
Mof_H 	H 	0.5131	0.9104	0.6569	0.122
Mof_H 	H 	0.497	0.762	0.6382	0.088
Mof_H 	H 	0.4238	0.7324	0.6616	0.008
Mof_H 	H 	0.1781	0.488	0.8563	0.071
Mof_H 	H 	0.2332	0.4899	0.9457	0.026
Mof_H 	H 	0.3159	0.5753	0.0206	0.038
Mof_H 	H 	0.3436	0.6588	0.006	0.063
Mof_H 	H 	0.2428	0.7808	0.6206	0.053
Mof_H 	H 	0.1865	0.8168	0.5725	0.04
Mof_H 	H 	0.1136	0.8168	0.5882	0.027
Mof_H 	H 	0.0969	0.7806	0.6519	0.069
Mof_H 	H 	0.2997	0.6185	0.6438	0.061
Mof_H 	H 	0.2807	0.5299	0.6084	0.028
Mof_H 	H 	0.2196	0.4542	0.6234	0.034
Mof_H 	H 	0.1776	0.467	0.6736	0.066
Mof_H 	H 	0.1223	0.7959	0.8624	0.067
Mof_H 	H 	0.1614	0.8461	0.9551	0.03
Mof_H 	H 	0.2507	0.8581	0.03	0.035
Mof_H 	H 	0.3011	0.82	0.0121	0.054
Mof_H 	H 	0.4601	0.8127	0.8004	0.058
Mof_H 	H 	0.5596	0.8638	0.8802	0.049
Mof_H 	H 	0.5746	0.8725	0.9671	0.015
Mof_H 	H 	0.4901	0.8301	0.9742	0.072
Mof_H 	H 	0.9574	0.6115	0.6845	0.066
Mof_H 	H 	0.8708	0.5226	0.6492	0.033
Mof_H 	H 	0.8807	0.4475	0.6506	0.029
Mof_H 	H 	0.9772	0.4614	0.6874	0.07
Mof_H 	H 	0.0106	0.9419	0.7359	0.182
Mof_H 	H 	0.0705	0.9465	0.7734	0.156
Mof_H 	H 	0.4046	0.8751	0.6865	0.196
Mof_H 	H 	0.4503	0.9203	0.679	0.167
Mof_C 	C 	0.4502	0.7884	0.1078	-0.194
Mof_C 	C 	0.5093	0.7988	0.1317	0.24
Mof_C 	C 	0.546	0.8123	0.1889	-0.196
Mof_C 	C 	0.5236	0.8155	0.2221	0.023
Mof_C 	C 	0.4645	0.8052	0.1983	-0.127
Mof_C 	C 	0.4278	0.7917	0.1411	0.088
Mof_C 	C 	0.5601	0.8292	0.2827	0.293
Mof_C 	C 	0.4081	0.7729	0.042	0.338
Mof_C 	C 	0.9247	0.2515	0.621	-0.22
Mof_C 	C 	0.9514	0.2796	0.5946	0.294
Mof_C 	C 	0.995	0.3372	0.6206	-0.245
Mof_C 	C 	0.0121	0.3668	0.6731	0.047
Mof_C 	C 	0.9855	0.3388	0.6995	-0.143
Mof_C 	C 	0.9418	0.2811	0.6735	0.105
Mof_C 	C 	0.8736	0.1872	0.5936	0.335
Mof_C 	C 	0.0608	0.4259	0.6951	0.277
Mof_C 	C 	0.7773	0.8549	0.6542	0.054
Mof_C 	C 	0.728	0.8502	0.6558	0.076
Mof_C 	C 	0.7115	0.825	0.6891	-0.134
Mof_C 	C 	0.7444	0.8046	0.7208	-0.002
Mof_C 	C 	0.7937	0.8093	0.7192	-0.036
Mof_C 	C 	0.8101	0.8344	0.6859	-0.097
Mof_C 	C 	0.66	0.9857	0.4009	0.083
Mof_C 	C 	0.7035	0.0386	0.4443	0.041
Mof_C 	C 	0.7135	0.0866	0.4327	-0.1
Mof_C 	C 	0.6799	0.0817	0.3776	-0.035
Mof_C 	C 	0.6363	0.0288	0.3341	-0.006
Mof_C 	C 	0.6263	0.9808	0.3457	-0.128
Mof_C 	C 	0.7136	0.0247	0.6631	0.066
Mof_C 	C 	0.7502	0.07029	0.65429	0.061
Mof_C 	C 	0.7752	0.1255	0.6871	-0.119
Mof_C 	C 	0.7639	0.1353	0.7288	-0.02
Mof_C 	C 	0.7272	0.0897	0.7375	-0.026
Mof_C 	C 	0.7021	0.0345	0.7048	-0.105
Mof_C 	C 	0.7418	0.81533	0.45673	0.043
Mof_C 	C 	0.6883	0.8067	0.4104	0.087
Mof_C 	C 	0.6581	0.7657	0.3574	-0.126
Mof_C 	C 	0.68159	0.73358	0.35079	-0.01
Mof_C 	C 	0.7351	0.74222	0.39712	-0.037
Mof_C 	C 	0.76525	0.78315	0.4501	-0.102
Mof_C 	C 	0.925	0.0335	0.6287	0.082
Mof_C 	C 	0.9161	0.0761	0.625	0.036
Mof_C 	C 	0.9662	0.1304	0.65	-0.085
Mof_C 	C 	0.0252	0.1421	0.6787	-0.05
Mof_C 	C 	0.034	0.0994	0.6824	0.02
Mof_C 	C 	0.984	0.0452	0.6574	-0.151
Mof_C 	C 	0.5244	0.8167	0.4797	0.072
Mof_C 	C 	0.5185	0.8117	0.4294	0.063
Mof_C 	C 	0.4614	0.7763	0.3805	-0.116
Mof_C 	C 	0.4102	0.746	0.382	-0.019
Mof_C 	C 	0.416	0.751	0.4322	-0.01
Mof_C 	C 	0.4732	0.7864	0.4812	-0.124
Mof_C 	C 	0.9502	0.8424	0.6618	-0.193
Mof_C 	C 	0.0093	0.8776	0.7105	0.239
Mof_C 	C 	0.046	0.8571	0.7337	-0.196
Mof_C 	C 	0.0236	0.8015	0.7081	0.023
Mof_C 	C 	0.9645	0.7662	0.6593	-0.127
Mof_C 	C 	0.9278	0.7867	0.6361	0.087
Mof_C 	C 	0.0601	0.7774	0.7309	0.293
Mof_C 	C 	0.9081	0.8661	0.6352	0.338
Mof_C 	C 	0.4247	0.8037	0.6732	-0.217
Mof_C 	C 	0.4514	0.8568	0.6718	0.291
Mof_C 	C 	0.495	0.8744	0.6578	-0.239
Mof_C 	C 	0.5121	0.839	0.6453	0.041
Mof_C 	C 	0.4855	0.786	0.6467	-0.137
Mof_C 	C 	0.4418	0.7683	0.6607	0.102
Mof_C 	C 	0.3736	0.78	0.6864	0.335
Mof_C 	C 	0.5608	0.8657	0.6349	0.279
Mof_C 	C 	0.2773	0.6231	0.9224	0.054
Mof_C 	C 	0.228	0.5722	0.8778	0.075
Mof_C 	C 	0.2115	0.5224	0.8865	-0.134
Mof_C 	C 	0.2444	0.5236	0.9398	-0.003
Mof_C 	C 	0.2937	0.5745	0.9844	-0.034
Mof_C 	C 	0.3101	0.6242	0.9757	-0.096
Mof_C 	C 	0.16	0.7591	0.6743	0.082
Mof_C 	C 	0.2035	0.7592	0.6649	0.041
Mof_C 	C 	0.2135	0.7808	0.6269	-0.1
Mof_C 	C 	0.1799	0.8023	0.5982	-0.035
Mof_C 	C 	0.1363	0.8022	0.6075	-0.006
Mof_C 	C 	0.1263	0.7806	0.6455	-0.128
Mof_C 	C 	0.2136	0.5505	0.6889	0.067
Mof_C 	C 	0.2502	0.59591	0.67991	0.06
Mof_C 	C 	0.2752	0.5881	0.6497	-0.119
Mof_C 	C 	0.2639	0.5351	0.6286	-0.02
Mof_C 	C 	0.2272	0.4897	0.6375	-0.026
Mof_C 	C 	0.2021	0.4973	0.6676	-0.106
Mof_C 	C 	0.2418	0.78507	0.92647	0.043
Mof_C 	C 	0.1883	0.7779	0.8816	0.087
Mof_C 	C 	0.1581	0.8007	0.8924	-0.126
Mof_C 	C 	0.18159	0.8308	0.94801	-0.011
Mof_C 	C 	0.2351	0.83798	0.99288	-0.035
Mof_C 	C 	0.26525	0.81515	0.9821	-0.101
Mof_C 	C 	0.425	0.7963	0.8915	0.083
Mof_C 	C 	0.4161	0.7911	0.84	0.035
Mof_C 	C 	0.4662	0.8162	0.8358	-0.081
Mof_C 	C 	0.5252	0.8465	0.8831	-0.053
Mof_C 	C 	0.534	0.8516	0.9346	0.018
Mof_C 	C 	0.484	0.8266	0.9388	-0.149
Mof_C 	C 	0.0244	0.5447	0.7077	0.073
Mof_C 	C 	0.0185	0.5891	0.7068	0.063
Mof_C 	C 	0.9614	0.5809	0.6851	-0.117
Mof_C 	C 	0.9102	0.5282	0.6642	-0.019
Mof_C 	C 	0.916	0.4838	0.665	-0.01
Mof_C 	C 	0.9732	0.492	0.6868	-0.125
Mof_N 	N 	0.783	0.8808	0.6176	-0.213
Mof_N 	N 	0.7401	0.8922	0.5999	-0.201
Mof_N 	N 	0.706	0.8745	0.6229	-0.249
Mof_N 	N 	0.6605	0.945	0.4209	-0.248
Mof_N 	N 	0.7015	0.9726	0.4765	-0.202
Mof_N 	N 	0.7281	0.0278	0.4911	-0.243
Mof_N 	N 	0.6937	0.9743	0.6254	-0.242
Mof_N 	N 	0.7204	0.9906	0.5966	-0.205
Mof_N 	N 	0.7541	0.0472	0.6139	-0.243
Mof_N 	N 	0.7611	0.8589	0.5016	-0.24
Mof_N 	N 	0.719	0.8727	0.4813	-0.203
Mof_N 	N 	0.6751	0.8421	0.4264	-0.253
Mof_N 	N 	0.8681	0.9829	0.6016	-0.242
Mof_N 	N 	0.8233	0.9938	0.5807	-0.209
Mof_N 	N 	0.8501	0.0494	0.5925	-0.219
Mof_N 	N 	0.5857	0.8554	0.5199	-0.241
Mof_N 	N 	0.6159	0.8723	0.4936	-0.196
Mof_N 	N 	0.5763	0.8465	0.4376	-0.236
Mof_N 	N 	0.5327	0.7891	0.1052	-0.358
Mof_N 	N 	0.9337	0.2537	0.5466	-0.392
Mof_N 	N 	0.283	0.6654	0.9022	-0.213
Mof_N 	N 	0.2401	0.6402	0.8479	-0.201
Mof_N 	N 	0.206	0.5831	0.8315	-0.249
Mof_N 	N 	0.1605	0.7396	0.7155	-0.248
Mof_N 	N 	0.2015	0.725	0.7289	-0.203
Mof_N 	N 	0.2281	0.737	0.7003	-0.243
Mof_N 	N 	0.1937	0.5683	0.7194	-0.242
Mof_N 	N 	0.2204	0.6238	0.7298	-0.205
Mof_N 	N 	0.2541	0.6402	0.7069	-0.243
Mof_N 	N 	0.2611	0.7595	0.9022	-0.24
Mof_N 	N 	0.219	0.7377	0.8463	-0.203
Mof_N 	N 	0.1751	0.7487	0.833	-0.253
Mof_N 	N 	0.3681	0.7665	0.8852	-0.243
Mof_N 	N 	0.3233	0.7426	0.8295	-0.209
Mof_N 	N 	0.3501	0.7576	0.8007	-0.218
Mof_N 	N 	0.0857	0.5658	0.7303	-0.241
Mof_N 	N 	0.1159	0.6223	0.7436	-0.196
Mof_N 	N 	0.0763	0.6387	0.7298	-0.236
Mof_N 	N 	0.0327	0.9275	0.7436	-0.358
Mof_N 	N 	0.4337	0.8871	0.68	-0.391
Mof_O 	O 	0.5339	0.8272	0.3103	-0.439
Mof_O 	O 	0.6152	0.8494	0.309	-0.39
Mof_O 	O 	0.356	0.7667	0.0225	-0.442
Mof_O 	O 	0.4262	0.7674	0.0102	-0.43
Mof_O 	O 	0.8566	0.1667	0.6261	-0.457
Mof_O 	O 	0.8531	0.1563	0.5462	-0.395
Mof_O 	O 	0.0857	0.4537	0.7474	-0.422
Mof_O 	O 	0.0754	0.4543	0.6691	-0.392
Mof_O 	O 	0.0339	0.7236	0.7067	-0.439
Mof_O 	O 	0.1152	0.8062	0.7658	-0.39
Mof_O 	O 	0.856	0.8335	0.5893	-0.442
Mof_O 	O 	0.9262	0.916	0.6588	-0.429
Mof_O 	O 	0.3566	0.7305	0.6899	-0.457
Mof_O 	O 	0.3531	0.8069	0.6968	-0.395
Mof_O 	O 	0.5857	0.8383	0.632	-0.423
Mof_O 	O 	0.5754	0.9063	0.6211	-0.393
_end
