data_functionalizedCrystal
_audit_creation_method	'EQeq! by Chris Wilmer'
_symmetry_space_group_name_H-M	'P1'
_symmetry_Int_Tables_number	1
_symmetry_cell_setting	triclinic
loop_
_symmetry_equiv_pos_as_xyz
  x,y,z
_cell_length_a	19.65
_cell_length_b	37.98
_cell_length_c	28.82
_cell_angle_alpha	90
_cell_angle_beta	94.57
_cell_angle_gamma	90
loop_
_atom_site_label
_atom_site_type_symbol
_atom_site_fract_x
_atom_site_fract_y
_atom_site_fract_z
_atom_site_charge
Mof_Zn	Zn	0.6582	0.7912	0.4765	1.212
Mof_Zn	Zn	0.7558	0.7827	0.5683	1.224
Mof_Zn	Zn	0.8053	0.8264	0.4821	1.223
Mof_Zn	Zn	0.7882	0.7564	0.9763	1.244
Mof_Cu	Cu	0.1292	0.5486	0.7225	0.849
Mof_Cu	Cu	0.4786	0.917	0.6738	0.868
Mof_Cu	Cu	0.17	0.7308	0.6786	0.857
Mof_C 	C 	0.3055	0.758	0.8347	0.015
Mof_C 	C 	0.2294	0.7445	0.7684	0.034
Mof_C 	C 	0.2391	0.7482	0.8164	-0.018
Mof_C 	C 	0.1849	0.7428	0.8438	0.027
Mof_C 	C 	0.1209	0.7339	0.8231	-0.034
Mof_C 	C 	0.1112	0.7303	0.775	0.075
Mof_N 	N 	0.1654	0.7356	0.7476	-0.221
Mof_C 	C 	0.3374	0.7686	0.7689	-0.001
Mof_C 	C 	0.2812	0.7546	0.7424	0.008
Mof_C 	C 	0.3366	0.7685	0.8195	-0.008
Mof_N 	N 	0.0776	0.5079	0.7482	-0.216
Mof_N 	N 	0.032	0.5622	0.7029	-0.22
Mof_C 	C 	0.884	0.5815	0.699	0.012
Mof_C 	C 	0.947	0.6005	0.6699	-0.028
Mof_C 	C 	0.0156	0.5888	0.6784	0.076
Mof_C 	C 	0.0945	0.4809	0.7798	0.043
Mof_C 	C 	0.0588	0.4618	0.8093	-0.023
Mof_C 	C 	0.0677	0.6113	0.6552	-0.066
Mof_C 	C 	0.9858	0.475	0.8208	0.014
Mof_C 	C 	0.9784	0.538	0.7234	0.011
Mof_C 	C 	0.9177	0.5543	0.7285	-0.001
Mof_C 	C 	0.8764	0.5352	0.7651	-0.004
Mof_C 	C 	0.0058	0.5107	0.749	0.042
Mof_C 	C 	0.97	0.4953	0.7834	-0.018
Mof_C 	C 	0.8938	0.5113	0.7786	0.01
Mof_C 	C 	0.4387	0.9986	0.6626	0.085
Mof_C 	C 	0.4282	0.0277	0.6872	-0.051
Mof_C 	C 	0.4355	0.0279	0.7312	0.031
Mof_C 	C 	0.4651	0.0073	0.8124	0.006
Mof_C 	C 	0.4625	0.9711	0.7315	0.035
Mof_C 	C 	0.492	0.9747	0.8389	0.001
Mof_C 	C 	0.9578	0.7191	0.9094	-0.142
Mof_C 	C 	0.9785	0.7525	0.8965	0.06
Mof_C 	C 	0.6699	0.767	0.9136	0.259
Mof_C 	C 	0.0374	0.7552	0.8673	-0.013
Mof_C 	C 	0.0718	0.7256	0.8531	0.029
Mof_C 	C 	0.0512	0.6922	0.866	-0.028
Mof_C 	C 	0.9961	0.6884	0.893	0.057
Mof_C 	C 	0.6037	0.787	0.5674	0.511
Mof_C 	C 	0.1678	0.342	0.922	0.598
Mof_C 	C 	0.8286	0.7165	0.5658	0.468
Mof_C 	C 	0.897	0.7163	0.9349	0.429
Mof_C 	C 	0.329	0.1442	0.5766	0.392
Mof_C 	C 	0.3502	0.1123	0.6013	-0.148
Mof_C 	C 	0.4128	0.116	0.6269	0.055
Mof_C 	C 	0.4385	0.0886	0.6551	-0.029
Mof_C 	C 	0.4017	0.0575	0.6576	0.034
Mof_C 	C 	0.3391	0.0538	0.632	-0.032
Mof_C 	C 	0.3134	0.0812	0.6039	0.065
Mof_C 	C 	0.1375	0.3736	0.891	-0.157
Mof_C 	C 	0.1243	0.3692	0.8432	0.072
Mof_C 	C 	0.1036	0.3978	0.8154	-0.025
Mof_C 	C 	0.096	0.4307	0.8353	0.025
Mof_C 	C 	0.1092	0.4351	0.8831	-0.032
Mof_C 	C 	0.13	0.4066	0.9109	0.071
Mof_C 	C 	0.8631	0.6884	0.5981	-0.146
Mof_C 	C 	0.8644	0.6873	0.6463	0.069
Mof_C 	C 	0.8858	0.6569	0.6701	-0.034
Mof_C 	C 	0.9058	0.6277	0.6456	0.029
Mof_C 	C 	0.9044	0.6288	0.5974	-0.017
Mof_C 	C 	0.8831	0.6592	0.5736	0.058
Mof_C 	C 	0.2727	0.5546	0.7009	-0.044
Mof_C 	C 	0.2742	0.5617	0.7503	0.206
Mof_C 	C 	0.2108	0.5672	0.815	0.007
Mof_C 	C 	0.271	0.5701	0.8438	-0.013
Mof_C 	C 	0.3328	0.5712	0.8249	0.032
Mof_C 	C 	0.3353	0.5667	0.7764	-0.092
Mof_C 	C 	0.3985	0.5682	0.7541	0.029
Mof_C 	C 	0.3976	0.5642	0.7079	-0.02
Mof_C 	C 	0.336	0.5571	0.6792	0.015
Mof_C 	C 	0.3304	0.5528	0.6305	0.01
Mof_C 	C 	0.2687	0.5457	0.6072	-0.029
Mof_C 	C 	0.21	0.5429	0.6315	0.104
Mof_C 	C 	0.5267	0.8907	0.5892	0.049
Mof_C 	C 	0.4529	0.8934	0.5848	-0.006
Mof_C 	C 	0.3548	0.9064	0.622	0.054
Mof_C 	C 	0.4162	0.8842	0.5439	0.002
Mof_C 	C 	0.3144	0.8953	0.5827	-0.017
Mof_C 	C 	0.3442	0.8855	0.5432	0.008
Mof_C 	C 	0.4507	0.8748	0.5033	-0.006
Mof_C 	C 	0.519	0.8744	0.5059	0.014
Mof_C 	C 	0.6653	0.8898	0.5961	-0.026
Mof_C 	C 	0.6281	0.8971	0.6344	0.06
Mof_C 	C 	0.6321	0.8826	0.5537	0.001
Mof_C 	C 	0.5602	0.8821	0.5481	-0.016
Mof_C 	C 	0.5476	0.7826	0.5968	-0.194
Mof_C 	C 	0.485	0.7966	0.58	0.079
Mof_C 	C 	0.4296	0.795	0.6071	-0.037
Mof_C 	C 	0.4368	0.7795	0.6509	0.033
Mof_C 	C 	0.4993	0.7656	0.6676	-0.037
Mof_C 	C 	0.5548	0.7671	0.6406	0.076
Mof_C 	C 	0.6285	0.8055	0.8981	-0.04
Mof_C 	C 	0.5591	0.8023	0.8852	0.029
Mof_C 	C 	0.5256	0.8282	0.8579	-0.013
Mof_C 	C 	0.5614	0.8572	0.8437	0.014
Mof_C 	C 	0.6308	0.8604	0.8565	-0.005
Mof_C 	C 	0.6644	0.8345	0.8838	0.024
Mof_C 	C 	0.5221	0.8506	0.738	-0.045
Mof_C 	C 	0.5193	0.8773	0.7736	0.043
Mof_C 	C 	0.5321	0.8839	0.8209	-0.021
Mof_C 	C 	0.5233	0.9176	0.8381	0.014
Mof_C 	C 	0.5016	0.9447	0.808	-0.014
Mof_C 	C 	0.4895	0.9381	0.7616	0.022
Mof_C 	C 	0.3121	0.7575	0.6635	0.093
Mof_C 	C 	0.3805	0.7663	0.6807	-0.04
Mof_C 	C 	0.4023	0.7682	0.7271	0.014
Mof_C 	C 	0.0535	0.7145	0.7517	-0.061
Mof_C 	C 	0.2938	0.7525	0.6162	-0.065
Mof_C 	C 	0.0494	0.7757	0.6425	0.068
Mof_C 	C 	0.9913	0.785	0.6048	-0.024
Mof_C 	C 	0.9789	0.7651	0.5726	0.005
Mof_C 	C 	0.0177	0.7363	0.5647	-0.029
Mof_C 	C 	0.069	0.7285	0.5992	0.063
Mof_C 	C 	0.11	0.6991	0.5949	-0.01
Mof_C 	C 	0.0998	0.6774	0.5561	0.005
Mof_C 	C 	0.0485	0.6852	0.5216	-0.001
Mof_C 	C 	0.0075	0.7147	0.5259	0.011
Mof_C 	C 	0.1518	0.6468	0.5546	0.015
Mof_C 	C 	0.1994	0.6432	0.587	-0.019
Mof_C 	C 	0.2079	0.6652	0.6334	0.078
Mof_C 	C 	0.4579	0.0023	0.7604	-0.024
Mof_N 	N 	0.2147	0.5492	0.6708	-0.197
Mof_N 	N 	0.2293	0.5643	0.7616	-0.265
Mof_N 	N 	0.5592	0.9034	0.6244	-0.197
Mof_N 	N 	0.4651	0.9712	0.688	-0.213
Mof_N 	N 	0.5048	0.91	0.7353	-0.235
Mof_N 	N 	0.4162	0.8954	0.6256	-0.221
Mof_N 	N 	0.266	0.7507	0.691	-0.222
Mof_N 	N 	0.0865	0.7487	0.6333	-0.223
Mof_N 	N 	0.1645	0.6872	0.6286	-0.204
Mof_O 	O 	0.5985	0.7959	0.53	-0.551
Mof_O 	O 	0.3614	0.1628	0.5566	-0.501
Mof_O 	O 	0.62	0.7474	0.9352	-0.409
Mof_O 	O 	0.8049	0.7402	0.5903	-0.5
Mof_O 	O 	0.8815	0.6858	0.9478	-0.507
Mof_O 	O 	0.164	0.3478	0.96	-0.627
Mof_O 	O 	0.7217	0.7749	0.9421	-0.528
Mof_O 	O 	0.8153	0.7166	0.5239	-0.578
Mof_O 	O 	0.1925	0.3191	0.9011	-0.582
Mof_O 	O 	0.2567	0.1448	0.556	-0.461
Mof_O 	O 	0.666	0.7863	0.5883	-0.516
Mof_O 	O 	0.8756	0.7435	0.9515	-0.511
Mof_O 	O 	0.7504	0.786	0.4996	-0.944
Mof_C 	C 	0.4286	0.9876	0.6139	-0.056
Mof_C 	C 	0.231	0.92	0.654	0.009
Mof_C 	C 	0.301	0.91	0.653	-0.012
Mof_C 	C 	0.345	0.917	0.693	-0.074
Mof_C 	C 	0.318	0.925	0.735	0.004
Mof_C 	C 	0.249	0.931	0.737	0.075
Mof_C 	C 	0.205	0.927	0.696	-0.016
Mof_C 	C 	0.143	0.577	0.838	-0.008
Mof_C 	C 	0.13	0.557	0.877	-0.004
Mof_C 	C 	0.06	0.552	0.888	0
Mof_C 	C 	0.009	0.565	0.859	-0.005
Mof_C 	C 	0.022	0.584	0.82	0.004
Mof_C 	C 	0.089	0.59	0.809	-0.055
Mof_C 	C 	0.012	0.522	0.566	0.112
Mof_C 	C 	0.036	0.504	0.606	-0.022
Mof_C 	C 	0.102	0.511	0.625	-0.016
Mof_C 	C 	0.143	0.534	0.605	-0.053
Mof_C 	C 	0.119	0.552	0.565	0.023
Mof_C 	C 	0.053	0.546	0.545	-0.005
Mof_C 	C 	0.68	0.924	0.772	0.08
Mof_C 	C 	0.722	0.898	0.752	-0.001
Mof_C 	C 	0.711	0.891	0.705	0.009
Mof_C 	C 	0.662	0.91	0.678	-0.026
Mof_C 	C 	0.624	0.936	0.698	-0.031
Mof_C 	C 	0.64	0.943	0.745	-0.032
Mof_C 	C 	0.062	0.797	0.685	-0.052
Mof_C 	C 	0.129	0.808	0.696	-0.019
Mof_C 	C 	0.147	0.825	0.737	-0.037
Mof_C 	C 	0.098	0.832	0.768	0.145
Mof_C 	C 	0.03	0.822	0.757	-0.025
Mof_C 	C 	0.012	0.804	0.716	0.021
Mof_C 	C 	0.256	0.658	0.67	-0.054
Mof_C 	C 	0.232	0.66	0.714	-0.044
Mof_C 	C 	0.277	0.66	0.754	-0.001
Mof_C 	C 	0.346	0.658	0.75	-0.002
Mof_C 	C 	0.371	0.655	0.706	-0.006
Mof_C 	C 	0.326	0.656	0.666	0.01
Mof_O 	O 	0.729	0.931	0.814	-0.188
Mof_O 	O 	0.1	0.839	0.811	-0.178
Mof_C 	C 	0.256	0.951	0.877	0.01
Mof_C 	C 	0.28	0.924	0.839	0.076
Mof_O 	O 	0.951	0.531	0.541	-0.157
Mof_O 	O 	0.25	0.938	0.792	-0.17
Mof_C 	C 	0.68	0.953	0.83	0.081
Mof_Zn	Zn	0.3418	0.2912	0.0235	1.211
Mof_Zn	Zn	0.2442	0.2827	0.9317	1.223
Mof_Zn	Zn	0.1947	0.3264	0.0179	1.222
Mof_Zn	Zn	0.2118	0.2564	0.5237	1.243
Mof_Cu	Cu	0.8708	0.0486	0.7775	0.848
Mof_Cu	Cu	0.5214	0.417	0.8262	0.867
Mof_Cu	Cu	0.83	0.2308	0.8214	0.856
Mof_C 	C 	0.6945	0.258	0.6653	0.014
Mof_C 	C 	0.7706	0.2445	0.7316	0.033
Mof_C 	C 	0.7609	0.2482	0.6836	-0.019
Mof_C 	C 	0.8151	0.2428	0.6562	0.026
Mof_C 	C 	0.8791	0.2339	0.6769	-0.035
Mof_C 	C 	0.8888	0.2303	0.725	0.074
Mof_N 	N 	0.8346	0.2356	0.7524	-0.222
Mof_C 	C 	0.6626	0.2686	0.7311	-0.002
Mof_C 	C 	0.7188	0.2546	0.7576	0.007
Mof_C 	C 	0.6634	0.2685	0.6805	-0.009
Mof_N 	N 	0.9224	0.0079	0.7518	-0.217
Mof_N 	N 	0.968	0.0622	0.7971	-0.222
Mof_C 	C 	0.116	0.0815	0.801	0.011
Mof_C 	C 	0.053	0.1005	0.8301	-0.027
Mof_C 	C 	0.9844	0.0888	0.8216	0.076
Mof_C 	C 	0.9055	0.9809	0.7202	0.043
Mof_C 	C 	0.9412	0.9618	0.6907	-0.023
Mof_C 	C 	0.9323	0.1113	0.8448	-0.066
Mof_C 	C 	0.0142	0.975	0.6792	0.014
Mof_C 	C 	0.0216	0.038	0.7766	0.012
Mof_C 	C 	0.0823	0.0543	0.7715	-0.001
Mof_C 	C 	0.1236	0.0352	0.7349	-0.004
Mof_C 	C 	0.9942	0.0107	0.751	0.04
Mof_C 	C 	0.03	0.9953	0.7166	-0.017
Mof_C 	C 	0.1062	0.0113	0.7214	0.01
Mof_C 	C 	0.5613	0.4986	0.8374	0.085
Mof_C 	C 	0.5718	0.5277	0.8128	-0.051
Mof_C 	C 	0.5645	0.5279	0.7688	0.031
Mof_C 	C 	0.5349	0.5073	0.6876	0.006
Mof_C 	C 	0.5375	0.4711	0.7685	0.035
Mof_C 	C 	0.508	0.4747	0.6611	0.001
Mof_C 	C 	0.0422	0.2191	0.5906	-0.143
Mof_C 	C 	0.0215	0.2525	0.6035	0.061
Mof_C 	C 	0.3301	0.267	0.5864	0.259
Mof_C 	C 	0.9626	0.2552	0.6327	-0.014
Mof_C 	C 	0.9282	0.2256	0.6469	0.029
Mof_C 	C 	0.9488	0.1922	0.634	-0.028
Mof_C 	C 	0.0039	0.1884	0.607	0.058
Mof_C 	C 	0.3963	0.287	0.9326	0.511
Mof_C 	C 	0.8322	0.842	0.578	0.598
Mof_C 	C 	0.1714	0.2165	0.9342	0.468
Mof_C 	C 	0.103	0.2163	0.5651	0.429
Mof_C 	C 	0.671	0.6442	0.9234	0.392
Mof_C 	C 	0.6498	0.6123	0.8987	-0.148
Mof_C 	C 	0.5872	0.616	0.8731	0.055
Mof_C 	C 	0.5615	0.5886	0.8449	-0.029
Mof_C 	C 	0.5983	0.5575	0.8424	0.034
Mof_C 	C 	0.6609	0.5538	0.868	-0.032
Mof_C 	C 	0.6866	0.5812	0.8961	0.065
Mof_C 	C 	0.8625	0.8736	0.609	-0.157
Mof_C 	C 	0.8757	0.8692	0.6568	0.072
Mof_C 	C 	0.8964	0.8978	0.6846	-0.025
Mof_C 	C 	0.904	0.9307	0.6647	0.025
Mof_C 	C 	0.8908	0.9351	0.6169	-0.032
Mof_C 	C 	0.87	0.9066	0.5891	0.071
Mof_C 	C 	0.1369	0.1884	0.9019	-0.146
Mof_C 	C 	0.1356	0.1873	0.8537	0.069
Mof_C 	C 	0.1142	0.1569	0.8299	-0.034
Mof_C 	C 	0.0942	0.1277	0.8544	0.029
Mof_C 	C 	0.0956	0.1288	0.9026	-0.017
Mof_C 	C 	0.1169	0.1592	0.9264	0.059
Mof_C 	C 	0.7273	0.0546	0.7991	-0.044
Mof_C 	C 	0.7258	0.0617	0.7497	0.206
Mof_C 	C 	0.7892	0.0672	0.685	0.007
Mof_C 	C 	0.729	0.0701	0.6562	-0.014
Mof_C 	C 	0.6672	0.0712	0.6751	0.032
Mof_C 	C 	0.6647	0.0667	0.7236	-0.092
Mof_C 	C 	0.6015	0.0682	0.7459	0.029
Mof_C 	C 	0.6024	0.0642	0.7921	-0.02
Mof_C 	C 	0.664	0.0571	0.8208	0.015
Mof_C 	C 	0.6696	0.0528	0.8695	0.01
Mof_C 	C 	0.7313	0.0457	0.8928	-0.029
Mof_C 	C 	0.79	0.0429	0.8685	0.104
Mof_C 	C 	0.4733	0.3907	0.9108	0.049
Mof_C 	C 	0.5471	0.3934	0.9152	-0.006
Mof_C 	C 	0.6452	0.4064	0.878	0.054
Mof_C 	C 	0.5838	0.3842	0.9561	0.002
Mof_C 	C 	0.6856	0.3953	0.9173	-0.017
Mof_C 	C 	0.6558	0.3855	0.9568	0.008
Mof_C 	C 	0.5493	0.3748	0.9967	-0.006
Mof_C 	C 	0.481	0.3744	0.9941	0.014
Mof_C 	C 	0.3347	0.3898	0.9039	-0.026
Mof_C 	C 	0.3719	0.3971	0.8656	0.06
Mof_C 	C 	0.3679	0.3826	0.9463	0.001
Mof_C 	C 	0.4398	0.3821	0.9519	-0.016
Mof_C 	C 	0.4524	0.2826	0.9032	-0.194
Mof_C 	C 	0.515	0.2966	0.92	0.079
Mof_C 	C 	0.5704	0.295	0.8929	-0.037
Mof_C 	C 	0.5632	0.2795	0.8491	0.033
Mof_C 	C 	0.5007	0.2656	0.8324	-0.037
Mof_C 	C 	0.4452	0.2671	0.8594	0.076
Mof_C 	C 	0.3715	0.3055	0.6019	-0.04
Mof_C 	C 	0.4409	0.3023	0.6148	0.029
Mof_C 	C 	0.4744	0.3282	0.6421	-0.013
Mof_C 	C 	0.4386	0.3572	0.6563	0.014
Mof_C 	C 	0.3692	0.3604	0.6435	-0.005
Mof_C 	C 	0.3356	0.3345	0.6162	0.024
Mof_C 	C 	0.4779	0.3506	0.762	-0.045
Mof_C 	C 	0.4807	0.3773	0.7264	0.043
Mof_C 	C 	0.4679	0.3839	0.6791	-0.021
Mof_C 	C 	0.4767	0.4176	0.6619	0.014
Mof_C 	C 	0.4984	0.4447	0.692	-0.014
Mof_C 	C 	0.5105	0.4381	0.7384	0.022
Mof_C 	C 	0.6879	0.2575	0.8365	0.093
Mof_C 	C 	0.6195	0.2663	0.8193	-0.04
Mof_C 	C 	0.5977	0.2682	0.7729	0.014
Mof_C 	C 	0.9465	0.2145	0.7483	-0.061
Mof_C 	C 	0.7062	0.2525	0.8838	-0.065
Mof_C 	C 	0.9506	0.2757	0.8575	0.067
Mof_C 	C 	0.0087	0.285	0.8952	-0.024
Mof_C 	C 	0.0211	0.2651	0.9274	0.005
Mof_C 	C 	0.9823	0.2363	0.9353	-0.03
Mof_C 	C 	0.931	0.2285	0.9008	0.063
Mof_C 	C 	0.89	0.1991	0.9051	-0.01
Mof_C 	C 	0.9002	0.1774	0.9439	0.005
Mof_C 	C 	0.9515	0.1852	0.9784	-0.001
Mof_C 	C 	0.9925	0.2147	0.9741	0.011
Mof_C 	C 	0.8482	0.1468	0.9454	0.015
Mof_C 	C 	0.8006	0.1432	0.913	-0.019
Mof_C 	C 	0.7921	0.1652	0.8666	0.078
Mof_C 	C 	0.5421	0.5023	0.7396	-0.024
Mof_N 	N 	0.7853	0.0492	0.8292	-0.197
Mof_N 	N 	0.7707	0.0643	0.7384	-0.265
Mof_N 	N 	0.4408	0.4034	0.8756	-0.197
Mof_N 	N 	0.5349	0.4712	0.812	-0.213
Mof_N 	N 	0.4952	0.41	0.7647	-0.235
Mof_N 	N 	0.5838	0.3954	0.8744	-0.221
Mof_N 	N 	0.734	0.2507	0.809	-0.222
Mof_N 	N 	0.9135	0.2487	0.8667	-0.223
Mof_N 	N 	0.8355	0.1872	0.8714	-0.204
Mof_O 	O 	0.4015	0.2959	0.97	-0.551
Mof_O 	O 	0.6386	0.6628	0.9434	-0.502
Mof_O 	O 	0.38	0.2474	0.5648	-0.409
Mof_O 	O 	0.1951	0.2402	0.9097	-0.5
Mof_O 	O 	0.1185	0.1858	0.5522	-0.507
Mof_O 	O 	0.836	0.8478	0.54	-0.628
Mof_O 	O 	0.2783	0.2749	0.5579	-0.528
Mof_O 	O 	0.1847	0.2166	0.9761	-0.578
Mof_O 	O 	0.8075	0.8191	0.5989	-0.583
Mof_O 	O 	0.7433	0.6448	0.944	-0.461
Mof_O 	O 	0.334	0.2863	0.9117	-0.516
Mof_O 	O 	0.1244	0.2435	0.5485	-0.511
Mof_O 	O 	0.2496	0.286	0.0004	-0.944
Mof_C 	C 	0.5714	0.4876	0.8861	-0.056
Mof_C 	C 	0.769	0.42	0.846	0.009
Mof_C 	C 	0.699	0.41	0.847	-0.012
Mof_C 	C 	0.655	0.417	0.807	-0.074
Mof_C 	C 	0.682	0.425	0.765	0.004
Mof_C 	C 	0.751	0.431	0.763	0.075
Mof_C 	C 	0.795	0.427	0.804	-0.016
Mof_C 	C 	0.857	0.077	0.662	-0.008
Mof_C 	C 	0.87	0.057	0.623	-0.004
Mof_C 	C 	0.94	0.052	0.612	0
Mof_C 	C 	0.991	0.065	0.641	-0.005
Mof_C 	C 	0.978	0.084	0.68	0.003
Mof_C 	C 	0.911	0.09	0.691	-0.055
Mof_C 	C 	0.988	0.022	0.934	0.111
Mof_C 	C 	0.964	0.004	0.894	-0.022
Mof_C 	C 	0.898	0.011	0.875	-0.016
Mof_C 	C 	0.857	0.034	0.895	-0.053
Mof_C 	C 	0.881	0.052	0.935	0.023
Mof_C 	C 	0.947	0.046	0.955	-0.005
Mof_C 	C 	0.32	0.424	0.728	0.08
Mof_C 	C 	0.278	0.398	0.748	-0.001
Mof_C 	C 	0.289	0.391	0.795	0.009
Mof_C 	C 	0.338	0.41	0.822	-0.026
Mof_C 	C 	0.376	0.436	0.802	-0.031
Mof_C 	C 	0.36	0.443	0.755	-0.032
Mof_C 	C 	0.938	0.297	0.815	-0.052
Mof_C 	C 	0.871	0.308	0.804	-0.019
Mof_C 	C 	0.853	0.325	0.763	-0.037
Mof_C 	C 	0.902	0.332	0.732	0.145
Mof_C 	C 	0.97	0.322	0.743	-0.025
Mof_C 	C 	0.988	0.304	0.784	0.021
Mof_C 	C 	0.744	0.158	0.83	-0.054
Mof_C 	C 	0.768	0.16	0.786	-0.044
Mof_C 	C 	0.723	0.16	0.746	-0.001
Mof_C 	C 	0.654	0.158	0.75	-0.002
Mof_C 	C 	0.629	0.155	0.794	-0.006
Mof_C 	C 	0.674	0.156	0.834	0.01
Mof_O 	O 	0.271	0.431	0.686	-0.188
Mof_O 	O 	0.9	0.339	0.689	-0.178
Mof_C 	C 	0.744	0.451	0.623	0.01
Mof_C 	C 	0.72	0.424	0.661	0.076
Mof_O 	O 	0.049	0.031	0.959	-0.156
Mof_O 	O 	0.75	0.438	0.708	-0.17
Mof_C 	C 	0.32	0.453	0.67	0.081
Mof_Zn	Zn	0.3418	0.2088	0.5235	1.211
Mof_Zn	Zn	0.2442	0.2173	0.4317	1.223
Mof_Zn	Zn	0.1947	0.1736	0.5179	1.222
Mof_Zn	Zn	0.2118	0.2436	0.0237	1.243
Mof_Cu	Cu	0.8708	0.4514	0.2775	0.848
Mof_Cu	Cu	0.5214	0.083	0.3262	0.867
Mof_Cu	Cu	0.83	0.2692	0.3214	0.856
Mof_C 	C 	0.6945	0.242	0.1653	0.014
Mof_C 	C 	0.7706	0.2555	0.2316	0.033
Mof_C 	C 	0.7609	0.2518	0.1836	-0.019
Mof_C 	C 	0.8151	0.2572	0.1562	0.026
Mof_C 	C 	0.8791	0.2661	0.1769	-0.035
Mof_C 	C 	0.8888	0.2697	0.225	0.074
Mof_N 	N 	0.8346	0.2644	0.2524	-0.222
Mof_C 	C 	0.6626	0.2314	0.2311	-0.002
Mof_C 	C 	0.7188	0.2454	0.2576	0.007
Mof_C 	C 	0.6634	0.2315	0.1805	-0.009
Mof_N 	N 	0.9224	0.4921	0.2518	-0.217
Mof_N 	N 	0.968	0.4378	0.2971	-0.221
Mof_C 	C 	0.116	0.4185	0.301	0.011
Mof_C 	C 	0.053	0.3995	0.3301	-0.028
Mof_C 	C 	0.9844	0.4112	0.3216	0.076
Mof_C 	C 	0.9055	0.5191	0.2202	0.043
Mof_C 	C 	0.9412	0.5382	0.1907	-0.023
Mof_C 	C 	0.9323	0.3887	0.3448	-0.066
Mof_C 	C 	0.0142	0.525	0.1792	0.014
Mof_C 	C 	0.0216	0.462	0.2766	0.011
Mof_C 	C 	0.0823	0.4457	0.2715	-0.001
Mof_C 	C 	0.1236	0.4648	0.2349	-0.004
Mof_C 	C 	0.9942	0.4893	0.251	0.042
Mof_C 	C 	0.03	0.5047	0.2166	-0.018
Mof_C 	C 	0.1062	0.4887	0.2214	0.01
Mof_C 	C 	0.5613	0.0014	0.3374	0.085
Mof_C 	C 	0.5718	0.9723	0.3128	-0.051
Mof_C 	C 	0.5645	0.9721	0.2688	0.031
Mof_C 	C 	0.5349	0.9927	0.1876	0.006
Mof_C 	C 	0.5375	0.0289	0.2685	0.035
Mof_C 	C 	0.508	0.0253	0.1611	0.001
Mof_C 	C 	0.0422	0.2809	0.0906	-0.142
Mof_C 	C 	0.0215	0.2475	0.1035	0.06
Mof_C 	C 	0.3301	0.233	0.0864	0.259
Mof_C 	C 	0.9626	0.2448	0.1327	-0.013
Mof_C 	C 	0.9282	0.2744	0.1469	0.029
Mof_C 	C 	0.9488	0.3078	0.134	-0.028
Mof_C 	C 	0.0039	0.3116	0.107	0.057
Mof_C 	C 	0.3963	0.213	0.4326	0.511
Mof_C 	C 	0.8322	0.658	0.078	0.598
Mof_C 	C 	0.1714	0.2835	0.4342	0.468
Mof_C 	C 	0.103	0.2837	0.0651	0.429
Mof_C 	C 	0.671	0.8558	0.4234	0.392
Mof_C 	C 	0.6498	0.8877	0.3987	-0.148
Mof_C 	C 	0.5872	0.884	0.3731	0.055
Mof_C 	C 	0.5615	0.9114	0.3449	-0.029
Mof_C 	C 	0.5983	0.9425	0.3424	0.034
Mof_C 	C 	0.6609	0.9462	0.368	-0.032
Mof_C 	C 	0.6866	0.9188	0.3961	0.065
Mof_C 	C 	0.8625	0.6264	0.109	-0.157
Mof_C 	C 	0.8757	0.6308	0.1568	0.072
Mof_C 	C 	0.8964	0.6022	0.1846	-0.025
Mof_C 	C 	0.904	0.5693	0.1647	0.025
Mof_C 	C 	0.8908	0.5649	0.1169	-0.032
Mof_C 	C 	0.87	0.5934	0.0891	0.071
Mof_C 	C 	0.1369	0.3116	0.4019	-0.146
Mof_C 	C 	0.1356	0.3127	0.3537	0.069
Mof_C 	C 	0.1142	0.3431	0.3299	-0.034
Mof_C 	C 	0.0942	0.3723	0.3544	0.029
Mof_C 	C 	0.0956	0.3712	0.4026	-0.017
Mof_C 	C 	0.1169	0.3408	0.4264	0.058
Mof_C 	C 	0.7273	0.4454	0.2991	-0.044
Mof_C 	C 	0.7258	0.4383	0.2497	0.206
Mof_C 	C 	0.7892	0.4328	0.185	0.007
Mof_C 	C 	0.729	0.4299	0.1562	-0.013
Mof_C 	C 	0.6672	0.4288	0.1751	0.032
Mof_C 	C 	0.6647	0.4333	0.2236	-0.092
Mof_C 	C 	0.6015	0.4318	0.2459	0.029
Mof_C 	C 	0.6024	0.4358	0.2921	-0.02
Mof_C 	C 	0.664	0.4429	0.3208	0.015
Mof_C 	C 	0.6696	0.4472	0.3695	0.01
Mof_C 	C 	0.7313	0.4543	0.3928	-0.029
Mof_C 	C 	0.79	0.4571	0.3685	0.104
Mof_C 	C 	0.4733	0.1093	0.4108	0.049
Mof_C 	C 	0.5471	0.1066	0.4152	-0.006
Mof_C 	C 	0.6452	0.0936	0.378	0.054
Mof_C 	C 	0.5838	0.1158	0.4561	0.002
Mof_C 	C 	0.6856	0.1047	0.4173	-0.017
Mof_C 	C 	0.6558	0.1145	0.4568	0.008
Mof_C 	C 	0.5493	0.1252	0.4967	-0.006
Mof_C 	C 	0.481	0.1256	0.4941	0.014
Mof_C 	C 	0.3347	0.1102	0.4039	-0.026
Mof_C 	C 	0.3719	0.1029	0.3656	0.06
Mof_C 	C 	0.3679	0.1174	0.4463	0.001
Mof_C 	C 	0.4398	0.1179	0.4519	-0.016
Mof_C 	C 	0.4524	0.2174	0.4032	-0.194
Mof_C 	C 	0.515	0.2034	0.42	0.079
Mof_C 	C 	0.5704	0.205	0.3929	-0.037
Mof_C 	C 	0.5632	0.2205	0.3491	0.033
Mof_C 	C 	0.5007	0.2344	0.3324	-0.037
Mof_C 	C 	0.4452	0.2329	0.3594	0.076
Mof_C 	C 	0.3715	0.1945	0.1019	-0.04
Mof_C 	C 	0.4409	0.1977	0.1148	0.029
Mof_C 	C 	0.4744	0.1718	0.1421	-0.013
Mof_C 	C 	0.4386	0.1428	0.1563	0.014
Mof_C 	C 	0.3692	0.1396	0.1435	-0.005
Mof_C 	C 	0.3356	0.1655	0.1162	0.024
Mof_C 	C 	0.4779	0.1494	0.262	-0.045
Mof_C 	C 	0.4807	0.1227	0.2264	0.043
Mof_C 	C 	0.4679	0.1161	0.1791	-0.021
Mof_C 	C 	0.4767	0.0824	0.1619	0.014
Mof_C 	C 	0.4984	0.0553	0.192	-0.014
Mof_C 	C 	0.5105	0.0619	0.2384	0.022
Mof_C 	C 	0.6879	0.2425	0.3365	0.093
Mof_C 	C 	0.6195	0.2337	0.3193	-0.04
Mof_C 	C 	0.5977	0.2318	0.2729	0.014
Mof_C 	C 	0.9465	0.2855	0.2483	-0.061
Mof_C 	C 	0.7062	0.2475	0.3838	-0.065
Mof_C 	C 	0.9506	0.2243	0.3575	0.068
Mof_C 	C 	0.0087	0.215	0.3952	-0.024
Mof_C 	C 	0.0211	0.2349	0.4274	0.005
Mof_C 	C 	0.9823	0.2637	0.4353	-0.029
Mof_C 	C 	0.931	0.2715	0.4008	0.063
Mof_C 	C 	0.89	0.3009	0.4051	-0.01
Mof_C 	C 	0.9002	0.3226	0.4439	0.005
Mof_C 	C 	0.9515	0.3148	0.4784	-0.001
Mof_C 	C 	0.9925	0.2853	0.4741	0.011
Mof_C 	C 	0.8482	0.3532	0.4454	0.015
Mof_C 	C 	0.8006	0.3568	0.413	-0.019
Mof_C 	C 	0.7921	0.3348	0.3666	0.078
Mof_C 	C 	0.5421	0.9977	0.2396	-0.024
Mof_N 	N 	0.7853	0.4508	0.3292	-0.197
Mof_N 	N 	0.7707	0.4357	0.2384	-0.265
Mof_N 	N 	0.4408	0.0966	0.3756	-0.197
Mof_N 	N 	0.5349	0.0288	0.312	-0.213
Mof_N 	N 	0.4952	0.09	0.2647	-0.235
Mof_N 	N 	0.5838	0.1046	0.3744	-0.221
Mof_N 	N 	0.734	0.2493	0.309	-0.222
Mof_N 	N 	0.9135	0.2513	0.3667	-0.223
Mof_N 	N 	0.8355	0.3128	0.3714	-0.204
Mof_O 	O 	0.4015	0.2041	0.47	-0.551
Mof_O 	O 	0.6386	0.8372	0.4434	-0.501
Mof_O 	O 	0.38	0.2526	0.0648	-0.409
Mof_O 	O 	0.1951	0.2598	0.4097	-0.5
Mof_O 	O 	0.1185	0.3142	0.0522	-0.507
Mof_O 	O 	0.836	0.6522	0.04	-0.627
Mof_O 	O 	0.2783	0.2251	0.0579	-0.528
Mof_O 	O 	0.1847	0.2834	0.4761	-0.578
Mof_O 	O 	0.8075	0.6809	0.0989	-0.582
Mof_O 	O 	0.7433	0.8552	0.444	-0.461
Mof_O 	O 	0.334	0.2137	0.4117	-0.516
Mof_O 	O 	0.1244	0.2565	0.0485	-0.511
Mof_O 	O 	0.2496	0.214	0.5004	-0.944
Mof_C 	C 	0.5714	0.0124	0.3861	-0.056
Mof_C 	C 	0.769	0.08	0.346	0.009
Mof_C 	C 	0.699	0.09	0.347	-0.012
Mof_C 	C 	0.655	0.083	0.307	-0.074
Mof_C 	C 	0.682	0.075	0.265	0.004
Mof_C 	C 	0.751	0.069	0.263	0.075
Mof_C 	C 	0.795	0.073	0.304	-0.016
Mof_C 	C 	0.857	0.423	0.162	-0.008
Mof_C 	C 	0.87	0.443	0.123	-0.004
Mof_C 	C 	0.94	0.448	0.112	0
Mof_C 	C 	0.991	0.435	0.141	-0.005
Mof_C 	C 	0.978	0.416	0.18	0.004
Mof_C 	C 	0.911	0.41	0.191	-0.055
Mof_C 	C 	0.988	0.478	0.434	0.112
Mof_C 	C 	0.964	0.496	0.394	-0.022
Mof_C 	C 	0.898	0.489	0.375	-0.016
Mof_C 	C 	0.857	0.466	0.395	-0.053
Mof_C 	C 	0.881	0.448	0.435	0.023
Mof_C 	C 	0.947	0.454	0.455	-0.005
Mof_C 	C 	0.32	0.076	0.228	0.08
Mof_C 	C 	0.278	0.102	0.248	-0.001
Mof_C 	C 	0.289	0.109	0.295	0.009
Mof_C 	C 	0.338	0.09	0.322	-0.026
Mof_C 	C 	0.376	0.064	0.302	-0.031
Mof_C 	C 	0.36	0.057	0.255	-0.032
Mof_C 	C 	0.938	0.203	0.315	-0.052
Mof_C 	C 	0.871	0.192	0.304	-0.019
Mof_C 	C 	0.853	0.175	0.263	-0.037
Mof_C 	C 	0.902	0.168	0.232	0.145
Mof_C 	C 	0.97	0.178	0.243	-0.025
Mof_C 	C 	0.988	0.196	0.284	0.021
Mof_C 	C 	0.744	0.342	0.33	-0.054
Mof_C 	C 	0.768	0.34	0.286	-0.044
Mof_C 	C 	0.723	0.34	0.246	-0.001
Mof_C 	C 	0.654	0.342	0.25	-0.002
Mof_C 	C 	0.629	0.345	0.294	-0.006
Mof_C 	C 	0.674	0.344	0.334	0.01
Mof_O 	O 	0.271	0.069	0.186	-0.188
Mof_O 	O 	0.9	0.161	0.189	-0.178
Mof_C 	C 	0.744	0.049	0.123	0.01
Mof_C 	C 	0.72	0.076	0.161	0.076
Mof_O 	O 	0.049	0.469	0.459	-0.157
Mof_O 	O 	0.75	0.062	0.208	-0.17
Mof_C 	C 	0.32	0.047	0.17	0.081
Mof_Zn	Zn	0.6582	0.7088	0.9765	1.211
Mof_Zn	Zn	0.7558	0.7173	0.0683	1.223
Mof_Zn	Zn	0.8053	0.6736	0.9821	1.222
Mof_Zn	Zn	0.7882	0.7436	0.4763	1.243
Mof_Cu	Cu	0.1292	0.9514	0.2225	0.848
Mof_Cu	Cu	0.4786	0.583	0.1738	0.867
Mof_Cu	Cu	0.17	0.7692	0.1786	0.856
Mof_C 	C 	0.3055	0.742	0.3347	0.014
Mof_C 	C 	0.2294	0.7555	0.2684	0.033
Mof_C 	C 	0.2391	0.7518	0.3164	-0.019
Mof_C 	C 	0.1849	0.7572	0.3438	0.026
Mof_C 	C 	0.1209	0.7661	0.3231	-0.035
Mof_C 	C 	0.1112	0.7697	0.275	0.074
Mof_N 	N 	0.1654	0.7644	0.2476	-0.222
Mof_C 	C 	0.3374	0.7314	0.2689	-0.002
Mof_C 	C 	0.2812	0.7454	0.2424	0.007
Mof_C 	C 	0.3366	0.7315	0.3195	-0.009
Mof_N 	N 	0.0776	0.9921	0.2482	-0.217
Mof_N 	N 	0.032	0.9378	0.2029	-0.222
Mof_C 	C 	0.884	0.9185	0.199	0.011
Mof_C 	C 	0.947	0.8995	0.1699	-0.027
Mof_C 	C 	0.0156	0.9112	0.1784	0.076
Mof_C 	C 	0.0945	0.0191	0.2798	0.043
Mof_C 	C 	0.0588	0.0382	0.3093	-0.023
Mof_C 	C 	0.0677	0.8887	0.1552	-0.066
Mof_C 	C 	0.9858	0.025	0.3208	0.014
Mof_C 	C 	0.9784	0.962	0.2234	0.012
Mof_C 	C 	0.9177	0.9457	0.2285	-0.001
Mof_C 	C 	0.8764	0.9648	0.2651	-0.004
Mof_C 	C 	0.0058	0.9893	0.249	0.04
Mof_C 	C 	0.97	0.0047	0.2834	-0.017
Mof_C 	C 	0.8938	0.9887	0.2786	0.01
Mof_C 	C 	0.4387	0.5014	0.1626	0.085
Mof_C 	C 	0.4282	0.4723	0.1872	-0.051
Mof_C 	C 	0.4355	0.4721	0.2312	0.031
Mof_C 	C 	0.4651	0.4927	0.3124	0.006
Mof_C 	C 	0.4625	0.5289	0.2315	0.035
Mof_C 	C 	0.492	0.5253	0.3389	0.001
Mof_C 	C 	0.9578	0.7809	0.4094	-0.143
Mof_C 	C 	0.9785	0.7475	0.3965	0.061
Mof_C 	C 	0.6699	0.733	0.4136	0.259
Mof_C 	C 	0.0374	0.7448	0.3673	-0.014
Mof_C 	C 	0.0718	0.7744	0.3531	0.029
Mof_C 	C 	0.0512	0.8078	0.366	-0.028
Mof_C 	C 	0.9961	0.8116	0.393	0.058
Mof_C 	C 	0.6037	0.713	0.0674	0.511
Mof_C 	C 	0.1678	0.158	0.422	0.598
Mof_C 	C 	0.8286	0.7835	0.0658	0.468
Mof_C 	C 	0.897	0.7837	0.4349	0.429
Mof_C 	C 	0.329	0.3558	0.0766	0.392
Mof_C 	C 	0.3502	0.3877	0.1013	-0.148
Mof_C 	C 	0.4128	0.384	0.1269	0.055
Mof_C 	C 	0.4385	0.4114	0.1551	-0.029
Mof_C 	C 	0.4017	0.4425	0.1576	0.034
Mof_C 	C 	0.3391	0.4462	0.132	-0.032
Mof_C 	C 	0.3134	0.4188	0.1039	0.065
Mof_C 	C 	0.1375	0.1264	0.391	-0.157
Mof_C 	C 	0.1243	0.1308	0.3432	0.072
Mof_C 	C 	0.1036	0.1022	0.3154	-0.025
Mof_C 	C 	0.096	0.0693	0.3353	0.025
Mof_C 	C 	0.1092	0.0649	0.3831	-0.032
Mof_C 	C 	0.13	0.0934	0.4109	0.071
Mof_C 	C 	0.8631	0.8116	0.0981	-0.146
Mof_C 	C 	0.8644	0.8127	0.1463	0.069
Mof_C 	C 	0.8858	0.8431	0.1701	-0.034
Mof_C 	C 	0.9058	0.8723	0.1456	0.029
Mof_C 	C 	0.9044	0.8712	0.0974	-0.017
Mof_C 	C 	0.8831	0.8408	0.0736	0.059
Mof_C 	C 	0.2727	0.9454	0.2009	-0.044
Mof_C 	C 	0.2742	0.9383	0.2503	0.206
Mof_C 	C 	0.2108	0.9328	0.315	0.007
Mof_C 	C 	0.271	0.9299	0.3438	-0.014
Mof_C 	C 	0.3328	0.9288	0.3249	0.032
Mof_C 	C 	0.3353	0.9333	0.2764	-0.092
Mof_C 	C 	0.3985	0.9318	0.2541	0.029
Mof_C 	C 	0.3976	0.9358	0.2079	-0.02
Mof_C 	C 	0.336	0.9429	0.1792	0.015
Mof_C 	C 	0.3304	0.9472	0.1305	0.01
Mof_C 	C 	0.2687	0.9543	0.1072	-0.029
Mof_C 	C 	0.21	0.9571	0.1315	0.104
Mof_C 	C 	0.5267	0.6093	0.0892	0.049
Mof_C 	C 	0.4529	0.6066	0.0848	-0.006
Mof_C 	C 	0.3548	0.5936	0.122	0.054
Mof_C 	C 	0.4162	0.6158	0.0439	0.002
Mof_C 	C 	0.3144	0.6047	0.0827	-0.017
Mof_C 	C 	0.3442	0.6145	0.0432	0.008
Mof_C 	C 	0.4507	0.6252	0.0033	-0.006
Mof_C 	C 	0.519	0.6256	0.0059	0.014
Mof_C 	C 	0.6653	0.6102	0.0961	-0.026
Mof_C 	C 	0.6281	0.6029	0.1344	0.06
Mof_C 	C 	0.6321	0.6174	0.0537	0.001
Mof_C 	C 	0.5602	0.6179	0.0481	-0.016
Mof_C 	C 	0.5476	0.7174	0.0968	-0.194
Mof_C 	C 	0.485	0.7034	0.08	0.079
Mof_C 	C 	0.4296	0.705	0.1071	-0.037
Mof_C 	C 	0.4368	0.7205	0.1509	0.033
Mof_C 	C 	0.4993	0.7344	0.1676	-0.037
Mof_C 	C 	0.5548	0.7329	0.1406	0.076
Mof_C 	C 	0.6285	0.6945	0.3981	-0.04
Mof_C 	C 	0.5591	0.6977	0.3852	0.029
Mof_C 	C 	0.5256	0.6718	0.3579	-0.013
Mof_C 	C 	0.5614	0.6428	0.3437	0.014
Mof_C 	C 	0.6308	0.6396	0.3565	-0.005
Mof_C 	C 	0.6644	0.6655	0.3838	0.024
Mof_C 	C 	0.5221	0.6494	0.238	-0.045
Mof_C 	C 	0.5193	0.6227	0.2736	0.043
Mof_C 	C 	0.5321	0.6161	0.3209	-0.021
Mof_C 	C 	0.5233	0.5824	0.3381	0.014
Mof_C 	C 	0.5016	0.5553	0.308	-0.014
Mof_C 	C 	0.4895	0.5619	0.2616	0.022
Mof_C 	C 	0.3121	0.7425	0.1635	0.093
Mof_C 	C 	0.3805	0.7337	0.1807	-0.04
Mof_C 	C 	0.4023	0.7318	0.2271	0.014
Mof_C 	C 	0.0535	0.7855	0.2517	-0.061
Mof_C 	C 	0.2938	0.7475	0.1162	-0.065
Mof_C 	C 	0.0494	0.7243	0.1425	0.067
Mof_C 	C 	0.9913	0.715	0.1048	-0.024
Mof_C 	C 	0.9789	0.7349	0.0726	0.005
Mof_C 	C 	0.0177	0.7637	0.0647	-0.03
Mof_C 	C 	0.069	0.7715	0.0992	0.063
Mof_C 	C 	0.11	0.8009	0.0949	-0.01
Mof_C 	C 	0.0998	0.8226	0.0561	0.005
Mof_C 	C 	0.0485	0.8148	0.0216	-0.001
Mof_C 	C 	0.0075	0.7853	0.0259	0.011
Mof_C 	C 	0.1518	0.8532	0.0546	0.015
Mof_C 	C 	0.1994	0.8568	0.087	-0.019
Mof_C 	C 	0.2079	0.8348	0.1334	0.078
Mof_C 	C 	0.4579	0.4977	0.2604	-0.024
Mof_N 	N 	0.2147	0.9508	0.1708	-0.197
Mof_N 	N 	0.2293	0.9357	0.2616	-0.265
Mof_N 	N 	0.5592	0.5966	0.1244	-0.197
Mof_N 	N 	0.4651	0.5288	0.188	-0.213
Mof_N 	N 	0.5048	0.59	0.2353	-0.235
Mof_N 	N 	0.4162	0.6046	0.1256	-0.221
Mof_N 	N 	0.266	0.7493	0.191	-0.222
Mof_N 	N 	0.0865	0.7513	0.1333	-0.223
Mof_N 	N 	0.1645	0.8128	0.1286	-0.204
Mof_O 	O 	0.5985	0.7041	0.03	-0.551
Mof_O 	O 	0.3614	0.3372	0.0566	-0.502
Mof_O 	O 	0.62	0.7526	0.4352	-0.409
Mof_O 	O 	0.8049	0.7598	0.0903	-0.5
Mof_O 	O 	0.8815	0.8142	0.4478	-0.507
Mof_O 	O 	0.164	0.1522	0.46	-0.628
Mof_O 	O 	0.7217	0.7251	0.4421	-0.528
Mof_O 	O 	0.8153	0.7834	0.0239	-0.578
Mof_O 	O 	0.1925	0.1809	0.4011	-0.583
Mof_O 	O 	0.2567	0.3552	0.056	-0.461
Mof_O 	O 	0.666	0.7137	0.0883	-0.516
Mof_O 	O 	0.8756	0.7565	0.4515	-0.511
Mof_O 	O 	0.7504	0.714	0.9996	-0.944
Mof_C 	C 	0.4286	0.5124	0.1139	-0.056
Mof_C 	C 	0.231	0.58	0.154	0.009
Mof_C 	C 	0.301	0.59	0.153	-0.012
Mof_C 	C 	0.345	0.583	0.193	-0.074
Mof_C 	C 	0.318	0.575	0.235	0.004
Mof_C 	C 	0.249	0.569	0.237	0.075
Mof_C 	C 	0.205	0.573	0.196	-0.016
Mof_C 	C 	0.143	0.923	0.338	-0.008
Mof_C 	C 	0.13	0.943	0.377	-0.004
Mof_C 	C 	0.06	0.948	0.388	0
Mof_C 	C 	0.009	0.935	0.359	-0.005
Mof_C 	C 	0.022	0.916	0.32	0.003
Mof_C 	C 	0.089	0.91	0.309	-0.055
Mof_C 	C 	0.012	0.978	0.066	0.111
Mof_C 	C 	0.036	0.996	0.106	-0.022
Mof_C 	C 	0.102	0.989	0.125	-0.016
Mof_C 	C 	0.143	0.966	0.105	-0.053
Mof_C 	C 	0.119	0.948	0.065	0.023
Mof_C 	C 	0.053	0.954	0.045	-0.005
Mof_C 	C 	0.68	0.576	0.272	0.08
Mof_C 	C 	0.722	0.602	0.252	-0.001
Mof_C 	C 	0.711	0.609	0.205	0.009
Mof_C 	C 	0.662	0.59	0.178	-0.026
Mof_C 	C 	0.624	0.564	0.198	-0.031
Mof_C 	C 	0.64	0.557	0.245	-0.032
Mof_C 	C 	0.062	0.703	0.185	-0.052
Mof_C 	C 	0.129	0.692	0.196	-0.019
Mof_C 	C 	0.147	0.675	0.237	-0.037
Mof_C 	C 	0.098	0.668	0.268	0.145
Mof_C 	C 	0.03	0.678	0.257	-0.025
Mof_C 	C 	0.012	0.696	0.216	0.021
Mof_C 	C 	0.256	0.842	0.17	-0.054
Mof_C 	C 	0.232	0.84	0.214	-0.044
Mof_C 	C 	0.277	0.84	0.254	-0.001
Mof_C 	C 	0.346	0.842	0.25	-0.002
Mof_C 	C 	0.371	0.845	0.206	-0.006
Mof_C 	C 	0.326	0.844	0.166	0.01
Mof_O 	O 	0.729	0.569	0.314	-0.188
Mof_O 	O 	0.1	0.661	0.311	-0.178
Mof_C 	C 	0.256	0.549	0.377	0.01
Mof_C 	C 	0.28	0.576	0.339	0.076
Mof_O 	O 	0.951	0.969	0.041	-0.156
Mof_O 	O 	0.25	0.562	0.292	-0.17
Mof_C 	C 	0.68	0.547	0.33	0.081
_end
