data_functionalizedCrystal
_audit_creation_method	'EQeq! by Chris Wilmer'
_symmetry_space_group_name_H-M	'P1'
_symmetry_Int_Tables_number	1
_symmetry_cell_setting	triclinic
loop_
_symmetry_equiv_pos_as_xyz
  x,y,z
_cell_length_a	39.9194
_cell_length_b	39.9194
_cell_length_c	39.9194
_cell_angle_alpha	90
_cell_angle_beta	90
_cell_angle_gamma	90
loop_
_atom_site_label
_atom_site_type_symbol
_atom_site_fract_x
_atom_site_fract_y
_atom_site_fract_z
_atom_site_charge
Mof_C 	C 	0.2298	0.15453	0.0601	0.545
Mof_C 	C 	0.2194	0.1259	0.08414	-0.104
Mof_N 	N 	0.18951	0.1088	0.08382	-0.064
Mof_O 	O 	0.2092	0.15773	0.03671	-0.79
Mof_O 	O 	0.25719	0.16882	0.06869	-0.751
Mof_C 	C 	0.2298	0.65453	0.5601	0.547
Mof_C 	C 	0.2194	0.6259	0.58414	-0.103
Mof_N 	N 	0.18951	0.6088	0.58382	-0.063
Mof_O 	O 	0.2092	0.65773	0.53671	-0.792
Mof_O 	O 	0.25719	0.66882	0.56869	-0.751
Mof_C 	C 	0.7298	0.15453	0.5601	0.546
Mof_C 	C 	0.7194	0.1259	0.58414	-0.104
Mof_N 	N 	0.68951	0.1088	0.58382	-0.063
Mof_O 	O 	0.7092	0.15773	0.53671	-0.793
Mof_O 	O 	0.75719	0.16882	0.56869	-0.751
Mof_C 	C 	0.7298	0.65453	0.0601	0.545
Mof_C 	C 	0.7194	0.6259	0.08414	-0.104
Mof_N 	N 	0.68951	0.6088	0.08382	-0.063
Mof_O 	O 	0.7092	0.65773	0.03671	-0.79
Mof_O 	O 	0.75719	0.66882	0.06869	-0.751
Mof_C 	C 	0.7702	0.84547	0.0601	0.545
Mof_C 	C 	0.7806	0.8741	0.08414	-0.103
Mof_N 	N 	0.81049	0.8912	0.08382	-0.063
Mof_O 	O 	0.7908	0.84227	0.03671	-0.789
Mof_O 	O 	0.74281	0.83118	0.06869	-0.751
Mof_C 	C 	0.7702	0.34547	0.5601	0.547
Mof_C 	C 	0.7806	0.3741	0.58414	-0.103
Mof_N 	N 	0.81049	0.3912	0.58382	-0.062
Mof_O 	O 	0.7908	0.34227	0.53671	-0.792
Mof_O 	O 	0.74281	0.33118	0.56869	-0.751
Mof_C 	C 	0.2702	0.84547	0.5601	0.547
Mof_C 	C 	0.2806	0.8741	0.58414	-0.103
Mof_N 	N 	0.31049	0.8912	0.58382	-0.062
Mof_O 	O 	0.2908	0.84227	0.53671	-0.792
Mof_O 	O 	0.24281	0.83118	0.56869	-0.751
Mof_C 	C 	0.2702	0.34547	0.0601	0.545
Mof_C 	C 	0.2806	0.3741	0.08414	-0.104
Mof_N 	N 	0.31049	0.3912	0.08382	-0.063
Mof_O 	O 	0.2908	0.34227	0.03671	-0.79
Mof_O 	O 	0.24281	0.33118	0.06869	-0.75
Mof_C 	C 	0.7702	0.15453	0.9399	0.547
Mof_C 	C 	0.7806	0.1259	0.91586	-0.102
Mof_N 	N 	0.81049	0.1088	0.91618	-0.061
Mof_O 	O 	0.7908	0.15773	0.96329	-0.783
Mof_O 	O 	0.74281	0.16882	0.93131	-0.751
Mof_C 	C 	0.7702	0.65453	0.4399	0.548
Mof_C 	C 	0.7806	0.6259	0.41586	-0.102
Mof_N 	N 	0.81049	0.6088	0.41618	-0.061
Mof_O 	O 	0.7908	0.65773	0.46329	-0.791
Mof_O 	O 	0.74281	0.66882	0.43131	-0.75
Mof_C 	C 	0.2702	0.15453	0.4399	0.547
Mof_C 	C 	0.2806	0.1259	0.41586	-0.103
Mof_N 	N 	0.31049	0.1088	0.41618	-0.062
Mof_O 	O 	0.2908	0.15773	0.46329	-0.792
Mof_O 	O 	0.24281	0.16882	0.43131	-0.75
Mof_C 	C 	0.2702	0.65453	0.9399	0.547
Mof_C 	C 	0.2806	0.6259	0.91586	-0.102
Mof_N 	N 	0.31049	0.6088	0.91618	-0.061
Mof_O 	O 	0.2908	0.65773	0.96329	-0.783
Mof_O 	O 	0.24281	0.66882	0.93131	-0.751
Mof_C 	C 	0.2298	0.84547	0.9399	0.547
Mof_C 	C 	0.2194	0.8741	0.91586	-0.101
Mof_N 	N 	0.18951	0.8912	0.91618	-0.06
Mof_O 	O 	0.2092	0.84227	0.96329	-0.783
Mof_O 	O 	0.25719	0.83118	0.93131	-0.751
Mof_C 	C 	0.2298	0.34547	0.4399	0.548
Mof_C 	C 	0.2194	0.3741	0.41586	-0.102
Mof_N 	N 	0.18951	0.3912	0.41618	-0.062
Mof_O 	O 	0.2092	0.34227	0.46329	-0.791
Mof_O 	O 	0.25719	0.33118	0.43131	-0.75
Mof_C 	C 	0.7298	0.84547	0.4399	0.548
Mof_C 	C 	0.7194	0.8741	0.41586	-0.102
Mof_N 	N 	0.68951	0.8912	0.41618	-0.061
Mof_O 	O 	0.7092	0.84227	0.46329	-0.791
Mof_O 	O 	0.75719	0.83118	0.43131	-0.75
Mof_C 	C 	0.7298	0.34547	0.9399	0.547
Mof_C 	C 	0.7194	0.3741	0.91586	-0.102
Mof_N 	N 	0.68951	0.3912	0.91618	-0.061
Mof_O 	O 	0.7092	0.34227	0.96329	-0.783
Mof_O 	O 	0.75719	0.33118	0.93131	-0.751
Mof_C 	C 	0.0601	0.2298	0.15453	0.546
Mof_C 	C 	0.08414	0.2194	0.1259	-0.103
Mof_N 	N 	0.08382	0.18951	0.1088	-0.063
Mof_O 	O 	0.03671	0.2092	0.15773	-0.789
Mof_O 	O 	0.06869	0.25719	0.16882	-0.75
Mof_C 	C 	0.0601	0.7298	0.65453	0.546
Mof_C 	C 	0.08414	0.7194	0.6259	-0.103
Mof_N 	N 	0.08382	0.68951	0.6088	-0.062
Mof_O 	O 	0.03671	0.7092	0.65773	-0.789
Mof_O 	O 	0.06869	0.75719	0.66882	-0.75
Mof_C 	C 	0.5601	0.2298	0.65453	0.548
Mof_C 	C 	0.58414	0.2194	0.6259	-0.102
Mof_N 	N 	0.58382	0.18951	0.6088	-0.062
Mof_O 	O 	0.53671	0.2092	0.65773	-0.791
Mof_O 	O 	0.56869	0.25719	0.66882	-0.75
Mof_C 	C 	0.5601	0.7298	0.15453	0.547
Mof_C 	C 	0.58414	0.7194	0.1259	-0.103
Mof_N 	N 	0.58382	0.68951	0.1088	-0.062
Mof_O 	O 	0.53671	0.7092	0.15773	-0.792
Mof_O 	O 	0.56869	0.75719	0.16882	-0.75
Mof_C 	C 	0.0601	0.7702	0.84547	0.546
Mof_C 	C 	0.08414	0.7806	0.8741	-0.102
Mof_N 	N 	0.08382	0.81049	0.8912	-0.062
Mof_O 	O 	0.03671	0.7908	0.84227	-0.788
Mof_O 	O 	0.06869	0.74281	0.83118	-0.75
Mof_C 	C 	0.0601	0.2702	0.34547	0.546
Mof_C 	C 	0.08414	0.2806	0.3741	-0.103
Mof_N 	N 	0.08382	0.31049	0.3912	-0.062
Mof_O 	O 	0.03671	0.2908	0.34227	-0.789
Mof_O 	O 	0.06869	0.24281	0.33118	-0.75
Mof_C 	C 	0.5601	0.7702	0.34547	0.548
Mof_C 	C 	0.58414	0.7806	0.3741	-0.102
Mof_N 	N 	0.58382	0.81049	0.3912	-0.061
Mof_O 	O 	0.53671	0.7908	0.34227	-0.791
Mof_O 	O 	0.56869	0.74281	0.33118	-0.75
Mof_C 	C 	0.5601	0.2702	0.84547	0.548
Mof_C 	C 	0.58414	0.2806	0.8741	-0.102
Mof_N 	N 	0.58382	0.31049	0.8912	-0.061
Mof_O 	O 	0.53671	0.2908	0.84227	-0.791
Mof_O 	O 	0.56869	0.24281	0.83118	-0.75
Mof_C 	C 	0.9399	0.7702	0.15453	0.547
Mof_C 	C 	0.91586	0.7806	0.1259	-0.102
Mof_N 	N 	0.91618	0.81049	0.1088	-0.061
Mof_O 	O 	0.96329	0.7908	0.15773	-0.783
Mof_O 	O 	0.93131	0.74281	0.16882	-0.751
Mof_C 	C 	0.9399	0.2702	0.65453	0.547
Mof_C 	C 	0.91586	0.2806	0.6259	-0.102
Mof_N 	N 	0.91618	0.31049	0.6088	-0.061
Mof_O 	O 	0.96329	0.2908	0.65773	-0.783
Mof_O 	O 	0.93131	0.24281	0.66882	-0.751
Mof_C 	C 	0.4399	0.7702	0.65453	0.548
Mof_C 	C 	0.41586	0.7806	0.6259	-0.102
Mof_N 	N 	0.41618	0.81049	0.6088	-0.061
Mof_O 	O 	0.46329	0.7908	0.65773	-0.791
Mof_O 	O 	0.43131	0.74281	0.66882	-0.75
Mof_C 	C 	0.4399	0.2702	0.15453	0.547
Mof_C 	C 	0.41586	0.2806	0.1259	-0.103
Mof_N 	N 	0.41618	0.31049	0.1088	-0.062
Mof_O 	O 	0.46329	0.2908	0.15773	-0.792
Mof_O 	O 	0.43131	0.24281	0.16882	-0.75
Mof_C 	C 	0.9399	0.2298	0.84547	0.547
Mof_C 	C 	0.91586	0.2194	0.8741	-0.101
Mof_N 	N 	0.91618	0.18951	0.8912	-0.06
Mof_O 	O 	0.96329	0.2092	0.84227	-0.783
Mof_O 	O 	0.93131	0.25719	0.83118	-0.751
Mof_C 	C 	0.9399	0.7298	0.34547	0.547
Mof_C 	C 	0.91586	0.7194	0.3741	-0.102
Mof_N 	N 	0.91618	0.68951	0.3912	-0.061
Mof_O 	O 	0.96329	0.7092	0.34227	-0.783
Mof_O 	O 	0.93131	0.75719	0.33118	-0.751
Mof_C 	C 	0.4399	0.2298	0.34547	0.548
Mof_C 	C 	0.41586	0.2194	0.3741	-0.102
Mof_N 	N 	0.41618	0.18951	0.3912	-0.062
Mof_O 	O 	0.46329	0.2092	0.34227	-0.791
Mof_O 	O 	0.43131	0.25719	0.33118	-0.75
Mof_C 	C 	0.4399	0.7298	0.84547	0.548
Mof_C 	C 	0.41586	0.7194	0.8741	-0.102
Mof_N 	N 	0.41618	0.68951	0.8912	-0.061
Mof_O 	O 	0.46329	0.7092	0.84227	-0.791
Mof_O 	O 	0.43131	0.75719	0.83118	-0.75
Mof_C 	C 	0.15453	0.0601	0.2298	0.546
Mof_C 	C 	0.1259	0.08414	0.2194	-0.103
Mof_N 	N 	0.1088	0.08382	0.18951	-0.063
Mof_O 	O 	0.15773	0.03671	0.2092	-0.789
Mof_O 	O 	0.16882	0.06869	0.25719	-0.75
Mof_C 	C 	0.15453	0.5601	0.7298	0.547
Mof_C 	C 	0.1259	0.58414	0.7194	-0.103
Mof_N 	N 	0.1088	0.58382	0.68951	-0.062
Mof_O 	O 	0.15773	0.53671	0.7092	-0.792
Mof_O 	O 	0.16882	0.56869	0.75719	-0.75
Mof_C 	C 	0.65453	0.0601	0.7298	0.546
Mof_C 	C 	0.6259	0.08414	0.7194	-0.103
Mof_N 	N 	0.6088	0.08382	0.68951	-0.062
Mof_O 	O 	0.65773	0.03671	0.7092	-0.789
Mof_O 	O 	0.66882	0.06869	0.75719	-0.75
Mof_C 	C 	0.65453	0.5601	0.2298	0.548
Mof_C 	C 	0.6259	0.58414	0.2194	-0.102
Mof_N 	N 	0.6088	0.58382	0.18951	-0.062
Mof_O 	O 	0.65773	0.53671	0.2092	-0.791
Mof_O 	O 	0.66882	0.56869	0.25719	-0.75
Mof_C 	C 	0.84547	0.0601	0.7702	0.546
Mof_C 	C 	0.8741	0.08414	0.7806	-0.102
Mof_N 	N 	0.8912	0.08382	0.81049	-0.062
Mof_O 	O 	0.84227	0.03671	0.7908	-0.788
Mof_O 	O 	0.83118	0.06869	0.74281	-0.75
Mof_C 	C 	0.84547	0.5601	0.2702	0.548
Mof_C 	C 	0.8741	0.58414	0.2806	-0.102
Mof_N 	N 	0.8912	0.58382	0.31049	-0.061
Mof_O 	O 	0.84227	0.53671	0.2908	-0.791
Mof_O 	O 	0.83118	0.56869	0.24281	-0.75
Mof_C 	C 	0.34547	0.0601	0.2702	0.546
Mof_C 	C 	0.3741	0.08414	0.2806	-0.103
Mof_N 	N 	0.3912	0.08382	0.31049	-0.062
Mof_O 	O 	0.34227	0.03671	0.2908	-0.789
Mof_O 	O 	0.33118	0.06869	0.24281	-0.75
Mof_C 	C 	0.34547	0.5601	0.7702	0.548
Mof_C 	C 	0.3741	0.58414	0.7806	-0.102
Mof_N 	N 	0.3912	0.58382	0.81049	-0.061
Mof_O 	O 	0.34227	0.53671	0.7908	-0.791
Mof_O 	O 	0.33118	0.56869	0.74281	-0.75
Mof_C 	C 	0.15453	0.9399	0.7702	0.547
Mof_C 	C 	0.1259	0.91586	0.7806	-0.102
Mof_N 	N 	0.1088	0.91618	0.81049	-0.061
Mof_O 	O 	0.15773	0.96329	0.7908	-0.783
Mof_O 	O 	0.16882	0.93131	0.74281	-0.751
Mof_C 	C 	0.15453	0.4399	0.2702	0.547
Mof_C 	C 	0.1259	0.41586	0.2806	-0.103
Mof_N 	N 	0.1088	0.41618	0.31049	-0.062
Mof_O 	O 	0.15773	0.46329	0.2908	-0.792
Mof_O 	O 	0.16882	0.43131	0.24281	-0.75
Mof_C 	C 	0.65453	0.9399	0.2702	0.547
Mof_C 	C 	0.6259	0.91586	0.2806	-0.102
Mof_N 	N 	0.6088	0.91618	0.31049	-0.061
Mof_O 	O 	0.65773	0.96329	0.2908	-0.783
Mof_O 	O 	0.66882	0.93131	0.24281	-0.751
Mof_C 	C 	0.65453	0.4399	0.7702	0.548
Mof_C 	C 	0.6259	0.41586	0.7806	-0.102
Mof_N 	N 	0.6088	0.41618	0.81049	-0.061
Mof_O 	O 	0.65773	0.46329	0.7908	-0.791
Mof_O 	O 	0.66882	0.43131	0.74281	-0.75
Mof_C 	C 	0.84547	0.9399	0.2298	0.547
Mof_C 	C 	0.8741	0.91586	0.2194	-0.101
Mof_N 	N 	0.8912	0.91618	0.18951	-0.06
Mof_O 	O 	0.84227	0.96329	0.2092	-0.783
Mof_O 	O 	0.83118	0.93131	0.25719	-0.751
Mof_C 	C 	0.84547	0.4399	0.7298	0.548
Mof_C 	C 	0.8741	0.41586	0.7194	-0.102
Mof_N 	N 	0.8912	0.41618	0.68951	-0.061
Mof_O 	O 	0.84227	0.46329	0.7092	-0.791
Mof_O 	O 	0.83118	0.43131	0.75719	-0.75
Mof_C 	C 	0.34547	0.9399	0.7298	0.547
Mof_C 	C 	0.3741	0.91586	0.7194	-0.102
Mof_N 	N 	0.3912	0.91618	0.68951	-0.061
Mof_O 	O 	0.34227	0.96329	0.7092	-0.783
Mof_O 	O 	0.33118	0.93131	0.75719	-0.751
Mof_C 	C 	0.34547	0.4399	0.2298	0.548
Mof_C 	C 	0.3741	0.41586	0.2194	-0.102
Mof_N 	N 	0.3912	0.41618	0.18951	-0.062
Mof_O 	O 	0.34227	0.46329	0.2092	-0.791
Mof_O 	O 	0.33118	0.43131	0.25719	-0.75
Mof_C 	C 	0.15453	0.2298	0.9399	0.547
Mof_C 	C 	0.1259	0.2194	0.91586	-0.102
Mof_N 	N 	0.1088	0.18951	0.91618	-0.062
Mof_O 	O 	0.15773	0.2092	0.96329	-0.783
Mof_O 	O 	0.16882	0.25719	0.93131	-0.751
Mof_C 	C 	0.15453	0.7298	0.4399	0.547
Mof_C 	C 	0.1259	0.7194	0.41586	-0.103
Mof_N 	N 	0.1088	0.68951	0.41618	-0.062
Mof_O 	O 	0.15773	0.7092	0.46329	-0.792
Mof_O 	O 	0.16882	0.75719	0.43131	-0.75
Mof_C 	C 	0.65453	0.2298	0.4399	0.548
Mof_C 	C 	0.6259	0.2194	0.41586	-0.102
Mof_N 	N 	0.6088	0.18951	0.41618	-0.062
Mof_O 	O 	0.65773	0.2092	0.46329	-0.791
Mof_O 	O 	0.66882	0.25719	0.43131	-0.75
Mof_C 	C 	0.65453	0.7298	0.9399	0.547
Mof_C 	C 	0.6259	0.7194	0.91586	-0.102
Mof_N 	N 	0.6088	0.68951	0.91618	-0.061
Mof_O 	O 	0.65773	0.7092	0.96329	-0.783
Mof_O 	O 	0.66882	0.75719	0.93131	-0.751
Mof_C 	C 	0.84547	0.7702	0.9399	0.547
Mof_C 	C 	0.8741	0.7806	0.91586	-0.101
Mof_N 	N 	0.8912	0.81049	0.91618	-0.06
Mof_O 	O 	0.84227	0.7908	0.96329	-0.782
Mof_O 	O 	0.83118	0.74281	0.93131	-0.751
Mof_C 	C 	0.84547	0.2702	0.4399	0.548
Mof_C 	C 	0.8741	0.2806	0.41586	-0.102
Mof_N 	N 	0.8912	0.31049	0.41618	-0.061
Mof_O 	O 	0.84227	0.2908	0.46329	-0.791
Mof_O 	O 	0.83118	0.24281	0.43131	-0.75
Mof_C 	C 	0.34547	0.7702	0.4399	0.548
Mof_C 	C 	0.3741	0.7806	0.41586	-0.102
Mof_N 	N 	0.3912	0.81049	0.41618	-0.061
Mof_O 	O 	0.34227	0.7908	0.46329	-0.791
Mof_O 	O 	0.33118	0.74281	0.43131	-0.75
Mof_C 	C 	0.34547	0.2702	0.9399	0.547
Mof_C 	C 	0.3741	0.2806	0.91586	-0.102
Mof_N 	N 	0.3912	0.31049	0.91618	-0.061
Mof_O 	O 	0.34227	0.2908	0.96329	-0.783
Mof_O 	O 	0.33118	0.24281	0.93131	-0.751
Mof_C 	C 	0.15453	0.7702	0.0601	0.546
Mof_C 	C 	0.1259	0.7806	0.08414	-0.103
Mof_N 	N 	0.1088	0.81049	0.08382	-0.063
Mof_O 	O 	0.15773	0.7908	0.03671	-0.789
Mof_O 	O 	0.16882	0.74281	0.06869	-0.75
Mof_C 	C 	0.15453	0.2702	0.5601	0.547
Mof_C 	C 	0.1259	0.2806	0.58414	-0.103
Mof_N 	N 	0.1088	0.31049	0.58382	-0.062
Mof_O 	O 	0.15773	0.2908	0.53671	-0.792
Mof_O 	O 	0.16882	0.24281	0.56869	-0.75
Mof_C 	C 	0.65453	0.7702	0.5601	0.548
Mof_C 	C 	0.6259	0.7806	0.58414	-0.102
Mof_N 	N 	0.6088	0.81049	0.58382	-0.061
Mof_O 	O 	0.65773	0.7908	0.53671	-0.791
Mof_O 	O 	0.66882	0.74281	0.56869	-0.75
Mof_C 	C 	0.65453	0.2702	0.0601	0.546
Mof_C 	C 	0.6259	0.2806	0.08414	-0.103
Mof_N 	N 	0.6088	0.31049	0.08382	-0.062
Mof_O 	O 	0.65773	0.2908	0.03671	-0.789
Mof_O 	O 	0.66882	0.24281	0.06869	-0.75
Mof_C 	C 	0.84547	0.2298	0.0601	0.546
Mof_C 	C 	0.8741	0.2194	0.08414	-0.102
Mof_N 	N 	0.8912	0.18951	0.08382	-0.062
Mof_O 	O 	0.84227	0.2092	0.03671	-0.789
Mof_O 	O 	0.83118	0.25719	0.06869	-0.75
Mof_C 	C 	0.84547	0.7298	0.5601	0.548
Mof_C 	C 	0.8741	0.7194	0.58414	-0.102
Mof_N 	N 	0.8912	0.68951	0.58382	-0.061
Mof_O 	O 	0.84227	0.7092	0.53671	-0.791
Mof_O 	O 	0.83118	0.75719	0.56869	-0.75
Mof_C 	C 	0.34547	0.2298	0.5601	0.548
Mof_C 	C 	0.3741	0.2194	0.58414	-0.102
Mof_N 	N 	0.3912	0.18951	0.58382	-0.062
Mof_O 	O 	0.34227	0.2092	0.53671	-0.791
Mof_O 	O 	0.33118	0.25719	0.56869	-0.75
Mof_C 	C 	0.34547	0.7298	0.0601	0.546
Mof_C 	C 	0.3741	0.7194	0.08414	-0.103
Mof_N 	N 	0.3912	0.68951	0.08382	-0.062
Mof_O 	O 	0.34227	0.7092	0.03671	-0.789
Mof_O 	O 	0.33118	0.75719	0.06869	-0.75
Mof_C 	C 	0.2298	0.0601	0.84547	0.546
Mof_C 	C 	0.2194	0.08414	0.8741	-0.102
Mof_N 	N 	0.18951	0.08382	0.8912	-0.062
Mof_O 	O 	0.2092	0.03671	0.84227	-0.789
Mof_O 	O 	0.25719	0.06869	0.83118	-0.75
Mof_C 	C 	0.2298	0.5601	0.34547	0.548
Mof_C 	C 	0.2194	0.58414	0.3741	-0.102
Mof_N 	N 	0.18951	0.58382	0.3912	-0.062
Mof_O 	O 	0.2092	0.53671	0.34227	-0.791
Mof_O 	O 	0.25719	0.56869	0.33118	-0.75
Mof_C 	C 	0.7298	0.0601	0.34547	0.546
Mof_C 	C 	0.7194	0.08414	0.3741	-0.103
Mof_N 	N 	0.68951	0.08382	0.3912	-0.062
Mof_O 	O 	0.7092	0.03671	0.34227	-0.789
Mof_O 	O 	0.75719	0.06869	0.33118	-0.75
Mof_C 	C 	0.7298	0.5601	0.84547	0.548
Mof_C 	C 	0.7194	0.58414	0.8741	-0.102
Mof_N 	N 	0.68951	0.58382	0.8912	-0.061
Mof_O 	O 	0.7092	0.53671	0.84227	-0.791
Mof_O 	O 	0.75719	0.56869	0.83118	-0.75
Mof_C 	C 	0.7702	0.0601	0.15453	0.546
Mof_C 	C 	0.7806	0.08414	0.1259	-0.103
Mof_N 	N 	0.81049	0.08382	0.1088	-0.063
Mof_O 	O 	0.7908	0.03671	0.15773	-0.789
Mof_O 	O 	0.74281	0.06869	0.16882	-0.75
Mof_C 	C 	0.7702	0.5601	0.65453	0.548
Mof_C 	C 	0.7806	0.58414	0.6259	-0.102
Mof_N 	N 	0.81049	0.58382	0.6088	-0.061
Mof_O 	O 	0.7908	0.53671	0.65773	-0.791
Mof_O 	O 	0.74281	0.56869	0.66882	-0.75
Mof_C 	C 	0.2702	0.0601	0.65453	0.546
Mof_C 	C 	0.2806	0.08414	0.6259	-0.103
Mof_N 	N 	0.31049	0.08382	0.6088	-0.062
Mof_O 	O 	0.2908	0.03671	0.65773	-0.789
Mof_O 	O 	0.24281	0.06869	0.66882	-0.75
Mof_C 	C 	0.2702	0.5601	0.15453	0.547
Mof_C 	C 	0.2806	0.58414	0.1259	-0.103
Mof_N 	N 	0.31049	0.58382	0.1088	-0.062
Mof_O 	O 	0.2908	0.53671	0.15773	-0.792
Mof_O 	O 	0.24281	0.56869	0.16882	-0.75
Mof_C 	C 	0.7702	0.9399	0.84547	0.547
Mof_C 	C 	0.7806	0.91586	0.8741	-0.101
Mof_N 	N 	0.81049	0.91618	0.8912	-0.06
Mof_O 	O 	0.7908	0.96329	0.84227	-0.782
Mof_O 	O 	0.74281	0.93131	0.83118	-0.751
Mof_C 	C 	0.7702	0.4399	0.34547	0.548
Mof_C 	C 	0.7806	0.41586	0.3741	-0.102
Mof_N 	N 	0.81049	0.41618	0.3912	-0.061
Mof_O 	O 	0.7908	0.46329	0.34227	-0.791
Mof_O 	O 	0.74281	0.43131	0.33118	-0.75
Mof_C 	C 	0.2702	0.9399	0.34547	0.547
Mof_C 	C 	0.2806	0.91586	0.3741	-0.102
Mof_N 	N 	0.31049	0.91618	0.3912	-0.061
Mof_O 	O 	0.2908	0.96329	0.34227	-0.783
Mof_O 	O 	0.24281	0.93131	0.33118	-0.751
Mof_C 	C 	0.2702	0.4399	0.84547	0.548
Mof_C 	C 	0.2806	0.41586	0.8741	-0.102
Mof_N 	N 	0.31049	0.41618	0.8912	-0.061
Mof_O 	O 	0.2908	0.46329	0.84227	-0.791
Mof_O 	O 	0.24281	0.43131	0.83118	-0.75
Mof_C 	C 	0.2298	0.9399	0.15453	0.547
Mof_C 	C 	0.2194	0.91586	0.1259	-0.102
Mof_N 	N 	0.18951	0.91618	0.1088	-0.062
Mof_O 	O 	0.2092	0.96329	0.15773	-0.783
Mof_O 	O 	0.25719	0.93131	0.16882	-0.751
Mof_C 	C 	0.2298	0.4399	0.65453	0.548
Mof_C 	C 	0.2194	0.41586	0.6259	-0.102
Mof_N 	N 	0.18951	0.41618	0.6088	-0.062
Mof_O 	O 	0.2092	0.46329	0.65773	-0.791
Mof_O 	O 	0.25719	0.43131	0.66882	-0.75
Mof_C 	C 	0.7298	0.9399	0.65453	0.547
Mof_C 	C 	0.7194	0.91586	0.6259	-0.102
Mof_N 	N 	0.68951	0.91618	0.6088	-0.061
Mof_O 	O 	0.7092	0.96329	0.65773	-0.783
Mof_O 	O 	0.75719	0.93131	0.66882	-0.751
Mof_C 	C 	0.7298	0.4399	0.15453	0.547
Mof_C 	C 	0.7194	0.41586	0.1259	-0.103
Mof_N 	N 	0.68951	0.41618	0.1088	-0.062
Mof_O 	O 	0.7092	0.46329	0.15773	-0.792
Mof_O 	O 	0.75719	0.43131	0.16882	-0.75
Mof_C 	C 	0.0601	0.15453	0.7702	0.546
Mof_C 	C 	0.08414	0.1259	0.7806	-0.103
Mof_N 	N 	0.08382	0.1088	0.81049	-0.063
Mof_O 	O 	0.03671	0.15773	0.7908	-0.789
Mof_O 	O 	0.06869	0.16882	0.74281	-0.75
Mof_C 	C 	0.0601	0.65453	0.2702	0.546
Mof_C 	C 	0.08414	0.6259	0.2806	-0.103
Mof_N 	N 	0.08382	0.6088	0.31049	-0.062
Mof_O 	O 	0.03671	0.65773	0.2908	-0.789
Mof_O 	O 	0.06869	0.66882	0.24281	-0.75
Mof_C 	C 	0.5601	0.15453	0.2702	0.547
Mof_C 	C 	0.58414	0.1259	0.2806	-0.103
Mof_N 	N 	0.58382	0.1088	0.31049	-0.062
Mof_O 	O 	0.53671	0.15773	0.2908	-0.792
Mof_O 	O 	0.56869	0.16882	0.24281	-0.75
Mof_C 	C 	0.5601	0.65453	0.7702	0.548
Mof_C 	C 	0.58414	0.6259	0.7806	-0.102
Mof_N 	N 	0.58382	0.6088	0.81049	-0.061
Mof_O 	O 	0.53671	0.65773	0.7908	-0.791
Mof_O 	O 	0.56869	0.66882	0.74281	-0.75
Mof_C 	C 	0.0601	0.84547	0.2298	0.546
Mof_C 	C 	0.08414	0.8741	0.2194	-0.102
Mof_N 	N 	0.08382	0.8912	0.18951	-0.062
Mof_O 	O 	0.03671	0.84227	0.2092	-0.789
Mof_O 	O 	0.06869	0.83118	0.25719	-0.75
Mof_C 	C 	0.0601	0.34547	0.7298	0.546
Mof_C 	C 	0.08414	0.3741	0.7194	-0.103
Mof_N 	N 	0.08382	0.3912	0.68951	-0.062
Mof_O 	O 	0.03671	0.34227	0.7092	-0.789
Mof_O 	O 	0.06869	0.33118	0.75719	-0.75
Mof_C 	C 	0.5601	0.84547	0.7298	0.548
Mof_C 	C 	0.58414	0.8741	0.7194	-0.102
Mof_N 	N 	0.58382	0.8912	0.68951	-0.061
Mof_O 	O 	0.53671	0.84227	0.7092	-0.791
Mof_O 	O 	0.56869	0.83118	0.75719	-0.75
Mof_C 	C 	0.5601	0.34547	0.2298	0.548
Mof_C 	C 	0.58414	0.3741	0.2194	-0.102
Mof_N 	N 	0.58382	0.3912	0.18951	-0.062
Mof_O 	O 	0.53671	0.34227	0.2092	-0.791
Mof_O 	O 	0.56869	0.33118	0.25719	-0.75
Mof_C 	C 	0.9399	0.15453	0.2298	0.547
Mof_C 	C 	0.91586	0.1259	0.2194	-0.102
Mof_N 	N 	0.91618	0.1088	0.18951	-0.062
Mof_O 	O 	0.96329	0.15773	0.2092	-0.783
Mof_O 	O 	0.93131	0.16882	0.25719	-0.751
Mof_C 	C 	0.9399	0.65453	0.7298	0.547
Mof_C 	C 	0.91586	0.6259	0.7194	-0.102
Mof_N 	N 	0.91618	0.6088	0.68951	-0.061
Mof_O 	O 	0.96329	0.65773	0.7092	-0.783
Mof_O 	O 	0.93131	0.66882	0.75719	-0.751
Mof_C 	C 	0.4399	0.15453	0.7298	0.547
Mof_C 	C 	0.41586	0.1259	0.7194	-0.103
Mof_N 	N 	0.41618	0.1088	0.68951	-0.062
Mof_O 	O 	0.46329	0.15773	0.7092	-0.792
Mof_O 	O 	0.43131	0.16882	0.75719	-0.75
Mof_C 	C 	0.4399	0.65453	0.2298	0.548
Mof_C 	C 	0.41586	0.6259	0.2194	-0.102
Mof_N 	N 	0.41618	0.6088	0.18951	-0.062
Mof_O 	O 	0.46329	0.65773	0.2092	-0.791
Mof_O 	O 	0.43131	0.66882	0.25719	-0.75
Mof_C 	C 	0.9399	0.84547	0.7702	0.547
Mof_C 	C 	0.91586	0.8741	0.7806	-0.101
Mof_N 	N 	0.91618	0.8912	0.81049	-0.06
Mof_O 	O 	0.96329	0.84227	0.7908	-0.782
Mof_O 	O 	0.93131	0.83118	0.74281	-0.751
Mof_C 	C 	0.9399	0.34547	0.2702	0.547
Mof_C 	C 	0.91586	0.3741	0.2806	-0.102
Mof_N 	N 	0.91618	0.3912	0.31049	-0.061
Mof_O 	O 	0.96329	0.34227	0.2908	-0.783
Mof_O 	O 	0.93131	0.33118	0.24281	-0.751
Mof_C 	C 	0.4399	0.84547	0.2702	0.548
Mof_C 	C 	0.41586	0.8741	0.2806	-0.102
Mof_N 	N 	0.41618	0.8912	0.31049	-0.061
Mof_O 	O 	0.46329	0.84227	0.2908	-0.791
Mof_O 	O 	0.43131	0.83118	0.24281	-0.75
Mof_C 	C 	0.4399	0.34547	0.7702	0.548
Mof_C 	C 	0.41586	0.3741	0.7806	-0.102
Mof_N 	N 	0.41618	0.3912	0.81049	-0.061
Mof_O 	O 	0.46329	0.34227	0.7908	-0.791
Mof_O 	O 	0.43131	0.33118	0.74281	-0.75
Mof_C 	C 	0.7702	0.84547	0.9399	0.547
Mof_C 	C 	0.7806	0.8741	0.91586	-0.101
Mof_N 	N 	0.81049	0.8912	0.91618	-0.06
Mof_O 	O 	0.7908	0.84227	0.96329	-0.782
Mof_O 	O 	0.74281	0.83118	0.93131	-0.751
Mof_C 	C 	0.7702	0.34547	0.4399	0.548
Mof_C 	C 	0.7806	0.3741	0.41586	-0.102
Mof_N 	N 	0.81049	0.3912	0.41618	-0.061
Mof_O 	O 	0.7908	0.34227	0.46329	-0.791
Mof_O 	O 	0.74281	0.33118	0.43131	-0.75
Mof_C 	C 	0.2702	0.84547	0.4399	0.548
Mof_C 	C 	0.2806	0.8741	0.41586	-0.102
Mof_N 	N 	0.31049	0.8912	0.41618	-0.061
Mof_O 	O 	0.2908	0.84227	0.46329	-0.791
Mof_O 	O 	0.24281	0.83118	0.43131	-0.75
Mof_C 	C 	0.2702	0.34547	0.9399	0.547
Mof_C 	C 	0.2806	0.3741	0.91586	-0.102
Mof_N 	N 	0.31049	0.3912	0.91618	-0.061
Mof_O 	O 	0.2908	0.34227	0.96329	-0.783
Mof_O 	O 	0.24281	0.33118	0.93131	-0.751
Mof_C 	C 	0.2298	0.15453	0.9399	0.547
Mof_C 	C 	0.2194	0.1259	0.91586	-0.102
Mof_N 	N 	0.18951	0.1088	0.91618	-0.062
Mof_O 	O 	0.2092	0.15773	0.96329	-0.783
Mof_O 	O 	0.25719	0.16882	0.93131	-0.751
Mof_C 	C 	0.2298	0.65453	0.4399	0.548
Mof_C 	C 	0.2194	0.6259	0.41586	-0.102
Mof_N 	N 	0.18951	0.6088	0.41618	-0.062
Mof_O 	O 	0.2092	0.65773	0.46329	-0.791
Mof_O 	O 	0.25719	0.66882	0.43131	-0.75
Mof_C 	C 	0.7298	0.15453	0.4399	0.547
Mof_C 	C 	0.7194	0.1259	0.41586	-0.103
Mof_N 	N 	0.68951	0.1088	0.41618	-0.062
Mof_O 	O 	0.7092	0.15773	0.46329	-0.792
Mof_O 	O 	0.75719	0.16882	0.43131	-0.75
Mof_C 	C 	0.7298	0.65453	0.9399	0.547
Mof_C 	C 	0.7194	0.6259	0.91586	-0.102
Mof_N 	N 	0.68951	0.6088	0.91618	-0.061
Mof_O 	O 	0.7092	0.65773	0.96329	-0.783
Mof_O 	O 	0.75719	0.66882	0.93131	-0.751
Mof_C 	C 	0.2298	0.84547	0.0601	0.546
Mof_C 	C 	0.2194	0.8741	0.08414	-0.102
Mof_N 	N 	0.18951	0.8912	0.08382	-0.062
Mof_O 	O 	0.2092	0.84227	0.03671	-0.789
Mof_O 	O 	0.25719	0.83118	0.06869	-0.75
Mof_C 	C 	0.2298	0.34547	0.5601	0.548
Mof_C 	C 	0.2194	0.3741	0.58414	-0.102
Mof_N 	N 	0.18951	0.3912	0.58382	-0.062
Mof_O 	O 	0.2092	0.34227	0.53671	-0.791
Mof_O 	O 	0.25719	0.33118	0.56869	-0.75
Mof_C 	C 	0.7298	0.84547	0.5601	0.548
Mof_C 	C 	0.7194	0.8741	0.58414	-0.102
Mof_N 	N 	0.68951	0.8912	0.58382	-0.061
Mof_O 	O 	0.7092	0.84227	0.53671	-0.791
Mof_O 	O 	0.75719	0.83118	0.56869	-0.75
Mof_C 	C 	0.7298	0.34547	0.0601	0.546
Mof_C 	C 	0.7194	0.3741	0.08414	-0.103
Mof_N 	N 	0.68951	0.3912	0.08382	-0.062
Mof_O 	O 	0.7092	0.34227	0.03671	-0.789
Mof_O 	O 	0.75719	0.33118	0.06869	-0.75
Mof_C 	C 	0.7702	0.15453	0.0601	0.546
Mof_C 	C 	0.7806	0.1259	0.08414	-0.103
Mof_N 	N 	0.81049	0.1088	0.08382	-0.063
Mof_O 	O 	0.7908	0.15773	0.03671	-0.789
Mof_O 	O 	0.74281	0.16882	0.06869	-0.75
Mof_C 	C 	0.7702	0.65453	0.5601	0.548
Mof_C 	C 	0.7806	0.6259	0.58414	-0.102
Mof_N 	N 	0.81049	0.6088	0.58382	-0.061
Mof_O 	O 	0.7908	0.65773	0.53671	-0.791
Mof_O 	O 	0.74281	0.66882	0.56869	-0.75
Mof_C 	C 	0.2702	0.15453	0.5601	0.547
Mof_C 	C 	0.2806	0.1259	0.58414	-0.103
Mof_N 	N 	0.31049	0.1088	0.58382	-0.062
Mof_O 	O 	0.2908	0.15773	0.53671	-0.792
Mof_O 	O 	0.24281	0.16882	0.56869	-0.75
Mof_C 	C 	0.2702	0.65453	0.0601	0.546
Mof_C 	C 	0.2806	0.6259	0.08414	-0.103
Mof_N 	N 	0.31049	0.6088	0.08382	-0.062
Mof_O 	O 	0.2908	0.65773	0.03671	-0.789
Mof_O 	O 	0.24281	0.66882	0.06869	-0.75
Mof_C 	C 	0.9399	0.7702	0.84547	0.547
Mof_C 	C 	0.91586	0.7806	0.8741	-0.101
Mof_N 	N 	0.91618	0.81049	0.8912	-0.06
Mof_O 	O 	0.96329	0.7908	0.84227	-0.782
Mof_O 	O 	0.93131	0.74281	0.83118	-0.751
Mof_C 	C 	0.9399	0.2702	0.34547	0.547
Mof_C 	C 	0.91586	0.2806	0.3741	-0.102
Mof_N 	N 	0.91618	0.31049	0.3912	-0.061
Mof_O 	O 	0.96329	0.2908	0.34227	-0.783
Mof_O 	O 	0.93131	0.24281	0.33118	-0.751
Mof_C 	C 	0.4399	0.7702	0.34547	0.548
Mof_C 	C 	0.41586	0.7806	0.3741	-0.102
Mof_N 	N 	0.41618	0.81049	0.3912	-0.061
Mof_O 	O 	0.46329	0.7908	0.34227	-0.791
Mof_O 	O 	0.43131	0.74281	0.33118	-0.75
Mof_C 	C 	0.4399	0.2702	0.84547	0.548
Mof_C 	C 	0.41586	0.2806	0.8741	-0.102
Mof_N 	N 	0.41618	0.31049	0.8912	-0.061
Mof_O 	O 	0.46329	0.2908	0.84227	-0.791
Mof_O 	O 	0.43131	0.24281	0.83118	-0.75
Mof_C 	C 	0.9399	0.2298	0.15453	0.547
Mof_C 	C 	0.91586	0.2194	0.1259	-0.102
Mof_N 	N 	0.91618	0.18951	0.1088	-0.062
Mof_O 	O 	0.96329	0.2092	0.15773	-0.783
Mof_O 	O 	0.93131	0.25719	0.16882	-0.751
Mof_C 	C 	0.9399	0.7298	0.65453	0.547
Mof_C 	C 	0.91586	0.7194	0.6259	-0.102
Mof_N 	N 	0.91618	0.68951	0.6088	-0.061
Mof_O 	O 	0.96329	0.7092	0.65773	-0.783
Mof_O 	O 	0.93131	0.75719	0.66882	-0.751
Mof_C 	C 	0.4399	0.2298	0.65453	0.548
Mof_C 	C 	0.41586	0.2194	0.6259	-0.102
Mof_N 	N 	0.41618	0.18951	0.6088	-0.062
Mof_O 	O 	0.46329	0.2092	0.65773	-0.791
Mof_O 	O 	0.43131	0.25719	0.66882	-0.75
Mof_C 	C 	0.4399	0.7298	0.15453	0.547
Mof_C 	C 	0.41586	0.7194	0.1259	-0.103
Mof_N 	N 	0.41618	0.68951	0.1088	-0.062
Mof_O 	O 	0.46329	0.7092	0.15773	-0.792
Mof_O 	O 	0.43131	0.75719	0.16882	-0.75
Mof_C 	C 	0.0601	0.2298	0.84547	0.546
Mof_C 	C 	0.08414	0.2194	0.8741	-0.102
Mof_N 	N 	0.08382	0.18951	0.8912	-0.062
Mof_O 	O 	0.03671	0.2092	0.84227	-0.789
Mof_O 	O 	0.06869	0.25719	0.83118	-0.75
Mof_C 	C 	0.0601	0.7298	0.34547	0.546
Mof_C 	C 	0.08414	0.7194	0.3741	-0.103
Mof_N 	N 	0.08382	0.68951	0.3912	-0.062
Mof_O 	O 	0.03671	0.7092	0.34227	-0.789
Mof_O 	O 	0.06869	0.75719	0.33118	-0.75
Mof_C 	C 	0.5601	0.2298	0.34547	0.548
Mof_C 	C 	0.58414	0.2194	0.3741	-0.102
Mof_N 	N 	0.58382	0.18951	0.3912	-0.062
Mof_O 	O 	0.53671	0.2092	0.34227	-0.791
Mof_O 	O 	0.56869	0.25719	0.33118	-0.75
Mof_C 	C 	0.5601	0.7298	0.84547	0.548
Mof_C 	C 	0.58414	0.7194	0.8741	-0.102
Mof_N 	N 	0.58382	0.68951	0.8912	-0.061
Mof_O 	O 	0.53671	0.7092	0.84227	-0.791
Mof_O 	O 	0.56869	0.75719	0.83118	-0.75
Mof_C 	C 	0.0601	0.7702	0.15453	0.546
Mof_C 	C 	0.08414	0.7806	0.1259	-0.103
Mof_N 	N 	0.08382	0.81049	0.1088	-0.063
Mof_O 	O 	0.03671	0.7908	0.15773	-0.789
Mof_O 	O 	0.06869	0.74281	0.16882	-0.75
Mof_C 	C 	0.0601	0.2702	0.65453	0.546
Mof_C 	C 	0.08414	0.2806	0.6259	-0.103
Mof_N 	N 	0.08382	0.31049	0.6088	-0.062
Mof_O 	O 	0.03671	0.2908	0.65773	-0.789
Mof_O 	O 	0.06869	0.24281	0.66882	-0.75
Mof_C 	C 	0.5601	0.7702	0.65453	0.548
Mof_C 	C 	0.58414	0.7806	0.6259	-0.102
Mof_N 	N 	0.58382	0.81049	0.6088	-0.061
Mof_O 	O 	0.53671	0.7908	0.65773	-0.791
Mof_O 	O 	0.56869	0.74281	0.66882	-0.75
Mof_C 	C 	0.5601	0.2702	0.15453	0.547
Mof_C 	C 	0.58414	0.2806	0.1259	-0.103
Mof_N 	N 	0.58382	0.31049	0.1088	-0.062
Mof_O 	O 	0.53671	0.2908	0.15773	-0.792
Mof_O 	O 	0.56869	0.24281	0.16882	-0.75
Mof_C 	C 	0.84547	0.9399	0.7702	0.547
Mof_C 	C 	0.8741	0.91586	0.7806	-0.101
Mof_N 	N 	0.8912	0.91618	0.81049	-0.06
Mof_O 	O 	0.84227	0.96329	0.7908	-0.782
Mof_O 	O 	0.83118	0.93131	0.74281	-0.751
Mof_C 	C 	0.84547	0.4399	0.2702	0.548
Mof_C 	C 	0.8741	0.41586	0.2806	-0.102
Mof_N 	N 	0.8912	0.41618	0.31049	-0.061
Mof_O 	O 	0.84227	0.46329	0.2908	-0.791
Mof_O 	O 	0.83118	0.43131	0.24281	-0.75
Mof_C 	C 	0.34547	0.9399	0.2702	0.547
Mof_C 	C 	0.3741	0.91586	0.2806	-0.102
Mof_N 	N 	0.3912	0.91618	0.31049	-0.061
Mof_O 	O 	0.34227	0.96329	0.2908	-0.783
Mof_O 	O 	0.33118	0.93131	0.24281	-0.751
Mof_C 	C 	0.34547	0.4399	0.7702	0.548
Mof_C 	C 	0.3741	0.41586	0.7806	-0.102
Mof_N 	N 	0.3912	0.41618	0.81049	-0.061
Mof_O 	O 	0.34227	0.46329	0.7908	-0.791
Mof_O 	O 	0.33118	0.43131	0.74281	-0.75
Mof_C 	C 	0.15453	0.9399	0.2298	0.547
Mof_C 	C 	0.1259	0.91586	0.2194	-0.102
Mof_N 	N 	0.1088	0.91618	0.18951	-0.062
Mof_O 	O 	0.15773	0.96329	0.2092	-0.783
Mof_O 	O 	0.16882	0.93131	0.25719	-0.751
Mof_C 	C 	0.15453	0.4399	0.7298	0.547
Mof_C 	C 	0.1259	0.41586	0.7194	-0.103
Mof_N 	N 	0.1088	0.41618	0.68951	-0.062
Mof_O 	O 	0.15773	0.46329	0.7092	-0.792
Mof_O 	O 	0.16882	0.43131	0.75719	-0.75
Mof_C 	C 	0.65453	0.9399	0.7298	0.547
Mof_C 	C 	0.6259	0.91586	0.7194	-0.102
Mof_N 	N 	0.6088	0.91618	0.68951	-0.061
Mof_O 	O 	0.65773	0.96329	0.7092	-0.783
Mof_O 	O 	0.66882	0.93131	0.75719	-0.751
Mof_C 	C 	0.65453	0.4399	0.2298	0.548
Mof_C 	C 	0.6259	0.41586	0.2194	-0.102
Mof_N 	N 	0.6088	0.41618	0.18951	-0.062
Mof_O 	O 	0.65773	0.46329	0.2092	-0.791
Mof_O 	O 	0.66882	0.43131	0.25719	-0.75
Mof_C 	C 	0.84547	0.0601	0.2298	0.546
Mof_C 	C 	0.8741	0.08414	0.2194	-0.102
Mof_N 	N 	0.8912	0.08382	0.18951	-0.062
Mof_O 	O 	0.84227	0.03671	0.2092	-0.789
Mof_O 	O 	0.83118	0.06869	0.25719	-0.75
Mof_C 	C 	0.84547	0.5601	0.7298	0.548
Mof_C 	C 	0.8741	0.58414	0.7194	-0.102
Mof_N 	N 	0.8912	0.58382	0.68951	-0.061
Mof_O 	O 	0.84227	0.53671	0.7092	-0.791
Mof_O 	O 	0.83118	0.56869	0.75719	-0.75
Mof_C 	C 	0.34547	0.0601	0.7298	0.546
Mof_C 	C 	0.3741	0.08414	0.7194	-0.103
Mof_N 	N 	0.3912	0.08382	0.68951	-0.062
Mof_O 	O 	0.34227	0.03671	0.7092	-0.789
Mof_O 	O 	0.33118	0.06869	0.75719	-0.75
Mof_C 	C 	0.34547	0.5601	0.2298	0.548
Mof_C 	C 	0.3741	0.58414	0.2194	-0.102
Mof_N 	N 	0.3912	0.58382	0.18951	-0.062
Mof_O 	O 	0.34227	0.53671	0.2092	-0.791
Mof_O 	O 	0.33118	0.56869	0.25719	-0.75
Mof_C 	C 	0.15453	0.0601	0.7702	0.546
Mof_C 	C 	0.1259	0.08414	0.7806	-0.103
Mof_N 	N 	0.1088	0.08382	0.81049	-0.063
Mof_O 	O 	0.15773	0.03671	0.7908	-0.789
Mof_O 	O 	0.16882	0.06869	0.74281	-0.75
Mof_C 	C 	0.15453	0.5601	0.2702	0.547
Mof_C 	C 	0.1259	0.58414	0.2806	-0.103
Mof_N 	N 	0.1088	0.58382	0.31049	-0.062
Mof_O 	O 	0.15773	0.53671	0.2908	-0.792
Mof_O 	O 	0.16882	0.56869	0.24281	-0.75
Mof_C 	C 	0.65453	0.0601	0.2702	0.546
Mof_C 	C 	0.6259	0.08414	0.2806	-0.103
Mof_N 	N 	0.6088	0.08382	0.31049	-0.062
Mof_O 	O 	0.65773	0.03671	0.2908	-0.789
Mof_O 	O 	0.66882	0.06869	0.24281	-0.75
Mof_C 	C 	0.65453	0.5601	0.7702	0.548
Mof_C 	C 	0.6259	0.58414	0.7806	-0.102
Mof_N 	N 	0.6088	0.58382	0.81049	-0.061
Mof_O 	O 	0.65773	0.53671	0.7908	-0.791
Mof_O 	O 	0.66882	0.56869	0.74281	-0.75
Mof_C 	C 	0.84547	0.7702	0.0601	0.546
Mof_C 	C 	0.8741	0.7806	0.08414	-0.102
Mof_N 	N 	0.8912	0.81049	0.08382	-0.062
Mof_O 	O 	0.84227	0.7908	0.03671	-0.788
Mof_O 	O 	0.83118	0.74281	0.06869	-0.75
Mof_C 	C 	0.84547	0.2702	0.5601	0.548
Mof_C 	C 	0.8741	0.2806	0.58414	-0.102
Mof_N 	N 	0.8912	0.31049	0.58382	-0.061
Mof_O 	O 	0.84227	0.2908	0.53671	-0.791
Mof_O 	O 	0.83118	0.24281	0.56869	-0.75
Mof_C 	C 	0.34547	0.7702	0.5601	0.548
Mof_C 	C 	0.3741	0.7806	0.58414	-0.102
Mof_N 	N 	0.3912	0.81049	0.58382	-0.061
Mof_O 	O 	0.34227	0.7908	0.53671	-0.791
Mof_O 	O 	0.33118	0.74281	0.56869	-0.75
Mof_C 	C 	0.34547	0.2702	0.0601	0.546
Mof_C 	C 	0.3741	0.2806	0.08414	-0.103
Mof_N 	N 	0.3912	0.31049	0.08382	-0.062
Mof_O 	O 	0.34227	0.2908	0.03671	-0.789
Mof_O 	O 	0.33118	0.24281	0.06869	-0.75
Mof_C 	C 	0.15453	0.2298	0.0601	0.546
Mof_C 	C 	0.1259	0.2194	0.08414	-0.103
Mof_N 	N 	0.1088	0.18951	0.08382	-0.063
Mof_O 	O 	0.15773	0.2092	0.03671	-0.789
Mof_O 	O 	0.16882	0.25719	0.06869	-0.75
Mof_C 	C 	0.15453	0.7298	0.5601	0.547
Mof_C 	C 	0.1259	0.7194	0.58414	-0.103
Mof_N 	N 	0.1088	0.68951	0.58382	-0.062
Mof_O 	O 	0.15773	0.7092	0.53671	-0.792
Mof_O 	O 	0.16882	0.75719	0.56869	-0.75
Mof_C 	C 	0.65453	0.2298	0.5601	0.548
Mof_C 	C 	0.6259	0.2194	0.58414	-0.102
Mof_N 	N 	0.6088	0.18951	0.58382	-0.062
Mof_O 	O 	0.65773	0.2092	0.53671	-0.791
Mof_O 	O 	0.66882	0.25719	0.56869	-0.75
Mof_C 	C 	0.65453	0.7298	0.0601	0.546
Mof_C 	C 	0.6259	0.7194	0.08414	-0.103
Mof_N 	N 	0.6088	0.68951	0.08382	-0.062
Mof_O 	O 	0.65773	0.7092	0.03671	-0.789
Mof_O 	O 	0.66882	0.75719	0.06869	-0.75
Mof_C 	C 	0.84547	0.2298	0.9399	0.547
Mof_C 	C 	0.8741	0.2194	0.91586	-0.101
Mof_N 	N 	0.8912	0.18951	0.91618	-0.06
Mof_O 	O 	0.84227	0.2092	0.96329	-0.783
Mof_O 	O 	0.83118	0.25719	0.93131	-0.751
Mof_C 	C 	0.84547	0.7298	0.4399	0.548
Mof_C 	C 	0.8741	0.7194	0.41586	-0.102
Mof_N 	N 	0.8912	0.68951	0.41618	-0.061
Mof_O 	O 	0.84227	0.7092	0.46329	-0.791
Mof_O 	O 	0.83118	0.75719	0.43131	-0.75
Mof_C 	C 	0.34547	0.2298	0.4399	0.548
Mof_C 	C 	0.3741	0.2194	0.41586	-0.102
Mof_N 	N 	0.3912	0.18951	0.41618	-0.062
Mof_O 	O 	0.34227	0.2092	0.46329	-0.791
Mof_O 	O 	0.33118	0.25719	0.43131	-0.75
Mof_C 	C 	0.34547	0.7298	0.9399	0.547
Mof_C 	C 	0.3741	0.7194	0.91586	-0.102
Mof_N 	N 	0.3912	0.68951	0.91618	-0.061
Mof_O 	O 	0.34227	0.7092	0.96329	-0.783
Mof_O 	O 	0.33118	0.75719	0.93131	-0.751
Mof_C 	C 	0.15453	0.7702	0.9399	0.547
Mof_C 	C 	0.1259	0.7806	0.91586	-0.102
Mof_N 	N 	0.1088	0.81049	0.91618	-0.061
Mof_O 	O 	0.15773	0.7908	0.96329	-0.783
Mof_O 	O 	0.16882	0.74281	0.93131	-0.751
Mof_C 	C 	0.15453	0.2702	0.4399	0.547
Mof_C 	C 	0.1259	0.2806	0.41586	-0.103
Mof_N 	N 	0.1088	0.31049	0.41618	-0.062
Mof_O 	O 	0.15773	0.2908	0.46329	-0.792
Mof_O 	O 	0.16882	0.24281	0.43131	-0.75
Mof_C 	C 	0.65453	0.7702	0.4399	0.548
Mof_C 	C 	0.6259	0.7806	0.41586	-0.102
Mof_N 	N 	0.6088	0.81049	0.41618	-0.061
Mof_O 	O 	0.65773	0.7908	0.46329	-0.791
Mof_O 	O 	0.66882	0.74281	0.43131	-0.75
Mof_C 	C 	0.65453	0.2702	0.9399	0.547
Mof_C 	C 	0.6259	0.2806	0.91586	-0.102
Mof_N 	N 	0.6088	0.31049	0.91618	-0.061
Mof_O 	O 	0.65773	0.2908	0.96329	-0.783
Mof_O 	O 	0.66882	0.24281	0.93131	-0.751
Mof_C 	C 	0.7702	0.9399	0.15453	0.547
Mof_C 	C 	0.7806	0.91586	0.1259	-0.102
Mof_N 	N 	0.81049	0.91618	0.1088	-0.061
Mof_O 	O 	0.7908	0.96329	0.15773	-0.783
Mof_O 	O 	0.74281	0.93131	0.16882	-0.751
Mof_C 	C 	0.7702	0.4399	0.65453	0.548
Mof_C 	C 	0.7806	0.41586	0.6259	-0.102
Mof_N 	N 	0.81049	0.41618	0.6088	-0.061
Mof_O 	O 	0.7908	0.46329	0.65773	-0.791
Mof_O 	O 	0.74281	0.43131	0.66882	-0.75
Mof_C 	C 	0.2702	0.9399	0.65453	0.547
Mof_C 	C 	0.2806	0.91586	0.6259	-0.102
Mof_N 	N 	0.31049	0.91618	0.6088	-0.061
Mof_O 	O 	0.2908	0.96329	0.65773	-0.783
Mof_O 	O 	0.24281	0.93131	0.66882	-0.751
Mof_C 	C 	0.2702	0.4399	0.15453	0.547
Mof_C 	C 	0.2806	0.41586	0.1259	-0.103
Mof_N 	N 	0.31049	0.41618	0.1088	-0.062
Mof_O 	O 	0.2908	0.46329	0.15773	-0.792
Mof_O 	O 	0.24281	0.43131	0.16882	-0.75
Mof_C 	C 	0.2298	0.9399	0.84547	0.547
Mof_C 	C 	0.2194	0.91586	0.8741	-0.101
Mof_N 	N 	0.18951	0.91618	0.8912	-0.06
Mof_O 	O 	0.2092	0.96329	0.84227	-0.783
Mof_O 	O 	0.25719	0.93131	0.83118	-0.751
Mof_C 	C 	0.2298	0.4399	0.34547	0.548
Mof_C 	C 	0.2194	0.41586	0.3741	-0.102
Mof_N 	N 	0.18951	0.41618	0.3912	-0.062
Mof_O 	O 	0.2092	0.46329	0.34227	-0.791
Mof_O 	O 	0.25719	0.43131	0.33118	-0.75
Mof_C 	C 	0.7298	0.9399	0.34547	0.547
Mof_C 	C 	0.7194	0.91586	0.3741	-0.102
Mof_N 	N 	0.68951	0.91618	0.3912	-0.061
Mof_O 	O 	0.7092	0.96329	0.34227	-0.783
Mof_O 	O 	0.75719	0.93131	0.33118	-0.751
Mof_C 	C 	0.7298	0.4399	0.84547	0.548
Mof_C 	C 	0.7194	0.41586	0.8741	-0.102
Mof_N 	N 	0.68951	0.41618	0.8912	-0.061
Mof_O 	O 	0.7092	0.46329	0.84227	-0.791
Mof_O 	O 	0.75719	0.43131	0.83118	-0.75
Mof_C 	C 	0.2298	0.0601	0.15453	0.546
Mof_C 	C 	0.2194	0.08414	0.1259	-0.103
Mof_N 	N 	0.18951	0.08382	0.1088	-0.063
Mof_O 	O 	0.2092	0.03671	0.15773	-0.789
Mof_O 	O 	0.25719	0.06869	0.16882	-0.75
Mof_C 	C 	0.2298	0.5601	0.65453	0.548
Mof_C 	C 	0.2194	0.58414	0.6259	-0.102
Mof_N 	N 	0.18951	0.58382	0.6088	-0.062
Mof_O 	O 	0.2092	0.53671	0.65773	-0.791
Mof_O 	O 	0.25719	0.56869	0.66882	-0.75
Mof_C 	C 	0.7298	0.0601	0.65453	0.546
Mof_C 	C 	0.7194	0.08414	0.6259	-0.103
Mof_N 	N 	0.68951	0.08382	0.6088	-0.062
Mof_O 	O 	0.7092	0.03671	0.65773	-0.789
Mof_O 	O 	0.75719	0.06869	0.66882	-0.75
Mof_C 	C 	0.7298	0.5601	0.15453	0.547
Mof_C 	C 	0.7194	0.58414	0.1259	-0.103
Mof_N 	N 	0.68951	0.58382	0.1088	-0.062
Mof_O 	O 	0.7092	0.53671	0.15773	-0.792
Mof_O 	O 	0.75719	0.56869	0.16882	-0.75
Mof_C 	C 	0.7702	0.0601	0.84547	0.546
Mof_C 	C 	0.7806	0.08414	0.8741	-0.102
Mof_N 	N 	0.81049	0.08382	0.8912	-0.062
Mof_O 	O 	0.7908	0.03671	0.84227	-0.788
Mof_O 	O 	0.74281	0.06869	0.83118	-0.75
Mof_C 	C 	0.7702	0.5601	0.34547	0.548
Mof_C 	C 	0.7806	0.58414	0.3741	-0.102
Mof_N 	N 	0.81049	0.58382	0.3912	-0.061
Mof_O 	O 	0.7908	0.53671	0.34227	-0.791
Mof_O 	O 	0.74281	0.56869	0.33118	-0.75
Mof_C 	C 	0.2702	0.0601	0.34547	0.546
Mof_C 	C 	0.2806	0.08414	0.3741	-0.103
Mof_N 	N 	0.31049	0.08382	0.3912	-0.062
Mof_O 	O 	0.2908	0.03671	0.34227	-0.789
Mof_O 	O 	0.24281	0.06869	0.33118	-0.75
Mof_C 	C 	0.2702	0.5601	0.84547	0.548
Mof_C 	C 	0.2806	0.58414	0.8741	-0.102
Mof_N 	N 	0.31049	0.58382	0.8912	-0.061
Mof_O 	O 	0.2908	0.53671	0.84227	-0.791
Mof_O 	O 	0.24281	0.56869	0.83118	-0.75
Mof_C 	C 	0.9399	0.84547	0.2298	0.547
Mof_C 	C 	0.91586	0.8741	0.2194	-0.101
Mof_N 	N 	0.91618	0.8912	0.18951	-0.06
Mof_O 	O 	0.96329	0.84227	0.2092	-0.783
Mof_O 	O 	0.93131	0.83118	0.25719	-0.751
Mof_C 	C 	0.9399	0.34547	0.7298	0.547
Mof_C 	C 	0.91586	0.3741	0.7194	-0.102
Mof_N 	N 	0.91618	0.3912	0.68951	-0.061
Mof_O 	O 	0.96329	0.34227	0.7092	-0.783
Mof_O 	O 	0.93131	0.33118	0.75719	-0.751
Mof_C 	C 	0.4399	0.84547	0.7298	0.548
Mof_C 	C 	0.41586	0.8741	0.7194	-0.102
Mof_N 	N 	0.41618	0.8912	0.68951	-0.061
Mof_O 	O 	0.46329	0.84227	0.7092	-0.791
Mof_O 	O 	0.43131	0.83118	0.75719	-0.75
Mof_C 	C 	0.4399	0.34547	0.2298	0.548
Mof_C 	C 	0.41586	0.3741	0.2194	-0.102
Mof_N 	N 	0.41618	0.3912	0.18951	-0.062
Mof_O 	O 	0.46329	0.34227	0.2092	-0.791
Mof_O 	O 	0.43131	0.33118	0.25719	-0.75
Mof_C 	C 	0.9399	0.15453	0.7702	0.547
Mof_C 	C 	0.91586	0.1259	0.7806	-0.102
Mof_N 	N 	0.91618	0.1088	0.81049	-0.061
Mof_O 	O 	0.96329	0.15773	0.7908	-0.783
Mof_O 	O 	0.93131	0.16882	0.74281	-0.751
Mof_C 	C 	0.9399	0.65453	0.2702	0.547
Mof_C 	C 	0.91586	0.6259	0.2806	-0.102
Mof_N 	N 	0.91618	0.6088	0.31049	-0.061
Mof_O 	O 	0.96329	0.65773	0.2908	-0.783
Mof_O 	O 	0.93131	0.66882	0.24281	-0.751
Mof_C 	C 	0.4399	0.15453	0.2702	0.547
Mof_C 	C 	0.41586	0.1259	0.2806	-0.103
Mof_N 	N 	0.41618	0.1088	0.31049	-0.062
Mof_O 	O 	0.46329	0.15773	0.2908	-0.792
Mof_O 	O 	0.43131	0.16882	0.24281	-0.75
Mof_C 	C 	0.4399	0.65453	0.7702	0.548
Mof_C 	C 	0.41586	0.6259	0.7806	-0.102
Mof_N 	N 	0.41618	0.6088	0.81049	-0.061
Mof_O 	O 	0.46329	0.65773	0.7908	-0.791
Mof_O 	O 	0.43131	0.66882	0.74281	-0.75
Mof_C 	C 	0.0601	0.84547	0.7702	0.546
Mof_C 	C 	0.08414	0.8741	0.7806	-0.102
Mof_N 	N 	0.08382	0.8912	0.81049	-0.062
Mof_O 	O 	0.03671	0.84227	0.7908	-0.788
Mof_O 	O 	0.06869	0.83118	0.74281	-0.75
Mof_C 	C 	0.0601	0.34547	0.2702	0.546
Mof_C 	C 	0.08414	0.3741	0.2806	-0.103
Mof_N 	N 	0.08382	0.3912	0.31049	-0.062
Mof_O 	O 	0.03671	0.34227	0.2908	-0.789
Mof_O 	O 	0.06869	0.33118	0.24281	-0.75
Mof_C 	C 	0.5601	0.84547	0.2702	0.548
Mof_C 	C 	0.58414	0.8741	0.2806	-0.102
Mof_N 	N 	0.58382	0.8912	0.31049	-0.061
Mof_O 	O 	0.53671	0.84227	0.2908	-0.791
Mof_O 	O 	0.56869	0.83118	0.24281	-0.75
Mof_C 	C 	0.5601	0.34547	0.7702	0.548
Mof_C 	C 	0.58414	0.3741	0.7806	-0.102
Mof_N 	N 	0.58382	0.3912	0.81049	-0.061
Mof_O 	O 	0.53671	0.34227	0.7908	-0.791
Mof_O 	O 	0.56869	0.33118	0.74281	-0.75
Mof_C 	C 	0.0601	0.15453	0.2298	0.546
Mof_C 	C 	0.08414	0.1259	0.2194	-0.103
Mof_N 	N 	0.08382	0.1088	0.18951	-0.063
Mof_O 	O 	0.03671	0.15773	0.2092	-0.789
Mof_O 	O 	0.06869	0.16882	0.25719	-0.75
Mof_C 	C 	0.0601	0.65453	0.7298	0.546
Mof_C 	C 	0.08414	0.6259	0.7194	-0.103
Mof_N 	N 	0.08382	0.6088	0.68951	-0.062
Mof_O 	O 	0.03671	0.65773	0.7092	-0.789
Mof_O 	O 	0.06869	0.66882	0.75719	-0.75
Mof_C 	C 	0.5601	0.15453	0.7298	0.547
Mof_C 	C 	0.58414	0.1259	0.7194	-0.103
Mof_N 	N 	0.58382	0.1088	0.68951	-0.062
Mof_O 	O 	0.53671	0.15773	0.7092	-0.792
Mof_O 	O 	0.56869	0.16882	0.75719	-0.75
Mof_C 	C 	0.5601	0.65453	0.2298	0.548
Mof_C 	C 	0.58414	0.6259	0.2194	-0.102
Mof_N 	N 	0.58382	0.6088	0.18951	-0.062
Mof_O 	O 	0.53671	0.65773	0.2092	-0.791
Mof_O 	O 	0.56869	0.66882	0.25719	-0.75
Mof_Ce	Ce	0.21648	0.28352	0.04783	2.675
Mof_Ce	Ce	0.21648	0.78352	0.54783	2.679
Mof_Ce	Ce	0.78352	0.71648	0.04783	2.676
Mof_Ce	Ce	0.78352	0.21648	0.54783	2.679
Mof_Ce	Ce	0.28352	0.21648	0.04783	2.675
Mof_Ce	Ce	0.78352	0.28352	0.95217	2.702
Mof_Ce	Ce	0.78352	0.78352	0.45217	2.681
Mof_Ce	Ce	0.28352	0.28352	0.45217	2.68
Mof_Ce	Ce	0.21648	0.71648	0.95217	2.7
Mof_Ce	Ce	0.21648	0.21648	0.45217	2.678
Mof_Ce	Ce	0.04783	0.21648	0.28352	2.675
Mof_Ce	Ce	0.54783	0.21648	0.78352	2.679
Mof_Ce	Ce	0.04783	0.78352	0.71648	2.676
Mof_Ce	Ce	0.04783	0.28352	0.21648	2.675
Mof_Ce	Ce	0.54783	0.78352	0.21648	2.679
Mof_Ce	Ce	0.95217	0.78352	0.28352	2.702
Mof_Ce	Ce	0.45217	0.78352	0.78352	2.681
Mof_Ce	Ce	0.45217	0.28352	0.28352	2.68
Mof_Ce	Ce	0.95217	0.21648	0.71648	2.7
Mof_Ce	Ce	0.45217	0.21648	0.21648	2.678
Mof_Ce	Ce	0.28352	0.04783	0.21648	2.675
Mof_Ce	Ce	0.28352	0.54783	0.71648	2.679
Mof_Ce	Ce	0.71648	0.04783	0.78352	2.676
Mof_Ce	Ce	0.71648	0.54783	0.28352	2.679
Mof_Ce	Ce	0.21648	0.04783	0.28352	2.675
Mof_Ce	Ce	0.28352	0.95217	0.78352	2.702
Mof_Ce	Ce	0.28352	0.45217	0.28352	2.68
Mof_Ce	Ce	0.71648	0.95217	0.21648	2.7
Mof_Ce	Ce	0.71648	0.45217	0.71648	2.679
Mof_Ce	Ce	0.21648	0.45217	0.21648	2.678
Mof_Ce	Ce	0.28352	0.21648	0.95217	2.701
Mof_Ce	Ce	0.28352	0.71648	0.45217	2.679
Mof_Ce	Ce	0.71648	0.78352	0.95217	2.702
Mof_Ce	Ce	0.71648	0.28352	0.45217	2.679
Mof_Ce	Ce	0.21648	0.28352	0.95217	2.701
Mof_Ce	Ce	0.28352	0.78352	0.04783	2.677
Mof_Ce	Ce	0.28352	0.28352	0.54783	2.679
Mof_Ce	Ce	0.71648	0.21648	0.04783	2.675
Mof_Ce	Ce	0.71648	0.71648	0.54783	2.679
Mof_Ce	Ce	0.21648	0.21648	0.54783	2.678
Mof_Ce	Ce	0.21648	0.04783	0.71648	2.675
Mof_Ce	Ce	0.21648	0.54783	0.21648	2.678
Mof_Ce	Ce	0.78352	0.04783	0.28352	2.677
Mof_Ce	Ce	0.78352	0.54783	0.78352	2.681
Mof_Ce	Ce	0.28352	0.54783	0.28352	2.679
Mof_Ce	Ce	0.78352	0.95217	0.71648	2.702
Mof_Ce	Ce	0.78352	0.45217	0.21648	2.679
Mof_Ce	Ce	0.28352	0.95217	0.21648	2.701
Mof_Ce	Ce	0.21648	0.95217	0.28352	2.701
Mof_Ce	Ce	0.21648	0.45217	0.78352	2.679
Mof_Ce	Ce	0.04783	0.28352	0.78352	2.677
Mof_Ce	Ce	0.54783	0.28352	0.28352	2.679
Mof_Ce	Ce	0.04783	0.71648	0.21648	2.675
Mof_Ce	Ce	0.54783	0.71648	0.71648	2.679
Mof_Ce	Ce	0.54783	0.21648	0.21648	2.678
Mof_Ce	Ce	0.95217	0.28352	0.21648	2.701
Mof_Ce	Ce	0.45217	0.28352	0.71648	2.679
Mof_Ce	Ce	0.95217	0.71648	0.78352	2.702
Mof_Ce	Ce	0.95217	0.21648	0.28352	2.701
Mof_Ce	Ce	0.45217	0.71648	0.28352	2.679
Mof_Ce	Ce	0.78352	0.71648	0.95217	2.702
Mof_Ce	Ce	0.78352	0.21648	0.45217	2.679
Mof_Ce	Ce	0.21648	0.78352	0.45217	2.679
Mof_Ce	Ce	0.21648	0.71648	0.04783	2.675
Mof_Ce	Ce	0.78352	0.28352	0.04783	2.677
Mof_Ce	Ce	0.78352	0.78352	0.54783	2.681
Mof_Ce	Ce	0.95217	0.78352	0.71648	2.702
Mof_Ce	Ce	0.45217	0.78352	0.21648	2.679
Mof_Ce	Ce	0.45217	0.21648	0.78352	2.679
Mof_Ce	Ce	0.04783	0.21648	0.71648	2.675
Mof_Ce	Ce	0.04783	0.78352	0.28352	2.677
Mof_Ce	Ce	0.54783	0.78352	0.78352	2.681
Mof_Ce	Ce	0.71648	0.95217	0.78352	2.702
Mof_Ce	Ce	0.71648	0.45217	0.28352	2.679
Mof_Ce	Ce	0.28352	0.45217	0.71648	2.679
Mof_Ce	Ce	0.71648	0.04783	0.21648	2.675
Mof_Ce	Ce	0.71648	0.54783	0.71648	2.679
Mof_Ce	Ce	0.28352	0.04783	0.78352	2.677
Mof_Ce	Ce	0.71648	0.78352	0.04783	2.676
Mof_Ce	Ce	0.71648	0.28352	0.54783	2.679
Mof_Ce	Ce	0.28352	0.71648	0.54783	2.679
Mof_Ce	Ce	0.71648	0.21648	0.95217	2.7
Mof_Ce	Ce	0.71648	0.71648	0.45217	2.679
Mof_Ce	Ce	0.28352	0.78352	0.95217	2.702
Mof_Ce	Ce	0.78352	0.95217	0.28352	2.702
Mof_Ce	Ce	0.78352	0.45217	0.78352	2.681
Mof_Ce	Ce	0.21648	0.95217	0.71648	2.7
Mof_Ce	Ce	0.21648	0.54783	0.78352	2.679
Mof_Ce	Ce	0.78352	0.04783	0.71648	2.676
Mof_Ce	Ce	0.78352	0.54783	0.21648	2.679
Mof_Ce	Ce	0.95217	0.71648	0.21648	2.7
Mof_Ce	Ce	0.45217	0.71648	0.71648	2.679
Mof_Ce	Ce	0.95217	0.28352	0.78352	2.702
Mof_Ce	Ce	0.04783	0.71648	0.78352	2.676
Mof_Ce	Ce	0.54783	0.71648	0.28352	2.679
Mof_Ce	Ce	0.54783	0.28352	0.71648	2.679
Mof_Ce	Ce	0.20151	0.20151	-0	3.984
Mof_Ce	Ce	0.20151	0.70151	0.5	4.02
Mof_Ce	Ce	0.70151	0.20151	0.5	4.02
Mof_Ce	Ce	0.70151	0.70151	-0	3.985
Mof_Ce	Ce	0.79849	0.79849	-0	3.986
Mof_Ce	Ce	0.79849	0.29849	0.5	4.021
Mof_Ce	Ce	0.29849	0.79849	0.5	4.021
Mof_Ce	Ce	0.29849	0.29849	-0	3.985
Mof_Ce	Ce	0.79849	0.20151	-0	3.985
Mof_Ce	Ce	0.79849	0.70151	0.5	4.021
Mof_Ce	Ce	0.29849	0.20151	0.5	4.02
Mof_Ce	Ce	0.29849	0.70151	-0	3.985
Mof_Ce	Ce	0.20151	0.79849	-0	3.985
Mof_Ce	Ce	0.20151	0.29849	0.5	4.02
Mof_Ce	Ce	0.70151	0.79849	0.5	4.021
Mof_Ce	Ce	0.70151	0.29849	-0	3.985
Mof_Ce	Ce	7.55541e-34	0.20151	0.20151	3.984
Mof_Ce	Ce	2.63024e-33	0.70151	0.70151	3.985
Mof_Ce	Ce	0.5	0.20151	0.70151	4.02
Mof_Ce	Ce	0.5	0.70151	0.20151	4.02
Mof_Ce	Ce	-3.35533e-33	0.79849	0.79849	3.986
Mof_Ce	Ce	-5.23003e-33	0.29849	0.29849	3.985
Mof_Ce	Ce	0.5	0.79849	0.29849	4.021
Mof_Ce	Ce	0.5	0.29849	0.79849	4.021
Mof_Ce	Ce	-2.41905e-33	0.79849	0.20151	3.985
Mof_Ce	Ce	2.63024e-33	0.29849	0.70151	3.985
Mof_Ce	Ce	0.5	0.79849	0.70151	4.021
Mof_Ce	Ce	0.5	0.29849	0.20151	4.02
Mof_Ce	Ce	-3.35533e-33	0.20151	0.79849	3.985
Mof_Ce	Ce	4.29375e-33	0.70151	0.29849	3.985
Mof_Ce	Ce	0.5	0.20151	0.29849	4.02
Mof_Ce	Ce	0.5	0.70151	0.79849	4.021
Mof_Ce	Ce	0.20151	0	0.20151	3.984
Mof_Ce	Ce	0.20151	0.5	0.70151	4.02
Mof_Ce	Ce	0.70151	0	0.70151	3.985
Mof_Ce	Ce	0.70151	0.5	0.20151	4.02
Mof_Ce	Ce	0.79849	0	0.79849	3.986
Mof_Ce	Ce	0.79849	0.5	0.29849	4.021
Mof_Ce	Ce	0.29849	-3.1746e-33	0.29849	3.985
Mof_Ce	Ce	0.29849	0.5	0.79849	4.021
Mof_Ce	Ce	0.20151	0	0.79849	3.985
Mof_Ce	Ce	0.20151	0.5	0.29849	4.02
Mof_Ce	Ce	0.70151	-3.1746e-33	0.29849	3.985
Mof_Ce	Ce	0.70151	0.5	0.79849	4.021
Mof_Ce	Ce	0.79849	0	0.20151	3.985
Mof_Ce	Ce	0.79849	0.5	0.70151	4.021
Mof_Ce	Ce	0.29849	0	0.70151	3.985
Mof_Ce	Ce	0.29849	0.5	0.20151	4.02
Mof_O 	O 	0.2265	0.2265	0.0486	-1.114
Mof_O 	O 	0.2265	0.7265	0.5486	-1.118
Mof_O 	O 	0.7265	0.2265	0.5486	-1.118
Mof_O 	O 	0.7265	0.7265	0.0486	-1.115
Mof_O 	O 	0.7735	0.7735	0.0486	-1.115
Mof_O 	O 	0.7735	0.2735	0.5486	-1.118
Mof_O 	O 	0.2735	0.7735	0.5486	-1.118
Mof_O 	O 	0.2735	0.2735	0.0486	-1.114
Mof_O 	O 	0.7735	0.2265	0.9514	-1.117
Mof_O 	O 	0.7735	0.7265	0.4514	-1.119
Mof_O 	O 	0.2735	0.2265	0.4514	-1.118
Mof_O 	O 	0.2735	0.7265	0.9514	-1.117
Mof_O 	O 	0.2265	0.7735	0.9514	-1.117
Mof_O 	O 	0.2265	0.2735	0.4514	-1.118
Mof_O 	O 	0.7265	0.7735	0.4514	-1.119
Mof_O 	O 	0.7265	0.2735	0.9514	-1.117
Mof_O 	O 	0.0486	0.2265	0.2265	-1.114
Mof_O 	O 	0.0486	0.7265	0.7265	-1.115
Mof_O 	O 	0.5486	0.2265	0.7265	-1.118
Mof_O 	O 	0.5486	0.7265	0.2265	-1.118
Mof_O 	O 	0.0486	0.7735	0.7735	-1.115
Mof_O 	O 	0.0486	0.2735	0.2735	-1.114
Mof_O 	O 	0.5486	0.7735	0.2735	-1.118
Mof_O 	O 	0.5486	0.2735	0.7735	-1.118
Mof_O 	O 	0.9514	0.7735	0.2265	-1.117
Mof_O 	O 	0.9514	0.2735	0.7265	-1.117
Mof_O 	O 	0.4514	0.7735	0.7265	-1.119
Mof_O 	O 	0.4514	0.2735	0.2265	-1.118
Mof_O 	O 	0.9514	0.2265	0.7735	-1.117
Mof_O 	O 	0.9514	0.7265	0.2735	-1.117
Mof_O 	O 	0.4514	0.2265	0.2735	-1.118
Mof_O 	O 	0.4514	0.7265	0.7735	-1.119
Mof_O 	O 	0.2265	0.0486	0.2265	-1.114
Mof_O 	O 	0.2265	0.5486	0.7265	-1.118
Mof_O 	O 	0.7265	0.0486	0.7265	-1.115
Mof_O 	O 	0.7265	0.5486	0.2265	-1.118
Mof_O 	O 	0.7735	0.0486	0.7735	-1.115
Mof_O 	O 	0.7735	0.5486	0.2735	-1.118
Mof_O 	O 	0.2735	0.0486	0.2735	-1.114
Mof_O 	O 	0.2735	0.5486	0.7735	-1.118
Mof_O 	O 	0.2265	0.9514	0.7735	-1.117
Mof_O 	O 	0.2265	0.4514	0.2735	-1.118
Mof_O 	O 	0.7265	0.9514	0.2735	-1.117
Mof_O 	O 	0.7265	0.4514	0.7735	-1.119
Mof_O 	O 	0.7735	0.9514	0.2265	-1.117
Mof_O 	O 	0.7735	0.4514	0.7265	-1.119
Mof_O 	O 	0.2735	0.9514	0.7265	-1.117
Mof_O 	O 	0.2735	0.4514	0.2265	-1.118
Mof_O 	O 	0.2265	0.2265	0.9514	-1.116
Mof_O 	O 	0.2265	0.7265	0.4514	-1.118
Mof_O 	O 	0.7265	0.2265	0.4514	-1.118
Mof_O 	O 	0.7265	0.7265	0.9514	-1.117
Mof_O 	O 	0.7735	0.7735	0.9514	-1.117
Mof_O 	O 	0.7735	0.2735	0.4514	-1.118
Mof_O 	O 	0.2735	0.7735	0.4514	-1.118
Mof_O 	O 	0.2735	0.2735	0.9514	-1.116
Mof_O 	O 	0.2265	0.7735	0.0486	-1.114
Mof_O 	O 	0.2265	0.2735	0.5486	-1.118
Mof_O 	O 	0.7265	0.7735	0.5486	-1.119
Mof_O 	O 	0.7265	0.2735	0.0486	-1.114
Mof_O 	O 	0.7735	0.2265	0.0486	-1.114
Mof_O 	O 	0.7735	0.7265	0.5486	-1.119
Mof_O 	O 	0.2735	0.2265	0.5486	-1.118
Mof_O 	O 	0.2735	0.7265	0.0486	-1.114
Mof_O 	O 	0.2265	0.0486	0.7735	-1.114
Mof_O 	O 	0.2265	0.5486	0.2735	-1.118
Mof_O 	O 	0.7265	0.0486	0.2735	-1.114
Mof_O 	O 	0.7265	0.5486	0.7735	-1.119
Mof_O 	O 	0.7735	0.0486	0.2265	-1.114
Mof_O 	O 	0.7735	0.5486	0.7265	-1.119
Mof_O 	O 	0.2735	0.0486	0.7265	-1.114
Mof_O 	O 	0.2735	0.5486	0.2265	-1.118
Mof_O 	O 	0.7735	0.9514	0.7735	-1.117
Mof_O 	O 	0.7735	0.4514	0.2735	-1.118
Mof_O 	O 	0.2735	0.9514	0.2735	-1.116
Mof_O 	O 	0.2735	0.4514	0.7735	-1.118
Mof_O 	O 	0.2265	0.9514	0.2265	-1.116
Mof_O 	O 	0.2265	0.4514	0.7265	-1.118
Mof_O 	O 	0.7265	0.9514	0.7265	-1.117
Mof_O 	O 	0.7265	0.4514	0.2265	-1.118
Mof_O 	O 	0.0486	0.2265	0.7735	-1.114
Mof_O 	O 	0.0486	0.7265	0.2735	-1.114
Mof_O 	O 	0.5486	0.2265	0.2735	-1.118
Mof_O 	O 	0.5486	0.7265	0.7735	-1.119
Mof_O 	O 	0.0486	0.7735	0.2265	-1.114
Mof_O 	O 	0.0486	0.2735	0.7265	-1.114
Mof_O 	O 	0.5486	0.7735	0.7265	-1.119
Mof_O 	O 	0.5486	0.2735	0.2265	-1.118
Mof_O 	O 	0.9514	0.2265	0.2265	-1.116
Mof_O 	O 	0.9514	0.7265	0.7265	-1.117
Mof_O 	O 	0.4514	0.2265	0.7265	-1.118
Mof_O 	O 	0.4514	0.7265	0.2265	-1.118
Mof_O 	O 	0.9514	0.7735	0.7735	-1.117
Mof_O 	O 	0.9514	0.2735	0.2735	-1.116
Mof_O 	O 	0.4514	0.7735	0.2735	-1.118
Mof_O 	O 	0.4514	0.2735	0.7735	-1.118
Mof_O 	O 	0.2419	0.302	-0	-1.256
Mof_O 	O 	0.2419	0.802	0.5	-1.253
Mof_O 	O 	0.7419	0.302	0.5	-1.253
Mof_O 	O 	0.7419	0.802	-0	-1.256
Mof_O 	O 	0.7581	0.698	-0	-1.256
Mof_O 	O 	0.7581	0.198	0.5	-1.253
Mof_O 	O 	0.2581	0.698	0.5	-1.253
Mof_O 	O 	0.2581	0.198	-0	-1.256
Mof_O 	O 	0.7581	0.302	-0	-1.256
Mof_O 	O 	0.7581	0.802	0.5	-1.253
Mof_O 	O 	0.2581	0.302	0.5	-1.253
Mof_O 	O 	0.2581	0.802	-0	-1.256
Mof_O 	O 	0.2419	0.698	-0	-1.256
Mof_O 	O 	0.2419	0.198	0.5	-1.253
Mof_O 	O 	0.7419	0.698	0.5	-1.253
Mof_O 	O 	0.7419	0.198	-0	-1.256
Mof_O 	O 	-2.04228e-33	0.2419	0.302	-1.256
Mof_O 	O 	-3.34217e-33	0.7419	0.802	-1.256
Mof_O 	O 	0.5	0.2419	0.802	-1.253
Mof_O 	O 	0.5	0.7419	0.302	-1.253
Mof_O 	O 	-3.73211e-33	0.7581	0.698	-1.256
Mof_O 	O 	7.42381e-34	0.2581	0.198	-1.256
Mof_O 	O 	0.5	0.7581	0.198	-1.253
Mof_O 	O 	0.5	0.2581	0.698	-1.253
Mof_O 	O 	-8.39147e-33	0.7581	0.302	-1.256
Mof_O 	O 	-3.34217e-33	0.2581	0.802	-1.256
Mof_O 	O 	0.5	0.7581	0.802	-1.253
Mof_O 	O 	0.5	0.2581	0.302	-1.253
Mof_O 	O 	2.61708e-33	0.2419	0.698	-1.256
Mof_O 	O 	7.09157e-33	0.7419	0.198	-1.256
Mof_O 	O 	0.5	0.2419	0.198	-1.253
Mof_O 	O 	0.5	0.7419	0.698	-1.253
Mof_O 	O 	0.302	0	0.2419	-1.256
Mof_O 	O 	0.302	0.5	0.7419	-1.253
Mof_O 	O 	0.802	0	0.7419	-1.256
Mof_O 	O 	0.802	0.5	0.2419	-1.253
Mof_O 	O 	0.698	-6.34919e-33	0.7581	-1.256
Mof_O 	O 	0.698	0.5	0.2581	-1.253
Mof_O 	O 	0.198	0	0.2581	-1.256
Mof_O 	O 	0.198	0.5	0.7581	-1.253
Mof_O 	O 	0.302	-6.34919e-33	0.7581	-1.256
Mof_O 	O 	0.302	0.5	0.2581	-1.253
Mof_O 	O 	0.802	0	0.2581	-1.256
Mof_O 	O 	0.802	0.5	0.7581	-1.253
Mof_O 	O 	0.698	0	0.2419	-1.256
Mof_O 	O 	0.698	0.5	0.7419	-1.253
Mof_O 	O 	0.198	0	0.7419	-1.256
Mof_O 	O 	0.198	0.5	0.2419	-1.253
Mof_O 	O 	0.302	0.2419	-0	-1.256
Mof_O 	O 	0.302	0.7419	0.5	-1.253
Mof_O 	O 	0.802	0.2419	0.5	-1.253
Mof_O 	O 	0.802	0.7419	-0	-1.256
Mof_O 	O 	0.698	0.7581	-0	-1.256
Mof_O 	O 	0.698	0.2581	0.5	-1.253
Mof_O 	O 	0.198	0.7581	0.5	-1.253
Mof_O 	O 	0.198	0.2581	-0	-1.256
Mof_O 	O 	0.302	0.7581	-0	-1.256
Mof_O 	O 	0.302	0.2581	0.5	-1.253
Mof_O 	O 	0.802	0.7581	0.5	-1.253
Mof_O 	O 	0.802	0.2581	-0	-1.256
Mof_O 	O 	0.698	0.2419	-0	-1.256
Mof_O 	O 	0.698	0.7419	0.5	-1.253
Mof_O 	O 	0.198	0.2419	0.5	-1.253
Mof_O 	O 	0.198	0.7419	-0	-1.256
Mof_O 	O 	0.2419	0	0.698	-1.256
Mof_O 	O 	0.2419	0.5	0.198	-1.253
Mof_O 	O 	0.7419	1.5873e-33	0.198	-1.256
Mof_O 	O 	0.7419	0.5	0.698	-1.253
Mof_O 	O 	0.7581	0	0.302	-1.256
Mof_O 	O 	0.7581	0.5	0.802	-1.253
Mof_O 	O 	0.2581	6.34919e-33	0.802	-1.256
Mof_O 	O 	0.2581	0.5	0.302	-1.253
Mof_O 	O 	0.7581	0	0.698	-1.256
Mof_O 	O 	0.7581	0.5	0.198	-1.253
Mof_O 	O 	0.2581	1.5873e-33	0.198	-1.256
Mof_O 	O 	0.2581	0.5	0.698	-1.253
Mof_O 	O 	0.2419	0	0.302	-1.256
Mof_O 	O 	0.2419	0.5	0.802	-1.253
Mof_O 	O 	0.7419	6.34919e-33	0.802	-1.256
Mof_O 	O 	0.7419	0.5	0.302	-1.253
Mof_O 	O 	-9.85596e-33	0.302	0.7581	-1.256
Mof_O 	O 	-5.38147e-33	0.802	0.2581	-1.256
Mof_O 	O 	0.5	0.302	0.2581	-1.253
Mof_O 	O 	0.5	0.802	0.7581	-1.253
Mof_O 	O 	7.25617e-33	0.698	0.2419	-1.256
Mof_O 	O 	9.13087e-33	0.198	0.7419	-1.256
Mof_O 	O 	0.5	0.698	0.7419	-1.253
Mof_O 	O 	0.5	0.198	0.2419	-1.253
Mof_O 	O 	-2.26762e-33	0.302	0.2419	-1.256
Mof_O 	O 	2.78168e-33	0.802	0.7419	-1.256
Mof_O 	O 	0.5	0.302	0.7419	-1.253
Mof_O 	O 	0.5	0.802	0.2419	-1.253
Mof_O 	O 	-9.85596e-33	0.698	0.7581	-1.256
Mof_O 	O 	9.6772e-34	0.198	0.2581	-1.256
Mof_O 	O 	0.5	0.698	0.2581	-1.253
Mof_O 	O 	0.5	0.198	0.7581	-1.253
Mof_C 	C 	0.2369	0.1091	0.1091	-0.004
Mof_C 	C 	0.2369	0.6091	0.6091	-0.002
Mof_C 	C 	0.7369	0.1091	0.6091	-0.003
Mof_C 	C 	0.7369	0.6091	0.1091	-0.003
Mof_C 	C 	0.7631	0.8909	0.1091	-0.003
Mof_C 	C 	0.7631	0.3909	0.6091	-0.002
Mof_C 	C 	0.2631	0.8909	0.6091	-0.002
Mof_C 	C 	0.2631	0.3909	0.1091	-0.003
Mof_C 	C 	0.7631	0.1091	0.8909	-0.003
Mof_C 	C 	0.7631	0.6091	0.3909	-0.002
Mof_C 	C 	0.2631	0.1091	0.3909	-0.003
Mof_C 	C 	0.2631	0.6091	0.8909	-0.002
Mof_C 	C 	0.2369	0.8909	0.8909	-0.001
Mof_C 	C 	0.2369	0.3909	0.3909	-0.002
Mof_C 	C 	0.7369	0.8909	0.3909	-0.002
Mof_C 	C 	0.7369	0.3909	0.8909	-0.002
Mof_C 	C 	0.1091	0.2369	0.1091	-0.004
Mof_C 	C 	0.1091	0.7369	0.6091	-0.003
Mof_C 	C 	0.6091	0.2369	0.6091	-0.002
Mof_C 	C 	0.6091	0.7369	0.1091	-0.003
Mof_C 	C 	0.1091	0.7631	0.8909	-0.003
Mof_C 	C 	0.1091	0.2631	0.3909	-0.003
Mof_C 	C 	0.6091	0.7631	0.3909	-0.002
Mof_C 	C 	0.6091	0.2631	0.8909	-0.002
Mof_C 	C 	0.8909	0.7631	0.1091	-0.003
Mof_C 	C 	0.8909	0.2631	0.6091	-0.002
Mof_C 	C 	0.3909	0.7631	0.6091	-0.002
Mof_C 	C 	0.3909	0.2631	0.1091	-0.003
Mof_C 	C 	0.8909	0.2369	0.8909	-0.001
Mof_C 	C 	0.8909	0.7369	0.3909	-0.002
Mof_C 	C 	0.3909	0.2369	0.3909	-0.002
Mof_C 	C 	0.3909	0.7369	0.8909	-0.002
Mof_C 	C 	0.1091	0.1091	0.2369	-0.004
Mof_C 	C 	0.1091	0.6091	0.7369	-0.003
Mof_C 	C 	0.6091	0.1091	0.7369	-0.003
Mof_C 	C 	0.6091	0.6091	0.2369	-0.002
Mof_C 	C 	0.8909	0.1091	0.7631	-0.003
Mof_C 	C 	0.8909	0.6091	0.2631	-0.002
Mof_C 	C 	0.3909	0.1091	0.2631	-0.003
Mof_C 	C 	0.3909	0.6091	0.7631	-0.002
Mof_C 	C 	0.1091	0.8909	0.7631	-0.003
Mof_C 	C 	0.1091	0.3909	0.2631	-0.003
Mof_C 	C 	0.6091	0.8909	0.2631	-0.002
Mof_C 	C 	0.6091	0.3909	0.7631	-0.002
Mof_C 	C 	0.8909	0.8909	0.2369	-0.001
Mof_C 	C 	0.8909	0.3909	0.7369	-0.002
Mof_C 	C 	0.3909	0.8909	0.7369	-0.002
Mof_C 	C 	0.3909	0.3909	0.2369	-0.002
Mof_C 	C 	0.1091	0.2369	0.8909	-0.003
Mof_C 	C 	0.1091	0.7369	0.3909	-0.003
Mof_C 	C 	0.6091	0.2369	0.3909	-0.002
Mof_C 	C 	0.6091	0.7369	0.8909	-0.002
Mof_C 	C 	0.8909	0.7631	0.8909	-0.002
Mof_C 	C 	0.8909	0.2631	0.3909	-0.002
Mof_C 	C 	0.3909	0.7631	0.3909	-0.002
Mof_C 	C 	0.3909	0.2631	0.8909	-0.002
Mof_C 	C 	0.1091	0.7631	0.1091	-0.004
Mof_C 	C 	0.1091	0.2631	0.6091	-0.003
Mof_C 	C 	0.6091	0.7631	0.6091	-0.003
Mof_C 	C 	0.6091	0.2631	0.1091	-0.003
Mof_C 	C 	0.8909	0.2369	0.1091	-0.003
Mof_C 	C 	0.8909	0.7369	0.6091	-0.002
Mof_C 	C 	0.3909	0.2369	0.6091	-0.002
Mof_C 	C 	0.3909	0.7369	0.1091	-0.003
Mof_C 	C 	0.2369	0.1091	0.8909	-0.003
Mof_C 	C 	0.2369	0.6091	0.3909	-0.002
Mof_C 	C 	0.7369	0.1091	0.3909	-0.003
Mof_C 	C 	0.7369	0.6091	0.8909	-0.002
Mof_C 	C 	0.7631	0.1091	0.1091	-0.004
Mof_C 	C 	0.7631	0.6091	0.6091	-0.003
Mof_C 	C 	0.2631	0.1091	0.6091	-0.003
Mof_C 	C 	0.2631	0.6091	0.1091	-0.003
Mof_C 	C 	0.7631	0.8909	0.8909	-0.002
Mof_C 	C 	0.7631	0.3909	0.3909	-0.002
Mof_C 	C 	0.2631	0.8909	0.3909	-0.002
Mof_C 	C 	0.2631	0.3909	0.8909	-0.002
Mof_C 	C 	0.2369	0.8909	0.1091	-0.003
Mof_C 	C 	0.2369	0.3909	0.6091	-0.002
Mof_C 	C 	0.7369	0.8909	0.6091	-0.002
Mof_C 	C 	0.7369	0.3909	0.1091	-0.003
Mof_C 	C 	0.1091	0.1091	0.7631	-0.004
Mof_C 	C 	0.1091	0.6091	0.2631	-0.003
Mof_C 	C 	0.6091	0.1091	0.2631	-0.003
Mof_C 	C 	0.6091	0.6091	0.7631	-0.003
Mof_C 	C 	0.1091	0.8909	0.2369	-0.003
Mof_C 	C 	0.1091	0.3909	0.7369	-0.003
Mof_C 	C 	0.6091	0.8909	0.7369	-0.002
Mof_C 	C 	0.6091	0.3909	0.2369	-0.002
Mof_C 	C 	0.8909	0.1091	0.2369	-0.003
Mof_C 	C 	0.8909	0.6091	0.7369	-0.002
Mof_C 	C 	0.3909	0.1091	0.7369	-0.003
Mof_C 	C 	0.3909	0.6091	0.2369	-0.002
Mof_C 	C 	0.8909	0.8909	0.7631	-0.002
Mof_C 	C 	0.8909	0.3909	0.2631	-0.002
Mof_C 	C 	0.3909	0.8909	0.2631	-0.002
Mof_C 	C 	0.3909	0.3909	0.7631	-0.002
_end
