data_functionalizedCrystal
_audit_creation_method	'EQeq! by Chris Wilmer'
_symmetry_space_group_name_H-M	'P1'
_symmetry_Int_Tables_number	1
_symmetry_cell_setting	triclinic
loop_
_symmetry_equiv_pos_as_xyz
  x,y,z
_cell_length_a	38.059
_cell_length_b	14.2182
_cell_length_c	34.848
_cell_angle_alpha	90
_cell_angle_beta	110.753
_cell_angle_gamma	90
loop_
_atom_site_label
_atom_site_type_symbol
_atom_site_fract_x
_atom_site_fract_y
_atom_site_fract_z
_atom_site_charge
Mof_Zn	Zn	0.12834	0.3768	0.07065	1.156
Mof_Zn	Zn	0.89936	0.08698	0.92215	1.157
Mof_Zn	Zn	0.16638	0.15363	0.27101	1.162
Mof_I 	I 	0.18748	0.3074	0.0608	-0.252
Mof_I 	I 	0.07794	0.2818	0.07721	-0.065
Mof_I 	I 	0.22507	0.25642	0.29606	-0.381
Mof_I 	I 	0.12154	0.17351	0.19813	-0.39
Mof_I 	I 	0.89482	0.0662	0.99422	-0.363
Mof_I 	I 	0.90829	0.24446	0.89128	-0.177
Mof_N 	N 	0.10768	0.4835	0.0282	-0.28
Mof_C 	C 	0.08044	0.5407	0.0286	0.08
Mof_H 	H 	0.0695	0.5308	0.0489	-0.015
Mof_C 	C 	0.06713	0.6128	0.0017	-0.132
Mof_H 	H 	0.0475	0.652	0.0034	0.08
Mof_C 	C 	0.08248	0.6282	0.97173	0.055
Mof_C 	C 	0.10972	0.5668	0.9703	-0.119
Mof_H 	H 	0.12	0.5728	0.9492	0.081
Mof_C 	C 	0.12225	0.4962	0.9992	0.063
Mof_H 	H 	0.1418	0.4556	0.9982	-0.014
Mof_C 	C 	0.07056	0.7068	0.94255	0.106
Mof_N 	N 	0.04147	0.7589	0.94272	-0.137
Mof_C 	C 	0.03155	0.8276	0.91502	0.114
Mof_N 	N 	0.04753	0.8446	0.88737	-0.137
Mof_C 	C 	0.07686	0.7898	0.89104	0.109
Mof_N 	N 	0.0898	0.7207	0.91798	-0.14
Mof_C 	C 	0.0007	0.89	0.91595	0.06
Mof_C 	C 	0.99285	0.8978	0.95149	-0.106
Mof_H 	H 	0.0073	0.8641	0.9754	0.069
Mof_C 	C 	0.96396	0.9547	0.9521	0.062
Mof_H 	H 	0.9592	0.9606	0.977	-0.014
Mof_N 	N 	0.94226	0.0025	0.91902	-0.277
Mof_C 	C 	0.94937	0.9942	0.8848	0.084
Mof_H 	H 	0.9339	0.0272	0.8611	-0.017
Mof_C 	C 	0.97827	0.94	0.8818	-0.116
Mof_H 	H 	0.9828	0.9368	0.8568	0.084
Mof_C 	C 	0.09757	0.8059	0.86279	0.056
Mof_C 	C 	0.13482	0.7798	0.8745	-0.117
Mof_H 	H 	0.1474	0.753	0.9008	0.081
Mof_C 	C 	0.15364	0.7933	0.8476	0.066
Mof_H 	H 	0.1793	0.7752	0.8558	-0.013
Mof_N 	N 	0.13704	0.8307	0.81042	-0.276
Mof_C 	C 	0.10105	0.8556	0.7993	0.074
Mof_H 	H 	0.089	0.8814	0.7726	-0.017
Mof_C 	C 	0.08086	0.8459	0.8243	-0.124
Mof_H 	H 	0.0555	0.8664	0.8156	0.081
Mof_N 	N 	0.15196	0.4507	0.1249	-0.279
Mof_C 	C 	0.16593	0.402	0.15998	0.071
Mof_H 	H 	0.1633	0.3355	0.1593	-0.019
Mof_C 	C 	0.18393	0.4455	0.19673	-0.129
Mof_H 	H 	0.1942	0.4095	0.2211	0.084
Mof_C 	C 	0.18697	0.5429	0.19793	0.066
Mof_C 	C 	0.1711	0.5923	0.1618	-0.139
Mof_H 	H 	0.1716	0.6591	0.1616	0.094
Mof_C 	C 	0.1549	0.5433	0.1268	0.094
Mof_H 	H 	0.145	0.5776	0.1019	-0.019
Mof_C 	C 	0.20742	0.5951	0.23631	0.1
Mof_N 	N 	0.23667	0.553	0.26336	-0.139
Mof_C 	C 	0.25593	0.6076	0.29552	0.09
Mof_N 	N 	0.24774	0.6963	0.30131	-0.138
Mof_C 	C 	0.21657	0.729	0.27259	0.104
Mof_N 	N 	0.19519	0.6818	0.23952	-0.135
Mof_C 	C 	0.20426	0.8263	0.27676	0.055
Mof_C 	C 	0.22658	0.8904	0.30459	-0.117
Mof_H 	H 	0.25	0.8709	0.3241	0.079
Mof_C 	C 	0.21516	0.982	0.30428	0.071
Mof_H 	H 	0.2313	0.0253	0.3232	-0.012
Mof_N 	N 	0.18192	0.0125	0.27813	-0.271
Mof_C 	C 	0.15903	0.9492	0.2529	0.065
Mof_H 	H 	0.1348	0.9689	0.2355	-0.016
Mof_C 	C 	0.16916	0.8572	0.2514	-0.12
Mof_H 	H 	0.1522	0.8146	0.2329	0.083
Mof_C 	C 	0.28899	0.5628	0.32582	0.056
Mof_C 	C 	0.31215	0.6106	0.3606	-0.125
Mof_H 	H 	0.3066	0.6734	0.3658	0.077
Mof_C 	C 	0.34303	0.5649	0.3872	0.079
Mof_H 	H 	0.3585	0.5974	0.411	-0.025
Mof_N 	N 	0.35237	0.4767	0.38099	-0.279
Mof_C 	C 	0.32975	0.4316	0.3483	0.083
Mof_H 	H 	0.3356	0.3684	0.3441	-0.017
Mof_C 	C 	0.29864	0.471	0.3204	-0.134
Mof_H 	H 	0.2836	0.4359	0.2972	0.097
Mof_I 	I 	0.1761	0.2876	0.0531	-0.099
Mof_I 	I 	0.068	0.3017	0.0765	-0.277
Mof_I 	I 	0.8966	0.0835	0.9858	-0.002
Mof_I 	I 	0.905	0.2376	0.8856	-0.168
Mof_Zn	Zn	0.62834	0.8768	0.07065	1.157
Mof_Zn	Zn	0.39936	0.58698	0.92215	1.158
Mof_Zn	Zn	0.66638	0.65363	0.27101	1.163
Mof_I 	I 	0.68748	0.8074	0.0608	-0.251
Mof_I 	I 	0.57794	0.7818	0.07721	-0.065
Mof_I 	I 	0.72507	0.75642	0.29606	-0.38
Mof_I 	I 	0.62154	0.67351	0.19813	-0.389
Mof_I 	I 	0.39482	0.5662	0.99422	-0.362
Mof_I 	I 	0.40829	0.74446	0.89128	-0.176
Mof_N 	N 	0.60768	0.9835	0.0282	-0.279
Mof_C 	C 	0.58044	0.0407	0.0286	0.081
Mof_H 	H 	0.5695	0.0308	0.0489	-0.014
Mof_C 	C 	0.56713	0.1128	0.0017	-0.131
Mof_H 	H 	0.5475	0.152	0.0034	0.081
Mof_C 	C 	0.58248	0.1282	0.97173	0.055
Mof_C 	C 	0.60972	0.0668	0.9703	-0.119
Mof_H 	H 	0.62	0.0728	0.9492	0.081
Mof_C 	C 	0.62225	0.9962	0.9992	0.063
Mof_H 	H 	0.6418	0.9556	0.9982	-0.014
Mof_C 	C 	0.57056	0.2068	0.94255	0.106
Mof_N 	N 	0.54147	0.2589	0.94272	-0.137
Mof_C 	C 	0.53155	0.3276	0.91502	0.113
Mof_N 	N 	0.54753	0.3446	0.88737	-0.137
Mof_C 	C 	0.57686	0.2898	0.89104	0.109
Mof_N 	N 	0.5898	0.2207	0.91798	-0.14
Mof_C 	C 	0.5007	0.39	0.91595	0.06
Mof_C 	C 	0.49285	0.3978	0.95149	-0.107
Mof_H 	H 	0.5073	0.3641	0.9754	0.069
Mof_C 	C 	0.46396	0.4547	0.9521	0.062
Mof_H 	H 	0.4592	0.4606	0.977	-0.014
Mof_N 	N 	0.44226	0.5025	0.91902	-0.277
Mof_C 	C 	0.44937	0.4942	0.8848	0.084
Mof_H 	H 	0.4339	0.5272	0.8611	-0.017
Mof_C 	C 	0.47827	0.44	0.8818	-0.117
Mof_H 	H 	0.4828	0.4368	0.8568	0.084
Mof_C 	C 	0.59757	0.3059	0.86279	0.056
Mof_C 	C 	0.63482	0.2798	0.8745	-0.117
Mof_H 	H 	0.6474	0.253	0.9008	0.081
Mof_C 	C 	0.65364	0.2933	0.8476	0.066
Mof_H 	H 	0.6793	0.2752	0.8558	-0.013
Mof_N 	N 	0.63704	0.3307	0.81042	-0.276
Mof_C 	C 	0.60105	0.3556	0.7993	0.075
Mof_H 	H 	0.589	0.3814	0.7726	-0.017
Mof_C 	C 	0.58086	0.3459	0.8243	-0.124
Mof_H 	H 	0.5555	0.3664	0.8156	0.081
Mof_N 	N 	0.65196	0.9507	0.1249	-0.279
Mof_C 	C 	0.66593	0.902	0.15998	0.071
Mof_H 	H 	0.6633	0.8355	0.1593	-0.019
Mof_C 	C 	0.68393	0.9455	0.19673	-0.129
Mof_H 	H 	0.6942	0.9095	0.2211	0.084
Mof_C 	C 	0.68697	0.0429	0.19793	0.066
Mof_C 	C 	0.6711	0.0923	0.1618	-0.139
Mof_H 	H 	0.6716	0.1591	0.1616	0.093
Mof_C 	C 	0.6549	0.0433	0.1268	0.094
Mof_H 	H 	0.645	0.0776	0.1019	-0.019
Mof_C 	C 	0.70742	0.0951	0.23631	0.1
Mof_N 	N 	0.73667	0.053	0.26336	-0.139
Mof_C 	C 	0.75593	0.1076	0.29552	0.09
Mof_N 	N 	0.74774	0.1963	0.30131	-0.138
Mof_C 	C 	0.71657	0.229	0.27259	0.104
Mof_N 	N 	0.69519	0.1818	0.23952	-0.135
Mof_C 	C 	0.70426	0.3263	0.27676	0.055
Mof_C 	C 	0.72658	0.3904	0.30459	-0.117
Mof_H 	H 	0.75	0.3709	0.3241	0.079
Mof_C 	C 	0.71516	0.482	0.30428	0.071
Mof_H 	H 	0.7313	0.5253	0.3232	-0.012
Mof_N 	N 	0.68192	0.5125	0.27813	-0.271
Mof_C 	C 	0.65903	0.4492	0.2529	0.065
Mof_H 	H 	0.6348	0.4689	0.2355	-0.016
Mof_C 	C 	0.66916	0.3572	0.2514	-0.12
Mof_H 	H 	0.6522	0.3146	0.2329	0.083
Mof_C 	C 	0.78899	0.0628	0.32582	0.056
Mof_C 	C 	0.81215	0.1106	0.3606	-0.125
Mof_H 	H 	0.8066	0.1734	0.3658	0.077
Mof_C 	C 	0.84303	0.0649	0.3872	0.079
Mof_H 	H 	0.8585	0.0974	0.411	-0.025
Mof_N 	N 	0.85237	0.9767	0.38099	-0.279
Mof_C 	C 	0.82975	0.9316	0.3483	0.083
Mof_H 	H 	0.8356	0.8684	0.3441	-0.017
Mof_C 	C 	0.79864	0.971	0.3204	-0.134
Mof_H 	H 	0.7836	0.9359	0.2972	0.097
Mof_I 	I 	0.6761	0.7876	0.0531	-0.099
Mof_I 	I 	0.568	0.8017	0.0765	-0.276
Mof_I 	I 	0.3966	0.5835	0.9858	-0.002
Mof_I 	I 	0.405	0.7376	0.8856	-0.168
Mof_Zn	Zn	0.12834	0.6232	0.57065	1.157
Mof_Zn	Zn	0.89936	0.91302	0.42215	1.158
Mof_Zn	Zn	0.16638	0.84637	0.77101	1.163
Mof_I 	I 	0.18748	0.6926	0.5608	-0.251
Mof_I 	I 	0.07794	0.7182	0.57721	-0.065
Mof_I 	I 	0.22507	0.74358	0.79606	-0.38
Mof_I 	I 	0.12154	0.82649	0.69813	-0.389
Mof_I 	I 	0.89482	0.9338	0.49422	-0.362
Mof_I 	I 	0.90829	0.75554	0.39128	-0.176
Mof_N 	N 	0.10768	0.5165	0.5282	-0.279
Mof_C 	C 	0.08044	0.4593	0.5286	0.081
Mof_H 	H 	0.0695	0.4692	0.5489	-0.014
Mof_C 	C 	0.06713	0.3872	0.5017	-0.131
Mof_H 	H 	0.0475	0.348	0.5034	0.081
Mof_C 	C 	0.08248	0.3718	0.47173	0.055
Mof_C 	C 	0.10972	0.4332	0.4703	-0.119
Mof_H 	H 	0.12	0.4272	0.4492	0.081
Mof_C 	C 	0.12225	0.5038	0.4992	0.063
Mof_H 	H 	0.1418	0.5444	0.4982	-0.014
Mof_C 	C 	0.07056	0.2932	0.44255	0.106
Mof_N 	N 	0.04147	0.2411	0.44272	-0.137
Mof_C 	C 	0.03155	0.1724	0.41502	0.113
Mof_N 	N 	0.04753	0.1554	0.38737	-0.137
Mof_C 	C 	0.07686	0.2102	0.39104	0.109
Mof_N 	N 	0.0898	0.2793	0.41798	-0.14
Mof_C 	C 	0.0007	0.11	0.41595	0.06
Mof_C 	C 	0.99285	0.1022	0.45149	-0.107
Mof_H 	H 	0.0073	0.1359	0.4754	0.069
Mof_C 	C 	0.96396	0.0453	0.4521	0.062
Mof_H 	H 	0.9592	0.0394	0.477	-0.014
Mof_N 	N 	0.94226	0.9975	0.41902	-0.277
Mof_C 	C 	0.94937	0.0058	0.3848	0.084
Mof_H 	H 	0.9339	0.9728	0.3611	-0.017
Mof_C 	C 	0.97827	0.06	0.3818	-0.117
Mof_H 	H 	0.9828	0.0632	0.3568	0.084
Mof_C 	C 	0.09757	0.1941	0.36279	0.056
Mof_C 	C 	0.13482	0.2202	0.3745	-0.117
Mof_H 	H 	0.1474	0.247	0.4008	0.081
Mof_C 	C 	0.15364	0.2067	0.3476	0.066
Mof_H 	H 	0.1793	0.2248	0.3558	-0.013
Mof_N 	N 	0.13704	0.1693	0.31042	-0.276
Mof_C 	C 	0.10105	0.1444	0.2993	0.075
Mof_H 	H 	0.089	0.1186	0.2726	-0.017
Mof_C 	C 	0.08086	0.1541	0.3243	-0.124
Mof_H 	H 	0.0555	0.1336	0.3156	0.081
Mof_N 	N 	0.15196	0.5493	0.6249	-0.279
Mof_C 	C 	0.16593	0.598	0.65998	0.071
Mof_H 	H 	0.1633	0.6645	0.6593	-0.019
Mof_C 	C 	0.18393	0.5545	0.69673	-0.129
Mof_H 	H 	0.1942	0.5905	0.7211	0.084
Mof_C 	C 	0.18697	0.4571	0.69793	0.066
Mof_C 	C 	0.1711	0.4077	0.6618	-0.139
Mof_H 	H 	0.1716	0.3409	0.6616	0.094
Mof_C 	C 	0.1549	0.4567	0.6268	0.094
Mof_H 	H 	0.145	0.4224	0.6019	-0.019
Mof_C 	C 	0.20742	0.4049	0.73631	0.1
Mof_N 	N 	0.23667	0.447	0.76336	-0.139
Mof_C 	C 	0.25593	0.3924	0.79552	0.09
Mof_N 	N 	0.24774	0.3037	0.80131	-0.138
Mof_C 	C 	0.21657	0.271	0.77259	0.104
Mof_N 	N 	0.19519	0.3182	0.73952	-0.135
Mof_C 	C 	0.20426	0.1737	0.77676	0.055
Mof_C 	C 	0.22658	0.1096	0.80459	-0.117
Mof_H 	H 	0.25	0.1291	0.8241	0.079
Mof_C 	C 	0.21516	0.018	0.80428	0.071
Mof_H 	H 	0.2313	0.9747	0.8232	-0.012
Mof_N 	N 	0.18192	0.9875	0.77813	-0.271
Mof_C 	C 	0.15903	0.0508	0.7529	0.065
Mof_H 	H 	0.1348	0.0311	0.7355	-0.016
Mof_C 	C 	0.16916	0.1428	0.7514	-0.12
Mof_H 	H 	0.1522	0.1854	0.7329	0.083
Mof_C 	C 	0.28899	0.4372	0.82582	0.056
Mof_C 	C 	0.31215	0.3894	0.8606	-0.125
Mof_H 	H 	0.3066	0.3266	0.8658	0.077
Mof_C 	C 	0.34303	0.4351	0.8872	0.079
Mof_H 	H 	0.3585	0.4026	0.911	-0.025
Mof_N 	N 	0.35237	0.5233	0.88099	-0.279
Mof_C 	C 	0.32975	0.5684	0.8483	0.083
Mof_H 	H 	0.3356	0.6316	0.8441	-0.017
Mof_C 	C 	0.29864	0.529	0.8204	-0.134
Mof_H 	H 	0.2836	0.5641	0.7972	0.097
Mof_I 	I 	0.1761	0.7124	0.5531	-0.099
Mof_I 	I 	0.068	0.6983	0.5765	-0.276
Mof_I 	I 	0.8966	0.9165	0.4858	-0.002
Mof_I 	I 	0.905	0.7624	0.3856	-0.168
Mof_Zn	Zn	0.62834	0.1232	0.57065	1.157
Mof_Zn	Zn	0.39936	0.41302	0.42215	1.158
Mof_Zn	Zn	0.66638	0.34637	0.77101	1.163
Mof_I 	I 	0.68748	0.1926	0.5608	-0.251
Mof_I 	I 	0.57794	0.2182	0.57721	-0.065
Mof_I 	I 	0.72507	0.24358	0.79606	-0.38
Mof_I 	I 	0.62154	0.32649	0.69813	-0.389
Mof_I 	I 	0.39482	0.4338	0.49422	-0.362
Mof_I 	I 	0.40829	0.25554	0.39128	-0.176
Mof_N 	N 	0.60768	0.0165	0.5282	-0.279
Mof_C 	C 	0.58044	0.9593	0.5286	0.081
Mof_H 	H 	0.5695	0.9692	0.5489	-0.014
Mof_C 	C 	0.56713	0.8872	0.5017	-0.131
Mof_H 	H 	0.5475	0.848	0.5034	0.081
Mof_C 	C 	0.58248	0.8718	0.47173	0.055
Mof_C 	C 	0.60972	0.9332	0.4703	-0.119
Mof_H 	H 	0.62	0.9272	0.4492	0.081
Mof_C 	C 	0.62225	0.0038	0.4992	0.063
Mof_H 	H 	0.6418	0.0444	0.4982	-0.014
Mof_C 	C 	0.57056	0.7932	0.44255	0.106
Mof_N 	N 	0.54147	0.7411	0.44272	-0.137
Mof_C 	C 	0.53155	0.6724	0.41502	0.113
Mof_N 	N 	0.54753	0.6554	0.38737	-0.137
Mof_C 	C 	0.57686	0.7102	0.39104	0.109
Mof_N 	N 	0.5898	0.7793	0.41798	-0.14
Mof_C 	C 	0.5007	0.61	0.41595	0.06
Mof_C 	C 	0.49285	0.6022	0.45149	-0.107
Mof_H 	H 	0.5073	0.6359	0.4754	0.069
Mof_C 	C 	0.46396	0.5453	0.4521	0.062
Mof_H 	H 	0.4592	0.5394	0.477	-0.014
Mof_N 	N 	0.44226	0.4975	0.41902	-0.277
Mof_C 	C 	0.44937	0.5058	0.3848	0.084
Mof_H 	H 	0.4339	0.4728	0.3611	-0.017
Mof_C 	C 	0.47827	0.56	0.3818	-0.117
Mof_H 	H 	0.4828	0.5632	0.3568	0.084
Mof_C 	C 	0.59757	0.6941	0.36279	0.056
Mof_C 	C 	0.63482	0.7202	0.3745	-0.117
Mof_H 	H 	0.6474	0.747	0.4008	0.081
Mof_C 	C 	0.65364	0.7067	0.3476	0.066
Mof_H 	H 	0.6793	0.7248	0.3558	-0.013
Mof_N 	N 	0.63704	0.6693	0.31042	-0.276
Mof_C 	C 	0.60105	0.6444	0.2993	0.075
Mof_H 	H 	0.589	0.6186	0.2726	-0.017
Mof_C 	C 	0.58086	0.6541	0.3243	-0.124
Mof_H 	H 	0.5555	0.6336	0.3156	0.081
Mof_N 	N 	0.65196	0.0493	0.6249	-0.279
Mof_C 	C 	0.66593	0.098	0.65998	0.071
Mof_H 	H 	0.6633	0.1645	0.6593	-0.019
Mof_C 	C 	0.68393	0.0545	0.69673	-0.129
Mof_H 	H 	0.6942	0.0905	0.7211	0.084
Mof_C 	C 	0.68697	0.9571	0.69793	0.066
Mof_C 	C 	0.6711	0.9077	0.6618	-0.139
Mof_H 	H 	0.6716	0.8409	0.6616	0.093
Mof_C 	C 	0.6549	0.9567	0.6268	0.094
Mof_H 	H 	0.645	0.9224	0.6019	-0.019
Mof_C 	C 	0.70742	0.9049	0.73631	0.1
Mof_N 	N 	0.73667	0.947	0.76336	-0.139
Mof_C 	C 	0.75593	0.8924	0.79552	0.09
Mof_N 	N 	0.74774	0.8037	0.80131	-0.138
Mof_C 	C 	0.71657	0.771	0.77259	0.104
Mof_N 	N 	0.69519	0.8182	0.73952	-0.135
Mof_C 	C 	0.70426	0.6737	0.77676	0.055
Mof_C 	C 	0.72658	0.6096	0.80459	-0.117
Mof_H 	H 	0.75	0.6291	0.8241	0.079
Mof_C 	C 	0.71516	0.518	0.80428	0.071
Mof_H 	H 	0.7313	0.4747	0.8232	-0.012
Mof_N 	N 	0.68192	0.4875	0.77813	-0.271
Mof_C 	C 	0.65903	0.5508	0.7529	0.064
Mof_H 	H 	0.6348	0.5311	0.7355	-0.016
Mof_C 	C 	0.66916	0.6428	0.7514	-0.12
Mof_H 	H 	0.6522	0.6854	0.7329	0.083
Mof_C 	C 	0.78899	0.9372	0.82582	0.056
Mof_C 	C 	0.81215	0.8894	0.8606	-0.125
Mof_H 	H 	0.8066	0.8266	0.8658	0.077
Mof_C 	C 	0.84303	0.9351	0.8872	0.079
Mof_H 	H 	0.8585	0.9026	0.911	-0.025
Mof_N 	N 	0.85237	0.0233	0.88099	-0.279
Mof_C 	C 	0.82975	0.0684	0.8483	0.083
Mof_H 	H 	0.8356	0.1316	0.8441	-0.017
Mof_C 	C 	0.79864	0.029	0.8204	-0.134
Mof_H 	H 	0.7836	0.0641	0.7972	0.097
Mof_I 	I 	0.6761	0.2124	0.5531	-0.099
Mof_I 	I 	0.568	0.1983	0.5765	-0.276
Mof_I 	I 	0.3966	0.4165	0.4858	-0.002
Mof_I 	I 	0.405	0.2624	0.3856	-0.168
Mof_Zn	Zn	0.87166	0.3768	0.42935	1.157
Mof_Zn	Zn	0.10064	0.08698	0.57785	1.158
Mof_Zn	Zn	0.83362	0.15363	0.22899	1.163
Mof_I 	I 	0.81252	0.3074	0.4392	-0.251
Mof_I 	I 	0.92206	0.2818	0.42279	-0.065
Mof_I 	I 	0.77493	0.25642	0.20394	-0.38
Mof_I 	I 	0.87846	0.17351	0.30187	-0.389
Mof_I 	I 	0.10518	0.0662	0.50578	-0.362
Mof_I 	I 	0.09171	0.24446	0.60872	-0.176
Mof_N 	N 	0.89232	0.4835	0.4718	-0.279
Mof_C 	C 	0.91956	0.5407	0.4714	0.081
Mof_H 	H 	0.9305	0.5308	0.4511	-0.014
Mof_C 	C 	0.93287	0.6128	0.4983	-0.131
Mof_H 	H 	0.9525	0.652	0.4966	0.081
Mof_C 	C 	0.91752	0.6282	0.52827	0.055
Mof_C 	C 	0.89028	0.5668	0.5297	-0.119
Mof_H 	H 	0.88	0.5728	0.5508	0.081
Mof_C 	C 	0.87775	0.4962	0.5008	0.063
Mof_H 	H 	0.8582	0.4556	0.5018	-0.014
Mof_C 	C 	0.92944	0.7068	0.55745	0.106
Mof_N 	N 	0.95853	0.7589	0.55728	-0.137
Mof_C 	C 	0.96845	0.8276	0.58498	0.113
Mof_N 	N 	0.95247	0.8446	0.61263	-0.137
Mof_C 	C 	0.92314	0.7898	0.60896	0.109
Mof_N 	N 	0.9102	0.7207	0.58202	-0.14
Mof_C 	C 	0.9993	0.89	0.58405	0.06
Mof_C 	C 	0.00715	0.8978	0.54851	-0.107
Mof_H 	H 	0.9927	0.8641	0.5246	0.069
Mof_C 	C 	0.03604	0.9547	0.5479	0.062
Mof_H 	H 	0.0408	0.9606	0.523	-0.014
Mof_N 	N 	0.05774	0.0025	0.58098	-0.277
Mof_C 	C 	0.05063	0.9942	0.6152	0.084
Mof_H 	H 	0.0661	0.0272	0.6389	-0.017
Mof_C 	C 	0.02173	0.94	0.6182	-0.117
Mof_H 	H 	0.0172	0.9368	0.6432	0.084
Mof_C 	C 	0.90243	0.8059	0.63721	0.056
Mof_C 	C 	0.86518	0.7798	0.6255	-0.117
Mof_H 	H 	0.8526	0.753	0.5992	0.081
Mof_C 	C 	0.84636	0.7933	0.6524	0.066
Mof_H 	H 	0.8207	0.7752	0.6442	-0.013
Mof_N 	N 	0.86296	0.8307	0.68958	-0.276
Mof_C 	C 	0.89895	0.8556	0.7007	0.075
Mof_H 	H 	0.911	0.8814	0.7274	-0.017
Mof_C 	C 	0.91914	0.8459	0.6757	-0.124
Mof_H 	H 	0.9445	0.8664	0.6844	0.081
Mof_N 	N 	0.84804	0.4507	0.3751	-0.279
Mof_C 	C 	0.83407	0.402	0.34002	0.071
Mof_H 	H 	0.8367	0.3355	0.3407	-0.019
Mof_C 	C 	0.81607	0.4455	0.30327	-0.129
Mof_H 	H 	0.8058	0.4095	0.2789	0.084
Mof_C 	C 	0.81303	0.5429	0.30207	0.066
Mof_C 	C 	0.8289	0.5923	0.3382	-0.139
Mof_H 	H 	0.8284	0.6591	0.3384	0.094
Mof_C 	C 	0.8451	0.5433	0.3732	0.094
Mof_H 	H 	0.855	0.5776	0.3981	-0.019
Mof_C 	C 	0.79258	0.5951	0.26369	0.1
Mof_N 	N 	0.76333	0.553	0.23664	-0.139
Mof_C 	C 	0.74407	0.6076	0.20448	0.09
Mof_N 	N 	0.75226	0.6963	0.19869	-0.138
Mof_C 	C 	0.78343	0.729	0.22741	0.104
Mof_N 	N 	0.80481	0.6818	0.26048	-0.135
Mof_C 	C 	0.79574	0.8263	0.22324	0.055
Mof_C 	C 	0.77342	0.8904	0.19541	-0.117
Mof_H 	H 	0.75	0.8709	0.1759	0.079
Mof_C 	C 	0.78484	0.982	0.19572	0.071
Mof_H 	H 	0.7687	0.0253	0.1768	-0.012
Mof_N 	N 	0.81808	0.0125	0.22187	-0.271
Mof_C 	C 	0.84097	0.9492	0.2471	0.065
Mof_H 	H 	0.8652	0.9689	0.2645	-0.016
Mof_C 	C 	0.83084	0.8572	0.2486	-0.12
Mof_H 	H 	0.8478	0.8146	0.2671	0.083
Mof_C 	C 	0.71101	0.5628	0.17418	0.056
Mof_C 	C 	0.68785	0.6106	0.1394	-0.125
Mof_H 	H 	0.6934	0.6734	0.1342	0.077
Mof_C 	C 	0.65697	0.5649	0.1128	0.079
Mof_H 	H 	0.6415	0.5974	0.089	-0.025
Mof_N 	N 	0.64763	0.4767	0.11901	-0.279
Mof_C 	C 	0.67025	0.4316	0.1517	0.083
Mof_H 	H 	0.6644	0.3684	0.1559	-0.017
Mof_C 	C 	0.70136	0.471	0.1796	-0.134
Mof_H 	H 	0.7164	0.4359	0.2028	0.097
Mof_I 	I 	0.8239	0.2876	0.4469	-0.099
Mof_I 	I 	0.932	0.3017	0.4235	-0.276
Mof_I 	I 	0.1034	0.0835	0.5142	-0.002
Mof_I 	I 	0.095	0.2376	0.6144	-0.168
Mof_Zn	Zn	0.37166	0.8768	0.42935	1.157
Mof_Zn	Zn	0.60064	0.58698	0.57785	1.158
Mof_Zn	Zn	0.33362	0.65363	0.22899	1.163
Mof_I 	I 	0.31252	0.8074	0.4392	-0.251
Mof_I 	I 	0.42206	0.7818	0.42279	-0.065
Mof_I 	I 	0.27493	0.75642	0.20394	-0.38
Mof_I 	I 	0.37846	0.67351	0.30187	-0.389
Mof_I 	I 	0.60518	0.5662	0.50578	-0.362
Mof_I 	I 	0.59171	0.74446	0.60872	-0.176
Mof_N 	N 	0.39232	0.9835	0.4718	-0.279
Mof_C 	C 	0.41956	0.0407	0.4714	0.081
Mof_H 	H 	0.4305	0.0308	0.4511	-0.014
Mof_C 	C 	0.43287	0.1128	0.4983	-0.131
Mof_H 	H 	0.4525	0.152	0.4966	0.081
Mof_C 	C 	0.41752	0.1282	0.52827	0.055
Mof_C 	C 	0.39028	0.0668	0.5297	-0.119
Mof_H 	H 	0.38	0.0728	0.5508	0.081
Mof_C 	C 	0.37775	0.9962	0.5008	0.063
Mof_H 	H 	0.3582	0.9556	0.5018	-0.014
Mof_C 	C 	0.42944	0.2068	0.55745	0.106
Mof_N 	N 	0.45853	0.2589	0.55728	-0.137
Mof_C 	C 	0.46845	0.3276	0.58498	0.113
Mof_N 	N 	0.45247	0.3446	0.61263	-0.137
Mof_C 	C 	0.42314	0.2898	0.60896	0.109
Mof_N 	N 	0.4102	0.2207	0.58202	-0.14
Mof_C 	C 	0.4993	0.39	0.58405	0.06
Mof_C 	C 	0.50715	0.3978	0.54851	-0.107
Mof_H 	H 	0.4927	0.3641	0.5246	0.069
Mof_C 	C 	0.53604	0.4547	0.5479	0.062
Mof_H 	H 	0.5408	0.4606	0.523	-0.014
Mof_N 	N 	0.55774	0.5025	0.58098	-0.277
Mof_C 	C 	0.55063	0.4942	0.6152	0.084
Mof_H 	H 	0.5661	0.5272	0.6389	-0.017
Mof_C 	C 	0.52173	0.44	0.6182	-0.117
Mof_H 	H 	0.5172	0.4368	0.6432	0.084
Mof_C 	C 	0.40243	0.3059	0.63721	0.056
Mof_C 	C 	0.36518	0.2798	0.6255	-0.117
Mof_H 	H 	0.3526	0.253	0.5992	0.081
Mof_C 	C 	0.34636	0.2933	0.6524	0.066
Mof_H 	H 	0.3207	0.2752	0.6442	-0.013
Mof_N 	N 	0.36296	0.3307	0.68958	-0.276
Mof_C 	C 	0.39895	0.3556	0.7007	0.075
Mof_H 	H 	0.411	0.3814	0.7274	-0.017
Mof_C 	C 	0.41914	0.3459	0.6757	-0.124
Mof_H 	H 	0.4445	0.3664	0.6844	0.081
Mof_N 	N 	0.34804	0.9507	0.3751	-0.279
Mof_C 	C 	0.33407	0.902	0.34002	0.071
Mof_H 	H 	0.3367	0.8355	0.3407	-0.019
Mof_C 	C 	0.31607	0.9455	0.30327	-0.129
Mof_H 	H 	0.3058	0.9095	0.2789	0.084
Mof_C 	C 	0.31303	0.0429	0.30207	0.066
Mof_C 	C 	0.3289	0.0923	0.3382	-0.139
Mof_H 	H 	0.3284	0.1591	0.3384	0.093
Mof_C 	C 	0.3451	0.0433	0.3732	0.094
Mof_H 	H 	0.355	0.0776	0.3981	-0.019
Mof_C 	C 	0.29258	0.0951	0.26369	0.1
Mof_N 	N 	0.26333	0.053	0.23664	-0.139
Mof_C 	C 	0.24407	0.1076	0.20448	0.09
Mof_N 	N 	0.25226	0.1963	0.19869	-0.138
Mof_C 	C 	0.28343	0.229	0.22741	0.104
Mof_N 	N 	0.30481	0.1818	0.26048	-0.135
Mof_C 	C 	0.29574	0.3263	0.22324	0.055
Mof_C 	C 	0.27342	0.3904	0.19541	-0.117
Mof_H 	H 	0.25	0.3709	0.1759	0.079
Mof_C 	C 	0.28484	0.482	0.19572	0.071
Mof_H 	H 	0.2687	0.5253	0.1768	-0.012
Mof_N 	N 	0.31808	0.5125	0.22187	-0.271
Mof_C 	C 	0.34097	0.4492	0.2471	0.064
Mof_H 	H 	0.3652	0.4689	0.2645	-0.016
Mof_C 	C 	0.33084	0.3572	0.2486	-0.12
Mof_H 	H 	0.3478	0.3146	0.2671	0.083
Mof_C 	C 	0.21101	0.0628	0.17418	0.056
Mof_C 	C 	0.18785	0.1106	0.1394	-0.125
Mof_H 	H 	0.1934	0.1734	0.1342	0.077
Mof_C 	C 	0.15697	0.0649	0.1128	0.079
Mof_H 	H 	0.1415	0.0974	0.089	-0.025
Mof_N 	N 	0.14763	0.9767	0.11901	-0.279
Mof_C 	C 	0.17025	0.9316	0.1517	0.083
Mof_H 	H 	0.1644	0.8684	0.1559	-0.017
Mof_C 	C 	0.20136	0.971	0.1796	-0.134
Mof_H 	H 	0.2164	0.9359	0.2028	0.097
Mof_I 	I 	0.3239	0.7876	0.4469	-0.099
Mof_I 	I 	0.432	0.8017	0.4235	-0.276
Mof_I 	I 	0.6034	0.5835	0.5142	-0.002
Mof_I 	I 	0.595	0.7376	0.6144	-0.168
Mof_Zn	Zn	0.87166	0.6232	0.92935	1.157
Mof_Zn	Zn	0.10064	0.91302	0.07785	1.158
Mof_Zn	Zn	0.83362	0.84637	0.72899	1.163
Mof_I 	I 	0.81252	0.6926	0.9392	-0.251
Mof_I 	I 	0.92206	0.7182	0.92279	-0.064
Mof_I 	I 	0.77493	0.74358	0.70394	-0.38
Mof_I 	I 	0.87846	0.82649	0.80187	-0.389
Mof_I 	I 	0.10518	0.9338	0.00578	-0.362
Mof_I 	I 	0.09171	0.75554	0.10872	-0.176
Mof_N 	N 	0.89232	0.5165	0.9718	-0.279
Mof_C 	C 	0.91956	0.4593	0.9714	0.081
Mof_H 	H 	0.9305	0.4692	0.9511	-0.014
Mof_C 	C 	0.93287	0.3872	0.9983	-0.131
Mof_H 	H 	0.9525	0.348	0.9966	0.081
Mof_C 	C 	0.91752	0.3718	0.02827	0.055
Mof_C 	C 	0.89028	0.4332	0.0297	-0.119
Mof_H 	H 	0.88	0.4272	0.0508	0.081
Mof_C 	C 	0.87775	0.5038	0.0008	0.063
Mof_H 	H 	0.8582	0.5444	0.0018	-0.014
Mof_C 	C 	0.92944	0.2932	0.05745	0.106
Mof_N 	N 	0.95853	0.2411	0.05728	-0.137
Mof_C 	C 	0.96845	0.1724	0.08498	0.114
Mof_N 	N 	0.95247	0.1554	0.11263	-0.137
Mof_C 	C 	0.92314	0.2102	0.10896	0.109
Mof_N 	N 	0.9102	0.2793	0.08202	-0.14
Mof_C 	C 	0.9993	0.11	0.08405	0.06
Mof_C 	C 	0.00715	0.1022	0.04851	-0.106
Mof_H 	H 	0.9927	0.1359	0.0246	0.069
Mof_C 	C 	0.03604	0.0453	0.0479	0.062
Mof_H 	H 	0.0408	0.0394	0.023	-0.014
Mof_N 	N 	0.05774	0.9975	0.08098	-0.277
Mof_C 	C 	0.05063	0.0058	0.1152	0.084
Mof_H 	H 	0.0661	0.9728	0.1389	-0.017
Mof_C 	C 	0.02173	0.06	0.1182	-0.116
Mof_H 	H 	0.0172	0.0632	0.1432	0.084
Mof_C 	C 	0.90243	0.1941	0.13721	0.056
Mof_C 	C 	0.86518	0.2202	0.1255	-0.117
Mof_H 	H 	0.8526	0.247	0.0992	0.081
Mof_C 	C 	0.84636	0.2067	0.1524	0.066
Mof_H 	H 	0.8207	0.2248	0.1442	-0.013
Mof_N 	N 	0.86296	0.1693	0.18958	-0.276
Mof_C 	C 	0.89895	0.1444	0.2007	0.074
Mof_H 	H 	0.911	0.1186	0.2274	-0.017
Mof_C 	C 	0.91914	0.1541	0.1757	-0.124
Mof_H 	H 	0.9445	0.1336	0.1844	0.081
Mof_N 	N 	0.84804	0.5493	0.8751	-0.279
Mof_C 	C 	0.83407	0.598	0.84002	0.071
Mof_H 	H 	0.8367	0.6645	0.8407	-0.019
Mof_C 	C 	0.81607	0.5545	0.80327	-0.129
Mof_H 	H 	0.8058	0.5905	0.7789	0.084
Mof_C 	C 	0.81303	0.4571	0.80207	0.066
Mof_C 	C 	0.8289	0.4077	0.8382	-0.139
Mof_H 	H 	0.8284	0.3409	0.8384	0.094
Mof_C 	C 	0.8451	0.4567	0.8732	0.094
Mof_H 	H 	0.855	0.4224	0.8981	-0.019
Mof_C 	C 	0.79258	0.4049	0.76369	0.1
Mof_N 	N 	0.76333	0.447	0.73664	-0.139
Mof_C 	C 	0.74407	0.3924	0.70448	0.09
Mof_N 	N 	0.75226	0.3037	0.69869	-0.138
Mof_C 	C 	0.78343	0.271	0.72741	0.104
Mof_N 	N 	0.80481	0.3182	0.76048	-0.135
Mof_C 	C 	0.79574	0.1737	0.72324	0.055
Mof_C 	C 	0.77342	0.1096	0.69541	-0.117
Mof_H 	H 	0.75	0.1291	0.6759	0.079
Mof_C 	C 	0.78484	0.018	0.69572	0.071
Mof_H 	H 	0.7687	0.9747	0.6768	-0.012
Mof_N 	N 	0.81808	0.9875	0.72187	-0.271
Mof_C 	C 	0.84097	0.0508	0.7471	0.065
Mof_H 	H 	0.8652	0.0311	0.7645	-0.016
Mof_C 	C 	0.83084	0.1428	0.7486	-0.12
Mof_H 	H 	0.8478	0.1854	0.7671	0.083
Mof_C 	C 	0.71101	0.4372	0.67418	0.056
Mof_C 	C 	0.68785	0.3894	0.6394	-0.125
Mof_H 	H 	0.6934	0.3266	0.6342	0.077
Mof_C 	C 	0.65697	0.4351	0.6128	0.079
Mof_H 	H 	0.6415	0.4026	0.589	-0.025
Mof_N 	N 	0.64763	0.5233	0.61901	-0.279
Mof_C 	C 	0.67025	0.5684	0.6517	0.083
Mof_H 	H 	0.6644	0.6316	0.6559	-0.017
Mof_C 	C 	0.70136	0.529	0.6796	-0.134
Mof_H 	H 	0.7164	0.5641	0.7028	0.097
Mof_I 	I 	0.8239	0.7124	0.9469	-0.099
Mof_I 	I 	0.932	0.6983	0.9235	-0.277
Mof_I 	I 	0.1034	0.9165	0.0142	-0.002
Mof_I 	I 	0.095	0.7624	0.1144	-0.168
Mof_Zn	Zn	0.37166	0.1232	0.92935	1.157
Mof_Zn	Zn	0.60064	0.41302	0.07785	1.158
Mof_Zn	Zn	0.33362	0.34637	0.72899	1.163
Mof_I 	I 	0.31252	0.1926	0.9392	-0.251
Mof_I 	I 	0.42206	0.2182	0.92279	-0.065
Mof_I 	I 	0.27493	0.24358	0.70394	-0.38
Mof_I 	I 	0.37846	0.32649	0.80187	-0.389
Mof_I 	I 	0.60518	0.4338	0.00578	-0.362
Mof_I 	I 	0.59171	0.25554	0.10872	-0.176
Mof_N 	N 	0.39232	0.0165	0.9718	-0.279
Mof_C 	C 	0.41956	0.9593	0.9714	0.081
Mof_H 	H 	0.4305	0.9692	0.9511	-0.014
Mof_C 	C 	0.43287	0.8872	0.9983	-0.131
Mof_H 	H 	0.4525	0.848	0.9966	0.081
Mof_C 	C 	0.41752	0.8718	0.02827	0.055
Mof_C 	C 	0.39028	0.9332	0.0297	-0.119
Mof_H 	H 	0.38	0.9272	0.0508	0.081
Mof_C 	C 	0.37775	0.0038	0.0008	0.063
Mof_H 	H 	0.3582	0.0444	0.0018	-0.014
Mof_C 	C 	0.42944	0.7932	0.05745	0.106
Mof_N 	N 	0.45853	0.7411	0.05728	-0.137
Mof_C 	C 	0.46845	0.6724	0.08498	0.113
Mof_N 	N 	0.45247	0.6554	0.11263	-0.137
Mof_C 	C 	0.42314	0.7102	0.10896	0.109
Mof_N 	N 	0.4102	0.7793	0.08202	-0.14
Mof_C 	C 	0.4993	0.61	0.08405	0.06
Mof_C 	C 	0.50715	0.6022	0.04851	-0.107
Mof_H 	H 	0.4927	0.6359	0.0246	0.069
Mof_C 	C 	0.53604	0.5453	0.0479	0.062
Mof_H 	H 	0.5408	0.5394	0.023	-0.014
Mof_N 	N 	0.55774	0.4975	0.08098	-0.277
Mof_C 	C 	0.55063	0.5058	0.1152	0.084
Mof_H 	H 	0.5661	0.4728	0.1389	-0.017
Mof_C 	C 	0.52173	0.56	0.1182	-0.117
Mof_H 	H 	0.5172	0.5632	0.1432	0.084
Mof_C 	C 	0.40243	0.6941	0.13721	0.056
Mof_C 	C 	0.36518	0.7202	0.1255	-0.117
Mof_H 	H 	0.3526	0.747	0.0992	0.081
Mof_C 	C 	0.34636	0.7067	0.1524	0.066
Mof_H 	H 	0.3207	0.7248	0.1442	-0.013
Mof_N 	N 	0.36296	0.6693	0.18958	-0.276
Mof_C 	C 	0.39895	0.6444	0.2007	0.075
Mof_H 	H 	0.411	0.6186	0.2274	-0.017
Mof_C 	C 	0.41914	0.6541	0.1757	-0.124
Mof_H 	H 	0.4445	0.6336	0.1844	0.081
Mof_N 	N 	0.34804	0.0493	0.8751	-0.279
Mof_C 	C 	0.33407	0.098	0.84002	0.071
Mof_H 	H 	0.3367	0.1645	0.8407	-0.019
Mof_C 	C 	0.31607	0.0545	0.80327	-0.129
Mof_H 	H 	0.3058	0.0905	0.7789	0.084
Mof_C 	C 	0.31303	0.9571	0.80207	0.066
Mof_C 	C 	0.3289	0.9077	0.8382	-0.139
Mof_H 	H 	0.3284	0.8409	0.8384	0.093
Mof_C 	C 	0.3451	0.9567	0.8732	0.094
Mof_H 	H 	0.355	0.9224	0.8981	-0.019
Mof_C 	C 	0.29258	0.9049	0.76369	0.1
Mof_N 	N 	0.26333	0.947	0.73664	-0.139
Mof_C 	C 	0.24407	0.8924	0.70448	0.09
Mof_N 	N 	0.25226	0.8037	0.69869	-0.138
Mof_C 	C 	0.28343	0.771	0.72741	0.104
Mof_N 	N 	0.30481	0.8182	0.76048	-0.135
Mof_C 	C 	0.29574	0.6737	0.72324	0.055
Mof_C 	C 	0.27342	0.6096	0.69541	-0.117
Mof_H 	H 	0.25	0.6291	0.6759	0.079
Mof_C 	C 	0.28484	0.518	0.69572	0.071
Mof_H 	H 	0.2687	0.4747	0.6768	-0.012
Mof_N 	N 	0.31808	0.4875	0.72187	-0.271
Mof_C 	C 	0.34097	0.5508	0.7471	0.065
Mof_H 	H 	0.3652	0.5311	0.7645	-0.016
Mof_C 	C 	0.33084	0.6428	0.7486	-0.12
Mof_H 	H 	0.3478	0.6854	0.7671	0.083
Mof_C 	C 	0.21101	0.9372	0.67418	0.056
Mof_C 	C 	0.18785	0.8894	0.6394	-0.125
Mof_H 	H 	0.1934	0.8266	0.6342	0.077
Mof_C 	C 	0.15697	0.9351	0.6128	0.079
Mof_H 	H 	0.1415	0.9026	0.589	-0.025
Mof_N 	N 	0.14763	0.0233	0.61901	-0.279
Mof_C 	C 	0.17025	0.0684	0.6517	0.083
Mof_H 	H 	0.1644	0.1316	0.6559	-0.017
Mof_C 	C 	0.20136	0.029	0.6796	-0.134
Mof_H 	H 	0.2164	0.0641	0.7028	0.097
Mof_I 	I 	0.3239	0.2124	0.9469	-0.099
Mof_I 	I 	0.432	0.1983	0.9235	-0.276
Mof_I 	I 	0.6034	0.4165	0.0142	-0.002
Mof_I 	I 	0.595	0.2624	0.1144	-0.168
_end
