data_functionalizedCrystal
_audit_creation_method	'EQeq! by Chris Wilmer'
_symmetry_space_group_name_H-M	'P1'
_symmetry_Int_Tables_number	1
_symmetry_cell_setting	triclinic
loop_
_symmetry_equiv_pos_as_xyz
  x,y,z
_cell_length_a	15.772
_cell_length_b	26.984
_cell_length_c	19.254
_cell_angle_alpha	90
_cell_angle_beta	90.019
_cell_angle_gamma	90
loop_
_atom_site_label
_atom_site_type_symbol
_atom_site_fract_x
_atom_site_fract_y
_atom_site_fract_z
_atom_site_charge
Mof_Fe	Fe	0.04134	0.618	0.78746	0.609
Mof_Fe	Fe	0.53448	0.86668	0.20634	0.612
Mof_S 	S 	0.31931	0.93774	0.05448	-0.055
Mof_S 	S 	0.76484	0.77922	0.31668	-0.043
Mof_S 	S 	0.28149	0.71602	0.71409	-0.05
Mof_S 	S 	0.84529	0.56265	0.96182	-0.054
Mof_C 	C 	0.2002	0.6797	0.72695	0.088
Mof_C 	C 	0.9025	0.57499	0.89327	0.091
Mof_C 	C 	0.3943	0.9167	0.1044	0.089
Mof_C 	C 	0.6817	0.80842	0.2887	0.09
Mof_N 	N 	0.14234	0.65427	0.73583	-0.193
Mof_N 	N 	0.94374	0.58447	0.84533	-0.194
Mof_N 	N 	0.44785	0.90183	0.14048	-0.197
Mof_N 	N 	0.62288	0.82938	0.2685	-0.196
Mof_N 	N 	0.62983	0.87181	0.12338	-0.18
Mof_N 	N 	0.99923	0.6918	0.82342	-0.182
Mof_N 	N 	0.9206	0.0454	0.75591	-0.183
Mof_N 	N 	0.84398	0.82949	0.94041	-0.14
Mof_N 	N 	0.81576	0.91449	0.91961	-0.14
Mof_N 	N 	0.91259	0.87087	0.84771	-0.14
Mof_C 	C 	0.6741	0.83113	0.10661	0.074
Mof_H 	H 	0.666	0.8019	0.1333	0.005
Mof_C 	C 	0.7309	0.82997	0.05226	-0.124
Mof_H 	H 	0.7607	0.8003	0.0416	0.079
Mof_C 	C 	0.74415	0.87242	0.01343	0.053
Mof_C 	C 	0.6987	0.91487	0.03105	-0.125
Mof_H 	H 	0.7065	0.9447	0.0057	0.081
Mof_C 	C 	0.6424	0.91301	0.08569	0.077
Mof_H 	H 	0.6112	0.942	0.0971	0.003
Mof_C 	C 	0.9683	0.69882	0.88739	0.076
Mof_H 	H 	0.9682	0.6715	0.9186	0.005
Mof_C 	C 	0.9366	0.74366	0.91063	-0.121
Mof_H 	H 	0.9159	0.7471	0.9567	0.079
Mof_C 	C 	0.93583	0.78336	0.86507	0.053
Mof_C 	C 	0.9694	0.77695	0.79874	-0.119
Mof_H 	H 	0.9711	0.8038	0.7669	0.079
Mof_C 	C 	0.0001	0.73092	0.78011	0.069
Mof_H 	H 	0.0228	0.7267	0.7348	0.001
Mof_C 	C 	0.9722	0.00625	0.75085	0.067
Mof_H 	H 	0.021	0.009	0.7222	0.007
Mof_C 	C 	0.9583	0.9619	0.78504	-0.119
Mof_H 	H 	0.996	0.9348	0.7792	0.079
Mof_C 	C 	0.8881	0.95796	0.82808	0.053
Mof_C 	C 	0.8345	0.99832	0.83429	-0.121
Mof_H 	H 	0.7862	0.9968	0.8637	0.081
Mof_C 	C 	0.8525	0.04069	0.79712	0.071
Mof_H 	H 	0.8147	0.068	0.8009	0.006
Mof_C 	C 	0.805	0.87226	0.95467	0.1
Mof_C 	C 	0.8956	0.83072	0.88581	0.102
Mof_C 	C 	0.8712	0.9118	0.86741	0.101
Mof_N 	N 	0.12562	0.61303	0.87847	-0.181
Mof_N 	N 	0.49731	0.79127	0.17078	-0.182
Mof_N 	N 	0.43039	0.43654	0.24034	-0.184
Mof_N 	N 	0.3393	0.65257	0.06052	-0.141
Mof_N 	N 	0.40683	0.61224	0.15442	-0.14
Mof_N 	N 	0.31641	0.56697	0.07889	-0.139
Mof_C 	C 	0.1684	0.65363	0.89778	0.075
Mof_H 	H 	0.1583	0.6838	0.8736	0.004
Mof_C 	C 	0.2263	0.65347	0.95118	-0.125
Mof_H 	H 	0.2555	0.683	0.9635	0.08
Mof_C 	C 	0.2417	0.6096	0.98695	0.054
Mof_C 	C 	0.1972	0.56755	0.96736	-0.127
Mof_H 	H 	0.206	0.5369	0.9905	0.083
Mof_C 	C 	0.1399	0.5712	0.91361	0.08
Mof_H 	H 	0.1089	0.5424	0.9008	0.003
Mof_C 	C 	0.4672	0.78302	0.10715	0.077
Mof_H 	H 	0.4688	0.8093	0.0743	0.003
Mof_C 	C 	0.4338	0.73801	0.08676	-0.123
Mof_H 	H 	0.4132	0.7336	0.0408	0.078
Mof_C 	C 	0.4305	0.6995	0.13413	0.053
Mof_C 	C 	0.4636	0.7074	0.20023	-0.122
Mof_H 	H 	0.4643	0.6815	0.2336	0.079
Mof_C 	C 	0.4953	0.75356	0.21615	0.074
Mof_H 	H 	0.5169	0.759	0.2616	0.002
Mof_C 	C 	0.4594	0.4804	0.26201	0.073
Mof_H 	H 	0.495	0.4812	0.3018	0.003
Mof_C 	C 	0.4403	0.52473	0.22968	-0.123
Mof_H 	H 	0.4621	0.5551	0.2472	0.079
Mof_C 	C 	0.3888	0.52432	0.17111	0.054
Mof_C 	C 	0.3575	0.47915	0.14898	-0.123
Mof_H 	H 	0.3211	0.4774	0.1097	0.081
Mof_C 	C 	0.3795	0.43671	0.1842	0.072
Mof_H 	H 	0.3576	0.406	0.1681	0.006
Mof_C 	C 	0.3022	0.60946	0.04544	0.1
Mof_C 	C 	0.3904	0.65189	0.11547	0.102
Mof_C 	C 	0.3691	0.57044	0.13314	0.1
Mof_Fe	Fe	0.95866	0.118	0.71254	0.608
Mof_Fe	Fe	0.46552	0.36668	0.29366	0.612
Mof_S 	S 	0.68069	0.43774	0.44552	-0.056
Mof_S 	S 	0.23516	0.27922	0.18332	-0.043
Mof_S 	S 	0.71851	0.21602	0.78591	-0.051
Mof_S 	S 	0.15471	0.06265	0.53818	-0.055
Mof_C 	C 	0.7998	0.1797	0.77305	0.087
Mof_C 	C 	0.0975	0.07499	0.60673	0.09
Mof_C 	C 	0.6057	0.4167	0.3956	0.088
Mof_C 	C 	0.3183	0.30842	0.2113	0.089
Mof_N 	N 	0.85766	0.15427	0.76417	-0.194
Mof_N 	N 	0.05626	0.08447	0.65467	-0.195
Mof_N 	N 	0.55215	0.40183	0.35952	-0.197
Mof_N 	N 	0.37712	0.32938	0.2315	-0.196
Mof_N 	N 	0.37017	0.37181	0.37662	-0.181
Mof_N 	N 	0.00077	0.1918	0.67658	-0.182
Mof_N 	N 	0.0794	0.5454	0.74409	-0.184
Mof_N 	N 	0.15602	0.32949	0.55959	-0.14
Mof_N 	N 	0.18424	0.41449	0.58039	-0.14
Mof_N 	N 	0.08741	0.37087	0.65229	-0.14
Mof_C 	C 	0.3259	0.33113	0.39339	0.075
Mof_H 	H 	0.334	0.3019	0.3667	0.005
Mof_C 	C 	0.2691	0.32997	0.44774	-0.124
Mof_H 	H 	0.2393	0.3003	0.4584	0.079
Mof_C 	C 	0.25585	0.37242	0.48657	0.054
Mof_C 	C 	0.3013	0.41487	0.46895	-0.125
Mof_H 	H 	0.2935	0.4447	0.4943	0.081
Mof_C 	C 	0.3576	0.41301	0.41431	0.078
Mof_H 	H 	0.3888	0.442	0.4029	0.003
Mof_C 	C 	0.0317	0.19882	0.61261	0.076
Mof_H 	H 	0.0318	0.1715	0.5814	0.004
Mof_C 	C 	0.0634	0.24366	0.58937	-0.122
Mof_H 	H 	0.0841	0.2471	0.5433	0.079
Mof_C 	C 	0.06417	0.28336	0.63493	0.053
Mof_C 	C 	0.0306	0.27695	0.70126	-0.12
Mof_H 	H 	0.0289	0.3038	0.7331	0.079
Mof_C 	C 	0.9999	0.23092	0.71989	0.071
Mof_H 	H 	0.9772	0.2267	0.7652	0.001
Mof_C 	C 	0.0278	0.50625	0.74915	0.071
Mof_H 	H 	0.979	0.509	0.7778	0.006
Mof_C 	C 	0.0417	0.4619	0.71496	-0.122
Mof_H 	H 	0.004	0.4348	0.7208	0.08
Mof_C 	C 	0.1119	0.45796	0.67192	0.054
Mof_C 	C 	0.1655	0.49832	0.66571	-0.124
Mof_H 	H 	0.2138	0.4968	0.6363	0.081
Mof_C 	C 	0.1475	0.54069	0.70288	0.073
Mof_H 	H 	0.1853	0.568	0.6991	0.005
Mof_C 	C 	0.195	0.37226	0.54533	0.099
Mof_C 	C 	0.1044	0.33072	0.61419	0.102
Mof_C 	C 	0.1288	0.4118	0.63259	0.1
Mof_N 	N 	0.87438	0.11303	0.62153	-0.181
Mof_N 	N 	0.50269	0.29127	0.32922	-0.182
Mof_N 	N 	0.56961	0.93654	0.25966	-0.184
Mof_N 	N 	0.6607	0.15257	0.43948	-0.141
Mof_N 	N 	0.59317	0.11224	0.34558	-0.14
Mof_N 	N 	0.68359	0.06697	0.42111	-0.139
Mof_C 	C 	0.8316	0.15363	0.60222	0.075
Mof_H 	H 	0.8417	0.1838	0.6264	0.004
Mof_C 	C 	0.7737	0.15347	0.54882	-0.125
Mof_H 	H 	0.7445	0.183	0.5365	0.08
Mof_C 	C 	0.7583	0.1096	0.51305	0.054
Mof_C 	C 	0.8028	0.06755	0.53264	-0.127
Mof_H 	H 	0.794	0.0369	0.5095	0.083
Mof_C 	C 	0.8601	0.0712	0.58639	0.08
Mof_H 	H 	0.8911	0.0424	0.5992	0.003
Mof_C 	C 	0.5328	0.28302	0.39285	0.077
Mof_H 	H 	0.5312	0.3093	0.4257	0.003
Mof_C 	C 	0.5662	0.23801	0.41324	-0.123
Mof_H 	H 	0.5868	0.2336	0.4592	0.078
Mof_C 	C 	0.5695	0.1995	0.36587	0.053
Mof_C 	C 	0.5364	0.2074	0.29977	-0.122
Mof_H 	H 	0.5357	0.1815	0.2664	0.079
Mof_C 	C 	0.5047	0.25356	0.28385	0.074
Mof_H 	H 	0.4831	0.259	0.2384	0.002
Mof_C 	C 	0.5406	0.9804	0.23799	0.073
Mof_H 	H 	0.505	0.9812	0.1982	0.003
Mof_C 	C 	0.5597	0.02473	0.27032	-0.122
Mof_H 	H 	0.5379	0.0551	0.2528	0.079
Mof_C 	C 	0.6112	0.02432	0.32889	0.053
Mof_C 	C 	0.6425	0.97915	0.35102	-0.123
Mof_H 	H 	0.6789	0.9774	0.3903	0.081
Mof_C 	C 	0.6205	0.93671	0.3158	0.072
Mof_H 	H 	0.6424	0.906	0.3319	0.006
Mof_C 	C 	0.6978	0.10946	0.45456	0.1
Mof_C 	C 	0.6096	0.15189	0.38453	0.102
Mof_C 	C 	0.6309	0.07044	0.36686	0.1
Mof_Fe	Fe	0.95866	0.382	0.21254	0.608
Mof_Fe	Fe	0.46552	0.13332	0.79366	0.611
Mof_S 	S 	0.68069	0.06226	0.94552	-0.056
Mof_S 	S 	0.23516	0.22078	0.68332	-0.044
Mof_S 	S 	0.71851	0.28398	0.28591	-0.051
Mof_S 	S 	0.15471	0.43735	0.03818	-0.055
Mof_C 	C 	0.7998	0.3203	0.27305	0.087
Mof_C 	C 	0.0975	0.42501	0.10673	0.09
Mof_C 	C 	0.6057	0.0833	0.8956	0.088
Mof_C 	C 	0.3183	0.19158	0.7113	0.089
Mof_N 	N 	0.85766	0.34573	0.26417	-0.194
Mof_N 	N 	0.05626	0.41553	0.15467	-0.195
Mof_N 	N 	0.55215	0.09817	0.85952	-0.197
Mof_N 	N 	0.37712	0.17062	0.7315	-0.196
Mof_N 	N 	0.37017	0.12819	0.87662	-0.18
Mof_N 	N 	0.00077	0.3082	0.17658	-0.182
Mof_N 	N 	0.0794	0.9546	0.24409	-0.183
Mof_N 	N 	0.15602	0.17051	0.05959	-0.14
Mof_N 	N 	0.18424	0.08551	0.08039	-0.14
Mof_N 	N 	0.08741	0.12913	0.15229	-0.14
Mof_C 	C 	0.3259	0.16887	0.89339	0.074
Mof_H 	H 	0.334	0.1981	0.8667	0.005
Mof_C 	C 	0.2691	0.17003	0.94774	-0.124
Mof_H 	H 	0.2393	0.1997	0.9584	0.079
Mof_C 	C 	0.25585	0.12758	0.98657	0.053
Mof_C 	C 	0.3013	0.08513	0.96895	-0.125
Mof_H 	H 	0.2935	0.0553	0.9943	0.081
Mof_C 	C 	0.3576	0.08699	0.91431	0.077
Mof_H 	H 	0.3888	0.058	0.9029	0.003
Mof_C 	C 	0.0317	0.30118	0.11261	0.076
Mof_H 	H 	0.0318	0.3285	0.0814	0.005
Mof_C 	C 	0.0634	0.25634	0.08937	-0.121
Mof_H 	H 	0.0841	0.2529	0.0433	0.079
Mof_C 	C 	0.06417	0.21664	0.13493	0.053
Mof_C 	C 	0.0306	0.22305	0.20126	-0.119
Mof_H 	H 	0.0289	0.1962	0.2331	0.079
Mof_C 	C 	0.9999	0.26908	0.21989	0.069
Mof_H 	H 	0.9772	0.2733	0.2652	0.001
Mof_C 	C 	0.0278	0.99375	0.24915	0.067
Mof_H 	H 	0.979	0.991	0.2778	0.007
Mof_C 	C 	0.0417	0.0381	0.21496	-0.119
Mof_H 	H 	0.004	0.0652	0.2208	0.079
Mof_C 	C 	0.1119	0.04204	0.17192	0.053
Mof_C 	C 	0.1655	0.00168	0.16571	-0.121
Mof_H 	H 	0.2138	0.0032	0.1363	0.081
Mof_C 	C 	0.1475	0.95931	0.20288	0.071
Mof_H 	H 	0.1853	0.932	0.1991	0.006
Mof_C 	C 	0.195	0.12774	0.04533	0.1
Mof_C 	C 	0.1044	0.16928	0.11419	0.102
Mof_C 	C 	0.1288	0.0882	0.13259	0.101
Mof_N 	N 	0.87438	0.38697	0.12153	-0.181
Mof_N 	N 	0.50269	0.20873	0.82922	-0.182
Mof_N 	N 	0.56961	0.56346	0.75966	-0.184
Mof_N 	N 	0.6607	0.34743	0.93948	-0.141
Mof_N 	N 	0.59317	0.38776	0.84558	-0.14
Mof_N 	N 	0.68359	0.43303	0.92111	-0.139
Mof_C 	C 	0.8316	0.34637	0.10222	0.075
Mof_H 	H 	0.8417	0.3162	0.1264	0.004
Mof_C 	C 	0.7737	0.34653	0.04882	-0.125
Mof_H 	H 	0.7445	0.317	0.0365	0.08
Mof_C 	C 	0.7583	0.3904	0.01305	0.054
Mof_C 	C 	0.8028	0.43245	0.03264	-0.127
Mof_H 	H 	0.794	0.4631	0.0095	0.083
Mof_C 	C 	0.8601	0.4288	0.08639	0.08
Mof_H 	H 	0.8911	0.4576	0.0992	0.003
Mof_C 	C 	0.5328	0.21698	0.89285	0.077
Mof_H 	H 	0.5312	0.1907	0.9257	0.003
Mof_C 	C 	0.5662	0.26199	0.91324	-0.123
Mof_H 	H 	0.5868	0.2664	0.9592	0.078
Mof_C 	C 	0.5695	0.3005	0.86587	0.053
Mof_C 	C 	0.5364	0.2926	0.79977	-0.122
Mof_H 	H 	0.5357	0.3185	0.7664	0.079
Mof_C 	C 	0.5047	0.24644	0.78385	0.074
Mof_H 	H 	0.4831	0.241	0.7384	0.002
Mof_C 	C 	0.5406	0.5196	0.73799	0.073
Mof_H 	H 	0.505	0.5188	0.6982	0.003
Mof_C 	C 	0.5597	0.47527	0.77032	-0.123
Mof_H 	H 	0.5379	0.4449	0.7528	0.079
Mof_C 	C 	0.6112	0.47568	0.82889	0.054
Mof_C 	C 	0.6425	0.52085	0.85102	-0.123
Mof_H 	H 	0.6789	0.5226	0.8903	0.081
Mof_C 	C 	0.6205	0.56329	0.8158	0.072
Mof_H 	H 	0.6424	0.594	0.8319	0.006
Mof_C 	C 	0.6978	0.39054	0.95456	0.1
Mof_C 	C 	0.6096	0.34811	0.88453	0.102
Mof_C 	C 	0.6309	0.42956	0.86686	0.1
Mof_Fe	Fe	0.04134	0.882	0.28746	0.608
Mof_Fe	Fe	0.53448	0.63332	0.70634	0.612
Mof_S 	S 	0.31931	0.56226	0.55448	-0.056
Mof_S 	S 	0.76484	0.72078	0.81668	-0.043
Mof_S 	S 	0.28149	0.78398	0.21409	-0.051
Mof_S 	S 	0.84529	0.93735	0.46182	-0.055
Mof_C 	C 	0.2002	0.8203	0.22695	0.087
Mof_C 	C 	0.9025	0.92501	0.39327	0.09
Mof_C 	C 	0.3943	0.5833	0.6044	0.088
Mof_C 	C 	0.6817	0.69158	0.7887	0.089
Mof_N 	N 	0.14234	0.84573	0.23583	-0.194
Mof_N 	N 	0.94374	0.91553	0.34533	-0.195
Mof_N 	N 	0.44785	0.59817	0.64048	-0.197
Mof_N 	N 	0.62288	0.67062	0.7685	-0.196
Mof_N 	N 	0.62983	0.62819	0.62338	-0.181
Mof_N 	N 	0.99923	0.8082	0.32342	-0.182
Mof_N 	N 	0.9206	0.4546	0.25591	-0.184
Mof_N 	N 	0.84398	0.67051	0.44041	-0.14
Mof_N 	N 	0.81576	0.58551	0.41961	-0.14
Mof_N 	N 	0.91259	0.62913	0.34771	-0.14
Mof_C 	C 	0.6741	0.66887	0.60661	0.075
Mof_H 	H 	0.666	0.6981	0.6333	0.005
Mof_C 	C 	0.7309	0.67003	0.55226	-0.124
Mof_H 	H 	0.7607	0.6997	0.5416	0.079
Mof_C 	C 	0.74415	0.62758	0.51343	0.054
Mof_C 	C 	0.6987	0.58513	0.53105	-0.125
Mof_H 	H 	0.7065	0.5553	0.5057	0.081
Mof_C 	C 	0.6424	0.58699	0.58569	0.078
Mof_H 	H 	0.6112	0.558	0.5971	0.003
Mof_C 	C 	0.9683	0.80118	0.38739	0.076
Mof_H 	H 	0.9682	0.8285	0.4186	0.004
Mof_C 	C 	0.9366	0.75634	0.41063	-0.122
Mof_H 	H 	0.9159	0.7529	0.4567	0.079
Mof_C 	C 	0.93583	0.71664	0.36507	0.053
Mof_C 	C 	0.9694	0.72305	0.29874	-0.12
Mof_H 	H 	0.9711	0.6962	0.2669	0.079
Mof_C 	C 	0.0001	0.76908	0.28011	0.071
Mof_H 	H 	0.0228	0.7733	0.2348	0.001
Mof_C 	C 	0.9722	0.49375	0.25085	0.071
Mof_H 	H 	0.021	0.491	0.2222	0.006
Mof_C 	C 	0.9583	0.5381	0.28504	-0.122
Mof_H 	H 	0.996	0.5652	0.2792	0.08
Mof_C 	C 	0.8881	0.54204	0.32808	0.054
Mof_C 	C 	0.8345	0.50168	0.33429	-0.124
Mof_H 	H 	0.7862	0.5032	0.3637	0.081
Mof_C 	C 	0.8525	0.45931	0.29712	0.073
Mof_H 	H 	0.8147	0.432	0.3009	0.005
Mof_C 	C 	0.805	0.62774	0.45467	0.099
Mof_C 	C 	0.8956	0.66928	0.38581	0.102
Mof_C 	C 	0.8712	0.5882	0.36741	0.1
Mof_N 	N 	0.12562	0.88697	0.37847	-0.181
Mof_N 	N 	0.49731	0.70873	0.67078	-0.182
Mof_N 	N 	0.43039	0.06346	0.74034	-0.184
Mof_N 	N 	0.3393	0.84743	0.56052	-0.141
Mof_N 	N 	0.40683	0.88776	0.65442	-0.14
Mof_N 	N 	0.31641	0.93303	0.57889	-0.139
Mof_C 	C 	0.1684	0.84637	0.39778	0.075
Mof_H 	H 	0.1583	0.8162	0.3736	0.004
Mof_C 	C 	0.2263	0.84653	0.45118	-0.125
Mof_H 	H 	0.2555	0.817	0.4635	0.08
Mof_C 	C 	0.2417	0.8904	0.48695	0.054
Mof_C 	C 	0.1972	0.93245	0.46736	-0.127
Mof_H 	H 	0.206	0.9631	0.4905	0.083
Mof_C 	C 	0.1399	0.9288	0.41361	0.08
Mof_H 	H 	0.1089	0.9576	0.4008	0.003
Mof_C 	C 	0.4672	0.71698	0.60715	0.077
Mof_H 	H 	0.4688	0.6907	0.5743	0.003
Mof_C 	C 	0.4338	0.76199	0.58676	-0.123
Mof_H 	H 	0.4132	0.7664	0.5408	0.078
Mof_C 	C 	0.4305	0.8005	0.63413	0.053
Mof_C 	C 	0.4636	0.7926	0.70023	-0.122
Mof_H 	H 	0.4643	0.8185	0.7336	0.079
Mof_C 	C 	0.4953	0.74644	0.71615	0.074
Mof_H 	H 	0.5169	0.741	0.7616	0.002
Mof_C 	C 	0.4594	0.0196	0.76201	0.073
Mof_H 	H 	0.495	0.0188	0.8018	0.003
Mof_C 	C 	0.4403	0.97527	0.72968	-0.122
Mof_H 	H 	0.4621	0.9449	0.7472	0.079
Mof_C 	C 	0.3888	0.97568	0.67111	0.053
Mof_C 	C 	0.3575	0.02085	0.64898	-0.123
Mof_H 	H 	0.3211	0.0226	0.6097	0.081
Mof_C 	C 	0.3795	0.06329	0.6842	0.072
Mof_H 	H 	0.3576	0.094	0.6681	0.006
Mof_C 	C 	0.3022	0.89054	0.54544	0.1
Mof_C 	C 	0.3904	0.84811	0.61547	0.102
Mof_C 	C 	0.3691	0.92956	0.63314	0.1
_end
