data_functionalizedCrystal
_audit_creation_method	'EQeq! by Chris Wilmer'
_symmetry_space_group_name_H-M	'P1'
_symmetry_Int_Tables_number	1
_symmetry_cell_setting	triclinic
loop_
_symmetry_equiv_pos_as_xyz
  x,y,z
_cell_length_a	10.7836
_cell_length_b	32.4156
_cell_length_c	32.4156
_cell_angle_alpha	88.4146
_cell_angle_beta	80.4253
_cell_angle_gamma	80.4253
loop_
_atom_site_label
_atom_site_type_symbol
_atom_site_fract_x
_atom_site_fract_y
_atom_site_fract_z
_atom_site_charge
Mof_Gd	Gd	0.80821	0.17183	0.97377	1.638
Mof_Gd	Gd	0.30507	0.17527	0.97552	1.654
Mof_Gd	Gd	0.45382	0.32817	0.52622	1.638
Mof_Gd	Gd	0.95585	0.32473	0.52448	1.652
Mof_Gd	Gd	0.78199	0.02622	0.67183	1.639
Mof_Gd	Gd	0.28058	0.02448	0.67527	1.654
Mof_Gd	Gd	0.98003	0.47378	0.82818	1.633
Mof_Gd	Gd	0.48034	0.47552	0.82472	1.654
Mof_Gd	Gd	0.1918	0.82817	0.02622	1.638
Mof_Gd	Gd	0.69494	0.82473	0.02447	1.654
Mof_Gd	Gd	0.54618	0.67183	0.47378	1.638
Mof_Gd	Gd	0.04415	0.67527	0.47552	1.652
Mof_Gd	Gd	0.21801	0.97378	0.32818	1.639
Mof_Gd	Gd	0.71942	0.97552	0.32473	1.656
Mof_Gd	Gd	0.01997	0.52622	0.17183	1.634
Mof_Gd	Gd	0.51966	0.52448	0.17528	1.655
Mof_Co	Co	0.29358	0.03489	0.12759	1.127
Mof_Co	Co	0.95606	0.46511	0.37241	1.127
Mof_Co	Co	0.42117	0.87241	0.53489	1.127
Mof_Co	Co	0.32847	0.62759	0.96511	1.127
Mof_Co	Co	0.70642	0.96511	0.87241	1.127
Mof_Co	Co	0.04394	0.53489	0.62759	1.127
Mof_Co	Co	0.57883	0.12759	0.46511	1.127
Mof_Co	Co	0.67153	0.37241	0.03489	1.127
Mof_H 	H 	0.0648	0.0842	0.1856	-0.005
Mof_H 	H 	0.0434	0.1277	0.2415	0.098
Mof_H 	H 	0.2086	0.1247	0.2783	0.026
Mof_H 	H 	0.6837	0.956	0.2096	-0.022
Mof_H 	H 	0.7345	0.9621	0.1385	0.108
Mof_H 	H 	0.5895	0.0007	0.1027	-0.029
Mof_H 	H 	0.2535	0.9708	0.201	-0.019
Mof_H 	H 	0.3518	0.9038	0.2116	0.114
Mof_H 	H 	0.4707	0.8671	0.1551	0.012
Mof_H 	H 	0.3018	0.9603	0.9729	-0.008
Mof_H 	H 	0.3405	0.0275	0.9715	0.112
Mof_H 	H 	0.3632	0.058	0.0316	-0.025
Mof_H 	H 	0.0562	0.995	0.1126	-0.031
Mof_H 	H 	0.9385	0.0019	0.0601	0.115
Mof_H 	H 	0.9409	0.0603	0.0185	-0.022
Mof_H 	H 	0.1615	0.2084	0.1288	0.026
Mof_H 	H 	0.3544	0.1796	0.1484	0.099
Mof_H 	H 	0.4241	0.1098	0.1382	-0.006
Mof_H 	H 	0.9524	0.3682	0.8754	-0.029
Mof_H 	H 	0.0342	0.374	0.9294	0.167
Mof_H 	H 	0.1007	0.3112	0.9578	-0.037
Mof_H 	H 	0.1206	0.1351	0.8513	0.029
Mof_H 	H 	0.2731	0.1352	0.7874	0.095
Mof_H 	H 	0.2566	0.2018	0.7592	0.022
Mof_H 	H 	0.8346	0.4158	0.3144	-0.004
Mof_H 	H 	0.9126	0.3723	0.2585	0.097
Mof_H 	H 	0.1116	0.3753	0.2217	0.027
Mof_H 	H 	0.3493	0.544	0.2904	-0.022
Mof_H 	H 	0.3351	0.5379	0.3615	0.108
Mof_H 	H 	0.1929	0.4993	0.3973	-0.029
Mof_H 	H 	0.9253	0.5292	0.299	-0.019
Mof_H 	H 	0.9672	0.5962	0.2884	0.115
Mof_H 	H 	0.9929	0.6329	0.3449	0.012
Mof_H 	H 	0.735	0.5397	0.5271	-0.008
Mof_H 	H 	0.8395	0.4725	0.5285	0.112
Mof_H 	H 	0.9528	0.442	0.4684	-0.025
Mof_H 	H 	0.6638	0.505	0.3874	-0.032
Mof_H 	H 	0.5005	0.4981	0.4399	0.116
Mof_H 	H 	0.5197	0.4397	0.4815	-0.023
Mof_H 	H 	0.9987	0.2916	0.3712	0.026
Mof_H 	H 	0.1824	0.3204	0.3516	0.099
Mof_H 	H 	0.1721	0.3902	0.3618	-0.005
Mof_H 	H 	0.696	0.1318	0.6246	-0.033
Mof_H 	H 	0.8376	0.126	0.5706	0.173
Mof_H 	H 	0.8697	0.1888	0.5422	-0.041
Mof_H 	H 	0.607	0.3649	0.6487	0.028
Mof_H 	H 	0.6957	0.3648	0.7126	0.095
Mof_H 	H 	0.7176	0.2982	0.7408	0.021
Mof_H 	H 	0.2504	0.8144	0.5842	-0.004
Mof_H 	H 	0.2849	0.7585	0.6277	0.098
Mof_H 	H 	0.4869	0.7217	0.6247	0.026
Mof_H 	H 	0.8933	0.7904	0.456	-0.021
Mof_H 	H 	0.873	0.8615	0.4621	0.109
Mof_H 	H 	0.6922	0.8973	0.5007	-0.029
Mof_H 	H 	0.4545	0.799	0.4708	-0.019
Mof_H 	H 	0.5634	0.7884	0.4038	0.114
Mof_H 	H 	0.6258	0.8449	0.3671	0.012
Mof_H 	H 	0.2747	0.0271	0.4603	-0.008
Mof_H 	H 	0.312	0.0285	0.5275	0.112
Mof_H 	H 	0.3948	0.9684	0.558	-0.025
Mof_H 	H 	0.1688	0.8874	0.495	-0.033
Mof_H 	H 	0.9986	0.9399	0.5019	0.118
Mof_H 	H 	0.9594	0.9815	0.5603	-0.024
Mof_H 	H 	0.2903	0.8712	0.7084	0.026
Mof_H 	H 	0.5028	0.8516	0.6796	0.099
Mof_H 	H 	0.5623	0.8618	0.6098	-0.006
Mof_H 	H 	0.8278	0.1246	0.8682	-0.034
Mof_H 	H 	0.9636	0.0706	0.874	0.175
Mof_H 	H 	0.0585	0.0422	0.8112	-0.042
Mof_H 	H 	0.9719	0.1487	0.6351	0.029
Mof_H 	H 	0.0605	0.2126	0.6352	0.095
Mof_H 	H 	0.0158	0.2408	0.7018	0.021
Mof_H 	H 	0.149	0.6856	0.9158	-0.004
Mof_H 	H 	0.1711	0.7415	0.8723	0.098
Mof_H 	H 	0.3333	0.7783	0.8753	0.026
Mof_H 	H 	0.6397	0.7096	0.044	-0.022
Mof_H 	H 	0.6966	0.6385	0.0379	0.108
Mof_H 	H 	0.5902	0.6027	0.9993	-0.029
Mof_H 	H 	0.2243	0.701	0.0292	-0.019
Mof_H 	H 	0.2556	0.7116	0.0962	0.114
Mof_H 	H 	0.3378	0.6551	0.1329	0.012
Mof_H 	H 	0.2621	0.4729	0.0397	-0.008
Mof_H 	H 	0.368	0.4715	0.9725	0.112
Mof_H 	H 	0.4212	0.5316	0.942	-0.025
Mof_H 	H 	0.0512	0.6126	0.005	-0.033
Mof_H 	H 	0.9404	0.5601	0.9981	0.116
Mof_H 	H 	0.0012	0.5185	0.9397	-0.023
Mof_H 	H 	0.3699	0.6288	0.7916	0.026
Mof_H 	H 	0.534	0.6484	0.8204	0.099
Mof_H 	H 	0.5339	0.6382	0.8902	-0.006
Mof_H 	H 	0.3206	0.3754	0.6318	-0.033
Mof_H 	H 	0.4082	0.4294	0.626	0.173
Mof_H 	H 	0.4119	0.4578	0.6888	-0.041
Mof_H 	H 	0.2557	0.3513	0.8649	0.029
Mof_H 	H 	0.4083	0.2874	0.8648	0.095
Mof_H 	H 	0.4584	0.2592	0.7982	0.021
Mof_H 	H 	0.9352	0.9158	0.8144	-0.005
Mof_H 	H 	0.9566	0.8723	0.7585	0.098
Mof_H 	H 	0.7914	0.8753	0.7217	0.026
Mof_H 	H 	0.3163	0.044	0.7904	-0.022
Mof_H 	H 	0.2655	0.0379	0.8615	0.108
Mof_H 	H 	0.4105	0.9993	0.8973	-0.029
Mof_H 	H 	0.7465	0.0292	0.799	-0.019
Mof_H 	H 	0.6482	0.0962	0.7884	0.114
Mof_H 	H 	0.5293	0.1329	0.8449	0.012
Mof_H 	H 	0.6982	0.0397	0.0271	-0.008
Mof_H 	H 	0.6595	0.9725	0.0285	0.112
Mof_H 	H 	0.6368	0.942	0.9684	-0.025
Mof_H 	H 	0.9438	0.005	0.8874	-0.031
Mof_H 	H 	0.0615	0.9981	0.9399	0.115
Mof_H 	H 	0.0591	0.9397	0.9815	-0.022
Mof_H 	H 	0.8385	0.7916	0.8712	0.026
Mof_H 	H 	0.6456	0.8204	0.8516	0.099
Mof_H 	H 	0.5759	0.8902	0.8618	-0.006
Mof_H 	H 	0.0476	0.6318	0.1246	-0.029
Mof_H 	H 	0.9658	0.626	0.0706	0.167
Mof_H 	H 	0.8993	0.6888	0.0422	-0.037
Mof_H 	H 	0.8794	0.8649	0.1487	0.029
Mof_H 	H 	0.7269	0.8648	0.2126	0.095
Mof_H 	H 	0.7434	0.7982	0.2408	0.022
Mof_H 	H 	0.1654	0.5842	0.6856	-0.004
Mof_H 	H 	0.0874	0.6277	0.7415	0.097
Mof_H 	H 	0.8884	0.6247	0.7783	0.027
Mof_H 	H 	0.6507	0.456	0.7096	-0.022
Mof_H 	H 	0.6649	0.4621	0.6385	0.108
Mof_H 	H 	0.8071	0.5007	0.6027	-0.029
Mof_H 	H 	0.0747	0.4708	0.701	-0.019
Mof_H 	H 	0.0328	0.4038	0.7116	0.115
Mof_H 	H 	0.0071	0.3671	0.6551	0.012
Mof_H 	H 	0.265	0.4603	0.4729	-0.008
Mof_H 	H 	0.1605	0.5275	0.4715	0.112
Mof_H 	H 	0.0472	0.558	0.5316	-0.025
Mof_H 	H 	0.3362	0.495	0.6126	-0.032
Mof_H 	H 	0.4995	0.5019	0.5601	0.116
Mof_H 	H 	0.4803	0.5603	0.5185	-0.023
Mof_H 	H 	0.0013	0.7084	0.6288	0.026
Mof_H 	H 	0.8176	0.6796	0.6484	0.099
Mof_H 	H 	0.8279	0.6098	0.6382	-0.005
Mof_H 	H 	0.304	0.8682	0.3754	-0.033
Mof_H 	H 	0.1624	0.874	0.4294	0.173
Mof_H 	H 	0.1303	0.8112	0.4578	-0.041
Mof_H 	H 	0.393	0.6351	0.3513	0.028
Mof_H 	H 	0.3043	0.6352	0.2874	0.095
Mof_H 	H 	0.2824	0.7018	0.2592	0.021
Mof_H 	H 	0.7496	0.1856	0.4158	-0.004
Mof_H 	H 	0.7151	0.2415	0.3723	0.098
Mof_H 	H 	0.5131	0.2783	0.3753	0.026
Mof_H 	H 	0.1067	0.2096	0.544	-0.021
Mof_H 	H 	0.127	0.1385	0.5379	0.109
Mof_H 	H 	0.3078	0.1027	0.4993	-0.029
Mof_H 	H 	0.5455	0.201	0.5292	-0.019
Mof_H 	H 	0.4366	0.2116	0.5962	0.114
Mof_H 	H 	0.3742	0.1551	0.6329	0.012
Mof_H 	H 	0.7253	0.9729	0.5397	-0.008
Mof_H 	H 	0.688	0.9715	0.4725	0.112
Mof_H 	H 	0.6052	0.0316	0.442	-0.025
Mof_H 	H 	0.8312	0.1126	0.505	-0.033
Mof_H 	H 	0.0014	0.0601	0.4981	0.118
Mof_H 	H 	0.0406	0.0185	0.4397	-0.024
Mof_H 	H 	0.7097	0.1288	0.2916	0.026
Mof_H 	H 	0.4972	0.1484	0.3204	0.099
Mof_H 	H 	0.4377	0.1382	0.3902	-0.006
Mof_H 	H 	0.1722	0.8754	0.1318	-0.034
Mof_H 	H 	0.0364	0.9294	0.126	0.175
Mof_H 	H 	0.9415	0.9578	0.1888	-0.042
Mof_H 	H 	0.0281	0.8513	0.3649	0.029
Mof_H 	H 	0.9395	0.7874	0.3648	0.095
Mof_H 	H 	0.9842	0.7592	0.2982	0.021
Mof_H 	H 	0.851	0.3144	0.0842	-0.004
Mof_H 	H 	0.8289	0.2585	0.1277	0.098
Mof_H 	H 	0.6667	0.2217	0.1247	0.026
Mof_H 	H 	0.3603	0.2904	0.956	-0.022
Mof_H 	H 	0.3034	0.3615	0.9621	0.108
Mof_H 	H 	0.4098	0.3973	0.0007	-0.029
Mof_H 	H 	0.7757	0.299	0.9708	-0.019
Mof_H 	H 	0.7444	0.2884	0.9038	0.114
Mof_H 	H 	0.6622	0.3449	0.8671	0.012
Mof_H 	H 	0.7379	0.5271	0.9603	-0.008
Mof_H 	H 	0.632	0.5285	0.0275	0.112
Mof_H 	H 	0.5788	0.4684	0.058	-0.025
Mof_H 	H 	0.9488	0.3874	0.995	-0.033
Mof_H 	H 	0.0596	0.4399	0.0019	0.116
Mof_H 	H 	0.9988	0.4815	0.0603	-0.023
Mof_H 	H 	0.6301	0.3712	0.2084	0.026
Mof_H 	H 	0.466	0.3516	0.1796	0.099
Mof_H 	H 	0.4661	0.3618	0.1098	-0.006
Mof_H 	H 	0.6794	0.6246	0.3682	-0.033
Mof_H 	H 	0.5918	0.5706	0.374	0.173
Mof_H 	H 	0.5881	0.5422	0.3112	-0.041
Mof_H 	H 	0.7443	0.6487	0.1351	0.029
Mof_H 	H 	0.5917	0.7126	0.1352	0.095
Mof_H 	H 	0.5416	0.7408	0.2018	0.021
Mof_C 	C 	0.1318	0.0831	0.2005	0.092
Mof_C 	C 	0.48405	0.98916	0.26154	0.56
Mof_C 	C 	0.181	0.2411	0.9299	0.384
Mof_C 	C 	0.1185	0.109	0.2338	-0.141
Mof_C 	C 	0.216	0.1071	0.2555	0.067
Mof_C 	C 	0.32546	0.07925	0.24383	-0.115
Mof_C 	C 	0.43481	0.07839	0.26799	0.332
Mof_C 	C 	0.33388	0.05377	0.21027	0.055
Mof_C 	C 	0.44676	0.02374	0.19334	0.118
Mof_C 	C 	0.9772	0.1946	0.9052	0.451
Mof_C 	C 	0.52246	0.99714	0.21594	-0.238
Mof_C 	C 	0.62971	0.97389	0.19489	0.171
Mof_C 	C 	0.6583	0.9765	0.1529	-0.223
Mof_C 	C 	0.5736	0.0005	0.1319	0.135
Mof_C 	C 	0.2959	0.9547	0.1781	0.122
Mof_C 	C 	0.3567	0.9152	0.1848	-0.18
Mof_C 	C 	0.4241	0.8934	0.1512	0.099
Mof_C 	C 	0.4249	0.9091	0.1117	-0.147
Mof_C 	C 	0.3529	0.9474	0.1072	0.068
Mof_C 	C 	0.3427	0.9682	0.0672	0.077
Mof_C 	C 	0.31732	0.94948	0.03288	-0.153
Mof_C 	C 	0.31659	0.97221	0.99701	0.114
Mof_C 	C 	0.33741	0.01224	0.99634	-0.196
Mof_C 	C 	0.3535	0.03	0.0318	0.136
Mof_C 	C 	0.27572	0.90788	0.03488	0.367
Mof_C 	C 	0.5141	0.8856	0.0766	0.362
Mof_C 	C 	0.053	0.0192	0.0964	0.148
Mof_C 	C 	0.9847	0.0225	0.0651	-0.234
Mof_C 	C 	0.9859	0.0573	0.0409	0.175
Mof_C 	C 	0.05222	0.0883	0.04846	-0.248
Mof_C 	C 	0.11011	0.08369	0.08369	0.12
Mof_C 	C 	0.17451	0.1146	0.09998	0.051
Mof_C 	C 	0.12842	0.15612	0.10544	-0.118
Mof_C 	C 	0.19365	0.18017	0.12413	0.065
Mof_C 	C 	0.30706	0.16318	0.1363	-0.143
Mof_C 	C 	0.3474	0.12178	0.13002	0.093
Mof_C 	C 	0.00542	0.17598	0.09198	0.318
Mof_C 	C 	0.06392	0.12275	0.01821	0.572
Mof_C 	C 	0.9998	0.3437	0.8837	0.224
Mof_C 	C 	0.0377	0.3484	0.9166	-0.336
Mof_C 	C 	0.0836	0.312	0.9306	0.21
Mof_C 	C 	0.1094	0.2746	0.9092	-0.21
Mof_C 	C 	0.0801	0.2703	0.8715	0.107
Mof_C 	C 	0.1139	0.2325	0.8471	0.094
Mof_C 	C 	0.0741	0.1992	0.8644	-0.139
Mof_C 	C 	0.1383	0.1606	0.84	0.053
Mof_C 	C 	0.2248	0.159	0.8008	-0.136
Mof_C 	C 	0.222	0.199	0.7872	0.094
Mof_C 	C 	0.9154	0.4169	0.2995	0.09
Mof_C 	C 	0.23475	0.51084	0.23846	0.56
Mof_C 	C 	0.852	0.2589	0.5701	0.386
Mof_C 	C 	0.9613	0.391	0.2662	-0.136
Mof_C 	C 	0.0786	0.3929	0.2445	0.062
Mof_C 	C 	0.14854	0.42075	0.25617	-0.113
Mof_C 	C 	0.28119	0.42161	0.23201	0.331
Mof_C 	C 	0.09792	0.44623	0.28973	0.053
Mof_C 	C 	0.16384	0.47626	0.30666	0.118
Mof_C 	C 	0.577	0.3054	0.5948	0.453
Mof_C 	C 	0.23554	0.50286	0.28406	-0.239
Mof_C 	C 	0.29849	0.52611	0.30511	0.171
Mof_C 	C 	0.2877	0.5235	0.3471	-0.223
Mof_C 	C 	0.206	0.4995	0.3681	0.135
Mof_C 	C 	0.9287	0.5453	0.3219	0.123
Mof_C 	C 	0.9567	0.5848	0.3152	-0.18
Mof_C 	C 	0.9687	0.6066	0.3488	0.1
Mof_C 	C 	0.9457	0.5909	0.3883	-0.147
Mof_C 	C 	0.9075	0.5526	0.3928	0.068
Mof_C 	C 	0.8781	0.5318	0.4328	0.077
Mof_C 	C 	0.79968	0.55052	0.46712	-0.153
Mof_C 	C 	0.78581	0.52779	0.50299	0.114
Mof_C 	C 	0.84599	0.48776	0.50366	-0.196
Mof_C 	C 	0.9153	0.47	0.4682	0.136
Mof_C 	C 	0.71848	0.59212	0.46512	0.367
Mof_C 	C 	0.9763	0.6144	0.4234	0.364
Mof_C 	C 	0.6686	0.4808	0.4036	0.15
Mof_C 	C 	0.5723	0.4775	0.4349	-0.236
Mof_C 	C 	0.5841	0.4427	0.4591	0.176
Mof_C 	C 	0.68898	0.4117	0.45154	-0.248
Mof_C 	C 	0.77749	0.41631	0.41631	0.12
Mof_C 	C 	0.88909	0.3854	0.40002	0.051
Mof_C 	C 	0.88998	0.34388	0.39456	-0.118
Mof_C 	C 	0.99795	0.31983	0.37587	0.065
Mof_C 	C 	0.10654	0.33682	0.3637	-0.143
Mof_C 	C 	0.0992	0.37822	0.36998	0.093
Mof_C 	C 	0.77338	0.32402	0.40802	0.318
Mof_C 	C 	0.70488	0.37725	0.48179	0.571
Mof_C 	C 	0.7272	0.1563	0.6163	0.24
Mof_C 	C 	0.8027	0.1516	0.5834	-0.354
Mof_C 	C 	0.8262	0.188	0.5694	0.221
Mof_C 	C 	0.7932	0.2254	0.5908	-0.216
Mof_C 	C 	0.7219	0.2297	0.6285	0.109
Mof_C 	C 	0.6935	0.2675	0.6529	0.094
Mof_C 	C 	0.6377	0.3008	0.6356	-0.141
Mof_C 	C 	0.6389	0.3394	0.66	0.053
Mof_C 	C 	0.6846	0.341	0.6992	-0.137
Mof_C 	C 	0.7082	0.301	0.7128	0.094
Mof_C 	C 	0.3323	0.7995	0.5831	0.092
Mof_C 	C 	0.74559	0.73846	0.48916	0.559
Mof_C 	C 	0.1109	0.0701	0.7411	0.386
Mof_C 	C 	0.3523	0.7662	0.609	-0.141
Mof_C 	C 	0.4715	0.7445	0.6071	0.067
Mof_C 	C 	0.56929	0.75617	0.57925	-0.115
Mof_C 	C 	0.7028	0.73201	0.57839	0.332
Mof_C 	C 	0.54415	0.78973	0.55377	0.055
Mof_C 	C 	0.6401	0.80666	0.52374	0.118
Mof_C 	C 	0.8824	0.0948	0.6946	0.453
Mof_C 	C 	0.7384	0.78406	0.49714	-0.238
Mof_C 	C 	0.8246	0.80511	0.47389	0.17
Mof_C 	C 	0.8112	0.8471	0.4765	-0.223
Mof_C 	C 	0.7055	0.8681	0.5005	0.135
Mof_C 	C 	0.474	0.8219	0.4547	0.122
Mof_C 	C 	0.5415	0.8152	0.4152	-0.18
Mof_C 	C 	0.5753	0.8488	0.3934	0.099
Mof_C 	C 	0.5366	0.8883	0.4091	-0.147
Mof_C 	C 	0.4601	0.8928	0.4474	0.068
Mof_C 	C 	0.4099	0.9328	0.4682	0.077
Mof_C 	C 	0.3502	0.96712	0.44948	-0.153
Mof_C 	C 	0.3136	0.00299	0.47221	0.114
Mof_C 	C 	0.33375	0.00366	0.51224	-0.196
Mof_C 	C 	0.3853	0.9682	0.53	0.137
Mof_C 	C 	0.3106	0.96512	0.40788	0.367
Mof_C 	C 	0.5907	0.9234	0.3856	0.362
Mof_C 	C 	0.1494	0.9036	0.5192	0.152
Mof_C 	C 	0.0498	0.9349	0.5225	-0.239
Mof_C 	C 	0.0268	0.9591	0.5573	0.179
Mof_C 	C 	0.10068	0.95154	0.5883	-0.25
Mof_C 	C 	0.1938	0.91631	0.58369	0.121
Mof_C 	C 	0.27449	0.90002	0.6146	0.051
Mof_C 	C 	0.23386	0.89456	0.65612	-0.118
Mof_C 	C 	0.31778	0.87587	0.68017	0.065
Mof_C 	C 	0.44336	0.8637	0.66318	-0.143
Mof_C 	C 	0.47742	0.86998	0.62178	0.093
Mof_C 	C 	0.0974	0.90802	0.67598	0.318
Mof_C 	C 	0.08213	0.98179	0.62275	0.573
Mof_C 	C 	0.8835	0.1163	0.8437	0.242
Mof_C 	C 	0.9543	0.0834	0.8484	-0.359
Mof_C 	C 	0.0142	0.0694	0.812	0.225
Mof_C 	C 	0.0186	0.0908	0.7746	-0.214
Mof_C 	C 	0.9516	0.1285	0.7703	0.107
Mof_C 	C 	0.961	0.1529	0.7325	0.093
Mof_C 	C 	0.9385	0.1356	0.6992	-0.14
Mof_C 	C 	0.9783	0.16	0.6606	0.05
Mof_C 	C 	0.0256	0.1992	0.659	-0.133
Mof_C 	C 	0.0092	0.2128	0.699	0.096
Mof_C 	C 	0.2149	0.7005	0.9169	0.092
Mof_C 	C 	0.47321	0.76154	0.01084	0.56
Mof_C 	C 	0.4221	0.4299	0.7589	0.386
Mof_C 	C 	0.2275	0.7338	0.891	-0.141
Mof_C 	C 	0.3231	0.7555	0.8929	0.067
Mof_C 	C 	0.40471	0.74383	0.92075	-0.115
Mof_C 	C 	0.5132	0.76799	0.92161	0.332
Mof_C 	C 	0.38765	0.71027	0.94623	0.055
Mof_C 	C 	0.4705	0.69334	0.97626	0.118
Mof_C 	C 	0.1718	0.4052	0.8054	0.453
Mof_C 	C 	0.5196	0.71594	0.00286	-0.238
Mof_C 	C 	0.6036	0.69489	0.02611	0.171
Mof_C 	C 	0.6348	0.6529	0.0235	-0.223
Mof_C 	C 	0.5741	0.6319	0.9995	0.135
Mof_C 	C 	0.2506	0.6781	0.0453	0.122
Mof_C 	C 	0.2719	0.6848	0.0848	-0.18
Mof_C 	C 	0.3175	0.6512	0.1066	0.099
Mof_C 	C 	0.334	0.6117	0.0909	-0.147
Mof_C 	C 	0.3003	0.6072	0.0526	0.067
Mof_C 	C 	0.3109	0.5672	0.0318	0.077
Mof_C 	C 	0.2668	0.53288	0.05052	-0.153
Mof_C 	C 	0.2888	0.49701	0.02779	0.114
Mof_C 	C 	0.34965	0.49634	0.98776	-0.196
Mof_C 	C 	0.3835	0.5318	0.97	0.136
Mof_C 	C 	0.1836	0.53488	0.09212	0.367
Mof_C 	C 	0.3997	0.5766	0.1144	0.362
Mof_C 	C 	0.0722	0.5964	0.9808	0.151
Mof_C 	C 	0.0072	0.5651	0.9775	-0.237
Mof_C 	C 	0.0432	0.5409	0.9427	0.176
Mof_C 	C 	0.14052	0.54846	0.9117	-0.248
Mof_C 	C 	0.1938	0.58369	0.91631	0.12
Mof_C 	C 	0.28911	0.59998	0.8854	0.051
Mof_C 	C 	0.28454	0.60544	0.84388	-0.118
Mof_C 	C 	0.37382	0.62413	0.81983	0.065
Mof_C 	C 	0.47024	0.6363	0.83682	-0.143
Mof_C 	C 	0.46918	0.63002	0.87822	0.093
Mof_C 	C 	0.1814	0.59198	0.82402	0.318
Mof_C 	C 	0.18667	0.51821	0.87725	0.571
Mof_C 	C 	0.3435	0.3837	0.6563	0.24
Mof_C 	C 	0.3861	0.4166	0.6516	-0.354
Mof_C 	C 	0.3956	0.4306	0.688	0.221
Mof_C 	C 	0.384	0.4092	0.7254	-0.216
Mof_C 	C 	0.3504	0.3715	0.7297	0.109
Mof_C 	C 	0.3464	0.3471	0.7675	0.094
Mof_C 	C 	0.2733	0.3644	0.8008	-0.141
Mof_C 	C 	0.2989	0.34	0.8394	0.053
Mof_C 	C 	0.3838	0.3008	0.841	-0.137
Mof_C 	C 	0.421	0.2872	0.801	0.094
Mof_C 	C 	0.8682	0.9169	0.7995	0.092
Mof_C 	C 	0.51595	0.01084	0.73846	0.56
Mof_C 	C 	0.819	0.7589	0.0701	0.384
Mof_C 	C 	0.8815	0.891	0.7662	-0.141
Mof_C 	C 	0.784	0.8929	0.7445	0.067
Mof_C 	C 	0.67454	0.92075	0.75617	-0.115
Mof_C 	C 	0.56519	0.92161	0.73201	0.332
Mof_C 	C 	0.66612	0.94623	0.78973	0.055
Mof_C 	C 	0.55324	0.97626	0.80666	0.118
Mof_C 	C 	0.0228	0.8054	0.0948	0.451
Mof_C 	C 	0.47754	0.00286	0.78406	-0.238
Mof_C 	C 	0.37029	0.02611	0.80511	0.171
Mof_C 	C 	0.3417	0.0235	0.8471	-0.223
Mof_C 	C 	0.4264	0.9995	0.8681	0.135
Mof_C 	C 	0.7041	0.0453	0.8219	0.122
Mof_C 	C 	0.6433	0.0848	0.8152	-0.18
Mof_C 	C 	0.5759	0.1066	0.8488	0.099
Mof_C 	C 	0.5751	0.0909	0.8883	-0.147
Mof_C 	C 	0.6471	0.0526	0.8928	0.068
Mof_C 	C 	0.6573	0.0318	0.9328	0.077
Mof_C 	C 	0.68268	0.05052	0.96712	-0.153
Mof_C 	C 	0.68341	0.02779	0.00299	0.114
Mof_C 	C 	0.66259	0.98776	0.00366	-0.196
Mof_C 	C 	0.6465	0.97	0.9682	0.136
Mof_C 	C 	0.72428	0.09212	0.96512	0.367
Mof_C 	C 	0.4859	0.1144	0.9234	0.362
Mof_C 	C 	0.947	0.9808	0.9036	0.148
Mof_C 	C 	0.0153	0.9775	0.9349	-0.234
Mof_C 	C 	0.0141	0.9427	0.9591	0.175
Mof_C 	C 	0.94778	0.9117	0.95154	-0.248
Mof_C 	C 	0.88989	0.91631	0.91631	0.12
Mof_C 	C 	0.82549	0.8854	0.90002	0.051
Mof_C 	C 	0.87158	0.84388	0.89456	-0.118
Mof_C 	C 	0.80635	0.81983	0.87587	0.065
Mof_C 	C 	0.69294	0.83682	0.8637	-0.143
Mof_C 	C 	0.6526	0.87822	0.86998	0.093
Mof_C 	C 	0.99458	0.82402	0.90802	0.318
Mof_C 	C 	0.93608	0.87725	0.98179	0.572
Mof_C 	C 	0.0002	0.6563	0.1163	0.224
Mof_C 	C 	0.9623	0.6516	0.0834	-0.336
Mof_C 	C 	0.9164	0.688	0.0694	0.21
Mof_C 	C 	0.8906	0.7254	0.0908	-0.21
Mof_C 	C 	0.9199	0.7297	0.1285	0.107
Mof_C 	C 	0.8861	0.7675	0.1529	0.094
Mof_C 	C 	0.9259	0.8008	0.1356	-0.139
Mof_C 	C 	0.8617	0.8394	0.16	0.053
Mof_C 	C 	0.7752	0.841	0.1992	-0.136
Mof_C 	C 	0.778	0.801	0.2128	0.094
Mof_C 	C 	0.0846	0.5831	0.7005	0.09
Mof_C 	C 	0.76525	0.48916	0.76154	0.56
Mof_C 	C 	0.148	0.7411	0.4299	0.386
Mof_C 	C 	0.0387	0.609	0.7338	-0.136
Mof_C 	C 	0.9214	0.6071	0.7555	0.062
Mof_C 	C 	0.85146	0.57925	0.74383	-0.113
Mof_C 	C 	0.71881	0.57839	0.76799	0.331
Mof_C 	C 	0.90208	0.55377	0.71027	0.053
Mof_C 	C 	0.83616	0.52374	0.69334	0.118
Mof_C 	C 	0.423	0.6946	0.4052	0.453
Mof_C 	C 	0.76446	0.49714	0.71594	-0.239
Mof_C 	C 	0.70151	0.47389	0.69489	0.171
Mof_C 	C 	0.7123	0.4765	0.6529	-0.223
Mof_C 	C 	0.794	0.5005	0.6319	0.135
Mof_C 	C 	0.0713	0.4547	0.6781	0.123
Mof_C 	C 	0.0433	0.4152	0.6848	-0.18
Mof_C 	C 	0.0313	0.3934	0.6512	0.1
Mof_C 	C 	0.0543	0.4091	0.6117	-0.147
Mof_C 	C 	0.0925	0.4474	0.6072	0.068
Mof_C 	C 	0.1219	0.4682	0.5672	0.077
Mof_C 	C 	0.20032	0.44948	0.53288	-0.153
Mof_C 	C 	0.21419	0.47221	0.49701	0.114
Mof_C 	C 	0.15401	0.51224	0.49634	-0.196
Mof_C 	C 	0.0847	0.53	0.5318	0.136
Mof_C 	C 	0.28152	0.40788	0.53488	0.367
Mof_C 	C 	0.0237	0.3856	0.5766	0.364
Mof_C 	C 	0.3314	0.5192	0.5964	0.15
Mof_C 	C 	0.4277	0.5225	0.5651	-0.236
Mof_C 	C 	0.4159	0.5573	0.5409	0.176
Mof_C 	C 	0.31102	0.5883	0.54846	-0.248
Mof_C 	C 	0.22251	0.58369	0.58369	0.12
Mof_C 	C 	0.11091	0.6146	0.59998	0.051
Mof_C 	C 	0.11002	0.65612	0.60544	-0.118
Mof_C 	C 	0.00205	0.68017	0.62413	0.065
Mof_C 	C 	0.89346	0.66318	0.6363	-0.143
Mof_C 	C 	0.9008	0.62178	0.63002	0.093
Mof_C 	C 	0.22662	0.67598	0.59198	0.318
Mof_C 	C 	0.29512	0.62275	0.51821	0.571
Mof_C 	C 	0.2728	0.8437	0.3837	0.24
Mof_C 	C 	0.1973	0.8484	0.4166	-0.354
Mof_C 	C 	0.1738	0.812	0.4306	0.221
Mof_C 	C 	0.2068	0.7746	0.4092	-0.216
Mof_C 	C 	0.2781	0.7703	0.3715	0.109
Mof_C 	C 	0.3065	0.7325	0.3471	0.094
Mof_C 	C 	0.3623	0.6992	0.3644	-0.141
Mof_C 	C 	0.3611	0.6606	0.34	0.053
Mof_C 	C 	0.3154	0.659	0.3008	-0.137
Mof_C 	C 	0.2918	0.699	0.2872	0.094
Mof_C 	C 	0.6677	0.2005	0.4169	0.092
Mof_C 	C 	0.25441	0.26154	0.51084	0.559
Mof_C 	C 	0.8891	0.9299	0.2589	0.386
Mof_C 	C 	0.6477	0.2338	0.391	-0.141
Mof_C 	C 	0.5285	0.2555	0.3929	0.067
Mof_C 	C 	0.43071	0.24383	0.42075	-0.115
Mof_C 	C 	0.2972	0.26799	0.42161	0.332
Mof_C 	C 	0.45585	0.21027	0.44623	0.055
Mof_C 	C 	0.3599	0.19334	0.47626	0.118
Mof_C 	C 	0.1176	0.9052	0.3054	0.453
Mof_C 	C 	0.2616	0.21594	0.50286	-0.238
Mof_C 	C 	0.1754	0.19489	0.52611	0.17
Mof_C 	C 	0.1888	0.1529	0.5235	-0.223
Mof_C 	C 	0.2945	0.1319	0.4995	0.135
Mof_C 	C 	0.526	0.1781	0.5453	0.122
Mof_C 	C 	0.4585	0.1848	0.5848	-0.18
Mof_C 	C 	0.4247	0.1512	0.6066	0.099
Mof_C 	C 	0.4634	0.1117	0.5909	-0.147
Mof_C 	C 	0.5399	0.1072	0.5526	0.068
Mof_C 	C 	0.5901	0.0672	0.5318	0.077
Mof_C 	C 	0.6498	0.03288	0.55052	-0.153
Mof_C 	C 	0.6864	0.99701	0.52779	0.114
Mof_C 	C 	0.66625	0.99634	0.48776	-0.196
Mof_C 	C 	0.6147	0.0318	0.47	0.137
Mof_C 	C 	0.6894	0.03488	0.59212	0.367
Mof_C 	C 	0.4093	0.0766	0.6144	0.362
Mof_C 	C 	0.8506	0.0964	0.4808	0.152
Mof_C 	C 	0.9502	0.0651	0.4775	-0.239
Mof_C 	C 	0.9732	0.0409	0.4427	0.179
Mof_C 	C 	0.89932	0.04846	0.4117	-0.25
Mof_C 	C 	0.8062	0.08369	0.41631	0.121
Mof_C 	C 	0.72551	0.09998	0.3854	0.051
Mof_C 	C 	0.76614	0.10544	0.34388	-0.118
Mof_C 	C 	0.68222	0.12413	0.31983	0.065
Mof_C 	C 	0.55664	0.1363	0.33682	-0.143
Mof_C 	C 	0.52258	0.13002	0.37822	0.093
Mof_C 	C 	0.9026	0.09198	0.32402	0.318
Mof_C 	C 	0.91787	0.01821	0.37725	0.573
Mof_C 	C 	0.1165	0.8837	0.1563	0.242
Mof_C 	C 	0.0457	0.9166	0.1516	-0.359
Mof_C 	C 	0.9858	0.9306	0.188	0.225
Mof_C 	C 	0.9814	0.9092	0.2254	-0.214
Mof_C 	C 	0.0484	0.8715	0.2297	0.107
Mof_C 	C 	0.039	0.8471	0.2675	0.093
Mof_C 	C 	0.0615	0.8644	0.3008	-0.14
Mof_C 	C 	0.0217	0.84	0.3394	0.05
Mof_C 	C 	0.9744	0.8008	0.341	-0.133
Mof_C 	C 	0.9908	0.7872	0.301	0.096
Mof_C 	C 	0.7851	0.2995	0.0831	0.092
Mof_C 	C 	0.52679	0.23846	0.98916	0.56
Mof_C 	C 	0.5779	0.5701	0.2411	0.386
Mof_C 	C 	0.7725	0.2662	0.109	-0.141
Mof_C 	C 	0.6769	0.2445	0.1071	0.067
Mof_C 	C 	0.59529	0.25617	0.07925	-0.115
Mof_C 	C 	0.4868	0.23201	0.07839	0.332
Mof_C 	C 	0.61235	0.28973	0.05377	0.055
Mof_C 	C 	0.5295	0.30666	0.02374	0.118
Mof_C 	C 	0.8282	0.5948	0.1946	0.453
Mof_C 	C 	0.4804	0.28406	0.99714	-0.238
Mof_C 	C 	0.3964	0.30511	0.97389	0.171
Mof_C 	C 	0.3652	0.3471	0.9765	-0.223
Mof_C 	C 	0.4259	0.3681	0.0005	0.135
Mof_C 	C 	0.7494	0.3219	0.9547	0.122
Mof_C 	C 	0.7281	0.3152	0.9152	-0.18
Mof_C 	C 	0.6825	0.3488	0.8934	0.099
Mof_C 	C 	0.666	0.3883	0.9091	-0.147
Mof_C 	C 	0.6997	0.3928	0.9474	0.067
Mof_C 	C 	0.6891	0.4328	0.9682	0.077
Mof_C 	C 	0.7332	0.46712	0.94948	-0.153
Mof_C 	C 	0.7112	0.50299	0.97221	0.114
Mof_C 	C 	0.65035	0.50366	0.01224	-0.196
Mof_C 	C 	0.6165	0.4682	0.03	0.136
Mof_C 	C 	0.8164	0.46512	0.90788	0.367
Mof_C 	C 	0.6003	0.4234	0.8856	0.362
Mof_C 	C 	0.9278	0.4036	0.0192	0.151
Mof_C 	C 	0.9928	0.4349	0.0225	-0.237
Mof_C 	C 	0.9568	0.4591	0.0573	0.176
Mof_C 	C 	0.85948	0.45154	0.0883	-0.248
Mof_C 	C 	0.8062	0.41631	0.08369	0.12
Mof_C 	C 	0.71089	0.40002	0.1146	0.051
Mof_C 	C 	0.71546	0.39456	0.15612	-0.118
Mof_C 	C 	0.62618	0.37587	0.18017	0.065
Mof_C 	C 	0.52976	0.3637	0.16318	-0.143
Mof_C 	C 	0.53082	0.36998	0.12178	0.093
Mof_C 	C 	0.8186	0.40802	0.17598	0.318
Mof_C 	C 	0.81333	0.48179	0.12275	0.571
Mof_C 	C 	0.6565	0.6163	0.3437	0.24
Mof_C 	C 	0.6139	0.5834	0.3484	-0.354
Mof_C 	C 	0.6044	0.5694	0.312	0.221
Mof_C 	C 	0.616	0.5908	0.2746	-0.216
Mof_C 	C 	0.6496	0.6285	0.2703	0.109
Mof_C 	C 	0.6536	0.6529	0.2325	0.094
Mof_C 	C 	0.7267	0.6356	0.1992	-0.141
Mof_C 	C 	0.7011	0.66	0.1606	0.053
Mof_C 	C 	0.6162	0.6992	0.159	-0.136
Mof_C 	C 	0.579	0.7128	0.199	0.094
Mof_N 	N 	0.23873	0.05628	0.18886	-0.248
Mof_N 	N 	0.4684	0.02379	0.15181	-0.258
Mof_N 	N 	0.29459	0.97093	0.14049	-0.252
Mof_N 	N 	0.35572	0.00866	0.0667	-0.254
Mof_N 	N 	0.11601	0.04865	0.10553	-0.262
Mof_N 	N 	0.28259	0.09744	0.11278	-0.253
Mof_N 	N 	0.1779	0.2344	0.8074	-0.125
Mof_N 	N 	0.0087	0.3121	0.8563	-0.142
Mof_N 	N 	0.98387	0.44372	0.31114	-0.247
Mof_N 	N 	0.144	0.47621	0.34819	-0.258
Mof_N 	N 	0.90601	0.52907	0.35951	-0.252
Mof_N 	N 	0.93108	0.49134	0.4333	-0.253
Mof_N 	N 	0.77019	0.45135	0.39447	-0.262
Mof_N 	N 	0.99281	0.40256	0.38722	-0.253
Mof_N 	N 	0.7197	0.2656	0.6926	-0.125
Mof_N 	N 	0.6771	0.1879	0.6437	-0.146
Mof_N 	N 	0.42759	0.81114	0.55628	-0.248
Mof_N 	N 	0.62021	0.84819	0.52379	-0.258
Mof_N 	N 	0.43508	0.85951	0.47093	-0.252
Mof_N 	N 	0.42242	0.9333	0.50866	-0.254
Mof_N 	N 	0.22154	0.89447	0.54865	-0.262
Mof_N 	N 	0.39537	0.88722	0.59744	-0.253
Mof_N 	N 	0.9853	0.1926	0.7344	-0.127
Mof_N 	N 	0.865	0.1437	0.8121	-0.146
Mof_N 	N 	0.29501	0.68886	0.94372	-0.248
Mof_N 	N 	0.49219	0.65181	0.97621	-0.258
Mof_N 	N 	0.26552	0.64049	0.02907	-0.252
Mof_N 	N 	0.36438	0.5667	0.99134	-0.254
Mof_N 	N 	0.16466	0.60553	0.95135	-0.262
Mof_N 	N 	0.38003	0.61278	0.90256	-0.253
Mof_N 	N 	0.4123	0.3074	0.7656	-0.125
Mof_N 	N 	0.3208	0.3563	0.6879	-0.146
Mof_N 	N 	0.76127	0.94372	0.81114	-0.248
Mof_N 	N 	0.5316	0.97621	0.84819	-0.258
Mof_N 	N 	0.70541	0.02907	0.85951	-0.252
Mof_N 	N 	0.64428	0.99134	0.9333	-0.254
Mof_N 	N 	0.88399	0.95135	0.89447	-0.262
Mof_N 	N 	0.71741	0.90256	0.88722	-0.253
Mof_N 	N 	0.8221	0.7656	0.1926	-0.125
Mof_N 	N 	0.9913	0.6879	0.1437	-0.142
Mof_N 	N 	0.01613	0.55628	0.68886	-0.247
Mof_N 	N 	0.856	0.52379	0.65181	-0.258
Mof_N 	N 	0.09399	0.47093	0.64049	-0.252
Mof_N 	N 	0.06892	0.50866	0.5667	-0.253
Mof_N 	N 	0.22981	0.54865	0.60553	-0.262
Mof_N 	N 	0.00719	0.59744	0.61278	-0.253
Mof_N 	N 	0.2803	0.7344	0.3074	-0.125
Mof_N 	N 	0.3229	0.8121	0.3563	-0.146
Mof_N 	N 	0.57241	0.18886	0.44372	-0.248
Mof_N 	N 	0.37979	0.15181	0.47621	-0.258
Mof_N 	N 	0.56492	0.14049	0.52907	-0.252
Mof_N 	N 	0.57758	0.0667	0.49134	-0.254
Mof_N 	N 	0.77846	0.10553	0.45135	-0.262
Mof_N 	N 	0.60463	0.11278	0.40256	-0.253
Mof_N 	N 	0.0147	0.8074	0.2656	-0.127
Mof_N 	N 	0.135	0.8563	0.1879	-0.146
Mof_N 	N 	0.70499	0.31114	0.05628	-0.248
Mof_N 	N 	0.50781	0.34819	0.02379	-0.258
Mof_N 	N 	0.73448	0.35951	0.97093	-0.252
Mof_N 	N 	0.63562	0.4333	0.00866	-0.254
Mof_N 	N 	0.83534	0.39447	0.04865	-0.262
Mof_N 	N 	0.61997	0.38722	0.09744	-0.253
Mof_N 	N 	0.5877	0.6926	0.2344	-0.125
Mof_N 	N 	0.6792	0.6437	0.3121	-0.146
Mof_O 	O 	0.40615	0.07796	0.30634	-0.279
Mof_O 	O 	0.54196	0.0782	0.24768	-0.263
Mof_O 	O 	0.3667	0.99271	0.27389	-0.524
Mof_O 	O 	0.5674	0.97802	0.28198	-0.529
Mof_O 	O 	0.52513	0.84634	0.0782	-0.425
Mof_O 	O 	0.57807	0.90374	0.04992	-0.372
Mof_O 	O 	0.33942	0.87856	0.013	-0.429
Mof_O 	O 	0.17219	0.90419	0.05663	-0.36
Mof_O 	O 	0.00613	0.21011	0.07343	-0.271
Mof_O 	O 	0.91276	0.15705	0.09963	-0.258
Mof_O 	O 	0.16075	0.13824	0.01486	-0.543
Mof_O 	O 	0.97858	0.13127	0.99677	-0.523
Mof_O 	O 	0.9795	0.1627	0.9177	-0.5
Mof_O 	O 	0.8883	0.2246	0.915	-0.397
Mof_O 	O 	0.12926	0.2273	0.96378	-0.443
Mof_O 	O 	0.29261	0.22641	0.91517	-0.377
Mof_O 	O 	0.29045	0.42204	0.19366	-0.278
Mof_O 	O 	0.36784	0.4218	0.25232	-0.263
Mof_O 	O 	0.1333	0.50729	0.22611	-0.524
Mof_O 	O 	0.3274	0.52198	0.21802	-0.529
Mof_O 	O 	0.94967	0.65366	0.4218	-0.424
Mof_O 	O 	0.03173	0.59626	0.45008	-0.374
Mof_O 	O 	0.73098	0.62144	0.487	-0.429
Mof_O 	O 	0.63301	0.59581	0.44337	-0.36
Mof_O 	O 	0.78967	0.28989	0.42657	-0.271
Mof_O 	O 	0.66944	0.34295	0.40037	-0.258
Mof_O 	O 	0.81385	0.36176	0.48514	-0.542
Mof_O 	O 	0.60662	0.36873	0.50323	-0.523
Mof_O 	O 	0.5599	0.3373	0.5823	-0.5
Mof_O 	O 	0.5279	0.2754	0.585	-0.397
Mof_O 	O 	0.82034	0.2727	0.53622	-0.444
Mof_O 	O 	0.93419	0.27359	0.58483	-0.379
Mof_O 	O 	0.71249	0.69366	0.57796	-0.278
Mof_O 	O 	0.78964	0.75232	0.5782	-0.263
Mof_O 	O 	0.64059	0.72611	0.49271	-0.524
Mof_O 	O 	0.84938	0.71802	0.47802	-0.528
Mof_O 	O 	0.60333	0.9218	0.34634	-0.425
Mof_O 	O 	0.62799	0.95008	0.40374	-0.372
Mof_O 	O 	0.35242	0.987	0.37856	-0.429
Mof_O 	O 	0.22882	0.94337	0.40419	-0.36
Mof_O 	O 	0.07956	0.92657	0.71011	-0.271
Mof_O 	O 	0.01239	0.90037	0.65705	-0.258
Mof_O 	O 	0.17561	0.98514	0.63824	-0.543
Mof_O 	O 	0.97535	0.00323	0.63127	-0.523
Mof_O 	O 	0.8972	0.0823	0.6627	-0.5
Mof_O 	O 	0.8033	0.085	0.7246	-0.397
Mof_O 	O 	0.09304	0.03622	0.7273	-0.443
Mof_O 	O 	0.20778	0.08483	0.72641	-0.377
Mof_O 	O 	0.48411	0.80634	0.92204	-0.279
Mof_O 	O 	0.62016	0.74768	0.9218	-0.263
Mof_O 	O 	0.35941	0.77389	0.00729	-0.524
Mof_O 	O 	0.54542	0.78198	0.02198	-0.529
Mof_O 	O 	0.37147	0.5782	0.15366	-0.425
Mof_O 	O 	0.48181	0.54992	0.09626	-0.372
Mof_O 	O 	0.21798	0.513	0.12144	-0.429
Mof_O 	O 	0.07638	0.55663	0.09581	-0.361
Mof_O 	O 	0.21624	0.57343	0.78989	-0.271
Mof_O 	O 	0.06981	0.59963	0.84295	-0.258
Mof_O 	O 	0.29899	0.51486	0.86176	-0.542
Mof_O 	O 	0.10985	0.49677	0.86873	-0.521
Mof_O 	O 	0.1422	0.4177	0.8373	-0.499
Mof_O 	O 	0.1129	0.415	0.7754	-0.395
Mof_O 	O 	0.35656	0.46378	0.7727	-0.444
Mof_O 	O 	0.51902	0.41517	0.77359	-0.378
Mof_O 	O 	0.59385	0.92204	0.69366	-0.279
Mof_O 	O 	0.45804	0.9218	0.75232	-0.263
Mof_O 	O 	0.6333	0.00729	0.72611	-0.524
Mof_O 	O 	0.4326	0.02198	0.71802	-0.529
Mof_O 	O 	0.47487	0.15366	0.9218	-0.425
Mof_O 	O 	0.42193	0.09626	0.95008	-0.372
Mof_O 	O 	0.66058	0.12144	0.987	-0.429
Mof_O 	O 	0.82781	0.09581	0.94337	-0.36
Mof_O 	O 	0.99387	0.78989	0.92657	-0.271
Mof_O 	O 	0.08724	0.84295	0.90037	-0.258
Mof_O 	O 	0.83925	0.86176	0.98514	-0.543
Mof_O 	O 	0.02142	0.86873	0.00323	-0.523
Mof_O 	O 	0.0205	0.8373	0.0823	-0.5
Mof_O 	O 	0.1117	0.7754	0.085	-0.397
Mof_O 	O 	0.87074	0.7727	0.03622	-0.443
Mof_O 	O 	0.70739	0.77359	0.08483	-0.377
Mof_O 	O 	0.70955	0.57796	0.80634	-0.278
Mof_O 	O 	0.63216	0.5782	0.74768	-0.263
Mof_O 	O 	0.8667	0.49271	0.77389	-0.524
Mof_O 	O 	0.6726	0.47802	0.78198	-0.529
Mof_O 	O 	0.05033	0.34634	0.5782	-0.424
Mof_O 	O 	0.96827	0.40374	0.54992	-0.374
Mof_O 	O 	0.26902	0.37856	0.513	-0.429
Mof_O 	O 	0.36699	0.40419	0.55663	-0.36
Mof_O 	O 	0.21033	0.71011	0.57343	-0.271
Mof_O 	O 	0.33056	0.65705	0.59963	-0.258
Mof_O 	O 	0.18615	0.63824	0.51486	-0.542
Mof_O 	O 	0.39338	0.63127	0.49677	-0.523
Mof_O 	O 	0.4401	0.6627	0.4177	-0.5
Mof_O 	O 	0.4721	0.7246	0.415	-0.397
Mof_O 	O 	0.17966	0.7273	0.46378	-0.444
Mof_O 	O 	0.06581	0.72641	0.41517	-0.379
Mof_O 	O 	0.28751	0.30634	0.42204	-0.278
Mof_O 	O 	0.21036	0.24768	0.4218	-0.263
Mof_O 	O 	0.35941	0.27389	0.50729	-0.524
Mof_O 	O 	0.15062	0.28198	0.52198	-0.528
Mof_O 	O 	0.39667	0.0782	0.65366	-0.425
Mof_O 	O 	0.37201	0.04992	0.59626	-0.372
Mof_O 	O 	0.64758	0.013	0.62144	-0.429
Mof_O 	O 	0.77118	0.05663	0.59581	-0.36
Mof_O 	O 	0.92044	0.07343	0.28989	-0.271
Mof_O 	O 	0.98761	0.09963	0.34295	-0.258
Mof_O 	O 	0.82439	0.01486	0.36176	-0.543
Mof_O 	O 	0.02465	0.99677	0.36873	-0.523
Mof_O 	O 	0.1028	0.9177	0.3373	-0.5
Mof_O 	O 	0.1967	0.915	0.2754	-0.397
Mof_O 	O 	0.90696	0.96378	0.2727	-0.443
Mof_O 	O 	0.79222	0.91517	0.27359	-0.377
Mof_O 	O 	0.51589	0.19366	0.07796	-0.279
Mof_O 	O 	0.37984	0.25232	0.0782	-0.263
Mof_O 	O 	0.64059	0.22611	0.99271	-0.524
Mof_O 	O 	0.45458	0.21802	0.97802	-0.529
Mof_O 	O 	0.62853	0.4218	0.84634	-0.425
Mof_O 	O 	0.51819	0.45008	0.90374	-0.372
Mof_O 	O 	0.78202	0.487	0.87856	-0.429
Mof_O 	O 	0.92362	0.44337	0.90419	-0.361
Mof_O 	O 	0.78376	0.42657	0.21011	-0.271
Mof_O 	O 	0.93019	0.40037	0.15705	-0.258
Mof_O 	O 	0.70101	0.48514	0.13824	-0.542
Mof_O 	O 	0.89015	0.50323	0.13127	-0.521
Mof_O 	O 	0.8578	0.5823	0.1627	-0.498
Mof_O 	O 	0.8871	0.585	0.2246	-0.395
Mof_O 	O 	0.64344	0.53622	0.2273	-0.444
Mof_O 	O 	0.48098	0.58483	0.22641	-0.378
_end
