data_functionalizedCrystal
_audit_creation_method	'EQeq! by Chris Wilmer'
_symmetry_space_group_name_H-M	'P1'
_symmetry_Int_Tables_number	1
_symmetry_cell_setting	triclinic
loop_
_symmetry_equiv_pos_as_xyz
  x,y,z
_cell_length_a	20.878
_cell_length_b	19.789
_cell_length_c	6.1653
_cell_angle_alpha	90
_cell_angle_beta	114.429
_cell_angle_gamma	90
loop_
_atom_site_label
_atom_site_type_symbol
_atom_site_fract_x
_atom_site_fract_y
_atom_site_fract_z
_atom_site_charge
Mof_N 	N 	0.6004	0.0473	0.116	-0.3
Mof_H 	H 	0.6152	0.0596	0.2693	0.074
Mof_H 	H 	0.6317	0.0177	0.1049	0.064
Mof_N 	N 	0.6669	0.1988	0.898	-0.279
Mof_H 	H 	0.6315	0.2264	0.8873	0.085
Mof_H 	H 	0.6571	0.1833	0.7503	0.072
Mof_N 	N 	0.8494	0.1963	0.6192	-0.29
Mof_H 	H 	0.8839	0.2247	0.6271	0.091
Mof_H 	H 	0.8605	0.1786	0.7648	0.088
Mof_N 	N 	0.9096	0.0546	0.388	-0.269
Mof_H 	H 	0.9011	0.0729	0.2446	0.069
Mof_H 	H 	0.8736	0.0268	0.3692	0.068
Mof_C 	C 	0.5968	0.1065	0.971	0.067
Mof_H 	H 	0.5632	0.1384	0.9836	-0.017
Mof_H 	H 	0.5805	0.0932	0.8057	-0.038
Mof_C 	C 	0.6676	0.1403	0.05	-0.147
Mof_H 	H 	0.6826	0.1556	0.2133	0.011
Mof_H 	H 	0.7017	0.1074	0.0472	0.022
Mof_C 	C 	0.8407	0.1415	0.443	-0.023
Mof_H 	H 	0.8311	0.1594	0.2862	-0.023
Mof_H 	H 	0.8039	0.11	0.432	-0.007
Mof_C 	C 	0.9127	0.1095	0.557	-0.067
Mof_H 	H 	0.9492	0.142	0.5727	0.03
Mof_H 	H 	0.9215	0.0913	0.7126	0.016
Mof_N 	N 	0.1004	0.5473	0.116	-0.307
Mof_H 	H 	0.1152	0.5596	0.2693	0.079
Mof_H 	H 	0.1317	0.5177	0.1049	0.077
Mof_N 	N 	0.1669	0.6988	0.898	-0.277
Mof_H 	H 	0.1315	0.7264	0.8873	0.082
Mof_H 	H 	0.1571	0.6833	0.7503	0.071
Mof_N 	N 	0.3494	0.6963	0.6192	-0.287
Mof_H 	H 	0.3839	0.7247	0.6271	0.086
Mof_H 	H 	0.3605	0.6786	0.7648	0.085
Mof_N 	N 	0.4096	0.5546	0.388	-0.292
Mof_H 	H 	0.4011	0.5729	0.2446	0.066
Mof_H 	H 	0.3736	0.5268	0.3692	0.077
Mof_C 	C 	0.0968	0.6065	0.971	0.079
Mof_H 	H 	0.0632	0.6384	0.9836	-0.028
Mof_H 	H 	0.0805	0.5932	0.8057	-0.043
Mof_C 	C 	0.1676	0.6403	0.05	-0.155
Mof_H 	H 	0.1826	0.6556	0.2133	0.014
Mof_H 	H 	0.2017	0.6074	0.0472	0.028
Mof_C 	C 	0.3407	0.6415	0.443	-0.035
Mof_H 	H 	0.3311	0.6594	0.2862	-0.02
Mof_H 	H 	0.3039	0.61	0.432	0
Mof_C 	C 	0.4127	0.6095	0.557	-0.048
Mof_H 	H 	0.4492	0.642	0.5727	0.008
Mof_H 	H 	0.4215	0.5913	0.7126	-0.003
Mof_N 	N 	0.3996	0.0473	0.384	-0.276
Mof_H 	H 	0.3848	0.0596	0.2307	0.062
Mof_H 	H 	0.3683	0.0177	0.3951	0.064
Mof_N 	N 	0.3331	0.1988	0.602	-0.325
Mof_H 	H 	0.3685	0.2264	0.6127	0.086
Mof_H 	H 	0.3429	0.1833	0.7497	0.084
Mof_N 	N 	0.1506	0.1963	0.8808	-0.247
Mof_H 	H 	0.1161	0.2247	0.8729	0.079
Mof_H 	H 	0.1395	0.1786	0.7352	0.069
Mof_N 	N 	0.0904	0.0546	0.112	-0.303
Mof_H 	H 	0.0989	0.0729	0.2554	0.07
Mof_H 	H 	0.1264	0.0268	0.1308	0.068
Mof_C 	C 	0.4032	0.1065	0.529	-0.053
Mof_H 	H 	0.4368	0.1384	0.5164	0.006
Mof_H 	H 	0.4195	0.0932	0.6943	-0
Mof_C 	C 	0.3324	0.1403	0.45	-0.03
Mof_H 	H 	0.3174	0.1556	0.2867	-0.021
Mof_H 	H 	0.2983	0.1074	0.4528	-0.004
Mof_C 	C 	0.1593	0.1415	0.057	-0.148
Mof_H 	H 	0.1689	0.1594	0.2138	0.01
Mof_H 	H 	0.1961	0.11	0.068	0.023
Mof_C 	C 	0.0873	0.1095	0.943	0.065
Mof_H 	H 	0.0508	0.142	0.9273	-0.025
Mof_H 	H 	0.0785	0.0913	0.7874	-0.043
Mof_N 	N 	0.8996	0.5473	0.384	-0.27
Mof_H 	H 	0.8848	0.5596	0.2307	0.074
Mof_H 	H 	0.8683	0.5177	0.3951	0.08
Mof_N 	N 	0.8331	0.6988	0.602	-0.328
Mof_H 	H 	0.8685	0.7264	0.6127	0.092
Mof_H 	H 	0.8429	0.6833	0.7497	0.089
Mof_N 	N 	0.6506	0.6963	0.8808	-0.249
Mof_H 	H 	0.6161	0.7247	0.8729	0.084
Mof_H 	H 	0.6395	0.6786	0.7352	0.072
Mof_N 	N 	0.5904	0.5546	0.112	-0.315
Mof_H 	H 	0.5989	0.5729	0.2554	0.075
Mof_H 	H 	0.6264	0.5268	0.1308	0.078
Mof_C 	C 	0.9032	0.6065	0.529	-0.059
Mof_H 	H 	0.9368	0.6384	0.5164	0.02
Mof_H 	H 	0.9195	0.5932	0.6943	0.016
Mof_C 	C 	0.8324	0.6403	0.45	-0.025
Mof_H 	H 	0.8174	0.6556	0.2867	-0.021
Mof_H 	H 	0.7983	0.6074	0.4528	-0.001
Mof_C 	C 	0.6593	0.6415	0.057	-0.151
Mof_H 	H 	0.6689	0.6594	0.2138	0.012
Mof_H 	H 	0.6961	0.61	0.068	0.028
Mof_C 	C 	0.5873	0.6095	0.943	0.07
Mof_H 	H 	0.5508	0.642	0.9273	-0.019
Mof_H 	H 	0.5785	0.5913	0.7874	-0.043
Mof_N 	N 	0.3996	0.9527	0.884	-0.242
Mof_H 	H 	0.3848	0.9404	0.7307	0.086
Mof_H 	H 	0.3683	0.9823	0.8951	0.102
Mof_N 	N 	0.3331	0.8012	0.102	-0.336
Mof_H 	H 	0.3685	0.7736	0.1127	0.078
Mof_H 	H 	0.3429	0.8167	0.2497	0.078
Mof_N 	N 	0.1506	0.8037	0.3808	-0.277
Mof_H 	H 	0.1161	0.7753	0.3729	0.072
Mof_H 	H 	0.1395	0.8214	0.2352	0.067
Mof_N 	N 	0.0904	0.9454	0.612	-0.286
Mof_H 	H 	0.0989	0.9271	0.7554	0.092
Mof_H 	H 	0.1264	0.9732	0.6308	0.103
Mof_C 	C 	0.4032	0.8935	0.029	-0.146
Mof_H 	H 	0.4368	0.8616	0.0164	0.026
Mof_H 	H 	0.4195	0.9068	0.1943	0.027
Mof_C 	C 	0.3324	0.8597	0.95	0.063
Mof_H 	H 	0.3174	0.8444	0.7867	-0.038
Mof_H 	H 	0.2983	0.8926	0.9528	-0.009
Mof_C 	C 	0.1593	0.8585	0.557	-0.058
Mof_H 	H 	0.1689	0.8406	0.7138	-0.002
Mof_H 	H 	0.1961	0.89	0.568	0.015
Mof_C 	C 	0.0873	0.8905	0.443	-0.027
Mof_H 	H 	0.0508	0.858	0.4273	-0.006
Mof_H 	H 	0.0785	0.9087	0.2874	-0.009
Mof_N 	N 	0.8996	0.4527	0.884	-0.238
Mof_H 	H 	0.8848	0.4404	0.7307	0.08
Mof_H 	H 	0.8683	0.4823	0.8951	0.087
Mof_N 	N 	0.8331	0.3012	0.102	-0.338
Mof_H 	H 	0.8685	0.2736	0.1127	0.083
Mof_H 	H 	0.8429	0.3167	0.2497	0.079
Mof_N 	N 	0.6506	0.3037	0.3808	-0.279
Mof_H 	H 	0.6161	0.2753	0.3729	0.076
Mof_H 	H 	0.6395	0.3214	0.2352	0.066
Mof_N 	N 	0.5904	0.4454	0.612	-0.301
Mof_H 	H 	0.5989	0.4271	0.7554	0.084
Mof_H 	H 	0.6264	0.4732	0.6308	0.086
Mof_C 	C 	0.9032	0.3935	0.029	-0.156
Mof_H 	H 	0.9368	0.3616	0.0164	0.038
Mof_H 	H 	0.9195	0.4068	0.1943	0.032
Mof_C 	C 	0.8324	0.3597	0.95	0.07
Mof_H 	H 	0.8174	0.3444	0.7867	-0.041
Mof_H 	H 	0.7983	0.3926	0.9528	-0.017
Mof_C 	C 	0.6593	0.3585	0.557	-0.055
Mof_H 	H 	0.6689	0.3406	0.7138	-0.004
Mof_H 	H 	0.6961	0.39	0.568	0.009
Mof_C 	C 	0.5873	0.3905	0.443	-0.029
Mof_H 	H 	0.5508	0.358	0.4273	-0.001
Mof_H 	H 	0.5785	0.4087	0.2874	-0.021
Mof_N 	N 	0.6004	0.9527	0.616	-0.283
Mof_H 	H 	0.6152	0.9404	0.7693	0.099
Mof_H 	H 	0.6317	0.9823	0.6049	0.102
Mof_N 	N 	0.6669	0.8012	0.398	-0.317
Mof_H 	H 	0.6315	0.7736	0.3873	0.078
Mof_H 	H 	0.6571	0.8167	0.2503	0.07
Mof_N 	N 	0.8494	0.8037	0.1192	-0.306
Mof_H 	H 	0.8839	0.7753	0.1271	0.084
Mof_H 	H 	0.8605	0.8214	0.2648	0.083
Mof_N 	N 	0.9096	0.9454	0.888	-0.235
Mof_H 	H 	0.9011	0.9271	0.7446	0.087
Mof_H 	H 	0.8736	0.9732	0.8692	0.101
Mof_C 	C 	0.5968	0.8935	0.471	-0.027
Mof_H 	H 	0.5632	0.8616	0.4836	0.002
Mof_H 	H 	0.5805	0.9068	0.3057	-0.005
Mof_C 	C 	0.6676	0.8597	0.55	-0.054
Mof_H 	H 	0.6826	0.8444	0.7133	-0.001
Mof_H 	H 	0.7017	0.8926	0.5472	0.015
Mof_C 	C 	0.8407	0.8585	0.943	0.069
Mof_H 	H 	0.8311	0.8406	0.7862	-0.042
Mof_H 	H 	0.8039	0.89	0.932	-0.014
Mof_C 	C 	0.9127	0.8905	0.057	-0.157
Mof_H 	H 	0.9492	0.858	0.0727	0.049
Mof_H 	H 	0.9215	0.9087	0.2126	0.042
Mof_N 	N 	0.1004	0.4527	0.616	-0.289
Mof_H 	H 	0.1152	0.4404	0.7693	0.088
Mof_H 	H 	0.1317	0.4823	0.6049	0.085
Mof_N 	N 	0.1669	0.3012	0.398	-0.314
Mof_H 	H 	0.1315	0.2736	0.3873	0.074
Mof_H 	H 	0.1571	0.3167	0.2503	0.065
Mof_N 	N 	0.3494	0.3037	0.1192	-0.303
Mof_H 	H 	0.3839	0.2753	0.1271	0.077
Mof_H 	H 	0.3605	0.3214	0.2648	0.076
Mof_N 	N 	0.4096	0.4454	0.888	-0.258
Mof_H 	H 	0.4011	0.4271	0.7446	0.071
Mof_H 	H 	0.3736	0.4732	0.8692	0.084
Mof_C 	C 	0.0968	0.3935	0.471	-0.021
Mof_H 	H 	0.0632	0.3616	0.4836	-0.012
Mof_H 	H 	0.0805	0.4068	0.3057	-0.022
Mof_C 	C 	0.1676	0.3597	0.55	-0.059
Mof_H 	H 	0.1826	0.3444	0.7133	-0.001
Mof_H 	H 	0.2017	0.3926	0.5472	0.01
Mof_C 	C 	0.3407	0.3585	0.943	0.066
Mof_H 	H 	0.3311	0.3406	0.7862	-0.043
Mof_H 	H 	0.3039	0.39	0.932	-0.018
Mof_C 	C 	0.4127	0.3905	0.057	-0.147
Mof_H 	H 	0.4492	0.358	0.0727	0.027
Mof_H 	H 	0.4215	0.4087	0.2126	0.012
Mof_Ag	Ag	0.5	0	-0	0.253
Mof_Ag	Ag	-5.44234e-33	0.5	-0	0.256
Mof_Ag	Ag	0.5	2.72117e-33	0.5	0.336
Mof_Ag	Ag	7.82551e-34	0.5	0.5	0.337
Mof_Ag	Ag	0.75	0.25	-0	0.403
Mof_Ag	Ag	0.25	0.25	0.5	0.491
Mof_Ag	Ag	0.25	0.75	-0	0.403
Mof_Ag	Ag	0.75	0.75	0.5	0.496
Mof_Ag	Ag	0.75	0.25	0.5	0.364
Mof_Ag	Ag	0.25	0.25	-0	0.278
Mof_Ag	Ag	0.25	0.75	0.5	0.365
Mof_Ag	Ag	0.75	0.75	-0	0.284
Mof_Ag	Ag	7.82551e-34	2.72117e-33	0.5	0.313
Mof_Ag	Ag	0.5	0.5	0.5	0.416
Mof_Ag	Ag	-0	0	-0	0.231
Mof_Ag	Ag	0.5	0.5	-0	0.329
_end
