data_functionalizedCrystal
_audit_creation_method	'EQeq! by Chris Wilmer'
_symmetry_space_group_name_H-M	'P1'
_symmetry_Int_Tables_number	1
_symmetry_cell_setting	triclinic
loop_
_symmetry_equiv_pos_as_xyz
  x,y,z
_cell_length_a	10.4073
_cell_length_b	17.8174
_cell_length_c	7.5278
_cell_angle_alpha	90
_cell_angle_beta	108.474
_cell_angle_gamma	90
loop_
_atom_site_label
_atom_site_type_symbol
_atom_site_fract_x
_atom_site_fract_y
_atom_site_fract_z
_atom_site_charge
Mof_Zn	Zn	0.15965	0.72269	0.15033	1.195
Mof_O 	O 	0.19	0.6345	0.0101	-0.442
Mof_O 	O 	0.1982	0.7	0.7619	-0.76
Mof_O 	O 	0.3397	0.6532	0.4703	-0.831
Mof_O 	O 	0.1176	0.6697	0.3533	-0.831
Mof_C 	C 	0.182	0.5679	0.7371	-0.069
Mof_C 	C 	0.1987	0.5678	0.5601	-0.231
Mof_C 	C 	0.1892	0.6391	0.8438	0.239
Mof_C 	C 	0.2233	0.6367	0.4597	0.568
Mof_Zn	Zn	0.65965	0.22269	0.15033	1.201
Mof_O 	O 	0.69	0.1345	0.0101	-0.4
Mof_O 	O 	0.6982	0.2	0.7619	-0.797
Mof_O 	O 	0.8397	0.1532	0.4703	-0.618
Mof_O 	O 	0.6176	0.1697	0.3533	-0.836
Mof_C 	C 	0.682	0.0679	0.7371	-0.064
Mof_C 	C 	0.6987	0.0678	0.5601	-0.147
Mof_C 	C 	0.6892	0.1391	0.8438	0.297
Mof_C 	C 	0.7233	0.1367	0.4597	0.5
Mof_Zn	Zn	0.84035	0.72269	0.84967	1.21
Mof_O 	O 	0.81	0.6345	0.9899	-0.625
Mof_O 	O 	0.8018	0.7	0.2381	-0.726
Mof_O 	O 	0.6603	0.6532	0.5297	-0.819
Mof_O 	O 	0.8824	0.6697	0.6467	-0.686
Mof_C 	C 	0.818	0.5679	0.2629	-0.101
Mof_C 	C 	0.8013	0.5678	0.4399	-0.119
Mof_C 	C 	0.8108	0.6391	0.1562	0.554
Mof_C 	C 	0.7767	0.6367	0.5403	0.528
Mof_Zn	Zn	0.34035	0.22269	0.84967	1.169
Mof_O 	O 	0.31	0.1345	0.9899	-0.677
Mof_O 	O 	0.3018	0.2	0.2381	-0.85
Mof_O 	O 	0.1603	0.1532	0.5297	-0.757
Mof_O 	O 	0.3824	0.1697	0.6467	-0.867
Mof_C 	C 	0.318	0.0679	0.2629	-0.151
Mof_C 	C 	0.3013	0.0678	0.4399	-0.157
Mof_C 	C 	0.3108	0.1391	0.1562	0.549
Mof_C 	C 	0.2767	0.1367	0.5403	0.52
Mof_Zn	Zn	0.84035	0.27731	0.84967	1.21
Mof_O 	O 	0.81	0.3655	0.9899	-0.625
Mof_O 	O 	0.8018	0.3	0.2381	-0.725
Mof_O 	O 	0.6603	0.3468	0.5297	-0.819
Mof_O 	O 	0.8824	0.3303	0.6467	-0.686
Mof_C 	C 	0.818	0.4321	0.2629	-0.101
Mof_C 	C 	0.8013	0.4322	0.4399	-0.119
Mof_C 	C 	0.8108	0.3609	0.1562	0.554
Mof_C 	C 	0.7767	0.3633	0.5403	0.528
Mof_Zn	Zn	0.34035	0.77731	0.84967	1.169
Mof_O 	O 	0.31	0.8655	0.9899	-0.672
Mof_O 	O 	0.3018	0.8	0.2381	-0.849
Mof_O 	O 	0.1603	0.8468	0.5297	-0.754
Mof_O 	O 	0.3824	0.8303	0.6467	-0.865
Mof_C 	C 	0.318	0.9321	0.2629	-0.139
Mof_C 	C 	0.3013	0.9322	0.4399	-0.145
Mof_C 	C 	0.3108	0.8609	0.1562	0.547
Mof_C 	C 	0.2767	0.8633	0.5403	0.519
Mof_Zn	Zn	0.15965	0.27731	0.15033	1.194
Mof_O 	O 	0.19	0.3655	0.0101	-0.443
Mof_O 	O 	0.1982	0.3	0.7619	-0.761
Mof_O 	O 	0.3397	0.3468	0.4703	-0.831
Mof_O 	O 	0.1176	0.3303	0.3533	-0.831
Mof_C 	C 	0.182	0.4321	0.7371	-0.069
Mof_C 	C 	0.1987	0.4322	0.5601	-0.231
Mof_C 	C 	0.1892	0.3609	0.8438	0.239
Mof_C 	C 	0.2233	0.3633	0.4597	0.568
Mof_Zn	Zn	0.65965	0.77731	0.15033	1.201
Mof_O 	O 	0.69	0.8655	0.0101	-0.395
Mof_O 	O 	0.6982	0.8	0.7619	-0.796
Mof_O 	O 	0.8397	0.8468	0.4703	-0.614
Mof_O 	O 	0.6176	0.8303	0.3533	-0.835
Mof_C 	C 	0.682	0.9321	0.7371	-0.052
Mof_C 	C 	0.6987	0.9322	0.5601	-0.135
Mof_C 	C 	0.6892	0.8609	0.8438	0.295
Mof_C 	C 	0.7233	0.8633	0.4597	0.499
Mof_Na	Na	-2.14673e-17	0.75322	0.5	2.128
Mof_Na	Na	0.5	0.25322	0.5	2.919
Mof_Na	Na	-2.14673e-17	0.24678	0.5	2.124
Mof_Na	Na	0.5	0.74678	0.5	2.919
Mof_O 	O 	-9.53339e-33	0.7703	-0	-0.933
Mof_H 	H 	9.53339e-33	0.8176	-0	0.243
Mof_O 	O 	0.5	0.2703	-0	-0.86
Mof_H 	H 	0.5	0.3176	-0	0.257
Mof_O 	O 	-0	0.2297	-0	-0.932
Mof_H 	H 	-2.38335e-33	0.1824	-0	0.241
Mof_O 	O 	0.5	0.7297	-0	-0.86
Mof_H 	H 	0.5	0.6824	-0	0.257
Mof_C 	C 	0.1707	0.5	0.8207	-0.071
Mof_C 	C 	0.2044	0.5	0.4738	0.117
Mof_H 	H 	0.161	0.5	0.939	-0.006
Mof_H 	H 	0.216	0.5	0.356	-0.027
Mof_C 	C 	0.6707	-4.7667e-33	0.8207	-0.029
Mof_C 	C 	0.7044	0	0.4738	0.077
Mof_H 	H 	0.661	0	0.939	0.017
Mof_H 	H 	0.716	0	0.356	0.024
Mof_C 	C 	0.8293	0.5	0.1793	0.074
Mof_C 	C 	0.7956	0.5	0.5262	0.097
Mof_H 	H 	0.839	0.5	0.061	0.09
Mof_H 	H 	0.784	0.5	0.644	-0.001
Mof_C 	C 	0.3293	0	0.1793	0.043
Mof_C 	C 	0.2956	0	0.5262	0.058
Mof_H 	H 	0.339	2.97919e-34	0.061	0.057
Mof_H 	H 	0.284	0	0.644	-0.023
_end
