data_functionalizedCrystal
_audit_creation_method	'EQeq! by Chris Wilmer'
_symmetry_space_group_name_H-M	'P1'
_symmetry_Int_Tables_number	1
_symmetry_cell_setting	triclinic
loop_
_symmetry_equiv_pos_as_xyz
  x,y,z
_cell_length_a	18.1391
_cell_length_b	18.1391
_cell_length_c	48.6861
_cell_angle_alpha	90
_cell_angle_beta	90
_cell_angle_gamma	120
loop_
_atom_site_label
_atom_site_type_symbol
_atom_site_fract_x
_atom_site_fract_y
_atom_site_fract_z
_atom_site_charge
Mof_Cu	Cu	0.5073	0.4451	0.52	0.929
Mof_C 	C 	0.6236	0.5473	0.4737	0.301
Mof_O 	O 	0.6065	0.5124	0.4977	-0.38
Mof_O 	O 	0.5679	0.559	0.461	-0.33
Mof_C 	C 	0.7998	0.6377	0.4223	0.158
Mof_C 	C 	0.8602	0.623	0.4349	-0.121
Mof_H 	H 	0.9108	0.639	0.4261	0.09
Mof_C 	C 	0.8442	0.586	0.4607	-0.004
Mof_C 	C 	0.7678	0.562	0.4739	-0.052
Mof_H 	H 	0.7572	0.538	0.491	0.084
Mof_C 	C 	0.7074	0.5769	0.46136	-0.008
Mof_C 	C 	0.7234	0.6145	0.4355	-0.128
Mof_H 	H 	0.6834	0.624	0.4272	0.114
Mof_C 	C 	0.897	0.5573	0.4769	0.302
Mof_O 	O 	0.8754	0.531	0.5018	-0.397
Mof_O 	O 	0.9712	0.576	0.4678	-0.383
Mof_N 	N 	0.8402	0.6796	0.3971	-0.243
Mof_C 	C 	0.795	0.696	0.3793	0.229
Mof_O 	O 	0.719	0.67	0.3821	-0.242
Mof_H 	H 	0.8933	0.699	0.3926	0.13
Mof_C 	C 	0.8325	0.7291	0.35065	-0.057
Mof_C 	C 	0.7824	0.7351	0.3301	0.022
Mof_C 	C 	0.8167	0.765	0.3043	-0.023
Mof_C 	C 	0.901	0.789	0.2989	0.06
Mof_C 	C 	0.9511	0.7831	0.3194	-0.071
Mof_C 	C 	0.9169	0.7532	0.3453	-0.03
Mof_H 	H 	0.7266	0.719	0.3337	0.025
Mof_H 	H 	0.784	0.769	0.2907	0.043
Mof_H 	H 	0.0069	0.799	0.3158	0.051
Mof_H 	H 	0.95	0.749	0.3588	0.029
Mof_C 	C 	0.9368	0.8203	0.27185	-0.049
Mof_C 	C 	0.8993	0.7758	0.2463	0.044
Mof_N 	N 	0.9336	0.8031	0.2215	-0.185
Mof_C 	C 	0.0107	0.8792	0.2184	0.076
Mof_N 	N 	0.0508	0.9258	0.242	-0.11
Mof_C 	C 	0.0165	0.8985	0.2668	0.041
Mof_H 	H 	0.0437	0.9298	0.2822	0.024
Mof_H 	H 	0.034	0.8972	0.2011	0.026
Mof_H 	H 	0.8485	0.7252	0.2465	0.031
Mof_C 	C 	0.7808	0.6994	0.3275	-0.032
Mof_C 	C 	0.8151	0.729	0.3016	-0.078
Mof_C 	C 	0.9527	0.8187	0.322	-0.025
Mof_C 	C 	0.9185	0.7888	0.3479	0.017
Mof_H 	H 	0.724	0.66	0.3294	0.049
Mof_H 	H 	0.781	0.71	0.2863	0.068
Mof_H 	H 	0.0096	0.858	0.3202	0.034
Mof_H 	H 	0.9527	0.808	0.3632	0.016
Mof_Cu	Cu	0.17397	0.77843	0.85333	0.928
Mof_C 	C 	0.29027	0.88063	0.80703	0.3
Mof_O 	O 	0.27317	0.84573	0.83103	-0.381
Mof_O 	O 	0.23457	0.89233	0.79433	-0.331
Mof_C 	C 	0.46647	0.97103	0.75563	0.158
Mof_C 	C 	0.52687	0.95633	0.76823	-0.122
Mof_H 	H 	0.57747	0.97233	0.75943	0.09
Mof_C 	C 	0.51087	0.91933	0.79403	-0.005
Mof_C 	C 	0.43447	0.89533	0.80723	-0.054
Mof_H 	H 	0.42387	0.87133	0.82433	0.083
Mof_C 	C 	0.37407	0.91023	0.79469	-0.009
Mof_C 	C 	0.39007	0.94783	0.76883	-0.129
Mof_H 	H 	0.35007	0.95733	0.76053	0.113
Mof_C 	C 	0.56367	0.89063	0.81023	0.301
Mof_O 	O 	0.54207	0.86433	0.83513	-0.398
Mof_O 	O 	0.63787	0.90933	0.80113	-0.384
Mof_N 	N 	0.50687	0.01293	0.73043	-0.244
Mof_C 	C 	0.46167	0.02933	0.71263	0.228
Mof_O 	O 	0.38567	0.00333	0.71543	-0.243
Mof_H 	H 	0.55997	0.03233	0.72593	0.129
Mof_C 	C 	0.49917	0.06243	0.68398	-0.058
Mof_C 	C 	0.44907	0.06843	0.66343	0.019
Mof_C 	C 	0.48337	0.09833	0.63763	-0.026
Mof_C 	C 	0.56767	0.12233	0.63223	0.06
Mof_C 	C 	0.61777	0.11643	0.65273	-0.071
Mof_C 	C 	0.58357	0.08653	0.67863	-0.03
Mof_H 	H 	0.39327	0.05233	0.66703	0.025
Mof_H 	H 	0.45067	0.10233	0.62403	0.043
Mof_H 	H 	0.67357	0.13233	0.64913	0.05
Mof_H 	H 	0.61667	0.08233	0.69213	0.027
Mof_C 	C 	0.60347	0.15363	0.60518	-0.051
Mof_C 	C 	0.56597	0.10913	0.57963	0.043
Mof_N 	N 	0.60027	0.13643	0.55483	-0.187
Mof_C 	C 	0.67737	0.21253	0.55173	0.075
Mof_N 	N 	0.71747	0.25913	0.57533	-0.111
Mof_C 	C 	0.68317	0.23183	0.60013	0.04
Mof_H 	H 	0.71037	0.26313	0.61553	0.023
Mof_H 	H 	0.70067	0.23053	0.53443	0.025
Mof_H 	H 	0.51517	0.05853	0.57983	0.03
Mof_C 	C 	0.44747	0.03273	0.66083	-0.03
Mof_C 	C 	0.48177	0.06233	0.63493	-0.078
Mof_C 	C 	0.61937	0.15203	0.65533	-0.028
Mof_C 	C 	0.58517	0.12213	0.68123	0.015
Mof_H 	H 	0.39067	0.99333	0.66273	0.048
Mof_H 	H 	0.44767	0.04333	0.61963	0.067
Mof_H 	H 	0.67627	0.19133	0.65353	0.034
Mof_H 	H 	0.61937	0.14133	0.69653	0.016
Mof_Cu	Cu	0.84063	0.11177	0.18667	0.928
Mof_C 	C 	0.95693	0.21397	0.14037	0.3
Mof_O 	O 	0.93983	0.17907	0.16437	-0.381
Mof_O 	O 	0.90123	0.22567	0.12767	-0.331
Mof_C 	C 	0.13313	0.30437	0.08897	0.157
Mof_C 	C 	0.19353	0.28967	0.10157	-0.122
Mof_H 	H 	0.24413	0.30567	0.09277	0.089
Mof_C 	C 	0.17753	0.25267	0.12737	-0.005
Mof_C 	C 	0.10113	0.22867	0.14057	-0.053
Mof_H 	H 	0.09053	0.20467	0.15767	0.082
Mof_C 	C 	0.04073	0.24357	0.12803	-0.01
Mof_C 	C 	0.05673	0.28117	0.10217	-0.129
Mof_H 	H 	0.01673	0.29067	0.09387	0.113
Mof_C 	C 	0.23033	0.22397	0.14357	0.301
Mof_O 	O 	0.20873	0.19767	0.16847	-0.398
Mof_O 	O 	0.30453	0.24267	0.13447	-0.384
Mof_N 	N 	0.17353	0.34627	0.06377	-0.244
Mof_C 	C 	0.12833	0.36267	0.04597	0.228
Mof_O 	O 	0.05233	0.33667	0.04877	-0.243
Mof_H 	H 	0.22663	0.36567	0.05927	0.129
Mof_C 	C 	0.16583	0.39577	0.01732	-0.058
Mof_C 	C 	0.11573	0.40177	0.99677	0.021
Mof_C 	C 	0.15003	0.43167	0.97097	-0.024
Mof_C 	C 	0.23433	0.45567	0.96557	0.06
Mof_C 	C 	0.28443	0.44977	0.98607	-0.072
Mof_C 	C 	0.25023	0.41987	0.01197	-0.031
Mof_H 	H 	0.05993	0.38567	0.00037	0.024
Mof_H 	H 	0.11733	0.43567	0.95737	0.042
Mof_H 	H 	0.34023	0.46567	0.98247	0.05
Mof_H 	H 	0.28333	0.41567	0.02547	0.028
Mof_C 	C 	0.27013	0.48697	0.93852	-0.051
Mof_C 	C 	0.23263	0.44247	0.91297	0.043
Mof_N 	N 	0.26693	0.46977	0.88817	-0.187
Mof_C 	C 	0.34403	0.54587	0.88507	0.075
Mof_N 	N 	0.38413	0.59247	0.90867	-0.111
Mof_C 	C 	0.34983	0.56517	0.93347	0.04
Mof_H 	H 	0.37703	0.59647	0.94887	0.023
Mof_H 	H 	0.36733	0.56387	0.86777	0.025
Mof_H 	H 	0.18183	0.39187	0.91317	0.03
Mof_C 	C 	0.11413	0.36607	0.99417	-0.032
Mof_C 	C 	0.14843	0.39567	0.96827	-0.08
Mof_C 	C 	0.28603	0.48537	0.98867	-0.027
Mof_C 	C 	0.25183	0.45547	0.01457	0.016
Mof_H 	H 	0.05733	0.32667	0.99607	0.048
Mof_H 	H 	0.11433	0.37667	0.95297	0.067
Mof_H 	H 	0.34293	0.52467	0.98687	0.033
Mof_H 	H 	0.28603	0.47467	0.02987	0.016
Mof_Cu	Cu	0.5549	0.0622	0.52	0.928
Mof_C 	C 	0.4527	0.0763	0.4737	0.3
Mof_O 	O 	0.4876	0.0941	0.4977	-0.381
Mof_O 	O 	0.441	0.0089	0.461	-0.331
Mof_C 	C 	0.3623	0.1621	0.4223	0.157
Mof_C 	C 	0.377	0.2372	0.4349	-0.122
Mof_H 	H 	0.361	0.2718	0.4261	0.089
Mof_C 	C 	0.414	0.2582	0.4607	-0.005
Mof_C 	C 	0.438	0.2058	0.4739	-0.053
Mof_H 	H 	0.462	0.2192	0.491	0.083
Mof_C 	C 	0.4231	0.1305	0.46136	-0.009
Mof_C 	C 	0.3855	0.1089	0.4355	-0.129
Mof_H 	H 	0.376	0.0594	0.4272	0.113
Mof_C 	C 	0.4427	0.3397	0.4769	0.301
Mof_O 	O 	0.469	0.3444	0.5018	-0.398
Mof_O 	O 	0.424	0.3952	0.4678	-0.384
Mof_N 	N 	0.3204	0.1606	0.3971	-0.244
Mof_C 	C 	0.304	0.099	0.3793	0.228
Mof_O 	O 	0.33	0.049	0.3821	-0.243
Mof_H 	H 	0.301	0.1943	0.3926	0.129
Mof_C 	C 	0.2709	0.1034	0.35065	-0.058
Mof_C 	C 	0.2649	0.0473	0.3301	0.021
Mof_C 	C 	0.235	0.0517	0.3043	-0.025
Mof_C 	C 	0.211	0.112	0.2989	0.06
Mof_C 	C 	0.2169	0.168	0.3194	-0.072
Mof_C 	C 	0.2468	0.1637	0.3453	-0.031
Mof_H 	H 	0.281	0.0076	0.3337	0.025
Mof_H 	H 	0.231	0.015	0.2907	0.042
Mof_H 	H 	0.201	0.2079	0.3158	0.05
Mof_H 	H 	0.251	0.201	0.3588	0.028
Mof_C 	C 	0.1797	0.1165	0.27185	-0.051
Mof_C 	C 	0.2242	0.1235	0.2463	0.043
Mof_N 	N 	0.1969	0.1305	0.2215	-0.187
Mof_C 	C 	0.1208	0.1315	0.2184	0.075
Mof_N 	N 	0.0742	0.125	0.242	-0.111
Mof_C 	C 	0.1015	0.118	0.2668	0.04
Mof_H 	H 	0.0702	0.1139	0.2822	0.023
Mof_H 	H 	0.1028	0.1368	0.2011	0.025
Mof_H 	H 	0.2748	0.1233	0.2465	0.03
Mof_C 	C 	0.3006	0.0814	0.3275	-0.032
Mof_C 	C 	0.271	0.0861	0.3016	-0.079
Mof_C 	C 	0.1813	0.134	0.322	-0.027
Mof_C 	C 	0.2112	0.1297	0.3479	0.016
Mof_H 	H 	0.34	0.064	0.3294	0.048
Mof_H 	H 	0.29	0.071	0.2863	0.067
Mof_H 	H 	0.142	0.1516	0.3202	0.033
Mof_H 	H 	0.192	0.1447	0.3632	0.016
Mof_Cu	Cu	0.22157	0.39553	0.85333	0.928
Mof_C 	C 	0.11937	0.40963	0.80703	0.3
Mof_O 	O 	0.15427	0.42743	0.83103	-0.381
Mof_O 	O 	0.10767	0.34223	0.79433	-0.331
Mof_C 	C 	0.02897	0.49543	0.75563	0.158
Mof_C 	C 	0.04367	0.57053	0.76823	-0.122
Mof_H 	H 	0.02767	0.60513	0.75943	0.089
Mof_C 	C 	0.08067	0.59153	0.79403	-0.005
Mof_C 	C 	0.10467	0.53913	0.80723	-0.054
Mof_H 	H 	0.12867	0.55253	0.82433	0.083
Mof_C 	C 	0.08977	0.46383	0.79469	-0.009
Mof_C 	C 	0.05217	0.44223	0.76883	-0.129
Mof_H 	H 	0.04267	0.39273	0.76053	0.113
Mof_C 	C 	0.10937	0.67303	0.81023	0.301
Mof_O 	O 	0.13567	0.67773	0.83513	-0.398
Mof_O 	O 	0.09067	0.72853	0.80113	-0.384
Mof_N 	N 	0.98707	0.49393	0.73043	-0.244
Mof_C 	C 	0.97067	0.43233	0.71263	0.228
Mof_O 	O 	0.99667	0.38233	0.71543	-0.243
Mof_H 	H 	0.96767	0.52763	0.72593	0.129
Mof_C 	C 	0.93757	0.43673	0.68398	-0.058
Mof_C 	C 	0.93157	0.38063	0.66343	0.019
Mof_C 	C 	0.90167	0.38503	0.63763	-0.026
Mof_C 	C 	0.87767	0.44533	0.63223	0.06
Mof_C 	C 	0.88357	0.50133	0.65273	-0.071
Mof_C 	C 	0.91347	0.49703	0.67863	-0.03
Mof_H 	H 	0.94767	0.34093	0.66703	0.025
Mof_H 	H 	0.89767	0.34833	0.62403	0.043
Mof_H 	H 	0.86767	0.54123	0.64913	0.05
Mof_H 	H 	0.91767	0.53433	0.69213	0.027
Mof_C 	C 	0.84637	0.44983	0.60518	-0.051
Mof_C 	C 	0.89087	0.45683	0.57963	0.043
Mof_N 	N 	0.86357	0.46383	0.55483	-0.187
Mof_C 	C 	0.78747	0.46483	0.55173	0.075
Mof_N 	N 	0.74087	0.45833	0.57533	-0.111
Mof_C 	C 	0.76817	0.45133	0.60013	0.04
Mof_H 	H 	0.73687	0.44723	0.61553	0.023
Mof_H 	H 	0.76947	0.47013	0.53443	0.025
Mof_H 	H 	0.94147	0.45663	0.57983	0.03
Mof_C 	C 	0.96727	0.41473	0.66083	-0.031
Mof_C 	C 	0.93767	0.41943	0.63493	-0.078
Mof_C 	C 	0.84797	0.46733	0.65533	-0.028
Mof_C 	C 	0.87787	0.46303	0.68123	0.015
Mof_H 	H 	0.00667	0.39733	0.66273	0.048
Mof_H 	H 	0.95667	0.40433	0.61963	0.067
Mof_H 	H 	0.80867	0.48493	0.65353	0.033
Mof_H 	H 	0.85867	0.47803	0.69653	0.016
Mof_Cu	Cu	0.88823	0.72887	0.18667	0.928
Mof_C 	C 	0.78603	0.74297	0.14037	0.3
Mof_O 	O 	0.82093	0.76077	0.16437	-0.381
Mof_O 	O 	0.77433	0.67557	0.12767	-0.331
Mof_C 	C 	0.69563	0.82877	0.08897	0.157
Mof_C 	C 	0.71033	0.90387	0.10157	-0.122
Mof_H 	H 	0.69433	0.93847	0.09277	0.089
Mof_C 	C 	0.74733	0.92487	0.12737	-0.005
Mof_C 	C 	0.77133	0.87247	0.14057	-0.053
Mof_H 	H 	0.79533	0.88587	0.15767	0.082
Mof_C 	C 	0.75643	0.79717	0.12803	-0.009
Mof_C 	C 	0.71883	0.77557	0.10217	-0.129
Mof_H 	H 	0.70933	0.72607	0.09387	0.113
Mof_C 	C 	0.77603	0.00637	0.14357	0.302
Mof_O 	O 	0.80233	0.01107	0.16847	-0.398
Mof_O 	O 	0.75733	0.06187	0.13447	-0.384
Mof_N 	N 	0.65373	0.82727	0.06377	-0.244
Mof_C 	C 	0.63733	0.76567	0.04597	0.228
Mof_O 	O 	0.66333	0.71567	0.04877	-0.243
Mof_H 	H 	0.63433	0.86097	0.05927	0.129
Mof_C 	C 	0.60423	0.77007	0.01732	-0.058
Mof_C 	C 	0.59823	0.71397	0.99677	0.021
Mof_C 	C 	0.56833	0.71837	0.97097	-0.024
Mof_C 	C 	0.54433	0.77867	0.96557	0.06
Mof_C 	C 	0.55023	0.83467	0.98607	-0.072
Mof_C 	C 	0.58013	0.83037	0.01197	-0.031
Mof_H 	H 	0.61433	0.67427	0.00037	0.024
Mof_H 	H 	0.56433	0.68167	0.95737	0.042
Mof_H 	H 	0.53433	0.87457	0.98247	0.05
Mof_H 	H 	0.58433	0.86767	0.02547	0.028
Mof_C 	C 	0.51303	0.78317	0.93852	-0.051
Mof_C 	C 	0.55753	0.79017	0.91297	0.043
Mof_N 	N 	0.53023	0.79717	0.88817	-0.187
Mof_C 	C 	0.45413	0.79817	0.88507	0.075
Mof_N 	N 	0.40753	0.79167	0.90867	-0.111
Mof_C 	C 	0.43483	0.78467	0.93347	0.04
Mof_H 	H 	0.40353	0.78057	0.94887	0.023
Mof_H 	H 	0.43613	0.80347	0.86777	0.025
Mof_H 	H 	0.60813	0.78997	0.91317	0.03
Mof_C 	C 	0.63393	0.74807	0.99417	-0.032
Mof_C 	C 	0.60433	0.75277	0.96827	-0.08
Mof_C 	C 	0.51463	0.80067	0.98867	-0.027
Mof_C 	C 	0.54453	0.79637	0.01457	0.016
Mof_H 	H 	0.67333	0.73067	0.99607	0.048
Mof_H 	H 	0.62333	0.73767	0.95297	0.067
Mof_H 	H 	0.47533	0.81827	0.98687	0.033
Mof_H 	H 	0.52533	0.81137	0.02987	0.016
Mof_Cu	Cu	0.9378	0.4927	0.52	0.928
Mof_C 	C 	0.9237	0.3764	0.4737	0.3
Mof_O 	O 	0.9059	0.3935	0.4977	-0.381
Mof_O 	O 	0.9911	0.4321	0.461	-0.331
Mof_C 	C 	0.8379	0.2002	0.4223	0.157
Mof_C 	C 	0.7628	0.1398	0.4349	-0.122
Mof_H 	H 	0.7282	0.0892	0.4261	0.089
Mof_C 	C 	0.7418	0.1558	0.4607	-0.005
Mof_C 	C 	0.7942	0.2322	0.4739	-0.053
Mof_H 	H 	0.7808	0.2428	0.491	0.083
Mof_C 	C 	0.8695	0.2926	0.46136	-0.009
Mof_C 	C 	0.8911	0.2766	0.4355	-0.129
Mof_H 	H 	0.9406	0.3166	0.4272	0.113
Mof_C 	C 	0.6603	0.103	0.4769	0.301
Mof_O 	O 	0.6556	0.1246	0.5018	-0.398
Mof_O 	O 	0.6048	0.0288	0.4678	-0.384
Mof_N 	N 	0.8394	0.1598	0.3971	-0.244
Mof_C 	C 	0.901	0.205	0.3793	0.228
Mof_O 	O 	0.951	0.281	0.3821	-0.243
Mof_H 	H 	0.8057	0.1067	0.3926	0.129
Mof_C 	C 	0.8966	0.1675	0.35065	-0.058
Mof_C 	C 	0.9527	0.2176	0.3301	0.021
Mof_C 	C 	0.9483	0.1833	0.3043	-0.025
Mof_C 	C 	0.888	0.099	0.2989	0.06
Mof_C 	C 	0.832	0.0489	0.3194	-0.072
Mof_C 	C 	0.8363	0.0831	0.3453	-0.031
Mof_H 	H 	0.9924	0.2734	0.3337	0.025
Mof_H 	H 	0.985	0.216	0.2907	0.042
Mof_H 	H 	0.7921	0.9931	0.3158	0.05
Mof_H 	H 	0.799	0.05	0.3588	0.028
Mof_C 	C 	0.8835	0.0632	0.27185	-0.051
Mof_C 	C 	0.8765	0.1007	0.2463	0.043
Mof_N 	N 	0.8695	0.0664	0.2215	-0.186
Mof_C 	C 	0.8685	0.9893	0.2184	0.075
Mof_N 	N 	0.875	0.9492	0.242	-0.111
Mof_C 	C 	0.882	0.9835	0.2668	0.04
Mof_H 	H 	0.8861	0.9563	0.2822	0.023
Mof_H 	H 	0.8632	0.966	0.2011	0.025
Mof_H 	H 	0.8767	0.1515	0.2465	0.03
Mof_C 	C 	0.9186	0.2192	0.3275	-0.032
Mof_C 	C 	0.9139	0.1849	0.3016	-0.079
Mof_C 	C 	0.866	0.0473	0.322	-0.027
Mof_C 	C 	0.8703	0.0815	0.3479	0.016
Mof_H 	H 	0.936	0.276	0.3294	0.048
Mof_H 	H 	0.929	0.219	0.2863	0.067
Mof_H 	H 	0.8484	0.9904	0.3202	0.033
Mof_H 	H 	0.8553	0.0473	0.3632	0.016
Mof_Cu	Cu	0.60447	0.82603	0.85333	0.928
Mof_C 	C 	0.59037	0.70973	0.80703	0.3
Mof_O 	O 	0.57257	0.72683	0.83103	-0.381
Mof_O 	O 	0.65777	0.76543	0.79433	-0.331
Mof_C 	C 	0.50457	0.53353	0.75563	0.157
Mof_C 	C 	0.42947	0.47313	0.76823	-0.122
Mof_H 	H 	0.39487	0.42253	0.75943	0.089
Mof_C 	C 	0.40847	0.48913	0.79403	-0.005
Mof_C 	C 	0.46087	0.56553	0.80723	-0.053
Mof_H 	H 	0.44747	0.57613	0.82433	0.083
Mof_C 	C 	0.53617	0.62593	0.79469	-0.009
Mof_C 	C 	0.55777	0.60993	0.76883	-0.129
Mof_H 	H 	0.60727	0.64993	0.76053	0.113
Mof_C 	C 	0.32697	0.43633	0.81023	0.301
Mof_O 	O 	0.32227	0.45793	0.83513	-0.398
Mof_O 	O 	0.27147	0.36213	0.80113	-0.384
Mof_N 	N 	0.50607	0.49313	0.73043	-0.244
Mof_C 	C 	0.56767	0.53833	0.71263	0.228
Mof_O 	O 	0.61767	0.61433	0.71543	-0.243
Mof_H 	H 	0.47237	0.44003	0.72593	0.129
Mof_C 	C 	0.56327	0.50083	0.68398	-0.058
Mof_C 	C 	0.61937	0.55093	0.66343	0.021
Mof_C 	C 	0.61497	0.51663	0.63763	-0.024
Mof_C 	C 	0.55467	0.43233	0.63223	0.06
Mof_C 	C 	0.49867	0.38223	0.65273	-0.072
Mof_C 	C 	0.50297	0.41643	0.67863	-0.031
Mof_H 	H 	0.65907	0.60673	0.66703	0.024
Mof_H 	H 	0.65167	0.54933	0.62403	0.042
Mof_H 	H 	0.45877	0.32643	0.64913	0.05
Mof_H 	H 	0.46567	0.38333	0.69213	0.028
Mof_C 	C 	0.55017	0.39653	0.60518	-0.051
Mof_C 	C 	0.54317	0.43403	0.57963	0.043
Mof_N 	N 	0.53617	0.39973	0.55483	-0.187
Mof_C 	C 	0.53517	0.32263	0.55173	0.075
Mof_N 	N 	0.54167	0.28253	0.57533	-0.111
Mof_C 	C 	0.54867	0.31683	0.60013	0.04
Mof_H 	H 	0.55277	0.28963	0.61553	0.023
Mof_H 	H 	0.52987	0.29933	0.53443	0.025
Mof_H 	H 	0.54337	0.48483	0.57983	0.03
Mof_C 	C 	0.58527	0.55253	0.66083	-0.032
Mof_C 	C 	0.58057	0.51823	0.63493	-0.08
Mof_C 	C 	0.53267	0.38063	0.65533	-0.027
Mof_C 	C 	0.53697	0.41483	0.68123	0.016
Mof_H 	H 	0.60267	0.60933	0.66273	0.048
Mof_H 	H 	0.59567	0.55233	0.61963	0.067
Mof_H 	H 	0.51507	0.32373	0.65353	0.033
Mof_H 	H 	0.52197	0.38063	0.69653	0.016
Mof_Cu	Cu	0.27113	0.15937	0.18667	0.928
Mof_C 	C 	0.25703	0.04307	0.14037	0.3
Mof_O 	O 	0.23923	0.06017	0.16437	-0.381
Mof_O 	O 	0.32443	0.09877	0.12767	-0.331
Mof_C 	C 	0.17123	0.86687	0.08897	0.157
Mof_C 	C 	0.09613	0.80647	0.10157	-0.122
Mof_H 	H 	0.06153	0.75587	0.09277	0.089
Mof_C 	C 	0.07513	0.82247	0.12737	-0.005
Mof_C 	C 	0.12753	0.89887	0.14057	-0.053
Mof_H 	H 	0.11413	0.90947	0.15767	0.082
Mof_C 	C 	0.20283	0.95927	0.12803	-0.01
Mof_C 	C 	0.22443	0.94327	0.10217	-0.129
Mof_H 	H 	0.27393	0.98327	0.09387	0.113
Mof_C 	C 	0.99363	0.76967	0.14357	0.302
Mof_O 	O 	0.98893	0.79127	0.16847	-0.398
Mof_O 	O 	0.93813	0.69547	0.13447	-0.384
Mof_N 	N 	0.17273	0.82647	0.06377	-0.244
Mof_C 	C 	0.23433	0.87167	0.04597	0.228
Mof_O 	O 	0.28433	0.94767	0.04877	-0.243
Mof_H 	H 	0.13903	0.77337	0.05927	0.129
Mof_C 	C 	0.22993	0.83417	0.01732	-0.059
Mof_C 	C 	0.28603	0.88427	0.99677	0.021
Mof_C 	C 	0.28163	0.84997	0.97097	-0.024
Mof_C 	C 	0.22133	0.76567	0.96557	0.06
Mof_C 	C 	0.16533	0.71557	0.98607	-0.072
Mof_C 	C 	0.16963	0.74977	0.01197	-0.031
Mof_H 	H 	0.32573	0.94007	0.00037	0.024
Mof_H 	H 	0.31833	0.88267	0.95737	0.042
Mof_H 	H 	0.12543	0.65977	0.98247	0.05
Mof_H 	H 	0.13233	0.71667	0.02547	0.028
Mof_C 	C 	0.21683	0.72987	0.93852	-0.051
Mof_C 	C 	0.20983	0.76737	0.91297	0.043
Mof_N 	N 	0.20283	0.73307	0.88817	-0.187
Mof_C 	C 	0.20183	0.65597	0.88507	0.075
Mof_N 	N 	0.20833	0.61587	0.90867	-0.111
Mof_C 	C 	0.21533	0.65017	0.93347	0.04
Mof_H 	H 	0.21943	0.62297	0.94887	0.023
Mof_H 	H 	0.19653	0.63267	0.86777	0.025
Mof_H 	H 	0.21003	0.81817	0.91317	0.03
Mof_C 	C 	0.25193	0.88587	0.99417	-0.032
Mof_C 	C 	0.24723	0.85157	0.96827	-0.08
Mof_C 	C 	0.19933	0.71397	0.98867	-0.027
Mof_C 	C 	0.20363	0.74817	0.01457	0.016
Mof_H 	H 	0.26933	0.94267	0.99607	0.048
Mof_H 	H 	0.26233	0.88567	0.95297	0.067
Mof_H 	H 	0.18173	0.65707	0.98687	0.033
Mof_H 	H 	0.18863	0.71397	0.02987	0.016
Mof_Cu	Cu	0.4451	0.5073	0.48	0.928
Mof_C 	C 	0.5473	0.6236	0.5263	0.3
Mof_O 	O 	0.5124	0.6065	0.5023	-0.381
Mof_O 	O 	0.559	0.5679	0.539	-0.331
Mof_C 	C 	0.6377	0.7998	0.5777	0.157
Mof_C 	C 	0.623	0.8602	0.5651	-0.122
Mof_H 	H 	0.639	0.9108	0.5739	0.089
Mof_C 	C 	0.586	0.8442	0.5393	-0.005
Mof_C 	C 	0.562	0.7678	0.5261	-0.053
Mof_H 	H 	0.538	0.7572	0.509	0.083
Mof_C 	C 	0.5769	0.7074	0.53864	-0.009
Mof_C 	C 	0.6145	0.7234	0.5645	-0.129
Mof_H 	H 	0.624	0.6834	0.5728	0.113
Mof_C 	C 	0.5573	0.897	0.5231	0.301
Mof_O 	O 	0.531	0.8754	0.4982	-0.398
Mof_O 	O 	0.576	0.9712	0.5322	-0.384
Mof_N 	N 	0.6796	0.8402	0.6029	-0.244
Mof_C 	C 	0.696	0.795	0.6207	0.228
Mof_O 	O 	0.67	0.719	0.6179	-0.243
Mof_H 	H 	0.699	0.8933	0.6074	0.129
Mof_C 	C 	0.7291	0.8325	0.64935	-0.058
Mof_C 	C 	0.7351	0.7824	0.6699	0.021
Mof_C 	C 	0.765	0.8167	0.6957	-0.024
Mof_C 	C 	0.789	0.901	0.7011	0.059
Mof_C 	C 	0.7831	0.9511	0.6806	-0.072
Mof_C 	C 	0.7532	0.9169	0.6547	-0.031
Mof_H 	H 	0.719	0.7266	0.6663	0.024
Mof_H 	H 	0.769	0.784	0.7093	0.042
Mof_H 	H 	0.799	0.0069	0.6842	0.05
Mof_H 	H 	0.749	0.95	0.6412	0.028
Mof_C 	C 	0.8203	0.9368	0.72815	-0.05
Mof_C 	C 	0.7758	0.8993	0.7537	0.043
Mof_N 	N 	0.8031	0.9336	0.7785	-0.186
Mof_C 	C 	0.8792	0.0107	0.7816	0.075
Mof_N 	N 	0.9258	0.0508	0.758	-0.111
Mof_C 	C 	0.8985	0.0165	0.7332	0.04
Mof_H 	H 	0.9298	0.0437	0.7178	0.023
Mof_H 	H 	0.8972	0.034	0.7989	0.025
Mof_H 	H 	0.7252	0.8485	0.7535	0.03
Mof_C 	C 	0.6994	0.7808	0.6725	-0.033
Mof_C 	C 	0.729	0.8151	0.6984	-0.079
Mof_C 	C 	0.8187	0.9527	0.678	-0.026
Mof_C 	C 	0.7888	0.9185	0.6521	0.016
Mof_H 	H 	0.66	0.724	0.6706	0.048
Mof_H 	H 	0.71	0.781	0.7137	0.067
Mof_H 	H 	0.858	0.0096	0.6798	0.033
Mof_H 	H 	0.808	0.9527	0.6368	0.016
Mof_Cu	Cu	0.11177	0.84063	0.81333	0.928
Mof_C 	C 	0.21397	0.95693	0.85963	0.3
Mof_O 	O 	0.17907	0.93983	0.83563	-0.381
Mof_O 	O 	0.22567	0.90123	0.87233	-0.331
Mof_C 	C 	0.30437	0.13313	0.91103	0.157
Mof_C 	C 	0.28967	0.19353	0.89843	-0.122
Mof_H 	H 	0.30567	0.24413	0.90723	0.089
Mof_C 	C 	0.25267	0.17753	0.87263	-0.005
Mof_C 	C 	0.22867	0.10113	0.85943	-0.053
Mof_H 	H 	0.20467	0.09053	0.84233	0.082
Mof_C 	C 	0.24357	0.04073	0.87197	-0.01
Mof_C 	C 	0.28117	0.05673	0.89783	-0.129
Mof_H 	H 	0.29067	0.01673	0.90613	0.113
Mof_C 	C 	0.22397	0.23033	0.85643	0.301
Mof_O 	O 	0.19767	0.20873	0.83153	-0.398
Mof_O 	O 	0.24267	0.30453	0.86553	-0.384
Mof_N 	N 	0.34627	0.17353	0.93623	-0.244
Mof_C 	C 	0.36267	0.12833	0.95403	0.228
Mof_O 	O 	0.33667	0.05233	0.95123	-0.243
Mof_H 	H 	0.36567	0.22663	0.94073	0.129
Mof_C 	C 	0.39577	0.16583	0.98268	-0.058
Mof_C 	C 	0.40177	0.11573	0.00323	0.021
Mof_C 	C 	0.43167	0.15003	0.02903	-0.024
Mof_C 	C 	0.45567	0.23433	0.03443	0.06
Mof_C 	C 	0.44977	0.28443	0.01393	-0.072
Mof_C 	C 	0.41987	0.25023	0.98803	-0.031
Mof_H 	H 	0.38567	0.05993	0.99963	0.024
Mof_H 	H 	0.43567	0.11733	0.04263	0.042
Mof_H 	H 	0.46567	0.34023	0.01753	0.05
Mof_H 	H 	0.41567	0.28333	0.97453	0.028
Mof_C 	C 	0.48697	0.27013	0.06148	-0.051
Mof_C 	C 	0.44247	0.23263	0.08703	0.043
Mof_N 	N 	0.46977	0.26693	0.11183	-0.187
Mof_C 	C 	0.54587	0.34403	0.11493	0.075
Mof_N 	N 	0.59247	0.38413	0.09133	-0.111
Mof_C 	C 	0.56517	0.34983	0.06653	0.04
Mof_H 	H 	0.59647	0.37703	0.05113	0.023
Mof_H 	H 	0.56387	0.36733	0.13223	0.025
Mof_H 	H 	0.39187	0.18183	0.08683	0.03
Mof_C 	C 	0.36607	0.11413	0.00583	-0.032
Mof_C 	C 	0.39567	0.14843	0.03173	-0.08
Mof_C 	C 	0.48537	0.28603	0.01133	-0.027
Mof_C 	C 	0.45547	0.25183	0.98543	0.016
Mof_H 	H 	0.32667	0.05733	0.00393	0.048
Mof_H 	H 	0.37667	0.11433	0.04703	0.067
Mof_H 	H 	0.52467	0.34293	0.01313	0.033
Mof_H 	H 	0.47467	0.28603	0.97013	0.016
Mof_Cu	Cu	0.77843	0.17397	0.14667	0.928
Mof_C 	C 	0.88063	0.29027	0.19297	0.3
Mof_O 	O 	0.84573	0.27317	0.16897	-0.381
Mof_O 	O 	0.89233	0.23457	0.20567	-0.331
Mof_C 	C 	0.97103	0.46647	0.24437	0.158
Mof_C 	C 	0.95633	0.52687	0.23177	-0.122
Mof_H 	H 	0.97233	0.57747	0.24057	0.09
Mof_C 	C 	0.91933	0.51087	0.20597	-0.005
Mof_C 	C 	0.89533	0.43447	0.19277	-0.054
Mof_H 	H 	0.87133	0.42387	0.17567	0.083
Mof_C 	C 	0.91023	0.37407	0.20531	-0.009
Mof_C 	C 	0.94783	0.39007	0.23117	-0.129
Mof_H 	H 	0.95733	0.35007	0.23947	0.113
Mof_C 	C 	0.89063	0.56367	0.18977	0.301
Mof_O 	O 	0.86433	0.54207	0.16487	-0.398
Mof_O 	O 	0.90933	0.63787	0.19887	-0.384
Mof_N 	N 	0.01293	0.50687	0.26957	-0.244
Mof_C 	C 	0.02933	0.46167	0.28737	0.228
Mof_O 	O 	0.00333	0.38567	0.28457	-0.243
Mof_H 	H 	0.03233	0.55997	0.27407	0.129
Mof_C 	C 	0.06243	0.49917	0.31602	-0.058
Mof_C 	C 	0.06843	0.44907	0.33657	0.019
Mof_C 	C 	0.09833	0.48337	0.36237	-0.026
Mof_C 	C 	0.12233	0.56767	0.36777	0.06
Mof_C 	C 	0.11643	0.61777	0.34727	-0.071
Mof_C 	C 	0.08653	0.58357	0.32137	-0.03
Mof_H 	H 	0.05233	0.39327	0.33297	0.025
Mof_H 	H 	0.10233	0.45067	0.37597	0.043
Mof_H 	H 	0.13233	0.67357	0.35087	0.05
Mof_H 	H 	0.08233	0.61667	0.30787	0.027
Mof_C 	C 	0.15363	0.60347	0.39482	-0.051
Mof_C 	C 	0.10913	0.56597	0.42037	0.043
Mof_N 	N 	0.13643	0.60027	0.44517	-0.187
Mof_C 	C 	0.21253	0.67737	0.44827	0.075
Mof_N 	N 	0.25913	0.71747	0.42467	-0.111
Mof_C 	C 	0.23183	0.68317	0.39987	0.04
Mof_H 	H 	0.26313	0.71037	0.38447	0.023
Mof_H 	H 	0.23053	0.70067	0.46557	0.025
Mof_H 	H 	0.05853	0.51517	0.42017	0.03
Mof_C 	C 	0.03273	0.44747	0.33917	-0.03
Mof_C 	C 	0.06233	0.48177	0.36507	-0.078
Mof_C 	C 	0.15203	0.61937	0.34467	-0.028
Mof_C 	C 	0.12213	0.58517	0.31877	0.015
Mof_H 	H 	0.99333	0.39067	0.33727	0.048
Mof_H 	H 	0.04333	0.44767	0.38037	0.067
Mof_H 	H 	0.19133	0.67627	0.34647	0.034
Mof_H 	H 	0.14133	0.61937	0.30347	0.016
Mof_Cu	Cu	0.0622	0.5549	0.48	0.928
Mof_C 	C 	0.0763	0.4527	0.5263	0.3
Mof_O 	O 	0.0941	0.4876	0.5023	-0.381
Mof_O 	O 	0.0089	0.441	0.539	-0.331
Mof_C 	C 	0.1621	0.3623	0.5777	0.157
Mof_C 	C 	0.2372	0.377	0.5651	-0.122
Mof_H 	H 	0.2718	0.361	0.5739	0.089
Mof_C 	C 	0.2582	0.414	0.5393	-0.005
Mof_C 	C 	0.2058	0.438	0.5261	-0.053
Mof_H 	H 	0.2192	0.462	0.509	0.083
Mof_C 	C 	0.1305	0.4231	0.53864	-0.009
Mof_C 	C 	0.1089	0.3855	0.5645	-0.129
Mof_H 	H 	0.0594	0.376	0.5728	0.113
Mof_C 	C 	0.3397	0.4427	0.5231	0.301
Mof_O 	O 	0.3444	0.469	0.4982	-0.398
Mof_O 	O 	0.3952	0.424	0.5322	-0.384
Mof_N 	N 	0.1606	0.3204	0.6029	-0.244
Mof_C 	C 	0.099	0.304	0.6207	0.228
Mof_O 	O 	0.049	0.33	0.6179	-0.243
Mof_H 	H 	0.1943	0.301	0.6074	0.129
Mof_C 	C 	0.1034	0.2709	0.64935	-0.058
Mof_C 	C 	0.0473	0.2649	0.6699	0.021
Mof_C 	C 	0.0517	0.235	0.6957	-0.025
Mof_C 	C 	0.112	0.211	0.7011	0.06
Mof_C 	C 	0.168	0.2169	0.6806	-0.072
Mof_C 	C 	0.1637	0.2468	0.6547	-0.031
Mof_H 	H 	0.0076	0.281	0.6663	0.025
Mof_H 	H 	0.015	0.231	0.7093	0.042
Mof_H 	H 	0.2079	0.201	0.6842	0.05
Mof_H 	H 	0.201	0.251	0.6412	0.028
Mof_C 	C 	0.1165	0.1797	0.72815	-0.051
Mof_C 	C 	0.1235	0.2242	0.7537	0.043
Mof_N 	N 	0.1305	0.1969	0.7785	-0.187
Mof_C 	C 	0.1315	0.1208	0.7816	0.075
Mof_N 	N 	0.125	0.0742	0.758	-0.111
Mof_C 	C 	0.118	0.1015	0.7332	0.04
Mof_H 	H 	0.1139	0.0702	0.7178	0.023
Mof_H 	H 	0.1368	0.1028	0.7989	0.025
Mof_H 	H 	0.1233	0.2748	0.7535	0.03
Mof_C 	C 	0.0814	0.3006	0.6725	-0.032
Mof_C 	C 	0.0861	0.271	0.6984	-0.079
Mof_C 	C 	0.134	0.1813	0.678	-0.027
Mof_C 	C 	0.1297	0.2112	0.6521	0.016
Mof_H 	H 	0.064	0.34	0.6706	0.048
Mof_H 	H 	0.071	0.29	0.7137	0.067
Mof_H 	H 	0.1516	0.142	0.6798	0.033
Mof_H 	H 	0.1447	0.192	0.6368	0.016
Mof_Cu	Cu	0.72887	0.88823	0.81333	0.928
Mof_C 	C 	0.74297	0.78603	0.85963	0.3
Mof_O 	O 	0.76077	0.82093	0.83563	-0.381
Mof_O 	O 	0.67557	0.77433	0.87233	-0.331
Mof_C 	C 	0.82877	0.69563	0.91103	0.157
Mof_C 	C 	0.90387	0.71033	0.89843	-0.122
Mof_H 	H 	0.93847	0.69433	0.90723	0.089
Mof_C 	C 	0.92487	0.74733	0.87263	-0.005
Mof_C 	C 	0.87247	0.77133	0.85943	-0.053
Mof_H 	H 	0.88587	0.79533	0.84233	0.082
Mof_C 	C 	0.79717	0.75643	0.87197	-0.009
Mof_C 	C 	0.77557	0.71883	0.89783	-0.129
Mof_H 	H 	0.72607	0.70933	0.90613	0.113
Mof_C 	C 	0.00637	0.77603	0.85643	0.302
Mof_O 	O 	0.01107	0.80233	0.83153	-0.398
Mof_O 	O 	0.06187	0.75733	0.86553	-0.384
Mof_N 	N 	0.82727	0.65373	0.93623	-0.244
Mof_C 	C 	0.76567	0.63733	0.95403	0.228
Mof_O 	O 	0.71567	0.66333	0.95123	-0.243
Mof_H 	H 	0.86097	0.63433	0.94073	0.129
Mof_C 	C 	0.77007	0.60423	0.98268	-0.058
Mof_C 	C 	0.71397	0.59823	0.00323	0.021
Mof_C 	C 	0.71837	0.56833	0.02903	-0.024
Mof_C 	C 	0.77867	0.54433	0.03443	0.06
Mof_C 	C 	0.83467	0.55023	0.01393	-0.072
Mof_C 	C 	0.83037	0.58013	0.98803	-0.031
Mof_H 	H 	0.67427	0.61433	0.99963	0.024
Mof_H 	H 	0.68167	0.56433	0.04263	0.042
Mof_H 	H 	0.87457	0.53433	0.01753	0.05
Mof_H 	H 	0.86767	0.58433	0.97453	0.028
Mof_C 	C 	0.78317	0.51303	0.06148	-0.051
Mof_C 	C 	0.79017	0.55753	0.08703	0.043
Mof_N 	N 	0.79717	0.53023	0.11183	-0.187
Mof_C 	C 	0.79817	0.45413	0.11493	0.075
Mof_N 	N 	0.79167	0.40753	0.09133	-0.111
Mof_C 	C 	0.78467	0.43483	0.06653	0.04
Mof_H 	H 	0.78057	0.40353	0.05113	0.023
Mof_H 	H 	0.80347	0.43613	0.13223	0.025
Mof_H 	H 	0.78997	0.60813	0.08683	0.03
Mof_C 	C 	0.74807	0.63393	0.00583	-0.032
Mof_C 	C 	0.75277	0.60433	0.03173	-0.08
Mof_C 	C 	0.80067	0.51463	0.01133	-0.027
Mof_C 	C 	0.79637	0.54453	0.98543	0.016
Mof_H 	H 	0.73067	0.67333	0.00393	0.048
Mof_H 	H 	0.73767	0.62333	0.04703	0.067
Mof_H 	H 	0.81827	0.47533	0.01313	0.033
Mof_H 	H 	0.81137	0.52533	0.97013	0.016
Mof_Cu	Cu	0.39553	0.22157	0.14667	0.928
Mof_C 	C 	0.40963	0.11937	0.19297	0.3
Mof_O 	O 	0.42743	0.15427	0.16897	-0.381
Mof_O 	O 	0.34223	0.10767	0.20567	-0.331
Mof_C 	C 	0.49543	0.02897	0.24437	0.158
Mof_C 	C 	0.57053	0.04367	0.23177	-0.122
Mof_H 	H 	0.60513	0.02767	0.24057	0.089
Mof_C 	C 	0.59153	0.08067	0.20597	-0.005
Mof_C 	C 	0.53913	0.10467	0.19277	-0.054
Mof_H 	H 	0.55253	0.12867	0.17567	0.083
Mof_C 	C 	0.46383	0.08977	0.20531	-0.009
Mof_C 	C 	0.44223	0.05217	0.23117	-0.129
Mof_H 	H 	0.39273	0.04267	0.23947	0.113
Mof_C 	C 	0.67303	0.10937	0.18977	0.301
Mof_O 	O 	0.67773	0.13567	0.16487	-0.398
Mof_O 	O 	0.72853	0.09067	0.19887	-0.384
Mof_N 	N 	0.49393	0.98707	0.26957	-0.244
Mof_C 	C 	0.43233	0.97067	0.28737	0.228
Mof_O 	O 	0.38233	0.99667	0.28457	-0.243
Mof_H 	H 	0.52763	0.96767	0.27407	0.129
Mof_C 	C 	0.43673	0.93757	0.31602	-0.058
Mof_C 	C 	0.38063	0.93157	0.33657	0.019
Mof_C 	C 	0.38503	0.90167	0.36237	-0.026
Mof_C 	C 	0.44533	0.87767	0.36777	0.06
Mof_C 	C 	0.50133	0.88357	0.34727	-0.071
Mof_C 	C 	0.49703	0.91347	0.32137	-0.03
Mof_H 	H 	0.34093	0.94767	0.33297	0.025
Mof_H 	H 	0.34833	0.89767	0.37597	0.043
Mof_H 	H 	0.54123	0.86767	0.35087	0.05
Mof_H 	H 	0.53433	0.91767	0.30787	0.027
Mof_C 	C 	0.44983	0.84637	0.39482	-0.051
Mof_C 	C 	0.45683	0.89087	0.42037	0.043
Mof_N 	N 	0.46383	0.86357	0.44517	-0.187
Mof_C 	C 	0.46483	0.78747	0.44827	0.075
Mof_N 	N 	0.45833	0.74087	0.42467	-0.111
Mof_C 	C 	0.45133	0.76817	0.39987	0.04
Mof_H 	H 	0.44723	0.73687	0.38447	0.023
Mof_H 	H 	0.47013	0.76947	0.46557	0.025
Mof_H 	H 	0.45663	0.94147	0.42017	0.03
Mof_C 	C 	0.41473	0.96727	0.33917	-0.031
Mof_C 	C 	0.41943	0.93767	0.36507	-0.078
Mof_C 	C 	0.46733	0.84797	0.34467	-0.028
Mof_C 	C 	0.46303	0.87787	0.31877	0.015
Mof_H 	H 	0.39733	0.00667	0.33727	0.048
Mof_H 	H 	0.40433	0.95667	0.38037	0.067
Mof_H 	H 	0.48493	0.80867	0.34647	0.033
Mof_H 	H 	0.47803	0.85867	0.30347	0.016
Mof_Cu	Cu	0.4927	0.9378	0.48	0.928
Mof_C 	C 	0.3764	0.9237	0.5263	0.3
Mof_O 	O 	0.3935	0.9059	0.5023	-0.381
Mof_O 	O 	0.4321	0.9911	0.539	-0.331
Mof_C 	C 	0.2002	0.8379	0.5777	0.157
Mof_C 	C 	0.1398	0.7628	0.5651	-0.122
Mof_H 	H 	0.0892	0.7282	0.5739	0.089
Mof_C 	C 	0.1558	0.7418	0.5393	-0.005
Mof_C 	C 	0.2322	0.7942	0.5261	-0.053
Mof_H 	H 	0.2428	0.7808	0.509	0.083
Mof_C 	C 	0.2926	0.8695	0.53864	-0.009
Mof_C 	C 	0.2766	0.8911	0.5645	-0.129
Mof_H 	H 	0.3166	0.9406	0.5728	0.113
Mof_C 	C 	0.103	0.6603	0.5231	0.301
Mof_O 	O 	0.1246	0.6556	0.4982	-0.398
Mof_O 	O 	0.0288	0.6048	0.5322	-0.384
Mof_N 	N 	0.1598	0.8394	0.6029	-0.244
Mof_C 	C 	0.205	0.901	0.6207	0.228
Mof_O 	O 	0.281	0.951	0.6179	-0.243
Mof_H 	H 	0.1067	0.8057	0.6074	0.129
Mof_C 	C 	0.1675	0.8966	0.64935	-0.058
Mof_C 	C 	0.2176	0.9527	0.6699	0.021
Mof_C 	C 	0.1833	0.9483	0.6957	-0.025
Mof_C 	C 	0.099	0.888	0.7011	0.06
Mof_C 	C 	0.0489	0.832	0.6806	-0.072
Mof_C 	C 	0.0831	0.8363	0.6547	-0.031
Mof_H 	H 	0.2734	0.9924	0.6663	0.025
Mof_H 	H 	0.216	0.985	0.7093	0.042
Mof_H 	H 	0.9931	0.7921	0.6842	0.05
Mof_H 	H 	0.05	0.799	0.6412	0.028
Mof_C 	C 	0.0632	0.8835	0.72815	-0.051
Mof_C 	C 	0.1007	0.8765	0.7537	0.043
Mof_N 	N 	0.0664	0.8695	0.7785	-0.186
Mof_C 	C 	0.9893	0.8685	0.7816	0.075
Mof_N 	N 	0.9492	0.875	0.758	-0.111
Mof_C 	C 	0.9835	0.882	0.7332	0.04
Mof_H 	H 	0.9563	0.8861	0.7178	0.023
Mof_H 	H 	0.966	0.8632	0.7989	0.025
Mof_H 	H 	0.1515	0.8767	0.7535	0.03
Mof_C 	C 	0.2192	0.9186	0.6725	-0.032
Mof_C 	C 	0.1849	0.9139	0.6984	-0.079
Mof_C 	C 	0.0473	0.866	0.678	-0.027
Mof_C 	C 	0.0815	0.8703	0.6521	0.016
Mof_H 	H 	0.276	0.936	0.6706	0.048
Mof_H 	H 	0.219	0.929	0.7137	0.067
Mof_H 	H 	0.9904	0.8484	0.6798	0.033
Mof_H 	H 	0.0473	0.8553	0.6368	0.016
Mof_Cu	Cu	0.15937	0.27113	0.81333	0.928
Mof_C 	C 	0.04307	0.25703	0.85963	0.3
Mof_O 	O 	0.06017	0.23923	0.83563	-0.381
Mof_O 	O 	0.09877	0.32443	0.87233	-0.331
Mof_C 	C 	0.86687	0.17123	0.91103	0.157
Mof_C 	C 	0.80647	0.09613	0.89843	-0.122
Mof_H 	H 	0.75587	0.06153	0.90723	0.089
Mof_C 	C 	0.82247	0.07513	0.87263	-0.005
Mof_C 	C 	0.89887	0.12753	0.85943	-0.053
Mof_H 	H 	0.90947	0.11413	0.84233	0.082
Mof_C 	C 	0.95927	0.20283	0.87197	-0.01
Mof_C 	C 	0.94327	0.22443	0.89783	-0.129
Mof_H 	H 	0.98327	0.27393	0.90613	0.113
Mof_C 	C 	0.76967	0.99363	0.85643	0.302
Mof_O 	O 	0.79127	0.98893	0.83153	-0.398
Mof_O 	O 	0.69547	0.93813	0.86553	-0.384
Mof_N 	N 	0.82647	0.17273	0.93623	-0.244
Mof_C 	C 	0.87167	0.23433	0.95403	0.228
Mof_O 	O 	0.94767	0.28433	0.95123	-0.243
Mof_H 	H 	0.77337	0.13903	0.94073	0.129
Mof_C 	C 	0.83417	0.22993	0.98268	-0.059
Mof_C 	C 	0.88427	0.28603	0.00323	0.021
Mof_C 	C 	0.84997	0.28163	0.02903	-0.024
Mof_C 	C 	0.76567	0.22133	0.03443	0.06
Mof_C 	C 	0.71557	0.16533	0.01393	-0.072
Mof_C 	C 	0.74977	0.16963	0.98803	-0.031
Mof_H 	H 	0.94007	0.32573	0.99963	0.024
Mof_H 	H 	0.88267	0.31833	0.04263	0.042
Mof_H 	H 	0.65977	0.12543	0.01753	0.05
Mof_H 	H 	0.71667	0.13233	0.97453	0.028
Mof_C 	C 	0.72987	0.21683	0.06148	-0.051
Mof_C 	C 	0.76737	0.20983	0.08703	0.043
Mof_N 	N 	0.73307	0.20283	0.11183	-0.187
Mof_C 	C 	0.65597	0.20183	0.11493	0.075
Mof_N 	N 	0.61587	0.20833	0.09133	-0.111
Mof_C 	C 	0.65017	0.21533	0.06653	0.04
Mof_H 	H 	0.62297	0.21943	0.05113	0.023
Mof_H 	H 	0.63267	0.19653	0.13223	0.025
Mof_H 	H 	0.81817	0.21003	0.08683	0.03
Mof_C 	C 	0.88587	0.25193	0.00583	-0.032
Mof_C 	C 	0.85157	0.24723	0.03173	-0.08
Mof_C 	C 	0.71397	0.19933	0.01133	-0.027
Mof_C 	C 	0.74817	0.20363	0.98543	0.016
Mof_H 	H 	0.94267	0.26933	0.00393	0.048
Mof_H 	H 	0.88567	0.26233	0.04703	0.067
Mof_H 	H 	0.65707	0.18173	0.01313	0.033
Mof_H 	H 	0.71397	0.18863	0.97013	0.016
Mof_Cu	Cu	0.82603	0.60447	0.14667	0.928
Mof_C 	C 	0.70973	0.59037	0.19297	0.3
Mof_O 	O 	0.72683	0.57257	0.16897	-0.381
Mof_O 	O 	0.76543	0.65777	0.20567	-0.331
Mof_C 	C 	0.53353	0.50457	0.24437	0.157
Mof_C 	C 	0.47313	0.42947	0.23177	-0.122
Mof_H 	H 	0.42253	0.39487	0.24057	0.089
Mof_C 	C 	0.48913	0.40847	0.20597	-0.005
Mof_C 	C 	0.56553	0.46087	0.19277	-0.053
Mof_H 	H 	0.57613	0.44747	0.17567	0.083
Mof_C 	C 	0.62593	0.53617	0.20531	-0.009
Mof_C 	C 	0.60993	0.55777	0.23117	-0.129
Mof_H 	H 	0.64993	0.60727	0.23947	0.113
Mof_C 	C 	0.43633	0.32697	0.18977	0.301
Mof_O 	O 	0.45793	0.32227	0.16487	-0.398
Mof_O 	O 	0.36213	0.27147	0.19887	-0.384
Mof_N 	N 	0.49313	0.50607	0.26957	-0.244
Mof_C 	C 	0.53833	0.56767	0.28737	0.228
Mof_O 	O 	0.61433	0.61767	0.28457	-0.243
Mof_H 	H 	0.44003	0.47237	0.27407	0.129
Mof_C 	C 	0.50083	0.56327	0.31602	-0.058
Mof_C 	C 	0.55093	0.61937	0.33657	0.021
Mof_C 	C 	0.51663	0.61497	0.36237	-0.024
Mof_C 	C 	0.43233	0.55467	0.36777	0.06
Mof_C 	C 	0.38223	0.49867	0.34727	-0.072
Mof_C 	C 	0.41643	0.50297	0.32137	-0.031
Mof_H 	H 	0.60673	0.65907	0.33297	0.024
Mof_H 	H 	0.54933	0.65167	0.37597	0.042
Mof_H 	H 	0.32643	0.45877	0.35087	0.05
Mof_H 	H 	0.38333	0.46567	0.30787	0.028
Mof_C 	C 	0.39653	0.55017	0.39482	-0.051
Mof_C 	C 	0.43403	0.54317	0.42037	0.043
Mof_N 	N 	0.39973	0.53617	0.44517	-0.187
Mof_C 	C 	0.32263	0.53517	0.44827	0.075
Mof_N 	N 	0.28253	0.54167	0.42467	-0.111
Mof_C 	C 	0.31683	0.54867	0.39987	0.04
Mof_H 	H 	0.28963	0.55277	0.38447	0.023
Mof_H 	H 	0.29933	0.52987	0.46557	0.025
Mof_H 	H 	0.48483	0.54337	0.42017	0.03
Mof_C 	C 	0.55253	0.58527	0.33917	-0.032
Mof_C 	C 	0.51823	0.58057	0.36507	-0.08
Mof_C 	C 	0.38063	0.53267	0.34467	-0.027
Mof_C 	C 	0.41483	0.53697	0.31877	0.016
Mof_H 	H 	0.60933	0.60267	0.33727	0.048
Mof_H 	H 	0.55233	0.59567	0.38037	0.067
Mof_H 	H 	0.32373	0.51507	0.34647	0.033
Mof_H 	H 	0.38063	0.52197	0.30347	0.016
_end
