data_functionalizedCrystal
_audit_creation_method	'EQeq! by Chris Wilmer'
_symmetry_space_group_name_H-M	'P1'
_symmetry_Int_Tables_number	1
_symmetry_cell_setting	triclinic
loop_
_symmetry_equiv_pos_as_xyz
  x,y,z
_cell_length_a	23.1415
_cell_length_b	23.1415
_cell_length_c	15.1463
_cell_angle_alpha	90
_cell_angle_beta	90
_cell_angle_gamma	120
loop_
_atom_site_label
_atom_site_type_symbol
_atom_site_fract_x
_atom_site_fract_y
_atom_site_fract_z
_atom_site_charge
Mof_Ag	Ag	0.04915	0.54333	0.16442	0.56
Mof_S 	S 	0.17439	0.5207	0.7101	-0.056
Mof_C 	C 	0.1463	0.5433	0.8042	0.015
Mof_C 	C 	0.1313	0.5028	0.8835	-0.019
Mof_C 	C 	0.1107	0.526	0.9607	0.015
Mof_C 	C 	0.1125	0.5874	0.9534	-0.039
Mof_H 	H 	0.0982	0.6026	0.0025	0.005
Mof_C 	C 	0.1328	0.6249	0.882	-0.079
Mof_C 	C 	0.1473	0.6021	0.8075	-0.045
Mof_H 	H 	0.1586	0.6286	0.7556	0.032
Mof_S 	S 	0.1357	0.4299	0.8849	-0.011
Mof_C 	C 	0.2112	0.4628	0.9529	-0.168
Mof_H 	H 	0.2404	0.5114	0.9438	0.074
Mof_H 	H 	0.1999	0.4542	0.0164	0.072
Mof_C 	C 	0.2459	0.4224	0.9182	0.036
Mof_C 	C 	0.3115	0.4622	0.8901	-0.033
Mof_H 	H 	0.3309	0.5093	0.8889	0.019
Mof_N 	N 	0.3485	0.4329	0.8637	-0.172
Mof_C 	C 	0.3201	0.3639	0.8655	0.007
Mof_H 	H 	0.3454	0.344	0.8475	0
Mof_C 	C 	0.2545	0.3242	0.8936	-0.058
Mof_H 	H 	0.2351	0.277	0.8948	0.028
Mof_C 	C 	0.2175	0.3534	0.9199	-0.077
Mof_H 	H 	0.1727	0.3262	0.9391	0.035
Mof_C 	C 	0.1342	0.6958	0.8813	0.348
Mof_C 	C 	0.0881	0.6935	0.8037	-0.617
Mof_H 	H 	0.1065	0.6892	0.7474	0.192
Mof_H 	H 	0.0859	0.7346	0.8035	0.18
Mof_H 	H 	0.0432	0.6551	0.8116	0.185
Mof_C 	C 	0.2102	0.7523	0.8597	-0.639
Mof_H 	H 	0.2389	0.7567	0.9097	0.208
Mof_H 	H 	0.2123	0.7951	0.8493	0.197
Mof_H 	H 	0.2256	0.7395	0.8068	0.204
Mof_C 	C 	0.0971	0.7032	0.9637	-0.627
Mof_H 	H 	0.0807	0.7338	0.9494	0.186
Mof_H 	H 	0.1281	0.721	0.0136	0.196
Mof_H 	H 	0.0594	0.6594	0.9794	0.191
Mof_S 	S 	0.09397	0.4838	0.0612	-0.134
Mof_C 	C 	0.0159	0.4103	0.0411	0.006
Mof_C 	C 	0.9594	0.4129	0.0273	-0.005
Mof_C 	C 	0.9016	0.3511	0.9956	-0.001
Mof_C 	C 	0.9036	0.2933	0.9983	-0.032
Mof_H 	H 	0.8635	0.2532	0.9847	0.007
Mof_C 	C 	0.9598	0.2879	0.0196	-0.12
Mof_C 	C 	0.0173	0.3522	0.0427	-0.03
Mof_H 	H 	0.0575	0.3536	0.0597	0.029
Mof_S 	S 	0.9492	0.4819	0.052	-0.101
Mof_C 	C 	0.8836	0.4471	0.1363	-0.159
Mof_H 	H 	0.8727	0.4822	0.1513	0.057
Mof_H 	H 	0.8434	0.4102	0.1083	0.072
Mof_C 	C 	0.8937	0.4222	0.2174	0.029
Mof_C 	C 	0.9167	0.4601	0.2926	-0.026
Mof_H 	H 	0.9255	0.5048	0.2909	0.013
Mof_N 	N 	0.9274	0.4368	0.3691	-0.158
Mof_C 	C 	0.9246	0.3734	0.3714	-0
Mof_H 	H 	0.9351	0.3579	0.4237	0.016
Mof_C 	C 	0.9061	0.3354	0.2944	-0.044
Mof_H 	H 	0.9042	0.2935	0.2951	0.024
Mof_C 	C 	0.8903	0.3559	0.2175	-0.078
Mof_H 	H 	0.8777	0.3288	0.1661	0.047
Mof_C 	C 	0.9618	0.2233	0.0211	0.344
Mof_C 	C 	0.0323	0.2356	0.995	-0.577
Mof_H 	H 	0.0294	0.193	0.9808	0.181
Mof_H 	H 	0.063	0.2563	0.0451	0.159
Mof_H 	H 	0.0489	0.2653	0.944	0.173
Mof_C 	C 	0.9111	0.1729	0.955	0.111
Mof_H 	H 	0.9322	0.1523	0.921	0.541
Mof_H 	H 	0.8964	0.196	0.9144	0.49
Mof_H 	H 	0.8725	0.1382	0.9869	-0.05
Mof_C 	C 	0.9426	0.1962	0.116	-0.181
Mof_H 	H 	0.8997	0.1923	0.1315	0.059
Mof_H 	H 	0.9771	0.2268	0.1571	0.008
Mof_H 	H 	0.9389	0.1521	0.1196	0.141
Mof_C 	C 	0.949	0.194	0.9279	-0.441
Mof_H 	H 	0.9542	0.155	0.9269	-0.339
Mof_H 	H 	0.9807	0.228	0.8869	0.15
Mof_H 	H 	0.9033	0.1817	0.91	-0.498
Mof_C 	C 	0.0358	0.246	0.048	-0.057
Mof_H 	H 	0.0449	0.2096	0.0373	0.066
Mof_H 	H 	0.0421	0.2577	0.1111	-0.013
Mof_H 	H 	0.0665	0.2851	0.0132	0.061
Mof_C 	C 	0.916	0.169	0.09	-0.556
Mof_H 	H 	0.9278	0.1881	0.1493	0.209
Mof_H 	H 	0.9218	0.1305	0.0849	0.091
Mof_H 	H 	0.8692	0.1559	0.0777	0.152
Mof_Ag	Ag	0.45667	0.50582	0.83109	0.562
Mof_S 	S 	0.4793	0.65369	0.37677	-0.055
Mof_C 	C 	0.4567	0.603	0.47087	0.017
Mof_C 	C 	0.4972	0.6285	0.55017	-0.018
Mof_C 	C 	0.474	0.5847	0.62737	0.016
Mof_C 	C 	0.4126	0.5251	0.62007	-0.039
Mof_H 	H 	0.3974	0.4956	0.66917	0.007
Mof_C 	C 	0.3751	0.5079	0.54867	-0.077
Mof_C 	C 	0.3979	0.5452	0.47417	-0.045
Mof_H 	H 	0.3714	0.53	0.42227	0.033
Mof_S 	S 	0.5701	0.7058	0.55157	-0.01
Mof_C 	C 	0.5372	0.7484	0.61957	-0.168
Mof_H 	H 	0.4886	0.729	0.61047	0.075
Mof_H 	H 	0.5458	0.7457	0.68307	0.073
Mof_C 	C 	0.5776	0.8235	0.58487	0.037
Mof_C 	C 	0.5378	0.8493	0.55677	-0.032
Mof_H 	H 	0.4907	0.8216	0.55557	0.02
Mof_N 	N 	0.5671	0.9156	0.53037	-0.171
Mof_C 	C 	0.6361	0.9562	0.53217	0.008
Mof_H 	H 	0.656	0.0014	0.51417	0.001
Mof_C 	C 	0.6758	0.9303	0.56027	-0.058
Mof_H 	H 	0.723	0.9581	0.56147	0.028
Mof_C 	C 	0.6466	0.8641	0.58657	-0.077
Mof_H 	H 	0.6738	0.8465	0.60577	0.035
Mof_C 	C 	0.3042	0.4384	0.54797	0.348
Mof_C 	C 	0.3065	0.3946	0.47037	-0.616
Mof_H 	H 	0.3108	0.4173	0.41407	0.192
Mof_H 	H 	0.2654	0.3513	0.47017	0.18
Mof_H 	H 	0.3449	0.3881	0.47827	0.185
Mof_C 	C 	0.2477	0.4579	0.52637	-0.639
Mof_H 	H 	0.2433	0.4822	0.57637	0.207
Mof_H 	H 	0.2049	0.4172	0.51597	0.196
Mof_H 	H 	0.2605	0.4861	0.47347	0.204
Mof_C 	C 	0.2968	0.3939	0.63037	-0.63
Mof_H 	H 	0.2662	0.3469	0.61607	0.186
Mof_H 	H 	0.279	0.4071	0.68027	0.198
Mof_H 	H 	0.3406	0.4	0.64607	0.192
Mof_S 	S 	0.5162	0.61017	0.72787	-0.134
Mof_C 	C 	0.5897	0.6056	0.70777	0.007
Mof_C 	C 	0.5871	0.5465	0.69397	-0.007
Mof_C 	C 	0.6489	0.5505	0.66227	-0
Mof_C 	C 	0.7067	0.6103	0.66497	-0.031
Mof_H 	H 	0.7468	0.6103	0.65137	0.007
Mof_C 	C 	0.7121	0.6719	0.68627	-0.121
Mof_C 	C 	0.6478	0.6651	0.70937	-0.029
Mof_H 	H 	0.6464	0.7039	0.72637	0.029
Mof_S 	S 	0.5181	0.4673	0.71867	-0.102
Mof_C 	C 	0.5529	0.4365	0.80297	-0.159
Mof_H 	H 	0.5178	0.3905	0.81797	0.056
Mof_H 	H 	0.5898	0.4332	0.77497	0.072
Mof_C 	C 	0.5778	0.4715	0.88407	0.029
Mof_C 	C 	0.5399	0.4566	0.95927	-0.026
Mof_H 	H 	0.4952	0.4207	0.95757	0.013
Mof_N 	N 	0.5632	0.4906	0.03577	-0.158
Mof_C 	C 	0.6266	0.5512	0.03807	0
Mof_H 	H 	0.6421	0.5772	0.09037	0.016
Mof_C 	C 	0.6646	0.5707	0.96107	-0.045
Mof_H 	H 	0.7065	0.6107	0.96177	0.024
Mof_C 	C 	0.6441	0.5344	0.88417	-0.078
Mof_H 	H 	0.6712	0.5489	0.83277	0.046
Mof_C 	C 	0.7767	0.7385	0.68777	0.343
Mof_C 	C 	0.7644	0.7967	0.66167	-0.576
Mof_H 	H 	0.807	0.8364	0.64747	0.18
Mof_H 	H 	0.7437	0.8067	0.71177	0.159
Mof_H 	H 	0.7347	0.7836	0.61067	0.173
Mof_C 	C 	0.8271	0.7382	0.62167	0.11
Mof_H 	H 	0.8477	0.7799	0.58767	0.539
Mof_H 	H 	0.804	0.7004	0.58107	0.488
Mof_H 	H 	0.8618	0.7343	0.65357	-0.049
Mof_C 	C 	0.8038	0.7464	0.78267	-0.18
Mof_H 	H 	0.8077	0.7074	0.79817	0.059
Mof_H 	H 	0.7732	0.7503	0.82377	0.008
Mof_H 	H 	0.8479	0.7868	0.78627	0.141
Mof_C 	C 	0.806	0.755	0.59457	-0.439
Mof_H 	H 	0.845	0.7992	0.59357	-0.337
Mof_H 	H 	0.772	0.7527	0.55357	0.15
Mof_H 	H 	0.8183	0.7216	0.57667	-0.496
Mof_C 	C 	0.754	0.7898	0.71467	-0.058
Mof_H 	H 	0.7904	0.8353	0.70397	0.067
Mof_H 	H 	0.7423	0.7844	0.77777	-0.012
Mof_H 	H 	0.7149	0.7814	0.67987	0.062
Mof_C 	C 	0.831	0.747	0.75667	-0.555
Mof_H 	H 	0.8119	0.7397	0.81597	0.209
Mof_H 	H 	0.8695	0.7913	0.75157	0.091
Mof_H 	H 	0.8441	0.7133	0.74437	0.152
Mof_Ag	Ag	0.49418	0.95085	0.49775	0.562
Mof_S 	S 	0.34631	0.82561	0.04343	-0.056
Mof_C 	C 	0.397	0.8537	0.13753	0.017
Mof_C 	C 	0.3715	0.8687	0.21683	-0.018
Mof_C 	C 	0.4153	0.8893	0.29403	0.016
Mof_C 	C 	0.4749	0.8875	0.28673	-0.039
Mof_H 	H 	0.5044	0.9018	0.33583	0.007
Mof_C 	C 	0.4921	0.8672	0.21533	-0.077
Mof_C 	C 	0.4548	0.8527	0.14083	-0.045
Mof_H 	H 	0.47	0.8414	0.08893	0.033
Mof_S 	S 	0.2942	0.8643	0.21823	-0.01
Mof_C 	C 	0.2516	0.7888	0.28623	-0.168
Mof_H 	H 	0.271	0.7596	0.27713	0.075
Mof_H 	H 	0.2543	0.8001	0.34973	0.073
Mof_C 	C 	0.1765	0.7541	0.25153	0.037
Mof_C 	C 	0.1507	0.6885	0.22343	-0.032
Mof_H 	H 	0.1784	0.6691	0.22223	0.02
Mof_N 	N 	0.0844	0.6515	0.19703	-0.171
Mof_C 	C 	0.0438	0.6799	0.19883	0.007
Mof_H 	H 	0.9986	0.6546	0.18083	0.002
Mof_C 	C 	0.0697	0.7455	0.22693	-0.057
Mof_H 	H 	0.0419	0.7649	0.22813	0.028
Mof_C 	C 	0.1359	0.7825	0.25323	-0.077
Mof_H 	H 	0.1535	0.8273	0.27243	0.035
Mof_C 	C 	0.5616	0.8658	0.21463	0.348
Mof_C 	C 	0.6054	0.9119	0.13703	-0.616
Mof_H 	H 	0.5827	0.8935	0.08073	0.191
Mof_H 	H 	0.6487	0.9141	0.13683	0.18
Mof_H 	H 	0.6119	0.9568	0.14493	0.185
Mof_C 	C 	0.5421	0.7898	0.19303	-0.638
Mof_H 	H 	0.5178	0.7611	0.24303	0.207
Mof_H 	H 	0.5828	0.7877	0.18263	0.196
Mof_H 	H 	0.5139	0.7744	0.14013	0.204
Mof_C 	C 	0.6061	0.9029	0.29703	-0.629
Mof_H 	H 	0.6531	0.9193	0.28273	0.186
Mof_H 	H 	0.5929	0.8719	0.34693	0.198
Mof_H 	H 	0.6	0.9406	0.31273	0.192
Mof_S 	S 	0.38983	0.90603	0.39453	-0.134
Mof_C 	C 	0.3944	0.9841	0.37443	0.006
Mof_C 	C 	0.4535	0.0406	0.36063	-0.006
Mof_C 	C 	0.4495	0.0984	0.32893	-0
Mof_C 	C 	0.3897	0.0964	0.33163	-0.031
Mof_H 	H 	0.3897	0.1365	0.31803	0.007
Mof_C 	C 	0.3281	0.0402	0.35293	-0.121
Mof_C 	C 	0.3349	0.9827	0.37603	-0.029
Mof_H 	H 	0.2961	0.9425	0.39303	0.029
Mof_S 	S 	0.5327	0.0508	0.38533	-0.102
Mof_C 	C 	0.5635	0.1164	0.46963	-0.159
Mof_H 	H 	0.6095	0.1273	0.48463	0.057
Mof_H 	H 	0.5668	0.1566	0.44163	0.072
Mof_C 	C 	0.5285	0.1063	0.55073	0.029
Mof_C 	C 	0.5434	0.0833	0.62593	-0.026
Mof_H 	H 	0.5793	0.0745	0.62423	0.013
Mof_N 	N 	0.5094	0.0726	0.70243	-0.158
Mof_C 	C 	0.4488	0.0754	0.70473	-0
Mof_H 	H 	0.4228	0.0649	0.75703	0.016
Mof_C 	C 	0.4293	0.0939	0.62773	-0.044
Mof_H 	H 	0.3893	0.0958	0.62843	0.024
Mof_C 	C 	0.4656	0.1097	0.55083	-0.078
Mof_H 	H 	0.4511	0.1223	0.49943	0.046
Mof_C 	C 	0.2615	0.0382	0.35443	0.343
Mof_C 	C 	0.2033	0.9677	0.32833	-0.576
Mof_H 	H 	0.1636	0.9706	0.31413	0.18
Mof_H 	H 	0.1933	0.937	0.37843	0.159
Mof_H 	H 	0.2164	0.9511	0.27733	0.173
Mof_C 	C 	0.2618	0.0889	0.28833	0.11
Mof_H 	H 	0.2201	0.0678	0.25433	0.538
Mof_H 	H 	0.2996	0.1036	0.24773	0.489
Mof_H 	H 	0.2657	0.1275	0.32023	-0.049
Mof_C 	C 	0.2536	0.0574	0.44933	-0.18
Mof_H 	H 	0.2926	0.1003	0.46483	0.059
Mof_H 	H 	0.2497	0.0229	0.49043	0.008
Mof_H 	H 	0.2132	0.0611	0.45293	0.141
Mof_C 	C 	0.245	0.051	0.26123	-0.439
Mof_H 	H 	0.2008	0.0458	0.26023	-0.337
Mof_H 	H 	0.2473	0.0193	0.22023	0.15
Mof_H 	H 	0.2784	0.0967	0.24333	-0.496
Mof_C 	C 	0.2102	0.9642	0.38133	-0.058
Mof_H 	H 	0.1647	0.9551	0.37063	0.067
Mof_H 	H 	0.2156	0.9579	0.44443	-0.012
Mof_H 	H 	0.2186	0.9335	0.34653	0.062
Mof_C 	C 	0.253	0.084	0.42333	-0.555
Mof_H 	H 	0.2603	0.0722	0.48263	0.209
Mof_H 	H 	0.2087	0.0782	0.41823	0.091
Mof_H 	H 	0.2867	0.1308	0.41103	0.152
Mof_Ag	Ag	0.54333	0.04915	0.83558	0.561
Mof_S 	S 	0.5207	0.17439	0.2899	-0.055
Mof_C 	C 	0.5433	0.1463	0.1958	0.016
Mof_C 	C 	0.5028	0.1313	0.1165	-0.018
Mof_C 	C 	0.526	0.1107	0.0393	0.016
Mof_C 	C 	0.5874	0.1125	0.0466	-0.038
Mof_H 	H 	0.6026	0.0982	0.9975	0.006
Mof_C 	C 	0.6249	0.1328	0.118	-0.078
Mof_C 	C 	0.6021	0.1473	0.1925	-0.044
Mof_H 	H 	0.6286	0.1586	0.2444	0.033
Mof_S 	S 	0.4299	0.1357	0.1151	-0.01
Mof_C 	C 	0.4628	0.2112	0.0471	-0.167
Mof_H 	H 	0.5114	0.2404	0.0562	0.075
Mof_H 	H 	0.4542	0.1999	0.9836	0.073
Mof_C 	C 	0.4224	0.2459	0.0818	0.037
Mof_C 	C 	0.4622	0.3115	0.1099	-0.032
Mof_H 	H 	0.5093	0.3309	0.1111	0.02
Mof_N 	N 	0.4329	0.3485	0.1363	-0.171
Mof_C 	C 	0.3639	0.3201	0.1345	0.008
Mof_H 	H 	0.344	0.3454	0.1525	0.001
Mof_C 	C 	0.3242	0.2545	0.1064	-0.058
Mof_H 	H 	0.277	0.2351	0.1052	0.028
Mof_C 	C 	0.3534	0.2175	0.0801	-0.077
Mof_H 	H 	0.3262	0.1727	0.0609	0.035
Mof_C 	C 	0.6958	0.1342	0.1187	0.348
Mof_C 	C 	0.6935	0.0881	0.1963	-0.617
Mof_H 	H 	0.6892	0.1065	0.2526	0.192
Mof_H 	H 	0.7346	0.0859	0.1965	0.18
Mof_H 	H 	0.6551	0.0432	0.1884	0.185
Mof_C 	C 	0.7523	0.2102	0.1403	-0.639
Mof_H 	H 	0.7567	0.2389	0.0903	0.208
Mof_H 	H 	0.7951	0.2123	0.1507	0.197
Mof_H 	H 	0.7395	0.2256	0.1932	0.204
Mof_C 	C 	0.7032	0.0971	0.0363	-0.627
Mof_H 	H 	0.7338	0.0807	0.0506	0.186
Mof_H 	H 	0.721	0.1281	0.9864	0.196
Mof_H 	H 	0.6594	0.0594	0.0206	0.191
Mof_S 	S 	0.4838	0.09397	0.9388	-0.134
Mof_C 	C 	0.4103	0.0159	0.9589	0.006
Mof_C 	C 	0.4129	0.9594	0.9727	-0.005
Mof_C 	C 	0.3511	0.9016	0.0044	-0.001
Mof_C 	C 	0.2933	0.9036	0.0017	-0.032
Mof_H 	H 	0.2532	0.8635	0.0153	0.007
Mof_C 	C 	0.2879	0.9598	0.9804	-0.12
Mof_C 	C 	0.3522	0.0173	0.9573	-0.03
Mof_H 	H 	0.3536	0.0575	0.9403	0.029
Mof_S 	S 	0.4819	0.9492	0.948	-0.101
Mof_C 	C 	0.4471	0.8836	0.8637	-0.159
Mof_H 	H 	0.4822	0.8727	0.8487	0.057
Mof_H 	H 	0.4102	0.8434	0.8917	0.072
Mof_C 	C 	0.4222	0.8937	0.7826	0.029
Mof_C 	C 	0.4601	0.9167	0.7074	-0.026
Mof_H 	H 	0.5048	0.9255	0.7091	0.013
Mof_N 	N 	0.4368	0.9274	0.6309	-0.158
Mof_C 	C 	0.3734	0.9246	0.6286	-0
Mof_H 	H 	0.3579	0.9351	0.5763	0.016
Mof_C 	C 	0.3354	0.9061	0.7056	-0.044
Mof_H 	H 	0.2935	0.9042	0.7049	0.024
Mof_C 	C 	0.3559	0.8903	0.7825	-0.078
Mof_H 	H 	0.3288	0.8777	0.8339	0.047
Mof_C 	C 	0.2233	0.9618	0.9789	0.344
Mof_C 	C 	0.2356	0.0323	0.005	-0.577
Mof_H 	H 	0.193	0.0294	0.0192	0.181
Mof_H 	H 	0.2563	0.063	0.9549	0.159
Mof_H 	H 	0.2653	0.0489	0.056	0.173
Mof_C 	C 	0.1729	0.9111	0.045	0.111
Mof_H 	H 	0.1523	0.9322	0.079	0.541
Mof_H 	H 	0.196	0.8964	0.0856	0.49
Mof_H 	H 	0.1382	0.8725	0.0131	-0.05
Mof_C 	C 	0.1962	0.9426	0.884	-0.181
Mof_H 	H 	0.1923	0.8997	0.8685	0.059
Mof_H 	H 	0.2268	0.9771	0.8429	0.008
Mof_H 	H 	0.1521	0.9389	0.8804	0.141
Mof_C 	C 	0.194	0.949	0.0721	-0.441
Mof_H 	H 	0.155	0.9542	0.0731	-0.339
Mof_H 	H 	0.228	0.9807	0.1131	0.15
Mof_H 	H 	0.1817	0.9033	0.09	-0.498
Mof_C 	C 	0.246	0.0358	0.952	-0.057
Mof_H 	H 	0.2096	0.0449	0.9627	0.066
Mof_H 	H 	0.2577	0.0421	0.8889	-0.013
Mof_H 	H 	0.2851	0.0665	0.9868	0.061
Mof_C 	C 	0.169	0.916	0.91	-0.556
Mof_H 	H 	0.1881	0.9278	0.8507	0.209
Mof_H 	H 	0.1305	0.9218	0.9151	0.091
Mof_H 	H 	0.1559	0.8692	0.9223	0.152
Mof_Ag	Ag	0.50582	0.45667	0.16891	0.562
Mof_S 	S 	0.65369	0.4793	0.62323	-0.055
Mof_C 	C 	0.603	0.4567	0.52913	0.017
Mof_C 	C 	0.6285	0.4972	0.44983	-0.018
Mof_C 	C 	0.5847	0.474	0.37263	0.016
Mof_C 	C 	0.5251	0.4126	0.37993	-0.039
Mof_H 	H 	0.4956	0.3974	0.33083	0.007
Mof_C 	C 	0.5079	0.3751	0.45133	-0.077
Mof_C 	C 	0.5452	0.3979	0.52583	-0.045
Mof_H 	H 	0.53	0.3714	0.57773	0.033
Mof_S 	S 	0.7058	0.5701	0.44843	-0.01
Mof_C 	C 	0.7484	0.5372	0.38043	-0.168
Mof_H 	H 	0.729	0.4886	0.38953	0.075
Mof_H 	H 	0.7457	0.5458	0.31693	0.073
Mof_C 	C 	0.8235	0.5776	0.41513	0.037
Mof_C 	C 	0.8493	0.5378	0.44323	-0.032
Mof_H 	H 	0.8216	0.4907	0.44443	0.02
Mof_N 	N 	0.9156	0.5671	0.46963	-0.171
Mof_C 	C 	0.9562	0.6361	0.46783	0.008
Mof_H 	H 	0.0014	0.656	0.48583	0.001
Mof_C 	C 	0.9303	0.6758	0.43973	-0.058
Mof_H 	H 	0.9581	0.723	0.43853	0.028
Mof_C 	C 	0.8641	0.6466	0.41343	-0.077
Mof_H 	H 	0.8465	0.6738	0.39423	0.035
Mof_C 	C 	0.4384	0.3042	0.45203	0.348
Mof_C 	C 	0.3946	0.3065	0.52963	-0.616
Mof_H 	H 	0.4173	0.3108	0.58593	0.192
Mof_H 	H 	0.3513	0.2654	0.52983	0.18
Mof_H 	H 	0.3881	0.3449	0.52173	0.185
Mof_C 	C 	0.4579	0.2477	0.47363	-0.639
Mof_H 	H 	0.4822	0.2433	0.42363	0.207
Mof_H 	H 	0.4172	0.2049	0.48403	0.196
Mof_H 	H 	0.4861	0.2605	0.52653	0.204
Mof_C 	C 	0.3939	0.2968	0.36963	-0.63
Mof_H 	H 	0.3469	0.2662	0.38393	0.186
Mof_H 	H 	0.4071	0.279	0.31973	0.198
Mof_H 	H 	0.4	0.3406	0.35393	0.192
Mof_S 	S 	0.61017	0.5162	0.27213	-0.134
Mof_C 	C 	0.6056	0.5897	0.29223	0.007
Mof_C 	C 	0.5465	0.5871	0.30603	-0.007
Mof_C 	C 	0.5505	0.6489	0.33773	-0
Mof_C 	C 	0.6103	0.7067	0.33503	-0.031
Mof_H 	H 	0.6103	0.7468	0.34863	0.007
Mof_C 	C 	0.6719	0.7121	0.31373	-0.121
Mof_C 	C 	0.6651	0.6478	0.29063	-0.029
Mof_H 	H 	0.7039	0.6464	0.27363	0.029
Mof_S 	S 	0.4673	0.5181	0.28133	-0.102
Mof_C 	C 	0.4365	0.5529	0.19703	-0.159
Mof_H 	H 	0.3905	0.5178	0.18203	0.056
Mof_H 	H 	0.4332	0.5898	0.22503	0.072
Mof_C 	C 	0.4715	0.5778	0.11593	0.029
Mof_C 	C 	0.4566	0.5399	0.04073	-0.026
Mof_H 	H 	0.4207	0.4952	0.04243	0.013
Mof_N 	N 	0.4906	0.5632	0.96423	-0.158
Mof_C 	C 	0.5512	0.6266	0.96193	0
Mof_H 	H 	0.5772	0.6421	0.90963	0.016
Mof_C 	C 	0.5707	0.6646	0.03893	-0.045
Mof_H 	H 	0.6107	0.7065	0.03823	0.024
Mof_C 	C 	0.5344	0.6441	0.11583	-0.078
Mof_H 	H 	0.5489	0.6712	0.16723	0.046
Mof_C 	C 	0.7385	0.7767	0.31223	0.343
Mof_C 	C 	0.7967	0.7644	0.33833	-0.576
Mof_H 	H 	0.8364	0.807	0.35253	0.18
Mof_H 	H 	0.8067	0.7437	0.28823	0.159
Mof_H 	H 	0.7836	0.7347	0.38933	0.173
Mof_C 	C 	0.7382	0.8271	0.37833	0.11
Mof_H 	H 	0.7799	0.8477	0.41233	0.539
Mof_H 	H 	0.7004	0.804	0.41893	0.488
Mof_H 	H 	0.7343	0.8618	0.34643	-0.049
Mof_C 	C 	0.7464	0.8038	0.21733	-0.18
Mof_H 	H 	0.7074	0.8077	0.20183	0.059
Mof_H 	H 	0.7503	0.7732	0.17623	0.008
Mof_H 	H 	0.7868	0.8479	0.21373	0.141
Mof_C 	C 	0.755	0.806	0.40543	-0.439
Mof_H 	H 	0.7992	0.845	0.40643	-0.337
Mof_H 	H 	0.7527	0.772	0.44643	0.15
Mof_H 	H 	0.7216	0.8183	0.42333	-0.496
Mof_C 	C 	0.7898	0.754	0.28533	-0.058
Mof_H 	H 	0.8353	0.7904	0.29603	0.067
Mof_H 	H 	0.7844	0.7423	0.22223	-0.012
Mof_H 	H 	0.7814	0.7149	0.32013	0.062
Mof_C 	C 	0.747	0.831	0.24333	-0.555
Mof_H 	H 	0.7397	0.8119	0.18403	0.209
Mof_H 	H 	0.7913	0.8695	0.24843	0.091
Mof_H 	H 	0.7133	0.8441	0.25563	0.152
Mof_Ag	Ag	0.95085	0.49418	0.50225	0.562
Mof_S 	S 	0.82561	0.34631	0.95657	-0.056
Mof_C 	C 	0.8537	0.397	0.86247	0.017
Mof_C 	C 	0.8687	0.3715	0.78317	-0.018
Mof_C 	C 	0.8893	0.4153	0.70597	0.016
Mof_C 	C 	0.8875	0.4749	0.71327	-0.039
Mof_H 	H 	0.9018	0.5044	0.66417	0.007
Mof_C 	C 	0.8672	0.4921	0.78467	-0.077
Mof_C 	C 	0.8527	0.4548	0.85917	-0.045
Mof_H 	H 	0.8414	0.47	0.91107	0.033
Mof_S 	S 	0.8643	0.2942	0.78177	-0.01
Mof_C 	C 	0.7888	0.2516	0.71377	-0.168
Mof_H 	H 	0.7596	0.271	0.72287	0.075
Mof_H 	H 	0.8001	0.2543	0.65027	0.073
Mof_C 	C 	0.7541	0.1765	0.74847	0.037
Mof_C 	C 	0.6885	0.1507	0.77657	-0.032
Mof_H 	H 	0.6691	0.1784	0.77777	0.02
Mof_N 	N 	0.6515	0.0844	0.80297	-0.171
Mof_C 	C 	0.6799	0.0438	0.80117	0.007
Mof_H 	H 	0.6546	0.9986	0.81917	0.002
Mof_C 	C 	0.7455	0.0697	0.77307	-0.057
Mof_H 	H 	0.7649	0.0419	0.77187	0.028
Mof_C 	C 	0.7825	0.1359	0.74677	-0.077
Mof_H 	H 	0.8273	0.1535	0.72757	0.035
Mof_C 	C 	0.8658	0.5616	0.78537	0.348
Mof_C 	C 	0.9119	0.6054	0.86297	-0.616
Mof_H 	H 	0.8935	0.5827	0.91927	0.191
Mof_H 	H 	0.9141	0.6487	0.86317	0.18
Mof_H 	H 	0.9568	0.6119	0.85507	0.185
Mof_C 	C 	0.7898	0.5421	0.80697	-0.638
Mof_H 	H 	0.7611	0.5178	0.75697	0.207
Mof_H 	H 	0.7877	0.5828	0.81737	0.196
Mof_H 	H 	0.7744	0.5139	0.85987	0.204
Mof_C 	C 	0.9029	0.6061	0.70297	-0.629
Mof_H 	H 	0.9193	0.6531	0.71727	0.186
Mof_H 	H 	0.8719	0.5929	0.65307	0.198
Mof_H 	H 	0.9406	0.6	0.68727	0.192
Mof_S 	S 	0.90603	0.38983	0.60547	-0.134
Mof_C 	C 	0.9841	0.3944	0.62557	0.006
Mof_C 	C 	0.0406	0.4535	0.63937	-0.006
Mof_C 	C 	0.0984	0.4495	0.67107	-0
Mof_C 	C 	0.0964	0.3897	0.66837	-0.031
Mof_H 	H 	0.1365	0.3897	0.68197	0.007
Mof_C 	C 	0.0402	0.3281	0.64707	-0.121
Mof_C 	C 	0.9827	0.3349	0.62397	-0.029
Mof_H 	H 	0.9425	0.2961	0.60697	0.029
Mof_S 	S 	0.0508	0.5327	0.61467	-0.102
Mof_C 	C 	0.1164	0.5635	0.53037	-0.159
Mof_H 	H 	0.1273	0.6095	0.51537	0.057
Mof_H 	H 	0.1566	0.5668	0.55837	0.072
Mof_C 	C 	0.1063	0.5285	0.44927	0.029
Mof_C 	C 	0.0833	0.5434	0.37407	-0.026
Mof_H 	H 	0.0745	0.5793	0.37577	0.013
Mof_N 	N 	0.0726	0.5094	0.29757	-0.158
Mof_C 	C 	0.0754	0.4488	0.29527	-0
Mof_H 	H 	0.0649	0.4228	0.24297	0.016
Mof_C 	C 	0.0939	0.4293	0.37227	-0.044
Mof_H 	H 	0.0958	0.3893	0.37157	0.024
Mof_C 	C 	0.1097	0.4656	0.44917	-0.078
Mof_H 	H 	0.1223	0.4511	0.50057	0.046
Mof_C 	C 	0.0382	0.2615	0.64557	0.343
Mof_C 	C 	0.9677	0.2033	0.67167	-0.576
Mof_H 	H 	0.9706	0.1636	0.68587	0.18
Mof_H 	H 	0.937	0.1933	0.62157	0.159
Mof_H 	H 	0.9511	0.2164	0.72267	0.173
Mof_C 	C 	0.0889	0.2618	0.71167	0.11
Mof_H 	H 	0.0678	0.2201	0.74567	0.538
Mof_H 	H 	0.1036	0.2996	0.75227	0.489
Mof_H 	H 	0.1275	0.2657	0.67977	-0.049
Mof_C 	C 	0.0574	0.2536	0.55067	-0.18
Mof_H 	H 	0.1003	0.2926	0.53517	0.059
Mof_H 	H 	0.0229	0.2497	0.50957	0.008
Mof_H 	H 	0.0611	0.2132	0.54707	0.141
Mof_C 	C 	0.051	0.245	0.73877	-0.439
Mof_H 	H 	0.0458	0.2008	0.73977	-0.337
Mof_H 	H 	0.0193	0.2473	0.77977	0.15
Mof_H 	H 	0.0967	0.2784	0.75667	-0.496
Mof_C 	C 	0.9642	0.2102	0.61867	-0.058
Mof_H 	H 	0.9551	0.1647	0.62937	0.067
Mof_H 	H 	0.9579	0.2156	0.55557	-0.012
Mof_H 	H 	0.9335	0.2186	0.65347	0.062
Mof_C 	C 	0.084	0.253	0.57667	-0.555
Mof_H 	H 	0.0722	0.2603	0.51737	0.209
Mof_H 	H 	0.0782	0.2087	0.58177	0.091
Mof_H 	H 	0.1308	0.2867	0.58897	0.152
_end
