data_functionalizedCrystal
_audit_creation_method	'EQeq! by Chris Wilmer'
_symmetry_space_group_name_H-M	'P1'
_symmetry_Int_Tables_number	1
_symmetry_cell_setting	triclinic
loop_
_symmetry_equiv_pos_as_xyz
  x,y,z
_cell_length_a	37.726
_cell_length_b	37.726
_cell_length_c	37.726
_cell_angle_alpha	90
_cell_angle_beta	90
_cell_angle_gamma	90
loop_
_atom_site_label
_atom_site_type_symbol
_atom_site_fract_x
_atom_site_fract_y
_atom_site_fract_z
_atom_site_charge
Mof_C 	C 	0.35731	0.19494	0.33185	-0.001
Mof_C 	C 	0.38382	0.22484	0.33887	0
Mof_C 	C 	0.437	0.3148	0.385	0.008
Mof_C 	C 	0.4185	0.284	0.3671	-0.004
Mof_C 	C 	0.4284	0.268	0.3378	0.002
Mof_C 	C 	0.4729	0.3195	0.3813	-0.02
Mof_C 	C 	0.4898	0.3422	0.4	0.049
Mof_C 	C 	0.4126	0.2402	0.3255	-0.002
Mof_O 	O 	0.5241	0.3988	0.4332	-0.358
Mof_C 	C 	0.4947	0.3886	0.437	0.093
Mof_C 	C 	0.4751	0.3681	0.421	-0.08
Mof_C 	C 	0.3865	0.2529	0.3072	-0.001
Mof_C 	C 	0.4224	0.2095	0.3431	0
Mof_C 	C 	0.3519	0.2971	0.2689	-0.001
Mof_C 	C 	0.4244	0.1805	0.3728	-0.001
Mof_C 	C 	0.35731	0.69494	0.83185	-0.001
Mof_C 	C 	0.38382	0.72484	0.83887	0
Mof_C 	C 	0.437	0.8148	0.885	0.009
Mof_C 	C 	0.4185	0.784	0.8671	-0.005
Mof_C 	C 	0.4284	0.768	0.8378	0.003
Mof_C 	C 	0.4729	0.8195	0.8813	-0.019
Mof_C 	C 	0.4898	0.8422	0.9	0.051
Mof_C 	C 	0.4126	0.7402	0.8255	-0.002
Mof_O 	O 	0.5241	0.8988	0.9332	-0.357
Mof_C 	C 	0.4947	0.8886	0.937	0.096
Mof_C 	C 	0.4751	0.8681	0.921	-0.082
Mof_C 	C 	0.3865	0.7529	0.8072	-0.001
Mof_C 	C 	0.4224	0.7095	0.8431	0
Mof_C 	C 	0.3519	0.7971	0.7689	-0.001
Mof_C 	C 	0.4244	0.6805	0.8728	0.001
Mof_C 	C 	0.85731	0.19494	0.83185	-0.001
Mof_C 	C 	0.88382	0.22484	0.83887	-0.001
Mof_C 	C 	0.937	0.3148	0.885	0.01
Mof_C 	C 	0.9185	0.284	0.8671	-0.005
Mof_C 	C 	0.9284	0.268	0.8378	0.004
Mof_C 	C 	0.9729	0.3195	0.8813	-0.019
Mof_C 	C 	0.9898	0.3422	0.9	0.059
Mof_C 	C 	0.9126	0.2402	0.8255	-0.002
Mof_O 	O 	0.0241	0.3988	0.9332	-0.37
Mof_C 	C 	0.9947	0.3886	0.937	0.116
Mof_C 	C 	0.9751	0.3681	0.921	-0.09
Mof_C 	C 	0.8865	0.2529	0.8072	0.001
Mof_C 	C 	0.9224	0.2095	0.8431	0.002
Mof_C 	C 	0.8519	0.2971	0.7689	-0
Mof_C 	C 	0.9244	0.1805	0.8728	0.003
Mof_C 	C 	0.85731	0.69494	0.33185	-0
Mof_C 	C 	0.88382	0.72484	0.33887	0
Mof_C 	C 	0.937	0.8148	0.385	0.01
Mof_C 	C 	0.9185	0.784	0.3671	-0.004
Mof_C 	C 	0.9284	0.768	0.3378	0.004
Mof_C 	C 	0.9729	0.8195	0.3813	-0.019
Mof_C 	C 	0.9898	0.8422	0.4	0.058
Mof_C 	C 	0.9126	0.7402	0.3255	-0.002
Mof_O 	O 	0.0241	0.8988	0.4332	-0.37
Mof_C 	C 	0.9947	0.8886	0.437	0.114
Mof_C 	C 	0.9751	0.8681	0.421	-0.088
Mof_C 	C 	0.8865	0.7529	0.3072	0.001
Mof_C 	C 	0.9224	0.7095	0.3431	0.001
Mof_C 	C 	0.8519	0.7971	0.2689	-0
Mof_C 	C 	0.9244	0.6805	0.3728	0.002
Mof_C 	C 	0.64269	0.80506	0.33185	-0
Mof_C 	C 	0.61618	0.77516	0.33887	0.001
Mof_C 	C 	0.563	0.6852	0.385	0.009
Mof_C 	C 	0.5815	0.716	0.3671	-0.003
Mof_C 	C 	0.5716	0.732	0.3378	0.003
Mof_C 	C 	0.5271	0.6805	0.3813	-0.018
Mof_C 	C 	0.5102	0.6578	0.4	0.05
Mof_C 	C 	0.5874	0.7598	0.3255	-0.001
Mof_O 	O 	0.4759	0.6012	0.4332	-0.357
Mof_C 	C 	0.5053	0.6114	0.437	0.094
Mof_C 	C 	0.5249	0.6319	0.421	-0.079
Mof_C 	C 	0.6135	0.7471	0.3072	0
Mof_C 	C 	0.5776	0.7905	0.3431	0.001
Mof_C 	C 	0.6481	0.7029	0.2689	-0
Mof_C 	C 	0.5756	0.8195	0.3728	0.001
Mof_C 	C 	0.64269	0.30506	0.83185	-0
Mof_C 	C 	0.61618	0.27516	0.83887	0.001
Mof_C 	C 	0.563	0.1852	0.885	0.01
Mof_C 	C 	0.5815	0.216	0.8671	-0.004
Mof_C 	C 	0.5716	0.232	0.8378	0.003
Mof_C 	C 	0.5271	0.1805	0.8813	-0.019
Mof_C 	C 	0.5102	0.1578	0.9	0.052
Mof_C 	C 	0.5874	0.2598	0.8255	-0.001
Mof_O 	O 	0.4759	0.1012	0.9332	-0.357
Mof_C 	C 	0.5053	0.1114	0.937	0.097
Mof_C 	C 	0.5249	0.1319	0.921	-0.08
Mof_C 	C 	0.6135	0.2471	0.8072	0
Mof_C 	C 	0.5776	0.2905	0.8431	0.001
Mof_C 	C 	0.6481	0.2029	0.7689	-0
Mof_C 	C 	0.5756	0.3195	0.8728	0.002
Mof_C 	C 	0.14269	0.80506	0.83185	-0
Mof_C 	C 	0.11618	0.77516	0.83887	0.001
Mof_C 	C 	0.063	0.6852	0.885	0.008
Mof_C 	C 	0.0815	0.716	0.8671	-0.003
Mof_C 	C 	0.0716	0.732	0.8378	0.002
Mof_C 	C 	0.0271	0.6805	0.8813	-0.017
Mof_C 	C 	0.0102	0.6578	0.9	0.045
Mof_C 	C 	0.0874	0.7598	0.8255	-0.001
Mof_O 	O 	0.9759	0.6012	0.9332	-0.343
Mof_C 	C 	0.0053	0.6114	0.937	0.079
Mof_C 	C 	0.0249	0.6319	0.921	-0.072
Mof_C 	C 	0.1135	0.7471	0.8072	0
Mof_C 	C 	0.0776	0.7905	0.8431	0
Mof_C 	C 	0.1481	0.7029	0.7689	-0
Mof_C 	C 	0.0756	0.8195	0.8728	0.001
Mof_C 	C 	0.14269	0.30506	0.33185	-0
Mof_C 	C 	0.11618	0.27516	0.33887	0.001
Mof_C 	C 	0.063	0.1852	0.385	0.008
Mof_C 	C 	0.0815	0.216	0.3671	-0.003
Mof_C 	C 	0.0716	0.232	0.3378	0.001
Mof_C 	C 	0.0271	0.1805	0.3813	-0.018
Mof_C 	C 	0.0102	0.1578	0.4	0.042
Mof_C 	C 	0.0874	0.2598	0.3255	-0.001
Mof_O 	O 	0.9759	0.1012	0.4332	-0.344
Mof_C 	C 	0.0053	0.1114	0.437	0.076
Mof_C 	C 	0.0249	0.1319	0.421	-0.07
Mof_C 	C 	0.1135	0.2471	0.3072	0
Mof_C 	C 	0.0776	0.2905	0.3431	-0
Mof_C 	C 	0.1481	0.2029	0.2689	0
Mof_C 	C 	0.0756	0.3195	0.3728	-0.001
Mof_C 	C 	0.64269	0.19494	0.66815	-0
Mof_C 	C 	0.61618	0.22484	0.66113	0.001
Mof_C 	C 	0.563	0.3148	0.615	0.009
Mof_C 	C 	0.5815	0.284	0.6329	-0.003
Mof_C 	C 	0.5716	0.268	0.6622	0.003
Mof_C 	C 	0.5271	0.3195	0.6187	-0.019
Mof_C 	C 	0.5102	0.3422	0.6	0.05
Mof_C 	C 	0.5874	0.2402	0.6745	-0.001
Mof_O 	O 	0.4759	0.3988	0.5668	-0.357
Mof_C 	C 	0.5053	0.3886	0.563	0.094
Mof_C 	C 	0.5249	0.3681	0.579	-0.079
Mof_C 	C 	0.6135	0.2529	0.6928	0
Mof_C 	C 	0.5776	0.2095	0.6569	0.001
Mof_C 	C 	0.6481	0.2971	0.7311	-0
Mof_C 	C 	0.5756	0.1805	0.6272	-0
Mof_C 	C 	0.64269	0.69494	0.16815	-0
Mof_C 	C 	0.61618	0.72484	0.16113	0.001
Mof_C 	C 	0.563	0.8148	0.115	0.008
Mof_C 	C 	0.5815	0.784	0.1329	-0.003
Mof_C 	C 	0.5716	0.768	0.1622	0.003
Mof_C 	C 	0.5271	0.8195	0.1187	-0.019
Mof_C 	C 	0.5102	0.8422	0.1	0.048
Mof_C 	C 	0.5874	0.7402	0.1745	-0.001
Mof_O 	O 	0.4759	0.8988	0.0668	-0.357
Mof_C 	C 	0.5053	0.8886	0.063	0.092
Mof_C 	C 	0.5249	0.8681	0.079	-0.078
Mof_C 	C 	0.6135	0.7529	0.1928	0
Mof_C 	C 	0.5776	0.7095	0.1569	0
Mof_C 	C 	0.6481	0.7971	0.2311	-0
Mof_C 	C 	0.5756	0.6805	0.1272	-0.001
Mof_C 	C 	0.14269	0.19494	0.16815	-0
Mof_C 	C 	0.11618	0.22484	0.16113	0.001
Mof_C 	C 	0.063	0.3148	0.115	0.007
Mof_C 	C 	0.0815	0.284	0.1329	-0.003
Mof_C 	C 	0.0716	0.268	0.1622	0.001
Mof_C 	C 	0.0271	0.3195	0.1187	-0.018
Mof_C 	C 	0.0102	0.3422	0.1	0.041
Mof_C 	C 	0.0874	0.2402	0.1745	-0.001
Mof_O 	O 	0.9759	0.3988	0.0668	-0.344
Mof_C 	C 	0.0053	0.3886	0.063	0.074
Mof_C 	C 	0.0249	0.3681	0.079	-0.069
Mof_C 	C 	0.1135	0.2529	0.1928	0
Mof_C 	C 	0.0776	0.2095	0.1569	-0
Mof_C 	C 	0.1481	0.2971	0.2311	0
Mof_C 	C 	0.0756	0.1805	0.1272	-0.003
Mof_C 	C 	0.14269	0.69494	0.66815	-0
Mof_C 	C 	0.11618	0.72484	0.66113	0.001
Mof_C 	C 	0.063	0.8148	0.615	0.008
Mof_C 	C 	0.0815	0.784	0.6329	-0.003
Mof_C 	C 	0.0716	0.768	0.6622	0.002
Mof_C 	C 	0.0271	0.8195	0.6187	-0.017
Mof_C 	C 	0.0102	0.8422	0.6	0.043
Mof_C 	C 	0.0874	0.7402	0.6745	-0.001
Mof_O 	O 	0.9759	0.8988	0.5668	-0.343
Mof_C 	C 	0.0053	0.8886	0.563	0.076
Mof_C 	C 	0.0249	0.8681	0.579	-0.07
Mof_C 	C 	0.1135	0.7529	0.6928	0
Mof_C 	C 	0.0776	0.7095	0.6569	0
Mof_C 	C 	0.1481	0.7971	0.7311	-0
Mof_C 	C 	0.0756	0.6805	0.6272	-0.001
Mof_C 	C 	0.35731	0.80506	0.66815	-0
Mof_C 	C 	0.38382	0.77516	0.66113	0
Mof_C 	C 	0.437	0.6852	0.615	0.009
Mof_C 	C 	0.4185	0.716	0.6329	-0.003
Mof_C 	C 	0.4284	0.732	0.6622	0.003
Mof_C 	C 	0.4729	0.6805	0.6187	-0.018
Mof_C 	C 	0.4898	0.6578	0.6	0.05
Mof_C 	C 	0.4126	0.7598	0.6745	-0.001
Mof_O 	O 	0.5241	0.6012	0.5668	-0.357
Mof_C 	C 	0.4947	0.6114	0.563	0.094
Mof_C 	C 	0.4751	0.6319	0.579	-0.079
Mof_C 	C 	0.3865	0.7471	0.6928	0
Mof_C 	C 	0.4224	0.7905	0.6569	0.001
Mof_C 	C 	0.3519	0.7029	0.7311	-0
Mof_C 	C 	0.4244	0.8195	0.6272	0.001
Mof_C 	C 	0.35731	0.30506	0.16815	-0
Mof_C 	C 	0.38382	0.27516	0.16113	0.001
Mof_C 	C 	0.437	0.1852	0.115	0.008
Mof_C 	C 	0.4185	0.216	0.1329	-0.003
Mof_C 	C 	0.4284	0.232	0.1622	0.002
Mof_C 	C 	0.4729	0.1805	0.1187	-0.019
Mof_C 	C 	0.4898	0.1578	0.1	0.048
Mof_C 	C 	0.4126	0.2598	0.1745	-0.001
Mof_O 	O 	0.5241	0.1012	0.0668	-0.357
Mof_C 	C 	0.4947	0.1114	0.063	0.092
Mof_C 	C 	0.4751	0.1319	0.079	-0.077
Mof_C 	C 	0.3865	0.2471	0.1928	0
Mof_C 	C 	0.4224	0.2905	0.1569	0
Mof_C 	C 	0.3519	0.2029	0.2311	-0
Mof_C 	C 	0.4244	0.3195	0.1272	-0.001
Mof_C 	C 	0.85731	0.80506	0.16815	-0
Mof_C 	C 	0.88382	0.77516	0.16113	0
Mof_C 	C 	0.937	0.6852	0.115	0.01
Mof_C 	C 	0.9185	0.716	0.1329	-0.004
Mof_C 	C 	0.9284	0.732	0.1622	0.004
Mof_C 	C 	0.9729	0.6805	0.1187	-0.019
Mof_C 	C 	0.9898	0.6578	0.1	0.056
Mof_C 	C 	0.9126	0.7598	0.1745	-0.002
Mof_O 	O 	0.0241	0.6012	0.0668	-0.37
Mof_C 	C 	0.9947	0.6114	0.063	0.112
Mof_C 	C 	0.9751	0.6319	0.079	-0.087
Mof_C 	C 	0.8865	0.7471	0.1928	0.001
Mof_C 	C 	0.9224	0.7905	0.1569	0.001
Mof_C 	C 	0.8519	0.7029	0.2311	-0
Mof_C 	C 	0.9244	0.8195	0.1272	0.002
Mof_C 	C 	0.85731	0.30506	0.66815	-0
Mof_C 	C 	0.88382	0.27516	0.66113	0
Mof_C 	C 	0.937	0.1852	0.615	0.01
Mof_C 	C 	0.9185	0.216	0.6329	-0.004
Mof_C 	C 	0.9284	0.232	0.6622	0.004
Mof_C 	C 	0.9729	0.1805	0.6187	-0.019
Mof_C 	C 	0.9898	0.1578	0.6	0.057
Mof_C 	C 	0.9126	0.2598	0.6745	-0.002
Mof_O 	O 	0.0241	0.1012	0.5668	-0.37
Mof_C 	C 	0.9947	0.1114	0.563	0.114
Mof_C 	C 	0.9751	0.1319	0.579	-0.088
Mof_C 	C 	0.8865	0.2471	0.6928	0.001
Mof_C 	C 	0.9224	0.2905	0.6569	0.001
Mof_C 	C 	0.8519	0.2029	0.7311	-0
Mof_C 	C 	0.9244	0.3195	0.6272	0.002
Mof_C 	C 	0.33185	0.35731	0.19494	-0
Mof_C 	C 	0.33887	0.38382	0.22484	0.001
Mof_C 	C 	0.385	0.437	0.3148	0.009
Mof_C 	C 	0.3671	0.4185	0.284	-0.003
Mof_C 	C 	0.3378	0.4284	0.268	0.003
Mof_C 	C 	0.3813	0.4729	0.3195	-0.019
Mof_C 	C 	0.4	0.4898	0.3422	0.05
Mof_C 	C 	0.3255	0.4126	0.2402	-0.001
Mof_O 	O 	0.4332	0.5241	0.3988	-0.357
Mof_C 	C 	0.437	0.4947	0.3886	0.094
Mof_C 	C 	0.421	0.4751	0.3681	-0.079
Mof_C 	C 	0.3072	0.3865	0.2529	0
Mof_C 	C 	0.3431	0.4224	0.2095	0.001
Mof_C 	C 	0.2689	0.3519	0.2971	-0
Mof_C 	C 	0.3728	0.4244	0.1805	-0
Mof_C 	C 	0.33185	0.85731	0.69494	-0
Mof_C 	C 	0.33887	0.88382	0.72484	0
Mof_C 	C 	0.385	0.937	0.8148	0.01
Mof_C 	C 	0.3671	0.9185	0.784	-0.004
Mof_C 	C 	0.3378	0.9284	0.768	0.004
Mof_C 	C 	0.3813	0.9729	0.8195	-0.019
Mof_C 	C 	0.4	0.9898	0.8422	0.058
Mof_C 	C 	0.3255	0.9126	0.7402	-0.002
Mof_O 	O 	0.4332	0.0241	0.8988	-0.37
Mof_C 	C 	0.437	0.9947	0.8886	0.114
Mof_C 	C 	0.421	0.9751	0.8681	-0.088
Mof_C 	C 	0.3072	0.8865	0.7529	0.001
Mof_C 	C 	0.3431	0.9224	0.7095	0.001
Mof_C 	C 	0.2689	0.8519	0.7971	-0
Mof_C 	C 	0.3728	0.9244	0.6805	0.002
Mof_C 	C 	0.83185	0.35731	0.69494	-0
Mof_C 	C 	0.83887	0.38382	0.72484	0.001
Mof_C 	C 	0.885	0.437	0.8148	0.01
Mof_C 	C 	0.8671	0.4185	0.784	-0.004
Mof_C 	C 	0.8378	0.4284	0.768	0.004
Mof_C 	C 	0.8813	0.4729	0.8195	-0.018
Mof_C 	C 	0.9	0.4898	0.8422	0.052
Mof_C 	C 	0.8255	0.4126	0.7402	-0.001
Mof_O 	O 	0.9332	0.5241	0.8988	-0.356
Mof_C 	C 	0.937	0.4947	0.8886	0.097
Mof_C 	C 	0.921	0.4751	0.8681	-0.081
Mof_C 	C 	0.8072	0.3865	0.7529	0
Mof_C 	C 	0.8431	0.4224	0.7095	0.001
Mof_C 	C 	0.7689	0.3519	0.7971	-0
Mof_C 	C 	0.8728	0.4244	0.6805	0.002
Mof_C 	C 	0.83185	0.85731	0.19494	-0
Mof_C 	C 	0.83887	0.88382	0.22484	0
Mof_C 	C 	0.885	0.937	0.3148	0.011
Mof_C 	C 	0.8671	0.9185	0.284	-0.004
Mof_C 	C 	0.8378	0.9284	0.268	0.005
Mof_C 	C 	0.8813	0.9729	0.3195	-0.019
Mof_C 	C 	0.9	0.9898	0.3422	0.059
Mof_C 	C 	0.8255	0.9126	0.2402	-0.002
Mof_O 	O 	0.9332	0.0241	0.3988	-0.37
Mof_C 	C 	0.937	0.9947	0.3886	0.116
Mof_C 	C 	0.921	0.9751	0.3681	-0.09
Mof_C 	C 	0.8072	0.8865	0.2529	0.001
Mof_C 	C 	0.8431	0.9224	0.2095	0.002
Mof_C 	C 	0.7689	0.8519	0.2971	-0
Mof_C 	C 	0.8728	0.9244	0.1805	0.003
Mof_C 	C 	0.33185	0.64269	0.80506	-0
Mof_C 	C 	0.33887	0.61618	0.77516	0.001
Mof_C 	C 	0.385	0.563	0.6852	0.009
Mof_C 	C 	0.3671	0.5815	0.716	-0.003
Mof_C 	C 	0.3378	0.5716	0.732	0.003
Mof_C 	C 	0.3813	0.5271	0.6805	-0.018
Mof_C 	C 	0.4	0.5102	0.6578	0.05
Mof_C 	C 	0.3255	0.5874	0.7598	-0.001
Mof_O 	O 	0.4332	0.4759	0.6012	-0.357
Mof_C 	C 	0.437	0.5053	0.6114	0.094
Mof_C 	C 	0.421	0.5249	0.6319	-0.079
Mof_C 	C 	0.3072	0.6135	0.7471	0
Mof_C 	C 	0.3431	0.5776	0.7905	0.001
Mof_C 	C 	0.2689	0.6481	0.7029	-0
Mof_C 	C 	0.3728	0.5756	0.8195	0.001
Mof_C 	C 	0.33185	0.14269	0.30506	-0
Mof_C 	C 	0.33887	0.11618	0.27516	0.001
Mof_C 	C 	0.385	0.063	0.1852	0.008
Mof_C 	C 	0.3671	0.0815	0.216	-0.003
Mof_C 	C 	0.3378	0.0716	0.232	0.001
Mof_C 	C 	0.3813	0.0271	0.1805	-0.018
Mof_C 	C 	0.4	0.0102	0.1578	0.042
Mof_C 	C 	0.3255	0.0874	0.2598	-0.001
Mof_O 	O 	0.4332	0.9759	0.1012	-0.344
Mof_C 	C 	0.437	0.0053	0.1114	0.076
Mof_C 	C 	0.421	0.0249	0.1319	-0.07
Mof_C 	C 	0.3072	0.1135	0.2471	0
Mof_C 	C 	0.3431	0.0776	0.2905	-0
Mof_C 	C 	0.2689	0.1481	0.2029	0
Mof_C 	C 	0.3728	0.0756	0.3195	-0.001
Mof_C 	C 	0.83185	0.64269	0.30506	-0
Mof_C 	C 	0.83887	0.61618	0.27516	0.001
Mof_C 	C 	0.885	0.563	0.1852	0.01
Mof_C 	C 	0.8671	0.5815	0.216	-0.004
Mof_C 	C 	0.8378	0.5716	0.232	0.003
Mof_C 	C 	0.8813	0.5271	0.1805	-0.019
Mof_C 	C 	0.9	0.5102	0.1578	0.052
Mof_C 	C 	0.8255	0.5874	0.2598	-0.001
Mof_O 	O 	0.9332	0.4759	0.1012	-0.357
Mof_C 	C 	0.937	0.5053	0.1114	0.097
Mof_C 	C 	0.921	0.5249	0.1319	-0.08
Mof_C 	C 	0.8072	0.6135	0.2471	0
Mof_C 	C 	0.8431	0.5776	0.2905	0.001
Mof_C 	C 	0.7689	0.6481	0.2029	-0
Mof_C 	C 	0.8728	0.5756	0.3195	0.002
Mof_C 	C 	0.83185	0.14269	0.80506	-0
Mof_C 	C 	0.83887	0.11618	0.77516	0.001
Mof_C 	C 	0.885	0.063	0.6852	0.008
Mof_C 	C 	0.8671	0.0815	0.716	-0.003
Mof_C 	C 	0.8378	0.0716	0.732	0.002
Mof_C 	C 	0.8813	0.0271	0.6805	-0.017
Mof_C 	C 	0.9	0.0102	0.6578	0.045
Mof_C 	C 	0.8255	0.0874	0.7598	-0.001
Mof_O 	O 	0.9332	0.9759	0.6012	-0.343
Mof_C 	C 	0.937	0.0053	0.6114	0.079
Mof_C 	C 	0.921	0.0249	0.6319	-0.072
Mof_C 	C 	0.8072	0.1135	0.7471	0
Mof_C 	C 	0.8431	0.0776	0.7905	0
Mof_C 	C 	0.7689	0.1481	0.7029	-0
Mof_C 	C 	0.8728	0.0756	0.8195	0.001
Mof_C 	C 	0.66815	0.64269	0.19494	-0
Mof_C 	C 	0.66113	0.61618	0.22484	0.001
Mof_C 	C 	0.615	0.563	0.3148	0.009
Mof_C 	C 	0.6329	0.5815	0.284	-0.003
Mof_C 	C 	0.6622	0.5716	0.268	0.003
Mof_C 	C 	0.6187	0.5271	0.3195	-0.019
Mof_C 	C 	0.6	0.5102	0.3422	0.05
Mof_C 	C 	0.6745	0.5874	0.2402	-0.001
Mof_O 	O 	0.5668	0.4759	0.3988	-0.357
Mof_C 	C 	0.563	0.5053	0.3886	0.094
Mof_C 	C 	0.579	0.5249	0.3681	-0.079
Mof_C 	C 	0.6928	0.6135	0.2529	0
Mof_C 	C 	0.6569	0.5776	0.2095	0.001
Mof_C 	C 	0.7311	0.6481	0.2971	-0
Mof_C 	C 	0.6272	0.5756	0.1805	-0
Mof_C 	C 	0.66815	0.14269	0.69494	-0
Mof_C 	C 	0.66113	0.11618	0.72484	0.001
Mof_C 	C 	0.615	0.063	0.8148	0.008
Mof_C 	C 	0.6329	0.0815	0.784	-0.003
Mof_C 	C 	0.6622	0.0716	0.768	0.002
Mof_C 	C 	0.6187	0.0271	0.8195	-0.017
Mof_C 	C 	0.6	0.0102	0.8422	0.043
Mof_C 	C 	0.6745	0.0874	0.7402	-0.001
Mof_O 	O 	0.5668	0.9759	0.8988	-0.343
Mof_C 	C 	0.563	0.0053	0.8886	0.076
Mof_C 	C 	0.579	0.0249	0.8681	-0.07
Mof_C 	C 	0.6928	0.1135	0.7529	0
Mof_C 	C 	0.6569	0.0776	0.7095	0
Mof_C 	C 	0.7311	0.1481	0.7971	-0
Mof_C 	C 	0.6272	0.0756	0.6805	-0.001
Mof_C 	C 	0.16815	0.64269	0.69494	-0
Mof_C 	C 	0.16113	0.61618	0.72484	0.001
Mof_C 	C 	0.115	0.563	0.8148	0.008
Mof_C 	C 	0.1329	0.5815	0.784	-0.003
Mof_C 	C 	0.1622	0.5716	0.768	0.003
Mof_C 	C 	0.1187	0.5271	0.8195	-0.019
Mof_C 	C 	0.1	0.5102	0.8422	0.048
Mof_C 	C 	0.1745	0.5874	0.7402	-0.001
Mof_O 	O 	0.0668	0.4759	0.8988	-0.357
Mof_C 	C 	0.063	0.5053	0.8886	0.092
Mof_C 	C 	0.079	0.5249	0.8681	-0.078
Mof_C 	C 	0.1928	0.6135	0.7529	0
Mof_C 	C 	0.1569	0.5776	0.7095	0
Mof_C 	C 	0.2311	0.6481	0.7971	-0
Mof_C 	C 	0.1272	0.5756	0.6805	-0.001
Mof_C 	C 	0.16815	0.14269	0.19494	-0
Mof_C 	C 	0.16113	0.11618	0.22484	0.001
Mof_C 	C 	0.115	0.063	0.3148	0.007
Mof_C 	C 	0.1329	0.0815	0.284	-0.003
Mof_C 	C 	0.1622	0.0716	0.268	0.001
Mof_C 	C 	0.1187	0.0271	0.3195	-0.018
Mof_C 	C 	0.1	0.0102	0.3422	0.041
Mof_C 	C 	0.1745	0.0874	0.2402	-0.001
Mof_O 	O 	0.0668	0.9759	0.3988	-0.344
Mof_C 	C 	0.063	0.0053	0.3886	0.074
Mof_C 	C 	0.079	0.0249	0.3681	-0.069
Mof_C 	C 	0.1928	0.1135	0.2529	0
Mof_C 	C 	0.1569	0.0776	0.2095	-0
Mof_C 	C 	0.2311	0.1481	0.2971	0
Mof_C 	C 	0.1272	0.0756	0.1805	-0.003
Mof_C 	C 	0.66815	0.35731	0.80506	-0
Mof_C 	C 	0.66113	0.38382	0.77516	0
Mof_C 	C 	0.615	0.437	0.6852	0.009
Mof_C 	C 	0.6329	0.4185	0.716	-0.003
Mof_C 	C 	0.6622	0.4284	0.732	0.003
Mof_C 	C 	0.6187	0.4729	0.6805	-0.018
Mof_C 	C 	0.6	0.4898	0.6578	0.05
Mof_C 	C 	0.6745	0.4126	0.7598	-0.001
Mof_O 	O 	0.5668	0.5241	0.6012	-0.357
Mof_C 	C 	0.563	0.4947	0.6114	0.094
Mof_C 	C 	0.579	0.4751	0.6319	-0.079
Mof_C 	C 	0.6928	0.3865	0.7471	0
Mof_C 	C 	0.6569	0.4224	0.7905	0.001
Mof_C 	C 	0.7311	0.3519	0.7029	-0
Mof_C 	C 	0.6272	0.4244	0.8195	0.001
Mof_C 	C 	0.66815	0.85731	0.30506	-0
Mof_C 	C 	0.66113	0.88382	0.27516	0
Mof_C 	C 	0.615	0.937	0.1852	0.01
Mof_C 	C 	0.6329	0.9185	0.216	-0.004
Mof_C 	C 	0.6622	0.9284	0.232	0.004
Mof_C 	C 	0.6187	0.9729	0.1805	-0.019
Mof_C 	C 	0.6	0.9898	0.1578	0.057
Mof_C 	C 	0.6745	0.9126	0.2598	-0.002
Mof_O 	O 	0.5668	0.0241	0.1012	-0.37
Mof_C 	C 	0.563	0.9947	0.1114	0.114
Mof_C 	C 	0.579	0.9751	0.1319	-0.088
Mof_C 	C 	0.6928	0.8865	0.2471	0.001
Mof_C 	C 	0.6569	0.9224	0.2905	0.001
Mof_C 	C 	0.7311	0.8519	0.2029	-0
Mof_C 	C 	0.6272	0.9244	0.3195	0.002
Mof_C 	C 	0.16815	0.35731	0.30506	-0
Mof_C 	C 	0.16113	0.38382	0.27516	0.001
Mof_C 	C 	0.115	0.437	0.1852	0.008
Mof_C 	C 	0.1329	0.4185	0.216	-0.003
Mof_C 	C 	0.1622	0.4284	0.232	0.002
Mof_C 	C 	0.1187	0.4729	0.1805	-0.019
Mof_C 	C 	0.1	0.4898	0.1578	0.048
Mof_C 	C 	0.1745	0.4126	0.2598	-0.001
Mof_O 	O 	0.0668	0.5241	0.1012	-0.357
Mof_C 	C 	0.063	0.4947	0.1114	0.092
Mof_C 	C 	0.079	0.4751	0.1319	-0.077
Mof_C 	C 	0.1928	0.3865	0.2471	0
Mof_C 	C 	0.1569	0.4224	0.2905	0
Mof_C 	C 	0.2311	0.3519	0.2029	-0
Mof_C 	C 	0.1272	0.4244	0.3195	-0.001
Mof_C 	C 	0.16815	0.85731	0.80506	-0
Mof_C 	C 	0.16113	0.88382	0.77516	0
Mof_C 	C 	0.115	0.937	0.6852	0.01
Mof_C 	C 	0.1329	0.9185	0.716	-0.004
Mof_C 	C 	0.1622	0.9284	0.732	0.004
Mof_C 	C 	0.1187	0.9729	0.6805	-0.019
Mof_C 	C 	0.1	0.9898	0.6578	0.056
Mof_C 	C 	0.1745	0.9126	0.7598	-0.002
Mof_O 	O 	0.0668	0.0241	0.6012	-0.37
Mof_C 	C 	0.063	0.9947	0.6114	0.112
Mof_C 	C 	0.079	0.9751	0.6319	-0.087
Mof_C 	C 	0.1928	0.8865	0.7471	0.001
Mof_C 	C 	0.1569	0.9224	0.7905	0.001
Mof_C 	C 	0.2311	0.8519	0.7029	-0
Mof_C 	C 	0.1272	0.9244	0.8195	0.002
Mof_C 	C 	0.19494	0.33185	0.35731	-0
Mof_C 	C 	0.22484	0.33887	0.38382	0.001
Mof_C 	C 	0.3148	0.385	0.437	0.009
Mof_C 	C 	0.284	0.3671	0.4185	-0.003
Mof_C 	C 	0.268	0.3378	0.4284	0.003
Mof_C 	C 	0.3195	0.3813	0.4729	-0.019
Mof_C 	C 	0.3422	0.4	0.4898	0.05
Mof_C 	C 	0.2402	0.3255	0.4126	-0.001
Mof_O 	O 	0.3988	0.4332	0.5241	-0.357
Mof_C 	C 	0.3886	0.437	0.4947	0.094
Mof_C 	C 	0.3681	0.421	0.4751	-0.079
Mof_C 	C 	0.2529	0.3072	0.3865	0
Mof_C 	C 	0.2095	0.3431	0.4224	0.001
Mof_C 	C 	0.2971	0.2689	0.3519	-0
Mof_C 	C 	0.1805	0.3728	0.4244	-0
Mof_C 	C 	0.19494	0.83185	0.85731	-0
Mof_C 	C 	0.22484	0.83887	0.88382	0
Mof_C 	C 	0.3148	0.885	0.937	0.011
Mof_C 	C 	0.284	0.8671	0.9185	-0.004
Mof_C 	C 	0.268	0.8378	0.9284	0.005
Mof_C 	C 	0.3195	0.8813	0.9729	-0.019
Mof_C 	C 	0.3422	0.9	0.9898	0.059
Mof_C 	C 	0.2402	0.8255	0.9126	-0.002
Mof_O 	O 	0.3988	0.9332	0.0241	-0.37
Mof_C 	C 	0.3886	0.937	0.9947	0.116
Mof_C 	C 	0.3681	0.921	0.9751	-0.09
Mof_C 	C 	0.2529	0.8072	0.8865	0.001
Mof_C 	C 	0.2095	0.8431	0.9224	0.002
Mof_C 	C 	0.2971	0.7689	0.8519	-0
Mof_C 	C 	0.1805	0.8728	0.9244	0.003
Mof_C 	C 	0.69494	0.33185	0.85731	-0
Mof_C 	C 	0.72484	0.33887	0.88382	0
Mof_C 	C 	0.8148	0.385	0.937	0.01
Mof_C 	C 	0.784	0.3671	0.9185	-0.004
Mof_C 	C 	0.768	0.3378	0.9284	0.004
Mof_C 	C 	0.8195	0.3813	0.9729	-0.019
Mof_C 	C 	0.8422	0.4	0.9898	0.058
Mof_C 	C 	0.7402	0.3255	0.9126	-0.002
Mof_O 	O 	0.8988	0.4332	0.0241	-0.37
Mof_C 	C 	0.8886	0.437	0.9947	0.114
Mof_C 	C 	0.8681	0.421	0.9751	-0.088
Mof_C 	C 	0.7529	0.3072	0.8865	0.001
Mof_C 	C 	0.7095	0.3431	0.9224	0.001
Mof_C 	C 	0.7971	0.2689	0.8519	-0
Mof_C 	C 	0.6805	0.3728	0.9244	0.002
Mof_C 	C 	0.69494	0.83185	0.35731	-0
Mof_C 	C 	0.72484	0.83887	0.38382	0.001
Mof_C 	C 	0.8148	0.885	0.437	0.01
Mof_C 	C 	0.784	0.8671	0.4185	-0.004
Mof_C 	C 	0.768	0.8378	0.4284	0.004
Mof_C 	C 	0.8195	0.8813	0.4729	-0.018
Mof_C 	C 	0.8422	0.9	0.4898	0.052
Mof_C 	C 	0.7402	0.8255	0.4126	-0.001
Mof_O 	O 	0.8988	0.9332	0.5241	-0.356
Mof_C 	C 	0.8886	0.937	0.4947	0.097
Mof_C 	C 	0.8681	0.921	0.4751	-0.081
Mof_C 	C 	0.7529	0.8072	0.3865	0
Mof_C 	C 	0.7095	0.8431	0.4224	0.001
Mof_C 	C 	0.7971	0.7689	0.3519	-0
Mof_C 	C 	0.6805	0.8728	0.4244	0.002
Mof_C 	C 	0.80506	0.33185	0.64269	-0
Mof_C 	C 	0.77516	0.33887	0.61618	0.001
Mof_C 	C 	0.6852	0.385	0.563	0.009
Mof_C 	C 	0.716	0.3671	0.5815	-0.003
Mof_C 	C 	0.732	0.3378	0.5716	0.003
Mof_C 	C 	0.6805	0.3813	0.5271	-0.018
Mof_C 	C 	0.6578	0.4	0.5102	0.05
Mof_C 	C 	0.7598	0.3255	0.5874	-0.001
Mof_O 	O 	0.6012	0.4332	0.4759	-0.357
Mof_C 	C 	0.6114	0.437	0.5053	0.094
Mof_C 	C 	0.6319	0.421	0.5249	-0.079
Mof_C 	C 	0.7471	0.3072	0.6135	0
Mof_C 	C 	0.7905	0.3431	0.5776	0.001
Mof_C 	C 	0.7029	0.2689	0.6481	-0
Mof_C 	C 	0.8195	0.3728	0.5756	0.001
Mof_C 	C 	0.80506	0.83185	0.14269	-0
Mof_C 	C 	0.77516	0.83887	0.11618	0.001
Mof_C 	C 	0.6852	0.885	0.063	0.008
Mof_C 	C 	0.716	0.8671	0.0815	-0.003
Mof_C 	C 	0.732	0.8378	0.0716	0.002
Mof_C 	C 	0.6805	0.8813	0.0271	-0.017
Mof_C 	C 	0.6578	0.9	0.0102	0.045
Mof_C 	C 	0.7598	0.8255	0.0874	-0.001
Mof_O 	O 	0.6012	0.9332	0.9759	-0.343
Mof_C 	C 	0.6114	0.937	0.0053	0.079
Mof_C 	C 	0.6319	0.921	0.0249	-0.072
Mof_C 	C 	0.7471	0.8072	0.1135	0
Mof_C 	C 	0.7905	0.8431	0.0776	0
Mof_C 	C 	0.7029	0.7689	0.1481	-0
Mof_C 	C 	0.8195	0.8728	0.0756	0.001
Mof_C 	C 	0.30506	0.33185	0.14269	-0
Mof_C 	C 	0.27516	0.33887	0.11618	0.001
Mof_C 	C 	0.1852	0.385	0.063	0.008
Mof_C 	C 	0.216	0.3671	0.0815	-0.003
Mof_C 	C 	0.232	0.3378	0.0716	0.001
Mof_C 	C 	0.1805	0.3813	0.0271	-0.018
Mof_C 	C 	0.1578	0.4	0.0102	0.042
Mof_C 	C 	0.2598	0.3255	0.0874	-0.001
Mof_O 	O 	0.1012	0.4332	0.9759	-0.344
Mof_C 	C 	0.1114	0.437	0.0053	0.076
Mof_C 	C 	0.1319	0.421	0.0249	-0.07
Mof_C 	C 	0.2471	0.3072	0.1135	0
Mof_C 	C 	0.2905	0.3431	0.0776	-0
Mof_C 	C 	0.2029	0.2689	0.1481	0
Mof_C 	C 	0.3195	0.3728	0.0756	-0.001
Mof_C 	C 	0.30506	0.83185	0.64269	-0
Mof_C 	C 	0.27516	0.83887	0.61618	0.001
Mof_C 	C 	0.1852	0.885	0.563	0.01
Mof_C 	C 	0.216	0.8671	0.5815	-0.004
Mof_C 	C 	0.232	0.8378	0.5716	0.003
Mof_C 	C 	0.1805	0.8813	0.5271	-0.019
Mof_C 	C 	0.1578	0.9	0.5102	0.052
Mof_C 	C 	0.2598	0.8255	0.5874	-0.001
Mof_O 	O 	0.1012	0.9332	0.4759	-0.357
Mof_C 	C 	0.1114	0.937	0.5053	0.097
Mof_C 	C 	0.1319	0.921	0.5249	-0.08
Mof_C 	C 	0.2471	0.8072	0.6135	0
Mof_C 	C 	0.2905	0.8431	0.5776	0.001
Mof_C 	C 	0.2029	0.7689	0.6481	-0
Mof_C 	C 	0.3195	0.8728	0.5756	0.002
Mof_C 	C 	0.19494	0.66815	0.64269	-0
Mof_C 	C 	0.22484	0.66113	0.61618	0.001
Mof_C 	C 	0.3148	0.615	0.563	0.009
Mof_C 	C 	0.284	0.6329	0.5815	-0.003
Mof_C 	C 	0.268	0.6622	0.5716	0.003
Mof_C 	C 	0.3195	0.6187	0.5271	-0.019
Mof_C 	C 	0.3422	0.6	0.5102	0.05
Mof_C 	C 	0.2402	0.6745	0.5874	-0.001
Mof_O 	O 	0.3988	0.5668	0.4759	-0.357
Mof_C 	C 	0.3886	0.563	0.5053	0.094
Mof_C 	C 	0.3681	0.579	0.5249	-0.079
Mof_C 	C 	0.2529	0.6928	0.6135	0
Mof_C 	C 	0.2095	0.6569	0.5776	0.001
Mof_C 	C 	0.2971	0.7311	0.6481	-0
Mof_C 	C 	0.1805	0.6272	0.5756	-0
Mof_C 	C 	0.19494	0.16815	0.14269	-0
Mof_C 	C 	0.22484	0.16113	0.11618	0.001
Mof_C 	C 	0.3148	0.115	0.063	0.007
Mof_C 	C 	0.284	0.1329	0.0815	-0.003
Mof_C 	C 	0.268	0.1622	0.0716	0.001
Mof_C 	C 	0.3195	0.1187	0.0271	-0.018
Mof_C 	C 	0.3422	0.1	0.0102	0.041
Mof_C 	C 	0.2402	0.1745	0.0874	-0.001
Mof_O 	O 	0.3988	0.0668	0.9759	-0.344
Mof_C 	C 	0.3886	0.063	0.0053	0.074
Mof_C 	C 	0.3681	0.079	0.0249	-0.069
Mof_C 	C 	0.2529	0.1928	0.1135	0
Mof_C 	C 	0.2095	0.1569	0.0776	-0
Mof_C 	C 	0.2971	0.2311	0.1481	0
Mof_C 	C 	0.1805	0.1272	0.0756	-0.003
Mof_C 	C 	0.69494	0.66815	0.14269	-0
Mof_C 	C 	0.72484	0.66113	0.11618	0.001
Mof_C 	C 	0.8148	0.615	0.063	0.008
Mof_C 	C 	0.784	0.6329	0.0815	-0.003
Mof_C 	C 	0.768	0.6622	0.0716	0.002
Mof_C 	C 	0.8195	0.6187	0.0271	-0.017
Mof_C 	C 	0.8422	0.6	0.0102	0.043
Mof_C 	C 	0.7402	0.6745	0.0874	-0.001
Mof_O 	O 	0.8988	0.5668	0.9759	-0.343
Mof_C 	C 	0.8886	0.563	0.0053	0.076
Mof_C 	C 	0.8681	0.579	0.0249	-0.07
Mof_C 	C 	0.7529	0.6928	0.1135	0
Mof_C 	C 	0.7095	0.6569	0.0776	0
Mof_C 	C 	0.7971	0.7311	0.1481	-0
Mof_C 	C 	0.6805	0.6272	0.0756	-0.001
Mof_C 	C 	0.69494	0.16815	0.64269	-0
Mof_C 	C 	0.72484	0.16113	0.61618	0.001
Mof_C 	C 	0.8148	0.115	0.563	0.008
Mof_C 	C 	0.784	0.1329	0.5815	-0.003
Mof_C 	C 	0.768	0.1622	0.5716	0.003
Mof_C 	C 	0.8195	0.1187	0.5271	-0.019
Mof_C 	C 	0.8422	0.1	0.5102	0.048
Mof_C 	C 	0.7402	0.1745	0.5874	-0.001
Mof_O 	O 	0.8988	0.0668	0.4759	-0.357
Mof_C 	C 	0.8886	0.063	0.5053	0.092
Mof_C 	C 	0.8681	0.079	0.5249	-0.078
Mof_C 	C 	0.7529	0.1928	0.6135	0
Mof_C 	C 	0.7095	0.1569	0.5776	0
Mof_C 	C 	0.7971	0.2311	0.6481	-0
Mof_C 	C 	0.6805	0.1272	0.5756	-0.001
Mof_C 	C 	0.80506	0.66815	0.35731	-0
Mof_C 	C 	0.77516	0.66113	0.38382	0
Mof_C 	C 	0.6852	0.615	0.437	0.009
Mof_C 	C 	0.716	0.6329	0.4185	-0.003
Mof_C 	C 	0.732	0.6622	0.4284	0.003
Mof_C 	C 	0.6805	0.6187	0.4729	-0.018
Mof_C 	C 	0.6578	0.6	0.4898	0.05
Mof_C 	C 	0.7598	0.6745	0.4126	-0.001
Mof_O 	O 	0.6012	0.5668	0.5241	-0.357
Mof_C 	C 	0.6114	0.563	0.4947	0.094
Mof_C 	C 	0.6319	0.579	0.4751	-0.079
Mof_C 	C 	0.7471	0.6928	0.3865	0
Mof_C 	C 	0.7905	0.6569	0.4224	0.001
Mof_C 	C 	0.7029	0.7311	0.3519	-0
Mof_C 	C 	0.8195	0.6272	0.4244	0.001
Mof_C 	C 	0.80506	0.16815	0.85731	-0
Mof_C 	C 	0.77516	0.16113	0.88382	0
Mof_C 	C 	0.6852	0.115	0.937	0.01
Mof_C 	C 	0.716	0.1329	0.9185	-0.004
Mof_C 	C 	0.732	0.1622	0.9284	0.004
Mof_C 	C 	0.6805	0.1187	0.9729	-0.019
Mof_C 	C 	0.6578	0.1	0.9898	0.056
Mof_C 	C 	0.7598	0.1745	0.9126	-0.002
Mof_O 	O 	0.6012	0.0668	0.0241	-0.37
Mof_C 	C 	0.6114	0.063	0.9947	0.112
Mof_C 	C 	0.6319	0.079	0.9751	-0.087
Mof_C 	C 	0.7471	0.1928	0.8865	0.001
Mof_C 	C 	0.7905	0.1569	0.9224	0.001
Mof_C 	C 	0.7029	0.2311	0.8519	-0
Mof_C 	C 	0.8195	0.1272	0.9244	0.002
Mof_C 	C 	0.30506	0.66815	0.85731	-0
Mof_C 	C 	0.27516	0.66113	0.88382	0
Mof_C 	C 	0.1852	0.615	0.937	0.01
Mof_C 	C 	0.216	0.6329	0.9185	-0.004
Mof_C 	C 	0.232	0.6622	0.9284	0.004
Mof_C 	C 	0.1805	0.6187	0.9729	-0.019
Mof_C 	C 	0.1578	0.6	0.9898	0.057
Mof_C 	C 	0.2598	0.6745	0.9126	-0.002
Mof_O 	O 	0.1012	0.5668	0.0241	-0.37
Mof_C 	C 	0.1114	0.563	0.9947	0.114
Mof_C 	C 	0.1319	0.579	0.9751	-0.088
Mof_C 	C 	0.2471	0.6928	0.8865	0.001
Mof_C 	C 	0.2905	0.6569	0.9224	0.001
Mof_C 	C 	0.2029	0.7311	0.8519	-0
Mof_C 	C 	0.3195	0.6272	0.9244	0.002
Mof_C 	C 	0.30506	0.16815	0.35731	-0
Mof_C 	C 	0.27516	0.16113	0.38382	0.001
Mof_C 	C 	0.1852	0.115	0.437	0.008
Mof_C 	C 	0.216	0.1329	0.4185	-0.003
Mof_C 	C 	0.232	0.1622	0.4284	0.002
Mof_C 	C 	0.1805	0.1187	0.4729	-0.019
Mof_C 	C 	0.1578	0.1	0.4898	0.048
Mof_C 	C 	0.2598	0.1745	0.4126	-0.001
Mof_O 	O 	0.1012	0.0668	0.5241	-0.357
Mof_C 	C 	0.1114	0.063	0.4947	0.092
Mof_C 	C 	0.1319	0.079	0.4751	-0.077
Mof_C 	C 	0.2471	0.1928	0.3865	0
Mof_C 	C 	0.2905	0.1569	0.4224	0
Mof_C 	C 	0.2029	0.2311	0.3519	-0
Mof_C 	C 	0.3195	0.1272	0.4244	-0.001
Mof_C 	C 	0.19494	0.35731	0.33185	-0
Mof_C 	C 	0.22484	0.38382	0.33887	0.001
Mof_C 	C 	0.3148	0.437	0.385	0.009
Mof_C 	C 	0.284	0.4185	0.3671	-0.003
Mof_C 	C 	0.268	0.4284	0.3378	0.003
Mof_C 	C 	0.3195	0.4729	0.3813	-0.019
Mof_C 	C 	0.3422	0.4898	0.4	0.05
Mof_C 	C 	0.2402	0.4126	0.3255	-0.001
Mof_O 	O 	0.3988	0.5241	0.4332	-0.357
Mof_C 	C 	0.3886	0.4947	0.437	0.094
Mof_C 	C 	0.3681	0.4751	0.421	-0.079
Mof_C 	C 	0.2529	0.3865	0.3072	0
Mof_C 	C 	0.2095	0.4224	0.3431	0.001
Mof_C 	C 	0.2971	0.3519	0.2689	-0
Mof_C 	C 	0.1805	0.4244	0.3728	-0
Mof_C 	C 	0.19494	0.85731	0.83185	-0
Mof_C 	C 	0.22484	0.88382	0.83887	0
Mof_C 	C 	0.3148	0.937	0.885	0.011
Mof_C 	C 	0.284	0.9185	0.8671	-0.004
Mof_C 	C 	0.268	0.9284	0.8378	0.005
Mof_C 	C 	0.3195	0.9729	0.8813	-0.019
Mof_C 	C 	0.3422	0.9898	0.9	0.059
Mof_C 	C 	0.2402	0.9126	0.8255	-0.002
Mof_O 	O 	0.3988	0.0241	0.9332	-0.37
Mof_C 	C 	0.3886	0.9947	0.937	0.116
Mof_C 	C 	0.3681	0.9751	0.921	-0.09
Mof_C 	C 	0.2529	0.8865	0.8072	0.001
Mof_C 	C 	0.2095	0.9224	0.8431	0.002
Mof_C 	C 	0.2971	0.8519	0.7689	-0
Mof_C 	C 	0.1805	0.9244	0.8728	0.003
Mof_C 	C 	0.69494	0.35731	0.83185	-0
Mof_C 	C 	0.72484	0.38382	0.83887	0.001
Mof_C 	C 	0.8148	0.437	0.885	0.01
Mof_C 	C 	0.784	0.4185	0.8671	-0.004
Mof_C 	C 	0.768	0.4284	0.8378	0.004
Mof_C 	C 	0.8195	0.4729	0.8813	-0.018
Mof_C 	C 	0.8422	0.4898	0.9	0.052
Mof_C 	C 	0.7402	0.4126	0.8255	-0.001
Mof_O 	O 	0.8988	0.5241	0.9332	-0.356
Mof_C 	C 	0.8886	0.4947	0.937	0.097
Mof_C 	C 	0.8681	0.4751	0.921	-0.081
Mof_C 	C 	0.7529	0.3865	0.8072	0
Mof_C 	C 	0.7095	0.4224	0.8431	0.001
Mof_C 	C 	0.7971	0.3519	0.7689	-0
Mof_C 	C 	0.6805	0.4244	0.8728	0.002
Mof_C 	C 	0.69494	0.85731	0.33185	-0
Mof_C 	C 	0.72484	0.88382	0.33887	0
Mof_C 	C 	0.8148	0.937	0.385	0.01
Mof_C 	C 	0.784	0.9185	0.3671	-0.004
Mof_C 	C 	0.768	0.9284	0.3378	0.004
Mof_C 	C 	0.8195	0.9729	0.3813	-0.019
Mof_C 	C 	0.8422	0.9898	0.4	0.058
Mof_C 	C 	0.7402	0.9126	0.3255	-0.002
Mof_O 	O 	0.8988	0.0241	0.4332	-0.37
Mof_C 	C 	0.8886	0.9947	0.437	0.114
Mof_C 	C 	0.8681	0.9751	0.421	-0.088
Mof_C 	C 	0.7529	0.8865	0.3072	0.001
Mof_C 	C 	0.7095	0.9224	0.3431	0.001
Mof_C 	C 	0.7971	0.8519	0.2689	-0
Mof_C 	C 	0.6805	0.9244	0.3728	0.002
Mof_C 	C 	0.80506	0.64269	0.33185	-0
Mof_C 	C 	0.77516	0.61618	0.33887	0.001
Mof_C 	C 	0.6852	0.563	0.385	0.009
Mof_C 	C 	0.716	0.5815	0.3671	-0.003
Mof_C 	C 	0.732	0.5716	0.3378	0.003
Mof_C 	C 	0.6805	0.5271	0.3813	-0.018
Mof_C 	C 	0.6578	0.5102	0.4	0.05
Mof_C 	C 	0.7598	0.5874	0.3255	-0.001
Mof_O 	O 	0.6012	0.4759	0.4332	-0.357
Mof_C 	C 	0.6114	0.5053	0.437	0.094
Mof_C 	C 	0.6319	0.5249	0.421	-0.079
Mof_C 	C 	0.7471	0.6135	0.3072	0
Mof_C 	C 	0.7905	0.5776	0.3431	0.001
Mof_C 	C 	0.7029	0.6481	0.2689	-0
Mof_C 	C 	0.8195	0.5756	0.3728	0.001
Mof_C 	C 	0.80506	0.14269	0.83185	-0
Mof_C 	C 	0.77516	0.11618	0.83887	0.001
Mof_C 	C 	0.6852	0.063	0.885	0.008
Mof_C 	C 	0.716	0.0815	0.8671	-0.003
Mof_C 	C 	0.732	0.0716	0.8378	0.002
Mof_C 	C 	0.6805	0.0271	0.8813	-0.017
Mof_C 	C 	0.6578	0.0102	0.9	0.045
Mof_C 	C 	0.7598	0.0874	0.8255	-0.001
Mof_O 	O 	0.6012	0.9759	0.9332	-0.343
Mof_C 	C 	0.6114	0.0053	0.937	0.079
Mof_C 	C 	0.6319	0.0249	0.921	-0.072
Mof_C 	C 	0.7471	0.1135	0.8072	0
Mof_C 	C 	0.7905	0.0776	0.8431	0
Mof_C 	C 	0.7029	0.1481	0.7689	-0
Mof_C 	C 	0.8195	0.0756	0.8728	0.001
Mof_C 	C 	0.30506	0.64269	0.83185	-0
Mof_C 	C 	0.27516	0.61618	0.83887	0.001
Mof_C 	C 	0.1852	0.563	0.885	0.01
Mof_C 	C 	0.216	0.5815	0.8671	-0.004
Mof_C 	C 	0.232	0.5716	0.8378	0.003
Mof_C 	C 	0.1805	0.5271	0.8813	-0.019
Mof_C 	C 	0.1578	0.5102	0.9	0.052
Mof_C 	C 	0.2598	0.5874	0.8255	-0.001
Mof_O 	O 	0.1012	0.4759	0.9332	-0.357
Mof_C 	C 	0.1114	0.5053	0.937	0.097
Mof_C 	C 	0.1319	0.5249	0.921	-0.08
Mof_C 	C 	0.2471	0.6135	0.8072	0
Mof_C 	C 	0.2905	0.5776	0.8431	0.001
Mof_C 	C 	0.2029	0.6481	0.7689	-0
Mof_C 	C 	0.3195	0.5756	0.8728	0.002
Mof_C 	C 	0.30506	0.14269	0.33185	-0
Mof_C 	C 	0.27516	0.11618	0.33887	0.001
Mof_C 	C 	0.1852	0.063	0.385	0.008
Mof_C 	C 	0.216	0.0815	0.3671	-0.003
Mof_C 	C 	0.232	0.0716	0.3378	0.001
Mof_C 	C 	0.1805	0.0271	0.3813	-0.018
Mof_C 	C 	0.1578	0.0102	0.4	0.042
Mof_C 	C 	0.2598	0.0874	0.3255	-0.001
Mof_O 	O 	0.1012	0.9759	0.4332	-0.344
Mof_C 	C 	0.1114	0.0053	0.437	0.076
Mof_C 	C 	0.1319	0.0249	0.421	-0.07
Mof_C 	C 	0.2471	0.1135	0.3072	0
Mof_C 	C 	0.2905	0.0776	0.3431	-0
Mof_C 	C 	0.2029	0.1481	0.2689	0
Mof_C 	C 	0.3195	0.0756	0.3728	-0.001
Mof_C 	C 	0.19494	0.64269	0.66815	-0
Mof_C 	C 	0.22484	0.61618	0.66113	0.001
Mof_C 	C 	0.3148	0.563	0.615	0.009
Mof_C 	C 	0.284	0.5815	0.6329	-0.003
Mof_C 	C 	0.268	0.5716	0.6622	0.003
Mof_C 	C 	0.3195	0.5271	0.6187	-0.019
Mof_C 	C 	0.3422	0.5102	0.6	0.05
Mof_C 	C 	0.2402	0.5874	0.6745	-0.001
Mof_O 	O 	0.3988	0.4759	0.5668	-0.357
Mof_C 	C 	0.3886	0.5053	0.563	0.094
Mof_C 	C 	0.3681	0.5249	0.579	-0.079
Mof_C 	C 	0.2529	0.6135	0.6928	0
Mof_C 	C 	0.2095	0.5776	0.6569	0.001
Mof_C 	C 	0.2971	0.6481	0.7311	-0
Mof_C 	C 	0.1805	0.5756	0.6272	-0
Mof_C 	C 	0.19494	0.14269	0.16815	-0
Mof_C 	C 	0.22484	0.11618	0.16113	0.001
Mof_C 	C 	0.3148	0.063	0.115	0.007
Mof_C 	C 	0.284	0.0815	0.1329	-0.003
Mof_C 	C 	0.268	0.0716	0.1622	0.001
Mof_C 	C 	0.3195	0.0271	0.1187	-0.018
Mof_C 	C 	0.3422	0.0102	0.1	0.041
Mof_C 	C 	0.2402	0.0874	0.1745	-0.001
Mof_O 	O 	0.3988	0.9759	0.0668	-0.344
Mof_C 	C 	0.3886	0.0053	0.063	0.074
Mof_C 	C 	0.3681	0.0249	0.079	-0.069
Mof_C 	C 	0.2529	0.1135	0.1928	0
Mof_C 	C 	0.2095	0.0776	0.1569	-0
Mof_C 	C 	0.2971	0.1481	0.2311	0
Mof_C 	C 	0.1805	0.0756	0.1272	-0.003
Mof_C 	C 	0.69494	0.64269	0.16815	-0
Mof_C 	C 	0.72484	0.61618	0.16113	0.001
Mof_C 	C 	0.8148	0.563	0.115	0.008
Mof_C 	C 	0.784	0.5815	0.1329	-0.003
Mof_C 	C 	0.768	0.5716	0.1622	0.003
Mof_C 	C 	0.8195	0.5271	0.1187	-0.019
Mof_C 	C 	0.8422	0.5102	0.1	0.048
Mof_C 	C 	0.7402	0.5874	0.1745	-0.001
Mof_O 	O 	0.8988	0.4759	0.0668	-0.357
Mof_C 	C 	0.8886	0.5053	0.063	0.092
Mof_C 	C 	0.8681	0.5249	0.079	-0.078
Mof_C 	C 	0.7529	0.6135	0.1928	0
Mof_C 	C 	0.7095	0.5776	0.1569	0
Mof_C 	C 	0.7971	0.6481	0.2311	-0
Mof_C 	C 	0.6805	0.5756	0.1272	-0.001
Mof_C 	C 	0.69494	0.14269	0.66815	-0
Mof_C 	C 	0.72484	0.11618	0.66113	0.001
Mof_C 	C 	0.8148	0.063	0.615	0.008
Mof_C 	C 	0.784	0.0815	0.6329	-0.003
Mof_C 	C 	0.768	0.0716	0.6622	0.002
Mof_C 	C 	0.8195	0.0271	0.6187	-0.017
Mof_C 	C 	0.8422	0.0102	0.6	0.043
Mof_C 	C 	0.7402	0.0874	0.6745	-0.001
Mof_O 	O 	0.8988	0.9759	0.5668	-0.343
Mof_C 	C 	0.8886	0.0053	0.563	0.076
Mof_C 	C 	0.8681	0.0249	0.579	-0.07
Mof_C 	C 	0.7529	0.1135	0.6928	0
Mof_C 	C 	0.7095	0.0776	0.6569	0
Mof_C 	C 	0.7971	0.1481	0.7311	-0
Mof_C 	C 	0.6805	0.0756	0.6272	-0.001
Mof_C 	C 	0.80506	0.35731	0.66815	-0
Mof_C 	C 	0.77516	0.38382	0.66113	0
Mof_C 	C 	0.6852	0.437	0.615	0.009
Mof_C 	C 	0.716	0.4185	0.6329	-0.003
Mof_C 	C 	0.732	0.4284	0.6622	0.003
Mof_C 	C 	0.6805	0.4729	0.6187	-0.018
Mof_C 	C 	0.6578	0.4898	0.6	0.05
Mof_C 	C 	0.7598	0.4126	0.6745	-0.001
Mof_O 	O 	0.6012	0.5241	0.5668	-0.357
Mof_C 	C 	0.6114	0.4947	0.563	0.094
Mof_C 	C 	0.6319	0.4751	0.579	-0.079
Mof_C 	C 	0.7471	0.3865	0.6928	0
Mof_C 	C 	0.7905	0.4224	0.6569	0.001
Mof_C 	C 	0.7029	0.3519	0.7311	-0
Mof_C 	C 	0.8195	0.4244	0.6272	0.001
Mof_C 	C 	0.80506	0.85731	0.16815	-0
Mof_C 	C 	0.77516	0.88382	0.16113	0
Mof_C 	C 	0.6852	0.937	0.115	0.01
Mof_C 	C 	0.716	0.9185	0.1329	-0.004
Mof_C 	C 	0.732	0.9284	0.1622	0.004
Mof_C 	C 	0.6805	0.9729	0.1187	-0.019
Mof_C 	C 	0.6578	0.9898	0.1	0.056
Mof_C 	C 	0.7598	0.9126	0.1745	-0.002
Mof_O 	O 	0.6012	0.0241	0.0668	-0.37
Mof_C 	C 	0.6114	0.9947	0.063	0.112
Mof_C 	C 	0.6319	0.9751	0.079	-0.087
Mof_C 	C 	0.7471	0.8865	0.1928	0.001
Mof_C 	C 	0.7905	0.9224	0.1569	0.001
Mof_C 	C 	0.7029	0.8519	0.2311	-0
Mof_C 	C 	0.8195	0.9244	0.1272	0.002
Mof_C 	C 	0.30506	0.35731	0.16815	-0
Mof_C 	C 	0.27516	0.38382	0.16113	0.001
Mof_C 	C 	0.1852	0.437	0.115	0.008
Mof_C 	C 	0.216	0.4185	0.1329	-0.003
Mof_C 	C 	0.232	0.4284	0.1622	0.002
Mof_C 	C 	0.1805	0.4729	0.1187	-0.019
Mof_C 	C 	0.1578	0.4898	0.1	0.048
Mof_C 	C 	0.2598	0.4126	0.1745	-0.001
Mof_O 	O 	0.1012	0.5241	0.0668	-0.357
Mof_C 	C 	0.1114	0.4947	0.063	0.092
Mof_C 	C 	0.1319	0.4751	0.079	-0.077
Mof_C 	C 	0.2471	0.3865	0.1928	0
Mof_C 	C 	0.2905	0.4224	0.1569	0
Mof_C 	C 	0.2029	0.3519	0.2311	-0
Mof_C 	C 	0.3195	0.4244	0.1272	-0.001
Mof_C 	C 	0.30506	0.85731	0.66815	-0
Mof_C 	C 	0.27516	0.88382	0.66113	0
Mof_C 	C 	0.1852	0.937	0.615	0.01
Mof_C 	C 	0.216	0.9185	0.6329	-0.004
Mof_C 	C 	0.232	0.9284	0.6622	0.004
Mof_C 	C 	0.1805	0.9729	0.6187	-0.019
Mof_C 	C 	0.1578	0.9898	0.6	0.057
Mof_C 	C 	0.2598	0.9126	0.6745	-0.002
Mof_O 	O 	0.1012	0.0241	0.5668	-0.37
Mof_C 	C 	0.1114	0.9947	0.563	0.114
Mof_C 	C 	0.1319	0.9751	0.579	-0.088
Mof_C 	C 	0.2471	0.8865	0.6928	0.001
Mof_C 	C 	0.2905	0.9224	0.6569	0.001
Mof_C 	C 	0.2029	0.8519	0.7311	-0
Mof_C 	C 	0.3195	0.9244	0.6272	0.002
Mof_C 	C 	0.35731	0.33185	0.19494	-0
Mof_C 	C 	0.38382	0.33887	0.22484	0.001
Mof_C 	C 	0.437	0.385	0.3148	0.009
Mof_C 	C 	0.4185	0.3671	0.284	-0.003
Mof_C 	C 	0.4284	0.3378	0.268	0.003
Mof_C 	C 	0.4729	0.3813	0.3195	-0.019
Mof_C 	C 	0.4898	0.4	0.3422	0.05
Mof_C 	C 	0.4126	0.3255	0.2402	-0.001
Mof_O 	O 	0.5241	0.4332	0.3988	-0.357
Mof_C 	C 	0.4947	0.437	0.3886	0.094
Mof_C 	C 	0.4751	0.421	0.3681	-0.079
Mof_C 	C 	0.3865	0.3072	0.2529	0
Mof_C 	C 	0.4224	0.3431	0.2095	0.001
Mof_C 	C 	0.3519	0.2689	0.2971	-0
Mof_C 	C 	0.4244	0.3728	0.1805	-0
Mof_C 	C 	0.35731	0.83185	0.69494	-0
Mof_C 	C 	0.38382	0.83887	0.72484	0.001
Mof_C 	C 	0.437	0.885	0.8148	0.01
Mof_C 	C 	0.4185	0.8671	0.784	-0.004
Mof_C 	C 	0.4284	0.8378	0.768	0.004
Mof_C 	C 	0.4729	0.8813	0.8195	-0.018
Mof_C 	C 	0.4898	0.9	0.8422	0.052
Mof_C 	C 	0.4126	0.8255	0.7402	-0.001
Mof_O 	O 	0.5241	0.9332	0.8988	-0.356
Mof_C 	C 	0.4947	0.937	0.8886	0.097
Mof_C 	C 	0.4751	0.921	0.8681	-0.081
Mof_C 	C 	0.3865	0.8072	0.7529	0
Mof_C 	C 	0.4224	0.8431	0.7095	0.001
Mof_C 	C 	0.3519	0.7689	0.7971	-0
Mof_C 	C 	0.4244	0.8728	0.6805	0.002
Mof_C 	C 	0.85731	0.33185	0.69494	-0
Mof_C 	C 	0.88382	0.33887	0.72484	0
Mof_C 	C 	0.937	0.385	0.8148	0.01
Mof_C 	C 	0.9185	0.3671	0.784	-0.004
Mof_C 	C 	0.9284	0.3378	0.768	0.004
Mof_C 	C 	0.9729	0.3813	0.8195	-0.019
Mof_C 	C 	0.9898	0.4	0.8422	0.058
Mof_C 	C 	0.9126	0.3255	0.7402	-0.002
Mof_O 	O 	0.0241	0.4332	0.8988	-0.37
Mof_C 	C 	0.9947	0.437	0.8886	0.114
Mof_C 	C 	0.9751	0.421	0.8681	-0.088
Mof_C 	C 	0.8865	0.3072	0.7529	0.001
Mof_C 	C 	0.9224	0.3431	0.7095	0.001
Mof_C 	C 	0.8519	0.2689	0.7971	-0
Mof_C 	C 	0.9244	0.3728	0.6805	0.002
Mof_C 	C 	0.85731	0.83185	0.19494	-0
Mof_C 	C 	0.88382	0.83887	0.22484	0
Mof_C 	C 	0.937	0.885	0.3148	0.011
Mof_C 	C 	0.9185	0.8671	0.284	-0.004
Mof_C 	C 	0.9284	0.8378	0.268	0.005
Mof_C 	C 	0.9729	0.8813	0.3195	-0.019
Mof_C 	C 	0.9898	0.9	0.3422	0.059
Mof_C 	C 	0.9126	0.8255	0.2402	-0.002
Mof_O 	O 	0.0241	0.9332	0.3988	-0.37
Mof_C 	C 	0.9947	0.937	0.3886	0.116
Mof_C 	C 	0.9751	0.921	0.3681	-0.09
Mof_C 	C 	0.8865	0.8072	0.2529	0.001
Mof_C 	C 	0.9224	0.8431	0.2095	0.002
Mof_C 	C 	0.8519	0.7689	0.2971	-0
Mof_C 	C 	0.9244	0.8728	0.1805	0.003
Mof_C 	C 	0.64269	0.33185	0.80506	-0
Mof_C 	C 	0.61618	0.33887	0.77516	0.001
Mof_C 	C 	0.563	0.385	0.6852	0.009
Mof_C 	C 	0.5815	0.3671	0.716	-0.003
Mof_C 	C 	0.5716	0.3378	0.732	0.003
Mof_C 	C 	0.5271	0.3813	0.6805	-0.018
Mof_C 	C 	0.5102	0.4	0.6578	0.05
Mof_C 	C 	0.5874	0.3255	0.7598	-0.001
Mof_O 	O 	0.4759	0.4332	0.6012	-0.357
Mof_C 	C 	0.5053	0.437	0.6114	0.094
Mof_C 	C 	0.5249	0.421	0.6319	-0.079
Mof_C 	C 	0.6135	0.3072	0.7471	0
Mof_C 	C 	0.5776	0.3431	0.7905	0.001
Mof_C 	C 	0.6481	0.2689	0.7029	-0
Mof_C 	C 	0.5756	0.3728	0.8195	0.001
Mof_C 	C 	0.64269	0.83185	0.30506	-0
Mof_C 	C 	0.61618	0.83887	0.27516	0.001
Mof_C 	C 	0.563	0.885	0.1852	0.01
Mof_C 	C 	0.5815	0.8671	0.216	-0.004
Mof_C 	C 	0.5716	0.8378	0.232	0.003
Mof_C 	C 	0.5271	0.8813	0.1805	-0.019
Mof_C 	C 	0.5102	0.9	0.1578	0.052
Mof_C 	C 	0.5874	0.8255	0.2598	-0.001
Mof_O 	O 	0.4759	0.9332	0.1012	-0.357
Mof_C 	C 	0.5053	0.937	0.1114	0.097
Mof_C 	C 	0.5249	0.921	0.1319	-0.08
Mof_C 	C 	0.6135	0.8072	0.2471	0
Mof_C 	C 	0.5776	0.8431	0.2905	0.001
Mof_C 	C 	0.6481	0.7689	0.2029	-0
Mof_C 	C 	0.5756	0.8728	0.3195	0.002
Mof_C 	C 	0.14269	0.33185	0.30506	-0
Mof_C 	C 	0.11618	0.33887	0.27516	0.001
Mof_C 	C 	0.063	0.385	0.1852	0.008
Mof_C 	C 	0.0815	0.3671	0.216	-0.003
Mof_C 	C 	0.0716	0.3378	0.232	0.001
Mof_C 	C 	0.0271	0.3813	0.1805	-0.018
Mof_C 	C 	0.0102	0.4	0.1578	0.042
Mof_C 	C 	0.0874	0.3255	0.2598	-0.001
Mof_O 	O 	0.9759	0.4332	0.1012	-0.344
Mof_C 	C 	0.0053	0.437	0.1114	0.076
Mof_C 	C 	0.0249	0.421	0.1319	-0.07
Mof_C 	C 	0.1135	0.3072	0.2471	0
Mof_C 	C 	0.0776	0.3431	0.2905	-0
Mof_C 	C 	0.1481	0.2689	0.2029	0
Mof_C 	C 	0.0756	0.3728	0.3195	-0.001
Mof_C 	C 	0.14269	0.83185	0.80506	-0
Mof_C 	C 	0.11618	0.83887	0.77516	0.001
Mof_C 	C 	0.063	0.885	0.6852	0.008
Mof_C 	C 	0.0815	0.8671	0.716	-0.003
Mof_C 	C 	0.0716	0.8378	0.732	0.002
Mof_C 	C 	0.0271	0.8813	0.6805	-0.017
Mof_C 	C 	0.0102	0.9	0.6578	0.045
Mof_C 	C 	0.0874	0.8255	0.7598	-0.001
Mof_O 	O 	0.9759	0.9332	0.6012	-0.343
Mof_C 	C 	0.0053	0.937	0.6114	0.079
Mof_C 	C 	0.0249	0.921	0.6319	-0.072
Mof_C 	C 	0.1135	0.8072	0.7471	0
Mof_C 	C 	0.0776	0.8431	0.7905	0
Mof_C 	C 	0.1481	0.7689	0.7029	-0
Mof_C 	C 	0.0756	0.8728	0.8195	0.001
Mof_C 	C 	0.64269	0.66815	0.19494	-0
Mof_C 	C 	0.61618	0.66113	0.22484	0.001
Mof_C 	C 	0.563	0.615	0.3148	0.009
Mof_C 	C 	0.5815	0.6329	0.284	-0.003
Mof_C 	C 	0.5716	0.6622	0.268	0.003
Mof_C 	C 	0.5271	0.6187	0.3195	-0.019
Mof_C 	C 	0.5102	0.6	0.3422	0.05
Mof_C 	C 	0.5874	0.6745	0.2402	-0.001
Mof_O 	O 	0.4759	0.5668	0.3988	-0.357
Mof_C 	C 	0.5053	0.563	0.3886	0.094
Mof_C 	C 	0.5249	0.579	0.3681	-0.079
Mof_C 	C 	0.6135	0.6928	0.2529	0
Mof_C 	C 	0.5776	0.6569	0.2095	0.001
Mof_C 	C 	0.6481	0.7311	0.2971	-0
Mof_C 	C 	0.5756	0.6272	0.1805	-0
Mof_C 	C 	0.64269	0.16815	0.69494	-0
Mof_C 	C 	0.61618	0.16113	0.72484	0.001
Mof_C 	C 	0.563	0.115	0.8148	0.008
Mof_C 	C 	0.5815	0.1329	0.784	-0.003
Mof_C 	C 	0.5716	0.1622	0.768	0.003
Mof_C 	C 	0.5271	0.1187	0.8195	-0.019
Mof_C 	C 	0.5102	0.1	0.8422	0.048
Mof_C 	C 	0.5874	0.1745	0.7402	-0.001
Mof_O 	O 	0.4759	0.0668	0.8988	-0.357
Mof_C 	C 	0.5053	0.063	0.8886	0.092
Mof_C 	C 	0.5249	0.079	0.8681	-0.078
Mof_C 	C 	0.6135	0.1928	0.7529	0
Mof_C 	C 	0.5776	0.1569	0.7095	0
Mof_C 	C 	0.6481	0.2311	0.7971	-0
Mof_C 	C 	0.5756	0.1272	0.6805	-0.001
Mof_C 	C 	0.14269	0.66815	0.69494	-0
Mof_C 	C 	0.11618	0.66113	0.72484	0.001
Mof_C 	C 	0.063	0.615	0.8148	0.008
Mof_C 	C 	0.0815	0.6329	0.784	-0.003
Mof_C 	C 	0.0716	0.6622	0.768	0.002
Mof_C 	C 	0.0271	0.6187	0.8195	-0.017
Mof_C 	C 	0.0102	0.6	0.8422	0.043
Mof_C 	C 	0.0874	0.6745	0.7402	-0.001
Mof_O 	O 	0.9759	0.5668	0.8988	-0.343
Mof_C 	C 	0.0053	0.563	0.8886	0.076
Mof_C 	C 	0.0249	0.579	0.8681	-0.07
Mof_C 	C 	0.1135	0.6928	0.7529	0
Mof_C 	C 	0.0776	0.6569	0.7095	0
Mof_C 	C 	0.1481	0.7311	0.7971	-0
Mof_C 	C 	0.0756	0.6272	0.6805	-0.001
Mof_C 	C 	0.14269	0.16815	0.19494	-0
Mof_C 	C 	0.11618	0.16113	0.22484	0.001
Mof_C 	C 	0.063	0.115	0.3148	0.007
Mof_C 	C 	0.0815	0.1329	0.284	-0.003
Mof_C 	C 	0.0716	0.1622	0.268	0.001
Mof_C 	C 	0.0271	0.1187	0.3195	-0.018
Mof_C 	C 	0.0102	0.1	0.3422	0.041
Mof_C 	C 	0.0874	0.1745	0.2402	-0.001
Mof_O 	O 	0.9759	0.0668	0.3988	-0.344
Mof_C 	C 	0.0053	0.063	0.3886	0.074
Mof_C 	C 	0.0249	0.079	0.3681	-0.069
Mof_C 	C 	0.1135	0.1928	0.2529	0
Mof_C 	C 	0.0776	0.1569	0.2095	-0
Mof_C 	C 	0.1481	0.2311	0.2971	0
Mof_C 	C 	0.0756	0.1272	0.1805	-0.003
Mof_C 	C 	0.35731	0.66815	0.80506	-0
Mof_C 	C 	0.38382	0.66113	0.77516	0
Mof_C 	C 	0.437	0.615	0.6852	0.009
Mof_C 	C 	0.4185	0.6329	0.716	-0.003
Mof_C 	C 	0.4284	0.6622	0.732	0.003
Mof_C 	C 	0.4729	0.6187	0.6805	-0.018
Mof_C 	C 	0.4898	0.6	0.6578	0.05
Mof_C 	C 	0.4126	0.6745	0.7598	-0.001
Mof_O 	O 	0.5241	0.5668	0.6012	-0.357
Mof_C 	C 	0.4947	0.563	0.6114	0.094
Mof_C 	C 	0.4751	0.579	0.6319	-0.079
Mof_C 	C 	0.3865	0.6928	0.7471	0
Mof_C 	C 	0.4224	0.6569	0.7905	0.001
Mof_C 	C 	0.3519	0.7311	0.7029	-0
Mof_C 	C 	0.4244	0.6272	0.8195	0.001
Mof_C 	C 	0.35731	0.16815	0.30506	-0
Mof_C 	C 	0.38382	0.16113	0.27516	0.001
Mof_C 	C 	0.437	0.115	0.1852	0.008
Mof_C 	C 	0.4185	0.1329	0.216	-0.003
Mof_C 	C 	0.4284	0.1622	0.232	0.002
Mof_C 	C 	0.4729	0.1187	0.1805	-0.019
Mof_C 	C 	0.4898	0.1	0.1578	0.048
Mof_C 	C 	0.4126	0.1745	0.2598	-0.001
Mof_O 	O 	0.5241	0.0668	0.1012	-0.357
Mof_C 	C 	0.4947	0.063	0.1114	0.092
Mof_C 	C 	0.4751	0.079	0.1319	-0.077
Mof_C 	C 	0.3865	0.1928	0.2471	0
Mof_C 	C 	0.4224	0.1569	0.2905	0
Mof_C 	C 	0.3519	0.2311	0.2029	-0
Mof_C 	C 	0.4244	0.1272	0.3195	-0.001
Mof_C 	C 	0.85731	0.66815	0.30506	-0
Mof_C 	C 	0.88382	0.66113	0.27516	0
Mof_C 	C 	0.937	0.615	0.1852	0.01
Mof_C 	C 	0.9185	0.6329	0.216	-0.004
Mof_C 	C 	0.9284	0.6622	0.232	0.004
Mof_C 	C 	0.9729	0.6187	0.1805	-0.019
Mof_C 	C 	0.9898	0.6	0.1578	0.057
Mof_C 	C 	0.9126	0.6745	0.2598	-0.002
Mof_O 	O 	0.0241	0.5668	0.1012	-0.37
Mof_C 	C 	0.9947	0.563	0.1114	0.114
Mof_C 	C 	0.9751	0.579	0.1319	-0.088
Mof_C 	C 	0.8865	0.6928	0.2471	0.001
Mof_C 	C 	0.9224	0.6569	0.2905	0.001
Mof_C 	C 	0.8519	0.7311	0.2029	-0
Mof_C 	C 	0.9244	0.6272	0.3195	0.002
Mof_C 	C 	0.85731	0.16815	0.80506	-0
Mof_C 	C 	0.88382	0.16113	0.77516	0
Mof_C 	C 	0.937	0.115	0.6852	0.01
Mof_C 	C 	0.9185	0.1329	0.716	-0.004
Mof_C 	C 	0.9284	0.1622	0.732	0.004
Mof_C 	C 	0.9729	0.1187	0.6805	-0.019
Mof_C 	C 	0.9898	0.1	0.6578	0.056
Mof_C 	C 	0.9126	0.1745	0.7598	-0.002
Mof_O 	O 	0.0241	0.0668	0.6012	-0.37
Mof_C 	C 	0.9947	0.063	0.6114	0.112
Mof_C 	C 	0.9751	0.079	0.6319	-0.087
Mof_C 	C 	0.8865	0.1928	0.7471	0.001
Mof_C 	C 	0.9224	0.1569	0.7905	0.001
Mof_C 	C 	0.8519	0.2311	0.7029	-0
Mof_C 	C 	0.9244	0.1272	0.8195	0.002
Mof_C 	C 	0.33185	0.19494	0.35731	-0
Mof_C 	C 	0.33887	0.22484	0.38382	0.001
Mof_C 	C 	0.385	0.3148	0.437	0.009
Mof_C 	C 	0.3671	0.284	0.4185	-0.003
Mof_C 	C 	0.3378	0.268	0.4284	0.003
Mof_C 	C 	0.3813	0.3195	0.4729	-0.019
Mof_C 	C 	0.4	0.3422	0.4898	0.05
Mof_C 	C 	0.3255	0.2402	0.4126	-0.001
Mof_O 	O 	0.4332	0.3988	0.5241	-0.357
Mof_C 	C 	0.437	0.3886	0.4947	0.094
Mof_C 	C 	0.421	0.3681	0.4751	-0.079
Mof_C 	C 	0.3072	0.2529	0.3865	0
Mof_C 	C 	0.3431	0.2095	0.4224	0.001
Mof_C 	C 	0.2689	0.2971	0.3519	-0
Mof_C 	C 	0.3728	0.1805	0.4244	-0
Mof_C 	C 	0.33185	0.69494	0.85731	-0
Mof_C 	C 	0.33887	0.72484	0.88382	0
Mof_C 	C 	0.385	0.8148	0.937	0.01
Mof_C 	C 	0.3671	0.784	0.9185	-0.004
Mof_C 	C 	0.3378	0.768	0.9284	0.004
Mof_C 	C 	0.3813	0.8195	0.9729	-0.019
Mof_C 	C 	0.4	0.8422	0.9898	0.058
Mof_C 	C 	0.3255	0.7402	0.9126	-0.002
Mof_O 	O 	0.4332	0.8988	0.0241	-0.37
Mof_C 	C 	0.437	0.8886	0.9947	0.114
Mof_C 	C 	0.421	0.8681	0.9751	-0.088
Mof_C 	C 	0.3072	0.7529	0.8865	0.001
Mof_C 	C 	0.3431	0.7095	0.9224	0.001
Mof_C 	C 	0.2689	0.7971	0.8519	-0
Mof_C 	C 	0.3728	0.6805	0.9244	0.002
Mof_C 	C 	0.83185	0.19494	0.85731	-0
Mof_C 	C 	0.83887	0.22484	0.88382	0
Mof_C 	C 	0.885	0.3148	0.937	0.011
Mof_C 	C 	0.8671	0.284	0.9185	-0.004
Mof_C 	C 	0.8378	0.268	0.9284	0.005
Mof_C 	C 	0.8813	0.3195	0.9729	-0.019
Mof_C 	C 	0.9	0.3422	0.9898	0.059
Mof_C 	C 	0.8255	0.2402	0.9126	-0.002
Mof_O 	O 	0.9332	0.3988	0.0241	-0.37
Mof_C 	C 	0.937	0.3886	0.9947	0.116
Mof_C 	C 	0.921	0.3681	0.9751	-0.09
Mof_C 	C 	0.8072	0.2529	0.8865	0.001
Mof_C 	C 	0.8431	0.2095	0.9224	0.002
Mof_C 	C 	0.7689	0.2971	0.8519	-0
Mof_C 	C 	0.8728	0.1805	0.9244	0.003
Mof_C 	C 	0.83185	0.69494	0.35731	-0
Mof_C 	C 	0.83887	0.72484	0.38382	0.001
Mof_C 	C 	0.885	0.8148	0.437	0.01
Mof_C 	C 	0.8671	0.784	0.4185	-0.004
Mof_C 	C 	0.8378	0.768	0.4284	0.004
Mof_C 	C 	0.8813	0.8195	0.4729	-0.018
Mof_C 	C 	0.9	0.8422	0.4898	0.052
Mof_C 	C 	0.8255	0.7402	0.4126	-0.001
Mof_O 	O 	0.9332	0.8988	0.5241	-0.356
Mof_C 	C 	0.937	0.8886	0.4947	0.097
Mof_C 	C 	0.921	0.8681	0.4751	-0.081
Mof_C 	C 	0.8072	0.7529	0.3865	0
Mof_C 	C 	0.8431	0.7095	0.4224	0.001
Mof_C 	C 	0.7689	0.7971	0.3519	-0
Mof_C 	C 	0.8728	0.6805	0.4244	0.002
Mof_C 	C 	0.33185	0.80506	0.64269	-0
Mof_C 	C 	0.33887	0.77516	0.61618	0.001
Mof_C 	C 	0.385	0.6852	0.563	0.009
Mof_C 	C 	0.3671	0.716	0.5815	-0.003
Mof_C 	C 	0.3378	0.732	0.5716	0.003
Mof_C 	C 	0.3813	0.6805	0.5271	-0.018
Mof_C 	C 	0.4	0.6578	0.5102	0.05
Mof_C 	C 	0.3255	0.7598	0.5874	-0.001
Mof_O 	O 	0.4332	0.6012	0.4759	-0.357
Mof_C 	C 	0.437	0.6114	0.5053	0.094
Mof_C 	C 	0.421	0.6319	0.5249	-0.079
Mof_C 	C 	0.3072	0.7471	0.6135	0
Mof_C 	C 	0.3431	0.7905	0.5776	0.001
Mof_C 	C 	0.2689	0.7029	0.6481	-0
Mof_C 	C 	0.3728	0.8195	0.5756	0.001
Mof_C 	C 	0.33185	0.30506	0.14269	-0
Mof_C 	C 	0.33887	0.27516	0.11618	0.001
Mof_C 	C 	0.385	0.1852	0.063	0.008
Mof_C 	C 	0.3671	0.216	0.0815	-0.003
Mof_C 	C 	0.3378	0.232	0.0716	0.001
Mof_C 	C 	0.3813	0.1805	0.0271	-0.018
Mof_C 	C 	0.4	0.1578	0.0102	0.042
Mof_C 	C 	0.3255	0.2598	0.0874	-0.001
Mof_O 	O 	0.4332	0.1012	0.9759	-0.344
Mof_C 	C 	0.437	0.1114	0.0053	0.076
Mof_C 	C 	0.421	0.1319	0.0249	-0.07
Mof_C 	C 	0.3072	0.2471	0.1135	0
Mof_C 	C 	0.3431	0.2905	0.0776	-0
Mof_C 	C 	0.2689	0.2029	0.1481	0
Mof_C 	C 	0.3728	0.3195	0.0756	-0.001
Mof_C 	C 	0.83185	0.80506	0.14269	-0
Mof_C 	C 	0.83887	0.77516	0.11618	0.001
Mof_C 	C 	0.885	0.6852	0.063	0.008
Mof_C 	C 	0.8671	0.716	0.0815	-0.003
Mof_C 	C 	0.8378	0.732	0.0716	0.002
Mof_C 	C 	0.8813	0.6805	0.0271	-0.017
Mof_C 	C 	0.9	0.6578	0.0102	0.045
Mof_C 	C 	0.8255	0.7598	0.0874	-0.001
Mof_O 	O 	0.9332	0.6012	0.9759	-0.343
Mof_C 	C 	0.937	0.6114	0.0053	0.079
Mof_C 	C 	0.921	0.6319	0.0249	-0.072
Mof_C 	C 	0.8072	0.7471	0.1135	0
Mof_C 	C 	0.8431	0.7905	0.0776	0
Mof_C 	C 	0.7689	0.7029	0.1481	-0
Mof_C 	C 	0.8728	0.8195	0.0756	0.001
Mof_C 	C 	0.83185	0.30506	0.64269	-0
Mof_C 	C 	0.83887	0.27516	0.61618	0.001
Mof_C 	C 	0.885	0.1852	0.563	0.01
Mof_C 	C 	0.8671	0.216	0.5815	-0.004
Mof_C 	C 	0.8378	0.232	0.5716	0.003
Mof_C 	C 	0.8813	0.1805	0.5271	-0.019
Mof_C 	C 	0.9	0.1578	0.5102	0.052
Mof_C 	C 	0.8255	0.2598	0.5874	-0.001
Mof_O 	O 	0.9332	0.1012	0.4759	-0.357
Mof_C 	C 	0.937	0.1114	0.5053	0.097
Mof_C 	C 	0.921	0.1319	0.5249	-0.08
Mof_C 	C 	0.8072	0.2471	0.6135	0
Mof_C 	C 	0.8431	0.2905	0.5776	0.001
Mof_C 	C 	0.7689	0.2029	0.6481	-0
Mof_C 	C 	0.8728	0.3195	0.5756	0.002
Mof_C 	C 	0.66815	0.19494	0.64269	-0
Mof_C 	C 	0.66113	0.22484	0.61618	0.001
Mof_C 	C 	0.615	0.3148	0.563	0.009
Mof_C 	C 	0.6329	0.284	0.5815	-0.003
Mof_C 	C 	0.6622	0.268	0.5716	0.003
Mof_C 	C 	0.6187	0.3195	0.5271	-0.019
Mof_C 	C 	0.6	0.3422	0.5102	0.05
Mof_C 	C 	0.6745	0.2402	0.5874	-0.001
Mof_O 	O 	0.5668	0.3988	0.4759	-0.357
Mof_C 	C 	0.563	0.3886	0.5053	0.094
Mof_C 	C 	0.579	0.3681	0.5249	-0.079
Mof_C 	C 	0.6928	0.2529	0.6135	0
Mof_C 	C 	0.6569	0.2095	0.5776	0.001
Mof_C 	C 	0.7311	0.2971	0.6481	-0
Mof_C 	C 	0.6272	0.1805	0.5756	-0
Mof_C 	C 	0.66815	0.69494	0.14269	-0
Mof_C 	C 	0.66113	0.72484	0.11618	0.001
Mof_C 	C 	0.615	0.8148	0.063	0.008
Mof_C 	C 	0.6329	0.784	0.0815	-0.003
Mof_C 	C 	0.6622	0.768	0.0716	0.002
Mof_C 	C 	0.6187	0.8195	0.0271	-0.017
Mof_C 	C 	0.6	0.8422	0.0102	0.043
Mof_C 	C 	0.6745	0.7402	0.0874	-0.001
Mof_O 	O 	0.5668	0.8988	0.9759	-0.343
Mof_C 	C 	0.563	0.8886	0.0053	0.076
Mof_C 	C 	0.579	0.8681	0.0249	-0.07
Mof_C 	C 	0.6928	0.7529	0.1135	0
Mof_C 	C 	0.6569	0.7095	0.0776	0
Mof_C 	C 	0.7311	0.7971	0.1481	-0
Mof_C 	C 	0.6272	0.6805	0.0756	-0.001
Mof_C 	C 	0.16815	0.19494	0.14269	-0
Mof_C 	C 	0.16113	0.22484	0.11618	0.001
Mof_C 	C 	0.115	0.3148	0.063	0.007
Mof_C 	C 	0.1329	0.284	0.0815	-0.003
Mof_C 	C 	0.1622	0.268	0.0716	0.001
Mof_C 	C 	0.1187	0.3195	0.0271	-0.018
Mof_C 	C 	0.1	0.3422	0.0102	0.041
Mof_C 	C 	0.1745	0.2402	0.0874	-0.001
Mof_O 	O 	0.0668	0.3988	0.9759	-0.344
Mof_C 	C 	0.063	0.3886	0.0053	0.074
Mof_C 	C 	0.079	0.3681	0.0249	-0.069
Mof_C 	C 	0.1928	0.2529	0.1135	0
Mof_C 	C 	0.1569	0.2095	0.0776	-0
Mof_C 	C 	0.2311	0.2971	0.1481	0
Mof_C 	C 	0.1272	0.1805	0.0756	-0.003
Mof_C 	C 	0.16815	0.69494	0.64269	-0
Mof_C 	C 	0.16113	0.72484	0.61618	0.001
Mof_C 	C 	0.115	0.8148	0.563	0.008
Mof_C 	C 	0.1329	0.784	0.5815	-0.003
Mof_C 	C 	0.1622	0.768	0.5716	0.003
Mof_C 	C 	0.1187	0.8195	0.5271	-0.019
Mof_C 	C 	0.1	0.8422	0.5102	0.048
Mof_C 	C 	0.1745	0.7402	0.5874	-0.001
Mof_O 	O 	0.0668	0.8988	0.4759	-0.357
Mof_C 	C 	0.063	0.8886	0.5053	0.092
Mof_C 	C 	0.079	0.8681	0.5249	-0.078
Mof_C 	C 	0.1928	0.7529	0.6135	0
Mof_C 	C 	0.1569	0.7095	0.5776	0
Mof_C 	C 	0.2311	0.7971	0.6481	-0
Mof_C 	C 	0.1272	0.6805	0.5756	-0.001
Mof_C 	C 	0.66815	0.80506	0.35731	-0
Mof_C 	C 	0.66113	0.77516	0.38382	0
Mof_C 	C 	0.615	0.6852	0.437	0.009
Mof_C 	C 	0.6329	0.716	0.4185	-0.003
Mof_C 	C 	0.6622	0.732	0.4284	0.003
Mof_C 	C 	0.6187	0.6805	0.4729	-0.018
Mof_C 	C 	0.6	0.6578	0.4898	0.05
Mof_C 	C 	0.6745	0.7598	0.4126	-0.001
Mof_O 	O 	0.5668	0.6012	0.5241	-0.357
Mof_C 	C 	0.563	0.6114	0.4947	0.094
Mof_C 	C 	0.579	0.6319	0.4751	-0.079
Mof_C 	C 	0.6928	0.7471	0.3865	0
Mof_C 	C 	0.6569	0.7905	0.4224	0.001
Mof_C 	C 	0.7311	0.7029	0.3519	-0
Mof_C 	C 	0.6272	0.8195	0.4244	0.001
Mof_C 	C 	0.66815	0.30506	0.85731	-0
Mof_C 	C 	0.66113	0.27516	0.88382	0
Mof_C 	C 	0.615	0.1852	0.937	0.01
Mof_C 	C 	0.6329	0.216	0.9185	-0.004
Mof_C 	C 	0.6622	0.232	0.9284	0.004
Mof_C 	C 	0.6187	0.1805	0.9729	-0.019
Mof_C 	C 	0.6	0.1578	0.9898	0.057
Mof_C 	C 	0.6745	0.2598	0.9126	-0.002
Mof_O 	O 	0.5668	0.1012	0.0241	-0.37
Mof_C 	C 	0.563	0.1114	0.9947	0.114
Mof_C 	C 	0.579	0.1319	0.9751	-0.088
Mof_C 	C 	0.6928	0.2471	0.8865	0.001
Mof_C 	C 	0.6569	0.2905	0.9224	0.001
Mof_C 	C 	0.7311	0.2029	0.8519	-0
Mof_C 	C 	0.6272	0.3195	0.9244	0.002
Mof_C 	C 	0.16815	0.80506	0.85731	-0
Mof_C 	C 	0.16113	0.77516	0.88382	0
Mof_C 	C 	0.115	0.6852	0.937	0.01
Mof_C 	C 	0.1329	0.716	0.9185	-0.004
Mof_C 	C 	0.1622	0.732	0.9284	0.004
Mof_C 	C 	0.1187	0.6805	0.9729	-0.019
Mof_C 	C 	0.1	0.6578	0.9898	0.056
Mof_C 	C 	0.1745	0.7598	0.9126	-0.002
Mof_O 	O 	0.0668	0.6012	0.0241	-0.37
Mof_C 	C 	0.063	0.6114	0.9947	0.112
Mof_C 	C 	0.079	0.6319	0.9751	-0.087
Mof_C 	C 	0.1928	0.7471	0.8865	0.001
Mof_C 	C 	0.1569	0.7905	0.9224	0.001
Mof_C 	C 	0.2311	0.7029	0.8519	-0
Mof_C 	C 	0.1272	0.8195	0.9244	0.002
Mof_C 	C 	0.16815	0.30506	0.35731	-0
Mof_C 	C 	0.16113	0.27516	0.38382	0.001
Mof_C 	C 	0.115	0.1852	0.437	0.008
Mof_C 	C 	0.1329	0.216	0.4185	-0.003
Mof_C 	C 	0.1622	0.232	0.4284	0.002
Mof_C 	C 	0.1187	0.1805	0.4729	-0.019
Mof_C 	C 	0.1	0.1578	0.4898	0.048
Mof_C 	C 	0.1745	0.2598	0.4126	-0.001
Mof_O 	O 	0.0668	0.1012	0.5241	-0.357
Mof_C 	C 	0.063	0.1114	0.4947	0.092
Mof_C 	C 	0.079	0.1319	0.4751	-0.077
Mof_C 	C 	0.1928	0.2471	0.3865	0
Mof_C 	C 	0.1569	0.2905	0.4224	0
Mof_C 	C 	0.2311	0.2029	0.3519	-0
Mof_C 	C 	0.1272	0.3195	0.4244	-0.001
Mof_Zn	Zn	0.55983	0.44017	0.44017	1.237
Mof_O 	O 	0.5305	0.4695	0.4695	-1.064
Mof_Zn	Zn	0.55983	0.94017	0.94017	1.237
Mof_O 	O 	0.5305	0.9695	0.9695	-1.054
Mof_Zn	Zn	0.05983	0.44017	0.94017	1.237
Mof_O 	O 	0.0305	0.4695	0.9695	-1.061
Mof_Zn	Zn	0.05983	0.94017	0.44017	1.237
Mof_O 	O 	0.0305	0.9695	0.4695	-1.061
Mof_Zn	Zn	0.44017	0.55983	0.44017	1.237
Mof_O 	O 	0.4695	0.5305	0.4695	-1.064
Mof_Zn	Zn	0.44017	0.05983	0.94017	1.237
Mof_O 	O 	0.4695	0.0305	0.9695	-1.061
Mof_Zn	Zn	0.94017	0.55983	0.94017	1.237
Mof_O 	O 	0.9695	0.5305	0.9695	-1.054
Mof_Zn	Zn	0.94017	0.05983	0.44017	1.237
Mof_O 	O 	0.9695	0.0305	0.4695	-1.061
Mof_Zn	Zn	0.44017	0.44017	0.55983	1.237
Mof_O 	O 	0.4695	0.4695	0.5305	-1.064
Mof_Zn	Zn	0.44017	0.94017	0.05983	1.237
Mof_O 	O 	0.4695	0.9695	0.0305	-1.061
Mof_Zn	Zn	0.94017	0.44017	0.05983	1.237
Mof_O 	O 	0.9695	0.4695	0.0305	-1.061
Mof_Zn	Zn	0.94017	0.94017	0.55983	1.237
Mof_O 	O 	0.9695	0.9695	0.5305	-1.054
Mof_Zn	Zn	0.55983	0.55983	0.55983	1.237
Mof_O 	O 	0.5305	0.5305	0.5305	-1.064
Mof_Zn	Zn	0.55983	0.05983	0.05983	1.238
Mof_O 	O 	0.5305	0.0305	0.0305	-1.069
Mof_Zn	Zn	0.05983	0.55983	0.05983	1.238
Mof_O 	O 	0.0305	0.5305	0.0305	-1.069
Mof_Zn	Zn	0.05983	0.05983	0.55983	1.238
Mof_O 	O 	0.0305	0.0305	0.5305	-1.069
Mof_Zn	Zn	0.55937	0.5	0.5	1.095
Mof_Zn	Zn	0.55937	0	-0	1.089
Mof_Zn	Zn	0.05937	0.5	-0	1.092
Mof_Zn	Zn	0.05937	0	0.5	1.092
Mof_Zn	Zn	0.44063	0.5	0.5	1.095
Mof_Zn	Zn	0.44063	0	-0	1.089
Mof_Zn	Zn	0.94063	0.5	-0	1.093
Mof_Zn	Zn	0.94063	0	0.5	1.093
Mof_Zn	Zn	0.5	0.55937	0.5	1.095
Mof_Zn	Zn	0.5	0.05937	-0	1.092
Mof_Zn	Zn	-0	0.55937	-0	1.089
Mof_Zn	Zn	-1.88643e-33	0.05937	0.5	1.092
Mof_Zn	Zn	0.5	0.44063	0.5	1.095
Mof_Zn	Zn	0.5	0.94063	-0	1.093
Mof_Zn	Zn	3.76113e-33	0.44063	-0	1.089
Mof_Zn	Zn	1.8747e-33	0.94063	0.5	1.093
Mof_Zn	Zn	0.5	0.5	0.55937	1.095
Mof_Zn	Zn	0.5	4.70141e-34	0.05937	1.092
Mof_Zn	Zn	-1.18782e-33	0.5	0.05937	1.092
Mof_Zn	Zn	2.0973e-33	0	0.55937	1.089
Mof_Zn	Zn	0.5	0.5	0.44063	1.095
Mof_Zn	Zn	0.5	7.52226e-33	0.94063	1.093
Mof_Zn	Zn	-3.99546e-33	0.5	0.94063	1.093
Mof_Zn	Zn	5.41323e-33	3.76113e-33	0.44063	1.089
Mof_C 	C 	0.38634	0.2697	0.38634	0.002
Mof_C 	C 	0.37038	0.2413	0.37038	-0.001
Mof_C 	C 	0.4142	0.3392	0.4142	-0.005
Mof_C 	C 	0.4319	0.3622	0.4319	0
Mof_C 	C 	0.38634	0.7697	0.88634	0.002
Mof_C 	C 	0.37038	0.7413	0.87038	-0.001
Mof_C 	C 	0.4142	0.8392	0.9142	-0.006
Mof_C 	C 	0.4319	0.8622	0.9319	0.003
Mof_C 	C 	0.88634	0.2697	0.88634	0.003
Mof_C 	C 	0.87038	0.2413	0.87038	-0.001
Mof_C 	C 	0.9142	0.3392	0.9142	-0.007
Mof_C 	C 	0.9319	0.3622	0.9319	0.006
Mof_C 	C 	0.88634	0.7697	0.38634	0.002
Mof_C 	C 	0.87038	0.7413	0.37038	-0.001
Mof_C 	C 	0.9142	0.8392	0.4142	-0.006
Mof_C 	C 	0.9319	0.8622	0.4319	0.003
Mof_C 	C 	0.61366	0.7303	0.38634	0.002
Mof_C 	C 	0.62962	0.7587	0.37038	-0.001
Mof_C 	C 	0.5858	0.6608	0.4142	-0.005
Mof_C 	C 	0.5681	0.6378	0.4319	0
Mof_C 	C 	0.61366	0.2303	0.88634	0.002
Mof_C 	C 	0.62962	0.2587	0.87038	-0.001
Mof_C 	C 	0.5858	0.1608	0.9142	-0.006
Mof_C 	C 	0.5681	0.1378	0.9319	0.003
Mof_C 	C 	0.11366	0.7303	0.88634	0.002
Mof_C 	C 	0.12962	0.7587	0.87038	-0.001
Mof_C 	C 	0.0858	0.6608	0.9142	-0.005
Mof_C 	C 	0.0681	0.6378	0.9319	0.001
Mof_C 	C 	0.11366	0.2303	0.38634	0.002
Mof_C 	C 	0.12962	0.2587	0.37038	-0.001
Mof_C 	C 	0.0858	0.1608	0.4142	-0.004
Mof_C 	C 	0.0681	0.1378	0.4319	-0.002
Mof_C 	C 	0.61366	0.2697	0.61366	0.002
Mof_C 	C 	0.62962	0.2413	0.62962	-0.001
Mof_C 	C 	0.5858	0.3392	0.5858	-0.005
Mof_C 	C 	0.5681	0.3622	0.5681	0
Mof_C 	C 	0.61366	0.7697	0.11366	0.002
Mof_C 	C 	0.62962	0.7413	0.12962	-0.001
Mof_C 	C 	0.5858	0.8392	0.0858	-0.004
Mof_C 	C 	0.5681	0.8622	0.0681	-0.002
Mof_C 	C 	0.11366	0.2697	0.11366	0.001
Mof_C 	C 	0.12962	0.2413	0.12962	-0.001
Mof_C 	C 	0.0858	0.3392	0.0858	-0.003
Mof_C 	C 	0.0681	0.3622	0.0681	-0.005
Mof_C 	C 	0.11366	0.7697	0.61366	0.002
Mof_C 	C 	0.12962	0.7413	0.62962	-0.001
Mof_C 	C 	0.0858	0.8392	0.5858	-0.004
Mof_C 	C 	0.0681	0.8622	0.5681	-0.002
Mof_C 	C 	0.38634	0.7303	0.61366	0.002
Mof_C 	C 	0.37038	0.7587	0.62962	-0.001
Mof_C 	C 	0.4142	0.6608	0.5858	-0.005
Mof_C 	C 	0.4319	0.6378	0.5681	0
Mof_C 	C 	0.38634	0.2303	0.11366	0.002
Mof_C 	C 	0.37038	0.2587	0.12962	-0.001
Mof_C 	C 	0.4142	0.1608	0.0858	-0.004
Mof_C 	C 	0.4319	0.1378	0.0681	-0.002
Mof_C 	C 	0.88634	0.7303	0.11366	0.002
Mof_C 	C 	0.87038	0.7587	0.12962	-0.001
Mof_C 	C 	0.9142	0.6608	0.0858	-0.005
Mof_C 	C 	0.9319	0.6378	0.0681	0.001
Mof_C 	C 	0.88634	0.2303	0.61366	0.002
Mof_C 	C 	0.87038	0.2587	0.62962	-0.001
Mof_C 	C 	0.9142	0.1608	0.5858	-0.006
Mof_C 	C 	0.9319	0.1378	0.5681	0.003
Mof_C 	C 	0.38634	0.38634	0.2697	0.002
Mof_C 	C 	0.37038	0.37038	0.2413	-0.001
Mof_C 	C 	0.4142	0.4142	0.3392	-0.005
Mof_C 	C 	0.4319	0.4319	0.3622	0
Mof_C 	C 	0.38634	0.88634	0.7697	0.002
Mof_C 	C 	0.37038	0.87038	0.7413	-0.001
Mof_C 	C 	0.4142	0.9142	0.8392	-0.006
Mof_C 	C 	0.4319	0.9319	0.8622	0.003
Mof_C 	C 	0.88634	0.38634	0.7697	0.002
Mof_C 	C 	0.87038	0.37038	0.7413	-0.001
Mof_C 	C 	0.9142	0.4142	0.8392	-0.006
Mof_C 	C 	0.9319	0.4319	0.8622	0.003
Mof_C 	C 	0.88634	0.88634	0.2697	0.003
Mof_C 	C 	0.87038	0.87038	0.2413	-0.001
Mof_C 	C 	0.9142	0.9142	0.3392	-0.007
Mof_C 	C 	0.9319	0.9319	0.3622	0.006
Mof_C 	C 	0.38634	0.61366	0.7303	0.002
Mof_C 	C 	0.37038	0.62962	0.7587	-0.001
Mof_C 	C 	0.4142	0.5858	0.6608	-0.005
Mof_C 	C 	0.4319	0.5681	0.6378	0
Mof_C 	C 	0.38634	0.11366	0.2303	0.002
Mof_C 	C 	0.37038	0.12962	0.2587	-0.001
Mof_C 	C 	0.4142	0.0858	0.1608	-0.004
Mof_C 	C 	0.4319	0.0681	0.1378	-0.002
Mof_C 	C 	0.88634	0.61366	0.2303	0.002
Mof_C 	C 	0.87038	0.62962	0.2587	-0.001
Mof_C 	C 	0.9142	0.5858	0.1608	-0.006
Mof_C 	C 	0.9319	0.5681	0.1378	0.003
Mof_C 	C 	0.88634	0.11366	0.7303	0.002
Mof_C 	C 	0.87038	0.12962	0.7587	-0.001
Mof_C 	C 	0.9142	0.0858	0.6608	-0.005
Mof_C 	C 	0.9319	0.0681	0.6378	0.001
Mof_C 	C 	0.61366	0.61366	0.2697	0.002
Mof_C 	C 	0.62962	0.62962	0.2413	-0.001
Mof_C 	C 	0.5858	0.5858	0.3392	-0.005
Mof_C 	C 	0.5681	0.5681	0.3622	0
Mof_C 	C 	0.61366	0.11366	0.7697	0.002
Mof_C 	C 	0.62962	0.12962	0.7413	-0.001
Mof_C 	C 	0.5858	0.0858	0.8392	-0.004
Mof_C 	C 	0.5681	0.0681	0.8622	-0.002
Mof_C 	C 	0.11366	0.61366	0.7697	0.002
Mof_C 	C 	0.12962	0.62962	0.7413	-0.001
Mof_C 	C 	0.0858	0.5858	0.8392	-0.004
Mof_C 	C 	0.0681	0.5681	0.8622	-0.002
Mof_C 	C 	0.11366	0.11366	0.2697	0.001
Mof_C 	C 	0.12962	0.12962	0.2413	-0.001
Mof_C 	C 	0.0858	0.0858	0.3392	-0.003
Mof_C 	C 	0.0681	0.0681	0.3622	-0.005
Mof_C 	C 	0.61366	0.38634	0.7303	0.002
Mof_C 	C 	0.62962	0.37038	0.7587	-0.001
Mof_C 	C 	0.5858	0.4142	0.6608	-0.005
Mof_C 	C 	0.5681	0.4319	0.6378	0
Mof_C 	C 	0.61366	0.88634	0.2303	0.002
Mof_C 	C 	0.62962	0.87038	0.2587	-0.001
Mof_C 	C 	0.5858	0.9142	0.1608	-0.006
Mof_C 	C 	0.5681	0.9319	0.1378	0.003
Mof_C 	C 	0.11366	0.38634	0.2303	0.002
Mof_C 	C 	0.12962	0.37038	0.2587	-0.001
Mof_C 	C 	0.0858	0.4142	0.1608	-0.004
Mof_C 	C 	0.0681	0.4319	0.1378	-0.002
Mof_C 	C 	0.11366	0.88634	0.7303	0.002
Mof_C 	C 	0.12962	0.87038	0.7587	-0.001
Mof_C 	C 	0.0858	0.9142	0.6608	-0.005
Mof_C 	C 	0.0681	0.9319	0.6378	0.001
Mof_C 	C 	0.2697	0.38634	0.38634	0.002
Mof_C 	C 	0.2413	0.37038	0.37038	-0.001
Mof_C 	C 	0.3392	0.4142	0.4142	-0.005
Mof_C 	C 	0.3622	0.4319	0.4319	0
Mof_C 	C 	0.2697	0.88634	0.88634	0.003
Mof_C 	C 	0.2413	0.87038	0.87038	-0.001
Mof_C 	C 	0.3392	0.9142	0.9142	-0.007
Mof_C 	C 	0.3622	0.9319	0.9319	0.006
Mof_C 	C 	0.7697	0.38634	0.88634	0.002
Mof_C 	C 	0.7413	0.37038	0.87038	-0.001
Mof_C 	C 	0.8392	0.4142	0.9142	-0.006
Mof_C 	C 	0.8622	0.4319	0.9319	0.003
Mof_C 	C 	0.7697	0.88634	0.38634	0.002
Mof_C 	C 	0.7413	0.87038	0.37038	-0.001
Mof_C 	C 	0.8392	0.9142	0.4142	-0.006
Mof_C 	C 	0.8622	0.9319	0.4319	0.003
Mof_C 	C 	0.7303	0.38634	0.61366	0.002
Mof_C 	C 	0.7587	0.37038	0.62962	-0.001
Mof_C 	C 	0.6608	0.4142	0.5858	-0.005
Mof_C 	C 	0.6378	0.4319	0.5681	0
Mof_C 	C 	0.7303	0.88634	0.11366	0.002
Mof_C 	C 	0.7587	0.87038	0.12962	-0.001
Mof_C 	C 	0.6608	0.9142	0.0858	-0.005
Mof_C 	C 	0.6378	0.9319	0.0681	0.001
Mof_C 	C 	0.2303	0.38634	0.11366	0.002
Mof_C 	C 	0.2587	0.37038	0.12962	-0.001
Mof_C 	C 	0.1608	0.4142	0.0858	-0.004
Mof_C 	C 	0.1378	0.4319	0.0681	-0.002
Mof_C 	C 	0.2303	0.88634	0.61366	0.002
Mof_C 	C 	0.2587	0.87038	0.62962	-0.001
Mof_C 	C 	0.1608	0.9142	0.5858	-0.006
Mof_C 	C 	0.1378	0.9319	0.5681	0.003
Mof_C 	C 	0.2697	0.61366	0.61366	0.002
Mof_C 	C 	0.2413	0.62962	0.62962	-0.001
Mof_C 	C 	0.3392	0.5858	0.5858	-0.005
Mof_C 	C 	0.3622	0.5681	0.5681	0
Mof_C 	C 	0.2697	0.11366	0.11366	0.001
Mof_C 	C 	0.2413	0.12962	0.12962	-0.001
Mof_C 	C 	0.3392	0.0858	0.0858	-0.003
Mof_C 	C 	0.3622	0.0681	0.0681	-0.005
Mof_C 	C 	0.7697	0.61366	0.11366	0.002
Mof_C 	C 	0.7413	0.62962	0.12962	-0.001
Mof_C 	C 	0.8392	0.5858	0.0858	-0.004
Mof_C 	C 	0.8622	0.5681	0.0681	-0.002
Mof_C 	C 	0.7697	0.11366	0.61366	0.002
Mof_C 	C 	0.7413	0.12962	0.62962	-0.001
Mof_C 	C 	0.8392	0.0858	0.5858	-0.004
Mof_C 	C 	0.8622	0.0681	0.5681	-0.002
Mof_C 	C 	0.7303	0.61366	0.38634	0.002
Mof_C 	C 	0.7587	0.62962	0.37038	-0.001
Mof_C 	C 	0.6608	0.5858	0.4142	-0.005
Mof_C 	C 	0.6378	0.5681	0.4319	0
Mof_C 	C 	0.7303	0.11366	0.88634	0.002
Mof_C 	C 	0.7587	0.12962	0.87038	-0.001
Mof_C 	C 	0.6608	0.0858	0.9142	-0.005
Mof_C 	C 	0.6378	0.0681	0.9319	0.001
Mof_C 	C 	0.2303	0.61366	0.88634	0.002
Mof_C 	C 	0.2587	0.62962	0.87038	-0.001
Mof_C 	C 	0.1608	0.5858	0.9142	-0.006
Mof_C 	C 	0.1378	0.5681	0.9319	0.003
Mof_C 	C 	0.2303	0.11366	0.38634	0.002
Mof_C 	C 	0.2587	0.12962	0.37038	-0.001
Mof_C 	C 	0.1608	0.0858	0.4142	-0.004
Mof_C 	C 	0.1378	0.0681	0.4319	-0.002
_end
