data_functionalizedCrystal
_audit_creation_method	'EQeq! by Chris Wilmer'
_symmetry_space_group_name_H-M	'P1'
_symmetry_Int_Tables_number	1
_symmetry_cell_setting	triclinic
loop_
_symmetry_equiv_pos_as_xyz
  x,y,z
_cell_length_a	16.1936
_cell_length_b	16.1936
_cell_length_c	29.884
_cell_angle_alpha	90
_cell_angle_beta	90
_cell_angle_gamma	90
loop_
_atom_site_label
_atom_site_type_symbol
_atom_site_fract_x
_atom_site_fract_y
_atom_site_fract_z
_atom_site_charge
Mof_C 	C 	0.2579	0.263	0.04035	-0.022
Mof_C 	C 	0.257	0.1766	0.04037	-0.036
Mof_C 	C 	0.2749	0.3165	0.08104	0.339
Mof_C 	C 	0.25849	0.12604	0.08238	0.342
Mof_O 	O 	0.22018	0.3712	0.08873	-0.409
Mof_O 	O 	0.33923	0.30651	0.10205	-0.225
Mof_O 	O 	0.27539	0.05	0.07609	-0.428
Mof_O 	O 	0.24344	0.15697	0.11884	-0.255
Mof_C 	C 	0.7579	0.763	0.54035	-0.023
Mof_C 	C 	0.757	0.6766	0.54037	-0.038
Mof_C 	C 	0.7749	0.8165	0.58104	0.338
Mof_C 	C 	0.75849	0.62604	0.58238	0.343
Mof_O 	O 	0.72018	0.8712	0.58873	-0.407
Mof_O 	O 	0.83923	0.80651	0.60205	-0.223
Mof_O 	O 	0.77539	0.55	0.57609	-0.425
Mof_O 	O 	0.74344	0.65697	0.61884	-0.254
Mof_C 	C 	0.2421	0.737	0.54035	-0.025
Mof_C 	C 	0.243	0.8234	0.54037	-0.036
Mof_C 	C 	0.2251	0.6835	0.58104	0.339
Mof_C 	C 	0.24151	0.87396	0.58238	0.342
Mof_O 	O 	0.27982	0.6288	0.58873	-0.408
Mof_O 	O 	0.16077	0.69349	0.60205	-0.224
Mof_O 	O 	0.22461	0.95	0.57609	-0.421
Mof_O 	O 	0.25656	0.84303	0.61884	-0.253
Mof_C 	C 	0.7421	0.237	0.04035	-0.024
Mof_C 	C 	0.743	0.3234	0.04037	-0.035
Mof_C 	C 	0.7251	0.1835	0.08104	0.338
Mof_C 	C 	0.74151	0.37396	0.08238	0.341
Mof_O 	O 	0.77982	0.1288	0.08873	-0.41
Mof_O 	O 	0.66077	0.19349	0.10205	-0.225
Mof_O 	O 	0.72461	0.45	0.07609	-0.425
Mof_O 	O 	0.75656	0.34303	0.11884	-0.254
Mof_C 	C 	0.987	0.0079	0.29035	-0.024
Mof_C 	C 	0.0734	0.007	0.29037	-0.034
Mof_C 	C 	0.9335	0.0249	0.33104	0.331
Mof_C 	C 	0.12396	0.00849	0.33238	0.333
Mof_O 	O 	0.8788	0.97018	0.33873	-0.401
Mof_O 	O 	0.94349	0.08923	0.35205	-0.224
Mof_O 	O 	0.2	0.02539	0.32609	-0.424
Mof_O 	O 	0.09303	0.99344	0.36884	-0.246
Mof_C 	C 	0.487	0.5079	0.79035	-0.024
Mof_C 	C 	0.5734	0.507	0.79037	-0.037
Mof_C 	C 	0.4335	0.5249	0.83104	0.338
Mof_C 	C 	0.62396	0.50849	0.83238	0.342
Mof_O 	O 	0.3788	0.47018	0.83873	-0.408
Mof_O 	O 	0.44349	0.58923	0.85205	-0.224
Mof_O 	O 	0.7	0.52539	0.82609	-0.425
Mof_O 	O 	0.59303	0.49344	0.86884	-0.253
Mof_C 	C 	0.513	0.9921	0.79035	-0.019
Mof_C 	C 	0.4266	0.993	0.79037	-0.032
Mof_C 	C 	0.5665	0.9751	0.83104	0.345
Mof_C 	C 	0.37604	0.99151	0.83238	0.349
Mof_O 	O 	0.6212	0.02982	0.83873	-0.413
Mof_O 	O 	0.55651	0.91077	0.85205	-0.224
Mof_O 	O 	0.3	0.97461	0.82609	-0.424
Mof_O 	O 	0.40697	0.00656	0.86884	-0.261
Mof_C 	C 	0.013	0.4921	0.29035	-0.025
Mof_C 	C 	0.9266	0.493	0.29037	-0.037
Mof_C 	C 	0.0665	0.4751	0.33104	0.338
Mof_C 	C 	0.87604	0.49151	0.33238	0.342
Mof_O 	O 	0.1212	0.52982	0.33873	-0.408
Mof_O 	O 	0.05651	0.41077	0.35205	-0.225
Mof_O 	O 	0.8	0.47461	0.32609	-0.425
Mof_O 	O 	0.90697	0.50656	0.36884	-0.254
Mof_C 	C 	0.2421	0.263	0.95965	-0.018
Mof_C 	C 	0.243	0.1766	0.95963	-0.032
Mof_C 	C 	0.2251	0.3165	0.91896	0.337
Mof_C 	C 	0.24151	0.12604	0.91762	0.342
Mof_O 	O 	0.27982	0.3712	0.91127	-0.407
Mof_O 	O 	0.16077	0.30651	0.89795	-0.224
Mof_O 	O 	0.22461	0.05	0.92391	-0.426
Mof_O 	O 	0.25656	0.15697	0.88116	-0.255
Mof_C 	C 	0.7421	0.763	0.45965	-0.023
Mof_C 	C 	0.743	0.6766	0.45963	-0.038
Mof_C 	C 	0.7251	0.8165	0.41896	0.338
Mof_C 	C 	0.74151	0.62604	0.41762	0.343
Mof_O 	O 	0.77982	0.8712	0.41127	-0.407
Mof_O 	O 	0.66077	0.80651	0.39795	-0.223
Mof_O 	O 	0.72461	0.55	0.42391	-0.425
Mof_O 	O 	0.75656	0.65697	0.38116	-0.254
Mof_C 	C 	0.2579	0.737	0.45965	-0.025
Mof_C 	C 	0.257	0.8234	0.45963	-0.036
Mof_C 	C 	0.2749	0.6835	0.41896	0.339
Mof_C 	C 	0.25849	0.87396	0.41762	0.342
Mof_O 	O 	0.22018	0.6288	0.41127	-0.408
Mof_O 	O 	0.33923	0.69349	0.39795	-0.224
Mof_O 	O 	0.27539	0.95	0.42391	-0.421
Mof_O 	O 	0.24344	0.84303	0.38116	-0.253
Mof_C 	C 	0.7579	0.237	0.95965	-0.019
Mof_C 	C 	0.757	0.3234	0.95963	-0.03
Mof_C 	C 	0.7749	0.1835	0.91896	0.338
Mof_C 	C 	0.75849	0.37396	0.91762	0.341
Mof_O 	O 	0.72018	0.1288	0.91127	-0.408
Mof_O 	O 	0.83923	0.19349	0.89795	-0.224
Mof_O 	O 	0.77539	0.45	0.92391	-0.423
Mof_O 	O 	0.74344	0.34303	0.88116	-0.254
Mof_C 	C 	0.513	0.0079	0.70965	-0.023
Mof_C 	C 	0.4266	0.007	0.70963	-0.034
Mof_C 	C 	0.5665	0.0249	0.66896	0.331
Mof_C 	C 	0.37604	0.00849	0.66762	0.333
Mof_O 	O 	0.6212	0.97018	0.66127	-0.401
Mof_O 	O 	0.55651	0.08923	0.64795	-0.224
Mof_O 	O 	0.3	0.02539	0.67391	-0.424
Mof_O 	O 	0.40697	0.99344	0.63116	-0.246
Mof_C 	C 	0.013	0.5079	0.20965	-0.025
Mof_C 	C 	0.9266	0.507	0.20963	-0.037
Mof_C 	C 	0.0665	0.5249	0.16896	0.338
Mof_C 	C 	0.87604	0.50849	0.16762	0.343
Mof_O 	O 	0.1212	0.47018	0.16127	-0.409
Mof_O 	O 	0.05651	0.58923	0.14795	-0.225
Mof_O 	O 	0.8	0.52539	0.17391	-0.425
Mof_O 	O 	0.90697	0.49344	0.13116	-0.255
Mof_C 	C 	0.987	0.9921	0.20965	-0.019
Mof_C 	C 	0.0734	0.993	0.20963	-0.032
Mof_C 	C 	0.9335	0.9751	0.16896	0.345
Mof_C 	C 	0.12396	0.99151	0.16762	0.349
Mof_O 	O 	0.8788	0.02982	0.16127	-0.414
Mof_O 	O 	0.94349	0.91077	0.14795	-0.225
Mof_O 	O 	0.2	0.97461	0.17391	-0.424
Mof_O 	O 	0.09303	0.00656	0.13116	-0.262
Mof_C 	C 	0.487	0.4921	0.70965	-0.024
Mof_C 	C 	0.5734	0.493	0.70963	-0.037
Mof_C 	C 	0.4335	0.4751	0.66896	0.338
Mof_C 	C 	0.62396	0.49151	0.66762	0.343
Mof_O 	O 	0.3788	0.52982	0.66127	-0.408
Mof_O 	O 	0.44349	0.41077	0.64795	-0.224
Mof_O 	O 	0.7	0.47461	0.67391	-0.425
Mof_O 	O 	0.59303	0.50656	0.63116	-0.254
Mof_C 	C 	0.7421	0.737	0.95965	-0.019
Mof_C 	C 	0.743	0.8234	0.95963	-0.029
Mof_C 	C 	0.7251	0.6835	0.91896	0.338
Mof_C 	C 	0.74151	0.87396	0.91762	0.34
Mof_O 	O 	0.77982	0.6288	0.91127	-0.407
Mof_O 	O 	0.66077	0.69349	0.89795	-0.223
Mof_O 	O 	0.72461	0.95	0.92391	-0.419
Mof_O 	O 	0.75656	0.84303	0.88116	-0.252
Mof_C 	C 	0.2421	0.237	0.45965	-0.025
Mof_C 	C 	0.243	0.3234	0.45963	-0.037
Mof_C 	C 	0.2251	0.1835	0.41896	0.339
Mof_C 	C 	0.24151	0.37396	0.41762	0.342
Mof_O 	O 	0.27982	0.1288	0.41127	-0.409
Mof_O 	O 	0.16077	0.19349	0.39795	-0.225
Mof_O 	O 	0.22461	0.45	0.42391	-0.425
Mof_O 	O 	0.25656	0.34303	0.38116	-0.254
Mof_C 	C 	0.7579	0.263	0.45965	-0.024
Mof_C 	C 	0.757	0.1766	0.45963	-0.038
Mof_C 	C 	0.7749	0.3165	0.41896	0.338
Mof_C 	C 	0.75849	0.12604	0.41762	0.343
Mof_O 	O 	0.72018	0.3712	0.41127	-0.408
Mof_O 	O 	0.83923	0.30651	0.39795	-0.225
Mof_O 	O 	0.77539	0.05	0.42391	-0.428
Mof_O 	O 	0.74344	0.15697	0.38116	-0.255
Mof_C 	C 	0.2579	0.763	0.95965	-0.018
Mof_C 	C 	0.257	0.6766	0.95963	-0.031
Mof_C 	C 	0.2749	0.8165	0.91896	0.337
Mof_C 	C 	0.25849	0.62604	0.91762	0.341
Mof_O 	O 	0.22018	0.8712	0.91127	-0.405
Mof_O 	O 	0.33923	0.80651	0.89795	-0.222
Mof_O 	O 	0.27539	0.55	0.92391	-0.423
Mof_O 	O 	0.24344	0.65697	0.88116	-0.253
Mof_C 	C 	0.013	0.9921	0.70965	-0.019
Mof_C 	C 	0.9266	0.993	0.70963	-0.032
Mof_C 	C 	0.0665	0.9751	0.66896	0.345
Mof_C 	C 	0.87604	0.99151	0.66762	0.349
Mof_O 	O 	0.1212	0.02982	0.66127	-0.414
Mof_O 	O 	0.05651	0.91077	0.64795	-0.225
Mof_O 	O 	0.8	0.97461	0.67391	-0.424
Mof_O 	O 	0.90697	0.00656	0.63116	-0.262
Mof_C 	C 	0.513	0.4921	0.20965	-0.024
Mof_C 	C 	0.4266	0.493	0.20963	-0.037
Mof_C 	C 	0.5665	0.4751	0.16896	0.338
Mof_C 	C 	0.37604	0.49151	0.16762	0.343
Mof_O 	O 	0.6212	0.52982	0.16127	-0.408
Mof_O 	O 	0.55651	0.41077	0.14795	-0.225
Mof_O 	O 	0.3	0.47461	0.17391	-0.425
Mof_O 	O 	0.40697	0.50656	0.13116	-0.255
Mof_C 	C 	0.487	0.0079	0.20965	-0.023
Mof_C 	C 	0.5734	0.007	0.20963	-0.034
Mof_C 	C 	0.4335	0.0249	0.16896	0.331
Mof_C 	C 	0.62396	0.00849	0.16762	0.334
Mof_O 	O 	0.3788	0.97018	0.16127	-0.401
Mof_O 	O 	0.44349	0.08923	0.14795	-0.224
Mof_O 	O 	0.7	0.02539	0.17391	-0.424
Mof_O 	O 	0.59303	0.99344	0.13116	-0.246
Mof_C 	C 	0.987	0.5079	0.70965	-0.025
Mof_C 	C 	0.0734	0.507	0.70963	-0.037
Mof_C 	C 	0.9335	0.5249	0.66896	0.338
Mof_C 	C 	0.12396	0.50849	0.66762	0.342
Mof_O 	O 	0.8788	0.47018	0.66127	-0.408
Mof_O 	O 	0.94349	0.58923	0.64795	-0.224
Mof_O 	O 	0.2	0.52539	0.67391	-0.425
Mof_O 	O 	0.09303	0.49344	0.63116	-0.254
Mof_C 	C 	0.7579	0.737	0.04035	-0.024
Mof_C 	C 	0.757	0.8234	0.04037	-0.034
Mof_C 	C 	0.7749	0.6835	0.08104	0.338
Mof_C 	C 	0.75849	0.87396	0.08238	0.341
Mof_O 	O 	0.72018	0.6288	0.08873	-0.408
Mof_O 	O 	0.83923	0.69349	0.10205	-0.224
Mof_O 	O 	0.77539	0.95	0.07609	-0.422
Mof_O 	O 	0.74344	0.84303	0.11884	-0.253
Mof_C 	C 	0.2579	0.237	0.54035	-0.025
Mof_C 	C 	0.257	0.3234	0.54037	-0.037
Mof_C 	C 	0.2749	0.1835	0.58104	0.339
Mof_C 	C 	0.25849	0.37396	0.58238	0.342
Mof_O 	O 	0.22018	0.1288	0.58873	-0.41
Mof_O 	O 	0.33923	0.19349	0.60205	-0.225
Mof_O 	O 	0.27539	0.45	0.57609	-0.425
Mof_O 	O 	0.24344	0.34303	0.61884	-0.254
Mof_C 	C 	0.7421	0.263	0.54035	-0.024
Mof_C 	C 	0.743	0.1766	0.54037	-0.038
Mof_C 	C 	0.7251	0.3165	0.58104	0.338
Mof_C 	C 	0.74151	0.12604	0.58238	0.343
Mof_O 	O 	0.77982	0.3712	0.58873	-0.408
Mof_O 	O 	0.66077	0.30651	0.60205	-0.224
Mof_O 	O 	0.72461	0.05	0.57609	-0.428
Mof_O 	O 	0.75656	0.15697	0.61884	-0.255
Mof_C 	C 	0.2421	0.763	0.04035	-0.023
Mof_C 	C 	0.243	0.6766	0.04037	-0.036
Mof_C 	C 	0.2251	0.8165	0.08104	0.338
Mof_C 	C 	0.24151	0.62604	0.08238	0.342
Mof_O 	O 	0.27982	0.8712	0.08873	-0.407
Mof_O 	O 	0.16077	0.80651	0.10205	-0.224
Mof_O 	O 	0.22461	0.55	0.07609	-0.425
Mof_O 	O 	0.25656	0.65697	0.11884	-0.254
Mof_C 	C 	0.487	0.9921	0.29035	-0.019
Mof_C 	C 	0.5734	0.993	0.29037	-0.032
Mof_C 	C 	0.4335	0.9751	0.33104	0.345
Mof_C 	C 	0.62396	0.99151	0.33238	0.349
Mof_O 	O 	0.3788	0.02982	0.33873	-0.414
Mof_O 	O 	0.44349	0.91077	0.35205	-0.224
Mof_O 	O 	0.7	0.97461	0.32609	-0.424
Mof_O 	O 	0.59303	0.00656	0.36884	-0.261
Mof_C 	C 	0.987	0.4921	0.79035	-0.025
Mof_C 	C 	0.0734	0.493	0.79037	-0.037
Mof_C 	C 	0.9335	0.4751	0.83104	0.338
Mof_C 	C 	0.12396	0.49151	0.83238	0.342
Mof_O 	O 	0.8788	0.52982	0.83873	-0.408
Mof_O 	O 	0.94349	0.41077	0.85205	-0.224
Mof_O 	O 	0.2	0.47461	0.82609	-0.425
Mof_O 	O 	0.09303	0.50656	0.86884	-0.253
Mof_C 	C 	0.013	0.0079	0.79035	-0.024
Mof_C 	C 	0.9266	0.007	0.79037	-0.034
Mof_C 	C 	0.0665	0.0249	0.83104	0.331
Mof_C 	C 	0.87604	0.00849	0.83238	0.333
Mof_O 	O 	0.1212	0.97018	0.83873	-0.401
Mof_O 	O 	0.05651	0.08923	0.85205	-0.223
Mof_O 	O 	0.8	0.02539	0.82609	-0.424
Mof_O 	O 	0.90697	0.99344	0.86884	-0.245
Mof_C 	C 	0.513	0.5079	0.29035	-0.024
Mof_C 	C 	0.4266	0.507	0.29037	-0.037
Mof_C 	C 	0.5665	0.5249	0.33104	0.338
Mof_C 	C 	0.37604	0.50849	0.33238	0.343
Mof_O 	O 	0.6212	0.47018	0.33873	-0.408
Mof_O 	O 	0.55651	0.58923	0.35205	-0.224
Mof_O 	O 	0.3	0.52539	0.32609	-0.425
Mof_O 	O 	0.40697	0.49344	0.36884	-0.254
Mof_C 	C 	0.25	0.3049	-0	-0.018
Mof_H 	H 	0.25	0.3623	-0	0.066
Mof_C 	C 	0.25	0.1375	-0	-0.005
Mof_H 	H 	0.25	0.0801	-0	0.077
Mof_C 	C 	0.75	0.8049	0.5	-0.01
Mof_H 	H 	0.75	0.8623	0.5	0.066
Mof_C 	C 	0.75	0.6375	0.5	0.004
Mof_H 	H 	0.75	0.5801	0.5	0.076
Mof_C 	C 	0.25	0.6951	0.5	-0.009
Mof_H 	H 	0.25	0.6377	0.5	0.064
Mof_C 	C 	0.25	0.8625	0.5	0.002
Mof_H 	H 	0.25	0.9199	0.5	0.078
Mof_C 	C 	0.75	0.1951	-0	-0.017
Mof_H 	H 	0.75	0.1377	-0	0.064
Mof_C 	C 	0.75	0.3625	-0	-0.007
Mof_H 	H 	0.75	0.4199	-0	0.078
Mof_C 	C 	0.9451	0	0.25	-0.017
Mof_H 	H 	0.8877	0	0.25	0.065
Mof_C 	C 	0.1125	0	0.25	-0.006
Mof_H 	H 	0.1699	0	0.25	0.078
Mof_C 	C 	0.4451	0.5	0.75	-0.01
Mof_H 	H 	0.3877	0.5	0.75	0.065
Mof_C 	C 	0.6125	0.5	0.75	0.003
Mof_H 	H 	0.6699	0.5	0.75	0.077
Mof_C 	C 	0.5549	1.2885e-32	0.75	-0.018
Mof_H 	H 	0.6123	1.2885e-32	0.75	0.066
Mof_C 	C 	0.3875	1.2885e-32	0.75	-0.006
Mof_H 	H 	0.3301	1.2885e-32	0.75	0.078
Mof_C 	C 	0.0549	0.5	0.25	-0.009
Mof_H 	H 	0.1123	0.5	0.25	0.064
Mof_C 	C 	0.8875	0.5	0.25	0.003
Mof_H 	H 	0.8301	0.5	0.25	0.077
Mof_C 	C 	0.75	0.6951	-0	-0.017
Mof_H 	H 	0.75	0.6377	-0	0.065
Mof_C 	C 	0.75	0.8625	-0	-0.007
Mof_H 	H 	0.75	0.9199	-0	0.079
Mof_C 	C 	0.25	0.1951	0.5	-0.009
Mof_H 	H 	0.25	0.1377	0.5	0.063
Mof_C 	C 	0.25	0.3625	0.5	0.003
Mof_H 	H 	0.25	0.4199	0.5	0.077
Mof_C 	C 	0.75	0.3049	0.5	-0.01
Mof_H 	H 	0.75	0.3623	0.5	0.065
Mof_C 	C 	0.75	0.1375	0.5	0.004
Mof_H 	H 	0.75	0.0801	0.5	0.075
Mof_C 	C 	0.25	0.8049	-0	-0.018
Mof_H 	H 	0.25	0.8623	-0	0.067
Mof_C 	C 	0.25	0.6375	-0	-0.006
Mof_H 	H 	0.25	0.5801	-0	0.078
Mof_C 	C 	0.0549	1.2885e-32	0.75	-0.017
Mof_H 	H 	0.1123	1.2885e-32	0.75	0.065
Mof_C 	C 	0.8875	1.2885e-32	0.75	-0.006
Mof_H 	H 	0.8301	1.2885e-32	0.75	0.078
Mof_C 	C 	0.5549	0.5	0.25	-0.01
Mof_H 	H 	0.6123	0.5	0.25	0.065
Mof_C 	C 	0.3875	0.5	0.25	0.003
Mof_H 	H 	0.3301	0.5	0.25	0.077
Mof_C 	C 	0.4451	0	0.25	-0.018
Mof_H 	H 	0.3877	0	0.25	0.066
Mof_C 	C 	0.6125	0	0.25	-0.006
Mof_H 	H 	0.6699	0	0.25	0.078
Mof_C 	C 	0.9451	0.5	0.75	-0.009
Mof_H 	H 	0.8877	0.5	0.75	0.064
Mof_C 	C 	0.1125	0.5	0.75	0.003
Mof_H 	H 	0.1699	0.5	0.75	0.077
Mof_Zn	Zn	0.22251	0.47251	0.125	1.248
Mof_Zn	Zn	0.72251	0.97251	0.625	1.25
Mof_Zn	Zn	0.27749	0.52749	0.625	1.249
Mof_Zn	Zn	0.77749	0.97251	0.375	1.25
Mof_Zn	Zn	0.72251	0.02749	0.875	1.247
Mof_Zn	Zn	0.27749	0.47251	0.875	1.249
Mof_Zn	Zn	0.22251	0.52749	0.375	1.249
Mof_Zn	Zn	0.77749	0.02749	0.125	1.247
Mof_Zn	Zn	0.77749	0.52749	0.875	1.249
Mof_Zn	Zn	0.27749	0.02749	0.375	1.247
Mof_Zn	Zn	0.72251	0.47251	0.375	1.249
Mof_Zn	Zn	0.22251	0.97251	0.875	1.25
Mof_Zn	Zn	0.22251	0.02749	0.625	1.247
Mof_Zn	Zn	0.27749	0.97251	0.125	1.25
Mof_Zn	Zn	0.72251	0.52749	0.125	1.248
Mof_Zn	Zn	0.77749	0.47251	0.625	1.249
_end
