data_functionalizedCrystal
_audit_creation_method	'EQeq! by Chris Wilmer'
_symmetry_space_group_name_H-M	'P1'
_symmetry_Int_Tables_number	1
_symmetry_cell_setting	triclinic
loop_
_symmetry_equiv_pos_as_xyz
  x,y,z
_cell_length_a	14.6261
_cell_length_b	23.2526
_cell_length_c	15.7357
_cell_angle_alpha	90
_cell_angle_beta	107.099
_cell_angle_gamma	90
loop_
_atom_site_label
_atom_site_type_symbol
_atom_site_fract_x
_atom_site_fract_y
_atom_site_fract_z
_atom_site_charge
Mof_Cd	Cd	0.25727	0.30073	0.69677	0.462
Mof_Cd	Cd	0.23509	0.43774	0.58374	0.506
Mof_C 	C 	0.8409	0.2931	0.6607	0.154
Mof_C 	C 	0.9295	0.2996	0.7213	-0.151
Mof_H 	H 	0.9407	0.2858	0.7789	0.099
Mof_C 	C 	0.0025	0.3268	0.6967	0.039
Mof_H 	H 	0.0625	0.331	0.738	0.043
Mof_C 	C 	0.9867	0.3477	0.6117	-0.098
Mof_C 	C 	0.8963	0.341	0.5513	0.074
Mof_H 	H 	0.8846	0.3552	0.4939	0.028
Mof_C 	C 	0.8238	0.3137	0.5753	-0.172
Mof_H 	H 	0.7639	0.3092	0.5341	0.1
Mof_C 	C 	0.0623	0.3781	0.5851	0.323
Mof_C 	C 	0.782	0.2114	0.7302	0.176
Mof_C 	C 	0.851	0.1736	0.7179	-0.199
Mof_H 	H 	0.8882	0.1838	0.6815	0.115
Mof_C 	C 	0.8638	0.1204	0.7606	0.102
Mof_H 	H 	0.9122	0.0961	0.755	0.015
Mof_C 	C 	0.8066	0.1036	0.8102	-0.144
Mof_C 	C 	0.7383	0.1411	0.8227	0.1
Mof_H 	H 	0.6993	0.1298	0.8569	0.015
Mof_C 	C 	0.7275	0.1948	0.7852	-0.202
Mof_H 	H 	0.6835	0.2203	0.7966	0.107
Mof_C 	C 	0.1849	0.5442	0.6495	0.34
Mof_C 	C 	0.6752	0.2913	0.665	0.185
Mof_C 	C 	0.6674	0.3494	0.6772	-0.211
Mof_H 	H 	0.7224	0.3716	0.698	0.115
Mof_C 	C 	0.5793	0.3751	0.6589	0.11
Mof_H 	H 	0.5754	0.4145	0.6672	0.015
Mof_C 	C 	0.4954	0.3428	0.6278	-0.151
Mof_C 	C 	0.5037	0.2853	0.6144	0.108
Mof_H 	H 	0.4487	0.2631	0.5938	0.01
Mof_C 	C 	0.5923	0.2593	0.6307	-0.21
Mof_H 	H 	0.5963	0.2204	0.6187	0.112
Mof_C 	C 	0.3995	0.3714	0.6114	0.346
Mof_C 	C 	0.1679	0.4879	0.4008	0.339
Mof_C 	C 	0.1659	0.5044	0.3071	-0.14
Mof_C 	C 	0.0869	0.5331	0.2526	0.095
Mof_H 	H 	0.0362	0.5427	0.2744	0.016
Mof_C 	C 	0.0828	0.5475	0.1675	-0.206
Mof_H 	H 	0.0286	0.5658	0.1317	0.106
Mof_C 	C 	0.1582	0.5354	0.1333	0.172
Mof_C 	C 	0.238	0.5081	0.189	-0.202
Mof_H 	H 	0.2908	0.5011	0.1691	0.111
Mof_C 	C 	0.2398	0.4914	0.2733	0.097
Mof_H 	H 	0.2921	0.4709	0.3081	0.02
Mof_C 	C 	0.186	0.5068	0.9922	0.183
Mof_C 	C 	0.1722	0.4492	0.0034	-0.226
Mof_H 	H 	0.1436	0.4373	0.0459	0.116
Mof_C 	C 	0.2004	0.409	0.9522	0.109
Mof_H 	H 	0.1924	0.3702	0.9621	0.016
Mof_C 	C 	0.2398	0.4248	0.8873	-0.136
Mof_C 	C 	0.2535	0.4822	0.8751	0.092
Mof_H 	H 	0.2808	0.4935	0.8313	0.023
Mof_C 	C 	0.2272	0.5242	0.927	-0.196
Mof_H 	H 	0.2371	0.563	0.9182	0.108
Mof_C 	C 	0.2653	0.38	0.8268	0.318
Mof_C 	C 	0.9088	0.094	0.5002	0.166
Mof_C 	C 	0.9711	0.0861	0.5845	-0.179
Mof_H 	H 	0.968	0.0525	0.6157	0.103
Mof_C 	C 	0.0381	0.1277	0.6228	0.066
Mof_H 	H 	0.0791	0.1217	0.6797	0.024
Mof_C 	C 	0.0452	0.1778	0.5785	-0.147
Mof_C 	C 	0.9781	0.187	0.4959	0.106
Mof_H 	H 	0.9791	0.2213	0.4658	0.013
Mof_C 	C 	0.9108	0.1463	0.4586	-0.202
Mof_H 	H 	0.8657	0.1538	0.4043	0.106
Mof_C 	C 	0.1222	0.2205	0.616	0.318
Mof_N 	N 	0.7657	0.2651	0.6864	-0.192
Mof_N 	N 	0.1545	0.5495	0.0448	-0.196
Mof_O 	O 	0.0418	0.40498	0.513	-0.284
Mof_O 	O 	0.1474	0.37634	0.6369	-0.295
Mof_O 	O 	0.2588	0.5255	0.6336	-0.281
Mof_O 	O 	0.1087	0.51699	0.6364	-0.293
Mof_O 	O 	0.395	0.4241	0.6121	-0.27
Mof_O 	O 	0.3262	0.3401	0.5962	-0.287
Mof_O 	O 	0.2246	0.4497	0.4403	-0.273
Mof_O 	O 	0.1114	0.51523	0.4337	-0.288
Mof_O 	O 	0.3126	0.3962	0.7768	-0.262
Mof_O 	O 	0.236	0.3293	0.8296	-0.268
Mof_O 	O 	0.1617	0.221	0.698	-0.27
Mof_O 	O 	0.148	0.2545	0.5656	-0.256
Mof_Cd	Cd	0.74273	0.80073	0.80323	0.463
Mof_Cd	Cd	0.76491	0.93774	0.91626	0.512
Mof_C 	C 	0.1591	0.7931	0.8393	0.21
Mof_C 	C 	0.0705	0.7996	0.7787	-0.255
Mof_H 	H 	0.0593	0.7858	0.7211	0.128
Mof_C 	C 	0.9975	0.8268	0.8033	0.169
Mof_H 	H 	0.9375	0.831	0.762	0.001
Mof_C 	C 	0.0133	0.8477	0.8883	-0.206
Mof_C 	C 	0.1037	0.841	0.9487	0.161
Mof_H 	H 	0.1154	0.8552	0.0061	-0.009
Mof_C 	C 	0.1762	0.8137	0.9247	-0.244
Mof_H 	H 	0.2361	0.8092	0.9659	0.126
Mof_C 	C 	0.9377	0.8781	0.9149	0.375
Mof_C 	C 	0.218	0.7114	0.7698	0.178
Mof_C 	C 	0.149	0.6736	0.7821	-0.203
Mof_H 	H 	0.1118	0.6838	0.8185	0.112
Mof_C 	C 	0.1362	0.6204	0.7394	0.103
Mof_H 	H 	0.0878	0.5961	0.745	0.01
Mof_C 	C 	0.1934	0.6036	0.6898	-0.147
Mof_C 	C 	0.2617	0.6411	0.6773	0.103
Mof_H 	H 	0.3007	0.6298	0.6431	0.014
Mof_C 	C 	0.2725	0.6948	0.7148	-0.205
Mof_H 	H 	0.3165	0.7203	0.7034	0.108
Mof_C 	C 	0.8151	0.0442	0.8505	0.338
Mof_C 	C 	0.3248	0.7913	0.835	0.187
Mof_C 	C 	0.3326	0.8494	0.8228	-0.212
Mof_H 	H 	0.2776	0.8716	0.802	0.116
Mof_C 	C 	0.4207	0.8751	0.8411	0.111
Mof_H 	H 	0.4246	0.9145	0.8328	0.016
Mof_C 	C 	0.5046	0.8428	0.8722	-0.151
Mof_C 	C 	0.4963	0.7853	0.8856	0.108
Mof_H 	H 	0.5513	0.7631	0.9062	0.011
Mof_C 	C 	0.4077	0.7593	0.8693	-0.211
Mof_H 	H 	0.4037	0.7204	0.8813	0.113
Mof_C 	C 	0.6005	0.8714	0.8886	0.346
Mof_C 	C 	0.8321	0.9879	0.0992	0.357
Mof_C 	C 	0.8341	0.0044	0.1929	-0.167
Mof_C 	C 	0.9131	0.0331	0.2474	0.116
Mof_H 	H 	0.9638	0.0427	0.2256	0.014
Mof_C 	C 	0.9172	0.0475	0.3325	-0.221
Mof_H 	H 	0.9714	0.0658	0.3683	0.118
Mof_C 	C 	0.8418	0.0354	0.3667	0.187
Mof_C 	C 	0.762	0.0081	0.311	-0.228
Mof_H 	H 	0.7092	0.0011	0.3309	0.119
Mof_C 	C 	0.7602	0.9914	0.2267	0.132
Mof_H 	H 	0.7079	0.9709	0.1919	0.01
Mof_C 	C 	0.814	0.0068	0.5078	0.157
Mof_C 	C 	0.8278	0.9492	0.4966	-0.184
Mof_H 	H 	0.8564	0.9373	0.4541	0.107
Mof_C 	C 	0.7996	0.909	0.5478	0.082
Mof_H 	H 	0.8076	0.8702	0.5379	0.026
Mof_C 	C 	0.7602	0.9248	0.6127	-0.121
Mof_C 	C 	0.7465	0.9822	0.6249	0.086
Mof_H 	H 	0.7192	0.9935	0.6687	0.027
Mof_C 	C 	0.7728	0.0242	0.573	-0.186
Mof_H 	H 	0.7629	0.063	0.5818	0.103
Mof_C 	C 	0.7347	0.88	0.6732	0.314
Mof_C 	C 	0.0912	0.594	0.9998	0.183
Mof_C 	C 	0.0289	0.5861	0.9155	-0.218
Mof_H 	H 	0.032	0.5525	0.8843	0.112
Mof_C 	C 	0.9619	0.6277	0.8772	0.1
Mof_H 	H 	0.9209	0.6217	0.8203	0.017
Mof_C 	C 	0.9548	0.6778	0.9215	-0.127
Mof_C 	C 	0.0219	0.687	0.0041	0.076
Mof_H 	H 	0.0209	0.7213	0.0342	0.015
Mof_C 	C 	0.0892	0.6463	0.0414	-0.207
Mof_H 	H 	0.1343	0.6538	0.0957	0.106
Mof_C 	C 	0.8778	0.7205	0.884	0.315
Mof_N 	N 	0.2343	0.7651	0.8136	-0.201
Mof_N 	N 	0.8455	0.0495	0.4552	-0.188
Mof_O 	O 	0.9582	0.90498	0.987	-0.283
Mof_O 	O 	0.8526	0.87634	0.8631	-0.305
Mof_O 	O 	0.7412	0.0255	0.8664	-0.283
Mof_O 	O 	0.8913	0.01699	0.8636	-0.287
Mof_O 	O 	0.605	0.9241	0.8879	-0.268
Mof_O 	O 	0.6738	0.8401	0.9038	-0.286
Mof_O 	O 	0.7754	0.9497	0.0597	-0.278
Mof_O 	O 	0.8886	0.01523	0.0663	-0.291
Mof_O 	O 	0.6874	0.8962	0.7232	-0.26
Mof_O 	O 	0.764	0.8293	0.6704	-0.265
Mof_O 	O 	0.8383	0.721	0.802	-0.267
Mof_O 	O 	0.852	0.7545	0.9344	-0.249
Mof_Cd	Cd	0.74273	0.69927	0.30323	0.462
Mof_Cd	Cd	0.76491	0.56226	0.41626	0.506
Mof_C 	C 	0.1591	0.7069	0.3393	0.206
Mof_C 	C 	0.0705	0.7004	0.2787	-0.253
Mof_H 	H 	0.0593	0.7142	0.2211	0.127
Mof_C 	C 	0.9975	0.6732	0.3033	0.168
Mof_H 	H 	0.9375	0.669	0.262	0.001
Mof_C 	C 	0.0133	0.6523	0.3883	-0.203
Mof_C 	C 	0.1037	0.659	0.4487	0.147
Mof_H 	H 	0.1154	0.6448	0.5061	-0
Mof_C 	C 	0.1762	0.6863	0.4247	-0.237
Mof_H 	H 	0.2361	0.6908	0.4659	0.122
Mof_C 	C 	0.9377	0.6219	0.4149	0.375
Mof_C 	C 	0.218	0.7886	0.2698	0.177
Mof_C 	C 	0.149	0.8264	0.2821	-0.202
Mof_H 	H 	0.1118	0.8162	0.3185	0.112
Mof_C 	C 	0.1362	0.8796	0.2394	0.102
Mof_H 	H 	0.0878	0.9039	0.245	0.011
Mof_C 	C 	0.1934	0.8964	0.1898	-0.145
Mof_C 	C 	0.2617	0.8589	0.1773	0.101
Mof_H 	H 	0.3007	0.8702	0.1431	0.013
Mof_C 	C 	0.2725	0.8052	0.2148	-0.204
Mof_H 	H 	0.3165	0.7797	0.2034	0.107
Mof_C 	C 	0.8151	0.4558	0.3505	0.337
Mof_C 	C 	0.3248	0.7087	0.335	0.187
Mof_C 	C 	0.3326	0.6506	0.3228	-0.214
Mof_H 	H 	0.2776	0.6284	0.302	0.115
Mof_C 	C 	0.4207	0.6249	0.3411	0.111
Mof_H 	H 	0.4246	0.5855	0.3328	0.014
Mof_C 	C 	0.5046	0.6572	0.3722	-0.153
Mof_C 	C 	0.4963	0.7147	0.3856	0.109
Mof_H 	H 	0.5513	0.7369	0.4062	0.01
Mof_C 	C 	0.4077	0.7407	0.3693	-0.212
Mof_H 	H 	0.4037	0.7796	0.3813	0.113
Mof_C 	C 	0.6005	0.6286	0.3886	0.346
Mof_C 	C 	0.8321	0.5121	0.5992	0.338
Mof_C 	C 	0.8341	0.4956	0.6929	-0.137
Mof_C 	C 	0.9131	0.4669	0.7474	0.094
Mof_H 	H 	0.9638	0.4573	0.7256	0.022
Mof_C 	C 	0.9172	0.4525	0.8325	-0.202
Mof_H 	H 	0.9714	0.4342	0.8683	0.113
Mof_C 	C 	0.8418	0.4646	0.8667	0.173
Mof_C 	C 	0.762	0.4919	0.811	-0.199
Mof_H 	H 	0.7092	0.4989	0.8309	0.112
Mof_C 	C 	0.7602	0.5086	0.7267	0.096
Mof_H 	H 	0.7079	0.5291	0.6919	0.021
Mof_C 	C 	0.814	0.4932	0.0078	0.138
Mof_C 	C 	0.8278	0.5508	0.9966	-0.159
Mof_H 	H 	0.8564	0.5627	0.9541	0.099
Mof_C 	C 	0.7996	0.591	0.0478	0.057
Mof_H 	H 	0.8076	0.6298	0.0379	0.033
Mof_C 	C 	0.7602	0.5752	0.1127	-0.106
Mof_C 	C 	0.7465	0.5178	0.1249	0.062
Mof_H 	H 	0.7192	0.5065	0.1687	0.033
Mof_C 	C 	0.7728	0.4758	0.073	-0.162
Mof_H 	H 	0.7629	0.437	0.0818	0.095
Mof_C 	C 	0.7347	0.62	0.1732	0.308
Mof_C 	C 	0.0912	0.906	0.4998	0.171
Mof_C 	C 	0.0289	0.9139	0.4155	-0.211
Mof_H 	H 	0.032	0.9475	0.3843	0.111
Mof_C 	C 	0.9619	0.8723	0.3772	0.095
Mof_H 	H 	0.9209	0.8783	0.3203	0.019
Mof_C 	C 	0.9548	0.8222	0.4215	-0.13
Mof_C 	C 	0.0219	0.813	0.5041	0.079
Mof_H 	H 	0.0209	0.7787	0.5342	0.016
Mof_C 	C 	0.0892	0.8537	0.5414	-0.196
Mof_H 	H 	0.1343	0.8462	0.5957	0.103
Mof_C 	C 	0.8778	0.7795	0.384	0.315
Mof_N 	N 	0.2343	0.7349	0.3136	-0.201
Mof_N 	N 	0.8455	0.4505	0.9552	-0.178
Mof_O 	O 	0.9582	0.59502	0.487	-0.287
Mof_O 	O 	0.8526	0.62366	0.3631	-0.306
Mof_O 	O 	0.7412	0.4745	0.3664	-0.281
Mof_O 	O 	0.8913	0.48301	0.3636	-0.286
Mof_O 	O 	0.605	0.5759	0.3879	-0.271
Mof_O 	O 	0.6738	0.6599	0.4038	-0.287
Mof_O 	O 	0.7754	0.5503	0.5597	-0.272
Mof_O 	O 	0.8886	0.48477	0.5663	-0.283
Mof_O 	O 	0.6874	0.6038	0.2232	-0.26
Mof_O 	O 	0.764	0.6707	0.1704	-0.264
Mof_O 	O 	0.8383	0.779	0.302	-0.268
Mof_O 	O 	0.852	0.7455	0.4344	-0.251
Mof_Cd	Cd	0.25727	0.19927	0.19677	0.46
Mof_Cd	Cd	0.23509	0.06226	0.08374	0.498
Mof_C 	C 	0.8409	0.2069	0.1607	0.145
Mof_C 	C 	0.9295	0.2004	0.2213	-0.143
Mof_H 	H 	0.9407	0.2142	0.2789	0.094
Mof_C 	C 	0.0025	0.1732	0.1967	0.026
Mof_H 	H 	0.0625	0.169	0.238	0.045
Mof_C 	C 	0.9867	0.1523	0.1117	-0.087
Mof_C 	C 	0.8963	0.159	0.0513	0.052
Mof_H 	H 	0.8846	0.1448	0.9939	0.04
Mof_C 	C 	0.8238	0.1863	0.0753	-0.16
Mof_H 	H 	0.7639	0.1908	0.0341	0.094
Mof_C 	C 	0.0623	0.1219	0.0851	0.317
Mof_C 	C 	0.782	0.2886	0.2302	0.175
Mof_C 	C 	0.851	0.3264	0.2179	-0.198
Mof_H 	H 	0.8882	0.3162	0.1815	0.114
Mof_C 	C 	0.8638	0.3796	0.2606	0.101
Mof_H 	H 	0.9122	0.4039	0.255	0.015
Mof_C 	C 	0.8066	0.3964	0.3102	-0.143
Mof_C 	C 	0.7383	0.3589	0.3227	0.099
Mof_H 	H 	0.6993	0.3702	0.3569	0.015
Mof_C 	C 	0.7275	0.3052	0.2852	-0.201
Mof_H 	H 	0.6835	0.2797	0.2966	0.107
Mof_C 	C 	0.1849	0.9558	0.1495	0.338
Mof_C 	C 	0.6752	0.2087	0.165	0.185
Mof_C 	C 	0.6674	0.1506	0.1772	-0.212
Mof_H 	H 	0.7224	0.1284	0.198	0.115
Mof_C 	C 	0.5793	0.1249	0.1589	0.11
Mof_H 	H 	0.5754	0.0855	0.1672	0.013
Mof_C 	C 	0.4954	0.1572	0.1278	-0.153
Mof_C 	C 	0.5037	0.2147	0.1144	0.108
Mof_H 	H 	0.4487	0.2369	0.0938	0.009
Mof_C 	C 	0.5923	0.2407	0.1307	-0.211
Mof_H 	H 	0.5963	0.2796	0.1187	0.111
Mof_C 	C 	0.3995	0.1286	0.1114	0.346
Mof_C 	C 	0.1679	0.0121	0.9008	0.307
Mof_C 	C 	0.1659	0.9956	0.8071	-0.093
Mof_C 	C 	0.0869	0.9669	0.7526	0.061
Mof_H 	H 	0.0362	0.9573	0.7744	0.029
Mof_C 	C 	0.0828	0.9525	0.6675	-0.176
Mof_H 	H 	0.0286	0.9342	0.6317	0.098
Mof_C 	C 	0.1582	0.9646	0.6333	0.151
Mof_C 	C 	0.238	0.9919	0.689	-0.157
Mof_H 	H 	0.2908	0.9989	0.6691	0.099
Mof_C 	C 	0.2398	0.0086	0.7733	0.04
Mof_H 	H 	0.2921	0.0291	0.8081	0.038
Mof_C 	C 	0.186	0.9932	0.4922	0.167
Mof_C 	C 	0.1722	0.0508	0.5034	-0.204
Mof_H 	H 	0.1436	0.0627	0.5459	0.108
Mof_C 	C 	0.2004	0.091	0.4522	0.084
Mof_H 	H 	0.1924	0.1298	0.4621	0.023
Mof_C 	C 	0.2398	0.0752	0.3873	-0.12
Mof_C 	C 	0.2535	0.0178	0.3751	0.064
Mof_H 	H 	0.2808	0.0065	0.3313	0.029
Mof_C 	C 	0.2272	0.9758	0.427	-0.169
Mof_H 	H 	0.2371	0.937	0.4182	0.099
Mof_C 	C 	0.2653	0.12	0.3268	0.312
Mof_C 	C 	0.9088	0.406	0.0002	0.156
Mof_C 	C 	0.9711	0.4139	0.0845	-0.177
Mof_H 	H 	0.968	0.4475	0.1157	0.103
Mof_C 	C 	0.0381	0.3723	0.1228	0.067
Mof_H 	H 	0.0791	0.3783	0.1797	0.024
Mof_C 	C 	0.0452	0.3222	0.0785	-0.151
Mof_C 	C 	0.9781	0.313	0.9959	0.109
Mof_H 	H 	0.9791	0.2787	0.9658	0.014
Mof_C 	C 	0.9108	0.3537	0.9586	-0.193
Mof_H 	H 	0.8657	0.3462	0.9043	0.104
Mof_C 	C 	0.1222	0.2795	0.116	0.319
Mof_N 	N 	0.7657	0.2349	0.1864	-0.19
Mof_N 	N 	0.1545	0.9505	0.5448	-0.184
Mof_O 	O 	0.0418	0.09502	0.013	-0.285
Mof_O 	O 	0.1474	0.12366	0.1369	-0.294
Mof_O 	O 	0.2588	0.9745	0.1336	-0.277
Mof_O 	O 	0.1087	0.98301	0.1364	-0.287
Mof_O 	O 	0.395	0.0759	0.1121	-0.273
Mof_O 	O 	0.3262	0.1599	0.0962	-0.288
Mof_O 	O 	0.2246	0.0503	0.9403	-0.264
Mof_O 	O 	0.1114	0.98477	0.9337	-0.27
Mof_O 	O 	0.3126	0.1038	0.2768	-0.262
Mof_O 	O 	0.236	0.1707	0.3296	-0.268
Mof_O 	O 	0.1617	0.279	0.198	-0.271
Mof_O 	O 	0.148	0.2455	0.0656	-0.258
Mof_Cd	Cd	2.60995e-33	0.5	0.5	0.507
Mof_Cd	Cd	-0	0	-0	0.493
_end
