data_functionalizedCrystal
_audit_creation_method	'EQeq! by Chris Wilmer'
_symmetry_space_group_name_H-M	'P1'
_symmetry_Int_Tables_number	1
_symmetry_cell_setting	triclinic
loop_
_symmetry_equiv_pos_as_xyz
  x,y,z
_cell_length_a	11.7135
_cell_length_b	11.7135
_cell_length_c	23.5469
_cell_angle_alpha	78.0901
_cell_angle_beta	78.0901
_cell_angle_gamma	79.4462
loop_
_atom_site_label
_atom_site_type_symbol
_atom_site_fract_x
_atom_site_fract_y
_atom_site_fract_z
_atom_site_charge
Mof_Ag	Ag	0.11247	0.08975	0.27392	0.751
Mof_Ag	Ag	0.08975	0.11247	0.77392	0.751
Mof_H 	H 	0.4583	0.2085	0.2837	0.112
Mof_H 	H 	0.6604	0.1428	0.2649	0.062
Mof_H 	H 	0.689	0.2126	0.4216	0.049
Mof_H 	H 	0.4868	0.2696	0.4409	0.099
Mof_H 	H 	0.4595	0.4633	0.3462	0.124
Mof_H 	H 	0.4088	0.6666	0.3245	0.041
Mof_H 	H 	0.0725	0.6305	0.3279	0.071
Mof_H 	H 	0.1232	0.4272	0.35	0.127
Mof_H 	H 	0.2258	0.4298	0.4586	0.1
Mof_H 	H 	0.1606	0.3818	0.5597	0.107
Mof_H 	H 	0.235	0.0374	0.5474	0.031
Mof_H 	H 	0.296	0.0868	0.4471	0.079
Mof_H 	H 	0.2085	0.4583	0.7837	0.112
Mof_H 	H 	0.1428	0.6604	0.7649	0.062
Mof_H 	H 	0.2126	0.689	0.9216	0.049
Mof_H 	H 	0.2696	0.4868	0.9409	0.099
Mof_H 	H 	0.4633	0.4595	0.8462	0.124
Mof_H 	H 	0.6666	0.4088	0.8245	0.041
Mof_H 	H 	0.6305	0.0725	0.8279	0.071
Mof_H 	H 	0.4272	0.1232	0.85	0.127
Mof_H 	H 	0.4298	0.2258	0.9586	0.1
Mof_H 	H 	0.3818	0.1606	0.0597	0.106
Mof_H 	H 	0.0374	0.235	0.0474	0.031
Mof_H 	H 	0.0868	0.296	0.9471	0.079
Mof_C 	C 	0.3196	0.2924	0.3764	-0.135
Mof_C 	C 	0.4529	0.2451	0.3644	0.108
Mof_C 	C 	0.5045	0.2079	0.3115	-0.113
Mof_C 	C 	0.6256	0.1698	0.2999	0.04
Mof_C 	C 	0.6942	0.1728	0.3414	-0.057
Mof_C 	C 	0.6429	0.2107	0.3941	0.061
Mof_C 	C 	0.5219	0.2455	0.4053	-0.131
Mof_C 	C 	0.8194	0.14	0.3273	0.14
Mof_C 	C 	0.2581	0.2305	0.345	0.141
Mof_C 	C 	0.2934	0.4254	0.3527	0.118
Mof_C 	C 	0.3819	0.4967	0.3435	-0.137
Mof_C 	C 	0.3512	0.6182	0.3304	0.039
Mof_C 	C 	0.2362	0.6682	0.3259	-0.062
Mof_C 	C 	0.1492	0.5972	0.3324	0.025
Mof_C 	C 	0.1801	0.4757	0.3457	-0.128
Mof_C 	C 	0.2063	0.7955	0.3152	0.114
Mof_C 	C 	0.2693	0.2639	0.4428	0.098
Mof_C 	C 	0.2275	0.3511	0.4765	-0.104
Mof_C 	C 	0.1879	0.3229	0.5371	0.008
Mof_C 	C 	0.1901	0.2047	0.5629	-0.043
Mof_C 	C 	0.2323	0.1163	0.5295	0.013
Mof_C 	C 	0.2699	0.1459	0.4698	-0.116
Mof_C 	C 	0.1525	0.1765	0.6258	0.14
Mof_C 	C 	0.2924	0.3196	0.8764	-0.135
Mof_C 	C 	0.2451	0.4529	0.8644	0.108
Mof_C 	C 	0.2079	0.5045	0.8115	-0.113
Mof_C 	C 	0.1698	0.6256	0.7999	0.04
Mof_C 	C 	0.1728	0.6942	0.8414	-0.057
Mof_C 	C 	0.2107	0.6429	0.8941	0.061
Mof_C 	C 	0.2455	0.5219	0.9053	-0.131
Mof_C 	C 	0.14	0.8194	0.8273	0.14
Mof_C 	C 	0.2305	0.2581	0.845	0.141
Mof_C 	C 	0.4254	0.2934	0.8527	0.118
Mof_C 	C 	0.4967	0.3819	0.8435	-0.137
Mof_C 	C 	0.6182	0.3512	0.8304	0.039
Mof_C 	C 	0.6682	0.2362	0.8259	-0.062
Mof_C 	C 	0.5972	0.1492	0.8324	0.025
Mof_C 	C 	0.4757	0.1801	0.8457	-0.128
Mof_C 	C 	0.7955	0.2063	0.8152	0.114
Mof_C 	C 	0.2639	0.2693	0.9428	0.098
Mof_C 	C 	0.3511	0.2275	0.9765	-0.105
Mof_C 	C 	0.3229	0.1879	0.0371	0.008
Mof_C 	C 	0.2047	0.1901	0.0629	-0.043
Mof_C 	C 	0.1163	0.2323	0.0295	0.013
Mof_C 	C 	0.1459	0.2699	0.9698	-0.116
Mof_C 	C 	0.1765	0.1525	0.1258	0.14
Mof_N 	N 	0.9198	0.1158	0.3144	-0.202
Mof_N 	N 	0.1831	0.8949	0.3064	-0.208
Mof_N 	N 	0.1241	0.1535	0.6756	-0.206
Mof_N 	N 	0.2122	0.1848	0.3201	-0.188
Mof_N 	N 	0.1158	0.9198	0.8144	-0.202
Mof_N 	N 	0.8949	0.1831	0.8064	-0.208
Mof_N 	N 	0.1535	0.1241	0.1756	-0.206
Mof_N 	N 	0.1848	0.2122	0.8201	-0.188
Mof_Ag	Ag	0.91025	0.88753	0.22608	0.751
Mof_Ag	Ag	0.88753	0.91025	0.72608	0.751
Mof_H 	H 	0.7915	0.5417	0.2163	0.112
Mof_H 	H 	0.8572	0.3396	0.2351	0.062
Mof_H 	H 	0.7874	0.311	0.0784	0.049
Mof_H 	H 	0.7304	0.5132	0.0591	0.099
Mof_H 	H 	0.5367	0.5405	0.1538	0.124
Mof_H 	H 	0.3334	0.5912	0.1755	0.041
Mof_H 	H 	0.3695	0.9275	0.1721	0.071
Mof_H 	H 	0.5728	0.8768	0.15	0.127
Mof_H 	H 	0.5702	0.7742	0.0414	0.1
Mof_H 	H 	0.6182	0.8394	0.9403	0.106
Mof_H 	H 	0.9626	0.765	0.9526	0.031
Mof_H 	H 	0.9132	0.704	0.0529	0.079
Mof_H 	H 	0.5417	0.7915	0.7163	0.112
Mof_H 	H 	0.3396	0.8572	0.7351	0.062
Mof_H 	H 	0.311	0.7874	0.5784	0.049
Mof_H 	H 	0.5132	0.7304	0.5591	0.099
Mof_H 	H 	0.5405	0.5367	0.6538	0.124
Mof_H 	H 	0.5912	0.3334	0.6755	0.041
Mof_H 	H 	0.9275	0.3695	0.6721	0.071
Mof_H 	H 	0.8768	0.5728	0.65	0.127
Mof_H 	H 	0.7742	0.5702	0.5414	0.1
Mof_H 	H 	0.8394	0.6182	0.4403	0.107
Mof_H 	H 	0.765	0.9626	0.4526	0.031
Mof_H 	H 	0.704	0.9132	0.5529	0.079
Mof_C 	C 	0.7076	0.6804	0.1236	-0.135
Mof_C 	C 	0.7549	0.5471	0.1356	0.108
Mof_C 	C 	0.7921	0.4955	0.1885	-0.113
Mof_C 	C 	0.8302	0.3744	0.2001	0.04
Mof_C 	C 	0.8272	0.3058	0.1586	-0.057
Mof_C 	C 	0.7893	0.3571	0.1059	0.061
Mof_C 	C 	0.7545	0.4781	0.0947	-0.131
Mof_C 	C 	0.86	0.1806	0.1727	0.14
Mof_C 	C 	0.7695	0.7419	0.155	0.141
Mof_C 	C 	0.5746	0.7066	0.1473	0.118
Mof_C 	C 	0.5033	0.6181	0.1565	-0.137
Mof_C 	C 	0.3818	0.6488	0.1696	0.039
Mof_C 	C 	0.3318	0.7638	0.1741	-0.062
Mof_C 	C 	0.4028	0.8508	0.1676	0.025
Mof_C 	C 	0.5243	0.8199	0.1543	-0.128
Mof_C 	C 	0.2045	0.7937	0.1848	0.114
Mof_C 	C 	0.7361	0.7307	0.0572	0.098
Mof_C 	C 	0.6489	0.7725	0.0235	-0.105
Mof_C 	C 	0.6771	0.8121	0.9629	0.008
Mof_C 	C 	0.7953	0.8099	0.9371	-0.043
Mof_C 	C 	0.8837	0.7677	0.9705	0.013
Mof_C 	C 	0.8541	0.7301	0.0302	-0.116
Mof_C 	C 	0.8235	0.8475	0.8742	0.14
Mof_C 	C 	0.6804	0.7076	0.6236	-0.135
Mof_C 	C 	0.5471	0.7549	0.6356	0.108
Mof_C 	C 	0.4955	0.7921	0.6885	-0.113
Mof_C 	C 	0.3744	0.8302	0.7001	0.04
Mof_C 	C 	0.3058	0.8272	0.6586	-0.057
Mof_C 	C 	0.3571	0.7893	0.6059	0.061
Mof_C 	C 	0.4781	0.7545	0.5947	-0.131
Mof_C 	C 	0.1806	0.86	0.6727	0.14
Mof_C 	C 	0.7419	0.7695	0.655	0.141
Mof_C 	C 	0.7066	0.5746	0.6473	0.118
Mof_C 	C 	0.6181	0.5033	0.6565	-0.137
Mof_C 	C 	0.6488	0.3818	0.6696	0.039
Mof_C 	C 	0.7638	0.3318	0.6741	-0.062
Mof_C 	C 	0.8508	0.4028	0.6676	0.025
Mof_C 	C 	0.8199	0.5243	0.6543	-0.128
Mof_C 	C 	0.7937	0.2045	0.6848	0.114
Mof_C 	C 	0.7307	0.7361	0.5572	0.098
Mof_C 	C 	0.7725	0.6489	0.5235	-0.104
Mof_C 	C 	0.8121	0.6771	0.4629	0.008
Mof_C 	C 	0.8099	0.7953	0.4371	-0.043
Mof_C 	C 	0.7677	0.8837	0.4705	0.013
Mof_C 	C 	0.7301	0.8541	0.5302	-0.116
Mof_C 	C 	0.8475	0.8235	0.3742	0.14
Mof_N 	N 	0.8842	0.0802	0.1856	-0.202
Mof_N 	N 	0.1051	0.8169	0.1936	-0.208
Mof_N 	N 	0.8465	0.8759	0.8244	-0.206
Mof_N 	N 	0.8152	0.7878	0.1799	-0.188
Mof_N 	N 	0.0802	0.8842	0.6856	-0.202
Mof_N 	N 	0.8169	0.1051	0.6936	-0.208
Mof_N 	N 	0.8759	0.8465	0.3244	-0.206
Mof_N 	N 	0.7878	0.8152	0.6799	-0.188
Mof_B 	B 	0.8533	0.4415	0.3547	3.498
Mof_F 	F 	0.7577	0.4409	0.3317	-1.138
Mof_F 	F 	0.8823	0.5517	0.3463	-1.136
Mof_F 	F 	0.8194	0.41	0.4159	-1.043
Mof_F 	F 	0.9438	0.364	0.3321	-1.148
Mof_B 	B 	0.5585	0.1467	0.1453	3.498
Mof_F 	F 	0.5591	0.2423	0.1683	-1.138
Mof_F 	F 	0.4483	0.1177	0.1537	-1.136
Mof_F 	F 	0.59	0.1806	0.0841	-1.043
Mof_F 	F 	0.636	0.0562	0.1679	-1.148
Mof_B 	B 	0.1467	0.5585	0.6453	3.498
Mof_F 	F 	0.2423	0.5591	0.6683	-1.138
Mof_F 	F 	0.1177	0.4483	0.6537	-1.136
Mof_F 	F 	0.1806	0.59	0.5841	-1.043
Mof_F 	F 	0.0562	0.636	0.6679	-1.148
Mof_B 	B 	0.4415	0.8533	0.8547	3.498
Mof_F 	F 	0.4409	0.7577	0.8317	-1.138
Mof_F 	F 	0.5517	0.8823	0.8463	-1.136
Mof_F 	F 	0.41	0.8194	0.9159	-1.043
Mof_F 	F 	0.364	0.9438	0.8321	-1.148
_end
