data_functionalizedCrystal
_audit_creation_method	'EQeq! by Chris Wilmer'
_symmetry_space_group_name_H-M	'P1'
_symmetry_Int_Tables_number	1
_symmetry_cell_setting	triclinic
loop_
_symmetry_equiv_pos_as_xyz
  x,y,z
_cell_length_a	18.453
_cell_length_b	18.453
_cell_length_c	27.7826
_cell_angle_alpha	70.6039
_cell_angle_beta	70.6039
_cell_angle_gamma	60
loop_
_atom_site_label
_atom_site_type_symbol
_atom_site_fract_x
_atom_site_fract_y
_atom_site_fract_z
_atom_site_charge
Mof_Cu	Cu	0.22113	0.78383	0.79225	0.909
Mof_Cu	Cu	0.78383	0.20279	0.79225	0.909
Mof_Cu	Cu	0.20279	0.22113	0.79225	0.909
Mof_Cu	Cu	0.27887	0.29721	0.70775	0.909
Mof_Cu	Cu	0.71617	0.27887	0.70775	0.909
Mof_Cu	Cu	0.29721	0.71617	0.70775	0.909
Mof_Cu	Cu	0.77887	0.21617	0.20775	0.909
Mof_Cu	Cu	0.21617	0.79721	0.20775	0.909
Mof_Cu	Cu	0.79721	0.77887	0.20775	0.909
Mof_Cu	Cu	0.72113	0.70279	0.29225	0.909
Mof_Cu	Cu	0.28383	0.72113	0.29225	0.908
Mof_Cu	Cu	0.70279	0.28383	0.29225	0.908
Mof_H 	H 	0.0889	0.4123	0.8821	0.059
Mof_H 	H 	0.1004	0.6227	0.8854	0.06
Mof_H 	H 	0.2099	0.5236	0.7549	0.054
Mof_H 	H 	0.9351	0.5611	0.8851	0.058
Mof_H 	H 	0.2023	0.476	0.9406	0.059
Mof_H 	H 	0.7957	0.5854	0.9067	0.041
Mof_H 	H 	0.273	0.4358	0.0054	0.043
Mof_H 	H 	0.4123	0.6167	0.8821	0.059
Mof_H 	H 	0.6227	0.3915	0.8854	0.06
Mof_H 	H 	0.5236	0.5116	0.7549	0.054
Mof_H 	H 	0.5611	0.6187	0.8851	0.058
Mof_H 	H 	0.476	0.3811	0.9406	0.059
Mof_H 	H 	0.5854	0.7122	0.9067	0.041
Mof_H 	H 	0.4358	0.2858	0.0054	0.043
Mof_H 	H 	0.6167	0.0889	0.8821	0.059
Mof_H 	H 	0.3915	0.1004	0.8854	0.06
Mof_H 	H 	0.5116	0.2099	0.7549	0.054
Mof_H 	H 	0.6187	0.9351	0.8851	0.058
Mof_H 	H 	0.3811	0.2023	0.9406	0.059
Mof_H 	H 	0.7122	0.7957	0.9067	0.041
Mof_H 	H 	0.2858	0.273	0.0054	0.043
Mof_H 	H 	0.4111	0.8833	0.6179	0.059
Mof_H 	H 	0.3996	0.1085	0.6146	0.06
Mof_H 	H 	0.2901	0.9884	0.7451	0.054
Mof_H 	H 	0.5649	0.8813	0.6149	0.058
Mof_H 	H 	0.2977	0.1189	0.5594	0.059
Mof_H 	H 	0.7043	0.7878	0.5933	0.041
Mof_H 	H 	0.227	0.2142	0.4946	0.043
Mof_H 	H 	0.0877	0.4111	0.6179	0.059
Mof_H 	H 	0.8773	0.3996	0.6146	0.06
Mof_H 	H 	0.9764	0.2901	0.7451	0.054
Mof_H 	H 	0.9389	0.5649	0.6149	0.058
Mof_H 	H 	0.024	0.2977	0.5594	0.059
Mof_H 	H 	0.9146	0.7043	0.5933	0.041
Mof_H 	H 	0.0642	0.227	0.4946	0.043
Mof_H 	H 	0.8833	0.0877	0.6179	0.059
Mof_H 	H 	0.1085	0.8773	0.6146	0.06
Mof_H 	H 	0.9884	0.9764	0.7451	0.054
Mof_H 	H 	0.8813	0.9389	0.6149	0.058
Mof_H 	H 	0.1189	0.024	0.5594	0.059
Mof_H 	H 	0.7878	0.9146	0.5933	0.041
Mof_H 	H 	0.2142	0.0642	0.4946	0.043
Mof_H 	H 	0.9111	0.5877	0.1179	0.059
Mof_H 	H 	0.8996	0.3773	0.1146	0.06
Mof_H 	H 	0.7901	0.4764	0.2451	0.054
Mof_H 	H 	0.0649	0.4389	0.1149	0.058
Mof_H 	H 	0.7977	0.524	0.0594	0.059
Mof_H 	H 	0.2043	0.4146	0.0933	0.041
Mof_H 	H 	0.727	0.5642	0.9946	0.043
Mof_H 	H 	0.5877	0.3833	0.1179	0.059
Mof_H 	H 	0.3773	0.6085	0.1146	0.06
Mof_H 	H 	0.4764	0.4884	0.2451	0.054
Mof_H 	H 	0.4389	0.3813	0.1149	0.058
Mof_H 	H 	0.524	0.6189	0.0594	0.059
Mof_H 	H 	0.4146	0.2878	0.0933	0.041
Mof_H 	H 	0.5642	0.7142	0.9946	0.043
Mof_H 	H 	0.3833	0.9111	0.1179	0.059
Mof_H 	H 	0.6085	0.8996	0.1146	0.06
Mof_H 	H 	0.4884	0.7901	0.2451	0.054
Mof_H 	H 	0.3813	0.0649	0.1149	0.058
Mof_H 	H 	0.6189	0.7977	0.0594	0.059
Mof_H 	H 	0.2878	0.2043	0.0933	0.041
Mof_H 	H 	0.7142	0.727	0.9946	0.043
Mof_H 	H 	0.5889	0.1167	0.3821	0.059
Mof_H 	H 	0.6004	0.8915	0.3854	0.06
Mof_H 	H 	0.7099	0.0116	0.2549	0.054
Mof_H 	H 	0.4351	0.1187	0.3851	0.058
Mof_H 	H 	0.7023	0.8811	0.4406	0.059
Mof_H 	H 	0.2957	0.2122	0.4067	0.041
Mof_H 	H 	0.773	0.7858	0.5054	0.043
Mof_H 	H 	0.9123	0.5889	0.3821	0.059
Mof_H 	H 	0.1227	0.6004	0.3854	0.06
Mof_H 	H 	0.0236	0.7099	0.2549	0.054
Mof_H 	H 	0.0611	0.4351	0.3851	0.058
Mof_H 	H 	0.976	0.7023	0.4406	0.059
Mof_H 	H 	0.0854	0.2957	0.4067	0.041
Mof_H 	H 	0.9358	0.773	0.5054	0.043
Mof_H 	H 	0.1167	0.9123	0.3821	0.059
Mof_H 	H 	0.8915	0.1227	0.3854	0.06
Mof_H 	H 	0.0116	0.0236	0.2549	0.054
Mof_H 	H 	0.1187	0.0611	0.3851	0.058
Mof_H 	H 	0.8811	0.976	0.4406	0.059
Mof_H 	H 	0.2122	0.0854	0.4067	0.041
Mof_H 	H 	0.7858	0.9358	0.5054	0.043
Mof_C 	C 	0.18159	0.38725	0.78868	0.358
Mof_C 	C 	0.08703	0.51728	0.89215	0.016
Mof_C 	C 	0.19414	0.6482	0.7912	0.363
Mof_C 	C 	0.10689	0.45631	0.86539	-0.029
Mof_C 	C 	0.08656	0.48538	0.98719	0.017
Mof_C 	C 	0.95677	0.52492	0.96007	0.015
Mof_C 	C 	0.11357	0.58063	0.86737	-0.031
Mof_C 	C 	0.15956	0.58369	0.81616	-0.081
Mof_C 	C 	0.04124	0.51065	0.94771	-0.03
Mof_C 	C 	0.17868	0.52194	0.79	0.025
Mof_C 	C 	0.90825	0.55265	0.92095	-0.062
Mof_C 	C 	0.15238	0.45836	0.81484	-0.083
Mof_C 	C 	0.17315	0.46937	0.97591	-0.063
Mof_C 	C 	0.82605	0.56705	0.93355	-0.028
Mof_C 	C 	0.21517	0.44497	0.01389	-0.031
Mof_C 	C 	0.38725	0.64248	0.78868	0.358
Mof_C 	C 	0.51728	0.50354	0.89215	0.017
Mof_C 	C 	0.6482	0.36646	0.7912	0.363
Mof_C 	C 	0.45631	0.57141	0.86539	-0.029
Mof_C 	C 	0.48538	0.44087	0.98719	0.016
Mof_C 	C 	0.52492	0.55824	0.96007	0.016
Mof_C 	C 	0.58063	0.43843	0.86737	-0.031
Mof_C 	C 	0.58369	0.44059	0.81616	-0.081
Mof_C 	C 	0.51065	0.5004	0.94771	-0.03
Mof_C 	C 	0.52194	0.50938	0.79	0.025
Mof_C 	C 	0.55265	0.61815	0.92095	-0.062
Mof_C 	C 	0.45836	0.57442	0.81484	-0.083
Mof_C 	C 	0.46937	0.38157	0.97591	-0.063
Mof_C 	C 	0.56705	0.67335	0.93355	-0.028
Mof_C 	C 	0.44497	0.32597	0.01389	-0.031
Mof_C 	C 	0.64248	0.18159	0.78868	0.358
Mof_C 	C 	0.50354	0.08703	0.89215	0.016
Mof_C 	C 	0.36646	0.19414	0.7912	0.363
Mof_C 	C 	0.57141	0.10689	0.86539	-0.029
Mof_C 	C 	0.44087	0.08656	0.98719	0.017
Mof_C 	C 	0.55824	0.95677	0.96007	0.015
Mof_C 	C 	0.43843	0.11357	0.86737	-0.031
Mof_C 	C 	0.44059	0.15956	0.81616	-0.081
Mof_C 	C 	0.5004	0.04124	0.94771	-0.03
Mof_C 	C 	0.50938	0.17868	0.79	0.025
Mof_C 	C 	0.61815	0.90825	0.92095	-0.062
Mof_C 	C 	0.57442	0.15238	0.81484	-0.083
Mof_C 	C 	0.38157	0.17315	0.97591	-0.063
Mof_C 	C 	0.67335	0.82605	0.93355	-0.028
Mof_C 	C 	0.32597	0.21517	0.01389	-0.031
Mof_C 	C 	0.31841	0.85752	0.71132	0.358
Mof_C 	C 	0.41297	0.99646	0.60785	0.017
Mof_C 	C 	0.30586	0.13354	0.7088	0.364
Mof_C 	C 	0.39311	0.92859	0.63461	-0.029
Mof_C 	C 	0.41344	0.05913	0.51281	0.016
Mof_C 	C 	0.54323	0.94176	0.53993	0.016
Mof_C 	C 	0.38643	0.06157	0.63263	-0.031
Mof_C 	C 	0.34044	0.05941	0.68384	-0.081
Mof_C 	C 	0.45876	0.9996	0.55229	-0.03
Mof_C 	C 	0.32132	0.99062	0.71	0.025
Mof_C 	C 	0.59175	0.88185	0.57905	-0.062
Mof_C 	C 	0.34762	0.92558	0.68516	-0.083
Mof_C 	C 	0.32685	0.11843	0.52409	-0.063
Mof_C 	C 	0.67395	0.82665	0.56645	-0.028
Mof_C 	C 	0.28483	0.17403	0.48611	-0.031
Mof_C 	C 	0.11275	0.31841	0.71132	0.358
Mof_C 	C 	0.98272	0.41297	0.60785	0.017
Mof_C 	C 	0.8518	0.30586	0.7088	0.363
Mof_C 	C 	0.04369	0.39311	0.63461	-0.029
Mof_C 	C 	0.01462	0.41344	0.51281	0.016
Mof_C 	C 	0.97508	0.54323	0.53993	0.016
Mof_C 	C 	0.91937	0.38643	0.63263	-0.031
Mof_C 	C 	0.91631	0.34044	0.68384	-0.081
Mof_C 	C 	0.98935	0.45876	0.55229	-0.03
Mof_C 	C 	0.97806	0.32132	0.71	0.025
Mof_C 	C 	0.94735	0.59175	0.57905	-0.062
Mof_C 	C 	0.04164	0.34762	0.68516	-0.083
Mof_C 	C 	0.03063	0.32685	0.52409	-0.063
Mof_C 	C 	0.93295	0.67395	0.56645	-0.028
Mof_C 	C 	0.05503	0.28483	0.48611	-0.031
Mof_C 	C 	0.85752	0.11275	0.71132	0.358
Mof_C 	C 	0.99646	0.98272	0.60785	0.015
Mof_C 	C 	0.13354	0.8518	0.7088	0.363
Mof_C 	C 	0.92859	0.04369	0.63461	-0.028
Mof_C 	C 	0.05913	0.01462	0.51281	0.016
Mof_C 	C 	0.94176	0.97508	0.53993	0.015
Mof_C 	C 	0.06157	0.91937	0.63263	-0.03
Mof_C 	C 	0.05941	0.91631	0.68384	-0.08
Mof_C 	C 	0.9996	0.98935	0.55229	-0.03
Mof_C 	C 	0.99062	0.97806	0.71	0.023
Mof_C 	C 	0.88185	0.94735	0.57905	-0.062
Mof_C 	C 	0.92558	0.04164	0.68516	-0.082
Mof_C 	C 	0.11843	0.03063	0.52409	-0.063
Mof_C 	C 	0.82665	0.93295	0.56645	-0.028
Mof_C 	C 	0.17403	0.05503	0.48611	-0.031
Mof_C 	C 	0.81841	0.61275	0.21132	0.358
Mof_C 	C 	0.91297	0.48272	0.10785	0.016
Mof_C 	C 	0.80586	0.3518	0.2088	0.363
Mof_C 	C 	0.89311	0.54369	0.13461	-0.029
Mof_C 	C 	0.91344	0.51462	0.01281	0.017
Mof_C 	C 	0.04323	0.47508	0.03993	0.015
Mof_C 	C 	0.88643	0.41937	0.13263	-0.031
Mof_C 	C 	0.84044	0.41631	0.18384	-0.081
Mof_C 	C 	0.95876	0.48935	0.05229	-0.03
Mof_C 	C 	0.82132	0.47806	0.21	0.025
Mof_C 	C 	0.09175	0.44735	0.07905	-0.062
Mof_C 	C 	0.84762	0.54164	0.18516	-0.083
Mof_C 	C 	0.82685	0.53063	0.02409	-0.063
Mof_C 	C 	0.17395	0.43295	0.06645	-0.028
Mof_C 	C 	0.78483	0.55503	0.98611	-0.031
Mof_C 	C 	0.61275	0.35752	0.21132	0.358
Mof_C 	C 	0.48272	0.49646	0.10785	0.017
Mof_C 	C 	0.3518	0.63354	0.2088	0.363
Mof_C 	C 	0.54369	0.42859	0.13461	-0.029
Mof_C 	C 	0.51462	0.55913	0.01281	0.016
Mof_C 	C 	0.47508	0.44176	0.03993	0.016
Mof_C 	C 	0.41937	0.56157	0.13263	-0.031
Mof_C 	C 	0.41631	0.55941	0.18384	-0.081
Mof_C 	C 	0.48935	0.4996	0.05229	-0.03
Mof_C 	C 	0.47806	0.49062	0.21	0.025
Mof_C 	C 	0.44735	0.38185	0.07905	-0.062
Mof_C 	C 	0.54164	0.42558	0.18516	-0.083
Mof_C 	C 	0.53063	0.61843	0.02409	-0.063
Mof_C 	C 	0.43295	0.32665	0.06645	-0.028
Mof_C 	C 	0.55503	0.67403	0.98611	-0.031
Mof_C 	C 	0.35752	0.81841	0.21132	0.358
Mof_C 	C 	0.49646	0.91297	0.10785	0.016
Mof_C 	C 	0.63354	0.80586	0.2088	0.363
Mof_C 	C 	0.42859	0.89311	0.13461	-0.029
Mof_C 	C 	0.55913	0.91344	0.01281	0.017
Mof_C 	C 	0.44176	0.04323	0.03993	0.015
Mof_C 	C 	0.56157	0.88643	0.13263	-0.031
Mof_C 	C 	0.55941	0.84044	0.18384	-0.081
Mof_C 	C 	0.4996	0.95876	0.05229	-0.03
Mof_C 	C 	0.49062	0.82132	0.21	0.025
Mof_C 	C 	0.38185	0.09175	0.07905	-0.062
Mof_C 	C 	0.42558	0.84762	0.18516	-0.083
Mof_C 	C 	0.61843	0.82685	0.02409	-0.063
Mof_C 	C 	0.32665	0.17395	0.06645	-0.028
Mof_C 	C 	0.67403	0.78483	0.98611	-0.031
Mof_C 	C 	0.68159	0.14248	0.28868	0.358
Mof_C 	C 	0.58703	0.00354	0.39215	0.017
Mof_C 	C 	0.69414	0.86646	0.2912	0.364
Mof_C 	C 	0.60689	0.07141	0.36539	-0.029
Mof_C 	C 	0.58656	0.94087	0.48719	0.016
Mof_C 	C 	0.45677	0.05824	0.46007	0.016
Mof_C 	C 	0.61357	0.93843	0.36737	-0.031
Mof_C 	C 	0.65956	0.94059	0.31616	-0.081
Mof_C 	C 	0.54124	0.0004	0.44771	-0.03
Mof_C 	C 	0.67868	0.00938	0.29	0.025
Mof_C 	C 	0.40825	0.11815	0.42095	-0.062
Mof_C 	C 	0.65238	0.07442	0.31484	-0.083
Mof_C 	C 	0.67315	0.88157	0.47591	-0.063
Mof_C 	C 	0.32605	0.17335	0.43355	-0.028
Mof_C 	C 	0.71517	0.82597	0.51389	-0.031
Mof_C 	C 	0.88725	0.68159	0.28868	0.358
Mof_C 	C 	0.01728	0.58703	0.39215	0.017
Mof_C 	C 	0.1482	0.69414	0.2912	0.363
Mof_C 	C 	0.95631	0.60689	0.36539	-0.029
Mof_C 	C 	0.98538	0.58656	0.48719	0.016
Mof_C 	C 	0.02492	0.45677	0.46007	0.016
Mof_C 	C 	0.08063	0.61357	0.36737	-0.031
Mof_C 	C 	0.08369	0.65956	0.31616	-0.081
Mof_C 	C 	0.01065	0.54124	0.44771	-0.03
Mof_C 	C 	0.02194	0.67868	0.29	0.025
Mof_C 	C 	0.05265	0.40825	0.42095	-0.062
Mof_C 	C 	0.95836	0.65238	0.31484	-0.083
Mof_C 	C 	0.96937	0.67315	0.47591	-0.063
Mof_C 	C 	0.06705	0.32605	0.43355	-0.028
Mof_C 	C 	0.94497	0.71517	0.51389	-0.031
Mof_C 	C 	0.14248	0.88725	0.28868	0.358
Mof_C 	C 	0.00354	0.01728	0.39215	0.015
Mof_C 	C 	0.86646	0.1482	0.2912	0.363
Mof_C 	C 	0.07141	0.95631	0.36539	-0.028
Mof_C 	C 	0.94087	0.98538	0.48719	0.016
Mof_C 	C 	0.05824	0.02492	0.46007	0.015
Mof_C 	C 	0.93843	0.08063	0.36737	-0.03
Mof_C 	C 	0.94059	0.08369	0.31616	-0.08
Mof_C 	C 	0.0004	0.01065	0.44771	-0.03
Mof_C 	C 	0.00938	0.02194	0.29	0.023
Mof_C 	C 	0.11815	0.05265	0.42095	-0.062
Mof_C 	C 	0.07442	0.95836	0.31484	-0.082
Mof_C 	C 	0.88157	0.96937	0.47591	-0.063
Mof_C 	C 	0.17335	0.06705	0.43355	-0.028
Mof_C 	C 	0.82597	0.94497	0.51389	-0.031
Mof_O 	O 	0.17767	0.69856	0.81841	-0.413
Mof_O 	O 	0.22816	0.38978	0.74419	-0.411
Mof_O 	O 	0.23774	0.64417	0.7459	-0.409
Mof_O 	O 	0.15861	0.32876	0.81418	-0.407
Mof_O 	O 	0.69856	0.30536	0.81841	-0.413
Mof_O 	O 	0.38978	0.63787	0.74419	-0.411
Mof_O 	O 	0.64417	0.37219	0.7459	-0.409
Mof_O 	O 	0.32876	0.69845	0.81418	-0.407
Mof_O 	O 	0.30536	0.17767	0.81841	-0.413
Mof_O 	O 	0.63787	0.22816	0.74419	-0.41
Mof_O 	O 	0.37219	0.23774	0.7459	-0.409
Mof_O 	O 	0.69845	0.15861	0.81418	-0.407
Mof_O 	O 	0.32233	0.19464	0.68159	-0.413
Mof_O 	O 	0.27184	0.86213	0.75581	-0.41
Mof_O 	O 	0.26226	0.12781	0.7541	-0.409
Mof_O 	O 	0.34139	0.80155	0.68582	-0.407
Mof_O 	O 	0.80144	0.32233	0.68159	-0.413
Mof_O 	O 	0.11022	0.27184	0.75581	-0.411
Mof_O 	O 	0.85583	0.26226	0.7541	-0.409
Mof_O 	O 	0.17124	0.34139	0.68582	-0.407
Mof_O 	O 	0.19464	0.80144	0.68159	-0.413
Mof_O 	O 	0.86213	0.11022	0.75581	-0.41
Mof_O 	O 	0.12781	0.85583	0.7541	-0.409
Mof_O 	O 	0.80155	0.17124	0.68582	-0.407
Mof_O 	O 	0.82233	0.30144	0.18159	-0.413
Mof_O 	O 	0.77184	0.61022	0.25581	-0.411
Mof_O 	O 	0.76226	0.35583	0.2541	-0.409
Mof_O 	O 	0.84139	0.67124	0.18582	-0.407
Mof_O 	O 	0.30144	0.69464	0.18159	-0.413
Mof_O 	O 	0.61022	0.36213	0.25581	-0.411
Mof_O 	O 	0.35583	0.62781	0.2541	-0.409
Mof_O 	O 	0.67124	0.30155	0.18582	-0.407
Mof_O 	O 	0.69464	0.82233	0.18159	-0.413
Mof_O 	O 	0.36213	0.77184	0.25581	-0.41
Mof_O 	O 	0.62781	0.76226	0.2541	-0.409
Mof_O 	O 	0.30155	0.84139	0.18582	-0.407
Mof_O 	O 	0.67767	0.80536	0.31841	-0.413
Mof_O 	O 	0.72816	0.13787	0.24419	-0.41
Mof_O 	O 	0.73774	0.87219	0.2459	-0.409
Mof_O 	O 	0.65861	0.19845	0.31418	-0.407
Mof_O 	O 	0.19856	0.67767	0.31841	-0.413
Mof_O 	O 	0.88978	0.72816	0.24419	-0.411
Mof_O 	O 	0.14417	0.73774	0.2459	-0.409
Mof_O 	O 	0.82876	0.65861	0.31418	-0.407
Mof_O 	O 	0.80536	0.19856	0.31841	-0.413
Mof_O 	O 	0.13787	0.88978	0.24419	-0.41
Mof_O 	O 	0.87219	0.14417	0.2459	-0.409
Mof_O 	O 	0.19845	0.82876	0.31418	-0.407
_end
