data_functionalizedCrystal
_audit_creation_method	'EQeq! by Chris Wilmer'
_symmetry_space_group_name_H-M	'P1'
_symmetry_Int_Tables_number	1
_symmetry_cell_setting	triclinic
loop_
_symmetry_equiv_pos_as_xyz
  x,y,z
_cell_length_a	11.4325
_cell_length_b	23.171
_cell_length_c	9.7852
_cell_angle_alpha	90
_cell_angle_beta	102.152
_cell_angle_gamma	90
loop_
_atom_site_label
_atom_site_type_symbol
_atom_site_fract_x
_atom_site_fract_y
_atom_site_fract_z
_atom_site_charge
Mof_O 	O 	0.196	0.14586	0.7194	-0.446
Mof_O 	O 	0.277	0.23369	0.7325	-0.308
Mof_O 	O 	0.656	0.20888	0.3572	-0.547
Mof_H 	H 	0.6945	0.2358	0.3346	0.338
Mof_O 	O 	0.5418	0.27916	0.4111	-0.459
Mof_C 	C 	0.4275	0.20202	0.5598	0.069
Mof_H 	H 	0.413	0.2412	0.5693	0.034
Mof_C 	C 	0.3863	0.10342	0.6061	-0.003
Mof_H 	H 	0.3437	0.0764	0.6461	0.031
Mof_C 	C 	0.5118	0.18437	0.4852	-0.129
Mof_C 	C 	0.3647	0.16169	0.62	-0.116
Mof_C 	C 	0.2714	0.18107	0.6969	0.381
Mof_C 	C 	0.5346	0.12615	0.4723	0.01
Mof_H 	H 	0.592	0.1144	0.4235	0.052
Mof_C 	C 	0.4922	0.0246	0.5114	-0.022
Mof_C 	C 	0.4716	0.08494	0.5324	-0.009
Mof_C 	C 	0.5736	0.22859	0.4139	0.481
Mof_O 	O 	0.696	0.64586	0.7194	-0.45
Mof_O 	O 	0.777	0.73369	0.7325	-0.301
Mof_O 	O 	0.156	0.70888	0.3572	-0.567
Mof_H 	H 	0.1945	0.7358	0.3346	0.341
Mof_O 	O 	0.0418	0.77916	0.4111	-0.479
Mof_C 	C 	0.9275	0.70202	0.5598	0.188
Mof_H 	H 	0.913	0.7412	0.5693	0.015
Mof_C 	C 	0.8863	0.60342	0.6061	0.038
Mof_H 	H 	0.8437	0.5764	0.6461	0.027
Mof_C 	C 	0.0118	0.68437	0.4852	-0.22
Mof_C 	C 	0.8647	0.66169	0.62	-0.15
Mof_C 	C 	0.7714	0.68107	0.6969	0.402
Mof_C 	C 	0.0346	0.62615	0.4723	-0.018
Mof_H 	H 	0.092	0.6144	0.4235	0.041
Mof_C 	C 	0.9922	0.5246	0.5114	0.112
Mof_C 	C 	0.9716	0.58494	0.5324	-0.003
Mof_C 	C 	0.0736	0.72859	0.4139	0.498
Mof_O 	O 	0.804	0.14586	0.7806	-0.411
Mof_O 	O 	0.723	0.23369	0.7675	-0.296
Mof_O 	O 	0.344	0.20888	0.1428	-0.556
Mof_H 	H 	0.3055	0.2358	0.1654	0.337
Mof_O 	O 	0.4582	0.27916	0.0889	-0.466
Mof_C 	C 	0.5725	0.20202	0.9402	0.095
Mof_H 	H 	0.587	0.2412	0.9307	0.031
Mof_C 	C 	0.6137	0.10342	0.8939	0.005
Mof_H 	H 	0.6563	0.0764	0.8539	0.039
Mof_C 	C 	0.4882	0.18437	0.0148	-0.15
Mof_C 	C 	0.6353	0.16169	0.88	-0.115
Mof_C 	C 	0.7286	0.18107	0.8031	0.382
Mof_C 	C 	0.4654	0.12615	0.0277	0.005
Mof_H 	H 	0.408	0.1144	0.0765	0.044
Mof_C 	C 	0.5078	0.0246	0.9886	0.006
Mof_C 	C 	0.5284	0.08494	0.9676	-0.005
Mof_C 	C 	0.4264	0.22859	0.0861	0.487
Mof_O 	O 	0.304	0.64586	0.7806	-0.448
Mof_O 	O 	0.223	0.73369	0.7675	-0.309
Mof_O 	O 	0.844	0.70888	0.1428	-0.534
Mof_H 	H 	0.8055	0.7358	0.1654	0.336
Mof_O 	O 	0.9582	0.77916	0.0889	-0.408
Mof_C 	C 	0.0725	0.70202	0.9402	-0.021
Mof_H 	H 	0.087	0.7412	0.9307	0.052
Mof_C 	C 	0.1137	0.60342	0.8939	-0.029
Mof_H 	H 	0.1563	0.5764	0.8539	0.036
Mof_C 	C 	0.9882	0.68437	0.0148	-0.057
Mof_C 	C 	0.1353	0.66169	0.88	-0.09
Mof_C 	C 	0.2286	0.68107	0.8031	0.374
Mof_C 	C 	0.9654	0.62615	0.0277	0.034
Mof_H 	H 	0.908	0.6144	0.0765	0.051
Mof_C 	C 	0.0078	0.5246	0.9886	-0.12
Mof_C 	C 	0.0284	0.58494	0.9676	-0.018
Mof_C 	C 	0.9264	0.72859	0.0861	0.459
Mof_O 	O 	0.804	0.85414	0.2806	-0.412
Mof_O 	O 	0.723	0.76631	0.2675	-0.3
Mof_O 	O 	0.344	0.79112	0.6428	-0.552
Mof_H 	H 	0.3055	0.7642	0.6654	0.338
Mof_O 	O 	0.4582	0.72084	0.5889	-0.462
Mof_C 	C 	0.5725	0.79798	0.4402	0.071
Mof_H 	H 	0.587	0.7588	0.4307	0.034
Mof_C 	C 	0.6137	0.89658	0.3939	0
Mof_H 	H 	0.6563	0.9236	0.3539	0.039
Mof_C 	C 	0.4882	0.81563	0.5148	-0.131
Mof_C 	C 	0.6353	0.83831	0.38	-0.109
Mof_C 	C 	0.7286	0.81893	0.3031	0.378
Mof_C 	C 	0.4654	0.87385	0.5277	0.015
Mof_H 	H 	0.408	0.8856	0.5765	0.046
Mof_C 	C 	0.5078	0.9754	0.4886	-0.013
Mof_C 	C 	0.5284	0.91506	0.4676	-0.01
Mof_C 	C 	0.4264	0.77141	0.5861	0.483
Mof_O 	O 	0.304	0.35414	0.2806	-0.45
Mof_O 	O 	0.223	0.26631	0.2675	-0.312
Mof_O 	O 	0.844	0.29112	0.6428	-0.53
Mof_H 	H 	0.8055	0.2642	0.6654	0.337
Mof_O 	O 	0.9582	0.22084	0.5889	-0.403
Mof_C 	C 	0.0725	0.29798	0.4402	-0.048
Mof_H 	H 	0.087	0.2588	0.4307	0.056
Mof_C 	C 	0.1137	0.39658	0.3939	-0.037
Mof_H 	H 	0.1563	0.4236	0.3539	0.036
Mof_C 	C 	0.9882	0.31563	0.5148	-0.036
Mof_C 	C 	0.1353	0.33831	0.38	-0.083
Mof_C 	C 	0.2286	0.31893	0.3031	0.369
Mof_C 	C 	0.9654	0.37385	0.5277	0.042
Mof_H 	H 	0.908	0.3856	0.5765	0.053
Mof_C 	C 	0.0078	0.4754	0.4886	-0.151
Mof_C 	C 	0.0284	0.41506	0.4676	-0.02
Mof_C 	C 	0.9264	0.27141	0.5861	0.454
Mof_O 	O 	0.196	0.85414	0.2194	-0.446
Mof_O 	O 	0.277	0.76631	0.2325	-0.311
Mof_O 	O 	0.656	0.79112	0.8572	-0.542
Mof_H 	H 	0.6945	0.7642	0.8346	0.339
Mof_O 	O 	0.5418	0.72084	0.9111	-0.454
Mof_C 	C 	0.4275	0.79798	0.0598	0.045
Mof_H 	H 	0.413	0.7588	0.0693	0.036
Mof_C 	C 	0.3863	0.89658	0.1061	-0.007
Mof_H 	H 	0.3437	0.9236	0.1461	0.031
Mof_C 	C 	0.5118	0.81563	0.9852	-0.11
Mof_C 	C 	0.3647	0.83831	0.12	-0.111
Mof_C 	C 	0.2714	0.81893	0.1969	0.377
Mof_C 	C 	0.5346	0.87385	0.9723	0.02
Mof_H 	H 	0.592	0.8856	0.9235	0.053
Mof_C 	C 	0.4922	0.9754	0.0114	-0.043
Mof_C 	C 	0.4716	0.91506	0.0324	-0.015
Mof_C 	C 	0.5736	0.77141	0.9139	0.477
Mof_O 	O 	0.696	0.35414	0.2194	-0.452
Mof_O 	O 	0.777	0.26631	0.2325	-0.304
Mof_O 	O 	0.156	0.29112	0.8572	-0.562
Mof_H 	H 	0.1945	0.2642	0.8346	0.342
Mof_O 	O 	0.0418	0.22084	0.9111	-0.474
Mof_C 	C 	0.9275	0.29798	0.0598	0.162
Mof_H 	H 	0.913	0.2588	0.0693	0.018
Mof_C 	C 	0.8863	0.39658	0.1061	0.03
Mof_H 	H 	0.8437	0.4236	0.1461	0.028
Mof_C 	C 	0.0118	0.31563	0.9852	-0.199
Mof_C 	C 	0.8647	0.33831	0.12	-0.143
Mof_C 	C 	0.7714	0.31893	0.1969	0.398
Mof_C 	C 	0.0346	0.37385	0.9723	-0.01
Mof_H 	H 	0.092	0.3856	0.9235	0.043
Mof_C 	C 	0.9922	0.4754	0.0114	0.081
Mof_C 	C 	0.9716	0.41506	0.0324	-0.005
Mof_C 	C 	0.0736	0.27141	0.9139	0.494
Mof_Ca	Ca	2.24319e-17	0.14614	0.75	1.187
Mof_Ca	Ca	0.5	0.64614	0.75	1.298
Mof_Ca	Ca	5.60798e-18	0.85386	0.25	1.178
Mof_Ca	Ca	0.5	0.35386	0.25	1.288
_end
