data_functionalizedCrystal
_audit_creation_method	'EQeq! by Chris Wilmer'
_symmetry_space_group_name_H-M	'P1'
_symmetry_Int_Tables_number	1
_symmetry_cell_setting	triclinic
loop_
_symmetry_equiv_pos_as_xyz
  x,y,z
_cell_length_a	18.45
_cell_length_b	20.71
_cell_length_c	14.174
_cell_angle_alpha	90
_cell_angle_beta	90
_cell_angle_gamma	90
loop_
_atom_site_label
_atom_site_type_symbol
_atom_site_fract_x
_atom_site_fract_y
_atom_site_fract_z
_atom_site_charge
Mof_Mo	Mo	0.16142	0.73027	0.09552	1.005
Mof_Mo	Mo	0.24589	0.8336	0.09257	0.995
Mof_Mo	Mo	0.73623	0.17917	0.09983	1.006
Mof_Mo	Mo	0.82494	0.28003	0.09992	1.009
Mof_S 	S 	0.16657	0.8078	0.21406	-0.348
Mof_S 	S 	0.80938	0.20944	0.22625	-0.352
Mof_Na	Na	0.99669	0.50115	0.2585	2.902
Mof_O 	O 	0.2105	0.5675	0.7999	-0.554
Mof_H 	H 	0.1969	0.5386	0.7622	0.304
Mof_O 	O 	0.093	0.5721	0.8336	-0.671
Mof_O 	O 	0.9904	0.6057	0.1508	-0.589
Mof_O 	O 	0.0743	0.6815	0.1643	-0.42
Mof_O 	O 	0.9875	0.7875	0.9223	-0.235
Mof_O 	O 	0.0637	0.7764	0.0419	-0.332
Mof_O 	O 	0.2121	0.77497	0.9971	-0.511
Mof_O 	O 	0.1677	0.8999	0.0264	-0.33
Mof_O 	O 	0.1342	0.9498	0.8945	-0.221
Mof_O 	O 	0.2677	0.9245	0.158	-0.396
Mof_O 	O 	0.3329	0.0133	0.1475	-0.4
Mof_O 	O 	0.4258	0.8339	0.7878	-0.555
Mof_H 	H 	0.4518	0.8527	0.7477	0.284
Mof_O 	O 	0.4157	0.9332	0.8465	-0.659
Mof_O 	O 	0.5688	0.1718	0.7867	-0.541
Mof_H 	H 	0.5404	0.1526	0.7497	0.281
Mof_O 	O 	0.5973	0.0722	0.8319	-0.656
Mof_O 	O 	0.6466	0.9998	0.1538	-0.457
Mof_O 	O 	0.705	0.09291	0.1703	-0.406
Mof_O 	O 	0.8659	0.0532	0.9359	-0.216
Mof_O 	O 	0.818	0.10778	0.0554	-0.317
Mof_O 	O 	0.77877	0.23091	0.002	-0.517
Mof_O 	O 	0.9234	0.22709	0.0578	-0.331
Mof_O 	O 	0.9955	0.2001	0.94	-0.242
Mof_O 	O 	0.9107	0.3278	0.1708	-0.423
Mof_O 	O 	0.0023	0.3966	0.1567	-0.601
Mof_O 	O 	0.8011	0.4407	0.7961	-0.544
Mof_H 	H 	0.8194	0.4638	0.7536	0.298
Mof_O 	O 	0.9171	0.4211	0.8293	-0.663
Mof_N 	N 	0.6881	0.1209	0.9775	-0.069
Mof_N 	N 	0.8782	0.3359	0.9776	-0.062
Mof_N 	N 	0.1183	0.6653	0.9778	-0.066
Mof_N 	N 	0.3068	0.8872	0.9745	-0.06
Mof_C 	C 	0.1548	0.588	0.8487	0.592
Mof_C 	C 	0.1792	0.6342	0.9252	-0.362
Mof_H 	H 	0.21	0.6104	0.9706	0.124
Mof_H 	H 	0.2094	0.6684	0.8962	0.144
Mof_C 	C 	0.0732	0.6167	0.0256	-0.285
Mof_H 	H 	0.1025	0.5771	0.0349	0.079
Mof_H 	H 	0.0322	0.6053	0.9835	0.084
Mof_C 	C 	0.0432	0.637	0.1188	0.445
Mof_C 	C 	0.0771	0.7065	0.9116	-0.272
Mof_H 	H 	0.0412	0.6796	0.8776	0.13
Mof_H 	H 	0.1107	0.7249	0.8643	0.138
Mof_C 	C 	0.0384	0.7604	0.9615	0.378
Mof_C 	C 	0.4019	0.8756	0.8484	0.562
Mof_C 	C 	0.3566	0.8438	0.9237	-0.348
Mof_H 	H 	0.3277	0.809	0.8941	0.143
Mof_H 	H 	0.3895	0.8234	0.9701	0.12
Mof_C 	C 	0.3129	0.9601	0.1174	0.387
Mof_C 	C 	0.3467	0.9388	0.0255	-0.279
Mof_H 	H 	0.3506	0.9769	0.9835	0.104
Mof_H 	H 	0.3965	0.9234	0.0384	0.075
Mof_C 	C 	0.1791	0.9218	0.9449	0.397
Mof_C 	C 	0.254	0.9143	0.9062	-0.284
Mof_H 	H 	0.252	0.8858	0.8502	0.142
Mof_H 	H 	0.2716	0.9571	0.885	0.144
Mof_C 	C 	0.6005	0.1296	0.8417	0.539
Mof_C 	C 	0.6406	0.1638	0.9221	-0.327
Mof_H 	H 	0.6702	0.1991	0.8951	0.13
Mof_H 	H 	0.6045	0.1836	0.9649	0.108
Mof_C 	C 	0.6686	0.052	0.123	0.412
Mof_C 	C 	0.6458	0.0686	0.0232	-0.263
Mof_H 	H 	0.6497	0.0293	0.9839	0.095
Mof_H 	H 	0.5941	0.0815	0.0242	0.073
Mof_C 	C 	0.8155	0.083	0.9723	0.372
Mof_C 	C 	0.7471	0.0972	0.9175	-0.262
Mof_H 	H 	0.7579	0.1299	0.8685	0.127
Mof_H 	H 	0.7311	0.0573	0.8851	0.132
Mof_C 	C 	0.8533	0.4126	0.8451	0.559
Mof_C 	C 	0.8225	0.3704	0.9226	-0.346
Mof_H 	H 	0.7937	0.3977	0.966	0.12
Mof_H 	H 	0.7893	0.3383	0.894	0.131
Mof_C 	C 	0.9493	0.3673	0.1237	0.445
Mof_C 	C 	0.9305	0.3812	0.0231	-0.291
Mof_H 	H 	0.91	0.4254	0.0196	0.071
Mof_H 	H 	0.9758	0.3811	0.9857	0.093
Mof_C 	C 	0.9491	0.2345	0.9744	0.388
Mof_C 	C 	0.9148	0.2877	0.9172	-0.278
Mof_H 	H 	0.9526	0.3095	0.8792	0.137
Mof_H 	H 	0.879	0.2687	0.8731	0.133
Mof_Mo	Mo	0.83858	0.26973	0.59552	1.003
Mof_Mo	Mo	0.75411	0.1664	0.59257	0.996
Mof_Mo	Mo	0.26377	0.82083	0.59983	1.006
Mof_Mo	Mo	0.17506	0.71997	0.59992	1.01
Mof_S 	S 	0.83343	0.1922	0.71406	-0.348
Mof_S 	S 	0.19062	0.79056	0.72625	-0.352
Mof_Na	Na	0.00331	0.49885	0.7585	2.904
Mof_O 	O 	0.7895	0.4325	0.2999	-0.554
Mof_H 	H 	0.8031	0.4614	0.2622	0.304
Mof_O 	O 	0.907	0.4279	0.3336	-0.671
Mof_O 	O 	0.0096	0.3943	0.6508	-0.586
Mof_O 	O 	0.9257	0.3185	0.6643	-0.42
Mof_O 	O 	0.0125	0.2125	0.4223	-0.24
Mof_O 	O 	0.9363	0.2236	0.5419	-0.336
Mof_O 	O 	0.7879	0.22503	0.4971	-0.51
Mof_O 	O 	0.8323	0.1001	0.5264	-0.329
Mof_O 	O 	0.8658	0.0502	0.3945	-0.221
Mof_O 	O 	0.7323	0.0755	0.658	-0.396
Mof_O 	O 	0.6671	0.9867	0.6475	-0.403
Mof_O 	O 	0.5742	0.1661	0.2878	-0.555
Mof_H 	H 	0.5482	0.1473	0.2477	0.284
Mof_O 	O 	0.5843	0.0668	0.3465	-0.659
Mof_O 	O 	0.4312	0.8282	0.2867	-0.542
Mof_H 	H 	0.4596	0.8474	0.2497	0.281
Mof_O 	O 	0.4027	0.9278	0.3319	-0.656
Mof_O 	O 	0.3534	0.0002	0.6538	-0.455
Mof_O 	O 	0.295	0.90709	0.6703	-0.406
Mof_O 	O 	0.1341	0.9468	0.4359	-0.216
Mof_O 	O 	0.182	0.89222	0.5554	-0.319
Mof_O 	O 	0.22123	0.76909	0.502	-0.517
Mof_O 	O 	0.0766	0.77291	0.5578	-0.331
Mof_O 	O 	0.0045	0.7999	0.44	-0.242
Mof_O 	O 	0.0893	0.6722	0.6708	-0.423
Mof_O 	O 	0.9977	0.6034	0.6567	-0.605
Mof_O 	O 	0.1989	0.5593	0.2961	-0.544
Mof_H 	H 	0.1806	0.5362	0.2536	0.298
Mof_O 	O 	0.0829	0.5789	0.3293	-0.663
Mof_N 	N 	0.3119	0.8791	0.4775	-0.066
Mof_N 	N 	0.1218	0.6641	0.4776	-0.063
Mof_N 	N 	0.8817	0.3347	0.4778	-0.063
Mof_N 	N 	0.6932	0.1128	0.4745	-0.061
Mof_C 	C 	0.8452	0.412	0.3487	0.593
Mof_C 	C 	0.8208	0.3658	0.4252	-0.363
Mof_H 	H 	0.79	0.3896	0.4706	0.126
Mof_H 	H 	0.7906	0.3316	0.3962	0.144
Mof_C 	C 	0.9268	0.3833	0.5256	-0.295
Mof_H 	H 	0.8975	0.4229	0.5349	0.08
Mof_H 	H 	0.9678	0.3947	0.4835	0.09
Mof_C 	C 	0.9568	0.363	0.6188	0.444
Mof_C 	C 	0.9229	0.2935	0.4116	-0.276
Mof_H 	H 	0.9588	0.3204	0.3776	0.131
Mof_H 	H 	0.8893	0.2751	0.3643	0.14
Mof_C 	C 	0.9616	0.2396	0.4615	0.386
Mof_C 	C 	0.5981	0.1244	0.3484	0.562
Mof_C 	C 	0.6434	0.1562	0.4237	-0.348
Mof_H 	H 	0.6723	0.191	0.3941	0.143
Mof_H 	H 	0.6105	0.1766	0.4701	0.12
Mof_C 	C 	0.6871	0.0399	0.6174	0.389
Mof_C 	C 	0.6533	0.0612	0.5255	-0.274
Mof_H 	H 	0.6494	0.0231	0.4835	0.102
Mof_H 	H 	0.6035	0.0766	0.5384	0.075
Mof_C 	C 	0.8209	0.0782	0.4449	0.397
Mof_C 	C 	0.746	0.0857	0.4062	-0.283
Mof_H 	H 	0.748	0.1142	0.3502	0.142
Mof_H 	H 	0.7284	0.0429	0.385	0.143
Mof_C 	C 	0.3995	0.8704	0.3417	0.539
Mof_C 	C 	0.3594	0.8362	0.4221	-0.328
Mof_H 	H 	0.3298	0.8009	0.3951	0.13
Mof_H 	H 	0.3955	0.8164	0.4649	0.11
Mof_C 	C 	0.3314	0.948	0.623	0.411
Mof_C 	C 	0.3542	0.9314	0.5232	-0.273
Mof_H 	H 	0.3503	0.9707	0.4839	0.101
Mof_H 	H 	0.4059	0.9185	0.5242	0.074
Mof_C 	C 	0.1845	0.917	0.4723	0.376
Mof_C 	C 	0.2529	0.9028	0.4175	-0.263
Mof_H 	H 	0.2421	0.8701	0.3685	0.128
Mof_H 	H 	0.2689	0.9427	0.3851	0.133
Mof_C 	C 	0.1467	0.5874	0.3451	0.559
Mof_C 	C 	0.1775	0.6296	0.4226	-0.346
Mof_H 	H 	0.2063	0.6023	0.466	0.12
Mof_H 	H 	0.2107	0.6617	0.394	0.131
Mof_C 	C 	0.0507	0.6327	0.6237	0.447
Mof_C 	C 	0.0695	0.6188	0.5231	-0.286
Mof_H 	H 	0.09	0.5746	0.5196	0.071
Mof_H 	H 	0.0242	0.6189	0.4857	0.09
Mof_C 	C 	0.0509	0.7655	0.4744	0.387
Mof_C 	C 	0.0852	0.7123	0.4172	-0.277
Mof_H 	H 	0.0474	0.6905	0.3792	0.137
Mof_H 	H 	0.121	0.7313	0.3731	0.133
Mof_Mo	Mo	0.66142	0.76973	0.09552	0.998
Mof_Mo	Mo	0.74589	0.6664	0.09257	0.991
Mof_Mo	Mo	0.23623	0.32083	0.09983	1.009
Mof_Mo	Mo	0.32494	0.21997	0.09992	1.014
Mof_S 	S 	0.66657	0.6922	0.21406	-0.346
Mof_S 	S 	0.30938	0.29056	0.22625	-0.352
Mof_Na	Na	0.49669	0.99885	0.2585	2.905
Mof_O 	O 	0.7105	0.9325	0.7999	-0.553
Mof_H 	H 	0.6969	0.9614	0.7622	0.304
Mof_O 	O 	0.593	0.9279	0.8336	-0.669
Mof_O 	O 	0.4904	0.8943	0.1508	-0.587
Mof_O 	O 	0.5743	0.8185	0.1643	-0.421
Mof_O 	O 	0.4875	0.7125	0.9223	-0.244
Mof_O 	O 	0.5637	0.7236	0.0419	-0.338
Mof_O 	O 	0.7121	0.72503	0.9971	-0.507
Mof_O 	O 	0.6677	0.6001	0.0264	-0.331
Mof_O 	O 	0.6342	0.5502	0.8945	-0.222
Mof_O 	O 	0.7677	0.5755	0.158	-0.397
Mof_O 	O 	0.8329	0.4867	0.1475	-0.407
Mof_O 	O 	0.9258	0.6661	0.7878	-0.555
Mof_H 	H 	0.9518	0.6473	0.7477	0.284
Mof_O 	O 	0.9157	0.5668	0.8465	-0.659
Mof_O 	O 	0.0688	0.3282	0.7867	-0.542
Mof_H 	H 	0.0404	0.3474	0.7497	0.281
Mof_O 	O 	0.0973	0.4278	0.8319	-0.656
Mof_O 	O 	0.1466	0.5002	0.1538	-0.452
Mof_O 	O 	0.205	0.40709	0.1703	-0.405
Mof_O 	O 	0.3659	0.4468	0.9359	-0.216
Mof_O 	O 	0.318	0.39222	0.0554	-0.316
Mof_O 	O 	0.27877	0.26909	0.002	-0.515
Mof_O 	O 	0.4234	0.27291	0.0578	-0.327
Mof_O 	O 	0.4955	0.2999	0.94	-0.242
Mof_O 	O 	0.4107	0.1722	0.1708	-0.422
Mof_O 	O 	0.5023	0.1034	0.1567	-0.604
Mof_O 	O 	0.3011	0.0593	0.7961	-0.545
Mof_H 	H 	0.3194	0.0362	0.7536	0.297
Mof_O 	O 	0.4171	0.0789	0.8293	-0.665
Mof_N 	N 	0.1881	0.3791	0.9775	-0.071
Mof_N 	N 	0.3782	0.1641	0.9776	-0.068
Mof_N 	N 	0.6183	0.8347	0.9778	-0.059
Mof_N 	N 	0.8068	0.6128	0.9745	-0.058
Mof_C 	C 	0.6548	0.912	0.8487	0.594
Mof_C 	C 	0.6792	0.8658	0.9252	-0.364
Mof_H 	H 	0.71	0.8896	0.9706	0.128
Mof_H 	H 	0.7094	0.8316	0.8962	0.145
Mof_C 	C 	0.5732	0.8833	0.0256	-0.306
Mof_H 	H 	0.6025	0.9229	0.0349	0.081
Mof_H 	H 	0.5322	0.8947	0.9835	0.095
Mof_C 	C 	0.5432	0.863	0.1188	0.446
Mof_C 	C 	0.5771	0.7935	0.9116	-0.279
Mof_H 	H 	0.5412	0.8204	0.8776	0.133
Mof_H 	H 	0.6107	0.7751	0.8643	0.14
Mof_C 	C 	0.5384	0.7396	0.9615	0.392
Mof_C 	C 	0.9019	0.6244	0.8484	0.563
Mof_C 	C 	0.8566	0.6562	0.9237	-0.349
Mof_H 	H 	0.8277	0.691	0.8941	0.144
Mof_H 	H 	0.8895	0.6766	0.9701	0.122
Mof_C 	C 	0.8129	0.5399	0.1174	0.393
Mof_C 	C 	0.8467	0.5612	0.0255	-0.284
Mof_H 	H 	0.8506	0.5231	0.9835	0.106
Mof_H 	H 	0.8965	0.5766	0.0384	0.076
Mof_C 	C 	0.6791	0.5782	0.9449	0.399
Mof_C 	C 	0.754	0.5857	0.9062	-0.284
Mof_H 	H 	0.752	0.6142	0.8502	0.142
Mof_H 	H 	0.7716	0.5429	0.885	0.143
Mof_C 	C 	0.1005	0.3704	0.8417	0.538
Mof_C 	C 	0.1406	0.3362	0.9221	-0.326
Mof_H 	H 	0.1702	0.3009	0.8951	0.128
Mof_H 	H 	0.1045	0.3164	0.9649	0.107
Mof_C 	C 	0.1686	0.448	0.123	0.406
Mof_C 	C 	0.1458	0.4314	0.0232	-0.258
Mof_H 	H 	0.1497	0.4707	0.9839	0.093
Mof_H 	H 	0.0941	0.4185	0.0242	0.072
Mof_C 	C 	0.3155	0.417	0.9723	0.37
Mof_C 	C 	0.2471	0.4028	0.9175	-0.261
Mof_H 	H 	0.2579	0.3701	0.8685	0.127
Mof_H 	H 	0.2311	0.4427	0.8851	0.132
Mof_C 	C 	0.3533	0.0874	0.8451	0.558
Mof_C 	C 	0.3225	0.1296	0.9226	-0.345
Mof_H 	H 	0.2937	0.1023	0.966	0.117
Mof_H 	H 	0.2893	0.1617	0.894	0.13
Mof_C 	C 	0.4493	0.1327	0.1237	0.445
Mof_C 	C 	0.4305	0.1188	0.0231	-0.271
Mof_H 	H 	0.41	0.0746	0.0196	0.069
Mof_H 	H 	0.4758	0.1189	0.9857	0.082
Mof_C 	C 	0.4491	0.2655	0.9744	0.381
Mof_C 	C 	0.4148	0.2123	0.9172	-0.275
Mof_H 	H 	0.4526	0.1905	0.8792	0.136
Mof_H 	H 	0.379	0.2313	0.8731	0.132
Mof_Mo	Mo	0.33858	0.23027	0.59552	1.004
Mof_Mo	Mo	0.25411	0.3336	0.59257	0.996
Mof_Mo	Mo	0.76377	0.67917	0.59983	1.006
Mof_Mo	Mo	0.67506	0.78003	0.59992	1.011
Mof_S 	S 	0.33343	0.3078	0.71406	-0.348
Mof_S 	S 	0.69062	0.70944	0.72625	-0.351
Mof_Na	Na	0.50331	0.00115	0.7585	2.905
Mof_O 	O 	0.2895	0.0675	0.2999	-0.553
Mof_H 	H 	0.3031	0.0386	0.2622	0.304
Mof_O 	O 	0.407	0.0721	0.3336	-0.67
Mof_O 	O 	0.5096	0.1057	0.6508	-0.586
Mof_O 	O 	0.4257	0.1815	0.6643	-0.42
Mof_O 	O 	0.5125	0.2875	0.4223	-0.243
Mof_O 	O 	0.4363	0.2764	0.5419	-0.336
Mof_O 	O 	0.2879	0.27497	0.4971	-0.51
Mof_O 	O 	0.3323	0.3999	0.5264	-0.329
Mof_O 	O 	0.3658	0.4498	0.3945	-0.221
Mof_O 	O 	0.2323	0.4245	0.658	-0.396
Mof_O 	O 	0.1671	0.5133	0.6475	-0.406
Mof_O 	O 	0.0742	0.3339	0.2878	-0.555
Mof_H 	H 	0.0482	0.3527	0.2477	0.284
Mof_O 	O 	0.0843	0.4332	0.3465	-0.659
Mof_O 	O 	0.9312	0.6718	0.2867	-0.542
Mof_H 	H 	0.9596	0.6526	0.2497	0.28
Mof_O 	O 	0.9027	0.5722	0.3319	-0.655
Mof_O 	O 	0.8534	0.4998	0.6538	-0.454
Mof_O 	O 	0.795	0.59291	0.6703	-0.406
Mof_O 	O 	0.6341	0.5532	0.4359	-0.217
Mof_O 	O 	0.682	0.60778	0.5554	-0.319
Mof_O 	O 	0.72123	0.73091	0.502	-0.517
Mof_O 	O 	0.5766	0.72709	0.5578	-0.331
Mof_O 	O 	0.5045	0.7001	0.44	-0.243
Mof_O 	O 	0.5893	0.8278	0.6708	-0.423
Mof_O 	O 	0.4977	0.8966	0.6567	-0.606
Mof_O 	O 	0.6989	0.9407	0.2961	-0.545
Mof_H 	H 	0.6806	0.9638	0.2536	0.297
Mof_O 	O 	0.5829	0.9211	0.3293	-0.665
Mof_N 	N 	0.8119	0.6209	0.4775	-0.066
Mof_N 	N 	0.6218	0.8359	0.4776	-0.063
Mof_N 	N 	0.3817	0.1653	0.4778	-0.062
Mof_N 	N 	0.1932	0.3872	0.4745	-0.061
Mof_C 	C 	0.3452	0.088	0.3487	0.593
Mof_C 	C 	0.3208	0.1342	0.4252	-0.363
Mof_H 	H 	0.29	0.1104	0.4706	0.126
Mof_H 	H 	0.2906	0.1684	0.3962	0.144
Mof_C 	C 	0.4268	0.1167	0.5256	-0.295
Mof_H 	H 	0.3975	0.0771	0.5349	0.08
Mof_H 	H 	0.4678	0.1053	0.4835	0.09
Mof_C 	C 	0.4568	0.137	0.6188	0.443
Mof_C 	C 	0.4229	0.2065	0.4116	-0.277
Mof_H 	H 	0.4588	0.1796	0.3776	0.132
Mof_H 	H 	0.3893	0.2249	0.3643	0.14
Mof_C 	C 	0.4616	0.2604	0.4615	0.389
Mof_C 	C 	0.0981	0.3756	0.3484	0.562
Mof_C 	C 	0.1434	0.3438	0.4237	-0.348
Mof_H 	H 	0.1723	0.309	0.3941	0.143
Mof_H 	H 	0.1105	0.3234	0.4701	0.12
Mof_C 	C 	0.1871	0.4601	0.6174	0.391
Mof_C 	C 	0.1533	0.4388	0.5255	-0.275
Mof_H 	H 	0.1494	0.4769	0.4835	0.102
Mof_H 	H 	0.1035	0.4234	0.5384	0.075
Mof_C 	C 	0.3209	0.4218	0.4449	0.397
Mof_C 	C 	0.246	0.4143	0.4062	-0.283
Mof_H 	H 	0.248	0.3858	0.3502	0.142
Mof_H 	H 	0.2284	0.4571	0.385	0.143
Mof_C 	C 	0.8995	0.6296	0.3417	0.539
Mof_C 	C 	0.8594	0.6638	0.4221	-0.328
Mof_H 	H 	0.8298	0.6991	0.3951	0.13
Mof_H 	H 	0.8955	0.6836	0.4649	0.11
Mof_C 	C 	0.8314	0.552	0.623	0.41
Mof_C 	C 	0.8542	0.5686	0.5232	-0.272
Mof_H 	H 	0.8503	0.5293	0.4839	0.101
Mof_H 	H 	0.9059	0.5815	0.5242	0.073
Mof_C 	C 	0.6845	0.583	0.4723	0.376
Mof_C 	C 	0.7529	0.5972	0.4175	-0.263
Mof_H 	H 	0.7421	0.6299	0.3685	0.128
Mof_H 	H 	0.7689	0.5573	0.3851	0.133
Mof_C 	C 	0.6467	0.9126	0.3451	0.56
Mof_C 	C 	0.6775	0.8704	0.4226	-0.347
Mof_H 	H 	0.7063	0.8977	0.466	0.12
Mof_H 	H 	0.7107	0.8383	0.394	0.131
Mof_C 	C 	0.5507	0.8673	0.6237	0.449
Mof_C 	C 	0.5695	0.8812	0.5231	-0.287
Mof_H 	H 	0.59	0.9254	0.5196	0.071
Mof_H 	H 	0.5242	0.8811	0.4857	0.09
Mof_C 	C 	0.5509	0.7345	0.4744	0.387
Mof_C 	C 	0.5852	0.7877	0.4172	-0.277
Mof_H 	H 	0.5474	0.8095	0.3792	0.136
Mof_H 	H 	0.621	0.7687	0.3731	0.133
_end
