data_functionalizedCrystal
_audit_creation_method	'EQeq! by Chris Wilmer'
_symmetry_space_group_name_H-M	'P1'
_symmetry_Int_Tables_number	1
_symmetry_cell_setting	triclinic
loop_
_symmetry_equiv_pos_as_xyz
  x,y,z
_cell_length_a	32.4729
_cell_length_b	32.4729
_cell_length_c	33.094
_cell_angle_alpha	60.6189
_cell_angle_beta	60.6189
_cell_angle_gamma	90
loop_
_atom_site_label
_atom_site_type_symbol
_atom_site_fract_x
_atom_site_fract_y
_atom_site_fract_z
_atom_site_charge
Mof_Na	Na	0.875	0.11556	0.75	3.032
Mof_Na	Na	0.375	0.13444	0.75	3.03
Mof_Na	Na	0.86556	0.625	0.25	3.029
Mof_Na	Na	0.88444	0.125	0.25	3.03
Mof_Zn	Zn	0.98605	0.1171	0.79528	1.226
Mof_Zn	Zn	0.91645	0.99841	0.86924	1.229
Mof_Zn	Zn	0.87484	0.07331	0.9093	1.224
Mof_Zn	Zn	0.43806	0.54479	0.08974	1.222
Mof_Zn	Zn	0.21867	0.08762	0.79528	1.227
Mof_Zn	Zn	0.21431	0.13235	0.86924	1.229
Mof_Zn	Zn	0.21586	0.01739	0.9093	1.224
Mof_Zn	Zn	0.47219	0.36547	0.08975	1.222
Mof_Zn	Zn	0.8671	0.46867	0.29528	1.227
Mof_Zn	Zn	0.74841	0.46431	0.36924	1.229
Mof_Zn	Zn	0.82331	0.46586	0.4093	1.224
Mof_Zn	Zn	0.29479	0.7222	0.58974	1.222
Mof_Zn	Zn	0.83762	0.23605	0.29528	1.227
Mof_Zn	Zn	0.88235	0.16645	0.36924	1.229
Mof_Zn	Zn	0.76739	0.12484	0.4093	1.224
Mof_Zn	Zn	0.11547	0.68805	0.58975	1.222
Mof_Zn	Zn	0.53133	0.1329	0.70472	1.227
Mof_Zn	Zn	0.53569	0.25159	0.63076	1.229
Mof_Zn	Zn	0.53414	0.17669	0.5907	1.224
Mof_Zn	Zn	0.2778	0.70521	0.41026	1.222
Mof_Zn	Zn	0.76395	0.16238	0.70472	1.227
Mof_Zn	Zn	0.83355	0.11765	0.63076	1.229
Mof_Zn	Zn	0.87516	0.23261	0.5907	1.224
Mof_Zn	Zn	0.31195	0.88453	0.41025	1.222
Mof_Zn	Zn	0.91238	0.78133	0.20472	1.227
Mof_Zn	Zn	0.86765	0.78569	0.13076	1.229
Mof_Zn	Zn	0.98261	0.78414	0.0907	1.222
Mof_Zn	Zn	0.63453	0.52781	0.91025	1.221
Mof_Zn	Zn	0.8829	0.01395	0.20472	1.225
Mof_Zn	Zn	0.00159	0.08355	0.13076	1.228
Mof_Zn	Zn	0.92669	0.12516	0.0907	1.223
Mof_Zn	Zn	0.45521	0.56194	0.91026	1.221
Mof_Zn	Zn	0.43468	0.43468	0.13064	1.232
Mof_Zn	Zn	0.18468	0.68468	0.63064	1.232
Mof_Zn	Zn	0.31532	0.81532	0.36936	1.232
Mof_Zn	Zn	0.56532	0.56532	0.86936	1.232
Mof_Zn	Zn	0.5	0.5	-0	1.185
Mof_Zn	Zn	0.25	0.75	0.5	1.187
Mof_H 	H 	0.5015	0.5942	0.9912	0.147
Mof_H 	H 	0.9068	0.0759	0.8282	0.209
Mof_H 	H 	0.5201	0.4398	0.0646	0.308
Mof_H 	H 	0.9728	0.1665	0.6312	-0.122
Mof_H 	H 	0.0053	0.2224	0.5398	0.115
Mof_H 	H 	0.1121	0.3001	0.5278	0.112
Mof_H 	H 	0.0796	0.241	0.6188	-0.02
Mof_H 	H 	0.0063	0.3124	0.4872	0.068
Mof_H 	H 	0.1132	0.4138	0.3242	0.059
Mof_H 	H 	0.15	0.3225	0.4272	0.059
Mof_H 	H 	0.1937	0.4694	0.2876	0.082
Mof_H 	H 	0.2754	0.5059	0.2172	0.023
Mof_H 	H 	0.2969	0.374	0.2662	0.025
Mof_H 	H 	0.213	0.3356	0.331	0.082
Mof_H 	H 	0.9677	0.3669	0.4688	0.082
Mof_H 	H 	0.9048	0.3892	0.4578	0.016
Mof_H 	H 	0.9857	0.4232	0.3032	0.022
Mof_H 	H 	0.0468	0.3961	0.3162	0.076
Mof_H 	H 	0.8549	0.8992	0.845	-0.005
Mof_H 	H 	0.8156	0.8634	0.822	0.096
Mof_H 	H 	0.7615	0.9777	0.7788	0.099
Mof_H 	H 	0.8009	0.0135	0.8018	-0.092
Mof_H 	H 	0.74	0.8269	0.8318	0.06
Mof_H 	H 	0.7312	0.8646	0.7024	0.058
Mof_H 	H 	0.7876	0.9684	0.7064	0.066
Mof_H 	H 	0.7117	0.9332	0.6488	0.087
Mof_H 	H 	0.7239	0.9973	0.5686	0.01
Mof_H 	H 	0.852	0.0698	0.528	0.013
Mof_H 	H 	0.8342	0.0046	0.6152	0.089
Mof_H 	H 	0.7547	0.7548	0.816	0.084
Mof_H 	H 	0.7168	0.6728	0.8556	0.018
Mof_H 	H 	0.6165	0.7094	0.8242	0.018
Mof_H 	H 	0.6525	0.7909	0.7826	0.081
Mof_H 	H 	0.832	0.1945	0.7726	-0.08
Mof_H 	H 	0.7764	0.2385	0.7676	0.09
Mof_H 	H 	0.7137	0.1992	0.9234	0.093
Mof_H 	H 	0.7648	0.1532	0.9326	0.003
Mof_H 	H 	0.6938	0.2226	0.7952	0.072
Mof_H 	H 	0.5952	0.2926	0.835	0.067
Mof_H 	H 	0.6896	0.2734	0.884	0.063
Mof_H 	H 	0.631	0.3786	0.8314	0.089
Mof_H 	H 	0.5879	0.4071	0.8862	0.01
Mof_H 	H 	0.5466	0.281	0.0254	0.004
Mof_H 	H 	0.5856	0.2466	0.9752	0.091
Mof_H 	H 	0.6379	0.18	0.8016	0.082
Mof_H 	H 	0.6073	0.1618	0.7588	0.022
Mof_H 	H 	0.5766	0.2911	0.7078	0.022
Mof_H 	H 	0.6076	0.3071	0.7524	0.071
Mof_H 	H 	0.5073	0.4146	0.9912	0.147
Mof_H 	H 	0.265	0.0959	0.8282	0.209
Mof_H 	H 	0.4153	0.4956	0.0646	0.308
Mof_H 	H 	0.396	0.2023	0.6312	-0.12
Mof_H 	H 	0.4549	0.2378	0.5398	0.114
Mof_H 	H 	0.3601	0.1721	0.5278	0.111
Mof_H 	H 	0.3016	0.1402	0.6188	-0.02
Mof_H 	H 	0.5065	0.2004	0.4872	0.067
Mof_H 	H 	0.5626	0.262	0.3242	0.059
Mof_H 	H 	0.4228	0.2503	0.4272	0.059
Mof_H 	H 	0.5187	0.243	0.2876	0.081
Mof_H 	H 	0.5074	0.2769	0.2172	0.023
Mof_H 	H 	0.4369	0.3598	0.2662	0.025
Mof_H 	H 	0.456	0.3334	0.331	0.082
Mof_H 	H 	0.5635	0.1643	0.4688	0.082
Mof_H 	H 	0.6374	0.153	0.4578	0.017
Mof_H 	H 	0.7111	0.2736	0.3032	0.021
Mof_H 	H 	0.637	0.2877	0.3162	0.076
Mof_H 	H 	0.3001	0.2558	0.845	-0.004
Mof_H 	H 	0.3624	0.3146	0.822	0.095
Mof_H 	H 	0.4597	0.2435	0.7788	0.097
Mof_H 	H 	0.3973	0.1847	0.8018	-0.088
Mof_H 	H 	0.4282	0.3413	0.8318	0.061
Mof_H 	H 	0.5664	0.433	0.7024	0.059
Mof_H 	H 	0.506	0.3252	0.7064	0.066
Mof_H 	H 	0.6395	0.418	0.6488	0.084
Mof_H 	H 	0.7075	0.4341	0.5686	0.013
Mof_H 	H 	0.62	0.4022	0.528	0.016
Mof_H 	H 	0.5506	0.3802	0.6152	0.087
Mof_H 	H 	0.4293	0.4292	0.816	0.083
Mof_H 	H 	0.4276	0.4716	0.8556	0.019
Mof_H 	H 	0.5593	0.4664	0.8242	0.019
Mof_H 	H 	0.5649	0.4265	0.7826	0.081
Mof_H 	H 	0.3954	0.0329	0.7726	-0.074
Mof_H 	H 	0.456	0.9939	0.7676	0.086
Mof_H 	H 	0.3629	0.8774	0.9234	0.09
Mof_H 	H 	0.3026	0.9142	0.9326	0.007
Mof_H 	H 	0.511	0.9822	0.7952	0.074
Mof_H 	H 	0.5698	0.8724	0.835	0.068
Mof_H 	H 	0.4264	0.8426	0.884	0.065
Mof_H 	H 	0.5376	0.79	0.8314	0.089
Mof_H 	H 	0.5259	0.7067	0.8862	0.01
Mof_H 	H 	0.428	0.6936	0.0254	0.005
Mof_H 	H 	0.4392	0.7782	0.9752	0.091
Mof_H 	H 	0.5605	0.0184	0.8016	0.082
Mof_H 	H 	0.6339	0.0794	0.7588	0.022
Mof_H 	H 	0.7156	0.0011	0.7078	0.022
Mof_H 	H 	0.64	0.9405	0.7524	0.07
Mof_H 	H 	0.3442	0.7573	0.4912	0.142
Mof_H 	H 	0.8259	0.515	0.3282	0.209
Mof_H 	H 	0.1898	0.6653	0.5646	0.308
Mof_H 	H 	0.9165	0.646	0.1312	-0.117
Mof_H 	H 	0.9724	0.7049	0.0398	0.109
Mof_H 	H 	0.0501	0.6101	0.0278	0.105
Mof_H 	H 	0.991	0.5516	0.1188	-0.017
Mof_H 	H 	0.0624	0.7565	0.9872	0.073
Mof_H 	H 	0.1638	0.8126	0.8242	0.061
Mof_H 	H 	0.0725	0.6728	0.9272	0.064
Mof_H 	H 	0.2194	0.7687	0.7876	0.081
Mof_H 	H 	0.2559	0.7574	0.7172	0.024
Mof_H 	H 	0.124	0.6869	0.7662	0.026
Mof_H 	H 	0.0856	0.706	0.831	0.082
Mof_H 	H 	0.1169	0.8135	0.9688	0.083
Mof_H 	H 	0.1392	0.8874	0.9578	0.019
Mof_H 	H 	0.1732	0.9611	0.8032	0.023
Mof_H 	H 	0.1461	0.887	0.8162	0.076
Mof_H 	H 	0.6492	0.5501	0.345	-0.004
Mof_H 	H 	0.6134	0.6124	0.322	0.094
Mof_H 	H 	0.7277	0.7097	0.2788	0.097
Mof_H 	H 	0.7635	0.6473	0.3018	-0.088
Mof_H 	H 	0.5769	0.6782	0.3318	0.06
Mof_H 	H 	0.6146	0.8164	0.2024	0.058
Mof_H 	H 	0.7184	0.756	0.2064	0.066
Mof_H 	H 	0.6832	0.8895	0.1488	0.086
Mof_H 	H 	0.7473	0.9575	0.0686	0.01
Mof_H 	H 	0.8198	0.87	0.028	0.011
Mof_H 	H 	0.7546	0.8006	0.1152	0.088
Mof_H 	H 	0.5048	0.6793	0.316	0.083
Mof_H 	H 	0.4228	0.6776	0.3556	0.017
Mof_H 	H 	0.4594	0.8093	0.3242	0.018
Mof_H 	H 	0.5409	0.8149	0.2826	0.081
Mof_H 	H 	0.9445	0.6454	0.2726	-0.08
Mof_H 	H 	0.9885	0.706	0.2676	0.089
Mof_H 	H 	0.9492	0.6129	0.4234	0.091
Mof_H 	H 	0.9032	0.5526	0.4326	0.001
Mof_H 	H 	0.9726	0.761	0.2952	0.076
Mof_H 	H 	0.0426	0.8198	0.335	0.071
Mof_H 	H 	0.0234	0.6764	0.384	0.065
Mof_H 	H 	0.1286	0.7876	0.3314	0.084
Mof_H 	H 	0.1571	0.7759	0.3862	0.015
Mof_H 	H 	0.031	0.678	0.5254	0.022
Mof_H 	H 	0.9966	0.6892	0.4752	0.078
Mof_H 	H 	0.93	0.8105	0.3016	0.079
Mof_H 	H 	0.9118	0.8839	0.2588	0.023
Mof_H 	H 	0.0411	0.9656	0.2078	0.024
Mof_H 	H 	0.0571	0.89	0.2524	0.069
Mof_H 	H 	0.1646	0.7515	0.4912	0.142
Mof_H 	H 	0.8459	0.1568	0.3282	0.209
Mof_H 	H 	0.2456	0.7701	0.5646	0.308
Mof_H 	H 	0.9523	0.2228	0.1312	-0.116
Mof_H 	H 	0.9878	0.2553	0.0398	0.107
Mof_H 	H 	0.9221	0.3621	0.0278	0.105
Mof_H 	H 	0.8902	0.3296	0.1188	-0.017
Mof_H 	H 	0.9504	0.2563	0.9872	0.074
Mof_H 	H 	0.012	0.3632	0.8242	0.062
Mof_H 	H 	0.0003	0.4	0.9272	0.07
Mof_H 	H 	0.993	0.4437	0.7876	0.075
Mof_H 	H 	0.0269	0.5254	0.7172	0.027
Mof_H 	H 	0.1098	0.5469	0.7662	0.028
Mof_H 	H 	0.0834	0.463	0.831	0.08
Mof_H 	H 	0.9143	0.2177	0.9688	0.082
Mof_H 	H 	0.903	0.1548	0.9578	0.019
Mof_H 	H 	0.0236	0.2357	0.8032	0.022
Mof_H 	H 	0.0377	0.2968	0.8162	0.074
Mof_H 	H 	0.0058	0.1049	0.345	-0.006
Mof_H 	H 	0.0646	0.0656	0.322	0.096
Mof_H 	H 	0.9935	0.0115	0.2788	0.098
Mof_H 	H 	0.9347	0.0509	0.3018	-0.09
Mof_H 	H 	0.0913	0.99	0.3318	0.057
Mof_H 	H 	0.183	0.9812	0.2024	0.055
Mof_H 	H 	0.0752	0.0376	0.2064	0.062
Mof_H 	H 	0.168	0.9617	0.1488	0.088
Mof_H 	H 	0.1841	0.9739	0.0686	0.007
Mof_H 	H 	0.1522	0.102	0.028	0.008
Mof_H 	H 	0.1302	0.0842	0.1152	0.09
Mof_H 	H 	0.1792	0.0047	0.316	0.076
Mof_H 	H 	0.2216	0.9668	0.3556	0.02
Mof_H 	H 	0.2164	0.8665	0.3242	0.019
Mof_H 	H 	0.1765	0.9025	0.2826	0.08
Mof_H 	H 	0.7829	0.082	0.2726	-0.08
Mof_H 	H 	0.7439	0.0264	0.2676	0.09
Mof_H 	H 	0.6274	0.9637	0.4234	0.091
Mof_H 	H 	0.6642	0.0148	0.4326	0.002
Mof_H 	H 	0.7322	0.9438	0.2952	0.073
Mof_H 	H 	0.6224	0.8452	0.335	0.068
Mof_H 	H 	0.5926	0.9396	0.384	0.064
Mof_H 	H 	0.54	0.881	0.3314	0.085
Mof_H 	H 	0.4567	0.8379	0.3862	0.014
Mof_H 	H 	0.4436	0.7966	0.5254	0.019
Mof_H 	H 	0.5282	0.8356	0.4752	0.084
Mof_H 	H 	0.7684	0.8879	0.3016	0.081
Mof_H 	H 	0.8294	0.8573	0.2588	0.022
Mof_H 	H 	0.7511	0.8266	0.2078	0.022
Mof_H 	H 	0.6905	0.8576	0.2524	0.071
Mof_H 	H 	0.2427	0.6558	0.5088	0.142
Mof_H 	H 	0.485	0.1741	0.6718	0.209
Mof_H 	H 	0.3347	0.8102	0.4354	0.308
Mof_H 	H 	0.354	0.0835	0.8688	-0.123
Mof_H 	H 	0.2951	0.0276	0.9602	0.12
Mof_H 	H 	0.3899	0.9499	0.9722	0.116
Mof_H 	H 	0.4484	0.009	0.8812	-0.022
Mof_H 	H 	0.2435	0.9376	0.0128	0.062
Mof_H 	H 	0.1874	0.8362	0.1758	0.057
Mof_H 	H 	0.3272	0.9275	0.0728	0.055
Mof_H 	H 	0.2313	0.7806	0.2124	0.082
Mof_H 	H 	0.2426	0.7441	0.2828	0.023
Mof_H 	H 	0.3131	0.876	0.2338	0.024
Mof_H 	H 	0.294	0.9144	0.169	0.083
Mof_H 	H 	0.1865	0.8831	0.0312	0.081
Mof_H 	H 	0.1126	0.8608	0.0422	0.014
Mof_H 	H 	0.0389	0.8268	0.1968	0.021
Mof_H 	H 	0.113	0.8539	0.1838	0.077
Mof_H 	H 	0.4499	0.3508	0.655	-0.004
Mof_H 	H 	0.3876	0.3866	0.678	0.094
Mof_H 	H 	0.2903	0.2723	0.7212	0.096
Mof_H 	H 	0.3527	0.2365	0.6982	-0.088
Mof_H 	H 	0.3218	0.4231	0.6682	0.061
Mof_H 	H 	0.1836	0.3854	0.7976	0.06
Mof_H 	H 	0.244	0.2816	0.7936	0.067
Mof_H 	H 	0.1105	0.3168	0.8512	0.081
Mof_H 	H 	0.0425	0.2527	0.9314	0.019
Mof_H 	H 	0.13	0.1802	0.972	0.022
Mof_H 	H 	0.1994	0.2454	0.8848	0.085
Mof_H 	H 	0.3207	0.4952	0.684	0.083
Mof_H 	H 	0.3224	0.5772	0.6444	0.018
Mof_H 	H 	0.1907	0.5406	0.6758	0.018
Mof_H 	H 	0.1851	0.4591	0.7174	0.081
Mof_H 	H 	0.3546	0.0555	0.7274	-0.08
Mof_H 	H 	0.294	0.0115	0.7324	0.089
Mof_H 	H 	0.3871	0.0508	0.5766	0.091
Mof_H 	H 	0.4474	0.0968	0.5674	0.001
Mof_H 	H 	0.239	0.0274	0.7048	0.077
Mof_H 	H 	0.1802	0.9574	0.665	0.071
Mof_H 	H 	0.3236	0.9766	0.616	0.065
Mof_H 	H 	0.2124	0.8714	0.6686	0.083
Mof_H 	H 	0.2241	0.8429	0.6138	0.016
Mof_H 	H 	0.322	0.969	0.4746	0.022
Mof_H 	H 	0.3108	0.0034	0.5248	0.077
Mof_H 	H 	0.1895	0.07	0.6984	0.079
Mof_H 	H 	0.1161	0.0882	0.7412	0.023
Mof_H 	H 	0.0344	0.9589	0.7922	0.024
Mof_H 	H 	0.11	0.9429	0.7476	0.068
Mof_H 	H 	0.2485	0.8354	0.5088	0.142
Mof_H 	H 	0.8432	0.1541	0.6718	0.209
Mof_H 	H 	0.2299	0.7544	0.4354	0.308
Mof_H 	H 	0.7772	0.0477	0.8688	-0.122
Mof_H 	H 	0.7447	0.0122	0.9602	0.119
Mof_H 	H 	0.6379	0.0779	0.9722	0.116
Mof_H 	H 	0.6704	0.1098	0.8812	-0.022
Mof_H 	H 	0.7437	0.0496	0.0128	0.063
Mof_H 	H 	0.6368	0.988	0.1758	0.059
Mof_H 	H 	0.6	0.9997	0.0728	0.062
Mof_H 	H 	0.5563	0.007	0.2124	0.074
Mof_H 	H 	0.4746	0.9731	0.2828	0.027
Mof_H 	H 	0.4531	0.8902	0.2338	0.027
Mof_H 	H 	0.537	0.9166	0.169	0.079
Mof_H 	H 	0.7823	0.0857	0.0312	0.08
Mof_H 	H 	0.8452	0.097	0.0422	0.014
Mof_H 	H 	0.7643	0.9764	0.1968	0.021
Mof_H 	H 	0.7032	0.9623	0.1838	0.076
Mof_H 	H 	0.8951	0.9942	0.655	-0.006
Mof_H 	H 	0.9344	0.9354	0.678	0.096
Mof_H 	H 	0.9885	0.0065	0.7212	0.098
Mof_H 	H 	0.9491	0.0653	0.6982	-0.091
Mof_H 	H 	0.01	0.9087	0.6682	0.058
Mof_H 	H 	0.0188	0.817	0.7976	0.057
Mof_H 	H 	0.9624	0.9248	0.7936	0.064
Mof_H 	H 	0.0383	0.832	0.8512	0.083
Mof_H 	H 	0.0261	0.8159	0.9314	0.015
Mof_H 	H 	0.898	0.8478	0.972	0.019
Mof_H 	H 	0.9158	0.8698	0.8848	0.087
Mof_H 	H 	0.9953	0.8208	0.684	0.078
Mof_H 	H 	0.0332	0.7784	0.6444	0.02
Mof_H 	H 	0.1335	0.7836	0.6758	0.019
Mof_H 	H 	0.0975	0.8235	0.7174	0.08
Mof_H 	H 	0.918	0.2171	0.7274	-0.08
Mof_H 	H 	0.9736	0.2561	0.7324	0.09
Mof_H 	H 	0.0363	0.3726	0.5766	0.092
Mof_H 	H 	0.9852	0.3358	0.5674	0.002
Mof_H 	H 	0.0562	0.2678	0.7048	0.073
Mof_H 	H 	0.1548	0.3776	0.665	0.068
Mof_H 	H 	0.0604	0.4074	0.616	0.064
Mof_H 	H 	0.119	0.46	0.6686	0.085
Mof_H 	H 	0.1621	0.5433	0.6138	0.014
Mof_H 	H 	0.2034	0.5564	0.4746	0.019
Mof_H 	H 	0.1644	0.4718	0.5248	0.084
Mof_H 	H 	0.1121	0.2316	0.6984	0.081
Mof_H 	H 	0.1427	0.1706	0.7412	0.023
Mof_H 	H 	0.1734	0.2489	0.7922	0.022
Mof_H 	H 	0.1424	0.3095	0.7476	0.071
Mof_H 	H 	0.5854	0.4927	0.0088	0.138
Mof_H 	H 	0.9041	0.735	0.1718	0.209
Mof_H 	H 	0.5044	0.5847	0.9354	0.308
Mof_H 	H 	0.7977	0.604	0.3688	-0.12
Mof_H 	H 	0.7622	0.5451	0.4602	0.114
Mof_H 	H 	0.8279	0.6399	0.4722	0.111
Mof_H 	H 	0.8598	0.6984	0.3812	-0.02
Mof_H 	H 	0.7996	0.4935	0.5128	0.067
Mof_H 	H 	0.738	0.4374	0.6758	0.059
Mof_H 	H 	0.7497	0.5772	0.5728	0.059
Mof_H 	H 	0.757	0.4813	0.7124	0.082
Mof_H 	H 	0.7231	0.4926	0.7828	0.024
Mof_H 	H 	0.6402	0.5631	0.7338	0.025
Mof_H 	H 	0.6666	0.544	0.669	0.082
Mof_H 	H 	0.8357	0.4365	0.5312	0.082
Mof_H 	H 	0.847	0.3626	0.5422	0.017
Mof_H 	H 	0.7264	0.2889	0.6968	0.021
Mof_H 	H 	0.7123	0.363	0.6838	0.076
Mof_H 	H 	0.7442	0.6999	0.155	-0.005
Mof_H 	H 	0.6854	0.6376	0.178	0.094
Mof_H 	H 	0.7565	0.5403	0.2212	0.097
Mof_H 	H 	0.8153	0.6027	0.1982	-0.089
Mof_H 	H 	0.6587	0.5718	0.1682	0.059
Mof_H 	H 	0.567	0.4336	0.2976	0.059
Mof_H 	H 	0.6748	0.494	0.2936	0.066
Mof_H 	H 	0.582	0.3605	0.3512	0.084
Mof_H 	H 	0.5659	0.2925	0.4314	0.013
Mof_H 	H 	0.5978	0.38	0.472	0.015
Mof_H 	H 	0.6198	0.4494	0.3848	0.087
Mof_H 	H 	0.5708	0.5707	0.184	0.083
Mof_H 	H 	0.5284	0.5724	0.1444	0.017
Mof_H 	H 	0.5336	0.4407	0.1758	0.018
Mof_H 	H 	0.5735	0.4351	0.2174	0.081
Mof_H 	H 	0.9671	0.6046	0.2274	-0.076
Mof_H 	H 	0.0061	0.544	0.2324	0.087
Mof_H 	H 	0.1226	0.6371	0.0766	0.089
Mof_H 	H 	0.0858	0.6974	0.0674	0.002
Mof_H 	H 	0.0178	0.489	0.2048	0.075
Mof_H 	H 	0.1276	0.4302	0.165	0.069
Mof_H 	H 	0.1574	0.5736	0.116	0.065
Mof_H 	H 	0.21	0.4624	0.1686	0.081
Mof_H 	H 	0.2933	0.4741	0.1138	0.018
Mof_H 	H 	0.3064	0.572	0.9746	0.034
Mof_H 	H 	0.2218	0.5608	0.0248	0.076
Mof_H 	H 	0.9816	0.4395	0.1984	0.081
Mof_H 	H 	0.9206	0.3661	0.2412	0.022
Mof_H 	H 	0.9989	0.2844	0.2922	0.022
Mof_H 	H 	0.0595	0.36	0.2476	0.07
Mof_H 	H 	0.4058	0.4985	0.0088	0.138
Mof_H 	H 	0.9241	0.0932	0.1718	0.209
Mof_H 	H 	0.5602	0.4799	0.9354	0.308
Mof_H 	H 	0.8335	0.0272	0.3688	-0.123
Mof_H 	H 	0.7776	0.9947	0.4602	0.116
Mof_H 	H 	0.6999	0.8879	0.4722	0.112
Mof_H 	H 	0.759	0.9204	0.3812	-0.02
Mof_H 	H 	0.6876	0.9937	0.5128	0.068
Mof_H 	H 	0.5862	0.8868	0.6758	0.059
Mof_H 	H 	0.6775	0.85	0.5728	0.059
Mof_H 	H 	0.5306	0.8063	0.7124	0.082
Mof_H 	H 	0.4941	0.7246	0.7828	0.024
Mof_H 	H 	0.626	0.7031	0.7338	0.025
Mof_H 	H 	0.6644	0.787	0.669	0.082
Mof_H 	H 	0.6331	0.0323	0.5312	0.082
Mof_H 	H 	0.6108	0.0952	0.5422	0.016
Mof_H 	H 	0.5768	0.0143	0.6968	0.022
Mof_H 	H 	0.6039	0.9532	0.6838	0.075
Mof_H 	H 	0.1008	0.1451	0.155	-0.006
Mof_H 	H 	0.1366	0.1844	0.178	0.095
Mof_H 	H 	0.0223	0.2385	0.2212	0.098
Mof_H 	H 	0.9865	0.1991	0.1982	-0.091
Mof_H 	H 	0.1731	0.26	0.1682	0.059
Mof_H 	H 	0.1354	0.2688	0.2976	0.058
Mof_H 	H 	0.0316	0.2124	0.2936	0.066
Mof_H 	H 	0.0668	0.2883	0.3512	0.086
Mof_H 	H 	0.0027	0.2761	0.4314	0.011
Mof_H 	H 	0.9302	0.148	0.472	0.014
Mof_H 	H 	0.9954	0.1658	0.3848	0.089
Mof_H 	H 	0.2452	0.2453	0.184	0.083
Mof_H 	H 	0.3272	0.2832	0.1444	0.016
Mof_H 	H 	0.2906	0.3835	0.1758	0.018
Mof_H 	H 	0.2091	0.3475	0.2174	0.081
Mof_H 	H 	0.8055	0.168	0.2274	-0.08
Mof_H 	H 	0.7615	0.2236	0.2324	0.09
Mof_H 	H 	0.8008	0.2863	0.0766	0.091
Mof_H 	H 	0.8468	0.2352	0.0674	-0.001
Mof_H 	H 	0.7774	0.3062	0.2048	0.073
Mof_H 	H 	0.7074	0.4048	0.165	0.069
Mof_H 	H 	0.7266	0.3104	0.116	0.064
Mof_H 	H 	0.6214	0.369	0.1686	0.081
Mof_H 	H 	0.5929	0.4121	0.1138	0.018
Mof_H 	H 	0.719	0.4534	0.9746	0.033
Mof_H 	H 	0.7534	0.4144	0.0248	0.076
Mof_H 	H 	0.82	0.3621	0.1984	0.081
Mof_H 	H 	0.8382	0.3927	0.2412	0.022
Mof_H 	H 	0.7089	0.4234	0.2922	0.022
Mof_H 	H 	0.6929	0.3924	0.2476	0.071
Mof_C 	C 	0.99979	0.15949	0.69682	0.521
Mof_C 	C 	0.023	0.1968	0.63426	-0.298
Mof_C 	C 	0.00128	0.19321	0.60998	0.24
Mof_C 	C 	0.0199	0.22747	0.55586	-0.262
Mof_C 	C 	0.06021	0.27014	0.52252	0.134
Mof_C 	C 	0.08385	0.27355	0.5483	-0.228
Mof_C 	C 	0.06462	0.23802	0.60216	0.186
Mof_C 	C 	0.07677	0.31259	0.46466	-0
Mof_C 	C 	0.03962	0.32732	0.45696	-0.082
Mof_C 	C 	0.05279	0.36432	0.40376	0.014
Mof_C 	C 	0.10433	0.38743	0.35934	-0.087
Mof_C 	C 	0.14155	0.37255	0.3663	0.014
Mof_C 	C 	0.1262	0.33362	0.42056	-0.08
Mof_C 	C 	0.19546	0.39916	0.31868	0.073
Mof_C 	C 	0.21388	0.44958	0.28324	-0.145
Mof_C 	C 	0.26339	0.47149	0.24202	0.066
Mof_C 	C 	0.2964	0.4432	0.2346	-0.139
Mof_C 	C 	0.27592	0.39332	0.26936	0.075
Mof_C 	C 	0.22629	0.37009	0.30962	-0.146
Mof_C 	C 	0.35116	0.46856	0.18968	0.386
Mof_C 	C 	0.01566	0.37966	0.39388	0.071
Mof_C 	C 	0.97176	0.37796	0.43488	-0.141
Mof_C 	C 	0.93307	0.39057	0.42886	0.077
Mof_C 	C 	0.93667	0.40827	0.37926	-0.163
Mof_C 	C 	0.9813	0.4104	0.3376	0.07
Mof_C 	C 	0.01858	0.39528	0.34504	-0.132
Mof_C 	C 	0.95616	0.14856	0.87048	0.41
Mof_C 	C 	0.86083	0.98583	0.83514	0.503
Mof_C 	C 	0.83176	0.95988	0.82574	-0.252
Mof_C 	C 	0.83619	0.91494	0.83178	0.137
Mof_C 	C 	0.81266	0.89351	0.81796	-0.187
Mof_C 	C 	0.78469	0.91701	0.79812	0.106
Mof_C 	C 	0.78026	0.96195	0.79208	-0.206
Mof_C 	C 	0.80379	0.98338	0.8059	0.167
Mof_C 	C 	0.76651	0.89943	0.77312	0.01
Mof_C 	C 	0.74556	0.85078	0.79724	-0.082
Mof_C 	C 	0.73102	0.83582	0.77156	0.012
Mof_C 	C 	0.74067	0.87387	0.71986	-0.081
Mof_C 	C 	0.76223	0.92361	0.69358	0.009
Mof_C 	C 	0.7746	0.93499	0.72142	-0.083
Mof_C 	C 	0.76994	0.96155	0.64172	0.092
Mof_C 	C 	0.73954	0.96114	0.62552	-0.168
Mof_C 	C 	0.74756	0.99916	0.57628	0.103
Mof_C 	C 	0.79031	0.04101	0.53718	-0.183
Mof_C 	C 	0.82314	0.04284	0.55212	0.084
Mof_C 	C 	0.81202	0.00332	0.60536	-0.154
Mof_C 	C 	0.70767	0.78247	0.79686	0.079
Mof_C 	C 	0.72588	0.74648	0.81824	-0.149
Mof_C 	C 	0.70376	0.69686	0.84068	0.085
Mof_C 	C 	0.66385	0.6818	0.84316	-0.161
Mof_C 	C 	0.64522	0.71907	0.82152	0.087
Mof_C 	C 	0.66602	0.76762	0.79796	-0.149
Mof_C 	C 	0.49569	0.50879	0.13342	0.404
Mof_C 	C 	0.83758	0.13721	0.85898	0.486
Mof_C 	C 	0.80371	0.16886	0.85274	-0.224
Mof_C 	C 	0.80758	0.19421	0.8034	0.148
Mof_C 	C 	0.77377	0.22029	0.80146	-0.184
Mof_C 	C 	0.73584	0.22069	0.84692	0.098
Mof_C 	C 	0.73547	0.19657	0.89386	-0.18
Mof_C 	C 	0.76734	0.17064	0.89892	0.119
Mof_C 	C 	0.69719	0.24259	0.84202	0.019
Mof_C 	C 	0.6788	0.2373	0.8146	-0.102
Mof_C 	C 	0.64083	0.25363	0.81394	0.036
Mof_C 	C 	0.61947	0.27907	0.83846	-0.103
Mof_C 	C 	0.63635	0.28435	0.8669	0.023
Mof_C 	C 	0.6767	0.26751	0.867	-0.093
Mof_C 	C 	0.61279	0.30903	0.89822	0.085
Mof_C 	C 	0.61498	0.35835	0.87004	-0.166
Mof_C 	C 	0.58618	0.37378	0.90444	0.107
Mof_C 	C 	0.5596	0.34789	0.962	-0.197
Mof_C 	C 	0.56236	0.30031	0.98668	0.116
Mof_C 	C 	0.58643	0.27963	0.95634	-0.164
Mof_C 	C 	0.47544	0.63894	0.99332	0.449
Mof_C 	C 	0.62225	0.24265	0.7861	0.057
Mof_C 	C 	0.62459	0.20189	0.78422	-0.126
Mof_C 	C 	0.60635	0.19095	0.7577	0.066
Mof_C 	C 	0.58838	0.22498	0.73004	-0.167
Mof_C 	C 	0.58869	0.26829	0.72622	0.069
Mof_C 	C 	0.60635	0.27715	0.7553	-0.121
Mof_C 	C 	0.0248	0.0379	0.794	0.428
Mof_C 	C 	0.79954	0.08184	0.48392	0.447
Mof_C 	C 	0.30339	0.14369	0.69682	0.525
Mof_C 	C 	0.34274	0.16894	0.63426	-0.299
Mof_C 	C 	0.38874	0.19681	0.60998	0.236
Mof_C 	C 	0.42424	0.21667	0.55586	-0.26
Mof_C 	C 	0.41727	0.20734	0.52252	0.133
Mof_C 	C 	0.36785	0.17815	0.5483	-0.227
Mof_C 	C 	0.33322	0.15982	0.60216	0.185
Mof_C 	C 	0.45857	0.22275	0.46466	0
Mof_C 	C 	0.50342	0.21572	0.45696	-0.083
Mof_C 	C 	0.54345	0.23192	0.40376	0.015
Mof_C 	C 	0.53633	0.25323	0.35934	-0.088
Mof_C 	C 	0.49215	0.26115	0.3663	0.014
Mof_C 	C 	0.45324	0.24582	0.42056	-0.08
Mof_C 	C 	0.48586	0.28216	0.31868	0.073
Mof_C 	C 	0.50288	0.26718	0.28324	-0.145
Mof_C 	C 	0.49459	0.28649	0.24202	0.065
Mof_C 	C 	0.469	0.3222	0.2346	-0.139
Mof_C 	C 	0.45472	0.33732	0.26936	0.075
Mof_C 	C 	0.46409	0.32029	0.30962	-0.145
Mof_C 	C 	0.45916	0.34176	0.18968	0.386
Mof_C 	C 	0.59046	0.22646	0.39388	0.069
Mof_C 	C 	0.59336	0.18716	0.43488	-0.138
Mof_C 	C 	0.63807	0.18057	0.42886	0.077
Mof_C 	C 	0.68407	0.21247	0.37926	-0.163
Mof_C 	C 	0.6811	0.252	0.3376	0.073
Mof_C 	C 	0.63638	0.25968	0.34504	-0.134
Mof_C 	C 	0.17336	0.98096	0.87048	0.414
Mof_C 	C 	0.30403	0.17903	0.83514	0.499
Mof_C 	C 	0.3425	0.21438	0.82574	-0.248
Mof_C 	C 	0.33203	0.25328	0.83178	0.133
Mof_C 	C 	0.36938	0.28853	0.81796	-0.183
Mof_C 	C 	0.41719	0.28487	0.79812	0.103
Mof_C 	C 	0.42766	0.24597	0.79208	-0.201
Mof_C 	C 	0.39031	0.21072	0.8059	0.159
Mof_C 	C 	0.46037	0.32745	0.77312	0.013
Mof_C 	C 	0.4572	0.35198	0.79724	-0.085
Mof_C 	C 	0.49742	0.39262	0.77156	0.014
Mof_C 	C 	0.53947	0.40627	0.71986	-0.085
Mof_C 	C 	0.54419	0.38281	0.69358	0.014
Mof_C 	C 	0.50398	0.34359	0.72142	-0.087
Mof_C 	C 	0.58834	0.39673	0.64172	0.083
Mof_C 	C 	0.63494	0.41334	0.62552	-0.159
Mof_C 	C 	0.67616	0.42456	0.57628	0.093
Mof_C 	C 	0.67251	0.42181	0.53718	-0.176
Mof_C 	C 	0.62474	0.40504	0.55212	0.078
Mof_C 	C 	0.58262	0.39132	0.60536	-0.145
Mof_C 	C 	0.49547	0.42067	0.79686	0.077
Mof_C 	C 	0.45588	0.43528	0.81824	-0.148
Mof_C 	C 	0.45556	0.46246	0.84068	0.085
Mof_C 	C 	0.49299	0.47504	0.84316	-0.16
Mof_C 	C 	0.53326	0.45941	0.82152	0.087
Mof_C 	C 	0.53602	0.43442	0.79796	-0.148
Mof_C 	C 	0.37089	0.35779	0.13342	0.404
Mof_C 	C 	0.30344	0.00381	0.85898	0.476
Mof_C 	C 	0.34355	0.9784	0.85274	-0.209
Mof_C 	C 	0.38902	0.00239	0.8034	0.13
Mof_C 	C 	0.42477	0.97825	0.80146	-0.17
Mof_C 	C 	0.41724	0.93239	0.84692	0.089
Mof_C 	C 	0.37067	0.90957	0.89386	-0.17
Mof_C 	C 	0.33374	0.93044	0.89892	0.108
Mof_C 	C 	0.46079	0.91539	0.84202	0.024
Mof_C 	C 	0.5066	0.9481	0.8146	-0.105
Mof_C 	C 	0.54523	0.93243	0.81394	0.038
Mof_C 	C 	0.54207	0.88247	0.83846	-0.105
Mof_C 	C 	0.49675	0.84875	0.8669	0.025
Mof_C 	C 	0.4563	0.86549	0.867	-0.096
Mof_C 	C 	0.48899	0.79275	0.89822	0.084
Mof_C 	C 	0.51498	0.77161	0.87004	-0.165
Mof_C 	C 	0.50938	0.72178	0.90444	0.106
Mof_C 	C 	0.4784	0.69011	0.962	-0.196
Mof_C 	C 	0.45096	0.71301	0.98668	0.114
Mof_C 	C 	0.45723	0.76403	0.95634	-0.163
Mof_C 	C 	0.53124	0.36774	0.99332	0.45
Mof_C 	C 	0.59165	0.97125	0.7861	0.058
Mof_C 	C 	0.59119	0.01389	0.78422	-0.128
Mof_C 	C 	0.63595	0.05135	0.7577	0.067
Mof_C 	C 	0.68158	0.04498	0.73004	-0.166
Mof_C 	C 	0.68509	0.00549	0.72622	0.066
Mof_C 	C 	0.63835	0.96755	0.7553	-0.118
Mof_C 	C 	0.1812	0.1681	0.794	0.426
Mof_C 	C 	0.71654	0.43424	0.48392	0.444
Mof_C 	C 	0.90949	0.55339	0.19682	0.522
Mof_C 	C 	0.9468	0.59274	0.13426	-0.292
Mof_C 	C 	0.94321	0.63874	0.10998	0.226
Mof_C 	C 	0.97747	0.67424	0.05586	-0.25
Mof_C 	C 	0.02014	0.66727	0.02252	0.117
Mof_C 	C 	0.02355	0.61785	0.0483	-0.214
Mof_C 	C 	0.98802	0.58322	0.10216	0.173
Mof_C 	C 	0.06259	0.70857	0.96466	0.016
Mof_C 	C 	0.07732	0.75342	0.95696	-0.091
Mof_C 	C 	0.11432	0.79345	0.90376	0.021
Mof_C 	C 	0.13743	0.78633	0.85934	-0.092
Mof_C 	C 	0.12255	0.74215	0.8663	0.021
Mof_C 	C 	0.08362	0.70324	0.92056	-0.089
Mof_C 	C 	0.14916	0.73586	0.81868	0.071
Mof_C 	C 	0.19958	0.75288	0.78324	-0.142
Mof_C 	C 	0.22149	0.74459	0.74202	0.064
Mof_C 	C 	0.1932	0.719	0.7346	-0.137
Mof_C 	C 	0.14332	0.70472	0.76936	0.074
Mof_C 	C 	0.12009	0.71409	0.80962	-0.143
Mof_C 	C 	0.21856	0.70916	0.68968	0.386
Mof_C 	C 	0.12966	0.84046	0.89388	0.067
Mof_C 	C 	0.12796	0.84336	0.93488	-0.136
Mof_C 	C 	0.14057	0.88807	0.92886	0.076
Mof_C 	C 	0.15827	0.93407	0.87926	-0.162
Mof_C 	C 	0.1604	0.9311	0.8376	0.072
Mof_C 	C 	0.14528	0.88638	0.84504	-0.131
Mof_C 	C 	0.89856	0.42336	0.37048	0.41
Mof_C 	C 	0.73583	0.55403	0.33514	0.499
Mof_C 	C 	0.70988	0.5925	0.32574	-0.249
Mof_C 	C 	0.66494	0.58203	0.33178	0.133
Mof_C 	C 	0.64351	0.61938	0.31796	-0.184
Mof_C 	C 	0.66701	0.66719	0.29812	0.103
Mof_C 	C 	0.71195	0.67766	0.29208	-0.202
Mof_C 	C 	0.73338	0.64031	0.3059	0.16
Mof_C 	C 	0.64943	0.71037	0.27312	0.011
Mof_C 	C 	0.60078	0.7072	0.29724	-0.083
Mof_C 	C 	0.58582	0.74742	0.27156	0.013
Mof_C 	C 	0.62387	0.78947	0.21986	-0.083
Mof_C 	C 	0.67361	0.79419	0.19358	0.01
Mof_C 	C 	0.68499	0.75398	0.22142	-0.084
Mof_C 	C 	0.71155	0.83834	0.14172	0.088
Mof_C 	C 	0.71114	0.88494	0.12552	-0.166
Mof_C 	C 	0.74916	0.92616	0.07628	0.1
Mof_C 	C 	0.79101	0.92251	0.03718	-0.187
Mof_C 	C 	0.79284	0.87474	0.05212	0.084
Mof_C 	C 	0.75332	0.83262	0.10536	-0.151
Mof_C 	C 	0.53247	0.74547	0.29686	0.078
Mof_C 	C 	0.49648	0.70588	0.31824	-0.149
Mof_C 	C 	0.44686	0.70556	0.34068	0.085
Mof_C 	C 	0.4318	0.74299	0.34316	-0.161
Mof_C 	C 	0.46907	0.78326	0.32152	0.087
Mof_C 	C 	0.51762	0.78602	0.29796	-0.149
Mof_C 	C 	0.25879	0.62089	0.63342	0.404
Mof_C 	C 	0.88721	0.55344	0.35898	0.486
Mof_C 	C 	0.91886	0.59355	0.35274	-0.224
Mof_C 	C 	0.94421	0.63902	0.3034	0.147
Mof_C 	C 	0.97029	0.67477	0.30146	-0.183
Mof_C 	C 	0.97069	0.66724	0.34692	0.095
Mof_C 	C 	0.94657	0.62067	0.39386	-0.179
Mof_C 	C 	0.92064	0.58374	0.39892	0.118
Mof_C 	C 	0.99259	0.71079	0.34202	0.022
Mof_C 	C 	0.9873	0.7566	0.3146	-0.113
Mof_C 	C 	0.00363	0.79523	0.31394	0.049
Mof_C 	C 	0.02907	0.79207	0.33846	-0.113
Mof_C 	C 	0.03435	0.74675	0.3669	0.033
Mof_C 	C 	0.01751	0.7063	0.367	-0.097
Mof_C 	C 	0.05903	0.73899	0.39822	0.069
Mof_C 	C 	0.10835	0.76498	0.37004	-0.15
Mof_C 	C 	0.12378	0.75938	0.40444	0.09
Mof_C 	C 	0.09789	0.7284	0.462	-0.176
Mof_C 	C 	0.05031	0.70096	0.48668	0.082
Mof_C 	C 	0.02963	0.70723	0.45634	-0.137
Mof_C 	C 	0.38894	0.78124	0.49332	0.432
Mof_C 	C 	0.99265	0.84165	0.2861	0.046
Mof_C 	C 	0.95189	0.84119	0.28422	-0.12
Mof_C 	C 	0.94095	0.88595	0.2577	0.064
Mof_C 	C 	0.97498	0.93158	0.23004	-0.169
Mof_C 	C 	0.01829	0.93509	0.22622	0.07
Mof_C 	C 	0.02715	0.88835	0.2553	-0.113
Mof_C 	C 	0.7879	0.4312	0.294	0.425
Mof_C 	C 	0.83184	0.96654	0.98392	0.454
Mof_C 	C 	0.89369	0.24979	0.19682	0.522
Mof_C 	C 	0.91894	0.273	0.13426	-0.291
Mof_C 	C 	0.94681	0.25128	0.10998	0.224
Mof_C 	C 	0.96667	0.2699	0.05586	-0.246
Mof_C 	C 	0.95734	0.31021	0.02252	0.114
Mof_C 	C 	0.92815	0.33385	0.0483	-0.215
Mof_C 	C 	0.90982	0.31462	0.10216	0.174
Mof_C 	C 	0.97275	0.32677	0.96466	0.021
Mof_C 	C 	0.96572	0.28962	0.95696	-0.095
Mof_C 	C 	0.98192	0.30279	0.90376	0.023
Mof_C 	C 	0.00323	0.35433	0.85934	-0.095
Mof_C 	C 	0.01115	0.39155	0.8663	0.03
Mof_C 	C 	0.99582	0.3762	0.92056	-0.102
Mof_C 	C 	0.03216	0.44546	0.81868	0.062
Mof_C 	C 	0.01718	0.46388	0.78324	-0.13
Mof_C 	C 	0.03649	0.51339	0.74202	0.056
Mof_C 	C 	0.0722	0.5464	0.7346	-0.132
Mof_C 	C 	0.08732	0.52592	0.76936	0.067
Mof_C 	C 	0.07029	0.47629	0.80962	-0.136
Mof_C 	C 	0.09176	0.60116	0.68968	0.384
Mof_C 	C 	0.97646	0.26566	0.89388	0.063
Mof_C 	C 	0.93716	0.22176	0.93488	-0.134
Mof_C 	C 	0.93057	0.18307	0.92886	0.075
Mof_C 	C 	0.96247	0.18667	0.87926	-0.163
Mof_C 	C 	0.002	0.2313	0.8376	0.072
Mof_C 	C 	0.00968	0.26858	0.84504	-0.128
Mof_C 	C 	0.73096	0.20616	0.37048	0.41
Mof_C 	C 	0.92903	0.11083	0.33514	0.501
Mof_C 	C 	0.96438	0.08176	0.32574	-0.254
Mof_C 	C 	0.00328	0.08619	0.33178	0.139
Mof_C 	C 	0.03853	0.06266	0.31796	-0.19
Mof_C 	C 	0.03487	0.03469	0.29812	0.11
Mof_C 	C 	0.99597	0.03026	0.29208	-0.208
Mof_C 	C 	0.96072	0.05379	0.3059	0.164
Mof_C 	C 	0.07745	0.01651	0.27312	-0.001
Mof_C 	C 	0.10198	0.99556	0.29724	-0.071
Mof_C 	C 	0.14262	0.98102	0.27156	0.007
Mof_C 	C 	0.15627	0.99067	0.21986	-0.071
Mof_C 	C 	0.13281	0.01223	0.19358	-0.001
Mof_C 	C 	0.09359	0.0246	0.22142	-0.075
Mof_C 	C 	0.14673	0.01994	0.14172	0.09
Mof_C 	C 	0.16334	0.98954	0.12552	-0.168
Mof_C 	C 	0.17456	0.99756	0.07628	0.111
Mof_C 	C 	0.17181	0.04031	0.03718	-0.198
Mof_C 	C 	0.15504	0.07314	0.05212	0.09
Mof_C 	C 	0.14132	0.06202	0.10536	-0.157
Mof_C 	C 	0.17067	0.95767	0.29686	0.076
Mof_C 	C 	0.18528	0.97588	0.31824	-0.138
Mof_C 	C 	0.21246	0.95376	0.34068	0.079
Mof_C 	C 	0.22504	0.91385	0.34316	-0.157
Mof_C 	C 	0.20941	0.89522	0.32152	0.084
Mof_C 	C 	0.18442	0.91602	0.29796	-0.146
Mof_C 	C 	0.10779	0.74569	0.63342	0.403
Mof_C 	C 	0.75381	0.08758	0.35898	0.485
Mof_C 	C 	0.7284	0.05371	0.35274	-0.224
Mof_C 	C 	0.75239	0.05758	0.3034	0.148
Mof_C 	C 	0.72825	0.02377	0.30146	-0.187
Mof_C 	C 	0.68239	0.98584	0.34692	0.098
Mof_C 	C 	0.65957	0.98547	0.39386	-0.176
Mof_C 	C 	0.68044	0.01734	0.39892	0.114
Mof_C 	C 	0.66539	0.94719	0.34202	0.021
Mof_C 	C 	0.6981	0.9288	0.3146	-0.104
Mof_C 	C 	0.68243	0.89083	0.31394	0.038
Mof_C 	C 	0.63247	0.86947	0.33846	-0.106
Mof_C 	C 	0.59875	0.88635	0.3669	0.028
Mof_C 	C 	0.61549	0.9267	0.367	-0.096
Mof_C 	C 	0.54275	0.86279	0.39822	0.074
Mof_C 	C 	0.52161	0.86498	0.37004	-0.155
Mof_C 	C 	0.47178	0.83618	0.40444	0.094
Mof_C 	C 	0.44011	0.8096	0.462	-0.18
Mof_C 	C 	0.46301	0.81236	0.48668	0.087
Mof_C 	C 	0.51403	0.83643	0.45634	-0.147
Mof_C 	C 	0.11774	0.72544	0.49332	0.43
Mof_C 	C 	0.72125	0.87225	0.2861	0.056
Mof_C 	C 	0.76389	0.87459	0.28422	-0.125
Mof_C 	C 	0.80135	0.85635	0.2577	0.066
Mof_C 	C 	0.79498	0.83838	0.23004	-0.167
Mof_C 	C 	0.75549	0.83869	0.22622	0.069
Mof_C 	C 	0.71755	0.85635	0.2553	-0.12
Mof_C 	C 	0.9181	0.2748	0.294	0.425
Mof_C 	C 	0.18424	0.04954	0.98392	0.458
Mof_C 	C 	0.44661	0.09051	0.80318	0.526
Mof_C 	C 	0.40726	0.0532	0.86574	-0.304
Mof_C 	C 	0.36126	0.05679	0.89002	0.246
Mof_C 	C 	0.32576	0.02253	0.94414	-0.274
Mof_C 	C 	0.33273	0.97986	0.97748	0.15
Mof_C 	C 	0.38215	0.97645	0.9517	-0.233
Mof_C 	C 	0.41678	0.01198	0.89784	0.189
Mof_C 	C 	0.29143	0.93741	0.03534	-0.015
Mof_C 	C 	0.24658	0.92268	0.04304	-0.074
Mof_C 	C 	0.20655	0.88568	0.09624	0.009
Mof_C 	C 	0.21367	0.86257	0.14066	-0.083
Mof_C 	C 	0.25785	0.87745	0.1337	0.009
Mof_C 	C 	0.29676	0.91638	0.07944	-0.071
Mof_C 	C 	0.26414	0.85084	0.18132	0.076
Mof_C 	C 	0.24712	0.80042	0.21676	-0.147
Mof_C 	C 	0.25541	0.77851	0.25798	0.067
Mof_C 	C 	0.281	0.8068	0.2654	-0.14
Mof_C 	C 	0.29528	0.85668	0.23064	0.076
Mof_C 	C 	0.28591	0.87991	0.19038	-0.147
Mof_C 	C 	0.29084	0.78144	0.31032	0.387
Mof_C 	C 	0.15954	0.87034	0.10612	0.073
Mof_C 	C 	0.15664	0.87204	0.06512	-0.142
Mof_C 	C 	0.11193	0.85943	0.07114	0.079
Mof_C 	C 	0.06593	0.84173	0.12074	-0.166
Mof_C 	C 	0.0689	0.8396	0.1624	0.075
Mof_C 	C 	0.11362	0.85472	0.15496	-0.137
Mof_C 	C 	0.57664	0.10144	0.62952	0.41
Mof_C 	C 	0.44597	0.26417	0.66486	0.499
Mof_C 	C 	0.4075	0.29012	0.67426	-0.249
Mof_C 	C 	0.41797	0.33506	0.66822	0.133
Mof_C 	C 	0.38062	0.35649	0.68204	-0.183
Mof_C 	C 	0.33281	0.33299	0.70188	0.102
Mof_C 	C 	0.32234	0.28805	0.70792	-0.201
Mof_C 	C 	0.35969	0.26662	0.6941	0.159
Mof_C 	C 	0.28963	0.35057	0.72688	0.014
Mof_C 	C 	0.2928	0.39922	0.70276	-0.086
Mof_C 	C 	0.25258	0.41418	0.72844	0.016
Mof_C 	C 	0.21053	0.37613	0.78014	-0.087
Mof_C 	C 	0.20581	0.32639	0.80642	0.018
Mof_C 	C 	0.24602	0.31501	0.77858	-0.089
Mof_C 	C 	0.16166	0.28845	0.85828	0.076
Mof_C 	C 	0.11506	0.28886	0.87448	-0.15
Mof_C 	C 	0.07384	0.25084	0.92372	0.083
Mof_C 	C 	0.07749	0.20899	0.96282	-0.16
Mof_C 	C 	0.12526	0.20716	0.94788	0.069
Mof_C 	C 	0.16738	0.24668	0.89464	-0.137
Mof_C 	C 	0.25453	0.46753	0.70314	0.077
Mof_C 	C 	0.29412	0.50352	0.68176	-0.148
Mof_C 	C 	0.29444	0.55314	0.65932	0.085
Mof_C 	C 	0.25701	0.5682	0.65684	-0.161
Mof_C 	C 	0.21674	0.53093	0.67848	0.087
Mof_C 	C 	0.21398	0.48238	0.70204	-0.148
Mof_C 	C 	0.37911	0.74121	0.36658	0.404
Mof_C 	C 	0.44656	0.11279	0.64102	0.486
Mof_C 	C 	0.40645	0.08114	0.64726	-0.224
Mof_C 	C 	0.36098	0.05579	0.6966	0.147
Mof_C 	C 	0.32523	0.02971	0.69854	-0.183
Mof_C 	C 	0.33276	0.02931	0.65308	0.095
Mof_C 	C 	0.37933	0.05343	0.60614	-0.179
Mof_C 	C 	0.41626	0.07936	0.60108	0.118
Mof_C 	C 	0.28921	0.00741	0.65798	0.023
Mof_C 	C 	0.2434	0.0127	0.6854	-0.115
Mof_C 	C 	0.20477	0.99637	0.68606	0.052
Mof_C 	C 	0.20793	0.97093	0.66154	-0.114
Mof_C 	C 	0.25325	0.96565	0.6331	0.034
Mof_C 	C 	0.2937	0.98249	0.633	-0.097
Mof_C 	C 	0.26101	0.94097	0.60178	0.068
Mof_C 	C 	0.23502	0.89165	0.62996	-0.149
Mof_C 	C 	0.24062	0.87622	0.59556	0.089
Mof_C 	C 	0.2716	0.90211	0.538	-0.175
Mof_C 	C 	0.29904	0.94969	0.51332	0.08
Mof_C 	C 	0.29277	0.97037	0.54366	-0.135
Mof_C 	C 	0.21876	0.61106	0.50668	0.432
Mof_C 	C 	0.15835	0.00735	0.7139	0.043
Mof_C 	C 	0.15881	0.04811	0.71578	-0.119
Mof_C 	C 	0.11405	0.05905	0.7423	0.063
Mof_C 	C 	0.06842	0.02502	0.76996	-0.169
Mof_C 	C 	0.06491	0.98171	0.77378	0.07
Mof_C 	C 	0.11165	0.97285	0.7447	-0.111
Mof_C 	C 	0.5688	0.2121	0.706	0.426
Mof_C 	C 	0.03346	0.16816	0.01608	0.434
Mof_C 	C 	0.75021	0.10631	0.80318	0.526
Mof_C 	C 	0.727	0.08106	0.86574	-0.304
Mof_C 	C 	0.74872	0.05319	0.89002	0.243
Mof_C 	C 	0.7301	0.03333	0.94414	-0.268
Mof_C 	C 	0.68979	0.04266	0.97748	0.145
Mof_C 	C 	0.66615	0.07185	0.9517	-0.235
Mof_C 	C 	0.68538	0.09018	0.89784	0.192
Mof_C 	C 	0.67323	0.02725	0.03534	-0.008
Mof_C 	C 	0.71038	0.03428	0.04304	-0.079
Mof_C 	C 	0.69721	0.01808	0.09624	0.011
Mof_C 	C 	0.64567	0.99677	0.14066	-0.086
Mof_C 	C 	0.60845	0.98885	0.1337	0.021
Mof_C 	C 	0.6238	0.00418	0.07944	-0.088
Mof_C 	C 	0.55454	0.96784	0.18132	0.064
Mof_C 	C 	0.53612	0.98282	0.21676	-0.13
Mof_C 	C 	0.48661	0.96351	0.25798	0.056
Mof_C 	C 	0.4536	0.9278	0.2654	-0.133
Mof_C 	C 	0.47408	0.91268	0.23064	0.068
Mof_C 	C 	0.52371	0.92971	0.19038	-0.138
Mof_C 	C 	0.39884	0.90824	0.31032	0.384
Mof_C 	C 	0.73434	0.02354	0.10612	0.068
Mof_C 	C 	0.77824	0.06284	0.06512	-0.14
Mof_C 	C 	0.81693	0.06943	0.07114	0.078
Mof_C 	C 	0.81333	0.03753	0.12074	-0.168
Mof_C 	C 	0.7687	0.998	0.1624	0.077
Mof_C 	C 	0.73142	0.99032	0.15496	-0.132
Mof_C 	C 	0.79384	0.26904	0.62952	0.41
Mof_C 	C 	0.88917	0.07097	0.66486	0.501
Mof_C 	C 	0.91824	0.03562	0.67426	-0.255
Mof_C 	C 	0.91381	0.99672	0.66822	0.14
Mof_C 	C 	0.93734	0.96147	0.68204	-0.191
Mof_C 	C 	0.96531	0.96513	0.70188	0.111
Mof_C 	C 	0.96974	0.00403	0.70792	-0.21
Mof_C 	C 	0.94621	0.03928	0.6941	0.165
Mof_C 	C 	0.98349	0.92255	0.72688	0.003
Mof_C 	C 	0.00444	0.89802	0.70276	-0.075
Mof_C 	C 	0.01898	0.85738	0.72844	0.011
Mof_C 	C 	0.00933	0.84373	0.78014	-0.077
Mof_C 	C 	0.98777	0.86719	0.80642	0.007
Mof_C 	C 	0.9754	0.90641	0.77858	-0.081
Mof_C 	C 	0.98006	0.85327	0.85828	0.079
Mof_C 	C 	0.01046	0.83666	0.87448	-0.153
Mof_C 	C 	0.00244	0.82544	0.92372	0.093
Mof_C 	C 	0.95969	0.82819	0.96282	-0.17
Mof_C 	C 	0.92686	0.84496	0.94788	0.074
Mof_C 	C 	0.93798	0.85868	0.89464	-0.142
Mof_C 	C 	0.04233	0.82933	0.70314	0.076
Mof_C 	C 	0.02412	0.81472	0.68176	-0.139
Mof_C 	C 	0.04624	0.78754	0.65932	0.08
Mof_C 	C 	0.08615	0.77496	0.65684	-0.158
Mof_C 	C 	0.10478	0.79059	0.67848	0.085
Mof_C 	C 	0.08398	0.81558	0.70204	-0.146
Mof_C 	C 	0.25431	0.89221	0.36658	0.403
Mof_C 	C 	0.91242	0.24619	0.64102	0.486
Mof_C 	C 	0.94629	0.2716	0.64726	-0.224
Mof_C 	C 	0.94242	0.24761	0.6966	0.148
Mof_C 	C 	0.97623	0.27175	0.69854	-0.187
Mof_C 	C 	0.01416	0.31761	0.65308	0.098
Mof_C 	C 	0.01453	0.34043	0.60614	-0.177
Mof_C 	C 	0.98266	0.31956	0.60108	0.116
Mof_C 	C 	0.05281	0.33461	0.65798	0.021
Mof_C 	C 	0.0712	0.3019	0.6854	-0.104
Mof_C 	C 	0.10917	0.31757	0.68606	0.038
Mof_C 	C 	0.13053	0.36753	0.66154	-0.106
Mof_C 	C 	0.11365	0.40125	0.6331	0.028
Mof_C 	C 	0.0733	0.38451	0.633	-0.096
Mof_C 	C 	0.13721	0.45725	0.60178	0.074
Mof_C 	C 	0.13502	0.47839	0.62996	-0.155
Mof_C 	C 	0.16382	0.52822	0.59556	0.094
Mof_C 	C 	0.1904	0.55989	0.538	-0.18
Mof_C 	C 	0.18764	0.53699	0.51332	0.087
Mof_C 	C 	0.16357	0.48597	0.54366	-0.147
Mof_C 	C 	0.27456	0.88226	0.50668	0.43
Mof_C 	C 	0.12775	0.27875	0.7139	0.056
Mof_C 	C 	0.12541	0.23611	0.71578	-0.125
Mof_C 	C 	0.14365	0.19865	0.7423	0.066
Mof_C 	C 	0.16162	0.20502	0.76996	-0.166
Mof_C 	C 	0.16131	0.24451	0.77378	0.069
Mof_C 	C 	0.14365	0.28245	0.7447	-0.12
Mof_C 	C 	0.7252	0.0819	0.706	0.425
Mof_C 	C 	0.95046	0.81576	0.01608	0.438
Mof_C 	C 	0.85631	0.69661	0.30318	0.524
Mof_C 	C 	0.83106	0.65726	0.36574	-0.299
Mof_C 	C 	0.80319	0.61126	0.39002	0.236
Mof_C 	C 	0.78333	0.57576	0.44414	-0.26
Mof_C 	C 	0.79266	0.58273	0.47748	0.133
Mof_C 	C 	0.82185	0.63215	0.4517	-0.227
Mof_C 	C 	0.84018	0.66678	0.39784	0.185
Mof_C 	C 	0.77725	0.54143	0.53534	0
Mof_C 	C 	0.78428	0.49658	0.54304	-0.083
Mof_C 	C 	0.76808	0.45655	0.59624	0.015
Mof_C 	C 	0.74677	0.46367	0.64066	-0.088
Mof_C 	C 	0.73885	0.50785	0.6337	0.015
Mof_C 	C 	0.75418	0.54676	0.57944	-0.08
Mof_C 	C 	0.71784	0.51414	0.68132	0.073
Mof_C 	C 	0.73282	0.49712	0.71676	-0.145
Mof_C 	C 	0.71351	0.50541	0.75798	0.065
Mof_C 	C 	0.6778	0.531	0.7654	-0.138
Mof_C 	C 	0.66268	0.54528	0.73064	0.075
Mof_C 	C 	0.67971	0.53591	0.69038	-0.145
Mof_C 	C 	0.65824	0.54084	0.81032	0.386
Mof_C 	C 	0.77354	0.40954	0.60612	0.069
Mof_C 	C 	0.81284	0.40664	0.56512	-0.138
Mof_C 	C 	0.81943	0.36193	0.57114	0.077
Mof_C 	C 	0.78753	0.31593	0.62074	-0.163
Mof_C 	C 	0.748	0.3189	0.6624	0.073
Mof_C 	C 	0.74032	0.36362	0.65496	-0.134
Mof_C 	C 	0.01904	0.82664	0.12952	0.414
Mof_C 	C 	0.82097	0.69597	0.16486	0.499
Mof_C 	C 	0.78562	0.6575	0.17426	-0.249
Mof_C 	C 	0.74672	0.66797	0.16822	0.133
Mof_C 	C 	0.71147	0.63062	0.18204	-0.184
Mof_C 	C 	0.71513	0.58281	0.20188	0.103
Mof_C 	C 	0.75403	0.57234	0.20792	-0.202
Mof_C 	C 	0.78928	0.60969	0.1941	0.159
Mof_C 	C 	0.67255	0.53963	0.22688	0.012
Mof_C 	C 	0.64802	0.5428	0.20276	-0.084
Mof_C 	C 	0.60738	0.50258	0.22844	0.013
Mof_C 	C 	0.59373	0.46053	0.28014	-0.084
Mof_C 	C 	0.61719	0.45581	0.30642	0.013
Mof_C 	C 	0.65641	0.49602	0.27858	-0.086
Mof_C 	C 	0.60327	0.41166	0.35828	0.083
Mof_C 	C 	0.58666	0.36506	0.37448	-0.159
Mof_C 	C 	0.57544	0.32384	0.42372	0.093
Mof_C 	C 	0.57819	0.32749	0.46282	-0.176
Mof_C 	C 	0.59496	0.37526	0.44788	0.078
Mof_C 	C 	0.60868	0.41738	0.39464	-0.145
Mof_C 	C 	0.57933	0.50453	0.20314	0.078
Mof_C 	C 	0.56472	0.54412	0.18176	-0.149
Mof_C 	C 	0.53754	0.54444	0.15932	0.085
Mof_C 	C 	0.52496	0.50701	0.15684	-0.162
Mof_C 	C 	0.54059	0.46674	0.17848	0.088
Mof_C 	C 	0.56558	0.46398	0.20204	-0.149
Mof_C 	C 	0.64221	0.62911	0.86658	0.404
Mof_C 	C 	0.99619	0.69656	0.14102	0.479
Mof_C 	C 	0.0216	0.65645	0.14726	-0.214
Mof_C 	C 	0.99761	0.61098	0.1966	0.135
Mof_C 	C 	0.02175	0.57523	0.19854	-0.173
Mof_C 	C 	0.06761	0.58276	0.15308	0.089
Mof_C 	C 	0.09043	0.62933	0.10614	-0.172
Mof_C 	C 	0.06956	0.66626	0.10108	0.111
Mof_C 	C 	0.08461	0.53921	0.15798	0.026
Mof_C 	C 	0.0519	0.4934	0.1854	-0.108
Mof_C 	C 	0.06757	0.45477	0.18606	0.041
Mof_C 	C 	0.11753	0.45793	0.16154	-0.11
Mof_C 	C 	0.15125	0.50325	0.1331	0.033
Mof_C 	C 	0.13451	0.5437	0.133	-0.101
Mof_C 	C 	0.20725	0.51101	0.10178	0.063
Mof_C 	C 	0.22839	0.48502	0.12996	-0.143
Mof_C 	C 	0.27822	0.49062	0.09556	0.08
Mof_C 	C 	0.30989	0.5216	0.038	-0.163
Mof_C 	C 	0.28699	0.54904	0.01332	0.058
Mof_C 	C 	0.23597	0.54277	0.04366	-0.129
Mof_C 	C 	0.63226	0.46876	0.00668	0.416
Mof_C 	C 	0.02875	0.40835	0.2139	0.056
Mof_C 	C 	0.98611	0.40881	0.21578	-0.126
Mof_C 	C 	0.94865	0.36405	0.2423	0.065
Mof_C 	C 	0.95502	0.31842	0.26996	-0.166
Mof_C 	C 	0.99451	0.31491	0.27378	0.066
Mof_C 	C 	0.03245	0.36165	0.2447	-0.118
Mof_C 	C 	0.8319	0.8188	0.206	0.426
Mof_C 	C 	0.56576	0.28346	0.51608	0.444
Mof_C 	C 	0.84051	0.00021	0.30318	0.52
Mof_C 	C 	0.8032	0.977	0.36574	-0.298
Mof_C 	C 	0.80679	0.99872	0.39002	0.242
Mof_C 	C 	0.77253	0.9801	0.44414	-0.263
Mof_C 	C 	0.72986	0.93979	0.47748	0.135
Mof_C 	C 	0.72645	0.91615	0.4517	-0.228
Mof_C 	C 	0.76198	0.93538	0.39784	0.186
Mof_C 	C 	0.68741	0.92323	0.53534	-0.001
Mof_C 	C 	0.67268	0.96038	0.54304	-0.082
Mof_C 	C 	0.63568	0.94721	0.59624	0.014
Mof_C 	C 	0.61257	0.89567	0.64066	-0.087
Mof_C 	C 	0.62745	0.85845	0.6337	0.014
Mof_C 	C 	0.66638	0.8738	0.57944	-0.079
Mof_C 	C 	0.60084	0.80454	0.68132	0.073
Mof_C 	C 	0.55042	0.78612	0.71676	-0.145
Mof_C 	C 	0.52851	0.73661	0.75798	0.065
Mof_C 	C 	0.5568	0.7036	0.7654	-0.139
Mof_C 	C 	0.60668	0.72408	0.73064	0.075
Mof_C 	C 	0.62991	0.77371	0.69038	-0.145
Mof_C 	C 	0.53144	0.64884	0.81032	0.386
Mof_C 	C 	0.62034	0.98434	0.60612	0.072
Mof_C 	C 	0.62204	0.02824	0.56512	-0.142
Mof_C 	C 	0.60943	0.06693	0.57114	0.078
Mof_C 	C 	0.59173	0.06333	0.62074	-0.163
Mof_C 	C 	0.5896	0.0187	0.6624	0.069
Mof_C 	C 	0.60472	0.98142	0.65496	-0.131
Mof_C 	C 	0.85144	0.04384	0.12952	0.412
Mof_C 	C 	0.01417	0.13917	0.16486	0.501
Mof_C 	C 	0.04012	0.16824	0.17426	-0.252
Mof_C 	C 	0.08506	0.16381	0.16822	0.135
Mof_C 	C 	0.10649	0.18734	0.18204	-0.186
Mof_C 	C 	0.08299	0.21531	0.20188	0.105
Mof_C 	C 	0.03805	0.21974	0.20792	-0.205
Mof_C 	C 	0.01662	0.19621	0.1941	0.164
Mof_C 	C 	0.10057	0.23349	0.22688	0.01
Mof_C 	C 	0.14922	0.25444	0.20276	-0.083
Mof_C 	C 	0.16418	0.26898	0.22844	0.012
Mof_C 	C 	0.12613	0.25933	0.28014	-0.082
Mof_C 	C 	0.07639	0.23777	0.30642	0.01
Mof_C 	C 	0.06501	0.2254	0.27858	-0.084
Mof_C 	C 	0.03845	0.23006	0.35828	0.089
Mof_C 	C 	0.03886	0.26046	0.37448	-0.165
Mof_C 	C 	0.00084	0.25244	0.42372	0.1
Mof_C 	C 	0.95899	0.20969	0.46282	-0.181
Mof_C 	C 	0.95716	0.17686	0.44788	0.082
Mof_C 	C 	0.99668	0.18798	0.39464	-0.151
Mof_C 	C 	0.21753	0.29233	0.20314	0.079
Mof_C 	C 	0.25352	0.27412	0.18176	-0.15
Mof_C 	C 	0.30314	0.29624	0.15932	0.086
Mof_C 	C 	0.3182	0.33615	0.15684	-0.162
Mof_C 	C 	0.28093	0.35478	0.17848	0.088
Mof_C 	C 	0.23238	0.33398	0.20204	-0.15
Mof_C 	C 	0.49121	0.50431	0.86658	0.404
Mof_C 	C 	0.86279	0.16242	0.14102	0.486
Mof_C 	C 	0.83114	0.19629	0.14726	-0.225
Mof_C 	C 	0.80579	0.19242	0.1966	0.148
Mof_C 	C 	0.77971	0.22623	0.19854	-0.184
Mof_C 	C 	0.77931	0.26416	0.15308	0.096
Mof_C 	C 	0.80343	0.26453	0.10614	-0.18
Mof_C 	C 	0.82936	0.23266	0.10108	0.119
Mof_C 	C 	0.75741	0.30281	0.15798	0.022
Mof_C 	C 	0.7627	0.3212	0.1854	-0.105
Mof_C 	C 	0.74637	0.35917	0.18606	0.039
Mof_C 	C 	0.72093	0.38053	0.16154	-0.109
Mof_C 	C 	0.71565	0.36365	0.1331	0.032
Mof_C 	C 	0.73249	0.3233	0.133	-0.099
Mof_C 	C 	0.69097	0.38721	0.10178	0.064
Mof_C 	C 	0.64165	0.38502	0.12996	-0.144
Mof_C 	C 	0.62622	0.41382	0.09556	0.081
Mof_C 	C 	0.65211	0.4404	0.038	-0.165
Mof_C 	C 	0.69969	0.43764	0.01332	0.06
Mof_C 	C 	0.72037	0.41357	0.04366	-0.131
Mof_C 	C 	0.36106	0.52456	0.00668	0.415
Mof_C 	C 	0.75735	0.37775	0.2139	0.055
Mof_C 	C 	0.79811	0.37541	0.21578	-0.124
Mof_C 	C 	0.80905	0.39365	0.2423	0.065
Mof_C 	C 	0.77502	0.41162	0.26996	-0.166
Mof_C 	C 	0.73171	0.41131	0.27378	0.068
Mof_C 	C 	0.72285	0.39365	0.2447	-0.12
Mof_C 	C 	0.9621	0.9752	0.206	0.429
Mof_C 	C 	0.91816	0.20046	0.51608	0.446
Mof_O 	O 	0.02418	0.16841	0.71556	-0.492
Mof_O 	O 	0.96031	0.1293	0.72532	-0.762
Mof_O 	O 	0.37745	0.44057	0.19104	-0.451
Mof_O 	O 	0.36678	0.51523	0.15424	-0.459
Mof_O 	O 	0.9208	0.10852	0.91296	-0.496
Mof_O 	O 	0.98451	0.15867	0.82182	-0.509
Mof_O 	O 	0.88443	0.96277	0.85428	-0.509
Mof_O 	O 	0.86075	0.02879	0.82372	-0.7
Mof_O 	O 	0.48021	0.54387	0.11766	-0.489
Mof_O 	O 	0.48622	0.46959	0.13398	-0.459
Mof_O 	O 	0.83174	0.11471	0.90542	-0.512
Mof_O 	O 	0.88517	0.20152	0.68092	-0.701
Mof_O 	O 	0.44327	0.61399	0.04672	-0.493
Mof_O 	O 	0.50686	0.62491	0.96856	-0.513
Mof_O 	O 	0.98468	0.00459	0.82062	-0.516
Mof_O 	O 	0.02821	0.07433	0.79744	-0.506
Mof_O 	O 	0.91929	0.06697	0.84736	-0.905
Mof_O 	O 	0.49434	0.43513	0.06464	-0.919
Mof_O 	O 	0.82923	0.00705	0.97562	-0.523
Mof_O 	O 	0.86818	0.95917	0.951	-0.509
Mof_O 	O 	0.26026	0.11603	0.71556	-0.494
Mof_O 	O 	0.31437	0.14538	0.72532	-0.762
Mof_O 	O 	0.43151	0.36839	0.19104	-0.451
Mof_O 	O 	0.47898	0.33053	0.15424	-0.459
Mof_O 	O 	0.16624	0.97852	0.91296	-0.495
Mof_O 	O 	0.19367	0.01951	0.82182	-0.511
Mof_O 	O 	0.26129	0.18295	0.85428	-0.509
Mof_O 	O 	0.31553	0.14749	0.82372	-0.698
Mof_O 	O 	0.40213	0.33847	0.11766	-0.49
Mof_O 	O 	0.3798	0.39643	0.13398	-0.459
Mof_O 	O 	0.26284	0.97987	0.90542	-0.507
Mof_O 	O 	0.43391	0.11756	0.68092	-0.701
Mof_O 	O 	0.51001	0.33929	0.04672	-0.494
Mof_O 	O 	0.52458	0.40653	0.96856	-0.513
Mof_O 	O 	0.1947	0.17479	0.82062	-0.513
Mof_O 	O 	0.17435	0.12823	0.79744	-0.506
Mof_O 	O 	0.23335	0.08567	0.84736	-0.905
Mof_O 	O 	0.44102	0.50023	0.06464	-0.919
Mof_O 	O 	0.19515	0.01733	0.97562	-0.524
Mof_O 	O 	0.18082	0.08983	0.951	-0.51
Mof_O 	O 	0.91841	0.51026	0.21556	-0.494
Mof_O 	O 	0.8793	0.56437	0.22532	-0.761
Mof_O 	O 	0.19057	0.68151	0.69104	-0.451
Mof_O 	O 	0.26523	0.72898	0.65424	-0.458
Mof_O 	O 	0.85852	0.41624	0.41296	-0.497
Mof_O 	O 	0.90867	0.44367	0.32182	-0.509
Mof_O 	O 	0.71277	0.51129	0.35428	-0.509
Mof_O 	O 	0.77879	0.56553	0.32372	-0.698
Mof_O 	O 	0.29387	0.65213	0.61766	-0.488
Mof_O 	O 	0.21959	0.6298	0.63398	-0.458
Mof_O 	O 	0.86471	0.51284	0.40542	-0.514
Mof_O 	O 	0.95152	0.68391	0.18092	-0.699
Mof_O 	O 	0.36399	0.76001	0.54672	-0.484
Mof_O 	O 	0.37491	0.77458	0.46856	-0.507
Mof_O 	O 	0.75459	0.4447	0.32062	-0.514
Mof_O 	O 	0.82433	0.42435	0.29744	-0.507
Mof_O 	O 	0.81697	0.48335	0.34736	-0.905
Mof_O 	O 	0.18513	0.69102	0.56464	-0.917
Mof_O 	O 	0.75705	0.44515	0.47562	-0.522
Mof_O 	O 	0.70917	0.43082	0.451	-0.509
Mof_O 	O 	0.86603	0.27418	0.21556	-0.493
Mof_O 	O 	0.89538	0.21031	0.22532	-0.761
Mof_O 	O 	0.11839	0.62745	0.69104	-0.45
Mof_O 	O 	0.08053	0.61678	0.65424	-0.457
Mof_O 	O 	0.72852	0.1708	0.41296	-0.497
Mof_O 	O 	0.76951	0.23451	0.32182	-0.509
Mof_O 	O 	0.93295	0.13443	0.35428	-0.51
Mof_O 	O 	0.89749	0.11075	0.32372	-0.698
Mof_O 	O 	0.08847	0.73021	0.61766	-0.488
Mof_O 	O 	0.14643	0.73622	0.63398	-0.458
Mof_O 	O 	0.72987	0.08174	0.40542	-0.514
Mof_O 	O 	0.86756	0.13517	0.18092	-0.701
Mof_O 	O 	0.08929	0.69327	0.54672	-0.484
Mof_O 	O 	0.15653	0.75686	0.46856	-0.506
Mof_O 	O 	0.92479	0.23468	0.32062	-0.514
Mof_O 	O 	0.87823	0.27821	0.29744	-0.507
Mof_O 	O 	0.83567	0.16929	0.34736	-0.905
Mof_O 	O 	0.25023	0.74434	0.56464	-0.917
Mof_O 	O 	0.76733	0.07923	0.47562	-0.523
Mof_O 	O 	0.83983	0.11818	0.451	-0.51
Mof_O 	O 	0.48974	0.08159	0.78444	-0.494
Mof_O 	O 	0.43563	0.1207	0.77468	-0.763
Mof_O 	O 	0.31849	0.80943	0.30896	-0.451
Mof_O 	O 	0.27102	0.73477	0.34576	-0.458
Mof_O 	O 	0.58376	0.14148	0.58704	-0.497
Mof_O 	O 	0.55633	0.09133	0.67818	-0.509
Mof_O 	O 	0.48871	0.28723	0.64572	-0.509
Mof_O 	O 	0.43447	0.22121	0.67628	-0.698
Mof_O 	O 	0.34787	0.70613	0.38234	-0.488
Mof_O 	O 	0.3702	0.78041	0.36602	-0.458
Mof_O 	O 	0.48716	0.13529	0.59458	-0.514
Mof_O 	O 	0.31609	0.04848	0.81908	-0.698
Mof_O 	O 	0.23999	0.63601	0.45328	-0.484
Mof_O 	O 	0.22542	0.62509	0.53144	-0.507
Mof_O 	O 	0.5553	0.24541	0.67938	-0.514
Mof_O 	O 	0.57565	0.17567	0.70256	-0.507
Mof_O 	O 	0.51665	0.18303	0.65264	-0.905
Mof_O 	O 	0.30898	0.81487	0.43536	-0.917
Mof_O 	O 	0.55485	0.24295	0.52438	-0.522
Mof_O 	O 	0.56918	0.29083	0.549	-0.509
Mof_O 	O 	0.72582	0.13397	0.78444	-0.494
Mof_O 	O 	0.78969	0.10462	0.77468	-0.763
Mof_O 	O 	0.37255	0.88161	0.30896	-0.451
Mof_O 	O 	0.38322	0.91947	0.34576	-0.458
Mof_O 	O 	0.8292	0.27148	0.58704	-0.497
Mof_O 	O 	0.76549	0.23049	0.67818	-0.509
Mof_O 	O 	0.86557	0.06705	0.64572	-0.51
Mof_O 	O 	0.88925	0.10251	0.67628	-0.699
Mof_O 	O 	0.26979	0.91153	0.38234	-0.488
Mof_O 	O 	0.26378	0.85357	0.36602	-0.458
Mof_O 	O 	0.91826	0.27013	0.59458	-0.514
Mof_O 	O 	0.86483	0.13244	0.81908	-0.701
Mof_O 	O 	0.30673	0.91071	0.45328	-0.484
Mof_O 	O 	0.24314	0.84347	0.53144	-0.506
Mof_O 	O 	0.76532	0.07521	0.67938	-0.514
Mof_O 	O 	0.72179	0.12177	0.70256	-0.507
Mof_O 	O 	0.83071	0.16433	0.65264	-0.905
Mof_O 	O 	0.25566	0.74977	0.43536	-0.917
Mof_O 	O 	0.92077	0.23267	0.52438	-0.523
Mof_O 	O 	0.88182	0.16017	0.549	-0.509
Mof_O 	O 	0.88397	0.73974	0.28444	-0.494
Mof_O 	O 	0.85462	0.68563	0.27468	-0.762
Mof_O 	O 	0.63161	0.56849	0.80896	-0.451
Mof_O 	O 	0.66947	0.52102	0.84576	-0.458
Mof_O 	O 	0.02148	0.83376	0.08704	-0.498
Mof_O 	O 	0.98049	0.80633	0.17818	-0.511
Mof_O 	O 	0.81705	0.73871	0.14572	-0.51
Mof_O 	O 	0.85251	0.68447	0.17628	-0.698
Mof_O 	O 	0.66153	0.59787	0.88234	-0.487
Mof_O 	O 	0.60357	0.6202	0.86602	-0.458
Mof_O 	O 	0.02013	0.73716	0.09458	-0.512
Mof_O 	O 	0.88244	0.56609	0.31908	-0.701
Mof_O 	O 	0.66071	0.48999	0.95328	-0.476
Mof_O 	O 	0.59347	0.47542	0.03144	-0.501
Mof_O 	O 	0.82521	0.8053	0.17938	-0.514
Mof_O 	O 	0.87177	0.82565	0.20256	-0.507
Mof_O 	O 	0.91433	0.76665	0.15264	-0.905
Mof_O 	O 	0.49977	0.55898	0.93536	-0.915
Mof_O 	O 	0.98267	0.80485	0.02438	-0.524
Mof_O 	O 	0.91017	0.81918	0.049	-0.509
Mof_O 	O 	0.83159	0.97582	0.28444	-0.491
Mof_O 	O 	0.8707	0.03969	0.27468	-0.761
Mof_O 	O 	0.55943	0.62255	0.80896	-0.451
Mof_O 	O 	0.48477	0.63322	0.84576	-0.458
Mof_O 	O 	0.89148	0.0792	0.08704	-0.499
Mof_O 	O 	0.84133	0.01549	0.17818	-0.511
Mof_O 	O 	0.03723	0.11557	0.14572	-0.51
Mof_O 	O 	0.97121	0.13925	0.17628	-0.699
Mof_O 	O 	0.45613	0.51979	0.88234	-0.487
Mof_O 	O 	0.53041	0.51378	0.86602	-0.458
Mof_O 	O 	0.88529	0.16826	0.09458	-0.515
Mof_O 	O 	0.79848	0.11483	0.31908	-0.701
Mof_O 	O 	0.38601	0.55673	0.95328	-0.475
Mof_O 	O 	0.37509	0.49314	0.03144	-0.501
Mof_O 	O 	0.99541	0.01532	0.17938	-0.517
Mof_O 	O 	0.92567	0.97179	0.20256	-0.507
Mof_O 	O 	0.93303	0.08071	0.15264	-0.905
Mof_O 	O 	0.56487	0.50566	0.93536	-0.915
Mof_O 	O 	0.99295	0.17077	0.02438	-0.522
Mof_O 	O 	0.04083	0.13182	0.049	-0.509
_end
