data_functionalizedCrystal
_audit_creation_method	'EQeq! by Chris Wilmer'
_symmetry_space_group_name_H-M	'P1'
_symmetry_Int_Tables_number	1
_symmetry_cell_setting	triclinic
loop_
_symmetry_equiv_pos_as_xyz
  x,y,z
_cell_length_a	7.233
_cell_length_b	21.7582
_cell_length_c	21.7582
_cell_angle_alpha	60.0478
_cell_angle_beta	90
_cell_angle_gamma	90
loop_
_atom_site_label
_atom_site_type_symbol
_atom_site_fract_x
_atom_site_fract_y
_atom_site_fract_z
_atom_site_charge
Mof_In	In	2.55251e-32	0	0.5	1.732
Mof_In	In	0.5	0	0.5	2.044
Mof_In	In	0.5	0.5	-0	2.023
Mof_In	In	-0	0.5	-0	1.711
Mof_In	In	-0	0	-0	0.974
Mof_In	In	0.5	0	-0	1.276
Mof_H 	H 	0.44921	0.79512	0.6795	0.043
Mof_H 	H 	0.05024	0.96868	0.32256	-0.017
Mof_H 	H 	0.05082	0.96904	0.20798	-0.003
Mof_H 	H 	0.94921	0.20488	0.3205	0.073
Mof_H 	H 	0.55024	0.03132	0.67744	0.022
Mof_H 	H 	0.55082	0.03096	0.79202	0.024
Mof_H 	H 	0.05079	0.6795	0.79512	-0.008
Mof_H 	H 	0.44976	0.32256	0.96868	0.035
Mof_H 	H 	0.44918	0.20798	0.96904	0.055
Mof_H 	H 	0.55079	0.3205	0.20488	0.009
Mof_H 	H 	0.94976	0.67744	0.03132	0.084
Mof_H 	H 	0.94918	0.79202	0.03096	0.099
Mof_H 	H 	0.55079	0.20488	0.3205	0.01
Mof_H 	H 	0.94976	0.03132	0.67744	0.085
Mof_H 	H 	0.94918	0.03096	0.79202	0.085
Mof_H 	H 	0.05079	0.79512	0.6795	-0.019
Mof_H 	H 	0.44976	0.96868	0.32256	0.044
Mof_H 	H 	0.44918	0.96904	0.20798	0.058
Mof_H 	H 	0.94921	0.3205	0.20488	0.073
Mof_H 	H 	0.55024	0.67744	0.03132	0.022
Mof_H 	H 	0.55082	0.79202	0.03096	0.037
Mof_H 	H 	0.44921	0.6795	0.79512	0.053
Mof_H 	H 	0.05024	0.32256	0.96868	-0.026
Mof_H 	H 	0.05082	0.20798	0.96904	-0.006
Mof_C 	C 	0.5856	0.76793	0.70467	0.032
Mof_C 	C 	0.9139	0.96959	0.29583	0.107
Mof_C 	C 	0.9142	0.9691	0.23408	0.06
Mof_C 	C 	0.0856	0.23207	0.29533	-0.082
Mof_C 	C 	0.4139	0.03041	0.70417	0.007
Mof_C 	C 	0.4142	0.0309	0.76592	-0.017
Mof_C 	C 	0.9144	0.70467	0.76793	0.092
Mof_C 	C 	0.5861	0.29583	0.96959	0.042
Mof_C 	C 	0.5858	0.23408	0.9691	-0.009
Mof_C 	C 	0.4144	0.29533	0.23207	-0.012
Mof_C 	C 	0.0861	0.70417	0.03041	-0.057
Mof_C 	C 	0.0858	0.76592	0.0309	-0.094
Mof_C 	C 	0.4144	0.23207	0.29533	-0.011
Mof_C 	C 	0.0861	0.03041	0.70417	-0.063
Mof_C 	C 	0.0858	0.0309	0.76592	-0.086
Mof_C 	C 	0.9144	0.76793	0.70467	0.101
Mof_C 	C 	0.5861	0.96959	0.29583	0.039
Mof_C 	C 	0.5858	0.9691	0.23408	-0.007
Mof_C 	C 	0.0856	0.29533	0.23207	-0.084
Mof_C 	C 	0.4139	0.70417	0.03041	0.013
Mof_C 	C 	0.4142	0.76592	0.0309	-0.026
Mof_C 	C 	0.5856	0.70467	0.76793	0.023
Mof_C 	C 	0.9139	0.29583	0.96959	0.11
Mof_C 	C 	0.9142	0.23408	0.9691	0.059
Mof_C 	C 	0.75	0.8707	0.60596	0.514
Mof_C 	C 	0.75	0.79786	0.6723	-0.125
Mof_C 	C 	0.75	0.97748	0.39386	0.529
Mof_C 	C 	0.75	0.97119	0.32755	-0.134
Mof_C 	C 	0.75	0.96867	0.20249	-0.075
Mof_C 	C 	0.75	0.97075	0.13125	0.391
Mof_C 	C 	0.25	0.1293	0.39404	0.491
Mof_C 	C 	0.25	0.20214	0.3277	-0.138
Mof_C 	C 	0.25	0.02252	0.60614	0.512
Mof_C 	C 	0.25	0.02881	0.67245	-0.15
Mof_C 	C 	0.25	0.03133	0.79751	-0.094
Mof_C 	C 	0.25	0.02925	0.86875	0.418
Mof_C 	C 	0.75	0.60596	0.8707	0.5
Mof_C 	C 	0.75	0.6723	0.79786	-0.111
Mof_C 	C 	0.75	0.39386	0.97748	0.537
Mof_C 	C 	0.75	0.32755	0.97119	-0.141
Mof_C 	C 	0.75	0.20249	0.96867	-0.076
Mof_C 	C 	0.75	0.13125	0.97075	0.393
Mof_C 	C 	0.25	0.39404	0.1293	0.486
Mof_C 	C 	0.25	0.3277	0.20214	-0.137
Mof_C 	C 	0.25	0.60614	0.02252	0.513
Mof_C 	C 	0.25	0.67245	0.02881	-0.153
Mof_C 	C 	0.25	0.79751	0.03133	-0.081
Mof_C 	C 	0.25	0.86875	0.02925	0.403
Mof_O 	O 	0.90435	0.89714	0.58072	-0.432
Mof_O 	O 	0.90194	0.97733	0.42005	-0.436
Mof_O 	O 	0.90353	0.97182	0.10416	-0.311
Mof_O 	O 	0.40435	0.10286	0.41928	-0.654
Mof_O 	O 	0.40194	0.02267	0.57995	-0.654
Mof_O 	O 	0.40353	0.02818	0.89584	-0.442
Mof_O 	O 	0.59565	0.58072	0.89714	-0.489
Mof_O 	O 	0.59806	0.42005	0.97733	-0.526
Mof_O 	O 	0.59647	0.10416	0.97182	-0.402
Mof_O 	O 	0.09565	0.41928	0.10286	-0.655
Mof_O 	O 	0.09806	0.57995	0.02267	-0.643
Mof_O 	O 	0.09647	0.89584	0.02818	-0.416
Mof_O 	O 	0.09565	0.10286	0.41928	-0.652
Mof_O 	O 	0.09806	0.02267	0.57995	-0.651
Mof_O 	O 	0.09647	0.02818	0.89584	-0.44
Mof_O 	O 	0.59565	0.89714	0.58072	-0.512
Mof_O 	O 	0.59806	0.97733	0.42005	-0.515
Mof_O 	O 	0.59647	0.97182	0.10416	-0.389
Mof_O 	O 	0.40435	0.41928	0.10286	-0.657
Mof_O 	O 	0.40194	0.57995	0.02267	-0.646
Mof_O 	O 	0.40353	0.89584	0.02818	-0.418
Mof_O 	O 	0.90435	0.58072	0.89714	-0.409
Mof_O 	O 	0.90194	0.42005	0.97733	-0.447
Mof_O 	O 	0.90353	0.10416	0.97182	-0.324
Mof_O 	O 	0.75	0.04861	0.50117	-0.83
Mof_O 	O 	0.25	0.95139	0.49883	-0.676
Mof_O 	O 	0.75	0.50117	0.04861	-0.825
Mof_O 	O 	0.25	0.49883	0.95139	-0.669
Mof_O 	O 	0.75	0.97584	0.97584	-0.293
Mof_O 	O 	0.25	0.02416	0.02416	-0.784
Mof_H 	H 	0.75017	0.4565	0.09481	0.208
Mof_H 	H 	0.24997	0.9052	0.5435	0.199
Mof_H 	H 	0.75003	0.09481	0.45651	0.209
Mof_H 	H 	0.24999	0.45304	0.95201	0.202
Mof_H 	H 	0.25	0.07641	0.00248	0.074
Mof_H 	H 	0.74995	0.99789	0.92356	0.304
_end
