data_functionalizedCrystal
_audit_creation_method	'EQeq! by Chris Wilmer'
_symmetry_space_group_name_H-M	'P1'
_symmetry_Int_Tables_number	1
_symmetry_cell_setting	triclinic
loop_
_symmetry_equiv_pos_as_xyz
  x,y,z
_cell_length_a	7.5735
_cell_length_b	11.7547
_cell_length_c	17.0842
_cell_angle_alpha	82.19
_cell_angle_beta	86.285
_cell_angle_gamma	88.218
loop_
_atom_site_label
_atom_site_type_symbol
_atom_site_fract_x
_atom_site_fract_y
_atom_site_fract_z
_atom_site_charge
Mof_Cu	Cu	0.41627	0.05273	0.80586	0.871
Mof_Cu	Cu	0.58373	0.94727	0.19413	0.871
Mof_C 	C 	0.1241	0.05552	0.5328	0.219
Mof_C 	C 	0.5562	0.55175	0.05929	0.215
Mof_C 	C 	0.4941	0.62605	0.99526	-0.087
Mof_C 	C 	0.9409	0.05547	0.66146	-0.038
Mof_C 	C 	0.9699	0.02877	0.58026	-0.084
Mof_C 	C 	0.4466	0.82483	0.92335	0.126
Mof_C 	C 	0.5246	0.80638	0.0558	0.131
Mof_C 	C 	0.4394	0.56611	0.93612	0.209
Mof_C 	C 	0.4875	0.75016	0.99157	-0.036
Mof_C 	C 	0.0844	0.06831	0.70738	0.137
Mof_C 	C 	0.7723	0.06101	0.69924	0.134
Mof_C 	C 	0.8473	0.9721	0.54263	0.223
Mof_C 	C 	0.8759	0.94448	0.4672	0.219
Mof_C 	C 	0.4438	0.44825	0.94071	0.215
Mof_C 	C 	0.5059	0.37395	0.00474	-0.087
Mof_C 	C 	0.0591	0.94453	0.33854	-0.038
Mof_C 	C 	0.0301	0.97123	0.41974	-0.084
Mof_C 	C 	0.5534	0.17517	0.07665	0.126
Mof_C 	C 	0.4754	0.19362	0.9442	0.131
Mof_C 	C 	0.5606	0.43389	0.06388	0.209
Mof_C 	C 	0.5125	0.24984	0.00843	-0.036
Mof_C 	C 	0.9156	0.93169	0.29262	0.137
Mof_C 	C 	0.2277	0.93899	0.30076	0.134
Mof_C 	C 	0.1527	0.0279	0.45737	0.223
Mof_N 	N 	0.2022	0.07696	0.74577	-0.246
Mof_N 	N 	0.5546	0.85515	0.10775	-0.251
Mof_N 	N 	0.4174	0.89237	0.86936	-0.24
Mof_N 	N 	0.6351	0.0648	0.73324	-0.24
Mof_N 	N 	0.7978	0.92304	0.25423	-0.246
Mof_N 	N 	0.4454	0.14485	0.89225	-0.251
Mof_N 	N 	0.5826	0.10763	0.13064	-0.24
Mof_N 	N 	0.3649	0.9352	0.26676	-0.24
Mof_F 	F 	0.6924	0.94025	0.58212	-0.425
Mof_F 	F 	0.37798	0.62565	0.86908	-0.439
Mof_F 	F 	0.6182	0.59632	0.12093	-0.438
Mof_F 	F 	0.25381	0.11221	0.56129	-0.41
Mof_F 	F 	0.3076	0.05975	0.41788	-0.425
Mof_F 	F 	0.62202	0.37435	0.13092	-0.439
Mof_F 	F 	0.3818	0.40368	0.87907	-0.438
Mof_F 	F 	0.74619	0.88779	0.43871	-0.41
Mof_P 	P 	0.89521	0.67614	0.76548	0.192
Mof_H 	H 	0.1976	0.8216	0.7643	0.058
Mof_H 	H 	0.6273	0.507	0.7717	0.088
Mof_H 	H 	0.0132	0.5762	0.918	0.066
Mof_H 	H 	0.8362	0.8916	0.822	0.031
Mof_H 	H 	0.052	0.6483	0.0361	0.055
Mof_H 	H 	0.9808	0.8402	0.0478	0.032
Mof_H 	H 	0.8954	0.2033	0.8057	0.044
Mof_H 	H 	0.6298	0.3056	0.7884	0.048
Mof_H 	H 	0.9845	0.6416	0.6078	0.059
Mof_H 	H 	0.6731	0.7029	0.6778	0.222
Mof_H 	H 	0.5929	0.7094	0.7661	0.234
Mof_H 	H 	0.6947	0.8167	0.7178	0.223
Mof_H 	H 	0.1608	0.5005	0.7837	0.104
Mof_H 	H 	0.4118	0.8921	0.6659	0.062
Mof_H 	H 	0.8703	0.9601	0.9418	0.03
Mof_H 	H 	0.162	0.2992	0.8034	0.051
Mof_H 	H 	0.2035	0.7094	0.5111	0.051
Mof_H 	H 	0.4176	0.8338	0.5406	0.124
Mof_C 	C 	0.1984	0.79927	0.71286	-0.051
Mof_C 	C 	0.7357	0.4648	0.77795	-0.057
Mof_C 	C 	0.8942	0.52234	0.77689	-0.01
Mof_C 	C 	0.0717	0.725	0.69499	-0.008
Mof_C 	C 	0.9216	0.7265	0.85835	-0.022
Mof_C 	C 	0.9852	0.6545	0.92242	-0.023
Mof_C 	C 	0.8792	0.8418	0.8655	-0.04
Mof_C 	C 	0.0075	0.6972	0.99256	-0.019
Mof_C 	C 	0.9652	0.8112	0.99947	-0.028
Mof_C 	C 	0.8952	0.2849	0.79798	-0.063
Mof_C 	C 	0.7371	0.3454	0.78817	0.003
Mof_C 	C 	0.0721	0.6917	0.61972	-0.049
Mof_C 	C 	0.6908	0.7327	0.72751	-0.58
Mof_C 	C 	0.0529	0.4609	0.78546	-0.062
Mof_C 	C 	0.326	0.8404	0.65452	0.002
Mof_C 	C 	0.9005	0.8824	0.93642	-0.042
Mof_C 	C 	0.0539	0.3416	0.79667	0.005
Mof_C 	C 	0.2017	0.7323	0.56239	-0.003
Mof_C 	C 	0.3288	0.8065	0.57984	-0.058
Mof_P 	P 	0.10479	0.32386	0.23452	0.192
Mof_H 	H 	0.8024	0.1784	0.2357	0.058
Mof_H 	H 	0.3727	0.493	0.2283	0.088
Mof_H 	H 	0.9868	0.4238	0.082	0.066
Mof_H 	H 	0.1638	0.1084	0.178	0.031
Mof_H 	H 	0.948	0.3517	0.9639	0.055
Mof_H 	H 	0.0192	0.1598	0.9522	0.032
Mof_H 	H 	0.1046	0.7967	0.1943	0.044
Mof_H 	H 	0.3702	0.6944	0.2116	0.048
Mof_H 	H 	0.0155	0.3584	0.3922	0.059
Mof_H 	H 	0.3269	0.2971	0.3222	0.222
Mof_H 	H 	0.4071	0.2906	0.2339	0.234
Mof_H 	H 	0.3053	0.1833	0.2822	0.223
Mof_H 	H 	0.8392	0.4995	0.2163	0.104
Mof_H 	H 	0.5882	0.1079	0.3341	0.062
Mof_H 	H 	0.1297	0.0399	0.0582	0.03
Mof_H 	H 	0.838	0.7008	0.1966	0.051
Mof_H 	H 	0.7965	0.2906	0.4889	0.051
Mof_H 	H 	0.5824	0.1662	0.4594	0.124
Mof_C 	C 	0.8016	0.20073	0.28714	-0.051
Mof_C 	C 	0.2643	0.5352	0.22205	-0.057
Mof_C 	C 	0.1058	0.47766	0.22311	-0.01
Mof_C 	C 	0.9283	0.275	0.30501	-0.008
Mof_C 	C 	0.0784	0.2735	0.14165	-0.022
Mof_C 	C 	0.0148	0.3455	0.07758	-0.023
Mof_C 	C 	0.1208	0.1582	0.1345	-0.04
Mof_C 	C 	0.9925	0.3028	0.00744	-0.019
Mof_C 	C 	0.0348	0.1888	0.00053	-0.028
Mof_C 	C 	0.1048	0.7151	0.20202	-0.063
Mof_C 	C 	0.2629	0.6546	0.21183	0.003
Mof_C 	C 	0.9279	0.3083	0.38028	-0.049
Mof_C 	C 	0.3092	0.2673	0.27249	-0.58
Mof_C 	C 	0.9471	0.5391	0.21454	-0.062
Mof_C 	C 	0.674	0.1596	0.34548	0.002
Mof_C 	C 	0.0995	0.1176	0.06358	-0.042
Mof_C 	C 	0.9461	0.6584	0.20333	0.005
Mof_C 	C 	0.7983	0.2677	0.43761	-0.003
Mof_C 	C 	0.6712	0.1935	0.42016	-0.058
_end
