data_functionalizedCrystal
_audit_creation_method	'EQeq! by Chris Wilmer'
_symmetry_space_group_name_H-M	'P1'
_symmetry_Int_Tables_number	1
_symmetry_cell_setting	triclinic
loop_
_symmetry_equiv_pos_as_xyz
  x,y,z
_cell_length_a	6.5697
_cell_length_b	22.6167
_cell_length_c	7.8511
_cell_angle_alpha	90
_cell_angle_beta	90.154
_cell_angle_gamma	90
loop_
_atom_site_label
_atom_site_type_symbol
_atom_site_fract_x
_atom_site_fract_y
_atom_site_fract_z
_atom_site_charge
Mof_Ni	Ni	0.54677	0.20982	0.60598	1.12
Mof_O 	O 	0.3424	0.1802	0.42758	-0.396
Mof_O 	O 	0.3782	0.16868	0.80041	-0.417
Mof_N 	N 	0.9219	0.2083	0.1429	-0.337
Mof_H 	H 	0.8722	0.1937	0.0446	0.138
Mof_H 	H 	0.8207	0.2099	0.2198	0.142
Mof_O 	O 	0.238	0.26308	0.2988	-0.403
Mof_C 	C 	0.2363	0.20823	0.3211	0.311
Mof_N 	N 	0.7154	0.13234	0.5645	-0.218
Mof_O 	O 	0.2362	0.24599	0.9312	-0.433
Mof_C 	C 	0.9061	0.12695	0.6215	0.085
Mof_H 	H 	0.964	0.1588	0.6786	0.009
Mof_C 	C 	0.0228	0.07627	0.6	-0.145
Mof_H 	H 	0.1545	0.0746	0.6434	0.086
Mof_C 	C 	0.9414	0.02794	0.513	0.058
Mof_C 	C 	0.0925	0.17153	0.2067	-0.007
Mof_H 	H 	0.0374	0.1385	0.2731	0.04
Mof_C 	C 	0.2791	0.19184	0.9204	0.434
Mof_C 	C 	0.7445	0.03446	0.4503	-0.134
Mof_H 	H 	0.6843	0.0039	0.3888	0.074
Mof_C 	C 	0.6383	0.0861	0.479	0.072
Mof_H 	H 	0.5063	0.089	0.4368	0.008
Mof_C 	C 	0.2117	0.14706	0.0568	-0.389
Mof_H 	H 	0.129	0.1171	0.0016	0.146
Mof_H 	H 	0.3324	0.1276	0.1008	0.153
Mof_Ni	Ni	0.95323	0.70982	0.89402	1.115
Mof_O 	O 	0.1576	0.6802	0.07242	-0.391
Mof_O 	O 	0.1218	0.66868	0.69959	-0.412
Mof_N 	N 	0.5781	0.7083	0.3571	-0.343
Mof_H 	H 	0.6278	0.6937	0.4554	0.137
Mof_H 	H 	0.6793	0.7099	0.2802	0.141
Mof_O 	O 	0.262	0.76308	0.2012	-0.399
Mof_C 	C 	0.2637	0.70823	0.1789	0.31
Mof_N 	N 	0.7846	0.63234	0.9355	-0.221
Mof_O 	O 	0.2638	0.74599	0.5688	-0.431
Mof_C 	C 	0.5939	0.62695	0.8785	0.073
Mof_H 	H 	0.536	0.6588	0.8214	0.009
Mof_C 	C 	0.4772	0.57627	0.9	-0.132
Mof_H 	H 	0.3455	0.5746	0.8566	0.082
Mof_C 	C 	0.5586	0.52794	0.987	0.051
Mof_C 	C 	0.4075	0.67153	0.2933	0.001
Mof_H 	H 	0.4626	0.6385	0.2269	0.041
Mof_C 	C 	0.2209	0.69184	0.5796	0.431
Mof_C 	C 	0.7555	0.53446	0.0497	-0.132
Mof_H 	H 	0.8157	0.5039	0.1112	0.074
Mof_C 	C 	0.8617	0.5861	0.021	0.074
Mof_H 	H 	0.9937	0.589	0.0632	0.007
Mof_C 	C 	0.2883	0.64706	0.4432	-0.386
Mof_H 	H 	0.371	0.6171	0.4984	0.149
Mof_H 	H 	0.1676	0.6276	0.3992	0.154
Mof_Ni	Ni	0.45323	0.79018	0.39402	1.121
Mof_O 	O 	0.6576	0.8198	0.57242	-0.395
Mof_O 	O 	0.6218	0.83132	0.19959	-0.417
Mof_N 	N 	0.0781	0.7917	0.8571	-0.337
Mof_H 	H 	0.1278	0.8063	0.9554	0.138
Mof_H 	H 	0.1793	0.7901	0.7802	0.142
Mof_O 	O 	0.762	0.73692	0.7012	-0.403
Mof_C 	C 	0.7637	0.79177	0.6789	0.311
Mof_N 	N 	0.2846	0.86766	0.4355	-0.218
Mof_O 	O 	0.7638	0.75401	0.0688	-0.433
Mof_C 	C 	0.0939	0.87305	0.3785	0.085
Mof_H 	H 	0.036	0.8412	0.3214	0.009
Mof_C 	C 	0.9772	0.92373	0.4	-0.145
Mof_H 	H 	0.8455	0.9254	0.3566	0.086
Mof_C 	C 	0.0586	0.97206	0.487	0.058
Mof_C 	C 	0.9075	0.82847	0.7933	-0.007
Mof_H 	H 	0.9626	0.8615	0.7269	0.04
Mof_C 	C 	0.7209	0.80816	0.0796	0.434
Mof_C 	C 	0.2555	0.96554	0.5497	-0.134
Mof_H 	H 	0.3157	0.9961	0.6112	0.074
Mof_C 	C 	0.3617	0.9139	0.521	0.072
Mof_H 	H 	0.4937	0.911	0.5632	0.008
Mof_C 	C 	0.7883	0.85294	0.9432	-0.389
Mof_H 	H 	0.871	0.8829	0.9984	0.146
Mof_H 	H 	0.6676	0.8724	0.8992	0.153
Mof_Ni	Ni	0.04677	0.29018	0.10598	1.115
Mof_O 	O 	0.8424	0.3198	0.92758	-0.391
Mof_O 	O 	0.8782	0.33132	0.30041	-0.412
Mof_N 	N 	0.4219	0.2917	0.6429	-0.343
Mof_H 	H 	0.3722	0.3063	0.5446	0.137
Mof_H 	H 	0.3207	0.2901	0.7198	0.141
Mof_O 	O 	0.738	0.23692	0.7988	-0.399
Mof_C 	C 	0.7363	0.29177	0.8211	0.31
Mof_N 	N 	0.2154	0.36766	0.0645	-0.221
Mof_O 	O 	0.7362	0.25401	0.4312	-0.431
Mof_C 	C 	0.4061	0.37305	0.1215	0.073
Mof_H 	H 	0.464	0.3412	0.1786	0.009
Mof_C 	C 	0.5228	0.42373	0.1	-0.132
Mof_H 	H 	0.6545	0.4254	0.1434	0.082
Mof_C 	C 	0.4414	0.47206	0.013	0.051
Mof_C 	C 	0.5925	0.32847	0.7067	0.001
Mof_H 	H 	0.5374	0.3615	0.7731	0.041
Mof_C 	C 	0.7791	0.30816	0.4204	0.431
Mof_C 	C 	0.2445	0.46554	0.9503	-0.132
Mof_H 	H 	0.1843	0.4961	0.8888	0.074
Mof_C 	C 	0.1383	0.4139	0.979	0.074
Mof_H 	H 	0.0063	0.411	0.9368	0.007
Mof_C 	C 	0.7117	0.35294	0.5568	-0.386
Mof_H 	H 	0.629	0.3829	0.5016	0.149
Mof_H 	H 	0.8324	0.3724	0.6008	0.154
_end
