data_functionalizedCrystal
_audit_creation_method	'EQeq! by Chris Wilmer'
_symmetry_space_group_name_H-M	'P1'
_symmetry_Int_Tables_number	1
_symmetry_cell_setting	triclinic
loop_
_symmetry_equiv_pos_as_xyz
  x,y,z
_cell_length_a	26.084
_cell_length_b	26.084
_cell_length_c	19.4082
_cell_angle_alpha	90
_cell_angle_beta	90
_cell_angle_gamma	120
loop_
_atom_site_label
_atom_site_type_symbol
_atom_site_fract_x
_atom_site_fract_y
_atom_site_fract_z
_atom_site_charge
Mof_Zn	Zn	0.43519	0.33203	0.40422	1.195
Mof_N 	N 	0.3784	0.3349	0.4769	-0.105
Mof_N 	N 	0.3731	0.3417	0.4508	-0.181
Mof_C 	C 	0.3176	0.2953	0.4759	0.036
Mof_C 	C 	0.2286	0.205	0.4745	-0.187
Mof_H 	H 	0.2048	0.1658	0.4575	0.648
Mof_C 	C 	0.2846	0.2392	0.4516	0.043
Mof_H 	H 	0.3008	0.2242	0.4189	0.024
Mof_Cl	Cl	0.1784	0.1348	0.456	-0.69
Mof_Cl	Cl	0.1606	0.1614	0.397	0.076
Mof_N 	N 	0.5156	0.3983	0.4297	-0.273
Mof_O 	O 	0.4672	0.4523	0.377	-0.12
Mof_O 	O 	0.4755	0.4419	0.316	-0.078
Mof_C 	C 	0.53	0.406	0.508	-0.038
Mof_H 	H 	0.508	0.3813	0.5457	0.046
Mof_C 	C 	0.5565	0.3884	0.4669	0.017
Mof_H 	H 	0.549	0.3524	0.4878	0.021
Mof_N 	N 	0.4056	0.3223	0.309	-0.271
Mof_O 	O 	0.5099	0.325	0.3052	-0.165
Mof_C 	C 	0.3564	0.3218	0.2866	0.03
Mof_H 	H 	0.3267	0.3215	0.3151	0.059
Mof_N 	N 	0.4313	0.2589	0.4396	-0.283
Mof_C 	C 	0.4252	0.2393	0.5059	0.054
Mof_C 	C 	0.4218	0.2353	0.6258	-0.051
Mof_H 	H 	0.4243	0.253	0.6694	0.227
Mof_C 	C 	0.4183	0.2666	0.5649	-0.052
Mof_H 	H 	0.4125	0.2998	0.5651	0.064
Mof_Cl	Cl	0.4055	0.2793	0.6976	-0.326
Mof_Zn	Zn	0.66797	0.10316	0.40422	1.194
Mof_N 	N 	0.6651	0.0435	0.4769	-0.103
Mof_N 	N 	0.6583	0.0314	0.4508	-0.181
Mof_C 	C 	0.7047	0.0223	0.4759	0.023
Mof_C 	C 	0.795	0.0236	0.4745	-0.222
Mof_H 	H 	0.8342	0.039	0.4575	0.679
Mof_C 	C 	0.7608	0.0454	0.4516	0.066
Mof_H 	H 	0.7758	0.0766	0.4189	0.016
Mof_Cl	Cl	0.8652	0.0436	0.456	-0.726
Mof_Cl	Cl	0.8386	0.9992	0.397	0.082
Mof_N 	N 	0.6017	0.1173	0.4297	-0.273
Mof_O 	O 	0.5477	0.0149	0.377	-0.121
Mof_O 	O 	0.5581	0.0336	0.316	-0.078
Mof_C 	C 	0.594	0.124	0.508	-0.038
Mof_H 	H 	0.6187	0.1267	0.5457	0.046
Mof_C 	C 	0.6116	0.1681	0.4669	0.017
Mof_H 	H 	0.6476	0.1966	0.4878	0.021
Mof_N 	N 	0.6777	0.0833	0.309	-0.271
Mof_O 	O 	0.675	0.1849	0.3052	-0.165
Mof_C 	C 	0.6782	0.0346	0.2866	0.03
Mof_H 	H 	0.6785	0.0052	0.3151	0.058
Mof_N 	N 	0.7411	0.1724	0.4396	-0.283
Mof_C 	C 	0.7607	0.1859	0.5059	0.054
Mof_C 	C 	0.7647	0.1865	0.6258	-0.051
Mof_H 	H 	0.747	0.1713	0.6694	0.228
Mof_C 	C 	0.7334	0.1517	0.5649	-0.052
Mof_H 	H 	0.7002	0.1127	0.5651	0.064
Mof_Cl	Cl	0.7207	0.1262	0.6976	-0.326
Mof_Zn	Zn	0.89684	0.56481	0.40422	1.194
Mof_N 	N 	0.9565	0.6216	0.4769	-0.108
Mof_N 	N 	0.9686	0.6269	0.4508	-0.183
Mof_C 	C 	0.9777	0.6824	0.4759	0.071
Mof_C 	C 	0.9764	0.7714	0.4745	-0.093
Mof_H 	H 	0.961	0.7952	0.4575	0.579
Mof_C 	C 	0.9546	0.7154	0.4516	-0.019
Mof_H 	H 	0.9234	0.6992	0.4189	0.045
Mof_Cl	Cl	0.9564	0.8216	0.456	-0.624
Mof_Cl	Cl	0.0008	0.8394	0.397	0.06
Mof_N 	N 	0.8827	0.4844	0.4297	-0.273
Mof_O 	O 	0.9851	0.5328	0.377	-0.12
Mof_O 	O 	0.9664	0.5245	0.316	-0.078
Mof_C 	C 	0.876	0.47	0.508	-0.038
Mof_H 	H 	0.8733	0.492	0.5457	0.047
Mof_C 	C 	0.8319	0.4435	0.4669	0.017
Mof_H 	H 	0.8034	0.451	0.4878	0.021
Mof_N 	N 	0.9167	0.5944	0.309	-0.272
Mof_O 	O 	0.8151	0.4901	0.3052	-0.165
Mof_C 	C 	0.9654	0.6436	0.2866	0.03
Mof_H 	H 	0.9948	0.6733	0.3151	0.059
Mof_N 	N 	0.8276	0.5687	0.4396	-0.284
Mof_C 	C 	0.8141	0.5748	0.5059	0.054
Mof_C 	C 	0.8135	0.5782	0.6258	-0.05
Mof_H 	H 	0.8287	0.5757	0.6694	0.227
Mof_C 	C 	0.8483	0.5817	0.5649	-0.052
Mof_H 	H 	0.8873	0.5875	0.5651	0.064
Mof_Cl	Cl	0.8738	0.5945	0.6976	-0.326
Mof_Zn	Zn	0.56481	0.66797	0.90422	1.194
Mof_N 	N 	0.6216	0.6651	0.9769	-0.105
Mof_N 	N 	0.6269	0.6583	0.9508	-0.183
Mof_C 	C 	0.6824	0.7047	0.9759	0.065
Mof_C 	C 	0.7714	0.795	0.9745	-0.12
Mof_H 	H 	0.7952	0.8342	0.9575	0.606
Mof_C 	C 	0.7154	0.7608	0.9516	-0.002
Mof_H 	H 	0.6992	0.7758	0.9189	0.039
Mof_Cl	Cl	0.8216	0.8652	0.956	-0.658
Mof_Cl	Cl	0.8394	0.8386	0.897	0.069
Mof_N 	N 	0.4844	0.6017	0.9297	-0.272
Mof_O 	O 	0.5328	0.5477	0.877	-0.119
Mof_O 	O 	0.5245	0.5581	0.816	-0.078
Mof_C 	C 	0.47	0.594	0.008	-0.043
Mof_H 	H 	0.492	0.6187	0.0457	0.047
Mof_C 	C 	0.4435	0.6116	0.9669	0.02
Mof_H 	H 	0.451	0.6476	0.9878	0.021
Mof_N 	N 	0.5944	0.6777	0.809	-0.272
Mof_O 	O 	0.4901	0.675	0.8052	-0.165
Mof_C 	C 	0.6436	0.6782	0.7866	0.03
Mof_H 	H 	0.6733	0.6785	0.8151	0.059
Mof_N 	N 	0.5687	0.7411	0.9396	-0.282
Mof_C 	C 	0.5748	0.7607	0.0059	0.052
Mof_C 	C 	0.5782	0.7647	0.1258	-0.051
Mof_H 	H 	0.5757	0.747	0.1694	0.228
Mof_C 	C 	0.5817	0.7334	0.0649	-0.052
Mof_H 	H 	0.5875	0.7002	0.0651	0.063
Mof_Cl	Cl	0.5945	0.7207	0.1976	-0.326
Mof_Zn	Zn	0.33203	0.89684	0.90422	1.194
Mof_N 	N 	0.3349	0.9565	0.9769	-0.105
Mof_N 	N 	0.3417	0.9686	0.9508	-0.184
Mof_C 	C 	0.2953	0.9777	0.9759	0.069
Mof_C 	C 	0.205	0.9764	0.9745	-0.104
Mof_H 	H 	0.1658	0.961	0.9575	0.587
Mof_C 	C 	0.2392	0.9546	0.9516	-0.012
Mof_H 	H 	0.2242	0.9234	0.9189	0.043
Mof_Cl	Cl	0.1348	0.9564	0.956	-0.63
Mof_Cl	Cl	0.1614	0.0008	0.897	0.065
Mof_N 	N 	0.3983	0.8827	0.9297	-0.272
Mof_O 	O 	0.4523	0.9851	0.877	-0.12
Mof_O 	O 	0.4419	0.9664	0.816	-0.078
Mof_C 	C 	0.406	0.876	0.008	-0.043
Mof_H 	H 	0.3813	0.8733	0.0457	0.047
Mof_C 	C 	0.3884	0.8319	0.9669	0.02
Mof_H 	H 	0.3524	0.8034	0.9878	0.021
Mof_N 	N 	0.3223	0.9167	0.809	-0.272
Mof_O 	O 	0.325	0.8151	0.8052	-0.165
Mof_C 	C 	0.3218	0.9654	0.7866	0.03
Mof_H 	H 	0.3215	0.9948	0.8151	0.059
Mof_N 	N 	0.2589	0.8276	0.9396	-0.282
Mof_C 	C 	0.2393	0.8141	0.0059	0.052
Mof_C 	C 	0.2353	0.8135	0.1258	-0.051
Mof_H 	H 	0.253	0.8287	0.1694	0.228
Mof_C 	C 	0.2666	0.8483	0.0649	-0.052
Mof_H 	H 	0.2998	0.8873	0.0651	0.063
Mof_Cl	Cl	0.2793	0.8738	0.1976	-0.326
Mof_Zn	Zn	0.10316	0.43519	0.90422	1.194
Mof_N 	N 	0.0435	0.3784	0.9769	-0.101
Mof_N 	N 	0.0314	0.3731	0.9508	-0.182
Mof_C 	C 	0.0223	0.3176	0.9759	0.039
Mof_C 	C 	0.0236	0.2286	0.9745	-0.187
Mof_H 	H 	0.039	0.2048	0.9575	0.653
Mof_C 	C 	0.0454	0.2846	0.9516	0.043
Mof_H 	H 	0.0766	0.3008	0.9189	0.024
Mof_Cl	Cl	0.0436	0.1784	0.956	-0.701
Mof_Cl	Cl	0.9992	0.1606	0.897	0.078
Mof_N 	N 	0.1173	0.5156	0.9297	-0.272
Mof_O 	O 	0.0149	0.4672	0.877	-0.12
Mof_O 	O 	0.0336	0.4755	0.816	-0.079
Mof_C 	C 	0.124	0.53	0.008	-0.043
Mof_H 	H 	0.1267	0.508	0.0457	0.047
Mof_C 	C 	0.1681	0.5565	0.9669	0.02
Mof_H 	H 	0.1966	0.549	0.9878	0.021
Mof_N 	N 	0.0833	0.4056	0.809	-0.271
Mof_O 	O 	0.1849	0.5099	0.8052	-0.165
Mof_C 	C 	0.0346	0.3564	0.7866	0.03
Mof_H 	H 	0.0052	0.3267	0.8151	0.058
Mof_N 	N 	0.1724	0.4313	0.9396	-0.282
Mof_C 	C 	0.1859	0.4252	0.0059	0.051
Mof_C 	C 	0.1865	0.4218	0.1258	-0.051
Mof_H 	H 	0.1713	0.4243	0.1694	0.228
Mof_C 	C 	0.1517	0.4183	0.0649	-0.052
Mof_H 	H 	0.1127	0.4125	0.0651	0.063
Mof_Cl	Cl	0.1262	0.4055	0.1976	-0.327
Mof_Zn	Zn	0.33203	0.43519	0.59578	1.194
Mof_N 	N 	0.3349	0.3784	0.5231	-0.106
Mof_N 	N 	0.3417	0.3731	0.5492	-0.182
Mof_C 	C 	0.2953	0.3176	0.5241	0.047
Mof_C 	C 	0.205	0.2286	0.5255	-0.156
Mof_H 	H 	0.1658	0.2048	0.5425	0.623
Mof_C 	C 	0.2392	0.2846	0.5484	0.023
Mof_H 	H 	0.2242	0.3008	0.5811	0.031
Mof_Cl	Cl	0.1348	0.1784	0.544	-0.664
Mof_Cl	Cl	0.1614	0.1606	0.603	0.071
Mof_N 	N 	0.3983	0.5156	0.5703	-0.273
Mof_O 	O 	0.4523	0.4672	0.623	-0.12
Mof_O 	O 	0.4419	0.4755	0.684	-0.078
Mof_C 	C 	0.406	0.53	0.492	-0.038
Mof_H 	H 	0.3813	0.508	0.4543	0.046
Mof_C 	C 	0.3884	0.5565	0.5331	0.017
Mof_H 	H 	0.3524	0.549	0.5122	0.021
Mof_N 	N 	0.3223	0.4056	0.691	-0.272
Mof_O 	O 	0.325	0.5099	0.6948	-0.165
Mof_C 	C 	0.3218	0.3564	0.7134	0.03
Mof_H 	H 	0.3215	0.3267	0.6849	0.059
Mof_N 	N 	0.2589	0.4313	0.5604	-0.284
Mof_C 	C 	0.2393	0.4252	0.4941	0.054
Mof_C 	C 	0.2353	0.4218	0.3742	-0.051
Mof_H 	H 	0.253	0.4243	0.3306	0.227
Mof_C 	C 	0.2666	0.4183	0.4351	-0.052
Mof_H 	H 	0.2998	0.4125	0.4349	0.064
Mof_Cl	Cl	0.2793	0.4055	0.3024	-0.326
Mof_Zn	Zn	0.10316	0.66797	0.59578	1.194
Mof_N 	N 	0.0435	0.6651	0.5231	-0.101
Mof_N 	N 	0.0314	0.6583	0.5492	-0.18
Mof_C 	C 	0.0223	0.7047	0.5241	0.011
Mof_C 	C 	0.0236	0.795	0.5255	-0.253
Mof_H 	H 	0.039	0.8342	0.5425	0.7
Mof_C 	C 	0.0454	0.7608	0.5484	0.087
Mof_H 	H 	0.0766	0.7758	0.5811	0.009
Mof_Cl	Cl	0.0436	0.8652	0.544	-0.744
Mof_Cl	Cl	0.9992	0.8386	0.603	0.087
Mof_N 	N 	0.1173	0.6017	0.5703	-0.273
Mof_O 	O 	0.0149	0.5477	0.623	-0.121
Mof_O 	O 	0.0336	0.5581	0.684	-0.078
Mof_C 	C 	0.124	0.594	0.492	-0.039
Mof_H 	H 	0.1267	0.6187	0.4543	0.046
Mof_C 	C 	0.1681	0.6116	0.5331	0.017
Mof_H 	H 	0.1966	0.6476	0.5122	0.02
Mof_N 	N 	0.0833	0.6777	0.691	-0.271
Mof_O 	O 	0.1849	0.675	0.6948	-0.165
Mof_C 	C 	0.0346	0.6782	0.7134	0.03
Mof_H 	H 	0.0052	0.6785	0.6849	0.058
Mof_N 	N 	0.1724	0.7411	0.5604	-0.283
Mof_C 	C 	0.1859	0.7607	0.4941	0.054
Mof_C 	C 	0.1865	0.7647	0.3742	-0.051
Mof_H 	H 	0.1713	0.747	0.3306	0.228
Mof_C 	C 	0.1517	0.7334	0.4351	-0.052
Mof_H 	H 	0.1127	0.7002	0.4349	0.064
Mof_Cl	Cl	0.1262	0.7207	0.3024	-0.327
Mof_Zn	Zn	0.56481	0.89684	0.59578	1.194
Mof_N 	N 	0.6216	0.9565	0.5231	-0.107
Mof_N 	N 	0.6269	0.9686	0.5492	-0.182
Mof_C 	C 	0.6824	0.9777	0.5241	0.059
Mof_C 	C 	0.7714	0.9764	0.5255	-0.127
Mof_H 	H 	0.7952	0.961	0.5425	0.606
Mof_C 	C 	0.7154	0.9546	0.5484	0.004
Mof_H 	H 	0.6992	0.9234	0.5811	0.037
Mof_Cl	Cl	0.8216	0.9564	0.544	-0.652
Mof_Cl	Cl	0.8394	0.0008	0.603	0.066
Mof_N 	N 	0.4844	0.8827	0.5703	-0.273
Mof_O 	O 	0.5328	0.9851	0.623	-0.12
Mof_O 	O 	0.5245	0.9664	0.684	-0.078
Mof_C 	C 	0.47	0.876	0.492	-0.038
Mof_H 	H 	0.492	0.8733	0.4543	0.046
Mof_C 	C 	0.4435	0.8319	0.5331	0.017
Mof_H 	H 	0.451	0.8034	0.5122	0.021
Mof_N 	N 	0.5944	0.9167	0.691	-0.272
Mof_O 	O 	0.4901	0.8151	0.6948	-0.165
Mof_C 	C 	0.6436	0.9654	0.7134	0.03
Mof_H 	H 	0.6733	0.9948	0.6849	0.059
Mof_N 	N 	0.5687	0.8276	0.5604	-0.284
Mof_C 	C 	0.5748	0.8141	0.4941	0.054
Mof_C 	C 	0.5782	0.8135	0.3742	-0.051
Mof_H 	H 	0.5757	0.8287	0.3306	0.227
Mof_C 	C 	0.5817	0.8483	0.4351	-0.052
Mof_H 	H 	0.5875	0.8873	0.4349	0.064
Mof_Cl	Cl	0.5945	0.8738	0.3024	-0.326
Mof_Zn	Zn	0.66797	0.56481	0.09578	1.194
Mof_N 	N 	0.6651	0.6216	0.0231	-0.103
Mof_N 	N 	0.6583	0.6269	0.0492	-0.179
Mof_C 	C 	0.7047	0.6824	0.0241	0.017
Mof_C 	C 	0.795	0.7714	0.0255	-0.231
Mof_H 	H 	0.8342	0.7952	0.0425	0.684
Mof_C 	C 	0.7608	0.7154	0.0484	0.072
Mof_H 	H 	0.7758	0.6992	0.0811	0.014
Mof_Cl	Cl	0.8652	0.8216	0.044	-0.729
Mof_Cl	Cl	0.8386	0.8394	0.103	0.081
Mof_N 	N 	0.6017	0.4844	0.0703	-0.273
Mof_O 	O 	0.5477	0.5328	0.123	-0.12
Mof_O 	O 	0.5581	0.5245	0.184	-0.078
Mof_C 	C 	0.594	0.47	0.992	-0.034
Mof_H 	H 	0.6187	0.492	0.9543	0.046
Mof_C 	C 	0.6116	0.4435	0.0331	0.014
Mof_H 	H 	0.6476	0.451	0.0122	0.02
Mof_N 	N 	0.6777	0.5944	0.191	-0.271
Mof_O 	O 	0.675	0.4901	0.1948	-0.165
Mof_C 	C 	0.6782	0.6436	0.2134	0.03
Mof_H 	H 	0.6785	0.6733	0.1849	0.059
Mof_N 	N 	0.7411	0.5687	0.0604	-0.285
Mof_C 	C 	0.7607	0.5748	0.9941	0.057
Mof_C 	C 	0.7647	0.5782	0.8742	-0.051
Mof_H 	H 	0.747	0.5757	0.8306	0.227
Mof_C 	C 	0.7334	0.5817	0.9351	-0.053
Mof_H 	H 	0.7002	0.5875	0.9349	0.065
Mof_Cl	Cl	0.7207	0.5945	0.8024	-0.326
Mof_Zn	Zn	0.89684	0.33203	0.09578	1.194
Mof_N 	N 	0.9565	0.3349	0.0231	-0.105
Mof_N 	N 	0.9686	0.3417	0.0492	-0.181
Mof_C 	C 	0.9777	0.2953	0.0241	0.044
Mof_C 	C 	0.9764	0.205	0.0255	-0.157
Mof_H 	H 	0.961	0.1658	0.0425	0.622
Mof_C 	C 	0.9546	0.2392	0.0484	0.025
Mof_H 	H 	0.9234	0.2242	0.0811	0.031
Mof_Cl	Cl	0.9564	0.1348	0.044	-0.66
Mof_Cl	Cl	0.0008	0.1614	0.103	0.067
Mof_N 	N 	0.8827	0.3983	0.0703	-0.273
Mof_O 	O 	0.9851	0.4523	0.123	-0.12
Mof_O 	O 	0.9664	0.4419	0.184	-0.078
Mof_C 	C 	0.876	0.406	0.992	-0.034
Mof_H 	H 	0.8733	0.3813	0.9543	0.046
Mof_C 	C 	0.8319	0.3884	0.0331	0.014
Mof_H 	H 	0.8034	0.3524	0.0122	0.02
Mof_N 	N 	0.9167	0.3223	0.191	-0.272
Mof_O 	O 	0.8151	0.325	0.1948	-0.165
Mof_C 	C 	0.9654	0.3218	0.2134	0.03
Mof_H 	H 	0.9948	0.3215	0.1849	0.059
Mof_N 	N 	0.8276	0.2589	0.0604	-0.285
Mof_C 	C 	0.8141	0.2393	0.9941	0.057
Mof_C 	C 	0.8135	0.2353	0.8742	-0.05
Mof_H 	H 	0.8287	0.253	0.8306	0.227
Mof_C 	C 	0.8483	0.2666	0.9351	-0.053
Mof_H 	H 	0.8873	0.2998	0.9349	0.065
Mof_Cl	Cl	0.8738	0.2793	0.8024	-0.325
Mof_Zn	Zn	0.43519	0.10316	0.09578	1.194
Mof_N 	N 	0.3784	0.0435	0.0231	-0.103
Mof_N 	N 	0.3731	0.0314	0.0492	-0.179
Mof_C 	C 	0.3176	0.0223	0.0241	0.013
Mof_C 	C 	0.2286	0.0236	0.0255	-0.238
Mof_H 	H 	0.2048	0.039	0.0425	0.683
Mof_C 	C 	0.2846	0.0454	0.0484	0.078
Mof_H 	H 	0.3008	0.0766	0.0811	0.013
Mof_Cl	Cl	0.1784	0.0436	0.044	-0.72
Mof_Cl	Cl	0.1606	0.9992	0.103	0.08
Mof_N 	N 	0.5156	0.1173	0.0703	-0.273
Mof_O 	O 	0.4672	0.0149	0.123	-0.121
Mof_O 	O 	0.4755	0.0336	0.184	-0.078
Mof_C 	C 	0.53	0.124	0.992	-0.034
Mof_H 	H 	0.508	0.1267	0.9543	0.046
Mof_C 	C 	0.5565	0.1681	0.0331	0.014
Mof_H 	H 	0.549	0.1966	0.0122	0.02
Mof_N 	N 	0.4056	0.0833	0.191	-0.271
Mof_O 	O 	0.5099	0.1849	0.1948	-0.165
Mof_C 	C 	0.3564	0.0346	0.2134	0.031
Mof_H 	H 	0.3267	0.0052	0.1849	0.058
Mof_N 	N 	0.4313	0.1724	0.0604	-0.285
Mof_C 	C 	0.4252	0.1859	0.9941	0.057
Mof_C 	C 	0.4218	0.1865	0.8742	-0.05
Mof_H 	H 	0.4243	0.1713	0.8306	0.227
Mof_C 	C 	0.4183	0.1517	0.9351	-0.053
Mof_H 	H 	0.4125	0.1127	0.9349	0.065
Mof_Cl	Cl	0.4055	0.1262	0.8024	-0.326
Mof_Zn	Zn	0.56481	0.66797	0.59578	1.194
Mof_N 	N 	0.6216	0.6651	0.5231	-0.106
Mof_N 	N 	0.6269	0.6583	0.5492	-0.182
Mof_C 	C 	0.6824	0.7047	0.5241	0.046
Mof_C 	C 	0.7714	0.795	0.5255	-0.16
Mof_H 	H 	0.7952	0.8342	0.5425	0.633
Mof_C 	C 	0.7154	0.7608	0.5484	0.025
Mof_H 	H 	0.6992	0.7758	0.5811	0.03
Mof_Cl	Cl	0.8216	0.8652	0.544	-0.681
Mof_Cl	Cl	0.8394	0.8386	0.603	0.073
Mof_N 	N 	0.4844	0.6017	0.5703	-0.273
Mof_O 	O 	0.5328	0.5477	0.623	-0.12
Mof_O 	O 	0.5245	0.5581	0.684	-0.078
Mof_C 	C 	0.47	0.594	0.492	-0.038
Mof_H 	H 	0.492	0.6187	0.4543	0.046
Mof_C 	C 	0.4435	0.6116	0.5331	0.017
Mof_H 	H 	0.451	0.6476	0.5122	0.021
Mof_N 	N 	0.5944	0.6777	0.691	-0.272
Mof_O 	O 	0.4901	0.675	0.6948	-0.165
Mof_C 	C 	0.6436	0.6782	0.7134	0.03
Mof_H 	H 	0.6733	0.6785	0.6849	0.059
Mof_N 	N 	0.5687	0.7411	0.5604	-0.284
Mof_C 	C 	0.5748	0.7607	0.4941	0.054
Mof_C 	C 	0.5782	0.7647	0.3742	-0.051
Mof_H 	H 	0.5757	0.747	0.3306	0.228
Mof_C 	C 	0.5817	0.7334	0.4351	-0.052
Mof_H 	H 	0.5875	0.7002	0.4349	0.064
Mof_Cl	Cl	0.5945	0.7207	0.3024	-0.326
Mof_Zn	Zn	0.33203	0.89684	0.59578	1.194
Mof_N 	N 	0.3349	0.9565	0.5231	-0.106
Mof_N 	N 	0.3417	0.9686	0.5492	-0.182
Mof_C 	C 	0.2953	0.9777	0.5241	0.05
Mof_C 	C 	0.205	0.9764	0.5255	-0.147
Mof_H 	H 	0.1658	0.961	0.5425	0.616
Mof_C 	C 	0.2392	0.9546	0.5484	0.018
Mof_H 	H 	0.2242	0.9234	0.5811	0.033
Mof_Cl	Cl	0.1348	0.9564	0.544	-0.655
Mof_Cl	Cl	0.1614	0.0008	0.603	0.069
Mof_N 	N 	0.3983	0.8827	0.5703	-0.273
Mof_O 	O 	0.4523	0.9851	0.623	-0.12
Mof_O 	O 	0.4419	0.9664	0.684	-0.078
Mof_C 	C 	0.406	0.876	0.492	-0.038
Mof_H 	H 	0.3813	0.8733	0.4543	0.046
Mof_C 	C 	0.3884	0.8319	0.5331	0.017
Mof_H 	H 	0.3524	0.8034	0.5122	0.021
Mof_N 	N 	0.3223	0.9167	0.691	-0.272
Mof_O 	O 	0.325	0.8151	0.6948	-0.165
Mof_C 	C 	0.3218	0.9654	0.7134	0.03
Mof_H 	H 	0.3215	0.9948	0.6849	0.059
Mof_N 	N 	0.2589	0.8276	0.5604	-0.284
Mof_C 	C 	0.2393	0.8141	0.4941	0.054
Mof_C 	C 	0.2353	0.8135	0.3742	-0.051
Mof_H 	H 	0.253	0.8287	0.3306	0.227
Mof_C 	C 	0.2666	0.8483	0.4351	-0.052
Mof_H 	H 	0.2998	0.8873	0.4349	0.064
Mof_Cl	Cl	0.2793	0.8738	0.3024	-0.326
Mof_Zn	Zn	0.10316	0.43519	0.59578	1.194
Mof_N 	N 	0.0435	0.3784	0.5231	-0.103
Mof_N 	N 	0.0314	0.3731	0.5492	-0.181
Mof_C 	C 	0.0223	0.3176	0.5241	0.02
Mof_C 	C 	0.0236	0.2286	0.5255	-0.228
Mof_H 	H 	0.039	0.2048	0.5425	0.681
Mof_C 	C 	0.0454	0.2846	0.5484	0.071
Mof_H 	H 	0.0766	0.3008	0.5811	0.015
Mof_Cl	Cl	0.0436	0.1784	0.544	-0.724
Mof_Cl	Cl	0.9992	0.1606	0.603	0.082
Mof_N 	N 	0.1173	0.5156	0.5703	-0.273
Mof_O 	O 	0.0149	0.4672	0.623	-0.121
Mof_O 	O 	0.0336	0.4755	0.684	-0.078
Mof_C 	C 	0.124	0.53	0.492	-0.039
Mof_H 	H 	0.1267	0.508	0.4543	0.046
Mof_C 	C 	0.1681	0.5565	0.5331	0.017
Mof_H 	H 	0.1966	0.549	0.5122	0.02
Mof_N 	N 	0.0833	0.4056	0.691	-0.271
Mof_O 	O 	0.1849	0.5099	0.6948	-0.165
Mof_C 	C 	0.0346	0.3564	0.7134	0.03
Mof_H 	H 	0.0052	0.3267	0.6849	0.058
Mof_N 	N 	0.1724	0.4313	0.5604	-0.283
Mof_C 	C 	0.1859	0.4252	0.4941	0.054
Mof_C 	C 	0.1865	0.4218	0.3742	-0.051
Mof_H 	H 	0.1713	0.4243	0.3306	0.228
Mof_C 	C 	0.1517	0.4183	0.4351	-0.052
Mof_H 	H 	0.1127	0.4125	0.4349	0.064
Mof_Cl	Cl	0.1262	0.4055	0.3024	-0.326
Mof_Zn	Zn	0.43519	0.33203	0.09578	1.194
Mof_N 	N 	0.3784	0.3349	0.0231	-0.103
Mof_N 	N 	0.3731	0.3417	0.0492	-0.179
Mof_C 	C 	0.3176	0.2953	0.0241	0.016
Mof_C 	C 	0.2286	0.205	0.0255	-0.232
Mof_H 	H 	0.2048	0.1658	0.0425	0.678
Mof_C 	C 	0.2846	0.2392	0.0484	0.074
Mof_H 	H 	0.3008	0.2242	0.0811	0.014
Mof_Cl	Cl	0.1784	0.1348	0.044	-0.715
Mof_Cl	Cl	0.1606	0.1614	0.103	0.08
Mof_N 	N 	0.5156	0.3983	0.0703	-0.273
Mof_O 	O 	0.4672	0.4523	0.123	-0.12
Mof_O 	O 	0.4755	0.4419	0.184	-0.078
Mof_C 	C 	0.53	0.406	0.992	-0.034
Mof_H 	H 	0.508	0.3813	0.9543	0.046
Mof_C 	C 	0.5565	0.3884	0.0331	0.014
Mof_H 	H 	0.549	0.3524	0.0122	0.02
Mof_N 	N 	0.4056	0.3223	0.191	-0.271
Mof_O 	O 	0.5099	0.325	0.1948	-0.165
Mof_C 	C 	0.3564	0.3218	0.2134	0.031
Mof_H 	H 	0.3267	0.3215	0.1849	0.059
Mof_N 	N 	0.4313	0.2589	0.0604	-0.285
Mof_C 	C 	0.4252	0.2393	0.9941	0.057
Mof_C 	C 	0.4218	0.2353	0.8742	-0.05
Mof_H 	H 	0.4243	0.253	0.8306	0.227
Mof_C 	C 	0.4183	0.2666	0.9351	-0.053
Mof_H 	H 	0.4125	0.2998	0.9349	0.065
Mof_Cl	Cl	0.4055	0.2793	0.8024	-0.326
Mof_Zn	Zn	0.66797	0.10316	0.09578	1.194
Mof_N 	N 	0.6651	0.0435	0.0231	-0.102
Mof_N 	N 	0.6583	0.0314	0.0492	-0.179
Mof_C 	C 	0.7047	0.0223	0.0241	0.006
Mof_C 	C 	0.795	0.0236	0.0255	-0.26
Mof_H 	H 	0.8342	0.039	0.0425	0.704
Mof_C 	C 	0.7608	0.0454	0.0484	0.092
Mof_H 	H 	0.7758	0.0766	0.0811	0.007
Mof_Cl	Cl	0.8652	0.0436	0.044	-0.747
Mof_Cl	Cl	0.8386	0.9992	0.103	0.085
Mof_N 	N 	0.6017	0.1173	0.0703	-0.273
Mof_O 	O 	0.5477	0.0149	0.123	-0.121
Mof_O 	O 	0.5581	0.0336	0.184	-0.078
Mof_C 	C 	0.594	0.124	0.992	-0.034
Mof_H 	H 	0.6187	0.1267	0.9543	0.046
Mof_C 	C 	0.6116	0.1681	0.0331	0.014
Mof_H 	H 	0.6476	0.1966	0.0122	0.02
Mof_N 	N 	0.6777	0.0833	0.191	-0.271
Mof_O 	O 	0.675	0.1849	0.1948	-0.165
Mof_C 	C 	0.6782	0.0346	0.2134	0.03
Mof_H 	H 	0.6785	0.0052	0.1849	0.058
Mof_N 	N 	0.7411	0.1724	0.0604	-0.285
Mof_C 	C 	0.7607	0.1859	0.9941	0.057
Mof_C 	C 	0.7647	0.1865	0.8742	-0.051
Mof_H 	H 	0.747	0.1713	0.8306	0.227
Mof_C 	C 	0.7334	0.1517	0.9351	-0.053
Mof_H 	H 	0.7002	0.1127	0.9349	0.065
Mof_Cl	Cl	0.7207	0.1262	0.8024	-0.326
Mof_Zn	Zn	0.89684	0.56481	0.09578	1.194
Mof_N 	N 	0.9565	0.6216	0.0231	-0.106
Mof_N 	N 	0.9686	0.6269	0.0492	-0.181
Mof_C 	C 	0.9777	0.6824	0.0241	0.052
Mof_C 	C 	0.9764	0.7714	0.0255	-0.136
Mof_H 	H 	0.961	0.7952	0.0425	0.608
Mof_C 	C 	0.9546	0.7154	0.0484	0.01
Mof_H 	H 	0.9234	0.6992	0.0811	0.035
Mof_Cl	Cl	0.9564	0.8216	0.044	-0.648
Mof_Cl	Cl	0.0008	0.8394	0.103	0.064
Mof_N 	N 	0.8827	0.4844	0.0703	-0.273
Mof_O 	O 	0.9851	0.5328	0.123	-0.12
Mof_O 	O 	0.9664	0.5245	0.184	-0.078
Mof_C 	C 	0.876	0.47	0.992	-0.034
Mof_H 	H 	0.8733	0.492	0.9543	0.046
Mof_C 	C 	0.8319	0.4435	0.0331	0.014
Mof_H 	H 	0.8034	0.451	0.0122	0.02
Mof_N 	N 	0.9167	0.5944	0.191	-0.272
Mof_O 	O 	0.8151	0.4901	0.1948	-0.165
Mof_C 	C 	0.9654	0.6436	0.2134	0.03
Mof_H 	H 	0.9948	0.6733	0.1849	0.059
Mof_N 	N 	0.8276	0.5687	0.0604	-0.285
Mof_C 	C 	0.8141	0.5748	0.9941	0.057
Mof_C 	C 	0.8135	0.5782	0.8742	-0.05
Mof_H 	H 	0.8287	0.5757	0.8306	0.227
Mof_C 	C 	0.8483	0.5817	0.9351	-0.053
Mof_H 	H 	0.8873	0.5875	0.9349	0.065
Mof_Cl	Cl	0.8738	0.5945	0.8024	-0.325
Mof_Zn	Zn	0.66797	0.56481	0.40422	1.194
Mof_N 	N 	0.6651	0.6216	0.4769	-0.105
Mof_N 	N 	0.6583	0.6269	0.4508	-0.181
Mof_C 	C 	0.7047	0.6824	0.4759	0.035
Mof_C 	C 	0.795	0.7714	0.4745	-0.191
Mof_H 	H 	0.8342	0.7952	0.4575	0.658
Mof_C 	C 	0.7608	0.7154	0.4516	0.046
Mof_H 	H 	0.7758	0.6992	0.4189	0.023
Mof_Cl	Cl	0.8652	0.8216	0.456	-0.707
Mof_Cl	Cl	0.8386	0.8394	0.397	0.078
Mof_N 	N 	0.6017	0.4844	0.4297	-0.273
Mof_O 	O 	0.5477	0.5328	0.377	-0.12
Mof_O 	O 	0.5581	0.5245	0.316	-0.078
Mof_C 	C 	0.594	0.47	0.508	-0.038
Mof_H 	H 	0.6187	0.492	0.5457	0.046
Mof_C 	C 	0.6116	0.4435	0.4669	0.017
Mof_H 	H 	0.6476	0.451	0.4878	0.021
Mof_N 	N 	0.6777	0.5944	0.309	-0.271
Mof_O 	O 	0.675	0.4901	0.3052	-0.165
Mof_C 	C 	0.6782	0.6436	0.2866	0.03
Mof_H 	H 	0.6785	0.6733	0.3151	0.059
Mof_N 	N 	0.7411	0.5687	0.4396	-0.283
Mof_C 	C 	0.7607	0.5748	0.5059	0.054
Mof_C 	C 	0.7647	0.5782	0.6258	-0.051
Mof_H 	H 	0.747	0.5757	0.6694	0.228
Mof_C 	C 	0.7334	0.5817	0.5649	-0.052
Mof_H 	H 	0.7002	0.5875	0.5651	0.064
Mof_Cl	Cl	0.7207	0.5945	0.6976	-0.326
Mof_Zn	Zn	0.89684	0.33203	0.40422	1.194
Mof_N 	N 	0.9565	0.3349	0.4769	-0.107
Mof_N 	N 	0.9686	0.3417	0.4508	-0.182
Mof_C 	C 	0.9777	0.2953	0.4759	0.062
Mof_C 	C 	0.9764	0.205	0.4745	-0.116
Mof_H 	H 	0.961	0.1658	0.4575	0.595
Mof_C 	C 	0.9546	0.2392	0.4516	-0.003
Mof_H 	H 	0.9234	0.2242	0.4189	0.04
Mof_Cl	Cl	0.9564	0.1348	0.456	-0.637
Mof_Cl	Cl	0.0008	0.1614	0.397	0.064
Mof_N 	N 	0.8827	0.3983	0.4297	-0.273
Mof_O 	O 	0.9851	0.4523	0.377	-0.12
Mof_O 	O 	0.9664	0.4419	0.316	-0.078
Mof_C 	C 	0.876	0.406	0.508	-0.038
Mof_H 	H 	0.8733	0.3813	0.5457	0.047
Mof_C 	C 	0.8319	0.3884	0.4669	0.017
Mof_H 	H 	0.8034	0.3524	0.4878	0.021
Mof_N 	N 	0.9167	0.3223	0.309	-0.272
Mof_O 	O 	0.8151	0.325	0.3052	-0.165
Mof_C 	C 	0.9654	0.3218	0.2866	0.03
Mof_H 	H 	0.9948	0.3215	0.3151	0.059
Mof_N 	N 	0.8276	0.2589	0.4396	-0.284
Mof_C 	C 	0.8141	0.2393	0.5059	0.054
Mof_C 	C 	0.8135	0.2353	0.6258	-0.05
Mof_H 	H 	0.8287	0.253	0.6694	0.227
Mof_C 	C 	0.8483	0.2666	0.5649	-0.052
Mof_H 	H 	0.8873	0.2998	0.5651	0.064
Mof_Cl	Cl	0.8738	0.2793	0.6976	-0.326
Mof_Zn	Zn	0.43519	0.10316	0.40422	1.194
Mof_N 	N 	0.3784	0.0435	0.4769	-0.104
Mof_N 	N 	0.3731	0.0314	0.4508	-0.181
Mof_C 	C 	0.3176	0.0223	0.4759	0.033
Mof_C 	C 	0.2286	0.0236	0.4745	-0.195
Mof_H 	H 	0.2048	0.039	0.4575	0.654
Mof_C 	C 	0.2846	0.0454	0.4516	0.049
Mof_H 	H 	0.3008	0.0766	0.4189	0.022
Mof_Cl	Cl	0.1784	0.0436	0.456	-0.695
Mof_Cl	Cl	0.1606	0.9992	0.397	0.076
Mof_N 	N 	0.5156	0.1173	0.4297	-0.273
Mof_O 	O 	0.4672	0.0149	0.377	-0.12
Mof_O 	O 	0.4755	0.0336	0.316	-0.078
Mof_C 	C 	0.53	0.124	0.508	-0.038
Mof_H 	H 	0.508	0.1267	0.5457	0.046
Mof_C 	C 	0.5565	0.1681	0.4669	0.017
Mof_H 	H 	0.549	0.1966	0.4878	0.021
Mof_N 	N 	0.4056	0.0833	0.309	-0.271
Mof_O 	O 	0.5099	0.1849	0.3052	-0.165
Mof_C 	C 	0.3564	0.0346	0.2866	0.03
Mof_H 	H 	0.3267	0.0052	0.3151	0.058
Mof_N 	N 	0.4313	0.1724	0.4396	-0.283
Mof_C 	C 	0.4252	0.1859	0.5059	0.054
Mof_C 	C 	0.4218	0.1865	0.6258	-0.051
Mof_H 	H 	0.4243	0.1713	0.6694	0.228
Mof_C 	C 	0.4183	0.1517	0.5649	-0.052
Mof_H 	H 	0.4125	0.1127	0.5651	0.064
Mof_Cl	Cl	0.4055	0.1262	0.6976	-0.326
Mof_Zn	Zn	0.33203	0.43519	0.90422	1.194
Mof_N 	N 	0.3349	0.3784	0.9769	-0.105
Mof_N 	N 	0.3417	0.3731	0.9508	-0.183
Mof_C 	C 	0.2953	0.3176	0.9759	0.067
Mof_C 	C 	0.205	0.2286	0.9745	-0.11
Mof_H 	H 	0.1658	0.2048	0.9575	0.593
Mof_C 	C 	0.2392	0.2846	0.9516	-0.007
Mof_H 	H 	0.2242	0.3008	0.9189	0.041
Mof_Cl	Cl	0.1348	0.1784	0.956	-0.637
Mof_Cl	Cl	0.1614	0.1606	0.897	0.067
Mof_N 	N 	0.3983	0.5156	0.9297	-0.272
Mof_O 	O 	0.4523	0.4672	0.877	-0.119
Mof_O 	O 	0.4419	0.4755	0.816	-0.078
Mof_C 	C 	0.406	0.53	0.008	-0.043
Mof_H 	H 	0.3813	0.508	0.0457	0.047
Mof_C 	C 	0.3884	0.5565	0.9669	0.02
Mof_H 	H 	0.3524	0.549	0.9878	0.021
Mof_N 	N 	0.3223	0.4056	0.809	-0.272
Mof_O 	O 	0.325	0.5099	0.8052	-0.165
Mof_C 	C 	0.3218	0.3564	0.7866	0.03
Mof_H 	H 	0.3215	0.3267	0.8151	0.059
Mof_N 	N 	0.2589	0.4313	0.9396	-0.282
Mof_C 	C 	0.2393	0.4252	0.0059	0.052
Mof_C 	C 	0.2353	0.4218	0.1258	-0.051
Mof_H 	H 	0.253	0.4243	0.1694	0.228
Mof_C 	C 	0.2666	0.4183	0.0649	-0.052
Mof_H 	H 	0.2998	0.4125	0.0651	0.063
Mof_Cl	Cl	0.2793	0.4055	0.1976	-0.326
Mof_Zn	Zn	0.10316	0.66797	0.90422	1.194
Mof_N 	N 	0.0435	0.6651	0.9769	-0.1
Mof_N 	N 	0.0314	0.6583	0.9508	-0.182
Mof_C 	C 	0.0223	0.7047	0.9759	0.03
Mof_C 	C 	0.0236	0.795	0.9745	-0.21
Mof_H 	H 	0.039	0.8342	0.9575	0.671
Mof_C 	C 	0.0454	0.7608	0.9516	0.058
Mof_H 	H 	0.0766	0.7758	0.9189	0.019
Mof_Cl	Cl	0.0436	0.8652	0.956	-0.719
Mof_Cl	Cl	0.9992	0.8386	0.897	0.082
Mof_N 	N 	0.1173	0.6017	0.9297	-0.272
Mof_O 	O 	0.0149	0.5477	0.877	-0.12
Mof_O 	O 	0.0336	0.5581	0.816	-0.079
Mof_C 	C 	0.124	0.594	0.008	-0.043
Mof_H 	H 	0.1267	0.6187	0.0457	0.047
Mof_C 	C 	0.1681	0.6116	0.9669	0.02
Mof_H 	H 	0.1966	0.6476	0.9878	0.021
Mof_N 	N 	0.0833	0.6777	0.809	-0.271
Mof_O 	O 	0.1849	0.675	0.8052	-0.165
Mof_C 	C 	0.0346	0.6782	0.7866	0.03
Mof_H 	H 	0.0052	0.6785	0.8151	0.058
Mof_N 	N 	0.1724	0.7411	0.9396	-0.282
Mof_C 	C 	0.1859	0.7607	0.0059	0.051
Mof_C 	C 	0.1865	0.7647	0.1258	-0.051
Mof_H 	H 	0.1713	0.747	0.1694	0.228
Mof_C 	C 	0.1517	0.7334	0.0649	-0.052
Mof_H 	H 	0.1127	0.7002	0.0651	0.063
Mof_Cl	Cl	0.1262	0.7207	0.1976	-0.327
Mof_Zn	Zn	0.56481	0.89684	0.90422	1.194
Mof_N 	N 	0.6216	0.9565	0.9769	-0.105
Mof_N 	N 	0.6269	0.9686	0.9508	-0.184
Mof_C 	C 	0.6824	0.9777	0.9759	0.076
Mof_C 	C 	0.7714	0.9764	0.9745	-0.089
Mof_H 	H 	0.7952	0.961	0.9575	0.581
Mof_C 	C 	0.7154	0.9546	0.9516	-0.022
Mof_H 	H 	0.6992	0.9234	0.9189	0.046
Mof_Cl	Cl	0.8216	0.9564	0.956	-0.631
Mof_Cl	Cl	0.8394	0.0008	0.897	0.063
Mof_N 	N 	0.4844	0.8827	0.9297	-0.272
Mof_O 	O 	0.5328	0.9851	0.877	-0.12
Mof_O 	O 	0.5245	0.9664	0.816	-0.078
Mof_C 	C 	0.47	0.876	0.008	-0.043
Mof_H 	H 	0.492	0.8733	0.0457	0.047
Mof_C 	C 	0.4435	0.8319	0.9669	0.02
Mof_H 	H 	0.451	0.8034	0.9878	0.021
Mof_N 	N 	0.5944	0.9167	0.809	-0.272
Mof_O 	O 	0.4901	0.8151	0.8052	-0.165
Mof_C 	C 	0.6436	0.9654	0.7866	0.03
Mof_H 	H 	0.6733	0.9948	0.8151	0.059
Mof_N 	N 	0.5687	0.8276	0.9396	-0.282
Mof_C 	C 	0.5748	0.8141	0.0059	0.052
Mof_C 	C 	0.5782	0.8135	0.1258	-0.051
Mof_H 	H 	0.5757	0.8287	0.1694	0.228
Mof_C 	C 	0.5817	0.8483	0.0649	-0.052
Mof_H 	H 	0.5875	0.8873	0.0651	0.063
Mof_Cl	Cl	0.5945	0.8738	0.1976	-0.326
Mof_C 	C 	0.3835	0.3835	0.5	0.123
Mof_H 	H 	0.4199	0.4199	0.5	-0.017
Mof_C 	C 	0.6165	0	0.5	0.122
Mof_H 	H 	0.5801	0	0.5	-0.017
Mof_C 	C 	3.397e-17	0.6165	0.5	0.12
Mof_H 	H 	3.397e-17	0.5801	0.5	-0.017
Mof_C 	C 	0.6165	0.6165	-0	0.119
Mof_H 	H 	0.5801	0.5801	-0	-0.017
Mof_C 	C 	0.3835	0	-0	0.118
Mof_H 	H 	0.4199	0	-0	-0.017
Mof_C 	C 	-0	0.3835	-0	0.117
Mof_H 	H 	-0	0.4199	-0	-0.017
Mof_C 	C 	0.6165	0.6165	0.5	0.123
Mof_H 	H 	0.5801	0.5801	0.5	-0.017
Mof_C 	C 	0.3835	0	0.5	0.122
Mof_H 	H 	0.4199	0	0.5	-0.017
Mof_C 	C 	3.397e-17	0.3835	0.5	0.121
Mof_H 	H 	3.397e-17	0.4199	0.5	-0.017
Mof_C 	C 	0.3835	0.3835	-0	0.119
Mof_H 	H 	0.4199	0.4199	-0	-0.017
Mof_C 	C 	0.6165	0	-0	0.118
Mof_H 	H 	0.5801	0	-0	-0.017
Mof_C 	C 	3.97655e-17	0.6165	-0	0.116
Mof_H 	H 	-0	0.5801	-0	-0.017
Mof_C 	C 	0.548	0.452	0.4087	0.207
Mof_N 	N 	0.5255	0.4745	0.331	0.017
Mof_N 	N 	0.5192	0.4808	0.381	-0.024
Mof_C 	C 	0.548	0.096	0.4087	0.207
Mof_N 	N 	0.5255	0.051	0.331	0.017
Mof_N 	N 	0.5192	0.0384	0.381	-0.024
Mof_C 	C 	0.904	0.452	0.4087	0.207
Mof_N 	N 	0.949	0.4745	0.331	0.017
Mof_N 	N 	0.9616	0.4808	0.381	-0.024
Mof_C 	C 	0.452	0.548	0.9087	0.208
Mof_N 	N 	0.4745	0.5255	0.831	0.017
Mof_N 	N 	0.4808	0.5192	0.881	-0.024
Mof_C 	C 	0.452	0.904	0.9087	0.208
Mof_N 	N 	0.4745	0.949	0.831	0.017
Mof_N 	N 	0.4808	0.9616	0.881	-0.024
Mof_C 	C 	0.096	0.548	0.9087	0.207
Mof_N 	N 	0.051	0.5255	0.831	0.017
Mof_N 	N 	0.0384	0.5192	0.881	-0.024
Mof_C 	C 	0.452	0.548	0.5913	0.207
Mof_N 	N 	0.4745	0.5255	0.669	0.017
Mof_N 	N 	0.4808	0.5192	0.619	-0.024
Mof_C 	C 	0.096	0.548	0.5913	0.207
Mof_N 	N 	0.051	0.5255	0.669	0.017
Mof_N 	N 	0.0384	0.5192	0.619	-0.024
Mof_C 	C 	0.452	0.904	0.5913	0.207
Mof_N 	N 	0.4745	0.949	0.669	0.017
Mof_N 	N 	0.4808	0.9616	0.619	-0.024
Mof_C 	C 	0.548	0.452	0.0913	0.206
Mof_N 	N 	0.5255	0.4745	0.169	0.017
Mof_N 	N 	0.5192	0.4808	0.119	-0.024
Mof_C 	C 	0.904	0.452	0.0913	0.207
Mof_N 	N 	0.949	0.4745	0.169	0.017
Mof_N 	N 	0.9616	0.4808	0.119	-0.024
Mof_C 	C 	0.548	0.096	0.0913	0.206
Mof_N 	N 	0.5255	0.051	0.169	0.017
Mof_N 	N 	0.5192	0.0384	0.119	-0.024
Mof_C 	C 	0.4319	0.3223	0.25	0.163
Mof_N 	N 	0.4884	0.3247	0.25	-0.018
Mof_C 	C 	0.6777	0.1096	0.25	0.163
Mof_N 	N 	0.6753	0.1637	0.25	-0.018
Mof_C 	C 	0.8904	0.5681	0.25	0.163
Mof_N 	N 	0.8363	0.5116	0.25	-0.018
Mof_C 	C 	0.5681	0.6777	0.75	0.163
Mof_N 	N 	0.5116	0.6753	0.75	-0.018
Mof_C 	C 	0.3223	0.8904	0.75	0.163
Mof_N 	N 	0.3247	0.8363	0.75	-0.018
Mof_C 	C 	0.1096	0.4319	0.75	0.163
Mof_N 	N 	0.1637	0.4884	0.75	-0.018
Mof_C 	C 	0.3223	0.4319	0.75	0.163
Mof_N 	N 	0.3247	0.4884	0.75	-0.018
Mof_C 	C 	0.1096	0.6777	0.75	0.163
Mof_N 	N 	0.1637	0.6753	0.75	-0.018
Mof_C 	C 	0.5681	0.8904	0.75	0.163
Mof_N 	N 	0.5116	0.8363	0.75	-0.018
Mof_C 	C 	0.6777	0.5681	0.25	0.163
Mof_N 	N 	0.6753	0.5116	0.25	-0.018
Mof_C 	C 	0.8904	0.3223	0.25	0.163
Mof_N 	N 	0.8363	0.3247	0.25	-0.018
Mof_C 	C 	0.4319	0.1096	0.25	0.163
Mof_N 	N 	0.4884	0.1637	0.25	-0.018
Mof_C 	C 	0.4359	0.21795	0.4044	0.113
Mof_H 	H 	0.4421	0.22105	0.356	-0.016
Mof_C 	C 	0.78205	0.21795	0.4044	0.113
Mof_H 	H 	0.77895	0.22105	0.356	-0.016
Mof_C 	C 	0.78205	0.5641	0.4044	0.113
Mof_H 	H 	0.77895	0.5579	0.356	-0.016
Mof_C 	C 	0.5641	0.78205	0.9044	0.113
Mof_H 	H 	0.5579	0.77895	0.856	-0.016
Mof_C 	C 	0.21795	0.78205	0.9044	0.113
Mof_H 	H 	0.22105	0.77895	0.856	-0.016
Mof_C 	C 	0.21795	0.4359	0.9044	0.113
Mof_H 	H 	0.22105	0.4421	0.856	-0.016
Mof_C 	C 	0.21795	0.4359	0.5956	0.113
Mof_H 	H 	0.22105	0.4421	0.644	-0.016
Mof_C 	C 	0.21795	0.78205	0.5956	0.113
Mof_H 	H 	0.22105	0.77895	0.644	-0.016
Mof_C 	C 	0.5641	0.78205	0.5956	0.113
Mof_H 	H 	0.5579	0.77895	0.644	-0.016
Mof_C 	C 	0.78205	0.5641	0.0956	0.113
Mof_H 	H 	0.77895	0.5579	0.144	-0.016
Mof_C 	C 	0.78205	0.21795	0.0956	0.113
Mof_H 	H 	0.77895	0.22105	0.144	-0.016
Mof_C 	C 	0.4359	0.21795	0.0956	0.113
Mof_H 	H 	0.4421	0.22105	0.144	-0.016
_end
