data_functionalizedCrystal
_audit_creation_method	'EQeq! by Chris Wilmer'
_symmetry_space_group_name_H-M	'P1'
_symmetry_Int_Tables_number	1
_symmetry_cell_setting	triclinic
loop_
_symmetry_equiv_pos_as_xyz
  x,y,z
_cell_length_a	10.95
_cell_length_b	17.7
_cell_length_c	7.843
_cell_angle_alpha	90
_cell_angle_beta	102.33
_cell_angle_gamma	90
loop_
_atom_site_label
_atom_site_type_symbol
_atom_site_fract_x
_atom_site_fract_y
_atom_site_fract_z
_atom_site_charge
Mof_C 	C 	0.359	0.4	0.0925	0.519
Mof_C 	C 	0.3026	0.3232	0.0441	-0.239
Mof_C 	C 	0.1788	0.3077	0.0379	0.297
Mof_C 	C 	0.1274	0.2376	0.994	0.265
Mof_F 	F 	0.1048	0.36471	0.0712	-0.399
Mof_F 	F 	0.0047	0.22824	0.9881	-0.452
Mof_O 	O 	0.3537	0.42601	0.2372	-0.389
Mof_O 	O 	0.4116	0.43239	0.9844	-0.508
Mof_C 	C 	0.859	0.9	0.0925	0.496
Mof_C 	C 	0.8026	0.8232	0.0441	-0.194
Mof_C 	C 	0.6788	0.8077	0.0379	0.306
Mof_C 	C 	0.6274	0.7376	0.994	0.291
Mof_F 	F 	0.6048	0.86471	0.0712	-0.348
Mof_F 	F 	0.5047	0.72824	0.9881	-0.4
Mof_O 	O 	0.8537	0.92601	0.2372	-0.279
Mof_O 	O 	0.9116	0.93239	0.9844	-0.372
Mof_C 	C 	0.641	0.4	0.4075	0.516
Mof_C 	C 	0.6974	0.3232	0.4559	-0.22
Mof_C 	C 	0.8212	0.3077	0.4621	0.318
Mof_C 	C 	0.8726	0.2376	0.506	0.307
Mof_F 	F 	0.8952	0.36471	0.4288	-0.313
Mof_F 	F 	0.9953	0.22824	0.5119	-0.322
Mof_O 	O 	0.6463	0.42601	0.2628	-0.359
Mof_O 	O 	0.5884	0.43239	0.5156	-0.489
Mof_C 	C 	0.141	0.9	0.4075	0.492
Mof_C 	C 	0.1974	0.8232	0.4559	-0.23
Mof_C 	C 	0.3212	0.8077	0.4621	0.296
Mof_C 	C 	0.3726	0.7376	0.506	0.292
Mof_F 	F 	0.3952	0.86471	0.4288	-0.351
Mof_F 	F 	0.4953	0.72824	0.5119	-0.39
Mof_O 	O 	0.1463	0.92601	0.2628	-0.373
Mof_O 	O 	0.0884	0.93239	0.5156	-0.486
Mof_C 	C 	0.641	0.6	0.9075	0.506
Mof_C 	C 	0.6974	0.6768	0.9559	-0.213
Mof_C 	C 	0.8212	0.6923	0.9621	0.306
Mof_C 	C 	0.8726	0.7624	0.006	0.318
Mof_F 	F 	0.8952	0.63529	0.9288	-0.313
Mof_F 	F 	0.9953	0.77176	0.0119	-0.323
Mof_O 	O 	0.6463	0.57399	0.7628	-0.358
Mof_O 	O 	0.5884	0.56761	0.0156	-0.481
Mof_C 	C 	0.141	0.1	0.9075	0.483
Mof_C 	C 	0.1974	0.1768	0.9559	-0.223
Mof_C 	C 	0.3212	0.1923	0.9621	0.285
Mof_C 	C 	0.3726	0.2624	0.006	0.303
Mof_F 	F 	0.3952	0.13529	0.9288	-0.352
Mof_F 	F 	0.4953	0.27176	0.0119	-0.39
Mof_O 	O 	0.1463	0.07399	0.7628	-0.373
Mof_O 	O 	0.0884	0.06761	0.0156	-0.478
Mof_C 	C 	0.359	0.6	0.5925	0.51
Mof_C 	C 	0.3026	0.6768	0.5441	-0.231
Mof_C 	C 	0.1788	0.6923	0.5379	0.286
Mof_C 	C 	0.1274	0.7624	0.494	0.277
Mof_F 	F 	0.1048	0.63529	0.5712	-0.4
Mof_F 	F 	0.0047	0.77176	0.4881	-0.452
Mof_O 	O 	0.3537	0.57399	0.7372	-0.388
Mof_O 	O 	0.4116	0.56761	0.4844	-0.5
Mof_C 	C 	0.859	0.1	0.5925	0.487
Mof_C 	C 	0.8026	0.1768	0.5441	-0.187
Mof_C 	C 	0.6788	0.1923	0.5379	0.294
Mof_C 	C 	0.6274	0.2624	0.494	0.303
Mof_F 	F 	0.6048	0.13529	0.5712	-0.348
Mof_F 	F 	0.5047	0.27176	0.4881	-0.4
Mof_O 	O 	0.8537	0.07399	0.7372	-0.278
Mof_O 	O 	0.9116	0.06761	0.4844	-0.363
Mof_Ca	Ca	0.5	0.53217	0.25	1.489
Mof_Ca	Ca	4.78471e-18	0.03217	0.25	1.223
Mof_Ca	Ca	0.5	0.46783	0.75	1.482
Mof_Ca	Ca	2.44425e-33	0.96783	0.75	1.217
_end
