data_functionalizedCrystal
_audit_creation_method	'EQeq! by Chris Wilmer'
_symmetry_space_group_name_H-M	'P1'
_symmetry_Int_Tables_number	1
_symmetry_cell_setting	triclinic
loop_
_symmetry_equiv_pos_as_xyz
  x,y,z
_cell_length_a	9.7216
_cell_length_b	10.4273
_cell_length_c	16.4046
_cell_angle_alpha	90
_cell_angle_beta	112.678
_cell_angle_gamma	90
loop_
_atom_site_label
_atom_site_type_symbol
_atom_site_fract_x
_atom_site_fract_y
_atom_site_fract_z
_atom_site_charge
Mof_C 	C 	0.6788	0.0615	0.9676	0.063
Mof_H 	H 	0.6092	0.1184	0.9303	0.029
Mof_C 	C 	0.643	0.9342	0.9679	-0.149
Mof_H 	H 	0.5494	0.9045	0.9312	0.083
Mof_C 	C 	0.7461	0.8517	0.0226	0.104
Mof_H 	H 	0.7228	0.7654	0.0233	0.011
Mof_C 	C 	0.8842	0.8958	0.0767	-0.214
Mof_H 	H 	0.9539	0.8391	0.1142	0.115
Mof_C 	C 	0.9208	0.024	0.076	0.205
Mof_C 	C 	0.0689	0.079	0.1305	-0.418
Mof_H 	H 	0.0949	0.143	0.096	0.18
Mof_H 	H 	0.1432	0.0115	0.1449	0.15
Mof_C 	C 	0.9282	0.969	0.467	0.27
Mof_C 	C 	0.5172	0.9375	0.5266	0.272
Mof_Ho	Ho	0.17796	0.8964	0.39293	1.927
Mof_N 	N 	0.8144	0.1044	0.0214	-0.102
Mof_O 	O 	0.0606	0.0497	0.2924	-0.485
Mof_O 	O 	0.2348	0.2138	0.2719	-0.474
Mof_H 	H 	0.2868	0.1737	0.316	0.296
Mof_O 	O 	0.9582	0.2538	0.20991	-0.497
Mof_O 	O 	0.8473	0.2275	0.0178	-0.312
Mof_O 	O 	0.814	0.9791	0.4842	-0.408
Mof_O 	O 	0.9368	0.9154	0.4017	-0.381
Mof_O 	O 	0.4217	0.8511	0.5033	-0.422
Mof_O 	O 	0.6416	0.9332	0.5901	-0.435
Mof_P 	P 	0.07448	0.15183	0.23178	0.593
Mof_C 	C 	0.3212	0.5615	0.5324	0.076
Mof_H 	H 	0.3908	0.6184	0.5697	0.023
Mof_C 	C 	0.357	0.4342	0.5321	-0.176
Mof_H 	H 	0.4506	0.4045	0.5688	0.091
Mof_C 	C 	0.2539	0.3517	0.4774	0.131
Mof_H 	H 	0.2772	0.2654	0.4767	0.002
Mof_C 	C 	0.1158	0.3958	0.4233	-0.245
Mof_H 	H 	0.0461	0.3391	0.3858	0.126
Mof_C 	C 	0.0792	0.524	0.424	0.233
Mof_C 	C 	0.9311	0.579	0.3695	-0.441
Mof_H 	H 	0.9051	0.643	0.404	0.185
Mof_H 	H 	0.8568	0.5115	0.3551	0.153
Mof_C 	C 	0.0718	0.469	0.033	0.269
Mof_C 	C 	0.4828	0.4375	0.9734	0.272
Mof_Ho	Ho	0.82204	0.3964	0.10707	1.936
Mof_N 	N 	0.1856	0.6044	0.4786	-0.108
Mof_O 	O 	0.9394	0.5497	0.2076	-0.49
Mof_O 	O 	0.7652	0.7138	0.2281	-0.474
Mof_H 	H 	0.7132	0.6737	0.184	0.296
Mof_O 	O 	0.0418	0.7538	0.29009	-0.493
Mof_O 	O 	0.1527	0.7275	0.4822	-0.31
Mof_O 	O 	0.186	0.4791	0.0158	-0.409
Mof_O 	O 	0.0632	0.4154	0.0983	-0.381
Mof_O 	O 	0.5783	0.3511	0.9967	-0.421
Mof_O 	O 	0.3584	0.4332	0.9099	-0.437
Mof_P 	P 	0.92552	0.65183	0.26822	0.593
Mof_C 	C 	0.3212	0.9385	0.0324	0.062
Mof_H 	H 	0.3908	0.8816	0.0697	0.028
Mof_C 	C 	0.357	0.0658	0.0321	-0.15
Mof_H 	H 	0.4506	0.0955	0.0688	0.082
Mof_C 	C 	0.2539	0.1483	0.9774	0.104
Mof_H 	H 	0.2772	0.2346	0.9767	0.011
Mof_C 	C 	0.1158	0.1042	0.9233	-0.214
Mof_H 	H 	0.0461	0.1609	0.8858	0.115
Mof_C 	C 	0.0792	0.976	0.924	0.205
Mof_C 	C 	0.9311	0.921	0.8695	-0.418
Mof_H 	H 	0.9051	0.857	0.904	0.18
Mof_H 	H 	0.8568	0.9885	0.8551	0.15
Mof_C 	C 	0.0718	0.031	0.533	0.27
Mof_C 	C 	0.4828	0.0625	0.4734	0.272
Mof_Ho	Ho	0.82204	0.1036	0.60707	1.927
Mof_N 	N 	0.1856	0.8956	0.9786	-0.102
Mof_O 	O 	0.9394	0.9503	0.7076	-0.485
Mof_O 	O 	0.7652	0.7862	0.7281	-0.474
Mof_H 	H 	0.7132	0.8263	0.684	0.296
Mof_O 	O 	0.0418	0.7462	0.79009	-0.497
Mof_O 	O 	0.1527	0.7725	0.9822	-0.312
Mof_O 	O 	0.186	0.0209	0.5158	-0.408
Mof_O 	O 	0.0632	0.0846	0.5983	-0.381
Mof_O 	O 	0.5783	0.1489	0.4967	-0.422
Mof_O 	O 	0.3584	0.0668	0.4099	-0.435
Mof_P 	P 	0.92552	0.84817	0.76822	0.593
Mof_C 	C 	0.6788	0.4385	0.4676	0.076
Mof_H 	H 	0.6092	0.3816	0.4303	0.023
Mof_C 	C 	0.643	0.5658	0.4679	-0.176
Mof_H 	H 	0.5494	0.5955	0.4312	0.091
Mof_C 	C 	0.7461	0.6483	0.5226	0.131
Mof_H 	H 	0.7228	0.7346	0.5233	0.002
Mof_C 	C 	0.8842	0.6042	0.5767	-0.245
Mof_H 	H 	0.9539	0.6609	0.6142	0.126
Mof_C 	C 	0.9208	0.476	0.576	0.233
Mof_C 	C 	0.0689	0.421	0.6305	-0.441
Mof_H 	H 	0.0949	0.357	0.596	0.185
Mof_H 	H 	0.1432	0.4885	0.6449	0.153
Mof_C 	C 	0.9282	0.531	0.967	0.269
Mof_C 	C 	0.5172	0.5625	0.0266	0.272
Mof_Ho	Ho	0.17796	0.6036	0.89293	1.936
Mof_N 	N 	0.8144	0.3956	0.5214	-0.108
Mof_O 	O 	0.0606	0.4503	0.7924	-0.49
Mof_O 	O 	0.2348	0.2862	0.7719	-0.474
Mof_H 	H 	0.2868	0.3263	0.816	0.296
Mof_O 	O 	0.9582	0.2462	0.70991	-0.493
Mof_O 	O 	0.8473	0.2725	0.5178	-0.31
Mof_O 	O 	0.814	0.5209	0.9842	-0.409
Mof_O 	O 	0.9368	0.5846	0.9017	-0.381
Mof_O 	O 	0.4217	0.6489	0.0033	-0.421
Mof_O 	O 	0.6416	0.5668	0.0901	-0.437
Mof_P 	P 	0.07448	0.34817	0.73178	0.593
_end
