data_functionalizedCrystal
_audit_creation_method	'EQeq! by Chris Wilmer'
_symmetry_space_group_name_H-M	'P1'
_symmetry_Int_Tables_number	1
_symmetry_cell_setting	triclinic
loop_
_symmetry_equiv_pos_as_xyz
  x,y,z
_cell_length_a	14.7716
_cell_length_b	12.426
_cell_length_c	16.6277
_cell_angle_alpha	90
_cell_angle_beta	90
_cell_angle_gamma	90
loop_
_atom_site_label
_atom_site_type_symbol
_atom_site_fract_x
_atom_site_fract_y
_atom_site_fract_z
_atom_site_charge
Mof_Mn	Mn	0.60476	0.48355	0.57927	0.944
Mof_O 	O 	0.59329	0.34818	0.66732	-0.308
Mof_O 	O 	0.67367	0.48897	0.7025	-0.297
Mof_O 	O 	0.70911	0.48089	0.48541	-0.33
Mof_O 	O 	0.69819	0.63237	0.55128	-0.296
Mof_O 	O 	0.49845	0.58148	0.62566	-0.347
Mof_O 	O 	0.52509	0.38039	0.5032	-0.37
Mof_C 	C 	0.63627	0.40077	0.71923	0.303
Mof_C 	C 	0.64164	0.35903	0.80374	-0.071
Mof_C 	C 	0.69506	0.41174	0.86066	0.026
Mof_C 	C 	0.59283	0.26833	0.82635	0.035
Mof_H 	H 	0.7256	0.4744	0.8466	0.062
Mof_C 	C 	0.70289	0.37115	0.9385	-0.079
Mof_H 	H 	0.5575	0.2326	0.7885	0.061
Mof_C 	C 	0.59623	0.23029	0.90516	-0.096
Mof_C 	C 	0.65274	0.28084	0.96068	0.05
Mof_C 	C 	0.76852	0.42228	0.99609	0.316
Mof_C 	C 	0.53783	0.13685	0.92947	0.362
Mof_H 	H 	0.657	0.2542	0.0128	0.041
Mof_Mn	Mn	0.89524	0.51645	0.07927	0.944
Mof_O 	O 	0.90671	0.65182	0.16732	-0.307
Mof_O 	O 	0.82633	0.51103	0.2025	-0.296
Mof_O 	O 	0.79089	0.51911	0.98541	-0.332
Mof_O 	O 	0.80181	0.36763	0.05128	-0.297
Mof_O 	O 	0.00155	0.41852	0.12566	-0.347
Mof_O 	O 	0.97491	0.61961	0.0032	-0.368
Mof_C 	C 	0.86373	0.59923	0.21923	0.302
Mof_C 	C 	0.85836	0.64097	0.30374	-0.068
Mof_C 	C 	0.80494	0.58826	0.36066	0.023
Mof_C 	C 	0.90717	0.73167	0.32635	0.032
Mof_H 	H 	0.7744	0.5256	0.3466	0.063
Mof_C 	C 	0.79711	0.62885	0.4385	-0.075
Mof_H 	H 	0.9425	0.7674	0.2885	0.062
Mof_C 	C 	0.90377	0.76971	0.40516	-0.092
Mof_C 	C 	0.84726	0.71916	0.46068	0.042
Mof_C 	C 	0.73148	0.57772	0.49609	0.312
Mof_C 	C 	0.96217	0.86315	0.42947	0.356
Mof_H 	H 	0.843	0.7458	0.5128	0.046
Mof_Mn	Mn	0.39524	0.98355	0.92073	0.939
Mof_O 	O 	0.40671	0.84818	0.83268	-0.307
Mof_O 	O 	0.32633	0.98897	0.7975	-0.297
Mof_O 	O 	0.29089	0.98089	0.01459	-0.321
Mof_O 	O 	0.30181	0.13237	0.94872	-0.288
Mof_O 	O 	0.50155	0.08148	0.87434	-0.346
Mof_O 	O 	0.47491	0.88039	0.9968	-0.374
Mof_C 	C 	0.36373	0.90077	0.78077	0.302
Mof_C 	C 	0.35836	0.85903	0.69626	-0.069
Mof_C 	C 	0.30494	0.91174	0.63934	0.023
Mof_C 	C 	0.40717	0.76833	0.67365	0.032
Mof_H 	H 	0.2744	0.9744	0.6534	0.063
Mof_C 	C 	0.29711	0.87115	0.5615	-0.075
Mof_H 	H 	0.4425	0.7326	0.7115	0.062
Mof_C 	C 	0.40377	0.73029	0.59484	-0.092
Mof_C 	C 	0.34726	0.78084	0.53932	0.042
Mof_C 	C 	0.23148	0.92228	0.50391	0.312
Mof_C 	C 	0.46217	0.63685	0.57053	0.356
Mof_H 	H 	0.343	0.7542	0.4872	0.046
Mof_Mn	Mn	0.10476	0.01645	0.42073	0.944
Mof_O 	O 	0.09329	0.15182	0.33268	-0.307
Mof_O 	O 	0.17367	0.01103	0.2975	-0.297
Mof_O 	O 	0.20911	0.01911	0.51459	-0.33
Mof_O 	O 	0.19819	0.86763	0.44872	-0.295
Mof_O 	O 	0.99845	0.91852	0.37434	-0.346
Mof_O 	O 	0.02509	0.11961	0.4968	-0.37
Mof_C 	C 	0.13627	0.09923	0.28077	0.301
Mof_C 	C 	0.14164	0.14097	0.19626	-0.066
Mof_C 	C 	0.19506	0.08826	0.13934	0.018
Mof_C 	C 	0.09283	0.23167	0.17365	0.028
Mof_H 	H 	0.2256	0.0256	0.1534	0.064
Mof_C 	C 	0.20289	0.12885	0.0615	-0.068
Mof_H 	H 	0.0575	0.2674	0.2115	0.063
Mof_C 	C 	0.09623	0.26971	0.09484	-0.086
Mof_C 	C 	0.15274	0.21916	0.03932	0.03
Mof_C 	C 	0.26852	0.07772	0.00391	0.298
Mof_C 	C 	0.03783	0.36315	0.07053	0.352
Mof_H 	H 	0.157	0.2458	0.9872	0.052
Mof_Mn	Mn	0.39524	0.51645	0.42073	0.945
Mof_O 	O 	0.40671	0.65182	0.33268	-0.307
Mof_O 	O 	0.32633	0.51103	0.2975	-0.297
Mof_O 	O 	0.29089	0.51911	0.51459	-0.33
Mof_O 	O 	0.30181	0.36763	0.44872	-0.296
Mof_O 	O 	0.50155	0.41852	0.37434	-0.347
Mof_O 	O 	0.47491	0.61961	0.4968	-0.37
Mof_C 	C 	0.36373	0.59923	0.28077	0.303
Mof_C 	C 	0.35836	0.64097	0.19626	-0.071
Mof_C 	C 	0.30494	0.58826	0.13934	0.026
Mof_C 	C 	0.40717	0.73167	0.17365	0.035
Mof_H 	H 	0.2744	0.5256	0.1534	0.062
Mof_C 	C 	0.29711	0.62885	0.0615	-0.079
Mof_H 	H 	0.4425	0.7674	0.2115	0.061
Mof_C 	C 	0.40377	0.76971	0.09484	-0.096
Mof_C 	C 	0.34726	0.71916	0.03932	0.05
Mof_C 	C 	0.23148	0.57772	0.00391	0.316
Mof_C 	C 	0.46217	0.86315	0.07053	0.362
Mof_H 	H 	0.343	0.7458	0.9872	0.041
Mof_Mn	Mn	0.10476	0.48355	0.92073	0.944
Mof_O 	O 	0.09329	0.34818	0.83268	-0.307
Mof_O 	O 	0.17367	0.48897	0.7975	-0.296
Mof_O 	O 	0.20911	0.48089	0.01459	-0.332
Mof_O 	O 	0.19819	0.63237	0.94872	-0.297
Mof_O 	O 	0.99845	0.58148	0.87434	-0.347
Mof_O 	O 	0.02509	0.38039	0.9968	-0.368
Mof_C 	C 	0.13627	0.40077	0.78077	0.302
Mof_C 	C 	0.14164	0.35903	0.69626	-0.068
Mof_C 	C 	0.19506	0.41174	0.63934	0.023
Mof_C 	C 	0.09283	0.26833	0.67365	0.032
Mof_H 	H 	0.2256	0.4744	0.6534	0.063
Mof_C 	C 	0.20289	0.37115	0.5615	-0.075
Mof_H 	H 	0.0575	0.2326	0.7115	0.062
Mof_C 	C 	0.09623	0.23029	0.59484	-0.092
Mof_C 	C 	0.15274	0.28084	0.53932	0.042
Mof_C 	C 	0.26852	0.42228	0.50391	0.312
Mof_C 	C 	0.03783	0.13685	0.57053	0.356
Mof_H 	H 	0.157	0.2542	0.4872	0.046
Mof_Mn	Mn	0.60476	0.01645	0.07927	0.939
Mof_O 	O 	0.59329	0.15182	0.16732	-0.307
Mof_O 	O 	0.67367	0.01103	0.2025	-0.297
Mof_O 	O 	0.70911	0.01911	0.98541	-0.321
Mof_O 	O 	0.69819	0.86763	0.05128	-0.288
Mof_O 	O 	0.49845	0.91852	0.12566	-0.346
Mof_O 	O 	0.52509	0.11961	0.0032	-0.374
Mof_C 	C 	0.63627	0.09923	0.21923	0.302
Mof_C 	C 	0.64164	0.14097	0.30374	-0.069
Mof_C 	C 	0.69506	0.08826	0.36066	0.023
Mof_C 	C 	0.59283	0.23167	0.32635	0.032
Mof_H 	H 	0.7256	0.0256	0.3466	0.063
Mof_C 	C 	0.70289	0.12885	0.4385	-0.075
Mof_H 	H 	0.5575	0.2674	0.2885	0.062
Mof_C 	C 	0.59623	0.26971	0.40516	-0.092
Mof_C 	C 	0.65274	0.21916	0.46068	0.042
Mof_C 	C 	0.76852	0.07772	0.49609	0.312
Mof_C 	C 	0.53783	0.36315	0.42947	0.356
Mof_H 	H 	0.657	0.2458	0.5128	0.046
Mof_Mn	Mn	0.89524	0.98355	0.57927	0.944
Mof_O 	O 	0.90671	0.84818	0.66732	-0.307
Mof_O 	O 	0.82633	0.98897	0.7025	-0.297
Mof_O 	O 	0.79089	0.98089	0.48541	-0.33
Mof_O 	O 	0.80181	0.13237	0.55128	-0.295
Mof_O 	O 	0.00155	0.08148	0.62566	-0.346
Mof_O 	O 	0.97491	0.88039	0.5032	-0.37
Mof_C 	C 	0.86373	0.90077	0.71923	0.301
Mof_C 	C 	0.85836	0.85903	0.80374	-0.066
Mof_C 	C 	0.80494	0.91174	0.86066	0.018
Mof_C 	C 	0.90717	0.76833	0.82635	0.028
Mof_H 	H 	0.7744	0.9744	0.8466	0.064
Mof_C 	C 	0.79711	0.87115	0.9385	-0.068
Mof_H 	H 	0.9425	0.7326	0.7885	0.063
Mof_C 	C 	0.90377	0.73029	0.90516	-0.086
Mof_C 	C 	0.84726	0.78084	0.96068	0.03
Mof_C 	C 	0.73148	0.92228	0.99609	0.298
Mof_C 	C 	0.96217	0.63685	0.92947	0.352
Mof_H 	H 	0.843	0.7542	0.0128	0.052
_end
