data_functionalizedCrystal
_audit_creation_method	'EQeq! by Chris Wilmer'
_symmetry_space_group_name_H-M	'P1'
_symmetry_Int_Tables_number	1
_symmetry_cell_setting	triclinic
loop_
_symmetry_equiv_pos_as_xyz
  x,y,z
_cell_length_a	25.158
_cell_length_b	9.0536
_cell_length_c	10.166
_cell_angle_alpha	90
_cell_angle_beta	90
_cell_angle_gamma	90
loop_
_atom_site_label
_atom_site_type_symbol
_atom_site_fract_x
_atom_site_fract_y
_atom_site_fract_z
_atom_site_charge
Mof_Ga	Ga	0.88335	0.12231	0.31131	4.221
Mof_Ga	Ga	0.76735	0.66977	0.51069	3.771
Mof_P 	P 	0.9947	0.1134	0.1784	0.65
Mof_P 	P 	0.83875	0.04568	0.03839	1.021
Mof_P 	P 	0.80216	0.38883	0.32008	1.012
Mof_O 	O 	0.85653	0.3081	0.3313	-1.202
Mof_O 	O 	0.80756	0.5265	0.4037	-0.94
Mof_O 	O 	0.95175	0.1666	0.2687	-1.216
Mof_O 	O 	0.85135	0.0129	0.1835	-1.25
Mof_O 	O 	0.79283	0.4311	0.1746	-0.969
Mof_O 	O 	0.88729	0.9936	0.958	-1.16
Mof_O 	O 	0.8314	0.2109	0.0207	-1.025
Mof_O 	O 	0.75723	0.2843	0.3624	-1.12
Mof_O 	O 	0.9875	0.1843	0.0416	-0.27
Mof_O 	O 	0.991	0.9437	0.1677	-0.308
Mof_O 	O 	0.79118	0.9609	0.9938	-1.166
Mof_Ga	Ga	0.61665	0.37769	0.81131	4.222
Mof_Ga	Ga	0.73265	0.83023	0.01069	3.645
Mof_P 	P 	0.5053	0.3866	0.6784	0.652
Mof_P 	P 	0.66125	0.45432	0.53839	1.058
Mof_P 	P 	0.69784	0.11117	0.82008	1.001
Mof_O 	O 	0.64347	0.1919	0.8313	-1.199
Mof_O 	O 	0.69244	0.9735	0.9037	-0.906
Mof_O 	O 	0.54825	0.3334	0.7687	-1.214
Mof_O 	O 	0.64865	0.4871	0.6835	-1.253
Mof_O 	O 	0.70717	0.0689	0.6746	-0.979
Mof_O 	O 	0.61271	0.5064	0.458	-1.179
Mof_O 	O 	0.6686	0.2891	0.5207	-1.037
Mof_O 	O 	0.74277	0.2157	0.8624	-1.099
Mof_O 	O 	0.5125	0.3157	0.5416	-0.269
Mof_O 	O 	0.509	0.5563	0.6677	-0.299
Mof_O 	O 	0.70882	0.5391	0.4938	-1.216
Mof_Ga	Ga	0.11665	0.12231	0.18869	4.226
Mof_Ga	Ga	0.23265	0.66977	0.98931	3.678
Mof_P 	P 	0.0053	0.1134	0.3216	0.657
Mof_P 	P 	0.16125	0.04568	0.46161	1.057
Mof_P 	P 	0.19784	0.38883	0.17992	1.006
Mof_O 	O 	0.14347	0.3081	0.1687	-1.198
Mof_O 	O 	0.19244	0.5265	0.0963	-0.914
Mof_O 	O 	0.04825	0.1666	0.2313	-1.212
Mof_O 	O 	0.14865	0.0129	0.3165	-1.254
Mof_O 	O 	0.20717	0.4311	0.3254	-0.978
Mof_O 	O 	0.11271	0.9936	0.542	-1.181
Mof_O 	O 	0.1686	0.2109	0.4793	-1.038
Mof_O 	O 	0.24277	0.2843	0.1376	-1.092
Mof_O 	O 	0.0125	0.1843	0.4584	-0.27
Mof_O 	O 	0.009	0.9437	0.3323	-0.3
Mof_O 	O 	0.20882	0.9609	0.5062	-1.217
Mof_Ga	Ga	0.38335	0.37769	0.68869	4.219
Mof_Ga	Ga	0.26735	0.83023	0.48931	3.77
Mof_P 	P 	0.4947	0.3866	0.8216	0.652
Mof_P 	P 	0.33875	0.45432	0.96161	1.025
Mof_P 	P 	0.30216	0.11117	0.67992	1.01
Mof_O 	O 	0.35653	0.1919	0.6687	-1.202
Mof_O 	O 	0.30756	0.9735	0.5963	-0.939
Mof_O 	O 	0.45175	0.3334	0.7313	-1.214
Mof_O 	O 	0.35135	0.4871	0.8165	-1.25
Mof_O 	O 	0.29283	0.0689	0.8254	-0.967
Mof_O 	O 	0.38729	0.5064	0.042	-1.164
Mof_O 	O 	0.3314	0.2891	0.9793	-1.022
Mof_O 	O 	0.25723	0.2157	0.6376	-1.12
Mof_O 	O 	0.4875	0.3157	0.9584	-0.27
Mof_O 	O 	0.491	0.5563	0.8323	-0.299
Mof_O 	O 	0.29118	0.5391	0.0062	-1.175
Mof_Ga	Ga	0.11665	0.87769	0.68869	4.22
Mof_Ga	Ga	0.23265	0.33023	0.48931	3.77
Mof_P 	P 	0.0053	0.8866	0.8216	0.65
Mof_P 	P 	0.16125	0.95432	0.96161	1.021
Mof_P 	P 	0.19784	0.61117	0.67992	1.012
Mof_O 	O 	0.14347	0.6919	0.6687	-1.202
Mof_O 	O 	0.19244	0.4735	0.5963	-0.94
Mof_O 	O 	0.04825	0.8334	0.7313	-1.216
Mof_O 	O 	0.14865	0.9871	0.8165	-1.25
Mof_O 	O 	0.20717	0.5689	0.8254	-0.969
Mof_O 	O 	0.11271	0.0064	0.042	-1.16
Mof_O 	O 	0.1686	0.7891	0.9793	-1.025
Mof_O 	O 	0.24277	0.7157	0.6376	-1.12
Mof_O 	O 	0.0125	0.8157	0.9584	-0.27
Mof_O 	O 	0.009	0.0563	0.8323	-0.308
Mof_O 	O 	0.20882	0.0391	0.0062	-1.166
Mof_Ga	Ga	0.38335	0.62231	0.18869	4.222
Mof_Ga	Ga	0.26735	0.16977	0.98931	3.645
Mof_P 	P 	0.4947	0.6134	0.3216	0.652
Mof_P 	P 	0.33875	0.54568	0.46161	1.058
Mof_P 	P 	0.30216	0.88883	0.17992	1.001
Mof_O 	O 	0.35653	0.8081	0.1687	-1.199
Mof_O 	O 	0.30756	0.0265	0.0963	-0.906
Mof_O 	O 	0.45175	0.6666	0.2313	-1.214
Mof_O 	O 	0.35135	0.5129	0.3165	-1.253
Mof_O 	O 	0.29283	0.9311	0.3254	-0.979
Mof_O 	O 	0.38729	0.4936	0.542	-1.179
Mof_O 	O 	0.3314	0.7109	0.4793	-1.037
Mof_O 	O 	0.25723	0.7843	0.1376	-1.099
Mof_O 	O 	0.4875	0.6843	0.4584	-0.269
Mof_O 	O 	0.491	0.4437	0.3323	-0.299
Mof_O 	O 	0.29118	0.4609	0.5062	-1.216
Mof_Ga	Ga	0.88335	0.87769	0.81131	4.226
Mof_Ga	Ga	0.76735	0.33023	0.01069	3.678
Mof_P 	P 	0.9947	0.8866	0.6784	0.657
Mof_P 	P 	0.83875	0.95432	0.53839	1.057
Mof_P 	P 	0.80216	0.61117	0.82008	1.006
Mof_O 	O 	0.85653	0.6919	0.8313	-1.198
Mof_O 	O 	0.80756	0.4735	0.9037	-0.914
Mof_O 	O 	0.95175	0.8334	0.7687	-1.212
Mof_O 	O 	0.85135	0.9871	0.6835	-1.254
Mof_O 	O 	0.79283	0.5689	0.6746	-0.978
Mof_O 	O 	0.88729	0.0064	0.458	-1.181
Mof_O 	O 	0.8314	0.7891	0.5207	-1.038
Mof_O 	O 	0.75723	0.7157	0.8624	-1.092
Mof_O 	O 	0.9875	0.8157	0.5416	-0.27
Mof_O 	O 	0.991	0.0563	0.6677	-0.3
Mof_O 	O 	0.79118	0.0391	0.4938	-1.217
Mof_Ga	Ga	0.61665	0.62231	0.31131	4.219
Mof_Ga	Ga	0.73265	0.16977	0.51069	3.77
Mof_P 	P 	0.5053	0.6134	0.1784	0.652
Mof_P 	P 	0.66125	0.54568	0.03839	1.025
Mof_P 	P 	0.69784	0.88883	0.32008	1.01
Mof_O 	O 	0.64347	0.8081	0.3313	-1.202
Mof_O 	O 	0.69244	0.0265	0.4037	-0.939
Mof_O 	O 	0.54825	0.6666	0.2687	-1.214
Mof_O 	O 	0.64865	0.5129	0.1835	-1.25
Mof_O 	O 	0.70717	0.9311	0.1746	-0.967
Mof_O 	O 	0.61271	0.4936	0.958	-1.164
Mof_O 	O 	0.6686	0.7109	0.0207	-1.022
Mof_O 	O 	0.74277	0.7843	0.3624	-1.12
Mof_O 	O 	0.5125	0.6843	0.0416	-0.27
Mof_O 	O 	0.509	0.4437	0.1677	-0.299
Mof_O 	O 	0.70882	0.4609	0.9938	-1.175
_end
