data_functionalizedCrystal
_audit_creation_method	'EQeq! by Chris Wilmer'
_symmetry_space_group_name_H-M	'P1'
_symmetry_Int_Tables_number	1
_symmetry_cell_setting	triclinic
loop_
_symmetry_equiv_pos_as_xyz
  x,y,z
_cell_length_a	9.9199
_cell_length_b	10.4905
_cell_length_c	13.4316
_cell_angle_alpha	105.687
_cell_angle_beta	101.88
_cell_angle_gamma	94.436
loop_
_atom_site_label
_atom_site_type_symbol
_atom_site_fract_x
_atom_site_fract_y
_atom_site_fract_z
_atom_site_charge
Mof_Tb	Tb	0.74376	0.49442	0.4755	2.05
Mof_O 	O 	0.6287	0.6672	0.438	-0.571
Mof_O 	O 	0.4241	0.6205	0.4737	-0.573
Mof_O 	O 	0.0537	0.3557	0.4708	-0.585
Mof_O 	O 	0.8265	0.2895	0.4289	-0.555
Mof_O 	O 	0.8681	0.4767	0.6468	-0.426
Mof_O 	O 	0.7258	0.6285	0.6554	-0.406
Mof_N 	N 	0.5002	0.9839	0.3326	-0.128
Mof_C 	C 	0.5065	0.6864	0.4392	0.52
Mof_C 	C 	0.4517	0.7979	0.4002	-0.186
Mof_C 	C 	0.5415	0.881	0.37	0.098
Mof_H 	H 	0.6355	0.8654	0.3757	0.007
Mof_C 	C 	0.364	0.0073	0.3278	0.021
Mof_H 	H 	0.3328	0.0776	0.301	0.031
Mof_C 	C 	0.2713	0.9306	0.3613	-0.039
Mof_C 	C 	0.3175	0.8249	0.395	0.055
Mof_H 	H 	0.2546	0.7693	0.4153	0.022
Mof_C 	C 	0.1297	0.9633	0.3592	0.008
Mof_C 	C 	0.0179	0.8643	0.3274	-0.04
Mof_H 	H 	0.033	0.7736	0.3058	0.042
Mof_C 	C 	0.8849	0.8925	0.3257	-0.068
Mof_H 	H 	0.8085	0.8226	0.3007	0.043
Mof_C 	C 	0.8645	0.0209	0.3602	0.038
Mof_H 	H 	0.7731	0.0406	0.3626	0.029
Mof_C 	C 	0.9748	0.1256	0.3927	-0.161
Mof_C 	C 	0.1097	0.0952	0.3931	0.009
Mof_H 	H 	0.1866	0.1646	0.4164	0.031
Mof_C 	C 	0.9508	0.2666	0.4343	0.504
Mof_C 	C 	0.8101	0.5661	0.6985	0.278
Mof_C 	C 	0.866	0.611	0.8157	0.381
Mof_C 	C 	0.8357	0.7311	0.8754	0.952
Mof_H 	H 	0.7801	0.7838	0.8411	-0.352
Mof_N 	N 	0.8868	0.7741	0.9852	-0.395
Mof_C 	C 	0.9682	0.697	0.0353	0.548
Mof_H 	H 	0.0032	0.7264	0.1104	-0.154
Mof_C 	C 	0.9986	0.5769	0.9757	-0.743
Mof_C 	C 	0.9475	0.5339	0.8659	-0.245
Mof_H 	H 	0.9682	0.4518	0.8251	-0.011
Mof_C 	C 	0.0843	0.4901	0.0301	0.794
Mof_C 	C 	0.1544	0.4003	0.9707	-0.888
Mof_H 	H 	0.1489	0.3951	0.8982	0.323
Mof_C 	C 	0.2327	0.3182	0.0172	0.864
Mof_H 	H 	0.2806	0.2568	0.9766	-0.251
Mof_C 	C 	0.2408	0.3257	0.1233	-1.177
Mof_H 	H 	0.2942	0.2696	0.1551	0.444
Mof_C 	C 	0.1706	0.4155	0.1828	-0.388
Mof_C 	C 	0.0924	0.4977	0.1362	0.207
Mof_H 	H 	0.0445	0.559	0.1768	0.041
Mof_Tb	Tb	0.25624	0.50558	0.5245	2.051
Mof_O 	O 	0.3713	0.3328	0.562	-0.57
Mof_O 	O 	0.5759	0.3795	0.5263	-0.572
Mof_O 	O 	0.9463	0.6443	0.5292	-0.584
Mof_O 	O 	0.1735	0.7105	0.5711	-0.555
Mof_O 	O 	0.1319	0.5233	0.3532	-0.426
Mof_O 	O 	0.2742	0.3715	0.3446	-0.406
Mof_N 	N 	0.4998	0.0161	0.6674	-0.128
Mof_C 	C 	0.4935	0.3136	0.5608	0.52
Mof_C 	C 	0.5483	0.2021	0.5998	-0.186
Mof_C 	C 	0.4585	0.119	0.63	0.098
Mof_H 	H 	0.3645	0.1346	0.6243	0.007
Mof_C 	C 	0.636	0.9927	0.6722	0.021
Mof_H 	H 	0.6672	0.9224	0.699	0.031
Mof_C 	C 	0.7287	0.0694	0.6387	-0.039
Mof_C 	C 	0.6825	0.1751	0.605	0.055
Mof_H 	H 	0.7454	0.2307	0.5847	0.022
Mof_C 	C 	0.8703	0.0367	0.6408	0.008
Mof_C 	C 	0.9821	0.1357	0.6726	-0.04
Mof_H 	H 	0.967	0.2264	0.6942	0.042
Mof_C 	C 	0.1151	0.1075	0.6743	-0.068
Mof_H 	H 	0.1915	0.1774	0.6993	0.043
Mof_C 	C 	0.1355	0.9791	0.6398	0.038
Mof_H 	H 	0.2269	0.9594	0.6374	0.029
Mof_C 	C 	0.0252	0.8744	0.6073	-0.161
Mof_C 	C 	0.8903	0.9048	0.6069	0.009
Mof_H 	H 	0.8134	0.8354	0.5836	0.031
Mof_C 	C 	0.0492	0.7334	0.5657	0.504
Mof_C 	C 	0.1899	0.4339	0.3015	0.278
Mof_C 	C 	0.134	0.389	0.1843	0.381
Mof_C 	C 	0.1643	0.2689	0.1246	0.952
Mof_H 	H 	0.2199	0.2162	0.1589	-0.352
Mof_N 	N 	0.1132	0.2259	0.0148	-0.395
Mof_C 	C 	0.0318	0.303	0.9647	0.548
Mof_H 	H 	0.9968	0.2736	0.8896	-0.154
Mof_C 	C 	0.0014	0.4231	0.0243	-0.743
Mof_C 	C 	0.0525	0.4661	0.1341	-0.245
Mof_H 	H 	0.0318	0.5482	0.1749	-0.011
Mof_C 	C 	0.9157	0.5099	0.9699	0.794
Mof_C 	C 	0.8456	0.5997	0.0293	-0.888
Mof_H 	H 	0.8511	0.6049	0.1018	0.323
Mof_C 	C 	0.7673	0.6818	0.9828	0.864
Mof_H 	H 	0.7194	0.7432	0.0234	-0.251
Mof_C 	C 	0.7592	0.6743	0.8767	-1.177
Mof_H 	H 	0.7058	0.7304	0.8449	0.444
Mof_C 	C 	0.8294	0.5845	0.8172	-0.388
Mof_C 	C 	0.9076	0.5023	0.8638	0.207
Mof_H 	H 	0.9555	0.441	0.8232	0.041
_end
