data_functionalizedCrystal
_audit_creation_method	'EQeq! by Chris Wilmer'
_symmetry_space_group_name_H-M	'P1'
_symmetry_Int_Tables_number	1
_symmetry_cell_setting	triclinic
loop_
_symmetry_equiv_pos_as_xyz
  x,y,z
_cell_length_a	8.884
_cell_length_b	10.2819
_cell_length_c	10.2819
_cell_angle_alpha	79.0926
_cell_angle_beta	64.4041
_cell_angle_gamma	64.4041
loop_
_atom_site_label
_atom_site_type_symbol
_atom_site_fract_x
_atom_site_fract_y
_atom_site_fract_z
_atom_site_charge
Mof_La	La	0.20595	0.54405	0.04405	1.437
Mof_La	La	0.29405	0.95595	0.45595	1.527
Mof_H 	H 	0.0085	0.3612	0.4046	-0.164
Mof_H 	H 	0.2257	0.9046	0.8612	0
Mof_H 	H 	0.4915	0.5954	0.6388	-0.041
Mof_H 	H 	0.2743	0.1388	0.0954	0.008
Mof_H 	H 	0.75	0.3885	0.6115	0.15
Mof_H 	H 	0.25	0.1115	0.8885	0.003
Mof_C 	C 	0.90329	0.44401	0.41681	0.355
Mof_C 	C 	0.23589	0.91681	0.94401	0.028
Mof_C 	C 	0.59671	0.58319	0.55599	0.192
Mof_C 	C 	0.26411	0.05599	0.08319	-0.011
Mof_C 	C 	0.75	0.77359	0.22641	0.072
Mof_C 	C 	0.75	0.66134	0.33866	0.087
Mof_C 	C 	0.75	0.4595	0.5405	-0.319
Mof_C 	C 	0.25	0.72641	0.27359	0.06
Mof_C 	C 	0.25	0.83866	0.16134	0.033
Mof_C 	C 	0.25	0.0405	0.9595	0.082
Mof_C 	C 	0.563	0.25	0.25	-0.003
Mof_C 	C 	0.3949	0.25	0.25	0.455
Mof_C 	C 	0.937	0.75	0.75	0.096
Mof_C 	C 	0.1051	0.75	0.75	0.355
Mof_N 	N 	0.89594	0.76923	0.11043	-0.168
Mof_N 	N 	0.83719	0.89109	0.03753	-0.067
Mof_N 	N 	0.90493	0.54572	0.31288	-0.224
Mof_N 	N 	0.66197	0.31774	0.1522	-0.087
Mof_N 	N 	0.79802	0.29018	0.19162	-0.052
Mof_N 	N 	0.2244	0.61043	0.26923	-0.198
Mof_N 	N 	0.23419	0.53753	0.39109	-0.067
Mof_N 	N 	0.23647	0.81288	0.04572	-0.24
Mof_N 	N 	0.86809	0.6522	0.81774	-0.063
Mof_N 	N 	0.72018	0.69162	0.79018	-0.043
Mof_N 	N 	0.60406	0.88957	0.23077	-0.198
Mof_N 	N 	0.66281	0.96247	0.10891	-0.082
Mof_N 	N 	0.59507	0.68712	0.45428	-0.227
Mof_N 	N 	0.83803	0.8478	0.68226	-0.088
Mof_N 	N 	0.70198	0.80838	0.70982	-0.062
Mof_N 	N 	0.2756	0.73077	0.38957	-0.197
Mof_N 	N 	0.26581	0.60891	0.46247	-0.063
Mof_N 	N 	0.26353	0.95428	0.18712	-0.228
Mof_N 	N 	0.63191	0.18226	0.3478	-0.068
Mof_N 	N 	0.77982	0.20982	0.30838	-0.036
Mof_O 	O 	0.34141	0.32118	0.1546	-0.508
Mof_O 	O 	0.18281	0.6546	0.82118	-0.452
Mof_O 	O 	0.15859	0.8454	0.67882	-0.504
Mof_O 	O 	0.31719	0.17882	0.3454	-0.48
_end
