data_functionalizedCrystal
_audit_creation_method	'EQeq! by Chris Wilmer'
_symmetry_space_group_name_H-M	'P1'
_symmetry_Int_Tables_number	1
_symmetry_cell_setting	triclinic
loop_
_symmetry_equiv_pos_as_xyz
  x,y,z
_cell_length_a	5.2195
_cell_length_b	10.5691
_cell_length_c	15.3604
_cell_angle_alpha	82.533
_cell_angle_beta	86.657
_cell_angle_gamma	83
loop_
_atom_site_label
_atom_site_type_symbol
_atom_site_fract_x
_atom_site_fract_y
_atom_site_fract_z
_atom_site_charge
Mof_C 	C 	0.9812	0.632	0.48794	0.009
Mof_H 	H 	0.9675	0.7232	0.4796	0.049
Mof_C 	C 	0.0784	0.566	0.56645	-0.079
Mof_C 	C 	0.096	0.4316	0.57842	0.008
Mof_C 	C 	0.1833	0.3541	0.66229	0.086
Mof_C 	C 	0.4071	0.267	0.66344	-0.151
Mof_H 	H 	0.4982	0.2514	0.6098	0.074
Mof_C 	C 	0.4975	0.2031	0.74248	0.07
Mof_H 	H 	0.6535	0.1464	0.7429	0.004
Mof_C 	C 	0.3601	0.222	0.8211	-0.163
Mof_C 	C 	0.1294	0.3034	0.8199	0.104
Mof_H 	H 	0.0303	0.3132	0.873	0.012
Mof_C 	C 	0.0442	0.3704	0.74133	-0.214
Mof_H 	H 	0.8895	0.428	0.7412	0.138
Mof_C 	C 	0.4633	0.1579	0.90725	0.383
Mof_C 	C 	0.1617	0.6409	0.63402	0.102
Mof_C 	C 	0.3923	0.6015	0.67668	-0.135
Mof_H 	H 	0.5058	0.5313	0.659	0.087
Mof_C 	C 	0.4564	0.6642	0.74442	0.065
Mof_H 	H 	0.613	0.6364	0.7734	0.047
Mof_C 	C 	0.2927	0.7679	0.77045	-0.118
Mof_C 	C 	0.0675	0.8118	0.72538	0.03
Mof_H 	H 	0.9583	0.8846	0.7413	0.086
Mof_C 	C 	0.0044	0.7489	0.65753	-0.177
Mof_H 	H 	0.8523	0.7794	0.6265	0.124
Mof_C 	C 	0.3478	0.8298	0.84798	0.438
Mof_O 	O 	0.3032	0.14919	0.97339	-0.358
Mof_O 	O 	0.6985	0.12014	0.91005	-0.37
Mof_O 	O 	0.1879	0.90735	0.87983	-0.354
Mof_O 	O 	0.5764	0.79169	0.87877	-0.475
Mof_H 	H 	0.5963	0.8304	0.9219	0.34
Mof_C 	C 	0.0188	0.368	0.51206	-0.134
Mof_H 	H 	0.0325	0.2768	0.5204	0.051
Mof_C 	C 	0.9216	0.434	0.43355	0.051
Mof_C 	C 	0.904	0.5684	0.42158	-0.03
Mof_C 	C 	0.8167	0.6459	0.33771	0.04
Mof_C 	C 	0.5929	0.733	0.33656	-0.093
Mof_H 	H 	0.5018	0.7486	0.3902	0.07
Mof_C 	C 	0.5025	0.7969	0.25752	0.034
Mof_H 	H 	0.3465	0.8536	0.2571	0.047
Mof_C 	C 	0.6399	0.778	0.1789	-0.099
Mof_C 	C 	0.8706	0.6966	0.1801	0.007
Mof_H 	H 	0.9697	0.6868	0.127	0.049
Mof_C 	C 	0.9558	0.6296	0.25867	-0.014
Mof_H 	H 	0.1105	0.572	0.2588	0.011
Mof_C 	C 	0.5367	0.8421	0.09275	0.388
Mof_C 	C 	0.8383	0.3591	0.36598	0.043
Mof_C 	C 	0.6077	0.3985	0.32332	-0.123
Mof_H 	H 	0.4942	0.4687	0.341	0.071
Mof_C 	C 	0.5436	0.3358	0.25558	0.07
Mof_H 	H 	0.387	0.3636	0.2266	0.017
Mof_C 	C 	0.7073	0.2321	0.22955	-0.178
Mof_C 	C 	0.9325	0.1882	0.27462	0.126
Mof_H 	H 	0.0417	0.1154	0.2587	-0.049
Mof_C 	C 	0.9956	0.2511	0.34247	-0.079
Mof_H 	H 	0.1477	0.2206	0.3735	0.023
Mof_C 	C 	0.6522	0.1702	0.15202	0.439
Mof_O 	O 	0.6968	0.85081	0.02661	-0.407
Mof_O 	O 	0.3015	0.87986	0.08995	-0.385
Mof_O 	O 	0.8121	0.09265	0.12017	-0.448
Mof_O 	O 	0.4236	0.20831	0.12123	-0.505
Mof_H 	H 	0.4037	0.1696	0.0781	0.253
Mof_Ca	Ca	-0	0	-0	1.092
_end
