data_functionalizedCrystal
_audit_creation_method	'EQeq! by Chris Wilmer'
_symmetry_space_group_name_H-M	'P1'
_symmetry_Int_Tables_number	1
_symmetry_cell_setting	triclinic
loop_
_symmetry_equiv_pos_as_xyz
  x,y,z
_cell_length_a	21.498
_cell_length_b	36.91
_cell_length_c	20.059
_cell_angle_alpha	90
_cell_angle_beta	106.852
_cell_angle_gamma	90
loop_
_atom_site_label
_atom_site_type_symbol
_atom_site_fract_x
_atom_site_fract_y
_atom_site_fract_z
_atom_site_charge
Mof_Co	Co	0.35708	0.0384	0.04073	1.125
Mof_Co	Co	0.19038	0.03894	0.92905	1.152
Mof_Co	Co	0.30017	0.06009	0.86095	1.172
Mof_Co	Co	0.30594	0.12278	0.09394	1.177
Mof_Co	Co	0.22177	0.04333	0.09676	1.169
Mof_C 	C 	0.256	0.98839	0.8434	0.384
Mof_C 	C 	0.2574	0.94977	0.8215	-0.142
Mof_C 	C 	0.3065	0.93729	0.7957	0.064
Mof_H 	H 	0.3403	0.9532	0.7924	0.026
Mof_C 	C 	0.3064	0.90113	0.7743	-0.138
Mof_H 	H 	0.3405	0.8924	0.7574	0.084
Mof_C 	C 	0.2571	0.87824	0.7776	0.09
Mof_C 	C 	0.2086	0.89117	0.8038	-0.142
Mof_H 	H 	0.1738	0.8756	0.8052	0.078
Mof_C 	C 	0.2096	0.92562	0.8276	0.072
Mof_H 	H 	0.1774	0.9333	0.8485	0.017
Mof_C 	C 	0.2541	0.84148	0.753	-0.03
Mof_C 	C 	0.25	0.81063	0.7332	-0.035
Mof_C 	C 	0.2429	0.77322	0.7151	0.103
Mof_C 	C 	0.2981	0.75209	0.7216	-0.153
Mof_H 	H 	0.34	0.7627	0.7377	0.085
Mof_C 	C 	0.2917	0.71475	0.7041	0.098
Mof_C 	C 	0.2304	0.69964	0.6829	-0.155
Mof_H 	H 	0.2259	0.6744	0.6734	0.09
Mof_C 	C 	0.1819	0.7574	0.691	-0.154
Mof_H 	H 	0.1443	0.772	0.6853	0.09
Mof_C 	C 	0.3467	0.69319	0.7045	-0.042
Mof_C 	C 	0.3893	0.6737	0.6986	-0.024
Mof_C 	C 	0.4376	0.6488	0.6907	0.074
Mof_C 	C 	0.4203	0.6122	0.6767	-0.123
Mof_H 	H 	0.3796	0.6033	0.6791	0.076
Mof_C 	C 	0.4128	0.11255	0.0327	0.376
Mof_C 	C 	0.4721	0.13568	0.038	-0.147
Mof_C 	C 	0.4682	0.17243	0.0415	0.074
Mof_H 	H 	0.4274	0.1838	0.0361	0.012
Mof_C 	C 	0.5246	0.19333	0.0532	-0.147
Mof_H 	H 	0.5215	0.219	0.0548	0.082
Mof_C 	C 	0.5847	0.17742	0.0623	0.102
Mof_C 	C 	0.5874	0.14093	0.0574	-0.154
Mof_H 	H 	0.6278	0.1293	0.0623	0.087
Mof_C 	C 	0.5306	0.12043	0.045	0.081
Mof_H 	H 	0.5334	0.0948	0.0415	0.017
Mof_C 	C 	0.6422	0.19887	0.077	-0.042
Mof_C 	C 	0.6923	0.21575	0.0949	-0.022
Mof_C 	C 	0.7534	0.23404	0.1203	0.076
Mof_C 	C 	0.7569	0.27115	0.1314	-0.126
Mof_H 	H 	0.7183	0.2853	0.1187	0.08
Mof_C 	C 	0.817	0.28789	0.1613	0.073
Mof_C 	C 	0.8744	0.26834	0.1777	-0.111
Mof_H 	H 	0.9151	0.28	0.1969	0.072
Mof_C 	C 	0.8708	0.23014	0.1647	0.035
Mof_C 	C 	0.8106	0.21376	0.138	-0.112
Mof_H 	H 	0.8083	0.1882	0.1317	0.073
Mof_C 	C 	0.8184	0.32599	0.177	-0.009
Mof_C 	C 	0.8199	0.35608	0.1998	-0.064
Mof_C 	C 	0.8191	0.3899	0.2329	0.148
Mof_C 	C 	0.9293	0.21007	0.1768	0.058
Mof_C 	C 	0.9782	0.19269	0.1816	-0.195
Mof_C 	C 	0.2563	0.98015	0.0272	0.404
Mof_C 	C 	0.2368	0.94136	0.0223	-0.172
Mof_C 	C 	0.2838	0.91516	0.0338	0.095
Mof_H 	H 	0.328	0.9221	0.0424	0.009
Mof_C 	C 	0.2683	0.8796	0.0331	-0.16
Mof_H 	H 	0.3021	0.8621	0.0443	0.088
Mof_C 	C 	0.2043	0.86806	0.0165	0.097
Mof_C 	C 	0.1556	0.89468	0.0033	-0.151
Mof_H 	H 	0.1112	0.8879	0.9921	0.08
Mof_C 	C 	0.1728	0.93096	0.0065	0.087
Mof_H 	H 	0.1397	0.9489	0.9978	0.008
Mof_C 	C 	0.1887	0.83012	0.015	-0.038
Mof_C 	C 	0.1829	0.79835	0.0146	-0.025
Mof_C 	C 	0.1798	0.75965	0.0166	0.093
Mof_C 	C 	0.2363	0.73942	0.0454	-0.146
Mof_H 	H 	0.2764	0.7516	0.0649	0.089
Mof_C 	C 	0.2346	0.70206	0.0459	0.097
Mof_C 	C 	0.1759	0.68386	0.0132	-0.146
Mof_H 	H 	0.1749	0.6581	0.0114	0.087
Mof_C 	C 	0.1192	0.70377	0.9832	0.095
Mof_C 	C 	0.1199	0.74073	0.9848	-0.145
Mof_H 	H 	0.081	0.754	0.9649	0.086
Mof_C 	C 	0.8287	0.58787	0.6978	0.397
Mof_C 	C 	0.8773	0.60962	0.7528	-0.138
Mof_C 	C 	0.9356	0.61946	0.7422	0.069
Mof_H 	H 	0.944	0.6128	0.6999	0.021
Mof_C 	C 	0.9809	0.63833	0.7905	-0.14
Mof_H 	H 	0.021	0.6444	0.7822	0.078
Mof_C 	C 	0.9694	0.6488	0.8515	0.087
Mof_C 	C 	0.9105	0.6401	0.8632	-0.131
Mof_H 	H 	0.9017	0.6479	0.9047	0.079
Mof_C 	C 	0.8642	0.6197	0.814	0.061
Mof_H 	H 	0.8244	0.613	0.8224	0.027
Mof_C 	C 	0.0194	0.66878	0.9041	-0.03
Mof_C 	C 	0.0606	0.68485	0.9418	-0.032
Mof_C 	C 	0.8291	0.60791	0.5053	0.408
Mof_C 	C 	0.89	0.62852	0.5402	-0.166
Mof_C 	C 	0.9502	0.61173	0.5519	0.085
Mof_H 	H 	0.9528	0.587	0.54	0.004
Mof_C 	C 	0.0051	0.63111	0.5803	-0.154
Mof_H 	H 	0.046	0.6193	0.589	0.083
Mof_C 	C 	0.004	0.66783	0.5974	0.097
Mof_C 	C 	0.9444	0.68392	0.5867	-0.153
Mof_H 	H 	0.9416	0.7086	0.5992	0.084
Mof_C 	C 	0.8885	0.6641	0.5576	0.09
Mof_H 	H 	0.8475	0.6757	0.5495	0.013
Mof_C 	C 	0.0621	0.68834	0.6263	-0.035
Mof_C 	C 	0.1124	0.70429	0.6497	-0.033
Mof_C 	C 	0.1747	0.72097	0.6752	0.103
Mof_C 	C 	0.5827	0.60825	0.2798	0.366
Mof_C 	C 	0.5168	0.62193	0.2335	-0.125
Mof_C 	C 	0.485	0.6474	0.2585	0.061
Mof_H 	H 	0.5028	0.6562	0.3046	0.024
Mof_C 	C 	0.4253	0.6611	0.2168	-0.142
Mof_H 	H 	0.4029	0.6786	0.2358	0.08
Mof_C 	C 	0.3996	0.65015	0.1521	0.092
Mof_C 	C 	0.3396	0.66651	0.1092	-0.03
Mof_C 	C 	0.2912	0.68198	0.0785	-0.033
Mof_C 	C 	0.8025	0.4891	0.3362	0.277
Mof_C 	C 	0.8083	0.4543	0.2996	-0.131
Mof_C 	C 	0.8652	0.4397	0.3024	0.095
Mof_H 	H 	0.9034	0.4512	0.3306	0.012
Mof_C 	C 	0.872	0.4094	0.2672	-0.183
Mof_H 	H 	0.914	0.4017	0.2665	0.092
Mof_C 	C 	0.7659	0.4015	0.2375	-0.183
Mof_H 	H 	0.7289	0.3863	0.2215	0.095
Mof_C 	C 	0.757	0.4365	0.2654	0.084
Mof_H 	H 	0.7147	0.4462	0.259	0.021
Mof_C 	C 	0.0343	0.1721	0.183	0.447
Mof_C 	C 	0.0904	0.1855	0.1985	-0.472
Mof_H 	H 	0.0961	0.2099	0.2146	0.188
Mof_C 	C 	0.148	0.1652	0.1931	0.422
Mof_H 	H 	0.1883	0.1775	0.2004	-0.093
Mof_C 	C 	0.086	0.1201	0.1593	0.405
Mof_H 	H 	0.0801	0.0964	0.1399	-0.088
Mof_C 	C 	0.031	0.1392	0.1649	-0.487
Mof_H 	H 	0.9903	0.1271	0.1548	0.192
Mof_C 	C 	0.4964	0.6621	0.6836	-0.124
Mof_H 	H 	0.507	0.6871	0.6893	0.076
Mof_C 	C 	0.4651	0.5893	0.659	0.052
Mof_H 	H 	0.4542	0.5647	0.6481	0.024
Mof_C 	C 	0.4881	0.6083	0.1689	0.06
Mof_H 	H 	0.5087	0.5891	0.1518	0.028
Mof_C 	C 	0.4296	0.6219	0.1273	-0.135
Mof_H 	H 	0.4101	0.6121	0.0823	0.081
Mof_C 	C 	0.5722	0.5761	0.6361	0.394
Mof_C 	C 	0.5244	0.6022	0.6572	-0.122
Mof_C 	C 	0.5389	0.6372	0.6676	0.058
Mof_H 	H 	0.5796	0.6456	0.664	0.031
Mof_C 	C 	0.2006	0.1128	0.1702	0.537
Mof_C 	C 	0.1446	0.1334	0.1796	-0.489
Mof_O 	O 	0.28454	0.05965	0.9528	-0.62
Mof_O 	O 	0.3053	0.06599	0.1003	-0.59
Mof_O 	O 	0.3142	0.98828	0.0412	-0.491
Mof_O 	O 	0.42239	0.07898	0.0404	-0.459
Mof_O 	O 	0.2103	0.00421	0.014	-0.557
Mof_O 	O 	0.8331	0.5743	0.497	-0.542
Mof_O 	O 	0.2128	0.99779	0.8702	-0.473
Mof_O 	O 	0.84447	0.57686	0.6479	-0.47
Mof_O 	O 	0.299	0.00921	0.832	-0.462
Mof_O 	O 	0.6269	0.58782	0.6489	-0.469
Mof_O 	O 	0.7727	0.58319	0.7082	-0.449
Mof_O 	O 	0.6083	0.62659	0.3307	-0.436
Mof_O 	O 	0.2478	0.12994	0.1619	-0.461
Mof_O 	O 	0.777	0.62568	0.4884	-0.449
Mof_O 	O 	0.35759	0.12752	0.02	-0.422
Mof_O 	O 	0.8521	0.50472	0.3774	-0.325
Mof_O 	O 	0.1946	0.07946	0.1649	-0.449
Mof_O 	O 	0.7437	0.50339	0.3235	-0.346
Mof_O 	O 	0.606	0.58041	0.2583	-0.268
Mof_O 	O 	0.5513	0.5464	0.6124	-0.328
Mof_Co	Co	0.64292	0.5384	0.45927	1.124
Mof_Co	Co	0.80962	0.53894	0.57095	1.152
Mof_Co	Co	0.69983	0.56009	0.63905	1.172
Mof_Co	Co	0.69406	0.62278	0.40606	1.177
Mof_Co	Co	0.77823	0.54333	0.40324	1.169
Mof_C 	C 	0.744	0.48839	0.6566	0.384
Mof_C 	C 	0.7426	0.44977	0.6785	-0.141
Mof_C 	C 	0.6935	0.43729	0.7043	0.064
Mof_H 	H 	0.6597	0.4532	0.7076	0.026
Mof_C 	C 	0.6936	0.40113	0.7257	-0.138
Mof_H 	H 	0.6595	0.3924	0.7426	0.084
Mof_C 	C 	0.7429	0.37824	0.7224	0.09
Mof_C 	C 	0.7914	0.39117	0.6962	-0.142
Mof_H 	H 	0.8262	0.3756	0.6948	0.078
Mof_C 	C 	0.7904	0.42562	0.6724	0.072
Mof_H 	H 	0.8226	0.4333	0.6515	0.017
Mof_C 	C 	0.7459	0.34148	0.747	-0.029
Mof_C 	C 	0.75	0.31063	0.7668	-0.035
Mof_C 	C 	0.7571	0.27322	0.7849	0.104
Mof_C 	C 	0.7019	0.25209	0.7784	-0.153
Mof_H 	H 	0.66	0.2627	0.7623	0.085
Mof_C 	C 	0.7083	0.21475	0.7959	0.098
Mof_C 	C 	0.7696	0.19964	0.8171	-0.155
Mof_H 	H 	0.7741	0.1744	0.8266	0.09
Mof_C 	C 	0.8181	0.2574	0.809	-0.154
Mof_H 	H 	0.8557	0.272	0.8147	0.09
Mof_C 	C 	0.6533	0.19319	0.7955	-0.042
Mof_C 	C 	0.6107	0.1737	0.8014	-0.024
Mof_C 	C 	0.5624	0.1488	0.8093	0.074
Mof_C 	C 	0.5797	0.1122	0.8233	-0.123
Mof_H 	H 	0.6204	0.1033	0.8209	0.076
Mof_C 	C 	0.5872	0.61255	0.4673	0.376
Mof_C 	C 	0.5279	0.63568	0.462	-0.147
Mof_C 	C 	0.5318	0.67243	0.4585	0.074
Mof_H 	H 	0.5726	0.6838	0.4639	0.012
Mof_C 	C 	0.4754	0.69333	0.4468	-0.147
Mof_H 	H 	0.4785	0.719	0.4452	0.082
Mof_C 	C 	0.4153	0.67742	0.4377	0.102
Mof_C 	C 	0.4126	0.64093	0.4426	-0.154
Mof_H 	H 	0.3722	0.6293	0.4377	0.087
Mof_C 	C 	0.4694	0.62043	0.455	0.081
Mof_H 	H 	0.4666	0.5948	0.4585	0.017
Mof_C 	C 	0.3578	0.69887	0.423	-0.042
Mof_C 	C 	0.3077	0.71575	0.4051	-0.022
Mof_C 	C 	0.2466	0.73404	0.3797	0.077
Mof_C 	C 	0.2431	0.77115	0.3686	-0.127
Mof_H 	H 	0.2817	0.7853	0.3813	0.08
Mof_C 	C 	0.183	0.78789	0.3387	0.073
Mof_C 	C 	0.1256	0.76834	0.3223	-0.111
Mof_H 	H 	0.0849	0.78	0.3031	0.073
Mof_C 	C 	0.1292	0.73014	0.3353	0.035
Mof_C 	C 	0.1894	0.71376	0.362	-0.113
Mof_H 	H 	0.1917	0.6882	0.3683	0.073
Mof_C 	C 	0.1816	0.82599	0.323	-0.009
Mof_C 	C 	0.1801	0.85608	0.3002	-0.064
Mof_C 	C 	0.1809	0.8899	0.2671	0.148
Mof_C 	C 	0.0707	0.71007	0.3232	0.058
Mof_C 	C 	0.0218	0.69269	0.3184	-0.194
Mof_C 	C 	0.7437	0.48015	0.4728	0.404
Mof_C 	C 	0.7632	0.44136	0.4777	-0.172
Mof_C 	C 	0.7162	0.41516	0.4662	0.095
Mof_H 	H 	0.672	0.4221	0.4576	0.009
Mof_C 	C 	0.7317	0.3796	0.4669	-0.161
Mof_H 	H 	0.6979	0.3621	0.4557	0.088
Mof_C 	C 	0.7957	0.36806	0.4835	0.098
Mof_C 	C 	0.8444	0.39468	0.4967	-0.152
Mof_H 	H 	0.8888	0.3879	0.5079	0.081
Mof_C 	C 	0.8272	0.43096	0.4935	0.087
Mof_H 	H 	0.8603	0.4489	0.5022	0.009
Mof_C 	C 	0.8113	0.33012	0.485	-0.039
Mof_C 	C 	0.8171	0.29835	0.4854	-0.025
Mof_C 	C 	0.8202	0.25965	0.4834	0.092
Mof_C 	C 	0.7637	0.23942	0.4546	-0.146
Mof_H 	H 	0.7236	0.2516	0.4351	0.089
Mof_C 	C 	0.7654	0.20206	0.4541	0.097
Mof_C 	C 	0.8241	0.18386	0.4868	-0.148
Mof_H 	H 	0.8251	0.1581	0.4886	0.088
Mof_C 	C 	0.8808	0.20377	0.5168	0.096
Mof_C 	C 	0.8801	0.24073	0.5152	-0.145
Mof_H 	H 	0.919	0.254	0.5351	0.087
Mof_C 	C 	0.1713	0.08787	0.8022	0.397
Mof_C 	C 	0.1227	0.10962	0.7472	-0.138
Mof_C 	C 	0.0644	0.11946	0.7578	0.071
Mof_H 	H 	0.056	0.1128	0.8001	0.02
Mof_C 	C 	0.0191	0.13833	0.7095	-0.143
Mof_H 	H 	0.979	0.1444	0.7178	0.08
Mof_C 	C 	0.0306	0.1488	0.6485	0.086
Mof_C 	C 	0.0895	0.1401	0.6368	-0.131
Mof_H 	H 	0.0983	0.1479	0.5953	0.079
Mof_C 	C 	0.1358	0.1197	0.686	0.061
Mof_H 	H 	0.1756	0.113	0.6776	0.027
Mof_C 	C 	0.9806	0.16878	0.5959	-0.029
Mof_C 	C 	0.9394	0.18485	0.5582	-0.033
Mof_C 	C 	0.1709	0.10791	0.9947	0.404
Mof_C 	C 	0.11	0.12852	0.9598	-0.165
Mof_C 	C 	0.0498	0.11173	0.9481	0.082
Mof_H 	H 	0.0472	0.087	0.96	0.004
Mof_C 	C 	0.9949	0.13111	0.9197	-0.151
Mof_H 	H 	0.954	0.1193	0.911	0.082
Mof_C 	C 	0.996	0.16783	0.9026	0.098
Mof_C 	C 	0.0556	0.18392	0.9133	-0.155
Mof_H 	H 	0.0584	0.2086	0.9008	0.084
Mof_C 	C 	0.1115	0.1641	0.9424	0.089
Mof_H 	H 	0.1525	0.1757	0.9505	0.013
Mof_C 	C 	0.9379	0.18834	0.8737	-0.035
Mof_C 	C 	0.8876	0.20429	0.8503	-0.032
Mof_C 	C 	0.8253	0.22097	0.8248	0.103
Mof_C 	C 	0.4173	0.10825	0.2202	0.366
Mof_C 	C 	0.4832	0.12193	0.2665	-0.125
Mof_C 	C 	0.515	0.1474	0.2415	0.061
Mof_H 	H 	0.4972	0.1562	0.1954	0.024
Mof_C 	C 	0.5747	0.1611	0.2832	-0.142
Mof_H 	H 	0.5971	0.1786	0.2642	0.08
Mof_C 	C 	0.6004	0.15015	0.3479	0.092
Mof_C 	C 	0.6604	0.16651	0.3908	-0.03
Mof_C 	C 	0.7088	0.18198	0.4215	-0.034
Mof_C 	C 	0.1975	0.9891	0.1638	0.276
Mof_C 	C 	0.1917	0.9543	0.2004	-0.13
Mof_C 	C 	0.1348	0.9397	0.1976	0.094
Mof_H 	H 	0.0966	0.9512	0.1694	0.012
Mof_C 	C 	0.128	0.9094	0.2328	-0.182
Mof_H 	H 	0.086	0.9017	0.2335	0.092
Mof_C 	C 	0.2341	0.9015	0.2625	-0.183
Mof_H 	H 	0.2711	0.8863	0.2785	0.095
Mof_C 	C 	0.243	0.9365	0.2346	0.084
Mof_H 	H 	0.2853	0.9462	0.241	0.021
Mof_C 	C 	0.9657	0.6721	0.317	0.448
Mof_C 	C 	0.9096	0.6855	0.3015	-0.472
Mof_H 	H 	0.9039	0.7099	0.2854	0.188
Mof_C 	C 	0.852	0.6652	0.3069	0.423
Mof_H 	H 	0.8117	0.6775	0.2996	-0.094
Mof_C 	C 	0.914	0.6201	0.3407	0.408
Mof_H 	H 	0.9199	0.5964	0.3601	-0.089
Mof_C 	C 	0.969	0.6392	0.3351	-0.491
Mof_H 	H 	0.0097	0.6271	0.3452	0.195
Mof_C 	C 	0.5036	0.1621	0.8164	-0.124
Mof_H 	H 	0.493	0.1871	0.8107	0.076
Mof_C 	C 	0.5349	0.0893	0.841	0.052
Mof_H 	H 	0.5458	0.0647	0.8519	0.024
Mof_C 	C 	0.5119	0.1083	0.3311	0.06
Mof_H 	H 	0.4913	0.0891	0.3482	0.028
Mof_C 	C 	0.5704	0.1219	0.3727	-0.135
Mof_H 	H 	0.5899	0.1121	0.4177	0.081
Mof_C 	C 	0.4278	0.0761	0.8639	0.394
Mof_C 	C 	0.4756	0.1022	0.8428	-0.123
Mof_C 	C 	0.4611	0.1372	0.8324	0.058
Mof_H 	H 	0.4204	0.1456	0.836	0.03
Mof_C 	C 	0.7994	0.6128	0.3298	0.538
Mof_C 	C 	0.8554	0.6334	0.3204	-0.491
Mof_O 	O 	0.71546	0.55965	0.5472	-0.62
Mof_O 	O 	0.6947	0.56599	0.3997	-0.59
Mof_O 	O 	0.6858	0.48828	0.4588	-0.491
Mof_O 	O 	0.57761	0.57898	0.4596	-0.459
Mof_O 	O 	0.7897	0.50421	0.486	-0.558
Mof_O 	O 	0.1669	0.0743	0.003	-0.54
Mof_O 	O 	0.7872	0.49779	0.6298	-0.472
Mof_O 	O 	0.15553	0.07686	0.8521	-0.471
Mof_O 	O 	0.701	0.50921	0.668	-0.462
Mof_O 	O 	0.3731	0.08782	0.8511	-0.469
Mof_O 	O 	0.2273	0.08319	0.7918	-0.449
Mof_O 	O 	0.3917	0.12659	0.1693	-0.436
Mof_O 	O 	0.7522	0.62994	0.3381	-0.462
Mof_O 	O 	0.223	0.12568	0.0116	-0.447
Mof_O 	O 	0.64241	0.62752	0.48	-0.422
Mof_O 	O 	0.1479	0.00472	0.1226	-0.325
Mof_O 	O 	0.8054	0.57946	0.3351	-0.449
Mof_O 	O 	0.2563	0.00339	0.1765	-0.346
Mof_O 	O 	0.394	0.08041	0.2417	-0.268
Mof_O 	O 	0.4487	0.0464	0.8876	-0.329
Mof_Co	Co	0.64292	0.9616	0.95927	1.124
Mof_Co	Co	0.80962	0.96107	0.07095	1.152
Mof_Co	Co	0.69983	0.93991	0.13905	1.172
Mof_Co	Co	0.69406	0.87722	0.90606	1.177
Mof_Co	Co	0.77823	0.95667	0.90324	1.169
Mof_C 	C 	0.744	0.01161	0.1566	0.384
Mof_C 	C 	0.7426	0.05023	0.1785	-0.142
Mof_C 	C 	0.6935	0.06271	0.2043	0.064
Mof_H 	H 	0.6597	0.0468	0.2076	0.026
Mof_C 	C 	0.6936	0.09887	0.2257	-0.138
Mof_H 	H 	0.6595	0.1076	0.2426	0.084
Mof_C 	C 	0.7429	0.12176	0.2224	0.09
Mof_C 	C 	0.7914	0.10883	0.1962	-0.142
Mof_H 	H 	0.8262	0.1244	0.1948	0.078
Mof_C 	C 	0.7904	0.07438	0.1724	0.072
Mof_H 	H 	0.8226	0.0667	0.1515	0.017
Mof_C 	C 	0.7459	0.15852	0.247	-0.03
Mof_C 	C 	0.75	0.18937	0.2668	-0.035
Mof_C 	C 	0.7571	0.22678	0.2849	0.103
Mof_C 	C 	0.7019	0.24791	0.2784	-0.153
Mof_H 	H 	0.66	0.2373	0.2623	0.085
Mof_C 	C 	0.7083	0.28525	0.2959	0.098
Mof_C 	C 	0.7696	0.30036	0.3171	-0.155
Mof_H 	H 	0.7741	0.3256	0.3266	0.09
Mof_C 	C 	0.8181	0.2426	0.309	-0.154
Mof_H 	H 	0.8557	0.228	0.3147	0.09
Mof_C 	C 	0.6533	0.30681	0.2955	-0.042
Mof_C 	C 	0.6107	0.3263	0.3014	-0.024
Mof_C 	C 	0.5624	0.3512	0.3093	0.074
Mof_C 	C 	0.5797	0.3878	0.3233	-0.123
Mof_H 	H 	0.6204	0.3967	0.3209	0.076
Mof_C 	C 	0.5872	0.88745	0.9673	0.376
Mof_C 	C 	0.5279	0.86432	0.962	-0.147
Mof_C 	C 	0.5318	0.82757	0.9585	0.074
Mof_H 	H 	0.5726	0.8162	0.9639	0.012
Mof_C 	C 	0.4754	0.80667	0.9468	-0.147
Mof_H 	H 	0.4785	0.781	0.9452	0.082
Mof_C 	C 	0.4153	0.82258	0.9377	0.102
Mof_C 	C 	0.4126	0.85907	0.9426	-0.154
Mof_H 	H 	0.3722	0.8707	0.9377	0.087
Mof_C 	C 	0.4694	0.87957	0.955	0.081
Mof_H 	H 	0.4666	0.9052	0.9585	0.017
Mof_C 	C 	0.3578	0.80113	0.923	-0.042
Mof_C 	C 	0.3077	0.78425	0.9051	-0.022
Mof_C 	C 	0.2466	0.76596	0.8797	0.076
Mof_C 	C 	0.2431	0.72885	0.8686	-0.126
Mof_H 	H 	0.2817	0.7147	0.8813	0.08
Mof_C 	C 	0.183	0.71211	0.8387	0.073
Mof_C 	C 	0.1256	0.73166	0.8223	-0.111
Mof_H 	H 	0.0849	0.72	0.8031	0.072
Mof_C 	C 	0.1292	0.76986	0.8353	0.035
Mof_C 	C 	0.1894	0.78624	0.862	-0.112
Mof_H 	H 	0.1917	0.8118	0.8683	0.073
Mof_C 	C 	0.1816	0.67401	0.823	-0.009
Mof_C 	C 	0.1801	0.64392	0.8002	-0.064
Mof_C 	C 	0.1809	0.6101	0.7671	0.148
Mof_C 	C 	0.0707	0.78993	0.8232	0.058
Mof_C 	C 	0.0218	0.80731	0.8184	-0.195
Mof_C 	C 	0.7437	0.01985	0.9728	0.404
Mof_C 	C 	0.7632	0.05864	0.9777	-0.172
Mof_C 	C 	0.7162	0.08484	0.9662	0.095
Mof_H 	H 	0.672	0.0779	0.9576	0.009
Mof_C 	C 	0.7317	0.1204	0.9669	-0.16
Mof_H 	H 	0.6979	0.1379	0.9557	0.088
Mof_C 	C 	0.7957	0.13194	0.9835	0.097
Mof_C 	C 	0.8444	0.10532	0.9967	-0.151
Mof_H 	H 	0.8888	0.1121	0.0079	0.08
Mof_C 	C 	0.8272	0.06904	0.9935	0.087
Mof_H 	H 	0.8603	0.0511	0.0022	0.008
Mof_C 	C 	0.8113	0.16988	0.985	-0.038
Mof_C 	C 	0.8171	0.20165	0.9854	-0.025
Mof_C 	C 	0.8202	0.24035	0.9834	0.093
Mof_C 	C 	0.7637	0.26058	0.9546	-0.146
Mof_H 	H 	0.7236	0.2484	0.9351	0.089
Mof_C 	C 	0.7654	0.29794	0.9541	0.097
Mof_C 	C 	0.8241	0.31614	0.9868	-0.146
Mof_H 	H 	0.8251	0.3419	0.9886	0.087
Mof_C 	C 	0.8808	0.29623	0.0168	0.095
Mof_C 	C 	0.8801	0.25927	0.0152	-0.145
Mof_H 	H 	0.919	0.246	0.0351	0.086
Mof_C 	C 	0.1713	0.41213	0.3022	0.397
Mof_C 	C 	0.1227	0.39038	0.2472	-0.138
Mof_C 	C 	0.0644	0.38054	0.2578	0.069
Mof_H 	H 	0.056	0.3872	0.3001	0.021
Mof_C 	C 	0.0191	0.36167	0.2095	-0.14
Mof_H 	H 	0.979	0.3556	0.2178	0.078
Mof_C 	C 	0.0306	0.3512	0.1485	0.087
Mof_C 	C 	0.0895	0.3599	0.1368	-0.131
Mof_H 	H 	0.0983	0.3521	0.0953	0.079
Mof_C 	C 	0.1358	0.3803	0.186	0.061
Mof_H 	H 	0.1756	0.387	0.1776	0.027
Mof_C 	C 	0.9806	0.33122	0.0959	-0.03
Mof_C 	C 	0.9394	0.31515	0.0582	-0.032
Mof_C 	C 	0.1709	0.39209	0.4947	0.408
Mof_C 	C 	0.11	0.37148	0.4598	-0.166
Mof_C 	C 	0.0498	0.38827	0.4481	0.085
Mof_H 	H 	0.0472	0.413	0.46	0.004
Mof_C 	C 	0.9949	0.36889	0.4197	-0.154
Mof_H 	H 	0.954	0.3807	0.411	0.083
Mof_C 	C 	0.996	0.33217	0.4026	0.097
Mof_C 	C 	0.0556	0.31608	0.4133	-0.153
Mof_H 	H 	0.0584	0.2914	0.4008	0.084
Mof_C 	C 	0.1115	0.3359	0.4424	0.09
Mof_H 	H 	0.1525	0.3243	0.4505	0.013
Mof_C 	C 	0.9379	0.31166	0.3737	-0.035
Mof_C 	C 	0.8876	0.29571	0.3503	-0.033
Mof_C 	C 	0.8253	0.27903	0.3248	0.103
Mof_C 	C 	0.4173	0.39175	0.7202	0.366
Mof_C 	C 	0.4832	0.37807	0.7665	-0.125
Mof_C 	C 	0.515	0.3526	0.7415	0.061
Mof_H 	H 	0.4972	0.3438	0.6954	0.024
Mof_C 	C 	0.5747	0.3389	0.7832	-0.142
Mof_H 	H 	0.5971	0.3214	0.7642	0.08
Mof_C 	C 	0.6004	0.34985	0.8479	0.092
Mof_C 	C 	0.6604	0.33349	0.8908	-0.03
Mof_C 	C 	0.7088	0.31802	0.9215	-0.033
Mof_C 	C 	0.1975	0.5109	0.6638	0.277
Mof_C 	C 	0.1917	0.5457	0.7004	-0.131
Mof_C 	C 	0.1348	0.5603	0.6976	0.095
Mof_H 	H 	0.0966	0.5488	0.6694	0.012
Mof_C 	C 	0.128	0.5906	0.7328	-0.183
Mof_H 	H 	0.086	0.5983	0.7335	0.092
Mof_C 	C 	0.2341	0.5985	0.7625	-0.183
Mof_H 	H 	0.2711	0.6137	0.7785	0.095
Mof_C 	C 	0.243	0.5635	0.7346	0.084
Mof_H 	H 	0.2853	0.5538	0.741	0.021
Mof_C 	C 	0.9657	0.8279	0.817	0.447
Mof_C 	C 	0.9096	0.8145	0.8015	-0.472
Mof_H 	H 	0.9039	0.7901	0.7854	0.188
Mof_C 	C 	0.852	0.8348	0.8069	0.422
Mof_H 	H 	0.8117	0.8225	0.7996	-0.093
Mof_C 	C 	0.914	0.8799	0.8407	0.405
Mof_H 	H 	0.9199	0.9036	0.8601	-0.088
Mof_C 	C 	0.969	0.8608	0.8351	-0.487
Mof_H 	H 	0.0097	0.8729	0.8452	0.192
Mof_C 	C 	0.5036	0.3379	0.3164	-0.124
Mof_H 	H 	0.493	0.3129	0.3107	0.076
Mof_C 	C 	0.5349	0.4107	0.341	0.052
Mof_H 	H 	0.5458	0.4353	0.3519	0.024
Mof_C 	C 	0.5119	0.3917	0.8311	0.06
Mof_H 	H 	0.4913	0.4109	0.8482	0.028
Mof_C 	C 	0.5704	0.3781	0.8727	-0.135
Mof_H 	H 	0.5899	0.3879	0.9177	0.081
Mof_C 	C 	0.4278	0.4239	0.3639	0.394
Mof_C 	C 	0.4756	0.3978	0.3428	-0.122
Mof_C 	C 	0.4611	0.3628	0.3324	0.058
Mof_H 	H 	0.4204	0.3544	0.336	0.031
Mof_C 	C 	0.7994	0.8872	0.8298	0.537
Mof_C 	C 	0.8554	0.8666	0.8204	-0.489
Mof_O 	O 	0.71546	0.94035	0.0472	-0.62
Mof_O 	O 	0.6947	0.93401	0.8997	-0.59
Mof_O 	O 	0.6858	0.01172	0.9588	-0.491
Mof_O 	O 	0.57761	0.92102	0.9596	-0.459
Mof_O 	O 	0.7897	0.99579	0.986	-0.557
Mof_O 	O 	0.1669	0.4257	0.503	-0.542
Mof_O 	O 	0.7872	0.00221	0.1298	-0.473
Mof_O 	O 	0.15553	0.42314	0.3521	-0.47
Mof_O 	O 	0.701	0.99079	0.168	-0.462
Mof_O 	O 	0.3731	0.41218	0.3511	-0.469
Mof_O 	O 	0.2273	0.41681	0.2918	-0.449
Mof_O 	O 	0.3917	0.37341	0.6693	-0.436
Mof_O 	O 	0.7522	0.87006	0.8381	-0.461
Mof_O 	O 	0.223	0.37432	0.5116	-0.449
Mof_O 	O 	0.64241	0.87248	0.98	-0.422
Mof_O 	O 	0.1479	0.49528	0.6226	-0.325
Mof_O 	O 	0.8054	0.92054	0.8351	-0.449
Mof_O 	O 	0.2563	0.49661	0.6765	-0.346
Mof_O 	O 	0.394	0.41959	0.7417	-0.268
Mof_O 	O 	0.4487	0.4536	0.3876	-0.328
Mof_Co	Co	0.35708	0.4616	0.54073	1.124
Mof_Co	Co	0.19038	0.46107	0.42905	1.152
Mof_Co	Co	0.30017	0.43991	0.36095	1.172
Mof_Co	Co	0.30594	0.37722	0.59394	1.177
Mof_Co	Co	0.22177	0.45667	0.59676	1.169
Mof_C 	C 	0.256	0.51161	0.3434	0.384
Mof_C 	C 	0.2574	0.55023	0.3215	-0.141
Mof_C 	C 	0.3065	0.56271	0.2957	0.064
Mof_H 	H 	0.3403	0.5468	0.2924	0.026
Mof_C 	C 	0.3064	0.59887	0.2743	-0.138
Mof_H 	H 	0.3405	0.6076	0.2574	0.084
Mof_C 	C 	0.2571	0.62176	0.2776	0.09
Mof_C 	C 	0.2086	0.60883	0.3038	-0.142
Mof_H 	H 	0.1738	0.6244	0.3052	0.078
Mof_C 	C 	0.2096	0.57438	0.3276	0.072
Mof_H 	H 	0.1774	0.5667	0.3485	0.017
Mof_C 	C 	0.2541	0.65852	0.253	-0.029
Mof_C 	C 	0.25	0.68937	0.2332	-0.035
Mof_C 	C 	0.2429	0.72678	0.2151	0.104
Mof_C 	C 	0.2981	0.74791	0.2216	-0.153
Mof_H 	H 	0.34	0.7373	0.2377	0.085
Mof_C 	C 	0.2917	0.78525	0.2041	0.098
Mof_C 	C 	0.2304	0.80036	0.1829	-0.155
Mof_H 	H 	0.2259	0.8256	0.1734	0.09
Mof_C 	C 	0.1819	0.7426	0.191	-0.154
Mof_H 	H 	0.1443	0.728	0.1853	0.09
Mof_C 	C 	0.3467	0.80681	0.2045	-0.042
Mof_C 	C 	0.3893	0.8263	0.1986	-0.024
Mof_C 	C 	0.4376	0.8512	0.1907	0.074
Mof_C 	C 	0.4203	0.8878	0.1767	-0.123
Mof_H 	H 	0.3796	0.8967	0.1791	0.076
Mof_C 	C 	0.4128	0.38745	0.5327	0.376
Mof_C 	C 	0.4721	0.36432	0.538	-0.147
Mof_C 	C 	0.4682	0.32757	0.5415	0.074
Mof_H 	H 	0.4274	0.3162	0.5361	0.012
Mof_C 	C 	0.5246	0.30667	0.5532	-0.147
Mof_H 	H 	0.5215	0.281	0.5548	0.082
Mof_C 	C 	0.5847	0.32258	0.5623	0.102
Mof_C 	C 	0.5874	0.35907	0.5574	-0.154
Mof_H 	H 	0.6278	0.3707	0.5623	0.087
Mof_C 	C 	0.5306	0.37957	0.545	0.081
Mof_H 	H 	0.5334	0.4052	0.5415	0.017
Mof_C 	C 	0.6422	0.30113	0.577	-0.042
Mof_C 	C 	0.6923	0.28425	0.5949	-0.022
Mof_C 	C 	0.7534	0.26596	0.6203	0.077
Mof_C 	C 	0.7569	0.22885	0.6314	-0.127
Mof_H 	H 	0.7183	0.2147	0.6187	0.08
Mof_C 	C 	0.817	0.21211	0.6613	0.073
Mof_C 	C 	0.8744	0.23166	0.6777	-0.111
Mof_H 	H 	0.9151	0.22	0.6969	0.073
Mof_C 	C 	0.8708	0.26986	0.6647	0.035
Mof_C 	C 	0.8106	0.28624	0.638	-0.113
Mof_H 	H 	0.8083	0.3118	0.6317	0.073
Mof_C 	C 	0.8184	0.17401	0.677	-0.009
Mof_C 	C 	0.8199	0.14392	0.6998	-0.064
Mof_C 	C 	0.8191	0.1101	0.7329	0.148
Mof_C 	C 	0.9293	0.28993	0.6768	0.058
Mof_C 	C 	0.9782	0.30731	0.6816	-0.194
Mof_C 	C 	0.2563	0.51985	0.5272	0.404
Mof_C 	C 	0.2368	0.55864	0.5223	-0.172
Mof_C 	C 	0.2838	0.58484	0.5338	0.095
Mof_H 	H 	0.328	0.5779	0.5424	0.009
Mof_C 	C 	0.2683	0.6204	0.5331	-0.161
Mof_H 	H 	0.3021	0.6379	0.5443	0.088
Mof_C 	C 	0.2043	0.63194	0.5165	0.098
Mof_C 	C 	0.1556	0.60532	0.5033	-0.152
Mof_H 	H 	0.1112	0.6121	0.4921	0.081
Mof_C 	C 	0.1728	0.56904	0.5065	0.087
Mof_H 	H 	0.1397	0.5511	0.4978	0.009
Mof_C 	C 	0.1887	0.66988	0.515	-0.039
Mof_C 	C 	0.1829	0.70165	0.5146	-0.025
Mof_C 	C 	0.1798	0.74035	0.5166	0.092
Mof_C 	C 	0.2363	0.76058	0.5454	-0.146
Mof_H 	H 	0.2764	0.7484	0.5649	0.089
Mof_C 	C 	0.2346	0.79794	0.5459	0.097
Mof_C 	C 	0.1759	0.81614	0.5132	-0.148
Mof_H 	H 	0.1749	0.8419	0.5114	0.088
Mof_C 	C 	0.1192	0.79623	0.4832	0.096
Mof_C 	C 	0.1199	0.75927	0.4848	-0.145
Mof_H 	H 	0.081	0.746	0.4649	0.087
Mof_C 	C 	0.8287	0.91213	0.1978	0.397
Mof_C 	C 	0.8773	0.89038	0.2528	-0.138
Mof_C 	C 	0.9356	0.88054	0.2422	0.071
Mof_H 	H 	0.944	0.8872	0.1999	0.02
Mof_C 	C 	0.9809	0.86167	0.2905	-0.143
Mof_H 	H 	0.021	0.8556	0.2822	0.08
Mof_C 	C 	0.9694	0.8512	0.3515	0.086
Mof_C 	C 	0.9105	0.8599	0.3632	-0.131
Mof_H 	H 	0.9017	0.8521	0.4047	0.079
Mof_C 	C 	0.8642	0.8803	0.314	0.061
Mof_H 	H 	0.8244	0.887	0.3224	0.027
Mof_C 	C 	0.0194	0.83122	0.4041	-0.029
Mof_C 	C 	0.0606	0.81515	0.4418	-0.033
Mof_C 	C 	0.8291	0.89209	0.0053	0.404
Mof_C 	C 	0.89	0.87148	0.0402	-0.165
Mof_C 	C 	0.9502	0.88827	0.0519	0.082
Mof_H 	H 	0.9528	0.913	0.04	0.004
Mof_C 	C 	0.0051	0.86889	0.0803	-0.151
Mof_H 	H 	0.046	0.8807	0.089	0.082
Mof_C 	C 	0.004	0.83217	0.0974	0.098
Mof_C 	C 	0.9444	0.81608	0.0867	-0.155
Mof_H 	H 	0.9416	0.7914	0.0992	0.084
Mof_C 	C 	0.8885	0.8359	0.0576	0.089
Mof_H 	H 	0.8475	0.8243	0.0495	0.013
Mof_C 	C 	0.0621	0.81166	0.1263	-0.035
Mof_C 	C 	0.1124	0.79571	0.1497	-0.032
Mof_C 	C 	0.1747	0.77903	0.1752	0.103
Mof_C 	C 	0.5827	0.89175	0.7798	0.366
Mof_C 	C 	0.5168	0.87807	0.7335	-0.125
Mof_C 	C 	0.485	0.8526	0.7585	0.061
Mof_H 	H 	0.5028	0.8438	0.8046	0.024
Mof_C 	C 	0.4253	0.8389	0.7168	-0.142
Mof_H 	H 	0.4029	0.8214	0.7358	0.08
Mof_C 	C 	0.3996	0.84985	0.6521	0.092
Mof_C 	C 	0.3396	0.83349	0.6092	-0.03
Mof_C 	C 	0.2912	0.81802	0.5785	-0.034
Mof_C 	C 	0.8025	0.0109	0.8362	0.276
Mof_C 	C 	0.8083	0.0457	0.7996	-0.13
Mof_C 	C 	0.8652	0.0603	0.8024	0.094
Mof_H 	H 	0.9034	0.0488	0.8306	0.012
Mof_C 	C 	0.872	0.0906	0.7672	-0.182
Mof_H 	H 	0.914	0.0983	0.7665	0.092
Mof_C 	C 	0.7659	0.0985	0.7375	-0.183
Mof_H 	H 	0.7289	0.1137	0.7215	0.095
Mof_C 	C 	0.757	0.0635	0.7654	0.084
Mof_H 	H 	0.7147	0.0538	0.759	0.021
Mof_C 	C 	0.0343	0.3279	0.683	0.448
Mof_C 	C 	0.0904	0.3145	0.6985	-0.472
Mof_H 	H 	0.0961	0.2901	0.7146	0.188
Mof_C 	C 	0.148	0.3348	0.6931	0.423
Mof_H 	H 	0.1883	0.3225	0.7004	-0.094
Mof_C 	C 	0.086	0.3799	0.6593	0.408
Mof_H 	H 	0.0801	0.4036	0.6399	-0.089
Mof_C 	C 	0.031	0.3608	0.6649	-0.491
Mof_H 	H 	0.9903	0.3729	0.6548	0.195
Mof_C 	C 	0.4964	0.8379	0.1836	-0.124
Mof_H 	H 	0.507	0.8129	0.1893	0.076
Mof_C 	C 	0.4651	0.9107	0.159	0.052
Mof_H 	H 	0.4542	0.9353	0.1481	0.024
Mof_C 	C 	0.4881	0.8917	0.6689	0.06
Mof_H 	H 	0.5087	0.9109	0.6518	0.028
Mof_C 	C 	0.4296	0.8781	0.6273	-0.135
Mof_H 	H 	0.4101	0.8879	0.5823	0.081
Mof_C 	C 	0.5722	0.9239	0.1361	0.394
Mof_C 	C 	0.5244	0.8978	0.1572	-0.123
Mof_C 	C 	0.5389	0.8628	0.1676	0.058
Mof_H 	H 	0.5796	0.8544	0.164	0.03
Mof_C 	C 	0.2006	0.3872	0.6702	0.538
Mof_C 	C 	0.1446	0.3666	0.6796	-0.491
Mof_O 	O 	0.28454	0.44035	0.4528	-0.619
Mof_O 	O 	0.3053	0.43401	0.6003	-0.59
Mof_O 	O 	0.3142	0.51172	0.5412	-0.491
Mof_O 	O 	0.42239	0.42102	0.5404	-0.459
Mof_O 	O 	0.2103	0.49579	0.514	-0.558
Mof_O 	O 	0.8331	0.9257	0.997	-0.54
Mof_O 	O 	0.2128	0.50221	0.3702	-0.472
Mof_O 	O 	0.84447	0.92314	0.1479	-0.471
Mof_O 	O 	0.299	0.49079	0.332	-0.462
Mof_O 	O 	0.6269	0.91218	0.1489	-0.469
Mof_O 	O 	0.7727	0.91681	0.2082	-0.449
Mof_O 	O 	0.6083	0.87341	0.8307	-0.436
Mof_O 	O 	0.2478	0.37006	0.6619	-0.462
Mof_O 	O 	0.777	0.87432	0.9884	-0.447
Mof_O 	O 	0.35759	0.37248	0.52	-0.422
Mof_O 	O 	0.8521	0.99528	0.8774	-0.325
Mof_O 	O 	0.1946	0.42054	0.6649	-0.449
Mof_O 	O 	0.7437	0.99661	0.8235	-0.346
Mof_O 	O 	0.606	0.91959	0.7583	-0.268
Mof_O 	O 	0.5513	0.9536	0.1124	-0.329
_end
