data_functionalizedCrystal
_audit_creation_method	'EQeq! by Chris Wilmer'
_symmetry_space_group_name_H-M	'P1'
_symmetry_Int_Tables_number	1
_symmetry_cell_setting	triclinic
loop_
_symmetry_equiv_pos_as_xyz
  x,y,z
_cell_length_a	6.3716
_cell_length_b	13.1646
_cell_length_c	14.8622
_cell_angle_alpha	90
_cell_angle_beta	90
_cell_angle_gamma	90
loop_
_atom_site_label
_atom_site_type_symbol
_atom_site_fract_x
_atom_site_fract_y
_atom_site_fract_z
_atom_site_charge
Mof_N 	N 	0.4482	0.6447	0.6586	-0.219
Mof_C 	C 	0.5203	0.5535	0.6857	0.114
Mof_H 	H 	0.4738	0.5275	0.7404	-0.028
Mof_C 	C 	0.661	0.4971	0.6354	-0.226
Mof_H 	H 	0.7057	0.4342	0.6564	0.097
Mof_C 	C 	0.7343	0.5332	0.5544	0.176
Mof_C 	C 	0.6543	0.6259	0.5273	-0.236
Mof_H 	H 	0.6953	0.6533	0.4723	0.102
Mof_C 	C 	0.5166	0.6776	0.5799	0.132
Mof_H 	H 	0.4675	0.7399	0.5594	-0.037
Mof_C 	C 	0.8915	0.4762	0.4996	-0.217
Mof_H 	H 	0.924	0.408	0.514	0.09
Mof_H 	H 	0.83	0.465	0.446	0.097
Mof_N 	N 	0.0518	0.8553	0.6586	-0.212
Mof_C 	C 	0.9797	0.9465	0.6857	0.1
Mof_H 	H 	0.0262	0.9725	0.7404	-0.02
Mof_C 	C 	0.839	0.0029	0.6354	-0.211
Mof_H 	H 	0.7943	0.0658	0.6564	0.093
Mof_C 	C 	0.7657	0.9668	0.5544	0.166
Mof_C 	C 	0.8457	0.8741	0.5273	-0.226
Mof_H 	H 	0.8047	0.8467	0.4723	0.098
Mof_C 	C 	0.9834	0.8224	0.5799	0.122
Mof_H 	H 	0.0325	0.7601	0.5594	-0.033
Mof_C 	C 	0.6085	0.0238	0.4996	-0.213
Mof_H 	H 	0.576	0.092	0.514	0.088
Mof_H 	H 	0.67	0.035	0.446	0.096
Mof_N 	N 	0.0518	0.6447	0.8414	-0.214
Mof_C 	C 	0.9797	0.5535	0.8143	0.11
Mof_H 	H 	0.0262	0.5275	0.7596	-0.025
Mof_C 	C 	0.839	0.4971	0.8646	-0.221
Mof_H 	H 	0.7943	0.4342	0.8436	0.096
Mof_C 	C 	0.7657	0.5332	0.9456	0.172
Mof_C 	C 	0.8457	0.6259	0.9727	-0.231
Mof_H 	H 	0.8047	0.6533	0.0277	0.1
Mof_C 	C 	0.9834	0.6776	0.9201	0.125
Mof_H 	H 	0.0325	0.7399	0.9406	-0.033
Mof_C 	C 	0.6085	0.4762	0.0004	-0.215
Mof_H 	H 	0.576	0.408	0.986	0.089
Mof_H 	H 	0.67	0.465	0.054	0.096
Mof_N 	N 	0.4482	0.8553	0.8414	-0.217
Mof_C 	C 	0.5203	0.9465	0.8143	0.114
Mof_H 	H 	0.4738	0.9725	0.7596	-0.027
Mof_C 	C 	0.661	0.0029	0.8646	-0.223
Mof_H 	H 	0.7057	0.0658	0.8436	0.096
Mof_C 	C 	0.7343	0.9668	0.9456	0.171
Mof_C 	C 	0.6543	0.8741	0.9727	-0.232
Mof_H 	H 	0.6953	0.8467	0.0277	0.1
Mof_C 	C 	0.5166	0.8224	0.9201	0.131
Mof_H 	H 	0.4675	0.7601	0.9406	-0.037
Mof_C 	C 	0.8915	0.0238	0.0004	-0.211
Mof_H 	H 	0.924	0.092	0.986	0.087
Mof_H 	H 	0.83	0.035	0.054	0.095
Mof_N 	N 	0.5518	0.3553	0.3414	-0.218
Mof_C 	C 	0.4797	0.4465	0.3143	0.115
Mof_H 	H 	0.5262	0.4725	0.2596	-0.027
Mof_C 	C 	0.339	0.5029	0.3646	-0.225
Mof_H 	H 	0.2943	0.5658	0.3436	0.097
Mof_C 	C 	0.2657	0.4668	0.4456	0.176
Mof_C 	C 	0.3457	0.3741	0.4727	-0.236
Mof_H 	H 	0.3047	0.3467	0.5277	0.102
Mof_C 	C 	0.4834	0.3224	0.4201	0.132
Mof_H 	H 	0.5325	0.2601	0.4406	-0.037
Mof_C 	C 	0.1085	0.5238	0.5004	-0.217
Mof_H 	H 	0.076	0.592	0.486	0.09
Mof_H 	H 	0.17	0.535	0.554	0.097
Mof_N 	N 	0.9482	0.1447	0.3414	-0.212
Mof_C 	C 	0.0203	0.0535	0.3143	0.1
Mof_H 	H 	0.9738	0.0275	0.2596	-0.02
Mof_C 	C 	0.161	0.9971	0.3646	-0.211
Mof_H 	H 	0.2057	0.9342	0.3436	0.093
Mof_C 	C 	0.2343	0.0332	0.4456	0.166
Mof_C 	C 	0.1543	0.1259	0.4727	-0.226
Mof_H 	H 	0.1953	0.1533	0.5277	0.098
Mof_C 	C 	0.0166	0.1776	0.4201	0.122
Mof_H 	H 	0.9675	0.2399	0.4406	-0.033
Mof_C 	C 	0.3915	0.9762	0.5004	-0.213
Mof_H 	H 	0.424	0.908	0.486	0.088
Mof_H 	H 	0.33	0.965	0.554	0.096
Mof_N 	N 	0.9482	0.3553	0.1586	-0.214
Mof_C 	C 	0.0203	0.4465	0.1857	0.11
Mof_H 	H 	0.9738	0.4725	0.2404	-0.025
Mof_C 	C 	0.161	0.5029	0.1354	-0.221
Mof_H 	H 	0.2057	0.5658	0.1564	0.096
Mof_C 	C 	0.2343	0.4668	0.0544	0.172
Mof_C 	C 	0.1543	0.3741	0.0273	-0.231
Mof_H 	H 	0.1953	0.3467	0.9723	0.1
Mof_C 	C 	0.0166	0.3224	0.0799	0.125
Mof_H 	H 	0.9675	0.2601	0.0594	-0.033
Mof_C 	C 	0.3915	0.5238	0.9996	-0.215
Mof_H 	H 	0.424	0.592	0.014	0.089
Mof_H 	H 	0.33	0.535	0.946	0.096
Mof_N 	N 	0.5518	0.1447	0.1586	-0.217
Mof_C 	C 	0.4797	0.0535	0.1857	0.114
Mof_H 	H 	0.5262	0.0275	0.2404	-0.027
Mof_C 	C 	0.339	0.9971	0.1354	-0.223
Mof_H 	H 	0.2943	0.9342	0.1564	0.096
Mof_C 	C 	0.2657	0.0332	0.0544	0.171
Mof_C 	C 	0.3457	0.1259	0.0273	-0.232
Mof_H 	H 	0.3047	0.1533	0.9723	0.1
Mof_C 	C 	0.4834	0.1776	0.0799	0.131
Mof_H 	H 	0.5325	0.2399	0.0594	-0.037
Mof_C 	C 	0.1085	0.9762	0.9996	-0.211
Mof_H 	H 	0.076	0.908	0.014	0.087
Mof_H 	H 	0.17	0.965	0.946	0.095
Mof_Ag	Ag	0.25	0.75	0.75	0.609
Mof_Ag	Ag	0.75	0.25	0.25	0.609
_end
