data_functionalizedCrystal
_audit_creation_method	'EQeq! by Chris Wilmer'
_symmetry_space_group_name_H-M	'P1'
_symmetry_Int_Tables_number	1
_symmetry_cell_setting	triclinic
loop_
_symmetry_equiv_pos_as_xyz
  x,y,z
_cell_length_a	12.4378
_cell_length_b	14.7717
_cell_length_c	16.6097
_cell_angle_alpha	90
_cell_angle_beta	90
_cell_angle_gamma	90
loop_
_atom_site_label
_atom_site_type_symbol
_atom_site_fract_x
_atom_site_fract_y
_atom_site_fract_z
_atom_site_charge
Mof_Mn	Mn	0.60456	0.0166	0.57985	0.911
Mof_Mn	Mn	0.39544	0.5166	0.92015	0.911
Mof_Mn	Mn	0.39544	0.9834	0.42015	0.911
Mof_Mn	Mn	0.10456	0.0166	0.92015	0.906
Mof_Mn	Mn	0.89544	0.5166	0.57985	0.91
Mof_Mn	Mn	0.60456	0.4834	0.07985	0.91
Mof_Mn	Mn	0.89544	0.9834	0.07985	0.905
Mof_Mn	Mn	0.10456	0.4834	0.42015	0.91
Mof_H 	H 	0.7754	0.9689	0.3496	0.085
Mof_H 	H 	0.6608	0.2407	0.0143	0.078
Mof_H 	H 	0.8392	0.7407	0.0143	0.07
Mof_H 	H 	0.7246	0.4689	0.3496	0.085
Mof_H 	H 	0.3392	0.7407	0.4857	0.074
Mof_H 	H 	0.1608	0.2593	0.9857	0.07
Mof_H 	H 	0.5591	0.2347	0.2856	0.076
Mof_H 	H 	0.4409	0.7653	0.7144	0.076
Mof_H 	H 	0.9409	0.7653	0.7856	0.075
Mof_H 	H 	0.1608	0.2407	0.4857	0.074
Mof_H 	H 	0.9409	0.7347	0.2856	0.075
Mof_H 	H 	0.6608	0.2593	0.5143	0.074
Mof_H 	H 	0.7754	0.5311	0.8496	0.085
Mof_H 	H 	0.2246	0.0311	0.6504	0.085
Mof_H 	H 	0.3392	0.7593	0.9857	0.078
Mof_H 	H 	0.0591	0.2347	0.2144	0.075
Mof_H 	H 	0.5591	0.2653	0.7856	0.076
Mof_H 	H 	0.2246	0.4689	0.1504	0.085
Mof_H 	H 	0.4409	0.7347	0.2144	0.076
Mof_H 	H 	0.2754	0.9689	0.1504	0.085
Mof_H 	H 	0.0591	0.2653	0.7144	0.075
Mof_H 	H 	0.2754	0.5311	0.6504	0.085
Mof_H 	H 	0.8392	0.7593	0.5143	0.074
Mof_H 	H 	0.7246	0.0311	0.8496	0.085
Mof_C 	C 	0.8627	0.9022	0.2198	0.204
Mof_C 	C 	0.7034	0.3699	0.4393	0
Mof_C 	C 	0.9062	0.7679	0.3272	-0.018
Mof_C 	C 	0.7034	0.1301	0.9393	0.004
Mof_C 	C 	0.6532	0.2809	0.4607	-0.017
Mof_C 	C 	0.5938	0.2679	0.3272	-0.018
Mof_C 	C 	0.9062	0.7321	0.8272	-0.016
Mof_C 	C 	0.5955	0.228	0.4055	-0.042
Mof_C 	C 	0.8576	0.6415	0.8044	-0.004
Mof_C 	C 	0.2966	0.6301	0.5607	0
Mof_C 	C 	0.8043	0.5891	0.8614	-0.045
Mof_C 	C 	0.7966	0.6301	0.9393	-0.002
Mof_C 	C 	0.8627	0.5978	0.7198	0.204
Mof_C 	C 	0.1373	0.0978	0.7802	0.204
Mof_C 	C 	0.1424	0.1415	0.6956	-0.003
Mof_C 	C 	0.1532	0.2809	0.0393	-0.01
Mof_C 	C 	0.4062	0.7679	0.1728	-0.019
Mof_C 	C 	0.3468	0.7809	0.0393	-0.023
Mof_C 	C 	0.5955	0.272	0.9055	-0.04
Mof_C 	C 	0.3576	0.6415	0.6956	-0.002
Mof_C 	C 	0.6957	0.4109	0.3614	-0.046
Mof_C 	C 	0.2689	0.4221	0.0031	0.183
Mof_C 	C 	0.2034	0.3699	0.0607	-0.002
Mof_C 	C 	0.4062	0.7321	0.6728	-0.018
Mof_C 	C 	0.6957	0.0891	0.8614	-0.048
Mof_C 	C 	0.0938	0.2321	0.6728	-0.018
Mof_C 	C 	0.8468	0.7809	0.4607	-0.017
Mof_C 	C 	0.7311	0.9221	0.4969	0.181
Mof_C 	C 	0.1373	0.4022	0.2802	0.204
Mof_C 	C 	0.3576	0.8585	0.1956	-0.002
Mof_C 	C 	0.2311	0.9221	0.0031	0.172
Mof_C 	C 	0.7689	0.0779	0.9969	0.172
Mof_C 	C 	0.0938	0.2679	0.1728	-0.016
Mof_C 	C 	0.4612	0.6396	0.071	0.309
Mof_C 	C 	0.9612	0.8604	0.929	0.316
Mof_C 	C 	0.1957	0.4109	0.1386	-0.045
Mof_C 	C 	0.4045	0.772	0.5945	-0.042
Mof_C 	C 	0.1532	0.2191	0.5393	-0.017
Mof_C 	C 	0.5388	0.1396	0.429	0.311
Mof_C 	C 	0.1957	0.0891	0.6386	-0.046
Mof_C 	C 	0.0955	0.228	0.0945	-0.045
Mof_C 	C 	0.7689	0.4221	0.4969	0.181
Mof_C 	C 	0.2966	0.8699	0.0607	0.004
Mof_C 	C 	0.8043	0.9109	0.3614	-0.046
Mof_C 	C 	0.1424	0.3585	0.1956	-0.004
Mof_C 	C 	0.5938	0.2321	0.8272	-0.019
Mof_C 	C 	0.6532	0.2191	0.9607	-0.023
Mof_C 	C 	0.7311	0.5779	0.9969	0.183
Mof_C 	C 	0.9045	0.772	0.9055	-0.045
Mof_C 	C 	0.8576	0.8585	0.3044	-0.003
Mof_C 	C 	0.4045	0.728	0.0945	-0.04
Mof_C 	C 	0.3627	0.5978	0.7802	0.203
Mof_C 	C 	0.9612	0.6396	0.429	0.311
Mof_C 	C 	0.2311	0.5779	0.5031	0.181
Mof_C 	C 	0.2034	0.1301	0.5607	0
Mof_C 	C 	0.9045	0.728	0.4055	-0.043
Mof_C 	C 	0.3043	0.9109	0.1386	-0.048
Mof_C 	C 	0.0955	0.272	0.5945	-0.043
Mof_C 	C 	0.0388	0.1396	0.071	0.316
Mof_C 	C 	0.0388	0.3604	0.571	0.311
Mof_C 	C 	0.3043	0.5891	0.6386	-0.046
Mof_C 	C 	0.6373	0.4022	0.2198	0.203
Mof_C 	C 	0.5388	0.3604	0.929	0.309
Mof_C 	C 	0.6424	0.3585	0.3044	-0.002
Mof_C 	C 	0.6373	0.0978	0.7198	0.203
Mof_C 	C 	0.6424	0.1415	0.8044	-0.002
Mof_C 	C 	0.8468	0.7191	0.9607	-0.01
Mof_C 	C 	0.3627	0.9022	0.2802	0.203
Mof_C 	C 	0.2689	0.0779	0.5031	0.181
Mof_C 	C 	0.7966	0.8699	0.4393	0
Mof_C 	C 	0.4612	0.8604	0.571	0.311
Mof_C 	C 	0.3468	0.7191	0.5393	-0.017
Mof_O 	O 	0.328	0.9903	0.2957	-0.265
Mof_O 	O 	0.6991	0.8672	0.5532	-0.229
Mof_O 	O 	0.672	0.4903	0.2043	-0.264
Mof_O 	O 	0.4991	0.5829	0.12496	-0.325
Mof_O 	O 	0.1991	0.6328	0.4468	-0.23
Mof_O 	O 	0.4041	0.6521	0.8325	-0.251
Mof_O 	O 	0.7077	0.483	0.9857	-0.308
Mof_O 	O 	0.328	0.5097	0.7957	-0.264
Mof_O 	O 	0.9747	0.6196	0.50383	-0.338
Mof_O 	O 	0.5959	0.3479	0.1675	-0.251
Mof_O 	O 	0.7077	0.017	0.4857	-0.306
Mof_O 	O 	0.4991	0.9171	0.62496	-0.324
Mof_O 	O 	0.8009	0.1328	0.0532	-0.224
Mof_O 	O 	0.4041	0.8479	0.3325	-0.251
Mof_O 	O 	0.4747	0.8804	0.49617	-0.338
Mof_O 	O 	0.172	0.0097	0.7957	-0.265
Mof_O 	O 	0.0253	0.3804	0.49617	-0.338
Mof_O 	O 	0.6991	0.6328	0.0532	-0.231
Mof_O 	O 	0.7923	0.983	0.9857	-0.3
Mof_O 	O 	0.8009	0.3672	0.5532	-0.23
Mof_O 	O 	0.7923	0.517	0.4857	-0.307
Mof_O 	O 	0.5253	0.1196	0.50383	-0.338
Mof_O 	O 	0.5009	0.4171	0.87504	-0.325
Mof_O 	O 	0.172	0.4903	0.2957	-0.265
Mof_O 	O 	0.1991	0.8672	0.9468	-0.224
Mof_O 	O 	0.3009	0.1328	0.4468	-0.229
Mof_O 	O 	0.2923	0.983	0.5143	-0.306
Mof_O 	O 	0.0253	0.1196	0.99617	-0.342
Mof_O 	O 	0.2077	0.017	0.0143	-0.3
Mof_O 	O 	0.9041	0.8479	0.1675	-0.251
Mof_O 	O 	0.0009	0.0829	0.12496	-0.324
Mof_O 	O 	0.9041	0.6521	0.6675	-0.251
Mof_O 	O 	0.9747	0.8804	0.00383	-0.342
Mof_O 	O 	0.672	0.0097	0.7043	-0.265
Mof_O 	O 	0.3009	0.3672	0.9468	-0.231
Mof_O 	O 	0.9991	0.5829	0.37504	-0.326
Mof_O 	O 	0.0009	0.4171	0.62496	-0.326
Mof_O 	O 	0.828	0.9903	0.2043	-0.265
Mof_O 	O 	0.9991	0.9171	0.87504	-0.324
Mof_O 	O 	0.828	0.5097	0.7043	-0.265
Mof_O 	O 	0.0959	0.1521	0.8325	-0.251
Mof_O 	O 	0.0959	0.3479	0.3325	-0.251
Mof_O 	O 	0.2077	0.483	0.5143	-0.307
Mof_O 	O 	0.5253	0.3804	0.00383	-0.336
Mof_O 	O 	0.5009	0.0829	0.37504	-0.324
Mof_O 	O 	0.2923	0.517	0.0143	-0.308
Mof_O 	O 	0.5959	0.1521	0.6675	-0.251
Mof_O 	O 	0.4747	0.6196	0.99617	-0.336
_end
