data_functionalizedCrystal
_audit_creation_method	'EQeq! by Chris Wilmer'
_symmetry_space_group_name_H-M	'P1'
_symmetry_Int_Tables_number	1
_symmetry_cell_setting	triclinic
loop_
_symmetry_equiv_pos_as_xyz
  x,y,z
_cell_length_a	17.6122
_cell_length_b	18.1405
_cell_length_c	18.3816
_cell_angle_alpha	90
_cell_angle_beta	91.826
_cell_angle_gamma	90
loop_
_atom_site_label
_atom_site_type_symbol
_atom_site_fract_x
_atom_site_fract_y
_atom_site_fract_z
_atom_site_charge
Mof_Co	Co	0.39672	0.52745	0.19795	1.15
Mof_Co	Co	0.32123	0.39531	0.1256	1.144
Mof_Co	Co	0.39533	0.23486	0.06495	1.153
Mof_O 	O 	0.38238	0.42489	0.21871	-0.541
Mof_O 	O 	0.64376	0.51349	0.94116	-0.463
Mof_O 	O 	0.55892	0.43642	0.89067	-0.453
Mof_O 	O 	0.29312	0.21073	0.10246	-0.436
Mof_O 	O 	0.76677	0.96251	0.34231	-0.418
Mof_O 	O 	0.41673	0.33482	0.09825	-0.542
Mof_O 	O 	0.70744	0.06173	0.29433	-0.439
Mof_O 	O 	0.27576	0.30666	0.17728	-0.415
Mof_O 	O 	0.49558	0.26794	0.48509	-0.355
Mof_O 	O 	0.37794	0.2998	0.46213	-0.419
Mof_C 	C 	0.59353	0.46493	0.94622	0.337
Mof_N 	N 	0.45983	0.16408	0.13358	-0.186
Mof_C 	C 	0.52611	0.3923	0.15598	-0.067
Mof_C 	C 	0.61479	0.45768	0.08045	-0.037
Mof_H 	H 	0.6594	0.4866	0.0764	0.04
Mof_C 	C 	0.50743	0.39572	0.02569	-0.141
Mof_H 	H 	0.4795	0.381	0.9831	0.09
Mof_N 	N 	0.53851	0.08279	0.22358	-0.199
Mof_C 	C 	0.48276	0.3737	0.09302	0.172
Mof_C 	C 	0.57215	0.43896	0.0188	-0.036
Mof_C 	C 	0.25717	0.24576	0.15057	0.219
Mof_C 	C 	0.55747	0.32927	0.274	-0.009
Mof_H 	H 	0.607	0.3204	0.2571	0.027
Mof_C 	C 	0.41298	0.35456	0.32321	-0.17
Mof_H 	H 	0.363	0.3621	0.3396	0.104
Mof_C 	C 	0.46613	0.31659	0.36746	-0.005
Mof_C 	C 	0.18709	0.20968	0.17871	0.268
Mof_C 	C 	0.43256	0.38106	0.25599	0.202
Mof_C 	C 	0.76646	0.02395	0.31184	0.24
Mof_C 	C 	0.59223	0.43407	0.14834	-0.04
Mof_H 	H 	0.6222	0.4465	0.1904	0.033
Mof_C 	C 	0.44609	0.29281	0.44207	0.271
Mof_C 	C 	0.50483	0.36691	0.22921	-0.086
Mof_C 	C 	0.54013	0.18836	0.1378	-0.068
Mof_H 	H 	0.5426	0.2408	0.1525	0.042
Mof_H 	H 	0.5624	0.1839	0.0892	0.05
Mof_C 	C 	0.53895	0.30483	0.34217	-0.072
Mof_H 	H 	0.5758	0.2799	0.3719	0.06
Mof_C 	C 	0.5062	0.03844	0.1626	-0.051
Mof_H 	H 	0.474	0.9988	0.1822	0.03
Mof_H 	H 	0.548	0.0149	0.1363	0.029
Mof_C 	C 	0.42825	0.1672	0.20722	-0.059
Mof_H 	H 	0.3748	0.1503	0.2049	0.036
Mof_H 	H 	0.429	0.2188	0.2248	0.038
Mof_C 	C 	0.47392	0.11895	0.26022	-0.06
Mof_H 	H 	0.4938	0.1495	0.3012	0.042
Mof_H 	H 	0.4404	0.0807	0.2803	0.032
Mof_C 	C 	0.14008	0.25065	0.22227	-0.498
Mof_H 	H 	0.1533	0.2999	0.2349	0.203
Mof_C 	C 	0.16818	0.13819	0.1615	-0.587
Mof_H 	H 	0.2003	0.1095	0.1321	0.213
Mof_C 	C 	0.45841	0.08595	0.10924	-0.053
Mof_H 	H 	0.479	0.0823	0.0599	0.032
Mof_H 	H 	0.4054	0.0678	0.107	0.026
Mof_C 	C 	0.58625	0.14184	0.19259	-0.049
Mof_H 	H 	0.6299	0.1194	0.1682	0.025
Mof_H 	H 	0.6064	0.1738	0.2323	0.026
Mof_C 	C 	0.84054	0.05658	0.2925	0.258
Mof_C 	C 	0.07383	0.2201	0.2475	0.598
Mof_C 	C 	0.0533	0.1482	0.2293	-0.369
Mof_C 	C 	0.90721	0.0195	0.3066	-0.501
Mof_H 	H 	0.9061	0.9727	0.3299	0.201
Mof_C 	C 	0.1018	0.10821	0.1874	0.77
Mof_H 	H 	0.0895	0.0585	0.1759	-0.964
Mof_C 	C 	0.97957	0.1168	0.2527	-0.377
Mof_C 	C 	0.9124	0.1536	0.2387	0.764
Mof_H 	H 	0.9136	0.2002	0.2152	-0.939
Mof_C 	C 	0.843	0.1249	0.258	-0.56
Mof_H 	H 	0.7975	0.1515	0.2477	0.228
Mof_O 	O 	0.0298	0.2604	0.2933	0.585
Mof_H 	H 	0.0499	0.3019	0.3007	-0.11
Mof_O 	O 	0.04201	0.0094	0.3025	0.594
Mof_H 	H 	0.0307	0.9671	0.3174	-0.117
Mof_C 	C 	0.97614	0.0491	0.2875	0.617
Mof_O 	O 	0.9101	0.2201	0.1975	0.862
Mof_H 	H 	0.8666	0.2388	0.199	-0.215
Mof_O 	O 	0.0908	0.0333	0.1685	0.87
Mof_H 	H 	0.081	0.0089	0.2059	-0.192
Mof_H 	H 	0.0421	0.2485	0.2775	-0.697
Mof_H 	H 	0.0217	0.0228	0.2983	-0.692
Mof_Co	Co	0.60328	0.02745	0.30205	1.15
Mof_Co	Co	0.67877	0.89531	0.3744	1.145
Mof_Co	Co	0.60467	0.73486	0.43505	1.153
Mof_O 	O 	0.61762	0.92489	0.28129	-0.54
Mof_O 	O 	0.35624	0.01349	0.55884	-0.462
Mof_O 	O 	0.44108	0.93642	0.60933	-0.453
Mof_O 	O 	0.70688	0.71073	0.39754	-0.436
Mof_O 	O 	0.23323	0.46251	0.15769	-0.42
Mof_O 	O 	0.58327	0.83482	0.40175	-0.541
Mof_O 	O 	0.29256	0.56173	0.20567	-0.439
Mof_O 	O 	0.72424	0.80666	0.32272	-0.415
Mof_O 	O 	0.50442	0.76794	0.01491	-0.354
Mof_O 	O 	0.62206	0.7998	0.03787	-0.418
Mof_C 	C 	0.40647	0.96493	0.55378	0.336
Mof_N 	N 	0.54017	0.66408	0.36642	-0.185
Mof_C 	C 	0.47389	0.8923	0.34402	-0.066
Mof_C 	C 	0.38521	0.95768	0.41955	-0.036
Mof_H 	H 	0.3406	0.9866	0.4236	0.04
Mof_C 	C 	0.49257	0.89572	0.47431	-0.14
Mof_H 	H 	0.5205	0.881	0.5169	0.089
Mof_N 	N 	0.46149	0.58279	0.27642	-0.199
Mof_C 	C 	0.51724	0.8737	0.40698	0.171
Mof_C 	C 	0.42785	0.93896	0.4812	-0.036
Mof_C 	C 	0.74283	0.74576	0.34943	0.219
Mof_C 	C 	0.44253	0.82927	0.226	-0.009
Mof_H 	H 	0.393	0.8204	0.2429	0.027
Mof_C 	C 	0.58702	0.85456	0.17679	-0.17
Mof_H 	H 	0.637	0.8621	0.1604	0.104
Mof_C 	C 	0.53387	0.81659	0.13254	-0.004
Mof_C 	C 	0.81291	0.70968	0.32129	0.268
Mof_C 	C 	0.56744	0.88106	0.24401	0.202
Mof_C 	C 	0.23354	0.52395	0.18816	0.243
Mof_C 	C 	0.40777	0.93407	0.35166	-0.041
Mof_H 	H 	0.3778	0.9465	0.3096	0.033
Mof_C 	C 	0.55391	0.79281	0.05793	0.271
Mof_C 	C 	0.49517	0.86691	0.27079	-0.086
Mof_C 	C 	0.45987	0.68836	0.3622	-0.068
Mof_H 	H 	0.4574	0.7408	0.3475	0.042
Mof_H 	H 	0.4376	0.6839	0.4108	0.05
Mof_C 	C 	0.46105	0.80483	0.15783	-0.072
Mof_H 	H 	0.4242	0.7799	0.1281	0.06
Mof_C 	C 	0.4938	0.53844	0.3374	-0.047
Mof_H 	H 	0.526	0.4988	0.3178	0.028
Mof_H 	H 	0.452	0.5149	0.3637	0.029
Mof_C 	C 	0.57175	0.6672	0.29278	-0.059
Mof_H 	H 	0.6252	0.6503	0.2951	0.037
Mof_H 	H 	0.571	0.7188	0.2752	0.038
Mof_C 	C 	0.52608	0.61895	0.23978	-0.06
Mof_H 	H 	0.5062	0.6495	0.1988	0.042
Mof_H 	H 	0.5596	0.5807	0.2197	0.032
Mof_C 	C 	0.85992	0.75065	0.27773	-0.497
Mof_H 	H 	0.8467	0.7999	0.2651	0.204
Mof_C 	C 	0.83182	0.63819	0.3385	-0.586
Mof_H 	H 	0.7997	0.6095	0.3679	0.213
Mof_C 	C 	0.54159	0.58595	0.39076	-0.055
Mof_H 	H 	0.521	0.5823	0.4401	0.033
Mof_H 	H 	0.5946	0.5678	0.393	0.027
Mof_C 	C 	0.41375	0.64184	0.30741	-0.049
Mof_H 	H 	0.3701	0.6194	0.3318	0.026
Mof_H 	H 	0.3936	0.6738	0.2677	0.026
Mof_C 	C 	0.15946	0.55658	0.2075	0.255
Mof_C 	C 	0.92617	0.7201	0.2525	0.598
Mof_C 	C 	0.9467	0.6482	0.2707	-0.369
Mof_C 	C 	0.09279	0.5195	0.1934	-0.496
Mof_H 	H 	0.0939	0.4727	0.1701	0.198
Mof_C 	C 	0.8982	0.60821	0.3126	0.769
Mof_H 	H 	0.9105	0.5585	0.3241	-0.964
Mof_C 	C 	0.02043	0.6168	0.2473	-0.377
Mof_C 	C 	0.0876	0.6536	0.2613	0.763
Mof_H 	H 	0.0864	0.7002	0.2848	-0.939
Mof_C 	C 	0.157	0.6249	0.242	-0.559
Mof_H 	H 	0.2025	0.6515	0.2523	0.227
Mof_O 	O 	0.9702	0.7604	0.2067	0.585
Mof_H 	H 	0.9501	0.8019	0.1993	-0.11
Mof_O 	O 	0.95799	0.5094	0.1975	0.595
Mof_H 	H 	0.9693	0.4671	0.1826	-0.118
Mof_C 	C 	0.02386	0.5491	0.2125	0.616
Mof_O 	O 	0.0899	0.7201	0.3025	0.862
Mof_H 	H 	0.1334	0.7388	0.301	-0.215
Mof_O 	O 	0.9092	0.5333	0.3315	0.87
Mof_H 	H 	0.919	0.5089	0.2941	-0.192
Mof_H 	H 	0.9579	0.7485	0.2225	-0.697
Mof_H 	H 	0.9783	0.5228	0.2017	-0.692
Mof_Co	Co	0.60328	0.47255	0.80205	1.151
Mof_Co	Co	0.67877	0.60469	0.8744	1.145
Mof_Co	Co	0.60467	0.76514	0.93505	1.153
Mof_O 	O 	0.61762	0.57511	0.78129	-0.541
Mof_O 	O 	0.35624	0.48651	0.05884	-0.463
Mof_O 	O 	0.44108	0.56358	0.10933	-0.453
Mof_O 	O 	0.70688	0.78927	0.89754	-0.436
Mof_O 	O 	0.23323	0.03749	0.65769	-0.418
Mof_O 	O 	0.58327	0.66518	0.90175	-0.542
Mof_O 	O 	0.29256	0.93827	0.70567	-0.439
Mof_O 	O 	0.72424	0.69334	0.82272	-0.415
Mof_O 	O 	0.50442	0.73206	0.51491	-0.355
Mof_O 	O 	0.62206	0.7002	0.53787	-0.419
Mof_C 	C 	0.40647	0.53507	0.05378	0.337
Mof_N 	N 	0.54017	0.83592	0.86642	-0.186
Mof_C 	C 	0.47389	0.6077	0.84402	-0.067
Mof_C 	C 	0.38521	0.54232	0.91955	-0.037
Mof_H 	H 	0.3406	0.5134	0.9236	0.04
Mof_C 	C 	0.49257	0.60428	0.97431	-0.141
Mof_H 	H 	0.5205	0.619	0.0169	0.09
Mof_N 	N 	0.46149	0.91721	0.77642	-0.199
Mof_C 	C 	0.51724	0.6263	0.90698	0.172
Mof_C 	C 	0.42785	0.56104	0.9812	-0.036
Mof_C 	C 	0.74283	0.75424	0.84943	0.219
Mof_C 	C 	0.44253	0.67073	0.726	-0.009
Mof_H 	H 	0.393	0.6796	0.7429	0.027
Mof_C 	C 	0.58702	0.64544	0.67679	-0.17
Mof_H 	H 	0.637	0.6379	0.6604	0.104
Mof_C 	C 	0.53387	0.68341	0.63254	-0.005
Mof_C 	C 	0.81291	0.79032	0.82129	0.268
Mof_C 	C 	0.56744	0.61894	0.74401	0.202
Mof_C 	C 	0.23354	0.97605	0.68816	0.24
Mof_C 	C 	0.40777	0.56593	0.85166	-0.04
Mof_H 	H 	0.3778	0.5535	0.8096	0.033
Mof_C 	C 	0.55391	0.70719	0.55793	0.271
Mof_C 	C 	0.49517	0.63309	0.77079	-0.086
Mof_C 	C 	0.45987	0.81164	0.8622	-0.068
Mof_H 	H 	0.4574	0.7592	0.8475	0.042
Mof_H 	H 	0.4376	0.8161	0.9108	0.05
Mof_C 	C 	0.46105	0.69517	0.65783	-0.072
Mof_H 	H 	0.4242	0.7201	0.6281	0.06
Mof_C 	C 	0.4938	0.96156	0.8374	-0.051
Mof_H 	H 	0.526	0.0012	0.8178	0.03
Mof_H 	H 	0.452	0.9851	0.8637	0.029
Mof_C 	C 	0.57175	0.8328	0.79278	-0.059
Mof_H 	H 	0.6252	0.8497	0.7951	0.036
Mof_H 	H 	0.571	0.7812	0.7752	0.038
Mof_C 	C 	0.52608	0.88105	0.73978	-0.06
Mof_H 	H 	0.5062	0.8505	0.6988	0.042
Mof_H 	H 	0.5596	0.9193	0.7197	0.032
Mof_C 	C 	0.85992	0.74935	0.77773	-0.498
Mof_H 	H 	0.8467	0.7001	0.7651	0.203
Mof_C 	C 	0.83182	0.86181	0.8385	-0.587
Mof_H 	H 	0.7997	0.8905	0.8679	0.213
Mof_C 	C 	0.54159	0.91405	0.89076	-0.053
Mof_H 	H 	0.521	0.9177	0.9401	0.032
Mof_H 	H 	0.5946	0.9322	0.893	0.026
Mof_C 	C 	0.41375	0.85816	0.80741	-0.049
Mof_H 	H 	0.3701	0.8806	0.8318	0.025
Mof_H 	H 	0.3936	0.8262	0.7677	0.026
Mof_C 	C 	0.15946	0.94342	0.7075	0.258
Mof_C 	C 	0.92617	0.7799	0.7525	0.598
Mof_C 	C 	0.9467	0.8518	0.7707	-0.369
Mof_C 	C 	0.09279	0.9805	0.6934	-0.501
Mof_H 	H 	0.0939	0.0273	0.6701	0.201
Mof_C 	C 	0.8982	0.89179	0.8126	0.77
Mof_H 	H 	0.9105	0.9415	0.8241	-0.964
Mof_C 	C 	0.02043	0.8832	0.7473	-0.377
Mof_C 	C 	0.0876	0.8464	0.7613	0.764
Mof_H 	H 	0.0864	0.7998	0.7848	-0.939
Mof_C 	C 	0.157	0.8751	0.742	-0.56
Mof_H 	H 	0.2025	0.8485	0.7523	0.228
Mof_O 	O 	0.9702	0.7396	0.7067	0.585
Mof_H 	H 	0.9501	0.6981	0.6993	-0.11
Mof_O 	O 	0.95799	0.9906	0.6975	0.594
Mof_H 	H 	0.9693	0.0329	0.6826	-0.117
Mof_C 	C 	0.02386	0.9509	0.7125	0.617
Mof_O 	O 	0.0899	0.7799	0.8025	0.862
Mof_H 	H 	0.1334	0.7612	0.801	-0.215
Mof_O 	O 	0.9092	0.9667	0.8315	0.87
Mof_H 	H 	0.919	0.9911	0.7941	-0.192
Mof_H 	H 	0.9579	0.7515	0.7225	-0.697
Mof_H 	H 	0.9783	0.9772	0.7017	-0.692
Mof_Co	Co	0.39672	0.97255	0.69795	1.15
Mof_Co	Co	0.32123	0.10469	0.6256	1.145
Mof_Co	Co	0.39533	0.26514	0.56495	1.153
Mof_O 	O 	0.38238	0.07511	0.71871	-0.54
Mof_O 	O 	0.64376	0.98651	0.44116	-0.462
Mof_O 	O 	0.55892	0.06358	0.39067	-0.453
Mof_O 	O 	0.29312	0.28927	0.60246	-0.436
Mof_O 	O 	0.76677	0.53749	0.84231	-0.42
Mof_O 	O 	0.41673	0.16518	0.59825	-0.541
Mof_O 	O 	0.70744	0.43827	0.79433	-0.439
Mof_O 	O 	0.27576	0.19334	0.67728	-0.415
Mof_O 	O 	0.49558	0.23206	0.98509	-0.354
Mof_O 	O 	0.37794	0.2002	0.96213	-0.418
Mof_C 	C 	0.59353	0.03507	0.44622	0.336
Mof_N 	N 	0.45983	0.33592	0.63358	-0.185
Mof_C 	C 	0.52611	0.1077	0.65598	-0.066
Mof_C 	C 	0.61479	0.04232	0.58045	-0.036
Mof_H 	H 	0.6594	0.0134	0.5764	0.04
Mof_C 	C 	0.50743	0.10428	0.52569	-0.14
Mof_H 	H 	0.4795	0.119	0.4831	0.089
Mof_N 	N 	0.53851	0.41721	0.72358	-0.199
Mof_C 	C 	0.48276	0.1263	0.59302	0.171
Mof_C 	C 	0.57215	0.06104	0.5188	-0.036
Mof_C 	C 	0.25717	0.25424	0.65057	0.219
Mof_C 	C 	0.55747	0.17073	0.774	-0.009
Mof_H 	H 	0.607	0.1796	0.7571	0.027
Mof_C 	C 	0.41298	0.14544	0.82321	-0.17
Mof_H 	H 	0.363	0.1379	0.8396	0.104
Mof_C 	C 	0.46613	0.18341	0.86746	-0.004
Mof_C 	C 	0.18709	0.29032	0.67871	0.268
Mof_C 	C 	0.43256	0.11894	0.75599	0.202
Mof_C 	C 	0.76646	0.47605	0.81184	0.243
Mof_C 	C 	0.59223	0.06593	0.64834	-0.041
Mof_H 	H 	0.6222	0.0535	0.6904	0.033
Mof_C 	C 	0.44609	0.20719	0.94207	0.271
Mof_C 	C 	0.50483	0.13309	0.72921	-0.086
Mof_C 	C 	0.54013	0.31164	0.6378	-0.068
Mof_H 	H 	0.5426	0.2592	0.6525	0.042
Mof_H 	H 	0.5624	0.3161	0.5892	0.05
Mof_C 	C 	0.53895	0.19517	0.84217	-0.072
Mof_H 	H 	0.5758	0.2201	0.8719	0.06
Mof_C 	C 	0.5062	0.46156	0.6626	-0.047
Mof_H 	H 	0.474	0.5012	0.6822	0.028
Mof_H 	H 	0.548	0.4851	0.6363	0.029
Mof_C 	C 	0.42825	0.3328	0.70722	-0.059
Mof_H 	H 	0.3748	0.3497	0.7049	0.037
Mof_H 	H 	0.429	0.2812	0.7248	0.038
Mof_C 	C 	0.47392	0.38105	0.76022	-0.06
Mof_H 	H 	0.4938	0.3505	0.8012	0.042
Mof_H 	H 	0.4404	0.4193	0.7803	0.032
Mof_C 	C 	0.14008	0.24935	0.72227	-0.497
Mof_H 	H 	0.1533	0.2001	0.7349	0.204
Mof_C 	C 	0.16818	0.36181	0.6615	-0.586
Mof_H 	H 	0.2003	0.3905	0.6321	0.213
Mof_C 	C 	0.45841	0.41405	0.60924	-0.055
Mof_H 	H 	0.479	0.4177	0.5599	0.033
Mof_H 	H 	0.4054	0.4322	0.607	0.027
Mof_C 	C 	0.58625	0.35816	0.69259	-0.049
Mof_H 	H 	0.6299	0.3806	0.6682	0.026
Mof_H 	H 	0.6064	0.3262	0.7323	0.026
Mof_C 	C 	0.84054	0.44342	0.7925	0.255
Mof_C 	C 	0.07383	0.2799	0.7475	0.598
Mof_C 	C 	0.0533	0.3518	0.7293	-0.369
Mof_C 	C 	0.90721	0.4805	0.8066	-0.496
Mof_H 	H 	0.9061	0.5273	0.8299	0.198
Mof_C 	C 	0.1018	0.39179	0.6874	0.769
Mof_H 	H 	0.0895	0.4415	0.6759	-0.964
Mof_C 	C 	0.97957	0.3832	0.7527	-0.377
Mof_C 	C 	0.9124	0.3464	0.7387	0.763
Mof_H 	H 	0.9136	0.2998	0.7152	-0.939
Mof_C 	C 	0.843	0.3751	0.758	-0.559
Mof_H 	H 	0.7975	0.3485	0.7477	0.227
Mof_O 	O 	0.0298	0.2396	0.7933	0.585
Mof_H 	H 	0.0499	0.1981	0.8007	-0.11
Mof_O 	O 	0.04201	0.4906	0.8025	0.595
Mof_H 	H 	0.0307	0.5329	0.8174	-0.118
Mof_C 	C 	0.97614	0.4509	0.7875	0.616
Mof_O 	O 	0.9101	0.2799	0.6975	0.862
Mof_H 	H 	0.8666	0.2612	0.699	-0.215
Mof_O 	O 	0.0908	0.4667	0.6685	0.87
Mof_H 	H 	0.081	0.4911	0.7059	-0.192
Mof_H 	H 	0.0421	0.2515	0.7775	-0.697
Mof_H 	H 	0.0217	0.4772	0.7983	-0.692
_end
