data_functionalizedCrystal
_audit_creation_method	'EQeq! by Chris Wilmer'
_symmetry_space_group_name_H-M	'P1'
_symmetry_Int_Tables_number	1
_symmetry_cell_setting	triclinic
loop_
_symmetry_equiv_pos_as_xyz
  x,y,z
_cell_length_a	44.588
_cell_length_b	44.588
_cell_length_c	44.588
_cell_angle_alpha	90
_cell_angle_beta	90
_cell_angle_gamma	90
loop_
_atom_site_label
_atom_site_type_symbol
_atom_site_fract_x
_atom_site_fract_y
_atom_site_fract_z
_atom_site_charge
Mof_O 	O 	0.35738	0.96918	0.18628	-0.406
Mof_C 	C 	0.39709	0.93519	0.19025	-0.077
Mof_C 	C 	0.38087	0.95974	0.1746	0.362
Mof_C 	C 	0.37178	0.9059	0.2821	0.028
Mof_H 	H 	0.3595	0.9223	0.2765	0.023
Mof_N 	N 	0.36915	0.8904	0.30802	-0.152
Mof_O 	O 	0.39242	0.9692	0.1507	-0.382
Mof_C 	C 	0.38994	0.9269	0.2208	-0.006
Mof_H 	H 	0.3755	0.9382	0.2316	0.031
Mof_C 	C 	0.3833	0.922	0.2143	-0.016
Mof_H 	H 	0.3653	0.9301	0.2223	0.038
Mof_C 	C 	0.3605	0.8933	0.2724	0.005
Mof_H 	H 	0.3471	0.9089	0.2667	0.019
Mof_N 	N 	0.3572	0.8772	0.2962	-0.158
Mof_O 	O 	0.35738	0.46918	0.68628	-0.408
Mof_C 	C 	0.39709	0.43519	0.69025	-0.077
Mof_C 	C 	0.38087	0.45974	0.6746	0.362
Mof_C 	C 	0.37178	0.4059	0.7821	0.028
Mof_H 	H 	0.3595	0.4223	0.7765	0.023
Mof_N 	N 	0.36915	0.3904	0.80802	-0.152
Mof_O 	O 	0.39242	0.4692	0.6507	-0.383
Mof_C 	C 	0.38994	0.4269	0.7208	-0.006
Mof_H 	H 	0.3755	0.4382	0.7316	0.03
Mof_C 	C 	0.3833	0.422	0.7143	-0.016
Mof_H 	H 	0.3653	0.4301	0.7223	0.038
Mof_C 	C 	0.3605	0.3933	0.7724	0.006
Mof_H 	H 	0.3471	0.4089	0.7667	0.019
Mof_N 	N 	0.3572	0.3772	0.7962	-0.158
Mof_O 	O 	0.85738	0.96918	0.68628	-0.406
Mof_C 	C 	0.89709	0.93519	0.69025	-0.077
Mof_C 	C 	0.88087	0.95974	0.6746	0.362
Mof_C 	C 	0.87178	0.9059	0.7821	0.029
Mof_H 	H 	0.8595	0.9223	0.7765	0.022
Mof_N 	N 	0.86915	0.8904	0.80802	-0.152
Mof_O 	O 	0.89242	0.9692	0.6507	-0.382
Mof_C 	C 	0.88994	0.9269	0.7208	-0.007
Mof_H 	H 	0.8755	0.9382	0.7316	0.031
Mof_C 	C 	0.8833	0.922	0.7143	-0.015
Mof_H 	H 	0.8653	0.9301	0.7223	0.037
Mof_C 	C 	0.8605	0.8933	0.7724	0.004
Mof_H 	H 	0.8471	0.9089	0.7667	0.02
Mof_N 	N 	0.8572	0.8772	0.7962	-0.158
Mof_O 	O 	0.85738	0.46918	0.18628	-0.408
Mof_C 	C 	0.89709	0.43519	0.19025	-0.077
Mof_C 	C 	0.88087	0.45974	0.1746	0.362
Mof_C 	C 	0.87178	0.4059	0.2821	0.029
Mof_H 	H 	0.8595	0.4223	0.2765	0.022
Mof_N 	N 	0.86915	0.3904	0.30802	-0.152
Mof_O 	O 	0.89242	0.4692	0.1507	-0.383
Mof_C 	C 	0.88994	0.4269	0.2208	-0.006
Mof_H 	H 	0.8755	0.4382	0.2316	0.03
Mof_C 	C 	0.8833	0.422	0.2143	-0.016
Mof_H 	H 	0.8653	0.4301	0.2223	0.038
Mof_C 	C 	0.8605	0.3933	0.2724	0.005
Mof_H 	H 	0.8471	0.4089	0.2667	0.019
Mof_N 	N 	0.8572	0.3772	0.2962	-0.158
Mof_O 	O 	0.64262	0.03082	0.18628	-0.409
Mof_C 	C 	0.60291	0.06481	0.19025	-0.078
Mof_C 	C 	0.61913	0.04026	0.1746	0.362
Mof_C 	C 	0.62822	0.0941	0.2821	0.027
Mof_H 	H 	0.6405	0.0777	0.2765	0.022
Mof_N 	N 	0.63085	0.1096	0.30802	-0.152
Mof_O 	O 	0.60758	0.0308	0.1507	-0.383
Mof_C 	C 	0.61006	0.0731	0.2208	-0.005
Mof_H 	H 	0.6245	0.0618	0.2316	0.029
Mof_C 	C 	0.6167	0.078	0.2143	-0.017
Mof_H 	H 	0.6347	0.0699	0.2223	0.038
Mof_C 	C 	0.6395	0.1067	0.2724	0.006
Mof_H 	H 	0.6529	0.0911	0.2667	0.019
Mof_N 	N 	0.6428	0.1228	0.2962	-0.158
Mof_O 	O 	0.64262	0.53082	0.68628	-0.408
Mof_C 	C 	0.60291	0.56481	0.69025	-0.078
Mof_C 	C 	0.61913	0.54026	0.6746	0.362
Mof_C 	C 	0.62822	0.5941	0.7821	0.028
Mof_H 	H 	0.6405	0.5777	0.7765	0.022
Mof_N 	N 	0.63085	0.6096	0.80802	-0.152
Mof_O 	O 	0.60758	0.5308	0.6507	-0.383
Mof_C 	C 	0.61006	0.5731	0.7208	-0.006
Mof_H 	H 	0.6245	0.5618	0.7316	0.03
Mof_C 	C 	0.6167	0.578	0.7143	-0.016
Mof_H 	H 	0.6347	0.5699	0.7223	0.038
Mof_C 	C 	0.6395	0.6067	0.7724	0.006
Mof_H 	H 	0.6529	0.5911	0.7667	0.019
Mof_N 	N 	0.6428	0.6228	0.7962	-0.158
Mof_O 	O 	0.14262	0.03082	0.68628	-0.409
Mof_C 	C 	0.10291	0.06481	0.69025	-0.078
Mof_C 	C 	0.11913	0.04026	0.6746	0.362
Mof_C 	C 	0.12822	0.0941	0.7821	0.026
Mof_H 	H 	0.1405	0.0777	0.7765	0.023
Mof_N 	N 	0.13085	0.1096	0.80802	-0.152
Mof_O 	O 	0.10758	0.0308	0.6507	-0.383
Mof_C 	C 	0.11006	0.0731	0.7208	-0.005
Mof_H 	H 	0.1245	0.0618	0.7316	0.029
Mof_C 	C 	0.1167	0.078	0.7143	-0.017
Mof_H 	H 	0.1347	0.0699	0.7223	0.038
Mof_C 	C 	0.1395	0.1067	0.7724	0.007
Mof_H 	H 	0.1529	0.0911	0.7667	0.019
Mof_N 	N 	0.1428	0.1228	0.7962	-0.158
Mof_O 	O 	0.14262	0.53082	0.18628	-0.408
Mof_C 	C 	0.10291	0.56481	0.19025	-0.078
Mof_C 	C 	0.11913	0.54026	0.1746	0.362
Mof_C 	C 	0.12822	0.5941	0.2821	0.027
Mof_H 	H 	0.1405	0.5777	0.2765	0.023
Mof_N 	N 	0.13085	0.6096	0.30802	-0.152
Mof_O 	O 	0.10758	0.5308	0.1507	-0.383
Mof_C 	C 	0.11006	0.5731	0.2208	-0.005
Mof_H 	H 	0.1245	0.5618	0.2316	0.03
Mof_C 	C 	0.1167	0.578	0.2143	-0.017
Mof_H 	H 	0.1347	0.5699	0.2223	0.038
Mof_C 	C 	0.1395	0.6067	0.2724	0.007
Mof_H 	H 	0.1529	0.5911	0.2667	0.019
Mof_N 	N 	0.1428	0.6228	0.2962	-0.158
Mof_O 	O 	0.64262	0.96918	0.81372	-0.406
Mof_C 	C 	0.60291	0.93519	0.80975	-0.077
Mof_C 	C 	0.61913	0.95974	0.8254	0.362
Mof_C 	C 	0.62822	0.9059	0.7179	0.028
Mof_H 	H 	0.6405	0.9223	0.7235	0.023
Mof_N 	N 	0.63085	0.8904	0.69198	-0.152
Mof_O 	O 	0.60758	0.9692	0.8493	-0.382
Mof_C 	C 	0.61006	0.9269	0.7792	-0.006
Mof_H 	H 	0.6245	0.9382	0.7684	0.031
Mof_C 	C 	0.6167	0.922	0.7857	-0.016
Mof_H 	H 	0.6347	0.9301	0.7777	0.038
Mof_C 	C 	0.6395	0.8933	0.7276	0.005
Mof_H 	H 	0.6529	0.9089	0.7333	0.019
Mof_N 	N 	0.6428	0.8772	0.7038	-0.158
Mof_O 	O 	0.64262	0.46918	0.31372	-0.408
Mof_C 	C 	0.60291	0.43519	0.30975	-0.077
Mof_C 	C 	0.61913	0.45974	0.3254	0.362
Mof_C 	C 	0.62822	0.4059	0.2179	0.028
Mof_H 	H 	0.6405	0.4223	0.2235	0.023
Mof_N 	N 	0.63085	0.3904	0.19198	-0.152
Mof_O 	O 	0.60758	0.4692	0.3493	-0.383
Mof_C 	C 	0.61006	0.4269	0.2792	-0.006
Mof_H 	H 	0.6245	0.4382	0.2684	0.03
Mof_C 	C 	0.6167	0.422	0.2857	-0.016
Mof_H 	H 	0.6347	0.4301	0.2777	0.038
Mof_C 	C 	0.6395	0.3933	0.2276	0.006
Mof_H 	H 	0.6529	0.4089	0.2333	0.019
Mof_N 	N 	0.6428	0.3772	0.2038	-0.158
Mof_O 	O 	0.14262	0.96918	0.31372	-0.406
Mof_C 	C 	0.10291	0.93519	0.30975	-0.077
Mof_C 	C 	0.11913	0.95974	0.3254	0.362
Mof_C 	C 	0.12822	0.9059	0.2179	0.027
Mof_H 	H 	0.1405	0.9223	0.2235	0.023
Mof_N 	N 	0.13085	0.8904	0.19198	-0.152
Mof_O 	O 	0.10758	0.9692	0.3493	-0.382
Mof_C 	C 	0.11006	0.9269	0.2792	-0.006
Mof_H 	H 	0.1245	0.9382	0.2684	0.03
Mof_C 	C 	0.1167	0.922	0.2857	-0.016
Mof_H 	H 	0.1347	0.9301	0.2777	0.038
Mof_C 	C 	0.1395	0.8933	0.2276	0.006
Mof_H 	H 	0.1529	0.9089	0.2333	0.019
Mof_N 	N 	0.1428	0.8772	0.2038	-0.158
Mof_O 	O 	0.14262	0.46918	0.81372	-0.408
Mof_C 	C 	0.10291	0.43519	0.80975	-0.078
Mof_C 	C 	0.11913	0.45974	0.8254	0.362
Mof_C 	C 	0.12822	0.4059	0.7179	0.027
Mof_H 	H 	0.1405	0.4223	0.7235	0.023
Mof_N 	N 	0.13085	0.3904	0.69198	-0.152
Mof_O 	O 	0.10758	0.4692	0.8493	-0.383
Mof_C 	C 	0.11006	0.4269	0.7792	-0.005
Mof_H 	H 	0.1245	0.4382	0.7684	0.03
Mof_C 	C 	0.1167	0.422	0.7857	-0.017
Mof_H 	H 	0.1347	0.4301	0.7777	0.038
Mof_C 	C 	0.1395	0.3933	0.7276	0.006
Mof_H 	H 	0.1529	0.4089	0.7333	0.019
Mof_N 	N 	0.1428	0.3772	0.7038	-0.158
Mof_O 	O 	0.35738	0.03082	0.81372	-0.409
Mof_C 	C 	0.39709	0.06481	0.80975	-0.078
Mof_C 	C 	0.38087	0.04026	0.8254	0.362
Mof_C 	C 	0.37178	0.0941	0.7179	0.027
Mof_H 	H 	0.3595	0.0777	0.7235	0.022
Mof_N 	N 	0.36915	0.1096	0.69198	-0.152
Mof_O 	O 	0.39242	0.0308	0.8493	-0.383
Mof_C 	C 	0.38994	0.0731	0.7792	-0.005
Mof_H 	H 	0.3755	0.0618	0.7684	0.029
Mof_C 	C 	0.3833	0.078	0.7857	-0.017
Mof_H 	H 	0.3653	0.0699	0.7777	0.037
Mof_C 	C 	0.3605	0.1067	0.7276	0.005
Mof_H 	H 	0.3471	0.0911	0.7333	0.018
Mof_N 	N 	0.3572	0.1228	0.7038	-0.159
Mof_O 	O 	0.35738	0.53082	0.31372	-0.409
Mof_C 	C 	0.39709	0.56481	0.30975	-0.078
Mof_C 	C 	0.38087	0.54026	0.3254	0.361
Mof_C 	C 	0.37178	0.5941	0.2179	0.027
Mof_H 	H 	0.3595	0.5777	0.2235	0.022
Mof_N 	N 	0.36915	0.6096	0.19198	-0.153
Mof_O 	O 	0.39242	0.5308	0.3493	-0.384
Mof_C 	C 	0.38994	0.5731	0.2792	-0.007
Mof_H 	H 	0.3755	0.5618	0.2684	0.029
Mof_C 	C 	0.3833	0.578	0.2857	-0.017
Mof_H 	H 	0.3653	0.5699	0.2777	0.037
Mof_C 	C 	0.3605	0.6067	0.2276	0.005
Mof_H 	H 	0.3471	0.5911	0.2333	0.018
Mof_N 	N 	0.3572	0.6228	0.2038	-0.159
Mof_O 	O 	0.85738	0.03082	0.31372	-0.41
Mof_C 	C 	0.89709	0.06481	0.30975	-0.079
Mof_C 	C 	0.88087	0.04026	0.3254	0.361
Mof_C 	C 	0.87178	0.0941	0.2179	0.027
Mof_H 	H 	0.8595	0.0777	0.2235	0.021
Mof_N 	N 	0.86915	0.1096	0.19198	-0.153
Mof_O 	O 	0.89242	0.0308	0.3493	-0.384
Mof_C 	C 	0.88994	0.0731	0.2792	-0.007
Mof_H 	H 	0.8755	0.0618	0.2684	0.029
Mof_C 	C 	0.8833	0.078	0.2857	-0.017
Mof_H 	H 	0.8653	0.0699	0.2777	0.037
Mof_C 	C 	0.8605	0.1067	0.2276	0.004
Mof_H 	H 	0.8471	0.0911	0.2333	0.018
Mof_N 	N 	0.8572	0.1228	0.2038	-0.159
Mof_O 	O 	0.85738	0.53082	0.81372	-0.409
Mof_C 	C 	0.89709	0.56481	0.80975	-0.078
Mof_C 	C 	0.88087	0.54026	0.8254	0.361
Mof_C 	C 	0.87178	0.5941	0.7179	0.028
Mof_H 	H 	0.8595	0.5777	0.7235	0.021
Mof_N 	N 	0.86915	0.6096	0.69198	-0.153
Mof_O 	O 	0.89242	0.5308	0.8493	-0.384
Mof_C 	C 	0.88994	0.5731	0.7792	-0.007
Mof_H 	H 	0.8755	0.5618	0.7684	0.029
Mof_C 	C 	0.8833	0.578	0.7857	-0.017
Mof_H 	H 	0.8653	0.5699	0.7777	0.037
Mof_C 	C 	0.8605	0.6067	0.7276	0.004
Mof_H 	H 	0.8471	0.5911	0.7333	0.018
Mof_N 	N 	0.8572	0.6228	0.7038	-0.159
Mof_O 	O 	0.18628	0.35738	0.96918	-0.407
Mof_C 	C 	0.19025	0.39709	0.93519	-0.078
Mof_C 	C 	0.1746	0.38087	0.95974	0.361
Mof_C 	C 	0.2821	0.37178	0.9059	0.027
Mof_H 	H 	0.2765	0.3595	0.9223	0.022
Mof_N 	N 	0.30802	0.36915	0.8904	-0.153
Mof_O 	O 	0.1507	0.39242	0.9692	-0.383
Mof_C 	C 	0.2208	0.38994	0.9269	-0.007
Mof_H 	H 	0.2316	0.3755	0.9382	0.03
Mof_C 	C 	0.2143	0.3833	0.922	-0.017
Mof_H 	H 	0.2223	0.3653	0.9301	0.037
Mof_C 	C 	0.2724	0.3605	0.8933	0.004
Mof_H 	H 	0.2667	0.3471	0.9089	0.018
Mof_N 	N 	0.2962	0.3572	0.8772	-0.159
Mof_O 	O 	0.18628	0.85738	0.46918	-0.409
Mof_C 	C 	0.19025	0.89709	0.43519	-0.078
Mof_C 	C 	0.1746	0.88087	0.45974	0.361
Mof_C 	C 	0.2821	0.87178	0.4059	0.028
Mof_H 	H 	0.2765	0.8595	0.4223	0.021
Mof_N 	N 	0.30802	0.86915	0.3904	-0.153
Mof_O 	O 	0.1507	0.89242	0.4692	-0.384
Mof_C 	C 	0.2208	0.88994	0.4269	-0.007
Mof_H 	H 	0.2316	0.8755	0.4382	0.029
Mof_C 	C 	0.2143	0.8833	0.422	-0.017
Mof_H 	H 	0.2223	0.8653	0.4301	0.037
Mof_C 	C 	0.2724	0.8605	0.3933	0.004
Mof_H 	H 	0.2667	0.8471	0.4089	0.018
Mof_N 	N 	0.2962	0.8572	0.3772	-0.159
Mof_O 	O 	0.68628	0.35738	0.46918	-0.409
Mof_C 	C 	0.69025	0.39709	0.43519	-0.078
Mof_C 	C 	0.6746	0.38087	0.45974	0.361
Mof_C 	C 	0.7821	0.37178	0.4059	0.027
Mof_H 	H 	0.7765	0.3595	0.4223	0.022
Mof_N 	N 	0.80802	0.36915	0.3904	-0.153
Mof_O 	O 	0.6507	0.39242	0.4692	-0.384
Mof_C 	C 	0.7208	0.38994	0.4269	-0.007
Mof_H 	H 	0.7316	0.3755	0.4382	0.029
Mof_C 	C 	0.7143	0.3833	0.422	-0.017
Mof_H 	H 	0.7223	0.3653	0.4301	0.037
Mof_C 	C 	0.7724	0.3605	0.3933	0.005
Mof_H 	H 	0.7667	0.3471	0.4089	0.018
Mof_N 	N 	0.7962	0.3572	0.3772	-0.159
Mof_O 	O 	0.68628	0.85738	0.96918	-0.407
Mof_C 	C 	0.69025	0.89709	0.93519	-0.078
Mof_C 	C 	0.6746	0.88087	0.95974	0.361
Mof_C 	C 	0.7821	0.87178	0.9059	0.028
Mof_H 	H 	0.7765	0.8595	0.9223	0.021
Mof_N 	N 	0.80802	0.86915	0.8904	-0.153
Mof_O 	O 	0.6507	0.89242	0.9692	-0.383
Mof_C 	C 	0.7208	0.88994	0.9269	-0.008
Mof_H 	H 	0.7316	0.8755	0.9382	0.03
Mof_C 	C 	0.7143	0.8833	0.922	-0.016
Mof_H 	H 	0.7223	0.8653	0.9301	0.036
Mof_C 	C 	0.7724	0.8605	0.8933	0.003
Mof_H 	H 	0.7667	0.8471	0.9089	0.019
Mof_N 	N 	0.7962	0.8572	0.8772	-0.159
Mof_O 	O 	0.18628	0.64262	0.03082	-0.41
Mof_C 	C 	0.19025	0.60291	0.06481	-0.079
Mof_C 	C 	0.1746	0.61913	0.04026	0.361
Mof_C 	C 	0.2821	0.62822	0.0941	0.026
Mof_H 	H 	0.2765	0.6405	0.0777	0.021
Mof_N 	N 	0.30802	0.63085	0.1096	-0.153
Mof_O 	O 	0.1507	0.60758	0.0308	-0.384
Mof_C 	C 	0.2208	0.61006	0.0731	-0.006
Mof_H 	H 	0.2316	0.6245	0.0618	0.028
Mof_C 	C 	0.2143	0.6167	0.078	-0.018
Mof_H 	H 	0.2223	0.6347	0.0699	0.037
Mof_C 	C 	0.2724	0.6395	0.1067	0.005
Mof_H 	H 	0.2667	0.6529	0.0911	0.018
Mof_N 	N 	0.2962	0.6428	0.1228	-0.159
Mof_O 	O 	0.18628	0.14262	0.53082	-0.409
Mof_C 	C 	0.19025	0.10291	0.56481	-0.079
Mof_C 	C 	0.1746	0.11913	0.54026	0.361
Mof_C 	C 	0.2821	0.12822	0.5941	0.026
Mof_H 	H 	0.2765	0.1405	0.5777	0.022
Mof_N 	N 	0.30802	0.13085	0.6096	-0.153
Mof_O 	O 	0.1507	0.10758	0.5308	-0.384
Mof_C 	C 	0.2208	0.11006	0.5731	-0.006
Mof_H 	H 	0.2316	0.1245	0.5618	0.029
Mof_C 	C 	0.2143	0.1167	0.578	-0.018
Mof_H 	H 	0.2223	0.1347	0.5699	0.037
Mof_C 	C 	0.2724	0.1395	0.6067	0.006
Mof_H 	H 	0.2667	0.1529	0.5911	0.018
Mof_N 	N 	0.2962	0.1428	0.6228	-0.159
Mof_O 	O 	0.68628	0.64262	0.53082	-0.409
Mof_C 	C 	0.69025	0.60291	0.56481	-0.079
Mof_C 	C 	0.6746	0.61913	0.54026	0.361
Mof_C 	C 	0.7821	0.62822	0.5941	0.027
Mof_H 	H 	0.7765	0.6405	0.5777	0.021
Mof_N 	N 	0.80802	0.63085	0.6096	-0.153
Mof_O 	O 	0.6507	0.60758	0.5308	-0.384
Mof_C 	C 	0.7208	0.61006	0.5731	-0.007
Mof_H 	H 	0.7316	0.6245	0.5618	0.029
Mof_C 	C 	0.7143	0.6167	0.578	-0.017
Mof_H 	H 	0.7223	0.6347	0.5699	0.037
Mof_C 	C 	0.7724	0.6395	0.6067	0.005
Mof_H 	H 	0.7667	0.6529	0.5911	0.018
Mof_N 	N 	0.7962	0.6428	0.6228	-0.159
Mof_O 	O 	0.68628	0.14262	0.03082	-0.41
Mof_C 	C 	0.69025	0.10291	0.06481	-0.079
Mof_C 	C 	0.6746	0.11913	0.04026	0.361
Mof_C 	C 	0.7821	0.12822	0.0941	0.025
Mof_H 	H 	0.7765	0.1405	0.0777	0.022
Mof_N 	N 	0.80802	0.13085	0.1096	-0.153
Mof_O 	O 	0.6507	0.10758	0.0308	-0.384
Mof_C 	C 	0.7208	0.11006	0.0731	-0.006
Mof_H 	H 	0.7316	0.1245	0.0618	0.028
Mof_C 	C 	0.7143	0.1167	0.078	-0.018
Mof_H 	H 	0.7223	0.1347	0.0699	0.037
Mof_C 	C 	0.7724	0.1395	0.1067	0.006
Mof_H 	H 	0.7667	0.1529	0.0911	0.018
Mof_N 	N 	0.7962	0.1428	0.1228	-0.159
Mof_O 	O 	0.81372	0.64262	0.96918	-0.407
Mof_C 	C 	0.80975	0.60291	0.93519	-0.078
Mof_C 	C 	0.8254	0.61913	0.95974	0.361
Mof_C 	C 	0.7179	0.62822	0.9059	0.027
Mof_H 	H 	0.7235	0.6405	0.9223	0.022
Mof_N 	N 	0.69198	0.63085	0.8904	-0.153
Mof_O 	O 	0.8493	0.60758	0.9692	-0.383
Mof_C 	C 	0.7792	0.61006	0.9269	-0.007
Mof_H 	H 	0.7684	0.6245	0.9382	0.03
Mof_C 	C 	0.7857	0.6167	0.922	-0.017
Mof_H 	H 	0.7777	0.6347	0.9301	0.037
Mof_C 	C 	0.7276	0.6395	0.8933	0.004
Mof_H 	H 	0.7333	0.6529	0.9089	0.018
Mof_N 	N 	0.7038	0.6428	0.8772	-0.159
Mof_O 	O 	0.81372	0.14262	0.46918	-0.409
Mof_C 	C 	0.80975	0.10291	0.43519	-0.079
Mof_C 	C 	0.8254	0.11913	0.45974	0.361
Mof_C 	C 	0.7179	0.12822	0.4059	0.026
Mof_H 	H 	0.7235	0.1405	0.4223	0.022
Mof_N 	N 	0.69198	0.13085	0.3904	-0.153
Mof_O 	O 	0.8493	0.10758	0.4692	-0.384
Mof_C 	C 	0.7792	0.11006	0.4269	-0.006
Mof_H 	H 	0.7684	0.1245	0.4382	0.029
Mof_C 	C 	0.7857	0.1167	0.422	-0.018
Mof_H 	H 	0.7777	0.1347	0.4301	0.037
Mof_C 	C 	0.7276	0.1395	0.3933	0.005
Mof_H 	H 	0.7333	0.1529	0.4089	0.018
Mof_N 	N 	0.7038	0.1428	0.3772	-0.159
Mof_O 	O 	0.31372	0.64262	0.46918	-0.409
Mof_C 	C 	0.30975	0.60291	0.43519	-0.078
Mof_C 	C 	0.3254	0.61913	0.45974	0.361
Mof_C 	C 	0.2179	0.62822	0.4059	0.027
Mof_H 	H 	0.2235	0.6405	0.4223	0.022
Mof_N 	N 	0.19198	0.63085	0.3904	-0.153
Mof_O 	O 	0.3493	0.60758	0.4692	-0.384
Mof_C 	C 	0.2792	0.61006	0.4269	-0.007
Mof_H 	H 	0.2684	0.6245	0.4382	0.029
Mof_C 	C 	0.2857	0.6167	0.422	-0.017
Mof_H 	H 	0.2777	0.6347	0.4301	0.037
Mof_C 	C 	0.2276	0.6395	0.3933	0.005
Mof_H 	H 	0.2333	0.6529	0.4089	0.018
Mof_N 	N 	0.2038	0.6428	0.3772	-0.159
Mof_O 	O 	0.31372	0.14262	0.96918	-0.407
Mof_C 	C 	0.30975	0.10291	0.93519	-0.078
Mof_C 	C 	0.3254	0.11913	0.95974	0.361
Mof_C 	C 	0.2179	0.12822	0.9059	0.026
Mof_H 	H 	0.2235	0.1405	0.9223	0.022
Mof_N 	N 	0.19198	0.13085	0.8904	-0.153
Mof_O 	O 	0.3493	0.10758	0.9692	-0.383
Mof_C 	C 	0.2792	0.11006	0.9269	-0.007
Mof_H 	H 	0.2684	0.1245	0.9382	0.029
Mof_C 	C 	0.2857	0.1167	0.922	-0.017
Mof_H 	H 	0.2777	0.1347	0.9301	0.037
Mof_C 	C 	0.2276	0.1395	0.8933	0.005
Mof_H 	H 	0.2333	0.1529	0.9089	0.018
Mof_N 	N 	0.2038	0.1428	0.8772	-0.159
Mof_O 	O 	0.81372	0.35738	0.03082	-0.41
Mof_C 	C 	0.80975	0.39709	0.06481	-0.079
Mof_C 	C 	0.8254	0.38087	0.04026	0.361
Mof_C 	C 	0.7179	0.37178	0.0941	0.026
Mof_H 	H 	0.7235	0.3595	0.0777	0.021
Mof_N 	N 	0.69198	0.36915	0.1096	-0.153
Mof_O 	O 	0.8493	0.39242	0.0308	-0.384
Mof_C 	C 	0.7792	0.38994	0.0731	-0.006
Mof_H 	H 	0.7684	0.3755	0.0618	0.028
Mof_C 	C 	0.7857	0.3833	0.078	-0.018
Mof_H 	H 	0.7777	0.3653	0.0699	0.037
Mof_C 	C 	0.7276	0.3605	0.1067	0.005
Mof_H 	H 	0.7333	0.3471	0.0911	0.018
Mof_N 	N 	0.7038	0.3572	0.1228	-0.159
Mof_O 	O 	0.81372	0.85738	0.53082	-0.409
Mof_C 	C 	0.80975	0.89709	0.56481	-0.078
Mof_C 	C 	0.8254	0.88087	0.54026	0.361
Mof_C 	C 	0.7179	0.87178	0.5941	0.028
Mof_H 	H 	0.7235	0.8595	0.5777	0.021
Mof_N 	N 	0.69198	0.86915	0.6096	-0.153
Mof_O 	O 	0.8493	0.89242	0.5308	-0.384
Mof_C 	C 	0.7792	0.88994	0.5731	-0.007
Mof_H 	H 	0.7684	0.8755	0.5618	0.029
Mof_C 	C 	0.7857	0.8833	0.578	-0.017
Mof_H 	H 	0.7777	0.8653	0.5699	0.037
Mof_C 	C 	0.7276	0.8605	0.6067	0.004
Mof_H 	H 	0.7333	0.8471	0.5911	0.018
Mof_N 	N 	0.7038	0.8572	0.6228	-0.159
Mof_O 	O 	0.31372	0.35738	0.53082	-0.409
Mof_C 	C 	0.30975	0.39709	0.56481	-0.078
Mof_C 	C 	0.3254	0.38087	0.54026	0.361
Mof_C 	C 	0.2179	0.37178	0.5941	0.027
Mof_H 	H 	0.2235	0.3595	0.5777	0.022
Mof_N 	N 	0.19198	0.36915	0.6096	-0.153
Mof_O 	O 	0.3493	0.39242	0.5308	-0.384
Mof_C 	C 	0.2792	0.38994	0.5731	-0.007
Mof_H 	H 	0.2684	0.3755	0.5618	0.029
Mof_C 	C 	0.2857	0.3833	0.578	-0.017
Mof_H 	H 	0.2777	0.3653	0.5699	0.037
Mof_C 	C 	0.2276	0.3605	0.6067	0.005
Mof_H 	H 	0.2333	0.3471	0.5911	0.018
Mof_N 	N 	0.2038	0.3572	0.6228	-0.159
Mof_O 	O 	0.31372	0.85738	0.03082	-0.41
Mof_C 	C 	0.30975	0.89709	0.06481	-0.079
Mof_C 	C 	0.3254	0.88087	0.04026	0.361
Mof_C 	C 	0.2179	0.87178	0.0941	0.027
Mof_H 	H 	0.2235	0.8595	0.0777	0.021
Mof_N 	N 	0.19198	0.86915	0.1096	-0.153
Mof_O 	O 	0.3493	0.89242	0.0308	-0.384
Mof_C 	C 	0.2792	0.88994	0.0731	-0.007
Mof_H 	H 	0.2684	0.8755	0.0618	0.029
Mof_C 	C 	0.2857	0.8833	0.078	-0.017
Mof_H 	H 	0.2777	0.8653	0.0699	0.037
Mof_C 	C 	0.2276	0.8605	0.1067	0.004
Mof_H 	H 	0.2333	0.8471	0.0911	0.018
Mof_N 	N 	0.2038	0.8572	0.1228	-0.159
Mof_O 	O 	0.96918	0.18628	0.35738	-0.407
Mof_C 	C 	0.93519	0.19025	0.39709	-0.078
Mof_C 	C 	0.95974	0.1746	0.38087	0.361
Mof_C 	C 	0.9059	0.2821	0.37178	0.027
Mof_H 	H 	0.9223	0.2765	0.3595	0.022
Mof_N 	N 	0.8904	0.30802	0.36915	-0.153
Mof_O 	O 	0.9692	0.1507	0.39242	-0.383
Mof_C 	C 	0.9269	0.2208	0.38994	-0.007
Mof_H 	H 	0.9382	0.2316	0.3755	0.03
Mof_C 	C 	0.922	0.2143	0.3833	-0.017
Mof_H 	H 	0.9301	0.2223	0.3653	0.037
Mof_C 	C 	0.8933	0.2724	0.3605	0.004
Mof_H 	H 	0.9089	0.2667	0.3471	0.018
Mof_N 	N 	0.8772	0.2962	0.3572	-0.159
Mof_O 	O 	0.96918	0.68628	0.85738	-0.407
Mof_C 	C 	0.93519	0.69025	0.89709	-0.078
Mof_C 	C 	0.95974	0.6746	0.88087	0.361
Mof_C 	C 	0.9059	0.7821	0.87178	0.028
Mof_H 	H 	0.9223	0.7765	0.8595	0.021
Mof_N 	N 	0.8904	0.80802	0.86915	-0.153
Mof_O 	O 	0.9692	0.6507	0.89242	-0.383
Mof_C 	C 	0.9269	0.7208	0.88994	-0.008
Mof_H 	H 	0.9382	0.7316	0.8755	0.03
Mof_C 	C 	0.922	0.7143	0.8833	-0.016
Mof_H 	H 	0.9301	0.7223	0.8653	0.036
Mof_C 	C 	0.8933	0.7724	0.8605	0.003
Mof_H 	H 	0.9089	0.7667	0.8471	0.019
Mof_N 	N 	0.8772	0.7962	0.8572	-0.159
Mof_O 	O 	0.46918	0.18628	0.85738	-0.409
Mof_C 	C 	0.43519	0.19025	0.89709	-0.078
Mof_C 	C 	0.45974	0.1746	0.88087	0.361
Mof_C 	C 	0.4059	0.2821	0.87178	0.028
Mof_H 	H 	0.4223	0.2765	0.8595	0.021
Mof_N 	N 	0.3904	0.30802	0.86915	-0.153
Mof_O 	O 	0.4692	0.1507	0.89242	-0.384
Mof_C 	C 	0.4269	0.2208	0.88994	-0.007
Mof_H 	H 	0.4382	0.2316	0.8755	0.029
Mof_C 	C 	0.422	0.2143	0.8833	-0.017
Mof_H 	H 	0.4301	0.2223	0.8653	0.037
Mof_C 	C 	0.3933	0.2724	0.8605	0.004
Mof_H 	H 	0.4089	0.2667	0.8471	0.018
Mof_N 	N 	0.3772	0.2962	0.8572	-0.159
Mof_O 	O 	0.46918	0.68628	0.35738	-0.409
Mof_C 	C 	0.43519	0.69025	0.39709	-0.078
Mof_C 	C 	0.45974	0.6746	0.38087	0.361
Mof_C 	C 	0.4059	0.7821	0.37178	0.027
Mof_H 	H 	0.4223	0.7765	0.3595	0.022
Mof_N 	N 	0.3904	0.80802	0.36915	-0.153
Mof_O 	O 	0.4692	0.6507	0.39242	-0.384
Mof_C 	C 	0.4269	0.7208	0.38994	-0.007
Mof_H 	H 	0.4382	0.7316	0.3755	0.029
Mof_C 	C 	0.422	0.7143	0.3833	-0.017
Mof_H 	H 	0.4301	0.7223	0.3653	0.037
Mof_C 	C 	0.3933	0.7724	0.3605	0.005
Mof_H 	H 	0.4089	0.7667	0.3471	0.018
Mof_N 	N 	0.3772	0.7962	0.3572	-0.159
Mof_O 	O 	0.03082	0.18628	0.64262	-0.41
Mof_C 	C 	0.06481	0.19025	0.60291	-0.079
Mof_C 	C 	0.04026	0.1746	0.61913	0.361
Mof_C 	C 	0.0941	0.2821	0.62822	0.026
Mof_H 	H 	0.0777	0.2765	0.6405	0.021
Mof_N 	N 	0.1096	0.30802	0.63085	-0.153
Mof_O 	O 	0.0308	0.1507	0.60758	-0.384
Mof_C 	C 	0.0731	0.2208	0.61006	-0.006
Mof_H 	H 	0.0618	0.2316	0.6245	0.028
Mof_C 	C 	0.078	0.2143	0.6167	-0.018
Mof_H 	H 	0.0699	0.2223	0.6347	0.037
Mof_C 	C 	0.1067	0.2724	0.6395	0.005
Mof_H 	H 	0.0911	0.2667	0.6529	0.018
Mof_N 	N 	0.1228	0.2962	0.6428	-0.159
Mof_O 	O 	0.03082	0.68628	0.14262	-0.41
Mof_C 	C 	0.06481	0.69025	0.10291	-0.079
Mof_C 	C 	0.04026	0.6746	0.11913	0.361
Mof_C 	C 	0.0941	0.7821	0.12822	0.025
Mof_H 	H 	0.0777	0.7765	0.1405	0.022
Mof_N 	N 	0.1096	0.80802	0.13085	-0.153
Mof_O 	O 	0.0308	0.6507	0.10758	-0.384
Mof_C 	C 	0.0731	0.7208	0.11006	-0.006
Mof_H 	H 	0.0618	0.7316	0.1245	0.028
Mof_C 	C 	0.078	0.7143	0.1167	-0.018
Mof_H 	H 	0.0699	0.7223	0.1347	0.037
Mof_C 	C 	0.1067	0.7724	0.1395	0.006
Mof_H 	H 	0.0911	0.7667	0.1529	0.018
Mof_N 	N 	0.1228	0.7962	0.1428	-0.159
Mof_O 	O 	0.53082	0.18628	0.14262	-0.409
Mof_C 	C 	0.56481	0.19025	0.10291	-0.079
Mof_C 	C 	0.54026	0.1746	0.11913	0.361
Mof_C 	C 	0.5941	0.2821	0.12822	0.026
Mof_H 	H 	0.5777	0.2765	0.1405	0.022
Mof_N 	N 	0.6096	0.30802	0.13085	-0.153
Mof_O 	O 	0.5308	0.1507	0.10758	-0.384
Mof_C 	C 	0.5731	0.2208	0.11006	-0.006
Mof_H 	H 	0.5618	0.2316	0.1245	0.029
Mof_C 	C 	0.578	0.2143	0.1167	-0.018
Mof_H 	H 	0.5699	0.2223	0.1347	0.037
Mof_C 	C 	0.6067	0.2724	0.1395	0.006
Mof_H 	H 	0.5911	0.2667	0.1529	0.018
Mof_N 	N 	0.6228	0.2962	0.1428	-0.159
Mof_O 	O 	0.53082	0.68628	0.64262	-0.409
Mof_C 	C 	0.56481	0.69025	0.60291	-0.079
Mof_C 	C 	0.54026	0.6746	0.61913	0.361
Mof_C 	C 	0.5941	0.7821	0.62822	0.027
Mof_H 	H 	0.5777	0.7765	0.6405	0.021
Mof_N 	N 	0.6096	0.80802	0.63085	-0.153
Mof_O 	O 	0.5308	0.6507	0.60758	-0.384
Mof_C 	C 	0.5731	0.7208	0.61006	-0.007
Mof_H 	H 	0.5618	0.7316	0.6245	0.029
Mof_C 	C 	0.578	0.7143	0.6167	-0.017
Mof_H 	H 	0.5699	0.7223	0.6347	0.037
Mof_C 	C 	0.6067	0.7724	0.6395	0.005
Mof_H 	H 	0.5911	0.7667	0.6529	0.018
Mof_N 	N 	0.6228	0.7962	0.6428	-0.159
Mof_O 	O 	0.96918	0.81372	0.64262	-0.407
Mof_C 	C 	0.93519	0.80975	0.60291	-0.078
Mof_C 	C 	0.95974	0.8254	0.61913	0.361
Mof_C 	C 	0.9059	0.7179	0.62822	0.027
Mof_H 	H 	0.9223	0.7235	0.6405	0.022
Mof_N 	N 	0.8904	0.69198	0.63085	-0.153
Mof_O 	O 	0.9692	0.8493	0.60758	-0.383
Mof_C 	C 	0.9269	0.7792	0.61006	-0.007
Mof_H 	H 	0.9382	0.7684	0.6245	0.03
Mof_C 	C 	0.922	0.7857	0.6167	-0.017
Mof_H 	H 	0.9301	0.7777	0.6347	0.037
Mof_C 	C 	0.8933	0.7276	0.6395	0.004
Mof_H 	H 	0.9089	0.7333	0.6529	0.018
Mof_N 	N 	0.8772	0.7038	0.6428	-0.159
Mof_O 	O 	0.96918	0.31372	0.14262	-0.407
Mof_C 	C 	0.93519	0.30975	0.10291	-0.078
Mof_C 	C 	0.95974	0.3254	0.11913	0.361
Mof_C 	C 	0.9059	0.2179	0.12822	0.026
Mof_H 	H 	0.9223	0.2235	0.1405	0.022
Mof_N 	N 	0.8904	0.19198	0.13085	-0.153
Mof_O 	O 	0.9692	0.3493	0.10758	-0.383
Mof_C 	C 	0.9269	0.2792	0.11006	-0.007
Mof_H 	H 	0.9382	0.2684	0.1245	0.029
Mof_C 	C 	0.922	0.2857	0.1167	-0.017
Mof_H 	H 	0.9301	0.2777	0.1347	0.037
Mof_C 	C 	0.8933	0.2276	0.1395	0.005
Mof_H 	H 	0.9089	0.2333	0.1529	0.018
Mof_N 	N 	0.8772	0.2038	0.1428	-0.159
Mof_O 	O 	0.46918	0.81372	0.14262	-0.409
Mof_C 	C 	0.43519	0.80975	0.10291	-0.079
Mof_C 	C 	0.45974	0.8254	0.11913	0.361
Mof_C 	C 	0.4059	0.7179	0.12822	0.026
Mof_H 	H 	0.4223	0.7235	0.1405	0.022
Mof_N 	N 	0.3904	0.69198	0.13085	-0.153
Mof_O 	O 	0.4692	0.8493	0.10758	-0.384
Mof_C 	C 	0.4269	0.7792	0.11006	-0.006
Mof_H 	H 	0.4382	0.7684	0.1245	0.029
Mof_C 	C 	0.422	0.7857	0.1167	-0.018
Mof_H 	H 	0.4301	0.7777	0.1347	0.037
Mof_C 	C 	0.3933	0.7276	0.1395	0.005
Mof_H 	H 	0.4089	0.7333	0.1529	0.018
Mof_N 	N 	0.3772	0.7038	0.1428	-0.159
Mof_O 	O 	0.46918	0.31372	0.64262	-0.409
Mof_C 	C 	0.43519	0.30975	0.60291	-0.078
Mof_C 	C 	0.45974	0.3254	0.61913	0.361
Mof_C 	C 	0.4059	0.2179	0.62822	0.027
Mof_H 	H 	0.4223	0.2235	0.6405	0.022
Mof_N 	N 	0.3904	0.19198	0.63085	-0.153
Mof_O 	O 	0.4692	0.3493	0.60758	-0.384
Mof_C 	C 	0.4269	0.2792	0.61006	-0.007
Mof_H 	H 	0.4382	0.2684	0.6245	0.029
Mof_C 	C 	0.422	0.2857	0.6167	-0.017
Mof_H 	H 	0.4301	0.2777	0.6347	0.037
Mof_C 	C 	0.3933	0.2276	0.6395	0.005
Mof_H 	H 	0.4089	0.2333	0.6529	0.018
Mof_N 	N 	0.3772	0.2038	0.6428	-0.159
Mof_O 	O 	0.03082	0.81372	0.35738	-0.41
Mof_C 	C 	0.06481	0.80975	0.39709	-0.079
Mof_C 	C 	0.04026	0.8254	0.38087	0.361
Mof_C 	C 	0.0941	0.7179	0.37178	0.026
Mof_H 	H 	0.0777	0.7235	0.3595	0.021
Mof_N 	N 	0.1096	0.69198	0.36915	-0.153
Mof_O 	O 	0.0308	0.8493	0.39242	-0.384
Mof_C 	C 	0.0731	0.7792	0.38994	-0.006
Mof_H 	H 	0.0618	0.7684	0.3755	0.028
Mof_C 	C 	0.078	0.7857	0.3833	-0.018
Mof_H 	H 	0.0699	0.7777	0.3653	0.037
Mof_C 	C 	0.1067	0.7276	0.3605	0.005
Mof_H 	H 	0.0911	0.7333	0.3471	0.018
Mof_N 	N 	0.1228	0.7038	0.3572	-0.159
Mof_O 	O 	0.03082	0.31372	0.85738	-0.41
Mof_C 	C 	0.06481	0.30975	0.89709	-0.079
Mof_C 	C 	0.04026	0.3254	0.88087	0.361
Mof_C 	C 	0.0941	0.2179	0.87178	0.027
Mof_H 	H 	0.0777	0.2235	0.8595	0.021
Mof_N 	N 	0.1096	0.19198	0.86915	-0.153
Mof_O 	O 	0.0308	0.3493	0.89242	-0.384
Mof_C 	C 	0.0731	0.2792	0.88994	-0.007
Mof_H 	H 	0.0618	0.2684	0.8755	0.029
Mof_C 	C 	0.078	0.2857	0.8833	-0.017
Mof_H 	H 	0.0699	0.2777	0.8653	0.037
Mof_C 	C 	0.1067	0.2276	0.8605	0.004
Mof_H 	H 	0.0911	0.2333	0.8471	0.018
Mof_N 	N 	0.1228	0.2038	0.8572	-0.159
Mof_O 	O 	0.53082	0.81372	0.85738	-0.409
Mof_C 	C 	0.56481	0.80975	0.89709	-0.078
Mof_C 	C 	0.54026	0.8254	0.88087	0.361
Mof_C 	C 	0.5941	0.7179	0.87178	0.028
Mof_H 	H 	0.5777	0.7235	0.8595	0.021
Mof_N 	N 	0.6096	0.69198	0.86915	-0.153
Mof_O 	O 	0.5308	0.8493	0.89242	-0.384
Mof_C 	C 	0.5731	0.7792	0.88994	-0.007
Mof_H 	H 	0.5618	0.7684	0.8755	0.029
Mof_C 	C 	0.578	0.7857	0.8833	-0.017
Mof_H 	H 	0.5699	0.7777	0.8653	0.037
Mof_C 	C 	0.6067	0.7276	0.8605	0.004
Mof_H 	H 	0.5911	0.7333	0.8471	0.018
Mof_N 	N 	0.6228	0.7038	0.8572	-0.159
Mof_O 	O 	0.53082	0.31372	0.35738	-0.409
Mof_C 	C 	0.56481	0.30975	0.39709	-0.078
Mof_C 	C 	0.54026	0.3254	0.38087	0.361
Mof_C 	C 	0.5941	0.2179	0.37178	0.027
Mof_H 	H 	0.5777	0.2235	0.3595	0.022
Mof_N 	N 	0.6096	0.19198	0.36915	-0.153
Mof_O 	O 	0.5308	0.3493	0.39242	-0.384
Mof_C 	C 	0.5731	0.2792	0.38994	-0.007
Mof_H 	H 	0.5618	0.2684	0.3755	0.029
Mof_C 	C 	0.578	0.2857	0.3833	-0.017
Mof_H 	H 	0.5699	0.2777	0.3653	0.037
Mof_C 	C 	0.6067	0.2276	0.3605	0.005
Mof_H 	H 	0.5911	0.2333	0.3471	0.018
Mof_N 	N 	0.6228	0.2038	0.3572	-0.159
Mof_O 	O 	0.96918	0.35738	0.81372	-0.407
Mof_C 	C 	0.93519	0.39709	0.80975	-0.078
Mof_C 	C 	0.95974	0.38087	0.8254	0.361
Mof_C 	C 	0.9059	0.37178	0.7179	0.027
Mof_H 	H 	0.9223	0.3595	0.7235	0.022
Mof_N 	N 	0.8904	0.36915	0.69198	-0.153
Mof_O 	O 	0.9692	0.39242	0.8493	-0.383
Mof_C 	C 	0.9269	0.38994	0.7792	-0.007
Mof_H 	H 	0.9382	0.3755	0.7684	0.03
Mof_C 	C 	0.922	0.3833	0.7857	-0.017
Mof_H 	H 	0.9301	0.3653	0.7777	0.037
Mof_C 	C 	0.8933	0.3605	0.7276	0.004
Mof_H 	H 	0.9089	0.3471	0.7333	0.018
Mof_N 	N 	0.8772	0.3572	0.7038	-0.159
Mof_O 	O 	0.96918	0.85738	0.31372	-0.407
Mof_C 	C 	0.93519	0.89709	0.30975	-0.078
Mof_C 	C 	0.95974	0.88087	0.3254	0.361
Mof_C 	C 	0.9059	0.87178	0.2179	0.028
Mof_H 	H 	0.9223	0.8595	0.2235	0.021
Mof_N 	N 	0.8904	0.86915	0.19198	-0.153
Mof_O 	O 	0.9692	0.89242	0.3493	-0.383
Mof_C 	C 	0.9269	0.88994	0.2792	-0.008
Mof_H 	H 	0.9382	0.8755	0.2684	0.03
Mof_C 	C 	0.922	0.8833	0.2857	-0.016
Mof_H 	H 	0.9301	0.8653	0.2777	0.037
Mof_C 	C 	0.8933	0.8605	0.2276	0.003
Mof_H 	H 	0.9089	0.8471	0.2333	0.019
Mof_N 	N 	0.8772	0.8572	0.2038	-0.159
Mof_O 	O 	0.46918	0.35738	0.31372	-0.409
Mof_C 	C 	0.43519	0.39709	0.30975	-0.078
Mof_C 	C 	0.45974	0.38087	0.3254	0.361
Mof_C 	C 	0.4059	0.37178	0.2179	0.027
Mof_H 	H 	0.4223	0.3595	0.2235	0.022
Mof_N 	N 	0.3904	0.36915	0.19198	-0.153
Mof_O 	O 	0.4692	0.39242	0.3493	-0.384
Mof_C 	C 	0.4269	0.38994	0.2792	-0.007
Mof_H 	H 	0.4382	0.3755	0.2684	0.029
Mof_C 	C 	0.422	0.3833	0.2857	-0.017
Mof_H 	H 	0.4301	0.3653	0.2777	0.037
Mof_C 	C 	0.3933	0.3605	0.2276	0.005
Mof_H 	H 	0.4089	0.3471	0.2333	0.018
Mof_N 	N 	0.3772	0.3572	0.2038	-0.159
Mof_O 	O 	0.46918	0.85738	0.81372	-0.409
Mof_C 	C 	0.43519	0.89709	0.80975	-0.078
Mof_C 	C 	0.45974	0.88087	0.8254	0.361
Mof_C 	C 	0.4059	0.87178	0.7179	0.028
Mof_H 	H 	0.4223	0.8595	0.7235	0.021
Mof_N 	N 	0.3904	0.86915	0.69198	-0.153
Mof_O 	O 	0.4692	0.89242	0.8493	-0.384
Mof_C 	C 	0.4269	0.88994	0.7792	-0.007
Mof_H 	H 	0.4382	0.8755	0.7684	0.029
Mof_C 	C 	0.422	0.8833	0.7857	-0.017
Mof_H 	H 	0.4301	0.8653	0.7777	0.037
Mof_C 	C 	0.3933	0.8605	0.7276	0.004
Mof_H 	H 	0.4089	0.8471	0.7333	0.018
Mof_N 	N 	0.3772	0.8572	0.7038	-0.159
Mof_O 	O 	0.03082	0.64262	0.81372	-0.41
Mof_C 	C 	0.06481	0.60291	0.80975	-0.079
Mof_C 	C 	0.04026	0.61913	0.8254	0.361
Mof_C 	C 	0.0941	0.62822	0.7179	0.026
Mof_H 	H 	0.0777	0.6405	0.7235	0.021
Mof_N 	N 	0.1096	0.63085	0.69198	-0.153
Mof_O 	O 	0.0308	0.60758	0.8493	-0.384
Mof_C 	C 	0.0731	0.61006	0.7792	-0.006
Mof_H 	H 	0.0618	0.6245	0.7684	0.028
Mof_C 	C 	0.078	0.6167	0.7857	-0.018
Mof_H 	H 	0.0699	0.6347	0.7777	0.037
Mof_C 	C 	0.1067	0.6395	0.7276	0.005
Mof_H 	H 	0.0911	0.6529	0.7333	0.018
Mof_N 	N 	0.1228	0.6428	0.7038	-0.159
Mof_O 	O 	0.03082	0.14262	0.31372	-0.41
Mof_C 	C 	0.06481	0.10291	0.30975	-0.079
Mof_C 	C 	0.04026	0.11913	0.3254	0.361
Mof_C 	C 	0.0941	0.12822	0.2179	0.025
Mof_H 	H 	0.0777	0.1405	0.2235	0.022
Mof_N 	N 	0.1096	0.13085	0.19198	-0.153
Mof_O 	O 	0.0308	0.10758	0.3493	-0.384
Mof_C 	C 	0.0731	0.11006	0.2792	-0.006
Mof_H 	H 	0.0618	0.1245	0.2684	0.028
Mof_C 	C 	0.078	0.1167	0.2857	-0.018
Mof_H 	H 	0.0699	0.1347	0.2777	0.038
Mof_C 	C 	0.1067	0.1395	0.2276	0.006
Mof_H 	H 	0.0911	0.1529	0.2333	0.018
Mof_N 	N 	0.1228	0.1428	0.2038	-0.159
Mof_O 	O 	0.53082	0.64262	0.31372	-0.409
Mof_C 	C 	0.56481	0.60291	0.30975	-0.079
Mof_C 	C 	0.54026	0.61913	0.3254	0.361
Mof_C 	C 	0.5941	0.62822	0.2179	0.027
Mof_H 	H 	0.5777	0.6405	0.2235	0.022
Mof_N 	N 	0.6096	0.63085	0.19198	-0.153
Mof_O 	O 	0.5308	0.60758	0.3493	-0.384
Mof_C 	C 	0.5731	0.61006	0.2792	-0.007
Mof_H 	H 	0.5618	0.6245	0.2684	0.029
Mof_C 	C 	0.578	0.6167	0.2857	-0.017
Mof_H 	H 	0.5699	0.6347	0.2777	0.037
Mof_C 	C 	0.6067	0.6395	0.2276	0.005
Mof_H 	H 	0.5911	0.6529	0.2333	0.018
Mof_N 	N 	0.6228	0.6428	0.2038	-0.159
Mof_O 	O 	0.53082	0.14262	0.81372	-0.409
Mof_C 	C 	0.56481	0.10291	0.80975	-0.079
Mof_C 	C 	0.54026	0.11913	0.8254	0.361
Mof_C 	C 	0.5941	0.12822	0.7179	0.026
Mof_H 	H 	0.5777	0.1405	0.7235	0.022
Mof_N 	N 	0.6096	0.13085	0.69198	-0.153
Mof_O 	O 	0.5308	0.10758	0.8493	-0.384
Mof_C 	C 	0.5731	0.11006	0.7792	-0.006
Mof_H 	H 	0.5618	0.1245	0.7684	0.029
Mof_C 	C 	0.578	0.1167	0.7857	-0.018
Mof_H 	H 	0.5699	0.1347	0.7777	0.037
Mof_C 	C 	0.6067	0.1395	0.7276	0.005
Mof_H 	H 	0.5911	0.1529	0.7333	0.018
Mof_N 	N 	0.6228	0.1428	0.7038	-0.159
Mof_O 	O 	0.96918	0.64262	0.18628	-0.407
Mof_C 	C 	0.93519	0.60291	0.19025	-0.078
Mof_C 	C 	0.95974	0.61913	0.1746	0.361
Mof_C 	C 	0.9059	0.62822	0.2821	0.027
Mof_H 	H 	0.9223	0.6405	0.2765	0.022
Mof_N 	N 	0.8904	0.63085	0.30802	-0.153
Mof_O 	O 	0.9692	0.60758	0.1507	-0.383
Mof_C 	C 	0.9269	0.61006	0.2208	-0.007
Mof_H 	H 	0.9382	0.6245	0.2316	0.03
Mof_C 	C 	0.922	0.6167	0.2143	-0.017
Mof_H 	H 	0.9301	0.6347	0.2223	0.037
Mof_C 	C 	0.8933	0.6395	0.2724	0.004
Mof_H 	H 	0.9089	0.6529	0.2667	0.018
Mof_N 	N 	0.8772	0.6428	0.2962	-0.159
Mof_O 	O 	0.96918	0.14262	0.68628	-0.407
Mof_C 	C 	0.93519	0.10291	0.69025	-0.078
Mof_C 	C 	0.95974	0.11913	0.6746	0.361
Mof_C 	C 	0.9059	0.12822	0.7821	0.027
Mof_H 	H 	0.9223	0.1405	0.7765	0.022
Mof_N 	N 	0.8904	0.13085	0.80802	-0.153
Mof_O 	O 	0.9692	0.10758	0.6507	-0.383
Mof_C 	C 	0.9269	0.11006	0.7208	-0.007
Mof_H 	H 	0.9382	0.1245	0.7316	0.029
Mof_C 	C 	0.922	0.1167	0.7143	-0.017
Mof_H 	H 	0.9301	0.1347	0.7223	0.037
Mof_C 	C 	0.8933	0.1395	0.7724	0.005
Mof_H 	H 	0.9089	0.1529	0.7667	0.018
Mof_N 	N 	0.8772	0.1428	0.7962	-0.159
Mof_O 	O 	0.46918	0.64262	0.68628	-0.409
Mof_C 	C 	0.43519	0.60291	0.69025	-0.078
Mof_C 	C 	0.45974	0.61913	0.6746	0.361
Mof_C 	C 	0.4059	0.62822	0.7821	0.027
Mof_H 	H 	0.4223	0.6405	0.7765	0.022
Mof_N 	N 	0.3904	0.63085	0.80802	-0.153
Mof_O 	O 	0.4692	0.60758	0.6507	-0.384
Mof_C 	C 	0.4269	0.61006	0.7208	-0.007
Mof_H 	H 	0.4382	0.6245	0.7316	0.029
Mof_C 	C 	0.422	0.6167	0.7143	-0.017
Mof_H 	H 	0.4301	0.6347	0.7223	0.037
Mof_C 	C 	0.3933	0.6395	0.7724	0.005
Mof_H 	H 	0.4089	0.6529	0.7667	0.018
Mof_N 	N 	0.3772	0.6428	0.7962	-0.159
Mof_O 	O 	0.46918	0.14262	0.18628	-0.409
Mof_C 	C 	0.43519	0.10291	0.19025	-0.079
Mof_C 	C 	0.45974	0.11913	0.1746	0.361
Mof_C 	C 	0.4059	0.12822	0.2821	0.026
Mof_H 	H 	0.4223	0.1405	0.2765	0.022
Mof_N 	N 	0.3904	0.13085	0.30802	-0.153
Mof_O 	O 	0.4692	0.10758	0.1507	-0.384
Mof_C 	C 	0.4269	0.11006	0.2208	-0.006
Mof_H 	H 	0.4382	0.1245	0.2316	0.029
Mof_C 	C 	0.422	0.1167	0.2143	-0.018
Mof_H 	H 	0.4301	0.1347	0.2223	0.037
Mof_C 	C 	0.3933	0.1395	0.2724	0.006
Mof_H 	H 	0.4089	0.1529	0.2667	0.018
Mof_N 	N 	0.3772	0.1428	0.2962	-0.159
Mof_O 	O 	0.03082	0.35738	0.18628	-0.41
Mof_C 	C 	0.06481	0.39709	0.19025	-0.079
Mof_C 	C 	0.04026	0.38087	0.1746	0.361
Mof_C 	C 	0.0941	0.37178	0.2821	0.026
Mof_H 	H 	0.0777	0.3595	0.2765	0.021
Mof_N 	N 	0.1096	0.36915	0.30802	-0.153
Mof_O 	O 	0.0308	0.39242	0.1507	-0.384
Mof_C 	C 	0.0731	0.38994	0.2208	-0.006
Mof_H 	H 	0.0618	0.3755	0.2316	0.028
Mof_C 	C 	0.078	0.3833	0.2143	-0.018
Mof_H 	H 	0.0699	0.3653	0.2223	0.037
Mof_C 	C 	0.1067	0.3605	0.2724	0.005
Mof_H 	H 	0.0911	0.3471	0.2667	0.018
Mof_N 	N 	0.1228	0.3572	0.2962	-0.159
Mof_O 	O 	0.03082	0.85738	0.68628	-0.41
Mof_C 	C 	0.06481	0.89709	0.69025	-0.079
Mof_C 	C 	0.04026	0.88087	0.6746	0.361
Mof_C 	C 	0.0941	0.87178	0.7821	0.027
Mof_H 	H 	0.0777	0.8595	0.7765	0.021
Mof_N 	N 	0.1096	0.86915	0.80802	-0.153
Mof_O 	O 	0.0308	0.89242	0.6507	-0.384
Mof_C 	C 	0.0731	0.88994	0.7208	-0.007
Mof_H 	H 	0.0618	0.8755	0.7316	0.029
Mof_C 	C 	0.078	0.8833	0.7143	-0.017
Mof_H 	H 	0.0699	0.8653	0.7223	0.037
Mof_C 	C 	0.1067	0.8605	0.7724	0.004
Mof_H 	H 	0.0911	0.8471	0.7667	0.018
Mof_N 	N 	0.1228	0.8572	0.7962	-0.159
Mof_O 	O 	0.53082	0.35738	0.68628	-0.409
Mof_C 	C 	0.56481	0.39709	0.69025	-0.078
Mof_C 	C 	0.54026	0.38087	0.6746	0.361
Mof_C 	C 	0.5941	0.37178	0.7821	0.027
Mof_H 	H 	0.5777	0.3595	0.7765	0.022
Mof_N 	N 	0.6096	0.36915	0.80802	-0.153
Mof_O 	O 	0.5308	0.39242	0.6507	-0.384
Mof_C 	C 	0.5731	0.38994	0.7208	-0.007
Mof_H 	H 	0.5618	0.3755	0.7316	0.029
Mof_C 	C 	0.578	0.3833	0.7143	-0.017
Mof_H 	H 	0.5699	0.3653	0.7223	0.037
Mof_C 	C 	0.6067	0.3605	0.7724	0.005
Mof_H 	H 	0.5911	0.3471	0.7667	0.018
Mof_N 	N 	0.6228	0.3572	0.7962	-0.159
Mof_O 	O 	0.53082	0.85738	0.18628	-0.409
Mof_C 	C 	0.56481	0.89709	0.19025	-0.078
Mof_C 	C 	0.54026	0.88087	0.1746	0.361
Mof_C 	C 	0.5941	0.87178	0.2821	0.028
Mof_H 	H 	0.5777	0.8595	0.2765	0.021
Mof_N 	N 	0.6096	0.86915	0.30802	-0.153
Mof_O 	O 	0.5308	0.89242	0.1507	-0.384
Mof_C 	C 	0.5731	0.88994	0.2208	-0.007
Mof_H 	H 	0.5618	0.8755	0.2316	0.029
Mof_C 	C 	0.578	0.8833	0.2143	-0.017
Mof_H 	H 	0.5699	0.8653	0.2223	0.037
Mof_C 	C 	0.6067	0.8605	0.2724	0.004
Mof_H 	H 	0.5911	0.8471	0.2667	0.018
Mof_N 	N 	0.6228	0.8572	0.2962	-0.159
Mof_O 	O 	0.35738	0.18628	0.03082	-0.41
Mof_C 	C 	0.39709	0.19025	0.06481	-0.079
Mof_C 	C 	0.38087	0.1746	0.04026	0.361
Mof_C 	C 	0.37178	0.2821	0.0941	0.026
Mof_H 	H 	0.3595	0.2765	0.0777	0.021
Mof_N 	N 	0.36915	0.30802	0.1096	-0.153
Mof_O 	O 	0.39242	0.1507	0.0308	-0.384
Mof_C 	C 	0.38994	0.2208	0.0731	-0.006
Mof_H 	H 	0.3755	0.2316	0.0618	0.028
Mof_C 	C 	0.3833	0.2143	0.078	-0.018
Mof_H 	H 	0.3653	0.2223	0.0699	0.037
Mof_C 	C 	0.3605	0.2724	0.1067	0.005
Mof_H 	H 	0.3471	0.2667	0.0911	0.018
Mof_N 	N 	0.3572	0.2962	0.1228	-0.159
Mof_O 	O 	0.35738	0.68628	0.53082	-0.409
Mof_C 	C 	0.39709	0.69025	0.56481	-0.078
Mof_C 	C 	0.38087	0.6746	0.54026	0.361
Mof_C 	C 	0.37178	0.7821	0.5941	0.027
Mof_H 	H 	0.3595	0.7765	0.5777	0.022
Mof_N 	N 	0.36915	0.80802	0.6096	-0.153
Mof_O 	O 	0.39242	0.6507	0.5308	-0.384
Mof_C 	C 	0.38994	0.7208	0.5731	-0.007
Mof_H 	H 	0.3755	0.7316	0.5618	0.029
Mof_C 	C 	0.3833	0.7143	0.578	-0.017
Mof_H 	H 	0.3653	0.7223	0.5699	0.037
Mof_C 	C 	0.3605	0.7724	0.6067	0.005
Mof_H 	H 	0.3471	0.7667	0.5911	0.018
Mof_N 	N 	0.3572	0.7962	0.6228	-0.159
Mof_O 	O 	0.85738	0.18628	0.53082	-0.409
Mof_C 	C 	0.89709	0.19025	0.56481	-0.078
Mof_C 	C 	0.88087	0.1746	0.54026	0.361
Mof_C 	C 	0.87178	0.2821	0.5941	0.028
Mof_H 	H 	0.8595	0.2765	0.5777	0.021
Mof_N 	N 	0.86915	0.30802	0.6096	-0.153
Mof_O 	O 	0.89242	0.1507	0.5308	-0.384
Mof_C 	C 	0.88994	0.2208	0.5731	-0.007
Mof_H 	H 	0.8755	0.2316	0.5618	0.029
Mof_C 	C 	0.8833	0.2143	0.578	-0.017
Mof_H 	H 	0.8653	0.2223	0.5699	0.037
Mof_C 	C 	0.8605	0.2724	0.6067	0.004
Mof_H 	H 	0.8471	0.2667	0.5911	0.018
Mof_N 	N 	0.8572	0.2962	0.6228	-0.159
Mof_O 	O 	0.85738	0.68628	0.03082	-0.41
Mof_C 	C 	0.89709	0.69025	0.06481	-0.079
Mof_C 	C 	0.88087	0.6746	0.04026	0.361
Mof_C 	C 	0.87178	0.7821	0.0941	0.027
Mof_H 	H 	0.8595	0.7765	0.0777	0.021
Mof_N 	N 	0.86915	0.80802	0.1096	-0.153
Mof_O 	O 	0.89242	0.6507	0.0308	-0.384
Mof_C 	C 	0.88994	0.7208	0.0731	-0.007
Mof_H 	H 	0.8755	0.7316	0.0618	0.029
Mof_C 	C 	0.8833	0.7143	0.078	-0.017
Mof_H 	H 	0.8653	0.7223	0.0699	0.037
Mof_C 	C 	0.8605	0.7724	0.1067	0.004
Mof_H 	H 	0.8471	0.7667	0.0911	0.018
Mof_N 	N 	0.8572	0.7962	0.1228	-0.159
Mof_O 	O 	0.64262	0.18628	0.96918	-0.407
Mof_C 	C 	0.60291	0.19025	0.93519	-0.078
Mof_C 	C 	0.61913	0.1746	0.95974	0.361
Mof_C 	C 	0.62822	0.2821	0.9059	0.027
Mof_H 	H 	0.6405	0.2765	0.9223	0.022
Mof_N 	N 	0.63085	0.30802	0.8904	-0.153
Mof_O 	O 	0.60758	0.1507	0.9692	-0.383
Mof_C 	C 	0.61006	0.2208	0.9269	-0.007
Mof_H 	H 	0.6245	0.2316	0.9382	0.03
Mof_C 	C 	0.6167	0.2143	0.922	-0.017
Mof_H 	H 	0.6347	0.2223	0.9301	0.037
Mof_C 	C 	0.6395	0.2724	0.8933	0.004
Mof_H 	H 	0.6529	0.2667	0.9089	0.018
Mof_N 	N 	0.6428	0.2962	0.8772	-0.159
Mof_O 	O 	0.64262	0.68628	0.46918	-0.409
Mof_C 	C 	0.60291	0.69025	0.43519	-0.078
Mof_C 	C 	0.61913	0.6746	0.45974	0.361
Mof_C 	C 	0.62822	0.7821	0.4059	0.027
Mof_H 	H 	0.6405	0.7765	0.4223	0.022
Mof_N 	N 	0.63085	0.80802	0.3904	-0.153
Mof_O 	O 	0.60758	0.6507	0.4692	-0.384
Mof_C 	C 	0.61006	0.7208	0.4269	-0.007
Mof_H 	H 	0.6245	0.7316	0.4382	0.029
Mof_C 	C 	0.6167	0.7143	0.422	-0.017
Mof_H 	H 	0.6347	0.7223	0.4301	0.037
Mof_C 	C 	0.6395	0.7724	0.3933	0.005
Mof_H 	H 	0.6529	0.7667	0.4089	0.018
Mof_N 	N 	0.6428	0.7962	0.3772	-0.159
Mof_O 	O 	0.14262	0.18628	0.46918	-0.409
Mof_C 	C 	0.10291	0.19025	0.43519	-0.079
Mof_C 	C 	0.11913	0.1746	0.45974	0.361
Mof_C 	C 	0.12822	0.2821	0.4059	0.026
Mof_H 	H 	0.1405	0.2765	0.4223	0.022
Mof_N 	N 	0.13085	0.30802	0.3904	-0.153
Mof_O 	O 	0.10758	0.1507	0.4692	-0.384
Mof_C 	C 	0.11006	0.2208	0.4269	-0.006
Mof_H 	H 	0.1245	0.2316	0.4382	0.029
Mof_C 	C 	0.1167	0.2143	0.422	-0.018
Mof_H 	H 	0.1347	0.2223	0.4301	0.037
Mof_C 	C 	0.1395	0.2724	0.3933	0.006
Mof_H 	H 	0.1529	0.2667	0.4089	0.018
Mof_N 	N 	0.1428	0.2962	0.3772	-0.159
Mof_O 	O 	0.14262	0.68628	0.96918	-0.407
Mof_C 	C 	0.10291	0.69025	0.93519	-0.078
Mof_C 	C 	0.11913	0.6746	0.95974	0.361
Mof_C 	C 	0.12822	0.7821	0.9059	0.027
Mof_H 	H 	0.1405	0.7765	0.9223	0.022
Mof_N 	N 	0.13085	0.80802	0.8904	-0.153
Mof_O 	O 	0.10758	0.6507	0.9692	-0.383
Mof_C 	C 	0.11006	0.7208	0.9269	-0.007
Mof_H 	H 	0.1245	0.7316	0.9382	0.029
Mof_C 	C 	0.1167	0.7143	0.922	-0.017
Mof_H 	H 	0.1347	0.7223	0.9301	0.037
Mof_C 	C 	0.1395	0.7724	0.8933	0.005
Mof_H 	H 	0.1529	0.7667	0.9089	0.018
Mof_N 	N 	0.1428	0.7962	0.8772	-0.159
Mof_O 	O 	0.64262	0.81372	0.03082	-0.41
Mof_C 	C 	0.60291	0.80975	0.06481	-0.079
Mof_C 	C 	0.61913	0.8254	0.04026	0.361
Mof_C 	C 	0.62822	0.7179	0.0941	0.026
Mof_H 	H 	0.6405	0.7235	0.0777	0.021
Mof_N 	N 	0.63085	0.69198	0.1096	-0.153
Mof_O 	O 	0.60758	0.8493	0.0308	-0.384
Mof_C 	C 	0.61006	0.7792	0.0731	-0.006
Mof_H 	H 	0.6245	0.7684	0.0618	0.028
Mof_C 	C 	0.6167	0.7857	0.078	-0.018
Mof_H 	H 	0.6347	0.7777	0.0699	0.037
Mof_C 	C 	0.6395	0.7276	0.1067	0.005
Mof_H 	H 	0.6529	0.7333	0.0911	0.018
Mof_N 	N 	0.6428	0.7038	0.1228	-0.159
Mof_O 	O 	0.64262	0.31372	0.53082	-0.409
Mof_C 	C 	0.60291	0.30975	0.56481	-0.079
Mof_C 	C 	0.61913	0.3254	0.54026	0.361
Mof_C 	C 	0.62822	0.2179	0.5941	0.027
Mof_H 	H 	0.6405	0.2235	0.5777	0.022
Mof_N 	N 	0.63085	0.19198	0.6096	-0.153
Mof_O 	O 	0.60758	0.3493	0.5308	-0.384
Mof_C 	C 	0.61006	0.2792	0.5731	-0.007
Mof_H 	H 	0.6245	0.2684	0.5618	0.029
Mof_C 	C 	0.6167	0.2857	0.578	-0.017
Mof_H 	H 	0.6347	0.2777	0.5699	0.037
Mof_C 	C 	0.6395	0.2276	0.6067	0.005
Mof_H 	H 	0.6529	0.2333	0.5911	0.018
Mof_N 	N 	0.6428	0.2038	0.6228	-0.159
Mof_O 	O 	0.14262	0.81372	0.53082	-0.409
Mof_C 	C 	0.10291	0.80975	0.56481	-0.079
Mof_C 	C 	0.11913	0.8254	0.54026	0.361
Mof_C 	C 	0.12822	0.7179	0.5941	0.026
Mof_H 	H 	0.1405	0.7235	0.5777	0.022
Mof_N 	N 	0.13085	0.69198	0.6096	-0.153
Mof_O 	O 	0.10758	0.8493	0.5308	-0.384
Mof_C 	C 	0.11006	0.7792	0.5731	-0.006
Mof_H 	H 	0.1245	0.7684	0.5618	0.029
Mof_C 	C 	0.1167	0.7857	0.578	-0.018
Mof_H 	H 	0.1347	0.7777	0.5699	0.037
Mof_C 	C 	0.1395	0.7276	0.6067	0.005
Mof_H 	H 	0.1529	0.7333	0.5911	0.018
Mof_N 	N 	0.1428	0.7038	0.6228	-0.159
Mof_O 	O 	0.14262	0.31372	0.03082	-0.41
Mof_C 	C 	0.10291	0.30975	0.06481	-0.079
Mof_C 	C 	0.11913	0.3254	0.04026	0.361
Mof_C 	C 	0.12822	0.2179	0.0941	0.025
Mof_H 	H 	0.1405	0.2235	0.0777	0.022
Mof_N 	N 	0.13085	0.19198	0.1096	-0.153
Mof_O 	O 	0.10758	0.3493	0.0308	-0.384
Mof_C 	C 	0.11006	0.2792	0.0731	-0.006
Mof_H 	H 	0.1245	0.2684	0.0618	0.028
Mof_C 	C 	0.1167	0.2857	0.078	-0.018
Mof_H 	H 	0.1347	0.2777	0.0699	0.038
Mof_C 	C 	0.1395	0.2276	0.1067	0.006
Mof_H 	H 	0.1529	0.2333	0.0911	0.018
Mof_N 	N 	0.1428	0.2038	0.1228	-0.159
Mof_O 	O 	0.35738	0.81372	0.96918	-0.407
Mof_C 	C 	0.39709	0.80975	0.93519	-0.078
Mof_C 	C 	0.38087	0.8254	0.95974	0.361
Mof_C 	C 	0.37178	0.7179	0.9059	0.027
Mof_H 	H 	0.3595	0.7235	0.9223	0.022
Mof_N 	N 	0.36915	0.69198	0.8904	-0.153
Mof_O 	O 	0.39242	0.8493	0.9692	-0.383
Mof_C 	C 	0.38994	0.7792	0.9269	-0.007
Mof_H 	H 	0.3755	0.7684	0.9382	0.03
Mof_C 	C 	0.3833	0.7857	0.922	-0.017
Mof_H 	H 	0.3653	0.7777	0.9301	0.037
Mof_C 	C 	0.3605	0.7276	0.8933	0.004
Mof_H 	H 	0.3471	0.7333	0.9089	0.018
Mof_N 	N 	0.3572	0.7038	0.8772	-0.159
Mof_O 	O 	0.35738	0.31372	0.46918	-0.409
Mof_C 	C 	0.39709	0.30975	0.43519	-0.078
Mof_C 	C 	0.38087	0.3254	0.45974	0.361
Mof_C 	C 	0.37178	0.2179	0.4059	0.027
Mof_H 	H 	0.3595	0.2235	0.4223	0.022
Mof_N 	N 	0.36915	0.19198	0.3904	-0.153
Mof_O 	O 	0.39242	0.3493	0.4692	-0.384
Mof_C 	C 	0.38994	0.2792	0.4269	-0.007
Mof_H 	H 	0.3755	0.2684	0.4382	0.029
Mof_C 	C 	0.3833	0.2857	0.422	-0.017
Mof_H 	H 	0.3653	0.2777	0.4301	0.037
Mof_C 	C 	0.3605	0.2276	0.3933	0.005
Mof_H 	H 	0.3471	0.2333	0.4089	0.018
Mof_N 	N 	0.3572	0.2038	0.3772	-0.159
Mof_O 	O 	0.85738	0.81372	0.46918	-0.409
Mof_C 	C 	0.89709	0.80975	0.43519	-0.078
Mof_C 	C 	0.88087	0.8254	0.45974	0.361
Mof_C 	C 	0.87178	0.7179	0.4059	0.028
Mof_H 	H 	0.8595	0.7235	0.4223	0.021
Mof_N 	N 	0.86915	0.69198	0.3904	-0.153
Mof_O 	O 	0.89242	0.8493	0.4692	-0.384
Mof_C 	C 	0.88994	0.7792	0.4269	-0.007
Mof_H 	H 	0.8755	0.7684	0.4382	0.029
Mof_C 	C 	0.8833	0.7857	0.422	-0.017
Mof_H 	H 	0.8653	0.7777	0.4301	0.037
Mof_C 	C 	0.8605	0.7276	0.3933	0.004
Mof_H 	H 	0.8471	0.7333	0.4089	0.018
Mof_N 	N 	0.8572	0.7038	0.3772	-0.159
Mof_O 	O 	0.85738	0.31372	0.96918	-0.407
Mof_C 	C 	0.89709	0.30975	0.93519	-0.078
Mof_C 	C 	0.88087	0.3254	0.95974	0.361
Mof_C 	C 	0.87178	0.2179	0.9059	0.028
Mof_H 	H 	0.8595	0.2235	0.9223	0.021
Mof_N 	N 	0.86915	0.19198	0.8904	-0.153
Mof_O 	O 	0.89242	0.3493	0.9692	-0.383
Mof_C 	C 	0.88994	0.2792	0.9269	-0.008
Mof_H 	H 	0.8755	0.2684	0.9382	0.03
Mof_C 	C 	0.8833	0.2857	0.922	-0.016
Mof_H 	H 	0.8653	0.2777	0.9301	0.037
Mof_C 	C 	0.8605	0.2276	0.8933	0.003
Mof_H 	H 	0.8471	0.2333	0.9089	0.019
Mof_N 	N 	0.8572	0.2038	0.8772	-0.159
Mof_O 	O 	0.18628	0.96918	0.64262	-0.407
Mof_C 	C 	0.19025	0.93519	0.60291	-0.078
Mof_C 	C 	0.1746	0.95974	0.61913	0.361
Mof_C 	C 	0.2821	0.9059	0.62822	0.027
Mof_H 	H 	0.2765	0.9223	0.6405	0.022
Mof_N 	N 	0.30802	0.8904	0.63085	-0.153
Mof_O 	O 	0.1507	0.9692	0.60758	-0.383
Mof_C 	C 	0.2208	0.9269	0.61006	-0.007
Mof_H 	H 	0.2316	0.9382	0.6245	0.03
Mof_C 	C 	0.2143	0.922	0.6167	-0.017
Mof_H 	H 	0.2223	0.9301	0.6347	0.037
Mof_C 	C 	0.2724	0.8933	0.6395	0.004
Mof_H 	H 	0.2667	0.9089	0.6529	0.018
Mof_N 	N 	0.2962	0.8772	0.6428	-0.159
Mof_O 	O 	0.18628	0.46918	0.14262	-0.409
Mof_C 	C 	0.19025	0.43519	0.10291	-0.079
Mof_C 	C 	0.1746	0.45974	0.11913	0.361
Mof_C 	C 	0.2821	0.4059	0.12822	0.026
Mof_H 	H 	0.2765	0.4223	0.1405	0.022
Mof_N 	N 	0.30802	0.3904	0.13085	-0.153
Mof_O 	O 	0.1507	0.4692	0.10758	-0.384
Mof_C 	C 	0.2208	0.4269	0.11006	-0.006
Mof_H 	H 	0.2316	0.4382	0.1245	0.029
Mof_C 	C 	0.2143	0.422	0.1167	-0.018
Mof_H 	H 	0.2223	0.4301	0.1347	0.037
Mof_C 	C 	0.2724	0.3933	0.1395	0.006
Mof_H 	H 	0.2667	0.4089	0.1529	0.018
Mof_N 	N 	0.2962	0.3772	0.1428	-0.159
Mof_O 	O 	0.68628	0.96918	0.14262	-0.407
Mof_C 	C 	0.69025	0.93519	0.10291	-0.078
Mof_C 	C 	0.6746	0.95974	0.11913	0.361
Mof_C 	C 	0.7821	0.9059	0.12822	0.027
Mof_H 	H 	0.7765	0.9223	0.1405	0.022
Mof_N 	N 	0.80802	0.8904	0.13085	-0.153
Mof_O 	O 	0.6507	0.9692	0.10758	-0.383
Mof_C 	C 	0.7208	0.9269	0.11006	-0.007
Mof_H 	H 	0.7316	0.9382	0.1245	0.029
Mof_C 	C 	0.7143	0.922	0.1167	-0.017
Mof_H 	H 	0.7223	0.9301	0.1347	0.037
Mof_C 	C 	0.7724	0.8933	0.1395	0.005
Mof_H 	H 	0.7667	0.9089	0.1529	0.018
Mof_N 	N 	0.7962	0.8772	0.1428	-0.159
Mof_O 	O 	0.68628	0.46918	0.64262	-0.409
Mof_C 	C 	0.69025	0.43519	0.60291	-0.078
Mof_C 	C 	0.6746	0.45974	0.61913	0.361
Mof_C 	C 	0.7821	0.4059	0.62822	0.027
Mof_H 	H 	0.7765	0.4223	0.6405	0.022
Mof_N 	N 	0.80802	0.3904	0.63085	-0.153
Mof_O 	O 	0.6507	0.4692	0.60758	-0.384
Mof_C 	C 	0.7208	0.4269	0.61006	-0.007
Mof_H 	H 	0.7316	0.4382	0.6245	0.029
Mof_C 	C 	0.7143	0.422	0.6167	-0.017
Mof_H 	H 	0.7223	0.4301	0.6347	0.037
Mof_C 	C 	0.7724	0.3933	0.6395	0.005
Mof_H 	H 	0.7667	0.4089	0.6529	0.018
Mof_N 	N 	0.7962	0.3772	0.6428	-0.159
Mof_O 	O 	0.18628	0.03082	0.35738	-0.41
Mof_C 	C 	0.19025	0.06481	0.39709	-0.079
Mof_C 	C 	0.1746	0.04026	0.38087	0.361
Mof_C 	C 	0.2821	0.0941	0.37178	0.026
Mof_H 	H 	0.2765	0.0777	0.3595	0.021
Mof_N 	N 	0.30802	0.1096	0.36915	-0.153
Mof_O 	O 	0.1507	0.0308	0.39242	-0.384
Mof_C 	C 	0.2208	0.0731	0.38994	-0.006
Mof_H 	H 	0.2316	0.0618	0.3755	0.028
Mof_C 	C 	0.2143	0.078	0.3833	-0.018
Mof_H 	H 	0.2223	0.0699	0.3653	0.037
Mof_C 	C 	0.2724	0.1067	0.3605	0.005
Mof_H 	H 	0.2667	0.0911	0.3471	0.018
Mof_N 	N 	0.2962	0.1228	0.3572	-0.159
Mof_O 	O 	0.18628	0.53082	0.85738	-0.409
Mof_C 	C 	0.19025	0.56481	0.89709	-0.078
Mof_C 	C 	0.1746	0.54026	0.88087	0.361
Mof_C 	C 	0.2821	0.5941	0.87178	0.028
Mof_H 	H 	0.2765	0.5777	0.8595	0.021
Mof_N 	N 	0.30802	0.6096	0.86915	-0.153
Mof_O 	O 	0.1507	0.5308	0.89242	-0.384
Mof_C 	C 	0.2208	0.5731	0.88994	-0.007
Mof_H 	H 	0.2316	0.5618	0.8755	0.029
Mof_C 	C 	0.2143	0.578	0.8833	-0.017
Mof_H 	H 	0.2223	0.5699	0.8653	0.037
Mof_C 	C 	0.2724	0.6067	0.8605	0.004
Mof_H 	H 	0.2667	0.5911	0.8471	0.018
Mof_N 	N 	0.2962	0.6228	0.8572	-0.159
Mof_O 	O 	0.68628	0.03082	0.85738	-0.41
Mof_C 	C 	0.69025	0.06481	0.89709	-0.079
Mof_C 	C 	0.6746	0.04026	0.88087	0.361
Mof_C 	C 	0.7821	0.0941	0.87178	0.027
Mof_H 	H 	0.7765	0.0777	0.8595	0.021
Mof_N 	N 	0.80802	0.1096	0.86915	-0.153
Mof_O 	O 	0.6507	0.0308	0.89242	-0.384
Mof_C 	C 	0.7208	0.0731	0.88994	-0.007
Mof_H 	H 	0.7316	0.0618	0.8755	0.029
Mof_C 	C 	0.7143	0.078	0.8833	-0.017
Mof_H 	H 	0.7223	0.0699	0.8653	0.037
Mof_C 	C 	0.7724	0.1067	0.8605	0.004
Mof_H 	H 	0.7667	0.0911	0.8471	0.018
Mof_N 	N 	0.7962	0.1228	0.8572	-0.159
Mof_O 	O 	0.68628	0.53082	0.35738	-0.409
Mof_C 	C 	0.69025	0.56481	0.39709	-0.078
Mof_C 	C 	0.6746	0.54026	0.38087	0.361
Mof_C 	C 	0.7821	0.5941	0.37178	0.027
Mof_H 	H 	0.7765	0.5777	0.3595	0.022
Mof_N 	N 	0.80802	0.6096	0.36915	-0.153
Mof_O 	O 	0.6507	0.5308	0.39242	-0.384
Mof_C 	C 	0.7208	0.5731	0.38994	-0.007
Mof_H 	H 	0.7316	0.5618	0.3755	0.029
Mof_C 	C 	0.7143	0.578	0.3833	-0.017
Mof_H 	H 	0.7223	0.5699	0.3653	0.037
Mof_C 	C 	0.7724	0.6067	0.3605	0.005
Mof_H 	H 	0.7667	0.5911	0.3471	0.018
Mof_N 	N 	0.7962	0.6228	0.3572	-0.159
Mof_O 	O 	0.81372	0.96918	0.35738	-0.407
Mof_C 	C 	0.80975	0.93519	0.39709	-0.078
Mof_C 	C 	0.8254	0.95974	0.38087	0.361
Mof_C 	C 	0.7179	0.9059	0.37178	0.027
Mof_H 	H 	0.7235	0.9223	0.3595	0.022
Mof_N 	N 	0.69198	0.8904	0.36915	-0.153
Mof_O 	O 	0.8493	0.9692	0.39242	-0.383
Mof_C 	C 	0.7792	0.9269	0.38994	-0.007
Mof_H 	H 	0.7684	0.9382	0.3755	0.03
Mof_C 	C 	0.7857	0.922	0.3833	-0.017
Mof_H 	H 	0.7777	0.9301	0.3653	0.037
Mof_C 	C 	0.7276	0.8933	0.3605	0.004
Mof_H 	H 	0.7333	0.9089	0.3471	0.018
Mof_N 	N 	0.7038	0.8772	0.3572	-0.159
Mof_O 	O 	0.81372	0.46918	0.85738	-0.409
Mof_C 	C 	0.80975	0.43519	0.89709	-0.078
Mof_C 	C 	0.8254	0.45974	0.88087	0.361
Mof_C 	C 	0.7179	0.4059	0.87178	0.028
Mof_H 	H 	0.7235	0.4223	0.8595	0.021
Mof_N 	N 	0.69198	0.3904	0.86915	-0.153
Mof_O 	O 	0.8493	0.4692	0.89242	-0.384
Mof_C 	C 	0.7792	0.4269	0.88994	-0.007
Mof_H 	H 	0.7684	0.4382	0.8755	0.029
Mof_C 	C 	0.7857	0.422	0.8833	-0.017
Mof_H 	H 	0.7777	0.4301	0.8653	0.037
Mof_C 	C 	0.7276	0.3933	0.8605	0.004
Mof_H 	H 	0.7333	0.4089	0.8471	0.018
Mof_N 	N 	0.7038	0.3772	0.8572	-0.159
Mof_O 	O 	0.31372	0.96918	0.85738	-0.407
Mof_C 	C 	0.30975	0.93519	0.89709	-0.078
Mof_C 	C 	0.3254	0.95974	0.88087	0.361
Mof_C 	C 	0.2179	0.9059	0.87178	0.028
Mof_H 	H 	0.2235	0.9223	0.8595	0.021
Mof_N 	N 	0.19198	0.8904	0.86915	-0.153
Mof_O 	O 	0.3493	0.9692	0.89242	-0.383
Mof_C 	C 	0.2792	0.9269	0.88994	-0.008
Mof_H 	H 	0.2684	0.9382	0.8755	0.03
Mof_C 	C 	0.2857	0.922	0.8833	-0.016
Mof_H 	H 	0.2777	0.9301	0.8653	0.037
Mof_C 	C 	0.2276	0.8933	0.8605	0.003
Mof_H 	H 	0.2333	0.9089	0.8471	0.019
Mof_N 	N 	0.2038	0.8772	0.8572	-0.159
Mof_O 	O 	0.31372	0.46918	0.35738	-0.409
Mof_C 	C 	0.30975	0.43519	0.39709	-0.078
Mof_C 	C 	0.3254	0.45974	0.38087	0.361
Mof_C 	C 	0.2179	0.4059	0.37178	0.027
Mof_H 	H 	0.2235	0.4223	0.3595	0.022
Mof_N 	N 	0.19198	0.3904	0.36915	-0.153
Mof_O 	O 	0.3493	0.4692	0.39242	-0.384
Mof_C 	C 	0.2792	0.4269	0.38994	-0.007
Mof_H 	H 	0.2684	0.4382	0.3755	0.029
Mof_C 	C 	0.2857	0.422	0.3833	-0.017
Mof_H 	H 	0.2777	0.4301	0.3653	0.037
Mof_C 	C 	0.2276	0.3933	0.3605	0.005
Mof_H 	H 	0.2333	0.4089	0.3471	0.018
Mof_N 	N 	0.2038	0.3772	0.3572	-0.159
Mof_O 	O 	0.81372	0.03082	0.64262	-0.41
Mof_C 	C 	0.80975	0.06481	0.60291	-0.079
Mof_C 	C 	0.8254	0.04026	0.61913	0.361
Mof_C 	C 	0.7179	0.0941	0.62822	0.026
Mof_H 	H 	0.7235	0.0777	0.6405	0.021
Mof_N 	N 	0.69198	0.1096	0.63085	-0.153
Mof_O 	O 	0.8493	0.0308	0.60758	-0.384
Mof_C 	C 	0.7792	0.0731	0.61006	-0.006
Mof_H 	H 	0.7684	0.0618	0.6245	0.028
Mof_C 	C 	0.7857	0.078	0.6167	-0.018
Mof_H 	H 	0.7777	0.0699	0.6347	0.037
Mof_C 	C 	0.7276	0.1067	0.6395	0.005
Mof_H 	H 	0.7333	0.0911	0.6529	0.018
Mof_N 	N 	0.7038	0.1228	0.6428	-0.159
Mof_O 	O 	0.81372	0.53082	0.14262	-0.409
Mof_C 	C 	0.80975	0.56481	0.10291	-0.079
Mof_C 	C 	0.8254	0.54026	0.11913	0.361
Mof_C 	C 	0.7179	0.5941	0.12822	0.026
Mof_H 	H 	0.7235	0.5777	0.1405	0.022
Mof_N 	N 	0.69198	0.6096	0.13085	-0.153
Mof_O 	O 	0.8493	0.5308	0.10758	-0.384
Mof_C 	C 	0.7792	0.5731	0.11006	-0.006
Mof_H 	H 	0.7684	0.5618	0.1245	0.029
Mof_C 	C 	0.7857	0.578	0.1167	-0.018
Mof_H 	H 	0.7777	0.5699	0.1347	0.037
Mof_C 	C 	0.7276	0.6067	0.1395	0.005
Mof_H 	H 	0.7333	0.5911	0.1529	0.018
Mof_N 	N 	0.7038	0.6228	0.1428	-0.159
Mof_O 	O 	0.31372	0.03082	0.14262	-0.41
Mof_C 	C 	0.30975	0.06481	0.10291	-0.079
Mof_C 	C 	0.3254	0.04026	0.11913	0.361
Mof_C 	C 	0.2179	0.0941	0.12822	0.025
Mof_H 	H 	0.2235	0.0777	0.1405	0.022
Mof_N 	N 	0.19198	0.1096	0.13085	-0.153
Mof_O 	O 	0.3493	0.0308	0.10758	-0.384
Mof_C 	C 	0.2792	0.0731	0.11006	-0.006
Mof_H 	H 	0.2684	0.0618	0.1245	0.028
Mof_C 	C 	0.2857	0.078	0.1167	-0.018
Mof_H 	H 	0.2777	0.0699	0.1347	0.038
Mof_C 	C 	0.2276	0.1067	0.1395	0.006
Mof_H 	H 	0.2333	0.0911	0.1529	0.018
Mof_N 	N 	0.2038	0.1228	0.1428	-0.159
Mof_O 	O 	0.31372	0.53082	0.64262	-0.409
Mof_C 	C 	0.30975	0.56481	0.60291	-0.079
Mof_C 	C 	0.3254	0.54026	0.61913	0.361
Mof_C 	C 	0.2179	0.5941	0.62822	0.027
Mof_H 	H 	0.2235	0.5777	0.6405	0.022
Mof_N 	N 	0.19198	0.6096	0.63085	-0.153
Mof_O 	O 	0.3493	0.5308	0.60758	-0.384
Mof_C 	C 	0.2792	0.5731	0.61006	-0.007
Mof_H 	H 	0.2684	0.5618	0.6245	0.029
Mof_C 	C 	0.2857	0.578	0.6167	-0.017
Mof_H 	H 	0.2777	0.5699	0.6347	0.037
Mof_C 	C 	0.2276	0.6067	0.6395	0.005
Mof_H 	H 	0.2333	0.5911	0.6529	0.018
Mof_N 	N 	0.2038	0.6228	0.6428	-0.159
Mof_O 	O 	0.64262	0.03082	0.81372	-0.41
Mof_C 	C 	0.60291	0.06481	0.80975	-0.079
Mof_C 	C 	0.61913	0.04026	0.8254	0.361
Mof_C 	C 	0.62822	0.0941	0.7179	0.026
Mof_H 	H 	0.6405	0.0777	0.7235	0.021
Mof_N 	N 	0.63085	0.1096	0.69198	-0.153
Mof_O 	O 	0.60758	0.0308	0.8493	-0.384
Mof_C 	C 	0.61006	0.0731	0.7792	-0.006
Mof_H 	H 	0.6245	0.0618	0.7684	0.028
Mof_C 	C 	0.6167	0.078	0.7857	-0.018
Mof_H 	H 	0.6347	0.0699	0.7777	0.037
Mof_C 	C 	0.6395	0.1067	0.7276	0.005
Mof_H 	H 	0.6529	0.0911	0.7333	0.018
Mof_N 	N 	0.6428	0.1228	0.7038	-0.159
Mof_O 	O 	0.64262	0.53082	0.31372	-0.409
Mof_C 	C 	0.60291	0.56481	0.30975	-0.079
Mof_C 	C 	0.61913	0.54026	0.3254	0.361
Mof_C 	C 	0.62822	0.5941	0.2179	0.027
Mof_H 	H 	0.6405	0.5777	0.2235	0.022
Mof_N 	N 	0.63085	0.6096	0.19198	-0.153
Mof_O 	O 	0.60758	0.5308	0.3493	-0.384
Mof_C 	C 	0.61006	0.5731	0.2792	-0.007
Mof_H 	H 	0.6245	0.5618	0.2684	0.029
Mof_C 	C 	0.6167	0.578	0.2857	-0.017
Mof_H 	H 	0.6347	0.5699	0.2777	0.037
Mof_C 	C 	0.6395	0.6067	0.2276	0.005
Mof_H 	H 	0.6529	0.5911	0.2333	0.018
Mof_N 	N 	0.6428	0.6228	0.2038	-0.159
Mof_O 	O 	0.14262	0.03082	0.31372	-0.41
Mof_C 	C 	0.10291	0.06481	0.30975	-0.079
Mof_C 	C 	0.11913	0.04026	0.3254	0.361
Mof_C 	C 	0.12822	0.0941	0.2179	0.025
Mof_H 	H 	0.1405	0.0777	0.2235	0.022
Mof_N 	N 	0.13085	0.1096	0.19198	-0.153
Mof_O 	O 	0.10758	0.0308	0.3493	-0.384
Mof_C 	C 	0.11006	0.0731	0.2792	-0.006
Mof_H 	H 	0.1245	0.0618	0.2684	0.028
Mof_C 	C 	0.1167	0.078	0.2857	-0.018
Mof_H 	H 	0.1347	0.0699	0.2777	0.038
Mof_C 	C 	0.1395	0.1067	0.2276	0.006
Mof_H 	H 	0.1529	0.0911	0.2333	0.018
Mof_N 	N 	0.1428	0.1228	0.2038	-0.159
Mof_O 	O 	0.14262	0.53082	0.81372	-0.409
Mof_C 	C 	0.10291	0.56481	0.80975	-0.079
Mof_C 	C 	0.11913	0.54026	0.8254	0.361
Mof_C 	C 	0.12822	0.5941	0.7179	0.026
Mof_H 	H 	0.1405	0.5777	0.7235	0.022
Mof_N 	N 	0.13085	0.6096	0.69198	-0.153
Mof_O 	O 	0.10758	0.5308	0.8493	-0.384
Mof_C 	C 	0.11006	0.5731	0.7792	-0.006
Mof_H 	H 	0.1245	0.5618	0.7684	0.029
Mof_C 	C 	0.1167	0.578	0.7857	-0.018
Mof_H 	H 	0.1347	0.5699	0.7777	0.037
Mof_C 	C 	0.1395	0.6067	0.7276	0.005
Mof_H 	H 	0.1529	0.5911	0.7333	0.018
Mof_N 	N 	0.1428	0.6228	0.7038	-0.159
Mof_O 	O 	0.35738	0.96918	0.81372	-0.407
Mof_C 	C 	0.39709	0.93519	0.80975	-0.078
Mof_C 	C 	0.38087	0.95974	0.8254	0.361
Mof_C 	C 	0.37178	0.9059	0.7179	0.027
Mof_H 	H 	0.3595	0.9223	0.7235	0.022
Mof_N 	N 	0.36915	0.8904	0.69198	-0.153
Mof_O 	O 	0.39242	0.9692	0.8493	-0.383
Mof_C 	C 	0.38994	0.9269	0.7792	-0.007
Mof_H 	H 	0.3755	0.9382	0.7684	0.03
Mof_C 	C 	0.3833	0.922	0.7857	-0.017
Mof_H 	H 	0.3653	0.9301	0.7777	0.037
Mof_C 	C 	0.3605	0.8933	0.7276	0.004
Mof_H 	H 	0.3471	0.9089	0.7333	0.018
Mof_N 	N 	0.3572	0.8772	0.7038	-0.159
Mof_O 	O 	0.35738	0.46918	0.31372	-0.409
Mof_C 	C 	0.39709	0.43519	0.30975	-0.078
Mof_C 	C 	0.38087	0.45974	0.3254	0.361
Mof_C 	C 	0.37178	0.4059	0.2179	0.027
Mof_H 	H 	0.3595	0.4223	0.2235	0.022
Mof_N 	N 	0.36915	0.3904	0.19198	-0.153
Mof_O 	O 	0.39242	0.4692	0.3493	-0.384
Mof_C 	C 	0.38994	0.4269	0.2792	-0.007
Mof_H 	H 	0.3755	0.4382	0.2684	0.029
Mof_C 	C 	0.3833	0.422	0.2857	-0.017
Mof_H 	H 	0.3653	0.4301	0.2777	0.037
Mof_C 	C 	0.3605	0.3933	0.2276	0.005
Mof_H 	H 	0.3471	0.4089	0.2333	0.018
Mof_N 	N 	0.3572	0.3772	0.2038	-0.159
Mof_O 	O 	0.85738	0.96918	0.31372	-0.407
Mof_C 	C 	0.89709	0.93519	0.30975	-0.078
Mof_C 	C 	0.88087	0.95974	0.3254	0.361
Mof_C 	C 	0.87178	0.9059	0.2179	0.028
Mof_H 	H 	0.8595	0.9223	0.2235	0.021
Mof_N 	N 	0.86915	0.8904	0.19198	-0.153
Mof_O 	O 	0.89242	0.9692	0.3493	-0.383
Mof_C 	C 	0.88994	0.9269	0.2792	-0.008
Mof_H 	H 	0.8755	0.9382	0.2684	0.03
Mof_C 	C 	0.8833	0.922	0.2857	-0.016
Mof_H 	H 	0.8653	0.9301	0.2777	0.037
Mof_C 	C 	0.8605	0.8933	0.2276	0.003
Mof_H 	H 	0.8471	0.9089	0.2333	0.019
Mof_N 	N 	0.8572	0.8772	0.2038	-0.159
Mof_O 	O 	0.85738	0.46918	0.81372	-0.409
Mof_C 	C 	0.89709	0.43519	0.80975	-0.078
Mof_C 	C 	0.88087	0.45974	0.8254	0.361
Mof_C 	C 	0.87178	0.4059	0.7179	0.028
Mof_H 	H 	0.8595	0.4223	0.7235	0.021
Mof_N 	N 	0.86915	0.3904	0.69198	-0.153
Mof_O 	O 	0.89242	0.4692	0.8493	-0.384
Mof_C 	C 	0.88994	0.4269	0.7792	-0.007
Mof_H 	H 	0.8755	0.4382	0.7684	0.029
Mof_C 	C 	0.8833	0.422	0.7857	-0.017
Mof_H 	H 	0.8653	0.4301	0.7777	0.037
Mof_C 	C 	0.8605	0.3933	0.7276	0.004
Mof_H 	H 	0.8471	0.4089	0.7333	0.018
Mof_N 	N 	0.8572	0.3772	0.7038	-0.159
Mof_O 	O 	0.35738	0.03082	0.18628	-0.41
Mof_C 	C 	0.39709	0.06481	0.19025	-0.079
Mof_C 	C 	0.38087	0.04026	0.1746	0.361
Mof_C 	C 	0.37178	0.0941	0.2821	0.026
Mof_H 	H 	0.3595	0.0777	0.2765	0.021
Mof_N 	N 	0.36915	0.1096	0.30802	-0.153
Mof_O 	O 	0.39242	0.0308	0.1507	-0.384
Mof_C 	C 	0.38994	0.0731	0.2208	-0.006
Mof_H 	H 	0.3755	0.0618	0.2316	0.028
Mof_C 	C 	0.3833	0.078	0.2143	-0.018
Mof_H 	H 	0.3653	0.0699	0.2223	0.037
Mof_C 	C 	0.3605	0.1067	0.2724	0.005
Mof_H 	H 	0.3471	0.0911	0.2667	0.018
Mof_N 	N 	0.3572	0.1228	0.2962	-0.159
Mof_O 	O 	0.35738	0.53082	0.68628	-0.409
Mof_C 	C 	0.39709	0.56481	0.69025	-0.078
Mof_C 	C 	0.38087	0.54026	0.6746	0.361
Mof_C 	C 	0.37178	0.5941	0.7821	0.027
Mof_H 	H 	0.3595	0.5777	0.7765	0.022
Mof_N 	N 	0.36915	0.6096	0.80802	-0.153
Mof_O 	O 	0.39242	0.5308	0.6507	-0.384
Mof_C 	C 	0.38994	0.5731	0.7208	-0.007
Mof_H 	H 	0.3755	0.5618	0.7316	0.029
Mof_C 	C 	0.3833	0.578	0.7143	-0.017
Mof_H 	H 	0.3653	0.5699	0.7223	0.037
Mof_C 	C 	0.3605	0.6067	0.7724	0.005
Mof_H 	H 	0.3471	0.5911	0.7667	0.018
Mof_N 	N 	0.3572	0.6228	0.7962	-0.159
Mof_O 	O 	0.85738	0.03082	0.68628	-0.41
Mof_C 	C 	0.89709	0.06481	0.69025	-0.079
Mof_C 	C 	0.88087	0.04026	0.6746	0.361
Mof_C 	C 	0.87178	0.0941	0.7821	0.027
Mof_H 	H 	0.8595	0.0777	0.7765	0.021
Mof_N 	N 	0.86915	0.1096	0.80802	-0.153
Mof_O 	O 	0.89242	0.0308	0.6507	-0.384
Mof_C 	C 	0.88994	0.0731	0.7208	-0.007
Mof_H 	H 	0.8755	0.0618	0.7316	0.029
Mof_C 	C 	0.8833	0.078	0.7143	-0.017
Mof_H 	H 	0.8653	0.0699	0.7223	0.037
Mof_C 	C 	0.8605	0.1067	0.7724	0.004
Mof_H 	H 	0.8471	0.0911	0.7667	0.018
Mof_N 	N 	0.8572	0.1228	0.7962	-0.159
Mof_O 	O 	0.85738	0.53082	0.18628	-0.409
Mof_C 	C 	0.89709	0.56481	0.19025	-0.078
Mof_C 	C 	0.88087	0.54026	0.1746	0.361
Mof_C 	C 	0.87178	0.5941	0.2821	0.028
Mof_H 	H 	0.8595	0.5777	0.2765	0.021
Mof_N 	N 	0.86915	0.6096	0.30802	-0.153
Mof_O 	O 	0.89242	0.5308	0.1507	-0.384
Mof_C 	C 	0.88994	0.5731	0.2208	-0.007
Mof_H 	H 	0.8755	0.5618	0.2316	0.029
Mof_C 	C 	0.8833	0.578	0.2143	-0.017
Mof_H 	H 	0.8653	0.5699	0.2223	0.037
Mof_C 	C 	0.8605	0.6067	0.2724	0.004
Mof_H 	H 	0.8471	0.5911	0.2667	0.018
Mof_N 	N 	0.8572	0.6228	0.2962	-0.159
Mof_O 	O 	0.64262	0.96918	0.18628	-0.407
Mof_C 	C 	0.60291	0.93519	0.19025	-0.078
Mof_C 	C 	0.61913	0.95974	0.1746	0.361
Mof_C 	C 	0.62822	0.9059	0.2821	0.027
Mof_H 	H 	0.6405	0.9223	0.2765	0.022
Mof_N 	N 	0.63085	0.8904	0.30802	-0.153
Mof_O 	O 	0.60758	0.9692	0.1507	-0.383
Mof_C 	C 	0.61006	0.9269	0.2208	-0.007
Mof_H 	H 	0.6245	0.9382	0.2316	0.03
Mof_C 	C 	0.6167	0.922	0.2143	-0.017
Mof_H 	H 	0.6347	0.9301	0.2223	0.037
Mof_C 	C 	0.6395	0.8933	0.2724	0.004
Mof_H 	H 	0.6529	0.9089	0.2667	0.018
Mof_N 	N 	0.6428	0.8772	0.2962	-0.159
Mof_O 	O 	0.64262	0.46918	0.68628	-0.409
Mof_C 	C 	0.60291	0.43519	0.69025	-0.078
Mof_C 	C 	0.61913	0.45974	0.6746	0.361
Mof_C 	C 	0.62822	0.4059	0.7821	0.027
Mof_H 	H 	0.6405	0.4223	0.7765	0.022
Mof_N 	N 	0.63085	0.3904	0.80802	-0.153
Mof_O 	O 	0.60758	0.4692	0.6507	-0.384
Mof_C 	C 	0.61006	0.4269	0.7208	-0.007
Mof_H 	H 	0.6245	0.4382	0.7316	0.029
Mof_C 	C 	0.6167	0.422	0.7143	-0.017
Mof_H 	H 	0.6347	0.4301	0.7223	0.037
Mof_C 	C 	0.6395	0.3933	0.7724	0.005
Mof_H 	H 	0.6529	0.4089	0.7667	0.018
Mof_N 	N 	0.6428	0.3772	0.7962	-0.159
Mof_O 	O 	0.14262	0.96918	0.68628	-0.407
Mof_C 	C 	0.10291	0.93519	0.69025	-0.078
Mof_C 	C 	0.11913	0.95974	0.6746	0.361
Mof_C 	C 	0.12822	0.9059	0.7821	0.027
Mof_H 	H 	0.1405	0.9223	0.7765	0.022
Mof_N 	N 	0.13085	0.8904	0.80802	-0.153
Mof_O 	O 	0.10758	0.9692	0.6507	-0.383
Mof_C 	C 	0.11006	0.9269	0.7208	-0.007
Mof_H 	H 	0.1245	0.9382	0.7316	0.029
Mof_C 	C 	0.1167	0.922	0.7143	-0.017
Mof_H 	H 	0.1347	0.9301	0.7223	0.037
Mof_C 	C 	0.1395	0.8933	0.7724	0.005
Mof_H 	H 	0.1529	0.9089	0.7667	0.018
Mof_N 	N 	0.1428	0.8772	0.7962	-0.159
Mof_O 	O 	0.14262	0.46918	0.18628	-0.409
Mof_C 	C 	0.10291	0.43519	0.19025	-0.079
Mof_C 	C 	0.11913	0.45974	0.1746	0.361
Mof_C 	C 	0.12822	0.4059	0.2821	0.026
Mof_H 	H 	0.1405	0.4223	0.2765	0.022
Mof_N 	N 	0.13085	0.3904	0.30802	-0.153
Mof_O 	O 	0.10758	0.4692	0.1507	-0.384
Mof_C 	C 	0.11006	0.4269	0.2208	-0.006
Mof_H 	H 	0.1245	0.4382	0.2316	0.029
Mof_C 	C 	0.1167	0.422	0.2143	-0.018
Mof_H 	H 	0.1347	0.4301	0.2223	0.037
Mof_C 	C 	0.1395	0.3933	0.2724	0.006
Mof_H 	H 	0.1529	0.4089	0.2667	0.018
Mof_N 	N 	0.1428	0.3772	0.2962	-0.159
Mof_O 	O 	0.81372	0.64262	0.03082	-0.41
Mof_C 	C 	0.80975	0.60291	0.06481	-0.079
Mof_C 	C 	0.8254	0.61913	0.04026	0.361
Mof_C 	C 	0.7179	0.62822	0.0941	0.026
Mof_H 	H 	0.7235	0.6405	0.0777	0.021
Mof_N 	N 	0.69198	0.63085	0.1096	-0.153
Mof_O 	O 	0.8493	0.60758	0.0308	-0.384
Mof_C 	C 	0.7792	0.61006	0.0731	-0.006
Mof_H 	H 	0.7684	0.6245	0.0618	0.028
Mof_C 	C 	0.7857	0.6167	0.078	-0.018
Mof_H 	H 	0.7777	0.6347	0.0699	0.037
Mof_C 	C 	0.7276	0.6395	0.1067	0.005
Mof_H 	H 	0.7333	0.6529	0.0911	0.018
Mof_N 	N 	0.7038	0.6428	0.1228	-0.159
Mof_O 	O 	0.81372	0.14262	0.53082	-0.409
Mof_C 	C 	0.80975	0.10291	0.56481	-0.079
Mof_C 	C 	0.8254	0.11913	0.54026	0.361
Mof_C 	C 	0.7179	0.12822	0.5941	0.026
Mof_H 	H 	0.7235	0.1405	0.5777	0.022
Mof_N 	N 	0.69198	0.13085	0.6096	-0.153
Mof_O 	O 	0.8493	0.10758	0.5308	-0.384
Mof_C 	C 	0.7792	0.11006	0.5731	-0.006
Mof_H 	H 	0.7684	0.1245	0.5618	0.029
Mof_C 	C 	0.7857	0.1167	0.578	-0.018
Mof_H 	H 	0.7777	0.1347	0.5699	0.037
Mof_C 	C 	0.7276	0.1395	0.6067	0.005
Mof_H 	H 	0.7333	0.1529	0.5911	0.018
Mof_N 	N 	0.7038	0.1428	0.6228	-0.159
Mof_O 	O 	0.31372	0.64262	0.53082	-0.409
Mof_C 	C 	0.30975	0.60291	0.56481	-0.079
Mof_C 	C 	0.3254	0.61913	0.54026	0.361
Mof_C 	C 	0.2179	0.62822	0.5941	0.027
Mof_H 	H 	0.2235	0.6405	0.5777	0.022
Mof_N 	N 	0.19198	0.63085	0.6096	-0.153
Mof_O 	O 	0.3493	0.60758	0.5308	-0.384
Mof_C 	C 	0.2792	0.61006	0.5731	-0.007
Mof_H 	H 	0.2684	0.6245	0.5618	0.029
Mof_C 	C 	0.2857	0.6167	0.578	-0.017
Mof_H 	H 	0.2777	0.6347	0.5699	0.037
Mof_C 	C 	0.2276	0.6395	0.6067	0.005
Mof_H 	H 	0.2333	0.6529	0.5911	0.018
Mof_N 	N 	0.2038	0.6428	0.6228	-0.159
Mof_O 	O 	0.31372	0.14262	0.03082	-0.41
Mof_C 	C 	0.30975	0.10291	0.06481	-0.079
Mof_C 	C 	0.3254	0.11913	0.04026	0.361
Mof_C 	C 	0.2179	0.12822	0.0941	0.025
Mof_H 	H 	0.2235	0.1405	0.0777	0.022
Mof_N 	N 	0.19198	0.13085	0.1096	-0.153
Mof_O 	O 	0.3493	0.10758	0.0308	-0.384
Mof_C 	C 	0.2792	0.11006	0.0731	-0.006
Mof_H 	H 	0.2684	0.1245	0.0618	0.028
Mof_C 	C 	0.2857	0.1167	0.078	-0.018
Mof_H 	H 	0.2777	0.1347	0.0699	0.038
Mof_C 	C 	0.2276	0.1395	0.1067	0.006
Mof_H 	H 	0.2333	0.1529	0.0911	0.018
Mof_N 	N 	0.2038	0.1428	0.1228	-0.159
Mof_O 	O 	0.81372	0.35738	0.96918	-0.407
Mof_C 	C 	0.80975	0.39709	0.93519	-0.078
Mof_C 	C 	0.8254	0.38087	0.95974	0.361
Mof_C 	C 	0.7179	0.37178	0.9059	0.027
Mof_H 	H 	0.7235	0.3595	0.9223	0.022
Mof_N 	N 	0.69198	0.36915	0.8904	-0.153
Mof_O 	O 	0.8493	0.39242	0.9692	-0.383
Mof_C 	C 	0.7792	0.38994	0.9269	-0.007
Mof_H 	H 	0.7684	0.3755	0.9382	0.03
Mof_C 	C 	0.7857	0.3833	0.922	-0.017
Mof_H 	H 	0.7777	0.3653	0.9301	0.037
Mof_C 	C 	0.7276	0.3605	0.8933	0.004
Mof_H 	H 	0.7333	0.3471	0.9089	0.018
Mof_N 	N 	0.7038	0.3572	0.8772	-0.159
Mof_O 	O 	0.81372	0.85738	0.46918	-0.409
Mof_C 	C 	0.80975	0.89709	0.43519	-0.078
Mof_C 	C 	0.8254	0.88087	0.45974	0.361
Mof_C 	C 	0.7179	0.87178	0.4059	0.028
Mof_H 	H 	0.7235	0.8595	0.4223	0.021
Mof_N 	N 	0.69198	0.86915	0.3904	-0.153
Mof_O 	O 	0.8493	0.89242	0.4692	-0.384
Mof_C 	C 	0.7792	0.88994	0.4269	-0.007
Mof_H 	H 	0.7684	0.8755	0.4382	0.029
Mof_C 	C 	0.7857	0.8833	0.422	-0.017
Mof_H 	H 	0.7777	0.8653	0.4301	0.037
Mof_C 	C 	0.7276	0.8605	0.3933	0.004
Mof_H 	H 	0.7333	0.8471	0.4089	0.018
Mof_N 	N 	0.7038	0.8572	0.3772	-0.159
Mof_O 	O 	0.31372	0.35738	0.46918	-0.409
Mof_C 	C 	0.30975	0.39709	0.43519	-0.078
Mof_C 	C 	0.3254	0.38087	0.45974	0.361
Mof_C 	C 	0.2179	0.37178	0.4059	0.027
Mof_H 	H 	0.2235	0.3595	0.4223	0.022
Mof_N 	N 	0.19198	0.36915	0.3904	-0.153
Mof_O 	O 	0.3493	0.39242	0.4692	-0.384
Mof_C 	C 	0.2792	0.38994	0.4269	-0.007
Mof_H 	H 	0.2684	0.3755	0.4382	0.029
Mof_C 	C 	0.2857	0.3833	0.422	-0.017
Mof_H 	H 	0.2777	0.3653	0.4301	0.037
Mof_C 	C 	0.2276	0.3605	0.3933	0.005
Mof_H 	H 	0.2333	0.3471	0.4089	0.018
Mof_N 	N 	0.2038	0.3572	0.3772	-0.159
Mof_O 	O 	0.31372	0.85738	0.96918	-0.407
Mof_C 	C 	0.30975	0.89709	0.93519	-0.078
Mof_C 	C 	0.3254	0.88087	0.95974	0.361
Mof_C 	C 	0.2179	0.87178	0.9059	0.028
Mof_H 	H 	0.2235	0.8595	0.9223	0.021
Mof_N 	N 	0.19198	0.86915	0.8904	-0.153
Mof_O 	O 	0.3493	0.89242	0.9692	-0.383
Mof_C 	C 	0.2792	0.88994	0.9269	-0.008
Mof_H 	H 	0.2684	0.8755	0.9382	0.03
Mof_C 	C 	0.2857	0.8833	0.922	-0.016
Mof_H 	H 	0.2777	0.8653	0.9301	0.037
Mof_C 	C 	0.2276	0.8605	0.8933	0.003
Mof_H 	H 	0.2333	0.8471	0.9089	0.019
Mof_N 	N 	0.2038	0.8572	0.8772	-0.159
Mof_O 	O 	0.18628	0.35738	0.03082	-0.41
Mof_C 	C 	0.19025	0.39709	0.06481	-0.079
Mof_C 	C 	0.1746	0.38087	0.04026	0.361
Mof_C 	C 	0.2821	0.37178	0.0941	0.026
Mof_H 	H 	0.2765	0.3595	0.0777	0.021
Mof_N 	N 	0.30802	0.36915	0.1096	-0.153
Mof_O 	O 	0.1507	0.39242	0.0308	-0.384
Mof_C 	C 	0.2208	0.38994	0.0731	-0.006
Mof_H 	H 	0.2316	0.3755	0.0618	0.028
Mof_C 	C 	0.2143	0.3833	0.078	-0.018
Mof_H 	H 	0.2223	0.3653	0.0699	0.037
Mof_C 	C 	0.2724	0.3605	0.1067	0.005
Mof_H 	H 	0.2667	0.3471	0.0911	0.018
Mof_N 	N 	0.2962	0.3572	0.1228	-0.159
Mof_O 	O 	0.18628	0.85738	0.53082	-0.409
Mof_C 	C 	0.19025	0.89709	0.56481	-0.078
Mof_C 	C 	0.1746	0.88087	0.54026	0.361
Mof_C 	C 	0.2821	0.87178	0.5941	0.028
Mof_H 	H 	0.2765	0.8595	0.5777	0.021
Mof_N 	N 	0.30802	0.86915	0.6096	-0.153
Mof_O 	O 	0.1507	0.89242	0.5308	-0.384
Mof_C 	C 	0.2208	0.88994	0.5731	-0.007
Mof_H 	H 	0.2316	0.8755	0.5618	0.029
Mof_C 	C 	0.2143	0.8833	0.578	-0.017
Mof_H 	H 	0.2223	0.8653	0.5699	0.037
Mof_C 	C 	0.2724	0.8605	0.6067	0.004
Mof_H 	H 	0.2667	0.8471	0.5911	0.018
Mof_N 	N 	0.2962	0.8572	0.6228	-0.159
Mof_O 	O 	0.68628	0.35738	0.53082	-0.409
Mof_C 	C 	0.69025	0.39709	0.56481	-0.078
Mof_C 	C 	0.6746	0.38087	0.54026	0.361
Mof_C 	C 	0.7821	0.37178	0.5941	0.027
Mof_H 	H 	0.7765	0.3595	0.5777	0.022
Mof_N 	N 	0.80802	0.36915	0.6096	-0.153
Mof_O 	O 	0.6507	0.39242	0.5308	-0.384
Mof_C 	C 	0.7208	0.38994	0.5731	-0.007
Mof_H 	H 	0.7316	0.3755	0.5618	0.029
Mof_C 	C 	0.7143	0.3833	0.578	-0.017
Mof_H 	H 	0.7223	0.3653	0.5699	0.037
Mof_C 	C 	0.7724	0.3605	0.6067	0.005
Mof_H 	H 	0.7667	0.3471	0.5911	0.018
Mof_N 	N 	0.7962	0.3572	0.6228	-0.159
Mof_O 	O 	0.68628	0.85738	0.03082	-0.41
Mof_C 	C 	0.69025	0.89709	0.06481	-0.079
Mof_C 	C 	0.6746	0.88087	0.04026	0.361
Mof_C 	C 	0.7821	0.87178	0.0941	0.027
Mof_H 	H 	0.7765	0.8595	0.0777	0.021
Mof_N 	N 	0.80802	0.86915	0.1096	-0.153
Mof_O 	O 	0.6507	0.89242	0.0308	-0.384
Mof_C 	C 	0.7208	0.88994	0.0731	-0.007
Mof_H 	H 	0.7316	0.8755	0.0618	0.029
Mof_C 	C 	0.7143	0.8833	0.078	-0.017
Mof_H 	H 	0.7223	0.8653	0.0699	0.037
Mof_C 	C 	0.7724	0.8605	0.1067	0.004
Mof_H 	H 	0.7667	0.8471	0.0911	0.018
Mof_N 	N 	0.7962	0.8572	0.1228	-0.159
Mof_O 	O 	0.18628	0.64262	0.96918	-0.407
Mof_C 	C 	0.19025	0.60291	0.93519	-0.078
Mof_C 	C 	0.1746	0.61913	0.95974	0.361
Mof_C 	C 	0.2821	0.62822	0.9059	0.027
Mof_H 	H 	0.2765	0.6405	0.9223	0.022
Mof_N 	N 	0.30802	0.63085	0.8904	-0.153
Mof_O 	O 	0.1507	0.60758	0.9692	-0.383
Mof_C 	C 	0.2208	0.61006	0.9269	-0.007
Mof_H 	H 	0.2316	0.6245	0.9382	0.03
Mof_C 	C 	0.2143	0.6167	0.922	-0.017
Mof_H 	H 	0.2223	0.6347	0.9301	0.037
Mof_C 	C 	0.2724	0.6395	0.8933	0.004
Mof_H 	H 	0.2667	0.6529	0.9089	0.018
Mof_N 	N 	0.2962	0.6428	0.8772	-0.159
Mof_O 	O 	0.18628	0.14262	0.46918	-0.409
Mof_C 	C 	0.19025	0.10291	0.43519	-0.079
Mof_C 	C 	0.1746	0.11913	0.45974	0.361
Mof_C 	C 	0.2821	0.12822	0.4059	0.026
Mof_H 	H 	0.2765	0.1405	0.4223	0.022
Mof_N 	N 	0.30802	0.13085	0.3904	-0.153
Mof_O 	O 	0.1507	0.10758	0.4692	-0.384
Mof_C 	C 	0.2208	0.11006	0.4269	-0.006
Mof_H 	H 	0.2316	0.1245	0.4382	0.029
Mof_C 	C 	0.2143	0.1167	0.422	-0.018
Mof_H 	H 	0.2223	0.1347	0.4301	0.037
Mof_C 	C 	0.2724	0.1395	0.3933	0.006
Mof_H 	H 	0.2667	0.1529	0.4089	0.018
Mof_N 	N 	0.2962	0.1428	0.3772	-0.159
Mof_O 	O 	0.68628	0.64262	0.46918	-0.409
Mof_C 	C 	0.69025	0.60291	0.43519	-0.078
Mof_C 	C 	0.6746	0.61913	0.45974	0.361
Mof_C 	C 	0.7821	0.62822	0.4059	0.027
Mof_H 	H 	0.7765	0.6405	0.4223	0.022
Mof_N 	N 	0.80802	0.63085	0.3904	-0.153
Mof_O 	O 	0.6507	0.60758	0.4692	-0.384
Mof_C 	C 	0.7208	0.61006	0.4269	-0.007
Mof_H 	H 	0.7316	0.6245	0.4382	0.029
Mof_C 	C 	0.7143	0.6167	0.422	-0.017
Mof_H 	H 	0.7223	0.6347	0.4301	0.037
Mof_C 	C 	0.7724	0.6395	0.3933	0.005
Mof_H 	H 	0.7667	0.6529	0.4089	0.018
Mof_N 	N 	0.7962	0.6428	0.3772	-0.159
Mof_O 	O 	0.68628	0.14262	0.96918	-0.407
Mof_C 	C 	0.69025	0.10291	0.93519	-0.078
Mof_C 	C 	0.6746	0.11913	0.95974	0.361
Mof_C 	C 	0.7821	0.12822	0.9059	0.027
Mof_H 	H 	0.7765	0.1405	0.9223	0.022
Mof_N 	N 	0.80802	0.13085	0.8904	-0.153
Mof_O 	O 	0.6507	0.10758	0.9692	-0.383
Mof_C 	C 	0.7208	0.11006	0.9269	-0.007
Mof_H 	H 	0.7316	0.1245	0.9382	0.029
Mof_C 	C 	0.7143	0.1167	0.922	-0.017
Mof_H 	H 	0.7223	0.1347	0.9301	0.037
Mof_C 	C 	0.7724	0.1395	0.8933	0.005
Mof_H 	H 	0.7667	0.1529	0.9089	0.018
Mof_N 	N 	0.7962	0.1428	0.8772	-0.159
Mof_O 	O 	0.03082	0.81372	0.64262	-0.41
Mof_C 	C 	0.06481	0.80975	0.60291	-0.079
Mof_C 	C 	0.04026	0.8254	0.61913	0.361
Mof_C 	C 	0.0941	0.7179	0.62822	0.026
Mof_H 	H 	0.0777	0.7235	0.6405	0.021
Mof_N 	N 	0.1096	0.69198	0.63085	-0.153
Mof_O 	O 	0.0308	0.8493	0.60758	-0.384
Mof_C 	C 	0.0731	0.7792	0.61006	-0.006
Mof_H 	H 	0.0618	0.7684	0.6245	0.028
Mof_C 	C 	0.078	0.7857	0.6167	-0.018
Mof_H 	H 	0.0699	0.7777	0.6347	0.037
Mof_C 	C 	0.1067	0.7276	0.6395	0.005
Mof_H 	H 	0.0911	0.7333	0.6529	0.018
Mof_N 	N 	0.1228	0.7038	0.6428	-0.159
Mof_O 	O 	0.03082	0.31372	0.14262	-0.41
Mof_C 	C 	0.06481	0.30975	0.10291	-0.079
Mof_C 	C 	0.04026	0.3254	0.11913	0.361
Mof_C 	C 	0.0941	0.2179	0.12822	0.025
Mof_H 	H 	0.0777	0.2235	0.1405	0.022
Mof_N 	N 	0.1096	0.19198	0.13085	-0.153
Mof_O 	O 	0.0308	0.3493	0.10758	-0.384
Mof_C 	C 	0.0731	0.2792	0.11006	-0.006
Mof_H 	H 	0.0618	0.2684	0.1245	0.028
Mof_C 	C 	0.078	0.2857	0.1167	-0.018
Mof_H 	H 	0.0699	0.2777	0.1347	0.038
Mof_C 	C 	0.1067	0.2276	0.1395	0.006
Mof_H 	H 	0.0911	0.2333	0.1529	0.018
Mof_N 	N 	0.1228	0.2038	0.1428	-0.159
Mof_O 	O 	0.53082	0.81372	0.14262	-0.409
Mof_C 	C 	0.56481	0.80975	0.10291	-0.079
Mof_C 	C 	0.54026	0.8254	0.11913	0.361
Mof_C 	C 	0.5941	0.7179	0.12822	0.026
Mof_H 	H 	0.5777	0.7235	0.1405	0.022
Mof_N 	N 	0.6096	0.69198	0.13085	-0.153
Mof_O 	O 	0.5308	0.8493	0.10758	-0.384
Mof_C 	C 	0.5731	0.7792	0.11006	-0.006
Mof_H 	H 	0.5618	0.7684	0.1245	0.029
Mof_C 	C 	0.578	0.7857	0.1167	-0.018
Mof_H 	H 	0.5699	0.7777	0.1347	0.037
Mof_C 	C 	0.6067	0.7276	0.1395	0.005
Mof_H 	H 	0.5911	0.7333	0.1529	0.018
Mof_N 	N 	0.6228	0.7038	0.1428	-0.159
Mof_O 	O 	0.53082	0.31372	0.64262	-0.409
Mof_C 	C 	0.56481	0.30975	0.60291	-0.079
Mof_C 	C 	0.54026	0.3254	0.61913	0.361
Mof_C 	C 	0.5941	0.2179	0.62822	0.027
Mof_H 	H 	0.5777	0.2235	0.6405	0.022
Mof_N 	N 	0.6096	0.19198	0.63085	-0.153
Mof_O 	O 	0.5308	0.3493	0.60758	-0.384
Mof_C 	C 	0.5731	0.2792	0.61006	-0.007
Mof_H 	H 	0.5618	0.2684	0.6245	0.029
Mof_C 	C 	0.578	0.2857	0.6167	-0.017
Mof_H 	H 	0.5699	0.2777	0.6347	0.037
Mof_C 	C 	0.6067	0.2276	0.6395	0.005
Mof_H 	H 	0.5911	0.2333	0.6529	0.018
Mof_N 	N 	0.6228	0.2038	0.6428	-0.159
Mof_O 	O 	0.96918	0.81372	0.35738	-0.407
Mof_C 	C 	0.93519	0.80975	0.39709	-0.078
Mof_C 	C 	0.95974	0.8254	0.38087	0.361
Mof_C 	C 	0.9059	0.7179	0.37178	0.027
Mof_H 	H 	0.9223	0.7235	0.3595	0.022
Mof_N 	N 	0.8904	0.69198	0.36915	-0.153
Mof_O 	O 	0.9692	0.8493	0.39242	-0.383
Mof_C 	C 	0.9269	0.7792	0.38994	-0.007
Mof_H 	H 	0.9382	0.7684	0.3755	0.03
Mof_C 	C 	0.922	0.7857	0.3833	-0.017
Mof_H 	H 	0.9301	0.7777	0.3653	0.037
Mof_C 	C 	0.8933	0.7276	0.3605	0.004
Mof_H 	H 	0.9089	0.7333	0.3471	0.018
Mof_N 	N 	0.8772	0.7038	0.3572	-0.159
Mof_O 	O 	0.96918	0.31372	0.85738	-0.407
Mof_C 	C 	0.93519	0.30975	0.89709	-0.078
Mof_C 	C 	0.95974	0.3254	0.88087	0.361
Mof_C 	C 	0.9059	0.2179	0.87178	0.028
Mof_H 	H 	0.9223	0.2235	0.8595	0.021
Mof_N 	N 	0.8904	0.19198	0.86915	-0.153
Mof_O 	O 	0.9692	0.3493	0.89242	-0.383
Mof_C 	C 	0.9269	0.2792	0.88994	-0.008
Mof_H 	H 	0.9382	0.2684	0.8755	0.03
Mof_C 	C 	0.922	0.2857	0.8833	-0.016
Mof_H 	H 	0.9301	0.2777	0.8653	0.037
Mof_C 	C 	0.8933	0.2276	0.8605	0.003
Mof_H 	H 	0.9089	0.2333	0.8471	0.019
Mof_N 	N 	0.8772	0.2038	0.8572	-0.159
Mof_O 	O 	0.46918	0.81372	0.85738	-0.409
Mof_C 	C 	0.43519	0.80975	0.89709	-0.078
Mof_C 	C 	0.45974	0.8254	0.88087	0.361
Mof_C 	C 	0.4059	0.7179	0.87178	0.028
Mof_H 	H 	0.4223	0.7235	0.8595	0.021
Mof_N 	N 	0.3904	0.69198	0.86915	-0.153
Mof_O 	O 	0.4692	0.8493	0.89242	-0.384
Mof_C 	C 	0.4269	0.7792	0.88994	-0.007
Mof_H 	H 	0.4382	0.7684	0.8755	0.029
Mof_C 	C 	0.422	0.7857	0.8833	-0.017
Mof_H 	H 	0.4301	0.7777	0.8653	0.037
Mof_C 	C 	0.3933	0.7276	0.8605	0.004
Mof_H 	H 	0.4089	0.7333	0.8471	0.018
Mof_N 	N 	0.3772	0.7038	0.8572	-0.159
Mof_O 	O 	0.46918	0.31372	0.35738	-0.409
Mof_C 	C 	0.43519	0.30975	0.39709	-0.078
Mof_C 	C 	0.45974	0.3254	0.38087	0.361
Mof_C 	C 	0.4059	0.2179	0.37178	0.027
Mof_H 	H 	0.4223	0.2235	0.3595	0.022
Mof_N 	N 	0.3904	0.19198	0.36915	-0.153
Mof_O 	O 	0.4692	0.3493	0.39242	-0.384
Mof_C 	C 	0.4269	0.2792	0.38994	-0.007
Mof_H 	H 	0.4382	0.2684	0.3755	0.029
Mof_C 	C 	0.422	0.2857	0.3833	-0.017
Mof_H 	H 	0.4301	0.2777	0.3653	0.037
Mof_C 	C 	0.3933	0.2276	0.3605	0.005
Mof_H 	H 	0.4089	0.2333	0.3471	0.018
Mof_N 	N 	0.3772	0.2038	0.3572	-0.159
Mof_O 	O 	0.03082	0.18628	0.35738	-0.41
Mof_C 	C 	0.06481	0.19025	0.39709	-0.079
Mof_C 	C 	0.04026	0.1746	0.38087	0.361
Mof_C 	C 	0.0941	0.2821	0.37178	0.026
Mof_H 	H 	0.0777	0.2765	0.3595	0.021
Mof_N 	N 	0.1096	0.30802	0.36915	-0.153
Mof_O 	O 	0.0308	0.1507	0.39242	-0.384
Mof_C 	C 	0.0731	0.2208	0.38994	-0.006
Mof_H 	H 	0.0618	0.2316	0.3755	0.028
Mof_C 	C 	0.078	0.2143	0.3833	-0.018
Mof_H 	H 	0.0699	0.2223	0.3653	0.037
Mof_C 	C 	0.1067	0.2724	0.3605	0.005
Mof_H 	H 	0.0911	0.2667	0.3471	0.018
Mof_N 	N 	0.1228	0.2962	0.3572	-0.159
Mof_O 	O 	0.03082	0.68628	0.85738	-0.41
Mof_C 	C 	0.06481	0.69025	0.89709	-0.079
Mof_C 	C 	0.04026	0.6746	0.88087	0.361
Mof_C 	C 	0.0941	0.7821	0.87178	0.027
Mof_H 	H 	0.0777	0.7765	0.8595	0.021
Mof_N 	N 	0.1096	0.80802	0.86915	-0.153
Mof_O 	O 	0.0308	0.6507	0.89242	-0.384
Mof_C 	C 	0.0731	0.7208	0.88994	-0.007
Mof_H 	H 	0.0618	0.7316	0.8755	0.029
Mof_C 	C 	0.078	0.7143	0.8833	-0.017
Mof_H 	H 	0.0699	0.7223	0.8653	0.037
Mof_C 	C 	0.1067	0.7724	0.8605	0.004
Mof_H 	H 	0.0911	0.7667	0.8471	0.018
Mof_N 	N 	0.1228	0.7962	0.8572	-0.159
Mof_O 	O 	0.53082	0.18628	0.85738	-0.409
Mof_C 	C 	0.56481	0.19025	0.89709	-0.078
Mof_C 	C 	0.54026	0.1746	0.88087	0.361
Mof_C 	C 	0.5941	0.2821	0.87178	0.028
Mof_H 	H 	0.5777	0.2765	0.8595	0.021
Mof_N 	N 	0.6096	0.30802	0.86915	-0.153
Mof_O 	O 	0.5308	0.1507	0.89242	-0.384
Mof_C 	C 	0.5731	0.2208	0.88994	-0.007
Mof_H 	H 	0.5618	0.2316	0.8755	0.029
Mof_C 	C 	0.578	0.2143	0.8833	-0.017
Mof_H 	H 	0.5699	0.2223	0.8653	0.037
Mof_C 	C 	0.6067	0.2724	0.8605	0.004
Mof_H 	H 	0.5911	0.2667	0.8471	0.018
Mof_N 	N 	0.6228	0.2962	0.8572	-0.159
Mof_O 	O 	0.53082	0.68628	0.35738	-0.409
Mof_C 	C 	0.56481	0.69025	0.39709	-0.078
Mof_C 	C 	0.54026	0.6746	0.38087	0.361
Mof_C 	C 	0.5941	0.7821	0.37178	0.027
Mof_H 	H 	0.5777	0.7765	0.3595	0.022
Mof_N 	N 	0.6096	0.80802	0.36915	-0.153
Mof_O 	O 	0.5308	0.6507	0.39242	-0.384
Mof_C 	C 	0.5731	0.7208	0.38994	-0.007
Mof_H 	H 	0.5618	0.7316	0.3755	0.029
Mof_C 	C 	0.578	0.7143	0.3833	-0.017
Mof_H 	H 	0.5699	0.7223	0.3653	0.037
Mof_C 	C 	0.6067	0.7724	0.3605	0.005
Mof_H 	H 	0.5911	0.7667	0.3471	0.018
Mof_N 	N 	0.6228	0.7962	0.3572	-0.159
Mof_O 	O 	0.96918	0.18628	0.64262	-0.407
Mof_C 	C 	0.93519	0.19025	0.60291	-0.078
Mof_C 	C 	0.95974	0.1746	0.61913	0.361
Mof_C 	C 	0.9059	0.2821	0.62822	0.027
Mof_H 	H 	0.9223	0.2765	0.6405	0.022
Mof_N 	N 	0.8904	0.30802	0.63085	-0.153
Mof_O 	O 	0.9692	0.1507	0.60758	-0.383
Mof_C 	C 	0.9269	0.2208	0.61006	-0.007
Mof_H 	H 	0.9382	0.2316	0.6245	0.03
Mof_C 	C 	0.922	0.2143	0.6167	-0.017
Mof_H 	H 	0.9301	0.2223	0.6347	0.037
Mof_C 	C 	0.8933	0.2724	0.6395	0.004
Mof_H 	H 	0.9089	0.2667	0.6529	0.018
Mof_N 	N 	0.8772	0.2962	0.6428	-0.159
Mof_O 	O 	0.96918	0.68628	0.14262	-0.407
Mof_C 	C 	0.93519	0.69025	0.10291	-0.078
Mof_C 	C 	0.95974	0.6746	0.11913	0.361
Mof_C 	C 	0.9059	0.7821	0.12822	0.027
Mof_H 	H 	0.9223	0.7765	0.1405	0.022
Mof_N 	N 	0.8904	0.80802	0.13085	-0.153
Mof_O 	O 	0.9692	0.6507	0.10758	-0.383
Mof_C 	C 	0.9269	0.7208	0.11006	-0.007
Mof_H 	H 	0.9382	0.7316	0.1245	0.029
Mof_C 	C 	0.922	0.7143	0.1167	-0.017
Mof_H 	H 	0.9301	0.7223	0.1347	0.037
Mof_C 	C 	0.8933	0.7724	0.1395	0.005
Mof_H 	H 	0.9089	0.7667	0.1529	0.018
Mof_N 	N 	0.8772	0.7962	0.1428	-0.159
Mof_O 	O 	0.46918	0.18628	0.14262	-0.409
Mof_C 	C 	0.43519	0.19025	0.10291	-0.079
Mof_C 	C 	0.45974	0.1746	0.11913	0.361
Mof_C 	C 	0.4059	0.2821	0.12822	0.026
Mof_H 	H 	0.4223	0.2765	0.1405	0.022
Mof_N 	N 	0.3904	0.30802	0.13085	-0.153
Mof_O 	O 	0.4692	0.1507	0.10758	-0.384
Mof_C 	C 	0.4269	0.2208	0.11006	-0.006
Mof_H 	H 	0.4382	0.2316	0.1245	0.029
Mof_C 	C 	0.422	0.2143	0.1167	-0.018
Mof_H 	H 	0.4301	0.2223	0.1347	0.037
Mof_C 	C 	0.3933	0.2724	0.1395	0.006
Mof_H 	H 	0.4089	0.2667	0.1529	0.018
Mof_N 	N 	0.3772	0.2962	0.1428	-0.159
Mof_O 	O 	0.46918	0.68628	0.64262	-0.409
Mof_C 	C 	0.43519	0.69025	0.60291	-0.078
Mof_C 	C 	0.45974	0.6746	0.61913	0.361
Mof_C 	C 	0.4059	0.7821	0.62822	0.027
Mof_H 	H 	0.4223	0.7765	0.6405	0.022
Mof_N 	N 	0.3904	0.80802	0.63085	-0.153
Mof_O 	O 	0.4692	0.6507	0.60758	-0.384
Mof_C 	C 	0.4269	0.7208	0.61006	-0.007
Mof_H 	H 	0.4382	0.7316	0.6245	0.029
Mof_C 	C 	0.422	0.7143	0.6167	-0.017
Mof_H 	H 	0.4301	0.7223	0.6347	0.037
Mof_C 	C 	0.3933	0.7724	0.6395	0.005
Mof_H 	H 	0.4089	0.7667	0.6529	0.018
Mof_N 	N 	0.3772	0.7962	0.6428	-0.159
Mof_O 	O 	0.03082	0.64262	0.18628	-0.41
Mof_C 	C 	0.06481	0.60291	0.19025	-0.079
Mof_C 	C 	0.04026	0.61913	0.1746	0.361
Mof_C 	C 	0.0941	0.62822	0.2821	0.026
Mof_H 	H 	0.0777	0.6405	0.2765	0.021
Mof_N 	N 	0.1096	0.63085	0.30802	-0.153
Mof_O 	O 	0.0308	0.60758	0.1507	-0.384
Mof_C 	C 	0.0731	0.61006	0.2208	-0.006
Mof_H 	H 	0.0618	0.6245	0.2316	0.028
Mof_C 	C 	0.078	0.6167	0.2143	-0.018
Mof_H 	H 	0.0699	0.6347	0.2223	0.037
Mof_C 	C 	0.1067	0.6395	0.2724	0.005
Mof_H 	H 	0.0911	0.6529	0.2667	0.018
Mof_N 	N 	0.1228	0.6428	0.2962	-0.159
Mof_O 	O 	0.03082	0.14262	0.68628	-0.41
Mof_C 	C 	0.06481	0.10291	0.69025	-0.079
Mof_C 	C 	0.04026	0.11913	0.6746	0.361
Mof_C 	C 	0.0941	0.12822	0.7821	0.025
Mof_H 	H 	0.0777	0.1405	0.7765	0.022
Mof_N 	N 	0.1096	0.13085	0.80802	-0.153
Mof_O 	O 	0.0308	0.10758	0.6507	-0.384
Mof_C 	C 	0.0731	0.11006	0.7208	-0.006
Mof_H 	H 	0.0618	0.1245	0.7316	0.028
Mof_C 	C 	0.078	0.1167	0.7143	-0.018
Mof_H 	H 	0.0699	0.1347	0.7223	0.037
Mof_C 	C 	0.1067	0.1395	0.7724	0.006
Mof_H 	H 	0.0911	0.1529	0.7667	0.018
Mof_N 	N 	0.1228	0.1428	0.7962	-0.159
Mof_O 	O 	0.53082	0.64262	0.68628	-0.409
Mof_C 	C 	0.56481	0.60291	0.69025	-0.079
Mof_C 	C 	0.54026	0.61913	0.6746	0.361
Mof_C 	C 	0.5941	0.62822	0.7821	0.027
Mof_H 	H 	0.5777	0.6405	0.7765	0.021
Mof_N 	N 	0.6096	0.63085	0.80802	-0.153
Mof_O 	O 	0.5308	0.60758	0.6507	-0.384
Mof_C 	C 	0.5731	0.61006	0.7208	-0.007
Mof_H 	H 	0.5618	0.6245	0.7316	0.029
Mof_C 	C 	0.578	0.6167	0.7143	-0.017
Mof_H 	H 	0.5699	0.6347	0.7223	0.037
Mof_C 	C 	0.6067	0.6395	0.7724	0.005
Mof_H 	H 	0.5911	0.6529	0.7667	0.018
Mof_N 	N 	0.6228	0.6428	0.7962	-0.159
Mof_O 	O 	0.53082	0.14262	0.18628	-0.409
Mof_C 	C 	0.56481	0.10291	0.19025	-0.079
Mof_C 	C 	0.54026	0.11913	0.1746	0.361
Mof_C 	C 	0.5941	0.12822	0.2821	0.026
Mof_H 	H 	0.5777	0.1405	0.2765	0.022
Mof_N 	N 	0.6096	0.13085	0.30802	-0.153
Mof_O 	O 	0.5308	0.10758	0.1507	-0.384
Mof_C 	C 	0.5731	0.11006	0.2208	-0.006
Mof_H 	H 	0.5618	0.1245	0.2316	0.029
Mof_C 	C 	0.578	0.1167	0.2143	-0.018
Mof_H 	H 	0.5699	0.1347	0.2223	0.037
Mof_C 	C 	0.6067	0.1395	0.2724	0.006
Mof_H 	H 	0.5911	0.1529	0.2667	0.018
Mof_N 	N 	0.6228	0.1428	0.2962	-0.159
Mof_O 	O 	0.96918	0.35738	0.18628	-0.407
Mof_C 	C 	0.93519	0.39709	0.19025	-0.078
Mof_C 	C 	0.95974	0.38087	0.1746	0.361
Mof_C 	C 	0.9059	0.37178	0.2821	0.027
Mof_H 	H 	0.9223	0.3595	0.2765	0.022
Mof_N 	N 	0.8904	0.36915	0.30802	-0.153
Mof_O 	O 	0.9692	0.39242	0.1507	-0.383
Mof_C 	C 	0.9269	0.38994	0.2208	-0.007
Mof_H 	H 	0.9382	0.3755	0.2316	0.03
Mof_C 	C 	0.922	0.3833	0.2143	-0.017
Mof_H 	H 	0.9301	0.3653	0.2223	0.037
Mof_C 	C 	0.8933	0.3605	0.2724	0.004
Mof_H 	H 	0.9089	0.3471	0.2667	0.018
Mof_N 	N 	0.8772	0.3572	0.2962	-0.159
Mof_O 	O 	0.96918	0.85738	0.68628	-0.407
Mof_C 	C 	0.93519	0.89709	0.69025	-0.078
Mof_C 	C 	0.95974	0.88087	0.6746	0.361
Mof_C 	C 	0.9059	0.87178	0.7821	0.028
Mof_H 	H 	0.9223	0.8595	0.7765	0.021
Mof_N 	N 	0.8904	0.86915	0.80802	-0.153
Mof_O 	O 	0.9692	0.89242	0.6507	-0.383
Mof_C 	C 	0.9269	0.88994	0.7208	-0.008
Mof_H 	H 	0.9382	0.8755	0.7316	0.03
Mof_C 	C 	0.922	0.8833	0.7143	-0.016
Mof_H 	H 	0.9301	0.8653	0.7223	0.036
Mof_C 	C 	0.8933	0.8605	0.7724	0.003
Mof_H 	H 	0.9089	0.8471	0.7667	0.019
Mof_N 	N 	0.8772	0.8572	0.7962	-0.159
Mof_O 	O 	0.46918	0.35738	0.68628	-0.409
Mof_C 	C 	0.43519	0.39709	0.69025	-0.078
Mof_C 	C 	0.45974	0.38087	0.6746	0.361
Mof_C 	C 	0.4059	0.37178	0.7821	0.027
Mof_H 	H 	0.4223	0.3595	0.7765	0.022
Mof_N 	N 	0.3904	0.36915	0.80802	-0.153
Mof_O 	O 	0.4692	0.39242	0.6507	-0.384
Mof_C 	C 	0.4269	0.38994	0.7208	-0.007
Mof_H 	H 	0.4382	0.3755	0.7316	0.029
Mof_C 	C 	0.422	0.3833	0.7143	-0.017
Mof_H 	H 	0.4301	0.3653	0.7223	0.037
Mof_C 	C 	0.3933	0.3605	0.7724	0.005
Mof_H 	H 	0.4089	0.3471	0.7667	0.018
Mof_N 	N 	0.3772	0.3572	0.7962	-0.159
Mof_O 	O 	0.46918	0.85738	0.18628	-0.409
Mof_C 	C 	0.43519	0.89709	0.19025	-0.078
Mof_C 	C 	0.45974	0.88087	0.1746	0.361
Mof_C 	C 	0.4059	0.87178	0.2821	0.028
Mof_H 	H 	0.4223	0.8595	0.2765	0.021
Mof_N 	N 	0.3904	0.86915	0.30802	-0.153
Mof_O 	O 	0.4692	0.89242	0.1507	-0.384
Mof_C 	C 	0.4269	0.88994	0.2208	-0.007
Mof_H 	H 	0.4382	0.8755	0.2316	0.029
Mof_C 	C 	0.422	0.8833	0.2143	-0.017
Mof_H 	H 	0.4301	0.8653	0.2223	0.037
Mof_C 	C 	0.3933	0.8605	0.2724	0.004
Mof_H 	H 	0.4089	0.8471	0.2667	0.018
Mof_N 	N 	0.3772	0.8572	0.2962	-0.159
Mof_O 	O 	0.03082	0.35738	0.81372	-0.41
Mof_C 	C 	0.06481	0.39709	0.80975	-0.079
Mof_C 	C 	0.04026	0.38087	0.8254	0.361
Mof_C 	C 	0.0941	0.37178	0.7179	0.026
Mof_H 	H 	0.0777	0.3595	0.7235	0.021
Mof_N 	N 	0.1096	0.36915	0.69198	-0.153
Mof_O 	O 	0.0308	0.39242	0.8493	-0.384
Mof_C 	C 	0.0731	0.38994	0.7792	-0.006
Mof_H 	H 	0.0618	0.3755	0.7684	0.028
Mof_C 	C 	0.078	0.3833	0.7857	-0.018
Mof_H 	H 	0.0699	0.3653	0.7777	0.037
Mof_C 	C 	0.1067	0.3605	0.7276	0.005
Mof_H 	H 	0.0911	0.3471	0.7333	0.018
Mof_N 	N 	0.1228	0.3572	0.7038	-0.159
Mof_O 	O 	0.03082	0.85738	0.31372	-0.41
Mof_C 	C 	0.06481	0.89709	0.30975	-0.079
Mof_C 	C 	0.04026	0.88087	0.3254	0.361
Mof_C 	C 	0.0941	0.87178	0.2179	0.027
Mof_H 	H 	0.0777	0.8595	0.2235	0.021
Mof_N 	N 	0.1096	0.86915	0.19198	-0.153
Mof_O 	O 	0.0308	0.89242	0.3493	-0.384
Mof_C 	C 	0.0731	0.88994	0.2792	-0.007
Mof_H 	H 	0.0618	0.8755	0.2684	0.029
Mof_C 	C 	0.078	0.8833	0.2857	-0.017
Mof_H 	H 	0.0699	0.8653	0.2777	0.037
Mof_C 	C 	0.1067	0.8605	0.2276	0.004
Mof_H 	H 	0.0911	0.8471	0.2333	0.018
Mof_N 	N 	0.1228	0.8572	0.2038	-0.159
Mof_O 	O 	0.53082	0.35738	0.31372	-0.409
Mof_C 	C 	0.56481	0.39709	0.30975	-0.078
Mof_C 	C 	0.54026	0.38087	0.3254	0.361
Mof_C 	C 	0.5941	0.37178	0.2179	0.027
Mof_H 	H 	0.5777	0.3595	0.2235	0.022
Mof_N 	N 	0.6096	0.36915	0.19198	-0.153
Mof_O 	O 	0.5308	0.39242	0.3493	-0.384
Mof_C 	C 	0.5731	0.38994	0.2792	-0.007
Mof_H 	H 	0.5618	0.3755	0.2684	0.029
Mof_C 	C 	0.578	0.3833	0.2857	-0.017
Mof_H 	H 	0.5699	0.3653	0.2777	0.037
Mof_C 	C 	0.6067	0.3605	0.2276	0.005
Mof_H 	H 	0.5911	0.3471	0.2333	0.018
Mof_N 	N 	0.6228	0.3572	0.2038	-0.159
Mof_O 	O 	0.53082	0.85738	0.81372	-0.409
Mof_C 	C 	0.56481	0.89709	0.80975	-0.078
Mof_C 	C 	0.54026	0.88087	0.8254	0.361
Mof_C 	C 	0.5941	0.87178	0.7179	0.028
Mof_H 	H 	0.5777	0.8595	0.7235	0.021
Mof_N 	N 	0.6096	0.86915	0.69198	-0.153
Mof_O 	O 	0.5308	0.89242	0.8493	-0.384
Mof_C 	C 	0.5731	0.88994	0.7792	-0.007
Mof_H 	H 	0.5618	0.8755	0.7684	0.029
Mof_C 	C 	0.578	0.8833	0.7857	-0.017
Mof_H 	H 	0.5699	0.8653	0.7777	0.037
Mof_C 	C 	0.6067	0.8605	0.7276	0.004
Mof_H 	H 	0.5911	0.8471	0.7333	0.018
Mof_N 	N 	0.6228	0.8572	0.7038	-0.159
Mof_O 	O 	0.96918	0.64262	0.81372	-0.407
Mof_C 	C 	0.93519	0.60291	0.80975	-0.078
Mof_C 	C 	0.95974	0.61913	0.8254	0.361
Mof_C 	C 	0.9059	0.62822	0.7179	0.027
Mof_H 	H 	0.9223	0.6405	0.7235	0.022
Mof_N 	N 	0.8904	0.63085	0.69198	-0.153
Mof_O 	O 	0.9692	0.60758	0.8493	-0.383
Mof_C 	C 	0.9269	0.61006	0.7792	-0.007
Mof_H 	H 	0.9382	0.6245	0.7684	0.03
Mof_C 	C 	0.922	0.6167	0.7857	-0.017
Mof_H 	H 	0.9301	0.6347	0.7777	0.037
Mof_C 	C 	0.8933	0.6395	0.7276	0.004
Mof_H 	H 	0.9089	0.6529	0.7333	0.018
Mof_N 	N 	0.8772	0.6428	0.7038	-0.159
Mof_O 	O 	0.96918	0.14262	0.31372	-0.407
Mof_C 	C 	0.93519	0.10291	0.30975	-0.078
Mof_C 	C 	0.95974	0.11913	0.3254	0.361
Mof_C 	C 	0.9059	0.12822	0.2179	0.026
Mof_H 	H 	0.9223	0.1405	0.2235	0.022
Mof_N 	N 	0.8904	0.13085	0.19198	-0.153
Mof_O 	O 	0.9692	0.10758	0.3493	-0.383
Mof_C 	C 	0.9269	0.11006	0.2792	-0.007
Mof_H 	H 	0.9382	0.1245	0.2684	0.029
Mof_C 	C 	0.922	0.1167	0.2857	-0.017
Mof_H 	H 	0.9301	0.1347	0.2777	0.037
Mof_C 	C 	0.8933	0.1395	0.2276	0.005
Mof_H 	H 	0.9089	0.1529	0.2333	0.018
Mof_N 	N 	0.8772	0.1428	0.2038	-0.159
Mof_O 	O 	0.46918	0.64262	0.31372	-0.409
Mof_C 	C 	0.43519	0.60291	0.30975	-0.078
Mof_C 	C 	0.45974	0.61913	0.3254	0.361
Mof_C 	C 	0.4059	0.62822	0.2179	0.027
Mof_H 	H 	0.4223	0.6405	0.2235	0.022
Mof_N 	N 	0.3904	0.63085	0.19198	-0.153
Mof_O 	O 	0.4692	0.60758	0.3493	-0.384
Mof_C 	C 	0.4269	0.61006	0.2792	-0.007
Mof_H 	H 	0.4382	0.6245	0.2684	0.029
Mof_C 	C 	0.422	0.6167	0.2857	-0.017
Mof_H 	H 	0.4301	0.6347	0.2777	0.037
Mof_C 	C 	0.3933	0.6395	0.2276	0.005
Mof_H 	H 	0.4089	0.6529	0.2333	0.018
Mof_N 	N 	0.3772	0.6428	0.2038	-0.159
Mof_O 	O 	0.46918	0.14262	0.81372	-0.409
Mof_C 	C 	0.43519	0.10291	0.80975	-0.079
Mof_C 	C 	0.45974	0.11913	0.8254	0.361
Mof_C 	C 	0.4059	0.12822	0.7179	0.026
Mof_H 	H 	0.4223	0.1405	0.7235	0.022
Mof_N 	N 	0.3904	0.13085	0.69198	-0.153
Mof_O 	O 	0.4692	0.10758	0.8493	-0.384
Mof_C 	C 	0.4269	0.11006	0.7792	-0.006
Mof_H 	H 	0.4382	0.1245	0.7684	0.029
Mof_C 	C 	0.422	0.1167	0.7857	-0.018
Mof_H 	H 	0.4301	0.1347	0.7777	0.037
Mof_C 	C 	0.3933	0.1395	0.7276	0.005
Mof_H 	H 	0.4089	0.1529	0.7333	0.018
Mof_N 	N 	0.3772	0.1428	0.7038	-0.159
Mof_O 	O 	0.64262	0.81372	0.96918	-0.407
Mof_C 	C 	0.60291	0.80975	0.93519	-0.078
Mof_C 	C 	0.61913	0.8254	0.95974	0.361
Mof_C 	C 	0.62822	0.7179	0.9059	0.027
Mof_H 	H 	0.6405	0.7235	0.9223	0.022
Mof_N 	N 	0.63085	0.69198	0.8904	-0.153
Mof_O 	O 	0.60758	0.8493	0.9692	-0.383
Mof_C 	C 	0.61006	0.7792	0.9269	-0.007
Mof_H 	H 	0.6245	0.7684	0.9382	0.03
Mof_C 	C 	0.6167	0.7857	0.922	-0.017
Mof_H 	H 	0.6347	0.7777	0.9301	0.037
Mof_C 	C 	0.6395	0.7276	0.8933	0.004
Mof_H 	H 	0.6529	0.7333	0.9089	0.018
Mof_N 	N 	0.6428	0.7038	0.8772	-0.159
Mof_O 	O 	0.64262	0.31372	0.46918	-0.409
Mof_C 	C 	0.60291	0.30975	0.43519	-0.078
Mof_C 	C 	0.61913	0.3254	0.45974	0.361
Mof_C 	C 	0.62822	0.2179	0.4059	0.027
Mof_H 	H 	0.6405	0.2235	0.4223	0.022
Mof_N 	N 	0.63085	0.19198	0.3904	-0.153
Mof_O 	O 	0.60758	0.3493	0.4692	-0.384
Mof_C 	C 	0.61006	0.2792	0.4269	-0.007
Mof_H 	H 	0.6245	0.2684	0.4382	0.029
Mof_C 	C 	0.6167	0.2857	0.422	-0.017
Mof_H 	H 	0.6347	0.2777	0.4301	0.037
Mof_C 	C 	0.6395	0.2276	0.3933	0.005
Mof_H 	H 	0.6529	0.2333	0.4089	0.018
Mof_N 	N 	0.6428	0.2038	0.3772	-0.159
Mof_O 	O 	0.14262	0.81372	0.46918	-0.409
Mof_C 	C 	0.10291	0.80975	0.43519	-0.079
Mof_C 	C 	0.11913	0.8254	0.45974	0.361
Mof_C 	C 	0.12822	0.7179	0.4059	0.026
Mof_H 	H 	0.1405	0.7235	0.4223	0.022
Mof_N 	N 	0.13085	0.69198	0.3904	-0.153
Mof_O 	O 	0.10758	0.8493	0.4692	-0.384
Mof_C 	C 	0.11006	0.7792	0.4269	-0.006
Mof_H 	H 	0.1245	0.7684	0.4382	0.029
Mof_C 	C 	0.1167	0.7857	0.422	-0.018
Mof_H 	H 	0.1347	0.7777	0.4301	0.037
Mof_C 	C 	0.1395	0.7276	0.3933	0.005
Mof_H 	H 	0.1529	0.7333	0.4089	0.018
Mof_N 	N 	0.1428	0.7038	0.3772	-0.159
Mof_O 	O 	0.14262	0.31372	0.96918	-0.407
Mof_C 	C 	0.10291	0.30975	0.93519	-0.078
Mof_C 	C 	0.11913	0.3254	0.95974	0.361
Mof_C 	C 	0.12822	0.2179	0.9059	0.026
Mof_H 	H 	0.1405	0.2235	0.9223	0.022
Mof_N 	N 	0.13085	0.19198	0.8904	-0.153
Mof_O 	O 	0.10758	0.3493	0.9692	-0.383
Mof_C 	C 	0.11006	0.2792	0.9269	-0.007
Mof_H 	H 	0.1245	0.2684	0.9382	0.029
Mof_C 	C 	0.1167	0.2857	0.922	-0.017
Mof_H 	H 	0.1347	0.2777	0.9301	0.037
Mof_C 	C 	0.1395	0.2276	0.8933	0.005
Mof_H 	H 	0.1529	0.2333	0.9089	0.018
Mof_N 	N 	0.1428	0.2038	0.8772	-0.159
Mof_O 	O 	0.35738	0.81372	0.03082	-0.41
Mof_C 	C 	0.39709	0.80975	0.06481	-0.079
Mof_C 	C 	0.38087	0.8254	0.04026	0.361
Mof_C 	C 	0.37178	0.7179	0.0941	0.026
Mof_H 	H 	0.3595	0.7235	0.0777	0.021
Mof_N 	N 	0.36915	0.69198	0.1096	-0.153
Mof_O 	O 	0.39242	0.8493	0.0308	-0.384
Mof_C 	C 	0.38994	0.7792	0.0731	-0.006
Mof_H 	H 	0.3755	0.7684	0.0618	0.028
Mof_C 	C 	0.3833	0.7857	0.078	-0.018
Mof_H 	H 	0.3653	0.7777	0.0699	0.037
Mof_C 	C 	0.3605	0.7276	0.1067	0.005
Mof_H 	H 	0.3471	0.7333	0.0911	0.018
Mof_N 	N 	0.3572	0.7038	0.1228	-0.159
Mof_O 	O 	0.35738	0.31372	0.53082	-0.409
Mof_C 	C 	0.39709	0.30975	0.56481	-0.078
Mof_C 	C 	0.38087	0.3254	0.54026	0.361
Mof_C 	C 	0.37178	0.2179	0.5941	0.027
Mof_H 	H 	0.3595	0.2235	0.5777	0.022
Mof_N 	N 	0.36915	0.19198	0.6096	-0.153
Mof_O 	O 	0.39242	0.3493	0.5308	-0.384
Mof_C 	C 	0.38994	0.2792	0.5731	-0.007
Mof_H 	H 	0.3755	0.2684	0.5618	0.029
Mof_C 	C 	0.3833	0.2857	0.578	-0.017
Mof_H 	H 	0.3653	0.2777	0.5699	0.037
Mof_C 	C 	0.3605	0.2276	0.6067	0.005
Mof_H 	H 	0.3471	0.2333	0.5911	0.018
Mof_N 	N 	0.3572	0.2038	0.6228	-0.159
Mof_O 	O 	0.85738	0.81372	0.53082	-0.409
Mof_C 	C 	0.89709	0.80975	0.56481	-0.078
Mof_C 	C 	0.88087	0.8254	0.54026	0.361
Mof_C 	C 	0.87178	0.7179	0.5941	0.028
Mof_H 	H 	0.8595	0.7235	0.5777	0.021
Mof_N 	N 	0.86915	0.69198	0.6096	-0.153
Mof_O 	O 	0.89242	0.8493	0.5308	-0.384
Mof_C 	C 	0.88994	0.7792	0.5731	-0.007
Mof_H 	H 	0.8755	0.7684	0.5618	0.029
Mof_C 	C 	0.8833	0.7857	0.578	-0.017
Mof_H 	H 	0.8653	0.7777	0.5699	0.037
Mof_C 	C 	0.8605	0.7276	0.6067	0.004
Mof_H 	H 	0.8471	0.7333	0.5911	0.018
Mof_N 	N 	0.8572	0.7038	0.6228	-0.159
Mof_O 	O 	0.85738	0.31372	0.03082	-0.41
Mof_C 	C 	0.89709	0.30975	0.06481	-0.079
Mof_C 	C 	0.88087	0.3254	0.04026	0.361
Mof_C 	C 	0.87178	0.2179	0.0941	0.027
Mof_H 	H 	0.8595	0.2235	0.0777	0.021
Mof_N 	N 	0.86915	0.19198	0.1096	-0.153
Mof_O 	O 	0.89242	0.3493	0.0308	-0.384
Mof_C 	C 	0.88994	0.2792	0.0731	-0.007
Mof_H 	H 	0.8755	0.2684	0.0618	0.029
Mof_C 	C 	0.8833	0.2857	0.078	-0.017
Mof_H 	H 	0.8653	0.2777	0.0699	0.037
Mof_C 	C 	0.8605	0.2276	0.1067	0.004
Mof_H 	H 	0.8471	0.2333	0.0911	0.018
Mof_N 	N 	0.8572	0.2038	0.1228	-0.159
Mof_O 	O 	0.35738	0.18628	0.96918	-0.407
Mof_C 	C 	0.39709	0.19025	0.93519	-0.078
Mof_C 	C 	0.38087	0.1746	0.95974	0.361
Mof_C 	C 	0.37178	0.2821	0.9059	0.027
Mof_H 	H 	0.3595	0.2765	0.9223	0.022
Mof_N 	N 	0.36915	0.30802	0.8904	-0.153
Mof_O 	O 	0.39242	0.1507	0.9692	-0.383
Mof_C 	C 	0.38994	0.2208	0.9269	-0.007
Mof_H 	H 	0.3755	0.2316	0.9382	0.03
Mof_C 	C 	0.3833	0.2143	0.922	-0.017
Mof_H 	H 	0.3653	0.2223	0.9301	0.037
Mof_C 	C 	0.3605	0.2724	0.8933	0.004
Mof_H 	H 	0.3471	0.2667	0.9089	0.018
Mof_N 	N 	0.3572	0.2962	0.8772	-0.159
Mof_O 	O 	0.35738	0.68628	0.46918	-0.409
Mof_C 	C 	0.39709	0.69025	0.43519	-0.078
Mof_C 	C 	0.38087	0.6746	0.45974	0.361
Mof_C 	C 	0.37178	0.7821	0.4059	0.027
Mof_H 	H 	0.3595	0.7765	0.4223	0.022
Mof_N 	N 	0.36915	0.80802	0.3904	-0.153
Mof_O 	O 	0.39242	0.6507	0.4692	-0.384
Mof_C 	C 	0.38994	0.7208	0.4269	-0.007
Mof_H 	H 	0.3755	0.7316	0.4382	0.029
Mof_C 	C 	0.3833	0.7143	0.422	-0.017
Mof_H 	H 	0.3653	0.7223	0.4301	0.037
Mof_C 	C 	0.3605	0.7724	0.3933	0.005
Mof_H 	H 	0.3471	0.7667	0.4089	0.018
Mof_N 	N 	0.3572	0.7962	0.3772	-0.159
Mof_O 	O 	0.85738	0.18628	0.46918	-0.409
Mof_C 	C 	0.89709	0.19025	0.43519	-0.078
Mof_C 	C 	0.88087	0.1746	0.45974	0.361
Mof_C 	C 	0.87178	0.2821	0.4059	0.028
Mof_H 	H 	0.8595	0.2765	0.4223	0.021
Mof_N 	N 	0.86915	0.30802	0.3904	-0.153
Mof_O 	O 	0.89242	0.1507	0.4692	-0.384
Mof_C 	C 	0.88994	0.2208	0.4269	-0.007
Mof_H 	H 	0.8755	0.2316	0.4382	0.029
Mof_C 	C 	0.8833	0.2143	0.422	-0.017
Mof_H 	H 	0.8653	0.2223	0.4301	0.037
Mof_C 	C 	0.8605	0.2724	0.3933	0.004
Mof_H 	H 	0.8471	0.2667	0.4089	0.018
Mof_N 	N 	0.8572	0.2962	0.3772	-0.159
Mof_O 	O 	0.85738	0.68628	0.96918	-0.407
Mof_C 	C 	0.89709	0.69025	0.93519	-0.078
Mof_C 	C 	0.88087	0.6746	0.95974	0.361
Mof_C 	C 	0.87178	0.7821	0.9059	0.028
Mof_H 	H 	0.8595	0.7765	0.9223	0.021
Mof_N 	N 	0.86915	0.80802	0.8904	-0.153
Mof_O 	O 	0.89242	0.6507	0.9692	-0.383
Mof_C 	C 	0.88994	0.7208	0.9269	-0.008
Mof_H 	H 	0.8755	0.7316	0.9382	0.03
Mof_C 	C 	0.8833	0.7143	0.922	-0.016
Mof_H 	H 	0.8653	0.7223	0.9301	0.036
Mof_C 	C 	0.8605	0.7724	0.8933	0.003
Mof_H 	H 	0.8471	0.7667	0.9089	0.019
Mof_N 	N 	0.8572	0.7962	0.8772	-0.159
Mof_O 	O 	0.64262	0.18628	0.03082	-0.41
Mof_C 	C 	0.60291	0.19025	0.06481	-0.079
Mof_C 	C 	0.61913	0.1746	0.04026	0.361
Mof_C 	C 	0.62822	0.2821	0.0941	0.026
Mof_H 	H 	0.6405	0.2765	0.0777	0.021
Mof_N 	N 	0.63085	0.30802	0.1096	-0.153
Mof_O 	O 	0.60758	0.1507	0.0308	-0.384
Mof_C 	C 	0.61006	0.2208	0.0731	-0.006
Mof_H 	H 	0.6245	0.2316	0.0618	0.028
Mof_C 	C 	0.6167	0.2143	0.078	-0.018
Mof_H 	H 	0.6347	0.2223	0.0699	0.037
Mof_C 	C 	0.6395	0.2724	0.1067	0.005
Mof_H 	H 	0.6529	0.2667	0.0911	0.018
Mof_N 	N 	0.6428	0.2962	0.1228	-0.159
Mof_O 	O 	0.64262	0.68628	0.53082	-0.409
Mof_C 	C 	0.60291	0.69025	0.56481	-0.079
Mof_C 	C 	0.61913	0.6746	0.54026	0.361
Mof_C 	C 	0.62822	0.7821	0.5941	0.027
Mof_H 	H 	0.6405	0.7765	0.5777	0.021
Mof_N 	N 	0.63085	0.80802	0.6096	-0.153
Mof_O 	O 	0.60758	0.6507	0.5308	-0.384
Mof_C 	C 	0.61006	0.7208	0.5731	-0.007
Mof_H 	H 	0.6245	0.7316	0.5618	0.029
Mof_C 	C 	0.6167	0.7143	0.578	-0.017
Mof_H 	H 	0.6347	0.7223	0.5699	0.037
Mof_C 	C 	0.6395	0.7724	0.6067	0.005
Mof_H 	H 	0.6529	0.7667	0.5911	0.018
Mof_N 	N 	0.6428	0.7962	0.6228	-0.159
Mof_O 	O 	0.14262	0.18628	0.53082	-0.409
Mof_C 	C 	0.10291	0.19025	0.56481	-0.079
Mof_C 	C 	0.11913	0.1746	0.54026	0.361
Mof_C 	C 	0.12822	0.2821	0.5941	0.026
Mof_H 	H 	0.1405	0.2765	0.5777	0.022
Mof_N 	N 	0.13085	0.30802	0.6096	-0.153
Mof_O 	O 	0.10758	0.1507	0.5308	-0.384
Mof_C 	C 	0.11006	0.2208	0.5731	-0.006
Mof_H 	H 	0.1245	0.2316	0.5618	0.029
Mof_C 	C 	0.1167	0.2143	0.578	-0.018
Mof_H 	H 	0.1347	0.2223	0.5699	0.037
Mof_C 	C 	0.1395	0.2724	0.6067	0.006
Mof_H 	H 	0.1529	0.2667	0.5911	0.018
Mof_N 	N 	0.1428	0.2962	0.6228	-0.159
Mof_O 	O 	0.14262	0.68628	0.03082	-0.41
Mof_C 	C 	0.10291	0.69025	0.06481	-0.079
Mof_C 	C 	0.11913	0.6746	0.04026	0.361
Mof_C 	C 	0.12822	0.7821	0.0941	0.025
Mof_H 	H 	0.1405	0.7765	0.0777	0.022
Mof_N 	N 	0.13085	0.80802	0.1096	-0.153
Mof_O 	O 	0.10758	0.6507	0.0308	-0.384
Mof_C 	C 	0.11006	0.7208	0.0731	-0.006
Mof_H 	H 	0.1245	0.7316	0.0618	0.028
Mof_C 	C 	0.1167	0.7143	0.078	-0.018
Mof_H 	H 	0.1347	0.7223	0.0699	0.037
Mof_C 	C 	0.1395	0.7724	0.1067	0.006
Mof_H 	H 	0.1529	0.7667	0.0911	0.018
Mof_N 	N 	0.1428	0.7962	0.1228	-0.159
Mof_O 	O 	0.81372	0.03082	0.35738	-0.41
Mof_C 	C 	0.80975	0.06481	0.39709	-0.079
Mof_C 	C 	0.8254	0.04026	0.38087	0.361
Mof_C 	C 	0.7179	0.0941	0.37178	0.026
Mof_H 	H 	0.7235	0.0777	0.3595	0.021
Mof_N 	N 	0.69198	0.1096	0.36915	-0.153
Mof_O 	O 	0.8493	0.0308	0.39242	-0.384
Mof_C 	C 	0.7792	0.0731	0.38994	-0.006
Mof_H 	H 	0.7684	0.0618	0.3755	0.028
Mof_C 	C 	0.7857	0.078	0.3833	-0.018
Mof_H 	H 	0.7777	0.0699	0.3653	0.037
Mof_C 	C 	0.7276	0.1067	0.3605	0.005
Mof_H 	H 	0.7333	0.0911	0.3471	0.018
Mof_N 	N 	0.7038	0.1228	0.3572	-0.159
Mof_O 	O 	0.81372	0.53082	0.85738	-0.409
Mof_C 	C 	0.80975	0.56481	0.89709	-0.078
Mof_C 	C 	0.8254	0.54026	0.88087	0.361
Mof_C 	C 	0.7179	0.5941	0.87178	0.028
Mof_H 	H 	0.7235	0.5777	0.8595	0.021
Mof_N 	N 	0.69198	0.6096	0.86915	-0.153
Mof_O 	O 	0.8493	0.5308	0.89242	-0.384
Mof_C 	C 	0.7792	0.5731	0.88994	-0.007
Mof_H 	H 	0.7684	0.5618	0.8755	0.029
Mof_C 	C 	0.7857	0.578	0.8833	-0.017
Mof_H 	H 	0.7777	0.5699	0.8653	0.037
Mof_C 	C 	0.7276	0.6067	0.8605	0.004
Mof_H 	H 	0.7333	0.5911	0.8471	0.018
Mof_N 	N 	0.7038	0.6228	0.8572	-0.159
Mof_O 	O 	0.31372	0.03082	0.85738	-0.41
Mof_C 	C 	0.30975	0.06481	0.89709	-0.079
Mof_C 	C 	0.3254	0.04026	0.88087	0.361
Mof_C 	C 	0.2179	0.0941	0.87178	0.027
Mof_H 	H 	0.2235	0.0777	0.8595	0.021
Mof_N 	N 	0.19198	0.1096	0.86915	-0.153
Mof_O 	O 	0.3493	0.0308	0.89242	-0.384
Mof_C 	C 	0.2792	0.0731	0.88994	-0.007
Mof_H 	H 	0.2684	0.0618	0.8755	0.029
Mof_C 	C 	0.2857	0.078	0.8833	-0.017
Mof_H 	H 	0.2777	0.0699	0.8653	0.037
Mof_C 	C 	0.2276	0.1067	0.8605	0.004
Mof_H 	H 	0.2333	0.0911	0.8471	0.018
Mof_N 	N 	0.2038	0.1228	0.8572	-0.159
Mof_O 	O 	0.31372	0.53082	0.35738	-0.409
Mof_C 	C 	0.30975	0.56481	0.39709	-0.078
Mof_C 	C 	0.3254	0.54026	0.38087	0.361
Mof_C 	C 	0.2179	0.5941	0.37178	0.027
Mof_H 	H 	0.2235	0.5777	0.3595	0.022
Mof_N 	N 	0.19198	0.6096	0.36915	-0.153
Mof_O 	O 	0.3493	0.5308	0.39242	-0.384
Mof_C 	C 	0.2792	0.5731	0.38994	-0.007
Mof_H 	H 	0.2684	0.5618	0.3755	0.029
Mof_C 	C 	0.2857	0.578	0.3833	-0.017
Mof_H 	H 	0.2777	0.5699	0.3653	0.037
Mof_C 	C 	0.2276	0.6067	0.3605	0.005
Mof_H 	H 	0.2333	0.5911	0.3471	0.018
Mof_N 	N 	0.2038	0.6228	0.3572	-0.159
Mof_O 	O 	0.81372	0.96918	0.64262	-0.407
Mof_C 	C 	0.80975	0.93519	0.60291	-0.078
Mof_C 	C 	0.8254	0.95974	0.61913	0.361
Mof_C 	C 	0.7179	0.9059	0.62822	0.027
Mof_H 	H 	0.7235	0.9223	0.6405	0.022
Mof_N 	N 	0.69198	0.8904	0.63085	-0.153
Mof_O 	O 	0.8493	0.9692	0.60758	-0.383
Mof_C 	C 	0.7792	0.9269	0.61006	-0.007
Mof_H 	H 	0.7684	0.9382	0.6245	0.03
Mof_C 	C 	0.7857	0.922	0.6167	-0.017
Mof_H 	H 	0.7777	0.9301	0.6347	0.037
Mof_C 	C 	0.7276	0.8933	0.6395	0.004
Mof_H 	H 	0.7333	0.9089	0.6529	0.018
Mof_N 	N 	0.7038	0.8772	0.6428	-0.159
Mof_O 	O 	0.81372	0.46918	0.14262	-0.409
Mof_C 	C 	0.80975	0.43519	0.10291	-0.079
Mof_C 	C 	0.8254	0.45974	0.11913	0.361
Mof_C 	C 	0.7179	0.4059	0.12822	0.026
Mof_H 	H 	0.7235	0.4223	0.1405	0.022
Mof_N 	N 	0.69198	0.3904	0.13085	-0.153
Mof_O 	O 	0.8493	0.4692	0.10758	-0.384
Mof_C 	C 	0.7792	0.4269	0.11006	-0.006
Mof_H 	H 	0.7684	0.4382	0.1245	0.029
Mof_C 	C 	0.7857	0.422	0.1167	-0.018
Mof_H 	H 	0.7777	0.4301	0.1347	0.037
Mof_C 	C 	0.7276	0.3933	0.1395	0.005
Mof_H 	H 	0.7333	0.4089	0.1529	0.018
Mof_N 	N 	0.7038	0.3772	0.1428	-0.159
Mof_O 	O 	0.31372	0.96918	0.14262	-0.407
Mof_C 	C 	0.30975	0.93519	0.10291	-0.078
Mof_C 	C 	0.3254	0.95974	0.11913	0.361
Mof_C 	C 	0.2179	0.9059	0.12822	0.026
Mof_H 	H 	0.2235	0.9223	0.1405	0.022
Mof_N 	N 	0.19198	0.8904	0.13085	-0.153
Mof_O 	O 	0.3493	0.9692	0.10758	-0.383
Mof_C 	C 	0.2792	0.9269	0.11006	-0.007
Mof_H 	H 	0.2684	0.9382	0.1245	0.029
Mof_C 	C 	0.2857	0.922	0.1167	-0.017
Mof_H 	H 	0.2777	0.9301	0.1347	0.037
Mof_C 	C 	0.2276	0.8933	0.1395	0.005
Mof_H 	H 	0.2333	0.9089	0.1529	0.018
Mof_N 	N 	0.2038	0.8772	0.1428	-0.159
Mof_O 	O 	0.31372	0.46918	0.64262	-0.409
Mof_C 	C 	0.30975	0.43519	0.60291	-0.078
Mof_C 	C 	0.3254	0.45974	0.61913	0.361
Mof_C 	C 	0.2179	0.4059	0.62822	0.027
Mof_H 	H 	0.2235	0.4223	0.6405	0.022
Mof_N 	N 	0.19198	0.3904	0.63085	-0.153
Mof_O 	O 	0.3493	0.4692	0.60758	-0.384
Mof_C 	C 	0.2792	0.4269	0.61006	-0.007
Mof_H 	H 	0.2684	0.4382	0.6245	0.029
Mof_C 	C 	0.2857	0.422	0.6167	-0.017
Mof_H 	H 	0.2777	0.4301	0.6347	0.037
Mof_C 	C 	0.2276	0.3933	0.6395	0.005
Mof_H 	H 	0.2333	0.4089	0.6529	0.018
Mof_N 	N 	0.2038	0.3772	0.6428	-0.159
Mof_O 	O 	0.18628	0.03082	0.64262	-0.41
Mof_C 	C 	0.19025	0.06481	0.60291	-0.079
Mof_C 	C 	0.1746	0.04026	0.61913	0.361
Mof_C 	C 	0.2821	0.0941	0.62822	0.026
Mof_H 	H 	0.2765	0.0777	0.6405	0.021
Mof_N 	N 	0.30802	0.1096	0.63085	-0.153
Mof_O 	O 	0.1507	0.0308	0.60758	-0.384
Mof_C 	C 	0.2208	0.0731	0.61006	-0.006
Mof_H 	H 	0.2316	0.0618	0.6245	0.028
Mof_C 	C 	0.2143	0.078	0.6167	-0.018
Mof_H 	H 	0.2223	0.0699	0.6347	0.037
Mof_C 	C 	0.2724	0.1067	0.6395	0.005
Mof_H 	H 	0.2667	0.0911	0.6529	0.018
Mof_N 	N 	0.2962	0.1228	0.6428	-0.159
Mof_O 	O 	0.18628	0.53082	0.14262	-0.409
Mof_C 	C 	0.19025	0.56481	0.10291	-0.079
Mof_C 	C 	0.1746	0.54026	0.11913	0.361
Mof_C 	C 	0.2821	0.5941	0.12822	0.026
Mof_H 	H 	0.2765	0.5777	0.1405	0.022
Mof_N 	N 	0.30802	0.6096	0.13085	-0.153
Mof_O 	O 	0.1507	0.5308	0.10758	-0.384
Mof_C 	C 	0.2208	0.5731	0.11006	-0.006
Mof_H 	H 	0.2316	0.5618	0.1245	0.029
Mof_C 	C 	0.2143	0.578	0.1167	-0.018
Mof_H 	H 	0.2223	0.5699	0.1347	0.037
Mof_C 	C 	0.2724	0.6067	0.1395	0.006
Mof_H 	H 	0.2667	0.5911	0.1529	0.018
Mof_N 	N 	0.2962	0.6228	0.1428	-0.159
Mof_O 	O 	0.68628	0.03082	0.14262	-0.41
Mof_C 	C 	0.69025	0.06481	0.10291	-0.079
Mof_C 	C 	0.6746	0.04026	0.11913	0.361
Mof_C 	C 	0.7821	0.0941	0.12822	0.025
Mof_H 	H 	0.7765	0.0777	0.1405	0.022
Mof_N 	N 	0.80802	0.1096	0.13085	-0.153
Mof_O 	O 	0.6507	0.0308	0.10758	-0.384
Mof_C 	C 	0.7208	0.0731	0.11006	-0.006
Mof_H 	H 	0.7316	0.0618	0.1245	0.028
Mof_C 	C 	0.7143	0.078	0.1167	-0.018
Mof_H 	H 	0.7223	0.0699	0.1347	0.037
Mof_C 	C 	0.7724	0.1067	0.1395	0.006
Mof_H 	H 	0.7667	0.0911	0.1529	0.018
Mof_N 	N 	0.7962	0.1228	0.1428	-0.159
Mof_O 	O 	0.68628	0.53082	0.64262	-0.409
Mof_C 	C 	0.69025	0.56481	0.60291	-0.079
Mof_C 	C 	0.6746	0.54026	0.61913	0.361
Mof_C 	C 	0.7821	0.5941	0.62822	0.027
Mof_H 	H 	0.7765	0.5777	0.6405	0.021
Mof_N 	N 	0.80802	0.6096	0.63085	-0.153
Mof_O 	O 	0.6507	0.5308	0.60758	-0.384
Mof_C 	C 	0.7208	0.5731	0.61006	-0.007
Mof_H 	H 	0.7316	0.5618	0.6245	0.029
Mof_C 	C 	0.7143	0.578	0.6167	-0.017
Mof_H 	H 	0.7223	0.5699	0.6347	0.037
Mof_C 	C 	0.7724	0.6067	0.6395	0.005
Mof_H 	H 	0.7667	0.5911	0.6529	0.018
Mof_N 	N 	0.7962	0.6228	0.6428	-0.159
Mof_O 	O 	0.18628	0.96918	0.35738	-0.407
Mof_C 	C 	0.19025	0.93519	0.39709	-0.078
Mof_C 	C 	0.1746	0.95974	0.38087	0.361
Mof_C 	C 	0.2821	0.9059	0.37178	0.027
Mof_H 	H 	0.2765	0.9223	0.3595	0.022
Mof_N 	N 	0.30802	0.8904	0.36915	-0.153
Mof_O 	O 	0.1507	0.9692	0.39242	-0.383
Mof_C 	C 	0.2208	0.9269	0.38994	-0.007
Mof_H 	H 	0.2316	0.9382	0.3755	0.03
Mof_C 	C 	0.2143	0.922	0.3833	-0.017
Mof_H 	H 	0.2223	0.9301	0.3653	0.037
Mof_C 	C 	0.2724	0.8933	0.3605	0.004
Mof_H 	H 	0.2667	0.9089	0.3471	0.018
Mof_N 	N 	0.2962	0.8772	0.3572	-0.159
Mof_O 	O 	0.18628	0.46918	0.85738	-0.409
Mof_C 	C 	0.19025	0.43519	0.89709	-0.078
Mof_C 	C 	0.1746	0.45974	0.88087	0.361
Mof_C 	C 	0.2821	0.4059	0.87178	0.028
Mof_H 	H 	0.2765	0.4223	0.8595	0.021
Mof_N 	N 	0.30802	0.3904	0.86915	-0.153
Mof_O 	O 	0.1507	0.4692	0.89242	-0.384
Mof_C 	C 	0.2208	0.4269	0.88994	-0.007
Mof_H 	H 	0.2316	0.4382	0.8755	0.029
Mof_C 	C 	0.2143	0.422	0.8833	-0.017
Mof_H 	H 	0.2223	0.4301	0.8653	0.037
Mof_C 	C 	0.2724	0.3933	0.8605	0.004
Mof_H 	H 	0.2667	0.4089	0.8471	0.018
Mof_N 	N 	0.2962	0.3772	0.8572	-0.159
Mof_O 	O 	0.68628	0.96918	0.85738	-0.407
Mof_C 	C 	0.69025	0.93519	0.89709	-0.078
Mof_C 	C 	0.6746	0.95974	0.88087	0.361
Mof_C 	C 	0.7821	0.9059	0.87178	0.028
Mof_H 	H 	0.7765	0.9223	0.8595	0.021
Mof_N 	N 	0.80802	0.8904	0.86915	-0.153
Mof_O 	O 	0.6507	0.9692	0.89242	-0.383
Mof_C 	C 	0.7208	0.9269	0.88994	-0.008
Mof_H 	H 	0.7316	0.9382	0.8755	0.03
Mof_C 	C 	0.7143	0.922	0.8833	-0.016
Mof_H 	H 	0.7223	0.9301	0.8653	0.036
Mof_C 	C 	0.7724	0.8933	0.8605	0.003
Mof_H 	H 	0.7667	0.9089	0.8471	0.019
Mof_N 	N 	0.7962	0.8772	0.8572	-0.159
Mof_O 	O 	0.68628	0.46918	0.35738	-0.409
Mof_C 	C 	0.69025	0.43519	0.39709	-0.078
Mof_C 	C 	0.6746	0.45974	0.38087	0.361
Mof_C 	C 	0.7821	0.4059	0.37178	0.027
Mof_H 	H 	0.7765	0.4223	0.3595	0.022
Mof_N 	N 	0.80802	0.3904	0.36915	-0.153
Mof_O 	O 	0.6507	0.4692	0.39242	-0.384
Mof_C 	C 	0.7208	0.4269	0.38994	-0.007
Mof_H 	H 	0.7316	0.4382	0.3755	0.029
Mof_C 	C 	0.7143	0.422	0.3833	-0.017
Mof_H 	H 	0.7223	0.4301	0.3653	0.037
Mof_C 	C 	0.7724	0.3933	0.3605	0.005
Mof_H 	H 	0.7667	0.4089	0.3471	0.018
Mof_N 	N 	0.7962	0.3772	0.3572	-0.159
Mof_Cu	Cu	0.33225	0	0.16775	0.906
Mof_Cu	Cu	0.37414	0	0.12586	0.933
Mof_Cu	Cu	0.33225	0.5	0.66775	0.907
Mof_Cu	Cu	0.37414	0.5	0.62586	0.935
Mof_Cu	Cu	0.66775	0	0.16775	0.906
Mof_Cu	Cu	0.62586	0	0.12586	0.933
Mof_Cu	Cu	0.66775	0.5	0.66775	0.907
Mof_Cu	Cu	0.62586	0.5	0.62586	0.935
Mof_Cu	Cu	0.16775	0.5	0.16775	0.907
Mof_Cu	Cu	0.12586	0.5	0.12586	0.935
Mof_Cu	Cu	0.66775	0	0.83225	0.906
Mof_Cu	Cu	0.62586	9.11269e-33	0.87414	0.933
Mof_Cu	Cu	0.66775	0.5	0.33225	0.907
Mof_Cu	Cu	0.62586	0.5	0.37414	0.935
Mof_Cu	Cu	0.16775	2.27817e-33	0.33225	0.906
Mof_Cu	Cu	0.12586	0	0.37414	0.933
Mof_Cu	Cu	0.33225	0	0.83225	0.906
Mof_Cu	Cu	0.37414	9.11269e-33	0.87414	0.933
Mof_Cu	Cu	0.33225	0.5	0.33225	0.907
Mof_Cu	Cu	0.37414	0.5	0.37414	0.935
Mof_Cu	Cu	0.16775	0.33225	-0	0.906
Mof_Cu	Cu	0.12586	0.37414	-0	0.933
Mof_Cu	Cu	0.16775	0.83225	0.5	0.907
Mof_Cu	Cu	0.12586	0.87414	0.5	0.935
Mof_Cu	Cu	0.16775	0.66775	-0	0.906
Mof_Cu	Cu	0.12586	0.62586	-0	0.933
Mof_Cu	Cu	0.16775	0.16775	0.5	0.907
Mof_Cu	Cu	0.12586	0.12586	0.5	0.935
Mof_Cu	Cu	0.83225	0.66775	-0	0.906
Mof_Cu	Cu	0.87414	0.62586	-0	0.933
Mof_Cu	Cu	0.83225	0.16775	0.5	0.907
Mof_Cu	Cu	0.87414	0.12586	0.5	0.935
Mof_Cu	Cu	0.33225	0.16775	-0	0.906
Mof_Cu	Cu	0.37414	0.12586	-0	0.933
Mof_Cu	Cu	0.83225	0.33225	-0	0.906
Mof_Cu	Cu	0.87414	0.37414	-0	0.933
Mof_Cu	Cu	0.83225	0.83225	0.5	0.907
Mof_Cu	Cu	0.87414	0.87414	0.5	0.935
Mof_Cu	Cu	0.33225	0.33225	0.5	0.907
Mof_Cu	Cu	0.37414	0.37414	0.5	0.935
Mof_Cu	Cu	-1.03243e-33	0.16775	0.33225	0.906
Mof_Cu	Cu	1.4028e-33	0.12586	0.37414	0.933
Mof_Cu	Cu	0.5	0.16775	0.83225	0.907
Mof_Cu	Cu	0.5	0.12586	0.87414	0.935
Mof_Cu	Cu	-2.05268e-33	0.16775	0.66775	0.906
Mof_Cu	Cu	2.3466e-33	0.12586	0.62586	0.933
Mof_Cu	Cu	0.5	0.16775	0.16775	0.907
Mof_Cu	Cu	0.5	0.12586	0.12586	0.935
Mof_Cu	Cu	2.0729e-32	0.83225	0.66775	0.906
Mof_Cu	Cu	2.0572e-32	0.87414	0.62586	0.933
Mof_Cu	Cu	6.28962e-34	0.33225	0.16775	0.906
Mof_Cu	Cu	4.71899e-34	0.37414	0.12586	0.933
Mof_Cu	Cu	0.5	0.83225	0.16775	0.907
Mof_Cu	Cu	0.5	0.87414	0.12586	0.935
Mof_Cu	Cu	1.26366e-32	0.83225	0.33225	0.906
Mof_Cu	Cu	1.05155e-32	0.87414	0.37414	0.933
Mof_Cu	Cu	0.5	0.83225	0.83225	0.907
Mof_Cu	Cu	0.5	0.87414	0.87414	0.935
Mof_Cu	Cu	0.5	0.33225	0.33225	0.907
Mof_Cu	Cu	0.5	0.37414	0.37414	0.935
Mof_Cu	Cu	1.22331e-32	0.33225	0.83225	0.906
Mof_Cu	Cu	1.23902e-32	0.37414	0.87414	0.933
Mof_Cu	Cu	1.22331e-32	0.66775	0.83225	0.906
Mof_Cu	Cu	1.23902e-32	0.62586	0.87414	0.933
Mof_Cu	Cu	0.5	0.66775	0.33225	0.907
Mof_Cu	Cu	0.5	0.62586	0.37414	0.935
Mof_Cu	Cu	-1.64921e-33	0.66775	0.16775	0.906
Mof_Cu	Cu	4.71899e-34	0.62586	0.12586	0.933
Mof_Cu	Cu	0.5	0.66775	0.66775	0.907
Mof_Cu	Cu	0.5	0.62586	0.62586	0.935
Mof_Cu	Cu	0.5	0.33225	0.66775	0.907
Mof_Cu	Cu	0.5	0.37414	0.62586	0.935
Mof_Cu	Cu	0.33225	0.66775	0.5	0.907
Mof_Cu	Cu	0.37414	0.62586	0.5	0.935
Mof_Cu	Cu	0.66775	0.16775	-0	0.906
Mof_Cu	Cu	0.62586	0.12586	-0	0.933
Mof_Cu	Cu	0.66775	0.66775	0.5	0.907
Mof_Cu	Cu	0.62586	0.62586	0.5	0.935
Mof_Cu	Cu	0.66775	0.83225	-0	0.906
Mof_Cu	Cu	0.62586	0.87414	-0	0.933
Mof_Cu	Cu	0.66775	0.33225	0.5	0.907
Mof_Cu	Cu	0.62586	0.37414	0.5	0.935
Mof_Cu	Cu	0.33225	0.83225	-0	0.906
Mof_Cu	Cu	0.37414	0.87414	-0	0.933
Mof_Cu	Cu	0.16775	0	0.66775	0.906
Mof_Cu	Cu	0.12586	0	0.62586	0.933
Mof_Cu	Cu	0.16775	0.5	0.83225	0.907
Mof_Cu	Cu	0.12586	0.5	0.87414	0.935
Mof_Cu	Cu	0.83225	2.27817e-33	0.33225	0.906
Mof_Cu	Cu	0.87414	0	0.37414	0.933
Mof_Cu	Cu	0.83225	0.5	0.83225	0.907
Mof_Cu	Cu	0.87414	0.5	0.87414	0.935
Mof_Cu	Cu	0.83225	0	0.66775	0.906
Mof_Cu	Cu	0.87414	0	0.62586	0.933
Mof_Cu	Cu	0.83225	0.5	0.16775	0.907
Mof_Cu	Cu	0.87414	0.5	0.12586	0.935
Mof_C 	C 	0.42107	0.92107	0.17641	0.024
Mof_H 	H 	0.4279	0.9279	0.1574	0.07
Mof_C 	C 	0.3946	0.8946	0.2653	-0
Mof_C 	C 	0.4034	0.9034	0.2343	0.011
Mof_C 	C 	0.3962	0.8962	0.2269	-0.002
Mof_C 	C 	0.3855	0.8855	0.2559	-0.023
Mof_C 	C 	0.42107	0.42107	0.67641	0.025
Mof_H 	H 	0.4279	0.4279	0.6574	0.07
Mof_C 	C 	0.3946	0.3946	0.7653	-0.001
Mof_C 	C 	0.4034	0.4034	0.7343	0.012
Mof_C 	C 	0.3962	0.3962	0.7269	-0.003
Mof_C 	C 	0.3855	0.3855	0.7559	-0.023
Mof_C 	C 	0.57893	0.07893	0.17641	0.025
Mof_H 	H 	0.5721	0.0721	0.1574	0.07
Mof_C 	C 	0.6054	0.1054	0.2653	-0.001
Mof_C 	C 	0.5966	0.0966	0.2343	0.013
Mof_C 	C 	0.6038	0.1038	0.2269	-0.004
Mof_C 	C 	0.6145	0.1145	0.2559	-0.023
Mof_C 	C 	0.57893	0.57893	0.67641	0.025
Mof_H 	H 	0.5721	0.5721	0.6574	0.07
Mof_C 	C 	0.6054	0.6054	0.7653	-0.001
Mof_C 	C 	0.5966	0.5966	0.7343	0.012
Mof_C 	C 	0.6038	0.6038	0.7269	-0.003
Mof_C 	C 	0.6145	0.6145	0.7559	-0.023
Mof_C 	C 	0.07893	0.07893	0.67641	0.024
Mof_H 	H 	0.0721	0.0721	0.6574	0.07
Mof_C 	C 	0.1054	0.1054	0.7653	-0.002
Mof_C 	C 	0.0966	0.0966	0.7343	0.014
Mof_C 	C 	0.1038	0.1038	0.7269	-0.005
Mof_C 	C 	0.1145	0.1145	0.7559	-0.023
Mof_C 	C 	0.57893	0.92107	0.82359	0.024
Mof_H 	H 	0.5721	0.9279	0.8426	0.07
Mof_C 	C 	0.6054	0.8946	0.7347	-0
Mof_C 	C 	0.5966	0.9034	0.7657	0.011
Mof_C 	C 	0.6038	0.8962	0.7731	-0.002
Mof_C 	C 	0.6145	0.8855	0.7441	-0.023
Mof_C 	C 	0.57893	0.42107	0.32359	0.025
Mof_H 	H 	0.5721	0.4279	0.3426	0.07
Mof_C 	C 	0.6054	0.3946	0.2347	-0.001
Mof_C 	C 	0.5966	0.4034	0.2657	0.012
Mof_C 	C 	0.6038	0.3962	0.2731	-0.003
Mof_C 	C 	0.6145	0.3855	0.2441	-0.023
Mof_C 	C 	0.07893	0.42107	0.82359	0.024
Mof_H 	H 	0.0721	0.4279	0.8426	0.07
Mof_C 	C 	0.1054	0.3946	0.7347	-0.001
Mof_C 	C 	0.0966	0.4034	0.7657	0.013
Mof_C 	C 	0.1038	0.3962	0.7731	-0.004
Mof_C 	C 	0.1145	0.3855	0.7441	-0.023
Mof_C 	C 	0.42107	0.07893	0.82359	0.024
Mof_H 	H 	0.4279	0.0721	0.8426	0.07
Mof_C 	C 	0.3946	0.1054	0.7347	-0.001
Mof_C 	C 	0.4034	0.0966	0.7657	0.013
Mof_C 	C 	0.3962	0.1038	0.7731	-0.004
Mof_C 	C 	0.3855	0.1145	0.7441	-0.023
Mof_C 	C 	0.42107	0.57893	0.32359	0.025
Mof_H 	H 	0.4279	0.5721	0.3426	0.07
Mof_C 	C 	0.3946	0.6054	0.2347	-0.001
Mof_C 	C 	0.4034	0.5966	0.2657	0.012
Mof_C 	C 	0.3962	0.6038	0.2731	-0.003
Mof_C 	C 	0.3855	0.6145	0.2441	-0.023
Mof_C 	C 	0.17641	0.42107	0.92107	0.024
Mof_H 	H 	0.1574	0.4279	0.9279	0.07
Mof_C 	C 	0.2653	0.3946	0.8946	-0
Mof_C 	C 	0.2343	0.4034	0.9034	0.011
Mof_C 	C 	0.2269	0.3962	0.8962	-0.002
Mof_C 	C 	0.2559	0.3855	0.8855	-0.023
Mof_C 	C 	0.67641	0.42107	0.42107	0.025
Mof_H 	H 	0.6574	0.4279	0.4279	0.07
Mof_C 	C 	0.7653	0.3946	0.3946	-0.001
Mof_C 	C 	0.7343	0.4034	0.4034	0.012
Mof_C 	C 	0.7269	0.3962	0.3962	-0.003
Mof_C 	C 	0.7559	0.3855	0.3855	-0.023
Mof_C 	C 	0.17641	0.57893	0.07893	0.025
Mof_H 	H 	0.1574	0.5721	0.0721	0.07
Mof_C 	C 	0.2653	0.6054	0.1054	-0.001
Mof_C 	C 	0.2343	0.5966	0.0966	0.013
Mof_C 	C 	0.2269	0.6038	0.1038	-0.004
Mof_C 	C 	0.2559	0.6145	0.1145	-0.023
Mof_C 	C 	0.67641	0.57893	0.57893	0.025
Mof_H 	H 	0.6574	0.5721	0.5721	0.07
Mof_C 	C 	0.7653	0.6054	0.6054	-0.001
Mof_C 	C 	0.7343	0.5966	0.5966	0.012
Mof_C 	C 	0.7269	0.6038	0.6038	-0.003
Mof_C 	C 	0.7559	0.6145	0.6145	-0.023
Mof_C 	C 	0.67641	0.07893	0.07893	0.024
Mof_H 	H 	0.6574	0.0721	0.0721	0.07
Mof_C 	C 	0.7653	0.1054	0.1054	-0.002
Mof_C 	C 	0.7343	0.0966	0.0966	0.014
Mof_C 	C 	0.7269	0.1038	0.1038	-0.005
Mof_C 	C 	0.7559	0.1145	0.1145	-0.023
Mof_C 	C 	0.82359	0.57893	0.92107	0.024
Mof_H 	H 	0.8426	0.5721	0.9279	0.07
Mof_C 	C 	0.7347	0.6054	0.8946	-0
Mof_C 	C 	0.7657	0.5966	0.9034	0.011
Mof_C 	C 	0.7731	0.6038	0.8962	-0.002
Mof_C 	C 	0.7441	0.6145	0.8855	-0.023
Mof_C 	C 	0.82359	0.07893	0.42107	0.024
Mof_H 	H 	0.8426	0.0721	0.4279	0.07
Mof_C 	C 	0.7347	0.1054	0.3946	-0.001
Mof_C 	C 	0.7657	0.0966	0.4034	0.013
Mof_C 	C 	0.7731	0.1038	0.3962	-0.004
Mof_C 	C 	0.7441	0.1145	0.3855	-0.023
Mof_C 	C 	0.32359	0.57893	0.42107	0.025
Mof_H 	H 	0.3426	0.5721	0.4279	0.07
Mof_C 	C 	0.2347	0.6054	0.3946	-0.001
Mof_C 	C 	0.2657	0.5966	0.4034	0.012
Mof_C 	C 	0.2731	0.6038	0.3962	-0.003
Mof_C 	C 	0.2441	0.6145	0.3855	-0.023
Mof_C 	C 	0.82359	0.42107	0.07893	0.024
Mof_H 	H 	0.8426	0.4279	0.0721	0.07
Mof_C 	C 	0.7347	0.3946	0.1054	-0.001
Mof_C 	C 	0.7657	0.4034	0.0966	0.013
Mof_C 	C 	0.7731	0.3962	0.1038	-0.004
Mof_C 	C 	0.7441	0.3855	0.1145	-0.023
Mof_C 	C 	0.32359	0.42107	0.57893	0.025
Mof_H 	H 	0.3426	0.4279	0.5721	0.07
Mof_C 	C 	0.2347	0.3946	0.6054	-0.001
Mof_C 	C 	0.2657	0.4034	0.5966	0.012
Mof_C 	C 	0.2731	0.3962	0.6038	-0.003
Mof_C 	C 	0.2441	0.3855	0.6145	-0.023
Mof_C 	C 	0.92107	0.17641	0.42107	0.024
Mof_H 	H 	0.9279	0.1574	0.4279	0.07
Mof_C 	C 	0.8946	0.2653	0.3946	-0
Mof_C 	C 	0.9034	0.2343	0.4034	0.011
Mof_C 	C 	0.8962	0.2269	0.3962	-0.002
Mof_C 	C 	0.8855	0.2559	0.3855	-0.023
Mof_C 	C 	0.92107	0.67641	0.92107	0.024
Mof_H 	H 	0.9279	0.6574	0.9279	0.07
Mof_C 	C 	0.8946	0.7653	0.8946	0
Mof_C 	C 	0.9034	0.7343	0.9034	0.01
Mof_C 	C 	0.8962	0.7269	0.8962	-0
Mof_C 	C 	0.8855	0.7559	0.8855	-0.023
Mof_C 	C 	0.42107	0.67641	0.42107	0.025
Mof_H 	H 	0.4279	0.6574	0.4279	0.07
Mof_C 	C 	0.3946	0.7653	0.3946	-0.001
Mof_C 	C 	0.4034	0.7343	0.4034	0.012
Mof_C 	C 	0.3962	0.7269	0.3962	-0.003
Mof_C 	C 	0.3855	0.7559	0.3855	-0.023
Mof_C 	C 	0.07893	0.17641	0.57893	0.025
Mof_H 	H 	0.0721	0.1574	0.5721	0.07
Mof_C 	C 	0.1054	0.2653	0.6054	-0.001
Mof_C 	C 	0.0966	0.2343	0.5966	0.013
Mof_C 	C 	0.1038	0.2269	0.6038	-0.004
Mof_C 	C 	0.1145	0.2559	0.6145	-0.023
Mof_C 	C 	0.07893	0.67641	0.07893	0.024
Mof_H 	H 	0.0721	0.6574	0.0721	0.07
Mof_C 	C 	0.1054	0.7653	0.1054	-0.002
Mof_C 	C 	0.0966	0.7343	0.0966	0.014
Mof_C 	C 	0.1038	0.7269	0.1038	-0.005
Mof_C 	C 	0.1145	0.7559	0.1145	-0.023
Mof_C 	C 	0.92107	0.82359	0.57893	0.024
Mof_H 	H 	0.9279	0.8426	0.5721	0.07
Mof_C 	C 	0.8946	0.7347	0.6054	-0
Mof_C 	C 	0.9034	0.7657	0.5966	0.011
Mof_C 	C 	0.8962	0.7731	0.6038	-0.002
Mof_C 	C 	0.8855	0.7441	0.6145	-0.023
Mof_C 	C 	0.92107	0.32359	0.07893	0.024
Mof_H 	H 	0.9279	0.3426	0.0721	0.07
Mof_C 	C 	0.8946	0.2347	0.1054	-0.001
Mof_C 	C 	0.9034	0.2657	0.0966	0.012
Mof_C 	C 	0.8962	0.2731	0.1038	-0.003
Mof_C 	C 	0.8855	0.2441	0.1145	-0.023
Mof_C 	C 	0.42107	0.82359	0.07893	0.024
Mof_H 	H 	0.4279	0.8426	0.0721	0.07
Mof_C 	C 	0.3946	0.7347	0.1054	-0.001
Mof_C 	C 	0.4034	0.7657	0.0966	0.013
Mof_C 	C 	0.3962	0.7731	0.1038	-0.004
Mof_C 	C 	0.3855	0.7441	0.1145	-0.023
Mof_C 	C 	0.07893	0.82359	0.42107	0.024
Mof_H 	H 	0.0721	0.8426	0.4279	0.07
Mof_C 	C 	0.1054	0.7347	0.3946	-0.001
Mof_C 	C 	0.0966	0.7657	0.4034	0.013
Mof_C 	C 	0.1038	0.7731	0.3962	-0.004
Mof_C 	C 	0.1145	0.7441	0.3855	-0.023
Mof_C 	C 	0.07893	0.32359	0.92107	0.024
Mof_H 	H 	0.0721	0.3426	0.9279	0.07
Mof_C 	C 	0.1054	0.2347	0.8946	-0.001
Mof_C 	C 	0.0966	0.2657	0.9034	0.012
Mof_C 	C 	0.1038	0.2731	0.8962	-0.003
Mof_C 	C 	0.1145	0.2441	0.8855	-0.023
Mof_C 	C 	0.92107	0.42107	0.82359	0.024
Mof_H 	H 	0.9279	0.4279	0.8426	0.07
Mof_C 	C 	0.8946	0.3946	0.7347	-0
Mof_C 	C 	0.9034	0.4034	0.7657	0.011
Mof_C 	C 	0.8962	0.3962	0.7731	-0.002
Mof_C 	C 	0.8855	0.3855	0.7441	-0.023
Mof_C 	C 	0.92107	0.92107	0.32359	0.024
Mof_H 	H 	0.9279	0.9279	0.3426	0.07
Mof_C 	C 	0.8946	0.8946	0.2347	0
Mof_C 	C 	0.9034	0.9034	0.2657	0.01
Mof_C 	C 	0.8962	0.8962	0.2731	-0.001
Mof_C 	C 	0.8855	0.8855	0.2441	-0.023
Mof_C 	C 	0.42107	0.42107	0.32359	0.025
Mof_H 	H 	0.4279	0.4279	0.3426	0.07
Mof_C 	C 	0.3946	0.3946	0.2347	-0.001
Mof_C 	C 	0.4034	0.4034	0.2657	0.012
Mof_C 	C 	0.3962	0.3962	0.2731	-0.003
Mof_C 	C 	0.3855	0.3855	0.2441	-0.023
Mof_C 	C 	0.07893	0.57893	0.82359	0.024
Mof_H 	H 	0.0721	0.5721	0.8426	0.07
Mof_C 	C 	0.1054	0.6054	0.7347	-0.001
Mof_C 	C 	0.0966	0.5966	0.7657	0.013
Mof_C 	C 	0.1038	0.6038	0.7731	-0.004
Mof_C 	C 	0.1145	0.6145	0.7441	-0.023
Mof_C 	C 	0.07893	0.07893	0.32359	0.024
Mof_H 	H 	0.0721	0.0721	0.3426	0.07
Mof_C 	C 	0.1054	0.1054	0.2347	-0.002
Mof_C 	C 	0.0966	0.0966	0.2657	0.015
Mof_C 	C 	0.1038	0.1038	0.2731	-0.006
Mof_C 	C 	0.1145	0.1145	0.2441	-0.022
Mof_C 	C 	0.92107	0.57893	0.17641	0.024
Mof_H 	H 	0.9279	0.5721	0.1574	0.07
Mof_C 	C 	0.8946	0.6054	0.2653	-0
Mof_C 	C 	0.9034	0.5966	0.2343	0.011
Mof_C 	C 	0.8962	0.6038	0.2269	-0.002
Mof_C 	C 	0.8855	0.6145	0.2559	-0.023
Mof_C 	C 	0.92107	0.07893	0.67641	0.024
Mof_H 	H 	0.9279	0.0721	0.6574	0.07
Mof_C 	C 	0.8946	0.1054	0.7653	-0.001
Mof_C 	C 	0.9034	0.0966	0.7343	0.012
Mof_C 	C 	0.8962	0.1038	0.7269	-0.003
Mof_C 	C 	0.8855	0.1145	0.7559	-0.023
Mof_C 	C 	0.42107	0.07893	0.17641	0.025
Mof_H 	H 	0.4279	0.0721	0.1574	0.07
Mof_C 	C 	0.3946	0.1054	0.2653	-0.001
Mof_C 	C 	0.4034	0.0966	0.2343	0.014
Mof_C 	C 	0.3962	0.1038	0.2269	-0.004
Mof_C 	C 	0.3855	0.1145	0.2559	-0.023
Mof_C 	C 	0.07893	0.42107	0.17641	0.025
Mof_H 	H 	0.0721	0.4279	0.1574	0.07
Mof_C 	C 	0.1054	0.3946	0.2653	-0.001
Mof_C 	C 	0.0966	0.4034	0.2343	0.014
Mof_C 	C 	0.1038	0.3962	0.2269	-0.004
Mof_C 	C 	0.1145	0.3855	0.2559	-0.023
Mof_C 	C 	0.07893	0.92107	0.67641	0.024
Mof_H 	H 	0.0721	0.9279	0.6574	0.07
Mof_C 	C 	0.1054	0.8946	0.7653	-0.001
Mof_C 	C 	0.0966	0.9034	0.7343	0.012
Mof_C 	C 	0.1038	0.8962	0.7269	-0.003
Mof_C 	C 	0.1145	0.8855	0.7559	-0.023
Mof_C 	C 	0.42107	0.17641	0.07893	0.025
Mof_H 	H 	0.4279	0.1574	0.0721	0.07
Mof_C 	C 	0.3946	0.2653	0.1054	-0.001
Mof_C 	C 	0.4034	0.2343	0.0966	0.014
Mof_C 	C 	0.3962	0.2269	0.1038	-0.004
Mof_C 	C 	0.3855	0.2559	0.1145	-0.023
Mof_C 	C 	0.42107	0.67641	0.57893	0.025
Mof_H 	H 	0.4279	0.6574	0.5721	0.07
Mof_C 	C 	0.3946	0.7653	0.6054	-0.001
Mof_C 	C 	0.4034	0.7343	0.5966	0.012
Mof_C 	C 	0.3962	0.7269	0.6038	-0.003
Mof_C 	C 	0.3855	0.7559	0.6145	-0.023
Mof_C 	C 	0.57893	0.17641	0.92107	0.024
Mof_H 	H 	0.5721	0.1574	0.9279	0.07
Mof_C 	C 	0.6054	0.2653	0.8946	-0
Mof_C 	C 	0.5966	0.2343	0.9034	0.011
Mof_C 	C 	0.6038	0.2269	0.8962	-0.002
Mof_C 	C 	0.6145	0.2559	0.8855	-0.023
Mof_C 	C 	0.57893	0.67641	0.42107	0.025
Mof_H 	H 	0.5721	0.6574	0.4279	0.07
Mof_C 	C 	0.6054	0.7653	0.3946	-0.001
Mof_C 	C 	0.5966	0.7343	0.4034	0.012
Mof_C 	C 	0.6038	0.7269	0.3962	-0.003
Mof_C 	C 	0.6145	0.7559	0.3855	-0.023
Mof_C 	C 	0.07893	0.17641	0.42107	0.025
Mof_H 	H 	0.0721	0.1574	0.4279	0.07
Mof_C 	C 	0.1054	0.2653	0.3946	-0.001
Mof_C 	C 	0.0966	0.2343	0.4034	0.014
Mof_C 	C 	0.1038	0.2269	0.3962	-0.004
Mof_C 	C 	0.1145	0.2559	0.3855	-0.023
Mof_C 	C 	0.57893	0.82359	0.07893	0.024
Mof_H 	H 	0.5721	0.8426	0.0721	0.07
Mof_C 	C 	0.6054	0.7347	0.1054	-0.001
Mof_C 	C 	0.5966	0.7657	0.0966	0.013
Mof_C 	C 	0.6038	0.7731	0.1038	-0.004
Mof_C 	C 	0.6145	0.7441	0.1145	-0.023
Mof_C 	C 	0.57893	0.32359	0.57893	0.025
Mof_H 	H 	0.5721	0.3426	0.5721	0.07
Mof_C 	C 	0.6054	0.2347	0.6054	-0.001
Mof_C 	C 	0.5966	0.2657	0.5966	0.012
Mof_C 	C 	0.6038	0.2731	0.6038	-0.003
Mof_C 	C 	0.6145	0.2441	0.6145	-0.023
Mof_C 	C 	0.07893	0.32359	0.07893	0.024
Mof_H 	H 	0.0721	0.3426	0.0721	0.07
Mof_C 	C 	0.1054	0.2347	0.1054	-0.002
Mof_C 	C 	0.0966	0.2657	0.0966	0.015
Mof_C 	C 	0.1038	0.2731	0.1038	-0.006
Mof_C 	C 	0.1145	0.2441	0.1145	-0.022
Mof_C 	C 	0.42107	0.82359	0.92107	0.024
Mof_H 	H 	0.4279	0.8426	0.9279	0.07
Mof_C 	C 	0.3946	0.7347	0.8946	-0
Mof_C 	C 	0.4034	0.7657	0.9034	0.011
Mof_C 	C 	0.3962	0.7731	0.8962	-0.002
Mof_C 	C 	0.3855	0.7441	0.8855	-0.023
Mof_C 	C 	0.42107	0.32359	0.42107	0.025
Mof_H 	H 	0.4279	0.3426	0.4279	0.07
Mof_C 	C 	0.3946	0.2347	0.3946	-0.001
Mof_C 	C 	0.4034	0.2657	0.4034	0.012
Mof_C 	C 	0.3962	0.2731	0.3962	-0.003
Mof_C 	C 	0.3855	0.2441	0.3855	-0.023
Mof_C 	C 	0.17641	0.92107	0.57893	0.024
Mof_H 	H 	0.1574	0.9279	0.5721	0.07
Mof_C 	C 	0.2653	0.8946	0.6054	-0
Mof_C 	C 	0.2343	0.9034	0.5966	0.011
Mof_C 	C 	0.2269	0.8962	0.6038	-0.002
Mof_C 	C 	0.2559	0.8855	0.6145	-0.023
Mof_C 	C 	0.17641	0.42107	0.07893	0.025
Mof_H 	H 	0.1574	0.4279	0.0721	0.07
Mof_C 	C 	0.2653	0.3946	0.1054	-0.001
Mof_C 	C 	0.2343	0.4034	0.0966	0.014
Mof_C 	C 	0.2269	0.3962	0.1038	-0.004
Mof_C 	C 	0.2559	0.3855	0.1145	-0.023
Mof_C 	C 	0.67641	0.92107	0.07893	0.024
Mof_H 	H 	0.6574	0.9279	0.0721	0.07
Mof_C 	C 	0.7653	0.8946	0.1054	-0.001
Mof_C 	C 	0.7343	0.9034	0.0966	0.012
Mof_C 	C 	0.7269	0.8962	0.1038	-0.003
Mof_C 	C 	0.7559	0.8855	0.1145	-0.023
Mof_C 	C 	0.17641	0.07893	0.42107	0.025
Mof_H 	H 	0.1574	0.0721	0.4279	0.07
Mof_C 	C 	0.2653	0.1054	0.3946	-0.001
Mof_C 	C 	0.2343	0.0966	0.4034	0.014
Mof_C 	C 	0.2269	0.1038	0.3962	-0.004
Mof_C 	C 	0.2559	0.1145	0.3855	-0.023
Mof_C 	C 	0.67641	0.07893	0.92107	0.024
Mof_H 	H 	0.6574	0.0721	0.9279	0.07
Mof_C 	C 	0.7653	0.1054	0.8946	-0.001
Mof_C 	C 	0.7343	0.0966	0.9034	0.012
Mof_C 	C 	0.7269	0.1038	0.8962	-0.003
Mof_C 	C 	0.7559	0.1145	0.8855	-0.023
Mof_C 	C 	0.82359	0.92107	0.42107	0.024
Mof_H 	H 	0.8426	0.9279	0.4279	0.07
Mof_C 	C 	0.7347	0.8946	0.3946	-0
Mof_C 	C 	0.7657	0.9034	0.4034	0.011
Mof_C 	C 	0.7731	0.8962	0.3962	-0.002
Mof_C 	C 	0.7441	0.8855	0.3855	-0.023
Mof_C 	C 	0.32359	0.92107	0.92107	0.024
Mof_H 	H 	0.3426	0.9279	0.9279	0.07
Mof_C 	C 	0.2347	0.8946	0.8946	0
Mof_C 	C 	0.2657	0.9034	0.9034	0.01
Mof_C 	C 	0.2731	0.8962	0.8962	-0.001
Mof_C 	C 	0.2441	0.8855	0.8855	-0.023
Mof_C 	C 	0.32359	0.42107	0.42107	0.025
Mof_H 	H 	0.3426	0.4279	0.4279	0.07
Mof_C 	C 	0.2347	0.3946	0.3946	-0.001
Mof_C 	C 	0.2657	0.4034	0.4034	0.012
Mof_C 	C 	0.2731	0.3962	0.3962	-0.003
Mof_C 	C 	0.2441	0.3855	0.3855	-0.023
Mof_C 	C 	0.82359	0.07893	0.57893	0.024
Mof_H 	H 	0.8426	0.0721	0.5721	0.07
Mof_C 	C 	0.7347	0.1054	0.6054	-0.001
Mof_C 	C 	0.7657	0.0966	0.5966	0.013
Mof_C 	C 	0.7731	0.1038	0.6038	-0.004
Mof_C 	C 	0.7441	0.1145	0.6145	-0.023
Mof_C 	C 	0.32359	0.07893	0.07893	0.024
Mof_H 	H 	0.3426	0.0721	0.0721	0.07
Mof_C 	C 	0.2347	0.1054	0.1054	-0.002
Mof_C 	C 	0.2657	0.0966	0.0966	0.015
Mof_C 	C 	0.2731	0.1038	0.1038	-0.006
Mof_C 	C 	0.2441	0.1145	0.1145	-0.022
Mof_C 	C 	0.57893	0.07893	0.82359	0.024
Mof_H 	H 	0.5721	0.0721	0.8426	0.07
Mof_C 	C 	0.6054	0.1054	0.7347	-0.001
Mof_C 	C 	0.5966	0.0966	0.7657	0.013
Mof_C 	C 	0.6038	0.1038	0.7731	-0.004
Mof_C 	C 	0.6145	0.1145	0.7441	-0.023
Mof_C 	C 	0.57893	0.57893	0.32359	0.025
Mof_H 	H 	0.5721	0.5721	0.3426	0.07
Mof_C 	C 	0.6054	0.6054	0.2347	-0.001
Mof_C 	C 	0.5966	0.5966	0.2657	0.012
Mof_C 	C 	0.6038	0.6038	0.2731	-0.003
Mof_C 	C 	0.6145	0.6145	0.2441	-0.023
Mof_C 	C 	0.42107	0.92107	0.82359	0.024
Mof_H 	H 	0.4279	0.9279	0.8426	0.07
Mof_C 	C 	0.3946	0.8946	0.7347	-0
Mof_C 	C 	0.4034	0.9034	0.7657	0.011
Mof_C 	C 	0.3962	0.8962	0.7731	-0.002
Mof_C 	C 	0.3855	0.8855	0.7441	-0.023
Mof_C 	C 	0.42107	0.57893	0.67641	0.025
Mof_H 	H 	0.4279	0.5721	0.6574	0.07
Mof_C 	C 	0.3946	0.6054	0.7653	-0.001
Mof_C 	C 	0.4034	0.5966	0.7343	0.012
Mof_C 	C 	0.3962	0.6038	0.7269	-0.003
Mof_C 	C 	0.3855	0.6145	0.7559	-0.023
Mof_C 	C 	0.57893	0.92107	0.17641	0.024
Mof_H 	H 	0.5721	0.9279	0.1574	0.07
Mof_C 	C 	0.6054	0.8946	0.2653	-0
Mof_C 	C 	0.5966	0.9034	0.2343	0.011
Mof_C 	C 	0.6038	0.8962	0.2269	-0.002
Mof_C 	C 	0.6145	0.8855	0.2559	-0.023
Mof_C 	C 	0.57893	0.42107	0.67641	0.025
Mof_H 	H 	0.5721	0.4279	0.6574	0.07
Mof_C 	C 	0.6054	0.3946	0.7653	-0.001
Mof_C 	C 	0.5966	0.4034	0.7343	0.012
Mof_C 	C 	0.6038	0.3962	0.7269	-0.003
Mof_C 	C 	0.6145	0.3855	0.7559	-0.023
Mof_C 	C 	0.82359	0.57893	0.07893	0.024
Mof_H 	H 	0.8426	0.5721	0.0721	0.07
Mof_C 	C 	0.7347	0.6054	0.1054	-0.001
Mof_C 	C 	0.7657	0.5966	0.0966	0.013
Mof_C 	C 	0.7731	0.6038	0.1038	-0.004
Mof_C 	C 	0.7441	0.6145	0.1145	-0.023
Mof_C 	C 	0.32359	0.57893	0.57893	0.025
Mof_H 	H 	0.3426	0.5721	0.5721	0.07
Mof_C 	C 	0.2347	0.6054	0.6054	-0.001
Mof_C 	C 	0.2657	0.5966	0.5966	0.012
Mof_C 	C 	0.2731	0.6038	0.6038	-0.003
Mof_C 	C 	0.2441	0.6145	0.6145	-0.023
Mof_C 	C 	0.82359	0.42107	0.92107	0.024
Mof_H 	H 	0.8426	0.4279	0.9279	0.07
Mof_C 	C 	0.7347	0.3946	0.8946	-0
Mof_C 	C 	0.7657	0.4034	0.9034	0.011
Mof_C 	C 	0.7731	0.3962	0.8962	-0.002
Mof_C 	C 	0.7441	0.3855	0.8855	-0.023
Mof_C 	C 	0.67641	0.42107	0.57893	0.025
Mof_H 	H 	0.6574	0.4279	0.5721	0.07
Mof_C 	C 	0.7653	0.3946	0.6054	-0.001
Mof_C 	C 	0.7343	0.4034	0.5966	0.012
Mof_C 	C 	0.7269	0.3962	0.6038	-0.003
Mof_C 	C 	0.7559	0.3855	0.6145	-0.023
Mof_C 	C 	0.17641	0.57893	0.92107	0.024
Mof_H 	H 	0.1574	0.5721	0.9279	0.07
Mof_C 	C 	0.2653	0.6054	0.8946	-0
Mof_C 	C 	0.2343	0.5966	0.9034	0.011
Mof_C 	C 	0.2269	0.6038	0.8962	-0.002
Mof_C 	C 	0.2559	0.6145	0.8855	-0.023
Mof_C 	C 	0.67641	0.57893	0.42107	0.025
Mof_H 	H 	0.6574	0.5721	0.4279	0.07
Mof_C 	C 	0.7653	0.6054	0.3946	-0.001
Mof_C 	C 	0.7343	0.5966	0.4034	0.012
Mof_C 	C 	0.7269	0.6038	0.3962	-0.003
Mof_C 	C 	0.7559	0.6145	0.3855	-0.023
Mof_C 	C 	0.07893	0.82359	0.57893	0.024
Mof_H 	H 	0.0721	0.8426	0.5721	0.07
Mof_C 	C 	0.1054	0.7347	0.6054	-0.001
Mof_C 	C 	0.0966	0.7657	0.5966	0.013
Mof_C 	C 	0.1038	0.7731	0.6038	-0.004
Mof_C 	C 	0.1145	0.7441	0.6145	-0.023
Mof_C 	C 	0.92107	0.82359	0.42107	0.024
Mof_H 	H 	0.9279	0.8426	0.4279	0.07
Mof_C 	C 	0.8946	0.7347	0.3946	-0
Mof_C 	C 	0.9034	0.7657	0.4034	0.011
Mof_C 	C 	0.8962	0.7731	0.3962	-0.002
Mof_C 	C 	0.8855	0.7441	0.3855	-0.023
Mof_C 	C 	0.92107	0.32359	0.92107	0.024
Mof_H 	H 	0.9279	0.3426	0.9279	0.07
Mof_C 	C 	0.8946	0.2347	0.8946	0
Mof_C 	C 	0.9034	0.2657	0.9034	0.01
Mof_C 	C 	0.8962	0.2731	0.8962	-0.001
Mof_C 	C 	0.8855	0.2441	0.8855	-0.023
Mof_C 	C 	0.07893	0.67641	0.92107	0.024
Mof_H 	H 	0.0721	0.6574	0.9279	0.07
Mof_C 	C 	0.1054	0.7653	0.8946	-0.001
Mof_C 	C 	0.0966	0.7343	0.9034	0.012
Mof_C 	C 	0.1038	0.7269	0.8962	-0.003
Mof_C 	C 	0.1145	0.7559	0.8855	-0.023
Mof_C 	C 	0.92107	0.17641	0.57893	0.024
Mof_H 	H 	0.9279	0.1574	0.5721	0.07
Mof_C 	C 	0.8946	0.2653	0.6054	-0
Mof_C 	C 	0.9034	0.2343	0.5966	0.011
Mof_C 	C 	0.8962	0.2269	0.6038	-0.002
Mof_C 	C 	0.8855	0.2559	0.6145	-0.023
Mof_C 	C 	0.92107	0.67641	0.07893	0.024
Mof_H 	H 	0.9279	0.6574	0.0721	0.07
Mof_C 	C 	0.8946	0.7653	0.1054	-0.001
Mof_C 	C 	0.9034	0.7343	0.0966	0.012
Mof_C 	C 	0.8962	0.7269	0.1038	-0.003
Mof_C 	C 	0.8855	0.7559	0.1145	-0.023
Mof_C 	C 	0.07893	0.57893	0.17641	0.025
Mof_H 	H 	0.0721	0.5721	0.1574	0.07
Mof_C 	C 	0.1054	0.6054	0.2653	-0.001
Mof_C 	C 	0.0966	0.5966	0.2343	0.013
Mof_C 	C 	0.1038	0.6038	0.2269	-0.004
Mof_C 	C 	0.1145	0.6145	0.2559	-0.023
Mof_C 	C 	0.92107	0.42107	0.17641	0.024
Mof_H 	H 	0.9279	0.4279	0.1574	0.07
Mof_C 	C 	0.8946	0.3946	0.2653	-0
Mof_C 	C 	0.9034	0.4034	0.2343	0.011
Mof_C 	C 	0.8962	0.3962	0.2269	-0.002
Mof_C 	C 	0.8855	0.3855	0.2559	-0.023
Mof_C 	C 	0.92107	0.92107	0.67641	0.024
Mof_H 	H 	0.9279	0.9279	0.6574	0.07
Mof_C 	C 	0.8946	0.8946	0.7653	0
Mof_C 	C 	0.9034	0.9034	0.7343	0.01
Mof_C 	C 	0.8962	0.8962	0.7269	-0
Mof_C 	C 	0.8855	0.8855	0.7559	-0.023
Mof_C 	C 	0.07893	0.92107	0.32359	0.024
Mof_H 	H 	0.0721	0.9279	0.3426	0.07
Mof_C 	C 	0.1054	0.8946	0.2347	-0.001
Mof_C 	C 	0.0966	0.9034	0.2657	0.012
Mof_C 	C 	0.1038	0.8962	0.2731	-0.003
Mof_C 	C 	0.1145	0.8855	0.2441	-0.023
Mof_C 	C 	0.92107	0.57893	0.82359	0.024
Mof_H 	H 	0.9279	0.5721	0.8426	0.07
Mof_C 	C 	0.8946	0.6054	0.7347	-0
Mof_C 	C 	0.9034	0.5966	0.7657	0.011
Mof_C 	C 	0.8962	0.6038	0.7731	-0.002
Mof_C 	C 	0.8855	0.6145	0.7441	-0.023
Mof_C 	C 	0.92107	0.07893	0.32359	0.024
Mof_H 	H 	0.9279	0.0721	0.3426	0.07
Mof_C 	C 	0.8946	0.1054	0.2347	-0.001
Mof_C 	C 	0.9034	0.0966	0.2657	0.012
Mof_C 	C 	0.8962	0.1038	0.2731	-0.003
Mof_C 	C 	0.8855	0.1145	0.2441	-0.023
Mof_C 	C 	0.57893	0.82359	0.92107	0.024
Mof_H 	H 	0.5721	0.8426	0.9279	0.07
Mof_C 	C 	0.6054	0.7347	0.8946	-0
Mof_C 	C 	0.5966	0.7657	0.9034	0.011
Mof_C 	C 	0.6038	0.7731	0.8962	-0.002
Mof_C 	C 	0.6145	0.7441	0.8855	-0.023
Mof_C 	C 	0.57893	0.32359	0.42107	0.025
Mof_H 	H 	0.5721	0.3426	0.4279	0.07
Mof_C 	C 	0.6054	0.2347	0.3946	-0.001
Mof_C 	C 	0.5966	0.2657	0.4034	0.012
Mof_C 	C 	0.6038	0.2731	0.3962	-0.003
Mof_C 	C 	0.6145	0.2441	0.3855	-0.023
Mof_C 	C 	0.42107	0.32359	0.57893	0.025
Mof_H 	H 	0.4279	0.3426	0.5721	0.07
Mof_C 	C 	0.3946	0.2347	0.6054	-0.001
Mof_C 	C 	0.4034	0.2657	0.5966	0.012
Mof_C 	C 	0.3962	0.2731	0.6038	-0.003
Mof_C 	C 	0.3855	0.2441	0.6145	-0.023
Mof_C 	C 	0.42107	0.17641	0.92107	0.024
Mof_H 	H 	0.4279	0.1574	0.9279	0.07
Mof_C 	C 	0.3946	0.2653	0.8946	-0
Mof_C 	C 	0.4034	0.2343	0.9034	0.011
Mof_C 	C 	0.3962	0.2269	0.8962	-0.002
Mof_C 	C 	0.3855	0.2559	0.8855	-0.023
Mof_C 	C 	0.57893	0.17641	0.07893	0.025
Mof_H 	H 	0.5721	0.1574	0.0721	0.07
Mof_C 	C 	0.6054	0.2653	0.1054	-0.001
Mof_C 	C 	0.5966	0.2343	0.0966	0.013
Mof_C 	C 	0.6038	0.2269	0.1038	-0.004
Mof_C 	C 	0.6145	0.2559	0.1145	-0.023
Mof_C 	C 	0.57893	0.67641	0.57893	0.025
Mof_H 	H 	0.5721	0.6574	0.5721	0.07
Mof_C 	C 	0.6054	0.7653	0.6054	-0.001
Mof_C 	C 	0.5966	0.7343	0.5966	0.012
Mof_C 	C 	0.6038	0.7269	0.6038	-0.003
Mof_C 	C 	0.6145	0.7559	0.6145	-0.023
Mof_C 	C 	0.32359	0.07893	0.92107	0.024
Mof_H 	H 	0.3426	0.0721	0.9279	0.07
Mof_C 	C 	0.2347	0.1054	0.8946	-0.001
Mof_C 	C 	0.2657	0.0966	0.9034	0.012
Mof_C 	C 	0.2731	0.1038	0.8962	-0.003
Mof_C 	C 	0.2441	0.1145	0.8855	-0.023
Mof_C 	C 	0.82359	0.92107	0.57893	0.024
Mof_H 	H 	0.8426	0.9279	0.5721	0.07
Mof_C 	C 	0.7347	0.8946	0.6054	-0
Mof_C 	C 	0.7657	0.9034	0.5966	0.011
Mof_C 	C 	0.7731	0.8962	0.6038	-0.002
Mof_C 	C 	0.7441	0.8855	0.6145	-0.023
Mof_C 	C 	0.32359	0.92107	0.07893	0.024
Mof_H 	H 	0.3426	0.9279	0.0721	0.07
Mof_C 	C 	0.2347	0.8946	0.1054	-0.001
Mof_C 	C 	0.2657	0.9034	0.0966	0.012
Mof_C 	C 	0.2731	0.8962	0.1038	-0.003
Mof_C 	C 	0.2441	0.8855	0.1145	-0.023
Mof_C 	C 	0.17641	0.07893	0.57893	0.025
Mof_H 	H 	0.1574	0.0721	0.5721	0.07
Mof_C 	C 	0.2653	0.1054	0.6054	-0.001
Mof_C 	C 	0.2343	0.0966	0.5966	0.013
Mof_C 	C 	0.2269	0.1038	0.6038	-0.004
Mof_C 	C 	0.2559	0.1145	0.6145	-0.023
Mof_C 	C 	0.17641	0.92107	0.42107	0.024
Mof_H 	H 	0.1574	0.9279	0.4279	0.07
Mof_C 	C 	0.2653	0.8946	0.3946	-0
Mof_C 	C 	0.2343	0.9034	0.4034	0.011
Mof_C 	C 	0.2269	0.8962	0.3962	-0.002
Mof_C 	C 	0.2559	0.8855	0.3855	-0.023
Mof_C 	C 	0.67641	0.92107	0.92107	0.024
Mof_H 	H 	0.6574	0.9279	0.9279	0.07
Mof_C 	C 	0.7653	0.8946	0.8946	0
Mof_C 	C 	0.7343	0.9034	0.9034	0.01
Mof_C 	C 	0.7269	0.8962	0.8962	-0
Mof_C 	C 	0.7559	0.8855	0.8855	-0.023
Mof_Cu	Cu	0.33901	0.89157	0.33901	0.709
Mof_O 	O 	0.3277	0.9368	0.3277	-0.219
Mof_O 	O 	0.307	0.9155	0.307	-0.272
Mof_Cu	Cu	0.3243	0.8744	0.3243	0.702
Mof_Cu	Cu	0.33901	0.39157	0.83901	0.709
Mof_O 	O 	0.3277	0.4368	0.8277	-0.22
Mof_O 	O 	0.307	0.4155	0.807	-0.272
Mof_Cu	Cu	0.3243	0.3744	0.8243	0.702
Mof_Cu	Cu	0.83901	0.89157	0.83901	0.709
Mof_O 	O 	0.8277	0.9368	0.8277	-0.219
Mof_O 	O 	0.807	0.9155	0.807	-0.272
Mof_Cu	Cu	0.8243	0.8744	0.8243	0.702
Mof_Cu	Cu	0.83901	0.39157	0.33901	0.709
Mof_O 	O 	0.8277	0.4368	0.3277	-0.22
Mof_O 	O 	0.807	0.4155	0.307	-0.272
Mof_Cu	Cu	0.8243	0.3744	0.3243	0.702
Mof_Cu	Cu	0.66099	0.10843	0.33901	0.708
Mof_O 	O 	0.6723	0.0632	0.3277	-0.221
Mof_O 	O 	0.693	0.0845	0.307	-0.272
Mof_Cu	Cu	0.6757	0.1256	0.3243	0.702
Mof_Cu	Cu	0.66099	0.60843	0.83901	0.708
Mof_O 	O 	0.6723	0.5632	0.8277	-0.22
Mof_O 	O 	0.693	0.5845	0.807	-0.272
Mof_Cu	Cu	0.6757	0.6256	0.8243	0.702
Mof_Cu	Cu	0.16099	0.10843	0.83901	0.708
Mof_O 	O 	0.1723	0.0632	0.8277	-0.221
Mof_O 	O 	0.193	0.0845	0.807	-0.272
Mof_Cu	Cu	0.1757	0.1256	0.8243	0.702
Mof_Cu	Cu	0.16099	0.60843	0.33901	0.708
Mof_O 	O 	0.1723	0.5632	0.3277	-0.22
Mof_O 	O 	0.193	0.5845	0.307	-0.272
Mof_Cu	Cu	0.1757	0.6256	0.3243	0.702
Mof_Cu	Cu	0.66099	0.89157	0.66099	0.709
Mof_O 	O 	0.6723	0.9368	0.6723	-0.219
Mof_O 	O 	0.693	0.9155	0.693	-0.272
Mof_Cu	Cu	0.6757	0.8744	0.6757	0.702
Mof_Cu	Cu	0.66099	0.39157	0.16099	0.708
Mof_O 	O 	0.6723	0.4368	0.1723	-0.22
Mof_O 	O 	0.693	0.4155	0.193	-0.272
Mof_Cu	Cu	0.6757	0.3744	0.1757	0.702
Mof_Cu	Cu	0.16099	0.89157	0.16099	0.708
Mof_O 	O 	0.1723	0.9368	0.1723	-0.219
Mof_O 	O 	0.193	0.9155	0.193	-0.272
Mof_Cu	Cu	0.1757	0.8744	0.1757	0.702
Mof_Cu	Cu	0.16099	0.39157	0.66099	0.708
Mof_O 	O 	0.1723	0.4368	0.6723	-0.22
Mof_O 	O 	0.193	0.4155	0.693	-0.272
Mof_Cu	Cu	0.1757	0.3744	0.6757	0.702
Mof_Cu	Cu	0.33901	0.10843	0.66099	0.708
Mof_O 	O 	0.3277	0.0632	0.6723	-0.221
Mof_O 	O 	0.307	0.0845	0.693	-0.272
Mof_Cu	Cu	0.3243	0.1256	0.6757	0.702
Mof_Cu	Cu	0.33901	0.60843	0.16099	0.708
Mof_O 	O 	0.3277	0.5632	0.1723	-0.22
Mof_O 	O 	0.307	0.5845	0.193	-0.272
Mof_Cu	Cu	0.3243	0.6256	0.1757	0.702
Mof_Cu	Cu	0.83901	0.10843	0.16099	0.708
Mof_O 	O 	0.8277	0.0632	0.1723	-0.221
Mof_O 	O 	0.807	0.0845	0.193	-0.272
Mof_Cu	Cu	0.8243	0.1256	0.1757	0.702
Mof_Cu	Cu	0.83901	0.60843	0.66099	0.708
Mof_O 	O 	0.8277	0.5632	0.6723	-0.22
Mof_O 	O 	0.807	0.5845	0.693	-0.272
Mof_Cu	Cu	0.8243	0.6256	0.6757	0.702
Mof_Cu	Cu	0.33901	0.33901	0.89157	0.709
Mof_O 	O 	0.3277	0.3277	0.9368	-0.219
Mof_O 	O 	0.307	0.307	0.9155	-0.272
Mof_Cu	Cu	0.3243	0.3243	0.8744	0.702
Mof_Cu	Cu	0.33901	0.83901	0.39157	0.709
Mof_O 	O 	0.3277	0.8277	0.4368	-0.22
Mof_O 	O 	0.307	0.807	0.4155	-0.272
Mof_Cu	Cu	0.3243	0.8243	0.3744	0.702
Mof_Cu	Cu	0.83901	0.33901	0.39157	0.709
Mof_O 	O 	0.8277	0.3277	0.4368	-0.22
Mof_O 	O 	0.807	0.307	0.4155	-0.272
Mof_Cu	Cu	0.8243	0.3243	0.3744	0.702
Mof_Cu	Cu	0.83901	0.83901	0.89157	0.709
Mof_O 	O 	0.8277	0.8277	0.9368	-0.219
Mof_O 	O 	0.807	0.807	0.9155	-0.272
Mof_Cu	Cu	0.8243	0.8243	0.8744	0.702
Mof_Cu	Cu	0.33901	0.66099	0.10843	0.708
Mof_O 	O 	0.3277	0.6723	0.0632	-0.221
Mof_O 	O 	0.307	0.693	0.0845	-0.272
Mof_Cu	Cu	0.3243	0.6757	0.1256	0.702
Mof_Cu	Cu	0.33901	0.16099	0.60843	0.708
Mof_O 	O 	0.3277	0.1723	0.5632	-0.22
Mof_O 	O 	0.307	0.193	0.5845	-0.272
Mof_Cu	Cu	0.3243	0.1757	0.6256	0.702
Mof_Cu	Cu	0.83901	0.66099	0.60843	0.708
Mof_O 	O 	0.8277	0.6723	0.5632	-0.22
Mof_O 	O 	0.807	0.693	0.5845	-0.272
Mof_Cu	Cu	0.8243	0.6757	0.6256	0.702
Mof_Cu	Cu	0.83901	0.16099	0.10843	0.708
Mof_O 	O 	0.8277	0.1723	0.0632	-0.221
Mof_O 	O 	0.807	0.193	0.0845	-0.272
Mof_Cu	Cu	0.8243	0.1757	0.1256	0.702
Mof_Cu	Cu	0.66099	0.66099	0.89157	0.709
Mof_O 	O 	0.6723	0.6723	0.9368	-0.219
Mof_O 	O 	0.693	0.693	0.9155	-0.272
Mof_Cu	Cu	0.6757	0.6757	0.8744	0.702
Mof_Cu	Cu	0.66099	0.16099	0.39157	0.708
Mof_O 	O 	0.6723	0.1723	0.4368	-0.22
Mof_O 	O 	0.693	0.193	0.4155	-0.272
Mof_Cu	Cu	0.6757	0.1757	0.3744	0.702
Mof_Cu	Cu	0.16099	0.66099	0.39157	0.708
Mof_O 	O 	0.1723	0.6723	0.4368	-0.22
Mof_O 	O 	0.193	0.693	0.4155	-0.272
Mof_Cu	Cu	0.1757	0.6757	0.3744	0.702
Mof_Cu	Cu	0.16099	0.16099	0.89157	0.708
Mof_O 	O 	0.1723	0.1723	0.9368	-0.219
Mof_O 	O 	0.193	0.193	0.9155	-0.272
Mof_Cu	Cu	0.1757	0.1757	0.8744	0.702
Mof_Cu	Cu	0.66099	0.33901	0.10843	0.708
Mof_O 	O 	0.6723	0.3277	0.0632	-0.221
Mof_O 	O 	0.693	0.307	0.0845	-0.272
Mof_Cu	Cu	0.6757	0.3243	0.1256	0.702
Mof_Cu	Cu	0.66099	0.83901	0.60843	0.708
Mof_O 	O 	0.6723	0.8277	0.5632	-0.22
Mof_O 	O 	0.693	0.807	0.5845	-0.272
Mof_Cu	Cu	0.6757	0.8243	0.6256	0.702
Mof_Cu	Cu	0.16099	0.33901	0.60843	0.708
Mof_O 	O 	0.1723	0.3277	0.5632	-0.22
Mof_O 	O 	0.193	0.307	0.5845	-0.272
Mof_Cu	Cu	0.1757	0.3243	0.6256	0.702
Mof_Cu	Cu	0.16099	0.83901	0.10843	0.708
Mof_O 	O 	0.1723	0.8277	0.0632	-0.221
Mof_O 	O 	0.193	0.807	0.0845	-0.272
Mof_Cu	Cu	0.1757	0.8243	0.1256	0.702
Mof_Cu	Cu	0.89157	0.33901	0.33901	0.709
Mof_O 	O 	0.9368	0.3277	0.3277	-0.219
Mof_O 	O 	0.9155	0.307	0.307	-0.272
Mof_Cu	Cu	0.8744	0.3243	0.3243	0.702
Mof_Cu	Cu	0.89157	0.83901	0.83901	0.709
Mof_O 	O 	0.9368	0.8277	0.8277	-0.219
Mof_O 	O 	0.9155	0.807	0.807	-0.272
Mof_Cu	Cu	0.8744	0.8243	0.8243	0.702
Mof_Cu	Cu	0.39157	0.33901	0.83901	0.709
Mof_O 	O 	0.4368	0.3277	0.8277	-0.22
Mof_O 	O 	0.4155	0.307	0.807	-0.272
Mof_Cu	Cu	0.3744	0.3243	0.8243	0.702
Mof_Cu	Cu	0.39157	0.83901	0.33901	0.709
Mof_O 	O 	0.4368	0.8277	0.3277	-0.22
Mof_O 	O 	0.4155	0.807	0.307	-0.272
Mof_Cu	Cu	0.3744	0.8243	0.3243	0.702
Mof_Cu	Cu	0.10843	0.33901	0.66099	0.708
Mof_O 	O 	0.0632	0.3277	0.6723	-0.221
Mof_O 	O 	0.0845	0.307	0.693	-0.272
Mof_Cu	Cu	0.1256	0.3243	0.6757	0.702
Mof_Cu	Cu	0.10843	0.83901	0.16099	0.708
Mof_O 	O 	0.0632	0.8277	0.1723	-0.221
Mof_O 	O 	0.0845	0.807	0.193	-0.272
Mof_Cu	Cu	0.1256	0.8243	0.1757	0.702
Mof_Cu	Cu	0.60843	0.33901	0.16099	0.708
Mof_O 	O 	0.5632	0.3277	0.1723	-0.22
Mof_O 	O 	0.5845	0.307	0.193	-0.272
Mof_Cu	Cu	0.6256	0.3243	0.1757	0.702
Mof_Cu	Cu	0.60843	0.83901	0.66099	0.708
Mof_O 	O 	0.5632	0.8277	0.6723	-0.22
Mof_O 	O 	0.5845	0.807	0.693	-0.272
Mof_Cu	Cu	0.6256	0.8243	0.6757	0.702
Mof_Cu	Cu	0.89157	0.66099	0.66099	0.709
Mof_O 	O 	0.9368	0.6723	0.6723	-0.219
Mof_O 	O 	0.9155	0.693	0.693	-0.272
Mof_Cu	Cu	0.8744	0.6757	0.6757	0.702
Mof_Cu	Cu	0.89157	0.16099	0.16099	0.708
Mof_O 	O 	0.9368	0.1723	0.1723	-0.219
Mof_O 	O 	0.9155	0.193	0.193	-0.272
Mof_Cu	Cu	0.8744	0.1757	0.1757	0.702
Mof_Cu	Cu	0.39157	0.66099	0.16099	0.708
Mof_O 	O 	0.4368	0.6723	0.1723	-0.22
Mof_O 	O 	0.4155	0.693	0.193	-0.272
Mof_Cu	Cu	0.3744	0.6757	0.1757	0.702
Mof_Cu	Cu	0.39157	0.16099	0.66099	0.708
Mof_O 	O 	0.4368	0.1723	0.6723	-0.22
Mof_O 	O 	0.4155	0.193	0.693	-0.272
Mof_Cu	Cu	0.3744	0.1757	0.6757	0.702
Mof_Cu	Cu	0.10843	0.66099	0.33901	0.708
Mof_O 	O 	0.0632	0.6723	0.3277	-0.221
Mof_O 	O 	0.0845	0.693	0.307	-0.272
Mof_Cu	Cu	0.1256	0.6757	0.3243	0.702
Mof_Cu	Cu	0.10843	0.16099	0.83901	0.708
Mof_O 	O 	0.0632	0.1723	0.8277	-0.221
Mof_O 	O 	0.0845	0.193	0.807	-0.272
Mof_Cu	Cu	0.1256	0.1757	0.8243	0.702
Mof_Cu	Cu	0.60843	0.66099	0.83901	0.708
Mof_O 	O 	0.5632	0.6723	0.8277	-0.22
Mof_O 	O 	0.5845	0.693	0.807	-0.272
Mof_Cu	Cu	0.6256	0.6757	0.8243	0.702
Mof_Cu	Cu	0.60843	0.16099	0.33901	0.708
Mof_O 	O 	0.5632	0.1723	0.3277	-0.22
Mof_O 	O 	0.5845	0.193	0.307	-0.272
Mof_Cu	Cu	0.6256	0.1757	0.3243	0.702
Mof_Cu	Cu	0.89157	0.33901	0.66099	0.709
Mof_O 	O 	0.9368	0.3277	0.6723	-0.219
Mof_O 	O 	0.9155	0.307	0.693	-0.272
Mof_Cu	Cu	0.8744	0.3243	0.6757	0.702
Mof_Cu	Cu	0.89157	0.83901	0.16099	0.709
Mof_O 	O 	0.9368	0.8277	0.1723	-0.219
Mof_O 	O 	0.9155	0.807	0.193	-0.272
Mof_Cu	Cu	0.8744	0.8243	0.1757	0.702
Mof_Cu	Cu	0.39157	0.33901	0.16099	0.708
Mof_O 	O 	0.4368	0.3277	0.1723	-0.22
Mof_O 	O 	0.4155	0.307	0.193	-0.272
Mof_Cu	Cu	0.3744	0.3243	0.1757	0.702
Mof_Cu	Cu	0.39157	0.83901	0.66099	0.708
Mof_O 	O 	0.4368	0.8277	0.6723	-0.22
Mof_O 	O 	0.4155	0.807	0.693	-0.272
Mof_Cu	Cu	0.3744	0.8243	0.6757	0.702
Mof_Cu	Cu	0.10843	0.66099	0.66099	0.708
Mof_O 	O 	0.0632	0.6723	0.6723	-0.221
Mof_O 	O 	0.0845	0.693	0.693	-0.272
Mof_Cu	Cu	0.1256	0.6757	0.6757	0.702
Mof_Cu	Cu	0.10843	0.16099	0.16099	0.708
Mof_O 	O 	0.0632	0.1723	0.1723	-0.221
Mof_O 	O 	0.0845	0.193	0.193	-0.272
Mof_Cu	Cu	0.1256	0.1757	0.1757	0.702
Mof_Cu	Cu	0.60843	0.66099	0.16099	0.708
Mof_O 	O 	0.5632	0.6723	0.1723	-0.22
Mof_O 	O 	0.5845	0.693	0.193	-0.272
Mof_Cu	Cu	0.6256	0.6757	0.1757	0.702
Mof_Cu	Cu	0.60843	0.16099	0.66099	0.708
Mof_O 	O 	0.5632	0.1723	0.6723	-0.22
Mof_O 	O 	0.5845	0.193	0.693	-0.272
Mof_Cu	Cu	0.6256	0.1757	0.6757	0.702
Mof_Cu	Cu	0.89157	0.66099	0.33901	0.709
Mof_O 	O 	0.9368	0.6723	0.3277	-0.219
Mof_O 	O 	0.9155	0.693	0.307	-0.272
Mof_Cu	Cu	0.8744	0.6757	0.3243	0.702
Mof_Cu	Cu	0.89157	0.16099	0.83901	0.709
Mof_O 	O 	0.9368	0.1723	0.8277	-0.219
Mof_O 	O 	0.9155	0.193	0.807	-0.272
Mof_Cu	Cu	0.8744	0.1757	0.8243	0.702
Mof_Cu	Cu	0.39157	0.66099	0.83901	0.708
Mof_O 	O 	0.4368	0.6723	0.8277	-0.22
Mof_O 	O 	0.4155	0.693	0.807	-0.272
Mof_Cu	Cu	0.3744	0.6757	0.8243	0.702
Mof_Cu	Cu	0.39157	0.16099	0.33901	0.708
Mof_O 	O 	0.4368	0.1723	0.3277	-0.22
Mof_O 	O 	0.4155	0.193	0.307	-0.272
Mof_Cu	Cu	0.3744	0.1757	0.3243	0.702
Mof_Cu	Cu	0.10843	0.33901	0.33901	0.708
Mof_O 	O 	0.0632	0.3277	0.3277	-0.221
Mof_O 	O 	0.0845	0.307	0.307	-0.272
Mof_Cu	Cu	0.1256	0.3243	0.3243	0.702
Mof_Cu	Cu	0.10843	0.83901	0.83901	0.708
Mof_O 	O 	0.0632	0.8277	0.8277	-0.221
Mof_O 	O 	0.0845	0.807	0.807	-0.272
Mof_Cu	Cu	0.1256	0.8243	0.8243	0.702
Mof_Cu	Cu	0.60843	0.33901	0.83901	0.708
Mof_O 	O 	0.5632	0.3277	0.8277	-0.22
Mof_O 	O 	0.5845	0.307	0.807	-0.272
Mof_Cu	Cu	0.6256	0.3243	0.8243	0.702
Mof_Cu	Cu	0.60843	0.83901	0.33901	0.708
Mof_O 	O 	0.5632	0.8277	0.3277	-0.22
Mof_O 	O 	0.5845	0.807	0.307	-0.272
Mof_Cu	Cu	0.6256	0.8243	0.3243	0.702
Mof_Cu	Cu	0.33901	0.33901	0.10843	0.708
Mof_O 	O 	0.3277	0.3277	0.0632	-0.221
Mof_O 	O 	0.307	0.307	0.0845	-0.272
Mof_Cu	Cu	0.3243	0.3243	0.1256	0.702
Mof_Cu	Cu	0.33901	0.83901	0.60843	0.708
Mof_O 	O 	0.3277	0.8277	0.5632	-0.22
Mof_O 	O 	0.307	0.807	0.5845	-0.272
Mof_Cu	Cu	0.3243	0.8243	0.6256	0.702
Mof_Cu	Cu	0.83901	0.33901	0.60843	0.708
Mof_O 	O 	0.8277	0.3277	0.5632	-0.22
Mof_O 	O 	0.807	0.307	0.5845	-0.272
Mof_Cu	Cu	0.8243	0.3243	0.6256	0.702
Mof_Cu	Cu	0.83901	0.83901	0.10843	0.708
Mof_O 	O 	0.8277	0.8277	0.0632	-0.221
Mof_O 	O 	0.807	0.807	0.0845	-0.272
Mof_Cu	Cu	0.8243	0.8243	0.1256	0.702
Mof_Cu	Cu	0.66099	0.33901	0.89157	0.709
Mof_O 	O 	0.6723	0.3277	0.9368	-0.219
Mof_O 	O 	0.693	0.307	0.9155	-0.272
Mof_Cu	Cu	0.6757	0.3243	0.8744	0.702
Mof_Cu	Cu	0.66099	0.83901	0.39157	0.708
Mof_O 	O 	0.6723	0.8277	0.4368	-0.22
Mof_O 	O 	0.693	0.807	0.4155	-0.272
Mof_Cu	Cu	0.6757	0.8243	0.3744	0.702
Mof_Cu	Cu	0.16099	0.33901	0.39157	0.708
Mof_O 	O 	0.1723	0.3277	0.4368	-0.22
Mof_O 	O 	0.193	0.307	0.4155	-0.272
Mof_Cu	Cu	0.1757	0.3243	0.3744	0.702
Mof_Cu	Cu	0.16099	0.83901	0.89157	0.709
Mof_O 	O 	0.1723	0.8277	0.9368	-0.219
Mof_O 	O 	0.193	0.807	0.9155	-0.272
Mof_Cu	Cu	0.1757	0.8243	0.8744	0.702
Mof_Cu	Cu	0.66099	0.66099	0.10843	0.708
Mof_O 	O 	0.6723	0.6723	0.0632	-0.221
Mof_O 	O 	0.693	0.693	0.0845	-0.272
Mof_Cu	Cu	0.6757	0.6757	0.1256	0.702
Mof_Cu	Cu	0.66099	0.16099	0.60843	0.708
Mof_O 	O 	0.6723	0.1723	0.5632	-0.22
Mof_O 	O 	0.693	0.193	0.5845	-0.272
Mof_Cu	Cu	0.6757	0.1757	0.6256	0.702
Mof_Cu	Cu	0.16099	0.66099	0.60843	0.708
Mof_O 	O 	0.1723	0.6723	0.5632	-0.22
Mof_O 	O 	0.193	0.693	0.5845	-0.272
Mof_Cu	Cu	0.1757	0.6757	0.6256	0.702
Mof_Cu	Cu	0.16099	0.16099	0.10843	0.708
Mof_O 	O 	0.1723	0.1723	0.0632	-0.221
Mof_O 	O 	0.193	0.193	0.0845	-0.272
Mof_Cu	Cu	0.1757	0.1757	0.1256	0.702
Mof_Cu	Cu	0.33901	0.66099	0.89157	0.709
Mof_O 	O 	0.3277	0.6723	0.9368	-0.219
Mof_O 	O 	0.307	0.693	0.9155	-0.272
Mof_Cu	Cu	0.3243	0.6757	0.8744	0.702
Mof_Cu	Cu	0.33901	0.16099	0.39157	0.708
Mof_O 	O 	0.3277	0.1723	0.4368	-0.22
Mof_O 	O 	0.307	0.193	0.4155	-0.272
Mof_Cu	Cu	0.3243	0.1757	0.3744	0.702
Mof_Cu	Cu	0.83901	0.66099	0.39157	0.708
Mof_O 	O 	0.8277	0.6723	0.4368	-0.22
Mof_O 	O 	0.807	0.693	0.4155	-0.272
Mof_Cu	Cu	0.8243	0.6757	0.3744	0.702
Mof_Cu	Cu	0.83901	0.16099	0.89157	0.709
Mof_O 	O 	0.8277	0.1723	0.9368	-0.219
Mof_O 	O 	0.807	0.193	0.9155	-0.272
Mof_Cu	Cu	0.8243	0.1757	0.8744	0.702
Mof_Cu	Cu	0.33901	0.89157	0.66099	0.709
Mof_O 	O 	0.3277	0.9368	0.6723	-0.219
Mof_O 	O 	0.307	0.9155	0.693	-0.272
Mof_Cu	Cu	0.3243	0.8744	0.6757	0.702
Mof_Cu	Cu	0.33901	0.39157	0.16099	0.708
Mof_O 	O 	0.3277	0.4368	0.1723	-0.22
Mof_O 	O 	0.307	0.4155	0.193	-0.272
Mof_Cu	Cu	0.3243	0.3744	0.1757	0.702
Mof_Cu	Cu	0.83901	0.89157	0.16099	0.709
Mof_O 	O 	0.8277	0.9368	0.1723	-0.219
Mof_O 	O 	0.807	0.9155	0.193	-0.272
Mof_Cu	Cu	0.8243	0.8744	0.1757	0.702
Mof_Cu	Cu	0.83901	0.39157	0.66099	0.708
Mof_O 	O 	0.8277	0.4368	0.6723	-0.22
Mof_O 	O 	0.807	0.4155	0.693	-0.272
Mof_Cu	Cu	0.8243	0.3744	0.6757	0.702
Mof_Cu	Cu	0.33901	0.10843	0.33901	0.708
Mof_O 	O 	0.3277	0.0632	0.3277	-0.221
Mof_O 	O 	0.307	0.0845	0.307	-0.272
Mof_Cu	Cu	0.3243	0.1256	0.3243	0.702
Mof_Cu	Cu	0.33901	0.60843	0.83901	0.708
Mof_O 	O 	0.3277	0.5632	0.8277	-0.22
Mof_O 	O 	0.307	0.5845	0.807	-0.272
Mof_Cu	Cu	0.3243	0.6256	0.8243	0.702
Mof_Cu	Cu	0.83901	0.10843	0.83901	0.708
Mof_O 	O 	0.8277	0.0632	0.8277	-0.221
Mof_O 	O 	0.807	0.0845	0.807	-0.272
Mof_Cu	Cu	0.8243	0.1256	0.8243	0.702
Mof_Cu	Cu	0.83901	0.60843	0.33901	0.708
Mof_O 	O 	0.8277	0.5632	0.3277	-0.22
Mof_O 	O 	0.807	0.5845	0.307	-0.272
Mof_Cu	Cu	0.8243	0.6256	0.3243	0.702
Mof_Cu	Cu	0.66099	0.89157	0.33901	0.709
Mof_O 	O 	0.6723	0.9368	0.3277	-0.219
Mof_O 	O 	0.693	0.9155	0.307	-0.272
Mof_Cu	Cu	0.6757	0.8744	0.3243	0.702
Mof_Cu	Cu	0.66099	0.39157	0.83901	0.708
Mof_O 	O 	0.6723	0.4368	0.8277	-0.22
Mof_O 	O 	0.693	0.4155	0.807	-0.272
Mof_Cu	Cu	0.6757	0.3744	0.8243	0.702
Mof_Cu	Cu	0.16099	0.89157	0.83901	0.709
Mof_O 	O 	0.1723	0.9368	0.8277	-0.219
Mof_O 	O 	0.193	0.9155	0.807	-0.272
Mof_Cu	Cu	0.1757	0.8744	0.8243	0.702
Mof_Cu	Cu	0.16099	0.39157	0.33901	0.708
Mof_O 	O 	0.1723	0.4368	0.3277	-0.22
Mof_O 	O 	0.193	0.4155	0.307	-0.272
Mof_Cu	Cu	0.1757	0.3744	0.3243	0.702
Mof_Cu	Cu	0.66099	0.10843	0.66099	0.708
Mof_O 	O 	0.6723	0.0632	0.6723	-0.221
Mof_O 	O 	0.693	0.0845	0.693	-0.272
Mof_Cu	Cu	0.6757	0.1256	0.6757	0.702
Mof_Cu	Cu	0.66099	0.60843	0.16099	0.708
Mof_O 	O 	0.6723	0.5632	0.1723	-0.22
Mof_O 	O 	0.693	0.5845	0.193	-0.272
Mof_Cu	Cu	0.6757	0.6256	0.1757	0.702
Mof_Cu	Cu	0.16099	0.10843	0.16099	0.708
Mof_O 	O 	0.1723	0.0632	0.1723	-0.221
Mof_O 	O 	0.193	0.0845	0.193	-0.272
Mof_Cu	Cu	0.1757	0.1256	0.1757	0.702
Mof_Cu	Cu	0.16099	0.60843	0.66099	0.708
Mof_O 	O 	0.1723	0.5632	0.6723	-0.22
Mof_O 	O 	0.193	0.5845	0.693	-0.272
Mof_Cu	Cu	0.1757	0.6256	0.6757	0.702
Mof_O 	O 	0.3582	0.8582	0.3582	-0.646
Mof_O 	O 	0.3346	0.8346	0.3346	-0.597
Mof_O 	O 	0.6418	0.1418	0.3582	-0.646
Mof_O 	O 	0.6654	0.1654	0.3346	-0.597
Mof_O 	O 	0.1418	0.1418	0.8582	-0.646
Mof_O 	O 	0.1654	0.1654	0.8346	-0.597
Mof_O 	O 	0.6418	0.8582	0.6418	-0.646
Mof_O 	O 	0.6654	0.8346	0.6654	-0.597
Mof_O 	O 	0.6418	0.3582	0.1418	-0.646
Mof_O 	O 	0.6654	0.3346	0.1654	-0.597
Mof_O 	O 	0.1418	0.3582	0.6418	-0.646
Mof_O 	O 	0.1654	0.3346	0.6654	-0.597
Mof_O 	O 	0.3582	0.1418	0.6418	-0.646
Mof_O 	O 	0.3346	0.1654	0.6654	-0.597
Mof_O 	O 	0.3582	0.3582	0.8582	-0.646
Mof_O 	O 	0.3346	0.3346	0.8346	-0.597
Mof_O 	O 	0.3582	0.6418	0.1418	-0.646
Mof_O 	O 	0.3346	0.6654	0.1654	-0.597
Mof_O 	O 	0.6418	0.6418	0.8582	-0.646
Mof_O 	O 	0.6654	0.6654	0.8346	-0.597
Mof_O 	O 	0.1418	0.6418	0.3582	-0.646
Mof_O 	O 	0.1654	0.6654	0.3346	-0.597
Mof_O 	O 	0.1418	0.8582	0.1418	-0.646
Mof_O 	O 	0.1654	0.8346	0.1654	-0.597
Mof_O 	O 	0.8582	0.3582	0.3582	-0.646
Mof_O 	O 	0.8346	0.3346	0.3346	-0.597
Mof_O 	O 	0.8582	0.8582	0.8582	-0.645
Mof_O 	O 	0.8346	0.8346	0.8346	-0.597
Mof_O 	O 	0.8582	0.6418	0.6418	-0.646
Mof_O 	O 	0.8346	0.6654	0.6654	-0.597
Mof_O 	O 	0.8582	0.1418	0.1418	-0.646
Mof_O 	O 	0.8346	0.1654	0.1654	-0.597
Mof_O 	O 	0.8582	0.3582	0.6418	-0.646
Mof_O 	O 	0.8346	0.3346	0.6654	-0.597
Mof_O 	O 	0.8582	0.8582	0.1418	-0.646
Mof_O 	O 	0.8346	0.8346	0.1654	-0.597
Mof_O 	O 	0.3582	0.3582	0.1418	-0.646
Mof_O 	O 	0.3346	0.3346	0.1654	-0.597
Mof_O 	O 	0.1418	0.6418	0.6418	-0.646
Mof_O 	O 	0.1654	0.6654	0.6654	-0.597
Mof_O 	O 	0.1418	0.1418	0.1418	-0.646
Mof_O 	O 	0.1654	0.1654	0.1654	-0.597
Mof_O 	O 	0.8582	0.6418	0.3582	-0.646
Mof_O 	O 	0.8346	0.6654	0.3346	-0.597
Mof_O 	O 	0.8582	0.1418	0.8582	-0.646
Mof_O 	O 	0.8346	0.1654	0.8346	-0.597
Mof_O 	O 	0.3582	0.1418	0.3582	-0.646
Mof_O 	O 	0.3346	0.1654	0.3346	-0.597
Mof_O 	O 	0.1418	0.3582	0.3582	-0.646
Mof_O 	O 	0.1654	0.3346	0.3346	-0.597
Mof_O 	O 	0.1418	0.8582	0.8582	-0.646
Mof_O 	O 	0.1654	0.8346	0.8346	-0.597
Mof_O 	O 	0.6418	0.3582	0.8582	-0.646
Mof_O 	O 	0.6654	0.3346	0.8346	-0.597
Mof_O 	O 	0.6418	0.6418	0.1418	-0.646
Mof_O 	O 	0.6654	0.6654	0.1654	-0.597
Mof_O 	O 	0.3582	0.6418	0.8582	-0.646
Mof_O 	O 	0.3346	0.6654	0.8346	-0.597
Mof_O 	O 	0.3582	0.8582	0.6418	-0.646
Mof_O 	O 	0.3346	0.8346	0.6654	-0.597
Mof_O 	O 	0.6418	0.8582	0.3582	-0.646
Mof_O 	O 	0.6654	0.8346	0.3346	-0.597
Mof_O 	O 	0.6418	0.1418	0.6418	-0.646
Mof_O 	O 	0.6654	0.1654	0.6654	-0.597
Mof_O 	O 	0.40798	0.0072	0.09202	-0.117
Mof_O 	O 	0.40798	0.5072	0.59202	-0.088
Mof_O 	O 	0.59202	0.9928	0.09202	-0.06
Mof_O 	O 	0.59202	0.4928	0.59202	-0.088
Mof_O 	O 	0.09202	0.4928	0.09202	-0.089
Mof_O 	O 	0.59202	0.0072	0.90798	-0.117
Mof_O 	O 	0.59202	0.5072	0.40798	-0.088
Mof_O 	O 	0.09202	0.0072	0.40798	-0.117
Mof_O 	O 	0.40798	0.9928	0.90798	-0.059
Mof_O 	O 	0.40798	0.4928	0.40798	-0.088
Mof_O 	O 	0.09202	0.40798	0.0072	-0.117
Mof_O 	O 	0.09202	0.90798	0.5072	-0.088
Mof_O 	O 	0.09202	0.59202	0.9928	-0.06
Mof_O 	O 	0.09202	0.09202	0.4928	-0.089
Mof_O 	O 	0.90798	0.59202	0.0072	-0.117
Mof_O 	O 	0.90798	0.09202	0.5072	-0.088
Mof_O 	O 	0.40798	0.09202	0.0072	-0.117
Mof_O 	O 	0.90798	0.40798	0.9928	-0.059
Mof_O 	O 	0.90798	0.90798	0.4928	-0.088
Mof_O 	O 	0.40798	0.40798	0.4928	-0.088
Mof_O 	O 	0.0072	0.09202	0.40798	-0.117
Mof_O 	O 	0.5072	0.09202	0.90798	-0.088
Mof_O 	O 	0.9928	0.09202	0.59202	-0.06
Mof_O 	O 	0.4928	0.09202	0.09202	-0.089
Mof_O 	O 	0.0072	0.90798	0.59202	-0.117
Mof_O 	O 	0.0072	0.40798	0.09202	-0.117
Mof_O 	O 	0.5072	0.90798	0.09202	-0.088
Mof_O 	O 	0.9928	0.90798	0.40798	-0.059
Mof_O 	O 	0.4928	0.90798	0.90798	-0.088
Mof_O 	O 	0.4928	0.40798	0.40798	-0.088
Mof_O 	O 	0.0072	0.40798	0.90798	-0.117
Mof_O 	O 	0.5072	0.40798	0.40798	-0.088
Mof_O 	O 	0.9928	0.59202	0.90798	-0.059
Mof_O 	O 	0.9928	0.09202	0.40798	-0.06
Mof_O 	O 	0.4928	0.59202	0.40798	-0.088
Mof_O 	O 	0.0072	0.59202	0.09202	-0.117
Mof_O 	O 	0.5072	0.59202	0.59202	-0.088
Mof_O 	O 	0.5072	0.09202	0.09202	-0.089
Mof_O 	O 	0.9928	0.40798	0.09202	-0.06
Mof_O 	O 	0.4928	0.40798	0.59202	-0.088
Mof_O 	O 	0.40798	0.09202	0.9928	-0.06
Mof_O 	O 	0.40798	0.59202	0.4928	-0.088
Mof_O 	O 	0.59202	0.09202	0.0072	-0.117
Mof_O 	O 	0.59202	0.59202	0.5072	-0.088
Mof_O 	O 	0.09202	0.09202	0.5072	-0.089
Mof_O 	O 	0.59202	0.90798	0.9928	-0.059
Mof_O 	O 	0.59202	0.40798	0.4928	-0.088
Mof_O 	O 	0.09202	0.40798	0.9928	-0.06
Mof_O 	O 	0.40798	0.90798	0.0072	-0.117
Mof_O 	O 	0.40798	0.40798	0.5072	-0.088
Mof_O 	O 	0.09202	0.0072	0.59202	-0.117
Mof_O 	O 	0.09202	0.5072	0.09202	-0.089
Mof_O 	O 	0.09202	0.9928	0.40798	-0.06
Mof_O 	O 	0.09202	0.4928	0.90798	-0.088
Mof_O 	O 	0.90798	0.0072	0.40798	-0.117
Mof_O 	O 	0.90798	0.5072	0.90798	-0.088
Mof_O 	O 	0.40798	0.5072	0.40798	-0.088
Mof_O 	O 	0.90798	0.9928	0.59202	-0.059
Mof_O 	O 	0.90798	0.4928	0.09202	-0.088
Mof_O 	O 	0.40798	0.9928	0.09202	-0.06
Mof_O 	O 	0.59202	0.9928	0.90798	-0.059
Mof_O 	O 	0.59202	0.4928	0.40798	-0.088
Mof_O 	O 	0.40798	0.0072	0.90798	-0.117
Mof_O 	O 	0.40798	0.4928	0.59202	-0.088
Mof_O 	O 	0.59202	0.0072	0.09202	-0.117
Mof_O 	O 	0.59202	0.5072	0.59202	-0.088
Mof_O 	O 	0.90798	0.59202	0.9928	-0.059
Mof_O 	O 	0.90798	0.09202	0.4928	-0.088
Mof_O 	O 	0.90798	0.40798	0.0072	-0.117
Mof_O 	O 	0.90798	0.90798	0.5072	-0.088
Mof_O 	O 	0.09202	0.90798	0.4928	-0.088
Mof_O 	O 	0.09202	0.59202	0.0072	-0.117
Mof_O 	O 	0.9928	0.90798	0.59202	-0.059
Mof_O 	O 	0.4928	0.90798	0.09202	-0.088
Mof_O 	O 	0.0072	0.90798	0.40798	-0.117
Mof_O 	O 	0.5072	0.90798	0.90798	-0.088
Mof_O 	O 	0.4928	0.09202	0.90798	-0.088
Mof_O 	O 	0.0072	0.09202	0.59202	-0.117
Mof_O 	O 	0.9928	0.59202	0.09202	-0.06
Mof_O 	O 	0.4928	0.59202	0.59202	-0.088
Mof_O 	O 	0.5072	0.40798	0.59202	-0.088
Mof_O 	O 	0.9928	0.40798	0.90798	-0.059
Mof_O 	O 	0.0072	0.59202	0.90798	-0.117
Mof_O 	O 	0.5072	0.59202	0.40798	-0.088
Mof_O 	O 	0.59202	0.90798	0.0072	-0.117
Mof_O 	O 	0.59202	0.40798	0.5072	-0.088
Mof_O 	O 	0.40798	0.90798	0.9928	-0.059
Mof_O 	O 	0.40798	0.59202	0.5072	-0.088
Mof_O 	O 	0.59202	0.09202	0.9928	-0.06
Mof_O 	O 	0.59202	0.59202	0.4928	-0.088
Mof_O 	O 	0.90798	0.9928	0.40798	-0.059
Mof_O 	O 	0.90798	0.4928	0.90798	-0.088
Mof_O 	O 	0.90798	0.0072	0.59202	-0.117
Mof_O 	O 	0.90798	0.5072	0.09202	-0.088
Mof_O 	O 	0.09202	0.9928	0.59202	-0.06
Mof_O 	O 	0.09202	0.5072	0.90798	-0.088
_end
