data_functionalizedCrystal
_audit_creation_method	'EQeq! by Chris Wilmer'
_symmetry_space_group_name_H-M	'P1'
_symmetry_Int_Tables_number	1
_symmetry_cell_setting	triclinic
loop_
_symmetry_equiv_pos_as_xyz
  x,y,z
_cell_length_a	17.037
_cell_length_b	19.255
_cell_length_c	29.997
_cell_angle_alpha	90
_cell_angle_beta	90.922
_cell_angle_gamma	90
loop_
_atom_site_label
_atom_site_type_symbol
_atom_site_fract_x
_atom_site_fract_y
_atom_site_fract_z
_atom_site_charge
Mof_Cd	Cd	0.12346	0.87077	0.1258	0.346
Mof_Cd	Cd	0.62858	0.6198	0.12421	0.349
Mof_F 	F 	0.79233	0.16675	0.18619	-0.389
Mof_F 	F 	0.90762	0.18418	0.04536	-0.414
Mof_F 	F 	0.83387	0.29779	0.20389	-0.414
Mof_F 	F 	0.94892	0.31498	0.0629	-0.388
Mof_F 	F 	0.42966	0.15439	0.05996	-0.394
Mof_F 	F 	0.35996	0.19889	0.20849	-0.409
Mof_F 	F 	0.39724	0.28592	0.03861	-0.412
Mof_F 	F 	0.32787	0.33029	0.18723	-0.395
Mof_F 	F 	0.24622	0.51107	0.15541	-0.401
Mof_F 	F 	0.34569	0.57985	0.29608	-0.374
Mof_F 	F 	0.16644	0.40932	0.19348	-0.373
Mof_F 	F 	0.26615	0.47753	0.33398	-0.395
Mof_F 	F 	0.91316	0.58988	0.95053	-0.375
Mof_F 	F 	0.99497	0.49167	0.91013	-0.402
Mof_F 	F 	0.51423	0.97366	0.08827	-0.394
Mof_F 	F 	0.58897	0.08132	0.05414	-0.377
Mof_N 	N 	0.02453	0.9577	0.11616	-0.17
Mof_N 	N 	0.724	0.53062	0.13423	-0.17
Mof_N 	N 	0.22101	0.95509	0.13655	-0.184
Mof_N 	N 	0.53406	0.53165	0.111	-0.173
Mof_N 	N 	0.2054	0.78009	0.15632	-0.168
Mof_N 	N 	0.29481	0.20584	0.33843	-0.169
Mof_N 	N 	0.0439	0.7809	0.09439	-0.168
Mof_N 	N 	0.55053	0.70729	0.08866	-0.17
Mof_C 	C 	0.003	0.99791	0.14999	0.131
Mof_H 	H 	0.0326	0.9952	0.1771	-0.001
Mof_C 	C 	0.98283	0.96447	0.07778	0.119
Mof_H 	H 	0.9978	0.9375	0.0528	0.005
Mof_C 	C 	0.9407	0.04305	0.14806	-0.212
Mof_H 	H 	0.9282	0.0704	0.1733	0.143
Mof_C 	C 	0.91946	0.00874	0.07299	-0.197
Mof_H 	H 	0.8921	0.0119	0.0452	0.124
Mof_C 	C 	0.89588	0.04869	0.10905	0.229
Mof_C 	C 	0.82569	0.09737	0.10492	-0.24
Mof_H 	H 	0.8036	0.0947	0.0742	0.156
Mof_H 	H 	0.7846	0.0822	0.1257	0.2
Mof_C 	C 	0.84808	0.17095	0.11507	-0.024
Mof_C 	C 	0.83082	0.20282	0.15503	0.219
Mof_C 	C 	0.88873	0.21157	0.08513	0.218
Mof_C 	C 	0.85213	0.27006	0.16385	0.212
Mof_C 	C 	0.90979	0.2787	0.09398	0.213
Mof_C 	C 	0.89247	0.3106	0.13421	-0.022
Mof_C 	C 	0.91596	0.38429	0.14467	-0.24
Mof_H 	H 	0.9571	0.3991	0.1238	0.2
Mof_H 	H 	0.9386	0.3863	0.1753	0.154
Mof_C 	C 	0.84695	0.4343	0.14115	0.231
Mof_C 	C 	0.82378	0.47303	0.17769	-0.203
Mof_H 	H 	0.8492	0.4669	0.2058	0.125
Mof_C 	C 	0.80501	0.44324	0.10145	-0.212
Mof_H 	H 	0.8178	0.4167	0.0759	0.143
Mof_C 	C 	0.7637	0.52047	0.17286	0.121
Mof_H 	H 	0.7496	0.5474	0.198	0.007
Mof_C 	C 	0.74489	0.4908	0.09949	0.127
Mof_H 	H 	0.7166	0.4958	0.0721	-0
Mof_C 	C 	0.2315	0.0052	0.10772	0.154
Mof_H 	H 	0.1945	0.0091	0.0838	-0.006
Mof_C 	C 	0.2712	0.9553	0.17049	0.141
Mof_H 	H 	0.2645	0.9214	0.1931	-0.004
Mof_C 	C 	0.3332	0.0016	0.17559	-0.23
Mof_H 	H 	0.3664	0.9996	0.2013	0.132
Mof_C 	C 	0.2918	0.0526	0.1093	-0.241
Mof_H 	H 	0.2957	0.0871	0.0868	0.155
Mof_C 	C 	0.34604	0.05001	0.14328	0.257
Mof_C 	C 	0.41606	0.09846	0.14749	-0.256
Mof_H 	H 	0.4362	0.0974	0.1786	0.163
Mof_H 	H 	0.4583	0.0814	0.128	0.201
Mof_C 	C 	0.3965	0.1723	0.13498	-0.022
Mof_C 	C 	0.40402	0.19742	0.09203	0.213
Mof_C 	C 	0.36991	0.21898	0.16629	0.225
Mof_C 	C 	0.38816	0.26541	0.08082	0.229
Mof_C 	C 	0.35337	0.2869	0.1551	0.217
Mof_C 	C 	0.36189	0.31209	0.11219	-0.029
Mof_C 	C 	0.34211	0.38651	0.09975	-0.241
Mof_H 	H 	0.3214	0.3876	0.0687	0.155
Mof_H 	H 	0.3002	0.4035	0.1195	0.196
Mof_C 	C 	0.41182	0.43491	0.10349	0.235
Mof_C 	C 	0.4576	0.4401	0.14211	-0.22
Mof_H 	H 	0.4478	0.4106	0.1668	0.153
Mof_C 	C 	0.43135	0.47811	0.06859	-0.214
Mof_H 	H 	0.4032	0.4751	0.0411	0.124
Mof_C 	C 	0.5169	0.48795	0.14434	0.134
Mof_H 	H 	0.5478	0.4904	0.171	-0.001
Mof_C 	C 	0.49132	0.52545	0.07342	0.127
Mof_H 	H 	0.5029	0.555	0.049	0.002
Mof_C 	C 	0.23185	0.77564	0.19819	0.129
Mof_H 	H 	0.219	0.812	0.2182	0.035
Mof_C 	C 	0.22445	0.72833	0.12893	0.117
Mof_H 	H 	0.2064	0.7305	0.0988	0.009
Mof_C 	C 	0.27697	0.72122	0.21423	-0.189
Mof_H 	H 	0.2945	0.7208	0.2444	0.168
Mof_C 	C 	0.26929	0.67145	0.14205	-0.19
Mof_H 	H 	0.2812	0.6359	0.1212	0.136
Mof_C 	C 	0.2965	0.66689	0.18565	0.195
Mof_C 	C 	0.3459	0.60578	0.20156	-0.177
Mof_H 	H 	0.3866	0.6229	0.2227	0.127
Mof_H 	H 	0.373	0.5855	0.1757	0.109
Mof_C 	C 	0.2989	0.54907	0.2242	-0.05
Mof_C 	C 	0.2523	0.5035	0.20001	0.232
Mof_C 	C 	0.30122	0.53852	0.26969	0.241
Mof_C 	C 	0.2111	0.45056	0.21978	0.237
Mof_C 	C 	0.26036	0.48534	0.28925	0.218
Mof_C 	C 	0.21336	0.43949	0.26512	-0.043
Mof_C 	C 	0.16673	0.38254	0.28758	-0.188
Mof_H 	H 	0.14	0.4029	0.3136	0.115
Mof_H 	H 	0.1254	0.3664	0.2664	0.133
Mof_C 	C 	0.21318	0.32042	0.30323	0.212
Mof_C 	C 	0.17441	0.26601	0.32354	-0.204
Mof_H 	H 	0.1188	0.2666	0.3255	0.109
Mof_C 	C 	0.2932	0.31434	0.29979	-0.174
Mof_H 	H 	0.3223	0.3495	0.2852	0.154
Mof_C 	C 	0.21679	0.21112	0.34082	0.133
Mof_H 	H 	0.189	0.175	0.3552	-0.007
Mof_C 	C 	0.33142	0.25707	0.31747	0.144
Mof_H 	H 	0.3867	0.2541	0.3145	0.015
Mof_C 	C 	0.01632	0.77861	0.05247	0.129
Mof_H 	H 	0.0276	0.8164	0.0332	0.035
Mof_C 	C 	0.02635	0.72708	0.12063	0.121
Mof_H 	H 	0.0444	0.7278	0.1508	0.007
Mof_C 	C 	0.97193	0.72374	0.03563	-0.193
Mof_H 	H 	0.9533	0.7247	0.0056	0.167
Mof_C 	C 	0.9833	0.67058	0.10611	-0.198
Mof_H 	H 	0.973	0.6334	0.126	0.139
Mof_C 	C 	0.95508	0.66799	0.06262	0.201
Mof_C 	C 	0.90738	0.60695	0.04568	-0.18
Mof_H 	H 	0.8659	0.6242	0.025	0.125
Mof_H 	H 	0.8812	0.5846	0.0712	0.109
Mof_C 	C 	0.95623	0.55287	0.02178	-0.051
Mof_C 	C 	0.9562	0.54638	0.97598	0.239
Mof_C 	C 	0.99907	0.49495	0.95495	0.229
Mof_C 	C 	0.47215	0.70938	0.08986	0.134
Mof_H 	H 	0.4453	0.6716	0.1031	-0.008
Mof_C 	C 	0.58533	0.76075	0.06907	0.148
Mof_H 	H 	0.6409	0.7599	0.0669	0.013
Mof_C 	C 	0.42851	0.76361	0.07287	-0.205
Mof_H 	H 	0.3729	0.7623	0.0742	0.11
Mof_C 	C 	0.54583	0.81719	0.05168	-0.173
Mof_H 	H 	0.5741	0.854	0.0383	0.156
Mof_C 	C 	0.4653	0.82004	0.05382	0.213
Mof_C 	C 	0.41572	0.88163	0.0387	-0.185
Mof_H 	H 	0.3764	0.865	0.0166	0.135
Mof_H 	H 	0.3868	0.8993	0.0647	0.115
Mof_C 	C 	0.4601	0.94155	0.01838	-0.044
Mof_C 	C 	0.5062	0.98572	0.04404	0.219
Mof_C 	C 	0.54515	0.04211	0.02644	0.247
Mof_Cd	Cd	0.87654	0.37077	0.3742	0.347
Mof_Cd	Cd	0.37142	0.1198	0.37579	0.35
Mof_F 	F 	0.20767	0.66675	0.31381	-0.388
Mof_F 	F 	0.09238	0.68418	0.45464	-0.413
Mof_F 	F 	0.16613	0.79779	0.29611	-0.413
Mof_F 	F 	0.05108	0.81498	0.4371	-0.387
Mof_F 	F 	0.57034	0.65439	0.44004	-0.393
Mof_F 	F 	0.64004	0.69889	0.29151	-0.408
Mof_F 	F 	0.60276	0.78592	0.46139	-0.411
Mof_F 	F 	0.67213	0.83029	0.31277	-0.394
Mof_F 	F 	0.75378	0.01107	0.34459	-0.401
Mof_F 	F 	0.65431	0.07985	0.20392	-0.374
Mof_F 	F 	0.83356	0.90932	0.30652	-0.373
Mof_F 	F 	0.73385	0.97753	0.16602	-0.395
Mof_F 	F 	0.08684	0.08988	0.54947	-0.375
Mof_F 	F 	0.00503	0.99167	0.58987	-0.402
Mof_F 	F 	0.48577	0.47366	0.41173	-0.394
Mof_F 	F 	0.41103	0.58132	0.44586	-0.377
Mof_N 	N 	0.97547	0.4577	0.38384	-0.171
Mof_N 	N 	0.276	0.03062	0.36577	-0.17
Mof_N 	N 	0.77899	0.45509	0.36345	-0.184
Mof_N 	N 	0.46594	0.03165	0.389	-0.173
Mof_N 	N 	0.7946	0.28009	0.34368	-0.168
Mof_N 	N 	0.70519	0.70584	0.16157	-0.169
Mof_N 	N 	0.9561	0.2809	0.40561	-0.168
Mof_N 	N 	0.44947	0.20729	0.41134	-0.17
Mof_C 	C 	0.997	0.49791	0.35001	0.132
Mof_H 	H 	0.9674	0.4952	0.3229	-0.002
Mof_C 	C 	0.01717	0.46447	0.42222	0.121
Mof_H 	H 	0.0022	0.4375	0.4472	0.004
Mof_C 	C 	0.0593	0.54305	0.35194	-0.214
Mof_H 	H 	0.0718	0.5704	0.3267	0.143
Mof_C 	C 	0.08054	0.50874	0.42701	-0.199
Mof_H 	H 	0.1079	0.5119	0.4548	0.124
Mof_C 	C 	0.10412	0.54869	0.39095	0.23
Mof_C 	C 	0.17431	0.59737	0.39508	-0.24
Mof_H 	H 	0.1964	0.5947	0.4258	0.156
Mof_H 	H 	0.2154	0.5822	0.3743	0.201
Mof_C 	C 	0.15192	0.67095	0.38493	-0.024
Mof_C 	C 	0.16918	0.70282	0.34497	0.219
Mof_C 	C 	0.11127	0.71157	0.41487	0.218
Mof_C 	C 	0.14787	0.77006	0.33615	0.212
Mof_C 	C 	0.09021	0.7787	0.40602	0.213
Mof_C 	C 	0.10753	0.8106	0.36579	-0.022
Mof_C 	C 	0.08404	0.88429	0.35533	-0.24
Mof_H 	H 	0.0429	0.8991	0.3762	0.2
Mof_H 	H 	0.0614	0.8863	0.3247	0.154
Mof_C 	C 	0.15305	0.9343	0.35885	0.231
Mof_C 	C 	0.17622	0.97303	0.32231	-0.203
Mof_H 	H 	0.1508	0.9669	0.2942	0.125
Mof_C 	C 	0.19499	0.94324	0.39855	-0.212
Mof_H 	H 	0.1822	0.9167	0.4241	0.143
Mof_C 	C 	0.2363	0.02047	0.32714	0.121
Mof_H 	H 	0.2504	0.0474	0.302	0.007
Mof_C 	C 	0.25511	0.9908	0.40051	0.127
Mof_H 	H 	0.2834	0.9958	0.4279	-0
Mof_C 	C 	0.7685	0.5052	0.39228	0.153
Mof_H 	H 	0.8055	0.5091	0.4162	-0.006
Mof_C 	C 	0.7288	0.4553	0.32951	0.143
Mof_H 	H 	0.7355	0.4214	0.3069	-0.005
Mof_C 	C 	0.6668	0.5016	0.32441	-0.232
Mof_H 	H 	0.6336	0.4996	0.2987	0.133
Mof_C 	C 	0.7082	0.5526	0.3907	-0.241
Mof_H 	H 	0.7043	0.5871	0.4132	0.155
Mof_C 	C 	0.65396	0.55001	0.35672	0.257
Mof_C 	C 	0.58394	0.59846	0.35251	-0.256
Mof_H 	H 	0.5638	0.5974	0.3214	0.163
Mof_H 	H 	0.5417	0.5814	0.372	0.201
Mof_C 	C 	0.6035	0.6723	0.36502	-0.022
Mof_C 	C 	0.59598	0.69742	0.40797	0.213
Mof_C 	C 	0.63009	0.71898	0.33371	0.225
Mof_C 	C 	0.61184	0.76541	0.41918	0.229
Mof_C 	C 	0.64663	0.7869	0.3449	0.217
Mof_C 	C 	0.63811	0.81209	0.38781	-0.029
Mof_C 	C 	0.65789	0.88651	0.40025	-0.241
Mof_H 	H 	0.6786	0.8876	0.4313	0.155
Mof_H 	H 	0.6998	0.9035	0.3805	0.196
Mof_C 	C 	0.58818	0.93491	0.39651	0.235
Mof_C 	C 	0.5424	0.9401	0.35789	-0.22
Mof_H 	H 	0.5522	0.9106	0.3332	0.153
Mof_C 	C 	0.56865	0.97811	0.43141	-0.214
Mof_H 	H 	0.5968	0.9751	0.4589	0.124
Mof_C 	C 	0.4831	0.98795	0.35566	0.134
Mof_H 	H 	0.4522	0.9904	0.329	-0.001
Mof_C 	C 	0.50868	0.02545	0.42658	0.128
Mof_H 	H 	0.4971	0.055	0.451	0.002
Mof_C 	C 	0.76815	0.27564	0.30181	0.129
Mof_H 	H 	0.781	0.312	0.2818	0.035
Mof_C 	C 	0.77555	0.22833	0.37107	0.117
Mof_H 	H 	0.7936	0.2305	0.4012	0.009
Mof_C 	C 	0.72303	0.22122	0.28577	-0.189
Mof_H 	H 	0.7055	0.2208	0.2556	0.168
Mof_C 	C 	0.73071	0.17145	0.35795	-0.19
Mof_H 	H 	0.7188	0.1359	0.3788	0.136
Mof_C 	C 	0.7035	0.16689	0.31435	0.195
Mof_C 	C 	0.6541	0.10578	0.29844	-0.176
Mof_H 	H 	0.6134	0.1229	0.2773	0.127
Mof_H 	H 	0.627	0.0855	0.3243	0.109
Mof_C 	C 	0.7011	0.04907	0.2758	-0.051
Mof_C 	C 	0.7477	0.0035	0.29999	0.233
Mof_C 	C 	0.69878	0.03852	0.23031	0.242
Mof_C 	C 	0.7889	0.95056	0.28022	0.236
Mof_C 	C 	0.73964	0.98534	0.21075	0.217
Mof_C 	C 	0.78664	0.93949	0.23488	-0.043
Mof_C 	C 	0.83327	0.88254	0.21242	-0.188
Mof_H 	H 	0.86	0.9029	0.1864	0.115
Mof_H 	H 	0.8746	0.8664	0.2336	0.133
Mof_C 	C 	0.78682	0.82042	0.19677	0.212
Mof_C 	C 	0.82559	0.76601	0.17646	-0.204
Mof_H 	H 	0.8812	0.7666	0.1745	0.109
Mof_C 	C 	0.7068	0.81434	0.20021	-0.174
Mof_H 	H 	0.6777	0.8495	0.2148	0.154
Mof_C 	C 	0.78321	0.71112	0.15918	0.133
Mof_H 	H 	0.811	0.675	0.1448	-0.007
Mof_C 	C 	0.66858	0.75707	0.18253	0.144
Mof_H 	H 	0.6133	0.7541	0.1855	0.015
Mof_C 	C 	0.98368	0.27861	0.44753	0.129
Mof_H 	H 	0.9724	0.3164	0.4668	0.035
Mof_C 	C 	0.97365	0.22708	0.37937	0.122
Mof_H 	H 	0.9556	0.2278	0.3492	0.007
Mof_C 	C 	0.02807	0.22374	0.46437	-0.193
Mof_H 	H 	0.0467	0.2247	0.4944	0.167
Mof_C 	C 	0.0167	0.17058	0.39389	-0.198
Mof_H 	H 	0.027	0.1334	0.374	0.139
Mof_C 	C 	0.04492	0.16799	0.43738	0.201
Mof_C 	C 	0.09262	0.10695	0.45432	-0.18
Mof_H 	H 	0.1341	0.1242	0.475	0.125
Mof_H 	H 	0.1188	0.0846	0.4288	0.109
Mof_C 	C 	0.04377	0.05287	0.47822	-0.051
Mof_C 	C 	0.0438	0.04638	0.52402	0.239
Mof_C 	C 	0.00093	0.99495	0.54505	0.23
Mof_C 	C 	0.52785	0.20938	0.41014	0.134
Mof_H 	H 	0.5547	0.1716	0.3969	-0.008
Mof_C 	C 	0.41467	0.26075	0.43093	0.148
Mof_H 	H 	0.3591	0.2599	0.4331	0.013
Mof_C 	C 	0.57149	0.26361	0.42713	-0.205
Mof_H 	H 	0.6271	0.2623	0.4258	0.11
Mof_C 	C 	0.45417	0.31719	0.44832	-0.173
Mof_H 	H 	0.4259	0.354	0.4617	0.156
Mof_C 	C 	0.5347	0.32004	0.44618	0.213
Mof_C 	C 	0.58428	0.38163	0.4613	-0.185
Mof_H 	H 	0.6236	0.365	0.4834	0.135
Mof_H 	H 	0.6132	0.3993	0.4353	0.115
Mof_C 	C 	0.5399	0.44155	0.48162	-0.043
Mof_C 	C 	0.4938	0.48572	0.45596	0.22
Mof_C 	C 	0.45485	0.54211	0.47356	0.246
Mof_Cd	Cd	0.87654	0.12923	0.8742	0.347
Mof_Cd	Cd	0.37142	0.3802	0.87579	0.35
Mof_F 	F 	0.20767	0.83325	0.81381	-0.388
Mof_F 	F 	0.09238	0.81582	0.95464	-0.413
Mof_F 	F 	0.16613	0.70221	0.79611	-0.413
Mof_F 	F 	0.05108	0.68502	0.9371	-0.387
Mof_F 	F 	0.57034	0.84561	0.94004	-0.393
Mof_F 	F 	0.64004	0.80111	0.79151	-0.408
Mof_F 	F 	0.60276	0.71408	0.96139	-0.411
Mof_F 	F 	0.67213	0.66971	0.81277	-0.394
Mof_F 	F 	0.75378	0.48893	0.84459	-0.401
Mof_F 	F 	0.65431	0.42015	0.70392	-0.374
Mof_F 	F 	0.83356	0.59068	0.80652	-0.373
Mof_F 	F 	0.73385	0.52247	0.66602	-0.395
Mof_F 	F 	0.08684	0.41012	0.04947	-0.375
Mof_F 	F 	0.00503	0.50833	0.08987	-0.402
Mof_F 	F 	0.48577	0.02634	0.91173	-0.394
Mof_F 	F 	0.41103	0.91868	0.94586	-0.377
Mof_N 	N 	0.97547	0.0423	0.88384	-0.17
Mof_N 	N 	0.276	0.46938	0.86577	-0.17
Mof_N 	N 	0.77899	0.04491	0.86345	-0.184
Mof_N 	N 	0.46594	0.46835	0.889	-0.173
Mof_N 	N 	0.7946	0.21991	0.84368	-0.168
Mof_N 	N 	0.70519	0.79416	0.66157	-0.169
Mof_N 	N 	0.9561	0.2191	0.90561	-0.168
Mof_N 	N 	0.44947	0.29271	0.91134	-0.17
Mof_C 	C 	0.997	0.00209	0.85001	0.131
Mof_H 	H 	0.9674	0.0048	0.8229	-0.001
Mof_C 	C 	0.01717	0.03553	0.92222	0.119
Mof_H 	H 	0.0022	0.0625	0.9472	0.005
Mof_C 	C 	0.0593	0.95695	0.85194	-0.212
Mof_H 	H 	0.0718	0.9296	0.8267	0.143
Mof_C 	C 	0.08054	0.99126	0.92701	-0.197
Mof_H 	H 	0.1079	0.9881	0.9548	0.124
Mof_C 	C 	0.10412	0.95131	0.89095	0.229
Mof_C 	C 	0.17431	0.90263	0.89508	-0.24
Mof_H 	H 	0.1964	0.9053	0.9258	0.156
Mof_H 	H 	0.2154	0.9178	0.8743	0.2
Mof_C 	C 	0.15192	0.82905	0.88493	-0.024
Mof_C 	C 	0.16918	0.79718	0.84497	0.219
Mof_C 	C 	0.11127	0.78843	0.91487	0.218
Mof_C 	C 	0.14787	0.72994	0.83615	0.212
Mof_C 	C 	0.09021	0.7213	0.90602	0.213
Mof_C 	C 	0.10753	0.6894	0.86579	-0.022
Mof_C 	C 	0.08404	0.61571	0.85533	-0.24
Mof_H 	H 	0.0429	0.6009	0.8762	0.2
Mof_H 	H 	0.0614	0.6137	0.8247	0.154
Mof_C 	C 	0.15305	0.5657	0.85885	0.231
Mof_C 	C 	0.17622	0.52697	0.82231	-0.203
Mof_H 	H 	0.1508	0.5331	0.7942	0.125
Mof_C 	C 	0.19499	0.55676	0.89855	-0.212
Mof_H 	H 	0.1822	0.5833	0.9241	0.143
Mof_C 	C 	0.2363	0.47953	0.82714	0.121
Mof_H 	H 	0.2504	0.4526	0.802	0.007
Mof_C 	C 	0.25511	0.5092	0.90051	0.127
Mof_H 	H 	0.2834	0.5042	0.9279	-0
Mof_C 	C 	0.7685	0.9948	0.89228	0.154
Mof_H 	H 	0.8055	0.9909	0.9162	-0.006
Mof_C 	C 	0.7288	0.0447	0.82951	0.141
Mof_H 	H 	0.7355	0.0786	0.8069	-0.004
Mof_C 	C 	0.6668	0.9984	0.82441	-0.23
Mof_H 	H 	0.6336	0.0004	0.7987	0.132
Mof_C 	C 	0.7082	0.9474	0.8907	-0.241
Mof_H 	H 	0.7043	0.9129	0.9132	0.155
Mof_C 	C 	0.65396	0.94999	0.85672	0.257
Mof_C 	C 	0.58394	0.90154	0.85251	-0.256
Mof_H 	H 	0.5638	0.9026	0.8214	0.163
Mof_H 	H 	0.5417	0.9186	0.872	0.201
Mof_C 	C 	0.6035	0.8277	0.86502	-0.022
Mof_C 	C 	0.59598	0.80258	0.90797	0.213
Mof_C 	C 	0.63009	0.78102	0.83371	0.225
Mof_C 	C 	0.61184	0.73459	0.91918	0.229
Mof_C 	C 	0.64663	0.7131	0.8449	0.217
Mof_C 	C 	0.63811	0.68791	0.88781	-0.029
Mof_C 	C 	0.65789	0.61349	0.90025	-0.241
Mof_H 	H 	0.6786	0.6124	0.9313	0.155
Mof_H 	H 	0.6998	0.5965	0.8805	0.196
Mof_C 	C 	0.58818	0.56509	0.89651	0.235
Mof_C 	C 	0.5424	0.5599	0.85789	-0.22
Mof_H 	H 	0.5522	0.5894	0.8332	0.153
Mof_C 	C 	0.56865	0.52189	0.93141	-0.214
Mof_H 	H 	0.5968	0.5249	0.9589	0.124
Mof_C 	C 	0.4831	0.51205	0.85566	0.134
Mof_H 	H 	0.4522	0.5096	0.829	-0.001
Mof_C 	C 	0.50868	0.47455	0.92658	0.127
Mof_H 	H 	0.4971	0.445	0.951	0.002
Mof_C 	C 	0.76815	0.22436	0.80181	0.129
Mof_H 	H 	0.781	0.188	0.7818	0.035
Mof_C 	C 	0.77555	0.27167	0.87107	0.117
Mof_H 	H 	0.7936	0.2695	0.9012	0.009
Mof_C 	C 	0.72303	0.27878	0.78577	-0.189
Mof_H 	H 	0.7055	0.2792	0.7556	0.168
Mof_C 	C 	0.73071	0.32855	0.85795	-0.19
Mof_H 	H 	0.7188	0.3641	0.8788	0.136
Mof_C 	C 	0.7035	0.33311	0.81435	0.195
Mof_C 	C 	0.6541	0.39422	0.79844	-0.177
Mof_H 	H 	0.6134	0.3771	0.7773	0.127
Mof_H 	H 	0.627	0.4145	0.8243	0.109
Mof_C 	C 	0.7011	0.45093	0.7758	-0.05
Mof_C 	C 	0.7477	0.4965	0.79999	0.232
Mof_C 	C 	0.69878	0.46148	0.73031	0.241
Mof_C 	C 	0.7889	0.54944	0.78022	0.237
Mof_C 	C 	0.73964	0.51466	0.71075	0.218
Mof_C 	C 	0.78664	0.56051	0.73488	-0.043
Mof_C 	C 	0.83327	0.61746	0.71242	-0.188
Mof_H 	H 	0.86	0.5971	0.6864	0.115
Mof_H 	H 	0.8746	0.6336	0.7336	0.133
Mof_C 	C 	0.78682	0.67958	0.69677	0.212
Mof_C 	C 	0.82559	0.73399	0.67646	-0.204
Mof_H 	H 	0.8812	0.7334	0.6745	0.109
Mof_C 	C 	0.7068	0.68566	0.70021	-0.174
Mof_H 	H 	0.6777	0.6505	0.7148	0.154
Mof_C 	C 	0.78321	0.78888	0.65918	0.133
Mof_H 	H 	0.811	0.825	0.6448	-0.007
Mof_C 	C 	0.66858	0.74293	0.68253	0.144
Mof_H 	H 	0.6133	0.7459	0.6855	0.015
Mof_C 	C 	0.98368	0.22139	0.94753	0.129
Mof_H 	H 	0.9724	0.1836	0.9668	0.035
Mof_C 	C 	0.97365	0.27292	0.87937	0.121
Mof_H 	H 	0.9556	0.2722	0.8492	0.007
Mof_C 	C 	0.02807	0.27626	0.96437	-0.193
Mof_H 	H 	0.0467	0.2753	0.9944	0.167
Mof_C 	C 	0.0167	0.32942	0.89389	-0.198
Mof_H 	H 	0.027	0.3666	0.874	0.139
Mof_C 	C 	0.04492	0.33201	0.93738	0.201
Mof_C 	C 	0.09262	0.39305	0.95432	-0.18
Mof_H 	H 	0.1341	0.3758	0.975	0.125
Mof_H 	H 	0.1188	0.4154	0.9288	0.109
Mof_C 	C 	0.04377	0.44713	0.97822	-0.051
Mof_C 	C 	0.0438	0.45362	0.02402	0.239
Mof_C 	C 	0.00093	0.50505	0.04505	0.229
Mof_C 	C 	0.52785	0.29062	0.91014	0.134
Mof_H 	H 	0.5547	0.3284	0.8969	-0.008
Mof_C 	C 	0.41467	0.23925	0.93093	0.148
Mof_H 	H 	0.3591	0.2401	0.9331	0.013
Mof_C 	C 	0.57149	0.23639	0.92713	-0.205
Mof_H 	H 	0.6271	0.2377	0.9258	0.11
Mof_C 	C 	0.45417	0.18281	0.94832	-0.173
Mof_H 	H 	0.4259	0.146	0.9617	0.156
Mof_C 	C 	0.5347	0.17996	0.94618	0.213
Mof_C 	C 	0.58428	0.11837	0.9613	-0.185
Mof_H 	H 	0.6236	0.135	0.9834	0.135
Mof_H 	H 	0.6132	0.1007	0.9353	0.115
Mof_C 	C 	0.5399	0.05845	0.98162	-0.044
Mof_C 	C 	0.4938	0.01428	0.95596	0.219
Mof_C 	C 	0.45485	0.95789	0.97356	0.247
Mof_Cd	Cd	0.12346	0.62923	0.6258	0.347
Mof_Cd	Cd	0.62858	0.8802	0.62421	0.35
Mof_F 	F 	0.79233	0.33325	0.68619	-0.388
Mof_F 	F 	0.90762	0.31582	0.54536	-0.413
Mof_F 	F 	0.83387	0.20221	0.70389	-0.413
Mof_F 	F 	0.94892	0.18502	0.5629	-0.387
Mof_F 	F 	0.42966	0.34561	0.55996	-0.393
Mof_F 	F 	0.35996	0.30111	0.70849	-0.408
Mof_F 	F 	0.39724	0.21408	0.53861	-0.411
Mof_F 	F 	0.32787	0.16971	0.68723	-0.394
Mof_F 	F 	0.24622	0.98893	0.65541	-0.401
Mof_F 	F 	0.34569	0.92015	0.79608	-0.374
Mof_F 	F 	0.16644	0.09068	0.69348	-0.373
Mof_F 	F 	0.26615	0.02247	0.83398	-0.395
Mof_F 	F 	0.91316	0.91012	0.45053	-0.375
Mof_F 	F 	0.99497	0.00833	0.41013	-0.402
Mof_F 	F 	0.51423	0.52634	0.58827	-0.394
Mof_F 	F 	0.58897	0.41868	0.55414	-0.377
Mof_N 	N 	0.02453	0.5423	0.61616	-0.171
Mof_N 	N 	0.724	0.96938	0.63423	-0.17
Mof_N 	N 	0.22101	0.54491	0.63655	-0.184
Mof_N 	N 	0.53406	0.96835	0.611	-0.173
Mof_N 	N 	0.2054	0.71991	0.65632	-0.168
Mof_N 	N 	0.29481	0.29416	0.83843	-0.169
Mof_N 	N 	0.0439	0.7191	0.59439	-0.168
Mof_N 	N 	0.55053	0.79271	0.58866	-0.17
Mof_C 	C 	0.003	0.50209	0.64999	0.132
Mof_H 	H 	0.0326	0.5048	0.6771	-0.002
Mof_C 	C 	0.98283	0.53553	0.57778	0.121
Mof_H 	H 	0.9978	0.5625	0.5528	0.004
Mof_C 	C 	0.9407	0.45695	0.64806	-0.214
Mof_H 	H 	0.9282	0.4296	0.6733	0.143
Mof_C 	C 	0.91946	0.49126	0.57299	-0.199
Mof_H 	H 	0.8921	0.4881	0.5452	0.124
Mof_C 	C 	0.89588	0.45131	0.60905	0.23
Mof_C 	C 	0.82569	0.40263	0.60492	-0.24
Mof_H 	H 	0.8036	0.4053	0.5742	0.156
Mof_H 	H 	0.7846	0.4178	0.6257	0.201
Mof_C 	C 	0.84808	0.32905	0.61507	-0.024
Mof_C 	C 	0.83082	0.29718	0.65503	0.219
Mof_C 	C 	0.88873	0.28843	0.58513	0.218
Mof_C 	C 	0.85213	0.22994	0.66385	0.212
Mof_C 	C 	0.90979	0.2213	0.59398	0.213
Mof_C 	C 	0.89247	0.1894	0.63421	-0.022
Mof_C 	C 	0.91596	0.11571	0.64467	-0.24
Mof_H 	H 	0.9571	0.1009	0.6238	0.2
Mof_H 	H 	0.9386	0.1137	0.6753	0.154
Mof_C 	C 	0.84695	0.0657	0.64115	0.231
Mof_C 	C 	0.82378	0.02697	0.67769	-0.203
Mof_H 	H 	0.8492	0.0331	0.7058	0.125
Mof_C 	C 	0.80501	0.05676	0.60145	-0.212
Mof_H 	H 	0.8178	0.0833	0.5759	0.143
Mof_C 	C 	0.7637	0.97953	0.67286	0.121
Mof_H 	H 	0.7496	0.9526	0.698	0.007
Mof_C 	C 	0.74489	0.0092	0.59949	0.127
Mof_H 	H 	0.7166	0.0042	0.5721	-0
Mof_C 	C 	0.2315	0.4948	0.60772	0.153
Mof_H 	H 	0.1945	0.4909	0.5838	-0.006
Mof_C 	C 	0.2712	0.5447	0.67049	0.143
Mof_H 	H 	0.2645	0.5786	0.6931	-0.005
Mof_C 	C 	0.3332	0.4984	0.67559	-0.232
Mof_H 	H 	0.3664	0.5004	0.7013	0.133
Mof_C 	C 	0.2918	0.4474	0.6093	-0.241
Mof_H 	H 	0.2957	0.4129	0.5868	0.155
Mof_C 	C 	0.34604	0.44999	0.64328	0.257
Mof_C 	C 	0.41606	0.40154	0.64749	-0.256
Mof_H 	H 	0.4362	0.4026	0.6786	0.163
Mof_H 	H 	0.4583	0.4186	0.628	0.201
Mof_C 	C 	0.3965	0.3277	0.63498	-0.022
Mof_C 	C 	0.40402	0.30258	0.59203	0.213
Mof_C 	C 	0.36991	0.28102	0.66629	0.225
Mof_C 	C 	0.38816	0.23459	0.58082	0.229
Mof_C 	C 	0.35337	0.2131	0.6551	0.217
Mof_C 	C 	0.36189	0.18791	0.61219	-0.029
Mof_C 	C 	0.34211	0.11349	0.59975	-0.241
Mof_H 	H 	0.3214	0.1124	0.5687	0.155
Mof_H 	H 	0.3002	0.0965	0.6195	0.196
Mof_C 	C 	0.41182	0.06509	0.60349	0.235
Mof_C 	C 	0.4576	0.0599	0.64211	-0.22
Mof_H 	H 	0.4478	0.0894	0.6668	0.153
Mof_C 	C 	0.43135	0.02189	0.56859	-0.214
Mof_H 	H 	0.4032	0.0249	0.5411	0.124
Mof_C 	C 	0.5169	0.01205	0.64434	0.134
Mof_H 	H 	0.5478	0.0096	0.671	-0.001
Mof_C 	C 	0.49132	0.97455	0.57342	0.128
Mof_H 	H 	0.5029	0.945	0.549	0.002
Mof_C 	C 	0.23185	0.72436	0.69819	0.129
Mof_H 	H 	0.219	0.688	0.7182	0.035
Mof_C 	C 	0.22445	0.77167	0.62893	0.117
Mof_H 	H 	0.2064	0.7695	0.5988	0.009
Mof_C 	C 	0.27697	0.77878	0.71423	-0.189
Mof_H 	H 	0.2945	0.7792	0.7444	0.168
Mof_C 	C 	0.26929	0.82855	0.64205	-0.19
Mof_H 	H 	0.2812	0.8641	0.6212	0.136
Mof_C 	C 	0.2965	0.83311	0.68565	0.195
Mof_C 	C 	0.3459	0.89422	0.70156	-0.176
Mof_H 	H 	0.3866	0.8771	0.7227	0.127
Mof_H 	H 	0.373	0.9145	0.6757	0.109
Mof_C 	C 	0.2989	0.95093	0.7242	-0.051
Mof_C 	C 	0.2523	0.9965	0.70001	0.233
Mof_C 	C 	0.30122	0.96148	0.76969	0.242
Mof_C 	C 	0.2111	0.04944	0.71978	0.236
Mof_C 	C 	0.26036	0.01466	0.78925	0.217
Mof_C 	C 	0.21336	0.06051	0.76512	-0.043
Mof_C 	C 	0.16673	0.11746	0.78758	-0.188
Mof_H 	H 	0.14	0.0971	0.8136	0.115
Mof_H 	H 	0.1254	0.1336	0.7664	0.133
Mof_C 	C 	0.21318	0.17958	0.80323	0.212
Mof_C 	C 	0.17441	0.23399	0.82354	-0.204
Mof_H 	H 	0.1188	0.2334	0.8255	0.109
Mof_C 	C 	0.2932	0.18566	0.79979	-0.174
Mof_H 	H 	0.3223	0.1505	0.7852	0.154
Mof_C 	C 	0.21679	0.28888	0.84082	0.133
Mof_H 	H 	0.189	0.325	0.8552	-0.007
Mof_C 	C 	0.33142	0.24293	0.81747	0.144
Mof_H 	H 	0.3867	0.2459	0.8145	0.015
Mof_C 	C 	0.01632	0.72139	0.55247	0.129
Mof_H 	H 	0.0276	0.6836	0.5332	0.035
Mof_C 	C 	0.02635	0.77292	0.62063	0.122
Mof_H 	H 	0.0444	0.7722	0.6508	0.007
Mof_C 	C 	0.97193	0.77626	0.53563	-0.193
Mof_H 	H 	0.9533	0.7753	0.5056	0.167
Mof_C 	C 	0.9833	0.82942	0.60611	-0.198
Mof_H 	H 	0.973	0.8666	0.626	0.139
Mof_C 	C 	0.95508	0.83201	0.56262	0.201
Mof_C 	C 	0.90738	0.89305	0.54568	-0.18
Mof_H 	H 	0.8659	0.8758	0.525	0.125
Mof_H 	H 	0.8812	0.9154	0.5712	0.109
Mof_C 	C 	0.95623	0.94713	0.52178	-0.051
Mof_C 	C 	0.9562	0.95362	0.47598	0.239
Mof_C 	C 	0.99907	0.00505	0.45495	0.23
Mof_C 	C 	0.47215	0.79062	0.58986	0.134
Mof_H 	H 	0.4453	0.8284	0.6031	-0.008
Mof_C 	C 	0.58533	0.73925	0.56907	0.148
Mof_H 	H 	0.6409	0.7401	0.5669	0.013
Mof_C 	C 	0.42851	0.73639	0.57287	-0.205
Mof_H 	H 	0.3729	0.7377	0.5742	0.11
Mof_C 	C 	0.54583	0.68281	0.55168	-0.173
Mof_H 	H 	0.5741	0.646	0.5383	0.156
Mof_C 	C 	0.4653	0.67996	0.55382	0.213
Mof_C 	C 	0.41572	0.61837	0.5387	-0.185
Mof_H 	H 	0.3764	0.635	0.5166	0.135
Mof_H 	H 	0.3868	0.6007	0.5647	0.115
Mof_C 	C 	0.4601	0.55845	0.51838	-0.043
Mof_C 	C 	0.5062	0.51428	0.54404	0.22
Mof_C 	C 	0.54515	0.45789	0.52644	0.246
_end
