data_functionalizedCrystal
_audit_creation_method	'EQeq! by Chris Wilmer'
_symmetry_space_group_name_H-M	'P1'
_symmetry_Int_Tables_number	1
_symmetry_cell_setting	triclinic
loop_
_symmetry_equiv_pos_as_xyz
  x,y,z
_cell_length_a	9.3028
_cell_length_b	14.9043
_cell_length_c	15.2092
_cell_angle_alpha	70.594
_cell_angle_beta	83.472
_cell_angle_gamma	84.978
loop_
_atom_site_label
_atom_site_type_symbol
_atom_site_fract_x
_atom_site_fract_y
_atom_site_fract_z
_atom_site_charge
Mof_Cd	Cd	0.65692	0.72132	0.03472	0.417
Mof_O 	O 	0.4692	0.81985	0.9624	-0.246
Mof_O 	O 	0.6742	0.88614	0.957	-0.258
Mof_O 	O 	0.6742	0.61568	0.94734	-0.285
Mof_O 	O 	0.8678	0.6886	0.9464	-0.266
Mof_O 	O 	0.5235	0.49959	0.14368	-0.303
Mof_O 	O 	0.5094	0.64498	0.15702	-0.296
Mof_N 	N 	0.1625	0.2756	0.8704	-0.318
Mof_H 	H 	0.1972	0.2205	0.9024	0.155
Mof_H 	H 	0.1049	0.3085	0.8978	0.167
Mof_C 	C 	0.3559	0.1643	0.7811	0.091
Mof_C 	C 	0.4787	0.9877	0.8833	-0.088
Mof_C 	C 	0.4451	0.5144	0.2911	-0.11
Mof_C 	C 	0.8091	0.6278	0.9242	0.311
Mof_C 	C 	0.5467	0.8932	0.9367	0.295
Mof_C 	C 	0.0595	0.4644	0.7708	0.089
Mof_C 	C 	0.1927	0.442	0.6263	-0.039
Mof_H 	H 	0.1559	0.502	0.5922	0.047
Mof_C 	C 	0.3426	0.5328	0.4374	-0.12
Mof_H 	H 	0.3089	0.5724	0.4722	0.075
Mof_C 	C 	0.2888	0.3915	0.5801	-0.008
Mof_C 	C 	0.5612	0.0664	0.8519	0.043
Mof_H 	H 	0.6577	0.0606	0.8647	0.039
Mof_C 	C 	0.3938	0.5723	0.3444	0.041
Mof_H 	H 	0.394	0.6382	0.3173	0.026
Mof_C 	C 	0.8948	0.5724	0.8696	-0.11
Mof_C 	C 	0.294	0.2593	0.7273	-0.059
Mof_C 	C 	0.341	0.4338	0.4797	0.064
Mof_C 	C 	0.5004	0.1548	0.8011	-0.129
Mof_H 	H 	0.5564	0.2078	0.7804	0.091
Mof_C 	C 	0.4963	0.5561	0.1894	0.322
Mof_C 	C 	0.3384	0.3002	0.6321	-0.04
Mof_H 	H 	0.4029	0.2656	0.6027	0.047
Mof_C 	C 	0.2007	0.3126	0.7716	0.105
Mof_C 	C 	0.447	0.4166	0.3327	0.038
Mof_H 	H 	0.4828	0.3772	0.298	0.033
Mof_C 	C 	0.3336	0.997	0.8644	0.051
Mof_H 	H 	0.2771	0.9442	0.8858	0.038
Mof_C 	C 	0.3957	0.3768	0.4257	-0.119
Mof_H 	H 	0.3979	0.3109	0.4527	0.075
Mof_C 	C 	0.1504	0.4056	0.7213	-0.059
Mof_C 	C 	0.0423	0.5581	0.876	0.054
Mof_H 	H 	0.0875	0.5851	0.9119	0.033
Mof_C 	C 	0.2742	0.0845	0.8141	-0.135
Mof_H 	H 	0.1774	0.0901	0.8021	0.087
Mof_C 	C 	0.8299	0.5384	0.8116	0.052
Mof_H 	H 	0.7309	0.5501	0.806	0.032
Mof_C 	C 	0.912	0.4861	0.7611	-0.131
Mof_H 	H 	0.8676	0.4653	0.7201	0.085
Mof_C 	C 	0.1227	0.5028	0.8281	-0.137
Mof_H 	H 	0.2215	0.4913	0.8344	0.093
Mof_Cd	Cd	0.34308	0.27868	0.96528	0.462
Mof_O 	O 	0.5308	0.18015	0.0376	-0.268
Mof_O 	O 	0.3258	0.11386	0.043	-0.282
Mof_O 	O 	0.3258	0.38432	0.05266	-0.307
Mof_O 	O 	0.1322	0.3114	0.0536	-0.288
Mof_O 	O 	0.4765	0.50041	0.85632	-0.294
Mof_O 	O 	0.4906	0.35502	0.84298	-0.291
Mof_N 	N 	0.8375	0.7244	0.1296	-0.312
Mof_H 	H 	0.8028	0.7795	0.0976	0.146
Mof_H 	H 	0.8951	0.6915	0.1022	0.157
Mof_C 	C 	0.6441	0.8357	0.2189	0.093
Mof_C 	C 	0.5213	0.0123	0.1167	-0.101
Mof_C 	C 	0.5549	0.4856	0.7089	-0.108
Mof_C 	C 	0.1909	0.3722	0.0758	0.315
Mof_C 	C 	0.4533	0.1068	0.0633	0.298
Mof_C 	C 	0.9405	0.5356	0.2292	0.094
Mof_C 	C 	0.8073	0.558	0.3737	-0.038
Mof_H 	H 	0.8441	0.498	0.4078	0.047
Mof_C 	C 	0.6574	0.4672	0.5626	-0.12
Mof_H 	H 	0.6911	0.4276	0.5278	0.075
Mof_C 	C 	0.7112	0.6085	0.4199	-0.009
Mof_C 	C 	0.4388	0.9336	0.1481	0.047
Mof_H 	H 	0.3423	0.9394	0.1353	0.031
Mof_C 	C 	0.6062	0.4277	0.6556	0.04
Mof_H 	H 	0.606	0.3618	0.6827	0.027
Mof_C 	C 	0.1052	0.4276	0.1304	-0.124
Mof_C 	C 	0.706	0.7407	0.2727	-0.059
Mof_C 	C 	0.659	0.5662	0.5203	0.064
Mof_C 	C 	0.4996	0.8452	0.1989	-0.136
Mof_H 	H 	0.4436	0.7922	0.2196	0.091
Mof_C 	C 	0.5037	0.4439	0.8106	0.321
Mof_C 	C 	0.6616	0.6998	0.3679	-0.04
Mof_H 	H 	0.5971	0.7344	0.3973	0.047
Mof_C 	C 	0.7993	0.6874	0.2284	0.103
Mof_C 	C 	0.553	0.5834	0.6673	0.037
Mof_H 	H 	0.5172	0.6228	0.702	0.035
Mof_C 	C 	0.6664	0.003	0.1356	0.052
Mof_H 	H 	0.7229	0.0558	0.1142	0.031
Mof_C 	C 	0.6043	0.6232	0.5743	-0.118
Mof_H 	H 	0.6021	0.6891	0.5473	0.074
Mof_C 	C 	0.8496	0.5944	0.2787	-0.06
Mof_C 	C 	0.9577	0.4419	0.124	0.06
Mof_H 	H 	0.9125	0.4149	0.0881	0.022
Mof_C 	C 	0.7258	0.9155	0.1859	-0.14
Mof_H 	H 	0.8226	0.9099	0.1979	0.086
Mof_C 	C 	0.1701	0.4616	0.1884	0.058
Mof_H 	H 	0.2691	0.4499	0.194	0.028
Mof_C 	C 	0.088	0.5139	0.2389	-0.14
Mof_H 	H 	0.1324	0.5347	0.2799	0.087
Mof_C 	C 	0.8773	0.4972	0.1719	-0.147
Mof_H 	H 	0.7785	0.5087	0.1656	0.093
Mof_Cd	Cd	0.5	0.5	-0	0.421
_end
