data_functionalizedCrystal
_audit_creation_method	'EQeq! by Chris Wilmer'
_symmetry_space_group_name_H-M	'P1'
_symmetry_Int_Tables_number	1
_symmetry_cell_setting	triclinic
loop_
_symmetry_equiv_pos_as_xyz
  x,y,z
_cell_length_a	20.2459
_cell_length_b	20.2459
_cell_length_c	23.016
_cell_angle_alpha	90
_cell_angle_beta	90
_cell_angle_gamma	120
loop_
_atom_site_label
_atom_site_type_symbol
_atom_site_fract_x
_atom_site_fract_y
_atom_site_fract_z
_atom_site_charge
Mof_P 	P 	0.11139	0.78807	0.0035	1.471
Mof_P 	P 	0.31204	0.8855	0.10997	1.504
Mof_P 	P 	0.11953	0.91886	0.15798	1.124
Mof_Al	Al	0.22115	0.95141	0.04924	6.504
Mof_Al	Al	0.1394	0.7778	0.13402	6.368
Mof_O 	O 	0.1357	0.7535	0.95735	-0.499
Mof_O 	O 	0.163	0.8751	0.00589	-1.949
Mof_O 	O 	0.0305	0.773	0.9933	-1.906
Mof_O 	O 	0.1106	0.7544	0.06297	-1.904
Mof_O 	O 	0.2381	0.8207	0.1358	-1.881
Mof_O 	O 	0.3615	0.9304	0.1615	-1.883
Mof_O 	O 	0.3516	0.856	0.0726	-0.524
Mof_O 	O 	0.1627	0.9625	0.2113	-0.389
Mof_O 	O 	0.2938	0.9392	0.0762	-1.943
Mof_O 	O 	0.1098	0.8377	0.1617	-1.843
Mof_O 	O 	0.1701	0.9604	0.1051	-1.888
Mof_O 	O 	0.0441	0.9127	0.1529	-0.378
Mof_P 	P 	0.77806	0.1214	0.33683	1.502
Mof_P 	P 	0.97871	0.21883	0.4433	1.511
Mof_P 	P 	0.7862	0.25219	0.49131	1.127
Mof_Al	Al	0.88782	0.28474	0.38257	6.567
Mof_Al	Al	0.80607	0.11113	0.46735	6.378
Mof_O 	O 	0.80237	0.08683	0.29068	-0.513
Mof_O 	O 	0.82967	0.20843	0.33922	-1.96
Mof_O 	O 	0.69717	0.10633	0.32663	-1.943
Mof_O 	O 	0.77727	0.08773	0.3963	-1.908
Mof_O 	O 	0.90477	0.15403	0.46913	-1.884
Mof_O 	O 	0.02817	0.26373	0.49483	-1.891
Mof_O 	O 	0.01827	0.18933	0.40593	-0.523
Mof_O 	O 	0.82937	0.29583	0.54463	-0.388
Mof_O 	O 	0.96047	0.27253	0.40953	-1.954
Mof_O 	O 	0.77647	0.17103	0.49503	-1.845
Mof_O 	O 	0.83677	0.29373	0.43843	-1.899
Mof_O 	O 	0.71077	0.24603	0.48623	-0.374
Mof_P 	P 	0.44472	0.45474	0.67017	1.5
Mof_P 	P 	0.64537	0.55217	0.77664	1.509
Mof_P 	P 	0.45286	0.58553	0.82465	1.127
Mof_Al	Al	0.55448	0.61808	0.71591	6.563
Mof_Al	Al	0.47273	0.44447	0.80069	6.375
Mof_O 	O 	0.46903	0.42017	0.62402	-0.516
Mof_O 	O 	0.49633	0.54177	0.67256	-1.96
Mof_O 	O 	0.36383	0.43967	0.65997	-1.938
Mof_O 	O 	0.44393	0.42107	0.72964	-1.907
Mof_O 	O 	0.57143	0.48737	0.80247	-1.884
Mof_O 	O 	0.69483	0.59707	0.82817	-1.89
Mof_O 	O 	0.68493	0.52267	0.73927	-0.522
Mof_O 	O 	0.49603	0.62917	0.87797	-0.387
Mof_O 	O 	0.62713	0.60587	0.74287	-1.953
Mof_O 	O 	0.44313	0.50437	0.82837	-1.844
Mof_O 	O 	0.50343	0.62707	0.77177	-1.898
Mof_O 	O 	0.37743	0.57937	0.81957	-0.373
Mof_P 	P 	0.21193	0.32332	0.0035	1.494
Mof_P 	P 	0.1145	0.42654	0.10997	1.505
Mof_P 	P 	0.08114	0.20067	0.15798	1.125
Mof_Al	Al	0.04859	0.26974	0.04924	6.509
Mof_Al	Al	0.2222	0.3616	0.13402	6.377
Mof_O 	O 	0.2465	0.3822	0.95735	-0.512
Mof_O 	O 	0.1249	0.2879	0.00589	-1.949
Mof_O 	O 	0.227	0.2575	0.9933	-1.934
Mof_O 	O 	0.2456	0.3562	0.06297	-1.906
Mof_O 	O 	0.1793	0.4174	0.1358	-1.883
Mof_O 	O 	0.0696	0.4311	0.1615	-1.884
Mof_O 	O 	0.144	0.4956	0.0726	-0.523
Mof_O 	O 	0.0375	0.2002	0.2113	-0.388
Mof_O 	O 	0.0608	0.3546	0.0762	-1.943
Mof_O 	O 	0.1623	0.2721	0.1617	-1.844
Mof_O 	O 	0.0396	0.2097	0.1051	-1.886
Mof_O 	O 	0.0873	0.1314	0.1529	-0.372
Mof_P 	P 	0.8786	0.65665	0.33683	1.501
Mof_P 	P 	0.78117	0.75987	0.4433	1.509
Mof_P 	P 	0.74781	0.534	0.49131	1.127
Mof_Al	Al	0.71526	0.60307	0.38257	6.563
Mof_Al	Al	0.88887	0.69493	0.46735	6.378
Mof_O 	O 	0.91317	0.71553	0.29068	-0.515
Mof_O 	O 	0.79157	0.62123	0.33922	-1.96
Mof_O 	O 	0.89367	0.59083	0.32663	-1.943
Mof_O 	O 	0.91227	0.68953	0.3963	-1.908
Mof_O 	O 	0.84597	0.75073	0.46913	-1.884
Mof_O 	O 	0.73627	0.76443	0.49483	-1.889
Mof_O 	O 	0.81067	0.82893	0.40593	-0.522
Mof_O 	O 	0.70417	0.53353	0.54463	-0.388
Mof_O 	O 	0.72747	0.68793	0.40953	-1.953
Mof_O 	O 	0.82897	0.60543	0.49503	-1.845
Mof_O 	O 	0.70627	0.54303	0.43843	-1.898
Mof_O 	O 	0.75397	0.46473	0.48623	-0.374
Mof_P 	P 	0.54526	0.98999	0.67017	1.505
Mof_P 	P 	0.44783	0.09321	0.77664	1.509
Mof_P 	P 	0.41447	0.86734	0.82465	1.127
Mof_Al	Al	0.38192	0.93641	0.71591	6.588
Mof_Al	Al	0.55553	0.02827	0.80069	6.344
Mof_O 	O 	0.57983	0.04887	0.62402	-0.519
Mof_O 	O 	0.45823	0.95457	0.67256	-1.965
Mof_O 	O 	0.56033	0.92417	0.65997	-1.938
Mof_O 	O 	0.57893	0.02287	0.72964	-1.904
Mof_O 	O 	0.51263	0.08407	0.80247	-1.878
Mof_O 	O 	0.40293	0.09777	0.82817	-1.89
Mof_O 	O 	0.47733	0.16227	0.73927	-0.522
Mof_O 	O 	0.37083	0.86687	0.87797	-0.383
Mof_O 	O 	0.39413	0.02127	0.74287	-1.961
Mof_O 	O 	0.49563	0.93877	0.82837	-1.834
Mof_O 	O 	0.37293	0.87637	0.77177	-1.902
Mof_O 	O 	0.42063	0.79807	0.81957	-0.373
Mof_P 	P 	0.67668	0.88861	0.0035	1.488
Mof_P 	P 	0.57346	0.68796	0.10997	1.508
Mof_P 	P 	0.79933	0.88047	0.15798	1.127
Mof_Al	Al	0.73026	0.77885	0.04924	6.556
Mof_Al	Al	0.6384	0.8606	0.13402	6.372
Mof_O 	O 	0.6178	0.8643	0.95735	-0.508
Mof_O 	O 	0.7121	0.837	0.00589	-1.958
Mof_O 	O 	0.7425	0.9695	0.9933	-1.915
Mof_O 	O 	0.6438	0.8894	0.06297	-1.906
Mof_O 	O 	0.5826	0.7619	0.1358	-1.883
Mof_O 	O 	0.5689	0.6385	0.1615	-1.889
Mof_O 	O 	0.5044	0.6484	0.0726	-0.523
Mof_O 	O 	0.7998	0.8373	0.2113	-0.387
Mof_O 	O 	0.6454	0.7062	0.0762	-1.952
Mof_O 	O 	0.7279	0.8902	0.1617	-1.844
Mof_O 	O 	0.7903	0.8299	0.1051	-1.896
Mof_O 	O 	0.8686	0.9559	0.1529	-0.373
Mof_P 	P 	0.34335	0.22194	0.33683	1.5
Mof_P 	P 	0.24013	0.02129	0.4433	1.511
Mof_P 	P 	0.466	0.2138	0.49131	1.127
Mof_Al	Al	0.39693	0.11218	0.38257	6.566
Mof_Al	Al	0.30507	0.19393	0.46735	6.373
Mof_O 	O 	0.28447	0.19763	0.29068	-0.515
Mof_O 	O 	0.37877	0.17033	0.33922	-1.96
Mof_O 	O 	0.40917	0.30283	0.32663	-1.938
Mof_O 	O 	0.31047	0.22273	0.3963	-1.907
Mof_O 	O 	0.24927	0.09523	0.46913	-1.883
Mof_O 	O 	0.23557	0.97183	0.49483	-1.891
Mof_O 	O 	0.17107	0.98173	0.40593	-0.524
Mof_O 	O 	0.46647	0.17063	0.54463	-0.388
Mof_O 	O 	0.31207	0.03953	0.40953	-1.953
Mof_O 	O 	0.39457	0.22353	0.49503	-1.844
Mof_O 	O 	0.45697	0.16323	0.43843	-1.899
Mof_O 	O 	0.53527	0.28923	0.48623	-0.374
Mof_P 	P 	0.01001	0.55528	0.67017	1.506
Mof_P 	P 	0.90679	0.35463	0.77664	1.508
Mof_P 	P 	0.13266	0.54714	0.82465	1.127
Mof_Al	Al	0.06359	0.44552	0.71591	6.588
Mof_Al	Al	0.97173	0.52727	0.80069	6.347
Mof_O 	O 	0.95113	0.53097	0.62402	-0.519
Mof_O 	O 	0.04543	0.50367	0.67256	-1.965
Mof_O 	O 	0.07583	0.63617	0.65997	-1.938
Mof_O 	O 	0.97713	0.55607	0.72964	-1.905
Mof_O 	O 	0.91593	0.42857	0.80247	-1.879
Mof_O 	O 	0.90223	0.30517	0.82817	-1.889
Mof_O 	O 	0.83773	0.31507	0.73927	-0.522
Mof_O 	O 	0.13313	0.50397	0.87797	-0.385
Mof_O 	O 	0.97873	0.37287	0.74287	-1.961
Mof_O 	O 	0.06123	0.55687	0.82837	-1.834
Mof_O 	O 	0.12363	0.49657	0.77177	-1.902
Mof_O 	O 	0.20193	0.62257	0.81957	-0.373
Mof_P 	P 	0.88861	0.21193	0.9965	1.471
Mof_P 	P 	0.68796	0.1145	0.89003	1.504
Mof_P 	P 	0.88047	0.08114	0.84202	1.124
Mof_Al	Al	0.77885	0.04859	0.95076	6.504
Mof_Al	Al	0.8606	0.2222	0.86598	6.368
Mof_O 	O 	0.8643	0.2465	0.04265	-0.499
Mof_O 	O 	0.837	0.1249	0.99411	-1.949
Mof_O 	O 	0.9695	0.227	0.0067	-1.906
Mof_O 	O 	0.8894	0.2456	0.93703	-1.904
Mof_O 	O 	0.7619	0.1793	0.8642	-1.881
Mof_O 	O 	0.6385	0.0696	0.8385	-1.883
Mof_O 	O 	0.6484	0.144	0.9274	-0.524
Mof_O 	O 	0.8373	0.0375	0.7887	-0.389
Mof_O 	O 	0.7062	0.0608	0.9238	-1.943
Mof_O 	O 	0.8902	0.1623	0.8383	-1.843
Mof_O 	O 	0.8299	0.0396	0.8949	-1.888
Mof_O 	O 	0.9559	0.0873	0.8471	-0.378
Mof_P 	P 	0.55528	0.54526	0.32983	1.5
Mof_P 	P 	0.35463	0.44783	0.22336	1.509
Mof_P 	P 	0.54714	0.41447	0.17535	1.127
Mof_Al	Al	0.44552	0.38192	0.28409	6.563
Mof_Al	Al	0.52727	0.55553	0.19931	6.375
Mof_O 	O 	0.53097	0.57983	0.37598	-0.516
Mof_O 	O 	0.50367	0.45823	0.32744	-1.96
Mof_O 	O 	0.63617	0.56033	0.34003	-1.938
Mof_O 	O 	0.55607	0.57893	0.27036	-1.907
Mof_O 	O 	0.42857	0.51263	0.19753	-1.884
Mof_O 	O 	0.30517	0.40293	0.17183	-1.89
Mof_O 	O 	0.31507	0.47733	0.26073	-0.522
Mof_O 	O 	0.50397	0.37083	0.12203	-0.387
Mof_O 	O 	0.37287	0.39413	0.25713	-1.953
Mof_O 	O 	0.55687	0.49563	0.17163	-1.844
Mof_O 	O 	0.49657	0.37293	0.22823	-1.898
Mof_O 	O 	0.62257	0.42063	0.18043	-0.373
Mof_P 	P 	0.22194	0.8786	0.66317	1.502
Mof_P 	P 	0.02129	0.78117	0.5567	1.511
Mof_P 	P 	0.2138	0.74781	0.50869	1.127
Mof_Al	Al	0.11218	0.71526	0.61743	6.567
Mof_Al	Al	0.19393	0.88887	0.53265	6.378
Mof_O 	O 	0.19763	0.91317	0.70932	-0.513
Mof_O 	O 	0.17033	0.79157	0.66078	-1.96
Mof_O 	O 	0.30283	0.89367	0.67337	-1.943
Mof_O 	O 	0.22273	0.91227	0.6037	-1.908
Mof_O 	O 	0.09523	0.84597	0.53087	-1.884
Mof_O 	O 	0.97183	0.73627	0.50517	-1.891
Mof_O 	O 	0.98173	0.81067	0.59407	-0.523
Mof_O 	O 	0.17063	0.70417	0.45537	-0.388
Mof_O 	O 	0.03953	0.72747	0.59047	-1.954
Mof_O 	O 	0.22353	0.82897	0.50497	-1.845
Mof_O 	O 	0.16323	0.70627	0.56157	-1.899
Mof_O 	O 	0.28923	0.75397	0.51377	-0.374
Mof_P 	P 	0.78807	0.67668	0.9965	1.494
Mof_P 	P 	0.8855	0.57346	0.89003	1.505
Mof_P 	P 	0.91886	0.79933	0.84202	1.125
Mof_Al	Al	0.95141	0.73026	0.95076	6.509
Mof_Al	Al	0.7778	0.6384	0.86598	6.377
Mof_O 	O 	0.7535	0.6178	0.04265	-0.512
Mof_O 	O 	0.8751	0.7121	0.99411	-1.949
Mof_O 	O 	0.773	0.7425	0.0067	-1.934
Mof_O 	O 	0.7544	0.6438	0.93703	-1.906
Mof_O 	O 	0.8207	0.5826	0.8642	-1.883
Mof_O 	O 	0.9304	0.5689	0.8385	-1.884
Mof_O 	O 	0.856	0.5044	0.9274	-0.523
Mof_O 	O 	0.9625	0.7998	0.7887	-0.388
Mof_O 	O 	0.9392	0.6454	0.9238	-1.943
Mof_O 	O 	0.8377	0.7279	0.8383	-1.844
Mof_O 	O 	0.9604	0.7903	0.8949	-1.886
Mof_O 	O 	0.9127	0.8686	0.8471	-0.372
Mof_P 	P 	0.45474	0.01001	0.32983	1.505
Mof_P 	P 	0.55217	0.90679	0.22336	1.509
Mof_P 	P 	0.58553	0.13266	0.17535	1.127
Mof_Al	Al	0.61808	0.06359	0.28409	6.588
Mof_Al	Al	0.44447	0.97173	0.19931	6.344
Mof_O 	O 	0.42017	0.95113	0.37598	-0.519
Mof_O 	O 	0.54177	0.04543	0.32744	-1.965
Mof_O 	O 	0.43967	0.07583	0.34003	-1.938
Mof_O 	O 	0.42107	0.97713	0.27036	-1.904
Mof_O 	O 	0.48737	0.91593	0.19753	-1.878
Mof_O 	O 	0.59707	0.90223	0.17183	-1.89
Mof_O 	O 	0.52267	0.83773	0.26073	-0.522
Mof_O 	O 	0.62917	0.13313	0.12203	-0.383
Mof_O 	O 	0.60587	0.97873	0.25713	-1.961
Mof_O 	O 	0.50437	0.06123	0.17163	-1.834
Mof_O 	O 	0.62707	0.12363	0.22823	-1.902
Mof_O 	O 	0.57937	0.20193	0.18043	-0.373
Mof_P 	P 	0.1214	0.34335	0.66317	1.501
Mof_P 	P 	0.21883	0.24013	0.5567	1.509
Mof_P 	P 	0.25219	0.466	0.50869	1.127
Mof_Al	Al	0.28474	0.39693	0.61743	6.563
Mof_Al	Al	0.11113	0.30507	0.53265	6.378
Mof_O 	O 	0.08683	0.28447	0.70932	-0.515
Mof_O 	O 	0.20843	0.37877	0.66078	-1.96
Mof_O 	O 	0.10633	0.40917	0.67337	-1.943
Mof_O 	O 	0.08773	0.31047	0.6037	-1.908
Mof_O 	O 	0.15403	0.24927	0.53087	-1.884
Mof_O 	O 	0.26373	0.23557	0.50517	-1.889
Mof_O 	O 	0.18933	0.17107	0.59407	-0.522
Mof_O 	O 	0.29583	0.46647	0.45537	-0.388
Mof_O 	O 	0.27253	0.31207	0.59047	-1.953
Mof_O 	O 	0.17103	0.39457	0.50497	-1.845
Mof_O 	O 	0.29373	0.45697	0.56157	-1.898
Mof_O 	O 	0.24603	0.53527	0.51377	-0.374
Mof_P 	P 	0.32332	0.11139	0.9965	1.488
Mof_P 	P 	0.42654	0.31204	0.89003	1.508
Mof_P 	P 	0.20067	0.11953	0.84202	1.127
Mof_Al	Al	0.26974	0.22115	0.95076	6.556
Mof_Al	Al	0.3616	0.1394	0.86598	6.372
Mof_O 	O 	0.3822	0.1357	0.04265	-0.508
Mof_O 	O 	0.2879	0.163	0.99411	-1.958
Mof_O 	O 	0.2575	0.0305	0.0067	-1.915
Mof_O 	O 	0.3562	0.1106	0.93703	-1.906
Mof_O 	O 	0.4174	0.2381	0.8642	-1.883
Mof_O 	O 	0.4311	0.3615	0.8385	-1.889
Mof_O 	O 	0.4956	0.3516	0.9274	-0.523
Mof_O 	O 	0.2002	0.1627	0.7887	-0.387
Mof_O 	O 	0.3546	0.2938	0.9238	-1.952
Mof_O 	O 	0.2721	0.1098	0.8383	-1.844
Mof_O 	O 	0.2097	0.1701	0.8949	-1.896
Mof_O 	O 	0.1314	0.0441	0.8471	-0.373
Mof_P 	P 	0.98999	0.44472	0.32983	1.506
Mof_P 	P 	0.09321	0.64537	0.22336	1.508
Mof_P 	P 	0.86734	0.45286	0.17535	1.127
Mof_Al	Al	0.93641	0.55448	0.28409	6.588
Mof_Al	Al	0.02827	0.47273	0.19931	6.347
Mof_O 	O 	0.04887	0.46903	0.37598	-0.519
Mof_O 	O 	0.95457	0.49633	0.32744	-1.965
Mof_O 	O 	0.92417	0.36383	0.34003	-1.938
Mof_O 	O 	0.02287	0.44393	0.27036	-1.905
Mof_O 	O 	0.08407	0.57143	0.19753	-1.879
Mof_O 	O 	0.09777	0.69483	0.17183	-1.889
Mof_O 	O 	0.16227	0.68493	0.26073	-0.522
Mof_O 	O 	0.86687	0.49603	0.12203	-0.385
Mof_O 	O 	0.02127	0.62713	0.25713	-1.961
Mof_O 	O 	0.93877	0.44313	0.17163	-1.834
Mof_O 	O 	0.87637	0.50343	0.22823	-1.902
Mof_O 	O 	0.79807	0.37743	0.18043	-0.373
Mof_P 	P 	0.65665	0.77806	0.66317	1.5
Mof_P 	P 	0.75987	0.97871	0.5567	1.511
Mof_P 	P 	0.534	0.7862	0.50869	1.127
Mof_Al	Al	0.60307	0.88782	0.61743	6.566
Mof_Al	Al	0.69493	0.80607	0.53265	6.373
Mof_O 	O 	0.71553	0.80237	0.70932	-0.515
Mof_O 	O 	0.62123	0.82967	0.66078	-1.96
Mof_O 	O 	0.59083	0.69717	0.67337	-1.938
Mof_O 	O 	0.68953	0.77727	0.6037	-1.907
Mof_O 	O 	0.75073	0.90477	0.53087	-1.883
Mof_O 	O 	0.76443	0.02817	0.50517	-1.891
Mof_O 	O 	0.82893	0.01827	0.59407	-0.524
Mof_O 	O 	0.53353	0.82937	0.45537	-0.388
Mof_O 	O 	0.68793	0.96047	0.59047	-1.953
Mof_O 	O 	0.60543	0.77647	0.50497	-1.844
Mof_O 	O 	0.54303	0.83677	0.56157	-1.899
Mof_O 	O 	0.46473	0.71077	0.51377	-0.374
_end
