data_functionalizedCrystal
_audit_creation_method	'EQeq! by Chris Wilmer'
_symmetry_space_group_name_H-M	'P1'
_symmetry_Int_Tables_number	1
_symmetry_cell_setting	triclinic
loop_
_symmetry_equiv_pos_as_xyz
  x,y,z
_cell_length_a	15.882
_cell_length_b	8.462
_cell_length_c	16.096
_cell_angle_alpha	90
_cell_angle_beta	112.563
_cell_angle_gamma	90
loop_
_atom_site_label
_atom_site_type_symbol
_atom_site_fract_x
_atom_site_fract_y
_atom_site_fract_z
_atom_site_charge
Mof_Co	Co	0.3639	0.13654	0.47626	1.179
Mof_P 	P 	0.15253	0.13676	0.36334	0.462
Mof_P 	P 	0.02018	0.62988	0.40078	0.305
Mof_O 	O 	0.1113	0.2488	0.28466	-0.444
Mof_O 	O 	0.24815	0.0965	0.37567	-0.416
Mof_O 	O 	0.1396	0.1899	0.44642	-0.481
Mof_O 	O 	0.10849	0.5807	0.47636	-0.417
Mof_O 	O 	0.97443	0.4919	0.34059	-0.369
Mof_O 	O 	0.95619	0.7151	0.4346	-0.332
Mof_H 	H 	0.11	0.006	0.344	-0.052
Mof_H 	H 	0.042	0.737	0.353	-0.04
Mof_Co	Co	0.8639	0.63654	0.47626	1.186
Mof_P 	P 	0.65253	0.63676	0.36334	0.466
Mof_P 	P 	0.52018	0.12988	0.40078	0.433
Mof_O 	O 	0.6113	0.7488	0.28466	-0.426
Mof_O 	O 	0.74815	0.5965	0.37567	-0.409
Mof_O 	O 	0.6396	0.6899	0.44642	-0.468
Mof_O 	O 	0.60849	0.0807	0.47636	-0.418
Mof_O 	O 	0.47443	0.9919	0.34059	-0.46
Mof_O 	O 	0.45619	0.2151	0.4346	-0.409
Mof_H 	H 	0.61	0.506	0.344	-0.037
Mof_H 	H 	0.542	0.237	0.353	-0.033
Mof_Co	Co	0.6361	0.13654	0.02374	1.183
Mof_P 	P 	0.84747	0.13676	0.13666	0.467
Mof_P 	P 	0.97982	0.62988	0.09922	0.561
Mof_O 	O 	0.8887	0.2488	0.21534	-0.397
Mof_O 	O 	0.75185	0.0965	0.12433	-0.409
Mof_O 	O 	0.8604	0.1899	0.05358	-0.45
Mof_O 	O 	0.89151	0.5807	0.02364	-0.415
Mof_O 	O 	0.02557	0.4919	0.15941	-0.534
Mof_O 	O 	0.04381	0.7151	0.0654	-0.48
Mof_H 	H 	0.89	0.006	0.156	-0.021
Mof_H 	H 	0.958	0.737	0.147	-0.024
Mof_Co	Co	0.1361	0.63654	0.02374	1.178
Mof_P 	P 	0.34747	0.63676	0.13666	0.466
Mof_P 	P 	0.47982	0.12988	0.09922	0.433
Mof_O 	O 	0.3887	0.7488	0.21534	-0.428
Mof_O 	O 	0.25185	0.5965	0.12433	-0.414
Mof_O 	O 	0.3604	0.6899	0.05358	-0.465
Mof_O 	O 	0.39151	0.0807	0.02364	-0.417
Mof_O 	O 	0.52557	0.9919	0.15941	-0.457
Mof_O 	O 	0.54381	0.2151	0.0654	-0.406
Mof_H 	H 	0.39	0.506	0.156	-0.037
Mof_H 	H 	0.458	0.237	0.147	-0.033
Mof_Co	Co	0.6361	0.86346	0.52374	1.18
Mof_P 	P 	0.84747	0.86324	0.63666	0.467
Mof_P 	P 	0.97982	0.37012	0.59922	0.56
Mof_O 	O 	0.8887	0.7512	0.71534	-0.398
Mof_O 	O 	0.75185	0.9035	0.62433	-0.41
Mof_O 	O 	0.8604	0.8101	0.55358	-0.454
Mof_O 	O 	0.89151	0.4193	0.52364	-0.42
Mof_O 	O 	0.02557	0.5081	0.65941	-0.535
Mof_O 	O 	0.04381	0.2849	0.5654	-0.483
Mof_H 	H 	0.89	0.994	0.656	-0.022
Mof_H 	H 	0.958	0.263	0.647	-0.025
Mof_Co	Co	0.1361	0.36346	0.52374	1.175
Mof_P 	P 	0.34747	0.36324	0.63666	0.466
Mof_P 	P 	0.47982	0.87012	0.59922	0.434
Mof_O 	O 	0.3887	0.2512	0.71534	-0.429
Mof_O 	O 	0.25185	0.4035	0.62433	-0.416
Mof_O 	O 	0.3604	0.3101	0.55358	-0.469
Mof_O 	O 	0.39151	0.9193	0.52364	-0.42
Mof_O 	O 	0.52557	0.0081	0.65941	-0.46
Mof_O 	O 	0.54381	0.7849	0.5654	-0.408
Mof_H 	H 	0.39	0.494	0.656	-0.038
Mof_H 	H 	0.458	0.763	0.647	-0.034
Mof_Co	Co	0.3639	0.86346	0.97626	1.177
Mof_P 	P 	0.15253	0.86324	0.86334	0.464
Mof_P 	P 	0.02018	0.37012	0.90078	0.309
Mof_O 	O 	0.1113	0.7512	0.78466	-0.443
Mof_O 	O 	0.24815	0.9035	0.87567	-0.417
Mof_O 	O 	0.1396	0.8101	0.94642	-0.484
Mof_O 	O 	0.10849	0.4193	0.97636	-0.42
Mof_O 	O 	0.97443	0.5081	0.84059	-0.372
Mof_O 	O 	0.95619	0.2849	0.9346	-0.337
Mof_H 	H 	0.11	0.994	0.844	-0.053
Mof_H 	H 	0.042	0.263	0.853	-0.04
Mof_Co	Co	0.8639	0.36346	0.97626	1.183
Mof_P 	P 	0.65253	0.36324	0.86334	0.466
Mof_P 	P 	0.52018	0.87012	0.90078	0.433
Mof_O 	O 	0.6113	0.2512	0.78466	-0.427
Mof_O 	O 	0.74815	0.4035	0.87567	-0.41
Mof_O 	O 	0.6396	0.3101	0.94642	-0.471
Mof_O 	O 	0.60849	0.9193	0.97636	-0.422
Mof_O 	O 	0.47443	0.0081	0.84059	-0.461
Mof_O 	O 	0.45619	0.7849	0.9346	-0.411
Mof_H 	H 	0.61	0.494	0.844	-0.037
Mof_H 	H 	0.542	0.763	0.853	-0.033
Mof_Co	Co	1.42278e-17	0.37328	0.25	1.137
Mof_Co	Co	0.5	0.87328	0.25	1.175
Mof_Co	Co	5.69111e-17	0.62672	0.75	1.137
Mof_Co	Co	0.5	0.12672	0.75	1.175
_end
