data_functionalizedCrystal
_audit_creation_method	'EQeq! by Chris Wilmer'
_symmetry_space_group_name_H-M	'P1'
_symmetry_Int_Tables_number	1
_symmetry_cell_setting	triclinic
loop_
_symmetry_equiv_pos_as_xyz
  x,y,z
_cell_length_a	9.6739
_cell_length_b	11.0039
_cell_length_c	11.5523
_cell_angle_alpha	104.833
_cell_angle_beta	91
_cell_angle_gamma	114.257
loop_
_atom_site_label
_atom_site_type_symbol
_atom_site_fract_x
_atom_site_fract_y
_atom_site_fract_z
_atom_site_charge
Mof_Er	Er	0.49227	0.99276	0.25353	1.719
Mof_Er	Er	0.51686	0.42447	0.32999	1.81
Mof_Er	Er	0.50773	0.00724	0.74647	1.719
Mof_Er	Er	0.48314	0.57553	0.67001	1.81
Mof_H 	H 	0.993	0.3165	0.3447	0.041
Mof_H 	H 	0.0898	0.2022	0.1593	0.042
Mof_H 	H 	0.0126	0.2178	0.591	0.04
Mof_H 	H 	0.007	0.6835	0.6553	0.041
Mof_H 	H 	0.9102	0.7978	0.8407	0.042
Mof_H 	H 	0.9874	0.7822	0.409	0.04
Mof_C 	C 	0.7175	0.2502	0.3931	0.371
Mof_C 	C 	0.8592	0.3823	0.4501	-0.088
Mof_C 	C 	0.9953	0.3903	0.4072	0.013
Mof_C 	C 	0.8656	0.4948	0.5453	-0.084
Mof_C 	C 	0.7281	0.4982	0.6009	0.358
Mof_C 	C 	0.3141	0.1293	0.1118	0.476
Mof_C 	C 	0.1529	0.0644	0.0509	-0.105
Mof_C 	C 	0.0534	0.1208	0.0953	0.019
Mof_C 	C 	0.0989	0.9416	0.954	-0.061
Mof_C 	C 	0.2096	0.8871	0.8972	0.403
Mof_C 	C 	0.2585	0.2536	0.4911	0.453
Mof_C 	C 	0.1266	0.1193	0.4964	-0.102
Mof_C 	C 	0.0077	0.1301	0.5541	0.011
Mof_C 	C 	0.1203	0.988	0.4417	-0.038
Mof_C 	C 	0.2496	0.9701	0.3824	0.307
Mof_C 	C 	0.2825	0.7498	0.6069	0.371
Mof_C 	C 	0.1408	0.6177	0.5499	-0.088
Mof_C 	C 	0.0047	0.6097	0.5928	0.013
Mof_C 	C 	0.1344	0.5052	0.4547	-0.084
Mof_C 	C 	0.2719	0.5018	0.3991	0.358
Mof_C 	C 	0.6859	0.8707	0.8882	0.476
Mof_C 	C 	0.8471	0.9356	0.9491	-0.105
Mof_C 	C 	0.9466	0.8792	0.9047	0.019
Mof_C 	C 	0.9011	0.0584	0.046	-0.061
Mof_C 	C 	0.7904	0.1129	0.1028	0.403
Mof_C 	C 	0.7415	0.7464	0.5089	0.453
Mof_C 	C 	0.8734	0.8807	0.5036	-0.102
Mof_C 	C 	0.9923	0.8699	0.4459	0.011
Mof_C 	C 	0.8797	0.012	0.5583	-0.038
Mof_C 	C 	0.7504	0.0299	0.6176	0.307
Mof_O 	O 	0.7172	0.1388	0.3985	-0.427
Mof_O 	O 	0.6056	0.251	0.3332	-0.54
Mof_O 	O 	0.5988	0.4467	0.5336	-0.556
Mof_O 	O 	0.7422	0.5584	0.7097	-0.39
Mof_O 	O 	0.3713	0.0502	0.1265	-0.52
Mof_O 	O 	0.3836	0.2612	0.1494	-0.517
Mof_O 	O 	0.3188	0.971	0.8599	-0.504
Mof_O 	O 	0.1832	0.7637	0.8868	-0.309
Mof_O 	O 	0.2954	0.3535	0.5876	-0.527
Mof_O 	O 	0.3137	0.2582	0.3947	-0.464
Mof_O 	O 	0.3877	0.0481	0.432	-0.42
Mof_O 	O 	0.2236	0.8797	0.283	-0.411
Mof_O 	O 	0.2828	0.8612	0.6015	-0.427
Mof_O 	O 	0.3944	0.749	0.6668	-0.54
Mof_O 	O 	0.4012	0.5533	0.4664	-0.556
Mof_O 	O 	0.2578	0.4416	0.2903	-0.39
Mof_O 	O 	0.6287	0.9498	0.8735	-0.52
Mof_O 	O 	0.6164	0.7388	0.8506	-0.517
Mof_O 	O 	0.6812	0.029	0.1401	-0.504
Mof_O 	O 	0.8168	0.2363	0.1132	-0.309
Mof_O 	O 	0.7046	0.6465	0.4124	-0.527
Mof_O 	O 	0.6863	0.7418	0.6053	-0.464
Mof_O 	O 	0.6123	0.9519	0.568	-0.42
Mof_O 	O 	0.7764	0.1203	0.717	-0.411
_end
