data_functionalizedCrystal
_audit_creation_method	'EQeq! by Chris Wilmer'
_symmetry_space_group_name_H-M	'P1'
_symmetry_Int_Tables_number	1
_symmetry_cell_setting	triclinic
loop_
_symmetry_equiv_pos_as_xyz
  x,y,z
_cell_length_a	18.5396
_cell_length_b	18.5396
_cell_length_c	38.826
_cell_angle_alpha	90
_cell_angle_beta	90
_cell_angle_gamma	120
loop_
_atom_site_label
_atom_site_type_symbol
_atom_site_fract_x
_atom_site_fract_y
_atom_site_fract_z
_atom_site_charge
Mof_O 	O 	0.10961	0.4808	0.00283	-0.405
Mof_O 	O 	0.02923	0.4407	0.95539	-0.402
Mof_O 	O 	0.2915	0.4231	0.7852	-0.142
Mof_C 	C 	0.0916	0.4527	0.97271	0.347
Mof_C 	C 	0.1506	0.4304	0.95522	-0.053
Mof_C 	C 	0.1359	0.4002	0.92227	-0.053
Mof_H 	H 	0.0868	0.3892	0.9113	0.076
Mof_C 	C 	0.2279	0.3748	0.8096	0.077
Mof_C 	C 	0.2427	0.4021	0.8444	-0.02
Mof_C 	C 	0.3686	0.4751	0.7963	-0.19
Mof_H 	H 	0.404	0.5028	0.777	0.094
Mof_H 	H 	0.3678	0.5156	0.8114	0.094
Mof_H 	H 	0.3894	0.4442	0.8085	0.09
Mof_O 	O 	0.77628	0.81413	0.33616	-0.406
Mof_O 	O 	0.6959	0.77403	0.28872	-0.403
Mof_O 	O 	0.95817	0.75643	0.11853	-0.142
Mof_C 	C 	0.75827	0.78603	0.30604	0.346
Mof_C 	C 	0.81727	0.76373	0.28855	-0.053
Mof_C 	C 	0.80257	0.73353	0.2556	-0.053
Mof_H 	H 	0.75347	0.72253	0.24463	0.076
Mof_C 	C 	0.89457	0.70813	0.14293	0.077
Mof_C 	C 	0.90937	0.73543	0.17773	-0.02
Mof_C 	C 	0.03527	0.80843	0.12963	-0.19
Mof_H 	H 	0.07067	0.83613	0.11033	0.094
Mof_H 	H 	0.03447	0.84893	0.14473	0.094
Mof_H 	H 	0.05607	0.77753	0.14183	0.09
Mof_O 	O 	0.44294	0.14747	0.6695	-0.406
Mof_O 	O 	0.36256	0.10737	0.62206	-0.403
Mof_O 	O 	0.62483	0.08977	0.45187	-0.143
Mof_C 	C 	0.42493	0.11937	0.63938	0.346
Mof_C 	C 	0.48393	0.09707	0.62189	-0.053
Mof_C 	C 	0.46923	0.06687	0.58894	-0.053
Mof_H 	H 	0.42013	0.05587	0.57797	0.076
Mof_C 	C 	0.56123	0.04147	0.47627	0.077
Mof_C 	C 	0.57603	0.06877	0.51107	-0.02
Mof_C 	C 	0.70193	0.14177	0.46297	-0.19
Mof_H 	H 	0.73733	0.16947	0.44367	0.094
Mof_H 	H 	0.70113	0.18227	0.47807	0.094
Mof_H 	H 	0.72273	0.11087	0.47517	0.09
Mof_O 	O 	0.5192	0.62881	0.00283	-0.406
Mof_O 	O 	0.5593	0.58853	0.95539	-0.403
Mof_O 	O 	0.5769	0.8684	0.7852	-0.143
Mof_C 	C 	0.5473	0.6389	0.97271	0.346
Mof_C 	C 	0.5696	0.7202	0.95522	-0.053
Mof_C 	C 	0.5998	0.7357	0.92227	-0.053
Mof_H 	H 	0.6108	0.6976	0.9113	0.076
Mof_C 	C 	0.6252	0.8531	0.8096	0.077
Mof_C 	C 	0.5979	0.8406	0.8444	-0.02
Mof_C 	C 	0.5249	0.8935	0.7963	-0.19
Mof_H 	H 	0.4972	0.9012	0.777	0.094
Mof_H 	H 	0.4844	0.8522	0.8114	0.094
Mof_H 	H 	0.5558	0.9452	0.8085	0.09
Mof_O 	O 	0.18587	0.96214	0.33616	-0.406
Mof_O 	O 	0.22597	0.92186	0.28872	-0.403
Mof_O 	O 	0.24357	0.20173	0.11853	-0.143
Mof_C 	C 	0.21397	0.97223	0.30604	0.346
Mof_C 	C 	0.23627	0.05353	0.28855	-0.052
Mof_C 	C 	0.26647	0.06903	0.2556	-0.053
Mof_H 	H 	0.27747	0.03093	0.24463	0.076
Mof_C 	C 	0.29187	0.18643	0.14293	0.077
Mof_C 	C 	0.26457	0.17393	0.17773	-0.02
Mof_C 	C 	0.19157	0.22683	0.12963	-0.19
Mof_H 	H 	0.16387	0.23453	0.11033	0.094
Mof_H 	H 	0.15107	0.18553	0.14473	0.094
Mof_H 	H 	0.22247	0.27853	0.14183	0.09
Mof_O 	O 	0.85253	0.29548	0.6695	-0.406
Mof_O 	O 	0.89263	0.2552	0.62206	-0.403
Mof_O 	O 	0.91023	0.53507	0.45187	-0.143
Mof_C 	C 	0.88063	0.30557	0.63938	0.346
Mof_C 	C 	0.90293	0.38687	0.62189	-0.053
Mof_C 	C 	0.93313	0.40237	0.58894	-0.053
Mof_H 	H 	0.94413	0.36427	0.57797	0.076
Mof_C 	C 	0.95853	0.51977	0.47627	0.077
Mof_C 	C 	0.93123	0.50727	0.51107	-0.02
Mof_C 	C 	0.85823	0.56017	0.46297	-0.19
Mof_H 	H 	0.83053	0.56787	0.44367	0.094
Mof_H 	H 	0.81773	0.51887	0.47807	0.094
Mof_H 	H 	0.88913	0.61187	0.47517	0.09
Mof_O 	O 	0.37119	0.89039	0.00283	-0.407
Mof_O 	O 	0.41147	0.97077	0.95539	-0.403
Mof_O 	O 	0.1316	0.7085	0.7852	-0.143
Mof_C 	C 	0.3611	0.9084	0.97271	0.347
Mof_C 	C 	0.2798	0.8494	0.95522	-0.053
Mof_C 	C 	0.2643	0.8641	0.92227	-0.053
Mof_H 	H 	0.3024	0.9132	0.9113	0.076
Mof_C 	C 	0.1469	0.7721	0.8096	0.077
Mof_C 	C 	0.1594	0.7573	0.8444	-0.02
Mof_C 	C 	0.1065	0.6314	0.7963	-0.19
Mof_H 	H 	0.0988	0.596	0.777	0.094
Mof_H 	H 	0.1478	0.6322	0.8114	0.094
Mof_H 	H 	0.0548	0.6106	0.8085	0.09
Mof_O 	O 	0.03786	0.22372	0.33616	-0.406
Mof_O 	O 	0.07814	0.3041	0.28872	-0.403
Mof_O 	O 	0.79827	0.04183	0.11853	-0.142
Mof_C 	C 	0.02777	0.24173	0.30604	0.346
Mof_C 	C 	0.94647	0.18273	0.28855	-0.052
Mof_C 	C 	0.93097	0.19743	0.2556	-0.053
Mof_H 	H 	0.96907	0.24653	0.24463	0.076
Mof_C 	C 	0.81357	0.10543	0.14293	0.077
Mof_C 	C 	0.82607	0.09063	0.17773	-0.02
Mof_C 	C 	0.77317	0.96473	0.12963	-0.191
Mof_H 	H 	0.76547	0.92933	0.11033	0.094
Mof_H 	H 	0.81447	0.96553	0.14473	0.094
Mof_H 	H 	0.72147	0.94393	0.14183	0.091
Mof_O 	O 	0.70452	0.55706	0.6695	-0.406
Mof_O 	O 	0.7448	0.63744	0.62206	-0.403
Mof_O 	O 	0.46493	0.37517	0.45187	-0.143
Mof_C 	C 	0.69443	0.57507	0.63938	0.346
Mof_C 	C 	0.61313	0.51607	0.62189	-0.053
Mof_C 	C 	0.59763	0.53077	0.58894	-0.053
Mof_H 	H 	0.63573	0.57987	0.57797	0.076
Mof_C 	C 	0.48023	0.43877	0.47627	0.077
Mof_C 	C 	0.49273	0.42397	0.51107	-0.02
Mof_C 	C 	0.43983	0.29807	0.46297	-0.19
Mof_H 	H 	0.43213	0.26267	0.44367	0.094
Mof_H 	H 	0.48113	0.29887	0.47807	0.094
Mof_H 	H 	0.38813	0.27727	0.47517	0.09
Mof_O 	O 	0.4808	0.10961	0.99717	-0.406
Mof_O 	O 	0.4407	0.02923	0.04461	-0.403
Mof_O 	O 	0.4231	0.2915	0.2148	-0.143
Mof_C 	C 	0.4527	0.0916	0.02729	0.346
Mof_C 	C 	0.4304	0.1506	0.04478	-0.053
Mof_C 	C 	0.4002	0.1359	0.07773	-0.053
Mof_H 	H 	0.3892	0.0868	0.0887	0.076
Mof_C 	C 	0.3748	0.2279	0.1904	0.077
Mof_C 	C 	0.4021	0.2427	0.1556	-0.02
Mof_C 	C 	0.4751	0.3686	0.2037	-0.19
Mof_H 	H 	0.5028	0.404	0.223	0.094
Mof_H 	H 	0.5156	0.3678	0.1886	0.094
Mof_H 	H 	0.4442	0.3894	0.1915	0.09
Mof_O 	O 	0.14747	0.44294	0.3305	-0.406
Mof_O 	O 	0.10737	0.36256	0.37794	-0.403
Mof_O 	O 	0.08977	0.62483	0.54813	-0.143
Mof_C 	C 	0.11937	0.42493	0.36062	0.346
Mof_C 	C 	0.09707	0.48393	0.37811	-0.053
Mof_C 	C 	0.06687	0.46923	0.41106	-0.053
Mof_H 	H 	0.05587	0.42013	0.42203	0.076
Mof_C 	C 	0.04147	0.56123	0.52373	0.077
Mof_C 	C 	0.06877	0.57603	0.48893	-0.02
Mof_C 	C 	0.14177	0.70193	0.53703	-0.19
Mof_H 	H 	0.16947	0.73733	0.55633	0.094
Mof_H 	H 	0.18227	0.70113	0.52193	0.094
Mof_H 	H 	0.11087	0.72273	0.52483	0.09
Mof_O 	O 	0.81413	0.77628	0.66384	-0.406
Mof_O 	O 	0.77403	0.6959	0.71128	-0.403
Mof_O 	O 	0.75643	0.95817	0.88147	-0.142
Mof_C 	C 	0.78603	0.75827	0.69396	0.346
Mof_C 	C 	0.76373	0.81727	0.71145	-0.053
Mof_C 	C 	0.73353	0.80257	0.7444	-0.053
Mof_H 	H 	0.72253	0.75347	0.75537	0.076
Mof_C 	C 	0.70813	0.89457	0.85707	0.077
Mof_C 	C 	0.73543	0.90937	0.82227	-0.02
Mof_C 	C 	0.80843	0.03527	0.87037	-0.19
Mof_H 	H 	0.83613	0.07067	0.88967	0.094
Mof_H 	H 	0.84893	0.03447	0.85527	0.094
Mof_H 	H 	0.77753	0.05607	0.85817	0.09
Mof_O 	O 	0.62881	0.5192	0.99717	-0.406
Mof_O 	O 	0.58853	0.5593	0.04461	-0.403
Mof_O 	O 	0.8684	0.5769	0.2148	-0.143
Mof_C 	C 	0.6389	0.5473	0.02729	0.346
Mof_C 	C 	0.7202	0.5696	0.04478	-0.053
Mof_C 	C 	0.7357	0.5998	0.07773	-0.053
Mof_H 	H 	0.6976	0.6108	0.0887	0.076
Mof_C 	C 	0.8531	0.6252	0.1904	0.077
Mof_C 	C 	0.8406	0.5979	0.1556	-0.02
Mof_C 	C 	0.8935	0.5249	0.2037	-0.19
Mof_H 	H 	0.9012	0.4972	0.223	0.094
Mof_H 	H 	0.8522	0.4844	0.1886	0.094
Mof_H 	H 	0.9452	0.5558	0.1915	0.09
Mof_O 	O 	0.29548	0.85253	0.3305	-0.406
Mof_O 	O 	0.2552	0.89263	0.37794	-0.403
Mof_O 	O 	0.53507	0.91023	0.54813	-0.143
Mof_C 	C 	0.30557	0.88063	0.36062	0.346
Mof_C 	C 	0.38687	0.90293	0.37811	-0.053
Mof_C 	C 	0.40237	0.93313	0.41106	-0.053
Mof_H 	H 	0.36427	0.94413	0.42203	0.076
Mof_C 	C 	0.51977	0.95853	0.52373	0.077
Mof_C 	C 	0.50727	0.93123	0.48893	-0.02
Mof_C 	C 	0.56017	0.85823	0.53703	-0.19
Mof_H 	H 	0.56787	0.83053	0.55633	0.094
Mof_H 	H 	0.51887	0.81773	0.52193	0.094
Mof_H 	H 	0.61187	0.88913	0.52483	0.09
Mof_O 	O 	0.96214	0.18587	0.66384	-0.406
Mof_O 	O 	0.92186	0.22597	0.71128	-0.403
Mof_O 	O 	0.20173	0.24357	0.88147	-0.143
Mof_C 	C 	0.97223	0.21397	0.69396	0.346
Mof_C 	C 	0.05353	0.23627	0.71145	-0.052
Mof_C 	C 	0.06903	0.26647	0.7444	-0.053
Mof_H 	H 	0.03093	0.27747	0.75537	0.076
Mof_C 	C 	0.18643	0.29187	0.85707	0.077
Mof_C 	C 	0.17393	0.26457	0.82227	-0.02
Mof_C 	C 	0.22683	0.19157	0.87037	-0.19
Mof_H 	H 	0.23453	0.16387	0.88967	0.094
Mof_H 	H 	0.18553	0.15107	0.85527	0.094
Mof_H 	H 	0.27853	0.22247	0.85817	0.09
Mof_O 	O 	0.89039	0.37119	0.99717	-0.407
Mof_O 	O 	0.97077	0.41147	0.04461	-0.403
Mof_O 	O 	0.7085	0.1316	0.2148	-0.143
Mof_C 	C 	0.9084	0.3611	0.02729	0.347
Mof_C 	C 	0.8494	0.2798	0.04478	-0.053
Mof_C 	C 	0.8641	0.2643	0.07773	-0.053
Mof_H 	H 	0.9132	0.3024	0.0887	0.076
Mof_C 	C 	0.7721	0.1469	0.1904	0.077
Mof_C 	C 	0.7573	0.1594	0.1556	-0.02
Mof_C 	C 	0.6314	0.1065	0.2037	-0.19
Mof_H 	H 	0.596	0.0988	0.223	0.094
Mof_H 	H 	0.6322	0.1478	0.1886	0.094
Mof_H 	H 	0.6106	0.0548	0.1915	0.09
Mof_O 	O 	0.55706	0.70452	0.3305	-0.406
Mof_O 	O 	0.63744	0.7448	0.37794	-0.403
Mof_O 	O 	0.37517	0.46493	0.54813	-0.143
Mof_C 	C 	0.57507	0.69443	0.36062	0.346
Mof_C 	C 	0.51607	0.61313	0.37811	-0.053
Mof_C 	C 	0.53077	0.59763	0.41106	-0.053
Mof_H 	H 	0.57987	0.63573	0.42203	0.076
Mof_C 	C 	0.43877	0.48023	0.52373	0.077
Mof_C 	C 	0.42397	0.49273	0.48893	-0.02
Mof_C 	C 	0.29807	0.43983	0.53703	-0.19
Mof_H 	H 	0.26267	0.43213	0.55633	0.094
Mof_H 	H 	0.29887	0.48113	0.52193	0.094
Mof_H 	H 	0.27727	0.38813	0.52483	0.09
Mof_O 	O 	0.22372	0.03786	0.66384	-0.406
Mof_O 	O 	0.3041	0.07814	0.71128	-0.403
Mof_O 	O 	0.04183	0.79827	0.88147	-0.142
Mof_C 	C 	0.24173	0.02777	0.69396	0.346
Mof_C 	C 	0.18273	0.94647	0.71145	-0.052
Mof_C 	C 	0.19743	0.93097	0.7444	-0.053
Mof_H 	H 	0.24653	0.96907	0.75537	0.076
Mof_C 	C 	0.10543	0.81357	0.85707	0.077
Mof_C 	C 	0.09063	0.82607	0.82227	-0.02
Mof_C 	C 	0.96473	0.77317	0.87037	-0.191
Mof_H 	H 	0.92933	0.76547	0.88967	0.094
Mof_H 	H 	0.96553	0.81447	0.85527	0.094
Mof_H 	H 	0.94393	0.72147	0.85817	0.091
Mof_O 	O 	0.89039	0.5192	0.99717	-0.406
Mof_O 	O 	0.97077	0.5593	0.04461	-0.403
Mof_O 	O 	0.7085	0.5769	0.2148	-0.143
Mof_C 	C 	0.9084	0.5473	0.02729	0.346
Mof_C 	C 	0.8494	0.5696	0.04478	-0.053
Mof_C 	C 	0.8641	0.5998	0.07773	-0.053
Mof_H 	H 	0.9132	0.6108	0.0887	0.076
Mof_C 	C 	0.7721	0.6252	0.1904	0.077
Mof_C 	C 	0.7573	0.5979	0.1556	-0.02
Mof_C 	C 	0.6314	0.5249	0.2037	-0.19
Mof_H 	H 	0.596	0.4972	0.223	0.094
Mof_H 	H 	0.6322	0.4844	0.1886	0.094
Mof_H 	H 	0.6106	0.5558	0.1915	0.09
Mof_O 	O 	0.55706	0.85253	0.3305	-0.406
Mof_O 	O 	0.63744	0.89263	0.37794	-0.403
Mof_O 	O 	0.37517	0.91023	0.54813	-0.143
Mof_C 	C 	0.57507	0.88063	0.36062	0.346
Mof_C 	C 	0.51607	0.90293	0.37811	-0.053
Mof_C 	C 	0.53077	0.93313	0.41106	-0.053
Mof_H 	H 	0.57987	0.94413	0.42203	0.076
Mof_C 	C 	0.43877	0.95853	0.52373	0.077
Mof_C 	C 	0.42397	0.93123	0.48893	-0.02
Mof_C 	C 	0.29807	0.85823	0.53703	-0.19
Mof_H 	H 	0.26267	0.83053	0.55633	0.094
Mof_H 	H 	0.29887	0.81773	0.52193	0.094
Mof_H 	H 	0.27727	0.88913	0.52483	0.09
Mof_O 	O 	0.22372	0.18587	0.66384	-0.406
Mof_O 	O 	0.3041	0.22597	0.71128	-0.403
Mof_O 	O 	0.04183	0.24357	0.88147	-0.142
Mof_C 	C 	0.24173	0.21397	0.69396	0.346
Mof_C 	C 	0.18273	0.23627	0.71145	-0.053
Mof_C 	C 	0.19743	0.26647	0.7444	-0.053
Mof_H 	H 	0.24653	0.27747	0.75537	0.076
Mof_C 	C 	0.10543	0.29187	0.85707	0.077
Mof_C 	C 	0.09063	0.26457	0.82227	-0.02
Mof_C 	C 	0.96473	0.19157	0.87037	-0.19
Mof_H 	H 	0.92933	0.16387	0.88967	0.094
Mof_H 	H 	0.96553	0.15107	0.85527	0.094
Mof_H 	H 	0.94393	0.22247	0.85817	0.09
Mof_O 	O 	0.4808	0.37119	0.99717	-0.406
Mof_O 	O 	0.4407	0.41147	0.04461	-0.403
Mof_O 	O 	0.4231	0.1316	0.2148	-0.143
Mof_C 	C 	0.4527	0.3611	0.02729	0.346
Mof_C 	C 	0.4304	0.2798	0.04478	-0.053
Mof_C 	C 	0.4002	0.2643	0.07773	-0.053
Mof_H 	H 	0.3892	0.3024	0.0887	0.076
Mof_C 	C 	0.3748	0.1469	0.1904	0.077
Mof_C 	C 	0.4021	0.1594	0.1556	-0.02
Mof_C 	C 	0.4751	0.1065	0.2037	-0.19
Mof_H 	H 	0.5028	0.0988	0.223	0.094
Mof_H 	H 	0.5156	0.1478	0.1886	0.094
Mof_H 	H 	0.4442	0.0548	0.1915	0.09
Mof_O 	O 	0.14747	0.70452	0.3305	-0.406
Mof_O 	O 	0.10737	0.7448	0.37794	-0.403
Mof_O 	O 	0.08977	0.46493	0.54813	-0.143
Mof_C 	C 	0.11937	0.69443	0.36062	0.346
Mof_C 	C 	0.09707	0.61313	0.37811	-0.053
Mof_C 	C 	0.06687	0.59763	0.41106	-0.053
Mof_H 	H 	0.05587	0.63573	0.42203	0.076
Mof_C 	C 	0.04147	0.48023	0.52373	0.077
Mof_C 	C 	0.06877	0.49273	0.48893	-0.02
Mof_C 	C 	0.14177	0.43983	0.53703	-0.19
Mof_H 	H 	0.16947	0.43213	0.55633	0.094
Mof_H 	H 	0.18227	0.48113	0.52193	0.094
Mof_H 	H 	0.11087	0.38813	0.52483	0.09
Mof_O 	O 	0.81413	0.03786	0.66384	-0.406
Mof_O 	O 	0.77403	0.07814	0.71128	-0.403
Mof_O 	O 	0.75643	0.79827	0.88147	-0.143
Mof_C 	C 	0.78603	0.02777	0.69396	0.346
Mof_C 	C 	0.76373	0.94647	0.71145	-0.052
Mof_C 	C 	0.73353	0.93097	0.7444	-0.053
Mof_H 	H 	0.72253	0.96907	0.75537	0.076
Mof_C 	C 	0.70813	0.81357	0.85707	0.077
Mof_C 	C 	0.73543	0.82607	0.82227	-0.02
Mof_C 	C 	0.80843	0.77317	0.87037	-0.19
Mof_H 	H 	0.83613	0.76547	0.88967	0.094
Mof_H 	H 	0.84893	0.81447	0.85527	0.094
Mof_H 	H 	0.77753	0.72147	0.85817	0.09
Mof_O 	O 	0.62881	0.10961	0.99717	-0.407
Mof_O 	O 	0.58853	0.02923	0.04461	-0.403
Mof_O 	O 	0.8684	0.2915	0.2148	-0.143
Mof_C 	C 	0.6389	0.0916	0.02729	0.347
Mof_C 	C 	0.7202	0.1506	0.04478	-0.053
Mof_C 	C 	0.7357	0.1359	0.07773	-0.053
Mof_H 	H 	0.6976	0.0868	0.0887	0.076
Mof_C 	C 	0.8531	0.2279	0.1904	0.077
Mof_C 	C 	0.8406	0.2427	0.1556	-0.02
Mof_C 	C 	0.8935	0.3686	0.2037	-0.19
Mof_H 	H 	0.9012	0.404	0.223	0.094
Mof_H 	H 	0.8522	0.3678	0.1886	0.094
Mof_H 	H 	0.9452	0.3894	0.1915	0.09
Mof_O 	O 	0.29548	0.44294	0.3305	-0.406
Mof_O 	O 	0.2552	0.36256	0.37794	-0.403
Mof_O 	O 	0.53507	0.62483	0.54813	-0.143
Mof_C 	C 	0.30557	0.42493	0.36062	0.346
Mof_C 	C 	0.38687	0.48393	0.37811	-0.053
Mof_C 	C 	0.40237	0.46923	0.41106	-0.053
Mof_H 	H 	0.36427	0.42013	0.42203	0.076
Mof_C 	C 	0.51977	0.56123	0.52373	0.077
Mof_C 	C 	0.50727	0.57603	0.48893	-0.02
Mof_C 	C 	0.56017	0.70193	0.53703	-0.19
Mof_H 	H 	0.56787	0.73733	0.55633	0.094
Mof_H 	H 	0.51887	0.70113	0.52193	0.094
Mof_H 	H 	0.61187	0.72273	0.52483	0.09
Mof_O 	O 	0.96214	0.77628	0.66384	-0.406
Mof_O 	O 	0.92186	0.6959	0.71128	-0.403
Mof_O 	O 	0.20173	0.95817	0.88147	-0.142
Mof_C 	C 	0.97223	0.75827	0.69396	0.346
Mof_C 	C 	0.05353	0.81727	0.71145	-0.052
Mof_C 	C 	0.06903	0.80257	0.7444	-0.053
Mof_H 	H 	0.03093	0.75347	0.75537	0.076
Mof_C 	C 	0.18643	0.89457	0.85707	0.077
Mof_C 	C 	0.17393	0.90937	0.82227	-0.02
Mof_C 	C 	0.22683	0.03527	0.87037	-0.191
Mof_H 	H 	0.23453	0.07067	0.88967	0.094
Mof_H 	H 	0.18553	0.03447	0.85527	0.094
Mof_H 	H 	0.27853	0.05607	0.85817	0.091
Mof_O 	O 	0.5192	0.89039	0.00283	-0.406
Mof_O 	O 	0.5593	0.97077	0.95539	-0.403
Mof_O 	O 	0.5769	0.7085	0.7852	-0.143
Mof_C 	C 	0.5473	0.9084	0.97271	0.346
Mof_C 	C 	0.5696	0.8494	0.95522	-0.053
Mof_C 	C 	0.5998	0.8641	0.92227	-0.053
Mof_H 	H 	0.6108	0.9132	0.9113	0.076
Mof_C 	C 	0.6252	0.7721	0.8096	0.077
Mof_C 	C 	0.5979	0.7573	0.8444	-0.02
Mof_C 	C 	0.5249	0.6314	0.7963	-0.19
Mof_H 	H 	0.4972	0.596	0.777	0.094
Mof_H 	H 	0.4844	0.6322	0.8114	0.094
Mof_H 	H 	0.5558	0.6106	0.8085	0.09
Mof_O 	O 	0.18587	0.22372	0.33616	-0.406
Mof_O 	O 	0.22597	0.3041	0.28872	-0.403
Mof_O 	O 	0.24357	0.04183	0.11853	-0.142
Mof_C 	C 	0.21397	0.24173	0.30604	0.346
Mof_C 	C 	0.23627	0.18273	0.28855	-0.053
Mof_C 	C 	0.26647	0.19743	0.2556	-0.053
Mof_H 	H 	0.27747	0.24653	0.24463	0.076
Mof_C 	C 	0.29187	0.10543	0.14293	0.077
Mof_C 	C 	0.26457	0.09063	0.17773	-0.02
Mof_C 	C 	0.19157	0.96473	0.12963	-0.19
Mof_H 	H 	0.16387	0.92933	0.11033	0.094
Mof_H 	H 	0.15107	0.96553	0.14473	0.094
Mof_H 	H 	0.22247	0.94393	0.14183	0.09
Mof_O 	O 	0.85253	0.55706	0.6695	-0.406
Mof_O 	O 	0.89263	0.63744	0.62206	-0.403
Mof_O 	O 	0.91023	0.37517	0.45187	-0.143
Mof_C 	C 	0.88063	0.57507	0.63938	0.346
Mof_C 	C 	0.90293	0.51607	0.62189	-0.053
Mof_C 	C 	0.93313	0.53077	0.58894	-0.053
Mof_H 	H 	0.94413	0.57987	0.57797	0.076
Mof_C 	C 	0.95853	0.43877	0.47627	0.077
Mof_C 	C 	0.93123	0.42397	0.51107	-0.02
Mof_C 	C 	0.85823	0.29807	0.46297	-0.19
Mof_H 	H 	0.83053	0.26267	0.44367	0.094
Mof_H 	H 	0.81773	0.29887	0.47807	0.094
Mof_H 	H 	0.88913	0.27727	0.47517	0.09
Mof_O 	O 	0.37119	0.4808	0.00283	-0.406
Mof_O 	O 	0.41147	0.4407	0.95539	-0.403
Mof_O 	O 	0.1316	0.4231	0.7852	-0.143
Mof_C 	C 	0.3611	0.4527	0.97271	0.346
Mof_C 	C 	0.2798	0.4304	0.95522	-0.053
Mof_C 	C 	0.2643	0.4002	0.92227	-0.053
Mof_H 	H 	0.3024	0.3892	0.9113	0.076
Mof_C 	C 	0.1469	0.3748	0.8096	0.077
Mof_C 	C 	0.1594	0.4021	0.8444	-0.02
Mof_C 	C 	0.1065	0.4751	0.7963	-0.19
Mof_H 	H 	0.0988	0.5028	0.777	0.094
Mof_H 	H 	0.1478	0.5156	0.8114	0.094
Mof_H 	H 	0.0548	0.4442	0.8085	0.09
Mof_O 	O 	0.03786	0.81413	0.33616	-0.406
Mof_O 	O 	0.07814	0.77403	0.28872	-0.403
Mof_O 	O 	0.79827	0.75643	0.11853	-0.143
Mof_C 	C 	0.02777	0.78603	0.30604	0.346
Mof_C 	C 	0.94647	0.76373	0.28855	-0.052
Mof_C 	C 	0.93097	0.73353	0.2556	-0.053
Mof_H 	H 	0.96907	0.72253	0.24463	0.076
Mof_C 	C 	0.81357	0.70813	0.14293	0.077
Mof_C 	C 	0.82607	0.73543	0.17773	-0.02
Mof_C 	C 	0.77317	0.80843	0.12963	-0.19
Mof_H 	H 	0.76547	0.83613	0.11033	0.094
Mof_H 	H 	0.81447	0.84893	0.14473	0.094
Mof_H 	H 	0.72147	0.77753	0.14183	0.09
Mof_O 	O 	0.70452	0.14747	0.6695	-0.406
Mof_O 	O 	0.7448	0.10737	0.62206	-0.403
Mof_O 	O 	0.46493	0.08977	0.45187	-0.143
Mof_C 	C 	0.69443	0.11937	0.63938	0.346
Mof_C 	C 	0.61313	0.09707	0.62189	-0.053
Mof_C 	C 	0.59763	0.06687	0.58894	-0.053
Mof_H 	H 	0.63573	0.05587	0.57797	0.076
Mof_C 	C 	0.48023	0.04147	0.47627	0.077
Mof_C 	C 	0.49273	0.06877	0.51107	-0.02
Mof_C 	C 	0.43983	0.14177	0.46297	-0.19
Mof_H 	H 	0.43213	0.16947	0.44367	0.094
Mof_H 	H 	0.48113	0.18227	0.47807	0.094
Mof_H 	H 	0.38813	0.11087	0.47517	0.09
Mof_O 	O 	0.10961	0.62881	0.00283	-0.407
Mof_O 	O 	0.02923	0.58853	0.95539	-0.403
Mof_O 	O 	0.2915	0.8684	0.7852	-0.143
Mof_C 	C 	0.0916	0.6389	0.97271	0.347
Mof_C 	C 	0.1506	0.7202	0.95522	-0.053
Mof_C 	C 	0.1359	0.7357	0.92227	-0.053
Mof_H 	H 	0.0868	0.6976	0.9113	0.076
Mof_C 	C 	0.2279	0.8531	0.8096	0.077
Mof_C 	C 	0.2427	0.8406	0.8444	-0.02
Mof_C 	C 	0.3686	0.8935	0.7963	-0.19
Mof_H 	H 	0.404	0.9012	0.777	0.094
Mof_H 	H 	0.3678	0.8522	0.8114	0.094
Mof_H 	H 	0.3894	0.9452	0.8085	0.09
Mof_O 	O 	0.77628	0.96214	0.33616	-0.406
Mof_O 	O 	0.6959	0.92186	0.28872	-0.403
Mof_O 	O 	0.95817	0.20173	0.11853	-0.142
Mof_C 	C 	0.75827	0.97223	0.30604	0.346
Mof_C 	C 	0.81727	0.05353	0.28855	-0.052
Mof_C 	C 	0.80257	0.06903	0.2556	-0.053
Mof_H 	H 	0.75347	0.03093	0.24463	0.076
Mof_C 	C 	0.89457	0.18643	0.14293	0.077
Mof_C 	C 	0.90937	0.17393	0.17773	-0.02
Mof_C 	C 	0.03527	0.22683	0.12963	-0.191
Mof_H 	H 	0.07067	0.23453	0.11033	0.094
Mof_H 	H 	0.03447	0.18553	0.14473	0.094
Mof_H 	H 	0.05607	0.27853	0.14183	0.091
Mof_O 	O 	0.44294	0.29548	0.6695	-0.406
Mof_O 	O 	0.36256	0.2552	0.62206	-0.403
Mof_O 	O 	0.62483	0.53507	0.45187	-0.143
Mof_C 	C 	0.42493	0.30557	0.63938	0.346
Mof_C 	C 	0.48393	0.38687	0.62189	-0.053
Mof_C 	C 	0.46923	0.40237	0.58894	-0.053
Mof_H 	H 	0.42013	0.36427	0.57797	0.076
Mof_C 	C 	0.56123	0.51977	0.47627	0.077
Mof_C 	C 	0.57603	0.50727	0.51107	-0.02
Mof_C 	C 	0.70193	0.56017	0.46297	-0.19
Mof_H 	H 	0.73733	0.56787	0.44367	0.094
Mof_H 	H 	0.70113	0.51887	0.47807	0.094
Mof_H 	H 	0.72273	0.61187	0.47517	0.09
Mof_Cu	Cu	0.04785	0.52393	0.02758	0.904
Mof_Cu	Cu	0.71452	0.85726	0.36091	0.904
Mof_Cu	Cu	0.38118	0.19059	0.69425	0.904
Mof_Cu	Cu	0.47607	0.52393	0.02758	0.904
Mof_Cu	Cu	0.14274	0.85726	0.36091	0.904
Mof_Cu	Cu	0.80941	0.19059	0.69425	0.904
Mof_Cu	Cu	0.47607	0.95215	0.02758	0.904
Mof_Cu	Cu	0.14274	0.28548	0.36091	0.904
Mof_Cu	Cu	0.80941	0.61882	0.69425	0.904
Mof_Cu	Cu	0.52393	0.04785	0.97242	0.904
Mof_Cu	Cu	0.19059	0.38118	0.30575	0.904
Mof_Cu	Cu	0.85726	0.71452	0.63909	0.904
Mof_Cu	Cu	0.52393	0.47607	0.97242	0.904
Mof_Cu	Cu	0.19059	0.80941	0.30575	0.904
Mof_Cu	Cu	0.85726	0.14274	0.63909	0.904
Mof_Cu	Cu	0.95215	0.47607	0.97242	0.904
Mof_Cu	Cu	0.61882	0.80941	0.30575	0.904
Mof_Cu	Cu	0.28548	0.14274	0.63909	0.904
Mof_C 	C 	0.22255	0.4451	0.97205	0
Mof_H 	H 	0.2324	0.4648	0.9946	0.062
Mof_C 	C 	0.1928	0.3856	0.90484	0.063
Mof_C 	C 	0.17945	0.3589	0.86769	-0.048
Mof_C 	C 	0.88922	0.77843	0.30538	-0
Mof_H 	H 	0.89907	0.79813	0.32793	0.062
Mof_C 	C 	0.85947	0.71893	0.23817	0.063
Mof_C 	C 	0.84612	0.69223	0.20102	-0.048
Mof_C 	C 	0.55588	0.11177	0.63872	0
Mof_H 	H 	0.56573	0.13147	0.66127	0.062
Mof_C 	C 	0.52613	0.05227	0.57151	0.063
Mof_C 	C 	0.51278	0.02557	0.53436	-0.048
Mof_C 	C 	0.5549	0.77745	0.97205	0
Mof_H 	H 	0.5352	0.7676	0.9946	0.062
Mof_C 	C 	0.6144	0.8072	0.90484	0.063
Mof_C 	C 	0.6411	0.82055	0.86769	-0.048
Mof_C 	C 	0.22157	0.11078	0.30538	-0
Mof_H 	H 	0.20187	0.10093	0.32793	0.062
Mof_C 	C 	0.28107	0.14053	0.23817	0.063
Mof_C 	C 	0.30777	0.15388	0.20102	-0.048
Mof_C 	C 	0.88823	0.44412	0.63872	0
Mof_H 	H 	0.86853	0.43427	0.66127	0.062
Mof_C 	C 	0.94773	0.47387	0.57151	0.063
Mof_C 	C 	0.97443	0.48722	0.53436	-0.048
Mof_C 	C 	0.22255	0.77745	0.97205	0
Mof_H 	H 	0.2324	0.7676	0.9946	0.062
Mof_C 	C 	0.1928	0.8072	0.90484	0.062
Mof_C 	C 	0.17945	0.82055	0.86769	-0.048
Mof_C 	C 	0.88922	0.11078	0.30538	-0
Mof_H 	H 	0.89907	0.10093	0.32793	0.062
Mof_C 	C 	0.85947	0.14053	0.23817	0.063
Mof_C 	C 	0.84612	0.15388	0.20102	-0.048
Mof_C 	C 	0.55588	0.44412	0.63872	0
Mof_H 	H 	0.56573	0.43427	0.66127	0.062
Mof_C 	C 	0.52613	0.47387	0.57151	0.063
Mof_C 	C 	0.51278	0.48722	0.53436	-0.048
Mof_C 	C 	0.4451	0.22255	0.02795	0
Mof_H 	H 	0.4648	0.2324	0.0054	0.062
Mof_C 	C 	0.3856	0.1928	0.09516	0.063
Mof_C 	C 	0.3589	0.17945	0.13231	-0.048
Mof_C 	C 	0.11177	0.55588	0.36128	0
Mof_H 	H 	0.13147	0.56573	0.33873	0.062
Mof_C 	C 	0.05227	0.52613	0.42849	0.063
Mof_C 	C 	0.02557	0.51278	0.46564	-0.048
Mof_C 	C 	0.77843	0.88922	0.69462	-0
Mof_H 	H 	0.79813	0.89907	0.67207	0.062
Mof_C 	C 	0.71893	0.85947	0.76183	0.063
Mof_C 	C 	0.69223	0.84612	0.79898	-0.048
Mof_C 	C 	0.77745	0.5549	0.02795	0
Mof_H 	H 	0.7676	0.5352	0.0054	0.062
Mof_C 	C 	0.8072	0.6144	0.09516	0.063
Mof_C 	C 	0.82055	0.6411	0.13231	-0.048
Mof_C 	C 	0.44412	0.88823	0.36128	0
Mof_H 	H 	0.43427	0.86853	0.33873	0.062
Mof_C 	C 	0.47387	0.94773	0.42849	0.063
Mof_C 	C 	0.48722	0.97443	0.46564	-0.048
Mof_C 	C 	0.11078	0.22157	0.69462	-0
Mof_H 	H 	0.10093	0.20187	0.67207	0.062
Mof_C 	C 	0.14053	0.28107	0.76183	0.063
Mof_C 	C 	0.15388	0.30777	0.79898	-0.048
Mof_C 	C 	0.77745	0.22255	0.02795	0
Mof_H 	H 	0.7676	0.2324	0.0054	0.062
Mof_C 	C 	0.8072	0.1928	0.09516	0.062
Mof_C 	C 	0.82055	0.17945	0.13231	-0.048
Mof_C 	C 	0.44412	0.55588	0.36128	0
Mof_H 	H 	0.43427	0.56573	0.33873	0.062
Mof_C 	C 	0.47387	0.52613	0.42849	0.063
Mof_C 	C 	0.48722	0.51278	0.46564	-0.048
Mof_C 	C 	0.11078	0.88922	0.69462	-0
Mof_H 	H 	0.10093	0.89907	0.67207	0.062
Mof_C 	C 	0.14053	0.85947	0.76183	0.063
Mof_C 	C 	0.15388	0.84612	0.79898	-0.048
_end
