data_functionalizedCrystal
_audit_creation_method	'EQeq! by Chris Wilmer'
_symmetry_space_group_name_H-M	'P1'
_symmetry_Int_Tables_number	1
_symmetry_cell_setting	triclinic
loop_
_symmetry_equiv_pos_as_xyz
  x,y,z
_cell_length_a	15.833
_cell_length_b	16.086
_cell_length_c	22.67
_cell_angle_alpha	90
_cell_angle_beta	90
_cell_angle_gamma	90
loop_
_atom_site_label
_atom_site_type_symbol
_atom_site_fract_x
_atom_site_fract_y
_atom_site_fract_z
_atom_site_charge
Mof_Zn	Zn	0.68767	0.56107	0.25923	1.218
Mof_Zn	Zn	0.83456	0.44472	0.25228	1.22
Mof_Zn	Zn	0.18767	0.43893	0.74077	1.218
Mof_Zn	Zn	0.33456	0.55528	0.74772	1.221
Mof_Zn	Zn	0.68767	0.43893	0.75923	1.218
Mof_Zn	Zn	0.83456	0.55528	0.75228	1.22
Mof_Zn	Zn	0.18767	0.56107	0.24077	1.218
Mof_Zn	Zn	0.33456	0.44472	0.24772	1.221
Mof_H 	H 	0.7782	0.7186	0.1177	0.035
Mof_H 	H 	0.8408	0.8017	0.0457	0.249
Mof_H 	H 	0.039	0.6423	0.039	0.18
Mof_H 	H 	0.9779	0.563	0.1121	-0.015
Mof_H 	H 	0.9393	0.6576	0.9282	0.178
Mof_H 	H 	0.0043	0.5706	0.859	-0.008
Mof_H 	H 	0.2202	0.7042	0.8744	0.009
Mof_H 	H 	0.1553	0.7888	0.9446	0.239
Mof_H 	H 	0.7553	0.2842	0.3894	0.05
Mof_H 	H 	0.6997	0.1942	0.4611	0.233
Mof_H 	H 	0.4819	0.3294	0.4596	0.158
Mof_H 	H 	0.5401	0.4193	0.3904	0.001
Mof_H 	H 	0.5898	0.3251	0.5754	0.172
Mof_H 	H 	0.5192	0.4125	0.6401	-0.003
Mof_H 	H 	0.308	0.2762	0.6204	0.015
Mof_H 	H 	0.3777	0.187	0.5564	0.241
Mof_H 	H 	0.723	0.7335	0.2734	0.01
Mof_H 	H 	0.6595	0.8625	0.2864	0.145
Mof_H 	H 	0.4328	0.7494	0.2719	0.108
Mof_H 	H 	0.5034	0.6215	0.2649	-0.003
Mof_H 	H 	0.4367	0.905	0.2809	0.098
Mof_H 	H 	0.5895	0.1061	0.2746	0.096
Mof_H 	H 	0.5889	0.2614	0.2766	0.109
Mof_H 	H 	0.5185	0.386	0.269	-0.002
Mof_H 	H 	0.3016	0.267	0.2494	0.011
Mof_H 	H 	0.3671	0.1408	0.2588	0.145
Mof_H 	H 	0.2782	0.2814	0.8823	0.039
Mof_H 	H 	0.3408	0.1983	0.9543	0.243
Mof_H 	H 	0.539	0.3577	0.961	0.161
Mof_H 	H 	0.4779	0.437	0.8879	-0.006
Mof_H 	H 	0.4393	0.3424	0.0718	0.164
Mof_H 	H 	0.5043	0.4294	0.141	-0
Mof_H 	H 	0.7202	0.2958	0.1256	0.014
Mof_H 	H 	0.6553	0.2112	0.0554	0.231
Mof_H 	H 	0.2553	0.7158	0.6106	0.054
Mof_H 	H 	0.1997	0.8058	0.5389	0.228
Mof_H 	H 	0.9819	0.6706	0.5404	0.142
Mof_H 	H 	0.0401	0.5807	0.6096	0.011
Mof_H 	H 	0.0898	0.6749	0.4246	0.15
Mof_H 	H 	0.0192	0.5875	0.3599	0.025
Mof_H 	H 	0.808	0.7238	0.3796	0.026
Mof_H 	H 	0.8777	0.813	0.4436	0.228
Mof_H 	H 	0.223	0.2665	0.7266	0.006
Mof_H 	H 	0.1595	0.1375	0.7136	0.154
Mof_H 	H 	0.9328	0.2506	0.7281	0.121
Mof_H 	H 	0.0034	0.3785	0.7351	-0.008
Mof_H 	H 	0.9367	0.095	0.7191	0.107
Mof_H 	H 	0.0895	0.8939	0.7254	0.085
Mof_H 	H 	0.0889	0.7386	0.7234	0.091
Mof_H 	H 	0.0185	0.614	0.731	0.02
Mof_H 	H 	0.8016	0.733	0.7506	0.016
Mof_H 	H 	0.8671	0.8592	0.7412	0.134
Mof_H 	H 	0.7782	0.2814	0.6177	0.034
Mof_H 	H 	0.8408	0.1983	0.5457	0.248
Mof_H 	H 	0.039	0.3577	0.539	0.178
Mof_H 	H 	0.9779	0.437	0.6121	-0.016
Mof_H 	H 	0.9393	0.3424	0.4282	0.179
Mof_H 	H 	0.0043	0.4294	0.359	-0.01
Mof_H 	H 	0.2202	0.2958	0.3744	0.007
Mof_H 	H 	0.1553	0.2112	0.4446	0.24
Mof_H 	H 	0.7553	0.7158	0.8894	0.05
Mof_H 	H 	0.6997	0.8058	0.9611	0.233
Mof_H 	H 	0.4819	0.6706	0.9596	0.158
Mof_H 	H 	0.5401	0.5807	0.8904	0.001
Mof_H 	H 	0.5898	0.6749	0.0754	0.172
Mof_H 	H 	0.5192	0.5875	0.1401	-0.003
Mof_H 	H 	0.308	0.7238	0.1204	0.015
Mof_H 	H 	0.3777	0.813	0.0564	0.241
Mof_H 	H 	0.723	0.2665	0.7734	0.01
Mof_H 	H 	0.6595	0.1375	0.7864	0.145
Mof_H 	H 	0.4328	0.2506	0.7719	0.108
Mof_H 	H 	0.5034	0.3785	0.7649	-0.003
Mof_H 	H 	0.4367	0.095	0.7809	0.098
Mof_H 	H 	0.5895	0.8939	0.7746	0.096
Mof_H 	H 	0.5889	0.7386	0.7766	0.109
Mof_H 	H 	0.5185	0.614	0.769	-0.002
Mof_H 	H 	0.3016	0.733	0.7494	0.011
Mof_H 	H 	0.3671	0.8592	0.7588	0.145
Mof_H 	H 	0.2782	0.7186	0.3823	0.039
Mof_H 	H 	0.3408	0.8017	0.4543	0.244
Mof_H 	H 	0.539	0.6423	0.461	0.161
Mof_H 	H 	0.4779	0.563	0.3879	-0.006
Mof_H 	H 	0.4393	0.6576	0.5718	0.164
Mof_H 	H 	0.5043	0.5706	0.641	-0
Mof_H 	H 	0.7202	0.7042	0.6256	0.014
Mof_H 	H 	0.6553	0.7888	0.5554	0.231
Mof_H 	H 	0.2553	0.2842	0.1106	0.054
Mof_H 	H 	0.1997	0.1942	0.0389	0.229
Mof_H 	H 	0.9819	0.3294	0.0404	0.141
Mof_H 	H 	0.0401	0.4193	0.1096	0.011
Mof_H 	H 	0.0898	0.3251	0.9246	0.152
Mof_H 	H 	0.0192	0.4125	0.8599	0.022
Mof_H 	H 	0.808	0.2762	0.8796	0.025
Mof_H 	H 	0.8777	0.187	0.9436	0.23
Mof_H 	H 	0.223	0.7335	0.2266	0.005
Mof_H 	H 	0.1595	0.8625	0.2136	0.154
Mof_H 	H 	0.9328	0.7494	0.2281	0.122
Mof_H 	H 	0.0034	0.6215	0.2351	-0.009
Mof_H 	H 	0.9367	0.905	0.2191	0.108
Mof_H 	H 	0.0895	0.1061	0.2254	0.084
Mof_H 	H 	0.0889	0.2614	0.2234	0.089
Mof_H 	H 	0.0185	0.386	0.231	0.022
Mof_H 	H 	0.8016	0.267	0.2506	0.017
Mof_H 	H 	0.8671	0.1408	0.2412	0.133
Mof_C 	C 	0.8338	0.5797	0.1697	0.433
Mof_C 	C 	0.8707	0.6323	0.123	-0.228
Mof_C 	C 	0.8317	0.7032	0.1021	0.2
Mof_C 	C 	0.8687	0.7528	0.0589	-0.291
Mof_C 	C 	0.9463	0.7308	0.0352	0.382
Mof_C 	C 	0.9863	0.6586	0.0553	-0.321
Mof_C 	C 	0.9495	0.6113	0.0984	0.204
Mof_C 	C 	0.9943	0.7864	0.9901	-0.533
Mof_C 	C 	0.0552	0.8411	0.0261	0.988
Mof_C 	C 	0.9359	0.8448	0.9548	0.97
Mof_C 	C 	0.0404	0.7321	0.9444	0.403
Mof_C 	C 	0.9967	0.667	0.9178	-0.324
Mof_C 	C 	0.0349	0.6153	0.8762	0.206
Mof_C 	C 	0.1179	0.6297	0.8603	-0.219
Mof_C 	C 	0.1632	0.6944	0.8855	0.207
Mof_C 	C 	0.1242	0.7447	0.9272	-0.299
Mof_C 	C 	0.162	0.5738	0.8163	0.426
Mof_C 	C 	0.6929	0.4185	0.3384	0.408
Mof_C 	C 	0.6538	0.3607	0.3845	-0.182
Mof_C 	C 	0.7002	0.2936	0.4046	0.157
Mof_C 	C 	0.6671	0.2396	0.447	-0.244
Mof_C 	C 	0.5848	0.2533	0.4684	0.34
Mof_C 	C 	0.5379	0.3205	0.4461	-0.261
Mof_C 	C 	0.5722	0.3738	0.4048	0.159
Mof_C 	C 	0.5416	0.1956	0.5136	-0.49
Mof_C 	C 	0.4833	0.1365	0.4767	0.961
Mof_C 	C 	0.6044	0.1424	0.5489	0.969
Mof_C 	C 	0.49	0.2484	0.5575	0.372
Mof_C 	C 	0.5319	0.3155	0.584	-0.292
Mof_C 	C 	0.49	0.3674	0.6223	0.187
Mof_C 	C 	0.4049	0.3543	0.6352	-0.222
Mof_C 	C 	0.3654	0.2868	0.6108	0.207
Mof_C 	C 	0.4066	0.2336	0.5725	-0.295
Mof_C 	C 	0.358	0.4136	0.6741	0.43
Mof_C 	C 	0.6631	0.737	0.2741	0.123
Mof_C 	C 	0.6258	0.8144	0.2805	-0.13
Mof_C 	C 	0.5384	0.8203	0.2782	0.165
Mof_C 	C 	0.4928	0.7478	0.2727	-0.152
Mof_C 	C 	0.5353	0.6712	0.2683	0.118
Mof_C 	C 	0.4965	0.9017	0.2794	0.016
Mof_C 	C 	0.5295	0.1074	0.2736	0.011
Mof_C 	C 	0.4853	0.1875	0.2686	0.165
Mof_C 	C 	0.5294	0.2618	0.2713	-0.159
Mof_C 	C 	0.4875	0.3356	0.2663	0.118
Mof_C 	C 	0.361	0.2656	0.2552	0.123
Mof_C 	C 	0.3993	0.1906	0.2606	-0.141
Mof_C 	C 	0.3338	0.4203	0.8303	0.428
Mof_C 	C 	0.3707	0.3677	0.877	-0.214
Mof_C 	C 	0.3317	0.2968	0.8979	0.187
Mof_C 	C 	0.3687	0.2472	0.9411	-0.276
Mof_C 	C 	0.4463	0.2692	0.9648	0.363
Mof_C 	C 	0.4863	0.3414	0.9447	-0.286
Mof_C 	C 	0.4495	0.3887	0.9016	0.183
Mof_C 	C 	0.4943	0.2136	0.0099	-0.505
Mof_C 	C 	0.5552	0.1589	0.9739	0.973
Mof_C 	C 	0.4359	0.1552	0.0452	0.964
Mof_C 	C 	0.5404	0.2679	0.0556	0.365
Mof_C 	C 	0.4967	0.333	0.0822	-0.279
Mof_C 	C 	0.5349	0.3847	0.1238	0.171
Mof_C 	C 	0.6179	0.3703	0.1397	-0.201
Mof_C 	C 	0.6632	0.3056	0.1145	0.187
Mof_C 	C 	0.6242	0.2553	0.0728	-0.275
Mof_C 	C 	0.662	0.4262	0.1837	0.42
Mof_C 	C 	0.1929	0.5815	0.6616	0.405
Mof_C 	C 	0.1538	0.6393	0.6155	-0.17
Mof_C 	C 	0.2002	0.7064	0.5954	0.146
Mof_C 	C 	0.1671	0.7604	0.553	-0.229
Mof_C 	C 	0.0848	0.7467	0.5316	0.321
Mof_C 	C 	0.0379	0.6795	0.5539	-0.228
Mof_C 	C 	0.0722	0.6262	0.5952	0.14
Mof_C 	C 	0.0416	0.8044	0.4864	-0.459
Mof_C 	C 	0.9833	0.8635	0.5233	0.942
Mof_C 	C 	0.1044	0.8576	0.4511	0.961
Mof_C 	C 	0.99	0.7516	0.4425	0.322
Mof_C 	C 	0.0319	0.6845	0.416	-0.225
Mof_C 	C 	0.99	0.6326	0.3777	0.12
Mof_C 	C 	0.9049	0.6457	0.3648	-0.188
Mof_C 	C 	0.8654	0.7132	0.3892	0.173
Mof_C 	C 	0.9066	0.7664	0.4275	-0.258
Mof_C 	C 	0.858	0.5864	0.3259	0.417
Mof_C 	C 	0.1631	0.263	0.7259	0.137
Mof_C 	C 	0.1258	0.1856	0.7195	-0.152
Mof_C 	C 	0.0384	0.1797	0.7218	0.205
Mof_C 	C 	0.9928	0.2522	0.7273	-0.196
Mof_C 	C 	0.0353	0.3288	0.7317	0.146
Mof_C 	C 	0.9965	0.0983	0.7206	-0.017
Mof_C 	C 	0.0295	0.8926	0.7264	0.048
Mof_C 	C 	0.9853	0.8125	0.7314	0.117
Mof_C 	C 	0.0294	0.7382	0.7287	-0.1
Mof_C 	C 	0.9875	0.6644	0.7337	0.067
Mof_C 	C 	0.861	0.7344	0.7448	0.105
Mof_C 	C 	0.8993	0.8094	0.7394	-0.111
Mof_C 	C 	0.8338	0.4203	0.6697	0.432
Mof_C 	C 	0.8707	0.3677	0.623	-0.227
Mof_C 	C 	0.8317	0.2968	0.6021	0.2
Mof_C 	C 	0.8687	0.2472	0.5589	-0.291
Mof_C 	C 	0.9463	0.2692	0.5352	0.382
Mof_C 	C 	0.9863	0.3414	0.5553	-0.319
Mof_C 	C 	0.9495	0.3887	0.5984	0.203
Mof_C 	C 	0.9943	0.2136	0.4901	-0.534
Mof_C 	C 	0.0552	0.1589	0.5261	0.986
Mof_C 	C 	0.9359	0.1552	0.4548	0.97
Mof_C 	C 	0.0404	0.2679	0.4444	0.406
Mof_C 	C 	0.9967	0.333	0.4178	-0.328
Mof_C 	C 	0.0349	0.3847	0.3762	0.209
Mof_C 	C 	0.1179	0.3703	0.3603	-0.221
Mof_C 	C 	0.1632	0.3056	0.3855	0.209
Mof_C 	C 	0.1242	0.2553	0.4272	-0.301
Mof_C 	C 	0.162	0.4262	0.3163	0.427
Mof_C 	C 	0.6929	0.5815	0.8384	0.408
Mof_C 	C 	0.6538	0.6393	0.8845	-0.182
Mof_C 	C 	0.7002	0.7064	0.9046	0.156
Mof_C 	C 	0.6671	0.7604	0.947	-0.243
Mof_C 	C 	0.5848	0.7467	0.9684	0.339
Mof_C 	C 	0.5379	0.6795	0.9461	-0.261
Mof_C 	C 	0.5722	0.6262	0.9048	0.159
Mof_C 	C 	0.5416	0.8044	0.0136	-0.489
Mof_C 	C 	0.4833	0.8635	0.9767	0.96
Mof_C 	C 	0.6044	0.8576	0.0489	0.968
Mof_C 	C 	0.49	0.7516	0.0575	0.371
Mof_C 	C 	0.5319	0.6845	0.084	-0.292
Mof_C 	C 	0.49	0.6326	0.1223	0.186
Mof_C 	C 	0.4049	0.6457	0.1352	-0.221
Mof_C 	C 	0.3654	0.7132	0.1108	0.207
Mof_C 	C 	0.4066	0.7664	0.0725	-0.295
Mof_C 	C 	0.358	0.5864	0.1741	0.43
Mof_C 	C 	0.6631	0.263	0.7741	0.123
Mof_C 	C 	0.6258	0.1856	0.7805	-0.13
Mof_C 	C 	0.5384	0.1797	0.7782	0.165
Mof_C 	C 	0.4928	0.2522	0.7727	-0.152
Mof_C 	C 	0.5353	0.3288	0.7683	0.118
Mof_C 	C 	0.4965	0.0983	0.7794	0.016
Mof_C 	C 	0.5295	0.8926	0.7736	0.011
Mof_C 	C 	0.4853	0.8125	0.7686	0.165
Mof_C 	C 	0.5294	0.7382	0.7713	-0.159
Mof_C 	C 	0.4875	0.6644	0.7663	0.118
Mof_C 	C 	0.361	0.7344	0.7552	0.123
Mof_C 	C 	0.3993	0.8094	0.7606	-0.141
Mof_C 	C 	0.3338	0.5797	0.3303	0.428
Mof_C 	C 	0.3707	0.6323	0.377	-0.215
Mof_C 	C 	0.3317	0.7032	0.3979	0.188
Mof_C 	C 	0.3687	0.7528	0.4411	-0.276
Mof_C 	C 	0.4463	0.7308	0.4648	0.364
Mof_C 	C 	0.4863	0.6586	0.4447	-0.287
Mof_C 	C 	0.4495	0.6113	0.4016	0.184
Mof_C 	C 	0.4943	0.7864	0.5099	-0.506
Mof_C 	C 	0.5552	0.8411	0.4739	0.974
Mof_C 	C 	0.4359	0.8448	0.5452	0.964
Mof_C 	C 	0.5404	0.7321	0.5556	0.366
Mof_C 	C 	0.4967	0.667	0.5822	-0.279
Mof_C 	C 	0.5349	0.6153	0.6238	0.171
Mof_C 	C 	0.6179	0.6297	0.6397	-0.201
Mof_C 	C 	0.6632	0.6944	0.6145	0.187
Mof_C 	C 	0.6242	0.7447	0.5728	-0.275
Mof_C 	C 	0.662	0.5738	0.6837	0.42
Mof_C 	C 	0.1929	0.4185	0.1616	0.405
Mof_C 	C 	0.1538	0.3607	0.1155	-0.171
Mof_C 	C 	0.2002	0.2936	0.0954	0.146
Mof_C 	C 	0.1671	0.2396	0.053	-0.23
Mof_C 	C 	0.0848	0.2533	0.0316	0.323
Mof_C 	C 	0.0379	0.3205	0.0539	-0.228
Mof_C 	C 	0.0722	0.3738	0.0952	0.14
Mof_C 	C 	0.0416	0.1956	0.9864	-0.462
Mof_C 	C 	0.9833	0.1365	0.0233	0.943
Mof_C 	C 	0.1044	0.1424	0.9511	0.962
Mof_C 	C 	0.99	0.2484	0.9425	0.327
Mof_C 	C 	0.0319	0.3155	0.916	-0.232
Mof_C 	C 	0.99	0.3674	0.8777	0.126
Mof_C 	C 	0.9049	0.3543	0.8648	-0.191
Mof_C 	C 	0.8654	0.2868	0.8892	0.176
Mof_C 	C 	0.9066	0.2336	0.9275	-0.262
Mof_C 	C 	0.858	0.4136	0.8259	0.418
Mof_C 	C 	0.1631	0.737	0.2259	0.139
Mof_C 	C 	0.1258	0.8144	0.2195	-0.154
Mof_C 	C 	0.0384	0.8203	0.2218	0.209
Mof_C 	C 	0.9928	0.7478	0.2273	-0.2
Mof_C 	C 	0.0353	0.6712	0.2317	0.148
Mof_C 	C 	0.9965	0.9017	0.2206	-0.021
Mof_C 	C 	0.0295	0.1074	0.2264	0.051
Mof_C 	C 	0.9853	0.1875	0.2314	0.112
Mof_C 	C 	0.0294	0.2618	0.2287	-0.095
Mof_C 	C 	0.9875	0.3356	0.2337	0.063
Mof_C 	C 	0.861	0.2656	0.2448	0.104
Mof_C 	C 	0.8993	0.1906	0.2394	-0.109
Mof_N 	N 	0.6185	0.6671	0.2688	-0.254
Mof_N 	N 	0.5409	0.9682	0.2782	-0.022
Mof_N 	N 	0.4874	0.0388	0.2766	-0.023
Mof_N 	N 	0.4036	0.3387	0.2577	-0.252
Mof_N 	N 	0.1185	0.3329	0.7312	-0.261
Mof_N 	N 	0.0409	0.0318	0.7218	-0.01
Mof_N 	N 	0.9874	0.9612	0.7234	-0.036
Mof_N 	N 	0.9036	0.6613	0.7423	-0.241
Mof_N 	N 	0.6185	0.3329	0.7688	-0.254
Mof_N 	N 	0.5409	0.0318	0.7782	-0.022
Mof_N 	N 	0.4874	0.9612	0.7766	-0.023
Mof_N 	N 	0.4036	0.6613	0.7577	-0.252
Mof_N 	N 	0.1185	0.6671	0.2312	-0.262
Mof_N 	N 	0.0409	0.9682	0.2218	-0.009
Mof_N 	N 	0.9874	0.0388	0.2234	-0.037
Mof_N 	N 	0.9036	0.3387	0.2423	-0.241
Mof_O 	O 	0.7629	0.6041	0.191	-0.454
Mof_O 	O 	0.8729	0.5167	0.185	-0.472
Mof_O 	O 	0.2334	0.5957	0.7992	-0.475
Mof_O 	O 	0.1237	0.5085	0.8012	-0.449
Mof_O 	O 	0.7665	0.4017	0.3226	-0.46
Mof_O 	O 	0.6477	0.4788	0.3214	-0.454
Mof_O 	O 	0.3969	0.4766	0.6935	-0.455
Mof_O 	O 	0.2823	0.3973	0.6852	-0.469
Mof_O 	O 	0.2629	0.3959	0.809	-0.453
Mof_O 	O 	0.3729	0.4833	0.815	-0.469
Mof_O 	O 	0.7334	0.4043	0.2008	-0.473
Mof_O 	O 	0.6237	0.4915	0.1988	-0.447
Mof_O 	O 	0.2665	0.5983	0.6774	-0.458
Mof_O 	O 	0.1477	0.5212	0.6786	-0.453
Mof_O 	O 	0.8969	0.5234	0.3065	-0.454
Mof_O 	O 	0.7823	0.6027	0.3148	-0.466
Mof_O 	O 	0.7629	0.3959	0.691	-0.454
Mof_O 	O 	0.8729	0.4833	0.685	-0.472
Mof_O 	O 	0.2334	0.4043	0.2992	-0.475
Mof_O 	O 	0.1237	0.4915	0.3012	-0.449
Mof_O 	O 	0.7665	0.5983	0.8226	-0.46
Mof_O 	O 	0.6477	0.5212	0.8214	-0.454
Mof_O 	O 	0.3969	0.5234	0.1935	-0.455
Mof_O 	O 	0.2823	0.6027	0.1852	-0.469
Mof_O 	O 	0.2629	0.6041	0.309	-0.453
Mof_O 	O 	0.3729	0.5167	0.315	-0.469
Mof_O 	O 	0.7334	0.5957	0.7008	-0.473
Mof_O 	O 	0.6237	0.5085	0.6988	-0.447
Mof_O 	O 	0.2665	0.4017	0.1774	-0.458
Mof_O 	O 	0.1477	0.4788	0.1786	-0.453
Mof_O 	O 	0.8969	0.4766	0.8065	-0.455
Mof_O 	O 	0.7823	0.3973	0.8148	-0.467
Mof_F 	F 	0.0145	0.8781	0.0711	-0.428
Mof_F 	F 	0.1165	0.7955	0.05107	-0.5
Mof_F 	F 	0.0908	0.9016	0.9954	-0.406
Mof_F 	F 	0.9768	0.8807	0.90977	-0.433
Mof_F 	F 	0.9018	0.9057	0.9866	-0.405
Mof_F 	F 	0.8706	0.8024	0.9305	-0.504
Mof_F 	F 	0.421	0.1767	0.4508	-0.5
Mof_F 	F 	0.5281	0.0997	0.4332	-0.417
Mof_F 	F 	0.4505	0.0745	0.5093	-0.387
Mof_F 	F 	0.6405	0.082	0.5169	-0.399
Mof_F 	F 	0.5652	0.1028	0.59407	-0.421
Mof_F 	F 	0.6654	0.1875	0.57267	-0.517
Mof_F 	F 	0.5145	0.1219	0.9289	-0.43
Mof_F 	F 	0.6165	0.2045	0.94893	-0.499
Mof_F 	F 	0.5908	0.0984	0.0046	-0.404
Mof_F 	F 	0.4768	0.1193	0.09023	-0.429
Mof_F 	F 	0.4018	0.0943	0.0134	-0.402
Mof_F 	F 	0.3706	0.1976	0.0695	-0.502
Mof_F 	F 	0.921	0.8233	0.5492	-0.499
Mof_F 	F 	0.0281	0.9003	0.5668	-0.41
Mof_F 	F 	0.9505	0.9255	0.4907	-0.386
Mof_F 	F 	0.1405	0.918	0.4831	-0.396
Mof_F 	F 	0.0652	0.8972	0.40593	-0.417
Mof_F 	F 	0.1654	0.8125	0.42733	-0.515
Mof_F 	F 	0.0145	0.1219	0.5711	-0.428
Mof_F 	F 	0.1165	0.2045	0.55107	-0.501
Mof_F 	F 	0.0908	0.0984	0.4954	-0.404
Mof_F 	F 	0.9768	0.1193	0.40977	-0.433
Mof_F 	F 	0.9018	0.0943	0.4866	-0.405
Mof_F 	F 	0.8706	0.1976	0.4305	-0.504
Mof_F 	F 	0.421	0.8233	0.9508	-0.5
Mof_F 	F 	0.5281	0.9003	0.9332	-0.417
Mof_F 	F 	0.4505	0.9255	0.0093	-0.386
Mof_F 	F 	0.6405	0.918	0.0169	-0.399
Mof_F 	F 	0.5652	0.8972	0.09407	-0.421
Mof_F 	F 	0.6654	0.8125	0.07267	-0.517
Mof_F 	F 	0.5145	0.8781	0.4289	-0.43
Mof_F 	F 	0.6165	0.7955	0.44893	-0.5
Mof_F 	F 	0.5908	0.9016	0.5046	-0.404
Mof_F 	F 	0.4768	0.8807	0.59023	-0.429
Mof_F 	F 	0.4018	0.9057	0.5134	-0.403
Mof_F 	F 	0.3706	0.8024	0.5695	-0.502
Mof_F 	F 	0.921	0.1767	0.0492	-0.499
Mof_F 	F 	0.0281	0.0997	0.0668	-0.409
Mof_F 	F 	0.9505	0.0745	0.9907	-0.386
Mof_F 	F 	0.1405	0.082	0.9831	-0.397
Mof_F 	F 	0.0652	0.1028	0.90593	-0.417
Mof_F 	F 	0.1654	0.1875	0.92733	-0.515
_end
