data_functionalizedCrystal
_audit_creation_method	'EQeq! by Chris Wilmer'
_symmetry_space_group_name_H-M	'P1'
_symmetry_Int_Tables_number	1
_symmetry_cell_setting	triclinic
loop_
_symmetry_equiv_pos_as_xyz
  x,y,z
_cell_length_a	18.0208
_cell_length_b	18.0208
_cell_length_c	18.3684
_cell_angle_alpha	69.5197
_cell_angle_beta	62.0287
_cell_angle_gamma	99.514
loop_
_atom_site_label
_atom_site_type_symbol
_atom_site_fract_x
_atom_site_fract_y
_atom_site_fract_z
_atom_site_charge
Mof_Zn	Zn	0.96189	0.81981	0.48808	1.202
Mof_Zn	Zn	0.19211	0.55003	0.98808	1.202
Mof_H 	H 	0.1042	0.6628	0.7588	0.075
Mof_H 	H 	0.3891	0.8049	0.1518	0.199
Mof_H 	H 	0.6299	0.5387	0.5586	0.199
Mof_H 	H 	0.5317	0.5327	0.5864	0.196
Mof_H 	H 	0.5433	0.4591	0.6518	0.198
Mof_H 	H 	0.031	0.2914	0.0522	0.123
Mof_H 	H 	0.9571	0.6686	0.5971	0.078
Mof_H 	H 	0.2829	0.8963	0.2138	0.053
Mof_H 	H 	0.1132	0.321	0.1718	0.135
Mof_H 	H 	0.2586	0.4997	0.8327	-0.007
Mof_H 	H 	0.289	0.8403	0.7319	0.063
Mof_H 	H 	0.2343	0.4458	0.0971	0.078
Mof_H 	H 	0.4027	0.8115	0.0586	0.2
Mof_H 	H 	0.7292	0.618	0.545	0.122
Mof_H 	H 	0.0483	0.5236	0.1493	0.077
Mof_H 	H 	0.3189	0.9245	0.5784	0.206
Mof_H 	H 	0.1025	0.6674	0.3113	0.064
Mof_H 	H 	0.8271	0.8024	0.6493	0.076
Mof_H 	H 	0.3899	0.5033	0.7138	0.052
Mof_H 	H 	0.1676	0.9087	0.3327	-0.006
Mof_H 	H 	0.0784	0.137	0.2588	0.076
Mof_H 	H 	0.337	0.7258	0.045	0.123
Mof_H 	H 	0.1564	0.9168	0.5522	0.122
Mof_H 	H 	0.3809	0.8819	0.0864	0.197
Mof_H 	H 	0.2842	0.7359	0.8483	-0.009
Mof_H 	H 	0.3868	0.571	0.9336	0.001
Mof_H 	H 	0.1442	0.4517	0.1663	0.077
Mof_H 	H 	0.9971	0.1027	0.0784	0.206
Mof_H 	H 	0.9278	0.9791	0.2319	0.064
Mof_H 	H 	0.2452	0.9427	0.6517	0.207
Mof_H 	H 	0.8264	0.8688	0.5668	0.079
Mof_H 	H 	0.7053	0.7302	0.6525	0.139
Mof_H 	H 	0.5213	0.5862	0.8113	0.064
Mof_H 	H 	0.9821	0.189	0.0583	0.21
Mof_H 	H 	0.9056	0.1031	0.1517	0.207
Mof_H 	H 	0.0072	0.715	0.6718	0.135
Mof_H 	H 	0.9954	0.6796	0.4336	-0.001
Mof_H 	H 	0.0979	0.5607	0.883	-0.013
Mof_H 	H 	0.882	0.6895	0.6663	0.077
Mof_H 	H 	0.1173	0.6422	0.1525	0.14
Mof_H 	H 	0.2527	0.9596	0.5583	0.211
Mof_H 	H 	0.0563	0.0191	0.383	-0.013
Mof_H 	H 	0.0644	0.6068	0.0668	0.08
Mof_H 	H 	0.9158	0.8675	0.3483	-0.01
Mof_C 	C 	0.5679	0.5201	0.6104	-0.607
Mof_C 	C 	0.9999	0.0696	0.2381	0.04
Mof_C 	C 	0.9478	0.9233	0.3317	0.076
Mof_C 	C 	0.2362	0.6581	0.0511	0.298
Mof_C 	C 	0.0548	0.8336	0.5726	0.288
Mof_C 	C 	0.1395	0.6794	0.7789	-0.132
Mof_C 	C 	0.566	0.5696	0.6672	0.176
Mof_C 	C 	0.1923	0.762	0.7381	0.035
Mof_C 	C 	0.245	0.7205	0.8317	0.074
Mof_C 	C 	0.2242	0.8527	0.2561	-0.105
Mof_C 	C 	0.0938	0.3726	0.0726	0.289
Mof_C 	C 	0.0299	0.0102	0.3521	0.089
Mof_C 	C 	0.7908	0.7127	0.5511	0.296
Mof_C 	C 	0.1542	0.8589	0.3285	0.06
Mof_C 	C 	0.202	0.7771	0.2501	0.002
Mof_C 	C 	0.9542	0.9891	0.2623	-0.145
Mof_C 	C 	0.1377	0.618	0.8521	0.087
Mof_C 	C 	0.9705	0.1355	0.1066	-0.641
Mof_C 	C 	0.3126	0.5173	0.8285	0.059
Mof_C 	C 	0.0417	0.0816	0.2789	-0.135
Mof_C 	C 	0.4728	0.5479	0.7501	0.001
Mof_C 	C 	0.0123	0.1538	0.1559	0.178
Mof_C 	C 	0.2632	0.7668	0.1672	0.176
Mof_C 	C 	0.0523	0.7253	0.3874	0.054
Mof_C 	C 	0.3873	0.5603	0.8874	0.05
Mof_C 	C 	0.1182	0.7173	0.3147	-0.1
Mof_C 	C 	0.3912	0.5197	0.7561	-0.104
Mof_C 	C 	0.2579	0.9229	0.6066	-0.642
Mof_C 	C 	0.2486	0.7835	0.7623	-0.139
Mof_C 	C 	0.468	0.5671	0.8147	-0.099
Mof_C 	C 	0.3695	0.8217	0.1104	-0.607
Mof_C 	C 	0.1903	0.8318	0.6559	0.178
Mof_N 	N 	0.6284	0.6208	0.6532	-0.134
Mof_N 	N 	0.0474	0.2243	0.1517	-0.122
Mof_N 	N 	0.2782	0.7046	0.0762	-0.205
Mof_N 	N 	0.1438	0.6294	0.1086	-0.231
Mof_N 	N 	0.1749	0.4444	0.1111	-0.252
Mof_N 	N 	0.0028	0.7469	0.6279	-0.22
Mof_N 	N 	0.3097	0.5384	0.8919	-0.24
Mof_N 	N 	0.9445	0.714	0.6111	-0.253
Mof_N 	N 	0.1199	0.8633	0.5842	-0.205
Mof_N 	N 	0.1893	0.6376	0.8785	-0.26
Mof_N 	N 	0.9839	0.9322	0.3785	-0.261
Mof_N 	N 	0.0697	0.7984	0.3919	-0.24
Mof_N 	N 	0.1252	0.3693	0.1279	-0.221
Mof_N 	N 	0.7192	0.6456	0.5762	-0.205
Mof_N 	N 	0.0946	0.577	0.0912	-0.267
Mof_N 	N 	0.0525	0.2959	0.0842	-0.205
Mof_N 	N 	0.124	0.8009	0.6517	-0.122
Mof_N 	N 	0.762	0.7476	0.6086	-0.231
Mof_N 	N 	0.226	0.7184	0.1532	-0.134
Mof_N 	N 	0.8318	0.8142	0.5912	-0.267
Mof_O 	O 	0.0437	0.8834	0.5147	-0.431
Mof_O 	O 	0.279	0.6433	0.9873	-0.435
Mof_O 	O 	0.1019	0.4416	0.0147	-0.431
Mof_O 	O 	0.8694	0.7337	0.4873	-0.433
Mof_Zn	Zn	0.80789	0.44997	0.01192	1.203
Mof_Zn	Zn	0.03811	0.18019	0.51192	1.203
Mof_H 	H 	0.1729	0.1976	0.3507	0.076
Mof_H 	H 	0.9437	0.9809	0.617	-0.013
Mof_H 	H 	0.0179	0.811	0.9417	0.21
Mof_H 	H 	0.969	0.7086	0.9478	0.123
Mof_H 	H 	0.7171	0.1037	0.7862	0.053
Mof_H 	H 	0.8324	0.0913	0.6673	-0.006
Mof_H 	H 	0.5973	0.1885	0.9414	0.2
Mof_H 	H 	0.0029	0.8973	0.9216	0.206
Mof_H 	H 	0.8558	0.5483	0.8337	0.077
Mof_H 	H 	0.8975	0.3326	0.6887	0.064
Mof_H 	H 	0.0722	0.0209	0.7681	0.064
Mof_H 	H 	0.0046	0.3204	0.5664	-0.001
Mof_H 	H 	0.0944	0.8969	0.8483	0.207
Mof_H 	H 	0.4683	0.4673	0.4136	0.196
Mof_H 	H 	0.6132	0.429	0.0664	0.001
Mof_H 	H 	0.7473	0.0404	0.4417	0.211
Mof_H 	H 	0.9356	0.3932	0.9332	0.08
Mof_H 	H 	0.9517	0.4764	0.8507	0.077
Mof_H 	H 	0.6109	0.1951	0.8482	0.199
Mof_H 	H 	0.0429	0.3314	0.4029	0.078
Mof_H 	H 	0.0842	0.1325	0.6517	-0.01
Mof_H 	H 	0.8436	0.0832	0.4478	0.122
Mof_H 	H 	0.9928	0.285	0.3282	0.135
Mof_H 	H 	0.8868	0.679	0.8282	0.135
Mof_H 	H 	0.8958	0.3372	0.2412	0.075
Mof_H 	H 	0.7414	0.5003	0.1673	-0.007
Mof_H 	H 	0.3701	0.4613	0.4414	0.199
Mof_H 	H 	0.118	0.3105	0.3337	0.077
Mof_H 	H 	0.8827	0.3578	0.8475	0.14
Mof_H 	H 	0.2708	0.382	0.455	0.122
Mof_H 	H 	0.2947	0.2698	0.3475	0.139
Mof_H 	H 	0.711	0.1597	0.2681	0.063
Mof_H 	H 	0.7548	0.0573	0.3483	0.207
Mof_H 	H 	0.4567	0.5409	0.3482	0.198
Mof_H 	H 	0.7158	0.2641	0.1517	-0.009
Mof_H 	H 	0.6811	0.0755	0.4216	0.206
Mof_H 	H 	0.7657	0.5542	0.9029	0.078
Mof_H 	H 	0.1736	0.1312	0.4332	0.079
Mof_H 	H 	0.4787	0.4138	0.1887	0.064
Mof_H 	H 	0.9216	0.863	0.7412	0.076
Mof_H 	H 	0.9021	0.4393	0.117	-0.013
Mof_H 	H 	0.663	0.2742	0.955	0.123
Mof_H 	H 	0.6101	0.4967	0.2862	0.052
Mof_H 	H 	0.6191	0.1181	0.9136	0.197
Mof_C 	C 	0.532	0.4329	0.1853	-0.099
Mof_C 	C 	0.6088	0.4803	0.2439	-0.104
Mof_C 	C 	0.0522	0.0767	0.6683	0.076
Mof_C 	C 	0.8097	0.1682	0.3441	0.178
Mof_C 	C 	0.798	0.2229	0.7499	0.002
Mof_C 	C 	0.6305	0.1783	0.8896	-0.607
Mof_C 	C 	0.7638	0.3419	0.9489	0.298
Mof_C 	C 	0.7758	0.1473	0.7439	-0.105
Mof_C 	C 	0.0458	0.0109	0.7377	-0.145
Mof_C 	C 	0.9062	0.6274	0.9274	0.289
Mof_C 	C 	0.7514	0.2165	0.2377	-0.139
Mof_C 	C 	0.9583	0.9184	0.7211	-0.135
Mof_C 	C 	0.9701	0.9898	0.6479	0.089
Mof_C 	C 	0.0295	0.8645	0.8934	-0.641
Mof_C 	C 	0.6874	0.4827	0.1715	0.059
Mof_C 	C 	0.9877	0.8462	0.8441	0.178
Mof_C 	C 	0.8077	0.238	0.2619	0.035
Mof_C 	C 	0.8458	0.1411	0.6715	0.06
Mof_C 	C 	0.9452	0.1664	0.4274	0.288
Mof_C 	C 	0.8818	0.2827	0.6853	-0.1
Mof_C 	C 	0.434	0.4304	0.3328	0.176
Mof_C 	C 	0.5272	0.4521	0.2499	0.001
Mof_C 	C 	0.0001	0.9304	0.7619	0.04
Mof_C 	C 	0.8623	0.382	0.1479	0.087
Mof_C 	C 	0.9477	0.2747	0.6126	0.054
Mof_C 	C 	0.755	0.2795	0.1683	0.074
Mof_C 	C 	0.8605	0.3206	0.2211	-0.132
Mof_C 	C 	0.6127	0.4397	0.1126	0.05
Mof_C 	C 	0.7421	0.0771	0.3934	-0.642
Mof_C 	C 	0.2092	0.2873	0.4489	0.296
Mof_C 	C 	0.4321	0.4799	0.3896	-0.607
Mof_C 	C 	0.7368	0.2332	0.8328	0.176
Mof_N 	N 	0.9054	0.423	0.9088	-0.267
Mof_N 	N 	0.6903	0.4616	0.1081	-0.24
Mof_N 	N 	0.238	0.2524	0.3914	-0.231
Mof_N 	N 	0.8748	0.6307	0.8721	-0.221
Mof_N 	N 	0.8107	0.3624	0.1215	-0.26
Mof_N 	N 	0.7218	0.2954	0.9238	-0.205
Mof_N 	N 	0.8801	0.1367	0.4158	-0.205
Mof_N 	N 	0.1682	0.1858	0.4088	-0.267
Mof_N 	N 	0.3716	0.3792	0.3468	-0.134
Mof_N 	N 	0.9303	0.2016	0.6081	-0.24
Mof_N 	N 	0.0161	0.0678	0.6215	-0.261
Mof_N 	N 	0.876	0.1991	0.3483	-0.122
Mof_N 	N 	0.9526	0.7757	0.8483	-0.122
Mof_N 	N 	0.2808	0.3544	0.4238	-0.205
Mof_N 	N 	0.8251	0.5556	0.8889	-0.252
Mof_N 	N 	0.774	0.2816	0.8468	-0.134
Mof_N 	N 	0.8562	0.3706	0.8914	-0.231
Mof_N 	N 	0.9475	0.7041	0.9158	-0.205
Mof_N 	N 	0.9972	0.2531	0.3721	-0.22
Mof_N 	N 	0.0555	0.286	0.3889	-0.253
Mof_O 	O 	0.9563	0.1166	0.4853	-0.431
Mof_O 	O 	0.721	0.3567	0.0127	-0.435
Mof_O 	O 	0.8981	0.5584	0.9853	-0.431
Mof_O 	O 	0.1306	0.2663	0.5127	-0.433
_end
