data_functionalizedCrystal
_audit_creation_method	'EQeq! by Chris Wilmer'
_symmetry_space_group_name_H-M	'P1'
_symmetry_Int_Tables_number	1
_symmetry_cell_setting	triclinic
loop_
_symmetry_equiv_pos_as_xyz
  x,y,z
_cell_length_a	12.564
_cell_length_b	16.581
_cell_length_c	16.581
_cell_angle_alpha	66.1523
_cell_angle_beta	75.3699
_cell_angle_gamma	104.63
loop_
_atom_site_label
_atom_site_type_symbol
_atom_site_fract_x
_atom_site_fract_y
_atom_site_fract_z
_atom_site_charge
Mof_Ba	Ba	0.70493	0.40986	0.29507	1.869
Mof_Ba	Ba	-1.01484e-17	0.29507	0.29507	1.707
Mof_Ba	Ba	0.29507	0.29507	0.40986	1.847
Mof_Ba	Ba	0.29507	0.59014	0.70493	1.864
Mof_Ba	Ba	-0	0.70493	0.70493	1.731
Mof_Ba	Ba	0.70493	0.70493	0.59014	1.887
Mof_Cu	Cu	0.89257	0.62747	0.37253	0.933
Mof_Cu	Cu	0.2651	0.37253	-0	0.883
Mof_Cu	Cu	0.2651	0	0.62747	0.887
Mof_Cu	Cu	0.7349	0	0.37253	0.894
Mof_Cu	Cu	0.7349	0.62747	-0	0.89
Mof_Cu	Cu	0.10743	0.37253	0.62747	0.883
Mof_H 	H 	0.533	0.4569	0.1909	0.374
Mof_H 	H 	0.4999	0.3684	0.2107	0.394
Mof_H 	H 	0.7239	0.1909	0.3522	0.372
Mof_H 	H 	0.7106	0.2107	0.4209	0.392
Mof_H 	H 	0.0761	0.3522	0.4569	0.348
Mof_H 	H 	0.1315	0.4209	0.3684	0.385
Mof_H 	H 	0.2761	0.3522	0.1909	0.371
Mof_H 	H 	0.2894	0.4209	0.2107	0.39
Mof_H 	H 	0.9239	0.4569	0.3522	0.396
Mof_H 	H 	0.8685	0.3684	0.4209	0.404
Mof_H 	H 	0.467	0.1909	0.4569	0.373
Mof_H 	H 	0.5001	0.2107	0.3684	0.393
Mof_H 	H 	0.467	0.5431	0.8091	0.381
Mof_H 	H 	0.5001	0.6316	0.7893	0.403
Mof_H 	H 	0.2761	0.8091	0.6478	0.379
Mof_H 	H 	0.2894	0.7893	0.5791	0.397
Mof_H 	H 	0.9239	0.6478	0.5431	0.397
Mof_H 	H 	0.8685	0.5791	0.6316	0.405
Mof_H 	H 	0.7239	0.6478	0.8091	0.381
Mof_H 	H 	0.7106	0.5791	0.7893	0.4
Mof_H 	H 	0.0761	0.5431	0.6478	0.349
Mof_H 	H 	0.1315	0.6316	0.5791	0.385
Mof_H 	H 	0.533	0.8091	0.5431	0.381
Mof_H 	H 	0.4999	0.7893	0.6316	0.403
Mof_C 	C 	0.11855	0.7025	0.38745	0.366
Mof_C 	C 	0.69318	0.59579	0.31545	0.368
Mof_C 	C 	0.506	0.38745	0.91005	0.413
Mof_C 	C 	0.00863	0.31545	0.08876	0.211
Mof_C 	C 	0.41605	0.91005	0.7025	0.408
Mof_C 	C 	0.09739	0.08876	0.59579	0.285
Mof_C 	C 	0.494	0.91005	0.38745	0.403
Mof_C 	C 	0.99137	0.08876	0.31545	0.531
Mof_C 	C 	0.58395	0.7025	0.91005	0.417
Mof_C 	C 	0.90261	0.59579	0.08876	0.455
Mof_C 	C 	0.88145	0.38745	0.7025	0.361
Mof_C 	C 	0.30682	0.31545	0.59579	0.372
Mof_C 	C 	0.88145	0.2975	0.61255	0.357
Mof_C 	C 	0.30682	0.40421	0.68455	0.374
Mof_C 	C 	0.494	0.61255	0.08995	0.363
Mof_C 	C 	0.99137	0.68455	0.91124	0.591
Mof_C 	C 	0.58395	0.08995	0.2975	0.361
Mof_C 	C 	0.90261	0.91124	0.40421	0.496
Mof_C 	C 	0.506	0.08995	0.61255	0.363
Mof_C 	C 	0.00863	0.91124	0.68455	0.247
Mof_C 	C 	0.41605	0.2975	0.08995	0.361
Mof_C 	C 	0.09739	0.40421	0.91124	0.337
Mof_C 	C 	0.11855	0.61255	0.2975	0.363
Mof_C 	C 	0.69318	0.68455	0.40421	0.371
Mof_C 	C 	0.31502	0.73068	0.26932	0.055
Mof_C 	C 	0.18196	0.70899	0.29101	-0.215
Mof_C 	C 	0.1697	0.7902	0.2098	0.009
Mof_C 	C 	0.68742	0.68883	0.31117	-0.216
Mof_C 	C 	0.57374	0.69891	0.30109	0.044
Mof_C 	C 	0.79714	0.77571	0.22429	0.033
Mof_C 	C 	0.58434	0.26932	-0	0.03
Mof_C 	C 	0.47297	0.29101	-0	-0.246
Mof_C 	C 	0.3795	0.2098	-0	-0.016
Mof_C 	C 	0.99859	0.31117	-0	-0.075
Mof_C 	C 	0.87483	0.30109	-0	0.009
Mof_C 	C 	0.02143	0.22429	-0	-0.105
Mof_C 	C 	0.58434	-4.05937e-17	0.73068	0.049
Mof_C 	C 	0.47297	4.05937e-17	0.70899	-0.245
Mof_C 	C 	0.3795	0	0.7902	0.016
Mof_C 	C 	0.99859	-4.05937e-17	0.68883	-0.066
Mof_C 	C 	0.87483	-4.05937e-17	0.69891	0.023
Mof_C 	C 	0.02143	-8.11875e-17	0.77571	-0.083
Mof_C 	C 	0.41566	0	0.26932	0.025
Mof_C 	C 	0.52703	0	0.29101	-0.239
Mof_C 	C 	0.6205	0	0.2098	-0.001
Mof_C 	C 	0.00141	-2.02969e-17	0.31117	-0.417
Mof_C 	C 	0.12517	-2.02969e-17	0.30109	0.03
Mof_C 	C 	0.97857	0	0.22429	0.079
Mof_C 	C 	0.41566	0.73068	-0	0.034
Mof_C 	C 	0.52703	0.70899	-0	-0.252
Mof_C 	C 	0.6205	0.7902	-0	0.02
Mof_C 	C 	0.00141	0.68883	-0	-0.43
Mof_C 	C 	0.12517	0.69891	-0	0.035
Mof_C 	C 	0.97857	0.77571	-0	0.096
Mof_C 	C 	0.68498	0.26932	0.73068	0.059
Mof_C 	C 	0.81804	0.29101	0.70899	-0.208
Mof_C 	C 	0.8303	0.2098	0.7902	0.056
Mof_C 	C 	0.31258	0.31117	0.68883	-0.216
Mof_C 	C 	0.42626	0.30109	0.69891	0.045
Mof_C 	C 	0.20286	0.22429	0.77571	0.011
Mof_O 	O 	0.00545	0.68454	0.41491	-0.498
Mof_O 	O 	0.78827	0.58148	0.31641	-0.496
Mof_O 	O 	0.17649	0.71704	0.43355	-0.342
Mof_O 	O 	0.51077	0.40032	0.23635	-0.998
Mof_O 	O 	0.60732	0.53724	0.31702	-0.43
Mof_O 	O 	0.42036	0.41491	0.90055	-0.445
Mof_O 	O 	0.10468	0.31641	0.10211	-0.479
Mof_O 	O 	0.61004	0.43355	0.84941	-0.333
Mof_O 	O 	0.74712	0.23635	0.36333	-0.976
Mof_O 	O 	0.92434	0.31702	0.14574	-0.336
Mof_O 	O 	0.32091	0.90055	0.68454	-0.445
Mof_O 	O 	0.20679	0.10211	0.58148	-0.492
Mof_O 	O 	0.45945	0.84941	0.71704	-0.331
Mof_O 	O 	0.11045	0.36333	0.40032	-0.982
Mof_O 	O 	0.07008	0.14574	0.53724	-0.43
Mof_O 	O 	0.57964	0.90055	0.41491	-0.445
Mof_O 	O 	0.89532	0.10211	0.31641	-0.526
Mof_O 	O 	0.38996	0.84941	0.43355	-0.338
Mof_O 	O 	0.25288	0.36333	0.23635	-0.986
Mof_O 	O 	0.07566	0.14574	0.31702	-0.504
Mof_O 	O 	0.67909	0.68454	0.90055	-0.435
Mof_O 	O 	0.79321	0.58148	0.10211	-0.533
Mof_O 	O 	0.54055	0.71704	0.84941	-0.332
Mof_O 	O 	0.88955	0.40032	0.36333	-0.982
Mof_O 	O 	0.92992	0.53724	0.14574	-0.429
Mof_O 	O 	0.99455	0.41491	0.68454	-0.406
Mof_O 	O 	0.21173	0.31641	0.58148	-0.516
Mof_O 	O 	0.82351	0.43355	0.71704	-0.317
Mof_O 	O 	0.48923	0.23635	0.40032	-0.998
Mof_O 	O 	0.39268	0.31702	0.53724	-0.43
Mof_O 	O 	0.99455	0.31546	0.58509	-0.408
Mof_O 	O 	0.21173	0.41852	0.68359	-0.515
Mof_O 	O 	0.82351	0.28296	0.56645	-0.323
Mof_O 	O 	0.48923	0.59968	0.76365	-1.005
Mof_O 	O 	0.39268	0.46276	0.68298	-0.431
Mof_O 	O 	0.57964	0.58509	0.09945	-0.464
Mof_O 	O 	0.89532	0.68359	0.89789	-0.506
Mof_O 	O 	0.38996	0.56645	0.15059	-0.342
Mof_O 	O 	0.25288	0.76365	0.63667	-0.992
Mof_O 	O 	0.07566	0.68298	0.85426	-0.502
Mof_O 	O 	0.67909	0.09945	0.31546	-0.457
Mof_O 	O 	0.79321	0.89789	0.41852	-0.515
Mof_O 	O 	0.54055	0.15059	0.28296	-0.341
Mof_O 	O 	0.88955	0.63667	0.59968	-0.983
Mof_O 	O 	0.92992	0.85426	0.46276	-0.423
Mof_O 	O 	0.42036	0.09945	0.58509	-0.464
Mof_O 	O 	0.10468	0.89789	0.68359	-0.458
Mof_O 	O 	0.61004	0.15059	0.56645	-0.337
Mof_O 	O 	0.74712	0.63667	0.76365	-0.982
Mof_O 	O 	0.92434	0.85426	0.68298	-0.325
Mof_O 	O 	0.32091	0.31546	0.09945	-0.466
Mof_O 	O 	0.20679	0.41852	0.89789	-0.475
Mof_O 	O 	0.45945	0.28296	0.15059	-0.341
Mof_O 	O 	0.11045	0.59968	0.63667	-0.983
Mof_O 	O 	0.07008	0.46276	0.85426	-0.426
Mof_O 	O 	0.00545	0.58509	0.31546	-0.499
Mof_O 	O 	0.78827	0.68359	0.41852	-0.496
Mof_O 	O 	0.17649	0.56645	0.28296	-0.346
Mof_O 	O 	0.51077	0.76365	0.59968	-1.005
Mof_O 	O 	0.60732	0.68298	0.46276	-0.43
_end
