data_functionalizedCrystal
_audit_creation_method	'EQeq! by Chris Wilmer'
_symmetry_space_group_name_H-M	'P1'
_symmetry_Int_Tables_number	1
_symmetry_cell_setting	triclinic
loop_
_symmetry_equiv_pos_as_xyz
  x,y,z
_cell_length_a	16.252
_cell_length_b	11.8738
_cell_length_c	9.5585
_cell_angle_alpha	90
_cell_angle_beta	114.588
_cell_angle_gamma	90
loop_
_atom_site_label
_atom_site_type_symbol
_atom_site_fract_x
_atom_site_fract_y
_atom_site_fract_z
_atom_site_charge
Mof_O 	O 	0.40891	0.42821	0.80186	-0.525
Mof_O 	O 	0.39856	0.49613	0.57751	-0.532
Mof_O 	O 	0.35012	0.22442	0.81228	-0.361
Mof_H 	H 	0.3818	0.2815	0.8519	0.239
Mof_C 	C 	0.31237	0.3345	0.57671	-0.259
Mof_C 	C 	0.30147	0.24208	0.65901	0.176
Mof_C 	C 	0.2609	0.34103	0.41807	0.161
Mof_C 	C 	0.37862	0.42636	0.65678	0.483
Mof_O 	O 	0.2652	0.415	0.3146	-0.387
Mof_H 	H 	0.3029	0.4656	0.3605	0.232
Mof_O 	O 	0.90891	0.92821	0.80186	-0.397
Mof_O 	O 	0.89856	0.99613	0.57751	-0.399
Mof_O 	O 	0.85012	0.72442	0.81228	-0.3
Mof_H 	H 	0.8818	0.7815	0.8519	0.275
Mof_C 	C 	0.81237	0.8345	0.57671	-0.207
Mof_C 	C 	0.80147	0.74208	0.65901	0.198
Mof_C 	C 	0.7609	0.84103	0.41807	0.185
Mof_C 	C 	0.87862	0.92636	0.65678	0.473
Mof_O 	O 	0.7652	0.915	0.3146	-0.33
Mof_H 	H 	0.8029	0.9656	0.3605	0.275
Mof_O 	O 	0.59109	0.42821	0.69814	-0.53
Mof_O 	O 	0.60144	0.49613	0.92249	-0.463
Mof_O 	O 	0.64988	0.22442	0.68772	-0.336
Mof_H 	H 	0.6182	0.2815	0.6481	0.213
Mof_C 	C 	0.68763	0.3345	0.92329	-0.067
Mof_C 	C 	0.69853	0.24208	0.84099	0.085
Mof_C 	C 	0.7391	0.34103	0.08193	-0.016
Mof_C 	C 	0.62138	0.42636	0.84322	0.44
Mof_O 	O 	0.7348	0.415	0.1854	-0.29
Mof_H 	H 	0.6971	0.4656	0.1395	0.185
Mof_O 	O 	0.09109	0.92821	0.69814	-0.505
Mof_O 	O 	0.10144	0.99613	0.92249	-0.433
Mof_O 	O 	0.14988	0.72442	0.68772	-0.323
Mof_H 	H 	0.1182	0.7815	0.6481	0.212
Mof_C 	C 	0.18763	0.8345	0.92329	-0.047
Mof_C 	C 	0.19853	0.74208	0.84099	0.079
Mof_C 	C 	0.2391	0.84103	0.08193	-0.021
Mof_C 	C 	0.12138	0.92636	0.84322	0.42
Mof_O 	O 	0.2348	0.915	0.1854	-0.268
Mof_H 	H 	0.1971	0.9656	0.1395	0.221
Mof_O 	O 	0.59109	0.57179	0.19814	-0.571
Mof_O 	O 	0.60144	0.50387	0.42249	-0.549
Mof_O 	O 	0.64988	0.77558	0.18772	-0.333
Mof_H 	H 	0.6182	0.7185	0.1481	0.218
Mof_C 	C 	0.68763	0.6655	0.42329	-0.248
Mof_C 	C 	0.69853	0.75792	0.34099	0.198
Mof_C 	C 	0.7391	0.65897	0.58193	0.187
Mof_C 	C 	0.62138	0.57364	0.34322	0.503
Mof_O 	O 	0.7348	0.585	0.6854	-0.319
Mof_H 	H 	0.6971	0.5344	0.6395	0.229
Mof_O 	O 	0.09109	0.07179	0.19814	-0.694
Mof_O 	O 	0.10144	0.00387	0.42249	-0.675
Mof_O 	O 	0.14988	0.27558	0.18772	-0.394
Mof_H 	H 	0.1182	0.2185	0.1481	0.181
Mof_C 	C 	0.18763	0.1655	0.42329	-0.298
Mof_C 	C 	0.19853	0.25792	0.34099	0.174
Mof_C 	C 	0.2391	0.15897	0.58193	0.161
Mof_C 	C 	0.12138	0.07364	0.34322	0.507
Mof_O 	O 	0.2348	0.085	0.6854	-0.377
Mof_H 	H 	0.1971	0.0344	0.6395	0.184
Mof_O 	O 	0.40891	0.57179	0.30186	-0.571
Mof_O 	O 	0.39856	0.50387	0.07751	-0.617
Mof_O 	O 	0.35012	0.77558	0.31228	-0.359
Mof_H 	H 	0.3818	0.7185	0.3519	0.244
Mof_C 	C 	0.31237	0.6655	0.07671	-0.448
Mof_C 	C 	0.30147	0.75792	0.15901	0.295
Mof_C 	C 	0.2609	0.65897	0.91807	0.373
Mof_C 	C 	0.37862	0.57364	0.15678	0.548
Mof_O 	O 	0.2652	0.585	0.8146	-0.418
Mof_H 	H 	0.3029	0.5344	0.8605	0.278
Mof_O 	O 	0.90891	0.07179	0.30186	-0.571
Mof_O 	O 	0.89856	0.00387	0.07751	-0.617
Mof_O 	O 	0.85012	0.27558	0.31228	-0.367
Mof_H 	H 	0.8818	0.2185	0.3519	0.247
Mof_C 	C 	0.81237	0.1655	0.07671	-0.443
Mof_C 	C 	0.80147	0.25792	0.15901	0.29
Mof_C 	C 	0.7609	0.15897	0.91807	0.358
Mof_C 	C 	0.87862	0.07364	0.15678	0.556
Mof_O 	O 	0.7652	0.085	0.8146	-0.433
Mof_H 	H 	0.8029	0.0344	0.8605	0.242
Mof_Mg	Mg	0.5	0.5	-0	1.455
Mof_Mg	Mg	-0	0	-0	1.422
Mof_Mg	Mg	0.5	0.5	0.5	1.465
Mof_Mg	Mg	1.56137e-33	0	0.5	1.431
_end
