data_functionalizedCrystal
_audit_creation_method	'EQeq! by Chris Wilmer'
_symmetry_space_group_name_H-M	'P1'
_symmetry_Int_Tables_number	1
_symmetry_cell_setting	triclinic
loop_
_symmetry_equiv_pos_as_xyz
  x,y,z
_cell_length_a	14.1153
_cell_length_b	8.8505
_cell_length_c	13.5704
_cell_angle_alpha	90
_cell_angle_beta	111.761
_cell_angle_gamma	90
loop_
_atom_site_label
_atom_site_type_symbol
_atom_site_fract_x
_atom_site_fract_y
_atom_site_fract_z
_atom_site_charge
Mof_O 	O 	0.41853	0.6486	0.6404	-0.393
Mof_O 	O 	0.3143	0.4535	0.5878	-0.272
Mof_O 	O 	0.348	0.4657	0.3648	-0.29
Mof_O 	O 	0.44049	0.6425	0.32532	-0.414
Mof_C 	C 	0.3369	0.5846	0.5744	0.285
Mof_C 	C 	0.3742	0.597	0.3645	0.4
Mof_C 	C 	0.27	0.6794	0.4801	-0.022
Mof_H 	H 	0.2111	0.618	0.4378	0.062
Mof_C 	C 	0.3286	0.7247	0.409	-0.335
Mof_H 	H 	0.2827	0.7823	0.3496	0.155
Mof_H 	H 	0.3836	0.7918	0.4494	0.166
Mof_O 	O 	0.91853	0.1486	0.6404	-0.314
Mof_O 	O 	0.8143	0.9535	0.5878	-0.229
Mof_O 	O 	0.848	0.9657	0.3648	-0.249
Mof_O 	O 	0.94049	0.1425	0.32532	-0.332
Mof_C 	C 	0.8369	0.0846	0.5744	0.277
Mof_C 	C 	0.8742	0.097	0.3645	0.407
Mof_C 	C 	0.77	0.1794	0.4801	-0.012
Mof_H 	H 	0.7111	0.118	0.4378	0.075
Mof_C 	C 	0.8286	0.2247	0.409	-0.342
Mof_H 	H 	0.7827	0.2823	0.3496	0.169
Mof_H 	H 	0.8836	0.2918	0.4494	0.196
Mof_O 	O 	0.58147	0.6486	0.8596	-0.391
Mof_O 	O 	0.6857	0.4535	0.9122	-0.252
Mof_O 	O 	0.652	0.4657	0.1352	-0.273
Mof_O 	O 	0.55951	0.6425	0.17468	-0.412
Mof_C 	C 	0.6631	0.5846	0.9256	0.276
Mof_C 	C 	0.6258	0.597	0.1355	0.405
Mof_C 	C 	0.73	0.6794	0.0199	-0.014
Mof_H 	H 	0.7889	0.618	0.0622	0.092
Mof_C 	C 	0.6714	0.7247	0.091	-0.335
Mof_H 	H 	0.7173	0.7823	0.1504	0.166
Mof_H 	H 	0.6164	0.7918	0.0506	0.168
Mof_O 	O 	0.08147	0.1486	0.8596	-0.448
Mof_O 	O 	0.1857	0.9535	0.9122	-0.281
Mof_O 	O 	0.152	0.9657	0.1352	-0.313
Mof_O 	O 	0.05951	0.1425	0.17468	-0.475
Mof_C 	C 	0.1631	0.0846	0.9256	0.274
Mof_C 	C 	0.1258	0.097	0.1355	0.404
Mof_C 	C 	0.23	0.1794	0.0199	-0.009
Mof_H 	H 	0.2889	0.118	0.0622	0.077
Mof_C 	C 	0.1714	0.2247	0.091	-0.336
Mof_H 	H 	0.2173	0.2823	0.1504	0.154
Mof_H 	H 	0.1164	0.2918	0.0506	0.142
Mof_O 	O 	0.58147	0.3514	0.3596	-0.391
Mof_O 	O 	0.6857	0.5465	0.4122	-0.251
Mof_O 	O 	0.652	0.5343	0.6352	-0.275
Mof_O 	O 	0.55951	0.3575	0.67468	-0.413
Mof_C 	C 	0.6631	0.4154	0.4256	0.292
Mof_C 	C 	0.6258	0.403	0.6355	0.399
Mof_C 	C 	0.73	0.3206	0.5199	-0.044
Mof_H 	H 	0.7889	0.382	0.5622	0.098
Mof_C 	C 	0.6714	0.2753	0.591	-0.321
Mof_H 	H 	0.7173	0.2177	0.6504	0.161
Mof_H 	H 	0.6164	0.2082	0.5506	0.162
Mof_O 	O 	0.08147	0.8514	0.3596	-0.45
Mof_O 	O 	0.1857	0.0465	0.4122	-0.285
Mof_O 	O 	0.152	0.0343	0.6352	-0.312
Mof_O 	O 	0.05951	0.8575	0.67468	-0.475
Mof_C 	C 	0.1631	0.9154	0.4256	0.298
Mof_C 	C 	0.1258	0.903	0.6355	0.392
Mof_C 	C 	0.23	0.8206	0.5199	-0.052
Mof_H 	H 	0.2889	0.882	0.5622	0.085
Mof_C 	C 	0.1714	0.7753	0.591	-0.314
Mof_H 	H 	0.2173	0.7177	0.6504	0.147
Mof_H 	H 	0.1164	0.7082	0.5506	0.132
Mof_O 	O 	0.41853	0.3514	0.1404	-0.393
Mof_O 	O 	0.3143	0.5465	0.0878	-0.273
Mof_O 	O 	0.348	0.5343	0.8648	-0.29
Mof_O 	O 	0.44049	0.3575	0.82532	-0.415
Mof_C 	C 	0.3369	0.4154	0.0744	0.306
Mof_C 	C 	0.3742	0.403	0.8645	0.392
Mof_C 	C 	0.27	0.3206	0.9801	-0.064
Mof_H 	H 	0.2111	0.382	0.9378	0.071
Mof_C 	C 	0.3286	0.2753	0.909	-0.315
Mof_H 	H 	0.2827	0.2177	0.8496	0.148
Mof_H 	H 	0.3836	0.2082	0.9494	0.156
Mof_O 	O 	0.91853	0.8514	0.1404	-0.314
Mof_O 	O 	0.8143	0.0465	0.0878	-0.226
Mof_O 	O 	0.848	0.0343	0.8648	-0.251
Mof_O 	O 	0.94049	0.8575	0.82532	-0.333
Mof_C 	C 	0.8369	0.9154	0.0744	0.287
Mof_C 	C 	0.8742	0.903	0.8645	0.4
Mof_C 	C 	0.77	0.8206	0.9801	-0.042
Mof_H 	H 	0.7111	0.882	0.9378	0.08
Mof_C 	C 	0.8286	0.7753	0.909	-0.327
Mof_H 	H 	0.7827	0.7177	0.8496	0.163
Mof_H 	H 	0.8836	0.7082	0.9494	0.188
Mof_Zn	Zn	0.5	0.50029	0.75	1.241
Mof_Zn	Zn	3.70578e-33	0.00029	0.75	1.19
Mof_Zn	Zn	0.5	0.49971	0.25	1.241
Mof_Zn	Zn	-1.80512e-17	0.99971	0.25	1.19
_end
