data_functionalizedCrystal
_audit_creation_method	'EQeq! by Chris Wilmer'
_symmetry_space_group_name_H-M	'P1'
_symmetry_Int_Tables_number	1
_symmetry_cell_setting	triclinic
loop_
_symmetry_equiv_pos_as_xyz
  x,y,z
_cell_length_a	8.6631
_cell_length_b	14.2422
_cell_length_c	14.5497
_cell_angle_alpha	113.513
_cell_angle_beta	107.32
_cell_angle_gamma	90
loop_
_atom_site_label
_atom_site_type_symbol
_atom_site_fract_x
_atom_site_fract_y
_atom_site_fract_z
_atom_site_charge
Mof_Nd	Nd	0.11549	0.00502	0.54716	2.496
Mof_Nd	Nd	0.56833	0.99498	0.45284	2.568
Mof_H 	H 	0.1103	0.2928	0.487	-0.009
Mof_H 	H 	0.0951	0.4491	0.4732	0.111
Mof_H 	H 	0.6169	0.3655	0.3134	0.099
Mof_H 	H 	0.6283	0.2121	0.3328	-0.046
Mof_H 	H 	0.0277	0.6096	0.5214	-0.009
Mof_H 	H 	0.9953	0.7702	0.5216	-0.009
Mof_H 	H 	0.6229	0.642	0.2496	0.031
Mof_H 	H 	0.6559	0.4798	0.247	0.046
Mof_H 	H 	0.3526	0.7129	0.2244	0.007
Mof_H 	H 	0.2766	0.5572	0.0758	0.053
Mof_H 	H 	0.8101	0.5753	0.0574	0.048
Mof_H 	H 	0.8861	0.7309	0.2054	0.006
Mof_H 	H 	0.6233	0.7072	0.513	-0.008
Mof_H 	H 	0.6219	0.5509	0.5268	0.09
Mof_H 	H 	0.3035	0.6345	0.6866	0.078
Mof_H 	H 	0.2955	0.7879	0.6672	-0.045
Mof_H 	H 	0.5063	0.3904	0.4786	0.079
Mof_H 	H 	0.4737	0.2298	0.4784	-0.06
Mof_H 	H 	0.3733	0.358	0.7504	0.006
Mof_H 	H 	0.4089	0.5202	0.753	0.068
Mof_H 	H 	0.1282	0.2871	0.7756	-0.007
Mof_H 	H 	0.2008	0.4428	0.9242	0.104
Mof_H 	H 	0.7527	0.4247	0.9426	0.1
Mof_H 	H 	0.6807	0.2691	0.7946	-0.009
Mof_C 	C 	0.87754	0.1385	0.42788	0.626
Mof_C 	C 	0.86982	0.2374	0.41364	-0.224
Mof_C 	C 	0.0104	0.3082	0.454	0.103
Mof_C 	C 	0.0011	0.4018	0.4446	-0.256
Mof_C 	C 	0.85313	0.4258	0.39326	0.175
Mof_C 	C 	0.7157	0.3522	0.3502	-0.223
Mof_C 	C 	0.72232	0.2593	0.36084	0.157
Mof_C 	C 	0.8402	0.5274	0.3868	-0.043
Mof_C 	C 	0.9444	0.6159	0.4674	0.008
Mof_C 	C 	0.9249	0.7124	0.4676	0.014
Mof_C 	C 	0.80158	0.7236	0.38816	-0.116
Mof_C 	C 	0.70289	0.6355	0.30498	0.012
Mof_C 	C 	0.722	0.5379	0.3036	-0.062
Mof_C 	C 	0.76098	0.8282	0.39576	0.399
Mof_C 	C 	0.17835	0.8388	0.3253	0.553
Mof_C 	C 	0.1264	0.7385	0.229	-0.25
Mof_C 	C 	0.2429	0.686	0.1904	0.075
Mof_C 	C 	0.1965	0.5923	0.1004	-0.091
Mof_C 	C 	0.0337	0.5505	0.0466	-0.073
Mof_C 	C 	0.9197	0.603	0.0894	-0.051
Mof_C 	C 	0.9655	0.6966	0.1792	0.115
Mof_C 	C 	0.44966	0.8615	0.57212	0.57
Mof_C 	C 	0.45618	0.7626	0.58636	-0.246
Mof_C 	C 	0.5564	0.6918	0.546	0.121
Mof_C 	C 	0.5565	0.5982	0.5554	-0.169
Mof_C 	C 	0.45987	0.5742	0.60674	0.073
Mof_C 	C 	0.3655	0.6478	0.6498	-0.179
Mof_C 	C 	0.36148	0.7407	0.63916	0.129
Mof_C 	C 	0.4534	0.4726	0.6132	0.05
Mof_C 	C 	0.477	0.3841	0.5326	-0.16
Mof_C 	C 	0.4573	0.2876	0.5324	0.118
Mof_C 	C 	0.41342	0.2764	0.61184	-0.183
Mof_C 	C 	0.39791	0.3645	0.69502	0.076
Mof_C 	C 	0.4184	0.4621	0.6964	-0.138
Mof_C 	C 	0.36522	0.1718	0.60424	0.422
Mof_C 	C 	0.85305	0.1612	0.6747	0.54
Mof_C 	C 	0.8974	0.2615	0.771	-0.196
Mof_C 	C 	0.0525	0.314	0.8096	0.085
Mof_C 	C 	0.0961	0.4077	0.8996	-0.257
Mof_C 	C 	0.9871	0.4495	0.9534	0.197
Mof_C 	C 	0.8303	0.397	0.9106	-0.215
Mof_C 	C 	0.7863	0.3034	0.8208	0.137
Mof_O 	O 	0.01385	0.1081	0.4495	-0.636
Mof_O 	O 	0.74555	0.0932	0.4179	-0.673
Mof_O 	O 	0.84184	0.9091	0.47908	-0.667
Mof_O 	O 	0.64095	0.8353	0.3271	-0.509
Mof_O 	O 	0.07418	0.8779	0.36936	-0.61
Mof_O 	O 	0.32473	0.8776	0.35786	-0.653
Mof_O 	O 	0.56435	0.8919	0.5505	-0.594
Mof_O 	O 	0.32765	0.9068	0.5821	-0.668
Mof_O 	O 	0.36276	0.0909	0.52092	-0.683
Mof_O 	O 	0.31385	0.1647	0.6729	-0.517
Mof_O 	O 	0.70482	0.1221	0.63064	-0.59
Mof_O 	O 	0.96687	0.1224	0.64214	-0.611
_end
