data_functionalizedCrystal
_audit_creation_method	'EQeq! by Chris Wilmer'
_symmetry_space_group_name_H-M	'P1'
_symmetry_Int_Tables_number	1
_symmetry_cell_setting	triclinic
loop_
_symmetry_equiv_pos_as_xyz
  x,y,z
_cell_length_a	28.2219
_cell_length_b	28.2219
_cell_length_c	9.7266
_cell_angle_alpha	90
_cell_angle_beta	90
_cell_angle_gamma	90
loop_
_atom_site_label
_atom_site_type_symbol
_atom_site_fract_x
_atom_site_fract_y
_atom_site_fract_z
_atom_site_charge
Mof_O 	O 	0.51445	0.06124	0.664	-0.419
Mof_C 	C 	0.48771	0.07823	0.5722	0.328
Mof_O 	O 	0.45655	0.05487	0.5112	-0.265
Mof_C 	C 	0.49495	0.12885	0.5325	-0.041
Mof_C 	C 	0.53396	0.1541	0.5838	-0.048
Mof_C 	C 	0.46371	0.15068	0.4446	-0.009
Mof_H 	H 	0.5556	0.1389	0.6408	0.078
Mof_C 	C 	0.54074	0.20151	0.5506	0.035
Mof_C 	C 	0.47045	0.199	0.4099	-0.033
Mof_H 	H 	0.4383	0.1339	0.4082	0.076
Mof_C 	C 	0.50817	0.22366	0.4659	-0.053
Mof_C 	C 	0.58489	0.22824	0.5959	0
Mof_C 	C 	0.4375	0.2238	0.3108	0.31
Mof_H 	H 	0.5117	0.2557	0.4463	0.078
Mof_C 	C 	0.62823	0.2069	0.5652	-0.027
Mof_O 	O 	0.40542	0.19938	0.2537	-0.383
Mof_O 	O 	0.44225	0.26567	0.2861	-0.326
Mof_H 	H 	0.6278	0.1771	0.5244	0.072
Mof_C 	C 	0.67152	0.22723	0.5918	-0.056
Mof_C 	C 	0.7139	0.1998	0.5432	0.375
Mof_O 	O 	0.70629	0.16301	0.4795	-0.422
Mof_O 	O 	0.75537	0.2148	0.5599	-0.334
Mof_O 	O 	0.01445	0.56124	0.164	-0.44
Mof_C 	C 	0.98771	0.57823	0.0722	0.35
Mof_O 	O 	0.95655	0.55487	0.0112	-0.262
Mof_C 	C 	0.99495	0.62885	0.0325	-0.024
Mof_C 	C 	0.03396	0.6541	0.0838	-0.084
Mof_C 	C 	0.96371	0.65068	0.9446	-0.009
Mof_H 	H 	0.0556	0.6389	0.1408	0.085
Mof_C 	C 	0.04074	0.70151	0.0506	0.034
Mof_C 	C 	0.97045	0.699	0.9099	0.002
Mof_H 	H 	0.9383	0.6339	0.9082	0.083
Mof_C 	C 	0.00817	0.72366	0.9659	-0.077
Mof_C 	C 	0.08489	0.72824	0.0959	0.004
Mof_C 	C 	0.9375	0.7238	0.8108	0.302
Mof_H 	H 	0.0117	0.7557	0.9463	0.085
Mof_C 	C 	0.12823	0.7069	0.0652	-0.035
Mof_O 	O 	0.90542	0.69938	0.7537	-0.374
Mof_O 	O 	0.94225	0.76567	0.7861	-0.311
Mof_H 	H 	0.1278	0.6771	0.0244	0.071
Mof_C 	C 	0.17152	0.72723	0.0918	-0.049
Mof_C 	C 	0.2139	0.6998	0.0432	0.354
Mof_O 	O 	0.20629	0.66301	0.9795	-0.403
Mof_O 	O 	0.25537	0.7148	0.0599	-0.335
Mof_O 	O 	0.48555	0.93876	0.664	-0.406
Mof_C 	C 	0.51229	0.92177	0.5722	0.323
Mof_O 	O 	0.54345	0.94513	0.5112	-0.249
Mof_C 	C 	0.50505	0.87115	0.5325	-0.036
Mof_C 	C 	0.46604	0.8459	0.5838	-0.051
Mof_C 	C 	0.53629	0.84932	0.4446	-0.013
Mof_H 	H 	0.4444	0.8611	0.6408	0.08
Mof_C 	C 	0.45926	0.79849	0.5506	0.036
Mof_C 	C 	0.52955	0.801	0.4099	-0.031
Mof_H 	H 	0.5617	0.8661	0.4082	0.079
Mof_C 	C 	0.49183	0.77634	0.4659	-0.055
Mof_C 	C 	0.41511	0.77176	0.5959	0
Mof_C 	C 	0.5625	0.7762	0.3108	0.309
Mof_H 	H 	0.4883	0.7443	0.4463	0.078
Mof_C 	C 	0.37177	0.7931	0.5652	-0.026
Mof_O 	O 	0.59458	0.80062	0.2537	-0.381
Mof_O 	O 	0.55775	0.73433	0.2861	-0.325
Mof_H 	H 	0.3722	0.8229	0.5244	0.073
Mof_C 	C 	0.32848	0.77277	0.5918	-0.056
Mof_C 	C 	0.2861	0.8002	0.5432	0.375
Mof_O 	O 	0.29371	0.83699	0.4795	-0.421
Mof_O 	O 	0.24463	0.7852	0.5599	-0.335
Mof_O 	O 	0.98555	0.43876	0.164	-0.394
Mof_C 	C 	0.01229	0.42177	0.0722	0.321
Mof_O 	O 	0.04345	0.44513	0.0112	-0.266
Mof_C 	C 	0.00505	0.37115	0.0325	-0.125
Mof_C 	C 	0.96604	0.3459	0.0838	0.039
Mof_C 	C 	0.03629	0.34932	0.9446	0.068
Mof_H 	H 	0.9444	0.3611	0.1408	0.051
Mof_C 	C 	0.95926	0.29849	0.0506	-0.037
Mof_C 	C 	0.02955	0.301	0.9099	-0.109
Mof_H 	H 	0.0617	0.3661	0.9082	0.055
Mof_C 	C 	0.99183	0.27634	0.9659	0.053
Mof_C 	C 	0.91511	0.27176	0.0959	0.024
Mof_C 	C 	0.0625	0.2762	0.8108	0.336
Mof_H 	H 	0.9883	0.2443	0.9463	0.055
Mof_C 	C 	0.87177	0.2931	0.0652	-0.043
Mof_O 	O 	0.09458	0.30062	0.7537	-0.385
Mof_O 	O 	0.05775	0.23433	0.7861	-0.334
Mof_H 	H 	0.8722	0.3229	0.0244	0.077
Mof_C 	C 	0.82848	0.27277	0.0918	-0.047
Mof_C 	C 	0.7861	0.3002	0.0432	0.354
Mof_O 	O 	0.79371	0.33699	0.9795	-0.402
Mof_O 	O 	0.74463	0.2852	0.0599	-0.335
Mof_O 	O 	0.06124	0.48555	0.336	-0.421
Mof_C 	C 	0.07823	0.51229	0.4278	0.326
Mof_O 	O 	0.05487	0.54345	0.4888	-0.263
Mof_C 	C 	0.12885	0.50505	0.4675	-0.04
Mof_C 	C 	0.1541	0.46604	0.4162	-0.049
Mof_C 	C 	0.15068	0.53629	0.5554	-0.01
Mof_H 	H 	0.1389	0.4444	0.3592	0.076
Mof_C 	C 	0.20151	0.45926	0.4494	0.035
Mof_C 	C 	0.199	0.52955	0.5901	-0.03
Mof_H 	H 	0.1339	0.5617	0.5918	0.078
Mof_C 	C 	0.22366	0.49183	0.5341	-0.054
Mof_C 	C 	0.22824	0.41511	0.4041	0
Mof_C 	C 	0.2238	0.5625	0.6892	0.309
Mof_H 	H 	0.2557	0.4883	0.5537	0.08
Mof_C 	C 	0.2069	0.37177	0.4348	-0.027
Mof_O 	O 	0.19938	0.59458	0.7463	-0.377
Mof_O 	O 	0.26567	0.55775	0.7139	-0.319
Mof_H 	H 	0.1771	0.3722	0.4756	0.073
Mof_C 	C 	0.22723	0.32848	0.4082	-0.057
Mof_C 	C 	0.1998	0.2861	0.4568	0.374
Mof_O 	O 	0.16301	0.29371	0.5205	-0.422
Mof_O 	O 	0.2148	0.24463	0.4401	-0.338
Mof_O 	O 	0.56124	0.98555	0.836	-0.387
Mof_C 	C 	0.57823	0.01229	0.9278	0.299
Mof_O 	O 	0.55487	0.04345	0.9888	-0.249
Mof_C 	C 	0.62885	0.00505	0.9675	-0.048
Mof_C 	C 	0.6541	0.96604	0.9162	-0.019
Mof_C 	C 	0.65068	0.03629	0.0554	-0.018
Mof_H 	H 	0.6389	0.9444	0.8592	0.072
Mof_C 	C 	0.70151	0.95926	0.9494	0.038
Mof_C 	C 	0.699	0.02955	0.0901	-0.061
Mof_H 	H 	0.6339	0.0617	0.0918	0.075
Mof_C 	C 	0.72366	0.99183	0.0341	-0.033
Mof_C 	C 	0.72824	0.91511	0.9041	-0.004
Mof_C 	C 	0.7238	0.0625	0.1892	0.315
Mof_H 	H 	0.7557	0.9883	0.0537	0.074
Mof_C 	C 	0.7069	0.87177	0.9348	-0.018
Mof_O 	O 	0.69938	0.09458	0.2463	-0.383
Mof_O 	O 	0.76567	0.05775	0.2139	-0.333
Mof_H 	H 	0.6771	0.8722	0.9756	0.075
Mof_C 	C 	0.72723	0.82848	0.9082	-0.063
Mof_C 	C 	0.6998	0.7861	0.9568	0.395
Mof_O 	O 	0.66301	0.79371	0.0205	-0.44
Mof_O 	O 	0.7148	0.74463	0.9401	-0.337
Mof_O 	O 	0.93876	0.51445	0.336	-0.406
Mof_C 	C 	0.92177	0.48771	0.4278	0.322
Mof_O 	O 	0.94513	0.45655	0.4888	-0.246
Mof_C 	C 	0.87115	0.49495	0.4675	-0.034
Mof_C 	C 	0.8459	0.53396	0.4162	-0.052
Mof_C 	C 	0.84932	0.46371	0.5554	-0.014
Mof_H 	H 	0.8611	0.5556	0.3592	0.079
Mof_C 	C 	0.79849	0.54074	0.4494	0.037
Mof_C 	C 	0.801	0.47045	0.5901	-0.027
Mof_H 	H 	0.8661	0.4383	0.5918	0.082
Mof_C 	C 	0.77634	0.50817	0.5341	-0.056
Mof_C 	C 	0.77176	0.58489	0.4041	0
Mof_C 	C 	0.7762	0.4375	0.6892	0.308
Mof_H 	H 	0.7443	0.5117	0.5537	0.08
Mof_C 	C 	0.7931	0.62823	0.4348	-0.027
Mof_O 	O 	0.80062	0.40542	0.7463	-0.375
Mof_O 	O 	0.73433	0.44225	0.7139	-0.319
Mof_H 	H 	0.8229	0.6278	0.4756	0.074
Mof_C 	C 	0.77277	0.67152	0.4082	-0.056
Mof_C 	C 	0.8002	0.7139	0.4568	0.374
Mof_O 	O 	0.83699	0.70629	0.5205	-0.421
Mof_O 	O 	0.7852	0.75537	0.4401	-0.336
Mof_O 	O 	0.43876	0.01445	0.836	-0.432
Mof_C 	C 	0.42177	0.98771	0.9278	0.326
Mof_O 	O 	0.44513	0.95655	0.9888	-0.245
Mof_C 	C 	0.37115	0.99495	0.9675	0.05
Mof_C 	C 	0.3459	0.03396	0.9162	-0.141
Mof_C 	C 	0.34932	0.96371	0.0554	-0.094
Mof_H 	H 	0.3611	0.0556	0.8592	0.106
Mof_C 	C 	0.29849	0.04074	0.9494	0.111
Mof_C 	C 	0.301	0.97045	0.0901	0.051
Mof_H 	H 	0.3661	0.9383	0.0918	0.103
Mof_C 	C 	0.27634	0.00817	0.0341	-0.167
Mof_C 	C 	0.27176	0.08489	0.9041	-0.025
Mof_C 	C 	0.2762	0.9375	0.1892	0.282
Mof_H 	H 	0.2443	0.0117	0.0537	0.104
Mof_C 	C 	0.2931	0.12823	0.9348	-0.009
Mof_O 	O 	0.30062	0.90542	0.2463	-0.372
Mof_O 	O 	0.23433	0.94225	0.2139	-0.311
Mof_H 	H 	0.3229	0.1278	0.9756	0.069
Mof_C 	C 	0.27277	0.17152	0.9082	-0.067
Mof_C 	C 	0.3002	0.2139	0.9568	0.396
Mof_O 	O 	0.33699	0.20629	0.0205	-0.442
Mof_O 	O 	0.2852	0.25537	0.9401	-0.337
Mof_O 	O 	0.98555	0.06124	0.086	-0.401
Mof_C 	C 	0.01229	0.07823	0.1778	0.312
Mof_O 	O 	0.04345	0.05487	0.2388	-0.269
Mof_C 	C 	0.00505	0.12885	0.2175	-0.093
Mof_C 	C 	0.96604	0.1541	0.1662	0.012
Mof_C 	C 	0.03629	0.15068	0.3054	0.028
Mof_H 	H 	0.9444	0.1389	0.1092	0.058
Mof_C 	C 	0.95926	0.20151	0.1994	-0.001
Mof_C 	C 	0.02955	0.199	0.3401	-0.089
Mof_H 	H 	0.0617	0.1339	0.3418	0.061
Mof_C 	C 	0.99183	0.22366	0.2841	0.012
Mof_C 	C 	0.91511	0.22824	0.1541	0.002
Mof_C 	C 	0.0625	0.2238	0.4392	0.326
Mof_H 	H 	0.9883	0.2557	0.3037	0.064
Mof_C 	C 	0.87177	0.2069	0.1848	-0.026
Mof_O 	O 	0.09458	0.19938	0.4963	-0.386
Mof_O 	O 	0.05775	0.26567	0.4639	-0.334
Mof_H 	H 	0.8722	0.1771	0.2256	0.073
Mof_C 	C 	0.82848	0.22723	0.1582	-0.061
Mof_C 	C 	0.7861	0.1998	0.2068	0.376
Mof_O 	O 	0.79371	0.16301	0.2705	-0.423
Mof_O 	O 	0.74463	0.2148	0.1901	-0.338
Mof_O 	O 	0.48555	0.56124	0.586	-0.414
Mof_C 	C 	0.51229	0.57823	0.6778	0.324
Mof_O 	O 	0.54345	0.55487	0.7388	-0.254
Mof_C 	C 	0.50505	0.62885	0.7175	-0.036
Mof_C 	C 	0.46604	0.6541	0.6662	-0.051
Mof_C 	C 	0.53629	0.65068	0.8054	-0.013
Mof_H 	H 	0.4444	0.6389	0.6092	0.078
Mof_C 	C 	0.45926	0.70151	0.6994	0.037
Mof_C 	C 	0.52955	0.699	0.8401	-0.027
Mof_H 	H 	0.5617	0.6339	0.8418	0.081
Mof_C 	C 	0.49183	0.72366	0.7841	-0.055
Mof_C 	C 	0.41511	0.72824	0.6541	0.001
Mof_C 	C 	0.5625	0.7238	0.9392	0.308
Mof_H 	H 	0.4883	0.7557	0.8037	0.081
Mof_C 	C 	0.37177	0.7069	0.6848	-0.027
Mof_O 	O 	0.59458	0.69938	0.9963	-0.371
Mof_O 	O 	0.55775	0.76567	0.9639	-0.316
Mof_H 	H 	0.3722	0.6771	0.7256	0.074
Mof_C 	C 	0.32848	0.72723	0.6582	-0.055
Mof_C 	C 	0.2861	0.6998	0.7068	0.374
Mof_O 	O 	0.29371	0.66301	0.7705	-0.419
Mof_O 	O 	0.24463	0.7148	0.6901	-0.334
Mof_O 	O 	0.01445	0.93876	0.086	-0.432
Mof_C 	C 	0.98771	0.92177	0.1778	0.336
Mof_O 	O 	0.95655	0.94513	0.2388	-0.247
Mof_C 	C 	0.99495	0.87115	0.2175	0.013
Mof_C 	C 	0.03396	0.8459	0.1662	-0.114
Mof_C 	C 	0.96371	0.84932	0.3054	-0.052
Mof_H 	H 	0.0556	0.8611	0.1092	0.095
Mof_C 	C 	0.04074	0.79849	0.1994	0.074
Mof_C 	C 	0.97045	0.801	0.3401	0.027
Mof_H 	H 	0.9383	0.8661	0.3418	0.094
Mof_C 	C 	0.00817	0.77634	0.2841	-0.124
Mof_C 	C 	0.08489	0.77176	0.1541	-0.02
Mof_C 	C 	0.9375	0.7762	0.4392	0.292
Mof_H 	H 	0.0117	0.7443	0.3037	0.095
Mof_C 	C 	0.12823	0.7931	0.1848	-0.016
Mof_O 	O 	0.90542	0.80062	0.4963	-0.372
Mof_O 	O 	0.94225	0.73433	0.4639	-0.311
Mof_H 	H 	0.1278	0.8229	0.2256	0.068
Mof_C 	C 	0.17152	0.77277	0.1582	-0.064
Mof_C 	C 	0.2139	0.8002	0.2068	0.377
Mof_O 	O 	0.20629	0.83699	0.2705	-0.423
Mof_O 	O 	0.25537	0.7852	0.1901	-0.338
Mof_O 	O 	0.51445	0.43876	0.586	-0.414
Mof_C 	C 	0.48771	0.42177	0.6778	0.324
Mof_O 	O 	0.45655	0.44513	0.7388	-0.254
Mof_C 	C 	0.49495	0.37115	0.7175	-0.036
Mof_C 	C 	0.53396	0.3459	0.6662	-0.051
Mof_C 	C 	0.46371	0.34932	0.8054	-0.013
Mof_H 	H 	0.5556	0.3611	0.6092	0.078
Mof_C 	C 	0.54074	0.29849	0.6994	0.037
Mof_C 	C 	0.47045	0.301	0.8401	-0.027
Mof_H 	H 	0.4383	0.3661	0.8418	0.081
Mof_C 	C 	0.50817	0.27634	0.7841	-0.055
Mof_C 	C 	0.58489	0.27176	0.6541	0.001
Mof_C 	C 	0.4375	0.2762	0.9392	0.308
Mof_H 	H 	0.5117	0.2443	0.8037	0.081
Mof_C 	C 	0.62823	0.2931	0.6848	-0.027
Mof_O 	O 	0.40542	0.30062	0.9963	-0.371
Mof_O 	O 	0.44225	0.23433	0.9639	-0.316
Mof_H 	H 	0.6278	0.3229	0.7256	0.074
Mof_C 	C 	0.67152	0.27277	0.6582	-0.055
Mof_C 	C 	0.7139	0.3002	0.7068	0.374
Mof_O 	O 	0.70629	0.33699	0.7705	-0.418
Mof_O 	O 	0.75537	0.2852	0.6901	-0.333
Mof_O 	O 	0.43876	0.48555	0.414	-0.415
Mof_C 	C 	0.42177	0.51229	0.3222	0.325
Mof_O 	O 	0.44513	0.54345	0.2612	-0.259
Mof_C 	C 	0.37115	0.50505	0.2825	-0.04
Mof_C 	C 	0.3459	0.46604	0.3338	-0.049
Mof_C 	C 	0.34932	0.53629	0.1946	-0.01
Mof_H 	H 	0.3611	0.4444	0.3908	0.078
Mof_C 	C 	0.29849	0.45926	0.3006	0.034
Mof_C 	C 	0.301	0.52955	0.1599	-0.034
Mof_H 	H 	0.3661	0.5617	0.1582	0.076
Mof_C 	C 	0.27634	0.49183	0.2159	-0.053
Mof_C 	C 	0.27176	0.41511	0.3459	-0
Mof_C 	C 	0.2762	0.5625	0.0608	0.311
Mof_H 	H 	0.2443	0.4883	0.1963	0.077
Mof_C 	C 	0.2931	0.37177	0.3152	-0.027
Mof_O 	O 	0.30062	0.59458	0.0037	-0.386
Mof_O 	O 	0.23433	0.55775	0.0361	-0.329
Mof_H 	H 	0.3229	0.3722	0.2744	0.071
Mof_C 	C 	0.27277	0.32848	0.3418	-0.058
Mof_C 	C 	0.3002	0.2861	0.2932	0.375
Mof_O 	O 	0.33699	0.29371	0.2295	-0.425
Mof_O 	O 	0.2852	0.24463	0.3099	-0.339
Mof_O 	O 	0.93876	0.98555	0.914	-0.375
Mof_C 	C 	0.92177	0.01229	0.8222	0.309
Mof_O 	O 	0.94513	0.04345	0.7612	-0.246
Mof_C 	C 	0.87115	0.00505	0.7825	-0.082
Mof_C 	C 	0.8459	0.96604	0.8338	0.01
Mof_C 	C 	0.84932	0.03629	0.6946	0.025
Mof_H 	H 	0.8611	0.9444	0.8908	0.065
Mof_C 	C 	0.79849	0.95926	0.8006	-0.001
Mof_C 	C 	0.801	0.02955	0.6599	-0.084
Mof_H 	H 	0.8661	0.0617	0.6582	0.068
Mof_C 	C 	0.77634	0.99183	0.7159	0.013
Mof_C 	C 	0.77176	0.91511	0.8459	0.02
Mof_C 	C 	0.7762	0.0625	0.5608	0.326
Mof_H 	H 	0.7443	0.9883	0.6963	0.064
Mof_C 	C 	0.7931	0.87177	0.8152	-0.037
Mof_O 	O 	0.80062	0.09458	0.5037	-0.382
Mof_O 	O 	0.73433	0.05775	0.5361	-0.333
Mof_H 	H 	0.8229	0.8722	0.7744	0.079
Mof_C 	C 	0.77277	0.82848	0.8418	-0.048
Mof_C 	C 	0.8002	0.7861	0.7932	0.372
Mof_O 	O 	0.83699	0.79371	0.7295	-0.419
Mof_O 	O 	0.7852	0.74463	0.8099	-0.333
Mof_O 	O 	0.56124	0.51445	0.414	-0.415
Mof_C 	C 	0.57823	0.48771	0.3222	0.325
Mof_O 	O 	0.55487	0.45655	0.2612	-0.259
Mof_C 	C 	0.62885	0.49495	0.2825	-0.04
Mof_C 	C 	0.6541	0.53396	0.3338	-0.05
Mof_C 	C 	0.65068	0.46371	0.1946	-0.011
Mof_H 	H 	0.6389	0.5556	0.3908	0.078
Mof_C 	C 	0.70151	0.54074	0.3006	0.034
Mof_C 	C 	0.699	0.47045	0.1599	-0.033
Mof_H 	H 	0.6339	0.4383	0.1582	0.076
Mof_C 	C 	0.72366	0.50817	0.2159	-0.054
Mof_C 	C 	0.72824	0.58489	0.3459	-0
Mof_C 	C 	0.7238	0.4375	0.0608	0.31
Mof_H 	H 	0.7557	0.5117	0.1963	0.078
Mof_C 	C 	0.7069	0.62823	0.3152	-0.027
Mof_O 	O 	0.69938	0.40542	0.0037	-0.386
Mof_O 	O 	0.76567	0.44225	0.0361	-0.328
Mof_H 	H 	0.6771	0.6278	0.2744	0.071
Mof_C 	C 	0.72723	0.67152	0.3418	-0.058
Mof_C 	C 	0.6998	0.7139	0.2932	0.375
Mof_O 	O 	0.66301	0.70629	0.2295	-0.425
Mof_O 	O 	0.7148	0.75537	0.3099	-0.337
Mof_O 	O 	0.06124	0.01445	0.914	-0.433
Mof_C 	C 	0.07823	0.98771	0.8222	0.339
Mof_O 	O 	0.05487	0.95655	0.7612	-0.258
Mof_C 	C 	0.12885	0.99495	0.7825	0.011
Mof_C 	C 	0.1541	0.03396	0.8338	-0.109
Mof_C 	C 	0.15068	0.96371	0.6946	-0.048
Mof_H 	H 	0.1389	0.0556	0.8908	0.096
Mof_C 	C 	0.20151	0.04074	0.8006	0.069
Mof_C 	C 	0.199	0.97045	0.6599	0.025
Mof_H 	H 	0.1339	0.9383	0.6582	0.091
Mof_C 	C 	0.22366	0.00817	0.7159	-0.118
Mof_C 	C 	0.22824	0.08489	0.8459	0
Mof_C 	C 	0.2238	0.9375	0.5608	0.293
Mof_H 	H 	0.2557	0.0117	0.6963	0.093
Mof_C 	C 	0.2069	0.12823	0.8152	-0.029
Mof_O 	O 	0.19938	0.90542	0.5037	-0.374
Mof_O 	O 	0.26567	0.94225	0.5361	-0.311
Mof_H 	H 	0.1771	0.1278	0.7744	0.072
Mof_C 	C 	0.22723	0.17152	0.8418	-0.051
Mof_C 	C 	0.1998	0.2139	0.7932	0.373
Mof_O 	O 	0.16301	0.20629	0.7295	-0.421
Mof_O 	O 	0.2148	0.25537	0.8099	-0.333
Mof_Zn	Zn	0.5	3.25849e-33	0.75	1.237
Mof_Zn	Zn	6.02542e-33	0.5	0.25	1.237
Mof_Zn	Zn	-0	0	-0	1.225
Mof_Zn	Zn	0.5	0.5	0.5	1.245
Mof_Zn	Zn	0.37941	0.25	0.125	1.245
Mof_Zn	Zn	0.62059	0.75	0.125	1.245
Mof_Zn	Zn	0.12059	0.25	0.625	1.247
Mof_Zn	Zn	0.25	0.62059	0.875	1.25
Mof_Zn	Zn	0.75	0.12059	0.375	1.247
Mof_Zn	Zn	0.75	0.37941	0.875	1.25
Mof_Zn	Zn	0.25	0.87941	0.375	1.247
Mof_Zn	Zn	0.87941	0.75	0.625	1.248
Mof_H 	H 	0.752	0.25	0.625	0.218
Mof_H 	H 	0.248	0.75	0.625	0.218
Mof_H 	H 	0.25	0.248	0.375	0.217
Mof_H 	H 	0.75	0.748	0.875	0.219
Mof_H 	H 	0.75	0.752	0.375	0.218
Mof_H 	H 	0.25	0.252	0.875	0.219
Mof_H 	H 	0.748	0.25	0.125	0.217
Mof_H 	H 	0.252	0.75	0.125	0.217
_end
