data_functionalizedCrystal
_audit_creation_method	'EQeq! by Chris Wilmer'
_symmetry_space_group_name_H-M	'P1'
_symmetry_Int_Tables_number	1
_symmetry_cell_setting	triclinic
loop_
_symmetry_equiv_pos_as_xyz
  x,y,z
_cell_length_a	18.2715
_cell_length_b	18.2715
_cell_length_c	17.0912
_cell_angle_alpha	90
_cell_angle_beta	90
_cell_angle_gamma	90
loop_
_atom_site_label
_atom_site_type_symbol
_atom_site_fract_x
_atom_site_fract_y
_atom_site_fract_z
_atom_site_charge
Mof_C 	C 	0.72553	0.00421	0.48986	0.01
Mof_H 	H 	0.7535	0.0041	0.443	0.062
Mof_C 	C 	0.708	0.07008	0.526	-0.061
Mof_C 	C 	0.6671	0.07022	0.5945	-0.031
Mof_H 	H 	0.6551	0.1152	0.6192	0.068
Mof_C 	C 	0.6437	0.0045	0.627	0.028
Mof_C 	C 	0.6612	0.93863	0.5909	-0.035
Mof_H 	H 	0.6453	0.8937	0.6131	0.068
Mof_C 	C 	0.7022	0.93848	0.5223	-0.059
Mof_C 	C 	0.5466	0.0552	0.9972	0.006
Mof_C 	C 	0.542	0.106	0.0567	-0.005
Mof_C 	C 	0.50549	0.14524	0.1877	0.023
Mof_C 	C 	0.43955	0.16446	0.22266	-0.026
Mof_H 	H 	0.3946	0.1483	0.2006	0.064
Mof_C 	C 	0.43933	0.2073	0.28987	-0.077
Mof_C 	C 	0.50506	0.23092	0.32212	0.021
Mof_H 	H 	0.5049	0.2602	0.368	0.057
Mof_C 	C 	0.571	0.2117	0.2872	-0.07
Mof_C 	C 	0.57122	0.16886	0.21995	-0.028
Mof_H 	H 	0.6163	0.1557	0.1961	0.064
Mof_C 	C 	0.5397	0.935	0.94769	-0.023
Mof_C 	C 	0.5328	0.9831	0.0103	0.011
Mof_C 	C 	0.5129	0.95688	0.0836	-0.006
Mof_C 	C 	0.50014	0.11739	0.09431	0.044
Mof_C 	C 	0.4933	0.1655	0.03169	-0.046
Mof_C 	C 	0.5266	0.8608	0.95838	0.135
Mof_C 	C 	0.5179	0.0826	0.1309	-0.042
Mof_C 	C 	0.508	0.0088	0.145	0.011
Mof_C 	C 	0.6192	0.9966	0.7185	0.047
Mof_C 	C 	0.5448	0.9878	0.7328	0.002
Mof_C 	C 	0.5208	0.9674	0.8068	0.003
Mof_C 	C 	0.5711	0.9556	0.8665	-0.01
Mof_C 	C 	0.6455	0.9644	0.8522	0.119
Mof_C 	C 	0.6695	0.9849	0.7782	-0.041
Mof_C 	C 	0.5794	0.0123	0.6821	-0.045
Mof_C 	C 	0.6057	0.0315	0.7579	-0.017
Mof_C 	C 	0.4464	0.9578	0.8184	0.012
Mof_Cu	Cu	0.70856	0.71633	0.46098	0.906
Mof_Cu	Cu	0.78361	0.79074	0.35394	0.909
Mof_C 	C 	0.642	0.2276	0.3282	0.349
Mof_C 	C 	0.3705	0.2221	0.3334	0.365
Mof_O 	O 	0.762	0.8726	0.4209	-0.384
Mof_C 	C 	0.7195	0.8687	0.4844	0.31
Mof_O 	O 	0.6963	0.8089	0.5129	-0.391
Mof_O 	O 	0.7636	0.1339	0.4226	-0.402
Mof_C 	C 	0.7276	0.1386	0.4836	0.339
Mof_O 	O 	0.7047	0.1973	0.5181	-0.38
Mof_O 	O 	0.3121	0.1977	0.3007	-0.392
Mof_O 	O 	0.6998	0.2043	0.302	-0.416
Mof_O 	O 	0.6345	0.2647	0.3934	-0.394
Mof_O 	O 	0.3735	0.2608	0.3912	-0.418
Mof_O 	O 	0.523	0.8132	0.8958	-0.214
Mof_O 	O 	0.6894	0.9463	0.9175	-0.202
Mof_C 	C 	0.7637	0.9266	0.9114	0.099
Mof_C 	C 	0.5174	0.7388	0.9016	0.113
Mof_C 	C 	0.4543	0.6949	0.925	-0.021
Mof_C 	C 	0.8057	0.89	0.842	-0.012
Mof_C 	C 	0.27447	0.99579	0.48986	0.009
Mof_H 	H 	0.2465	0.9959	0.443	0.061
Mof_C 	C 	0.292	0.92992	0.526	-0.062
Mof_C 	C 	0.3329	0.92978	0.5945	-0.033
Mof_H 	H 	0.3449	0.8848	0.6192	0.067
Mof_C 	C 	0.3563	0.9955	0.627	0.028
Mof_C 	C 	0.3388	0.06137	0.5909	-0.037
Mof_H 	H 	0.3547	0.1063	0.6131	0.067
Mof_C 	C 	0.2978	0.06152	0.5223	-0.06
Mof_C 	C 	0.4534	0.9448	0.9972	0.005
Mof_C 	C 	0.458	0.894	0.0567	-0.005
Mof_C 	C 	0.49451	0.85476	0.1877	0.023
Mof_C 	C 	0.56045	0.83554	0.22266	-0.026
Mof_H 	H 	0.6054	0.8517	0.2006	0.064
Mof_C 	C 	0.56067	0.7927	0.28987	-0.077
Mof_C 	C 	0.49494	0.76908	0.32212	0.021
Mof_H 	H 	0.4951	0.7398	0.368	0.057
Mof_C 	C 	0.429	0.7883	0.2872	-0.07
Mof_C 	C 	0.42878	0.83114	0.21995	-0.028
Mof_H 	H 	0.3837	0.8443	0.1961	0.064
Mof_C 	C 	0.4603	0.065	0.94769	-0.022
Mof_C 	C 	0.4672	0.0169	0.0103	0.01
Mof_C 	C 	0.4871	0.04312	0.0836	-0.005
Mof_C 	C 	0.49986	0.88261	0.09431	0.043
Mof_C 	C 	0.5067	0.8345	0.03169	-0.046
Mof_C 	C 	0.4734	0.1392	0.95838	0.135
Mof_C 	C 	0.4821	0.9174	0.1309	-0.041
Mof_C 	C 	0.492	0.9912	0.145	0.009
Mof_C 	C 	0.3808	0.0034	0.7185	0.041
Mof_C 	C 	0.4552	0.0122	0.7328	0
Mof_C 	C 	0.4792	0.0326	0.8068	0.003
Mof_C 	C 	0.4289	0.0444	0.8665	-0.01
Mof_C 	C 	0.3545	0.0356	0.8522	0.118
Mof_C 	C 	0.3305	0.0151	0.7782	-0.04
Mof_C 	C 	0.4206	0.9877	0.6821	-0.041
Mof_C 	C 	0.3943	0.9685	0.7579	-0.013
Mof_C 	C 	0.5536	0.0422	0.8184	0.013
Mof_Cu	Cu	0.29144	0.28367	0.46098	0.906
Mof_Cu	Cu	0.21639	0.20926	0.35394	0.909
Mof_C 	C 	0.358	0.7724	0.3282	0.349
Mof_C 	C 	0.6295	0.7779	0.3334	0.365
Mof_O 	O 	0.238	0.1274	0.4209	-0.384
Mof_C 	C 	0.2805	0.1313	0.4844	0.31
Mof_O 	O 	0.3037	0.1911	0.5129	-0.391
Mof_O 	O 	0.2364	0.8661	0.4226	-0.402
Mof_C 	C 	0.2724	0.8614	0.4836	0.339
Mof_O 	O 	0.2953	0.8027	0.5181	-0.38
Mof_O 	O 	0.6879	0.8023	0.3007	-0.392
Mof_O 	O 	0.3002	0.7957	0.302	-0.416
Mof_O 	O 	0.3655	0.7353	0.3934	-0.394
Mof_O 	O 	0.6265	0.7392	0.3912	-0.418
Mof_O 	O 	0.477	0.1868	0.8958	-0.214
Mof_O 	O 	0.3106	0.0537	0.9175	-0.202
Mof_C 	C 	0.2363	0.0734	0.9114	0.099
Mof_C 	C 	0.4826	0.2612	0.9016	0.113
Mof_C 	C 	0.5457	0.3051	0.925	-0.021
Mof_C 	C 	0.1943	0.11	0.842	-0.012
Mof_C 	C 	0.99579	0.72553	0.48986	0.009
Mof_H 	H 	0.9959	0.7535	0.443	0.061
Mof_C 	C 	0.92992	0.708	0.526	-0.062
Mof_C 	C 	0.92978	0.6671	0.5945	-0.033
Mof_H 	H 	0.8848	0.6551	0.6192	0.067
Mof_C 	C 	0.9955	0.6437	0.627	0.028
Mof_C 	C 	0.06137	0.6612	0.5909	-0.037
Mof_H 	H 	0.1063	0.6453	0.6131	0.067
Mof_C 	C 	0.06152	0.7022	0.5223	-0.06
Mof_C 	C 	0.9448	0.5466	0.9972	0.005
Mof_C 	C 	0.894	0.542	0.0567	-0.005
Mof_C 	C 	0.85476	0.50549	0.1877	0.023
Mof_C 	C 	0.83554	0.43955	0.22266	-0.026
Mof_H 	H 	0.8517	0.3946	0.2006	0.064
Mof_C 	C 	0.7927	0.43933	0.28987	-0.077
Mof_C 	C 	0.76908	0.50506	0.32212	0.021
Mof_H 	H 	0.7398	0.5049	0.368	0.057
Mof_C 	C 	0.7883	0.571	0.2872	-0.07
Mof_C 	C 	0.83114	0.57122	0.21995	-0.028
Mof_H 	H 	0.8443	0.6163	0.1961	0.064
Mof_C 	C 	0.065	0.5397	0.94769	-0.022
Mof_C 	C 	0.0169	0.5328	0.0103	0.01
Mof_C 	C 	0.04312	0.5129	0.0836	-0.005
Mof_C 	C 	0.88261	0.50014	0.09431	0.043
Mof_C 	C 	0.8345	0.4933	0.03169	-0.046
Mof_C 	C 	0.1392	0.5266	0.95838	0.135
Mof_C 	C 	0.9174	0.5179	0.1309	-0.041
Mof_C 	C 	0.9912	0.508	0.145	0.009
Mof_C 	C 	0.0034	0.6192	0.7185	0.041
Mof_C 	C 	0.0122	0.5448	0.7328	0
Mof_C 	C 	0.0326	0.5208	0.8068	0.003
Mof_C 	C 	0.0444	0.5711	0.8665	-0.01
Mof_C 	C 	0.0356	0.6455	0.8522	0.118
Mof_C 	C 	0.0151	0.6695	0.7782	-0.04
Mof_C 	C 	0.9877	0.5794	0.6821	-0.041
Mof_C 	C 	0.9685	0.6057	0.7579	-0.013
Mof_C 	C 	0.0422	0.4464	0.8184	0.013
Mof_Cu	Cu	0.28367	0.70856	0.46098	0.906
Mof_Cu	Cu	0.20926	0.78361	0.35394	0.909
Mof_C 	C 	0.7724	0.642	0.3282	0.349
Mof_C 	C 	0.7779	0.3705	0.3334	0.365
Mof_O 	O 	0.1274	0.762	0.4209	-0.384
Mof_C 	C 	0.1313	0.7195	0.4844	0.31
Mof_O 	O 	0.1911	0.6963	0.5129	-0.391
Mof_O 	O 	0.8661	0.7636	0.4226	-0.402
Mof_C 	C 	0.8614	0.7276	0.4836	0.339
Mof_O 	O 	0.8027	0.7047	0.5181	-0.38
Mof_O 	O 	0.8023	0.3121	0.3007	-0.392
Mof_O 	O 	0.7957	0.6998	0.302	-0.416
Mof_O 	O 	0.7353	0.6345	0.3934	-0.394
Mof_O 	O 	0.7392	0.3735	0.3912	-0.418
Mof_O 	O 	0.1868	0.523	0.8958	-0.214
Mof_O 	O 	0.0537	0.6894	0.9175	-0.202
Mof_C 	C 	0.0734	0.7637	0.9114	0.099
Mof_C 	C 	0.2612	0.5174	0.9016	0.113
Mof_C 	C 	0.3051	0.4543	0.925	-0.021
Mof_C 	C 	0.11	0.8057	0.842	-0.012
Mof_C 	C 	0.00421	0.27447	0.48986	0.009
Mof_H 	H 	0.0041	0.2465	0.443	0.061
Mof_C 	C 	0.07008	0.292	0.526	-0.062
Mof_C 	C 	0.07022	0.3329	0.5945	-0.032
Mof_H 	H 	0.1152	0.3449	0.6192	0.067
Mof_C 	C 	0.0045	0.3563	0.627	0.027
Mof_C 	C 	0.93863	0.3388	0.5909	-0.036
Mof_H 	H 	0.8937	0.3547	0.6131	0.067
Mof_C 	C 	0.93848	0.2978	0.5223	-0.06
Mof_C 	C 	0.0552	0.4534	0.9972	0.005
Mof_C 	C 	0.106	0.458	0.0567	-0.005
Mof_C 	C 	0.14524	0.49451	0.1877	0.023
Mof_C 	C 	0.16446	0.56045	0.22266	-0.026
Mof_H 	H 	0.1483	0.6054	0.2006	0.064
Mof_C 	C 	0.2073	0.56067	0.28987	-0.077
Mof_C 	C 	0.23092	0.49494	0.32212	0.021
Mof_H 	H 	0.2602	0.4951	0.368	0.057
Mof_C 	C 	0.2117	0.429	0.2872	-0.07
Mof_C 	C 	0.16886	0.42878	0.21995	-0.028
Mof_H 	H 	0.1557	0.3837	0.1961	0.064
Mof_C 	C 	0.935	0.4603	0.94769	-0.023
Mof_C 	C 	0.9831	0.4672	0.0103	0.011
Mof_C 	C 	0.95688	0.4871	0.0836	-0.006
Mof_C 	C 	0.11739	0.49986	0.09431	0.044
Mof_C 	C 	0.1655	0.5067	0.03169	-0.046
Mof_C 	C 	0.8608	0.4734	0.95838	0.135
Mof_C 	C 	0.0826	0.4821	0.1309	-0.042
Mof_C 	C 	0.0088	0.492	0.145	0.011
Mof_C 	C 	0.9966	0.3808	0.7185	0.047
Mof_C 	C 	0.9878	0.4552	0.7328	0.002
Mof_C 	C 	0.9674	0.4792	0.8068	0.003
Mof_C 	C 	0.9556	0.4289	0.8665	-0.01
Mof_C 	C 	0.9644	0.3545	0.8522	0.119
Mof_C 	C 	0.9849	0.3305	0.7782	-0.041
Mof_C 	C 	0.0123	0.4206	0.6821	-0.045
Mof_C 	C 	0.0315	0.3943	0.7579	-0.017
Mof_C 	C 	0.9578	0.5536	0.8184	0.012
Mof_Cu	Cu	0.71633	0.29144	0.46098	0.906
Mof_Cu	Cu	0.79074	0.21639	0.35394	0.909
Mof_C 	C 	0.2276	0.358	0.3282	0.349
Mof_C 	C 	0.2221	0.6295	0.3334	0.365
Mof_O 	O 	0.8726	0.238	0.4209	-0.384
Mof_C 	C 	0.8687	0.2805	0.4844	0.31
Mof_O 	O 	0.8089	0.3037	0.5129	-0.391
Mof_O 	O 	0.1339	0.2364	0.4226	-0.402
Mof_C 	C 	0.1386	0.2724	0.4836	0.339
Mof_O 	O 	0.1973	0.2953	0.5181	-0.38
Mof_O 	O 	0.1977	0.6879	0.3007	-0.392
Mof_O 	O 	0.2043	0.3002	0.302	-0.416
Mof_O 	O 	0.2647	0.3655	0.3934	-0.394
Mof_O 	O 	0.2608	0.6265	0.3912	-0.418
Mof_O 	O 	0.8132	0.477	0.8958	-0.214
Mof_O 	O 	0.9463	0.3106	0.9175	-0.202
Mof_C 	C 	0.9266	0.2363	0.9114	0.099
Mof_C 	C 	0.7388	0.4826	0.9016	0.113
Mof_C 	C 	0.6949	0.5457	0.925	-0.021
Mof_C 	C 	0.89	0.1943	0.842	-0.012
Mof_C 	C 	0.5	0	0.6706	0.022
Mof_C 	C 	6.77607e-33	0.5	0.6706	0.022
_end
