data_functionalizedCrystal
_audit_creation_method	'EQeq! by Chris Wilmer'
_symmetry_space_group_name_H-M	'P1'
_symmetry_Int_Tables_number	1
_symmetry_cell_setting	triclinic
loop_
_symmetry_equiv_pos_as_xyz
  x,y,z
_cell_length_a	12.4009
_cell_length_b	12.5958
_cell_length_c	14.5577
_cell_angle_alpha	77.831
_cell_angle_beta	82.597
_cell_angle_gamma	72.818
loop_
_atom_site_label
_atom_site_type_symbol
_atom_site_fract_x
_atom_site_fract_y
_atom_site_fract_z
_atom_site_charge
Mof_Cd	Cd	0.92057	0.30349	0.4238	0.404
Mof_K 	K 	0.86897	0.506	0.62236	3.664
Mof_O 	O 	0.8921	0.2988	0.58343	-0.736
Mof_O 	O 	0.8569	0.1542	0.5435	-0.352
Mof_O 	O 	0.0996	0.1333	0.463	-0.37
Mof_O 	O 	0.1035	0.2899	0.3634	-0.721
Mof_O 	O 	0.7525	0.035	0.982	-0.185
Mof_O 	O 	0.8767	0.2273	0.315	-0.314
Mof_O 	O 	0.9385	0.0405	0.3585	-0.299
Mof_O 	O 	0.6067	0.9993	0.2877	-0.33
Mof_O 	O 	0.9135	0.5016	0.4218	-0.977
Mof_O 	O 	0.7796	0.4617	0.3643	-0.4
Mof_C 	C 	0.8623	0.2088	0.6064	0.528
Mof_C 	C 	0.8278	0.171	0.7065	-0.408
Mof_C 	C 	0.7741	0.0869	0.7309	0.282
Mof_H 	H 	0.7581	0.054	0.683	-0.059
Mof_C 	C 	0.7432	0.0499	0.8231	-0.37
Mof_H 	H 	0.7072	0.9909	0.8392	0.159
Mof_C 	C 	0.7651	0.0997	0.8934	0.352
Mof_C 	C 	0.8217	0.1813	0.8703	-0.421
Mof_H 	H 	0.8413	0.212	0.918	0.131
Mof_C 	C 	0.8497	0.2185	0.7762	0.336
Mof_H 	H 	0.8848	0.2781	0.7596	-0.275
Mof_C 	C 	0.7731	0.08	0.0594	0.264
Mof_C 	C 	0.7251	0.177	0.0922	-0.26
Mof_H 	H 	0.664	0.2328	0.0619	0.096
Mof_C 	C 	0.7659	0.1948	0.1707	0.124
Mof_H 	H 	0.7339	0.2639	0.193	-0.02
Mof_C 	C 	0.8522	0.1129	0.2161	-0.173
Mof_C 	C 	0.8974	0.0153	0.1823	0.093
Mof_H 	H 	0.9565	0.9574	0.2133	0.014
Mof_C 	C 	0.8572	0.9999	0.1018	-0.218
Mof_H 	H 	0.89	0.9322	0.0775	0.106
Mof_C 	C 	0.8928	0.1283	0.3036	0.362
Mof_C 	C 	0.1509	0.19	0.4014	0.48
Mof_C 	C 	0.2721	0.1399	0.3732	-0.338
Mof_C 	C 	0.3339	0.0402	0.4251	0.216
Mof_H 	H 	0.2989	0.005	0.4802	-0.038
Mof_C 	C 	0.4455	0.9909	0.3983	-0.322
Mof_H 	H 	0.4873	0.9229	0.435	0.141
Mof_C 	C 	0.4949	0.0414	0.318	0.318
Mof_C 	C 	0.4358	0.1419	0.2656	-0.35
Mof_H 	H 	0.4712	0.177	0.2106	0.131
Mof_C 	C 	0.3248	0.1908	0.294	0.245
Mof_H 	H 	0.2841	0.2604	0.2587	-0.159
Mof_C 	C 	0.6582	0.8828	0.3116	0.384
Mof_C 	C 	0.6108	0.806	0.2902	-0.406
Mof_H 	H 	0.5409	0.8308	0.2616	0.163
Mof_C 	C 	0.6663	0.6921	0.3109	0.299
Mof_H 	H 	0.6346	0.6384	0.2958	-0.087
Mof_C 	C 	0.7679	0.6556	0.3538	-0.44
Mof_C 	C 	0.8132	0.7348	0.3736	0.319
Mof_H 	H 	0.883	0.7108	0.4025	-0.211
Mof_C 	C 	0.7586	0.8494	0.3521	-0.421
Mof_H 	H 	0.7909	0.9037	0.3654	0.186
Mof_C 	C 	0.8237	0.5317	0.3807	0.517
Mof_O 	O 	0.6665	0.5891	0.5848	-1.145
Mof_N 	N 	0.4791	0.6625	0.6087	-0.189
Mof_C 	C 	0.5746	0.6657	0.5695	0.532
Mof_H 	H 	0.5784	0.7313	0.5243	-0.16
Mof_C 	C 	0.4647	0.5926	0.7037	-0.123
Mof_H 	H 	0.5383	0.5419	0.7222	-0.029
Mof_H 	H 	0.413	0.5477	0.7012	0.059
Mof_H 	H 	0.4333	0.6422	0.7498	0.031
Mof_C 	C 	0.3823	0.735	0.5641	0.066
Mof_H 	H 	0.3657	0.8103	0.581	-0.038
Mof_H 	H 	0.3175	0.7046	0.5849	-0.004
Mof_H 	H 	0.3968	0.742	0.4957	0.039
Mof_O 	O 	0.7082	0.0789	0.9856	-0.151
Mof_O 	O 	0.643	0.561	0.6193	0.316
Mof_N 	N 	0.4798	0.6431	0.5437	-0.119
Mof_C 	C 	0.5816	0.5865	0.5484	0.04
Mof_H 	H 	0.6179	0.5591	0.493	0.018
Mof_C 	C 	0.4	0.723	0.6027	-0.13
Mof_H 	H 	0.3658	0.7947	0.5619	0.068
Mof_H 	H 	0.4413	0.7363	0.6498	0.087
Mof_H 	H 	0.3397	0.6892	0.6345	0.079
Mof_C 	C 	0.4125	0.6549	0.4694	-0.192
Mof_H 	H 	0.4272	0.7139	0.4177	0.059
Mof_H 	H 	0.3324	0.676	0.4918	0.058
Mof_H 	H 	0.431	0.5831	0.4469	0.055
Mof_Cd	Cd	0.07943	0.69651	0.5762	0.376
Mof_K 	K 	0.13103	0.494	0.37764	3.538
Mof_O 	O 	0.1079	0.7012	0.41657	-0.731
Mof_O 	O 	0.1431	0.8458	0.4565	-0.354
Mof_O 	O 	0.9004	0.8667	0.537	-0.352
Mof_O 	O 	0.8965	0.7101	0.6366	-0.715
Mof_O 	O 	0.2475	0.965	0.018	-0.185
Mof_O 	O 	0.1233	0.7727	0.685	-0.327
Mof_O 	O 	0.0615	0.9595	0.6415	-0.314
Mof_O 	O 	0.3933	0.0007	0.7123	-0.359
Mof_O 	O 	0.0865	0.4984	0.5782	-1.001
Mof_O 	O 	0.2204	0.5383	0.6357	-0.404
Mof_C 	C 	0.1377	0.7912	0.3936	0.514
Mof_C 	C 	0.1722	0.829	0.2935	-0.395
Mof_C 	C 	0.2259	0.9131	0.2691	0.252
Mof_H 	H 	0.2419	0.946	0.317	-0.047
Mof_C 	C 	0.2568	0.9501	0.1769	-0.33
Mof_H 	H 	0.2928	0.0091	0.1608	0.133
Mof_C 	C 	0.2349	0.9003	0.1066	0.333
Mof_C 	C 	0.1783	0.8187	0.1297	-0.41
Mof_H 	H 	0.1587	0.788	0.082	0.122
Mof_C 	C 	0.1503	0.7815	0.2238	0.313
Mof_H 	H 	0.1152	0.7219	0.2404	-0.271
Mof_C 	C 	0.2269	0.92	0.9406	0.326
Mof_C 	C 	0.2749	0.823	0.9078	-0.314
Mof_H 	H 	0.336	0.7672	0.9381	0.113
Mof_C 	C 	0.2341	0.8052	0.8293	0.175
Mof_H 	H 	0.2661	0.7361	0.807	-0.038
Mof_C 	C 	0.1478	0.8871	0.7839	-0.233
Mof_C 	C 	0.1026	0.9847	0.8177	0.194
Mof_H 	H 	0.0435	0.0426	0.7867	-0.043
Mof_C 	C 	0.1428	0.0001	0.8982	-0.323
Mof_H 	H 	0.11	0.0678	0.9225	0.126
Mof_C 	C 	0.1072	0.8717	0.6964	0.383
Mof_C 	C 	0.8491	0.81	0.5986	0.494
Mof_C 	C 	0.7279	0.8601	0.6268	-0.371
Mof_C 	C 	0.6661	0.9598	0.5749	0.28
Mof_H 	H 	0.7011	0.995	0.5198	-0.054
Mof_C 	C 	0.5545	0.0091	0.6017	-0.405
Mof_H 	H 	0.5127	0.0771	0.565	0.166
Mof_C 	C 	0.5051	0.9586	0.682	0.385
Mof_C 	C 	0.5642	0.8581	0.7344	-0.396
Mof_H 	H 	0.5288	0.823	0.7894	0.148
Mof_C 	C 	0.6752	0.8092	0.706	0.285
Mof_H 	H 	0.7159	0.7396	0.7413	-0.172
Mof_C 	C 	0.3418	0.1172	0.6884	0.396
Mof_C 	C 	0.3892	0.194	0.7098	-0.42
Mof_H 	H 	0.4591	0.1692	0.7384	0.164
Mof_C 	C 	0.3337	0.3079	0.6891	0.308
Mof_H 	H 	0.3654	0.3616	0.7042	-0.092
Mof_C 	C 	0.2321	0.3444	0.6462	-0.456
Mof_C 	C 	0.1868	0.2652	0.6264	0.331
Mof_H 	H 	0.117	0.2892	0.5975	-0.226
Mof_C 	C 	0.2414	0.1506	0.6479	-0.436
Mof_H 	H 	0.2091	0.0963	0.6346	0.186
Mof_C 	C 	0.1763	0.4683	0.6193	0.525
Mof_O 	O 	0.3335	0.4109	0.4152	-1.115
Mof_N 	N 	0.5209	0.3375	0.3913	-0.186
Mof_C 	C 	0.4254	0.3343	0.4305	0.52
Mof_H 	H 	0.4216	0.2687	0.4757	-0.157
Mof_C 	C 	0.5353	0.4074	0.2963	-0.128
Mof_H 	H 	0.4617	0.4581	0.2778	-0.025
Mof_H 	H 	0.587	0.4523	0.2988	0.061
Mof_H 	H 	0.5667	0.3578	0.2502	0.033
Mof_C 	C 	0.6177	0.265	0.4359	0.064
Mof_H 	H 	0.6343	0.1897	0.419	-0.035
Mof_H 	H 	0.6825	0.2954	0.4151	-0.004
Mof_H 	H 	0.6032	0.258	0.5043	0.038
Mof_O 	O 	0.2918	0.9211	0.0144	-0.156
Mof_O 	O 	0.357	0.439	0.3807	0.303
Mof_N 	N 	0.5202	0.3569	0.4563	-0.119
Mof_C 	C 	0.4184	0.4135	0.4516	0.041
Mof_H 	H 	0.3821	0.4409	0.507	0.019
Mof_C 	C 	0.6	0.277	0.3973	-0.126
Mof_H 	H 	0.6342	0.2053	0.4381	0.063
Mof_H 	H 	0.5587	0.2637	0.3502	0.085
Mof_H 	H 	0.6603	0.3108	0.3655	0.077
Mof_C 	C 	0.5875	0.3451	0.5306	-0.186
Mof_H 	H 	0.5728	0.2861	0.5823	0.056
Mof_H 	H 	0.6676	0.324	0.5082	0.055
Mof_H 	H 	0.569	0.4169	0.5531	0.052
Mof_Cd	Cd	6.70892e-18	1.34178e-17	0.5	0.497
_end
