data_functionalizedCrystal
_audit_creation_method	'EQeq! by Chris Wilmer'
_symmetry_space_group_name_H-M	'P1'
_symmetry_Int_Tables_number	1
_symmetry_cell_setting	triclinic
loop_
_symmetry_equiv_pos_as_xyz
  x,y,z
_cell_length_a	30.922
_cell_length_b	30.922
_cell_length_c	30.922
_cell_angle_alpha	90
_cell_angle_beta	90
_cell_angle_gamma	90
loop_
_atom_site_label
_atom_site_type_symbol
_atom_site_fract_x
_atom_site_fract_y
_atom_site_fract_z
_atom_site_charge
Mof_N 	N 	0.3393	0.2746	0.2254	-0.185
Mof_C 	C 	0.382	0.26621	0.23379	0.103
Mof_C 	C 	0.4207	0.2809	0.2191	-0.164
Mof_C 	C 	0.4614	0.2661	0.2339	0.13
Mof_H 	H 	0.42045	0.30217	0.19783	0.132
Mof_O 	O 	0.3033	0.3566	0.1434	-0.27
Mof_N 	N 	0.8393	0.2746	0.7254	-0.185
Mof_C 	C 	0.882	0.26621	0.7338	0.102
Mof_C 	C 	0.9207	0.2809	0.7191	-0.162
Mof_C 	C 	0.9614	0.2661	0.7339	0.123
Mof_H 	H 	0.92045	0.30217	0.69783	0.129
Mof_O 	O 	0.8033	0.3566	0.6434	-0.271
Mof_N 	N 	0.6607	0.7254	0.2254	-0.185
Mof_C 	C 	0.618	0.7338	0.23379	0.103
Mof_C 	C 	0.5793	0.7191	0.2191	-0.164
Mof_C 	C 	0.5386	0.7339	0.2339	0.13
Mof_H 	H 	0.57955	0.69783	0.19783	0.132
Mof_O 	O 	0.6967	0.6434	0.1434	-0.27
Mof_N 	N 	0.1607	0.7254	0.7254	-0.185
Mof_C 	C 	0.118	0.7338	0.7338	0.103
Mof_C 	C 	0.0793	0.7191	0.7191	-0.164
Mof_C 	C 	0.0386	0.7339	0.7339	0.129
Mof_H 	H 	0.07955	0.69783	0.69783	0.131
Mof_O 	O 	0.1967	0.6434	0.6434	-0.272
Mof_N 	N 	0.1607	0.2254	0.2254	-0.186
Mof_C 	C 	0.118	0.23379	0.23379	0.103
Mof_C 	C 	0.0793	0.2191	0.2191	-0.164
Mof_C 	C 	0.0386	0.2339	0.2339	0.129
Mof_H 	H 	0.07955	0.19783	0.19783	0.132
Mof_O 	O 	0.1967	0.1434	0.1434	-0.271
Mof_N 	N 	0.6607	0.2746	0.7746	-0.186
Mof_C 	C 	0.618	0.26621	0.76621	0.102
Mof_C 	C 	0.5793	0.2809	0.7809	-0.165
Mof_C 	C 	0.5386	0.2661	0.7661	0.128
Mof_H 	H 	0.57955	0.30217	0.80217	0.13
Mof_O 	O 	0.6967	0.3566	0.8566	-0.273
Mof_N 	N 	0.1607	0.2746	0.2746	-0.186
Mof_C 	C 	0.118	0.26621	0.26621	0.103
Mof_C 	C 	0.0793	0.2809	0.2809	-0.164
Mof_C 	C 	0.0386	0.2661	0.2661	0.129
Mof_H 	H 	0.07955	0.30217	0.30217	0.131
Mof_O 	O 	0.1967	0.3566	0.3566	-0.272
Mof_N 	N 	0.3393	0.7254	0.7746	-0.186
Mof_C 	C 	0.382	0.7338	0.76621	0.102
Mof_C 	C 	0.4207	0.7191	0.7809	-0.165
Mof_C 	C 	0.4614	0.7339	0.7661	0.128
Mof_H 	H 	0.42045	0.69783	0.80217	0.13
Mof_O 	O 	0.3033	0.6434	0.8566	-0.272
Mof_N 	N 	0.3393	0.2254	0.2746	-0.186
Mof_C 	C 	0.382	0.23379	0.26621	0.102
Mof_C 	C 	0.4207	0.2191	0.2809	-0.165
Mof_C 	C 	0.4614	0.2339	0.2661	0.129
Mof_H 	H 	0.42045	0.19783	0.30217	0.131
Mof_O 	O 	0.3033	0.1434	0.3566	-0.271
Mof_N 	N 	0.8393	0.7254	0.2746	-0.186
Mof_C 	C 	0.882	0.7338	0.26621	0.101
Mof_C 	C 	0.9207	0.7191	0.2809	-0.163
Mof_C 	C 	0.9614	0.7339	0.2661	0.122
Mof_H 	H 	0.92045	0.69783	0.30217	0.128
Mof_O 	O 	0.8033	0.6434	0.3566	-0.272
Mof_N 	N 	0.2254	0.3393	0.2746	-0.186
Mof_C 	C 	0.23379	0.382	0.26621	0.102
Mof_C 	C 	0.2191	0.4207	0.2809	-0.165
Mof_C 	C 	0.2339	0.4614	0.2661	0.129
Mof_H 	H 	0.19783	0.42045	0.30217	0.131
Mof_O 	O 	0.1434	0.3033	0.3566	-0.271
Mof_N 	N 	0.2254	0.8393	0.7746	-0.186
Mof_C 	C 	0.23379	0.882	0.76621	0.101
Mof_C 	C 	0.2191	0.9207	0.7809	-0.163
Mof_C 	C 	0.2339	0.9614	0.7661	0.122
Mof_H 	H 	0.19783	0.92045	0.80217	0.128
Mof_O 	O 	0.1434	0.8033	0.8566	-0.272
Mof_N 	N 	0.2254	0.6607	0.7254	-0.186
Mof_C 	C 	0.23379	0.618	0.7338	0.102
Mof_C 	C 	0.2191	0.5793	0.7191	-0.165
Mof_C 	C 	0.2339	0.5386	0.7339	0.129
Mof_H 	H 	0.19783	0.57955	0.69783	0.131
Mof_O 	O 	0.1434	0.6967	0.6434	-0.271
Mof_N 	N 	0.2254	0.1607	0.2254	-0.186
Mof_C 	C 	0.23379	0.118	0.23379	0.103
Mof_C 	C 	0.2191	0.0793	0.2191	-0.164
Mof_C 	C 	0.2339	0.0386	0.2339	0.129
Mof_H 	H 	0.19783	0.07955	0.19783	0.132
Mof_O 	O 	0.1434	0.1967	0.1434	-0.271
Mof_N 	N 	0.7746	0.6607	0.2746	-0.186
Mof_C 	C 	0.76621	0.618	0.26621	0.102
Mof_C 	C 	0.7809	0.5793	0.2809	-0.165
Mof_C 	C 	0.7661	0.5386	0.2661	0.128
Mof_H 	H 	0.80217	0.57955	0.30217	0.13
Mof_O 	O 	0.8566	0.6967	0.3566	-0.273
Mof_N 	N 	0.7746	0.1607	0.7746	-0.186
Mof_C 	C 	0.76621	0.118	0.76621	0.102
Mof_C 	C 	0.7809	0.0793	0.7809	-0.164
Mof_C 	C 	0.7661	0.0386	0.7661	0.128
Mof_H 	H 	0.80217	0.07955	0.80217	0.13
Mof_O 	O 	0.8566	0.1967	0.8566	-0.273
Mof_N 	N 	0.2746	0.1607	0.2746	-0.186
Mof_C 	C 	0.26621	0.118	0.26621	0.103
Mof_C 	C 	0.2809	0.0793	0.2809	-0.164
Mof_C 	C 	0.2661	0.0386	0.2661	0.129
Mof_H 	H 	0.30217	0.07955	0.30217	0.131
Mof_O 	O 	0.3566	0.1967	0.3566	-0.272
Mof_N 	N 	0.7746	0.3393	0.7254	-0.186
Mof_C 	C 	0.76621	0.382	0.7338	0.102
Mof_C 	C 	0.7809	0.4207	0.7191	-0.165
Mof_C 	C 	0.7661	0.4614	0.7339	0.128
Mof_H 	H 	0.80217	0.42045	0.69783	0.13
Mof_O 	O 	0.8566	0.3033	0.6434	-0.272
Mof_N 	N 	0.7746	0.8393	0.2254	-0.186
Mof_C 	C 	0.76621	0.882	0.23379	0.101
Mof_C 	C 	0.7809	0.9207	0.2191	-0.163
Mof_C 	C 	0.7661	0.9614	0.2339	0.122
Mof_H 	H 	0.80217	0.92045	0.19783	0.128
Mof_O 	O 	0.8566	0.8033	0.1434	-0.272
Mof_N 	N 	0.2746	0.3393	0.2254	-0.186
Mof_C 	C 	0.26621	0.382	0.23379	0.102
Mof_C 	C 	0.2809	0.4207	0.2191	-0.165
Mof_C 	C 	0.2661	0.4614	0.2339	0.129
Mof_H 	H 	0.30217	0.42045	0.19783	0.131
Mof_O 	O 	0.3566	0.3033	0.1434	-0.271
Mof_N 	N 	0.2746	0.2254	0.3393	-0.186
Mof_C 	C 	0.26621	0.23379	0.382	0.102
Mof_C 	C 	0.2809	0.2191	0.4207	-0.165
Mof_C 	C 	0.2661	0.2339	0.4614	0.129
Mof_H 	H 	0.30217	0.19783	0.42045	0.131
Mof_O 	O 	0.3566	0.1434	0.3033	-0.271
Mof_N 	N 	0.2746	0.7254	0.8393	-0.186
Mof_C 	C 	0.26621	0.7338	0.882	0.101
Mof_C 	C 	0.2809	0.7191	0.9207	-0.163
Mof_C 	C 	0.2661	0.7339	0.9614	0.122
Mof_H 	H 	0.30217	0.69783	0.92045	0.128
Mof_O 	O 	0.3566	0.6434	0.8033	-0.272
Mof_N 	N 	0.7254	0.2254	0.6607	-0.186
Mof_C 	C 	0.7338	0.23379	0.618	0.102
Mof_C 	C 	0.7191	0.2191	0.5793	-0.165
Mof_C 	C 	0.7339	0.2339	0.5386	0.129
Mof_H 	H 	0.69783	0.19783	0.57955	0.131
Mof_O 	O 	0.6434	0.1434	0.6967	-0.271
Mof_N 	N 	0.7254	0.7254	0.1607	-0.186
Mof_C 	C 	0.7338	0.7338	0.118	0.102
Mof_C 	C 	0.7191	0.7191	0.0793	-0.164
Mof_C 	C 	0.7339	0.7339	0.0386	0.129
Mof_H 	H 	0.69783	0.69783	0.07955	0.131
Mof_O 	O 	0.6434	0.6434	0.1967	-0.272
Mof_N 	N 	0.2254	0.2254	0.1607	-0.186
Mof_C 	C 	0.23379	0.23379	0.118	0.103
Mof_C 	C 	0.2191	0.2191	0.0793	-0.164
Mof_C 	C 	0.2339	0.2339	0.0386	0.129
Mof_H 	H 	0.19783	0.19783	0.07955	0.132
Mof_O 	O 	0.1434	0.1434	0.1967	-0.271
Mof_N 	N 	0.2746	0.7746	0.6607	-0.186
Mof_C 	C 	0.26621	0.76621	0.618	0.102
Mof_C 	C 	0.2809	0.7809	0.5793	-0.165
Mof_C 	C 	0.2661	0.7661	0.5386	0.128
Mof_H 	H 	0.30217	0.80217	0.57955	0.13
Mof_O 	O 	0.3566	0.8566	0.6967	-0.273
Mof_N 	N 	0.2746	0.2746	0.1607	-0.186
Mof_C 	C 	0.26621	0.26621	0.118	0.103
Mof_C 	C 	0.2809	0.2809	0.0793	-0.164
Mof_C 	C 	0.2661	0.2661	0.0386	0.129
Mof_H 	H 	0.30217	0.30217	0.07955	0.131
Mof_O 	O 	0.3566	0.3566	0.1967	-0.272
Mof_N 	N 	0.7254	0.7746	0.3393	-0.186
Mof_C 	C 	0.7338	0.76621	0.382	0.102
Mof_C 	C 	0.7191	0.7809	0.4207	-0.165
Mof_C 	C 	0.7339	0.7661	0.4614	0.128
Mof_H 	H 	0.69783	0.80217	0.42045	0.13
Mof_O 	O 	0.6434	0.8566	0.3033	-0.272
Mof_N 	N 	0.7254	0.2746	0.8393	-0.186
Mof_C 	C 	0.7338	0.26621	0.882	0.101
Mof_C 	C 	0.7191	0.2809	0.9207	-0.163
Mof_C 	C 	0.7339	0.2661	0.9614	0.122
Mof_H 	H 	0.69783	0.30217	0.92045	0.128
Mof_O 	O 	0.6434	0.3566	0.8033	-0.272
Mof_N 	N 	0.2254	0.2746	0.3393	-0.186
Mof_C 	C 	0.23379	0.26621	0.382	0.102
Mof_C 	C 	0.2191	0.2809	0.4207	-0.165
Mof_C 	C 	0.2339	0.2661	0.4614	0.129
Mof_H 	H 	0.19783	0.30217	0.42045	0.131
Mof_O 	O 	0.1434	0.3566	0.3033	-0.271
Mof_N 	N 	0.2746	0.3393	0.7746	-0.186
Mof_C 	C 	0.26621	0.382	0.76621	0.102
Mof_C 	C 	0.2809	0.4207	0.7809	-0.165
Mof_C 	C 	0.2661	0.4614	0.7661	0.128
Mof_H 	H 	0.30217	0.42045	0.80217	0.13
Mof_O 	O 	0.3566	0.3033	0.8566	-0.272
Mof_N 	N 	0.2746	0.8393	0.2746	-0.186
Mof_C 	C 	0.26621	0.882	0.26621	0.101
Mof_C 	C 	0.2809	0.9207	0.2809	-0.162
Mof_C 	C 	0.2661	0.9614	0.2661	0.122
Mof_H 	H 	0.30217	0.92045	0.30217	0.129
Mof_O 	O 	0.3566	0.8033	0.3566	-0.272
Mof_N 	N 	0.7254	0.6607	0.7746	-0.186
Mof_C 	C 	0.7338	0.618	0.76621	0.102
Mof_C 	C 	0.7191	0.5793	0.7809	-0.165
Mof_C 	C 	0.7339	0.5386	0.7661	0.128
Mof_H 	H 	0.69783	0.57955	0.80217	0.13
Mof_O 	O 	0.6434	0.6967	0.8566	-0.273
Mof_N 	N 	0.7254	0.1607	0.2746	-0.186
Mof_C 	C 	0.7338	0.118	0.26621	0.102
Mof_C 	C 	0.7191	0.0793	0.2809	-0.164
Mof_C 	C 	0.7339	0.0386	0.2661	0.129
Mof_H 	H 	0.69783	0.07955	0.30217	0.131
Mof_O 	O 	0.6434	0.1967	0.3566	-0.272
Mof_N 	N 	0.2254	0.6607	0.2746	-0.186
Mof_C 	C 	0.23379	0.618	0.26621	0.102
Mof_C 	C 	0.2191	0.5793	0.2809	-0.165
Mof_C 	C 	0.2339	0.5386	0.2661	0.129
Mof_H 	H 	0.19783	0.57955	0.30217	0.131
Mof_O 	O 	0.1434	0.6967	0.3566	-0.271
Mof_N 	N 	0.2746	0.6607	0.2254	-0.186
Mof_C 	C 	0.26621	0.618	0.23379	0.102
Mof_C 	C 	0.2809	0.5793	0.2191	-0.165
Mof_C 	C 	0.2661	0.5386	0.2339	0.129
Mof_H 	H 	0.30217	0.57955	0.19783	0.131
Mof_O 	O 	0.3566	0.6967	0.1434	-0.271
Mof_N 	N 	0.2746	0.1607	0.7254	-0.186
Mof_C 	C 	0.26621	0.118	0.7338	0.102
Mof_C 	C 	0.2809	0.0793	0.7191	-0.164
Mof_C 	C 	0.2661	0.0386	0.7339	0.129
Mof_H 	H 	0.30217	0.07955	0.69783	0.131
Mof_O 	O 	0.3566	0.1967	0.6434	-0.272
Mof_N 	N 	0.7254	0.3393	0.2254	-0.186
Mof_C 	C 	0.7338	0.382	0.23379	0.102
Mof_C 	C 	0.7191	0.4207	0.2191	-0.165
Mof_C 	C 	0.7339	0.4614	0.2339	0.129
Mof_H 	H 	0.69783	0.42045	0.19783	0.131
Mof_O 	O 	0.6434	0.3033	0.1434	-0.271
Mof_N 	N 	0.7254	0.8393	0.7254	-0.186
Mof_C 	C 	0.7338	0.882	0.7338	0.101
Mof_C 	C 	0.7191	0.9207	0.7191	-0.163
Mof_C 	C 	0.7339	0.9614	0.7339	0.122
Mof_H 	H 	0.69783	0.92045	0.69783	0.128
Mof_O 	O 	0.6434	0.8033	0.6434	-0.272
Mof_N 	N 	0.2254	0.8393	0.2254	-0.186
Mof_C 	C 	0.23379	0.882	0.23379	0.101
Mof_C 	C 	0.2191	0.9207	0.2191	-0.163
Mof_C 	C 	0.2339	0.9614	0.2339	0.122
Mof_H 	H 	0.19783	0.92045	0.19783	0.129
Mof_O 	O 	0.1434	0.8033	0.1434	-0.271
Mof_N 	N 	0.3393	0.2254	0.7254	-0.186
Mof_C 	C 	0.382	0.23379	0.7338	0.102
Mof_C 	C 	0.4207	0.2191	0.7191	-0.165
Mof_C 	C 	0.4614	0.2339	0.7339	0.129
Mof_H 	H 	0.42045	0.19783	0.69783	0.131
Mof_O 	O 	0.3033	0.1434	0.6434	-0.271
Mof_N 	N 	0.8393	0.2254	0.2254	-0.186
Mof_C 	C 	0.882	0.23379	0.23379	0.101
Mof_C 	C 	0.9207	0.2191	0.2191	-0.163
Mof_C 	C 	0.9614	0.2339	0.2339	0.122
Mof_H 	H 	0.92045	0.19783	0.19783	0.129
Mof_O 	O 	0.8033	0.1434	0.1434	-0.271
Mof_N 	N 	0.6607	0.2254	0.2746	-0.186
Mof_C 	C 	0.618	0.23379	0.26621	0.102
Mof_C 	C 	0.5793	0.2191	0.2809	-0.165
Mof_C 	C 	0.5386	0.2339	0.2661	0.129
Mof_H 	H 	0.57955	0.19783	0.30217	0.131
Mof_O 	O 	0.6967	0.1434	0.3566	-0.271
Mof_N 	N 	0.1607	0.2254	0.7746	-0.186
Mof_C 	C 	0.118	0.23379	0.76621	0.102
Mof_C 	C 	0.0793	0.2191	0.7809	-0.164
Mof_C 	C 	0.0386	0.2339	0.7661	0.129
Mof_H 	H 	0.07955	0.19783	0.80217	0.131
Mof_O 	O 	0.1967	0.1434	0.8566	-0.272
Mof_N 	N 	0.6607	0.7746	0.7254	-0.186
Mof_C 	C 	0.618	0.76621	0.7338	0.102
Mof_C 	C 	0.5793	0.7809	0.7191	-0.165
Mof_C 	C 	0.5386	0.7661	0.7339	0.128
Mof_H 	H 	0.57955	0.80217	0.69783	0.13
Mof_O 	O 	0.6967	0.8566	0.6434	-0.273
Mof_N 	N 	0.6607	0.2746	0.2254	-0.186
Mof_C 	C 	0.618	0.26621	0.23379	0.102
Mof_C 	C 	0.5793	0.2809	0.2191	-0.165
Mof_C 	C 	0.5386	0.2661	0.2339	0.129
Mof_H 	H 	0.57955	0.30217	0.19783	0.131
Mof_O 	O 	0.6967	0.3566	0.1434	-0.271
Mof_N 	N 	0.1607	0.7746	0.2254	-0.186
Mof_C 	C 	0.118	0.76621	0.23379	0.102
Mof_C 	C 	0.0793	0.7809	0.2191	-0.164
Mof_C 	C 	0.0386	0.7661	0.2339	0.129
Mof_H 	H 	0.07955	0.80217	0.19783	0.131
Mof_O 	O 	0.1967	0.8566	0.1434	-0.272
Mof_N 	N 	0.3393	0.7746	0.2746	-0.186
Mof_C 	C 	0.382	0.76621	0.26621	0.102
Mof_C 	C 	0.4207	0.7809	0.2809	-0.165
Mof_C 	C 	0.4614	0.7661	0.2661	0.128
Mof_H 	H 	0.42045	0.80217	0.30217	0.13
Mof_O 	O 	0.3033	0.8566	0.3566	-0.272
Mof_N 	N 	0.8393	0.7746	0.7746	-0.186
Mof_C 	C 	0.882	0.76621	0.76621	0.101
Mof_C 	C 	0.9207	0.7809	0.7809	-0.163
Mof_C 	C 	0.9614	0.7661	0.7661	0.122
Mof_H 	H 	0.92045	0.80217	0.80217	0.128
Mof_O 	O 	0.8033	0.8566	0.8566	-0.273
Mof_N 	N 	0.8393	0.2746	0.2746	-0.186
Mof_C 	C 	0.882	0.26621	0.26621	0.101
Mof_C 	C 	0.9207	0.2809	0.2809	-0.162
Mof_C 	C 	0.9614	0.2661	0.2661	0.122
Mof_H 	H 	0.92045	0.30217	0.30217	0.129
Mof_O 	O 	0.8033	0.3566	0.3566	-0.272
Mof_N 	N 	0.2254	0.2746	0.6607	-0.186
Mof_C 	C 	0.23379	0.26621	0.618	0.102
Mof_C 	C 	0.2191	0.2809	0.5793	-0.165
Mof_C 	C 	0.2339	0.2661	0.5386	0.129
Mof_H 	H 	0.19783	0.30217	0.57955	0.131
Mof_O 	O 	0.1434	0.3566	0.6967	-0.271
Mof_N 	N 	0.2254	0.7746	0.1607	-0.186
Mof_C 	C 	0.23379	0.76621	0.118	0.102
Mof_C 	C 	0.2191	0.7809	0.0793	-0.164
Mof_C 	C 	0.2339	0.7661	0.0386	0.129
Mof_H 	H 	0.19783	0.80217	0.07955	0.131
Mof_O 	O 	0.1434	0.8566	0.1967	-0.272
Mof_N 	N 	0.2254	0.7254	0.3393	-0.186
Mof_C 	C 	0.23379	0.7338	0.382	0.102
Mof_C 	C 	0.2191	0.7191	0.4207	-0.165
Mof_C 	C 	0.2339	0.7339	0.4614	0.129
Mof_H 	H 	0.19783	0.69783	0.42045	0.131
Mof_O 	O 	0.1434	0.6434	0.3033	-0.271
Mof_N 	N 	0.2254	0.2254	0.8393	-0.186
Mof_C 	C 	0.23379	0.23379	0.882	0.101
Mof_C 	C 	0.2191	0.2191	0.9207	-0.163
Mof_C 	C 	0.2339	0.2339	0.9614	0.122
Mof_H 	H 	0.19783	0.19783	0.92045	0.129
Mof_O 	O 	0.1434	0.1434	0.8033	-0.271
Mof_N 	N 	0.7746	0.2746	0.3393	-0.186
Mof_C 	C 	0.76621	0.26621	0.382	0.102
Mof_C 	C 	0.7809	0.2809	0.4207	-0.165
Mof_C 	C 	0.7661	0.2661	0.4614	0.128
Mof_H 	H 	0.80217	0.30217	0.42045	0.13
Mof_O 	O 	0.8566	0.3566	0.3033	-0.272
Mof_N 	N 	0.7746	0.7746	0.8393	-0.186
Mof_C 	C 	0.76621	0.76621	0.882	0.101
Mof_C 	C 	0.7809	0.7809	0.9207	-0.163
Mof_C 	C 	0.7661	0.7661	0.9614	0.122
Mof_H 	H 	0.80217	0.80217	0.92045	0.128
Mof_O 	O 	0.8566	0.8566	0.8033	-0.273
Mof_N 	N 	0.2746	0.2746	0.8393	-0.186
Mof_C 	C 	0.26621	0.26621	0.882	0.101
Mof_C 	C 	0.2809	0.2809	0.9207	-0.162
Mof_C 	C 	0.2661	0.2661	0.9614	0.122
Mof_H 	H 	0.30217	0.30217	0.92045	0.129
Mof_O 	O 	0.3566	0.3566	0.8033	-0.272
Mof_N 	N 	0.7746	0.7254	0.6607	-0.186
Mof_C 	C 	0.76621	0.7338	0.618	0.102
Mof_C 	C 	0.7809	0.7191	0.5793	-0.165
Mof_C 	C 	0.7661	0.7339	0.5386	0.128
Mof_H 	H 	0.80217	0.69783	0.57955	0.13
Mof_O 	O 	0.8566	0.6434	0.6967	-0.273
Mof_N 	N 	0.7746	0.2254	0.1607	-0.186
Mof_C 	C 	0.76621	0.23379	0.118	0.102
Mof_C 	C 	0.7809	0.2191	0.0793	-0.164
Mof_C 	C 	0.7661	0.2339	0.0386	0.129
Mof_H 	H 	0.80217	0.19783	0.07955	0.131
Mof_O 	O 	0.8566	0.1434	0.1967	-0.272
Mof_N 	N 	0.2746	0.2254	0.6607	-0.186
Mof_C 	C 	0.26621	0.23379	0.618	0.102
Mof_C 	C 	0.2809	0.2191	0.5793	-0.165
Mof_C 	C 	0.2661	0.2339	0.5386	0.129
Mof_H 	H 	0.30217	0.19783	0.57955	0.131
Mof_O 	O 	0.3566	0.1434	0.6967	-0.271
Mof_N 	N 	0.6607	0.7254	0.7746	-0.186
Mof_C 	C 	0.618	0.7338	0.76621	0.102
Mof_C 	C 	0.5793	0.7191	0.7809	-0.165
Mof_C 	C 	0.5386	0.7339	0.7661	0.128
Mof_H 	H 	0.57955	0.69783	0.80217	0.13
Mof_O 	O 	0.6967	0.6434	0.8566	-0.273
Mof_N 	N 	0.1607	0.7254	0.2746	-0.186
Mof_C 	C 	0.118	0.7338	0.26621	0.102
Mof_C 	C 	0.0793	0.7191	0.2809	-0.164
Mof_C 	C 	0.0386	0.7339	0.2661	0.129
Mof_H 	H 	0.07955	0.69783	0.30217	0.131
Mof_O 	O 	0.1967	0.6434	0.3566	-0.272
Mof_N 	N 	0.3393	0.2746	0.7746	-0.186
Mof_C 	C 	0.382	0.26621	0.76621	0.102
Mof_C 	C 	0.4207	0.2809	0.7809	-0.165
Mof_C 	C 	0.4614	0.2661	0.7661	0.128
Mof_H 	H 	0.42045	0.30217	0.80217	0.13
Mof_O 	O 	0.3033	0.3566	0.8566	-0.272
Mof_N 	N 	0.3393	0.7254	0.2254	-0.186
Mof_C 	C 	0.382	0.7338	0.23379	0.102
Mof_C 	C 	0.4207	0.7191	0.2191	-0.165
Mof_C 	C 	0.4614	0.7339	0.2339	0.129
Mof_H 	H 	0.42045	0.69783	0.19783	0.131
Mof_O 	O 	0.3033	0.6434	0.1434	-0.271
Mof_N 	N 	0.8393	0.7254	0.7254	-0.186
Mof_C 	C 	0.882	0.7338	0.7338	0.101
Mof_C 	C 	0.9207	0.7191	0.7191	-0.163
Mof_C 	C 	0.9614	0.7339	0.7339	0.122
Mof_H 	H 	0.92045	0.69783	0.69783	0.128
Mof_O 	O 	0.8033	0.6434	0.6434	-0.272
Mof_N 	N 	0.1607	0.2746	0.7254	-0.186
Mof_C 	C 	0.118	0.26621	0.7338	0.102
Mof_C 	C 	0.0793	0.2809	0.7191	-0.164
Mof_C 	C 	0.0386	0.2661	0.7339	0.129
Mof_H 	H 	0.07955	0.30217	0.69783	0.131
Mof_O 	O 	0.1967	0.3566	0.6434	-0.272
Mof_N 	N 	0.7746	0.6607	0.7254	-0.186
Mof_C 	C 	0.76621	0.618	0.7338	0.102
Mof_C 	C 	0.7809	0.5793	0.7191	-0.165
Mof_C 	C 	0.7661	0.5386	0.7339	0.128
Mof_H 	H 	0.80217	0.57955	0.69783	0.13
Mof_O 	O 	0.8566	0.6967	0.6434	-0.273
Mof_N 	N 	0.7746	0.1607	0.2254	-0.186
Mof_C 	C 	0.76621	0.118	0.23379	0.102
Mof_C 	C 	0.7809	0.0793	0.2191	-0.164
Mof_C 	C 	0.7661	0.0386	0.2339	0.129
Mof_H 	H 	0.80217	0.07955	0.19783	0.131
Mof_O 	O 	0.8566	0.1967	0.1434	-0.272
Mof_N 	N 	0.7746	0.3393	0.2746	-0.186
Mof_C 	C 	0.76621	0.382	0.26621	0.102
Mof_C 	C 	0.7809	0.4207	0.2809	-0.165
Mof_C 	C 	0.7661	0.4614	0.2661	0.128
Mof_H 	H 	0.80217	0.42045	0.30217	0.13
Mof_O 	O 	0.8566	0.3033	0.3566	-0.272
Mof_N 	N 	0.7746	0.8393	0.7746	-0.186
Mof_C 	C 	0.76621	0.882	0.76621	0.101
Mof_C 	C 	0.7809	0.9207	0.7809	-0.163
Mof_C 	C 	0.7661	0.9614	0.7661	0.122
Mof_H 	H 	0.80217	0.92045	0.80217	0.128
Mof_O 	O 	0.8566	0.8033	0.8566	-0.273
Mof_N 	N 	0.2254	0.3393	0.7254	-0.186
Mof_C 	C 	0.23379	0.382	0.7338	0.102
Mof_C 	C 	0.2191	0.4207	0.7191	-0.165
Mof_C 	C 	0.2339	0.4614	0.7339	0.129
Mof_H 	H 	0.19783	0.42045	0.69783	0.131
Mof_O 	O 	0.1434	0.3033	0.6434	-0.271
Mof_N 	N 	0.2254	0.1607	0.7746	-0.186
Mof_C 	C 	0.23379	0.118	0.76621	0.102
Mof_C 	C 	0.2191	0.0793	0.7809	-0.164
Mof_C 	C 	0.2339	0.0386	0.7661	0.129
Mof_H 	H 	0.19783	0.07955	0.80217	0.131
Mof_O 	O 	0.1434	0.1967	0.8566	-0.272
Mof_N 	N 	0.7254	0.7746	0.6607	-0.186
Mof_C 	C 	0.7338	0.76621	0.618	0.102
Mof_C 	C 	0.7191	0.7809	0.5793	-0.165
Mof_C 	C 	0.7339	0.7661	0.5386	0.128
Mof_H 	H 	0.69783	0.80217	0.57955	0.13
Mof_O 	O 	0.6434	0.8566	0.6967	-0.273
Mof_N 	N 	0.7254	0.2746	0.1607	-0.186
Mof_C 	C 	0.7338	0.26621	0.118	0.102
Mof_C 	C 	0.7191	0.2809	0.0793	-0.164
Mof_C 	C 	0.7339	0.2661	0.0386	0.129
Mof_H 	H 	0.69783	0.30217	0.07955	0.131
Mof_O 	O 	0.6434	0.3566	0.1967	-0.272
Mof_N 	N 	0.2746	0.7746	0.3393	-0.186
Mof_C 	C 	0.26621	0.76621	0.382	0.102
Mof_C 	C 	0.2809	0.7809	0.4207	-0.165
Mof_C 	C 	0.2661	0.7661	0.4614	0.128
Mof_H 	H 	0.30217	0.80217	0.42045	0.13
Mof_O 	O 	0.3566	0.8566	0.3033	-0.272
Mof_N 	N 	0.7254	0.2254	0.3393	-0.186
Mof_C 	C 	0.7338	0.23379	0.382	0.102
Mof_C 	C 	0.7191	0.2191	0.4207	-0.165
Mof_C 	C 	0.7339	0.2339	0.4614	0.129
Mof_H 	H 	0.69783	0.19783	0.42045	0.131
Mof_O 	O 	0.6434	0.1434	0.3033	-0.271
Mof_N 	N 	0.7254	0.7254	0.8393	-0.186
Mof_C 	C 	0.7338	0.7338	0.882	0.101
Mof_C 	C 	0.7191	0.7191	0.9207	-0.163
Mof_C 	C 	0.7339	0.7339	0.9614	0.122
Mof_H 	H 	0.69783	0.69783	0.92045	0.128
Mof_O 	O 	0.6434	0.6434	0.8033	-0.272
Mof_N 	N 	0.2746	0.7254	0.1607	-0.186
Mof_C 	C 	0.26621	0.7338	0.118	0.102
Mof_C 	C 	0.2809	0.7191	0.0793	-0.164
Mof_C 	C 	0.2661	0.7339	0.0386	0.129
Mof_H 	H 	0.30217	0.69783	0.07955	0.131
Mof_O 	O 	0.3566	0.6434	0.1967	-0.272
Mof_N 	N 	0.7254	0.6607	0.2254	-0.186
Mof_C 	C 	0.7338	0.618	0.23379	0.102
Mof_C 	C 	0.7191	0.5793	0.2191	-0.165
Mof_C 	C 	0.7339	0.5386	0.2339	0.129
Mof_H 	H 	0.69783	0.57955	0.19783	0.131
Mof_O 	O 	0.6434	0.6967	0.1434	-0.271
Mof_N 	N 	0.7254	0.1607	0.7254	-0.186
Mof_C 	C 	0.7338	0.118	0.7338	0.102
Mof_C 	C 	0.7191	0.0793	0.7191	-0.164
Mof_C 	C 	0.7339	0.0386	0.7339	0.129
Mof_H 	H 	0.69783	0.07955	0.69783	0.131
Mof_O 	O 	0.6434	0.1967	0.6434	-0.272
Mof_N 	N 	0.2746	0.8393	0.7254	-0.186
Mof_C 	C 	0.26621	0.882	0.7338	0.101
Mof_C 	C 	0.2809	0.9207	0.7191	-0.163
Mof_C 	C 	0.2661	0.9614	0.7339	0.122
Mof_H 	H 	0.30217	0.92045	0.69783	0.128
Mof_O 	O 	0.3566	0.8033	0.6434	-0.272
Mof_N 	N 	0.7254	0.3393	0.7746	-0.186
Mof_C 	C 	0.7338	0.382	0.76621	0.102
Mof_C 	C 	0.7191	0.4207	0.7809	-0.165
Mof_C 	C 	0.7339	0.4614	0.7661	0.128
Mof_H 	H 	0.69783	0.42045	0.80217	0.13
Mof_O 	O 	0.6434	0.3033	0.8566	-0.272
Mof_N 	N 	0.7254	0.8393	0.2746	-0.186
Mof_C 	C 	0.7338	0.882	0.26621	0.101
Mof_C 	C 	0.7191	0.9207	0.2809	-0.163
Mof_C 	C 	0.7339	0.9614	0.2661	0.122
Mof_H 	H 	0.69783	0.92045	0.30217	0.128
Mof_O 	O 	0.6434	0.8033	0.3566	-0.272
Mof_N 	N 	0.2746	0.6607	0.7746	-0.186
Mof_C 	C 	0.26621	0.618	0.76621	0.102
Mof_C 	C 	0.2809	0.5793	0.7809	-0.165
Mof_C 	C 	0.2661	0.5386	0.7661	0.128
Mof_H 	H 	0.30217	0.57955	0.80217	0.13
Mof_O 	O 	0.3566	0.6967	0.8566	-0.273
Mof_N 	N 	0.6607	0.7746	0.2746	-0.186
Mof_C 	C 	0.618	0.76621	0.26621	0.102
Mof_C 	C 	0.5793	0.7809	0.2809	-0.165
Mof_C 	C 	0.5386	0.7661	0.2661	0.128
Mof_H 	H 	0.57955	0.80217	0.30217	0.13
Mof_O 	O 	0.6967	0.8566	0.3566	-0.273
Mof_N 	N 	0.1607	0.7746	0.7746	-0.186
Mof_C 	C 	0.118	0.76621	0.76621	0.102
Mof_C 	C 	0.0793	0.7809	0.7809	-0.164
Mof_C 	C 	0.0386	0.7661	0.7661	0.128
Mof_H 	H 	0.07955	0.80217	0.80217	0.13
Mof_O 	O 	0.1967	0.8566	0.8566	-0.273
Mof_N 	N 	0.3393	0.7746	0.7254	-0.186
Mof_C 	C 	0.382	0.76621	0.7338	0.102
Mof_C 	C 	0.4207	0.7809	0.7191	-0.165
Mof_C 	C 	0.4614	0.7661	0.7339	0.128
Mof_H 	H 	0.42045	0.80217	0.69783	0.13
Mof_O 	O 	0.3033	0.8566	0.6434	-0.272
Mof_N 	N 	0.8393	0.7746	0.2254	-0.186
Mof_C 	C 	0.882	0.76621	0.23379	0.101
Mof_C 	C 	0.9207	0.7809	0.2191	-0.163
Mof_C 	C 	0.9614	0.7661	0.2339	0.122
Mof_H 	H 	0.92045	0.80217	0.19783	0.128
Mof_O 	O 	0.8033	0.8566	0.1434	-0.272
Mof_N 	N 	0.8393	0.2254	0.7746	-0.186
Mof_C 	C 	0.882	0.23379	0.76621	0.101
Mof_C 	C 	0.9207	0.2191	0.7809	-0.163
Mof_C 	C 	0.9614	0.2339	0.7661	0.122
Mof_H 	H 	0.92045	0.19783	0.80217	0.128
Mof_O 	O 	0.8033	0.1434	0.8566	-0.272
Mof_N 	N 	0.6607	0.2254	0.7254	-0.186
Mof_C 	C 	0.618	0.23379	0.7338	0.102
Mof_C 	C 	0.5793	0.2191	0.7191	-0.165
Mof_C 	C 	0.5386	0.2339	0.7339	0.129
Mof_H 	H 	0.57955	0.19783	0.69783	0.131
Mof_O 	O 	0.6967	0.1434	0.6434	-0.271
Mof_N 	N 	0.7746	0.7254	0.3393	-0.186
Mof_C 	C 	0.76621	0.7338	0.382	0.102
Mof_C 	C 	0.7809	0.7191	0.4207	-0.165
Mof_C 	C 	0.7661	0.7339	0.4614	0.128
Mof_H 	H 	0.80217	0.69783	0.42045	0.13
Mof_O 	O 	0.8566	0.6434	0.3033	-0.272
Mof_N 	N 	0.7746	0.2254	0.8393	-0.186
Mof_C 	C 	0.76621	0.23379	0.882	0.101
Mof_C 	C 	0.7809	0.2191	0.9207	-0.163
Mof_C 	C 	0.7661	0.2339	0.9614	0.122
Mof_H 	H 	0.80217	0.19783	0.92045	0.128
Mof_O 	O 	0.8566	0.1434	0.8033	-0.272
Mof_N 	N 	0.7746	0.2746	0.6607	-0.186
Mof_C 	C 	0.76621	0.26621	0.618	0.102
Mof_C 	C 	0.7809	0.2809	0.5793	-0.165
Mof_C 	C 	0.7661	0.2661	0.5386	0.128
Mof_H 	H 	0.80217	0.30217	0.57955	0.13
Mof_O 	O 	0.8566	0.3566	0.6967	-0.273
Mof_N 	N 	0.7746	0.7746	0.1607	-0.186
Mof_C 	C 	0.76621	0.76621	0.118	0.102
Mof_C 	C 	0.7809	0.7809	0.0793	-0.164
Mof_C 	C 	0.7661	0.7661	0.0386	0.128
Mof_H 	H 	0.80217	0.80217	0.07955	0.13
Mof_O 	O 	0.8566	0.8566	0.1967	-0.273
Mof_N 	N 	0.2254	0.7254	0.6607	-0.186
Mof_C 	C 	0.23379	0.7338	0.618	0.102
Mof_C 	C 	0.2191	0.7191	0.5793	-0.165
Mof_C 	C 	0.2339	0.7339	0.5386	0.129
Mof_H 	H 	0.19783	0.69783	0.57955	0.131
Mof_O 	O 	0.1434	0.6434	0.6967	-0.271
Mof_N 	N 	0.2254	0.7746	0.8393	-0.186
Mof_C 	C 	0.23379	0.76621	0.882	0.101
Mof_C 	C 	0.2191	0.7809	0.9207	-0.163
Mof_C 	C 	0.2339	0.7661	0.9614	0.122
Mof_H 	H 	0.19783	0.80217	0.92045	0.128
Mof_O 	O 	0.1434	0.8566	0.8033	-0.272
Mof_N 	N 	0.3141	0.25	0.25	-0.2
Mof_N 	N 	0.8141	0.25	0.75	-0.2
Mof_N 	N 	0.6859	0.75	0.25	-0.2
Mof_N 	N 	0.1859	0.75	0.75	-0.2
Mof_N 	N 	0.1859	0.25	0.25	-0.2
Mof_N 	N 	0.6859	0.25	0.75	-0.2
Mof_N 	N 	0.3141	0.75	0.75	-0.2
Mof_N 	N 	0.8141	0.75	0.25	-0.2
Mof_N 	N 	0.25	0.3141	0.25	-0.2
Mof_N 	N 	0.25	0.8141	0.75	-0.2
Mof_N 	N 	0.25	0.6859	0.75	-0.2
Mof_N 	N 	0.25	0.1859	0.25	-0.2
Mof_N 	N 	0.75	0.6859	0.25	-0.2
Mof_N 	N 	0.75	0.1859	0.75	-0.2
Mof_N 	N 	0.75	0.3141	0.75	-0.2
Mof_N 	N 	0.75	0.8141	0.25	-0.2
Mof_N 	N 	0.25	0.25	0.3141	-0.2
Mof_N 	N 	0.25	0.75	0.8141	-0.2
Mof_N 	N 	0.75	0.25	0.6859	-0.2
Mof_N 	N 	0.75	0.75	0.1859	-0.2
Mof_N 	N 	0.25	0.25	0.1859	-0.2
Mof_N 	N 	0.25	0.75	0.6859	-0.2
Mof_N 	N 	0.75	0.75	0.3141	-0.2
Mof_N 	N 	0.75	0.25	0.8141	-0.2
Mof_N 	N 	0.25	0.3141	0.75	-0.2
Mof_N 	N 	0.25	0.8141	0.25	-0.2
Mof_N 	N 	0.75	0.6859	0.75	-0.2
Mof_N 	N 	0.75	0.1859	0.25	-0.2
Mof_N 	N 	0.25	0.6859	0.25	-0.2
Mof_N 	N 	0.25	0.1859	0.75	-0.2
Mof_N 	N 	0.75	0.3141	0.25	-0.2
Mof_N 	N 	0.75	0.8141	0.75	-0.2
Mof_N 	N 	0.3141	0.25	0.75	-0.2
Mof_N 	N 	0.8141	0.25	0.25	-0.2
Mof_N 	N 	0.6859	0.25	0.25	-0.2
Mof_N 	N 	0.1859	0.25	0.75	-0.2
Mof_N 	N 	0.6859	0.75	0.75	-0.2
Mof_N 	N 	0.1859	0.75	0.25	-0.2
Mof_N 	N 	0.3141	0.75	0.25	-0.2
Mof_N 	N 	0.8141	0.75	0.75	-0.2
Mof_N 	N 	0.25	0.25	0.6859	-0.2
Mof_N 	N 	0.25	0.75	0.1859	-0.2
Mof_N 	N 	0.25	0.75	0.3141	-0.2
Mof_N 	N 	0.25	0.25	0.8141	-0.2
Mof_N 	N 	0.75	0.25	0.3141	-0.2
Mof_N 	N 	0.75	0.75	0.8141	-0.2
Mof_N 	N 	0.75	0.75	0.6859	-0.2
Mof_N 	N 	0.75	0.25	0.1859	-0.2
Mof_O 	O 	0.5	0.28198	0.21802	-0.206
Mof_O 	O 	-4.13812e-33	0.28198	0.71802	-0.2
Mof_O 	O 	0.5	0.71802	0.21802	-0.206
Mof_O 	O 	2.69214e-33	0.71802	0.71802	-0.2
Mof_O 	O 	0.5	0.28198	0.78198	-0.207
Mof_O 	O 	-5.77301e-33	0.28198	0.28198	-0.2
Mof_O 	O 	0.5	0.71802	0.78198	-0.207
Mof_O 	O 	1.05726e-33	0.71802	0.28198	-0.2
Mof_O 	O 	0.21802	0.5	0.28198	-0.206
Mof_O 	O 	0.21802	0	0.78198	-0.2
Mof_O 	O 	0.21802	0.5	0.71802	-0.206
Mof_O 	O 	0.21802	0	0.21802	-0.199
Mof_O 	O 	0.78198	0.5	0.28198	-0.207
Mof_O 	O 	0.78198	0	0.78198	-0.201
Mof_O 	O 	0.78198	0.5	0.71802	-0.207
Mof_O 	O 	0.78198	0	0.21802	-0.2
Mof_O 	O 	0.28198	0.21802	0.5	-0.206
Mof_O 	O 	0.28198	0.71802	-0	-0.2
Mof_O 	O 	0.71802	0.21802	0.5	-0.206
Mof_O 	O 	0.71802	0.71802	-0	-0.2
Mof_O 	O 	0.28198	0.78198	0.5	-0.207
Mof_O 	O 	0.28198	0.28198	-0	-0.2
Mof_O 	O 	0.71802	0.78198	0.5	-0.207
Mof_O 	O 	0.71802	0.28198	-0	-0.2
Mof_O 	O 	0.28198	0.5	0.78198	-0.207
Mof_O 	O 	0.28198	-3.41513e-33	0.28198	-0.2
Mof_O 	O 	0.71802	0.5	0.78198	-0.207
Mof_O 	O 	0.71802	-3.41513e-33	0.28198	-0.2
Mof_O 	O 	0.28198	0.5	0.21802	-0.206
Mof_O 	O 	0.28198	0	0.71802	-0.2
Mof_O 	O 	0.71802	0.5	0.21802	-0.206
Mof_O 	O 	0.71802	0	0.71802	-0.2
Mof_O 	O 	0.5	0.21802	0.71802	-0.206
Mof_O 	O 	8.17444e-34	0.21802	0.21802	-0.199
Mof_O 	O 	0.5	0.21802	0.28198	-0.206
Mof_O 	O 	2.93196e-33	0.21802	0.78198	-0.2
Mof_O 	O 	0.5	0.78198	0.71802	-0.207
Mof_O 	O 	2.52501e-33	0.78198	0.21802	-0.2
Mof_O 	O 	0.5	0.78198	0.28198	-0.207
Mof_O 	O 	1.65925e-32	0.78198	0.78198	-0.201
Mof_O 	O 	0.21802	0.28198	0.5	-0.206
Mof_O 	O 	0.21802	0.78198	-0	-0.2
Mof_O 	O 	0.21802	0.71802	0.5	-0.206
Mof_O 	O 	0.21802	0.21802	-0	-0.199
Mof_O 	O 	0.78198	0.28198	0.5	-0.207
Mof_O 	O 	0.78198	0.78198	-0	-0.201
Mof_O 	O 	0.78198	0.71802	0.5	-0.207
Mof_O 	O 	0.78198	0.21802	-0	-0.2
Mof_Zn	Zn	0.25	0.25	0.25	1.196
Mof_Zn	Zn	0.75	0.75	0.25	1.196
Mof_Zn	Zn	0.75	0.25	0.75	1.196
Mof_Zn	Zn	0.25	0.75	0.75	1.196
Mof_Zn	Zn	0.25	0.25	0.75	1.196
Mof_Zn	Zn	0.75	0.75	0.75	1.196
Mof_Zn	Zn	0.75	0.25	0.25	1.196
Mof_Zn	Zn	0.25	0.75	0.25	1.196
Mof_Cu	Cu	0.3146	0.3146	0.1854	0.946
Mof_C 	C 	0.3566	0.3566	0.1434	0.111
Mof_H 	H 	0.37491	0.37491	0.12509	0.039
Mof_Cu	Cu	0.6854	0.6854	0.1854	0.946
Mof_C 	C 	0.6434	0.6434	0.1434	0.111
Mof_H 	H 	0.62509	0.62509	0.12509	0.039
Mof_Cu	Cu	0.1854	0.1854	0.1854	0.946
Mof_C 	C 	0.1434	0.1434	0.1434	0.111
Mof_H 	H 	0.12509	0.12509	0.12509	0.041
Mof_Cu	Cu	0.6854	0.3146	0.8146	0.946
Mof_C 	C 	0.6434	0.3566	0.8566	0.111
Mof_H 	H 	0.62509	0.37491	0.87491	0.037
Mof_Cu	Cu	0.1854	0.3146	0.3146	0.946
Mof_C 	C 	0.1434	0.3566	0.3566	0.111
Mof_H 	H 	0.12509	0.37491	0.37491	0.039
Mof_Cu	Cu	0.3146	0.6854	0.8146	0.946
Mof_C 	C 	0.3566	0.6434	0.8566	0.111
Mof_H 	H 	0.37491	0.62509	0.87491	0.037
Mof_Cu	Cu	0.3146	0.1854	0.3146	0.946
Mof_C 	C 	0.3566	0.1434	0.3566	0.111
Mof_H 	H 	0.37491	0.12509	0.37491	0.039
Mof_Cu	Cu	0.1854	0.8146	0.8146	0.946
Mof_C 	C 	0.1434	0.8566	0.8566	0.111
Mof_H 	H 	0.12509	0.87491	0.87491	0.037
Mof_Cu	Cu	0.1854	0.6854	0.6854	0.946
Mof_C 	C 	0.1434	0.6434	0.6434	0.111
Mof_H 	H 	0.12509	0.62509	0.62509	0.039
Mof_Cu	Cu	0.8146	0.6854	0.3146	0.946
Mof_C 	C 	0.8566	0.6434	0.3566	0.111
Mof_H 	H 	0.87491	0.62509	0.37491	0.037
Mof_Cu	Cu	0.8146	0.1854	0.8146	0.946
Mof_C 	C 	0.8566	0.1434	0.8566	0.111
Mof_H 	H 	0.87491	0.12509	0.87491	0.037
Mof_Cu	Cu	0.8146	0.3146	0.6854	0.946
Mof_C 	C 	0.8566	0.3566	0.6434	0.111
Mof_H 	H 	0.87491	0.37491	0.62509	0.037
Mof_Cu	Cu	0.8146	0.8146	0.1854	0.946
Mof_C 	C 	0.8566	0.8566	0.1434	0.111
Mof_H 	H 	0.87491	0.87491	0.12509	0.037
Mof_Cu	Cu	0.6854	0.1854	0.6854	0.946
Mof_C 	C 	0.6434	0.1434	0.6434	0.111
Mof_H 	H 	0.62509	0.12509	0.62509	0.039
Mof_Cu	Cu	0.3146	0.8146	0.6854	0.946
Mof_C 	C 	0.3566	0.8566	0.6434	0.111
Mof_H 	H 	0.37491	0.87491	0.62509	0.037
Mof_Cu	Cu	0.6854	0.8146	0.3146	0.946
Mof_C 	C 	0.6434	0.8566	0.3566	0.111
Mof_H 	H 	0.62509	0.87491	0.37491	0.037
Mof_Cu	Cu	0.3146	0.3146	0.8146	0.946
Mof_C 	C 	0.3566	0.3566	0.8566	0.111
Mof_H 	H 	0.37491	0.37491	0.87491	0.037
Mof_Cu	Cu	0.6854	0.6854	0.8146	0.946
Mof_C 	C 	0.6434	0.6434	0.8566	0.111
Mof_H 	H 	0.62509	0.62509	0.87491	0.037
Mof_Cu	Cu	0.6854	0.1854	0.3146	0.946
Mof_C 	C 	0.6434	0.1434	0.3566	0.111
Mof_H 	H 	0.62509	0.12509	0.37491	0.039
Mof_Cu	Cu	0.1854	0.6854	0.3146	0.946
Mof_C 	C 	0.1434	0.6434	0.3566	0.111
Mof_H 	H 	0.12509	0.62509	0.37491	0.039
Mof_Cu	Cu	0.3146	0.6854	0.1854	0.946
Mof_C 	C 	0.3566	0.6434	0.1434	0.111
Mof_H 	H 	0.37491	0.62509	0.12509	0.039
Mof_Cu	Cu	0.6854	0.3146	0.1854	0.946
Mof_C 	C 	0.6434	0.3566	0.1434	0.111
Mof_H 	H 	0.62509	0.37491	0.12509	0.039
Mof_Cu	Cu	0.1854	0.8146	0.1854	0.946
Mof_C 	C 	0.1434	0.8566	0.1434	0.111
Mof_H 	H 	0.12509	0.87491	0.12509	0.039
Mof_Cu	Cu	0.3146	0.1854	0.6854	0.946
Mof_C 	C 	0.3566	0.1434	0.6434	0.111
Mof_H 	H 	0.37491	0.12509	0.62509	0.039
Mof_Cu	Cu	0.1854	0.1854	0.8146	0.946
Mof_C 	C 	0.1434	0.1434	0.8566	0.111
Mof_H 	H 	0.12509	0.12509	0.87491	0.039
Mof_Cu	Cu	0.6854	0.8146	0.6854	0.946
Mof_C 	C 	0.6434	0.8566	0.6434	0.111
Mof_H 	H 	0.62509	0.87491	0.62509	0.037
Mof_Cu	Cu	0.1854	0.3146	0.6854	0.946
Mof_C 	C 	0.1434	0.3566	0.6434	0.111
Mof_H 	H 	0.12509	0.37491	0.62509	0.039
Mof_Cu	Cu	0.3146	0.8146	0.3146	0.946
Mof_C 	C 	0.3566	0.8566	0.3566	0.111
Mof_H 	H 	0.37491	0.87491	0.37491	0.037
Mof_Cu	Cu	0.8146	0.3146	0.3146	0.946
Mof_C 	C 	0.8566	0.3566	0.3566	0.111
Mof_H 	H 	0.87491	0.37491	0.37491	0.037
Mof_Cu	Cu	0.8146	0.8146	0.8146	0.946
Mof_C 	C 	0.8566	0.8566	0.8566	0.111
Mof_H 	H 	0.87491	0.87491	0.87491	0.035
Mof_Cu	Cu	0.8146	0.6854	0.6854	0.946
Mof_C 	C 	0.8566	0.6434	0.6434	0.111
Mof_H 	H 	0.87491	0.62509	0.62509	0.037
Mof_Cu	Cu	0.8146	0.1854	0.1854	0.946
Mof_C 	C 	0.8566	0.1434	0.1434	0.111
Mof_H 	H 	0.87491	0.12509	0.12509	0.039
_end
