data_functionalizedCrystal
_audit_creation_method	'EQeq! by Chris Wilmer'
_symmetry_space_group_name_H-M	'P1'
_symmetry_Int_Tables_number	1
_symmetry_cell_setting	triclinic
loop_
_symmetry_equiv_pos_as_xyz
  x,y,z
_cell_length_a	21.9124
_cell_length_b	36.701
_cell_length_c	38.7102
_cell_angle_alpha	90
_cell_angle_beta	100.599
_cell_angle_gamma	90
loop_
_atom_site_label
_atom_site_type_symbol
_atom_site_fract_x
_atom_site_fract_y
_atom_site_fract_z
_atom_site_charge
Mof_Zn	Zn	0.3695	0.03968	0.0316	1.22
Mof_Zn	Zn	0.37437	0.08812	0.11523	0.702
Mof_Zn	Zn	0.84229	0.58617	0.21153	1.229
Mof_N 	N 	0.3298	0.75021	0.16977	-0.19
Mof_N 	N 	0.8763	0.20115	0.05644	-0.182
Mof_N 	N 	0.3863	0.03916	0.98074	-0.308
Mof_N 	N 	0.3677	0.93618	0.76101	-0.323
Mof_O 	O 	0.7918	0.6406	0.2301	-0.387
Mof_O 	O 	0.7968	0.48676	0.02735	-0.33
Mof_O 	O 	0.7554	0.5997	0.19456	-0.501
Mof_O 	O 	0.3412	0.03857	0.18788	-0.535
Mof_O 	O 	0.8976	0.49129	0.04908	-0.452
Mof_O 	O 	0.92336	0.61038	0.21186	-0.468
Mof_O 	O 	0.3903	0.03807	0.14426	-0.601
Mof_O 	O 	0.887	0.61956	0.15558	-0.547
Mof_O 	O 	0.31038	0.06235	0.08314	-0.578
Mof_O 	O 	0.44746	0.06799	0.0483	-0.532
Mof_O 	O 	0.45986	0.08332	0.10437	-0.575
Mof_O 	O 	0.29644	0.07195	0.02585	-0.483
Mof_C 	C 	0.6782	0.678	0.2181	0.172
Mof_H 	H 	0.7137	0.6894	0.2302	-0.014
Mof_C 	C 	0.3926	0.0689	0.9268	-0.364
Mof_H 	H 	0.3783	0.0876	0.9111	0.152
Mof_C 	C 	0.5804	0.6491	0.1787	-0.304
Mof_H 	H 	0.5491	0.6396	0.1616	0.136
Mof_C 	C 	0.3054	0.8105	0.1894	-0.2
Mof_H 	H 	0.283	0.7998	0.2049	0.104
Mof_C 	C 	0.434	0.0275	0.85664	0.34
Mof_H 	H 	0.4148	0.0383	0.8357	-0.096
Mof_C 	C 	0.4631	0.0497	0.8867	-0.568
Mof_H 	H 	0.4597	0.0752	0.8799	0.19
Mof_H 	H 	0.5069	0.0438	0.8924	0.199
Mof_C 	C 	0.4349	0.0448	0.9197	0.376
Mof_C 	C 	0.4361	0.9882	0.86035	-0.6
Mof_H 	H 	0.4118	0.9811	0.8778	0.207
Mof_H 	H 	0.4787	0.9808	0.8689	0.208
Mof_C 	C 	0.4478	0.9616	0.8032	-0.432
Mof_H 	H 	0.4898	0.9673	0.809	0.182
Mof_C 	C 	0.3419	0.9274	0.195	-0.238
Mof_H 	H 	0.3317	0.9161	0.2146	0.113
Mof_C 	C 	0.374	0.8432	0.1463	0.066
Mof_H 	H 	0.3995	0.8536	0.1323	0.004
Mof_C 	C 	0.452	0.0181	0.9429	-0.401
Mof_H 	H 	0.4811	0.0009	0.9389	0.174
Mof_C 	C 	0.3463	0.9644	0.1949	0.183
Mof_H 	H 	0.3392	0.9777	0.2142	-0.023
Mof_C 	C 	0.684	0.6436	0.20435	-0.278
Mof_C 	C 	0.6368	0.6318	0.1839	0.245
Mof_H 	H 	0.6403	0.6103	0.1717	-0.042
Mof_C 	C 	0.9231	0.26064	0.0696	-0.169
Mof_H 	H 	0.9595	0.2497	0.081	0.093
Mof_C 	C 	0.4952	0.7279	0.2045	0.131
Mof_H 	H 	0.5274	0.7385	0.2203	-0.019
Mof_C 	C 	0.4253	0.9467	0.7712	0.255
Mof_H 	H 	0.4526	0.9438	0.7556	-0.064
Mof_C 	C 	0.3984	0.6983	0.1626	-0.243
Mof_H 	H 	0.3652	0.6877	0.1475	0.117
Mof_C 	C 	0.3894	0.7309	0.1778	0.202
Mof_C 	C 	0.3655	0.8053	0.1456	-0.188
Mof_H 	H 	0.3825	0.7911	0.1298	0.102
Mof_C 	C 	0.3451	0.8655	0.16751	-0.116
Mof_C 	C 	0.3706	0.06524	0.9588	0.208
Mof_H 	H 	0.3431	0.0827	0.9642	-0.05
Mof_C 	C 	0.8479	0.47312	0.04004	0.305
Mof_C 	C 	0.567	0.678	0.19583	0.213
Mof_C 	C 	0.0372	0.64312	0.20788	0.112
Mof_H 	H 	0.0333	0.6308	0.2283	0.016
Mof_C 	C 	0.0916	0.66019	0.20605	-0.188
Mof_H 	H 	0.1245	0.6586	0.225	0.111
Mof_C 	C 	0.6225	0.6963	0.2146	-0.24
Mof_H 	H 	0.6203	0.7195	0.224	0.114
Mof_C 	C 	0.7469	0.6265	0.2099	0.452
Mof_C 	C 	0.3528	0.9559	0.8166	-0.428
Mof_H 	H 	0.3251	0.9586	0.8319	0.177
Mof_C 	C 	0.4389	0.7457	0.1981	-0.244
Mof_H 	H 	0.4353	0.7685	0.2081	0.116
Mof_C 	C 	0.4115	0.96804	0.82607	0.429
Mof_C 	C 	0.1629	0.72984	0.15489	0.043
Mof_H 	H 	0.1262	0.7398	0.1427	0.013
Mof_C 	C 	0.2147	0.6834	0.1922	0.029
Mof_H 	H 	0.2141	0.6616	0.2044	0.03
Mof_C 	C 	0.3334	0.9396	0.7849	0.262
Mof_H 	H 	0.2932	0.9304	0.7801	-0.074
Mof_C 	C 	0.271	0.7018	0.1917	-0.159
Mof_H 	H 	0.3072	0.6931	0.2056	0.09
Mof_C 	C 	0.5062	0.6966	0.18967	-0.168
Mof_C 	C 	0.4525	0.6812	0.1684	0.128
Mof_H 	H 	0.4556	0.6584	0.1582	-0.02
Mof_C 	C 	0.3521	0.9055	0.16709	0.169
Mof_C 	C 	0.2172	0.74647	0.153	-0.163
Mof_H 	H 	0.2174	0.7675	0.1397	0.09
Mof_C 	C 	0.8673	0.31553	0.05112	-0.065
Mof_C 	C 	0.0484	0.6815	0.14912	-0.184
Mof_H 	H 	0.051	0.6955	0.1294	0.093
Mof_C 	C 	0.8015	0.41103	0.04363	0.042
Mof_H 	H 	0.7628	0.4222	0.0409	0.03
Mof_C 	C 	0.9203	0.29843	0.0674	0.032
Mof_H 	H 	0.9548	0.3122	0.0772	0.013
Mof_C 	C 	0.2742	0.73182	0.17133	0.143
Mof_C 	C 	0.1376	0.11088	0.08512	-0.181
Mof_H 	H 	0.1204	0.1108	0.1054	0.095
Mof_C 	C 	0.9942	0.66289	0.15037	0.113
Mof_H 	H 	0.9619	0.6633	0.1311	-0.016
Mof_C 	C 	0.4272	0.016	0.97223	0.236
Mof_H 	H 	0.4399	0.9969	0.9876	-0.061
Mof_C 	C 	0.818	0.29483	0.03686	0.029
Mof_H 	H 	0.7815	0.3061	0.0261	0.019
Mof_C 	C 	0.3708	0.9245	0.13951	-0.237
Mof_H 	H 	0.3798	0.9115	0.1204	0.115
Mof_C 	C 	0.3106	0.8482	0.1886	0.075
Mof_H 	H 	0.2899	0.8621	0.2029	0.001
Mof_C 	C 	0.9162	0.37787	0.0518	-0.135
Mof_H 	H 	0.9554	0.3673	0.0546	0.073
Mof_C 	C 	0.8637	0.3559	0.05009	0.082
Mof_C 	C 	0.9714	0.19324	0.0334	-0.173
Mof_H 	H 	0.9603	0.2128	0.0183	0.093
Mof_C 	C 	0.8527	0.43126	0.04486	-0.102
Mof_C 	C 	0.7549	0.13032	0.04542	0.035
Mof_H 	H 	0.745	0.1091	0.0326	0.022
Mof_C 	C 	0.8229	0.18181	0.06058	0.144
Mof_C 	C 	0.3612	0.98216	0.16639	-0.269
Mof_C 	C 	0.0993	0.68003	0.17626	0.124
Mof_C 	C 	0.332	0.78915	0.1682	0.171
Mof_C 	C 	0.8069	0.1498	0.04144	-0.16
Mof_H 	H 	0.8315	0.1416	0.0259	0.09
Mof_C 	C 	0.0049	0.13476	0.07804	0.05
Mof_H 	H 	0.0151	0.1148	0.0928	0.01
Mof_C 	C 	0.1599	0.6988	0.17417	-0.076
Mof_C 	C 	0.637	0.12079	0.10284	-0.191
Mof_H 	H 	0.662	0.129	0.1234	0.098
Mof_C 	C 	0.1836	0.10657	0.0249	0.112
Mof_H 	H 	0.1975	0.104	0.0037	0.006
Mof_C 	C 	0.733	0.17341	0.08739	0.036
Mof_H 	H 	0.7086	0.1813	0.1032	0.02
Mof_C 	C 	0.3763	0.96183	0.13978	0.18
Mof_H 	H 	0.3906	0.9734	0.1214	-0.028
Mof_C 	C 	0.6213	0.10785	0.041	-0.184
Mof_H 	H 	0.635	0.1081	0.0196	0.102
Mof_C 	C 	0.8062	0.37382	0.04633	-0.135
Mof_H 	H 	0.7704	0.3601	0.0457	0.078
Mof_C 	C 	0.9101	0.41527	0.04927	0.03
Mof_H 	H 	0.9453	0.4297	0.0506	0.028
Mof_C 	C 	0.9876	0.64366	0.18015	-0.185
Mof_C 	C 	0.874	0.23913	0.05532	0.152
Mof_C 	C 	0.9329	0.18193	0.0556	0.15
Mof_C 	C 	0.8209	0.25646	0.03805	-0.16
Mof_H 	H 	0.787	0.2428	0.0272	0.088
Mof_C 	C 	0.0269	0.17505	0.0339	0.049
Mof_H 	H 	0.0527	0.1829	0.0189	0.01
Mof_C 	C 	0.7848	0.19356	0.08338	-0.165
Mof_H 	H 	0.7941	0.215	0.096	0.092
Mof_C 	C 	0.658	0.12338	0.07103	0.124
Mof_C 	C 	0.4781	0.07942	0.07566	0.473
Mof_C 	C 	0.1948	0.09468	0.08659	0.099
Mof_H 	H 	0.2171	0.0857	0.1076	-0.005
Mof_C 	C 	0.0458	0.14551	0.05584	-0.092
Mof_C 	C 	0.951	0.15279	0.07849	-0.17
Mof_H 	H 	0.9258	0.1457	0.0942	0.092
Mof_C 	C 	0.5426	0.09239	0.07465	-0.207
Mof_C 	C 	0.9293	0.62293	0.1825	0.406
Mof_C 	C 	0.1042	0.12715	0.05541	0.136
Mof_C 	C 	0.3651	0.0227	0.16604	0.547
Mof_C 	C 	0.2182	0.09227	0.05525	-0.183
Mof_C 	C 	0.7169	0.14204	0.0685	-0.077
Mof_C 	C 	0.5643	0.09211	0.04338	0.114
Mof_H 	H 	0.5407	0.0813	0.0236	0.003
Mof_C 	C 	0.5798	0.10633	0.10414	0.116
Mof_H 	H 	0.5658	0.1059	0.1254	0.003
Mof_C 	C 	0.2799	0.07463	0.0548	0.402
Mof_C 	C 	0.129	0.12447	0.02553	-0.192
Mof_H 	H 	0.108	0.1352	0.005	0.097
Mof_Zn	Zn	0.3856	0.0755	0.1182	0.761
Mof_Zn	Zn	0.8695	0.53968	0.0316	1.219
Mof_Zn	Zn	0.87437	0.58812	0.11523	0.701
Mof_Zn	Zn	0.34229	0.08617	0.21153	1.228
Mof_N 	N 	0.8298	0.25021	0.16977	-0.191
Mof_N 	N 	0.3763	0.70115	0.05644	-0.183
Mof_N 	N 	0.8863	0.53916	0.98074	-0.309
Mof_N 	N 	0.8677	0.43618	0.76101	-0.324
Mof_O 	O 	0.2918	0.1406	0.2301	-0.388
Mof_O 	O 	0.2968	0.98676	0.02735	-0.331
Mof_O 	O 	0.2554	0.0997	0.19456	-0.502
Mof_O 	O 	0.8412	0.53857	0.18788	-0.536
Mof_O 	O 	0.3976	0.99129	0.04908	-0.453
Mof_O 	O 	0.42336	0.11038	0.21186	-0.469
Mof_O 	O 	0.8903	0.53807	0.14426	-0.602
Mof_O 	O 	0.387	0.11956	0.15558	-0.548
Mof_O 	O 	0.81038	0.56235	0.08314	-0.579
Mof_O 	O 	0.94746	0.56799	0.0483	-0.533
Mof_O 	O 	0.95986	0.58332	0.10437	-0.576
Mof_O 	O 	0.79644	0.57195	0.02585	-0.484
Mof_C 	C 	0.1782	0.178	0.2181	0.171
Mof_H 	H 	0.2137	0.1894	0.2302	-0.015
Mof_C 	C 	0.8926	0.5689	0.9268	-0.365
Mof_H 	H 	0.8783	0.5876	0.9111	0.151
Mof_C 	C 	0.0804	0.1491	0.1787	-0.305
Mof_H 	H 	0.0491	0.1396	0.1616	0.135
Mof_C 	C 	0.8054	0.3105	0.1894	-0.201
Mof_H 	H 	0.783	0.2998	0.2049	0.103
Mof_C 	C 	0.934	0.5275	0.85664	0.339
Mof_H 	H 	0.9148	0.5383	0.8357	-0.096
Mof_C 	C 	0.9631	0.5497	0.8867	-0.568
Mof_H 	H 	0.9597	0.5752	0.8799	0.19
Mof_H 	H 	0.0069	0.5438	0.8924	0.199
Mof_C 	C 	0.9349	0.5448	0.9197	0.376
Mof_C 	C 	0.9361	0.4882	0.86035	-0.6
Mof_H 	H 	0.9118	0.4811	0.8778	0.207
Mof_H 	H 	0.9787	0.4808	0.8689	0.208
Mof_C 	C 	0.9478	0.4616	0.8032	-0.432
Mof_H 	H 	0.9898	0.4673	0.809	0.182
Mof_C 	C 	0.8419	0.4274	0.195	-0.238
Mof_H 	H 	0.8317	0.4161	0.2146	0.113
Mof_C 	C 	0.874	0.3432	0.1463	0.066
Mof_H 	H 	0.8995	0.3536	0.1323	0.004
Mof_C 	C 	0.952	0.5181	0.9429	-0.401
Mof_H 	H 	0.9811	0.5009	0.9389	0.173
Mof_C 	C 	0.8463	0.4644	0.1949	0.183
Mof_H 	H 	0.8392	0.4777	0.2142	-0.023
Mof_C 	C 	0.184	0.1436	0.20435	-0.278
Mof_C 	C 	0.1368	0.1318	0.1839	0.245
Mof_H 	H 	0.1403	0.1103	0.1717	-0.042
Mof_C 	C 	0.4231	0.76064	0.0696	-0.169
Mof_H 	H 	0.4595	0.7497	0.081	0.093
Mof_C 	C 	0.9952	0.2279	0.2045	0.131
Mof_H 	H 	0.0274	0.2385	0.2203	-0.019
Mof_C 	C 	0.9253	0.4467	0.7712	0.255
Mof_H 	H 	0.9526	0.4438	0.7556	-0.064
Mof_C 	C 	0.8984	0.1983	0.1626	-0.243
Mof_H 	H 	0.8652	0.1877	0.1475	0.117
Mof_C 	C 	0.8894	0.2309	0.1778	0.202
Mof_C 	C 	0.8655	0.3053	0.1456	-0.188
Mof_H 	H 	0.8825	0.2911	0.1298	0.102
Mof_C 	C 	0.8451	0.3655	0.16751	-0.116
Mof_C 	C 	0.8706	0.56524	0.9588	0.208
Mof_H 	H 	0.8431	0.5827	0.9642	-0.05
Mof_C 	C 	0.3479	0.97312	0.04004	0.305
Mof_C 	C 	0.067	0.178	0.19583	0.213
Mof_C 	C 	0.5372	0.14312	0.20788	0.112
Mof_H 	H 	0.5333	0.1308	0.2283	0.016
Mof_C 	C 	0.5916	0.16019	0.20605	-0.188
Mof_H 	H 	0.6245	0.1586	0.225	0.111
Mof_C 	C 	0.1225	0.1963	0.2146	-0.24
Mof_H 	H 	0.1203	0.2195	0.224	0.114
Mof_C 	C 	0.2469	0.1265	0.2099	0.452
Mof_C 	C 	0.8528	0.4559	0.8166	-0.428
Mof_H 	H 	0.8251	0.4586	0.8319	0.177
Mof_C 	C 	0.9389	0.2457	0.1981	-0.243
Mof_H 	H 	0.9353	0.2685	0.2081	0.116
Mof_C 	C 	0.9115	0.46804	0.82607	0.429
Mof_C 	C 	0.6629	0.22984	0.15489	0.043
Mof_H 	H 	0.6262	0.2398	0.1427	0.013
Mof_C 	C 	0.7147	0.1834	0.1922	0.029
Mof_H 	H 	0.7141	0.1616	0.2044	0.03
Mof_C 	C 	0.8334	0.4396	0.7849	0.262
Mof_H 	H 	0.7932	0.4304	0.7801	-0.074
Mof_C 	C 	0.771	0.2018	0.1917	-0.159
Mof_H 	H 	0.8072	0.1931	0.2056	0.09
Mof_C 	C 	0.0062	0.1966	0.18967	-0.168
Mof_C 	C 	0.9525	0.1812	0.1684	0.128
Mof_H 	H 	0.9556	0.1584	0.1582	-0.02
Mof_C 	C 	0.8521	0.4055	0.16709	0.169
Mof_C 	C 	0.7172	0.24647	0.153	-0.163
Mof_H 	H 	0.7174	0.2675	0.1397	0.09
Mof_C 	C 	0.3673	0.81553	0.05112	-0.065
Mof_C 	C 	0.5484	0.1815	0.14912	-0.184
Mof_H 	H 	0.551	0.1955	0.1294	0.093
Mof_C 	C 	0.3015	0.91103	0.04363	0.042
Mof_H 	H 	0.2628	0.9222	0.0409	0.03
Mof_C 	C 	0.4203	0.79843	0.0674	0.032
Mof_H 	H 	0.4548	0.8122	0.0772	0.013
Mof_C 	C 	0.7742	0.23182	0.17133	0.143
Mof_C 	C 	0.6376	0.61088	0.08512	-0.181
Mof_H 	H 	0.6204	0.6108	0.1054	0.095
Mof_C 	C 	0.4942	0.16289	0.15037	0.113
Mof_H 	H 	0.4619	0.1633	0.1311	-0.016
Mof_C 	C 	0.9272	0.516	0.97223	0.236
Mof_H 	H 	0.9399	0.4969	0.9876	-0.061
Mof_C 	C 	0.318	0.79483	0.03686	0.029
Mof_H 	H 	0.2815	0.8061	0.0261	0.019
Mof_C 	C 	0.8708	0.4245	0.13951	-0.237
Mof_H 	H 	0.8798	0.4115	0.1204	0.115
Mof_C 	C 	0.8106	0.3482	0.1886	0.075
Mof_H 	H 	0.7899	0.3621	0.2029	0.001
Mof_C 	C 	0.4162	0.87787	0.0518	-0.135
Mof_H 	H 	0.4554	0.8673	0.0546	0.073
Mof_C 	C 	0.3637	0.8559	0.05009	0.082
Mof_C 	C 	0.4714	0.69324	0.0334	-0.173
Mof_H 	H 	0.4603	0.7128	0.0183	0.093
Mof_C 	C 	0.3527	0.93126	0.04486	-0.102
Mof_C 	C 	0.2549	0.63032	0.04542	0.035
Mof_H 	H 	0.245	0.6091	0.0326	0.022
Mof_C 	C 	0.3229	0.68181	0.06058	0.144
Mof_C 	C 	0.8612	0.48216	0.16639	-0.269
Mof_C 	C 	0.5993	0.18003	0.17626	0.125
Mof_C 	C 	0.832	0.28915	0.1682	0.171
Mof_C 	C 	0.3069	0.6498	0.04144	-0.16
Mof_H 	H 	0.3315	0.6416	0.0259	0.09
Mof_C 	C 	0.5049	0.63476	0.07804	0.05
Mof_H 	H 	0.5151	0.6148	0.0928	0.01
Mof_C 	C 	0.6599	0.1988	0.17417	-0.076
Mof_C 	C 	0.137	0.62079	0.10284	-0.191
Mof_H 	H 	0.162	0.629	0.1234	0.098
Mof_C 	C 	0.6836	0.60657	0.0249	0.112
Mof_H 	H 	0.6975	0.604	0.0037	0.006
Mof_C 	C 	0.233	0.67341	0.08739	0.036
Mof_H 	H 	0.2086	0.6813	0.1032	0.02
Mof_C 	C 	0.8763	0.46183	0.13978	0.18
Mof_H 	H 	0.8906	0.4734	0.1214	-0.029
Mof_C 	C 	0.1213	0.60785	0.041	-0.184
Mof_H 	H 	0.135	0.6081	0.0196	0.102
Mof_C 	C 	0.3062	0.87382	0.04633	-0.135
Mof_H 	H 	0.2704	0.8601	0.0457	0.078
Mof_C 	C 	0.4101	0.91527	0.04927	0.03
Mof_H 	H 	0.4453	0.9297	0.0506	0.028
Mof_C 	C 	0.4876	0.14366	0.18015	-0.185
Mof_C 	C 	0.374	0.73913	0.05532	0.152
Mof_C 	C 	0.4329	0.68193	0.0556	0.15
Mof_C 	C 	0.3209	0.75646	0.03805	-0.16
Mof_H 	H 	0.287	0.7428	0.0272	0.088
Mof_C 	C 	0.5269	0.67505	0.0339	0.049
Mof_H 	H 	0.5527	0.6829	0.0189	0.01
Mof_C 	C 	0.2848	0.69356	0.08338	-0.165
Mof_H 	H 	0.2941	0.715	0.096	0.092
Mof_C 	C 	0.158	0.62338	0.07103	0.124
Mof_C 	C 	0.9781	0.57942	0.07566	0.473
Mof_C 	C 	0.6948	0.59468	0.08659	0.099
Mof_H 	H 	0.7171	0.5857	0.1076	-0.005
Mof_C 	C 	0.5458	0.64551	0.05584	-0.092
Mof_C 	C 	0.451	0.65279	0.07849	-0.17
Mof_H 	H 	0.4258	0.6457	0.0942	0.092
Mof_C 	C 	0.0426	0.59239	0.07465	-0.207
Mof_C 	C 	0.4293	0.12293	0.1825	0.406
Mof_C 	C 	0.6042	0.62715	0.05541	0.136
Mof_C 	C 	0.8651	0.5227	0.16604	0.548
Mof_C 	C 	0.7182	0.59227	0.05525	-0.183
Mof_C 	C 	0.2169	0.64204	0.0685	-0.077
Mof_C 	C 	0.0643	0.59211	0.04338	0.114
Mof_H 	H 	0.0407	0.5813	0.0236	0.003
Mof_C 	C 	0.0798	0.60633	0.10414	0.116
Mof_H 	H 	0.0658	0.6059	0.1254	0.003
Mof_C 	C 	0.7799	0.57463	0.0548	0.402
Mof_C 	C 	0.629	0.62447	0.02553	-0.192
Mof_H 	H 	0.608	0.6352	0.005	0.097
Mof_Zn	Zn	0.8856	0.5755	0.1182	0.761
Mof_Zn	Zn	0.3695	0.96032	0.5316	1.219
Mof_Zn	Zn	0.37437	0.91188	0.61523	0.701
Mof_Zn	Zn	0.84229	0.41383	0.71153	1.228
Mof_N 	N 	0.3298	0.24979	0.66977	-0.191
Mof_N 	N 	0.8763	0.79885	0.55644	-0.183
Mof_N 	N 	0.3863	0.96084	0.48074	-0.309
Mof_N 	N 	0.3677	0.06382	0.26101	-0.324
Mof_O 	O 	0.7918	0.3594	0.7301	-0.388
Mof_O 	O 	0.7968	0.51324	0.52735	-0.331
Mof_O 	O 	0.7554	0.4003	0.69456	-0.502
Mof_O 	O 	0.3412	0.96143	0.68788	-0.536
Mof_O 	O 	0.8976	0.50871	0.54908	-0.453
Mof_O 	O 	0.92336	0.38962	0.71186	-0.469
Mof_O 	O 	0.3903	0.96193	0.64426	-0.602
Mof_O 	O 	0.887	0.38044	0.65558	-0.548
Mof_O 	O 	0.31038	0.93765	0.58314	-0.579
Mof_O 	O 	0.44746	0.93201	0.5483	-0.533
Mof_O 	O 	0.45986	0.91668	0.60437	-0.576
Mof_O 	O 	0.29644	0.92805	0.52585	-0.484
Mof_C 	C 	0.6782	0.322	0.7181	0.171
Mof_H 	H 	0.7137	0.3106	0.7302	-0.015
Mof_C 	C 	0.3926	0.9311	0.4268	-0.365
Mof_H 	H 	0.3783	0.9124	0.4111	0.151
Mof_C 	C 	0.5804	0.3509	0.6787	-0.305
Mof_H 	H 	0.5491	0.3604	0.6616	0.135
Mof_C 	C 	0.3054	0.1895	0.6894	-0.201
Mof_H 	H 	0.283	0.2002	0.7049	0.103
Mof_C 	C 	0.434	0.9725	0.35664	0.339
Mof_H 	H 	0.4148	0.9617	0.3357	-0.096
Mof_C 	C 	0.4631	0.9503	0.3867	-0.568
Mof_H 	H 	0.4597	0.9248	0.3799	0.19
Mof_H 	H 	0.5069	0.9562	0.3924	0.199
Mof_C 	C 	0.4349	0.9552	0.4197	0.376
Mof_C 	C 	0.4361	0.0118	0.36035	-0.6
Mof_H 	H 	0.4118	0.0189	0.3778	0.207
Mof_H 	H 	0.4787	0.0192	0.3689	0.208
Mof_C 	C 	0.4478	0.0384	0.3032	-0.432
Mof_H 	H 	0.4898	0.0327	0.309	0.182
Mof_C 	C 	0.3419	0.0726	0.695	-0.238
Mof_H 	H 	0.3317	0.0839	0.7146	0.113
Mof_C 	C 	0.374	0.1568	0.6463	0.066
Mof_H 	H 	0.3995	0.1464	0.6323	0.004
Mof_C 	C 	0.452	0.9819	0.4429	-0.401
Mof_H 	H 	0.4811	0.9991	0.4389	0.173
Mof_C 	C 	0.3463	0.0356	0.6949	0.183
Mof_H 	H 	0.3392	0.0223	0.7142	-0.023
Mof_C 	C 	0.684	0.3564	0.70435	-0.278
Mof_C 	C 	0.6368	0.3682	0.6839	0.245
Mof_H 	H 	0.6403	0.3897	0.6717	-0.042
Mof_C 	C 	0.9231	0.73936	0.5696	-0.169
Mof_H 	H 	0.9595	0.7503	0.581	0.093
Mof_C 	C 	0.4952	0.2721	0.7045	0.131
Mof_H 	H 	0.5274	0.2615	0.7203	-0.019
Mof_C 	C 	0.4253	0.0533	0.2712	0.255
Mof_H 	H 	0.4526	0.0562	0.2556	-0.064
Mof_C 	C 	0.3984	0.3017	0.6626	-0.243
Mof_H 	H 	0.3652	0.3123	0.6475	0.117
Mof_C 	C 	0.3894	0.2691	0.6778	0.202
Mof_C 	C 	0.3655	0.1947	0.6456	-0.188
Mof_H 	H 	0.3825	0.2089	0.6298	0.102
Mof_C 	C 	0.3451	0.1345	0.66751	-0.116
Mof_C 	C 	0.3706	0.93476	0.4588	0.208
Mof_H 	H 	0.3431	0.9173	0.4642	-0.05
Mof_C 	C 	0.8479	0.52688	0.54004	0.305
Mof_C 	C 	0.567	0.322	0.69583	0.213
Mof_C 	C 	0.0372	0.35688	0.70788	0.112
Mof_H 	H 	0.0333	0.3692	0.7283	0.016
Mof_C 	C 	0.0916	0.33981	0.70605	-0.188
Mof_H 	H 	0.1245	0.3414	0.725	0.111
Mof_C 	C 	0.6225	0.3037	0.7146	-0.24
Mof_H 	H 	0.6203	0.2805	0.724	0.114
Mof_C 	C 	0.7469	0.3735	0.7099	0.452
Mof_C 	C 	0.3528	0.0441	0.3166	-0.428
Mof_H 	H 	0.3251	0.0414	0.3319	0.177
Mof_C 	C 	0.4389	0.2543	0.6981	-0.244
Mof_H 	H 	0.4353	0.2315	0.7081	0.116
Mof_C 	C 	0.4115	0.03196	0.32607	0.429
Mof_C 	C 	0.1629	0.27016	0.65489	0.043
Mof_H 	H 	0.1262	0.2602	0.6427	0.013
Mof_C 	C 	0.2147	0.3166	0.6922	0.029
Mof_H 	H 	0.2141	0.3384	0.7044	0.03
Mof_C 	C 	0.3334	0.0604	0.2849	0.262
Mof_H 	H 	0.2932	0.0696	0.2801	-0.074
Mof_C 	C 	0.271	0.2982	0.6917	-0.159
Mof_H 	H 	0.3072	0.3069	0.7056	0.09
Mof_C 	C 	0.5062	0.3034	0.68967	-0.168
Mof_C 	C 	0.4525	0.3188	0.6684	0.128
Mof_H 	H 	0.4556	0.3416	0.6582	-0.02
Mof_C 	C 	0.3521	0.0945	0.66709	0.169
Mof_C 	C 	0.2172	0.25353	0.653	-0.163
Mof_H 	H 	0.2174	0.2325	0.6397	0.09
Mof_C 	C 	0.8673	0.68447	0.55112	-0.065
Mof_C 	C 	0.0484	0.3185	0.64912	-0.184
Mof_H 	H 	0.051	0.3045	0.6294	0.093
Mof_C 	C 	0.8015	0.58897	0.54363	0.042
Mof_H 	H 	0.7628	0.5778	0.5409	0.03
Mof_C 	C 	0.9203	0.70157	0.5674	0.032
Mof_H 	H 	0.9548	0.6878	0.5772	0.013
Mof_C 	C 	0.2742	0.26818	0.67133	0.143
Mof_C 	C 	0.1376	0.88912	0.58512	-0.181
Mof_H 	H 	0.1204	0.8892	0.6054	0.095
Mof_C 	C 	0.9942	0.33711	0.65037	0.113
Mof_H 	H 	0.9619	0.3367	0.6311	-0.016
Mof_C 	C 	0.4272	0.984	0.47223	0.236
Mof_H 	H 	0.4399	0.0031	0.4876	-0.061
Mof_C 	C 	0.818	0.70517	0.53686	0.029
Mof_H 	H 	0.7815	0.6939	0.5261	0.019
Mof_C 	C 	0.3708	0.0755	0.63951	-0.237
Mof_H 	H 	0.3798	0.0885	0.6204	0.115
Mof_C 	C 	0.3106	0.1518	0.6886	0.075
Mof_H 	H 	0.2899	0.1379	0.7029	0.001
Mof_C 	C 	0.9162	0.62213	0.5518	-0.135
Mof_H 	H 	0.9554	0.6327	0.5546	0.073
Mof_C 	C 	0.8637	0.6441	0.55009	0.082
Mof_C 	C 	0.9714	0.80676	0.5334	-0.173
Mof_H 	H 	0.9603	0.7872	0.5183	0.093
Mof_C 	C 	0.8527	0.56874	0.54486	-0.102
Mof_C 	C 	0.7549	0.86968	0.54542	0.035
Mof_H 	H 	0.745	0.8909	0.5326	0.022
Mof_C 	C 	0.8229	0.81819	0.56058	0.144
Mof_C 	C 	0.3612	0.01784	0.66639	-0.269
Mof_C 	C 	0.0993	0.31997	0.67626	0.125
Mof_C 	C 	0.332	0.21085	0.6682	0.171
Mof_C 	C 	0.8069	0.8502	0.54144	-0.16
Mof_H 	H 	0.8315	0.8584	0.5259	0.09
Mof_C 	C 	0.0049	0.86524	0.57804	0.05
Mof_H 	H 	0.0151	0.8852	0.5928	0.01
Mof_C 	C 	0.1599	0.3012	0.67417	-0.076
Mof_C 	C 	0.637	0.87921	0.60284	-0.191
Mof_H 	H 	0.662	0.871	0.6234	0.098
Mof_C 	C 	0.1836	0.89343	0.5249	0.112
Mof_H 	H 	0.1975	0.896	0.5037	0.006
Mof_C 	C 	0.733	0.82659	0.58739	0.036
Mof_H 	H 	0.7086	0.8187	0.6032	0.02
Mof_C 	C 	0.3763	0.03817	0.63978	0.18
Mof_H 	H 	0.3906	0.0266	0.6214	-0.029
Mof_C 	C 	0.6213	0.89215	0.541	-0.184
Mof_H 	H 	0.635	0.8919	0.5196	0.102
Mof_C 	C 	0.8062	0.62618	0.54633	-0.135
Mof_H 	H 	0.7704	0.6399	0.5457	0.078
Mof_C 	C 	0.9101	0.58473	0.54927	0.03
Mof_H 	H 	0.9453	0.5703	0.5506	0.028
Mof_C 	C 	0.9876	0.35634	0.68015	-0.185
Mof_C 	C 	0.874	0.76087	0.55532	0.152
Mof_C 	C 	0.9329	0.81807	0.5556	0.15
Mof_C 	C 	0.8209	0.74354	0.53805	-0.16
Mof_H 	H 	0.787	0.7572	0.5272	0.088
Mof_C 	C 	0.0269	0.82495	0.5339	0.049
Mof_H 	H 	0.0527	0.8171	0.5189	0.01
Mof_C 	C 	0.7848	0.80644	0.58338	-0.165
Mof_H 	H 	0.7941	0.785	0.596	0.092
Mof_C 	C 	0.658	0.87662	0.57103	0.124
Mof_C 	C 	0.4781	0.92058	0.57566	0.473
Mof_C 	C 	0.1948	0.90532	0.58659	0.098
Mof_H 	H 	0.2171	0.9143	0.6076	-0.005
Mof_C 	C 	0.0458	0.85449	0.55584	-0.092
Mof_C 	C 	0.951	0.84721	0.57849	-0.17
Mof_H 	H 	0.9258	0.8543	0.5942	0.092
Mof_C 	C 	0.5426	0.90761	0.57465	-0.207
Mof_C 	C 	0.9293	0.37707	0.6825	0.406
Mof_C 	C 	0.1042	0.87285	0.55541	0.136
Mof_C 	C 	0.3651	0.9773	0.66604	0.548
Mof_C 	C 	0.2182	0.90773	0.55525	-0.183
Mof_C 	C 	0.7169	0.85796	0.5685	-0.077
Mof_C 	C 	0.5643	0.90789	0.54338	0.114
Mof_H 	H 	0.5407	0.9187	0.5236	0.003
Mof_C 	C 	0.5798	0.89367	0.60414	0.116
Mof_H 	H 	0.5658	0.8941	0.6254	0.003
Mof_C 	C 	0.2799	0.92537	0.5548	0.402
Mof_C 	C 	0.129	0.87553	0.52553	-0.192
Mof_H 	H 	0.108	0.8648	0.505	0.097
Mof_Zn	Zn	0.3856	0.9245	0.6182	0.761
Mof_Zn	Zn	0.8695	0.46032	0.5316	1.219
Mof_Zn	Zn	0.87437	0.41188	0.61523	0.701
Mof_Zn	Zn	0.34229	0.91383	0.71153	1.228
Mof_N 	N 	0.8298	0.74979	0.66977	-0.191
Mof_N 	N 	0.3763	0.29885	0.55644	-0.183
Mof_N 	N 	0.8863	0.46084	0.48074	-0.309
Mof_N 	N 	0.8677	0.56382	0.26101	-0.324
Mof_O 	O 	0.2918	0.8594	0.7301	-0.388
Mof_O 	O 	0.2968	0.01324	0.52735	-0.331
Mof_O 	O 	0.2554	0.9003	0.69456	-0.502
Mof_O 	O 	0.8412	0.46143	0.68788	-0.536
Mof_O 	O 	0.3976	0.00871	0.54908	-0.453
Mof_O 	O 	0.42336	0.88962	0.71186	-0.469
Mof_O 	O 	0.8903	0.46193	0.64426	-0.602
Mof_O 	O 	0.387	0.88044	0.65558	-0.548
Mof_O 	O 	0.81038	0.43765	0.58314	-0.579
Mof_O 	O 	0.94746	0.43201	0.5483	-0.533
Mof_O 	O 	0.95986	0.41668	0.60437	-0.576
Mof_O 	O 	0.79644	0.42805	0.52585	-0.484
Mof_C 	C 	0.1782	0.822	0.7181	0.171
Mof_H 	H 	0.2137	0.8106	0.7302	-0.015
Mof_C 	C 	0.8926	0.4311	0.4268	-0.365
Mof_H 	H 	0.8783	0.4124	0.4111	0.151
Mof_C 	C 	0.0804	0.8509	0.6787	-0.306
Mof_H 	H 	0.0491	0.8604	0.6616	0.136
Mof_C 	C 	0.8054	0.6895	0.6894	-0.201
Mof_H 	H 	0.783	0.7002	0.7049	0.103
Mof_C 	C 	0.934	0.4725	0.35664	0.339
Mof_H 	H 	0.9148	0.4617	0.3357	-0.096
Mof_C 	C 	0.9631	0.4503	0.3867	-0.568
Mof_H 	H 	0.9597	0.4248	0.3799	0.19
Mof_H 	H 	0.0069	0.4562	0.3924	0.199
Mof_C 	C 	0.9349	0.4552	0.4197	0.376
Mof_C 	C 	0.9361	0.5118	0.36035	-0.6
Mof_H 	H 	0.9118	0.5189	0.3778	0.207
Mof_H 	H 	0.9787	0.5192	0.3689	0.208
Mof_C 	C 	0.9478	0.5384	0.3032	-0.432
Mof_H 	H 	0.9898	0.5327	0.309	0.182
Mof_C 	C 	0.8419	0.5726	0.695	-0.238
Mof_H 	H 	0.8317	0.5839	0.7146	0.113
Mof_C 	C 	0.874	0.6568	0.6463	0.066
Mof_H 	H 	0.8995	0.6464	0.6323	0.004
Mof_C 	C 	0.952	0.4819	0.4429	-0.401
Mof_H 	H 	0.9811	0.4991	0.4389	0.173
Mof_C 	C 	0.8463	0.5356	0.6949	0.183
Mof_H 	H 	0.8392	0.5223	0.7142	-0.023
Mof_C 	C 	0.184	0.8564	0.70435	-0.278
Mof_C 	C 	0.1368	0.8682	0.6839	0.245
Mof_H 	H 	0.1403	0.8897	0.6717	-0.042
Mof_C 	C 	0.4231	0.23936	0.5696	-0.169
Mof_H 	H 	0.4595	0.2503	0.581	0.093
Mof_C 	C 	0.9952	0.7721	0.7045	0.131
Mof_H 	H 	0.0274	0.7615	0.7203	-0.019
Mof_C 	C 	0.9253	0.5533	0.2712	0.255
Mof_H 	H 	0.9526	0.5562	0.2556	-0.064
Mof_C 	C 	0.8984	0.8017	0.6626	-0.244
Mof_H 	H 	0.8652	0.8123	0.6475	0.117
Mof_C 	C 	0.8894	0.7691	0.6778	0.202
Mof_C 	C 	0.8655	0.6947	0.6456	-0.188
Mof_H 	H 	0.8825	0.7089	0.6298	0.102
Mof_C 	C 	0.8451	0.6345	0.66751	-0.116
Mof_C 	C 	0.8706	0.43476	0.4588	0.208
Mof_H 	H 	0.8431	0.4173	0.4642	-0.05
Mof_C 	C 	0.3479	0.02688	0.54004	0.305
Mof_C 	C 	0.067	0.822	0.69583	0.213
Mof_C 	C 	0.5372	0.85688	0.70788	0.112
Mof_H 	H 	0.5333	0.8692	0.7283	0.016
Mof_C 	C 	0.5916	0.83981	0.70605	-0.188
Mof_H 	H 	0.6245	0.8414	0.725	0.111
Mof_C 	C 	0.1225	0.8037	0.7146	-0.24
Mof_H 	H 	0.1203	0.7805	0.724	0.114
Mof_C 	C 	0.2469	0.8735	0.7099	0.452
Mof_C 	C 	0.8528	0.5441	0.3166	-0.428
Mof_H 	H 	0.8251	0.5414	0.3319	0.177
Mof_C 	C 	0.9389	0.7543	0.6981	-0.244
Mof_H 	H 	0.9353	0.7315	0.7081	0.116
Mof_C 	C 	0.9115	0.53196	0.32607	0.429
Mof_C 	C 	0.6629	0.77016	0.65489	0.043
Mof_H 	H 	0.6262	0.7602	0.6427	0.013
Mof_C 	C 	0.7147	0.8166	0.6922	0.029
Mof_H 	H 	0.7141	0.8384	0.7044	0.03
Mof_C 	C 	0.8334	0.5604	0.2849	0.262
Mof_H 	H 	0.7932	0.5696	0.2801	-0.074
Mof_C 	C 	0.771	0.7982	0.6917	-0.159
Mof_H 	H 	0.8072	0.8069	0.7056	0.09
Mof_C 	C 	0.0062	0.8034	0.68967	-0.168
Mof_C 	C 	0.9525	0.8188	0.6684	0.128
Mof_H 	H 	0.9556	0.8416	0.6582	-0.02
Mof_C 	C 	0.8521	0.5945	0.66709	0.169
Mof_C 	C 	0.7172	0.75353	0.653	-0.163
Mof_H 	H 	0.7174	0.7325	0.6397	0.09
Mof_C 	C 	0.3673	0.18447	0.55112	-0.065
Mof_C 	C 	0.5484	0.8185	0.64912	-0.184
Mof_H 	H 	0.551	0.8045	0.6294	0.093
Mof_C 	C 	0.3015	0.08897	0.54363	0.042
Mof_H 	H 	0.2628	0.0778	0.5409	0.03
Mof_C 	C 	0.4203	0.20157	0.5674	0.032
Mof_H 	H 	0.4548	0.1878	0.5772	0.013
Mof_C 	C 	0.7742	0.76818	0.67133	0.143
Mof_C 	C 	0.6376	0.38912	0.58512	-0.181
Mof_H 	H 	0.6204	0.3892	0.6054	0.095
Mof_C 	C 	0.4942	0.83711	0.65037	0.113
Mof_H 	H 	0.4619	0.8367	0.6311	-0.016
Mof_C 	C 	0.9272	0.484	0.47223	0.236
Mof_H 	H 	0.9399	0.5031	0.4876	-0.061
Mof_C 	C 	0.318	0.20517	0.53686	0.029
Mof_H 	H 	0.2815	0.1939	0.5261	0.019
Mof_C 	C 	0.8708	0.5755	0.63951	-0.237
Mof_H 	H 	0.8798	0.5885	0.6204	0.115
Mof_C 	C 	0.8106	0.6518	0.6886	0.075
Mof_H 	H 	0.7899	0.6379	0.7029	0.001
Mof_C 	C 	0.4162	0.12213	0.5518	-0.135
Mof_H 	H 	0.4554	0.1327	0.5546	0.073
Mof_C 	C 	0.3637	0.1441	0.55009	0.082
Mof_C 	C 	0.4714	0.30676	0.5334	-0.173
Mof_H 	H 	0.4603	0.2872	0.5183	0.093
Mof_C 	C 	0.3527	0.06874	0.54486	-0.102
Mof_C 	C 	0.2549	0.36968	0.54542	0.035
Mof_H 	H 	0.245	0.3909	0.5326	0.022
Mof_C 	C 	0.3229	0.31819	0.56058	0.144
Mof_C 	C 	0.8612	0.51784	0.66639	-0.269
Mof_C 	C 	0.5993	0.81997	0.67626	0.125
Mof_C 	C 	0.832	0.71085	0.6682	0.171
Mof_C 	C 	0.3069	0.3502	0.54144	-0.16
Mof_H 	H 	0.3315	0.3584	0.5259	0.09
Mof_C 	C 	0.5049	0.36524	0.57804	0.05
Mof_H 	H 	0.5151	0.3852	0.5928	0.01
Mof_C 	C 	0.6599	0.8012	0.67417	-0.076
Mof_C 	C 	0.137	0.37921	0.60284	-0.191
Mof_H 	H 	0.162	0.371	0.6234	0.098
Mof_C 	C 	0.6836	0.39343	0.5249	0.112
Mof_H 	H 	0.6975	0.396	0.5037	0.006
Mof_C 	C 	0.233	0.32659	0.58739	0.036
Mof_H 	H 	0.2086	0.3187	0.6032	0.02
Mof_C 	C 	0.8763	0.53817	0.63978	0.18
Mof_H 	H 	0.8906	0.5266	0.6214	-0.029
Mof_C 	C 	0.1213	0.39215	0.541	-0.184
Mof_H 	H 	0.135	0.3919	0.5196	0.102
Mof_C 	C 	0.3062	0.12618	0.54633	-0.135
Mof_H 	H 	0.2704	0.1399	0.5457	0.078
Mof_C 	C 	0.4101	0.08473	0.54927	0.03
Mof_H 	H 	0.4453	0.0703	0.5506	0.028
Mof_C 	C 	0.4876	0.85634	0.68015	-0.185
Mof_C 	C 	0.374	0.26087	0.55532	0.152
Mof_C 	C 	0.4329	0.31807	0.5556	0.15
Mof_C 	C 	0.3209	0.24354	0.53805	-0.16
Mof_H 	H 	0.287	0.2572	0.5272	0.088
Mof_C 	C 	0.5269	0.32495	0.5339	0.049
Mof_H 	H 	0.5527	0.3171	0.5189	0.01
Mof_C 	C 	0.2848	0.30644	0.58338	-0.165
Mof_H 	H 	0.2941	0.285	0.596	0.092
Mof_C 	C 	0.158	0.37662	0.57103	0.124
Mof_C 	C 	0.9781	0.42058	0.57566	0.473
Mof_C 	C 	0.6948	0.40532	0.58659	0.098
Mof_H 	H 	0.7171	0.4143	0.6076	-0.005
Mof_C 	C 	0.5458	0.35449	0.55584	-0.092
Mof_C 	C 	0.451	0.34721	0.57849	-0.17
Mof_H 	H 	0.4258	0.3543	0.5942	0.092
Mof_C 	C 	0.0426	0.40761	0.57465	-0.207
Mof_C 	C 	0.4293	0.87707	0.6825	0.406
Mof_C 	C 	0.6042	0.37285	0.55541	0.136
Mof_C 	C 	0.8651	0.4773	0.66604	0.548
Mof_C 	C 	0.7182	0.40773	0.55525	-0.183
Mof_C 	C 	0.2169	0.35796	0.5685	-0.077
Mof_C 	C 	0.0643	0.40789	0.54338	0.114
Mof_H 	H 	0.0407	0.4187	0.5236	0.003
Mof_C 	C 	0.0798	0.39367	0.60414	0.116
Mof_H 	H 	0.0658	0.3941	0.6254	0.003
Mof_C 	C 	0.7799	0.42537	0.5548	0.402
Mof_C 	C 	0.629	0.37553	0.52553	-0.192
Mof_H 	H 	0.608	0.3648	0.505	0.097
Mof_Zn	Zn	0.8856	0.4245	0.6182	0.761
Mof_Zn	Zn	0.6305	0.03968	0.4684	1.219
Mof_Zn	Zn	0.62563	0.08812	0.38477	0.701
Mof_Zn	Zn	0.15771	0.58617	0.28847	1.228
Mof_N 	N 	0.6702	0.75021	0.33023	-0.191
Mof_N 	N 	0.1237	0.20115	0.44356	-0.183
Mof_N 	N 	0.6137	0.03916	0.51926	-0.309
Mof_N 	N 	0.6323	0.93618	0.73899	-0.324
Mof_O 	O 	0.2082	0.6406	0.2699	-0.388
Mof_O 	O 	0.2032	0.48676	0.47265	-0.331
Mof_O 	O 	0.2446	0.5997	0.30544	-0.502
Mof_O 	O 	0.6588	0.03857	0.31212	-0.536
Mof_O 	O 	0.1024	0.49129	0.45092	-0.453
Mof_O 	O 	0.07664	0.61038	0.28814	-0.469
Mof_O 	O 	0.6097	0.03807	0.35574	-0.602
Mof_O 	O 	0.113	0.61956	0.34442	-0.548
Mof_O 	O 	0.68962	0.06235	0.41686	-0.579
Mof_O 	O 	0.55254	0.06799	0.4517	-0.533
Mof_O 	O 	0.54014	0.08332	0.39563	-0.576
Mof_O 	O 	0.70356	0.07195	0.47415	-0.484
Mof_C 	C 	0.3218	0.678	0.2819	0.171
Mof_H 	H 	0.2863	0.6894	0.2698	-0.015
Mof_C 	C 	0.6074	0.0689	0.5732	-0.365
Mof_H 	H 	0.6217	0.0876	0.5889	0.151
Mof_C 	C 	0.4196	0.6491	0.3213	-0.305
Mof_H 	H 	0.4509	0.6396	0.3384	0.135
Mof_C 	C 	0.6946	0.8105	0.3106	-0.201
Mof_H 	H 	0.717	0.7998	0.2951	0.103
Mof_C 	C 	0.566	0.0275	0.64336	0.339
Mof_H 	H 	0.5852	0.0383	0.6643	-0.096
Mof_C 	C 	0.5369	0.0497	0.6133	-0.568
Mof_H 	H 	0.5403	0.0752	0.6201	0.19
Mof_H 	H 	0.4931	0.0438	0.6076	0.199
Mof_C 	C 	0.5651	0.0448	0.5803	0.376
Mof_C 	C 	0.5639	0.9882	0.63965	-0.6
Mof_H 	H 	0.5882	0.9811	0.6222	0.207
Mof_H 	H 	0.5213	0.9808	0.6311	0.208
Mof_C 	C 	0.5522	0.9616	0.6968	-0.432
Mof_H 	H 	0.5102	0.9673	0.691	0.182
Mof_C 	C 	0.6581	0.9274	0.305	-0.238
Mof_H 	H 	0.6683	0.9161	0.2854	0.113
Mof_C 	C 	0.626	0.8432	0.3537	0.066
Mof_H 	H 	0.6005	0.8536	0.3677	0.004
Mof_C 	C 	0.548	0.0181	0.5571	-0.401
Mof_H 	H 	0.5189	0.0009	0.5611	0.173
Mof_C 	C 	0.6537	0.9644	0.3051	0.183
Mof_H 	H 	0.6608	0.9777	0.2858	-0.023
Mof_C 	C 	0.316	0.6436	0.29565	-0.278
Mof_C 	C 	0.3632	0.6318	0.3161	0.245
Mof_H 	H 	0.3597	0.6103	0.3283	-0.042
Mof_C 	C 	0.0769	0.26064	0.4304	-0.169
Mof_H 	H 	0.0405	0.2497	0.419	0.093
Mof_C 	C 	0.5048	0.7279	0.2955	0.131
Mof_H 	H 	0.4726	0.7385	0.2797	-0.019
Mof_C 	C 	0.5747	0.9467	0.7288	0.255
Mof_H 	H 	0.5474	0.9438	0.7444	-0.064
Mof_C 	C 	0.6016	0.6983	0.3374	-0.243
Mof_H 	H 	0.6348	0.6877	0.3525	0.117
Mof_C 	C 	0.6106	0.7309	0.3222	0.202
Mof_C 	C 	0.6345	0.8053	0.3544	-0.188
Mof_H 	H 	0.6175	0.7911	0.3702	0.102
Mof_C 	C 	0.6549	0.8655	0.33249	-0.116
Mof_C 	C 	0.6294	0.06524	0.5412	0.208
Mof_H 	H 	0.6569	0.0827	0.5358	-0.05
Mof_C 	C 	0.1521	0.47312	0.45996	0.305
Mof_C 	C 	0.433	0.678	0.30417	0.213
Mof_C 	C 	0.9628	0.64312	0.29212	0.112
Mof_H 	H 	0.9667	0.6308	0.2717	0.016
Mof_C 	C 	0.9084	0.66019	0.29395	-0.188
Mof_H 	H 	0.8755	0.6586	0.275	0.111
Mof_C 	C 	0.3775	0.6963	0.2854	-0.24
Mof_H 	H 	0.3797	0.7195	0.276	0.114
Mof_C 	C 	0.2531	0.6265	0.2901	0.452
Mof_C 	C 	0.6472	0.9559	0.6834	-0.428
Mof_H 	H 	0.6749	0.9586	0.6681	0.177
Mof_C 	C 	0.5611	0.7457	0.3019	-0.244
Mof_H 	H 	0.5647	0.7685	0.2919	0.116
Mof_C 	C 	0.5885	0.96804	0.67393	0.429
Mof_C 	C 	0.8371	0.72984	0.34511	0.043
Mof_H 	H 	0.8738	0.7398	0.3573	0.013
Mof_C 	C 	0.7853	0.6834	0.3078	0.029
Mof_H 	H 	0.7859	0.6616	0.2956	0.03
Mof_C 	C 	0.6666	0.9396	0.7151	0.262
Mof_H 	H 	0.7068	0.9304	0.7199	-0.074
Mof_C 	C 	0.729	0.7018	0.3083	-0.159
Mof_H 	H 	0.6928	0.6931	0.2944	0.09
Mof_C 	C 	0.4938	0.6966	0.31033	-0.168
Mof_C 	C 	0.5475	0.6812	0.3316	0.128
Mof_H 	H 	0.5444	0.6584	0.3418	-0.02
Mof_C 	C 	0.6479	0.9055	0.33291	0.169
Mof_C 	C 	0.7828	0.74647	0.347	-0.163
Mof_H 	H 	0.7826	0.7675	0.3603	0.09
Mof_C 	C 	0.1327	0.31553	0.44888	-0.065
Mof_C 	C 	0.9516	0.6815	0.35088	-0.184
Mof_H 	H 	0.949	0.6955	0.3706	0.093
Mof_C 	C 	0.1985	0.41103	0.45637	0.042
Mof_H 	H 	0.2372	0.4222	0.4591	0.03
Mof_C 	C 	0.0797	0.29843	0.4326	0.032
Mof_H 	H 	0.0452	0.3122	0.4228	0.013
Mof_C 	C 	0.7258	0.73182	0.32867	0.143
Mof_C 	C 	0.8624	0.11088	0.41488	-0.181
Mof_H 	H 	0.8796	0.1108	0.3946	0.095
Mof_C 	C 	0.0058	0.66289	0.34963	0.113
Mof_H 	H 	0.0381	0.6633	0.3689	-0.016
Mof_C 	C 	0.5728	0.016	0.52777	0.236
Mof_H 	H 	0.5601	0.9969	0.5124	-0.061
Mof_C 	C 	0.182	0.29483	0.46314	0.029
Mof_H 	H 	0.2185	0.3061	0.4739	0.019
Mof_C 	C 	0.6292	0.9245	0.36049	-0.237
Mof_H 	H 	0.6202	0.9115	0.3796	0.115
Mof_C 	C 	0.6894	0.8482	0.3114	0.075
Mof_H 	H 	0.7101	0.8621	0.2971	0.001
Mof_C 	C 	0.0838	0.37787	0.4482	-0.135
Mof_H 	H 	0.0446	0.3673	0.4454	0.073
Mof_C 	C 	0.1363	0.3559	0.44991	0.082
Mof_C 	C 	0.0286	0.19324	0.4666	-0.173
Mof_H 	H 	0.0397	0.2128	0.4817	0.093
Mof_C 	C 	0.1473	0.43126	0.45514	-0.102
Mof_C 	C 	0.2451	0.13032	0.45458	0.035
Mof_H 	H 	0.255	0.1091	0.4674	0.022
Mof_C 	C 	0.1771	0.18181	0.43942	0.144
Mof_C 	C 	0.6388	0.98216	0.33361	-0.269
Mof_C 	C 	0.9007	0.68003	0.32374	0.125
Mof_C 	C 	0.668	0.78915	0.3318	0.171
Mof_C 	C 	0.1931	0.1498	0.45856	-0.16
Mof_H 	H 	0.1685	0.1416	0.4741	0.09
Mof_C 	C 	0.9951	0.13476	0.42196	0.05
Mof_H 	H 	0.9849	0.1148	0.4072	0.01
Mof_C 	C 	0.8401	0.6988	0.32583	-0.076
Mof_C 	C 	0.363	0.12079	0.39716	-0.191
Mof_H 	H 	0.338	0.129	0.3766	0.098
Mof_C 	C 	0.8164	0.10657	0.4751	0.112
Mof_H 	H 	0.8025	0.104	0.4963	0.006
Mof_C 	C 	0.267	0.17341	0.41261	0.036
Mof_H 	H 	0.2914	0.1813	0.3968	0.02
Mof_C 	C 	0.6237	0.96183	0.36022	0.18
Mof_H 	H 	0.6094	0.9734	0.3786	-0.029
Mof_C 	C 	0.3787	0.10785	0.459	-0.184
Mof_H 	H 	0.365	0.1081	0.4804	0.102
Mof_C 	C 	0.1938	0.37382	0.45367	-0.135
Mof_H 	H 	0.2296	0.3601	0.4543	0.078
Mof_C 	C 	0.0899	0.41527	0.45073	0.03
Mof_H 	H 	0.0547	0.4297	0.4494	0.028
Mof_C 	C 	0.0124	0.64366	0.31985	-0.185
Mof_C 	C 	0.126	0.23913	0.44468	0.152
Mof_C 	C 	0.0671	0.18193	0.4444	0.15
Mof_C 	C 	0.1791	0.25646	0.46195	-0.16
Mof_H 	H 	0.213	0.2428	0.4728	0.088
Mof_C 	C 	0.9731	0.17505	0.4661	0.049
Mof_H 	H 	0.9473	0.1829	0.4811	0.01
Mof_C 	C 	0.2152	0.19356	0.41662	-0.165
Mof_H 	H 	0.2059	0.215	0.404	0.092
Mof_C 	C 	0.342	0.12338	0.42897	0.124
Mof_C 	C 	0.5219	0.07942	0.42434	0.473
Mof_C 	C 	0.8052	0.09468	0.41341	0.098
Mof_H 	H 	0.7829	0.0857	0.3924	-0.005
Mof_C 	C 	0.9542	0.14551	0.44416	-0.092
Mof_C 	C 	0.049	0.15279	0.42151	-0.17
Mof_H 	H 	0.0742	0.1457	0.4058	0.092
Mof_C 	C 	0.4574	0.09239	0.42535	-0.207
Mof_C 	C 	0.0707	0.62293	0.3175	0.406
Mof_C 	C 	0.8958	0.12715	0.44459	0.136
Mof_C 	C 	0.6349	0.0227	0.33396	0.548
Mof_C 	C 	0.7818	0.09227	0.44475	-0.183
Mof_C 	C 	0.2831	0.14204	0.4315	-0.077
Mof_C 	C 	0.4357	0.09211	0.45662	0.114
Mof_H 	H 	0.4593	0.0813	0.4764	0.003
Mof_C 	C 	0.4202	0.10633	0.39586	0.116
Mof_H 	H 	0.4342	0.1059	0.3746	0.003
Mof_C 	C 	0.7201	0.07463	0.4452	0.402
Mof_C 	C 	0.871	0.12447	0.47447	-0.192
Mof_H 	H 	0.892	0.1352	0.495	0.097
Mof_Zn	Zn	0.6144	0.0755	0.3818	0.761
Mof_Zn	Zn	0.1305	0.53968	0.4684	1.219
Mof_Zn	Zn	0.12563	0.58812	0.38477	0.701
Mof_Zn	Zn	0.65771	0.08617	0.28847	1.228
Mof_N 	N 	0.1702	0.25021	0.33023	-0.191
Mof_N 	N 	0.6237	0.70115	0.44356	-0.183
Mof_N 	N 	0.1137	0.53916	0.51926	-0.309
Mof_N 	N 	0.1323	0.43618	0.73899	-0.324
Mof_O 	O 	0.7082	0.1406	0.2699	-0.388
Mof_O 	O 	0.7032	0.98676	0.47265	-0.331
Mof_O 	O 	0.7446	0.0997	0.30544	-0.502
Mof_O 	O 	0.1588	0.53857	0.31212	-0.536
Mof_O 	O 	0.6024	0.99129	0.45092	-0.453
Mof_O 	O 	0.57664	0.11038	0.28814	-0.469
Mof_O 	O 	0.1097	0.53807	0.35574	-0.602
Mof_O 	O 	0.613	0.11956	0.34442	-0.548
Mof_O 	O 	0.18962	0.56235	0.41686	-0.579
Mof_O 	O 	0.05254	0.56799	0.4517	-0.533
Mof_O 	O 	0.04014	0.58332	0.39563	-0.576
Mof_O 	O 	0.20356	0.57195	0.47415	-0.484
Mof_C 	C 	0.8218	0.178	0.2819	0.171
Mof_H 	H 	0.7863	0.1894	0.2698	-0.015
Mof_C 	C 	0.1074	0.5689	0.5732	-0.365
Mof_H 	H 	0.1217	0.5876	0.5889	0.151
Mof_C 	C 	0.9196	0.1491	0.3213	-0.306
Mof_H 	H 	0.9509	0.1396	0.3384	0.136
Mof_C 	C 	0.1946	0.3105	0.3106	-0.201
Mof_H 	H 	0.217	0.2998	0.2951	0.103
Mof_C 	C 	0.066	0.5275	0.64336	0.339
Mof_H 	H 	0.0852	0.5383	0.6643	-0.096
Mof_C 	C 	0.0369	0.5497	0.6133	-0.568
Mof_H 	H 	0.0403	0.5752	0.6201	0.19
Mof_H 	H 	0.9931	0.5438	0.6076	0.199
Mof_C 	C 	0.0651	0.5448	0.5803	0.376
Mof_C 	C 	0.0639	0.4882	0.63965	-0.6
Mof_H 	H 	0.0882	0.4811	0.6222	0.207
Mof_H 	H 	0.0213	0.4808	0.6311	0.208
Mof_C 	C 	0.0522	0.4616	0.6968	-0.432
Mof_H 	H 	0.0102	0.4673	0.691	0.182
Mof_C 	C 	0.1581	0.4274	0.305	-0.238
Mof_H 	H 	0.1683	0.4161	0.2854	0.113
Mof_C 	C 	0.126	0.3432	0.3537	0.066
Mof_H 	H 	0.1005	0.3536	0.3677	0.004
Mof_C 	C 	0.048	0.5181	0.5571	-0.401
Mof_H 	H 	0.0189	0.5009	0.5611	0.173
Mof_C 	C 	0.1537	0.4644	0.3051	0.183
Mof_H 	H 	0.1608	0.4777	0.2858	-0.023
Mof_C 	C 	0.816	0.1436	0.29565	-0.278
Mof_C 	C 	0.8632	0.1318	0.3161	0.245
Mof_H 	H 	0.8597	0.1103	0.3283	-0.042
Mof_C 	C 	0.5769	0.76064	0.4304	-0.169
Mof_H 	H 	0.5405	0.7497	0.419	0.093
Mof_C 	C 	0.0048	0.2279	0.2955	0.131
Mof_H 	H 	0.9726	0.2385	0.2797	-0.019
Mof_C 	C 	0.0747	0.4467	0.7288	0.255
Mof_H 	H 	0.0474	0.4438	0.7444	-0.064
Mof_C 	C 	0.1016	0.1983	0.3374	-0.244
Mof_H 	H 	0.1348	0.1877	0.3525	0.117
Mof_C 	C 	0.1106	0.2309	0.3222	0.202
Mof_C 	C 	0.1345	0.3053	0.3544	-0.188
Mof_H 	H 	0.1175	0.2911	0.3702	0.102
Mof_C 	C 	0.1549	0.3655	0.33249	-0.116
Mof_C 	C 	0.1294	0.56524	0.5412	0.208
Mof_H 	H 	0.1569	0.5827	0.5358	-0.05
Mof_C 	C 	0.6521	0.97312	0.45996	0.305
Mof_C 	C 	0.933	0.178	0.30417	0.213
Mof_C 	C 	0.4628	0.14312	0.29212	0.112
Mof_H 	H 	0.4667	0.1308	0.2717	0.016
Mof_C 	C 	0.4084	0.16019	0.29395	-0.188
Mof_H 	H 	0.3755	0.1586	0.275	0.111
Mof_C 	C 	0.8775	0.1963	0.2854	-0.24
Mof_H 	H 	0.8797	0.2195	0.276	0.114
Mof_C 	C 	0.7531	0.1265	0.2901	0.452
Mof_C 	C 	0.1472	0.4559	0.6834	-0.428
Mof_H 	H 	0.1749	0.4586	0.6681	0.177
Mof_C 	C 	0.0611	0.2457	0.3019	-0.244
Mof_H 	H 	0.0647	0.2685	0.2919	0.116
Mof_C 	C 	0.0885	0.46804	0.67393	0.429
Mof_C 	C 	0.3371	0.22984	0.34511	0.043
Mof_H 	H 	0.3738	0.2398	0.3573	0.013
Mof_C 	C 	0.2853	0.1834	0.3078	0.029
Mof_H 	H 	0.2859	0.1616	0.2956	0.03
Mof_C 	C 	0.1666	0.4396	0.7151	0.262
Mof_H 	H 	0.2068	0.4304	0.7199	-0.074
Mof_C 	C 	0.229	0.2018	0.3083	-0.159
Mof_H 	H 	0.1928	0.1931	0.2944	0.09
Mof_C 	C 	0.9938	0.1966	0.31033	-0.168
Mof_C 	C 	0.0475	0.1812	0.3316	0.128
Mof_H 	H 	0.0444	0.1584	0.3418	-0.02
Mof_C 	C 	0.1479	0.4055	0.33291	0.169
Mof_C 	C 	0.2828	0.24647	0.347	-0.163
Mof_H 	H 	0.2826	0.2675	0.3603	0.09
Mof_C 	C 	0.6327	0.81553	0.44888	-0.065
Mof_C 	C 	0.4516	0.1815	0.35088	-0.184
Mof_H 	H 	0.449	0.1955	0.3706	0.093
Mof_C 	C 	0.6985	0.91103	0.45637	0.042
Mof_H 	H 	0.7372	0.9222	0.4591	0.03
Mof_C 	C 	0.5797	0.79843	0.4326	0.032
Mof_H 	H 	0.5452	0.8122	0.4228	0.013
Mof_C 	C 	0.2258	0.23182	0.32867	0.143
Mof_C 	C 	0.3624	0.61088	0.41488	-0.181
Mof_H 	H 	0.3796	0.6108	0.3946	0.095
Mof_C 	C 	0.5058	0.16289	0.34963	0.113
Mof_H 	H 	0.5381	0.1633	0.3689	-0.016
Mof_C 	C 	0.0728	0.516	0.52777	0.236
Mof_H 	H 	0.0601	0.4969	0.5124	-0.061
Mof_C 	C 	0.682	0.79483	0.46314	0.029
Mof_H 	H 	0.7185	0.8061	0.4739	0.019
Mof_C 	C 	0.1292	0.4245	0.36049	-0.237
Mof_H 	H 	0.1202	0.4115	0.3796	0.115
Mof_C 	C 	0.1894	0.3482	0.3114	0.075
Mof_H 	H 	0.2101	0.3621	0.2971	0.001
Mof_C 	C 	0.5838	0.87787	0.4482	-0.135
Mof_H 	H 	0.5446	0.8673	0.4454	0.073
Mof_C 	C 	0.6363	0.8559	0.44991	0.082
Mof_C 	C 	0.5286	0.69324	0.4666	-0.173
Mof_H 	H 	0.5397	0.7128	0.4817	0.093
Mof_C 	C 	0.6473	0.93126	0.45514	-0.102
Mof_C 	C 	0.7451	0.63032	0.45458	0.035
Mof_H 	H 	0.755	0.6091	0.4674	0.022
Mof_C 	C 	0.6771	0.68181	0.43942	0.144
Mof_C 	C 	0.1388	0.48216	0.33361	-0.269
Mof_C 	C 	0.4007	0.18003	0.32374	0.125
Mof_C 	C 	0.168	0.28915	0.3318	0.171
Mof_C 	C 	0.6931	0.6498	0.45856	-0.16
Mof_H 	H 	0.6685	0.6416	0.4741	0.09
Mof_C 	C 	0.4951	0.63476	0.42196	0.05
Mof_H 	H 	0.4849	0.6148	0.4072	0.01
Mof_C 	C 	0.3401	0.1988	0.32583	-0.076
Mof_C 	C 	0.863	0.62079	0.39716	-0.191
Mof_H 	H 	0.838	0.629	0.3766	0.098
Mof_C 	C 	0.3164	0.60657	0.4751	0.112
Mof_H 	H 	0.3025	0.604	0.4963	0.006
Mof_C 	C 	0.767	0.67341	0.41261	0.036
Mof_H 	H 	0.7914	0.6813	0.3968	0.02
Mof_C 	C 	0.1237	0.46183	0.36022	0.18
Mof_H 	H 	0.1094	0.4734	0.3786	-0.029
Mof_C 	C 	0.8787	0.60785	0.459	-0.184
Mof_H 	H 	0.865	0.6081	0.4804	0.102
Mof_C 	C 	0.6938	0.87382	0.45367	-0.135
Mof_H 	H 	0.7296	0.8601	0.4543	0.078
Mof_C 	C 	0.5899	0.91527	0.45073	0.03
Mof_H 	H 	0.5547	0.9297	0.4494	0.028
Mof_C 	C 	0.5124	0.14366	0.31985	-0.185
Mof_C 	C 	0.626	0.73913	0.44468	0.152
Mof_C 	C 	0.5671	0.68193	0.4444	0.15
Mof_C 	C 	0.6791	0.75646	0.46195	-0.16
Mof_H 	H 	0.713	0.7428	0.4728	0.088
Mof_C 	C 	0.4731	0.67505	0.4661	0.049
Mof_H 	H 	0.4473	0.6829	0.4811	0.01
Mof_C 	C 	0.7152	0.69356	0.41662	-0.165
Mof_H 	H 	0.7059	0.715	0.404	0.092
Mof_C 	C 	0.842	0.62338	0.42897	0.124
Mof_C 	C 	0.0219	0.57942	0.42434	0.473
Mof_C 	C 	0.3052	0.59468	0.41341	0.098
Mof_H 	H 	0.2829	0.5857	0.3924	-0.005
Mof_C 	C 	0.4542	0.64551	0.44416	-0.092
Mof_C 	C 	0.549	0.65279	0.42151	-0.17
Mof_H 	H 	0.5742	0.6457	0.4058	0.092
Mof_C 	C 	0.9574	0.59239	0.42535	-0.207
Mof_C 	C 	0.5707	0.12293	0.3175	0.406
Mof_C 	C 	0.3958	0.62715	0.44459	0.136
Mof_C 	C 	0.1349	0.5227	0.33396	0.548
Mof_C 	C 	0.2818	0.59227	0.44475	-0.183
Mof_C 	C 	0.7831	0.64204	0.4315	-0.077
Mof_C 	C 	0.9357	0.59211	0.45662	0.114
Mof_H 	H 	0.9593	0.5813	0.4764	0.003
Mof_C 	C 	0.9202	0.60633	0.39586	0.116
Mof_H 	H 	0.9342	0.6059	0.3746	0.003
Mof_C 	C 	0.2201	0.57463	0.4452	0.402
Mof_C 	C 	0.371	0.62447	0.47447	-0.192
Mof_H 	H 	0.392	0.6352	0.495	0.097
Mof_Zn	Zn	0.1144	0.5755	0.3818	0.761
Mof_Zn	Zn	0.6305	0.96032	0.9684	1.219
Mof_Zn	Zn	0.62563	0.91188	0.88477	0.701
Mof_Zn	Zn	0.15771	0.41383	0.78847	1.228
Mof_N 	N 	0.6702	0.24979	0.83023	-0.191
Mof_N 	N 	0.1237	0.79885	0.94356	-0.183
Mof_N 	N 	0.6137	0.96084	0.01926	-0.309
Mof_N 	N 	0.6323	0.06382	0.23899	-0.324
Mof_O 	O 	0.2082	0.3594	0.7699	-0.388
Mof_O 	O 	0.2032	0.51324	0.97265	-0.331
Mof_O 	O 	0.2446	0.4003	0.80544	-0.502
Mof_O 	O 	0.6588	0.96143	0.81212	-0.536
Mof_O 	O 	0.1024	0.50871	0.95092	-0.453
Mof_O 	O 	0.07664	0.38962	0.78814	-0.469
Mof_O 	O 	0.6097	0.96193	0.85574	-0.602
Mof_O 	O 	0.113	0.38044	0.84442	-0.548
Mof_O 	O 	0.68962	0.93765	0.91686	-0.579
Mof_O 	O 	0.55254	0.93201	0.9517	-0.533
Mof_O 	O 	0.54014	0.91668	0.89563	-0.576
Mof_O 	O 	0.70356	0.92805	0.97415	-0.484
Mof_C 	C 	0.3218	0.322	0.7819	0.171
Mof_H 	H 	0.2863	0.3106	0.7698	-0.015
Mof_C 	C 	0.6074	0.9311	0.0732	-0.365
Mof_H 	H 	0.6217	0.9124	0.0889	0.151
Mof_C 	C 	0.4196	0.3509	0.8213	-0.305
Mof_H 	H 	0.4509	0.3604	0.8384	0.135
Mof_C 	C 	0.6946	0.1895	0.8106	-0.201
Mof_H 	H 	0.717	0.2002	0.7951	0.103
Mof_C 	C 	0.566	0.9725	0.14336	0.339
Mof_H 	H 	0.5852	0.9617	0.1643	-0.096
Mof_C 	C 	0.5369	0.9503	0.1133	-0.568
Mof_H 	H 	0.5403	0.9248	0.1201	0.19
Mof_H 	H 	0.4931	0.9562	0.1076	0.199
Mof_C 	C 	0.5651	0.9552	0.0803	0.376
Mof_C 	C 	0.5639	0.0118	0.13965	-0.6
Mof_H 	H 	0.5882	0.0189	0.1222	0.207
Mof_H 	H 	0.5213	0.0192	0.1311	0.208
Mof_C 	C 	0.5522	0.0384	0.1968	-0.432
Mof_H 	H 	0.5102	0.0327	0.191	0.182
Mof_C 	C 	0.6581	0.0726	0.805	-0.238
Mof_H 	H 	0.6683	0.0839	0.7854	0.113
Mof_C 	C 	0.626	0.1568	0.8537	0.066
Mof_H 	H 	0.6005	0.1464	0.8677	0.004
Mof_C 	C 	0.548	0.9819	0.0571	-0.401
Mof_H 	H 	0.5189	0.9991	0.0611	0.174
Mof_C 	C 	0.6537	0.0356	0.8051	0.183
Mof_H 	H 	0.6608	0.0223	0.7858	-0.023
Mof_C 	C 	0.316	0.3564	0.79565	-0.278
Mof_C 	C 	0.3632	0.3682	0.8161	0.245
Mof_H 	H 	0.3597	0.3897	0.8283	-0.042
Mof_C 	C 	0.0769	0.73936	0.9304	-0.169
Mof_H 	H 	0.0405	0.7503	0.919	0.093
Mof_C 	C 	0.5048	0.2721	0.7955	0.131
Mof_H 	H 	0.4726	0.2615	0.7797	-0.019
Mof_C 	C 	0.5747	0.0533	0.2288	0.255
Mof_H 	H 	0.5474	0.0562	0.2444	-0.064
Mof_C 	C 	0.6016	0.3017	0.8374	-0.243
Mof_H 	H 	0.6348	0.3123	0.8525	0.117
Mof_C 	C 	0.6106	0.2691	0.8222	0.202
Mof_C 	C 	0.6345	0.1947	0.8544	-0.188
Mof_H 	H 	0.6175	0.2089	0.8702	0.102
Mof_C 	C 	0.6549	0.1345	0.83249	-0.116
Mof_C 	C 	0.6294	0.93476	0.0412	0.208
Mof_H 	H 	0.6569	0.9173	0.0358	-0.05
Mof_C 	C 	0.1521	0.52688	0.95996	0.305
Mof_C 	C 	0.433	0.322	0.80417	0.213
Mof_C 	C 	0.9628	0.35688	0.79212	0.112
Mof_H 	H 	0.9667	0.3692	0.7717	0.016
Mof_C 	C 	0.9084	0.33981	0.79395	-0.188
Mof_H 	H 	0.8755	0.3414	0.775	0.111
Mof_C 	C 	0.3775	0.3037	0.7854	-0.24
Mof_H 	H 	0.3797	0.2805	0.776	0.114
Mof_C 	C 	0.2531	0.3735	0.7901	0.452
Mof_C 	C 	0.6472	0.0441	0.1834	-0.428
Mof_H 	H 	0.6749	0.0414	0.1681	0.177
Mof_C 	C 	0.5611	0.2543	0.8019	-0.244
Mof_H 	H 	0.5647	0.2315	0.7919	0.116
Mof_C 	C 	0.5885	0.03196	0.17393	0.429
Mof_C 	C 	0.8371	0.27016	0.84511	0.043
Mof_H 	H 	0.8738	0.2602	0.8573	0.013
Mof_C 	C 	0.7853	0.3166	0.8078	0.029
Mof_H 	H 	0.7859	0.3384	0.7956	0.03
Mof_C 	C 	0.6666	0.0604	0.2151	0.262
Mof_H 	H 	0.7068	0.0696	0.2199	-0.074
Mof_C 	C 	0.729	0.2982	0.8083	-0.159
Mof_H 	H 	0.6928	0.3069	0.7944	0.09
Mof_C 	C 	0.4938	0.3034	0.81033	-0.168
Mof_C 	C 	0.5475	0.3188	0.8316	0.128
Mof_H 	H 	0.5444	0.3416	0.8418	-0.02
Mof_C 	C 	0.6479	0.0945	0.83291	0.169
Mof_C 	C 	0.7828	0.25353	0.847	-0.163
Mof_H 	H 	0.7826	0.2325	0.8603	0.09
Mof_C 	C 	0.1327	0.68447	0.94888	-0.065
Mof_C 	C 	0.9516	0.3185	0.85088	-0.184
Mof_H 	H 	0.949	0.3045	0.8706	0.093
Mof_C 	C 	0.1985	0.58897	0.95637	0.042
Mof_H 	H 	0.2372	0.5778	0.9591	0.03
Mof_C 	C 	0.0797	0.70157	0.9326	0.032
Mof_H 	H 	0.0452	0.6878	0.9228	0.013
Mof_C 	C 	0.7258	0.26818	0.82867	0.143
Mof_C 	C 	0.8624	0.88912	0.91488	-0.181
Mof_H 	H 	0.8796	0.8892	0.8946	0.095
Mof_C 	C 	0.0058	0.33711	0.84963	0.113
Mof_H 	H 	0.0381	0.3367	0.8689	-0.016
Mof_C 	C 	0.5728	0.984	0.02777	0.236
Mof_H 	H 	0.5601	0.0031	0.0124	-0.061
Mof_C 	C 	0.182	0.70517	0.96314	0.029
Mof_H 	H 	0.2185	0.6939	0.9739	0.019
Mof_C 	C 	0.6292	0.0755	0.86049	-0.237
Mof_H 	H 	0.6202	0.0885	0.8796	0.115
Mof_C 	C 	0.6894	0.1518	0.8114	0.075
Mof_H 	H 	0.7101	0.1379	0.7971	0.001
Mof_C 	C 	0.0838	0.62213	0.9482	-0.135
Mof_H 	H 	0.0446	0.6327	0.9454	0.073
Mof_C 	C 	0.1363	0.6441	0.94991	0.082
Mof_C 	C 	0.0286	0.80676	0.9666	-0.173
Mof_H 	H 	0.0397	0.7872	0.9817	0.093
Mof_C 	C 	0.1473	0.56874	0.95514	-0.102
Mof_C 	C 	0.2451	0.86968	0.95458	0.035
Mof_H 	H 	0.255	0.8909	0.9674	0.022
Mof_C 	C 	0.1771	0.81819	0.93942	0.144
Mof_C 	C 	0.6388	0.01784	0.83361	-0.269
Mof_C 	C 	0.9007	0.31997	0.82374	0.124
Mof_C 	C 	0.668	0.21085	0.8318	0.171
Mof_C 	C 	0.1931	0.8502	0.95856	-0.16
Mof_H 	H 	0.1685	0.8584	0.9741	0.09
Mof_C 	C 	0.9951	0.86524	0.92196	0.05
Mof_H 	H 	0.9849	0.8852	0.9072	0.01
Mof_C 	C 	0.8401	0.3012	0.82583	-0.076
Mof_C 	C 	0.363	0.87921	0.89716	-0.191
Mof_H 	H 	0.338	0.871	0.8766	0.098
Mof_C 	C 	0.8164	0.89343	0.9751	0.112
Mof_H 	H 	0.8025	0.896	0.9963	0.006
Mof_C 	C 	0.267	0.82659	0.91261	0.036
Mof_H 	H 	0.2914	0.8187	0.8968	0.02
Mof_C 	C 	0.6237	0.03817	0.86022	0.18
Mof_H 	H 	0.6094	0.0266	0.8786	-0.028
Mof_C 	C 	0.3787	0.89215	0.959	-0.184
Mof_H 	H 	0.365	0.8919	0.9804	0.102
Mof_C 	C 	0.1938	0.62618	0.95367	-0.135
Mof_H 	H 	0.2296	0.6399	0.9543	0.078
Mof_C 	C 	0.0899	0.58473	0.95073	0.03
Mof_H 	H 	0.0547	0.5703	0.9494	0.028
Mof_C 	C 	0.0124	0.35634	0.81985	-0.185
Mof_C 	C 	0.126	0.76087	0.94468	0.152
Mof_C 	C 	0.0671	0.81807	0.9444	0.15
Mof_C 	C 	0.1791	0.74354	0.96195	-0.16
Mof_H 	H 	0.213	0.7572	0.9728	0.088
Mof_C 	C 	0.9731	0.82495	0.9661	0.049
Mof_H 	H 	0.9473	0.8171	0.9811	0.01
Mof_C 	C 	0.2152	0.80644	0.91662	-0.165
Mof_H 	H 	0.2059	0.785	0.904	0.092
Mof_C 	C 	0.342	0.87662	0.92897	0.124
Mof_C 	C 	0.5219	0.92058	0.92434	0.473
Mof_C 	C 	0.8052	0.90532	0.91341	0.099
Mof_H 	H 	0.7829	0.9143	0.8924	-0.005
Mof_C 	C 	0.9542	0.85449	0.94416	-0.092
Mof_C 	C 	0.049	0.84721	0.92151	-0.17
Mof_H 	H 	0.0742	0.8543	0.9058	0.092
Mof_C 	C 	0.4574	0.90761	0.92535	-0.207
Mof_C 	C 	0.0707	0.37707	0.8175	0.406
Mof_C 	C 	0.8958	0.87285	0.94459	0.136
Mof_C 	C 	0.6349	0.9773	0.83396	0.547
Mof_C 	C 	0.7818	0.90773	0.94475	-0.183
Mof_C 	C 	0.2831	0.85796	0.9315	-0.077
Mof_C 	C 	0.4357	0.90789	0.95662	0.114
Mof_H 	H 	0.4593	0.9187	0.9764	0.003
Mof_C 	C 	0.4202	0.89367	0.89586	0.116
Mof_H 	H 	0.4342	0.8941	0.8746	0.003
Mof_C 	C 	0.7201	0.92537	0.9452	0.402
Mof_C 	C 	0.871	0.87553	0.97447	-0.192
Mof_H 	H 	0.892	0.8648	0.995	0.097
Mof_Zn	Zn	0.6144	0.9245	0.8818	0.761
Mof_Zn	Zn	0.1305	0.46032	0.9684	1.219
Mof_Zn	Zn	0.12563	0.41188	0.88477	0.701
Mof_Zn	Zn	0.65771	0.91383	0.78847	1.228
Mof_N 	N 	0.1702	0.74979	0.83023	-0.191
Mof_N 	N 	0.6237	0.29885	0.94356	-0.183
Mof_N 	N 	0.1137	0.46084	0.01926	-0.309
Mof_N 	N 	0.1323	0.56382	0.23899	-0.324
Mof_O 	O 	0.7082	0.8594	0.7699	-0.388
Mof_O 	O 	0.7032	0.01324	0.97265	-0.331
Mof_O 	O 	0.7446	0.9003	0.80544	-0.502
Mof_O 	O 	0.1588	0.46143	0.81212	-0.536
Mof_O 	O 	0.6024	0.00871	0.95092	-0.453
Mof_O 	O 	0.57664	0.88962	0.78814	-0.469
Mof_O 	O 	0.1097	0.46193	0.85574	-0.602
Mof_O 	O 	0.613	0.88044	0.84442	-0.548
Mof_O 	O 	0.18962	0.43765	0.91686	-0.579
Mof_O 	O 	0.05254	0.43201	0.9517	-0.533
Mof_O 	O 	0.04014	0.41668	0.89563	-0.576
Mof_O 	O 	0.20356	0.42805	0.97415	-0.484
Mof_C 	C 	0.8218	0.822	0.7819	0.171
Mof_H 	H 	0.7863	0.8106	0.7698	-0.015
Mof_C 	C 	0.1074	0.4311	0.0732	-0.365
Mof_H 	H 	0.1217	0.4124	0.0889	0.151
Mof_C 	C 	0.9196	0.8509	0.8213	-0.305
Mof_H 	H 	0.9509	0.8604	0.8384	0.135
Mof_C 	C 	0.1946	0.6895	0.8106	-0.201
Mof_H 	H 	0.217	0.7002	0.7951	0.103
Mof_C 	C 	0.066	0.4725	0.14336	0.339
Mof_H 	H 	0.0852	0.4617	0.1643	-0.096
Mof_C 	C 	0.0369	0.4503	0.1133	-0.568
Mof_H 	H 	0.0403	0.4248	0.1201	0.19
Mof_H 	H 	0.9931	0.4562	0.1076	0.199
Mof_C 	C 	0.0651	0.4552	0.0803	0.376
Mof_C 	C 	0.0639	0.5118	0.13965	-0.6
Mof_H 	H 	0.0882	0.5189	0.1222	0.207
Mof_H 	H 	0.0213	0.5192	0.1311	0.208
Mof_C 	C 	0.0522	0.5384	0.1968	-0.432
Mof_H 	H 	0.0102	0.5327	0.191	0.182
Mof_C 	C 	0.1581	0.5726	0.805	-0.238
Mof_H 	H 	0.1683	0.5839	0.7854	0.113
Mof_C 	C 	0.126	0.6568	0.8537	0.066
Mof_H 	H 	0.1005	0.6464	0.8677	0.004
Mof_C 	C 	0.048	0.4819	0.0571	-0.401
Mof_H 	H 	0.0189	0.4991	0.0611	0.173
Mof_C 	C 	0.1537	0.5356	0.8051	0.183
Mof_H 	H 	0.1608	0.5223	0.7858	-0.023
Mof_C 	C 	0.816	0.8564	0.79565	-0.278
Mof_C 	C 	0.8632	0.8682	0.8161	0.245
Mof_H 	H 	0.8597	0.8897	0.8283	-0.042
Mof_C 	C 	0.5769	0.23936	0.9304	-0.169
Mof_H 	H 	0.5405	0.2503	0.919	0.093
Mof_C 	C 	0.0048	0.7721	0.7955	0.131
Mof_H 	H 	0.9726	0.7615	0.7797	-0.019
Mof_C 	C 	0.0747	0.5533	0.2288	0.255
Mof_H 	H 	0.0474	0.5562	0.2444	-0.064
Mof_C 	C 	0.1016	0.8017	0.8374	-0.243
Mof_H 	H 	0.1348	0.8123	0.8525	0.117
Mof_C 	C 	0.1106	0.7691	0.8222	0.202
Mof_C 	C 	0.1345	0.6947	0.8544	-0.188
Mof_H 	H 	0.1175	0.7089	0.8702	0.102
Mof_C 	C 	0.1549	0.6345	0.83249	-0.116
Mof_C 	C 	0.1294	0.43476	0.0412	0.208
Mof_H 	H 	0.1569	0.4173	0.0358	-0.05
Mof_C 	C 	0.6521	0.02688	0.95996	0.305
Mof_C 	C 	0.933	0.822	0.80417	0.213
Mof_C 	C 	0.4628	0.85688	0.79212	0.112
Mof_H 	H 	0.4667	0.8692	0.7717	0.016
Mof_C 	C 	0.4084	0.83981	0.79395	-0.188
Mof_H 	H 	0.3755	0.8414	0.775	0.111
Mof_C 	C 	0.8775	0.8037	0.7854	-0.24
Mof_H 	H 	0.8797	0.7805	0.776	0.114
Mof_C 	C 	0.7531	0.8735	0.7901	0.452
Mof_C 	C 	0.1472	0.5441	0.1834	-0.428
Mof_H 	H 	0.1749	0.5414	0.1681	0.177
Mof_C 	C 	0.0611	0.7543	0.8019	-0.243
Mof_H 	H 	0.0647	0.7315	0.7919	0.116
Mof_C 	C 	0.0885	0.53196	0.17393	0.429
Mof_C 	C 	0.3371	0.77016	0.84511	0.043
Mof_H 	H 	0.3738	0.7602	0.8573	0.013
Mof_C 	C 	0.2853	0.8166	0.8078	0.029
Mof_H 	H 	0.2859	0.8384	0.7956	0.03
Mof_C 	C 	0.1666	0.5604	0.2151	0.262
Mof_H 	H 	0.2068	0.5696	0.2199	-0.074
Mof_C 	C 	0.229	0.7982	0.8083	-0.159
Mof_H 	H 	0.1928	0.8069	0.7944	0.09
Mof_C 	C 	0.9938	0.8034	0.81033	-0.168
Mof_C 	C 	0.0475	0.8188	0.8316	0.128
Mof_H 	H 	0.0444	0.8416	0.8418	-0.02
Mof_C 	C 	0.1479	0.5945	0.83291	0.169
Mof_C 	C 	0.2828	0.75353	0.847	-0.163
Mof_H 	H 	0.2826	0.7325	0.8603	0.09
Mof_C 	C 	0.6327	0.18447	0.94888	-0.065
Mof_C 	C 	0.4516	0.8185	0.85088	-0.184
Mof_H 	H 	0.449	0.8045	0.8706	0.093
Mof_C 	C 	0.6985	0.08897	0.95637	0.042
Mof_H 	H 	0.7372	0.0778	0.9591	0.03
Mof_C 	C 	0.5797	0.20157	0.9326	0.032
Mof_H 	H 	0.5452	0.1878	0.9228	0.013
Mof_C 	C 	0.2258	0.76818	0.82867	0.143
Mof_C 	C 	0.3624	0.38912	0.91488	-0.181
Mof_H 	H 	0.3796	0.3892	0.8946	0.095
Mof_C 	C 	0.5058	0.83711	0.84963	0.113
Mof_H 	H 	0.5381	0.8367	0.8689	-0.016
Mof_C 	C 	0.0728	0.484	0.02777	0.236
Mof_H 	H 	0.0601	0.5031	0.0124	-0.061
Mof_C 	C 	0.682	0.20517	0.96314	0.029
Mof_H 	H 	0.7185	0.1939	0.9739	0.019
Mof_C 	C 	0.1292	0.5755	0.86049	-0.237
Mof_H 	H 	0.1202	0.5885	0.8796	0.115
Mof_C 	C 	0.1894	0.6518	0.8114	0.075
Mof_H 	H 	0.2101	0.6379	0.7971	0.001
Mof_C 	C 	0.5838	0.12213	0.9482	-0.135
Mof_H 	H 	0.5446	0.1327	0.9454	0.073
Mof_C 	C 	0.6363	0.1441	0.94991	0.082
Mof_C 	C 	0.5286	0.30676	0.9666	-0.173
Mof_H 	H 	0.5397	0.2872	0.9817	0.093
Mof_C 	C 	0.6473	0.06874	0.95514	-0.102
Mof_C 	C 	0.7451	0.36968	0.95458	0.035
Mof_H 	H 	0.755	0.3909	0.9674	0.022
Mof_C 	C 	0.6771	0.31819	0.93942	0.144
Mof_C 	C 	0.1388	0.51784	0.83361	-0.269
Mof_C 	C 	0.4007	0.81997	0.82374	0.125
Mof_C 	C 	0.168	0.71085	0.8318	0.171
Mof_C 	C 	0.6931	0.3502	0.95856	-0.16
Mof_H 	H 	0.6685	0.3584	0.9741	0.09
Mof_C 	C 	0.4951	0.36524	0.92196	0.05
Mof_H 	H 	0.4849	0.3852	0.9072	0.01
Mof_C 	C 	0.3401	0.8012	0.82583	-0.076
Mof_C 	C 	0.863	0.37921	0.89716	-0.191
Mof_H 	H 	0.838	0.371	0.8766	0.098
Mof_C 	C 	0.3164	0.39343	0.9751	0.112
Mof_H 	H 	0.3025	0.396	0.9963	0.006
Mof_C 	C 	0.767	0.32659	0.91261	0.036
Mof_H 	H 	0.7914	0.3187	0.8968	0.02
Mof_C 	C 	0.1237	0.53817	0.86022	0.18
Mof_H 	H 	0.1094	0.5266	0.8786	-0.029
Mof_C 	C 	0.8787	0.39215	0.959	-0.184
Mof_H 	H 	0.865	0.3919	0.9804	0.102
Mof_C 	C 	0.6938	0.12618	0.95367	-0.135
Mof_H 	H 	0.7296	0.1399	0.9543	0.078
Mof_C 	C 	0.5899	0.08473	0.95073	0.03
Mof_H 	H 	0.5547	0.0703	0.9494	0.028
Mof_C 	C 	0.5124	0.85634	0.81985	-0.185
Mof_C 	C 	0.626	0.26087	0.94468	0.152
Mof_C 	C 	0.5671	0.31807	0.9444	0.15
Mof_C 	C 	0.6791	0.24354	0.96195	-0.16
Mof_H 	H 	0.713	0.2572	0.9728	0.088
Mof_C 	C 	0.4731	0.32495	0.9661	0.049
Mof_H 	H 	0.4473	0.3171	0.9811	0.01
Mof_C 	C 	0.7152	0.30644	0.91662	-0.165
Mof_H 	H 	0.7059	0.285	0.904	0.092
Mof_C 	C 	0.842	0.37662	0.92897	0.124
Mof_C 	C 	0.0219	0.42058	0.92434	0.473
Mof_C 	C 	0.3052	0.40532	0.91341	0.099
Mof_H 	H 	0.2829	0.4143	0.8924	-0.005
Mof_C 	C 	0.4542	0.35449	0.94416	-0.092
Mof_C 	C 	0.549	0.34721	0.92151	-0.17
Mof_H 	H 	0.5742	0.3543	0.9058	0.092
Mof_C 	C 	0.9574	0.40761	0.92535	-0.207
Mof_C 	C 	0.5707	0.87707	0.8175	0.406
Mof_C 	C 	0.3958	0.37285	0.94459	0.136
Mof_C 	C 	0.1349	0.4773	0.83396	0.548
Mof_C 	C 	0.2818	0.40773	0.94475	-0.183
Mof_C 	C 	0.7831	0.35796	0.9315	-0.077
Mof_C 	C 	0.9357	0.40789	0.95662	0.114
Mof_H 	H 	0.9593	0.4187	0.9764	0.003
Mof_C 	C 	0.9202	0.39367	0.89586	0.116
Mof_H 	H 	0.9342	0.3941	0.8746	0.003
Mof_C 	C 	0.2201	0.42537	0.9452	0.402
Mof_C 	C 	0.371	0.37553	0.97447	-0.192
Mof_H 	H 	0.392	0.3648	0.995	0.097
Mof_Zn	Zn	0.1144	0.4245	0.8818	0.761
_end
