data_functionalizedCrystal
_audit_creation_method	'EQeq! by Chris Wilmer'
_symmetry_space_group_name_H-M	'P1'
_symmetry_Int_Tables_number	1
_symmetry_cell_setting	triclinic
loop_
_symmetry_equiv_pos_as_xyz
  x,y,z
_cell_length_a	17.143
_cell_length_b	17.143
_cell_length_c	49.0687
_cell_angle_alpha	90
_cell_angle_beta	90
_cell_angle_gamma	90
loop_
_atom_site_label
_atom_site_type_symbol
_atom_site_fract_x
_atom_site_fract_y
_atom_site_fract_z
_atom_site_charge
Mof_Ir	Ir	0.78429	0.70719	0.38308	0.356
Mof_O 	O 	0.9427	0.623	0.47862	-0.278
Mof_O 	O 	0.9121	0.4998	0.4897	-0.407
Mof_O 	O 	0.5669	0.633	0.3003	-0.293
Mof_O 	O 	0.5826	0.5059	0.29202	-0.439
Mof_C 	C 	0.8562	0.5528	0.44997	-0.126
Mof_C 	C 	0.6751	0.7167	0.4317	0.084
Mof_H 	H 	0.7018	0.6735	0.4383	0.01
Mof_C 	C 	0.6794	0.8359	0.3707	0.004
Mof_C 	C 	0.6308	0.559	0.33291	-0.139
Mof_C 	C 	0.7431	0.7945	0.359	-0.066
Mof_C 	C 	0.7132	0.5481	0.38032	0.078
Mof_C 	C 	0.7693	0.8145	0.3325	-0.01
Mof_H 	H 	0.8109	0.7882	0.3245	0.046
Mof_C 	C 	0.933	0.7885	0.3826	0.009
Mof_C 	C 	0.6161	0.7481	0.4472	-0.144
Mof_H 	H 	0.6048	0.7273	0.4642	0.089
Mof_C 	C 	0.6438	0.8962	0.3567	-0.07
Mof_H 	H 	0.6017	0.9228	0.3642	0.063
Mof_C 	C 	0.9246	0.8744	0.4293	-0.103
Mof_H 	H 	0.9237	0.9026	0.4455	0.08
Mof_C 	C 	0.8109	0.4905	0.44593	0.068
Mof_H 	H 	0.8112	0.4499	0.4585	0.028
Mof_N 	N 	0.8076	0.6103	0.4093	-0.153
Mof_C 	C 	0.6719	0.6226	0.34352	0.083
Mof_H 	H 	0.6718	0.6697	0.3341	0.015
Mof_C 	C 	0.6703	0.4849	0.3708	-0.148
Mof_H 	H 	0.6693	0.4385	0.3807	0.087
Mof_C 	C 	0.935	0.6255	0.3189	-0.218
Mof_H 	H 	0.9339	0.5876	0.3053	0.114
Mof_C 	C 	0.8642	0.7822	0.39848	-0.077
Mof_N 	N 	0.7113	0.6168	0.36701	-0.156
Mof_C 	C 	0.6724	0.9157	0.3316	-0.002
Mof_H 	H 	0.6513	0.9586	0.3226	0.043
Mof_C 	C 	0.5898	0.5677	0.30593	0.365
Mof_C 	C 	0.6514	0.8058	0.3977	0.093
Mof_C 	C 	0.764	0.4859	0.42335	-0.136
Mof_H 	H 	0.734	0.4416	0.4204	0.078
Mof_C 	C 	0.6307	0.4908	0.34754	0.083
Mof_H 	H 	0.6027	0.4482	0.3411	0.017
Mof_C 	C 	0.7314	0.8741	0.3188	-0.062
Mof_H 	H 	0.7456	0.8864	0.301	0.07
Mof_C 	C 	0.9961	0.6771	0.3203	0.176
Mof_H 	H 	0.0362	0.675	0.3076	-0.042
Mof_C 	C 	0.9871	0.8811	0.4111	0.065
Mof_H 	H 	0.026	0.9174	0.4148	-0.004
Mof_C 	C 	0.993	0.8393	0.3894	-0.05
Mof_H 	H 	0.037	0.843	0.3784	0.037
Mof_C 	C 	0.5903	0.8375	0.4123	-0.148
Mof_H 	H 	0.5605	0.8775	0.4049	0.09
Mof_C 	C 	0.9974	0.73	0.3401	-0.14
Mof_H 	H 	0.0392	0.7643	0.3413	0.075
Mof_C 	C 	0.5744	0.8097	0.4375	0.071
Mof_H 	H 	0.5354	0.8324	0.448	0.03
Mof_C 	C 	0.7613	0.5463	0.40526	0.07
Mof_C 	C 	0.9072	0.5621	0.47445	0.33
Mof_C 	C 	0.9369	0.7345	0.3589	0.097
Mof_C 	C 	0.8623	0.8227	0.4222	0.01
Mof_H 	H 	0.8201	0.8168	0.434	0.031
Mof_C 	C 	0.8766	0.6303	0.33729	0.134
Mof_H 	H 	0.8362	0.5942	0.3363	-0.009
Mof_C 	C 	0.8526	0.6131	0.43139	0.083
Mof_H 	H 	0.8828	0.6574	0.4344	0.023
Mof_N 	N 	0.8743	0.684	0.35666	-0.173
Mof_N 	N 	0.6955	0.7464	0.40726	-0.165
Mof_Ir	Ir	0.28429	0.20719	0.88308	0.351
Mof_O 	O 	0.4427	0.123	0.97862	-0.292
Mof_O 	O 	0.4121	0.9998	0.9897	-0.385
Mof_O 	O 	0.0669	0.133	0.8003	-0.312
Mof_O 	O 	0.0826	0.0059	0.79202	-0.471
Mof_C 	C 	0.3562	0.0528	0.94997	-0.17
Mof_C 	C 	0.1751	0.2167	0.9317	0.081
Mof_H 	H 	0.2018	0.1735	0.9383	0.006
Mof_C 	C 	0.1794	0.3359	0.8707	0.001
Mof_C 	C 	0.1308	0.059	0.83291	-0.195
Mof_C 	C 	0.2431	0.2945	0.859	-0.065
Mof_C 	C 	0.2132	0.0481	0.88032	0.053
Mof_C 	C 	0.2693	0.3145	0.8325	-0.012
Mof_H 	H 	0.3109	0.2882	0.8245	0.043
Mof_C 	C 	0.433	0.2885	0.8826	0.011
Mof_C 	C 	0.1161	0.2481	0.9472	-0.147
Mof_H 	H 	0.1048	0.2273	0.9642	0.081
Mof_C 	C 	0.1438	0.3962	0.8567	-0.073
Mof_H 	H 	0.1017	0.4228	0.8642	0.05
Mof_C 	C 	0.4246	0.3744	0.9293	-0.08
Mof_H 	H 	0.4237	0.4026	0.9455	0.059
Mof_C 	C 	0.3109	0.9905	0.94593	0.111
Mof_H 	H 	0.3112	0.9499	0.9585	0.018
Mof_N 	N 	0.3076	0.1103	0.9093	-0.154
Mof_C 	C 	0.1719	0.1226	0.84352	0.099
Mof_H 	H 	0.1718	0.1697	0.8341	0.009
Mof_C 	C 	0.1703	0.9849	0.8708	-0.13
Mof_H 	H 	0.1693	0.9385	0.8807	0.086
Mof_C 	C 	0.435	0.1255	0.8189	-0.178
Mof_H 	H 	0.4339	0.0876	0.8053	0.083
Mof_C 	C 	0.3642	0.2822	0.89848	-0.075
Mof_N 	N 	0.2113	0.1168	0.86701	-0.158
Mof_C 	C 	0.1724	0.4157	0.8316	-0.006
Mof_H 	H 	0.1513	0.4586	0.8226	0.03
Mof_C 	C 	0.0898	0.0677	0.80593	0.379
Mof_C 	C 	0.1514	0.3058	0.8977	0.089
Mof_C 	C 	0.264	0.9859	0.92335	-0.105
Mof_H 	H 	0.234	0.9416	0.9204	0.073
Mof_C 	C 	0.1307	0.9908	0.84754	0.137
Mof_H 	H 	0.1027	0.9482	0.8411	0.001
Mof_C 	C 	0.2314	0.3741	0.8188	-0.064
Mof_H 	H 	0.2456	0.3864	0.801	0.063
Mof_C 	C 	0.4961	0.1771	0.8203	0.1
Mof_H 	H 	0.5362	0.175	0.8076	0.003
Mof_C 	C 	0.4871	0.3811	0.9111	0.01
Mof_H 	H 	0.526	0.4174	0.9148	0.029
Mof_C 	C 	0.493	0.3393	0.8894	-0.085
Mof_H 	H 	0.537	0.343	0.8784	0.066
Mof_C 	C 	0.0903	0.3375	0.9123	-0.15
Mof_H 	H 	0.0605	0.3775	0.9049	0.078
Mof_C 	C 	0.4974	0.23	0.8401	-0.164
Mof_H 	H 	0.5392	0.2643	0.8413	0.102
Mof_C 	C 	0.0744	0.3097	0.9375	0.066
Mof_H 	H 	0.0354	0.3324	0.948	0.018
Mof_C 	C 	0.2613	0.0463	0.90526	0.037
Mof_C 	C 	0.4072	0.0621	0.97445	0.303
Mof_C 	C 	0.4369	0.2345	0.8589	0.092
Mof_C 	C 	0.3623	0.3227	0.9222	-0.005
Mof_H 	H 	0.3201	0.3168	0.934	0.034
Mof_C 	C 	0.3766	0.1303	0.83729	0.106
Mof_H 	H 	0.3362	0.0942	0.8363	-0.008
Mof_C 	C 	0.3526	0.1131	0.93139	0.09
Mof_H 	H 	0.3828	0.1574	0.9344	0.015
Mof_N 	N 	0.3743	0.184	0.85666	-0.169
Mof_N 	N 	0.1955	0.2464	0.90726	-0.165
Mof_Ir	Ir	0.71571	0.79281	0.88308	0.354
Mof_O 	O 	0.5573	0.877	0.97862	-0.298
Mof_O 	O 	0.5879	0.0002	0.9897	-0.45
Mof_O 	O 	0.9331	0.867	0.8003	-0.277
Mof_O 	O 	0.9174	0.9941	0.79202	-0.401
Mof_C 	C 	0.6438	0.9472	0.94997	-0.095
Mof_C 	C 	0.8249	0.7833	0.9317	0.084
Mof_H 	H 	0.7982	0.8265	0.9383	0.013
Mof_C 	C 	0.8206	0.6641	0.8707	0.006
Mof_C 	C 	0.8692	0.941	0.83291	-0.086
Mof_C 	C 	0.7569	0.7055	0.859	-0.067
Mof_C 	C 	0.7868	0.9519	0.88032	0.1
Mof_C 	C 	0.7307	0.6855	0.8325	-0.01
Mof_H 	H 	0.6891	0.7118	0.8245	0.043
Mof_C 	C 	0.567	0.7115	0.8826	0.01
Mof_C 	C 	0.8839	0.7519	0.9472	-0.138
Mof_H 	H 	0.8952	0.7727	0.9642	0.094
Mof_C 	C 	0.8562	0.6038	0.8567	-0.073
Mof_H 	H 	0.8983	0.5772	0.8642	0.064
Mof_C 	C 	0.5754	0.6256	0.9293	-0.08
Mof_H 	H 	0.5763	0.5974	0.9455	0.059
Mof_C 	C 	0.6891	0.0095	0.94593	0.031
Mof_H 	H 	0.6888	0.0501	0.9585	0.036
Mof_N 	N 	0.6924	0.8897	0.9093	-0.154
Mof_C 	C 	0.8281	0.8774	0.84352	0.068
Mof_H 	H 	0.8282	0.8303	0.8341	0.021
Mof_C 	C 	0.8297	0.0151	0.8708	-0.164
Mof_H 	H 	0.8307	0.0615	0.8807	0.088
Mof_C 	C 	0.565	0.8745	0.8189	-0.175
Mof_H 	H 	0.5661	0.9124	0.8053	0.098
Mof_C 	C 	0.6358	0.7178	0.89848	-0.074
Mof_N 	N 	0.7887	0.8832	0.86701	-0.154
Mof_C 	C 	0.8276	0.5843	0.8316	-0
Mof_H 	H 	0.8487	0.5414	0.8226	0.034
Mof_C 	C 	0.9102	0.9323	0.80593	0.349
Mof_C 	C 	0.8486	0.6942	0.8977	0.093
Mof_C 	C 	0.736	0.0141	0.92335	-0.169
Mof_H 	H 	0.766	0.0584	0.9204	0.085
Mof_C 	C 	0.8693	0.0092	0.84754	0.032
Mof_H 	H 	0.8973	0.0518	0.8411	0.033
Mof_C 	C 	0.7686	0.6259	0.8188	-0.066
Mof_H 	H 	0.7544	0.6136	0.801	0.066
Mof_C 	C 	0.5039	0.8229	0.8203	0.104
Mof_H 	H 	0.4638	0.825	0.8076	0.006
Mof_C 	C 	0.5129	0.6189	0.9111	0.01
Mof_H 	H 	0.474	0.5826	0.9148	0.029
Mof_C 	C 	0.507	0.6607	0.8894	-0.084
Mof_H 	H 	0.463	0.657	0.8784	0.066
Mof_C 	C 	0.9097	0.6625	0.9123	-0.142
Mof_H 	H 	0.9395	0.6225	0.9049	0.093
Mof_C 	C 	0.5026	0.77	0.8401	-0.165
Mof_H 	H 	0.4608	0.7357	0.8413	0.102
Mof_C 	C 	0.9256	0.6903	0.9375	0.071
Mof_H 	H 	0.9646	0.6676	0.948	0.041
Mof_C 	C 	0.7387	0.9537	0.90526	0.102
Mof_C 	C 	0.5928	0.9379	0.97445	0.359
Mof_C 	C 	0.5631	0.7655	0.8589	0.094
Mof_C 	C 	0.6377	0.6773	0.9222	-0.006
Mof_H 	H 	0.6799	0.6832	0.934	0.035
Mof_C 	C 	0.6234	0.8697	0.83729	0.111
Mof_H 	H 	0.6638	0.9058	0.8363	0.005
Mof_C 	C 	0.6474	0.8869	0.93139	0.077
Mof_H 	H 	0.6172	0.8426	0.9344	0.021
Mof_N 	N 	0.6257	0.816	0.85666	-0.168
Mof_N 	N 	0.8045	0.7536	0.90726	-0.164
Mof_Ir	Ir	0.21571	0.29281	0.38308	0.349
Mof_O 	O 	0.0573	0.377	0.47862	-0.313
Mof_O 	O 	0.0879	0.5002	0.4897	-0.429
Mof_O 	O 	0.4331	0.367	0.3003	-0.296
Mof_O 	O 	0.4174	0.4941	0.29202	-0.44
Mof_C 	C 	0.1438	0.4472	0.44997	-0.138
Mof_C 	C 	0.3249	0.2833	0.4317	0.081
Mof_H 	H 	0.2982	0.3265	0.4383	0.01
Mof_C 	C 	0.3206	0.1641	0.3707	0.003
Mof_C 	C 	0.3692	0.441	0.33291	-0.139
Mof_C 	C 	0.2569	0.2055	0.359	-0.066
Mof_C 	C 	0.2868	0.4519	0.38032	0.076
Mof_C 	C 	0.2307	0.1855	0.3325	-0.012
Mof_H 	H 	0.1891	0.2118	0.3245	0.041
Mof_C 	C 	0.067	0.2115	0.3826	0.011
Mof_C 	C 	0.3839	0.2519	0.4472	-0.141
Mof_H 	H 	0.3952	0.2727	0.4642	0.086
Mof_C 	C 	0.3562	0.1038	0.3567	-0.076
Mof_H 	H 	0.3983	0.0772	0.3642	0.051
Mof_C 	C 	0.0754	0.1256	0.4293	-0.054
Mof_H 	H 	0.0763	0.0974	0.4455	0.035
Mof_C 	C 	0.1891	0.5095	0.44593	0.073
Mof_H 	H 	0.1888	0.5501	0.4585	0.025
Mof_N 	N 	0.1924	0.3897	0.4093	-0.155
Mof_C 	C 	0.3281	0.3774	0.34352	0.082
Mof_H 	H 	0.3282	0.3303	0.3341	0.015
Mof_C 	C 	0.3297	0.5151	0.3708	-0.147
Mof_H 	H 	0.3307	0.5615	0.3807	0.087
Mof_C 	C 	0.065	0.3745	0.3189	-0.135
Mof_H 	H 	0.0661	0.4124	0.3053	0.067
Mof_C 	C 	0.1358	0.2178	0.39848	-0.071
Mof_N 	N 	0.2887	0.3832	0.36701	-0.155
Mof_C 	C 	0.3276	0.0843	0.3316	-0.004
Mof_H 	H 	0.3487	0.0414	0.3226	0.021
Mof_C 	C 	0.4102	0.4323	0.30593	0.365
Mof_C 	C 	0.3486	0.1942	0.3977	0.09
Mof_C 	C 	0.236	0.5141	0.42335	-0.141
Mof_H 	H 	0.266	0.5584	0.4204	0.08
Mof_C 	C 	0.3693	0.5092	0.34754	0.083
Mof_H 	H 	0.3973	0.5518	0.3411	0.017
Mof_C 	C 	0.2686	0.1259	0.3188	-0.068
Mof_H 	H 	0.2544	0.1136	0.301	0.059
Mof_C 	C 	0.0039	0.3229	0.3203	0.028
Mof_H 	H 	0.9638	0.325	0.3076	0.051
Mof_C 	C 	0.0129	0.1189	0.4111	-0.052
Mof_H 	H 	0.974	0.0826	0.4148	0.065
Mof_C 	C 	0.007	0.1607	0.3894	-0.119
Mof_H 	H 	0.963	0.157	0.3784	0.096
Mof_C 	C 	0.4097	0.1625	0.4123	-0.144
Mof_H 	H 	0.4395	0.1225	0.4049	0.081
Mof_C 	C 	0.0026	0.27	0.3401	-0.192
Mof_H 	H 	0.9608	0.2357	0.3413	0.131
Mof_C 	C 	0.4256	0.1903	0.4375	0.065
Mof_H 	H 	0.4646	0.1676	0.448	0.029
Mof_C 	C 	0.2387	0.4537	0.40526	0.071
Mof_C 	C 	0.0928	0.4379	0.47445	0.333
Mof_C 	C 	0.0631	0.2655	0.3589	0.09
Mof_C 	C 	0.1377	0.1773	0.4222	-0.023
Mof_H 	H 	0.1799	0.1832	0.434	0.038
Mof_C 	C 	0.1234	0.3697	0.33729	0.083
Mof_H 	H 	0.1638	0.4058	0.3363	0.006
Mof_C 	C 	0.1474	0.3869	0.43139	0.084
Mof_H 	H 	0.1172	0.3426	0.4344	0.012
Mof_N 	N 	0.1257	0.316	0.35666	-0.164
Mof_N 	N 	0.3045	0.2536	0.40726	-0.164
Mof_Ir	Ir	0.29281	0.71571	0.13308	0.353
Mof_O 	O 	0.377	0.5573	0.22862	-0.297
Mof_O 	O 	0.5002	0.5879	0.2397	-0.42
Mof_O 	O 	0.367	0.9331	0.0503	-0.285
Mof_O 	O 	0.4941	0.9174	0.04202	-0.427
Mof_C 	C 	0.4472	0.6438	0.19997	-0.132
Mof_C 	C 	0.2833	0.8249	0.1817	0.083
Mof_H 	H 	0.3265	0.7982	0.1883	0.011
Mof_C 	C 	0.1641	0.8206	0.1207	0.006
Mof_C 	C 	0.441	0.8692	0.08291	-0.133
Mof_C 	C 	0.2055	0.7569	0.109	-0.068
Mof_C 	C 	0.4519	0.7868	0.13032	0.076
Mof_C 	C 	0.1855	0.7307	0.0825	-0.01
Mof_H 	H 	0.2118	0.6891	0.0745	0.042
Mof_C 	C 	0.2115	0.567	0.1326	0.011
Mof_C 	C 	0.2519	0.8839	0.1972	-0.137
Mof_H 	H 	0.2727	0.8952	0.2142	0.092
Mof_C 	C 	0.1038	0.8562	0.1067	-0.076
Mof_H 	H 	0.0772	0.8983	0.1142	0.059
Mof_C 	C 	0.1256	0.5754	0.1793	-0.084
Mof_H 	H 	0.0974	0.5763	0.1955	0.054
Mof_C 	C 	0.5095	0.6891	0.19593	0.071
Mof_H 	H 	0.5501	0.6888	0.2085	0.027
Mof_N 	N 	0.3897	0.6924	0.1593	-0.154
Mof_C 	C 	0.3774	0.8281	0.09352	0.081
Mof_H 	H 	0.3303	0.8282	0.0841	0.016
Mof_C 	C 	0.5151	0.8297	0.1208	-0.143
Mof_H 	H 	0.5615	0.8307	0.1307	0.085
Mof_C 	C 	0.3745	0.565	0.0689	-0.177
Mof_H 	H 	0.4124	0.5661	0.0553	0.09
Mof_C 	C 	0.2178	0.6358	0.14848	-0.076
Mof_N 	N 	0.3832	0.7887	0.11701	-0.155
Mof_C 	C 	0.0843	0.8276	0.0816	-0.001
Mof_H 	H 	0.0414	0.8487	0.0726	0.024
Mof_C 	C 	0.4323	0.9102	0.05593	0.363
Mof_C 	C 	0.1942	0.8486	0.1477	0.092
Mof_C 	C 	0.5141	0.736	0.17335	-0.138
Mof_H 	H 	0.5584	0.766	0.1704	0.08
Mof_C 	C 	0.5092	0.8693	0.09754	0.08
Mof_H 	H 	0.5518	0.8973	0.0911	0.023
Mof_C 	C 	0.1259	0.7686	0.0688	-0.069
Mof_H 	H 	0.1136	0.7544	0.051	0.061
Mof_C 	C 	0.3229	0.5039	0.0703	0.102
Mof_H 	H 	0.325	0.4638	0.0576	0.004
Mof_C 	C 	0.1189	0.5129	0.1611	0.011
Mof_H 	H 	0.0826	0.474	0.1648	0.02
Mof_C 	C 	0.1607	0.507	0.1394	-0.088
Mof_H 	H 	0.157	0.463	0.1284	0.065
Mof_C 	C 	0.1625	0.9097	0.1623	-0.14
Mof_H 	H 	0.1225	0.9395	0.1549	0.088
Mof_C 	C 	0.27	0.5026	0.0901	-0.165
Mof_H 	H 	0.2357	0.4608	0.0913	0.102
Mof_C 	C 	0.1903	0.9256	0.1875	0.068
Mof_H 	H 	0.1676	0.9646	0.198	0.041
Mof_C 	C 	0.4537	0.7387	0.15526	0.071
Mof_C 	C 	0.4379	0.5928	0.22445	0.332
Mof_C 	C 	0.2655	0.5631	0.1089	0.092
Mof_C 	C 	0.1773	0.6377	0.1722	-0.006
Mof_H 	H 	0.1832	0.6799	0.184	0.033
Mof_C 	C 	0.3697	0.6234	0.08729	0.108
Mof_H 	H 	0.4058	0.6638	0.0863	-0.001
Mof_C 	C 	0.3869	0.6474	0.18139	0.083
Mof_H 	H 	0.3426	0.6172	0.1844	0.018
Mof_N 	N 	0.316	0.6257	0.10666	-0.168
Mof_N 	N 	0.2536	0.8045	0.15726	-0.164
Mof_Ir	Ir	0.79281	0.21571	0.63308	0.35
Mof_O 	O 	0.877	0.0573	0.72862	-0.314
Mof_O 	O 	0.0002	0.0879	0.7397	-0.46
Mof_O 	O 	0.867	0.4331	0.5503	-0.287
Mof_O 	O 	0.9941	0.4174	0.54202	-0.413
Mof_C 	C 	0.9472	0.1438	0.69997	-0.099
Mof_C 	C 	0.7833	0.3249	0.6817	0.082
Mof_H 	H 	0.8265	0.2982	0.6883	0.013
Mof_C 	C 	0.6641	0.3206	0.6207	0.003
Mof_C 	C 	0.941	0.3692	0.58291	-0.09
Mof_C 	C 	0.7055	0.2569	0.609	-0.066
Mof_C 	C 	0.9519	0.2868	0.63032	0.101
Mof_C 	C 	0.6855	0.2307	0.5825	-0.012
Mof_H 	H 	0.7118	0.1891	0.5745	0.043
Mof_C 	C 	0.7115	0.067	0.6326	0.01
Mof_C 	C 	0.7519	0.3839	0.6972	-0.142
Mof_H 	H 	0.7727	0.3952	0.7142	0.089
Mof_C 	C 	0.6038	0.3562	0.6067	-0.073
Mof_H 	H 	0.5772	0.3983	0.6142	0.057
Mof_C 	C 	0.6256	0.0754	0.6793	-0.05
Mof_H 	H 	0.5974	0.0763	0.6955	0.041
Mof_C 	C 	0.0095	0.1891	0.69593	0.032
Mof_H 	H 	0.0501	0.1888	0.7085	0.033
Mof_N 	N 	0.8897	0.1924	0.6593	-0.156
Mof_C 	C 	0.8774	0.3281	0.59352	0.069
Mof_H 	H 	0.8303	0.3282	0.5841	0.02
Mof_C 	C 	0.0151	0.3297	0.6208	-0.169
Mof_H 	H 	0.0615	0.3307	0.6307	0.089
Mof_C 	C 	0.8745	0.065	0.5689	-0.136
Mof_H 	H 	0.9124	0.0661	0.5553	0.077
Mof_C 	C 	0.7178	0.1358	0.64848	-0.07
Mof_N 	N 	0.8832	0.2887	0.61701	-0.154
Mof_C 	C 	0.5843	0.3276	0.5816	-0.003
Mof_H 	H 	0.5414	0.3487	0.5726	0.032
Mof_C 	C 	0.9323	0.4102	0.55593	0.35
Mof_C 	C 	0.6942	0.3486	0.6477	0.091
Mof_C 	C 	0.0141	0.236	0.67335	-0.173
Mof_H 	H 	0.0584	0.266	0.6704	0.086
Mof_C 	C 	0.0092	0.3693	0.59754	0.032
Mof_H 	H 	0.0518	0.3973	0.5911	0.027
Mof_C 	C 	0.6259	0.2686	0.5688	-0.065
Mof_H 	H 	0.6136	0.2544	0.551	0.064
Mof_C 	C 	0.8229	0.0039	0.5703	0.035
Mof_H 	H 	0.825	0.9638	0.5576	0.05
Mof_C 	C 	0.6189	0.0129	0.6611	-0.052
Mof_H 	H 	0.5826	0.974	0.6648	0.072
Mof_C 	C 	0.6607	0.007	0.6394	-0.114
Mof_H 	H 	0.657	0.963	0.6284	0.095
Mof_C 	C 	0.6625	0.4097	0.6623	-0.146
Mof_H 	H 	0.6225	0.4395	0.6549	0.085
Mof_C 	C 	0.77	0.0026	0.5901	-0.191
Mof_H 	H 	0.7357	0.9608	0.5913	0.13
Mof_C 	C 	0.6903	0.4256	0.6875	0.068
Mof_H 	H 	0.6676	0.4646	0.698	0.03
Mof_C 	C 	0.9537	0.2387	0.65526	0.103
Mof_C 	C 	0.9379	0.0928	0.72445	0.361
Mof_C 	C 	0.7655	0.0631	0.6089	0.092
Mof_C 	C 	0.6773	0.1377	0.6722	-0.023
Mof_H 	H 	0.6832	0.1799	0.684	0.039
Mof_C 	C 	0.8697	0.1234	0.58729	0.087
Mof_H 	H 	0.9058	0.1638	0.5863	0.013
Mof_C 	C 	0.8869	0.1474	0.68139	0.077
Mof_H 	H 	0.8426	0.1172	0.6844	0.016
Mof_N 	N 	0.816	0.1257	0.60666	-0.164
Mof_N 	N 	0.7536	0.3045	0.65726	-0.164
Mof_Ir	Ir	0.20719	0.78429	0.63308	0.354
Mof_O 	O 	0.123	0.9427	0.72862	-0.275
Mof_O 	O 	0.9998	0.9121	0.7397	-0.374
Mof_O 	O 	0.133	0.5669	0.5503	-0.302
Mof_O 	O 	0.0059	0.5826	0.54202	-0.462
Mof_C 	C 	0.0528	0.8562	0.69997	-0.161
Mof_C 	C 	0.2167	0.6751	0.6817	0.083
Mof_H 	H 	0.1735	0.7018	0.6883	0.007
Mof_C 	C 	0.3359	0.6794	0.6207	0.004
Mof_C 	C 	0.059	0.6308	0.58291	-0.187
Mof_C 	C 	0.2945	0.7431	0.609	-0.067
Mof_C 	C 	0.0481	0.7132	0.63032	0.054
Mof_C 	C 	0.3145	0.7693	0.5825	-0.01
Mof_H 	H 	0.2882	0.8109	0.5745	0.044
Mof_C 	C 	0.2885	0.933	0.6326	0.01
Mof_C 	C 	0.2481	0.6161	0.6972	-0.143
Mof_H 	H 	0.2273	0.6048	0.7142	0.086
Mof_C 	C 	0.3962	0.6438	0.6067	-0.073
Mof_H 	H 	0.4228	0.6017	0.6142	0.057
Mof_C 	C 	0.3744	0.9246	0.6793	-0.109
Mof_H 	H 	0.4026	0.9237	0.6955	0.076
Mof_C 	C 	0.9905	0.8109	0.69593	0.106
Mof_H 	H 	0.9499	0.8112	0.7085	0.021
Mof_N 	N 	0.1103	0.8076	0.6593	-0.152
Mof_C 	C 	0.1226	0.6719	0.59352	0.097
Mof_H 	H 	0.1697	0.6718	0.5841	0.01
Mof_C 	C 	0.9849	0.6703	0.6208	-0.127
Mof_H 	H 	0.9385	0.6693	0.6307	0.085
Mof_C 	C 	0.1255	0.935	0.5689	-0.22
Mof_H 	H 	0.0876	0.9339	0.5553	0.107
Mof_C 	C 	0.2822	0.8642	0.64848	-0.079
Mof_N 	N 	0.1168	0.7113	0.61701	-0.157
Mof_C 	C 	0.4157	0.6724	0.5816	-0.003
Mof_H 	H 	0.4586	0.6513	0.5726	0.032
Mof_C 	C 	0.0677	0.5898	0.55593	0.378
Mof_C 	C 	0.3058	0.6514	0.6477	0.091
Mof_C 	C 	0.9859	0.764	0.67335	-0.104
Mof_H 	H 	0.9416	0.734	0.6704	0.073
Mof_C 	C 	0.9908	0.6307	0.59754	0.133
Mof_H 	H 	0.9482	0.6027	0.5911	0.007
Mof_C 	C 	0.3741	0.7314	0.5688	-0.065
Mof_H 	H 	0.3864	0.7456	0.551	0.065
Mof_C 	C 	0.1771	0.9961	0.5703	0.176
Mof_H 	H 	0.175	0.0362	0.5576	-0.045
Mof_C 	C 	0.3811	0.9871	0.6611	0.071
Mof_H 	H 	0.4174	0.026	0.6648	-0.015
Mof_C 	C 	0.3393	0.993	0.6394	-0.052
Mof_H 	H 	0.343	0.037	0.6284	0.035
Mof_C 	C 	0.3375	0.5903	0.6623	-0.146
Mof_H 	H 	0.3775	0.5605	0.6549	0.085
Mof_C 	C 	0.23	0.9974	0.5901	-0.138
Mof_H 	H 	0.2643	0.0392	0.5913	0.073
Mof_C 	C 	0.3097	0.5744	0.6875	0.068
Mof_H 	H 	0.3324	0.5354	0.698	0.029
Mof_C 	C 	0.0463	0.7613	0.65526	0.039
Mof_C 	C 	0.0621	0.9072	0.72445	0.303
Mof_C 	C 	0.2345	0.9369	0.6089	0.095
Mof_C 	C 	0.3227	0.8623	0.6722	0.011
Mof_H 	H 	0.3168	0.8201	0.684	0.029
Mof_C 	C 	0.1303	0.8766	0.58729	0.132
Mof_H 	H 	0.0942	0.8362	0.5863	-0.015
Mof_C 	C 	0.1131	0.8526	0.68139	0.089
Mof_H 	H 	0.1574	0.8828	0.6844	0.02
Mof_N 	N 	0.184	0.8743	0.60666	-0.174
Mof_N 	N 	0.2464	0.6955	0.65726	-0.165
Mof_Ir	Ir	0.70719	0.28429	0.13308	0.352
Mof_O 	O 	0.623	0.4427	0.22862	-0.296
Mof_O 	O 	0.4998	0.4121	0.2397	-0.421
Mof_O 	O 	0.633	0.0669	0.0503	-0.304
Mof_O 	O 	0.5059	0.0826	0.04202	-0.449
Mof_C 	C 	0.5528	0.3562	0.19997	-0.132
Mof_C 	C 	0.7167	0.1751	0.1817	0.082
Mof_H 	H 	0.6735	0.2018	0.1883	0.009
Mof_C 	C 	0.8359	0.1794	0.1207	0.002
Mof_C 	C 	0.559	0.1308	0.08291	-0.145
Mof_C 	C 	0.7945	0.2431	0.109	-0.065
Mof_C 	C 	0.5481	0.2132	0.13032	0.078
Mof_C 	C 	0.8145	0.2693	0.0825	-0.012
Mof_H 	H 	0.7882	0.3109	0.0745	0.045
Mof_C 	C 	0.7885	0.433	0.1326	0.01
Mof_C 	C 	0.7481	0.1161	0.1972	-0.147
Mof_H 	H 	0.7273	0.1048	0.2142	0.084
Mof_C 	C 	0.8962	0.1438	0.1067	-0.069
Mof_H 	H 	0.9228	0.1017	0.1142	0.056
Mof_C 	C 	0.8744	0.4246	0.1793	-0.076
Mof_H 	H 	0.9026	0.4237	0.1955	0.064
Mof_C 	C 	0.4905	0.3109	0.19593	0.07
Mof_H 	H 	0.4499	0.3112	0.2085	0.026
Mof_N 	N 	0.6103	0.3076	0.1593	-0.154
Mof_C 	C 	0.6226	0.1719	0.09352	0.085
Mof_H 	H 	0.6697	0.1718	0.0841	0.014
Mof_C 	C 	0.4849	0.1703	0.1208	-0.152
Mof_H 	H 	0.4385	0.1693	0.1307	0.088
Mof_C 	C 	0.6255	0.435	0.0689	-0.176
Mof_H 	H 	0.5876	0.4339	0.0553	0.09
Mof_C 	C 	0.7822	0.3642	0.14848	-0.073
Mof_N 	N 	0.6168	0.2113	0.11701	-0.157
Mof_C 	C 	0.9157	0.1724	0.0816	-0.006
Mof_H 	H 	0.9586	0.1513	0.0726	0.041
Mof_C 	C 	0.5677	0.0898	0.05593	0.366
Mof_C 	C 	0.8058	0.1514	0.1477	0.091
Mof_C 	C 	0.4859	0.264	0.17335	-0.139
Mof_H 	H 	0.4416	0.234	0.1704	0.079
Mof_C 	C 	0.4908	0.1307	0.09754	0.086
Mof_H 	H 	0.4482	0.1027	0.0911	0.011
Mof_C 	C 	0.8741	0.2314	0.0688	-0.061
Mof_H 	H 	0.8864	0.2456	0.051	0.067
Mof_C 	C 	0.6771	0.4961	0.0703	0.102
Mof_H 	H 	0.675	0.5362	0.0576	0.004
Mof_C 	C 	0.8811	0.4871	0.1611	0.009
Mof_H 	H 	0.9174	0.526	0.1648	0.037
Mof_C 	C 	0.8393	0.493	0.1394	-0.081
Mof_H 	H 	0.843	0.537	0.1284	0.067
Mof_C 	C 	0.8375	0.0903	0.1623	-0.152
Mof_H 	H 	0.8775	0.0605	0.1549	0.083
Mof_C 	C 	0.73	0.4974	0.0901	-0.164
Mof_H 	H 	0.7643	0.5392	0.0913	0.102
Mof_C 	C 	0.8097	0.0744	0.1875	0.069
Mof_H 	H 	0.8324	0.0354	0.198	0.019
Mof_C 	C 	0.5463	0.2613	0.15526	0.07
Mof_C 	C 	0.5621	0.4072	0.22445	0.331
Mof_C 	C 	0.7345	0.4369	0.1089	0.094
Mof_C 	C 	0.8227	0.3623	0.1722	-0.005
Mof_H 	H 	0.8168	0.3201	0.184	0.035
Mof_C 	C 	0.6303	0.3766	0.08729	0.108
Mof_H 	H 	0.5942	0.3362	0.0863	-0.001
Mof_C 	C 	0.6131	0.3526	0.18139	0.083
Mof_H 	H 	0.6574	0.3828	0.1844	0.018
Mof_N 	N 	0.684	0.3743	0.10666	-0.168
Mof_N 	N 	0.7464	0.1955	0.15726	-0.165
Mof_Zn	Zn	0.5	0.5	0.26488	1.245
Mof_Zn	Zn	8.20867e-33	0	0.76488	1.224
Mof_Zn	Zn	0.5	0	0.01488	1.234
Mof_Zn	Zn	-8.47865e-33	0.5	0.51488	1.234
Mof_Ir	Ir	0.29281	0.28429	0.63308	0.352
Mof_O 	O 	0.377	0.4427	0.72862	-0.297
Mof_O 	O 	0.5002	0.4121	0.7397	-0.421
Mof_O 	O 	0.367	0.0669	0.5503	-0.305
Mof_O 	O 	0.4941	0.0826	0.54202	-0.449
Mof_C 	C 	0.4472	0.3562	0.69997	-0.132
Mof_C 	C 	0.2833	0.1751	0.6817	0.08
Mof_H 	H 	0.3265	0.2018	0.6883	0.009
Mof_C 	C 	0.1641	0.1794	0.6207	0.001
Mof_C 	C 	0.441	0.1308	0.58291	-0.145
Mof_C 	C 	0.2055	0.2431	0.609	-0.066
Mof_C 	C 	0.4519	0.2132	0.63032	0.078
Mof_C 	C 	0.1855	0.2693	0.5825	-0.012
Mof_H 	H 	0.2118	0.3109	0.5745	0.043
Mof_C 	C 	0.2115	0.433	0.6326	0.011
Mof_C 	C 	0.2519	0.1161	0.6972	-0.145
Mof_H 	H 	0.2727	0.1048	0.7142	0.082
Mof_C 	C 	0.1038	0.1438	0.6067	-0.076
Mof_H 	H 	0.0772	0.1017	0.6142	0.044
Mof_C 	C 	0.1256	0.4246	0.6793	-0.084
Mof_H 	H 	0.0974	0.4237	0.6955	0.054
Mof_C 	C 	0.5095	0.3109	0.69593	0.07
Mof_H 	H 	0.5501	0.3112	0.7085	0.026
Mof_N 	N 	0.3897	0.3076	0.6593	-0.154
Mof_C 	C 	0.3774	0.1719	0.59352	0.085
Mof_H 	H 	0.3303	0.1718	0.5841	0.014
Mof_C 	C 	0.5151	0.1703	0.6208	-0.152
Mof_H 	H 	0.5615	0.1693	0.6307	0.088
Mof_C 	C 	0.3745	0.435	0.5689	-0.176
Mof_H 	H 	0.4124	0.4339	0.5553	0.09
Mof_C 	C 	0.2178	0.3642	0.64848	-0.075
Mof_N 	N 	0.3832	0.2113	0.61701	-0.157
Mof_C 	C 	0.0843	0.1724	0.5816	-0.007
Mof_H 	H 	0.0414	0.1513	0.5726	0.019
Mof_C 	C 	0.4323	0.0898	0.55593	0.366
Mof_C 	C 	0.1942	0.1514	0.6477	0.088
Mof_C 	C 	0.5141	0.264	0.67335	-0.139
Mof_H 	H 	0.5584	0.234	0.6704	0.079
Mof_C 	C 	0.5092	0.1307	0.59754	0.086
Mof_H 	H 	0.5518	0.1027	0.5911	0.011
Mof_C 	C 	0.1259	0.2314	0.5688	-0.067
Mof_H 	H 	0.1136	0.2456	0.551	0.058
Mof_C 	C 	0.3229	0.4961	0.5703	0.102
Mof_H 	H 	0.325	0.5362	0.5576	0.004
Mof_C 	C 	0.1189	0.4871	0.6611	0.011
Mof_H 	H 	0.0826	0.526	0.6648	0.02
Mof_C 	C 	0.1607	0.493	0.6394	-0.088
Mof_H 	H 	0.157	0.537	0.6284	0.065
Mof_C 	C 	0.1625	0.0903	0.6623	-0.148
Mof_H 	H 	0.1225	0.0605	0.6549	0.073
Mof_C 	C 	0.27	0.4974	0.5901	-0.165
Mof_H 	H 	0.2357	0.5392	0.5913	0.102
Mof_C 	C 	0.1903	0.0744	0.6875	0.063
Mof_H 	H 	0.1676	0.0354	0.698	0.017
Mof_C 	C 	0.4537	0.2613	0.65526	0.07
Mof_C 	C 	0.4379	0.4072	0.72445	0.332
Mof_C 	C 	0.2655	0.4369	0.6089	0.092
Mof_C 	C 	0.1773	0.3623	0.6722	-0.006
Mof_H 	H 	0.1832	0.3201	0.684	0.033
Mof_C 	C 	0.3697	0.3766	0.58729	0.108
Mof_H 	H 	0.4058	0.3362	0.5863	-0.001
Mof_C 	C 	0.3869	0.3526	0.68139	0.083
Mof_H 	H 	0.3426	0.3828	0.6844	0.018
Mof_N 	N 	0.316	0.3743	0.60666	-0.168
Mof_N 	N 	0.2536	0.1955	0.65726	-0.164
Mof_Ir	Ir	0.79281	0.78429	0.13308	0.356
Mof_O 	O 	0.877	0.9427	0.22862	-0.282
Mof_O 	O 	0.0002	0.9121	0.2397	-0.437
Mof_O 	O 	0.867	0.5669	0.0503	-0.287
Mof_O 	O 	0.9941	0.5826	0.04202	-0.413
Mof_C 	C 	0.9472	0.8562	0.19997	-0.09
Mof_C 	C 	0.7833	0.6751	0.1817	0.083
Mof_H 	H 	0.8265	0.7018	0.1883	0.013
Mof_C 	C 	0.6641	0.6794	0.1207	0.004
Mof_C 	C 	0.941	0.6308	0.08291	-0.091
Mof_C 	C 	0.7055	0.7431	0.109	-0.067
Mof_C 	C 	0.9519	0.7132	0.13032	0.102
Mof_C 	C 	0.6855	0.7693	0.0825	-0.01
Mof_H 	H 	0.7118	0.8109	0.0745	0.045
Mof_C 	C 	0.7115	0.933	0.1326	0.011
Mof_C 	C 	0.7519	0.6161	0.1972	-0.142
Mof_H 	H 	0.7727	0.6048	0.2142	0.09
Mof_C 	C 	0.6038	0.6438	0.1067	-0.073
Mof_H 	H 	0.5772	0.6017	0.1142	0.057
Mof_C 	C 	0.6256	0.9246	0.1793	-0.109
Mof_H 	H 	0.5974	0.9237	0.1955	0.077
Mof_C 	C 	0.0095	0.8109	0.19593	0.03
Mof_H 	H 	0.0501	0.8112	0.2085	0.037
Mof_N 	N 	0.8897	0.8076	0.1593	-0.153
Mof_C 	C 	0.8774	0.6719	0.09352	0.07
Mof_H 	H 	0.8303	0.6718	0.0841	0.02
Mof_C 	C 	0.0151	0.6703	0.1208	-0.168
Mof_H 	H 	0.0615	0.6693	0.1307	0.089
Mof_C 	C 	0.8745	0.935	0.0689	-0.214
Mof_H 	H 	0.9124	0.9339	0.0553	0.12
Mof_C 	C 	0.7178	0.8642	0.14848	-0.079
Mof_N 	N 	0.8832	0.7113	0.11701	-0.155
Mof_C 	C 	0.5843	0.6724	0.0816	-0.003
Mof_H 	H 	0.5414	0.6513	0.0726	0.032
Mof_C 	C 	0.9323	0.5898	0.05593	0.351
Mof_C 	C 	0.6942	0.6514	0.1477	0.091
Mof_C 	C 	0.0141	0.764	0.17335	-0.167
Mof_H 	H 	0.0584	0.734	0.1704	0.084
Mof_C 	C 	0.0092	0.6307	0.09754	0.033
Mof_H 	H 	0.0518	0.6027	0.0911	0.026
Mof_C 	C 	0.6259	0.7314	0.0688	-0.065
Mof_H 	H 	0.6136	0.7456	0.051	0.065
Mof_C 	C 	0.8229	0.9961	0.0703	0.173
Mof_H 	H 	0.825	0.0362	0.0576	-0.038
Mof_C 	C 	0.6189	0.9871	0.1611	0.072
Mof_H 	H 	0.5826	0.026	0.1648	-0.015
Mof_C 	C 	0.6607	0.993	0.1394	-0.055
Mof_H 	H 	0.657	0.037	0.1284	0.037
Mof_C 	C 	0.6625	0.5903	0.1623	-0.146
Mof_H 	H 	0.6225	0.5605	0.1549	0.085
Mof_C 	C 	0.77	0.9974	0.0901	-0.138
Mof_H 	H 	0.7357	0.0392	0.0913	0.074
Mof_C 	C 	0.6903	0.5744	0.1875	0.069
Mof_H 	H 	0.6676	0.5354	0.198	0.03
Mof_C 	C 	0.9537	0.7613	0.15526	0.101
Mof_C 	C 	0.9379	0.9072	0.22445	0.356
Mof_C 	C 	0.7655	0.9369	0.1089	0.096
Mof_C 	C 	0.6773	0.8623	0.1722	0.011
Mof_H 	H 	0.6832	0.8201	0.184	0.03
Mof_C 	C 	0.8697	0.8766	0.08729	0.134
Mof_H 	H 	0.9058	0.8362	0.0863	-0.002
Mof_C 	C 	0.8869	0.8526	0.18139	0.076
Mof_H 	H 	0.8426	0.8828	0.1844	0.025
Mof_N 	N 	0.816	0.8743	0.10666	-0.172
Mof_N 	N 	0.7536	0.6955	0.15726	-0.165
Mof_Ir	Ir	0.20719	0.21571	0.13308	0.348
Mof_O 	O 	0.123	0.0573	0.22862	-0.308
Mof_O 	O 	0.9998	0.0879	0.2397	-0.392
Mof_O 	O 	0.133	0.4331	0.0503	-0.303
Mof_O 	O 	0.0059	0.4174	0.04202	-0.463
Mof_C 	C 	0.0528	0.1438	0.19997	-0.177
Mof_C 	C 	0.2167	0.3249	0.1817	0.082
Mof_H 	H 	0.1735	0.2982	0.1883	0.007
Mof_C 	C 	0.3359	0.3206	0.1207	0.003
Mof_C 	C 	0.059	0.3692	0.08291	-0.189
Mof_C 	C 	0.2945	0.2569	0.109	-0.066
Mof_C 	C 	0.0481	0.2868	0.13032	0.051
Mof_C 	C 	0.3145	0.2307	0.0825	-0.012
Mof_H 	H 	0.2882	0.1891	0.0745	0.042
Mof_C 	C 	0.2885	0.067	0.1326	0.011
Mof_C 	C 	0.2481	0.3839	0.1972	-0.143
Mof_H 	H 	0.2273	0.3952	0.2142	0.085
Mof_C 	C 	0.3962	0.3562	0.1067	-0.073
Mof_H 	H 	0.4228	0.3983	0.1142	0.057
Mof_C 	C 	0.3744	0.0754	0.1793	-0.051
Mof_H 	H 	0.4026	0.0763	0.1955	0.041
Mof_C 	C 	0.9905	0.1891	0.19593	0.115
Mof_H 	H 	0.9499	0.1888	0.2085	0.016
Mof_N 	N 	0.1103	0.1924	0.1593	-0.155
Mof_C 	C 	0.1226	0.3281	0.09352	0.096
Mof_H 	H 	0.1697	0.3282	0.0841	0.01
Mof_C 	C 	0.9849	0.3297	0.1208	-0.125
Mof_H 	H 	0.9385	0.3307	0.1307	0.084
Mof_C 	C 	0.1255	0.065	0.0689	-0.136
Mof_H 	H 	0.0876	0.0661	0.0553	0.059
Mof_C 	C 	0.2822	0.1358	0.14848	-0.07
Mof_N 	N 	0.1168	0.2887	0.11701	-0.157
Mof_C 	C 	0.4157	0.3276	0.0816	-0.003
Mof_H 	H 	0.4586	0.3487	0.0726	0.032
Mof_C 	C 	0.0677	0.4102	0.05593	0.378
Mof_C 	C 	0.3058	0.3486	0.1477	0.091
Mof_C 	C 	0.9859	0.236	0.17335	-0.108
Mof_H 	H 	0.9416	0.266	0.1704	0.074
Mof_C 	C 	0.9908	0.3693	0.09754	0.134
Mof_H 	H 	0.9482	0.3973	0.0911	0.007
Mof_C 	C 	0.3741	0.2686	0.0688	-0.065
Mof_H 	H 	0.3864	0.2544	0.051	0.063
Mof_C 	C 	0.1771	0.0039	0.0703	0.025
Mof_H 	H 	0.175	0.9638	0.0576	0.051
Mof_C 	C 	0.3811	0.0129	0.1611	-0.051
Mof_H 	H 	0.4174	0.974	0.1648	0.072
Mof_C 	C 	0.3393	0.007	0.1394	-0.117
Mof_H 	H 	0.343	0.963	0.1284	0.097
Mof_C 	C 	0.3375	0.4097	0.1623	-0.146
Mof_H 	H 	0.3775	0.4395	0.1549	0.085
Mof_C 	C 	0.23	0.0026	0.0901	-0.19
Mof_H 	H 	0.2643	0.9608	0.0913	0.131
Mof_C 	C 	0.3097	0.4256	0.1875	0.068
Mof_H 	H 	0.3324	0.4646	0.198	0.029
Mof_C 	C 	0.0463	0.2387	0.15526	0.038
Mof_C 	C 	0.0621	0.0928	0.22445	0.303
Mof_C 	C 	0.2345	0.0631	0.1089	0.089
Mof_C 	C 	0.3227	0.1377	0.1722	-0.022
Mof_H 	H 	0.3168	0.1799	0.184	0.039
Mof_C 	C 	0.1303	0.1234	0.08729	0.081
Mof_H 	H 	0.0942	0.1638	0.0863	-0
Mof_C 	C 	0.1131	0.1474	0.18139	0.091
Mof_H 	H 	0.1574	0.1172	0.1844	0.01
Mof_N 	N 	0.184	0.1257	0.10666	-0.164
Mof_N 	N 	0.2464	0.3045	0.15726	-0.164
Mof_Ir	Ir	0.70719	0.71571	0.63308	0.353
Mof_O 	O 	0.623	0.5573	0.72862	-0.295
Mof_O 	O 	0.4998	0.5879	0.7397	-0.42
Mof_O 	O 	0.633	0.9331	0.5503	-0.284
Mof_O 	O 	0.5059	0.9174	0.54202	-0.427
Mof_C 	C 	0.5528	0.6438	0.69997	-0.132
Mof_C 	C 	0.7167	0.8249	0.6817	0.085
Mof_H 	H 	0.6735	0.7982	0.6883	0.01
Mof_C 	C 	0.8359	0.8206	0.6207	0.006
Mof_C 	C 	0.559	0.8692	0.58291	-0.133
Mof_C 	C 	0.7945	0.7569	0.609	-0.066
Mof_C 	C 	0.5481	0.7868	0.63032	0.076
Mof_C 	C 	0.8145	0.7307	0.5825	-0.01
Mof_H 	H 	0.7882	0.6891	0.5745	0.044
Mof_C 	C 	0.7885	0.567	0.6326	0.01
Mof_C 	C 	0.7481	0.8839	0.6972	-0.14
Mof_H 	H 	0.7273	0.8952	0.7142	0.093
Mof_C 	C 	0.8962	0.8562	0.6067	-0.07
Mof_H 	H 	0.9228	0.8983	0.6142	0.069
Mof_C 	C 	0.8744	0.5754	0.6793	-0.076
Mof_H 	H 	0.9026	0.5763	0.6955	0.064
Mof_C 	C 	0.4905	0.6891	0.69593	0.071
Mof_H 	H 	0.4499	0.6888	0.7085	0.027
Mof_N 	N 	0.6103	0.6924	0.6593	-0.154
Mof_C 	C 	0.6226	0.8281	0.59352	0.081
Mof_H 	H 	0.6697	0.8282	0.5841	0.016
Mof_C 	C 	0.4849	0.8297	0.6208	-0.143
Mof_H 	H 	0.4385	0.8307	0.6307	0.085
Mof_C 	C 	0.6255	0.565	0.5689	-0.176
Mof_H 	H 	0.5876	0.5661	0.5553	0.091
Mof_C 	C 	0.7822	0.6358	0.64848	-0.074
Mof_N 	N 	0.6168	0.7887	0.61701	-0.155
Mof_C 	C 	0.9157	0.8276	0.5816	0
Mof_H 	H 	0.9586	0.8487	0.5726	0.044
Mof_C 	C 	0.5677	0.9102	0.55593	0.363
Mof_C 	C 	0.8058	0.8486	0.6477	0.095
Mof_C 	C 	0.4859	0.736	0.67335	-0.138
Mof_H 	H 	0.4416	0.766	0.6704	0.08
Mof_C 	C 	0.4908	0.8693	0.59754	0.08
Mof_H 	H 	0.4482	0.8973	0.5911	0.023
Mof_C 	C 	0.8741	0.7686	0.5688	-0.063
Mof_H 	H 	0.8864	0.7544	0.551	0.07
Mof_C 	C 	0.6771	0.5039	0.5703	0.103
Mof_H 	H 	0.675	0.4638	0.5576	0.004
Mof_C 	C 	0.8811	0.5129	0.6611	0.009
Mof_H 	H 	0.9174	0.474	0.6648	0.037
Mof_C 	C 	0.8393	0.507	0.6394	-0.081
Mof_H 	H 	0.843	0.463	0.6284	0.067
Mof_C 	C 	0.8375	0.9097	0.6623	-0.144
Mof_H 	H 	0.8775	0.9395	0.6549	0.097
Mof_C 	C 	0.73	0.5026	0.5901	-0.164
Mof_H 	H 	0.7643	0.4608	0.5913	0.102
Mof_C 	C 	0.8097	0.9256	0.6875	0.074
Mof_H 	H 	0.8324	0.9646	0.698	0.041
Mof_C 	C 	0.5463	0.7387	0.65526	0.071
Mof_C 	C 	0.5621	0.5928	0.72445	0.332
Mof_C 	C 	0.7345	0.5631	0.6089	0.094
Mof_C 	C 	0.8227	0.6377	0.6722	-0.005
Mof_H 	H 	0.8168	0.6799	0.684	0.035
Mof_C 	C 	0.6303	0.6234	0.58729	0.109
Mof_H 	H 	0.5942	0.6638	0.5863	-0.001
Mof_C 	C 	0.6131	0.6474	0.68139	0.083
Mof_H 	H 	0.6574	0.6172	0.6844	0.018
Mof_N 	N 	0.684	0.6257	0.60666	-0.169
Mof_N 	N 	0.7464	0.8045	0.65726	-0.165
Mof_Ir	Ir	0.78429	0.29281	0.88308	0.355
Mof_O 	O 	0.9427	0.377	0.97862	-0.279
Mof_O 	O 	0.9121	0.5002	0.9897	-0.407
Mof_O 	O 	0.5669	0.367	0.8003	-0.295
Mof_O 	O 	0.5826	0.4941	0.79202	-0.44
Mof_C 	C 	0.8562	0.4472	0.94997	-0.126
Mof_C 	C 	0.6751	0.2833	0.9317	0.082
Mof_H 	H 	0.7018	0.3265	0.9383	0.01
Mof_C 	C 	0.6794	0.1641	0.8707	0.003
Mof_C 	C 	0.6308	0.441	0.83291	-0.139
Mof_C 	C 	0.7431	0.2055	0.859	-0.068
Mof_C 	C 	0.7132	0.4519	0.88032	0.078
Mof_C 	C 	0.7693	0.1855	0.8325	-0.01
Mof_H 	H 	0.8109	0.2118	0.8245	0.043
Mof_C 	C 	0.933	0.2115	0.8826	0.012
Mof_C 	C 	0.6161	0.2519	0.9472	-0.141
Mof_H 	H 	0.6048	0.2727	0.9642	0.087
Mof_C 	C 	0.6438	0.1038	0.8567	-0.077
Mof_H 	H 	0.6017	0.0772	0.8642	0.051
Mof_C 	C 	0.9246	0.1256	0.9293	-0.114
Mof_H 	H 	0.9237	0.0974	0.9455	0.073
Mof_C 	C 	0.8109	0.5095	0.94593	0.068
Mof_H 	H 	0.8112	0.5501	0.9585	0.029
Mof_N 	N 	0.8076	0.3897	0.9093	-0.153
Mof_C 	C 	0.6719	0.3774	0.84352	0.083
Mof_H 	H 	0.6718	0.3303	0.8341	0.015
Mof_C 	C 	0.6703	0.5151	0.8708	-0.148
Mof_H 	H 	0.6693	0.5615	0.8807	0.087
Mof_C 	C 	0.935	0.3745	0.8189	-0.218
Mof_H 	H 	0.9339	0.4124	0.8053	0.114
Mof_C 	C 	0.8642	0.2178	0.89848	-0.08
Mof_N 	N 	0.7113	0.3832	0.86701	-0.156
Mof_C 	C 	0.6724	0.0843	0.8316	-0.003
Mof_H 	H 	0.6513	0.0414	0.8226	0.021
Mof_C 	C 	0.5898	0.4323	0.80593	0.365
Mof_C 	C 	0.6514	0.1942	0.8977	0.09
Mof_C 	C 	0.764	0.5141	0.92335	-0.136
Mof_H 	H 	0.734	0.5584	0.9204	0.078
Mof_C 	C 	0.6307	0.5092	0.84754	0.083
Mof_H 	H 	0.6027	0.5518	0.8411	0.017
Mof_C 	C 	0.7314	0.1259	0.8188	-0.068
Mof_H 	H 	0.7456	0.1136	0.801	0.061
Mof_C 	C 	0.9961	0.3229	0.8203	0.176
Mof_H 	H 	0.0362	0.325	0.8076	-0.043
Mof_C 	C 	0.9871	0.1189	0.9111	0.075
Mof_H 	H 	0.026	0.0826	0.9148	-0.025
Mof_C 	C 	0.993	0.1607	0.8894	-0.057
Mof_H 	H 	0.037	0.157	0.8784	0.034
Mof_C 	C 	0.5903	0.1625	0.9123	-0.144
Mof_H 	H 	0.5605	0.1225	0.9049	0.081
Mof_C 	C 	0.9974	0.27	0.8401	-0.137
Mof_H 	H 	0.0392	0.2357	0.8413	0.073
Mof_C 	C 	0.5744	0.1903	0.9375	0.066
Mof_H 	H 	0.5354	0.1676	0.948	0.029
Mof_C 	C 	0.7613	0.4537	0.90526	0.07
Mof_C 	C 	0.9072	0.4379	0.97445	0.33
Mof_C 	C 	0.9369	0.2655	0.8589	0.095
Mof_C 	C 	0.8623	0.1773	0.9222	0.012
Mof_H 	H 	0.8201	0.1832	0.934	0.028
Mof_C 	C 	0.8766	0.3697	0.83729	0.133
Mof_H 	H 	0.8362	0.4058	0.8363	-0.009
Mof_C 	C 	0.8526	0.3869	0.93139	0.082
Mof_H 	H 	0.8828	0.3426	0.9344	0.023
Mof_N 	N 	0.8743	0.316	0.85666	-0.173
Mof_N 	N 	0.6955	0.2536	0.90726	-0.164
Mof_Ir	Ir	0.28429	0.79281	0.38308	0.353
Mof_O 	O 	0.4427	0.877	0.47862	-0.299
Mof_O 	O 	0.4121	0.0002	0.4897	-0.452
Mof_O 	O 	0.0669	0.867	0.3003	-0.296
Mof_O 	O 	0.0826	0.9941	0.29202	-0.421
Mof_C 	C 	0.3562	0.9472	0.44997	-0.094
Mof_C 	C 	0.1751	0.7833	0.4317	0.081
Mof_H 	H 	0.2018	0.8265	0.4383	0.012
Mof_C 	C 	0.1794	0.6641	0.3707	0.001
Mof_C 	C 	0.1308	0.941	0.33291	-0.095
Mof_C 	C 	0.2431	0.7055	0.359	-0.066
Mof_C 	C 	0.2132	0.9519	0.38032	0.103
Mof_C 	C 	0.2693	0.6855	0.3325	-0.012
Mof_H 	H 	0.3109	0.7118	0.3245	0.044
Mof_C 	C 	0.433	0.7115	0.3826	0.01
Mof_C 	C 	0.1161	0.7519	0.4472	-0.145
Mof_H 	H 	0.1048	0.7727	0.4642	0.085
Mof_C 	C 	0.1438	0.6038	0.3567	-0.073
Mof_H 	H 	0.1017	0.5772	0.3642	0.05
Mof_C 	C 	0.4246	0.6256	0.4293	-0.08
Mof_H 	H 	0.4237	0.5974	0.4455	0.059
Mof_C 	C 	0.3109	0.0095	0.44593	0.03
Mof_H 	H 	0.3112	0.0501	0.4585	0.035
Mof_N 	N 	0.3076	0.8897	0.4093	-0.154
Mof_C 	C 	0.1719	0.8774	0.34352	0.071
Mof_H 	H 	0.1718	0.8303	0.3341	0.019
Mof_C 	C 	0.1703	0.0151	0.3708	-0.173
Mof_H 	H 	0.1693	0.0615	0.3807	0.09
Mof_C 	C 	0.435	0.8745	0.3189	-0.175
Mof_H 	H 	0.4339	0.9124	0.3053	0.098
Mof_C 	C 	0.3642	0.7178	0.39848	-0.074
Mof_N 	N 	0.2113	0.8832	0.36701	-0.155
Mof_C 	C 	0.1724	0.5843	0.3316	-0.006
Mof_H 	H 	0.1513	0.5414	0.3226	0.03
Mof_C 	C 	0.0898	0.9323	0.30593	0.351
Mof_C 	C 	0.1514	0.6942	0.3977	0.09
Mof_C 	C 	0.264	0.0141	0.42335	-0.172
Mof_H 	H 	0.234	0.0584	0.4204	0.085
Mof_C 	C 	0.1307	0.0092	0.34754	0.034
Mof_H 	H 	0.1027	0.0518	0.3411	0.02
Mof_C 	C 	0.2314	0.6259	0.3188	-0.064
Mof_H 	H 	0.2456	0.6136	0.301	0.063
Mof_C 	C 	0.4961	0.8229	0.3203	0.104
Mof_H 	H 	0.5362	0.825	0.3076	0.006
Mof_C 	C 	0.4871	0.6189	0.4111	0.01
Mof_H 	H 	0.526	0.5826	0.4148	0.029
Mof_C 	C 	0.493	0.6607	0.3894	-0.084
Mof_H 	H 	0.537	0.657	0.3784	0.066
Mof_C 	C 	0.0903	0.6625	0.4123	-0.15
Mof_H 	H 	0.0605	0.6225	0.4049	0.078
Mof_C 	C 	0.4974	0.77	0.3401	-0.165
Mof_H 	H 	0.5392	0.7357	0.3413	0.102
Mof_C 	C 	0.0744	0.6903	0.4375	0.066
Mof_H 	H 	0.0354	0.6676	0.448	0.019
Mof_C 	C 	0.2613	0.9537	0.40526	0.102
Mof_C 	C 	0.4072	0.9379	0.47445	0.359
Mof_C 	C 	0.4369	0.7655	0.3589	0.094
Mof_C 	C 	0.3623	0.6773	0.4222	-0.006
Mof_H 	H 	0.3201	0.6832	0.434	0.034
Mof_C 	C 	0.3766	0.8697	0.33729	0.11
Mof_H 	H 	0.3362	0.9058	0.3363	0.005
Mof_C 	C 	0.3526	0.8869	0.43139	0.076
Mof_H 	H 	0.3828	0.8426	0.4344	0.021
Mof_N 	N 	0.3743	0.816	0.35666	-0.168
Mof_N 	N 	0.1955	0.7536	0.40726	-0.165
Mof_Ir	Ir	0.71571	0.20719	0.38308	0.352
Mof_O 	O 	0.5573	0.123	0.47862	-0.292
Mof_O 	O 	0.5879	0.9998	0.4897	-0.385
Mof_O 	O 	0.9331	0.133	0.3003	-0.291
Mof_O 	O 	0.9174	0.0059	0.29202	-0.448
Mof_C 	C 	0.6438	0.0528	0.44997	-0.169
Mof_C 	C 	0.8249	0.2167	0.4317	0.084
Mof_H 	H 	0.7982	0.1735	0.4383	0.008
Mof_C 	C 	0.8206	0.3359	0.3707	0.006
Mof_C 	C 	0.8692	0.059	0.33291	-0.179
Mof_C 	C 	0.7569	0.2945	0.359	-0.067
Mof_C 	C 	0.7868	0.0481	0.38032	0.052
Mof_C 	C 	0.7307	0.3145	0.3325	-0.01
Mof_H 	H 	0.6891	0.2882	0.3245	0.043
Mof_C 	C 	0.567	0.2885	0.3826	0.011
Mof_C 	C 	0.8839	0.2481	0.4472	-0.139
Mof_H 	H 	0.8952	0.2273	0.4642	0.09
Mof_C 	C 	0.8562	0.3962	0.3567	-0.073
Mof_H 	H 	0.8983	0.4228	0.3642	0.064
Mof_C 	C 	0.5754	0.3744	0.4293	-0.08
Mof_H 	H 	0.5763	0.4026	0.4455	0.059
Mof_C 	C 	0.6891	0.9905	0.44593	0.111
Mof_H 	H 	0.6888	0.9499	0.4585	0.019
Mof_N 	N 	0.6924	0.1103	0.4093	-0.154
Mof_C 	C 	0.8281	0.1226	0.34352	0.093
Mof_H 	H 	0.8282	0.1697	0.3341	0.011
Mof_C 	C 	0.8297	0.9849	0.3708	-0.122
Mof_H 	H 	0.8307	0.9385	0.3807	0.083
Mof_C 	C 	0.565	0.1255	0.3189	-0.178
Mof_H 	H 	0.5661	0.0876	0.3053	0.083
Mof_C 	C 	0.6358	0.2822	0.39848	-0.075
Mof_N 	N 	0.7887	0.1168	0.36701	-0.156
Mof_C 	C 	0.8276	0.4157	0.3316	-0
Mof_H 	H 	0.8487	0.4586	0.3226	0.034
Mof_C 	C 	0.9102	0.0677	0.30593	0.376
Mof_C 	C 	0.8486	0.3058	0.3977	0.093
Mof_C 	C 	0.736	0.9859	0.42335	-0.107
Mof_H 	H 	0.766	0.9416	0.4204	0.074
Mof_C 	C 	0.8693	0.9908	0.34754	0.128
Mof_H 	H 	0.8973	0.9482	0.3411	0.014
Mof_C 	C 	0.7686	0.3741	0.3188	-0.066
Mof_H 	H 	0.7544	0.3864	0.301	0.066
Mof_C 	C 	0.5039	0.1771	0.3203	0.101
Mof_H 	H 	0.4638	0.175	0.3076	0.003
Mof_C 	C 	0.5129	0.3811	0.4111	0.01
Mof_H 	H 	0.474	0.4174	0.4148	0.029
Mof_C 	C 	0.507	0.3393	0.3894	-0.085
Mof_H 	H 	0.463	0.343	0.3784	0.066
Mof_C 	C 	0.9097	0.3375	0.4123	-0.142
Mof_H 	H 	0.9395	0.3775	0.4049	0.093
Mof_C 	C 	0.5026	0.23	0.3401	-0.164
Mof_H 	H 	0.4608	0.2643	0.3413	0.102
Mof_C 	C 	0.9256	0.3097	0.4375	0.071
Mof_H 	H 	0.9646	0.3324	0.448	0.041
Mof_C 	C 	0.7387	0.0463	0.40526	0.04
Mof_C 	C 	0.5928	0.0621	0.47445	0.304
Mof_C 	C 	0.5631	0.2345	0.3589	0.092
Mof_C 	C 	0.6377	0.3227	0.4222	-0.005
Mof_H 	H 	0.6799	0.3168	0.434	0.034
Mof_C 	C 	0.6234	0.1303	0.33729	0.106
Mof_H 	H 	0.6638	0.0942	0.3363	-0.008
Mof_C 	C 	0.6474	0.1131	0.43139	0.09
Mof_H 	H 	0.6172	0.1574	0.4344	0.015
Mof_N 	N 	0.6257	0.184	0.35666	-0.169
Mof_N 	N 	0.8045	0.2464	0.40726	-0.164
Mof_Ir	Ir	0.21571	0.70719	0.88308	0.35
Mof_O 	O 	0.0573	0.623	0.97862	-0.311
Mof_O 	O 	0.0879	0.4998	0.9897	-0.428
Mof_O 	O 	0.4331	0.633	0.8003	-0.295
Mof_O 	O 	0.4174	0.5059	0.79202	-0.44
Mof_C 	C 	0.1438	0.5528	0.94997	-0.138
Mof_C 	C 	0.3249	0.7167	0.9317	0.083
Mof_H 	H 	0.2982	0.6735	0.9383	0.01
Mof_C 	C 	0.3206	0.8359	0.8707	0.004
Mof_C 	C 	0.3692	0.559	0.83291	-0.139
Mof_C 	C 	0.2569	0.7945	0.859	-0.065
Mof_C 	C 	0.2868	0.5481	0.88032	0.076
Mof_C 	C 	0.2307	0.8145	0.8325	-0.012
Mof_H 	H 	0.1891	0.7882	0.8245	0.044
Mof_C 	C 	0.067	0.7885	0.8826	0.011
Mof_C 	C 	0.3839	0.7481	0.9472	-0.144
Mof_H 	H 	0.3952	0.7273	0.9642	0.089
Mof_C 	C 	0.3562	0.8962	0.8567	-0.069
Mof_H 	H 	0.3983	0.9228	0.8642	0.063
Mof_C 	C 	0.0754	0.8744	0.9293	-0.05
Mof_H 	H 	0.0763	0.9026	0.9455	0.047
Mof_C 	C 	0.1891	0.4905	0.94593	0.073
Mof_H 	H 	0.1888	0.4499	0.9585	0.025
Mof_N 	N 	0.1924	0.6103	0.9093	-0.155
Mof_C 	C 	0.3281	0.6226	0.84352	0.082
Mof_H 	H 	0.3282	0.6697	0.8341	0.015
Mof_C 	C 	0.3297	0.4849	0.8708	-0.147
Mof_H 	H 	0.3307	0.4385	0.8807	0.087
Mof_C 	C 	0.065	0.6255	0.8189	-0.135
Mof_H 	H 	0.0661	0.5876	0.8053	0.068
Mof_C 	C 	0.1358	0.7822	0.89848	-0.07
Mof_N 	N 	0.2887	0.6168	0.86701	-0.155
Mof_C 	C 	0.3276	0.9157	0.8316	-0.003
Mof_H 	H 	0.3487	0.9586	0.8226	0.043
Mof_C 	C 	0.4102	0.5677	0.80593	0.364
Mof_C 	C 	0.3486	0.8058	0.8977	0.093
Mof_C 	C 	0.236	0.4859	0.92335	-0.141
Mof_H 	H 	0.266	0.4416	0.9204	0.08
Mof_C 	C 	0.3693	0.4908	0.84754	0.083
Mof_H 	H 	0.3973	0.4482	0.8411	0.017
Mof_C 	C 	0.2686	0.8741	0.8188	-0.062
Mof_H 	H 	0.2544	0.8864	0.801	0.068
Mof_C 	C 	0.0039	0.6771	0.8203	0.03
Mof_H 	H 	0.9638	0.675	0.8076	0.051
Mof_C 	C 	0.0129	0.8811	0.9111	-0.047
Mof_H 	H 	0.974	0.9174	0.9148	0.078
Mof_C 	C 	0.007	0.8393	0.8894	-0.113
Mof_H 	H 	0.963	0.843	0.8784	0.097
Mof_C 	C 	0.4097	0.8375	0.9123	-0.148
Mof_H 	H 	0.4395	0.8775	0.9049	0.09
Mof_C 	C 	0.0026	0.73	0.8401	-0.188
Mof_H 	H 	0.9608	0.7643	0.8413	0.129
Mof_C 	C 	0.4256	0.8097	0.9375	0.071
Mof_H 	H 	0.4646	0.8324	0.948	0.03
Mof_C 	C 	0.2387	0.5463	0.90526	0.071
Mof_C 	C 	0.0928	0.5621	0.97445	0.332
Mof_C 	C 	0.0631	0.7345	0.8589	0.09
Mof_C 	C 	0.1377	0.8227	0.9222	-0.02
Mof_H 	H 	0.1799	0.8168	0.934	0.04
Mof_C 	C 	0.1234	0.6303	0.83729	0.084
Mof_H 	H 	0.1638	0.5942	0.8363	0.006
Mof_C 	C 	0.1474	0.6131	0.93139	0.084
Mof_H 	H 	0.1172	0.6574	0.9344	0.013
Mof_N 	N 	0.1257	0.684	0.85666	-0.164
Mof_N 	N 	0.3045	0.7464	0.90726	-0.165
Mof_Zn	Zn	0.5	0	0.51488	1.234
Mof_Zn	Zn	-7.15579e-34	0.5	0.01488	1.234
Mof_Zn	Zn	0.5	0.5	0.76488	1.245
Mof_Zn	Zn	2.84268e-33	0	0.26488	1.223
_end
