data_functionalizedCrystal
_audit_creation_method	'EQeq! by Chris Wilmer'
_symmetry_space_group_name_H-M	'P1'
_symmetry_Int_Tables_number	1
_symmetry_cell_setting	triclinic
loop_
_symmetry_equiv_pos_as_xyz
  x,y,z
_cell_length_a	43.1076
_cell_length_b	14.6316
_cell_length_c	32.321
_cell_angle_alpha	90
_cell_angle_beta	109.49
_cell_angle_gamma	90
loop_
_atom_site_label
_atom_site_type_symbol
_atom_site_fract_x
_atom_site_fract_y
_atom_site_fract_z
_atom_site_charge
Mof_C 	C 	0.0476	0.8863	0.0421	0.057
Mof_C 	C 	0.9536	0.882	0.0571	0.066
Mof_C 	C 	0.9523	0.5789	0.0529	0.057
Mof_C 	C 	0.0535	0.5845	0.0506	0.052
Mof_C 	C 	0.1168	0.3849	0.0553	0.06
Mof_C 	C 	0.2114	0.3816	0.0395	0.063
Mof_C 	C 	0.217	0.0883	0.0487	0.056
Mof_C 	C 	0.1155	0.0772	0.0511	0.056
Mof_C 	C 	0.0045	0.7382	0.1437	0.094
Mof_H 	H 	0.9813	0.7351	0.1313	0.004
Mof_C 	C 	0.055	0.7391	0.1351	0.093
Mof_H 	H 	0.0679	0.7353	0.1164	-0.005
Mof_C 	C 	0.0186	0.7453	0.1892	-0.142
Mof_H 	H 	0.0052	0.7447	0.2073	0.095
Mof_C 	C 	0.0709	0.7476	0.1795	-0.145
Mof_H 	H 	0.0943	0.7498	0.191	0.077
Mof_C 	C 	0.0524	0.7531	0.2076	0.076
Mof_C 	C 	0.0688	0.7649	0.2555	0.039
Mof_C 	C 	0.0983	0.8145	0.2719	-0.053
Mof_H 	H 	0.1081	0.8417	0.2527	0.048
Mof_C 	C 	0.1123	0.8225	0.3162	-0.053
Mof_H 	H 	0.1322	0.8557	0.3289	0.047
Mof_C 	C 	0.0965	0.7805	0.3425	0.039
Mof_C 	C 	0.1115	0.7812	0.3909	0.076
Mof_C 	C 	0.1095	0.7054	0.4148	-0.146
Mof_H 	H 	0.0972	0.6538	0.4005	0.084
Mof_C 	C 	0.1287	0.8552	0.414	-0.147
Mof_H 	H 	0.1305	0.9094	0.3989	0.078
Mof_C 	C 	0.1254	0.704	0.4601	0.094
Mof_H 	H 	0.1242	0.6499	0.4757	-0.007
Mof_C 	C 	0.1433	0.8503	0.4594	0.085
Mof_H 	H 	0.1545	0.9025	0.4747	-0.003
Mof_C 	C 	0.1688	0.2381	0.1421	0.093
Mof_H 	H 	0.1455	0.2322	0.13	0.005
Mof_C 	C 	0.2191	0.2406	0.1332	0.094
Mof_H 	H 	0.2319	0.2365	0.1143	-0.005
Mof_C 	C 	0.183	0.2472	0.1872	-0.142
Mof_H 	H 	0.1697	0.2485	0.2054	0.095
Mof_C 	C 	0.2355	0.2495	0.1772	-0.148
Mof_H 	H 	0.2588	0.2522	0.1883	0.078
Mof_C 	C 	0.2171	0.2545	0.2055	0.075
Mof_C 	C 	0.2342	0.2668	0.2535	0.042
Mof_C 	C 	0.2636	0.3129	0.2694	-0.055
Mof_H 	H 	0.2735	0.338	0.2498	0.048
Mof_C 	C 	0.2782	0.3219	0.3134	-0.051
Mof_H 	H 	0.2986	0.3531	0.3257	0.046
Mof_C 	C 	0.2617	0.2827	0.3402	0.037
Mof_C 	C 	0.2769	0.284	0.3885	0.077
Mof_C 	C 	0.2724	0.2118	0.4129	-0.146
Mof_H 	H 	0.2582	0.1628	0.3991	0.085
Mof_C 	C 	0.2961	0.3555	0.4113	-0.147
Mof_H 	H 	0.2991	0.4084	0.396	0.077
Mof_C 	C 	0.2885	0.2106	0.4576	0.092
Mof_H 	H 	0.2855	0.1586	0.4734	-0.005
Mof_C 	C 	0.3109	0.3497	0.4559	0.082
Mof_H 	H 	0.3239	0.3998	0.4708	-0.002
Mof_N 	N 	0.0301	0.8295	0.0441	-0.202
Mof_N 	N 	0.97003	0.8243	0.0553	-0.207
Mof_N 	N 	0.97142	0.6334	0.0549	-0.205
Mof_N 	N 	0.03391	0.6384	0.0489	-0.201
Mof_N 	N 	0.13353	0.3256	0.0536	-0.202
Mof_N 	N 	0.19345	0.3283	0.0417	-0.207
Mof_N 	N 	0.19703	0.1402	0.0467	-0.206
Mof_N 	N 	0.1346	0.1326	0.0537	-0.2
Mof_N 	N 	0.02224	0.7358	0.117	-0.205
Mof_N 	N 	0.0542	0.7298	0.282	-0.084
Mof_N 	N 	0.0686	0.7362	0.3261	-0.085
Mof_N 	N 	0.14218	0.7742	0.4823	-0.204
Mof_N 	N 	0.18616	0.2371	0.1147	-0.204
Mof_N 	N 	0.219	0.2334	0.2798	-0.085
Mof_N 	N 	0.2333	0.2403	0.3238	-0.085
Mof_N 	N 	0.3079	0.2766	0.4801	-0.191
Mof_Fe	Fe	0.00111	0.73091	0.0509	0.759
Mof_Fe	Fe	0.16455	0.23131	0.04874	0.758
Mof_Au	Au	0.08117	0.98247	0.04453	0.033
Mof_Au	Au	0.08585	0.48708	0.05257	0.044
Mof_Au	Au	0.24639	0.4777	0.04347	0.038
Mof_C 	C 	0.5476	0.3863	0.0421	0.058
Mof_C 	C 	0.4536	0.382	0.0571	0.067
Mof_C 	C 	0.4523	0.0789	0.0529	0.058
Mof_C 	C 	0.5535	0.0845	0.0506	0.053
Mof_C 	C 	0.6168	0.8849	0.0553	0.061
Mof_C 	C 	0.7114	0.8816	0.0395	0.064
Mof_C 	C 	0.717	0.5883	0.0487	0.056
Mof_C 	C 	0.6155	0.5772	0.0511	0.056
Mof_C 	C 	0.5045	0.2382	0.1437	0.094
Mof_H 	H 	0.4813	0.2351	0.1313	0.004
Mof_C 	C 	0.555	0.2391	0.1351	0.093
Mof_H 	H 	0.5679	0.2353	0.1164	-0.005
Mof_C 	C 	0.5186	0.2453	0.1892	-0.143
Mof_H 	H 	0.5052	0.2447	0.2073	0.095
Mof_C 	C 	0.5709	0.2476	0.1795	-0.146
Mof_H 	H 	0.5943	0.2498	0.191	0.077
Mof_C 	C 	0.5524	0.2531	0.2076	0.076
Mof_C 	C 	0.5688	0.2649	0.2555	0.039
Mof_C 	C 	0.5983	0.3145	0.2719	-0.053
Mof_H 	H 	0.6081	0.3417	0.2527	0.048
Mof_C 	C 	0.6123	0.3225	0.3162	-0.053
Mof_H 	H 	0.6322	0.3557	0.3289	0.047
Mof_C 	C 	0.5965	0.2805	0.3425	0.039
Mof_C 	C 	0.6115	0.2812	0.3909	0.076
Mof_C 	C 	0.6095	0.2054	0.4148	-0.146
Mof_H 	H 	0.5972	0.1538	0.4005	0.084
Mof_C 	C 	0.6287	0.3552	0.414	-0.147
Mof_H 	H 	0.6305	0.4094	0.3989	0.078
Mof_C 	C 	0.6254	0.204	0.4601	0.094
Mof_H 	H 	0.6242	0.1499	0.4757	-0.007
Mof_C 	C 	0.6433	0.3503	0.4594	0.085
Mof_H 	H 	0.6545	0.4025	0.4747	-0.003
Mof_C 	C 	0.6688	0.7381	0.1421	0.093
Mof_H 	H 	0.6455	0.7322	0.13	0.005
Mof_C 	C 	0.7191	0.7406	0.1332	0.094
Mof_H 	H 	0.7319	0.7365	0.1143	-0.005
Mof_C 	C 	0.683	0.7472	0.1872	-0.142
Mof_H 	H 	0.6697	0.7485	0.2054	0.095
Mof_C 	C 	0.7355	0.7495	0.1772	-0.148
Mof_H 	H 	0.7588	0.7522	0.1883	0.078
Mof_C 	C 	0.7171	0.7545	0.2055	0.075
Mof_C 	C 	0.7342	0.7668	0.2535	0.042
Mof_C 	C 	0.7636	0.8129	0.2694	-0.055
Mof_H 	H 	0.7735	0.838	0.2498	0.048
Mof_C 	C 	0.7782	0.8219	0.3134	-0.051
Mof_H 	H 	0.7986	0.8531	0.3257	0.046
Mof_C 	C 	0.7617	0.7827	0.3402	0.037
Mof_C 	C 	0.7769	0.784	0.3885	0.077
Mof_C 	C 	0.7724	0.7118	0.4129	-0.146
Mof_H 	H 	0.7582	0.6628	0.3991	0.085
Mof_C 	C 	0.7961	0.8555	0.4113	-0.147
Mof_H 	H 	0.7991	0.9084	0.396	0.077
Mof_C 	C 	0.7885	0.7106	0.4576	0.092
Mof_H 	H 	0.7855	0.6586	0.4734	-0.005
Mof_C 	C 	0.8109	0.8497	0.4559	0.082
Mof_H 	H 	0.8239	0.8998	0.4708	-0.002
Mof_N 	N 	0.5301	0.3295	0.0441	-0.202
Mof_N 	N 	0.47003	0.3243	0.0553	-0.207
Mof_N 	N 	0.47142	0.1334	0.0549	-0.205
Mof_N 	N 	0.53391	0.1384	0.0489	-0.201
Mof_N 	N 	0.63353	0.8256	0.0536	-0.202
Mof_N 	N 	0.69345	0.8283	0.0417	-0.207
Mof_N 	N 	0.69703	0.6402	0.0467	-0.206
Mof_N 	N 	0.6346	0.6326	0.0537	-0.2
Mof_N 	N 	0.52224	0.2358	0.117	-0.205
Mof_N 	N 	0.5542	0.2298	0.282	-0.084
Mof_N 	N 	0.5686	0.2362	0.3261	-0.085
Mof_N 	N 	0.64218	0.2742	0.4823	-0.204
Mof_N 	N 	0.68616	0.7371	0.1147	-0.204
Mof_N 	N 	0.719	0.7334	0.2798	-0.085
Mof_N 	N 	0.7333	0.7403	0.3238	-0.085
Mof_N 	N 	0.8079	0.7766	0.4801	-0.191
Mof_Fe	Fe	0.50111	0.23091	0.0509	0.759
Mof_Fe	Fe	0.66455	0.73131	0.04874	0.758
Mof_Au	Au	0.58117	0.48247	0.04453	0.034
Mof_Au	Au	0.58585	0.98708	0.05257	0.043
Mof_Au	Au	0.74639	0.9777	0.04347	0.038
Mof_C 	C 	0.8887	0.9213	0.5491	0.036
Mof_C 	C 	0.8828	0.6069	0.541	0.041
Mof_C 	C 	0.7822	0.607	0.5563	0.044
Mof_C 	C 	0.7806	0.9319	0.5521	0.038
Mof_C 	C 	0.8888	0.7614	0.6377	0.094
Mof_H 	H 	0.9017	0.7666	0.619	-0.004
Mof_C 	C 	0.839	0.7593	0.6471	0.092
Mof_H 	H 	0.8156	0.7621	0.6349	0.006
Mof_C 	C 	0.9048	0.7516	0.6818	-0.149
Mof_H 	H 	0.9281	0.7493	0.6931	0.079
Mof_C 	C 	0.8528	0.7507	0.692	-0.144
Mof_H 	H 	0.8393	0.7486	0.71	0.096
Mof_C 	C 	0.8866	0.7452	0.7101	0.08
Mof_C 	C 	0.9038	0.7318	0.7578	0.037
Mof_C 	C 	0.9329	0.6832	0.7738	-0.052
Mof_H 	H 	0.9426	0.6561	0.7544	0.047
Mof_C 	C 	0.9473	0.675	0.818	-0.053
Mof_H 	H 	0.9671	0.6414	0.8302	0.047
Mof_C 	C 	0.932	0.7175	0.845	0.038
Mof_C 	C 	0.9471	0.7178	0.8934	0.076
Mof_C 	C 	0.9643	0.6434	0.9161	-0.149
Mof_H 	H 	0.9659	0.5889	0.901	0.077
Mof_C 	C 	0.9457	0.7956	0.9174	-0.148
Mof_H 	H 	0.9336	0.8476	0.9033	0.084
Mof_C 	C 	0.979	0.649	0.961	0.084
Mof_H 	H 	0.9899	0.5964	0.9762	-0.003
Mof_C 	C 	0.9625	0.7957	0.9622	0.098
Mof_H 	H 	0.9621	0.8505	0.9778	-0.008
Mof_N 	N 	0.8681	0.8665	0.5476	-0.179
Mof_N 	N 	0.8638	0.6646	0.5413	-0.178
Mof_N 	N 	0.7998	0.6685	0.5561	-0.179
Mof_N 	N 	0.8009	0.8758	0.5557	-0.176
Mof_N 	N 	0.85618	0.764	0.6196	-0.192
Mof_N 	N 	0.8891	0.7687	0.7845	-0.083
Mof_N 	N 	0.9038	0.7613	0.8284	-0.085
Mof_N 	N 	0.9788	0.7258	0.9848	-0.205
Mof_Fe	Fe	0.83276	0.76914	0.54985	0.674
Mof_Au	Au	0.92114	0.01581	0.55307	0.048
Mof_Au	Au	0.91672	0.51568	0.54456	0.039
Mof_Au	Au	0.75091	0.50888	0.55223	0.049
Mof_C 	C 	0.3887	0.4213	0.5491	0.036
Mof_C 	C 	0.3828	0.1069	0.541	0.041
Mof_C 	C 	0.2822	0.107	0.5563	0.044
Mof_C 	C 	0.2806	0.4319	0.5521	0.038
Mof_C 	C 	0.3888	0.2614	0.6377	0.094
Mof_H 	H 	0.4017	0.2666	0.619	-0.004
Mof_C 	C 	0.339	0.2593	0.6471	0.092
Mof_H 	H 	0.3156	0.2621	0.6349	0.006
Mof_C 	C 	0.4048	0.2516	0.6818	-0.149
Mof_H 	H 	0.4281	0.2493	0.6931	0.079
Mof_C 	C 	0.3528	0.2507	0.692	-0.144
Mof_H 	H 	0.3393	0.2486	0.71	0.096
Mof_C 	C 	0.3866	0.2452	0.7101	0.08
Mof_C 	C 	0.4038	0.2318	0.7578	0.037
Mof_C 	C 	0.4329	0.1832	0.7738	-0.052
Mof_H 	H 	0.4426	0.1561	0.7544	0.047
Mof_C 	C 	0.4473	0.175	0.818	-0.053
Mof_H 	H 	0.4671	0.1414	0.8302	0.047
Mof_C 	C 	0.432	0.2175	0.845	0.038
Mof_C 	C 	0.4471	0.2178	0.8934	0.076
Mof_C 	C 	0.4643	0.1434	0.9161	-0.149
Mof_H 	H 	0.4659	0.0889	0.901	0.077
Mof_C 	C 	0.4457	0.2956	0.9174	-0.148
Mof_H 	H 	0.4336	0.3476	0.9033	0.084
Mof_C 	C 	0.479	0.149	0.961	0.084
Mof_H 	H 	0.4899	0.0964	0.9762	-0.003
Mof_C 	C 	0.4625	0.2957	0.9622	0.098
Mof_H 	H 	0.4621	0.3505	0.9778	-0.008
Mof_N 	N 	0.3681	0.3665	0.5476	-0.179
Mof_N 	N 	0.3638	0.1646	0.5413	-0.178
Mof_N 	N 	0.2998	0.1685	0.5561	-0.179
Mof_N 	N 	0.3009	0.3758	0.5557	-0.176
Mof_N 	N 	0.35618	0.264	0.6196	-0.192
Mof_N 	N 	0.3891	0.2687	0.7845	-0.083
Mof_N 	N 	0.4038	0.2613	0.8284	-0.085
Mof_N 	N 	0.4788	0.2258	0.9848	-0.205
Mof_Fe	Fe	0.33276	0.26914	0.54985	0.674
Mof_Au	Au	0.42114	0.51581	0.55307	0.048
Mof_Au	Au	0.41672	0.01568	0.54457	0.039
Mof_Au	Au	0.25091	0.00888	0.55223	0.049
Mof_C 	C 	0.8887	0.0787	0.0491	0.036
Mof_C 	C 	0.8828	0.3931	0.041	0.041
Mof_C 	C 	0.7822	0.393	0.0563	0.044
Mof_C 	C 	0.7806	0.0681	0.0521	0.038
Mof_C 	C 	0.8888	0.2386	0.1377	0.094
Mof_H 	H 	0.9017	0.2334	0.119	-0.004
Mof_C 	C 	0.839	0.2407	0.1471	0.092
Mof_H 	H 	0.8156	0.2379	0.1349	0.006
Mof_C 	C 	0.9048	0.2484	0.1818	-0.149
Mof_H 	H 	0.9281	0.2507	0.1931	0.079
Mof_C 	C 	0.8528	0.2493	0.192	-0.144
Mof_H 	H 	0.8393	0.2514	0.21	0.096
Mof_C 	C 	0.8866	0.2548	0.2101	0.08
Mof_C 	C 	0.9038	0.2682	0.2578	0.037
Mof_C 	C 	0.9329	0.3168	0.2738	-0.052
Mof_H 	H 	0.9426	0.3439	0.2544	0.047
Mof_C 	C 	0.9473	0.325	0.318	-0.053
Mof_H 	H 	0.9671	0.3586	0.3302	0.047
Mof_C 	C 	0.932	0.2825	0.345	0.038
Mof_C 	C 	0.9471	0.2822	0.3934	0.076
Mof_C 	C 	0.9643	0.3566	0.4161	-0.149
Mof_H 	H 	0.9659	0.4111	0.401	0.077
Mof_C 	C 	0.9457	0.2044	0.4174	-0.148
Mof_H 	H 	0.9336	0.1524	0.4033	0.084
Mof_C 	C 	0.979	0.351	0.461	0.084
Mof_H 	H 	0.9899	0.4036	0.4762	-0.003
Mof_C 	C 	0.9625	0.2043	0.4622	0.098
Mof_H 	H 	0.9621	0.1495	0.4778	-0.008
Mof_N 	N 	0.8681	0.1335	0.0476	-0.179
Mof_N 	N 	0.8638	0.3354	0.0413	-0.178
Mof_N 	N 	0.7998	0.3315	0.0561	-0.179
Mof_N 	N 	0.8009	0.1242	0.0557	-0.176
Mof_N 	N 	0.85618	0.236	0.1196	-0.192
Mof_N 	N 	0.8891	0.2313	0.2845	-0.083
Mof_N 	N 	0.9038	0.2387	0.3284	-0.085
Mof_N 	N 	0.9788	0.2742	0.4848	-0.205
Mof_Fe	Fe	0.83276	0.23086	0.04985	0.674
Mof_Au	Au	0.92114	0.98419	0.05307	0.048
Mof_Au	Au	0.91672	0.48432	0.04456	0.039
Mof_Au	Au	0.75091	0.49112	0.05223	0.049
Mof_C 	C 	0.3887	0.5787	0.0491	0.036
Mof_C 	C 	0.3828	0.8931	0.041	0.041
Mof_C 	C 	0.2822	0.893	0.0563	0.044
Mof_C 	C 	0.2806	0.5681	0.0521	0.038
Mof_C 	C 	0.3888	0.7386	0.1377	0.094
Mof_H 	H 	0.4017	0.7334	0.119	-0.004
Mof_C 	C 	0.339	0.7407	0.1471	0.092
Mof_H 	H 	0.3156	0.7379	0.1349	0.006
Mof_C 	C 	0.4048	0.7484	0.1818	-0.149
Mof_H 	H 	0.4281	0.7507	0.1931	0.079
Mof_C 	C 	0.3528	0.7493	0.192	-0.144
Mof_H 	H 	0.3393	0.7514	0.21	0.096
Mof_C 	C 	0.3866	0.7548	0.2101	0.08
Mof_C 	C 	0.4038	0.7682	0.2578	0.037
Mof_C 	C 	0.4329	0.8168	0.2738	-0.052
Mof_H 	H 	0.4426	0.8439	0.2544	0.047
Mof_C 	C 	0.4473	0.825	0.318	-0.053
Mof_H 	H 	0.4671	0.8586	0.3302	0.047
Mof_C 	C 	0.432	0.7825	0.345	0.038
Mof_C 	C 	0.4471	0.7822	0.3934	0.076
Mof_C 	C 	0.4643	0.8566	0.4161	-0.149
Mof_H 	H 	0.4659	0.9111	0.401	0.077
Mof_C 	C 	0.4457	0.7044	0.4174	-0.148
Mof_H 	H 	0.4336	0.6524	0.4033	0.084
Mof_C 	C 	0.479	0.851	0.461	0.084
Mof_H 	H 	0.4899	0.9036	0.4762	-0.003
Mof_C 	C 	0.4625	0.7043	0.4622	0.098
Mof_H 	H 	0.4621	0.6495	0.4778	-0.008
Mof_N 	N 	0.3681	0.6335	0.0476	-0.179
Mof_N 	N 	0.3638	0.8354	0.0413	-0.178
Mof_N 	N 	0.2998	0.8315	0.0561	-0.179
Mof_N 	N 	0.3009	0.6242	0.0557	-0.176
Mof_N 	N 	0.35618	0.736	0.1196	-0.192
Mof_N 	N 	0.3891	0.7313	0.2845	-0.083
Mof_N 	N 	0.4038	0.7387	0.3284	-0.085
Mof_N 	N 	0.4788	0.7742	0.4848	-0.205
Mof_Fe	Fe	0.33276	0.73086	0.04985	0.674
Mof_Au	Au	0.42114	0.48419	0.05307	0.048
Mof_Au	Au	0.41672	0.98432	0.04457	0.039
Mof_Au	Au	0.25091	0.99112	0.05223	0.049
Mof_C 	C 	0.0476	0.1137	0.5421	0.058
Mof_C 	C 	0.9536	0.118	0.5571	0.067
Mof_C 	C 	0.9523	0.4211	0.5529	0.058
Mof_C 	C 	0.0535	0.4155	0.5506	0.053
Mof_C 	C 	0.1168	0.6151	0.5553	0.061
Mof_C 	C 	0.2114	0.6184	0.5395	0.064
Mof_C 	C 	0.217	0.9117	0.5487	0.056
Mof_C 	C 	0.1155	0.9228	0.5511	0.056
Mof_C 	C 	0.0045	0.2618	0.6437	0.094
Mof_H 	H 	0.9813	0.2649	0.6313	0.004
Mof_C 	C 	0.055	0.2609	0.6351	0.093
Mof_H 	H 	0.0679	0.2647	0.6164	-0.005
Mof_C 	C 	0.0186	0.2547	0.6892	-0.143
Mof_H 	H 	0.0052	0.2553	0.7073	0.095
Mof_C 	C 	0.0709	0.2524	0.6795	-0.146
Mof_H 	H 	0.0943	0.2502	0.691	0.077
Mof_C 	C 	0.0524	0.2469	0.7076	0.076
Mof_C 	C 	0.0688	0.2351	0.7555	0.039
Mof_C 	C 	0.0983	0.1855	0.7719	-0.053
Mof_H 	H 	0.1081	0.1583	0.7527	0.048
Mof_C 	C 	0.1123	0.1775	0.8162	-0.053
Mof_H 	H 	0.1322	0.1443	0.8289	0.047
Mof_C 	C 	0.0965	0.2195	0.8425	0.039
Mof_C 	C 	0.1115	0.2188	0.8909	0.076
Mof_C 	C 	0.1095	0.2946	0.9148	-0.146
Mof_H 	H 	0.0972	0.3462	0.9005	0.084
Mof_C 	C 	0.1287	0.1448	0.914	-0.147
Mof_H 	H 	0.1305	0.0906	0.8989	0.078
Mof_C 	C 	0.1254	0.296	0.9601	0.094
Mof_H 	H 	0.1242	0.3501	0.9757	-0.007
Mof_C 	C 	0.1433	0.1497	0.9594	0.085
Mof_H 	H 	0.1545	0.0975	0.9747	-0.003
Mof_C 	C 	0.1688	0.7619	0.6421	0.093
Mof_H 	H 	0.1455	0.7678	0.63	0.005
Mof_C 	C 	0.2191	0.7594	0.6332	0.094
Mof_H 	H 	0.2319	0.7635	0.6143	-0.005
Mof_C 	C 	0.183	0.7528	0.6872	-0.142
Mof_H 	H 	0.1697	0.7515	0.7054	0.095
Mof_C 	C 	0.2355	0.7505	0.6772	-0.148
Mof_H 	H 	0.2588	0.7478	0.6883	0.078
Mof_C 	C 	0.2171	0.7455	0.7055	0.075
Mof_C 	C 	0.2342	0.7332	0.7535	0.042
Mof_C 	C 	0.2636	0.6871	0.7694	-0.055
Mof_H 	H 	0.2735	0.662	0.7498	0.048
Mof_C 	C 	0.2782	0.6781	0.8134	-0.051
Mof_H 	H 	0.2986	0.6469	0.8257	0.046
Mof_C 	C 	0.2617	0.7173	0.8402	0.037
Mof_C 	C 	0.2769	0.716	0.8885	0.077
Mof_C 	C 	0.2724	0.7882	0.9129	-0.146
Mof_H 	H 	0.2582	0.8372	0.8991	0.085
Mof_C 	C 	0.2961	0.6445	0.9113	-0.147
Mof_H 	H 	0.2991	0.5916	0.896	0.077
Mof_C 	C 	0.2885	0.7894	0.9576	0.092
Mof_H 	H 	0.2855	0.8414	0.9734	-0.005
Mof_C 	C 	0.3109	0.6503	0.9559	0.082
Mof_H 	H 	0.3239	0.6002	0.9708	-0.002
Mof_N 	N 	0.0301	0.1705	0.5441	-0.202
Mof_N 	N 	0.97003	0.1757	0.5553	-0.207
Mof_N 	N 	0.97142	0.3666	0.5549	-0.205
Mof_N 	N 	0.03391	0.3616	0.5489	-0.201
Mof_N 	N 	0.13353	0.6744	0.5536	-0.202
Mof_N 	N 	0.19345	0.6717	0.5417	-0.207
Mof_N 	N 	0.19703	0.8598	0.5467	-0.206
Mof_N 	N 	0.1346	0.8674	0.5537	-0.2
Mof_N 	N 	0.02224	0.2642	0.617	-0.205
Mof_N 	N 	0.0542	0.2702	0.782	-0.084
Mof_N 	N 	0.0686	0.2638	0.8261	-0.085
Mof_N 	N 	0.14218	0.2258	0.9823	-0.204
Mof_N 	N 	0.18616	0.7629	0.6147	-0.204
Mof_N 	N 	0.219	0.7666	0.7798	-0.085
Mof_N 	N 	0.2333	0.7597	0.8238	-0.085
Mof_N 	N 	0.3079	0.7234	0.9801	-0.191
Mof_Fe	Fe	0.00111	0.26909	0.5509	0.759
Mof_Fe	Fe	0.16455	0.76869	0.54874	0.758
Mof_Au	Au	0.08117	0.01753	0.54453	0.034
Mof_Au	Au	0.08585	0.51292	0.55258	0.044
Mof_Au	Au	0.24639	0.5223	0.54347	0.038
Mof_C 	C 	0.5476	0.6137	0.5421	0.058
Mof_C 	C 	0.4536	0.618	0.5571	0.067
Mof_C 	C 	0.4523	0.9211	0.5529	0.058
Mof_C 	C 	0.5535	0.9155	0.5506	0.053
Mof_C 	C 	0.6168	0.1151	0.5553	0.061
Mof_C 	C 	0.7114	0.1184	0.5395	0.064
Mof_C 	C 	0.717	0.4117	0.5487	0.056
Mof_C 	C 	0.6155	0.4228	0.5511	0.056
Mof_C 	C 	0.5045	0.7618	0.6437	0.094
Mof_H 	H 	0.4813	0.7649	0.6313	0.004
Mof_C 	C 	0.555	0.7609	0.6351	0.093
Mof_H 	H 	0.5679	0.7647	0.6164	-0.005
Mof_C 	C 	0.5186	0.7547	0.6892	-0.143
Mof_H 	H 	0.5052	0.7553	0.7073	0.095
Mof_C 	C 	0.5709	0.7524	0.6795	-0.146
Mof_H 	H 	0.5943	0.7502	0.691	0.077
Mof_C 	C 	0.5524	0.7469	0.7076	0.076
Mof_C 	C 	0.5688	0.7351	0.7555	0.039
Mof_C 	C 	0.5983	0.6855	0.7719	-0.053
Mof_H 	H 	0.6081	0.6583	0.7527	0.048
Mof_C 	C 	0.6123	0.6775	0.8162	-0.053
Mof_H 	H 	0.6322	0.6443	0.8289	0.047
Mof_C 	C 	0.5965	0.7195	0.8425	0.039
Mof_C 	C 	0.6115	0.7188	0.8909	0.076
Mof_C 	C 	0.6095	0.7946	0.9148	-0.146
Mof_H 	H 	0.5972	0.8462	0.9005	0.084
Mof_C 	C 	0.6287	0.6448	0.914	-0.147
Mof_H 	H 	0.6305	0.5906	0.8989	0.078
Mof_C 	C 	0.6254	0.796	0.9601	0.094
Mof_H 	H 	0.6242	0.8501	0.9757	-0.007
Mof_C 	C 	0.6433	0.6497	0.9594	0.085
Mof_H 	H 	0.6545	0.5975	0.9747	-0.003
Mof_C 	C 	0.6688	0.2619	0.6421	0.093
Mof_H 	H 	0.6455	0.2678	0.63	0.005
Mof_C 	C 	0.7191	0.2594	0.6332	0.094
Mof_H 	H 	0.7319	0.2635	0.6143	-0.005
Mof_C 	C 	0.683	0.2528	0.6872	-0.142
Mof_H 	H 	0.6697	0.2515	0.7054	0.095
Mof_C 	C 	0.7355	0.2505	0.6772	-0.148
Mof_H 	H 	0.7588	0.2478	0.6883	0.078
Mof_C 	C 	0.7171	0.2455	0.7055	0.075
Mof_C 	C 	0.7342	0.2332	0.7535	0.042
Mof_C 	C 	0.7636	0.1871	0.7694	-0.055
Mof_H 	H 	0.7735	0.162	0.7498	0.048
Mof_C 	C 	0.7782	0.1781	0.8134	-0.051
Mof_H 	H 	0.7986	0.1469	0.8257	0.046
Mof_C 	C 	0.7617	0.2173	0.8402	0.037
Mof_C 	C 	0.7769	0.216	0.8885	0.077
Mof_C 	C 	0.7724	0.2882	0.9129	-0.146
Mof_H 	H 	0.7582	0.3372	0.8991	0.085
Mof_C 	C 	0.7961	0.1445	0.9113	-0.147
Mof_H 	H 	0.7991	0.0916	0.896	0.077
Mof_C 	C 	0.7885	0.2894	0.9576	0.092
Mof_H 	H 	0.7855	0.3414	0.9734	-0.005
Mof_C 	C 	0.8109	0.1503	0.9559	0.082
Mof_H 	H 	0.8239	0.1002	0.9708	-0.002
Mof_N 	N 	0.5301	0.6705	0.5441	-0.202
Mof_N 	N 	0.47003	0.6757	0.5553	-0.207
Mof_N 	N 	0.47142	0.8666	0.5549	-0.205
Mof_N 	N 	0.53391	0.8616	0.5489	-0.201
Mof_N 	N 	0.63353	0.1744	0.5536	-0.202
Mof_N 	N 	0.69345	0.1717	0.5417	-0.207
Mof_N 	N 	0.69703	0.3598	0.5467	-0.206
Mof_N 	N 	0.6346	0.3674	0.5537	-0.2
Mof_N 	N 	0.52224	0.7642	0.617	-0.205
Mof_N 	N 	0.5542	0.7702	0.782	-0.084
Mof_N 	N 	0.5686	0.7638	0.8261	-0.085
Mof_N 	N 	0.64218	0.7258	0.9823	-0.204
Mof_N 	N 	0.68616	0.2629	0.6147	-0.204
Mof_N 	N 	0.719	0.2666	0.7798	-0.085
Mof_N 	N 	0.7333	0.2597	0.8238	-0.085
Mof_N 	N 	0.8079	0.2234	0.9801	-0.191
Mof_Fe	Fe	0.50111	0.76909	0.5509	0.759
Mof_Fe	Fe	0.66455	0.26869	0.54874	0.758
Mof_Au	Au	0.58117	0.51753	0.54453	0.033
Mof_Au	Au	0.58585	0.01292	0.55258	0.044
Mof_Au	Au	0.74639	0.0223	0.54347	0.038
Mof_C 	C 	0.1113	0.9213	0.9509	0.036
Mof_C 	C 	0.1172	0.6069	0.959	0.041
Mof_C 	C 	0.2178	0.607	0.9437	0.044
Mof_C 	C 	0.2194	0.9319	0.9479	0.038
Mof_C 	C 	0.1112	0.7614	0.8623	0.094
Mof_H 	H 	0.0983	0.7666	0.881	-0.004
Mof_C 	C 	0.161	0.7593	0.8529	0.092
Mof_H 	H 	0.1844	0.7621	0.8651	0.006
Mof_C 	C 	0.0952	0.7516	0.8182	-0.149
Mof_H 	H 	0.0719	0.7493	0.8069	0.079
Mof_C 	C 	0.1472	0.7507	0.808	-0.144
Mof_H 	H 	0.1607	0.7486	0.79	0.096
Mof_C 	C 	0.1134	0.7452	0.7899	0.08
Mof_C 	C 	0.0962	0.7318	0.7422	0.037
Mof_C 	C 	0.0671	0.6832	0.7262	-0.052
Mof_H 	H 	0.0574	0.6561	0.7456	0.047
Mof_C 	C 	0.0527	0.675	0.682	-0.053
Mof_H 	H 	0.0329	0.6414	0.6698	0.047
Mof_C 	C 	0.068	0.7175	0.655	0.038
Mof_C 	C 	0.0529	0.7178	0.6066	0.076
Mof_C 	C 	0.0357	0.6434	0.5839	-0.149
Mof_H 	H 	0.0341	0.5889	0.599	0.077
Mof_C 	C 	0.0543	0.7956	0.5826	-0.148
Mof_H 	H 	0.0664	0.8476	0.5967	0.084
Mof_C 	C 	0.021	0.649	0.539	0.084
Mof_H 	H 	0.0101	0.5964	0.5238	-0.003
Mof_C 	C 	0.0375	0.7957	0.5378	0.098
Mof_H 	H 	0.0379	0.8505	0.5222	-0.008
Mof_N 	N 	0.1319	0.8665	0.9524	-0.179
Mof_N 	N 	0.1362	0.6646	0.9587	-0.178
Mof_N 	N 	0.2002	0.6685	0.9439	-0.179
Mof_N 	N 	0.1991	0.8758	0.9443	-0.176
Mof_N 	N 	0.14382	0.764	0.8804	-0.192
Mof_N 	N 	0.1109	0.7687	0.7155	-0.083
Mof_N 	N 	0.0962	0.7613	0.6716	-0.085
Mof_N 	N 	0.0212	0.7258	0.5152	-0.205
Mof_Fe	Fe	0.16724	0.76914	0.95015	0.674
Mof_Au	Au	0.07886	0.01581	0.94693	0.048
Mof_Au	Au	0.08328	0.51568	0.95544	0.039
Mof_Au	Au	0.24909	0.50888	0.94777	0.049
Mof_C 	C 	0.6113	0.4213	0.9509	0.036
Mof_C 	C 	0.6172	0.1069	0.959	0.041
Mof_C 	C 	0.7178	0.107	0.9437	0.044
Mof_C 	C 	0.7194	0.4319	0.9479	0.038
Mof_C 	C 	0.6112	0.2614	0.8623	0.094
Mof_H 	H 	0.5983	0.2666	0.881	-0.004
Mof_C 	C 	0.661	0.2593	0.8529	0.092
Mof_H 	H 	0.6844	0.2621	0.8651	0.006
Mof_C 	C 	0.5952	0.2516	0.8182	-0.149
Mof_H 	H 	0.5719	0.2493	0.8069	0.079
Mof_C 	C 	0.6472	0.2507	0.808	-0.144
Mof_H 	H 	0.6607	0.2486	0.79	0.096
Mof_C 	C 	0.6134	0.2452	0.7899	0.08
Mof_C 	C 	0.5962	0.2318	0.7422	0.037
Mof_C 	C 	0.5671	0.1832	0.7262	-0.052
Mof_H 	H 	0.5574	0.1561	0.7456	0.047
Mof_C 	C 	0.5527	0.175	0.682	-0.053
Mof_H 	H 	0.5329	0.1414	0.6698	0.047
Mof_C 	C 	0.568	0.2175	0.655	0.038
Mof_C 	C 	0.5529	0.2178	0.6066	0.076
Mof_C 	C 	0.5357	0.1434	0.5839	-0.149
Mof_H 	H 	0.5341	0.0889	0.599	0.077
Mof_C 	C 	0.5543	0.2956	0.5826	-0.148
Mof_H 	H 	0.5664	0.3476	0.5967	0.084
Mof_C 	C 	0.521	0.149	0.539	0.084
Mof_H 	H 	0.5101	0.0964	0.5238	-0.003
Mof_C 	C 	0.5375	0.2957	0.5378	0.098
Mof_H 	H 	0.5379	0.3505	0.5222	-0.008
Mof_N 	N 	0.6319	0.3665	0.9524	-0.179
Mof_N 	N 	0.6362	0.1646	0.9587	-0.178
Mof_N 	N 	0.7002	0.1685	0.9439	-0.179
Mof_N 	N 	0.6991	0.3758	0.9443	-0.176
Mof_N 	N 	0.64382	0.264	0.8804	-0.192
Mof_N 	N 	0.6109	0.2687	0.7155	-0.083
Mof_N 	N 	0.5962	0.2613	0.6716	-0.085
Mof_N 	N 	0.5212	0.2258	0.5152	-0.205
Mof_Fe	Fe	0.66724	0.26914	0.95015	0.674
Mof_Au	Au	0.57886	0.51581	0.94693	0.048
Mof_Au	Au	0.58328	0.01568	0.95543	0.039
Mof_Au	Au	0.74909	0.00888	0.94777	0.049
Mof_C 	C 	0.9524	0.8863	0.4579	0.058
Mof_C 	C 	0.0464	0.882	0.4429	0.067
Mof_C 	C 	0.0477	0.5789	0.4471	0.058
Mof_C 	C 	0.9465	0.5845	0.4494	0.053
Mof_C 	C 	0.8832	0.3849	0.4447	0.061
Mof_C 	C 	0.7886	0.3816	0.4605	0.064
Mof_C 	C 	0.783	0.0883	0.4513	0.056
Mof_C 	C 	0.8845	0.0772	0.4489	0.056
Mof_C 	C 	0.9955	0.7382	0.3563	0.094
Mof_H 	H 	0.0187	0.7351	0.3687	0.004
Mof_C 	C 	0.945	0.7391	0.3649	0.093
Mof_H 	H 	0.9321	0.7353	0.3836	-0.005
Mof_C 	C 	0.9814	0.7453	0.3108	-0.143
Mof_H 	H 	0.9948	0.7447	0.2927	0.095
Mof_C 	C 	0.9291	0.7476	0.3205	-0.146
Mof_H 	H 	0.9057	0.7498	0.309	0.077
Mof_C 	C 	0.9476	0.7531	0.2924	0.076
Mof_C 	C 	0.9312	0.7649	0.2445	0.039
Mof_C 	C 	0.9017	0.8145	0.2281	-0.053
Mof_H 	H 	0.8919	0.8417	0.2473	0.048
Mof_C 	C 	0.8877	0.8225	0.1838	-0.053
Mof_H 	H 	0.8678	0.8557	0.1711	0.047
Mof_C 	C 	0.9035	0.7805	0.1575	0.039
Mof_C 	C 	0.8885	0.7812	0.1091	0.076
Mof_C 	C 	0.8905	0.7054	0.0852	-0.146
Mof_H 	H 	0.9028	0.6538	0.0995	0.084
Mof_C 	C 	0.8713	0.8552	0.086	-0.147
Mof_H 	H 	0.8695	0.9094	0.1011	0.078
Mof_C 	C 	0.8746	0.704	0.0399	0.094
Mof_H 	H 	0.8758	0.6499	0.0243	-0.007
Mof_C 	C 	0.8567	0.8503	0.0406	0.085
Mof_H 	H 	0.8455	0.9025	0.0253	-0.003
Mof_C 	C 	0.8312	0.2381	0.3579	0.093
Mof_H 	H 	0.8545	0.2322	0.37	0.005
Mof_C 	C 	0.7809	0.2406	0.3668	0.094
Mof_H 	H 	0.7681	0.2365	0.3857	-0.005
Mof_C 	C 	0.817	0.2472	0.3128	-0.142
Mof_H 	H 	0.8303	0.2485	0.2946	0.095
Mof_C 	C 	0.7645	0.2495	0.3228	-0.148
Mof_H 	H 	0.7412	0.2522	0.3117	0.078
Mof_C 	C 	0.7829	0.2545	0.2945	0.075
Mof_C 	C 	0.7658	0.2668	0.2465	0.042
Mof_C 	C 	0.7364	0.3129	0.2306	-0.055
Mof_H 	H 	0.7265	0.338	0.2502	0.048
Mof_C 	C 	0.7218	0.3219	0.1866	-0.051
Mof_H 	H 	0.7014	0.3531	0.1743	0.046
Mof_C 	C 	0.7383	0.2827	0.1598	0.037
Mof_C 	C 	0.7231	0.284	0.1115	0.077
Mof_C 	C 	0.7276	0.2118	0.0871	-0.146
Mof_H 	H 	0.7418	0.1628	0.1009	0.085
Mof_C 	C 	0.7039	0.3555	0.0887	-0.147
Mof_H 	H 	0.7009	0.4084	0.104	0.077
Mof_C 	C 	0.7115	0.2106	0.0424	0.092
Mof_H 	H 	0.7145	0.1586	0.0266	-0.005
Mof_C 	C 	0.6891	0.3497	0.0441	0.082
Mof_H 	H 	0.6761	0.3998	0.0292	-0.002
Mof_N 	N 	0.9699	0.8295	0.4559	-0.202
Mof_N 	N 	0.02997	0.8243	0.4447	-0.207
Mof_N 	N 	0.02858	0.6334	0.4451	-0.205
Mof_N 	N 	0.96609	0.6384	0.4511	-0.201
Mof_N 	N 	0.86647	0.3256	0.4464	-0.202
Mof_N 	N 	0.80655	0.3283	0.4583	-0.207
Mof_N 	N 	0.80297	0.1402	0.4533	-0.206
Mof_N 	N 	0.8654	0.1326	0.4463	-0.2
Mof_N 	N 	0.97776	0.7358	0.383	-0.205
Mof_N 	N 	0.9458	0.7298	0.218	-0.084
Mof_N 	N 	0.9314	0.7362	0.1739	-0.085
Mof_N 	N 	0.85782	0.7742	0.0177	-0.204
Mof_N 	N 	0.81384	0.2371	0.3853	-0.204
Mof_N 	N 	0.781	0.2334	0.2202	-0.085
Mof_N 	N 	0.7667	0.2403	0.1762	-0.085
Mof_N 	N 	0.6921	0.2766	0.0199	-0.191
Mof_Fe	Fe	0.99889	0.73091	0.4491	0.759
Mof_Fe	Fe	0.83545	0.23131	0.45126	0.758
Mof_Au	Au	0.91883	0.98247	0.45547	0.034
Mof_Au	Au	0.91415	0.48708	0.44742	0.044
Mof_Au	Au	0.75361	0.4777	0.45653	0.038
Mof_C 	C 	0.4524	0.3863	0.4579	0.058
Mof_C 	C 	0.5464	0.382	0.4429	0.067
Mof_C 	C 	0.5477	0.0789	0.4471	0.058
Mof_C 	C 	0.4465	0.0845	0.4494	0.053
Mof_C 	C 	0.3832	0.8849	0.4447	0.061
Mof_C 	C 	0.2886	0.8816	0.4605	0.064
Mof_C 	C 	0.283	0.5883	0.4513	0.056
Mof_C 	C 	0.3845	0.5772	0.4489	0.056
Mof_C 	C 	0.4955	0.2382	0.3563	0.094
Mof_H 	H 	0.5187	0.2351	0.3687	0.004
Mof_C 	C 	0.445	0.2391	0.3649	0.093
Mof_H 	H 	0.4321	0.2353	0.3836	-0.005
Mof_C 	C 	0.4814	0.2453	0.3108	-0.143
Mof_H 	H 	0.4948	0.2447	0.2927	0.095
Mof_C 	C 	0.4291	0.2476	0.3205	-0.146
Mof_H 	H 	0.4057	0.2498	0.309	0.077
Mof_C 	C 	0.4476	0.2531	0.2924	0.076
Mof_C 	C 	0.4312	0.2649	0.2445	0.039
Mof_C 	C 	0.4017	0.3145	0.2281	-0.053
Mof_H 	H 	0.3919	0.3417	0.2473	0.048
Mof_C 	C 	0.3877	0.3225	0.1838	-0.053
Mof_H 	H 	0.3678	0.3557	0.1711	0.047
Mof_C 	C 	0.4035	0.2805	0.1575	0.039
Mof_C 	C 	0.3885	0.2812	0.1091	0.076
Mof_C 	C 	0.3905	0.2054	0.0852	-0.146
Mof_H 	H 	0.4028	0.1538	0.0995	0.084
Mof_C 	C 	0.3713	0.3552	0.086	-0.147
Mof_H 	H 	0.3695	0.4094	0.1011	0.078
Mof_C 	C 	0.3746	0.204	0.0399	0.094
Mof_H 	H 	0.3758	0.1499	0.0243	-0.007
Mof_C 	C 	0.3567	0.3503	0.0406	0.085
Mof_H 	H 	0.3455	0.4025	0.0253	-0.003
Mof_C 	C 	0.3312	0.7381	0.3579	0.093
Mof_H 	H 	0.3545	0.7322	0.37	0.005
Mof_C 	C 	0.2809	0.7406	0.3668	0.094
Mof_H 	H 	0.2681	0.7365	0.3857	-0.005
Mof_C 	C 	0.317	0.7472	0.3128	-0.142
Mof_H 	H 	0.3303	0.7485	0.2946	0.095
Mof_C 	C 	0.2645	0.7495	0.3228	-0.148
Mof_H 	H 	0.2412	0.7522	0.3117	0.078
Mof_C 	C 	0.2829	0.7545	0.2945	0.075
Mof_C 	C 	0.2658	0.7668	0.2465	0.042
Mof_C 	C 	0.2364	0.8129	0.2306	-0.055
Mof_H 	H 	0.2265	0.838	0.2502	0.048
Mof_C 	C 	0.2218	0.8219	0.1866	-0.051
Mof_H 	H 	0.2014	0.8531	0.1743	0.046
Mof_C 	C 	0.2383	0.7827	0.1598	0.037
Mof_C 	C 	0.2231	0.784	0.1115	0.077
Mof_C 	C 	0.2276	0.7118	0.0871	-0.146
Mof_H 	H 	0.2418	0.6628	0.1009	0.085
Mof_C 	C 	0.2039	0.8555	0.0887	-0.147
Mof_H 	H 	0.2009	0.9084	0.104	0.077
Mof_C 	C 	0.2115	0.7106	0.0424	0.092
Mof_H 	H 	0.2145	0.6586	0.0266	-0.005
Mof_C 	C 	0.1891	0.8497	0.0441	0.082
Mof_H 	H 	0.1761	0.8998	0.0292	-0.002
Mof_N 	N 	0.4699	0.3295	0.4559	-0.202
Mof_N 	N 	0.52997	0.3243	0.4447	-0.207
Mof_N 	N 	0.52858	0.1334	0.4451	-0.205
Mof_N 	N 	0.46609	0.1384	0.4511	-0.201
Mof_N 	N 	0.36647	0.8256	0.4464	-0.202
Mof_N 	N 	0.30655	0.8283	0.4583	-0.207
Mof_N 	N 	0.30297	0.6402	0.4533	-0.206
Mof_N 	N 	0.3654	0.6326	0.4463	-0.2
Mof_N 	N 	0.47776	0.2358	0.383	-0.205
Mof_N 	N 	0.4458	0.2298	0.218	-0.084
Mof_N 	N 	0.4314	0.2362	0.1739	-0.085
Mof_N 	N 	0.35782	0.2742	0.0177	-0.204
Mof_N 	N 	0.31384	0.7371	0.3853	-0.204
Mof_N 	N 	0.281	0.7334	0.2202	-0.085
Mof_N 	N 	0.2667	0.7403	0.1762	-0.085
Mof_N 	N 	0.1921	0.7766	0.0199	-0.191
Mof_Fe	Fe	0.49889	0.23091	0.4491	0.759
Mof_Fe	Fe	0.33545	0.73131	0.45126	0.758
Mof_Au	Au	0.41883	0.48247	0.45547	0.033
Mof_Au	Au	0.41415	0.98708	0.44743	0.044
Mof_Au	Au	0.25361	0.9777	0.45653	0.038
Mof_C 	C 	0.9524	0.1137	0.9579	0.058
Mof_C 	C 	0.0464	0.118	0.9429	0.067
Mof_C 	C 	0.0477	0.4211	0.9471	0.058
Mof_C 	C 	0.9465	0.4155	0.9494	0.053
Mof_C 	C 	0.8832	0.6151	0.9447	0.061
Mof_C 	C 	0.7886	0.6184	0.9605	0.064
Mof_C 	C 	0.783	0.9117	0.9513	0.056
Mof_C 	C 	0.8845	0.9228	0.9489	0.056
Mof_C 	C 	0.9955	0.2618	0.8563	0.094
Mof_H 	H 	0.0187	0.2649	0.8687	0.004
Mof_C 	C 	0.945	0.2609	0.8649	0.093
Mof_H 	H 	0.9321	0.2647	0.8836	-0.005
Mof_C 	C 	0.9814	0.2547	0.8108	-0.142
Mof_H 	H 	0.9948	0.2553	0.7927	0.095
Mof_C 	C 	0.9291	0.2524	0.8205	-0.145
Mof_H 	H 	0.9057	0.2502	0.809	0.077
Mof_C 	C 	0.9476	0.2469	0.7924	0.076
Mof_C 	C 	0.9312	0.2351	0.7445	0.039
Mof_C 	C 	0.9017	0.1855	0.7281	-0.053
Mof_H 	H 	0.8919	0.1583	0.7473	0.048
Mof_C 	C 	0.8877	0.1775	0.6838	-0.053
Mof_H 	H 	0.8678	0.1443	0.6711	0.047
Mof_C 	C 	0.9035	0.2195	0.6575	0.039
Mof_C 	C 	0.8885	0.2188	0.6091	0.076
Mof_C 	C 	0.8905	0.2946	0.5852	-0.146
Mof_H 	H 	0.9028	0.3462	0.5995	0.084
Mof_C 	C 	0.8713	0.1448	0.586	-0.147
Mof_H 	H 	0.8695	0.0906	0.6011	0.078
Mof_C 	C 	0.8746	0.296	0.5399	0.094
Mof_H 	H 	0.8758	0.3501	0.5243	-0.007
Mof_C 	C 	0.8567	0.1497	0.5406	0.085
Mof_H 	H 	0.8455	0.0975	0.5253	-0.003
Mof_C 	C 	0.8312	0.7619	0.8579	0.093
Mof_H 	H 	0.8545	0.7678	0.87	0.005
Mof_C 	C 	0.7809	0.7594	0.8668	0.094
Mof_H 	H 	0.7681	0.7635	0.8857	-0.005
Mof_C 	C 	0.817	0.7528	0.8128	-0.142
Mof_H 	H 	0.8303	0.7515	0.7946	0.095
Mof_C 	C 	0.7645	0.7505	0.8228	-0.148
Mof_H 	H 	0.7412	0.7478	0.8117	0.078
Mof_C 	C 	0.7829	0.7455	0.7945	0.075
Mof_C 	C 	0.7658	0.7332	0.7465	0.042
Mof_C 	C 	0.7364	0.6871	0.7306	-0.055
Mof_H 	H 	0.7265	0.662	0.7502	0.048
Mof_C 	C 	0.7218	0.6781	0.6866	-0.051
Mof_H 	H 	0.7014	0.6469	0.6743	0.046
Mof_C 	C 	0.7383	0.7173	0.6598	0.037
Mof_C 	C 	0.7231	0.716	0.6115	0.077
Mof_C 	C 	0.7276	0.7882	0.5871	-0.146
Mof_H 	H 	0.7418	0.8372	0.6009	0.085
Mof_C 	C 	0.7039	0.6445	0.5887	-0.147
Mof_H 	H 	0.7009	0.5916	0.604	0.077
Mof_C 	C 	0.7115	0.7894	0.5424	0.092
Mof_H 	H 	0.7145	0.8414	0.5266	-0.005
Mof_C 	C 	0.6891	0.6503	0.5441	0.082
Mof_H 	H 	0.6761	0.6002	0.5292	-0.002
Mof_N 	N 	0.9699	0.1705	0.9559	-0.202
Mof_N 	N 	0.02997	0.1757	0.9447	-0.207
Mof_N 	N 	0.02858	0.3666	0.9451	-0.205
Mof_N 	N 	0.96609	0.3616	0.9511	-0.201
Mof_N 	N 	0.86647	0.6744	0.9464	-0.202
Mof_N 	N 	0.80655	0.6717	0.9583	-0.207
Mof_N 	N 	0.80297	0.8598	0.9533	-0.206
Mof_N 	N 	0.8654	0.8674	0.9463	-0.2
Mof_N 	N 	0.97776	0.2642	0.883	-0.205
Mof_N 	N 	0.9458	0.2702	0.718	-0.084
Mof_N 	N 	0.9314	0.2638	0.6739	-0.085
Mof_N 	N 	0.85782	0.2258	0.5177	-0.204
Mof_N 	N 	0.81384	0.7629	0.8853	-0.204
Mof_N 	N 	0.781	0.7666	0.7202	-0.085
Mof_N 	N 	0.7667	0.7597	0.6762	-0.085
Mof_N 	N 	0.6921	0.7234	0.5199	-0.191
Mof_Fe	Fe	0.99889	0.26909	0.9491	0.759
Mof_Fe	Fe	0.83545	0.76869	0.95126	0.758
Mof_Au	Au	0.91883	0.01753	0.95547	0.033
Mof_Au	Au	0.91415	0.51292	0.94742	0.044
Mof_Au	Au	0.75361	0.5223	0.95653	0.038
Mof_C 	C 	0.4524	0.6137	0.9579	0.058
Mof_C 	C 	0.5464	0.618	0.9429	0.067
Mof_C 	C 	0.5477	0.9211	0.9471	0.058
Mof_C 	C 	0.4465	0.9155	0.9494	0.053
Mof_C 	C 	0.3832	0.1151	0.9447	0.061
Mof_C 	C 	0.2886	0.1184	0.9605	0.064
Mof_C 	C 	0.283	0.4117	0.9513	0.056
Mof_C 	C 	0.3845	0.4228	0.9489	0.056
Mof_C 	C 	0.4955	0.7618	0.8563	0.094
Mof_H 	H 	0.5187	0.7649	0.8687	0.004
Mof_C 	C 	0.445	0.7609	0.8649	0.093
Mof_H 	H 	0.4321	0.7647	0.8836	-0.005
Mof_C 	C 	0.4814	0.7547	0.8108	-0.143
Mof_H 	H 	0.4948	0.7553	0.7927	0.095
Mof_C 	C 	0.4291	0.7524	0.8205	-0.146
Mof_H 	H 	0.4057	0.7502	0.809	0.077
Mof_C 	C 	0.4476	0.7469	0.7924	0.076
Mof_C 	C 	0.4312	0.7351	0.7445	0.039
Mof_C 	C 	0.4017	0.6855	0.7281	-0.053
Mof_H 	H 	0.3919	0.6583	0.7473	0.048
Mof_C 	C 	0.3877	0.6775	0.6838	-0.053
Mof_H 	H 	0.3678	0.6443	0.6711	0.047
Mof_C 	C 	0.4035	0.7195	0.6575	0.039
Mof_C 	C 	0.3885	0.7188	0.6091	0.076
Mof_C 	C 	0.3905	0.7946	0.5852	-0.146
Mof_H 	H 	0.4028	0.8462	0.5995	0.084
Mof_C 	C 	0.3713	0.6448	0.586	-0.147
Mof_H 	H 	0.3695	0.5906	0.6011	0.078
Mof_C 	C 	0.3746	0.796	0.5399	0.094
Mof_H 	H 	0.3758	0.8501	0.5243	-0.007
Mof_C 	C 	0.3567	0.6497	0.5406	0.085
Mof_H 	H 	0.3455	0.5975	0.5253	-0.003
Mof_C 	C 	0.3312	0.2619	0.8579	0.093
Mof_H 	H 	0.3545	0.2678	0.87	0.005
Mof_C 	C 	0.2809	0.2594	0.8668	0.094
Mof_H 	H 	0.2681	0.2635	0.8857	-0.005
Mof_C 	C 	0.317	0.2528	0.8128	-0.142
Mof_H 	H 	0.3303	0.2515	0.7946	0.095
Mof_C 	C 	0.2645	0.2505	0.8228	-0.148
Mof_H 	H 	0.2412	0.2478	0.8117	0.078
Mof_C 	C 	0.2829	0.2455	0.7945	0.075
Mof_C 	C 	0.2658	0.2332	0.7465	0.042
Mof_C 	C 	0.2364	0.1871	0.7306	-0.055
Mof_H 	H 	0.2265	0.162	0.7502	0.048
Mof_C 	C 	0.2218	0.1781	0.6866	-0.051
Mof_H 	H 	0.2014	0.1469	0.6743	0.046
Mof_C 	C 	0.2383	0.2173	0.6598	0.037
Mof_C 	C 	0.2231	0.216	0.6115	0.077
Mof_C 	C 	0.2276	0.2882	0.5871	-0.146
Mof_H 	H 	0.2418	0.3372	0.6009	0.085
Mof_C 	C 	0.2039	0.1445	0.5887	-0.147
Mof_H 	H 	0.2009	0.0916	0.604	0.077
Mof_C 	C 	0.2115	0.2894	0.5424	0.092
Mof_H 	H 	0.2145	0.3414	0.5266	-0.005
Mof_C 	C 	0.1891	0.1503	0.5441	0.082
Mof_H 	H 	0.1761	0.1002	0.5292	-0.002
Mof_N 	N 	0.4699	0.6705	0.9559	-0.202
Mof_N 	N 	0.52997	0.6757	0.9447	-0.207
Mof_N 	N 	0.52858	0.8666	0.9451	-0.205
Mof_N 	N 	0.46609	0.8616	0.9511	-0.201
Mof_N 	N 	0.36647	0.1744	0.9464	-0.202
Mof_N 	N 	0.30655	0.1717	0.9583	-0.207
Mof_N 	N 	0.30297	0.3598	0.9533	-0.206
Mof_N 	N 	0.3654	0.3674	0.9463	-0.2
Mof_N 	N 	0.47776	0.7642	0.883	-0.205
Mof_N 	N 	0.4458	0.7702	0.718	-0.084
Mof_N 	N 	0.4314	0.7638	0.6739	-0.085
Mof_N 	N 	0.35782	0.7258	0.5177	-0.204
Mof_N 	N 	0.31384	0.2629	0.8853	-0.204
Mof_N 	N 	0.281	0.2666	0.7202	-0.085
Mof_N 	N 	0.2667	0.2597	0.6762	-0.085
Mof_N 	N 	0.1921	0.2234	0.5199	-0.191
Mof_Fe	Fe	0.49889	0.76909	0.9491	0.759
Mof_Fe	Fe	0.33545	0.26869	0.95126	0.758
Mof_Au	Au	0.41883	0.51753	0.95547	0.034
Mof_Au	Au	0.41415	0.01292	0.94743	0.043
Mof_Au	Au	0.25361	0.0223	0.95653	0.038
Mof_C 	C 	0.1113	0.0787	0.4509	0.036
Mof_C 	C 	0.1172	0.3931	0.459	0.041
Mof_C 	C 	0.2178	0.393	0.4437	0.044
Mof_C 	C 	0.2194	0.0681	0.4479	0.038
Mof_C 	C 	0.1112	0.2386	0.3623	0.094
Mof_H 	H 	0.0983	0.2334	0.381	-0.004
Mof_C 	C 	0.161	0.2407	0.3529	0.092
Mof_H 	H 	0.1844	0.2379	0.3651	0.006
Mof_C 	C 	0.0952	0.2484	0.3182	-0.149
Mof_H 	H 	0.0719	0.2507	0.3069	0.079
Mof_C 	C 	0.1472	0.2493	0.308	-0.144
Mof_H 	H 	0.1607	0.2514	0.29	0.096
Mof_C 	C 	0.1134	0.2548	0.2899	0.08
Mof_C 	C 	0.0962	0.2682	0.2422	0.037
Mof_C 	C 	0.0671	0.3168	0.2262	-0.052
Mof_H 	H 	0.0574	0.3439	0.2456	0.047
Mof_C 	C 	0.0527	0.325	0.182	-0.053
Mof_H 	H 	0.0329	0.3586	0.1698	0.047
Mof_C 	C 	0.068	0.2825	0.155	0.038
Mof_C 	C 	0.0529	0.2822	0.1066	0.076
Mof_C 	C 	0.0357	0.3566	0.0839	-0.149
Mof_H 	H 	0.0341	0.4111	0.099	0.077
Mof_C 	C 	0.0543	0.2044	0.0826	-0.148
Mof_H 	H 	0.0664	0.1524	0.0967	0.084
Mof_C 	C 	0.021	0.351	0.039	0.084
Mof_H 	H 	0.0101	0.4036	0.0238	-0.003
Mof_C 	C 	0.0375	0.2043	0.0378	0.098
Mof_H 	H 	0.0379	0.1495	0.0222	-0.008
Mof_N 	N 	0.1319	0.1335	0.4524	-0.179
Mof_N 	N 	0.1362	0.3354	0.4587	-0.178
Mof_N 	N 	0.2002	0.3315	0.4439	-0.179
Mof_N 	N 	0.1991	0.1242	0.4443	-0.176
Mof_N 	N 	0.14382	0.236	0.3804	-0.192
Mof_N 	N 	0.1109	0.2313	0.2155	-0.083
Mof_N 	N 	0.0962	0.2387	0.1716	-0.085
Mof_N 	N 	0.0212	0.2742	0.0152	-0.205
Mof_Fe	Fe	0.16724	0.23086	0.45015	0.674
Mof_Au	Au	0.07886	0.98419	0.44693	0.048
Mof_Au	Au	0.08328	0.48432	0.45543	0.039
Mof_Au	Au	0.24909	0.49112	0.44777	0.049
Mof_C 	C 	0.6113	0.5787	0.4509	0.036
Mof_C 	C 	0.6172	0.8931	0.459	0.041
Mof_C 	C 	0.7178	0.893	0.4437	0.044
Mof_C 	C 	0.7194	0.5681	0.4479	0.038
Mof_C 	C 	0.6112	0.7386	0.3623	0.094
Mof_H 	H 	0.5983	0.7334	0.381	-0.004
Mof_C 	C 	0.661	0.7407	0.3529	0.092
Mof_H 	H 	0.6844	0.7379	0.3651	0.006
Mof_C 	C 	0.5952	0.7484	0.3182	-0.149
Mof_H 	H 	0.5719	0.7507	0.3069	0.079
Mof_C 	C 	0.6472	0.7493	0.308	-0.144
Mof_H 	H 	0.6607	0.7514	0.29	0.096
Mof_C 	C 	0.6134	0.7548	0.2899	0.08
Mof_C 	C 	0.5962	0.7682	0.2422	0.037
Mof_C 	C 	0.5671	0.8168	0.2262	-0.052
Mof_H 	H 	0.5574	0.8439	0.2456	0.047
Mof_C 	C 	0.5527	0.825	0.182	-0.053
Mof_H 	H 	0.5329	0.8586	0.1698	0.047
Mof_C 	C 	0.568	0.7825	0.155	0.038
Mof_C 	C 	0.5529	0.7822	0.1066	0.076
Mof_C 	C 	0.5357	0.8566	0.0839	-0.149
Mof_H 	H 	0.5341	0.9111	0.099	0.077
Mof_C 	C 	0.5543	0.7044	0.0826	-0.148
Mof_H 	H 	0.5664	0.6524	0.0967	0.084
Mof_C 	C 	0.521	0.851	0.039	0.084
Mof_H 	H 	0.5101	0.9036	0.0238	-0.003
Mof_C 	C 	0.5375	0.7043	0.0378	0.098
Mof_H 	H 	0.5379	0.6495	0.0222	-0.008
Mof_N 	N 	0.6319	0.6335	0.4524	-0.179
Mof_N 	N 	0.6362	0.8354	0.4587	-0.178
Mof_N 	N 	0.7002	0.8315	0.4439	-0.179
Mof_N 	N 	0.6991	0.6242	0.4443	-0.176
Mof_N 	N 	0.64382	0.736	0.3804	-0.192
Mof_N 	N 	0.6109	0.7313	0.2155	-0.083
Mof_N 	N 	0.5962	0.7387	0.1716	-0.085
Mof_N 	N 	0.5212	0.7742	0.0152	-0.205
Mof_Fe	Fe	0.66724	0.73086	0.45015	0.674
Mof_Au	Au	0.57886	0.48419	0.44693	0.048
Mof_Au	Au	0.58328	0.98432	0.45543	0.039
Mof_Au	Au	0.74909	0.99112	0.44777	0.049
_end
