data_functionalizedCrystal
_audit_creation_method	'EQeq! by Chris Wilmer'
_symmetry_space_group_name_H-M	'P1'
_symmetry_Int_Tables_number	1
_symmetry_cell_setting	triclinic
loop_
_symmetry_equiv_pos_as_xyz
  x,y,z
_cell_length_a	14.8357
_cell_length_b	14.8357
_cell_length_c	6.7854
_cell_angle_alpha	90
_cell_angle_beta	90
_cell_angle_gamma	90
loop_
_atom_site_label
_atom_site_type_symbol
_atom_site_fract_x
_atom_site_fract_y
_atom_site_fract_z
_atom_site_charge
Mof_C 	C 	0.3183	0.7932	0.249	0.305
Mof_C 	C 	0.2528	0.8583	0.2541	0.272
Mof_F 	F 	0.4044	0.8201	0.2524	-0.353
Mof_F 	F 	0.2783	0.946	0.2534	-0.364
Mof_O 	O 	0.4263	0.6333	0.114	-0.45
Mof_O 	O 	0.0434	0.9197	0.0991	-0.581
Mof_O 	O 	0.6149	0.6924	0.987	-0.409
Mof_H 	H 	0.672	0.6872	0.9886	0.391
Mof_H 	H 	0.5979	0.7215	0.0885	0.282
Mof_O 	O 	0.6613	0.646	0.945	-0.329
Mof_H 	H 	0.6829	0.6655	0.0527	-0.239
Mof_H 	H 	0.7034	0.6233	0.8757	0.052
Mof_C 	C 	0.6817	0.2068	0.749	0.312
Mof_C 	C 	0.7472	0.1417	0.7541	0.28
Mof_F 	F 	0.5956	0.1799	0.7524	-0.334
Mof_F 	F 	0.7217	0.054	0.7534	-0.347
Mof_O 	O 	0.5737	0.3667	0.614	-0.439
Mof_O 	O 	0.9566	0.0803	0.5991	-0.543
Mof_O 	O 	0.3851	0.3076	0.487	-0.463
Mof_H 	H 	0.328	0.3128	0.4886	0.398
Mof_H 	H 	0.4021	0.2785	0.5885	0.312
Mof_O 	O 	0.3387	0.354	0.445	-0.204
Mof_H 	H 	0.3171	0.3345	0.5527	-0.123
Mof_H 	H 	0.2966	0.3767	0.3757	-0.018
Mof_C 	C 	0.7068	0.8183	0.499	0.309
Mof_C 	C 	0.6417	0.7528	0.5041	0.275
Mof_F 	F 	0.6799	0.9044	0.5024	-0.347
Mof_F 	F 	0.554	0.7783	0.5034	-0.352
Mof_O 	O 	0.8667	0.9263	0.364	-0.445
Mof_O 	O 	0.5803	0.5434	0.3491	-0.541
Mof_O 	O 	0.8076	0.1149	0.237	-0.452
Mof_H 	H 	0.8128	0.172	0.2386	0.391
Mof_H 	H 	0.7785	0.0979	0.3385	0.283
Mof_O 	O 	0.854	0.1613	0.195	-0.216
Mof_H 	H 	0.8345	0.1829	0.3027	-0.119
Mof_H 	H 	0.8767	0.2034	0.1257	-0.019
Mof_C 	C 	0.2932	0.1817	0.999	0.5
Mof_C 	C 	0.3583	0.2472	0.0041	0.177
Mof_F 	F 	0.3201	0.0956	0.0024	-0.42
Mof_F 	F 	0.446	0.2217	0.0034	-0.364
Mof_O 	O 	0.1333	0.0737	0.864	-0.381
Mof_O 	O 	0.4197	0.4566	0.8491	-0.471
Mof_O 	O 	0.1924	0.8851	0.737	-0.467
Mof_H 	H 	0.1872	0.828	0.7386	0.399
Mof_H 	H 	0.2215	0.9021	0.8385	0.322
Mof_O 	O 	0.146	0.8387	0.695	-0.196
Mof_H 	H 	0.1655	0.8171	0.8027	-0.122
Mof_H 	H 	0.1233	0.7966	0.6257	-0.026
Mof_C 	C 	0.1817	0.2932	0.001	0.181
Mof_C 	C 	0.2472	0.3583	0.9959	0.419
Mof_F 	F 	0.0956	0.3201	0.9976	-0.282
Mof_F 	F 	0.2217	0.446	0.9966	-0.353
Mof_O 	O 	0.0737	0.1333	0.136	-0.435
Mof_O 	O 	0.4566	0.4197	0.1509	-0.532
Mof_O 	O 	0.8851	0.1924	0.263	-0.437
Mof_H 	H 	0.828	0.1872	0.2614	0.395
Mof_H 	H 	0.9021	0.2215	0.1615	0.289
Mof_O 	O 	0.8387	0.146	0.305	-0.22
Mof_H 	H 	0.8171	0.1655	0.1973	-0.12
Mof_H 	H 	0.7966	0.1233	0.3743	0.012
Mof_C 	C 	0.8183	0.7068	0.501	0.309
Mof_C 	C 	0.7528	0.6417	0.4959	0.272
Mof_F 	F 	0.9044	0.6799	0.4976	-0.348
Mof_F 	F 	0.7783	0.554	0.4966	-0.36
Mof_O 	O 	0.9263	0.8667	0.636	-0.434
Mof_O 	O 	0.5434	0.5803	0.6509	-0.52
Mof_O 	O 	0.1149	0.8076	0.763	-0.453
Mof_H 	H 	0.172	0.8128	0.7614	0.403
Mof_H 	H 	0.0979	0.7785	0.6615	0.326
Mof_O 	O 	0.1613	0.854	0.805	-0.2
Mof_H 	H 	0.1829	0.8345	0.6973	-0.122
Mof_H 	H 	0.2034	0.8767	0.8743	0
Mof_C 	C 	0.7932	0.3183	0.751	0.311
Mof_C 	C 	0.8583	0.2528	0.7459	0.28
Mof_F 	F 	0.8201	0.4044	0.7476	-0.341
Mof_F 	F 	0.946	0.2783	0.7466	-0.349
Mof_O 	O 	0.6333	0.4263	0.886	-0.397
Mof_O 	O 	0.9197	0.0434	0.9009	-0.509
Mof_O 	O 	0.6924	0.6149	0.013	-0.454
Mof_H 	H 	0.6872	0.672	0.0114	0.393
Mof_H 	H 	0.7215	0.5979	0.9115	0.311
Mof_O 	O 	0.646	0.6613	0.055	-0.087
Mof_H 	H 	0.6655	0.6829	0.9473	-0.002
Mof_H 	H 	0.6233	0.7034	0.1243	-0.052
Mof_C 	C 	0.2068	0.6817	0.251	0.304
Mof_C 	C 	0.1417	0.7472	0.2459	0.272
Mof_F 	F 	0.1799	0.5956	0.2476	-0.36
Mof_F 	F 	0.054	0.7217	0.2466	-0.369
Mof_O 	O 	0.3667	0.5737	0.386	-0.441
Mof_O 	O 	0.0803	0.9566	0.4009	-0.553
Mof_O 	O 	0.3076	0.3851	0.513	-0.45
Mof_H 	H 	0.3128	0.328	0.5114	0.397
Mof_H 	H 	0.2785	0.4021	0.4115	0.307
Mof_O 	O 	0.354	0.3387	0.555	-0.203
Mof_H 	H 	0.3345	0.3171	0.4473	-0.119
Mof_H 	H 	0.3767	0.2966	0.6243	0.001
Mof_C 	C 	0.3683	0.6317	0.25	0.555
Mof_C 	C 	0.2966	0.7034	0.25	-0.262
Mof_C 	C 	0.0898	0.9102	0.25	0.583
Mof_C 	C 	0.1612	0.8388	0.25	-0.271
Mof_C 	C 	0.6317	0.3683	0.75	0.553
Mof_C 	C 	0.7034	0.2966	0.75	-0.249
Mof_C 	C 	0.9102	0.0898	0.75	0.569
Mof_C 	C 	0.8388	0.1612	0.75	-0.247
Mof_C 	C 	0.8683	0.8683	0.5	0.558
Mof_C 	C 	0.7966	0.7966	0.5	-0.259
Mof_C 	C 	0.5898	0.5898	0.5	0.564
Mof_C 	C 	0.6612	0.6612	0.5	-0.252
Mof_C 	C 	0.1317	0.1317	-0	0.493
Mof_C 	C 	0.2034	0.2034	-0	-0.318
Mof_C 	C 	0.4102	0.4102	-0	0.5
Mof_C 	C 	0.3388	0.3388	-0	-0.31
Mof_Ca	Ca	0.54852	0.54852	-0	1.65
Mof_Ca	Ca	0.45148	0.45148	0.5	1.79
Mof_Ca	Ca	0.95148	0.04852	0.25	1.728
Mof_Ca	Ca	0.04852	0.95148	0.75	1.819
_end
