data_functionalizedCrystal
_audit_creation_method	'EQeq! by Chris Wilmer'
_symmetry_space_group_name_H-M	'P1'
_symmetry_Int_Tables_number	1
_symmetry_cell_setting	triclinic
loop_
_symmetry_equiv_pos_as_xyz
  x,y,z
_cell_length_a	9.1794
_cell_length_b	9.46
_cell_length_c	11.1538
_cell_angle_alpha	90.726
_cell_angle_beta	100.252
_cell_angle_gamma	105.265
loop_
_atom_site_label
_atom_site_type_symbol
_atom_site_fract_x
_atom_site_fract_y
_atom_site_fract_z
_atom_site_charge
Mof_C 	C 	0.0761	0.7643	0.3034	0.271
Mof_C 	C 	0.1338	0.8625	0.4176	0.019
Mof_C 	C 	0.1479	0.8048	0.5301	-0.072
Mof_H 	H 	0.126	0.7036	0.5352	0.082
Mof_C 	C 	0.1945	0.8961	0.6368	0.023
Mof_C 	C 	0.2286	0.0471	0.6288	-0.184
Mof_H 	H 	0.2594	0.1092	0.6992	0.122
Mof_C 	C 	0.2163	0.1046	0.5153	0.238
Mof_C 	C 	0.1675	0.0143	0.4099	-0.175
Mof_H 	H 	0.1572	0.0543	0.3341	0.127
Mof_C 	C 	0.1993	0.8309	0.7594	0.284
Mof_C 	C 	0.3537	0.3536	0.5791	0.293
Mof_C 	C 	0.326	0.4855	0.6033	-0.253
Mof_H 	H 	0.2314	0.5017	0.5714	0.148
Mof_C 	C 	0.44	0.5944	0.6755	0.118
Mof_H 	H 	0.422	0.6846	0.6905	0.011
Mof_C 	C 	0.5794	0.5713	0.7253	-0.115
Mof_C 	C 	0.6041	0.4372	0.699	0.121
Mof_H 	H 	0.6979	0.4198	0.7315	0.003
Mof_C 	C 	0.4919	0.3281	0.6252	-0.265
Mof_H 	H 	0.5105	0.2388	0.6073	0.134
Mof_C 	C 	0.6978	0.6869	0.804	0.158
Mof_Cd	Cd	0.16276	0.86615	0.03213	0.429
Mof_Cd	Cd	0.99696	0.47709	0.15004	0.45
Mof_N 	N 	0.6724	0.8115	0.8424	-0.099
Mof_N 	N 	0.8067	0.8872	0.9112	-0.065
Mof_N 	N 	0.9077	0.8117	0.9152	-0.064
Mof_N 	N 	0.8424	0.6844	0.8473	-0.118
Mof_O 	O 	0.0406	0.8205	0.2039	-0.265
Mof_O 	O 	0.0626	0.6291	0.314	-0.275
Mof_O 	O 	0.1556	0.6939	0.758	-0.276
Mof_O 	O 	0.2464	0.9177	0.8535	-0.267
Mof_O 	O 	0.2374	0.2536	0.5	-0.287
Mof_O 	O 	0.1416	0.6251	0.0313	-0.251
Mof_C 	C 	0.9239	0.2357	0.6966	0.271
Mof_C 	C 	0.8662	0.1375	0.5824	0.019
Mof_C 	C 	0.8521	0.1952	0.4699	-0.072
Mof_H 	H 	0.874	0.2964	0.4648	0.082
Mof_C 	C 	0.8055	0.1039	0.3632	0.023
Mof_C 	C 	0.7714	0.9529	0.3712	-0.184
Mof_H 	H 	0.7406	0.8908	0.3008	0.122
Mof_C 	C 	0.7837	0.8954	0.4847	0.238
Mof_C 	C 	0.8325	0.9857	0.5901	-0.175
Mof_H 	H 	0.8428	0.9457	0.6659	0.127
Mof_C 	C 	0.8007	0.1691	0.2406	0.284
Mof_C 	C 	0.6463	0.6464	0.4209	0.293
Mof_C 	C 	0.674	0.5145	0.3967	-0.253
Mof_H 	H 	0.7686	0.4983	0.4286	0.148
Mof_C 	C 	0.56	0.4056	0.3245	0.118
Mof_H 	H 	0.578	0.3154	0.3095	0.011
Mof_C 	C 	0.4206	0.4287	0.2747	-0.115
Mof_C 	C 	0.3959	0.5628	0.301	0.121
Mof_H 	H 	0.3021	0.5802	0.2685	0.003
Mof_C 	C 	0.5081	0.6719	0.3748	-0.265
Mof_H 	H 	0.4895	0.7612	0.3927	0.134
Mof_C 	C 	0.3022	0.3131	0.196	0.158
Mof_Cd	Cd	0.83724	0.13385	0.96787	0.429
Mof_Cd	Cd	0.00304	0.52291	0.84996	0.45
Mof_N 	N 	0.3276	0.1885	0.1576	-0.099
Mof_N 	N 	0.1933	0.1128	0.0888	-0.065
Mof_N 	N 	0.0923	0.1883	0.0848	-0.064
Mof_N 	N 	0.1576	0.3156	0.1527	-0.118
Mof_O 	O 	0.9594	0.1795	0.7961	-0.265
Mof_O 	O 	0.9374	0.3709	0.686	-0.275
Mof_O 	O 	0.8444	0.3061	0.242	-0.276
Mof_O 	O 	0.7536	0.0823	0.1465	-0.267
Mof_O 	O 	0.7626	0.7464	0.5	-0.287
Mof_O 	O 	0.8584	0.3749	0.9687	-0.251
_end
