data_functionalizedCrystal
_audit_creation_method	'EQeq! by Chris Wilmer'
_symmetry_space_group_name_H-M	'P1'
_symmetry_Int_Tables_number	1
_symmetry_cell_setting	triclinic
loop_
_symmetry_equiv_pos_as_xyz
  x,y,z
_cell_length_a	7.4267
_cell_length_b	12.9082
_cell_length_c	12.9082
_cell_angle_alpha	92.1451
_cell_angle_beta	94.5344
_cell_angle_gamma	85.4656
loop_
_atom_site_label
_atom_site_type_symbol
_atom_site_fract_x
_atom_site_fract_y
_atom_site_fract_z
_atom_site_charge
Mof_Zn	Zn	0.72233	0.38986	0.787	1.205
Mof_Zn	Zn	0.27767	0.787	0.38986	1.191
Mof_Zn	Zn	0.27767	0.61014	0.213	1.191
Mof_Zn	Zn	0.72233	0.213	0.61014	1.205
Mof_Zn	Zn	0.5	0.84553	0.84553	1.184
Mof_Zn	Zn	0.5	0.15447	0.15447	1.184
Mof_Zn	Zn	3.6131e-18	0.82075	0.82075	1.136
Mof_Zn	Zn	-3.52277e-18	0.17925	0.17925	1.136
Mof_H 	H 	0.0582	0.504	0.7312	0.1
Mof_H 	H 	0.1157	0.6084	0.7366	0.089
Mof_H 	H 	0.9384	0.7382	0.1306	0.157
Mof_H 	H 	0.8685	0.7888	0.0366	0.145
Mof_H 	H 	0.5029	0.5935	0.8359	-0.04
Mof_H 	H 	0.5131	0.6922	0.045	-0.022
Mof_H 	H 	0.9418	0.7312	0.504	0.147
Mof_H 	H 	0.8843	0.7366	0.6084	0.116
Mof_H 	H 	0.0616	0.1306	0.7382	0.116
Mof_H 	H 	0.1315	0.0366	0.7888	0.123
Mof_H 	H 	0.4971	0.8359	0.5935	-0.035
Mof_H 	H 	0.4869	0.045	0.6922	-0.025
Mof_H 	H 	0.9418	0.496	0.2688	0.147
Mof_H 	H 	0.8843	0.3916	0.2634	0.116
Mof_H 	H 	0.0616	0.2618	0.8694	0.116
Mof_H 	H 	0.1315	0.2112	0.9634	0.123
Mof_H 	H 	0.4971	0.4065	0.1641	-0.035
Mof_H 	H 	0.4869	0.3078	0.955	-0.025
Mof_H 	H 	0.0582	0.2688	0.496	0.1
Mof_H 	H 	0.1157	0.2634	0.3916	0.089
Mof_H 	H 	0.9384	0.8694	0.2618	0.157
Mof_H 	H 	0.8685	0.9634	0.2112	0.145
Mof_H 	H 	0.5029	0.1641	0.4065	-0.04
Mof_H 	H 	0.5131	0.955	0.3078	-0.022
Mof_H 	H 	0.896	0.3547	0.6453	0.296
Mof_H 	H 	0.104	0.6453	0.3547	0.246
Mof_C 	C 	0.6181	0.61127	0.82365	0.098
Mof_C 	C 	0.8924	0.59974	0.7891	0.249
Mof_C 	C 	0.3923	0.7136	0.02766	0.103
Mof_C 	C 	0.108	0.73909	0.03359	0.078
Mof_C 	C 	0.3819	0.82365	0.61127	0.095
Mof_C 	C 	0.1076	0.7891	0.59974	0.075
Mof_C 	C 	0.6077	0.02766	0.7136	0.098
Mof_C 	C 	0.892	0.03359	0.73909	0.248
Mof_C 	C 	0.3819	0.38873	0.17635	0.095
Mof_C 	C 	0.1076	0.40026	0.2109	0.075
Mof_C 	C 	0.6077	0.2864	0.97234	0.098
Mof_C 	C 	0.892	0.26091	0.96641	0.248
Mof_C 	C 	0.6181	0.17635	0.38873	0.098
Mof_C 	C 	0.8924	0.2109	0.40026	0.249
Mof_C 	C 	0.3923	0.97234	0.2864	0.103
Mof_C 	C 	0.108	0.96641	0.26091	0.078
Mof_C 	C 	0.5902	0.97403	0.02597	0.238
Mof_C 	C 	0.4098	0.02597	0.97403	0.208
Mof_S 	S 	0.35188	0.31489	0.68511	0.726
Mof_S 	S 	0.64812	0.68511	0.31489	0.718
Mof_N 	N 	0.663	0.70691	0.82481	-0.242
Mof_N 	N 	0.8429	0.70033	0.80161	-0.261
Mof_N 	N 	0.756	0.54016	0.80288	-0.309
Mof_N 	N 	0.064	0.56165	0.77005	-0.344
Mof_N 	N 	0.3377	0.76565	0.94479	-0.233
Mof_N 	N 	0.1505	0.78357	0.94843	-0.286
Mof_N 	N 	0.2563	0.69393	0.08557	-0.302
Mof_N 	N 	0.9366	0.73532	0.06216	-0.264
Mof_N 	N 	0.337	0.82481	0.70691	-0.246
Mof_N 	N 	0.1571	0.80161	0.70033	-0.278
Mof_N 	N 	0.244	0.80288	0.54016	-0.305
Mof_N 	N 	0.936	0.77005	0.56165	-0.253
Mof_N 	N 	0.6623	0.94479	0.76565	-0.224
Mof_N 	N 	0.8495	0.94843	0.78357	-0.262
Mof_N 	N 	0.7437	0.08557	0.69393	-0.307
Mof_N 	N 	0.0634	0.06216	0.73532	-0.36
Mof_N 	N 	0.337	0.29309	0.17519	-0.246
Mof_N 	N 	0.1571	0.29967	0.19839	-0.278
Mof_N 	N 	0.244	0.45984	0.19712	-0.305
Mof_N 	N 	0.936	0.43835	0.22995	-0.253
Mof_N 	N 	0.6623	0.23435	0.05521	-0.224
Mof_N 	N 	0.8495	0.21643	0.05157	-0.262
Mof_N 	N 	0.7437	0.30607	0.91443	-0.307
Mof_N 	N 	0.0634	0.26468	0.93784	-0.36
Mof_N 	N 	0.663	0.17519	0.29309	-0.242
Mof_N 	N 	0.8429	0.19839	0.29967	-0.261
Mof_N 	N 	0.756	0.19712	0.45984	-0.309
Mof_N 	N 	0.064	0.22995	0.43835	-0.344
Mof_N 	N 	0.3377	0.05521	0.23435	-0.233
Mof_N 	N 	0.1505	0.05157	0.21643	-0.286
Mof_N 	N 	0.2563	0.91443	0.30607	-0.302
Mof_N 	N 	0.9366	0.93784	0.26468	-0.264
Mof_O 	O 	0.4618	0.39453	0.74027	-0.525
Mof_O 	O 	0.6561	0.89261	0.98257	-0.415
Mof_O 	O 	0.5382	0.74027	0.39453	-0.522
Mof_O 	O 	0.3439	0.98257	0.89261	-0.423
Mof_O 	O 	0.5382	0.60547	0.25973	-0.522
Mof_O 	O 	0.3439	0.10739	0.01743	-0.423
Mof_O 	O 	0.4618	0.25973	0.60547	-0.525
Mof_O 	O 	0.6561	0.01743	0.10739	-0.415
Mof_O 	O 	0.192	0.36848	0.63152	-0.371
Mof_O 	O 	0.302	0.24176	0.75824	-0.35
Mof_O 	O 	0.8601	0.31291	0.68709	-0.778
Mof_O 	O 	0.808	0.63152	0.36848	-0.311
Mof_O 	O 	0.698	0.75824	0.24176	-0.329
Mof_O 	O 	0.1399	0.68709	0.31291	-0.833
_end
