data_functionalizedCrystal
_audit_creation_method	'EQeq! by Chris Wilmer'
_symmetry_space_group_name_H-M	'P1'
_symmetry_Int_Tables_number	1
_symmetry_cell_setting	triclinic
loop_
_symmetry_equiv_pos_as_xyz
  x,y,z
_cell_length_a	18.5068
_cell_length_b	11.426
_cell_length_c	19.0321
_cell_angle_alpha	90
_cell_angle_beta	108.341
_cell_angle_gamma	90
loop_
_atom_site_label
_atom_site_type_symbol
_atom_site_fract_x
_atom_site_fract_y
_atom_site_fract_z
_atom_site_charge
Mof_C 	C 	0.89777	0.8271	0.92695	0.58
Mof_C 	C 	0.83019	0.7527	0.88941	-0.25
Mof_C 	C 	0.79289	0.6977	0.93336	0.068
Mof_H 	H 	0.8139	0.7017	0.9846	-0.007
Mof_C 	C 	0.72576	0.6375	0.90325	-0.045
Mof_H 	H 	0.7013	0.6028	0.9338	0.011
Mof_C 	C 	0.69483	0.6292	0.82647	-0.111
Mof_C 	C 	0.7327	0.679	0.78204	-0.111
Mof_H 	H 	0.7128	0.6705	0.731	0.086
Mof_C 	C 	0.8002	0.7419	0.81188	0.204
Mof_C 	C 	0.61984	0.5689	0.79237	0.525
Mof_C 	C 	0.88263	0.156	0.96931	0.582
Mof_C 	C 	0.81452	0.2063	0.98521	-0.416
Mof_C 	C 	0.79106	0.1598	0.04168	-0.469
Mof_H 	H 	0.8191	0.0994	0.0703	0.206
Mof_N 	N 	0.8335	0.7893	0.76319	-0.34
Mof_H 	H 	0.815	0.793	0.7156	0.177
Mof_H 	H 	0.867	0.843	0.779	0.172
Mof_O 	O 	0.92463	0.8916	0.88782	-0.643
Mof_O 	O 	0.92323	0.8225	0.99635	-0.659
Mof_O 	O 	0.58927	0.52055	0.83596	-0.671
Mof_O 	O 	0.59184	0.5681	0.72395	-0.644
Mof_O 	O 	0.91949	0.07355	0.00797	-0.701
Mof_O 	O 	0.90051	0.1965	0.91595	-0.59
Mof_Ce	Ce	0.00045	0.06549	0.8985	2.666
Mof_C 	C 	0.72683	0.2009	0.05684	1.216
Mof_N 	N 	0.7067	0.143	0.1119	1.625
Mof_H 	H 	0.679	0.17	0.135	-0.347
Mof_H 	H 	0.718	0.072	0.125	-0.455
Mof_H 	H 	0.72	0.177	0.1	-1.652
Mof_C 	C 	0.39777	0.3271	0.92695	0.583
Mof_C 	C 	0.33019	0.2527	0.88941	-0.255
Mof_C 	C 	0.29289	0.1977	0.93336	0.068
Mof_H 	H 	0.3139	0.2017	0.9846	-0.013
Mof_C 	C 	0.22576	0.1375	0.90325	-0.048
Mof_H 	H 	0.2013	0.1028	0.9338	0.009
Mof_C 	C 	0.19483	0.1292	0.82647	-0.111
Mof_C 	C 	0.2327	0.179	0.78204	-0.112
Mof_H 	H 	0.2128	0.1705	0.731	0.086
Mof_C 	C 	0.3002	0.2419	0.81188	0.204
Mof_C 	C 	0.11984	0.0689	0.79237	0.524
Mof_C 	C 	0.38263	0.656	0.96931	0.586
Mof_C 	C 	0.31452	0.7063	0.98521	-0.417
Mof_C 	C 	0.29106	0.6598	0.04168	-0.468
Mof_H 	H 	0.3191	0.5994	0.0703	0.204
Mof_N 	N 	0.3335	0.2893	0.76319	-0.34
Mof_H 	H 	0.315	0.293	0.7156	0.176
Mof_H 	H 	0.367	0.343	0.779	0.171
Mof_O 	O 	0.42463	0.3916	0.88782	-0.654
Mof_O 	O 	0.42323	0.3225	0.99635	-0.672
Mof_O 	O 	0.08927	0.02055	0.83596	-0.67
Mof_O 	O 	0.09184	0.0681	0.72395	-0.647
Mof_O 	O 	0.41949	0.57355	0.00797	-0.708
Mof_O 	O 	0.40051	0.6965	0.91595	-0.595
Mof_Ce	Ce	0.50045	0.56549	0.8985	2.7
Mof_C 	C 	0.22683	0.7009	0.05684	1.215
Mof_N 	N 	0.2067	0.643	0.1119	1.626
Mof_H 	H 	0.179	0.67	0.135	-0.347
Mof_H 	H 	0.218	0.572	0.125	-0.456
Mof_H 	H 	0.22	0.677	0.1	-1.652
Mof_C 	C 	0.10223	0.8271	0.57305	0.584
Mof_C 	C 	0.16981	0.7527	0.61059	-0.254
Mof_C 	C 	0.20711	0.6977	0.56664	0.069
Mof_H 	H 	0.1861	0.7017	0.5154	-0.01
Mof_C 	C 	0.27424	0.6375	0.59675	-0.047
Mof_H 	H 	0.2987	0.6028	0.5662	0.011
Mof_C 	C 	0.30517	0.6292	0.67353	-0.11
Mof_C 	C 	0.2673	0.679	0.71796	-0.112
Mof_H 	H 	0.2872	0.6705	0.769	0.086
Mof_C 	C 	0.1998	0.7419	0.68812	0.205
Mof_C 	C 	0.38016	0.5689	0.70763	0.524
Mof_C 	C 	0.11737	0.156	0.53069	0.586
Mof_C 	C 	0.18548	0.2063	0.51479	-0.416
Mof_C 	C 	0.20894	0.1598	0.45832	-0.468
Mof_H 	H 	0.1809	0.0994	0.4297	0.204
Mof_N 	N 	0.1665	0.7893	0.73681	-0.34
Mof_H 	H 	0.185	0.793	0.7844	0.176
Mof_H 	H 	0.133	0.843	0.721	0.172
Mof_O 	O 	0.07537	0.8916	0.61218	-0.654
Mof_O 	O 	0.07677	0.8225	0.50365	-0.67
Mof_O 	O 	0.41073	0.52055	0.66404	-0.671
Mof_O 	O 	0.40816	0.5681	0.77605	-0.645
Mof_O 	O 	0.08051	0.07355	0.49203	-0.708
Mof_O 	O 	0.09949	0.1965	0.58405	-0.596
Mof_Ce	Ce	0.99955	0.06549	0.6015	2.711
Mof_C 	C 	0.27317	0.2009	0.44316	1.215
Mof_N 	N 	0.2933	0.143	0.3881	1.626
Mof_H 	H 	0.321	0.17	0.365	-0.348
Mof_H 	H 	0.282	0.072	0.375	-0.456
Mof_H 	H 	0.28	0.177	0.4	-1.653
Mof_C 	C 	0.60223	0.3271	0.57305	0.583
Mof_C 	C 	0.66981	0.2527	0.61059	-0.254
Mof_C 	C 	0.70711	0.1977	0.56664	0.068
Mof_H 	H 	0.6861	0.2017	0.5154	-0.01
Mof_C 	C 	0.77424	0.1375	0.59675	-0.047
Mof_H 	H 	0.7987	0.1028	0.5662	0.011
Mof_C 	C 	0.80517	0.1292	0.67353	-0.11
Mof_C 	C 	0.7673	0.179	0.71796	-0.113
Mof_H 	H 	0.7872	0.1705	0.769	0.086
Mof_C 	C 	0.6998	0.2419	0.68812	0.204
Mof_C 	C 	0.88016	0.0689	0.70763	0.523
Mof_C 	C 	0.61737	0.656	0.53069	0.585
Mof_C 	C 	0.68548	0.7063	0.51479	-0.417
Mof_C 	C 	0.70894	0.6598	0.45832	-0.468
Mof_H 	H 	0.6809	0.5994	0.4297	0.204
Mof_N 	N 	0.6665	0.2893	0.73681	-0.34
Mof_H 	H 	0.685	0.293	0.7844	0.176
Mof_H 	H 	0.633	0.343	0.721	0.171
Mof_O 	O 	0.57537	0.3916	0.61218	-0.653
Mof_O 	O 	0.57677	0.3225	0.50365	-0.669
Mof_O 	O 	0.91073	0.02055	0.66404	-0.671
Mof_O 	O 	0.90816	0.0681	0.77605	-0.64
Mof_O 	O 	0.58051	0.57355	0.49203	-0.707
Mof_O 	O 	0.59949	0.6965	0.58405	-0.595
Mof_Ce	Ce	0.49955	0.56549	0.6015	2.696
Mof_C 	C 	0.77317	0.7009	0.44316	1.214
Mof_N 	N 	0.7933	0.643	0.3881	1.625
Mof_H 	H 	0.821	0.67	0.365	-0.348
Mof_H 	H 	0.782	0.572	0.375	-0.456
Mof_H 	H 	0.78	0.677	0.4	-1.651
Mof_C 	C 	0.10223	0.1729	0.07305	0.579
Mof_C 	C 	0.16981	0.2473	0.11059	-0.251
Mof_C 	C 	0.20711	0.3023	0.06664	0.067
Mof_H 	H 	0.1861	0.2983	0.0154	-0.008
Mof_C 	C 	0.27424	0.3625	0.09675	-0.045
Mof_H 	H 	0.2987	0.3972	0.0662	0.011
Mof_C 	C 	0.30517	0.3708	0.17353	-0.111
Mof_C 	C 	0.2673	0.321	0.21796	-0.111
Mof_H 	H 	0.2872	0.3295	0.269	0.086
Mof_C 	C 	0.1998	0.2581	0.18812	0.204
Mof_C 	C 	0.38016	0.4311	0.20763	0.525
Mof_C 	C 	0.11737	0.844	0.03069	0.582
Mof_C 	C 	0.18548	0.7937	0.01479	-0.416
Mof_C 	C 	0.20894	0.8402	0.95832	-0.469
Mof_H 	H 	0.1809	0.9006	0.9297	0.206
Mof_N 	N 	0.1665	0.2107	0.23681	-0.34
Mof_H 	H 	0.185	0.207	0.2844	0.177
Mof_H 	H 	0.133	0.157	0.221	0.172
Mof_O 	O 	0.07537	0.1084	0.11218	-0.643
Mof_O 	O 	0.07677	0.1775	0.00365	-0.659
Mof_O 	O 	0.41073	0.47945	0.16404	-0.671
Mof_O 	O 	0.40816	0.4319	0.27605	-0.644
Mof_O 	O 	0.08051	0.92645	0.99203	-0.701
Mof_O 	O 	0.09949	0.8035	0.08405	-0.59
Mof_Ce	Ce	0.99955	0.93451	0.1015	2.666
Mof_C 	C 	0.27317	0.7991	0.94316	1.216
Mof_N 	N 	0.2933	0.857	0.8881	1.625
Mof_H 	H 	0.321	0.83	0.865	-0.347
Mof_H 	H 	0.282	0.928	0.875	-0.455
Mof_H 	H 	0.28	0.823	0.9	-1.652
Mof_C 	C 	0.60223	0.6729	0.07305	0.583
Mof_C 	C 	0.66981	0.7473	0.11059	-0.255
Mof_C 	C 	0.70711	0.8023	0.06664	0.068
Mof_H 	H 	0.6861	0.7983	0.0154	-0.013
Mof_C 	C 	0.77424	0.8625	0.09675	-0.048
Mof_H 	H 	0.7987	0.8972	0.0662	0.009
Mof_C 	C 	0.80517	0.8708	0.17353	-0.111
Mof_C 	C 	0.7673	0.821	0.21796	-0.112
Mof_H 	H 	0.7872	0.8295	0.269	0.086
Mof_C 	C 	0.6998	0.7581	0.18812	0.204
Mof_C 	C 	0.88016	0.9311	0.20763	0.524
Mof_C 	C 	0.61737	0.344	0.03069	0.586
Mof_C 	C 	0.68548	0.2937	0.01479	-0.417
Mof_C 	C 	0.70894	0.3402	0.95832	-0.468
Mof_H 	H 	0.6809	0.4006	0.9297	0.204
Mof_N 	N 	0.6665	0.7107	0.23681	-0.34
Mof_H 	H 	0.685	0.707	0.2844	0.176
Mof_H 	H 	0.633	0.657	0.221	0.171
Mof_O 	O 	0.57537	0.6084	0.11218	-0.654
Mof_O 	O 	0.57677	0.6775	0.00365	-0.672
Mof_O 	O 	0.91073	0.97945	0.16404	-0.67
Mof_O 	O 	0.90816	0.9319	0.27605	-0.647
Mof_O 	O 	0.58051	0.42645	0.99203	-0.708
Mof_O 	O 	0.59949	0.3035	0.08405	-0.595
Mof_Ce	Ce	0.49955	0.43451	0.1015	2.7
Mof_C 	C 	0.77317	0.2991	0.94316	1.215
Mof_N 	N 	0.7933	0.357	0.8881	1.626
Mof_H 	H 	0.821	0.33	0.865	-0.347
Mof_H 	H 	0.782	0.428	0.875	-0.456
Mof_H 	H 	0.78	0.323	0.9	-1.652
Mof_C 	C 	0.89777	0.1729	0.42695	0.584
Mof_C 	C 	0.83019	0.2473	0.38941	-0.254
Mof_C 	C 	0.79289	0.3023	0.43336	0.069
Mof_H 	H 	0.8139	0.2983	0.4846	-0.01
Mof_C 	C 	0.72576	0.3625	0.40325	-0.047
Mof_H 	H 	0.7013	0.3972	0.4338	0.011
Mof_C 	C 	0.69483	0.3708	0.32647	-0.11
Mof_C 	C 	0.7327	0.321	0.28204	-0.112
Mof_H 	H 	0.7128	0.3295	0.231	0.086
Mof_C 	C 	0.8002	0.2581	0.31188	0.205
Mof_C 	C 	0.61984	0.4311	0.29237	0.524
Mof_C 	C 	0.88263	0.844	0.46931	0.586
Mof_C 	C 	0.81452	0.7937	0.48521	-0.416
Mof_C 	C 	0.79106	0.8402	0.54168	-0.468
Mof_H 	H 	0.8191	0.9006	0.5703	0.204
Mof_N 	N 	0.8335	0.2107	0.26319	-0.34
Mof_H 	H 	0.815	0.207	0.2156	0.176
Mof_H 	H 	0.867	0.157	0.279	0.172
Mof_O 	O 	0.92463	0.1084	0.38782	-0.654
Mof_O 	O 	0.92323	0.1775	0.49635	-0.67
Mof_O 	O 	0.58927	0.47945	0.33596	-0.671
Mof_O 	O 	0.59184	0.4319	0.22395	-0.645
Mof_O 	O 	0.91949	0.92645	0.50797	-0.708
Mof_O 	O 	0.90051	0.8035	0.41595	-0.596
Mof_Ce	Ce	0.00045	0.93451	0.3985	2.711
Mof_C 	C 	0.72683	0.7991	0.55684	1.215
Mof_N 	N 	0.7067	0.857	0.6119	1.626
Mof_H 	H 	0.679	0.83	0.635	-0.348
Mof_H 	H 	0.718	0.928	0.625	-0.456
Mof_H 	H 	0.72	0.823	0.6	-1.653
Mof_C 	C 	0.39777	0.6729	0.42695	0.583
Mof_C 	C 	0.33019	0.7473	0.38941	-0.254
Mof_C 	C 	0.29289	0.8023	0.43336	0.068
Mof_H 	H 	0.3139	0.7983	0.4846	-0.01
Mof_C 	C 	0.22576	0.8625	0.40325	-0.047
Mof_H 	H 	0.2013	0.8972	0.4338	0.011
Mof_C 	C 	0.19483	0.8708	0.32647	-0.11
Mof_C 	C 	0.2327	0.821	0.28204	-0.113
Mof_H 	H 	0.2128	0.8295	0.231	0.086
Mof_C 	C 	0.3002	0.7581	0.31188	0.204
Mof_C 	C 	0.11984	0.9311	0.29237	0.523
Mof_C 	C 	0.38263	0.344	0.46931	0.585
Mof_C 	C 	0.31452	0.2937	0.48521	-0.417
Mof_C 	C 	0.29106	0.3402	0.54168	-0.468
Mof_H 	H 	0.3191	0.4006	0.5703	0.204
Mof_N 	N 	0.3335	0.7107	0.26319	-0.34
Mof_H 	H 	0.315	0.707	0.2156	0.176
Mof_H 	H 	0.367	0.657	0.279	0.171
Mof_O 	O 	0.42463	0.6084	0.38782	-0.653
Mof_O 	O 	0.42323	0.6775	0.49635	-0.669
Mof_O 	O 	0.08927	0.97945	0.33596	-0.671
Mof_O 	O 	0.09184	0.9319	0.22395	-0.64
Mof_O 	O 	0.41949	0.42645	0.50797	-0.707
Mof_O 	O 	0.40051	0.3035	0.41595	-0.595
Mof_Ce	Ce	0.50045	0.43451	0.3985	2.696
Mof_C 	C 	0.22683	0.2991	0.55684	1.214
Mof_N 	N 	0.2067	0.357	0.6119	1.625
Mof_H 	H 	0.179	0.33	0.635	-0.348
Mof_H 	H 	0.218	0.428	0.625	-0.456
Mof_H 	H 	0.22	0.323	0.6	-1.651
_end
