data_functionalizedCrystal
_audit_creation_method	'EQeq! by Chris Wilmer'
_symmetry_space_group_name_H-M	'P1'
_symmetry_Int_Tables_number	1
_symmetry_cell_setting	triclinic
loop_
_symmetry_equiv_pos_as_xyz
  x,y,z
_cell_length_a	12.3341
_cell_length_b	10.8263
_cell_length_c	18.2036
_cell_angle_alpha	90
_cell_angle_beta	93.488
_cell_angle_gamma	90
loop_
_atom_site_label
_atom_site_type_symbol
_atom_site_fract_x
_atom_site_fract_y
_atom_site_fract_z
_atom_site_charge
Mof_Zn	Zn	0.80114	0.22506	0.28207	1.251
Mof_Zn	Zn	0.11281	0.09754	0.71765	1.21
Mof_O 	O 	0.5653	0.3839	0.3163	-0.462
Mof_C 	C 	0.132	0.0397	0.4692	0.077
Mof_H 	H 	0.1312	0.9588	0.4491	0.019
Mof_O 	O 	0.6749	0.2286	0.35296	-0.426
Mof_C 	C 	0.0623	0.1284	0.43919	-0.218
Mof_O 	O 	0.42354	0.2902	0.69445	-0.452
Mof_H 	H 	0.4805	0.3324	0.6928	0.222
Mof_C 	C 	0.2043	0.1817	0.56053	0.016
Mof_O 	O 	0.21486	0.22137	0.6904	-0.563
Mof_C 	C 	0.2038	0.0683	0.529	-0.136
Mof_H 	H 	0.2532	0.0071	0.548	0.062
Mof_O 	O 	0.98954	0.9947	0.34646	-0.559
Mof_O 	O 	0.9112	0.1794	0.36196	-0.481
Mof_O 	O 	0.8534	0.4097	0.30188	-0.44
Mof_C 	C 	0.1308	0.2674	0.5338	-0.154
Mof_H 	H 	0.1275	0.3456	0.5573	0.082
Mof_C 	C 	0.0604	0.2421	0.4727	0.089
Mof_H 	H 	0.011	0.3036	0.4542	0.007
Mof_O 	O 	0.73433	0.53522	0.24058	-0.6
Mof_C 	C 	0.3588	0.3031	0.6251	0.476
Mof_H 	H 	0.3176	0.3826	0.6256	-0.093
Mof_C 	C 	0.2787	0.1951	0.6297	-0.19
Mof_H 	H 	0.3199	0.1165	0.6392	0.064
Mof_C 	C 	0.4235	0.299	0.5576	-0.49
Mof_C 	C 	0.3942	0.3771	0.4995	1.74
Mof_H 	H 	0.3348	0.4321	0.5035	-0.569
Mof_C 	C 	0.4496	0.3764	0.4361	0.931
Mof_H 	H 	0.4281	0.4307	0.3969	-0.302
Mof_C 	C 	0.5359	0.2974	0.4292	-0.04
Mof_C 	C 	0.566	0.2184	0.4856	-0.024
Mof_H 	H 	0.6252	0.1633	0.481	0.006
Mof_C 	C 	0.5095	0.2188	0.5503	0.23
Mof_H 	H 	0.5305	0.1637	0.5892	0.003
Mof_C 	C 	0.8248	0.5099	0.27503	0.439
Mof_H 	H 	0.8757	0.5756	0.2806	-0.16
Mof_C 	C 	0.5977	0.3006	0.36079	0.303
Mof_C 	C 	0.9813	0.0992	0.37723	0.527
Mof_C 	C 	0.3811	0.2119	0.633	-0.588
Mof_H 	H 	0.3856	0.1225	0.6465	0.174
Mof_C 	C 	0.2625	0.2559	0.6265	0.303
Mof_H 	H 	0.2576	0.3471	0.6183	-0.078
Mof_C 	C 	0.4403	0.2378	0.5631	0.973
Mof_C 	C 	0.4359	0.3529	0.5292	-1.302
Mof_H 	H 	0.3984	0.4191	0.5507	0.2
Mof_C 	C 	0.4862	0.3711	0.4638	-1.295
Mof_H 	H 	0.4832	0.4497	0.4406	0.224
Mof_C 	C 	0.5411	0.2742	0.4324	0.181
Mof_C 	C 	0.5456	0.1592	0.4663	0.238
Mof_H 	H 	0.5831	0.093	0.4448	-0.059
Mof_C 	C 	0.4952	0.141	0.5317	-0.825
Mof_H 	H 	0.4983	0.0624	0.5549	0.292
Mof_Zn	Zn	0.69886	0.72506	0.21793	1.242
Mof_Zn	Zn	0.38719	0.59754	0.78235	1.239
Mof_O 	O 	0.9347	0.8839	0.1837	-0.208
Mof_C 	C 	0.368	0.5397	0.0308	-0.278
Mof_H 	H 	0.3688	0.4588	0.0509	0.155
Mof_O 	O 	0.8251	0.7286	0.14704	-0.246
Mof_C 	C 	0.4377	0.6284	0.06081	0.013
Mof_O 	O 	0.07646	0.7902	0.80555	-0.035
Mof_H 	H 	0.0195	0.8324	0.8072	0.17
Mof_C 	C 	0.2957	0.6817	0.93947	-0.427
Mof_O 	O 	0.28514	0.72137	0.8096	-0.714
Mof_C 	C 	0.2962	0.5683	0.971	0.167
Mof_H 	H 	0.2468	0.5071	0.952	-0.038
Mof_O 	O 	0.51046	0.4947	0.15354	-0.474
Mof_O 	O 	0.5888	0.6794	0.13804	-0.427
Mof_O 	O 	0.6466	0.9097	0.19812	-0.491
Mof_C 	C 	0.3692	0.7674	0.9662	0.041
Mof_H 	H 	0.3725	0.8456	0.9427	0.09
Mof_C 	C 	0.4396	0.7421	0.0273	-0.233
Mof_H 	H 	0.489	0.8036	0.0458	0.137
Mof_O 	O 	0.76567	0.03522	0.25942	-0.596
Mof_C 	C 	0.1412	0.8031	0.8749	3.971
Mof_H 	H 	0.1824	0.8826	0.8744	-0.838
Mof_C 	C 	0.2213	0.6951	0.8703	-2.378
Mof_H 	H 	0.1801	0.6165	0.8608	0.809
Mof_C 	C 	0.0765	0.799	0.9424	-4.383
Mof_C 	C 	0.1058	0.8771	0.0005	17.472
Mof_H 	H 	0.1652	0.9321	0.9965	-5.766
Mof_C 	C 	0.0504	0.8764	0.0639	8.489
Mof_H 	H 	0.0719	0.9307	0.1031	-2.993
Mof_C 	C 	0.9641	0.7974	0.0708	-0.047
Mof_C 	C 	0.934	0.7184	0.0144	-1.357
Mof_H 	H 	0.8748	0.6633	0.019	-0.086
Mof_C 	C 	0.9905	0.7188	0.9497	0.893
Mof_H 	H 	0.9695	0.6637	0.9108	-0.068
Mof_C 	C 	0.6752	0.0099	0.22497	0.66
Mof_H 	H 	0.6243	0.0756	0.2194	-0.17
Mof_C 	C 	0.9023	0.8006	0.13921	-0.406
Mof_C 	C 	0.5187	0.5992	0.12277	0.342
Mof_C 	C 	0.1189	0.7119	0.867	-5.953
Mof_H 	H 	0.1144	0.6225	0.8535	1.517
Mof_C 	C 	0.2375	0.7559	0.8735	3.176
Mof_H 	H 	0.2424	0.8471	0.8817	-1.053
Mof_C 	C 	0.0597	0.7378	0.9369	10.102
Mof_C 	C 	0.0641	0.8529	0.9708	-12.916
Mof_H 	H 	0.1016	0.9191	0.9493	1.728
Mof_C 	C 	0.0138	0.8711	0.0362	-11.947
Mof_H 	H 	0.0168	0.9497	0.0594	1.859
Mof_C 	C 	0.9589	0.7742	0.0676	2.293
Mof_C 	C 	0.9544	0.6592	0.0337	3.615
Mof_H 	H 	0.9169	0.593	0.0552	-1.287
Mof_C 	C 	0.0048	0.641	0.9683	-6.263
Mof_H 	H 	0.0017	0.5624	0.9451	2.068
Mof_Zn	Zn	0.19886	0.77494	0.71793	1.25
Mof_Zn	Zn	0.88719	0.90246	0.28235	1.209
Mof_O 	O 	0.4347	0.6161	0.6837	-0.463
Mof_C 	C 	0.868	0.9603	0.5308	0.076
Mof_H 	H 	0.8688	0.0412	0.5509	0.018
Mof_O 	O 	0.3251	0.7714	0.64704	-0.427
Mof_C 	C 	0.9377	0.8716	0.56081	-0.218
Mof_O 	O 	0.57646	0.7098	0.30555	-0.452
Mof_H 	H 	0.5195	0.6676	0.3072	0.222
Mof_C 	C 	0.7957	0.8183	0.43947	0.016
Mof_O 	O 	0.78514	0.77863	0.3096	-0.563
Mof_C 	C 	0.7962	0.9317	0.471	-0.136
Mof_H 	H 	0.7468	0.9929	0.452	0.062
Mof_O 	O 	0.01046	0.0053	0.65354	-0.559
Mof_O 	O 	0.0888	0.8206	0.63804	-0.481
Mof_O 	O 	0.1466	0.5903	0.69812	-0.44
Mof_C 	C 	0.8692	0.7326	0.4662	-0.154
Mof_H 	H 	0.8725	0.6544	0.4427	0.082
Mof_C 	C 	0.9396	0.7579	0.5273	0.089
Mof_H 	H 	0.989	0.6964	0.5458	0.007
Mof_O 	O 	0.26567	0.46478	0.75942	-0.6
Mof_C 	C 	0.6412	0.6969	0.3749	0.476
Mof_H 	H 	0.6824	0.6174	0.3744	-0.093
Mof_C 	C 	0.7213	0.8049	0.3703	-0.19
Mof_H 	H 	0.6801	0.8835	0.3608	0.064
Mof_C 	C 	0.5765	0.701	0.4424	-0.49
Mof_C 	C 	0.6058	0.6229	0.5005	1.74
Mof_H 	H 	0.6652	0.5679	0.4965	-0.569
Mof_C 	C 	0.5504	0.6236	0.5639	0.931
Mof_H 	H 	0.5719	0.5693	0.6031	-0.302
Mof_C 	C 	0.4641	0.7026	0.5708	-0.04
Mof_C 	C 	0.434	0.7816	0.5144	-0.024
Mof_H 	H 	0.3748	0.8367	0.519	0.006
Mof_C 	C 	0.4905	0.7812	0.4497	0.23
Mof_H 	H 	0.4695	0.8363	0.4108	0.003
Mof_C 	C 	0.1752	0.4901	0.72497	0.439
Mof_H 	H 	0.1243	0.4244	0.7194	-0.16
Mof_C 	C 	0.4023	0.6994	0.63921	0.303
Mof_C 	C 	0.0187	0.9008	0.62277	0.527
Mof_C 	C 	0.6189	0.7881	0.367	-0.588
Mof_H 	H 	0.6144	0.8775	0.3535	0.174
Mof_C 	C 	0.7375	0.7441	0.3735	0.303
Mof_H 	H 	0.7424	0.6529	0.3817	-0.078
Mof_C 	C 	0.5597	0.7622	0.4369	0.973
Mof_C 	C 	0.5641	0.6471	0.4708	-1.302
Mof_H 	H 	0.6016	0.5809	0.4493	0.2
Mof_C 	C 	0.5138	0.6289	0.5362	-1.295
Mof_H 	H 	0.5168	0.5503	0.5594	0.224
Mof_C 	C 	0.4589	0.7258	0.5676	0.181
Mof_C 	C 	0.4544	0.8408	0.5337	0.238
Mof_H 	H 	0.4169	0.907	0.5552	-0.059
Mof_C 	C 	0.5048	0.859	0.4683	-0.825
Mof_H 	H 	0.5017	0.9376	0.4451	0.292
Mof_Zn	Zn	0.30114	0.27494	0.78207	1.242
Mof_Zn	Zn	0.61281	0.40246	0.21765	1.239
Mof_O 	O 	0.0653	0.1161	0.8163	-0.208
Mof_C 	C 	0.632	0.4603	0.9692	-0.278
Mof_H 	H 	0.6312	0.5412	0.9491	0.155
Mof_O 	O 	0.1749	0.2714	0.85296	-0.246
Mof_C 	C 	0.5623	0.3716	0.93919	0.013
Mof_O 	O 	0.92354	0.2098	0.19445	-0.035
Mof_H 	H 	0.9805	0.1676	0.1928	0.17
Mof_C 	C 	0.7043	0.3183	0.06053	-0.427
Mof_O 	O 	0.71486	0.27863	0.1904	-0.714
Mof_C 	C 	0.7038	0.4317	0.029	0.167
Mof_H 	H 	0.7532	0.4929	0.048	-0.038
Mof_O 	O 	0.48954	0.5053	0.84646	-0.474
Mof_O 	O 	0.4112	0.3206	0.86196	-0.427
Mof_O 	O 	0.3534	0.0903	0.80188	-0.491
Mof_C 	C 	0.6308	0.2326	0.0338	0.041
Mof_H 	H 	0.6275	0.1544	0.0573	0.09
Mof_C 	C 	0.5604	0.2579	0.9727	-0.233
Mof_H 	H 	0.511	0.1964	0.9542	0.137
Mof_O 	O 	0.23433	0.96478	0.74058	-0.596
Mof_C 	C 	0.8588	0.1969	0.1251	3.971
Mof_H 	H 	0.8176	0.1174	0.1256	-0.838
Mof_C 	C 	0.7787	0.3049	0.1297	-2.378
Mof_H 	H 	0.8199	0.3835	0.1392	0.809
Mof_C 	C 	0.9235	0.201	0.0576	-4.383
Mof_C 	C 	0.8942	0.1229	0.9995	17.472
Mof_H 	H 	0.8348	0.0679	0.0035	-5.766
Mof_C 	C 	0.9496	0.1236	0.9361	8.489
Mof_H 	H 	0.9281	0.0693	0.8969	-2.993
Mof_C 	C 	0.0359	0.2026	0.9292	-0.047
Mof_C 	C 	0.066	0.2816	0.9856	-1.357
Mof_H 	H 	0.1252	0.3367	0.981	-0.086
Mof_C 	C 	0.0095	0.2812	0.0503	0.893
Mof_H 	H 	0.0305	0.3363	0.0892	-0.068
Mof_C 	C 	0.3248	0.9901	0.77503	0.66
Mof_H 	H 	0.3757	0.9244	0.7806	-0.17
Mof_C 	C 	0.0977	0.1994	0.86079	-0.406
Mof_C 	C 	0.4813	0.4008	0.87723	0.342
Mof_C 	C 	0.8811	0.2881	0.133	-5.953
Mof_H 	H 	0.8856	0.3775	0.1465	1.517
Mof_C 	C 	0.7625	0.2441	0.1265	3.176
Mof_H 	H 	0.7576	0.1529	0.1183	-1.053
Mof_C 	C 	0.9403	0.2622	0.0631	10.102
Mof_C 	C 	0.9359	0.1471	0.0292	-12.916
Mof_H 	H 	0.8984	0.0809	0.0507	1.728
Mof_C 	C 	0.9862	0.1289	0.9638	-11.947
Mof_H 	H 	0.9832	0.0503	0.9406	1.859
Mof_C 	C 	0.0411	0.2258	0.9324	2.293
Mof_C 	C 	0.0456	0.3408	0.9663	3.615
Mof_H 	H 	0.0831	0.407	0.9448	-1.287
Mof_C 	C 	0.9952	0.359	0.0317	-6.263
Mof_H 	H 	0.9983	0.4376	0.0549	2.068
_end
