data_functionalizedCrystal
_audit_creation_method	'EQeq! by Chris Wilmer'
_symmetry_space_group_name_H-M	'P1'
_symmetry_Int_Tables_number	1
_symmetry_cell_setting	triclinic
loop_
_symmetry_equiv_pos_as_xyz
  x,y,z
_cell_length_a	27.259
_cell_length_b	27.259
_cell_length_c	27.259
_cell_angle_alpha	90
_cell_angle_beta	90
_cell_angle_gamma	90
loop_
_atom_site_label
_atom_site_type_symbol
_atom_site_fract_x
_atom_site_fract_y
_atom_site_fract_z
_atom_site_charge
Mof_O 	O 	0.44689	0.9467	0.66918	-0.53
Mof_C 	C 	0.42273	0.92567	0.63787	0.477
Mof_C 	C 	0.39539	0.8799	0.65305	-0.175
Mof_O 	O 	0.42226	0.93663	0.59295	-0.539
Mof_C 	C 	0.37026	0.85116	0.61818	0.092
Mof_C 	C 	0.3922	0.86765	0.70336	0.083
Mof_H 	H 	0.3705	0.8605	0.5854	0
Mof_C 	C 	0.34616	0.81077	0.63166	-0.153
Mof_C 	C 	0.36582	0.82614	0.71625	-0.148
Mof_H 	H 	0.4074	0.8869	0.7271	0.009
Mof_H 	H 	0.3315	0.7913	0.6078	0.082
Mof_C 	C 	0.34251	0.79691	0.68232	0.073
Mof_H 	H 	0.3638	0.8177	0.7492	0.084
Mof_C 	C 	0.31477	0.75349	0.69679	0.017
Mof_C 	C 	0.27359	0.73863	0.67033	-0.083
Mof_H 	H 	0.2638	0.7562	0.6428	0.059
Mof_H 	H 	0.6121	0.0292	0.4901	0.215
Mof_H 	H 	0.597	0.9824	0.4764	0.007
Mof_O 	O 	0.55311	0.0533	0.66918	-0.535
Mof_C 	C 	0.57727	0.07433	0.63787	0.477
Mof_C 	C 	0.60461	0.1201	0.65305	-0.177
Mof_O 	O 	0.57774	0.06337	0.59295	-0.543
Mof_C 	C 	0.62974	0.14884	0.61818	0.092
Mof_C 	C 	0.6078	0.13235	0.70336	0.082
Mof_H 	H 	0.6295	0.1395	0.5854	-0.002
Mof_C 	C 	0.65384	0.18923	0.63166	-0.155
Mof_C 	C 	0.63418	0.17386	0.71625	-0.15
Mof_H 	H 	0.5926	0.1131	0.7271	0.007
Mof_H 	H 	0.6685	0.2087	0.6078	0.081
Mof_C 	C 	0.65749	0.20309	0.68232	0.073
Mof_H 	H 	0.6362	0.1823	0.7492	0.083
Mof_C 	C 	0.68523	0.24651	0.69679	0.016
Mof_C 	C 	0.72641	0.26137	0.67033	-0.084
Mof_H 	H 	0.7362	0.2438	0.6428	0.058
Mof_H 	H 	0.3879	0.9708	0.4901	0.211
Mof_H 	H 	0.403	0.0176	0.4764	-0.006
Mof_O 	O 	0.55311	0.9467	0.33082	-0.531
Mof_C 	C 	0.57727	0.92567	0.36213	0.476
Mof_C 	C 	0.60461	0.8799	0.34695	-0.176
Mof_O 	O 	0.57774	0.93663	0.40705	-0.54
Mof_C 	C 	0.62974	0.85116	0.38182	0.092
Mof_C 	C 	0.6078	0.86765	0.29664	0.082
Mof_H 	H 	0.6295	0.8605	0.4146	-0.001
Mof_C 	C 	0.65384	0.81077	0.36834	-0.154
Mof_C 	C 	0.63418	0.82614	0.28375	-0.149
Mof_H 	H 	0.5926	0.8869	0.2729	0.008
Mof_H 	H 	0.6685	0.7913	0.3922	0.081
Mof_C 	C 	0.65749	0.79691	0.31768	0.072
Mof_H 	H 	0.6362	0.8177	0.2508	0.083
Mof_C 	C 	0.68523	0.75349	0.30321	0.016
Mof_C 	C 	0.72641	0.73863	0.32967	-0.084
Mof_H 	H 	0.7362	0.7562	0.3572	0.058
Mof_H 	H 	0.3879	0.0292	0.5099	0.214
Mof_H 	H 	0.403	0.9824	0.5236	0.006
Mof_O 	O 	0.44689	0.0533	0.33082	-0.535
Mof_C 	C 	0.42273	0.07433	0.36213	0.477
Mof_C 	C 	0.39539	0.1201	0.34695	-0.178
Mof_O 	O 	0.42226	0.06337	0.40705	-0.543
Mof_C 	C 	0.37026	0.14884	0.38182	0.092
Mof_C 	C 	0.3922	0.13235	0.29664	0.082
Mof_H 	H 	0.3705	0.1395	0.4146	-0.002
Mof_C 	C 	0.34616	0.18923	0.36834	-0.155
Mof_C 	C 	0.36582	0.17386	0.28375	-0.15
Mof_H 	H 	0.4074	0.1131	0.2729	0.006
Mof_H 	H 	0.3315	0.2087	0.3922	0.081
Mof_C 	C 	0.34251	0.20309	0.31768	0.073
Mof_H 	H 	0.3638	0.1823	0.2508	0.083
Mof_C 	C 	0.31477	0.24651	0.30321	0.016
Mof_C 	C 	0.27359	0.26137	0.32967	-0.084
Mof_H 	H 	0.2638	0.2438	0.3572	0.058
Mof_H 	H 	0.6121	0.9708	0.5099	0.211
Mof_H 	H 	0.597	0.0176	0.5236	-0.006
Mof_O 	O 	0.66918	0.44689	0.9467	-0.531
Mof_C 	C 	0.63787	0.42273	0.92567	0.476
Mof_C 	C 	0.65305	0.39539	0.8799	-0.176
Mof_O 	O 	0.59295	0.42226	0.93663	-0.54
Mof_C 	C 	0.61818	0.37026	0.85116	0.091
Mof_C 	C 	0.70336	0.3922	0.86765	0.082
Mof_H 	H 	0.5854	0.3705	0.8605	-0.001
Mof_C 	C 	0.63166	0.34616	0.81077	-0.154
Mof_C 	C 	0.71625	0.36582	0.82614	-0.149
Mof_H 	H 	0.7271	0.4074	0.8869	0.008
Mof_H 	H 	0.6078	0.3315	0.7913	0.081
Mof_C 	C 	0.68232	0.34251	0.79691	0.072
Mof_H 	H 	0.7492	0.3638	0.8177	0.083
Mof_C 	C 	0.69679	0.31477	0.75349	0.016
Mof_C 	C 	0.67033	0.27359	0.73863	-0.084
Mof_H 	H 	0.6428	0.2638	0.7562	0.058
Mof_H 	H 	0.4901	0.6121	0.0292	0.214
Mof_H 	H 	0.4764	0.597	0.9824	0.006
Mof_O 	O 	0.66918	0.55311	0.0533	-0.535
Mof_C 	C 	0.63787	0.57727	0.07433	0.477
Mof_C 	C 	0.65305	0.60461	0.1201	-0.177
Mof_O 	O 	0.59295	0.57774	0.06337	-0.543
Mof_C 	C 	0.61818	0.62974	0.14884	0.092
Mof_C 	C 	0.70336	0.6078	0.13235	0.082
Mof_H 	H 	0.5854	0.6295	0.1395	-0.002
Mof_C 	C 	0.63166	0.65384	0.18923	-0.155
Mof_C 	C 	0.71625	0.63418	0.17386	-0.15
Mof_H 	H 	0.7271	0.5926	0.1131	0.007
Mof_H 	H 	0.6078	0.6685	0.2087	0.081
Mof_C 	C 	0.68232	0.65749	0.20309	0.073
Mof_H 	H 	0.7492	0.6362	0.1823	0.083
Mof_C 	C 	0.69679	0.68523	0.24651	0.016
Mof_C 	C 	0.67033	0.72641	0.26137	-0.084
Mof_H 	H 	0.6428	0.7362	0.2438	0.058
Mof_H 	H 	0.4901	0.3879	0.9708	0.211
Mof_H 	H 	0.4764	0.403	0.0176	-0.006
Mof_O 	O 	0.33082	0.55311	0.9467	-0.531
Mof_C 	C 	0.36213	0.57727	0.92567	0.476
Mof_C 	C 	0.34695	0.60461	0.8799	-0.176
Mof_O 	O 	0.40705	0.57774	0.93663	-0.54
Mof_C 	C 	0.38182	0.62974	0.85116	0.092
Mof_C 	C 	0.29664	0.6078	0.86765	0.082
Mof_H 	H 	0.4146	0.6295	0.8605	-0.001
Mof_C 	C 	0.36834	0.65384	0.81077	-0.154
Mof_C 	C 	0.28375	0.63418	0.82614	-0.149
Mof_H 	H 	0.2729	0.5926	0.8869	0.008
Mof_H 	H 	0.3922	0.6685	0.7913	0.081
Mof_C 	C 	0.31768	0.65749	0.79691	0.072
Mof_H 	H 	0.2508	0.6362	0.8177	0.083
Mof_C 	C 	0.30321	0.68523	0.75349	0.016
Mof_C 	C 	0.32967	0.72641	0.73863	-0.084
Mof_H 	H 	0.3572	0.7362	0.7562	0.058
Mof_H 	H 	0.5099	0.3879	0.0292	0.214
Mof_H 	H 	0.5236	0.403	0.9824	0.006
Mof_O 	O 	0.33082	0.44689	0.0533	-0.535
Mof_C 	C 	0.36213	0.42273	0.07433	0.477
Mof_C 	C 	0.34695	0.39539	0.1201	-0.178
Mof_O 	O 	0.40705	0.42226	0.06337	-0.543
Mof_C 	C 	0.38182	0.37026	0.14884	0.092
Mof_C 	C 	0.29664	0.3922	0.13235	0.082
Mof_H 	H 	0.4146	0.3705	0.1395	-0.002
Mof_C 	C 	0.36834	0.34616	0.18923	-0.155
Mof_C 	C 	0.28375	0.36582	0.17386	-0.15
Mof_H 	H 	0.2729	0.4074	0.1131	0.006
Mof_H 	H 	0.3922	0.3315	0.2087	0.081
Mof_C 	C 	0.31768	0.34251	0.20309	0.073
Mof_H 	H 	0.2508	0.3638	0.1823	0.083
Mof_C 	C 	0.30321	0.31477	0.24651	0.016
Mof_C 	C 	0.32967	0.27359	0.26137	-0.084
Mof_H 	H 	0.3572	0.2638	0.2438	0.058
Mof_H 	H 	0.5099	0.6121	0.9708	0.211
Mof_H 	H 	0.5236	0.597	0.0176	-0.006
Mof_O 	O 	0.9467	0.66918	0.44689	-0.531
Mof_C 	C 	0.92567	0.63787	0.42273	0.476
Mof_C 	C 	0.8799	0.65305	0.39539	-0.176
Mof_O 	O 	0.93663	0.59295	0.42226	-0.54
Mof_C 	C 	0.85116	0.61818	0.37026	0.091
Mof_C 	C 	0.86765	0.70336	0.3922	0.082
Mof_H 	H 	0.8605	0.5854	0.3705	-0.001
Mof_C 	C 	0.81077	0.63166	0.34616	-0.154
Mof_C 	C 	0.82614	0.71625	0.36582	-0.149
Mof_H 	H 	0.8869	0.7271	0.4074	0.008
Mof_H 	H 	0.7913	0.6078	0.3315	0.081
Mof_C 	C 	0.79691	0.68232	0.34251	0.072
Mof_H 	H 	0.8177	0.7492	0.3638	0.083
Mof_C 	C 	0.75349	0.69679	0.31477	0.016
Mof_C 	C 	0.73863	0.67033	0.27359	-0.084
Mof_H 	H 	0.7562	0.6428	0.2638	0.058
Mof_H 	H 	0.0292	0.4901	0.6121	0.214
Mof_H 	H 	0.9824	0.4764	0.597	0.006
Mof_O 	O 	0.0533	0.66918	0.55311	-0.535
Mof_C 	C 	0.07433	0.63787	0.57727	0.477
Mof_C 	C 	0.1201	0.65305	0.60461	-0.177
Mof_O 	O 	0.06337	0.59295	0.57774	-0.543
Mof_C 	C 	0.14884	0.61818	0.62974	0.092
Mof_C 	C 	0.13235	0.70336	0.6078	0.082
Mof_H 	H 	0.1395	0.5854	0.6295	-0.002
Mof_C 	C 	0.18923	0.63166	0.65384	-0.155
Mof_C 	C 	0.17386	0.71625	0.63418	-0.15
Mof_H 	H 	0.1131	0.7271	0.5926	0.007
Mof_H 	H 	0.2087	0.6078	0.6685	0.081
Mof_C 	C 	0.20309	0.68232	0.65749	0.073
Mof_H 	H 	0.1823	0.7492	0.6362	0.083
Mof_C 	C 	0.24651	0.69679	0.68523	0.016
Mof_C 	C 	0.26137	0.67033	0.72641	-0.084
Mof_H 	H 	0.2438	0.6428	0.7362	0.058
Mof_H 	H 	0.9708	0.4901	0.3879	0.211
Mof_H 	H 	0.0176	0.4764	0.403	-0.006
Mof_O 	O 	0.9467	0.33082	0.55311	-0.531
Mof_C 	C 	0.92567	0.36213	0.57727	0.476
Mof_C 	C 	0.8799	0.34695	0.60461	-0.176
Mof_O 	O 	0.93663	0.40705	0.57774	-0.54
Mof_C 	C 	0.85116	0.38182	0.62974	0.092
Mof_C 	C 	0.86765	0.29664	0.6078	0.082
Mof_H 	H 	0.8605	0.4146	0.6295	-0.001
Mof_C 	C 	0.81077	0.36834	0.65384	-0.154
Mof_C 	C 	0.82614	0.28375	0.63418	-0.149
Mof_H 	H 	0.8869	0.2729	0.5926	0.008
Mof_H 	H 	0.7913	0.3922	0.6685	0.081
Mof_C 	C 	0.79691	0.31768	0.65749	0.072
Mof_H 	H 	0.8177	0.2508	0.6362	0.083
Mof_C 	C 	0.75349	0.30321	0.68523	0.016
Mof_C 	C 	0.73863	0.32967	0.72641	-0.084
Mof_H 	H 	0.7562	0.3572	0.7362	0.058
Mof_H 	H 	0.0292	0.5099	0.3879	0.214
Mof_H 	H 	0.9824	0.5236	0.403	0.006
Mof_O 	O 	0.0533	0.33082	0.44689	-0.535
Mof_C 	C 	0.07433	0.36213	0.42273	0.477
Mof_C 	C 	0.1201	0.34695	0.39539	-0.178
Mof_O 	O 	0.06337	0.40705	0.42226	-0.543
Mof_C 	C 	0.14884	0.38182	0.37026	0.092
Mof_C 	C 	0.13235	0.29664	0.3922	0.082
Mof_H 	H 	0.1395	0.4146	0.3705	-0.002
Mof_C 	C 	0.18923	0.36834	0.34616	-0.155
Mof_C 	C 	0.17386	0.28375	0.36582	-0.15
Mof_H 	H 	0.1131	0.2729	0.4074	0.006
Mof_H 	H 	0.2087	0.3922	0.3315	0.081
Mof_C 	C 	0.20309	0.31768	0.34251	0.073
Mof_H 	H 	0.1823	0.2508	0.3638	0.083
Mof_C 	C 	0.24651	0.30321	0.31477	0.016
Mof_C 	C 	0.26137	0.32967	0.27359	-0.084
Mof_H 	H 	0.2438	0.3572	0.2638	0.058
Mof_H 	H 	0.9708	0.5099	0.6121	0.211
Mof_H 	H 	0.0176	0.5236	0.597	-0.006
Mof_O 	O 	0.55311	0.0533	0.33082	-0.535
Mof_C 	C 	0.57727	0.07433	0.36213	0.477
Mof_C 	C 	0.60461	0.1201	0.34695	-0.178
Mof_O 	O 	0.57774	0.06337	0.40705	-0.543
Mof_C 	C 	0.62974	0.14884	0.38182	0.092
Mof_C 	C 	0.6078	0.13235	0.29664	0.082
Mof_H 	H 	0.6295	0.1395	0.4146	-0.002
Mof_C 	C 	0.65384	0.18923	0.36834	-0.155
Mof_C 	C 	0.63418	0.17386	0.28375	-0.15
Mof_H 	H 	0.5926	0.1131	0.2729	0.006
Mof_H 	H 	0.6685	0.2087	0.3922	0.081
Mof_C 	C 	0.65749	0.20309	0.31768	0.073
Mof_H 	H 	0.6362	0.1823	0.2508	0.083
Mof_C 	C 	0.68523	0.24651	0.30321	0.016
Mof_C 	C 	0.72641	0.26137	0.32967	-0.084
Mof_H 	H 	0.7362	0.2438	0.3572	0.058
Mof_H 	H 	0.3879	0.9708	0.5099	0.211
Mof_H 	H 	0.403	0.0176	0.5236	-0.006
Mof_O 	O 	0.44689	0.9467	0.33082	-0.531
Mof_C 	C 	0.42273	0.92567	0.36213	0.476
Mof_C 	C 	0.39539	0.8799	0.34695	-0.176
Mof_O 	O 	0.42226	0.93663	0.40705	-0.54
Mof_C 	C 	0.37026	0.85116	0.38182	0.092
Mof_C 	C 	0.3922	0.86765	0.29664	0.082
Mof_H 	H 	0.3705	0.8605	0.4146	-0.001
Mof_C 	C 	0.34616	0.81077	0.36834	-0.154
Mof_C 	C 	0.36582	0.82614	0.28375	-0.149
Mof_H 	H 	0.4074	0.8869	0.2729	0.008
Mof_H 	H 	0.3315	0.7913	0.3922	0.081
Mof_C 	C 	0.34251	0.79691	0.31768	0.072
Mof_H 	H 	0.3638	0.8177	0.2508	0.083
Mof_C 	C 	0.31477	0.75349	0.30321	0.016
Mof_C 	C 	0.27359	0.73863	0.32967	-0.084
Mof_H 	H 	0.2638	0.7562	0.3572	0.058
Mof_H 	H 	0.6121	0.0292	0.5099	0.214
Mof_H 	H 	0.597	0.9824	0.5236	0.006
Mof_O 	O 	0.44689	0.0533	0.66918	-0.535
Mof_C 	C 	0.42273	0.07433	0.63787	0.477
Mof_C 	C 	0.39539	0.1201	0.65305	-0.178
Mof_O 	O 	0.42226	0.06337	0.59295	-0.543
Mof_C 	C 	0.37026	0.14884	0.61818	0.092
Mof_C 	C 	0.3922	0.13235	0.70336	0.082
Mof_H 	H 	0.3705	0.1395	0.5854	-0.002
Mof_C 	C 	0.34616	0.18923	0.63166	-0.155
Mof_C 	C 	0.36582	0.17386	0.71625	-0.15
Mof_H 	H 	0.4074	0.1131	0.7271	0.006
Mof_H 	H 	0.3315	0.2087	0.6078	0.081
Mof_C 	C 	0.34251	0.20309	0.68232	0.073
Mof_H 	H 	0.3638	0.1823	0.7492	0.083
Mof_C 	C 	0.31477	0.24651	0.69679	0.016
Mof_C 	C 	0.27359	0.26137	0.67033	-0.084
Mof_H 	H 	0.2638	0.2438	0.6428	0.058
Mof_H 	H 	0.6121	0.9708	0.4901	0.211
Mof_H 	H 	0.597	0.0176	0.4764	-0.006
Mof_O 	O 	0.55311	0.9467	0.66918	-0.53
Mof_C 	C 	0.57727	0.92567	0.63787	0.476
Mof_C 	C 	0.60461	0.8799	0.65305	-0.176
Mof_O 	O 	0.57774	0.93663	0.59295	-0.54
Mof_C 	C 	0.62974	0.85116	0.61818	0.091
Mof_C 	C 	0.6078	0.86765	0.70336	0.082
Mof_H 	H 	0.6295	0.8605	0.5854	-0.001
Mof_C 	C 	0.65384	0.81077	0.63166	-0.154
Mof_C 	C 	0.63418	0.82614	0.71625	-0.149
Mof_H 	H 	0.5926	0.8869	0.7271	0.008
Mof_H 	H 	0.6685	0.7913	0.6078	0.081
Mof_C 	C 	0.65749	0.79691	0.68232	0.072
Mof_H 	H 	0.6362	0.8177	0.7492	0.083
Mof_C 	C 	0.68523	0.75349	0.69679	0.017
Mof_C 	C 	0.72641	0.73863	0.67033	-0.085
Mof_H 	H 	0.7362	0.7562	0.6428	0.058
Mof_H 	H 	0.3879	0.0292	0.4901	0.214
Mof_H 	H 	0.403	0.9824	0.4764	0.006
Mof_O 	O 	0.33082	0.55311	0.0533	-0.535
Mof_C 	C 	0.36213	0.57727	0.07433	0.477
Mof_C 	C 	0.34695	0.60461	0.1201	-0.178
Mof_O 	O 	0.40705	0.57774	0.06337	-0.543
Mof_C 	C 	0.38182	0.62974	0.14884	0.092
Mof_C 	C 	0.29664	0.6078	0.13235	0.082
Mof_H 	H 	0.4146	0.6295	0.1395	-0.002
Mof_C 	C 	0.36834	0.65384	0.18923	-0.155
Mof_C 	C 	0.28375	0.63418	0.17386	-0.15
Mof_H 	H 	0.2729	0.5926	0.1131	0.006
Mof_H 	H 	0.3922	0.6685	0.2087	0.081
Mof_C 	C 	0.31768	0.65749	0.20309	0.073
Mof_H 	H 	0.2508	0.6362	0.1823	0.083
Mof_C 	C 	0.30321	0.68523	0.24651	0.016
Mof_C 	C 	0.32967	0.72641	0.26137	-0.084
Mof_H 	H 	0.3572	0.7362	0.2438	0.058
Mof_H 	H 	0.5099	0.3879	0.9708	0.211
Mof_H 	H 	0.5236	0.403	0.0176	-0.006
Mof_O 	O 	0.33082	0.44689	0.9467	-0.531
Mof_C 	C 	0.36213	0.42273	0.92567	0.476
Mof_C 	C 	0.34695	0.39539	0.8799	-0.176
Mof_O 	O 	0.40705	0.42226	0.93663	-0.54
Mof_C 	C 	0.38182	0.37026	0.85116	0.092
Mof_C 	C 	0.29664	0.3922	0.86765	0.082
Mof_H 	H 	0.4146	0.3705	0.8605	-0.001
Mof_C 	C 	0.36834	0.34616	0.81077	-0.154
Mof_C 	C 	0.28375	0.36582	0.82614	-0.149
Mof_H 	H 	0.2729	0.4074	0.8869	0.008
Mof_H 	H 	0.3922	0.3315	0.7913	0.081
Mof_C 	C 	0.31768	0.34251	0.79691	0.072
Mof_H 	H 	0.2508	0.3638	0.8177	0.083
Mof_C 	C 	0.30321	0.31477	0.75349	0.016
Mof_C 	C 	0.32967	0.27359	0.73863	-0.084
Mof_H 	H 	0.3572	0.2638	0.7562	0.058
Mof_H 	H 	0.5099	0.6121	0.0292	0.214
Mof_H 	H 	0.5236	0.597	0.9824	0.006
Mof_O 	O 	0.66918	0.44689	0.0533	-0.535
Mof_C 	C 	0.63787	0.42273	0.07433	0.477
Mof_C 	C 	0.65305	0.39539	0.1201	-0.178
Mof_O 	O 	0.59295	0.42226	0.06337	-0.543
Mof_C 	C 	0.61818	0.37026	0.14884	0.092
Mof_C 	C 	0.70336	0.3922	0.13235	0.082
Mof_H 	H 	0.5854	0.3705	0.1395	-0.002
Mof_C 	C 	0.63166	0.34616	0.18923	-0.155
Mof_C 	C 	0.71625	0.36582	0.17386	-0.15
Mof_H 	H 	0.7271	0.4074	0.1131	0.006
Mof_H 	H 	0.6078	0.3315	0.2087	0.081
Mof_C 	C 	0.68232	0.34251	0.20309	0.073
Mof_H 	H 	0.7492	0.3638	0.1823	0.083
Mof_C 	C 	0.69679	0.31477	0.24651	0.016
Mof_C 	C 	0.67033	0.27359	0.26137	-0.084
Mof_H 	H 	0.6428	0.2638	0.2438	0.058
Mof_H 	H 	0.4901	0.6121	0.9708	0.211
Mof_H 	H 	0.4764	0.597	0.0176	-0.006
Mof_O 	O 	0.66918	0.55311	0.9467	-0.53
Mof_C 	C 	0.63787	0.57727	0.92567	0.476
Mof_C 	C 	0.65305	0.60461	0.8799	-0.176
Mof_O 	O 	0.59295	0.57774	0.93663	-0.54
Mof_C 	C 	0.61818	0.62974	0.85116	0.091
Mof_C 	C 	0.70336	0.6078	0.86765	0.082
Mof_H 	H 	0.5854	0.6295	0.8605	-0.001
Mof_C 	C 	0.63166	0.65384	0.81077	-0.154
Mof_C 	C 	0.71625	0.63418	0.82614	-0.149
Mof_H 	H 	0.7271	0.5926	0.8869	0.008
Mof_H 	H 	0.6078	0.6685	0.7913	0.081
Mof_C 	C 	0.68232	0.65749	0.79691	0.072
Mof_H 	H 	0.7492	0.6362	0.8177	0.083
Mof_C 	C 	0.69679	0.68523	0.75349	0.017
Mof_C 	C 	0.67033	0.72641	0.73863	-0.085
Mof_H 	H 	0.6428	0.7362	0.7562	0.058
Mof_H 	H 	0.4901	0.3879	0.0292	0.214
Mof_H 	H 	0.4764	0.403	0.9824	0.006
Mof_O 	O 	0.0533	0.33082	0.55311	-0.535
Mof_C 	C 	0.07433	0.36213	0.57727	0.477
Mof_C 	C 	0.1201	0.34695	0.60461	-0.178
Mof_O 	O 	0.06337	0.40705	0.57774	-0.543
Mof_C 	C 	0.14884	0.38182	0.62974	0.092
Mof_C 	C 	0.13235	0.29664	0.6078	0.082
Mof_H 	H 	0.1395	0.4146	0.6295	-0.002
Mof_C 	C 	0.18923	0.36834	0.65384	-0.155
Mof_C 	C 	0.17386	0.28375	0.63418	-0.15
Mof_H 	H 	0.1131	0.2729	0.5926	0.006
Mof_H 	H 	0.2087	0.3922	0.6685	0.081
Mof_C 	C 	0.20309	0.31768	0.65749	0.073
Mof_H 	H 	0.1823	0.2508	0.6362	0.083
Mof_C 	C 	0.24651	0.30321	0.68523	0.016
Mof_C 	C 	0.26137	0.32967	0.72641	-0.084
Mof_H 	H 	0.2438	0.3572	0.7362	0.058
Mof_H 	H 	0.9708	0.5099	0.3879	0.211
Mof_H 	H 	0.0176	0.5236	0.403	-0.006
Mof_O 	O 	0.9467	0.33082	0.44689	-0.531
Mof_C 	C 	0.92567	0.36213	0.42273	0.476
Mof_C 	C 	0.8799	0.34695	0.39539	-0.176
Mof_O 	O 	0.93663	0.40705	0.42226	-0.54
Mof_C 	C 	0.85116	0.38182	0.37026	0.092
Mof_C 	C 	0.86765	0.29664	0.3922	0.082
Mof_H 	H 	0.8605	0.4146	0.3705	-0.001
Mof_C 	C 	0.81077	0.36834	0.34616	-0.154
Mof_C 	C 	0.82614	0.28375	0.36582	-0.149
Mof_H 	H 	0.8869	0.2729	0.4074	0.008
Mof_H 	H 	0.7913	0.3922	0.3315	0.081
Mof_C 	C 	0.79691	0.31768	0.34251	0.072
Mof_H 	H 	0.8177	0.2508	0.3638	0.083
Mof_C 	C 	0.75349	0.30321	0.31477	0.016
Mof_C 	C 	0.73863	0.32967	0.27359	-0.084
Mof_H 	H 	0.7562	0.3572	0.2638	0.058
Mof_H 	H 	0.0292	0.5099	0.6121	0.214
Mof_H 	H 	0.9824	0.5236	0.597	0.006
Mof_O 	O 	0.0533	0.66918	0.44689	-0.535
Mof_C 	C 	0.07433	0.63787	0.42273	0.477
Mof_C 	C 	0.1201	0.65305	0.39539	-0.178
Mof_O 	O 	0.06337	0.59295	0.42226	-0.543
Mof_C 	C 	0.14884	0.61818	0.37026	0.092
Mof_C 	C 	0.13235	0.70336	0.3922	0.082
Mof_H 	H 	0.1395	0.5854	0.3705	-0.002
Mof_C 	C 	0.18923	0.63166	0.34616	-0.155
Mof_C 	C 	0.17386	0.71625	0.36582	-0.15
Mof_H 	H 	0.1131	0.7271	0.4074	0.006
Mof_H 	H 	0.2087	0.6078	0.3315	0.081
Mof_C 	C 	0.20309	0.68232	0.34251	0.073
Mof_H 	H 	0.1823	0.7492	0.3638	0.083
Mof_C 	C 	0.24651	0.69679	0.31477	0.016
Mof_C 	C 	0.26137	0.67033	0.27359	-0.084
Mof_H 	H 	0.2438	0.6428	0.2638	0.058
Mof_H 	H 	0.9708	0.4901	0.6121	0.211
Mof_H 	H 	0.0176	0.4764	0.597	-0.006
Mof_O 	O 	0.9467	0.66918	0.55311	-0.53
Mof_C 	C 	0.92567	0.63787	0.57727	0.476
Mof_C 	C 	0.8799	0.65305	0.60461	-0.176
Mof_O 	O 	0.93663	0.59295	0.57774	-0.54
Mof_C 	C 	0.85116	0.61818	0.62974	0.091
Mof_C 	C 	0.86765	0.70336	0.6078	0.082
Mof_H 	H 	0.8605	0.5854	0.6295	-0.001
Mof_C 	C 	0.81077	0.63166	0.65384	-0.154
Mof_C 	C 	0.82614	0.71625	0.63418	-0.149
Mof_H 	H 	0.8869	0.7271	0.5926	0.008
Mof_H 	H 	0.7913	0.6078	0.6685	0.081
Mof_C 	C 	0.79691	0.68232	0.65749	0.072
Mof_H 	H 	0.8177	0.7492	0.6362	0.083
Mof_C 	C 	0.75349	0.69679	0.68523	0.017
Mof_C 	C 	0.73863	0.67033	0.72641	-0.085
Mof_H 	H 	0.7562	0.6428	0.7362	0.058
Mof_H 	H 	0.0292	0.4901	0.3879	0.214
Mof_H 	H 	0.9824	0.4764	0.403	0.006
Mof_Mg	Mg	0.5	4.98518e-33	0.66943	1.474
Mof_O 	O 	0.5	4.98518e-33	0.5938	-0.925
Mof_Mg	Mg	0.5	0	0.33057	1.474
Mof_O 	O 	0.5	4.98518e-33	0.4062	-0.925
Mof_Mg	Mg	0.66943	0.5	-0	1.474
Mof_O 	O 	0.5938	0.5	-0	-0.925
Mof_Mg	Mg	0.33057	0.5	-0	1.474
Mof_O 	O 	0.4062	0.5	-0	-0.925
Mof_Mg	Mg	6.85988e-33	0.66943	0.5	1.474
Mof_O 	O 	1.8747e-33	0.5938	0.5	-0.925
Mof_Mg	Mg	-3.11048e-33	0.33057	0.5	1.474
Mof_O 	O 	-3.11048e-33	0.4062	0.5	-0.925
Mof_Mg	Mg	0.55385	4.98518e-33	0.55774	1.47
Mof_Mg	Mg	0.44615	4.98518e-33	0.55774	1.47
Mof_Mg	Mg	0.44615	4.98518e-33	0.44226	1.47
Mof_Mg	Mg	0.55385	4.98518e-33	0.44226	1.47
Mof_Mg	Mg	0.55774	0.55385	-0	1.47
Mof_Mg	Mg	0.55774	0.44615	-0	1.47
Mof_Mg	Mg	0.44226	0.44615	-0	1.47
Mof_Mg	Mg	0.44226	0.55385	-0	1.47
Mof_Mg	Mg	-7.89375e-33	0.55774	0.55385	1.47
Mof_Mg	Mg	1.67279e-33	0.55774	0.44615	1.47
Mof_Mg	Mg	1.67279e-33	0.44226	0.44615	1.47
Mof_Mg	Mg	2.0766e-33	0.44226	0.55385	1.47
Mof_O 	O 	0.5	4.98518e-33	0.5	-0.884
Mof_O 	O 	0.5	0.5	-0	-0.884
Mof_O 	O 	1.8747e-33	0.5	0.5	-0.884
Mof_O 	O 	0.60724	4.98518e-33	0.5	-1.21
Mof_O 	O 	0.39276	4.98518e-33	0.5	-1.209
Mof_O 	O 	0.5	0.60724	-0	-1.21
Mof_O 	O 	0.5	0.39276	-0	-1.209
Mof_O 	O 	-7.69357e-33	0.5	0.60724	-1.21
Mof_O 	O 	6.45779e-33	0.5	0.39276	-1.209
Mof_O 	O 	0.94689	0.4467	0.16918	-0.531
Mof_C 	C 	0.92273	0.42567	0.13787	0.476
Mof_C 	C 	0.89539	0.3799	0.15305	-0.176
Mof_O 	O 	0.92226	0.43663	0.09295	-0.541
Mof_C 	C 	0.87026	0.35116	0.11818	0.092
Mof_C 	C 	0.8922	0.36765	0.20336	0.082
Mof_H 	H 	0.8705	0.3605	0.0854	-0.003
Mof_C 	C 	0.84616	0.31077	0.13166	-0.155
Mof_C 	C 	0.86582	0.32614	0.21625	-0.149
Mof_H 	H 	0.9074	0.3869	0.2271	0.008
Mof_H 	H 	0.8315	0.2913	0.1078	0.08
Mof_C 	C 	0.84251	0.29691	0.18232	0.072
Mof_H 	H 	0.8638	0.3177	0.2492	0.083
Mof_C 	C 	0.81477	0.25349	0.19679	0.016
Mof_C 	C 	0.77359	0.23863	0.17033	-0.084
Mof_H 	H 	0.7638	0.2562	0.1428	0.058
Mof_H 	H 	0.1121	0.5292	0.9901	0.165
Mof_H 	H 	0.097	0.4824	0.9764	0.021
Mof_O 	O 	0.05311	0.5533	0.16918	-0.535
Mof_C 	C 	0.07727	0.57433	0.13787	0.477
Mof_C 	C 	0.10461	0.6201	0.15305	-0.178
Mof_O 	O 	0.07774	0.56337	0.09295	-0.543
Mof_C 	C 	0.12974	0.64884	0.11818	0.092
Mof_C 	C 	0.1078	0.63235	0.20336	0.083
Mof_H 	H 	0.1295	0.6395	0.0854	-0.003
Mof_C 	C 	0.15384	0.68923	0.13166	-0.156
Mof_C 	C 	0.13418	0.67386	0.21625	-0.151
Mof_H 	H 	0.0926	0.6131	0.2271	0.006
Mof_H 	H 	0.1685	0.7087	0.1078	0.08
Mof_C 	C 	0.15749	0.70309	0.18232	0.073
Mof_H 	H 	0.1362	0.6823	0.2492	0.083
Mof_C 	C 	0.18523	0.74651	0.19679	0.016
Mof_C 	C 	0.22641	0.76137	0.17033	-0.084
Mof_H 	H 	0.2362	0.7438	0.1428	0.058
Mof_H 	H 	0.8879	0.4708	0.9901	0.164
Mof_H 	H 	0.903	0.5176	0.9764	0.025
Mof_O 	O 	0.05311	0.4467	0.83082	-0.535
Mof_C 	C 	0.07727	0.42567	0.86213	0.477
Mof_C 	C 	0.10461	0.3799	0.84695	-0.177
Mof_O 	O 	0.07774	0.43663	0.90705	-0.542
Mof_C 	C 	0.12974	0.35116	0.88182	0.092
Mof_C 	C 	0.1078	0.36765	0.79664	0.082
Mof_H 	H 	0.1295	0.3605	0.9146	-0.001
Mof_C 	C 	0.15384	0.31077	0.86834	-0.155
Mof_C 	C 	0.13418	0.32614	0.78375	-0.15
Mof_H 	H 	0.0926	0.3869	0.7729	0.007
Mof_H 	H 	0.1685	0.2913	0.8922	0.081
Mof_C 	C 	0.15749	0.29691	0.81768	0.072
Mof_H 	H 	0.1362	0.3177	0.7508	0.083
Mof_C 	C 	0.18523	0.25349	0.80321	0.016
Mof_C 	C 	0.22641	0.23863	0.82967	-0.084
Mof_H 	H 	0.2362	0.2562	0.8572	0.058
Mof_H 	H 	0.8879	0.5292	0.0099	0.263
Mof_H 	H 	0.903	0.4824	0.0236	-0.022
Mof_O 	O 	0.94689	0.5533	0.83082	-0.53
Mof_C 	C 	0.92273	0.57433	0.86213	0.476
Mof_C 	C 	0.89539	0.6201	0.84695	-0.175
Mof_O 	O 	0.92226	0.56337	0.90705	-0.539
Mof_C 	C 	0.87026	0.64884	0.88182	0.091
Mof_C 	C 	0.8922	0.63235	0.79664	0.081
Mof_H 	H 	0.8705	0.6395	0.9146	0
Mof_C 	C 	0.84616	0.68923	0.86834	-0.153
Mof_C 	C 	0.86582	0.67386	0.78375	-0.148
Mof_H 	H 	0.9074	0.6131	0.7729	0.008
Mof_H 	H 	0.8315	0.7087	0.8922	0.082
Mof_C 	C 	0.84251	0.70309	0.81768	0.072
Mof_H 	H 	0.8638	0.6823	0.7508	0.083
Mof_C 	C 	0.81477	0.74651	0.80321	0.018
Mof_C 	C 	0.77359	0.76137	0.82967	-0.085
Mof_H 	H 	0.7638	0.7438	0.8572	0.059
Mof_H 	H 	0.1121	0.4708	0.0099	0.26
Mof_H 	H 	0.097	0.5176	0.0236	-0.023
Mof_O 	O 	0.16918	0.94689	0.4467	-0.531
Mof_C 	C 	0.13787	0.92273	0.42567	0.476
Mof_C 	C 	0.15305	0.89539	0.3799	-0.176
Mof_O 	O 	0.09295	0.92226	0.43663	-0.541
Mof_C 	C 	0.11818	0.87026	0.35116	0.092
Mof_C 	C 	0.20336	0.8922	0.36765	0.082
Mof_H 	H 	0.0854	0.8705	0.3605	-0.003
Mof_C 	C 	0.13166	0.84616	0.31077	-0.155
Mof_C 	C 	0.21625	0.86582	0.32614	-0.149
Mof_H 	H 	0.2271	0.9074	0.3869	0.008
Mof_H 	H 	0.1078	0.8315	0.2913	0.08
Mof_C 	C 	0.18232	0.84251	0.29691	0.072
Mof_H 	H 	0.2492	0.8638	0.3177	0.083
Mof_C 	C 	0.19679	0.81477	0.25349	0.016
Mof_C 	C 	0.17033	0.77359	0.23863	-0.084
Mof_H 	H 	0.1428	0.7638	0.2562	0.058
Mof_H 	H 	0.9901	0.1121	0.5292	0.165
Mof_H 	H 	0.9764	0.097	0.4824	0.021
Mof_O 	O 	0.16918	0.05311	0.5533	-0.535
Mof_C 	C 	0.13787	0.07727	0.57433	0.477
Mof_C 	C 	0.15305	0.10461	0.6201	-0.178
Mof_O 	O 	0.09295	0.07774	0.56337	-0.543
Mof_C 	C 	0.11818	0.12974	0.64884	0.092
Mof_C 	C 	0.20336	0.1078	0.63235	0.083
Mof_H 	H 	0.0854	0.1295	0.6395	-0.003
Mof_C 	C 	0.13166	0.15384	0.68923	-0.156
Mof_C 	C 	0.21625	0.13418	0.67386	-0.151
Mof_H 	H 	0.2271	0.0926	0.6131	0.006
Mof_H 	H 	0.1078	0.1685	0.7087	0.08
Mof_C 	C 	0.18232	0.15749	0.70309	0.073
Mof_H 	H 	0.2492	0.1362	0.6823	0.083
Mof_C 	C 	0.19679	0.18523	0.74651	0.016
Mof_C 	C 	0.17033	0.22641	0.76137	-0.084
Mof_H 	H 	0.1428	0.2362	0.7438	0.058
Mof_H 	H 	0.9901	0.8879	0.4708	0.164
Mof_H 	H 	0.9764	0.903	0.5176	0.025
Mof_O 	O 	0.83082	0.05311	0.4467	-0.535
Mof_C 	C 	0.86213	0.07727	0.42567	0.477
Mof_C 	C 	0.84695	0.10461	0.3799	-0.177
Mof_O 	O 	0.90705	0.07774	0.43663	-0.542
Mof_C 	C 	0.88182	0.12974	0.35116	0.092
Mof_C 	C 	0.79664	0.1078	0.36765	0.082
Mof_H 	H 	0.9146	0.1295	0.3605	-0.001
Mof_C 	C 	0.86834	0.15384	0.31077	-0.155
Mof_C 	C 	0.78375	0.13418	0.32614	-0.15
Mof_H 	H 	0.7729	0.0926	0.3869	0.007
Mof_H 	H 	0.8922	0.1685	0.2913	0.081
Mof_C 	C 	0.81768	0.15749	0.29691	0.072
Mof_H 	H 	0.7508	0.1362	0.3177	0.083
Mof_C 	C 	0.80321	0.18523	0.25349	0.016
Mof_C 	C 	0.82967	0.22641	0.23863	-0.084
Mof_H 	H 	0.8572	0.2362	0.2562	0.058
Mof_H 	H 	0.0099	0.8879	0.5292	0.263
Mof_H 	H 	0.0236	0.903	0.4824	-0.022
Mof_O 	O 	0.83082	0.94689	0.5533	-0.53
Mof_C 	C 	0.86213	0.92273	0.57433	0.476
Mof_C 	C 	0.84695	0.89539	0.6201	-0.175
Mof_O 	O 	0.90705	0.92226	0.56337	-0.539
Mof_C 	C 	0.88182	0.87026	0.64884	0.091
Mof_C 	C 	0.79664	0.8922	0.63235	0.081
Mof_H 	H 	0.9146	0.8705	0.6395	0
Mof_C 	C 	0.86834	0.84616	0.68923	-0.153
Mof_C 	C 	0.78375	0.86582	0.67386	-0.148
Mof_H 	H 	0.7729	0.9074	0.6131	0.008
Mof_H 	H 	0.8922	0.8315	0.7087	0.082
Mof_C 	C 	0.81768	0.84251	0.70309	0.072
Mof_H 	H 	0.7508	0.8638	0.6823	0.083
Mof_C 	C 	0.80321	0.81477	0.74651	0.018
Mof_C 	C 	0.82967	0.77359	0.76137	-0.085
Mof_H 	H 	0.8572	0.7638	0.7438	0.059
Mof_H 	H 	0.0099	0.1121	0.4708	0.26
Mof_H 	H 	0.0236	0.097	0.5176	-0.023
Mof_O 	O 	0.4467	0.16918	0.94689	-0.531
Mof_C 	C 	0.42567	0.13787	0.92273	0.476
Mof_C 	C 	0.3799	0.15305	0.89539	-0.176
Mof_O 	O 	0.43663	0.09295	0.92226	-0.541
Mof_C 	C 	0.35116	0.11818	0.87026	0.092
Mof_C 	C 	0.36765	0.20336	0.8922	0.082
Mof_H 	H 	0.3605	0.0854	0.8705	-0.003
Mof_C 	C 	0.31077	0.13166	0.84616	-0.155
Mof_C 	C 	0.32614	0.21625	0.86582	-0.149
Mof_H 	H 	0.3869	0.2271	0.9074	0.008
Mof_H 	H 	0.2913	0.1078	0.8315	0.08
Mof_C 	C 	0.29691	0.18232	0.84251	0.072
Mof_H 	H 	0.3177	0.2492	0.8638	0.083
Mof_C 	C 	0.25349	0.19679	0.81477	0.016
Mof_C 	C 	0.23863	0.17033	0.77359	-0.084
Mof_H 	H 	0.2562	0.1428	0.7638	0.058
Mof_H 	H 	0.5292	0.9901	0.1121	0.165
Mof_H 	H 	0.4824	0.9764	0.097	0.021
Mof_O 	O 	0.5533	0.16918	0.05311	-0.535
Mof_C 	C 	0.57433	0.13787	0.07727	0.477
Mof_C 	C 	0.6201	0.15305	0.10461	-0.178
Mof_O 	O 	0.56337	0.09295	0.07774	-0.543
Mof_C 	C 	0.64884	0.11818	0.12974	0.092
Mof_C 	C 	0.63235	0.20336	0.1078	0.083
Mof_H 	H 	0.6395	0.0854	0.1295	-0.003
Mof_C 	C 	0.68923	0.13166	0.15384	-0.156
Mof_C 	C 	0.67386	0.21625	0.13418	-0.151
Mof_H 	H 	0.6131	0.2271	0.0926	0.006
Mof_H 	H 	0.7087	0.1078	0.1685	0.08
Mof_C 	C 	0.70309	0.18232	0.15749	0.073
Mof_H 	H 	0.6823	0.2492	0.1362	0.083
Mof_C 	C 	0.74651	0.19679	0.18523	0.016
Mof_C 	C 	0.76137	0.17033	0.22641	-0.084
Mof_H 	H 	0.7438	0.1428	0.2362	0.058
Mof_H 	H 	0.4708	0.9901	0.8879	0.164
Mof_H 	H 	0.5176	0.9764	0.903	0.025
Mof_O 	O 	0.4467	0.83082	0.05311	-0.535
Mof_C 	C 	0.42567	0.86213	0.07727	0.477
Mof_C 	C 	0.3799	0.84695	0.10461	-0.177
Mof_O 	O 	0.43663	0.90705	0.07774	-0.542
Mof_C 	C 	0.35116	0.88182	0.12974	0.092
Mof_C 	C 	0.36765	0.79664	0.1078	0.082
Mof_H 	H 	0.3605	0.9146	0.1295	-0.001
Mof_C 	C 	0.31077	0.86834	0.15384	-0.155
Mof_C 	C 	0.32614	0.78375	0.13418	-0.15
Mof_H 	H 	0.3869	0.7729	0.0926	0.007
Mof_H 	H 	0.2913	0.8922	0.1685	0.081
Mof_C 	C 	0.29691	0.81768	0.15749	0.072
Mof_H 	H 	0.3177	0.7508	0.1362	0.083
Mof_C 	C 	0.25349	0.80321	0.18523	0.016
Mof_C 	C 	0.23863	0.82967	0.22641	-0.084
Mof_H 	H 	0.2562	0.8572	0.2362	0.058
Mof_H 	H 	0.5292	0.0099	0.8879	0.263
Mof_H 	H 	0.4824	0.0236	0.903	-0.022
Mof_O 	O 	0.5533	0.83082	0.94689	-0.53
Mof_C 	C 	0.57433	0.86213	0.92273	0.476
Mof_C 	C 	0.6201	0.84695	0.89539	-0.175
Mof_O 	O 	0.56337	0.90705	0.92226	-0.539
Mof_C 	C 	0.64884	0.88182	0.87026	0.091
Mof_C 	C 	0.63235	0.79664	0.8922	0.081
Mof_H 	H 	0.6395	0.9146	0.8705	0
Mof_C 	C 	0.68923	0.86834	0.84616	-0.153
Mof_C 	C 	0.67386	0.78375	0.86582	-0.148
Mof_H 	H 	0.6131	0.7729	0.9074	0.008
Mof_H 	H 	0.7087	0.8922	0.8315	0.082
Mof_C 	C 	0.70309	0.81768	0.84251	0.072
Mof_H 	H 	0.6823	0.7508	0.8638	0.083
Mof_C 	C 	0.74651	0.80321	0.81477	0.018
Mof_C 	C 	0.76137	0.82967	0.77359	-0.085
Mof_H 	H 	0.7438	0.8572	0.7638	0.059
Mof_H 	H 	0.4708	0.0099	0.1121	0.26
Mof_H 	H 	0.5176	0.0236	0.097	-0.023
Mof_O 	O 	0.05311	0.5533	0.83082	-0.535
Mof_C 	C 	0.07727	0.57433	0.86213	0.477
Mof_C 	C 	0.10461	0.6201	0.84695	-0.177
Mof_O 	O 	0.07774	0.56337	0.90705	-0.542
Mof_C 	C 	0.12974	0.64884	0.88182	0.092
Mof_C 	C 	0.1078	0.63235	0.79664	0.082
Mof_H 	H 	0.1295	0.6395	0.9146	-0.001
Mof_C 	C 	0.15384	0.68923	0.86834	-0.155
Mof_C 	C 	0.13418	0.67386	0.78375	-0.15
Mof_H 	H 	0.0926	0.6131	0.7729	0.007
Mof_H 	H 	0.1685	0.7087	0.8922	0.082
Mof_C 	C 	0.15749	0.70309	0.81768	0.073
Mof_H 	H 	0.1362	0.6823	0.7508	0.083
Mof_C 	C 	0.18523	0.74651	0.80321	0.016
Mof_C 	C 	0.22641	0.76137	0.82967	-0.084
Mof_H 	H 	0.2362	0.7438	0.8572	0.059
Mof_H 	H 	0.8879	0.4708	0.0099	0.263
Mof_H 	H 	0.903	0.5176	0.0236	-0.022
Mof_O 	O 	0.94689	0.4467	0.83082	-0.53
Mof_C 	C 	0.92273	0.42567	0.86213	0.476
Mof_C 	C 	0.89539	0.3799	0.84695	-0.175
Mof_O 	O 	0.92226	0.43663	0.90705	-0.539
Mof_C 	C 	0.87026	0.35116	0.88182	0.091
Mof_C 	C 	0.8922	0.36765	0.79664	0.081
Mof_H 	H 	0.8705	0.3605	0.9146	0
Mof_C 	C 	0.84616	0.31077	0.86834	-0.153
Mof_C 	C 	0.86582	0.32614	0.78375	-0.149
Mof_H 	H 	0.9074	0.3869	0.7729	0.008
Mof_H 	H 	0.8315	0.2913	0.8922	0.082
Mof_C 	C 	0.84251	0.29691	0.81768	0.072
Mof_H 	H 	0.8638	0.3177	0.7508	0.083
Mof_C 	C 	0.81477	0.25349	0.80321	0.017
Mof_C 	C 	0.77359	0.23863	0.82967	-0.085
Mof_H 	H 	0.7638	0.2562	0.8572	0.059
Mof_H 	H 	0.1121	0.5292	0.0099	0.26
Mof_H 	H 	0.097	0.4824	0.0236	-0.023
Mof_O 	O 	0.94689	0.5533	0.16918	-0.531
Mof_C 	C 	0.92273	0.57433	0.13787	0.476
Mof_C 	C 	0.89539	0.6201	0.15305	-0.176
Mof_O 	O 	0.92226	0.56337	0.09295	-0.541
Mof_C 	C 	0.87026	0.64884	0.11818	0.092
Mof_C 	C 	0.8922	0.63235	0.20336	0.082
Mof_H 	H 	0.8705	0.6395	0.0854	-0.002
Mof_C 	C 	0.84616	0.68923	0.13166	-0.154
Mof_C 	C 	0.86582	0.67386	0.21625	-0.149
Mof_H 	H 	0.9074	0.6131	0.2271	0.008
Mof_H 	H 	0.8315	0.7087	0.1078	0.08
Mof_C 	C 	0.84251	0.70309	0.18232	0.072
Mof_H 	H 	0.8638	0.6823	0.2492	0.083
Mof_C 	C 	0.81477	0.74651	0.19679	0.017
Mof_C 	C 	0.77359	0.76137	0.17033	-0.084
Mof_H 	H 	0.7638	0.7438	0.1428	0.058
Mof_H 	H 	0.1121	0.4708	0.9901	0.165
Mof_H 	H 	0.097	0.5176	0.9764	0.021
Mof_O 	O 	0.05311	0.4467	0.16918	-0.535
Mof_C 	C 	0.07727	0.42567	0.13787	0.477
Mof_C 	C 	0.10461	0.3799	0.15305	-0.178
Mof_O 	O 	0.07774	0.43663	0.09295	-0.543
Mof_C 	C 	0.12974	0.35116	0.11818	0.092
Mof_C 	C 	0.1078	0.36765	0.20336	0.083
Mof_H 	H 	0.1295	0.3605	0.0854	-0.003
Mof_C 	C 	0.15384	0.31077	0.13166	-0.156
Mof_C 	C 	0.13418	0.32614	0.21625	-0.151
Mof_H 	H 	0.0926	0.3869	0.2271	0.006
Mof_H 	H 	0.1685	0.2913	0.1078	0.08
Mof_C 	C 	0.15749	0.29691	0.18232	0.073
Mof_H 	H 	0.1362	0.3177	0.2492	0.083
Mof_C 	C 	0.18523	0.25349	0.19679	0.015
Mof_C 	C 	0.22641	0.23863	0.17033	-0.084
Mof_H 	H 	0.2362	0.2562	0.1428	0.057
Mof_H 	H 	0.8879	0.5292	0.9901	0.164
Mof_H 	H 	0.903	0.4824	0.9764	0.025
Mof_O 	O 	0.83082	0.05311	0.5533	-0.535
Mof_C 	C 	0.86213	0.07727	0.57433	0.477
Mof_C 	C 	0.84695	0.10461	0.6201	-0.177
Mof_O 	O 	0.90705	0.07774	0.56337	-0.542
Mof_C 	C 	0.88182	0.12974	0.64884	0.092
Mof_C 	C 	0.79664	0.1078	0.63235	0.082
Mof_H 	H 	0.9146	0.1295	0.6395	-0.001
Mof_C 	C 	0.86834	0.15384	0.68923	-0.155
Mof_C 	C 	0.78375	0.13418	0.67386	-0.15
Mof_H 	H 	0.7729	0.0926	0.6131	0.007
Mof_H 	H 	0.8922	0.1685	0.7087	0.082
Mof_C 	C 	0.81768	0.15749	0.70309	0.073
Mof_H 	H 	0.7508	0.1362	0.6823	0.083
Mof_C 	C 	0.80321	0.18523	0.74651	0.016
Mof_C 	C 	0.82967	0.22641	0.76137	-0.084
Mof_H 	H 	0.8572	0.2362	0.7438	0.059
Mof_H 	H 	0.0099	0.8879	0.4708	0.263
Mof_H 	H 	0.0236	0.903	0.5176	-0.022
Mof_O 	O 	0.83082	0.94689	0.4467	-0.53
Mof_C 	C 	0.86213	0.92273	0.42567	0.476
Mof_C 	C 	0.84695	0.89539	0.3799	-0.175
Mof_O 	O 	0.90705	0.92226	0.43663	-0.539
Mof_C 	C 	0.88182	0.87026	0.35116	0.091
Mof_C 	C 	0.79664	0.8922	0.36765	0.081
Mof_H 	H 	0.9146	0.8705	0.3605	0
Mof_C 	C 	0.86834	0.84616	0.31077	-0.153
Mof_C 	C 	0.78375	0.86582	0.32614	-0.149
Mof_H 	H 	0.7729	0.9074	0.3869	0.008
Mof_H 	H 	0.8922	0.8315	0.2913	0.082
Mof_C 	C 	0.81768	0.84251	0.29691	0.072
Mof_H 	H 	0.7508	0.8638	0.3177	0.083
Mof_C 	C 	0.80321	0.81477	0.25349	0.017
Mof_C 	C 	0.82967	0.77359	0.23863	-0.085
Mof_H 	H 	0.8572	0.7638	0.2562	0.059
Mof_H 	H 	0.0099	0.1121	0.5292	0.26
Mof_H 	H 	0.0236	0.097	0.4824	-0.023
Mof_O 	O 	0.16918	0.94689	0.5533	-0.531
Mof_C 	C 	0.13787	0.92273	0.57433	0.476
Mof_C 	C 	0.15305	0.89539	0.6201	-0.176
Mof_O 	O 	0.09295	0.92226	0.56337	-0.541
Mof_C 	C 	0.11818	0.87026	0.64884	0.092
Mof_C 	C 	0.20336	0.8922	0.63235	0.082
Mof_H 	H 	0.0854	0.8705	0.6395	-0.002
Mof_C 	C 	0.13166	0.84616	0.68923	-0.154
Mof_C 	C 	0.21625	0.86582	0.67386	-0.149
Mof_H 	H 	0.2271	0.9074	0.6131	0.008
Mof_H 	H 	0.1078	0.8315	0.7087	0.08
Mof_C 	C 	0.18232	0.84251	0.70309	0.072
Mof_H 	H 	0.2492	0.8638	0.6823	0.083
Mof_C 	C 	0.19679	0.81477	0.74651	0.017
Mof_C 	C 	0.17033	0.77359	0.76137	-0.084
Mof_H 	H 	0.1428	0.7638	0.7438	0.058
Mof_H 	H 	0.9901	0.1121	0.4708	0.165
Mof_H 	H 	0.9764	0.097	0.5176	0.021
Mof_O 	O 	0.16918	0.05311	0.4467	-0.535
Mof_C 	C 	0.13787	0.07727	0.42567	0.477
Mof_C 	C 	0.15305	0.10461	0.3799	-0.178
Mof_O 	O 	0.09295	0.07774	0.43663	-0.543
Mof_C 	C 	0.11818	0.12974	0.35116	0.092
Mof_C 	C 	0.20336	0.1078	0.36765	0.083
Mof_H 	H 	0.0854	0.1295	0.3605	-0.003
Mof_C 	C 	0.13166	0.15384	0.31077	-0.156
Mof_C 	C 	0.21625	0.13418	0.32614	-0.151
Mof_H 	H 	0.2271	0.0926	0.3869	0.006
Mof_H 	H 	0.1078	0.1685	0.2913	0.08
Mof_C 	C 	0.18232	0.15749	0.29691	0.073
Mof_H 	H 	0.2492	0.1362	0.3177	0.083
Mof_C 	C 	0.19679	0.18523	0.25349	0.015
Mof_C 	C 	0.17033	0.22641	0.23863	-0.084
Mof_H 	H 	0.1428	0.2362	0.2562	0.057
Mof_H 	H 	0.9901	0.8879	0.5292	0.164
Mof_H 	H 	0.9764	0.903	0.4824	0.025
Mof_O 	O 	0.5533	0.83082	0.05311	-0.535
Mof_C 	C 	0.57433	0.86213	0.07727	0.477
Mof_C 	C 	0.6201	0.84695	0.10461	-0.177
Mof_O 	O 	0.56337	0.90705	0.07774	-0.542
Mof_C 	C 	0.64884	0.88182	0.12974	0.092
Mof_C 	C 	0.63235	0.79664	0.1078	0.082
Mof_H 	H 	0.6395	0.9146	0.1295	-0.001
Mof_C 	C 	0.68923	0.86834	0.15384	-0.155
Mof_C 	C 	0.67386	0.78375	0.13418	-0.15
Mof_H 	H 	0.6131	0.7729	0.0926	0.007
Mof_H 	H 	0.7087	0.8922	0.1685	0.082
Mof_C 	C 	0.70309	0.81768	0.15749	0.073
Mof_H 	H 	0.6823	0.7508	0.1362	0.083
Mof_C 	C 	0.74651	0.80321	0.18523	0.016
Mof_C 	C 	0.76137	0.82967	0.22641	-0.084
Mof_H 	H 	0.7438	0.8572	0.2362	0.059
Mof_H 	H 	0.4708	0.0099	0.8879	0.263
Mof_H 	H 	0.5176	0.0236	0.903	-0.022
Mof_O 	O 	0.4467	0.83082	0.94689	-0.53
Mof_C 	C 	0.42567	0.86213	0.92273	0.476
Mof_C 	C 	0.3799	0.84695	0.89539	-0.175
Mof_O 	O 	0.43663	0.90705	0.92226	-0.539
Mof_C 	C 	0.35116	0.88182	0.87026	0.091
Mof_C 	C 	0.36765	0.79664	0.8922	0.081
Mof_H 	H 	0.3605	0.9146	0.8705	0
Mof_C 	C 	0.31077	0.86834	0.84616	-0.153
Mof_C 	C 	0.32614	0.78375	0.86582	-0.149
Mof_H 	H 	0.3869	0.7729	0.9074	0.008
Mof_H 	H 	0.2913	0.8922	0.8315	0.082
Mof_C 	C 	0.29691	0.81768	0.84251	0.072
Mof_H 	H 	0.3177	0.7508	0.8638	0.083
Mof_C 	C 	0.25349	0.80321	0.81477	0.017
Mof_C 	C 	0.23863	0.82967	0.77359	-0.085
Mof_H 	H 	0.2562	0.8572	0.7638	0.059
Mof_H 	H 	0.5292	0.0099	0.1121	0.26
Mof_H 	H 	0.4824	0.0236	0.097	-0.023
Mof_O 	O 	0.5533	0.16918	0.94689	-0.531
Mof_C 	C 	0.57433	0.13787	0.92273	0.476
Mof_C 	C 	0.6201	0.15305	0.89539	-0.176
Mof_O 	O 	0.56337	0.09295	0.92226	-0.541
Mof_C 	C 	0.64884	0.11818	0.87026	0.092
Mof_C 	C 	0.63235	0.20336	0.8922	0.082
Mof_H 	H 	0.6395	0.0854	0.8705	-0.002
Mof_C 	C 	0.68923	0.13166	0.84616	-0.154
Mof_C 	C 	0.67386	0.21625	0.86582	-0.149
Mof_H 	H 	0.6131	0.2271	0.9074	0.008
Mof_H 	H 	0.7087	0.1078	0.8315	0.08
Mof_C 	C 	0.70309	0.18232	0.84251	0.072
Mof_H 	H 	0.6823	0.2492	0.8638	0.083
Mof_C 	C 	0.74651	0.19679	0.81477	0.017
Mof_C 	C 	0.76137	0.17033	0.77359	-0.084
Mof_H 	H 	0.7438	0.1428	0.7638	0.058
Mof_H 	H 	0.4708	0.9901	0.1121	0.165
Mof_H 	H 	0.5176	0.9764	0.097	0.021
Mof_O 	O 	0.4467	0.16918	0.05311	-0.535
Mof_C 	C 	0.42567	0.13787	0.07727	0.477
Mof_C 	C 	0.3799	0.15305	0.10461	-0.178
Mof_O 	O 	0.43663	0.09295	0.07774	-0.543
Mof_C 	C 	0.35116	0.11818	0.12974	0.092
Mof_C 	C 	0.36765	0.20336	0.1078	0.083
Mof_H 	H 	0.3605	0.0854	0.1295	-0.003
Mof_C 	C 	0.31077	0.13166	0.15384	-0.156
Mof_C 	C 	0.32614	0.21625	0.13418	-0.151
Mof_H 	H 	0.3869	0.2271	0.0926	0.006
Mof_H 	H 	0.2913	0.1078	0.1685	0.08
Mof_C 	C 	0.29691	0.18232	0.15749	0.073
Mof_H 	H 	0.3177	0.2492	0.1362	0.083
Mof_C 	C 	0.25349	0.19679	0.18523	0.015
Mof_C 	C 	0.23863	0.17033	0.22641	-0.084
Mof_H 	H 	0.2562	0.1428	0.2362	0.057
Mof_H 	H 	0.5292	0.9901	0.8879	0.164
Mof_H 	H 	0.4824	0.9764	0.903	0.025
Mof_Mg	Mg	1.88156e-33	0.5	0.16943	1.474
Mof_O 	O 	2.84428e-33	0.5	0.0938	-0.925
Mof_Mg	Mg	-1.68266e-32	0.5	0.83057	1.474
Mof_O 	O 	-6.57265e-33	0.5	0.9062	-0.925
Mof_Mg	Mg	0.16943	4.98518e-33	0.5	1.474
Mof_O 	O 	0.0938	4.98518e-33	0.5	-0.925
Mof_Mg	Mg	0.83057	4.98518e-33	0.5	1.474
Mof_O 	O 	0.9062	4.98518e-33	0.5	-0.925
Mof_Mg	Mg	0.5	0.16943	-0	1.474
Mof_O 	O 	0.5	0.0938	-0	-0.925
Mof_Mg	Mg	0.5	0.83057	-0	1.474
Mof_O 	O 	0.5	0.9062	-0	-0.925
Mof_Mg	Mg	0.05385	0.5	0.05774	1.471
Mof_Mg	Mg	0.94615	0.5	0.05774	1.472
Mof_Mg	Mg	0.94615	0.5	0.94226	1.471
Mof_Mg	Mg	0.05385	0.5	0.94226	1.47
Mof_Mg	Mg	0.05774	0.05385	0.5	1.471
Mof_Mg	Mg	0.05774	0.94615	0.5	1.472
Mof_Mg	Mg	0.94226	0.94615	0.5	1.471
Mof_Mg	Mg	0.94226	0.05385	0.5	1.47
Mof_Mg	Mg	0.5	0.05774	0.05385	1.471
Mof_Mg	Mg	0.5	0.05774	0.94615	1.472
Mof_Mg	Mg	0.5	0.94226	0.94615	1.471
Mof_Mg	Mg	0.5	0.94226	0.05385	1.47
Mof_O 	O 	-0	0.5	-0	-0.888
Mof_O 	O 	1.8747e-33	4.98518e-33	0.5	-0.888
Mof_O 	O 	0.5	0	-0	-0.888
Mof_O 	O 	0.10724	0.5	-0	-1.205
Mof_O 	O 	0.89276	0.5	-0	-1.215
Mof_O 	O 	-3.11048e-33	0.10724	0.5	-1.205
Mof_O 	O 	-3.11048e-33	0.89276	0.5	-1.215
Mof_O 	O 	0.5	0	0.10724	-1.205
Mof_O 	O 	0.5	0	0.89276	-1.215
_end
