data_functionalizedCrystal
_audit_creation_method	'EQeq! by Chris Wilmer'
_symmetry_space_group_name_H-M	'P1'
_symmetry_Int_Tables_number	1
_symmetry_cell_setting	triclinic
loop_
_symmetry_equiv_pos_as_xyz
  x,y,z
_cell_length_a	8.254
_cell_length_b	18.896
_cell_length_c	18.006
_cell_angle_alpha	90
_cell_angle_beta	90
_cell_angle_gamma	90
loop_
_atom_site_label
_atom_site_type_symbol
_atom_site_fract_x
_atom_site_fract_y
_atom_site_fract_z
_atom_site_charge
Mof_Cd	Cd	0.51269	0.97273	0.90663	0.443
Mof_O 	O 	0.3732	0.3639	0.9388	-0.255
Mof_O 	O 	0.2148	0.4426	0.8823	-0.274
Mof_O 	O 	0.7583	0.0016	0.4339	-0.272
Mof_O 	O 	0.5868	0.011	0.528	-0.259
Mof_N 	N 	0.5751	0.0889	0.899	-0.149
Mof_N 	N 	0.7068	0.1889	0.9128	-0.117
Mof_N 	N 	0.5439	0.2051	0.9198	-0.075
Mof_N 	N 	0.4184	0.9412	0.794	-0.151
Mof_N 	N 	0.2549	0.9374	0.6968	-0.119
Mof_N 	N 	0.3846	0.892	0.6819	-0.078
Mof_C 	C 	0.4627	0.1419	0.9121	0.086
Mof_H 	H 	0.3511	0.1359	0.9151	0.021
Mof_C 	C 	0.7191	0.1185	0.8994	0.106
Mof_H 	H 	0.816	0.0946	0.8915	0.011
Mof_C 	C 	0.8385	0.2375	0.9142	0.163
Mof_C 	C 	0.9868	0.2168	0.9451	-0.166
Mof_H 	H 	0.9985	0.172	0.9658	0.103
Mof_C 	C 	0.1158	0.2636	0.9445	0.07
Mof_H 	H 	0.2158	0.2494	0.963	0.031
Mof_C 	C 	0.0975	0.3319	0.9163	-0.106
Mof_C 	C 	0.9468	0.3525	0.8877	0.066
Mof_H 	H 	0.9336	0.3978	0.8685	0.033
Mof_C 	C 	0.8167	0.3056	0.8878	-0.161
Mof_H 	H 	0.7159	0.3199	0.8702	0.113
Mof_C 	C 	0.237	0.3828	0.9118	0.296
Mof_C 	C 	0.4854	0.8947	0.7421	0.081
Mof_H 	H 	0.582	0.8699	0.7475	0.021
Mof_C 	C 	0.2826	0.9648	0.7655	0.104
Mof_H 	H 	0.2137	0.9964	0.7893	0.015
Mof_C 	C 	0.122	0.9522	0.6489	0.165
Mof_C 	C 	0.1529	0.9639	0.5741	-0.165
Mof_H 	H 	0.258	0.9613	0.5556	0.114
Mof_C 	C 	0.0234	0.9797	0.5269	0.063
Mof_H 	H 	0.0424	0.9874	0.4767	0.034
Mof_C 	C 	0.866	0.9839	0.5545	-0.109
Mof_C 	C 	0.8388	0.9729	0.6301	0.071
Mof_H 	H 	0.7339	0.976	0.6487	0.029
Mof_C 	C 	0.9661	0.9572	0.6783	-0.172
Mof_H 	H 	0.9476	0.9502	0.7287	0.108
Mof_C 	C 	0.7275	0.9998	0.5027	0.299
Mof_Cd	Cd	0.48731	0.02727	0.40663	0.442
Mof_O 	O 	0.6268	0.6361	0.4388	-0.257
Mof_O 	O 	0.7852	0.5574	0.3823	-0.275
Mof_O 	O 	0.2417	0.9984	0.9339	-0.271
Mof_O 	O 	0.4132	0.989	0.028	-0.261
Mof_N 	N 	0.4249	0.9111	0.399	-0.151
Mof_N 	N 	0.2932	0.8111	0.4128	-0.118
Mof_N 	N 	0.4561	0.7949	0.4198	-0.076
Mof_N 	N 	0.5816	0.0588	0.294	-0.151
Mof_N 	N 	0.7451	0.0626	0.1968	-0.118
Mof_N 	N 	0.6154	0.108	0.1819	-0.079
Mof_C 	C 	0.5373	0.8581	0.4121	0.085
Mof_H 	H 	0.6489	0.8641	0.4151	0.02
Mof_C 	C 	0.2809	0.8815	0.3994	0.104
Mof_H 	H 	0.184	0.9054	0.3915	0.01
Mof_C 	C 	0.1615	0.7625	0.4142	0.162
Mof_C 	C 	0.0132	0.7832	0.4451	-0.166
Mof_H 	H 	0.0015	0.828	0.4658	0.101
Mof_C 	C 	0.8842	0.7364	0.4445	0.069
Mof_H 	H 	0.7842	0.7506	0.463	0.031
Mof_C 	C 	0.9025	0.6681	0.4163	-0.106
Mof_C 	C 	0.0532	0.6475	0.3877	0.066
Mof_H 	H 	0.0664	0.6022	0.3685	0.033
Mof_C 	C 	0.1833	0.6944	0.3878	-0.161
Mof_H 	H 	0.2841	0.6801	0.3702	0.112
Mof_C 	C 	0.763	0.6172	0.4118	0.295
Mof_C 	C 	0.5146	0.1053	0.2421	0.081
Mof_H 	H 	0.418	0.1301	0.2475	0.021
Mof_C 	C 	0.7174	0.0352	0.2655	0.103
Mof_H 	H 	0.7863	0.0036	0.2893	0.015
Mof_C 	C 	0.878	0.0478	0.1489	0.158
Mof_C 	C 	0.8471	0.0361	0.0741	-0.154
Mof_H 	H 	0.742	0.0387	0.0556	0.109
Mof_C 	C 	0.9766	0.0203	0.0269	0.041
Mof_H 	H 	0.9576	0.0126	0.9767	0.045
Mof_C 	C 	0.134	0.0161	0.0545	-0.1
Mof_C 	C 	0.1612	0.0271	0.1301	0.063
Mof_H 	H 	0.2661	0.024	0.1487	0.032
Mof_C 	C 	0.0339	0.0428	0.1783	-0.165
Mof_H 	H 	0.0524	0.0498	0.2287	0.106
Mof_C 	C 	0.2725	0.0002	0.0027	0.292
Mof_Cd	Cd	0.48731	0.47273	0.90663	0.443
Mof_O 	O 	0.6268	0.8639	0.9388	-0.256
Mof_O 	O 	0.7852	0.9426	0.8823	-0.275
Mof_O 	O 	0.2417	0.5016	0.4339	-0.275
Mof_O 	O 	0.4132	0.511	0.528	-0.261
Mof_N 	N 	0.4249	0.5889	0.899	-0.15
Mof_N 	N 	0.2932	0.6889	0.9128	-0.118
Mof_N 	N 	0.4561	0.7051	0.9198	-0.075
Mof_N 	N 	0.5816	0.4412	0.794	-0.151
Mof_N 	N 	0.7451	0.4374	0.6968	-0.119
Mof_N 	N 	0.6154	0.392	0.6819	-0.078
Mof_C 	C 	0.5373	0.6419	0.9121	0.086
Mof_H 	H 	0.6489	0.6359	0.9151	0.021
Mof_C 	C 	0.2809	0.6185	0.8994	0.105
Mof_H 	H 	0.184	0.5946	0.8915	0.01
Mof_C 	C 	0.1615	0.7375	0.9142	0.163
Mof_C 	C 	0.0132	0.7168	0.9451	-0.166
Mof_H 	H 	0.0015	0.672	0.9658	0.103
Mof_C 	C 	0.8842	0.7636	0.9445	0.07
Mof_H 	H 	0.7842	0.7494	0.963	0.031
Mof_C 	C 	0.9025	0.8319	0.9163	-0.106
Mof_C 	C 	0.0532	0.8525	0.8877	0.066
Mof_H 	H 	0.0664	0.8978	0.8685	0.033
Mof_C 	C 	0.1833	0.8056	0.8878	-0.161
Mof_H 	H 	0.2841	0.8199	0.8702	0.112
Mof_C 	C 	0.763	0.8828	0.9118	0.296
Mof_C 	C 	0.5146	0.3947	0.7421	0.081
Mof_H 	H 	0.418	0.3699	0.7475	0.021
Mof_C 	C 	0.7174	0.4648	0.7655	0.104
Mof_H 	H 	0.7863	0.4964	0.7893	0.015
Mof_C 	C 	0.878	0.4522	0.6489	0.165
Mof_C 	C 	0.8471	0.4639	0.5741	-0.165
Mof_H 	H 	0.742	0.4613	0.5556	0.115
Mof_C 	C 	0.9766	0.4797	0.5269	0.063
Mof_H 	H 	0.9576	0.4874	0.4767	0.034
Mof_C 	C 	0.134	0.4839	0.5545	-0.11
Mof_C 	C 	0.1612	0.4729	0.6301	0.071
Mof_H 	H 	0.2661	0.476	0.6487	0.029
Mof_C 	C 	0.0339	0.4572	0.6783	-0.172
Mof_H 	H 	0.0524	0.4502	0.7287	0.108
Mof_C 	C 	0.2725	0.4998	0.5027	0.302
Mof_Cd	Cd	0.51269	0.52727	0.40663	0.441
Mof_O 	O 	0.3732	0.1361	0.4388	-0.257
Mof_O 	O 	0.2148	0.0574	0.3823	-0.275
Mof_O 	O 	0.7583	0.4984	0.9339	-0.269
Mof_O 	O 	0.5868	0.489	0.028	-0.262
Mof_N 	N 	0.5751	0.4111	0.399	-0.15
Mof_N 	N 	0.7068	0.3111	0.4128	-0.118
Mof_N 	N 	0.5439	0.2949	0.4198	-0.076
Mof_N 	N 	0.4184	0.5588	0.294	-0.151
Mof_N 	N 	0.2549	0.5626	0.1968	-0.118
Mof_N 	N 	0.3846	0.608	0.1819	-0.079
Mof_C 	C 	0.4627	0.3581	0.4121	0.085
Mof_H 	H 	0.3511	0.3641	0.4151	0.02
Mof_C 	C 	0.7191	0.3815	0.3994	0.104
Mof_H 	H 	0.816	0.4054	0.3915	0.01
Mof_C 	C 	0.8385	0.2625	0.4142	0.162
Mof_C 	C 	0.9868	0.2832	0.4451	-0.166
Mof_H 	H 	0.9985	0.328	0.4658	0.101
Mof_C 	C 	0.1158	0.2364	0.4445	0.069
Mof_H 	H 	0.2158	0.2506	0.463	0.031
Mof_C 	C 	0.0975	0.1681	0.4163	-0.106
Mof_C 	C 	0.9468	0.1475	0.3877	0.066
Mof_H 	H 	0.9336	0.1022	0.3685	0.033
Mof_C 	C 	0.8167	0.1944	0.3878	-0.161
Mof_H 	H 	0.7159	0.1801	0.3702	0.112
Mof_C 	C 	0.237	0.1172	0.4118	0.295
Mof_C 	C 	0.4854	0.6053	0.2421	0.081
Mof_H 	H 	0.582	0.6301	0.2475	0.021
Mof_C 	C 	0.2826	0.5352	0.2655	0.103
Mof_H 	H 	0.2137	0.5036	0.2893	0.015
Mof_C 	C 	0.122	0.5478	0.1489	0.159
Mof_C 	C 	0.1529	0.5361	0.0741	-0.155
Mof_H 	H 	0.258	0.5387	0.0556	0.109
Mof_C 	C 	0.0234	0.5203	0.0269	0.044
Mof_H 	H 	0.0424	0.5126	0.9767	0.043
Mof_C 	C 	0.866	0.5161	0.0545	-0.101
Mof_C 	C 	0.8388	0.5271	0.1301	0.063
Mof_H 	H 	0.7339	0.524	0.1487	0.032
Mof_C 	C 	0.9661	0.5428	0.1783	-0.166
Mof_H 	H 	0.9476	0.5498	0.2287	0.106
Mof_C 	C 	0.7275	0.5002	0.0027	0.291
_end
