data_functionalizedCrystal
_audit_creation_method	'EQeq! by Chris Wilmer'
_symmetry_space_group_name_H-M	'P1'
_symmetry_Int_Tables_number	1
_symmetry_cell_setting	triclinic
loop_
_symmetry_equiv_pos_as_xyz
  x,y,z
_cell_length_a	15.5354
_cell_length_b	15.8981
_cell_length_c	13.3111
_cell_angle_alpha	90
_cell_angle_beta	112.592
_cell_angle_gamma	90
loop_
_atom_site_label
_atom_site_type_symbol
_atom_site_fract_x
_atom_site_fract_y
_atom_site_fract_z
_atom_site_charge
Mof_C 	C 	0.105	0.0447	0.725	-0.064
Mof_C 	C 	0.1968	0.0291	0.7852	0.148
Mof_H 	H 	0.2163	0.0242	0.8603	-0.031
Mof_C 	C 	0.2307	0.0252	0.621	0.451
Mof_C 	C 	0.1373	0.0444	0.5629	-0.346
Mof_H 	H 	0.1166	0.0515	0.4879	0.162
Mof_C 	C 	0.0752	0.0533	0.6113	0.127
Mof_H 	H 	0.013	0.065	0.5694	-0.007
Mof_C 	C 	0.4486	0.2534	0.5676	-0.228
Mof_C 	C 	0.2636	0.0201	0.7372	-0.409
Mof_C 	C 	0.4687	0.4008	0.5406	0.014
Mof_C 	C 	0.4823	0.3192	0.5222	0.039
Mof_H 	H 	0.5148	0.3063	0.4784	0.021
Mof_C 	C 	0.3594	0.0039	0.8063	0.683
Mof_C 	C 	0.4665	0.1621	0.5428	0.571
Mof_C 	C 	0.4171	0.4182	0.602	0.025
Mof_H 	H 	0.4049	0.4741	0.6125	0.036
Mof_C 	C 	0.383	0.3566	0.6484	-0.202
Mof_H 	H 	0.3481	0.3702	0.6893	0.113
Mof_C 	C 	0.4019	0.2733	0.6329	0.267
Mof_C 	C 	0.595	0.66	0.773	-0.003
Mof_N 	N 	0.5087	0.4632	0.4924	-0.078
Mof_N 	N 	0.0425	0.0448	0.7811	-0.073
Mof_O 	O 	0.4452	0.1087	0.595	-0.554
Mof_O 	O 	0.3686	0.2138	0.6786	-0.216
Mof_O 	O 	0.387	0.0105	0.9091	-0.708
Mof_O 	O 	0.4998	0.1505	0.4715	-0.626
Mof_O 	O 	0.4183	0.9846	0.7659	-0.79
Mof_O 	O 	0.285	0.0127	0.5684	-0.581
Mof_Sm	Sm	0.42709	0.9572	0.59258	2.511
Mof_C 	C 	0.895	0.0447	0.775	-0.057
Mof_C 	C 	0.8032	0.0291	0.7148	0.141
Mof_H 	H 	0.7837	0.0242	0.6397	-0.031
Mof_C 	C 	0.7693	0.0252	0.879	0.438
Mof_C 	C 	0.8627	0.0444	0.9371	-0.317
Mof_H 	H 	0.8834	0.0515	0.0121	0.145
Mof_C 	C 	0.9248	0.0533	0.8887	0.11
Mof_H 	H 	0.987	0.065	0.9306	0.001
Mof_C 	C 	0.5514	0.2534	0.9324	-0.233
Mof_C 	C 	0.7364	0.0201	0.7628	-0.402
Mof_C 	C 	0.5313	0.4008	0.9594	0.01
Mof_C 	C 	0.5177	0.3192	0.9778	0.05
Mof_H 	H 	0.4852	0.3063	0.0216	0.015
Mof_C 	C 	0.6406	0.0039	0.6937	0.68
Mof_C 	C 	0.5335	0.1621	0.9572	0.579
Mof_C 	C 	0.5829	0.4182	0.898	0.029
Mof_H 	H 	0.5951	0.4741	0.8875	0.034
Mof_C 	C 	0.617	0.3566	0.8516	-0.205
Mof_H 	H 	0.6519	0.3702	0.8107	0.114
Mof_C 	C 	0.5981	0.2733	0.8671	0.271
Mof_C 	C 	0.405	0.66	0.727	-0.003
Mof_N 	N 	0.4913	0.4632	0.0076	-0.078
Mof_N 	N 	0.9575	0.0448	0.7189	-0.077
Mof_O 	O 	0.5548	0.1087	0.905	-0.552
Mof_O 	O 	0.6314	0.2138	0.8214	-0.217
Mof_O 	O 	0.613	0.0105	0.5909	-0.714
Mof_O 	O 	0.5002	0.1505	0.0285	-0.631
Mof_O 	O 	0.5817	0.9846	0.7341	-0.787
Mof_O 	O 	0.715	0.0127	0.9316	-0.572
Mof_Sm	Sm	0.57291	0.9572	0.90742	2.492
Mof_C 	C 	0.895	0.9553	0.275	-0.064
Mof_C 	C 	0.8032	0.9709	0.2148	0.148
Mof_H 	H 	0.7837	0.9758	0.1397	-0.031
Mof_C 	C 	0.7693	0.9748	0.379	0.451
Mof_C 	C 	0.8627	0.9556	0.4371	-0.346
Mof_H 	H 	0.8834	0.9485	0.5121	0.162
Mof_C 	C 	0.9248	0.9467	0.3887	0.127
Mof_H 	H 	0.987	0.935	0.4306	-0.007
Mof_C 	C 	0.5514	0.7466	0.4324	-0.228
Mof_C 	C 	0.7364	0.9799	0.2628	-0.409
Mof_C 	C 	0.5313	0.5992	0.4594	0.014
Mof_C 	C 	0.5177	0.6808	0.4778	0.039
Mof_H 	H 	0.4852	0.6937	0.5216	0.021
Mof_C 	C 	0.6406	0.9961	0.1937	0.683
Mof_C 	C 	0.5335	0.8379	0.4572	0.571
Mof_C 	C 	0.5829	0.5818	0.398	0.025
Mof_H 	H 	0.5951	0.5259	0.3875	0.036
Mof_C 	C 	0.617	0.6434	0.3516	-0.202
Mof_H 	H 	0.6519	0.6298	0.3107	0.113
Mof_C 	C 	0.5981	0.7267	0.3671	0.267
Mof_C 	C 	0.405	0.34	0.227	-0.003
Mof_N 	N 	0.4913	0.5368	0.5076	-0.078
Mof_N 	N 	0.9575	0.9552	0.2189	-0.073
Mof_O 	O 	0.5548	0.8913	0.405	-0.554
Mof_O 	O 	0.6314	0.7862	0.3214	-0.216
Mof_O 	O 	0.613	0.9895	0.0909	-0.708
Mof_O 	O 	0.5002	0.8495	0.5285	-0.626
Mof_O 	O 	0.5817	0.0154	0.2341	-0.79
Mof_O 	O 	0.715	0.9873	0.4316	-0.581
Mof_Sm	Sm	0.57291	0.0428	0.40742	2.511
Mof_C 	C 	0.105	0.9553	0.225	-0.057
Mof_C 	C 	0.1968	0.9709	0.2852	0.141
Mof_H 	H 	0.2163	0.9758	0.3603	-0.031
Mof_C 	C 	0.2307	0.9748	0.121	0.438
Mof_C 	C 	0.1373	0.9556	0.0629	-0.317
Mof_H 	H 	0.1166	0.9485	0.9879	0.145
Mof_C 	C 	0.0752	0.9467	0.1113	0.11
Mof_H 	H 	0.013	0.935	0.0694	0.001
Mof_C 	C 	0.4486	0.7466	0.0676	-0.233
Mof_C 	C 	0.2636	0.9799	0.2372	-0.402
Mof_C 	C 	0.4687	0.5992	0.0406	0.01
Mof_C 	C 	0.4823	0.6808	0.0222	0.05
Mof_H 	H 	0.5148	0.6937	0.9784	0.015
Mof_C 	C 	0.3594	0.9961	0.3063	0.68
Mof_C 	C 	0.4665	0.8379	0.0428	0.579
Mof_C 	C 	0.4171	0.5818	0.102	0.029
Mof_H 	H 	0.4049	0.5259	0.1125	0.034
Mof_C 	C 	0.383	0.6434	0.1484	-0.205
Mof_H 	H 	0.3481	0.6298	0.1893	0.114
Mof_C 	C 	0.4019	0.7267	0.1329	0.271
Mof_C 	C 	0.595	0.34	0.273	-0.003
Mof_N 	N 	0.5087	0.5368	0.9924	-0.078
Mof_N 	N 	0.0425	0.9552	0.2811	-0.077
Mof_O 	O 	0.4452	0.8913	0.095	-0.552
Mof_O 	O 	0.3686	0.7862	0.1786	-0.217
Mof_O 	O 	0.387	0.9895	0.4091	-0.714
Mof_O 	O 	0.4998	0.8495	0.9715	-0.631
Mof_O 	O 	0.4183	0.0154	0.2659	-0.787
Mof_O 	O 	0.285	0.9873	0.0684	-0.572
Mof_Sm	Sm	0.42709	0.0428	0.09258	2.492
Mof_C 	C 	0.5	0.784	0.75	0.493
Mof_N 	N 	0.5	0.692	0.75	-0.206
Mof_O 	O 	0.5	0.8442	0.75	-0.772
Mof_C 	C 	0.5	0.216	0.25	0.493
Mof_N 	N 	0.5	0.308	0.25	-0.206
Mof_O 	O 	0.5	0.1558	0.25	-0.772
_end
