data_functionalizedCrystal
_audit_creation_method	'EQeq! by Chris Wilmer'
_symmetry_space_group_name_H-M	'P1'
_symmetry_Int_Tables_number	1
_symmetry_cell_setting	triclinic
loop_
_symmetry_equiv_pos_as_xyz
  x,y,z
_cell_length_a	45.5419
_cell_length_b	45.5419
_cell_length_c	45.5419
_cell_angle_alpha	90
_cell_angle_beta	90
_cell_angle_gamma	90
loop_
_atom_site_label
_atom_site_type_symbol
_atom_site_fract_x
_atom_site_fract_y
_atom_site_fract_z
_atom_site_charge
Mof_O 	O 	0.79585	0.01584	0.02295	-0.418
Mof_O 	O 	0.6947	0.98169	0.44439	-0.439
Mof_O 	O 	0.84413	0.01392	0.02906	-0.412
Mof_O 	O 	0.64637	0.98458	0.4496	-0.415
Mof_O 	O 	0.94472	0.0097	0.14893	-0.41
Mof_O 	O 	0.52464	0.01111	0.34708	-0.417
Mof_O 	O 	0.9431	0.01446	0.19737	-0.421
Mof_O 	O 	0.52197	0.01798	0.29892	-0.437
Mof_N 	N 	0.81064	0.03302	0.1602	-0.154
Mof_N 	N 	0.65874	0.00397	0.31312	-0.155
Mof_C 	C 	0.69571	0.00208	0.2405	-0.015
Mof_C 	C 	0.6752	0.99711	0.26276	-0.079
Mof_H 	H 	0.65629	0.98341	0.25837	0.054
Mof_C 	C 	0.78642	0.02394	0.08348	0.039
Mof_H 	H 	0.76703	0.02523	0.06982	0.035
Mof_C 	C 	0.69238	0.98425	0.38428	0.04
Mof_H 	H 	0.71345	0.97968	0.39424	0.036
Mof_C 	C 	0.78356	0.02999	0.11353	-0.099
Mof_H 	H 	0.7625	0.03592	0.12273	0.06
Mof_C 	C 	0.69148	0.99021	0.35409	-0.099
Mof_H 	H 	0.71142	0.98976	0.34126	0.059
Mof_C 	C 	0.80858	0.02823	0.13099	0.097
Mof_C 	C 	0.66439	0.99679	0.34144	0.098
Mof_C 	C 	0.83548	0.02075	0.11925	-0.029
Mof_C 	C 	0.639	0.99632	0.35789	-0.03
Mof_C 	C 	0.83897	0.01428	0.08955	0.017
Mof_H 	H 	0.86028	0.00817	0.08102	0.045
Mof_C 	C 	0.63915	0.99058	0.38793	0.02
Mof_H 	H 	0.61892	0.99113	0.40036	0.043
Mof_C 	C 	0.81397	0.01598	0.07121	-0.111
Mof_C 	C 	0.66644	0.98479	0.40154	-0.114
Mof_C 	C 	0.81782	0.01412	0.03964	0.368
Mof_C 	C 	0.66944	0.98366	0.43321	0.375
Mof_C 	C 	0.93006	0.01146	0.1731	0.369
Mof_C 	C 	0.53706	0.01474	0.32186	0.375
Mof_C 	C 	0.8985	0.01382	0.17172	-0.113
Mof_C 	C 	0.56878	0.01459	0.31938	-0.114
Mof_C 	C 	0.88473	0.01324	0.14388	0.019
Mof_H 	H 	0.89655	0.00684	0.12429	0.045
Mof_C 	C 	0.58647	0.0065	0.34354	0.019
Mof_H 	H 	0.57717	0.00276	0.36508	0.044
Mof_C 	C 	0.85508	0.02065	0.14234	-0.03
Mof_C 	C 	0.61651	0.00327	0.33893	-0.029
Mof_C 	C 	0.83917	0.0283	0.16693	0.099
Mof_C 	C 	0.62927	0.00782	0.31184	0.098
Mof_C 	C 	0.85212	0.02907	0.19461	-0.098
Mof_H 	H 	0.8396	0.03469	0.21398	0.06
Mof_C 	C 	0.61246	0.01645	0.28776	-0.099
Mof_H 	H 	0.6223	0.0208	0.26662	0.059
Mof_C 	C 	0.88198	0.02197	0.19686	0.041
Mof_H 	H 	0.89205	0.02238	0.21838	0.034
Mof_C 	C 	0.58205	0.01958	0.29163	0.041
Mof_H 	H 	0.56892	0.02612	0.27295	0.035
Mof_C 	C 	0.787	0.03122	0.18015	0.091
Mof_C 	C 	0.67936	0.00927	0.29068	0.096
Mof_C 	C 	0.78261	0.05267	0.20164	-0.075
Mof_H 	H 	0.79654	0.0719	0.2023	0.054
Mof_C 	C 	0.70402	0.02685	0.29595	-0.078
Mof_H 	H 	0.70738	0.03666	0.31732	0.054
Mof_C 	C 	0.76066	0.0491	0.22272	-0.022
Mof_H 	H 	0.75773	0.06607	0.23906	0.035
Mof_C 	C 	0.72472	0.03152	0.27391	-0.019
Mof_H 	H 	0.74406	0.04427	0.27911	0.034
Mof_C 	C 	0.74308	0.02367	0.22293	-0.001
Mof_C 	C 	0.72094	0.01907	0.24591	-0.004
Mof_C 	C 	0.76887	0.00645	0.17943	-0.069
Mof_C 	C 	0.74719	0.00259	0.20073	-0.02
Mof_H 	H 	0.73266	0.98224	0.20023	0.034
Mof_H 	H 	0.77185	0.9894	0.16138	0.051
Mof_H 	H 	0.69207	0.99235	0.21774	0.032
Mof_Cu	Cu	0.8513	0.01498	0.98964	0.942
Mof_Cu	Cu	0.79715	0.01699	0.98241	0.947
Mof_O 	O 	0.70415	0.98416	0.52295	-0.419
Mof_O 	O 	0.8053	0.01831	0.94439	-0.44
Mof_O 	O 	0.65587	0.98608	0.52906	-0.413
Mof_O 	O 	0.85363	0.01542	0.9496	-0.416
Mof_O 	O 	0.55528	0.9903	0.64893	-0.411
Mof_O 	O 	0.97536	0.98889	0.84708	-0.418
Mof_O 	O 	0.5569	0.98554	0.69737	-0.422
Mof_O 	O 	0.97803	0.98202	0.79892	-0.438
Mof_N 	N 	0.68936	0.96698	0.6602	-0.155
Mof_N 	N 	0.84126	0.99603	0.81312	-0.156
Mof_C 	C 	0.80429	0.99792	0.7405	-0.016
Mof_C 	C 	0.8248	0.00289	0.76276	-0.08
Mof_H 	H 	0.84371	0.01659	0.75837	0.053
Mof_C 	C 	0.71358	0.97606	0.58348	0.038
Mof_H 	H 	0.73297	0.97477	0.56982	0.034
Mof_C 	C 	0.80762	0.01575	0.88428	0.039
Mof_H 	H 	0.78655	0.02032	0.89424	0.035
Mof_C 	C 	0.71644	0.97001	0.61353	-0.1
Mof_H 	H 	0.7375	0.96408	0.62273	0.059
Mof_C 	C 	0.80852	0.00979	0.85409	-0.1
Mof_H 	H 	0.78858	0.01024	0.84126	0.058
Mof_C 	C 	0.69142	0.97177	0.63099	0.096
Mof_C 	C 	0.83561	0.00321	0.84144	0.097
Mof_C 	C 	0.66452	0.97925	0.61925	-0.03
Mof_C 	C 	0.861	0.00368	0.85789	-0.031
Mof_C 	C 	0.66103	0.98572	0.58955	0.016
Mof_H 	H 	0.63972	0.99183	0.58102	0.044
Mof_C 	C 	0.86085	0.00942	0.88793	0.019
Mof_H 	H 	0.88108	0.00887	0.90036	0.042
Mof_C 	C 	0.68603	0.98402	0.57121	-0.112
Mof_C 	C 	0.83356	0.01521	0.90154	-0.115
Mof_C 	C 	0.68218	0.98588	0.53964	0.367
Mof_C 	C 	0.83056	0.01634	0.93321	0.374
Mof_C 	C 	0.56994	0.98854	0.6731	0.368
Mof_C 	C 	0.96294	0.98526	0.82186	0.374
Mof_C 	C 	0.6015	0.98618	0.67172	-0.114
Mof_C 	C 	0.93122	0.98541	0.81938	-0.115
Mof_C 	C 	0.61527	0.98676	0.64388	0.018
Mof_H 	H 	0.60345	0.99316	0.62429	0.044
Mof_C 	C 	0.91353	0.9935	0.84354	0.018
Mof_H 	H 	0.92283	0.99724	0.86508	0.043
Mof_C 	C 	0.64492	0.97935	0.64234	-0.031
Mof_C 	C 	0.88349	0.99673	0.83893	-0.03
Mof_C 	C 	0.66083	0.9717	0.66693	0.098
Mof_C 	C 	0.87073	0.99218	0.81184	0.097
Mof_C 	C 	0.64788	0.97093	0.69461	-0.099
Mof_H 	H 	0.6604	0.96531	0.71398	0.059
Mof_C 	C 	0.88754	0.98355	0.78776	-0.1
Mof_H 	H 	0.8777	0.9792	0.76662	0.058
Mof_C 	C 	0.61802	0.97803	0.69686	0.04
Mof_H 	H 	0.60795	0.97762	0.71838	0.033
Mof_C 	C 	0.91795	0.98042	0.79163	0.04
Mof_H 	H 	0.93108	0.97388	0.77295	0.034
Mof_C 	C 	0.713	0.96878	0.68015	0.09
Mof_C 	C 	0.82064	0.99073	0.79068	0.095
Mof_C 	C 	0.71739	0.94733	0.70164	-0.076
Mof_H 	H 	0.70346	0.9281	0.7023	0.053
Mof_C 	C 	0.79598	0.97315	0.79595	-0.079
Mof_H 	H 	0.79262	0.96334	0.81732	0.053
Mof_C 	C 	0.73934	0.9509	0.72272	-0.023
Mof_H 	H 	0.74227	0.93393	0.73906	0.034
Mof_C 	C 	0.77528	0.96848	0.77391	-0.02
Mof_H 	H 	0.75594	0.95573	0.77911	0.033
Mof_C 	C 	0.75692	0.97633	0.72293	-0.002
Mof_C 	C 	0.77906	0.98093	0.74591	-0.005
Mof_C 	C 	0.73113	0.99355	0.67943	-0.07
Mof_C 	C 	0.75281	0.99741	0.70073	-0.021
Mof_H 	H 	0.76734	0.01776	0.70023	0.033
Mof_H 	H 	0.72815	0.0106	0.66138	0.05
Mof_H 	H 	0.80793	0.00765	0.71774	0.031
Mof_Cu	Cu	0.6487	0.98502	0.48964	0.941
Mof_Cu	Cu	0.70285	0.98301	0.48241	0.946
Mof_O 	O 	0.20415	0.51584	0.47705	-0.419
Mof_O 	O 	0.3053	0.48169	0.05561	-0.44
Mof_O 	O 	0.15587	0.51392	0.47094	-0.413
Mof_O 	O 	0.35363	0.48458	0.0504	-0.416
Mof_O 	O 	0.05528	0.5097	0.35107	-0.411
Mof_O 	O 	0.47536	0.51111	0.15292	-0.418
Mof_O 	O 	0.0569	0.51446	0.30263	-0.422
Mof_O 	O 	0.47803	0.51798	0.20108	-0.438
Mof_N 	N 	0.18936	0.53302	0.3398	-0.155
Mof_N 	N 	0.34126	0.50397	0.18688	-0.156
Mof_C 	C 	0.30429	0.50208	0.2595	-0.016
Mof_C 	C 	0.3248	0.49711	0.23724	-0.08
Mof_H 	H 	0.34371	0.48341	0.24163	0.053
Mof_C 	C 	0.21358	0.52394	0.41652	0.038
Mof_H 	H 	0.23297	0.52523	0.43018	0.034
Mof_C 	C 	0.30762	0.48425	0.11572	0.039
Mof_H 	H 	0.28655	0.47968	0.10576	0.035
Mof_C 	C 	0.21644	0.52999	0.38647	-0.1
Mof_H 	H 	0.2375	0.53592	0.37727	0.059
Mof_C 	C 	0.30852	0.49021	0.14591	-0.1
Mof_H 	H 	0.28858	0.48976	0.15874	0.058
Mof_C 	C 	0.19142	0.52823	0.36901	0.096
Mof_C 	C 	0.33561	0.49679	0.15856	0.097
Mof_C 	C 	0.16452	0.52075	0.38075	-0.03
Mof_C 	C 	0.361	0.49632	0.14211	-0.031
Mof_C 	C 	0.16103	0.51428	0.41045	0.016
Mof_H 	H 	0.13972	0.50817	0.41898	0.044
Mof_C 	C 	0.36085	0.49058	0.11207	0.019
Mof_H 	H 	0.38108	0.49113	0.09964	0.042
Mof_C 	C 	0.18603	0.51598	0.42879	-0.112
Mof_C 	C 	0.33356	0.48479	0.09846	-0.115
Mof_C 	C 	0.18218	0.51412	0.46036	0.367
Mof_C 	C 	0.33056	0.48366	0.06679	0.374
Mof_C 	C 	0.06994	0.51146	0.3269	0.368
Mof_C 	C 	0.46294	0.51474	0.17814	0.374
Mof_C 	C 	0.1015	0.51382	0.32828	-0.114
Mof_C 	C 	0.43122	0.51459	0.18062	-0.115
Mof_C 	C 	0.11527	0.51324	0.35612	0.018
Mof_H 	H 	0.10345	0.50684	0.37571	0.044
Mof_C 	C 	0.41353	0.5065	0.15646	0.018
Mof_H 	H 	0.42283	0.50276	0.13492	0.043
Mof_C 	C 	0.14492	0.52065	0.35766	-0.031
Mof_C 	C 	0.38349	0.50327	0.16107	-0.03
Mof_C 	C 	0.16083	0.5283	0.33307	0.098
Mof_C 	C 	0.37073	0.50782	0.18816	0.097
Mof_C 	C 	0.14788	0.52907	0.30539	-0.099
Mof_H 	H 	0.1604	0.53469	0.28602	0.059
Mof_C 	C 	0.38754	0.51645	0.21224	-0.1
Mof_H 	H 	0.3777	0.5208	0.23338	0.058
Mof_C 	C 	0.11802	0.52197	0.30314	0.04
Mof_H 	H 	0.10795	0.52238	0.28162	0.033
Mof_C 	C 	0.41795	0.51958	0.20837	0.04
Mof_H 	H 	0.43108	0.52612	0.22705	0.034
Mof_C 	C 	0.213	0.53122	0.31985	0.09
Mof_C 	C 	0.32064	0.50927	0.20932	0.095
Mof_C 	C 	0.21739	0.55267	0.29836	-0.076
Mof_H 	H 	0.20346	0.5719	0.2977	0.053
Mof_C 	C 	0.29598	0.52685	0.20405	-0.079
Mof_H 	H 	0.29262	0.53666	0.18268	0.053
Mof_C 	C 	0.23934	0.5491	0.27728	-0.023
Mof_H 	H 	0.24227	0.56607	0.26094	0.034
Mof_C 	C 	0.27528	0.53152	0.22609	-0.02
Mof_H 	H 	0.25594	0.54427	0.22089	0.033
Mof_C 	C 	0.25692	0.52367	0.27707	-0.002
Mof_C 	C 	0.27906	0.51907	0.25409	-0.005
Mof_C 	C 	0.23113	0.50645	0.32057	-0.07
Mof_C 	C 	0.25281	0.50259	0.29927	-0.021
Mof_H 	H 	0.26734	0.48224	0.29977	0.033
Mof_H 	H 	0.22815	0.4894	0.33862	0.05
Mof_H 	H 	0.30793	0.49235	0.28226	0.031
Mof_Cu	Cu	0.1487	0.51498	0.51036	0.941
Mof_Cu	Cu	0.20285	0.51699	0.51759	0.946
Mof_O 	O 	0.29585	0.48416	0.97705	-0.419
Mof_O 	O 	0.1947	0.51831	0.55561	-0.44
Mof_O 	O 	0.34413	0.48608	0.97094	-0.413
Mof_O 	O 	0.14637	0.51542	0.5504	-0.416
Mof_O 	O 	0.44472	0.4903	0.85107	-0.411
Mof_O 	O 	0.02464	0.48889	0.65292	-0.418
Mof_O 	O 	0.4431	0.48554	0.80263	-0.422
Mof_O 	O 	0.02197	0.48202	0.70108	-0.438
Mof_N 	N 	0.31064	0.46698	0.8398	-0.155
Mof_N 	N 	0.15874	0.49603	0.68688	-0.156
Mof_C 	C 	0.19571	0.49792	0.7595	-0.016
Mof_C 	C 	0.1752	0.50289	0.73724	-0.08
Mof_H 	H 	0.15629	0.51659	0.74163	0.053
Mof_C 	C 	0.28642	0.47606	0.91652	0.038
Mof_H 	H 	0.26703	0.47477	0.93018	0.034
Mof_C 	C 	0.19238	0.51575	0.61572	0.039
Mof_H 	H 	0.21345	0.52032	0.60576	0.035
Mof_C 	C 	0.28356	0.47001	0.88647	-0.1
Mof_H 	H 	0.2625	0.46408	0.87727	0.059
Mof_C 	C 	0.19148	0.50979	0.64591	-0.1
Mof_H 	H 	0.21142	0.51024	0.65874	0.058
Mof_C 	C 	0.30858	0.47177	0.86901	0.096
Mof_C 	C 	0.16439	0.50321	0.65856	0.097
Mof_C 	C 	0.33548	0.47925	0.88075	-0.03
Mof_C 	C 	0.139	0.50368	0.64211	-0.031
Mof_C 	C 	0.33897	0.48572	0.91045	0.016
Mof_H 	H 	0.36028	0.49183	0.91898	0.044
Mof_C 	C 	0.13915	0.50942	0.61207	0.019
Mof_H 	H 	0.11892	0.50887	0.59964	0.042
Mof_C 	C 	0.31397	0.48402	0.92879	-0.112
Mof_C 	C 	0.16644	0.51521	0.59846	-0.115
Mof_C 	C 	0.31782	0.48588	0.96036	0.367
Mof_C 	C 	0.16944	0.51634	0.56679	0.374
Mof_C 	C 	0.43006	0.48854	0.8269	0.368
Mof_C 	C 	0.03706	0.48526	0.67814	0.374
Mof_C 	C 	0.3985	0.48618	0.82828	-0.114
Mof_C 	C 	0.06878	0.48541	0.68062	-0.115
Mof_C 	C 	0.38473	0.48676	0.85612	0.018
Mof_H 	H 	0.39655	0.49316	0.87571	0.044
Mof_C 	C 	0.08647	0.4935	0.65646	0.018
Mof_H 	H 	0.07717	0.49724	0.63492	0.043
Mof_C 	C 	0.35508	0.47935	0.85766	-0.031
Mof_C 	C 	0.11651	0.49673	0.66107	-0.03
Mof_C 	C 	0.33917	0.4717	0.83307	0.098
Mof_C 	C 	0.12927	0.49218	0.68816	0.097
Mof_C 	C 	0.35212	0.47093	0.80539	-0.099
Mof_H 	H 	0.3396	0.46531	0.78602	0.059
Mof_C 	C 	0.11246	0.48355	0.71224	-0.1
Mof_H 	H 	0.1223	0.4792	0.73338	0.058
Mof_C 	C 	0.38198	0.47803	0.80314	0.04
Mof_H 	H 	0.39205	0.47762	0.78162	0.033
Mof_C 	C 	0.08205	0.48042	0.70837	0.04
Mof_H 	H 	0.06892	0.47388	0.72705	0.034
Mof_C 	C 	0.287	0.46878	0.81985	0.09
Mof_C 	C 	0.17936	0.49073	0.70932	0.095
Mof_C 	C 	0.28261	0.44733	0.79836	-0.076
Mof_H 	H 	0.29654	0.4281	0.7977	0.053
Mof_C 	C 	0.20402	0.47315	0.70405	-0.079
Mof_H 	H 	0.20738	0.46334	0.68268	0.053
Mof_C 	C 	0.26066	0.4509	0.77728	-0.023
Mof_H 	H 	0.25773	0.43393	0.76094	0.034
Mof_C 	C 	0.22472	0.46848	0.72609	-0.02
Mof_H 	H 	0.24406	0.45573	0.72089	0.033
Mof_C 	C 	0.24308	0.47633	0.77707	-0.002
Mof_C 	C 	0.22094	0.48093	0.75409	-0.005
Mof_C 	C 	0.26887	0.49355	0.82057	-0.07
Mof_C 	C 	0.24719	0.49741	0.79927	-0.021
Mof_H 	H 	0.23266	0.51776	0.79977	0.033
Mof_H 	H 	0.27185	0.5106	0.83862	0.05
Mof_H 	H 	0.19207	0.50765	0.78226	0.031
Mof_Cu	Cu	0.3513	0.48502	0.01036	0.941
Mof_Cu	Cu	0.29715	0.48301	0.01759	0.946
Mof_O 	O 	0.02295	0.79585	0.01584	-0.419
Mof_O 	O 	0.44439	0.6947	0.98169	-0.44
Mof_O 	O 	0.02906	0.84413	0.01392	-0.413
Mof_O 	O 	0.4496	0.64637	0.98458	-0.416
Mof_O 	O 	0.14893	0.94472	0.0097	-0.411
Mof_O 	O 	0.34708	0.52464	0.01111	-0.418
Mof_O 	O 	0.19737	0.9431	0.01446	-0.422
Mof_O 	O 	0.29892	0.52197	0.01798	-0.438
Mof_N 	N 	0.1602	0.81064	0.03302	-0.155
Mof_N 	N 	0.31312	0.65874	0.00397	-0.156
Mof_C 	C 	0.2405	0.69571	0.00208	-0.016
Mof_C 	C 	0.26276	0.6752	0.99711	-0.08
Mof_H 	H 	0.25837	0.65629	0.98341	0.053
Mof_C 	C 	0.08348	0.78642	0.02394	0.038
Mof_H 	H 	0.06982	0.76703	0.02523	0.034
Mof_C 	C 	0.38428	0.69238	0.98425	0.039
Mof_H 	H 	0.39424	0.71345	0.97968	0.035
Mof_C 	C 	0.11353	0.78356	0.02999	-0.1
Mof_H 	H 	0.12273	0.7625	0.03592	0.059
Mof_C 	C 	0.35409	0.69148	0.99021	-0.1
Mof_H 	H 	0.34126	0.71142	0.98976	0.058
Mof_C 	C 	0.13099	0.80858	0.02823	0.096
Mof_C 	C 	0.34144	0.66439	0.99679	0.097
Mof_C 	C 	0.11925	0.83548	0.02075	-0.03
Mof_C 	C 	0.35789	0.639	0.99632	-0.031
Mof_C 	C 	0.08955	0.83897	0.01428	0.016
Mof_H 	H 	0.08102	0.86028	0.00817	0.044
Mof_C 	C 	0.38793	0.63915	0.99058	0.019
Mof_H 	H 	0.40036	0.61892	0.99113	0.042
Mof_C 	C 	0.07121	0.81397	0.01598	-0.112
Mof_C 	C 	0.40154	0.66644	0.98479	-0.115
Mof_C 	C 	0.03964	0.81782	0.01412	0.367
Mof_C 	C 	0.43321	0.66944	0.98366	0.374
Mof_C 	C 	0.1731	0.93006	0.01146	0.368
Mof_C 	C 	0.32186	0.53706	0.01474	0.374
Mof_C 	C 	0.17172	0.8985	0.01382	-0.114
Mof_C 	C 	0.31938	0.56878	0.01459	-0.115
Mof_C 	C 	0.14388	0.88473	0.01324	0.018
Mof_H 	H 	0.12429	0.89655	0.00684	0.044
Mof_C 	C 	0.34354	0.58647	0.0065	0.018
Mof_H 	H 	0.36508	0.57717	0.00276	0.043
Mof_C 	C 	0.14234	0.85508	0.02065	-0.031
Mof_C 	C 	0.33893	0.61651	0.00327	-0.03
Mof_C 	C 	0.16693	0.83917	0.0283	0.098
Mof_C 	C 	0.31184	0.62927	0.00782	0.097
Mof_C 	C 	0.19461	0.85212	0.02907	-0.099
Mof_H 	H 	0.21398	0.8396	0.03469	0.059
Mof_C 	C 	0.28776	0.61246	0.01645	-0.1
Mof_H 	H 	0.26662	0.6223	0.0208	0.058
Mof_C 	C 	0.19686	0.88198	0.02197	0.04
Mof_H 	H 	0.21838	0.89205	0.02238	0.033
Mof_C 	C 	0.29163	0.58205	0.01958	0.04
Mof_H 	H 	0.27295	0.56892	0.02612	0.034
Mof_C 	C 	0.18015	0.787	0.03122	0.09
Mof_C 	C 	0.29068	0.67936	0.00927	0.095
Mof_C 	C 	0.20164	0.78261	0.05267	-0.076
Mof_H 	H 	0.2023	0.79654	0.0719	0.053
Mof_C 	C 	0.29595	0.70402	0.02685	-0.079
Mof_H 	H 	0.31732	0.70738	0.03666	0.053
Mof_C 	C 	0.22272	0.76066	0.0491	-0.023
Mof_H 	H 	0.23906	0.75773	0.06607	0.034
Mof_C 	C 	0.27391	0.72472	0.03152	-0.02
Mof_H 	H 	0.27911	0.74406	0.04427	0.033
Mof_C 	C 	0.22293	0.74308	0.02367	-0.002
Mof_C 	C 	0.24591	0.72094	0.01907	-0.005
Mof_C 	C 	0.17943	0.76887	0.00645	-0.07
Mof_C 	C 	0.20073	0.74719	0.00259	-0.021
Mof_H 	H 	0.20023	0.73266	0.98224	0.033
Mof_H 	H 	0.16138	0.77185	0.9894	0.05
Mof_H 	H 	0.21774	0.69207	0.99235	0.031
Mof_Cu	Cu	0.98964	0.8513	0.01498	0.941
Mof_Cu	Cu	0.98241	0.79715	0.01699	0.946
Mof_O 	O 	0.52295	0.70415	0.98416	-0.419
Mof_O 	O 	0.94439	0.8053	0.01831	-0.44
Mof_O 	O 	0.52906	0.65587	0.98608	-0.413
Mof_O 	O 	0.9496	0.85363	0.01542	-0.416
Mof_O 	O 	0.64893	0.55528	0.9903	-0.411
Mof_O 	O 	0.84708	0.97536	0.98889	-0.418
Mof_O 	O 	0.69737	0.5569	0.98554	-0.422
Mof_O 	O 	0.79892	0.97803	0.98202	-0.438
Mof_N 	N 	0.6602	0.68936	0.96698	-0.155
Mof_N 	N 	0.81312	0.84126	0.99603	-0.156
Mof_C 	C 	0.7405	0.80429	0.99792	-0.016
Mof_C 	C 	0.76276	0.8248	0.00289	-0.08
Mof_H 	H 	0.75837	0.84371	0.01659	0.053
Mof_C 	C 	0.58348	0.71358	0.97606	0.038
Mof_H 	H 	0.56982	0.73297	0.97477	0.034
Mof_C 	C 	0.88428	0.80762	0.01575	0.039
Mof_H 	H 	0.89424	0.78655	0.02032	0.035
Mof_C 	C 	0.61353	0.71644	0.97001	-0.1
Mof_H 	H 	0.62273	0.7375	0.96408	0.059
Mof_C 	C 	0.85409	0.80852	0.00979	-0.1
Mof_H 	H 	0.84126	0.78858	0.01024	0.058
Mof_C 	C 	0.63099	0.69142	0.97177	0.096
Mof_C 	C 	0.84144	0.83561	0.00321	0.097
Mof_C 	C 	0.61925	0.66452	0.97925	-0.03
Mof_C 	C 	0.85789	0.861	0.00368	-0.031
Mof_C 	C 	0.58955	0.66103	0.98572	0.016
Mof_H 	H 	0.58102	0.63972	0.99183	0.044
Mof_C 	C 	0.88793	0.86085	0.00942	0.019
Mof_H 	H 	0.90036	0.88108	0.00887	0.042
Mof_C 	C 	0.57121	0.68603	0.98402	-0.112
Mof_C 	C 	0.90154	0.83356	0.01521	-0.115
Mof_C 	C 	0.53964	0.68218	0.98588	0.367
Mof_C 	C 	0.93321	0.83056	0.01634	0.374
Mof_C 	C 	0.6731	0.56994	0.98854	0.368
Mof_C 	C 	0.82186	0.96294	0.98526	0.374
Mof_C 	C 	0.67172	0.6015	0.98618	-0.114
Mof_C 	C 	0.81938	0.93122	0.98541	-0.115
Mof_C 	C 	0.64388	0.61527	0.98676	0.018
Mof_H 	H 	0.62429	0.60345	0.99316	0.044
Mof_C 	C 	0.84354	0.91353	0.9935	0.018
Mof_H 	H 	0.86508	0.92283	0.99724	0.043
Mof_C 	C 	0.64234	0.64492	0.97935	-0.031
Mof_C 	C 	0.83893	0.88349	0.99673	-0.03
Mof_C 	C 	0.66693	0.66083	0.9717	0.098
Mof_C 	C 	0.81184	0.87073	0.99218	0.097
Mof_C 	C 	0.69461	0.64788	0.97093	-0.099
Mof_H 	H 	0.71398	0.6604	0.96531	0.059
Mof_C 	C 	0.78776	0.88754	0.98355	-0.1
Mof_H 	H 	0.76662	0.8777	0.9792	0.058
Mof_C 	C 	0.69686	0.61802	0.97803	0.04
Mof_H 	H 	0.71838	0.60795	0.97762	0.033
Mof_C 	C 	0.79163	0.91795	0.98042	0.04
Mof_H 	H 	0.77295	0.93108	0.97388	0.034
Mof_C 	C 	0.68015	0.713	0.96878	0.09
Mof_C 	C 	0.79068	0.82064	0.99073	0.095
Mof_C 	C 	0.70164	0.71739	0.94733	-0.076
Mof_H 	H 	0.7023	0.70346	0.9281	0.053
Mof_C 	C 	0.79595	0.79598	0.97315	-0.079
Mof_H 	H 	0.81732	0.79262	0.96334	0.053
Mof_C 	C 	0.72272	0.73934	0.9509	-0.023
Mof_H 	H 	0.73906	0.74227	0.93393	0.034
Mof_C 	C 	0.77391	0.77528	0.96848	-0.02
Mof_H 	H 	0.77911	0.75594	0.95573	0.033
Mof_C 	C 	0.72293	0.75692	0.97633	-0.002
Mof_C 	C 	0.74591	0.77906	0.98093	-0.005
Mof_C 	C 	0.67943	0.73113	0.99355	-0.07
Mof_C 	C 	0.70073	0.75281	0.99741	-0.021
Mof_H 	H 	0.70023	0.76734	0.01776	0.033
Mof_H 	H 	0.66138	0.72815	0.0106	0.05
Mof_H 	H 	0.71774	0.80793	0.00765	0.031
Mof_Cu	Cu	0.48964	0.6487	0.98502	0.941
Mof_Cu	Cu	0.48241	0.70285	0.98301	0.946
Mof_O 	O 	0.47705	0.20415	0.51584	-0.419
Mof_O 	O 	0.05561	0.3053	0.48169	-0.44
Mof_O 	O 	0.47094	0.15587	0.51392	-0.413
Mof_O 	O 	0.0504	0.35363	0.48458	-0.416
Mof_O 	O 	0.35107	0.05528	0.5097	-0.411
Mof_O 	O 	0.15292	0.47536	0.51111	-0.418
Mof_O 	O 	0.30263	0.0569	0.51446	-0.422
Mof_O 	O 	0.20108	0.47803	0.51798	-0.438
Mof_N 	N 	0.3398	0.18936	0.53302	-0.155
Mof_N 	N 	0.18688	0.34126	0.50397	-0.156
Mof_C 	C 	0.2595	0.30429	0.50208	-0.016
Mof_C 	C 	0.23724	0.3248	0.49711	-0.08
Mof_H 	H 	0.24163	0.34371	0.48341	0.053
Mof_C 	C 	0.41652	0.21358	0.52394	0.038
Mof_H 	H 	0.43018	0.23297	0.52523	0.034
Mof_C 	C 	0.11572	0.30762	0.48425	0.039
Mof_H 	H 	0.10576	0.28655	0.47968	0.035
Mof_C 	C 	0.38647	0.21644	0.52999	-0.1
Mof_H 	H 	0.37727	0.2375	0.53592	0.059
Mof_C 	C 	0.14591	0.30852	0.49021	-0.1
Mof_H 	H 	0.15874	0.28858	0.48976	0.058
Mof_C 	C 	0.36901	0.19142	0.52823	0.096
Mof_C 	C 	0.15856	0.33561	0.49679	0.097
Mof_C 	C 	0.38075	0.16452	0.52075	-0.03
Mof_C 	C 	0.14211	0.361	0.49632	-0.031
Mof_C 	C 	0.41045	0.16103	0.51428	0.016
Mof_H 	H 	0.41898	0.13972	0.50817	0.044
Mof_C 	C 	0.11207	0.36085	0.49058	0.019
Mof_H 	H 	0.09964	0.38108	0.49113	0.042
Mof_C 	C 	0.42879	0.18603	0.51598	-0.112
Mof_C 	C 	0.09846	0.33356	0.48479	-0.115
Mof_C 	C 	0.46036	0.18218	0.51412	0.367
Mof_C 	C 	0.06679	0.33056	0.48366	0.374
Mof_C 	C 	0.3269	0.06994	0.51146	0.368
Mof_C 	C 	0.17814	0.46294	0.51474	0.374
Mof_C 	C 	0.32828	0.1015	0.51382	-0.114
Mof_C 	C 	0.18062	0.43122	0.51459	-0.115
Mof_C 	C 	0.35612	0.11527	0.51324	0.018
Mof_H 	H 	0.37571	0.10345	0.50684	0.044
Mof_C 	C 	0.15646	0.41353	0.5065	0.018
Mof_H 	H 	0.13492	0.42283	0.50276	0.043
Mof_C 	C 	0.35766	0.14492	0.52065	-0.031
Mof_C 	C 	0.16107	0.38349	0.50327	-0.03
Mof_C 	C 	0.33307	0.16083	0.5283	0.098
Mof_C 	C 	0.18816	0.37073	0.50782	0.097
Mof_C 	C 	0.30539	0.14788	0.52907	-0.099
Mof_H 	H 	0.28602	0.1604	0.53469	0.059
Mof_C 	C 	0.21224	0.38754	0.51645	-0.1
Mof_H 	H 	0.23338	0.3777	0.5208	0.058
Mof_C 	C 	0.30314	0.11802	0.52197	0.04
Mof_H 	H 	0.28162	0.10795	0.52238	0.033
Mof_C 	C 	0.20837	0.41795	0.51958	0.04
Mof_H 	H 	0.22705	0.43108	0.52612	0.034
Mof_C 	C 	0.31985	0.213	0.53122	0.09
Mof_C 	C 	0.20932	0.32064	0.50927	0.095
Mof_C 	C 	0.29836	0.21739	0.55267	-0.076
Mof_H 	H 	0.2977	0.20346	0.5719	0.053
Mof_C 	C 	0.20405	0.29598	0.52685	-0.079
Mof_H 	H 	0.18268	0.29262	0.53666	0.053
Mof_C 	C 	0.27728	0.23934	0.5491	-0.023
Mof_H 	H 	0.26094	0.24227	0.56607	0.034
Mof_C 	C 	0.22609	0.27528	0.53152	-0.02
Mof_H 	H 	0.22089	0.25594	0.54427	0.033
Mof_C 	C 	0.27707	0.25692	0.52367	-0.002
Mof_C 	C 	0.25409	0.27906	0.51907	-0.005
Mof_C 	C 	0.32057	0.23113	0.50645	-0.07
Mof_C 	C 	0.29927	0.25281	0.50259	-0.021
Mof_H 	H 	0.29977	0.26734	0.48224	0.033
Mof_H 	H 	0.33862	0.22815	0.4894	0.05
Mof_H 	H 	0.28226	0.30793	0.49235	0.031
Mof_Cu	Cu	0.51036	0.1487	0.51498	0.941
Mof_Cu	Cu	0.51759	0.20285	0.51699	0.946
Mof_O 	O 	0.97705	0.29585	0.48416	-0.419
Mof_O 	O 	0.55561	0.1947	0.51831	-0.44
Mof_O 	O 	0.97094	0.34413	0.48608	-0.413
Mof_O 	O 	0.5504	0.14637	0.51542	-0.416
Mof_O 	O 	0.85107	0.44472	0.4903	-0.411
Mof_O 	O 	0.65292	0.02464	0.48889	-0.418
Mof_O 	O 	0.80263	0.4431	0.48554	-0.422
Mof_O 	O 	0.70108	0.02197	0.48202	-0.438
Mof_N 	N 	0.8398	0.31064	0.46698	-0.155
Mof_N 	N 	0.68688	0.15874	0.49603	-0.156
Mof_C 	C 	0.7595	0.19571	0.49792	-0.016
Mof_C 	C 	0.73724	0.1752	0.50289	-0.08
Mof_H 	H 	0.74163	0.15629	0.51659	0.053
Mof_C 	C 	0.91652	0.28642	0.47606	0.038
Mof_H 	H 	0.93018	0.26703	0.47477	0.034
Mof_C 	C 	0.61572	0.19238	0.51575	0.039
Mof_H 	H 	0.60576	0.21345	0.52032	0.035
Mof_C 	C 	0.88647	0.28356	0.47001	-0.1
Mof_H 	H 	0.87727	0.2625	0.46408	0.059
Mof_C 	C 	0.64591	0.19148	0.50979	-0.1
Mof_H 	H 	0.65874	0.21142	0.51024	0.058
Mof_C 	C 	0.86901	0.30858	0.47177	0.096
Mof_C 	C 	0.65856	0.16439	0.50321	0.097
Mof_C 	C 	0.88075	0.33548	0.47925	-0.03
Mof_C 	C 	0.64211	0.139	0.50368	-0.031
Mof_C 	C 	0.91045	0.33897	0.48572	0.016
Mof_H 	H 	0.91898	0.36028	0.49183	0.044
Mof_C 	C 	0.61207	0.13915	0.50942	0.019
Mof_H 	H 	0.59964	0.11892	0.50887	0.042
Mof_C 	C 	0.92879	0.31397	0.48402	-0.112
Mof_C 	C 	0.59846	0.16644	0.51521	-0.115
Mof_C 	C 	0.96036	0.31782	0.48588	0.367
Mof_C 	C 	0.56679	0.16944	0.51634	0.374
Mof_C 	C 	0.8269	0.43006	0.48854	0.368
Mof_C 	C 	0.67814	0.03706	0.48526	0.374
Mof_C 	C 	0.82828	0.3985	0.48618	-0.114
Mof_C 	C 	0.68062	0.06878	0.48541	-0.115
Mof_C 	C 	0.85612	0.38473	0.48676	0.018
Mof_H 	H 	0.87571	0.39655	0.49316	0.044
Mof_C 	C 	0.65646	0.08647	0.4935	0.018
Mof_H 	H 	0.63492	0.07717	0.49724	0.043
Mof_C 	C 	0.85766	0.35508	0.47935	-0.031
Mof_C 	C 	0.66107	0.11651	0.49673	-0.03
Mof_C 	C 	0.83307	0.33917	0.4717	0.098
Mof_C 	C 	0.68816	0.12927	0.49218	0.097
Mof_C 	C 	0.80539	0.35212	0.47093	-0.099
Mof_H 	H 	0.78602	0.3396	0.46531	0.059
Mof_C 	C 	0.71224	0.11246	0.48355	-0.1
Mof_H 	H 	0.73338	0.1223	0.4792	0.058
Mof_C 	C 	0.80314	0.38198	0.47803	0.04
Mof_H 	H 	0.78162	0.39205	0.47762	0.033
Mof_C 	C 	0.70837	0.08205	0.48042	0.04
Mof_H 	H 	0.72705	0.06892	0.47388	0.034
Mof_C 	C 	0.81985	0.287	0.46878	0.09
Mof_C 	C 	0.70932	0.17936	0.49073	0.095
Mof_C 	C 	0.79836	0.28261	0.44733	-0.076
Mof_H 	H 	0.7977	0.29654	0.4281	0.053
Mof_C 	C 	0.70405	0.20402	0.47315	-0.079
Mof_H 	H 	0.68268	0.20738	0.46334	0.053
Mof_C 	C 	0.77728	0.26066	0.4509	-0.023
Mof_H 	H 	0.76094	0.25773	0.43393	0.034
Mof_C 	C 	0.72609	0.22472	0.46848	-0.02
Mof_H 	H 	0.72089	0.24406	0.45573	0.033
Mof_C 	C 	0.77707	0.24308	0.47633	-0.002
Mof_C 	C 	0.75409	0.22094	0.48093	-0.005
Mof_C 	C 	0.82057	0.26887	0.49355	-0.07
Mof_C 	C 	0.79927	0.24719	0.49741	-0.021
Mof_H 	H 	0.79977	0.23266	0.51776	0.033
Mof_H 	H 	0.83862	0.27185	0.5106	0.05
Mof_H 	H 	0.78226	0.19207	0.50765	0.031
Mof_Cu	Cu	0.01036	0.3513	0.48502	0.941
Mof_Cu	Cu	0.01759	0.29715	0.48301	0.946
Mof_O 	O 	0.01584	0.02295	0.79585	-0.419
Mof_O 	O 	0.98169	0.44439	0.6947	-0.44
Mof_O 	O 	0.01392	0.02906	0.84413	-0.413
Mof_O 	O 	0.98458	0.4496	0.64637	-0.416
Mof_O 	O 	0.0097	0.14893	0.94472	-0.411
Mof_O 	O 	0.01111	0.34708	0.52464	-0.418
Mof_O 	O 	0.01446	0.19737	0.9431	-0.422
Mof_O 	O 	0.01798	0.29892	0.52197	-0.438
Mof_N 	N 	0.03302	0.1602	0.81064	-0.155
Mof_N 	N 	0.00397	0.31312	0.65874	-0.156
Mof_C 	C 	0.00208	0.2405	0.69571	-0.016
Mof_C 	C 	0.99711	0.26276	0.6752	-0.08
Mof_H 	H 	0.98341	0.25837	0.65629	0.053
Mof_C 	C 	0.02394	0.08348	0.78642	0.038
Mof_H 	H 	0.02523	0.06982	0.76703	0.034
Mof_C 	C 	0.98425	0.38428	0.69238	0.039
Mof_H 	H 	0.97968	0.39424	0.71345	0.035
Mof_C 	C 	0.02999	0.11353	0.78356	-0.1
Mof_H 	H 	0.03592	0.12273	0.7625	0.059
Mof_C 	C 	0.99021	0.35409	0.69148	-0.1
Mof_H 	H 	0.98976	0.34126	0.71142	0.058
Mof_C 	C 	0.02823	0.13099	0.80858	0.096
Mof_C 	C 	0.99679	0.34144	0.66439	0.097
Mof_C 	C 	0.02075	0.11925	0.83548	-0.03
Mof_C 	C 	0.99632	0.35789	0.639	-0.031
Mof_C 	C 	0.01428	0.08955	0.83897	0.016
Mof_H 	H 	0.00817	0.08102	0.86028	0.044
Mof_C 	C 	0.99058	0.38793	0.63915	0.019
Mof_H 	H 	0.99113	0.40036	0.61892	0.042
Mof_C 	C 	0.01598	0.07121	0.81397	-0.112
Mof_C 	C 	0.98479	0.40154	0.66644	-0.115
Mof_C 	C 	0.01412	0.03964	0.81782	0.367
Mof_C 	C 	0.98366	0.43321	0.66944	0.374
Mof_C 	C 	0.01146	0.1731	0.93006	0.368
Mof_C 	C 	0.01474	0.32186	0.53706	0.374
Mof_C 	C 	0.01382	0.17172	0.8985	-0.114
Mof_C 	C 	0.01459	0.31938	0.56878	-0.115
Mof_C 	C 	0.01324	0.14388	0.88473	0.018
Mof_H 	H 	0.00684	0.12429	0.89655	0.044
Mof_C 	C 	0.0065	0.34354	0.58647	0.018
Mof_H 	H 	0.00276	0.36508	0.57717	0.043
Mof_C 	C 	0.02065	0.14234	0.85508	-0.031
Mof_C 	C 	0.00327	0.33893	0.61651	-0.03
Mof_C 	C 	0.0283	0.16693	0.83917	0.098
Mof_C 	C 	0.00782	0.31184	0.62927	0.097
Mof_C 	C 	0.02907	0.19461	0.85212	-0.099
Mof_H 	H 	0.03469	0.21398	0.8396	0.059
Mof_C 	C 	0.01645	0.28776	0.61246	-0.1
Mof_H 	H 	0.0208	0.26662	0.6223	0.058
Mof_C 	C 	0.02197	0.19686	0.88198	0.04
Mof_H 	H 	0.02238	0.21838	0.89205	0.033
Mof_C 	C 	0.01958	0.29163	0.58205	0.04
Mof_H 	H 	0.02612	0.27295	0.56892	0.034
Mof_C 	C 	0.03122	0.18015	0.787	0.09
Mof_C 	C 	0.00927	0.29068	0.67936	0.095
Mof_C 	C 	0.05267	0.20164	0.78261	-0.076
Mof_H 	H 	0.0719	0.2023	0.79654	0.053
Mof_C 	C 	0.02685	0.29595	0.70402	-0.079
Mof_H 	H 	0.03666	0.31732	0.70738	0.053
Mof_C 	C 	0.0491	0.22272	0.76066	-0.023
Mof_H 	H 	0.06607	0.23906	0.75773	0.034
Mof_C 	C 	0.03152	0.27391	0.72472	-0.02
Mof_H 	H 	0.04427	0.27911	0.74406	0.033
Mof_C 	C 	0.02367	0.22293	0.74308	-0.002
Mof_C 	C 	0.01907	0.24591	0.72094	-0.005
Mof_C 	C 	0.00645	0.17943	0.76887	-0.07
Mof_C 	C 	0.00259	0.20073	0.74719	-0.021
Mof_H 	H 	0.98224	0.20023	0.73266	0.033
Mof_H 	H 	0.9894	0.16138	0.77185	0.05
Mof_H 	H 	0.99235	0.21774	0.69207	0.031
Mof_Cu	Cu	0.01498	0.98964	0.8513	0.941
Mof_Cu	Cu	0.01699	0.98241	0.79715	0.946
Mof_O 	O 	0.98416	0.52295	0.70415	-0.419
Mof_O 	O 	0.01831	0.94439	0.8053	-0.44
Mof_O 	O 	0.98608	0.52906	0.65587	-0.413
Mof_O 	O 	0.01542	0.9496	0.85363	-0.416
Mof_O 	O 	0.9903	0.64893	0.55528	-0.411
Mof_O 	O 	0.98889	0.84708	0.97536	-0.418
Mof_O 	O 	0.98554	0.69737	0.5569	-0.422
Mof_O 	O 	0.98202	0.79892	0.97803	-0.438
Mof_N 	N 	0.96698	0.6602	0.68936	-0.155
Mof_N 	N 	0.99603	0.81312	0.84126	-0.156
Mof_C 	C 	0.99792	0.7405	0.80429	-0.016
Mof_C 	C 	0.00289	0.76276	0.8248	-0.08
Mof_H 	H 	0.01659	0.75837	0.84371	0.053
Mof_C 	C 	0.97606	0.58348	0.71358	0.038
Mof_H 	H 	0.97477	0.56982	0.73297	0.034
Mof_C 	C 	0.01575	0.88428	0.80762	0.039
Mof_H 	H 	0.02032	0.89424	0.78655	0.035
Mof_C 	C 	0.97001	0.61353	0.71644	-0.1
Mof_H 	H 	0.96408	0.62273	0.7375	0.059
Mof_C 	C 	0.00979	0.85409	0.80852	-0.1
Mof_H 	H 	0.01024	0.84126	0.78858	0.058
Mof_C 	C 	0.97177	0.63099	0.69142	0.096
Mof_C 	C 	0.00321	0.84144	0.83561	0.097
Mof_C 	C 	0.97925	0.61925	0.66452	-0.03
Mof_C 	C 	0.00368	0.85789	0.861	-0.031
Mof_C 	C 	0.98572	0.58955	0.66103	0.016
Mof_H 	H 	0.99183	0.58102	0.63972	0.044
Mof_C 	C 	0.00942	0.88793	0.86085	0.019
Mof_H 	H 	0.00887	0.90036	0.88108	0.042
Mof_C 	C 	0.98402	0.57121	0.68603	-0.112
Mof_C 	C 	0.01521	0.90154	0.83356	-0.115
Mof_C 	C 	0.98588	0.53964	0.68218	0.367
Mof_C 	C 	0.01634	0.93321	0.83056	0.374
Mof_C 	C 	0.98854	0.6731	0.56994	0.368
Mof_C 	C 	0.98526	0.82186	0.96294	0.374
Mof_C 	C 	0.98618	0.67172	0.6015	-0.114
Mof_C 	C 	0.98541	0.81938	0.93122	-0.115
Mof_C 	C 	0.98676	0.64388	0.61527	0.018
Mof_H 	H 	0.99316	0.62429	0.60345	0.044
Mof_C 	C 	0.9935	0.84354	0.91353	0.018
Mof_H 	H 	0.99724	0.86508	0.92283	0.043
Mof_C 	C 	0.97935	0.64234	0.64492	-0.031
Mof_C 	C 	0.99673	0.83893	0.88349	-0.03
Mof_C 	C 	0.9717	0.66693	0.66083	0.098
Mof_C 	C 	0.99218	0.81184	0.87073	0.097
Mof_C 	C 	0.97093	0.69461	0.64788	-0.099
Mof_H 	H 	0.96531	0.71398	0.6604	0.059
Mof_C 	C 	0.98355	0.78776	0.88754	-0.1
Mof_H 	H 	0.9792	0.76662	0.8777	0.058
Mof_C 	C 	0.97803	0.69686	0.61802	0.04
Mof_H 	H 	0.97762	0.71838	0.60795	0.033
Mof_C 	C 	0.98042	0.79163	0.91795	0.04
Mof_H 	H 	0.97388	0.77295	0.93108	0.034
Mof_C 	C 	0.96878	0.68015	0.713	0.09
Mof_C 	C 	0.99073	0.79068	0.82064	0.095
Mof_C 	C 	0.94733	0.70164	0.71739	-0.076
Mof_H 	H 	0.9281	0.7023	0.70346	0.053
Mof_C 	C 	0.97315	0.79595	0.79598	-0.079
Mof_H 	H 	0.96334	0.81732	0.79262	0.053
Mof_C 	C 	0.9509	0.72272	0.73934	-0.023
Mof_H 	H 	0.93393	0.73906	0.74227	0.034
Mof_C 	C 	0.96848	0.77391	0.77528	-0.02
Mof_H 	H 	0.95573	0.77911	0.75594	0.033
Mof_C 	C 	0.97633	0.72293	0.75692	-0.002
Mof_C 	C 	0.98093	0.74591	0.77906	-0.005
Mof_C 	C 	0.99355	0.67943	0.73113	-0.07
Mof_C 	C 	0.99741	0.70073	0.75281	-0.021
Mof_H 	H 	0.01776	0.70023	0.76734	0.033
Mof_H 	H 	0.0106	0.66138	0.72815	0.05
Mof_H 	H 	0.00765	0.71774	0.80793	0.031
Mof_Cu	Cu	0.98502	0.48964	0.6487	0.941
Mof_Cu	Cu	0.98301	0.48241	0.70285	0.946
Mof_O 	O 	0.51584	0.47705	0.20415	-0.419
Mof_O 	O 	0.48169	0.05561	0.3053	-0.44
Mof_O 	O 	0.51392	0.47094	0.15587	-0.413
Mof_O 	O 	0.48458	0.0504	0.35363	-0.416
Mof_O 	O 	0.5097	0.35107	0.05528	-0.411
Mof_O 	O 	0.51111	0.15292	0.47536	-0.418
Mof_O 	O 	0.51446	0.30263	0.0569	-0.422
Mof_O 	O 	0.51798	0.20108	0.47803	-0.438
Mof_N 	N 	0.53302	0.3398	0.18936	-0.155
Mof_N 	N 	0.50397	0.18688	0.34126	-0.156
Mof_C 	C 	0.50208	0.2595	0.30429	-0.016
Mof_C 	C 	0.49711	0.23724	0.3248	-0.08
Mof_H 	H 	0.48341	0.24163	0.34371	0.053
Mof_C 	C 	0.52394	0.41652	0.21358	0.038
Mof_H 	H 	0.52523	0.43018	0.23297	0.034
Mof_C 	C 	0.48425	0.11572	0.30762	0.039
Mof_H 	H 	0.47968	0.10576	0.28655	0.035
Mof_C 	C 	0.52999	0.38647	0.21644	-0.1
Mof_H 	H 	0.53592	0.37727	0.2375	0.059
Mof_C 	C 	0.49021	0.14591	0.30852	-0.1
Mof_H 	H 	0.48976	0.15874	0.28858	0.058
Mof_C 	C 	0.52823	0.36901	0.19142	0.096
Mof_C 	C 	0.49679	0.15856	0.33561	0.097
Mof_C 	C 	0.52075	0.38075	0.16452	-0.03
Mof_C 	C 	0.49632	0.14211	0.361	-0.031
Mof_C 	C 	0.51428	0.41045	0.16103	0.016
Mof_H 	H 	0.50817	0.41898	0.13972	0.044
Mof_C 	C 	0.49058	0.11207	0.36085	0.019
Mof_H 	H 	0.49113	0.09964	0.38108	0.042
Mof_C 	C 	0.51598	0.42879	0.18603	-0.112
Mof_C 	C 	0.48479	0.09846	0.33356	-0.115
Mof_C 	C 	0.51412	0.46036	0.18218	0.367
Mof_C 	C 	0.48366	0.06679	0.33056	0.374
Mof_C 	C 	0.51146	0.3269	0.06994	0.368
Mof_C 	C 	0.51474	0.17814	0.46294	0.374
Mof_C 	C 	0.51382	0.32828	0.1015	-0.114
Mof_C 	C 	0.51459	0.18062	0.43122	-0.115
Mof_C 	C 	0.51324	0.35612	0.11527	0.018
Mof_H 	H 	0.50684	0.37571	0.10345	0.044
Mof_C 	C 	0.5065	0.15646	0.41353	0.018
Mof_H 	H 	0.50276	0.13492	0.42283	0.043
Mof_C 	C 	0.52065	0.35766	0.14492	-0.031
Mof_C 	C 	0.50327	0.16107	0.38349	-0.03
Mof_C 	C 	0.5283	0.33307	0.16083	0.098
Mof_C 	C 	0.50782	0.18816	0.37073	0.097
Mof_C 	C 	0.52907	0.30539	0.14788	-0.099
Mof_H 	H 	0.53469	0.28602	0.1604	0.059
Mof_C 	C 	0.51645	0.21224	0.38754	-0.1
Mof_H 	H 	0.5208	0.23338	0.3777	0.058
Mof_C 	C 	0.52197	0.30314	0.11802	0.04
Mof_H 	H 	0.52238	0.28162	0.10795	0.033
Mof_C 	C 	0.51958	0.20837	0.41795	0.04
Mof_H 	H 	0.52612	0.22705	0.43108	0.034
Mof_C 	C 	0.53122	0.31985	0.213	0.09
Mof_C 	C 	0.50927	0.20932	0.32064	0.095
Mof_C 	C 	0.55267	0.29836	0.21739	-0.076
Mof_H 	H 	0.5719	0.2977	0.20346	0.053
Mof_C 	C 	0.52685	0.20405	0.29598	-0.079
Mof_H 	H 	0.53666	0.18268	0.29262	0.053
Mof_C 	C 	0.5491	0.27728	0.23934	-0.023
Mof_H 	H 	0.56607	0.26094	0.24227	0.034
Mof_C 	C 	0.53152	0.22609	0.27528	-0.02
Mof_H 	H 	0.54427	0.22089	0.25594	0.033
Mof_C 	C 	0.52367	0.27707	0.25692	-0.002
Mof_C 	C 	0.51907	0.25409	0.27906	-0.005
Mof_C 	C 	0.50645	0.32057	0.23113	-0.07
Mof_C 	C 	0.50259	0.29927	0.25281	-0.021
Mof_H 	H 	0.48224	0.29977	0.26734	0.033
Mof_H 	H 	0.4894	0.33862	0.22815	0.05
Mof_H 	H 	0.49235	0.28226	0.30793	0.031
Mof_Cu	Cu	0.51498	0.51036	0.1487	0.941
Mof_Cu	Cu	0.51699	0.51759	0.20285	0.946
Mof_O 	O 	0.48416	0.97705	0.29585	-0.419
Mof_O 	O 	0.51831	0.55561	0.1947	-0.44
Mof_O 	O 	0.48608	0.97094	0.34413	-0.413
Mof_O 	O 	0.51542	0.5504	0.14637	-0.416
Mof_O 	O 	0.4903	0.85107	0.44472	-0.411
Mof_O 	O 	0.48889	0.65292	0.02464	-0.418
Mof_O 	O 	0.48554	0.80263	0.4431	-0.422
Mof_O 	O 	0.48202	0.70108	0.02197	-0.438
Mof_N 	N 	0.46698	0.8398	0.31064	-0.155
Mof_N 	N 	0.49603	0.68688	0.15874	-0.156
Mof_C 	C 	0.49792	0.7595	0.19571	-0.016
Mof_C 	C 	0.50289	0.73724	0.1752	-0.08
Mof_H 	H 	0.51659	0.74163	0.15629	0.053
Mof_C 	C 	0.47606	0.91652	0.28642	0.038
Mof_H 	H 	0.47477	0.93018	0.26703	0.034
Mof_C 	C 	0.51575	0.61572	0.19238	0.039
Mof_H 	H 	0.52032	0.60576	0.21345	0.035
Mof_C 	C 	0.47001	0.88647	0.28356	-0.1
Mof_H 	H 	0.46408	0.87727	0.2625	0.059
Mof_C 	C 	0.50979	0.64591	0.19148	-0.1
Mof_H 	H 	0.51024	0.65874	0.21142	0.058
Mof_C 	C 	0.47177	0.86901	0.30858	0.096
Mof_C 	C 	0.50321	0.65856	0.16439	0.097
Mof_C 	C 	0.47925	0.88075	0.33548	-0.03
Mof_C 	C 	0.50368	0.64211	0.139	-0.031
Mof_C 	C 	0.48572	0.91045	0.33897	0.016
Mof_H 	H 	0.49183	0.91898	0.36028	0.044
Mof_C 	C 	0.50942	0.61207	0.13915	0.019
Mof_H 	H 	0.50887	0.59964	0.11892	0.042
Mof_C 	C 	0.48402	0.92879	0.31397	-0.112
Mof_C 	C 	0.51521	0.59846	0.16644	-0.115
Mof_C 	C 	0.48588	0.96036	0.31782	0.367
Mof_C 	C 	0.51634	0.56679	0.16944	0.374
Mof_C 	C 	0.48854	0.8269	0.43006	0.368
Mof_C 	C 	0.48526	0.67814	0.03706	0.374
Mof_C 	C 	0.48618	0.82828	0.3985	-0.114
Mof_C 	C 	0.48541	0.68062	0.06878	-0.115
Mof_C 	C 	0.48676	0.85612	0.38473	0.018
Mof_H 	H 	0.49316	0.87571	0.39655	0.044
Mof_C 	C 	0.4935	0.65646	0.08647	0.018
Mof_H 	H 	0.49724	0.63492	0.07717	0.043
Mof_C 	C 	0.47935	0.85766	0.35508	-0.031
Mof_C 	C 	0.49673	0.66107	0.11651	-0.03
Mof_C 	C 	0.4717	0.83307	0.33917	0.098
Mof_C 	C 	0.49218	0.68816	0.12927	0.097
Mof_C 	C 	0.47093	0.80539	0.35212	-0.099
Mof_H 	H 	0.46531	0.78602	0.3396	0.059
Mof_C 	C 	0.48355	0.71224	0.11246	-0.1
Mof_H 	H 	0.4792	0.73338	0.1223	0.058
Mof_C 	C 	0.47803	0.80314	0.38198	0.04
Mof_H 	H 	0.47762	0.78162	0.39205	0.033
Mof_C 	C 	0.48042	0.70837	0.08205	0.04
Mof_H 	H 	0.47388	0.72705	0.06892	0.034
Mof_C 	C 	0.46878	0.81985	0.287	0.09
Mof_C 	C 	0.49073	0.70932	0.17936	0.095
Mof_C 	C 	0.44733	0.79836	0.28261	-0.076
Mof_H 	H 	0.4281	0.7977	0.29654	0.053
Mof_C 	C 	0.47315	0.70405	0.20402	-0.079
Mof_H 	H 	0.46334	0.68268	0.20738	0.053
Mof_C 	C 	0.4509	0.77728	0.26066	-0.023
Mof_H 	H 	0.43393	0.76094	0.25773	0.034
Mof_C 	C 	0.46848	0.72609	0.22472	-0.02
Mof_H 	H 	0.45573	0.72089	0.24406	0.033
Mof_C 	C 	0.47633	0.77707	0.24308	-0.002
Mof_C 	C 	0.48093	0.75409	0.22094	-0.005
Mof_C 	C 	0.49355	0.82057	0.26887	-0.07
Mof_C 	C 	0.49741	0.79927	0.24719	-0.021
Mof_H 	H 	0.51776	0.79977	0.23266	0.033
Mof_H 	H 	0.5106	0.83862	0.27185	0.05
Mof_H 	H 	0.50765	0.78226	0.19207	0.031
Mof_Cu	Cu	0.48502	0.01036	0.3513	0.941
Mof_Cu	Cu	0.48301	0.01759	0.29715	0.946
Mof_O 	O 	0.20415	0.98416	0.97705	-0.419
Mof_O 	O 	0.3053	0.01831	0.55561	-0.44
Mof_O 	O 	0.15587	0.98608	0.97094	-0.413
Mof_O 	O 	0.35363	0.01542	0.5504	-0.416
Mof_O 	O 	0.05528	0.9903	0.85107	-0.411
Mof_O 	O 	0.47536	0.98889	0.65292	-0.418
Mof_O 	O 	0.0569	0.98554	0.80263	-0.422
Mof_O 	O 	0.47803	0.98202	0.70108	-0.438
Mof_N 	N 	0.18936	0.96698	0.8398	-0.155
Mof_N 	N 	0.34126	0.99603	0.68688	-0.156
Mof_C 	C 	0.30429	0.99792	0.7595	-0.016
Mof_C 	C 	0.3248	0.00289	0.73724	-0.08
Mof_H 	H 	0.34371	0.01659	0.74163	0.053
Mof_C 	C 	0.21358	0.97606	0.91652	0.038
Mof_H 	H 	0.23297	0.97477	0.93018	0.034
Mof_C 	C 	0.30762	0.01575	0.61572	0.039
Mof_H 	H 	0.28655	0.02032	0.60576	0.035
Mof_C 	C 	0.21644	0.97001	0.88647	-0.1
Mof_H 	H 	0.2375	0.96408	0.87727	0.059
Mof_C 	C 	0.30852	0.00979	0.64591	-0.1
Mof_H 	H 	0.28858	0.01024	0.65874	0.058
Mof_C 	C 	0.19142	0.97177	0.86901	0.096
Mof_C 	C 	0.33561	0.00321	0.65856	0.097
Mof_C 	C 	0.16452	0.97925	0.88075	-0.03
Mof_C 	C 	0.361	0.00368	0.64211	-0.031
Mof_C 	C 	0.16103	0.98572	0.91045	0.016
Mof_H 	H 	0.13972	0.99183	0.91898	0.044
Mof_C 	C 	0.36085	0.00942	0.61207	0.019
Mof_H 	H 	0.38108	0.00887	0.59964	0.042
Mof_C 	C 	0.18603	0.98402	0.92879	-0.112
Mof_C 	C 	0.33356	0.01521	0.59846	-0.115
Mof_C 	C 	0.18218	0.98588	0.96036	0.367
Mof_C 	C 	0.33056	0.01634	0.56679	0.374
Mof_C 	C 	0.06994	0.98854	0.8269	0.368
Mof_C 	C 	0.46294	0.98526	0.67814	0.374
Mof_C 	C 	0.1015	0.98618	0.82828	-0.114
Mof_C 	C 	0.43122	0.98541	0.68062	-0.115
Mof_C 	C 	0.11527	0.98676	0.85612	0.018
Mof_H 	H 	0.10345	0.99316	0.87571	0.044
Mof_C 	C 	0.41353	0.9935	0.65646	0.018
Mof_H 	H 	0.42283	0.99724	0.63492	0.043
Mof_C 	C 	0.14492	0.97935	0.85766	-0.031
Mof_C 	C 	0.38349	0.99673	0.66107	-0.03
Mof_C 	C 	0.16083	0.9717	0.83307	0.098
Mof_C 	C 	0.37073	0.99218	0.68816	0.097
Mof_C 	C 	0.14788	0.97093	0.80539	-0.099
Mof_H 	H 	0.1604	0.96531	0.78602	0.059
Mof_C 	C 	0.38754	0.98355	0.71224	-0.1
Mof_H 	H 	0.3777	0.9792	0.73338	0.058
Mof_C 	C 	0.11802	0.97803	0.80314	0.04
Mof_H 	H 	0.10795	0.97762	0.78162	0.033
Mof_C 	C 	0.41795	0.98042	0.70837	0.04
Mof_H 	H 	0.43108	0.97388	0.72705	0.034
Mof_C 	C 	0.213	0.96878	0.81985	0.09
Mof_C 	C 	0.32064	0.99073	0.70932	0.095
Mof_C 	C 	0.21739	0.94733	0.79836	-0.076
Mof_H 	H 	0.20346	0.9281	0.7977	0.053
Mof_C 	C 	0.29598	0.97315	0.70405	-0.079
Mof_H 	H 	0.29262	0.96334	0.68268	0.053
Mof_C 	C 	0.23934	0.9509	0.77728	-0.023
Mof_H 	H 	0.24227	0.93393	0.76094	0.034
Mof_C 	C 	0.27528	0.96848	0.72609	-0.02
Mof_H 	H 	0.25594	0.95573	0.72089	0.033
Mof_C 	C 	0.25692	0.97633	0.77707	-0.002
Mof_C 	C 	0.27906	0.98093	0.75409	-0.005
Mof_C 	C 	0.23113	0.99355	0.82057	-0.07
Mof_C 	C 	0.25281	0.99741	0.79927	-0.021
Mof_H 	H 	0.26734	0.01776	0.79977	0.033
Mof_H 	H 	0.22815	0.0106	0.83862	0.05
Mof_H 	H 	0.30793	0.00765	0.78226	0.031
Mof_Cu	Cu	0.1487	0.98502	0.01036	0.941
Mof_Cu	Cu	0.20285	0.98301	0.01759	0.946
Mof_O 	O 	0.29585	0.01584	0.47705	-0.419
Mof_O 	O 	0.1947	0.98169	0.05561	-0.44
Mof_O 	O 	0.34413	0.01392	0.47094	-0.413
Mof_O 	O 	0.14637	0.98458	0.0504	-0.416
Mof_O 	O 	0.44472	0.0097	0.35107	-0.411
Mof_O 	O 	0.02464	0.01111	0.15292	-0.418
Mof_O 	O 	0.4431	0.01446	0.30263	-0.422
Mof_O 	O 	0.02197	0.01798	0.20108	-0.438
Mof_N 	N 	0.31064	0.03302	0.3398	-0.155
Mof_N 	N 	0.15874	0.00397	0.18688	-0.156
Mof_C 	C 	0.19571	0.00208	0.2595	-0.016
Mof_C 	C 	0.1752	0.99711	0.23724	-0.08
Mof_H 	H 	0.15629	0.98341	0.24163	0.053
Mof_C 	C 	0.28642	0.02394	0.41652	0.038
Mof_H 	H 	0.26703	0.02523	0.43018	0.034
Mof_C 	C 	0.19238	0.98425	0.11572	0.039
Mof_H 	H 	0.21345	0.97968	0.10576	0.035
Mof_C 	C 	0.28356	0.02999	0.38647	-0.1
Mof_H 	H 	0.2625	0.03592	0.37727	0.059
Mof_C 	C 	0.19148	0.99021	0.14591	-0.1
Mof_H 	H 	0.21142	0.98976	0.15874	0.058
Mof_C 	C 	0.30858	0.02823	0.36901	0.096
Mof_C 	C 	0.16439	0.99679	0.15856	0.097
Mof_C 	C 	0.33548	0.02075	0.38075	-0.03
Mof_C 	C 	0.139	0.99632	0.14211	-0.031
Mof_C 	C 	0.33897	0.01428	0.41045	0.016
Mof_H 	H 	0.36028	0.00817	0.41898	0.044
Mof_C 	C 	0.13915	0.99058	0.11207	0.019
Mof_H 	H 	0.11892	0.99113	0.09964	0.042
Mof_C 	C 	0.31397	0.01598	0.42879	-0.112
Mof_C 	C 	0.16644	0.98479	0.09846	-0.115
Mof_C 	C 	0.31782	0.01412	0.46036	0.367
Mof_C 	C 	0.16944	0.98366	0.06679	0.374
Mof_C 	C 	0.43006	0.01146	0.3269	0.368
Mof_C 	C 	0.03706	0.01474	0.17814	0.374
Mof_C 	C 	0.3985	0.01382	0.32828	-0.114
Mof_C 	C 	0.06878	0.01459	0.18062	-0.115
Mof_C 	C 	0.38473	0.01324	0.35612	0.018
Mof_H 	H 	0.39655	0.00684	0.37571	0.044
Mof_C 	C 	0.08647	0.0065	0.15646	0.018
Mof_H 	H 	0.07717	0.00276	0.13492	0.043
Mof_C 	C 	0.35508	0.02065	0.35766	-0.031
Mof_C 	C 	0.11651	0.00327	0.16107	-0.03
Mof_C 	C 	0.33917	0.0283	0.33307	0.098
Mof_C 	C 	0.12927	0.00782	0.18816	0.097
Mof_C 	C 	0.35212	0.02907	0.30539	-0.099
Mof_H 	H 	0.3396	0.03469	0.28602	0.059
Mof_C 	C 	0.11246	0.01645	0.21224	-0.1
Mof_H 	H 	0.1223	0.0208	0.23338	0.058
Mof_C 	C 	0.38198	0.02197	0.30314	0.04
Mof_H 	H 	0.39205	0.02238	0.28162	0.033
Mof_C 	C 	0.08205	0.01958	0.20837	0.04
Mof_H 	H 	0.06892	0.02612	0.22705	0.034
Mof_C 	C 	0.287	0.03122	0.31985	0.09
Mof_C 	C 	0.17936	0.00927	0.20932	0.095
Mof_C 	C 	0.28261	0.05267	0.29836	-0.076
Mof_H 	H 	0.29654	0.0719	0.2977	0.053
Mof_C 	C 	0.20402	0.02685	0.20405	-0.079
Mof_H 	H 	0.20738	0.03666	0.18268	0.053
Mof_C 	C 	0.26066	0.0491	0.27728	-0.023
Mof_H 	H 	0.25773	0.06607	0.26094	0.034
Mof_C 	C 	0.22472	0.03152	0.22609	-0.02
Mof_H 	H 	0.24406	0.04427	0.22089	0.033
Mof_C 	C 	0.24308	0.02367	0.27707	-0.002
Mof_C 	C 	0.22094	0.01907	0.25409	-0.005
Mof_C 	C 	0.26887	0.00645	0.32057	-0.07
Mof_C 	C 	0.24719	0.00259	0.29927	-0.021
Mof_H 	H 	0.23266	0.98224	0.29977	0.033
Mof_H 	H 	0.27185	0.9894	0.33862	0.05
Mof_H 	H 	0.19207	0.99235	0.28226	0.031
Mof_Cu	Cu	0.3513	0.01498	0.51036	0.941
Mof_Cu	Cu	0.29715	0.01699	0.51759	0.946
Mof_O 	O 	0.79585	0.48416	0.52295	-0.419
Mof_O 	O 	0.6947	0.51831	0.94439	-0.44
Mof_O 	O 	0.84413	0.48608	0.52906	-0.413
Mof_O 	O 	0.64637	0.51542	0.9496	-0.416
Mof_O 	O 	0.94472	0.4903	0.64893	-0.411
Mof_O 	O 	0.52464	0.48889	0.84708	-0.418
Mof_O 	O 	0.9431	0.48554	0.69737	-0.422
Mof_O 	O 	0.52197	0.48202	0.79892	-0.438
Mof_N 	N 	0.81064	0.46698	0.6602	-0.155
Mof_N 	N 	0.65874	0.49603	0.81312	-0.156
Mof_C 	C 	0.69571	0.49792	0.7405	-0.016
Mof_C 	C 	0.6752	0.50289	0.76276	-0.08
Mof_H 	H 	0.65629	0.51659	0.75837	0.053
Mof_C 	C 	0.78642	0.47606	0.58348	0.038
Mof_H 	H 	0.76703	0.47477	0.56982	0.034
Mof_C 	C 	0.69238	0.51575	0.88428	0.039
Mof_H 	H 	0.71345	0.52032	0.89424	0.035
Mof_C 	C 	0.78356	0.47001	0.61353	-0.1
Mof_H 	H 	0.7625	0.46408	0.62273	0.059
Mof_C 	C 	0.69148	0.50979	0.85409	-0.1
Mof_H 	H 	0.71142	0.51024	0.84126	0.058
Mof_C 	C 	0.80858	0.47177	0.63099	0.096
Mof_C 	C 	0.66439	0.50321	0.84144	0.097
Mof_C 	C 	0.83548	0.47925	0.61925	-0.03
Mof_C 	C 	0.639	0.50368	0.85789	-0.031
Mof_C 	C 	0.83897	0.48572	0.58955	0.016
Mof_H 	H 	0.86028	0.49183	0.58102	0.044
Mof_C 	C 	0.63915	0.50942	0.88793	0.019
Mof_H 	H 	0.61892	0.50887	0.90036	0.042
Mof_C 	C 	0.81397	0.48402	0.57121	-0.112
Mof_C 	C 	0.66644	0.51521	0.90154	-0.115
Mof_C 	C 	0.81782	0.48588	0.53964	0.367
Mof_C 	C 	0.66944	0.51634	0.93321	0.374
Mof_C 	C 	0.93006	0.48854	0.6731	0.368
Mof_C 	C 	0.53706	0.48526	0.82186	0.374
Mof_C 	C 	0.8985	0.48618	0.67172	-0.114
Mof_C 	C 	0.56878	0.48541	0.81938	-0.115
Mof_C 	C 	0.88473	0.48676	0.64388	0.018
Mof_H 	H 	0.89655	0.49316	0.62429	0.044
Mof_C 	C 	0.58647	0.4935	0.84354	0.018
Mof_H 	H 	0.57717	0.49724	0.86508	0.043
Mof_C 	C 	0.85508	0.47935	0.64234	-0.031
Mof_C 	C 	0.61651	0.49673	0.83893	-0.03
Mof_C 	C 	0.83917	0.4717	0.66693	0.098
Mof_C 	C 	0.62927	0.49218	0.81184	0.097
Mof_C 	C 	0.85212	0.47093	0.69461	-0.099
Mof_H 	H 	0.8396	0.46531	0.71398	0.059
Mof_C 	C 	0.61246	0.48355	0.78776	-0.1
Mof_H 	H 	0.6223	0.4792	0.76662	0.058
Mof_C 	C 	0.88198	0.47803	0.69686	0.04
Mof_H 	H 	0.89205	0.47762	0.71838	0.033
Mof_C 	C 	0.58205	0.48042	0.79163	0.04
Mof_H 	H 	0.56892	0.47388	0.77295	0.034
Mof_C 	C 	0.787	0.46878	0.68015	0.09
Mof_C 	C 	0.67936	0.49073	0.79068	0.095
Mof_C 	C 	0.78261	0.44733	0.70164	-0.076
Mof_H 	H 	0.79654	0.4281	0.7023	0.053
Mof_C 	C 	0.70402	0.47315	0.79595	-0.079
Mof_H 	H 	0.70738	0.46334	0.81732	0.053
Mof_C 	C 	0.76066	0.4509	0.72272	-0.023
Mof_H 	H 	0.75773	0.43393	0.73906	0.034
Mof_C 	C 	0.72472	0.46848	0.77391	-0.02
Mof_H 	H 	0.74406	0.45573	0.77911	0.033
Mof_C 	C 	0.74308	0.47633	0.72293	-0.002
Mof_C 	C 	0.72094	0.48093	0.74591	-0.005
Mof_C 	C 	0.76887	0.49355	0.67943	-0.07
Mof_C 	C 	0.74719	0.49741	0.70073	-0.021
Mof_H 	H 	0.73266	0.51776	0.70023	0.033
Mof_H 	H 	0.77185	0.5106	0.66138	0.05
Mof_H 	H 	0.69207	0.50765	0.71774	0.031
Mof_Cu	Cu	0.8513	0.48502	0.48964	0.941
Mof_Cu	Cu	0.79715	0.48301	0.48241	0.946
Mof_O 	O 	0.70415	0.51584	0.02295	-0.419
Mof_O 	O 	0.8053	0.48169	0.44439	-0.44
Mof_O 	O 	0.65587	0.51392	0.02906	-0.413
Mof_O 	O 	0.85363	0.48458	0.4496	-0.416
Mof_O 	O 	0.55528	0.5097	0.14893	-0.411
Mof_O 	O 	0.97536	0.51111	0.34708	-0.418
Mof_O 	O 	0.5569	0.51446	0.19737	-0.422
Mof_O 	O 	0.97803	0.51798	0.29892	-0.438
Mof_N 	N 	0.68936	0.53302	0.1602	-0.155
Mof_N 	N 	0.84126	0.50397	0.31312	-0.156
Mof_C 	C 	0.80429	0.50208	0.2405	-0.016
Mof_C 	C 	0.8248	0.49711	0.26276	-0.08
Mof_H 	H 	0.84371	0.48341	0.25837	0.053
Mof_C 	C 	0.71358	0.52394	0.08348	0.038
Mof_H 	H 	0.73297	0.52523	0.06982	0.034
Mof_C 	C 	0.80762	0.48425	0.38428	0.039
Mof_H 	H 	0.78655	0.47968	0.39424	0.035
Mof_C 	C 	0.71644	0.52999	0.11353	-0.1
Mof_H 	H 	0.7375	0.53592	0.12273	0.059
Mof_C 	C 	0.80852	0.49021	0.35409	-0.1
Mof_H 	H 	0.78858	0.48976	0.34126	0.058
Mof_C 	C 	0.69142	0.52823	0.13099	0.096
Mof_C 	C 	0.83561	0.49679	0.34144	0.097
Mof_C 	C 	0.66452	0.52075	0.11925	-0.03
Mof_C 	C 	0.861	0.49632	0.35789	-0.031
Mof_C 	C 	0.66103	0.51428	0.08955	0.016
Mof_H 	H 	0.63972	0.50817	0.08102	0.044
Mof_C 	C 	0.86085	0.49058	0.38793	0.019
Mof_H 	H 	0.88108	0.49113	0.40036	0.042
Mof_C 	C 	0.68603	0.51598	0.07121	-0.112
Mof_C 	C 	0.83356	0.48479	0.40154	-0.115
Mof_C 	C 	0.68218	0.51412	0.03964	0.367
Mof_C 	C 	0.83056	0.48366	0.43321	0.374
Mof_C 	C 	0.56994	0.51146	0.1731	0.368
Mof_C 	C 	0.96294	0.51474	0.32186	0.374
Mof_C 	C 	0.6015	0.51382	0.17172	-0.114
Mof_C 	C 	0.93122	0.51459	0.31938	-0.115
Mof_C 	C 	0.61527	0.51324	0.14388	0.018
Mof_H 	H 	0.60345	0.50684	0.12429	0.044
Mof_C 	C 	0.91353	0.5065	0.34354	0.018
Mof_H 	H 	0.92283	0.50276	0.36508	0.043
Mof_C 	C 	0.64492	0.52065	0.14234	-0.031
Mof_C 	C 	0.88349	0.50327	0.33893	-0.03
Mof_C 	C 	0.66083	0.5283	0.16693	0.098
Mof_C 	C 	0.87073	0.50782	0.31184	0.097
Mof_C 	C 	0.64788	0.52907	0.19461	-0.099
Mof_H 	H 	0.6604	0.53469	0.21398	0.059
Mof_C 	C 	0.88754	0.51645	0.28776	-0.1
Mof_H 	H 	0.8777	0.5208	0.26662	0.058
Mof_C 	C 	0.61802	0.52197	0.19686	0.04
Mof_H 	H 	0.60795	0.52238	0.21838	0.033
Mof_C 	C 	0.91795	0.51958	0.29163	0.04
Mof_H 	H 	0.93108	0.52612	0.27295	0.034
Mof_C 	C 	0.713	0.53122	0.18015	0.09
Mof_C 	C 	0.82064	0.50927	0.29068	0.095
Mof_C 	C 	0.71739	0.55267	0.20164	-0.076
Mof_H 	H 	0.70346	0.5719	0.2023	0.053
Mof_C 	C 	0.79598	0.52685	0.29595	-0.079
Mof_H 	H 	0.79262	0.53666	0.31732	0.053
Mof_C 	C 	0.73934	0.5491	0.22272	-0.023
Mof_H 	H 	0.74227	0.56607	0.23906	0.034
Mof_C 	C 	0.77528	0.53152	0.27391	-0.02
Mof_H 	H 	0.75594	0.54427	0.27911	0.033
Mof_C 	C 	0.75692	0.52367	0.22293	-0.002
Mof_C 	C 	0.77906	0.51907	0.24591	-0.005
Mof_C 	C 	0.73113	0.50645	0.17943	-0.07
Mof_C 	C 	0.75281	0.50259	0.20073	-0.021
Mof_H 	H 	0.76734	0.48224	0.20023	0.033
Mof_H 	H 	0.72815	0.4894	0.16138	0.05
Mof_H 	H 	0.80793	0.49235	0.21774	0.031
Mof_Cu	Cu	0.6487	0.51498	0.98964	0.941
Mof_Cu	Cu	0.70285	0.51699	0.98241	0.946
Mof_O 	O 	0.97705	0.20415	0.98416	-0.419
Mof_O 	O 	0.55561	0.3053	0.01831	-0.44
Mof_O 	O 	0.97094	0.15587	0.98608	-0.413
Mof_O 	O 	0.5504	0.35363	0.01542	-0.416
Mof_O 	O 	0.85107	0.05528	0.9903	-0.411
Mof_O 	O 	0.65292	0.47536	0.98889	-0.418
Mof_O 	O 	0.80263	0.0569	0.98554	-0.422
Mof_O 	O 	0.70108	0.47803	0.98202	-0.438
Mof_N 	N 	0.8398	0.18936	0.96698	-0.155
Mof_N 	N 	0.68688	0.34126	0.99603	-0.156
Mof_C 	C 	0.7595	0.30429	0.99792	-0.016
Mof_C 	C 	0.73724	0.3248	0.00289	-0.08
Mof_H 	H 	0.74163	0.34371	0.01659	0.053
Mof_C 	C 	0.91652	0.21358	0.97606	0.038
Mof_H 	H 	0.93018	0.23297	0.97477	0.034
Mof_C 	C 	0.61572	0.30762	0.01575	0.039
Mof_H 	H 	0.60576	0.28655	0.02032	0.035
Mof_C 	C 	0.88647	0.21644	0.97001	-0.1
Mof_H 	H 	0.87727	0.2375	0.96408	0.059
Mof_C 	C 	0.64591	0.30852	0.00979	-0.1
Mof_H 	H 	0.65874	0.28858	0.01024	0.058
Mof_C 	C 	0.86901	0.19142	0.97177	0.096
Mof_C 	C 	0.65856	0.33561	0.00321	0.097
Mof_C 	C 	0.88075	0.16452	0.97925	-0.03
Mof_C 	C 	0.64211	0.361	0.00368	-0.031
Mof_C 	C 	0.91045	0.16103	0.98572	0.016
Mof_H 	H 	0.91898	0.13972	0.99183	0.044
Mof_C 	C 	0.61207	0.36085	0.00942	0.019
Mof_H 	H 	0.59964	0.38108	0.00887	0.042
Mof_C 	C 	0.92879	0.18603	0.98402	-0.112
Mof_C 	C 	0.59846	0.33356	0.01521	-0.115
Mof_C 	C 	0.96036	0.18218	0.98588	0.367
Mof_C 	C 	0.56679	0.33056	0.01634	0.374
Mof_C 	C 	0.8269	0.06994	0.98854	0.368
Mof_C 	C 	0.67814	0.46294	0.98526	0.374
Mof_C 	C 	0.82828	0.1015	0.98618	-0.114
Mof_C 	C 	0.68062	0.43122	0.98541	-0.115
Mof_C 	C 	0.85612	0.11527	0.98676	0.018
Mof_H 	H 	0.87571	0.10345	0.99316	0.044
Mof_C 	C 	0.65646	0.41353	0.9935	0.018
Mof_H 	H 	0.63492	0.42283	0.99724	0.043
Mof_C 	C 	0.85766	0.14492	0.97935	-0.031
Mof_C 	C 	0.66107	0.38349	0.99673	-0.03
Mof_C 	C 	0.83307	0.16083	0.9717	0.098
Mof_C 	C 	0.68816	0.37073	0.99218	0.097
Mof_C 	C 	0.80539	0.14788	0.97093	-0.099
Mof_H 	H 	0.78602	0.1604	0.96531	0.059
Mof_C 	C 	0.71224	0.38754	0.98355	-0.1
Mof_H 	H 	0.73338	0.3777	0.9792	0.058
Mof_C 	C 	0.80314	0.11802	0.97803	0.04
Mof_H 	H 	0.78162	0.10795	0.97762	0.033
Mof_C 	C 	0.70837	0.41795	0.98042	0.04
Mof_H 	H 	0.72705	0.43108	0.97388	0.034
Mof_C 	C 	0.81985	0.213	0.96878	0.09
Mof_C 	C 	0.70932	0.32064	0.99073	0.095
Mof_C 	C 	0.79836	0.21739	0.94733	-0.076
Mof_H 	H 	0.7977	0.20346	0.9281	0.053
Mof_C 	C 	0.70405	0.29598	0.97315	-0.079
Mof_H 	H 	0.68268	0.29262	0.96334	0.053
Mof_C 	C 	0.77728	0.23934	0.9509	-0.023
Mof_H 	H 	0.76094	0.24227	0.93393	0.034
Mof_C 	C 	0.72609	0.27528	0.96848	-0.02
Mof_H 	H 	0.72089	0.25594	0.95573	0.033
Mof_C 	C 	0.77707	0.25692	0.97633	-0.002
Mof_C 	C 	0.75409	0.27906	0.98093	-0.005
Mof_C 	C 	0.82057	0.23113	0.99355	-0.07
Mof_C 	C 	0.79927	0.25281	0.99741	-0.021
Mof_H 	H 	0.79977	0.26734	0.01776	0.033
Mof_H 	H 	0.83862	0.22815	0.0106	0.05
Mof_H 	H 	0.78226	0.30793	0.00765	0.031
Mof_Cu	Cu	0.01036	0.1487	0.98502	0.941
Mof_Cu	Cu	0.01759	0.20285	0.98301	0.946
Mof_O 	O 	0.47705	0.29585	0.01584	-0.419
Mof_O 	O 	0.05561	0.1947	0.98169	-0.44
Mof_O 	O 	0.47094	0.34413	0.01392	-0.413
Mof_O 	O 	0.0504	0.14637	0.98458	-0.416
Mof_O 	O 	0.35107	0.44472	0.0097	-0.411
Mof_O 	O 	0.15292	0.02464	0.01111	-0.418
Mof_O 	O 	0.30263	0.4431	0.01446	-0.422
Mof_O 	O 	0.20108	0.02197	0.01798	-0.438
Mof_N 	N 	0.3398	0.31064	0.03302	-0.155
Mof_N 	N 	0.18688	0.15874	0.00397	-0.156
Mof_C 	C 	0.2595	0.19571	0.00208	-0.016
Mof_C 	C 	0.23724	0.1752	0.99711	-0.08
Mof_H 	H 	0.24163	0.15629	0.98341	0.053
Mof_C 	C 	0.41652	0.28642	0.02394	0.038
Mof_H 	H 	0.43018	0.26703	0.02523	0.034
Mof_C 	C 	0.11572	0.19238	0.98425	0.039
Mof_H 	H 	0.10576	0.21345	0.97968	0.035
Mof_C 	C 	0.38647	0.28356	0.02999	-0.1
Mof_H 	H 	0.37727	0.2625	0.03592	0.059
Mof_C 	C 	0.14591	0.19148	0.99021	-0.1
Mof_H 	H 	0.15874	0.21142	0.98976	0.058
Mof_C 	C 	0.36901	0.30858	0.02823	0.096
Mof_C 	C 	0.15856	0.16439	0.99679	0.097
Mof_C 	C 	0.38075	0.33548	0.02075	-0.03
Mof_C 	C 	0.14211	0.139	0.99632	-0.031
Mof_C 	C 	0.41045	0.33897	0.01428	0.016
Mof_H 	H 	0.41898	0.36028	0.00817	0.044
Mof_C 	C 	0.11207	0.13915	0.99058	0.019
Mof_H 	H 	0.09964	0.11892	0.99113	0.042
Mof_C 	C 	0.42879	0.31397	0.01598	-0.112
Mof_C 	C 	0.09846	0.16644	0.98479	-0.115
Mof_C 	C 	0.46036	0.31782	0.01412	0.367
Mof_C 	C 	0.06679	0.16944	0.98366	0.374
Mof_C 	C 	0.3269	0.43006	0.01146	0.368
Mof_C 	C 	0.17814	0.03706	0.01474	0.374
Mof_C 	C 	0.32828	0.3985	0.01382	-0.114
Mof_C 	C 	0.18062	0.06878	0.01459	-0.115
Mof_C 	C 	0.35612	0.38473	0.01324	0.018
Mof_H 	H 	0.37571	0.39655	0.00684	0.044
Mof_C 	C 	0.15646	0.08647	0.0065	0.018
Mof_H 	H 	0.13492	0.07717	0.00276	0.043
Mof_C 	C 	0.35766	0.35508	0.02065	-0.031
Mof_C 	C 	0.16107	0.11651	0.00327	-0.03
Mof_C 	C 	0.33307	0.33917	0.0283	0.098
Mof_C 	C 	0.18816	0.12927	0.00782	0.097
Mof_C 	C 	0.30539	0.35212	0.02907	-0.099
Mof_H 	H 	0.28602	0.3396	0.03469	0.059
Mof_C 	C 	0.21224	0.11246	0.01645	-0.1
Mof_H 	H 	0.23338	0.1223	0.0208	0.058
Mof_C 	C 	0.30314	0.38198	0.02197	0.04
Mof_H 	H 	0.28162	0.39205	0.02238	0.033
Mof_C 	C 	0.20837	0.08205	0.01958	0.04
Mof_H 	H 	0.22705	0.06892	0.02612	0.034
Mof_C 	C 	0.31985	0.287	0.03122	0.09
Mof_C 	C 	0.20932	0.17936	0.00927	0.095
Mof_C 	C 	0.29836	0.28261	0.05267	-0.076
Mof_H 	H 	0.2977	0.29654	0.0719	0.053
Mof_C 	C 	0.20405	0.20402	0.02685	-0.079
Mof_H 	H 	0.18268	0.20738	0.03666	0.053
Mof_C 	C 	0.27728	0.26066	0.0491	-0.023
Mof_H 	H 	0.26094	0.25773	0.06607	0.034
Mof_C 	C 	0.22609	0.22472	0.03152	-0.02
Mof_H 	H 	0.22089	0.24406	0.04427	0.033
Mof_C 	C 	0.27707	0.24308	0.02367	-0.002
Mof_C 	C 	0.25409	0.22094	0.01907	-0.005
Mof_C 	C 	0.32057	0.26887	0.00645	-0.07
Mof_C 	C 	0.29927	0.24719	0.00259	-0.021
Mof_H 	H 	0.29977	0.23266	0.98224	0.033
Mof_H 	H 	0.33862	0.27185	0.9894	0.05
Mof_H 	H 	0.28226	0.19207	0.99235	0.031
Mof_Cu	Cu	0.51036	0.3513	0.01498	0.941
Mof_Cu	Cu	0.51759	0.29715	0.01699	0.946
Mof_O 	O 	0.52295	0.79585	0.48416	-0.419
Mof_O 	O 	0.94439	0.6947	0.51831	-0.44
Mof_O 	O 	0.52906	0.84413	0.48608	-0.413
Mof_O 	O 	0.9496	0.64637	0.51542	-0.416
Mof_O 	O 	0.64893	0.94472	0.4903	-0.411
Mof_O 	O 	0.84708	0.52464	0.48889	-0.418
Mof_O 	O 	0.69737	0.9431	0.48554	-0.422
Mof_O 	O 	0.79892	0.52197	0.48202	-0.438
Mof_N 	N 	0.6602	0.81064	0.46698	-0.155
Mof_N 	N 	0.81312	0.65874	0.49603	-0.156
Mof_C 	C 	0.7405	0.69571	0.49792	-0.016
Mof_C 	C 	0.76276	0.6752	0.50289	-0.08
Mof_H 	H 	0.75837	0.65629	0.51659	0.053
Mof_C 	C 	0.58348	0.78642	0.47606	0.038
Mof_H 	H 	0.56982	0.76703	0.47477	0.034
Mof_C 	C 	0.88428	0.69238	0.51575	0.039
Mof_H 	H 	0.89424	0.71345	0.52032	0.035
Mof_C 	C 	0.61353	0.78356	0.47001	-0.1
Mof_H 	H 	0.62273	0.7625	0.46408	0.059
Mof_C 	C 	0.85409	0.69148	0.50979	-0.1
Mof_H 	H 	0.84126	0.71142	0.51024	0.058
Mof_C 	C 	0.63099	0.80858	0.47177	0.096
Mof_C 	C 	0.84144	0.66439	0.50321	0.097
Mof_C 	C 	0.61925	0.83548	0.47925	-0.03
Mof_C 	C 	0.85789	0.639	0.50368	-0.031
Mof_C 	C 	0.58955	0.83897	0.48572	0.016
Mof_H 	H 	0.58102	0.86028	0.49183	0.044
Mof_C 	C 	0.88793	0.63915	0.50942	0.019
Mof_H 	H 	0.90036	0.61892	0.50887	0.042
Mof_C 	C 	0.57121	0.81397	0.48402	-0.112
Mof_C 	C 	0.90154	0.66644	0.51521	-0.115
Mof_C 	C 	0.53964	0.81782	0.48588	0.367
Mof_C 	C 	0.93321	0.66944	0.51634	0.374
Mof_C 	C 	0.6731	0.93006	0.48854	0.368
Mof_C 	C 	0.82186	0.53706	0.48526	0.374
Mof_C 	C 	0.67172	0.8985	0.48618	-0.114
Mof_C 	C 	0.81938	0.56878	0.48541	-0.115
Mof_C 	C 	0.64388	0.88473	0.48676	0.018
Mof_H 	H 	0.62429	0.89655	0.49316	0.044
Mof_C 	C 	0.84354	0.58647	0.4935	0.018
Mof_H 	H 	0.86508	0.57717	0.49724	0.043
Mof_C 	C 	0.64234	0.85508	0.47935	-0.031
Mof_C 	C 	0.83893	0.61651	0.49673	-0.03
Mof_C 	C 	0.66693	0.83917	0.4717	0.098
Mof_C 	C 	0.81184	0.62927	0.49218	0.097
Mof_C 	C 	0.69461	0.85212	0.47093	-0.099
Mof_H 	H 	0.71398	0.8396	0.46531	0.059
Mof_C 	C 	0.78776	0.61246	0.48355	-0.1
Mof_H 	H 	0.76662	0.6223	0.4792	0.058
Mof_C 	C 	0.69686	0.88198	0.47803	0.04
Mof_H 	H 	0.71838	0.89205	0.47762	0.033
Mof_C 	C 	0.79163	0.58205	0.48042	0.04
Mof_H 	H 	0.77295	0.56892	0.47388	0.034
Mof_C 	C 	0.68015	0.787	0.46878	0.09
Mof_C 	C 	0.79068	0.67936	0.49073	0.095
Mof_C 	C 	0.70164	0.78261	0.44733	-0.076
Mof_H 	H 	0.7023	0.79654	0.4281	0.053
Mof_C 	C 	0.79595	0.70402	0.47315	-0.079
Mof_H 	H 	0.81732	0.70738	0.46334	0.053
Mof_C 	C 	0.72272	0.76066	0.4509	-0.023
Mof_H 	H 	0.73906	0.75773	0.43393	0.034
Mof_C 	C 	0.77391	0.72472	0.46848	-0.02
Mof_H 	H 	0.77911	0.74406	0.45573	0.033
Mof_C 	C 	0.72293	0.74308	0.47633	-0.002
Mof_C 	C 	0.74591	0.72094	0.48093	-0.005
Mof_C 	C 	0.67943	0.76887	0.49355	-0.07
Mof_C 	C 	0.70073	0.74719	0.49741	-0.021
Mof_H 	H 	0.70023	0.73266	0.51776	0.033
Mof_H 	H 	0.66138	0.77185	0.5106	0.05
Mof_H 	H 	0.71774	0.69207	0.50765	0.031
Mof_Cu	Cu	0.48964	0.8513	0.48502	0.941
Mof_Cu	Cu	0.48241	0.79715	0.48301	0.946
Mof_O 	O 	0.02295	0.70415	0.51584	-0.419
Mof_O 	O 	0.44439	0.8053	0.48169	-0.44
Mof_O 	O 	0.02906	0.65587	0.51392	-0.413
Mof_O 	O 	0.4496	0.85363	0.48458	-0.416
Mof_O 	O 	0.14893	0.55528	0.5097	-0.411
Mof_O 	O 	0.34708	0.97536	0.51111	-0.418
Mof_O 	O 	0.19737	0.5569	0.51446	-0.422
Mof_O 	O 	0.29892	0.97803	0.51798	-0.438
Mof_N 	N 	0.1602	0.68936	0.53302	-0.155
Mof_N 	N 	0.31312	0.84126	0.50397	-0.156
Mof_C 	C 	0.2405	0.80429	0.50208	-0.016
Mof_C 	C 	0.26276	0.8248	0.49711	-0.08
Mof_H 	H 	0.25837	0.84371	0.48341	0.053
Mof_C 	C 	0.08348	0.71358	0.52394	0.038
Mof_H 	H 	0.06982	0.73297	0.52523	0.034
Mof_C 	C 	0.38428	0.80762	0.48425	0.039
Mof_H 	H 	0.39424	0.78655	0.47968	0.035
Mof_C 	C 	0.11353	0.71644	0.52999	-0.1
Mof_H 	H 	0.12273	0.7375	0.53592	0.059
Mof_C 	C 	0.35409	0.80852	0.49021	-0.1
Mof_H 	H 	0.34126	0.78858	0.48976	0.058
Mof_C 	C 	0.13099	0.69142	0.52823	0.096
Mof_C 	C 	0.34144	0.83561	0.49679	0.097
Mof_C 	C 	0.11925	0.66452	0.52075	-0.03
Mof_C 	C 	0.35789	0.861	0.49632	-0.031
Mof_C 	C 	0.08955	0.66103	0.51428	0.016
Mof_H 	H 	0.08102	0.63972	0.50817	0.044
Mof_C 	C 	0.38793	0.86085	0.49058	0.019
Mof_H 	H 	0.40036	0.88108	0.49113	0.042
Mof_C 	C 	0.07121	0.68603	0.51598	-0.112
Mof_C 	C 	0.40154	0.83356	0.48479	-0.115
Mof_C 	C 	0.03964	0.68218	0.51412	0.367
Mof_C 	C 	0.43321	0.83056	0.48366	0.374
Mof_C 	C 	0.1731	0.56994	0.51146	0.368
Mof_C 	C 	0.32186	0.96294	0.51474	0.374
Mof_C 	C 	0.17172	0.6015	0.51382	-0.114
Mof_C 	C 	0.31938	0.93122	0.51459	-0.115
Mof_C 	C 	0.14388	0.61527	0.51324	0.018
Mof_H 	H 	0.12429	0.60345	0.50684	0.044
Mof_C 	C 	0.34354	0.91353	0.5065	0.018
Mof_H 	H 	0.36508	0.92283	0.50276	0.043
Mof_C 	C 	0.14234	0.64492	0.52065	-0.031
Mof_C 	C 	0.33893	0.88349	0.50327	-0.03
Mof_C 	C 	0.16693	0.66083	0.5283	0.098
Mof_C 	C 	0.31184	0.87073	0.50782	0.097
Mof_C 	C 	0.19461	0.64788	0.52907	-0.099
Mof_H 	H 	0.21398	0.6604	0.53469	0.059
Mof_C 	C 	0.28776	0.88754	0.51645	-0.1
Mof_H 	H 	0.26662	0.8777	0.5208	0.058
Mof_C 	C 	0.19686	0.61802	0.52197	0.04
Mof_H 	H 	0.21838	0.60795	0.52238	0.033
Mof_C 	C 	0.29163	0.91795	0.51958	0.04
Mof_H 	H 	0.27295	0.93108	0.52612	0.034
Mof_C 	C 	0.18015	0.713	0.53122	0.09
Mof_C 	C 	0.29068	0.82064	0.50927	0.095
Mof_C 	C 	0.20164	0.71739	0.55267	-0.076
Mof_H 	H 	0.2023	0.70346	0.5719	0.053
Mof_C 	C 	0.29595	0.79598	0.52685	-0.079
Mof_H 	H 	0.31732	0.79262	0.53666	0.053
Mof_C 	C 	0.22272	0.73934	0.5491	-0.023
Mof_H 	H 	0.23906	0.74227	0.56607	0.034
Mof_C 	C 	0.27391	0.77528	0.53152	-0.02
Mof_H 	H 	0.27911	0.75594	0.54427	0.033
Mof_C 	C 	0.22293	0.75692	0.52367	-0.002
Mof_C 	C 	0.24591	0.77906	0.51907	-0.005
Mof_C 	C 	0.17943	0.73113	0.50645	-0.07
Mof_C 	C 	0.20073	0.75281	0.50259	-0.021
Mof_H 	H 	0.20023	0.76734	0.48224	0.033
Mof_H 	H 	0.16138	0.72815	0.4894	0.05
Mof_H 	H 	0.21774	0.80793	0.49235	0.031
Mof_Cu	Cu	0.98964	0.6487	0.51498	0.941
Mof_Cu	Cu	0.98241	0.70285	0.51699	0.946
Mof_O 	O 	0.98416	0.97705	0.20415	-0.419
Mof_O 	O 	0.01831	0.55561	0.3053	-0.44
Mof_O 	O 	0.98608	0.97094	0.15587	-0.413
Mof_O 	O 	0.01542	0.5504	0.35363	-0.416
Mof_O 	O 	0.9903	0.85107	0.05528	-0.411
Mof_O 	O 	0.98889	0.65292	0.47536	-0.418
Mof_O 	O 	0.98554	0.80263	0.0569	-0.422
Mof_O 	O 	0.98202	0.70108	0.47803	-0.438
Mof_N 	N 	0.96698	0.8398	0.18936	-0.155
Mof_N 	N 	0.99603	0.68688	0.34126	-0.156
Mof_C 	C 	0.99792	0.7595	0.30429	-0.016
Mof_C 	C 	0.00289	0.73724	0.3248	-0.08
Mof_H 	H 	0.01659	0.74163	0.34371	0.053
Mof_C 	C 	0.97606	0.91652	0.21358	0.038
Mof_H 	H 	0.97477	0.93018	0.23297	0.034
Mof_C 	C 	0.01575	0.61572	0.30762	0.039
Mof_H 	H 	0.02032	0.60576	0.28655	0.035
Mof_C 	C 	0.97001	0.88647	0.21644	-0.1
Mof_H 	H 	0.96408	0.87727	0.2375	0.059
Mof_C 	C 	0.00979	0.64591	0.30852	-0.1
Mof_H 	H 	0.01024	0.65874	0.28858	0.058
Mof_C 	C 	0.97177	0.86901	0.19142	0.096
Mof_C 	C 	0.00321	0.65856	0.33561	0.097
Mof_C 	C 	0.97925	0.88075	0.16452	-0.03
Mof_C 	C 	0.00368	0.64211	0.361	-0.031
Mof_C 	C 	0.98572	0.91045	0.16103	0.016
Mof_H 	H 	0.99183	0.91898	0.13972	0.044
Mof_C 	C 	0.00942	0.61207	0.36085	0.019
Mof_H 	H 	0.00887	0.59964	0.38108	0.042
Mof_C 	C 	0.98402	0.92879	0.18603	-0.112
Mof_C 	C 	0.01521	0.59846	0.33356	-0.115
Mof_C 	C 	0.98588	0.96036	0.18218	0.367
Mof_C 	C 	0.01634	0.56679	0.33056	0.374
Mof_C 	C 	0.98854	0.8269	0.06994	0.368
Mof_C 	C 	0.98526	0.67814	0.46294	0.374
Mof_C 	C 	0.98618	0.82828	0.1015	-0.114
Mof_C 	C 	0.98541	0.68062	0.43122	-0.115
Mof_C 	C 	0.98676	0.85612	0.11527	0.018
Mof_H 	H 	0.99316	0.87571	0.10345	0.044
Mof_C 	C 	0.9935	0.65646	0.41353	0.018
Mof_H 	H 	0.99724	0.63492	0.42283	0.043
Mof_C 	C 	0.97935	0.85766	0.14492	-0.031
Mof_C 	C 	0.99673	0.66107	0.38349	-0.03
Mof_C 	C 	0.9717	0.83307	0.16083	0.098
Mof_C 	C 	0.99218	0.68816	0.37073	0.097
Mof_C 	C 	0.97093	0.80539	0.14788	-0.099
Mof_H 	H 	0.96531	0.78602	0.1604	0.059
Mof_C 	C 	0.98355	0.71224	0.38754	-0.1
Mof_H 	H 	0.9792	0.73338	0.3777	0.058
Mof_C 	C 	0.97803	0.80314	0.11802	0.04
Mof_H 	H 	0.97762	0.78162	0.10795	0.033
Mof_C 	C 	0.98042	0.70837	0.41795	0.04
Mof_H 	H 	0.97388	0.72705	0.43108	0.034
Mof_C 	C 	0.96878	0.81985	0.213	0.09
Mof_C 	C 	0.99073	0.70932	0.32064	0.095
Mof_C 	C 	0.94733	0.79836	0.21739	-0.076
Mof_H 	H 	0.9281	0.7977	0.20346	0.053
Mof_C 	C 	0.97315	0.70405	0.29598	-0.079
Mof_H 	H 	0.96334	0.68268	0.29262	0.053
Mof_C 	C 	0.9509	0.77728	0.23934	-0.023
Mof_H 	H 	0.93393	0.76094	0.24227	0.034
Mof_C 	C 	0.96848	0.72609	0.27528	-0.02
Mof_H 	H 	0.95573	0.72089	0.25594	0.033
Mof_C 	C 	0.97633	0.77707	0.25692	-0.002
Mof_C 	C 	0.98093	0.75409	0.27906	-0.005
Mof_C 	C 	0.99355	0.82057	0.23113	-0.07
Mof_C 	C 	0.99741	0.79927	0.25281	-0.021
Mof_H 	H 	0.01776	0.79977	0.26734	0.033
Mof_H 	H 	0.0106	0.83862	0.22815	0.05
Mof_H 	H 	0.00765	0.78226	0.30793	0.031
Mof_Cu	Cu	0.98502	0.01036	0.1487	0.941
Mof_Cu	Cu	0.98301	0.01759	0.20285	0.946
Mof_O 	O 	0.01584	0.47705	0.29585	-0.419
Mof_O 	O 	0.98169	0.05561	0.1947	-0.44
Mof_O 	O 	0.01392	0.47094	0.34413	-0.413
Mof_O 	O 	0.98458	0.0504	0.14637	-0.416
Mof_O 	O 	0.0097	0.35107	0.44472	-0.411
Mof_O 	O 	0.01111	0.15292	0.02464	-0.418
Mof_O 	O 	0.01446	0.30263	0.4431	-0.422
Mof_O 	O 	0.01798	0.20108	0.02197	-0.438
Mof_N 	N 	0.03302	0.3398	0.31064	-0.155
Mof_N 	N 	0.00397	0.18688	0.15874	-0.156
Mof_C 	C 	0.00208	0.2595	0.19571	-0.016
Mof_C 	C 	0.99711	0.23724	0.1752	-0.08
Mof_H 	H 	0.98341	0.24163	0.15629	0.053
Mof_C 	C 	0.02394	0.41652	0.28642	0.038
Mof_H 	H 	0.02523	0.43018	0.26703	0.034
Mof_C 	C 	0.98425	0.11572	0.19238	0.039
Mof_H 	H 	0.97968	0.10576	0.21345	0.035
Mof_C 	C 	0.02999	0.38647	0.28356	-0.1
Mof_H 	H 	0.03592	0.37727	0.2625	0.059
Mof_C 	C 	0.99021	0.14591	0.19148	-0.1
Mof_H 	H 	0.98976	0.15874	0.21142	0.058
Mof_C 	C 	0.02823	0.36901	0.30858	0.096
Mof_C 	C 	0.99679	0.15856	0.16439	0.097
Mof_C 	C 	0.02075	0.38075	0.33548	-0.03
Mof_C 	C 	0.99632	0.14211	0.139	-0.031
Mof_C 	C 	0.01428	0.41045	0.33897	0.016
Mof_H 	H 	0.00817	0.41898	0.36028	0.044
Mof_C 	C 	0.99058	0.11207	0.13915	0.019
Mof_H 	H 	0.99113	0.09964	0.11892	0.042
Mof_C 	C 	0.01598	0.42879	0.31397	-0.112
Mof_C 	C 	0.98479	0.09846	0.16644	-0.115
Mof_C 	C 	0.01412	0.46036	0.31782	0.367
Mof_C 	C 	0.98366	0.06679	0.16944	0.374
Mof_C 	C 	0.01146	0.3269	0.43006	0.368
Mof_C 	C 	0.01474	0.17814	0.03706	0.374
Mof_C 	C 	0.01382	0.32828	0.3985	-0.114
Mof_C 	C 	0.01459	0.18062	0.06878	-0.115
Mof_C 	C 	0.01324	0.35612	0.38473	0.018
Mof_H 	H 	0.00684	0.37571	0.39655	0.044
Mof_C 	C 	0.0065	0.15646	0.08647	0.018
Mof_H 	H 	0.00276	0.13492	0.07717	0.043
Mof_C 	C 	0.02065	0.35766	0.35508	-0.031
Mof_C 	C 	0.00327	0.16107	0.11651	-0.03
Mof_C 	C 	0.0283	0.33307	0.33917	0.098
Mof_C 	C 	0.00782	0.18816	0.12927	0.097
Mof_C 	C 	0.02907	0.30539	0.35212	-0.099
Mof_H 	H 	0.03469	0.28602	0.3396	0.059
Mof_C 	C 	0.01645	0.21224	0.11246	-0.1
Mof_H 	H 	0.0208	0.23338	0.1223	0.058
Mof_C 	C 	0.02197	0.30314	0.38198	0.04
Mof_H 	H 	0.02238	0.28162	0.39205	0.033
Mof_C 	C 	0.01958	0.20837	0.08205	0.04
Mof_H 	H 	0.02612	0.22705	0.06892	0.034
Mof_C 	C 	0.03122	0.31985	0.287	0.09
Mof_C 	C 	0.00927	0.20932	0.17936	0.095
Mof_C 	C 	0.05267	0.29836	0.28261	-0.076
Mof_H 	H 	0.0719	0.2977	0.29654	0.053
Mof_C 	C 	0.02685	0.20405	0.20402	-0.079
Mof_H 	H 	0.03666	0.18268	0.20738	0.053
Mof_C 	C 	0.0491	0.27728	0.26066	-0.023
Mof_H 	H 	0.06607	0.26094	0.25773	0.034
Mof_C 	C 	0.03152	0.22609	0.22472	-0.02
Mof_H 	H 	0.04427	0.22089	0.24406	0.033
Mof_C 	C 	0.02367	0.27707	0.24308	-0.002
Mof_C 	C 	0.01907	0.25409	0.22094	-0.005
Mof_C 	C 	0.00645	0.32057	0.26887	-0.07
Mof_C 	C 	0.00259	0.29927	0.24719	-0.021
Mof_H 	H 	0.98224	0.29977	0.23266	0.033
Mof_H 	H 	0.9894	0.33862	0.27185	0.05
Mof_H 	H 	0.99235	0.28226	0.19207	0.031
Mof_Cu	Cu	0.01498	0.51036	0.3513	0.941
Mof_Cu	Cu	0.01699	0.51759	0.29715	0.946
Mof_O 	O 	0.48416	0.52295	0.79585	-0.419
Mof_O 	O 	0.51831	0.94439	0.6947	-0.44
Mof_O 	O 	0.48608	0.52906	0.84413	-0.413
Mof_O 	O 	0.51542	0.9496	0.64637	-0.416
Mof_O 	O 	0.4903	0.64893	0.94472	-0.411
Mof_O 	O 	0.48889	0.84708	0.52464	-0.418
Mof_O 	O 	0.48554	0.69737	0.9431	-0.422
Mof_O 	O 	0.48202	0.79892	0.52197	-0.438
Mof_N 	N 	0.46698	0.6602	0.81064	-0.155
Mof_N 	N 	0.49603	0.81312	0.65874	-0.156
Mof_C 	C 	0.49792	0.7405	0.69571	-0.016
Mof_C 	C 	0.50289	0.76276	0.6752	-0.08
Mof_H 	H 	0.51659	0.75837	0.65629	0.053
Mof_C 	C 	0.47606	0.58348	0.78642	0.038
Mof_H 	H 	0.47477	0.56982	0.76703	0.034
Mof_C 	C 	0.51575	0.88428	0.69238	0.039
Mof_H 	H 	0.52032	0.89424	0.71345	0.035
Mof_C 	C 	0.47001	0.61353	0.78356	-0.1
Mof_H 	H 	0.46408	0.62273	0.7625	0.059
Mof_C 	C 	0.50979	0.85409	0.69148	-0.1
Mof_H 	H 	0.51024	0.84126	0.71142	0.058
Mof_C 	C 	0.47177	0.63099	0.80858	0.096
Mof_C 	C 	0.50321	0.84144	0.66439	0.097
Mof_C 	C 	0.47925	0.61925	0.83548	-0.03
Mof_C 	C 	0.50368	0.85789	0.639	-0.031
Mof_C 	C 	0.48572	0.58955	0.83897	0.016
Mof_H 	H 	0.49183	0.58102	0.86028	0.044
Mof_C 	C 	0.50942	0.88793	0.63915	0.019
Mof_H 	H 	0.50887	0.90036	0.61892	0.042
Mof_C 	C 	0.48402	0.57121	0.81397	-0.112
Mof_C 	C 	0.51521	0.90154	0.66644	-0.115
Mof_C 	C 	0.48588	0.53964	0.81782	0.367
Mof_C 	C 	0.51634	0.93321	0.66944	0.374
Mof_C 	C 	0.48854	0.6731	0.93006	0.368
Mof_C 	C 	0.48526	0.82186	0.53706	0.374
Mof_C 	C 	0.48618	0.67172	0.8985	-0.114
Mof_C 	C 	0.48541	0.81938	0.56878	-0.115
Mof_C 	C 	0.48676	0.64388	0.88473	0.018
Mof_H 	H 	0.49316	0.62429	0.89655	0.044
Mof_C 	C 	0.4935	0.84354	0.58647	0.018
Mof_H 	H 	0.49724	0.86508	0.57717	0.043
Mof_C 	C 	0.47935	0.64234	0.85508	-0.031
Mof_C 	C 	0.49673	0.83893	0.61651	-0.03
Mof_C 	C 	0.4717	0.66693	0.83917	0.098
Mof_C 	C 	0.49218	0.81184	0.62927	0.097
Mof_C 	C 	0.47093	0.69461	0.85212	-0.099
Mof_H 	H 	0.46531	0.71398	0.8396	0.059
Mof_C 	C 	0.48355	0.78776	0.61246	-0.1
Mof_H 	H 	0.4792	0.76662	0.6223	0.058
Mof_C 	C 	0.47803	0.69686	0.88198	0.04
Mof_H 	H 	0.47762	0.71838	0.89205	0.033
Mof_C 	C 	0.48042	0.79163	0.58205	0.04
Mof_H 	H 	0.47388	0.77295	0.56892	0.034
Mof_C 	C 	0.46878	0.68015	0.787	0.09
Mof_C 	C 	0.49073	0.79068	0.67936	0.095
Mof_C 	C 	0.44733	0.70164	0.78261	-0.076
Mof_H 	H 	0.4281	0.7023	0.79654	0.053
Mof_C 	C 	0.47315	0.79595	0.70402	-0.079
Mof_H 	H 	0.46334	0.81732	0.70738	0.053
Mof_C 	C 	0.4509	0.72272	0.76066	-0.023
Mof_H 	H 	0.43393	0.73906	0.75773	0.034
Mof_C 	C 	0.46848	0.77391	0.72472	-0.02
Mof_H 	H 	0.45573	0.77911	0.74406	0.033
Mof_C 	C 	0.47633	0.72293	0.74308	-0.002
Mof_C 	C 	0.48093	0.74591	0.72094	-0.005
Mof_C 	C 	0.49355	0.67943	0.76887	-0.07
Mof_C 	C 	0.49741	0.70073	0.74719	-0.021
Mof_H 	H 	0.51776	0.70023	0.73266	0.033
Mof_H 	H 	0.5106	0.66138	0.77185	0.05
Mof_H 	H 	0.50765	0.71774	0.69207	0.031
Mof_Cu	Cu	0.48502	0.48964	0.8513	0.941
Mof_Cu	Cu	0.48301	0.48241	0.79715	0.946
Mof_O 	O 	0.51584	0.02295	0.70415	-0.419
Mof_O 	O 	0.48169	0.44439	0.8053	-0.44
Mof_O 	O 	0.51392	0.02906	0.65587	-0.413
Mof_O 	O 	0.48458	0.4496	0.85363	-0.416
Mof_O 	O 	0.5097	0.14893	0.55528	-0.411
Mof_O 	O 	0.51111	0.34708	0.97536	-0.418
Mof_O 	O 	0.51446	0.19737	0.5569	-0.422
Mof_O 	O 	0.51798	0.29892	0.97803	-0.438
Mof_N 	N 	0.53302	0.1602	0.68936	-0.155
Mof_N 	N 	0.50397	0.31312	0.84126	-0.156
Mof_C 	C 	0.50208	0.2405	0.80429	-0.016
Mof_C 	C 	0.49711	0.26276	0.8248	-0.08
Mof_H 	H 	0.48341	0.25837	0.84371	0.053
Mof_C 	C 	0.52394	0.08348	0.71358	0.038
Mof_H 	H 	0.52523	0.06982	0.73297	0.034
Mof_C 	C 	0.48425	0.38428	0.80762	0.039
Mof_H 	H 	0.47968	0.39424	0.78655	0.035
Mof_C 	C 	0.52999	0.11353	0.71644	-0.1
Mof_H 	H 	0.53592	0.12273	0.7375	0.059
Mof_C 	C 	0.49021	0.35409	0.80852	-0.1
Mof_H 	H 	0.48976	0.34126	0.78858	0.058
Mof_C 	C 	0.52823	0.13099	0.69142	0.096
Mof_C 	C 	0.49679	0.34144	0.83561	0.097
Mof_C 	C 	0.52075	0.11925	0.66452	-0.03
Mof_C 	C 	0.49632	0.35789	0.861	-0.031
Mof_C 	C 	0.51428	0.08955	0.66103	0.016
Mof_H 	H 	0.50817	0.08102	0.63972	0.044
Mof_C 	C 	0.49058	0.38793	0.86085	0.019
Mof_H 	H 	0.49113	0.40036	0.88108	0.042
Mof_C 	C 	0.51598	0.07121	0.68603	-0.112
Mof_C 	C 	0.48479	0.40154	0.83356	-0.115
Mof_C 	C 	0.51412	0.03964	0.68218	0.367
Mof_C 	C 	0.48366	0.43321	0.83056	0.374
Mof_C 	C 	0.51146	0.1731	0.56994	0.368
Mof_C 	C 	0.51474	0.32186	0.96294	0.374
Mof_C 	C 	0.51382	0.17172	0.6015	-0.114
Mof_C 	C 	0.51459	0.31938	0.93122	-0.115
Mof_C 	C 	0.51324	0.14388	0.61527	0.018
Mof_H 	H 	0.50684	0.12429	0.60345	0.044
Mof_C 	C 	0.5065	0.34354	0.91353	0.018
Mof_H 	H 	0.50276	0.36508	0.92283	0.043
Mof_C 	C 	0.52065	0.14234	0.64492	-0.031
Mof_C 	C 	0.50327	0.33893	0.88349	-0.03
Mof_C 	C 	0.5283	0.16693	0.66083	0.098
Mof_C 	C 	0.50782	0.31184	0.87073	0.097
Mof_C 	C 	0.52907	0.19461	0.64788	-0.099
Mof_H 	H 	0.53469	0.21398	0.6604	0.059
Mof_C 	C 	0.51645	0.28776	0.88754	-0.1
Mof_H 	H 	0.5208	0.26662	0.8777	0.058
Mof_C 	C 	0.52197	0.19686	0.61802	0.04
Mof_H 	H 	0.52238	0.21838	0.60795	0.033
Mof_C 	C 	0.51958	0.29163	0.91795	0.04
Mof_H 	H 	0.52612	0.27295	0.93108	0.034
Mof_C 	C 	0.53122	0.18015	0.713	0.09
Mof_C 	C 	0.50927	0.29068	0.82064	0.095
Mof_C 	C 	0.55267	0.20164	0.71739	-0.076
Mof_H 	H 	0.5719	0.2023	0.70346	0.053
Mof_C 	C 	0.52685	0.29595	0.79598	-0.079
Mof_H 	H 	0.53666	0.31732	0.79262	0.053
Mof_C 	C 	0.5491	0.22272	0.73934	-0.023
Mof_H 	H 	0.56607	0.23906	0.74227	0.034
Mof_C 	C 	0.53152	0.27391	0.77528	-0.02
Mof_H 	H 	0.54427	0.27911	0.75594	0.033
Mof_C 	C 	0.52367	0.22293	0.75692	-0.002
Mof_C 	C 	0.51907	0.24591	0.77906	-0.005
Mof_C 	C 	0.50645	0.17943	0.73113	-0.07
Mof_C 	C 	0.50259	0.20073	0.75281	-0.021
Mof_H 	H 	0.48224	0.20023	0.76734	0.033
Mof_H 	H 	0.4894	0.16138	0.72815	0.05
Mof_H 	H 	0.49235	0.21774	0.80793	0.031
Mof_Cu	Cu	0.51498	0.98964	0.6487	0.941
Mof_Cu	Cu	0.51699	0.98241	0.70285	0.946
_end
