data_functionalizedCrystal
_audit_creation_method	'EQeq! by Chris Wilmer'
_symmetry_space_group_name_H-M	'P1'
_symmetry_Int_Tables_number	1
_symmetry_cell_setting	triclinic
loop_
_symmetry_equiv_pos_as_xyz
  x,y,z
_cell_length_a	28.0614
_cell_length_b	30.0942
_cell_length_c	30.0947
_cell_angle_alpha	90
_cell_angle_beta	90
_cell_angle_gamma	90
loop_
_atom_site_label
_atom_site_type_symbol
_atom_site_fract_x
_atom_site_fract_y
_atom_site_fract_z
_atom_site_charge
Mof_O 	O 	0.978	0.9357	0.2099	-0.153
Mof_O 	O 	0.9366	0.9768	0.2137	0.159
Mof_C 	C 	0.9827	0.916	0.2486	0.289
Mof_C 	C 	0.9768	0.8688	0.251	-0.018
Mof_C 	C 	0.9166	0.9843	0.2524	0.024
Mof_C 	C 	0.8649	0.9792	0.2511	-0.011
Mof_C 	C 	0.9664	0.7706	0.2512	0.042
Mof_C 	C 	0.9473	0.8015	0.2171	0.06
Mof_C 	C 	0.847	0.956	0.2144	0.038
Mof_O 	O 	0.899	0.7444	0.1854	-0.098
Mof_O 	O 	0.9365	0.8049	0.1529	-0.088
Mof_N 	N 	0.9161	0.7847	0.1793	0
Mof_C 	C 	0.802	0.9513	0.2156	0.007
Mof_C 	C 	0.7787	0.9693	0.252	0.002
Mof_C 	C 	0.9504	0.8478	0.2148	0.062
Mof_O 	O 	0.978	0.4357	0.7099	-0.152
Mof_O 	O 	0.9366	0.4768	0.7137	0.158
Mof_C 	C 	0.9827	0.416	0.7486	0.291
Mof_C 	C 	0.9768	0.3688	0.751	-0.019
Mof_C 	C 	0.9166	0.4843	0.7524	0.049
Mof_C 	C 	0.8649	0.4792	0.7511	-0.011
Mof_C 	C 	0.9664	0.2706	0.7512	0.042
Mof_C 	C 	0.9473	0.3015	0.7171	0.059
Mof_C 	C 	0.847	0.456	0.7144	0.039
Mof_O 	O 	0.899	0.2444	0.6854	-0.099
Mof_O 	O 	0.9365	0.3049	0.6529	-0.088
Mof_N 	N 	0.9161	0.2847	0.6793	-0.001
Mof_C 	C 	0.802	0.4513	0.7156	0.006
Mof_C 	C 	0.7787	0.4693	0.752	0.007
Mof_C 	C 	0.9504	0.3478	0.7148	0.062
Mof_O 	O 	0.478	0.9357	0.7099	-0.154
Mof_O 	O 	0.4366	0.9768	0.7137	0.163
Mof_C 	C 	0.4827	0.916	0.7486	0.157
Mof_C 	C 	0.4768	0.8688	0.751	-0.038
Mof_C 	C 	0.4166	0.9843	0.7524	0.026
Mof_C 	C 	0.3649	0.9792	0.7511	-0.011
Mof_C 	C 	0.4664	0.7706	0.7512	0.013
Mof_C 	C 	0.4473	0.8015	0.7171	0.052
Mof_C 	C 	0.347	0.956	0.7144	0.035
Mof_O 	O 	0.399	0.7444	0.6854	-0.105
Mof_O 	O 	0.4365	0.8049	0.6529	-0.102
Mof_N 	N 	0.4161	0.7847	0.6793	0
Mof_C 	C 	0.302	0.9513	0.7156	0.006
Mof_C 	C 	0.2787	0.9693	0.752	0.001
Mof_C 	C 	0.4504	0.8478	0.7148	0.055
Mof_O 	O 	0.478	0.4357	0.2099	-0.153
Mof_O 	O 	0.4366	0.4768	0.2137	0.162
Mof_C 	C 	0.4827	0.416	0.2486	0.156
Mof_C 	C 	0.4768	0.3688	0.251	-0.038
Mof_C 	C 	0.4166	0.4843	0.2524	0.048
Mof_C 	C 	0.3649	0.4792	0.2511	-0.01
Mof_C 	C 	0.4664	0.2706	0.2512	0.013
Mof_C 	C 	0.4473	0.3015	0.2171	0.052
Mof_C 	C 	0.347	0.456	0.2144	0.037
Mof_O 	O 	0.399	0.2444	0.1854	-0.105
Mof_O 	O 	0.4365	0.3049	0.1529	-0.103
Mof_N 	N 	0.4161	0.2847	0.1793	0.001
Mof_C 	C 	0.302	0.4513	0.2156	0.005
Mof_C 	C 	0.2787	0.4693	0.252	0.007
Mof_C 	C 	0.4504	0.3478	0.2148	0.055
Mof_O 	O 	0.022	0.0643	0.2099	-0.153
Mof_O 	O 	0.0634	0.0232	0.2137	0.16
Mof_C 	C 	0.0173	0.084	0.2486	0.039
Mof_C 	C 	0.0232	0.1312	0.251	-0.033
Mof_C 	C 	0.0834	0.0157	0.2524	0.068
Mof_C 	C 	0.1351	0.0208	0.2511	-0.012
Mof_C 	C 	0.0336	0.2294	0.2512	0.004
Mof_C 	C 	0.0527	0.1985	0.2171	0.049
Mof_C 	C 	0.153	0.044	0.2144	0.039
Mof_O 	O 	0.101	0.2556	0.1854	-0.106
Mof_O 	O 	0.0635	0.1951	0.1529	-0.112
Mof_N 	N 	0.0839	0.2153	0.1793	0.002
Mof_C 	C 	0.198	0.0487	0.2156	0.005
Mof_C 	C 	0.2213	0.0307	0.252	0.008
Mof_C 	C 	0.0496	0.1522	0.2148	0.046
Mof_O 	O 	0.022	0.5643	0.7099	-0.153
Mof_O 	O 	0.0634	0.5232	0.7137	0.162
Mof_C 	C 	0.0173	0.584	0.7486	0.041
Mof_C 	C 	0.0232	0.6312	0.751	-0.033
Mof_C 	C 	0.0834	0.5157	0.7524	0.05
Mof_C 	C 	0.1351	0.5208	0.7511	-0.01
Mof_C 	C 	0.0336	0.7294	0.7512	0.004
Mof_C 	C 	0.0527	0.6985	0.7171	0.049
Mof_C 	C 	0.153	0.544	0.7144	0.038
Mof_O 	O 	0.101	0.7556	0.6854	-0.106
Mof_O 	O 	0.0635	0.6951	0.6529	-0.112
Mof_N 	N 	0.0839	0.7153	0.6793	0.002
Mof_C 	C 	0.198	0.5487	0.7156	0.005
Mof_C 	C 	0.2213	0.5307	0.752	0.007
Mof_C 	C 	0.0496	0.6522	0.7148	0.046
Mof_O 	O 	0.522	0.0643	0.7099	-0.153
Mof_O 	O 	0.5634	0.0232	0.7137	0.159
Mof_C 	C 	0.5173	0.084	0.7486	0.156
Mof_C 	C 	0.5232	0.1312	0.751	-0.038
Mof_C 	C 	0.5834	0.0157	0.7524	0.069
Mof_C 	C 	0.6351	0.0208	0.7511	-0.012
Mof_C 	C 	0.5336	0.2294	0.7512	0.013
Mof_C 	C 	0.5527	0.1985	0.7171	0.052
Mof_C 	C 	0.653	0.044	0.7144	0.039
Mof_O 	O 	0.601	0.2556	0.6854	-0.105
Mof_O 	O 	0.5635	0.1951	0.6529	-0.102
Mof_N 	N 	0.5839	0.2153	0.6793	0
Mof_C 	C 	0.698	0.0487	0.7156	0.006
Mof_C 	C 	0.7213	0.0307	0.752	0.007
Mof_C 	C 	0.5496	0.1522	0.7148	0.055
Mof_O 	O 	0.522	0.5643	0.2099	-0.153
Mof_O 	O 	0.5634	0.5232	0.2137	0.162
Mof_C 	C 	0.5173	0.584	0.2486	0.156
Mof_C 	C 	0.5232	0.6312	0.251	-0.038
Mof_C 	C 	0.5834	0.5157	0.2524	0.048
Mof_C 	C 	0.6351	0.5208	0.2511	-0.01
Mof_C 	C 	0.5336	0.7294	0.2512	0.013
Mof_C 	C 	0.5527	0.6985	0.2171	0.052
Mof_C 	C 	0.653	0.544	0.2144	0.036
Mof_O 	O 	0.601	0.7556	0.1854	-0.105
Mof_O 	O 	0.5635	0.6951	0.1529	-0.103
Mof_N 	N 	0.5839	0.7153	0.1793	0.001
Mof_C 	C 	0.698	0.5487	0.2156	0.005
Mof_C 	C 	0.7213	0.5307	0.252	0.007
Mof_C 	C 	0.5496	0.6522	0.2148	0.054
Mof_O 	O 	0.022	0.9357	0.7901	-0.153
Mof_O 	O 	0.0634	0.9768	0.7863	0.163
Mof_C 	C 	0.0173	0.916	0.7514	0.044
Mof_C 	C 	0.0232	0.8688	0.749	-0.034
Mof_C 	C 	0.0834	0.9843	0.7476	0.031
Mof_C 	C 	0.1351	0.9792	0.7489	-0.011
Mof_C 	C 	0.0336	0.7706	0.7488	0.004
Mof_C 	C 	0.0527	0.8015	0.7829	0.049
Mof_C 	C 	0.153	0.956	0.7856	0.037
Mof_O 	O 	0.101	0.7444	0.8146	-0.105
Mof_O 	O 	0.0635	0.8049	0.8471	-0.111
Mof_N 	N 	0.0839	0.7847	0.8207	0.002
Mof_C 	C 	0.198	0.9513	0.7844	0.005
Mof_C 	C 	0.2213	0.9693	0.748	0.002
Mof_C 	C 	0.0496	0.8478	0.7852	0.047
Mof_O 	O 	0.022	0.4357	0.2901	-0.153
Mof_O 	O 	0.0634	0.4768	0.2863	0.162
Mof_C 	C 	0.0173	0.416	0.2514	0.04
Mof_C 	C 	0.0232	0.3688	0.249	-0.033
Mof_C 	C 	0.0834	0.4843	0.2476	0.05
Mof_C 	C 	0.1351	0.4792	0.2489	-0.01
Mof_C 	C 	0.0336	0.2706	0.2488	0.004
Mof_C 	C 	0.0527	0.3015	0.2829	0.049
Mof_C 	C 	0.153	0.456	0.2856	0.038
Mof_O 	O 	0.101	0.2444	0.3146	-0.105
Mof_O 	O 	0.0635	0.3049	0.3471	-0.112
Mof_N 	N 	0.0839	0.2847	0.3207	0.002
Mof_C 	C 	0.198	0.4513	0.2844	0.005
Mof_C 	C 	0.2213	0.4693	0.248	0.007
Mof_C 	C 	0.0496	0.3478	0.2852	0.046
Mof_O 	O 	0.522	0.9357	0.2901	-0.154
Mof_O 	O 	0.5634	0.9768	0.2863	0.163
Mof_C 	C 	0.5173	0.916	0.2514	0.157
Mof_C 	C 	0.5232	0.8688	0.249	-0.038
Mof_C 	C 	0.5834	0.9843	0.2476	0.025
Mof_C 	C 	0.6351	0.9792	0.2489	-0.012
Mof_C 	C 	0.5336	0.7706	0.2488	0.014
Mof_C 	C 	0.5527	0.8015	0.2829	0.052
Mof_C 	C 	0.653	0.956	0.2856	0.035
Mof_O 	O 	0.601	0.7444	0.3146	-0.105
Mof_O 	O 	0.5635	0.8049	0.3471	-0.102
Mof_N 	N 	0.5839	0.7847	0.3207	0
Mof_C 	C 	0.698	0.9513	0.2844	0.006
Mof_C 	C 	0.7213	0.9693	0.248	0
Mof_C 	C 	0.5496	0.8478	0.2852	0.055
Mof_O 	O 	0.522	0.4357	0.7901	-0.153
Mof_O 	O 	0.5634	0.4768	0.7863	0.163
Mof_C 	C 	0.5173	0.416	0.7514	0.156
Mof_C 	C 	0.5232	0.3688	0.749	-0.038
Mof_C 	C 	0.5834	0.4843	0.7476	0.048
Mof_C 	C 	0.6351	0.4792	0.7489	-0.01
Mof_C 	C 	0.5336	0.2706	0.7488	0.013
Mof_C 	C 	0.5527	0.3015	0.7829	0.052
Mof_C 	C 	0.653	0.456	0.7856	0.037
Mof_O 	O 	0.601	0.2444	0.8146	-0.105
Mof_O 	O 	0.5635	0.3049	0.8471	-0.102
Mof_N 	N 	0.5839	0.2847	0.8207	0
Mof_C 	C 	0.698	0.4513	0.7844	0.006
Mof_C 	C 	0.7213	0.4693	0.748	0.006
Mof_C 	C 	0.5496	0.3478	0.7852	0.055
Mof_O 	O 	0.978	0.0643	0.7901	-0.152
Mof_O 	O 	0.9366	0.0232	0.7863	0.155
Mof_C 	C 	0.9827	0.084	0.7514	0.291
Mof_C 	C 	0.9768	0.1312	0.749	-0.019
Mof_C 	C 	0.9166	0.0157	0.7476	0.072
Mof_C 	C 	0.8649	0.0208	0.7489	-0.014
Mof_C 	C 	0.9664	0.2294	0.7488	0.042
Mof_C 	C 	0.9473	0.1985	0.7829	0.059
Mof_C 	C 	0.847	0.044	0.7856	0.042
Mof_O 	O 	0.899	0.2556	0.8146	-0.098
Mof_O 	O 	0.9365	0.1951	0.8471	-0.088
Mof_N 	N 	0.9161	0.2153	0.8207	-0.001
Mof_C 	C 	0.802	0.0487	0.7844	0.006
Mof_C 	C 	0.7787	0.0307	0.748	0.008
Mof_C 	C 	0.9504	0.1522	0.7852	0.062
Mof_O 	O 	0.978	0.5643	0.2901	-0.152
Mof_O 	O 	0.9366	0.5232	0.2863	0.158
Mof_C 	C 	0.9827	0.584	0.2514	0.29
Mof_C 	C 	0.9768	0.6312	0.249	-0.02
Mof_C 	C 	0.9166	0.5157	0.2476	0.049
Mof_C 	C 	0.8649	0.5208	0.2489	-0.011
Mof_C 	C 	0.9664	0.7294	0.2488	0.041
Mof_C 	C 	0.9473	0.6985	0.2829	0.059
Mof_C 	C 	0.847	0.544	0.2856	0.039
Mof_O 	O 	0.899	0.7556	0.3146	-0.099
Mof_O 	O 	0.9365	0.6951	0.3471	-0.088
Mof_N 	N 	0.9161	0.7153	0.3207	-0.001
Mof_C 	C 	0.802	0.5487	0.2844	0.006
Mof_C 	C 	0.7787	0.5307	0.248	0.007
Mof_C 	C 	0.9504	0.6522	0.2852	0.062
Mof_O 	O 	0.478	0.0643	0.2901	-0.153
Mof_O 	O 	0.4366	0.0232	0.2863	0.159
Mof_C 	C 	0.4827	0.084	0.2514	0.156
Mof_C 	C 	0.4768	0.1312	0.249	-0.038
Mof_C 	C 	0.4166	0.0157	0.2476	0.068
Mof_C 	C 	0.3649	0.0208	0.2489	-0.012
Mof_C 	C 	0.4664	0.2294	0.2488	0.013
Mof_C 	C 	0.4473	0.1985	0.2829	0.052
Mof_C 	C 	0.347	0.044	0.2856	0.039
Mof_O 	O 	0.399	0.2556	0.3146	-0.105
Mof_O 	O 	0.4365	0.1951	0.3471	-0.102
Mof_N 	N 	0.4161	0.2153	0.3207	0
Mof_C 	C 	0.302	0.0487	0.2844	0.006
Mof_C 	C 	0.2787	0.0307	0.248	0.007
Mof_C 	C 	0.4504	0.1522	0.2852	0.055
Mof_O 	O 	0.478	0.5643	0.7901	-0.153
Mof_O 	O 	0.4366	0.5232	0.7863	0.163
Mof_C 	C 	0.4827	0.584	0.7514	0.156
Mof_C 	C 	0.4768	0.6312	0.749	-0.038
Mof_C 	C 	0.4166	0.5157	0.7476	0.048
Mof_C 	C 	0.3649	0.5208	0.7489	-0.01
Mof_C 	C 	0.4664	0.7294	0.7488	0.013
Mof_C 	C 	0.4473	0.6985	0.7829	0.052
Mof_C 	C 	0.347	0.544	0.7856	0.037
Mof_O 	O 	0.399	0.7556	0.8146	-0.105
Mof_O 	O 	0.4365	0.6951	0.8471	-0.102
Mof_N 	N 	0.4161	0.7153	0.8207	0
Mof_C 	C 	0.302	0.5487	0.7844	0.006
Mof_C 	C 	0.2787	0.5307	0.748	0.006
Mof_C 	C 	0.4504	0.6522	0.7852	0.055
Mof_O 	O 	0.022	0.0643	0.7901	-0.152
Mof_O 	O 	0.0634	0.0232	0.7863	0.16
Mof_C 	C 	0.0173	0.084	0.7514	0.039
Mof_C 	C 	0.0232	0.1312	0.749	-0.033
Mof_C 	C 	0.0834	0.0157	0.7476	0.068
Mof_C 	C 	0.1351	0.0208	0.7489	-0.012
Mof_C 	C 	0.0336	0.2294	0.7488	0.004
Mof_C 	C 	0.0527	0.1985	0.7829	0.049
Mof_C 	C 	0.153	0.044	0.7856	0.04
Mof_O 	O 	0.101	0.2556	0.8146	-0.105
Mof_O 	O 	0.0635	0.1951	0.8471	-0.112
Mof_N 	N 	0.0839	0.2153	0.8207	0.002
Mof_C 	C 	0.198	0.0487	0.7844	0.006
Mof_C 	C 	0.2213	0.0307	0.748	0.008
Mof_C 	C 	0.0496	0.1522	0.7852	0.046
Mof_O 	O 	0.022	0.5643	0.2901	-0.153
Mof_O 	O 	0.0634	0.5232	0.2863	0.162
Mof_C 	C 	0.0173	0.584	0.2514	0.041
Mof_C 	C 	0.0232	0.6312	0.249	-0.033
Mof_C 	C 	0.0834	0.5157	0.2476	0.05
Mof_C 	C 	0.1351	0.5208	0.2489	-0.01
Mof_C 	C 	0.0336	0.7294	0.2488	0.004
Mof_C 	C 	0.0527	0.6985	0.2829	0.049
Mof_C 	C 	0.153	0.544	0.2856	0.038
Mof_O 	O 	0.101	0.7556	0.3146	-0.105
Mof_O 	O 	0.0635	0.6951	0.3471	-0.112
Mof_N 	N 	0.0839	0.7153	0.3207	0.002
Mof_C 	C 	0.198	0.5487	0.2844	0.005
Mof_C 	C 	0.2213	0.5307	0.248	0.007
Mof_C 	C 	0.0496	0.6522	0.2852	0.046
Mof_O 	O 	0.522	0.0643	0.2901	-0.153
Mof_O 	O 	0.5634	0.0232	0.2863	0.159
Mof_C 	C 	0.5173	0.084	0.2514	0.156
Mof_C 	C 	0.5232	0.1312	0.249	-0.038
Mof_C 	C 	0.5834	0.0157	0.2476	0.069
Mof_C 	C 	0.6351	0.0208	0.2489	-0.012
Mof_C 	C 	0.5336	0.2294	0.2488	0.013
Mof_C 	C 	0.5527	0.1985	0.2829	0.052
Mof_C 	C 	0.653	0.044	0.2856	0.039
Mof_O 	O 	0.601	0.2556	0.3146	-0.105
Mof_O 	O 	0.5635	0.1951	0.3471	-0.102
Mof_N 	N 	0.5839	0.2153	0.3207	0
Mof_C 	C 	0.698	0.0487	0.2844	0.006
Mof_C 	C 	0.7213	0.0307	0.248	0.007
Mof_C 	C 	0.5496	0.1522	0.2852	0.055
Mof_O 	O 	0.522	0.5643	0.7901	-0.153
Mof_O 	O 	0.5634	0.5232	0.7863	0.163
Mof_C 	C 	0.5173	0.584	0.7514	0.156
Mof_C 	C 	0.5232	0.6312	0.749	-0.038
Mof_C 	C 	0.5834	0.5157	0.7476	0.048
Mof_C 	C 	0.6351	0.5208	0.7489	-0.01
Mof_C 	C 	0.5336	0.7294	0.7488	0.013
Mof_C 	C 	0.5527	0.6985	0.7829	0.052
Mof_C 	C 	0.653	0.544	0.7856	0.037
Mof_O 	O 	0.601	0.7556	0.8146	-0.105
Mof_O 	O 	0.5635	0.6951	0.8471	-0.102
Mof_N 	N 	0.5839	0.7153	0.8207	0
Mof_C 	C 	0.698	0.5487	0.7844	0.006
Mof_C 	C 	0.7213	0.5307	0.748	0.006
Mof_C 	C 	0.5496	0.6522	0.7852	0.055
Mof_O 	O 	0.978	0.9357	0.7901	-0.153
Mof_O 	O 	0.9366	0.9768	0.7863	0.158
Mof_C 	C 	0.9827	0.916	0.7514	0.288
Mof_C 	C 	0.9768	0.8688	0.749	-0.019
Mof_C 	C 	0.9166	0.9843	0.7476	0.023
Mof_C 	C 	0.8649	0.9792	0.7489	-0.012
Mof_C 	C 	0.9664	0.7706	0.7488	0.041
Mof_C 	C 	0.9473	0.8015	0.7829	0.059
Mof_C 	C 	0.847	0.956	0.7856	0.038
Mof_O 	O 	0.899	0.7444	0.8146	-0.099
Mof_O 	O 	0.9365	0.8049	0.8471	-0.089
Mof_N 	N 	0.9161	0.7847	0.8207	-0.001
Mof_C 	C 	0.802	0.9513	0.7844	0.006
Mof_C 	C 	0.7787	0.9693	0.748	0.001
Mof_C 	C 	0.9504	0.8478	0.7852	0.062
Mof_O 	O 	0.978	0.4357	0.2901	-0.152
Mof_O 	O 	0.9366	0.4768	0.2863	0.158
Mof_C 	C 	0.9827	0.416	0.2514	0.291
Mof_C 	C 	0.9768	0.3688	0.249	-0.019
Mof_C 	C 	0.9166	0.4843	0.2476	0.049
Mof_C 	C 	0.8649	0.4792	0.2489	-0.011
Mof_C 	C 	0.9664	0.2706	0.2488	0.042
Mof_C 	C 	0.9473	0.3015	0.2829	0.059
Mof_C 	C 	0.847	0.456	0.2856	0.039
Mof_O 	O 	0.899	0.2444	0.3146	-0.099
Mof_O 	O 	0.9365	0.3049	0.3471	-0.088
Mof_N 	N 	0.9161	0.2847	0.3207	-0.001
Mof_C 	C 	0.802	0.4513	0.2844	0.006
Mof_C 	C 	0.7787	0.4693	0.248	0.007
Mof_C 	C 	0.9504	0.3478	0.2852	0.062
Mof_O 	O 	0.478	0.9357	0.2901	-0.154
Mof_O 	O 	0.4366	0.9768	0.2863	0.163
Mof_C 	C 	0.4827	0.916	0.2514	0.157
Mof_C 	C 	0.4768	0.8688	0.249	-0.038
Mof_C 	C 	0.4166	0.9843	0.2476	0.026
Mof_C 	C 	0.3649	0.9792	0.2489	-0.011
Mof_C 	C 	0.4664	0.7706	0.2488	0.014
Mof_C 	C 	0.4473	0.8015	0.2829	0.052
Mof_C 	C 	0.347	0.956	0.2856	0.035
Mof_O 	O 	0.399	0.7444	0.3146	-0.105
Mof_O 	O 	0.4365	0.8049	0.3471	-0.102
Mof_N 	N 	0.4161	0.7847	0.3207	0
Mof_C 	C 	0.302	0.9513	0.2844	0.006
Mof_C 	C 	0.2787	0.9693	0.248	0.001
Mof_C 	C 	0.4504	0.8478	0.2852	0.055
Mof_O 	O 	0.478	0.4357	0.7901	-0.153
Mof_O 	O 	0.4366	0.4768	0.7863	0.163
Mof_C 	C 	0.4827	0.416	0.7514	0.156
Mof_C 	C 	0.4768	0.3688	0.749	-0.038
Mof_C 	C 	0.4166	0.4843	0.7476	0.048
Mof_C 	C 	0.3649	0.4792	0.7489	-0.01
Mof_C 	C 	0.4664	0.2706	0.7488	0.014
Mof_C 	C 	0.4473	0.3015	0.7829	0.052
Mof_C 	C 	0.347	0.456	0.7856	0.037
Mof_O 	O 	0.399	0.2444	0.8146	-0.105
Mof_O 	O 	0.4365	0.3049	0.8471	-0.102
Mof_N 	N 	0.4161	0.2847	0.8207	0
Mof_C 	C 	0.302	0.4513	0.7844	0.006
Mof_C 	C 	0.2787	0.4693	0.748	0.006
Mof_C 	C 	0.4504	0.3478	0.7852	0.055
Mof_O 	O 	0.978	0.0643	0.2099	-0.152
Mof_O 	O 	0.9366	0.0232	0.2137	0.155
Mof_C 	C 	0.9827	0.084	0.2486	0.291
Mof_C 	C 	0.9768	0.1312	0.251	-0.019
Mof_C 	C 	0.9166	0.0157	0.2524	0.072
Mof_C 	C 	0.8649	0.0208	0.2511	-0.014
Mof_C 	C 	0.9664	0.2294	0.2512	0.042
Mof_C 	C 	0.9473	0.1985	0.2171	0.059
Mof_C 	C 	0.847	0.044	0.2144	0.041
Mof_O 	O 	0.899	0.2556	0.1854	-0.099
Mof_O 	O 	0.9365	0.1951	0.1529	-0.089
Mof_N 	N 	0.9161	0.2153	0.1793	-0.001
Mof_C 	C 	0.802	0.0487	0.2156	0.006
Mof_C 	C 	0.7787	0.0307	0.252	0.008
Mof_C 	C 	0.9504	0.1522	0.2148	0.062
Mof_O 	O 	0.978	0.5643	0.7099	-0.152
Mof_O 	O 	0.9366	0.5232	0.7137	0.158
Mof_C 	C 	0.9827	0.584	0.7486	0.29
Mof_C 	C 	0.9768	0.6312	0.751	-0.02
Mof_C 	C 	0.9166	0.5157	0.7524	0.049
Mof_C 	C 	0.8649	0.5208	0.7511	-0.011
Mof_C 	C 	0.9664	0.7294	0.7512	0.041
Mof_C 	C 	0.9473	0.6985	0.7171	0.059
Mof_C 	C 	0.847	0.544	0.7144	0.039
Mof_O 	O 	0.899	0.7556	0.6854	-0.099
Mof_O 	O 	0.9365	0.6951	0.6529	-0.089
Mof_N 	N 	0.9161	0.7153	0.6793	-0.001
Mof_C 	C 	0.802	0.5487	0.7156	0.006
Mof_C 	C 	0.7787	0.5307	0.752	0.007
Mof_C 	C 	0.9504	0.6522	0.7148	0.062
Mof_O 	O 	0.478	0.0643	0.7099	-0.153
Mof_O 	O 	0.4366	0.0232	0.7137	0.159
Mof_C 	C 	0.4827	0.084	0.7486	0.156
Mof_C 	C 	0.4768	0.1312	0.751	-0.038
Mof_C 	C 	0.4166	0.0157	0.7524	0.068
Mof_C 	C 	0.3649	0.0208	0.7511	-0.012
Mof_C 	C 	0.4664	0.2294	0.7512	0.013
Mof_C 	C 	0.4473	0.1985	0.7171	0.052
Mof_C 	C 	0.347	0.044	0.7144	0.039
Mof_O 	O 	0.399	0.2556	0.6854	-0.105
Mof_O 	O 	0.4365	0.1951	0.6529	-0.102
Mof_N 	N 	0.4161	0.2153	0.6793	0
Mof_C 	C 	0.302	0.0487	0.7156	0.006
Mof_C 	C 	0.2787	0.0307	0.752	0.007
Mof_C 	C 	0.4504	0.1522	0.7148	0.055
Mof_O 	O 	0.478	0.5643	0.2099	-0.153
Mof_O 	O 	0.4366	0.5232	0.2137	0.162
Mof_C 	C 	0.4827	0.584	0.2486	0.156
Mof_C 	C 	0.4768	0.6312	0.251	-0.038
Mof_C 	C 	0.4166	0.5157	0.2524	0.048
Mof_C 	C 	0.3649	0.5208	0.2511	-0.01
Mof_C 	C 	0.4664	0.7294	0.2512	0.013
Mof_C 	C 	0.4473	0.6985	0.2171	0.052
Mof_C 	C 	0.347	0.544	0.2144	0.037
Mof_O 	O 	0.399	0.7556	0.1854	-0.105
Mof_O 	O 	0.4365	0.6951	0.1529	-0.103
Mof_N 	N 	0.4161	0.7153	0.1793	0.001
Mof_C 	C 	0.302	0.5487	0.2156	0.005
Mof_C 	C 	0.2787	0.5307	0.252	0.007
Mof_C 	C 	0.4504	0.6522	0.2148	0.055
Mof_O 	O 	0.022	0.9357	0.2099	-0.154
Mof_O 	O 	0.0634	0.9768	0.2137	0.163
Mof_C 	C 	0.0173	0.916	0.2486	0.044
Mof_C 	C 	0.0232	0.8688	0.251	-0.034
Mof_C 	C 	0.0834	0.9843	0.2524	0.031
Mof_C 	C 	0.1351	0.9792	0.2511	-0.011
Mof_C 	C 	0.0336	0.7706	0.2512	0.004
Mof_C 	C 	0.0527	0.8015	0.2171	0.049
Mof_C 	C 	0.153	0.956	0.2144	0.036
Mof_O 	O 	0.101	0.7444	0.1854	-0.106
Mof_O 	O 	0.0635	0.8049	0.1529	-0.112
Mof_N 	N 	0.0839	0.7847	0.1793	0.002
Mof_C 	C 	0.198	0.9513	0.2156	0.005
Mof_C 	C 	0.2213	0.9693	0.252	0.002
Mof_C 	C 	0.0496	0.8478	0.2148	0.046
Mof_O 	O 	0.022	0.4357	0.7099	-0.153
Mof_O 	O 	0.0634	0.4768	0.7137	0.162
Mof_C 	C 	0.0173	0.416	0.7486	0.04
Mof_C 	C 	0.0232	0.3688	0.751	-0.033
Mof_C 	C 	0.0834	0.4843	0.7524	0.05
Mof_C 	C 	0.1351	0.4792	0.7511	-0.01
Mof_C 	C 	0.0336	0.2706	0.7512	0.004
Mof_C 	C 	0.0527	0.3015	0.7171	0.049
Mof_C 	C 	0.153	0.456	0.7144	0.038
Mof_O 	O 	0.101	0.2444	0.6854	-0.105
Mof_O 	O 	0.0635	0.3049	0.6529	-0.112
Mof_N 	N 	0.0839	0.2847	0.6793	0.002
Mof_C 	C 	0.198	0.4513	0.7156	0.005
Mof_C 	C 	0.2213	0.4693	0.752	0.007
Mof_C 	C 	0.0496	0.3478	0.7148	0.046
Mof_O 	O 	0.522	0.9357	0.7099	-0.154
Mof_O 	O 	0.5634	0.9768	0.7137	0.163
Mof_C 	C 	0.5173	0.916	0.7486	0.157
Mof_C 	C 	0.5232	0.8688	0.751	-0.038
Mof_C 	C 	0.5834	0.9843	0.7524	0.025
Mof_C 	C 	0.6351	0.9792	0.7511	-0.011
Mof_C 	C 	0.5336	0.7706	0.7512	0.013
Mof_C 	C 	0.5527	0.8015	0.7171	0.052
Mof_C 	C 	0.653	0.956	0.7144	0.035
Mof_O 	O 	0.601	0.7444	0.6854	-0.105
Mof_O 	O 	0.5635	0.8049	0.6529	-0.102
Mof_N 	N 	0.5839	0.7847	0.6793	0
Mof_C 	C 	0.698	0.9513	0.7156	0.006
Mof_C 	C 	0.7213	0.9693	0.752	0.001
Mof_C 	C 	0.5496	0.8478	0.7148	0.055
Mof_O 	O 	0.522	0.4357	0.2099	-0.153
Mof_O 	O 	0.5634	0.4768	0.2137	0.162
Mof_C 	C 	0.5173	0.416	0.2486	0.156
Mof_C 	C 	0.5232	0.3688	0.251	-0.038
Mof_C 	C 	0.5834	0.4843	0.2524	0.048
Mof_C 	C 	0.6351	0.4792	0.2511	-0.01
Mof_C 	C 	0.5336	0.2706	0.2512	0.013
Mof_C 	C 	0.5527	0.3015	0.2171	0.052
Mof_C 	C 	0.653	0.456	0.2144	0.036
Mof_O 	O 	0.601	0.2444	0.1854	-0.105
Mof_O 	O 	0.5635	0.3049	0.1529	-0.103
Mof_N 	N 	0.5839	0.2847	0.1793	0
Mof_C 	C 	0.698	0.4513	0.2156	0.005
Mof_C 	C 	0.7213	0.4693	0.252	0.007
Mof_C 	C 	0.5496	0.3478	0.2148	0.054
Mof_O 	O 	0.969	0	0.1925	-1.451
Mof_O 	O 	0.9337	1.98654e-33	0.29105	-0.346
Mof_C 	C 	0.0404	0	0.4489	0.008
Mof_C 	C 	0.8413	-1.98654e-33	0.2875	0.059
Mof_C 	C 	0.7946	-1.98654e-33	0.2853	0.01
Mof_C 	C 	0.0369	0	0.3986	0.078
Mof_O 	O 	0.969	0.5	0.6925	-1.456
Mof_O 	O 	0.9337	0.5	0.79105	-0.35
Mof_C 	C 	0.0404	0.5	0.9489	0.008
Mof_C 	C 	0.8413	0.5	0.7875	0.055
Mof_C 	C 	0.7946	0.5	0.7853	0.004
Mof_C 	C 	0.0369	0.5	0.8986	0.079
Mof_O 	O 	0.469	7.94618e-33	0.6925	-1.5
Mof_O 	O 	0.4337	0	0.79105	-0.361
Mof_C 	C 	0.5404	7.94618e-33	0.9489	0.005
Mof_C 	C 	0.3413	7.94618e-33	0.7875	0.056
Mof_C 	C 	0.2946	7.94618e-33	0.7853	0.01
Mof_C 	C 	0.5369	7.94618e-33	0.8986	0.089
Mof_O 	O 	0.469	0.5	0.1925	-1.505
Mof_O 	O 	0.4337	0.5	0.29105	-0.364
Mof_C 	C 	0.5404	0.5	0.4489	0.003
Mof_C 	C 	0.3413	0.5	0.2875	0.053
Mof_C 	C 	0.2946	0.5	0.2853	0.005
Mof_C 	C 	0.5369	0.5	0.3986	0.086
Mof_O 	O 	0.031	0	0.1925	-1.501
Mof_O 	O 	0.0663	1.98654e-33	0.29105	-0.36
Mof_C 	C 	0.9596	0	0.4489	0.049
Mof_C 	C 	0.1587	-1.98654e-33	0.2875	0.057
Mof_C 	C 	0.2054	-1.98654e-33	0.2853	0.01
Mof_C 	C 	0.9631	0	0.3986	0.127
Mof_O 	O 	0.031	0.5	0.6925	-1.505
Mof_O 	O 	0.0663	0.5	0.79105	-0.362
Mof_C 	C 	0.9596	0.5	0.9489	0.048
Mof_C 	C 	0.1587	0.5	0.7875	0.054
Mof_C 	C 	0.2054	0.5	0.7853	0.005
Mof_C 	C 	0.9631	0.5	0.8986	0.127
Mof_O 	O 	0.531	7.94618e-33	0.6925	-1.5
Mof_O 	O 	0.5663	0	0.79105	-0.361
Mof_C 	C 	0.4596	7.94618e-33	0.9489	0.005
Mof_C 	C 	0.6587	7.94618e-33	0.7875	0.057
Mof_C 	C 	0.7054	7.94618e-33	0.7853	0.011
Mof_C 	C 	0.4631	7.94618e-33	0.8986	0.089
Mof_O 	O 	0.531	0.5	0.1925	-1.505
Mof_O 	O 	0.5663	0.5	0.29105	-0.364
Mof_C 	C 	0.4596	0.5	0.4489	0.003
Mof_C 	C 	0.6587	0.5	0.2875	0.053
Mof_C 	C 	0.7054	0.5	0.2853	0.005
Mof_C 	C 	0.4631	0.5	0.3986	0.087
Mof_O 	O 	0.031	0	0.8075	-1.501
Mof_O 	O 	0.0663	0	0.70895	-0.36
Mof_C 	C 	0.9596	0	0.5511	0.049
Mof_C 	C 	0.1587	-7.94618e-33	0.7125	0.057
Mof_C 	C 	0.2054	0	0.7147	0.009
Mof_C 	C 	0.9631	0	0.6014	0.127
Mof_O 	O 	0.031	0.5	0.3075	-1.505
Mof_O 	O 	0.0663	0.5	0.20895	-0.363
Mof_C 	C 	0.9596	0.5	0.0511	0.046
Mof_C 	C 	0.1587	0.5	0.2125	0.054
Mof_C 	C 	0.2054	0.5	0.2147	0.005
Mof_C 	C 	0.9631	0.5	0.1014	0.124
Mof_O 	O 	0.531	3.97309e-33	0.3075	-1.5
Mof_O 	O 	0.5663	0	0.20895	-0.361
Mof_C 	C 	0.4596	0	0.0511	0.004
Mof_C 	C 	0.6587	0	0.2125	0.056
Mof_C 	C 	0.7054	1.98654e-33	0.2147	0.011
Mof_C 	C 	0.4631	0	0.1014	0.086
Mof_O 	O 	0.531	0.5	0.8075	-1.504
Mof_O 	O 	0.5663	0.5	0.70895	-0.364
Mof_C 	C 	0.4596	0.5	0.5511	0.003
Mof_C 	C 	0.6587	0.5	0.7125	0.053
Mof_C 	C 	0.7054	0.5	0.7147	0.005
Mof_C 	C 	0.4631	0.5	0.6014	0.086
Mof_O 	O 	0.969	0	0.8075	-1.451
Mof_O 	O 	0.9337	0	0.70895	-0.346
Mof_C 	C 	0.0404	0	0.5511	0.008
Mof_C 	C 	0.8413	-7.94618e-33	0.7125	0.059
Mof_C 	C 	0.7946	0	0.7147	0.01
Mof_C 	C 	0.0369	0	0.6014	0.078
Mof_O 	O 	0.969	0.5	0.3075	-1.456
Mof_O 	O 	0.9337	0.5	0.20895	-0.35
Mof_C 	C 	0.0404	0.5	0.0511	0.006
Mof_C 	C 	0.8413	0.5	0.2125	0.055
Mof_C 	C 	0.7946	0.5	0.2147	0.004
Mof_C 	C 	0.0369	0.5	0.1014	0.076
Mof_O 	O 	0.469	3.97309e-33	0.3075	-1.5
Mof_O 	O 	0.4337	0	0.20895	-0.361
Mof_C 	C 	0.5404	0	0.0511	0.004
Mof_C 	C 	0.3413	0	0.2125	0.056
Mof_C 	C 	0.2946	1.98654e-33	0.2147	0.01
Mof_C 	C 	0.5369	0	0.1014	0.086
Mof_O 	O 	0.469	0.5	0.8075	-1.504
Mof_O 	O 	0.4337	0.5	0.70895	-0.364
Mof_C 	C 	0.5404	0.5	0.5511	0.003
Mof_C 	C 	0.3413	0.5	0.7125	0.053
Mof_C 	C 	0.2946	0.5	0.7147	0.005
Mof_C 	C 	0.5369	0.5	0.6014	0.086
Mof_O 	O 	-6.79362e-33	0.9339	0.28663	-0.411
Mof_C 	C 	1.30697e-32	0.8426	0.2861	0.02
Mof_C 	C 	5.13237e-33	0.7974	0.2883	-0.013
Mof_C 	C 	3.38796e-33	0.9645	0.1015	0.116
Mof_C 	C 	7.66668e-33	0.9626	0.054	-0.028
Mof_O 	O 	3.1631e-33	0.4339	0.78663	-0.409
Mof_C 	C 	-1.27314e-32	0.3426	0.7861	0.02
Mof_C 	C 	3.16982e-33	0.2974	0.7883	-0.013
Mof_C 	C 	-5.5275e-33	0.4645	0.6015	0.121
Mof_C 	C 	2.22768e-33	0.4626	0.554	-0.023
Mof_O 	O 	0.5	0.9339	0.78663	-0.382
Mof_C 	C 	0.5	0.8426	0.7861	0.049
Mof_C 	C 	0.5	0.7974	0.7883	0.014
Mof_C 	C 	0.5	0.9645	0.6015	0.13
Mof_C 	C 	0.5	0.9626	0.554	-0.02
Mof_O 	O 	0.5	0.4339	0.28663	-0.38
Mof_C 	C 	0.5	0.3426	0.2861	0.049
Mof_C 	C 	0.5	0.2974	0.2883	0.014
Mof_C 	C 	0.5	0.4645	0.1015	0.133
Mof_C 	C 	0.5	0.4626	0.054	-0.016
Mof_O 	O 	5.12565e-33	0.0661	0.28663	-0.41
Mof_C 	C 	-2.82266e-33	0.1574	0.2861	0.019
Mof_C 	C 	-2.81381e-33	0.2026	0.2883	-0.013
Mof_C 	C 	-1.5784e-33	0.0355	0.1015	0.121
Mof_C 	C 	-2.79498e-34	0.0374	0.054	-0.024
Mof_O 	O 	-4.78308e-33	0.5661	0.78663	-0.409
Mof_C 	C 	-2.06776e-32	0.6574	0.7861	0.02
Mof_C 	C 	3.16982e-33	0.7026	0.7883	-0.013
Mof_C 	C 	1.03649e-32	0.5355	0.6015	0.121
Mof_C 	C 	2.22768e-33	0.5374	0.554	-0.023
Mof_O 	O 	0.5	0.0661	0.78663	-0.381
Mof_C 	C 	0.5	0.1574	0.7861	0.049
Mof_C 	C 	0.5	0.2026	0.7883	0.014
Mof_C 	C 	0.5	0.0355	0.6015	0.136
Mof_C 	C 	0.5	0.0374	0.554	-0.015
Mof_O 	O 	0.5	0.5661	0.28663	-0.38
Mof_C 	C 	0.5	0.6574	0.2861	0.049
Mof_C 	C 	0.5	0.7026	0.2883	0.014
Mof_C 	C 	0.5	0.5355	0.1015	0.133
Mof_C 	C 	0.5	0.5374	0.054	-0.016
Mof_O 	O 	1.08147e-32	0.9339	0.71337	-0.411
Mof_C 	C 	1.08168e-32	0.8426	0.7139	0.02
Mof_C 	C 	1.87542e-32	0.7974	0.7117	-0.013
Mof_C 	C 	3.61294e-33	0.9645	0.8985	0.119
Mof_C 	C 	1.17501e-32	0.9626	0.946	-0.026
Mof_O 	O 	4.83107e-33	0.4339	0.21337	-0.41
Mof_C 	C 	-5.09952e-33	0.3426	0.2139	0.019
Mof_C 	C 	4.82435e-33	0.2974	0.2117	-0.014
Mof_C 	C 	5.57549e-33	0.4645	0.3985	0.121
Mof_C 	C 	-6.15278e-33	0.4626	0.446	-0.023
Mof_O 	O 	0.5	0.9339	0.21337	-0.383
Mof_C 	C 	0.5	0.8426	0.2139	0.048
Mof_C 	C 	0.5	0.7974	0.2117	0.013
Mof_C 	C 	0.5	0.9645	0.3985	0.13
Mof_C 	C 	0.5	0.9626	0.446	-0.02
Mof_O 	O 	0.5	0.4339	0.71337	-0.38
Mof_C 	C 	0.5	0.3426	0.7139	0.049
Mof_C 	C 	0.5	0.2974	0.7117	0.014
Mof_C 	C 	0.5	0.4645	0.8985	0.137
Mof_C 	C 	0.5	0.4626	0.946	-0.013
Mof_O 	O 	2.86852e-33	0.0661	0.71337	-0.411
Mof_C 	C 	1.08168e-32	0.1574	0.7139	0.019
Mof_C 	C 	2.8618e-33	0.2026	0.7117	-0.014
Mof_C 	C 	-1.22794e-32	0.0355	0.8985	0.124
Mof_C 	C 	3.80394e-33	0.0374	0.946	-0.022
Mof_O 	O 	4.83107e-33	0.5661	0.21337	-0.41
Mof_C 	C 	-5.09952e-33	0.6574	0.2139	0.02
Mof_C 	C 	8.51262e-34	0.7026	0.2117	-0.013
Mof_C 	C 	-6.34378e-33	0.5355	0.3985	0.121
Mof_C 	C 	-2.17969e-33	0.5374	0.446	-0.023
Mof_O 	O 	0.5	0.0661	0.21337	-0.381
Mof_C 	C 	0.5	0.1574	0.2139	0.048
Mof_C 	C 	0.5	0.2026	0.2117	0.014
Mof_C 	C 	0.5	0.0355	0.3985	0.136
Mof_C 	C 	0.5	0.0374	0.446	-0.015
Mof_O 	O 	0.5	0.5661	0.71337	-0.38
Mof_C 	C 	0.5	0.6574	0.7139	0.049
Mof_C 	C 	0.5	0.7026	0.7117	0.014
Mof_C 	C 	0.5	0.5355	0.8985	0.137
Mof_C 	C 	0.5	0.5374	0.946	-0.013
Mof_N 	N 	5.4822e-33	3.97309e-33	0.3753	-0.264
Mof_C 	C 	-2.06991e-33	0	0.4733	-0.033
Mof_Zn	Zn	1.21718e-33	0	0.3027	1.225
Mof_N 	N 	-4.88627e-34	0	0.1255	-0.061
Mof_C 	C 	1.07765e-34	2.48318e-34	0.0268	0.013
Mof_Zn	Zn	2.78272e-33	1.98654e-33	0.198	2.169
Mof_N 	N 	3.51965e-33	0.5	0.8753	-0.264
Mof_C 	C 	3.91371e-33	0.5	0.9733	-0.019
Mof_Zn	Zn	3.22772e-33	0.5	0.8027	1.225
Mof_N 	N 	1.04614e-32	0.5	0.6255	-0.064
Mof_C 	C 	6.09139e-33	0.5	0.5268	0.022
Mof_Zn	Zn	-5.13947e-33	0.5	0.698	2.171
Mof_N 	N 	0.5	0	0.8753	-0.236
Mof_C 	C 	0.5	7.94618e-33	0.9733	0.027
Mof_Zn	Zn	0.5	0	0.8027	1.233
Mof_N 	N 	0.5	7.94618e-33	0.6255	-0.054
Mof_C 	C 	0.5	0	0.5268	0.031
Mof_Zn	Zn	0.5	0	0.698	2.196
Mof_N 	N 	0.5	0.5	0.3753	-0.236
Mof_C 	C 	0.5	0.5	0.4733	0.013
Mof_Zn	Zn	0.5	0.5	0.3027	1.233
Mof_N 	N 	0.5	0.5	0.1255	-0.057
Mof_C 	C 	0.5	0.5	0.0268	0.011
Mof_Zn	Zn	0.5	0.5	0.198	2.198
Mof_N 	N 	2.51197e-33	0	0.6247	-0.264
Mof_C 	C 	-1.85519e-33	3.97309e-33	0.5267	-0.033
Mof_Zn	Zn	1.07501e-32	7.94618e-33	0.6973	1.225
Mof_N 	N 	3.51643e-33	0	0.8745	-0.062
Mof_C 	C 	3.91331e-33	7.94618e-33	0.9732	0.04
Mof_Zn	Zn	3.2249e-33	0	0.802	2.169
Mof_N 	N 	3.48124e-33	0.5	0.1247	-0.263
Mof_C 	C 	4.32877e-33	0.5	0.0267	-0.046
Mof_Zn	Zn	7.93359e-34	0.5	0.1973	1.225
Mof_N 	N 	1.50589e-33	0.5	0.3745	-0.064
Mof_C 	C 	5.87586e-33	0.5	0.4732	0.022
Mof_Zn	Zn	5.18745e-33	0.5	0.302	2.171
Mof_N 	N 	0.5	1.98654e-33	0.1247	-0.236
Mof_C 	C 	0.5	0	0.0267	-0.001
Mof_Zn	Zn	0.5	1.98654e-33	0.1973	1.233
Mof_N 	N 	0.5	3.97309e-33	0.3745	-0.054
Mof_C 	C 	0.5	7.94618e-33	0.4732	0.031
Mof_Zn	Zn	0.5	3.97309e-33	0.302	2.196
Mof_N 	N 	0.5	0.5	0.6247	-0.236
Mof_C 	C 	0.5	0.5	0.5267	0.013
Mof_Zn	Zn	0.5	0.5	0.6973	1.233
Mof_N 	N 	0.5	0.5	0.8745	-0.058
Mof_C 	C 	0.5	0.5	0.9732	0.039
Mof_Zn	Zn	0.5	0.5	0.802	2.198
Mof_O 	O 	0.2371	0.31501	0.03772	-0.437
Mof_O 	O 	0.3149	0.2638	0.03967	-0.452
Mof_N 	N 	0.172	0.4655	0.9251	-0.006
Mof_C 	C 	0.209	0.4036	0.9647	0.054
Mof_C 	C 	0.1994	0.4488	0.9653	0.044
Mof_C 	C 	0.2164	0.2442	0.1495	0.066
Mof_C 	C 	0.2089	0.2476	0.1984	0.004
Mof_C 	C 	0.4024	0.2947	0.0354	0.05
Mof_C 	C 	0.4495	0.2967	0.036	0.002
Mof_C 	C 	0.2446	0.4061	0.96	0.042
Mof_C 	C 	0.2377	0.4552	0.962	0.008
Mof_C 	C 	0.257	0.2835	0.1472	0.036
Mof_C 	C 	0.2316	0.2129	0.1978	-0.005
Mof_C 	C 	0.4086	0.2557	0.0391	0.049
Mof_C 	C 	0.4575	0.2577	0.0297	-0.001
Mof_O 	O 	0.1757	0.4485	0.8848	-0.094
Mof_O 	O 	0.2371	0.81501	0.53772	-0.438
Mof_O 	O 	0.3149	0.7638	0.53967	-0.453
Mof_N 	N 	0.172	0.9655	0.4251	-0.009
Mof_C 	C 	0.209	0.9036	0.4647	0.042
Mof_C 	C 	0.1994	0.9488	0.4653	0.038
Mof_C 	C 	0.2164	0.7442	0.6495	0.066
Mof_C 	C 	0.2089	0.7476	0.6984	0.004
Mof_C 	C 	0.4024	0.7947	0.5354	0.052
Mof_C 	C 	0.4495	0.7967	0.536	0
Mof_C 	C 	0.2446	0.9061	0.46	0.036
Mof_C 	C 	0.2377	0.9552	0.462	-0.002
Mof_C 	C 	0.257	0.7835	0.6472	0.036
Mof_C 	C 	0.2316	0.7129	0.6978	-0.005
Mof_C 	C 	0.4086	0.7557	0.5391	0.048
Mof_C 	C 	0.4575	0.7577	0.5297	-0
Mof_O 	O 	0.1757	0.9485	0.3848	-0.096
Mof_O 	O 	0.7371	0.31501	0.53772	-0.438
Mof_O 	O 	0.8149	0.2638	0.53967	-0.453
Mof_N 	N 	0.672	0.4655	0.4251	-0.005
Mof_C 	C 	0.709	0.4036	0.4647	0.043
Mof_C 	C 	0.6994	0.4488	0.4653	0.036
Mof_C 	C 	0.7164	0.2442	0.6495	0.066
Mof_C 	C 	0.7089	0.2476	0.6984	0.004
Mof_C 	C 	0.9024	0.2947	0.5354	0.056
Mof_C 	C 	0.9495	0.2967	0.536	0.004
Mof_C 	C 	0.7446	0.4061	0.46	0.039
Mof_C 	C 	0.7377	0.4552	0.462	0.002
Mof_C 	C 	0.757	0.2835	0.6472	0.037
Mof_C 	C 	0.7316	0.2129	0.6978	-0.005
Mof_C 	C 	0.9086	0.2557	0.5391	0.059
Mof_C 	C 	0.9575	0.2577	0.5297	-0.007
Mof_O 	O 	0.6757	0.4485	0.3848	-0.093
Mof_O 	O 	0.7371	0.81501	0.03772	-0.436
Mof_O 	O 	0.8149	0.7638	0.03967	-0.452
Mof_N 	N 	0.672	0.9655	0.9251	-0.01
Mof_C 	C 	0.709	0.9036	0.9647	0.053
Mof_C 	C 	0.6994	0.9488	0.9653	0.045
Mof_C 	C 	0.7164	0.7442	0.1495	0.066
Mof_C 	C 	0.7089	0.7476	0.1984	0.004
Mof_C 	C 	0.9024	0.7947	0.0354	0.054
Mof_C 	C 	0.9495	0.7967	0.036	0.005
Mof_C 	C 	0.7446	0.9061	0.96	0.044
Mof_C 	C 	0.7377	0.9552	0.962	0.009
Mof_C 	C 	0.757	0.7835	0.1472	0.036
Mof_C 	C 	0.7316	0.7129	0.1978	-0.005
Mof_C 	C 	0.9086	0.7557	0.0391	0.059
Mof_C 	C 	0.9575	0.7577	0.0297	-0.007
Mof_O 	O 	0.6757	0.9485	0.8848	-0.095
Mof_O 	O 	0.7629	0.68499	0.03772	-0.436
Mof_O 	O 	0.6851	0.7362	0.03967	-0.452
Mof_N 	N 	0.828	0.5345	0.9251	-0.006
Mof_C 	C 	0.791	0.5964	0.9647	0.058
Mof_C 	C 	0.8006	0.5512	0.9653	0.045
Mof_C 	C 	0.7836	0.7558	0.1495	0.067
Mof_C 	C 	0.7911	0.7524	0.1984	0.004
Mof_C 	C 	0.5976	0.7053	0.0354	0.05
Mof_C 	C 	0.5505	0.7033	0.036	0.003
Mof_C 	C 	0.7554	0.5939	0.96	0.04
Mof_C 	C 	0.7623	0.5448	0.962	0.008
Mof_C 	C 	0.743	0.7165	0.1472	0.037
Mof_C 	C 	0.7684	0.7871	0.1978	-0.005
Mof_C 	C 	0.5914	0.7443	0.0391	0.049
Mof_C 	C 	0.5425	0.7423	0.0297	-0.001
Mof_O 	O 	0.8243	0.5515	0.8848	-0.091
Mof_O 	O 	0.7629	0.18499	0.53772	-0.438
Mof_O 	O 	0.6851	0.2362	0.53967	-0.453
Mof_N 	N 	0.828	0.0345	0.4251	-0.005
Mof_C 	C 	0.791	0.0964	0.4647	0.048
Mof_C 	C 	0.8006	0.0512	0.4653	0.035
Mof_C 	C 	0.7836	0.2558	0.6495	0.067
Mof_C 	C 	0.7911	0.2524	0.6984	0.004
Mof_C 	C 	0.5976	0.2053	0.5354	0.053
Mof_C 	C 	0.5505	0.2033	0.536	0.001
Mof_C 	C 	0.7554	0.0939	0.46	0.035
Mof_C 	C 	0.7623	0.0448	0.462	0.001
Mof_C 	C 	0.743	0.2165	0.6472	0.037
Mof_C 	C 	0.7684	0.2871	0.6978	-0.005
Mof_C 	C 	0.5914	0.2443	0.5391	0.048
Mof_C 	C 	0.5425	0.2423	0.5297	-0
Mof_O 	O 	0.8243	0.0515	0.3848	-0.091
Mof_O 	O 	0.2629	0.68499	0.53772	-0.438
Mof_O 	O 	0.1851	0.7362	0.53967	-0.453
Mof_N 	N 	0.328	0.5345	0.4251	-0.005
Mof_C 	C 	0.291	0.5964	0.4647	0.045
Mof_C 	C 	0.3006	0.5512	0.4653	0.037
Mof_C 	C 	0.2836	0.7558	0.6495	0.066
Mof_C 	C 	0.2911	0.7524	0.6984	0.004
Mof_C 	C 	0.0976	0.7053	0.5354	0.051
Mof_C 	C 	0.0505	0.7033	0.536	0.002
Mof_C 	C 	0.2554	0.5939	0.46	0.036
Mof_C 	C 	0.2623	0.5448	0.462	-0.001
Mof_C 	C 	0.243	0.7165	0.6472	0.037
Mof_C 	C 	0.2684	0.7871	0.6978	-0.005
Mof_C 	C 	0.0914	0.7443	0.5391	0.039
Mof_C 	C 	0.0425	0.7423	0.5297	0.007
Mof_O 	O 	0.3243	0.5515	0.3848	-0.094
Mof_O 	O 	0.2629	0.18499	0.03772	-0.436
Mof_O 	O 	0.1851	0.2362	0.03967	-0.452
Mof_N 	N 	0.328	0.0345	0.9251	-0.006
Mof_C 	C 	0.291	0.0964	0.9647	0.056
Mof_C 	C 	0.3006	0.0512	0.9653	0.042
Mof_C 	C 	0.2836	0.2558	0.1495	0.066
Mof_C 	C 	0.2911	0.2524	0.1984	0.004
Mof_C 	C 	0.0976	0.2053	0.0354	0.049
Mof_C 	C 	0.0505	0.2033	0.036	0.004
Mof_C 	C 	0.2554	0.0939	0.96	0.041
Mof_C 	C 	0.2623	0.0448	0.962	0.009
Mof_C 	C 	0.243	0.2165	0.1472	0.036
Mof_C 	C 	0.2684	0.2871	0.1978	-0.005
Mof_C 	C 	0.0914	0.2443	0.0391	0.04
Mof_C 	C 	0.0425	0.2423	0.0297	0.007
Mof_O 	O 	0.3243	0.0515	0.8848	-0.093
Mof_O 	O 	0.7629	0.31501	0.96228	-0.424
Mof_O 	O 	0.6851	0.2638	0.96033	-0.441
Mof_N 	N 	0.828	0.4655	0.0749	-0.005
Mof_C 	C 	0.791	0.4036	0.0353	0.048
Mof_C 	C 	0.8006	0.4488	0.0347	0.036
Mof_C 	C 	0.7836	0.2442	0.8505	0.067
Mof_C 	C 	0.7911	0.2476	0.8016	0.004
Mof_C 	C 	0.5976	0.2947	0.9646	0.066
Mof_C 	C 	0.5505	0.2967	0.964	0.004
Mof_C 	C 	0.7554	0.4061	0.04	0.034
Mof_C 	C 	0.7623	0.4552	0.038	-0
Mof_C 	C 	0.743	0.2835	0.8528	0.037
Mof_C 	C 	0.7684	0.2129	0.8022	-0.005
Mof_C 	C 	0.5914	0.2557	0.9609	0.05
Mof_C 	C 	0.5425	0.2577	0.9703	0.019
Mof_O 	O 	0.8243	0.4485	0.1152	-0.092
Mof_O 	O 	0.7629	0.81501	0.46228	-0.438
Mof_O 	O 	0.6851	0.7638	0.46033	-0.453
Mof_N 	N 	0.828	0.9655	0.5749	-0.009
Mof_C 	C 	0.791	0.9036	0.5353	0.046
Mof_C 	C 	0.8006	0.9488	0.5347	0.039
Mof_C 	C 	0.7836	0.7442	0.3505	0.067
Mof_C 	C 	0.7911	0.7476	0.3016	0.004
Mof_C 	C 	0.5976	0.7947	0.4646	0.052
Mof_C 	C 	0.5505	0.7967	0.464	0
Mof_C 	C 	0.7554	0.9061	0.54	0.035
Mof_C 	C 	0.7623	0.9552	0.538	-0.002
Mof_C 	C 	0.743	0.7835	0.3528	0.037
Mof_C 	C 	0.7684	0.7129	0.3022	-0.005
Mof_C 	C 	0.5914	0.7557	0.4609	0.048
Mof_C 	C 	0.5425	0.7577	0.4703	-0
Mof_O 	O 	0.8243	0.9485	0.6152	-0.094
Mof_O 	O 	0.2629	0.31501	0.46228	-0.438
Mof_O 	O 	0.1851	0.2638	0.46033	-0.453
Mof_N 	N 	0.328	0.4655	0.5749	-0.005
Mof_C 	C 	0.291	0.4036	0.5353	0.045
Mof_C 	C 	0.3006	0.4488	0.5347	0.037
Mof_C 	C 	0.2836	0.2442	0.3505	0.066
Mof_C 	C 	0.2911	0.2476	0.3016	0.004
Mof_C 	C 	0.0976	0.2947	0.4646	0.051
Mof_C 	C 	0.0505	0.2967	0.464	0.002
Mof_C 	C 	0.2554	0.4061	0.54	0.036
Mof_C 	C 	0.2623	0.4552	0.538	-0.001
Mof_C 	C 	0.243	0.2835	0.3528	0.037
Mof_C 	C 	0.2684	0.2129	0.3022	-0.005
Mof_C 	C 	0.0914	0.2557	0.4609	0.039
Mof_C 	C 	0.0425	0.2577	0.4703	0.007
Mof_O 	O 	0.3243	0.4485	0.6152	-0.094
Mof_O 	O 	0.2629	0.81501	0.96228	-0.425
Mof_O 	O 	0.1851	0.7638	0.96033	-0.441
Mof_N 	N 	0.328	0.9655	0.0749	-0.009
Mof_C 	C 	0.291	0.9036	0.0353	0.045
Mof_C 	C 	0.3006	0.9488	0.0347	0.037
Mof_C 	C 	0.2836	0.7442	0.8505	0.066
Mof_C 	C 	0.2911	0.7476	0.8016	0.004
Mof_C 	C 	0.0976	0.7947	0.9646	0.064
Mof_C 	C 	0.0505	0.7967	0.964	0.005
Mof_C 	C 	0.2554	0.9061	0.04	0.035
Mof_C 	C 	0.2623	0.9552	0.038	-0.001
Mof_C 	C 	0.243	0.7835	0.8528	0.037
Mof_C 	C 	0.2684	0.7129	0.8022	-0.005
Mof_C 	C 	0.0914	0.7557	0.9609	0.041
Mof_C 	C 	0.0425	0.7577	0.9703	0.026
Mof_O 	O 	0.3243	0.9485	0.1152	-0.096
Mof_O 	O 	0.2371	0.68499	0.96228	-0.425
Mof_O 	O 	0.3149	0.7362	0.96033	-0.441
Mof_N 	N 	0.172	0.5345	0.0749	-0.006
Mof_C 	C 	0.209	0.5964	0.0353	0.044
Mof_C 	C 	0.1994	0.5512	0.0347	0.035
Mof_C 	C 	0.2164	0.7558	0.8505	0.066
Mof_C 	C 	0.2089	0.7524	0.8016	0.004
Mof_C 	C 	0.4024	0.7053	0.9646	0.066
Mof_C 	C 	0.4495	0.7033	0.964	0.004
Mof_C 	C 	0.2446	0.5939	0.04	0.036
Mof_C 	C 	0.2377	0.5448	0.038	0
Mof_C 	C 	0.257	0.7165	0.8528	0.037
Mof_C 	C 	0.2316	0.7871	0.8022	-0.005
Mof_C 	C 	0.4086	0.7443	0.9609	0.05
Mof_C 	C 	0.4575	0.7423	0.9703	0.019
Mof_O 	O 	0.1757	0.5515	0.1152	-0.095
Mof_O 	O 	0.2371	0.18499	0.46228	-0.438
Mof_O 	O 	0.3149	0.2362	0.46033	-0.453
Mof_N 	N 	0.172	0.0345	0.5749	-0.005
Mof_C 	C 	0.209	0.0964	0.5353	0.044
Mof_C 	C 	0.1994	0.0512	0.5347	0.035
Mof_C 	C 	0.2164	0.2558	0.3505	0.066
Mof_C 	C 	0.2089	0.2524	0.3016	0.004
Mof_C 	C 	0.4024	0.2053	0.4646	0.053
Mof_C 	C 	0.4495	0.2033	0.464	0.001
Mof_C 	C 	0.2446	0.0939	0.54	0.037
Mof_C 	C 	0.2377	0.0448	0.538	0.001
Mof_C 	C 	0.257	0.2165	0.3528	0.037
Mof_C 	C 	0.2316	0.2871	0.3022	-0.005
Mof_C 	C 	0.4086	0.2443	0.4609	0.048
Mof_C 	C 	0.4575	0.2423	0.4703	-0
Mof_O 	O 	0.1757	0.0515	0.6152	-0.093
Mof_O 	O 	0.7371	0.68499	0.46228	-0.438
Mof_O 	O 	0.8149	0.7362	0.46033	-0.453
Mof_N 	N 	0.672	0.5345	0.5749	-0.005
Mof_C 	C 	0.709	0.5964	0.5353	0.043
Mof_C 	C 	0.6994	0.5512	0.5347	0.036
Mof_C 	C 	0.7164	0.7558	0.3505	0.066
Mof_C 	C 	0.7089	0.7524	0.3016	0.004
Mof_C 	C 	0.9024	0.7053	0.4646	0.056
Mof_C 	C 	0.9495	0.7033	0.464	0.004
Mof_C 	C 	0.7446	0.5939	0.54	0.039
Mof_C 	C 	0.7377	0.5448	0.538	0.002
Mof_C 	C 	0.757	0.7165	0.3528	0.037
Mof_C 	C 	0.7316	0.7871	0.3022	-0.005
Mof_C 	C 	0.9086	0.7443	0.4609	0.058
Mof_C 	C 	0.9575	0.7423	0.4703	-0.007
Mof_O 	O 	0.6757	0.5515	0.6152	-0.093
Mof_O 	O 	0.7371	0.18499	0.96228	-0.424
Mof_O 	O 	0.8149	0.2362	0.96033	-0.441
Mof_N 	N 	0.672	0.0345	0.0749	-0.005
Mof_C 	C 	0.709	0.0964	0.0353	0.045
Mof_C 	C 	0.6994	0.0512	0.0347	0.033
Mof_C 	C 	0.7164	0.2558	0.8505	0.066
Mof_C 	C 	0.7089	0.2524	0.8016	0.004
Mof_C 	C 	0.9024	0.2053	0.9646	0.069
Mof_C 	C 	0.9495	0.2033	0.964	0.007
Mof_C 	C 	0.7446	0.0939	0.04	0.038
Mof_C 	C 	0.7377	0.0448	0.038	0.004
Mof_C 	C 	0.757	0.2165	0.8528	0.037
Mof_C 	C 	0.7316	0.2871	0.8022	-0.005
Mof_C 	C 	0.9086	0.2443	0.9609	0.06
Mof_C 	C 	0.9575	0.2423	0.9703	0.013
Mof_O 	O 	0.6757	0.0515	0.1152	-0.093
Mof_O 	O 	0.7629	0.68499	0.96228	-0.424
Mof_O 	O 	0.6851	0.7362	0.96033	-0.441
Mof_N 	N 	0.828	0.5345	0.0749	-0.005
Mof_C 	C 	0.791	0.5964	0.0353	0.048
Mof_C 	C 	0.8006	0.5512	0.0347	0.036
Mof_C 	C 	0.7836	0.7558	0.8505	0.067
Mof_C 	C 	0.7911	0.7524	0.8016	0.004
Mof_C 	C 	0.5976	0.7053	0.9646	0.066
Mof_C 	C 	0.5505	0.7033	0.964	0.004
Mof_C 	C 	0.7554	0.5939	0.04	0.034
Mof_C 	C 	0.7623	0.5448	0.038	-0
Mof_C 	C 	0.743	0.7165	0.8528	0.037
Mof_C 	C 	0.7684	0.7871	0.8022	-0.005
Mof_C 	C 	0.5914	0.7443	0.9609	0.05
Mof_C 	C 	0.5425	0.7423	0.9703	0.019
Mof_O 	O 	0.8243	0.5515	0.1152	-0.092
Mof_O 	O 	0.7629	0.18499	0.46228	-0.437
Mof_O 	O 	0.6851	0.2362	0.46033	-0.453
Mof_N 	N 	0.828	0.0345	0.5749	-0.005
Mof_C 	C 	0.791	0.0964	0.5353	0.048
Mof_C 	C 	0.8006	0.0512	0.5347	0.035
Mof_C 	C 	0.7836	0.2558	0.3505	0.067
Mof_C 	C 	0.7911	0.2524	0.3016	0.004
Mof_C 	C 	0.5976	0.2053	0.4646	0.053
Mof_C 	C 	0.5505	0.2033	0.464	0.001
Mof_C 	C 	0.7554	0.0939	0.54	0.035
Mof_C 	C 	0.7623	0.0448	0.538	0.001
Mof_C 	C 	0.743	0.2165	0.3528	0.037
Mof_C 	C 	0.7684	0.2871	0.3022	-0.005
Mof_C 	C 	0.5914	0.2443	0.4609	0.048
Mof_C 	C 	0.5425	0.2423	0.4703	-0
Mof_O 	O 	0.8243	0.0515	0.6152	-0.091
Mof_O 	O 	0.2629	0.68499	0.46228	-0.438
Mof_O 	O 	0.1851	0.7362	0.46033	-0.453
Mof_N 	N 	0.328	0.5345	0.5749	-0.005
Mof_C 	C 	0.291	0.5964	0.5353	0.045
Mof_C 	C 	0.3006	0.5512	0.5347	0.037
Mof_C 	C 	0.2836	0.7558	0.3505	0.066
Mof_C 	C 	0.2911	0.7524	0.3016	0.004
Mof_C 	C 	0.0976	0.7053	0.4646	0.051
Mof_C 	C 	0.0505	0.7033	0.464	0.002
Mof_C 	C 	0.2554	0.5939	0.54	0.036
Mof_C 	C 	0.2623	0.5448	0.538	-0.001
Mof_C 	C 	0.243	0.7165	0.3528	0.037
Mof_C 	C 	0.2684	0.7871	0.3022	-0.005
Mof_C 	C 	0.0914	0.7443	0.4609	0.039
Mof_C 	C 	0.0425	0.7423	0.4703	0.007
Mof_O 	O 	0.3243	0.5515	0.6152	-0.094
Mof_O 	O 	0.2629	0.18499	0.96228	-0.425
Mof_O 	O 	0.1851	0.2362	0.96033	-0.441
Mof_N 	N 	0.328	0.0345	0.0749	-0.005
Mof_C 	C 	0.291	0.0964	0.0353	0.047
Mof_C 	C 	0.3006	0.0512	0.0347	0.034
Mof_C 	C 	0.2836	0.2558	0.8505	0.066
Mof_C 	C 	0.2911	0.2524	0.8016	0.004
Mof_C 	C 	0.0976	0.2053	0.9646	0.064
Mof_C 	C 	0.0505	0.2033	0.964	0.005
Mof_C 	C 	0.2554	0.0939	0.04	0.035
Mof_C 	C 	0.2623	0.0448	0.038	0.001
Mof_C 	C 	0.243	0.2165	0.8528	0.037
Mof_C 	C 	0.2684	0.2871	0.8022	-0.005
Mof_C 	C 	0.0914	0.2443	0.9609	0.041
Mof_C 	C 	0.0425	0.2423	0.9703	0.026
Mof_O 	O 	0.3243	0.0515	0.1152	-0.094
Mof_O 	O 	0.2371	0.31501	0.96228	-0.425
Mof_O 	O 	0.3149	0.2638	0.96033	-0.441
Mof_N 	N 	0.172	0.4655	0.0749	-0.006
Mof_C 	C 	0.209	0.4036	0.0353	0.044
Mof_C 	C 	0.1994	0.4488	0.0347	0.035
Mof_C 	C 	0.2164	0.2442	0.8505	0.066
Mof_C 	C 	0.2089	0.2476	0.8016	0.004
Mof_C 	C 	0.4024	0.2947	0.9646	0.066
Mof_C 	C 	0.4495	0.2967	0.964	0.004
Mof_C 	C 	0.2446	0.4061	0.04	0.036
Mof_C 	C 	0.2377	0.4552	0.038	0
Mof_C 	C 	0.257	0.2835	0.8528	0.037
Mof_C 	C 	0.2316	0.2129	0.8022	-0.005
Mof_C 	C 	0.4086	0.2557	0.9609	0.05
Mof_C 	C 	0.4575	0.2577	0.9703	0.019
Mof_O 	O 	0.1757	0.4485	0.1152	-0.095
Mof_O 	O 	0.2371	0.81501	0.46228	-0.438
Mof_O 	O 	0.3149	0.7638	0.46033	-0.453
Mof_N 	N 	0.172	0.9655	0.5749	-0.009
Mof_C 	C 	0.209	0.9036	0.5353	0.042
Mof_C 	C 	0.1994	0.9488	0.5347	0.038
Mof_C 	C 	0.2164	0.7442	0.3505	0.066
Mof_C 	C 	0.2089	0.7476	0.3016	0.004
Mof_C 	C 	0.4024	0.7947	0.4646	0.052
Mof_C 	C 	0.4495	0.7967	0.464	0
Mof_C 	C 	0.2446	0.9061	0.54	0.036
Mof_C 	C 	0.2377	0.9552	0.538	-0.002
Mof_C 	C 	0.257	0.7835	0.3528	0.036
Mof_C 	C 	0.2316	0.7129	0.3022	-0.005
Mof_C 	C 	0.4086	0.7557	0.4609	0.048
Mof_C 	C 	0.4575	0.7577	0.4703	-0
Mof_O 	O 	0.1757	0.9485	0.6152	-0.096
Mof_O 	O 	0.7371	0.31501	0.46228	-0.438
Mof_O 	O 	0.8149	0.2638	0.46033	-0.453
Mof_N 	N 	0.672	0.4655	0.5749	-0.005
Mof_C 	C 	0.709	0.4036	0.5353	0.043
Mof_C 	C 	0.6994	0.4488	0.5347	0.036
Mof_C 	C 	0.7164	0.2442	0.3505	0.066
Mof_C 	C 	0.7089	0.2476	0.3016	0.004
Mof_C 	C 	0.9024	0.2947	0.4646	0.056
Mof_C 	C 	0.9495	0.2967	0.464	0.004
Mof_C 	C 	0.7446	0.4061	0.54	0.039
Mof_C 	C 	0.7377	0.4552	0.538	0.002
Mof_C 	C 	0.757	0.2835	0.3528	0.037
Mof_C 	C 	0.7316	0.2129	0.3022	-0.005
Mof_C 	C 	0.9086	0.2557	0.4609	0.059
Mof_C 	C 	0.9575	0.2577	0.4703	-0.007
Mof_O 	O 	0.6757	0.4485	0.6152	-0.093
Mof_O 	O 	0.7371	0.81501	0.96228	-0.424
Mof_O 	O 	0.8149	0.7638	0.96033	-0.441
Mof_N 	N 	0.672	0.9655	0.0749	-0.009
Mof_C 	C 	0.709	0.9036	0.0353	0.043
Mof_C 	C 	0.6994	0.9488	0.0347	0.037
Mof_C 	C 	0.7164	0.7442	0.8505	0.066
Mof_C 	C 	0.7089	0.7476	0.8016	0.004
Mof_C 	C 	0.9024	0.7947	0.9646	0.069
Mof_C 	C 	0.9495	0.7967	0.964	0.007
Mof_C 	C 	0.7446	0.9061	0.04	0.038
Mof_C 	C 	0.7377	0.9552	0.038	0.001
Mof_C 	C 	0.757	0.7835	0.8528	0.037
Mof_C 	C 	0.7316	0.7129	0.8022	-0.005
Mof_C 	C 	0.9086	0.7557	0.9609	0.06
Mof_C 	C 	0.9575	0.7577	0.9703	0.013
Mof_O 	O 	0.6757	0.9485	0.1152	-0.096
Mof_O 	O 	0.2371	0.68499	0.03772	-0.437
Mof_O 	O 	0.3149	0.7362	0.03967	-0.452
Mof_N 	N 	0.172	0.5345	0.9251	-0.006
Mof_C 	C 	0.209	0.5964	0.9647	0.054
Mof_C 	C 	0.1994	0.5512	0.9653	0.044
Mof_C 	C 	0.2164	0.7558	0.1495	0.066
Mof_C 	C 	0.2089	0.7524	0.1984	0.004
Mof_C 	C 	0.4024	0.7053	0.0354	0.051
Mof_C 	C 	0.4495	0.7033	0.036	0.003
Mof_C 	C 	0.2446	0.5939	0.96	0.042
Mof_C 	C 	0.2377	0.5448	0.962	0.008
Mof_C 	C 	0.257	0.7165	0.1472	0.036
Mof_C 	C 	0.2316	0.7871	0.1978	-0.005
Mof_C 	C 	0.4086	0.7443	0.0391	0.049
Mof_C 	C 	0.4575	0.7423	0.0297	-0.001
Mof_O 	O 	0.1757	0.5515	0.8848	-0.094
Mof_O 	O 	0.2371	0.18499	0.53772	-0.438
Mof_O 	O 	0.3149	0.2362	0.53967	-0.453
Mof_N 	N 	0.172	0.0345	0.4251	-0.005
Mof_C 	C 	0.209	0.0964	0.4647	0.044
Mof_C 	C 	0.1994	0.0512	0.4653	0.035
Mof_C 	C 	0.2164	0.2558	0.6495	0.066
Mof_C 	C 	0.2089	0.2524	0.6984	0.004
Mof_C 	C 	0.4024	0.2053	0.5354	0.053
Mof_C 	C 	0.4495	0.2033	0.536	0.001
Mof_C 	C 	0.2446	0.0939	0.46	0.037
Mof_C 	C 	0.2377	0.0448	0.462	0.001
Mof_C 	C 	0.257	0.2165	0.6472	0.037
Mof_C 	C 	0.2316	0.2871	0.6978	-0.005
Mof_C 	C 	0.4086	0.2443	0.5391	0.048
Mof_C 	C 	0.4575	0.2423	0.5297	-0
Mof_O 	O 	0.1757	0.0515	0.3848	-0.093
Mof_O 	O 	0.7371	0.68499	0.53772	-0.438
Mof_O 	O 	0.8149	0.7362	0.53967	-0.453
Mof_N 	N 	0.672	0.5345	0.4251	-0.005
Mof_C 	C 	0.709	0.5964	0.4647	0.043
Mof_C 	C 	0.6994	0.5512	0.4653	0.036
Mof_C 	C 	0.7164	0.7558	0.6495	0.066
Mof_C 	C 	0.7089	0.7524	0.6984	0.004
Mof_C 	C 	0.9024	0.7053	0.5354	0.056
Mof_C 	C 	0.9495	0.7033	0.536	0.004
Mof_C 	C 	0.7446	0.5939	0.46	0.039
Mof_C 	C 	0.7377	0.5448	0.462	0.002
Mof_C 	C 	0.757	0.7165	0.6472	0.037
Mof_C 	C 	0.7316	0.7871	0.6978	-0.005
Mof_C 	C 	0.9086	0.7443	0.5391	0.058
Mof_C 	C 	0.9575	0.7423	0.5297	-0.007
Mof_O 	O 	0.6757	0.5515	0.3848	-0.093
Mof_O 	O 	0.7371	0.18499	0.03772	-0.436
Mof_O 	O 	0.8149	0.2362	0.03967	-0.452
Mof_N 	N 	0.672	0.0345	0.9251	-0.006
Mof_C 	C 	0.709	0.0964	0.9647	0.055
Mof_C 	C 	0.6994	0.0512	0.9653	0.041
Mof_C 	C 	0.7164	0.2558	0.1495	0.066
Mof_C 	C 	0.7089	0.2524	0.1984	0.004
Mof_C 	C 	0.9024	0.2053	0.0354	0.054
Mof_C 	C 	0.9495	0.2033	0.036	0.006
Mof_C 	C 	0.7446	0.0939	0.96	0.044
Mof_C 	C 	0.7377	0.0448	0.962	0.012
Mof_C 	C 	0.757	0.2165	0.1472	0.036
Mof_C 	C 	0.7316	0.2871	0.1978	-0.005
Mof_C 	C 	0.9086	0.2443	0.0391	0.059
Mof_C 	C 	0.9575	0.2423	0.0297	-0.007
Mof_O 	O 	0.6757	0.0515	0.8848	-0.092
Mof_O 	O 	0.7629	0.31501	0.03772	-0.436
Mof_O 	O 	0.6851	0.2638	0.03967	-0.452
Mof_N 	N 	0.828	0.4655	0.9251	-0.006
Mof_C 	C 	0.791	0.4036	0.9647	0.058
Mof_C 	C 	0.8006	0.4488	0.9653	0.045
Mof_C 	C 	0.7836	0.2442	0.1495	0.067
Mof_C 	C 	0.7911	0.2476	0.1984	0.004
Mof_C 	C 	0.5976	0.2947	0.0354	0.05
Mof_C 	C 	0.5505	0.2967	0.036	0.002
Mof_C 	C 	0.7554	0.4061	0.96	0.04
Mof_C 	C 	0.7623	0.4552	0.962	0.008
Mof_C 	C 	0.743	0.2835	0.1472	0.037
Mof_C 	C 	0.7684	0.2129	0.1978	-0.005
Mof_C 	C 	0.5914	0.2557	0.0391	0.049
Mof_C 	C 	0.5425	0.2577	0.0297	-0.001
Mof_O 	O 	0.8243	0.4485	0.8848	-0.091
Mof_O 	O 	0.7629	0.81501	0.53772	-0.438
Mof_O 	O 	0.6851	0.7638	0.53967	-0.453
Mof_N 	N 	0.828	0.9655	0.4251	-0.009
Mof_C 	C 	0.791	0.9036	0.4647	0.046
Mof_C 	C 	0.8006	0.9488	0.4653	0.039
Mof_C 	C 	0.7836	0.7442	0.6495	0.067
Mof_C 	C 	0.7911	0.7476	0.6984	0.004
Mof_C 	C 	0.5976	0.7947	0.5354	0.052
Mof_C 	C 	0.5505	0.7967	0.536	0
Mof_C 	C 	0.7554	0.9061	0.46	0.035
Mof_C 	C 	0.7623	0.9552	0.462	-0.002
Mof_C 	C 	0.743	0.7835	0.6472	0.037
Mof_C 	C 	0.7684	0.7129	0.6978	-0.005
Mof_C 	C 	0.5914	0.7557	0.5391	0.048
Mof_C 	C 	0.5425	0.7577	0.5297	-0
Mof_O 	O 	0.8243	0.9485	0.3848	-0.094
Mof_O 	O 	0.2629	0.31501	0.53772	-0.438
Mof_O 	O 	0.1851	0.2638	0.53967	-0.453
Mof_N 	N 	0.328	0.4655	0.4251	-0.005
Mof_C 	C 	0.291	0.4036	0.4647	0.045
Mof_C 	C 	0.3006	0.4488	0.4653	0.037
Mof_C 	C 	0.2836	0.2442	0.6495	0.066
Mof_C 	C 	0.2911	0.2476	0.6984	0.004
Mof_C 	C 	0.0976	0.2947	0.5354	0.051
Mof_C 	C 	0.0505	0.2967	0.536	0.002
Mof_C 	C 	0.2554	0.4061	0.46	0.036
Mof_C 	C 	0.2623	0.4552	0.462	-0.001
Mof_C 	C 	0.243	0.2835	0.6472	0.037
Mof_C 	C 	0.2684	0.2129	0.6978	-0.005
Mof_C 	C 	0.0914	0.2557	0.5391	0.039
Mof_C 	C 	0.0425	0.2577	0.5297	0.007
Mof_O 	O 	0.3243	0.4485	0.3848	-0.094
Mof_O 	O 	0.2629	0.81501	0.03772	-0.437
Mof_O 	O 	0.1851	0.7638	0.03967	-0.452
Mof_N 	N 	0.328	0.9655	0.9251	-0.01
Mof_C 	C 	0.291	0.9036	0.9647	0.054
Mof_C 	C 	0.3006	0.9488	0.9653	0.046
Mof_C 	C 	0.2836	0.7442	0.1495	0.066
Mof_C 	C 	0.2911	0.7476	0.1984	0.004
Mof_C 	C 	0.0976	0.7947	0.0354	0.049
Mof_C 	C 	0.0505	0.7967	0.036	0.003
Mof_C 	C 	0.2554	0.9061	0.96	0.041
Mof_C 	C 	0.2623	0.9552	0.962	0.006
Mof_C 	C 	0.243	0.7835	0.1472	0.036
Mof_C 	C 	0.2684	0.7129	0.1978	-0.005
Mof_C 	C 	0.0914	0.7557	0.0391	0.04
Mof_C 	C 	0.0425	0.7577	0.0297	0.007
Mof_O 	O 	0.3243	0.9485	0.8848	-0.096
Mof_N 	N 	0.25	0.25	0.1253	-0.248
Mof_C 	C 	0.25	0.25	0.2223	0.012
Mof_Zn	Zn	0.25	0.25	0.05223	1.229
Mof_N 	N 	0.25	0.75	0.6253	-0.248
Mof_C 	C 	0.25	0.75	0.7223	0.012
Mof_Zn	Zn	0.25	0.75	0.55223	1.23
Mof_N 	N 	0.75	0.75	0.1253	-0.248
Mof_C 	C 	0.75	0.75	0.2223	0.012
Mof_Zn	Zn	0.75	0.75	0.05223	1.229
Mof_N 	N 	0.75	0.25	0.6253	-0.248
Mof_C 	C 	0.75	0.25	0.7223	0.012
Mof_Zn	Zn	0.75	0.25	0.55223	1.23
Mof_N 	N 	0.75	0.25	0.8747	-0.248
Mof_C 	C 	0.75	0.25	0.7777	0.012
Mof_Zn	Zn	0.75	0.25	0.94777	1.231
Mof_N 	N 	0.75	0.75	0.3747	-0.248
Mof_C 	C 	0.75	0.75	0.2777	0.012
Mof_Zn	Zn	0.75	0.75	0.44777	1.23
Mof_N 	N 	0.25	0.25	0.3747	-0.248
Mof_C 	C 	0.25	0.25	0.2777	0.012
Mof_Zn	Zn	0.25	0.25	0.44777	1.23
Mof_N 	N 	0.25	0.75	0.8747	-0.248
Mof_C 	C 	0.25	0.75	0.7777	0.012
Mof_Zn	Zn	0.25	0.75	0.94777	1.23
Mof_N 	N 	0.75	0.75	0.8747	-0.248
Mof_C 	C 	0.75	0.75	0.7777	0.012
Mof_Zn	Zn	0.75	0.75	0.94777	1.231
Mof_N 	N 	0.75	0.25	0.3747	-0.248
Mof_C 	C 	0.75	0.25	0.2777	0.012
Mof_Zn	Zn	0.75	0.25	0.44777	1.23
Mof_N 	N 	0.25	0.25	0.8747	-0.248
Mof_C 	C 	0.25	0.25	0.7777	0.012
Mof_Zn	Zn	0.25	0.25	0.94777	1.23
Mof_N 	N 	0.25	0.75	0.3747	-0.248
Mof_C 	C 	0.25	0.75	0.2777	0.012
Mof_Zn	Zn	0.25	0.75	0.44777	1.23
Mof_N 	N 	0.25	0.75	0.1253	-0.248
Mof_C 	C 	0.25	0.75	0.2223	0.012
Mof_Zn	Zn	0.25	0.75	0.05223	1.229
Mof_N 	N 	0.25	0.25	0.6253	-0.248
Mof_C 	C 	0.25	0.25	0.7223	0.012
Mof_Zn	Zn	0.25	0.25	0.55223	1.23
Mof_N 	N 	0.75	0.25	0.1253	-0.248
Mof_C 	C 	0.75	0.25	0.2223	0.012
Mof_Zn	Zn	0.75	0.25	0.05223	1.229
Mof_N 	N 	0.75	0.75	0.6253	-0.248
Mof_C 	C 	0.75	0.75	0.7223	0.012
Mof_Zn	Zn	0.75	0.75	0.55223	1.23
Mof_C 	C 	0.333	0.2628	-0	0.342
Mof_C 	C 	0.2285	0.3834	-0	-0.141
Mof_C 	C 	0.3849	0.2695	-0	-0.148
Mof_C 	C 	0.2358	0.3334	-0	0.378
Mof_C 	C 	0.2161	0.4759	-0	-0.006
Mof_C 	C 	0.4749	0.279	-0	-0.01
Mof_C 	C 	0.333	0.7628	0.5	0.356
Mof_C 	C 	0.2285	0.8834	0.5	-0.125
Mof_C 	C 	0.3849	0.7695	0.5	-0.132
Mof_C 	C 	0.2358	0.8334	0.5	0.393
Mof_C 	C 	0.2161	0.9759	0.5	0.002
Mof_C 	C 	0.4749	0.779	0.5	0.01
Mof_C 	C 	0.833	0.2628	0.5	0.36
Mof_C 	C 	0.7285	0.3834	0.5	-0.125
Mof_C 	C 	0.8849	0.2695	0.5	-0.14
Mof_C 	C 	0.7358	0.3334	0.5	0.394
Mof_C 	C 	0.7161	0.4759	0.5	0.009
Mof_C 	C 	0.9749	0.279	0.5	0.073
Mof_C 	C 	0.833	0.7628	-0	0.345
Mof_C 	C 	0.7285	0.8834	-0	-0.14
Mof_C 	C 	0.8849	0.7695	-0	-0.155
Mof_C 	C 	0.7358	0.8334	-0	0.378
Mof_C 	C 	0.7161	0.9759	-0	-0.014
Mof_C 	C 	0.9749	0.779	-0	0.05
Mof_C 	C 	0.667	0.7372	-0	0.342
Mof_C 	C 	0.7715	0.6166	-0	-0.142
Mof_C 	C 	0.6151	0.7305	-0	-0.148
Mof_C 	C 	0.7642	0.6666	-0	0.379
Mof_C 	C 	0.7839	0.5241	-0	-0.006
Mof_C 	C 	0.5251	0.721	-0	-0.01
Mof_C 	C 	0.667	0.2372	0.5	0.356
Mof_C 	C 	0.7715	0.1166	0.5	-0.127
Mof_C 	C 	0.6151	0.2305	0.5	-0.133
Mof_C 	C 	0.7642	0.1666	0.5	0.395
Mof_C 	C 	0.7839	0.0241	0.5	0.016
Mof_C 	C 	0.5251	0.221	0.5	0.01
Mof_C 	C 	0.167	0.7372	0.5	0.353
Mof_C 	C 	0.2715	0.6166	0.5	-0.126
Mof_C 	C 	0.1151	0.7305	0.5	-0.126
Mof_C 	C 	0.2642	0.6666	0.5	0.394
Mof_C 	C 	0.2839	0.5241	0.5	0.009
Mof_C 	C 	0.0251	0.721	0.5	-0.052
Mof_C 	C 	0.167	0.2372	-0	0.339
Mof_C 	C 	0.2715	0.1166	-0	-0.142
Mof_C 	C 	0.1151	0.2305	-0	-0.141
Mof_C 	C 	0.2642	0.1666	-0	0.379
Mof_C 	C 	0.2839	0.0241	-0	0.001
Mof_C 	C 	0.0251	0.221	-0	-0.072
Mof_C 	C 	0.667	0.2628	-0	0.342
Mof_C 	C 	0.7715	0.3834	-0	-0.142
Mof_C 	C 	0.6151	0.2695	-0	-0.148
Mof_C 	C 	0.7642	0.3334	-0	0.379
Mof_C 	C 	0.7839	0.4759	-0	-0.006
Mof_C 	C 	0.5251	0.279	-0	-0.01
Mof_C 	C 	0.667	0.7628	0.5	0.356
Mof_C 	C 	0.7715	0.8834	0.5	-0.126
Mof_C 	C 	0.6151	0.7695	0.5	-0.132
Mof_C 	C 	0.7642	0.8334	0.5	0.394
Mof_C 	C 	0.7839	0.9759	0.5	0
Mof_C 	C 	0.5251	0.779	0.5	0.01
Mof_C 	C 	0.167	0.2628	0.5	0.353
Mof_C 	C 	0.2715	0.3834	0.5	-0.126
Mof_C 	C 	0.1151	0.2695	0.5	-0.126
Mof_C 	C 	0.2642	0.3334	0.5	0.394
Mof_C 	C 	0.2839	0.4759	0.5	0.009
Mof_C 	C 	0.0251	0.279	0.5	-0.053
Mof_C 	C 	0.167	0.7628	-0	0.339
Mof_C 	C 	0.2715	0.8834	-0	-0.141
Mof_C 	C 	0.1151	0.7695	-0	-0.141
Mof_C 	C 	0.2642	0.8334	-0	0.378
Mof_C 	C 	0.2839	0.9759	-0	-0.013
Mof_C 	C 	0.0251	0.779	-0	-0.07
Mof_C 	C 	0.333	0.7372	-0	0.342
Mof_C 	C 	0.2285	0.6166	-0	-0.141
Mof_C 	C 	0.3849	0.7305	-0	-0.148
Mof_C 	C 	0.2358	0.6666	-0	0.378
Mof_C 	C 	0.2161	0.5241	-0	-0.006
Mof_C 	C 	0.4749	0.721	-0	-0.01
Mof_C 	C 	0.333	0.2372	0.5	0.356
Mof_C 	C 	0.2285	0.1166	0.5	-0.126
Mof_C 	C 	0.3849	0.2305	0.5	-0.133
Mof_C 	C 	0.2358	0.1666	0.5	0.393
Mof_C 	C 	0.2161	0.0241	0.5	0.015
Mof_C 	C 	0.4749	0.221	0.5	0.01
Mof_C 	C 	0.833	0.7372	0.5	0.359
Mof_C 	C 	0.7285	0.6166	0.5	-0.125
Mof_C 	C 	0.8849	0.7305	0.5	-0.14
Mof_C 	C 	0.7358	0.6666	0.5	0.394
Mof_C 	C 	0.7161	0.5241	0.5	0.009
Mof_C 	C 	0.9749	0.721	0.5	0.072
Mof_C 	C 	0.833	0.2372	-0	0.345
Mof_C 	C 	0.7285	0.1166	-0	-0.141
Mof_C 	C 	0.8849	0.2305	-0	-0.155
Mof_C 	C 	0.7358	0.1666	-0	0.379
Mof_C 	C 	0.7161	0.0241	-0	0.002
Mof_C 	C 	0.9749	0.221	-0	0.052
Mof_O 	O 	0.1496	0.5	0.9334	-0.087
Mof_O 	O 	0.1496	3.97309e-33	0.4334	-0.087
Mof_O 	O 	0.6496	0.5	0.4334	-0.09
Mof_O 	O 	0.6496	0	0.9334	-0.082
Mof_O 	O 	0.8504	0.5	0.9334	-0.085
Mof_O 	O 	0.8504	3.97309e-33	0.4334	-0.084
Mof_O 	O 	0.3504	0.5	0.4334	-0.09
Mof_O 	O 	0.3504	0	0.9334	-0.082
Mof_O 	O 	0.8504	0.5	0.0666	-0.091
Mof_O 	O 	0.8504	3.97309e-33	0.5666	-0.084
Mof_O 	O 	0.3504	0.5	0.5666	-0.09
Mof_O 	O 	0.3504	4.96636e-34	0.0666	-0.087
Mof_O 	O 	0.1496	0.5	0.0666	-0.093
Mof_O 	O 	0.1496	3.97309e-33	0.5666	-0.087
Mof_O 	O 	0.6496	0.5	0.5666	-0.09
Mof_O 	O 	0.6496	4.96636e-34	0.0666	-0.087
_end
