data_functionalizedCrystal
_audit_creation_method	'EQeq! by Chris Wilmer'
_symmetry_space_group_name_H-M	'P1'
_symmetry_Int_Tables_number	1
_symmetry_cell_setting	triclinic
loop_
_symmetry_equiv_pos_as_xyz
  x,y,z
_cell_length_a	10.3314
_cell_length_b	12.3196
_cell_length_c	19.042
_cell_angle_alpha	106.785
_cell_angle_beta	93.694
_cell_angle_gamma	94.284
loop_
_atom_site_label
_atom_site_type_symbol
_atom_site_fract_x
_atom_site_fract_y
_atom_site_fract_z
_atom_site_charge
Mof_Cu	Cu	0.10869	0.47926	0.22495	0.919
Mof_Cu	Cu	0.34595	0.54578	0.28994	0.92
Mof_Cu	Cu	0.5885	0.20678	0.39764	0.888
Mof_Cu	Cu	0.88105	0.83383	0.03246	0.892
Mof_O 	O 	0.1694	0.3278	0.1927	-0.4
Mof_O 	O 	0.748	0.2987	0.437	-0.401
Mof_O 	O 	0.7177	0.7441	0.9911	-0.374
Mof_O 	O 	0.3734	0.5722	0.1968	-0.404
Mof_O 	O 	0.0843	0.6397	0.2633	-0.39
Mof_O 	O 	0.0825	0.4577	0.321	-0.396
Mof_O 	O 	0.2856	0.7	0.3194	-0.381
Mof_O 	O 	0.2863	0.5046	0.3738	-0.394
Mof_N 	N 	0.383	0.4272	0.6208	-0.056
Mof_O 	O 	0.0425	0.9276	0.0701	-0.404
Mof_O 	O 	0.4322	0.107	0.3574	-0.41
Mof_O 	O 	0.1786	0.5086	0.1348	-0.38
Mof_O 	O 	0.7337	0.7304	0.1046	-0.3
Mof_N 	N 	0.0958	0.5569	0.81	-0.138
Mof_N 	N 	0.2833	0.3475	0.5927	-0.096
Mof_O 	O 	0.2913	0.2259	0.34	-0.279
Mof_O 	O 	0.3744	0.3852	0.2412	-0.393
Mof_N 	N 	0.7868	0.9681	0.0822	-0.167
Mof_N 	N 	0.2648	0.5708	0.8834	-0.091
Mof_N 	N 	0.6897	0.0816	0.3319	-0.158
Mof_N 	N 	0.8531	0.9912	0.2986	-0.092
Mof_C 	C 	0.0603	0.316	0.5385	-0.085
Mof_H 	H 	0.037	0.2814	0.5739	0.086
Mof_C 	C 	0.4633	0.6426	0.9639	-0.09
Mof_H 	H 	0.5007	0.6631	0.9259	0.09
Mof_C 	C 	0.337	0.592	0.9536	0.115
Mof_N 	N 	0.1354	0.5776	0.8794	-0.048
Mof_N 	N 	0.8173	0.0859	0.3454	-0.051
Mof_N 	N 	0.456	0.3889	0.6651	-0.137
Mof_C 	C 	0.1871	0.3606	0.5388	0.099
Mof_N 	N 	0.6588	0.9583	0.0786	-0.049
Mof_N 	N 	0.6235	0.0565	0.1184	-0.091
Mof_C 	C 	0.2903	0.259	0.6201	0.005
Mof_H 	H 	0.2325	0.1936	0.6097	0.041
Mof_O 	O 	0.8055	0.2099	0.5195	-0.268
Mof_C 	C 	0.1701	0.4636	0.3715	0.347
Mof_C 	C 	0.5331	0.6625	0.0311	-0.023
Mof_C 	C 	0.2771	0.5629	0.0096	-0.074
Mof_H 	H 	0.1916	0.5295	0.0018	0.085
Mof_C 	C 	0.2297	0.1057	0.1338	-0.019
Mof_H 	H 	0.1421	0.1176	0.1366	0.052
Mof_C 	C 	0.8298	0.2723	0.481	0.32
Mof_C 	C 	0.2253	0.4122	0.4865	-0.07
Mof_H 	H 	0.311	0.4422	0.4879	0.078
Mof_C 	C 	0.9674	0.324	0.4837	-0.03
Mof_C 	C 	0.0841	0.0575	0.3173	-0.072
Mof_H 	H 	0.0636	0.1306	0.3198	0.085
Mof_C 	C 	0.9861	0.968	0.3034	0.089
Mof_C 	C 	0.4746	0.6343	0.0876	-0.024
Mof_H 	H 	0.5214	0.649	0.1333	0.071
Mof_C 	C 	0.3936	0.9817	0.0918	-0.078
Mof_H 	H 	0.4178	0.9104	0.0671	0.09
Mof_C 	C 	0.2934	0.5524	0.1409	0.339
Mof_C 	C 	0.3188	0.1331	0.343	0.329
Mof_C 	C 	0.4018	0.287	0.6667	0.014
Mof_H 	H 	0.4347	0.243	0.6947	0.037
Mof_C 	C 	0.0039	0.3726	0.4314	-0.015
Mof_H 	H 	0.9423	0.3759	0.3944	0.068
Mof_C 	C 	0.1322	0.4176	0.4322	-0.038
Mof_C 	C 	0.212	0.0358	0.3274	-0.045
Mof_C 	C 	0.3068	0.5456	0.8158	0.007
Mof_H 	H 	0.3916	0.5358	0.8032	0.047
Mof_O 	O 	0.1914	0.8142	0.0207	-0.268
Mof_C 	C 	0.6449	0.9854	0.2784	0.019
Mof_H 	H 	0.5585	0.9632	0.2597	0.037
Mof_C 	C 	0.1981	0.5375	0.77	0.021
Mof_H 	H 	0.1951	0.5212	0.719	0.042
Mof_C 	C 	0.6711	0.7144	0.0441	0.292
Mof_C 	C 	0.174	0.7166	0.2968	0.336
Mof_C 	C 	0.4877	0.0735	0.1252	0.102
Mof_C 	C 	0.7493	0.9264	0.2564	-0.003
Mof_H 	H 	0.749	0.8569	0.2203	0.055
Mof_C 	C 	0.1433	0.8368	0.3057	-0.041
Mof_C 	C 	0.0144	0.8587	0.2957	-0.066
Mof_H 	H 	0.9479	0.7995	0.2839	0.076
Mof_C 	C 	0.242	0.9263	0.3225	-0.005
Mof_H 	H 	0.3282	0.9125	0.3304	0.061
Mof_C 	C 	0.3476	0.5848	0.0774	-0.035
Mof_C 	C 	0.3232	0.1949	0.1671	-0.043
Mof_C 	C 	0.1599	0.9043	0.0593	0.315
Mof_C 	C 	0.2862	0.3113	0.2043	0.351
Mof_C 	C 	0.2625	0.0008	0.0969	-0.045
Mof_C 	C 	0.4551	0.1774	0.1637	-0.082
Mof_H 	H 	0.5193	0.2359	0.1875	0.073
Mof_C 	C 	0.7297	0.1304	0.1489	0.011
Mof_H 	H 	0.7316	0.2046	0.1796	0.038
Mof_C 	C 	0.8323	0.0728	0.1251	0.028
Mof_H 	H 	0.9196	0.1008	0.1365	0.031
Mof_Cu	Cu	0.89131	0.52074	0.77505	0.918
Mof_Cu	Cu	0.65405	0.45422	0.71006	0.919
Mof_Cu	Cu	0.4115	0.79322	0.60236	0.887
Mof_Cu	Cu	0.11895	0.16617	0.96754	0.891
Mof_O 	O 	0.8306	0.6722	0.8073	-0.4
Mof_O 	O 	0.252	0.7013	0.563	-0.401
Mof_O 	O 	0.2823	0.2559	0.0089	-0.374
Mof_O 	O 	0.6266	0.4278	0.8032	-0.404
Mof_O 	O 	0.9157	0.3603	0.7367	-0.39
Mof_O 	O 	0.9175	0.5423	0.679	-0.396
Mof_O 	O 	0.7144	0.3	0.6806	-0.381
Mof_O 	O 	0.7137	0.4954	0.6262	-0.394
Mof_N 	N 	0.617	0.5728	0.3792	-0.056
Mof_O 	O 	0.9575	0.0724	0.9299	-0.404
Mof_O 	O 	0.5678	0.893	0.6426	-0.41
Mof_O 	O 	0.8214	0.4914	0.8652	-0.38
Mof_O 	O 	0.2663	0.2696	0.8954	-0.3
Mof_N 	N 	0.9042	0.4431	0.19	-0.138
Mof_N 	N 	0.7167	0.6525	0.4073	-0.096
Mof_O 	O 	0.7087	0.7741	0.66	-0.279
Mof_O 	O 	0.6256	0.6148	0.7588	-0.393
Mof_N 	N 	0.2132	0.0319	0.9178	-0.167
Mof_N 	N 	0.7352	0.4292	0.1166	-0.091
Mof_N 	N 	0.3103	0.9184	0.6681	-0.158
Mof_N 	N 	0.1469	0.0088	0.7014	-0.092
Mof_C 	C 	0.9397	0.684	0.4615	-0.085
Mof_H 	H 	0.963	0.7186	0.4261	0.086
Mof_C 	C 	0.5367	0.3574	0.0361	-0.09
Mof_H 	H 	0.4993	0.3369	0.0741	0.09
Mof_C 	C 	0.663	0.408	0.0464	0.115
Mof_N 	N 	0.8646	0.4224	0.1206	-0.048
Mof_N 	N 	0.1827	0.9141	0.6546	-0.051
Mof_N 	N 	0.544	0.6111	0.3349	-0.137
Mof_C 	C 	0.8129	0.6394	0.4612	0.099
Mof_N 	N 	0.3412	0.0417	0.9214	-0.049
Mof_N 	N 	0.3765	0.9435	0.8816	-0.091
Mof_C 	C 	0.7097	0.741	0.3799	0.005
Mof_H 	H 	0.7675	0.8064	0.3903	0.041
Mof_O 	O 	0.1945	0.7901	0.4805	-0.268
Mof_C 	C 	0.8299	0.5364	0.6285	0.347
Mof_C 	C 	0.4669	0.3375	0.9689	-0.023
Mof_C 	C 	0.7229	0.4371	0.9904	-0.074
Mof_H 	H 	0.8084	0.4705	0.9982	0.085
Mof_C 	C 	0.7703	0.8943	0.8662	-0.019
Mof_H 	H 	0.8579	0.8824	0.8634	0.052
Mof_C 	C 	0.1702	0.7277	0.519	0.32
Mof_C 	C 	0.7747	0.5878	0.5135	-0.07
Mof_H 	H 	0.689	0.5578	0.5121	0.078
Mof_C 	C 	0.0326	0.676	0.5163	-0.03
Mof_C 	C 	0.9159	0.9425	0.6827	-0.072
Mof_H 	H 	0.9364	0.8694	0.6802	0.085
Mof_C 	C 	0.0139	0.032	0.6966	0.089
Mof_C 	C 	0.5254	0.3657	0.9124	-0.024
Mof_H 	H 	0.4786	0.351	0.8667	0.071
Mof_C 	C 	0.6064	0.0183	0.9082	-0.078
Mof_H 	H 	0.5822	0.0896	0.9329	0.09
Mof_C 	C 	0.7066	0.4476	0.8591	0.339
Mof_C 	C 	0.6812	0.8669	0.657	0.329
Mof_C 	C 	0.5982	0.713	0.3333	0.014
Mof_H 	H 	0.5653	0.757	0.3053	0.037
Mof_C 	C 	0.9961	0.6274	0.5686	-0.015
Mof_H 	H 	0.0577	0.6241	0.6056	0.068
Mof_C 	C 	0.8678	0.5824	0.5678	-0.038
Mof_C 	C 	0.788	0.9642	0.6726	-0.045
Mof_C 	C 	0.6932	0.4544	0.1842	0.007
Mof_H 	H 	0.6084	0.4642	0.1968	0.047
Mof_O 	O 	0.8086	0.1858	0.9793	-0.268
Mof_C 	C 	0.3551	0.0146	0.7216	0.019
Mof_H 	H 	0.4415	0.0368	0.7403	0.037
Mof_C 	C 	0.8019	0.4625	0.23	0.021
Mof_H 	H 	0.8049	0.4788	0.281	0.042
Mof_C 	C 	0.3289	0.2856	0.9559	0.292
Mof_C 	C 	0.826	0.2834	0.7032	0.336
Mof_C 	C 	0.5123	0.9265	0.8748	0.102
Mof_C 	C 	0.2507	0.0736	0.7436	-0.003
Mof_H 	H 	0.251	0.1431	0.7797	0.055
Mof_C 	C 	0.8567	0.1632	0.6943	-0.041
Mof_C 	C 	0.9856	0.1413	0.7043	-0.066
Mof_H 	H 	0.0521	0.2005	0.7161	0.076
Mof_C 	C 	0.758	0.0737	0.6775	-0.005
Mof_H 	H 	0.6718	0.0875	0.6696	0.061
Mof_C 	C 	0.6524	0.4152	0.9226	-0.035
Mof_C 	C 	0.6768	0.8051	0.8329	-0.043
Mof_C 	C 	0.8401	0.0957	0.9407	0.315
Mof_C 	C 	0.7138	0.6887	0.7957	0.351
Mof_C 	C 	0.7375	0.9992	0.9031	-0.045
Mof_C 	C 	0.5449	0.8226	0.8363	-0.082
Mof_H 	H 	0.4807	0.7641	0.8125	0.073
Mof_C 	C 	0.2703	0.8696	0.8511	0.011
Mof_H 	H 	0.2684	0.7954	0.8204	0.038
Mof_C 	C 	0.1677	0.9272	0.8749	0.028
Mof_H 	H 	0.0804	0.8992	0.8635	0.031
_end
