data_functionalizedCrystal
_audit_creation_method	'EQeq! by Chris Wilmer'
_symmetry_space_group_name_H-M	'P1'
_symmetry_Int_Tables_number	1
_symmetry_cell_setting	triclinic
loop_
_symmetry_equiv_pos_as_xyz
  x,y,z
_cell_length_a	7.283
_cell_length_b	7.283
_cell_length_c	8.224
_cell_angle_alpha	90
_cell_angle_beta	90
_cell_angle_gamma	120
loop_
_atom_site_label
_atom_site_type_symbol
_atom_site_fract_x
_atom_site_fract_y
_atom_site_fract_z
_atom_site_charge
Mof_O 	O 	0.89048	0.31001	0.8943	-0.29
Mof_O 	O 	0.68999	0.58047	0.8943	-0.31
Mof_O 	O 	0.41953	0.10952	0.8943	-0.322
Mof_O 	O 	0.10952	0.68999	0.3943	-0.408
Mof_O 	O 	0.31001	0.41953	0.3943	-0.441
Mof_O 	O 	0.58047	0.89048	0.3943	-0.35
Mof_O 	O 	0.31001	0.89048	0.1057	-0.34
Mof_O 	O 	0.58047	0.68999	0.1057	-0.387
Mof_O 	O 	0.10952	0.41953	0.1057	-0.407
Mof_O 	O 	0.68999	0.10952	0.6057	-0.401
Mof_O 	O 	0.41953	0.31001	0.6057	-0.434
Mof_O 	O 	0.89048	0.58047	0.6057	-0.362
Mof_Mg	Mg	0.66667	0.33333	0.75	1.477
Mof_Mg	Mg	0.33333	0.66667	0.25	1.476
Mof_C 	C 	-0	0.43983	-0	0.233
Mof_H 	H 	3.76171e-17	0.587	-0	-0.049
Mof_C 	C 	0.56017	0.56017	-0	0.294
Mof_H 	H 	0.413	0.413	-0	-0.061
Mof_C 	C 	0.43983	0	-0	0.199
Mof_H 	H 	0.587	0	-0	-0.05
Mof_C 	C 	6.09043e-18	0.56017	0.5	0.354
Mof_H 	H 	6.09043e-18	0.413	0.5	-0.06
Mof_C 	C 	0.43983	0.43983	0.5	0.424
Mof_H 	H 	0.587	0.587	0.5	-0.051
Mof_C 	C 	0.56017	0	0.5	0.325
Mof_H 	H 	0.413	0	0.5	-0.059
_end
