data_functionalizedCrystal
_audit_creation_method	'EQeq! by Chris Wilmer'
_symmetry_space_group_name_H-M	'P1'
_symmetry_Int_Tables_number	1
_symmetry_cell_setting	triclinic
loop_
_symmetry_equiv_pos_as_xyz
  x,y,z
_cell_length_a	38.805
_cell_length_b	38.805
_cell_length_c	38.805
_cell_angle_alpha	90
_cell_angle_beta	90
_cell_angle_gamma	90
loop_
_atom_site_label
_atom_site_type_symbol
_atom_site_fract_x
_atom_site_fract_y
_atom_site_fract_z
_atom_site_charge
Mof_Co	Co	0.95034	0.36626	0.97391	1.184
Mof_Co	Co	0.95995	0.22534	0.46859	1.099
Mof_Co	Co	0.96644	0.31449	0.704	1.109
Mof_Co	Co	0.54966	0.63374	0.47391	1.184
Mof_Co	Co	0.54005	0.77466	0.96859	1.099
Mof_Co	Co	0.53356	0.68551	0.204	1.109
Mof_Co	Co	0.04966	0.86626	0.52609	1.184
Mof_Co	Co	0.04005	0.72534	0.03141	1.099
Mof_Co	Co	0.03356	0.81449	0.796	1.109
Mof_Co	Co	0.45034	0.13374	0.02609	1.184
Mof_Co	Co	0.45995	0.27466	0.53141	1.099
Mof_Co	Co	0.46644	0.18551	0.296	1.109
Mof_Co	Co	0.97391	0.95034	0.36626	1.184
Mof_Co	Co	0.46859	0.95995	0.22534	1.099
Mof_Co	Co	0.704	0.96644	0.31449	1.109
Mof_Co	Co	0.47391	0.54966	0.63374	1.184
Mof_Co	Co	0.96859	0.54005	0.77466	1.099
Mof_Co	Co	0.204	0.53356	0.68551	1.109
Mof_Co	Co	0.52609	0.04966	0.86626	1.184
Mof_Co	Co	0.03141	0.04005	0.72534	1.099
Mof_Co	Co	0.796	0.03356	0.81449	1.109
Mof_Co	Co	0.02609	0.45034	0.13374	1.184
Mof_Co	Co	0.53141	0.45995	0.27466	1.099
Mof_Co	Co	0.296	0.46644	0.18551	1.109
Mof_Co	Co	0.36626	0.97391	0.95034	1.184
Mof_Co	Co	0.22534	0.46859	0.95995	1.099
Mof_Co	Co	0.31449	0.704	0.96644	1.109
Mof_Co	Co	0.63374	0.47391	0.54966	1.184
Mof_Co	Co	0.77466	0.96859	0.54005	1.099
Mof_Co	Co	0.68551	0.204	0.53356	1.109
Mof_Co	Co	0.86626	0.52609	0.04966	1.184
Mof_Co	Co	0.72534	0.03141	0.04005	1.099
Mof_Co	Co	0.81449	0.796	0.03356	1.109
Mof_Co	Co	0.13374	0.02609	0.45034	1.184
Mof_Co	Co	0.27466	0.53141	0.45995	1.099
Mof_Co	Co	0.18551	0.296	0.46644	1.109
Mof_Co	Co	0.04966	0.63374	0.02609	1.184
Mof_Co	Co	0.04005	0.77466	0.53141	1.099
Mof_Co	Co	0.03356	0.68551	0.296	1.109
Mof_Co	Co	0.45034	0.36626	0.52609	1.184
Mof_Co	Co	0.45995	0.22534	0.03141	1.099
Mof_Co	Co	0.46644	0.31449	0.796	1.109
Mof_Co	Co	0.95034	0.13374	0.47391	1.184
Mof_Co	Co	0.95995	0.27466	0.96859	1.099
Mof_Co	Co	0.96644	0.18551	0.204	1.109
Mof_Co	Co	0.54966	0.86626	0.97391	1.184
Mof_Co	Co	0.54005	0.72534	0.46859	1.099
Mof_Co	Co	0.53356	0.81449	0.704	1.109
Mof_Co	Co	0.02609	0.04966	0.63374	1.183
Mof_Co	Co	0.53141	0.04005	0.77466	1.098
Mof_Co	Co	0.296	0.03356	0.68551	1.108
Mof_Co	Co	0.52609	0.45034	0.36626	1.183
Mof_Co	Co	0.03141	0.45995	0.22534	1.098
Mof_Co	Co	0.796	0.46644	0.31449	1.108
Mof_Co	Co	0.47391	0.95034	0.13374	1.183
Mof_Co	Co	0.96859	0.95995	0.27466	1.098
Mof_Co	Co	0.204	0.96644	0.18551	1.108
Mof_Co	Co	0.97391	0.54966	0.86626	1.183
Mof_Co	Co	0.46859	0.54005	0.72534	1.098
Mof_Co	Co	0.704	0.53356	0.81449	1.108
Mof_Co	Co	0.63374	0.02609	0.04966	1.183
Mof_Co	Co	0.77466	0.53141	0.04005	1.098
Mof_Co	Co	0.68551	0.296	0.03356	1.108
Mof_Co	Co	0.36626	0.52609	0.45034	1.183
Mof_Co	Co	0.22534	0.03141	0.45995	1.098
Mof_Co	Co	0.31449	0.796	0.46644	1.108
Mof_Co	Co	0.13374	0.47391	0.95034	1.183
Mof_Co	Co	0.27466	0.96859	0.95995	1.098
Mof_Co	Co	0.18551	0.204	0.96644	1.108
Mof_Co	Co	0.86626	0.97391	0.54966	1.183
Mof_Co	Co	0.72534	0.46859	0.54005	1.098
Mof_Co	Co	0.81449	0.704	0.53356	1.108
Mof_H 	H 	0.984	0.1356	0.5751	0.041
Mof_H 	H 	0.9618	0.2335	0.5808	0.052
Mof_H 	H 	0.9966	0.1884	0.6646	0.063
Mof_H 	H 	0.9372	0.3509	0.834	0.06
Mof_H 	H 	0.948	0.4406	0.8844	0.039
Mof_H 	H 	0.9598	0.4365	0.7818	0.044
Mof_H 	H 	0.8933	0.407	0.7644	0.069
Mof_H 	H 	0.8549	0.3817	0.7199	0.072
Mof_H 	H 	0.8672	0.2849	0.6293	0.059
Mof_H 	H 	0.9095	0.2437	0.6061	0.071
Mof_H 	H 	0.8071	0.385	0.6138	0.095
Mof_H 	H 	0.76	0.3608	0.6426	0.007
Mof_H 	H 	0.769	0.3199	0.686	0.116
Mof_H 	H 	0.0437	0.23	0.6394	0.067
Mof_H 	H 	0.0862	0.2622	0.6751	0.064
Mof_H 	H 	0.0694	0.3483	0.7799	0.066
Mof_H 	H 	0.0185	0.3749	0.8076	0.065
Mof_H 	H 	0.1546	0.2772	0.768	0.119
Mof_H 	H 	0.1861	0.3204	0.7399	0.01
Mof_H 	H 	0.1581	0.359	0.7031	0.115
Mof_H 	H 	0.516	0.8644	0.0751	0.041
Mof_H 	H 	0.5382	0.7665	0.0808	0.052
Mof_H 	H 	0.5034	0.8116	0.1646	0.063
Mof_H 	H 	0.5628	0.6491	0.334	0.06
Mof_H 	H 	0.552	0.5594	0.3844	0.039
Mof_H 	H 	0.5402	0.5635	0.2818	0.044
Mof_H 	H 	0.6067	0.593	0.2644	0.069
Mof_H 	H 	0.6451	0.6183	0.2199	0.072
Mof_H 	H 	0.6328	0.7151	0.1293	0.059
Mof_H 	H 	0.5905	0.7563	0.1061	0.071
Mof_H 	H 	0.6929	0.615	0.1138	0.095
Mof_H 	H 	0.74	0.6392	0.1426	0.007
Mof_H 	H 	0.731	0.6801	0.186	0.116
Mof_H 	H 	0.4563	0.77	0.1394	0.067
Mof_H 	H 	0.4138	0.7378	0.1751	0.064
Mof_H 	H 	0.4306	0.6517	0.2799	0.066
Mof_H 	H 	0.4815	0.6251	0.3076	0.065
Mof_H 	H 	0.3454	0.7228	0.268	0.119
Mof_H 	H 	0.3139	0.6796	0.2399	0.01
Mof_H 	H 	0.3419	0.641	0.2031	0.115
Mof_H 	H 	0.016	0.6356	0.9249	0.041
Mof_H 	H 	0.0382	0.7335	0.9192	0.052
Mof_H 	H 	0.0034	0.6884	0.8354	0.063
Mof_H 	H 	0.0628	0.8509	0.666	0.06
Mof_H 	H 	0.052	0.9406	0.6156	0.039
Mof_H 	H 	0.0402	0.9365	0.7182	0.044
Mof_H 	H 	0.1067	0.907	0.7356	0.069
Mof_H 	H 	0.1451	0.8817	0.7801	0.072
Mof_H 	H 	0.1328	0.7849	0.8707	0.059
Mof_H 	H 	0.0905	0.7437	0.8939	0.071
Mof_H 	H 	0.1929	0.885	0.8862	0.095
Mof_H 	H 	0.24	0.8608	0.8574	0.007
Mof_H 	H 	0.231	0.8199	0.814	0.116
Mof_H 	H 	0.9563	0.73	0.8606	0.067
Mof_H 	H 	0.9138	0.7622	0.8249	0.064
Mof_H 	H 	0.9306	0.8483	0.7201	0.066
Mof_H 	H 	0.9815	0.8749	0.6924	0.065
Mof_H 	H 	0.8454	0.7772	0.732	0.119
Mof_H 	H 	0.8139	0.8204	0.7601	0.01
Mof_H 	H 	0.8419	0.859	0.7969	0.115
Mof_H 	H 	0.484	0.3644	0.4249	0.041
Mof_H 	H 	0.4618	0.2665	0.4192	0.052
Mof_H 	H 	0.4966	0.3116	0.3354	0.063
Mof_H 	H 	0.4372	0.1491	0.166	0.06
Mof_H 	H 	0.448	0.0594	0.1156	0.039
Mof_H 	H 	0.4598	0.0635	0.2182	0.044
Mof_H 	H 	0.3933	0.093	0.2356	0.069
Mof_H 	H 	0.3549	0.1183	0.2801	0.072
Mof_H 	H 	0.3672	0.2151	0.3707	0.059
Mof_H 	H 	0.4095	0.2563	0.3939	0.071
Mof_H 	H 	0.3071	0.115	0.3862	0.095
Mof_H 	H 	0.26	0.1392	0.3574	0.007
Mof_H 	H 	0.269	0.1801	0.314	0.116
Mof_H 	H 	0.5437	0.27	0.3606	0.067
Mof_H 	H 	0.5862	0.2378	0.3249	0.064
Mof_H 	H 	0.5694	0.1517	0.2201	0.066
Mof_H 	H 	0.5185	0.1251	0.1924	0.065
Mof_H 	H 	0.6546	0.2228	0.232	0.119
Mof_H 	H 	0.6861	0.1796	0.2601	0.01
Mof_H 	H 	0.6581	0.141	0.2969	0.115
Mof_H 	H 	0.5751	0.984	0.1356	0.041
Mof_H 	H 	0.5808	0.9618	0.2335	0.052
Mof_H 	H 	0.6646	0.9966	0.1884	0.063
Mof_H 	H 	0.834	0.9372	0.3509	0.06
Mof_H 	H 	0.8844	0.948	0.4406	0.039
Mof_H 	H 	0.7818	0.9598	0.4365	0.044
Mof_H 	H 	0.7644	0.8933	0.407	0.069
Mof_H 	H 	0.7199	0.8549	0.3817	0.072
Mof_H 	H 	0.6293	0.8672	0.2849	0.059
Mof_H 	H 	0.6061	0.9095	0.2437	0.071
Mof_H 	H 	0.6138	0.8071	0.385	0.095
Mof_H 	H 	0.6426	0.76	0.3608	0.007
Mof_H 	H 	0.686	0.769	0.3199	0.116
Mof_H 	H 	0.6394	0.0437	0.23	0.067
Mof_H 	H 	0.6751	0.0862	0.2622	0.064
Mof_H 	H 	0.7799	0.0694	0.3483	0.066
Mof_H 	H 	0.8076	0.0185	0.3749	0.065
Mof_H 	H 	0.768	0.1546	0.2772	0.119
Mof_H 	H 	0.7399	0.1861	0.3204	0.01
Mof_H 	H 	0.7031	0.1581	0.359	0.115
Mof_H 	H 	0.0751	0.516	0.8644	0.041
Mof_H 	H 	0.0808	0.5382	0.7665	0.052
Mof_H 	H 	0.1646	0.5034	0.8116	0.063
Mof_H 	H 	0.334	0.5628	0.6491	0.06
Mof_H 	H 	0.3844	0.552	0.5594	0.039
Mof_H 	H 	0.2818	0.5402	0.5635	0.044
Mof_H 	H 	0.2644	0.6067	0.593	0.069
Mof_H 	H 	0.2199	0.6451	0.6183	0.072
Mof_H 	H 	0.1293	0.6328	0.7151	0.059
Mof_H 	H 	0.1061	0.5905	0.7563	0.071
Mof_H 	H 	0.1138	0.6929	0.615	0.095
Mof_H 	H 	0.1426	0.74	0.6392	0.007
Mof_H 	H 	0.186	0.731	0.6801	0.116
Mof_H 	H 	0.1394	0.4563	0.77	0.067
Mof_H 	H 	0.1751	0.4138	0.7378	0.064
Mof_H 	H 	0.2799	0.4306	0.6517	0.066
Mof_H 	H 	0.3076	0.4815	0.6251	0.065
Mof_H 	H 	0.268	0.3454	0.7228	0.119
Mof_H 	H 	0.2399	0.3139	0.6796	0.01
Mof_H 	H 	0.2031	0.3419	0.641	0.115
Mof_H 	H 	0.9249	0.016	0.6356	0.041
Mof_H 	H 	0.9192	0.0382	0.7335	0.052
Mof_H 	H 	0.8354	0.0034	0.6884	0.063
Mof_H 	H 	0.666	0.0628	0.8509	0.06
Mof_H 	H 	0.6156	0.052	0.9406	0.039
Mof_H 	H 	0.7182	0.0402	0.9365	0.044
Mof_H 	H 	0.7356	0.1067	0.907	0.069
Mof_H 	H 	0.7801	0.1451	0.8817	0.072
Mof_H 	H 	0.8707	0.1328	0.7849	0.059
Mof_H 	H 	0.8939	0.0905	0.7437	0.071
Mof_H 	H 	0.8862	0.1929	0.885	0.095
Mof_H 	H 	0.8574	0.24	0.8608	0.007
Mof_H 	H 	0.814	0.231	0.8199	0.116
Mof_H 	H 	0.8606	0.9563	0.73	0.067
Mof_H 	H 	0.8249	0.9138	0.7622	0.064
Mof_H 	H 	0.7201	0.9306	0.8483	0.066
Mof_H 	H 	0.6924	0.9815	0.8749	0.065
Mof_H 	H 	0.732	0.8454	0.7772	0.119
Mof_H 	H 	0.7601	0.8139	0.8204	0.01
Mof_H 	H 	0.7969	0.8419	0.859	0.115
Mof_H 	H 	0.4249	0.484	0.3644	0.041
Mof_H 	H 	0.4192	0.4618	0.2665	0.052
Mof_H 	H 	0.3354	0.4966	0.3116	0.063
Mof_H 	H 	0.166	0.4372	0.1491	0.06
Mof_H 	H 	0.1156	0.448	0.0594	0.039
Mof_H 	H 	0.2182	0.4598	0.0635	0.044
Mof_H 	H 	0.2356	0.3933	0.093	0.069
Mof_H 	H 	0.2801	0.3549	0.1183	0.072
Mof_H 	H 	0.3707	0.3672	0.2151	0.059
Mof_H 	H 	0.3939	0.4095	0.2563	0.071
Mof_H 	H 	0.3862	0.3071	0.115	0.095
Mof_H 	H 	0.3574	0.26	0.1392	0.007
Mof_H 	H 	0.314	0.269	0.1801	0.116
Mof_H 	H 	0.3606	0.5437	0.27	0.067
Mof_H 	H 	0.3249	0.5862	0.2378	0.064
Mof_H 	H 	0.2201	0.5694	0.1517	0.066
Mof_H 	H 	0.1924	0.5185	0.1251	0.065
Mof_H 	H 	0.232	0.6546	0.2228	0.119
Mof_H 	H 	0.2601	0.6861	0.1796	0.01
Mof_H 	H 	0.2969	0.6581	0.141	0.115
Mof_H 	H 	0.1356	0.5751	0.984	0.041
Mof_H 	H 	0.2335	0.5808	0.9618	0.052
Mof_H 	H 	0.1884	0.6646	0.9966	0.063
Mof_H 	H 	0.3509	0.834	0.9372	0.06
Mof_H 	H 	0.4406	0.8844	0.948	0.039
Mof_H 	H 	0.4365	0.7818	0.9598	0.044
Mof_H 	H 	0.407	0.7644	0.8933	0.069
Mof_H 	H 	0.3817	0.7199	0.8549	0.072
Mof_H 	H 	0.2849	0.6293	0.8672	0.059
Mof_H 	H 	0.2437	0.6061	0.9095	0.071
Mof_H 	H 	0.385	0.6138	0.8071	0.095
Mof_H 	H 	0.3608	0.6426	0.76	0.007
Mof_H 	H 	0.3199	0.686	0.769	0.116
Mof_H 	H 	0.23	0.6394	0.0437	0.067
Mof_H 	H 	0.2622	0.6751	0.0862	0.064
Mof_H 	H 	0.3483	0.7799	0.0694	0.066
Mof_H 	H 	0.3749	0.8076	0.0185	0.065
Mof_H 	H 	0.2772	0.768	0.1546	0.119
Mof_H 	H 	0.3204	0.7399	0.1861	0.01
Mof_H 	H 	0.359	0.7031	0.1581	0.115
Mof_H 	H 	0.8644	0.0751	0.516	0.041
Mof_H 	H 	0.7665	0.0808	0.5382	0.052
Mof_H 	H 	0.8116	0.1646	0.5034	0.063
Mof_H 	H 	0.6491	0.334	0.5628	0.06
Mof_H 	H 	0.5594	0.3844	0.552	0.039
Mof_H 	H 	0.5635	0.2818	0.5402	0.044
Mof_H 	H 	0.593	0.2644	0.6067	0.069
Mof_H 	H 	0.6183	0.2199	0.6451	0.072
Mof_H 	H 	0.7151	0.1293	0.6328	0.059
Mof_H 	H 	0.7563	0.1061	0.5905	0.071
Mof_H 	H 	0.615	0.1138	0.6929	0.095
Mof_H 	H 	0.6392	0.1426	0.74	0.007
Mof_H 	H 	0.6801	0.186	0.731	0.116
Mof_H 	H 	0.77	0.1394	0.4563	0.067
Mof_H 	H 	0.7378	0.1751	0.4138	0.064
Mof_H 	H 	0.6517	0.2799	0.4306	0.066
Mof_H 	H 	0.6251	0.3076	0.4815	0.065
Mof_H 	H 	0.7228	0.268	0.3454	0.119
Mof_H 	H 	0.6796	0.2399	0.3139	0.01
Mof_H 	H 	0.641	0.2031	0.3419	0.115
Mof_H 	H 	0.6356	0.9249	0.016	0.041
Mof_H 	H 	0.7335	0.9192	0.0382	0.052
Mof_H 	H 	0.6884	0.8354	0.0034	0.063
Mof_H 	H 	0.8509	0.666	0.0628	0.06
Mof_H 	H 	0.9406	0.6156	0.052	0.039
Mof_H 	H 	0.9365	0.7182	0.0402	0.044
Mof_H 	H 	0.907	0.7356	0.1067	0.069
Mof_H 	H 	0.8817	0.7801	0.1451	0.072
Mof_H 	H 	0.7849	0.8707	0.1328	0.059
Mof_H 	H 	0.7437	0.8939	0.0905	0.071
Mof_H 	H 	0.885	0.8862	0.1929	0.095
Mof_H 	H 	0.8608	0.8574	0.24	0.007
Mof_H 	H 	0.8199	0.814	0.231	0.116
Mof_H 	H 	0.73	0.8606	0.9563	0.067
Mof_H 	H 	0.7622	0.8249	0.9138	0.064
Mof_H 	H 	0.8483	0.7201	0.9306	0.066
Mof_H 	H 	0.8749	0.6924	0.9815	0.065
Mof_H 	H 	0.7772	0.732	0.8454	0.119
Mof_H 	H 	0.8204	0.7601	0.8139	0.01
Mof_H 	H 	0.859	0.7969	0.8419	0.115
Mof_H 	H 	0.3644	0.4249	0.484	0.041
Mof_H 	H 	0.2665	0.4192	0.4618	0.052
Mof_H 	H 	0.3116	0.3354	0.4966	0.063
Mof_H 	H 	0.1491	0.166	0.4372	0.06
Mof_H 	H 	0.0594	0.1156	0.448	0.039
Mof_H 	H 	0.0635	0.2182	0.4598	0.044
Mof_H 	H 	0.093	0.2356	0.3933	0.069
Mof_H 	H 	0.1183	0.2801	0.3549	0.072
Mof_H 	H 	0.2151	0.3707	0.3672	0.059
Mof_H 	H 	0.2563	0.3939	0.4095	0.071
Mof_H 	H 	0.115	0.3862	0.3071	0.095
Mof_H 	H 	0.1392	0.3574	0.26	0.007
Mof_H 	H 	0.1801	0.314	0.269	0.116
Mof_H 	H 	0.27	0.3606	0.5437	0.067
Mof_H 	H 	0.2378	0.3249	0.5862	0.064
Mof_H 	H 	0.1517	0.2201	0.5694	0.066
Mof_H 	H 	0.1251	0.1924	0.5185	0.065
Mof_H 	H 	0.2228	0.232	0.6546	0.119
Mof_H 	H 	0.1796	0.2601	0.6861	0.01
Mof_H 	H 	0.141	0.2969	0.6581	0.115
Mof_H 	H 	0.016	0.8644	0.4249	0.041
Mof_H 	H 	0.0382	0.7665	0.4192	0.052
Mof_H 	H 	0.0034	0.8116	0.3354	0.063
Mof_H 	H 	0.0628	0.6491	0.166	0.06
Mof_H 	H 	0.052	0.5594	0.1156	0.039
Mof_H 	H 	0.0402	0.5635	0.2182	0.044
Mof_H 	H 	0.1067	0.593	0.2356	0.069
Mof_H 	H 	0.1451	0.6183	0.2801	0.072
Mof_H 	H 	0.1328	0.7151	0.3707	0.059
Mof_H 	H 	0.0905	0.7563	0.3939	0.071
Mof_H 	H 	0.1929	0.615	0.3862	0.095
Mof_H 	H 	0.24	0.6392	0.3574	0.007
Mof_H 	H 	0.231	0.6801	0.314	0.116
Mof_H 	H 	0.9563	0.77	0.3606	0.067
Mof_H 	H 	0.9138	0.7378	0.3249	0.064
Mof_H 	H 	0.9306	0.6517	0.2201	0.066
Mof_H 	H 	0.9815	0.6251	0.1924	0.065
Mof_H 	H 	0.8454	0.7228	0.232	0.119
Mof_H 	H 	0.8139	0.6796	0.2601	0.01
Mof_H 	H 	0.8419	0.641	0.2969	0.115
Mof_H 	H 	0.484	0.1356	0.9249	0.041
Mof_H 	H 	0.4618	0.2335	0.9192	0.052
Mof_H 	H 	0.4966	0.1884	0.8354	0.063
Mof_H 	H 	0.4372	0.3509	0.666	0.06
Mof_H 	H 	0.448	0.4406	0.6156	0.039
Mof_H 	H 	0.4598	0.4365	0.7182	0.044
Mof_H 	H 	0.3933	0.407	0.7356	0.069
Mof_H 	H 	0.3549	0.3817	0.7801	0.072
Mof_H 	H 	0.3672	0.2849	0.8707	0.059
Mof_H 	H 	0.4095	0.2437	0.8939	0.071
Mof_H 	H 	0.3071	0.385	0.8862	0.095
Mof_H 	H 	0.26	0.3608	0.8574	0.007
Mof_H 	H 	0.269	0.3199	0.814	0.116
Mof_H 	H 	0.5437	0.23	0.8606	0.067
Mof_H 	H 	0.5862	0.2622	0.8249	0.064
Mof_H 	H 	0.5694	0.3483	0.7201	0.066
Mof_H 	H 	0.5185	0.3749	0.6924	0.065
Mof_H 	H 	0.6546	0.2772	0.732	0.119
Mof_H 	H 	0.6861	0.3204	0.7601	0.01
Mof_H 	H 	0.6581	0.359	0.7969	0.115
Mof_H 	H 	0.984	0.3644	0.0751	0.041
Mof_H 	H 	0.9618	0.2665	0.0808	0.052
Mof_H 	H 	0.9966	0.3116	0.1646	0.063
Mof_H 	H 	0.9372	0.1491	0.334	0.06
Mof_H 	H 	0.948	0.0594	0.3844	0.039
Mof_H 	H 	0.9598	0.0635	0.2818	0.044
Mof_H 	H 	0.8933	0.093	0.2644	0.069
Mof_H 	H 	0.8549	0.1183	0.2199	0.072
Mof_H 	H 	0.8672	0.2151	0.1293	0.059
Mof_H 	H 	0.9095	0.2563	0.1061	0.071
Mof_H 	H 	0.8071	0.115	0.1138	0.095
Mof_H 	H 	0.76	0.1392	0.1426	0.007
Mof_H 	H 	0.769	0.1801	0.186	0.116
Mof_H 	H 	0.0437	0.27	0.1394	0.067
Mof_H 	H 	0.0862	0.2378	0.1751	0.064
Mof_H 	H 	0.0694	0.1517	0.2799	0.066
Mof_H 	H 	0.0185	0.1251	0.3076	0.065
Mof_H 	H 	0.1546	0.2228	0.268	0.119
Mof_H 	H 	0.1861	0.1796	0.2399	0.01
Mof_H 	H 	0.1581	0.141	0.2031	0.115
Mof_H 	H 	0.516	0.6356	0.5751	0.041
Mof_H 	H 	0.5382	0.7335	0.5808	0.052
Mof_H 	H 	0.5034	0.6884	0.6646	0.063
Mof_H 	H 	0.5628	0.8509	0.834	0.06
Mof_H 	H 	0.552	0.9406	0.8844	0.039
Mof_H 	H 	0.5402	0.9365	0.7818	0.044
Mof_H 	H 	0.6067	0.907	0.7644	0.069
Mof_H 	H 	0.6451	0.8817	0.7199	0.072
Mof_H 	H 	0.6328	0.7849	0.6293	0.059
Mof_H 	H 	0.5905	0.7437	0.6061	0.071
Mof_H 	H 	0.6929	0.885	0.6138	0.095
Mof_H 	H 	0.74	0.8608	0.6426	0.007
Mof_H 	H 	0.731	0.8199	0.686	0.116
Mof_H 	H 	0.4563	0.73	0.6394	0.067
Mof_H 	H 	0.4138	0.7622	0.6751	0.064
Mof_H 	H 	0.4306	0.8483	0.7799	0.066
Mof_H 	H 	0.4815	0.8749	0.8076	0.065
Mof_H 	H 	0.3454	0.7772	0.768	0.119
Mof_H 	H 	0.3139	0.8204	0.7399	0.01
Mof_H 	H 	0.3419	0.859	0.7031	0.115
Mof_H 	H 	0.4249	0.016	0.8644	0.041
Mof_H 	H 	0.4192	0.0382	0.7665	0.052
Mof_H 	H 	0.3354	0.0034	0.8116	0.063
Mof_H 	H 	0.166	0.0628	0.6491	0.06
Mof_H 	H 	0.1156	0.052	0.5594	0.039
Mof_H 	H 	0.2182	0.0402	0.5635	0.044
Mof_H 	H 	0.2356	0.1067	0.593	0.069
Mof_H 	H 	0.2801	0.1451	0.6183	0.072
Mof_H 	H 	0.3707	0.1328	0.7151	0.059
Mof_H 	H 	0.3939	0.0905	0.7563	0.071
Mof_H 	H 	0.3862	0.1929	0.615	0.095
Mof_H 	H 	0.3574	0.24	0.6392	0.007
Mof_H 	H 	0.314	0.231	0.6801	0.116
Mof_H 	H 	0.3606	0.9563	0.77	0.067
Mof_H 	H 	0.3249	0.9138	0.7378	0.064
Mof_H 	H 	0.2201	0.9306	0.6517	0.066
Mof_H 	H 	0.1924	0.9815	0.6251	0.065
Mof_H 	H 	0.232	0.8454	0.7228	0.119
Mof_H 	H 	0.2601	0.8139	0.6796	0.01
Mof_H 	H 	0.2969	0.8419	0.641	0.115
Mof_H 	H 	0.9249	0.484	0.1356	0.041
Mof_H 	H 	0.9192	0.4618	0.2335	0.052
Mof_H 	H 	0.8354	0.4966	0.1884	0.063
Mof_H 	H 	0.666	0.4372	0.3509	0.06
Mof_H 	H 	0.6156	0.448	0.4406	0.039
Mof_H 	H 	0.7182	0.4598	0.4365	0.044
Mof_H 	H 	0.7356	0.3933	0.407	0.069
Mof_H 	H 	0.7801	0.3549	0.3817	0.072
Mof_H 	H 	0.8707	0.3672	0.2849	0.059
Mof_H 	H 	0.8939	0.4095	0.2437	0.071
Mof_H 	H 	0.8862	0.3071	0.385	0.095
Mof_H 	H 	0.8574	0.26	0.3608	0.007
Mof_H 	H 	0.814	0.269	0.3199	0.116
Mof_H 	H 	0.8606	0.5437	0.23	0.067
Mof_H 	H 	0.8249	0.5862	0.2622	0.064
Mof_H 	H 	0.7201	0.5694	0.3483	0.066
Mof_H 	H 	0.6924	0.5185	0.3749	0.065
Mof_H 	H 	0.732	0.6546	0.2772	0.119
Mof_H 	H 	0.7601	0.6861	0.3204	0.01
Mof_H 	H 	0.7969	0.6581	0.359	0.115
Mof_H 	H 	0.0751	0.984	0.3644	0.041
Mof_H 	H 	0.0808	0.9618	0.2665	0.052
Mof_H 	H 	0.1646	0.9966	0.3116	0.063
Mof_H 	H 	0.334	0.9372	0.1491	0.06
Mof_H 	H 	0.3844	0.948	0.0594	0.039
Mof_H 	H 	0.2818	0.9598	0.0635	0.044
Mof_H 	H 	0.2644	0.8933	0.093	0.069
Mof_H 	H 	0.2199	0.8549	0.1183	0.072
Mof_H 	H 	0.1293	0.8672	0.2151	0.059
Mof_H 	H 	0.1061	0.9095	0.2563	0.071
Mof_H 	H 	0.1138	0.8071	0.115	0.095
Mof_H 	H 	0.1426	0.76	0.1392	0.007
Mof_H 	H 	0.186	0.769	0.1801	0.116
Mof_H 	H 	0.1394	0.0437	0.27	0.067
Mof_H 	H 	0.1751	0.0862	0.2378	0.064
Mof_H 	H 	0.2799	0.0694	0.1517	0.066
Mof_H 	H 	0.3076	0.0185	0.1251	0.065
Mof_H 	H 	0.268	0.1546	0.2228	0.119
Mof_H 	H 	0.2399	0.1861	0.1796	0.01
Mof_H 	H 	0.2031	0.1581	0.141	0.115
Mof_H 	H 	0.5751	0.516	0.6356	0.041
Mof_H 	H 	0.5808	0.5382	0.7335	0.052
Mof_H 	H 	0.6646	0.5034	0.6884	0.063
Mof_H 	H 	0.834	0.5628	0.8509	0.06
Mof_H 	H 	0.8844	0.552	0.9406	0.039
Mof_H 	H 	0.7818	0.5402	0.9365	0.044
Mof_H 	H 	0.7644	0.6067	0.907	0.069
Mof_H 	H 	0.7199	0.6451	0.8817	0.072
Mof_H 	H 	0.6293	0.6328	0.7849	0.059
Mof_H 	H 	0.6061	0.5905	0.7437	0.071
Mof_H 	H 	0.6138	0.6929	0.885	0.095
Mof_H 	H 	0.6426	0.74	0.8608	0.007
Mof_H 	H 	0.686	0.731	0.8199	0.116
Mof_H 	H 	0.6394	0.4563	0.73	0.067
Mof_H 	H 	0.6751	0.4138	0.7622	0.064
Mof_H 	H 	0.7799	0.4306	0.8483	0.066
Mof_H 	H 	0.8076	0.4815	0.8749	0.065
Mof_H 	H 	0.768	0.3454	0.7772	0.119
Mof_H 	H 	0.7399	0.3139	0.8204	0.01
Mof_H 	H 	0.7031	0.3419	0.859	0.115
Mof_H 	H 	0.8644	0.4249	0.016	0.041
Mof_H 	H 	0.7665	0.4192	0.0382	0.052
Mof_H 	H 	0.8116	0.3354	0.0034	0.063
Mof_H 	H 	0.6491	0.166	0.0628	0.06
Mof_H 	H 	0.5594	0.1156	0.052	0.039
Mof_H 	H 	0.5635	0.2182	0.0402	0.044
Mof_H 	H 	0.593	0.2356	0.1067	0.069
Mof_H 	H 	0.6183	0.2801	0.1451	0.072
Mof_H 	H 	0.7151	0.3707	0.1328	0.059
Mof_H 	H 	0.7563	0.3939	0.0905	0.071
Mof_H 	H 	0.615	0.3862	0.1929	0.095
Mof_H 	H 	0.6392	0.3574	0.24	0.007
Mof_H 	H 	0.6801	0.314	0.231	0.116
Mof_H 	H 	0.77	0.3606	0.9563	0.067
Mof_H 	H 	0.7378	0.3249	0.9138	0.064
Mof_H 	H 	0.6517	0.2201	0.9306	0.066
Mof_H 	H 	0.6251	0.1924	0.9815	0.065
Mof_H 	H 	0.7228	0.232	0.8454	0.119
Mof_H 	H 	0.6796	0.2601	0.8139	0.01
Mof_H 	H 	0.641	0.2969	0.8419	0.115
Mof_H 	H 	0.1356	0.9249	0.484	0.041
Mof_H 	H 	0.2335	0.9192	0.4618	0.052
Mof_H 	H 	0.1884	0.8354	0.4966	0.063
Mof_H 	H 	0.3509	0.666	0.4372	0.06
Mof_H 	H 	0.4406	0.6156	0.448	0.039
Mof_H 	H 	0.4365	0.7182	0.4598	0.044
Mof_H 	H 	0.407	0.7356	0.3933	0.069
Mof_H 	H 	0.3817	0.7801	0.3549	0.072
Mof_H 	H 	0.2849	0.8707	0.3672	0.059
Mof_H 	H 	0.2437	0.8939	0.4095	0.071
Mof_H 	H 	0.385	0.8862	0.3071	0.095
Mof_H 	H 	0.3608	0.8574	0.26	0.007
Mof_H 	H 	0.3199	0.814	0.269	0.116
Mof_H 	H 	0.23	0.8606	0.5437	0.067
Mof_H 	H 	0.2622	0.8249	0.5862	0.064
Mof_H 	H 	0.3483	0.7201	0.5694	0.066
Mof_H 	H 	0.3749	0.6924	0.5185	0.065
Mof_H 	H 	0.2772	0.732	0.6546	0.119
Mof_H 	H 	0.3204	0.7601	0.6861	0.01
Mof_H 	H 	0.359	0.7969	0.6581	0.115
Mof_H 	H 	0.3644	0.0751	0.984	0.041
Mof_H 	H 	0.2665	0.0808	0.9618	0.052
Mof_H 	H 	0.3116	0.1646	0.9966	0.063
Mof_H 	H 	0.1491	0.334	0.9372	0.06
Mof_H 	H 	0.0594	0.3844	0.948	0.039
Mof_H 	H 	0.0635	0.2818	0.9598	0.044
Mof_H 	H 	0.093	0.2644	0.8933	0.069
Mof_H 	H 	0.1183	0.2199	0.8549	0.072
Mof_H 	H 	0.2151	0.1293	0.8672	0.059
Mof_H 	H 	0.2563	0.1061	0.9095	0.071
Mof_H 	H 	0.115	0.1138	0.8071	0.095
Mof_H 	H 	0.1392	0.1426	0.76	0.007
Mof_H 	H 	0.1801	0.186	0.769	0.116
Mof_H 	H 	0.27	0.1394	0.0437	0.067
Mof_H 	H 	0.2378	0.1751	0.0862	0.064
Mof_H 	H 	0.1517	0.2799	0.0694	0.066
Mof_H 	H 	0.1251	0.3076	0.0185	0.065
Mof_H 	H 	0.2228	0.268	0.1546	0.119
Mof_H 	H 	0.1796	0.2399	0.1861	0.01
Mof_H 	H 	0.141	0.2031	0.1581	0.115
Mof_H 	H 	0.6356	0.5751	0.516	0.041
Mof_H 	H 	0.7335	0.5808	0.5382	0.052
Mof_H 	H 	0.6884	0.6646	0.5034	0.063
Mof_H 	H 	0.8509	0.834	0.5628	0.06
Mof_H 	H 	0.9406	0.8844	0.552	0.039
Mof_H 	H 	0.9365	0.7818	0.5402	0.044
Mof_H 	H 	0.907	0.7644	0.6067	0.069
Mof_H 	H 	0.8817	0.7199	0.6451	0.072
Mof_H 	H 	0.7849	0.6293	0.6328	0.059
Mof_H 	H 	0.7437	0.6061	0.5905	0.071
Mof_H 	H 	0.885	0.6138	0.6929	0.095
Mof_H 	H 	0.8608	0.6426	0.74	0.007
Mof_H 	H 	0.8199	0.686	0.731	0.116
Mof_H 	H 	0.73	0.6394	0.4563	0.067
Mof_H 	H 	0.7622	0.6751	0.4138	0.064
Mof_H 	H 	0.8483	0.7799	0.4306	0.066
Mof_H 	H 	0.8749	0.8076	0.4815	0.065
Mof_H 	H 	0.7772	0.768	0.3454	0.119
Mof_H 	H 	0.8204	0.7399	0.3139	0.01
Mof_H 	H 	0.859	0.7031	0.3419	0.115
Mof_C 	C 	0.9615	0.1829	0.5348	0.391
Mof_C 	C 	0.0063	0.1248	0.6407	0.364
Mof_C 	C 	0.991	0.1549	0.6248	-0.088
Mof_C 	C 	0.9814	0.1559	0.5884	0.036
Mof_C 	C 	0.9696	0.1834	0.5735	-0.094
Mof_C 	C 	0.9682	0.213	0.5926	-0.037
Mof_C 	C 	0.9751	0.2159	0.6267	0.044
Mof_C 	C 	0.9885	0.1868	0.6416	-0.039
Mof_C 	C 	0.9572	0.4818	0.8313	0.421
Mof_C 	C 	0.9375	0.3741	0.8988	0.339
Mof_C 	C 	0.9422	0.3749	0.834	-0.039
Mof_C 	C 	0.9415	0.393	0.8649	-0.079
Mof_C 	C 	0.9472	0.4278	0.8636	0.042
Mof_C 	C 	0.9518	0.4445	0.8327	-0.121
Mof_C 	C 	0.9546	0.4252	0.8028	-0.024
Mof_C 	C 	0.9501	0.3914	0.8029	0.037
Mof_C 	C 	0.9558	0.3692	0.7702	-0.118
Mof_C 	C 	0.9317	0.373	0.7446	0.104
Mof_C 	C 	0.8992	0.3896	0.7482	-0.086
Mof_C 	C 	0.8783	0.3757	0.724	-0.046
Mof_C 	C 	0.8977	0.3501	0.7056	0.073
Mof_C 	C 	0.8846	0.3294	0.6798	-0.033
Mof_C 	C 	0.9049	0.3064	0.6619	0.058
Mof_C 	C 	0.8906	0.2838	0.6363	-0.032
Mof_C 	C 	0.9132	0.2609	0.6232	-0.095
Mof_C 	C 	0.9442	0.269	0.6416	0.109
Mof_C 	C 	0.8494	0.3342	0.6657	-0.082
Mof_C 	C 	0.8441	0.3585	0.64	0.159
Mof_C 	C 	0.8107	0.3684	0.6314	-0.168
Mof_C 	C 	0.7828	0.354	0.6485	0.09
Mof_C 	C 	0.7881	0.3297	0.6743	-0.169
Mof_C 	C 	0.8215	0.3198	0.6829	0.166
Mof_C 	C 	0.9728	0.2486	0.6477	-0.119
Mof_C 	C 	0.0037	0.2608	0.6618	0.088
Mof_C 	C 	0.0383	0.248	0.6552	-0.073
Mof_C 	C 	0.0619	0.2651	0.6745	-0.048
Mof_C 	C 	0.0406	0.289	0.6941	0.082
Mof_C 	C 	0.0539	0.3109	0.7199	-0.034
Mof_C 	C 	0.034	0.332	0.7405	0.084
Mof_C 	C 	0.0464	0.348	0.7716	-0.054
Mof_C 	C 	0.0186	0.3625	0.7865	-0.077
Mof_C 	C 	0.9891	0.356	0.765	0.088
Mof_C 	C 	0.1433	0.2929	0.753	-0.178
Mof_C 	C 	0.1619	0.3185	0.7364	0.092
Mof_C 	C 	0.1453	0.3415	0.7145	-0.176
Mof_C 	C 	0.11	0.3388	0.7092	0.155
Mof_C 	C 	0.0913	0.3132	0.7259	-0.082
Mof_C 	C 	0.1079	0.2902	0.7478	0.164
Mof_C 	C 	0.5385	0.8171	0.0348	0.391
Mof_C 	C 	0.4937	0.8752	0.1407	0.364
Mof_C 	C 	0.509	0.8451	0.1248	-0.088
Mof_C 	C 	0.5186	0.8441	0.0884	0.036
Mof_C 	C 	0.5304	0.8166	0.0735	-0.094
Mof_C 	C 	0.5318	0.787	0.0926	-0.037
Mof_C 	C 	0.5249	0.7841	0.1267	0.044
Mof_C 	C 	0.5115	0.8132	0.1416	-0.039
Mof_C 	C 	0.5428	0.5182	0.3313	0.421
Mof_C 	C 	0.5625	0.6259	0.3988	0.339
Mof_C 	C 	0.5578	0.6251	0.334	-0.039
Mof_C 	C 	0.5585	0.607	0.3649	-0.079
Mof_C 	C 	0.5528	0.5722	0.3636	0.042
Mof_C 	C 	0.5482	0.5555	0.3327	-0.121
Mof_C 	C 	0.5454	0.5748	0.3028	-0.024
Mof_C 	C 	0.5499	0.6086	0.3029	0.037
Mof_C 	C 	0.5442	0.6308	0.2702	-0.118
Mof_C 	C 	0.5683	0.627	0.2446	0.104
Mof_C 	C 	0.6008	0.6104	0.2482	-0.086
Mof_C 	C 	0.6217	0.6243	0.224	-0.046
Mof_C 	C 	0.6023	0.6499	0.2056	0.073
Mof_C 	C 	0.6154	0.6706	0.1798	-0.033
Mof_C 	C 	0.5951	0.6936	0.1619	0.058
Mof_C 	C 	0.6094	0.7162	0.1363	-0.032
Mof_C 	C 	0.5868	0.7391	0.1232	-0.095
Mof_C 	C 	0.5558	0.731	0.1416	0.109
Mof_C 	C 	0.6506	0.6658	0.1657	-0.082
Mof_C 	C 	0.6559	0.6415	0.14	0.159
Mof_C 	C 	0.6893	0.6316	0.1314	-0.168
Mof_C 	C 	0.7172	0.646	0.1485	0.09
Mof_C 	C 	0.7119	0.6703	0.1743	-0.169
Mof_C 	C 	0.6785	0.6802	0.1829	0.166
Mof_C 	C 	0.5272	0.7514	0.1477	-0.119
Mof_C 	C 	0.4963	0.7392	0.1618	0.088
Mof_C 	C 	0.4617	0.752	0.1552	-0.073
Mof_C 	C 	0.4381	0.7349	0.1745	-0.048
Mof_C 	C 	0.4594	0.711	0.1941	0.082
Mof_C 	C 	0.4461	0.6891	0.2199	-0.034
Mof_C 	C 	0.466	0.668	0.2405	0.084
Mof_C 	C 	0.4536	0.652	0.2716	-0.054
Mof_C 	C 	0.4814	0.6375	0.2865	-0.077
Mof_C 	C 	0.5109	0.644	0.265	0.088
Mof_C 	C 	0.3567	0.7071	0.253	-0.178
Mof_C 	C 	0.3381	0.6815	0.2364	0.092
Mof_C 	C 	0.3547	0.6585	0.2145	-0.176
Mof_C 	C 	0.39	0.6612	0.2092	0.155
Mof_C 	C 	0.4087	0.6868	0.2259	-0.082
Mof_C 	C 	0.3921	0.7098	0.2478	0.164
Mof_C 	C 	0.0385	0.6829	0.9652	0.391
Mof_C 	C 	0.9937	0.6248	0.8593	0.364
Mof_C 	C 	0.009	0.6549	0.8752	-0.088
Mof_C 	C 	0.0186	0.6559	0.9116	0.036
Mof_C 	C 	0.0304	0.6834	0.9265	-0.094
Mof_C 	C 	0.0318	0.713	0.9074	-0.037
Mof_C 	C 	0.0249	0.7159	0.8733	0.044
Mof_C 	C 	0.0115	0.6868	0.8584	-0.039
Mof_C 	C 	0.0428	0.9818	0.6687	0.421
Mof_C 	C 	0.0625	0.8741	0.6012	0.339
Mof_C 	C 	0.0578	0.8749	0.666	-0.039
Mof_C 	C 	0.0585	0.893	0.6351	-0.079
Mof_C 	C 	0.0528	0.9278	0.6364	0.042
Mof_C 	C 	0.0482	0.9445	0.6673	-0.121
Mof_C 	C 	0.0454	0.9252	0.6972	-0.024
Mof_C 	C 	0.0499	0.8914	0.6971	0.037
Mof_C 	C 	0.0442	0.8692	0.7298	-0.118
Mof_C 	C 	0.0683	0.873	0.7554	0.104
Mof_C 	C 	0.1008	0.8896	0.7518	-0.086
Mof_C 	C 	0.1217	0.8757	0.776	-0.046
Mof_C 	C 	0.1023	0.8501	0.7944	0.073
Mof_C 	C 	0.1154	0.8294	0.8202	-0.033
Mof_C 	C 	0.0951	0.8064	0.8381	0.058
Mof_C 	C 	0.1094	0.7838	0.8637	-0.032
Mof_C 	C 	0.0868	0.7609	0.8768	-0.095
Mof_C 	C 	0.0558	0.769	0.8584	0.109
Mof_C 	C 	0.1506	0.8342	0.8343	-0.082
Mof_C 	C 	0.1559	0.8585	0.86	0.159
Mof_C 	C 	0.1893	0.8684	0.8686	-0.168
Mof_C 	C 	0.2172	0.854	0.8515	0.09
Mof_C 	C 	0.2119	0.8297	0.8257	-0.169
Mof_C 	C 	0.1785	0.8198	0.8171	0.166
Mof_C 	C 	0.0272	0.7486	0.8523	-0.119
Mof_C 	C 	0.9963	0.7608	0.8382	0.088
Mof_C 	C 	0.9617	0.748	0.8448	-0.073
Mof_C 	C 	0.9381	0.7651	0.8255	-0.048
Mof_C 	C 	0.9594	0.789	0.8059	0.082
Mof_C 	C 	0.9461	0.8109	0.7801	-0.034
Mof_C 	C 	0.966	0.832	0.7595	0.084
Mof_C 	C 	0.9536	0.848	0.7284	-0.054
Mof_C 	C 	0.9814	0.8625	0.7135	-0.077
Mof_C 	C 	0.0109	0.856	0.735	0.088
Mof_C 	C 	0.8567	0.7929	0.747	-0.178
Mof_C 	C 	0.8381	0.8185	0.7636	0.092
Mof_C 	C 	0.8547	0.8415	0.7855	-0.176
Mof_C 	C 	0.89	0.8388	0.7908	0.155
Mof_C 	C 	0.9087	0.8132	0.7741	-0.082
Mof_C 	C 	0.8921	0.7902	0.7522	0.164
Mof_C 	C 	0.4615	0.3171	0.4652	0.391
Mof_C 	C 	0.5063	0.3752	0.3593	0.364
Mof_C 	C 	0.491	0.3451	0.3752	-0.088
Mof_C 	C 	0.4814	0.3441	0.4116	0.036
Mof_C 	C 	0.4696	0.3166	0.4265	-0.094
Mof_C 	C 	0.4682	0.287	0.4074	-0.037
Mof_C 	C 	0.4751	0.2841	0.3733	0.044
Mof_C 	C 	0.4885	0.3132	0.3584	-0.039
Mof_C 	C 	0.4572	0.0182	0.1687	0.421
Mof_C 	C 	0.4375	0.1259	0.1012	0.339
Mof_C 	C 	0.4422	0.1251	0.166	-0.039
Mof_C 	C 	0.4415	0.107	0.1351	-0.079
Mof_C 	C 	0.4472	0.0722	0.1364	0.042
Mof_C 	C 	0.4518	0.0555	0.1673	-0.121
Mof_C 	C 	0.4546	0.0748	0.1972	-0.024
Mof_C 	C 	0.4501	0.1086	0.1971	0.037
Mof_C 	C 	0.4558	0.1308	0.2298	-0.118
Mof_C 	C 	0.4317	0.127	0.2554	0.104
Mof_C 	C 	0.3992	0.1104	0.2518	-0.086
Mof_C 	C 	0.3783	0.1243	0.276	-0.046
Mof_C 	C 	0.3977	0.1499	0.2944	0.073
Mof_C 	C 	0.3846	0.1706	0.3202	-0.033
Mof_C 	C 	0.4049	0.1936	0.3381	0.058
Mof_C 	C 	0.3906	0.2162	0.3637	-0.032
Mof_C 	C 	0.4132	0.2391	0.3768	-0.095
Mof_C 	C 	0.4442	0.231	0.3584	0.109
Mof_C 	C 	0.3494	0.1658	0.3343	-0.082
Mof_C 	C 	0.3441	0.1415	0.36	0.159
Mof_C 	C 	0.3107	0.1316	0.3686	-0.168
Mof_C 	C 	0.2828	0.146	0.3515	0.09
Mof_C 	C 	0.2881	0.1703	0.3257	-0.169
Mof_C 	C 	0.3215	0.1802	0.3171	0.166
Mof_C 	C 	0.4728	0.2514	0.3523	-0.119
Mof_C 	C 	0.5037	0.2392	0.3382	0.088
Mof_C 	C 	0.5383	0.252	0.3448	-0.073
Mof_C 	C 	0.5619	0.2349	0.3255	-0.048
Mof_C 	C 	0.5406	0.211	0.3059	0.082
Mof_C 	C 	0.5539	0.1891	0.2801	-0.034
Mof_C 	C 	0.534	0.168	0.2595	0.084
Mof_C 	C 	0.5464	0.152	0.2284	-0.054
Mof_C 	C 	0.5186	0.1375	0.2135	-0.077
Mof_C 	C 	0.4891	0.144	0.235	0.088
Mof_C 	C 	0.6433	0.2071	0.247	-0.178
Mof_C 	C 	0.6619	0.1815	0.2636	0.092
Mof_C 	C 	0.6453	0.1585	0.2855	-0.176
Mof_C 	C 	0.61	0.1612	0.2908	0.155
Mof_C 	C 	0.5913	0.1868	0.2741	-0.082
Mof_C 	C 	0.6079	0.2098	0.2522	0.164
Mof_C 	C 	0.5348	0.9615	0.1829	0.391
Mof_C 	C 	0.6407	0.0063	0.1248	0.364
Mof_C 	C 	0.6248	0.991	0.1549	-0.088
Mof_C 	C 	0.5884	0.9814	0.1559	0.036
Mof_C 	C 	0.5735	0.9696	0.1834	-0.094
Mof_C 	C 	0.5926	0.9682	0.213	-0.037
Mof_C 	C 	0.6267	0.9751	0.2159	0.044
Mof_C 	C 	0.6416	0.9885	0.1868	-0.039
Mof_C 	C 	0.8313	0.9572	0.4818	0.421
Mof_C 	C 	0.8988	0.9375	0.3741	0.339
Mof_C 	C 	0.834	0.9422	0.3749	-0.039
Mof_C 	C 	0.8649	0.9415	0.393	-0.079
Mof_C 	C 	0.8636	0.9472	0.4278	0.042
Mof_C 	C 	0.8327	0.9518	0.4445	-0.121
Mof_C 	C 	0.8028	0.9546	0.4252	-0.024
Mof_C 	C 	0.8029	0.9501	0.3914	0.037
Mof_C 	C 	0.7702	0.9558	0.3692	-0.118
Mof_C 	C 	0.7446	0.9317	0.373	0.104
Mof_C 	C 	0.7482	0.8992	0.3896	-0.086
Mof_C 	C 	0.724	0.8783	0.3757	-0.046
Mof_C 	C 	0.7056	0.8977	0.3501	0.073
Mof_C 	C 	0.6798	0.8846	0.3294	-0.033
Mof_C 	C 	0.6619	0.9049	0.3064	0.058
Mof_C 	C 	0.6363	0.8906	0.2838	-0.032
Mof_C 	C 	0.6232	0.9132	0.2609	-0.095
Mof_C 	C 	0.6416	0.9442	0.269	0.109
Mof_C 	C 	0.6657	0.8494	0.3342	-0.082
Mof_C 	C 	0.64	0.8441	0.3585	0.159
Mof_C 	C 	0.6314	0.8107	0.3684	-0.168
Mof_C 	C 	0.6485	0.7828	0.354	0.09
Mof_C 	C 	0.6743	0.7881	0.3297	-0.169
Mof_C 	C 	0.6829	0.8215	0.3198	0.166
Mof_C 	C 	0.6477	0.9728	0.2486	-0.119
Mof_C 	C 	0.6618	0.0037	0.2608	0.088
Mof_C 	C 	0.6552	0.0383	0.248	-0.073
Mof_C 	C 	0.6745	0.0619	0.2651	-0.048
Mof_C 	C 	0.6941	0.0406	0.289	0.082
Mof_C 	C 	0.7199	0.0539	0.3109	-0.034
Mof_C 	C 	0.7405	0.034	0.332	0.084
Mof_C 	C 	0.7716	0.0464	0.348	-0.054
Mof_C 	C 	0.7865	0.0186	0.3625	-0.077
Mof_C 	C 	0.765	0.9891	0.356	0.088
Mof_C 	C 	0.753	0.1433	0.2929	-0.178
Mof_C 	C 	0.7364	0.1619	0.3185	0.092
Mof_C 	C 	0.7145	0.1453	0.3415	-0.176
Mof_C 	C 	0.7092	0.11	0.3388	0.155
Mof_C 	C 	0.7259	0.0913	0.3132	-0.082
Mof_C 	C 	0.7478	0.1079	0.2902	0.164
Mof_C 	C 	0.0348	0.5385	0.8171	0.391
Mof_C 	C 	0.1407	0.4937	0.8752	0.364
Mof_C 	C 	0.1248	0.509	0.8451	-0.088
Mof_C 	C 	0.0884	0.5186	0.8441	0.036
Mof_C 	C 	0.0735	0.5304	0.8166	-0.094
Mof_C 	C 	0.0926	0.5318	0.787	-0.037
Mof_C 	C 	0.1267	0.5249	0.7841	0.044
Mof_C 	C 	0.1416	0.5115	0.8132	-0.039
Mof_C 	C 	0.3313	0.5428	0.5182	0.421
Mof_C 	C 	0.3988	0.5625	0.6259	0.339
Mof_C 	C 	0.334	0.5578	0.6251	-0.039
Mof_C 	C 	0.3649	0.5585	0.607	-0.079
Mof_C 	C 	0.3636	0.5528	0.5722	0.042
Mof_C 	C 	0.3327	0.5482	0.5555	-0.121
Mof_C 	C 	0.3028	0.5454	0.5748	-0.024
Mof_C 	C 	0.3029	0.5499	0.6086	0.037
Mof_C 	C 	0.2702	0.5442	0.6308	-0.118
Mof_C 	C 	0.2446	0.5683	0.627	0.104
Mof_C 	C 	0.2482	0.6008	0.6104	-0.086
Mof_C 	C 	0.224	0.6217	0.6243	-0.046
Mof_C 	C 	0.2056	0.6023	0.6499	0.073
Mof_C 	C 	0.1798	0.6154	0.6706	-0.033
Mof_C 	C 	0.1619	0.5951	0.6936	0.058
Mof_C 	C 	0.1363	0.6094	0.7162	-0.032
Mof_C 	C 	0.1232	0.5868	0.7391	-0.095
Mof_C 	C 	0.1416	0.5558	0.731	0.109
Mof_C 	C 	0.1657	0.6506	0.6658	-0.082
Mof_C 	C 	0.14	0.6559	0.6415	0.159
Mof_C 	C 	0.1314	0.6893	0.6316	-0.168
Mof_C 	C 	0.1485	0.7172	0.646	0.09
Mof_C 	C 	0.1743	0.7119	0.6703	-0.169
Mof_C 	C 	0.1829	0.6785	0.6802	0.166
Mof_C 	C 	0.1477	0.5272	0.7514	-0.119
Mof_C 	C 	0.1618	0.4963	0.7392	0.088
Mof_C 	C 	0.1552	0.4617	0.752	-0.073
Mof_C 	C 	0.1745	0.4381	0.7349	-0.048
Mof_C 	C 	0.1941	0.4594	0.711	0.082
Mof_C 	C 	0.2199	0.4461	0.6891	-0.034
Mof_C 	C 	0.2405	0.466	0.668	0.084
Mof_C 	C 	0.2716	0.4536	0.652	-0.054
Mof_C 	C 	0.2865	0.4814	0.6375	-0.077
Mof_C 	C 	0.265	0.5109	0.644	0.088
Mof_C 	C 	0.253	0.3567	0.7071	-0.178
Mof_C 	C 	0.2364	0.3381	0.6815	0.092
Mof_C 	C 	0.2145	0.3547	0.6585	-0.176
Mof_C 	C 	0.2092	0.39	0.6612	0.155
Mof_C 	C 	0.2259	0.4087	0.6868	-0.082
Mof_C 	C 	0.2478	0.3921	0.7098	0.164
Mof_C 	C 	0.9652	0.0385	0.6829	0.391
Mof_C 	C 	0.8593	0.9937	0.6248	0.364
Mof_C 	C 	0.8752	0.009	0.6549	-0.088
Mof_C 	C 	0.9116	0.0186	0.6559	0.036
Mof_C 	C 	0.9265	0.0304	0.6834	-0.094
Mof_C 	C 	0.9074	0.0318	0.713	-0.037
Mof_C 	C 	0.8733	0.0249	0.7159	0.044
Mof_C 	C 	0.8584	0.0115	0.6868	-0.039
Mof_C 	C 	0.6687	0.0428	0.9818	0.421
Mof_C 	C 	0.6012	0.0625	0.8741	0.339
Mof_C 	C 	0.666	0.0578	0.8749	-0.039
Mof_C 	C 	0.6351	0.0585	0.893	-0.079
Mof_C 	C 	0.6364	0.0528	0.9278	0.042
Mof_C 	C 	0.6673	0.0482	0.9445	-0.121
Mof_C 	C 	0.6972	0.0454	0.9252	-0.024
Mof_C 	C 	0.6971	0.0499	0.8914	0.037
Mof_C 	C 	0.7298	0.0442	0.8692	-0.118
Mof_C 	C 	0.7554	0.0683	0.873	0.104
Mof_C 	C 	0.7518	0.1008	0.8896	-0.086
Mof_C 	C 	0.776	0.1217	0.8757	-0.046
Mof_C 	C 	0.7944	0.1023	0.8501	0.073
Mof_C 	C 	0.8202	0.1154	0.8294	-0.033
Mof_C 	C 	0.8381	0.0951	0.8064	0.058
Mof_C 	C 	0.8637	0.1094	0.7838	-0.032
Mof_C 	C 	0.8768	0.0868	0.7609	-0.095
Mof_C 	C 	0.8584	0.0558	0.769	0.109
Mof_C 	C 	0.8343	0.1506	0.8342	-0.082
Mof_C 	C 	0.86	0.1559	0.8585	0.159
Mof_C 	C 	0.8686	0.1893	0.8684	-0.168
Mof_C 	C 	0.8515	0.2172	0.854	0.09
Mof_C 	C 	0.8257	0.2119	0.8297	-0.169
Mof_C 	C 	0.8171	0.1785	0.8198	0.166
Mof_C 	C 	0.8523	0.0272	0.7486	-0.119
Mof_C 	C 	0.8382	0.9963	0.7608	0.088
Mof_C 	C 	0.8448	0.9617	0.748	-0.073
Mof_C 	C 	0.8255	0.9381	0.7651	-0.048
Mof_C 	C 	0.8059	0.9594	0.789	0.082
Mof_C 	C 	0.7801	0.9461	0.8109	-0.034
Mof_C 	C 	0.7595	0.966	0.832	0.084
Mof_C 	C 	0.7284	0.9536	0.848	-0.054
Mof_C 	C 	0.7135	0.9814	0.8625	-0.077
Mof_C 	C 	0.735	0.0109	0.856	0.088
Mof_C 	C 	0.747	0.8567	0.7929	-0.178
Mof_C 	C 	0.7636	0.8381	0.8185	0.092
Mof_C 	C 	0.7855	0.8547	0.8415	-0.176
Mof_C 	C 	0.7908	0.89	0.8388	0.155
Mof_C 	C 	0.7741	0.9087	0.8132	-0.082
Mof_C 	C 	0.7522	0.8921	0.7902	0.164
Mof_C 	C 	0.4652	0.4615	0.3171	0.391
Mof_C 	C 	0.3593	0.5063	0.3752	0.364
Mof_C 	C 	0.3752	0.491	0.3451	-0.088
Mof_C 	C 	0.4116	0.4814	0.3441	0.036
Mof_C 	C 	0.4265	0.4696	0.3166	-0.094
Mof_C 	C 	0.4074	0.4682	0.287	-0.037
Mof_C 	C 	0.3733	0.4751	0.2841	0.044
Mof_C 	C 	0.3584	0.4885	0.3132	-0.039
Mof_C 	C 	0.1687	0.4572	0.0182	0.421
Mof_C 	C 	0.1012	0.4375	0.1259	0.339
Mof_C 	C 	0.166	0.4422	0.1251	-0.039
Mof_C 	C 	0.1351	0.4415	0.107	-0.079
Mof_C 	C 	0.1364	0.4472	0.0722	0.042
Mof_C 	C 	0.1673	0.4518	0.0555	-0.121
Mof_C 	C 	0.1972	0.4546	0.0748	-0.024
Mof_C 	C 	0.1971	0.4501	0.1086	0.037
Mof_C 	C 	0.2298	0.4558	0.1308	-0.118
Mof_C 	C 	0.2554	0.4317	0.127	0.104
Mof_C 	C 	0.2518	0.3992	0.1104	-0.086
Mof_C 	C 	0.276	0.3783	0.1243	-0.046
Mof_C 	C 	0.2944	0.3977	0.1499	0.073
Mof_C 	C 	0.3202	0.3846	0.1706	-0.033
Mof_C 	C 	0.3381	0.4049	0.1936	0.058
Mof_C 	C 	0.3637	0.3906	0.2162	-0.032
Mof_C 	C 	0.3768	0.4132	0.2391	-0.095
Mof_C 	C 	0.3584	0.4442	0.231	0.109
Mof_C 	C 	0.3343	0.3494	0.1658	-0.082
Mof_C 	C 	0.36	0.3441	0.1415	0.159
Mof_C 	C 	0.3686	0.3107	0.1316	-0.168
Mof_C 	C 	0.3515	0.2828	0.146	0.09
Mof_C 	C 	0.3257	0.2881	0.1703	-0.169
Mof_C 	C 	0.3171	0.3215	0.1802	0.166
Mof_C 	C 	0.3523	0.4728	0.2514	-0.119
Mof_C 	C 	0.3382	0.5037	0.2392	0.088
Mof_C 	C 	0.3448	0.5383	0.252	-0.073
Mof_C 	C 	0.3255	0.5619	0.2349	-0.048
Mof_C 	C 	0.3059	0.5406	0.211	0.082
Mof_C 	C 	0.2801	0.5539	0.1891	-0.034
Mof_C 	C 	0.2595	0.534	0.168	0.084
Mof_C 	C 	0.2284	0.5464	0.152	-0.054
Mof_C 	C 	0.2135	0.5186	0.1375	-0.077
Mof_C 	C 	0.235	0.4891	0.144	0.088
Mof_C 	C 	0.247	0.6433	0.2071	-0.178
Mof_C 	C 	0.2636	0.6619	0.1815	0.092
Mof_C 	C 	0.2855	0.6453	0.1585	-0.176
Mof_C 	C 	0.2908	0.61	0.1612	0.155
Mof_C 	C 	0.2741	0.5913	0.1868	-0.082
Mof_C 	C 	0.2522	0.6079	0.2098	0.164
Mof_C 	C 	0.1829	0.5348	0.9615	0.391
Mof_C 	C 	0.1248	0.6407	0.0063	0.364
Mof_C 	C 	0.1549	0.6248	0.991	-0.088
Mof_C 	C 	0.1559	0.5884	0.9814	0.036
Mof_C 	C 	0.1834	0.5735	0.9696	-0.094
Mof_C 	C 	0.213	0.5926	0.9682	-0.037
Mof_C 	C 	0.2159	0.6267	0.9751	0.044
Mof_C 	C 	0.1868	0.6416	0.9885	-0.039
Mof_C 	C 	0.4818	0.8313	0.9572	0.421
Mof_C 	C 	0.3741	0.8988	0.9375	0.339
Mof_C 	C 	0.3749	0.834	0.9422	-0.039
Mof_C 	C 	0.393	0.8649	0.9415	-0.079
Mof_C 	C 	0.4278	0.8636	0.9472	0.042
Mof_C 	C 	0.4445	0.8327	0.9518	-0.121
Mof_C 	C 	0.4252	0.8028	0.9546	-0.024
Mof_C 	C 	0.3914	0.8029	0.9501	0.037
Mof_C 	C 	0.3692	0.7702	0.9558	-0.118
Mof_C 	C 	0.373	0.7446	0.9317	0.104
Mof_C 	C 	0.3896	0.7482	0.8992	-0.086
Mof_C 	C 	0.3757	0.724	0.8783	-0.046
Mof_C 	C 	0.3501	0.7056	0.8977	0.073
Mof_C 	C 	0.3294	0.6798	0.8846	-0.033
Mof_C 	C 	0.3064	0.6619	0.9049	0.058
Mof_C 	C 	0.2838	0.6363	0.8906	-0.032
Mof_C 	C 	0.2609	0.6232	0.9132	-0.095
Mof_C 	C 	0.269	0.6416	0.9442	0.109
Mof_C 	C 	0.3342	0.6657	0.8494	-0.082
Mof_C 	C 	0.3585	0.64	0.8441	0.159
Mof_C 	C 	0.3684	0.6314	0.8107	-0.168
Mof_C 	C 	0.354	0.6485	0.7828	0.09
Mof_C 	C 	0.3297	0.6743	0.7881	-0.169
Mof_C 	C 	0.3198	0.6829	0.8215	0.166
Mof_C 	C 	0.2486	0.6477	0.9728	-0.119
Mof_C 	C 	0.2608	0.6618	0.0037	0.088
Mof_C 	C 	0.248	0.6552	0.0383	-0.073
Mof_C 	C 	0.2651	0.6745	0.0619	-0.048
Mof_C 	C 	0.289	0.6941	0.0406	0.082
Mof_C 	C 	0.3109	0.7199	0.0539	-0.034
Mof_C 	C 	0.332	0.7405	0.034	0.084
Mof_C 	C 	0.348	0.7716	0.0464	-0.054
Mof_C 	C 	0.3625	0.7865	0.0186	-0.077
Mof_C 	C 	0.356	0.765	0.9891	0.088
Mof_C 	C 	0.2929	0.753	0.1433	-0.178
Mof_C 	C 	0.3185	0.7364	0.1619	0.092
Mof_C 	C 	0.3415	0.7145	0.1453	-0.176
Mof_C 	C 	0.3388	0.7092	0.11	0.155
Mof_C 	C 	0.3132	0.7259	0.0913	-0.082
Mof_C 	C 	0.2902	0.7478	0.1079	0.164
Mof_C 	C 	0.8171	0.0348	0.5385	0.391
Mof_C 	C 	0.8752	0.1407	0.4937	0.364
Mof_C 	C 	0.8451	0.1248	0.509	-0.088
Mof_C 	C 	0.8441	0.0884	0.5186	0.036
Mof_C 	C 	0.8166	0.0735	0.5304	-0.094
Mof_C 	C 	0.787	0.0926	0.5318	-0.037
Mof_C 	C 	0.7841	0.1267	0.5249	0.044
Mof_C 	C 	0.8132	0.1416	0.5115	-0.039
Mof_C 	C 	0.5182	0.3313	0.5428	0.421
Mof_C 	C 	0.6259	0.3988	0.5625	0.339
Mof_C 	C 	0.6251	0.334	0.5578	-0.039
Mof_C 	C 	0.607	0.3649	0.5585	-0.079
Mof_C 	C 	0.5722	0.3636	0.5528	0.042
Mof_C 	C 	0.5555	0.3327	0.5482	-0.121
Mof_C 	C 	0.5748	0.3028	0.5454	-0.024
Mof_C 	C 	0.6086	0.3029	0.5499	0.037
Mof_C 	C 	0.6308	0.2702	0.5442	-0.118
Mof_C 	C 	0.627	0.2446	0.5683	0.104
Mof_C 	C 	0.6104	0.2482	0.6008	-0.086
Mof_C 	C 	0.6243	0.224	0.6217	-0.046
Mof_C 	C 	0.6499	0.2056	0.6023	0.073
Mof_C 	C 	0.6706	0.1798	0.6154	-0.033
Mof_C 	C 	0.6936	0.1619	0.5951	0.058
Mof_C 	C 	0.7162	0.1363	0.6094	-0.032
Mof_C 	C 	0.7391	0.1232	0.5868	-0.095
Mof_C 	C 	0.731	0.1416	0.5558	0.109
Mof_C 	C 	0.6658	0.1657	0.6506	-0.082
Mof_C 	C 	0.6415	0.14	0.6559	0.159
Mof_C 	C 	0.6316	0.1314	0.6893	-0.168
Mof_C 	C 	0.646	0.1485	0.7172	0.09
Mof_C 	C 	0.6703	0.1743	0.7119	-0.169
Mof_C 	C 	0.6802	0.1829	0.6785	0.166
Mof_C 	C 	0.7514	0.1477	0.5272	-0.119
Mof_C 	C 	0.7392	0.1618	0.4963	0.088
Mof_C 	C 	0.752	0.1552	0.4617	-0.073
Mof_C 	C 	0.7349	0.1745	0.4381	-0.048
Mof_C 	C 	0.711	0.1941	0.4594	0.082
Mof_C 	C 	0.6891	0.2199	0.4461	-0.034
Mof_C 	C 	0.668	0.2405	0.466	0.084
Mof_C 	C 	0.652	0.2716	0.4536	-0.054
Mof_C 	C 	0.6375	0.2865	0.4814	-0.077
Mof_C 	C 	0.644	0.265	0.5109	0.088
Mof_C 	C 	0.7071	0.253	0.3567	-0.178
Mof_C 	C 	0.6815	0.2364	0.3381	0.092
Mof_C 	C 	0.6585	0.2145	0.3547	-0.176
Mof_C 	C 	0.6612	0.2092	0.39	0.155
Mof_C 	C 	0.6868	0.2259	0.4087	-0.082
Mof_C 	C 	0.7098	0.2478	0.3921	0.164
Mof_C 	C 	0.6829	0.9652	0.0385	0.391
Mof_C 	C 	0.6248	0.8593	0.9937	0.364
Mof_C 	C 	0.6549	0.8752	0.009	-0.088
Mof_C 	C 	0.6559	0.9116	0.0186	0.036
Mof_C 	C 	0.6834	0.9265	0.0304	-0.094
Mof_C 	C 	0.713	0.9074	0.0318	-0.037
Mof_C 	C 	0.7159	0.8733	0.0249	0.044
Mof_C 	C 	0.6868	0.8584	0.0115	-0.039
Mof_C 	C 	0.9818	0.6687	0.0428	0.421
Mof_C 	C 	0.8741	0.6012	0.0625	0.339
Mof_C 	C 	0.8749	0.666	0.0578	-0.039
Mof_C 	C 	0.893	0.6351	0.0585	-0.079
Mof_C 	C 	0.9278	0.6364	0.0528	0.042
Mof_C 	C 	0.9445	0.6673	0.0482	-0.121
Mof_C 	C 	0.9252	0.6972	0.0454	-0.024
Mof_C 	C 	0.8914	0.6971	0.0499	0.037
Mof_C 	C 	0.8692	0.7298	0.0442	-0.118
Mof_C 	C 	0.873	0.7554	0.0683	0.104
Mof_C 	C 	0.8896	0.7518	0.1008	-0.086
Mof_C 	C 	0.8757	0.776	0.1217	-0.046
Mof_C 	C 	0.8501	0.7944	0.1023	0.073
Mof_C 	C 	0.8294	0.8202	0.1154	-0.033
Mof_C 	C 	0.8064	0.8381	0.0951	0.058
Mof_C 	C 	0.7838	0.8637	0.1094	-0.032
Mof_C 	C 	0.7609	0.8768	0.0868	-0.095
Mof_C 	C 	0.769	0.8584	0.0558	0.109
Mof_C 	C 	0.8342	0.8343	0.1506	-0.082
Mof_C 	C 	0.8585	0.86	0.1559	0.159
Mof_C 	C 	0.8684	0.8686	0.1893	-0.168
Mof_C 	C 	0.854	0.8515	0.2172	0.09
Mof_C 	C 	0.8297	0.8257	0.2119	-0.169
Mof_C 	C 	0.8198	0.8171	0.1785	0.166
Mof_C 	C 	0.7486	0.8523	0.0272	-0.119
Mof_C 	C 	0.7608	0.8382	0.9963	0.088
Mof_C 	C 	0.748	0.8448	0.9617	-0.073
Mof_C 	C 	0.7651	0.8255	0.9381	-0.048
Mof_C 	C 	0.789	0.8059	0.9594	0.082
Mof_C 	C 	0.8109	0.7801	0.9461	-0.034
Mof_C 	C 	0.832	0.7595	0.966	0.084
Mof_C 	C 	0.848	0.7284	0.9536	-0.054
Mof_C 	C 	0.8625	0.7135	0.9814	-0.077
Mof_C 	C 	0.856	0.735	0.0109	0.088
Mof_C 	C 	0.7929	0.747	0.8567	-0.178
Mof_C 	C 	0.8185	0.7636	0.8381	0.092
Mof_C 	C 	0.8415	0.7855	0.8547	-0.176
Mof_C 	C 	0.8388	0.7908	0.89	0.155
Mof_C 	C 	0.8132	0.7741	0.9087	-0.082
Mof_C 	C 	0.7902	0.7522	0.8921	0.164
Mof_C 	C 	0.3171	0.4652	0.4615	0.391
Mof_C 	C 	0.3752	0.3593	0.5063	0.364
Mof_C 	C 	0.3451	0.3752	0.491	-0.088
Mof_C 	C 	0.3441	0.4116	0.4814	0.036
Mof_C 	C 	0.3166	0.4265	0.4696	-0.094
Mof_C 	C 	0.287	0.4074	0.4682	-0.037
Mof_C 	C 	0.2841	0.3733	0.4751	0.044
Mof_C 	C 	0.3132	0.3584	0.4885	-0.039
Mof_C 	C 	0.0182	0.1687	0.4572	0.421
Mof_C 	C 	0.1259	0.1012	0.4375	0.339
Mof_C 	C 	0.1251	0.166	0.4422	-0.039
Mof_C 	C 	0.107	0.1351	0.4415	-0.079
Mof_C 	C 	0.0722	0.1364	0.4472	0.042
Mof_C 	C 	0.0555	0.1673	0.4518	-0.121
Mof_C 	C 	0.0748	0.1972	0.4546	-0.024
Mof_C 	C 	0.1086	0.1971	0.4501	0.037
Mof_C 	C 	0.1308	0.2298	0.4558	-0.118
Mof_C 	C 	0.127	0.2554	0.4317	0.104
Mof_C 	C 	0.1104	0.2518	0.3992	-0.086
Mof_C 	C 	0.1243	0.276	0.3783	-0.046
Mof_C 	C 	0.1499	0.2944	0.3977	0.073
Mof_C 	C 	0.1706	0.3202	0.3846	-0.033
Mof_C 	C 	0.1936	0.3381	0.4049	0.058
Mof_C 	C 	0.2162	0.3637	0.3906	-0.032
Mof_C 	C 	0.2391	0.3768	0.4132	-0.095
Mof_C 	C 	0.231	0.3584	0.4442	0.109
Mof_C 	C 	0.1658	0.3343	0.3494	-0.082
Mof_C 	C 	0.1415	0.36	0.3441	0.159
Mof_C 	C 	0.1316	0.3686	0.3107	-0.168
Mof_C 	C 	0.146	0.3515	0.2828	0.09
Mof_C 	C 	0.1703	0.3257	0.2881	-0.169
Mof_C 	C 	0.1802	0.3171	0.3215	0.166
Mof_C 	C 	0.2514	0.3523	0.4728	-0.119
Mof_C 	C 	0.2392	0.3382	0.5037	0.088
Mof_C 	C 	0.252	0.3448	0.5383	-0.073
Mof_C 	C 	0.2349	0.3255	0.5619	-0.048
Mof_C 	C 	0.211	0.3059	0.5406	0.082
Mof_C 	C 	0.1891	0.2801	0.5539	-0.034
Mof_C 	C 	0.168	0.2595	0.534	0.084
Mof_C 	C 	0.152	0.2284	0.5464	-0.054
Mof_C 	C 	0.1375	0.2135	0.5186	-0.077
Mof_C 	C 	0.144	0.235	0.4891	0.088
Mof_C 	C 	0.2071	0.247	0.6433	-0.178
Mof_C 	C 	0.1815	0.2636	0.6619	0.092
Mof_C 	C 	0.1585	0.2855	0.6453	-0.176
Mof_C 	C 	0.1612	0.2908	0.61	0.155
Mof_C 	C 	0.1868	0.2741	0.5913	-0.082
Mof_C 	C 	0.2098	0.2522	0.6079	0.164
Mof_C 	C 	0.0385	0.8171	0.4652	0.391
Mof_C 	C 	0.9937	0.8752	0.3593	0.364
Mof_C 	C 	0.009	0.8451	0.3752	-0.088
Mof_C 	C 	0.0186	0.8441	0.4116	0.036
Mof_C 	C 	0.0304	0.8166	0.4265	-0.094
Mof_C 	C 	0.0318	0.787	0.4074	-0.037
Mof_C 	C 	0.0249	0.7841	0.3733	0.044
Mof_C 	C 	0.0115	0.8132	0.3584	-0.039
Mof_C 	C 	0.0428	0.5182	0.1687	0.421
Mof_C 	C 	0.0625	0.6259	0.1012	0.339
Mof_C 	C 	0.0578	0.6251	0.166	-0.039
Mof_C 	C 	0.0585	0.607	0.1351	-0.079
Mof_C 	C 	0.0528	0.5722	0.1364	0.042
Mof_C 	C 	0.0482	0.5555	0.1673	-0.121
Mof_C 	C 	0.0454	0.5748	0.1972	-0.024
Mof_C 	C 	0.0499	0.6086	0.1971	0.037
Mof_C 	C 	0.0442	0.6308	0.2298	-0.118
Mof_C 	C 	0.0683	0.627	0.2554	0.104
Mof_C 	C 	0.1008	0.6104	0.2518	-0.086
Mof_C 	C 	0.1217	0.6243	0.276	-0.046
Mof_C 	C 	0.1023	0.6499	0.2944	0.073
Mof_C 	C 	0.1154	0.6706	0.3202	-0.033
Mof_C 	C 	0.0951	0.6936	0.3381	0.058
Mof_C 	C 	0.1094	0.7162	0.3637	-0.032
Mof_C 	C 	0.0868	0.7391	0.3768	-0.095
Mof_C 	C 	0.0558	0.731	0.3584	0.109
Mof_C 	C 	0.1506	0.6658	0.3343	-0.082
Mof_C 	C 	0.1559	0.6415	0.36	0.159
Mof_C 	C 	0.1893	0.6316	0.3686	-0.168
Mof_C 	C 	0.2172	0.646	0.3515	0.09
Mof_C 	C 	0.2119	0.6703	0.3257	-0.169
Mof_C 	C 	0.1785	0.6802	0.3171	0.166
Mof_C 	C 	0.0272	0.7514	0.3523	-0.119
Mof_C 	C 	0.9963	0.7392	0.3382	0.088
Mof_C 	C 	0.9617	0.752	0.3448	-0.073
Mof_C 	C 	0.9381	0.7349	0.3255	-0.048
Mof_C 	C 	0.9594	0.711	0.3059	0.082
Mof_C 	C 	0.9461	0.6891	0.2801	-0.034
Mof_C 	C 	0.966	0.668	0.2595	0.084
Mof_C 	C 	0.9536	0.652	0.2284	-0.054
Mof_C 	C 	0.9814	0.6375	0.2135	-0.077
Mof_C 	C 	0.0109	0.644	0.235	0.088
Mof_C 	C 	0.8567	0.7071	0.247	-0.178
Mof_C 	C 	0.8381	0.6815	0.2636	0.092
Mof_C 	C 	0.8547	0.6585	0.2855	-0.176
Mof_C 	C 	0.89	0.6612	0.2908	0.155
Mof_C 	C 	0.9087	0.6868	0.2741	-0.082
Mof_C 	C 	0.8921	0.7098	0.2522	0.164
Mof_C 	C 	0.4615	0.1829	0.9652	0.391
Mof_C 	C 	0.5063	0.1248	0.8593	0.364
Mof_C 	C 	0.491	0.1549	0.8752	-0.088
Mof_C 	C 	0.4814	0.1559	0.9116	0.036
Mof_C 	C 	0.4696	0.1834	0.9265	-0.094
Mof_C 	C 	0.4682	0.213	0.9074	-0.037
Mof_C 	C 	0.4751	0.2159	0.8733	0.044
Mof_C 	C 	0.4885	0.1868	0.8584	-0.039
Mof_C 	C 	0.4572	0.4818	0.6687	0.421
Mof_C 	C 	0.4375	0.3741	0.6012	0.339
Mof_C 	C 	0.4422	0.3749	0.666	-0.039
Mof_C 	C 	0.4415	0.393	0.6351	-0.079
Mof_C 	C 	0.4472	0.4278	0.6364	0.042
Mof_C 	C 	0.4518	0.4445	0.6673	-0.121
Mof_C 	C 	0.4546	0.4252	0.6972	-0.024
Mof_C 	C 	0.4501	0.3914	0.6971	0.037
Mof_C 	C 	0.4558	0.3692	0.7298	-0.118
Mof_C 	C 	0.4317	0.373	0.7554	0.104
Mof_C 	C 	0.3992	0.3896	0.7518	-0.086
Mof_C 	C 	0.3783	0.3757	0.776	-0.046
Mof_C 	C 	0.3977	0.3501	0.7944	0.073
Mof_C 	C 	0.3846	0.3294	0.8202	-0.033
Mof_C 	C 	0.4049	0.3064	0.8381	0.058
Mof_C 	C 	0.3906	0.2838	0.8637	-0.032
Mof_C 	C 	0.4132	0.2609	0.8768	-0.095
Mof_C 	C 	0.4442	0.269	0.8584	0.109
Mof_C 	C 	0.3494	0.3342	0.8343	-0.082
Mof_C 	C 	0.3441	0.3585	0.86	0.159
Mof_C 	C 	0.3107	0.3684	0.8686	-0.168
Mof_C 	C 	0.2828	0.354	0.8515	0.09
Mof_C 	C 	0.2881	0.3297	0.8257	-0.169
Mof_C 	C 	0.3215	0.3198	0.8171	0.166
Mof_C 	C 	0.4728	0.2486	0.8523	-0.119
Mof_C 	C 	0.5037	0.2608	0.8382	0.088
Mof_C 	C 	0.5383	0.248	0.8448	-0.073
Mof_C 	C 	0.5619	0.2651	0.8255	-0.048
Mof_C 	C 	0.5406	0.289	0.8059	0.082
Mof_C 	C 	0.5539	0.3109	0.7801	-0.034
Mof_C 	C 	0.534	0.332	0.7595	0.084
Mof_C 	C 	0.5464	0.348	0.7284	-0.054
Mof_C 	C 	0.5186	0.3625	0.7135	-0.077
Mof_C 	C 	0.4891	0.356	0.735	0.088
Mof_C 	C 	0.6433	0.2929	0.747	-0.178
Mof_C 	C 	0.6619	0.3185	0.7636	0.092
Mof_C 	C 	0.6453	0.3415	0.7855	-0.176
Mof_C 	C 	0.61	0.3388	0.7908	0.155
Mof_C 	C 	0.5913	0.3132	0.7741	-0.082
Mof_C 	C 	0.6079	0.2902	0.7522	0.164
Mof_C 	C 	0.9615	0.3171	0.0348	0.391
Mof_C 	C 	0.0063	0.3752	0.1407	0.364
Mof_C 	C 	0.991	0.3451	0.1248	-0.088
Mof_C 	C 	0.9814	0.3441	0.0884	0.036
Mof_C 	C 	0.9696	0.3166	0.0735	-0.094
Mof_C 	C 	0.9682	0.287	0.0926	-0.037
Mof_C 	C 	0.9751	0.2841	0.1267	0.044
Mof_C 	C 	0.9885	0.3132	0.1416	-0.039
Mof_C 	C 	0.9572	0.0182	0.3313	0.421
Mof_C 	C 	0.9375	0.1259	0.3988	0.339
Mof_C 	C 	0.9422	0.1251	0.334	-0.039
Mof_C 	C 	0.9415	0.107	0.3649	-0.079
Mof_C 	C 	0.9472	0.0722	0.3636	0.042
Mof_C 	C 	0.9518	0.0555	0.3327	-0.121
Mof_C 	C 	0.9546	0.0748	0.3028	-0.024
Mof_C 	C 	0.9501	0.1086	0.3029	0.037
Mof_C 	C 	0.9558	0.1308	0.2702	-0.118
Mof_C 	C 	0.9317	0.127	0.2446	0.104
Mof_C 	C 	0.8992	0.1104	0.2482	-0.086
Mof_C 	C 	0.8783	0.1243	0.224	-0.046
Mof_C 	C 	0.8977	0.1499	0.2056	0.073
Mof_C 	C 	0.8846	0.1706	0.1798	-0.033
Mof_C 	C 	0.9049	0.1936	0.1619	0.058
Mof_C 	C 	0.8906	0.2162	0.1363	-0.032
Mof_C 	C 	0.9132	0.2391	0.1232	-0.095
Mof_C 	C 	0.9442	0.231	0.1416	0.109
Mof_C 	C 	0.8494	0.1658	0.1657	-0.082
Mof_C 	C 	0.8441	0.1415	0.14	0.159
Mof_C 	C 	0.8107	0.1316	0.1314	-0.168
Mof_C 	C 	0.7828	0.146	0.1485	0.09
Mof_C 	C 	0.7881	0.1703	0.1743	-0.169
Mof_C 	C 	0.8215	0.1802	0.1829	0.166
Mof_C 	C 	0.9728	0.2514	0.1477	-0.119
Mof_C 	C 	0.0037	0.2392	0.1618	0.088
Mof_C 	C 	0.0383	0.252	0.1552	-0.073
Mof_C 	C 	0.0619	0.2349	0.1745	-0.048
Mof_C 	C 	0.0406	0.211	0.1941	0.082
Mof_C 	C 	0.0539	0.1891	0.2199	-0.034
Mof_C 	C 	0.034	0.168	0.2405	0.084
Mof_C 	C 	0.0464	0.152	0.2716	-0.054
Mof_C 	C 	0.0186	0.1375	0.2865	-0.077
Mof_C 	C 	0.9891	0.144	0.265	0.088
Mof_C 	C 	0.1433	0.2071	0.253	-0.178
Mof_C 	C 	0.1619	0.1815	0.2364	0.092
Mof_C 	C 	0.1453	0.1585	0.2145	-0.176
Mof_C 	C 	0.11	0.1612	0.2092	0.155
Mof_C 	C 	0.0913	0.1868	0.2259	-0.082
Mof_C 	C 	0.1079	0.2098	0.2478	0.164
Mof_C 	C 	0.5385	0.6829	0.5348	0.391
Mof_C 	C 	0.4937	0.6248	0.6407	0.364
Mof_C 	C 	0.509	0.6549	0.6248	-0.088
Mof_C 	C 	0.5186	0.6559	0.5884	0.036
Mof_C 	C 	0.5304	0.6834	0.5735	-0.094
Mof_C 	C 	0.5318	0.713	0.5926	-0.037
Mof_C 	C 	0.5249	0.7159	0.6267	0.044
Mof_C 	C 	0.5115	0.6868	0.6416	-0.039
Mof_C 	C 	0.5428	0.9818	0.8313	0.421
Mof_C 	C 	0.5625	0.8741	0.8988	0.339
Mof_C 	C 	0.5578	0.8749	0.834	-0.039
Mof_C 	C 	0.5585	0.893	0.8649	-0.079
Mof_C 	C 	0.5528	0.9278	0.8636	0.042
Mof_C 	C 	0.5482	0.9445	0.8327	-0.121
Mof_C 	C 	0.5454	0.9252	0.8028	-0.024
Mof_C 	C 	0.5499	0.8914	0.8029	0.037
Mof_C 	C 	0.5442	0.8692	0.7702	-0.118
Mof_C 	C 	0.5683	0.873	0.7446	0.104
Mof_C 	C 	0.6008	0.8896	0.7482	-0.086
Mof_C 	C 	0.6217	0.8757	0.724	-0.046
Mof_C 	C 	0.6023	0.8501	0.7056	0.073
Mof_C 	C 	0.6154	0.8294	0.6798	-0.033
Mof_C 	C 	0.5951	0.8064	0.6619	0.058
Mof_C 	C 	0.6094	0.7838	0.6363	-0.032
Mof_C 	C 	0.5868	0.7609	0.6232	-0.095
Mof_C 	C 	0.5558	0.769	0.6416	0.109
Mof_C 	C 	0.6506	0.8342	0.6657	-0.082
Mof_C 	C 	0.6559	0.8585	0.64	0.159
Mof_C 	C 	0.6893	0.8684	0.6314	-0.168
Mof_C 	C 	0.7172	0.854	0.6485	0.09
Mof_C 	C 	0.7119	0.8297	0.6743	-0.169
Mof_C 	C 	0.6785	0.8198	0.6829	0.166
Mof_C 	C 	0.5272	0.7486	0.6477	-0.119
Mof_C 	C 	0.4963	0.7608	0.6618	0.088
Mof_C 	C 	0.4617	0.748	0.6552	-0.073
Mof_C 	C 	0.4381	0.7651	0.6745	-0.048
Mof_C 	C 	0.4594	0.789	0.6941	0.082
Mof_C 	C 	0.4461	0.8109	0.7199	-0.034
Mof_C 	C 	0.466	0.832	0.7405	0.084
Mof_C 	C 	0.4536	0.848	0.7716	-0.054
Mof_C 	C 	0.4814	0.8625	0.7865	-0.077
Mof_C 	C 	0.5109	0.856	0.765	0.088
Mof_C 	C 	0.3567	0.7929	0.753	-0.178
Mof_C 	C 	0.3381	0.8185	0.7364	0.092
Mof_C 	C 	0.3547	0.8415	0.7145	-0.176
Mof_C 	C 	0.39	0.8388	0.7092	0.155
Mof_C 	C 	0.4087	0.8132	0.7259	-0.082
Mof_C 	C 	0.3921	0.7902	0.7478	0.164
Mof_C 	C 	0.4652	0.0385	0.8171	0.391
Mof_C 	C 	0.3593	0.9937	0.8752	0.364
Mof_C 	C 	0.3752	0.009	0.8451	-0.088
Mof_C 	C 	0.4116	0.0186	0.8441	0.036
Mof_C 	C 	0.4265	0.0304	0.8166	-0.094
Mof_C 	C 	0.4074	0.0318	0.787	-0.037
Mof_C 	C 	0.3733	0.0249	0.7841	0.044
Mof_C 	C 	0.3584	0.0115	0.8132	-0.039
Mof_C 	C 	0.1687	0.0428	0.5182	0.421
Mof_C 	C 	0.1012	0.0625	0.6259	0.339
Mof_C 	C 	0.166	0.0578	0.6251	-0.039
Mof_C 	C 	0.1351	0.0585	0.607	-0.079
Mof_C 	C 	0.1364	0.0528	0.5722	0.042
Mof_C 	C 	0.1673	0.0482	0.5555	-0.121
Mof_C 	C 	0.1972	0.0454	0.5748	-0.024
Mof_C 	C 	0.1971	0.0499	0.6086	0.037
Mof_C 	C 	0.2298	0.0442	0.6308	-0.118
Mof_C 	C 	0.2554	0.0683	0.627	0.104
Mof_C 	C 	0.2518	0.1008	0.6104	-0.086
Mof_C 	C 	0.276	0.1217	0.6243	-0.046
Mof_C 	C 	0.2944	0.1023	0.6499	0.073
Mof_C 	C 	0.3202	0.1154	0.6706	-0.033
Mof_C 	C 	0.3381	0.0951	0.6936	0.058
Mof_C 	C 	0.3637	0.1094	0.7162	-0.032
Mof_C 	C 	0.3768	0.0868	0.7391	-0.095
Mof_C 	C 	0.3584	0.0558	0.731	0.109
Mof_C 	C 	0.3343	0.1506	0.6658	-0.082
Mof_C 	C 	0.36	0.1559	0.6415	0.159
Mof_C 	C 	0.3686	0.1893	0.6316	-0.168
Mof_C 	C 	0.3515	0.2172	0.646	0.09
Mof_C 	C 	0.3257	0.2119	0.6703	-0.169
Mof_C 	C 	0.3171	0.1785	0.6802	0.166
Mof_C 	C 	0.3523	0.0272	0.7514	-0.119
Mof_C 	C 	0.3382	0.9963	0.7392	0.088
Mof_C 	C 	0.3448	0.9617	0.752	-0.073
Mof_C 	C 	0.3255	0.9381	0.7349	-0.048
Mof_C 	C 	0.3059	0.9594	0.711	0.082
Mof_C 	C 	0.2801	0.9461	0.6891	-0.034
Mof_C 	C 	0.2595	0.966	0.668	0.084
Mof_C 	C 	0.2284	0.9536	0.652	-0.054
Mof_C 	C 	0.2135	0.9814	0.6375	-0.077
Mof_C 	C 	0.235	0.0109	0.644	0.088
Mof_C 	C 	0.247	0.8567	0.7071	-0.178
Mof_C 	C 	0.2636	0.8381	0.6815	0.092
Mof_C 	C 	0.2855	0.8547	0.6585	-0.176
Mof_C 	C 	0.2908	0.89	0.6612	0.155
Mof_C 	C 	0.2741	0.9087	0.6868	-0.082
Mof_C 	C 	0.2522	0.8921	0.7098	0.164
Mof_C 	C 	0.9652	0.4615	0.1829	0.391
Mof_C 	C 	0.8593	0.5063	0.1248	0.364
Mof_C 	C 	0.8752	0.491	0.1549	-0.088
Mof_C 	C 	0.9116	0.4814	0.1559	0.036
Mof_C 	C 	0.9265	0.4696	0.1834	-0.094
Mof_C 	C 	0.9074	0.4682	0.213	-0.037
Mof_C 	C 	0.8733	0.4751	0.2159	0.044
Mof_C 	C 	0.8584	0.4885	0.1868	-0.039
Mof_C 	C 	0.6687	0.4572	0.4818	0.421
Mof_C 	C 	0.6012	0.4375	0.3741	0.339
Mof_C 	C 	0.666	0.4422	0.3749	-0.039
Mof_C 	C 	0.6351	0.4415	0.393	-0.079
Mof_C 	C 	0.6364	0.4472	0.4278	0.042
Mof_C 	C 	0.6673	0.4518	0.4445	-0.121
Mof_C 	C 	0.6972	0.4546	0.4252	-0.024
Mof_C 	C 	0.6971	0.4501	0.3914	0.037
Mof_C 	C 	0.7298	0.4558	0.3692	-0.118
Mof_C 	C 	0.7554	0.4317	0.373	0.104
Mof_C 	C 	0.7518	0.3992	0.3896	-0.086
Mof_C 	C 	0.776	0.3783	0.3757	-0.046
Mof_C 	C 	0.7944	0.3977	0.3501	0.073
Mof_C 	C 	0.8202	0.3846	0.3294	-0.033
Mof_C 	C 	0.8381	0.4049	0.3064	0.058
Mof_C 	C 	0.8637	0.3906	0.2838	-0.032
Mof_C 	C 	0.8768	0.4132	0.2609	-0.095
Mof_C 	C 	0.8584	0.4442	0.269	0.109
Mof_C 	C 	0.8343	0.3494	0.3342	-0.082
Mof_C 	C 	0.86	0.3441	0.3585	0.159
Mof_C 	C 	0.8686	0.3107	0.3684	-0.168
Mof_C 	C 	0.8515	0.2828	0.354	0.09
Mof_C 	C 	0.8257	0.2881	0.3297	-0.169
Mof_C 	C 	0.8171	0.3215	0.3198	0.166
Mof_C 	C 	0.8523	0.4728	0.2486	-0.119
Mof_C 	C 	0.8382	0.5037	0.2608	0.088
Mof_C 	C 	0.8448	0.5383	0.248	-0.073
Mof_C 	C 	0.8255	0.5619	0.2651	-0.048
Mof_C 	C 	0.8059	0.5406	0.289	0.082
Mof_C 	C 	0.7801	0.5539	0.3109	-0.034
Mof_C 	C 	0.7595	0.534	0.332	0.084
Mof_C 	C 	0.7284	0.5464	0.348	-0.054
Mof_C 	C 	0.7135	0.5186	0.3625	-0.077
Mof_C 	C 	0.735	0.4891	0.356	0.088
Mof_C 	C 	0.747	0.6433	0.2929	-0.178
Mof_C 	C 	0.7636	0.6619	0.3185	0.092
Mof_C 	C 	0.7855	0.6453	0.3415	-0.176
Mof_C 	C 	0.7908	0.61	0.3388	0.155
Mof_C 	C 	0.7741	0.5913	0.3132	-0.082
Mof_C 	C 	0.7522	0.6079	0.2902	0.164
Mof_C 	C 	0.0348	0.9615	0.3171	0.391
Mof_C 	C 	0.1407	0.0063	0.3752	0.364
Mof_C 	C 	0.1248	0.991	0.3451	-0.088
Mof_C 	C 	0.0884	0.9814	0.3441	0.036
Mof_C 	C 	0.0735	0.9696	0.3166	-0.094
Mof_C 	C 	0.0926	0.9682	0.287	-0.037
Mof_C 	C 	0.1267	0.9751	0.2841	0.044
Mof_C 	C 	0.1416	0.9885	0.3132	-0.039
Mof_C 	C 	0.3313	0.9572	0.0182	0.421
Mof_C 	C 	0.3988	0.9375	0.1259	0.339
Mof_C 	C 	0.334	0.9422	0.1251	-0.039
Mof_C 	C 	0.3649	0.9415	0.107	-0.079
Mof_C 	C 	0.3636	0.9472	0.0722	0.042
Mof_C 	C 	0.3327	0.9518	0.0555	-0.121
Mof_C 	C 	0.3028	0.9546	0.0748	-0.024
Mof_C 	C 	0.3029	0.9501	0.1086	0.037
Mof_C 	C 	0.2702	0.9558	0.1308	-0.118
Mof_C 	C 	0.2446	0.9317	0.127	0.104
Mof_C 	C 	0.2482	0.8992	0.1104	-0.086
Mof_C 	C 	0.224	0.8783	0.1243	-0.046
Mof_C 	C 	0.2056	0.8977	0.1499	0.073
Mof_C 	C 	0.1798	0.8846	0.1706	-0.033
Mof_C 	C 	0.1619	0.9049	0.1936	0.058
Mof_C 	C 	0.1363	0.8906	0.2162	-0.032
Mof_C 	C 	0.1232	0.9132	0.2391	-0.095
Mof_C 	C 	0.1416	0.9442	0.231	0.109
Mof_C 	C 	0.1657	0.8494	0.1658	-0.082
Mof_C 	C 	0.14	0.8441	0.1415	0.159
Mof_C 	C 	0.1314	0.8107	0.1316	-0.168
Mof_C 	C 	0.1485	0.7828	0.146	0.09
Mof_C 	C 	0.1743	0.7881	0.1703	-0.169
Mof_C 	C 	0.1829	0.8215	0.1802	0.166
Mof_C 	C 	0.1477	0.9728	0.2514	-0.119
Mof_C 	C 	0.1618	0.0037	0.2392	0.088
Mof_C 	C 	0.1552	0.0383	0.252	-0.073
Mof_C 	C 	0.1745	0.0619	0.2349	-0.048
Mof_C 	C 	0.1941	0.0406	0.211	0.082
Mof_C 	C 	0.2199	0.0539	0.1891	-0.034
Mof_C 	C 	0.2405	0.034	0.168	0.084
Mof_C 	C 	0.2716	0.0464	0.152	-0.054
Mof_C 	C 	0.2865	0.0186	0.1375	-0.077
Mof_C 	C 	0.265	0.9891	0.144	0.088
Mof_C 	C 	0.253	0.1433	0.2071	-0.178
Mof_C 	C 	0.2364	0.1619	0.1815	0.092
Mof_C 	C 	0.2145	0.1453	0.1585	-0.176
Mof_C 	C 	0.2092	0.11	0.1612	0.155
Mof_C 	C 	0.2259	0.0913	0.1868	-0.082
Mof_C 	C 	0.2478	0.1079	0.2098	0.164
Mof_C 	C 	0.5348	0.5385	0.6829	0.391
Mof_C 	C 	0.6407	0.4937	0.6248	0.364
Mof_C 	C 	0.6248	0.509	0.6549	-0.088
Mof_C 	C 	0.5884	0.5186	0.6559	0.036
Mof_C 	C 	0.5735	0.5304	0.6834	-0.094
Mof_C 	C 	0.5926	0.5318	0.713	-0.037
Mof_C 	C 	0.6267	0.5249	0.7159	0.044
Mof_C 	C 	0.6416	0.5115	0.6868	-0.039
Mof_C 	C 	0.8313	0.5428	0.9818	0.421
Mof_C 	C 	0.8988	0.5625	0.8741	0.339
Mof_C 	C 	0.834	0.5578	0.8749	-0.039
Mof_C 	C 	0.8649	0.5585	0.893	-0.079
Mof_C 	C 	0.8636	0.5528	0.9278	0.042
Mof_C 	C 	0.8327	0.5482	0.9445	-0.121
Mof_C 	C 	0.8028	0.5454	0.9252	-0.024
Mof_C 	C 	0.8029	0.5499	0.8914	0.037
Mof_C 	C 	0.7702	0.5442	0.8692	-0.118
Mof_C 	C 	0.7446	0.5683	0.873	0.104
Mof_C 	C 	0.7482	0.6008	0.8896	-0.086
Mof_C 	C 	0.724	0.6217	0.8757	-0.046
Mof_C 	C 	0.7056	0.6023	0.8501	0.073
Mof_C 	C 	0.6798	0.6154	0.8294	-0.033
Mof_C 	C 	0.6619	0.5951	0.8064	0.058
Mof_C 	C 	0.6363	0.6094	0.7838	-0.032
Mof_C 	C 	0.6232	0.5868	0.7609	-0.095
Mof_C 	C 	0.6416	0.5558	0.769	0.109
Mof_C 	C 	0.6657	0.6506	0.8342	-0.082
Mof_C 	C 	0.64	0.6559	0.8585	0.159
Mof_C 	C 	0.6314	0.6893	0.8684	-0.168
Mof_C 	C 	0.6485	0.7172	0.854	0.09
Mof_C 	C 	0.6743	0.7119	0.8297	-0.169
Mof_C 	C 	0.6829	0.6785	0.8198	0.166
Mof_C 	C 	0.6477	0.5272	0.7486	-0.119
Mof_C 	C 	0.6618	0.4963	0.7608	0.088
Mof_C 	C 	0.6552	0.4617	0.748	-0.073
Mof_C 	C 	0.6745	0.4381	0.7651	-0.048
Mof_C 	C 	0.6941	0.4594	0.789	0.082
Mof_C 	C 	0.7199	0.4461	0.8109	-0.034
Mof_C 	C 	0.7405	0.466	0.832	0.084
Mof_C 	C 	0.7716	0.4536	0.848	-0.054
Mof_C 	C 	0.7865	0.4814	0.8625	-0.077
Mof_C 	C 	0.765	0.5109	0.856	0.088
Mof_C 	C 	0.753	0.3567	0.7929	-0.178
Mof_C 	C 	0.7364	0.3381	0.8185	0.092
Mof_C 	C 	0.7145	0.3547	0.8415	-0.176
Mof_C 	C 	0.7092	0.39	0.8388	0.155
Mof_C 	C 	0.7259	0.4087	0.8132	-0.082
Mof_C 	C 	0.7478	0.3921	0.7902	0.164
Mof_C 	C 	0.8171	0.4652	0.0385	0.391
Mof_C 	C 	0.8752	0.3593	0.9937	0.364
Mof_C 	C 	0.8451	0.3752	0.009	-0.088
Mof_C 	C 	0.8441	0.4116	0.0186	0.036
Mof_C 	C 	0.8166	0.4265	0.0304	-0.094
Mof_C 	C 	0.787	0.4074	0.0318	-0.037
Mof_C 	C 	0.7841	0.3733	0.0249	0.044
Mof_C 	C 	0.8132	0.3584	0.0115	-0.039
Mof_C 	C 	0.5182	0.1687	0.0428	0.421
Mof_C 	C 	0.6259	0.1012	0.0625	0.339
Mof_C 	C 	0.6251	0.166	0.0578	-0.039
Mof_C 	C 	0.607	0.1351	0.0585	-0.079
Mof_C 	C 	0.5722	0.1364	0.0528	0.042
Mof_C 	C 	0.5555	0.1673	0.0482	-0.121
Mof_C 	C 	0.5748	0.1972	0.0454	-0.024
Mof_C 	C 	0.6086	0.1971	0.0499	0.037
Mof_C 	C 	0.6308	0.2298	0.0442	-0.118
Mof_C 	C 	0.627	0.2554	0.0683	0.104
Mof_C 	C 	0.6104	0.2518	0.1008	-0.086
Mof_C 	C 	0.6243	0.276	0.1217	-0.046
Mof_C 	C 	0.6499	0.2944	0.1023	0.073
Mof_C 	C 	0.6706	0.3202	0.1154	-0.033
Mof_C 	C 	0.6936	0.3381	0.0951	0.058
Mof_C 	C 	0.7162	0.3637	0.1094	-0.032
Mof_C 	C 	0.7391	0.3768	0.0868	-0.095
Mof_C 	C 	0.731	0.3584	0.0558	0.109
Mof_C 	C 	0.6658	0.3343	0.1506	-0.082
Mof_C 	C 	0.6415	0.36	0.1559	0.159
Mof_C 	C 	0.6316	0.3686	0.1893	-0.168
Mof_C 	C 	0.646	0.3515	0.2172	0.09
Mof_C 	C 	0.6703	0.3257	0.2119	-0.169
Mof_C 	C 	0.6802	0.3171	0.1785	0.166
Mof_C 	C 	0.7514	0.3523	0.0272	-0.119
Mof_C 	C 	0.7392	0.3382	0.9963	0.088
Mof_C 	C 	0.752	0.3448	0.9617	-0.073
Mof_C 	C 	0.7349	0.3255	0.9381	-0.048
Mof_C 	C 	0.711	0.3059	0.9594	0.082
Mof_C 	C 	0.6891	0.2801	0.9461	-0.034
Mof_C 	C 	0.668	0.2595	0.966	0.084
Mof_C 	C 	0.652	0.2284	0.9536	-0.054
Mof_C 	C 	0.6375	0.2135	0.9814	-0.077
Mof_C 	C 	0.644	0.235	0.0109	0.088
Mof_C 	C 	0.7071	0.247	0.8567	-0.178
Mof_C 	C 	0.6815	0.2636	0.8381	0.092
Mof_C 	C 	0.6585	0.2855	0.8547	-0.176
Mof_C 	C 	0.6612	0.2908	0.89	0.155
Mof_C 	C 	0.6868	0.2741	0.9087	-0.082
Mof_C 	C 	0.7098	0.2522	0.8921	0.164
Mof_C 	C 	0.1829	0.9652	0.4615	0.391
Mof_C 	C 	0.1248	0.8593	0.5063	0.364
Mof_C 	C 	0.1549	0.8752	0.491	-0.088
Mof_C 	C 	0.1559	0.9116	0.4814	0.036
Mof_C 	C 	0.1834	0.9265	0.4696	-0.094
Mof_C 	C 	0.213	0.9074	0.4682	-0.037
Mof_C 	C 	0.2159	0.8733	0.4751	0.044
Mof_C 	C 	0.1868	0.8584	0.4885	-0.039
Mof_C 	C 	0.4818	0.6687	0.4572	0.421
Mof_C 	C 	0.3741	0.6012	0.4375	0.339
Mof_C 	C 	0.3749	0.666	0.4422	-0.039
Mof_C 	C 	0.393	0.6351	0.4415	-0.079
Mof_C 	C 	0.4278	0.6364	0.4472	0.042
Mof_C 	C 	0.4445	0.6673	0.4518	-0.121
Mof_C 	C 	0.4252	0.6972	0.4546	-0.024
Mof_C 	C 	0.3914	0.6971	0.4501	0.037
Mof_C 	C 	0.3692	0.7298	0.4558	-0.118
Mof_C 	C 	0.373	0.7554	0.4317	0.104
Mof_C 	C 	0.3896	0.7518	0.3992	-0.086
Mof_C 	C 	0.3757	0.776	0.3783	-0.046
Mof_C 	C 	0.3501	0.7944	0.3977	0.073
Mof_C 	C 	0.3294	0.8202	0.3846	-0.033
Mof_C 	C 	0.3064	0.8381	0.4049	0.058
Mof_C 	C 	0.2838	0.8637	0.3906	-0.032
Mof_C 	C 	0.2609	0.8768	0.4132	-0.095
Mof_C 	C 	0.269	0.8584	0.4442	0.109
Mof_C 	C 	0.3342	0.8343	0.3494	-0.082
Mof_C 	C 	0.3585	0.86	0.3441	0.159
Mof_C 	C 	0.3684	0.8686	0.3107	-0.168
Mof_C 	C 	0.354	0.8515	0.2828	0.09
Mof_C 	C 	0.3297	0.8257	0.2881	-0.169
Mof_C 	C 	0.3198	0.8171	0.3215	0.166
Mof_C 	C 	0.2486	0.8523	0.4728	-0.119
Mof_C 	C 	0.2608	0.8382	0.5037	0.088
Mof_C 	C 	0.248	0.8448	0.5383	-0.073
Mof_C 	C 	0.2651	0.8255	0.5619	-0.048
Mof_C 	C 	0.289	0.8059	0.5406	0.082
Mof_C 	C 	0.3109	0.7801	0.5539	-0.034
Mof_C 	C 	0.332	0.7595	0.534	0.084
Mof_C 	C 	0.348	0.7284	0.5464	-0.054
Mof_C 	C 	0.3625	0.7135	0.5186	-0.077
Mof_C 	C 	0.356	0.735	0.4891	0.088
Mof_C 	C 	0.2929	0.747	0.6433	-0.178
Mof_C 	C 	0.3185	0.7636	0.6619	0.092
Mof_C 	C 	0.3415	0.7855	0.6453	-0.176
Mof_C 	C 	0.3388	0.7908	0.61	0.155
Mof_C 	C 	0.3132	0.7741	0.5913	-0.082
Mof_C 	C 	0.2902	0.7522	0.6079	0.164
Mof_C 	C 	0.3171	0.0348	0.9615	0.391
Mof_C 	C 	0.3752	0.1407	0.0063	0.364
Mof_C 	C 	0.3451	0.1248	0.991	-0.088
Mof_C 	C 	0.3441	0.0884	0.9814	0.036
Mof_C 	C 	0.3166	0.0735	0.9696	-0.094
Mof_C 	C 	0.287	0.0926	0.9682	-0.037
Mof_C 	C 	0.2841	0.1267	0.9751	0.044
Mof_C 	C 	0.3132	0.1416	0.9885	-0.039
Mof_C 	C 	0.0182	0.3313	0.9572	0.421
Mof_C 	C 	0.1259	0.3988	0.9375	0.339
Mof_C 	C 	0.1251	0.334	0.9422	-0.039
Mof_C 	C 	0.107	0.3649	0.9415	-0.079
Mof_C 	C 	0.0722	0.3636	0.9472	0.042
Mof_C 	C 	0.0555	0.3327	0.9518	-0.121
Mof_C 	C 	0.0748	0.3028	0.9546	-0.024
Mof_C 	C 	0.1086	0.3029	0.9501	0.037
Mof_C 	C 	0.1308	0.2702	0.9558	-0.118
Mof_C 	C 	0.127	0.2446	0.9317	0.104
Mof_C 	C 	0.1104	0.2482	0.8992	-0.086
Mof_C 	C 	0.1243	0.224	0.8783	-0.046
Mof_C 	C 	0.1499	0.2056	0.8977	0.073
Mof_C 	C 	0.1706	0.1798	0.8846	-0.033
Mof_C 	C 	0.1936	0.1619	0.9049	0.058
Mof_C 	C 	0.2162	0.1363	0.8906	-0.032
Mof_C 	C 	0.2391	0.1232	0.9132	-0.095
Mof_C 	C 	0.231	0.1416	0.9442	0.109
Mof_C 	C 	0.1658	0.1657	0.8494	-0.082
Mof_C 	C 	0.1415	0.14	0.8441	0.159
Mof_C 	C 	0.1316	0.1314	0.8107	-0.168
Mof_C 	C 	0.146	0.1485	0.7828	0.09
Mof_C 	C 	0.1703	0.1743	0.7881	-0.169
Mof_C 	C 	0.1802	0.1829	0.8215	0.166
Mof_C 	C 	0.2514	0.1477	0.9728	-0.119
Mof_C 	C 	0.2392	0.1618	0.0037	0.088
Mof_C 	C 	0.252	0.1552	0.0383	-0.073
Mof_C 	C 	0.2349	0.1745	0.0619	-0.048
Mof_C 	C 	0.211	0.1941	0.0406	0.082
Mof_C 	C 	0.1891	0.2199	0.0539	-0.034
Mof_C 	C 	0.168	0.2405	0.034	0.084
Mof_C 	C 	0.152	0.2716	0.0464	-0.054
Mof_C 	C 	0.1375	0.2865	0.0186	-0.077
Mof_C 	C 	0.144	0.265	0.9891	0.088
Mof_C 	C 	0.2071	0.253	0.1433	-0.178
Mof_C 	C 	0.1815	0.2364	0.1619	0.092
Mof_C 	C 	0.1585	0.2145	0.1453	-0.176
Mof_C 	C 	0.1612	0.2092	0.11	0.155
Mof_C 	C 	0.1868	0.2259	0.0913	-0.082
Mof_C 	C 	0.2098	0.2478	0.1079	0.164
Mof_C 	C 	0.6829	0.5348	0.5385	0.391
Mof_C 	C 	0.6248	0.6407	0.4937	0.364
Mof_C 	C 	0.6549	0.6248	0.509	-0.088
Mof_C 	C 	0.6559	0.5884	0.5186	0.036
Mof_C 	C 	0.6834	0.5735	0.5304	-0.094
Mof_C 	C 	0.713	0.5926	0.5318	-0.037
Mof_C 	C 	0.7159	0.6267	0.5249	0.044
Mof_C 	C 	0.6868	0.6416	0.5115	-0.039
Mof_C 	C 	0.9818	0.8313	0.5428	0.421
Mof_C 	C 	0.8741	0.8988	0.5625	0.339
Mof_C 	C 	0.8749	0.834	0.5578	-0.039
Mof_C 	C 	0.893	0.8649	0.5585	-0.079
Mof_C 	C 	0.9278	0.8636	0.5528	0.042
Mof_C 	C 	0.9445	0.8327	0.5482	-0.121
Mof_C 	C 	0.9252	0.8028	0.5454	-0.024
Mof_C 	C 	0.8914	0.8029	0.5499	0.037
Mof_C 	C 	0.8692	0.7702	0.5442	-0.118
Mof_C 	C 	0.873	0.7446	0.5683	0.104
Mof_C 	C 	0.8896	0.7482	0.6008	-0.086
Mof_C 	C 	0.8757	0.724	0.6217	-0.046
Mof_C 	C 	0.8501	0.7056	0.6023	0.073
Mof_C 	C 	0.8294	0.6798	0.6154	-0.033
Mof_C 	C 	0.8064	0.6619	0.5951	0.058
Mof_C 	C 	0.7838	0.6363	0.6094	-0.032
Mof_C 	C 	0.7609	0.6232	0.5868	-0.095
Mof_C 	C 	0.769	0.6416	0.5558	0.109
Mof_C 	C 	0.8342	0.6657	0.6506	-0.082
Mof_C 	C 	0.8585	0.64	0.6559	0.159
Mof_C 	C 	0.8684	0.6314	0.6893	-0.168
Mof_C 	C 	0.854	0.6485	0.7172	0.09
Mof_C 	C 	0.8297	0.6743	0.7119	-0.169
Mof_C 	C 	0.8198	0.6829	0.6785	0.166
Mof_C 	C 	0.7486	0.6477	0.5272	-0.119
Mof_C 	C 	0.7608	0.6618	0.4963	0.088
Mof_C 	C 	0.748	0.6552	0.4617	-0.073
Mof_C 	C 	0.7651	0.6745	0.4381	-0.048
Mof_C 	C 	0.789	0.6941	0.4594	0.082
Mof_C 	C 	0.8109	0.7199	0.4461	-0.034
Mof_C 	C 	0.832	0.7405	0.466	0.084
Mof_C 	C 	0.848	0.7716	0.4536	-0.054
Mof_C 	C 	0.8625	0.7865	0.4814	-0.077
Mof_C 	C 	0.856	0.765	0.5109	0.088
Mof_C 	C 	0.7929	0.753	0.3567	-0.178
Mof_C 	C 	0.8185	0.7364	0.3381	0.092
Mof_C 	C 	0.8415	0.7145	0.3547	-0.176
Mof_C 	C 	0.8388	0.7092	0.39	0.155
Mof_C 	C 	0.8132	0.7259	0.4087	-0.082
Mof_C 	C 	0.7902	0.7478	0.3921	0.164
Mof_Br	Br	0.0845	0.2557	0.7717	-0.273
Mof_Br	Br	0.8271	0.2893	0.7193	-0.261
Mof_Br	Br	0.88091	0.38279	0.61993	-0.277
Mof_Br	Br	0.0882	0.3703	0.6782	-0.243
Mof_Br	Br	0.4155	0.7443	0.2717	-0.273
Mof_Br	Br	0.6729	0.7107	0.2193	-0.261
Mof_Br	Br	0.61909	0.61721	0.11993	-0.277
Mof_Br	Br	0.4118	0.6297	0.1782	-0.243
Mof_Br	Br	0.9155	0.7557	0.7283	-0.273
Mof_Br	Br	0.1729	0.7893	0.7807	-0.261
Mof_Br	Br	0.11909	0.88279	0.88007	-0.277
Mof_Br	Br	0.9118	0.8703	0.8218	-0.243
Mof_Br	Br	0.5845	0.2443	0.2283	-0.273
Mof_Br	Br	0.3271	0.2107	0.2807	-0.261
Mof_Br	Br	0.38091	0.11721	0.38007	-0.277
Mof_Br	Br	0.5882	0.1297	0.3218	-0.243
Mof_Br	Br	0.7717	0.0845	0.2557	-0.273
Mof_Br	Br	0.7193	0.8271	0.2893	-0.261
Mof_Br	Br	0.61993	0.88091	0.38279	-0.277
Mof_Br	Br	0.6782	0.0882	0.3703	-0.243
Mof_Br	Br	0.2717	0.4155	0.7443	-0.273
Mof_Br	Br	0.2193	0.6729	0.7107	-0.261
Mof_Br	Br	0.11993	0.61909	0.61721	-0.277
Mof_Br	Br	0.1782	0.4118	0.6297	-0.243
Mof_Br	Br	0.7283	0.9155	0.7557	-0.273
Mof_Br	Br	0.7807	0.1729	0.7893	-0.261
Mof_Br	Br	0.88007	0.11909	0.88279	-0.277
Mof_Br	Br	0.8218	0.9118	0.8703	-0.243
Mof_Br	Br	0.2283	0.5845	0.2443	-0.273
Mof_Br	Br	0.2807	0.3271	0.2107	-0.261
Mof_Br	Br	0.38007	0.38091	0.11721	-0.277
Mof_Br	Br	0.3218	0.5882	0.1297	-0.243
Mof_Br	Br	0.2557	0.7717	0.0845	-0.273
Mof_Br	Br	0.2893	0.7193	0.8271	-0.261
Mof_Br	Br	0.38279	0.61993	0.88091	-0.277
Mof_Br	Br	0.3703	0.6782	0.0882	-0.243
Mof_Br	Br	0.7443	0.2717	0.4155	-0.273
Mof_Br	Br	0.7107	0.2193	0.6729	-0.261
Mof_Br	Br	0.61721	0.11993	0.61909	-0.277
Mof_Br	Br	0.6297	0.1782	0.4118	-0.243
Mof_Br	Br	0.7557	0.7283	0.9155	-0.273
Mof_Br	Br	0.7893	0.7807	0.1729	-0.261
Mof_Br	Br	0.88279	0.88007	0.11909	-0.277
Mof_Br	Br	0.8703	0.8218	0.9118	-0.243
Mof_Br	Br	0.2443	0.2283	0.5845	-0.273
Mof_Br	Br	0.2107	0.2807	0.3271	-0.261
Mof_Br	Br	0.11721	0.38007	0.38091	-0.277
Mof_Br	Br	0.1297	0.3218	0.5882	-0.243
Mof_Br	Br	0.9155	0.7443	0.2283	-0.273
Mof_Br	Br	0.1729	0.7107	0.2807	-0.261
Mof_Br	Br	0.11909	0.61721	0.38007	-0.277
Mof_Br	Br	0.9118	0.6297	0.3218	-0.243
Mof_Br	Br	0.5845	0.2557	0.7283	-0.273
Mof_Br	Br	0.3271	0.2893	0.7807	-0.261
Mof_Br	Br	0.38091	0.38279	0.88007	-0.277
Mof_Br	Br	0.5882	0.3703	0.8218	-0.243
Mof_Br	Br	0.0845	0.2443	0.2717	-0.273
Mof_Br	Br	0.8271	0.2107	0.2193	-0.261
Mof_Br	Br	0.88091	0.11721	0.11993	-0.277
Mof_Br	Br	0.0882	0.1297	0.1782	-0.243
Mof_Br	Br	0.4155	0.7557	0.7717	-0.273
Mof_Br	Br	0.6729	0.7893	0.7193	-0.261
Mof_Br	Br	0.61909	0.88279	0.61993	-0.277
Mof_Br	Br	0.4118	0.8703	0.6782	-0.243
Mof_Br	Br	0.2283	0.9155	0.7443	-0.273
Mof_Br	Br	0.2807	0.1729	0.7107	-0.261
Mof_Br	Br	0.38007	0.11909	0.61721	-0.277
Mof_Br	Br	0.3218	0.9118	0.6297	-0.243
Mof_Br	Br	0.7283	0.5845	0.2557	-0.273
Mof_Br	Br	0.7807	0.3271	0.2893	-0.261
Mof_Br	Br	0.88007	0.38091	0.38279	-0.277
Mof_Br	Br	0.8218	0.5882	0.3703	-0.243
Mof_Br	Br	0.2717	0.0845	0.2443	-0.273
Mof_Br	Br	0.2193	0.8271	0.2107	-0.261
Mof_Br	Br	0.11993	0.88091	0.11721	-0.277
Mof_Br	Br	0.1782	0.0882	0.1297	-0.243
Mof_Br	Br	0.7717	0.4155	0.7557	-0.273
Mof_Br	Br	0.7193	0.6729	0.7893	-0.261
Mof_Br	Br	0.61993	0.61909	0.88279	-0.277
Mof_Br	Br	0.6782	0.4118	0.8703	-0.243
Mof_Br	Br	0.7443	0.2283	0.9155	-0.273
Mof_Br	Br	0.7107	0.2807	0.1729	-0.261
Mof_Br	Br	0.61721	0.38007	0.11909	-0.277
Mof_Br	Br	0.6297	0.3218	0.9118	-0.243
Mof_Br	Br	0.2557	0.7283	0.5845	-0.273
Mof_Br	Br	0.2893	0.7807	0.3271	-0.261
Mof_Br	Br	0.38279	0.88007	0.38091	-0.277
Mof_Br	Br	0.3703	0.8218	0.5882	-0.243
Mof_Br	Br	0.2443	0.2717	0.0845	-0.273
Mof_Br	Br	0.2107	0.2193	0.8271	-0.261
Mof_Br	Br	0.11721	0.11993	0.88091	-0.277
Mof_Br	Br	0.1297	0.1782	0.0882	-0.243
Mof_Br	Br	0.7557	0.7717	0.4155	-0.273
Mof_Br	Br	0.7893	0.7193	0.6729	-0.261
Mof_Br	Br	0.88279	0.61993	0.61909	-0.277
Mof_Br	Br	0.8703	0.6782	0.4118	-0.243
Mof_N 	N 	0.9304	0.3491	0.7187	-0.268
Mof_N 	N 	0.9385	0.296	0.664	-0.264
Mof_N 	N 	0.0059	0.2874	0.6861	-0.269
Mof_N 	N 	0.9987	0.3356	0.7374	-0.271
Mof_N 	N 	0.5696	0.6509	0.2187	-0.268
Mof_N 	N 	0.5615	0.704	0.164	-0.264
Mof_N 	N 	0.4941	0.7126	0.1861	-0.269
Mof_N 	N 	0.5013	0.6644	0.2374	-0.271
Mof_N 	N 	0.0696	0.8491	0.7813	-0.268
Mof_N 	N 	0.0615	0.796	0.836	-0.264
Mof_N 	N 	0.9941	0.7874	0.8139	-0.269
Mof_N 	N 	0.0013	0.8356	0.7626	-0.271
Mof_N 	N 	0.4304	0.1509	0.2813	-0.268
Mof_N 	N 	0.4385	0.204	0.336	-0.264
Mof_N 	N 	0.5059	0.2126	0.3139	-0.269
Mof_N 	N 	0.4987	0.1644	0.2626	-0.271
Mof_N 	N 	0.7187	0.9304	0.3491	-0.268
Mof_N 	N 	0.664	0.9385	0.296	-0.264
Mof_N 	N 	0.6861	0.0059	0.2874	-0.269
Mof_N 	N 	0.7374	0.9987	0.3356	-0.271
Mof_N 	N 	0.2187	0.5696	0.6509	-0.268
Mof_N 	N 	0.164	0.5615	0.704	-0.264
Mof_N 	N 	0.1861	0.4941	0.7126	-0.269
Mof_N 	N 	0.2374	0.5013	0.6644	-0.271
Mof_N 	N 	0.7813	0.0696	0.8491	-0.268
Mof_N 	N 	0.836	0.0615	0.796	-0.264
Mof_N 	N 	0.8139	0.9941	0.7874	-0.269
Mof_N 	N 	0.7626	0.0013	0.8356	-0.271
Mof_N 	N 	0.2813	0.4304	0.1509	-0.268
Mof_N 	N 	0.336	0.4385	0.204	-0.264
Mof_N 	N 	0.3139	0.5059	0.2126	-0.269
Mof_N 	N 	0.2626	0.4987	0.1644	-0.271
Mof_N 	N 	0.3491	0.7187	0.9304	-0.268
Mof_N 	N 	0.296	0.664	0.9385	-0.264
Mof_N 	N 	0.2874	0.6861	0.0059	-0.269
Mof_N 	N 	0.3356	0.7374	0.9987	-0.271
Mof_N 	N 	0.6509	0.2187	0.5696	-0.268
Mof_N 	N 	0.704	0.164	0.5615	-0.264
Mof_N 	N 	0.7126	0.1861	0.4941	-0.269
Mof_N 	N 	0.6644	0.2374	0.5013	-0.271
Mof_N 	N 	0.8491	0.7813	0.0696	-0.268
Mof_N 	N 	0.796	0.836	0.0615	-0.264
Mof_N 	N 	0.7874	0.8139	0.9941	-0.269
Mof_N 	N 	0.8356	0.7626	0.0013	-0.271
Mof_N 	N 	0.1509	0.2813	0.4304	-0.268
Mof_N 	N 	0.204	0.336	0.4385	-0.264
Mof_N 	N 	0.2126	0.3139	0.5059	-0.269
Mof_N 	N 	0.1644	0.2626	0.4987	-0.271
Mof_N 	N 	0.0696	0.6509	0.2813	-0.268
Mof_N 	N 	0.0615	0.704	0.336	-0.264
Mof_N 	N 	0.9941	0.7126	0.3139	-0.269
Mof_N 	N 	0.0013	0.6644	0.2626	-0.271
Mof_N 	N 	0.4304	0.3491	0.7813	-0.268
Mof_N 	N 	0.4385	0.296	0.836	-0.264
Mof_N 	N 	0.5059	0.2874	0.8139	-0.269
Mof_N 	N 	0.4987	0.3356	0.7626	-0.271
Mof_N 	N 	0.9304	0.1509	0.2187	-0.268
Mof_N 	N 	0.9385	0.204	0.164	-0.264
Mof_N 	N 	0.0059	0.2126	0.1861	-0.269
Mof_N 	N 	0.9987	0.1644	0.2374	-0.271
Mof_N 	N 	0.5696	0.8491	0.7187	-0.268
Mof_N 	N 	0.5615	0.796	0.664	-0.264
Mof_N 	N 	0.4941	0.7874	0.6861	-0.269
Mof_N 	N 	0.5013	0.8356	0.7374	-0.271
Mof_N 	N 	0.2813	0.0696	0.6509	-0.268
Mof_N 	N 	0.336	0.0615	0.704	-0.264
Mof_N 	N 	0.3139	0.9941	0.7126	-0.269
Mof_N 	N 	0.2626	0.0013	0.6644	-0.271
Mof_N 	N 	0.7813	0.4304	0.3491	-0.268
Mof_N 	N 	0.836	0.4385	0.296	-0.264
Mof_N 	N 	0.8139	0.5059	0.2874	-0.269
Mof_N 	N 	0.7626	0.4987	0.3356	-0.271
Mof_N 	N 	0.2187	0.9304	0.1509	-0.268
Mof_N 	N 	0.164	0.9385	0.204	-0.264
Mof_N 	N 	0.1861	0.0059	0.2126	-0.269
Mof_N 	N 	0.2374	0.9987	0.1644	-0.271
Mof_N 	N 	0.7187	0.5696	0.8491	-0.268
Mof_N 	N 	0.664	0.5615	0.796	-0.264
Mof_N 	N 	0.6861	0.4941	0.7874	-0.269
Mof_N 	N 	0.7374	0.5013	0.8356	-0.271
Mof_N 	N 	0.6509	0.2813	0.0696	-0.268
Mof_N 	N 	0.704	0.336	0.0615	-0.264
Mof_N 	N 	0.7126	0.3139	0.9941	-0.269
Mof_N 	N 	0.6644	0.2626	0.0013	-0.271
Mof_N 	N 	0.3491	0.7813	0.4304	-0.268
Mof_N 	N 	0.296	0.836	0.4385	-0.264
Mof_N 	N 	0.2874	0.8139	0.5059	-0.269
Mof_N 	N 	0.3356	0.7626	0.4987	-0.271
Mof_N 	N 	0.1509	0.2187	0.9304	-0.268
Mof_N 	N 	0.204	0.164	0.9385	-0.264
Mof_N 	N 	0.2126	0.1861	0.0059	-0.269
Mof_N 	N 	0.1644	0.2374	0.9987	-0.271
Mof_N 	N 	0.8491	0.7187	0.5696	-0.268
Mof_N 	N 	0.796	0.664	0.5615	-0.264
Mof_N 	N 	0.7874	0.6861	0.4941	-0.269
Mof_N 	N 	0.8356	0.7374	0.5013	-0.271
Mof_O 	O 	0.9523	0.2114	0.52118	-0.437
Mof_O 	O 	0.96172	0.15454	0.52133	-0.448
Mof_O 	O 	0.01072	0.0986	0.62195	-0.407
Mof_O 	O 	0.0122	0.1264	0.6717	-0.27
Mof_O 	O 	0.9264	0.3424	0.89611	-0.252
Mof_O 	O 	0.94189	0.38878	0.92581	-0.405
Mof_O 	O 	0.95879	0.49877	0.85867	-0.438
Mof_O 	O 	0.9605	0.49423	0.80214	-0.477
Mof_O 	O 	0.93348	0.3168	0.95616	-0.42
Mof_O 	O 	0.5477	0.7886	0.02118	-0.437
Mof_O 	O 	0.53828	0.84546	0.02133	-0.448
Mof_O 	O 	0.48928	0.9014	0.12195	-0.407
Mof_O 	O 	0.4878	0.8736	0.1717	-0.27
Mof_O 	O 	0.5736	0.6576	0.39611	-0.252
Mof_O 	O 	0.55811	0.61122	0.42581	-0.405
Mof_O 	O 	0.54121	0.50123	0.35867	-0.438
Mof_O 	O 	0.5395	0.50577	0.30214	-0.477
Mof_O 	O 	0.56652	0.6832	0.45616	-0.42
Mof_O 	O 	0.0477	0.7114	0.97882	-0.437
Mof_O 	O 	0.03828	0.65454	0.97867	-0.448
Mof_O 	O 	0.98928	0.5986	0.87805	-0.407
Mof_O 	O 	0.9878	0.6264	0.8283	-0.27
Mof_O 	O 	0.0736	0.8424	0.60389	-0.252
Mof_O 	O 	0.05811	0.88878	0.57419	-0.405
Mof_O 	O 	0.04121	0.99877	0.64133	-0.438
Mof_O 	O 	0.0395	0.99423	0.69786	-0.477
Mof_O 	O 	0.06652	0.8168	0.54384	-0.42
Mof_O 	O 	0.4523	0.2886	0.47882	-0.437
Mof_O 	O 	0.46172	0.34546	0.47867	-0.448
Mof_O 	O 	0.51072	0.4014	0.37805	-0.407
Mof_O 	O 	0.5122	0.3736	0.3283	-0.27
Mof_O 	O 	0.4264	0.1576	0.10389	-0.252
Mof_O 	O 	0.44189	0.11122	0.07419	-0.405
Mof_O 	O 	0.45879	0.00123	0.14133	-0.438
Mof_O 	O 	0.4605	0.00577	0.19786	-0.477
Mof_O 	O 	0.43348	0.1832	0.04384	-0.42
Mof_O 	O 	0.52118	0.9523	0.2114	-0.437
Mof_O 	O 	0.52133	0.96172	0.15454	-0.448
Mof_O 	O 	0.62195	0.01072	0.0986	-0.407
Mof_O 	O 	0.6717	0.0122	0.1264	-0.27
Mof_O 	O 	0.89611	0.9264	0.3424	-0.252
Mof_O 	O 	0.92581	0.94189	0.38878	-0.405
Mof_O 	O 	0.85867	0.95879	0.49877	-0.438
Mof_O 	O 	0.80214	0.9605	0.49423	-0.477
Mof_O 	O 	0.95616	0.93348	0.3168	-0.42
Mof_O 	O 	0.02118	0.5477	0.7886	-0.437
Mof_O 	O 	0.02133	0.53828	0.84546	-0.448
Mof_O 	O 	0.12195	0.48928	0.9014	-0.407
Mof_O 	O 	0.1717	0.4878	0.8736	-0.27
Mof_O 	O 	0.39611	0.5736	0.6576	-0.252
Mof_O 	O 	0.42581	0.55811	0.61122	-0.405
Mof_O 	O 	0.35867	0.54121	0.50123	-0.438
Mof_O 	O 	0.30214	0.5395	0.50577	-0.477
Mof_O 	O 	0.45616	0.56652	0.6832	-0.42
Mof_O 	O 	0.97882	0.0477	0.7114	-0.437
Mof_O 	O 	0.97867	0.03828	0.65454	-0.448
Mof_O 	O 	0.87805	0.98928	0.5986	-0.407
Mof_O 	O 	0.8283	0.9878	0.6264	-0.27
Mof_O 	O 	0.60389	0.0736	0.8424	-0.252
Mof_O 	O 	0.57419	0.05811	0.88878	-0.405
Mof_O 	O 	0.64133	0.04121	0.99877	-0.438
Mof_O 	O 	0.69786	0.0395	0.99423	-0.477
Mof_O 	O 	0.54384	0.06652	0.8168	-0.42
Mof_O 	O 	0.47882	0.4523	0.2886	-0.437
Mof_O 	O 	0.47867	0.46172	0.34546	-0.448
Mof_O 	O 	0.37805	0.51072	0.4014	-0.407
Mof_O 	O 	0.3283	0.5122	0.3736	-0.27
Mof_O 	O 	0.10389	0.4264	0.1576	-0.252
Mof_O 	O 	0.07419	0.44189	0.11122	-0.405
Mof_O 	O 	0.14133	0.45879	0.00123	-0.438
Mof_O 	O 	0.19786	0.4605	0.00577	-0.477
Mof_O 	O 	0.04384	0.43348	0.1832	-0.42
Mof_O 	O 	0.2114	0.52118	0.9523	-0.437
Mof_O 	O 	0.15454	0.52133	0.96172	-0.448
Mof_O 	O 	0.0986	0.62195	0.01072	-0.407
Mof_O 	O 	0.1264	0.6717	0.0122	-0.27
Mof_O 	O 	0.3424	0.89611	0.9264	-0.252
Mof_O 	O 	0.38878	0.92581	0.94189	-0.405
Mof_O 	O 	0.49877	0.85867	0.95879	-0.438
Mof_O 	O 	0.49423	0.80214	0.9605	-0.477
Mof_O 	O 	0.3168	0.95616	0.93348	-0.42
Mof_O 	O 	0.7886	0.02118	0.5477	-0.437
Mof_O 	O 	0.84546	0.02133	0.53828	-0.448
Mof_O 	O 	0.9014	0.12195	0.48928	-0.407
Mof_O 	O 	0.8736	0.1717	0.4878	-0.27
Mof_O 	O 	0.6576	0.39611	0.5736	-0.252
Mof_O 	O 	0.61122	0.42581	0.55811	-0.405
Mof_O 	O 	0.50123	0.35867	0.54121	-0.438
Mof_O 	O 	0.50577	0.30214	0.5395	-0.477
Mof_O 	O 	0.6832	0.45616	0.56652	-0.42
Mof_O 	O 	0.7114	0.97882	0.0477	-0.437
Mof_O 	O 	0.65454	0.97867	0.03828	-0.448
Mof_O 	O 	0.5986	0.87805	0.98928	-0.407
Mof_O 	O 	0.6264	0.8283	0.9878	-0.27
Mof_O 	O 	0.8424	0.60389	0.0736	-0.252
Mof_O 	O 	0.88878	0.57419	0.05811	-0.405
Mof_O 	O 	0.99877	0.64133	0.04121	-0.438
Mof_O 	O 	0.99423	0.69786	0.0395	-0.477
Mof_O 	O 	0.8168	0.54384	0.06652	-0.42
Mof_O 	O 	0.2886	0.47882	0.4523	-0.437
Mof_O 	O 	0.34546	0.47867	0.46172	-0.448
Mof_O 	O 	0.4014	0.37805	0.51072	-0.407
Mof_O 	O 	0.3736	0.3283	0.5122	-0.27
Mof_O 	O 	0.1576	0.10389	0.4264	-0.252
Mof_O 	O 	0.11122	0.07419	0.44189	-0.405
Mof_O 	O 	0.00123	0.14133	0.45879	-0.438
Mof_O 	O 	0.00577	0.19786	0.4605	-0.477
Mof_O 	O 	0.1832	0.04384	0.43348	-0.42
Mof_O 	O 	0.0477	0.7886	0.47882	-0.437
Mof_O 	O 	0.03828	0.84546	0.47867	-0.448
Mof_O 	O 	0.98928	0.9014	0.37805	-0.407
Mof_O 	O 	0.9878	0.8736	0.3283	-0.27
Mof_O 	O 	0.0736	0.6576	0.10389	-0.252
Mof_O 	O 	0.05811	0.61122	0.07419	-0.405
Mof_O 	O 	0.04121	0.50123	0.14133	-0.438
Mof_O 	O 	0.0395	0.50577	0.19786	-0.477
Mof_O 	O 	0.06652	0.6832	0.04384	-0.42
Mof_O 	O 	0.4523	0.2114	0.97882	-0.437
Mof_O 	O 	0.46172	0.15454	0.97867	-0.448
Mof_O 	O 	0.51072	0.0986	0.87805	-0.407
Mof_O 	O 	0.5122	0.1264	0.8283	-0.27
Mof_O 	O 	0.4264	0.3424	0.60389	-0.252
Mof_O 	O 	0.44189	0.38878	0.57419	-0.405
Mof_O 	O 	0.45879	0.49877	0.64133	-0.438
Mof_O 	O 	0.4605	0.49423	0.69786	-0.477
Mof_O 	O 	0.43348	0.3168	0.54384	-0.42
Mof_O 	O 	0.9523	0.2886	0.02118	-0.437
Mof_O 	O 	0.96172	0.34546	0.02133	-0.448
Mof_O 	O 	0.01072	0.4014	0.12195	-0.407
Mof_O 	O 	0.0122	0.3736	0.1717	-0.27
Mof_O 	O 	0.9264	0.1576	0.39611	-0.252
Mof_O 	O 	0.94189	0.11122	0.42581	-0.405
Mof_O 	O 	0.95879	0.00123	0.35867	-0.438
Mof_O 	O 	0.9605	0.00577	0.30214	-0.477
Mof_O 	O 	0.93348	0.1832	0.45616	-0.42
Mof_O 	O 	0.5477	0.7114	0.52118	-0.437
Mof_O 	O 	0.53828	0.65454	0.52133	-0.448
Mof_O 	O 	0.48928	0.5986	0.62195	-0.407
Mof_O 	O 	0.4878	0.6264	0.6717	-0.27
Mof_O 	O 	0.5736	0.8424	0.89611	-0.252
Mof_O 	O 	0.55811	0.88878	0.92581	-0.405
Mof_O 	O 	0.54121	0.99877	0.85867	-0.438
Mof_O 	O 	0.5395	0.99423	0.80214	-0.477
Mof_O 	O 	0.56652	0.8168	0.95616	-0.42
Mof_O 	O 	0.47882	0.0477	0.7886	-0.437
Mof_O 	O 	0.47867	0.03828	0.84546	-0.448
Mof_O 	O 	0.37805	0.98928	0.9014	-0.407
Mof_O 	O 	0.3283	0.9878	0.8736	-0.27
Mof_O 	O 	0.10389	0.0736	0.6576	-0.252
Mof_O 	O 	0.07419	0.05811	0.61122	-0.405
Mof_O 	O 	0.14133	0.04121	0.50123	-0.438
Mof_O 	O 	0.19786	0.0395	0.50577	-0.477
Mof_O 	O 	0.04384	0.06652	0.6832	-0.42
Mof_O 	O 	0.97882	0.4523	0.2114	-0.437
Mof_O 	O 	0.97867	0.46172	0.15454	-0.448
Mof_O 	O 	0.87805	0.51072	0.0986	-0.407
Mof_O 	O 	0.8283	0.5122	0.1264	-0.27
Mof_O 	O 	0.60389	0.4264	0.3424	-0.252
Mof_O 	O 	0.57419	0.44189	0.38878	-0.405
Mof_O 	O 	0.64133	0.45879	0.49877	-0.438
Mof_O 	O 	0.69786	0.4605	0.49423	-0.477
Mof_O 	O 	0.54384	0.43348	0.3168	-0.42
Mof_O 	O 	0.02118	0.9523	0.2886	-0.437
Mof_O 	O 	0.02133	0.96172	0.34546	-0.448
Mof_O 	O 	0.12195	0.01072	0.4014	-0.407
Mof_O 	O 	0.1717	0.0122	0.3736	-0.27
Mof_O 	O 	0.39611	0.9264	0.1576	-0.252
Mof_O 	O 	0.42581	0.94189	0.11122	-0.405
Mof_O 	O 	0.35867	0.95879	0.00123	-0.438
Mof_O 	O 	0.30214	0.9605	0.00577	-0.477
Mof_O 	O 	0.45616	0.93348	0.1832	-0.42
Mof_O 	O 	0.52118	0.5477	0.7114	-0.437
Mof_O 	O 	0.52133	0.53828	0.65454	-0.448
Mof_O 	O 	0.62195	0.48928	0.5986	-0.407
Mof_O 	O 	0.6717	0.4878	0.6264	-0.27
Mof_O 	O 	0.89611	0.5736	0.8424	-0.252
Mof_O 	O 	0.92581	0.55811	0.88878	-0.405
Mof_O 	O 	0.85867	0.54121	0.99877	-0.438
Mof_O 	O 	0.80214	0.5395	0.99423	-0.477
Mof_O 	O 	0.95616	0.56652	0.8168	-0.42
Mof_O 	O 	0.7886	0.47882	0.0477	-0.437
Mof_O 	O 	0.84546	0.47867	0.03828	-0.448
Mof_O 	O 	0.9014	0.37805	0.98928	-0.407
Mof_O 	O 	0.8736	0.3283	0.9878	-0.27
Mof_O 	O 	0.6576	0.10389	0.0736	-0.252
Mof_O 	O 	0.61122	0.07419	0.05811	-0.405
Mof_O 	O 	0.50123	0.14133	0.04121	-0.438
Mof_O 	O 	0.50577	0.19786	0.0395	-0.477
Mof_O 	O 	0.6832	0.04384	0.06652	-0.42
Mof_O 	O 	0.2114	0.97882	0.4523	-0.437
Mof_O 	O 	0.15454	0.97867	0.46172	-0.448
Mof_O 	O 	0.0986	0.87805	0.51072	-0.407
Mof_O 	O 	0.1264	0.8283	0.5122	-0.27
Mof_O 	O 	0.3424	0.60389	0.4264	-0.252
Mof_O 	O 	0.38878	0.57419	0.44189	-0.405
Mof_O 	O 	0.49877	0.64133	0.45879	-0.438
Mof_O 	O 	0.49423	0.69786	0.4605	-0.477
Mof_O 	O 	0.3168	0.54384	0.43348	-0.42
Mof_O 	O 	0.2886	0.02118	0.9523	-0.437
Mof_O 	O 	0.34546	0.02133	0.96172	-0.448
Mof_O 	O 	0.4014	0.12195	0.01072	-0.407
Mof_O 	O 	0.3736	0.1717	0.0122	-0.27
Mof_O 	O 	0.1576	0.39611	0.9264	-0.252
Mof_O 	O 	0.11122	0.42581	0.94189	-0.405
Mof_O 	O 	0.00123	0.35867	0.95879	-0.438
Mof_O 	O 	0.00577	0.30214	0.9605	-0.477
Mof_O 	O 	0.1832	0.45616	0.93348	-0.42
Mof_O 	O 	0.7114	0.52118	0.5477	-0.437
Mof_O 	O 	0.65454	0.52133	0.53828	-0.448
Mof_O 	O 	0.5986	0.62195	0.48928	-0.407
Mof_O 	O 	0.6264	0.6717	0.4878	-0.27
Mof_O 	O 	0.8424	0.89611	0.5736	-0.252
Mof_O 	O 	0.88878	0.92581	0.55811	-0.405
Mof_O 	O 	0.99877	0.85867	0.54121	-0.438
Mof_O 	O 	0.99423	0.80214	0.5395	-0.477
Mof_O 	O 	0.8168	0.95616	0.56652	-0.42
_end
