data_functionalizedCrystal
_audit_creation_method	'EQeq! by Chris Wilmer'
_symmetry_space_group_name_H-M	'P1'
_symmetry_Int_Tables_number	1
_symmetry_cell_setting	triclinic
loop_
_symmetry_equiv_pos_as_xyz
  x,y,z
_cell_length_a	24.435
_cell_length_b	27.255
_cell_length_c	30.407
_cell_angle_alpha	90
_cell_angle_beta	90
_cell_angle_gamma	90
loop_
_atom_site_label
_atom_site_type_symbol
_atom_site_fract_x
_atom_site_fract_y
_atom_site_fract_z
_atom_site_charge
Mof_Dy	Dy	0.74457	0.76063	0.36267	2.509
Mof_O 	O 	0.6983	0.6825	0.35062	-1.119
Mof_O 	O 	0.7424	0.76897	0.28569	-4.388
Mof_O 	O 	0.6781	0.7209	0.4112	-0.224
Mof_O 	O 	0.6607	0.7974	0.3496	-0.563
Mof_O 	O 	0.7357	0.8151	0.41828	-0.525
Mof_O 	O 	0.811	0.8181	0.34884	-0.532
Mof_O 	O 	0.8215	0.7062	0.3432	-1.102
Mof_O 	O 	0.8081	0.7233	0.4122	-0.519
Mof_C 	C 	0.6817	0.6797	0.3898	0.527
Mof_C 	C 	0.6565	0.8422	0.3447	0.518
Mof_C 	C 	0.7437	0.8288	0.4576	0.435
Mof_C 	C 	0.6549	0.6347	0.4066	-0.357
Mof_O 	O 	0.6859	0.8665	0.3192	-0.545
Mof_C 	C 	0.6131	0.8692	0.3704	-0.256
Mof_O 	O 	0.7394	0.7996	0.4888	-0.073
Mof_C 	C 	0.7442	0.8827	0.4654	-0.163
Mof_C 	C 	0.6401	0.6308	0.4506	0.204
Mof_C 	C 	0.6457	0.5946	0.3788	0.231
Mof_C 	C 	0.6044	0.9184	0.3656	0.148
Mof_C 	C 	0.5845	0.8438	0.4011	0.156
Mof_C 	C 	0.7321	0.9151	0.432	0.086
Mof_C 	C 	0.7567	0.9009	0.5069	0.065
Mof_H 	H 	0.6463	0.6571	0.4694	-0.022
Mof_C 	C 	0.6166	0.5887	0.4668	-0.253
Mof_C 	C 	0.6223	0.5523	0.3953	-0.3
Mof_H 	H 	0.6553	0.5965	0.3493	-0.258
Mof_H 	H 	0.6253	0.9362	0.3457	-0.035
Mof_C 	C 	0.5646	0.942	0.3902	-0.207
Mof_C 	C 	0.5435	0.8662	0.4249	-0.208
Mof_H 	H 	0.5926	0.811	0.406	-0.017
Mof_C 	C 	0.7332	0.9648	0.4388	-0.143
Mof_H 	H 	0.7231	0.903	0.4043	0.01
Mof_C 	C 	0.7587	0.9514	0.5144	-0.135
Mof_H 	H 	0.7637	0.8793	0.5299	0.001
Mof_C 	C 	0.6074	0.5481	0.4392	0.152
Mof_H 	H 	0.6066	0.5871	0.4962	0.123
Mof_H 	H 	0.6165	0.5259	0.3765	0.087
Mof_C 	C 	0.5328	0.9156	0.4199	0.117
Mof_H 	H 	0.5591	0.9756	0.3869	0.097
Mof_H 	H 	0.5229	0.8478	0.4446	0.103
Mof_H 	H 	0.7246	0.986	0.4158	0.078
Mof_C 	C 	0.7473	0.9838	0.4803	0.06
Mof_H 	H 	0.7677	0.9633	0.5421	0.048
Mof_C 	C 	0.5796	0.5035	0.4563	-0.032
Mof_C 	C 	0.4896	0.9397	0.4468	-0.017
Mof_C 	C 	0.7496	0.0377	0.4861	0.014
Mof_C 	C 	0.5913	0.4859	0.498	-0.063
Mof_C 	C 	0.5398	0.4798	0.4305	-0.053
Mof_C 	C 	0.477	0.923	0.4891	-0.065
Mof_C 	C 	0.7253	0.0597	0.5227	-0.093
Mof_C 	C 	0.776	0.067	0.4554	-0.091
Mof_H 	H 	0.6178	0.5013	0.5151	0.053
Mof_C 	C 	0.5628	0.4447	0.5148	0.003
Mof_H 	H 	0.533	0.4909	0.4021	0.035
Mof_H 	H 	0.4962	0.8963	0.5003	0.052
Mof_H 	H 	0.7092	0.0402	0.5442	0.05
Mof_C 	C 	0.725	0.1116	0.5273	0.011
Mof_C 	C 	0.7771	0.1178	0.4596	0.009
Mof_H 	H 	0.7933	0.0523	0.4315	0.062
Mof_C 	C 	0.5755	0.4238	0.559	0.075
Mof_C 	C 	0.6961	0.134	0.5653	0.077
Mof_C 	C 	0.7517	0.1384	0.4962	-0.084
Mof_C 	C 	0.8041	0.1473	0.4246	0.096
Mof_C 	C 	0.6291	0.4175	0.5735	-0.145
Mof_C 	C 	0.5328	0.4073	0.5851	-0.151
Mof_C 	C 	0.6456	0.1164	0.5786	-0.161
Mof_C 	C 	0.7176	0.1749	0.5867	-0.163
Mof_H 	H 	0.7529	0.1723	0.4995	0.06
Mof_C 	C 	0.7831	0.1882	0.408	-0.169
Mof_C 	C 	0.8542	0.1313	0.4078	-0.172
Mof_H 	H 	0.658	0.4279	0.556	0.086
Mof_C 	C 	0.6394	0.3961	0.6134	0.061
Mof_C 	C 	0.544	0.3846	0.6257	0.066
Mof_H 	H 	0.4968	0.4113	0.5759	0.08
Mof_H 	H 	0.6308	0.089	0.5647	0.086
Mof_C 	C 	0.6163	0.1391	0.6126	0.084
Mof_C 	C 	0.6887	0.195	0.6214	0.095
Mof_H 	H 	0.7508	0.1884	0.5778	0.085
Mof_C 	C 	0.8124	0.2155	0.3742	0.1
Mof_H 	H 	0.7495	0.1995	0.418	0.089
Mof_H 	H 	0.87	0.1029	0.419	0.095
Mof_C 	C 	0.8808	0.1568	0.3748	0.109
Mof_C 	C 	0.5966	0.3787	0.6399	-0.139
Mof_H 	H 	0.6753	0.3931	0.6232	0.018
Mof_H 	H 	0.5152	0.3735	0.6431	-0.01
Mof_H 	H 	0.5819	0.1273	0.6206	0.005
Mof_C 	C 	0.6381	0.1784	0.634	-0.187
Mof_H 	H 	0.7042	0.221	0.6368	-0.004
Mof_H 	H 	0.7976	0.2447	0.3636	-0.006
Mof_C 	C 	0.8612	0.1992	0.3577	-0.195
Mof_H 	H 	0.9134	0.1443	0.3638	-0.005
Mof_C 	C 	0.6075	0.3515	0.6813	0.34
Mof_C 	C 	0.6085	0.2028	0.6711	0.431
Mof_C 	C 	0.893	0.2254	0.3211	0.493
Mof_O 	O 	0.5677	0.3311	0.7004	-0.463
Mof_O 	O 	0.6553	0.348	0.6971	-0.429
Mof_O 	O 	0.6331	0.2353	0.6911	-0.542
Mof_O 	O 	0.5616	0.1864	0.6806	-0.332
Mof_O 	O 	0.8687	0.2586	0.3054	-0.583
Mof_O 	O 	0.9392	0.2087	0.3118	-0.358
Mof_O 	O 	0.203	0.3715	0.29481	-0.526
Mof_C 	C 	0.1845	0.3596	0.3317	0.529
Mof_C 	C 	0.155	0.3992	0.358	-0.225
Mof_C 	C 	0.1434	0.4436	0.3393	0.116
Mof_C 	C 	0.1414	0.3908	0.4014	0.131
Mof_C 	C 	0.1169	0.4799	0.3644	-0.179
Mof_H 	H 	0.1528	0.4498	0.3102	-0.014
Mof_C 	C 	0.1173	0.4258	0.4264	-0.184
Mof_H 	H 	0.1489	0.3603	0.4139	-0.006
Mof_H 	H 	0.1077	0.5098	0.3515	0.081
Mof_C 	C 	0.1046	0.4716	0.4079	0.096
Mof_H 	H 	0.1091	0.4196	0.4557	0.089
Mof_C 	C 	0.0769	0.5105	0.4345	-0.013
Mof_C 	C 	0.0933	0.5191	0.4789	-0.073
Mof_C 	C 	0.0352	0.5384	0.417	-0.054
Mof_C 	C 	0.0687	0.5545	0.5039	0.005
Mof_H 	H 	0.1213	0.5003	0.4911	0.052
Mof_C 	C 	0.0084	0.5745	0.442	-0.037
Mof_H 	H 	0.0246	0.5333	0.388	0.032
Mof_C 	C 	0.0861	0.5653	0.55	0.068
Mof_C 	C 	0.0258	0.5818	0.4851	-0.058
Mof_C 	C 	0.9622	0.6048	0.4243	0.172
Mof_C 	C 	0.0399	0.5767	0.581	-0.11
Mof_C 	C 	0.1319	0.5732	0.5619	-0.146
Mof_H 	H 	0.0085	0.6056	0.502	0.052
Mof_C 	C 	0.9607	0.6209	0.3818	-0.291
Mof_C 	C 	0.9211	0.6189	0.4515	-0.281
Mof_H 	H 	0.0037	0.573	0.5722	0.069
Mof_C 	C 	0.0522	0.5926	0.6228	0.005
Mof_C 	C 	0.1456	0.5937	0.6048	0.024
Mof_H 	H 	0.1604	0.5659	0.5427	0.079
Mof_H 	H 	0.9884	0.6118	0.3625	0.106
Mof_C 	C 	0.9177	0.6513	0.3667	0.209
Mof_H 	H 	0.9196	0.6057	0.4797	0.12
Mof_C 	C 	0.8815	0.652	0.4389	0.228
Mof_C 	C 	0.1096	0.5981	0.6348	-0.089
Mof_H 	H 	0.0246	0.5998	0.6429	0.036
Mof_H 	H 	0.1813	0.6038	0.6104	0.017
Mof_H 	H 	0.9158	0.6605	0.3373	-0.19
Mof_C 	C 	0.8782	0.6672	0.3965	-0.389
Mof_H 	H 	0.8569	0.664	0.4596	-0.031
Mof_C 	C 	0.116	0.6262	0.6795	0.249
Mof_C 	C 	0.8341	0.7003	0.3827	0.554
Mof_O 	O 	0.1629	0.6272	0.6949	-0.429
Mof_O 	O 	0.0705	0.6409	0.7009	-0.41
Mof_H 	H 	0.7558	0.6823	0.2202	5.686
Mof_H 	H 	0.7225	0.6787	0.2642	5.615
Mof_H 	H 	0.7862	0.6857	0.2655	5.604
Mof_O 	O 	0.7619	0.8015	0.4873	-0.179
Mof_O 	O 	0.6965	0.7126	0.4185	-0.25
Mof_Dy	Dy	0.25543	0.23937	0.86267	2.508
Mof_O 	O 	0.3017	0.3175	0.85062	-1.12
Mof_O 	O 	0.2576	0.23103	0.78569	-4.389
Mof_O 	O 	0.3219	0.2791	0.9112	-0.225
Mof_O 	O 	0.3393	0.2026	0.8496	-0.564
Mof_O 	O 	0.2643	0.1849	0.91828	-0.526
Mof_O 	O 	0.189	0.1819	0.84884	-0.533
Mof_O 	O 	0.1785	0.2938	0.8432	-1.103
Mof_O 	O 	0.1919	0.2767	0.9122	-0.52
Mof_C 	C 	0.3183	0.3203	0.8898	0.526
Mof_C 	C 	0.3435	0.1578	0.8447	0.518
Mof_C 	C 	0.2563	0.1712	0.9576	0.435
Mof_C 	C 	0.3451	0.3653	0.9066	-0.357
Mof_O 	O 	0.3141	0.1335	0.8192	-0.545
Mof_C 	C 	0.3869	0.1308	0.8704	-0.257
Mof_O 	O 	0.2606	0.2004	0.9888	-0.073
Mof_C 	C 	0.2558	0.1173	0.9654	-0.163
Mof_C 	C 	0.3599	0.3692	0.9506	0.204
Mof_C 	C 	0.3543	0.4054	0.8788	0.231
Mof_C 	C 	0.3956	0.0816	0.8656	0.148
Mof_C 	C 	0.4155	0.1562	0.9011	0.156
Mof_C 	C 	0.2679	0.0849	0.932	0.086
Mof_C 	C 	0.2433	0.0991	0.0069	0.065
Mof_H 	H 	0.3537	0.3429	0.9694	-0.022
Mof_C 	C 	0.3834	0.4113	0.9668	-0.253
Mof_C 	C 	0.3777	0.4477	0.8953	-0.299
Mof_H 	H 	0.3447	0.4035	0.8493	-0.258
Mof_H 	H 	0.3747	0.0638	0.8457	-0.035
Mof_C 	C 	0.4354	0.058	0.8902	-0.208
Mof_C 	C 	0.4565	0.1338	0.9249	-0.208
Mof_H 	H 	0.4074	0.189	0.906	-0.018
Mof_C 	C 	0.2668	0.0352	0.9388	-0.144
Mof_H 	H 	0.2769	0.097	0.9043	0.01
Mof_C 	C 	0.2413	0.0486	0.0144	-0.135
Mof_H 	H 	0.2363	0.1207	0.0299	0.001
Mof_C 	C 	0.3926	0.4519	0.9392	0.152
Mof_H 	H 	0.3934	0.4129	0.9962	0.122
Mof_H 	H 	0.3835	0.4741	0.8765	0.086
Mof_C 	C 	0.4672	0.0844	0.9199	0.118
Mof_H 	H 	0.4409	0.0244	0.8869	0.097
Mof_H 	H 	0.4771	0.1522	0.9446	0.103
Mof_H 	H 	0.2754	0.014	0.9158	0.078
Mof_C 	C 	0.2527	0.0162	0.9803	0.061
Mof_H 	H 	0.2323	0.0367	0.0421	0.048
Mof_C 	C 	0.4204	0.4965	0.9563	-0.032
Mof_C 	C 	0.5104	0.0603	0.9468	-0.018
Mof_C 	C 	0.2504	0.9623	0.9861	0.013
Mof_C 	C 	0.4087	0.5141	0.998	-0.063
Mof_C 	C 	0.4602	0.5202	0.9305	-0.053
Mof_C 	C 	0.523	0.077	0.9891	-0.064
Mof_C 	C 	0.2747	0.9403	0.0227	-0.092
Mof_C 	C 	0.224	0.933	0.9554	-0.091
Mof_H 	H 	0.3822	0.4987	0.0151	0.053
Mof_C 	C 	0.4372	0.5553	0.0148	0.004
Mof_H 	H 	0.467	0.5091	0.9021	0.035
Mof_H 	H 	0.5038	0.1037	0.0003	0.051
Mof_H 	H 	0.2908	0.9598	0.0442	0.05
Mof_C 	C 	0.275	0.8884	0.0273	0.011
Mof_C 	C 	0.2229	0.8822	0.9596	0.009
Mof_H 	H 	0.2067	0.9477	0.9315	0.062
Mof_C 	C 	0.4245	0.5762	0.059	0.075
Mof_C 	C 	0.3039	0.866	0.0653	0.077
Mof_C 	C 	0.2483	0.8616	0.9962	-0.084
Mof_C 	C 	0.1959	0.8527	0.9246	0.096
Mof_C 	C 	0.3709	0.5825	0.0735	-0.145
Mof_C 	C 	0.4672	0.5927	0.0851	-0.151
Mof_C 	C 	0.3544	0.8836	0.0786	-0.161
Mof_C 	C 	0.2824	0.8251	0.0867	-0.163
Mof_H 	H 	0.2471	0.8277	0.9995	0.059
Mof_C 	C 	0.2169	0.8118	0.908	-0.169
Mof_C 	C 	0.1458	0.8687	0.9078	-0.172
Mof_H 	H 	0.342	0.5721	0.056	0.086
Mof_C 	C 	0.3606	0.6039	0.1134	0.061
Mof_C 	C 	0.456	0.6154	0.1257	0.065
Mof_H 	H 	0.5032	0.5887	0.0759	0.08
Mof_H 	H 	0.3692	0.911	0.0647	0.086
Mof_C 	C 	0.3837	0.8609	0.1126	0.084
Mof_C 	C 	0.3113	0.805	0.1214	0.095
Mof_H 	H 	0.2492	0.8116	0.0778	0.085
Mof_C 	C 	0.1876	0.7845	0.8742	0.1
Mof_H 	H 	0.2505	0.8005	0.918	0.089
Mof_H 	H 	0.13	0.8971	0.919	0.095
Mof_C 	C 	0.1192	0.8432	0.8748	0.109
Mof_C 	C 	0.4034	0.6213	0.1399	-0.139
Mof_H 	H 	0.3247	0.6069	0.1232	0.018
Mof_H 	H 	0.4848	0.6265	0.1431	-0.01
Mof_H 	H 	0.4181	0.8727	0.1206	0.005
Mof_C 	C 	0.3619	0.8216	0.134	-0.187
Mof_H 	H 	0.2958	0.779	0.1368	-0.004
Mof_H 	H 	0.2024	0.7553	0.8636	-0.006
Mof_C 	C 	0.1388	0.8008	0.8577	-0.195
Mof_H 	H 	0.0866	0.8557	0.8638	-0.005
Mof_C 	C 	0.3925	0.6485	0.1813	0.34
Mof_C 	C 	0.3915	0.7972	0.1711	0.431
Mof_C 	C 	0.107	0.7746	0.8211	0.493
Mof_O 	O 	0.4323	0.6689	0.2004	-0.463
Mof_O 	O 	0.3447	0.652	0.1971	-0.429
Mof_O 	O 	0.3669	0.7647	0.1911	-0.542
Mof_O 	O 	0.4384	0.8136	0.1806	-0.332
Mof_O 	O 	0.1313	0.7414	0.8054	-0.583
Mof_O 	O 	0.0608	0.7913	0.8118	-0.358
Mof_O 	O 	0.797	0.6285	0.79481	-0.526
Mof_C 	C 	0.8155	0.6404	0.8317	0.529
Mof_C 	C 	0.845	0.6008	0.858	-0.225
Mof_C 	C 	0.8566	0.5564	0.8393	0.116
Mof_C 	C 	0.8586	0.6092	0.9014	0.131
Mof_C 	C 	0.8831	0.5201	0.8644	-0.179
Mof_H 	H 	0.8472	0.5502	0.8102	-0.014
Mof_C 	C 	0.8827	0.5742	0.9264	-0.184
Mof_H 	H 	0.8511	0.6397	0.9139	-0.006
Mof_H 	H 	0.8923	0.4902	0.8515	0.081
Mof_C 	C 	0.8954	0.5284	0.9079	0.096
Mof_H 	H 	0.8909	0.5804	0.9557	0.089
Mof_C 	C 	0.9231	0.4895	0.9345	-0.013
Mof_C 	C 	0.9067	0.4809	0.9789	-0.073
Mof_C 	C 	0.9648	0.4616	0.917	-0.054
Mof_C 	C 	0.9313	0.4455	0.0039	0.004
Mof_H 	H 	0.8787	0.4997	0.9911	0.051
Mof_C 	C 	0.9916	0.4255	0.942	-0.037
Mof_H 	H 	0.9754	0.4667	0.888	0.032
Mof_C 	C 	0.9139	0.4347	0.05	0.068
Mof_C 	C 	0.9742	0.4182	0.9851	-0.058
Mof_C 	C 	0.0378	0.3952	0.9243	0.172
Mof_C 	C 	0.9601	0.4233	0.081	-0.11
Mof_C 	C 	0.8681	0.4268	0.0619	-0.146
Mof_H 	H 	0.9915	0.3944	0.002	0.052
Mof_C 	C 	0.0393	0.3791	0.8818	-0.291
Mof_C 	C 	0.0789	0.3811	0.9515	-0.281
Mof_H 	H 	0.9963	0.427	0.0722	0.069
Mof_C 	C 	0.9478	0.4074	0.1228	0.005
Mof_C 	C 	0.8544	0.4063	0.1048	0.024
Mof_H 	H 	0.8396	0.4341	0.0427	0.079
Mof_H 	H 	0.0116	0.3882	0.8625	0.106
Mof_C 	C 	0.0823	0.3487	0.8667	0.209
Mof_H 	H 	0.0804	0.3943	0.9797	0.12
Mof_C 	C 	0.1185	0.348	0.9389	0.228
Mof_C 	C 	0.8904	0.4019	0.1348	-0.089
Mof_H 	H 	0.9754	0.4002	0.1429	0.036
Mof_H 	H 	0.8187	0.3962	0.1104	0.017
Mof_H 	H 	0.0842	0.3395	0.8373	-0.19
Mof_C 	C 	0.1218	0.3328	0.8965	-0.389
Mof_H 	H 	0.1431	0.336	0.9596	-0.031
Mof_C 	C 	0.884	0.3738	0.1795	0.249
Mof_C 	C 	0.1659	0.2997	0.8827	0.554
Mof_O 	O 	0.8371	0.3728	0.1949	-0.429
Mof_O 	O 	0.9295	0.3591	0.2009	-0.41
Mof_H 	H 	0.2442	0.3177	0.7202	5.686
Mof_H 	H 	0.2775	0.3213	0.7642	5.615
Mof_H 	H 	0.2138	0.3143	0.7655	5.604
Mof_O 	O 	0.2381	0.1985	0.9873	-0.179
Mof_O 	O 	0.3035	0.2874	0.9185	-0.25
Mof_Dy	Dy	0.25543	0.26063	0.13733	2.508
Mof_O 	O 	0.3017	0.1825	0.14938	-1.12
Mof_O 	O 	0.2576	0.26897	0.21431	-4.389
Mof_O 	O 	0.3219	0.2209	0.0888	-0.224
Mof_O 	O 	0.3393	0.2974	0.1504	-0.564
Mof_O 	O 	0.2643	0.3151	0.08172	-0.526
Mof_O 	O 	0.189	0.3181	0.15116	-0.533
Mof_O 	O 	0.1785	0.2062	0.1568	-1.103
Mof_O 	O 	0.1919	0.2233	0.0878	-0.52
Mof_C 	C 	0.3183	0.1797	0.1102	0.526
Mof_C 	C 	0.3435	0.3422	0.1553	0.518
Mof_C 	C 	0.2563	0.3288	0.0424	0.435
Mof_C 	C 	0.3451	0.1347	0.0934	-0.357
Mof_O 	O 	0.3141	0.3665	0.1808	-0.545
Mof_C 	C 	0.3869	0.3692	0.1296	-0.256
Mof_O 	O 	0.2606	0.2996	0.0112	-0.074
Mof_C 	C 	0.2558	0.3827	0.0346	-0.164
Mof_C 	C 	0.3599	0.1308	0.0494	0.204
Mof_C 	C 	0.3543	0.0946	0.1212	0.231
Mof_C 	C 	0.3956	0.4184	0.1344	0.148
Mof_C 	C 	0.4155	0.3438	0.0989	0.156
Mof_C 	C 	0.2679	0.4151	0.068	0.086
Mof_C 	C 	0.2433	0.4009	0.9931	0.065
Mof_H 	H 	0.3537	0.1571	0.0306	-0.022
Mof_C 	C 	0.3834	0.0887	0.0332	-0.253
Mof_C 	C 	0.3777	0.0523	0.1047	-0.3
Mof_H 	H 	0.3447	0.0965	0.1507	-0.258
Mof_H 	H 	0.3747	0.4362	0.1543	-0.035
Mof_C 	C 	0.4354	0.442	0.1098	-0.207
Mof_C 	C 	0.4565	0.3662	0.0751	-0.207
Mof_H 	H 	0.4074	0.311	0.094	-0.017
Mof_C 	C 	0.2668	0.4648	0.0612	-0.144
Mof_H 	H 	0.2769	0.403	0.0957	0.01
Mof_C 	C 	0.2413	0.4514	0.9856	-0.135
Mof_H 	H 	0.2363	0.3793	0.9701	0.001
Mof_C 	C 	0.3926	0.0481	0.0608	0.153
Mof_H 	H 	0.3934	0.0871	0.0038	0.123
Mof_H 	H 	0.3835	0.0259	0.1235	0.087
Mof_C 	C 	0.4672	0.4156	0.0801	0.117
Mof_H 	H 	0.4409	0.4756	0.1131	0.096
Mof_H 	H 	0.4771	0.3478	0.0554	0.103
Mof_H 	H 	0.2754	0.486	0.0842	0.078
Mof_C 	C 	0.2527	0.4838	0.0197	0.061
Mof_H 	H 	0.2323	0.4633	0.9579	0.048
Mof_C 	C 	0.4204	0.0035	0.0437	-0.034
Mof_C 	C 	0.5104	0.4397	0.0532	-0.016
Mof_C 	C 	0.2504	0.5377	0.0139	0.013
Mof_C 	C 	0.4087	0.9859	0.002	-0.061
Mof_C 	C 	0.4602	0.9798	0.0695	-0.051
Mof_C 	C 	0.523	0.423	0.0109	-0.066
Mof_C 	C 	0.2747	0.5597	0.9773	-0.092
Mof_C 	C 	0.224	0.567	0.0446	-0.091
Mof_H 	H 	0.3822	0.0013	0.9849	0.053
Mof_C 	C 	0.4372	0.9447	0.9852	0.001
Mof_H 	H 	0.467	0.9909	0.0979	0.034
Mof_H 	H 	0.5038	0.3963	0.9997	0.052
Mof_H 	H 	0.2908	0.5402	0.9558	0.05
Mof_C 	C 	0.275	0.6116	0.9727	0.011
Mof_C 	C 	0.2229	0.6178	0.0404	0.009
Mof_H 	H 	0.2067	0.5523	0.0685	0.062
Mof_C 	C 	0.4245	0.9238	0.941	0.076
Mof_C 	C 	0.3039	0.634	0.9347	0.077
Mof_C 	C 	0.2483	0.6384	0.0038	-0.084
Mof_C 	C 	0.1959	0.6473	0.0754	0.096
Mof_C 	C 	0.3709	0.9175	0.9265	-0.146
Mof_C 	C 	0.4672	0.9073	0.9149	-0.152
Mof_C 	C 	0.3544	0.6164	0.9214	-0.161
Mof_C 	C 	0.2824	0.6749	0.9133	-0.164
Mof_H 	H 	0.2471	0.6723	0.0005	0.059
Mof_C 	C 	0.2169	0.6882	0.092	-0.169
Mof_C 	C 	0.1458	0.6313	0.0922	-0.172
Mof_H 	H 	0.342	0.9279	0.944	0.086
Mof_C 	C 	0.3606	0.8961	0.8866	0.061
Mof_C 	C 	0.456	0.8846	0.8743	0.066
Mof_H 	H 	0.5032	0.9113	0.9241	0.081
Mof_H 	H 	0.3692	0.589	0.9353	0.086
Mof_C 	C 	0.3837	0.6391	0.8874	0.084
Mof_C 	C 	0.3113	0.695	0.8786	0.095
Mof_H 	H 	0.2492	0.6884	0.9222	0.085
Mof_C 	C 	0.1876	0.7155	0.1258	0.1
Mof_H 	H 	0.2505	0.6995	0.082	0.089
Mof_H 	H 	0.13	0.6029	0.081	0.095
Mof_C 	C 	0.1192	0.6568	0.1252	0.109
Mof_C 	C 	0.4034	0.8787	0.8601	-0.139
Mof_H 	H 	0.3247	0.8931	0.8768	0.018
Mof_H 	H 	0.4848	0.8735	0.8569	-0.01
Mof_H 	H 	0.4181	0.6273	0.8794	0.005
Mof_C 	C 	0.3619	0.6784	0.866	-0.187
Mof_H 	H 	0.2958	0.721	0.8632	-0.005
Mof_H 	H 	0.2024	0.7447	0.1364	-0.006
Mof_C 	C 	0.1388	0.6992	0.1423	-0.195
Mof_H 	H 	0.0866	0.6443	0.1362	-0.005
Mof_C 	C 	0.3925	0.8515	0.8187	0.341
Mof_C 	C 	0.3915	0.7028	0.8289	0.431
Mof_C 	C 	0.107	0.7254	0.1789	0.493
Mof_O 	O 	0.4323	0.8311	0.7996	-0.463
Mof_O 	O 	0.3447	0.848	0.8029	-0.429
Mof_O 	O 	0.3669	0.7353	0.8089	-0.542
Mof_O 	O 	0.4384	0.6864	0.8194	-0.332
Mof_O 	O 	0.1313	0.7586	0.1946	-0.583
Mof_O 	O 	0.0608	0.7087	0.1882	-0.358
Mof_O 	O 	0.797	0.8715	0.20519	-0.526
Mof_C 	C 	0.8155	0.8596	0.1683	0.529
Mof_C 	C 	0.845	0.8992	0.142	-0.225
Mof_C 	C 	0.8566	0.9436	0.1607	0.116
Mof_C 	C 	0.8586	0.8908	0.0986	0.131
Mof_C 	C 	0.8831	0.9799	0.1356	-0.179
Mof_H 	H 	0.8472	0.9498	0.1898	-0.015
Mof_C 	C 	0.8827	0.9258	0.0736	-0.184
Mof_H 	H 	0.8511	0.8603	0.0861	-0.006
Mof_H 	H 	0.8923	0.0098	0.1485	0.082
Mof_C 	C 	0.8954	0.9716	0.0921	0.096
Mof_H 	H 	0.8909	0.9196	0.0443	0.089
Mof_C 	C 	0.9231	0.0105	0.0655	-0.012
Mof_C 	C 	0.9067	0.0191	0.0211	-0.075
Mof_C 	C 	0.9648	0.0384	0.083	-0.055
Mof_C 	C 	0.9313	0.0545	0.9961	0.006
Mof_H 	H 	0.8787	0.0003	0.0089	0.052
Mof_C 	C 	0.9916	0.0745	0.058	-0.035
Mof_H 	H 	0.9754	0.0333	0.112	0.033
Mof_C 	C 	0.9139	0.0653	0.95	0.067
Mof_C 	C 	0.9742	0.0818	0.0149	-0.06
Mof_C 	C 	0.0378	0.1048	0.0757	0.17
Mof_C 	C 	0.9601	0.0767	0.919	-0.109
Mof_C 	C 	0.8681	0.0732	0.9381	-0.145
Mof_H 	H 	0.9915	0.1056	0.998	0.053
Mof_C 	C 	0.0393	0.1209	0.1182	-0.29
Mof_C 	C 	0.0789	0.1189	0.0485	-0.28
Mof_H 	H 	0.9963	0.073	0.9278	0.069
Mof_C 	C 	0.9478	0.0926	0.8772	0.005
Mof_C 	C 	0.8544	0.0937	0.8952	0.024
Mof_H 	H 	0.8396	0.0659	0.9573	0.079
Mof_H 	H 	0.0116	0.1118	0.1375	0.106
Mof_C 	C 	0.0823	0.1513	0.1333	0.208
Mof_H 	H 	0.0804	0.1057	0.0203	0.12
Mof_C 	C 	0.1185	0.152	0.0611	0.227
Mof_C 	C 	0.8904	0.0981	0.8652	-0.089
Mof_H 	H 	0.9754	0.0998	0.8571	0.036
Mof_H 	H 	0.8187	0.1038	0.8896	0.017
Mof_H 	H 	0.0842	0.1605	0.1627	-0.19
Mof_C 	C 	0.1218	0.1672	0.1035	-0.388
Mof_H 	H 	0.1431	0.164	0.0404	-0.031
Mof_C 	C 	0.884	0.1262	0.8205	0.249
Mof_C 	C 	0.1659	0.2003	0.1173	0.554
Mof_O 	O 	0.8371	0.1272	0.8051	-0.429
Mof_O 	O 	0.9295	0.1409	0.7991	-0.41
Mof_H 	H 	0.2442	0.1823	0.2798	5.686
Mof_H 	H 	0.2775	0.1787	0.2358	5.614
Mof_H 	H 	0.2138	0.1857	0.2345	5.604
Mof_O 	O 	0.2381	0.3015	0.0127	-0.178
Mof_O 	O 	0.3035	0.2126	0.0815	-0.251
Mof_Dy	Dy	0.74457	0.73937	0.63733	2.508
Mof_O 	O 	0.6983	0.8175	0.64938	-1.12
Mof_O 	O 	0.7424	0.73103	0.71431	-4.389
Mof_O 	O 	0.6781	0.7791	0.5888	-0.224
Mof_O 	O 	0.6607	0.7026	0.6504	-0.564
Mof_O 	O 	0.7357	0.6849	0.58172	-0.526
Mof_O 	O 	0.811	0.6819	0.65116	-0.533
Mof_O 	O 	0.8215	0.7938	0.6568	-1.103
Mof_O 	O 	0.8081	0.7767	0.5878	-0.52
Mof_C 	C 	0.6817	0.8203	0.6102	0.526
Mof_C 	C 	0.6565	0.6578	0.6553	0.518
Mof_C 	C 	0.7437	0.6712	0.5424	0.435
Mof_C 	C 	0.6549	0.8653	0.5934	-0.357
Mof_O 	O 	0.6859	0.6335	0.6808	-0.545
Mof_C 	C 	0.6131	0.6308	0.6296	-0.256
Mof_O 	O 	0.7394	0.7004	0.5112	-0.074
Mof_C 	C 	0.7442	0.6173	0.5346	-0.164
Mof_C 	C 	0.6401	0.8692	0.5494	0.204
Mof_C 	C 	0.6457	0.9054	0.6212	0.231
Mof_C 	C 	0.6044	0.5816	0.6344	0.148
Mof_C 	C 	0.5845	0.6562	0.5989	0.156
Mof_C 	C 	0.7321	0.5849	0.568	0.086
Mof_C 	C 	0.7567	0.5991	0.4931	0.066
Mof_H 	H 	0.6463	0.8429	0.5306	-0.022
Mof_C 	C 	0.6166	0.9113	0.5332	-0.253
Mof_C 	C 	0.6223	0.9477	0.6047	-0.3
Mof_H 	H 	0.6553	0.9035	0.6507	-0.258
Mof_H 	H 	0.6253	0.5638	0.6543	-0.035
Mof_C 	C 	0.5646	0.558	0.6098	-0.207
Mof_C 	C 	0.5435	0.6338	0.5751	-0.207
Mof_H 	H 	0.5926	0.689	0.594	-0.017
Mof_C 	C 	0.7332	0.5352	0.5612	-0.144
Mof_H 	H 	0.7231	0.597	0.5957	0.01
Mof_C 	C 	0.7587	0.5486	0.4856	-0.135
Mof_H 	H 	0.7637	0.6207	0.4701	0.001
Mof_C 	C 	0.6074	0.9519	0.5608	0.152
Mof_H 	H 	0.6066	0.9129	0.5038	0.123
Mof_H 	H 	0.6165	0.9741	0.6235	0.087
Mof_C 	C 	0.5328	0.5844	0.5801	0.117
Mof_H 	H 	0.5591	0.5244	0.6131	0.096
Mof_H 	H 	0.5229	0.6522	0.5554	0.103
Mof_H 	H 	0.7246	0.514	0.5842	0.078
Mof_C 	C 	0.7473	0.5162	0.5197	0.061
Mof_H 	H 	0.7677	0.5367	0.4579	0.048
Mof_C 	C 	0.5796	0.9965	0.5437	-0.033
Mof_C 	C 	0.4896	0.5603	0.5532	-0.016
Mof_C 	C 	0.7496	0.4623	0.5139	0.013
Mof_C 	C 	0.5913	0.0141	0.502	-0.062
Mof_C 	C 	0.5398	0.0202	0.5695	-0.053
Mof_C 	C 	0.477	0.577	0.5109	-0.066
Mof_C 	C 	0.7253	0.4403	0.4773	-0.092
Mof_C 	C 	0.776	0.433	0.5446	-0.091
Mof_H 	H 	0.6178	0.9987	0.4849	0.053
Mof_C 	C 	0.5628	0.0553	0.4852	0.003
Mof_H 	H 	0.533	0.0091	0.5979	0.035
Mof_H 	H 	0.4962	0.6037	0.4997	0.052
Mof_H 	H 	0.7092	0.4598	0.4558	0.05
Mof_C 	C 	0.725	0.3884	0.4727	0.011
Mof_C 	C 	0.7771	0.3822	0.5404	0.009
Mof_H 	H 	0.7933	0.4477	0.5685	0.062
Mof_C 	C 	0.5755	0.0762	0.441	0.076
Mof_C 	C 	0.6961	0.366	0.4347	0.077
Mof_C 	C 	0.7517	0.3616	0.5038	-0.084
Mof_C 	C 	0.8041	0.3527	0.5754	0.096
Mof_C 	C 	0.6291	0.0825	0.4265	-0.145
Mof_C 	C 	0.5328	0.0927	0.4149	-0.151
Mof_C 	C 	0.6456	0.3836	0.4214	-0.161
Mof_C 	C 	0.7176	0.3251	0.4133	-0.164
Mof_H 	H 	0.7529	0.3277	0.5005	0.059
Mof_C 	C 	0.7831	0.3118	0.592	-0.169
Mof_C 	C 	0.8542	0.3687	0.5922	-0.172
Mof_H 	H 	0.658	0.0721	0.444	0.086
Mof_C 	C 	0.6394	0.1039	0.3866	0.061
Mof_C 	C 	0.544	0.1154	0.3743	0.066
Mof_H 	H 	0.4968	0.0887	0.4241	0.081
Mof_H 	H 	0.6308	0.411	0.4353	0.086
Mof_C 	C 	0.6163	0.3609	0.3874	0.084
Mof_C 	C 	0.6887	0.305	0.3786	0.095
Mof_H 	H 	0.7508	0.3116	0.4222	0.085
Mof_C 	C 	0.8124	0.2845	0.6258	0.1
Mof_H 	H 	0.7495	0.3005	0.582	0.089
Mof_H 	H 	0.87	0.3971	0.581	0.095
Mof_C 	C 	0.8808	0.3432	0.6252	0.109
Mof_C 	C 	0.5966	0.1213	0.3601	-0.139
Mof_H 	H 	0.6753	0.1069	0.3768	0.018
Mof_H 	H 	0.5152	0.1265	0.3569	-0.01
Mof_H 	H 	0.5819	0.3727	0.3794	0.005
Mof_C 	C 	0.6381	0.3216	0.366	-0.187
Mof_H 	H 	0.7042	0.279	0.3632	-0.005
Mof_H 	H 	0.7976	0.2553	0.6364	-0.006
Mof_C 	C 	0.8612	0.3008	0.6423	-0.195
Mof_H 	H 	0.9134	0.3557	0.6362	-0.005
Mof_C 	C 	0.6075	0.1485	0.3187	0.34
Mof_C 	C 	0.6085	0.2972	0.3289	0.431
Mof_C 	C 	0.893	0.2746	0.6789	0.493
Mof_O 	O 	0.5677	0.1689	0.2996	-0.463
Mof_O 	O 	0.6553	0.152	0.3029	-0.429
Mof_O 	O 	0.6331	0.2647	0.3089	-0.542
Mof_O 	O 	0.5616	0.3136	0.3194	-0.332
Mof_O 	O 	0.8687	0.2414	0.6946	-0.583
Mof_O 	O 	0.9392	0.2913	0.6882	-0.358
Mof_O 	O 	0.203	0.1285	0.70519	-0.526
Mof_C 	C 	0.1845	0.1404	0.6683	0.529
Mof_C 	C 	0.155	0.1008	0.642	-0.225
Mof_C 	C 	0.1434	0.0564	0.6607	0.116
Mof_C 	C 	0.1414	0.1092	0.5986	0.131
Mof_C 	C 	0.1169	0.0201	0.6356	-0.18
Mof_H 	H 	0.1528	0.0502	0.6898	-0.015
Mof_C 	C 	0.1173	0.0742	0.5736	-0.184
Mof_H 	H 	0.1489	0.1397	0.5861	-0.006
Mof_H 	H 	0.1077	0.9902	0.6485	0.082
Mof_C 	C 	0.1046	0.0284	0.5921	0.096
Mof_H 	H 	0.1091	0.0804	0.5443	0.089
Mof_C 	C 	0.0769	0.9895	0.5655	-0.012
Mof_C 	C 	0.0933	0.9809	0.5211	-0.074
Mof_C 	C 	0.0352	0.9616	0.583	-0.055
Mof_C 	C 	0.0687	0.9455	0.4961	0.005
Mof_H 	H 	0.1213	0.9997	0.5089	0.052
Mof_C 	C 	0.0084	0.9255	0.558	-0.036
Mof_H 	H 	0.0246	0.9667	0.612	0.033
Mof_C 	C 	0.0861	0.9347	0.45	0.068
Mof_C 	C 	0.0258	0.9182	0.5149	-0.059
Mof_C 	C 	0.9622	0.8952	0.5757	0.171
Mof_C 	C 	0.0399	0.9233	0.419	-0.11
Mof_C 	C 	0.1319	0.9268	0.4381	-0.146
Mof_H 	H 	0.0085	0.8944	0.498	0.053
Mof_C 	C 	0.9607	0.8791	0.6182	-0.29
Mof_C 	C 	0.9211	0.8811	0.5485	-0.28
Mof_H 	H 	0.0037	0.927	0.4278	0.069
Mof_C 	C 	0.0522	0.9074	0.3772	0.005
Mof_C 	C 	0.1456	0.9063	0.3952	0.024
Mof_H 	H 	0.1604	0.9341	0.4573	0.079
Mof_H 	H 	0.9884	0.8882	0.6375	0.106
Mof_C 	C 	0.9177	0.8487	0.6333	0.209
Mof_H 	H 	0.9196	0.8943	0.5203	0.12
Mof_C 	C 	0.8815	0.848	0.5611	0.227
Mof_C 	C 	0.1096	0.9019	0.3652	-0.089
Mof_H 	H 	0.0246	0.9002	0.3571	0.036
Mof_H 	H 	0.1813	0.8962	0.3896	0.017
Mof_H 	H 	0.9158	0.8395	0.6627	-0.19
Mof_C 	C 	0.8782	0.8328	0.6035	-0.389
Mof_H 	H 	0.8569	0.836	0.5404	-0.031
Mof_C 	C 	0.116	0.8738	0.3205	0.249
Mof_C 	C 	0.8341	0.7997	0.6173	0.554
Mof_O 	O 	0.1629	0.8728	0.3051	-0.429
Mof_O 	O 	0.0705	0.8591	0.2991	-0.41
Mof_H 	H 	0.7558	0.8177	0.7798	5.686
Mof_H 	H 	0.7225	0.8213	0.7358	5.614
Mof_H 	H 	0.7862	0.8143	0.7345	5.604
Mof_O 	O 	0.7619	0.6985	0.5127	-0.178
Mof_O 	O 	0.6965	0.7874	0.5815	-0.251
Mof_Dy	Dy	0.25543	0.23937	0.63733	2.508
Mof_O 	O 	0.3017	0.3175	0.64938	-1.12
Mof_O 	O 	0.2576	0.23103	0.71431	-4.389
Mof_O 	O 	0.3219	0.2791	0.5888	-0.225
Mof_O 	O 	0.3393	0.2026	0.6504	-0.564
Mof_O 	O 	0.2643	0.1849	0.58172	-0.526
Mof_O 	O 	0.189	0.1819	0.65116	-0.533
Mof_O 	O 	0.1785	0.2938	0.6568	-1.103
Mof_O 	O 	0.1919	0.2767	0.5878	-0.52
Mof_C 	C 	0.3183	0.3203	0.6102	0.526
Mof_C 	C 	0.3435	0.1578	0.6553	0.518
Mof_C 	C 	0.2563	0.1712	0.5424	0.435
Mof_C 	C 	0.3451	0.3653	0.5934	-0.357
Mof_O 	O 	0.3141	0.1335	0.6808	-0.545
Mof_C 	C 	0.3869	0.1308	0.6296	-0.256
Mof_O 	O 	0.2606	0.2004	0.5112	-0.073
Mof_C 	C 	0.2558	0.1173	0.5346	-0.163
Mof_C 	C 	0.3599	0.3692	0.5494	0.204
Mof_C 	C 	0.3543	0.4054	0.6212	0.231
Mof_C 	C 	0.3956	0.0816	0.6344	0.148
Mof_C 	C 	0.4155	0.1562	0.5989	0.156
Mof_C 	C 	0.2679	0.0849	0.568	0.086
Mof_C 	C 	0.2433	0.0991	0.4931	0.065
Mof_H 	H 	0.3537	0.3429	0.5306	-0.022
Mof_C 	C 	0.3834	0.4113	0.5332	-0.253
Mof_C 	C 	0.3777	0.4477	0.6047	-0.3
Mof_H 	H 	0.3447	0.4035	0.6507	-0.258
Mof_H 	H 	0.3747	0.0638	0.6543	-0.035
Mof_C 	C 	0.4354	0.058	0.6098	-0.207
Mof_C 	C 	0.4565	0.1338	0.5751	-0.208
Mof_H 	H 	0.4074	0.189	0.594	-0.017
Mof_C 	C 	0.2668	0.0352	0.5612	-0.143
Mof_H 	H 	0.2769	0.097	0.5957	0.01
Mof_C 	C 	0.2413	0.0486	0.4856	-0.135
Mof_H 	H 	0.2363	0.1207	0.4701	0.001
Mof_C 	C 	0.3926	0.4519	0.5608	0.152
Mof_H 	H 	0.3934	0.4129	0.5038	0.123
Mof_H 	H 	0.3835	0.4741	0.6235	0.087
Mof_C 	C 	0.4672	0.0844	0.5801	0.117
Mof_H 	H 	0.4409	0.0244	0.6131	0.097
Mof_H 	H 	0.4771	0.1522	0.5554	0.103
Mof_H 	H 	0.2754	0.014	0.5842	0.078
Mof_C 	C 	0.2527	0.0162	0.5197	0.06
Mof_H 	H 	0.2323	0.0367	0.4579	0.048
Mof_C 	C 	0.4204	0.4965	0.5437	-0.032
Mof_C 	C 	0.5104	0.0603	0.5532	-0.017
Mof_C 	C 	0.2504	0.9623	0.5139	0.014
Mof_C 	C 	0.4087	0.5141	0.502	-0.063
Mof_C 	C 	0.4602	0.5202	0.5695	-0.053
Mof_C 	C 	0.523	0.077	0.5109	-0.065
Mof_C 	C 	0.2747	0.9403	0.4773	-0.093
Mof_C 	C 	0.224	0.933	0.5446	-0.091
Mof_H 	H 	0.3822	0.4987	0.4849	0.053
Mof_C 	C 	0.4372	0.5553	0.4852	0.003
Mof_H 	H 	0.467	0.5091	0.5979	0.035
Mof_H 	H 	0.5038	0.1037	0.4997	0.052
Mof_H 	H 	0.2908	0.9598	0.4558	0.05
Mof_C 	C 	0.275	0.8884	0.4727	0.011
Mof_C 	C 	0.2229	0.8822	0.5404	0.009
Mof_H 	H 	0.2067	0.9477	0.5685	0.062
Mof_C 	C 	0.4245	0.5762	0.441	0.075
Mof_C 	C 	0.3039	0.866	0.4347	0.077
Mof_C 	C 	0.2483	0.8616	0.5038	-0.084
Mof_C 	C 	0.1959	0.8527	0.5754	0.096
Mof_C 	C 	0.3709	0.5825	0.4265	-0.145
Mof_C 	C 	0.4672	0.5927	0.4149	-0.151
Mof_C 	C 	0.3544	0.8836	0.4214	-0.161
Mof_C 	C 	0.2824	0.8251	0.4133	-0.163
Mof_H 	H 	0.2471	0.8277	0.5005	0.06
Mof_C 	C 	0.2169	0.8118	0.592	-0.169
Mof_C 	C 	0.1458	0.8687	0.5922	-0.172
Mof_H 	H 	0.342	0.5721	0.444	0.086
Mof_C 	C 	0.3606	0.6039	0.3866	0.061
Mof_C 	C 	0.456	0.6154	0.3743	0.066
Mof_H 	H 	0.5032	0.5887	0.4241	0.08
Mof_H 	H 	0.3692	0.911	0.4353	0.086
Mof_C 	C 	0.3837	0.8609	0.3874	0.084
Mof_C 	C 	0.3113	0.805	0.3786	0.095
Mof_H 	H 	0.2492	0.8116	0.4222	0.085
Mof_C 	C 	0.1876	0.7845	0.6258	0.1
Mof_H 	H 	0.2505	0.8005	0.582	0.089
Mof_H 	H 	0.13	0.8971	0.581	0.095
Mof_C 	C 	0.1192	0.8432	0.6252	0.109
Mof_C 	C 	0.4034	0.6213	0.3601	-0.139
Mof_H 	H 	0.3247	0.6069	0.3768	0.018
Mof_H 	H 	0.4848	0.6265	0.3569	-0.01
Mof_H 	H 	0.4181	0.8727	0.3794	0.005
Mof_C 	C 	0.3619	0.8216	0.366	-0.187
Mof_H 	H 	0.2958	0.779	0.3632	-0.004
Mof_H 	H 	0.2024	0.7553	0.6364	-0.006
Mof_C 	C 	0.1388	0.8008	0.6423	-0.195
Mof_H 	H 	0.0866	0.8557	0.6362	-0.005
Mof_C 	C 	0.3925	0.6485	0.3187	0.34
Mof_C 	C 	0.3915	0.7972	0.3289	0.431
Mof_C 	C 	0.107	0.7746	0.6789	0.493
Mof_O 	O 	0.4323	0.6689	0.2996	-0.463
Mof_O 	O 	0.3447	0.652	0.3029	-0.429
Mof_O 	O 	0.3669	0.7647	0.3089	-0.542
Mof_O 	O 	0.4384	0.8136	0.3194	-0.332
Mof_O 	O 	0.1313	0.7414	0.6946	-0.583
Mof_O 	O 	0.0608	0.7913	0.6882	-0.358
Mof_O 	O 	0.797	0.6285	0.70519	-0.526
Mof_C 	C 	0.8155	0.6404	0.6683	0.529
Mof_C 	C 	0.845	0.6008	0.642	-0.225
Mof_C 	C 	0.8566	0.5564	0.6607	0.116
Mof_C 	C 	0.8586	0.6092	0.5986	0.131
Mof_C 	C 	0.8831	0.5201	0.6356	-0.179
Mof_H 	H 	0.8472	0.5502	0.6898	-0.014
Mof_C 	C 	0.8827	0.5742	0.5736	-0.184
Mof_H 	H 	0.8511	0.6397	0.5861	-0.006
Mof_H 	H 	0.8923	0.4902	0.6485	0.081
Mof_C 	C 	0.8954	0.5284	0.5921	0.096
Mof_H 	H 	0.8909	0.5804	0.5443	0.089
Mof_C 	C 	0.9231	0.4895	0.5655	-0.013
Mof_C 	C 	0.9067	0.4809	0.5211	-0.073
Mof_C 	C 	0.9648	0.4616	0.583	-0.054
Mof_C 	C 	0.9313	0.4455	0.4961	0.005
Mof_H 	H 	0.8787	0.4997	0.5089	0.052
Mof_C 	C 	0.9916	0.4255	0.558	-0.037
Mof_H 	H 	0.9754	0.4667	0.612	0.032
Mof_C 	C 	0.9139	0.4347	0.45	0.068
Mof_C 	C 	0.9742	0.4182	0.5149	-0.058
Mof_C 	C 	0.0378	0.3952	0.5757	0.172
Mof_C 	C 	0.9601	0.4233	0.419	-0.11
Mof_C 	C 	0.8681	0.4268	0.4381	-0.146
Mof_H 	H 	0.9915	0.3944	0.498	0.052
Mof_C 	C 	0.0393	0.3791	0.6182	-0.291
Mof_C 	C 	0.0789	0.3811	0.5485	-0.281
Mof_H 	H 	0.9963	0.427	0.4278	0.069
Mof_C 	C 	0.9478	0.4074	0.3772	0.005
Mof_C 	C 	0.8544	0.4063	0.3952	0.024
Mof_H 	H 	0.8396	0.4341	0.4573	0.079
Mof_H 	H 	0.0116	0.3882	0.6375	0.106
Mof_C 	C 	0.0823	0.3487	0.6333	0.209
Mof_H 	H 	0.0804	0.3943	0.5203	0.12
Mof_C 	C 	0.1185	0.348	0.5611	0.228
Mof_C 	C 	0.8904	0.4019	0.3652	-0.089
Mof_H 	H 	0.9754	0.4002	0.3571	0.036
Mof_H 	H 	0.8187	0.3962	0.3896	0.017
Mof_H 	H 	0.0842	0.3395	0.6627	-0.19
Mof_C 	C 	0.1218	0.3328	0.6035	-0.389
Mof_H 	H 	0.1431	0.336	0.5404	-0.031
Mof_C 	C 	0.884	0.3738	0.3205	0.249
Mof_C 	C 	0.1659	0.2997	0.6173	0.554
Mof_O 	O 	0.8371	0.3728	0.3051	-0.429
Mof_O 	O 	0.9295	0.3591	0.2991	-0.41
Mof_H 	H 	0.2442	0.3177	0.7798	5.686
Mof_H 	H 	0.2775	0.3213	0.7358	5.615
Mof_H 	H 	0.2138	0.3143	0.7345	5.604
Mof_O 	O 	0.2381	0.1985	0.5127	-0.179
Mof_O 	O 	0.3035	0.2874	0.5815	-0.25
Mof_Dy	Dy	0.74457	0.76063	0.13733	2.508
Mof_O 	O 	0.6983	0.6825	0.14938	-1.12
Mof_O 	O 	0.7424	0.76897	0.21431	-4.389
Mof_O 	O 	0.6781	0.7209	0.0888	-0.225
Mof_O 	O 	0.6607	0.7974	0.1504	-0.564
Mof_O 	O 	0.7357	0.8151	0.08172	-0.526
Mof_O 	O 	0.811	0.8181	0.15116	-0.533
Mof_O 	O 	0.8215	0.7062	0.1568	-1.103
Mof_O 	O 	0.8081	0.7233	0.0878	-0.52
Mof_C 	C 	0.6817	0.6797	0.1102	0.526
Mof_C 	C 	0.6565	0.8422	0.1553	0.518
Mof_C 	C 	0.7437	0.8288	0.0424	0.435
Mof_C 	C 	0.6549	0.6347	0.0934	-0.357
Mof_O 	O 	0.6859	0.8665	0.1808	-0.545
Mof_C 	C 	0.6131	0.8692	0.1296	-0.257
Mof_O 	O 	0.7394	0.7996	0.0112	-0.073
Mof_C 	C 	0.7442	0.8827	0.0346	-0.163
Mof_C 	C 	0.6401	0.6308	0.0494	0.204
Mof_C 	C 	0.6457	0.5946	0.1212	0.231
Mof_C 	C 	0.6044	0.9184	0.1344	0.148
Mof_C 	C 	0.5845	0.8438	0.0989	0.156
Mof_C 	C 	0.7321	0.9151	0.068	0.086
Mof_C 	C 	0.7567	0.9009	0.9931	0.065
Mof_H 	H 	0.6463	0.6571	0.0306	-0.022
Mof_C 	C 	0.6166	0.5887	0.0332	-0.253
Mof_C 	C 	0.6223	0.5523	0.1047	-0.299
Mof_H 	H 	0.6553	0.5965	0.1507	-0.258
Mof_H 	H 	0.6253	0.9362	0.1543	-0.035
Mof_C 	C 	0.5646	0.942	0.1098	-0.208
Mof_C 	C 	0.5435	0.8662	0.0751	-0.208
Mof_H 	H 	0.5926	0.811	0.094	-0.018
Mof_C 	C 	0.7332	0.9648	0.0612	-0.144
Mof_H 	H 	0.7231	0.903	0.0957	0.01
Mof_C 	C 	0.7587	0.9514	0.9856	-0.135
Mof_H 	H 	0.7637	0.8793	0.9701	0.001
Mof_C 	C 	0.6074	0.5481	0.0608	0.152
Mof_H 	H 	0.6066	0.5871	0.0038	0.122
Mof_H 	H 	0.6165	0.5259	0.1235	0.086
Mof_C 	C 	0.5328	0.9156	0.0801	0.118
Mof_H 	H 	0.5591	0.9756	0.1131	0.097
Mof_H 	H 	0.5229	0.8478	0.0554	0.103
Mof_H 	H 	0.7246	0.986	0.0842	0.078
Mof_C 	C 	0.7473	0.9838	0.0197	0.061
Mof_H 	H 	0.7677	0.9633	0.9579	0.048
Mof_C 	C 	0.5796	0.5035	0.0437	-0.032
Mof_C 	C 	0.4896	0.9397	0.0532	-0.018
Mof_C 	C 	0.7496	0.0377	0.0139	0.013
Mof_C 	C 	0.5913	0.4859	0.002	-0.063
Mof_C 	C 	0.5398	0.4798	0.0695	-0.053
Mof_C 	C 	0.477	0.923	0.0109	-0.064
Mof_C 	C 	0.7253	0.0597	0.9773	-0.092
Mof_C 	C 	0.776	0.067	0.0446	-0.091
Mof_H 	H 	0.6178	0.5013	0.9849	0.053
Mof_C 	C 	0.5628	0.4447	0.9852	0.004
Mof_H 	H 	0.533	0.4909	0.0979	0.035
Mof_H 	H 	0.4962	0.8963	0.9997	0.051
Mof_H 	H 	0.7092	0.0402	0.9558	0.05
Mof_C 	C 	0.725	0.1116	0.9727	0.011
Mof_C 	C 	0.7771	0.1178	0.0404	0.009
Mof_H 	H 	0.7933	0.0523	0.0685	0.062
Mof_C 	C 	0.5755	0.4238	0.941	0.075
Mof_C 	C 	0.6961	0.134	0.9347	0.077
Mof_C 	C 	0.7517	0.1384	0.0038	-0.084
Mof_C 	C 	0.8041	0.1473	0.0754	0.096
Mof_C 	C 	0.6291	0.4175	0.9265	-0.145
Mof_C 	C 	0.5328	0.4073	0.9149	-0.151
Mof_C 	C 	0.6456	0.1164	0.9214	-0.161
Mof_C 	C 	0.7176	0.1749	0.9133	-0.163
Mof_H 	H 	0.7529	0.1723	0.0005	0.059
Mof_C 	C 	0.7831	0.1882	0.092	-0.169
Mof_C 	C 	0.8542	0.1313	0.0922	-0.172
Mof_H 	H 	0.658	0.4279	0.944	0.086
Mof_C 	C 	0.6394	0.3961	0.8866	0.061
Mof_C 	C 	0.544	0.3846	0.8743	0.065
Mof_H 	H 	0.4968	0.4113	0.9241	0.08
Mof_H 	H 	0.6308	0.089	0.9353	0.086
Mof_C 	C 	0.6163	0.1391	0.8874	0.084
Mof_C 	C 	0.6887	0.195	0.8786	0.095
Mof_H 	H 	0.7508	0.1884	0.9222	0.085
Mof_C 	C 	0.8124	0.2155	0.1258	0.1
Mof_H 	H 	0.7495	0.1995	0.082	0.089
Mof_H 	H 	0.87	0.1029	0.081	0.095
Mof_C 	C 	0.8808	0.1568	0.1252	0.109
Mof_C 	C 	0.5966	0.3787	0.8601	-0.139
Mof_H 	H 	0.6753	0.3931	0.8768	0.018
Mof_H 	H 	0.5152	0.3735	0.8569	-0.01
Mof_H 	H 	0.5819	0.1273	0.8794	0.005
Mof_C 	C 	0.6381	0.1784	0.866	-0.187
Mof_H 	H 	0.7042	0.221	0.8632	-0.004
Mof_H 	H 	0.7976	0.2447	0.1364	-0.006
Mof_C 	C 	0.8612	0.1992	0.1423	-0.195
Mof_H 	H 	0.9134	0.1443	0.1362	-0.005
Mof_C 	C 	0.6075	0.3515	0.8187	0.34
Mof_C 	C 	0.6085	0.2028	0.8289	0.431
Mof_C 	C 	0.893	0.2254	0.1789	0.493
Mof_O 	O 	0.5677	0.3311	0.7996	-0.463
Mof_O 	O 	0.6553	0.348	0.8029	-0.429
Mof_O 	O 	0.6331	0.2353	0.8089	-0.542
Mof_O 	O 	0.5616	0.1864	0.8194	-0.332
Mof_O 	O 	0.8687	0.2586	0.1946	-0.583
Mof_O 	O 	0.9392	0.2087	0.1882	-0.358
Mof_O 	O 	0.203	0.3715	0.20519	-0.526
Mof_C 	C 	0.1845	0.3596	0.1683	0.529
Mof_C 	C 	0.155	0.3992	0.142	-0.225
Mof_C 	C 	0.1434	0.4436	0.1607	0.116
Mof_C 	C 	0.1414	0.3908	0.0986	0.131
Mof_C 	C 	0.1169	0.4799	0.1356	-0.179
Mof_H 	H 	0.1528	0.4498	0.1898	-0.014
Mof_C 	C 	0.1173	0.4258	0.0736	-0.184
Mof_H 	H 	0.1489	0.3603	0.0861	-0.006
Mof_H 	H 	0.1077	0.5098	0.1485	0.081
Mof_C 	C 	0.1046	0.4716	0.0921	0.096
Mof_H 	H 	0.1091	0.4196	0.0443	0.089
Mof_C 	C 	0.0769	0.5105	0.0655	-0.013
Mof_C 	C 	0.0933	0.5191	0.0211	-0.073
Mof_C 	C 	0.0352	0.5384	0.083	-0.054
Mof_C 	C 	0.0687	0.5545	0.9961	0.004
Mof_H 	H 	0.1213	0.5003	0.0089	0.051
Mof_C 	C 	0.0084	0.5745	0.058	-0.037
Mof_H 	H 	0.0246	0.5333	0.112	0.032
Mof_C 	C 	0.0861	0.5653	0.95	0.068
Mof_C 	C 	0.0258	0.5818	0.0149	-0.058
Mof_C 	C 	0.9622	0.6048	0.0757	0.172
Mof_C 	C 	0.0399	0.5767	0.919	-0.11
Mof_C 	C 	0.1319	0.5732	0.9381	-0.146
Mof_H 	H 	0.0085	0.6056	0.998	0.052
Mof_C 	C 	0.9607	0.6209	0.1182	-0.291
Mof_C 	C 	0.9211	0.6189	0.0485	-0.281
Mof_H 	H 	0.0037	0.573	0.9278	0.069
Mof_C 	C 	0.0522	0.5926	0.8772	0.005
Mof_C 	C 	0.1456	0.5937	0.8952	0.024
Mof_H 	H 	0.1604	0.5659	0.9573	0.079
Mof_H 	H 	0.9884	0.6118	0.1375	0.106
Mof_C 	C 	0.9177	0.6513	0.1333	0.209
Mof_H 	H 	0.9196	0.6057	0.0203	0.12
Mof_C 	C 	0.8815	0.652	0.0611	0.228
Mof_C 	C 	0.1096	0.5981	0.8652	-0.089
Mof_H 	H 	0.0246	0.5998	0.8571	0.036
Mof_H 	H 	0.1813	0.6038	0.8896	0.017
Mof_H 	H 	0.9158	0.6605	0.1627	-0.19
Mof_C 	C 	0.8782	0.6672	0.1035	-0.389
Mof_H 	H 	0.8569	0.664	0.0404	-0.031
Mof_C 	C 	0.116	0.6262	0.8205	0.249
Mof_C 	C 	0.8341	0.7003	0.1173	0.554
Mof_O 	O 	0.1629	0.6272	0.8051	-0.429
Mof_O 	O 	0.0705	0.6409	0.7991	-0.41
Mof_H 	H 	0.7558	0.6823	0.2798	5.686
Mof_H 	H 	0.7225	0.6787	0.2358	5.615
Mof_H 	H 	0.7862	0.6857	0.2345	5.604
Mof_O 	O 	0.7619	0.8015	0.0127	-0.179
Mof_O 	O 	0.6965	0.7126	0.0815	-0.25
Mof_Dy	Dy	0.74457	0.73937	0.86267	2.508
Mof_O 	O 	0.6983	0.8175	0.85062	-1.12
Mof_O 	O 	0.7424	0.73103	0.78569	-4.389
Mof_O 	O 	0.6781	0.7791	0.9112	-0.224
Mof_O 	O 	0.6607	0.7026	0.8496	-0.564
Mof_O 	O 	0.7357	0.6849	0.91828	-0.526
Mof_O 	O 	0.811	0.6819	0.84884	-0.533
Mof_O 	O 	0.8215	0.7938	0.8432	-1.103
Mof_O 	O 	0.8081	0.7767	0.9122	-0.52
Mof_C 	C 	0.6817	0.8203	0.8898	0.526
Mof_C 	C 	0.6565	0.6578	0.8447	0.518
Mof_C 	C 	0.7437	0.6712	0.9576	0.435
Mof_C 	C 	0.6549	0.8653	0.9066	-0.357
Mof_O 	O 	0.6859	0.6335	0.8192	-0.545
Mof_C 	C 	0.6131	0.6308	0.8704	-0.256
Mof_O 	O 	0.7394	0.7004	0.9888	-0.074
Mof_C 	C 	0.7442	0.6173	0.9654	-0.164
Mof_C 	C 	0.6401	0.8692	0.9506	0.204
Mof_C 	C 	0.6457	0.9054	0.8788	0.231
Mof_C 	C 	0.6044	0.5816	0.8656	0.148
Mof_C 	C 	0.5845	0.6562	0.9011	0.156
Mof_C 	C 	0.7321	0.5849	0.932	0.086
Mof_C 	C 	0.7567	0.5991	0.0069	0.065
Mof_H 	H 	0.6463	0.8429	0.9694	-0.022
Mof_C 	C 	0.6166	0.9113	0.9668	-0.253
Mof_C 	C 	0.6223	0.9477	0.8953	-0.3
Mof_H 	H 	0.6553	0.9035	0.8493	-0.258
Mof_H 	H 	0.6253	0.5638	0.8457	-0.035
Mof_C 	C 	0.5646	0.558	0.8902	-0.207
Mof_C 	C 	0.5435	0.6338	0.9249	-0.207
Mof_H 	H 	0.5926	0.689	0.906	-0.017
Mof_C 	C 	0.7332	0.5352	0.9388	-0.144
Mof_H 	H 	0.7231	0.597	0.9043	0.01
Mof_C 	C 	0.7587	0.5486	0.0144	-0.135
Mof_H 	H 	0.7637	0.6207	0.0299	0.001
Mof_C 	C 	0.6074	0.9519	0.9392	0.153
Mof_H 	H 	0.6066	0.9129	0.9962	0.123
Mof_H 	H 	0.6165	0.9741	0.8765	0.087
Mof_C 	C 	0.5328	0.5844	0.9199	0.117
Mof_H 	H 	0.5591	0.5244	0.8869	0.096
Mof_H 	H 	0.5229	0.6522	0.9446	0.103
Mof_H 	H 	0.7246	0.514	0.9158	0.078
Mof_C 	C 	0.7473	0.5162	0.9803	0.061
Mof_H 	H 	0.7677	0.5367	0.0421	0.048
Mof_C 	C 	0.5796	0.9965	0.9563	-0.034
Mof_C 	C 	0.4896	0.5603	0.9468	-0.016
Mof_C 	C 	0.7496	0.4623	0.9861	0.013
Mof_C 	C 	0.5913	0.0141	0.998	-0.061
Mof_C 	C 	0.5398	0.0202	0.9305	-0.051
Mof_C 	C 	0.477	0.577	0.9891	-0.066
Mof_C 	C 	0.7253	0.4403	0.0227	-0.092
Mof_C 	C 	0.776	0.433	0.9554	-0.091
Mof_H 	H 	0.6178	0.9987	0.0151	0.053
Mof_C 	C 	0.5628	0.0553	0.0148	0.001
Mof_H 	H 	0.533	0.0091	0.9021	0.034
Mof_H 	H 	0.4962	0.6037	0.0003	0.052
Mof_H 	H 	0.7092	0.4598	0.0442	0.05
Mof_C 	C 	0.725	0.3884	0.0273	0.011
Mof_C 	C 	0.7771	0.3822	0.9596	0.009
Mof_H 	H 	0.7933	0.4477	0.9315	0.062
Mof_C 	C 	0.5755	0.0762	0.059	0.076
Mof_C 	C 	0.6961	0.366	0.0653	0.077
Mof_C 	C 	0.7517	0.3616	0.9962	-0.084
Mof_C 	C 	0.8041	0.3527	0.9246	0.096
Mof_C 	C 	0.6291	0.0825	0.0735	-0.146
Mof_C 	C 	0.5328	0.0927	0.0851	-0.152
Mof_C 	C 	0.6456	0.3836	0.0786	-0.161
Mof_C 	C 	0.7176	0.3251	0.0867	-0.164
Mof_H 	H 	0.7529	0.3277	0.9995	0.059
Mof_C 	C 	0.7831	0.3118	0.908	-0.169
Mof_C 	C 	0.8542	0.3687	0.9078	-0.172
Mof_H 	H 	0.658	0.0721	0.056	0.086
Mof_C 	C 	0.6394	0.1039	0.1134	0.061
Mof_C 	C 	0.544	0.1154	0.1257	0.066
Mof_H 	H 	0.4968	0.0887	0.0759	0.081
Mof_H 	H 	0.6308	0.411	0.0647	0.086
Mof_C 	C 	0.6163	0.3609	0.1126	0.084
Mof_C 	C 	0.6887	0.305	0.1214	0.095
Mof_H 	H 	0.7508	0.3116	0.0778	0.085
Mof_C 	C 	0.8124	0.2845	0.8742	0.1
Mof_H 	H 	0.7495	0.3005	0.918	0.089
Mof_H 	H 	0.87	0.3971	0.919	0.095
Mof_C 	C 	0.8808	0.3432	0.8748	0.109
Mof_C 	C 	0.5966	0.1213	0.1399	-0.139
Mof_H 	H 	0.6753	0.1069	0.1232	0.018
Mof_H 	H 	0.5152	0.1265	0.1431	-0.01
Mof_H 	H 	0.5819	0.3727	0.1206	0.005
Mof_C 	C 	0.6381	0.3216	0.134	-0.187
Mof_H 	H 	0.7042	0.279	0.1368	-0.005
Mof_H 	H 	0.7976	0.2553	0.8636	-0.006
Mof_C 	C 	0.8612	0.3008	0.8577	-0.195
Mof_H 	H 	0.9134	0.3557	0.8638	-0.005
Mof_C 	C 	0.6075	0.1485	0.1813	0.341
Mof_C 	C 	0.6085	0.2972	0.1711	0.431
Mof_C 	C 	0.893	0.2746	0.8211	0.493
Mof_O 	O 	0.5677	0.1689	0.2004	-0.463
Mof_O 	O 	0.6553	0.152	0.1971	-0.429
Mof_O 	O 	0.6331	0.2647	0.1911	-0.542
Mof_O 	O 	0.5616	0.3136	0.1806	-0.332
Mof_O 	O 	0.8687	0.2414	0.8054	-0.583
Mof_O 	O 	0.9392	0.2913	0.8118	-0.358
Mof_O 	O 	0.203	0.1285	0.79481	-0.526
Mof_C 	C 	0.1845	0.1404	0.8317	0.529
Mof_C 	C 	0.155	0.1008	0.858	-0.225
Mof_C 	C 	0.1434	0.0564	0.8393	0.116
Mof_C 	C 	0.1414	0.1092	0.9014	0.131
Mof_C 	C 	0.1169	0.0201	0.8644	-0.179
Mof_H 	H 	0.1528	0.0502	0.8102	-0.015
Mof_C 	C 	0.1173	0.0742	0.9264	-0.184
Mof_H 	H 	0.1489	0.1397	0.9139	-0.006
Mof_H 	H 	0.1077	0.9902	0.8515	0.082
Mof_C 	C 	0.1046	0.0284	0.9079	0.096
Mof_H 	H 	0.1091	0.0804	0.9557	0.089
Mof_C 	C 	0.0769	0.9895	0.9345	-0.012
Mof_C 	C 	0.0933	0.9809	0.9789	-0.075
Mof_C 	C 	0.0352	0.9616	0.917	-0.055
Mof_C 	C 	0.0687	0.9455	0.0039	0.006
Mof_H 	H 	0.1213	0.9997	0.9911	0.052
Mof_C 	C 	0.0084	0.9255	0.942	-0.035
Mof_H 	H 	0.0246	0.9667	0.888	0.033
Mof_C 	C 	0.0861	0.9347	0.05	0.067
Mof_C 	C 	0.0258	0.9182	0.9851	-0.06
Mof_C 	C 	0.9622	0.8952	0.9243	0.17
Mof_C 	C 	0.0399	0.9233	0.081	-0.109
Mof_C 	C 	0.1319	0.9268	0.0619	-0.145
Mof_H 	H 	0.0085	0.8944	0.002	0.053
Mof_C 	C 	0.9607	0.8791	0.8818	-0.29
Mof_C 	C 	0.9211	0.8811	0.9515	-0.28
Mof_H 	H 	0.0037	0.927	0.0722	0.069
Mof_C 	C 	0.0522	0.9074	0.1228	0.005
Mof_C 	C 	0.1456	0.9063	0.1048	0.024
Mof_H 	H 	0.1604	0.9341	0.0427	0.079
Mof_H 	H 	0.9884	0.8882	0.8625	0.106
Mof_C 	C 	0.9177	0.8487	0.8667	0.208
Mof_H 	H 	0.9196	0.8943	0.9797	0.12
Mof_C 	C 	0.8815	0.848	0.9389	0.227
Mof_C 	C 	0.1096	0.9019	0.1348	-0.089
Mof_H 	H 	0.0246	0.9002	0.1429	0.036
Mof_H 	H 	0.1813	0.8962	0.1104	0.017
Mof_H 	H 	0.9158	0.8395	0.8373	-0.19
Mof_C 	C 	0.8782	0.8328	0.8965	-0.388
Mof_H 	H 	0.8569	0.836	0.9596	-0.031
Mof_C 	C 	0.116	0.8738	0.1795	0.249
Mof_C 	C 	0.8341	0.7997	0.8827	0.554
Mof_O 	O 	0.1629	0.8728	0.1949	-0.429
Mof_O 	O 	0.0705	0.8591	0.2009	-0.41
Mof_H 	H 	0.7558	0.8177	0.7202	5.686
Mof_H 	H 	0.7225	0.8213	0.7642	5.614
Mof_H 	H 	0.7862	0.8143	0.7655	5.604
Mof_O 	O 	0.7619	0.6985	0.9873	-0.178
Mof_O 	O 	0.6965	0.7874	0.9185	-0.251
Mof_Dy	Dy	0.25543	0.26063	0.36267	2.508
Mof_O 	O 	0.3017	0.1825	0.35062	-1.12
Mof_O 	O 	0.2576	0.26897	0.28569	-4.389
Mof_O 	O 	0.3219	0.2209	0.4112	-0.224
Mof_O 	O 	0.3393	0.2974	0.3496	-0.564
Mof_O 	O 	0.2643	0.3151	0.41828	-0.526
Mof_O 	O 	0.189	0.3181	0.34884	-0.533
Mof_O 	O 	0.1785	0.2062	0.3432	-1.103
Mof_O 	O 	0.1919	0.2233	0.4122	-0.52
Mof_C 	C 	0.3183	0.1797	0.3898	0.526
Mof_C 	C 	0.3435	0.3422	0.3447	0.518
Mof_C 	C 	0.2563	0.3288	0.4576	0.435
Mof_C 	C 	0.3451	0.1347	0.4066	-0.357
Mof_O 	O 	0.3141	0.3665	0.3192	-0.545
Mof_C 	C 	0.3869	0.3692	0.3704	-0.256
Mof_O 	O 	0.2606	0.2996	0.4888	-0.074
Mof_C 	C 	0.2558	0.3827	0.4654	-0.164
Mof_C 	C 	0.3599	0.1308	0.4506	0.204
Mof_C 	C 	0.3543	0.0946	0.3788	0.231
Mof_C 	C 	0.3956	0.4184	0.3656	0.148
Mof_C 	C 	0.4155	0.3438	0.4011	0.156
Mof_C 	C 	0.2679	0.4151	0.432	0.086
Mof_C 	C 	0.2433	0.4009	0.5069	0.066
Mof_H 	H 	0.3537	0.1571	0.4694	-0.022
Mof_C 	C 	0.3834	0.0887	0.4668	-0.253
Mof_C 	C 	0.3777	0.0523	0.3953	-0.3
Mof_H 	H 	0.3447	0.0965	0.3493	-0.258
Mof_H 	H 	0.3747	0.4362	0.3457	-0.035
Mof_C 	C 	0.4354	0.442	0.3902	-0.207
Mof_C 	C 	0.4565	0.3662	0.4249	-0.207
Mof_H 	H 	0.4074	0.311	0.406	-0.017
Mof_C 	C 	0.2668	0.4648	0.4388	-0.144
Mof_H 	H 	0.2769	0.403	0.4043	0.01
Mof_C 	C 	0.2413	0.4514	0.5144	-0.135
Mof_H 	H 	0.2363	0.3793	0.5299	0.001
Mof_C 	C 	0.3926	0.0481	0.4392	0.152
Mof_H 	H 	0.3934	0.0871	0.4962	0.123
Mof_H 	H 	0.3835	0.0259	0.3765	0.087
Mof_C 	C 	0.4672	0.4156	0.4199	0.117
Mof_H 	H 	0.4409	0.4756	0.3869	0.096
Mof_H 	H 	0.4771	0.3478	0.4446	0.103
Mof_H 	H 	0.2754	0.486	0.4158	0.078
Mof_C 	C 	0.2527	0.4838	0.4803	0.061
Mof_H 	H 	0.2323	0.4633	0.5421	0.048
Mof_C 	C 	0.4204	0.0035	0.4563	-0.033
Mof_C 	C 	0.5104	0.4397	0.4468	-0.016
Mof_C 	C 	0.2504	0.5377	0.4861	0.013
Mof_C 	C 	0.4087	0.9859	0.498	-0.062
Mof_C 	C 	0.4602	0.9798	0.4305	-0.053
Mof_C 	C 	0.523	0.423	0.4891	-0.066
Mof_C 	C 	0.2747	0.5597	0.5227	-0.092
Mof_C 	C 	0.224	0.567	0.4554	-0.091
Mof_H 	H 	0.3822	0.0013	0.5151	0.053
Mof_C 	C 	0.4372	0.9447	0.5148	0.003
Mof_H 	H 	0.467	0.9909	0.4021	0.035
Mof_H 	H 	0.5038	0.3963	0.5003	0.052
Mof_H 	H 	0.2908	0.5402	0.5442	0.05
Mof_C 	C 	0.275	0.6116	0.5273	0.011
Mof_C 	C 	0.2229	0.6178	0.4596	0.009
Mof_H 	H 	0.2067	0.5523	0.4315	0.062
Mof_C 	C 	0.4245	0.9238	0.559	0.076
Mof_C 	C 	0.3039	0.634	0.5653	0.077
Mof_C 	C 	0.2483	0.6384	0.4962	-0.084
Mof_C 	C 	0.1959	0.6473	0.4246	0.096
Mof_C 	C 	0.3709	0.9175	0.5735	-0.145
Mof_C 	C 	0.4672	0.9073	0.5851	-0.151
Mof_C 	C 	0.3544	0.6164	0.5786	-0.161
Mof_C 	C 	0.2824	0.6749	0.5867	-0.164
Mof_H 	H 	0.2471	0.6723	0.4995	0.059
Mof_C 	C 	0.2169	0.6882	0.408	-0.169
Mof_C 	C 	0.1458	0.6313	0.4078	-0.172
Mof_H 	H 	0.342	0.9279	0.556	0.086
Mof_C 	C 	0.3606	0.8961	0.6134	0.061
Mof_C 	C 	0.456	0.8846	0.6257	0.066
Mof_H 	H 	0.5032	0.9113	0.5759	0.081
Mof_H 	H 	0.3692	0.589	0.5647	0.086
Mof_C 	C 	0.3837	0.6391	0.6126	0.084
Mof_C 	C 	0.3113	0.695	0.6214	0.095
Mof_H 	H 	0.2492	0.6884	0.5778	0.085
Mof_C 	C 	0.1876	0.7155	0.3742	0.1
Mof_H 	H 	0.2505	0.6995	0.418	0.089
Mof_H 	H 	0.13	0.6029	0.419	0.095
Mof_C 	C 	0.1192	0.6568	0.3748	0.109
Mof_C 	C 	0.4034	0.8787	0.6399	-0.139
Mof_H 	H 	0.3247	0.8931	0.6232	0.018
Mof_H 	H 	0.4848	0.8735	0.6431	-0.01
Mof_H 	H 	0.4181	0.6273	0.6206	0.005
Mof_C 	C 	0.3619	0.6784	0.634	-0.187
Mof_H 	H 	0.2958	0.721	0.6368	-0.005
Mof_H 	H 	0.2024	0.7447	0.3636	-0.006
Mof_C 	C 	0.1388	0.6992	0.3577	-0.195
Mof_H 	H 	0.0866	0.6443	0.3638	-0.005
Mof_C 	C 	0.3925	0.8515	0.6813	0.34
Mof_C 	C 	0.3915	0.7028	0.6711	0.431
Mof_C 	C 	0.107	0.7254	0.3211	0.493
Mof_O 	O 	0.4323	0.8311	0.7004	-0.463
Mof_O 	O 	0.3447	0.848	0.6971	-0.429
Mof_O 	O 	0.3669	0.7353	0.6911	-0.542
Mof_O 	O 	0.4384	0.6864	0.6806	-0.332
Mof_O 	O 	0.1313	0.7586	0.3054	-0.583
Mof_O 	O 	0.0608	0.7087	0.3118	-0.358
Mof_O 	O 	0.797	0.8715	0.29481	-0.526
Mof_C 	C 	0.8155	0.8596	0.3317	0.529
Mof_C 	C 	0.845	0.8992	0.358	-0.225
Mof_C 	C 	0.8566	0.9436	0.3393	0.116
Mof_C 	C 	0.8586	0.8908	0.4014	0.131
Mof_C 	C 	0.8831	0.9799	0.3644	-0.18
Mof_H 	H 	0.8472	0.9498	0.3102	-0.015
Mof_C 	C 	0.8827	0.9258	0.4264	-0.184
Mof_H 	H 	0.8511	0.8603	0.4139	-0.006
Mof_H 	H 	0.8923	0.0098	0.3515	0.082
Mof_C 	C 	0.8954	0.9716	0.4079	0.096
Mof_H 	H 	0.8909	0.9196	0.4557	0.089
Mof_C 	C 	0.9231	0.0105	0.4345	-0.012
Mof_C 	C 	0.9067	0.0191	0.4789	-0.074
Mof_C 	C 	0.9648	0.0384	0.417	-0.055
Mof_C 	C 	0.9313	0.0545	0.5039	0.005
Mof_H 	H 	0.8787	0.0003	0.4911	0.052
Mof_C 	C 	0.9916	0.0745	0.442	-0.036
Mof_H 	H 	0.9754	0.0333	0.388	0.033
Mof_C 	C 	0.9139	0.0653	0.55	0.068
Mof_C 	C 	0.9742	0.0818	0.4851	-0.059
Mof_C 	C 	0.0378	0.1048	0.4243	0.171
Mof_C 	C 	0.9601	0.0767	0.581	-0.11
Mof_C 	C 	0.8681	0.0732	0.5619	-0.146
Mof_H 	H 	0.9915	0.1056	0.502	0.053
Mof_C 	C 	0.0393	0.1209	0.3818	-0.29
Mof_C 	C 	0.0789	0.1189	0.4515	-0.28
Mof_H 	H 	0.9963	0.073	0.5722	0.069
Mof_C 	C 	0.9478	0.0926	0.6228	0.005
Mof_C 	C 	0.8544	0.0937	0.6048	0.024
Mof_H 	H 	0.8396	0.0659	0.5427	0.079
Mof_H 	H 	0.0116	0.1118	0.3625	0.106
Mof_C 	C 	0.0823	0.1513	0.3667	0.209
Mof_H 	H 	0.0804	0.1057	0.4797	0.12
Mof_C 	C 	0.1185	0.152	0.4389	0.227
Mof_C 	C 	0.8904	0.0981	0.6348	-0.089
Mof_H 	H 	0.9754	0.0998	0.6429	0.036
Mof_H 	H 	0.8187	0.1038	0.6104	0.017
Mof_H 	H 	0.0842	0.1605	0.3373	-0.19
Mof_C 	C 	0.1218	0.1672	0.3965	-0.389
Mof_H 	H 	0.1431	0.164	0.4596	-0.031
Mof_C 	C 	0.884	0.1262	0.6795	0.249
Mof_C 	C 	0.1659	0.2003	0.3827	0.554
Mof_O 	O 	0.8371	0.1272	0.6949	-0.429
Mof_O 	O 	0.9295	0.1409	0.7009	-0.41
Mof_H 	H 	0.2442	0.1823	0.2202	5.686
Mof_H 	H 	0.2775	0.1787	0.2642	5.614
Mof_H 	H 	0.2138	0.1857	0.2655	5.604
Mof_O 	O 	0.2381	0.3015	0.4873	-0.178
Mof_O 	O 	0.3035	0.2126	0.4185	-0.251
Mof_C 	C 	0.7463	0.7443	0.25	12.889
Mof_Dy	Dy	0.72428	0.85048	0.25	2.054
Mof_C 	C 	0.7532	0.6939	0.25	-34.316
Mof_Dy	Dy	0.87278	0.31286	0.25	1.821
Mof_C 	C 	0.2537	0.2557	0.75	12.889
Mof_Dy	Dy	0.27572	0.14952	0.75	2.054
Mof_C 	C 	0.2468	0.3061	0.75	-34.316
Mof_Dy	Dy	0.12722	0.68714	0.75	1.821
Mof_C 	C 	0.2537	0.2443	0.25	12.887
Mof_Dy	Dy	0.27572	0.35048	0.25	2.054
Mof_C 	C 	0.2468	0.1939	0.25	-34.311
Mof_Dy	Dy	0.12722	0.81286	0.25	1.821
Mof_C 	C 	0.7463	0.7557	0.75	12.887
Mof_Dy	Dy	0.72428	0.64952	0.75	2.054
Mof_C 	C 	0.7532	0.8061	0.75	-34.311
Mof_Dy	Dy	0.87278	0.18714	0.75	1.821
Mof_Dy	Dy	0.62513	0.28651	0.75	1.816
Mof_Dy	Dy	0.37487	0.71349	0.25	1.816
Mof_Dy	Dy	0.37487	0.78651	0.75	1.816
Mof_Dy	Dy	0.62513	0.21349	0.25	1.816
_end
