data_functionalizedCrystal
_audit_creation_method	'EQeq! by Chris Wilmer'
_symmetry_space_group_name_H-M	'P1'
_symmetry_Int_Tables_number	1
_symmetry_cell_setting	triclinic
loop_
_symmetry_equiv_pos_as_xyz
  x,y,z
_cell_length_a	23.068
_cell_length_b	19.934
_cell_length_c	22.714
_cell_angle_alpha	90
_cell_angle_beta	115.85
_cell_angle_gamma	90
loop_
_atom_site_label
_atom_site_type_symbol
_atom_site_fract_x
_atom_site_fract_y
_atom_site_fract_z
_atom_site_charge
Mof_Eu	Eu	0.791	0.0913	0.25077	2.206
Mof_O 	O 	0.7961	0.9949	0.1891	-0.541
Mof_O 	O 	0.8513	0.1397	0.1982	-0.59
Mof_O 	O 	0.7735	0.9966	0.3221	-0.259
Mof_O 	O 	0.7854	0.096	0.3632	-0.29
Mof_O 	O 	0.6719	0.0215	0.1861	-0.218
Mof_O 	O 	0.6755	0.1077	0.2426	-0.273
Mof_O 	O 	0.71	0.1287	0.1297	-0.248
Mof_O 	O 	0.7372	0.2099	0.1987	-0.267
Mof_O 	O 	0.8937	0.0517	0.3353	-0.537
Mof_C 	C 	0.8316	0.964	0.1691	0.581
Mof_C 	C 	0.8986	0.137	0.1882	0.638
Mof_N 	N 	0.778	0.034	0.3679	0.071
Mof_N 	N 	0.646	0.0637	0.2071	0.072
Mof_N 	N 	0.7088	0.1918	0.1403	0.067
Mof_C 	C 	0.7983	0.9293	0.1034	-0.278
Mof_O 	O 	0.8903	0.9569	0.1996	-0.58
Mof_C 	C 	0.9156	0.1946	0.1551	-0.31
Mof_O 	O 	0.9482	0.0983	0.2221	-0.361
Mof_O 	O 	0.7774	0.0113	0.4181	-0.117
Mof_O 	O 	0.5851	0.062	0.1874	-0.12
Mof_O 	O 	0.681	0.2305	0.0939	-0.118
Mof_O 	O 	0.9861	0.0056	0.3488	-0.528
Mof_C 	C 	0.8362	0.9006	0.0765	0.211
Mof_C 	C 	0.7326	0.9245	0.0719	0.2
Mof_C 	C 	0.8712	0.2452	0.128	0.204
Mof_C 	C 	0.9736	0.1979	0.1519	0.284
Mof_H 	H 	0.8808	0.9032	0.0986	-0.027
Mof_C 	C 	0.8075	0.8683	0.0171	-0.269
Mof_C 	C 	0.7027	0.8891	0.013	-0.277
Mof_H 	H 	0.7076	0.945	0.0897	-0.024
Mof_O 	O 	0.9999	0.8728	0.2979	-0.244
Mof_H 	H 	0.8318	0.2433	0.13	-0.013
Mof_C 	C 	0.8858	0.3003	0.0972	-0.263
Mof_C 	C 	0.9884	0.2512	0.1211	-0.234
Mof_H 	H 	0.0037	0.1639	0.1707	-0.1
Mof_H 	H 	0.8325	0.8509	0.9978	0.14
Mof_C 	C 	0.7409	0.8619	0.9864	0.239
Mof_H 	H 	0.6582	0.8841	0.9924	0.137
Mof_H 	H 	0.8563	0.3347	0.0784	0.145
Mof_C 	C 	0.9442	0.3014	0.096	0.23
Mof_H 	H 	0.0272	0.2525	0.1179	0.081
Mof_N 	N 	0.7119	0.8251	0.9246	-0.168
Mof_N 	N 	0.9603	0.3594	0.0676	-0.164
Mof_C 	C 	0.744	0.7745	0.9136	0.099
Mof_C 	C 	0.6534	0.8426	0.8784	0.103
Mof_C 	C 	0.9209	0.3813	0.0063	0.136
Mof_C 	C 	0.0173	0.3895	0.0992	0.11
Mof_H 	H 	0.7833	0.7611	0.9468	-0.001
Mof_C 	C 	0.7203	0.7419	0.8544	-0.146
Mof_C 	C 	0.6265	0.8098	0.8194	-0.127
Mof_H 	H 	0.6309	0.8772	0.8866	0.012
Mof_H 	H 	0.8828	0.3582	0.9819	0.023
Mof_C 	C 	0.9351	0.4351	0.98	-0.22
Mof_C 	C 	0.0348	0.444	0.0743	-0.26
Mof_H 	H 	0.0461	0.3728	0.1397	-0.006
Mof_H 	H 	0.7441	0.7079	0.8472	0.077
Mof_C 	C 	0.6611	0.7597	0.8057	0.071
Mof_H 	H 	0.5853	0.821	0.7885	0.102
Mof_H 	H 	0.9068	0.4488	0.9381	0.138
Mof_C 	C 	0.9907	0.4705	0.0139	0.223
Mof_H 	H 	0.0753	0.4632	0.0968	0.142
Mof_C 	C 	0.6335	0.7256	0.7397	0.09
Mof_C 	C 	0.653	0.6621	0.7332	-0.136
Mof_C 	C 	0.587	0.7566	0.6855	-0.134
Mof_H 	H 	0.6856	0.6409	0.7687	0.086
Mof_C 	C 	0.6237	0.6298	0.6734	0.122
Mof_C 	C 	0.5608	0.7241	0.6267	0.119
Mof_H 	H 	0.5735	0.7998	0.689	0.108
Mof_H 	H 	0.6356	0.5861	0.6693	0.004
Mof_N 	N 	0.5786	0.6605	0.6218	-0.172
Mof_H 	H 	0.5306	0.7457	0.5898	0.003
Mof_C 	C 	0.5465	0.6268	0.5582	0.236
Mof_C 	C 	0.5832	0.5928	0.5335	-0.272
Mof_C 	C 	0.4809	0.6294	0.5259	-0.277
Mof_H 	H 	0.6276	0.5896	0.5574	0.156
Mof_C 	C 	0.5519	0.5635	0.4717	0.204
Mof_C 	C 	0.4507	0.6006	0.4646	0.195
Mof_H 	H 	0.457	0.6501	0.5447	0.135
Mof_H 	H 	0.5758	0.5407	0.454	-0.024
Mof_C 	C 	0.4857	0.5681	0.4365	-0.279
Mof_H 	H 	0.4061	0.603	0.4417	-0.032
Mof_C 	C 	0.4526	0.5399	0.3685	0.562
Mof_O 	O 	0.9227	0.078	0.1832	-0.292
Mof_Eu	Eu	0.291	0.5913	0.25077	2.21
Mof_O 	O 	0.2961	0.4949	0.1891	-0.546
Mof_O 	O 	0.3513	0.6397	0.1982	-0.595
Mof_O 	O 	0.2735	0.4966	0.3221	-0.26
Mof_O 	O 	0.2854	0.596	0.3632	-0.29
Mof_O 	O 	0.1719	0.5215	0.1861	-0.221
Mof_O 	O 	0.1755	0.6077	0.2426	-0.276
Mof_O 	O 	0.21	0.6287	0.1297	-0.251
Mof_O 	O 	0.2372	0.7099	0.1987	-0.269
Mof_O 	O 	0.3937	0.5517	0.3353	-0.555
Mof_C 	C 	0.3316	0.464	0.1691	0.592
Mof_C 	C 	0.3986	0.637	0.1882	0.642
Mof_N 	N 	0.278	0.534	0.3679	0.071
Mof_N 	N 	0.146	0.5637	0.2071	0.073
Mof_N 	N 	0.2088	0.6918	0.1403	0.067
Mof_C 	C 	0.2983	0.4293	0.1034	-0.286
Mof_O 	O 	0.3903	0.4569	0.1996	-0.607
Mof_C 	C 	0.4156	0.6946	0.1551	-0.302
Mof_O 	O 	0.4482	0.5983	0.2221	-0.386
Mof_O 	O 	0.2774	0.5113	0.4181	-0.118
Mof_O 	O 	0.0851	0.562	0.1874	-0.129
Mof_O 	O 	0.181	0.7305	0.0939	-0.119
Mof_O 	O 	0.4861	0.5056	0.3488	-0.574
Mof_C 	C 	0.3362	0.4006	0.0765	0.216
Mof_C 	C 	0.2326	0.4245	0.0719	0.202
Mof_C 	C 	0.3712	0.7452	0.128	0.202
Mof_C 	C 	0.4736	0.6979	0.1519	0.234
Mof_H 	H 	0.3808	0.4032	0.0986	-0.04
Mof_C 	C 	0.3075	0.3683	0.0171	-0.272
Mof_C 	C 	0.2027	0.3891	0.013	-0.276
Mof_H 	H 	0.2076	0.445	0.0897	-0.026
Mof_O 	O 	0.4999	0.3728	0.2979	-0.291
Mof_H 	H 	0.3318	0.7433	0.13	-0.013
Mof_C 	C 	0.3858	0.8003	0.0972	-0.27
Mof_C 	C 	0.4884	0.7512	0.1211	-0.295
Mof_H 	H 	0.5037	0.6639	0.1707	-0.056
Mof_H 	H 	0.3325	0.3509	0.9978	0.138
Mof_C 	C 	0.2409	0.3619	0.9864	0.237
Mof_H 	H 	0.1582	0.3841	0.9924	0.132
Mof_H 	H 	0.3563	0.8347	0.0784	0.146
Mof_C 	C 	0.4442	0.8014	0.096	0.242
Mof_H 	H 	0.5272	0.7525	0.1179	0.127
Mof_N 	N 	0.2119	0.3251	0.9246	-0.169
Mof_N 	N 	0.4603	0.8594	0.0676	-0.168
Mof_C 	C 	0.244	0.2745	0.9136	0.099
Mof_C 	C 	0.1534	0.3426	0.8784	0.101
Mof_C 	C 	0.4209	0.8813	0.0063	0.07
Mof_C 	C 	0.5173	0.8895	0.0992	0.093
Mof_H 	H 	0.2833	0.2611	0.9468	-0.003
Mof_C 	C 	0.2203	0.2419	0.8544	-0.148
Mof_C 	C 	0.1265	0.3098	0.8194	-0.128
Mof_H 	H 	0.1309	0.3772	0.8866	0.008
Mof_H 	H 	0.3828	0.8582	0.9819	0.045
Mof_C 	C 	0.4351	0.9351	0.98	-0.115
Mof_C 	C 	0.5348	0.944	0.0743	-0.132
Mof_H 	H 	0.5461	0.8728	0.1397	0.009
Mof_H 	H 	0.2441	0.2079	0.8472	0.077
Mof_C 	C 	0.1611	0.2597	0.8057	0.072
Mof_H 	H 	0.0853	0.321	0.7885	0.097
Mof_H 	H 	0.4068	0.9488	0.9381	0.096
Mof_C 	C 	0.4907	0.9705	0.0139	0.048
Mof_H 	H 	0.5753	0.9632	0.0968	0.099
Mof_C 	C 	0.1335	0.2256	0.7397	0.085
Mof_C 	C 	0.153	0.1621	0.7332	-0.13
Mof_C 	C 	0.087	0.2566	0.6855	-0.129
Mof_H 	H 	0.1856	0.1409	0.7687	0.084
Mof_C 	C 	0.1237	0.1298	0.6734	0.114
Mof_C 	C 	0.0608	0.2241	0.6267	0.11
Mof_H 	H 	0.0735	0.2998	0.689	0.102
Mof_H 	H 	0.1356	0.0861	0.6693	0.008
Mof_N 	N 	0.0786	0.1605	0.6218	-0.154
Mof_H 	H 	0.0306	0.2457	0.5898	-0.003
Mof_C 	C 	0.0465	0.1268	0.5582	0.112
Mof_C 	C 	0.0832	0.0928	0.5335	-0.151
Mof_C 	C 	0.9809	0.1294	0.5259	-0.111
Mof_H 	H 	0.1276	0.0896	0.5574	0.114
Mof_C 	C 	0.0519	0.0635	0.4717	0.045
Mof_C 	C 	0.9507	0.1006	0.4646	0.071
Mof_H 	H 	0.957	0.1501	0.5447	0.091
Mof_H 	H 	0.0758	0.0407	0.454	0.022
Mof_C 	C 	0.9857	0.0681	0.4365	-0.141
Mof_H 	H 	0.9061	0.103	0.4417	0.012
Mof_C 	C 	0.9526	0.0399	0.3685	0.512
Mof_O 	O 	0.4227	0.578	0.1832	-0.305
Mof_Eu	Eu	0.209	0.0913	0.24923	2.209
Mof_O 	O 	0.2039	0.9949	0.3109	-0.543
Mof_O 	O 	0.1487	0.1397	0.3018	-0.591
Mof_O 	O 	0.2265	0.9966	0.1779	-0.258
Mof_O 	O 	0.2146	0.096	0.1368	-0.288
Mof_O 	O 	0.3281	0.0215	0.3139	-0.219
Mof_O 	O 	0.3245	0.1077	0.2574	-0.275
Mof_O 	O 	0.29	0.1287	0.3703	-0.25
Mof_O 	O 	0.2628	0.2099	0.3013	-0.269
Mof_O 	O 	0.1063	0.0517	0.1647	-0.562
Mof_C 	C 	0.1684	0.964	0.3309	0.584
Mof_C 	C 	0.1014	0.137	0.3118	0.628
Mof_N 	N 	0.222	0.034	0.1321	0.071
Mof_N 	N 	0.354	0.0637	0.2929	0.072
Mof_N 	N 	0.2912	0.1918	0.3597	0.067
Mof_C 	C 	0.2017	0.9293	0.3966	-0.277
Mof_O 	O 	0.1097	0.9569	0.3004	-0.596
Mof_C 	C 	0.0844	0.1946	0.3449	-0.284
Mof_O 	O 	0.0518	0.0983	0.2779	-0.388
Mof_O 	O 	0.2226	0.0113	0.0819	-0.117
Mof_O 	O 	0.4149	0.062	0.3126	-0.12
Mof_O 	O 	0.319	0.2305	0.4061	-0.118
Mof_O 	O 	0.0139	0.0056	0.1512	-0.584
Mof_C 	C 	0.1638	0.9006	0.4235	0.204
Mof_C 	C 	0.2674	0.9245	0.4281	0.191
Mof_C 	C 	0.1288	0.2452	0.372	0.194
Mof_C 	C 	0.0264	0.1979	0.3481	0.175
Mof_H 	H 	0.1192	0.9032	0.4014	-0.042
Mof_C 	C 	0.1925	0.8683	0.4829	-0.255
Mof_C 	C 	0.2973	0.8891	0.487	-0.259
Mof_H 	H 	0.2924	0.945	0.4103	-0.021
Mof_O 	O 	0.0001	0.8728	0.2021	-0.295
Mof_H 	H 	0.1682	0.2433	0.37	-0.011
Mof_C 	C 	0.1142	0.3003	0.4028	-0.274
Mof_C 	C 	0.0116	0.2512	0.3789	-0.351
Mof_H 	H 	0.9963	0.1639	0.3293	-0.008
Mof_H 	H 	0.1675	0.8509	0.5022	0.129
Mof_C 	C 	0.2591	0.8619	0.5136	0.224
Mof_H 	H 	0.3418	0.8841	0.5076	0.128
Mof_H 	H 	0.1437	0.3347	0.4216	0.147
Mof_C 	C 	0.0558	0.3014	0.404	0.252
Mof_H 	H 	0.9728	0.2525	0.3821	0.173
Mof_N 	N 	0.2881	0.8251	0.5754	-0.166
Mof_N 	N 	0.0397	0.3594	0.4324	-0.177
Mof_C 	C 	0.256	0.7745	0.5864	0.099
Mof_C 	C 	0.3466	0.8426	0.6216	0.102
Mof_C 	C 	0.0791	0.3813	0.4937	0.026
Mof_C 	C 	0.9827	0.3895	0.4008	0.086
Mof_H 	H 	0.2167	0.7611	0.5532	-0.005
Mof_C 	C 	0.2797	0.7419	0.6456	-0.147
Mof_C 	C 	0.3735	0.8098	0.6806	-0.126
Mof_H 	H 	0.3691	0.8772	0.6134	0.013
Mof_H 	H 	0.1172	0.3582	0.5181	0.056
Mof_C 	C 	0.0649	0.4351	0.52	-0.038
Mof_C 	C 	0.9652	0.444	0.4257	-0.016
Mof_H 	H 	0.9539	0.3728	0.3603	0.02
Mof_H 	H 	0.2559	0.7079	0.6528	0.076
Mof_C 	C 	0.3389	0.7597	0.6943	0.071
Mof_H 	H 	0.4147	0.821	0.7115	0.102
Mof_H 	H 	0.0932	0.4488	0.5619	0.064
Mof_C 	C 	0.0093	0.4705	0.4861	-0.104
Mof_H 	H 	0.9247	0.4632	0.4032	0.061
Mof_C 	C 	0.3665	0.7256	0.7603	0.089
Mof_C 	C 	0.347	0.6621	0.7668	-0.135
Mof_C 	C 	0.413	0.7566	0.8145	-0.133
Mof_H 	H 	0.3144	0.6409	0.7313	0.085
Mof_C 	C 	0.3763	0.6298	0.8266	0.121
Mof_C 	C 	0.4392	0.7241	0.8733	0.119
Mof_H 	H 	0.4265	0.7998	0.811	0.108
Mof_H 	H 	0.3644	0.5861	0.8307	0.004
Mof_N 	N 	0.4214	0.6605	0.8782	-0.171
Mof_H 	H 	0.4694	0.7457	0.9102	0.004
Mof_C 	C 	0.4535	0.6268	0.9418	0.229
Mof_C 	C 	0.4168	0.5928	0.9665	-0.261
Mof_C 	C 	0.5191	0.6294	0.9741	-0.265
Mof_H 	H 	0.3724	0.5896	0.9426	0.152
Mof_C 	C 	0.4481	0.5635	0.0283	0.192
Mof_C 	C 	0.5493	0.6006	0.0354	0.183
Mof_H 	H 	0.543	0.6501	0.9553	0.132
Mof_H 	H 	0.4242	0.5407	0.046	-0.021
Mof_C 	C 	0.5143	0.5681	0.0635	-0.272
Mof_H 	H 	0.5939	0.603	0.0583	-0.028
Mof_C 	C 	0.5474	0.5399	0.1315	0.56
Mof_O 	O 	0.0773	0.078	0.3168	-0.301
Mof_Eu	Eu	0.709	0.5913	0.24923	2.209
Mof_O 	O 	0.7039	0.4949	0.3109	-0.545
Mof_O 	O 	0.6487	0.6397	0.3018	-0.595
Mof_O 	O 	0.7265	0.4966	0.1779	-0.258
Mof_O 	O 	0.7146	0.596	0.1368	-0.29
Mof_O 	O 	0.8281	0.5215	0.3139	-0.217
Mof_O 	O 	0.8245	0.6077	0.2574	-0.274
Mof_O 	O 	0.79	0.6287	0.3703	-0.249
Mof_O 	O 	0.7628	0.7099	0.3013	-0.269
Mof_O 	O 	0.6063	0.5517	0.1647	-0.554
Mof_C 	C 	0.6684	0.464	0.3309	0.589
Mof_C 	C 	0.6014	0.637	0.3118	0.642
Mof_N 	N 	0.722	0.534	0.1321	0.071
Mof_N 	N 	0.854	0.5637	0.2929	0.071
Mof_N 	N 	0.7912	0.6918	0.3597	0.067
Mof_C 	C 	0.7017	0.4293	0.3966	-0.278
Mof_O 	O 	0.6097	0.4569	0.3004	-0.606
Mof_C 	C 	0.5844	0.6946	0.3449	-0.303
Mof_O 	O 	0.5518	0.5983	0.2779	-0.387
Mof_O 	O 	0.7226	0.5113	0.0819	-0.117
Mof_O 	O 	0.9149	0.562	0.3126	-0.11
Mof_O 	O 	0.819	0.7305	0.4061	-0.116
Mof_O 	O 	0.5139	0.5056	0.1512	-0.573
Mof_C 	C 	0.6638	0.4006	0.4235	0.205
Mof_C 	C 	0.7674	0.4245	0.4281	0.194
Mof_C 	C 	0.6288	0.7452	0.372	0.204
Mof_C 	C 	0.5264	0.6979	0.3481	0.235
Mof_H 	H 	0.6192	0.4032	0.4014	-0.035
Mof_C 	C 	0.6925	0.3683	0.4829	-0.255
Mof_C 	C 	0.7973	0.3891	0.487	-0.261
Mof_H 	H 	0.7924	0.445	0.4103	-0.021
Mof_O 	O 	0.5001	0.3728	0.2021	-0.291
Mof_H 	H 	0.6682	0.7433	0.37	-0.013
Mof_C 	C 	0.6142	0.8003	0.4028	-0.272
Mof_C 	C 	0.5116	0.7512	0.3789	-0.296
Mof_H 	H 	0.4963	0.6639	0.3293	-0.057
Mof_H 	H 	0.6675	0.3509	0.5022	0.131
Mof_C 	C 	0.7591	0.3619	0.5136	0.226
Mof_H 	H 	0.8418	0.3841	0.5076	0.133
Mof_H 	H 	0.6437	0.8347	0.4216	0.147
Mof_C 	C 	0.5558	0.8014	0.404	0.244
Mof_H 	H 	0.4728	0.7525	0.3821	0.128
Mof_N 	N 	0.7881	0.3251	0.5754	-0.166
Mof_N 	N 	0.5397	0.8594	0.4324	-0.174
Mof_C 	C 	0.756	0.2745	0.5864	0.1
Mof_C 	C 	0.8466	0.3426	0.6216	0.105
Mof_C 	C 	0.5791	0.8813	0.4937	0.093
Mof_C 	C 	0.4827	0.8895	0.4008	0.103
Mof_H 	H 	0.7167	0.2611	0.5532	-0.004
Mof_C 	C 	0.7797	0.2419	0.6456	-0.146
Mof_C 	C 	0.8735	0.3098	0.6806	-0.125
Mof_H 	H 	0.8691	0.3772	0.6134	0.017
Mof_H 	H 	0.6172	0.8582	0.5181	0.034
Mof_C 	C 	0.5649	0.9351	0.52	-0.144
Mof_C 	C 	0.4652	0.944	0.4257	-0.147
Mof_H 	H 	0.4539	0.8728	0.3603	0.006
Mof_H 	H 	0.7559	0.2079	0.6528	0.077
Mof_C 	C 	0.8389	0.2597	0.6943	0.074
Mof_H 	H 	0.9147	0.321	0.7115	0.112
Mof_H 	H 	0.5932	0.9488	0.5619	0.106
Mof_C 	C 	0.5093	0.9705	0.4861	0.073
Mof_H 	H 	0.4247	0.9632	0.4032	0.105
Mof_C 	C 	0.8665	0.2256	0.7603	0.095
Mof_C 	C 	0.847	0.1621	0.7668	-0.139
Mof_C 	C 	0.913	0.2566	0.8145	-0.135
Mof_H 	H 	0.8144	0.1409	0.7313	0.087
Mof_C 	C 	0.8763	0.1298	0.8266	0.13
Mof_C 	C 	0.9392	0.2241	0.8733	0.128
Mof_H 	H 	0.9265	0.2998	0.811	0.115
Mof_H 	H 	0.8644	0.0861	0.8307	0
Mof_N 	N 	0.9214	0.1605	0.8782	-0.188
Mof_H 	H 	0.9694	0.2457	0.9102	0.011
Mof_C 	C 	0.9535	0.1268	0.9418	0.351
Mof_C 	C 	0.9168	0.0928	0.9665	-0.377
Mof_C 	C 	0.0191	0.1294	0.9741	-0.427
Mof_H 	H 	0.8724	0.0896	0.9426	0.193
Mof_C 	C 	0.9481	0.0635	0.0283	0.342
Mof_C 	C 	0.0493	0.1006	0.0354	0.302
Mof_H 	H 	0.043	0.1501	0.9553	0.175
Mof_H 	H 	0.9242	0.0407	0.046	-0.064
Mof_C 	C 	0.0143	0.0681	0.0635	-0.4
Mof_H 	H 	0.0939	0.103	0.0583	-0.07
Mof_C 	C 	0.0474	0.0399	0.1315	0.597
Mof_O 	O 	0.5773	0.578	0.3168	-0.305
Mof_Eu	Eu	0.209	0.9087	0.74923	2.21
Mof_O 	O 	0.2039	0.0051	0.8109	-0.542
Mof_O 	O 	0.1487	0.8603	0.8018	-0.591
Mof_O 	O 	0.2265	0.0034	0.6779	-0.258
Mof_O 	O 	0.2146	0.904	0.6368	-0.288
Mof_O 	O 	0.3281	0.9785	0.8139	-0.219
Mof_O 	O 	0.3245	0.8923	0.7574	-0.275
Mof_O 	O 	0.29	0.8713	0.8703	-0.25
Mof_O 	O 	0.2628	0.7901	0.8013	-0.269
Mof_O 	O 	0.1063	0.9483	0.6647	-0.563
Mof_C 	C 	0.1684	0.036	0.8309	0.58
Mof_C 	C 	0.1014	0.863	0.8118	0.628
Mof_N 	N 	0.222	0.966	0.6321	0.071
Mof_N 	N 	0.354	0.9363	0.7929	0.072
Mof_N 	N 	0.2912	0.8082	0.8597	0.067
Mof_C 	C 	0.2017	0.0707	0.8966	-0.268
Mof_O 	O 	0.1097	0.0431	0.8004	-0.595
Mof_C 	C 	0.0844	0.8054	0.8449	-0.284
Mof_O 	O 	0.0518	0.9017	0.7779	-0.388
Mof_O 	O 	0.2226	0.9887	0.5819	-0.116
Mof_O 	O 	0.4149	0.938	0.8126	-0.119
Mof_O 	O 	0.319	0.7695	0.9061	-0.117
Mof_O 	O 	0.0139	0.9944	0.6512	-0.585
Mof_C 	C 	0.1638	0.0994	0.9235	0.192
Mof_C 	C 	0.2674	0.0755	0.9281	0.179
Mof_C 	C 	0.1288	0.7548	0.872	0.195
Mof_C 	C 	0.0264	0.8021	0.8481	0.175
Mof_H 	H 	0.1192	0.0968	0.9014	-0.038
Mof_C 	C 	0.1925	0.1317	0.9829	-0.238
Mof_C 	C 	0.2973	0.1109	0.987	-0.241
Mof_H 	H 	0.2924	0.055	0.9103	-0.017
Mof_O 	O 	0.0001	0.1272	0.7021	-0.295
Mof_H 	H 	0.1682	0.7567	0.87	-0.011
Mof_C 	C 	0.1142	0.6997	0.9028	-0.275
Mof_C 	C 	0.0116	0.7488	0.8789	-0.352
Mof_H 	H 	0.9963	0.8361	0.8293	-0.008
Mof_H 	H 	0.1675	0.1491	0.0022	0.122
Mof_C 	C 	0.2591	0.1381	0.0136	0.21
Mof_H 	H 	0.3418	0.1159	0.0076	0.121
Mof_H 	H 	0.1437	0.6653	0.9216	0.147
Mof_C 	C 	0.0558	0.6986	0.904	0.254
Mof_H 	H 	0.9728	0.7475	0.8821	0.173
Mof_N 	N 	0.2881	0.1749	0.0754	-0.164
Mof_N 	N 	0.0397	0.6406	0.9324	-0.182
Mof_C 	C 	0.256	0.2255	0.0864	0.098
Mof_C 	C 	0.3466	0.1574	0.1216	0.101
Mof_C 	C 	0.0791	0.6187	0.9937	0.047
Mof_C 	C 	0.9827	0.6105	0.9008	0.095
Mof_H 	H 	0.2167	0.2389	0.0532	-0.005
Mof_C 	C 	0.2797	0.2581	0.1456	-0.146
Mof_C 	C 	0.3735	0.1902	0.1806	-0.126
Mof_H 	H 	0.3691	0.1228	0.1134	0.013
Mof_H 	H 	0.1172	0.6418	0.0181	0.048
Mof_C 	C 	0.0649	0.5649	0.02	-0.065
Mof_C 	C 	0.9652	0.556	0.9257	-0.032
Mof_H 	H 	0.9539	0.6272	0.8603	0.017
Mof_H 	H 	0.2559	0.2921	0.1528	0.076
Mof_C 	C 	0.3389	0.2403	0.1943	0.071
Mof_H 	H 	0.4147	0.179	0.2115	0.102
Mof_H 	H 	0.0932	0.5512	0.0619	0.074
Mof_C 	C 	0.0093	0.5295	0.9861	-0.08
Mof_H 	H 	0.9247	0.5368	0.9032	0.067
Mof_C 	C 	0.3665	0.2744	0.2603	0.09
Mof_C 	C 	0.347	0.3379	0.2668	-0.136
Mof_C 	C 	0.413	0.2434	0.3145	-0.134
Mof_H 	H 	0.3144	0.3591	0.2313	0.085
Mof_C 	C 	0.3763	0.3702	0.3266	0.122
Mof_C 	C 	0.4392	0.2759	0.3733	0.119
Mof_H 	H 	0.4265	0.2002	0.311	0.108
Mof_H 	H 	0.3644	0.4139	0.3307	0.003
Mof_N 	N 	0.4214	0.3395	0.3782	-0.172
Mof_H 	H 	0.4694	0.2543	0.4102	0.003
Mof_C 	C 	0.4535	0.3732	0.4418	0.236
Mof_C 	C 	0.4168	0.4072	0.4665	-0.272
Mof_C 	C 	0.5191	0.3706	0.4741	-0.277
Mof_H 	H 	0.3724	0.4104	0.4426	0.156
Mof_C 	C 	0.4481	0.4365	0.5283	0.204
Mof_C 	C 	0.5493	0.3994	0.5354	0.195
Mof_H 	H 	0.543	0.3499	0.4553	0.135
Mof_H 	H 	0.4242	0.4593	0.546	-0.025
Mof_C 	C 	0.5143	0.4319	0.5635	-0.279
Mof_H 	H 	0.5939	0.397	0.5583	-0.032
Mof_C 	C 	0.5474	0.4601	0.6315	0.562
Mof_O 	O 	0.0773	0.922	0.8168	-0.301
Mof_Eu	Eu	0.709	0.4087	0.74923	2.209
Mof_O 	O 	0.7039	0.5051	0.8109	-0.544
Mof_O 	O 	0.6487	0.3603	0.8018	-0.595
Mof_O 	O 	0.7265	0.5034	0.6779	-0.258
Mof_O 	O 	0.7146	0.404	0.6368	-0.29
Mof_O 	O 	0.8281	0.4785	0.8139	-0.217
Mof_O 	O 	0.8245	0.3923	0.7574	-0.274
Mof_O 	O 	0.79	0.3713	0.8703	-0.249
Mof_O 	O 	0.7628	0.2901	0.8013	-0.269
Mof_O 	O 	0.6063	0.4483	0.6647	-0.555
Mof_C 	C 	0.6684	0.536	0.8309	0.585
Mof_C 	C 	0.6014	0.363	0.8118	0.643
Mof_N 	N 	0.722	0.466	0.6321	0.071
Mof_N 	N 	0.854	0.4363	0.7929	0.071
Mof_N 	N 	0.7912	0.3082	0.8597	0.067
Mof_C 	C 	0.7017	0.5707	0.8966	-0.266
Mof_O 	O 	0.6097	0.5431	0.8004	-0.605
Mof_C 	C 	0.5844	0.3054	0.8449	-0.303
Mof_O 	O 	0.5518	0.4017	0.7779	-0.387
Mof_O 	O 	0.7226	0.4887	0.5819	-0.116
Mof_O 	O 	0.9149	0.438	0.8126	-0.11
Mof_O 	O 	0.819	0.2695	0.9061	-0.116
Mof_O 	O 	0.5139	0.4944	0.6512	-0.574
Mof_C 	C 	0.6638	0.5994	0.9235	0.188
Mof_C 	C 	0.7674	0.5755	0.9281	0.177
Mof_C 	C 	0.6288	0.2548	0.872	0.205
Mof_C 	C 	0.5264	0.3021	0.8481	0.236
Mof_H 	H 	0.6192	0.5968	0.9014	-0.029
Mof_C 	C 	0.6925	0.6317	0.9829	-0.23
Mof_C 	C 	0.7973	0.6109	0.987	-0.236
Mof_H 	H 	0.7924	0.555	0.9103	-0.015
Mof_O 	O 	0.5001	0.6272	0.7021	-0.291
Mof_H 	H 	0.6682	0.2567	0.87	-0.013
Mof_C 	C 	0.6142	0.1997	0.9028	-0.273
Mof_C 	C 	0.5116	0.2488	0.8789	-0.297
Mof_H 	H 	0.4963	0.3361	0.8293	-0.057
Mof_H 	H 	0.6675	0.6491	0.0022	0.12
Mof_C 	C 	0.7591	0.6381	0.0136	0.206
Mof_H 	H 	0.8418	0.6159	0.0076	0.123
Mof_H 	H 	0.6437	0.1653	0.9216	0.148
Mof_C 	C 	0.5558	0.1986	0.904	0.246
Mof_H 	H 	0.4728	0.2475	0.8821	0.129
Mof_N 	N 	0.7881	0.6749	0.0754	-0.163
Mof_N 	N 	0.5397	0.1406	0.9324	-0.179
Mof_C 	C 	0.756	0.7255	0.0864	0.098
Mof_C 	C 	0.8466	0.6574	0.1216	0.104
Mof_C 	C 	0.5791	0.1187	0.9937	0.114
Mof_C 	C 	0.4827	0.1105	0.9008	0.111
Mof_H 	H 	0.7167	0.7389	0.0532	-0.004
Mof_C 	C 	0.7797	0.7581	0.1456	-0.145
Mof_C 	C 	0.8735	0.6902	0.1806	-0.124
Mof_H 	H 	0.8691	0.6228	0.1134	0.018
Mof_H 	H 	0.6172	0.1418	0.0181	0.026
Mof_C 	C 	0.5649	0.0649	0.02	-0.17
Mof_C 	C 	0.4652	0.056	0.9257	-0.161
Mof_H 	H 	0.4539	0.1272	0.8603	0.003
Mof_H 	H 	0.7559	0.7921	0.1528	0.076
Mof_C 	C 	0.8389	0.7403	0.1943	0.073
Mof_H 	H 	0.9147	0.679	0.2115	0.111
Mof_H 	H 	0.5932	0.0512	0.0619	0.115
Mof_C 	C 	0.5093	0.0295	0.9861	0.095
Mof_H 	H 	0.4247	0.0368	0.9032	0.11
Mof_C 	C 	0.8665	0.7744	0.2603	0.096
Mof_C 	C 	0.847	0.8379	0.2668	-0.14
Mof_C 	C 	0.913	0.7434	0.3145	-0.135
Mof_H 	H 	0.8144	0.8591	0.2313	0.088
Mof_C 	C 	0.8763	0.8702	0.3266	0.13
Mof_C 	C 	0.9392	0.7759	0.3733	0.129
Mof_H 	H 	0.9265	0.7002	0.311	0.115
Mof_H 	H 	0.8644	0.9139	0.3307	-0
Mof_N 	N 	0.9214	0.8395	0.3782	-0.189
Mof_H 	H 	0.9694	0.7543	0.4102	0.01
Mof_C 	C 	0.9535	0.8732	0.4418	0.358
Mof_C 	C 	0.9168	0.9072	0.4665	-0.388
Mof_C 	C 	0.0191	0.8706	0.4741	-0.438
Mof_H 	H 	0.8724	0.9104	0.4426	0.196
Mof_C 	C 	0.9481	0.9365	0.5283	0.355
Mof_C 	C 	0.0493	0.8994	0.5354	0.312
Mof_H 	H 	0.043	0.8499	0.4553	0.178
Mof_H 	H 	0.9242	0.9593	0.546	-0.067
Mof_C 	C 	0.0143	0.9319	0.5635	-0.408
Mof_H 	H 	0.0939	0.897	0.5583	-0.073
Mof_C 	C 	0.0474	0.9601	0.6315	0.6
Mof_O 	O 	0.5773	0.422	0.8168	-0.305
Mof_Eu	Eu	0.791	0.9087	0.75077	2.206
Mof_O 	O 	0.7961	0.0051	0.6891	-0.541
Mof_O 	O 	0.8513	0.8603	0.6982	-0.591
Mof_O 	O 	0.7735	0.0034	0.8221	-0.26
Mof_O 	O 	0.7854	0.904	0.8632	-0.291
Mof_O 	O 	0.6719	0.9785	0.6861	-0.219
Mof_O 	O 	0.6755	0.8923	0.7426	-0.274
Mof_O 	O 	0.71	0.8713	0.6297	-0.249
Mof_O 	O 	0.7372	0.7901	0.6987	-0.268
Mof_O 	O 	0.8937	0.9483	0.8353	-0.539
Mof_C 	C 	0.8316	0.036	0.6691	0.577
Mof_C 	C 	0.8986	0.863	0.6882	0.639
Mof_N 	N 	0.778	0.966	0.8679	0.071
Mof_N 	N 	0.646	0.9363	0.7071	0.072
Mof_N 	N 	0.7088	0.8082	0.6403	0.067
Mof_C 	C 	0.7983	0.0707	0.6034	-0.265
Mof_O 	O 	0.8903	0.0431	0.6996	-0.578
Mof_C 	C 	0.9156	0.8054	0.6551	-0.31
Mof_O 	O 	0.9482	0.9017	0.7221	-0.361
Mof_O 	O 	0.7774	0.9887	0.9181	-0.116
Mof_O 	O 	0.5851	0.938	0.6874	-0.12
Mof_O 	O 	0.681	0.7695	0.5939	-0.117
Mof_O 	O 	0.9861	0.9944	0.8488	-0.529
Mof_C 	C 	0.8362	0.0994	0.5765	0.192
Mof_C 	C 	0.7326	0.0755	0.5719	0.183
Mof_C 	C 	0.8712	0.7548	0.628	0.205
Mof_C 	C 	0.9736	0.8021	0.6519	0.286
Mof_H 	H 	0.8808	0.0968	0.5986	-0.02
Mof_C 	C 	0.8075	0.1317	0.5171	-0.243
Mof_C 	C 	0.7027	0.1109	0.513	-0.252
Mof_H 	H 	0.7076	0.055	0.5897	-0.018
Mof_O 	O 	0.9999	0.1272	0.7979	-0.243
Mof_H 	H 	0.8318	0.7567	0.63	-0.013
Mof_C 	C 	0.8858	0.6997	0.5972	-0.264
Mof_C 	C 	0.9884	0.7488	0.6211	-0.233
Mof_H 	H 	0.0037	0.8361	0.6707	-0.101
Mof_H 	H 	0.8325	0.1491	0.4978	0.129
Mof_C 	C 	0.7409	0.1381	0.4864	0.218
Mof_H 	H 	0.6582	0.1159	0.4924	0.126
Mof_H 	H 	0.8563	0.6653	0.5784	0.146
Mof_C 	C 	0.9442	0.6986	0.596	0.232
Mof_H 	H 	0.0272	0.7475	0.6179	0.081
Mof_N 	N 	0.7119	0.1749	0.4246	-0.165
Mof_N 	N 	0.9603	0.6406	0.5676	-0.17
Mof_C 	C 	0.744	0.2255	0.4136	0.097
Mof_C 	C 	0.6534	0.1574	0.3784	0.102
Mof_C 	C 	0.9209	0.6187	0.5063	0.16
Mof_C 	C 	0.0173	0.6105	0.5992	0.119
Mof_H 	H 	0.7833	0.2389	0.4468	-0.001
Mof_C 	C 	0.7203	0.2581	0.3544	-0.145
Mof_C 	C 	0.6265	0.1902	0.3194	-0.125
Mof_H 	H 	0.6309	0.1228	0.3866	0.013
Mof_H 	H 	0.8828	0.6418	0.4819	0.013
Mof_C 	C 	0.9351	0.5649	0.48	-0.25
Mof_C 	C 	0.0348	0.556	0.5743	-0.277
Mof_H 	H 	0.0461	0.6272	0.6397	-0.009
Mof_H 	H 	0.7441	0.2921	0.3472	0.077
Mof_C 	C 	0.6611	0.2403	0.3057	0.07
Mof_H 	H 	0.5853	0.179	0.2885	0.102
Mof_H 	H 	0.9068	0.5512	0.4381	0.148
Mof_C 	C 	0.9907	0.5295	0.5139	0.249
Mof_H 	H 	0.0753	0.5368	0.5968	0.149
Mof_C 	C 	0.6335	0.2744	0.2397	0.09
Mof_C 	C 	0.653	0.3379	0.2332	-0.136
Mof_C 	C 	0.587	0.2434	0.1855	-0.134
Mof_H 	H 	0.6856	0.3591	0.2687	0.086
Mof_C 	C 	0.6237	0.3702	0.1734	0.122
Mof_C 	C 	0.5608	0.2759	0.1267	0.12
Mof_H 	H 	0.5735	0.2002	0.189	0.108
Mof_H 	H 	0.6356	0.4139	0.1693	0.003
Mof_N 	N 	0.5786	0.3395	0.1218	-0.173
Mof_H 	H 	0.5306	0.2543	0.0898	0.003
Mof_C 	C 	0.5465	0.3732	0.0582	0.243
Mof_C 	C 	0.5832	0.4072	0.0335	-0.283
Mof_C 	C 	0.4809	0.3706	0.0259	-0.288
Mof_H 	H 	0.6276	0.4104	0.0574	0.159
Mof_C 	C 	0.5519	0.4365	0.9717	0.214
Mof_C 	C 	0.4507	0.3994	0.9646	0.206
Mof_H 	H 	0.457	0.3499	0.0447	0.138
Mof_H 	H 	0.5758	0.4593	0.954	-0.028
Mof_C 	C 	0.4857	0.4319	0.9365	-0.286
Mof_H 	H 	0.4061	0.397	0.9417	-0.035
Mof_C 	C 	0.4526	0.4601	0.8685	0.565
Mof_O 	O 	0.9227	0.922	0.6832	-0.292
Mof_Eu	Eu	0.291	0.4087	0.75077	2.21
Mof_O 	O 	0.2961	0.5051	0.6891	-0.545
Mof_O 	O 	0.3513	0.3603	0.6982	-0.595
Mof_O 	O 	0.2735	0.5034	0.8221	-0.26
Mof_O 	O 	0.2854	0.404	0.8632	-0.29
Mof_O 	O 	0.1719	0.4785	0.6861	-0.221
Mof_O 	O 	0.1755	0.3923	0.7426	-0.276
Mof_O 	O 	0.21	0.3713	0.6297	-0.25
Mof_O 	O 	0.2372	0.2901	0.6987	-0.268
Mof_O 	O 	0.3937	0.4483	0.8353	-0.555
Mof_C 	C 	0.3316	0.536	0.6691	0.589
Mof_C 	C 	0.3986	0.363	0.6882	0.642
Mof_N 	N 	0.278	0.466	0.8679	0.071
Mof_N 	N 	0.146	0.4363	0.7071	0.073
Mof_N 	N 	0.2088	0.3082	0.6403	0.067
Mof_C 	C 	0.2983	0.5707	0.6034	-0.276
Mof_O 	O 	0.3903	0.5431	0.6996	-0.606
Mof_C 	C 	0.4156	0.3054	0.6551	-0.303
Mof_O 	O 	0.4482	0.4017	0.7221	-0.387
Mof_O 	O 	0.2774	0.4887	0.9181	-0.117
Mof_O 	O 	0.0851	0.438	0.6874	-0.129
Mof_O 	O 	0.181	0.2695	0.5939	-0.118
Mof_O 	O 	0.4861	0.4944	0.8488	-0.574
Mof_C 	C 	0.3362	0.5994	0.5765	0.202
Mof_C 	C 	0.2326	0.5755	0.5719	0.189
Mof_C 	C 	0.3712	0.2548	0.628	0.204
Mof_C 	C 	0.4736	0.3021	0.6519	0.235
Mof_H 	H 	0.3808	0.5968	0.5986	-0.034
Mof_C 	C 	0.3075	0.6317	0.5171	-0.252
Mof_C 	C 	0.2027	0.6109	0.513	-0.256
Mof_H 	H 	0.2076	0.555	0.5897	-0.021
Mof_O 	O 	0.4999	0.6272	0.7979	-0.291
Mof_H 	H 	0.3318	0.2567	0.63	-0.013
Mof_C 	C 	0.3858	0.1997	0.5972	-0.272
Mof_C 	C 	0.4884	0.2488	0.6211	-0.296
Mof_H 	H 	0.5037	0.3361	0.6707	-0.057
Mof_H 	H 	0.3325	0.6491	0.4978	0.13
Mof_C 	C 	0.2409	0.6381	0.4864	0.221
Mof_H 	H 	0.1582	0.6159	0.4924	0.123
Mof_H 	H 	0.3563	0.1653	0.5784	0.147
Mof_C 	C 	0.4442	0.1986	0.596	0.244
Mof_H 	H 	0.5272	0.2475	0.6179	0.128
Mof_N 	N 	0.2119	0.6749	0.4246	-0.166
Mof_N 	N 	0.4603	0.1406	0.5676	-0.174
Mof_C 	C 	0.244	0.7255	0.4136	0.098
Mof_C 	C 	0.1534	0.6574	0.3784	0.1
Mof_C 	C 	0.4209	0.1187	0.5063	0.093
Mof_C 	C 	0.5173	0.1105	0.5992	0.103
Mof_H 	H 	0.2833	0.7389	0.4468	-0.003
Mof_C 	C 	0.2203	0.7581	0.3544	-0.147
Mof_C 	C 	0.1265	0.6902	0.3194	-0.127
Mof_H 	H 	0.1309	0.6228	0.3866	0.008
Mof_H 	H 	0.3828	0.1418	0.4819	0.034
Mof_C 	C 	0.4351	0.0649	0.48	-0.144
Mof_C 	C 	0.5348	0.056	0.5743	-0.147
Mof_H 	H 	0.5461	0.1272	0.6397	0.006
Mof_H 	H 	0.2441	0.7921	0.3472	0.077
Mof_C 	C 	0.1611	0.7403	0.3057	0.071
Mof_H 	H 	0.0853	0.679	0.2885	0.096
Mof_H 	H 	0.4068	0.0512	0.4381	0.106
Mof_C 	C 	0.4907	0.0295	0.5139	0.072
Mof_H 	H 	0.5753	0.0368	0.5968	0.105
Mof_C 	C 	0.1335	0.7744	0.2397	0.086
Mof_C 	C 	0.153	0.8379	0.2332	-0.131
Mof_C 	C 	0.087	0.7434	0.1855	-0.13
Mof_H 	H 	0.1856	0.8591	0.2687	0.084
Mof_C 	C 	0.1237	0.8702	0.1734	0.114
Mof_C 	C 	0.0608	0.7759	0.1267	0.111
Mof_H 	H 	0.0735	0.7002	0.189	0.102
Mof_H 	H 	0.1356	0.9139	0.1693	0.008
Mof_N 	N 	0.0786	0.8395	0.1218	-0.156
Mof_H 	H 	0.0306	0.7543	0.0898	-0.004
Mof_C 	C 	0.0465	0.8732	0.0582	0.122
Mof_C 	C 	0.0832	0.9072	0.0335	-0.164
Mof_C 	C 	0.9809	0.8706	0.0259	-0.127
Mof_H 	H 	0.1276	0.9104	0.0574	0.118
Mof_C 	C 	0.0519	0.9365	0.9717	0.059
Mof_C 	C 	0.9507	0.8994	0.9646	0.086
Mof_H 	H 	0.957	0.8499	0.0447	0.096
Mof_H 	H 	0.0758	0.9593	0.954	0.018
Mof_C 	C 	0.9857	0.9319	0.9365	-0.151
Mof_H 	H 	0.9061	0.897	0.9417	0.008
Mof_C 	C 	0.9526	0.9601	0.8685	0.515
Mof_O 	O 	0.4227	0.422	0.6832	-0.305
Mof_Eu	Eu	1.32539e-33	0.99227	0.25	2.538
Mof_N 	N 	-1.20948e-17	0.8411	0.25	0.043
Mof_O 	O 	1.32539e-33	0.7776	0.25	-0.146
Mof_Eu	Eu	0.5	0.49227	0.25	2.668
Mof_N 	N 	0.5	0.3411	0.25	0.064
Mof_O 	O 	0.5	0.2776	0.25	-0.128
Mof_Eu	Eu	-4.83793e-17	0.00773	0.75	2.536
Mof_N 	N 	-4.83793e-17	0.1589	0.75	0.043
Mof_O 	O 	-4.83793e-17	0.2224	0.75	-0.147
Mof_Eu	Eu	0.5	0.50773	0.75	2.668
Mof_N 	N 	0.5	0.6589	0.75	0.064
Mof_O 	O 	0.5	0.7224	0.75	-0.128
_end
