data_functionalizedCrystal
_audit_creation_method	'EQeq! by Chris Wilmer'
_symmetry_space_group_name_H-M	'P1'
_symmetry_Int_Tables_number	1
_symmetry_cell_setting	triclinic
loop_
_symmetry_equiv_pos_as_xyz
  x,y,z
_cell_length_a	10.468
_cell_length_b	11.356
_cell_length_c	13.089
_cell_angle_alpha	107.539
_cell_angle_beta	90.086
_cell_angle_gamma	92.356
loop_
_atom_site_label
_atom_site_type_symbol
_atom_site_fract_x
_atom_site_fract_y
_atom_site_fract_z
_atom_site_charge
Mof_Tb	Tb	0.48066	0.45339	0.33946	1.887
Mof_C 	C 	0.4989	0.2333	0.1704	0.347
Mof_C 	C 	0.5084	0.7456	0.5064	0.484
Mof_C 	C 	0.2671	0.4913	0.5606	0.421
Mof_C 	C 	0.5007	0.1154	0.0868	-0.116
Mof_C 	C 	0.5062	0.8801	0.5067	-0.158
Mof_C 	C 	0.1295	0.4962	0.5281	-0.151
Mof_C 	C 	0.452	0.0055	0.1017	0.053
Mof_C 	C 	0.3914	0.9398	0.5256	0.049
Mof_C 	C 	0.0768	0.4028	0.4412	0.03
Mof_C 	C 	0.4032	0.0007	0.2057	-0.082
Mof_H 	H 	0.4104	0.0716	0.2643	0.078
Mof_C 	C 	0.2763	0.8845	0.5527	-0.075
Mof_H 	H 	0.2784	0.8054	0.5596	0.056
Mof_C 	C 	0.1483	0.3031	0.3811	-0.073
Mof_H 	H 	0.2334	0.299	0.4	0.037
Mof_C 	C 	0.349	0.898	0.2188	-0.023
Mof_H 	H 	0.3145	0.9004	0.2848	0.038
Mof_C 	C 	0.1658	0.9419	0.5686	-0.038
Mof_H 	H 	0.0918	0.9014	0.5824	0.044
Mof_C 	C 	0.0956	0.213	0.2963	-0.046
Mof_H 	H 	0.1442	0.1479	0.2581	0.05
Mof_C 	C 	0.3427	0.7846	0.1336	-0.036
Mof_H 	H 	0.3063	0.7132	0.1443	0.022
Mof_C 	C 	0.1621	0.0634	0.5644	-0.016
Mof_H 	H 	0.0855	0.1037	0.5772	0.035
Mof_C 	C 	0.967	0.2184	0.2666	-0.014
Mof_H 	H 	0.9318	0.1575	0.2076	0.04
Mof_C 	C 	0.3914	0.7822	0.0352	-0.072
Mof_H 	H 	0.3875	0.7078	0.9801	0.045
Mof_C 	C 	0.2671	0.1231	0.5423	-0.094
Mof_H 	H 	0.262	0.2042	0.5408	0.066
Mof_C 	C 	0.8942	0.3111	0.3226	-0.098
Mof_H 	H 	0.8089	0.3119	0.3028	0.081
Mof_C 	C 	0.4477	0.8899	0.0142	0.039
Mof_C 	C 	0.3858	0.0642	0.5211	0.061
Mof_C 	C 	0.9464	0.4079	0.4121	0.055
Mof_O 	O 	0.3911	0.2814	0.1952	-0.454
Mof_O 	O 	0.4931	0.667	0.4158	-0.536
Mof_O 	O 	0.357	0.5052	0.5018	-0.585
Mof_O 	O 	0.5982	0.2828	0.2172	-0.423
Mof_O 	O 	0.5274	0.7244	0.5925	-0.485
Mof_O 	O 	0.2885	0.4831	0.652	-0.444
Mof_Tb	Tb	0.51934	0.54661	0.66054	1.888
Mof_C 	C 	0.5011	0.7667	0.8296	0.348
Mof_C 	C 	0.4916	0.2544	0.4936	0.484
Mof_C 	C 	0.7329	0.5087	0.4394	0.421
Mof_C 	C 	0.4993	0.8846	0.9132	-0.116
Mof_C 	C 	0.4938	0.1199	0.4933	-0.158
Mof_C 	C 	0.8705	0.5038	0.4719	-0.151
Mof_C 	C 	0.548	0.9945	0.8983	0.053
Mof_C 	C 	0.6086	0.0602	0.4744	0.049
Mof_C 	C 	0.9232	0.5972	0.5588	0.03
Mof_C 	C 	0.5968	0.9993	0.7943	-0.082
Mof_H 	H 	0.5896	0.9284	0.7357	0.078
Mof_C 	C 	0.7237	0.1155	0.4473	-0.075
Mof_H 	H 	0.7216	0.1946	0.4404	0.056
Mof_C 	C 	0.8517	0.6969	0.6189	-0.073
Mof_H 	H 	0.7666	0.701	0.6	0.037
Mof_C 	C 	0.651	0.102	0.7812	-0.023
Mof_H 	H 	0.6855	0.0996	0.7152	0.038
Mof_C 	C 	0.8342	0.0581	0.4314	-0.038
Mof_H 	H 	0.9082	0.0986	0.4176	0.044
Mof_C 	C 	0.9044	0.787	0.7037	-0.046
Mof_H 	H 	0.8558	0.8521	0.7419	0.05
Mof_C 	C 	0.6573	0.2154	0.8664	-0.036
Mof_H 	H 	0.6937	0.2868	0.8557	0.022
Mof_C 	C 	0.8379	0.9366	0.4356	-0.016
Mof_H 	H 	0.9145	0.8963	0.4228	0.035
Mof_C 	C 	0.033	0.7816	0.7334	-0.014
Mof_H 	H 	0.0682	0.8425	0.7924	0.04
Mof_C 	C 	0.6086	0.2178	0.9648	-0.072
Mof_H 	H 	0.6125	0.2922	0.0199	0.045
Mof_C 	C 	0.7329	0.8769	0.4577	-0.094
Mof_H 	H 	0.738	0.7958	0.4592	0.066
Mof_C 	C 	0.1058	0.6889	0.6774	-0.098
Mof_H 	H 	0.1911	0.6881	0.6972	0.081
Mof_C 	C 	0.5523	0.1101	0.9858	0.039
Mof_C 	C 	0.6142	0.9358	0.4789	0.061
Mof_C 	C 	0.0536	0.5921	0.5879	0.055
Mof_O 	O 	0.6089	0.7186	0.8048	-0.454
Mof_O 	O 	0.5069	0.333	0.5842	-0.536
Mof_O 	O 	0.643	0.4948	0.4982	-0.585
Mof_O 	O 	0.4018	0.7172	0.7828	-0.423
Mof_O 	O 	0.4726	0.2756	0.4075	-0.485
Mof_O 	O 	0.7115	0.5169	0.348	-0.444
_end
