data_functionalizedCrystal
_audit_creation_method	'EQeq! by Chris Wilmer'
_symmetry_space_group_name_H-M	'P1'
_symmetry_Int_Tables_number	1
_symmetry_cell_setting	triclinic
loop_
_symmetry_equiv_pos_as_xyz
  x,y,z
_cell_length_a	19.0412
_cell_length_b	21.5681
_cell_length_c	23.654
_cell_angle_alpha	90
_cell_angle_beta	90
_cell_angle_gamma	95.44
loop_
_atom_site_label
_atom_site_type_symbol
_atom_site_fract_x
_atom_site_fract_y
_atom_site_fract_z
_atom_site_charge
Mof_Cd	Cd	0.73207	0.8315	0.87881	0.473
Mof_Cd	Cd	0.79276	0.75325	0.00726	0.493
Mof_Cd	Cd	0.83628	0.65697	0.88051	0.474
Mof_Cd	Cd	0.33643	0.65883	0.88193	0.476
Mof_Cd	Cd	0.2915	0.74128	0.74782	0.492
Mof_Cd	Cd	0.23226	0.83312	0.86713	0.473
Mof_Cd	Cd	0.76793	0.6685	0.37881	0.473
Mof_Cd	Cd	0.70724	0.74675	0.50726	0.492
Mof_Cd	Cd	0.66372	0.84303	0.38051	0.473
Mof_Cd	Cd	0.16357	0.84117	0.38193	0.475
Mof_Cd	Cd	0.2085	0.75872	0.24782	0.491
Mof_Cd	Cd	0.26774	0.66688	0.36713	0.472
Mof_Cd	Cd	0.26793	0.1685	0.12119	0.472
Mof_Cd	Cd	0.20724	0.24675	0.99274	0.492
Mof_Cd	Cd	0.16372	0.34303	0.11949	0.473
Mof_Cd	Cd	0.66357	0.34117	0.11807	0.475
Mof_Cd	Cd	0.7085	0.25872	0.25218	0.491
Mof_Cd	Cd	0.76774	0.16688	0.13287	0.472
Mof_Cd	Cd	0.23207	0.3315	0.62119	0.472
Mof_Cd	Cd	0.29276	0.25325	0.49274	0.491
Mof_Cd	Cd	0.33628	0.15697	0.61949	0.473
Mof_Cd	Cd	0.83643	0.15883	0.61807	0.475
Mof_Cd	Cd	0.7915	0.24128	0.75218	0.491
Mof_Cd	Cd	0.73226	0.33312	0.63287	0.472
Mof_H 	H 	0.6836	0.0875	0.0342	0.028
Mof_H 	H 	0.6814	0.9946	0.9826	0.068
Mof_H 	H 	0.833	0.9395	0.0859	0.091
Mof_H 	H 	0.8282	0.0313	0.1364	0.044
Mof_H 	H 	0.772	0.3917	0.019	0.04
Mof_H 	H 	0.8265	0.4837	0.9815	0.077
Mof_H 	H 	0.6865	0.5785	0.0671	0.072
Mof_H 	H 	0.6366	0.485	0.103	0.031
Mof_H 	H 	0.8033	0.6708	0.5981	0.026
Mof_H 	H 	0.8244	0.6654	0.6942	0.067
Mof_H 	H 	0.7256	0.8207	0.7144	0.067
Mof_H 	H 	0.7096	0.8245	0.6156	0.044
Mof_H 	H 	0.1123	0.7811	0.9552	0.05
Mof_H 	H 	0.9924	0.7631	0.9654	0.091
Mof_H 	H 	0.9673	0.8697	0.8274	0.081
Mof_H 	H 	0.0889	0.8773	0.8154	0.049
Mof_H 	H 	0.4795	0.6052	0.8374	0.055
Mof_H 	H 	0.6015	0.6189	0.8469	0.084
Mof_H 	H 	0.5774	0.7323	0.9784	0.064
Mof_H 	H 	0.4551	0.7124	0.97	0.036
Mof_H 	H 	0.6093	0.7736	0.7958	0.041
Mof_H 	H 	0.4887	0.7553	0.7878	0.087
Mof_H 	H 	0.4691	0.8781	0.9149	0.068
Mof_H 	H 	0.5917	0.8864	0.925	0.029
Mof_H 	H 	0.834	0.8937	0.7783	0.029
Mof_H 	H 	0.8615	0.9834	0.7271	0.086
Mof_H 	H 	0.703	0.0582	0.8082	0.072
Mof_H 	H 	0.6786	0.9644	0.8554	0.024
Mof_H 	H 	0.7316	0.5862	0.788	0.041
Mof_H 	H 	0.7076	0.4903	0.7426	0.095
Mof_H 	H 	0.862	0.4227	0.8346	0.097
Mof_H 	H 	0.8829	0.5191	0.8769	0.03
Mof_H 	H 	0.2171	0.8418	0.1408	0.039
Mof_H 	H 	0.2282	0.8374	0.0428	0.071
Mof_H 	H 	0.3281	0.6829	0.0624	0.068
Mof_H 	H 	0.309	0.6878	0.1578	0.029
Mof_H 	H 	0.9523	0.7025	0.7886	0.037
Mof_H 	H 	0.0735	0.7196	0.775	0.065
Mof_H 	H 	0.1022	0.6234	0.9197	0.079
Mof_H 	H 	0.9793	0.6088	0.9283	0.046
Mof_H 	H 	0.8164	0.4125	0.5342	0.028
Mof_H 	H 	0.8186	0.5054	0.4826	0.067
Mof_H 	H 	0.667	0.5605	0.5859	0.09
Mof_H 	H 	0.6718	0.4687	0.6364	0.044
Mof_H 	H 	0.728	0.1083	0.519	0.04
Mof_H 	H 	0.6735	0.0163	0.4815	0.077
Mof_H 	H 	0.8135	0.9215	0.5671	0.071
Mof_H 	H 	0.8634	0.015	0.603	0.031
Mof_H 	H 	0.6967	0.8292	0.0981	0.026
Mof_H 	H 	0.6756	0.8346	0.1942	0.067
Mof_H 	H 	0.7744	0.6793	0.2144	0.067
Mof_H 	H 	0.7904	0.6755	0.1156	0.044
Mof_H 	H 	0.3877	0.7189	0.4552	0.049
Mof_H 	H 	0.5076	0.7369	0.4654	0.092
Mof_H 	H 	0.5327	0.6303	0.3274	0.081
Mof_H 	H 	0.4111	0.6227	0.3154	0.049
Mof_H 	H 	0.0205	0.8948	0.3374	0.055
Mof_H 	H 	0.8985	0.8811	0.3469	0.083
Mof_H 	H 	0.9226	0.7677	0.4784	0.064
Mof_H 	H 	0.0449	0.7876	0.47	0.036
Mof_H 	H 	0.8907	0.7264	0.2958	0.041
Mof_H 	H 	0.0113	0.7447	0.2878	0.087
Mof_H 	H 	0.0309	0.6219	0.4149	0.068
Mof_H 	H 	0.9083	0.6136	0.425	0.029
Mof_H 	H 	0.666	0.6063	0.2783	0.029
Mof_H 	H 	0.6385	0.5166	0.2271	0.086
Mof_H 	H 	0.797	0.4418	0.3082	0.073
Mof_H 	H 	0.8214	0.5356	0.3554	0.024
Mof_H 	H 	0.7684	0.9138	0.288	0.04
Mof_H 	H 	0.7924	0.0097	0.2426	0.095
Mof_H 	H 	0.638	0.0773	0.3346	0.097
Mof_H 	H 	0.6171	0.9809	0.3769	0.03
Mof_H 	H 	0.2829	0.6582	0.6408	0.039
Mof_H 	H 	0.2718	0.6626	0.5428	0.071
Mof_H 	H 	0.1719	0.8171	0.5624	0.068
Mof_H 	H 	0.191	0.8122	0.6578	0.029
Mof_H 	H 	0.5477	0.7975	0.2886	0.037
Mof_H 	H 	0.4265	0.7804	0.275	0.066
Mof_H 	H 	0.3978	0.8766	0.4197	0.079
Mof_H 	H 	0.5207	0.8912	0.4283	0.046
Mof_H 	H 	0.3164	0.9125	0.9658	0.028
Mof_H 	H 	0.3186	0.0054	0.0174	0.068
Mof_H 	H 	0.167	0.0605	0.9141	0.091
Mof_H 	H 	0.1718	0.9687	0.8636	0.044
Mof_H 	H 	0.228	0.6083	0.981	0.04
Mof_H 	H 	0.1735	0.5163	0.0185	0.077
Mof_H 	H 	0.3135	0.4215	0.9329	0.072
Mof_H 	H 	0.3634	0.515	0.897	0.031
Mof_H 	H 	0.1967	0.3292	0.4019	0.026
Mof_H 	H 	0.1756	0.3346	0.3058	0.067
Mof_H 	H 	0.2744	0.1793	0.2856	0.067
Mof_H 	H 	0.2904	0.1755	0.3844	0.044
Mof_H 	H 	0.8877	0.2189	0.0448	0.05
Mof_H 	H 	0.0076	0.2369	0.0346	0.091
Mof_H 	H 	0.0327	0.1303	0.1726	0.081
Mof_H 	H 	0.9111	0.1227	0.1846	0.049
Mof_H 	H 	0.5205	0.3948	0.1626	0.055
Mof_H 	H 	0.3985	0.3811	0.1531	0.084
Mof_H 	H 	0.4226	0.2677	0.0216	0.064
Mof_H 	H 	0.5449	0.2876	0.03	0.036
Mof_H 	H 	0.3907	0.2264	0.2042	0.041
Mof_H 	H 	0.5113	0.2447	0.2122	0.087
Mof_H 	H 	0.5309	0.1219	0.0851	0.068
Mof_H 	H 	0.4083	0.1136	0.075	0.029
Mof_H 	H 	0.166	0.1063	0.2217	0.029
Mof_H 	H 	0.1385	0.0166	0.2729	0.086
Mof_H 	H 	0.297	0.9418	0.1918	0.072
Mof_H 	H 	0.3214	0.0356	0.1446	0.024
Mof_H 	H 	0.2684	0.4138	0.212	0.041
Mof_H 	H 	0.2924	0.5097	0.2574	0.095
Mof_H 	H 	0.138	0.5773	0.1654	0.097
Mof_H 	H 	0.1171	0.4809	0.1231	0.03
Mof_H 	H 	0.7829	0.1582	0.8592	0.039
Mof_H 	H 	0.7718	0.1626	0.9572	0.071
Mof_H 	H 	0.6719	0.3171	0.9376	0.068
Mof_H 	H 	0.691	0.3122	0.8422	0.029
Mof_H 	H 	0.0477	0.2975	0.2114	0.037
Mof_H 	H 	0.9265	0.2804	0.225	0.065
Mof_H 	H 	0.8978	0.3766	0.0803	0.079
Mof_H 	H 	0.0207	0.3912	0.0717	0.046
Mof_H 	H 	0.1836	0.5875	0.4658	0.028
Mof_H 	H 	0.1814	0.4946	0.5174	0.067
Mof_H 	H 	0.333	0.4395	0.4141	0.09
Mof_H 	H 	0.3282	0.5313	0.3636	0.044
Mof_H 	H 	0.272	0.8917	0.481	0.04
Mof_H 	H 	0.3265	0.9837	0.5185	0.077
Mof_H 	H 	0.1865	0.0785	0.4329	0.071
Mof_H 	H 	0.1366	0.985	0.397	0.031
Mof_H 	H 	0.3033	0.1708	0.9019	0.026
Mof_H 	H 	0.3244	0.1654	0.8058	0.067
Mof_H 	H 	0.2256	0.3207	0.7856	0.067
Mof_H 	H 	0.2096	0.3245	0.8844	0.044
Mof_H 	H 	0.6123	0.2811	0.5448	0.049
Mof_H 	H 	0.4924	0.2631	0.5346	0.092
Mof_H 	H 	0.4673	0.3697	0.6726	0.081
Mof_H 	H 	0.5889	0.3773	0.6846	0.049
Mof_H 	H 	0.9795	0.1052	0.6626	0.055
Mof_H 	H 	0.1015	0.1189	0.6531	0.083
Mof_H 	H 	0.0774	0.2323	0.5216	0.064
Mof_H 	H 	0.9551	0.2124	0.53	0.036
Mof_H 	H 	0.1093	0.2736	0.7042	0.041
Mof_H 	H 	0.9887	0.2553	0.7122	0.087
Mof_H 	H 	0.9691	0.3781	0.5851	0.068
Mof_H 	H 	0.0917	0.3864	0.575	0.029
Mof_H 	H 	0.334	0.3937	0.7217	0.029
Mof_H 	H 	0.3615	0.4834	0.7729	0.086
Mof_H 	H 	0.203	0.5582	0.6918	0.073
Mof_H 	H 	0.1786	0.4644	0.6446	0.024
Mof_H 	H 	0.2316	0.0862	0.712	0.04
Mof_H 	H 	0.2076	0.9903	0.7574	0.095
Mof_H 	H 	0.362	0.9227	0.6654	0.097
Mof_H 	H 	0.3829	0.0191	0.6231	0.03
Mof_H 	H 	0.7171	0.3418	0.3592	0.039
Mof_H 	H 	0.7282	0.3374	0.4572	0.071
Mof_H 	H 	0.8281	0.1829	0.4376	0.068
Mof_H 	H 	0.809	0.1878	0.3422	0.029
Mof_H 	H 	0.4523	0.2025	0.7114	0.037
Mof_H 	H 	0.5735	0.2196	0.725	0.066
Mof_H 	H 	0.6022	0.1234	0.5803	0.079
Mof_H 	H 	0.4793	0.1088	0.5717	0.046
Mof_C 	C 	0.7143	0.0573	0.0447	0.051
Mof_C 	C 	0.7127	0.0018	0.0137	-0.069
Mof_C 	C 	0.7575	0.9575	0.0291	-0.012
Mof_C 	C 	0.8016	0.9689	0.0747	-0.068
Mof_C 	C 	0.7992	0.0243	0.1039	0.052
Mof_C 	C 	0.7577	0.8974	0.9952	0.301
Mof_C 	C 	0.7554	0.4303	0.0293	0.049
Mof_C 	C 	0.7876	0.4849	0.0064	-0.06
Mof_C 	C 	0.7628	0.541	0.02	-0.018
Mof_C 	C 	0.7051	0.5407	0.057	-0.066
Mof_C 	C 	0.676	0.4849	0.0784	0.053
Mof_C 	C 	0.7963	0.6028	0.9974	0.316
Mof_C 	C 	0.7876	0.7022	0.6218	0.055
Mof_C 	C 	0.7993	0.6979	0.6794	-0.061
Mof_C 	C 	0.7744	0.7405	0.7145	-0.026
Mof_C 	C 	0.7417	0.7892	0.6909	-0.055
Mof_C 	C 	0.7326	0.7915	0.6318	0.046
Mof_C 	C 	0.7809	0.7375	0.7771	0.303
Mof_C 	C 	0.0825	0.7976	0.928	0.048
Mof_C 	C 	0.0113	0.7878	0.9347	-0.055
Mof_C 	C 	0.9664	0.8132	0.8976	-0.025
Mof_C 	C 	0.9961	0.8494	0.8529	-0.055
Mof_C 	C 	0.0688	0.8549	0.847	0.05
Mof_C 	C 	0.8888	0.8025	0.9027	0.307
Mof_C 	C 	0.4994	0.6311	0.8669	0.041
Mof_C 	C 	0.5725	0.6397	0.8719	-0.054
Mof_C 	C 	0.6021	0.6783	0.9132	-0.03
Mof_C 	C 	0.5581	0.7055	0.9493	-0.054
Mof_C 	C 	0.4849	0.6942	0.9437	0.04
Mof_C 	C 	0.6804	0.6925	0.9164	0.31
Mof_C 	C 	0.5801	0.7933	0.8214	0.05
Mof_C 	C 	0.5088	0.7831	0.8159	-0.066
Mof_C 	C 	0.4661	0.8134	0.8517	-0.016
Mof_C 	C 	0.4971	0.8545	0.8915	-0.069
Mof_C 	C 	0.5702	0.8603	0.8963	0.051
Mof_C 	C 	0.387	0.8023	0.8478	0.301
Mof_C 	C 	0.8064	0.9276	0.7841	0.068
Mof_C 	C 	0.8242	0.9812	0.7538	-0.074
Mof_C 	C 	0.7867	0.0314	0.7633	-0.006
Mof_C 	C 	0.7308	0.0246	0.8014	-0.072
Mof_C 	C 	0.7164	0.9686	0.8291	0.057
Mof_C 	C 	0.8035	0.0934	0.7334	0.311
Mof_C 	C 	0.7585	0.5527	0.7971	0.061
Mof_C 	C 	0.7441	0.4957	0.77	-0.076
Mof_C 	C 	0.7831	0.4472	0.7831	-0.002
Mof_C 	C 	0.8352	0.4558	0.8241	-0.083
Mof_C 	C 	0.8469	0.5131	0.8491	0.064
Mof_C 	C 	0.7699	0.3859	0.7525	0.29
Mof_C 	C 	0.2381	0.8079	0.1243	0.057
Mof_C 	C 	0.2454	0.8061	0.0658	-0.056
Mof_C 	C 	0.2783	0.7576	0.0413	-0.024
Mof_C 	C 	0.303	0.7153	0.0772	-0.06
Mof_C 	C 	0.2923	0.7188	0.1342	0.056
Mof_C 	C 	0.2829	0.7527	0.978	0.32
Mof_C 	C 	0.9832	0.687	0.8156	0.042
Mof_C 	C 	0.0555	0.6975	0.8075	-0.056
Mof_C 	C 	0.1014	0.6759	0.8463	-0.027
Mof_C 	C 	0.0727	0.6407	0.8927	-0.055
Mof_C 	C 	0.9992	0.6324	0.8974	0.048
Mof_C 	C 	0.1802	0.6897	0.8422	0.307
Mof_C 	C 	0.7857	0.4427	0.5447	0.05
Mof_C 	C 	0.7873	0.4982	0.5137	-0.068
Mof_C 	C 	0.7425	0.5425	0.5291	-0.014
Mof_C 	C 	0.6984	0.5311	0.5747	-0.068
Mof_C 	C 	0.7008	0.4757	0.6039	0.053
Mof_C 	C 	0.7423	0.6026	0.4952	0.303
Mof_C 	C 	0.7446	0.0697	0.5293	0.049
Mof_C 	C 	0.7124	0.0151	0.5064	-0.061
Mof_C 	C 	0.7372	0.959	0.52	-0.019
Mof_C 	C 	0.7949	0.9593	0.557	-0.066
Mof_C 	C 	0.824	0.0151	0.5784	0.053
Mof_C 	C 	0.7037	0.8972	0.4974	0.317
Mof_C 	C 	0.7124	0.7978	0.1218	0.055
Mof_C 	C 	0.7007	0.8021	0.1794	-0.061
Mof_C 	C 	0.7256	0.7595	0.2145	-0.026
Mof_C 	C 	0.7583	0.7108	0.1909	-0.055
Mof_C 	C 	0.7674	0.7085	0.1318	0.046
Mof_C 	C 	0.7191	0.7625	0.2771	0.303
Mof_C 	C 	0.4175	0.7024	0.428	0.049
Mof_C 	C 	0.4887	0.7122	0.4347	-0.058
Mof_C 	C 	0.5336	0.6868	0.3976	-0.023
Mof_C 	C 	0.5039	0.6506	0.3529	-0.055
Mof_C 	C 	0.4312	0.6451	0.347	0.05
Mof_C 	C 	0.6112	0.6975	0.4027	0.307
Mof_C 	C 	0.0006	0.8689	0.3669	0.041
Mof_C 	C 	0.9275	0.8603	0.3719	-0.053
Mof_C 	C 	0.8979	0.8217	0.4132	-0.03
Mof_C 	C 	0.9419	0.7945	0.4493	-0.054
Mof_C 	C 	0.0151	0.8058	0.4437	0.039
Mof_C 	C 	0.8196	0.8075	0.4164	0.31
Mof_C 	C 	0.9199	0.7067	0.3214	0.05
Mof_C 	C 	0.9912	0.7169	0.3159	-0.065
Mof_C 	C 	0.0339	0.6866	0.3517	-0.016
Mof_C 	C 	0.0029	0.6455	0.3915	-0.069
Mof_C 	C 	0.9298	0.6397	0.3963	0.051
Mof_C 	C 	0.113	0.6977	0.3478	0.301
Mof_C 	C 	0.6936	0.5724	0.2841	0.068
Mof_C 	C 	0.6758	0.5188	0.2538	-0.074
Mof_C 	C 	0.7133	0.4686	0.2633	-0.006
Mof_C 	C 	0.7692	0.4754	0.3014	-0.073
Mof_C 	C 	0.7836	0.5314	0.3291	0.058
Mof_C 	C 	0.6965	0.4066	0.2334	0.311
Mof_C 	C 	0.7415	0.9473	0.2971	0.061
Mof_C 	C 	0.7559	0.0043	0.27	-0.077
Mof_C 	C 	0.7169	0.0528	0.2831	-0.002
Mof_C 	C 	0.6648	0.0442	0.3241	-0.084
Mof_C 	C 	0.6531	0.9869	0.3491	0.065
Mof_C 	C 	0.7301	0.1141	0.2525	0.29
Mof_C 	C 	0.2619	0.6921	0.6243	0.057
Mof_C 	C 	0.2546	0.6939	0.5658	-0.056
Mof_C 	C 	0.2217	0.7424	0.5413	-0.024
Mof_C 	C 	0.197	0.7847	0.5772	-0.06
Mof_C 	C 	0.2077	0.7812	0.6342	0.056
Mof_C 	C 	0.2171	0.7473	0.478	0.32
Mof_C 	C 	0.5168	0.813	0.3156	0.043
Mof_C 	C 	0.4445	0.8025	0.3075	-0.057
Mof_C 	C 	0.3986	0.8241	0.3463	-0.026
Mof_C 	C 	0.4273	0.8593	0.3927	-0.057
Mof_C 	C 	0.5008	0.8676	0.3974	0.049
Mof_C 	C 	0.3198	0.8103	0.3422	0.307
Mof_C 	C 	0.2857	0.9427	0.9553	0.051
Mof_C 	C 	0.2873	0.9982	0.9863	-0.069
Mof_C 	C 	0.2425	0.0425	0.9709	-0.012
Mof_C 	C 	0.1984	0.0311	0.9253	-0.068
Mof_C 	C 	0.2008	0.9757	0.8961	0.052
Mof_C 	C 	0.2423	0.1026	0.0048	0.301
Mof_C 	C 	0.2446	0.5697	0.9707	0.049
Mof_C 	C 	0.2124	0.5151	0.9936	-0.06
Mof_C 	C 	0.2372	0.459	0.98	-0.018
Mof_C 	C 	0.2949	0.4593	0.943	-0.066
Mof_C 	C 	0.324	0.5151	0.9216	0.053
Mof_C 	C 	0.2037	0.3972	0.0026	0.316
Mof_C 	C 	0.2124	0.2978	0.3782	0.055
Mof_C 	C 	0.2007	0.3021	0.3206	-0.061
Mof_C 	C 	0.2256	0.2595	0.2855	-0.026
Mof_C 	C 	0.2583	0.2108	0.3091	-0.055
Mof_C 	C 	0.2674	0.2085	0.3682	0.046
Mof_C 	C 	0.2191	0.2625	0.2229	0.303
Mof_C 	C 	0.9175	0.2024	0.072	0.048
Mof_C 	C 	0.9887	0.2122	0.0653	-0.055
Mof_C 	C 	0.0336	0.1868	0.1024	-0.025
Mof_C 	C 	0.0039	0.1506	0.1471	-0.055
Mof_C 	C 	0.9312	0.1451	0.153	0.05
Mof_C 	C 	0.1112	0.1975	0.0973	0.307
Mof_C 	C 	0.5006	0.3689	0.1331	0.041
Mof_C 	C 	0.4275	0.3603	0.1281	-0.054
Mof_C 	C 	0.3979	0.3217	0.0868	-0.03
Mof_C 	C 	0.4419	0.2945	0.0507	-0.054
Mof_C 	C 	0.5151	0.3058	0.0563	0.04
Mof_C 	C 	0.3196	0.3075	0.0836	0.31
Mof_C 	C 	0.4199	0.2067	0.1786	0.05
Mof_C 	C 	0.4912	0.2169	0.1841	-0.066
Mof_C 	C 	0.5339	0.1866	0.1483	-0.016
Mof_C 	C 	0.5029	0.1455	0.1085	-0.069
Mof_C 	C 	0.4298	0.1397	0.1037	0.051
Mof_C 	C 	0.613	0.1977	0.1522	0.301
Mof_C 	C 	0.1936	0.0724	0.2159	0.068
Mof_C 	C 	0.1758	0.0188	0.2462	-0.074
Mof_C 	C 	0.2133	0.9686	0.2367	-0.006
Mof_C 	C 	0.2692	0.9754	0.1986	-0.072
Mof_C 	C 	0.2836	0.0314	0.1709	0.057
Mof_C 	C 	0.1965	0.9066	0.2666	0.311
Mof_C 	C 	0.2415	0.4473	0.2029	0.061
Mof_C 	C 	0.2559	0.5043	0.23	-0.076
Mof_C 	C 	0.2169	0.5528	0.2169	-0.002
Mof_C 	C 	0.1648	0.5442	0.1759	-0.083
Mof_C 	C 	0.1531	0.4869	0.1509	0.064
Mof_C 	C 	0.2301	0.6141	0.2475	0.29
Mof_C 	C 	0.7619	0.1921	0.8757	0.057
Mof_C 	C 	0.7546	0.1939	0.9342	-0.056
Mof_C 	C 	0.7217	0.2424	0.9587	-0.024
Mof_C 	C 	0.697	0.2847	0.9228	-0.06
Mof_C 	C 	0.7077	0.2812	0.8658	0.056
Mof_C 	C 	0.7171	0.2473	0.022	0.32
Mof_C 	C 	0.0168	0.313	0.1844	0.042
Mof_C 	C 	0.9445	0.3025	0.1925	-0.056
Mof_C 	C 	0.8986	0.3241	0.1537	-0.027
Mof_C 	C 	0.9273	0.3593	0.1073	-0.055
Mof_C 	C 	0.0008	0.3676	0.1026	0.048
Mof_C 	C 	0.8198	0.3103	0.1578	0.307
Mof_C 	C 	0.2143	0.5573	0.4553	0.05
Mof_C 	C 	0.2127	0.5018	0.4863	-0.068
Mof_C 	C 	0.2575	0.4575	0.4709	-0.014
Mof_C 	C 	0.3016	0.4689	0.4253	-0.068
Mof_C 	C 	0.2992	0.5243	0.3961	0.053
Mof_C 	C 	0.2577	0.3974	0.5048	0.303
Mof_C 	C 	0.2554	0.9303	0.4707	0.049
Mof_C 	C 	0.2876	0.9849	0.4936	-0.061
Mof_C 	C 	0.2628	0.041	0.48	-0.019
Mof_C 	C 	0.2051	0.0407	0.443	-0.066
Mof_C 	C 	0.176	0.9849	0.4216	0.053
Mof_C 	C 	0.2963	0.1028	0.5026	0.317
Mof_C 	C 	0.2876	0.2022	0.8782	0.055
Mof_C 	C 	0.2993	0.1979	0.8206	-0.061
Mof_C 	C 	0.2744	0.2405	0.7855	-0.026
Mof_C 	C 	0.2417	0.2892	0.8091	-0.055
Mof_C 	C 	0.2326	0.2915	0.8682	0.046
Mof_C 	C 	0.2809	0.2375	0.7229	0.303
Mof_C 	C 	0.5825	0.2976	0.572	0.049
Mof_C 	C 	0.5113	0.2878	0.5653	-0.058
Mof_C 	C 	0.4664	0.3132	0.6024	-0.023
Mof_C 	C 	0.4961	0.3494	0.6471	-0.055
Mof_C 	C 	0.5688	0.3549	0.653	0.05
Mof_C 	C 	0.3888	0.3025	0.5973	0.307
Mof_C 	C 	0.9994	0.1311	0.6331	0.041
Mof_C 	C 	0.0725	0.1397	0.6281	-0.053
Mof_C 	C 	0.1021	0.1783	0.5868	-0.03
Mof_C 	C 	0.0581	0.2055	0.5507	-0.054
Mof_C 	C 	0.9849	0.1942	0.5563	0.039
Mof_C 	C 	0.1804	0.1925	0.5836	0.31
Mof_C 	C 	0.0801	0.2933	0.6786	0.05
Mof_C 	C 	0.0088	0.2831	0.6841	-0.065
Mof_C 	C 	0.9661	0.3134	0.6483	-0.016
Mof_C 	C 	0.9971	0.3545	0.6085	-0.069
Mof_C 	C 	0.0702	0.3603	0.6037	0.051
Mof_C 	C 	0.887	0.3023	0.6522	0.301
Mof_C 	C 	0.3064	0.4276	0.7159	0.068
Mof_C 	C 	0.3242	0.4812	0.7462	-0.074
Mof_C 	C 	0.2867	0.5314	0.7367	-0.006
Mof_C 	C 	0.2308	0.5246	0.6986	-0.073
Mof_C 	C 	0.2164	0.4686	0.6709	0.058
Mof_C 	C 	0.3035	0.5934	0.7666	0.311
Mof_C 	C 	0.2585	0.0527	0.7029	0.061
Mof_C 	C 	0.2441	0.9957	0.73	-0.077
Mof_C 	C 	0.2831	0.9472	0.7169	-0.002
Mof_C 	C 	0.3352	0.9558	0.6759	-0.084
Mof_C 	C 	0.3469	0.0131	0.6509	0.065
Mof_C 	C 	0.2699	0.8859	0.7475	0.29
Mof_C 	C 	0.7381	0.3079	0.3757	0.057
Mof_C 	C 	0.7454	0.3061	0.4342	-0.056
Mof_C 	C 	0.7783	0.2576	0.4587	-0.024
Mof_C 	C 	0.803	0.2153	0.4228	-0.06
Mof_C 	C 	0.7923	0.2188	0.3658	0.056
Mof_C 	C 	0.7829	0.2527	0.522	0.32
Mof_C 	C 	0.4832	0.187	0.6844	0.043
Mof_C 	C 	0.5555	0.1975	0.6925	-0.057
Mof_C 	C 	0.6014	0.1759	0.6537	-0.026
Mof_C 	C 	0.5727	0.1407	0.6073	-0.057
Mof_C 	C 	0.4992	0.1324	0.6026	0.049
Mof_C 	C 	0.6802	0.1897	0.6578	0.307
Mof_N 	N 	0.758	0.0688	0.0887	-0.131
Mof_N 	N 	0.7007	0.4305	0.0661	-0.13
Mof_N 	N 	0.7558	0.7476	0.5977	-0.13
Mof_N 	N 	0.1123	0.8303	0.8834	-0.132
Mof_N 	N 	0.4557	0.6581	0.9018	-0.132
Mof_N 	N 	0.6109	0.831	0.8623	-0.135
Mof_N 	N 	0.7539	0.9198	0.8204	-0.136
Mof_N 	N 	0.8102	0.5612	0.8362	-0.135
Mof_N 	N 	0.2593	0.7642	0.158	-0.132
Mof_N 	N 	0.9558	0.6556	0.8607	-0.133
Mof_N 	N 	0.742	0.4312	0.5887	-0.131
Mof_N 	N 	0.7993	0.0695	0.5661	-0.13
Mof_N 	N 	0.7442	0.7524	0.0977	-0.13
Mof_N 	N 	0.3877	0.6697	0.3834	-0.132
Mof_N 	N 	0.0443	0.8419	0.4018	-0.132
Mof_N 	N 	0.8891	0.669	0.3623	-0.135
Mof_N 	N 	0.7461	0.5802	0.3204	-0.136
Mof_N 	N 	0.6898	0.9388	0.3362	-0.135
Mof_N 	N 	0.2407	0.7358	0.658	-0.132
Mof_N 	N 	0.5442	0.8444	0.3607	-0.134
Mof_N 	N 	0.242	0.9312	0.9113	-0.131
Mof_N 	N 	0.2993	0.5695	0.9339	-0.13
Mof_N 	N 	0.2442	0.2524	0.4023	-0.13
Mof_N 	N 	0.8877	0.1697	0.1166	-0.132
Mof_N 	N 	0.5443	0.3419	0.0982	-0.132
Mof_N 	N 	0.3891	0.169	0.1377	-0.135
Mof_N 	N 	0.2461	0.0802	0.1796	-0.136
Mof_N 	N 	0.1898	0.4388	0.1638	-0.135
Mof_N 	N 	0.7407	0.2358	0.842	-0.132
Mof_N 	N 	0.0442	0.3444	0.1393	-0.133
Mof_N 	N 	0.258	0.5688	0.4113	-0.131
Mof_N 	N 	0.2007	0.9305	0.4339	-0.13
Mof_N 	N 	0.2558	0.2476	0.9023	-0.13
Mof_N 	N 	0.6123	0.3303	0.6166	-0.132
Mof_N 	N 	0.9557	0.1581	0.5982	-0.132
Mof_N 	N 	0.1109	0.331	0.6377	-0.135
Mof_N 	N 	0.2539	0.4198	0.6796	-0.136
Mof_N 	N 	0.3102	0.0612	0.6638	-0.135
Mof_N 	N 	0.7593	0.2642	0.342	-0.132
Mof_N 	N 	0.4558	0.1556	0.6393	-0.134
Mof_O 	O 	0.7186	0.8933	0.9529	-0.286
Mof_O 	O 	0.7964	0.8578	0.0137	-0.27
Mof_O 	O 	0.7731	0.6505	0.0169	-0.282
Mof_O 	O 	0.8435	0.6007	0.9611	-0.276
Mof_O 	O 	0.7378	0.766	0.8055	-0.279
Mof_O 	O 	0.8276	0.7057	0.7966	-0.281
Mof_O 	O 	0.8521	0.8411	0.8824	-0.273
Mof_O 	O 	0.8648	0.753	0.929	-0.29
Mof_O 	O 	0.7024	0.7439	0.9413	-0.293
Mof_O 	O 	0.7173	0.655	0.8958	-0.278
Mof_O 	O 	0.3621	0.7501	0.8275	-0.292
Mof_O 	O 	0.3515	0.8444	0.8649	-0.274
Mof_O 	O 	0.8456	0.0945	0.6929	-0.274
Mof_O 	O 	0.774	0.1379	0.7539	-0.28
Mof_O 	O 	0.8081	0.3437	0.766	-0.266
Mof_O 	O 	0.7212	0.3815	0.7163	-0.274
Mof_O 	O 	0.2426	0.7828	0.95	-0.285
Mof_O 	O 	0.3277	0.7191	0.9599	-0.288
Mof_O 	O 	0.2179	0.6558	0.867	-0.278
Mof_O 	O 	0.2007	0.7387	0.8129	-0.291
Mof_O 	O 	0.3999	0.737	0.699	-0.129
Mof_O 	O 	0.9004	0.7559	0.0561	-0.131
Mof_O 	O 	0.7814	0.6067	0.4529	-0.287
Mof_O 	O 	0.7036	0.6422	0.5137	-0.271
Mof_O 	O 	0.7269	0.8495	0.5169	-0.283
Mof_O 	O 	0.6565	0.8993	0.4611	-0.276
Mof_O 	O 	0.7622	0.734	0.3055	-0.279
Mof_O 	O 	0.6724	0.7943	0.2966	-0.281
Mof_O 	O 	0.6479	0.6589	0.3824	-0.273
Mof_O 	O 	0.6352	0.747	0.429	-0.29
Mof_O 	O 	0.7976	0.7561	0.4413	-0.293
Mof_O 	O 	0.7827	0.845	0.3958	-0.278
Mof_O 	O 	0.1379	0.7499	0.3275	-0.292
Mof_O 	O 	0.1485	0.6556	0.3649	-0.274
Mof_O 	O 	0.6544	0.4055	0.1929	-0.274
Mof_O 	O 	0.726	0.3621	0.2539	-0.28
Mof_O 	O 	0.6919	0.1563	0.266	-0.266
Mof_O 	O 	0.7788	0.1185	0.2163	-0.274
Mof_O 	O 	0.2574	0.7172	0.45	-0.285
Mof_O 	O 	0.1723	0.7809	0.4599	-0.288
Mof_O 	O 	0.2821	0.8442	0.367	-0.278
Mof_O 	O 	0.2993	0.7613	0.3129	-0.291
Mof_O 	O 	0.1001	0.763	0.199	-0.129
Mof_O 	O 	0.5996	0.7441	0.5561	-0.131
Mof_O 	O 	0.2814	0.1067	0.0471	-0.286
Mof_O 	O 	0.2036	0.1422	0.9863	-0.27
Mof_O 	O 	0.2269	0.3495	0.9831	-0.282
Mof_O 	O 	0.1565	0.3993	0.0389	-0.276
Mof_O 	O 	0.2622	0.234	0.1945	-0.279
Mof_O 	O 	0.1724	0.2943	0.2034	-0.281
Mof_O 	O 	0.1479	0.1589	0.1176	-0.273
Mof_O 	O 	0.1352	0.247	0.071	-0.29
Mof_O 	O 	0.2976	0.2561	0.0587	-0.293
Mof_O 	O 	0.2827	0.345	0.1042	-0.278
Mof_O 	O 	0.6379	0.2499	0.1725	-0.292
Mof_O 	O 	0.6485	0.1556	0.1351	-0.274
Mof_O 	O 	0.1544	0.9055	0.3071	-0.274
Mof_O 	O 	0.226	0.8621	0.2461	-0.28
Mof_O 	O 	0.1919	0.6563	0.234	-0.266
Mof_O 	O 	0.2788	0.6185	0.2837	-0.274
Mof_O 	O 	0.7574	0.2172	0.05	-0.285
Mof_O 	O 	0.6723	0.2809	0.0401	-0.288
Mof_O 	O 	0.7821	0.3442	0.133	-0.278
Mof_O 	O 	0.7993	0.2613	0.1871	-0.291
Mof_O 	O 	0.6001	0.263	0.301	-0.129
Mof_O 	O 	0.0996	0.2441	0.9439	-0.131
Mof_O 	O 	0.2186	0.3933	0.5471	-0.287
Mof_O 	O 	0.2964	0.3578	0.4863	-0.271
Mof_O 	O 	0.2731	0.1505	0.4831	-0.283
Mof_O 	O 	0.3435	0.1007	0.5389	-0.276
Mof_O 	O 	0.2378	0.266	0.6945	-0.279
Mof_O 	O 	0.3276	0.2057	0.7034	-0.281
Mof_O 	O 	0.3521	0.3411	0.6176	-0.273
Mof_O 	O 	0.3648	0.253	0.571	-0.29
Mof_O 	O 	0.2024	0.2439	0.5587	-0.293
Mof_O 	O 	0.2173	0.155	0.6042	-0.278
Mof_O 	O 	0.8621	0.2501	0.6725	-0.292
Mof_O 	O 	0.8515	0.3444	0.6351	-0.274
Mof_O 	O 	0.3456	0.5945	0.8071	-0.274
Mof_O 	O 	0.274	0.6379	0.7461	-0.28
Mof_O 	O 	0.3081	0.8437	0.734	-0.266
Mof_O 	O 	0.2212	0.8815	0.7837	-0.274
Mof_O 	O 	0.7426	0.2828	0.55	-0.285
Mof_O 	O 	0.8277	0.2191	0.5401	-0.288
Mof_O 	O 	0.7179	0.1558	0.633	-0.278
Mof_O 	O 	0.7007	0.2387	0.6871	-0.291
Mof_O 	O 	0.8999	0.237	0.801	-0.129
Mof_O 	O 	0.4004	0.2559	0.4439	-0.131
Mof_Cl	Cl	0.5484	0.524	0.7268	-0.201
Mof_O 	O 	0.4878	0.5645	0.7377	-0.029
Mof_O 	O 	0.538	0.488	0.669	-0.042
Mof_O 	O 	0.6205	0.566	0.724	-0.049
Mof_O 	O 	0.553	0.475	0.775	-0.048
Mof_Cl	Cl	0.4334	0.8341	0.5626	-0.26
Mof_Cl	Cl	0.9516	0.976	0.2268	-0.201
Mof_O 	O 	0.0122	0.9355	0.2377	-0.029
Mof_O 	O 	0.962	0.012	0.169	-0.043
Mof_O 	O 	0.8795	0.934	0.224	-0.049
Mof_O 	O 	0.947	0.025	0.275	-0.048
Mof_Cl	Cl	0.0666	0.6659	0.0626	-0.261
Mof_Cl	Cl	0.4516	0.476	0.2732	-0.201
Mof_O 	O 	0.5122	0.4355	0.2623	-0.029
Mof_O 	O 	0.462	0.512	0.331	-0.042
Mof_O 	O 	0.3795	0.434	0.276	-0.049
Mof_O 	O 	0.447	0.525	0.225	-0.048
Mof_Cl	Cl	0.5666	0.1659	0.4374	-0.26
Mof_Cl	Cl	0.0484	0.024	0.7732	-0.201
Mof_O 	O 	0.9878	0.0645	0.7623	-0.029
Mof_O 	O 	0.038	0.988	0.831	-0.043
Mof_O 	O 	0.1205	0.066	0.776	-0.049
Mof_O 	O 	0.053	0.975	0.725	-0.048
Mof_Cl	Cl	0.9334	0.3341	0.9374	-0.261
_end
