data_functionalizedCrystal
_audit_creation_method	'EQeq! by Chris Wilmer'
_symmetry_space_group_name_H-M	'P1'
_symmetry_Int_Tables_number	1
_symmetry_cell_setting	triclinic
loop_
_symmetry_equiv_pos_as_xyz
  x,y,z
_cell_length_a	22.909
_cell_length_b	30.1561
_cell_length_c	27.7203
_cell_angle_alpha	90
_cell_angle_beta	111.637
_cell_angle_gamma	90
loop_
_atom_site_label
_atom_site_type_symbol
_atom_site_fract_x
_atom_site_fract_y
_atom_site_fract_z
_atom_site_charge
Mof_Pr	Pr	0.40996	0.34651	0.87959	2.295
Mof_Pr	Pr	0.71138	0.34779	0.88927	2.176
Mof_W 	W 	0.74995	0.54267	0.81156	0.994
Mof_W 	W 	0.55669	0.55152	0.881	1.437
Mof_W 	W 	0.14112	0.24025	0.88117	1.375
Mof_W 	W 	0.02108	0.24398	0.61851	1.045
Mof_W 	W 	0.29328	0.16261	0.81305	0.955
Mof_W 	W 	0.19029	0.12243	0.88032	1.004
Mof_W 	W 	0.07191	0.12683	0.61838	1.003
Mof_W 	W 	0.45387	0.46083	0.81355	1.43
Mof_W 	W 	0.17831	0.03477	0.68381	1.366
Mof_W 	W 	0.23803	0.15088	0.68476	0.963
Mof_W 	W 	0.23916	0.28155	0.81319	1.343
Mof_W 	W 	0.18973	0.27191	0.68509	1.335
Mof_W 	W 	0.06259	0.34956	0.68612	1
Mof_W 	W 	0.61875	0.46713	0.81417	1.415
Mof_W 	W 	0.10291	0.34962	0.8144	1.024
Mof_P 	P 	0.0889	0.25042	0.7496	0.598
Mof_P 	P 	0.14353	0.122	0.74949	0.588
Mof_Na	Na	0.9765	0.1565	0.6975	2.794
Mof_K 	K 	0.8389	0.99499	0.46916	2.439
Mof_K 	K 	0.2992	0.28699	0.96	2.459
Mof_C 	C 	0.7846	0.3046	0.0096	0.342
Mof_C 	C 	0.7166	0.3036	0.0058	-0.11
Mof_C 	C 	0.6998	0.2877	0.0457	0.032
Mof_H 	H 	0.7303	0.2772	0.0773	-0.021
Mof_C 	C 	0.6358	0.2877	0.0372	-0.143
Mof_H 	H 	0.6219	0.2783	0.0639	0.049
Mof_C 	C 	0.5922	0.3015	0.9897	0.029
Mof_H 	H 	0.5484	0.3005	0.9827	-0.056
Mof_C 	C 	0.6147	0.3166	0.9535	-0.167
Mof_C 	C 	0.5726	0.333	0.9004	0.475
Mof_C 	C 	0.2998	0.385	0.7658	-0.125
Mof_C 	C 	0.2481	0.4065	0.732	0.107
Mof_H 	H 	0.2391	0.4052	0.6958	-0.082
Mof_C 	C 	0.2094	0.43	0.7506	-0.143
Mof_H 	H 	0.1731	0.4446	0.7274	0.039
Mof_C 	C 	0.2242	0.4319	0.8032	0.084
Mof_H 	H 	0.1976	0.4474	0.8169	-0.036
Mof_C 	C 	0.278	0.4111	0.8364	-0.123
Mof_C 	C 	0.2989	0.411	0.8947	0.385
Mof_C 	C 	0.3407	0.3555	0.7504	0.472
Mof_N 	N 	0.6756	0.3178	0.9601	-0.223
Mof_N 	N 	0.3156	0.3883	0.8174	-0.207
Mof_O 	O 	0.1363	0.3259	0.689	-0.479
Mof_O 	O 	0.093	0.3804	0.7508	-0.46
Mof_O 	O 	0.0231	0.3581	0.809	-0.476
Mof_O 	O 	0.1821	0.2522	0.9455	-0.998
Mof_O 	O 	0.1167	0.3009	0.8589	-0.547
Mof_O 	O 	0.0613	0.2327	0.8851	-0.548
Mof_O 	O 	0.1879	0.3269	0.8107	-0.527
Mof_O 	O 	0.2103	0.25	0.8586	-0.704
Mof_O 	O 	0.0892	0.2269	0.7981	-0.394
Mof_O 	O 	0.0691	0.3002	0.7494	-0.365
Mof_O 	O 	0.1571	0.2506	0.7494	-0.41
Mof_O 	O 	0.1539	0.1793	0.8836	-0.568
Mof_O 	O 	0.1107	0.2514	0.6402	-0.49
Mof_O 	O 	0.2269	0.218	0.6899	-0.633
Mof_O 	O 	0.307	0.1585	0.7488	-0.626
Mof_O 	O 	0.1526	0.1535	0.6402	-0.484
Mof_O 	O 	0.2327	0.0914	0.6877	-0.493
Mof_O 	O 	0.0182	0.3033	0.6395	-0.493
Mof_O 	O 	0.0451	0.2283	0.7008	-0.558
Mof_O 	O 	0.0333	0.1817	0.615	-0.608
Mof_O 	O 	0.2053	0.0111	0.6398	-0.706
Mof_O 	O 	0.1148	0.0713	0.6405	-0.583
Mof_O 	O 	0.3738	0.4927	0.8094	-0.529
Mof_O 	O 	0.5026	0.5969	0.8837	-0.537
Mof_O 	O 	0.5953	0.4338	0.7508	-0.509
Mof_O 	O 	0.4461	0.4194	0.8539	-0.677
Mof_O 	O 	0.4912	0.508	0.8606	-0.585
Mof_O 	O 	0.5856	0.5381	0.9457	-0.832
Mof_O 	O 	0.5301	0.4469	0.8122	-0.519
Mof_O 	O 	0.6068	0.5086	0.8598	-0.587
Mof_O 	O 	0.6192	0.5952	0.8849	-0.541
Mof_O 	O 	0.4789	0.5687	0.7011	-0.597
Mof_O 	O 	0.5547	0.5096	0.7498	-0.438
Mof_O 	O 	0.1296	0.1304	0.7986	-0.36
Mof_O 	O 	0.6588	0.4251	0.8562	-0.659
Mof_O 	O 	0.6828	0.4958	0.8067	-0.516
Mof_O 	O 	0.7159	0.5694	0.858	-0.508
Mof_O 	O 	0.2511	0.1529	0.8582	-0.524
Mof_O 	O 	0.7473	0.5203	0.7469	-0.473
Mof_O 	O 	0.2902	0.0943	0.8092	-0.466
Mof_O 	O 	0.279	0.222	0.8075	-0.621
Mof_O 	O 	0.1989	0.1518	0.7493	-0.353
Mof_O 	O 	0.0852	0.1314	0.7009	-0.575
Mof_O 	O 	0.3103	0.3024	0.8565	-0.862
Mof_O 	O 	0.2184	0.2988	0.6436	-0.655
Mof_O 	O 	0.5151	0.33	0.8886	-0.639
Mof_O 	O 	0.2683	0.4314	0.9161	-0.652
Mof_O 	O 	0.3475	0.3884	0.918	-0.737
Mof_O 	O 	0.3873	0.3367	0.7858	-0.718
Mof_O 	O 	0.3308	0.3488	0.7033	-0.662
Mof_O 	O 	0.7928	0.3178	0.9698	-0.549
Mof_O 	O 	0.8264	0.2916	0.0509	-0.318
Mof_O 	O 	0.598	0.349	0.8709	-0.55
Mof_O 	O 	0.2493	0.2934	0.7488	-0.66
Mof_O 	O 	0.1642	0.0734	0.7488	-0.383
Mof_O 	O 	0.668	0.268	0.8697	-0.574
Mof_O 	O 	0.4256	0.3028	0.961	-0.712
Mof_K 	K 	0.366	0.2463	0.7364	2.65
Mof_Na	Na	0.4672	0.2091	0.7438	0.691
Mof_O 	O 	0.483	0.2696	0.697	-0.419
Mof_O 	O 	0.4771	0.2425	0.6728	-0.338
Mof_O 	O 	0.4457	0.1673	0.7648	-0.673
Mof_O 	O 	0.458	0.1423	0.803	-0.133
Mof_Pr	Pr	0.90996	0.84651	0.87959	2.307
Mof_Pr	Pr	0.21138	0.84779	0.88927	2.179
Mof_W 	W 	0.24995	0.04267	0.81156	0.995
Mof_W 	W 	0.05669	0.05152	0.881	1.432
Mof_W 	W 	0.64112	0.74025	0.88117	1.375
Mof_W 	W 	0.52108	0.74398	0.61851	1.056
Mof_W 	W 	0.79328	0.66261	0.81305	0.956
Mof_W 	W 	0.69029	0.62243	0.88032	1.004
Mof_W 	W 	0.57191	0.62683	0.61838	1.011
Mof_W 	W 	0.95387	0.96083	0.81355	1.438
Mof_W 	W 	0.67831	0.53477	0.68381	1.366
Mof_W 	W 	0.73803	0.65088	0.68476	0.963
Mof_W 	W 	0.73916	0.78155	0.81319	1.343
Mof_W 	W 	0.68973	0.77191	0.68509	1.335
Mof_W 	W 	0.56259	0.84956	0.68612	1.007
Mof_W 	W 	0.11875	0.96713	0.81417	1.414
Mof_W 	W 	0.60291	0.84962	0.8144	1.025
Mof_P 	P 	0.5889	0.75042	0.7496	0.598
Mof_P 	P 	0.64353	0.622	0.74949	0.588
Mof_Na	Na	0.4765	0.6565	0.6975	2.774
Mof_K 	K 	0.3389	0.49499	0.46916	2.427
Mof_K 	K 	0.7992	0.78699	0.96	2.454
Mof_C 	C 	0.2846	0.8046	0.0096	0.339
Mof_C 	C 	0.2166	0.8036	0.0058	-0.115
Mof_C 	C 	0.1998	0.7877	0.0457	0.038
Mof_H 	H 	0.2303	0.7772	0.0773	-0.023
Mof_C 	C 	0.1358	0.7877	0.0372	-0.155
Mof_H 	H 	0.1219	0.7783	0.0639	0.052
Mof_C 	C 	0.0922	0.8015	0.9897	0.04
Mof_H 	H 	0.0484	0.8005	0.9827	-0.061
Mof_C 	C 	0.1147	0.8166	0.9535	-0.171
Mof_C 	C 	0.0726	0.833	0.9004	0.478
Mof_C 	C 	0.7998	0.885	0.7658	-0.125
Mof_C 	C 	0.7481	0.9065	0.732	0.107
Mof_H 	H 	0.7391	0.9052	0.6958	-0.082
Mof_C 	C 	0.7094	0.93	0.7506	-0.143
Mof_H 	H 	0.6731	0.9446	0.7274	0.04
Mof_C 	C 	0.7242	0.9319	0.8032	0.084
Mof_H 	H 	0.6976	0.9474	0.8169	-0.036
Mof_C 	C 	0.778	0.9111	0.8364	-0.123
Mof_C 	C 	0.7989	0.911	0.8947	0.385
Mof_C 	C 	0.8407	0.8555	0.7504	0.472
Mof_N 	N 	0.1756	0.8178	0.9601	-0.22
Mof_N 	N 	0.8156	0.8883	0.8174	-0.208
Mof_O 	O 	0.6363	0.8259	0.689	-0.48
Mof_O 	O 	0.593	0.8804	0.7508	-0.459
Mof_O 	O 	0.5231	0.8581	0.809	-0.47
Mof_O 	O 	0.6821	0.7522	0.9455	-0.999
Mof_O 	O 	0.6167	0.8009	0.8589	-0.546
Mof_O 	O 	0.5613	0.7327	0.8851	-0.543
Mof_O 	O 	0.6879	0.8269	0.8107	-0.527
Mof_O 	O 	0.7103	0.75	0.8586	-0.704
Mof_O 	O 	0.5892	0.7269	0.7981	-0.392
Mof_O 	O 	0.5691	0.8002	0.7494	-0.363
Mof_O 	O 	0.6571	0.7506	0.7494	-0.41
Mof_O 	O 	0.6539	0.6793	0.8836	-0.568
Mof_O 	O 	0.6107	0.7514	0.6402	-0.491
Mof_O 	O 	0.7269	0.718	0.6899	-0.635
Mof_O 	O 	0.807	0.6585	0.7488	-0.628
Mof_O 	O 	0.6526	0.6535	0.6402	-0.485
Mof_O 	O 	0.7327	0.5914	0.6877	-0.493
Mof_O 	O 	0.5182	0.8033	0.6395	-0.491
Mof_O 	O 	0.5451	0.7283	0.7008	-0.554
Mof_O 	O 	0.5333	0.6817	0.615	-0.605
Mof_O 	O 	0.7053	0.5111	0.6398	-0.707
Mof_O 	O 	0.6148	0.5713	0.6405	-0.582
Mof_O 	O 	0.8738	0.9927	0.8094	-0.529
Mof_O 	O 	0.0026	0.0969	0.8837	-0.542
Mof_O 	O 	0.0953	0.9338	0.7508	-0.509
Mof_O 	O 	0.9461	0.9194	0.8539	-0.676
Mof_O 	O 	0.9912	0.008	0.8606	-0.581
Mof_O 	O 	0.0856	0.0381	0.9457	-0.829
Mof_O 	O 	0.0301	0.9469	0.8122	-0.525
Mof_O 	O 	0.1068	0.0086	0.8598	-0.586
Mof_O 	O 	0.1192	0.0952	0.8849	-0.54
Mof_O 	O 	0.9789	0.0687	0.7011	-0.592
Mof_O 	O 	0.0547	0.0096	0.7498	-0.437
Mof_O 	O 	0.6296	0.6304	0.7986	-0.359
Mof_O 	O 	0.1588	0.9251	0.8562	-0.659
Mof_O 	O 	0.1828	0.9958	0.8067	-0.516
Mof_O 	O 	0.2159	0.0694	0.858	-0.508
Mof_O 	O 	0.7511	0.6529	0.8582	-0.524
Mof_O 	O 	0.2473	0.0203	0.7469	-0.473
Mof_O 	O 	0.7902	0.5943	0.8092	-0.466
Mof_O 	O 	0.779	0.722	0.8075	-0.622
Mof_O 	O 	0.6989	0.6518	0.7493	-0.353
Mof_O 	O 	0.5852	0.6314	0.7009	-0.571
Mof_O 	O 	0.8103	0.8024	0.8565	-0.863
Mof_O 	O 	0.7184	0.7988	0.6436	-0.655
Mof_O 	O 	0.0151	0.83	0.8886	-0.646
Mof_O 	O 	0.7683	0.9314	0.9161	-0.652
Mof_O 	O 	0.8475	0.8884	0.918	-0.738
Mof_O 	O 	0.8873	0.8367	0.7858	-0.719
Mof_O 	O 	0.8308	0.8488	0.7033	-0.663
Mof_O 	O 	0.2928	0.8178	0.9698	-0.546
Mof_O 	O 	0.3264	0.7916	0.0509	-0.319
Mof_O 	O 	0.098	0.849	0.8709	-0.552
Mof_O 	O 	0.7493	0.7934	0.7488	-0.662
Mof_O 	O 	0.6642	0.5734	0.7488	-0.383
Mof_O 	O 	0.168	0.768	0.8697	-0.573
Mof_O 	O 	0.9256	0.8028	0.961	-0.71
Mof_K 	K 	0.866	0.7463	0.7364	2.676
Mof_Na	Na	0.9672	0.7091	0.7438	0.655
Mof_O 	O 	0.983	0.7696	0.697	-0.416
Mof_O 	O 	0.9771	0.7425	0.6728	-0.334
Mof_O 	O 	0.9457	0.6673	0.7648	-0.663
Mof_O 	O 	0.958	0.6423	0.803	-0.132
Mof_Pr	Pr	0.59004	0.34651	0.62041	2.294
Mof_Pr	Pr	0.28862	0.34779	0.61073	2.175
Mof_W 	W 	0.25005	0.54267	0.68844	0.996
Mof_W 	W 	0.44331	0.55152	0.619	1.402
Mof_W 	W 	0.85888	0.24025	0.61883	1.335
Mof_W 	W 	0.97892	0.24398	0.88149	1.093
Mof_W 	W 	0.70672	0.16261	0.68695	0.958
Mof_W 	W 	0.80971	0.12243	0.61968	0.972
Mof_W 	W 	0.92809	0.12683	0.88162	1.053
Mof_W 	W 	0.54613	0.46083	0.68645	1.433
Mof_W 	W 	0.82169	0.03477	0.81618	1.362
Mof_W 	W 	0.76197	0.15088	0.81524	0.96
Mof_W 	W 	0.76084	0.28155	0.68681	1.345
Mof_W 	W 	0.81027	0.27191	0.81491	1.332
Mof_W 	W 	0.93741	0.34956	0.81388	1.011
Mof_W 	W 	0.38125	0.46713	0.68583	1.419
Mof_W 	W 	0.89709	0.34962	0.68559	1.028
Mof_P 	P 	0.9111	0.25042	0.7504	0.601
Mof_P 	P 	0.85647	0.122	0.75051	0.587
Mof_K 	K 	0.1611	0.99499	0.03084	2.403
Mof_K 	K 	0.7008	0.28699	0.54	2.481
Mof_C 	C 	0.2154	0.3046	0.4904	0.339
Mof_C 	C 	0.2834	0.3036	0.4942	-0.113
Mof_C 	C 	0.3002	0.2877	0.4543	0.034
Mof_H 	H 	0.2697	0.2772	0.4227	-0.022
Mof_C 	C 	0.3642	0.2877	0.4628	-0.148
Mof_H 	H 	0.3781	0.2783	0.4361	0.051
Mof_C 	C 	0.4078	0.3015	0.5103	0.033
Mof_H 	H 	0.4516	0.3005	0.5173	-0.058
Mof_C 	C 	0.3853	0.3166	0.5465	-0.168
Mof_C 	C 	0.4274	0.333	0.5996	0.475
Mof_C 	C 	0.7002	0.385	0.7342	-0.125
Mof_C 	C 	0.7519	0.4065	0.768	0.108
Mof_H 	H 	0.7609	0.4052	0.8042	-0.081
Mof_C 	C 	0.7906	0.43	0.7494	-0.144
Mof_H 	H 	0.8269	0.4446	0.7726	0.041
Mof_C 	C 	0.7758	0.4319	0.6968	0.084
Mof_H 	H 	0.8024	0.4474	0.6831	-0.036
Mof_C 	C 	0.722	0.4111	0.6636	-0.124
Mof_C 	C 	0.7011	0.411	0.6053	0.385
Mof_C 	C 	0.6593	0.3555	0.7496	0.472
Mof_N 	N 	0.3244	0.3178	0.5399	-0.222
Mof_N 	N 	0.6844	0.3883	0.6826	-0.207
Mof_O 	O 	0.8637	0.3259	0.811	-0.48
Mof_O 	O 	0.907	0.3804	0.7492	-0.459
Mof_O 	O 	0.9769	0.3581	0.691	-0.466
Mof_O 	O 	0.8179	0.2522	0.5545	-1.002
Mof_O 	O 	0.8833	0.3009	0.6411	-0.542
Mof_O 	O 	0.9387	0.2327	0.6149	-0.648
Mof_O 	O 	0.8121	0.3269	0.6893	-0.528
Mof_O 	O 	0.7897	0.25	0.6414	-0.702
Mof_O 	O 	0.9108	0.2269	0.7019	-0.584
Mof_O 	O 	0.9309	0.3002	0.7506	-0.362
Mof_O 	O 	0.8429	0.2506	0.7506	-0.41
Mof_O 	O 	0.8461	0.1793	0.6164	-0.686
Mof_O 	O 	0.8893	0.2514	0.8598	-0.496
Mof_O 	O 	0.7731	0.218	0.8101	-0.632
Mof_O 	O 	0.693	0.1585	0.7512	-0.627
Mof_O 	O 	0.8474	0.1535	0.8598	-0.491
Mof_O 	O 	0.7673	0.0914	0.8123	-0.493
Mof_O 	O 	0.9818	0.3033	0.8605	-0.493
Mof_O 	O 	0.9549	0.2283	0.7992	-0.368
Mof_O 	O 	0.9667	0.1817	0.885	-0.493
Mof_O 	O 	0.7947	0.0111	0.8602	-0.704
Mof_O 	O 	0.8852	0.0713	0.8595	-0.586
Mof_O 	O 	0.6262	0.4927	0.6906	-0.531
Mof_O 	O 	0.4974	0.5969	0.6163	-0.658
Mof_O 	O 	0.4047	0.4338	0.7492	-0.509
Mof_O 	O 	0.5539	0.4194	0.6461	-0.678
Mof_O 	O 	0.5088	0.508	0.6394	-0.581
Mof_O 	O 	0.4144	0.5381	0.5543	-0.831
Mof_O 	O 	0.4699	0.4469	0.6878	-0.519
Mof_O 	O 	0.3932	0.5086	0.6402	-0.584
Mof_O 	O 	0.3808	0.5952	0.6151	-0.652
Mof_O 	O 	0.5211	0.5687	0.7989	-0.411
Mof_O 	O 	0.4453	0.5096	0.7502	-0.438
Mof_O 	O 	0.8704	0.1304	0.7014	-0.563
Mof_O 	O 	0.3412	0.4251	0.6438	-0.66
Mof_O 	O 	0.3172	0.4958	0.6933	-0.518
Mof_O 	O 	0.2841	0.5694	0.642	-0.504
Mof_O 	O 	0.7489	0.1529	0.6418	-0.521
Mof_O 	O 	0.2527	0.5203	0.7531	-0.473
Mof_O 	O 	0.7098	0.0943	0.6908	-0.466
Mof_O 	O 	0.721	0.222	0.6925	-0.623
Mof_O 	O 	0.8011	0.1518	0.7507	-0.353
Mof_O 	O 	0.9148	0.1314	0.7991	-0.36
Mof_O 	O 	0.6897	0.3024	0.6435	-0.866
Mof_O 	O 	0.7816	0.2988	0.8564	-0.654
Mof_O 	O 	0.4849	0.33	0.6114	-0.639
Mof_O 	O 	0.7317	0.4314	0.5839	-0.656
Mof_O 	O 	0.6525	0.3884	0.582	-0.742
Mof_O 	O 	0.6127	0.3367	0.7142	-0.718
Mof_O 	O 	0.6692	0.3488	0.7967	-0.663
Mof_O 	O 	0.2072	0.3178	0.5302	-0.548
Mof_O 	O 	0.1736	0.2916	0.4491	-0.321
Mof_O 	O 	0.402	0.349	0.6291	-0.55
Mof_O 	O 	0.7507	0.2934	0.7512	-0.66
Mof_O 	O 	0.8358	0.0734	0.7512	-0.382
Mof_O 	O 	0.332	0.268	0.6303	-0.574
Mof_O 	O 	0.5744	0.3028	0.539	-0.722
Mof_K 	K 	0.634	0.2463	0.7636	2.649
Mof_Na	Na	0.5328	0.2091	0.7562	0.691
Mof_O 	O 	0.517	0.2696	0.803	-0.419
Mof_O 	O 	0.5229	0.2425	0.8272	-0.337
Mof_O 	O 	0.5543	0.1673	0.7352	-0.673
Mof_O 	O 	0.542	0.1423	0.697	-0.133
Mof_Pr	Pr	0.09004	0.84651	0.62041	2.279
Mof_Pr	Pr	0.78862	0.84779	0.61073	2.176
Mof_W 	W 	0.75005	0.04267	0.68844	0.997
Mof_W 	W 	0.94331	0.05152	0.619	1.407
Mof_W 	W 	0.35888	0.74025	0.61883	1.336
Mof_W 	W 	0.47892	0.74398	0.88149	1.087
Mof_W 	W 	0.20672	0.66261	0.68695	0.957
Mof_W 	W 	0.30971	0.62243	0.61968	0.971
Mof_W 	W 	0.42809	0.62683	0.88162	1.048
Mof_W 	W 	0.04613	0.96083	0.68645	1.423
Mof_W 	W 	0.32169	0.53477	0.81618	1.362
Mof_W 	W 	0.26197	0.65088	0.81524	0.96
Mof_W 	W 	0.26084	0.78155	0.68681	1.345
Mof_W 	W 	0.31027	0.77191	0.81491	1.332
Mof_W 	W 	0.43741	0.84956	0.81388	1.005
Mof_W 	W 	0.88125	0.96713	0.68583	1.42
Mof_W 	W 	0.39709	0.84962	0.68559	1.027
Mof_P 	P 	0.4111	0.75042	0.7504	0.601
Mof_P 	P 	0.35647	0.622	0.75051	0.586
Mof_K 	K 	0.6611	0.49499	0.03084	2.424
Mof_K 	K 	0.2008	0.78699	0.54	2.476
Mof_C 	C 	0.7154	0.8046	0.4904	0.339
Mof_C 	C 	0.7834	0.8036	0.4942	-0.112
Mof_C 	C 	0.8002	0.7877	0.4543	0.034
Mof_H 	H 	0.7697	0.7772	0.4227	-0.022
Mof_C 	C 	0.8642	0.7877	0.4628	-0.146
Mof_H 	H 	0.8781	0.7783	0.4361	0.051
Mof_C 	C 	0.9078	0.8015	0.5103	0.032
Mof_H 	H 	0.9516	0.8005	0.5173	-0.055
Mof_C 	C 	0.8853	0.8166	0.5465	-0.166
Mof_C 	C 	0.9274	0.833	0.5996	0.473
Mof_C 	C 	0.2002	0.885	0.7342	-0.125
Mof_C 	C 	0.2519	0.9065	0.768	0.108
Mof_H 	H 	0.2609	0.9052	0.8042	-0.081
Mof_C 	C 	0.2906	0.93	0.7494	-0.143
Mof_H 	H 	0.3269	0.9446	0.7726	0.041
Mof_C 	C 	0.2758	0.9319	0.6968	0.084
Mof_H 	H 	0.3024	0.9474	0.6831	-0.036
Mof_C 	C 	0.222	0.9111	0.6636	-0.123
Mof_C 	C 	0.2011	0.911	0.6053	0.385
Mof_C 	C 	0.1593	0.8555	0.7496	0.472
Mof_N 	N 	0.8244	0.8178	0.5399	-0.222
Mof_N 	N 	0.1844	0.8883	0.6826	-0.206
Mof_O 	O 	0.3637	0.8259	0.811	-0.48
Mof_O 	O 	0.407	0.8804	0.7492	-0.459
Mof_O 	O 	0.4769	0.8581	0.691	-0.472
Mof_O 	O 	0.3179	0.7522	0.5545	-1.002
Mof_O 	O 	0.3833	0.8009	0.6411	-0.543
Mof_O 	O 	0.4387	0.7327	0.6149	-0.653
Mof_O 	O 	0.3121	0.8269	0.6893	-0.528
Mof_O 	O 	0.2897	0.75	0.6414	-0.701
Mof_O 	O 	0.4108	0.7269	0.7019	-0.583
Mof_O 	O 	0.4309	0.8002	0.7506	-0.364
Mof_O 	O 	0.3429	0.7506	0.7506	-0.41
Mof_O 	O 	0.3461	0.6793	0.6164	-0.685
Mof_O 	O 	0.3893	0.7514	0.8598	-0.495
Mof_O 	O 	0.2731	0.718	0.8101	-0.63
Mof_O 	O 	0.193	0.6585	0.7512	-0.625
Mof_O 	O 	0.3474	0.6535	0.8598	-0.49
Mof_O 	O 	0.2673	0.5914	0.8123	-0.493
Mof_O 	O 	0.4818	0.8033	0.8605	-0.494
Mof_O 	O 	0.4549	0.7283	0.7992	-0.369
Mof_O 	O 	0.4667	0.6817	0.885	-0.494
Mof_O 	O 	0.2947	0.5111	0.8602	-0.704
Mof_O 	O 	0.3852	0.5713	0.8595	-0.586
Mof_O 	O 	0.1262	0.9927	0.6906	-0.53
Mof_O 	O 	0.9974	0.0969	0.6163	-0.653
Mof_O 	O 	0.9047	0.9338	0.7492	-0.509
Mof_O 	O 	0.0539	0.9194	0.6461	-0.679
Mof_O 	O 	0.0088	0.008	0.6394	-0.586
Mof_O 	O 	0.9144	0.0381	0.5543	-0.831
Mof_O 	O 	0.9699	0.9469	0.6878	-0.512
Mof_O 	O 	0.8932	0.0086	0.6402	-0.584
Mof_O 	O 	0.8808	0.0952	0.6151	-0.653
Mof_O 	O 	0.0211	0.0687	0.7989	-0.413
Mof_O 	O 	0.9453	0.0096	0.7502	-0.434
Mof_O 	O 	0.3704	0.6304	0.7014	-0.562
Mof_O 	O 	0.8412	0.9251	0.6438	-0.66
Mof_O 	O 	0.8172	0.9958	0.6933	-0.518
Mof_O 	O 	0.7841	0.0694	0.642	-0.504
Mof_O 	O 	0.2489	0.6529	0.6418	-0.521
Mof_O 	O 	0.7527	0.0203	0.7531	-0.473
Mof_O 	O 	0.2098	0.5943	0.6908	-0.467
Mof_O 	O 	0.221	0.722	0.6925	-0.622
Mof_O 	O 	0.3011	0.6518	0.7507	-0.353
Mof_O 	O 	0.4148	0.6314	0.7991	-0.361
Mof_O 	O 	0.1897	0.8024	0.6435	-0.864
Mof_O 	O 	0.2816	0.7988	0.8564	-0.654
Mof_O 	O 	0.9849	0.83	0.6114	-0.632
Mof_O 	O 	0.2317	0.9314	0.5839	-0.655
Mof_O 	O 	0.1525	0.8884	0.582	-0.741
Mof_O 	O 	0.1127	0.8367	0.7142	-0.717
Mof_O 	O 	0.1692	0.8488	0.7967	-0.662
Mof_O 	O 	0.7072	0.8178	0.5302	-0.548
Mof_O 	O 	0.6736	0.7916	0.4491	-0.32
Mof_O 	O 	0.902	0.849	0.6291	-0.549
Mof_O 	O 	0.2507	0.7934	0.7512	-0.659
Mof_O 	O 	0.3358	0.5734	0.7512	-0.382
Mof_O 	O 	0.832	0.768	0.6303	-0.576
Mof_O 	O 	0.0744	0.8028	0.539	-0.724
Mof_K 	K 	0.134	0.7463	0.7636	2.623
Mof_Na	Na	0.0328	0.7091	0.7562	0.724
Mof_O 	O 	0.017	0.7696	0.803	-0.423
Mof_O 	O 	0.0229	0.7425	0.8272	-0.341
Mof_O 	O 	0.0543	0.6673	0.7352	-0.681
Mof_O 	O 	0.042	0.6423	0.697	-0.136
Mof_Pr	Pr	0.59004	0.65349	0.12041	2.296
Mof_Pr	Pr	0.28862	0.65221	0.11073	2.175
Mof_W 	W 	0.25005	0.45733	0.18844	0.993
Mof_W 	W 	0.44331	0.44848	0.119	1.437
Mof_W 	W 	0.85888	0.75975	0.11883	1.374
Mof_W 	W 	0.97892	0.75602	0.38149	1.067
Mof_W 	W 	0.70672	0.83739	0.18695	0.956
Mof_W 	W 	0.80971	0.87757	0.11968	1.005
Mof_W 	W 	0.92809	0.87317	0.38162	1.021
Mof_W 	W 	0.54613	0.53917	0.18645	1.43
Mof_W 	W 	0.82169	0.96523	0.31618	1.367
Mof_W 	W 	0.76197	0.84911	0.31524	0.963
Mof_W 	W 	0.76084	0.71845	0.18681	1.343
Mof_W 	W 	0.81027	0.72809	0.31491	1.336
Mof_W 	W 	0.93741	0.65044	0.31388	1.016
Mof_W 	W 	0.38125	0.53287	0.18583	1.415
Mof_W 	W 	0.89709	0.65038	0.1856	1.026
Mof_P 	P 	0.9111	0.74958	0.2504	0.598
Mof_P 	P 	0.85647	0.878	0.25051	0.588
Mof_Na	Na	0.0235	0.8435	0.3025	2.741
Mof_K 	K 	0.1611	0.00501	0.53084	2.424
Mof_K 	K 	0.7008	0.71301	0.04	2.463
Mof_C 	C 	0.2154	0.6954	0.9904	0.341
Mof_C 	C 	0.2834	0.6964	0.9942	-0.111
Mof_C 	C 	0.3002	0.7123	0.9543	0.034
Mof_H 	H 	0.2697	0.7228	0.9227	-0.021
Mof_C 	C 	0.3642	0.7123	0.9628	-0.146
Mof_H 	H 	0.3781	0.7217	0.9361	0.05
Mof_C 	C 	0.4078	0.6985	0.0103	0.032
Mof_H 	H 	0.4516	0.6995	0.0173	-0.057
Mof_C 	C 	0.3853	0.6834	0.0465	-0.167
Mof_C 	C 	0.4274	0.667	0.0996	0.475
Mof_C 	C 	0.7002	0.615	0.2342	-0.125
Mof_C 	C 	0.7519	0.5935	0.268	0.107
Mof_H 	H 	0.7609	0.5948	0.3042	-0.081
Mof_C 	C 	0.7906	0.57	0.2494	-0.143
Mof_H 	H 	0.8269	0.5554	0.2726	0.041
Mof_C 	C 	0.7758	0.5681	0.1968	0.084
Mof_H 	H 	0.8024	0.5526	0.1831	-0.035
Mof_C 	C 	0.722	0.5889	0.1636	-0.123
Mof_C 	C 	0.7011	0.589	0.1053	0.384
Mof_C 	C 	0.6593	0.6445	0.2496	0.472
Mof_N 	N 	0.3244	0.6822	0.0399	-0.222
Mof_N 	N 	0.6844	0.6117	0.1826	-0.207
Mof_O 	O 	0.8637	0.6741	0.311	-0.481
Mof_O 	O 	0.907	0.6196	0.2492	-0.459
Mof_O 	O 	0.9769	0.6419	0.191	-0.461
Mof_O 	O 	0.8179	0.7478	0.0545	-0.997
Mof_O 	O 	0.8833	0.6991	0.1411	-0.544
Mof_O 	O 	0.9387	0.7673	0.1149	-0.533
Mof_O 	O 	0.8121	0.6731	0.1893	-0.527
Mof_O 	O 	0.7897	0.75	0.1414	-0.704
Mof_O 	O 	0.9108	0.7731	0.2019	-0.389
Mof_O 	O 	0.9309	0.6998	0.2506	-0.361
Mof_O 	O 	0.8429	0.7494	0.2506	-0.41
Mof_O 	O 	0.8461	0.8207	0.1164	-0.566
Mof_O 	O 	0.8893	0.7486	0.3598	-0.493
Mof_O 	O 	0.7731	0.782	0.3101	-0.634
Mof_O 	O 	0.693	0.8415	0.2512	-0.627
Mof_O 	O 	0.8474	0.8465	0.3598	-0.487
Mof_O 	O 	0.7673	0.9086	0.3123	-0.494
Mof_O 	O 	0.9818	0.6967	0.3605	-0.489
Mof_O 	O 	0.9549	0.7717	0.2992	-0.548
Mof_O 	O 	0.9667	0.8183	0.385	-0.602
Mof_O 	O 	0.7947	0.9889	0.3602	-0.707
Mof_O 	O 	0.8852	0.9287	0.3595	-0.582
Mof_O 	O 	0.6262	0.5073	0.1906	-0.529
Mof_O 	O 	0.4974	0.4031	0.1163	-0.536
Mof_O 	O 	0.4047	0.5662	0.2492	-0.509
Mof_O 	O 	0.5539	0.5806	0.1461	-0.677
Mof_O 	O 	0.5088	0.492	0.1394	-0.585
Mof_O 	O 	0.4144	0.4619	0.0543	-0.831
Mof_O 	O 	0.4699	0.5531	0.1878	-0.518
Mof_O 	O 	0.3932	0.4914	0.1402	-0.586
Mof_O 	O 	0.3808	0.4048	0.1151	-0.54
Mof_O 	O 	0.5211	0.4313	0.2989	-0.597
Mof_O 	O 	0.4453	0.4904	0.2502	-0.438
Mof_O 	O 	0.8704	0.8696	0.2014	-0.357
Mof_O 	O 	0.3412	0.5749	0.1438	-0.659
Mof_O 	O 	0.3172	0.5042	0.1933	-0.516
Mof_O 	O 	0.2841	0.4306	0.142	-0.508
Mof_O 	O 	0.7489	0.8471	0.1418	-0.524
Mof_O 	O 	0.2527	0.4797	0.2531	-0.474
Mof_O 	O 	0.7098	0.9057	0.1908	-0.466
Mof_O 	O 	0.721	0.778	0.1925	-0.621
Mof_O 	O 	0.8011	0.8482	0.2507	-0.353
Mof_O 	O 	0.9148	0.8686	0.2991	-0.565
Mof_O 	O 	0.6897	0.6976	0.1435	-0.863
Mof_O 	O 	0.7816	0.7012	0.3564	-0.655
Mof_O 	O 	0.4849	0.67	0.1114	-0.639
Mof_O 	O 	0.7317	0.5686	0.0839	-0.651
Mof_O 	O 	0.6525	0.6116	0.082	-0.737
Mof_O 	O 	0.6127	0.6633	0.2142	-0.718
Mof_O 	O 	0.6692	0.6512	0.2967	-0.663
Mof_O 	O 	0.2072	0.6822	0.0302	-0.55
Mof_O 	O 	0.1736	0.7084	0.9491	-0.32
Mof_O 	O 	0.402	0.651	0.1291	-0.55
Mof_O 	O 	0.7507	0.7066	0.2512	-0.66
Mof_O 	O 	0.8358	0.9266	0.2512	-0.382
Mof_O 	O 	0.332	0.732	0.1303	-0.574
Mof_O 	O 	0.5744	0.6972	0.039	-0.712
Mof_K 	K 	0.634	0.7537	0.2636	2.649
Mof_Na	Na	0.5328	0.7909	0.2562	0.691
Mof_O 	O 	0.517	0.7304	0.303	-0.419
Mof_O 	O 	0.5229	0.7575	0.3272	-0.338
Mof_O 	O 	0.5543	0.8327	0.2352	-0.673
Mof_O 	O 	0.542	0.8577	0.197	-0.133
Mof_Pr	Pr	0.09004	0.15349	0.12041	2.279
Mof_Pr	Pr	0.78862	0.15221	0.11073	2.178
Mof_W 	W 	0.75005	0.95733	0.18844	0.995
Mof_W 	W 	0.94331	0.94848	0.119	1.445
Mof_W 	W 	0.35888	0.25975	0.11883	1.375
Mof_W 	W 	0.47892	0.25602	0.38149	1.056
Mof_W 	W 	0.20672	0.33739	0.18695	0.954
Mof_W 	W 	0.30971	0.37757	0.11968	1.003
Mof_W 	W 	0.42809	0.37317	0.38162	1.011
Mof_W 	W 	0.04613	0.03917	0.18645	1.42
Mof_W 	W 	0.32169	0.46523	0.31618	1.366
Mof_W 	W 	0.26197	0.34911	0.31524	0.963
Mof_W 	W 	0.26084	0.21845	0.18681	1.342
Mof_W 	W 	0.31027	0.22809	0.31491	1.336
Mof_W 	W 	0.43741	0.15044	0.31388	1.007
Mof_W 	W 	0.88125	0.03287	0.18583	1.415
Mof_W 	W 	0.39709	0.15038	0.1856	1.025
Mof_P 	P 	0.4111	0.24958	0.2504	0.598
Mof_P 	P 	0.35647	0.378	0.25051	0.588
Mof_Na	Na	0.5235	0.3435	0.3025	2.775
Mof_K 	K 	0.6611	0.50501	0.53084	2.432
Mof_K 	K 	0.2008	0.21301	0.04	2.45
Mof_C 	C 	0.7154	0.1954	0.9904	0.337
Mof_C 	C 	0.7834	0.1964	0.9942	-0.116
Mof_C 	C 	0.8002	0.2123	0.9543	0.038
Mof_H 	H 	0.7697	0.2228	0.9227	-0.023
Mof_C 	C 	0.8642	0.2123	0.9628	-0.154
Mof_H 	H 	0.8781	0.2217	0.9361	0.052
Mof_C 	C 	0.9078	0.1985	0.0103	0.04
Mof_H 	H 	0.9516	0.1995	0.0173	-0.055
Mof_C 	C 	0.8853	0.1834	0.0465	-0.167
Mof_C 	C 	0.9274	0.167	0.0996	0.474
Mof_C 	C 	0.2002	0.115	0.2342	-0.125
Mof_C 	C 	0.2519	0.0935	0.268	0.107
Mof_H 	H 	0.2609	0.0948	0.3042	-0.082
Mof_C 	C 	0.2906	0.07	0.2494	-0.143
Mof_H 	H 	0.3269	0.0554	0.2726	0.04
Mof_C 	C 	0.2758	0.0681	0.1968	0.084
Mof_H 	H 	0.3024	0.0526	0.1831	-0.035
Mof_C 	C 	0.222	0.0889	0.1636	-0.122
Mof_C 	C 	0.2011	0.089	0.1053	0.384
Mof_C 	C 	0.1593	0.1445	0.2496	0.473
Mof_N 	N 	0.8244	0.1822	0.0399	-0.22
Mof_N 	N 	0.1844	0.1117	0.1826	-0.206
Mof_O 	O 	0.3637	0.1741	0.311	-0.48
Mof_O 	O 	0.407	0.1196	0.2492	-0.459
Mof_O 	O 	0.4769	0.1419	0.191	-0.47
Mof_O 	O 	0.3179	0.2478	0.0545	-0.998
Mof_O 	O 	0.3833	0.1991	0.1411	-0.546
Mof_O 	O 	0.4387	0.2673	0.1149	-0.543
Mof_O 	O 	0.3121	0.1731	0.1893	-0.527
Mof_O 	O 	0.2897	0.25	0.1414	-0.703
Mof_O 	O 	0.4108	0.2731	0.2019	-0.392
Mof_O 	O 	0.4309	0.1998	0.2506	-0.363
Mof_O 	O 	0.3429	0.2494	0.2506	-0.41
Mof_O 	O 	0.3461	0.3207	0.1164	-0.567
Mof_O 	O 	0.3893	0.2486	0.3598	-0.492
Mof_O 	O 	0.2731	0.282	0.3101	-0.632
Mof_O 	O 	0.193	0.3415	0.2512	-0.625
Mof_O 	O 	0.3474	0.3465	0.3598	-0.485
Mof_O 	O 	0.2673	0.4086	0.3123	-0.494
Mof_O 	O 	0.4818	0.1967	0.3605	-0.491
Mof_O 	O 	0.4549	0.2717	0.2992	-0.554
Mof_O 	O 	0.4667	0.3183	0.385	-0.605
Mof_O 	O 	0.2947	0.4889	0.3602	-0.707
Mof_O 	O 	0.3852	0.4287	0.3595	-0.582
Mof_O 	O 	0.1262	0.0073	0.1906	-0.527
Mof_O 	O 	0.9974	0.9031	0.1163	-0.527
Mof_O 	O 	0.9047	0.0662	0.2492	-0.509
Mof_O 	O 	0.0539	0.0806	0.1461	-0.677
Mof_O 	O 	0.0088	0.992	0.1394	-0.594
Mof_O 	O 	0.9144	0.9619	0.0543	-0.827
Mof_O 	O 	0.9699	0.0531	0.1878	-0.51
Mof_O 	O 	0.8932	0.9914	0.1402	-0.585
Mof_O 	O 	0.8808	0.9048	0.1151	-0.54
Mof_O 	O 	0.0211	0.9313	0.2989	-0.595
Mof_O 	O 	0.9453	0.9904	0.2502	-0.43
Mof_O 	O 	0.3704	0.3696	0.2014	-0.359
Mof_O 	O 	0.8412	0.0749	0.1438	-0.658
Mof_O 	O 	0.8172	0.0042	0.1933	-0.516
Mof_O 	O 	0.7841	0.9306	0.142	-0.508
Mof_O 	O 	0.2489	0.3471	0.1418	-0.524
Mof_O 	O 	0.7527	0.9797	0.2531	-0.473
Mof_O 	O 	0.2098	0.4057	0.1908	-0.467
Mof_O 	O 	0.221	0.278	0.1925	-0.62
Mof_O 	O 	0.3011	0.3482	0.2507	-0.353
Mof_O 	O 	0.4148	0.3686	0.2991	-0.571
Mof_O 	O 	0.1897	0.1976	0.1435	-0.86
Mof_O 	O 	0.2816	0.2012	0.3564	-0.654
Mof_O 	O 	0.9849	0.17	0.1114	-0.631
Mof_O 	O 	0.2317	0.0686	0.0839	-0.65
Mof_O 	O 	0.1525	0.1116	0.082	-0.735
Mof_O 	O 	0.1127	0.1633	0.2142	-0.717
Mof_O 	O 	0.1692	0.1512	0.2967	-0.662
Mof_O 	O 	0.7072	0.1822	0.0302	-0.545
Mof_O 	O 	0.6736	0.2084	0.9491	-0.319
Mof_O 	O 	0.902	0.151	0.1291	-0.548
Mof_O 	O 	0.2507	0.2066	0.2512	-0.658
Mof_O 	O 	0.3358	0.4266	0.2512	-0.382
Mof_O 	O 	0.832	0.232	0.1303	-0.576
Mof_O 	O 	0.0744	0.1972	0.039	-0.715
Mof_K 	K 	0.134	0.2537	0.2636	2.615
Mof_Na	Na	0.0328	0.2909	0.2562	0.736
Mof_O 	O 	0.017	0.2304	0.303	-0.424
Mof_O 	O 	0.0229	0.2575	0.3272	-0.342
Mof_O 	O 	0.0543	0.3327	0.2352	-0.684
Mof_O 	O 	0.042	0.3577	0.197	-0.136
Mof_Pr	Pr	0.40996	0.65349	0.37959	2.294
Mof_Pr	Pr	0.71138	0.65221	0.38927	2.177
Mof_W 	W 	0.74995	0.45733	0.31156	0.998
Mof_W 	W 	0.55669	0.44848	0.381	1.402
Mof_W 	W 	0.14112	0.75975	0.38117	1.336
Mof_W 	W 	0.02108	0.75602	0.11851	1.072
Mof_W 	W 	0.29328	0.83739	0.31305	0.958
Mof_W 	W 	0.19029	0.87757	0.38032	0.972
Mof_W 	W 	0.07191	0.87317	0.11838	1.036
Mof_W 	W 	0.45387	0.53917	0.31355	1.433
Mof_W 	W 	0.17831	0.96523	0.18381	1.36
Mof_W 	W 	0.23803	0.84911	0.18476	0.96
Mof_W 	W 	0.23916	0.71845	0.31319	1.345
Mof_W 	W 	0.18973	0.72809	0.18509	1.331
Mof_W 	W 	0.06259	0.65044	0.18612	0.994
Mof_W 	W 	0.61875	0.53287	0.31417	1.419
Mof_W 	W 	0.10291	0.65038	0.3144	1.025
Mof_P 	P 	0.0889	0.74958	0.2496	0.6
Mof_P 	P 	0.14353	0.878	0.24949	0.586
Mof_K 	K 	0.8389	0.00501	0.96916	2.414
Mof_K 	K 	0.2992	0.71301	0.46	2.48
Mof_C 	C 	0.7846	0.6954	0.5096	0.339
Mof_C 	C 	0.7166	0.6964	0.5058	-0.112
Mof_C 	C 	0.6998	0.7123	0.5457	0.035
Mof_H 	H 	0.7303	0.7228	0.5773	-0.022
Mof_C 	C 	0.6358	0.7123	0.5372	-0.148
Mof_H 	H 	0.6219	0.7217	0.5639	0.051
Mof_C 	C 	0.5922	0.6985	0.4897	0.033
Mof_H 	H 	0.5484	0.6995	0.4827	-0.058
Mof_C 	C 	0.6147	0.6834	0.4535	-0.168
Mof_C 	C 	0.5726	0.667	0.4004	0.475
Mof_C 	C 	0.2998	0.615	0.2658	-0.125
Mof_C 	C 	0.2481	0.5935	0.232	0.108
Mof_H 	H 	0.2391	0.5948	0.1958	-0.082
Mof_C 	C 	0.2094	0.57	0.2506	-0.144
Mof_H 	H 	0.1731	0.5554	0.2274	0.04
Mof_C 	C 	0.2242	0.5681	0.3032	0.084
Mof_H 	H 	0.1976	0.5526	0.3169	-0.037
Mof_C 	C 	0.278	0.5889	0.3364	-0.124
Mof_C 	C 	0.2989	0.589	0.3947	0.385
Mof_C 	C 	0.3407	0.6445	0.2504	0.472
Mof_N 	N 	0.6756	0.6822	0.4601	-0.222
Mof_N 	N 	0.3156	0.6117	0.3174	-0.207
Mof_O 	O 	0.1363	0.6741	0.189	-0.478
Mof_O 	O 	0.093	0.6196	0.2508	-0.461
Mof_O 	O 	0.0231	0.6419	0.309	-0.481
Mof_O 	O 	0.1821	0.7478	0.4455	-1.003
Mof_O 	O 	0.1167	0.6991	0.3589	-0.544
Mof_O 	O 	0.0613	0.7673	0.3851	-0.66
Mof_O 	O 	0.1879	0.6731	0.3107	-0.528
Mof_O 	O 	0.2103	0.75	0.3586	-0.702
Mof_O 	O 	0.0892	0.7731	0.2981	-0.582
Mof_O 	O 	0.0691	0.6998	0.2494	-0.365
Mof_O 	O 	0.1571	0.7494	0.2494	-0.409
Mof_O 	O 	0.1539	0.8207	0.3836	-0.684
Mof_O 	O 	0.1107	0.7486	0.1402	-0.493
Mof_O 	O 	0.2269	0.782	0.1899	-0.631
Mof_O 	O 	0.307	0.8415	0.2488	-0.626
Mof_O 	O 	0.1526	0.8465	0.1402	-0.488
Mof_O 	O 	0.2327	0.9086	0.1877	-0.493
Mof_O 	O 	0.0182	0.6967	0.1395	-0.497
Mof_O 	O 	0.0451	0.7717	0.2008	-0.371
Mof_O 	O 	0.0333	0.8183	0.115	-0.495
Mof_O 	O 	0.2053	0.9889	0.1398	-0.703
Mof_O 	O 	0.1148	0.9287	0.1405	-0.586
Mof_O 	O 	0.3738	0.5073	0.3094	-0.531
Mof_O 	O 	0.5026	0.4031	0.3837	-0.658
Mof_O 	O 	0.5953	0.5662	0.2508	-0.509
Mof_O 	O 	0.4461	0.5806	0.3539	-0.678
Mof_O 	O 	0.4912	0.492	0.3606	-0.581
Mof_O 	O 	0.5856	0.4619	0.4457	-0.831
Mof_O 	O 	0.5301	0.5531	0.3122	-0.519
Mof_O 	O 	0.6068	0.4914	0.3598	-0.584
Mof_O 	O 	0.6192	0.4048	0.3849	-0.652
Mof_O 	O 	0.4789	0.4313	0.2011	-0.411
Mof_O 	O 	0.5547	0.4904	0.2498	-0.439
Mof_O 	O 	0.1296	0.8696	0.2986	-0.559
Mof_O 	O 	0.6588	0.5749	0.3562	-0.66
Mof_O 	O 	0.6828	0.5042	0.3067	-0.518
Mof_O 	O 	0.7159	0.4306	0.358	-0.504
Mof_O 	O 	0.2511	0.8471	0.3582	-0.52
Mof_O 	O 	0.7473	0.4797	0.2469	-0.473
Mof_O 	O 	0.2902	0.9057	0.3092	-0.466
Mof_O 	O 	0.279	0.778	0.3075	-0.623
Mof_O 	O 	0.1989	0.8482	0.2493	-0.352
Mof_O 	O 	0.0852	0.8686	0.2009	-0.362
Mof_O 	O 	0.3103	0.6976	0.3565	-0.866
Mof_O 	O 	0.2184	0.7012	0.1436	-0.654
Mof_O 	O 	0.5151	0.67	0.3886	-0.639
Mof_O 	O 	0.2683	0.5686	0.4161	-0.657
Mof_O 	O 	0.3475	0.6116	0.418	-0.742
Mof_O 	O 	0.3873	0.6633	0.2858	-0.718
Mof_O 	O 	0.3308	0.6512	0.2033	-0.662
Mof_O 	O 	0.7928	0.6822	0.4698	-0.547
Mof_O 	O 	0.8264	0.7084	0.5509	-0.319
Mof_O 	O 	0.598	0.651	0.3709	-0.55
Mof_O 	O 	0.2493	0.7066	0.2488	-0.66
Mof_O 	O 	0.1642	0.9266	0.2488	-0.382
Mof_O 	O 	0.668	0.732	0.3697	-0.574
Mof_O 	O 	0.4256	0.6972	0.461	-0.721
Mof_K 	K 	0.366	0.7537	0.2364	2.649
Mof_Na	Na	0.4672	0.7909	0.2438	0.691
Mof_O 	O 	0.483	0.7304	0.197	-0.419
Mof_O 	O 	0.4771	0.7575	0.1728	-0.337
Mof_O 	O 	0.4457	0.8327	0.2648	-0.673
Mof_O 	O 	0.458	0.8577	0.303	-0.133
Mof_Pr	Pr	0.90996	0.15349	0.37959	2.308
Mof_Pr	Pr	0.21138	0.15221	0.38927	2.177
Mof_W 	W 	0.24995	0.95733	0.31156	0.997
Mof_W 	W 	0.05669	0.94848	0.381	1.394
Mof_W 	W 	0.64112	0.25975	0.38117	1.336
Mof_W 	W 	0.52108	0.25602	0.11851	1.087
Mof_W 	W 	0.79328	0.33739	0.31305	0.958
Mof_W 	W 	0.69029	0.37757	0.38032	0.972
Mof_W 	W 	0.57191	0.37317	0.11838	1.048
Mof_W 	W 	0.95387	0.03917	0.31355	1.442
Mof_W 	W 	0.67831	0.46523	0.18381	1.362
Mof_W 	W 	0.73803	0.34911	0.18476	0.96
Mof_W 	W 	0.73916	0.21845	0.31319	1.346
Mof_W 	W 	0.68973	0.22809	0.18509	1.331
Mof_W 	W 	0.56259	0.15044	0.18612	1.005
Mof_W 	W 	0.11875	0.03287	0.31417	1.419
Mof_W 	W 	0.60291	0.15038	0.3144	1.027
Mof_P 	P 	0.5889	0.24958	0.2496	0.601
Mof_P 	P 	0.64353	0.378	0.24949	0.586
Mof_K 	K 	0.3389	0.50501	0.96916	2.416
Mof_K 	K 	0.7992	0.21301	0.46	2.484
Mof_C 	C 	0.2846	0.1954	0.5096	0.339
Mof_C 	C 	0.2166	0.1964	0.5058	-0.113
Mof_C 	C 	0.1998	0.2123	0.5457	0.036
Mof_H 	H 	0.2303	0.2228	0.5773	-0.022
Mof_C 	C 	0.1358	0.2123	0.5372	-0.15
Mof_H 	H 	0.1219	0.2217	0.5639	0.051
Mof_C 	C 	0.0922	0.1985	0.4897	0.035
Mof_H 	H 	0.0484	0.1995	0.4827	-0.061
Mof_C 	C 	0.1147	0.1834	0.4535	-0.171
Mof_C 	C 	0.0726	0.167	0.4004	0.477
Mof_C 	C 	0.7998	0.115	0.2658	-0.125
Mof_C 	C 	0.7481	0.0935	0.232	0.108
Mof_H 	H 	0.7391	0.0948	0.1958	-0.082
Mof_C 	C 	0.7094	0.07	0.2506	-0.144
Mof_H 	H 	0.6731	0.0554	0.2274	0.041
Mof_C 	C 	0.7242	0.0681	0.3032	0.084
Mof_H 	H 	0.6976	0.0526	0.3169	-0.036
Mof_C 	C 	0.778	0.0889	0.3364	-0.124
Mof_C 	C 	0.7989	0.089	0.3947	0.385
Mof_C 	C 	0.8407	0.1445	0.2504	0.472
Mof_N 	N 	0.1756	0.1822	0.4601	-0.222
Mof_N 	N 	0.8156	0.1117	0.3174	-0.208
Mof_O 	O 	0.6363	0.1741	0.189	-0.48
Mof_O 	O 	0.593	0.1196	0.2508	-0.459
Mof_O 	O 	0.5231	0.1419	0.309	-0.472
Mof_O 	O 	0.6821	0.2478	0.4455	-1.003
Mof_O 	O 	0.6167	0.1991	0.3589	-0.543
Mof_O 	O 	0.5613	0.2673	0.3851	-0.653
Mof_O 	O 	0.6879	0.1731	0.3107	-0.528
Mof_O 	O 	0.7103	0.25	0.3586	-0.702
Mof_O 	O 	0.5892	0.2731	0.2981	-0.583
Mof_O 	O 	0.5691	0.1998	0.2494	-0.364
Mof_O 	O 	0.6571	0.2494	0.2494	-0.41
Mof_O 	O 	0.6539	0.3207	0.3836	-0.685
Mof_O 	O 	0.6107	0.2486	0.1402	-0.495
Mof_O 	O 	0.7269	0.282	0.1899	-0.633
Mof_O 	O 	0.807	0.3415	0.2488	-0.628
Mof_O 	O 	0.6526	0.3465	0.1402	-0.49
Mof_O 	O 	0.7327	0.4086	0.1877	-0.493
Mof_O 	O 	0.5182	0.1967	0.1395	-0.494
Mof_O 	O 	0.5451	0.2717	0.2008	-0.369
Mof_O 	O 	0.5333	0.3183	0.115	-0.494
Mof_O 	O 	0.7053	0.4889	0.1398	-0.704
Mof_O 	O 	0.6148	0.4287	0.1405	-0.586
Mof_O 	O 	0.8738	0.0073	0.3094	-0.532
Mof_O 	O 	0.0026	0.9031	0.3837	-0.665
Mof_O 	O 	0.0953	0.0662	0.2508	-0.509
Mof_O 	O 	0.9461	0.0806	0.3539	-0.678
Mof_O 	O 	0.9912	0.992	0.3606	-0.573
Mof_O 	O 	0.0856	0.9619	0.4457	-0.832
Mof_O 	O 	0.0301	0.0531	0.3122	-0.527
Mof_O 	O 	0.1068	0.9914	0.3598	-0.584
Mof_O 	O 	0.1192	0.9048	0.3849	-0.649
Mof_O 	O 	0.9789	0.9313	0.2011	-0.399
Mof_O 	O 	0.0547	0.9904	0.2498	-0.438
Mof_O 	O 	0.6296	0.3696	0.2986	-0.562
Mof_O 	O 	0.1588	0.0749	0.3562	-0.66
Mof_O 	O 	0.1828	0.0042	0.3067	-0.517
Mof_O 	O 	0.2159	0.9306	0.358	-0.504
Mof_O 	O 	0.7511	0.3471	0.3582	-0.52
Mof_O 	O 	0.2473	0.9797	0.2469	-0.473
Mof_O 	O 	0.7902	0.4057	0.3092	-0.466
Mof_O 	O 	0.779	0.278	0.3075	-0.624
Mof_O 	O 	0.6989	0.3482	0.2493	-0.353
Mof_O 	O 	0.5852	0.3686	0.2009	-0.361
Mof_O 	O 	0.8103	0.1976	0.3565	-0.867
Mof_O 	O 	0.7184	0.2012	0.1436	-0.655
Mof_O 	O 	0.0151	0.17	0.3886	-0.648
Mof_O 	O 	0.7683	0.0686	0.4161	-0.657
Mof_O 	O 	0.8475	0.1116	0.418	-0.744
Mof_O 	O 	0.8873	0.1633	0.2858	-0.719
Mof_O 	O 	0.8308	0.1512	0.2033	-0.663
Mof_O 	O 	0.2928	0.1822	0.4698	-0.548
Mof_O 	O 	0.3264	0.2084	0.5509	-0.32
Mof_O 	O 	0.098	0.151	0.3709	-0.552
Mof_O 	O 	0.7493	0.2066	0.2488	-0.662
Mof_O 	O 	0.6642	0.4266	0.2488	-0.382
Mof_O 	O 	0.168	0.232	0.3697	-0.572
Mof_O 	O 	0.9256	0.1972	0.461	-0.719
Mof_K 	K 	0.866	0.2537	0.2364	2.684
Mof_Na	Na	0.9672	0.2909	0.2438	0.644
Mof_O 	O 	0.983	0.2304	0.197	-0.415
Mof_O 	O 	0.9771	0.2575	0.1728	-0.332
Mof_O 	O 	0.9457	0.3327	0.2648	-0.661
Mof_O 	O 	0.958	0.3577	0.303	-0.132
Mof_P 	P 	0.5	0.54091	0.75	0.614
Mof_P 	P 	4.65726e-33	0.04091	0.75	0.602
Mof_P 	P 	0.5	0.45909	0.25	0.614
Mof_P 	P 	1.55242e-33	0.95909	0.25	0.595
_end
