data_functionalizedCrystal
_audit_creation_method	'EQeq! by Chris Wilmer'
_symmetry_space_group_name_H-M	'P1'
_symmetry_Int_Tables_number	1
_symmetry_cell_setting	triclinic
loop_
_symmetry_equiv_pos_as_xyz
  x,y,z
_cell_length_a	14.3263
_cell_length_b	25.7839
_cell_length_c	8.1185
_cell_angle_alpha	90
_cell_angle_beta	101.598
_cell_angle_gamma	90
loop_
_atom_site_label
_atom_site_type_symbol
_atom_site_fract_x
_atom_site_fract_y
_atom_site_fract_z
_atom_site_charge
Mof_Zn	Zn	0.52545	0.51517	0.9541	1.199
Mof_Zn	Zn	0.66635	0.68944	0.74038	1.245
Mof_Zn	Zn	0.38592	0.6863	0.20223	1.229
Mof_P 	P 	0.69762	0.77067	0.459	0.457
Mof_P 	P 	0.63855	0.56812	0.69149	0.433
Mof_P 	P 	0.4092	0.56301	0.21261	0.491
Mof_O 	O 	0.6475	0.74203	0.5717	-0.451
Mof_O 	O 	0.7689	0.80933	0.5332	-0.433
Mof_O 	O 	0.734	0.7278	0.354	-0.067
Mof_O 	O 	0.5612	0.56321	0.7926	-0.482
Mof_O 	O 	0.629	0.52979	0.5471	-0.438
Mof_O 	O 	0.6408	0.62309	0.6247	-0.403
Mof_O 	O 	0.4921	0.56097	0.1223	-0.418
Mof_O 	O 	0.4133	0.52239	0.3454	-0.443
Mof_O 	O 	0.3999	0.61583	0.2855	-0.421
Mof_H 	H 	0.6361	0.8019	0.3424	0.02
Mof_H 	H 	0.7307	0.5592	0.8408	-0.028
Mof_H 	H 	0.3327	0.5649	0.1198	-0.046
Mof_P 	P 	0.8814	0.71567	0.9144	0.722
Mof_O 	O 	0.9053	0.6996	0.0989	-0.029
Mof_O 	O 	0.8729	0.77677	0.9023	-0.399
Mof_O 	O 	0.7944	0.68933	0.8588	-0.503
Mof_H 	H 	0.9608	0.7083	0.8684	-0.088
Mof_P 	P 	0.5215	0.72796	0.968	0.476
Mof_O 	O 	0.4988	0.7062	0.1238	-0.371
Mof_O 	O 	0.563	0.6946	0.854	-0.208
Mof_H 	H 	0.565	0.7786	0.998	0.009
Mof_O 	O 	0.4211	0.7349	0.8322	-0.174
Mof_O 	O 	0.595	0.6966	0.924	-0.275
Mof_O 	O 	0.756	0.739	0.353	-0.109
Mof_O 	O 	0.974	0.7256	0.428	-0.108
Mof_O 	O 	0.8551	0.7368	0.1648	0.07
Mof_P 	P 	0.8623	0.7287	0.9848	-0.342
Mof_Zn	Zn	0.02545	0.01517	0.9541	1.16
Mof_Zn	Zn	0.16635	0.18944	0.74038	1.239
Mof_Zn	Zn	0.88592	0.1863	0.20223	1.233
Mof_P 	P 	0.19762	0.27067	0.459	0.451
Mof_P 	P 	0.13855	0.06812	0.69149	0.427
Mof_P 	P 	0.9092	0.06301	0.21261	0.49
Mof_O 	O 	0.1475	0.24203	0.5717	-0.487
Mof_O 	O 	0.2689	0.30933	0.5332	-0.447
Mof_O 	O 	0.234	0.2278	0.354	-0.05
Mof_O 	O 	0.0612	0.06321	0.7926	-0.534
Mof_O 	O 	0.129	0.02979	0.5471	-0.474
Mof_O 	O 	0.1408	0.12309	0.6247	-0.434
Mof_O 	O 	0.9921	0.06097	0.1223	-0.342
Mof_O 	O 	0.9133	0.02239	0.3454	-0.385
Mof_O 	O 	0.8999	0.11583	0.2855	-0.389
Mof_H 	H 	0.1361	0.3019	0.3424	-0.014
Mof_H 	H 	0.2307	0.0592	0.8408	-0.043
Mof_H 	H 	0.8327	0.0649	0.1198	-0.029
Mof_P 	P 	0.3814	0.21567	0.9144	0.699
Mof_O 	O 	0.4053	0.1996	0.0989	-0.058
Mof_O 	O 	0.3729	0.27677	0.9023	-0.424
Mof_O 	O 	0.2944	0.18933	0.8588	-0.513
Mof_H 	H 	0.4608	0.2083	0.8684	-0.119
Mof_P 	P 	0.0215	0.22796	0.968	0.24
Mof_O 	O 	0.9988	0.2062	0.1238	-0.247
Mof_O 	O 	0.063	0.1946	0.854	-0.284
Mof_H 	H 	0.065	0.2786	0.998	-0.038
Mof_O 	O 	0.9211	0.2349	0.8322	-0.116
Mof_O 	O 	0.095	0.1966	0.924	-0.2
Mof_O 	O 	0.256	0.239	0.353	-0.14
Mof_O 	O 	0.474	0.2256	0.428	-0.241
Mof_O 	O 	0.3551	0.2368	0.1648	0.064
Mof_P 	P 	0.3623	0.2287	0.9848	-0.321
Mof_Zn	Zn	0.52545	0.48483	0.4541	1.235
Mof_Zn	Zn	0.66635	0.31056	0.24038	1.261
Mof_Zn	Zn	0.38592	0.3137	0.70223	1.235
Mof_P 	P 	0.69762	0.22933	0.959	0.28
Mof_P 	P 	0.63855	0.43188	0.19149	0.44
Mof_P 	P 	0.4092	0.43699	0.71261	0.49
Mof_O 	O 	0.6475	0.25797	0.0717	-0.346
Mof_O 	O 	0.7689	0.19067	0.0332	-0.333
Mof_O 	O 	0.734	0.2722	0.854	-0.085
Mof_O 	O 	0.5612	0.43679	0.2926	-0.441
Mof_O 	O 	0.629	0.47021	0.0471	-0.376
Mof_O 	O 	0.6408	0.37691	0.1247	-0.369
Mof_O 	O 	0.4921	0.43903	0.6223	-0.475
Mof_O 	O 	0.4133	0.47761	0.8454	-0.493
Mof_O 	O 	0.3999	0.38417	0.7855	-0.452
Mof_H 	H 	0.6361	0.1981	0.8424	-0
Mof_H 	H 	0.7307	0.4408	0.3408	0.001
Mof_H 	H 	0.3327	0.4351	0.6198	-0.074
Mof_P 	P 	0.8814	0.28433	0.4144	2.297
Mof_O 	O 	0.9053	0.3004	0.5989	0.037
Mof_O 	O 	0.8729	0.22323	0.4023	-0.259
Mof_O 	O 	0.7944	0.31067	0.3588	-0.634
Mof_H 	H 	0.9608	0.2917	0.3684	-0.358
Mof_P 	P 	0.5215	0.27204	0.468	0.553
Mof_O 	O 	0.4988	0.2938	0.6238	-0.454
Mof_O 	O 	0.563	0.3054	0.354	-0.251
Mof_H 	H 	0.565	0.2214	0.498	0.04
Mof_O 	O 	0.4211	0.2651	0.3322	-0.118
Mof_O 	O 	0.595	0.3034	0.424	-0.2
Mof_O 	O 	0.756	0.261	0.853	-0.13
Mof_O 	O 	0.974	0.2744	0.928	-0.137
Mof_O 	O 	0.8551	0.2632	0.6648	0.279
Mof_P 	P 	0.8623	0.2713	0.4848	-1.833
Mof_Zn	Zn	0.02545	0.98483	0.4541	1.194
Mof_Zn	Zn	0.16635	0.81056	0.24038	1.255
Mof_Zn	Zn	0.88592	0.8137	0.70223	1.238
Mof_P 	P 	0.19762	0.72933	0.959	0.269
Mof_P 	P 	0.13855	0.93188	0.19149	0.434
Mof_P 	P 	0.9092	0.93699	0.71261	0.49
Mof_O 	O 	0.1475	0.75797	0.0717	-0.38
Mof_O 	O 	0.2689	0.69067	0.0332	-0.343
Mof_O 	O 	0.234	0.7722	0.854	-0.068
Mof_O 	O 	0.0612	0.93679	0.2926	-0.495
Mof_O 	O 	0.129	0.97021	0.0471	-0.413
Mof_O 	O 	0.1408	0.87691	0.1247	-0.399
Mof_O 	O 	0.9921	0.93903	0.6223	-0.398
Mof_O 	O 	0.9133	0.97761	0.8454	-0.436
Mof_O 	O 	0.8999	0.88417	0.7855	-0.42
Mof_H 	H 	0.1361	0.6981	0.8424	-0.035
Mof_H 	H 	0.2307	0.9408	0.3408	-0.015
Mof_H 	H 	0.8327	0.9351	0.6198	-0.057
Mof_P 	P 	0.3814	0.78433	0.4144	2.284
Mof_O 	O 	0.4053	0.8004	0.5989	0.007
Mof_O 	O 	0.3729	0.72323	0.4023	-0.283
Mof_O 	O 	0.2944	0.81067	0.3588	-0.646
Mof_H 	H 	0.4608	0.7917	0.3684	-0.39
Mof_P 	P 	0.0215	0.77204	0.468	0.313
Mof_O 	O 	0.9988	0.7938	0.6238	-0.326
Mof_O 	O 	0.063	0.8054	0.354	-0.325
Mof_H 	H 	0.065	0.7214	0.498	-0.007
Mof_O 	O 	0.9211	0.7651	0.3322	-0.061
Mof_O 	O 	0.095	0.8034	0.424	-0.126
Mof_O 	O 	0.256	0.761	0.853	-0.161
Mof_O 	O 	0.474	0.7744	0.928	-0.271
Mof_O 	O 	0.3551	0.7632	0.6648	0.273
Mof_P 	P 	0.3623	0.7713	0.4848	-1.821
_end
