data_functionalizedCrystal
_audit_creation_method	'EQeq! by Chris Wilmer'
_symmetry_space_group_name_H-M	'P1'
_symmetry_Int_Tables_number	1
_symmetry_cell_setting	triclinic
loop_
_symmetry_equiv_pos_as_xyz
  x,y,z
_cell_length_a	24.7233
_cell_length_b	24.7233
_cell_length_c	24.7233
_cell_angle_alpha	90
_cell_angle_beta	90
_cell_angle_gamma	90
loop_
_atom_site_label
_atom_site_type_symbol
_atom_site_fract_x
_atom_site_fract_y
_atom_site_fract_z
_atom_site_charge
Mof_N 	N 	0.77097	0.93643	0.08907	-0.215
Mof_C 	C 	0.78235	0.90698	0.13235	0.084
Mof_H 	H 	0.8101	0.9155	0.1575	-0.037
Mof_N 	N 	0.77097	0.43643	0.58907	-0.223
Mof_C 	C 	0.78235	0.40698	0.63235	0.082
Mof_H 	H 	0.8101	0.4155	0.6575	-0.043
Mof_N 	N 	0.27097	0.93643	0.58907	-0.213
Mof_C 	C 	0.28235	0.90698	0.63235	0.085
Mof_H 	H 	0.3101	0.9155	0.6575	-0.038
Mof_N 	N 	0.27097	0.43643	0.08907	-0.225
Mof_C 	C 	0.28235	0.40698	0.13235	0.082
Mof_H 	H 	0.3101	0.4155	0.1575	-0.043
Mof_N 	N 	0.47903	0.81357	0.58907	-0.222
Mof_C 	C 	0.46765	0.84302	0.63235	0.084
Mof_H 	H 	0.4399	0.8345	0.6575	-0.042
Mof_N 	N 	0.47903	0.31357	0.08907	-0.225
Mof_C 	C 	0.46765	0.34302	0.13235	0.082
Mof_H 	H 	0.4399	0.3345	0.1575	-0.043
Mof_N 	N 	0.97903	0.81357	0.08907	-0.214
Mof_C 	C 	0.96765	0.84302	0.13235	0.122
Mof_H 	H 	0.9399	0.8345	0.1575	-0.049
Mof_N 	N 	0.97903	0.31357	0.58907	-0.212
Mof_C 	C 	0.96765	0.34302	0.63235	0.123
Mof_H 	H 	0.9399	0.3345	0.6575	-0.05
Mof_N 	N 	0.97903	0.43643	0.16093	-0.212
Mof_C 	C 	0.96765	0.40698	0.11765	0.121
Mof_H 	H 	0.9399	0.4155	0.0925	-0.054
Mof_N 	N 	0.97903	0.93643	0.66093	-0.201
Mof_C 	C 	0.96765	0.90698	0.61765	0.127
Mof_H 	H 	0.9399	0.9155	0.5925	-0.044
Mof_N 	N 	0.47903	0.43643	0.66093	-0.222
Mof_C 	C 	0.46765	0.40698	0.61765	0.083
Mof_H 	H 	0.4399	0.4155	0.5925	-0.043
Mof_N 	N 	0.47903	0.93643	0.16093	-0.213
Mof_C 	C 	0.46765	0.90698	0.11765	0.085
Mof_H 	H 	0.4399	0.9155	0.0925	-0.041
Mof_N 	N 	0.27097	0.31357	0.66093	-0.222
Mof_C 	C 	0.28235	0.34302	0.61765	0.083
Mof_H 	H 	0.3101	0.3345	0.5925	-0.043
Mof_N 	N 	0.27097	0.81357	0.16093	-0.223
Mof_C 	C 	0.28235	0.84302	0.11765	0.083
Mof_H 	H 	0.3101	0.8345	0.0925	-0.046
Mof_N 	N 	0.77097	0.31357	0.16093	-0.223
Mof_C 	C 	0.78235	0.34302	0.11765	0.082
Mof_H 	H 	0.8101	0.3345	0.0925	-0.046
Mof_N 	N 	0.77097	0.81357	0.66093	-0.221
Mof_C 	C 	0.78235	0.84302	0.61765	0.084
Mof_H 	H 	0.8101	0.8345	0.5925	-0.041
Mof_N 	N 	0.08907	0.77097	0.93643	-0.214
Mof_C 	C 	0.13235	0.78235	0.90698	0.085
Mof_H 	H 	0.1575	0.8101	0.9155	-0.036
Mof_N 	N 	0.08907	0.27097	0.43643	-0.225
Mof_C 	C 	0.13235	0.28235	0.40698	0.082
Mof_H 	H 	0.1575	0.3101	0.4155	-0.043
Mof_N 	N 	0.58907	0.77097	0.43643	-0.222
Mof_C 	C 	0.63235	0.78235	0.40698	0.083
Mof_H 	H 	0.6575	0.8101	0.4155	-0.042
Mof_N 	N 	0.58907	0.27097	0.93643	-0.212
Mof_C 	C 	0.63235	0.28235	0.90698	0.086
Mof_H 	H 	0.6575	0.3101	0.9155	-0.037
Mof_N 	N 	0.58907	0.47903	0.81357	-0.222
Mof_C 	C 	0.63235	0.46765	0.84302	0.084
Mof_H 	H 	0.6575	0.4399	0.8345	-0.042
Mof_N 	N 	0.58907	0.97903	0.31357	-0.212
Mof_C 	C 	0.63235	0.96765	0.34302	0.123
Mof_H 	H 	0.6575	0.9399	0.3345	-0.05
Mof_N 	N 	0.08907	0.47903	0.31357	-0.225
Mof_C 	C 	0.13235	0.46765	0.34302	0.082
Mof_H 	H 	0.1575	0.4399	0.3345	-0.043
Mof_N 	N 	0.08907	0.97903	0.81357	-0.214
Mof_C 	C 	0.13235	0.96765	0.84302	0.122
Mof_H 	H 	0.1575	0.9399	0.8345	-0.049
Mof_N 	N 	0.16093	0.97903	0.43643	-0.212
Mof_C 	C 	0.11765	0.96765	0.40698	0.121
Mof_H 	H 	0.0925	0.9399	0.4155	-0.054
Mof_N 	N 	0.16093	0.47903	0.93643	-0.213
Mof_C 	C 	0.11765	0.46765	0.90698	0.085
Mof_H 	H 	0.0925	0.4399	0.9155	-0.041
Mof_N 	N 	0.66093	0.97903	0.93643	-0.201
Mof_C 	C 	0.61765	0.96765	0.90698	0.127
Mof_H 	H 	0.5925	0.9399	0.9155	-0.044
Mof_N 	N 	0.66093	0.47903	0.43643	-0.222
Mof_C 	C 	0.61765	0.46765	0.40698	0.083
Mof_H 	H 	0.5925	0.4399	0.4155	-0.043
Mof_N 	N 	0.66093	0.27097	0.31357	-0.222
Mof_C 	C 	0.61765	0.28235	0.34302	0.083
Mof_H 	H 	0.5925	0.3101	0.3345	-0.043
Mof_N 	N 	0.66093	0.77097	0.81357	-0.221
Mof_C 	C 	0.61765	0.78235	0.84302	0.084
Mof_H 	H 	0.5925	0.8101	0.8345	-0.041
Mof_N 	N 	0.16093	0.27097	0.81357	-0.223
Mof_C 	C 	0.11765	0.28235	0.84302	0.083
Mof_H 	H 	0.0925	0.3101	0.8345	-0.046
Mof_N 	N 	0.16093	0.77097	0.31357	-0.223
Mof_C 	C 	0.11765	0.78235	0.34302	0.082
Mof_H 	H 	0.0925	0.8101	0.3345	-0.046
Mof_N 	N 	0.93643	0.08907	0.77097	-0.214
Mof_C 	C 	0.90698	0.13235	0.78235	0.085
Mof_H 	H 	0.9155	0.1575	0.8101	-0.036
Mof_N 	N 	0.93643	0.58907	0.27097	-0.212
Mof_C 	C 	0.90698	0.63235	0.28235	0.086
Mof_H 	H 	0.9155	0.6575	0.3101	-0.037
Mof_N 	N 	0.43643	0.08907	0.27097	-0.225
Mof_C 	C 	0.40698	0.13235	0.28235	0.082
Mof_H 	H 	0.4155	0.1575	0.3101	-0.043
Mof_N 	N 	0.43643	0.58907	0.77097	-0.222
Mof_C 	C 	0.40698	0.63235	0.78235	0.083
Mof_H 	H 	0.4155	0.6575	0.8101	-0.042
Mof_N 	N 	0.81357	0.58907	0.47903	-0.222
Mof_C 	C 	0.84302	0.63235	0.46765	0.084
Mof_H 	H 	0.8345	0.6575	0.4399	-0.042
Mof_N 	N 	0.81357	0.08907	0.97903	-0.214
Mof_C 	C 	0.84302	0.13235	0.96765	0.122
Mof_H 	H 	0.8345	0.1575	0.9399	-0.049
Mof_N 	N 	0.31357	0.58907	0.97903	-0.212
Mof_C 	C 	0.34302	0.63235	0.96765	0.123
Mof_H 	H 	0.3345	0.6575	0.9399	-0.05
Mof_N 	N 	0.31357	0.08907	0.47903	-0.225
Mof_C 	C 	0.34302	0.13235	0.46765	0.082
Mof_H 	H 	0.3345	0.1575	0.4399	-0.043
Mof_N 	N 	0.43643	0.16093	0.97903	-0.212
Mof_C 	C 	0.40698	0.11765	0.96765	0.121
Mof_H 	H 	0.4155	0.0925	0.9399	-0.054
Mof_N 	N 	0.43643	0.66093	0.47903	-0.222
Mof_C 	C 	0.40698	0.61765	0.46765	0.083
Mof_H 	H 	0.4155	0.5925	0.4399	-0.043
Mof_N 	N 	0.93643	0.16093	0.47903	-0.213
Mof_C 	C 	0.90698	0.11765	0.46765	0.085
Mof_H 	H 	0.9155	0.0925	0.4399	-0.041
Mof_N 	N 	0.93643	0.66093	0.97903	-0.201
Mof_C 	C 	0.90698	0.61765	0.96765	0.127
Mof_H 	H 	0.9155	0.5925	0.9399	-0.044
Mof_N 	N 	0.31357	0.66093	0.27097	-0.222
Mof_C 	C 	0.34302	0.61765	0.28235	0.083
Mof_H 	H 	0.3345	0.5925	0.3101	-0.043
Mof_N 	N 	0.31357	0.16093	0.77097	-0.223
Mof_C 	C 	0.34302	0.11765	0.78235	0.082
Mof_H 	H 	0.3345	0.0925	0.8101	-0.046
Mof_N 	N 	0.81357	0.66093	0.77097	-0.221
Mof_C 	C 	0.84302	0.61765	0.78235	0.084
Mof_H 	H 	0.8345	0.5925	0.8101	-0.041
Mof_N 	N 	0.81357	0.16093	0.27097	-0.223
Mof_C 	C 	0.84302	0.11765	0.28235	0.083
Mof_H 	H 	0.8345	0.0925	0.3101	-0.046
Mof_N 	N 	0.68643	0.02097	0.91093	-0.235
Mof_C 	C 	0.65698	0.03235	0.86765	0.078
Mof_H 	H 	0.6655	0.0601	0.8425	-0.044
Mof_N 	N 	0.68643	0.52097	0.41093	-0.222
Mof_C 	C 	0.65698	0.53235	0.36765	0.083
Mof_H 	H 	0.6655	0.5601	0.3425	-0.043
Mof_N 	N 	0.18643	0.02097	0.41093	-0.238
Mof_C 	C 	0.15698	0.03235	0.36765	0.077
Mof_H 	H 	0.1655	0.0601	0.3425	-0.045
Mof_N 	N 	0.18643	0.52097	0.91093	-0.22
Mof_C 	C 	0.15698	0.53235	0.86765	0.084
Mof_H 	H 	0.1655	0.5601	0.8425	-0.043
Mof_N 	N 	0.56357	0.72903	0.41093	-0.222
Mof_C 	C 	0.59302	0.71765	0.36765	0.083
Mof_H 	H 	0.5845	0.6899	0.3425	-0.043
Mof_N 	N 	0.56357	0.22903	0.91093	-0.219
Mof_C 	C 	0.59302	0.21765	0.86765	0.084
Mof_H 	H 	0.5845	0.1899	0.8425	-0.043
Mof_N 	N 	0.06357	0.72903	0.91093	-0.223
Mof_C 	C 	0.09302	0.71765	0.86765	0.083
Mof_H 	H 	0.0845	0.6899	0.8425	-0.047
Mof_N 	N 	0.06357	0.22903	0.41093	-0.226
Mof_C 	C 	0.09302	0.21765	0.36765	0.081
Mof_H 	H 	0.0845	0.1899	0.3425	-0.047
Mof_N 	N 	0.18643	0.22903	0.83907	-0.222
Mof_C 	C 	0.15698	0.21765	0.88235	0.084
Mof_H 	H 	0.1655	0.1899	0.9075	-0.039
Mof_N 	N 	0.18643	0.72903	0.33907	-0.222
Mof_C 	C 	0.15698	0.71765	0.38235	0.083
Mof_H 	H 	0.1655	0.6899	0.4075	-0.043
Mof_N 	N 	0.68643	0.22903	0.33907	-0.222
Mof_C 	C 	0.65698	0.21765	0.38235	0.083
Mof_H 	H 	0.6655	0.1899	0.4075	-0.043
Mof_N 	N 	0.68643	0.72903	0.83907	-0.221
Mof_C 	C 	0.65698	0.71765	0.88235	0.085
Mof_H 	H 	0.6655	0.6899	0.9075	-0.038
Mof_N 	N 	0.06357	0.52097	0.33907	-0.226
Mof_C 	C 	0.09302	0.53235	0.38235	0.082
Mof_H 	H 	0.0845	0.5601	0.4075	-0.047
Mof_N 	N 	0.06357	0.02097	0.83907	-0.241
Mof_C 	C 	0.09302	0.03235	0.88235	0.076
Mof_H 	H 	0.0845	0.0601	0.9075	-0.044
Mof_N 	N 	0.56357	0.52097	0.83907	-0.221
Mof_C 	C 	0.59302	0.53235	0.88235	0.085
Mof_H 	H 	0.5845	0.5601	0.9075	-0.038
Mof_N 	N 	0.56357	0.02097	0.33907	-0.238
Mof_C 	C 	0.59302	0.03235	0.38235	0.076
Mof_H 	H 	0.5845	0.0601	0.4075	-0.044
Mof_N 	N 	0.52097	0.33907	0.06357	-0.226
Mof_C 	C 	0.53235	0.38235	0.09302	0.082
Mof_H 	H 	0.5601	0.4075	0.0845	-0.047
Mof_N 	N 	0.52097	0.83907	0.56357	-0.221
Mof_C 	C 	0.53235	0.88235	0.59302	0.085
Mof_H 	H 	0.5601	0.9075	0.5845	-0.038
Mof_N 	N 	0.02097	0.33907	0.56357	-0.238
Mof_C 	C 	0.03235	0.38235	0.59302	0.076
Mof_H 	H 	0.0601	0.4075	0.5845	-0.044
Mof_N 	N 	0.02097	0.83907	0.06357	-0.241
Mof_C 	C 	0.03235	0.88235	0.09302	0.076
Mof_H 	H 	0.0601	0.9075	0.0845	-0.044
Mof_N 	N 	0.22903	0.83907	0.18643	-0.222
Mof_C 	C 	0.21765	0.88235	0.15698	0.084
Mof_H 	H 	0.1899	0.9075	0.1655	-0.039
Mof_N 	N 	0.22903	0.33907	0.68643	-0.222
Mof_C 	C 	0.21765	0.38235	0.65698	0.083
Mof_H 	H 	0.1899	0.4075	0.6655	-0.043
Mof_N 	N 	0.72903	0.83907	0.68643	-0.221
Mof_C 	C 	0.71765	0.88235	0.65698	0.085
Mof_H 	H 	0.6899	0.9075	0.6655	-0.038
Mof_N 	N 	0.72903	0.33907	0.18643	-0.222
Mof_C 	C 	0.71765	0.38235	0.15698	0.083
Mof_H 	H 	0.6899	0.4075	0.1655	-0.043
Mof_N 	N 	0.72903	0.41093	0.56357	-0.222
Mof_C 	C 	0.71765	0.36765	0.59302	0.083
Mof_H 	H 	0.6899	0.3425	0.5845	-0.043
Mof_N 	N 	0.72903	0.91093	0.06357	-0.223
Mof_C 	C 	0.71765	0.86765	0.09302	0.083
Mof_H 	H 	0.6899	0.8425	0.0845	-0.047
Mof_N 	N 	0.22903	0.41093	0.06357	-0.226
Mof_C 	C 	0.21765	0.36765	0.09302	0.081
Mof_H 	H 	0.1899	0.3425	0.0845	-0.047
Mof_N 	N 	0.22903	0.91093	0.56357	-0.219
Mof_C 	C 	0.21765	0.86765	0.59302	0.084
Mof_H 	H 	0.1899	0.8425	0.5845	-0.043
Mof_N 	N 	0.02097	0.91093	0.68643	-0.235
Mof_C 	C 	0.03235	0.86765	0.65698	0.078
Mof_H 	H 	0.0601	0.8425	0.6655	-0.044
Mof_N 	N 	0.02097	0.41093	0.18643	-0.238
Mof_C 	C 	0.03235	0.36765	0.15698	0.077
Mof_H 	H 	0.0601	0.3425	0.1655	-0.045
Mof_N 	N 	0.52097	0.91093	0.18643	-0.22
Mof_C 	C 	0.53235	0.86765	0.15698	0.084
Mof_H 	H 	0.5601	0.8425	0.1655	-0.043
Mof_N 	N 	0.52097	0.41093	0.68643	-0.222
Mof_C 	C 	0.53235	0.36765	0.65698	0.083
Mof_H 	H 	0.5601	0.3425	0.6655	-0.043
Mof_N 	N 	0.83907	0.18643	0.22903	-0.222
Mof_C 	C 	0.88235	0.15698	0.21765	0.084
Mof_H 	H 	0.9075	0.1655	0.1899	-0.039
Mof_N 	N 	0.83907	0.68643	0.72903	-0.221
Mof_C 	C 	0.88235	0.65698	0.71765	0.085
Mof_H 	H 	0.9075	0.6655	0.6899	-0.038
Mof_N 	N 	0.33907	0.18643	0.72903	-0.222
Mof_C 	C 	0.38235	0.15698	0.71765	0.083
Mof_H 	H 	0.4075	0.1655	0.6899	-0.043
Mof_N 	N 	0.33907	0.68643	0.22903	-0.222
Mof_C 	C 	0.38235	0.65698	0.21765	0.083
Mof_H 	H 	0.4075	0.6655	0.1899	-0.043
Mof_N 	N 	0.33907	0.06357	0.52097	-0.226
Mof_C 	C 	0.38235	0.09302	0.53235	0.082
Mof_H 	H 	0.4075	0.0845	0.5601	-0.047
Mof_N 	N 	0.33907	0.56357	0.02097	-0.238
Mof_C 	C 	0.38235	0.59302	0.03235	0.076
Mof_H 	H 	0.4075	0.5845	0.0601	-0.044
Mof_N 	N 	0.83907	0.06357	0.02097	-0.241
Mof_C 	C 	0.88235	0.09302	0.03235	0.076
Mof_H 	H 	0.9075	0.0845	0.0601	-0.044
Mof_N 	N 	0.83907	0.56357	0.52097	-0.221
Mof_C 	C 	0.88235	0.59302	0.53235	0.085
Mof_H 	H 	0.9075	0.5845	0.5601	-0.038
Mof_N 	N 	0.91093	0.68643	0.02097	-0.235
Mof_C 	C 	0.86765	0.65698	0.03235	0.078
Mof_H 	H 	0.8425	0.6655	0.0601	-0.044
Mof_N 	N 	0.91093	0.18643	0.52097	-0.22
Mof_C 	C 	0.86765	0.15698	0.53235	0.084
Mof_H 	H 	0.8425	0.1655	0.5601	-0.043
Mof_N 	N 	0.41093	0.68643	0.52097	-0.222
Mof_C 	C 	0.36765	0.65698	0.53235	0.083
Mof_H 	H 	0.3425	0.6655	0.5601	-0.043
Mof_N 	N 	0.41093	0.18643	0.02097	-0.238
Mof_C 	C 	0.36765	0.15698	0.03235	0.077
Mof_H 	H 	0.3425	0.1655	0.0601	-0.045
Mof_N 	N 	0.41093	0.56357	0.72903	-0.222
Mof_C 	C 	0.36765	0.59302	0.71765	0.083
Mof_H 	H 	0.3425	0.5845	0.6899	-0.043
Mof_N 	N 	0.41093	0.06357	0.22903	-0.226
Mof_C 	C 	0.36765	0.09302	0.21765	0.081
Mof_H 	H 	0.3425	0.0845	0.1899	-0.047
Mof_N 	N 	0.91093	0.56357	0.22903	-0.219
Mof_C 	C 	0.86765	0.59302	0.21765	0.084
Mof_H 	H 	0.8425	0.5845	0.1899	-0.043
Mof_N 	N 	0.91093	0.06357	0.72903	-0.223
Mof_C 	C 	0.86765	0.09302	0.71765	0.083
Mof_H 	H 	0.8425	0.0845	0.6899	-0.047
Mof_N 	N 	0.22903	0.06357	0.91093	-0.224
Mof_C 	C 	0.21765	0.09302	0.86765	0.083
Mof_H 	H 	0.1899	0.0845	0.8425	-0.047
Mof_N 	N 	0.22903	0.56357	0.41093	-0.222
Mof_C 	C 	0.21765	0.59302	0.36765	0.083
Mof_H 	H 	0.1899	0.5845	0.3425	-0.043
Mof_N 	N 	0.72903	0.06357	0.41093	-0.226
Mof_C 	C 	0.71765	0.09302	0.36765	0.082
Mof_H 	H 	0.6899	0.0845	0.3425	-0.047
Mof_N 	N 	0.72903	0.56357	0.91093	-0.219
Mof_C 	C 	0.71765	0.59302	0.86765	0.085
Mof_H 	H 	0.6899	0.5845	0.8425	-0.043
Mof_N 	N 	0.52097	0.18643	0.41093	-0.223
Mof_C 	C 	0.53235	0.15698	0.36765	0.083
Mof_H 	H 	0.5601	0.1655	0.3425	-0.044
Mof_N 	N 	0.52097	0.68643	0.91093	-0.219
Mof_C 	C 	0.53235	0.65698	0.86765	0.085
Mof_H 	H 	0.5601	0.6655	0.8425	-0.043
Mof_N 	N 	0.02097	0.18643	0.91093	-0.235
Mof_C 	C 	0.03235	0.15698	0.86765	0.078
Mof_H 	H 	0.0601	0.1655	0.8425	-0.045
Mof_N 	N 	0.02097	0.68643	0.41093	-0.238
Mof_C 	C 	0.03235	0.65698	0.36765	0.077
Mof_H 	H 	0.0601	0.6655	0.3425	-0.044
Mof_N 	N 	0.02097	0.56357	0.83907	-0.237
Mof_C 	C 	0.03235	0.59302	0.88235	0.078
Mof_H 	H 	0.0601	0.5845	0.9075	-0.04
Mof_N 	N 	0.02097	0.06357	0.33907	-0.241
Mof_C 	C 	0.03235	0.09302	0.38235	0.075
Mof_H 	H 	0.0601	0.0845	0.4075	-0.048
Mof_N 	N 	0.52097	0.56357	0.33907	-0.222
Mof_C 	C 	0.53235	0.59302	0.38235	0.083
Mof_H 	H 	0.5601	0.5845	0.4075	-0.043
Mof_N 	N 	0.52097	0.06357	0.83907	-0.225
Mof_C 	C 	0.53235	0.09302	0.88235	0.083
Mof_H 	H 	0.5601	0.0845	0.9075	-0.042
Mof_N 	N 	0.72903	0.68643	0.33907	-0.222
Mof_C 	C 	0.71765	0.65698	0.38235	0.083
Mof_H 	H 	0.6899	0.6655	0.4075	-0.043
Mof_N 	N 	0.72903	0.18643	0.83907	-0.221
Mof_C 	C 	0.71765	0.15698	0.88235	0.085
Mof_H 	H 	0.6899	0.1655	0.9075	-0.039
Mof_N 	N 	0.22903	0.68643	0.83907	-0.221
Mof_C 	C 	0.21765	0.65698	0.88235	0.085
Mof_H 	H 	0.1899	0.6655	0.9075	-0.039
Mof_N 	N 	0.22903	0.18643	0.33907	-0.223
Mof_C 	C 	0.21765	0.15698	0.38235	0.083
Mof_H 	H 	0.1899	0.1655	0.4075	-0.044
Mof_N 	N 	0.91093	0.22903	0.06357	-0.224
Mof_C 	C 	0.86765	0.21765	0.09302	0.083
Mof_H 	H 	0.8425	0.1899	0.0845	-0.047
Mof_N 	N 	0.91093	0.72903	0.56357	-0.219
Mof_C 	C 	0.86765	0.71765	0.59302	0.085
Mof_H 	H 	0.8425	0.6899	0.5845	-0.043
Mof_N 	N 	0.41093	0.22903	0.56357	-0.222
Mof_C 	C 	0.36765	0.21765	0.59302	0.083
Mof_H 	H 	0.3425	0.1899	0.5845	-0.043
Mof_N 	N 	0.41093	0.72903	0.06357	-0.226
Mof_C 	C 	0.36765	0.71765	0.09302	0.082
Mof_H 	H 	0.3425	0.6899	0.0845	-0.047
Mof_N 	N 	0.41093	0.52097	0.18643	-0.223
Mof_C 	C 	0.36765	0.53235	0.15698	0.083
Mof_H 	H 	0.3425	0.5601	0.1655	-0.044
Mof_N 	N 	0.41093	0.02097	0.68643	-0.238
Mof_C 	C 	0.36765	0.03235	0.65698	0.077
Mof_H 	H 	0.3425	0.0601	0.6655	-0.044
Mof_N 	N 	0.91093	0.52097	0.68643	-0.219
Mof_C 	C 	0.86765	0.53235	0.65698	0.085
Mof_H 	H 	0.8425	0.5601	0.6655	-0.043
Mof_N 	N 	0.91093	0.02097	0.18643	-0.235
Mof_C 	C 	0.86765	0.03235	0.15698	0.078
Mof_H 	H 	0.8425	0.0601	0.1655	-0.045
Mof_N 	N 	0.83907	0.02097	0.56357	-0.237
Mof_C 	C 	0.88235	0.03235	0.59302	0.078
Mof_H 	H 	0.9075	0.0601	0.5845	-0.04
Mof_N 	N 	0.83907	0.52097	0.06357	-0.225
Mof_C 	C 	0.88235	0.53235	0.09302	0.083
Mof_H 	H 	0.9075	0.5601	0.0845	-0.042
Mof_N 	N 	0.33907	0.02097	0.06357	-0.241
Mof_C 	C 	0.38235	0.03235	0.09302	0.075
Mof_H 	H 	0.4075	0.0601	0.0845	-0.048
Mof_N 	N 	0.33907	0.52097	0.56357	-0.222
Mof_C 	C 	0.38235	0.53235	0.59302	0.083
Mof_H 	H 	0.4075	0.5601	0.5845	-0.043
Mof_N 	N 	0.33907	0.72903	0.68643	-0.222
Mof_C 	C 	0.38235	0.71765	0.65698	0.083
Mof_H 	H 	0.4075	0.6899	0.6655	-0.043
Mof_N 	N 	0.33907	0.22903	0.18643	-0.223
Mof_C 	C 	0.38235	0.21765	0.15698	0.083
Mof_H 	H 	0.4075	0.1899	0.1655	-0.044
Mof_N 	N 	0.83907	0.72903	0.18643	-0.221
Mof_C 	C 	0.88235	0.71765	0.15698	0.085
Mof_H 	H 	0.9075	0.6899	0.1655	-0.039
Mof_N 	N 	0.83907	0.22903	0.68643	-0.221
Mof_C 	C 	0.88235	0.21765	0.65698	0.085
Mof_H 	H 	0.9075	0.1899	0.6655	-0.039
Mof_N 	N 	0.06357	0.91093	0.22903	-0.224
Mof_C 	C 	0.09302	0.86765	0.21765	0.083
Mof_H 	H 	0.0845	0.8425	0.1899	-0.047
Mof_N 	N 	0.06357	0.41093	0.72903	-0.226
Mof_C 	C 	0.09302	0.36765	0.71765	0.082
Mof_H 	H 	0.0845	0.3425	0.6899	-0.047
Mof_N 	N 	0.56357	0.91093	0.72903	-0.219
Mof_C 	C 	0.59302	0.86765	0.71765	0.085
Mof_H 	H 	0.5845	0.8425	0.6899	-0.043
Mof_N 	N 	0.56357	0.41093	0.22903	-0.222
Mof_C 	C 	0.59302	0.36765	0.21765	0.083
Mof_H 	H 	0.5845	0.3425	0.1899	-0.043
Mof_N 	N 	0.18643	0.41093	0.52097	-0.223
Mof_C 	C 	0.15698	0.36765	0.53235	0.083
Mof_H 	H 	0.1655	0.3425	0.5601	-0.044
Mof_N 	N 	0.18643	0.91093	0.02097	-0.235
Mof_C 	C 	0.15698	0.86765	0.03235	0.078
Mof_H 	H 	0.1655	0.8425	0.0601	-0.045
Mof_N 	N 	0.68643	0.41093	0.02097	-0.238
Mof_C 	C 	0.65698	0.36765	0.03235	0.077
Mof_H 	H 	0.6655	0.3425	0.0601	-0.044
Mof_N 	N 	0.68643	0.91093	0.52097	-0.219
Mof_C 	C 	0.65698	0.86765	0.53235	0.085
Mof_H 	H 	0.6655	0.8425	0.5601	-0.043
Mof_N 	N 	0.56357	0.83907	0.02097	-0.237
Mof_C 	C 	0.59302	0.88235	0.03235	0.078
Mof_H 	H 	0.5845	0.9075	0.0601	-0.04
Mof_N 	N 	0.56357	0.33907	0.52097	-0.222
Mof_C 	C 	0.59302	0.38235	0.53235	0.083
Mof_H 	H 	0.5845	0.4075	0.5601	-0.043
Mof_N 	N 	0.06357	0.83907	0.52097	-0.225
Mof_C 	C 	0.09302	0.88235	0.53235	0.083
Mof_H 	H 	0.0845	0.9075	0.5601	-0.042
Mof_N 	N 	0.06357	0.33907	0.02097	-0.241
Mof_C 	C 	0.09302	0.38235	0.03235	0.075
Mof_H 	H 	0.0845	0.4075	0.0601	-0.048
Mof_N 	N 	0.68643	0.33907	0.72903	-0.222
Mof_C 	C 	0.65698	0.38235	0.71765	0.083
Mof_H 	H 	0.6655	0.4075	0.6899	-0.043
Mof_N 	N 	0.68643	0.83907	0.22903	-0.221
Mof_C 	C 	0.65698	0.88235	0.21765	0.085
Mof_H 	H 	0.6655	0.9075	0.1899	-0.039
Mof_N 	N 	0.18643	0.33907	0.22903	-0.223
Mof_C 	C 	0.15698	0.38235	0.21765	0.083
Mof_H 	H 	0.1655	0.4075	0.1899	-0.044
Mof_N 	N 	0.18643	0.83907	0.72903	-0.221
Mof_C 	C 	0.15698	0.88235	0.71765	0.085
Mof_H 	H 	0.1655	0.9075	0.6899	-0.039
Mof_N 	N 	0.31357	0.97903	0.08907	-0.214
Mof_C 	C 	0.34302	0.96765	0.13235	0.121
Mof_H 	H 	0.3345	0.9399	0.1575	-0.05
Mof_N 	N 	0.31357	0.47903	0.58907	-0.222
Mof_C 	C 	0.34302	0.46765	0.63235	0.083
Mof_H 	H 	0.3345	0.4399	0.6575	-0.042
Mof_N 	N 	0.81357	0.97903	0.58907	-0.211
Mof_C 	C 	0.84302	0.96765	0.63235	0.125
Mof_H 	H 	0.8345	0.9399	0.6575	-0.049
Mof_N 	N 	0.81357	0.47903	0.08907	-0.224
Mof_C 	C 	0.84302	0.46765	0.13235	0.083
Mof_H 	H 	0.8345	0.4399	0.1575	-0.042
Mof_N 	N 	0.43643	0.27097	0.58907	-0.222
Mof_C 	C 	0.40698	0.28235	0.63235	0.083
Mof_H 	H 	0.4155	0.3101	0.6575	-0.042
Mof_N 	N 	0.43643	0.77097	0.08907	-0.224
Mof_C 	C 	0.40698	0.78235	0.13235	0.082
Mof_H 	H 	0.4155	0.8101	0.1575	-0.042
Mof_N 	N 	0.93643	0.27097	0.08907	-0.215
Mof_C 	C 	0.90698	0.28235	0.13235	0.085
Mof_H 	H 	0.9155	0.3101	0.1575	-0.037
Mof_N 	N 	0.93643	0.77097	0.58907	-0.212
Mof_C 	C 	0.90698	0.78235	0.63235	0.086
Mof_H 	H 	0.9155	0.8101	0.6575	-0.036
Mof_N 	N 	0.81357	0.77097	0.16093	-0.222
Mof_C 	C 	0.84302	0.78235	0.11765	0.083
Mof_H 	H 	0.8345	0.8101	0.0925	-0.046
Mof_N 	N 	0.81357	0.27097	0.66093	-0.222
Mof_C 	C 	0.84302	0.28235	0.61765	0.084
Mof_H 	H 	0.8345	0.3101	0.5925	-0.042
Mof_N 	N 	0.31357	0.77097	0.66093	-0.222
Mof_C 	C 	0.34302	0.78235	0.61765	0.083
Mof_H 	H 	0.3345	0.8101	0.5925	-0.042
Mof_N 	N 	0.31357	0.27097	0.16093	-0.223
Mof_C 	C 	0.34302	0.28235	0.11765	0.082
Mof_H 	H 	0.3345	0.3101	0.0925	-0.047
Mof_N 	N 	0.93643	0.47903	0.66093	-0.212
Mof_C 	C 	0.90698	0.46765	0.61765	0.086
Mof_H 	H 	0.9155	0.4399	0.5925	-0.037
Mof_N 	N 	0.93643	0.97903	0.16093	-0.202
Mof_C 	C 	0.90698	0.96765	0.11765	0.124
Mof_H 	H 	0.9155	0.9399	0.0925	-0.048
Mof_N 	N 	0.43643	0.47903	0.16093	-0.223
Mof_C 	C 	0.40698	0.46765	0.11765	0.082
Mof_H 	H 	0.4155	0.4399	0.0925	-0.047
Mof_N 	N 	0.43643	0.97903	0.66093	-0.211
Mof_C 	C 	0.40698	0.96765	0.61765	0.123
Mof_H 	H 	0.4155	0.9399	0.5925	-0.05
Mof_N 	N 	0.47903	0.66093	0.93643	-0.212
Mof_C 	C 	0.46765	0.61765	0.90698	0.086
Mof_H 	H 	0.4399	0.5925	0.9155	-0.037
Mof_N 	N 	0.47903	0.16093	0.43643	-0.223
Mof_C 	C 	0.46765	0.11765	0.40698	0.082
Mof_H 	H 	0.4399	0.0925	0.4155	-0.047
Mof_N 	N 	0.97903	0.66093	0.43643	-0.211
Mof_C 	C 	0.96765	0.61765	0.40698	0.123
Mof_H 	H 	0.9399	0.5925	0.4155	-0.05
Mof_N 	N 	0.97903	0.16093	0.93643	-0.202
Mof_C 	C 	0.96765	0.11765	0.90698	0.124
Mof_H 	H 	0.9399	0.0925	0.9155	-0.048
Mof_N 	N 	0.77097	0.16093	0.81357	-0.222
Mof_C 	C 	0.78235	0.11765	0.84302	0.083
Mof_H 	H 	0.8101	0.0925	0.8345	-0.046
Mof_N 	N 	0.77097	0.66093	0.31357	-0.222
Mof_C 	C 	0.78235	0.61765	0.34302	0.083
Mof_H 	H 	0.8101	0.5925	0.3345	-0.042
Mof_N 	N 	0.27097	0.16093	0.31357	-0.223
Mof_C 	C 	0.28235	0.11765	0.34302	0.082
Mof_H 	H 	0.3101	0.0925	0.3345	-0.047
Mof_N 	N 	0.27097	0.66093	0.81357	-0.222
Mof_C 	C 	0.28235	0.61765	0.84302	0.084
Mof_H 	H 	0.3101	0.5925	0.8345	-0.042
Mof_N 	N 	0.27097	0.58907	0.43643	-0.222
Mof_C 	C 	0.28235	0.63235	0.40698	0.083
Mof_H 	H 	0.3101	0.6575	0.4155	-0.042
Mof_N 	N 	0.27097	0.08907	0.93643	-0.215
Mof_C 	C 	0.28235	0.13235	0.90698	0.085
Mof_H 	H 	0.3101	0.1575	0.9155	-0.037
Mof_N 	N 	0.77097	0.58907	0.93643	-0.212
Mof_C 	C 	0.78235	0.63235	0.90698	0.086
Mof_H 	H 	0.8101	0.6575	0.9155	-0.036
Mof_N 	N 	0.77097	0.08907	0.43643	-0.224
Mof_C 	C 	0.78235	0.13235	0.40698	0.082
Mof_H 	H 	0.8101	0.1575	0.4155	-0.042
Mof_N 	N 	0.97903	0.08907	0.31357	-0.214
Mof_C 	C 	0.96765	0.13235	0.34302	0.121
Mof_H 	H 	0.9399	0.1575	0.3345	-0.05
Mof_N 	N 	0.97903	0.58907	0.81357	-0.211
Mof_C 	C 	0.96765	0.63235	0.84302	0.125
Mof_H 	H 	0.9399	0.6575	0.8345	-0.049
Mof_N 	N 	0.47903	0.08907	0.81357	-0.224
Mof_C 	C 	0.46765	0.13235	0.84302	0.083
Mof_H 	H 	0.4399	0.1575	0.8345	-0.042
Mof_N 	N 	0.47903	0.58907	0.31357	-0.222
Mof_C 	C 	0.46765	0.63235	0.34302	0.083
Mof_H 	H 	0.4399	0.6575	0.3345	-0.042
Mof_N 	N 	0.16093	0.81357	0.77097	-0.222
Mof_C 	C 	0.11765	0.84302	0.78235	0.083
Mof_H 	H 	0.0925	0.8345	0.8101	-0.046
Mof_N 	N 	0.16093	0.31357	0.27097	-0.223
Mof_C 	C 	0.11765	0.34302	0.28235	0.082
Mof_H 	H 	0.0925	0.3345	0.3101	-0.047
Mof_N 	N 	0.66093	0.81357	0.27097	-0.222
Mof_C 	C 	0.61765	0.84302	0.28235	0.084
Mof_H 	H 	0.5925	0.8345	0.3101	-0.042
Mof_N 	N 	0.66093	0.31357	0.77097	-0.222
Mof_C 	C 	0.61765	0.34302	0.78235	0.083
Mof_H 	H 	0.5925	0.3345	0.8101	-0.042
Mof_N 	N 	0.66093	0.93643	0.47903	-0.212
Mof_C 	C 	0.61765	0.90698	0.46765	0.086
Mof_H 	H 	0.5925	0.9155	0.4399	-0.037
Mof_N 	N 	0.66093	0.43643	0.97903	-0.211
Mof_C 	C 	0.61765	0.40698	0.96765	0.123
Mof_H 	H 	0.5925	0.4155	0.9399	-0.05
Mof_N 	N 	0.16093	0.93643	0.97903	-0.202
Mof_C 	C 	0.11765	0.90698	0.96765	0.124
Mof_H 	H 	0.0925	0.9155	0.9399	-0.048
Mof_N 	N 	0.16093	0.43643	0.47903	-0.223
Mof_C 	C 	0.11765	0.40698	0.46765	0.082
Mof_H 	H 	0.0925	0.4155	0.4399	-0.047
Mof_N 	N 	0.08907	0.31357	0.97903	-0.214
Mof_C 	C 	0.13235	0.34302	0.96765	0.121
Mof_H 	H 	0.1575	0.3345	0.9399	-0.05
Mof_N 	N 	0.08907	0.81357	0.47903	-0.224
Mof_C 	C 	0.13235	0.84302	0.46765	0.083
Mof_H 	H 	0.1575	0.8345	0.4399	-0.042
Mof_N 	N 	0.58907	0.31357	0.47903	-0.222
Mof_C 	C 	0.63235	0.34302	0.46765	0.083
Mof_H 	H 	0.6575	0.3345	0.4399	-0.042
Mof_N 	N 	0.58907	0.81357	0.97903	-0.211
Mof_C 	C 	0.63235	0.84302	0.96765	0.125
Mof_H 	H 	0.6575	0.8345	0.9399	-0.049
Mof_N 	N 	0.58907	0.43643	0.27097	-0.222
Mof_C 	C 	0.63235	0.40698	0.28235	0.083
Mof_H 	H 	0.6575	0.4155	0.3101	-0.042
Mof_N 	N 	0.58907	0.93643	0.77097	-0.212
Mof_C 	C 	0.63235	0.90698	0.78235	0.086
Mof_H 	H 	0.6575	0.9155	0.8101	-0.036
Mof_N 	N 	0.08907	0.43643	0.77097	-0.224
Mof_C 	C 	0.13235	0.40698	0.78235	0.082
Mof_H 	H 	0.1575	0.4155	0.8101	-0.042
Mof_N 	N 	0.08907	0.93643	0.27097	-0.215
Mof_C 	C 	0.13235	0.90698	0.28235	0.085
Mof_H 	H 	0.1575	0.9155	0.3101	-0.037
Mof_Cu	Cu	0.8064	4.1761e-34	0.0564	0.838
Mof_Cu	Cu	0.8064	0.5	0.5564	0.857
Mof_Cu	Cu	0.4436	0.75	0.5564	0.856
Mof_Cu	Cu	0.4436	0.25	0.0564	0.85
Mof_Cu	Cu	0.9436	0.5	0.1936	0.862
Mof_Cu	Cu	0.9436	6.68176e-33	0.6936	0.849
Mof_Cu	Cu	0.3064	0.25	0.6936	0.856
Mof_Cu	Cu	0.3064	0.75	0.1936	0.856
Mof_Cu	Cu	0.0564	0.8064	-0	0.838
Mof_Cu	Cu	0.0564	0.3064	0.5	0.85
Mof_Cu	Cu	0.5564	0.4436	0.75	0.856
Mof_Cu	Cu	0.5564	0.9436	0.25	0.862
Mof_Cu	Cu	0.1936	0.9436	0.5	0.862
Mof_Cu	Cu	0.1936	0.4436	-0	0.843
Mof_Cu	Cu	0.6936	0.3064	0.25	0.856
Mof_Cu	Cu	0.6936	0.8064	0.75	0.857
Mof_Cu	Cu	9.70528e-33	0.0564	0.8064	0.838
Mof_Cu	Cu	0.5	0.0564	0.3064	0.85
Mof_Cu	Cu	0.75	0.5564	0.4436	0.856
Mof_Cu	Cu	0.25	0.5564	0.9436	0.862
Mof_Cu	Cu	0.5	0.1936	0.9436	0.862
Mof_Cu	Cu	1.66323e-33	0.1936	0.4436	0.843
Mof_Cu	Cu	0.25	0.6936	0.3064	0.856
Mof_Cu	Cu	0.75	0.6936	0.8064	0.857
Mof_Cu	Cu	0.75	0.0564	0.9436	0.857
Mof_Cu	Cu	0.25	0.0564	0.4436	0.85
Mof_Cu	Cu	0.5	0.6936	0.4436	0.856
Mof_Cu	Cu	1.69015e-32	0.6936	0.9436	0.849
Mof_Cu	Cu	0.25	0.1936	0.8064	0.856
Mof_Cu	Cu	0.75	0.1936	0.3064	0.856
Mof_Cu	Cu	4.4897e-33	0.5564	0.3064	0.843
Mof_Cu	Cu	0.5	0.5564	0.8064	0.857
Mof_Cu	Cu	0.5564	0.3064	-0	0.843
Mof_Cu	Cu	0.5564	0.8064	0.5	0.857
Mof_Cu	Cu	0.1936	0.8064	0.25	0.856
Mof_Cu	Cu	0.1936	0.3064	0.75	0.856
Mof_Cu	Cu	0.6936	0.4436	0.5	0.856
Mof_Cu	Cu	0.6936	0.9436	-0	0.849
Mof_Cu	Cu	0.0564	0.9436	0.75	0.857
Mof_Cu	Cu	0.0564	0.4436	0.25	0.85
Mof_Cu	Cu	0.8064	0.25	0.1936	0.856
Mof_Cu	Cu	0.8064	0.75	0.6936	0.857
Mof_Cu	Cu	0.3064	0	0.5564	0.843
Mof_Cu	Cu	0.3064	0.5	0.0564	0.85
Mof_Cu	Cu	0.9436	0.75	0.0564	0.857
Mof_Cu	Cu	0.9436	0.25	0.5564	0.862
Mof_Cu	Cu	0.4436	0.5	0.6936	0.856
Mof_Cu	Cu	0.4436	0	0.1936	0.843
Mof_Cu	Cu	0.1936	0	0.9436	0.849
Mof_Cu	Cu	0.1936	0.5	0.4436	0.856
Mof_Cu	Cu	0.5564	0.25	0.4436	0.856
Mof_Cu	Cu	0.5564	0.75	0.9436	0.863
Mof_Cu	Cu	0.0564	0.5	0.8064	0.851
Mof_Cu	Cu	0.0564	0	0.3064	0.837
Mof_Cu	Cu	0.6936	0.75	0.3064	0.856
Mof_Cu	Cu	0.6936	0.25	0.8064	0.857
Mof_Cu	Cu	0.9436	0.1936	-0	0.849
Mof_Cu	Cu	0.9436	0.6936	0.5	0.863
Mof_Cu	Cu	0.4436	0.5564	0.25	0.856
Mof_Cu	Cu	0.4436	0.0564	0.75	0.85
Mof_Cu	Cu	0.8064	0.0564	0.5	0.851
Mof_Cu	Cu	0.8064	0.5564	-0	0.843
Mof_Cu	Cu	0.3064	0.6936	0.75	0.856
Mof_Cu	Cu	0.3064	0.1936	0.25	0.855
Mof_Cu	Cu	4.06677e-33	0.9436	0.1936	0.849
Mof_Cu	Cu	0.5	0.9436	0.6936	0.863
Mof_Cu	Cu	0.25	0.4436	0.5564	0.856
Mof_Cu	Cu	0.75	0.4436	0.0564	0.85
Mof_Cu	Cu	0.5	0.8064	0.0564	0.851
Mof_Cu	Cu	-4.5956e-33	0.8064	0.5564	0.843
Mof_Cu	Cu	0.75	0.3064	0.6936	0.856
Mof_Cu	Cu	0.25	0.3064	0.1936	0.855
Mof_Cu	Cu	0.25	0.9436	0.0564	0.856
Mof_Cu	Cu	0.75	0.9436	0.5564	0.863
Mof_Cu	Cu	0.5	0.3064	0.5564	0.856
Mof_Cu	Cu	-2.71181e-33	0.3064	0.0564	0.837
Mof_Cu	Cu	0.75	0.8064	0.1936	0.857
Mof_Cu	Cu	0.25	0.8064	0.6936	0.857
Mof_Cu	Cu	2.60058e-33	0.4436	0.6936	0.843
Mof_Cu	Cu	0.5	0.4436	0.1936	0.856
Mof_Cu	Cu	0.4436	0.6936	-0	0.843
Mof_Cu	Cu	0.4436	0.1936	0.5	0.856
Mof_Cu	Cu	0.8064	0.1936	0.75	0.857
Mof_Cu	Cu	0.8064	0.6936	0.25	0.857
Mof_Cu	Cu	0.3064	0.5564	0.5	0.856
Mof_Cu	Cu	0.3064	0.0564	-0	0.837
Mof_Cu	Cu	0.9436	0.0564	0.25	0.856
Mof_Cu	Cu	0.9436	0.5564	0.75	0.863
Mof_Cu	Cu	0.1936	0.75	0.8064	0.857
Mof_Cu	Cu	0.1936	0.25	0.3064	0.855
Mof_Cu	Cu	0.6936	0	0.4436	0.843
Mof_Cu	Cu	0.6936	0.5	0.9436	0.863
Mof_Cu	Cu	0.0564	0.25	0.9436	0.856
Mof_Cu	Cu	0.0564	0.75	0.4436	0.85
Mof_Cu	Cu	0.5564	0.5	0.3064	0.856
Mof_Cu	Cu	0.5564	6.68176e-33	0.8064	0.843
Mof_N 	N 	0.75	0.86372	0.13628	-0.254
Mof_N 	N 	0.25	0.86372	0.63628	-0.254
Mof_N 	N 	0.5	0.88628	0.63628	-0.253
Mof_N 	N 	2.18141e-33	0.88628	0.13628	-0.277
Mof_N 	N 	7.10815e-33	0.36372	0.11372	-0.278
Mof_N 	N 	0.5	0.36372	0.61372	-0.254
Mof_N 	N 	0.25	0.38628	0.61372	-0.255
Mof_N 	N 	0.75	0.38628	0.11372	-0.256
Mof_N 	N 	0.13628	0.75	0.86372	-0.254
Mof_N 	N 	0.13628	0.25	0.36372	-0.255
Mof_N 	N 	0.63628	0.5	0.88628	-0.253
Mof_N 	N 	0.63628	0	0.38628	-0.278
Mof_N 	N 	0.11372	0	0.36372	-0.278
Mof_N 	N 	0.11372	0.5	0.86372	-0.255
Mof_N 	N 	0.61372	0.25	0.38628	-0.255
Mof_N 	N 	0.61372	0.75	0.88628	-0.253
Mof_N 	N 	0.86372	0.13628	0.75	-0.254
Mof_N 	N 	0.86372	0.63628	0.25	-0.254
Mof_N 	N 	0.88628	0.63628	0.5	-0.253
Mof_N 	N 	0.88628	0.13628	-0	-0.277
Mof_N 	N 	0.36372	0.11372	-0	-0.278
Mof_N 	N 	0.36372	0.61372	0.5	-0.254
Mof_N 	N 	0.38628	0.61372	0.25	-0.255
Mof_N 	N 	0.38628	0.11372	0.75	-0.256
Mof_N 	N 	0.61372	0	0.86372	-0.278
Mof_N 	N 	0.61372	0.5	0.36372	-0.254
Mof_N 	N 	0.63628	0.75	0.36372	-0.254
Mof_N 	N 	0.63628	0.25	0.86372	-0.254
Mof_N 	N 	0.11372	0.25	0.88628	-0.255
Mof_N 	N 	0.11372	0.75	0.38628	-0.256
Mof_N 	N 	0.13628	0.5	0.38628	-0.255
Mof_N 	N 	0.13628	0	0.88628	-0.277
Mof_N 	N 	0.5	0.38628	0.13628	-0.255
Mof_N 	N 	2.38567e-33	0.38628	0.63628	-0.278
Mof_N 	N 	0.25	0.88628	0.11372	-0.255
Mof_N 	N 	0.75	0.88628	0.61372	-0.253
Mof_N 	N 	0.75	0.36372	0.63628	-0.254
Mof_N 	N 	0.25	0.36372	0.13628	-0.255
Mof_N 	N 	8.98284e-33	0.86372	0.61372	-0.278
Mof_N 	N 	0.5	0.86372	0.11372	-0.255
Mof_N 	N 	0.88628	0.11372	0.25	-0.255
Mof_N 	N 	0.88628	0.61372	0.75	-0.253
Mof_N 	N 	0.38628	0.13628	0.5	-0.255
Mof_N 	N 	0.38628	0.63628	-0	-0.278
Mof_N 	N 	0.86372	0.61372	-0	-0.278
Mof_N 	N 	0.86372	0.11372	0.5	-0.255
Mof_N 	N 	0.36372	0.63628	0.75	-0.254
Mof_N 	N 	0.36372	0.13628	0.25	-0.255
Mof_N 	N 	0.25	0.13628	0.86372	-0.255
Mof_N 	N 	0.75	0.13628	0.36372	-0.255
Mof_N 	N 	0.5	0.11372	0.36372	-0.256
Mof_N 	N 	9.92019e-33	0.11372	0.86372	-0.278
Mof_N 	N 	1.00048e-32	0.63628	0.88628	-0.277
Mof_N 	N 	0.5	0.63628	0.38628	-0.254
Mof_N 	N 	0.75	0.61372	0.38628	-0.254
Mof_N 	N 	0.25	0.61372	0.88628	-0.253
Mof_N 	N 	0.86372	0.25	0.13628	-0.255
Mof_N 	N 	0.86372	0.75	0.63628	-0.254
Mof_N 	N 	0.36372	0.5	0.11372	-0.256
Mof_N 	N 	0.36372	-6.68176e-33	0.61372	-0.278
Mof_N 	N 	0.88628	0	0.63628	-0.277
Mof_N 	N 	0.88628	0.5	0.13628	-0.254
Mof_N 	N 	0.38628	0.75	0.61372	-0.254
Mof_N 	N 	0.38628	0.25	0.11372	-0.256
Mof_N 	N 	0.13628	0.86372	0.25	-0.255
Mof_N 	N 	0.13628	0.36372	0.75	-0.255
Mof_N 	N 	0.11372	0.36372	0.5	-0.256
Mof_N 	N 	0.11372	0.86372	-0	-0.278
Mof_N 	N 	0.63628	0.88628	-0	-0.277
Mof_N 	N 	0.63628	0.38628	0.5	-0.254
Mof_N 	N 	0.61372	0.38628	0.75	-0.254
Mof_N 	N 	0.61372	0.88628	0.25	-0.253
Mof_N 	N 	0.38628	-1.67044e-33	0.13628	-0.278
Mof_N 	N 	0.38628	0.5	0.63628	-0.254
Mof_N 	N 	0.36372	0.25	0.63628	-0.254
Mof_N 	N 	0.36372	0.75	0.13628	-0.255
Mof_N 	N 	0.88628	0.75	0.11372	-0.254
Mof_N 	N 	0.88628	0.25	0.61372	-0.253
Mof_N 	N 	0.86372	0.5	0.61372	-0.254
Mof_N 	N 	0.86372	0	0.11372	-0.278
Mof_N 	N 	0.5	0.61372	0.86372	-0.254
Mof_N 	N 	8.04549e-33	0.61372	0.36372	-0.278
Mof_N 	N 	0.75	0.11372	0.88628	-0.254
Mof_N 	N 	0.25	0.11372	0.38628	-0.256
Mof_N 	N 	0.25	0.63628	0.36372	-0.254
Mof_N 	N 	0.75	0.63628	0.86372	-0.254
Mof_N 	N 	1.44832e-33	0.13628	0.38628	-0.278
Mof_N 	N 	0.5	0.13628	0.88628	-0.254
Mof_N 	N 	0.11372	0.88628	0.75	-0.254
Mof_N 	N 	0.11372	0.38628	0.25	-0.256
Mof_N 	N 	0.61372	0.86372	0.5	-0.254
Mof_N 	N 	0.61372	0.36372	-0	-0.278
Mof_N 	N 	0.13628	0.38628	-0	-0.278
Mof_N 	N 	0.13628	0.88628	0.5	-0.254
Mof_N 	N 	0.63628	0.36372	0.25	-0.254
Mof_N 	N 	0.63628	0.86372	0.75	-0.254
Mof_O 	O 	0.73882	0.01118	0.01118	-0.469
Mof_O 	O 	0.51118	0.73882	0.51118	-0.358
Mof_O 	O 	0.01118	0.51118	0.23882	-0.414
Mof_O 	O 	0.23882	0.23882	0.73882	-0.36
Mof_O 	O 	0.01118	0.73882	0.01118	-0.469
Mof_O 	O 	0.01118	0.23882	0.51118	-0.414
Mof_O 	O 	0.51118	0.51118	0.73882	-0.358
Mof_O 	O 	0.51118	0.01118	0.23882	-0.414
Mof_O 	O 	0.23882	0.01118	0.51118	-0.414
Mof_O 	O 	0.23882	0.51118	0.01118	-0.414
Mof_O 	O 	0.73882	0.23882	0.23882	-0.36
Mof_O 	O 	0.73882	0.73882	0.73882	-0.359
Mof_O 	O 	0.01118	0.01118	0.73882	-0.469
Mof_O 	O 	0.73882	0.51118	0.51118	-0.358
Mof_O 	O 	0.51118	0.23882	0.01118	-0.414
Mof_O 	O 	0.23882	0.73882	0.23882	-0.36
Mof_O 	O 	0.76118	0.98882	0.98882	-0.236
Mof_O 	O 	0.48882	0.76118	0.48882	-0.356
Mof_O 	O 	0.26118	0.26118	0.76118	-0.355
Mof_O 	O 	0.98882	0.48882	0.26118	-0.298
Mof_O 	O 	0.48882	0.26118	0.98882	-0.298
Mof_O 	O 	0.26118	0.76118	0.26118	-0.355
Mof_O 	O 	0.76118	0.48882	0.48882	-0.356
Mof_O 	O 	0.98882	0.98882	0.76118	-0.236
Mof_O 	O 	0.76118	0.26118	0.26118	-0.355
Mof_O 	O 	0.76118	0.76118	0.76118	-0.353
Mof_O 	O 	0.26118	0.98882	0.48882	-0.298
Mof_O 	O 	0.26118	0.48882	0.98882	-0.298
Mof_O 	O 	0.98882	0.76118	0.98882	-0.236
Mof_O 	O 	0.98882	0.26118	0.48882	-0.298
Mof_O 	O 	0.48882	0.48882	0.76118	-0.356
Mof_O 	O 	0.48882	0.98882	0.26118	-0.298
Mof_O 	O 	0.26118	0.98882	0.98882	-0.24
Mof_O 	O 	0.48882	0.26118	0.48882	-0.357
Mof_O 	O 	0.98882	0.48882	0.76118	-0.295
Mof_O 	O 	0.76118	0.76118	0.26118	-0.354
Mof_O 	O 	0.98882	0.26118	0.98882	-0.24
Mof_O 	O 	0.98882	0.76118	0.48882	-0.295
Mof_O 	O 	0.48882	0.48882	0.26118	-0.357
Mof_O 	O 	0.48882	0.98882	0.76118	-0.295
Mof_O 	O 	0.76118	0.98882	0.48882	-0.295
Mof_O 	O 	0.76118	0.48882	0.98882	-0.295
Mof_O 	O 	0.26118	0.76118	0.76118	-0.354
Mof_O 	O 	0.26118	0.26118	0.26118	-0.356
Mof_O 	O 	0.98882	0.98882	0.26118	-0.24
Mof_O 	O 	0.26118	0.48882	0.48882	-0.357
Mof_O 	O 	0.48882	0.76118	0.98882	-0.295
Mof_O 	O 	0.76118	0.26118	0.76118	-0.354
Mof_O 	O 	0.23882	0.01118	0.01118	-0.467
Mof_O 	O 	0.51118	0.23882	0.51118	-0.358
Mof_O 	O 	0.73882	0.73882	0.23882	-0.359
Mof_O 	O 	0.01118	0.51118	0.73882	-0.415
Mof_O 	O 	0.51118	0.73882	0.01118	-0.415
Mof_O 	O 	0.73882	0.23882	0.73882	-0.359
Mof_O 	O 	0.23882	0.51118	0.51118	-0.358
Mof_O 	O 	0.01118	0.01118	0.23882	-0.467
Mof_O 	O 	0.23882	0.73882	0.73882	-0.359
Mof_O 	O 	0.23882	0.23882	0.23882	-0.36
Mof_O 	O 	0.73882	0.01118	0.51118	-0.415
Mof_O 	O 	0.73882	0.51118	0.01118	-0.415
Mof_O 	O 	0.01118	0.23882	0.01118	-0.467
Mof_O 	O 	0.01118	0.73882	0.51118	-0.415
Mof_O 	O 	0.51118	0.51118	0.23882	-0.358
Mof_O 	O 	0.51118	0.01118	0.73882	-0.415
_end
