data_functionalizedCrystal
_audit_creation_method	'EQeq! by Chris Wilmer'
_symmetry_space_group_name_H-M	'P1'
_symmetry_Int_Tables_number	1
_symmetry_cell_setting	triclinic
loop_
_symmetry_equiv_pos_as_xyz
  x,y,z
_cell_length_a	10.1676
_cell_length_b	17.3
_cell_length_c	17.485
_cell_angle_alpha	90
_cell_angle_beta	91.708
_cell_angle_gamma	90
loop_
_atom_site_label
_atom_site_type_symbol
_atom_site_fract_x
_atom_site_fract_y
_atom_site_fract_z
_atom_site_charge
Mof_Cd	Cd	0.82736	0.3632	0.0199	0.423
Mof_N 	N 	0.8107	0.39705	0.89178	-0.148
Mof_N 	N 	0.8619	0.51903	0.63499	-0.135
Mof_N 	N 	0.0992	0.73816	0.51087	-0.147
Mof_C 	C 	0.7121	0.3712	0.8462	0.069
Mof_H 	H 	0.6481	0.3381	0.8673	0.023
Mof_C 	C 	0.6993	0.3905	0.7697	-0.115
Mof_H 	H 	0.6272	0.3712	0.7396	0.071
Mof_C 	C 	0.7912	0.438	0.7368	0.046
Mof_C 	C 	0.8922	0.4655	0.7847	-0.11
Mof_H 	H 	0.9568	0.4993	0.7652	0.082
Mof_C 	C 	0.8989	0.4439	0.8605	0.071
Mof_H 	H 	0.9693	0.4632	0.8919	0.028
Mof_C 	C 	0.7845	0.4604	0.65469	0.084
Mof_C 	C 	0.7003	0.422	0.60234	-0.15
Mof_H 	H 	0.6483	0.3798	0.6185	0.086
Mof_C 	C 	0.6938	0.4467	0.5258	0.114
Mof_C 	C 	0.7742	0.5082	0.5064	-0.148
Mof_H 	H 	0.7732	0.5267	0.4552	0.083
Mof_C 	C 	0.8565	0.5427	0.5617	0.086
Mof_C 	C 	0.0808	0.7148	0.5817	0.078
Mof_H 	H 	0.1221	0.7433	0.6222	0.016
Mof_C 	C 	0.0053	0.6517	0.6005	-0.114
Mof_H 	H 	0.9963	0.6375	0.6526	0.083
Mof_C 	C 	0.9424	0.609	0.5427	0.051
Mof_C 	C 	0.9675	0.6313	0.4683	-0.116
Mof_H 	H 	0.9307	0.6029	0.4264	0.074
Mof_C 	C 	0.0454	0.6944	0.4552	0.076
Mof_H 	H 	0.0621	0.7077	0.4036	0.025
Mof_C 	C 	0.6032	0.4095	0.46866	-0.094
Mof_C 	C 	0.5559	0.3352	0.4791	0.074
Mof_H 	H 	0.5835	0.3068	0.5232	0.016
Mof_C 	C 	0.4692	0.3016	0.4263	-0.211
Mof_H 	H 	0.437	0.2508	0.4343	0.126
Mof_C 	C 	0.4302	0.3428	0.362	0.253
Mof_C 	C 	0.4774	0.4165	0.34974	-0.217
Mof_H 	H 	0.4515	0.4441	0.3048	0.115
Mof_C 	C 	0.5623	0.4496	0.403	0.079
Mof_H 	H 	0.5936	0.5006	0.3949	0.006
Mof_C 	C 	0.3417	0.326	0.2358	0.216
Mof_C 	C 	0.2215	0.3415	0.1986	-0.151
Mof_H 	H 	0.1428	0.3417	0.2265	0.108
Mof_C 	C 	0.2169	0.3565	0.12051	0.009
Mof_C 	C 	0.333	0.3559	0.0803	-0.065
Mof_H 	H 	0.3306	0.3663	0.0269	0.077
Mof_C 	C 	0.4529	0.3402	0.1179	0.013
Mof_C 	C 	0.4556	0.3244	0.1959	-0.168
Mof_H 	H 	0.5366	0.3124	0.2216	0.107
Mof_C 	C 	0.0866	0.3709	0.0806	0.264
Mof_C 	C 	0.58	0.3407	0.0762	0.257
Mof_O 	O 	0.081	0.39176	0.0119	-0.252
Mof_O 	O 	0.9846	0.35884	0.11806	-0.263
Mof_O 	O 	0.5804	0.36262	0.00762	-0.259
Mof_O 	O 	0.6834	0.31975	0.11185	-0.26
Mof_O 	O 	0.3387	0.30758	0.31304	-0.276
Mof_Cd	Cd	0.17264	0.8632	0.4801	0.426
Mof_N 	N 	0.1893	0.89705	0.60822	-0.147
Mof_N 	N 	0.1381	0.01903	0.86501	-0.133
Mof_N 	N 	0.9008	0.23816	0.98913	-0.143
Mof_C 	C 	0.2879	0.8712	0.6538	0.07
Mof_H 	H 	0.3519	0.8381	0.6327	0.023
Mof_C 	C 	0.3007	0.8905	0.7303	-0.114
Mof_H 	H 	0.3728	0.8712	0.7604	0.072
Mof_C 	C 	0.2088	0.938	0.7632	0.047
Mof_C 	C 	0.1078	0.9655	0.7153	-0.111
Mof_H 	H 	0.0432	0.9993	0.7348	0.082
Mof_C 	C 	0.1011	0.9439	0.6395	0.071
Mof_H 	H 	0.0307	0.9632	0.6081	0.028
Mof_C 	C 	0.2155	0.9604	0.84531	0.082
Mof_C 	C 	0.2997	0.922	0.89766	-0.147
Mof_H 	H 	0.3517	0.8798	0.8815	0.085
Mof_C 	C 	0.3062	0.9467	0.9742	0.109
Mof_C 	C 	0.2258	0.0082	0.9936	-0.142
Mof_H 	H 	0.2268	0.0267	0.0448	0.081
Mof_C 	C 	0.1435	0.0427	0.9383	0.086
Mof_C 	C 	0.9192	0.2148	0.9183	0.075
Mof_H 	H 	0.8779	0.2433	0.8778	0.017
Mof_C 	C 	0.9947	0.1517	0.8995	-0.107
Mof_H 	H 	0.0037	0.1375	0.8474	0.08
Mof_C 	C 	0.0576	0.109	0.9573	0.048
Mof_C 	C 	0.0325	0.1313	0.0317	-0.111
Mof_H 	H 	0.0693	0.1029	0.0736	0.073
Mof_C 	C 	0.9546	0.1944	0.0448	0.07
Mof_H 	H 	0.9379	0.2077	0.0964	0.027
Mof_C 	C 	0.3968	0.9095	0.03134	-0.093
Mof_C 	C 	0.4441	0.8352	0.0209	0.077
Mof_H 	H 	0.4165	0.8068	0.9768	0.014
Mof_C 	C 	0.5308	0.8016	0.0737	-0.212
Mof_H 	H 	0.563	0.7508	0.0657	0.127
Mof_C 	C 	0.5698	0.8428	0.138	0.254
Mof_C 	C 	0.5226	0.9165	0.15026	-0.219
Mof_H 	H 	0.5485	0.9441	0.1952	0.116
Mof_C 	C 	0.4377	0.9496	0.097	0.082
Mof_H 	H 	0.4064	0.0006	0.1051	0.004
Mof_C 	C 	0.6583	0.826	0.2642	0.216
Mof_C 	C 	0.7785	0.8415	0.3014	-0.152
Mof_H 	H 	0.8572	0.8417	0.2735	0.108
Mof_C 	C 	0.7831	0.8565	0.37949	0.01
Mof_C 	C 	0.667	0.8559	0.4197	-0.065
Mof_H 	H 	0.6694	0.8663	0.4731	0.077
Mof_C 	C 	0.5471	0.8402	0.3821	0.014
Mof_C 	C 	0.5444	0.8244	0.3041	-0.168
Mof_H 	H 	0.4634	0.8124	0.2784	0.107
Mof_C 	C 	0.9134	0.8709	0.4194	0.263
Mof_C 	C 	0.42	0.8407	0.4238	0.257
Mof_O 	O 	0.919	0.89176	0.4881	-0.252
Mof_O 	O 	0.0154	0.85884	0.38194	-0.262
Mof_O 	O 	0.4196	0.86262	0.49238	-0.258
Mof_O 	O 	0.3166	0.81975	0.38815	-0.26
Mof_O 	O 	0.6613	0.80758	0.18696	-0.276
Mof_Cd	Cd	0.17264	0.6368	0.9801	0.424
Mof_N 	N 	0.1893	0.60295	0.10822	-0.147
Mof_N 	N 	0.1381	0.48097	0.36501	-0.134
Mof_N 	N 	0.9008	0.26184	0.48913	-0.146
Mof_C 	C 	0.2879	0.6288	0.1538	0.07
Mof_H 	H 	0.3519	0.6619	0.1327	0.024
Mof_C 	C 	0.3007	0.6095	0.2303	-0.114
Mof_H 	H 	0.3728	0.6288	0.2604	0.072
Mof_C 	C 	0.2088	0.562	0.2632	0.046
Mof_C 	C 	0.1078	0.5345	0.2153	-0.11
Mof_H 	H 	0.0432	0.5007	0.2348	0.082
Mof_C 	C 	0.1011	0.5561	0.1395	0.071
Mof_H 	H 	0.0307	0.5368	0.1081	0.028
Mof_C 	C 	0.2155	0.5396	0.34531	0.084
Mof_C 	C 	0.2997	0.578	0.39766	-0.15
Mof_H 	H 	0.3517	0.6202	0.3815	0.086
Mof_C 	C 	0.3062	0.5533	0.4742	0.114
Mof_C 	C 	0.2258	0.4918	0.4936	-0.148
Mof_H 	H 	0.2268	0.4733	0.5448	0.083
Mof_C 	C 	0.1435	0.4573	0.4383	0.086
Mof_C 	C 	0.9192	0.2852	0.4183	0.078
Mof_H 	H 	0.8779	0.2567	0.3778	0.016
Mof_C 	C 	0.9947	0.3483	0.3995	-0.114
Mof_H 	H 	0.0037	0.3625	0.3474	0.083
Mof_C 	C 	0.0576	0.391	0.4573	0.051
Mof_C 	C 	0.0325	0.3687	0.5317	-0.116
Mof_H 	H 	0.0693	0.3971	0.5736	0.074
Mof_C 	C 	0.9546	0.3056	0.5448	0.076
Mof_H 	H 	0.9379	0.2923	0.5964	0.025
Mof_C 	C 	0.3968	0.5905	0.53134	-0.094
Mof_C 	C 	0.4441	0.6648	0.5209	0.074
Mof_H 	H 	0.4165	0.6932	0.4768	0.016
Mof_C 	C 	0.5308	0.6984	0.5737	-0.211
Mof_H 	H 	0.563	0.7492	0.5657	0.126
Mof_C 	C 	0.5698	0.6572	0.638	0.253
Mof_C 	C 	0.5226	0.5835	0.65026	-0.217
Mof_H 	H 	0.5485	0.5559	0.6952	0.115
Mof_C 	C 	0.4377	0.5504	0.597	0.079
Mof_H 	H 	0.4064	0.4994	0.6051	0.006
Mof_C 	C 	0.6583	0.674	0.7642	0.216
Mof_C 	C 	0.7785	0.6585	0.8014	-0.151
Mof_H 	H 	0.8572	0.6583	0.7735	0.108
Mof_C 	C 	0.7831	0.6435	0.87949	0.009
Mof_C 	C 	0.667	0.6441	0.9197	-0.065
Mof_H 	H 	0.6694	0.6337	0.9731	0.077
Mof_C 	C 	0.5471	0.6598	0.8821	0.013
Mof_C 	C 	0.5444	0.6756	0.8041	-0.168
Mof_H 	H 	0.4634	0.6876	0.7784	0.107
Mof_C 	C 	0.9134	0.6291	0.9194	0.264
Mof_C 	C 	0.42	0.6593	0.9238	0.257
Mof_O 	O 	0.919	0.60824	0.9881	-0.252
Mof_O 	O 	0.0154	0.64116	0.88194	-0.263
Mof_O 	O 	0.4196	0.63738	0.99238	-0.259
Mof_O 	O 	0.3166	0.68025	0.88815	-0.26
Mof_O 	O 	0.6613	0.69242	0.68696	-0.276
Mof_Cd	Cd	0.82736	0.1368	0.5199	0.426
Mof_N 	N 	0.8107	0.10295	0.39178	-0.147
Mof_N 	N 	0.8619	0.98097	0.13499	-0.133
Mof_N 	N 	0.0992	0.76184	0.01087	-0.143
Mof_C 	C 	0.7121	0.1288	0.3462	0.07
Mof_H 	H 	0.6481	0.1619	0.3673	0.023
Mof_C 	C 	0.6993	0.1095	0.2697	-0.114
Mof_H 	H 	0.6272	0.1288	0.2396	0.072
Mof_C 	C 	0.7912	0.062	0.2368	0.047
Mof_C 	C 	0.8922	0.0345	0.2847	-0.111
Mof_H 	H 	0.9568	0.0007	0.2652	0.082
Mof_C 	C 	0.8989	0.0561	0.3605	0.071
Mof_H 	H 	0.9693	0.0368	0.3919	0.028
Mof_C 	C 	0.7845	0.0396	0.15469	0.082
Mof_C 	C 	0.7003	0.078	0.10234	-0.147
Mof_H 	H 	0.6483	0.1202	0.1185	0.085
Mof_C 	C 	0.6938	0.0533	0.0258	0.109
Mof_C 	C 	0.7742	0.9918	0.0064	-0.142
Mof_H 	H 	0.7732	0.9733	0.9552	0.081
Mof_C 	C 	0.8565	0.9573	0.0617	0.086
Mof_C 	C 	0.0808	0.7852	0.0817	0.075
Mof_H 	H 	0.1221	0.7567	0.1222	0.017
Mof_C 	C 	0.0053	0.8483	0.1005	-0.107
Mof_H 	H 	0.9963	0.8625	0.1526	0.08
Mof_C 	C 	0.9424	0.891	0.0427	0.048
Mof_C 	C 	0.9675	0.8687	0.9683	-0.111
Mof_H 	H 	0.9307	0.8971	0.9264	0.073
Mof_C 	C 	0.0454	0.8056	0.9552	0.07
Mof_H 	H 	0.0621	0.7923	0.9036	0.027
Mof_C 	C 	0.6032	0.0905	0.96866	-0.093
Mof_C 	C 	0.5559	0.1648	0.9791	0.077
Mof_H 	H 	0.5835	0.1932	0.0232	0.014
Mof_C 	C 	0.4692	0.1984	0.9263	-0.212
Mof_H 	H 	0.437	0.2492	0.9343	0.127
Mof_C 	C 	0.4302	0.1572	0.862	0.254
Mof_C 	C 	0.4774	0.0835	0.84974	-0.219
Mof_H 	H 	0.4515	0.0559	0.8048	0.116
Mof_C 	C 	0.5623	0.0504	0.903	0.082
Mof_H 	H 	0.5936	0.9994	0.8949	0.004
Mof_C 	C 	0.3417	0.174	0.7358	0.216
Mof_C 	C 	0.2215	0.1585	0.6986	-0.152
Mof_H 	H 	0.1428	0.1583	0.7265	0.108
Mof_C 	C 	0.2169	0.1435	0.62051	0.01
Mof_C 	C 	0.333	0.1441	0.5803	-0.065
Mof_H 	H 	0.3306	0.1337	0.5269	0.077
Mof_C 	C 	0.4529	0.1598	0.6179	0.014
Mof_C 	C 	0.4556	0.1756	0.6959	-0.168
Mof_H 	H 	0.5366	0.1876	0.7216	0.107
Mof_C 	C 	0.0866	0.1291	0.5806	0.263
Mof_C 	C 	0.58	0.1593	0.5762	0.257
Mof_O 	O 	0.081	0.10824	0.5119	-0.252
Mof_O 	O 	0.9846	0.14116	0.61806	-0.262
Mof_O 	O 	0.5804	0.13738	0.50762	-0.258
Mof_O 	O 	0.6834	0.18025	0.61185	-0.26
Mof_O 	O 	0.3387	0.19242	0.81304	-0.276
_end
