data_functionalizedCrystal
_audit_creation_method	'EQeq! by Chris Wilmer'
_symmetry_space_group_name_H-M	'P1'
_symmetry_Int_Tables_number	1
_symmetry_cell_setting	triclinic
loop_
_symmetry_equiv_pos_as_xyz
  x,y,z
_cell_length_a	15.119
_cell_length_b	6.6612
_cell_length_c	14.342
_cell_angle_alpha	90
_cell_angle_beta	90
_cell_angle_gamma	90
loop_
_atom_site_label
_atom_site_type_symbol
_atom_site_fract_x
_atom_site_fract_y
_atom_site_fract_z
_atom_site_charge
Mof_O 	O 	0.3507	0.4163	0.135	-0.747
Mof_O 	O 	0.2945	0.4142	0.7421	-0.903
Mof_O 	O 	0.1493	0.5837	0.635	-0.747
Mof_O 	O 	0.2055	0.5858	0.2421	-0.906
Mof_O 	O 	0.6493	0.9163	0.865	-0.75
Mof_O 	O 	0.7055	0.9142	0.2579	-0.903
Mof_O 	O 	0.8507	0.0837	0.365	-0.747
Mof_O 	O 	0.7945	0.0858	0.7579	-0.903
Mof_O 	O 	0.6493	0.5837	0.865	-0.748
Mof_O 	O 	0.7055	0.5858	0.2579	-0.904
Mof_O 	O 	0.8507	0.4163	0.365	-0.747
Mof_O 	O 	0.7945	0.4142	0.7579	-0.906
Mof_O 	O 	0.3507	0.0837	0.135	-0.75
Mof_O 	O 	0.2945	0.0858	0.7421	-0.903
Mof_O 	O 	0.1493	0.9163	0.635	-0.747
Mof_O 	O 	0.2055	0.9142	0.2421	-0.903
Mof_C 	C 	0.5753	0.25	0.0668	0.428
Mof_C 	C 	0.5048	0.25	0.9922	-0.035
Mof_C 	C 	0.4132	0.25	0.0059	-0.067
Mof_C 	C 	0.3694	0.25	0.1027	0.438
Mof_C 	C 	0.3232	0.25	0.7717	0.533
Mof_C 	C 	0.3902	0.25	0.8474	-0.183
Mof_C 	C 	0.4821	0.25	0.832	-0.016
Mof_C 	C 	0.529	0.25	0.7385	0.33
Mof_N 	N 	0.5375	0.25	0.9063	-0.186
Mof_N 	N 	0.3575	0.25	0.9337	-0.201
Mof_O 	O 	0.6544	0.25	0.0377	-0.837
Mof_O 	O 	0.5517	0.25	0.1486	-0.5
Mof_O 	O 	0.4809	0.25	0.6683	-0.517
Mof_O 	O 	0.6122	0.25	0.7423	-0.637
Mof_Tb	Tb	0.70091	0.25	0.87957	1.559
Mof_K 	K 	0.2711	0.25	0.3091	3.202
Mof_C 	C 	0.9247	0.75	0.5668	0.431
Mof_C 	C 	0.9952	0.75	0.4922	-0.042
Mof_C 	C 	0.0868	0.75	0.5059	-0.062
Mof_C 	C 	0.1306	0.75	0.6027	0.436
Mof_C 	C 	0.1768	0.75	0.2717	0.533
Mof_C 	C 	0.1098	0.75	0.3474	-0.184
Mof_C 	C 	0.0179	0.75	0.332	-0.013
Mof_C 	C 	0.971	0.75	0.2385	0.323
Mof_N 	N 	0.9625	0.75	0.4063	-0.186
Mof_N 	N 	0.1425	0.75	0.4337	-0.202
Mof_O 	O 	0.8456	0.75	0.5377	-0.836
Mof_O 	O 	0.9483	0.75	0.6486	-0.501
Mof_O 	O 	0.0191	0.75	0.1683	-0.513
Mof_O 	O 	0.8878	0.75	0.2423	-0.636
Mof_Tb	Tb	0.79909	0.75	0.37957	1.551
Mof_K 	K 	0.2289	0.75	0.8091	3.197
Mof_C 	C 	0.4247	0.75	0.9332	0.428
Mof_C 	C 	0.4952	0.75	0.0078	-0.035
Mof_C 	C 	0.5868	0.75	0.9941	-0.067
Mof_C 	C 	0.6306	0.75	0.8973	0.438
Mof_C 	C 	0.6768	0.75	0.2283	0.533
Mof_C 	C 	0.6098	0.75	0.1526	-0.183
Mof_C 	C 	0.5179	0.75	0.168	-0.016
Mof_C 	C 	0.471	0.75	0.2615	0.33
Mof_N 	N 	0.4625	0.75	0.0937	-0.186
Mof_N 	N 	0.6425	0.75	0.0663	-0.201
Mof_O 	O 	0.3456	0.75	0.9623	-0.837
Mof_O 	O 	0.4483	0.75	0.8514	-0.5
Mof_O 	O 	0.5191	0.75	0.3317	-0.517
Mof_O 	O 	0.3878	0.75	0.2577	-0.637
Mof_Tb	Tb	0.29909	0.75	0.12043	1.559
Mof_K 	K 	0.7289	0.75	0.6909	3.202
Mof_C 	C 	0.0753	0.25	0.4332	0.431
Mof_C 	C 	0.0048	0.25	0.5078	-0.042
Mof_C 	C 	0.9132	0.25	0.4941	-0.062
Mof_C 	C 	0.8694	0.25	0.3973	0.436
Mof_C 	C 	0.8232	0.25	0.7283	0.533
Mof_C 	C 	0.8902	0.25	0.6526	-0.184
Mof_C 	C 	0.9821	0.25	0.668	-0.013
Mof_C 	C 	0.029	0.25	0.7615	0.323
Mof_N 	N 	0.0375	0.25	0.5937	-0.186
Mof_N 	N 	0.8575	0.25	0.5663	-0.202
Mof_O 	O 	0.1544	0.25	0.4623	-0.836
Mof_O 	O 	0.0517	0.25	0.3514	-0.501
Mof_O 	O 	0.9809	0.25	0.8317	-0.513
Mof_O 	O 	0.1122	0.25	0.7577	-0.636
Mof_Tb	Tb	0.20091	0.25	0.62043	1.551
Mof_K 	K 	0.7711	0.25	0.1909	3.197
_end
