data_functionalizedCrystal
_audit_creation_method	'EQeq! by Chris Wilmer'
_symmetry_space_group_name_H-M	'P1'
_symmetry_Int_Tables_number	1
_symmetry_cell_setting	triclinic
loop_
_symmetry_equiv_pos_as_xyz
  x,y,z
_cell_length_a	24.3345
_cell_length_b	24.3345
_cell_length_c	24.3345
_cell_angle_alpha	105.919
_cell_angle_beta	105.919
_cell_angle_gamma	105.919
loop_
_atom_site_label
_atom_site_type_symbol
_atom_site_fract_x
_atom_site_fract_y
_atom_site_fract_z
_atom_site_charge
Mof_Co	Co	0.38412	0.53048	0.04745	1.179
Mof_Co	Co	0.0201	0.05528	0.4866	1.17
Mof_Co	Co	0.04745	0.38412	0.53048	1.179
Mof_Co	Co	0.4866	0.0201	0.05528	1.17
Mof_Co	Co	0.53048	0.04745	0.38412	1.179
Mof_Co	Co	0.05528	0.4866	0.0201	1.17
Mof_Co	Co	0.61588	0.46952	0.95255	1.187
Mof_Co	Co	0.9799	0.94472	0.5134	1.184
Mof_Co	Co	0.95255	0.61588	0.46952	1.187
Mof_Co	Co	0.5134	0.9799	0.94472	1.184
Mof_Co	Co	0.46952	0.95255	0.61588	1.187
Mof_Co	Co	0.94472	0.5134	0.9799	1.184
Mof_Co	Co	0.5	0.5	-0	1.189
Mof_Co	Co	-0	0.5	0.5	1.189
Mof_Co	Co	0.5	0	0.5	1.189
Mof_H 	H 	0.3909	0.5382	0.1537	0.084
Mof_H 	H 	0.3997	0.253	0.9081	0.097
Mof_H 	H 	0.4267	0.3572	0.9662	0.024
Mof_H 	H 	0.248	0.3365	0.8944	0.006
Mof_H 	H 	0.2208	0.233	0.8364	0.094
Mof_H 	H 	0.2672	0.2036	0.745	0.095
Mof_H 	H 	0.1852	0.1544	0.6488	0.019
Mof_H 	H 	0.1277	0.0047	0.6928	0.006
Mof_H 	H 	0.2105	0.0557	0.7888	0.092
Mof_H 	H 	0.3359	0.0919	0.7868	0.1
Mof_H 	H 	0.3985	0.0468	0.8347	0.014
Mof_H 	H 	0.3824	0.1249	0.9956	0.015
Mof_H 	H 	0.3214	0.1716	0.9496	0.097
Mof_H 	H 	0.3071	0.637	0.8261	0.096
Mof_H 	H 	0.3269	0.5983	0.9032	0.02
Mof_H 	H 	0.492	0.6058	0.8917	0.013
Mof_H 	H 	0.4695	0.6428	0.8112	0.09
Mof_H 	H 	0.4538	0.7524	0.8664	0.101
Mof_H 	H 	0.5067	0.8553	0.8876	0.004
Mof_H 	H 	0.4276	0.8257	0.7068	0.013
Mof_H 	H 	0.3772	0.7223	0.6857	0.095
Mof_H 	H 	0.2844	0.7039	0.7138	0.092
Mof_H 	H 	0.1824	0.6438	0.6464	0.016
Mof_H 	H 	0.218	0.4888	0.6332	0.009
Mof_H 	H 	0.3219	0.5487	0.6962	0.091
Mof_H 	H 	0.3159	0.416	0.0866	0.116
Mof_H 	H 	0.2894	0.4697	0.0987	0.139
Mof_H 	H 	0.3261	0.4558	0.1554	0.12
Mof_H 	H 	0.4411	0.4873	0.1889	0.106
Mof_H 	H 	0.4698	0.5008	0.1398	0.102
Mof_H 	H 	0.4178	0.4348	0.1219	0.108
Mof_H 	H 	0.1537	0.3909	0.5382	0.085
Mof_H 	H 	0.9081	0.3997	0.253	0.098
Mof_H 	H 	0.9662	0.4267	0.3572	0.025
Mof_H 	H 	0.8944	0.248	0.3365	0.007
Mof_H 	H 	0.8364	0.2208	0.233	0.095
Mof_H 	H 	0.745	0.2672	0.2036	0.096
Mof_H 	H 	0.6488	0.1852	0.1544	0.019
Mof_H 	H 	0.6928	0.1277	0.0047	0.006
Mof_H 	H 	0.7888	0.2105	0.0557	0.092
Mof_H 	H 	0.7868	0.3359	0.0919	0.1
Mof_H 	H 	0.8347	0.3985	0.0468	0.014
Mof_H 	H 	0.9956	0.3824	0.1249	0.015
Mof_H 	H 	0.9496	0.3214	0.1716	0.097
Mof_H 	H 	0.8261	0.3071	0.637	0.096
Mof_H 	H 	0.9032	0.3269	0.5983	0.02
Mof_H 	H 	0.8917	0.492	0.6058	0.013
Mof_H 	H 	0.8112	0.4695	0.6428	0.09
Mof_H 	H 	0.8664	0.4538	0.7524	0.101
Mof_H 	H 	0.8876	0.5067	0.8553	0.004
Mof_H 	H 	0.7068	0.4276	0.8257	0.013
Mof_H 	H 	0.6857	0.3772	0.7223	0.095
Mof_H 	H 	0.7138	0.2844	0.7039	0.092
Mof_H 	H 	0.6464	0.1824	0.6438	0.016
Mof_H 	H 	0.6332	0.218	0.4888	0.009
Mof_H 	H 	0.6962	0.3219	0.5487	0.091
Mof_H 	H 	0.0866	0.3159	0.416	0.116
Mof_H 	H 	0.0987	0.2894	0.4697	0.139
Mof_H 	H 	0.1554	0.3261	0.4558	0.12
Mof_H 	H 	0.1889	0.4411	0.4873	0.106
Mof_H 	H 	0.1398	0.4698	0.5008	0.102
Mof_H 	H 	0.1219	0.4178	0.4348	0.108
Mof_H 	H 	0.5382	0.1537	0.3909	0.085
Mof_H 	H 	0.253	0.9081	0.3997	0.098
Mof_H 	H 	0.3572	0.9662	0.4267	0.025
Mof_H 	H 	0.3365	0.8944	0.248	0.007
Mof_H 	H 	0.233	0.8364	0.2208	0.095
Mof_H 	H 	0.2036	0.745	0.2672	0.096
Mof_H 	H 	0.1544	0.6488	0.1852	0.019
Mof_H 	H 	0.0047	0.6928	0.1277	0.006
Mof_H 	H 	0.0557	0.7888	0.2105	0.092
Mof_H 	H 	0.0919	0.7868	0.3359	0.1
Mof_H 	H 	0.0468	0.8347	0.3985	0.014
Mof_H 	H 	0.1249	0.9956	0.3824	0.015
Mof_H 	H 	0.1716	0.9496	0.3214	0.097
Mof_H 	H 	0.637	0.8261	0.3071	0.096
Mof_H 	H 	0.5983	0.9032	0.3269	0.02
Mof_H 	H 	0.6058	0.8917	0.492	0.013
Mof_H 	H 	0.6428	0.8112	0.4695	0.09
Mof_H 	H 	0.7524	0.8664	0.4538	0.101
Mof_H 	H 	0.8553	0.8876	0.5067	0.004
Mof_H 	H 	0.8257	0.7068	0.4276	0.013
Mof_H 	H 	0.7223	0.6857	0.3772	0.095
Mof_H 	H 	0.7039	0.7138	0.2844	0.092
Mof_H 	H 	0.6438	0.6464	0.1824	0.016
Mof_H 	H 	0.4888	0.6332	0.218	0.009
Mof_H 	H 	0.5487	0.6962	0.3219	0.091
Mof_H 	H 	0.416	0.0866	0.3159	0.116
Mof_H 	H 	0.4697	0.0987	0.2894	0.139
Mof_H 	H 	0.4558	0.1554	0.3261	0.12
Mof_H 	H 	0.4873	0.1889	0.4411	0.106
Mof_H 	H 	0.5008	0.1398	0.4698	0.102
Mof_H 	H 	0.4348	0.1219	0.4178	0.108
Mof_H 	H 	0.6091	0.4618	0.8463	0.085
Mof_H 	H 	0.6003	0.747	0.0919	0.094
Mof_H 	H 	0.5733	0.6428	0.0338	0.019
Mof_H 	H 	0.752	0.6635	0.1056	0.011
Mof_H 	H 	0.7792	0.767	0.1636	0.096
Mof_H 	H 	0.7328	0.7964	0.255	0.097
Mof_H 	H 	0.8148	0.8456	0.3512	0.017
Mof_H 	H 	0.8723	0.9953	0.3072	0.015
Mof_H 	H 	0.7895	0.9443	0.2112	0.097
Mof_H 	H 	0.6641	0.9081	0.2132	0.1
Mof_H 	H 	0.6015	0.9532	0.1653	0.022
Mof_H 	H 	0.6176	0.8751	0.0044	0.011
Mof_H 	H 	0.6786	0.8284	0.0504	0.093
Mof_H 	H 	0.6929	0.363	0.1739	0.096
Mof_H 	H 	0.6731	0.4017	0.0968	0.017
Mof_H 	H 	0.508	0.3942	0.1083	0.01
Mof_H 	H 	0.5305	0.3572	0.1888	0.089
Mof_H 	H 	0.5462	0.2476	0.1336	0.098
Mof_H 	H 	0.4933	0.1447	0.1124	0
Mof_H 	H 	0.5724	0.1743	0.2932	0.012
Mof_H 	H 	0.6228	0.2777	0.3143	0.094
Mof_H 	H 	0.7156	0.2961	0.2862	0.091
Mof_H 	H 	0.8176	0.3562	0.3536	0.017
Mof_H 	H 	0.782	0.5112	0.3668	0.01
Mof_H 	H 	0.6781	0.4513	0.3038	0.091
Mof_H 	H 	0.6841	0.584	0.9134	0.128
Mof_H 	H 	0.7106	0.5303	0.9013	0.147
Mof_H 	H 	0.6739	0.5442	0.8446	0.126
Mof_H 	H 	0.5589	0.5127	0.8111	0.109
Mof_H 	H 	0.5302	0.4992	0.8602	0.104
Mof_H 	H 	0.5822	0.5652	0.8781	0.113
Mof_H 	H 	0.8463	0.6091	0.4618	0.085
Mof_H 	H 	0.0919	0.6003	0.747	0.094
Mof_H 	H 	0.0338	0.5733	0.6428	0.019
Mof_H 	H 	0.1056	0.752	0.6635	0.011
Mof_H 	H 	0.1636	0.7792	0.767	0.096
Mof_H 	H 	0.255	0.7328	0.7964	0.097
Mof_H 	H 	0.3512	0.8148	0.8456	0.017
Mof_H 	H 	0.3072	0.8723	0.9953	0.015
Mof_H 	H 	0.2112	0.7895	0.9443	0.097
Mof_H 	H 	0.2132	0.6641	0.9081	0.1
Mof_H 	H 	0.1653	0.6015	0.9532	0.022
Mof_H 	H 	0.0044	0.6176	0.8751	0.011
Mof_H 	H 	0.0504	0.6786	0.8284	0.093
Mof_H 	H 	0.1739	0.6929	0.363	0.096
Mof_H 	H 	0.0968	0.6731	0.4017	0.017
Mof_H 	H 	0.1083	0.508	0.3942	0.01
Mof_H 	H 	0.1888	0.5305	0.3572	0.089
Mof_H 	H 	0.1336	0.5462	0.2476	0.098
Mof_H 	H 	0.1124	0.4933	0.1447	0
Mof_H 	H 	0.2932	0.5724	0.1743	0.012
Mof_H 	H 	0.3143	0.6228	0.2777	0.094
Mof_H 	H 	0.2862	0.7156	0.2961	0.091
Mof_H 	H 	0.3536	0.8176	0.3562	0.017
Mof_H 	H 	0.3668	0.782	0.5112	0.01
Mof_H 	H 	0.3038	0.6781	0.4513	0.091
Mof_H 	H 	0.9134	0.6841	0.584	0.128
Mof_H 	H 	0.9013	0.7106	0.5303	0.147
Mof_H 	H 	0.8446	0.6739	0.5442	0.126
Mof_H 	H 	0.8111	0.5589	0.5127	0.109
Mof_H 	H 	0.8602	0.5302	0.4992	0.104
Mof_H 	H 	0.8781	0.5822	0.5652	0.113
Mof_H 	H 	0.4618	0.8463	0.6091	0.085
Mof_H 	H 	0.747	0.0919	0.6003	0.094
Mof_H 	H 	0.6428	0.0338	0.5733	0.019
Mof_H 	H 	0.6635	0.1056	0.752	0.011
Mof_H 	H 	0.767	0.1636	0.7792	0.096
Mof_H 	H 	0.7964	0.255	0.7328	0.097
Mof_H 	H 	0.8456	0.3512	0.8148	0.017
Mof_H 	H 	0.9953	0.3072	0.8723	0.015
Mof_H 	H 	0.9443	0.2112	0.7895	0.097
Mof_H 	H 	0.9081	0.2132	0.6641	0.1
Mof_H 	H 	0.9532	0.1653	0.6015	0.022
Mof_H 	H 	0.8751	0.0044	0.6176	0.011
Mof_H 	H 	0.8284	0.0504	0.6786	0.093
Mof_H 	H 	0.363	0.1739	0.6929	0.096
Mof_H 	H 	0.4017	0.0968	0.6731	0.017
Mof_H 	H 	0.3942	0.1083	0.508	0.01
Mof_H 	H 	0.3572	0.1888	0.5305	0.089
Mof_H 	H 	0.2476	0.1336	0.5462	0.098
Mof_H 	H 	0.1447	0.1124	0.4933	0
Mof_H 	H 	0.1743	0.2932	0.5724	0.012
Mof_H 	H 	0.2777	0.3143	0.6228	0.094
Mof_H 	H 	0.2961	0.2862	0.7156	0.091
Mof_H 	H 	0.3562	0.3536	0.8176	0.017
Mof_H 	H 	0.5112	0.3668	0.782	0.01
Mof_H 	H 	0.4513	0.3038	0.6781	0.091
Mof_H 	H 	0.584	0.9134	0.6841	0.128
Mof_H 	H 	0.5303	0.9013	0.7106	0.147
Mof_H 	H 	0.5442	0.8446	0.6739	0.126
Mof_H 	H 	0.5127	0.8111	0.5589	0.109
Mof_H 	H 	0.4992	0.8602	0.5302	0.104
Mof_H 	H 	0.5652	0.8781	0.5822	0.113
Mof_C 	C 	0.30742	0.23274	0.86848	0.158
Mof_C 	C 	0.36855	0.27004	0.90589	-0.173
Mof_C 	C 	0.38475	0.33216	0.94016	0.082
Mof_C 	C 	0.33946	0.35765	0.93638	-0.154
Mof_C 	C 	0.27893	0.31965	0.89751	0.09
Mof_C 	C 	0.26235	0.25792	0.86323	-0.186
Mof_C 	C 	0.24435	0.13602	0.77681	0.164
Mof_C 	C 	0.23815	0.16354	0.73464	-0.186
Mof_C 	C 	0.19021	0.13394	0.67676	0.086
Mof_C 	C 	0.15	0.07389	0.66062	-0.151
Mof_C 	C 	0.15628	0.04506	0.70297	0.083
Mof_C 	C 	0.20462	0.07601	0.76051	-0.182
Mof_C 	C 	0.32584	0.13835	0.86333	0.168
Mof_C 	C 	0.34631	0.10013	0.8296	-0.195
Mof_C 	C 	0.383	0.07253	0.85807	0.101
Mof_C 	C 	0.3966	0.08238	0.91928	-0.171
Mof_C 	C 	0.37347	0.11909	0.95334	0.101
Mof_C 	C 	0.33772	0.14709	0.9265	-0.187
Mof_C 	C 	0.35593	0.42257	0.97598	0.363
Mof_C 	C 	0.09549	0.04305	0.6005	0.377
Mof_C 	C 	0.43594	0.05365	0.95022	0.423
Mof_C 	C 	0.38642	0.64256	0.8107	0.154
Mof_C 	C 	0.34422	0.63002	0.83883	-0.176
Mof_C 	C 	0.35633	0.60761	0.88492	0.087
Mof_C 	C 	0.4111	0.59842	0.90507	-0.143
Mof_C 	C 	0.45417	0.61163	0.87828	0.079
Mof_C 	C 	0.44072	0.63385	0.83015	-0.177
Mof_C 	C 	0.40717	0.72701	0.77414	0.162
Mof_C 	C 	0.44786	0.7674	0.83394	-0.183
Mof_C 	C 	0.47949	0.8286	0.84662	0.097
Mof_C 	C 	0.47176	0.85142	0.8	-0.163
Mof_C 	C 	0.43284	0.81079	0.73945	0.094
Mof_C 	C 	0.40224	0.74973	0.72713	-0.187
Mof_C 	C 	0.3124	0.63252	0.71545	0.152
Mof_C 	C 	0.271	0.6601	0.6981	-0.179
Mof_C 	C 	0.2101	0.62431	0.6579	0.086
Mof_C 	C 	0.18955	0.56035	0.63453	-0.152
Mof_C 	C 	0.23149	0.53252	0.64955	0.081
Mof_C 	C 	0.29317	0.56798	0.68828	-0.17
Mof_C 	C 	0.4232	0.57167	0.95446	0.393
Mof_C 	C 	0.50271	0.91979	0.81489	0.378
Mof_C 	C 	0.12408	0.51944	0.59289	0.389
Mof_C 	C 	0.3233	0.45714	0.11489	-0.32
Mof_C 	C 	0.43204	0.4794	0.14496	-0.281
Mof_C 	C 	0.86848	0.30742	0.23274	0.158
Mof_C 	C 	0.90589	0.36855	0.27004	-0.173
Mof_C 	C 	0.94016	0.38475	0.33216	0.082
Mof_C 	C 	0.93638	0.33946	0.35765	-0.154
Mof_C 	C 	0.89751	0.27893	0.31965	0.09
Mof_C 	C 	0.86323	0.26235	0.25792	-0.186
Mof_C 	C 	0.77681	0.24435	0.13602	0.164
Mof_C 	C 	0.73464	0.23815	0.16354	-0.186
Mof_C 	C 	0.67676	0.19021	0.13394	0.086
Mof_C 	C 	0.66062	0.15	0.07389	-0.151
Mof_C 	C 	0.70297	0.15628	0.04506	0.083
Mof_C 	C 	0.76051	0.20462	0.07601	-0.182
Mof_C 	C 	0.86333	0.32584	0.13835	0.168
Mof_C 	C 	0.8296	0.34631	0.10013	-0.195
Mof_C 	C 	0.85807	0.383	0.07253	0.101
Mof_C 	C 	0.91928	0.3966	0.08238	-0.171
Mof_C 	C 	0.95334	0.37347	0.11909	0.101
Mof_C 	C 	0.9265	0.33772	0.14709	-0.187
Mof_C 	C 	0.97598	0.35593	0.42257	0.363
Mof_C 	C 	0.6005	0.09549	0.04305	0.377
Mof_C 	C 	0.95022	0.43594	0.05365	0.423
Mof_C 	C 	0.8107	0.38642	0.64256	0.154
Mof_C 	C 	0.83883	0.34422	0.63002	-0.176
Mof_C 	C 	0.88492	0.35633	0.60761	0.087
Mof_C 	C 	0.90507	0.4111	0.59842	-0.143
Mof_C 	C 	0.87828	0.45417	0.61163	0.079
Mof_C 	C 	0.83015	0.44072	0.63385	-0.177
Mof_C 	C 	0.77414	0.40717	0.72701	0.162
Mof_C 	C 	0.83394	0.44786	0.7674	-0.183
Mof_C 	C 	0.84662	0.47949	0.8286	0.097
Mof_C 	C 	0.8	0.47176	0.85142	-0.163
Mof_C 	C 	0.73945	0.43284	0.81079	0.094
Mof_C 	C 	0.72713	0.40224	0.74973	-0.187
Mof_C 	C 	0.71545	0.3124	0.63252	0.152
Mof_C 	C 	0.6981	0.271	0.6601	-0.179
Mof_C 	C 	0.6579	0.2101	0.62431	0.086
Mof_C 	C 	0.63453	0.18955	0.56035	-0.152
Mof_C 	C 	0.64955	0.23149	0.53252	0.081
Mof_C 	C 	0.68828	0.29317	0.56798	-0.17
Mof_C 	C 	0.95446	0.4232	0.57167	0.393
Mof_C 	C 	0.81489	0.50271	0.91979	0.378
Mof_C 	C 	0.59289	0.12408	0.51944	0.389
Mof_C 	C 	0.11489	0.3233	0.45714	-0.32
Mof_C 	C 	0.14496	0.43204	0.4794	-0.281
Mof_C 	C 	0.23274	0.86848	0.30742	0.158
Mof_C 	C 	0.27004	0.90589	0.36855	-0.173
Mof_C 	C 	0.33216	0.94016	0.38475	0.082
Mof_C 	C 	0.35765	0.93638	0.33946	-0.154
Mof_C 	C 	0.31965	0.89751	0.27893	0.09
Mof_C 	C 	0.25792	0.86323	0.26235	-0.186
Mof_C 	C 	0.13602	0.77681	0.24435	0.164
Mof_C 	C 	0.16354	0.73464	0.23815	-0.186
Mof_C 	C 	0.13394	0.67676	0.19021	0.086
Mof_C 	C 	0.07389	0.66062	0.15	-0.151
Mof_C 	C 	0.04506	0.70297	0.15628	0.083
Mof_C 	C 	0.07601	0.76051	0.20462	-0.182
Mof_C 	C 	0.13835	0.86333	0.32584	0.168
Mof_C 	C 	0.10013	0.8296	0.34631	-0.195
Mof_C 	C 	0.07253	0.85807	0.383	0.101
Mof_C 	C 	0.08238	0.91928	0.3966	-0.171
Mof_C 	C 	0.11909	0.95334	0.37347	0.101
Mof_C 	C 	0.14709	0.9265	0.33772	-0.187
Mof_C 	C 	0.42257	0.97598	0.35593	0.363
Mof_C 	C 	0.04305	0.6005	0.09549	0.377
Mof_C 	C 	0.05365	0.95022	0.43594	0.423
Mof_C 	C 	0.64256	0.8107	0.38642	0.154
Mof_C 	C 	0.63002	0.83883	0.34422	-0.176
Mof_C 	C 	0.60761	0.88492	0.35633	0.087
Mof_C 	C 	0.59842	0.90507	0.4111	-0.143
Mof_C 	C 	0.61163	0.87828	0.45417	0.079
Mof_C 	C 	0.63385	0.83015	0.44072	-0.177
Mof_C 	C 	0.72701	0.77414	0.40717	0.162
Mof_C 	C 	0.7674	0.83394	0.44786	-0.183
Mof_C 	C 	0.8286	0.84662	0.47949	0.097
Mof_C 	C 	0.85142	0.8	0.47176	-0.163
Mof_C 	C 	0.81079	0.73945	0.43284	0.094
Mof_C 	C 	0.74973	0.72713	0.40224	-0.187
Mof_C 	C 	0.63252	0.71545	0.3124	0.152
Mof_C 	C 	0.6601	0.6981	0.271	-0.179
Mof_C 	C 	0.62431	0.6579	0.2101	0.086
Mof_C 	C 	0.56035	0.63453	0.18955	-0.152
Mof_C 	C 	0.53252	0.64955	0.23149	0.081
Mof_C 	C 	0.56798	0.68828	0.29317	-0.17
Mof_C 	C 	0.57167	0.95446	0.4232	0.393
Mof_C 	C 	0.91979	0.81489	0.50271	0.378
Mof_C 	C 	0.51944	0.59289	0.12408	0.389
Mof_C 	C 	0.45714	0.11489	0.3233	-0.32
Mof_C 	C 	0.4794	0.14496	0.43204	-0.281
Mof_C 	C 	0.69258	0.76726	0.13152	0.155
Mof_C 	C 	0.63145	0.72996	0.09411	-0.171
Mof_C 	C 	0.61525	0.66784	0.05984	0.074
Mof_C 	C 	0.66054	0.64235	0.06362	-0.145
Mof_C 	C 	0.72107	0.68035	0.10249	0.083
Mof_C 	C 	0.73765	0.74208	0.13677	-0.182
Mof_C 	C 	0.75565	0.86398	0.22319	0.168
Mof_C 	C 	0.76185	0.83646	0.26536	-0.189
Mof_C 	C 	0.80979	0.86606	0.32324	0.094
Mof_C 	C 	0.85	0.92611	0.33938	-0.157
Mof_C 	C 	0.84372	0.95494	0.29703	0.093
Mof_C 	C 	0.79538	0.92399	0.23949	-0.183
Mof_C 	C 	0.67416	0.86165	0.13667	0.163
Mof_C 	C 	0.65369	0.89987	0.1704	-0.187
Mof_C 	C 	0.617	0.92747	0.14193	0.091
Mof_C 	C 	0.6034	0.91762	0.08072	-0.155
Mof_C 	C 	0.62653	0.88091	0.04666	0.089
Mof_C 	C 	0.66228	0.85291	0.0735	-0.18
Mof_C 	C 	0.64407	0.57743	0.02402	0.328
Mof_C 	C 	0.90451	0.95695	0.3995	0.413
Mof_C 	C 	0.56406	0.94635	0.04978	0.383
Mof_C 	C 	0.61358	0.35744	0.1893	0.154
Mof_C 	C 	0.65578	0.36998	0.16117	-0.178
Mof_C 	C 	0.64367	0.39239	0.11508	0.089
Mof_C 	C 	0.5889	0.40158	0.09493	-0.148
Mof_C 	C 	0.54583	0.38837	0.12172	0.08
Mof_C 	C 	0.55928	0.36615	0.16985	-0.179
Mof_C 	C 	0.59283	0.27299	0.22586	0.162
Mof_C 	C 	0.55214	0.2326	0.16606	-0.185
Mof_C 	C 	0.52051	0.1714	0.15338	0.097
Mof_C 	C 	0.52824	0.14858	0.2	-0.167
Mof_C 	C 	0.56716	0.18921	0.26055	0.094
Mof_C 	C 	0.59776	0.25027	0.27287	-0.188
Mof_C 	C 	0.6876	0.36748	0.28455	0.152
Mof_C 	C 	0.729	0.3399	0.3019	-0.179
Mof_C 	C 	0.7899	0.37569	0.3421	0.086
Mof_C 	C 	0.81045	0.43965	0.36547	-0.151
Mof_C 	C 	0.76851	0.46748	0.35045	0.08
Mof_C 	C 	0.70683	0.43202	0.31172	-0.17
Mof_C 	C 	0.5768	0.42833	0.04554	0.395
Mof_C 	C 	0.49729	0.08021	0.18511	0.379
Mof_C 	C 	0.87592	0.48056	0.40711	0.388
Mof_C 	C 	0.6767	0.54286	0.88511	-0.33
Mof_C 	C 	0.56796	0.5206	0.85504	-0.285
Mof_C 	C 	0.13152	0.69258	0.76726	0.155
Mof_C 	C 	0.09411	0.63145	0.72996	-0.171
Mof_C 	C 	0.05984	0.61525	0.66784	0.074
Mof_C 	C 	0.06362	0.66054	0.64235	-0.145
Mof_C 	C 	0.10249	0.72107	0.68035	0.083
Mof_C 	C 	0.13677	0.73765	0.74208	-0.182
Mof_C 	C 	0.22319	0.75565	0.86398	0.168
Mof_C 	C 	0.26536	0.76185	0.83646	-0.189
Mof_C 	C 	0.32324	0.80979	0.86606	0.094
Mof_C 	C 	0.33938	0.85	0.92611	-0.157
Mof_C 	C 	0.29703	0.84372	0.95494	0.093
Mof_C 	C 	0.23949	0.79538	0.92399	-0.183
Mof_C 	C 	0.13667	0.67416	0.86165	0.163
Mof_C 	C 	0.1704	0.65369	0.89987	-0.187
Mof_C 	C 	0.14193	0.617	0.92747	0.091
Mof_C 	C 	0.08072	0.6034	0.91762	-0.155
Mof_C 	C 	0.04666	0.62653	0.88091	0.089
Mof_C 	C 	0.0735	0.66228	0.85291	-0.18
Mof_C 	C 	0.02402	0.64407	0.57743	0.328
Mof_C 	C 	0.3995	0.90451	0.95695	0.413
Mof_C 	C 	0.04978	0.56406	0.94635	0.383
Mof_C 	C 	0.1893	0.61358	0.35744	0.154
Mof_C 	C 	0.16117	0.65578	0.36998	-0.178
Mof_C 	C 	0.11508	0.64367	0.39239	0.089
Mof_C 	C 	0.09493	0.5889	0.40158	-0.148
Mof_C 	C 	0.12172	0.54583	0.38837	0.08
Mof_C 	C 	0.16985	0.55928	0.36615	-0.179
Mof_C 	C 	0.22586	0.59283	0.27299	0.162
Mof_C 	C 	0.16606	0.55214	0.2326	-0.185
Mof_C 	C 	0.15338	0.52051	0.1714	0.097
Mof_C 	C 	0.2	0.52824	0.14858	-0.167
Mof_C 	C 	0.26055	0.56716	0.18921	0.094
Mof_C 	C 	0.27287	0.59776	0.25027	-0.188
Mof_C 	C 	0.28455	0.6876	0.36748	0.152
Mof_C 	C 	0.3019	0.729	0.3399	-0.179
Mof_C 	C 	0.3421	0.7899	0.37569	0.086
Mof_C 	C 	0.36547	0.81045	0.43965	-0.151
Mof_C 	C 	0.35045	0.76851	0.46748	0.08
Mof_C 	C 	0.31172	0.70683	0.43202	-0.17
Mof_C 	C 	0.04554	0.5768	0.42833	0.395
Mof_C 	C 	0.18511	0.49729	0.08021	0.379
Mof_C 	C 	0.40711	0.87592	0.48056	0.388
Mof_C 	C 	0.88511	0.6767	0.54286	-0.33
Mof_C 	C 	0.85504	0.56796	0.5206	-0.285
Mof_C 	C 	0.76726	0.13152	0.69258	0.155
Mof_C 	C 	0.72996	0.09411	0.63145	-0.171
Mof_C 	C 	0.66784	0.05984	0.61525	0.074
Mof_C 	C 	0.64235	0.06362	0.66054	-0.145
Mof_C 	C 	0.68035	0.10249	0.72107	0.083
Mof_C 	C 	0.74208	0.13677	0.73765	-0.182
Mof_C 	C 	0.86398	0.22319	0.75565	0.168
Mof_C 	C 	0.83646	0.26536	0.76185	-0.189
Mof_C 	C 	0.86606	0.32324	0.80979	0.094
Mof_C 	C 	0.92611	0.33938	0.85	-0.157
Mof_C 	C 	0.95494	0.29703	0.84372	0.093
Mof_C 	C 	0.92399	0.23949	0.79538	-0.183
Mof_C 	C 	0.86165	0.13667	0.67416	0.163
Mof_C 	C 	0.89987	0.1704	0.65369	-0.187
Mof_C 	C 	0.92747	0.14193	0.617	0.091
Mof_C 	C 	0.91762	0.08072	0.6034	-0.155
Mof_C 	C 	0.88091	0.04666	0.62653	0.089
Mof_C 	C 	0.85291	0.0735	0.66228	-0.18
Mof_C 	C 	0.57743	0.02402	0.64407	0.328
Mof_C 	C 	0.95695	0.3995	0.90451	0.413
Mof_C 	C 	0.94635	0.04978	0.56406	0.383
Mof_C 	C 	0.35744	0.1893	0.61358	0.154
Mof_C 	C 	0.36998	0.16117	0.65578	-0.178
Mof_C 	C 	0.39239	0.11508	0.64367	0.089
Mof_C 	C 	0.40158	0.09493	0.5889	-0.148
Mof_C 	C 	0.38837	0.12172	0.54583	0.08
Mof_C 	C 	0.36615	0.16985	0.55928	-0.179
Mof_C 	C 	0.27299	0.22586	0.59283	0.162
Mof_C 	C 	0.2326	0.16606	0.55214	-0.185
Mof_C 	C 	0.1714	0.15338	0.52051	0.097
Mof_C 	C 	0.14858	0.2	0.52824	-0.167
Mof_C 	C 	0.18921	0.26055	0.56716	0.094
Mof_C 	C 	0.25027	0.27287	0.59776	-0.188
Mof_C 	C 	0.36748	0.28455	0.6876	0.152
Mof_C 	C 	0.3399	0.3019	0.729	-0.179
Mof_C 	C 	0.37569	0.3421	0.7899	0.086
Mof_C 	C 	0.43965	0.36547	0.81045	-0.151
Mof_C 	C 	0.46748	0.35045	0.76851	0.08
Mof_C 	C 	0.43202	0.31172	0.70683	-0.17
Mof_C 	C 	0.42833	0.04554	0.5768	0.395
Mof_C 	C 	0.08021	0.18511	0.49729	0.379
Mof_C 	C 	0.48056	0.40711	0.87592	0.388
Mof_C 	C 	0.54286	0.88511	0.6767	-0.33
Mof_C 	C 	0.5206	0.85504	0.56796	-0.285
Mof_N 	N 	0.38282	0.50266	0.12115	-0.187
Mof_N 	N 	0.2913	0.16833	0.83642	-0.188
Mof_N 	N 	0.37256	0.66523	0.7616	-0.184
Mof_N 	N 	0.12115	0.38282	0.50266	-0.187
Mof_N 	N 	0.83642	0.2913	0.16833	-0.188
Mof_N 	N 	0.7616	0.37256	0.66523	-0.184
Mof_N 	N 	0.50266	0.12115	0.38282	-0.187
Mof_N 	N 	0.16833	0.83642	0.2913	-0.188
Mof_N 	N 	0.66523	0.7616	0.37256	-0.184
Mof_N 	N 	0.61718	0.49734	0.87885	-0.183
Mof_N 	N 	0.7087	0.83167	0.16358	-0.187
Mof_N 	N 	0.62744	0.33477	0.2384	-0.184
Mof_N 	N 	0.87885	0.61718	0.49734	-0.183
Mof_N 	N 	0.16358	0.7087	0.83167	-0.187
Mof_N 	N 	0.2384	0.62744	0.33477	-0.184
Mof_N 	N 	0.49734	0.87885	0.61718	-0.183
Mof_N 	N 	0.83167	0.16358	0.7087	-0.187
Mof_N 	N 	0.33477	0.2384	0.62744	-0.184
Mof_O 	O 	0.41228	0.45862	0.007	-0.513
Mof_O 	O 	0.31341	0.44246	0.97929	-0.379
Mof_O 	O 	0.08902	0.07387	0.56709	-0.449
Mof_O 	O 	0.05992	0.98972	0.58842	-0.432
Mof_O 	O 	0.46074	0.0261	0.91775	-0.453
Mof_O 	O 	0.44138	0.05782	0.00292	-0.477
Mof_O 	O 	0.47309	0.56258	0.96889	-0.418
Mof_O 	O 	0.38285	0.56099	0.97651	-0.415
Mof_O 	O 	0.5331	0.95536	0.86995	-0.417
Mof_O 	O 	0.49758	0.93776	0.77163	-0.286
Mof_O 	O 	0.09276	0.54027	0.56048	-0.421
Mof_O 	O 	0.10656	0.46668	0.59516	-0.446
Mof_O 	O 	0.3354	0.58451	0.07331	-0.272
Mof_O 	O 	0.007	0.41228	0.45862	-0.513
Mof_O 	O 	0.97929	0.31341	0.44246	-0.379
Mof_O 	O 	0.56709	0.08902	0.07387	-0.449
Mof_O 	O 	0.58842	0.05992	0.98972	-0.432
Mof_O 	O 	0.91775	0.46074	0.0261	-0.453
Mof_O 	O 	0.00292	0.44138	0.05782	-0.477
Mof_O 	O 	0.96889	0.47309	0.56258	-0.418
Mof_O 	O 	0.97651	0.38285	0.56099	-0.415
Mof_O 	O 	0.86995	0.5331	0.95536	-0.417
Mof_O 	O 	0.77163	0.49758	0.93776	-0.286
Mof_O 	O 	0.56048	0.09276	0.54027	-0.421
Mof_O 	O 	0.59516	0.10656	0.46668	-0.446
Mof_O 	O 	0.07331	0.3354	0.58451	-0.272
Mof_O 	O 	0.45862	0.007	0.41228	-0.513
Mof_O 	O 	0.44246	0.97929	0.31341	-0.379
Mof_O 	O 	0.07387	0.56709	0.08902	-0.449
Mof_O 	O 	0.98972	0.58842	0.05992	-0.432
Mof_O 	O 	0.0261	0.91775	0.46074	-0.453
Mof_O 	O 	0.05782	0.00292	0.44138	-0.477
Mof_O 	O 	0.56258	0.96889	0.47309	-0.418
Mof_O 	O 	0.56099	0.97651	0.38285	-0.415
Mof_O 	O 	0.95536	0.86995	0.5331	-0.417
Mof_O 	O 	0.93776	0.77163	0.49758	-0.286
Mof_O 	O 	0.54027	0.56048	0.09276	-0.421
Mof_O 	O 	0.46668	0.59516	0.10656	-0.446
Mof_O 	O 	0.58451	0.07331	0.3354	-0.272
Mof_O 	O 	0.58772	0.54138	0.993	-0.481
Mof_O 	O 	0.68659	0.55754	0.02071	-0.382
Mof_O 	O 	0.91098	0.92613	0.43291	-0.448
Mof_O 	O 	0.94008	0.01028	0.41158	-0.453
Mof_O 	O 	0.53926	0.9739	0.08225	-0.434
Mof_O 	O 	0.55862	0.94218	0.99708	-0.437
Mof_O 	O 	0.52691	0.43742	0.03111	-0.43
Mof_O 	O 	0.61715	0.43901	0.02349	-0.428
Mof_O 	O 	0.4669	0.04464	0.13005	-0.431
Mof_O 	O 	0.50242	0.06224	0.22837	-0.298
Mof_O 	O 	0.90724	0.45973	0.43952	-0.416
Mof_O 	O 	0.89344	0.53332	0.40484	-0.441
Mof_O 	O 	0.6646	0.41549	0.92669	-0.262
Mof_O 	O 	0.993	0.58772	0.54138	-0.481
Mof_O 	O 	0.02071	0.68659	0.55754	-0.382
Mof_O 	O 	0.43291	0.91098	0.92613	-0.448
Mof_O 	O 	0.41158	0.94008	0.01028	-0.453
Mof_O 	O 	0.08225	0.53926	0.9739	-0.434
Mof_O 	O 	0.99708	0.55862	0.94218	-0.437
Mof_O 	O 	0.03111	0.52691	0.43742	-0.43
Mof_O 	O 	0.02349	0.61715	0.43901	-0.428
Mof_O 	O 	0.13005	0.4669	0.04464	-0.431
Mof_O 	O 	0.22837	0.50242	0.06224	-0.298
Mof_O 	O 	0.43952	0.90724	0.45973	-0.416
Mof_O 	O 	0.40484	0.89344	0.53332	-0.441
Mof_O 	O 	0.92669	0.6646	0.41549	-0.262
Mof_O 	O 	0.54138	0.993	0.58772	-0.481
Mof_O 	O 	0.55754	0.02071	0.68659	-0.382
Mof_O 	O 	0.92613	0.43291	0.91098	-0.448
Mof_O 	O 	0.01028	0.41158	0.94008	-0.453
Mof_O 	O 	0.9739	0.08225	0.53926	-0.434
Mof_O 	O 	0.94218	0.99708	0.55862	-0.437
Mof_O 	O 	0.43742	0.03111	0.52691	-0.43
Mof_O 	O 	0.43901	0.02349	0.61715	-0.428
Mof_O 	O 	0.04464	0.13005	0.4669	-0.431
Mof_O 	O 	0.06224	0.22837	0.50242	-0.298
Mof_O 	O 	0.45973	0.43952	0.90724	-0.416
Mof_O 	O 	0.53332	0.40484	0.89344	-0.441
Mof_O 	O 	0.41549	0.92669	0.6646	-0.262
Mof_H 	H 	0.8039	0.5374	0.0235	0.14
Mof_H 	H 	0.7881	0.5676	0.076	0.12
Mof_H 	H 	0.8712	0.6293	0.032	0.124
Mof_H 	H 	0.8102	0.6411	0.0347	0.11
Mof_H 	H 	0.8687	0.6636	0.0971	0.109
Mof_H 	H 	0.8992	0.6027	0.1383	0.118
Mof_H 	H 	0.8552	0.5341	0.1246	0.115
Mof_H 	H 	0.8953	0.5456	0.0835	0.128
Mof_C 	C 	0.84465	0.63144	0.05581	-0.264
Mof_C 	C 	0.87186	0.56226	0.10585	-0.272
Mof_N 	N 	0.81937	0.56907	0.06147	-0.171
Mof_H 	H 	0.0235	0.8039	0.5374	0.14
Mof_H 	H 	0.076	0.7881	0.5676	0.12
Mof_H 	H 	0.032	0.8712	0.6293	0.124
Mof_H 	H 	0.0347	0.8102	0.6411	0.11
Mof_H 	H 	0.0971	0.8687	0.6636	0.109
Mof_H 	H 	0.1383	0.8992	0.6027	0.118
Mof_H 	H 	0.1246	0.8552	0.5341	0.115
Mof_H 	H 	0.0835	0.8953	0.5456	0.128
Mof_C 	C 	0.05581	0.84465	0.63144	-0.264
Mof_C 	C 	0.10585	0.87186	0.56226	-0.272
Mof_N 	N 	0.06147	0.81937	0.56907	-0.171
Mof_H 	H 	0.5374	0.0235	0.8039	0.14
Mof_H 	H 	0.5676	0.076	0.7881	0.12
Mof_H 	H 	0.6293	0.032	0.8712	0.124
Mof_H 	H 	0.6411	0.0347	0.8102	0.11
Mof_H 	H 	0.6636	0.0971	0.8687	0.109
Mof_H 	H 	0.6027	0.1383	0.8992	0.118
Mof_H 	H 	0.5341	0.1246	0.8552	0.115
Mof_H 	H 	0.5456	0.0835	0.8953	0.128
Mof_C 	C 	0.63144	0.05581	0.84465	-0.264
Mof_C 	C 	0.56226	0.10585	0.87186	-0.272
Mof_N 	N 	0.56907	0.06147	0.81937	-0.171
Mof_H 	H 	0.1961	0.4626	0.9765	0.15
Mof_H 	H 	0.2119	0.4324	0.924	0.122
Mof_H 	H 	0.1288	0.3707	0.968	0.127
Mof_H 	H 	0.1898	0.3589	0.9653	0.114
Mof_H 	H 	0.1313	0.3364	0.9029	0.105
Mof_H 	H 	0.1008	0.3973	0.8617	0.111
Mof_H 	H 	0.1448	0.4659	0.8754	0.111
Mof_H 	H 	0.1047	0.4544	0.9165	0.125
Mof_C 	C 	0.15535	0.36856	0.94419	-0.262
Mof_C 	C 	0.12814	0.43774	0.89415	-0.263
Mof_N 	N 	0.18063	0.43093	0.93853	-0.174
Mof_H 	H 	0.9765	0.1961	0.4626	0.15
Mof_H 	H 	0.924	0.2119	0.4324	0.122
Mof_H 	H 	0.968	0.1288	0.3707	0.127
Mof_H 	H 	0.9653	0.1898	0.3589	0.114
Mof_H 	H 	0.9029	0.1313	0.3364	0.105
Mof_H 	H 	0.8617	0.1008	0.3973	0.111
Mof_H 	H 	0.8754	0.1448	0.4659	0.111
Mof_H 	H 	0.9165	0.1047	0.4544	0.125
Mof_C 	C 	0.94419	0.15535	0.36856	-0.262
Mof_C 	C 	0.89415	0.12814	0.43774	-0.263
Mof_N 	N 	0.93853	0.18063	0.43093	-0.174
Mof_H 	H 	0.4626	0.9765	0.1961	0.15
Mof_H 	H 	0.4324	0.924	0.2119	0.122
Mof_H 	H 	0.3707	0.968	0.1288	0.127
Mof_H 	H 	0.3589	0.9653	0.1898	0.114
Mof_H 	H 	0.3364	0.9029	0.1313	0.105
Mof_H 	H 	0.3973	0.8617	0.1008	0.111
Mof_H 	H 	0.4659	0.8754	0.1448	0.111
Mof_H 	H 	0.4544	0.9165	0.1047	0.125
Mof_C 	C 	0.36856	0.94419	0.15535	-0.262
Mof_C 	C 	0.43774	0.89415	0.12814	-0.263
Mof_N 	N 	0.43093	0.93853	0.18063	-0.174
_end
