data_functionalizedCrystal
_audit_creation_method	'EQeq! by Chris Wilmer'
_symmetry_space_group_name_H-M	'P1'
_symmetry_Int_Tables_number	1
_symmetry_cell_setting	triclinic
loop_
_symmetry_equiv_pos_as_xyz
  x,y,z
_cell_length_a	30.76
_cell_length_b	30.76
_cell_length_c	16.103
_cell_angle_alpha	90
_cell_angle_beta	90
_cell_angle_gamma	90
loop_
_atom_site_label
_atom_site_type_symbol
_atom_site_fract_x
_atom_site_fract_y
_atom_site_fract_z
_atom_site_charge
Mof_C 	C 	0.1037	0.6821	0.8185	0.315
Mof_C 	C 	0.1395	0.6514	0.7935	-0.084
Mof_C 	C 	0.1266	0.6157	0.7489	-0.035
Mof_H 	H 	0.0973	0.6127	0.7355	0.052
Mof_C 	C 	0.1557	0.5837	0.723	0.01
Mof_H 	H 	0.1457	0.5602	0.6922	0.028
Mof_C 	C 	0.1991	0.5868	0.7427	-0.127
Mof_C 	C 	0.2284	0.5521	0.7091	0.394
Mof_C 	C 	0.214	0.6215	0.7926	0.044
Mof_C 	C 	0.2582	0.6245	0.8125	-0.085
Mof_H 	H 	0.2778	0.6036	0.7943	0.046
Mof_C 	C 	0.2718	0.6592	0.8599	-0.04
Mof_H 	H 	0.3012	0.6616	0.8726	0.033
Mof_C 	C 	0.2434	0.6911	0.8896	-0.031
Mof_H 	H 	0.2532	0.713	0.9248	0.025
Mof_C 	C 	0.1998	0.6892	0.865	-0.092
Mof_H 	H 	0.1808	0.711	0.8822	0.073
Mof_C 	C 	0.184	0.6552	0.8151	0.034
Mof_C 	C 	0.9202	0.6704	0.5447	0.39
Mof_C 	C 	0.894	0.6336	0.5135	-0.107
Mof_C 	C 	0.8502	0.6348	0.5342	-0.028
Mof_H 	H 	0.8394	0.6581	0.5647	0.05
Mof_C 	C 	0.822	0.6015	0.5099	0.029
Mof_H 	H 	0.7926	0.6036	0.5228	0.009
Mof_C 	C 	0.8369	0.5657	0.4674	-0.135
Mof_C 	C 	0.8048	0.5301	0.4502	0.405
Mof_C 	C 	0.8815	0.5637	0.4408	0.067
Mof_C 	C 	0.8992	0.5298	0.3897	-0.107
Mof_H 	H 	0.8807	0.5083	0.3698	0.09
Mof_C 	C 	0.9419	0.5279	0.3695	-0.003
Mof_H 	H 	0.9522	0.5048	0.3377	0.031
Mof_C 	C 	0.9711	0.5606	0.3965	-0.052
Mof_H 	H 	0.0003	0.5593	0.3821	0.049
Mof_C 	C 	0.9557	0.5946	0.4443	-0.057
Mof_H 	H 	0.975	0.6157	0.4629	0.053
Mof_C 	C 	0.9108	0.5978	0.466	0.027
Mof_C 	C 	0.956	0.6701	0.8179	0.42
Mof_C 	C 	0.9199	0.6396	0.7948	-0.123
Mof_C 	C 	0.8789	0.6477	0.8259	-0.018
Mof_H 	H 	0.8742	0.6711	0.8612	0.023
Mof_C 	C 	0.8441	0.6199	0.8035	0.002
Mof_H 	H 	0.8166	0.6251	0.8254	0.014
Mof_C 	C 	0.8496	0.5855	0.7506	-0.136
Mof_C 	C 	0.8089	0.562	0.7241	0.419
Mof_C 	C 	0.8923	0.5753	0.7171	0.069
Mof_C 	C 	0.9016	0.5406	0.6642	-0.113
Mof_H 	H 	0.8794	0.5221	0.647	0.089
Mof_C 	C 	0.9426	0.5338	0.6381	0.007
Mof_H 	H 	0.9479	0.5097	0.6045	0.025
Mof_C 	C 	0.9778	0.5606	0.6583	-0.062
Mof_H 	H 	0.0055	0.5552	0.6379	0.045
Mof_C 	C 	0.9695	0.5949	0.7091	-0.059
Mof_H 	H 	0.9923	0.6131	0.7241	0.037
Mof_C 	C 	0.9272	0.6038	0.74	0.025
Mof_O 	O 	0.06545	0.67425	0.7924	-0.453
Mof_O 	O 	0.11028	0.71501	0.8642	-0.429
Mof_O 	O 	0.24959	0.52734	0.7572	-0.568
Mof_O 	O 	0.23097	0.5473	0.6304	-0.452
Mof_O 	O 	0.95401	0.6838	0.5043	-0.591
Mof_O 	O 	0.90926	0.68908	0.6095	-0.466
Mof_O 	O 	0.76866	0.53022	0.4885	-0.604
Mof_O 	O 	0.81205	0.50217	0.3954	-0.475
Mof_O 	O 	0.97253	0.69511	0.766	-0.603
Mof_O 	O 	0.96812	0.67008	0.8926	-0.46
Mof_O 	O 	0.80939	0.5405	0.658	-0.478
Mof_O 	O 	0.77533	0.5647	0.7669	-0.566
Mof_La	La	0.02717	0.73013	0.8794	2.099
Mof_La	La	0.97572	0.7359	0.62923	1.96
Mof_C 	C 	0.6037	0.1821	0.3185	0.315
Mof_C 	C 	0.6395	0.1514	0.2935	-0.081
Mof_C 	C 	0.6266	0.1157	0.2489	-0.035
Mof_H 	H 	0.5973	0.1127	0.2355	0.053
Mof_C 	C 	0.6557	0.0837	0.223	0.01
Mof_H 	H 	0.6457	0.0602	0.1922	0.03
Mof_C 	C 	0.6991	0.0868	0.2427	-0.125
Mof_C 	C 	0.7284	0.0521	0.2091	0.394
Mof_C 	C 	0.714	0.1215	0.2926	0.046
Mof_C 	C 	0.7582	0.1245	0.3125	-0.082
Mof_H 	H 	0.7778	0.1036	0.2943	0.047
Mof_C 	C 	0.7718	0.1592	0.3599	-0.034
Mof_H 	H 	0.8012	0.1616	0.3726	0.04
Mof_C 	C 	0.7434	0.1911	0.3896	-0.027
Mof_H 	H 	0.7532	0.213	0.4248	0.039
Mof_C 	C 	0.6998	0.1892	0.365	-0.086
Mof_H 	H 	0.6808	0.211	0.3822	0.08
Mof_C 	C 	0.684	0.1552	0.3151	0.037
Mof_C 	C 	0.4202	0.1704	0.0447	0.349
Mof_C 	C 	0.394	0.1336	0.0135	0.024
Mof_C 	C 	0.3502	0.1348	0.0342	-0.142
Mof_H 	H 	0.3394	0.1581	0.0647	0.096
Mof_C 	C 	0.322	0.1015	0.0099	0.198
Mof_H 	H 	0.2926	0.1036	0.0228	-0.033
Mof_C 	C 	0.3369	0.0657	0.9674	-0.268
Mof_C 	C 	0.3048	0.0301	0.9502	0.445
Mof_C 	C 	0.3815	0.0637	0.9408	0.15
Mof_C 	C 	0.3992	0.0298	0.8897	-0.185
Mof_H 	H 	0.3807	0.0083	0.8698	0.115
Mof_C 	C 	0.4419	0.0279	0.8695	0.063
Mof_H 	H 	0.4522	0.0048	0.8377	0.005
Mof_C 	C 	0.4711	0.0606	0.8965	-0.129
Mof_H 	H 	0.5003	0.0593	0.8821	0.071
Mof_C 	C 	0.4557	0.0946	0.9443	0.024
Mof_H 	H 	0.475	0.1157	0.9629	0.007
Mof_C 	C 	0.4108	0.0978	0.966	-0.104
Mof_C 	C 	0.456	0.1701	0.3179	0.417
Mof_C 	C 	0.4199	0.1396	0.2948	-0.117
Mof_C 	C 	0.3789	0.1477	0.3259	-0.019
Mof_H 	H 	0.3742	0.1711	0.3612	0.032
Mof_C 	C 	0.3441	0.1199	0.3035	0.006
Mof_H 	H 	0.3166	0.1251	0.3254	0.017
Mof_C 	C 	0.3496	0.0855	0.2506	-0.136
Mof_C 	C 	0.3089	0.062	0.2241	0.42
Mof_C 	C 	0.3923	0.0753	0.2171	0.072
Mof_C 	C 	0.4016	0.0406	0.1642	-0.112
Mof_H 	H 	0.3794	0.0221	0.147	0.095
Mof_C 	C 	0.4426	0.0338	0.1381	0.013
Mof_H 	H 	0.4479	0.0097	0.1045	0.035
Mof_C 	C 	0.4778	0.0606	0.1583	-0.06
Mof_H 	H 	0.5055	0.0552	0.1379	0.052
Mof_C 	C 	0.4695	0.0949	0.2091	-0.055
Mof_H 	H 	0.4923	0.1131	0.2241	0.037
Mof_C 	C 	0.4272	0.1038	0.24	0.023
Mof_O 	O 	0.56545	0.17425	0.2924	-0.456
Mof_O 	O 	0.61028	0.21501	0.3642	-0.421
Mof_O 	O 	0.74959	0.02734	0.2572	-0.574
Mof_O 	O 	0.73097	0.0473	0.1304	-0.443
Mof_O 	O 	0.45401	0.1838	0.0043	-0.546
Mof_O 	O 	0.40926	0.18908	0.1095	-0.453
Mof_O 	O 	0.26866	0.03022	0.9885	-0.645
Mof_O 	O 	0.31205	0.00217	0.8954	-0.489
Mof_O 	O 	0.47253	0.19511	0.266	-0.606
Mof_O 	O 	0.46812	0.17008	0.3926	-0.449
Mof_O 	O 	0.30939	0.0405	0.158	-0.473
Mof_O 	O 	0.27533	0.0647	0.2669	-0.571
Mof_La	La	0.52717	0.23013	0.3794	2.182
Mof_La	La	0.47572	0.2359	0.12923	1.961
Mof_C 	C 	0.3963	0.8179	0.3185	0.315
Mof_C 	C 	0.3605	0.8486	0.2935	-0.081
Mof_C 	C 	0.3734	0.8843	0.2489	-0.035
Mof_H 	H 	0.4027	0.8873	0.2355	0.053
Mof_C 	C 	0.3443	0.9163	0.223	0.01
Mof_H 	H 	0.3543	0.9398	0.1922	0.03
Mof_C 	C 	0.3009	0.9132	0.2427	-0.125
Mof_C 	C 	0.2716	0.9479	0.2091	0.394
Mof_C 	C 	0.286	0.8785	0.2926	0.046
Mof_C 	C 	0.2418	0.8755	0.3125	-0.082
Mof_H 	H 	0.2222	0.8964	0.2943	0.047
Mof_C 	C 	0.2282	0.8408	0.3599	-0.034
Mof_H 	H 	0.1988	0.8384	0.3726	0.04
Mof_C 	C 	0.2566	0.8089	0.3896	-0.027
Mof_H 	H 	0.2468	0.787	0.4248	0.039
Mof_C 	C 	0.3002	0.8108	0.365	-0.086
Mof_H 	H 	0.3192	0.789	0.3822	0.08
Mof_C 	C 	0.316	0.8448	0.3151	0.037
Mof_C 	C 	0.5798	0.8296	0.0447	0.349
Mof_C 	C 	0.606	0.8664	0.0135	0.024
Mof_C 	C 	0.6498	0.8652	0.0342	-0.142
Mof_H 	H 	0.6606	0.8419	0.0647	0.096
Mof_C 	C 	0.678	0.8985	0.0099	0.198
Mof_H 	H 	0.7074	0.8964	0.0228	-0.033
Mof_C 	C 	0.6631	0.9343	0.9674	-0.268
Mof_C 	C 	0.6952	0.9699	0.9502	0.445
Mof_C 	C 	0.6185	0.9363	0.9408	0.15
Mof_C 	C 	0.6008	0.9702	0.8897	-0.185
Mof_H 	H 	0.6193	0.9917	0.8698	0.115
Mof_C 	C 	0.5581	0.9721	0.8695	0.063
Mof_H 	H 	0.5478	0.9952	0.8377	0.005
Mof_C 	C 	0.5289	0.9394	0.8965	-0.129
Mof_H 	H 	0.4997	0.9407	0.8821	0.071
Mof_C 	C 	0.5443	0.9054	0.9443	0.024
Mof_H 	H 	0.525	0.8843	0.9629	0.007
Mof_C 	C 	0.5892	0.9022	0.966	-0.104
Mof_C 	C 	0.544	0.8299	0.3179	0.417
Mof_C 	C 	0.5801	0.8604	0.2948	-0.117
Mof_C 	C 	0.6211	0.8523	0.3259	-0.019
Mof_H 	H 	0.6258	0.8289	0.3612	0.032
Mof_C 	C 	0.6559	0.8801	0.3035	0.006
Mof_H 	H 	0.6834	0.8749	0.3254	0.017
Mof_C 	C 	0.6504	0.9145	0.2506	-0.136
Mof_C 	C 	0.6911	0.938	0.2241	0.42
Mof_C 	C 	0.6077	0.9247	0.2171	0.072
Mof_C 	C 	0.5984	0.9594	0.1642	-0.112
Mof_H 	H 	0.6206	0.9779	0.147	0.095
Mof_C 	C 	0.5574	0.9662	0.1381	0.013
Mof_H 	H 	0.5521	0.9903	0.1045	0.035
Mof_C 	C 	0.5222	0.9394	0.1583	-0.06
Mof_H 	H 	0.4945	0.9448	0.1379	0.052
Mof_C 	C 	0.5305	0.9051	0.2091	-0.055
Mof_H 	H 	0.5077	0.8869	0.2241	0.037
Mof_C 	C 	0.5728	0.8962	0.24	0.023
Mof_O 	O 	0.43455	0.82575	0.2924	-0.456
Mof_O 	O 	0.38972	0.78499	0.3642	-0.421
Mof_O 	O 	0.25041	0.97266	0.2572	-0.574
Mof_O 	O 	0.26903	0.9527	0.1304	-0.443
Mof_O 	O 	0.54599	0.8162	0.0043	-0.546
Mof_O 	O 	0.59074	0.81092	0.1095	-0.453
Mof_O 	O 	0.73134	0.96978	0.9885	-0.645
Mof_O 	O 	0.68795	0.99783	0.8954	-0.489
Mof_O 	O 	0.52747	0.80489	0.266	-0.606
Mof_O 	O 	0.53188	0.82992	0.3926	-0.449
Mof_O 	O 	0.69061	0.9595	0.158	-0.473
Mof_O 	O 	0.72467	0.9353	0.2669	-0.571
Mof_La	La	0.47283	0.76987	0.3794	2.182
Mof_La	La	0.52428	0.7641	0.12923	1.961
Mof_C 	C 	0.8963	0.3179	0.8185	0.314
Mof_C 	C 	0.8605	0.3486	0.7935	-0.085
Mof_C 	C 	0.8734	0.3843	0.7489	-0.036
Mof_H 	H 	0.9027	0.3873	0.7355	0.051
Mof_C 	C 	0.8443	0.4163	0.723	0.009
Mof_H 	H 	0.8543	0.4398	0.6922	0.027
Mof_C 	C 	0.8009	0.4132	0.7427	-0.127
Mof_C 	C 	0.7716	0.4479	0.7091	0.394
Mof_C 	C 	0.786	0.3785	0.7926	0.044
Mof_C 	C 	0.7418	0.3755	0.8125	-0.085
Mof_H 	H 	0.7222	0.3964	0.7943	0.046
Mof_C 	C 	0.7282	0.3408	0.8599	-0.04
Mof_H 	H 	0.6988	0.3384	0.8726	0.033
Mof_C 	C 	0.7566	0.3089	0.8896	-0.031
Mof_H 	H 	0.7468	0.287	0.9248	0.025
Mof_C 	C 	0.8002	0.3108	0.865	-0.092
Mof_H 	H 	0.8192	0.289	0.8822	0.073
Mof_C 	C 	0.816	0.3448	0.8151	0.034
Mof_C 	C 	0.0798	0.3296	0.5447	0.39
Mof_C 	C 	0.106	0.3664	0.5135	-0.107
Mof_C 	C 	0.1498	0.3652	0.5342	-0.028
Mof_H 	H 	0.1606	0.3419	0.5647	0.05
Mof_C 	C 	0.178	0.3985	0.5099	0.029
Mof_H 	H 	0.2074	0.3964	0.5228	0.009
Mof_C 	C 	0.1631	0.4343	0.4674	-0.135
Mof_C 	C 	0.1952	0.4699	0.4502	0.405
Mof_C 	C 	0.1185	0.4363	0.4408	0.067
Mof_C 	C 	0.1008	0.4702	0.3897	-0.107
Mof_H 	H 	0.1193	0.4917	0.3698	0.09
Mof_C 	C 	0.0581	0.4721	0.3695	-0.003
Mof_H 	H 	0.0478	0.4952	0.3377	0.031
Mof_C 	C 	0.0289	0.4394	0.3965	-0.052
Mof_H 	H 	0.9997	0.4407	0.3821	0.049
Mof_C 	C 	0.0443	0.4054	0.4443	-0.057
Mof_H 	H 	0.025	0.3843	0.4629	0.053
Mof_C 	C 	0.0892	0.4022	0.466	0.027
Mof_C 	C 	0.044	0.3299	0.8179	0.42
Mof_C 	C 	0.0801	0.3604	0.7948	-0.123
Mof_C 	C 	0.1211	0.3523	0.8259	-0.018
Mof_H 	H 	0.1258	0.3289	0.8612	0.023
Mof_C 	C 	0.1559	0.3801	0.8035	0.002
Mof_H 	H 	0.1834	0.3749	0.8254	0.014
Mof_C 	C 	0.1504	0.4145	0.7506	-0.136
Mof_C 	C 	0.1911	0.438	0.7241	0.419
Mof_C 	C 	0.1077	0.4247	0.7171	0.069
Mof_C 	C 	0.0984	0.4594	0.6642	-0.113
Mof_H 	H 	0.1206	0.4779	0.647	0.089
Mof_C 	C 	0.0574	0.4662	0.6381	0.007
Mof_H 	H 	0.0521	0.4903	0.6045	0.025
Mof_C 	C 	0.0222	0.4394	0.6583	-0.062
Mof_H 	H 	0.9945	0.4448	0.6379	0.045
Mof_C 	C 	0.0305	0.4051	0.7091	-0.059
Mof_H 	H 	0.0077	0.3869	0.7241	0.037
Mof_C 	C 	0.0728	0.3962	0.74	0.025
Mof_O 	O 	0.93455	0.32575	0.7924	-0.453
Mof_O 	O 	0.88972	0.28499	0.8642	-0.429
Mof_O 	O 	0.75041	0.47266	0.7572	-0.568
Mof_O 	O 	0.76903	0.4527	0.6304	-0.452
Mof_O 	O 	0.04599	0.3162	0.5043	-0.591
Mof_O 	O 	0.09074	0.31092	0.6095	-0.466
Mof_O 	O 	0.23134	0.46978	0.4885	-0.604
Mof_O 	O 	0.18795	0.49783	0.3954	-0.475
Mof_O 	O 	0.02747	0.30489	0.766	-0.603
Mof_O 	O 	0.03188	0.32992	0.8926	-0.46
Mof_O 	O 	0.19061	0.4595	0.658	-0.478
Mof_O 	O 	0.22467	0.4353	0.7669	-0.566
Mof_La	La	0.97283	0.26987	0.8794	2.099
Mof_La	La	0.02428	0.2641	0.62923	1.96
Mof_C 	C 	0.3179	0.6037	0.0685	0.28
Mof_C 	C 	0.3486	0.6395	0.0435	0.05
Mof_C 	C 	0.3843	0.6266	0.9989	-0.203
Mof_H 	H 	0.3873	0.5973	0.9855	0.091
Mof_C 	C 	0.4163	0.6557	0.973	0.115
Mof_H 	H 	0.4398	0.6457	0.9422	-0.016
Mof_C 	C 	0.4132	0.6991	0.9927	-0.243
Mof_C 	C 	0.4479	0.7284	0.9591	0.367
Mof_C 	C 	0.3785	0.714	0.0426	0.174
Mof_C 	C 	0.3755	0.7582	0.0625	-0.167
Mof_H 	H 	0.3964	0.7778	0.0443	0.092
Mof_C 	C 	0.3408	0.7718	0.1099	0.043
Mof_H 	H 	0.3384	0.8012	0.1226	0.019
Mof_C 	C 	0.3089	0.7434	0.1396	-0.091
Mof_H 	H 	0.287	0.7532	0.1748	0.064
Mof_C 	C 	0.3108	0.6998	0.115	-0.01
Mof_H 	H 	0.289	0.6808	0.1322	0.055
Mof_C 	C 	0.3448	0.684	0.0651	-0.049
Mof_C 	C 	0.3296	0.4202	0.7947	0.393
Mof_C 	C 	0.3664	0.394	0.7635	-0.111
Mof_C 	C 	0.3652	0.3502	0.7842	-0.025
Mof_H 	H 	0.3419	0.3394	0.8147	0.044
Mof_C 	C 	0.3985	0.322	0.7599	0.023
Mof_H 	H 	0.3964	0.2926	0.7728	0.011
Mof_C 	C 	0.4343	0.3369	0.7174	-0.132
Mof_C 	C 	0.4699	0.3048	0.7002	0.401
Mof_C 	C 	0.4363	0.3815	0.6908	0.064
Mof_C 	C 	0.4702	0.3992	0.6397	-0.106
Mof_H 	H 	0.4917	0.3807	0.6198	0.089
Mof_C 	C 	0.4721	0.4419	0.6195	-0.005
Mof_H 	H 	0.4952	0.4522	0.5877	0.031
Mof_C 	C 	0.4394	0.4711	0.6465	-0.051
Mof_H 	H 	0.4407	0.5003	0.6321	0.048
Mof_C 	C 	0.4054	0.4557	0.6943	-0.059
Mof_H 	H 	0.3843	0.475	0.7129	0.053
Mof_C 	C 	0.4022	0.4108	0.716	0.029
Mof_C 	C 	0.3299	0.456	0.0679	0.407
Mof_C 	C 	0.3604	0.4199	0.0448	-0.074
Mof_C 	C 	0.3523	0.3789	0.0759	0.004
Mof_H 	H 	0.3289	0.3742	0.1112	0.028
Mof_C 	C 	0.3801	0.3441	0.0535	-0.051
Mof_H 	H 	0.3749	0.3166	0.0754	0.044
Mof_C 	C 	0.4145	0.3496	0.0006	0.006
Mof_C 	C 	0.438	0.3089	0.9741	0.277
Mof_C 	C 	0.4247	0.3923	0.9671	-0.015
Mof_C 	C 	0.4594	0.4016	0.9142	-0.067
Mof_H 	H 	0.4779	0.3794	0.897	0.067
Mof_C 	C 	0.4662	0.4426	0.8881	-0.025
Mof_H 	H 	0.4903	0.4479	0.8545	0.034
Mof_C 	C 	0.4394	0.4778	0.9083	-0.056
Mof_H 	H 	0.4448	0.5055	0.8879	0.038
Mof_C 	C 	0.4051	0.4695	0.9591	-0.058
Mof_H 	H 	0.3869	0.4923	0.9741	0.017
Mof_C 	C 	0.3962	0.4272	0.99	-0.01
Mof_O 	O 	0.32575	0.56545	0.0424	-0.429
Mof_O 	O 	0.28499	0.61028	0.1142	-0.407
Mof_O 	O 	0.47266	0.74959	0.0072	-0.522
Mof_O 	O 	0.4527	0.73097	0.8804	-0.447
Mof_O 	O 	0.3162	0.45401	0.7543	-0.589
Mof_O 	O 	0.31092	0.40926	0.8595	-0.475
Mof_O 	O 	0.46978	0.26866	0.7385	-0.597
Mof_O 	O 	0.49783	0.31205	0.6454	-0.474
Mof_O 	O 	0.30489	0.47253	0.016	-0.573
Mof_O 	O 	0.32992	0.46812	0.1426	-0.447
Mof_O 	O 	0.4595	0.30939	0.908	-0.444
Mof_O 	O 	0.4353	0.27533	0.0169	-0.494
Mof_La	La	0.26987	0.52717	0.1294	2.224
Mof_La	La	0.2641	0.47572	0.87923	1.902
Mof_C 	C 	0.8179	0.1037	0.5685	0.315
Mof_C 	C 	0.8486	0.1395	0.5435	-0.081
Mof_C 	C 	0.8843	0.1266	0.4989	-0.038
Mof_H 	H 	0.8873	0.0973	0.4855	0.052
Mof_C 	C 	0.9163	0.1557	0.473	0.011
Mof_H 	H 	0.9398	0.1457	0.4422	0.026
Mof_C 	C 	0.9132	0.1991	0.4927	-0.129
Mof_C 	C 	0.9479	0.2284	0.4591	0.396
Mof_C 	C 	0.8785	0.214	0.5426	0.047
Mof_C 	C 	0.8755	0.2582	0.5625	-0.084
Mof_H 	H 	0.8964	0.2778	0.5443	0.048
Mof_C 	C 	0.8408	0.2718	0.6099	-0.033
Mof_H 	H 	0.8384	0.3012	0.6226	0.039
Mof_C 	C 	0.8089	0.2434	0.6396	-0.028
Mof_H 	H 	0.787	0.2532	0.6748	0.039
Mof_C 	C 	0.8108	0.1998	0.615	-0.085
Mof_H 	H 	0.789	0.1808	0.6322	0.079
Mof_C 	C 	0.8448	0.184	0.5651	0.036
Mof_C 	C 	0.8296	0.9202	0.2947	0.391
Mof_C 	C 	0.8664	0.894	0.2635	-0.108
Mof_C 	C 	0.8652	0.8502	0.2842	-0.027
Mof_H 	H 	0.8419	0.8394	0.3147	0.05
Mof_C 	C 	0.8985	0.822	0.2599	0.027
Mof_H 	H 	0.8964	0.7926	0.2728	0.01
Mof_C 	C 	0.9343	0.8369	0.2174	-0.132
Mof_C 	C 	0.9699	0.8048	0.2002	0.405
Mof_C 	C 	0.9363	0.8815	0.1908	0.069
Mof_C 	C 	0.9702	0.8992	0.1397	-0.101
Mof_H 	H 	0.9917	0.8807	0.1198	0.097
Mof_C 	C 	0.9721	0.9419	0.1195	-0
Mof_H 	H 	0.9952	0.9522	0.0877	0.043
Mof_C 	C 	0.9394	0.9711	0.1465	-0.047
Mof_H 	H 	0.9407	0.0003	0.1321	0.055
Mof_C 	C 	0.9054	0.9557	0.1943	-0.055
Mof_H 	H 	0.8843	0.975	0.2129	0.053
Mof_C 	C 	0.9022	0.9108	0.216	0.028
Mof_C 	C 	0.8299	0.956	0.5679	0.417
Mof_C 	C 	0.8604	0.9199	0.5448	-0.117
Mof_C 	C 	0.8523	0.8789	0.5759	-0.02
Mof_H 	H 	0.8289	0.8742	0.6112	0.032
Mof_C 	C 	0.8801	0.8441	0.5535	0.007
Mof_H 	H 	0.8749	0.8166	0.5754	0.017
Mof_C 	C 	0.9145	0.8496	0.5006	-0.138
Mof_C 	C 	0.938	0.8089	0.4741	0.422
Mof_C 	C 	0.9247	0.8923	0.4671	0.072
Mof_C 	C 	0.9594	0.9016	0.4142	-0.116
Mof_H 	H 	0.9779	0.8794	0.397	0.09
Mof_C 	C 	0.9662	0.9426	0.3881	0.01
Mof_H 	H 	0.9903	0.9479	0.3545	0.025
Mof_C 	C 	0.9394	0.9778	0.4083	-0.065
Mof_H 	H 	0.9448	0.0055	0.3879	0.046
Mof_C 	C 	0.9051	0.9695	0.4591	-0.056
Mof_H 	H 	0.8869	0.9923	0.4741	0.035
Mof_C 	C 	0.8962	0.9272	0.49	0.022
Mof_O 	O 	0.82575	0.06545	0.5424	-0.457
Mof_O 	O 	0.78499	0.11028	0.6142	-0.421
Mof_O 	O 	0.97266	0.24959	0.5072	-0.572
Mof_O 	O 	0.9527	0.23097	0.3804	-0.453
Mof_O 	O 	0.8162	0.95401	0.2543	-0.595
Mof_O 	O 	0.81092	0.90926	0.3595	-0.466
Mof_O 	O 	0.96978	0.76866	0.2385	-0.603
Mof_O 	O 	0.99783	0.81205	0.1454	-0.467
Mof_O 	O 	0.80489	0.97253	0.516	-0.606
Mof_O 	O 	0.82992	0.96812	0.6426	-0.45
Mof_O 	O 	0.9595	0.80939	0.408	-0.48
Mof_O 	O 	0.9353	0.77533	0.5169	-0.57
Mof_La	La	0.76987	0.02717	0.6294	2.183
Mof_La	La	0.7641	0.97572	0.37923	1.959
Mof_C 	C 	0.1821	0.8963	0.5685	0.315
Mof_C 	C 	0.1514	0.8605	0.5435	-0.081
Mof_C 	C 	0.1157	0.8734	0.4989	-0.038
Mof_H 	H 	0.1127	0.9027	0.4855	0.052
Mof_C 	C 	0.0837	0.8443	0.473	0.011
Mof_H 	H 	0.0602	0.8543	0.4422	0.026
Mof_C 	C 	0.0868	0.8009	0.4927	-0.129
Mof_C 	C 	0.0521	0.7716	0.4591	0.396
Mof_C 	C 	0.1215	0.786	0.5426	0.047
Mof_C 	C 	0.1245	0.7418	0.5625	-0.084
Mof_H 	H 	0.1036	0.7222	0.5443	0.048
Mof_C 	C 	0.1592	0.7282	0.6099	-0.033
Mof_H 	H 	0.1616	0.6988	0.6226	0.039
Mof_C 	C 	0.1911	0.7566	0.6396	-0.028
Mof_H 	H 	0.213	0.7468	0.6748	0.039
Mof_C 	C 	0.1892	0.8002	0.615	-0.085
Mof_H 	H 	0.211	0.8192	0.6322	0.079
Mof_C 	C 	0.1552	0.816	0.5651	0.036
Mof_C 	C 	0.1704	0.0798	0.2947	0.391
Mof_C 	C 	0.1336	0.106	0.2635	-0.108
Mof_C 	C 	0.1348	0.1498	0.2842	-0.027
Mof_H 	H 	0.1581	0.1606	0.3147	0.05
Mof_C 	C 	0.1015	0.178	0.2599	0.027
Mof_H 	H 	0.1036	0.2074	0.2728	0.01
Mof_C 	C 	0.0657	0.1631	0.2174	-0.132
Mof_C 	C 	0.0301	0.1952	0.2002	0.405
Mof_C 	C 	0.0637	0.1185	0.1908	0.069
Mof_C 	C 	0.0298	0.1008	0.1397	-0.101
Mof_H 	H 	0.0083	0.1193	0.1198	0.097
Mof_C 	C 	0.0279	0.0581	0.1195	-0
Mof_H 	H 	0.0048	0.0478	0.0877	0.043
Mof_C 	C 	0.0606	0.0289	0.1465	-0.047
Mof_H 	H 	0.0593	0.9997	0.1321	0.055
Mof_C 	C 	0.0946	0.0443	0.1943	-0.055
Mof_H 	H 	0.1157	0.025	0.2129	0.053
Mof_C 	C 	0.0978	0.0892	0.216	0.028
Mof_C 	C 	0.1701	0.044	0.5679	0.417
Mof_C 	C 	0.1396	0.0801	0.5448	-0.117
Mof_C 	C 	0.1477	0.1211	0.5759	-0.02
Mof_H 	H 	0.1711	0.1258	0.6112	0.032
Mof_C 	C 	0.1199	0.1559	0.5535	0.007
Mof_H 	H 	0.1251	0.1834	0.5754	0.017
Mof_C 	C 	0.0855	0.1504	0.5006	-0.138
Mof_C 	C 	0.062	0.1911	0.4741	0.422
Mof_C 	C 	0.0753	0.1077	0.4671	0.072
Mof_C 	C 	0.0406	0.0984	0.4142	-0.116
Mof_H 	H 	0.0221	0.1206	0.397	0.09
Mof_C 	C 	0.0338	0.0574	0.3881	0.01
Mof_H 	H 	0.0097	0.0521	0.3545	0.025
Mof_C 	C 	0.0606	0.0222	0.4083	-0.065
Mof_H 	H 	0.0552	0.9945	0.3879	0.046
Mof_C 	C 	0.0949	0.0305	0.4591	-0.056
Mof_H 	H 	0.1131	0.0077	0.4741	0.035
Mof_C 	C 	0.1038	0.0728	0.49	0.022
Mof_O 	O 	0.17425	0.93455	0.5424	-0.457
Mof_O 	O 	0.21501	0.88972	0.6142	-0.421
Mof_O 	O 	0.02734	0.75041	0.5072	-0.572
Mof_O 	O 	0.0473	0.76903	0.3804	-0.453
Mof_O 	O 	0.1838	0.04599	0.2543	-0.595
Mof_O 	O 	0.18908	0.09074	0.3595	-0.466
Mof_O 	O 	0.03022	0.23134	0.2385	-0.603
Mof_O 	O 	0.00217	0.18795	0.1454	-0.467
Mof_O 	O 	0.19511	0.02747	0.516	-0.606
Mof_O 	O 	0.17008	0.03188	0.6426	-0.45
Mof_O 	O 	0.0405	0.19061	0.408	-0.48
Mof_O 	O 	0.0647	0.22467	0.5169	-0.57
Mof_La	La	0.23013	0.97283	0.6294	2.183
Mof_La	La	0.2359	0.02428	0.37923	1.959
Mof_C 	C 	0.6821	0.3963	0.0685	0.28
Mof_C 	C 	0.6514	0.3605	0.0435	0.05
Mof_C 	C 	0.6157	0.3734	0.9989	-0.203
Mof_H 	H 	0.6127	0.4027	0.9855	0.091
Mof_C 	C 	0.5837	0.3443	0.973	0.115
Mof_H 	H 	0.5602	0.3543	0.9422	-0.016
Mof_C 	C 	0.5868	0.3009	0.9927	-0.243
Mof_C 	C 	0.5521	0.2716	0.9591	0.367
Mof_C 	C 	0.6215	0.286	0.0426	0.174
Mof_C 	C 	0.6245	0.2418	0.0625	-0.167
Mof_H 	H 	0.6036	0.2222	0.0443	0.092
Mof_C 	C 	0.6592	0.2282	0.1099	0.043
Mof_H 	H 	0.6616	0.1988	0.1226	0.019
Mof_C 	C 	0.6911	0.2566	0.1396	-0.091
Mof_H 	H 	0.713	0.2468	0.1748	0.064
Mof_C 	C 	0.6892	0.3002	0.115	-0.01
Mof_H 	H 	0.711	0.3192	0.1322	0.055
Mof_C 	C 	0.6552	0.316	0.0651	-0.049
Mof_C 	C 	0.6704	0.5798	0.7947	0.393
Mof_C 	C 	0.6336	0.606	0.7635	-0.111
Mof_C 	C 	0.6348	0.6498	0.7842	-0.025
Mof_H 	H 	0.6581	0.6606	0.8147	0.044
Mof_C 	C 	0.6015	0.678	0.7599	0.023
Mof_H 	H 	0.6036	0.7074	0.7728	0.011
Mof_C 	C 	0.5657	0.6631	0.7174	-0.132
Mof_C 	C 	0.5301	0.6952	0.7002	0.401
Mof_C 	C 	0.5637	0.6185	0.6908	0.064
Mof_C 	C 	0.5298	0.6008	0.6397	-0.106
Mof_H 	H 	0.5083	0.6193	0.6198	0.089
Mof_C 	C 	0.5279	0.5581	0.6195	-0.005
Mof_H 	H 	0.5048	0.5478	0.5877	0.031
Mof_C 	C 	0.5606	0.5289	0.6465	-0.051
Mof_H 	H 	0.5593	0.4997	0.6321	0.048
Mof_C 	C 	0.5946	0.5443	0.6943	-0.059
Mof_H 	H 	0.6157	0.525	0.7129	0.053
Mof_C 	C 	0.5978	0.5892	0.716	0.029
Mof_C 	C 	0.6701	0.544	0.0679	0.407
Mof_C 	C 	0.6396	0.5801	0.0448	-0.074
Mof_C 	C 	0.6477	0.6211	0.0759	0.004
Mof_H 	H 	0.6711	0.6258	0.1112	0.028
Mof_C 	C 	0.6199	0.6559	0.0535	-0.051
Mof_H 	H 	0.6251	0.6834	0.0754	0.044
Mof_C 	C 	0.5855	0.6504	0.0006	0.006
Mof_C 	C 	0.562	0.6911	0.9741	0.277
Mof_C 	C 	0.5753	0.6077	0.9671	-0.015
Mof_C 	C 	0.5406	0.5984	0.9142	-0.067
Mof_H 	H 	0.5221	0.6206	0.897	0.067
Mof_C 	C 	0.5338	0.5574	0.8881	-0.025
Mof_H 	H 	0.5097	0.5521	0.8545	0.034
Mof_C 	C 	0.5606	0.5222	0.9083	-0.056
Mof_H 	H 	0.5552	0.4945	0.8879	0.038
Mof_C 	C 	0.5949	0.5305	0.9591	-0.058
Mof_H 	H 	0.6131	0.5077	0.9741	0.017
Mof_C 	C 	0.6038	0.5728	0.99	-0.01
Mof_O 	O 	0.67425	0.43455	0.0424	-0.429
Mof_O 	O 	0.71501	0.38972	0.1142	-0.407
Mof_O 	O 	0.52734	0.25041	0.0072	-0.522
Mof_O 	O 	0.5473	0.26903	0.8804	-0.447
Mof_O 	O 	0.6838	0.54599	0.7543	-0.589
Mof_O 	O 	0.68908	0.59074	0.8595	-0.475
Mof_O 	O 	0.53022	0.73134	0.7385	-0.597
Mof_O 	O 	0.50217	0.68795	0.6454	-0.474
Mof_O 	O 	0.69511	0.52747	0.016	-0.573
Mof_O 	O 	0.67008	0.53188	0.1426	-0.447
Mof_O 	O 	0.5405	0.69061	0.908	-0.444
Mof_O 	O 	0.5647	0.72467	0.0169	-0.494
Mof_La	La	0.73013	0.47283	0.1294	2.224
Mof_La	La	0.7359	0.52428	0.87923	1.902
Mof_C 	C 	0.1037	0.3179	0.3185	0.315
Mof_C 	C 	0.1395	0.3486	0.2935	-0.081
Mof_C 	C 	0.1266	0.3843	0.2489	-0.035
Mof_H 	H 	0.0973	0.3873	0.2355	0.053
Mof_C 	C 	0.1557	0.4163	0.223	0.01
Mof_H 	H 	0.1457	0.4398	0.1922	0.03
Mof_C 	C 	0.1991	0.4132	0.2427	-0.125
Mof_C 	C 	0.2284	0.4479	0.2091	0.394
Mof_C 	C 	0.214	0.3785	0.2926	0.046
Mof_C 	C 	0.2582	0.3755	0.3125	-0.082
Mof_H 	H 	0.2778	0.3964	0.2943	0.047
Mof_C 	C 	0.2718	0.3408	0.3599	-0.034
Mof_H 	H 	0.3012	0.3384	0.3726	0.039
Mof_C 	C 	0.2434	0.3089	0.3896	-0.027
Mof_H 	H 	0.2532	0.287	0.4248	0.039
Mof_C 	C 	0.1998	0.3108	0.365	-0.086
Mof_H 	H 	0.1808	0.289	0.3822	0.08
Mof_C 	C 	0.184	0.3448	0.3151	0.037
Mof_C 	C 	0.9202	0.3296	0.0447	0.349
Mof_C 	C 	0.894	0.3664	0.0135	0.024
Mof_C 	C 	0.8502	0.3652	0.0342	-0.142
Mof_H 	H 	0.8394	0.3419	0.0647	0.096
Mof_C 	C 	0.822	0.3985	0.0099	0.198
Mof_H 	H 	0.7926	0.3964	0.0228	-0.033
Mof_C 	C 	0.8369	0.4343	0.9674	-0.269
Mof_C 	C 	0.8048	0.4699	0.9502	0.445
Mof_C 	C 	0.8815	0.4363	0.9408	0.15
Mof_C 	C 	0.8992	0.4702	0.8897	-0.185
Mof_H 	H 	0.8807	0.4917	0.8698	0.115
Mof_C 	C 	0.9419	0.4721	0.8695	0.063
Mof_H 	H 	0.9522	0.4952	0.8377	0.005
Mof_C 	C 	0.9711	0.4394	0.8965	-0.129
Mof_H 	H 	0.0003	0.4407	0.8821	0.071
Mof_C 	C 	0.9557	0.4054	0.9443	0.024
Mof_H 	H 	0.975	0.3843	0.9629	0.007
Mof_C 	C 	0.9108	0.4022	0.966	-0.104
Mof_C 	C 	0.956	0.3299	0.3179	0.417
Mof_C 	C 	0.9199	0.3604	0.2948	-0.117
Mof_C 	C 	0.8789	0.3523	0.3259	-0.019
Mof_H 	H 	0.8742	0.3289	0.3612	0.032
Mof_C 	C 	0.8441	0.3801	0.3035	0.006
Mof_H 	H 	0.8166	0.3749	0.3254	0.017
Mof_C 	C 	0.8496	0.4145	0.2506	-0.136
Mof_C 	C 	0.8089	0.438	0.2241	0.42
Mof_C 	C 	0.8923	0.4247	0.2171	0.071
Mof_C 	C 	0.9016	0.4594	0.1642	-0.112
Mof_H 	H 	0.8794	0.4779	0.147	0.095
Mof_C 	C 	0.9426	0.4662	0.1381	0.013
Mof_H 	H 	0.9479	0.4903	0.1045	0.035
Mof_C 	C 	0.9778	0.4394	0.1583	-0.06
Mof_H 	H 	0.0055	0.4448	0.1379	0.052
Mof_C 	C 	0.9695	0.4051	0.2091	-0.055
Mof_H 	H 	0.9923	0.3869	0.2241	0.037
Mof_C 	C 	0.9272	0.3962	0.24	0.023
Mof_O 	O 	0.06545	0.32575	0.2924	-0.456
Mof_O 	O 	0.11028	0.28499	0.3642	-0.421
Mof_O 	O 	0.24959	0.47266	0.2572	-0.574
Mof_O 	O 	0.23097	0.4527	0.1304	-0.443
Mof_O 	O 	0.95401	0.3162	0.0043	-0.547
Mof_O 	O 	0.90926	0.31092	0.1095	-0.453
Mof_O 	O 	0.76866	0.46978	0.9885	-0.645
Mof_O 	O 	0.81205	0.49783	0.8954	-0.489
Mof_O 	O 	0.97253	0.30489	0.266	-0.606
Mof_O 	O 	0.96812	0.32992	0.3926	-0.449
Mof_O 	O 	0.80939	0.4595	0.158	-0.474
Mof_O 	O 	0.77533	0.4353	0.2669	-0.571
Mof_La	La	0.02717	0.26987	0.3794	2.182
Mof_La	La	0.97572	0.2641	0.12923	1.962
Mof_C 	C 	0.6037	0.8179	0.8185	0.314
Mof_C 	C 	0.6395	0.8486	0.7935	-0.085
Mof_C 	C 	0.6266	0.8843	0.7489	-0.036
Mof_H 	H 	0.5973	0.8873	0.7355	0.051
Mof_C 	C 	0.6557	0.9163	0.723	0.009
Mof_H 	H 	0.6457	0.9398	0.6922	0.027
Mof_C 	C 	0.6991	0.9132	0.7427	-0.127
Mof_C 	C 	0.7284	0.9479	0.7091	0.394
Mof_C 	C 	0.714	0.8785	0.7926	0.044
Mof_C 	C 	0.7582	0.8755	0.8125	-0.085
Mof_H 	H 	0.7778	0.8964	0.7943	0.046
Mof_C 	C 	0.7718	0.8408	0.8599	-0.04
Mof_H 	H 	0.8012	0.8384	0.8726	0.033
Mof_C 	C 	0.7434	0.8089	0.8896	-0.031
Mof_H 	H 	0.7532	0.787	0.9248	0.025
Mof_C 	C 	0.6998	0.8108	0.865	-0.092
Mof_H 	H 	0.6808	0.789	0.8822	0.073
Mof_C 	C 	0.684	0.8448	0.8151	0.034
Mof_C 	C 	0.4202	0.8296	0.5447	0.39
Mof_C 	C 	0.394	0.8664	0.5135	-0.107
Mof_C 	C 	0.3502	0.8652	0.5342	-0.028
Mof_H 	H 	0.3394	0.8419	0.5647	0.05
Mof_C 	C 	0.322	0.8985	0.5099	0.029
Mof_H 	H 	0.2926	0.8964	0.5228	0.009
Mof_C 	C 	0.3369	0.9343	0.4674	-0.135
Mof_C 	C 	0.3048	0.9699	0.4502	0.405
Mof_C 	C 	0.3815	0.9363	0.4408	0.067
Mof_C 	C 	0.3992	0.9702	0.3897	-0.107
Mof_H 	H 	0.3807	0.9917	0.3698	0.09
Mof_C 	C 	0.4419	0.9721	0.3695	-0.003
Mof_H 	H 	0.4522	0.9952	0.3377	0.031
Mof_C 	C 	0.4711	0.9394	0.3965	-0.052
Mof_H 	H 	0.5003	0.9407	0.3821	0.049
Mof_C 	C 	0.4557	0.9054	0.4443	-0.057
Mof_H 	H 	0.475	0.8843	0.4629	0.053
Mof_C 	C 	0.4108	0.9022	0.466	0.027
Mof_C 	C 	0.456	0.8299	0.8179	0.42
Mof_C 	C 	0.4199	0.8604	0.7948	-0.123
Mof_C 	C 	0.3789	0.8523	0.8259	-0.018
Mof_H 	H 	0.3742	0.8289	0.8612	0.023
Mof_C 	C 	0.3441	0.8801	0.8035	0.002
Mof_H 	H 	0.3166	0.8749	0.8254	0.014
Mof_C 	C 	0.3496	0.9145	0.7506	-0.136
Mof_C 	C 	0.3089	0.938	0.7241	0.419
Mof_C 	C 	0.3923	0.9247	0.7171	0.069
Mof_C 	C 	0.4016	0.9594	0.6642	-0.113
Mof_H 	H 	0.3794	0.9779	0.647	0.089
Mof_C 	C 	0.4426	0.9662	0.6381	0.007
Mof_H 	H 	0.4479	0.9903	0.6045	0.025
Mof_C 	C 	0.4778	0.9394	0.6583	-0.062
Mof_H 	H 	0.5055	0.9448	0.6379	0.045
Mof_C 	C 	0.4695	0.9051	0.7091	-0.059
Mof_H 	H 	0.4923	0.8869	0.7241	0.036
Mof_C 	C 	0.4272	0.8962	0.74	0.025
Mof_O 	O 	0.56545	0.82575	0.7924	-0.453
Mof_O 	O 	0.61028	0.78499	0.8642	-0.429
Mof_O 	O 	0.74959	0.97266	0.7572	-0.568
Mof_O 	O 	0.73097	0.9527	0.6304	-0.452
Mof_O 	O 	0.45401	0.8162	0.5043	-0.591
Mof_O 	O 	0.40926	0.81092	0.6095	-0.466
Mof_O 	O 	0.26866	0.96978	0.4885	-0.604
Mof_O 	O 	0.31205	0.99783	0.3954	-0.475
Mof_O 	O 	0.47253	0.80489	0.766	-0.603
Mof_O 	O 	0.46812	0.82992	0.8926	-0.46
Mof_O 	O 	0.30939	0.9595	0.658	-0.478
Mof_O 	O 	0.27533	0.9353	0.7669	-0.566
Mof_La	La	0.52717	0.76987	0.8794	2.098
Mof_La	La	0.47572	0.7641	0.62923	1.96
Mof_C 	C 	0.3963	0.1821	0.8185	0.314
Mof_C 	C 	0.3605	0.1514	0.7935	-0.085
Mof_C 	C 	0.3734	0.1157	0.7489	-0.036
Mof_H 	H 	0.4027	0.1127	0.7355	0.051
Mof_C 	C 	0.3443	0.0837	0.723	0.009
Mof_H 	H 	0.3543	0.0602	0.6922	0.027
Mof_C 	C 	0.3009	0.0868	0.7427	-0.127
Mof_C 	C 	0.2716	0.0521	0.7091	0.394
Mof_C 	C 	0.286	0.1215	0.7926	0.044
Mof_C 	C 	0.2418	0.1245	0.8125	-0.085
Mof_H 	H 	0.2222	0.1036	0.7943	0.046
Mof_C 	C 	0.2282	0.1592	0.8599	-0.04
Mof_H 	H 	0.1988	0.1616	0.8726	0.033
Mof_C 	C 	0.2566	0.1911	0.8896	-0.031
Mof_H 	H 	0.2468	0.213	0.9248	0.025
Mof_C 	C 	0.3002	0.1892	0.865	-0.092
Mof_H 	H 	0.3192	0.211	0.8822	0.073
Mof_C 	C 	0.316	0.1552	0.8151	0.034
Mof_C 	C 	0.5798	0.1704	0.5447	0.39
Mof_C 	C 	0.606	0.1336	0.5135	-0.107
Mof_C 	C 	0.6498	0.1348	0.5342	-0.028
Mof_H 	H 	0.6606	0.1581	0.5647	0.05
Mof_C 	C 	0.678	0.1015	0.5099	0.029
Mof_H 	H 	0.7074	0.1036	0.5228	0.009
Mof_C 	C 	0.6631	0.0657	0.4674	-0.135
Mof_C 	C 	0.6952	0.0301	0.4502	0.405
Mof_C 	C 	0.6185	0.0637	0.4408	0.067
Mof_C 	C 	0.6008	0.0298	0.3897	-0.107
Mof_H 	H 	0.6193	0.0083	0.3698	0.09
Mof_C 	C 	0.5581	0.0279	0.3695	-0.003
Mof_H 	H 	0.5478	0.0048	0.3377	0.031
Mof_C 	C 	0.5289	0.0606	0.3965	-0.052
Mof_H 	H 	0.4997	0.0593	0.3821	0.049
Mof_C 	C 	0.5443	0.0946	0.4443	-0.057
Mof_H 	H 	0.525	0.1157	0.4629	0.053
Mof_C 	C 	0.5892	0.0978	0.466	0.027
Mof_C 	C 	0.544	0.1701	0.8179	0.42
Mof_C 	C 	0.5801	0.1396	0.7948	-0.123
Mof_C 	C 	0.6211	0.1477	0.8259	-0.018
Mof_H 	H 	0.6258	0.1711	0.8612	0.023
Mof_C 	C 	0.6559	0.1199	0.8035	0.002
Mof_H 	H 	0.6834	0.1251	0.8254	0.014
Mof_C 	C 	0.6504	0.0855	0.7506	-0.136
Mof_C 	C 	0.6911	0.062	0.7241	0.419
Mof_C 	C 	0.6077	0.0753	0.7171	0.069
Mof_C 	C 	0.5984	0.0406	0.6642	-0.113
Mof_H 	H 	0.6206	0.0221	0.647	0.089
Mof_C 	C 	0.5574	0.0338	0.6381	0.007
Mof_H 	H 	0.5521	0.0097	0.6045	0.025
Mof_C 	C 	0.5222	0.0606	0.6583	-0.062
Mof_H 	H 	0.4945	0.0552	0.6379	0.045
Mof_C 	C 	0.5305	0.0949	0.7091	-0.059
Mof_H 	H 	0.5077	0.1131	0.7241	0.036
Mof_C 	C 	0.5728	0.1038	0.74	0.025
Mof_O 	O 	0.43455	0.17425	0.7924	-0.453
Mof_O 	O 	0.38972	0.21501	0.8642	-0.429
Mof_O 	O 	0.25041	0.02734	0.7572	-0.568
Mof_O 	O 	0.26903	0.0473	0.6304	-0.452
Mof_O 	O 	0.54599	0.1838	0.5043	-0.591
Mof_O 	O 	0.59074	0.18908	0.6095	-0.466
Mof_O 	O 	0.73134	0.03022	0.4885	-0.604
Mof_O 	O 	0.68795	0.00217	0.3954	-0.475
Mof_O 	O 	0.52747	0.19511	0.766	-0.603
Mof_O 	O 	0.53188	0.17008	0.8926	-0.46
Mof_O 	O 	0.69061	0.0405	0.658	-0.478
Mof_O 	O 	0.72467	0.0647	0.7669	-0.566
Mof_La	La	0.47283	0.23013	0.8794	2.098
Mof_La	La	0.52428	0.2359	0.62923	1.96
Mof_C 	C 	0.8963	0.6821	0.3185	0.315
Mof_C 	C 	0.8605	0.6514	0.2935	-0.081
Mof_C 	C 	0.8734	0.6157	0.2489	-0.035
Mof_H 	H 	0.9027	0.6127	0.2355	0.053
Mof_C 	C 	0.8443	0.5837	0.223	0.01
Mof_H 	H 	0.8543	0.5602	0.1922	0.03
Mof_C 	C 	0.8009	0.5868	0.2427	-0.125
Mof_C 	C 	0.7716	0.5521	0.2091	0.394
Mof_C 	C 	0.786	0.6215	0.2926	0.046
Mof_C 	C 	0.7418	0.6245	0.3125	-0.082
Mof_H 	H 	0.7222	0.6036	0.2943	0.047
Mof_C 	C 	0.7282	0.6592	0.3599	-0.034
Mof_H 	H 	0.6988	0.6616	0.3726	0.039
Mof_C 	C 	0.7566	0.6911	0.3896	-0.027
Mof_H 	H 	0.7468	0.713	0.4248	0.039
Mof_C 	C 	0.8002	0.6892	0.365	-0.086
Mof_H 	H 	0.8192	0.711	0.3822	0.08
Mof_C 	C 	0.816	0.6552	0.3151	0.037
Mof_C 	C 	0.0798	0.6704	0.0447	0.349
Mof_C 	C 	0.106	0.6336	0.0135	0.024
Mof_C 	C 	0.1498	0.6348	0.0342	-0.142
Mof_H 	H 	0.1606	0.6581	0.0647	0.096
Mof_C 	C 	0.178	0.6015	0.0099	0.198
Mof_H 	H 	0.2074	0.6036	0.0228	-0.033
Mof_C 	C 	0.1631	0.5657	0.9674	-0.269
Mof_C 	C 	0.1952	0.5301	0.9502	0.445
Mof_C 	C 	0.1185	0.5637	0.9408	0.15
Mof_C 	C 	0.1008	0.5298	0.8897	-0.185
Mof_H 	H 	0.1193	0.5083	0.8698	0.115
Mof_C 	C 	0.0581	0.5279	0.8695	0.063
Mof_H 	H 	0.0478	0.5048	0.8377	0.005
Mof_C 	C 	0.0289	0.5606	0.8965	-0.129
Mof_H 	H 	0.9997	0.5593	0.8821	0.071
Mof_C 	C 	0.0443	0.5946	0.9443	0.024
Mof_H 	H 	0.025	0.6157	0.9629	0.007
Mof_C 	C 	0.0892	0.5978	0.966	-0.104
Mof_C 	C 	0.044	0.6701	0.3179	0.417
Mof_C 	C 	0.0801	0.6396	0.2948	-0.117
Mof_C 	C 	0.1211	0.6477	0.3259	-0.019
Mof_H 	H 	0.1258	0.6711	0.3612	0.032
Mof_C 	C 	0.1559	0.6199	0.3035	0.006
Mof_H 	H 	0.1834	0.6251	0.3254	0.017
Mof_C 	C 	0.1504	0.5855	0.2506	-0.136
Mof_C 	C 	0.1911	0.562	0.2241	0.42
Mof_C 	C 	0.1077	0.5753	0.2171	0.071
Mof_C 	C 	0.0984	0.5406	0.1642	-0.112
Mof_H 	H 	0.1206	0.5221	0.147	0.095
Mof_C 	C 	0.0574	0.5338	0.1381	0.013
Mof_H 	H 	0.0521	0.5097	0.1045	0.035
Mof_C 	C 	0.0222	0.5606	0.1583	-0.06
Mof_H 	H 	0.9945	0.5552	0.1379	0.052
Mof_C 	C 	0.0305	0.5949	0.2091	-0.055
Mof_H 	H 	0.0077	0.6131	0.2241	0.037
Mof_C 	C 	0.0728	0.6038	0.24	0.023
Mof_O 	O 	0.93455	0.67425	0.2924	-0.456
Mof_O 	O 	0.88972	0.71501	0.3642	-0.421
Mof_O 	O 	0.75041	0.52734	0.2572	-0.574
Mof_O 	O 	0.76903	0.5473	0.1304	-0.443
Mof_O 	O 	0.04599	0.6838	0.0043	-0.547
Mof_O 	O 	0.09074	0.68908	0.1095	-0.453
Mof_O 	O 	0.23134	0.53022	0.9885	-0.645
Mof_O 	O 	0.18795	0.50217	0.8954	-0.489
Mof_O 	O 	0.02747	0.69511	0.266	-0.606
Mof_O 	O 	0.03188	0.67008	0.3926	-0.449
Mof_O 	O 	0.19061	0.5405	0.158	-0.474
Mof_O 	O 	0.22467	0.5647	0.2669	-0.571
Mof_La	La	0.97283	0.73013	0.3794	2.182
Mof_La	La	0.02428	0.7359	0.12923	1.962
Mof_C 	C 	0.3179	0.3963	0.5685	0.315
Mof_C 	C 	0.3486	0.3605	0.5435	-0.081
Mof_C 	C 	0.3843	0.3734	0.4989	-0.038
Mof_H 	H 	0.3873	0.4027	0.4855	0.052
Mof_C 	C 	0.4163	0.3443	0.473	0.011
Mof_H 	H 	0.4398	0.3543	0.4422	0.026
Mof_C 	C 	0.4132	0.3009	0.4927	-0.129
Mof_C 	C 	0.4479	0.2716	0.4591	0.396
Mof_C 	C 	0.3785	0.286	0.5426	0.047
Mof_C 	C 	0.3755	0.2418	0.5625	-0.084
Mof_H 	H 	0.3964	0.2222	0.5443	0.048
Mof_C 	C 	0.3408	0.2282	0.6099	-0.033
Mof_H 	H 	0.3384	0.1988	0.6226	0.039
Mof_C 	C 	0.3089	0.2566	0.6396	-0.028
Mof_H 	H 	0.287	0.2468	0.6748	0.039
Mof_C 	C 	0.3108	0.3002	0.615	-0.085
Mof_H 	H 	0.289	0.3192	0.6322	0.079
Mof_C 	C 	0.3448	0.316	0.5651	0.036
Mof_C 	C 	0.3296	0.5798	0.2947	0.391
Mof_C 	C 	0.3664	0.606	0.2635	-0.108
Mof_C 	C 	0.3652	0.6498	0.2842	-0.027
Mof_H 	H 	0.3419	0.6606	0.3147	0.05
Mof_C 	C 	0.3985	0.678	0.2599	0.027
Mof_H 	H 	0.3964	0.7074	0.2728	0.01
Mof_C 	C 	0.4343	0.6631	0.2174	-0.132
Mof_C 	C 	0.4699	0.6952	0.2002	0.405
Mof_C 	C 	0.4363	0.6185	0.1908	0.069
Mof_C 	C 	0.4702	0.6008	0.1397	-0.101
Mof_H 	H 	0.4917	0.6193	0.1198	0.097
Mof_C 	C 	0.4721	0.5581	0.1195	-0
Mof_H 	H 	0.4952	0.5478	0.0877	0.043
Mof_C 	C 	0.4394	0.5289	0.1465	-0.047
Mof_H 	H 	0.4407	0.4997	0.1321	0.055
Mof_C 	C 	0.4054	0.5443	0.1943	-0.055
Mof_H 	H 	0.3843	0.525	0.2129	0.053
Mof_C 	C 	0.4022	0.5892	0.216	0.028
Mof_C 	C 	0.3299	0.544	0.5679	0.417
Mof_C 	C 	0.3604	0.5801	0.5448	-0.117
Mof_C 	C 	0.3523	0.6211	0.5759	-0.02
Mof_H 	H 	0.3289	0.6258	0.6112	0.032
Mof_C 	C 	0.3801	0.6559	0.5535	0.007
Mof_H 	H 	0.3749	0.6834	0.5754	0.017
Mof_C 	C 	0.4145	0.6504	0.5006	-0.138
Mof_C 	C 	0.438	0.6911	0.4741	0.422
Mof_C 	C 	0.4247	0.6077	0.4671	0.072
Mof_C 	C 	0.4594	0.5984	0.4142	-0.116
Mof_H 	H 	0.4779	0.6206	0.397	0.089
Mof_C 	C 	0.4662	0.5574	0.3881	0.009
Mof_H 	H 	0.4903	0.5521	0.3545	0.024
Mof_C 	C 	0.4394	0.5222	0.4083	-0.065
Mof_H 	H 	0.4448	0.4945	0.3879	0.046
Mof_C 	C 	0.4051	0.5305	0.4591	-0.056
Mof_H 	H 	0.3869	0.5077	0.4741	0.035
Mof_C 	C 	0.3962	0.5728	0.49	0.022
Mof_O 	O 	0.32575	0.43455	0.5424	-0.457
Mof_O 	O 	0.28499	0.38972	0.6142	-0.421
Mof_O 	O 	0.47266	0.25041	0.5072	-0.572
Mof_O 	O 	0.4527	0.26903	0.3804	-0.453
Mof_O 	O 	0.3162	0.54599	0.2543	-0.595
Mof_O 	O 	0.31092	0.59074	0.3595	-0.466
Mof_O 	O 	0.46978	0.73134	0.2385	-0.603
Mof_O 	O 	0.49783	0.68795	0.1454	-0.467
Mof_O 	O 	0.30489	0.52747	0.516	-0.606
Mof_O 	O 	0.32992	0.53188	0.6426	-0.45
Mof_O 	O 	0.4595	0.69061	0.408	-0.48
Mof_O 	O 	0.4353	0.72467	0.5169	-0.57
Mof_La	La	0.26987	0.47283	0.6294	2.183
Mof_La	La	0.2641	0.52428	0.37923	1.959
Mof_C 	C 	0.8179	0.8963	0.0685	0.28
Mof_C 	C 	0.8486	0.8605	0.0435	0.05
Mof_C 	C 	0.8843	0.8734	0.9989	-0.202
Mof_H 	H 	0.8873	0.9027	0.9855	0.09
Mof_C 	C 	0.9163	0.8443	0.973	0.115
Mof_H 	H 	0.9398	0.8543	0.9422	-0.016
Mof_C 	C 	0.9132	0.8009	0.9927	-0.243
Mof_C 	C 	0.9479	0.7716	0.9591	0.367
Mof_C 	C 	0.8785	0.786	0.0426	0.173
Mof_C 	C 	0.8755	0.7418	0.0625	-0.167
Mof_H 	H 	0.8964	0.7222	0.0443	0.092
Mof_C 	C 	0.8408	0.7282	0.1099	0.043
Mof_H 	H 	0.8384	0.6988	0.1226	0.019
Mof_C 	C 	0.8089	0.7566	0.1396	-0.091
Mof_H 	H 	0.787	0.7468	0.1748	0.064
Mof_C 	C 	0.8108	0.8002	0.115	-0.01
Mof_H 	H 	0.789	0.8192	0.1322	0.056
Mof_C 	C 	0.8448	0.816	0.0651	-0.049
Mof_C 	C 	0.8296	0.0798	0.7947	0.393
Mof_C 	C 	0.8664	0.106	0.7635	-0.111
Mof_C 	C 	0.8652	0.1498	0.7842	-0.025
Mof_H 	H 	0.8419	0.1606	0.8147	0.044
Mof_C 	C 	0.8985	0.178	0.7599	0.023
Mof_H 	H 	0.8964	0.2074	0.7728	0.011
Mof_C 	C 	0.9343	0.1631	0.7174	-0.132
Mof_C 	C 	0.9699	0.1952	0.7002	0.401
Mof_C 	C 	0.9363	0.1185	0.6908	0.064
Mof_C 	C 	0.9702	0.1008	0.6397	-0.106
Mof_H 	H 	0.9917	0.1193	0.6198	0.089
Mof_C 	C 	0.9721	0.0581	0.6195	-0.005
Mof_H 	H 	0.9952	0.0478	0.5877	0.031
Mof_C 	C 	0.9394	0.0289	0.6465	-0.05
Mof_H 	H 	0.9407	0.9997	0.6321	0.048
Mof_C 	C 	0.9054	0.0443	0.6943	-0.059
Mof_H 	H 	0.8843	0.025	0.7129	0.054
Mof_C 	C 	0.9022	0.0892	0.716	0.029
Mof_C 	C 	0.8299	0.044	0.0679	0.408
Mof_C 	C 	0.8604	0.0801	0.0448	-0.074
Mof_C 	C 	0.8523	0.1211	0.0759	0.004
Mof_H 	H 	0.8289	0.1258	0.1112	0.028
Mof_C 	C 	0.8801	0.1559	0.0535	-0.051
Mof_H 	H 	0.8749	0.1834	0.0754	0.044
Mof_C 	C 	0.9145	0.1504	0.0006	0.005
Mof_C 	C 	0.938	0.1911	0.9741	0.278
Mof_C 	C 	0.9247	0.1077	0.9671	-0.015
Mof_C 	C 	0.9594	0.0984	0.9142	-0.068
Mof_H 	H 	0.9779	0.1206	0.897	0.068
Mof_C 	C 	0.9662	0.0574	0.8881	-0.025
Mof_H 	H 	0.9903	0.0521	0.8545	0.034
Mof_C 	C 	0.9394	0.0222	0.9083	-0.056
Mof_H 	H 	0.9448	0.9945	0.8879	0.038
Mof_C 	C 	0.9051	0.0305	0.9591	-0.058
Mof_H 	H 	0.8869	0.0077	0.9741	0.017
Mof_C 	C 	0.8962	0.0728	0.99	-0.01
Mof_O 	O 	0.82575	0.93455	0.0424	-0.429
Mof_O 	O 	0.78499	0.88972	0.1142	-0.407
Mof_O 	O 	0.97266	0.75041	0.0072	-0.523
Mof_O 	O 	0.9527	0.76903	0.8804	-0.447
Mof_O 	O 	0.8162	0.04599	0.7543	-0.589
Mof_O 	O 	0.81092	0.09074	0.8595	-0.475
Mof_O 	O 	0.96978	0.23134	0.7385	-0.597
Mof_O 	O 	0.99783	0.18795	0.6454	-0.474
Mof_O 	O 	0.80489	0.02747	0.016	-0.573
Mof_O 	O 	0.82992	0.03188	0.1426	-0.447
Mof_O 	O 	0.9595	0.19061	0.908	-0.444
Mof_O 	O 	0.9353	0.22467	0.0169	-0.495
Mof_La	La	0.76987	0.97283	0.1294	2.224
Mof_La	La	0.7641	0.02428	0.87923	1.903
Mof_C 	C 	0.1821	0.1037	0.0685	0.28
Mof_C 	C 	0.1514	0.1395	0.0435	0.05
Mof_C 	C 	0.1157	0.1266	0.9989	-0.202
Mof_H 	H 	0.1127	0.0973	0.9855	0.09
Mof_C 	C 	0.0837	0.1557	0.973	0.115
Mof_H 	H 	0.0602	0.1457	0.9422	-0.016
Mof_C 	C 	0.0868	0.1991	0.9927	-0.243
Mof_C 	C 	0.0521	0.2284	0.9591	0.367
Mof_C 	C 	0.1215	0.214	0.0426	0.173
Mof_C 	C 	0.1245	0.2582	0.0625	-0.167
Mof_H 	H 	0.1036	0.2778	0.0443	0.092
Mof_C 	C 	0.1592	0.2718	0.1099	0.043
Mof_H 	H 	0.1616	0.3012	0.1226	0.019
Mof_C 	C 	0.1911	0.2434	0.1396	-0.091
Mof_H 	H 	0.213	0.2532	0.1748	0.064
Mof_C 	C 	0.1892	0.1998	0.115	-0.01
Mof_H 	H 	0.211	0.1808	0.1322	0.056
Mof_C 	C 	0.1552	0.184	0.0651	-0.049
Mof_C 	C 	0.1704	0.9202	0.7947	0.393
Mof_C 	C 	0.1336	0.894	0.7635	-0.111
Mof_C 	C 	0.1348	0.8502	0.7842	-0.025
Mof_H 	H 	0.1581	0.8394	0.8147	0.044
Mof_C 	C 	0.1015	0.822	0.7599	0.023
Mof_H 	H 	0.1036	0.7926	0.7728	0.011
Mof_C 	C 	0.0657	0.8369	0.7174	-0.132
Mof_C 	C 	0.0301	0.8048	0.7002	0.401
Mof_C 	C 	0.0637	0.8815	0.6908	0.064
Mof_C 	C 	0.0298	0.8992	0.6397	-0.106
Mof_H 	H 	0.0083	0.8807	0.6198	0.089
Mof_C 	C 	0.0279	0.9419	0.6195	-0.005
Mof_H 	H 	0.0048	0.9522	0.5877	0.031
Mof_C 	C 	0.0606	0.9711	0.6465	-0.05
Mof_H 	H 	0.0593	0.0003	0.6321	0.048
Mof_C 	C 	0.0946	0.9557	0.6943	-0.059
Mof_H 	H 	0.1157	0.975	0.7129	0.054
Mof_C 	C 	0.0978	0.9108	0.716	0.029
Mof_C 	C 	0.1701	0.956	0.0679	0.408
Mof_C 	C 	0.1396	0.9199	0.0448	-0.074
Mof_C 	C 	0.1477	0.8789	0.0759	0.004
Mof_H 	H 	0.1711	0.8742	0.1112	0.028
Mof_C 	C 	0.1199	0.8441	0.0535	-0.051
Mof_H 	H 	0.1251	0.8166	0.0754	0.044
Mof_C 	C 	0.0855	0.8496	0.0006	0.005
Mof_C 	C 	0.062	0.8089	0.9741	0.278
Mof_C 	C 	0.0753	0.8923	0.9671	-0.015
Mof_C 	C 	0.0406	0.9016	0.9142	-0.068
Mof_H 	H 	0.0221	0.8794	0.897	0.068
Mof_C 	C 	0.0338	0.9426	0.8881	-0.025
Mof_H 	H 	0.0097	0.9479	0.8545	0.034
Mof_C 	C 	0.0606	0.9778	0.9083	-0.056
Mof_H 	H 	0.0552	0.0055	0.8879	0.038
Mof_C 	C 	0.0949	0.9695	0.9591	-0.058
Mof_H 	H 	0.1131	0.9923	0.9741	0.017
Mof_C 	C 	0.1038	0.9272	0.99	-0.01
Mof_O 	O 	0.17425	0.06545	0.0424	-0.429
Mof_O 	O 	0.21501	0.11028	0.1142	-0.407
Mof_O 	O 	0.02734	0.24959	0.0072	-0.523
Mof_O 	O 	0.0473	0.23097	0.8804	-0.447
Mof_O 	O 	0.1838	0.95401	0.7543	-0.589
Mof_O 	O 	0.18908	0.90926	0.8595	-0.475
Mof_O 	O 	0.03022	0.76866	0.7385	-0.597
Mof_O 	O 	0.00217	0.81205	0.6454	-0.474
Mof_O 	O 	0.19511	0.97253	0.016	-0.573
Mof_O 	O 	0.17008	0.96812	0.1426	-0.447
Mof_O 	O 	0.0405	0.80939	0.908	-0.444
Mof_O 	O 	0.0647	0.77533	0.0169	-0.495
Mof_La	La	0.23013	0.02717	0.1294	2.224
Mof_La	La	0.2359	0.97572	0.87923	1.903
Mof_C 	C 	0.6821	0.6037	0.5685	0.315
Mof_C 	C 	0.6514	0.6395	0.5435	-0.081
Mof_C 	C 	0.6157	0.6266	0.4989	-0.038
Mof_H 	H 	0.6127	0.5973	0.4855	0.052
Mof_C 	C 	0.5837	0.6557	0.473	0.011
Mof_H 	H 	0.5602	0.6457	0.4422	0.026
Mof_C 	C 	0.5868	0.6991	0.4927	-0.129
Mof_C 	C 	0.5521	0.7284	0.4591	0.396
Mof_C 	C 	0.6215	0.714	0.5426	0.047
Mof_C 	C 	0.6245	0.7582	0.5625	-0.084
Mof_H 	H 	0.6036	0.7778	0.5443	0.048
Mof_C 	C 	0.6592	0.7718	0.6099	-0.033
Mof_H 	H 	0.6616	0.8012	0.6226	0.039
Mof_C 	C 	0.6911	0.7434	0.6396	-0.028
Mof_H 	H 	0.713	0.7532	0.6748	0.039
Mof_C 	C 	0.6892	0.6998	0.615	-0.085
Mof_H 	H 	0.711	0.6808	0.6322	0.079
Mof_C 	C 	0.6552	0.684	0.5651	0.036
Mof_C 	C 	0.6704	0.4202	0.2947	0.391
Mof_C 	C 	0.6336	0.394	0.2635	-0.108
Mof_C 	C 	0.6348	0.3502	0.2842	-0.027
Mof_H 	H 	0.6581	0.3394	0.3147	0.05
Mof_C 	C 	0.6015	0.322	0.2599	0.027
Mof_H 	H 	0.6036	0.2926	0.2728	0.01
Mof_C 	C 	0.5657	0.3369	0.2174	-0.132
Mof_C 	C 	0.5301	0.3048	0.2002	0.405
Mof_C 	C 	0.5637	0.3815	0.1908	0.069
Mof_C 	C 	0.5298	0.3992	0.1397	-0.101
Mof_H 	H 	0.5083	0.3807	0.1198	0.097
Mof_C 	C 	0.5279	0.4419	0.1195	-0
Mof_H 	H 	0.5048	0.4522	0.0877	0.043
Mof_C 	C 	0.5606	0.4711	0.1465	-0.047
Mof_H 	H 	0.5593	0.5003	0.1321	0.055
Mof_C 	C 	0.5946	0.4557	0.1943	-0.055
Mof_H 	H 	0.6157	0.475	0.2129	0.053
Mof_C 	C 	0.5978	0.4108	0.216	0.028
Mof_C 	C 	0.6701	0.456	0.5679	0.417
Mof_C 	C 	0.6396	0.4199	0.5448	-0.117
Mof_C 	C 	0.6477	0.3789	0.5759	-0.02
Mof_H 	H 	0.6711	0.3742	0.6112	0.032
Mof_C 	C 	0.6199	0.3441	0.5535	0.007
Mof_H 	H 	0.6251	0.3166	0.5754	0.017
Mof_C 	C 	0.5855	0.3496	0.5006	-0.138
Mof_C 	C 	0.562	0.3089	0.4741	0.422
Mof_C 	C 	0.5753	0.3923	0.4671	0.072
Mof_C 	C 	0.5406	0.4016	0.4142	-0.116
Mof_H 	H 	0.5221	0.3794	0.397	0.089
Mof_C 	C 	0.5338	0.4426	0.3881	0.009
Mof_H 	H 	0.5097	0.4479	0.3545	0.024
Mof_C 	C 	0.5606	0.4778	0.4083	-0.065
Mof_H 	H 	0.5552	0.5055	0.3879	0.046
Mof_C 	C 	0.5949	0.4695	0.4591	-0.056
Mof_H 	H 	0.6131	0.4923	0.4741	0.035
Mof_C 	C 	0.6038	0.4272	0.49	0.022
Mof_O 	O 	0.67425	0.56545	0.5424	-0.457
Mof_O 	O 	0.71501	0.61028	0.6142	-0.421
Mof_O 	O 	0.52734	0.74959	0.5072	-0.572
Mof_O 	O 	0.5473	0.73097	0.3804	-0.453
Mof_O 	O 	0.6838	0.45401	0.2543	-0.595
Mof_O 	O 	0.68908	0.40926	0.3595	-0.466
Mof_O 	O 	0.53022	0.26866	0.2385	-0.603
Mof_O 	O 	0.50217	0.31205	0.1454	-0.467
Mof_O 	O 	0.69511	0.47253	0.516	-0.606
Mof_O 	O 	0.67008	0.46812	0.6426	-0.45
Mof_O 	O 	0.5405	0.30939	0.408	-0.48
Mof_O 	O 	0.5647	0.27533	0.5169	-0.57
Mof_La	La	0.73013	0.52717	0.6294	2.183
Mof_La	La	0.7359	0.47572	0.37923	1.959
_end
