data_functionalizedCrystal
_audit_creation_method	'EQeq! by Chris Wilmer'
_symmetry_space_group_name_H-M	'P1'
_symmetry_Int_Tables_number	1
_symmetry_cell_setting	triclinic
loop_
_symmetry_equiv_pos_as_xyz
  x,y,z
_cell_length_a	4.8105
_cell_length_b	7.6762
_cell_length_c	17.8448
_cell_angle_alpha	90
_cell_angle_beta	90
_cell_angle_gamma	90
loop_
_atom_site_label
_atom_site_type_symbol
_atom_site_fract_x
_atom_site_fract_y
_atom_site_fract_z
_atom_site_charge
Mof_Eu	Eu	0.97021	0.95735	0.28904	1.023
Mof_Eu	Eu	0.97021	0.04265	0.71096	1.023
Mof_Eu	Eu	0.97021	0.45735	0.21096	1.019
Mof_Eu	Eu	0.97021	0.54265	0.78904	1.019
Mof_C 	C 	0.478	0.1595	0.2772	0.491
Mof_C 	C 	0.0969	0.5335	0.4692	-0.013
Mof_C 	C 	0.0933	0.5956	0.3931	0.365
Mof_C 	C 	0.478	0.8405	0.7228	0.491
Mof_C 	C 	0.0969	0.4665	0.5308	-0.013
Mof_C 	C 	0.0933	0.4044	0.6069	0.365
Mof_C 	C 	0.478	0.6595	0.2228	0.491
Mof_C 	C 	0.0969	0.0335	0.0308	-0.015
Mof_C 	C 	0.0933	0.0956	0.1069	0.367
Mof_C 	C 	0.478	0.3405	0.7772	0.491
Mof_C 	C 	0.0969	0.9665	0.9692	-0.015
Mof_C 	C 	0.0933	0.9044	0.8931	0.367
Mof_O 	O 	0.233	0.1982	0.2393	-0.309
Mof_O 	O 	0.4633	0.0173	0.31148	-0.473
Mof_O 	O 	0.0701	0.7552	0.38545	-0.249
Mof_O 	O 	0.0949	0.4795	0.34446	-0.22
Mof_O 	O 	0.704	0.2457	0.27748	-0.612
Mof_O 	O 	0.233	0.8018	0.7607	-0.309
Mof_O 	O 	0.4633	0.9827	0.68852	-0.473
Mof_O 	O 	0.0701	0.2448	0.61455	-0.249
Mof_O 	O 	0.0949	0.5205	0.65554	-0.22
Mof_O 	O 	0.704	0.7543	0.72252	-0.612
Mof_O 	O 	0.233	0.6982	0.2607	-0.309
Mof_O 	O 	0.4633	0.5173	0.18852	-0.472
Mof_O 	O 	0.0701	0.2552	0.11455	-0.247
Mof_O 	O 	0.0949	0.9795	0.15554	-0.225
Mof_O 	O 	0.704	0.7457	0.22252	-0.612
Mof_O 	O 	0.233	0.3018	0.7393	-0.309
Mof_O 	O 	0.4633	0.4827	0.81148	-0.472
Mof_O 	O 	0.0701	0.7448	0.88545	-0.247
Mof_O 	O 	0.0949	0.0205	0.84446	-0.225
Mof_O 	O 	0.704	0.2543	0.77748	-0.612
_end
