data_functionalizedCrystal
_audit_creation_method	'EQeq! by Chris Wilmer'
_symmetry_space_group_name_H-M	'P1'
_symmetry_Int_Tables_number	1
_symmetry_cell_setting	triclinic
loop_
_symmetry_equiv_pos_as_xyz
  x,y,z
_cell_length_a	26.3016
_cell_length_b	26.3016
_cell_length_c	26.3016
_cell_angle_alpha	90
_cell_angle_beta	90
_cell_angle_gamma	90
loop_
_atom_site_label
_atom_site_type_symbol
_atom_site_fract_x
_atom_site_fract_y
_atom_site_fract_z
_atom_site_charge
Mof_O 	O 	0.24335	0.05261	0.183	-0.426
Mof_O 	O 	0.24335	0.55261	0.683	-0.405
Mof_O 	O 	0.74335	0.05261	0.683	-0.418
Mof_O 	O 	0.74335	0.55261	0.183	-0.406
Mof_O 	O 	0.75665	0.94739	0.183	-0.375
Mof_O 	O 	0.75665	0.44739	0.683	-0.402
Mof_O 	O 	0.25665	0.94739	0.683	-0.373
Mof_O 	O 	0.25665	0.44739	0.183	-0.411
Mof_O 	O 	0.75665	0.05261	0.817	-0.413
Mof_O 	O 	0.75665	0.55261	0.317	-0.402
Mof_O 	O 	0.25665	0.05261	0.317	-0.422
Mof_O 	O 	0.25665	0.55261	0.817	-0.4
Mof_O 	O 	0.24335	0.94739	0.817	-0.368
Mof_O 	O 	0.24335	0.44739	0.317	-0.405
Mof_O 	O 	0.74335	0.94739	0.317	-0.369
Mof_O 	O 	0.74335	0.44739	0.817	-0.396
Mof_O 	O 	0.183	0.24335	0.05261	-0.426
Mof_O 	O 	0.183	0.74335	0.55261	-0.406
Mof_O 	O 	0.683	0.24335	0.55261	-0.405
Mof_O 	O 	0.683	0.74335	0.05261	-0.418
Mof_O 	O 	0.183	0.75665	0.94739	-0.375
Mof_O 	O 	0.183	0.25665	0.44739	-0.411
Mof_O 	O 	0.683	0.75665	0.44739	-0.402
Mof_O 	O 	0.683	0.25665	0.94739	-0.373
Mof_O 	O 	0.817	0.75665	0.05261	-0.414
Mof_O 	O 	0.817	0.25665	0.55261	-0.401
Mof_O 	O 	0.317	0.75665	0.55261	-0.403
Mof_O 	O 	0.317	0.25665	0.05261	-0.423
Mof_O 	O 	0.817	0.24335	0.94739	-0.369
Mof_O 	O 	0.817	0.74335	0.44739	-0.397
Mof_O 	O 	0.317	0.24335	0.44739	-0.406
Mof_O 	O 	0.317	0.74335	0.94739	-0.37
Mof_O 	O 	0.05261	0.183	0.24335	-0.427
Mof_O 	O 	0.05261	0.683	0.74335	-0.419
Mof_O 	O 	0.55261	0.183	0.74335	-0.407
Mof_O 	O 	0.55261	0.683	0.24335	-0.406
Mof_O 	O 	0.94739	0.183	0.75665	-0.376
Mof_O 	O 	0.94739	0.683	0.25665	-0.374
Mof_O 	O 	0.44739	0.183	0.25665	-0.412
Mof_O 	O 	0.44739	0.683	0.75665	-0.403
Mof_O 	O 	0.05261	0.817	0.75665	-0.414
Mof_O 	O 	0.05261	0.317	0.25665	-0.423
Mof_O 	O 	0.55261	0.817	0.25665	-0.401
Mof_O 	O 	0.55261	0.317	0.75665	-0.403
Mof_O 	O 	0.94739	0.817	0.24335	-0.369
Mof_O 	O 	0.94739	0.317	0.74335	-0.37
Mof_O 	O 	0.44739	0.817	0.74335	-0.397
Mof_O 	O 	0.44739	0.317	0.24335	-0.406
Mof_O 	O 	0.05261	0.24335	0.817	-0.417
Mof_O 	O 	0.05261	0.74335	0.317	-0.419
Mof_O 	O 	0.55261	0.24335	0.317	-0.406
Mof_O 	O 	0.55261	0.74335	0.817	-0.397
Mof_O 	O 	0.94739	0.75665	0.817	-0.366
Mof_O 	O 	0.94739	0.25665	0.317	-0.375
Mof_O 	O 	0.44739	0.75665	0.317	-0.403
Mof_O 	O 	0.44739	0.25665	0.817	-0.401
Mof_O 	O 	0.05261	0.75665	0.183	-0.425
Mof_O 	O 	0.05261	0.25665	0.683	-0.423
Mof_O 	O 	0.55261	0.75665	0.683	-0.403
Mof_O 	O 	0.55261	0.25665	0.183	-0.412
Mof_O 	O 	0.94739	0.24335	0.183	-0.379
Mof_O 	O 	0.94739	0.74335	0.683	-0.37
Mof_O 	O 	0.44739	0.24335	0.683	-0.406
Mof_O 	O 	0.44739	0.74335	0.183	-0.407
Mof_O 	O 	0.24335	0.183	0.94739	-0.379
Mof_O 	O 	0.24335	0.683	0.44739	-0.406
Mof_O 	O 	0.74335	0.183	0.44739	-0.407
Mof_O 	O 	0.74335	0.683	0.94739	-0.37
Mof_O 	O 	0.75665	0.183	0.05261	-0.425
Mof_O 	O 	0.75665	0.683	0.55261	-0.403
Mof_O 	O 	0.25665	0.183	0.55261	-0.412
Mof_O 	O 	0.25665	0.683	0.05261	-0.423
Mof_O 	O 	0.75665	0.817	0.94739	-0.366
Mof_O 	O 	0.75665	0.317	0.44739	-0.403
Mof_O 	O 	0.25665	0.817	0.44739	-0.401
Mof_O 	O 	0.25665	0.317	0.94739	-0.375
Mof_O 	O 	0.24335	0.817	0.05261	-0.417
Mof_O 	O 	0.24335	0.317	0.55261	-0.406
Mof_O 	O 	0.74335	0.817	0.55261	-0.397
Mof_O 	O 	0.74335	0.317	0.05261	-0.419
Mof_O 	O 	0.183	0.05261	0.75665	-0.425
Mof_O 	O 	0.183	0.55261	0.25665	-0.412
Mof_O 	O 	0.683	0.05261	0.25665	-0.423
Mof_O 	O 	0.683	0.55261	0.75665	-0.403
Mof_O 	O 	0.183	0.94739	0.24335	-0.379
Mof_O 	O 	0.183	0.44739	0.74335	-0.407
Mof_O 	O 	0.683	0.94739	0.74335	-0.37
Mof_O 	O 	0.683	0.44739	0.24335	-0.406
Mof_O 	O 	0.817	0.05261	0.24335	-0.417
Mof_O 	O 	0.817	0.55261	0.74335	-0.397
Mof_O 	O 	0.317	0.05261	0.74335	-0.419
Mof_O 	O 	0.317	0.55261	0.24335	-0.406
Mof_O 	O 	0.817	0.94739	0.75665	-0.366
Mof_O 	O 	0.817	0.44739	0.25665	-0.401
Mof_O 	O 	0.317	0.94739	0.25665	-0.375
Mof_O 	O 	0.317	0.44739	0.75665	-0.403
Mof_O 	O 	0.75665	0.94739	0.817	-0.366
Mof_O 	O 	0.75665	0.44739	0.317	-0.403
Mof_O 	O 	0.25665	0.94739	0.317	-0.375
Mof_O 	O 	0.25665	0.44739	0.817	-0.401
Mof_O 	O 	0.24335	0.05261	0.817	-0.417
Mof_O 	O 	0.24335	0.55261	0.317	-0.406
Mof_O 	O 	0.74335	0.05261	0.317	-0.419
Mof_O 	O 	0.74335	0.55261	0.817	-0.397
Mof_O 	O 	0.24335	0.94739	0.183	-0.379
Mof_O 	O 	0.24335	0.44739	0.683	-0.406
Mof_O 	O 	0.74335	0.94739	0.683	-0.37
Mof_O 	O 	0.74335	0.44739	0.183	-0.407
Mof_O 	O 	0.75665	0.05261	0.183	-0.425
Mof_O 	O 	0.75665	0.55261	0.683	-0.403
Mof_O 	O 	0.25665	0.05261	0.683	-0.423
Mof_O 	O 	0.25665	0.55261	0.183	-0.412
Mof_O 	O 	0.817	0.75665	0.94739	-0.366
Mof_O 	O 	0.817	0.25665	0.44739	-0.401
Mof_O 	O 	0.317	0.75665	0.44739	-0.403
Mof_O 	O 	0.317	0.25665	0.94739	-0.375
Mof_O 	O 	0.817	0.24335	0.05261	-0.417
Mof_O 	O 	0.817	0.74335	0.55261	-0.397
Mof_O 	O 	0.317	0.24335	0.55261	-0.406
Mof_O 	O 	0.317	0.74335	0.05261	-0.419
Mof_O 	O 	0.183	0.24335	0.94739	-0.379
Mof_O 	O 	0.183	0.74335	0.44739	-0.407
Mof_O 	O 	0.683	0.24335	0.44739	-0.406
Mof_O 	O 	0.683	0.74335	0.94739	-0.37
Mof_O 	O 	0.183	0.75665	0.05261	-0.425
Mof_O 	O 	0.183	0.25665	0.55261	-0.412
Mof_O 	O 	0.683	0.75665	0.55261	-0.403
Mof_O 	O 	0.683	0.25665	0.05261	-0.423
Mof_O 	O 	0.94739	0.817	0.75665	-0.366
Mof_O 	O 	0.94739	0.317	0.25665	-0.375
Mof_O 	O 	0.44739	0.817	0.25665	-0.401
Mof_O 	O 	0.44739	0.317	0.75665	-0.403
Mof_O 	O 	0.05261	0.817	0.24335	-0.417
Mof_O 	O 	0.05261	0.317	0.74335	-0.419
Mof_O 	O 	0.55261	0.817	0.74335	-0.397
Mof_O 	O 	0.55261	0.317	0.24335	-0.406
Mof_O 	O 	0.94739	0.183	0.24335	-0.379
Mof_O 	O 	0.94739	0.683	0.74335	-0.37
Mof_O 	O 	0.44739	0.183	0.74335	-0.407
Mof_O 	O 	0.44739	0.683	0.24335	-0.406
Mof_O 	O 	0.05261	0.183	0.75665	-0.425
Mof_O 	O 	0.05261	0.683	0.25665	-0.423
Mof_O 	O 	0.55261	0.183	0.25665	-0.412
Mof_O 	O 	0.55261	0.683	0.75665	-0.403
Mof_O 	O 	0.94739	0.75665	0.183	-0.376
Mof_O 	O 	0.94739	0.25665	0.683	-0.374
Mof_O 	O 	0.44739	0.75665	0.683	-0.403
Mof_O 	O 	0.44739	0.25665	0.183	-0.412
Mof_O 	O 	0.05261	0.24335	0.183	-0.427
Mof_O 	O 	0.05261	0.74335	0.683	-0.419
Mof_O 	O 	0.55261	0.24335	0.683	-0.406
Mof_O 	O 	0.55261	0.74335	0.183	-0.407
Mof_O 	O 	0.94739	0.24335	0.817	-0.369
Mof_O 	O 	0.94739	0.74335	0.317	-0.37
Mof_O 	O 	0.44739	0.24335	0.317	-0.406
Mof_O 	O 	0.44739	0.74335	0.817	-0.397
Mof_O 	O 	0.05261	0.75665	0.817	-0.414
Mof_O 	O 	0.05261	0.25665	0.317	-0.423
Mof_O 	O 	0.55261	0.75665	0.317	-0.403
Mof_O 	O 	0.55261	0.25665	0.817	-0.401
Mof_O 	O 	0.75665	0.817	0.05261	-0.414
Mof_O 	O 	0.75665	0.317	0.55261	-0.403
Mof_O 	O 	0.25665	0.817	0.55261	-0.401
Mof_O 	O 	0.25665	0.317	0.05261	-0.423
Mof_O 	O 	0.24335	0.817	0.94739	-0.369
Mof_O 	O 	0.24335	0.317	0.44739	-0.406
Mof_O 	O 	0.74335	0.817	0.44739	-0.397
Mof_O 	O 	0.74335	0.317	0.94739	-0.37
Mof_O 	O 	0.24335	0.183	0.05261	-0.427
Mof_O 	O 	0.24335	0.683	0.55261	-0.406
Mof_O 	O 	0.74335	0.183	0.55261	-0.407
Mof_O 	O 	0.74335	0.683	0.05261	-0.419
Mof_O 	O 	0.75665	0.183	0.94739	-0.376
Mof_O 	O 	0.75665	0.683	0.44739	-0.403
Mof_O 	O 	0.25665	0.183	0.44739	-0.412
Mof_O 	O 	0.25665	0.683	0.94739	-0.374
Mof_O 	O 	0.817	0.94739	0.24335	-0.369
Mof_O 	O 	0.817	0.44739	0.74335	-0.397
Mof_O 	O 	0.317	0.94739	0.74335	-0.37
Mof_O 	O 	0.317	0.44739	0.24335	-0.406
Mof_O 	O 	0.817	0.05261	0.75665	-0.414
Mof_O 	O 	0.817	0.55261	0.25665	-0.401
Mof_O 	O 	0.317	0.05261	0.25665	-0.423
Mof_O 	O 	0.317	0.55261	0.75665	-0.403
Mof_O 	O 	0.183	0.94739	0.75665	-0.376
Mof_O 	O 	0.183	0.44739	0.25665	-0.412
Mof_O 	O 	0.683	0.94739	0.25665	-0.374
Mof_O 	O 	0.683	0.44739	0.75665	-0.403
Mof_O 	O 	0.183	0.05261	0.24335	-0.427
Mof_O 	O 	0.183	0.55261	0.74335	-0.407
Mof_O 	O 	0.683	0.05261	0.74335	-0.419
Mof_O 	O 	0.683	0.55261	0.24335	-0.406
Mof_C 	C 	0.13391	0.13391	0.1983	0.077
Mof_H 	H 	0.1195	0.1195	0.2273	0.026
Mof_C 	C 	0.13391	0.63391	0.6983	0.067
Mof_H 	H 	0.1195	0.6195	0.7273	0.038
Mof_C 	C 	0.63391	0.13391	0.6983	0.067
Mof_H 	H 	0.6195	0.1195	0.7273	0.038
Mof_C 	C 	0.63391	0.63391	0.1983	0.066
Mof_H 	H 	0.6195	0.6195	0.2273	0.041
Mof_C 	C 	0.86609	0.86609	0.1983	0.055
Mof_H 	H 	0.8805	0.8805	0.2273	0.058
Mof_C 	C 	0.86609	0.36609	0.6983	0.057
Mof_H 	H 	0.8805	0.3805	0.7273	0.054
Mof_C 	C 	0.36609	0.86609	0.6983	0.057
Mof_H 	H 	0.3805	0.8805	0.7273	0.054
Mof_C 	C 	0.36609	0.36609	0.1983	0.07
Mof_H 	H 	0.3805	0.3805	0.2273	0.04
Mof_C 	C 	0.86609	0.13391	0.8017	0.057
Mof_H 	H 	0.8805	0.1195	0.7727	0.047
Mof_C 	C 	0.86609	0.63391	0.3017	0.058
Mof_H 	H 	0.8805	0.6195	0.2727	0.05
Mof_C 	C 	0.36609	0.13391	0.3017	0.071
Mof_H 	H 	0.3805	0.1195	0.2727	0.034
Mof_C 	C 	0.36609	0.63391	0.8017	0.059
Mof_H 	H 	0.3805	0.6195	0.7727	0.046
Mof_C 	C 	0.13391	0.86609	0.8017	0.057
Mof_H 	H 	0.1195	0.8805	0.7727	0.047
Mof_C 	C 	0.13391	0.36609	0.3017	0.071
Mof_H 	H 	0.1195	0.3805	0.2727	0.034
Mof_C 	C 	0.63391	0.86609	0.3017	0.058
Mof_H 	H 	0.6195	0.8805	0.2727	0.05
Mof_C 	C 	0.63391	0.36609	0.8017	0.059
Mof_H 	H 	0.6195	0.3805	0.7727	0.046
Mof_C 	C 	0.1983	0.13391	0.13391	0.077
Mof_H 	H 	0.2273	0.1195	0.1195	0.026
Mof_C 	C 	0.1983	0.63391	0.63391	0.066
Mof_H 	H 	0.2273	0.6195	0.6195	0.041
Mof_C 	C 	0.6983	0.13391	0.63391	0.067
Mof_H 	H 	0.7273	0.1195	0.6195	0.038
Mof_C 	C 	0.6983	0.63391	0.13391	0.067
Mof_H 	H 	0.7273	0.6195	0.1195	0.038
Mof_C 	C 	0.1983	0.86609	0.86609	0.055
Mof_H 	H 	0.2273	0.8805	0.8805	0.058
Mof_C 	C 	0.1983	0.36609	0.36609	0.07
Mof_H 	H 	0.2273	0.3805	0.3805	0.04
Mof_C 	C 	0.6983	0.86609	0.36609	0.057
Mof_H 	H 	0.7273	0.8805	0.3805	0.054
Mof_C 	C 	0.6983	0.36609	0.86609	0.057
Mof_H 	H 	0.7273	0.3805	0.8805	0.054
Mof_C 	C 	0.8017	0.86609	0.13391	0.057
Mof_H 	H 	0.7727	0.8805	0.1195	0.047
Mof_C 	C 	0.8017	0.36609	0.63391	0.059
Mof_H 	H 	0.7727	0.3805	0.6195	0.046
Mof_C 	C 	0.3017	0.86609	0.63391	0.058
Mof_H 	H 	0.2727	0.8805	0.6195	0.05
Mof_C 	C 	0.3017	0.36609	0.13391	0.071
Mof_H 	H 	0.2727	0.3805	0.1195	0.034
Mof_C 	C 	0.8017	0.13391	0.86609	0.057
Mof_H 	H 	0.7727	0.1195	0.8805	0.047
Mof_C 	C 	0.8017	0.63391	0.36609	0.059
Mof_H 	H 	0.7727	0.6195	0.3805	0.046
Mof_C 	C 	0.3017	0.13391	0.36609	0.071
Mof_H 	H 	0.2727	0.1195	0.3805	0.034
Mof_C 	C 	0.3017	0.63391	0.86609	0.058
Mof_H 	H 	0.2727	0.6195	0.8805	0.05
Mof_C 	C 	0.13391	0.1983	0.13391	0.077
Mof_H 	H 	0.1195	0.2273	0.1195	0.026
Mof_C 	C 	0.13391	0.6983	0.63391	0.067
Mof_H 	H 	0.1195	0.7273	0.6195	0.038
Mof_C 	C 	0.63391	0.1983	0.63391	0.066
Mof_H 	H 	0.6195	0.2273	0.6195	0.041
Mof_C 	C 	0.63391	0.6983	0.13391	0.067
Mof_H 	H 	0.6195	0.7273	0.1195	0.038
Mof_C 	C 	0.86609	0.1983	0.86609	0.055
Mof_H 	H 	0.8805	0.2273	0.8805	0.058
Mof_C 	C 	0.86609	0.6983	0.36609	0.057
Mof_H 	H 	0.8805	0.7273	0.3805	0.054
Mof_C 	C 	0.36609	0.1983	0.36609	0.07
Mof_H 	H 	0.3805	0.2273	0.3805	0.04
Mof_C 	C 	0.36609	0.6983	0.86609	0.057
Mof_H 	H 	0.3805	0.7273	0.8805	0.054
Mof_C 	C 	0.13391	0.8017	0.86609	0.057
Mof_H 	H 	0.1195	0.7727	0.8805	0.047
Mof_C 	C 	0.13391	0.3017	0.36609	0.071
Mof_H 	H 	0.1195	0.2727	0.3805	0.034
Mof_C 	C 	0.63391	0.8017	0.36609	0.059
Mof_H 	H 	0.6195	0.7727	0.3805	0.046
Mof_C 	C 	0.63391	0.3017	0.86609	0.058
Mof_H 	H 	0.6195	0.2727	0.8805	0.05
Mof_C 	C 	0.86609	0.8017	0.13391	0.057
Mof_H 	H 	0.8805	0.7727	0.1195	0.047
Mof_C 	C 	0.86609	0.3017	0.63391	0.058
Mof_H 	H 	0.8805	0.2727	0.6195	0.05
Mof_C 	C 	0.36609	0.8017	0.63391	0.059
Mof_H 	H 	0.3805	0.7727	0.6195	0.046
Mof_C 	C 	0.36609	0.3017	0.13391	0.071
Mof_H 	H 	0.3805	0.2727	0.1195	0.034
Mof_C 	C 	0.13391	0.13391	0.8017	0.069
Mof_H 	H 	0.1195	0.1195	0.7727	0.031
Mof_C 	C 	0.13391	0.63391	0.3017	0.069
Mof_H 	H 	0.1195	0.6195	0.2727	0.034
Mof_C 	C 	0.63391	0.13391	0.3017	0.069
Mof_H 	H 	0.6195	0.1195	0.2727	0.034
Mof_C 	C 	0.63391	0.63391	0.8017	0.058
Mof_H 	H 	0.6195	0.6195	0.7727	0.047
Mof_C 	C 	0.86609	0.86609	0.8017	0.046
Mof_H 	H 	0.8805	0.8805	0.7727	0.063
Mof_C 	C 	0.86609	0.36609	0.3017	0.06
Mof_H 	H 	0.8805	0.3805	0.2727	0.05
Mof_C 	C 	0.36609	0.86609	0.3017	0.06
Mof_H 	H 	0.3805	0.8805	0.2727	0.05
Mof_C 	C 	0.36609	0.36609	0.8017	0.061
Mof_H 	H 	0.3805	0.3805	0.7727	0.045
Mof_C 	C 	0.13391	0.86609	0.1983	0.066
Mof_H 	H 	0.1195	0.8805	0.2273	0.042
Mof_C 	C 	0.13391	0.36609	0.6983	0.068
Mof_H 	H 	0.1195	0.3805	0.7273	0.038
Mof_C 	C 	0.63391	0.86609	0.6983	0.056
Mof_H 	H 	0.6195	0.8805	0.7273	0.054
Mof_C 	C 	0.63391	0.36609	0.1983	0.068
Mof_H 	H 	0.6195	0.3805	0.2273	0.041
Mof_C 	C 	0.86609	0.13391	0.1983	0.066
Mof_H 	H 	0.8805	0.1195	0.2273	0.042
Mof_C 	C 	0.86609	0.63391	0.6983	0.056
Mof_H 	H 	0.8805	0.6195	0.7273	0.054
Mof_C 	C 	0.36609	0.13391	0.6983	0.068
Mof_H 	H 	0.3805	0.1195	0.7273	0.038
Mof_C 	C 	0.36609	0.63391	0.1983	0.068
Mof_H 	H 	0.3805	0.6195	0.2273	0.041
Mof_C 	C 	0.13391	0.1983	0.86609	0.066
Mof_H 	H 	0.1195	0.2273	0.8805	0.042
Mof_C 	C 	0.13391	0.6983	0.36609	0.068
Mof_H 	H 	0.1195	0.7273	0.3805	0.038
Mof_C 	C 	0.63391	0.1983	0.36609	0.068
Mof_H 	H 	0.6195	0.2273	0.3805	0.041
Mof_C 	C 	0.63391	0.6983	0.86609	0.056
Mof_H 	H 	0.6195	0.7273	0.8805	0.054
Mof_C 	C 	0.86609	0.1983	0.13391	0.066
Mof_H 	H 	0.8805	0.2273	0.1195	0.042
Mof_C 	C 	0.86609	0.6983	0.63391	0.056
Mof_H 	H 	0.8805	0.7273	0.6195	0.054
Mof_C 	C 	0.36609	0.1983	0.63391	0.068
Mof_H 	H 	0.3805	0.2273	0.6195	0.041
Mof_C 	C 	0.36609	0.6983	0.13391	0.068
Mof_H 	H 	0.3805	0.7273	0.1195	0.038
Mof_C 	C 	0.86609	0.8017	0.86609	0.046
Mof_H 	H 	0.8805	0.7727	0.8805	0.063
Mof_C 	C 	0.86609	0.3017	0.36609	0.06
Mof_H 	H 	0.8805	0.2727	0.3805	0.05
Mof_C 	C 	0.36609	0.8017	0.36609	0.061
Mof_H 	H 	0.3805	0.7727	0.3805	0.045
Mof_C 	C 	0.36609	0.3017	0.86609	0.06
Mof_H 	H 	0.3805	0.2727	0.8805	0.05
Mof_C 	C 	0.13391	0.8017	0.13391	0.069
Mof_H 	H 	0.1195	0.7727	0.1195	0.031
Mof_C 	C 	0.13391	0.3017	0.63391	0.069
Mof_H 	H 	0.1195	0.2727	0.6195	0.034
Mof_C 	C 	0.63391	0.8017	0.63391	0.058
Mof_H 	H 	0.6195	0.7727	0.6195	0.047
Mof_C 	C 	0.63391	0.3017	0.13391	0.069
Mof_H 	H 	0.6195	0.2727	0.1195	0.034
Mof_C 	C 	0.1983	0.13391	0.86609	0.066
Mof_H 	H 	0.2273	0.1195	0.8805	0.042
Mof_C 	C 	0.1983	0.63391	0.36609	0.068
Mof_H 	H 	0.2273	0.6195	0.3805	0.041
Mof_C 	C 	0.6983	0.13391	0.36609	0.068
Mof_H 	H 	0.7273	0.1195	0.3805	0.038
Mof_C 	C 	0.6983	0.63391	0.86609	0.056
Mof_H 	H 	0.7273	0.6195	0.8805	0.054
Mof_C 	C 	0.1983	0.86609	0.13391	0.066
Mof_H 	H 	0.2273	0.8805	0.1195	0.042
Mof_C 	C 	0.1983	0.36609	0.63391	0.068
Mof_H 	H 	0.2273	0.3805	0.6195	0.041
Mof_C 	C 	0.6983	0.86609	0.63391	0.056
Mof_H 	H 	0.7273	0.8805	0.6195	0.054
Mof_C 	C 	0.6983	0.36609	0.13391	0.068
Mof_H 	H 	0.7273	0.3805	0.1195	0.038
Mof_C 	C 	0.8017	0.13391	0.13391	0.069
Mof_H 	H 	0.7727	0.1195	0.1195	0.031
Mof_C 	C 	0.8017	0.63391	0.63391	0.058
Mof_H 	H 	0.7727	0.6195	0.6195	0.047
Mof_C 	C 	0.3017	0.13391	0.63391	0.069
Mof_H 	H 	0.2727	0.1195	0.6195	0.034
Mof_C 	C 	0.3017	0.63391	0.13391	0.069
Mof_H 	H 	0.2727	0.6195	0.1195	0.034
Mof_C 	C 	0.8017	0.86609	0.86609	0.046
Mof_H 	H 	0.7727	0.8805	0.8805	0.063
Mof_C 	C 	0.8017	0.36609	0.36609	0.061
Mof_H 	H 	0.7727	0.3805	0.3805	0.045
Mof_C 	C 	0.3017	0.86609	0.36609	0.06
Mof_H 	H 	0.2727	0.8805	0.3805	0.05
Mof_C 	C 	0.3017	0.36609	0.86609	0.06
Mof_H 	H 	0.2727	0.3805	0.8805	0.05
Mof_Cu	Cu	0.28513	0	0.21487	0.874
Mof_Cu	Cu	0.28513	0.5	0.71487	0.905
Mof_Cu	Cu	0.71487	0	0.21487	0.874
Mof_Cu	Cu	0.71487	0.5	0.71487	0.905
Mof_Cu	Cu	0.21487	0.5	0.21487	0.902
Mof_Cu	Cu	0.71487	5.54963e-33	0.78513	0.878
Mof_Cu	Cu	0.71487	0.5	0.28513	0.905
Mof_Cu	Cu	0.21487	0	0.28513	0.874
Mof_Cu	Cu	0.28513	5.54963e-33	0.78513	0.878
Mof_Cu	Cu	0.28513	0.5	0.28513	0.905
Mof_Cu	Cu	0.21487	0.28513	-0	0.874
Mof_Cu	Cu	0.21487	0.78513	0.5	0.905
Mof_Cu	Cu	0.21487	0.71487	-0	0.874
Mof_Cu	Cu	0.21487	0.21487	0.5	0.902
Mof_Cu	Cu	0.78513	0.71487	-0	0.878
Mof_Cu	Cu	0.78513	0.21487	0.5	0.905
Mof_Cu	Cu	0.28513	0.21487	-0	0.874
Mof_Cu	Cu	0.78513	0.28513	-0	0.878
Mof_Cu	Cu	0.78513	0.78513	0.5	0.909
Mof_Cu	Cu	0.28513	0.28513	0.5	0.905
Mof_Cu	Cu	-4.48056e-33	0.21487	0.28513	0.874
Mof_Cu	Cu	0.5	0.21487	0.78513	0.905
Mof_Cu	Cu	2.68033e-33	0.21487	0.71487	0.874
Mof_Cu	Cu	0.5	0.21487	0.21487	0.902
Mof_Cu	Cu	1.93292e-32	0.78513	0.71487	0.878
Mof_Cu	Cu	-1.96918e-33	0.28513	0.21487	0.874
Mof_Cu	Cu	0.5	0.78513	0.21487	0.905
Mof_Cu	Cu	3.84388e-33	0.78513	0.28513	0.878
Mof_Cu	Cu	0.5	0.78513	0.78513	0.909
Mof_Cu	Cu	0.5	0.28513	0.28513	0.905
Mof_Cu	Cu	2.94377e-33	0.28513	0.78513	0.878
Mof_Cu	Cu	1.95927e-32	0.71487	0.78513	0.878
Mof_Cu	Cu	0.5	0.71487	0.28513	0.905
Mof_Cu	Cu	8.05633e-34	0.71487	0.21487	0.874
Mof_Cu	Cu	0.5	0.71487	0.71487	0.905
Mof_Cu	Cu	0.5	0.28513	0.71487	0.905
Mof_Cu	Cu	0.28513	0.71487	0.5	0.905
Mof_Cu	Cu	0.71487	0.21487	-0	0.874
Mof_Cu	Cu	0.71487	0.71487	0.5	0.905
Mof_Cu	Cu	0.71487	0.78513	-0	0.878
Mof_Cu	Cu	0.71487	0.28513	0.5	0.905
Mof_Cu	Cu	0.28513	0.78513	-0	0.878
Mof_Cu	Cu	0.21487	5.54963e-33	0.71487	0.874
Mof_Cu	Cu	0.21487	0.5	0.78513	0.905
Mof_Cu	Cu	0.78513	0	0.28513	0.878
Mof_Cu	Cu	0.78513	0.5	0.78513	0.909
Mof_Cu	Cu	0.78513	5.54963e-33	0.71487	0.878
Mof_Cu	Cu	0.78513	0.5	0.21487	0.905
Mof_C 	C 	0.17692	0.1122	0.17692	-0.144
Mof_C 	C 	0.20276	0.06875	0.20276	0.371
Mof_C 	C 	0.17692	0.6122	0.67692	-0.123
Mof_C 	C 	0.20276	0.56875	0.70276	0.367
Mof_C 	C 	0.67692	0.1122	0.67692	-0.127
Mof_C 	C 	0.70276	0.06875	0.70276	0.367
Mof_C 	C 	0.67692	0.6122	0.17692	-0.123
Mof_C 	C 	0.70276	0.56875	0.20276	0.367
Mof_C 	C 	0.82308	0.8878	0.17692	-0.102
Mof_C 	C 	0.79724	0.93125	0.20276	0.36
Mof_C 	C 	0.82308	0.3878	0.67692	-0.109
Mof_C 	C 	0.79724	0.43125	0.70276	0.364
Mof_C 	C 	0.32308	0.8878	0.67692	-0.104
Mof_C 	C 	0.29724	0.93125	0.70276	0.36
Mof_C 	C 	0.32308	0.3878	0.17692	-0.127
Mof_C 	C 	0.29724	0.43125	0.20276	0.369
Mof_C 	C 	0.82308	0.1122	0.82308	-0.113
Mof_C 	C 	0.79724	0.06875	0.79724	0.365
Mof_C 	C 	0.82308	0.6122	0.32308	-0.11
Mof_C 	C 	0.79724	0.56875	0.29724	0.366
Mof_C 	C 	0.32308	0.1122	0.32308	-0.132
Mof_C 	C 	0.29724	0.06875	0.29724	0.37
Mof_C 	C 	0.32308	0.6122	0.82308	-0.11
Mof_C 	C 	0.29724	0.56875	0.79724	0.366
Mof_C 	C 	0.17692	0.8878	0.82308	-0.102
Mof_C 	C 	0.20276	0.93125	0.79724	0.36
Mof_C 	C 	0.17692	0.3878	0.32308	-0.127
Mof_C 	C 	0.20276	0.43125	0.29724	0.369
Mof_C 	C 	0.67692	0.8878	0.32308	-0.104
Mof_C 	C 	0.70276	0.93125	0.29724	0.36
Mof_C 	C 	0.67692	0.3878	0.82308	-0.109
Mof_C 	C 	0.70276	0.43125	0.79724	0.364
Mof_C 	C 	0.17692	0.17692	0.1122	-0.144
Mof_C 	C 	0.20276	0.20276	0.06875	0.371
Mof_C 	C 	0.17692	0.67692	0.6122	-0.123
Mof_C 	C 	0.20276	0.70276	0.56875	0.367
Mof_C 	C 	0.67692	0.17692	0.6122	-0.123
Mof_C 	C 	0.70276	0.20276	0.56875	0.367
Mof_C 	C 	0.67692	0.67692	0.1122	-0.127
Mof_C 	C 	0.70276	0.70276	0.06875	0.367
Mof_C 	C 	0.17692	0.82308	0.8878	-0.102
Mof_C 	C 	0.20276	0.79724	0.93125	0.36
Mof_C 	C 	0.17692	0.32308	0.3878	-0.127
Mof_C 	C 	0.20276	0.29724	0.43125	0.369
Mof_C 	C 	0.67692	0.82308	0.3878	-0.109
Mof_C 	C 	0.70276	0.79724	0.43125	0.364
Mof_C 	C 	0.67692	0.32308	0.8878	-0.104
Mof_C 	C 	0.70276	0.29724	0.93125	0.36
Mof_C 	C 	0.82308	0.82308	0.1122	-0.113
Mof_C 	C 	0.79724	0.79724	0.06875	0.365
Mof_C 	C 	0.82308	0.32308	0.6122	-0.11
Mof_C 	C 	0.79724	0.29724	0.56875	0.366
Mof_C 	C 	0.32308	0.82308	0.6122	-0.11
Mof_C 	C 	0.29724	0.79724	0.56875	0.366
Mof_C 	C 	0.32308	0.32308	0.1122	-0.132
Mof_C 	C 	0.29724	0.29724	0.06875	0.37
Mof_C 	C 	0.82308	0.17692	0.8878	-0.102
Mof_C 	C 	0.79724	0.20276	0.93125	0.36
Mof_C 	C 	0.82308	0.67692	0.3878	-0.109
Mof_C 	C 	0.79724	0.70276	0.43125	0.364
Mof_C 	C 	0.32308	0.17692	0.3878	-0.127
Mof_C 	C 	0.29724	0.20276	0.43125	0.369
Mof_C 	C 	0.32308	0.67692	0.8878	-0.104
Mof_C 	C 	0.29724	0.70276	0.93125	0.36
Mof_C 	C 	0.1122	0.17692	0.17692	-0.144
Mof_C 	C 	0.06875	0.20276	0.20276	0.371
Mof_C 	C 	0.1122	0.67692	0.67692	-0.127
Mof_C 	C 	0.06875	0.70276	0.70276	0.367
Mof_C 	C 	0.6122	0.17692	0.67692	-0.123
Mof_C 	C 	0.56875	0.20276	0.70276	0.367
Mof_C 	C 	0.6122	0.67692	0.17692	-0.123
Mof_C 	C 	0.56875	0.70276	0.20276	0.367
Mof_C 	C 	0.8878	0.17692	0.82308	-0.102
Mof_C 	C 	0.93125	0.20276	0.79724	0.36
Mof_C 	C 	0.8878	0.67692	0.32308	-0.104
Mof_C 	C 	0.93125	0.70276	0.29724	0.36
Mof_C 	C 	0.3878	0.17692	0.32308	-0.127
Mof_C 	C 	0.43125	0.20276	0.29724	0.369
Mof_C 	C 	0.3878	0.67692	0.82308	-0.109
Mof_C 	C 	0.43125	0.70276	0.79724	0.364
Mof_C 	C 	0.1122	0.82308	0.82308	-0.113
Mof_C 	C 	0.06875	0.79724	0.79724	0.365
Mof_C 	C 	0.1122	0.32308	0.32308	-0.132
Mof_C 	C 	0.06875	0.29724	0.29724	0.37
Mof_C 	C 	0.6122	0.82308	0.32308	-0.11
Mof_C 	C 	0.56875	0.79724	0.29724	0.366
Mof_C 	C 	0.6122	0.32308	0.82308	-0.11
Mof_C 	C 	0.56875	0.29724	0.79724	0.366
Mof_C 	C 	0.8878	0.82308	0.17692	-0.102
Mof_C 	C 	0.93125	0.79724	0.20276	0.36
Mof_C 	C 	0.8878	0.32308	0.67692	-0.104
Mof_C 	C 	0.93125	0.29724	0.70276	0.36
Mof_C 	C 	0.3878	0.82308	0.67692	-0.109
Mof_C 	C 	0.43125	0.79724	0.70276	0.364
Mof_C 	C 	0.3878	0.32308	0.17692	-0.127
Mof_C 	C 	0.43125	0.29724	0.20276	0.369
Mof_C 	C 	0.1122	0.17692	0.82308	-0.128
Mof_C 	C 	0.06875	0.20276	0.79724	0.368
Mof_C 	C 	0.1122	0.67692	0.32308	-0.13
Mof_C 	C 	0.06875	0.70276	0.29724	0.368
Mof_C 	C 	0.6122	0.17692	0.32308	-0.126
Mof_C 	C 	0.56875	0.20276	0.29724	0.369
Mof_C 	C 	0.6122	0.67692	0.82308	-0.108
Mof_C 	C 	0.56875	0.70276	0.79724	0.364
Mof_C 	C 	0.8878	0.82308	0.82308	-0.087
Mof_C 	C 	0.93125	0.79724	0.79724	0.356
Mof_C 	C 	0.8878	0.32308	0.32308	-0.106
Mof_C 	C 	0.93125	0.29724	0.29724	0.362
Mof_C 	C 	0.3878	0.82308	0.32308	-0.112
Mof_C 	C 	0.43125	0.79724	0.29724	0.366
Mof_C 	C 	0.3878	0.32308	0.82308	-0.112
Mof_C 	C 	0.43125	0.29724	0.79724	0.366
Mof_C 	C 	0.1122	0.82308	0.17692	-0.128
Mof_C 	C 	0.06875	0.79724	0.20276	0.368
Mof_C 	C 	0.1122	0.32308	0.67692	-0.13
Mof_C 	C 	0.06875	0.29724	0.70276	0.368
Mof_C 	C 	0.6122	0.82308	0.67692	-0.108
Mof_C 	C 	0.56875	0.79724	0.70276	0.364
Mof_C 	C 	0.6122	0.32308	0.17692	-0.126
Mof_C 	C 	0.56875	0.29724	0.20276	0.369
Mof_C 	C 	0.8878	0.17692	0.17692	-0.118
Mof_C 	C 	0.93125	0.20276	0.20276	0.363
Mof_C 	C 	0.8878	0.67692	0.67692	-0.101
Mof_C 	C 	0.93125	0.70276	0.70276	0.358
Mof_C 	C 	0.3878	0.17692	0.67692	-0.125
Mof_C 	C 	0.43125	0.20276	0.70276	0.368
Mof_C 	C 	0.3878	0.67692	0.17692	-0.125
Mof_C 	C 	0.43125	0.70276	0.20276	0.368
Mof_C 	C 	0.17692	0.17692	0.8878	-0.118
Mof_C 	C 	0.20276	0.20276	0.93125	0.363
Mof_C 	C 	0.17692	0.67692	0.3878	-0.125
Mof_C 	C 	0.20276	0.70276	0.43125	0.368
Mof_C 	C 	0.67692	0.17692	0.3878	-0.125
Mof_C 	C 	0.70276	0.20276	0.43125	0.368
Mof_C 	C 	0.67692	0.67692	0.8878	-0.101
Mof_C 	C 	0.70276	0.70276	0.93125	0.358
Mof_C 	C 	0.82308	0.17692	0.1122	-0.128
Mof_C 	C 	0.79724	0.20276	0.06875	0.368
Mof_C 	C 	0.82308	0.67692	0.6122	-0.108
Mof_C 	C 	0.79724	0.70276	0.56875	0.364
Mof_C 	C 	0.32308	0.17692	0.6122	-0.126
Mof_C 	C 	0.29724	0.20276	0.56875	0.369
Mof_C 	C 	0.32308	0.67692	0.1122	-0.13
Mof_C 	C 	0.29724	0.70276	0.06875	0.368
Mof_C 	C 	0.82308	0.82308	0.8878	-0.087
Mof_C 	C 	0.79724	0.79724	0.93125	0.356
Mof_C 	C 	0.82308	0.32308	0.3878	-0.112
Mof_C 	C 	0.79724	0.29724	0.43125	0.366
Mof_C 	C 	0.32308	0.82308	0.3878	-0.112
Mof_C 	C 	0.29724	0.79724	0.43125	0.366
Mof_C 	C 	0.32308	0.32308	0.8878	-0.106
Mof_C 	C 	0.29724	0.29724	0.93125	0.362
Mof_C 	C 	0.17692	0.82308	0.1122	-0.128
Mof_C 	C 	0.20276	0.79724	0.06875	0.368
Mof_C 	C 	0.17692	0.32308	0.6122	-0.126
Mof_C 	C 	0.20276	0.29724	0.56875	0.369
Mof_C 	C 	0.67692	0.82308	0.6122	-0.108
Mof_C 	C 	0.70276	0.79724	0.56875	0.364
Mof_C 	C 	0.67692	0.32308	0.1122	-0.13
Mof_C 	C 	0.70276	0.29724	0.06875	0.368
Mof_C 	C 	0.17692	0.1122	0.82308	-0.128
Mof_C 	C 	0.20276	0.06875	0.79724	0.368
Mof_C 	C 	0.17692	0.6122	0.32308	-0.126
Mof_C 	C 	0.20276	0.56875	0.29724	0.369
Mof_C 	C 	0.67692	0.1122	0.32308	-0.13
Mof_C 	C 	0.70276	0.06875	0.29724	0.368
Mof_C 	C 	0.67692	0.6122	0.82308	-0.108
Mof_C 	C 	0.70276	0.56875	0.79724	0.364
Mof_C 	C 	0.17692	0.8878	0.17692	-0.118
Mof_C 	C 	0.20276	0.93125	0.20276	0.363
Mof_C 	C 	0.17692	0.3878	0.67692	-0.125
Mof_C 	C 	0.20276	0.43125	0.70276	0.368
Mof_C 	C 	0.67692	0.8878	0.67692	-0.101
Mof_C 	C 	0.70276	0.93125	0.70276	0.358
Mof_C 	C 	0.67692	0.3878	0.17692	-0.125
Mof_C 	C 	0.70276	0.43125	0.20276	0.368
Mof_C 	C 	0.82308	0.1122	0.17692	-0.128
Mof_C 	C 	0.79724	0.06875	0.20276	0.368
Mof_C 	C 	0.82308	0.6122	0.67692	-0.108
Mof_C 	C 	0.79724	0.56875	0.70276	0.364
Mof_C 	C 	0.32308	0.1122	0.67692	-0.13
Mof_C 	C 	0.29724	0.06875	0.70276	0.368
Mof_C 	C 	0.32308	0.6122	0.17692	-0.126
Mof_C 	C 	0.29724	0.56875	0.20276	0.369
Mof_C 	C 	0.82308	0.8878	0.82308	-0.087
Mof_C 	C 	0.79724	0.93125	0.79724	0.356
Mof_C 	C 	0.82308	0.3878	0.32308	-0.112
Mof_C 	C 	0.79724	0.43125	0.29724	0.366
Mof_C 	C 	0.32308	0.8878	0.32308	-0.106
Mof_C 	C 	0.29724	0.93125	0.29724	0.362
Mof_C 	C 	0.32308	0.3878	0.82308	-0.112
Mof_C 	C 	0.29724	0.43125	0.79724	0.366
_end
