data_functionalizedCrystal
_audit_creation_method	'EQeq! by Chris Wilmer'
_symmetry_space_group_name_H-M	'P1'
_symmetry_Int_Tables_number	1
_symmetry_cell_setting	triclinic
loop_
_symmetry_equiv_pos_as_xyz
  x,y,z
_cell_length_a	34.3562
_cell_length_b	34.3562
_cell_length_c	15.0094
_cell_angle_alpha	90
_cell_angle_beta	90
_cell_angle_gamma	90
loop_
_atom_site_label
_atom_site_type_symbol
_atom_site_fract_x
_atom_site_fract_y
_atom_site_fract_z
_atom_site_charge
Mof_F 	F 	0.6038	0.2248	0.092	-0.081
Mof_F 	F 	0.5977	0.2648	0.202	-0.069
Mof_F 	F 	0.5567	0.2661	0.092	-0.081
Mof_F 	F 	0.6048	0.2736	0.4594	-0.124
Mof_F 	F 	0.5774	0.2222	0.4293	-0.137
Mof_F 	F 	0.612	0.248	0.3353	-0.124
Mof_F 	F 	0.4341	0.9699	0.4308	-0.341
Mof_O 	O 	0.4977	0.0853	0.1855	-0.679
Mof_O 	O 	0.5503	0.0979	0.1027	-0.712
Mof_O 	O 	0.4842	0.4002	0.3604	-0.72
Mof_O 	O 	0.5426	0.3951	0.4194	-0.675
Mof_O 	O 	0.5302	0.0201	0.1175	-1.276
Mof_O 	O 	0.4393	0.0115	0.0168	-1.389
Mof_C 	C 	0.5263	0.1066	0.1563	0.75
Mof_C 	C 	0.5283	0.146	0.1989	-0.632
Mof_C 	C 	0.5509	0.1747	0.1587	0.84
Mof_H 	H 	0.5659	0.1686	0.1075	-0.166
Mof_C 	C 	0.5513	0.2122	0.1935	-1.066
Mof_C 	C 	0.5293	0.221	0.2684	0.775
Mof_C 	C 	0.5067	0.1924	0.3086	-1.053
Mof_H 	H 	0.4916	0.1984	0.3598	1.221
Mof_C 	C 	0.5062	0.1549	0.2738	0.838
Mof_H 	H 	0.4908	0.1353	0.3012	-0.138
Mof_C 	C 	0.5769	0.2423	0.146	-0.899
Mof_C 	C 	0.5252	0.2626	0.301	0.275
Mof_C 	C 	0.5515	0.279	0.3605	-0.439
Mof_C 	C 	0.5478	0.3178	0.3851	0.438
Mof_H 	H 	0.5658	0.329	0.4257	-0.003
Mof_C 	C 	0.5178	0.3402	0.3501	-0.384
Mof_C 	C 	0.4915	0.3238	0.2906	0.493
Mof_H 	H 	0.471	0.3392	0.2667	-0.051
Mof_C 	C 	0.4952	0.285	0.266	-0.556
Mof_H 	H 	0.4772	0.2738	0.2253	0.915
Mof_C 	C 	0.5833	0.2577	0.3935	-0.377
Mof_C 	C 	0.5154	0.3815	0.3826	0.685
Mof_C 	C 	0.4673	0.986	0.4649	0.287
Mof_F 	F 	0.5005	0.2189	0.4568	-0.068
Mof_F 	F 	0.4677	0.1675	0.4291	-0.084
Mof_F 	F 	0.4498	0.2218	0.3724	-0.098
Mof_F 	F 	0.4453	0.2946	0.158	-0.155
Mof_F 	F 	0.4519	0.2389	0.201	-0.188
Mof_F 	F 	0.491	0.263	0.116	-0.111
Mof_H 	H 	0.5668	0.2317	0.1661	1.244
Mof_C 	C 	0.4817	0.2006	0.391	-0.874
Mof_H 	H 	0.572	0.2636	0.3844	0.713
Mof_C 	C 	0.4734	0.2714	0.193	-0.627
Mof_F 	F 	0.8962	0.2752	0.092	-0.082
Mof_F 	F 	0.9023	0.2352	0.202	-0.07
Mof_F 	F 	0.9433	0.2339	0.092	-0.083
Mof_F 	F 	0.8952	0.2264	0.4594	-0.124
Mof_F 	F 	0.9226	0.2778	0.4293	-0.137
Mof_F 	F 	0.888	0.252	0.3353	-0.124
Mof_F 	F 	0.0659	0.5301	0.4308	-0.341
Mof_O 	O 	0.0023	0.4147	0.1855	-0.677
Mof_O 	O 	0.9497	0.4021	0.1027	-0.712
Mof_O 	O 	0.0158	0.0998	0.3604	-0.718
Mof_O 	O 	0.9574	0.1049	0.4194	-0.674
Mof_O 	O 	0.9698	0.4799	0.1175	-1.278
Mof_O 	O 	0.0607	0.4885	0.0168	-1.39
Mof_C 	C 	0.9737	0.3934	0.1563	0.747
Mof_C 	C 	0.9717	0.354	0.1989	-0.631
Mof_C 	C 	0.9491	0.3253	0.1587	0.839
Mof_H 	H 	0.9341	0.3314	0.1075	-0.166
Mof_C 	C 	0.9487	0.2878	0.1935	-1.066
Mof_C 	C 	0.9707	0.279	0.2684	0.776
Mof_C 	C 	0.9933	0.3076	0.3086	-1.054
Mof_H 	H 	0.0084	0.3016	0.3598	1.222
Mof_C 	C 	0.9938	0.3451	0.2738	0.834
Mof_H 	H 	0.0092	0.3647	0.3012	-0.136
Mof_C 	C 	0.9231	0.2577	0.146	-0.899
Mof_C 	C 	0.9748	0.2374	0.301	0.272
Mof_C 	C 	0.9485	0.221	0.3605	-0.438
Mof_C 	C 	0.9522	0.1822	0.3851	0.438
Mof_H 	H 	0.9342	0.171	0.4257	-0.003
Mof_C 	C 	0.9822	0.1598	0.3501	-0.385
Mof_C 	C 	0.0085	0.1762	0.2906	0.495
Mof_H 	H 	0.029	0.1608	0.2667	-0.051
Mof_C 	C 	0.0048	0.215	0.266	-0.554
Mof_H 	H 	0.0228	0.2262	0.2253	0.915
Mof_C 	C 	0.9167	0.2423	0.3935	-0.378
Mof_C 	C 	0.9846	0.1185	0.3826	0.683
Mof_C 	C 	0.0327	0.514	0.4649	0.289
Mof_F 	F 	0.9995	0.2811	0.4568	-0.069
Mof_F 	F 	0.0323	0.3325	0.4291	-0.084
Mof_F 	F 	0.0502	0.2782	0.3724	-0.098
Mof_F 	F 	0.0547	0.2054	0.158	-0.154
Mof_F 	F 	0.0481	0.2611	0.201	-0.187
Mof_F 	F 	0.009	0.237	0.116	-0.11
Mof_H 	H 	0.9332	0.2683	0.1661	1.244
Mof_C 	C 	0.0183	0.2994	0.391	-0.872
Mof_H 	H 	0.928	0.2364	0.3844	0.713
Mof_C 	C 	0.0266	0.2286	0.193	-0.629
Mof_F 	F 	0.2752	0.6038	0.592	-0.037
Mof_F 	F 	0.2352	0.5977	0.702	-0.055
Mof_F 	F 	0.2339	0.5567	0.592	-0.041
Mof_F 	F 	0.2264	0.6048	0.9594	-0.075
Mof_F 	F 	0.2778	0.5774	0.9293	-0.104
Mof_F 	F 	0.252	0.612	0.8353	-0.109
Mof_F 	F 	0.5301	0.4341	0.9308	-0.341
Mof_O 	O 	0.4147	0.4977	0.6855	-0.668
Mof_O 	O 	0.4021	0.5503	0.6027	-0.678
Mof_O 	O 	0.0998	0.4842	0.8604	-0.683
Mof_O 	O 	0.1049	0.5426	0.9194	-0.626
Mof_O 	O 	0.4799	0.5302	0.6175	-1.249
Mof_O 	O 	0.4885	0.4393	0.5168	-1.326
Mof_C 	C 	0.3934	0.5263	0.6563	0.745
Mof_C 	C 	0.354	0.5283	0.6989	-0.609
Mof_C 	C 	0.3253	0.5509	0.6587	0.831
Mof_H 	H 	0.3314	0.5659	0.6075	-0.136
Mof_C 	C 	0.2878	0.5513	0.6935	-1.047
Mof_C 	C 	0.279	0.5293	0.7684	0.771
Mof_C 	C 	0.3076	0.5067	0.8086	-1.036
Mof_H 	H 	0.3016	0.4916	0.8598	1.217
Mof_C 	C 	0.3451	0.5062	0.7738	0.83
Mof_H 	H 	0.3647	0.4908	0.8012	-0.127
Mof_C 	C 	0.2577	0.5769	0.646	-0.902
Mof_C 	C 	0.2374	0.5252	0.801	0.265
Mof_C 	C 	0.221	0.5515	0.8605	-0.409
Mof_C 	C 	0.1822	0.5478	0.8851	0.425
Mof_H 	H 	0.171	0.5658	0.9257	0.028
Mof_C 	C 	0.1598	0.5178	0.8501	-0.351
Mof_C 	C 	0.1762	0.4915	0.7906	0.481
Mof_H 	H 	0.1608	0.471	0.7667	-0.03
Mof_C 	C 	0.215	0.4952	0.766	-0.531
Mof_H 	H 	0.2262	0.4772	0.7253	0.907
Mof_C 	C 	0.2423	0.5833	0.8935	-0.378
Mof_C 	C 	0.1185	0.5154	0.8826	0.68
Mof_C 	C 	0.514	0.4673	0.9649	0.491
Mof_F 	F 	0.2811	0.5005	0.9568	-0.028
Mof_F 	F 	0.3325	0.4677	0.9291	-0.054
Mof_F 	F 	0.2782	0.4498	0.8724	-0.076
Mof_F 	F 	0.2054	0.4453	0.658	-0.123
Mof_F 	F 	0.2611	0.4519	0.701	-0.169
Mof_F 	F 	0.237	0.491	0.616	-0.079
Mof_H 	H 	0.2683	0.5668	0.6661	1.242
Mof_C 	C 	0.2994	0.4817	0.891	-0.873
Mof_H 	H 	0.2364	0.572	0.8844	0.707
Mof_C 	C 	0.2286	0.4734	0.693	-0.625
Mof_F 	F 	0.2248	0.8962	0.592	-0.037
Mof_F 	F 	0.2648	0.9023	0.702	-0.055
Mof_F 	F 	0.2661	0.9433	0.592	-0.041
Mof_F 	F 	0.2736	0.8952	0.9594	-0.075
Mof_F 	F 	0.2222	0.9226	0.9293	-0.104
Mof_F 	F 	0.248	0.888	0.8353	-0.109
Mof_F 	F 	0.9699	0.0659	0.9308	-0.341
Mof_O 	O 	0.0853	0.0023	0.6855	-0.667
Mof_O 	O 	0.0979	0.9497	0.6027	-0.678
Mof_O 	O 	0.4002	0.0158	0.8604	-0.682
Mof_O 	O 	0.3951	0.9574	0.9194	-0.626
Mof_O 	O 	0.0201	0.9698	0.6175	-1.249
Mof_O 	O 	0.0115	0.0607	0.5168	-1.325
Mof_C 	C 	0.1066	0.9737	0.6563	0.743
Mof_C 	C 	0.146	0.9717	0.6989	-0.608
Mof_C 	C 	0.1747	0.9491	0.6587	0.831
Mof_H 	H 	0.1686	0.9341	0.6075	-0.136
Mof_C 	C 	0.2122	0.9487	0.6935	-1.047
Mof_C 	C 	0.221	0.9707	0.7684	0.772
Mof_C 	C 	0.1924	0.9933	0.8086	-1.036
Mof_H 	H 	0.1984	0.0084	0.8598	1.217
Mof_C 	C 	0.1549	0.9938	0.7738	0.828
Mof_H 	H 	0.1353	0.0092	0.8012	-0.126
Mof_C 	C 	0.2423	0.9231	0.646	-0.902
Mof_C 	C 	0.2626	0.9748	0.801	0.263
Mof_C 	C 	0.279	0.9485	0.8605	-0.409
Mof_C 	C 	0.3178	0.9522	0.8851	0.425
Mof_H 	H 	0.329	0.9342	0.9257	0.028
Mof_C 	C 	0.3402	0.9822	0.8501	-0.351
Mof_C 	C 	0.3238	0.0085	0.7906	0.482
Mof_H 	H 	0.3392	0.029	0.7667	-0.03
Mof_C 	C 	0.285	0.0048	0.766	-0.529
Mof_H 	H 	0.2738	0.0228	0.7253	0.907
Mof_C 	C 	0.2577	0.9167	0.8935	-0.378
Mof_C 	C 	0.3815	0.9846	0.8826	0.679
Mof_C 	C 	0.986	0.0327	0.9649	0.487
Mof_F 	F 	0.2189	0.9995	0.9568	-0.028
Mof_F 	F 	0.1675	0.0323	0.9291	-0.054
Mof_F 	F 	0.2218	0.0502	0.8724	-0.076
Mof_F 	F 	0.2946	0.0547	0.658	-0.122
Mof_F 	F 	0.2389	0.0481	0.701	-0.169
Mof_F 	F 	0.263	0.009	0.616	-0.078
Mof_H 	H 	0.2317	0.9332	0.6661	1.242
Mof_C 	C 	0.2006	0.0183	0.891	-0.872
Mof_H 	H 	0.2636	0.928	0.8844	0.707
Mof_C 	C 	0.2714	0.0266	0.693	-0.626
Mof_F 	F 	0.3962	0.7248	0.408	-0.041
Mof_F 	F 	0.4023	0.7648	0.298	-0.061
Mof_F 	F 	0.4433	0.7661	0.408	-0.042
Mof_F 	F 	0.3952	0.7736	0.0406	-0.171
Mof_F 	F 	0.4226	0.7222	0.0707	-0.169
Mof_F 	F 	0.388	0.748	0.1647	-0.131
Mof_F 	F 	0.5659	0.4699	0.0692	-0.342
Mof_O 	O 	0.5023	0.5853	0.3145	-0.673
Mof_O 	O 	0.4497	0.5979	0.3973	-0.683
Mof_O 	O 	0.5158	0.9002	0.1396	-0.741
Mof_O 	O 	0.4574	0.8951	0.0806	-0.713
Mof_O 	O 	0.4698	0.5201	0.3825	-1.256
Mof_O 	O 	0.5607	0.5115	0.4832	-1.326
Mof_C 	C 	0.4737	0.6066	0.3437	0.744
Mof_C 	C 	0.4717	0.646	0.3011	-0.619
Mof_C 	C 	0.4491	0.6747	0.3413	0.831
Mof_H 	H 	0.4341	0.6686	0.3925	-0.139
Mof_C 	C 	0.4487	0.7122	0.3065	-1.05
Mof_C 	C 	0.4707	0.721	0.2316	0.771
Mof_C 	C 	0.4933	0.6924	0.1914	-1.06
Mof_H 	H 	0.5084	0.6984	0.1402	1.233
Mof_C 	C 	0.4938	0.6549	0.2262	0.836
Mof_H 	H 	0.5092	0.6353	0.1988	-0.141
Mof_C 	C 	0.4231	0.7423	0.354	-0.898
Mof_C 	C 	0.4748	0.7626	0.199	0.279
Mof_C 	C 	0.4485	0.779	0.1395	-0.46
Mof_C 	C 	0.4522	0.8178	0.1149	0.445
Mof_H 	H 	0.4342	0.829	0.0743	-0.031
Mof_C 	C 	0.4822	0.8402	0.1499	-0.399
Mof_C 	C 	0.5085	0.8238	0.2094	0.495
Mof_H 	H 	0.529	0.8392	0.2333	-0.047
Mof_C 	C 	0.5048	0.785	0.234	-0.555
Mof_H 	H 	0.5228	0.7738	0.2747	0.905
Mof_C 	C 	0.4167	0.7577	0.1065	-0.381
Mof_C 	C 	0.4846	0.8815	0.1174	0.686
Mof_C 	C 	0.5327	0.486	0.0351	0.088
Mof_F 	F 	0.4995	0.7189	0.0432	-0.106
Mof_F 	F 	0.5323	0.6675	0.0709	-0.109
Mof_F 	F 	0.5502	0.7218	0.1276	-0.111
Mof_F 	F 	0.5547	0.7946	0.342	-0.132
Mof_F 	F 	0.5481	0.7389	0.299	-0.178
Mof_F 	F 	0.509	0.763	0.384	-0.08
Mof_H 	H 	0.4332	0.7317	0.3339	1.24
Mof_C 	C 	0.5183	0.7006	0.109	-0.89
Mof_H 	H 	0.428	0.7636	0.1156	0.719
Mof_C 	C 	0.5266	0.7714	0.307	-0.616
Mof_F 	F 	0.1038	0.7752	0.408	-0.041
Mof_F 	F 	0.0977	0.7352	0.298	-0.061
Mof_F 	F 	0.0567	0.7339	0.408	-0.041
Mof_F 	F 	0.1048	0.7264	0.0406	-0.171
Mof_F 	F 	0.0774	0.7778	0.0707	-0.168
Mof_F 	F 	0.112	0.752	0.1647	-0.131
Mof_F 	F 	0.9341	0.0301	0.0692	-0.342
Mof_O 	O 	0.9977	0.9147	0.3145	-0.675
Mof_O 	O 	0.0503	0.9021	0.3973	-0.683
Mof_O 	O 	0.9842	0.5998	0.1396	-0.743
Mof_O 	O 	0.0426	0.6049	0.0806	-0.713
Mof_O 	O 	0.0302	0.9799	0.3825	-1.256
Mof_O 	O 	0.9393	0.9885	0.4832	-1.327
Mof_C 	C 	0.0263	0.8934	0.3437	0.747
Mof_C 	C 	0.0283	0.854	0.3011	-0.621
Mof_C 	C 	0.0509	0.8253	0.3413	0.832
Mof_H 	H 	0.0659	0.8314	0.3925	-0.139
Mof_C 	C 	0.0513	0.7878	0.3065	-1.05
Mof_C 	C 	0.0293	0.779	0.2316	0.77
Mof_C 	C 	0.0067	0.8076	0.1914	-1.058
Mof_H 	H 	0.9916	0.8016	0.1402	1.232
Mof_C 	C 	0.0062	0.8451	0.2262	0.839
Mof_H 	H 	0.9908	0.8647	0.1988	-0.143
Mof_C 	C 	0.0769	0.7577	0.354	-0.898
Mof_C 	C 	0.0252	0.7374	0.199	0.281
Mof_C 	C 	0.0515	0.721	0.1395	-0.46
Mof_C 	C 	0.0478	0.6822	0.1149	0.445
Mof_H 	H 	0.0658	0.671	0.0743	-0.031
Mof_C 	C 	0.0178	0.6598	0.1499	-0.397
Mof_C 	C 	0.9915	0.6762	0.2094	0.493
Mof_H 	H 	0.971	0.6608	0.2333	-0.046
Mof_C 	C 	0.9952	0.715	0.234	-0.556
Mof_H 	H 	0.9772	0.7262	0.2747	0.905
Mof_C 	C 	0.0833	0.7423	0.1065	-0.381
Mof_C 	C 	0.0154	0.6185	0.1174	0.688
Mof_C 	C 	0.9673	0.014	0.0351	0.094
Mof_F 	F 	0.0005	0.7811	0.0432	-0.104
Mof_F 	F 	0.9677	0.8325	0.0709	-0.109
Mof_F 	F 	0.9498	0.7782	0.1276	-0.112
Mof_F 	F 	0.9453	0.7054	0.342	-0.132
Mof_F 	F 	0.9519	0.7611	0.299	-0.179
Mof_F 	F 	0.991	0.737	0.384	-0.081
Mof_H 	H 	0.0668	0.7683	0.3339	1.24
Mof_C 	C 	0.9817	0.7994	0.109	-0.891
Mof_H 	H 	0.072	0.7364	0.1156	0.719
Mof_C 	C 	0.9734	0.7286	0.307	-0.615
Mof_F 	F 	0.7248	0.1038	0.908	0.004
Mof_F 	F 	0.7648	0.0977	0.798	-0.046
Mof_F 	F 	0.7661	0.0567	0.908	0
Mof_F 	F 	0.7736	0.1048	0.5406	-0.122
Mof_F 	F 	0.7222	0.0774	0.5707	-0.136
Mof_F 	F 	0.748	0.112	0.6647	-0.115
Mof_F 	F 	0.4699	0.9341	0.5692	-0.342
Mof_O 	O 	0.5853	0.9977	0.8145	-0.663
Mof_O 	O 	0.5979	0.0503	0.8973	-0.644
Mof_O 	O 	0.9002	0.9842	0.6396	-0.705
Mof_O 	O 	0.8951	0.0426	0.5806	-0.669
Mof_O 	O 	0.5201	0.0302	0.8825	-1.224
Mof_O 	O 	0.5115	0.9393	0.9832	-1.256
Mof_C 	C 	0.6066	0.0263	0.8437	0.739
Mof_C 	C 	0.646	0.0283	0.8011	-0.596
Mof_C 	C 	0.6747	0.0509	0.8413	0.823
Mof_H 	H 	0.6686	0.0659	0.8925	-0.108
Mof_C 	C 	0.7122	0.0513	0.8065	-1.031
Mof_C 	C 	0.721	0.0293	0.7316	0.766
Mof_C 	C 	0.6924	0.0067	0.6914	-1.041
Mof_H 	H 	0.6984	0.9916	0.6402	1.228
Mof_C 	C 	0.6549	0.0062	0.7262	0.83
Mof_H 	H 	0.6353	0.9908	0.6988	-0.131
Mof_C 	C 	0.7423	0.0769	0.854	-0.902
Mof_C 	C 	0.7626	0.0252	0.699	0.27
Mof_C 	C 	0.779	0.0515	0.6395	-0.43
Mof_C 	C 	0.8178	0.0478	0.6149	0.433
Mof_H 	H 	0.829	0.0658	0.5743	0.001
Mof_C 	C 	0.8402	0.0178	0.6499	-0.365
Mof_C 	C 	0.8238	0.9915	0.7094	0.482
Mof_H 	H 	0.8392	0.971	0.7333	-0.026
Mof_C 	C 	0.785	0.9952	0.734	-0.53
Mof_H 	H 	0.7738	0.9772	0.7747	0.897
Mof_C 	C 	0.7577	0.0833	0.6065	-0.381
Mof_C 	C 	0.8815	0.0154	0.6174	0.684
Mof_C 	C 	0.486	0.9673	0.5351	0.291
Mof_F 	F 	0.7189	0.0005	0.5432	-0.064
Mof_F 	F 	0.6675	0.9677	0.5709	-0.079
Mof_F 	F 	0.7218	0.9498	0.6276	-0.088
Mof_F 	F 	0.7946	0.9453	0.842	-0.1
Mof_F 	F 	0.7389	0.9519	0.799	-0.16
Mof_F 	F 	0.763	0.991	0.884	-0.048
Mof_H 	H 	0.7317	0.0668	0.8339	1.239
Mof_C 	C 	0.7006	0.9817	0.609	-0.89
Mof_H 	H 	0.7636	0.072	0.6156	0.713
Mof_C 	C 	0.7714	0.9734	0.807	-0.613
Mof_F 	F 	0.7752	0.3962	0.908	0.004
Mof_F 	F 	0.7352	0.4023	0.798	-0.046
Mof_F 	F 	0.7339	0.4433	0.908	0
Mof_F 	F 	0.7264	0.3952	0.5406	-0.122
Mof_F 	F 	0.7778	0.4226	0.5707	-0.136
Mof_F 	F 	0.752	0.388	0.6647	-0.115
Mof_F 	F 	0.0301	0.5659	0.5692	-0.341
Mof_O 	O 	0.9147	0.5023	0.8145	-0.662
Mof_O 	O 	0.9021	0.4497	0.8973	-0.644
Mof_O 	O 	0.5998	0.5158	0.6396	-0.704
Mof_O 	O 	0.6049	0.4574	0.5806	-0.669
Mof_O 	O 	0.9799	0.4698	0.8825	-1.225
Mof_O 	O 	0.9885	0.5607	0.9832	-1.257
Mof_C 	C 	0.8934	0.4737	0.8437	0.738
Mof_C 	C 	0.854	0.4717	0.8011	-0.595
Mof_C 	C 	0.8253	0.4491	0.8413	0.822
Mof_H 	H 	0.8314	0.4341	0.8925	-0.108
Mof_C 	C 	0.7878	0.4487	0.8065	-1.031
Mof_C 	C 	0.779	0.4707	0.7316	0.767
Mof_C 	C 	0.8076	0.4933	0.6914	-1.043
Mof_H 	H 	0.8016	0.5084	0.6402	1.229
Mof_C 	C 	0.8451	0.4938	0.7262	0.828
Mof_H 	H 	0.8647	0.5092	0.6988	-0.13
Mof_C 	C 	0.7577	0.4231	0.854	-0.902
Mof_C 	C 	0.7374	0.4748	0.699	0.269
Mof_C 	C 	0.721	0.4485	0.6395	-0.43
Mof_C 	C 	0.6822	0.4522	0.6149	0.433
Mof_H 	H 	0.671	0.4342	0.5743	0.001
Mof_C 	C 	0.6598	0.4822	0.6499	-0.366
Mof_C 	C 	0.6762	0.5085	0.7094	0.483
Mof_H 	H 	0.6608	0.529	0.7333	-0.026
Mof_C 	C 	0.715	0.5048	0.734	-0.529
Mof_H 	H 	0.7262	0.5228	0.7747	0.897
Mof_C 	C 	0.7423	0.4167	0.6065	-0.381
Mof_C 	C 	0.6185	0.4846	0.6174	0.683
Mof_C 	C 	0.014	0.5327	0.5351	0.292
Mof_F 	F 	0.7811	0.4995	0.5432	-0.065
Mof_F 	F 	0.8325	0.5323	0.5709	-0.079
Mof_F 	F 	0.7782	0.5502	0.6276	-0.088
Mof_F 	F 	0.7054	0.5547	0.842	-0.1
Mof_F 	F 	0.7611	0.5481	0.799	-0.159
Mof_F 	F 	0.737	0.509	0.884	-0.047
Mof_H 	H 	0.7683	0.4332	0.8339	1.239
Mof_C 	C 	0.7994	0.5183	0.609	-0.889
Mof_H 	H 	0.7364	0.428	0.6156	0.713
Mof_C 	C 	0.7286	0.5266	0.807	-0.614
Mof_F 	F 	0.3962	0.7752	0.908	0.004
Mof_F 	F 	0.4023	0.7352	0.798	-0.046
Mof_F 	F 	0.4433	0.7339	0.908	0
Mof_F 	F 	0.3952	0.7264	0.5406	-0.122
Mof_F 	F 	0.4226	0.7778	0.5707	-0.136
Mof_F 	F 	0.388	0.752	0.6647	-0.115
Mof_F 	F 	0.5659	0.0301	0.5692	-0.341
Mof_O 	O 	0.5023	0.9147	0.8145	-0.662
Mof_O 	O 	0.4497	0.9021	0.8973	-0.644
Mof_O 	O 	0.5158	0.5998	0.6396	-0.704
Mof_O 	O 	0.4574	0.6049	0.5806	-0.669
Mof_O 	O 	0.4698	0.9799	0.8825	-1.225
Mof_O 	O 	0.5607	0.9885	0.9832	-1.257
Mof_C 	C 	0.4737	0.8934	0.8437	0.738
Mof_C 	C 	0.4717	0.854	0.8011	-0.595
Mof_C 	C 	0.4491	0.8253	0.8413	0.822
Mof_H 	H 	0.4341	0.8314	0.8925	-0.108
Mof_C 	C 	0.4487	0.7878	0.8065	-1.031
Mof_C 	C 	0.4707	0.779	0.7316	0.767
Mof_C 	C 	0.4933	0.8076	0.6914	-1.043
Mof_H 	H 	0.5084	0.8016	0.6402	1.229
Mof_C 	C 	0.4938	0.8451	0.7262	0.828
Mof_H 	H 	0.5092	0.8647	0.6988	-0.13
Mof_C 	C 	0.4231	0.7577	0.854	-0.902
Mof_C 	C 	0.4748	0.7374	0.699	0.269
Mof_C 	C 	0.4485	0.721	0.6395	-0.43
Mof_C 	C 	0.4522	0.6822	0.6149	0.433
Mof_H 	H 	0.4342	0.671	0.5743	0.001
Mof_C 	C 	0.4822	0.6598	0.6499	-0.366
Mof_C 	C 	0.5085	0.6762	0.7094	0.483
Mof_H 	H 	0.529	0.6608	0.7333	-0.026
Mof_C 	C 	0.5048	0.715	0.734	-0.529
Mof_H 	H 	0.5228	0.7262	0.7747	0.897
Mof_C 	C 	0.4167	0.7423	0.6065	-0.381
Mof_C 	C 	0.4846	0.6185	0.6174	0.683
Mof_C 	C 	0.5327	0.014	0.5351	0.292
Mof_F 	F 	0.4995	0.7811	0.5432	-0.065
Mof_F 	F 	0.5323	0.8325	0.5709	-0.079
Mof_F 	F 	0.5502	0.7782	0.6276	-0.088
Mof_F 	F 	0.5547	0.7054	0.842	-0.1
Mof_F 	F 	0.5481	0.7611	0.799	-0.159
Mof_F 	F 	0.509	0.737	0.884	-0.047
Mof_H 	H 	0.4332	0.7683	0.8339	1.239
Mof_C 	C 	0.5183	0.7994	0.609	-0.889
Mof_H 	H 	0.428	0.7364	0.6156	0.713
Mof_C 	C 	0.5266	0.7286	0.807	-0.614
Mof_F 	F 	0.1038	0.7248	0.908	0.004
Mof_F 	F 	0.0977	0.7648	0.798	-0.046
Mof_F 	F 	0.0567	0.7661	0.908	0
Mof_F 	F 	0.1048	0.7736	0.5406	-0.122
Mof_F 	F 	0.0774	0.7222	0.5707	-0.136
Mof_F 	F 	0.112	0.748	0.6647	-0.115
Mof_F 	F 	0.9341	0.4699	0.5692	-0.342
Mof_O 	O 	0.9977	0.5853	0.8145	-0.663
Mof_O 	O 	0.0503	0.5979	0.8973	-0.644
Mof_O 	O 	0.9842	0.9002	0.6396	-0.705
Mof_O 	O 	0.0426	0.8951	0.5806	-0.669
Mof_O 	O 	0.0302	0.5201	0.8825	-1.224
Mof_O 	O 	0.9393	0.5115	0.9832	-1.256
Mof_C 	C 	0.0263	0.6066	0.8437	0.739
Mof_C 	C 	0.0283	0.646	0.8011	-0.596
Mof_C 	C 	0.0509	0.6747	0.8413	0.823
Mof_H 	H 	0.0659	0.6686	0.8925	-0.108
Mof_C 	C 	0.0513	0.7122	0.8065	-1.031
Mof_C 	C 	0.0293	0.721	0.7316	0.766
Mof_C 	C 	0.0067	0.6924	0.6914	-1.041
Mof_H 	H 	0.9916	0.6984	0.6402	1.228
Mof_C 	C 	0.0062	0.6549	0.7262	0.83
Mof_H 	H 	0.9908	0.6353	0.6988	-0.131
Mof_C 	C 	0.0769	0.7423	0.854	-0.902
Mof_C 	C 	0.0252	0.7626	0.699	0.27
Mof_C 	C 	0.0515	0.779	0.6395	-0.43
Mof_C 	C 	0.0478	0.8178	0.6149	0.433
Mof_H 	H 	0.0658	0.829	0.5743	0.001
Mof_C 	C 	0.0178	0.8402	0.6499	-0.365
Mof_C 	C 	0.9915	0.8238	0.7094	0.482
Mof_H 	H 	0.971	0.8392	0.7333	-0.026
Mof_C 	C 	0.9952	0.785	0.734	-0.53
Mof_H 	H 	0.9772	0.7738	0.7747	0.897
Mof_C 	C 	0.0833	0.7577	0.6065	-0.381
Mof_C 	C 	0.0154	0.8815	0.6174	0.684
Mof_C 	C 	0.9673	0.486	0.5351	0.291
Mof_F 	F 	0.0005	0.7189	0.5432	-0.064
Mof_F 	F 	0.9677	0.6675	0.5709	-0.079
Mof_F 	F 	0.9498	0.7218	0.6276	-0.088
Mof_F 	F 	0.9453	0.7946	0.842	-0.1
Mof_F 	F 	0.9519	0.7389	0.799	-0.16
Mof_F 	F 	0.991	0.763	0.884	-0.048
Mof_H 	H 	0.0668	0.7317	0.8339	1.239
Mof_C 	C 	0.9817	0.7006	0.609	-0.89
Mof_H 	H 	0.072	0.7636	0.6156	0.713
Mof_C 	C 	0.9734	0.7714	0.807	-0.613
Mof_F 	F 	0.7248	0.3962	0.408	-0.041
Mof_F 	F 	0.7648	0.4023	0.298	-0.061
Mof_F 	F 	0.7661	0.4433	0.408	-0.042
Mof_F 	F 	0.7736	0.3952	0.0406	-0.171
Mof_F 	F 	0.7222	0.4226	0.0707	-0.169
Mof_F 	F 	0.748	0.388	0.1647	-0.131
Mof_F 	F 	0.4699	0.5659	0.0692	-0.342
Mof_O 	O 	0.5853	0.5023	0.3145	-0.673
Mof_O 	O 	0.5979	0.4497	0.3973	-0.683
Mof_O 	O 	0.9002	0.5158	0.1396	-0.741
Mof_O 	O 	0.8951	0.4574	0.0806	-0.713
Mof_O 	O 	0.5201	0.4698	0.3825	-1.256
Mof_O 	O 	0.5115	0.5607	0.4832	-1.326
Mof_C 	C 	0.6066	0.4737	0.3437	0.744
Mof_C 	C 	0.646	0.4717	0.3011	-0.619
Mof_C 	C 	0.6747	0.4491	0.3413	0.831
Mof_H 	H 	0.6686	0.4341	0.3925	-0.139
Mof_C 	C 	0.7122	0.4487	0.3065	-1.05
Mof_C 	C 	0.721	0.4707	0.2316	0.771
Mof_C 	C 	0.6924	0.4933	0.1914	-1.06
Mof_H 	H 	0.6984	0.5084	0.1402	1.233
Mof_C 	C 	0.6549	0.4938	0.2262	0.836
Mof_H 	H 	0.6353	0.5092	0.1988	-0.141
Mof_C 	C 	0.7423	0.4231	0.354	-0.898
Mof_C 	C 	0.7626	0.4748	0.199	0.279
Mof_C 	C 	0.779	0.4485	0.1395	-0.46
Mof_C 	C 	0.8178	0.4522	0.1149	0.445
Mof_H 	H 	0.829	0.4342	0.0743	-0.031
Mof_C 	C 	0.8402	0.4822	0.1499	-0.399
Mof_C 	C 	0.8238	0.5085	0.2094	0.495
Mof_H 	H 	0.8392	0.529	0.2333	-0.047
Mof_C 	C 	0.785	0.5048	0.234	-0.555
Mof_H 	H 	0.7738	0.5228	0.2747	0.905
Mof_C 	C 	0.7577	0.4167	0.1065	-0.381
Mof_C 	C 	0.8815	0.4846	0.1174	0.686
Mof_C 	C 	0.486	0.5327	0.0351	0.088
Mof_F 	F 	0.7189	0.4995	0.0432	-0.106
Mof_F 	F 	0.6675	0.5323	0.0709	-0.109
Mof_F 	F 	0.7218	0.5502	0.1276	-0.111
Mof_F 	F 	0.7946	0.5547	0.342	-0.132
Mof_F 	F 	0.7389	0.5481	0.299	-0.178
Mof_F 	F 	0.763	0.509	0.384	-0.08
Mof_H 	H 	0.7317	0.4332	0.3339	1.24
Mof_C 	C 	0.7006	0.5183	0.109	-0.89
Mof_H 	H 	0.7636	0.428	0.1156	0.719
Mof_C 	C 	0.7714	0.5266	0.307	-0.616
Mof_F 	F 	0.7752	0.1038	0.408	-0.041
Mof_F 	F 	0.7352	0.0977	0.298	-0.061
Mof_F 	F 	0.7339	0.0567	0.408	-0.041
Mof_F 	F 	0.7264	0.1048	0.0406	-0.171
Mof_F 	F 	0.7778	0.0774	0.0707	-0.168
Mof_F 	F 	0.752	0.112	0.1647	-0.131
Mof_F 	F 	0.0301	0.9341	0.0692	-0.342
Mof_O 	O 	0.9147	0.9977	0.3145	-0.675
Mof_O 	O 	0.9021	0.0503	0.3973	-0.683
Mof_O 	O 	0.5998	0.9842	0.1396	-0.743
Mof_O 	O 	0.6049	0.0426	0.0806	-0.713
Mof_O 	O 	0.9799	0.0302	0.3825	-1.256
Mof_O 	O 	0.9885	0.9393	0.4832	-1.327
Mof_C 	C 	0.8934	0.0263	0.3437	0.747
Mof_C 	C 	0.854	0.0283	0.3011	-0.621
Mof_C 	C 	0.8253	0.0509	0.3413	0.832
Mof_H 	H 	0.8314	0.0659	0.3925	-0.139
Mof_C 	C 	0.7878	0.0513	0.3065	-1.05
Mof_C 	C 	0.779	0.0293	0.2316	0.77
Mof_C 	C 	0.8076	0.0067	0.1914	-1.058
Mof_H 	H 	0.8016	0.9916	0.1402	1.232
Mof_C 	C 	0.8451	0.0062	0.2262	0.839
Mof_H 	H 	0.8647	0.9908	0.1988	-0.143
Mof_C 	C 	0.7577	0.0769	0.354	-0.898
Mof_C 	C 	0.7374	0.0252	0.199	0.281
Mof_C 	C 	0.721	0.0515	0.1395	-0.46
Mof_C 	C 	0.6822	0.0478	0.1149	0.445
Mof_H 	H 	0.671	0.0658	0.0743	-0.031
Mof_C 	C 	0.6598	0.0178	0.1499	-0.397
Mof_C 	C 	0.6762	0.9915	0.2094	0.493
Mof_H 	H 	0.6608	0.971	0.2333	-0.046
Mof_C 	C 	0.715	0.9952	0.234	-0.556
Mof_H 	H 	0.7262	0.9772	0.2747	0.905
Mof_C 	C 	0.7423	0.0833	0.1065	-0.381
Mof_C 	C 	0.6185	0.0154	0.1174	0.688
Mof_C 	C 	0.014	0.9673	0.0351	0.094
Mof_F 	F 	0.7811	0.0005	0.0432	-0.104
Mof_F 	F 	0.8325	0.9677	0.0709	-0.109
Mof_F 	F 	0.7782	0.9498	0.1276	-0.112
Mof_F 	F 	0.7054	0.9453	0.342	-0.132
Mof_F 	F 	0.7611	0.9519	0.299	-0.179
Mof_F 	F 	0.737	0.991	0.384	-0.081
Mof_H 	H 	0.7683	0.0668	0.3339	1.24
Mof_C 	C 	0.7994	0.9817	0.109	-0.891
Mof_H 	H 	0.7364	0.072	0.1156	0.719
Mof_C 	C 	0.7286	0.9734	0.307	-0.615
Mof_F 	F 	0.6038	0.2752	0.592	-0.037
Mof_F 	F 	0.5977	0.2352	0.702	-0.055
Mof_F 	F 	0.5567	0.2339	0.592	-0.041
Mof_F 	F 	0.6048	0.2264	0.9594	-0.075
Mof_F 	F 	0.5774	0.2778	0.9293	-0.104
Mof_F 	F 	0.612	0.252	0.8353	-0.109
Mof_F 	F 	0.4341	0.5301	0.9308	-0.341
Mof_O 	O 	0.4977	0.4147	0.6855	-0.668
Mof_O 	O 	0.5503	0.4021	0.6027	-0.678
Mof_O 	O 	0.4842	0.0998	0.8604	-0.683
Mof_O 	O 	0.5426	0.1049	0.9194	-0.626
Mof_O 	O 	0.5302	0.4799	0.6175	-1.249
Mof_O 	O 	0.4393	0.4885	0.5168	-1.326
Mof_C 	C 	0.5263	0.3934	0.6563	0.745
Mof_C 	C 	0.5283	0.354	0.6989	-0.609
Mof_C 	C 	0.5509	0.3253	0.6587	0.831
Mof_H 	H 	0.5659	0.3314	0.6075	-0.136
Mof_C 	C 	0.5513	0.2878	0.6935	-1.047
Mof_C 	C 	0.5293	0.279	0.7684	0.771
Mof_C 	C 	0.5067	0.3076	0.8086	-1.036
Mof_H 	H 	0.4916	0.3016	0.8598	1.217
Mof_C 	C 	0.5062	0.3451	0.7738	0.83
Mof_H 	H 	0.4908	0.3647	0.8012	-0.127
Mof_C 	C 	0.5769	0.2577	0.646	-0.902
Mof_C 	C 	0.5252	0.2374	0.801	0.265
Mof_C 	C 	0.5515	0.221	0.8605	-0.409
Mof_C 	C 	0.5478	0.1822	0.8851	0.425
Mof_H 	H 	0.5658	0.171	0.9257	0.028
Mof_C 	C 	0.5178	0.1598	0.8501	-0.351
Mof_C 	C 	0.4915	0.1762	0.7906	0.481
Mof_H 	H 	0.471	0.1608	0.7667	-0.03
Mof_C 	C 	0.4952	0.215	0.766	-0.531
Mof_H 	H 	0.4772	0.2262	0.7253	0.907
Mof_C 	C 	0.5833	0.2423	0.8935	-0.378
Mof_C 	C 	0.5154	0.1185	0.8826	0.68
Mof_C 	C 	0.4673	0.514	0.9649	0.491
Mof_F 	F 	0.5005	0.2811	0.9568	-0.028
Mof_F 	F 	0.4677	0.3325	0.9291	-0.054
Mof_F 	F 	0.4498	0.2782	0.8724	-0.076
Mof_F 	F 	0.4453	0.2054	0.658	-0.123
Mof_F 	F 	0.4519	0.2611	0.701	-0.169
Mof_F 	F 	0.491	0.237	0.616	-0.079
Mof_H 	H 	0.5668	0.2683	0.6661	1.242
Mof_C 	C 	0.4817	0.2994	0.891	-0.873
Mof_H 	H 	0.572	0.2364	0.8844	0.707
Mof_C 	C 	0.4734	0.2286	0.693	-0.625
Mof_F 	F 	0.8962	0.2248	0.592	-0.037
Mof_F 	F 	0.9023	0.2648	0.702	-0.055
Mof_F 	F 	0.9433	0.2661	0.592	-0.041
Mof_F 	F 	0.8952	0.2736	0.9594	-0.075
Mof_F 	F 	0.9226	0.2222	0.9293	-0.104
Mof_F 	F 	0.888	0.248	0.8353	-0.109
Mof_F 	F 	0.0659	0.9699	0.9308	-0.341
Mof_O 	O 	0.0023	0.0853	0.6855	-0.667
Mof_O 	O 	0.9497	0.0979	0.6027	-0.678
Mof_O 	O 	0.0158	0.4002	0.8604	-0.682
Mof_O 	O 	0.9574	0.3951	0.9194	-0.626
Mof_O 	O 	0.9698	0.0201	0.6175	-1.249
Mof_O 	O 	0.0607	0.0115	0.5168	-1.325
Mof_C 	C 	0.9737	0.1066	0.6563	0.743
Mof_C 	C 	0.9717	0.146	0.6989	-0.608
Mof_C 	C 	0.9491	0.1747	0.6587	0.831
Mof_H 	H 	0.9341	0.1686	0.6075	-0.136
Mof_C 	C 	0.9487	0.2122	0.6935	-1.047
Mof_C 	C 	0.9707	0.221	0.7684	0.772
Mof_C 	C 	0.9933	0.1924	0.8086	-1.036
Mof_H 	H 	0.0084	0.1984	0.8598	1.217
Mof_C 	C 	0.9938	0.1549	0.7738	0.828
Mof_H 	H 	0.0092	0.1353	0.8012	-0.126
Mof_C 	C 	0.9231	0.2423	0.646	-0.902
Mof_C 	C 	0.9748	0.2626	0.801	0.263
Mof_C 	C 	0.9485	0.279	0.8605	-0.409
Mof_C 	C 	0.9522	0.3178	0.8851	0.425
Mof_H 	H 	0.9342	0.329	0.9257	0.028
Mof_C 	C 	0.9822	0.3402	0.8501	-0.351
Mof_C 	C 	0.0085	0.3238	0.7906	0.482
Mof_H 	H 	0.029	0.3392	0.7667	-0.03
Mof_C 	C 	0.0048	0.285	0.766	-0.529
Mof_H 	H 	0.0228	0.2738	0.7253	0.907
Mof_C 	C 	0.9167	0.2577	0.8935	-0.378
Mof_C 	C 	0.9846	0.3815	0.8826	0.679
Mof_C 	C 	0.0327	0.986	0.9649	0.487
Mof_F 	F 	0.9995	0.2189	0.9568	-0.028
Mof_F 	F 	0.0323	0.1675	0.9291	-0.054
Mof_F 	F 	0.0502	0.2218	0.8724	-0.076
Mof_F 	F 	0.0547	0.2946	0.658	-0.122
Mof_F 	F 	0.0481	0.2389	0.701	-0.169
Mof_F 	F 	0.009	0.263	0.616	-0.078
Mof_H 	H 	0.9332	0.2317	0.6661	1.242
Mof_C 	C 	0.0183	0.2006	0.891	-0.872
Mof_H 	H 	0.928	0.2636	0.8844	0.707
Mof_C 	C 	0.0266	0.2714	0.693	-0.626
Mof_F 	F 	0.2752	0.8962	0.092	-0.082
Mof_F 	F 	0.2352	0.9023	0.202	-0.07
Mof_F 	F 	0.2339	0.9433	0.092	-0.083
Mof_F 	F 	0.2264	0.8952	0.4594	-0.124
Mof_F 	F 	0.2778	0.9226	0.4293	-0.137
Mof_F 	F 	0.252	0.888	0.3353	-0.124
Mof_F 	F 	0.5301	0.0659	0.4308	-0.341
Mof_O 	O 	0.4147	0.0023	0.1855	-0.677
Mof_O 	O 	0.4021	0.9497	0.1027	-0.712
Mof_O 	O 	0.0998	0.0158	0.3604	-0.718
Mof_O 	O 	0.1049	0.9574	0.4194	-0.674
Mof_O 	O 	0.4799	0.9698	0.1175	-1.278
Mof_O 	O 	0.4885	0.0607	0.0168	-1.39
Mof_C 	C 	0.3934	0.9737	0.1563	0.747
Mof_C 	C 	0.354	0.9717	0.1989	-0.631
Mof_C 	C 	0.3253	0.9491	0.1587	0.839
Mof_H 	H 	0.3314	0.9341	0.1075	-0.166
Mof_C 	C 	0.2878	0.9487	0.1935	-1.066
Mof_C 	C 	0.279	0.9707	0.2684	0.776
Mof_C 	C 	0.3076	0.9933	0.3086	-1.054
Mof_H 	H 	0.3016	0.0084	0.3598	1.222
Mof_C 	C 	0.3451	0.9938	0.2738	0.834
Mof_H 	H 	0.3647	0.0092	0.3012	-0.136
Mof_C 	C 	0.2577	0.9231	0.146	-0.899
Mof_C 	C 	0.2374	0.9748	0.301	0.272
Mof_C 	C 	0.221	0.9485	0.3605	-0.438
Mof_C 	C 	0.1822	0.9522	0.3851	0.438
Mof_H 	H 	0.171	0.9342	0.4257	-0.003
Mof_C 	C 	0.1598	0.9822	0.3501	-0.385
Mof_C 	C 	0.1762	0.0085	0.2906	0.495
Mof_H 	H 	0.1608	0.029	0.2667	-0.051
Mof_C 	C 	0.215	0.0048	0.266	-0.554
Mof_H 	H 	0.2262	0.0228	0.2253	0.915
Mof_C 	C 	0.2423	0.9167	0.3935	-0.378
Mof_C 	C 	0.1185	0.9846	0.3826	0.683
Mof_C 	C 	0.514	0.0327	0.4649	0.289
Mof_F 	F 	0.2811	0.9995	0.4568	-0.069
Mof_F 	F 	0.3325	0.0323	0.4291	-0.084
Mof_F 	F 	0.2782	0.0502	0.3724	-0.098
Mof_F 	F 	0.2054	0.0547	0.158	-0.154
Mof_F 	F 	0.2611	0.0481	0.201	-0.187
Mof_F 	F 	0.237	0.009	0.116	-0.11
Mof_H 	H 	0.2683	0.9332	0.1661	1.244
Mof_C 	C 	0.2994	0.0183	0.391	-0.872
Mof_H 	H 	0.2364	0.928	0.3844	0.713
Mof_C 	C 	0.2286	0.0266	0.193	-0.629
Mof_F 	F 	0.2248	0.6038	0.092	-0.082
Mof_F 	F 	0.2648	0.5977	0.202	-0.07
Mof_F 	F 	0.2661	0.5567	0.092	-0.082
Mof_F 	F 	0.2736	0.6048	0.4594	-0.124
Mof_F 	F 	0.2222	0.5774	0.4293	-0.137
Mof_F 	F 	0.248	0.612	0.3353	-0.124
Mof_F 	F 	0.9699	0.4341	0.4308	-0.341
Mof_O 	O 	0.0853	0.4977	0.1855	-0.679
Mof_O 	O 	0.0979	0.5503	0.1027	-0.712
Mof_O 	O 	0.4002	0.4842	0.3604	-0.72
Mof_O 	O 	0.3951	0.5426	0.4194	-0.675
Mof_O 	O 	0.0201	0.5302	0.1175	-1.276
Mof_O 	O 	0.0115	0.4393	0.0168	-1.389
Mof_C 	C 	0.1066	0.5263	0.1563	0.75
Mof_C 	C 	0.146	0.5283	0.1989	-0.632
Mof_C 	C 	0.1747	0.5509	0.1587	0.84
Mof_H 	H 	0.1686	0.5659	0.1075	-0.166
Mof_C 	C 	0.2122	0.5513	0.1935	-1.066
Mof_C 	C 	0.221	0.5293	0.2684	0.775
Mof_C 	C 	0.1924	0.5067	0.3086	-1.053
Mof_H 	H 	0.1984	0.4916	0.3598	1.221
Mof_C 	C 	0.1549	0.5062	0.2738	0.838
Mof_H 	H 	0.1353	0.4908	0.3012	-0.138
Mof_C 	C 	0.2423	0.5769	0.146	-0.899
Mof_C 	C 	0.2626	0.5252	0.301	0.275
Mof_C 	C 	0.279	0.5515	0.3605	-0.439
Mof_C 	C 	0.3178	0.5478	0.3851	0.438
Mof_H 	H 	0.329	0.5658	0.4257	-0.003
Mof_C 	C 	0.3402	0.5178	0.3501	-0.384
Mof_C 	C 	0.3238	0.4915	0.2906	0.493
Mof_H 	H 	0.3392	0.471	0.2667	-0.051
Mof_C 	C 	0.285	0.4952	0.266	-0.556
Mof_H 	H 	0.2738	0.4772	0.2253	0.915
Mof_C 	C 	0.2577	0.5833	0.3935	-0.377
Mof_C 	C 	0.3815	0.5154	0.3826	0.685
Mof_C 	C 	0.986	0.4673	0.4649	0.287
Mof_F 	F 	0.2189	0.5005	0.4568	-0.068
Mof_F 	F 	0.1675	0.4677	0.4291	-0.084
Mof_F 	F 	0.2218	0.4498	0.3724	-0.098
Mof_F 	F 	0.2946	0.4453	0.158	-0.155
Mof_F 	F 	0.2389	0.4519	0.201	-0.188
Mof_F 	F 	0.263	0.491	0.116	-0.111
Mof_H 	H 	0.2317	0.5668	0.1661	1.244
Mof_C 	C 	0.2006	0.4817	0.391	-0.874
Mof_H 	H 	0.2636	0.572	0.3844	0.713
Mof_C 	C 	0.2714	0.4734	0.193	-0.627
Mof_Zr	Zr	0.55045	0.05045	-0	3.195
Mof_Zr	Zr	0.94955	0.44955	-0	3.195
Mof_Zr	Zr	0.44955	0.55045	0.5	3.211
Mof_Zr	Zr	0.05045	0.94955	0.5	3.211
Mof_Zr	Zr	0.44955	0.94955	-0	3.195
Mof_Zr	Zr	0.05045	0.55045	-0	3.195
Mof_Zr	Zr	0.55045	0.44955	0.5	3.211
Mof_Zr	Zr	0.94955	0.05045	0.5	3.211
Mof_Zr	Zr	0.46921	0.03079	0.13409	3.203
Mof_Zr	Zr	0.54146	0.95854	0.09876	3.173
Mof_O 	O 	0.4767	0.0233	0.2719	-0.765
Mof_O 	O 	0.4381	0.0619	0.355	-0.221
Mof_C 	C 	0.4647	0.0353	0.3376	0.64
Mof_C 	C 	0.4797	0.0203	0.425	-0.224
Mof_Zr	Zr	0.03079	0.46921	0.13409	3.203
Mof_Zr	Zr	0.95854	0.54146	0.09876	3.173
Mof_O 	O 	0.0233	0.4767	0.2719	-0.765
Mof_O 	O 	0.0619	0.4381	0.355	-0.221
Mof_C 	C 	0.0353	0.4647	0.3376	0.64
Mof_C 	C 	0.0203	0.4797	0.425	-0.224
Mof_Zr	Zr	0.46921	0.46921	0.63409	3.204
Mof_Zr	Zr	0.54146	0.54146	0.59876	3.184
Mof_O 	O 	0.4767	0.4767	0.7719	-0.775
Mof_O 	O 	0.4381	0.4381	0.855	-0.211
Mof_C 	C 	0.4647	0.4647	0.8376	0.683
Mof_C 	C 	0.4797	0.4797	0.925	-0.333
Mof_Zr	Zr	0.03079	0.03079	0.63409	3.204
Mof_Zr	Zr	0.95854	0.95854	0.59876	3.184
Mof_O 	O 	0.0233	0.0233	0.7719	-0.774
Mof_O 	O 	0.0619	0.0619	0.855	-0.211
Mof_C 	C 	0.0353	0.0353	0.8376	0.682
Mof_C 	C 	0.0203	0.0203	0.925	-0.329
Mof_Zr	Zr	0.53079	0.53079	0.36591	3.203
Mof_Zr	Zr	0.45854	0.45854	0.40124	3.183
Mof_O 	O 	0.5233	0.5233	0.2281	-0.756
Mof_O 	O 	0.5619	0.5619	0.145	-0.225
Mof_C 	C 	0.5353	0.5353	0.1624	0.598
Mof_C 	C 	0.5203	0.5203	0.075	-0.12
Mof_Zr	Zr	0.96921	0.96921	0.36591	3.203
Mof_Zr	Zr	0.04146	0.04146	0.40124	3.183
Mof_O 	O 	0.9767	0.9767	0.2281	-0.758
Mof_O 	O 	0.9381	0.9381	0.145	-0.226
Mof_C 	C 	0.9647	0.9647	0.1624	0.601
Mof_C 	C 	0.9797	0.9797	0.075	-0.127
Mof_Zr	Zr	0.53079	0.96921	0.86591	3.204
Mof_Zr	Zr	0.45854	0.04146	0.90124	3.194
Mof_O 	O 	0.5233	0.9767	0.7281	-0.766
Mof_O 	O 	0.5619	0.9381	0.645	-0.215
Mof_C 	C 	0.5353	0.9647	0.6624	0.641
Mof_C 	C 	0.5203	0.9797	0.575	-0.229
Mof_Zr	Zr	0.96921	0.53079	0.86591	3.204
Mof_Zr	Zr	0.04146	0.45854	0.90124	3.194
Mof_O 	O 	0.9767	0.5233	0.7281	-0.766
Mof_O 	O 	0.9381	0.5619	0.645	-0.215
Mof_C 	C 	0.9647	0.5353	0.6624	0.641
Mof_C 	C 	0.9797	0.5203	0.575	-0.229
_end
