data_functionalizedCrystal
_audit_creation_method	'EQeq! by Chris Wilmer'
_symmetry_space_group_name_H-M	'P1'
_symmetry_Int_Tables_number	1
_symmetry_cell_setting	triclinic
loop_
_symmetry_equiv_pos_as_xyz
  x,y,z
_cell_length_a	37.06
_cell_length_b	13.328
_cell_length_c	9.373
_cell_angle_alpha	90
_cell_angle_beta	102.153
_cell_angle_gamma	90
loop_
_atom_site_label
_atom_site_type_symbol
_atom_site_fract_x
_atom_site_fract_y
_atom_site_fract_z
_atom_site_charge
Mof_Ni	Ni	0.86212	0.21647	0.16563	1.058
Mof_O 	O 	0.82072	0.1286	0.2199	-0.421
Mof_O 	O 	0.66651	0.8376	0.2842	-0.42
Mof_O 	O 	0.85203	0.0563	0.4249	-0.32
Mof_N 	N 	0.83158	0.2243	0.9549	-0.252
Mof_O 	O 	0.64046	0.8633	0.0509	-0.307
Mof_N 	N 	0.90326	0.3086	0.1119	-0.268
Mof_C 	C 	0.77385	0.2545	0.7917	-0.2
Mof_H 	H 	0.749	0.2706	0.7796	0.112
Mof_C 	C 	0.79562	0.2471	0.9284	0.121
Mof_H 	H 	0.7848	0.2587	0.0078	-0.008
Mof_C 	C 	0.72616	0.9571	0.2536	0.026
Mof_H 	H 	0.7258	0.9275	0.3432	0.036
Mof_C 	C 	0.69654	0.9453	0.1486	-0.226
Mof_H 	H 	0.6952	0.9803	0.0619	0.124
Mof_C 	C 	0.8265	0.215	0.6978	-0.199
Mof_H 	H 	0.8382	0.2045	0.6203	0.115
Mof_C 	C 	0.75888	0.0118	0.2417	0.031
Mof_H 	H 	0.7584	0.0474	0.1561	0.032
Mof_C 	C 	0.78928	0.015	0.3426	-0.228
Mof_H 	H 	0.7897	0.9806	0.4292	0.122
Mof_C 	C 	0.76786	0.2433	0.5188	-0.091
Mof_H 	H 	0.7808	0.2367	0.4443	0.071
Mof_C 	C 	0.7893	0.2378	0.6705	0.148
Mof_C 	C 	0.66524	0.8785	0.1623	0.383
Mof_C 	C 	0.82317	0.0704	0.3272	0.372
Mof_C 	C 	0.8462	0.2079	0.8378	0.123
Mof_H 	H 	0.871	0.1908	0.8527	-0.031
Mof_C 	C 	0.9646	0.3387	0.085	-0.196
Mof_H 	H 	0.9883	0.3137	0.0905	0.092
Mof_C 	C 	0.93739	0.2777	0.1203	0.109
Mof_H 	H 	0.9435	0.2124	0.151	-0.047
Mof_C 	C 	0.9563	0.4379	0.0412	0.147
Mof_C 	C 	0.9831	0.5087	0.9988	-0.092
Mof_H 	H 	0.9743	0.572	0.9675	0.06
Mof_C 	C 	0.9214	0.4672	0.0339	-0.215
Mof_H 	H 	0.9143	0.532	0.0038	0.12
Mof_C 	C 	0.89603	0.4026	0.0703	0.13
Mof_H 	H 	0.8722	0.4263	0.0655	-0.009
Mof_Ni	Ni	0.36212	0.71647	0.16563	1.057
Mof_O 	O 	0.32072	0.6286	0.2199	-0.422
Mof_O 	O 	0.16651	0.3376	0.2842	-0.42
Mof_O 	O 	0.35203	0.5563	0.4249	-0.32
Mof_N 	N 	0.33158	0.7243	0.9549	-0.252
Mof_O 	O 	0.14046	0.3633	0.0509	-0.307
Mof_N 	N 	0.40326	0.8086	0.1119	-0.268
Mof_C 	C 	0.27385	0.7545	0.7917	-0.2
Mof_H 	H 	0.249	0.7706	0.7796	0.112
Mof_C 	C 	0.29562	0.7471	0.9284	0.121
Mof_H 	H 	0.2848	0.7587	0.0078	-0.007
Mof_C 	C 	0.22616	0.4571	0.2536	0.026
Mof_H 	H 	0.2258	0.4275	0.3432	0.036
Mof_C 	C 	0.19654	0.4453	0.1486	-0.226
Mof_H 	H 	0.1952	0.4803	0.0619	0.124
Mof_C 	C 	0.3265	0.715	0.6978	-0.199
Mof_H 	H 	0.3382	0.7045	0.6203	0.115
Mof_C 	C 	0.25888	0.5118	0.2417	0.031
Mof_H 	H 	0.2584	0.5474	0.1561	0.032
Mof_C 	C 	0.28928	0.515	0.3426	-0.228
Mof_H 	H 	0.2897	0.4806	0.4292	0.122
Mof_C 	C 	0.26786	0.7433	0.5188	-0.091
Mof_H 	H 	0.2808	0.7367	0.4443	0.071
Mof_C 	C 	0.2893	0.7378	0.6705	0.148
Mof_C 	C 	0.16524	0.3785	0.1623	0.383
Mof_C 	C 	0.32317	0.5704	0.3272	0.372
Mof_C 	C 	0.3462	0.7079	0.8378	0.123
Mof_H 	H 	0.371	0.6908	0.8527	-0.031
Mof_C 	C 	0.4646	0.8387	0.085	-0.196
Mof_H 	H 	0.4883	0.8137	0.0905	0.092
Mof_C 	C 	0.43739	0.7777	0.1203	0.109
Mof_H 	H 	0.4435	0.7124	0.151	-0.047
Mof_C 	C 	0.4563	0.9379	0.0412	0.146
Mof_C 	C 	0.4831	0.0087	0.9988	-0.093
Mof_H 	H 	0.4743	0.072	0.9675	0.06
Mof_C 	C 	0.4214	0.9672	0.0339	-0.214
Mof_H 	H 	0.4143	0.032	0.0038	0.12
Mof_C 	C 	0.39603	0.9026	0.0703	0.13
Mof_H 	H 	0.3722	0.9263	0.0655	-0.009
Mof_Ni	Ni	0.13788	0.21647	0.33437	1.057
Mof_O 	O 	0.17928	0.1286	0.2801	-0.422
Mof_O 	O 	0.33349	0.8376	0.2158	-0.42
Mof_O 	O 	0.14797	0.0563	0.0751	-0.32
Mof_N 	N 	0.16842	0.2243	0.5451	-0.252
Mof_O 	O 	0.35954	0.8633	0.4491	-0.307
Mof_N 	N 	0.09674	0.3086	0.3881	-0.268
Mof_C 	C 	0.22615	0.2545	0.7083	-0.2
Mof_H 	H 	0.251	0.2706	0.7204	0.112
Mof_C 	C 	0.20438	0.2471	0.5716	0.121
Mof_H 	H 	0.2152	0.2587	0.4922	-0.007
Mof_C 	C 	0.27384	0.9571	0.2464	0.026
Mof_H 	H 	0.2742	0.9275	0.1568	0.036
Mof_C 	C 	0.30346	0.9453	0.3514	-0.226
Mof_H 	H 	0.3048	0.9803	0.4381	0.124
Mof_C 	C 	0.1735	0.215	0.8022	-0.199
Mof_H 	H 	0.1618	0.2045	0.8797	0.115
Mof_C 	C 	0.24112	0.0118	0.2583	0.031
Mof_H 	H 	0.2416	0.0474	0.3439	0.032
Mof_C 	C 	0.21072	0.015	0.1574	-0.228
Mof_H 	H 	0.2103	0.9806	0.0708	0.122
Mof_C 	C 	0.23214	0.2433	0.9812	-0.091
Mof_H 	H 	0.2192	0.2367	0.0557	0.07
Mof_C 	C 	0.2107	0.2378	0.8295	0.148
Mof_C 	C 	0.33476	0.8785	0.3377	0.383
Mof_C 	C 	0.17683	0.0704	0.1728	0.373
Mof_C 	C 	0.1538	0.2079	0.6622	0.123
Mof_H 	H 	0.129	0.1908	0.6473	-0.031
Mof_C 	C 	0.0354	0.3387	0.415	-0.196
Mof_H 	H 	0.0117	0.3137	0.4095	0.092
Mof_C 	C 	0.06261	0.2777	0.3797	0.109
Mof_H 	H 	0.0565	0.2124	0.349	-0.047
Mof_C 	C 	0.0437	0.4379	0.4588	0.147
Mof_C 	C 	0.0169	0.5087	0.5012	-0.092
Mof_H 	H 	0.0257	0.572	0.5325	0.06
Mof_C 	C 	0.0786	0.4672	0.4661	-0.215
Mof_H 	H 	0.0857	0.532	0.4962	0.12
Mof_C 	C 	0.10397	0.4026	0.4297	0.13
Mof_H 	H 	0.1278	0.4263	0.4345	-0.009
Mof_Ni	Ni	0.63788	0.71647	0.33437	1.057
Mof_O 	O 	0.67928	0.6286	0.2801	-0.422
Mof_O 	O 	0.83349	0.3376	0.2158	-0.42
Mof_O 	O 	0.64797	0.5563	0.0751	-0.32
Mof_N 	N 	0.66842	0.7243	0.5451	-0.252
Mof_O 	O 	0.85954	0.3633	0.4491	-0.307
Mof_N 	N 	0.59674	0.8086	0.3881	-0.268
Mof_C 	C 	0.72615	0.7545	0.7083	-0.2
Mof_H 	H 	0.751	0.7706	0.7204	0.112
Mof_C 	C 	0.70438	0.7471	0.5716	0.121
Mof_H 	H 	0.7152	0.7587	0.4922	-0.008
Mof_C 	C 	0.77384	0.4571	0.2464	0.026
Mof_H 	H 	0.7742	0.4275	0.1568	0.036
Mof_C 	C 	0.80346	0.4453	0.3514	-0.226
Mof_H 	H 	0.8048	0.4803	0.4381	0.124
Mof_C 	C 	0.6735	0.715	0.8022	-0.199
Mof_H 	H 	0.6618	0.7045	0.8797	0.115
Mof_C 	C 	0.74112	0.5118	0.2583	0.031
Mof_H 	H 	0.7416	0.5474	0.3439	0.032
Mof_C 	C 	0.71072	0.515	0.1574	-0.228
Mof_H 	H 	0.7103	0.4806	0.0708	0.122
Mof_C 	C 	0.73214	0.7433	0.9812	-0.092
Mof_H 	H 	0.7192	0.7367	0.0557	0.071
Mof_C 	C 	0.7107	0.7378	0.8295	0.149
Mof_C 	C 	0.83476	0.3785	0.3377	0.383
Mof_C 	C 	0.67683	0.5704	0.1728	0.372
Mof_C 	C 	0.6538	0.7079	0.6622	0.123
Mof_H 	H 	0.629	0.6908	0.6473	-0.031
Mof_C 	C 	0.5354	0.8387	0.415	-0.196
Mof_H 	H 	0.5117	0.8137	0.4095	0.092
Mof_C 	C 	0.56261	0.7777	0.3797	0.109
Mof_H 	H 	0.5565	0.7124	0.349	-0.047
Mof_C 	C 	0.5437	0.9379	0.4588	0.147
Mof_C 	C 	0.5169	0.0087	0.5012	-0.093
Mof_H 	H 	0.5257	0.072	0.5325	0.06
Mof_C 	C 	0.5786	0.9672	0.4661	-0.215
Mof_H 	H 	0.5857	0.032	0.4962	0.12
Mof_C 	C 	0.60397	0.9026	0.4297	0.13
Mof_H 	H 	0.6278	0.9263	0.4345	-0.01
Mof_Ni	Ni	0.13788	0.78353	0.83437	1.057
Mof_O 	O 	0.17928	0.8714	0.7801	-0.422
Mof_O 	O 	0.33349	0.1624	0.7158	-0.42
Mof_O 	O 	0.14797	0.9437	0.5751	-0.32
Mof_N 	N 	0.16842	0.7757	0.0451	-0.252
Mof_O 	O 	0.35954	0.1367	0.9491	-0.307
Mof_N 	N 	0.09674	0.6914	0.8881	-0.268
Mof_C 	C 	0.22615	0.7455	0.2083	-0.2
Mof_H 	H 	0.251	0.7294	0.2204	0.112
Mof_C 	C 	0.20438	0.7529	0.0716	0.121
Mof_H 	H 	0.2152	0.7413	0.9922	-0.008
Mof_C 	C 	0.27384	0.0429	0.7464	0.026
Mof_H 	H 	0.2742	0.0725	0.6568	0.036
Mof_C 	C 	0.30346	0.0547	0.8514	-0.226
Mof_H 	H 	0.3048	0.0197	0.9381	0.124
Mof_C 	C 	0.1735	0.785	0.3022	-0.199
Mof_H 	H 	0.1618	0.7955	0.3797	0.115
Mof_C 	C 	0.24112	0.9882	0.7583	0.031
Mof_H 	H 	0.2416	0.9526	0.8439	0.032
Mof_C 	C 	0.21072	0.985	0.6574	-0.228
Mof_H 	H 	0.2103	0.0194	0.5708	0.122
Mof_C 	C 	0.23214	0.7567	0.4812	-0.091
Mof_H 	H 	0.2192	0.7633	0.5557	0.071
Mof_C 	C 	0.2107	0.7622	0.3295	0.148
Mof_C 	C 	0.33476	0.1215	0.8377	0.383
Mof_C 	C 	0.17683	0.9296	0.6728	0.372
Mof_C 	C 	0.1538	0.7921	0.1622	0.123
Mof_H 	H 	0.129	0.8092	0.1473	-0.031
Mof_C 	C 	0.0354	0.6613	0.915	-0.196
Mof_H 	H 	0.0117	0.6863	0.9095	0.092
Mof_C 	C 	0.06261	0.7223	0.8797	0.109
Mof_H 	H 	0.0565	0.7876	0.849	-0.047
Mof_C 	C 	0.0437	0.5621	0.9588	0.147
Mof_C 	C 	0.0169	0.4913	0.0012	-0.092
Mof_H 	H 	0.0257	0.428	0.0325	0.06
Mof_C 	C 	0.0786	0.5328	0.9661	-0.215
Mof_H 	H 	0.0857	0.468	0.9962	0.12
Mof_C 	C 	0.10397	0.5974	0.9297	0.13
Mof_H 	H 	0.1278	0.5737	0.9345	-0.009
Mof_Ni	Ni	0.63788	0.28353	0.83437	1.057
Mof_O 	O 	0.67928	0.3714	0.7801	-0.422
Mof_O 	O 	0.83349	0.6624	0.7158	-0.42
Mof_O 	O 	0.64797	0.4437	0.5751	-0.32
Mof_N 	N 	0.66842	0.2757	0.0451	-0.252
Mof_O 	O 	0.85954	0.6367	0.9491	-0.307
Mof_N 	N 	0.59674	0.1914	0.8881	-0.268
Mof_C 	C 	0.72615	0.2455	0.2083	-0.2
Mof_H 	H 	0.751	0.2294	0.2204	0.112
Mof_C 	C 	0.70438	0.2529	0.0716	0.121
Mof_H 	H 	0.7152	0.2413	0.9922	-0.007
Mof_C 	C 	0.77384	0.5429	0.7464	0.026
Mof_H 	H 	0.7742	0.5725	0.6568	0.036
Mof_C 	C 	0.80346	0.5547	0.8514	-0.226
Mof_H 	H 	0.8048	0.5197	0.9381	0.124
Mof_C 	C 	0.6735	0.285	0.3022	-0.199
Mof_H 	H 	0.6618	0.2955	0.3797	0.115
Mof_C 	C 	0.74112	0.4882	0.7583	0.031
Mof_H 	H 	0.7416	0.4526	0.8439	0.032
Mof_C 	C 	0.71072	0.485	0.6574	-0.228
Mof_H 	H 	0.7103	0.5194	0.5708	0.122
Mof_C 	C 	0.73214	0.2567	0.4812	-0.091
Mof_H 	H 	0.7192	0.2633	0.5557	0.071
Mof_C 	C 	0.7107	0.2622	0.3295	0.148
Mof_C 	C 	0.83476	0.6215	0.8377	0.383
Mof_C 	C 	0.67683	0.4296	0.6728	0.372
Mof_C 	C 	0.6538	0.2921	0.1622	0.123
Mof_H 	H 	0.629	0.3092	0.1473	-0.031
Mof_C 	C 	0.5354	0.1613	0.915	-0.196
Mof_H 	H 	0.5117	0.1863	0.9095	0.092
Mof_C 	C 	0.56261	0.2223	0.8797	0.109
Mof_H 	H 	0.5565	0.2876	0.849	-0.047
Mof_C 	C 	0.5437	0.0621	0.9588	0.146
Mof_C 	C 	0.5169	0.9913	0.0012	-0.093
Mof_H 	H 	0.5257	0.928	0.0325	0.06
Mof_C 	C 	0.5786	0.0328	0.9661	-0.214
Mof_H 	H 	0.5857	0.968	0.9962	0.12
Mof_C 	C 	0.60397	0.0974	0.9297	0.13
Mof_H 	H 	0.6278	0.0737	0.9345	-0.009
Mof_Ni	Ni	0.86212	0.78353	0.66563	1.057
Mof_O 	O 	0.82072	0.8714	0.7199	-0.422
Mof_O 	O 	0.66651	0.1624	0.7842	-0.42
Mof_O 	O 	0.85203	0.9437	0.9249	-0.32
Mof_N 	N 	0.83158	0.7757	0.4549	-0.252
Mof_O 	O 	0.64046	0.1367	0.5509	-0.307
Mof_N 	N 	0.90326	0.6914	0.6119	-0.268
Mof_C 	C 	0.77385	0.7455	0.2917	-0.2
Mof_H 	H 	0.749	0.7294	0.2796	0.112
Mof_C 	C 	0.79562	0.7529	0.4284	0.121
Mof_H 	H 	0.7848	0.7413	0.5078	-0.007
Mof_C 	C 	0.72616	0.0429	0.7536	0.026
Mof_H 	H 	0.7258	0.0725	0.8432	0.036
Mof_C 	C 	0.69654	0.0547	0.6486	-0.226
Mof_H 	H 	0.6952	0.0197	0.5619	0.124
Mof_C 	C 	0.8265	0.785	0.1978	-0.199
Mof_H 	H 	0.8382	0.7955	0.1203	0.115
Mof_C 	C 	0.75888	0.9882	0.7417	0.031
Mof_H 	H 	0.7584	0.9526	0.6561	0.032
Mof_C 	C 	0.78928	0.985	0.8426	-0.228
Mof_H 	H 	0.7897	0.0194	0.9292	0.122
Mof_C 	C 	0.76786	0.7567	0.0188	-0.091
Mof_H 	H 	0.7808	0.7633	0.9443	0.07
Mof_C 	C 	0.7893	0.7622	0.1705	0.148
Mof_C 	C 	0.66524	0.1215	0.6623	0.383
Mof_C 	C 	0.82317	0.9296	0.8272	0.373
Mof_C 	C 	0.8462	0.7921	0.3378	0.123
Mof_H 	H 	0.871	0.8092	0.3527	-0.031
Mof_C 	C 	0.9646	0.6613	0.585	-0.196
Mof_H 	H 	0.9883	0.6863	0.5905	0.092
Mof_C 	C 	0.93739	0.7223	0.6203	0.109
Mof_H 	H 	0.9435	0.7876	0.651	-0.047
Mof_C 	C 	0.9563	0.5621	0.5412	0.147
Mof_C 	C 	0.9831	0.4913	0.4988	-0.092
Mof_H 	H 	0.9743	0.428	0.4675	0.06
Mof_C 	C 	0.9214	0.5328	0.5339	-0.215
Mof_H 	H 	0.9143	0.468	0.5038	0.12
Mof_C 	C 	0.89603	0.5974	0.5703	0.13
Mof_H 	H 	0.8722	0.5737	0.5655	-0.009
Mof_Ni	Ni	0.36212	0.28353	0.66563	1.057
Mof_O 	O 	0.32072	0.3714	0.7199	-0.422
Mof_O 	O 	0.16651	0.6624	0.7842	-0.42
Mof_O 	O 	0.35203	0.4437	0.9249	-0.32
Mof_N 	N 	0.33158	0.2757	0.4549	-0.252
Mof_O 	O 	0.14046	0.6367	0.5509	-0.307
Mof_N 	N 	0.40326	0.1914	0.6119	-0.268
Mof_C 	C 	0.27385	0.2455	0.2917	-0.2
Mof_H 	H 	0.249	0.2294	0.2796	0.112
Mof_C 	C 	0.29562	0.2529	0.4284	0.121
Mof_H 	H 	0.2848	0.2413	0.5078	-0.008
Mof_C 	C 	0.22616	0.5429	0.7536	0.026
Mof_H 	H 	0.2258	0.5725	0.8432	0.036
Mof_C 	C 	0.19654	0.5547	0.6486	-0.226
Mof_H 	H 	0.1952	0.5197	0.5619	0.124
Mof_C 	C 	0.3265	0.285	0.1978	-0.199
Mof_H 	H 	0.3382	0.2955	0.1203	0.115
Mof_C 	C 	0.25888	0.4882	0.7417	0.031
Mof_H 	H 	0.2584	0.4526	0.6561	0.032
Mof_C 	C 	0.28928	0.485	0.8426	-0.228
Mof_H 	H 	0.2897	0.5194	0.9292	0.122
Mof_C 	C 	0.26786	0.2567	0.0188	-0.092
Mof_H 	H 	0.2808	0.2633	0.9443	0.071
Mof_C 	C 	0.2893	0.2622	0.1705	0.149
Mof_C 	C 	0.16524	0.6215	0.6623	0.383
Mof_C 	C 	0.32317	0.4296	0.8272	0.372
Mof_C 	C 	0.3462	0.2921	0.3378	0.123
Mof_H 	H 	0.371	0.3092	0.3527	-0.031
Mof_C 	C 	0.4646	0.1613	0.585	-0.196
Mof_H 	H 	0.4883	0.1863	0.5905	0.092
Mof_C 	C 	0.43739	0.2223	0.6203	0.109
Mof_H 	H 	0.4435	0.2876	0.651	-0.047
Mof_C 	C 	0.4563	0.0621	0.5412	0.147
Mof_C 	C 	0.4831	0.9913	0.4988	-0.093
Mof_H 	H 	0.4743	0.928	0.4675	0.06
Mof_C 	C 	0.4214	0.0328	0.5339	-0.215
Mof_H 	H 	0.4143	0.968	0.5038	0.12
Mof_C 	C 	0.39603	0.0974	0.5703	0.13
Mof_H 	H 	0.3722	0.0737	0.5655	-0.01
_end
