data_functionalizedCrystal
_audit_creation_method	'EQeq! by Chris Wilmer'
_symmetry_space_group_name_H-M	'P1'
_symmetry_Int_Tables_number	1
_symmetry_cell_setting	triclinic
loop_
_symmetry_equiv_pos_as_xyz
  x,y,z
_cell_length_a	14.2086
_cell_length_b	15.5883
_cell_length_c	15.5883
_cell_angle_alpha	78.0122
_cell_angle_beta	62.8871
_cell_angle_gamma	62.8871
loop_
_atom_site_label
_atom_site_type_symbol
_atom_site_fract_x
_atom_site_fract_y
_atom_site_fract_z
_atom_site_charge
Mof_Ca	Ca	0.54746	3.96345e-23	0.40508	1.071
Mof_Ca	Ca	0.95254	3.96345e-23	0.59492	1.112
Mof_Ca	Ca	0.04746	0.40508	-0	1.062
Mof_Ca	Ca	0.45254	0.59492	-0	1.103
Mof_Cd	Cd	0.23224	0.03553	0.5	0.371
Mof_Cd	Cd	0.76776	0.96447	0.5	0.573
Mof_Cd	Cd	0.26777	0.5	0.96446	0.572
Mof_Cd	Cd	0.73223	0.5	0.03554	0.374
Mof_H 	H 	0.6016	0.3456	0.2732	0.283
Mof_H 	H 	0.446	0.2252	0.3994	0.093
Mof_H 	H 	0.4881	0.4138	0.1824	0.103
Mof_H 	H 	0.2786	0.2853	0.2297	0.049
Mof_H 	H 	0.2204	0.6544	0.7268	0.294
Mof_H 	H 	0.0706	0.7748	0.6006	0.111
Mof_H 	H 	0.0843	0.5862	0.8176	0.131
Mof_H 	H 	0.7936	0.7147	0.7703	0.085
Mof_H 	H 	0.1252	0.2732	0.6544	0.286
Mof_H 	H 	0.1546	0.3994	0.7748	0.103
Mof_H 	H 	0.3295	0.1824	0.5862	0.108
Mof_H 	H 	0.4917	0.2297	0.7147	0.063
Mof_H 	H 	0.0528	0.7268	0.3456	0.286
Mof_H 	H 	0.3288	0.6006	0.2252	0.097
Mof_H 	H 	0.0981	0.8176	0.4138	0.119
Mof_H 	H 	0.4361	0.7703	0.2853	0.067
Mof_H 	H 	0.7204	0.7268	0.6544	0.293
Mof_H 	H 	0.5706	0.6006	0.7748	0.108
Mof_H 	H 	0.5843	0.8176	0.5862	0.126
Mof_H 	H 	0.2936	0.7703	0.7147	0.081
Mof_H 	H 	0.1016	0.2732	0.3456	0.284
Mof_H 	H 	0.946	0.3994	0.2252	0.097
Mof_H 	H 	0.9881	0.1824	0.4138	0.106
Mof_H 	H 	0.7786	0.2297	0.2853	0.051
Mof_H 	H 	0.5528	0.3456	0.7268	0.29
Mof_H 	H 	0.8288	0.2252	0.6006	0.099
Mof_H 	H 	0.5981	0.4138	0.8176	0.123
Mof_H 	H 	0.9361	0.2853	0.7703	0.07
Mof_H 	H 	0.6252	0.6544	0.2732	0.287
Mof_H 	H 	0.6546	0.7748	0.3994	0.105
Mof_H 	H 	0.8295	0.5862	0.1824	0.111
Mof_H 	H 	0.9917	0.7147	0.2297	0.068
Mof_C 	C 	0.3042	0.1743	0.3809	0.315
Mof_C 	C 	0.3534	0.41339	0.10961	0.353
Mof_C 	C 	0.3546	0.24405	0.32255	-0.046
Mof_C 	C 	0.43	0.258	0.3472	-0.176
Mof_C 	C 	0.4805	0.3206	0.294	0.265
Mof_C 	C 	0.4553	0.37078	0.21722	-0.186
Mof_C 	C 	0.3807	0.35677	0.19203	-0.036
Mof_C 	C 	0.3295	0.2938	0.2456	-0.037
Mof_C 	C 	0.8594	0.8257	0.6191	0.306
Mof_C 	C 	0.8764	0.58661	0.89039	0.326
Mof_C 	C 	0.9212	0.75595	0.67745	0.007
Mof_C 	C 	0.0352	0.742	0.6528	-0.202
Mof_C 	C 	0.0951	0.6794	0.706	0.305
Mof_C 	C 	0.0433	0.62922	0.78278	-0.215
Mof_C 	C 	0.9295	0.64323	0.80797	0.029
Mof_C 	C 	0.8689	0.7062	0.7544	-0.064
Mof_C 	C 	0.3149	0.3809	0.8257	0.308
Mof_C 	C 	0.53699	0.10961	0.58661	0.351
Mof_C 	C 	0.32285	0.32255	0.75595	-0.022
Mof_C 	C 	0.2228	0.3472	0.742	-0.179
Mof_C 	C 	0.2255	0.294	0.6794	0.278
Mof_C 	C 	0.32748	0.21722	0.62922	-0.189
Mof_C 	C 	0.42727	0.19203	0.64323	-0.021
Mof_C 	C 	0.4249	0.2456	0.7062	-0.042
Mof_C 	C 	0.5215	0.6191	0.1743	0.316
Mof_C 	C 	0.23321	0.89039	0.41339	0.334
Mof_C 	C 	0.40135	0.67745	0.24405	-0.029
Mof_C 	C 	0.312	0.6528	0.258	-0.182
Mof_C 	C 	0.1989	0.706	0.3206	0.281
Mof_C 	C 	0.17392	0.78278	0.37078	-0.195
Mof_C 	C 	0.26253	0.80797	0.35677	0.001
Mof_C 	C 	0.3767	0.7544	0.2938	-0.049
Mof_C 	C 	0.3594	0.6191	0.8257	0.309
Mof_C 	C 	0.3764	0.89039	0.58661	0.331
Mof_C 	C 	0.4212	0.67745	0.75595	-0.006
Mof_C 	C 	0.5352	0.6528	0.742	-0.185
Mof_C 	C 	0.5951	0.706	0.6794	0.296
Mof_C 	C 	0.5433	0.78278	0.62922	-0.2
Mof_C 	C 	0.4295	0.80797	0.64323	0.017
Mof_C 	C 	0.3689	0.7544	0.7062	-0.054
Mof_C 	C 	0.8042	0.3809	0.1743	0.313
Mof_C 	C 	0.8534	0.10961	0.41339	0.353
Mof_C 	C 	0.8546	0.32255	0.24405	-0.041
Mof_C 	C 	0.93	0.3472	0.258	-0.181
Mof_C 	C 	0.9805	0.294	0.3206	0.274
Mof_C 	C 	0.9553	0.21722	0.37078	-0.191
Mof_C 	C 	0.8807	0.19203	0.35677	-0.032
Mof_C 	C 	0.8295	0.2456	0.2938	-0.04
Mof_C 	C 	0.0215	0.1743	0.6191	0.31
Mof_C 	C 	0.73321	0.41339	0.89039	0.332
Mof_C 	C 	0.90135	0.24405	0.67745	-0.022
Mof_C 	C 	0.812	0.258	0.6528	-0.186
Mof_C 	C 	0.6989	0.3206	0.706	0.285
Mof_C 	C 	0.67392	0.37078	0.78278	-0.198
Mof_C 	C 	0.76253	0.35677	0.80797	0.005
Mof_C 	C 	0.8767	0.2938	0.7544	-0.053
Mof_C 	C 	0.8149	0.8257	0.3809	0.307
Mof_C 	C 	0.03699	0.58661	0.10961	0.341
Mof_C 	C 	0.82285	0.75595	0.32255	-0.018
Mof_C 	C 	0.7228	0.742	0.3472	-0.182
Mof_C 	C 	0.7255	0.6794	0.294	0.282
Mof_C 	C 	0.82748	0.62922	0.21722	-0.195
Mof_C 	C 	0.92727	0.64323	0.19203	-0.01
Mof_C 	C 	0.9249	0.7062	0.2456	-0.048
Mof_O 	O 	0.35611	0.11125	0.42893	-0.423
Mof_O 	O 	0.21456	0.17631	0.38197	-0.308
Mof_O 	O 	0.30454	0.38686	0.07586	-0.361
Mof_O 	O 	0.38158	0.4816	0.07584	-0.45
Mof_O 	O 	0.555	0.3293	0.3201	-0.436
Mof_O 	O 	0.89629	0.88875	0.57107	-0.37
Mof_O 	O 	0.77284	0.82369	0.61803	-0.277
Mof_O 	O 	0.76726	0.61314	0.92414	-0.242
Mof_O 	O 	0.93902	0.5184	0.92416	-0.345
Mof_O 	O 	0.2044	0.6707	0.6799	-0.442
Mof_O 	O 	0.21496	0.42893	0.88875	-0.372
Mof_O 	O 	0.40347	0.38197	0.82369	-0.286
Mof_O 	O 	0.6196	0.07586	0.61314	-0.349
Mof_O 	O 	0.54258	0.07584	0.5184	-0.445
Mof_O 	O 	0.1249	0.3201	0.6707	-0.436
Mof_O 	O 	0.53264	0.57107	0.11125	-0.422
Mof_O 	O 	0.60913	0.61803	0.17631	-0.299
Mof_O 	O 	0.3086	0.92414	0.38686	-0.256
Mof_O 	O 	0.13682	0.92416	0.4816	-0.358
Mof_O 	O 	0.1157	0.6799	0.3293	-0.44
Mof_O 	O 	0.39629	0.57107	0.88875	-0.372
Mof_O 	O 	0.27284	0.61803	0.82369	-0.279
Mof_O 	O 	0.26726	0.92414	0.61314	-0.244
Mof_O 	O 	0.43902	0.92416	0.5184	-0.348
Mof_O 	O 	0.7044	0.6799	0.6707	-0.439
Mof_O 	O 	0.85611	0.42893	0.11125	-0.42
Mof_O 	O 	0.71456	0.38197	0.17631	-0.306
Mof_O 	O 	0.80454	0.07586	0.38686	-0.36
Mof_O 	O 	0.88158	0.07584	0.4816	-0.45
Mof_O 	O 	0.055	0.3201	0.3293	-0.443
Mof_O 	O 	0.03264	0.11125	0.57107	-0.424
Mof_O 	O 	0.10913	0.17631	0.61803	-0.299
Mof_O 	O 	0.8086	0.38686	0.92414	-0.254
Mof_O 	O 	0.63682	0.4816	0.92416	-0.353
Mof_O 	O 	0.6157	0.3293	0.6799	-0.441
Mof_O 	O 	0.71496	0.88875	0.42893	-0.372
Mof_O 	O 	0.90347	0.82369	0.38197	-0.283
Mof_O 	O 	0.1196	0.61314	0.07586	-0.349
Mof_O 	O 	0.04258	0.5184	0.07584	-0.444
Mof_O 	O 	0.6249	0.6707	0.3201	-0.436
_end
