data_functionalizedCrystal
_audit_creation_method	'EQeq! by Chris Wilmer'
_symmetry_space_group_name_H-M	'P1'
_symmetry_Int_Tables_number	1
_symmetry_cell_setting	triclinic
loop_
_symmetry_equiv_pos_as_xyz
  x,y,z
_cell_length_a	10.2343
_cell_length_b	19.118
_cell_length_c	20.9287
_cell_angle_alpha	67.553
_cell_angle_beta	86.753
_cell_angle_gamma	83.63
loop_
_atom_site_label
_atom_site_type_symbol
_atom_site_fract_x
_atom_site_fract_y
_atom_site_fract_z
_atom_site_charge
Mof_Cd	Cd	0.99075	0.16458	0.09415	0.485
Mof_Cd	Cd	0.72089	0.09936	0.00832	0.468
Mof_Cd	Cd	0.35536	0.12775	0.05273	0.484
Mof_H 	H 	0.4548	0.2346	0.1234	0.03
Mof_H 	H 	0.5156	0.2288	0.2303	0.088
Mof_H 	H 	0.5292	0.9998	0.3077	0.123
Mof_H 	H 	0.4555	0.0109	0.2005	0.041
Mof_H 	H 	0.7587	0.0313	0.3196	0.154
Mof_H 	H 	0.964	0.9738	0.4941	0.129
Mof_H 	H 	0.8123	0.0396	0.5387	0.028
Mof_H 	H 	0.4081	0.2003	0.343	0.09
Mof_H 	H 	0.6514	0.2618	0.4505	0.023
Mof_H 	H 	0.6825	0.3743	0.456	0.141
Mof_H 	H 	0.6772	0.279	0.6663	0.134
Mof_H 	H 	0.5881	0.0304	0.7175	0.092
Mof_H 	H 	0.5277	0.069	0.9088	0.038
Mof_H 	H 	0.487	0.0818	0.7957	0.085
Mof_H 	H 	0.8281	0.1768	0.7368	0.087
Mof_H 	H 	0.8582	0.163	0.8497	0.036
Mof_H 	H 	0.2406	0.2384	0.9033	0.051
Mof_H 	H 	0.1894	0.2384	0.7982	0.107
Mof_H 	H 	0.2251	0.0079	0.8795	0.091
Mof_H 	H 	0.2827	0.0166	0.9821	0.039
Mof_H 	H 	0.0295	0.0253	0.8388	0.128
Mof_H 	H 	0.8668	0.9682	0.6994	0.128
Mof_H 	H 	0.9796	0.0474	0.614	0.031
Mof_H 	H 	0.319	0.1999	0.713	0.086
Mof_H 	H 	0.0457	0.2753	0.5599	0.026
Mof_H 	H 	0.9729	0.3866	0.4805	0.143
Mof_H 	H 	0.9869	0.2964	0.3333	0.101
Mof_H 	H 	0.1775	0.051	0.4409	0.101
Mof_H 	H 	0.201	0.1082	0.2151	0.041
Mof_H 	H 	0.2466	0.1101	0.323	0.088
Mof_H 	H 	0.8701	0.2011	0.3311	0.084
Mof_H 	H 	0.8364	0.1968	0.2245	0.022
Mof_H 	H 	0.7108	0.2537	0.0432	0.043
Mof_H 	H 	0.5641	0.3581	0.0339	0.097
Mof_H 	H 	0.8561	0.4354	0.112	0.097
Mof_H 	H 	0.9834	0.3261	0.118	0.021
Mof_H 	H 	0.6301	0.4722	0.1605	0.102
Mof_H 	H 	0.639	0.4731	0.9408	0.151
Mof_H 	H 	0.3734	0.6471	0.8348	0.133
Mof_H 	H 	0.3269	0.674	0.9343	0.058
Mof_H 	H 	0.0145	0.0333	0.0033	0.028
Mof_H 	H 	0.1563	0.929	0.0244	0.099
Mof_H 	H 	0.866	0.8108	0.032	0.091
Mof_H 	H 	0.7214	0.9245	0.0137	0.035
Mof_H 	H 	0.2744	0.8536	0.9952	0.131
Mof_H 	H 	0.2227	0.5379	0.1114	0.034
Mof_H 	H 	0.0108	0.5127	0.1564	0.131
Mof_H 	H 	0.9051	0.7388	0.0978	0.129
Mof_C 	C 	0.4665	0.1873	0.1613	0.092
Mof_C 	C 	0.5035	0.1829	0.2248	-0.139
Mof_C 	C 	0.5245	0.1139	0.2822	0.107
Mof_C 	C 	0.5109	0.0484	0.2721	-0.164
Mof_C 	C 	0.4689	0.0561	0.207	0.121
Mof_C 	C 	0.5546	0.1143	0.35	-0.033
Mof_C 	C 	0.6711	0.075	0.3892	0.097
Mof_C 	C 	0.7672	0.0327	0.364	-0.245
Mof_C 	C 	0.8702	0.9948	0.403	0.289
Mof_C 	C 	0.888	0.9996	0.4684	-0.183
Mof_C 	C 	0.8007	0.0389	0.4942	0.049
Mof_C 	C 	0.6886	0.0804	0.4536	-0.034
Mof_C 	C 	0.5913	0.1197	0.4829	-0.022
Mof_C 	C 	0.4853	0.1682	0.4383	0.165
Mof_C 	C 	0.473	0.1661	0.3732	-0.122
Mof_C 	C 	0.6092	0.1268	0.551	-0.034
Mof_C 	C 	0.6409	0.1994	0.5537	-0.03
Mof_C 	C 	0.6557	0.265	0.4945	0.048
Mof_C 	C 	0.6752	0.3304	0.497	-0.189
Mof_C 	C 	0.6852	0.333	0.5633	0.248
Mof_C 	C 	0.672	0.2732	0.6234	-0.208
Mof_C 	C 	0.6505	0.2018	0.6221	0.079
Mof_C 	C 	0.6315	0.1379	0.6809	-0.023
Mof_C 	C 	0.6029	0.0728	0.6763	-0.111
Mof_C 	C 	0.5939	0.0657	0.6081	0.147
Mof_C 	C 	0.5886	0.092	0.8729	0.095
Mof_C 	C 	0.5639	0.0996	0.8052	-0.125
Mof_C 	C 	0.6523	0.1333	0.7518	0.094
Mof_C 	C 	0.7632	0.1553	0.7709	-0.135
Mof_C 	C 	0.7814	0.1466	0.8385	0.098
Mof_C 	C 	0.2413	0.1913	0.8977	0.118
Mof_C 	C 	0.2084	0.1915	0.8359	-0.149
Mof_C 	C 	0.2025	0.1243	0.8274	0.104
Mof_C 	C 	0.2298	0.0558	0.8828	-0.151
Mof_C 	C 	0.2645	0.0623	0.943	0.101
Mof_C 	C 	0.184	0.1242	0.7554	-0.024
Mof_C 	C 	0.0995	0.0814	0.7406	0.075
Mof_C 	C 	0.0207	0.0312	0.7921	-0.204
Mof_C 	C 	0.9335	0.9912	0.7773	0.259
Mof_C 	C 	0.925	0.9979	0.7098	-0.178
Mof_C 	C 	0.9925	0.0437	0.6598	0.029
Mof_C 	C 	0.083	0.0873	0.6702	-0.015
Mof_C 	C 	0.1526	0.1324	0.6195	-0.023
Mof_C 	C 	0.2456	0.1815	0.6317	0.15
Mof_C 	C 	0.258	0.1723	0.7021	-0.122
Mof_C 	C 	0.1346	0.146	0.5453	-0.026
Mof_C 	C 	0.075	0.2189	0.4933	-0.023
Mof_C 	C 	0.0385	0.2807	0.5131	0.082
Mof_C 	C 	0.995	0.3443	0.4674	-0.195
Mof_C 	C 	0.98	0.3538	0.395	0.231
Mof_C 	C 	0.0058	0.2922	0.3786	-0.163
Mof_C 	C 	0.0606	0.2211	0.4264	0.073
Mof_C 	C 	0.0919	0.159	0.4068	-0.013
Mof_C 	C 	0.1531	0.0934	0.4537	-0.12
Mof_C 	C 	0.1806	0.0885	0.5219	0.166
Mof_C 	C 	0.1348	0.1288	0.2384	0.093
Mof_C 	C 	0.1627	0.1301	0.3032	-0.122
Mof_C 	C 	0.0675	0.1606	0.3381	0.097
Mof_C 	C 	0.9407	0.1837	0.3077	-0.144
Mof_C 	C 	0.9212	0.1807	0.2442	0.079
Mof_C 	C 	0.7387	0.2924	0.0557	0.091
Mof_C 	C 	0.6508	0.3537	0.0499	-0.142
Mof_C 	C 	0.698	0.4139	0.0701	0.092
Mof_C 	C 	0.8228	0.4004	0.0963	-0.149
Mof_C 	C 	0.898	0.3351	0.0992	0.095
Mof_C 	C 	0.6132	0.4861	0.0597	-0.055
Mof_C 	C 	0.5856	0.502	0.1187	-0.11
Mof_C 	C 	0.4929	0.5617	0.1168	0.171
Mof_C 	C 	0.4278	0.6054	0.0558	-0.063
Mof_C 	C 	0.4554	0.5895	0.9967	0.021
Mof_C 	C 	0.5481	0.5298	0.9986	0.126
Mof_C 	C 	0.5757	0.5139	0.9395	-0.204
Mof_C 	C 	0.511	0.5576	0.8785	0.26
Mof_C 	C 	0.4179	0.6173	0.8765	-0.159
Mof_C 	C 	0.3903	0.6332	0.9356	0.03
Mof_C 	C 	0.979	0.9862	0.0148	0.11
Mof_C 	C 	0.065	0.9226	0.0262	-0.175
Mof_C 	C 	0.036	0.8601	0.0383	0.143
Mof_C 	C 	0.899	0.8561	0.0304	-0.145
Mof_C 	C 	0.812	0.9252	0.0199	0.108
Mof_C 	C 	0.3156	0.6683	0.0511	-0.005
Mof_C 	C 	0.3472	0.7429	0.0203	0.131
Mof_C 	C 	0.2529	0.8026	0.0163	-0.165
Mof_C 	C 	0.127	0.7876	0.043	-0.015
Mof_C 	C 	0.0955	0.713	0.0738	0.107
Mof_C 	C 	0.1898	0.6533	0.0779	-0.034
Mof_C 	C 	0.1583	0.5787	0.1086	0.049
Mof_C 	C 	0.0324	0.5637	0.1354	-0.165
Mof_C 	C 	0.9381	0.6234	0.1313	0.265
Mof_C 	C 	0.9696	0.698	0.1006	-0.217
Mof_N 	N 	0.4469	0.12	0.1549	-0.138
Mof_N 	N 	0.695	0.116	0.8879	-0.127
Mof_N 	N 	0.2742	0.1276	0.9502	-0.129
Mof_N 	N 	0.0167	0.1561	0.2088	-0.124
Mof_N 	N 	0.8603	0.2838	0.0778	-0.142
Mof_N 	N 	0.8523	0.9869	0.0185	-0.147
Mof_Cl	Cl	0.5366	0.2145	0.9804	-0.299
Mof_Cl	Cl	0.9233	0.1804	0.9702	-0.312
Mof_Cl	Cl	0.8332	0.9324	0.8418	-0.332
Mof_Cl	Cl	0.7844	0.0891	0.1332	-0.339
Mof_Cl	Cl	0.9913	0.9442	0.3723	-0.316
Mof_Cl	Cl	0.1668	0.0449	0.1211	-0.332
Mof_Cl	Cl	0.7016	0.424	0.5669	-0.299
Mof_Cl	Cl	0.5273	0.0117	0.0569	-0.364
Mof_Cl	Cl	0.9193	0.4433	0.3353	-0.314
Mof_Cl	Cl	0.1924	0.246	0.0494	-0.354
Mof_Cl	Cl	0.5736	0.5581	0.7982	-0.289
Mof_Cl	Cl	0.7871	0.5968	0.1669	-0.347
Mof_O 	O 	0.3992	0.2143	0.4557	-0.252
Mof_O 	O 	0.569	0.9995	0.6057	-0.236
Mof_O 	O 	0.3203	0.2274	0.5811	-0.25
Mof_O 	O 	0.2425	0.0247	0.5678	-0.249
Mof_O 	O 	0.4621	0.5763	0.1773	-0.234
Mof_O 	O 	0.469	0.7586	0.9908	-0.184
Mof_H 	H 	0.45152	0.25098	0.47384	0.136
Mof_H 	H 	0.46132	0.99527	0.61004	0.132
Mof_H 	H 	0.32155	0.2822	0.58778	0.13
Mof_H 	H 	0.31253	0.0401	0.59776	0.118
Mof_H 	H 	0.55311	0.58588	0.19797	0.171
Mof_H 	H 	0.50389	0.8046	0.00357	0.106
_end
