data_functionalizedCrystal
_audit_creation_method	'EQeq! by Chris Wilmer'
_symmetry_space_group_name_H-M	'P1'
_symmetry_Int_Tables_number	1
_symmetry_cell_setting	triclinic
loop_
_symmetry_equiv_pos_as_xyz
  x,y,z
_cell_length_a	6.21
_cell_length_b	6.99
_cell_length_c	18.7585
_cell_angle_alpha	100.738
_cell_angle_beta	96.8965
_cell_angle_gamma	90
loop_
_atom_site_label
_atom_site_type_symbol
_atom_site_fract_x
_atom_site_fract_y
_atom_site_fract_z
_atom_site_charge
Mof_Eu	Eu	0.52238	0.90913	0.44002	2.125
Mof_Eu	Eu	0.47762	0.46911	0.55998	2.313
Mof_Cu	Cu	-7.94811e-33	0.6898	-0	0.758
Mof_H 	H 	0.9822	0.2415	0.172	-0.004
Mof_H 	H 	0.1755	0.6738	0.1476	0.002
Mof_H 	H 	0.6166	0.8327	0.0622	-0.066
Mof_H 	H 	0.9304	0.4765	0.7378	0.1
Mof_H 	H 	0.3624	0.1785	0.822	0.037
Mof_H 	H 	0.8084	0.904	0.7232	0.023
Mof_H 	H 	0.8245	0.5262	0.8524	-0.038
Mof_H 	H 	0.0696	0.7387	0.2622	-0.002
Mof_H 	H 	0.1916	0.1808	0.2768	0.1
Mof_H 	H 	0.3834	0.7705	0.9378	-0.047
Mof_H 	H 	0.5048	0.721	0.8248	0.06
Mof_H 	H 	0.4952	0.8962	0.1752	0.021
Mof_H 	H 	0.6376	0.3565	0.178	0.077
Mof_H 	H 	0.5097	0.4408	0.2896	-0.033
Mof_H 	H 	0.4903	0.1512	0.7104	0.057
Mof_H 	H 	0.0178	0.0695	0.828	0.031
Mof_C 	C 	0.7674	0.8113	0.2306	-0.091
Mof_C 	C 	0.9724	0.75315	0.2219	0.038
Mof_C 	C 	0.6855	0.84908	0.30416	0.313
Mof_C 	C 	0.3336	0.96785	0.5797	0.225
Mof_C 	C 	0.2326	0.5807	0.7694	0.017
Mof_C 	C 	0.7695	0.36036	0.35072	-0.173
Mof_C 	C 	0.1317	0.25307	0.41394	0.416
Mof_C 	C 	0.2761	0.11955	0.7795	-0.008
Mof_C 	C 	0.6664	0.38815	0.4203	0.499
Mof_C 	C 	0.9647	0.5627	0.847	0.105
Mof_C 	C 	0.9276	0.2684	0.2168	0.101
Mof_C 	C 	0.8683	0.83913	0.58606	0.528
Mof_C 	C 	0.0724	0.0516	0.7832	0.027
Mof_C 	C 	0.2305	0.00964	0.64928	0.16
Mof_C 	C 	0.0276	0.53125	0.7781	-0.162
Mof_C 	C 	0.7239	0.34005	0.2205	-0.159
Mof_C 	C 	0.2934	0.70551	0.89722	0.049
Mof_C 	C 	0.0245	0.93218	0.65216	-0.267
Mof_C 	C 	0.9755	0.28002	0.34784	0.029
Mof_C 	C 	0.6329	0.84713	0.17026	-0.062
Mof_C 	C 	0.9451	0.95395	0.7201	-0.043
Mof_C 	C 	0.3145	0.54492	0.69584	0.275
Mof_C 	C 	0.6468	0.38825	0.2873	0.116
Mof_C 	C 	0.7066	0.80829	0.10278	0
Mof_C 	C 	0.0549	0.23385	0.2799	-0.14
Mof_C 	C 	0.0353	0.7157	0.153	-0.072
Mof_C 	C 	0.3532	0.10095	0.7127	-0.092
Mof_C 	C 	0.3671	0.67687	0.82974	-0.128
Mof_N 	N 	0.9033	0.73671	0.09342	-0.251
Mof_N 	N 	0.0967	0.64329	0.90658	-0.281
Mof_O 	O 	0.1899	0.48821	0.63802	-0.462
Mof_O 	O 	0.5112	0.59104	0.69268	-0.459
Mof_O 	O 	0.223	0.0962	0.4096	-0.494
Mof_O 	O 	0.4888	0.89836	0.30732	-0.484
Mof_O 	O 	0.6502	0.25877	0.45474	-0.633
Mof_O 	O 	0.3498	0.80403	0.54526	-0.606
Mof_O 	O 	0.777	0.6866	0.5904	-0.594
Mof_O 	O 	0.409	0.11873	0.55786	-0.528
Mof_O 	O 	0.8101	0.85019	0.36198	-0.475
Mof_O 	O 	0.8364	0.93428	0.53316	-0.567
Mof_O 	O 	0.591	0.56087	0.44214	-0.657
Mof_O 	O 	0.1636	0.40112	0.46684	-0.524
_end
