data_functionalizedCrystal
_audit_creation_method	'EQeq! by Chris Wilmer'
_symmetry_space_group_name_H-M	'P1'
_symmetry_Int_Tables_number	1
_symmetry_cell_setting	triclinic
loop_
_symmetry_equiv_pos_as_xyz
  x,y,z
_cell_length_a	10.339
_cell_length_b	10.339
_cell_length_c	14.057
_cell_angle_alpha	90
_cell_angle_beta	90
_cell_angle_gamma	90
loop_
_atom_site_label
_atom_site_type_symbol
_atom_site_fract_x
_atom_site_fract_y
_atom_site_fract_z
_atom_site_charge
Mof_Gd	Gd	0.87197	0.8635	0.83391	1.811
Mof_Gd	Gd	0.12803	0.1365	0.33391	1.804
Mof_Gd	Gd	0.1365	0.87197	0.08391	1.793
Mof_Gd	Gd	0.8635	0.12803	0.58391	1.805
Mof_H 	H 	0.1155	0.9916	0.6974	-0.026
Mof_H 	H 	0.4533	0.9031	0.8282	0.002
Mof_H 	H 	0.4525	0.0058	0.5487	0.01
Mof_H 	H 	0.8845	0.0084	0.1974	-0.025
Mof_H 	H 	0.5467	0.0969	0.3282	0
Mof_H 	H 	0.5475	0.9942	0.0487	0.006
Mof_H 	H 	0.0084	0.1155	0.9474	-0.028
Mof_H 	H 	0.0969	0.4533	0.0782	0.001
Mof_H 	H 	0.9942	0.4525	0.7987	0.008
Mof_H 	H 	0.9916	0.8845	0.4474	-0.026
Mof_H 	H 	0.9031	0.5467	0.5782	-0
Mof_H 	H 	0.0058	0.5475	0.2987	0.008
Mof_C 	C 	0.2018	0.0382	0.5219	0.372
Mof_C 	C 	0.2733	0.0019	0.6095	-0.19
Mof_C 	C 	0.2068	0.9812	0.6949	0.144
Mof_C 	C 	0.275	0.9454	0.776	-0.221
Mof_C 	C 	0.4076	0.9298	0.7729	0.14
Mof_C 	C 	0.4745	0.9534	0.6883	-0.209
Mof_C 	C 	0.4071	0.9896	0.6063	0.122
Mof_C 	C 	0.2009	0.9233	0.8667	0.478
Mof_C 	C 	0.6209	0.9537	0.6901	0.489
Mof_C 	C 	0.7982	0.9618	0.0219	0.359
Mof_C 	C 	0.7267	0.9981	0.1095	-0.188
Mof_C 	C 	0.7932	0.0188	0.1949	0.143
Mof_C 	C 	0.725	0.0546	0.276	-0.223
Mof_C 	C 	0.5924	0.0702	0.2729	0.14
Mof_C 	C 	0.5255	0.0466	0.1883	-0.21
Mof_C 	C 	0.5929	0.0104	0.1063	0.121
Mof_C 	C 	0.7991	0.0767	0.3667	0.478
Mof_C 	C 	0.3791	0.0463	0.1901	0.488
Mof_C 	C 	0.9618	0.2018	0.7719	0.374
Mof_C 	C 	0.9981	0.2733	0.8595	-0.196
Mof_C 	C 	0.0188	0.2068	0.9449	0.163
Mof_C 	C 	0.0546	0.275	0.026	-0.236
Mof_C 	C 	0.0702	0.4076	0.0229	0.131
Mof_C 	C 	0.0466	0.4745	0.9383	-0.202
Mof_C 	C 	0.0104	0.4071	0.8563	0.125
Mof_C 	C 	0.0767	0.2009	0.1167	0.481
Mof_C 	C 	0.0463	0.6209	0.9401	0.502
Mof_C 	C 	0.0382	0.7982	0.2719	0.372
Mof_C 	C 	0.0019	0.7267	0.3595	-0.192
Mof_C 	C 	0.9812	0.7932	0.4449	0.146
Mof_C 	C 	0.9454	0.725	0.526	-0.224
Mof_C 	C 	0.9298	0.5924	0.5229	0.141
Mof_C 	C 	0.9534	0.5255	0.4383	-0.21
Mof_C 	C 	0.9896	0.5929	0.3563	0.124
Mof_C 	C 	0.9233	0.7991	0.6167	0.479
Mof_C 	C 	0.9537	0.3791	0.4401	0.489
Mof_O 	O 	0.2522	0.0068	0.4413	-0.428
Mof_O 	O 	0.0958	0.1018	0.52314	-0.481
Mof_O 	O 	0.0798	0.9278	0.86473	-0.53
Mof_O 	O 	0.2622	0.9057	0.94231	-0.454
Mof_O 	O 	0.6767	0.8909	0.75514	-0.507
Mof_O 	O 	0.6753	0.0184	0.62568	-0.5
Mof_O 	O 	0.7478	0.9932	0.9413	-0.418
Mof_O 	O 	0.9042	0.8982	0.02314	-0.482
Mof_O 	O 	0.9202	0.0722	0.36473	-0.532
Mof_O 	O 	0.7378	0.0943	0.44231	-0.462
Mof_O 	O 	0.3233	0.1091	0.25514	-0.507
Mof_O 	O 	0.3247	0.9816	0.12568	-0.502
Mof_O 	O 	0.9932	0.2522	0.6913	-0.428
Mof_O 	O 	0.8982	0.0958	0.77314	-0.482
Mof_O 	O 	0.0722	0.0798	0.11473	-0.534
Mof_O 	O 	0.0943	0.2622	0.19231	-0.463
Mof_O 	O 	0.1091	0.6767	0.00514	-0.518
Mof_O 	O 	0.9816	0.6753	0.87568	-0.503
Mof_O 	O 	0.0068	0.7478	0.1913	-0.428
Mof_O 	O 	0.1018	0.9042	0.27314	-0.481
Mof_O 	O 	0.9278	0.9202	0.61473	-0.533
Mof_O 	O 	0.9057	0.7378	0.69231	-0.462
Mof_O 	O 	0.8909	0.3233	0.50514	-0.507
Mof_O 	O 	0.0184	0.3247	0.37568	-0.501
_end
