data_functionalizedCrystal
_audit_creation_method	'EQeq! by Chris Wilmer'
_symmetry_space_group_name_H-M	'P1'
_symmetry_Int_Tables_number	1
_symmetry_cell_setting	triclinic
loop_
_symmetry_equiv_pos_as_xyz
  x,y,z
_cell_length_a	31.473
_cell_length_b	31.473
_cell_length_c	62.316
_cell_angle_alpha	90
_cell_angle_beta	90
_cell_angle_gamma	120
loop_
_atom_site_label
_atom_site_type_symbol
_atom_site_fract_x
_atom_site_fract_y
_atom_site_fract_z
_atom_site_charge
Mof_Co	Co	0.51198	0.48788	0.36289	1.139
Mof_Co	Co	0.48029	0.51956	0.40124	1.137
Mof_Zn	Zn	0.40079	0.70042	0.54393	1.22
Mof_B 	B 	0.5447	0.4538	0.3235	1.432
Mof_O 	O 	0.5123	0.4104	0.33525	-0.543
Mof_N 	N 	0.4916	0.4164	0.35345	-0.153
Mof_C 	C 	0.4593	0.375	0.36096	0.092
Mof_H 	H 	0.4544	0.3464	0.3537	0.035
Mof_C 	C 	0.4293	0.3682	0.3797	-0.203
Mof_C 	C 	0.4342	0.4074	0.39277	0.296
Mof_C 	C 	0.4035	0.3947	0.4114	-0.206
Mof_C 	C 	0.3675	0.3455	0.41515	0.154
Mof_H 	H 	0.3474	0.3377	0.4275	-0.047
Mof_C 	C 	0.3605	0.3082	0.40133	-0.311
Mof_C 	C 	0.3917	0.3205	0.38401	0.154
Mof_H 	H 	0.3874	0.2951	0.3745	-0.034
Mof_C 	C 	0.4072	0.4305	0.4266	0.102
Mof_H 	H 	0.3885	0.4179	0.4394	0.022
Mof_N 	N 	0.4323	0.4765	0.4252	-0.161
Mof_O 	O 	0.4248	0.4993	0.44246	-0.551
Mof_B 	B 	0.4482	0.5528	0.44121	1.605
Mof_O 	O 	0.5181	0.4794	0.31539	-0.517
Mof_N 	N 	0.5005	0.4971	0.33081	-0.161
Mof_C 	C 	0.4789	0.5181	0.3224	0.072
Mof_H 	H 	0.4769	0.5169	0.3072	0.002
Mof_C 	C 	0.4572	0.5434	0.33294	-0.182
Mof_C 	C 	0.4555	0.5455	0.35585	0.257
Mof_C 	C 	0.4353	0.5731	0.36508	-0.176
Mof_C 	C 	0.4225	0.6008	0.35134	0.106
Mof_H 	H 	0.4104	0.6202	0.3576	-0.024
Mof_C 	C 	0.4266	0.6011	0.32919	-0.252
Mof_C 	C 	0.4439	0.5716	0.32021	0.106
Mof_H 	H 	0.4467	0.5708	0.3051	-0.044
Mof_C 	C 	0.4292	0.5761	0.38797	0.082
Mof_H 	H 	0.4143	0.5945	0.3923	0.029
Mof_N 	N 	0.4415	0.5571	0.4029	-0.16
Mof_O 	O 	0.4308	0.5693	0.4227	-0.543
Mof_O 	O 	0.5898	0.4883	0.33542	-0.51
Mof_N 	N 	0.5837	0.5089	0.35305	-0.15
Mof_C 	C 	0.6249	0.5419	0.36059	0.085
Mof_H 	H 	0.6534	0.5477	0.3529	0.037
Mof_C 	C 	0.6324	0.5711	0.37954	-0.195
Mof_C 	C 	0.5929	0.5654	0.39301	0.284
Mof_C 	C 	0.6055	0.5977	0.41093	-0.21
Mof_C 	C 	0.654	0.6331	0.41428	0.163
Mof_H 	H 	0.6612	0.6545	0.4262	-0.048
Mof_C 	C 	0.693	0.6394	0.40146	-0.326
Mof_C 	C 	0.6806	0.6076	0.38423	0.157
Mof_H 	H 	0.7062	0.6107	0.3751	-0.034
Mof_C 	C 	0.5697	0.596	0.4261	0.105
Mof_H 	H 	0.582	0.6175	0.4381	0.021
Mof_N 	N 	0.5238	0.5689	0.42489	-0.163
Mof_O 	O 	0.5018	0.5775	0.44223	-0.552
Mof_C 	C 	0.4308	0.5684	0.4623	-0.716
Mof_C 	C 	0.3866	0.5383	0.47216	0.409
Mof_H 	H 	0.3661	0.5063	0.4665	-0.103
Mof_C 	C 	0.3708	0.5529	0.48996	-0.301
Mof_H 	H 	0.3397	0.5315	0.4961	0.139
Mof_C 	C 	0.4006	0.5989	0.4987	0.118
Mof_C 	C 	0.4457	0.6291	0.48964	-0.292
Mof_H 	H 	0.4667	0.6605	0.4957	0.136
Mof_C 	C 	0.4606	0.6141	0.47169	0.39
Mof_H 	H 	0.4919	0.6355	0.4656	-0.098
Mof_O 	O 	0.4663	0.4515	0.38911	-0.529
Mof_C 	C 	0.3191	0.2554	0.4054	0.682
Mof_C 	C 	0.3049	0.2213	0.3864	-0.982
Mof_H 	H 	0.3343	0.2228	0.3803	0.316
Mof_H 	H 	0.282	0.1877	0.3911	0.282
Mof_H 	H 	0.2892	0.2313	0.3755	0.296
Mof_C 	C 	0.2736	0.2525	0.4144	-0.952
Mof_H 	H 	0.2822	0.2744	0.4268	0.285
Mof_H 	H 	0.258	0.2623	0.4034	0.279
Mof_H 	H 	0.2508	0.2187	0.4189	0.268
Mof_C 	C 	0.3406	0.2384	0.4237	-0.887
Mof_H 	H 	0.3707	0.2396	0.4187	0.272
Mof_H 	H 	0.348	0.2602	0.4361	0.269
Mof_H 	H 	0.3165	0.2048	0.4279	0.249
Mof_O 	O 	0.4745	0.526	0.36811	-0.521
Mof_C 	C 	0.4139	0.6329	0.3147	0.575
Mof_C 	C 	0.455	0.6636	0.2996	-0.865
Mof_H 	H 	0.4638	0.6424	0.2915	0.249
Mof_H 	H 	0.4446	0.6807	0.2897	0.244
Mof_H 	H 	0.4836	0.6876	0.3078	0.252
Mof_C 	C 	0.3687	0.5943	0.3015	-0.793
Mof_H 	H 	0.3417	0.5741	0.3113	0.23
Mof_H 	H 	0.3584	0.6113	0.2915	0.217
Mof_H 	H 	0.3779	0.5733	0.2935	0.229
Mof_C 	C 	0.399	0.6646	0.3278	-0.845
Mof_H 	H 	0.3721	0.6437	0.3375	0.252
Mof_H 	H 	0.4271	0.6887	0.3362	0.251
Mof_H 	H 	0.3882	0.6818	0.318	0.235
Mof_O 	O 	0.5483	0.533	0.38894	-0.523
Mof_C 	C 	0.7457	0.6788	0.4068	0.705
Mof_C 	C 	0.7817	0.6938	0.389	-1.027
Mof_H 	H 	0.7782	0.6646	0.3818	0.331
Mof_H 	H 	0.7758	0.7138	0.3787	0.308
Mof_H 	H 	0.815	0.713	0.3948	0.296
Mof_C 	C 	0.7634	0.6561	0.4242	-0.885
Mof_H 	H 	0.7407	0.6455	0.4364	0.27
Mof_H 	H 	0.7644	0.6278	0.4183	0.271
Mof_H 	H 	0.7963	0.6807	0.4291	0.248
Mof_C 	C 	0.7512	0.7241	0.4179	-0.954
Mof_H 	H 	0.7274	0.7142	0.4296	0.287
Mof_H 	H 	0.7845	0.7433	0.4237	0.27
Mof_H 	H 	0.7453	0.744	0.4076	0.279
Mof_C 	C 	0.3831	0.616	0.51757	0.323
Mof_O 	O 	0.34189	0.5868	0.52469	-0.482
Mof_O 	O 	0.41289	0.6578	0.5246	-0.477
Mof_C 	C 	0.5668	0.4424	0.30264	-0.234
Mof_C 	C 	0.6108	0.4414	0.30345	0.112
Mof_H 	H 	0.6296	0.4515	0.3163	-0.002
Mof_C 	C 	0.628	0.4265	0.28645	-0.104
Mof_H 	H 	0.6579	0.4262	0.2878	0.073
Mof_C 	C 	0.6018	0.4119	0.26732	0.012
Mof_C 	C 	0.5594	0.4148	0.26563	-0.081
Mof_H 	H 	0.5415	0.4063	0.2525	0.05
Mof_C 	C 	0.5432	0.4301	0.28287	0.092
Mof_H 	H 	0.5144	0.4323	0.2812	-0.031
Mof_C 	C 	0.6207	0.3954	0.249	0.19
Mof_O 	O 	0.6569	0.3909	0.25223	-0.381
Mof_O 	O 	0.6001	0.3883	0.2312	-0.227
Mof_C 	C 	0.5594	0.4335	0.30304	-0.241
Mof_C 	C 	0.5606	0.3896	0.30407	0.087
Mof_H 	H 	0.5513	0.3713	0.317	0.006
Mof_C 	C 	0.5749	0.3721	0.2869	-0.082
Mof_H 	H 	0.5758	0.3425	0.2882	0.066
Mof_C 	C 	0.5879	0.3982	0.26758	-0.003
Mof_C 	C 	0.5842	0.4399	0.26582	-0.059
Mof_H 	H 	0.5905	0.4564	0.2524	0.043
Mof_C 	C 	0.5714	0.4581	0.28346	0.094
Mof_H 	H 	0.5708	0.4879	0.2821	-0.029
Mof_C 	C 	0.6063	0.3804	0.2495	0.204
Mof_O 	O 	0.6106	0.344	0.25288	-0.386
Mof_O 	O 	0.6135	0.401	0.2315	-0.209
Mof_Co	Co	0.17865	0.82121	0.69622	1.14
Mof_Co	Co	0.14696	0.85289	0.73457	1.138
Mof_Zn	Zn	0.06746	0.03375	0.87726	1.219
Mof_B 	B 	0.21137	0.78713	0.65683	1.432
Mof_O 	O 	0.17897	0.74373	0.66858	-0.543
Mof_N 	N 	0.15827	0.74973	0.68678	-0.153
Mof_C 	C 	0.12597	0.70833	0.69429	0.092
Mof_H 	H 	0.12107	0.67973	0.68703	0.035
Mof_C 	C 	0.09597	0.70153	0.71303	-0.203
Mof_C 	C 	0.10087	0.74073	0.7261	0.296
Mof_C 	C 	0.07017	0.72803	0.74473	-0.206
Mof_C 	C 	0.03417	0.67883	0.74848	0.154
Mof_H 	H 	0.01407	0.67103	0.76083	-0.046
Mof_C 	C 	0.02717	0.64153	0.73466	-0.311
Mof_C 	C 	0.05837	0.65383	0.71734	0.154
Mof_H 	H 	0.05407	0.62843	0.70783	-0.034
Mof_C 	C 	0.07387	0.76383	0.75993	0.102
Mof_H 	H 	0.05517	0.75123	0.77273	0.022
Mof_N 	N 	0.09897	0.80983	0.75853	-0.161
Mof_O 	O 	0.09147	0.83263	0.77579	-0.551
Mof_B 	B 	0.11487	0.88613	0.77454	1.605
Mof_O 	O 	0.18477	0.81273	0.64872	-0.517
Mof_N 	N 	0.16717	0.83043	0.66414	-0.161
Mof_C 	C 	0.14557	0.85143	0.65573	0.071
Mof_H 	H 	0.14357	0.85023	0.64053	0.003
Mof_C 	C 	0.12387	0.87673	0.66627	-0.18
Mof_C 	C 	0.12217	0.87883	0.68918	0.255
Mof_C 	C 	0.10197	0.90643	0.69841	-0.174
Mof_C 	C 	0.08917	0.93413	0.68467	0.101
Mof_H 	H 	0.07707	0.95353	0.69093	-0.021
Mof_C 	C 	0.09327	0.93443	0.66252	-0.243
Mof_C 	C 	0.11057	0.90493	0.65354	0.101
Mof_H 	H 	0.11337	0.90413	0.63843	-0.041
Mof_C 	C 	0.09587	0.90943	0.7213	0.081
Mof_H 	H 	0.08097	0.92783	0.72563	0.029
Mof_N 	N 	0.10817	0.89043	0.73623	-0.16
Mof_O 	O 	0.09747	0.90263	0.75603	-0.542
Mof_O 	O 	0.25647	0.82163	0.66875	-0.51
Mof_N 	N 	0.25037	0.84223	0.68638	-0.15
Mof_C 	C 	0.29157	0.87523	0.69392	0.084
Mof_H 	H 	0.32007	0.88103	0.68623	0.038
Mof_C 	C 	0.29907	0.90443	0.71287	-0.192
Mof_C 	C 	0.25957	0.89873	0.72634	0.283
Mof_C 	C 	0.27217	0.93103	0.74426	-0.207
Mof_C 	C 	0.32067	0.96643	0.74761	0.159
Mof_H 	H 	0.32787	0.98783	0.75953	-0.046
Mof_C 	C 	0.35967	0.97273	0.73479	-0.318
Mof_C 	C 	0.34727	0.94093	0.71756	0.152
Mof_H 	H 	0.37287	0.94403	0.70843	-0.032
Mof_C 	C 	0.23637	0.92933	0.75943	0.104
Mof_H 	H 	0.24867	0.95083	0.77143	0.022
Mof_N 	N 	0.19047	0.90223	0.75822	-0.163
Mof_O 	O 	0.16847	0.91083	0.77556	-0.552
Mof_C 	C 	0.09747	0.90173	0.79563	-0.716
Mof_C 	C 	0.05327	0.87163	0.80549	0.409
Mof_H 	H 	0.03277	0.83963	0.79983	-0.102
Mof_C 	C 	0.03747	0.88623	0.82329	-0.301
Mof_H 	H 	0.00637	0.86483	0.82943	0.139
Mof_C 	C 	0.06727	0.93223	0.83203	0.118
Mof_C 	C 	0.11237	0.96243	0.82297	-0.292
Mof_H 	H 	0.13337	0.99383	0.82903	0.136
Mof_C 	C 	0.12727	0.94743	0.80502	0.39
Mof_H 	H 	0.15857	0.96883	0.79893	-0.098
Mof_O 	O 	0.13297	0.78483	0.72244	-0.529
Mof_C 	C 	0.98577	0.58873	0.73873	0.681
Mof_C 	C 	0.97157	0.55463	0.71973	-0.982
Mof_H 	H 	0.00097	0.55613	0.71363	0.316
Mof_H 	H 	0.94867	0.52103	0.72443	0.282
Mof_H 	H 	0.95587	0.56463	0.70883	0.296
Mof_C 	C 	0.94027	0.58583	0.74773	-0.952
Mof_H 	H 	0.94887	0.60773	0.76013	0.285
Mof_H 	H 	0.92467	0.59563	0.73673	0.279
Mof_H 	H 	0.91747	0.55203	0.75223	0.268
Mof_C 	C 	0.00727	0.57173	0.75703	-0.885
Mof_H 	H 	0.03737	0.57293	0.75203	0.271
Mof_H 	H 	0.01467	0.59353	0.76943	0.269
Mof_H 	H 	0.98317	0.53813	0.76123	0.249
Mof_O 	O 	0.14117	0.85933	0.70144	-0.521
Mof_C 	C 	0.08057	0.96623	0.64803	0.554
Mof_C 	C 	0.12167	0.99693	0.63293	-0.829
Mof_H 	H 	0.13047	0.97573	0.62483	0.24
Mof_H 	H 	0.11127	0.01403	0.62303	0.232
Mof_H 	H 	0.15027	0.02093	0.64113	0.24
Mof_C 	C 	0.03537	0.92763	0.63483	-0.776
Mof_H 	H 	0.00837	0.90743	0.64463	0.225
Mof_H 	H 	0.02507	0.94463	0.62483	0.213
Mof_H 	H 	0.04457	0.90663	0.62683	0.225
Mof_C 	C 	0.06567	0.99793	0.66113	-0.81
Mof_H 	H 	0.03877	0.97703	0.67083	0.242
Mof_H 	H 	0.09377	0.02203	0.66953	0.239
Mof_H 	H 	0.05487	0.01513	0.65133	0.223
Mof_O 	O 	0.21497	0.86633	0.72227	-0.523
Mof_C 	C 	0.41237	0.01213	0.74013	0.691
Mof_C 	C 	0.44837	0.02713	0.72233	-1.024
Mof_H 	H 	0.44487	0.99793	0.71513	0.332
Mof_H 	H 	0.44247	0.04713	0.71203	0.306
Mof_H 	H 	0.48167	0.04633	0.72813	0.295
Mof_C 	C 	0.43007	0.98943	0.75753	-0.862
Mof_H 	H 	0.40737	0.97883	0.76973	0.264
Mof_H 	H 	0.43107	0.96113	0.75163	0.265
Mof_H 	H 	0.46297	0.01403	0.76243	0.24
Mof_C 	C 	0.41787	0.05743	0.75123	-0.942
Mof_H 	H 	0.39407	0.04753	0.76293	0.282
Mof_H 	H 	0.45117	0.07663	0.75703	0.266
Mof_H 	H 	0.41197	0.07733	0.74093	0.275
Mof_C 	C 	0.04977	0.94933	0.8509	0.323
Mof_O 	O 	0.00856	0.92013	0.85802	-0.482
Mof_O 	O 	0.07956	0.99113	0.85793	-0.476
Mof_C 	C 	0.23347	0.77573	0.63597	-0.234
Mof_C 	C 	0.27747	0.77473	0.63678	0.112
Mof_H 	H 	0.29627	0.78483	0.64963	-0.002
Mof_C 	C 	0.29467	0.75983	0.61978	-0.104
Mof_H 	H 	0.32457	0.75953	0.62113	0.073
Mof_C 	C 	0.26847	0.74523	0.60065	0.012
Mof_C 	C 	0.22607	0.74813	0.59896	-0.081
Mof_H 	H 	0.20817	0.73963	0.58583	0.05
Mof_C 	C 	0.20987	0.76343	0.6162	0.092
Mof_H 	H 	0.18107	0.76563	0.61453	-0.031
Mof_C 	C 	0.28737	0.72873	0.58233	0.19
Mof_O 	O 	0.32357	0.72423	0.58556	-0.381
Mof_O 	O 	0.26677	0.72163	0.56453	-0.227
Mof_C 	C 	0.22607	0.76683	0.63637	-0.241
Mof_C 	C 	0.22727	0.72293	0.6374	0.087
Mof_H 	H 	0.21797	0.70463	0.65033	0.006
Mof_C 	C 	0.24157	0.70543	0.62023	-0.082
Mof_H 	H 	0.24247	0.67583	0.62153	0.066
Mof_C 	C 	0.25457	0.73153	0.60091	-0.003
Mof_C 	C 	0.25087	0.77323	0.59915	-0.059
Mof_H 	H 	0.25717	0.78973	0.58573	0.043
Mof_C 	C 	0.23807	0.79143	0.61679	0.094
Mof_H 	H 	0.23747	0.82123	0.61543	-0.029
Mof_C 	C 	0.27297	0.71373	0.58283	0.204
Mof_O 	O 	0.27727	0.67733	0.58621	-0.386
Mof_O 	O 	0.28017	0.73433	0.56483	-0.209
Mof_Co	Co	0.84531	0.15455	0.02956	1.14
Mof_Co	Co	0.81362	0.18623	0.06791	1.139
Mof_Zn	Zn	0.73412	0.36709	0.2106	1.22
Mof_B 	B 	0.87803	0.12047	0.99017	1.432
Mof_O 	O 	0.84563	0.07707	0.00192	-0.543
Mof_N 	N 	0.82493	0.08307	0.02012	-0.153
Mof_C 	C 	0.79263	0.04167	0.02763	0.092
Mof_H 	H 	0.78773	0.01307	0.02037	0.034
Mof_C 	C 	0.76263	0.03487	0.04637	-0.204
Mof_C 	C 	0.76753	0.07407	0.05944	0.296
Mof_C 	C 	0.73683	0.06137	0.07807	-0.206
Mof_C 	C 	0.70083	0.01217	0.08182	0.153
Mof_H 	H 	0.68073	0.00437	0.09417	-0.047
Mof_C 	C 	0.69383	0.97487	0.068	-0.311
Mof_C 	C 	0.72503	0.98717	0.05068	0.156
Mof_H 	H 	0.72073	0.96177	0.04117	-0.034
Mof_C 	C 	0.74053	0.09717	0.09327	0.102
Mof_H 	H 	0.72183	0.08457	0.10607	0.022
Mof_N 	N 	0.76563	0.14317	0.09187	-0.161
Mof_O 	O 	0.75813	0.16597	0.10913	-0.551
Mof_B 	B 	0.78153	0.21947	0.10788	1.605
Mof_O 	O 	0.85143	0.14607	0.98206	-0.517
Mof_N 	N 	0.83383	0.16377	0.99748	-0.161
Mof_C 	C 	0.81223	0.18477	0.98907	0.072
Mof_H 	H 	0.81023	0.18357	0.97387	0.002
Mof_C 	C 	0.79053	0.21007	0.99961	-0.182
Mof_C 	C 	0.78883	0.21217	0.02252	0.257
Mof_C 	C 	0.76863	0.23977	0.03175	-0.176
Mof_C 	C 	0.75583	0.26747	0.01801	0.106
Mof_H 	H 	0.74373	0.28687	0.02427	-0.024
Mof_C 	C 	0.75993	0.26777	0.99586	-0.252
Mof_C 	C 	0.77723	0.23827	0.98688	0.106
Mof_H 	H 	0.78003	0.23747	0.97177	-0.044
Mof_C 	C 	0.76253	0.24277	0.05464	0.082
Mof_H 	H 	0.74763	0.26117	0.05897	0.029
Mof_N 	N 	0.77483	0.22377	0.06957	-0.16
Mof_O 	O 	0.76413	0.23597	0.08937	-0.542
Mof_O 	O 	0.92313	0.15497	0.00209	-0.509
Mof_N 	N 	0.91703	0.17557	0.01972	-0.15
Mof_C 	C 	0.95823	0.20857	0.02726	0.084
Mof_H 	H 	0.98673	0.21437	0.01957	0.038
Mof_C 	C 	0.96573	0.23777	0.04621	-0.192
Mof_C 	C 	0.92623	0.23207	0.05968	0.284
Mof_C 	C 	0.93883	0.26437	0.0776	-0.21
Mof_C 	C 	0.98733	0.29977	0.08095	0.166
Mof_H 	H 	0.99453	0.32117	0.09287	-0.048
Mof_C 	C 	0.02633	0.30607	0.06813	-0.328
Mof_C 	C 	0.01393	0.27427	0.0509	0.154
Mof_H 	H 	0.03953	0.27737	0.04177	-0.033
Mof_C 	C 	0.90303	0.26267	0.09277	0.105
Mof_H 	H 	0.91533	0.28417	0.10477	0.021
Mof_N 	N 	0.85713	0.23557	0.09156	-0.163
Mof_O 	O 	0.83513	0.24417	0.1089	-0.552
Mof_C 	C 	0.76413	0.23507	0.12897	-0.716
Mof_C 	C 	0.71993	0.20497	0.13883	0.409
Mof_H 	H 	0.69943	0.17297	0.13317	-0.103
Mof_C 	C 	0.70413	0.21957	0.15663	-0.3
Mof_H 	H 	0.67303	0.19817	0.16277	0.139
Mof_C 	C 	0.73393	0.26557	0.16537	0.118
Mof_C 	C 	0.77903	0.29577	0.15631	-0.292
Mof_H 	H 	0.80003	0.32717	0.16237	0.136
Mof_C 	C 	0.79393	0.28077	0.13836	0.39
Mof_H 	H 	0.82523	0.30217	0.13227	-0.098
Mof_O 	O 	0.79963	0.11817	0.05578	-0.529
Mof_C 	C 	0.65243	0.92207	0.07207	0.683
Mof_C 	C 	0.63823	0.88797	0.05307	-0.982
Mof_H 	H 	0.66763	0.88947	0.04697	0.316
Mof_H 	H 	0.61533	0.85437	0.05777	0.283
Mof_H 	H 	0.62253	0.89797	0.04217	0.296
Mof_C 	C 	0.60693	0.91917	0.08107	-0.953
Mof_H 	H 	0.61553	0.94107	0.09347	0.286
Mof_H 	H 	0.59133	0.92897	0.07007	0.279
Mof_H 	H 	0.58413	0.88537	0.08557	0.268
Mof_C 	C 	0.67393	0.90507	0.09037	-0.887
Mof_H 	H 	0.70403	0.90627	0.08537	0.272
Mof_H 	H 	0.68133	0.92687	0.10277	0.27
Mof_H 	H 	0.64983	0.87147	0.09457	0.25
Mof_O 	O 	0.80783	0.19267	0.03478	-0.521
Mof_C 	C 	0.74723	0.29957	0.98137	0.575
Mof_C 	C 	0.78833	0.33027	0.96627	-0.865
Mof_H 	H 	0.79713	0.30907	0.95817	0.249
Mof_H 	H 	0.77793	0.34737	0.95637	0.244
Mof_H 	H 	0.81693	0.35427	0.97447	0.252
Mof_C 	C 	0.70203	0.26097	0.96817	-0.793
Mof_H 	H 	0.67503	0.24077	0.97797	0.23
Mof_H 	H 	0.69173	0.27797	0.95817	0.217
Mof_H 	H 	0.71123	0.23997	0.96017	0.229
Mof_C 	C 	0.73233	0.33127	0.99447	-0.845
Mof_H 	H 	0.70543	0.31037	0.00417	0.252
Mof_H 	H 	0.76043	0.35537	0.00287	0.251
Mof_H 	H 	0.72153	0.34847	0.98467	0.235
Mof_O 	O 	0.88163	0.19967	0.05561	-0.523
Mof_C 	C 	0.07903	0.34547	0.07347	0.704
Mof_C 	C 	0.11503	0.36047	0.05567	-1.026
Mof_H 	H 	0.11153	0.33127	0.04847	0.33
Mof_H 	H 	0.10913	0.38047	0.04537	0.307
Mof_H 	H 	0.14833	0.37967	0.06147	0.296
Mof_C 	C 	0.09673	0.32277	0.09087	-0.884
Mof_H 	H 	0.07403	0.31217	0.10307	0.268
Mof_H 	H 	0.09773	0.29447	0.08497	0.271
Mof_H 	H 	0.12963	0.34737	0.09577	0.247
Mof_C 	C 	0.08453	0.39077	0.08457	-0.953
Mof_H 	H 	0.06073	0.38087	0.09627	0.285
Mof_H 	H 	0.11783	0.40997	0.09037	0.269
Mof_H 	H 	0.07863	0.41067	0.07427	0.278
Mof_C 	C 	0.71643	0.28267	0.18424	0.323
Mof_O 	O 	0.67522	0.25347	0.19136	-0.482
Mof_O 	O 	0.74622	0.32447	0.19127	-0.477
Mof_C 	C 	0.90013	0.10907	0.96931	-0.234
Mof_C 	C 	0.94413	0.10807	0.97012	0.112
Mof_H 	H 	0.96293	0.11817	0.98297	-0.002
Mof_C 	C 	0.96133	0.09317	0.95312	-0.103
Mof_H 	H 	0.99123	0.09287	0.95447	0.073
Mof_C 	C 	0.93513	0.07857	0.93399	0.012
Mof_C 	C 	0.89273	0.08147	0.9323	-0.082
Mof_H 	H 	0.87483	0.07297	0.91917	0.05
Mof_C 	C 	0.87653	0.09677	0.94954	0.091
Mof_H 	H 	0.84773	0.09897	0.94787	-0.03
Mof_C 	C 	0.95403	0.06207	0.91567	0.19
Mof_O 	O 	0.99023	0.05757	0.9189	-0.38
Mof_O 	O 	0.93343	0.05497	0.89787	-0.226
Mof_C 	C 	0.89273	0.10017	0.96971	-0.241
Mof_C 	C 	0.89393	0.05627	0.97074	0.087
Mof_H 	H 	0.88463	0.03797	0.98367	0.006
Mof_C 	C 	0.90823	0.03877	0.95357	-0.082
Mof_H 	H 	0.90913	0.00917	0.95487	0.065
Mof_C 	C 	0.92123	0.06487	0.93425	-0.003
Mof_C 	C 	0.91753	0.10657	0.93249	-0.059
Mof_H 	H 	0.92383	0.12307	0.91907	0.043
Mof_C 	C 	0.90473	0.12477	0.95013	0.094
Mof_H 	H 	0.90413	0.15457	0.94877	-0.029
Mof_C 	C 	0.93963	0.04707	0.91617	0.204
Mof_O 	O 	0.94393	0.01067	0.91955	-0.387
Mof_O 	O 	0.94683	0.06767	0.89817	-0.211
Mof_Co	Co	0.51212	0.0241	0.36289	1.14
Mof_Co	Co	0.48044	0.96073	0.40124	1.139
Mof_Zn	Zn	0.29958	0.70037	0.54393	1.22
Mof_B 	B 	0.5462	0.0909	0.3235	1.432
Mof_O 	O 	0.5896	0.1019	0.33525	-0.543
Mof_N 	N 	0.5836	0.0752	0.35345	-0.153
Mof_C 	C 	0.625	0.0843	0.36096	0.092
Mof_H 	H 	0.6536	0.108	0.3537	0.035
Mof_C 	C 	0.6318	0.0611	0.3797	-0.203
Mof_C 	C 	0.5926	0.0268	0.39277	0.296
Mof_C 	C 	0.6053	0.0088	0.4114	-0.207
Mof_C 	C 	0.6545	0.022	0.41515	0.155
Mof_H 	H 	0.6623	0.0097	0.4275	-0.047
Mof_C 	C 	0.6918	0.0523	0.40133	-0.312
Mof_C 	C 	0.6795	0.0712	0.38401	0.155
Mof_H 	H 	0.7049	0.0923	0.3745	-0.034
Mof_C 	C 	0.5695	0.9767	0.4266	0.102
Mof_H 	H 	0.5821	0.9706	0.4394	0.022
Mof_N 	N 	0.5235	0.9558	0.4252	-0.161
Mof_O 	O 	0.5007	0.9255	0.44246	-0.551
Mof_B 	B 	0.4472	0.8954	0.44121	1.605
Mof_O 	O 	0.5206	0.0387	0.31539	-0.517
Mof_N 	N 	0.5029	0.0034	0.33081	-0.161
Mof_C 	C 	0.4819	0.9608	0.3224	0.072
Mof_H 	H 	0.4831	0.96	0.3072	0.002
Mof_C 	C 	0.4566	0.9138	0.33294	-0.182
Mof_C 	C 	0.4545	0.91	0.35585	0.257
Mof_C 	C 	0.4269	0.8622	0.36508	-0.176
Mof_C 	C 	0.3992	0.8217	0.35134	0.106
Mof_H 	H 	0.3798	0.7902	0.3576	-0.024
Mof_C 	C 	0.3989	0.8255	0.32919	-0.251
Mof_C 	C 	0.4284	0.8723	0.32021	0.106
Mof_H 	H 	0.4292	0.8759	0.3051	-0.044
Mof_C 	C 	0.4239	0.8531	0.38797	0.082
Mof_H 	H 	0.4055	0.8198	0.3923	0.029
Mof_N 	N 	0.4429	0.8844	0.4029	-0.16
Mof_O 	O 	0.4307	0.8615	0.4227	-0.543
Mof_O 	O 	0.5117	0.1015	0.33542	-0.51
Mof_N 	N 	0.4911	0.0748	0.35305	-0.15
Mof_C 	C 	0.4581	0.083	0.36059	0.085
Mof_H 	H 	0.4523	0.1057	0.3529	0.037
Mof_C 	C 	0.4289	0.0613	0.37954	-0.195
Mof_C 	C 	0.4346	0.0275	0.39301	0.285
Mof_C 	C 	0.4023	0.0078	0.41093	-0.21
Mof_C 	C 	0.3669	0.0209	0.41428	0.163
Mof_H 	H 	0.3455	0.0067	0.4262	-0.049
Mof_C 	C 	0.3606	0.0536	0.40146	-0.326
Mof_C 	C 	0.3924	0.073	0.38423	0.157
Mof_H 	H 	0.3893	0.0955	0.3751	-0.034
Mof_C 	C 	0.404	0.9737	0.4261	0.105
Mof_H 	H 	0.3825	0.9645	0.4381	0.021
Mof_N 	N 	0.4311	0.9549	0.42489	-0.163
Mof_O 	O 	0.4225	0.9243	0.44223	-0.552
Mof_C 	C 	0.4316	0.8624	0.4623	-0.716
Mof_C 	C 	0.4617	0.8483	0.47216	0.409
Mof_H 	H 	0.4937	0.8598	0.4665	-0.102
Mof_C 	C 	0.4471	0.8179	0.48996	-0.3
Mof_H 	H 	0.4685	0.8082	0.4961	0.139
Mof_C 	C 	0.4011	0.8017	0.4987	0.118
Mof_C 	C 	0.3709	0.8166	0.48964	-0.292
Mof_H 	H 	0.3395	0.8062	0.4957	0.136
Mof_C 	C 	0.3859	0.8465	0.47169	0.39
Mof_H 	H 	0.3645	0.8564	0.4656	-0.098
Mof_O 	O 	0.5485	0.0148	0.38911	-0.529
Mof_C 	C 	0.7446	0.0637	0.4054	0.683
Mof_C 	C 	0.7787	0.0836	0.3864	-0.983
Mof_H 	H 	0.7772	0.1115	0.3803	0.316
Mof_H 	H 	0.8123	0.0943	0.3911	0.283
Mof_H 	H 	0.7687	0.0579	0.3755	0.296
Mof_C 	C 	0.7475	0.0211	0.4144	-0.954
Mof_H 	H 	0.7256	0.0078	0.4268	0.286
Mof_H 	H 	0.7377	0.9957	0.4034	0.28
Mof_H 	H 	0.7813	0.0321	0.4189	0.268
Mof_C 	C 	0.7616	0.1022	0.4237	-0.887
Mof_H 	H 	0.7604	0.1311	0.4187	0.272
Mof_H 	H 	0.7398	0.0878	0.4361	0.27
Mof_H 	H 	0.7952	0.1117	0.4279	0.25
Mof_O 	O 	0.474	0.9485	0.36811	-0.521
Mof_C 	C 	0.3671	0.781	0.3147	0.575
Mof_C 	C 	0.3364	0.7914	0.2996	-0.865
Mof_H 	H 	0.3576	0.8214	0.2915	0.249
Mof_H 	H 	0.3193	0.7639	0.2897	0.244
Mof_H 	H 	0.3124	0.796	0.3078	0.252
Mof_C 	C 	0.4057	0.7744	0.3015	-0.793
Mof_H 	H 	0.4259	0.7676	0.3113	0.23
Mof_H 	H 	0.3887	0.7471	0.2915	0.217
Mof_H 	H 	0.4267	0.8046	0.2935	0.229
Mof_C 	C 	0.3354	0.7344	0.3278	-0.845
Mof_H 	H 	0.3563	0.7284	0.3375	0.251
Mof_H 	H 	0.3113	0.7384	0.3362	0.251
Mof_H 	H 	0.3182	0.7064	0.318	0.235
Mof_O 	O 	0.467	0.0153	0.38894	-0.523
Mof_C 	C 	0.3212	0.0669	0.4068	0.704
Mof_C 	C 	0.3062	0.0879	0.389	-1.026
Mof_H 	H 	0.3354	0.1136	0.3818	0.33
Mof_H 	H 	0.2862	0.062	0.3787	0.307
Mof_H 	H 	0.287	0.102	0.3948	0.296
Mof_C 	C 	0.3439	0.1073	0.4242	-0.884
Mof_H 	H 	0.3545	0.0952	0.4364	0.269
Mof_H 	H 	0.3722	0.1366	0.4183	0.271
Mof_H 	H 	0.3193	0.1156	0.4291	0.248
Mof_C 	C 	0.2759	0.0271	0.4179	-0.953
Mof_H 	H 	0.2858	0.0132	0.4296	0.286
Mof_H 	H 	0.2567	0.0412	0.4237	0.269
Mof_H 	H 	0.256	0.0013	0.4076	0.278
Mof_C 	C 	0.384	0.7671	0.51757	0.323
Mof_O 	O 	0.4132	0.75509	0.52469	-0.482
Mof_O 	O 	0.3422	0.75509	0.5246	-0.477
Mof_C 	C 	0.5576	0.1244	0.30264	-0.234
Mof_C 	C 	0.5586	0.1694	0.30345	0.112
Mof_H 	H 	0.5485	0.1781	0.3163	-0.002
Mof_C 	C 	0.5735	0.2015	0.28645	-0.104
Mof_H 	H 	0.5738	0.2317	0.2878	0.073
Mof_C 	C 	0.5881	0.1899	0.26732	0.012
Mof_C 	C 	0.5852	0.1446	0.26563	-0.081
Mof_H 	H 	0.5937	0.1352	0.2525	0.05
Mof_C 	C 	0.5699	0.1131	0.28287	0.092
Mof_H 	H 	0.5677	0.0821	0.2812	-0.031
Mof_C 	C 	0.6046	0.2253	0.249	0.19
Mof_O 	O 	0.6091	0.266	0.25223	-0.381
Mof_O 	O 	0.6117	0.2118	0.2312	-0.227
Mof_C 	C 	0.5665	0.1259	0.30304	-0.241
Mof_C 	C 	0.6104	0.171	0.30407	0.087
Mof_H 	H 	0.6287	0.18	0.317	0.006
Mof_C 	C 	0.6279	0.2028	0.2869	-0.082
Mof_H 	H 	0.6575	0.2333	0.2882	0.066
Mof_C 	C 	0.6018	0.1897	0.26758	-0.003
Mof_C 	C 	0.5601	0.1443	0.26582	-0.059
Mof_H 	H 	0.5436	0.1341	0.2524	0.043
Mof_C 	C 	0.5419	0.1133	0.28346	0.094
Mof_H 	H 	0.5121	0.0829	0.2821	-0.029
Mof_C 	C 	0.6196	0.2259	0.2495	0.204
Mof_O 	O 	0.656	0.2666	0.25288	-0.386
Mof_O 	O 	0.599	0.2125	0.2315	-0.209
Mof_Co	Co	0.17879	0.35743	0.69622	1.14
Mof_Co	Co	0.14711	0.29406	0.73457	1.138
Mof_Zn	Zn	0.96625	0.0337	0.87726	1.219
Mof_B 	B 	0.21287	0.42423	0.65683	1.432
Mof_O 	O 	0.25627	0.43523	0.66858	-0.543
Mof_N 	N 	0.25027	0.40853	0.68678	-0.153
Mof_C 	C 	0.29167	0.41763	0.69429	0.092
Mof_H 	H 	0.32027	0.44133	0.68703	0.035
Mof_C 	C 	0.29847	0.39443	0.71303	-0.203
Mof_C 	C 	0.25927	0.36013	0.7261	0.296
Mof_C 	C 	0.27197	0.34213	0.74473	-0.206
Mof_C 	C 	0.32117	0.35533	0.74848	0.154
Mof_H 	H 	0.32897	0.34303	0.76083	-0.047
Mof_C 	C 	0.35847	0.38563	0.73466	-0.311
Mof_C 	C 	0.34617	0.40453	0.71734	0.154
Mof_H 	H 	0.37157	0.42563	0.70783	-0.034
Mof_C 	C 	0.23617	0.31003	0.75993	0.102
Mof_H 	H 	0.24877	0.30393	0.77273	0.022
Mof_N 	N 	0.19017	0.28913	0.75853	-0.161
Mof_O 	O 	0.16737	0.25883	0.77579	-0.551
Mof_B 	B 	0.11387	0.22873	0.77454	1.605
Mof_O 	O 	0.18727	0.37203	0.64872	-0.517
Mof_N 	N 	0.16957	0.33673	0.66414	-0.161
Mof_C 	C 	0.14857	0.29413	0.65573	0.072
Mof_H 	H 	0.14977	0.29333	0.64053	0.002
Mof_C 	C 	0.12327	0.24713	0.66627	-0.182
Mof_C 	C 	0.12117	0.24333	0.68918	0.257
Mof_C 	C 	0.09357	0.19553	0.69841	-0.177
Mof_C 	C 	0.06587	0.15503	0.68467	0.106
Mof_H 	H 	0.04647	0.12353	0.69093	-0.024
Mof_C 	C 	0.06557	0.15883	0.66252	-0.251
Mof_C 	C 	0.09507	0.20563	0.65354	0.105
Mof_H 	H 	0.09587	0.20923	0.63843	-0.044
Mof_C 	C 	0.09057	0.18643	0.7213	0.082
Mof_H 	H 	0.07217	0.15313	0.72563	0.028
Mof_N 	N 	0.10957	0.21773	0.73623	-0.16
Mof_O 	O 	0.09737	0.19483	0.75603	-0.543
Mof_O 	O 	0.17837	0.43483	0.66875	-0.51
Mof_N 	N 	0.15777	0.40813	0.68638	-0.15
Mof_C 	C 	0.12477	0.41633	0.69392	0.084
Mof_H 	H 	0.11897	0.43903	0.68623	0.037
Mof_C 	C 	0.09557	0.39463	0.71287	-0.195
Mof_C 	C 	0.10127	0.36083	0.72634	0.284
Mof_C 	C 	0.06897	0.34113	0.74426	-0.209
Mof_C 	C 	0.03357	0.35423	0.74761	0.163
Mof_H 	H 	0.01217	0.34003	0.75953	-0.048
Mof_C 	C 	0.02727	0.38693	0.73479	-0.325
Mof_C 	C 	0.05907	0.40633	0.71756	0.156
Mof_H 	H 	0.05597	0.42883	0.70843	-0.034
Mof_C 	C 	0.07067	0.30703	0.75943	0.105
Mof_H 	H 	0.04917	0.29783	0.77143	0.021
Mof_N 	N 	0.09777	0.28823	0.75822	-0.163
Mof_O 	O 	0.08917	0.25763	0.77556	-0.552
Mof_C 	C 	0.09827	0.19573	0.79563	-0.716
Mof_C 	C 	0.12837	0.18163	0.80549	0.408
Mof_H 	H 	0.16037	0.19313	0.79983	-0.103
Mof_C 	C 	0.11377	0.15123	0.82329	-0.3
Mof_H 	H 	0.13517	0.14153	0.82943	0.138
Mof_C 	C 	0.06777	0.13503	0.83203	0.117
Mof_C 	C 	0.03757	0.14993	0.82297	-0.292
Mof_H 	H 	0.00617	0.13953	0.82903	0.135
Mof_C 	C 	0.05257	0.17983	0.80502	0.389
Mof_H 	H 	0.03117	0.18973	0.79893	-0.098
Mof_O 	O 	0.21517	0.34813	0.72244	-0.529
Mof_C 	C 	0.41127	0.39703	0.73873	0.682
Mof_C 	C 	0.44537	0.41693	0.71973	-0.982
Mof_H 	H 	0.44387	0.44483	0.71363	0.316
Mof_H 	H 	0.47897	0.42763	0.72443	0.282
Mof_H 	H 	0.43537	0.39123	0.70883	0.296
Mof_C 	C 	0.41417	0.35443	0.74773	-0.952
Mof_H 	H 	0.39227	0.34113	0.76013	0.285
Mof_H 	H 	0.40437	0.32903	0.73673	0.279
Mof_H 	H 	0.44797	0.36543	0.75223	0.268
Mof_C 	C 	0.42827	0.43553	0.75703	-0.887
Mof_H 	H 	0.42707	0.46443	0.75203	0.272
Mof_H 	H 	0.40647	0.42113	0.76943	0.27
Mof_H 	H 	0.46187	0.44503	0.76123	0.25
Mof_O 	O 	0.14067	0.28183	0.70144	-0.521
Mof_C 	C 	0.03377	0.11433	0.64803	0.574
Mof_C 	C 	0.00307	0.12473	0.63293	-0.864
Mof_H 	H 	0.02427	0.15473	0.62483	0.249
Mof_H 	H 	0.98597	0.09723	0.62303	0.244
Mof_H 	H 	0.97907	0.12933	0.64113	0.252
Mof_C 	C 	0.07237	0.10773	0.63483	-0.792
Mof_H 	H 	0.09257	0.10093	0.64463	0.23
Mof_H 	H 	0.05537	0.08043	0.62483	0.217
Mof_H 	H 	0.09337	0.13793	0.62683	0.229
Mof_C 	C 	0.00207	0.06773	0.66113	-0.843
Mof_H 	H 	0.02297	0.06173	0.67083	0.251
Mof_H 	H 	0.97797	0.07173	0.66953	0.25
Mof_H 	H 	0.98487	0.03973	0.65133	0.234
Mof_O 	O 	0.13367	0.34863	0.72227	-0.523
Mof_C 	C 	0.98787	0.40023	0.74013	0.703
Mof_C 	C 	0.97287	0.42123	0.72233	-1.026
Mof_H 	H 	0.00207	0.44693	0.71513	0.331
Mof_H 	H 	0.95287	0.39533	0.71203	0.307
Mof_H 	H 	0.95367	0.43533	0.72813	0.296
Mof_C 	C 	0.01057	0.44063	0.75753	-0.883
Mof_H 	H 	0.02117	0.42853	0.76973	0.269
Mof_H 	H 	0.03887	0.46993	0.75163	0.271
Mof_H 	H 	0.98597	0.44893	0.76243	0.247
Mof_C 	C 	0.94257	0.36043	0.75123	-0.953
Mof_H 	H 	0.95247	0.34653	0.76293	0.286
Mof_H 	H 	0.92337	0.37453	0.75703	0.269
Mof_H 	H 	0.92267	0.33463	0.74093	0.278
Mof_C 	C 	0.05067	0.10043	0.8509	0.323
Mof_O 	O 	0.07987	0.08842	0.85802	-0.483
Mof_O 	O 	0.00887	0.08842	0.85793	-0.478
Mof_C 	C 	0.22427	0.45773	0.63597	-0.234
Mof_C 	C 	0.22527	0.50273	0.63678	0.112
Mof_H 	H 	0.21517	0.51143	0.64963	-0.002
Mof_C 	C 	0.24017	0.53483	0.61978	-0.104
Mof_H 	H 	0.24047	0.56503	0.62113	0.073
Mof_C 	C 	0.25477	0.52323	0.60065	0.012
Mof_C 	C 	0.25187	0.47793	0.59896	-0.081
Mof_H 	H 	0.26037	0.46853	0.58583	0.05
Mof_C 	C 	0.23657	0.44643	0.6162	0.092
Mof_H 	H 	0.23437	0.41543	0.61453	-0.031
Mof_C 	C 	0.27127	0.55863	0.58233	0.19
Mof_O 	O 	0.27577	0.59933	0.58556	-0.381
Mof_O 	O 	0.27837	0.54513	0.56453	-0.227
Mof_C 	C 	0.23317	0.45923	0.63637	-0.241
Mof_C 	C 	0.27707	0.50433	0.6374	0.087
Mof_H 	H 	0.29537	0.51333	0.65033	0.006
Mof_C 	C 	0.29457	0.53613	0.62023	-0.082
Mof_H 	H 	0.32417	0.56663	0.62153	0.066
Mof_C 	C 	0.26847	0.52303	0.60091	-0.003
Mof_C 	C 	0.22677	0.47763	0.59915	-0.059
Mof_H 	H 	0.21027	0.46743	0.58573	0.043
Mof_C 	C 	0.20857	0.44663	0.61679	0.094
Mof_H 	H 	0.17877	0.41623	0.61543	-0.029
Mof_C 	C 	0.28627	0.55923	0.58283	0.204
Mof_O 	O 	0.32267	0.59993	0.58621	-0.386
Mof_O 	O 	0.26567	0.54583	0.56483	-0.209
Mof_Co	Co	0.84545	0.69077	0.02956	1.14
Mof_Co	Co	0.81377	0.6274	0.06791	1.139
Mof_Zn	Zn	0.63291	0.36704	0.2106	1.22
Mof_B 	B 	0.87953	0.75757	0.99017	1.432
Mof_O 	O 	0.92293	0.76857	0.00192	-0.543
Mof_N 	N 	0.91693	0.74187	0.02012	-0.153
Mof_C 	C 	0.95833	0.75097	0.02763	0.091
Mof_H 	H 	0.98693	0.77467	0.02037	0.036
Mof_C 	C 	0.96513	0.72777	0.04637	-0.2
Mof_C 	C 	0.92593	0.69347	0.05944	0.295
Mof_C 	C 	0.93863	0.67547	0.07807	-0.206
Mof_C 	C 	0.98783	0.68867	0.08182	0.157
Mof_H 	H 	0.99563	0.67637	0.09417	-0.047
Mof_C 	C 	0.02513	0.71897	0.068	-0.313
Mof_C 	C 	0.01283	0.73787	0.05068	0.152
Mof_H 	H 	0.03823	0.75897	0.04117	-0.033
Mof_C 	C 	0.90283	0.64337	0.09327	0.102
Mof_H 	H 	0.91543	0.63727	0.10607	0.022
Mof_N 	N 	0.85683	0.62247	0.09187	-0.161
Mof_O 	O 	0.83403	0.59217	0.10913	-0.551
Mof_B 	B 	0.78053	0.56207	0.10788	1.605
Mof_O 	O 	0.85393	0.70537	0.98206	-0.517
Mof_N 	N 	0.83623	0.67007	0.99748	-0.161
Mof_C 	C 	0.81523	0.62747	0.98907	0.072
Mof_H 	H 	0.81643	0.62667	0.97387	0.002
Mof_C 	C 	0.78993	0.58047	0.99961	-0.182
Mof_C 	C 	0.78783	0.57667	0.02252	0.257
Mof_C 	C 	0.76023	0.52887	0.03175	-0.176
Mof_C 	C 	0.73253	0.48837	0.01801	0.106
Mof_H 	H 	0.71313	0.45687	0.02427	-0.024
Mof_C 	C 	0.73223	0.49217	0.99586	-0.252
Mof_C 	C 	0.76173	0.53897	0.98688	0.106
Mof_H 	H 	0.76253	0.54257	0.97177	-0.044
Mof_C 	C 	0.75723	0.51977	0.05464	0.082
Mof_H 	H 	0.73883	0.48647	0.05897	0.029
Mof_N 	N 	0.77623	0.55107	0.06957	-0.16
Mof_O 	O 	0.76403	0.52817	0.08937	-0.542
Mof_O 	O 	0.84503	0.76817	0.00209	-0.51
Mof_N 	N 	0.82443	0.74147	0.01972	-0.15
Mof_C 	C 	0.79143	0.74967	0.02726	0.085
Mof_H 	H 	0.78563	0.77237	0.01957	0.037
Mof_C 	C 	0.76223	0.72797	0.04621	-0.195
Mof_C 	C 	0.76793	0.69417	0.05968	0.284
Mof_C 	C 	0.73563	0.67447	0.0776	-0.21
Mof_C 	C 	0.70023	0.68757	0.08095	0.163
Mof_H 	H 	0.67883	0.67337	0.09287	-0.048
Mof_C 	C 	0.69393	0.72027	0.06813	-0.326
Mof_C 	C 	0.72573	0.73967	0.0509	0.157
Mof_H 	H 	0.72263	0.76217	0.04177	-0.034
Mof_C 	C 	0.73733	0.64037	0.09277	0.105
Mof_H 	H 	0.71583	0.63117	0.10477	0.021
Mof_N 	N 	0.76443	0.62157	0.09156	-0.163
Mof_O 	O 	0.75583	0.59097	0.1089	-0.552
Mof_C 	C 	0.76493	0.52907	0.12897	-0.716
Mof_C 	C 	0.79503	0.51497	0.13883	0.409
Mof_H 	H 	0.82703	0.52647	0.13317	-0.102
Mof_C 	C 	0.78043	0.48457	0.15663	-0.3
Mof_H 	H 	0.80183	0.47487	0.16277	0.139
Mof_C 	C 	0.73443	0.46837	0.16537	0.118
Mof_C 	C 	0.70423	0.48327	0.15631	-0.292
Mof_H 	H 	0.67283	0.47287	0.16237	0.135
Mof_C 	C 	0.71923	0.51317	0.13836	0.39
Mof_H 	H 	0.69783	0.52307	0.13227	-0.098
Mof_O 	O 	0.88183	0.68147	0.05578	-0.528
Mof_C 	C 	0.07793	0.73037	0.07207	0.682
Mof_C 	C 	0.11203	0.75027	0.05307	-0.982
Mof_H 	H 	0.11053	0.77817	0.04697	0.315
Mof_H 	H 	0.14563	0.76097	0.05777	0.282
Mof_H 	H 	0.10203	0.72457	0.04217	0.296
Mof_C 	C 	0.08083	0.68777	0.08107	-0.952
Mof_H 	H 	0.05893	0.67447	0.09347	0.284
Mof_H 	H 	0.07103	0.66237	0.07007	0.278
Mof_H 	H 	0.11463	0.69877	0.08557	0.268
Mof_C 	C 	0.09493	0.76887	0.09037	-0.886
Mof_H 	H 	0.09373	0.79777	0.08537	0.271
Mof_H 	H 	0.07313	0.75447	0.10277	0.269
Mof_H 	H 	0.12853	0.77837	0.09457	0.249
Mof_O 	O 	0.80733	0.61517	0.03478	-0.521
Mof_C 	C 	0.70043	0.44767	0.98137	0.575
Mof_C 	C 	0.66973	0.45807	0.96627	-0.865
Mof_H 	H 	0.69093	0.48807	0.95817	0.249
Mof_H 	H 	0.65263	0.43057	0.95637	0.244
Mof_H 	H 	0.64573	0.46267	0.97447	0.252
Mof_C 	C 	0.73903	0.44107	0.96817	-0.793
Mof_H 	H 	0.75923	0.43427	0.97797	0.23
Mof_H 	H 	0.72203	0.41377	0.95817	0.217
Mof_H 	H 	0.76003	0.47127	0.96017	0.23
Mof_C 	C 	0.66873	0.40107	0.99447	-0.845
Mof_H 	H 	0.68963	0.39507	0.00417	0.252
Mof_H 	H 	0.64463	0.40507	0.00287	0.251
Mof_H 	H 	0.65153	0.37307	0.98467	0.235
Mof_O 	O 	0.80033	0.68197	0.05561	-0.523
Mof_C 	C 	0.65453	0.73357	0.07347	0.705
Mof_C 	C 	0.63953	0.75457	0.05567	-1.026
Mof_H 	H 	0.66873	0.78027	0.04847	0.331
Mof_H 	H 	0.61953	0.72867	0.04537	0.307
Mof_H 	H 	0.62033	0.76867	0.06147	0.296
Mof_C 	C 	0.67723	0.77397	0.09087	-0.885
Mof_H 	H 	0.68783	0.76187	0.10307	0.269
Mof_H 	H 	0.70553	0.80327	0.08497	0.271
Mof_H 	H 	0.65263	0.78227	0.09577	0.248
Mof_C 	C 	0.60923	0.69377	0.08457	-0.954
Mof_H 	H 	0.61913	0.67987	0.09627	0.286
Mof_H 	H 	0.59003	0.70787	0.09037	0.269
Mof_H 	H 	0.58933	0.66797	0.07427	0.279
Mof_C 	C 	0.71733	0.43377	0.18424	0.323
Mof_O 	O 	0.74653	0.42176	0.19136	-0.482
Mof_O 	O 	0.67553	0.42176	0.19127	-0.477
Mof_C 	C 	0.89093	0.79107	0.96931	-0.234
Mof_C 	C 	0.89193	0.83607	0.97012	0.112
Mof_H 	H 	0.88183	0.84477	0.98297	-0.002
Mof_C 	C 	0.90683	0.86817	0.95312	-0.104
Mof_H 	H 	0.90713	0.89837	0.95447	0.073
Mof_C 	C 	0.92143	0.85657	0.93399	0.012
Mof_C 	C 	0.91853	0.81127	0.9323	-0.081
Mof_H 	H 	0.92703	0.80187	0.91917	0.05
Mof_C 	C 	0.90323	0.77977	0.94954	0.092
Mof_H 	H 	0.90103	0.74877	0.94787	-0.031
Mof_C 	C 	0.93793	0.89197	0.91567	0.19
Mof_O 	O 	0.94243	0.93267	0.9189	-0.38
Mof_O 	O 	0.94503	0.87847	0.89787	-0.227
Mof_C 	C 	0.89983	0.79257	0.96971	-0.241
Mof_C 	C 	0.94373	0.83767	0.97074	0.087
Mof_H 	H 	0.96203	0.84667	0.98367	0.006
Mof_C 	C 	0.96123	0.86947	0.95357	-0.082
Mof_H 	H 	0.99083	0.89997	0.95487	0.066
Mof_C 	C 	0.93513	0.85637	0.93425	-0.003
Mof_C 	C 	0.89343	0.81097	0.93249	-0.059
Mof_H 	H 	0.87693	0.80077	0.91907	0.044
Mof_C 	C 	0.87523	0.77997	0.95013	0.093
Mof_H 	H 	0.84543	0.74957	0.94877	-0.029
Mof_C 	C 	0.95293	0.89257	0.91617	0.203
Mof_O 	O 	0.98933	0.93327	0.91955	-0.385
Mof_O 	O 	0.93233	0.87917	0.89817	-0.209
Mof_Co	Co	0.9759	0.48802	0.36289	1.141
Mof_Co	Co	0.03927	0.51971	0.40124	1.138
Mof_Zn	Zn	0.29963	0.59921	0.54393	1.22
Mof_B 	B 	0.9091	0.4553	0.3235	1.432
Mof_O 	O 	0.8981	0.4877	0.33525	-0.543
Mof_N 	N 	0.9248	0.5084	0.35345	-0.153
Mof_C 	C 	0.9157	0.5407	0.36096	0.092
Mof_H 	H 	0.892	0.5456	0.3537	0.035
Mof_C 	C 	0.9389	0.5707	0.3797	-0.201
Mof_C 	C 	0.9732	0.5658	0.39277	0.294
Mof_C 	C 	0.9912	0.5965	0.4114	-0.202
Mof_C 	C 	0.978	0.6325	0.41515	0.152
Mof_H 	H 	0.9903	0.6526	0.4275	-0.045
Mof_C 	C 	0.9477	0.6395	0.40133	-0.309
Mof_C 	C 	0.9288	0.6083	0.38401	0.153
Mof_H 	H 	0.9077	0.6126	0.3745	-0.033
Mof_C 	C 	0.0233	0.5928	0.4266	0.098
Mof_H 	H 	0.0294	0.6115	0.4394	0.023
Mof_N 	N 	0.0442	0.5677	0.4252	-0.161
Mof_O 	O 	0.0745	0.5752	0.44246	-0.551
Mof_B 	B 	0.1046	0.5518	0.44121	1.604
Mof_O 	O 	0.9613	0.4819	0.31539	-0.517
Mof_N 	N 	0.9966	0.4995	0.33081	-0.159
Mof_C 	C 	0.0392	0.5211	0.3224	0.068
Mof_H 	H 	0.04	0.5231	0.3072	0.003
Mof_C 	C 	0.0862	0.5428	0.33294	-0.181
Mof_C 	C 	0.09	0.5445	0.35585	0.256
Mof_C 	C 	0.1378	0.5647	0.36508	-0.176
Mof_C 	C 	0.1783	0.5775	0.35134	0.106
Mof_H 	H 	0.2098	0.5896	0.3576	-0.023
Mof_C 	C 	0.1745	0.5734	0.32919	-0.251
Mof_C 	C 	0.1277	0.5561	0.32021	0.105
Mof_H 	H 	0.1241	0.5533	0.3051	-0.043
Mof_C 	C 	0.1469	0.5708	0.38797	0.082
Mof_H 	H 	0.1802	0.5857	0.3923	0.029
Mof_N 	N 	0.1156	0.5585	0.4029	-0.16
Mof_O 	O 	0.1385	0.5692	0.4227	-0.543
Mof_O 	O 	0.8985	0.4102	0.33542	-0.51
Mof_N 	N 	0.9252	0.4163	0.35305	-0.15
Mof_C 	C 	0.917	0.3751	0.36059	0.084
Mof_H 	H 	0.8943	0.3466	0.3529	0.038
Mof_C 	C 	0.9387	0.3676	0.37954	-0.194
Mof_C 	C 	0.9725	0.4071	0.39301	0.283
Mof_C 	C 	0.9922	0.3945	0.41093	-0.206
Mof_C 	C 	0.9791	0.346	0.41428	0.161
Mof_H 	H 	0.9933	0.3388	0.4262	-0.047
Mof_C 	C 	0.9464	0.307	0.40146	-0.325
Mof_C 	C 	0.927	0.3194	0.38423	0.156
Mof_H 	H 	0.9045	0.2938	0.3751	-0.034
Mof_C 	C 	0.0263	0.4303	0.4261	0.101
Mof_H 	H 	0.0355	0.418	0.4381	0.021
Mof_N 	N 	0.0451	0.4762	0.42489	-0.163
Mof_O 	O 	0.0757	0.4982	0.44223	-0.552
Mof_C 	C 	0.1376	0.5692	0.4623	-0.716
Mof_C 	C 	0.1517	0.6134	0.47216	0.409
Mof_H 	H 	0.1402	0.6339	0.4665	-0.103
Mof_C 	C 	0.1821	0.6292	0.48996	-0.301
Mof_H 	H 	0.1918	0.6603	0.4961	0.139
Mof_C 	C 	0.1983	0.5994	0.4987	0.118
Mof_C 	C 	0.1834	0.5543	0.48964	-0.292
Mof_H 	H 	0.1938	0.5333	0.4957	0.135
Mof_C 	C 	0.1535	0.5394	0.47169	0.39
Mof_H 	H 	0.1436	0.5081	0.4656	-0.098
Mof_O 	O 	0.9852	0.5337	0.38911	-0.527
Mof_C 	C 	0.9363	0.6809	0.4054	0.678
Mof_C 	C 	0.9164	0.6951	0.3864	-0.979
Mof_H 	H 	0.8885	0.6657	0.3803	0.315
Mof_H 	H 	0.9057	0.718	0.3911	0.282
Mof_H 	H 	0.9421	0.7108	0.3755	0.296
Mof_C 	C 	0.9789	0.7264	0.4144	-0.943
Mof_H 	H 	0.9922	0.7178	0.4268	0.283
Mof_H 	H 	0.0043	0.742	0.4034	0.275
Mof_H 	H 	0.9679	0.7492	0.4189	0.266
Mof_C 	C 	0.8978	0.6594	0.4237	-0.884
Mof_H 	H 	0.8689	0.6293	0.4187	0.271
Mof_H 	H 	0.9122	0.652	0.4361	0.269
Mof_H 	H 	0.8883	0.6835	0.4279	0.249
Mof_O 	O 	0.0515	0.5255	0.36811	-0.522
Mof_C 	C 	0.219	0.5861	0.3147	0.575
Mof_C 	C 	0.2086	0.545	0.2996	-0.864
Mof_H 	H 	0.1786	0.5362	0.2915	0.249
Mof_H 	H 	0.2361	0.5554	0.2897	0.244
Mof_H 	H 	0.204	0.5164	0.3078	0.252
Mof_C 	C 	0.2256	0.6313	0.3015	-0.792
Mof_H 	H 	0.2324	0.6583	0.3113	0.23
Mof_H 	H 	0.2529	0.6416	0.2915	0.217
Mof_H 	H 	0.1954	0.6221	0.2935	0.229
Mof_C 	C 	0.2656	0.601	0.3278	-0.845
Mof_H 	H 	0.2716	0.6279	0.3375	0.251
Mof_H 	H 	0.2616	0.5729	0.3362	0.251
Mof_H 	H 	0.2936	0.6118	0.318	0.235
Mof_O 	O 	0.9847	0.4517	0.38894	-0.522
Mof_C 	C 	0.9331	0.2543	0.4068	0.705
Mof_C 	C 	0.9121	0.2183	0.389	-1.027
Mof_H 	H 	0.8864	0.2218	0.3818	0.331
Mof_H 	H 	0.938	0.2242	0.3787	0.308
Mof_H 	H 	0.898	0.185	0.3948	0.296
Mof_C 	C 	0.8927	0.2366	0.4242	-0.885
Mof_H 	H 	0.9048	0.2593	0.4364	0.269
Mof_H 	H 	0.8634	0.2356	0.4183	0.271
Mof_H 	H 	0.8844	0.2037	0.4291	0.248
Mof_C 	C 	0.9729	0.2488	0.4179	-0.954
Mof_H 	H 	0.9868	0.2726	0.4296	0.287
Mof_H 	H 	0.9588	0.2155	0.4237	0.27
Mof_H 	H 	0.9987	0.2547	0.4076	0.279
Mof_C 	C 	0.2329	0.6169	0.51757	0.323
Mof_O 	O 	0.24491	0.65811	0.52469	-0.482
Mof_O 	O 	0.24491	0.58711	0.5246	-0.477
Mof_C 	C 	0.8756	0.4332	0.30264	-0.234
Mof_C 	C 	0.8306	0.3892	0.30345	0.112
Mof_H 	H 	0.8219	0.3704	0.3163	-0.002
Mof_C 	C 	0.7985	0.372	0.28645	-0.104
Mof_H 	H 	0.7683	0.3421	0.2878	0.073
Mof_C 	C 	0.8101	0.3982	0.26732	0.012
Mof_C 	C 	0.8554	0.4406	0.26563	-0.081
Mof_H 	H 	0.8648	0.4585	0.2525	0.05
Mof_C 	C 	0.8869	0.4568	0.28287	0.092
Mof_H 	H 	0.9179	0.4856	0.2812	-0.03
Mof_C 	C 	0.7747	0.3793	0.249	0.19
Mof_O 	O 	0.734	0.3431	0.25223	-0.381
Mof_O 	O 	0.7882	0.3999	0.2312	-0.227
Mof_C 	C 	0.8741	0.4406	0.30304	-0.241
Mof_C 	C 	0.829	0.4394	0.30407	0.087
Mof_H 	H 	0.82	0.4487	0.317	0.006
Mof_C 	C 	0.7972	0.4251	0.2869	-0.082
Mof_H 	H 	0.7667	0.4242	0.2882	0.066
Mof_C 	C 	0.8103	0.4121	0.26758	-0.003
Mof_C 	C 	0.8557	0.4158	0.26582	-0.059
Mof_H 	H 	0.8659	0.4095	0.2524	0.044
Mof_C 	C 	0.8867	0.4286	0.28346	0.094
Mof_H 	H 	0.9171	0.4292	0.2821	-0.029
Mof_C 	C 	0.7741	0.3937	0.2495	0.204
Mof_O 	O 	0.7334	0.3894	0.25288	-0.386
Mof_O 	O 	0.7875	0.3865	0.2315	-0.209
Mof_Co	Co	0.64257	0.82135	0.69622	1.14
Mof_Co	Co	0.70594	0.85304	0.73457	1.138
Mof_Zn	Zn	0.9663	0.93254	0.87726	1.22
Mof_B 	B 	0.57577	0.78863	0.65683	1.432
Mof_O 	O 	0.56477	0.82103	0.66858	-0.543
Mof_N 	N 	0.59147	0.84173	0.68678	-0.153
Mof_C 	C 	0.58237	0.87403	0.69429	0.091
Mof_H 	H 	0.55867	0.87893	0.68703	0.035
Mof_C 	C 	0.60557	0.90403	0.71303	-0.201
Mof_C 	C 	0.63987	0.89913	0.7261	0.294
Mof_C 	C 	0.65787	0.92983	0.74473	-0.203
Mof_C 	C 	0.64467	0.96583	0.74848	0.15
Mof_H 	H 	0.65697	0.98593	0.76083	-0.044
Mof_C 	C 	0.61437	0.97283	0.73466	-0.303
Mof_C 	C 	0.59547	0.94163	0.71734	0.15
Mof_H 	H 	0.57437	0.94593	0.70783	-0.032
Mof_C 	C 	0.68997	0.92613	0.75993	0.101
Mof_H 	H 	0.69607	0.94483	0.77273	0.023
Mof_N 	N 	0.71087	0.90103	0.75853	-0.161
Mof_O 	O 	0.74117	0.90853	0.77579	-0.551
Mof_B 	B 	0.77127	0.88513	0.77454	1.605
Mof_O 	O 	0.62797	0.81523	0.64872	-0.517
Mof_N 	N 	0.66327	0.83283	0.66414	-0.161
Mof_C 	C 	0.70587	0.85443	0.65573	0.072
Mof_H 	H 	0.70667	0.85643	0.64053	0.002
Mof_C 	C 	0.75287	0.87613	0.66627	-0.182
Mof_C 	C 	0.75667	0.87783	0.68918	0.257
Mof_C 	C 	0.80447	0.89803	0.69841	-0.177
Mof_C 	C 	0.84497	0.91083	0.68467	0.106
Mof_H 	H 	0.87647	0.92293	0.69093	-0.023
Mof_C 	C 	0.84117	0.90673	0.66252	-0.252
Mof_C 	C 	0.79437	0.88943	0.65354	0.106
Mof_H 	H 	0.79077	0.88663	0.63843	-0.044
Mof_C 	C 	0.81357	0.90413	0.7213	0.082
Mof_H 	H 	0.84687	0.91903	0.72563	0.029
Mof_N 	N 	0.78227	0.89183	0.73623	-0.16
Mof_O 	O 	0.80517	0.90253	0.75603	-0.542
Mof_O 	O 	0.56517	0.74353	0.66875	-0.51
Mof_N 	N 	0.59187	0.74963	0.68638	-0.15
Mof_C 	C 	0.58367	0.70843	0.69392	0.084
Mof_H 	H 	0.56097	0.67993	0.68623	0.037
Mof_C 	C 	0.60537	0.70093	0.71287	-0.195
Mof_C 	C 	0.63917	0.74043	0.72634	0.284
Mof_C 	C 	0.65887	0.72783	0.74426	-0.21
Mof_C 	C 	0.64577	0.67933	0.74761	0.163
Mof_H 	H 	0.65997	0.67213	0.75953	-0.048
Mof_C 	C 	0.61307	0.64033	0.73479	-0.326
Mof_C 	C 	0.59367	0.65273	0.71756	0.157
Mof_H 	H 	0.57117	0.62713	0.70843	-0.034
Mof_C 	C 	0.69297	0.76363	0.75943	0.105
Mof_H 	H 	0.70217	0.75133	0.77143	0.021
Mof_N 	N 	0.71177	0.80953	0.75822	-0.163
Mof_O 	O 	0.74237	0.83153	0.77556	-0.552
Mof_C 	C 	0.80427	0.90253	0.79563	-0.716
Mof_C 	C 	0.81837	0.94673	0.80549	0.409
Mof_H 	H 	0.80687	0.96723	0.79983	-0.102
Mof_C 	C 	0.84877	0.96253	0.82329	-0.301
Mof_H 	H 	0.85847	0.99363	0.82943	0.139
Mof_C 	C 	0.86497	0.93273	0.83203	0.118
Mof_C 	C 	0.85007	0.88763	0.82297	-0.292
Mof_H 	H 	0.86047	0.86663	0.82903	0.136
Mof_C 	C 	0.82017	0.87273	0.80502	0.39
Mof_H 	H 	0.81027	0.84143	0.79893	-0.098
Mof_O 	O 	0.65187	0.86703	0.72244	-0.528
Mof_C 	C 	0.60297	0.01423	0.73873	0.669
Mof_C 	C 	0.58307	0.02843	0.71973	-0.98
Mof_H 	H 	0.55517	0.99903	0.71363	0.317
Mof_H 	H 	0.57237	0.05133	0.72443	0.282
Mof_H 	H 	0.60877	0.04413	0.70883	0.295
Mof_C 	C 	0.64557	0.05973	0.74773	-0.941
Mof_H 	H 	0.65887	0.05113	0.76013	0.281
Mof_H 	H 	0.67097	0.07533	0.73673	0.275
Mof_H 	H 	0.63457	0.08253	0.75223	0.265
Mof_C 	C 	0.56447	0.99273	0.75703	-0.865
Mof_H 	H 	0.53557	0.96263	0.75203	0.266
Mof_H 	H 	0.57887	0.98533	0.76943	0.264
Mof_H 	H 	0.55497	0.01683	0.76123	0.242
Mof_O 	O 	0.71817	0.85883	0.70144	-0.521
Mof_C 	C 	0.88567	0.91943	0.64803	0.577
Mof_C 	C 	0.87527	0.87833	0.63293	-0.867
Mof_H 	H 	0.84527	0.86953	0.62483	0.25
Mof_H 	H 	0.90277	0.88873	0.62303	0.245
Mof_H 	H 	0.87067	0.84973	0.64113	0.253
Mof_C 	C 	0.89227	0.96463	0.63483	-0.796
Mof_H 	H 	0.89907	0.99163	0.64463	0.232
Mof_H 	H 	0.91957	0.97493	0.62483	0.219
Mof_H 	H 	0.86207	0.95543	0.62683	0.231
Mof_C 	C 	0.93227	0.93433	0.66113	-0.848
Mof_H 	H 	0.93827	0.96123	0.67083	0.253
Mof_H 	H 	0.92827	0.90623	0.66953	0.252
Mof_H 	H 	0.96027	0.94513	0.65133	0.237
Mof_O 	O 	0.65137	0.78503	0.72227	-0.523
Mof_C 	C 	0.59977	0.58763	0.74013	0.705
Mof_C 	C 	0.57877	0.55163	0.72233	-1.026
Mof_H 	H 	0.55307	0.55513	0.71513	0.331
Mof_H 	H 	0.60467	0.55753	0.71203	0.308
Mof_H 	H 	0.56467	0.51833	0.72813	0.296
Mof_C 	C 	0.55937	0.56993	0.75753	-0.885
Mof_H 	H 	0.57147	0.59263	0.76973	0.269
Mof_H 	H 	0.53007	0.56893	0.75163	0.271
Mof_H 	H 	0.55107	0.53703	0.76243	0.248
Mof_C 	C 	0.63957	0.58213	0.75123	-0.954
Mof_H 	H 	0.65347	0.60593	0.76293	0.286
Mof_H 	H 	0.62547	0.54883	0.75703	0.269
Mof_H 	H 	0.66537	0.58803	0.74093	0.279
Mof_C 	C 	0.89957	0.95023	0.8509	0.323
Mof_O 	O 	0.91158	0.99144	0.85802	-0.481
Mof_O 	O 	0.91158	0.92044	0.85793	-0.477
Mof_C 	C 	0.54227	0.76653	0.63597	-0.234
Mof_C 	C 	0.49727	0.72253	0.63678	0.112
Mof_H 	H 	0.48857	0.70373	0.64963	-0.002
Mof_C 	C 	0.46517	0.70533	0.61978	-0.104
Mof_H 	H 	0.43497	0.67543	0.62113	0.073
Mof_C 	C 	0.47677	0.73153	0.60065	0.012
Mof_C 	C 	0.52207	0.77393	0.59896	-0.081
Mof_H 	H 	0.53147	0.79183	0.58583	0.05
Mof_C 	C 	0.55357	0.79013	0.6162	0.092
Mof_H 	H 	0.58457	0.81893	0.61453	-0.031
Mof_C 	C 	0.44137	0.71263	0.58233	0.19
Mof_O 	O 	0.40067	0.67643	0.58556	-0.381
Mof_O 	O 	0.45487	0.73323	0.56453	-0.227
Mof_C 	C 	0.54077	0.77393	0.63637	-0.241
Mof_C 	C 	0.49567	0.77273	0.6374	0.087
Mof_H 	H 	0.48667	0.78203	0.65033	0.006
Mof_C 	C 	0.46387	0.75843	0.62023	-0.082
Mof_H 	H 	0.43337	0.75753	0.62153	0.066
Mof_C 	C 	0.47697	0.74543	0.60091	-0.003
Mof_C 	C 	0.52237	0.74913	0.59915	-0.059
Mof_H 	H 	0.53257	0.74283	0.58573	0.043
Mof_C 	C 	0.55337	0.76193	0.61679	0.094
Mof_H 	H 	0.58377	0.76253	0.61543	-0.029
Mof_C 	C 	0.44077	0.72703	0.58283	0.204
Mof_O 	O 	0.40007	0.72273	0.58621	-0.386
Mof_O 	O 	0.45417	0.71983	0.56483	-0.209
Mof_Co	Co	0.30923	0.15469	0.02956	1.14
Mof_Co	Co	0.3726	0.18638	0.06791	1.138
Mof_Zn	Zn	0.63296	0.26588	0.2106	1.22
Mof_B 	B 	0.24243	0.12197	0.99017	1.432
Mof_O 	O 	0.23143	0.15437	0.00192	-0.543
Mof_N 	N 	0.25813	0.17507	0.02012	-0.153
Mof_C 	C 	0.24903	0.20737	0.02763	0.092
Mof_H 	H 	0.22533	0.21227	0.02037	0.035
Mof_C 	C 	0.27223	0.23737	0.04637	-0.203
Mof_C 	C 	0.30653	0.23247	0.05944	0.296
Mof_C 	C 	0.32453	0.26317	0.07807	-0.206
Mof_C 	C 	0.31133	0.29917	0.08182	0.154
Mof_H 	H 	0.32363	0.31927	0.09417	-0.047
Mof_C 	C 	0.28103	0.30617	0.068	-0.311
Mof_C 	C 	0.26213	0.27497	0.05068	0.155
Mof_H 	H 	0.24103	0.27927	0.04117	-0.034
Mof_C 	C 	0.35663	0.25947	0.09327	0.102
Mof_H 	H 	0.36273	0.27817	0.10607	0.022
Mof_N 	N 	0.37753	0.23437	0.09187	-0.161
Mof_O 	O 	0.40783	0.24187	0.10913	-0.551
Mof_B 	B 	0.43793	0.21847	0.10788	1.605
Mof_O 	O 	0.29463	0.14857	0.98206	-0.517
Mof_N 	N 	0.32993	0.16617	0.99748	-0.161
Mof_C 	C 	0.37253	0.18777	0.98907	0.072
Mof_H 	H 	0.37333	0.18977	0.97387	0.002
Mof_C 	C 	0.41953	0.20947	0.99961	-0.182
Mof_C 	C 	0.42333	0.21117	0.02252	0.257
Mof_C 	C 	0.47113	0.23137	0.03175	-0.176
Mof_C 	C 	0.51163	0.24417	0.01801	0.106
Mof_H 	H 	0.54313	0.25627	0.02427	-0.024
Mof_C 	C 	0.50783	0.24007	0.99586	-0.251
Mof_C 	C 	0.46103	0.22277	0.98688	0.106
Mof_H 	H 	0.45743	0.21997	0.97177	-0.044
Mof_C 	C 	0.48023	0.23747	0.05464	0.082
Mof_H 	H 	0.51353	0.25237	0.05897	0.029
Mof_N 	N 	0.44893	0.22517	0.06957	-0.16
Mof_O 	O 	0.47183	0.23587	0.08937	-0.543
Mof_O 	O 	0.23183	0.07687	0.00209	-0.51
Mof_N 	N 	0.25853	0.08297	0.01972	-0.15
Mof_C 	C 	0.25033	0.04177	0.02726	0.085
Mof_H 	H 	0.22763	0.01327	0.01957	0.037
Mof_C 	C 	0.27203	0.03427	0.04621	-0.196
Mof_C 	C 	0.30583	0.07377	0.05968	0.285
Mof_C 	C 	0.32553	0.06117	0.0776	-0.21
Mof_C 	C 	0.31243	0.01267	0.08095	0.162
Mof_H 	H 	0.32663	0.00547	0.09287	-0.048
Mof_C 	C 	0.27973	0.97367	0.06813	-0.325
Mof_C 	C 	0.26033	0.98607	0.0509	0.158
Mof_H 	H 	0.23783	0.96047	0.04177	-0.034
Mof_C 	C 	0.35963	0.09697	0.09277	0.105
Mof_H 	H 	0.36883	0.08467	0.10477	0.021
Mof_N 	N 	0.37843	0.14287	0.09156	-0.163
Mof_O 	O 	0.40903	0.16487	0.1089	-0.552
Mof_C 	C 	0.47093	0.23587	0.12897	-0.716
Mof_C 	C 	0.48503	0.28007	0.13883	0.409
Mof_H 	H 	0.47353	0.30057	0.13317	-0.103
Mof_C 	C 	0.51543	0.29587	0.15663	-0.3
Mof_H 	H 	0.52513	0.32697	0.16277	0.139
Mof_C 	C 	0.53163	0.26607	0.16537	0.118
Mof_C 	C 	0.51673	0.22097	0.15631	-0.292
Mof_H 	H 	0.52713	0.19997	0.16237	0.135
Mof_C 	C 	0.48683	0.20607	0.13836	0.39
Mof_H 	H 	0.47693	0.17477	0.13227	-0.098
Mof_O 	O 	0.31853	0.20037	0.05578	-0.529
Mof_C 	C 	0.26963	0.34757	0.07207	0.682
Mof_C 	C 	0.24973	0.36177	0.05307	-0.982
Mof_H 	H 	0.22183	0.33237	0.04697	0.316
Mof_H 	H 	0.23903	0.38467	0.05777	0.282
Mof_H 	H 	0.27543	0.37747	0.04217	0.296
Mof_C 	C 	0.31223	0.39307	0.08107	-0.952
Mof_H 	H 	0.32553	0.38447	0.09347	0.285
Mof_H 	H 	0.33763	0.40867	0.07007	0.279
Mof_H 	H 	0.30123	0.41587	0.08557	0.268
Mof_C 	C 	0.23113	0.32607	0.09037	-0.887
Mof_H 	H 	0.20223	0.29597	0.08537	0.272
Mof_H 	H 	0.24553	0.31867	0.10277	0.269
Mof_H 	H 	0.22163	0.35017	0.09457	0.249
Mof_O 	O 	0.38483	0.19217	0.03478	-0.521
Mof_C 	C 	0.55233	0.25277	0.98137	0.575
Mof_C 	C 	0.54193	0.21167	0.96627	-0.865
Mof_H 	H 	0.51193	0.20287	0.95817	0.249
Mof_H 	H 	0.56943	0.22207	0.95637	0.244
Mof_H 	H 	0.53733	0.18307	0.97447	0.252
Mof_C 	C 	0.55893	0.29797	0.96817	-0.792
Mof_H 	H 	0.56573	0.32497	0.97797	0.23
Mof_H 	H 	0.58623	0.30827	0.95817	0.217
Mof_H 	H 	0.52873	0.28877	0.96017	0.229
Mof_C 	C 	0.59893	0.26767	0.99447	-0.845
Mof_H 	H 	0.60493	0.29457	0.00417	0.251
Mof_H 	H 	0.59493	0.23957	0.00287	0.251
Mof_H 	H 	0.62693	0.27847	0.98467	0.235
Mof_O 	O 	0.31803	0.11837	0.05561	-0.523
Mof_C 	C 	0.26643	0.92097	0.07347	0.705
Mof_C 	C 	0.24543	0.88497	0.05567	-1.026
Mof_H 	H 	0.21973	0.88847	0.04847	0.331
Mof_H 	H 	0.27133	0.89087	0.04537	0.308
Mof_H 	H 	0.23133	0.85167	0.06147	0.296
Mof_C 	C 	0.22603	0.90327	0.09087	-0.885
Mof_H 	H 	0.23813	0.92597	0.10307	0.269
Mof_H 	H 	0.19673	0.90227	0.08497	0.271
Mof_H 	H 	0.21773	0.87037	0.09577	0.248
Mof_C 	C 	0.30623	0.91547	0.08457	-0.954
Mof_H 	H 	0.32013	0.93927	0.09627	0.287
Mof_H 	H 	0.29213	0.88217	0.09037	0.269
Mof_H 	H 	0.33203	0.92137	0.07427	0.279
Mof_C 	C 	0.56623	0.28357	0.18424	0.323
Mof_O 	O 	0.57824	0.32478	0.19136	-0.482
Mof_O 	O 	0.57824	0.25378	0.19127	-0.477
Mof_C 	C 	0.20893	0.09987	0.96931	-0.234
Mof_C 	C 	0.16393	0.05587	0.97012	0.112
Mof_H 	H 	0.15523	0.03707	0.98297	-0.003
Mof_C 	C 	0.13183	0.03867	0.95312	-0.104
Mof_H 	H 	0.10163	0.00877	0.95447	0.072
Mof_C 	C 	0.14343	0.06487	0.93399	0.012
Mof_C 	C 	0.18873	0.10727	0.9323	-0.081
Mof_H 	H 	0.19813	0.12517	0.91917	0.05
Mof_C 	C 	0.22023	0.12347	0.94954	0.093
Mof_H 	H 	0.25123	0.15227	0.94787	-0.031
Mof_C 	C 	0.10803	0.04597	0.91567	0.191
Mof_O 	O 	0.06733	0.00977	0.9189	-0.382
Mof_O 	O 	0.12153	0.06657	0.89787	-0.228
Mof_C 	C 	0.20743	0.10727	0.96971	-0.241
Mof_C 	C 	0.16233	0.10607	0.97074	0.087
Mof_H 	H 	0.15333	0.11537	0.98367	0.006
Mof_C 	C 	0.13053	0.09177	0.95357	-0.082
Mof_H 	H 	0.10003	0.09087	0.95487	0.065
Mof_C 	C 	0.14363	0.07877	0.93425	-0.003
Mof_C 	C 	0.18903	0.08247	0.93249	-0.06
Mof_H 	H 	0.19923	0.07617	0.91907	0.043
Mof_C 	C 	0.22003	0.09527	0.95013	0.093
Mof_H 	H 	0.25043	0.09587	0.94877	-0.029
Mof_C 	C 	0.10743	0.06037	0.91617	0.203
Mof_O 	O 	0.06673	0.05607	0.91955	-0.386
Mof_O 	O 	0.12083	0.05317	0.89817	-0.209
Mof_Zn	Zn	0.66667	0.33333	0.25144	1.261
Mof_Zn	Zn	0.33333	0.66667	0.58477	1.261
Mof_Zn	Zn	-0	-3.0222e-32	0.91811	1.26
Mof_O 	O 	0.33333	0.66667	0.55282	-0.9
Mof_O 	O 	-1.5111e-32	0	0.88615	-0.902
Mof_O 	O 	0.66667	0.33333	0.21949	-0.9
Mof_Co	Co	0.48802	0.51212	0.63711	1.14
Mof_Co	Co	0.51971	0.48044	0.59876	1.138
Mof_Zn	Zn	0.59921	0.29958	0.45607	1.22
Mof_B 	B 	0.4553	0.5462	0.6765	1.432
Mof_O 	O 	0.4877	0.5896	0.66475	-0.543
Mof_N 	N 	0.5084	0.5836	0.64655	-0.153
Mof_C 	C 	0.5407	0.625	0.63904	0.092
Mof_H 	H 	0.5456	0.6536	0.6463	0.035
Mof_C 	C 	0.5707	0.6318	0.6203	-0.203
Mof_C 	C 	0.5658	0.5926	0.60723	0.296
Mof_C 	C 	0.5965	0.6053	0.5886	-0.206
Mof_C 	C 	0.6325	0.6545	0.58485	0.154
Mof_H 	H 	0.6526	0.6623	0.5725	-0.047
Mof_C 	C 	0.6395	0.6918	0.59867	-0.312
Mof_C 	C 	0.6083	0.6795	0.61599	0.155
Mof_H 	H 	0.6126	0.7049	0.6255	-0.034
Mof_C 	C 	0.5928	0.5695	0.5734	0.102
Mof_H 	H 	0.6115	0.5821	0.5606	0.022
Mof_N 	N 	0.5677	0.5235	0.5748	-0.161
Mof_O 	O 	0.5752	0.5007	0.55754	-0.551
Mof_B 	B 	0.5518	0.4472	0.55879	1.605
Mof_O 	O 	0.4819	0.5206	0.68461	-0.517
Mof_N 	N 	0.4995	0.5029	0.66919	-0.161
Mof_C 	C 	0.5211	0.4819	0.6776	0.072
Mof_H 	H 	0.5231	0.4831	0.6928	0.002
Mof_C 	C 	0.5428	0.4566	0.66706	-0.182
Mof_C 	C 	0.5445	0.4545	0.64415	0.257
Mof_C 	C 	0.5647	0.4269	0.63492	-0.176
Mof_C 	C 	0.5775	0.3992	0.64866	0.106
Mof_H 	H 	0.5896	0.3798	0.6424	-0.024
Mof_C 	C 	0.5734	0.3989	0.67081	-0.252
Mof_C 	C 	0.5561	0.4284	0.67979	0.106
Mof_H 	H 	0.5533	0.4292	0.6949	-0.044
Mof_C 	C 	0.5708	0.4239	0.61203	0.082
Mof_H 	H 	0.5857	0.4055	0.6077	0.029
Mof_N 	N 	0.5585	0.4429	0.5971	-0.16
Mof_O 	O 	0.5692	0.4307	0.5773	-0.543
Mof_O 	O 	0.4102	0.5117	0.66458	-0.51
Mof_N 	N 	0.4163	0.4911	0.64695	-0.15
Mof_C 	C 	0.3751	0.4581	0.63941	0.084
Mof_H 	H 	0.3466	0.4523	0.6471	0.037
Mof_C 	C 	0.3676	0.4289	0.62046	-0.195
Mof_C 	C 	0.4071	0.4346	0.60699	0.284
Mof_C 	C 	0.3945	0.4023	0.58907	-0.21
Mof_C 	C 	0.346	0.3669	0.58572	0.163
Mof_H 	H 	0.3388	0.3455	0.5738	-0.048
Mof_C 	C 	0.307	0.3606	0.59854	-0.326
Mof_C 	C 	0.3194	0.3924	0.61577	0.157
Mof_H 	H 	0.2938	0.3893	0.6249	-0.034
Mof_C 	C 	0.4303	0.404	0.5739	0.105
Mof_H 	H 	0.418	0.3825	0.5619	0.021
Mof_N 	N 	0.4762	0.4311	0.57511	-0.163
Mof_O 	O 	0.4982	0.4225	0.55777	-0.552
Mof_C 	C 	0.5692	0.4316	0.5377	-0.716
Mof_C 	C 	0.6134	0.4617	0.52784	0.409
Mof_H 	H 	0.6339	0.4937	0.5335	-0.102
Mof_C 	C 	0.6292	0.4471	0.51004	-0.3
Mof_H 	H 	0.6603	0.4685	0.5039	0.139
Mof_C 	C 	0.5994	0.4011	0.5013	0.118
Mof_C 	C 	0.5543	0.3709	0.51036	-0.292
Mof_H 	H 	0.5333	0.3395	0.5043	0.135
Mof_C 	C 	0.5394	0.3859	0.52831	0.39
Mof_H 	H 	0.5081	0.3645	0.5344	-0.098
Mof_O 	O 	0.5337	0.5485	0.61089	-0.529
Mof_C 	C 	0.6809	0.7446	0.5946	0.683
Mof_C 	C 	0.6951	0.7787	0.6136	-0.982
Mof_H 	H 	0.6657	0.7772	0.6197	0.316
Mof_H 	H 	0.718	0.8123	0.6089	0.283
Mof_H 	H 	0.7108	0.7687	0.6245	0.296
Mof_C 	C 	0.7264	0.7475	0.5856	-0.953
Mof_H 	H 	0.7178	0.7256	0.5732	0.286
Mof_H 	H 	0.742	0.7377	0.5966	0.279
Mof_H 	H 	0.7492	0.7813	0.5811	0.268
Mof_C 	C 	0.6594	0.7616	0.5763	-0.887
Mof_H 	H 	0.6293	0.7604	0.5813	0.272
Mof_H 	H 	0.652	0.7398	0.5639	0.27
Mof_H 	H 	0.6835	0.7952	0.5721	0.25
Mof_O 	O 	0.5255	0.474	0.63189	-0.521
Mof_C 	C 	0.5861	0.3671	0.6853	0.575
Mof_C 	C 	0.545	0.3364	0.7004	-0.865
Mof_H 	H 	0.5362	0.3576	0.7085	0.249
Mof_H 	H 	0.5554	0.3193	0.7103	0.244
Mof_H 	H 	0.5164	0.3124	0.6922	0.252
Mof_C 	C 	0.6313	0.4057	0.6985	-0.793
Mof_H 	H 	0.6583	0.4259	0.6887	0.23
Mof_H 	H 	0.6416	0.3887	0.7085	0.217
Mof_H 	H 	0.6221	0.4267	0.7065	0.229
Mof_C 	C 	0.601	0.3354	0.6722	-0.845
Mof_H 	H 	0.6279	0.3563	0.6625	0.251
Mof_H 	H 	0.5729	0.3113	0.6638	0.251
Mof_H 	H 	0.6118	0.3182	0.682	0.235
Mof_O 	O 	0.4517	0.467	0.61106	-0.523
Mof_C 	C 	0.2543	0.3212	0.5932	0.704
Mof_C 	C 	0.2183	0.3062	0.611	-1.026
Mof_H 	H 	0.2218	0.3354	0.6182	0.33
Mof_H 	H 	0.2242	0.2862	0.6213	0.307
Mof_H 	H 	0.185	0.287	0.6052	0.296
Mof_C 	C 	0.2366	0.3439	0.5758	-0.885
Mof_H 	H 	0.2593	0.3545	0.5636	0.269
Mof_H 	H 	0.2356	0.3722	0.5817	0.271
Mof_H 	H 	0.2037	0.3193	0.5709	0.248
Mof_C 	C 	0.2488	0.2759	0.5821	-0.953
Mof_H 	H 	0.2726	0.2858	0.5704	0.286
Mof_H 	H 	0.2155	0.2567	0.5763	0.269
Mof_H 	H 	0.2547	0.256	0.5924	0.278
Mof_C 	C 	0.6169	0.384	0.48243	0.323
Mof_O 	O 	0.65811	0.4132	0.47531	-0.482
Mof_O 	O 	0.58711	0.3422	0.4754	-0.477
Mof_C 	C 	0.4332	0.5576	0.69736	-0.234
Mof_C 	C 	0.3892	0.5586	0.69655	0.112
Mof_H 	H 	0.3704	0.5485	0.6837	-0.002
Mof_C 	C 	0.372	0.5735	0.71355	-0.104
Mof_H 	H 	0.3421	0.5738	0.7122	0.073
Mof_C 	C 	0.3982	0.5881	0.73268	0.012
Mof_C 	C 	0.4406	0.5852	0.73437	-0.081
Mof_H 	H 	0.4585	0.5937	0.7475	0.05
Mof_C 	C 	0.4568	0.5699	0.71713	0.092
Mof_H 	H 	0.4856	0.5677	0.7188	-0.031
Mof_C 	C 	0.3793	0.6046	0.751	0.19
Mof_O 	O 	0.3431	0.6091	0.74777	-0.381
Mof_O 	O 	0.3999	0.6117	0.7688	-0.227
Mof_C 	C 	0.4406	0.5665	0.69696	-0.241
Mof_C 	C 	0.4394	0.6104	0.69593	0.087
Mof_H 	H 	0.4487	0.6287	0.683	0.006
Mof_C 	C 	0.4251	0.6279	0.7131	-0.082
Mof_H 	H 	0.4242	0.6575	0.7118	0.066
Mof_C 	C 	0.4121	0.6018	0.73242	-0.003
Mof_C 	C 	0.4158	0.5601	0.73418	-0.059
Mof_H 	H 	0.4095	0.5436	0.7476	0.043
Mof_C 	C 	0.4286	0.5419	0.71654	0.094
Mof_H 	H 	0.4292	0.5121	0.7179	-0.029
Mof_C 	C 	0.3937	0.6196	0.7505	0.204
Mof_O 	O 	0.3894	0.656	0.74712	-0.386
Mof_O 	O 	0.3865	0.599	0.7685	-0.209
Mof_Co	Co	0.15469	0.84545	0.97044	1.14
Mof_Co	Co	0.18638	0.81377	0.93209	1.139
Mof_Zn	Zn	0.26588	0.63291	0.7894	1.22
Mof_B 	B 	0.12197	0.87953	0.00983	1.432
Mof_O 	O 	0.15437	0.92293	0.99808	-0.543
Mof_N 	N 	0.17507	0.91693	0.97988	-0.153
Mof_C 	C 	0.20737	0.95833	0.97237	0.091
Mof_H 	H 	0.21227	0.98693	0.97963	0.036
Mof_C 	C 	0.23737	0.96513	0.95363	-0.2
Mof_C 	C 	0.23247	0.92593	0.94056	0.295
Mof_C 	C 	0.26317	0.93863	0.92193	-0.206
Mof_C 	C 	0.29917	0.98783	0.91818	0.157
Mof_H 	H 	0.31927	0.99563	0.90583	-0.047
Mof_C 	C 	0.30617	0.02513	0.932	-0.313
Mof_C 	C 	0.27497	0.01283	0.94932	0.152
Mof_H 	H 	0.27927	0.03823	0.95883	-0.033
Mof_C 	C 	0.25947	0.90283	0.90673	0.102
Mof_H 	H 	0.27817	0.91543	0.89393	0.022
Mof_N 	N 	0.23437	0.85683	0.90813	-0.161
Mof_O 	O 	0.24187	0.83403	0.89087	-0.551
Mof_B 	B 	0.21847	0.78053	0.89212	1.605
Mof_O 	O 	0.14857	0.85393	0.01794	-0.517
Mof_N 	N 	0.16617	0.83623	0.00252	-0.161
Mof_C 	C 	0.18777	0.81523	0.01093	0.072
Mof_H 	H 	0.18977	0.81643	0.02613	0.002
Mof_C 	C 	0.20947	0.78993	0.00039	-0.182
Mof_C 	C 	0.21117	0.78783	0.97748	0.257
Mof_C 	C 	0.23137	0.76023	0.96825	-0.176
Mof_C 	C 	0.24417	0.73253	0.98199	0.106
Mof_H 	H 	0.25627	0.71313	0.97573	-0.024
Mof_C 	C 	0.24007	0.73223	0.00414	-0.251
Mof_C 	C 	0.22277	0.76173	0.01312	0.106
Mof_H 	H 	0.21997	0.76253	0.02823	-0.044
Mof_C 	C 	0.23747	0.75723	0.94536	0.082
Mof_H 	H 	0.25237	0.73883	0.94103	0.029
Mof_N 	N 	0.22517	0.77623	0.93043	-0.16
Mof_O 	O 	0.23587	0.76403	0.91063	-0.542
Mof_O 	O 	0.07687	0.84503	0.99791	-0.51
Mof_N 	N 	0.08297	0.82443	0.98028	-0.15
Mof_C 	C 	0.04177	0.79143	0.97274	0.085
Mof_H 	H 	0.01327	0.78563	0.98043	0.037
Mof_C 	C 	0.03427	0.76223	0.95379	-0.196
Mof_C 	C 	0.07377	0.76793	0.94032	0.285
Mof_C 	C 	0.06117	0.73563	0.9224	-0.21
Mof_C 	C 	0.01267	0.70023	0.91905	0.162
Mof_H 	H 	0.00547	0.67883	0.90713	-0.048
Mof_C 	C 	0.97367	0.69393	0.93187	-0.326
Mof_C 	C 	0.98607	0.72573	0.9491	0.158
Mof_H 	H 	0.96047	0.72263	0.95823	-0.034
Mof_C 	C 	0.09697	0.73733	0.90723	0.105
Mof_H 	H 	0.08467	0.71583	0.89523	0.021
Mof_N 	N 	0.14287	0.76443	0.90844	-0.163
Mof_O 	O 	0.16487	0.75583	0.8911	-0.552
Mof_C 	C 	0.23587	0.76493	0.87103	-0.716
Mof_C 	C 	0.28007	0.79503	0.86117	0.409
Mof_H 	H 	0.30057	0.82703	0.86683	-0.102
Mof_C 	C 	0.29587	0.78043	0.84337	-0.3
Mof_H 	H 	0.32697	0.80183	0.83723	0.139
Mof_C 	C 	0.26607	0.73443	0.83463	0.118
Mof_C 	C 	0.22097	0.70423	0.84369	-0.292
Mof_H 	H 	0.19997	0.67283	0.83763	0.135
Mof_C 	C 	0.20607	0.71923	0.86164	0.39
Mof_H 	H 	0.17477	0.69783	0.86773	-0.098
Mof_O 	O 	0.20037	0.88183	0.94422	-0.528
Mof_C 	C 	0.34757	0.07793	0.92793	0.682
Mof_C 	C 	0.36177	0.11203	0.94693	-0.982
Mof_H 	H 	0.33237	0.11053	0.95303	0.315
Mof_H 	H 	0.38467	0.14563	0.94223	0.282
Mof_H 	H 	0.37747	0.10203	0.95783	0.296
Mof_C 	C 	0.39307	0.08083	0.91893	-0.952
Mof_H 	H 	0.38447	0.05893	0.90653	0.284
Mof_H 	H 	0.40867	0.07103	0.92993	0.278
Mof_H 	H 	0.41587	0.11463	0.91443	0.268
Mof_C 	C 	0.32607	0.09493	0.90963	-0.886
Mof_H 	H 	0.29597	0.09373	0.91463	0.271
Mof_H 	H 	0.31867	0.07313	0.89723	0.269
Mof_H 	H 	0.35017	0.12853	0.90543	0.249
Mof_O 	O 	0.19217	0.80733	0.96522	-0.521
Mof_C 	C 	0.25277	0.70043	0.01863	0.575
Mof_C 	C 	0.21167	0.66973	0.03373	-0.865
Mof_H 	H 	0.20287	0.69093	0.04183	0.249
Mof_H 	H 	0.22207	0.65263	0.04363	0.244
Mof_H 	H 	0.18307	0.64573	0.02553	0.252
Mof_C 	C 	0.29797	0.73903	0.03183	-0.793
Mof_H 	H 	0.32497	0.75923	0.02203	0.23
Mof_H 	H 	0.30827	0.72203	0.04183	0.217
Mof_H 	H 	0.28877	0.76003	0.03983	0.229
Mof_C 	C 	0.26767	0.66873	0.00553	-0.845
Mof_H 	H 	0.29457	0.68963	0.99583	0.252
Mof_H 	H 	0.23957	0.64463	0.99713	0.251
Mof_H 	H 	0.27847	0.65153	0.01533	0.235
Mof_O 	O 	0.11837	0.80033	0.94439	-0.523
Mof_C 	C 	0.92097	0.65453	0.92653	0.705
Mof_C 	C 	0.88497	0.63953	0.94433	-1.026
Mof_H 	H 	0.88847	0.66873	0.95153	0.331
Mof_H 	H 	0.89087	0.61953	0.95463	0.308
Mof_H 	H 	0.85167	0.62033	0.93853	0.296
Mof_C 	C 	0.90327	0.67723	0.90913	-0.885
Mof_H 	H 	0.92597	0.68783	0.89693	0.269
Mof_H 	H 	0.90227	0.70553	0.91503	0.271
Mof_H 	H 	0.87037	0.65263	0.90423	0.248
Mof_C 	C 	0.91547	0.60923	0.91543	-0.954
Mof_H 	H 	0.93927	0.61913	0.90373	0.287
Mof_H 	H 	0.88217	0.59003	0.90963	0.27
Mof_H 	H 	0.92137	0.58933	0.92573	0.279
Mof_C 	C 	0.28357	0.71733	0.81576	0.323
Mof_O 	O 	0.32478	0.74653	0.80864	-0.482
Mof_O 	O 	0.25378	0.67553	0.80873	-0.477
Mof_C 	C 	0.09987	0.89093	0.03069	-0.234
Mof_C 	C 	0.05587	0.89193	0.02988	0.112
Mof_H 	H 	0.03707	0.88183	0.01703	-0.003
Mof_C 	C 	0.03867	0.90683	0.04688	-0.104
Mof_H 	H 	0.00877	0.90713	0.04553	0.072
Mof_C 	C 	0.06487	0.92143	0.06601	0.012
Mof_C 	C 	0.10727	0.91853	0.0677	-0.081
Mof_H 	H 	0.12517	0.92703	0.08083	0.05
Mof_C 	C 	0.12347	0.90323	0.05046	0.093
Mof_H 	H 	0.15227	0.90103	0.05213	-0.031
Mof_C 	C 	0.04597	0.93793	0.08433	0.191
Mof_O 	O 	0.00977	0.94243	0.0811	-0.382
Mof_O 	O 	0.06657	0.94503	0.10213	-0.228
Mof_C 	C 	0.10727	0.89983	0.03029	-0.241
Mof_C 	C 	0.10607	0.94373	0.02926	0.087
Mof_H 	H 	0.11537	0.96203	0.01633	0.006
Mof_C 	C 	0.09177	0.96123	0.04643	-0.082
Mof_H 	H 	0.09087	0.99083	0.04513	0.066
Mof_C 	C 	0.07877	0.93513	0.06575	-0.003
Mof_C 	C 	0.08247	0.89343	0.06751	-0.06
Mof_H 	H 	0.07617	0.87693	0.08093	0.043
Mof_C 	C 	0.09527	0.87523	0.04987	0.093
Mof_H 	H 	0.09587	0.84543	0.05123	-0.029
Mof_C 	C 	0.06037	0.95293	0.08383	0.203
Mof_O 	O 	0.05607	0.98933	0.08045	-0.385
Mof_O 	O 	0.05317	0.93233	0.10183	-0.209
Mof_Co	Co	0.82135	0.17879	0.30378	1.14
Mof_Co	Co	0.85304	0.14711	0.26543	1.138
Mof_Zn	Zn	0.93254	0.96625	0.12274	1.22
Mof_B 	B 	0.78863	0.21287	0.34317	1.432
Mof_O 	O 	0.82103	0.25627	0.33142	-0.543
Mof_N 	N 	0.84173	0.25027	0.31322	-0.153
Mof_C 	C 	0.87403	0.29167	0.30571	0.091
Mof_H 	H 	0.87893	0.32027	0.31297	0.035
Mof_C 	C 	0.90403	0.29847	0.28697	-0.201
Mof_C 	C 	0.89913	0.25927	0.2739	0.294
Mof_C 	C 	0.92983	0.27197	0.25527	-0.203
Mof_C 	C 	0.96583	0.32117	0.25152	0.15
Mof_H 	H 	0.98593	0.32897	0.23917	-0.044
Mof_C 	C 	0.97283	0.35847	0.26534	-0.303
Mof_C 	C 	0.94163	0.34617	0.28266	0.15
Mof_H 	H 	0.94593	0.37157	0.29217	-0.032
Mof_C 	C 	0.92613	0.23617	0.24007	0.101
Mof_H 	H 	0.94483	0.24877	0.22727	0.023
Mof_N 	N 	0.90103	0.19017	0.24147	-0.161
Mof_O 	O 	0.90853	0.16737	0.22421	-0.551
Mof_B 	B 	0.88513	0.11387	0.22546	1.605
Mof_O 	O 	0.81523	0.18727	0.35128	-0.517
Mof_N 	N 	0.83283	0.16957	0.33586	-0.161
Mof_C 	C 	0.85443	0.14857	0.34427	0.072
Mof_H 	H 	0.85643	0.14977	0.35947	0.002
Mof_C 	C 	0.87613	0.12327	0.33373	-0.182
Mof_C 	C 	0.87783	0.12117	0.31082	0.257
Mof_C 	C 	0.89803	0.09357	0.30159	-0.176
Mof_C 	C 	0.91083	0.06587	0.31533	0.106
Mof_H 	H 	0.92293	0.04647	0.30907	-0.023
Mof_C 	C 	0.90673	0.06557	0.33748	-0.252
Mof_C 	C 	0.88943	0.09507	0.34646	0.106
Mof_H 	H 	0.88663	0.09587	0.36157	-0.044
Mof_C 	C 	0.90413	0.09057	0.2787	0.082
Mof_H 	H 	0.91903	0.07217	0.27437	0.029
Mof_N 	N 	0.89183	0.10957	0.26377	-0.16
Mof_O 	O 	0.90253	0.09737	0.24397	-0.542
Mof_O 	O 	0.74353	0.17837	0.33125	-0.51
Mof_N 	N 	0.74963	0.15777	0.31362	-0.15
Mof_C 	C 	0.70843	0.12477	0.30608	0.084
Mof_H 	H 	0.67993	0.11897	0.31377	0.037
Mof_C 	C 	0.70093	0.09557	0.28713	-0.195
Mof_C 	C 	0.74043	0.10127	0.27366	0.284
Mof_C 	C 	0.72783	0.06897	0.25574	-0.209
Mof_C 	C 	0.67933	0.03357	0.25239	0.163
Mof_H 	H 	0.67213	0.01217	0.24047	-0.048
Mof_C 	C 	0.64033	0.02727	0.26521	-0.325
Mof_C 	C 	0.65273	0.05907	0.28244	0.156
Mof_H 	H 	0.62713	0.05597	0.29157	-0.034
Mof_C 	C 	0.76363	0.07067	0.24057	0.105
Mof_H 	H 	0.75133	0.04917	0.22857	0.021
Mof_N 	N 	0.80953	0.09777	0.24178	-0.163
Mof_O 	O 	0.83153	0.08917	0.22444	-0.552
Mof_C 	C 	0.90253	0.09827	0.20437	-0.716
Mof_C 	C 	0.94673	0.12837	0.19451	0.409
Mof_H 	H 	0.96723	0.16037	0.20017	-0.102
Mof_C 	C 	0.96253	0.11377	0.17671	-0.3
Mof_H 	H 	0.99363	0.13517	0.17057	0.139
Mof_C 	C 	0.93273	0.06777	0.16797	0.118
Mof_C 	C 	0.88763	0.03757	0.17703	-0.292
Mof_H 	H 	0.86663	0.00617	0.17097	0.136
Mof_C 	C 	0.87273	0.05257	0.19498	0.39
Mof_H 	H 	0.84143	0.03117	0.20107	-0.098
Mof_O 	O 	0.86703	0.21517	0.27756	-0.528
Mof_C 	C 	0.01423	0.41127	0.26127	0.669
Mof_C 	C 	0.02843	0.44537	0.28027	-0.98
Mof_H 	H 	0.99903	0.44387	0.28637	0.317
Mof_H 	H 	0.05133	0.47897	0.27557	0.282
Mof_H 	H 	0.04413	0.43537	0.29117	0.295
Mof_C 	C 	0.05973	0.41417	0.25227	-0.941
Mof_H 	H 	0.05113	0.39227	0.23987	0.281
Mof_H 	H 	0.07533	0.40437	0.26327	0.275
Mof_H 	H 	0.08253	0.44797	0.24777	0.265
Mof_C 	C 	0.99273	0.42827	0.24297	-0.865
Mof_H 	H 	0.96263	0.42707	0.24797	0.266
Mof_H 	H 	0.98533	0.40647	0.23057	0.264
Mof_H 	H 	0.01683	0.46187	0.23877	0.242
Mof_O 	O 	0.85883	0.14067	0.29856	-0.521
Mof_C 	C 	0.91943	0.03377	0.35197	0.577
Mof_C 	C 	0.87833	0.00307	0.36707	-0.867
Mof_H 	H 	0.86953	0.02427	0.37517	0.25
Mof_H 	H 	0.88873	0.98597	0.37697	0.245
Mof_H 	H 	0.84973	0.97907	0.35887	0.253
Mof_C 	C 	0.96463	0.07237	0.36517	-0.795
Mof_H 	H 	0.99163	0.09257	0.35537	0.232
Mof_H 	H 	0.97493	0.05537	0.37517	0.219
Mof_H 	H 	0.95543	0.09337	0.37317	0.23
Mof_C 	C 	0.93433	0.00207	0.33887	-0.847
Mof_H 	H 	0.96123	0.02297	0.32917	0.253
Mof_H 	H 	0.90623	0.97797	0.33047	0.252
Mof_H 	H 	0.94513	0.98487	0.34867	0.236
Mof_O 	O 	0.78503	0.13367	0.27773	-0.523
Mof_C 	C 	0.58763	0.98787	0.25987	0.703
Mof_C 	C 	0.55163	0.97287	0.27767	-1.026
Mof_H 	H 	0.55513	0.00207	0.28487	0.331
Mof_H 	H 	0.55753	0.95287	0.28797	0.307
Mof_H 	H 	0.51833	0.95367	0.27187	0.296
Mof_C 	C 	0.56993	0.01057	0.24247	-0.883
Mof_H 	H 	0.59263	0.02117	0.23027	0.269
Mof_H 	H 	0.56893	0.03887	0.24837	0.271
Mof_H 	H 	0.53703	0.98597	0.23757	0.247
Mof_C 	C 	0.58213	0.94257	0.24877	-0.953
Mof_H 	H 	0.60593	0.95247	0.23707	0.286
Mof_H 	H 	0.54883	0.92337	0.24297	0.269
Mof_H 	H 	0.58803	0.92267	0.25907	0.278
Mof_C 	C 	0.95023	0.05067	0.1491	0.323
Mof_O 	O 	0.99144	0.07987	0.14198	-0.481
Mof_O 	O 	0.92044	0.00887	0.14207	-0.477
Mof_C 	C 	0.76653	0.22427	0.36403	-0.234
Mof_C 	C 	0.72253	0.22527	0.36322	0.112
Mof_H 	H 	0.70373	0.21517	0.35037	-0.002
Mof_C 	C 	0.70533	0.24017	0.38022	-0.104
Mof_H 	H 	0.67543	0.24047	0.37887	0.073
Mof_C 	C 	0.73153	0.25477	0.39935	0.012
Mof_C 	C 	0.77393	0.25187	0.40104	-0.081
Mof_H 	H 	0.79183	0.26037	0.41417	0.05
Mof_C 	C 	0.79013	0.23657	0.3838	0.092
Mof_H 	H 	0.81893	0.23437	0.38547	-0.031
Mof_C 	C 	0.71263	0.27127	0.41767	0.191
Mof_O 	O 	0.67643	0.27577	0.41444	-0.381
Mof_O 	O 	0.73323	0.27837	0.43547	-0.227
Mof_C 	C 	0.77393	0.23317	0.36363	-0.241
Mof_C 	C 	0.77273	0.27707	0.3626	0.087
Mof_H 	H 	0.78203	0.29537	0.34967	0.006
Mof_C 	C 	0.75843	0.29457	0.37977	-0.082
Mof_H 	H 	0.75753	0.32417	0.37847	0.066
Mof_C 	C 	0.74543	0.26847	0.39909	-0.003
Mof_C 	C 	0.74913	0.22677	0.40085	-0.059
Mof_H 	H 	0.74283	0.21027	0.41427	0.043
Mof_C 	C 	0.76193	0.20857	0.38321	0.094
Mof_H 	H 	0.76253	0.17877	0.38457	-0.029
Mof_C 	C 	0.72703	0.28627	0.41717	0.204
Mof_O 	O 	0.72273	0.32267	0.41379	-0.386
Mof_O 	O 	0.71983	0.26567	0.43517	-0.209
Mof_Co	Co	0.48788	0.9759	0.63711	1.141
Mof_Co	Co	0.51956	0.03927	0.59876	1.138
Mof_Zn	Zn	0.70042	0.29963	0.45607	1.22
Mof_B 	B 	0.4538	0.9091	0.6765	1.432
Mof_O 	O 	0.4104	0.8981	0.66475	-0.543
Mof_N 	N 	0.4164	0.9248	0.64655	-0.153
Mof_C 	C 	0.375	0.9157	0.63904	0.092
Mof_H 	H 	0.3464	0.892	0.6463	0.035
Mof_C 	C 	0.3682	0.9389	0.6203	-0.201
Mof_C 	C 	0.4074	0.9732	0.60723	0.294
Mof_C 	C 	0.3947	0.9912	0.5886	-0.202
Mof_C 	C 	0.3455	0.978	0.58485	0.152
Mof_H 	H 	0.3377	0.9903	0.5725	-0.045
Mof_C 	C 	0.3082	0.9477	0.59867	-0.308
Mof_C 	C 	0.3205	0.9288	0.61599	0.153
Mof_H 	H 	0.2951	0.9077	0.6255	-0.033
Mof_C 	C 	0.4305	0.0233	0.5734	0.097
Mof_H 	H 	0.4179	0.0294	0.5606	0.023
Mof_N 	N 	0.4765	0.0442	0.5748	-0.161
Mof_O 	O 	0.4993	0.0745	0.55754	-0.551
Mof_B 	B 	0.5528	0.1046	0.55879	1.604
Mof_O 	O 	0.4794	0.9613	0.68461	-0.517
Mof_N 	N 	0.4971	0.9966	0.66919	-0.159
Mof_C 	C 	0.5181	0.0392	0.6776	0.068
Mof_H 	H 	0.5169	0.04	0.6928	0.003
Mof_C 	C 	0.5434	0.0862	0.66706	-0.181
Mof_C 	C 	0.5455	0.09	0.64415	0.256
Mof_C 	C 	0.5731	0.1378	0.63492	-0.176
Mof_C 	C 	0.6008	0.1783	0.64866	0.106
Mof_H 	H 	0.6202	0.2098	0.6424	-0.023
Mof_C 	C 	0.6011	0.1745	0.67081	-0.251
Mof_C 	C 	0.5716	0.1277	0.67979	0.105
Mof_H 	H 	0.5708	0.1241	0.6949	-0.043
Mof_C 	C 	0.5761	0.1469	0.61203	0.082
Mof_H 	H 	0.5945	0.1802	0.6077	0.029
Mof_N 	N 	0.5571	0.1156	0.5971	-0.16
Mof_O 	O 	0.5693	0.1385	0.5773	-0.543
Mof_O 	O 	0.4883	0.8985	0.66458	-0.51
Mof_N 	N 	0.5089	0.9252	0.64695	-0.15
Mof_C 	C 	0.5419	0.917	0.63941	0.084
Mof_H 	H 	0.5477	0.8943	0.6471	0.038
Mof_C 	C 	0.5711	0.9387	0.62046	-0.194
Mof_C 	C 	0.5654	0.9725	0.60699	0.283
Mof_C 	C 	0.5977	0.9922	0.58907	-0.206
Mof_C 	C 	0.6331	0.9791	0.58572	0.161
Mof_H 	H 	0.6545	0.9933	0.5738	-0.047
Mof_C 	C 	0.6394	0.9464	0.59854	-0.325
Mof_C 	C 	0.6076	0.927	0.61577	0.156
Mof_H 	H 	0.6107	0.9045	0.6249	-0.034
Mof_C 	C 	0.596	0.0263	0.5739	0.101
Mof_H 	H 	0.6175	0.0355	0.5619	0.022
Mof_N 	N 	0.5689	0.0451	0.57511	-0.163
Mof_O 	O 	0.5775	0.0757	0.55777	-0.552
Mof_C 	C 	0.5684	0.1376	0.5377	-0.716
Mof_C 	C 	0.5383	0.1517	0.52784	0.409
Mof_H 	H 	0.5063	0.1402	0.5335	-0.103
Mof_C 	C 	0.5529	0.1821	0.51004	-0.301
Mof_H 	H 	0.5315	0.1918	0.5039	0.139
Mof_C 	C 	0.5989	0.1983	0.5013	0.118
Mof_C 	C 	0.6291	0.1834	0.51036	-0.292
Mof_H 	H 	0.6605	0.1938	0.5043	0.135
Mof_C 	C 	0.6141	0.1535	0.52831	0.39
Mof_H 	H 	0.6355	0.1436	0.5344	-0.098
Mof_O 	O 	0.4515	0.9852	0.61089	-0.527
Mof_C 	C 	0.2554	0.9363	0.5946	0.678
Mof_C 	C 	0.2213	0.9164	0.6136	-0.979
Mof_H 	H 	0.2228	0.8885	0.6197	0.315
Mof_H 	H 	0.1877	0.9057	0.6089	0.282
Mof_H 	H 	0.2313	0.9421	0.6245	0.296
Mof_C 	C 	0.2525	0.9789	0.5856	-0.942
Mof_H 	H 	0.2744	0.9922	0.5732	0.283
Mof_H 	H 	0.2623	0.0043	0.5966	0.274
Mof_H 	H 	0.2187	0.9679	0.5811	0.266
Mof_C 	C 	0.2384	0.8978	0.5763	-0.884
Mof_H 	H 	0.2396	0.8689	0.5813	0.271
Mof_H 	H 	0.2602	0.9122	0.5639	0.269
Mof_H 	H 	0.2048	0.8883	0.5721	0.249
Mof_O 	O 	0.526	0.0515	0.63189	-0.522
Mof_C 	C 	0.6329	0.219	0.6853	0.575
Mof_C 	C 	0.6636	0.2086	0.7004	-0.864
Mof_H 	H 	0.6424	0.1786	0.7085	0.249
Mof_H 	H 	0.6807	0.2361	0.7103	0.244
Mof_H 	H 	0.6876	0.204	0.6922	0.252
Mof_C 	C 	0.5943	0.2256	0.6985	-0.792
Mof_H 	H 	0.5741	0.2324	0.6887	0.23
Mof_H 	H 	0.6113	0.2529	0.7085	0.217
Mof_H 	H 	0.5733	0.1954	0.7065	0.229
Mof_C 	C 	0.6646	0.2656	0.6722	-0.845
Mof_H 	H 	0.6437	0.2716	0.6625	0.251
Mof_H 	H 	0.6887	0.2616	0.6638	0.251
Mof_H 	H 	0.6818	0.2936	0.682	0.235
Mof_O 	O 	0.533	0.9847	0.61106	-0.522
Mof_C 	C 	0.6788	0.9331	0.5932	0.705
Mof_C 	C 	0.6938	0.9121	0.611	-1.027
Mof_H 	H 	0.6646	0.8864	0.6182	0.331
Mof_H 	H 	0.7138	0.938	0.6213	0.308
Mof_H 	H 	0.713	0.898	0.6052	0.296
Mof_C 	C 	0.6561	0.8927	0.5758	-0.885
Mof_H 	H 	0.6455	0.9048	0.5636	0.27
Mof_H 	H 	0.6278	0.8634	0.5817	0.271
Mof_H 	H 	0.6807	0.8844	0.5709	0.248
Mof_C 	C 	0.7241	0.9729	0.5821	-0.955
Mof_H 	H 	0.7142	0.9868	0.5704	0.287
Mof_H 	H 	0.7433	0.9588	0.5763	0.27
Mof_H 	H 	0.744	0.9987	0.5924	0.279
Mof_C 	C 	0.616	0.2329	0.48243	0.323
Mof_O 	O 	0.5868	0.24491	0.47531	-0.482
Mof_O 	O 	0.6578	0.24491	0.4754	-0.477
Mof_C 	C 	0.4424	0.8756	0.69736	-0.234
Mof_C 	C 	0.4414	0.8306	0.69655	0.112
Mof_H 	H 	0.4515	0.8219	0.6837	-0.002
Mof_C 	C 	0.4265	0.7985	0.71355	-0.104
Mof_H 	H 	0.4262	0.7683	0.7122	0.073
Mof_C 	C 	0.4119	0.8101	0.73268	0.012
Mof_C 	C 	0.4148	0.8554	0.73437	-0.081
Mof_H 	H 	0.4063	0.8648	0.7475	0.05
Mof_C 	C 	0.4301	0.8869	0.71713	0.092
Mof_H 	H 	0.4323	0.9179	0.7188	-0.03
Mof_C 	C 	0.3954	0.7747	0.751	0.19
Mof_O 	O 	0.3909	0.734	0.74777	-0.381
Mof_O 	O 	0.3883	0.7882	0.7688	-0.227
Mof_C 	C 	0.4335	0.8741	0.69696	-0.241
Mof_C 	C 	0.3896	0.829	0.69593	0.087
Mof_H 	H 	0.3713	0.82	0.683	0.006
Mof_C 	C 	0.3721	0.7972	0.7131	-0.082
Mof_H 	H 	0.3425	0.7667	0.7118	0.066
Mof_C 	C 	0.3982	0.8103	0.73242	-0.003
Mof_C 	C 	0.4399	0.8557	0.73418	-0.059
Mof_H 	H 	0.4564	0.8659	0.7476	0.044
Mof_C 	C 	0.4581	0.8867	0.71654	0.094
Mof_H 	H 	0.4879	0.9171	0.7179	-0.029
Mof_C 	C 	0.3804	0.7741	0.7505	0.204
Mof_O 	O 	0.344	0.7334	0.74712	-0.386
Mof_O 	O 	0.401	0.7875	0.7685	-0.209
Mof_Co	Co	0.15455	0.30923	0.97044	1.14
Mof_Co	Co	0.18623	0.3726	0.93209	1.138
Mof_Zn	Zn	0.36709	0.63296	0.7894	1.22
Mof_B 	B 	0.12047	0.24243	0.00983	1.432
Mof_O 	O 	0.07707	0.23143	0.99808	-0.543
Mof_N 	N 	0.08307	0.25813	0.97988	-0.153
Mof_C 	C 	0.04167	0.24903	0.97237	0.092
Mof_H 	H 	0.01307	0.22533	0.97963	0.034
Mof_C 	C 	0.03487	0.27223	0.95363	-0.205
Mof_C 	C 	0.07407	0.30653	0.94056	0.296
Mof_C 	C 	0.06137	0.32453	0.92193	-0.206
Mof_C 	C 	0.01217	0.31133	0.91818	0.153
Mof_H 	H 	0.00437	0.32363	0.90583	-0.047
Mof_C 	C 	0.97487	0.28103	0.932	-0.311
Mof_C 	C 	0.98717	0.26213	0.94932	0.156
Mof_H 	H 	0.96177	0.24103	0.95883	-0.034
Mof_C 	C 	0.09717	0.35663	0.90673	0.102
Mof_H 	H 	0.08457	0.36273	0.89393	0.022
Mof_N 	N 	0.14317	0.37753	0.90813	-0.161
Mof_O 	O 	0.16597	0.40783	0.89087	-0.551
Mof_B 	B 	0.21947	0.43793	0.89212	1.605
Mof_O 	O 	0.14607	0.29463	0.01794	-0.517
Mof_N 	N 	0.16377	0.32993	0.00252	-0.161
Mof_C 	C 	0.18477	0.37253	0.01093	0.072
Mof_H 	H 	0.18357	0.37333	0.02613	0.002
Mof_C 	C 	0.21007	0.41953	0.00039	-0.182
Mof_C 	C 	0.21217	0.42333	0.97748	0.257
Mof_C 	C 	0.23977	0.47113	0.96825	-0.176
Mof_C 	C 	0.26747	0.51163	0.98199	0.106
Mof_H 	H 	0.28687	0.54313	0.97573	-0.024
Mof_C 	C 	0.26777	0.50783	0.00414	-0.252
Mof_C 	C 	0.23827	0.46103	0.01312	0.106
Mof_H 	H 	0.23747	0.45743	0.02823	-0.044
Mof_C 	C 	0.24277	0.48023	0.94536	0.082
Mof_H 	H 	0.26117	0.51353	0.94103	0.029
Mof_N 	N 	0.22377	0.44893	0.93043	-0.16
Mof_O 	O 	0.23597	0.47183	0.91063	-0.543
Mof_O 	O 	0.15497	0.23183	0.99791	-0.51
Mof_N 	N 	0.17557	0.25853	0.98028	-0.15
Mof_C 	C 	0.20857	0.25033	0.97274	0.084
Mof_H 	H 	0.21437	0.22763	0.98043	0.037
Mof_C 	C 	0.23777	0.27203	0.95379	-0.195
Mof_C 	C 	0.23207	0.30583	0.94032	0.284
Mof_C 	C 	0.26437	0.32553	0.9224	-0.21
Mof_C 	C 	0.29977	0.31243	0.91905	0.163
Mof_H 	H 	0.32117	0.32663	0.90713	-0.048
Mof_C 	C 	0.30607	0.27973	0.93187	-0.326
Mof_C 	C 	0.27427	0.26033	0.9491	0.157
Mof_H 	H 	0.27737	0.23783	0.95823	-0.034
Mof_C 	C 	0.26267	0.35963	0.90723	0.105
Mof_H 	H 	0.28417	0.36883	0.89523	0.021
Mof_N 	N 	0.23557	0.37843	0.90844	-0.163
Mof_O 	O 	0.24417	0.40903	0.8911	-0.552
Mof_C 	C 	0.23507	0.47093	0.87103	-0.716
Mof_C 	C 	0.20497	0.48503	0.86117	0.409
Mof_H 	H 	0.17297	0.47353	0.86683	-0.103
Mof_C 	C 	0.21957	0.51543	0.84337	-0.301
Mof_H 	H 	0.19817	0.52513	0.83723	0.139
Mof_C 	C 	0.26557	0.53163	0.83463	0.118
Mof_C 	C 	0.29577	0.51673	0.84369	-0.292
Mof_H 	H 	0.32717	0.52713	0.83763	0.135
Mof_C 	C 	0.28077	0.48683	0.86164	0.39
Mof_H 	H 	0.30217	0.47693	0.86773	-0.098
Mof_O 	O 	0.11817	0.31853	0.94422	-0.529
Mof_C 	C 	0.92207	0.26963	0.92793	0.683
Mof_C 	C 	0.88797	0.24973	0.94693	-0.982
Mof_H 	H 	0.88947	0.22183	0.95303	0.316
Mof_H 	H 	0.85437	0.23903	0.94223	0.283
Mof_H 	H 	0.89797	0.27543	0.95783	0.296
Mof_C 	C 	0.91917	0.31223	0.91893	-0.953
Mof_H 	H 	0.94107	0.32553	0.90653	0.286
Mof_H 	H 	0.92897	0.33763	0.92993	0.279
Mof_H 	H 	0.88537	0.30123	0.91443	0.268
Mof_C 	C 	0.90507	0.23113	0.90963	-0.887
Mof_H 	H 	0.90627	0.20223	0.91463	0.272
Mof_H 	H 	0.92687	0.24553	0.89723	0.27
Mof_H 	H 	0.87147	0.22163	0.90543	0.25
Mof_O 	O 	0.19267	0.38483	0.96522	-0.521
Mof_C 	C 	0.29957	0.55233	0.01863	0.575
Mof_C 	C 	0.33027	0.54193	0.03373	-0.865
Mof_H 	H 	0.30907	0.51193	0.04183	0.249
Mof_H 	H 	0.34737	0.56943	0.04363	0.244
Mof_H 	H 	0.35427	0.53733	0.02553	0.252
Mof_C 	C 	0.26097	0.55893	0.03183	-0.792
Mof_H 	H 	0.24077	0.56573	0.02203	0.23
Mof_H 	H 	0.27797	0.58623	0.04183	0.217
Mof_H 	H 	0.23997	0.52873	0.03983	0.229
Mof_C 	C 	0.33127	0.59893	0.00553	-0.845
Mof_H 	H 	0.31037	0.60493	0.99583	0.252
Mof_H 	H 	0.35537	0.59493	0.99713	0.251
Mof_H 	H 	0.34847	0.62693	0.01533	0.235
Mof_O 	O 	0.19967	0.31803	0.94439	-0.523
Mof_C 	C 	0.34547	0.26643	0.92653	0.704
Mof_C 	C 	0.36047	0.24543	0.94433	-1.026
Mof_H 	H 	0.33127	0.21973	0.95153	0.33
Mof_H 	H 	0.38047	0.27133	0.95463	0.307
Mof_H 	H 	0.37967	0.23133	0.93853	0.296
Mof_C 	C 	0.32277	0.22603	0.90913	-0.885
Mof_H 	H 	0.31217	0.23813	0.89693	0.269
Mof_H 	H 	0.29447	0.19673	0.91503	0.271
Mof_H 	H 	0.34737	0.21773	0.90423	0.248
Mof_C 	C 	0.39077	0.30623	0.91543	-0.953
Mof_H 	H 	0.38087	0.32013	0.90373	0.286
Mof_H 	H 	0.40997	0.29213	0.90963	0.269
Mof_H 	H 	0.41067	0.33203	0.92573	0.278
Mof_C 	C 	0.28267	0.56623	0.81576	0.323
Mof_O 	O 	0.25347	0.57824	0.80864	-0.482
Mof_O 	O 	0.32447	0.57824	0.80873	-0.477
Mof_C 	C 	0.10907	0.20893	0.03069	-0.234
Mof_C 	C 	0.10807	0.16393	0.02988	0.112
Mof_H 	H 	0.11817	0.15523	0.01703	-0.002
Mof_C 	C 	0.09317	0.13183	0.04688	-0.103
Mof_H 	H 	0.09287	0.10163	0.04553	0.073
Mof_C 	C 	0.07857	0.14343	0.06601	0.011
Mof_C 	C 	0.08147	0.18873	0.0677	-0.081
Mof_H 	H 	0.07297	0.19813	0.08083	0.05
Mof_C 	C 	0.09677	0.22023	0.05046	0.091
Mof_H 	H 	0.09897	0.25123	0.05213	-0.031
Mof_C 	C 	0.06207	0.10803	0.08433	0.19
Mof_O 	O 	0.05757	0.06733	0.0811	-0.381
Mof_O 	O 	0.05497	0.12153	0.10213	-0.226
Mof_C 	C 	0.10017	0.20743	0.03029	-0.241
Mof_C 	C 	0.05627	0.16233	0.02926	0.087
Mof_H 	H 	0.03797	0.15333	0.01633	0.006
Mof_C 	C 	0.03877	0.13053	0.04643	-0.082
Mof_H 	H 	0.00917	0.10003	0.04513	0.065
Mof_C 	C 	0.06487	0.14363	0.06575	-0.003
Mof_C 	C 	0.10657	0.18903	0.06751	-0.059
Mof_H 	H 	0.12307	0.19923	0.08093	0.043
Mof_C 	C 	0.12477	0.22003	0.04987	0.094
Mof_H 	H 	0.15457	0.25043	0.05123	-0.029
Mof_C 	C 	0.04707	0.10743	0.08383	0.204
Mof_O 	O 	0.01067	0.06673	0.08045	-0.387
Mof_O 	O 	0.06767	0.12083	0.10183	-0.211
Mof_Co	Co	0.82121	0.64257	0.30378	1.14
Mof_Co	Co	0.85289	0.70594	0.26543	1.138
Mof_Zn	Zn	0.03375	0.9663	0.12274	1.219
Mof_B 	B 	0.78713	0.57577	0.34317	1.432
Mof_O 	O 	0.74373	0.56477	0.33142	-0.543
Mof_N 	N 	0.74973	0.59147	0.31322	-0.153
Mof_C 	C 	0.70833	0.58237	0.30571	0.092
Mof_H 	H 	0.67973	0.55867	0.31297	0.035
Mof_C 	C 	0.70153	0.60557	0.28697	-0.203
Mof_C 	C 	0.74073	0.63987	0.2739	0.296
Mof_C 	C 	0.72803	0.65787	0.25527	-0.206
Mof_C 	C 	0.67883	0.64467	0.25152	0.154
Mof_H 	H 	0.67103	0.65697	0.23917	-0.047
Mof_C 	C 	0.64153	0.61437	0.26534	-0.312
Mof_C 	C 	0.65383	0.59547	0.28266	0.155
Mof_H 	H 	0.62843	0.57437	0.29217	-0.034
Mof_C 	C 	0.76383	0.68997	0.24007	0.102
Mof_H 	H 	0.75123	0.69607	0.22727	0.022
Mof_N 	N 	0.80983	0.71087	0.24147	-0.161
Mof_O 	O 	0.83263	0.74117	0.22421	-0.551
Mof_B 	B 	0.88613	0.77127	0.22546	1.605
Mof_O 	O 	0.81273	0.62797	0.35128	-0.517
Mof_N 	N 	0.83043	0.66327	0.33586	-0.161
Mof_C 	C 	0.85143	0.70587	0.34427	0.071
Mof_H 	H 	0.85023	0.70667	0.35947	0.003
Mof_C 	C 	0.87673	0.75287	0.33373	-0.18
Mof_C 	C 	0.87883	0.75667	0.31082	0.255
Mof_C 	C 	0.90643	0.80447	0.30159	-0.174
Mof_C 	C 	0.93413	0.84497	0.31533	0.101
Mof_H 	H 	0.95353	0.87647	0.30907	-0.021
Mof_C 	C 	0.93443	0.84117	0.33748	-0.243
Mof_C 	C 	0.90493	0.79437	0.34646	0.101
Mof_H 	H 	0.90413	0.79077	0.36157	-0.041
Mof_C 	C 	0.90943	0.81357	0.2787	0.081
Mof_H 	H 	0.92783	0.84687	0.27437	0.029
Mof_N 	N 	0.89043	0.78227	0.26377	-0.16
Mof_O 	O 	0.90263	0.80517	0.24397	-0.542
Mof_O 	O 	0.82163	0.56517	0.33125	-0.51
Mof_N 	N 	0.84223	0.59187	0.31362	-0.15
Mof_C 	C 	0.87523	0.58367	0.30608	0.084
Mof_H 	H 	0.88103	0.56097	0.31377	0.038
Mof_C 	C 	0.90443	0.60537	0.28713	-0.192
Mof_C 	C 	0.89873	0.63917	0.27366	0.283
Mof_C 	C 	0.93103	0.65887	0.25574	-0.207
Mof_C 	C 	0.96643	0.64577	0.25239	0.159
Mof_H 	H 	0.98783	0.65997	0.24047	-0.046
Mof_C 	C 	0.97273	0.61307	0.26521	-0.318
Mof_C 	C 	0.94093	0.59367	0.28244	0.152
Mof_H 	H 	0.94403	0.57117	0.29157	-0.032
Mof_C 	C 	0.92933	0.69297	0.24057	0.104
Mof_H 	H 	0.95083	0.70217	0.22857	0.022
Mof_N 	N 	0.90223	0.71177	0.24178	-0.163
Mof_O 	O 	0.91083	0.74237	0.22444	-0.552
Mof_C 	C 	0.90173	0.80427	0.20437	-0.716
Mof_C 	C 	0.87163	0.81837	0.19451	0.409
Mof_H 	H 	0.83963	0.80687	0.20017	-0.103
Mof_C 	C 	0.88623	0.84877	0.17671	-0.301
Mof_H 	H 	0.86483	0.85847	0.17057	0.139
Mof_C 	C 	0.93223	0.86497	0.16797	0.118
Mof_C 	C 	0.96243	0.85007	0.17703	-0.292
Mof_H 	H 	0.99383	0.86047	0.17097	0.136
Mof_C 	C 	0.94743	0.82017	0.19498	0.39
Mof_H 	H 	0.96883	0.81027	0.20107	-0.098
Mof_O 	O 	0.78483	0.65187	0.27756	-0.529
Mof_C 	C 	0.58873	0.60297	0.26127	0.683
Mof_C 	C 	0.55463	0.58307	0.28027	-0.982
Mof_H 	H 	0.55613	0.55517	0.28637	0.316
Mof_H 	H 	0.52103	0.57237	0.27557	0.283
Mof_H 	H 	0.56463	0.60877	0.29117	0.296
Mof_C 	C 	0.58583	0.64557	0.25227	-0.953
Mof_H 	H 	0.60773	0.65887	0.23987	0.285
Mof_H 	H 	0.59563	0.67097	0.26327	0.279
Mof_H 	H 	0.55203	0.63457	0.24777	0.268
Mof_C 	C 	0.57173	0.56447	0.24297	-0.887
Mof_H 	H 	0.57293	0.53557	0.24797	0.272
Mof_H 	H 	0.59353	0.57887	0.23057	0.27
Mof_H 	H 	0.53813	0.55497	0.23877	0.25
Mof_O 	O 	0.85933	0.71817	0.29856	-0.521
Mof_C 	C 	0.96623	0.88567	0.35197	0.556
Mof_C 	C 	0.99693	0.87527	0.36707	-0.831
Mof_H 	H 	0.97573	0.84527	0.37517	0.24
Mof_H 	H 	0.01403	0.90277	0.37697	0.233
Mof_H 	H 	0.02093	0.87067	0.35887	0.241
Mof_C 	C 	0.92763	0.89227	0.36517	-0.777
Mof_H 	H 	0.90743	0.89907	0.35537	0.226
Mof_H 	H 	0.94463	0.91957	0.37517	0.214
Mof_H 	H 	0.90663	0.86207	0.37317	0.225
Mof_C 	C 	0.99793	0.93227	0.33887	-0.812
Mof_H 	H 	0.97703	0.93827	0.32917	0.243
Mof_H 	H 	0.02203	0.92827	0.33047	0.24
Mof_H 	H 	0.01513	0.96027	0.34867	0.224
Mof_O 	O 	0.86633	0.65137	0.27773	-0.523
Mof_C 	C 	0.01213	0.59977	0.25987	0.691
Mof_C 	C 	0.02713	0.57877	0.27767	-1.024
Mof_H 	H 	0.99793	0.55307	0.28487	0.332
Mof_H 	H 	0.04713	0.60467	0.28797	0.306
Mof_H 	H 	0.04633	0.56467	0.27187	0.295
Mof_C 	C 	0.98943	0.55937	0.24247	-0.863
Mof_H 	H 	0.97883	0.57147	0.23027	0.264
Mof_H 	H 	0.96113	0.53007	0.24837	0.266
Mof_H 	H 	0.01403	0.55107	0.23757	0.24
Mof_C 	C 	0.05743	0.63957	0.24877	-0.942
Mof_H 	H 	0.04753	0.65347	0.23707	0.282
Mof_H 	H 	0.07663	0.62547	0.24297	0.266
Mof_H 	H 	0.07733	0.66537	0.25907	0.275
Mof_C 	C 	0.94933	0.89957	0.1491	0.323
Mof_O 	O 	0.92013	0.91158	0.14198	-0.482
Mof_O 	O 	0.99113	0.91158	0.14207	-0.476
Mof_C 	C 	0.77573	0.54227	0.36403	-0.234
Mof_C 	C 	0.77473	0.49727	0.36322	0.112
Mof_H 	H 	0.78483	0.48857	0.35037	-0.002
Mof_C 	C 	0.75983	0.46517	0.38022	-0.104
Mof_H 	H 	0.75953	0.43497	0.37887	0.073
Mof_C 	C 	0.74523	0.47677	0.39935	0.012
Mof_C 	C 	0.74813	0.52207	0.40104	-0.081
Mof_H 	H 	0.73963	0.53147	0.41417	0.05
Mof_C 	C 	0.76343	0.55357	0.3838	0.092
Mof_H 	H 	0.76563	0.58457	0.38547	-0.031
Mof_C 	C 	0.72873	0.44137	0.41767	0.19
Mof_O 	O 	0.72423	0.40067	0.41444	-0.381
Mof_O 	O 	0.72163	0.45487	0.43547	-0.227
Mof_C 	C 	0.76683	0.54077	0.36363	-0.241
Mof_C 	C 	0.72293	0.49567	0.3626	0.087
Mof_H 	H 	0.70463	0.48667	0.34967	0.006
Mof_C 	C 	0.70543	0.46387	0.37977	-0.082
Mof_H 	H 	0.67583	0.43337	0.37847	0.066
Mof_C 	C 	0.73153	0.47697	0.39909	-0.003
Mof_C 	C 	0.77323	0.52237	0.40085	-0.059
Mof_H 	H 	0.78973	0.53257	0.41427	0.043
Mof_C 	C 	0.79143	0.55337	0.38321	0.094
Mof_H 	H 	0.82123	0.58377	0.38457	-0.029
Mof_C 	C 	0.71373	0.44077	0.41717	0.204
Mof_O 	O 	0.67733	0.40007	0.41379	-0.386
Mof_O 	O 	0.73433	0.45417	0.43517	-0.209
Mof_Co	Co	0.0241	0.51198	0.63711	1.14
Mof_Co	Co	0.96073	0.48029	0.59876	1.139
Mof_Zn	Zn	0.70037	0.40079	0.45607	1.22
Mof_B 	B 	0.0909	0.5447	0.6765	1.432
Mof_O 	O 	0.1019	0.5123	0.66475	-0.543
Mof_N 	N 	0.0752	0.4916	0.64655	-0.153
Mof_C 	C 	0.0843	0.4593	0.63904	0.092
Mof_H 	H 	0.108	0.4544	0.6463	0.035
Mof_C 	C 	0.0611	0.4293	0.6203	-0.203
Mof_C 	C 	0.0268	0.4342	0.60723	0.296
Mof_C 	C 	0.0088	0.4035	0.5886	-0.207
Mof_C 	C 	0.022	0.3675	0.58485	0.155
Mof_H 	H 	0.0097	0.3474	0.5725	-0.047
Mof_C 	C 	0.0523	0.3605	0.59867	-0.312
Mof_C 	C 	0.0712	0.3917	0.61599	0.155
Mof_H 	H 	0.0923	0.3874	0.6255	-0.034
Mof_C 	C 	0.9767	0.4072	0.5734	0.102
Mof_H 	H 	0.9706	0.3885	0.5606	0.022
Mof_N 	N 	0.9558	0.4323	0.5748	-0.161
Mof_O 	O 	0.9255	0.4248	0.55754	-0.551
Mof_B 	B 	0.8954	0.4482	0.55879	1.605
Mof_O 	O 	0.0387	0.5181	0.68461	-0.517
Mof_N 	N 	0.0034	0.5005	0.66919	-0.161
Mof_C 	C 	0.9608	0.4789	0.6776	0.072
Mof_H 	H 	0.96	0.4769	0.6928	0.002
Mof_C 	C 	0.9138	0.4572	0.66706	-0.182
Mof_C 	C 	0.91	0.4555	0.64415	0.257
Mof_C 	C 	0.8622	0.4353	0.63492	-0.176
Mof_C 	C 	0.8217	0.4225	0.64866	0.106
Mof_H 	H 	0.7902	0.4104	0.6424	-0.024
Mof_C 	C 	0.8255	0.4266	0.67081	-0.252
Mof_C 	C 	0.8723	0.4439	0.67979	0.106
Mof_H 	H 	0.8759	0.4467	0.6949	-0.044
Mof_C 	C 	0.8531	0.4292	0.61203	0.082
Mof_H 	H 	0.8198	0.4143	0.6077	0.029
Mof_N 	N 	0.8844	0.4415	0.5971	-0.16
Mof_O 	O 	0.8615	0.4308	0.5773	-0.543
Mof_O 	O 	0.1015	0.5898	0.66458	-0.51
Mof_N 	N 	0.0748	0.5837	0.64695	-0.15
Mof_C 	C 	0.083	0.6249	0.63941	0.085
Mof_H 	H 	0.1057	0.6534	0.6471	0.037
Mof_C 	C 	0.0613	0.6324	0.62046	-0.195
Mof_C 	C 	0.0275	0.5929	0.60699	0.285
Mof_C 	C 	0.0078	0.6055	0.58907	-0.21
Mof_C 	C 	0.0209	0.654	0.58572	0.163
Mof_H 	H 	0.0067	0.6612	0.5738	-0.049
Mof_C 	C 	0.0536	0.693	0.59854	-0.326
Mof_C 	C 	0.073	0.6806	0.61577	0.157
Mof_H 	H 	0.0955	0.7062	0.6249	-0.034
Mof_C 	C 	0.9737	0.5697	0.5739	0.105
Mof_H 	H 	0.9645	0.582	0.5619	0.021
Mof_N 	N 	0.9549	0.5238	0.57511	-0.163
Mof_O 	O 	0.9243	0.5018	0.55777	-0.552
Mof_C 	C 	0.8624	0.4308	0.5377	-0.716
Mof_C 	C 	0.8483	0.3866	0.52784	0.409
Mof_H 	H 	0.8598	0.3661	0.5335	-0.102
Mof_C 	C 	0.8179	0.3708	0.51004	-0.3
Mof_H 	H 	0.8082	0.3397	0.5039	0.139
Mof_C 	C 	0.8017	0.4006	0.5013	0.118
Mof_C 	C 	0.8166	0.4457	0.51036	-0.292
Mof_H 	H 	0.8062	0.4667	0.5043	0.136
Mof_C 	C 	0.8465	0.4606	0.52831	0.39
Mof_H 	H 	0.8564	0.4919	0.5344	-0.098
Mof_O 	O 	0.0148	0.4663	0.61089	-0.529
Mof_C 	C 	0.0637	0.3191	0.5946	0.683
Mof_C 	C 	0.0836	0.3049	0.6136	-0.982
Mof_H 	H 	0.1115	0.3343	0.6197	0.316
Mof_H 	H 	0.0943	0.282	0.6089	0.283
Mof_H 	H 	0.0579	0.2892	0.6245	0.296
Mof_C 	C 	0.0211	0.2736	0.5856	-0.954
Mof_H 	H 	0.0078	0.2822	0.5732	0.285
Mof_H 	H 	0.9957	0.258	0.5966	0.28
Mof_H 	H 	0.0321	0.2508	0.5811	0.268
Mof_C 	C 	0.1022	0.3406	0.5763	-0.887
Mof_H 	H 	0.1311	0.3707	0.5813	0.272
Mof_H 	H 	0.0878	0.348	0.5639	0.27
Mof_H 	H 	0.1117	0.3165	0.5721	0.25
Mof_O 	O 	0.9485	0.4745	0.63189	-0.521
Mof_C 	C 	0.781	0.4139	0.6853	0.575
Mof_C 	C 	0.7914	0.455	0.7004	-0.865
Mof_H 	H 	0.8214	0.4638	0.7085	0.249
Mof_H 	H 	0.7639	0.4446	0.7103	0.244
Mof_H 	H 	0.796	0.4836	0.6922	0.252
Mof_C 	C 	0.7744	0.3687	0.6985	-0.793
Mof_H 	H 	0.7676	0.3417	0.6887	0.23
Mof_H 	H 	0.7471	0.3584	0.7085	0.217
Mof_H 	H 	0.8046	0.3779	0.7065	0.229
Mof_C 	C 	0.7344	0.399	0.6722	-0.845
Mof_H 	H 	0.7284	0.3721	0.6625	0.252
Mof_H 	H 	0.7384	0.4271	0.6638	0.251
Mof_H 	H 	0.7064	0.3882	0.682	0.235
Mof_O 	O 	0.0153	0.5483	0.61106	-0.523
Mof_C 	C 	0.0669	0.7457	0.5932	0.705
Mof_C 	C 	0.0879	0.7817	0.611	-1.027
Mof_H 	H 	0.1136	0.7782	0.6182	0.331
Mof_H 	H 	0.062	0.7758	0.6213	0.308
Mof_H 	H 	0.102	0.815	0.6052	0.296
Mof_C 	C 	0.1073	0.7634	0.5758	-0.885
Mof_H 	H 	0.0952	0.7407	0.5636	0.269
Mof_H 	H 	0.1366	0.7644	0.5817	0.271
Mof_H 	H 	0.1156	0.7963	0.5709	0.248
Mof_C 	C 	0.0271	0.7512	0.5821	-0.954
Mof_H 	H 	0.0132	0.7274	0.5704	0.287
Mof_H 	H 	0.0412	0.7845	0.5763	0.27
Mof_H 	H 	0.0013	0.7453	0.5924	0.279
Mof_C 	C 	0.7671	0.3831	0.48243	0.323
Mof_O 	O 	0.75509	0.34189	0.47531	-0.482
Mof_O 	O 	0.75509	0.41289	0.4754	-0.477
Mof_C 	C 	0.1244	0.5668	0.69736	-0.234
Mof_C 	C 	0.1694	0.6108	0.69655	0.112
Mof_H 	H 	0.1781	0.6296	0.6837	-0.002
Mof_C 	C 	0.2015	0.628	0.71355	-0.104
Mof_H 	H 	0.2317	0.6579	0.7122	0.073
Mof_C 	C 	0.1899	0.6018	0.73268	0.012
Mof_C 	C 	0.1446	0.5594	0.73437	-0.081
Mof_H 	H 	0.1352	0.5415	0.7475	0.05
Mof_C 	C 	0.1131	0.5432	0.71713	0.092
Mof_H 	H 	0.0821	0.5144	0.7188	-0.031
Mof_C 	C 	0.2253	0.6207	0.751	0.19
Mof_O 	O 	0.266	0.6569	0.74777	-0.381
Mof_O 	O 	0.2118	0.6001	0.7688	-0.227
Mof_C 	C 	0.1259	0.5594	0.69696	-0.241
Mof_C 	C 	0.171	0.5606	0.69593	0.087
Mof_H 	H 	0.18	0.5513	0.683	0.006
Mof_C 	C 	0.2028	0.5749	0.7131	-0.082
Mof_H 	H 	0.2333	0.5758	0.7118	0.066
Mof_C 	C 	0.1897	0.5879	0.73242	-0.003
Mof_C 	C 	0.1443	0.5842	0.73418	-0.059
Mof_H 	H 	0.1341	0.5905	0.7476	0.043
Mof_C 	C 	0.1133	0.5714	0.71654	0.094
Mof_H 	H 	0.0829	0.5708	0.7179	-0.029
Mof_C 	C 	0.2259	0.6063	0.7505	0.204
Mof_O 	O 	0.2666	0.6106	0.74712	-0.386
Mof_O 	O 	0.2125	0.6135	0.7685	-0.209
Mof_Co	Co	0.69077	0.84531	0.97044	1.14
Mof_Co	Co	0.6274	0.81362	0.93209	1.139
Mof_Zn	Zn	0.36704	0.73412	0.7894	1.22
Mof_B 	B 	0.75757	0.87803	0.00983	1.432
Mof_O 	O 	0.76857	0.84563	0.99808	-0.543
Mof_N 	N 	0.74187	0.82493	0.97988	-0.153
Mof_C 	C 	0.75097	0.79263	0.97237	0.092
Mof_H 	H 	0.77467	0.78773	0.97963	0.035
Mof_C 	C 	0.72777	0.76263	0.95363	-0.203
Mof_C 	C 	0.69347	0.76753	0.94056	0.296
Mof_C 	C 	0.67547	0.73683	0.92193	-0.206
Mof_C 	C 	0.68867	0.70083	0.91818	0.154
Mof_H 	H 	0.67637	0.68073	0.90583	-0.047
Mof_C 	C 	0.71897	0.69383	0.932	-0.312
Mof_C 	C 	0.73787	0.72503	0.94932	0.155
Mof_H 	H 	0.75897	0.72073	0.95883	-0.034
Mof_C 	C 	0.64337	0.74053	0.90673	0.102
Mof_H 	H 	0.63727	0.72183	0.89393	0.022
Mof_N 	N 	0.62247	0.76563	0.90813	-0.161
Mof_O 	O 	0.59217	0.75813	0.89087	-0.551
Mof_B 	B 	0.56207	0.78153	0.89212	1.605
Mof_O 	O 	0.70537	0.85143	0.01794	-0.517
Mof_N 	N 	0.67007	0.83383	0.00252	-0.161
Mof_C 	C 	0.62747	0.81223	0.01093	0.072
Mof_H 	H 	0.62667	0.81023	0.02613	0.002
Mof_C 	C 	0.58047	0.79053	0.00039	-0.182
Mof_C 	C 	0.57667	0.78883	0.97748	0.257
Mof_C 	C 	0.52887	0.76863	0.96825	-0.176
Mof_C 	C 	0.48837	0.75583	0.98199	0.106
Mof_H 	H 	0.45687	0.74373	0.97573	-0.024
Mof_C 	C 	0.49217	0.75993	0.00414	-0.252
Mof_C 	C 	0.53897	0.77723	0.01312	0.106
Mof_H 	H 	0.54257	0.78003	0.02823	-0.044
Mof_C 	C 	0.51977	0.76253	0.94536	0.082
Mof_H 	H 	0.48647	0.74763	0.94103	0.029
Mof_N 	N 	0.55107	0.77483	0.93043	-0.16
Mof_O 	O 	0.52817	0.76413	0.91063	-0.542
Mof_O 	O 	0.76817	0.92313	0.99791	-0.509
Mof_N 	N 	0.74147	0.91703	0.98028	-0.15
Mof_C 	C 	0.74967	0.95823	0.97274	0.084
Mof_H 	H 	0.77237	0.98673	0.98043	0.038
Mof_C 	C 	0.72797	0.96573	0.95379	-0.192
Mof_C 	C 	0.69417	0.92623	0.94032	0.284
Mof_C 	C 	0.67447	0.93883	0.9224	-0.21
Mof_C 	C 	0.68757	0.98733	0.91905	0.166
Mof_H 	H 	0.67337	0.99453	0.90713	-0.048
Mof_C 	C 	0.72027	0.02633	0.93187	-0.328
Mof_C 	C 	0.73967	0.01393	0.9491	0.154
Mof_H 	H 	0.76217	0.03953	0.95823	-0.033
Mof_C 	C 	0.64037	0.90303	0.90723	0.105
Mof_H 	H 	0.63117	0.91533	0.89523	0.021
Mof_N 	N 	0.62157	0.85713	0.90844	-0.163
Mof_O 	O 	0.59097	0.83513	0.8911	-0.552
Mof_C 	C 	0.52907	0.76413	0.87103	-0.716
Mof_C 	C 	0.51497	0.71993	0.86117	0.409
Mof_H 	H 	0.52647	0.69943	0.86683	-0.103
Mof_C 	C 	0.48457	0.70413	0.84337	-0.3
Mof_H 	H 	0.47487	0.67303	0.83723	0.139
Mof_C 	C 	0.46837	0.73393	0.83463	0.118
Mof_C 	C 	0.48327	0.77903	0.84369	-0.292
Mof_H 	H 	0.47287	0.80003	0.83763	0.136
Mof_C 	C 	0.51317	0.79393	0.86164	0.39
Mof_H 	H 	0.52307	0.82523	0.86773	-0.098
Mof_O 	O 	0.68147	0.79963	0.94422	-0.529
Mof_C 	C 	0.73037	0.65243	0.92793	0.683
Mof_C 	C 	0.75027	0.63823	0.94693	-0.982
Mof_H 	H 	0.77817	0.66763	0.95303	0.316
Mof_H 	H 	0.76097	0.61533	0.94223	0.283
Mof_H 	H 	0.72457	0.62253	0.95783	0.296
Mof_C 	C 	0.68777	0.60693	0.91893	-0.953
Mof_H 	H 	0.67447	0.61553	0.90653	0.285
Mof_H 	H 	0.66237	0.59133	0.92993	0.279
Mof_H 	H 	0.69877	0.58413	0.91443	0.268
Mof_C 	C 	0.76887	0.67393	0.90963	-0.887
Mof_H 	H 	0.79777	0.70403	0.91463	0.272
Mof_H 	H 	0.75447	0.68133	0.89723	0.27
Mof_H 	H 	0.77837	0.64983	0.90543	0.25
Mof_O 	O 	0.61517	0.80783	0.96522	-0.521
Mof_C 	C 	0.44767	0.74723	0.01863	0.575
Mof_C 	C 	0.45807	0.78833	0.03373	-0.865
Mof_H 	H 	0.48807	0.79713	0.04183	0.249
Mof_H 	H 	0.43057	0.77793	0.04363	0.244
Mof_H 	H 	0.46267	0.81693	0.02553	0.252
Mof_C 	C 	0.44107	0.70203	0.03183	-0.793
Mof_H 	H 	0.43427	0.67503	0.02203	0.23
Mof_H 	H 	0.41377	0.69173	0.04183	0.217
Mof_H 	H 	0.47127	0.71123	0.03983	0.23
Mof_C 	C 	0.40107	0.73233	0.00553	-0.845
Mof_H 	H 	0.39507	0.70543	0.99583	0.252
Mof_H 	H 	0.40507	0.76043	0.99713	0.252
Mof_H 	H 	0.37307	0.72153	0.01533	0.235
Mof_O 	O 	0.68197	0.88163	0.94439	-0.523
Mof_C 	C 	0.73357	0.07903	0.92653	0.704
Mof_C 	C 	0.75457	0.11503	0.94433	-1.026
Mof_H 	H 	0.78027	0.11153	0.95153	0.33
Mof_H 	H 	0.72867	0.10913	0.95463	0.307
Mof_H 	H 	0.76867	0.14833	0.93853	0.296
Mof_C 	C 	0.77397	0.09673	0.90913	-0.884
Mof_H 	H 	0.76187	0.07403	0.89693	0.268
Mof_H 	H 	0.80327	0.09773	0.91503	0.271
Mof_H 	H 	0.78227	0.12963	0.90423	0.247
Mof_C 	C 	0.69377	0.08453	0.91543	-0.953
Mof_H 	H 	0.67987	0.06073	0.90373	0.286
Mof_H 	H 	0.70787	0.11783	0.90963	0.269
Mof_H 	H 	0.66797	0.07863	0.92573	0.278
Mof_C 	C 	0.43377	0.71643	0.81576	0.323
Mof_O 	O 	0.42176	0.67522	0.80864	-0.482
Mof_O 	O 	0.42176	0.74622	0.80873	-0.477
Mof_C 	C 	0.79107	0.90013	0.03069	-0.234
Mof_C 	C 	0.83607	0.94413	0.02988	0.112
Mof_H 	H 	0.84477	0.96293	0.01703	-0.002
Mof_C 	C 	0.86817	0.96133	0.04688	-0.104
Mof_H 	H 	0.89837	0.99123	0.04553	0.074
Mof_C 	C 	0.85657	0.93513	0.06601	0.012
Mof_C 	C 	0.81127	0.89273	0.0677	-0.081
Mof_H 	H 	0.80187	0.87483	0.08083	0.05
Mof_C 	C 	0.77977	0.87653	0.05046	0.092
Mof_H 	H 	0.74877	0.84773	0.05213	-0.031
Mof_C 	C 	0.89197	0.95403	0.08433	0.19
Mof_O 	O 	0.93267	0.99023	0.0811	-0.38
Mof_O 	O 	0.87847	0.93343	0.10213	-0.227
Mof_C 	C 	0.79257	0.89273	0.03029	-0.241
Mof_C 	C 	0.83767	0.89393	0.02926	0.087
Mof_H 	H 	0.84667	0.88463	0.01633	0.006
Mof_C 	C 	0.86947	0.90823	0.04643	-0.082
Mof_H 	H 	0.89997	0.90913	0.04513	0.066
Mof_C 	C 	0.85637	0.92123	0.06575	-0.003
Mof_C 	C 	0.81097	0.91753	0.06751	-0.059
Mof_H 	H 	0.80077	0.92383	0.08093	0.043
Mof_C 	C 	0.77997	0.90473	0.04987	0.094
Mof_H 	H 	0.74957	0.90413	0.05123	-0.029
Mof_C 	C 	0.89257	0.93963	0.08383	0.203
Mof_O 	O 	0.93327	0.94393	0.08045	-0.385
Mof_O 	O 	0.87917	0.94683	0.10183	-0.209
Mof_Co	Co	0.35743	0.17865	0.30378	1.14
Mof_Co	Co	0.29406	0.14696	0.26543	1.138
Mof_Zn	Zn	0.0337	0.06746	0.12274	1.219
Mof_B 	B 	0.42423	0.21137	0.34317	1.432
Mof_O 	O 	0.43523	0.17897	0.33142	-0.543
Mof_N 	N 	0.40853	0.15827	0.31322	-0.153
Mof_C 	C 	0.41763	0.12597	0.30571	0.092
Mof_H 	H 	0.44133	0.12107	0.31297	0.035
Mof_C 	C 	0.39443	0.09597	0.28697	-0.203
Mof_C 	C 	0.36013	0.10087	0.2739	0.296
Mof_C 	C 	0.34213	0.07017	0.25527	-0.206
Mof_C 	C 	0.35533	0.03417	0.25152	0.154
Mof_H 	H 	0.34303	0.01407	0.23917	-0.046
Mof_C 	C 	0.38563	0.02717	0.26534	-0.311
Mof_C 	C 	0.40453	0.05837	0.28266	0.154
Mof_H 	H 	0.42563	0.05407	0.29217	-0.034
Mof_C 	C 	0.31003	0.07387	0.24007	0.101
Mof_H 	H 	0.30393	0.05517	0.22727	0.022
Mof_N 	N 	0.28913	0.09897	0.24147	-0.161
Mof_O 	O 	0.25883	0.09147	0.22421	-0.551
Mof_B 	B 	0.22873	0.11487	0.22546	1.605
Mof_O 	O 	0.37203	0.18477	0.35128	-0.517
Mof_N 	N 	0.33673	0.16717	0.33586	-0.161
Mof_C 	C 	0.29413	0.14557	0.34427	0.072
Mof_H 	H 	0.29333	0.14357	0.35947	0.002
Mof_C 	C 	0.24713	0.12387	0.33373	-0.182
Mof_C 	C 	0.24333	0.12217	0.31082	0.257
Mof_C 	C 	0.19553	0.10197	0.30159	-0.176
Mof_C 	C 	0.15503	0.08917	0.31533	0.106
Mof_H 	H 	0.12353	0.07707	0.30907	-0.024
Mof_C 	C 	0.15883	0.09327	0.33748	-0.251
Mof_C 	C 	0.20563	0.11057	0.34646	0.105
Mof_H 	H 	0.20923	0.11337	0.36157	-0.043
Mof_C 	C 	0.18643	0.09587	0.2787	0.082
Mof_H 	H 	0.15313	0.08097	0.27437	0.028
Mof_N 	N 	0.21773	0.10817	0.26377	-0.16
Mof_O 	O 	0.19483	0.09747	0.24397	-0.543
Mof_O 	O 	0.43483	0.25647	0.33125	-0.51
Mof_N 	N 	0.40813	0.25037	0.31362	-0.15
Mof_C 	C 	0.41633	0.29157	0.30608	0.084
Mof_H 	H 	0.43903	0.32007	0.31377	0.037
Mof_C 	C 	0.39463	0.29907	0.28713	-0.195
Mof_C 	C 	0.36083	0.25957	0.27366	0.284
Mof_C 	C 	0.34113	0.27217	0.25574	-0.21
Mof_C 	C 	0.35423	0.32067	0.25239	0.163
Mof_H 	H 	0.34003	0.32787	0.24047	-0.048
Mof_C 	C 	0.38693	0.35967	0.26521	-0.326
Mof_C 	C 	0.40633	0.34727	0.28244	0.157
Mof_H 	H 	0.42883	0.37287	0.29157	-0.034
Mof_C 	C 	0.30703	0.23637	0.24057	0.105
Mof_H 	H 	0.29783	0.24867	0.22857	0.021
Mof_N 	N 	0.28823	0.19047	0.24178	-0.163
Mof_O 	O 	0.25763	0.16847	0.22444	-0.552
Mof_C 	C 	0.19573	0.09747	0.20437	-0.716
Mof_C 	C 	0.18163	0.05327	0.19451	0.408
Mof_H 	H 	0.19313	0.03277	0.20017	-0.103
Mof_C 	C 	0.15123	0.03747	0.17671	-0.3
Mof_H 	H 	0.14153	0.00637	0.17057	0.138
Mof_C 	C 	0.13503	0.06727	0.16797	0.117
Mof_C 	C 	0.14993	0.11237	0.17703	-0.292
Mof_H 	H 	0.13953	0.13337	0.17097	0.135
Mof_C 	C 	0.17983	0.12727	0.19498	0.389
Mof_H 	H 	0.18973	0.15857	0.20107	-0.098
Mof_O 	O 	0.34813	0.13297	0.27756	-0.529
Mof_C 	C 	0.39703	0.98577	0.26127	0.681
Mof_C 	C 	0.41693	0.97157	0.28027	-0.982
Mof_H 	H 	0.44483	0.00097	0.28637	0.316
Mof_H 	H 	0.42763	0.94867	0.27557	0.282
Mof_H 	H 	0.39123	0.95587	0.29117	0.296
Mof_C 	C 	0.35443	0.94027	0.25227	-0.952
Mof_H 	H 	0.34113	0.94887	0.23987	0.285
Mof_H 	H 	0.32903	0.92467	0.26327	0.279
Mof_H 	H 	0.36543	0.91747	0.24777	0.268
Mof_C 	C 	0.43553	0.00727	0.24297	-0.885
Mof_H 	H 	0.46443	0.03737	0.24797	0.271
Mof_H 	H 	0.42113	0.01467	0.23057	0.269
Mof_H 	H 	0.44503	0.98317	0.23877	0.249
Mof_O 	O 	0.28183	0.14117	0.29856	-0.521
Mof_C 	C 	0.11433	0.08057	0.35197	0.574
Mof_C 	C 	0.12473	0.12167	0.36707	-0.863
Mof_H 	H 	0.15473	0.13047	0.37517	0.248
Mof_H 	H 	0.09723	0.11127	0.37697	0.243
Mof_H 	H 	0.12933	0.15027	0.35887	0.251
Mof_C 	C 	0.10773	0.03537	0.36517	-0.791
Mof_H 	H 	0.10093	0.00837	0.35537	0.23
Mof_H 	H 	0.08043	0.02507	0.37517	0.217
Mof_H 	H 	0.13793	0.04457	0.37317	0.229
Mof_C 	C 	0.06773	0.06567	0.33887	-0.842
Mof_H 	H 	0.06173	0.03877	0.32917	0.251
Mof_H 	H 	0.07173	0.09377	0.33047	0.25
Mof_H 	H 	0.03973	0.05487	0.34867	0.234
Mof_O 	O 	0.34863	0.21497	0.27773	-0.523
Mof_C 	C 	0.40023	0.41237	0.25987	0.704
Mof_C 	C 	0.42123	0.44837	0.27767	-1.026
Mof_H 	H 	0.44693	0.44487	0.28487	0.33
Mof_H 	H 	0.39533	0.44247	0.28797	0.307
Mof_H 	H 	0.43533	0.48167	0.27187	0.296
Mof_C 	C 	0.44063	0.43007	0.24247	-0.885
Mof_H 	H 	0.42853	0.40737	0.23027	0.269
Mof_H 	H 	0.46993	0.43107	0.24837	0.271
Mof_H 	H 	0.44893	0.46297	0.23757	0.248
Mof_C 	C 	0.36043	0.41787	0.24877	-0.953
Mof_H 	H 	0.34653	0.39407	0.23707	0.286
Mof_H 	H 	0.37453	0.45117	0.24297	0.269
Mof_H 	H 	0.33463	0.41197	0.25907	0.278
Mof_C 	C 	0.10043	0.04977	0.1491	0.323
Mof_O 	O 	0.08842	0.00856	0.14198	-0.483
Mof_O 	O 	0.08842	0.07956	0.14207	-0.478
Mof_C 	C 	0.45773	0.23347	0.36403	-0.234
Mof_C 	C 	0.50273	0.27747	0.36322	0.112
Mof_H 	H 	0.51143	0.29627	0.35037	-0.002
Mof_C 	C 	0.53483	0.29467	0.38022	-0.104
Mof_H 	H 	0.56503	0.32457	0.37887	0.073
Mof_C 	C 	0.52323	0.26847	0.39935	0.012
Mof_C 	C 	0.47793	0.22607	0.40104	-0.081
Mof_H 	H 	0.46853	0.20817	0.41417	0.05
Mof_C 	C 	0.44643	0.20987	0.3838	0.092
Mof_H 	H 	0.41543	0.18107	0.38547	-0.031
Mof_C 	C 	0.55863	0.28737	0.41767	0.19
Mof_O 	O 	0.59933	0.32357	0.41444	-0.381
Mof_O 	O 	0.54513	0.26677	0.43547	-0.227
Mof_C 	C 	0.45923	0.22607	0.36363	-0.241
Mof_C 	C 	0.50433	0.22727	0.3626	0.087
Mof_H 	H 	0.51333	0.21797	0.34967	0.006
Mof_C 	C 	0.53613	0.24157	0.37977	-0.082
Mof_H 	H 	0.56663	0.24247	0.37847	0.066
Mof_C 	C 	0.52303	0.25457	0.39909	-0.003
Mof_C 	C 	0.47763	0.25087	0.40085	-0.059
Mof_H 	H 	0.46743	0.25717	0.41427	0.043
Mof_C 	C 	0.44663	0.23807	0.38321	0.094
Mof_H 	H 	0.41623	0.23747	0.38457	-0.029
Mof_C 	C 	0.55923	0.27297	0.41717	0.204
Mof_O 	O 	0.59993	0.27727	0.41379	-0.386
Mof_O 	O 	0.54583	0.28017	0.43517	-0.209
Mof_Zn	Zn	0.33333	0.66667	0.74856	1.261
Mof_Zn	Zn	3.77776e-33	3.77776e-33	0.08189	1.26
Mof_Zn	Zn	0.66667	0.33333	0.41523	1.261
Mof_O 	O 	0.66667	0.33333	0.44718	-0.9
Mof_O 	O 	0.33333	0.66667	0.78051	-0.9
Mof_O 	O 	-1.88888e-33	0	0.11385	-0.902
_end
