data_functionalizedCrystal
_audit_creation_method	'EQeq! by Chris Wilmer'
_symmetry_space_group_name_H-M	'P1'
_symmetry_Int_Tables_number	1
_symmetry_cell_setting	triclinic
loop_
_symmetry_equiv_pos_as_xyz
  x,y,z
_cell_length_a	8.1471
_cell_length_b	11.6977
_cell_length_c	11.6977
_cell_angle_alpha	109.553
_cell_angle_beta	104.734
_cell_angle_gamma	75.2658
loop_
_atom_site_label
_atom_site_type_symbol
_atom_site_fract_x
_atom_site_fract_y
_atom_site_fract_z
_atom_site_charge
Mof_Zn	Zn	0.43687	0.07863	0.90023	1.283
Mof_Zn	Zn	0.06313	0.90023	0.07863	1.281
Mof_Zn	Zn	0.56313	0.92137	0.09977	1.284
Mof_Zn	Zn	0.93687	0.09977	0.92137	1.282
Mof_Zn	Zn	0.75	0.13198	0.13198	1.278
Mof_Zn	Zn	0.25	0.86802	0.86802	1.278
Mof_H 	H 	0.766	0.6891	0.9649	0.042
Mof_H 	H 	0.5209	0.7428	0.2296	0.017
Mof_H 	H 	0.5965	0.5375	0.2201	0.074
Mof_H 	H 	0.8418	0.4821	0.9451	0.065
Mof_H 	H 	0.734	0.9649	0.6891	0.047
Mof_H 	H 	0.9791	0.2296	0.7428	0.015
Mof_H 	H 	0.9035	0.2201	0.5375	0.075
Mof_H 	H 	0.6582	0.9451	0.4821	0.073
Mof_H 	H 	0.234	0.3109	0.0351	0.042
Mof_H 	H 	0.4791	0.2572	0.7704	0.017
Mof_H 	H 	0.4035	0.4625	0.7799	0.074
Mof_H 	H 	0.1582	0.5179	0.0549	0.065
Mof_H 	H 	0.266	0.0351	0.3109	0.047
Mof_H 	H 	0.0209	0.7704	0.2572	0.015
Mof_H 	H 	0.0965	0.7799	0.4625	0.075
Mof_H 	H 	0.3418	0.0549	0.5179	0.073
Mof_C 	C 	0.7307	0.65815	0.01645	0.044
Mof_C 	C 	0.5876	0.68965	0.17235	0.051
Mof_C 	C 	0.632	0.56623	0.16697	-0.062
Mof_C 	C 	0.7778	0.53372	0.00468	-0.048
Mof_C 	C 	0.7297	0.48592	0.08168	-0.038
Mof_C 	C 	0.7805	0.34883	0.06977	0.373
Mof_C 	C 	0.7693	0.01645	0.65815	0.039
Mof_C 	C 	0.9124	0.17235	0.68965	0.052
Mof_C 	C 	0.868	0.16697	0.56623	-0.066
Mof_C 	C 	0.7222	0.00468	0.53372	-0.061
Mof_C 	C 	0.7703	0.08168	0.48592	-0.031
Mof_C 	C 	0.7195	0.06977	0.34883	0.363
Mof_C 	C 	0.2693	0.34185	0.98355	0.044
Mof_C 	C 	0.4124	0.31035	0.82765	0.051
Mof_C 	C 	0.368	0.43377	0.83303	-0.062
Mof_C 	C 	0.2222	0.46628	0.99532	-0.048
Mof_C 	C 	0.2703	0.51408	0.91832	-0.038
Mof_C 	C 	0.2195	0.65117	0.93023	0.373
Mof_C 	C 	0.2307	0.98355	0.34185	0.039
Mof_C 	C 	0.0876	0.82765	0.31035	0.052
Mof_C 	C 	0.132	0.83303	0.43377	-0.066
Mof_C 	C 	0.2778	0.99532	0.46628	-0.061
Mof_C 	C 	0.2297	0.91832	0.51408	-0.031
Mof_C 	C 	0.2805	0.93023	0.65117	0.363
Mof_N 	N 	0.6365	0.73632	0.09874	-0.209
Mof_N 	N 	0.8635	0.09874	0.73632	-0.21
Mof_N 	N 	0.3635	0.26368	0.90126	-0.209
Mof_N 	N 	0.1365	0.90126	0.26368	-0.21
Mof_O 	O 	0.722	0.31105	0.13733	-0.411
Mof_O 	O 	0.8753	0.28689	0.99213	-0.42
Mof_O 	O 	0.778	0.13733	0.31105	-0.409
Mof_O 	O 	0.6247	0.99213	0.28689	-0.412
Mof_O 	O 	0.278	0.68895	0.86267	-0.411
Mof_O 	O 	0.1247	0.71311	0.00787	-0.42
Mof_O 	O 	0.222	0.86267	0.68895	-0.409
Mof_O 	O 	0.3753	0.00787	0.71311	-0.412
Mof_F 	F 	0.505	0.10884	0.09052	-0.698
Mof_F 	F 	0.6914	0.0853	0.92556	-0.704
Mof_F 	F 	0.995	0.09052	0.10884	-0.696
Mof_F 	F 	0.8086	0.92556	0.0853	-0.698
Mof_F 	F 	0.495	0.89116	0.90948	-0.698
Mof_F 	F 	0.3086	0.9147	0.07444	-0.704
Mof_F 	F 	0.005	0.90948	0.89116	-0.696
Mof_F 	F 	0.1914	0.07444	0.9147	-0.698
_end
