data_functionalizedCrystal
_audit_creation_method	'EQeq! by Chris Wilmer'
_symmetry_space_group_name_H-M	'P1'
_symmetry_Int_Tables_number	1
_symmetry_cell_setting	triclinic
loop_
_symmetry_equiv_pos_as_xyz
  x,y,z
_cell_length_a	10.4819
_cell_length_b	12.4239
_cell_length_c	19.8043
_cell_angle_alpha	75.2285
_cell_angle_beta	81.2767
_cell_angle_gamma	82.9364
loop_
_atom_site_label
_atom_site_type_symbol
_atom_site_fract_x
_atom_site_fract_y
_atom_site_fract_z
_atom_site_charge
Mof_Zn	Zn	0.31217	0.86935	0.15284	1.208
Mof_Zn	Zn	0.35968	0.8858	0.66933	1.186
Mof_O 	O 	0.269	0.7705	0.09905	-0.448
Mof_O 	O 	0.1765	0.8566	0.23329	-0.451
Mof_O 	O 	0.3822	0.8724	0.00537	-0.32
Mof_O 	O 	0.2707	0.687	0.27704	-0.309
Mof_C 	C 	0.1814	0.7605	0.27753	0.309
Mof_C 	C 	0.5903	0.9099	0.1401	0.084
Mof_H 	H 	0.5842	0.9642	0.0983	-0.002
Mof_N 	N 	0.268	0.0336	0.11163	-0.26
Mof_N 	N 	0.3168	0.8214	0.59439	-0.278
Mof_N 	N 	0.4944	0.8519	0.17547	-0.27
Mof_N 	N 	0.2803	0.2059	0.0487	-0.114
Mof_C 	C 	0.3074	0.7994	0.03311	0.301
Mof_N 	N 	0.6978	0.8809	0.17178	-0.117
Mof_C 	C 	0.2526	0.7397	0.98815	-0.038
Mof_O 	O 	0.3482	0.8112	0.76905	-0.474
Mof_N 	N 	0.9479	0.5241	0.4896	-0.045
Mof_C 	C 	0.0647	0.6435	0.3851	-0.087
Mof_H 	H 	0.1347	0.5895	0.3858	0.092
Mof_C 	C 	0.3341	0.1013	0.059	0.085
Mof_H 	H 	0.4088	0.0785	0.0325	0.006
Mof_N 	N 	0.0433	0.5111	0.015	-0.05
Mof_C 	C 	0.8236	0.9275	0.1461	-0.031
Mof_H 	H 	0.8898	0.8811	0.1724	0.05
Mof_H 	H 	0.8189	0.0018	0.154	0.046
Mof_C 	C 	0.1736	0.6534	0.0196	-0.095
Mof_H 	H 	0.1579	0.6302	0.0683	0.097
Mof_C 	C 	0.2788	0.7713	0.91531	-0.033
Mof_H 	H 	0.3347	0.8265	0.8944	0.059
Mof_C 	C 	0.8609	0.9333	0.0685	-0.136
Mof_H 	H 	0.7909	0.9737	0.0429	0.081
Mof_H 	H 	0.8734	0.8582	0.0613	0.08
Mof_C 	C 	0.1411	0.6362	0.9049	-0.1
Mof_H 	H 	0.1027	0.6027	0.877	0.1
Mof_C 	C 	0.2458	0.7621	0.7935	0.318
Mof_C 	C 	0.9576	0.626	0.4358	0.109
Mof_C 	C 	0.1184	0.6022	0.9777	0.113
Mof_C 	C 	0.4673	0.4659	0.9819	-0.088
Mof_H 	H 	0.5321	0.4336	0.9505	0.061
Mof_H 	H 	0.4057	0.515	0.9536	0.063
Mof_C 	C 	0.9848	0.9914	0.0397	-0.072
Mof_H 	H 	0.9755	0.0634	0.0514	0.053
Mof_H 	H 	0.0566	0.9468	0.0619	0.042
Mof_N 	N 	0.3259	0.7745	0.4946	-0.113
Mof_C 	C 	0.3338	0.3032	0.9977	-0.037
Mof_H 	H 	0.2649	0.3491	0.9735	0.056
Mof_H 	H 	0.3975	0.2778	0.9629	0.047
Mof_C 	C 	0.3967	0.3724	0.0341	-0.123
Mof_H 	H 	0.4579	0.3241	0.063	0.077
Mof_H 	H 	0.3307	0.4048	0.0649	0.083
Mof_C 	C 	0.0659	0.743	0.33306	-0.041
Mof_C 	C 	0.2227	0.7218	0.8736	-0.035
Mof_C 	C 	0.8532	0.8048	0.383	-0.053
Mof_C 	C 	0.8513	0.7058	0.4349	-0.078
Mof_H 	H 	0.7796	0.6927	0.469	0.08
Mof_C 	C 	0.1725	0.2074	0.0973	-0.011
Mof_H 	H 	0.1155	0.2691	0.1026	0.06
Mof_C 	C 	0.3876	0.8201	0.5332	0.077
Mof_H 	H 	0.4688	0.847	0.5192	-0.012
Mof_O 	O 	0.1649	0.7475	0.7587	-0.309
Mof_C 	C 	0.5413	0.7859	0.2341	0.004
Mof_H 	H 	0.4945	0.7362	0.2696	0.024
Mof_C 	C 	0.6663	0.8037	0.2327	-0.008
Mof_H 	H 	0.7203	0.7698	0.2668	0.043
Mof_C 	C 	0.2037	0.7761	0.5936	0.01
Mof_H 	H 	0.1354	0.7663	0.6299	0.029
Mof_O 	O 	0.0748	0.4609	0.0794	-0.144
Mof_C 	C 	0.3849	0.7453	0.4276	-0.042
Mof_H 	H 	0.4663	0.7788	0.4115	0.052
Mof_H 	H 	0.3275	0.7754	0.3919	0.046
Mof_C 	C 	0.4894	0.5619	0.4949	-0.082
Mof_H 	H 	0.573	0.5923	0.4843	0.064
Mof_H 	H 	0.4477	0.5783	0.5388	0.063
Mof_C 	C 	0.208	0.7486	0.5327	-0.01
Mof_H 	H 	0.1433	0.7176	0.5184	0.053
Mof_C 	C 	0.4085	0.62	0.4376	-0.122
Mof_H 	H 	0.3254	0.5886	0.4478	0.092
Mof_H 	H 	0.4509	0.6043	0.3936	0.071
Mof_O 	O 	0.8333	0.494	0.5019	-0.15
Mof_C 	C 	0.961	0.8229	0.3324	-0.015
Mof_H 	H 	0.9627	0.8894	0.2977	0.063
Mof_C 	C 	0.1654	0.1002	0.1364	0.005
Mof_H 	H 	0.1019	0.0758	0.1736	0.029
Mof_O 	O 	0.6475	0.8772	0.4271	-0.332
Mof_C 	C 	0.7399	0.8916	0.3816	0.333
Mof_O 	O 	0.7504	0.9773	0.33001	-0.469
Mof_Zn	Zn	0.68783	0.13065	0.84716	1.208
Mof_Zn	Zn	0.64032	0.1142	0.33067	1.186
Mof_O 	O 	0.731	0.2295	0.90095	-0.448
Mof_O 	O 	0.8235	0.1434	0.76671	-0.451
Mof_O 	O 	0.6178	0.1276	0.99463	-0.32
Mof_O 	O 	0.7293	0.313	0.72296	-0.309
Mof_C 	C 	0.8186	0.2395	0.72247	0.309
Mof_C 	C 	0.4097	0.0901	0.8599	0.084
Mof_H 	H 	0.4158	0.0358	0.9017	-0.002
Mof_N 	N 	0.732	0.9664	0.88837	-0.26
Mof_N 	N 	0.6832	0.1786	0.40561	-0.278
Mof_N 	N 	0.5056	0.1481	0.82453	-0.27
Mof_N 	N 	0.7197	0.7941	0.9513	-0.114
Mof_C 	C 	0.6926	0.2006	0.96689	0.301
Mof_N 	N 	0.3022	0.1191	0.82822	-0.117
Mof_C 	C 	0.7474	0.2603	0.01185	-0.038
Mof_O 	O 	0.6518	0.1888	0.23095	-0.474
Mof_N 	N 	0.0521	0.4759	0.5104	-0.045
Mof_C 	C 	0.9353	0.3565	0.6149	-0.087
Mof_H 	H 	0.8653	0.4105	0.6142	0.092
Mof_C 	C 	0.6659	0.8987	0.941	0.085
Mof_H 	H 	0.5912	0.9215	0.9675	0.006
Mof_N 	N 	0.9567	0.4889	0.985	-0.05
Mof_C 	C 	0.1764	0.0725	0.8539	-0.031
Mof_H 	H 	0.1102	0.1189	0.8276	0.05
Mof_H 	H 	0.1811	0.9982	0.846	0.046
Mof_C 	C 	0.8264	0.3466	0.9804	-0.095
Mof_H 	H 	0.8421	0.3698	0.9317	0.097
Mof_C 	C 	0.7212	0.2287	0.08469	-0.033
Mof_H 	H 	0.6653	0.1735	0.1056	0.059
Mof_C 	C 	0.1391	0.0667	0.9315	-0.136
Mof_H 	H 	0.2091	0.0263	0.9571	0.081
Mof_H 	H 	0.1266	0.1418	0.9387	0.08
Mof_C 	C 	0.8589	0.3638	0.0951	-0.1
Mof_H 	H 	0.8973	0.3973	0.123	0.1
Mof_C 	C 	0.7542	0.2379	0.2065	0.318
Mof_C 	C 	0.0424	0.374	0.5642	0.109
Mof_C 	C 	0.8816	0.3978	0.0223	0.113
Mof_C 	C 	0.5327	0.5341	0.0181	-0.088
Mof_H 	H 	0.4679	0.5664	0.0495	0.061
Mof_H 	H 	0.5943	0.485	0.0464	0.063
Mof_C 	C 	0.0152	0.0086	0.9603	-0.072
Mof_H 	H 	0.0245	0.9366	0.9486	0.053
Mof_H 	H 	0.9434	0.0532	0.9381	0.042
Mof_N 	N 	0.6741	0.2255	0.5054	-0.113
Mof_C 	C 	0.6662	0.6968	0.0023	-0.037
Mof_H 	H 	0.7351	0.6509	0.0265	0.056
Mof_H 	H 	0.6025	0.7222	0.0371	0.047
Mof_C 	C 	0.6033	0.6276	0.9659	-0.123
Mof_H 	H 	0.5421	0.6759	0.937	0.077
Mof_H 	H 	0.6693	0.5952	0.9351	0.083
Mof_C 	C 	0.9341	0.257	0.66694	-0.041
Mof_C 	C 	0.7773	0.2782	0.1264	-0.035
Mof_C 	C 	0.1468	0.1952	0.617	-0.053
Mof_C 	C 	0.1487	0.2942	0.5651	-0.078
Mof_H 	H 	0.2204	0.3073	0.531	0.08
Mof_C 	C 	0.8275	0.7926	0.9027	-0.011
Mof_H 	H 	0.8845	0.7309	0.8974	0.06
Mof_C 	C 	0.6124	0.1799	0.4668	0.077
Mof_H 	H 	0.5312	0.153	0.4808	-0.012
Mof_O 	O 	0.8351	0.2525	0.2413	-0.309
Mof_C 	C 	0.4587	0.2141	0.7659	0.004
Mof_H 	H 	0.5055	0.2638	0.7304	0.024
Mof_C 	C 	0.3337	0.1963	0.7673	-0.008
Mof_H 	H 	0.2797	0.2302	0.7332	0.043
Mof_C 	C 	0.7963	0.2239	0.4064	0.01
Mof_H 	H 	0.8646	0.2337	0.3701	0.029
Mof_O 	O 	0.9252	0.5391	0.9206	-0.144
Mof_C 	C 	0.6151	0.2547	0.5724	-0.042
Mof_H 	H 	0.5337	0.2212	0.5885	0.052
Mof_H 	H 	0.6725	0.2246	0.6081	0.046
Mof_C 	C 	0.5106	0.4381	0.5051	-0.082
Mof_H 	H 	0.427	0.4077	0.5157	0.064
Mof_H 	H 	0.5523	0.4217	0.4612	0.063
Mof_C 	C 	0.792	0.2514	0.4673	-0.01
Mof_H 	H 	0.8567	0.2824	0.4816	0.053
Mof_C 	C 	0.5915	0.38	0.5624	-0.122
Mof_H 	H 	0.6746	0.4114	0.5522	0.092
Mof_H 	H 	0.5491	0.3957	0.6064	0.071
Mof_O 	O 	0.1667	0.506	0.4981	-0.15
Mof_C 	C 	0.039	0.1771	0.6676	-0.015
Mof_H 	H 	0.0373	0.1106	0.7023	0.063
Mof_C 	C 	0.8346	0.8998	0.8636	0.005
Mof_H 	H 	0.8981	0.9242	0.8264	0.029
Mof_O 	O 	0.3525	0.1228	0.5729	-0.332
Mof_C 	C 	0.2601	0.1084	0.6184	0.333
Mof_O 	O 	0.2496	0.0227	0.66999	-0.469
_end
