data_functionalizedCrystal
_audit_creation_method	'EQeq! by Chris Wilmer'
_symmetry_space_group_name_H-M	'P1'
_symmetry_Int_Tables_number	1
_symmetry_cell_setting	triclinic
loop_
_symmetry_equiv_pos_as_xyz
  x,y,z
_cell_length_a	7.4548
_cell_length_b	8.0825
_cell_length_c	10.166
_cell_angle_alpha	75.244
_cell_angle_beta	68.883
_cell_angle_gamma	80.648
loop_
_atom_site_label
_atom_site_type_symbol
_atom_site_fract_x
_atom_site_fract_y
_atom_site_fract_z
_atom_site_charge
Mof_V 	V 	0.244	0.5164	0.2622	1.722
Mof_V 	V 	0.3074	0.7614	0.7472	1.707
Mof_P 	P 	0.5323	0.7352	0.9688	0.47
Mof_P 	P 	0.9027	0.277	0.4785	0.449
Mof_O 	O 	0.4783	0.6392	0.1261	-0.534
Mof_O 	O 	0.7113	0.6512	0.869	-0.55
Mof_O 	O 	0.0993	0.3448	0.434	-0.528
Mof_O 	O 	0.7434	0.3586	0.5946	-0.505
Mof_O 	O 	0.3563	0.7594	0.9194	-0.648
Mof_O 	O 	0.8407	0.3097	0.3447	-0.609
Mof_O 	O 	0.4866	0.3416	0.3285	-0.717
Mof_C 	C 	0.5879	0.9477	0.958	-0.204
Mof_C 	C 	0.9216	0.0495	0.5519	-0.21
Mof_H 	H 	0.6914	0.9394	0.9966	0.041
Mof_H 	H 	0.6328	0.0071	0.8576	0.053
Mof_H 	H 	0.7983	0.0044	0.5753	0.042
Mof_H 	H 	0.9499	0.0307	0.6408	0.023
Mof_V 	V 	0.756	0.4836	0.7378	1.721
Mof_V 	V 	0.6926	0.2386	0.2528	1.706
Mof_P 	P 	0.4677	0.2648	0.0312	0.469
Mof_P 	P 	0.0973	0.723	0.5215	0.448
Mof_O 	O 	0.5217	0.3608	0.8739	-0.534
Mof_O 	O 	0.2887	0.3488	0.131	-0.55
Mof_O 	O 	0.9007	0.6552	0.566	-0.528
Mof_O 	O 	0.2566	0.6414	0.4054	-0.505
Mof_O 	O 	0.6437	0.2406	0.0806	-0.648
Mof_O 	O 	0.1593	0.6903	0.6553	-0.609
Mof_O 	O 	0.5134	0.6584	0.6715	-0.717
Mof_C 	C 	0.4121	0.0523	0.042	-0.204
Mof_C 	C 	0.0784	0.9505	0.4481	-0.21
Mof_H 	H 	0.3086	0.0606	0.0034	0.041
Mof_H 	H 	0.3672	0.9929	0.1424	0.053
Mof_H 	H 	0.2017	0.9956	0.4247	0.042
Mof_H 	H 	0.0501	0.9693	0.3592	0.023
_end
