data_functionalizedCrystal
_audit_creation_method	'EQeq! by Chris Wilmer'
_symmetry_space_group_name_H-M	'P1'
_symmetry_Int_Tables_number	1
_symmetry_cell_setting	triclinic
loop_
_symmetry_equiv_pos_as_xyz
  x,y,z
_cell_length_a	27.652
_cell_length_b	27.652
_cell_length_c	20.028
_cell_angle_alpha	90
_cell_angle_beta	90
_cell_angle_gamma	120
loop_
_atom_site_label
_atom_site_type_symbol
_atom_site_fract_x
_atom_site_fract_y
_atom_site_fract_z
_atom_site_charge
Mof_O 	O 	0.2346	0.9504	0.4467	-0.532
Mof_O 	O 	0.412	0.9987	0.6167	-0.649
Mof_O 	O 	0.2878	0.9421	0.5777	-1.307
Mof_O 	O 	0.34701	0.95045	0.4578	-0.702
Mof_O 	O 	0.2175	0.982	0.3901	-0.148
Mof_O 	O 	0.6437	0.1886	0.4038	-0.196
Mof_O 	O 	0.5735	0.2164	0.432	-0.047
Mof_O 	O 	0.5557	0.148	0.3544	-0.18
Mof_O 	O 	0.0716	0.8392	0.1411	-0.346
Mof_C 	C 	0.171	0.9136	0.2865	0.042
Mof_H 	H 	0.1976	0.945	0.2639	0.049
Mof_C 	C 	0.5079	0.1036	0.5025	0.174
Mof_H 	H 	0.4864	0.1187	0.4879	-0.011
Mof_C 	C 	0.4275	0.0347	0.5711	0.483
Mof_C 	C 	0.487	0.0607	0.5491	-0.257
Mof_C 	C 	0.1768	0.9092	0.3542	-0.05
Mof_C 	C 	0.2382	0.9455	0.3804	0.376
Mof_H 	H 	0.2756	0.9109	0.5616	0.522
Mof_O 	O 	0.7173	0.6818	0.6571	-0.386
Mof_O 	O 	0.90127	0.28373	0.78003	-0.631
Mof_O 	O 	0.07867	0.33203	0.95003	-0.618
Mof_O 	O 	0.95447	0.27543	0.91103	-1.271
Mof_O 	O 	0.01368	0.28378	0.79113	-0.807
Mof_O 	O 	0.88417	0.31533	0.72343	-0.179
Mof_O 	O 	0.31037	0.52193	0.73713	-0.206
Mof_O 	O 	0.24017	0.54973	0.76533	-0.029
Mof_O 	O 	0.22237	0.48133	0.68773	-0.181
Mof_O 	O 	0.73827	0.17253	0.47443	-0.323
Mof_C 	C 	0.83767	0.24693	0.61983	0.052
Mof_H 	H 	0.86427	0.27833	0.59723	0.03
Mof_C 	C 	0.17457	0.43693	0.83583	0.209
Mof_H 	H 	0.15307	0.45203	0.82123	-0.017
Mof_C 	C 	0.09417	0.36803	0.90443	0.604
Mof_C 	C 	0.15367	0.39403	0.88243	-0.272
Mof_C 	C 	0.84347	0.24253	0.68753	-0.064
Mof_C 	C 	0.90487	0.27883	0.71373	0.417
Mof_H 	H 	0.94227	0.24423	0.89493	0.527
Mof_O 	O 	0.38397	0.01513	0.99043	-0.19
Mof_O 	O 	0.56793	0.61707	0.11337	-0.647
Mof_O 	O 	0.74533	0.66537	0.28337	-0.742
Mof_O 	O 	0.62113	0.60877	0.24437	-1.385
Mof_O 	O 	0.68034	0.61712	0.12447	-0.75
Mof_O 	O 	0.55083	0.64867	0.05677	-0.215
Mof_O 	O 	0.97703	0.85527	0.07047	-0.196
Mof_O 	O 	0.90683	0.88307	0.09867	-0.019
Mof_O 	O 	0.88903	0.81467	0.02107	-0.201
Mof_O 	O 	0.40493	0.50587	0.80777	-0.342
Mof_C 	C 	0.50433	0.58027	0.95317	0.417
Mof_H 	H 	0.53093	0.61167	0.93057	-0.072
Mof_C 	C 	0.84123	0.77027	0.16917	0.21
Mof_H 	H 	0.81973	0.78537	0.15457	-0.02
Mof_C 	C 	0.76083	0.70137	0.23777	0.617
Mof_C 	C 	0.82033	0.72737	0.21577	-0.29
Mof_C 	C 	0.51013	0.57587	0.02087	-0.397
Mof_C 	C 	0.57153	0.61217	0.04707	0.596
Mof_H 	H 	0.60893	0.57757	0.22827	0.538
Mof_O 	O 	0.05063	0.34847	0.32377	-0.4
Mof_O 	O 	0.0496	0.2842	0.4467	-0.593
Mof_O 	O 	0.0013	0.4133	0.6167	-0.805
Mof_O 	O 	0.0579	0.3457	0.5777	-1.351
Mof_O 	O 	0.04955	0.39656	0.4578	-0.704
Mof_O 	O 	0.018	0.2355	0.3901	-0.222
Mof_O 	O 	0.8114	0.4551	0.4038	-0.194
Mof_O 	O 	0.7836	0.3571	0.432	-0.056
Mof_O 	O 	0.852	0.4077	0.3544	-0.179
Mof_O 	O 	0.1608	0.2324	0.1411	-0.34
Mof_C 	C 	0.0864	0.2574	0.2865	0.066
Mof_H 	H 	0.055	0.2526	0.2639	0.005
Mof_C 	C 	0.8964	0.4043	0.5025	0.242
Mof_H 	H 	0.8813	0.3677	0.4879	-0.034
Mof_C 	C 	0.9653	0.3928	0.5711	0.702
Mof_C 	C 	0.9393	0.4263	0.5491	-0.323
Mof_C 	C 	0.0908	0.2676	0.3542	-0.082
Mof_C 	C 	0.0545	0.2927	0.3804	0.418
Mof_H 	H 	0.0891	0.3647	0.5616	0.531
Mof_O 	O 	0.3182	0.0355	0.6571	-0.427
Mof_O 	O 	0.71627	0.61753	0.78003	-0.608
Mof_O 	O 	0.66797	0.74663	0.95003	-0.646
Mof_O 	O 	0.72457	0.67903	0.91103	-1.303
Mof_O 	O 	0.71622	0.72989	0.79113	-0.74
Mof_O 	O 	0.68467	0.56883	0.72343	-0.186
Mof_O 	O 	0.47807	0.78843	0.73713	-0.205
Mof_O 	O 	0.45027	0.69043	0.76533	-0.031
Mof_O 	O 	0.51867	0.74103	0.68773	-0.181
Mof_O 	O 	0.82747	0.56573	0.47443	-0.323
Mof_C 	C 	0.75307	0.59073	0.61983	0.054
Mof_H 	H 	0.72167	0.58593	0.59723	0.026
Mof_C 	C 	0.56307	0.73763	0.83583	0.201
Mof_H 	H 	0.54797	0.70103	0.82123	-0.015
Mof_C 	C 	0.63197	0.72613	0.90443	0.598
Mof_C 	C 	0.60597	0.75963	0.88243	-0.266
Mof_C 	C 	0.75747	0.60093	0.68753	-0.065
Mof_C 	C 	0.72117	0.62603	0.71373	0.406
Mof_H 	H 	0.75577	0.69803	0.89493	0.527
Mof_O 	O 	0.98487	0.36883	0.99043	0.233
Mof_O 	O 	0.38293	0.95087	0.11337	-0.64
Mof_O 	O 	0.33463	0.07997	0.28337	-0.749
Mof_O 	O 	0.39123	0.01237	0.24437	-1.457
Mof_O 	O 	0.38288	0.06323	0.12447	-0.801
Mof_O 	O 	0.35133	0.90217	0.05677	-0.212
Mof_O 	O 	0.14473	0.12177	0.07047	-0.184
Mof_O 	O 	0.11693	0.02377	0.09867	-0.156
Mof_O 	O 	0.18533	0.07437	0.02107	-0.211
Mof_O 	O 	0.49413	0.89907	0.80777	-0.334
Mof_C 	C 	0.41973	0.92407	0.95317	0.378
Mof_H 	H 	0.38833	0.91927	0.93057	-0.051
Mof_C 	C 	0.22973	0.07097	0.16917	0.236
Mof_H 	H 	0.21463	0.03437	0.15457	-0.053
Mof_C 	C 	0.29863	0.05947	0.23777	0.634
Mof_C 	C 	0.27263	0.09297	0.21577	-0.33
Mof_C 	C 	0.42413	0.93427	0.02087	-0.33
Mof_C 	C 	0.38783	0.95937	0.04707	0.519
Mof_H 	H 	0.42243	0.03137	0.22827	0.548
Mof_O 	O 	0.65153	0.70217	0.32377	-0.394
Mof_O 	O 	0.7158	0.7654	0.4467	-0.605
Mof_O 	O 	0.5867	0.588	0.6167	-0.744
Mof_O 	O 	0.6543	0.7122	0.5777	-1.385
Mof_O 	O 	0.60344	0.65299	0.4578	-0.746
Mof_O 	O 	0.7645	0.7825	0.3901	-0.177
Mof_O 	O 	0.5449	0.3563	0.4038	-0.195
Mof_O 	O 	0.6429	0.4265	0.432	-0.053
Mof_O 	O 	0.5923	0.4443	0.3544	-0.18
Mof_O 	O 	0.7676	0.9284	0.1411	-0.297
Mof_C 	C 	0.7426	0.829	0.2865	0.042
Mof_H 	H 	0.7474	0.8024	0.2639	0.033
Mof_C 	C 	0.5957	0.4921	0.5025	0.22
Mof_H 	H 	0.6323	0.5136	0.4879	-0.027
Mof_C 	C 	0.6072	0.5725	0.5711	0.619
Mof_C 	C 	0.5737	0.513	0.5491	-0.304
Mof_C 	C 	0.7324	0.8232	0.3542	-0.049
Mof_C 	C 	0.7073	0.7618	0.3804	0.397
Mof_H 	H 	0.6353	0.7244	0.5616	0.54
Mof_O 	O 	0.9645	0.2827	0.6571	-0.34
Mof_O 	O 	0.38247	0.09873	0.78003	-0.577
Mof_O 	O 	0.25337	0.92133	0.95003	-0.571
Mof_O 	O 	0.32097	0.04553	0.91103	-1.216
Mof_O 	O 	0.27011	0.98632	0.79113	-0.652
Mof_O 	O 	0.43117	0.11583	0.72343	-0.195
Mof_O 	O 	0.21157	0.68963	0.73713	-0.205
Mof_O 	O 	0.30957	0.75983	0.76533	-0.029
Mof_O 	O 	0.25897	0.77763	0.68773	-0.183
Mof_O 	O 	0.43427	0.26173	0.47443	-0.325
Mof_C 	C 	0.40927	0.16233	0.61983	0.05
Mof_H 	H 	0.41407	0.13573	0.59723	0.028
Mof_C 	C 	0.26237	0.82543	0.83583	0.196
Mof_H 	H 	0.29897	0.84693	0.82123	-0.014
Mof_C 	C 	0.27387	0.90583	0.90443	0.562
Mof_C 	C 	0.24037	0.84633	0.88243	-0.254
Mof_C 	C 	0.39907	0.15653	0.68753	-0.058
Mof_C 	C 	0.37397	0.09513	0.71373	0.394
Mof_H 	H 	0.30197	0.05773	0.89493	0.495
Mof_O 	O 	0.63117	0.61603	0.99043	0.017
Mof_O 	O 	0.04913	0.43207	0.11337	-0.647
Mof_O 	O 	0.92003	0.25467	0.28337	-0.739
Mof_O 	O 	0.98763	0.37887	0.24437	-1.318
Mof_O 	O 	0.93677	0.31966	0.12447	-0.686
Mof_O 	O 	0.09783	0.44917	0.05677	-0.213
Mof_O 	O 	0.87823	0.02297	0.07047	-0.222
Mof_O 	O 	0.97623	0.09317	0.09867	-0.071
Mof_O 	O 	0.92563	0.11097	0.02107	-0.182
Mof_O 	O 	0.10093	0.59507	0.80777	-0.349
Mof_C 	C 	0.07593	0.49567	0.95317	0.455
Mof_H 	H 	0.08073	0.46907	0.93057	-0.088
Mof_C 	C 	0.92903	0.15877	0.16917	0.211
Mof_H 	H 	0.96563	0.18027	0.15457	-0.002
Mof_C 	C 	0.94053	0.23917	0.23777	0.608
Mof_C 	C 	0.90703	0.17967	0.21577	-0.287
Mof_C 	C 	0.06573	0.48987	0.02087	-0.455
Mof_C 	C 	0.04063	0.42847	0.04707	0.648
Mof_H 	H 	0.96863	0.39107	0.22827	0.529
Mof_O 	O 	0.29783	0.94937	0.32377	-0.391
Mof_O 	O 	0.9504	0.2346	0.5533	-0.547
Mof_O 	O 	0.9987	0.412	0.3833	-0.664
Mof_O 	O 	0.9421	0.2878	0.4223	-1.32
Mof_O 	O 	0.95045	0.34701	0.5422	-0.709
Mof_O 	O 	0.982	0.2175	0.6099	-0.156
Mof_O 	O 	0.1886	0.6437	0.5962	-0.194
Mof_O 	O 	0.2164	0.5735	0.568	-0.049
Mof_O 	O 	0.148	0.5557	0.6456	-0.179
Mof_O 	O 	0.8392	0.0716	0.8589	-0.322
Mof_C 	C 	0.9136	0.171	0.7135	0.046
Mof_H 	H 	0.945	0.1976	0.7361	0.044
Mof_C 	C 	0.1036	0.5079	0.4975	0.181
Mof_H 	H 	0.1187	0.4864	0.5121	-0.013
Mof_C 	C 	0.0347	0.4275	0.4289	0.504
Mof_C 	C 	0.0607	0.487	0.4509	-0.264
Mof_C 	C 	0.9092	0.1768	0.6458	-0.055
Mof_C 	C 	0.9455	0.2382	0.6196	0.383
Mof_H 	H 	0.9109	0.2756	0.4384	0.525
Mof_O 	O 	0.6818	0.7173	0.3429	-0.385
Mof_O 	O 	0.61707	0.56793	0.88663	-0.564
Mof_O 	O 	0.66537	0.74533	0.71663	-0.741
Mof_O 	O 	0.60877	0.62113	0.75563	-1.386
Mof_O 	O 	0.61712	0.68034	0.87553	-0.716
Mof_O 	O 	0.64867	0.55083	0.94323	-0.151
Mof_O 	O 	0.85527	0.97703	0.92953	-0.182
Mof_O 	O 	0.88307	0.90683	0.90133	0.061
Mof_O 	O 	0.81467	0.88903	0.97893	-0.153
Mof_O 	O 	0.50587	0.40493	0.19223	-0.309
Mof_C 	C 	0.58027	0.50433	0.04683	-0.314
Mof_H 	H 	0.61167	0.53093	0.06943	0.129
Mof_C 	C 	0.77027	0.84123	0.83083	0.198
Mof_H 	H 	0.78537	0.81973	0.84543	-0.009
Mof_C 	C 	0.70137	0.76083	0.76223	0.612
Mof_C 	C 	0.72737	0.82033	0.78423	-0.281
Mof_C 	C 	0.57587	0.51013	0.97913	0.274
Mof_C 	C 	0.61217	0.57153	0.95293	0.198
Mof_H 	H 	0.57757	0.60893	0.77173	0.54
Mof_O 	O 	0.34847	0.05063	0.67623	-0.401
Mof_O 	O 	0.28373	0.90127	0.21997	-0.641
Mof_O 	O 	0.33203	0.07867	0.04997	-0.7
Mof_O 	O 	0.27543	0.95447	0.08897	-1.301
Mof_O 	O 	0.28378	0.01368	0.20887	-0.827
Mof_O 	O 	0.31533	0.88417	0.27657	-0.179
Mof_O 	O 	0.52193	0.31037	0.26287	-0.185
Mof_O 	O 	0.54973	0.24017	0.23467	-0.072
Mof_O 	O 	0.48133	0.22237	0.31227	-0.176
Mof_O 	O 	0.17253	0.73827	0.52557	-0.324
Mof_C 	C 	0.24693	0.83767	0.38017	0.055
Mof_H 	H 	0.27833	0.86427	0.40277	0.029
Mof_C 	C 	0.43693	0.17457	0.16417	0.219
Mof_H 	H 	0.45203	0.15307	0.17877	-0.031
Mof_C 	C 	0.36803	0.09417	0.09557	0.608
Mof_C 	C 	0.39403	0.15367	0.11757	-0.314
Mof_C 	C 	0.24253	0.84347	0.31247	-0.07
Mof_C 	C 	0.27883	0.90487	0.28627	0.423
Mof_H 	H 	0.24423	0.94227	0.10507	0.52
Mof_O 	O 	0.01513	0.38397	0.00957	-0.923
Mof_O 	O 	0.2842	0.0496	0.5533	-0.589
Mof_O 	O 	0.4133	0.0013	0.3833	-0.818
Mof_O 	O 	0.3457	0.0579	0.4223	-1.344
Mof_O 	O 	0.39656	0.04955	0.5422	-0.696
Mof_O 	O 	0.2355	0.018	0.6099	-0.226
Mof_O 	O 	0.4551	0.8114	0.5962	-0.193
Mof_O 	O 	0.3571	0.7836	0.568	-0.058
Mof_O 	O 	0.4077	0.852	0.6456	-0.178
Mof_O 	O 	0.2324	0.1608	0.8589	-0.31
Mof_C 	C 	0.2574	0.0864	0.7135	0.067
Mof_H 	H 	0.2526	0.055	0.7361	0.002
Mof_C 	C 	0.4043	0.8964	0.4975	0.247
Mof_H 	H 	0.3677	0.8813	0.5121	-0.036
Mof_C 	C 	0.3928	0.9653	0.4289	0.72
Mof_C 	C 	0.4263	0.9393	0.4509	-0.327
Mof_C 	C 	0.2676	0.0908	0.6458	-0.084
Mof_C 	C 	0.2927	0.0545	0.6196	0.419
Mof_H 	H 	0.3647	0.0891	0.4384	0.53
Mof_O 	O 	0.0355	0.3182	0.3429	-0.422
Mof_O 	O 	0.95087	0.38293	0.88663	-0.559
Mof_O 	O 	0.07997	0.33463	0.71663	-0.747
Mof_O 	O 	0.01237	0.39123	0.75563	-1.444
Mof_O 	O 	0.06323	0.38288	0.87553	-0.754
Mof_O 	O 	0.90217	0.35133	0.94323	-0.148
Mof_O 	O 	0.12177	0.14473	0.92953	-0.174
Mof_O 	O 	0.02377	0.11693	0.90133	-0.066
Mof_O 	O 	0.07437	0.18533	0.97893	-0.159
Mof_O 	O 	0.89907	0.49413	0.19223	-0.303
Mof_C 	C 	0.92407	0.41973	0.04683	-0.328
Mof_H 	H 	0.91927	0.38833	0.06943	0.141
Mof_C 	C 	0.07097	0.22973	0.83083	0.221
Mof_H 	H 	0.03437	0.21463	0.84543	-0.037
Mof_C 	C 	0.05947	0.29863	0.76223	0.627
Mof_C 	C 	0.09297	0.27263	0.78423	-0.317
Mof_C 	C 	0.93427	0.42413	0.97913	0.315
Mof_C 	C 	0.95937	0.38783	0.95293	0.135
Mof_H 	H 	0.03137	0.42243	0.77173	0.548
Mof_O 	O 	0.70217	0.65153	0.67623	-0.393
Mof_O 	O 	0.61753	0.71627	0.21997	-0.612
Mof_O 	O 	0.74663	0.66797	0.04997	-0.727
Mof_O 	O 	0.67903	0.72457	0.08897	-1.336
Mof_O 	O 	0.72989	0.71622	0.20887	-0.743
Mof_O 	O 	0.56883	0.68467	0.27657	-0.188
Mof_O 	O 	0.78843	0.47807	0.26287	-0.185
Mof_O 	O 	0.69043	0.45027	0.23467	-0.073
Mof_O 	O 	0.74103	0.51867	0.31227	-0.176
Mof_O 	O 	0.56573	0.82747	0.52557	-0.322
Mof_C 	C 	0.59073	0.75307	0.38017	0.057
Mof_H 	H 	0.58593	0.72167	0.40277	0.025
Mof_C 	C 	0.73763	0.56307	0.16417	0.21
Mof_H 	H 	0.70103	0.54797	0.17877	-0.029
Mof_C 	C 	0.72613	0.63197	0.09557	0.599
Mof_C 	C 	0.75963	0.60597	0.11757	-0.306
Mof_C 	C 	0.60093	0.75747	0.31247	-0.07
Mof_C 	C 	0.62603	0.72117	0.28627	0.409
Mof_H 	H 	0.69803	0.75577	0.10507	0.518
Mof_O 	O 	0.36883	0.98487	0.00957	-0.491
Mof_O 	O 	0.7654	0.7158	0.5533	-0.605
Mof_O 	O 	0.588	0.5867	0.3833	-0.744
Mof_O 	O 	0.7122	0.6543	0.4223	-1.385
Mof_O 	O 	0.65299	0.60344	0.5422	-0.746
Mof_O 	O 	0.7825	0.7645	0.6099	-0.176
Mof_O 	O 	0.3563	0.5449	0.5962	-0.194
Mof_O 	O 	0.4265	0.6429	0.568	-0.054
Mof_O 	O 	0.4443	0.5923	0.6456	-0.179
Mof_O 	O 	0.9284	0.7676	0.8589	-0.275
Mof_C 	C 	0.829	0.7426	0.7135	0.044
Mof_H 	H 	0.8024	0.7474	0.7361	0.033
Mof_C 	C 	0.4921	0.5957	0.4975	0.219
Mof_H 	H 	0.5136	0.6323	0.5121	-0.027
Mof_C 	C 	0.5725	0.6072	0.4289	0.619
Mof_C 	C 	0.513	0.5737	0.4509	-0.304
Mof_C 	C 	0.8232	0.7324	0.6458	-0.05
Mof_C 	C 	0.7618	0.7073	0.6196	0.398
Mof_H 	H 	0.7244	0.6353	0.4384	0.54
Mof_O 	O 	0.2827	0.9645	0.3429	-0.328
Mof_O 	O 	0.43207	0.04913	0.88663	-0.565
Mof_O 	O 	0.25467	0.92003	0.71663	-0.738
Mof_O 	O 	0.37887	0.98763	0.75563	-1.31
Mof_O 	O 	0.31966	0.93677	0.87553	-0.643
Mof_O 	O 	0.44917	0.09783	0.94323	-0.147
Mof_O 	O 	0.02297	0.87823	0.92953	-0.212
Mof_O 	O 	0.09317	0.97623	0.90133	0.025
Mof_O 	O 	0.11097	0.92563	0.97893	-0.13
Mof_O 	O 	0.59507	0.10093	0.19223	-0.317
Mof_C 	C 	0.49567	0.07593	0.04683	-0.277
Mof_H 	H 	0.46907	0.08073	0.06943	0.111
Mof_C 	C 	0.15877	0.92903	0.83083	0.196
Mof_H 	H 	0.18027	0.96563	0.84543	0.015
Mof_C 	C 	0.23917	0.94053	0.76223	0.601
Mof_C 	C 	0.17967	0.90703	0.78423	-0.273
Mof_C 	C 	0.48987	0.06573	0.97913	0.212
Mof_C 	C 	0.42847	0.04063	0.95293	0.258
Mof_H 	H 	0.39107	0.96863	0.77173	0.53
Mof_O 	O 	0.94937	0.29783	0.67623	-0.389
Mof_O 	O 	0.09873	0.38247	0.21997	-0.585
Mof_O 	O 	0.92133	0.25337	0.04997	-0.66
Mof_O 	O 	0.04553	0.32097	0.08897	-1.26
Mof_O 	O 	0.98632	0.27011	0.20887	-0.666
Mof_O 	O 	0.11583	0.43117	0.27657	-0.195
Mof_O 	O 	0.68963	0.21157	0.26287	-0.184
Mof_O 	O 	0.75983	0.30957	0.23467	-0.072
Mof_O 	O 	0.77763	0.25897	0.31227	-0.178
Mof_O 	O 	0.26173	0.43427	0.52557	-0.326
Mof_C 	C 	0.16233	0.40927	0.38017	0.053
Mof_H 	H 	0.13573	0.41407	0.40277	0.027
Mof_C 	C 	0.82543	0.26237	0.16417	0.206
Mof_H 	H 	0.84693	0.29897	0.17877	-0.028
Mof_C 	C 	0.90583	0.27387	0.09557	0.568
Mof_C 	C 	0.84633	0.24037	0.11757	-0.295
Mof_C 	C 	0.15653	0.39907	0.31247	-0.063
Mof_C 	C 	0.09513	0.37397	0.28627	0.398
Mof_H 	H 	0.05773	0.30197	0.10507	0.489
Mof_O 	O 	0.61603	0.63117	0.00957	-0.747
Mof_O 	O 	0.7654	0.0496	0.5533	-0.585
Mof_O 	O 	0.588	0.0013	0.3833	-0.818
Mof_O 	O 	0.7122	0.0579	0.4223	-1.344
Mof_O 	O 	0.65299	0.04955	0.5422	-0.696
Mof_O 	O 	0.7825	0.018	0.6099	-0.217
Mof_O 	O 	0.3563	0.8114	0.5962	-0.193
Mof_O 	O 	0.4265	0.7836	0.568	-0.058
Mof_O 	O 	0.4443	0.852	0.6456	-0.178
Mof_O 	O 	0.9284	0.1608	0.8589	-0.282
Mof_C 	C 	0.829	0.0864	0.7135	0.057
Mof_H 	H 	0.8024	0.055	0.7361	0.008
Mof_C 	C 	0.4921	0.8964	0.4975	0.247
Mof_H 	H 	0.5136	0.8813	0.5121	-0.036
Mof_C 	C 	0.5725	0.9653	0.4289	0.719
Mof_C 	C 	0.513	0.9393	0.4509	-0.327
Mof_C 	C 	0.8232	0.0908	0.6458	-0.069
Mof_C 	C 	0.7618	0.0545	0.6196	0.412
Mof_H 	H 	0.7244	0.0891	0.4384	0.53
Mof_O 	O 	0.2827	0.3182	0.3429	-0.394
Mof_O 	O 	0.43207	0.38293	0.88663	-0.564
Mof_O 	O 	0.25467	0.33463	0.71663	-0.745
Mof_O 	O 	0.37887	0.39123	0.75563	-1.386
Mof_O 	O 	0.31966	0.38288	0.87553	-0.716
Mof_O 	O 	0.44917	0.35133	0.94323	-0.15
Mof_O 	O 	0.02297	0.14473	0.92953	-0.191
Mof_O 	O 	0.09317	0.11693	0.90133	-0.058
Mof_O 	O 	0.11097	0.18533	0.97893	-0.15
Mof_O 	O 	0.59507	0.49413	0.19223	-0.309
Mof_C 	C 	0.49567	0.41973	0.04683	-0.315
Mof_H 	H 	0.46907	0.38833	0.06943	0.129
Mof_C 	C 	0.15877	0.22973	0.83083	0.216
Mof_H 	H 	0.18027	0.21463	0.84543	-0.021
Mof_C 	C 	0.23917	0.29863	0.76223	0.618
Mof_C 	C 	0.17967	0.27263	0.78423	-0.306
Mof_C 	C 	0.48987	0.42413	0.97913	0.276
Mof_C 	C 	0.42847	0.38783	0.95293	0.195
Mof_H 	H 	0.39107	0.42243	0.77173	0.541
Mof_O 	O 	0.94937	0.65153	0.67623	-0.392
Mof_O 	O 	0.09873	0.71627	0.21997	-0.586
Mof_O 	O 	0.92133	0.66797	0.04997	-0.661
Mof_O 	O 	0.04553	0.72457	0.08897	-1.26
Mof_O 	O 	0.98632	0.71622	0.20887	-0.666
Mof_O 	O 	0.11583	0.68467	0.27657	-0.196
Mof_O 	O 	0.68963	0.47807	0.26287	-0.184
Mof_O 	O 	0.75983	0.45027	0.23467	-0.073
Mof_O 	O 	0.77763	0.51867	0.31227	-0.177
Mof_O 	O 	0.26173	0.82747	0.52557	-0.322
Mof_C 	C 	0.16233	0.75307	0.38017	0.053
Mof_H 	H 	0.13573	0.72167	0.40277	0.026
Mof_C 	C 	0.82543	0.56307	0.16417	0.206
Mof_H 	H 	0.84693	0.54797	0.17877	-0.028
Mof_C 	C 	0.90583	0.63197	0.09557	0.568
Mof_C 	C 	0.84633	0.60597	0.11757	-0.296
Mof_C 	C 	0.15653	0.75747	0.31247	-0.065
Mof_C 	C 	0.09513	0.72117	0.28627	0.4
Mof_H 	H 	0.05773	0.75577	0.10507	0.489
Mof_O 	O 	0.61603	0.98487	0.00957	-0.484
Mof_O 	O 	0.9504	0.7158	0.5533	-0.543
Mof_O 	O 	0.9987	0.5867	0.3833	-0.665
Mof_O 	O 	0.9421	0.6543	0.4223	-1.32
Mof_O 	O 	0.95045	0.60344	0.5422	-0.71
Mof_O 	O 	0.982	0.7645	0.6099	-0.146
Mof_O 	O 	0.1886	0.5449	0.5962	-0.194
Mof_O 	O 	0.2164	0.6429	0.568	-0.049
Mof_O 	O 	0.148	0.5923	0.6456	-0.179
Mof_O 	O 	0.8392	0.7676	0.8589	-0.296
Mof_C 	C 	0.9136	0.7426	0.7135	0.038
Mof_H 	H 	0.945	0.7474	0.7361	0.049
Mof_C 	C 	0.1036	0.5957	0.4975	0.181
Mof_H 	H 	0.1187	0.6323	0.5121	-0.013
Mof_C 	C 	0.0347	0.6072	0.4289	0.505
Mof_C 	C 	0.0607	0.5737	0.4509	-0.264
Mof_C 	C 	0.9092	0.7324	0.6458	-0.042
Mof_C 	C 	0.9455	0.7073	0.6196	0.376
Mof_H 	H 	0.9109	0.6353	0.4384	0.525
Mof_O 	O 	0.6818	0.9645	0.3429	-0.325
Mof_O 	O 	0.61707	0.04913	0.88663	-0.566
Mof_O 	O 	0.66537	0.92003	0.71663	-0.736
Mof_O 	O 	0.60877	0.98763	0.75563	-1.31
Mof_O 	O 	0.61712	0.93677	0.87553	-0.645
Mof_O 	O 	0.64867	0.09783	0.94323	-0.149
Mof_O 	O 	0.85527	0.87823	0.92953	-0.209
Mof_O 	O 	0.88307	0.97623	0.90133	0.07
Mof_O 	O 	0.81467	0.92563	0.97893	-0.133
Mof_O 	O 	0.50587	0.10093	0.19223	-0.317
Mof_C 	C 	0.58027	0.07593	0.04683	-0.275
Mof_H 	H 	0.61167	0.08073	0.06943	0.111
Mof_C 	C 	0.77027	0.92903	0.83083	0.19
Mof_H 	H 	0.78537	0.96563	0.84543	0.018
Mof_C 	C 	0.70137	0.94053	0.76223	0.6
Mof_C 	C 	0.72737	0.90703	0.78423	-0.264
Mof_C 	C 	0.57587	0.06573	0.97913	0.21
Mof_C 	C 	0.61217	0.04063	0.95293	0.262
Mof_H 	H 	0.57757	0.96863	0.77173	0.53
Mof_O 	O 	0.34847	0.29783	0.67623	-0.386
Mof_O 	O 	0.28373	0.38247	0.21997	-0.61
Mof_O 	O 	0.33203	0.25337	0.04997	-0.727
Mof_O 	O 	0.27543	0.32097	0.08897	-1.334
Mof_O 	O 	0.28378	0.27011	0.20887	-0.745
Mof_O 	O 	0.31533	0.43117	0.27657	-0.188
Mof_O 	O 	0.52193	0.21157	0.26287	-0.184
Mof_O 	O 	0.54973	0.30957	0.23467	-0.072
Mof_O 	O 	0.48133	0.25897	0.31227	-0.177
Mof_O 	O 	0.17253	0.43427	0.52557	-0.324
Mof_C 	C 	0.24693	0.40927	0.38017	0.054
Mof_H 	H 	0.27833	0.41407	0.40277	0.026
Mof_C 	C 	0.43693	0.26237	0.16417	0.217
Mof_H 	H 	0.45203	0.29897	0.17877	-0.031
Mof_C 	C 	0.36803	0.27387	0.09557	0.601
Mof_C 	C 	0.39403	0.24037	0.11757	-0.312
Mof_C 	C 	0.24253	0.39907	0.31247	-0.065
Mof_C 	C 	0.27883	0.37397	0.28627	0.406
Mof_H 	H 	0.24423	0.30197	0.10507	0.517
Mof_O 	O 	0.01513	0.63117	0.00957	-0.924
Mof_O 	O 	0.2842	0.2346	0.5533	-0.613
Mof_O 	O 	0.4133	0.412	0.3833	-0.744
Mof_O 	O 	0.3457	0.2878	0.4223	-1.386
Mof_O 	O 	0.39656	0.34701	0.5422	-0.746
Mof_O 	O 	0.2355	0.2175	0.6099	-0.196
Mof_O 	O 	0.4551	0.6437	0.5962	-0.194
Mof_O 	O 	0.3571	0.5735	0.568	-0.054
Mof_O 	O 	0.4077	0.5557	0.6456	-0.179
Mof_O 	O 	0.2324	0.0716	0.8589	-0.328
Mof_C 	C 	0.2574	0.171	0.7135	0.061
Mof_H 	H 	0.2526	0.1976	0.7361	0.021
Mof_C 	C 	0.4043	0.5079	0.4975	0.219
Mof_H 	H 	0.3677	0.4864	0.5121	-0.027
Mof_C 	C 	0.3928	0.4275	0.4289	0.619
Mof_C 	C 	0.4263	0.487	0.4509	-0.304
Mof_C 	C 	0.2676	0.1768	0.6458	-0.077
Mof_C 	C 	0.2927	0.2382	0.6196	0.413
Mof_H 	H 	0.3647	0.2756	0.4384	0.539
Mof_O 	O 	0.0355	0.7173	0.3429	-0.416
Mof_O 	O 	0.95087	0.56793	0.88663	-0.558
Mof_O 	O 	0.07997	0.74533	0.71663	-0.745
Mof_O 	O 	0.01237	0.62113	0.75563	-1.443
Mof_O 	O 	0.06323	0.68034	0.87553	-0.753
Mof_O 	O 	0.90217	0.55083	0.94323	-0.148
Mof_O 	O 	0.12177	0.97703	0.92953	-0.168
Mof_O 	O 	0.02377	0.90683	0.90133	0.006
Mof_O 	O 	0.07437	0.88903	0.97893	-0.16
Mof_O 	O 	0.89907	0.40493	0.19223	-0.303
Mof_C 	C 	0.92407	0.50433	0.04683	-0.329
Mof_H 	H 	0.91927	0.53093	0.06943	0.141
Mof_C 	C 	0.07097	0.84123	0.83083	0.209
Mof_H 	H 	0.03437	0.81973	0.84543	-0.029
Mof_C 	C 	0.05947	0.76083	0.76223	0.623
Mof_C 	C 	0.09297	0.82033	0.78423	-0.302
Mof_C 	C 	0.93427	0.51013	0.97913	0.316
Mof_C 	C 	0.95937	0.57153	0.95293	0.135
Mof_H 	H 	0.03137	0.60893	0.77173	0.548
Mof_O 	O 	0.70217	0.05063	0.67623	-0.403
Mof_O 	O 	0.61753	0.90127	0.21997	-0.641
Mof_O 	O 	0.74663	0.07867	0.04997	-0.7
Mof_O 	O 	0.67903	0.95447	0.08897	-1.304
Mof_O 	O 	0.72989	0.01368	0.20887	-0.825
Mof_O 	O 	0.56883	0.88417	0.27657	-0.179
Mof_O 	O 	0.78843	0.31037	0.26287	-0.186
Mof_O 	O 	0.69043	0.24017	0.23467	-0.072
Mof_O 	O 	0.74103	0.22237	0.31227	-0.175
Mof_O 	O 	0.56573	0.73827	0.52557	-0.326
Mof_C 	C 	0.59073	0.83767	0.38017	0.057
Mof_H 	H 	0.58593	0.86427	0.40277	0.028
Mof_C 	C 	0.73763	0.17457	0.16417	0.213
Mof_H 	H 	0.70103	0.15307	0.17877	-0.029
Mof_C 	C 	0.72613	0.09417	0.09557	0.606
Mof_C 	C 	0.75963	0.15367	0.11757	-0.307
Mof_C 	C 	0.60093	0.84347	0.31247	-0.073
Mof_C 	C 	0.62603	0.90487	0.28627	0.424
Mof_H 	H 	0.69803	0.94227	0.10507	0.52
Mof_O 	O 	0.36883	0.38397	0.00957	-0.753
Mof_O 	O 	0.0496	0.7654	0.4467	-0.588
Mof_O 	O 	0.0013	0.588	0.6167	-0.805
Mof_O 	O 	0.0579	0.7122	0.5777	-1.351
Mof_O 	O 	0.04955	0.65299	0.4578	-0.704
Mof_O 	O 	0.018	0.7825	0.3901	-0.211
Mof_O 	O 	0.8114	0.3563	0.4038	-0.194
Mof_O 	O 	0.7836	0.4265	0.432	-0.056
Mof_O 	O 	0.852	0.4443	0.3544	-0.179
Mof_O 	O 	0.1608	0.9284	0.1411	-0.303
Mof_C 	C 	0.0864	0.829	0.2865	0.054
Mof_H 	H 	0.055	0.8024	0.2639	0.012
Mof_C 	C 	0.8964	0.4921	0.5025	0.242
Mof_H 	H 	0.8813	0.5136	0.4879	-0.034
Mof_C 	C 	0.9653	0.5725	0.5711	0.702
Mof_C 	C 	0.9393	0.513	0.5491	-0.323
Mof_C 	C 	0.0908	0.8232	0.3542	-0.065
Mof_C 	C 	0.0545	0.7618	0.3804	0.409
Mof_H 	H 	0.0891	0.7244	0.5616	0.532
Mof_O 	O 	0.3182	0.2827	0.6571	-0.395
Mof_O 	O 	0.71627	0.09873	0.78003	-0.578
Mof_O 	O 	0.66797	0.92133	0.95003	-0.576
Mof_O 	O 	0.72457	0.04553	0.91103	-1.221
Mof_O 	O 	0.71622	0.98632	0.79113	-0.652
Mof_O 	O 	0.68467	0.11583	0.72343	-0.195
Mof_O 	O 	0.47807	0.68963	0.73713	-0.205
Mof_O 	O 	0.45027	0.75983	0.76533	-0.031
Mof_O 	O 	0.51867	0.77763	0.68773	-0.183
Mof_O 	O 	0.82747	0.26173	0.47443	-0.322
Mof_C 	C 	0.75307	0.16233	0.61983	0.05
Mof_H 	H 	0.72167	0.13573	0.59723	0.028
Mof_C 	C 	0.56307	0.82543	0.83583	0.196
Mof_H 	H 	0.54797	0.84693	0.82123	-0.014
Mof_C 	C 	0.63197	0.90583	0.90443	0.563
Mof_C 	C 	0.60597	0.84633	0.88243	-0.256
Mof_C 	C 	0.75747	0.15653	0.68753	-0.059
Mof_C 	C 	0.72117	0.09513	0.71373	0.395
Mof_H 	H 	0.75577	0.05773	0.89493	0.495
Mof_O 	O 	0.98487	0.61603	0.99043	0.234
Mof_O 	O 	0.38293	0.43207	0.11337	-0.647
Mof_O 	O 	0.33463	0.25467	0.28337	-0.745
Mof_O 	O 	0.39123	0.37887	0.24437	-1.385
Mof_O 	O 	0.38288	0.31966	0.12447	-0.751
Mof_O 	O 	0.35133	0.44917	0.05677	-0.216
Mof_O 	O 	0.14473	0.02297	0.07047	-0.204
Mof_O 	O 	0.11693	0.09317	0.09867	-0.146
Mof_O 	O 	0.18533	0.11097	0.02107	-0.201
Mof_O 	O 	0.49413	0.59507	0.80777	-0.343
Mof_C 	C 	0.41973	0.49567	0.95317	0.418
Mof_H 	H 	0.38833	0.46907	0.93057	-0.072
Mof_C 	C 	0.22973	0.15877	0.16917	0.229
Mof_H 	H 	0.21463	0.18027	0.15457	-0.034
Mof_C 	C 	0.29863	0.23917	0.23777	0.622
Mof_C 	C 	0.27263	0.17967	0.21577	-0.316
Mof_C 	C 	0.42413	0.48987	0.02087	-0.399
Mof_C 	C 	0.38783	0.42847	0.04707	0.598
Mof_H 	H 	0.42243	0.39107	0.22827	0.539
Mof_O 	O 	0.65153	0.94937	0.32377	-0.393
Mof_O 	O 	0.7158	0.9504	0.4467	-0.531
Mof_O 	O 	0.5867	0.9987	0.6167	-0.651
Mof_O 	O 	0.6543	0.9421	0.5777	-1.307
Mof_O 	O 	0.60344	0.95045	0.4578	-0.703
Mof_O 	O 	0.7645	0.982	0.3901	-0.139
Mof_O 	O 	0.5449	0.1886	0.4038	-0.196
Mof_O 	O 	0.6429	0.2164	0.432	-0.047
Mof_O 	O 	0.5923	0.148	0.3544	-0.18
Mof_O 	O 	0.7676	0.8392	0.1411	-0.323
Mof_C 	C 	0.7426	0.9136	0.2865	0.036
Mof_H 	H 	0.7474	0.945	0.2639	0.053
Mof_C 	C 	0.5957	0.1036	0.5025	0.174
Mof_H 	H 	0.6323	0.1187	0.4879	-0.011
Mof_C 	C 	0.6072	0.0347	0.5711	0.484
Mof_C 	C 	0.5737	0.0607	0.5491	-0.257
Mof_C 	C 	0.7324	0.9092	0.3542	-0.039
Mof_C 	C 	0.7073	0.9455	0.3804	0.37
Mof_H 	H 	0.6353	0.9109	0.5616	0.522
Mof_O 	O 	0.9645	0.6818	0.6571	-0.337
Mof_O 	O 	0.38247	0.28373	0.78003	-0.606
Mof_O 	O 	0.25337	0.33203	0.95003	-0.643
Mof_O 	O 	0.32097	0.27543	0.91103	-1.3
Mof_O 	O 	0.27011	0.28378	0.79113	-0.742
Mof_O 	O 	0.43117	0.31533	0.72343	-0.186
Mof_O 	O 	0.21157	0.52193	0.73713	-0.205
Mof_O 	O 	0.30957	0.54973	0.76533	-0.029
Mof_O 	O 	0.25897	0.48133	0.68773	-0.182
Mof_O 	O 	0.43427	0.17253	0.47443	-0.324
Mof_C 	C 	0.40927	0.24693	0.61983	0.051
Mof_H 	H 	0.41407	0.27833	0.59723	0.027
Mof_C 	C 	0.26237	0.43693	0.83583	0.207
Mof_H 	H 	0.29897	0.45203	0.82123	-0.017
Mof_C 	C 	0.27387	0.36803	0.90443	0.6
Mof_C 	C 	0.24037	0.39403	0.88243	-0.271
Mof_C 	C 	0.39907	0.24253	0.68753	-0.06
Mof_C 	C 	0.37397	0.27883	0.71373	0.403
Mof_H 	H 	0.30197	0.24423	0.89493	0.527
Mof_O 	O 	0.63117	0.01513	0.99043	-0.201
Mof_O 	O 	0.04913	0.61707	0.11337	-0.647
Mof_O 	O 	0.92003	0.66537	0.28337	-0.737
Mof_O 	O 	0.98763	0.60877	0.24437	-1.319
Mof_O 	O 	0.93677	0.61712	0.12447	-0.687
Mof_O 	O 	0.09783	0.64867	0.05677	-0.213
Mof_O 	O 	0.87823	0.85527	0.07047	-0.219
Mof_O 	O 	0.97623	0.88307	0.09867	-0.011
Mof_O 	O 	0.92563	0.81467	0.02107	-0.183
Mof_O 	O 	0.10093	0.50587	0.80777	-0.349
Mof_C 	C 	0.07593	0.58027	0.95317	0.455
Mof_H 	H 	0.08073	0.61167	0.93057	-0.088
Mof_C 	C 	0.92903	0.77027	0.16917	0.203
Mof_H 	H 	0.96563	0.78537	0.15457	0.004
Mof_C 	C 	0.94053	0.70137	0.23777	0.605
Mof_C 	C 	0.90703	0.72737	0.21577	-0.275
Mof_C 	C 	0.06573	0.57587	0.02087	-0.455
Mof_C 	C 	0.04063	0.61217	0.04707	0.648
Mof_H 	H 	0.96863	0.57757	0.22827	0.529
Mof_O 	O 	0.29783	0.34847	0.32377	-0.388
Mof_O 	O 	0.2346	0.2842	0.4467	-0.613
Mof_O 	O 	0.412	0.4133	0.6167	-0.744
Mof_O 	O 	0.2878	0.3457	0.5777	-1.386
Mof_O 	O 	0.34701	0.39656	0.4578	-0.745
Mof_O 	O 	0.2175	0.2355	0.3901	-0.197
Mof_O 	O 	0.6437	0.4551	0.4038	-0.195
Mof_O 	O 	0.5735	0.3571	0.432	-0.053
Mof_O 	O 	0.5557	0.4077	0.3544	-0.18
Mof_O 	O 	0.0716	0.2324	0.1411	-0.356
Mof_C 	C 	0.171	0.2574	0.2865	0.061
Mof_H 	H 	0.1976	0.2526	0.2639	0.021
Mof_C 	C 	0.5079	0.4043	0.5025	0.22
Mof_H 	H 	0.4864	0.3677	0.4879	-0.027
Mof_C 	C 	0.4275	0.3928	0.5711	0.619
Mof_C 	C 	0.487	0.4263	0.5491	-0.304
Mof_C 	C 	0.1768	0.2676	0.3542	-0.077
Mof_C 	C 	0.2382	0.2927	0.3804	0.413
Mof_H 	H 	0.2756	0.3647	0.5616	0.539
Mof_O 	O 	0.7173	0.0355	0.6571	-0.423
Mof_O 	O 	0.90127	0.61753	0.78003	-0.631
Mof_O 	O 	0.07867	0.74663	0.95003	-0.616
Mof_O 	O 	0.95447	0.67903	0.91103	-1.27
Mof_O 	O 	0.01368	0.72989	0.79113	-0.805
Mof_O 	O 	0.88417	0.56883	0.72343	-0.179
Mof_O 	O 	0.31037	0.78843	0.73713	-0.206
Mof_O 	O 	0.24017	0.69043	0.76533	-0.029
Mof_O 	O 	0.22237	0.74103	0.68773	-0.181
Mof_O 	O 	0.73827	0.56573	0.47443	-0.325
Mof_C 	C 	0.83767	0.59073	0.61983	0.055
Mof_H 	H 	0.86427	0.58593	0.59723	0.029
Mof_C 	C 	0.17457	0.73763	0.83583	0.203
Mof_H 	H 	0.15307	0.70103	0.82123	-0.015
Mof_C 	C 	0.09417	0.72613	0.90443	0.601
Mof_C 	C 	0.15367	0.75963	0.88243	-0.266
Mof_C 	C 	0.84347	0.60093	0.68753	-0.067
Mof_C 	C 	0.90487	0.62603	0.71373	0.419
Mof_H 	H 	0.94227	0.69803	0.89493	0.527
Mof_O 	O 	0.38397	0.36883	0.99043	0.027
Mof_O 	O 	0.56793	0.95087	0.11337	-0.639
Mof_O 	O 	0.74533	0.07997	0.28337	-0.747
Mof_O 	O 	0.62113	0.01237	0.24437	-1.456
Mof_O 	O 	0.68034	0.06323	0.12447	-0.8
Mof_O 	O 	0.55083	0.90217	0.05677	-0.212
Mof_O 	O 	0.97703	0.12177	0.07047	-0.178
Mof_O 	O 	0.90683	0.02377	0.09867	-0.091
Mof_O 	O 	0.88903	0.07437	0.02107	-0.211
Mof_O 	O 	0.40493	0.89907	0.80777	-0.334
Mof_C 	C 	0.50433	0.92407	0.95317	0.376
Mof_H 	H 	0.53093	0.91927	0.93057	-0.052
Mof_C 	C 	0.84123	0.07097	0.16917	0.225
Mof_H 	H 	0.81973	0.03437	0.15457	-0.046
Mof_C 	C 	0.76083	0.05947	0.23777	0.631
Mof_C 	C 	0.82033	0.09297	0.21577	-0.316
Mof_C 	C 	0.51013	0.93427	0.02087	-0.328
Mof_C 	C 	0.57153	0.95937	0.04707	0.516
Mof_H 	H 	0.60893	0.03137	0.22827	0.548
Mof_O 	O 	0.05063	0.70217	0.32377	-0.403
Mof_In	In	0.31108	7.61358e-33	0.5	2.676
Mof_In	In	0.97775	0.33333	0.83333	3.203
Mof_In	In	0.64441	0.66667	0.16667	2.992
Mof_In	In	2.42272e-17	0.31108	0.5	2.728
Mof_In	In	0.66667	0.64441	0.83333	2.981
Mof_In	In	0.33333	0.97775	0.16667	3.272
Mof_In	In	0.68892	0.68892	0.5	2.992
Mof_In	In	0.35559	0.02225	0.83333	2.698
Mof_In	In	0.02225	0.35559	0.16667	2.747
Mof_In	In	0.68892	7.61358e-33	0.5	2.679
Mof_In	In	0.35559	0.33333	0.83333	2.982
Mof_In	In	0.02225	0.66667	0.16667	2.748
Mof_In	In	-4.43498e-17	0.68892	0.5	2.732
Mof_In	In	0.66667	0.02225	0.83333	2.699
Mof_In	In	0.33333	0.35559	0.16667	2.994
Mof_In	In	0.31108	0.31108	0.5	2.986
Mof_In	In	0.97775	0.64441	0.83333	3.199
Mof_In	In	0.64441	0.97775	0.16667	3.267
Mof_In	In	0.33333	0.9643	0.66667	2.918
Mof_In	In	-1.71443e-17	0.29763	-0	2.25
Mof_In	In	0.0357	0.36904	0.66667	2.737
Mof_In	In	0.70237	0.70237	-0	2.506
Mof_In	In	0.63096	0.66667	0.66667	2.819
Mof_In	In	0.29763	0	-0	2.216
Mof_In	In	0.9643	0.33333	0.33333	2.903
Mof_In	In	0.36904	0.0357	0.33333	2.717
Mof_In	In	0.66667	0.63096	0.33333	2.817
Mof_In	In	0.66667	0.0357	0.33333	2.718
Mof_In	In	0.9643	0.63096	0.33333	2.901
Mof_In	In	0.36904	0.33333	0.33333	2.818
Mof_In	In	0.0357	0.66667	0.66667	2.738
Mof_In	In	0.70237	0	-0	2.234
Mof_In	In	0.63096	0.9643	0.66667	2.917
Mof_In	In	0.29763	0.29763	-0	2.493
Mof_In	In	0.33333	0.36904	0.66667	2.819
Mof_In	In	-6.85771e-17	0.70237	-0	2.248
Mof_S 	S 	0.12528	0.87472	0.16224	0.589
Mof_O 	O 	0.1553	0.8447	0.1377	-0.3
Mof_C 	C 	0.12715	0.87285	0.252	-0.126
Mof_C 	C 	0.13545	0.86455	0.3876	0.02
Mof_H 	H 	0.13775	0.86225	0.4337	0.073
Mof_S 	S 	0.6031	0.3969	0.4517	-0.137
Mof_S 	S 	0.79195	0.20805	0.49557	0.594
Mof_O 	O 	0.82197	0.17803	0.47103	-0.288
Mof_C 	C 	0.79382	0.20618	0.58533	-0.129
Mof_C 	C 	0.80212	0.19788	0.72093	0.025
Mof_H 	H 	0.80442	0.19558	0.76703	0.073
Mof_S 	S 	0.26977	0.73023	0.78503	-0.174
Mof_S 	S 	0.45861	0.54139	0.82891	0.688
Mof_O 	O 	0.48863	0.51137	0.80437	-0.311
Mof_C 	C 	0.46048	0.53952	0.91867	-0.365
Mof_C 	C 	0.46878	0.53122	0.05427	0.31
Mof_H 	H 	0.47108	0.52892	0.10037	-0.029
Mof_S 	S 	0.93643	0.06357	0.11837	-0.101
Mof_S 	S 	0.12528	0.25056	0.16224	0.598
Mof_O 	O 	0.1553	0.3106	0.1377	-0.302
Mof_C 	C 	0.12715	0.2543	0.252	-0.15
Mof_C 	C 	0.13545	0.2709	0.3876	0.035
Mof_H 	H 	0.13775	0.2755	0.4337	0.061
Mof_S 	S 	0.6031	0.2062	0.4517	-0.148
Mof_S 	S 	0.79195	0.58389	0.49557	0.595
Mof_O 	O 	0.82197	0.64393	0.47103	-0.286
Mof_C 	C 	0.79382	0.58763	0.58533	-0.133
Mof_C 	C 	0.80212	0.60423	0.72093	0.029
Mof_H 	H 	0.80442	0.60883	0.76703	0.07
Mof_S 	S 	0.26977	0.53953	0.78503	-0.175
Mof_S 	S 	0.45861	0.91723	0.82891	0.671
Mof_O 	O 	0.48863	0.97727	0.80437	-0.269
Mof_C 	C 	0.46048	0.92097	0.91867	-0.319
Mof_C 	C 	0.46878	0.93757	0.05427	0.26
Mof_H 	H 	0.47108	0.94217	0.10037	0.007
Mof_S 	S 	0.93643	0.87287	0.11837	-0.166
Mof_S 	S 	0.74944	0.87472	0.16224	0.586
Mof_O 	O 	0.6894	0.8447	0.1377	-0.301
Mof_C 	C 	0.7457	0.87285	0.252	-0.111
Mof_C 	C 	0.7291	0.86455	0.3876	0.013
Mof_H 	H 	0.7245	0.86225	0.4337	0.08
Mof_S 	S 	0.7938	0.3969	0.4517	-0.132
Mof_S 	S 	0.41611	0.20805	0.49557	0.596
Mof_O 	O 	0.35607	0.17803	0.47103	-0.294
Mof_C 	C 	0.41237	0.20618	0.58533	-0.13
Mof_C 	C 	0.39577	0.19788	0.72093	0.022
Mof_H 	H 	0.39117	0.19558	0.76703	0.074
Mof_S 	S 	0.46047	0.73023	0.78503	-0.171
Mof_S 	S 	0.08277	0.54139	0.82891	0.703
Mof_O 	O 	0.02273	0.51137	0.80437	-0.344
Mof_C 	C 	0.07903	0.53952	0.91867	-0.404
Mof_C 	C 	0.06243	0.53122	0.05427	0.35
Mof_H 	H 	0.05783	0.52892	0.10037	-0.058
Mof_S 	S 	0.12713	0.06357	0.11837	-0.023
Mof_S 	S 	0.87472	0.12528	0.83776	0.586
Mof_O 	O 	0.8447	0.1553	0.8623	-0.268
Mof_C 	C 	0.87285	0.12715	0.748	-0.131
Mof_C 	C 	0.86455	0.13545	0.6124	0.023
Mof_H 	H 	0.86225	0.13775	0.5663	0.07
Mof_S 	S 	0.3969	0.6031	0.5483	-0.136
Mof_S 	S 	0.54139	0.45861	0.17109	0.505
Mof_O 	O 	0.51137	0.48863	0.19563	-0.274
Mof_C 	C 	0.53952	0.46048	0.08133	0.102
Mof_C 	C 	0.53122	0.46878	0.94573	-0.263
Mof_H 	H 	0.52892	0.47108	0.89963	0.169
Mof_S 	S 	0.06357	0.93643	0.88163	-0.255
Mof_S 	S 	0.20805	0.79195	0.50443	0.594
Mof_O 	O 	0.17803	0.82197	0.52897	-0.287
Mof_C 	C 	0.20618	0.79382	0.41467	-0.132
Mof_C 	C 	0.19788	0.80212	0.27907	0.03
Mof_H 	H 	0.19558	0.80442	0.23297	0.065
Mof_S 	S 	0.73023	0.26977	0.21497	-0.11
Mof_S 	S 	0.25056	0.12528	0.83776	0.593
Mof_O 	O 	0.3106	0.1553	0.8623	-0.269
Mof_C 	C 	0.2543	0.12715	0.748	-0.149
Mof_C 	C 	0.2709	0.13545	0.6124	0.035
Mof_H 	H 	0.2755	0.13775	0.5663	0.061
Mof_S 	S 	0.2062	0.6031	0.5483	-0.145
Mof_S 	S 	0.91723	0.45861	0.17109	0.495
Mof_O 	O 	0.97727	0.48863	0.19563	-0.237
Mof_C 	C 	0.92097	0.46048	0.08133	0.129
Mof_C 	C 	0.93757	0.46878	0.94573	-0.291
Mof_H 	H 	0.94217	0.47108	0.89963	0.193
Mof_S 	S 	0.87287	0.93643	0.88163	-0.303
Mof_S 	S 	0.58389	0.79195	0.50443	0.595
Mof_O 	O 	0.64393	0.82197	0.52897	-0.286
Mof_C 	C 	0.58763	0.79382	0.41467	-0.135
Mof_C 	C 	0.60423	0.80212	0.27907	0.033
Mof_H 	H 	0.60883	0.80442	0.23297	0.063
Mof_S 	S 	0.53953	0.26977	0.21497	-0.11
Mof_S 	S 	0.87472	0.74944	0.83776	0.583
Mof_O 	O 	0.8447	0.6894	0.8623	-0.271
Mof_C 	C 	0.87285	0.7457	0.748	-0.112
Mof_C 	C 	0.86455	0.7291	0.6124	0.015
Mof_H 	H 	0.86225	0.7245	0.5663	0.079
Mof_S 	S 	0.3969	0.7938	0.5483	-0.13
Mof_S 	S 	0.54139	0.08277	0.17109	0.521
Mof_O 	O 	0.51137	0.02273	0.19563	-0.315
Mof_C 	C 	0.53952	0.07903	0.08133	0.059
Mof_C 	C 	0.53122	0.06243	0.94573	-0.217
Mof_H 	H 	0.52892	0.05783	0.89963	0.135
Mof_S 	S 	0.06357	0.12713	0.88163	-0.169
Mof_S 	S 	0.20805	0.41611	0.50443	0.596
Mof_O 	O 	0.17803	0.35607	0.52897	-0.294
Mof_C 	C 	0.20618	0.41237	0.41467	-0.133
Mof_C 	C 	0.19788	0.39577	0.27907	0.026
Mof_H 	H 	0.19558	0.39117	0.23297	0.067
Mof_S 	S 	0.73023	0.46047	0.21497	-0.106
Mof_S 	S 	0.58633	0.17266	0.41313	0.787
Mof_C 	C 	0.51979	0.03958	0.5724	0.175
Mof_H 	H 	0.5055	0.011	0.6038	-0.041
Mof_C 	C 	0.5616	0.1232	0.4782	-0.228
Mof_S 	S 	0.253	0.50599	0.74646	0.813
Mof_C 	C 	0.18646	0.37291	0.90573	0.219
Mof_H 	H 	0.17217	0.34433	0.93713	0.003
Mof_C 	C 	0.22827	0.45653	0.81153	-0.238
Mof_S 	S 	0.91966	0.83933	0.0798	0.807
Mof_C 	C 	0.85312	0.70625	0.23907	0.227
Mof_H 	H 	0.83883	0.67767	0.27047	-0.015
Mof_C 	C 	0.89493	0.78987	0.14487	-0.234
Mof_S 	S 	0.82734	0.41367	0.41313	0.792
Mof_C 	C 	0.96042	0.48021	0.5724	0.276
Mof_H 	H 	0.989	0.4945	0.6038	-0.001
Mof_C 	C 	0.8768	0.4384	0.4782	-0.263
Mof_S 	S 	0.49401	0.747	0.74646	0.809
Mof_C 	C 	0.62709	0.81354	0.90573	0.207
Mof_H 	H 	0.65567	0.82783	0.93713	0.007
Mof_C 	C 	0.54347	0.77173	0.81153	-0.233
Mof_S 	S 	0.16067	0.08034	0.0798	0.757
Mof_C 	C 	0.29375	0.14688	0.23907	0.251
Mof_H 	H 	0.32233	0.16117	0.27047	-0.028
Mof_C 	C 	0.21013	0.10507	0.14487	-0.278
Mof_S 	S 	0.58633	0.41367	0.41313	0.791
Mof_C 	C 	0.51979	0.48021	0.5724	0.24
Mof_H 	H 	0.5055	0.4945	0.6038	-0.023
Mof_C 	C 	0.5616	0.4384	0.4782	-0.253
Mof_S 	S 	0.253	0.747	0.74646	0.811
Mof_C 	C 	0.18646	0.81354	0.90573	0.206
Mof_H 	H 	0.17217	0.82783	0.93713	0.009
Mof_C 	C 	0.22827	0.77173	0.81153	-0.233
Mof_S 	S 	0.91966	0.08034	0.0798	0.784
Mof_C 	C 	0.85312	0.14688	0.23907	0.238
Mof_H 	H 	0.83883	0.16117	0.27047	-0.021
Mof_C 	C 	0.89493	0.10507	0.14487	-0.253
Mof_S 	S 	0.17266	0.58633	0.58687	0.786
Mof_C 	C 	0.03958	0.51979	0.4276	0.185
Mof_H 	H 	0.011	0.5055	0.3962	-0.038
Mof_C 	C 	0.1232	0.5616	0.5218	-0.232
Mof_S 	S 	0.83933	0.91966	0.9202	0.846
Mof_C 	C 	0.70625	0.85312	0.76093	0.218
Mof_H 	H 	0.67767	0.83883	0.72953	-0.013
Mof_C 	C 	0.78987	0.89493	0.85513	-0.21
Mof_S 	S 	0.50599	0.253	0.25354	0.77
Mof_C 	C 	0.37291	0.18646	0.09427	0.236
Mof_H 	H 	0.34433	0.17217	0.06287	-0.034
Mof_C 	C 	0.45653	0.22827	0.18847	-0.257
Mof_S 	S 	0.41367	0.82734	0.58687	0.791
Mof_C 	C 	0.48021	0.96042	0.4276	0.283
Mof_H 	H 	0.4945	0.989	0.3962	0.005
Mof_C 	C 	0.4384	0.8768	0.5218	-0.265
Mof_S 	S 	0.08034	0.16067	0.9202	0.798
Mof_C 	C 	0.14688	0.29375	0.76093	0.241
Mof_H 	H 	0.16117	0.32233	0.72953	-0.025
Mof_C 	C 	0.10507	0.21013	0.85513	-0.252
Mof_S 	S 	0.747	0.49401	0.25354	0.766
Mof_C 	C 	0.81354	0.62709	0.09427	0.223
Mof_H 	H 	0.82783	0.65567	0.06287	-0.029
Mof_C 	C 	0.77173	0.54347	0.18847	-0.251
Mof_S 	S 	0.41367	0.58633	0.58687	0.789
Mof_C 	C 	0.48021	0.51979	0.4276	0.239
Mof_H 	H 	0.4945	0.5055	0.3962	-0.022
Mof_C 	C 	0.4384	0.5616	0.5218	-0.253
Mof_S 	S 	0.08034	0.91966	0.9202	0.829
Mof_C 	C 	0.14688	0.85312	0.76093	0.226
Mof_H 	H 	0.16117	0.83883	0.72953	-0.017
Mof_C 	C 	0.10507	0.89493	0.85513	-0.225
Mof_S 	S 	0.747	0.253	0.25354	0.768
Mof_C 	C 	0.81354	0.18646	0.09427	0.225
Mof_H 	H 	0.82783	0.17217	0.06287	-0.028
Mof_C 	C 	0.77173	0.22827	0.18847	-0.252
_end
