data_functionalizedCrystal
_audit_creation_method	'EQeq! by Chris Wilmer'
_symmetry_space_group_name_H-M	'P1'
_symmetry_Int_Tables_number	1
_symmetry_cell_setting	triclinic
loop_
_symmetry_equiv_pos_as_xyz
  x,y,z
_cell_length_a	45.708
_cell_length_b	45.708
_cell_length_c	7.9819
_cell_angle_alpha	90
_cell_angle_beta	90
_cell_angle_gamma	90
loop_
_atom_site_label
_atom_site_type_symbol
_atom_site_fract_x
_atom_site_fract_y
_atom_site_fract_z
_atom_site_charge
Mof_N 	N 	0.5374	0.2725	0.121	-0.198
Mof_C 	C 	0.5404	0.3042	0.1171	0.119
Mof_C 	C 	0.571	0.3093	0.0749	-0.102
Mof_H 	H 	0.5793	0.3281	0.0586	0.052
Mof_C 	C 	0.5859	0.2838	0.0619	-0.081
Mof_H 	H 	0.6061	0.2817	0.0372	0.041
Mof_C 	C 	0.5654	0.2606	0.0926	0.094
Mof_C 	C 	0.5742	0.231	0.1063	-0.148
Mof_C 	C 	0.6046	0.2232	0.092	0.157
Mof_C 	C 	0.6246	0.2374	0.1911	-0.292
Mof_H 	H 	0.6181	0.2513	0.272	0.124
Mof_C 	C 	0.6543	0.2315	0.173	0.261
Mof_H 	H 	0.6683	0.2403	0.2448	-0.124
Mof_C 	C 	0.6624	0.213	0.053	-0.379
Mof_C 	C 	0.6432	0.1973	0.9553	0.236
Mof_H 	H 	0.6502	0.1832	0.8774	-0.047
Mof_C 	C 	0.6135	0.2024	0.974	-0.217
Mof_H 	H 	0.5995	0.1921	0.9079	0.11
Mof_S 	S 	0.70142	0.2058	0.0028	0.959
Mof_O 	O 	0.7124	0.1977	0.157	-0.611
Mof_O 	O 	0.7134	0.2325	0.981	-0.965
Mof_O 	O 	0.704	0.1857	0.891	-0.512
Mof_N 	N 	0.0374	0.7725	0.621	-0.194
Mof_C 	C 	0.0404	0.8042	0.6171	0.121
Mof_C 	C 	0.071	0.8093	0.5749	-0.086
Mof_H 	H 	0.0793	0.8281	0.5586	0.057
Mof_C 	C 	0.0859	0.7838	0.5619	-0.083
Mof_H 	H 	0.1061	0.7817	0.5372	0.054
Mof_C 	C 	0.0654	0.7606	0.5926	0.117
Mof_C 	C 	0.0742	0.731	0.6063	-0.168
Mof_C 	C 	0.1046	0.7232	0.592	0.231
Mof_C 	C 	0.1246	0.7374	0.6911	-0.323
Mof_H 	H 	0.1181	0.7513	0.772	0.144
Mof_C 	C 	0.1543	0.7315	0.673	0.294
Mof_H 	H 	0.1683	0.7403	0.7448	-0.129
Mof_C 	C 	0.1624	0.713	0.553	-0.374
Mof_C 	C 	0.1432	0.6973	0.4553	0.225
Mof_H 	H 	0.1502	0.6832	0.3774	-0.052
Mof_C 	C 	0.1135	0.7024	0.474	-0.288
Mof_H 	H 	0.0995	0.6921	0.4079	0.122
Mof_S 	S 	0.20142	0.7058	0.5028	1.121
Mof_O 	O 	0.2124	0.6977	0.657	-0.642
Mof_O 	O 	0.2134	0.7325	0.481	-1.036
Mof_O 	O 	0.204	0.6857	0.391	-0.584
Mof_N 	N 	0.9626	0.7275	0.621	-0.19
Mof_C 	C 	0.9596	0.6958	0.6171	0.111
Mof_C 	C 	0.929	0.6907	0.5749	-0.079
Mof_H 	H 	0.9207	0.6719	0.5586	0.055
Mof_C 	C 	0.9141	0.7162	0.5619	-0.087
Mof_H 	H 	0.8939	0.7183	0.5372	0.055
Mof_C 	C 	0.9346	0.7394	0.5926	0.119
Mof_C 	C 	0.9258	0.769	0.6063	-0.167
Mof_C 	C 	0.8954	0.7768	0.592	0.231
Mof_C 	C 	0.8754	0.7626	0.6911	-0.322
Mof_H 	H 	0.8819	0.7487	0.772	0.144
Mof_C 	C 	0.8457	0.7685	0.673	0.293
Mof_H 	H 	0.8317	0.7597	0.7448	-0.129
Mof_C 	C 	0.8376	0.787	0.553	-0.373
Mof_C 	C 	0.8568	0.8027	0.4553	0.225
Mof_H 	H 	0.8498	0.8168	0.3774	-0.052
Mof_C 	C 	0.8865	0.7976	0.474	-0.288
Mof_H 	H 	0.9005	0.8079	0.4079	0.122
Mof_S 	S 	0.79858	0.7942	0.5028	1.121
Mof_O 	O 	0.7876	0.8023	0.657	-0.642
Mof_O 	O 	0.7866	0.7675	0.481	-1.036
Mof_O 	O 	0.796	0.8143	0.391	-0.584
Mof_N 	N 	0.4626	0.2275	0.121	-0.197
Mof_C 	C 	0.4596	0.1958	0.1171	0.12
Mof_C 	C 	0.429	0.1907	0.0749	-0.101
Mof_H 	H 	0.4207	0.1719	0.0586	0.053
Mof_C 	C 	0.4141	0.2162	0.0619	-0.08
Mof_H 	H 	0.3939	0.2183	0.0372	0.042
Mof_C 	C 	0.4346	0.2394	0.0926	0.095
Mof_C 	C 	0.4258	0.269	0.1063	-0.148
Mof_C 	C 	0.3954	0.2768	0.092	0.157
Mof_C 	C 	0.3754	0.2626	0.1911	-0.292
Mof_H 	H 	0.3819	0.2487	0.272	0.124
Mof_C 	C 	0.3457	0.2685	0.173	0.261
Mof_H 	H 	0.3317	0.2597	0.2448	-0.124
Mof_C 	C 	0.3376	0.287	0.053	-0.379
Mof_C 	C 	0.3568	0.3027	0.9553	0.236
Mof_H 	H 	0.3498	0.3168	0.8774	-0.046
Mof_C 	C 	0.3865	0.2976	0.974	-0.217
Mof_H 	H 	0.4005	0.3079	0.9079	0.11
Mof_S 	S 	0.29858	0.2942	0.0028	0.959
Mof_O 	O 	0.2876	0.3023	0.157	-0.611
Mof_O 	O 	0.2866	0.2675	0.981	-0.965
Mof_O 	O 	0.296	0.3143	0.891	-0.512
Mof_N 	N 	0.9775	0.2874	0.371	-0.195
Mof_C 	C 	0.9458	0.2904	0.3671	0.106
Mof_C 	C 	0.9407	0.321	0.3249	-0.085
Mof_H 	H 	0.9219	0.3293	0.3086	0.05
Mof_C 	C 	0.9662	0.3359	0.3119	-0.095
Mof_H 	H 	0.9683	0.3561	0.2872	0.053
Mof_C 	C 	0.9894	0.3154	0.3426	0.122
Mof_C 	C 	0.019	0.3242	0.3563	-0.188
Mof_C 	C 	0.0268	0.3546	0.342	0.241
Mof_C 	C 	0.0126	0.3746	0.4411	-0.352
Mof_H 	H 	0.9987	0.3681	0.522	0.15
Mof_C 	C 	0.0185	0.4043	0.423	0.304
Mof_H 	H 	0.0097	0.4183	0.4948	-0.14
Mof_C 	C 	0.037	0.4124	0.303	-0.385
Mof_C 	C 	0.0527	0.3932	0.2053	0.229
Mof_H 	H 	0.0668	0.4002	0.1274	-0.058
Mof_C 	C 	0.0476	0.3635	0.224	-0.298
Mof_H 	H 	0.0579	0.3495	0.1579	0.118
Mof_S 	S 	0.0442	0.45142	0.2528	1.116
Mof_O 	O 	0.0523	0.4624	0.407	-0.639
Mof_O 	O 	0.0175	0.4634	0.231	-1.024
Mof_O 	O 	0.0643	0.454	0.141	-0.583
Mof_N 	N 	0.4775	0.7874	0.871	-0.193
Mof_C 	C 	0.4458	0.7904	0.8671	0.13
Mof_C 	C 	0.4407	0.821	0.8249	-0.091
Mof_H 	H 	0.4219	0.8293	0.8086	0.068
Mof_C 	C 	0.4662	0.8359	0.8119	-0.068
Mof_H 	H 	0.4683	0.8561	0.7872	0.056
Mof_C 	C 	0.4894	0.8154	0.8426	0.105
Mof_C 	C 	0.519	0.8242	0.8563	-0.133
Mof_C 	C 	0.5268	0.8546	0.842	0.156
Mof_C 	C 	0.5126	0.8746	0.9411	-0.178
Mof_H 	H 	0.4987	0.8681	0.022	0.057
Mof_C 	C 	0.5185	0.9043	0.923	0.196
Mof_H 	H 	0.5097	0.9183	0.9948	-0.078
Mof_C 	C 	0.537	0.9124	0.803	-0.31
Mof_C 	C 	0.5527	0.8932	0.7053	0.168
Mof_H 	H 	0.5668	0.9002	0.6274	-0.032
Mof_C 	C 	0.5476	0.8635	0.724	-0.229
Mof_H 	H 	0.5579	0.8495	0.6579	0.103
Mof_S 	S 	0.5442	0.95142	0.7528	1.08
Mof_O 	O 	0.5523	0.9624	0.907	-0.597
Mof_O 	O 	0.5175	0.9634	0.731	-1.003
Mof_O 	O 	0.5643	0.954	0.641	-0.57
Mof_N 	N 	0.5225	0.7126	0.871	-0.193
Mof_C 	C 	0.5542	0.7096	0.8671	0.13
Mof_C 	C 	0.5593	0.679	0.8249	-0.091
Mof_H 	H 	0.5781	0.6707	0.8086	0.068
Mof_C 	C 	0.5338	0.6641	0.8119	-0.068
Mof_H 	H 	0.5317	0.6439	0.7872	0.056
Mof_C 	C 	0.5106	0.6846	0.8426	0.106
Mof_C 	C 	0.481	0.6758	0.8563	-0.133
Mof_C 	C 	0.4732	0.6454	0.842	0.157
Mof_C 	C 	0.4874	0.6254	0.9411	-0.179
Mof_H 	H 	0.5013	0.6319	0.022	0.057
Mof_C 	C 	0.4815	0.5957	0.923	0.197
Mof_H 	H 	0.4903	0.5817	0.9948	-0.079
Mof_C 	C 	0.463	0.5876	0.803	-0.312
Mof_C 	C 	0.4473	0.6068	0.7053	0.169
Mof_H 	H 	0.4332	0.5998	0.6274	-0.033
Mof_C 	C 	0.4524	0.6365	0.724	-0.23
Mof_H 	H 	0.4421	0.6505	0.6579	0.103
Mof_S 	S 	0.4558	0.54858	0.7528	1.084
Mof_O 	O 	0.4477	0.5376	0.907	-0.602
Mof_O 	O 	0.4825	0.5366	0.731	-1.011
Mof_O 	O 	0.4357	0.546	0.641	-0.575
Mof_N 	N 	0.0225	0.2126	0.371	-0.195
Mof_C 	C 	0.0542	0.2096	0.3671	0.108
Mof_C 	C 	0.0593	0.179	0.3249	-0.092
Mof_H 	H 	0.0781	0.1707	0.3086	0.052
Mof_C 	C 	0.0338	0.1641	0.3119	-0.082
Mof_H 	H 	0.0317	0.1439	0.2872	0.044
Mof_C 	C 	0.0106	0.1846	0.3426	0.094
Mof_C 	C 	0.981	0.1758	0.3563	-0.153
Mof_C 	C 	0.9732	0.1454	0.342	0.205
Mof_C 	C 	0.9874	0.1254	0.4411	-0.291
Mof_H 	H 	0.0013	0.1319	0.522	0.119
Mof_C 	C 	0.9815	0.0957	0.423	0.267
Mof_H 	H 	0.9903	0.0817	0.4948	-0.122
Mof_C 	C 	0.963	0.0876	0.303	-0.36
Mof_C 	C 	0.9473	0.1068	0.2053	0.205
Mof_H 	H 	0.9332	0.0998	0.1274	-0.05
Mof_C 	C 	0.9524	0.1365	0.224	-0.271
Mof_H 	H 	0.9421	0.1505	0.1579	0.109
Mof_S 	S 	0.9558	0.04858	0.2528	1.103
Mof_O 	O 	0.9477	0.0376	0.407	-0.635
Mof_O 	O 	0.9825	0.0366	0.231	-1.011
Mof_O 	O 	0.9357	0.046	0.141	-0.579
Mof_N 	N 	0.9626	0.2725	0.879	-0.191
Mof_C 	C 	0.9596	0.3042	0.8829	0.098
Mof_C 	C 	0.929	0.3093	0.9251	-0.065
Mof_H 	H 	0.9207	0.3281	0.9414	0.059
Mof_C 	C 	0.9141	0.2838	0.9381	-0.094
Mof_H 	H 	0.8939	0.2817	0.9628	0.067
Mof_C 	C 	0.9346	0.2606	0.9074	0.131
Mof_C 	C 	0.9258	0.231	0.8937	-0.189
Mof_C 	C 	0.8954	0.2232	0.908	0.287
Mof_C 	C 	0.8754	0.2374	0.8089	-0.353
Mof_H 	H 	0.8819	0.2513	0.728	0.146
Mof_C 	C 	0.8457	0.2315	0.827	0.315
Mof_H 	H 	0.8317	0.2403	0.7552	-0.14
Mof_C 	C 	0.8376	0.213	0.947	-0.369
Mof_C 	C 	0.8568	0.1973	0.0447	0.209
Mof_H 	H 	0.8498	0.1832	0.1226	-0.051
Mof_C 	C 	0.8865	0.2024	0.026	-0.347
Mof_H 	H 	0.9005	0.1921	0.0921	0.133
Mof_S 	S 	0.79858	0.2058	0.9972	1.273
Mof_O 	O 	0.7876	0.1977	0.843	-0.673
Mof_O 	O 	0.7866	0.2325	0.019	-1.106
Mof_O 	O 	0.796	0.1857	0.109	-0.648
Mof_N 	N 	0.4626	0.7725	0.379	-0.197
Mof_C 	C 	0.4596	0.8042	0.3829	0.108
Mof_C 	C 	0.429	0.8093	0.4251	-0.085
Mof_H 	H 	0.4207	0.8281	0.4414	0.058
Mof_C 	C 	0.4141	0.7838	0.4381	-0.087
Mof_H 	H 	0.3939	0.7817	0.4628	0.056
Mof_C 	C 	0.4346	0.7606	0.4074	0.11
Mof_C 	C 	0.4258	0.731	0.3937	-0.172
Mof_C 	C 	0.3954	0.7232	0.408	0.223
Mof_C 	C 	0.3754	0.7374	0.3089	-0.326
Mof_H 	H 	0.3819	0.7513	0.228	0.128
Mof_C 	C 	0.3457	0.7315	0.327	0.284
Mof_H 	H 	0.3317	0.7403	0.2552	-0.135
Mof_C 	C 	0.3376	0.713	0.447	-0.372
Mof_C 	C 	0.3568	0.6973	0.5447	0.219
Mof_H 	H 	0.3498	0.6832	0.6226	-0.046
Mof_C 	C 	0.3865	0.7024	0.526	-0.286
Mof_H 	H 	0.4005	0.6921	0.5921	0.122
Mof_S 	S 	0.29858	0.7058	0.4972	1.12
Mof_O 	O 	0.2876	0.6977	0.343	-0.643
Mof_O 	O 	0.2866	0.7325	0.519	-1.039
Mof_O 	O 	0.296	0.6857	0.609	-0.58
Mof_N 	N 	0.5374	0.7275	0.379	-0.198
Mof_C 	C 	0.5404	0.6958	0.3829	0.108
Mof_C 	C 	0.571	0.6907	0.4251	-0.085
Mof_H 	H 	0.5793	0.6719	0.4414	0.057
Mof_C 	C 	0.5859	0.7162	0.4381	-0.087
Mof_H 	H 	0.6061	0.7183	0.4628	0.056
Mof_C 	C 	0.5654	0.7394	0.4074	0.11
Mof_C 	C 	0.5742	0.769	0.3937	-0.172
Mof_C 	C 	0.6046	0.7768	0.408	0.222
Mof_C 	C 	0.6246	0.7626	0.3089	-0.325
Mof_H 	H 	0.6181	0.7487	0.228	0.128
Mof_C 	C 	0.6543	0.7685	0.327	0.284
Mof_H 	H 	0.6683	0.7597	0.2552	-0.135
Mof_C 	C 	0.6624	0.787	0.447	-0.372
Mof_C 	C 	0.6432	0.8027	0.5447	0.219
Mof_H 	H 	0.6502	0.8168	0.6226	-0.046
Mof_C 	C 	0.6135	0.7976	0.526	-0.286
Mof_H 	H 	0.5995	0.8079	0.5921	0.122
Mof_S 	S 	0.70142	0.7942	0.4972	1.12
Mof_O 	O 	0.7124	0.8023	0.343	-0.643
Mof_O 	O 	0.7134	0.7675	0.519	-1.038
Mof_O 	O 	0.704	0.8143	0.609	-0.579
Mof_N 	N 	0.0374	0.2275	0.879	-0.195
Mof_C 	C 	0.0404	0.1958	0.8829	0.109
Mof_C 	C 	0.071	0.1907	0.9251	-0.072
Mof_H 	H 	0.0793	0.1719	0.9414	0.061
Mof_C 	C 	0.0859	0.2162	0.9381	-0.09
Mof_H 	H 	0.1061	0.2183	0.9628	0.066
Mof_C 	C 	0.0654	0.2394	0.9074	0.13
Mof_C 	C 	0.0742	0.269	0.8937	-0.19
Mof_C 	C 	0.1046	0.2768	0.908	0.287
Mof_C 	C 	0.1246	0.2626	0.8089	-0.353
Mof_H 	H 	0.1181	0.2487	0.728	0.146
Mof_C 	C 	0.1543	0.2685	0.827	0.315
Mof_H 	H 	0.1683	0.2597	0.7552	-0.14
Mof_C 	C 	0.1624	0.287	0.947	-0.369
Mof_C 	C 	0.1432	0.3027	0.0447	0.21
Mof_H 	H 	0.1502	0.3168	0.1226	-0.051
Mof_C 	C 	0.1135	0.2976	0.026	-0.347
Mof_H 	H 	0.0995	0.3079	0.0921	0.133
Mof_S 	S 	0.20142	0.2942	0.9972	1.272
Mof_O 	O 	0.2124	0.3023	0.843	-0.673
Mof_O 	O 	0.2134	0.2675	0.019	-1.106
Mof_O 	O 	0.204	0.3143	0.109	-0.647
Mof_N 	N 	0.5225	0.2874	0.629	-0.195
Mof_C 	C 	0.5542	0.2904	0.6329	0.118
Mof_C 	C 	0.5593	0.321	0.6751	-0.079
Mof_H 	H 	0.5781	0.3293	0.6914	0.064
Mof_C 	C 	0.5338	0.3359	0.6881	-0.083
Mof_H 	H 	0.5317	0.3561	0.7128	0.062
Mof_C 	C 	0.5106	0.3154	0.6574	0.12
Mof_C 	C 	0.481	0.3242	0.6437	-0.168
Mof_C 	C 	0.4732	0.3546	0.658	0.227
Mof_C 	C 	0.4874	0.3746	0.5589	-0.322
Mof_H 	H 	0.5013	0.3681	0.478	0.136
Mof_C 	C 	0.4815	0.4043	0.577	0.287
Mof_H 	H 	0.4903	0.4183	0.5052	-0.132
Mof_C 	C 	0.463	0.4124	0.697	-0.364
Mof_C 	C 	0.4473	0.3932	0.7947	0.222
Mof_H 	H 	0.4332	0.4002	0.8726	-0.039
Mof_C 	C 	0.4524	0.3635	0.776	-0.285
Mof_H 	H 	0.4421	0.3495	0.8421	0.131
Mof_S 	S 	0.4558	0.45142	0.7472	1.109
Mof_O 	O 	0.4477	0.4624	0.593	-0.647
Mof_O 	O 	0.4825	0.4634	0.769	-0.997
Mof_O 	O 	0.4357	0.454	0.859	-0.557
Mof_N 	N 	0.0225	0.7874	0.129	-0.197
Mof_C 	C 	0.0542	0.7904	0.1329	0.092
Mof_C 	C 	0.0593	0.821	0.1751	-0.08
Mof_H 	H 	0.0781	0.8293	0.1914	0.046
Mof_C 	C 	0.0338	0.8359	0.1881	-0.099
Mof_H 	H 	0.0317	0.8561	0.2128	0.051
Mof_C 	C 	0.0106	0.8154	0.1574	0.107
Mof_C 	C 	0.981	0.8242	0.1437	-0.189
Mof_C 	C 	0.9732	0.8546	0.158	0.276
Mof_C 	C 	0.9874	0.8746	0.0589	-0.438
Mof_H 	H 	0.0013	0.8681	0.978	0.203
Mof_C 	C 	0.9815	0.9043	0.077	0.35
Mof_H 	H 	0.9903	0.9183	0.0052	-0.159
Mof_C 	C 	0.963	0.9124	0.197	-0.404
Mof_C 	C 	0.9473	0.8932	0.2947	0.253
Mof_H 	H 	0.9332	0.9002	0.3726	-0.057
Mof_C 	C 	0.9524	0.8635	0.276	-0.325
Mof_H 	H 	0.9421	0.8495	0.3421	0.135
Mof_S 	S 	0.9558	0.95142	0.2472	1.12
Mof_O 	O 	0.9477	0.9624	0.093	-0.629
Mof_O 	O 	0.9825	0.9634	0.269	-1.015
Mof_O 	O 	0.9357	0.954	0.359	-0.574
Mof_N 	N 	0.9775	0.7126	0.129	-0.197
Mof_C 	C 	0.9458	0.7096	0.1329	0.091
Mof_C 	C 	0.9407	0.679	0.1751	-0.073
Mof_H 	H 	0.9219	0.6707	0.1914	0.043
Mof_C 	C 	0.9662	0.6641	0.1881	-0.112
Mof_H 	H 	0.9683	0.6439	0.2128	0.059
Mof_C 	C 	0.9894	0.6846	0.1574	0.135
Mof_C 	C 	0.019	0.6758	0.1437	-0.224
Mof_C 	C 	0.0268	0.6454	0.158	0.311
Mof_C 	C 	0.0126	0.6254	0.0589	-0.498
Mof_H 	H 	0.9987	0.6319	0.978	0.233
Mof_C 	C 	0.0185	0.5957	0.077	0.388
Mof_H 	H 	0.0097	0.5817	0.0052	-0.178
Mof_C 	C 	0.037	0.5876	0.197	-0.431
Mof_C 	C 	0.0527	0.6068	0.2947	0.277
Mof_H 	H 	0.0668	0.5998	0.3726	-0.065
Mof_C 	C 	0.0476	0.6365	0.276	-0.352
Mof_H 	H 	0.0579	0.6505	0.3421	0.144
Mof_S 	S 	0.0442	0.54858	0.2472	1.136
Mof_O 	O 	0.0523	0.5376	0.093	-0.639
Mof_O 	O 	0.0175	0.5366	0.269	-1.032
Mof_O 	O 	0.0643	0.546	0.359	-0.583
Mof_N 	N 	0.4775	0.2126	0.629	-0.195
Mof_C 	C 	0.4458	0.2096	0.6329	0.118
Mof_C 	C 	0.4407	0.179	0.6751	-0.079
Mof_H 	H 	0.4219	0.1707	0.6914	0.063
Mof_C 	C 	0.4662	0.1641	0.6881	-0.083
Mof_H 	H 	0.4683	0.1439	0.7128	0.062
Mof_C 	C 	0.4894	0.1846	0.6574	0.12
Mof_C 	C 	0.519	0.1758	0.6437	-0.168
Mof_C 	C 	0.5268	0.1454	0.658	0.227
Mof_C 	C 	0.5126	0.1254	0.5589	-0.322
Mof_H 	H 	0.4987	0.1319	0.478	0.136
Mof_C 	C 	0.5185	0.0957	0.577	0.286
Mof_H 	H 	0.5097	0.0817	0.5052	-0.131
Mof_C 	C 	0.537	0.0876	0.697	-0.363
Mof_C 	C 	0.5527	0.1068	0.7947	0.221
Mof_H 	H 	0.5668	0.0998	0.8726	-0.039
Mof_C 	C 	0.5476	0.1365	0.776	-0.285
Mof_H 	H 	0.5579	0.1505	0.8421	0.131
Mof_S 	S 	0.5442	0.04858	0.7472	1.107
Mof_O 	O 	0.5523	0.0376	0.593	-0.647
Mof_O 	O 	0.5175	0.0366	0.769	-0.994
Mof_O 	O 	0.5643	0.046	0.859	-0.558
Mof_N 	N 	0.4626	0.7275	0.879	-0.194
Mof_C 	C 	0.4596	0.6958	0.8829	0.103
Mof_C 	C 	0.429	0.6907	0.9251	-0.068
Mof_H 	H 	0.4207	0.6719	0.9414	0.06
Mof_C 	C 	0.4141	0.7162	0.9381	-0.092
Mof_H 	H 	0.3939	0.7183	0.9628	0.066
Mof_C 	C 	0.4346	0.7394	0.9074	0.13
Mof_C 	C 	0.4258	0.769	0.8937	-0.19
Mof_C 	C 	0.3954	0.7768	0.908	0.287
Mof_C 	C 	0.3754	0.7626	0.8089	-0.353
Mof_H 	H 	0.3819	0.7487	0.728	0.146
Mof_C 	C 	0.3457	0.7685	0.827	0.315
Mof_H 	H 	0.3317	0.7597	0.7552	-0.14
Mof_C 	C 	0.3376	0.787	0.947	-0.369
Mof_C 	C 	0.3568	0.8027	0.0447	0.209
Mof_H 	H 	0.3498	0.8168	0.1226	-0.051
Mof_C 	C 	0.3865	0.7976	0.026	-0.348
Mof_H 	H 	0.4005	0.8079	0.0921	0.133
Mof_S 	S 	0.29858	0.7942	0.9972	1.273
Mof_O 	O 	0.2876	0.8023	0.843	-0.673
Mof_O 	O 	0.2866	0.7675	0.019	-1.106
Mof_O 	O 	0.296	0.8143	0.109	-0.647
Mof_N 	N 	0.9626	0.2275	0.379	-0.194
Mof_C 	C 	0.9596	0.1958	0.3829	0.102
Mof_C 	C 	0.929	0.1907	0.4251	-0.081
Mof_H 	H 	0.9207	0.1719	0.4414	0.056
Mof_C 	C 	0.9141	0.2162	0.4381	-0.089
Mof_H 	H 	0.8939	0.2183	0.4628	0.056
Mof_C 	C 	0.9346	0.2394	0.4074	0.111
Mof_C 	C 	0.9258	0.269	0.3937	-0.171
Mof_C 	C 	0.8954	0.2768	0.408	0.222
Mof_C 	C 	0.8754	0.2626	0.3089	-0.325
Mof_H 	H 	0.8819	0.2487	0.228	0.128
Mof_C 	C 	0.8457	0.2685	0.327	0.284
Mof_H 	H 	0.8317	0.2597	0.2552	-0.135
Mof_C 	C 	0.8376	0.287	0.447	-0.372
Mof_C 	C 	0.8568	0.3027	0.5447	0.219
Mof_H 	H 	0.8498	0.3168	0.6226	-0.046
Mof_C 	C 	0.8865	0.2976	0.526	-0.286
Mof_H 	H 	0.9005	0.3079	0.5921	0.122
Mof_S 	S 	0.79858	0.2942	0.4972	1.12
Mof_O 	O 	0.7876	0.3023	0.343	-0.643
Mof_O 	O 	0.7866	0.2675	0.519	-1.038
Mof_O 	O 	0.796	0.3143	0.609	-0.58
Mof_N 	N 	0.0374	0.2725	0.379	-0.198
Mof_C 	C 	0.0404	0.3042	0.3829	0.114
Mof_C 	C 	0.071	0.3093	0.4251	-0.088
Mof_H 	H 	0.0793	0.3281	0.4414	0.059
Mof_C 	C 	0.0859	0.2838	0.4381	-0.085
Mof_H 	H 	0.1061	0.2817	0.4628	0.055
Mof_C 	C 	0.0654	0.2606	0.4074	0.11
Mof_C 	C 	0.0742	0.231	0.3937	-0.172
Mof_C 	C 	0.1046	0.2232	0.408	0.223
Mof_C 	C 	0.1246	0.2374	0.3089	-0.326
Mof_H 	H 	0.1181	0.2513	0.228	0.129
Mof_C 	C 	0.1543	0.2315	0.327	0.284
Mof_H 	H 	0.1683	0.2403	0.2552	-0.135
Mof_C 	C 	0.1624	0.213	0.447	-0.372
Mof_C 	C 	0.1432	0.1973	0.5447	0.219
Mof_H 	H 	0.1502	0.1832	0.6226	-0.046
Mof_C 	C 	0.1135	0.2024	0.526	-0.286
Mof_H 	H 	0.0995	0.1921	0.5921	0.122
Mof_S 	S 	0.20142	0.2058	0.4972	1.121
Mof_O 	O 	0.2124	0.1977	0.343	-0.643
Mof_O 	O 	0.2134	0.2325	0.519	-1.039
Mof_O 	O 	0.204	0.1857	0.609	-0.58
Mof_N 	N 	0.5374	0.7725	0.879	-0.194
Mof_C 	C 	0.5404	0.8042	0.8829	0.103
Mof_C 	C 	0.571	0.8093	0.9251	-0.068
Mof_H 	H 	0.5793	0.8281	0.9414	0.06
Mof_C 	C 	0.5859	0.7838	0.9381	-0.092
Mof_H 	H 	0.6061	0.7817	0.9628	0.066
Mof_C 	C 	0.5654	0.7606	0.9074	0.13
Mof_C 	C 	0.5742	0.731	0.8937	-0.19
Mof_C 	C 	0.6046	0.7232	0.908	0.287
Mof_C 	C 	0.6246	0.7374	0.8089	-0.353
Mof_H 	H 	0.6181	0.7513	0.728	0.146
Mof_C 	C 	0.6543	0.7315	0.827	0.315
Mof_H 	H 	0.6683	0.7403	0.7552	-0.14
Mof_C 	C 	0.6624	0.713	0.947	-0.369
Mof_C 	C 	0.6432	0.6973	0.0447	0.21
Mof_H 	H 	0.6502	0.6832	0.1226	-0.051
Mof_C 	C 	0.6135	0.7024	0.026	-0.348
Mof_H 	H 	0.5995	0.6921	0.0921	0.133
Mof_S 	S 	0.70142	0.7058	0.9972	1.273
Mof_O 	O 	0.7124	0.6977	0.843	-0.673
Mof_O 	O 	0.7134	0.7325	0.019	-1.106
Mof_O 	O 	0.704	0.6857	0.109	-0.648
Mof_N 	N 	0.0225	0.7126	0.629	-0.193
Mof_C 	C 	0.0542	0.7096	0.6329	0.119
Mof_C 	C 	0.0593	0.679	0.6751	-0.082
Mof_H 	H 	0.0781	0.6707	0.6914	0.065
Mof_C 	C 	0.0338	0.6641	0.6881	-0.076
Mof_H 	H 	0.0317	0.6439	0.7128	0.058
Mof_C 	C 	0.0106	0.6846	0.6574	0.106
Mof_C 	C 	0.981	0.6758	0.6437	-0.15
Mof_C 	C 	0.9732	0.6454	0.658	0.209
Mof_C 	C 	0.9874	0.6254	0.5589	-0.291
Mof_H 	H 	0.0013	0.6319	0.478	0.12
Mof_C 	C 	0.9815	0.5957	0.577	0.267
Mof_H 	H 	0.9903	0.5817	0.5052	-0.122
Mof_C 	C 	0.963	0.5876	0.697	-0.35
Mof_C 	C 	0.9473	0.6068	0.7947	0.209
Mof_H 	H 	0.9332	0.5998	0.8726	-0.034
Mof_C 	C 	0.9524	0.6365	0.776	-0.271
Mof_H 	H 	0.9421	0.6505	0.8421	0.126
Mof_S 	S 	0.9558	0.54858	0.7472	1.1
Mof_O 	O 	0.9477	0.5376	0.593	-0.642
Mof_O 	O 	0.9825	0.5366	0.769	-0.986
Mof_O 	O 	0.9357	0.546	0.859	-0.553
Mof_N 	N 	0.5225	0.2126	0.129	-0.198
Mof_C 	C 	0.5542	0.2096	0.1329	0.091
Mof_C 	C 	0.5593	0.179	0.1751	-0.077
Mof_H 	H 	0.5781	0.1707	0.1914	0.044
Mof_C 	C 	0.5338	0.1641	0.1881	-0.105
Mof_H 	H 	0.5317	0.1439	0.2128	0.055
Mof_C 	C 	0.5106	0.1846	0.1574	0.121
Mof_C 	C 	0.481	0.1758	0.1437	-0.208
Mof_C 	C 	0.4732	0.1454	0.158	0.295
Mof_C 	C 	0.4874	0.1254	0.0589	-0.47
Mof_H 	H 	0.5013	0.1319	0.978	0.219
Mof_C 	C 	0.4815	0.0957	0.077	0.371
Mof_H 	H 	0.4903	0.0817	0.0052	-0.17
Mof_C 	C 	0.463	0.0876	0.197	-0.42
Mof_C 	C 	0.4473	0.1068	0.2947	0.267
Mof_H 	H 	0.4332	0.0998	0.3726	-0.062
Mof_C 	C 	0.4524	0.1365	0.276	-0.34
Mof_H 	H 	0.4421	0.1505	0.3421	0.14
Mof_S 	S 	0.4558	0.04858	0.2472	1.133
Mof_O 	O 	0.4477	0.0376	0.093	-0.64
Mof_O 	O 	0.4825	0.0366	0.269	-1.031
Mof_O 	O 	0.4357	0.046	0.359	-0.583
Mof_N 	N 	0.4775	0.2874	0.129	-0.198
Mof_C 	C 	0.4458	0.2904	0.1329	0.091
Mof_C 	C 	0.4407	0.321	0.1751	-0.077
Mof_H 	H 	0.4219	0.3293	0.1914	0.044
Mof_C 	C 	0.4662	0.3359	0.1881	-0.105
Mof_H 	H 	0.4683	0.3561	0.2128	0.055
Mof_C 	C 	0.4894	0.3154	0.1574	0.121
Mof_C 	C 	0.519	0.3242	0.1437	-0.208
Mof_C 	C 	0.5268	0.3546	0.158	0.295
Mof_C 	C 	0.5126	0.3746	0.0589	-0.471
Mof_H 	H 	0.4987	0.3681	0.978	0.219
Mof_C 	C 	0.5185	0.4043	0.077	0.372
Mof_H 	H 	0.5097	0.4183	0.0052	-0.171
Mof_C 	C 	0.537	0.4124	0.197	-0.421
Mof_C 	C 	0.5527	0.3932	0.2947	0.268
Mof_H 	H 	0.5668	0.4002	0.3726	-0.062
Mof_C 	C 	0.5476	0.3635	0.276	-0.34
Mof_H 	H 	0.5579	0.3495	0.3421	0.14
Mof_S 	S 	0.5442	0.45142	0.2472	1.134
Mof_O 	O 	0.5523	0.4624	0.093	-0.64
Mof_O 	O 	0.5175	0.4634	0.269	-1.034
Mof_O 	O 	0.5643	0.454	0.359	-0.583
Mof_N 	N 	0.9775	0.7874	0.629	-0.193
Mof_C 	C 	0.9458	0.7904	0.6329	0.117
Mof_C 	C 	0.9407	0.821	0.6751	-0.076
Mof_H 	H 	0.9219	0.8293	0.6914	0.063
Mof_C 	C 	0.9662	0.8359	0.6881	-0.089
Mof_H 	H 	0.9683	0.8561	0.7128	0.067
Mof_C 	C 	0.9894	0.8154	0.6574	0.134
Mof_C 	C 	0.019	0.8242	0.6437	-0.185
Mof_C 	C 	0.0268	0.8546	0.658	0.242
Mof_C 	C 	0.0126	0.8746	0.5589	-0.349
Mof_H 	H 	0.9987	0.8681	0.478	0.15
Mof_C 	C 	0.0185	0.9043	0.577	0.302
Mof_H 	H 	0.0097	0.9183	0.5052	-0.138
Mof_C 	C 	0.037	0.9124	0.697	-0.372
Mof_C 	C 	0.0527	0.8932	0.7947	0.23
Mof_H 	H 	0.0668	0.9002	0.8726	-0.041
Mof_C 	C 	0.0476	0.8635	0.776	-0.296
Mof_H 	H 	0.0579	0.8495	0.8421	0.135
Mof_S 	S 	0.0442	0.95142	0.7472	1.105
Mof_O 	O 	0.0523	0.9624	0.593	-0.64
Mof_O 	O 	0.0175	0.9634	0.769	-0.987
Mof_O 	O 	0.0643	0.954	0.859	-0.553
Mof_N 	N 	0.0374	0.7275	0.121	-0.198
Mof_C 	C 	0.0404	0.6958	0.1171	0.125
Mof_C 	C 	0.071	0.6907	0.0749	-0.104
Mof_H 	H 	0.0793	0.6719	0.0586	0.054
Mof_C 	C 	0.0859	0.7162	0.0619	-0.078
Mof_H 	H 	0.1061	0.7183	0.0372	0.042
Mof_C 	C 	0.0654	0.7394	0.0926	0.095
Mof_C 	C 	0.0742	0.769	0.1063	-0.149
Mof_C 	C 	0.1046	0.7768	0.092	0.157
Mof_C 	C 	0.1246	0.7626	0.1911	-0.292
Mof_H 	H 	0.1181	0.7487	0.272	0.124
Mof_C 	C 	0.1543	0.7685	0.173	0.261
Mof_H 	H 	0.1683	0.7597	0.2448	-0.124
Mof_C 	C 	0.1624	0.787	0.053	-0.379
Mof_C 	C 	0.1432	0.8027	0.9553	0.236
Mof_H 	H 	0.1502	0.8168	0.8774	-0.046
Mof_C 	C 	0.1135	0.7976	0.974	-0.217
Mof_H 	H 	0.0995	0.8079	0.9079	0.11
Mof_S 	S 	0.20142	0.7942	0.0028	0.959
Mof_O 	O 	0.2124	0.8023	0.157	-0.61
Mof_O 	O 	0.2134	0.7675	0.981	-0.965
Mof_O 	O 	0.204	0.8143	0.891	-0.511
Mof_N 	N 	0.5374	0.2275	0.621	-0.194
Mof_C 	C 	0.5404	0.1958	0.6171	0.116
Mof_C 	C 	0.571	0.1907	0.5749	-0.083
Mof_H 	H 	0.5793	0.1719	0.5586	0.056
Mof_C 	C 	0.5859	0.2162	0.5619	-0.085
Mof_H 	H 	0.6061	0.2183	0.5372	0.054
Mof_C 	C 	0.5654	0.2394	0.5926	0.118
Mof_C 	C 	0.5742	0.269	0.6063	-0.168
Mof_C 	C 	0.6046	0.2768	0.592	0.231
Mof_C 	C 	0.6246	0.2626	0.6911	-0.323
Mof_H 	H 	0.6181	0.2487	0.772	0.144
Mof_C 	C 	0.6543	0.2685	0.673	0.294
Mof_H 	H 	0.6683	0.2597	0.7448	-0.129
Mof_C 	C 	0.6624	0.287	0.553	-0.374
Mof_C 	C 	0.6432	0.3027	0.4553	0.225
Mof_H 	H 	0.6502	0.3168	0.3774	-0.052
Mof_C 	C 	0.6135	0.2976	0.474	-0.288
Mof_H 	H 	0.5995	0.3079	0.4079	0.122
Mof_S 	S 	0.70142	0.2942	0.5028	1.121
Mof_O 	O 	0.7124	0.3023	0.657	-0.642
Mof_O 	O 	0.7134	0.2675	0.481	-1.036
Mof_O 	O 	0.704	0.3143	0.391	-0.584
Mof_N 	N 	0.4626	0.2725	0.621	-0.194
Mof_C 	C 	0.4596	0.3042	0.6171	0.116
Mof_C 	C 	0.429	0.3093	0.5749	-0.083
Mof_H 	H 	0.4207	0.3281	0.5586	0.056
Mof_C 	C 	0.4141	0.2838	0.5619	-0.085
Mof_H 	H 	0.3939	0.2817	0.5372	0.054
Mof_C 	C 	0.4346	0.2606	0.5926	0.118
Mof_C 	C 	0.4258	0.231	0.6063	-0.168
Mof_C 	C 	0.3954	0.2232	0.592	0.231
Mof_C 	C 	0.3754	0.2374	0.6911	-0.323
Mof_H 	H 	0.3819	0.2513	0.772	0.144
Mof_C 	C 	0.3457	0.2315	0.673	0.294
Mof_H 	H 	0.3317	0.2403	0.7448	-0.129
Mof_C 	C 	0.3376	0.213	0.553	-0.374
Mof_C 	C 	0.3568	0.1973	0.4553	0.225
Mof_H 	H 	0.3498	0.1832	0.3774	-0.052
Mof_C 	C 	0.3865	0.2024	0.474	-0.288
Mof_H 	H 	0.4005	0.1921	0.4079	0.122
Mof_S 	S 	0.29858	0.2058	0.5028	1.121
Mof_O 	O 	0.2876	0.1977	0.657	-0.642
Mof_O 	O 	0.2866	0.2325	0.481	-1.036
Mof_O 	O 	0.296	0.1857	0.391	-0.584
Mof_N 	N 	0.9626	0.7725	0.121	-0.193
Mof_C 	C 	0.9596	0.8042	0.1171	0.114
Mof_C 	C 	0.929	0.8093	0.0749	-0.097
Mof_H 	H 	0.9207	0.8281	0.0586	0.052
Mof_C 	C 	0.9141	0.7838	0.0619	-0.081
Mof_H 	H 	0.8939	0.7817	0.0372	0.043
Mof_C 	C 	0.9346	0.7606	0.0926	0.096
Mof_C 	C 	0.9258	0.731	0.1063	-0.148
Mof_C 	C 	0.8954	0.7232	0.092	0.157
Mof_C 	C 	0.8754	0.7374	0.1911	-0.292
Mof_H 	H 	0.8819	0.7513	0.272	0.124
Mof_C 	C 	0.8457	0.7315	0.173	0.261
Mof_H 	H 	0.8317	0.7403	0.2448	-0.124
Mof_C 	C 	0.8376	0.713	0.053	-0.379
Mof_C 	C 	0.8568	0.6973	0.9553	0.236
Mof_H 	H 	0.8498	0.6832	0.8774	-0.046
Mof_C 	C 	0.8865	0.7024	0.974	-0.218
Mof_H 	H 	0.9005	0.6921	0.9079	0.11
Mof_S 	S 	0.79858	0.7058	0.0028	0.96
Mof_O 	O 	0.7876	0.6977	0.157	-0.611
Mof_O 	O 	0.7866	0.7325	0.981	-0.965
Mof_O 	O 	0.796	0.6857	0.891	-0.512
Mof_N 	N 	0.4775	0.7126	0.371	-0.197
Mof_C 	C 	0.4458	0.7096	0.3671	0.107
Mof_C 	C 	0.4407	0.679	0.3249	-0.089
Mof_H 	H 	0.4219	0.6707	0.3086	0.051
Mof_C 	C 	0.4662	0.6641	0.3119	-0.088
Mof_H 	H 	0.4683	0.6439	0.2872	0.048
Mof_C 	C 	0.4894	0.6846	0.3426	0.108
Mof_C 	C 	0.519	0.6758	0.3563	-0.171
Mof_C 	C 	0.5268	0.6454	0.342	0.224
Mof_C 	C 	0.5126	0.6254	0.4411	-0.323
Mof_H 	H 	0.4987	0.6319	0.522	0.135
Mof_C 	C 	0.5185	0.5957	0.423	0.288
Mof_H 	H 	0.5097	0.5817	0.4948	-0.133
Mof_C 	C 	0.537	0.5876	0.303	-0.375
Mof_C 	C 	0.5527	0.6068	0.2053	0.219
Mof_H 	H 	0.5668	0.5998	0.1274	-0.055
Mof_C 	C 	0.5476	0.6365	0.224	-0.286
Mof_H 	H 	0.5579	0.6505	0.1579	0.113
Mof_S 	S 	0.5442	0.54858	0.2528	1.114
Mof_O 	O 	0.5523	0.5376	0.407	-0.641
Mof_O 	O 	0.5175	0.5366	0.231	-1.026
Mof_O 	O 	0.5643	0.546	0.141	-0.583
Mof_N 	N 	0.9775	0.2126	0.871	-0.192
Mof_C 	C 	0.9458	0.2096	0.8671	0.129
Mof_C 	C 	0.9407	0.179	0.8249	-0.087
Mof_H 	H 	0.9219	0.1707	0.8086	0.067
Mof_C 	C 	0.9662	0.1641	0.8119	-0.075
Mof_H 	H 	0.9683	0.1439	0.7872	0.06
Mof_C 	C 	0.9894	0.1846	0.8426	0.12
Mof_C 	C 	0.019	0.1758	0.8563	-0.15
Mof_C 	C 	0.0268	0.1454	0.842	0.173
Mof_C 	C 	0.0126	0.1254	0.9411	-0.207
Mof_H 	H 	0.9987	0.1319	0.022	0.072
Mof_C 	C 	0.0185	0.0957	0.923	0.213
Mof_H 	H 	0.0097	0.0817	0.9948	-0.086
Mof_C 	C 	0.037	0.0876	0.803	-0.321
Mof_C 	C 	0.0527	0.1068	0.7053	0.178
Mof_H 	H 	0.0668	0.0998	0.6274	-0.036
Mof_C 	C 	0.0476	0.1365	0.724	-0.241
Mof_H 	H 	0.0579	0.1505	0.6579	0.107
Mof_S 	S 	0.0442	0.04858	0.7528	1.084
Mof_O 	O 	0.0523	0.0376	0.907	-0.6
Mof_O 	O 	0.0175	0.0366	0.731	-1.005
Mof_O 	O 	0.0643	0.046	0.641	-0.574
Mof_N 	N 	0.0225	0.2874	0.871	-0.192
Mof_C 	C 	0.0542	0.2904	0.8671	0.131
Mof_C 	C 	0.0593	0.321	0.8249	-0.094
Mof_H 	H 	0.0781	0.3293	0.8086	0.069
Mof_C 	C 	0.0338	0.3359	0.8119	-0.062
Mof_H 	H 	0.0317	0.3561	0.7872	0.052
Mof_C 	C 	0.0106	0.3154	0.8426	0.092
Mof_C 	C 	0.981	0.3242	0.8563	-0.115
Mof_C 	C 	0.9732	0.3546	0.842	0.139
Mof_C 	C 	0.9874	0.3746	0.9411	-0.15
Mof_H 	H 	0.0013	0.3681	0.022	0.043
Mof_C 	C 	0.9815	0.4043	0.923	0.178
Mof_H 	H 	0.9903	0.4183	0.9948	-0.069
Mof_C 	C 	0.963	0.4124	0.803	-0.299
Mof_C 	C 	0.9473	0.3932	0.7053	0.157
Mof_H 	H 	0.9332	0.4002	0.6274	-0.028
Mof_C 	C 	0.9524	0.3635	0.724	-0.216
Mof_H 	H 	0.9421	0.3495	0.6579	0.098
Mof_S 	S 	0.9558	0.45142	0.7528	1.076
Mof_O 	O 	0.9477	0.4624	0.907	-0.597
Mof_O 	O 	0.9825	0.4634	0.731	-1
Mof_O 	O 	0.9357	0.454	0.641	-0.57
Mof_N 	N 	0.5225	0.7874	0.371	-0.197
Mof_C 	C 	0.5542	0.7904	0.3671	0.107
Mof_C 	C 	0.5593	0.821	0.3249	-0.089
Mof_H 	H 	0.5781	0.8293	0.3086	0.051
Mof_C 	C 	0.5338	0.8359	0.3119	-0.088
Mof_H 	H 	0.5317	0.8561	0.2872	0.048
Mof_C 	C 	0.5106	0.8154	0.3426	0.108
Mof_C 	C 	0.481	0.8242	0.3563	-0.171
Mof_C 	C 	0.4732	0.8546	0.342	0.223
Mof_C 	C 	0.4874	0.8746	0.4411	-0.321
Mof_H 	H 	0.5013	0.8681	0.522	0.135
Mof_C 	C 	0.4815	0.9043	0.423	0.286
Mof_H 	H 	0.4903	0.9183	0.4948	-0.131
Mof_C 	C 	0.463	0.9124	0.303	-0.372
Mof_C 	C 	0.4473	0.8932	0.2053	0.217
Mof_H 	H 	0.4332	0.9002	0.1274	-0.054
Mof_C 	C 	0.4524	0.8635	0.224	-0.284
Mof_H 	H 	0.4421	0.8495	0.1579	0.113
Mof_S 	S 	0.4558	0.95142	0.2528	1.109
Mof_O 	O 	0.4477	0.9624	0.407	-0.635
Mof_O 	O 	0.4825	0.9634	0.231	-1.017
Mof_O 	O 	0.4357	0.954	0.141	-0.579
Mof_Pd	Pd	0.5	0.25	0.125	0.493
Mof_Pd	Pd	4.09219e-34	0.75	0.625	0.514
Mof_Pd	Pd	-1.26824e-33	0.25	0.375	0.487
Mof_Pd	Pd	0.5	0.75	0.875	0.522
Mof_Pd	Pd	2.08668e-33	0.25	0.875	0.513
Mof_Pd	Pd	0.5	0.75	0.375	0.496
Mof_Pd	Pd	0.5	0.25	0.625	0.523
Mof_Pd	Pd	-2.37803e-33	0.75	0.125	0.484
Mof_K 	K 	0.75	0.25	0.75	2.88
Mof_K 	K 	0.75	0.75	0.25	2.655
Mof_K 	K 	-0	0.5	-0	2.492
Mof_K 	K 	0.5	7.56885e-34	0.5	2.861
Mof_K 	K 	0.5	0.5	0.5	2.882
Mof_K 	K 	-0	0	-0	2.467
Mof_K 	K 	0.75	0.25	0.25	2.654
Mof_K 	K 	0.75	0.75	0.75	2.88
Mof_K 	K 	0.5	0.5	-0	2.513
Mof_K 	K 	1.08426e-33	7.56885e-34	0.5	2.837
Mof_K 	K 	2.59803e-33	0.5	0.5	2.857
Mof_K 	K 	0.5	0	-0	2.492
Mof_K 	K 	0.25	0.75	0.25	2.655
Mof_K 	K 	0.25	0.25	0.75	2.88
Mof_K 	K 	0.25	0.75	0.75	2.881
Mof_K 	K 	0.25	0.25	0.25	2.655
_end
