data_functionalizedCrystal
_audit_creation_method	'EQeq! by Chris Wilmer'
_symmetry_space_group_name_H-M	'P1'
_symmetry_Int_Tables_number	1
_symmetry_cell_setting	triclinic
loop_
_symmetry_equiv_pos_as_xyz
  x,y,z
_cell_length_a	16.119
_cell_length_b	20.898
_cell_length_c	13.325
_cell_angle_alpha	90
_cell_angle_beta	90
_cell_angle_gamma	90
loop_
_atom_site_label
_atom_site_type_symbol
_atom_site_fract_x
_atom_site_fract_y
_atom_site_fract_z
_atom_site_charge
Mof_Ag	Ag	0.50439	0.23614	0.56377	0.614
Mof_N 	N 	0.409	0.2468	0.4287	-0.199
Mof_C 	C 	0.41	0.2951	0.3639	0.091
Mof_C 	C 	0.3547	0.2004	0.4107	0.093
Mof_C 	C 	0.36	0.2981	0.2812	-0.162
Mof_C 	C 	0.3033	0.1996	0.3289	-0.154
Mof_C 	C 	0.3048	0.2491	0.2621	0.064
Mof_C 	C 	0.2504	0.2496	0.1727	0.039
Mof_C 	C 	0.2269	0.1929	0.1244	-0.137
Mof_C 	C 	0.2168	0.3054	0.1327	-0.141
Mof_C 	C 	0.1732	0.1947	0.0452	0.074
Mof_C 	C 	0.1623	0.3026	0.055	0.077
Mof_N 	N 	0.1382	0.2482	0.0103	-0.189
Mof_N 	N 	0.5167	0.1335	0.6188	-0.211
Mof_C 	C 	0.5661	0.1181	0.6921	0.098
Mof_C 	C 	0.4696	0.0869	0.586	0.09
Mof_C 	C 	0.5705	0.0589	0.7364	-0.159
Mof_C 	C 	0.4693	0.026	0.6268	-0.155
Mof_C 	C 	0.5207	0.0106	0.7037	0.064
Mof_C 	C 	0.5204	0.9456	0.7501	0.063
Mof_C 	C 	0.5688	0.9312	0.8302	-0.157
Mof_C 	C 	0.4713	0.8974	0.7149	-0.156
Mof_C 	C 	0.5633	0.8725	0.8746	0.093
Mof_C 	C 	0.4695	0.8396	0.7632	0.094
Mof_N 	N 	0.5136	0.8261	0.844	-0.207
Mof_H 	H 	0.4468	0.3286	0.3754	-0.017
Mof_H 	H 	0.3513	0.1667	0.4561	-0.017
Mof_H 	H 	0.3631	0.333	0.2381	0.073
Mof_H 	H 	0.2675	0.1653	0.3188	0.079
Mof_H 	H 	0.2479	0.1539	0.1464	0.07
Mof_H 	H 	0.2318	0.3449	0.1593	0.07
Mof_H 	H 	0.1602	0.1563	0.0136	-0.009
Mof_H 	H 	0.1403	0.3409	0.0313	-0.01
Mof_H 	H 	0.6013	0.1498	0.7164	-0.02
Mof_H 	H 	0.4343	0.0952	0.5323	-0.017
Mof_H 	H 	0.6076	0.0517	0.7888	0.076
Mof_H 	H 	0.4334	0.9952	0.6011	0.077
Mof_H 	H 	0.6058	0.9614	0.855	0.076
Mof_H 	H 	0.4389	0.9039	0.658	0.073
Mof_H 	H 	0.5967	0.8646	0.9302	-0.016
Mof_H 	H 	0.435	0.8079	0.7375	-0.019
Mof_Ag	Ag	0.49561	0.73614	0.93623	0.615
Mof_N 	N 	0.591	0.7468	0.0713	-0.198
Mof_C 	C 	0.59	0.7951	0.1361	0.092
Mof_C 	C 	0.6453	0.7004	0.0893	0.094
Mof_C 	C 	0.64	0.7981	0.2188	-0.162
Mof_C 	C 	0.6967	0.6996	0.1711	-0.154
Mof_C 	C 	0.6952	0.7491	0.2379	0.064
Mof_C 	C 	0.7496	0.7496	0.3273	0.039
Mof_C 	C 	0.7731	0.6929	0.3756	-0.138
Mof_C 	C 	0.7832	0.8054	0.3673	-0.141
Mof_C 	C 	0.8268	0.6947	0.4548	0.074
Mof_C 	C 	0.8377	0.8026	0.445	0.077
Mof_N 	N 	0.8618	0.7482	0.4897	-0.189
Mof_N 	N 	0.4833	0.6335	0.8812	-0.211
Mof_C 	C 	0.4339	0.6181	0.8079	0.098
Mof_C 	C 	0.5304	0.5869	0.914	0.09
Mof_C 	C 	0.4295	0.5589	0.7636	-0.158
Mof_C 	C 	0.5307	0.526	0.8732	-0.154
Mof_C 	C 	0.4793	0.5106	0.7963	0.063
Mof_C 	C 	0.4796	0.4456	0.7499	0.064
Mof_C 	C 	0.4312	0.4312	0.6698	-0.157
Mof_C 	C 	0.5287	0.3974	0.7851	-0.156
Mof_C 	C 	0.4367	0.3725	0.6254	0.094
Mof_C 	C 	0.5305	0.3396	0.7368	0.095
Mof_N 	N 	0.4864	0.3261	0.656	-0.207
Mof_H 	H 	0.5532	0.8286	0.1246	-0.017
Mof_H 	H 	0.6487	0.6667	0.0439	-0.017
Mof_H 	H 	0.6369	0.833	0.2619	0.073
Mof_H 	H 	0.7325	0.6653	0.1812	0.079
Mof_H 	H 	0.7521	0.6539	0.3536	0.07
Mof_H 	H 	0.7682	0.8449	0.3407	0.069
Mof_H 	H 	0.8398	0.6563	0.4864	-0.009
Mof_H 	H 	0.8597	0.8409	0.4687	-0.011
Mof_H 	H 	0.3987	0.6498	0.7836	-0.02
Mof_H 	H 	0.5657	0.5952	0.9677	-0.017
Mof_H 	H 	0.3924	0.5517	0.7112	0.075
Mof_H 	H 	0.5666	0.4952	0.8989	0.076
Mof_H 	H 	0.3942	0.4614	0.645	0.076
Mof_H 	H 	0.5611	0.4039	0.842	0.073
Mof_H 	H 	0.4033	0.3646	0.5698	-0.016
Mof_H 	H 	0.565	0.3079	0.7625	-0.019
Mof_Ag	Ag	0.00439	0.23614	0.93623	0.611
Mof_N 	N 	0.909	0.2468	0.0713	-0.198
Mof_C 	C 	0.91	0.2951	0.1361	0.092
Mof_C 	C 	0.8547	0.2004	0.0893	0.095
Mof_C 	C 	0.86	0.2981	0.2188	-0.162
Mof_C 	C 	0.8033	0.1996	0.1711	-0.154
Mof_C 	C 	0.8048	0.2491	0.2379	0.064
Mof_C 	C 	0.7504	0.2496	0.3273	0.039
Mof_C 	C 	0.7269	0.1929	0.3756	-0.137
Mof_C 	C 	0.7168	0.3054	0.3673	-0.141
Mof_C 	C 	0.6732	0.1947	0.4548	0.074
Mof_C 	C 	0.6623	0.3026	0.445	0.077
Mof_N 	N 	0.6382	0.2482	0.4897	-0.189
Mof_N 	N 	0.0167	0.1335	0.8812	-0.209
Mof_C 	C 	0.0661	0.1181	0.8079	0.092
Mof_C 	C 	0.9696	0.0869	0.914	0.085
Mof_C 	C 	0.0705	0.0589	0.7636	-0.149
Mof_C 	C 	0.9693	0.026	0.8732	-0.137
Mof_C 	C 	0.0207	0.0106	0.7963	0.048
Mof_C 	C 	0.0204	0.9456	0.7499	0.075
Mof_C 	C 	0.0688	0.9312	0.6698	-0.165
Mof_C 	C 	0.9713	0.8974	0.7851	-0.165
Mof_C 	C 	0.0633	0.8725	0.6254	0.098
Mof_C 	C 	0.9695	0.8396	0.7368	0.098
Mof_N 	N 	0.0136	0.8261	0.656	-0.208
Mof_H 	H 	0.9468	0.3286	0.1246	-0.017
Mof_H 	H 	0.8513	0.1667	0.0439	-0.017
Mof_H 	H 	0.8631	0.333	0.2619	0.073
Mof_H 	H 	0.7675	0.1653	0.1812	0.079
Mof_H 	H 	0.7479	0.1539	0.3536	0.07
Mof_H 	H 	0.7318	0.3449	0.3407	0.069
Mof_H 	H 	0.6602	0.1563	0.4864	-0.009
Mof_H 	H 	0.6403	0.3409	0.4687	-0.011
Mof_H 	H 	0.1013	0.1498	0.7836	-0.018
Mof_H 	H 	0.9343	0.0952	0.9677	-0.014
Mof_H 	H 	0.1076	0.0517	0.7112	0.072
Mof_H 	H 	0.9334	0.9952	0.8989	0.069
Mof_H 	H 	0.1058	0.9614	0.645	0.079
Mof_H 	H 	0.9389	0.9039	0.842	0.076
Mof_H 	H 	0.0967	0.8646	0.5698	-0.017
Mof_H 	H 	0.935	0.8079	0.7625	-0.02
Mof_Ag	Ag	0.99561	0.73614	0.56377	0.614
Mof_N 	N 	0.091	0.7468	0.4287	-0.198
Mof_C 	C 	0.09	0.7951	0.3639	0.092
Mof_C 	C 	0.1453	0.7004	0.4107	0.095
Mof_C 	C 	0.14	0.7981	0.2812	-0.161
Mof_C 	C 	0.1967	0.6996	0.3289	-0.154
Mof_C 	C 	0.1952	0.7491	0.2621	0.064
Mof_C 	C 	0.2496	0.7496	0.1727	0.039
Mof_C 	C 	0.2731	0.6929	0.1244	-0.137
Mof_C 	C 	0.2832	0.8054	0.1327	-0.141
Mof_C 	C 	0.3268	0.6947	0.0452	0.074
Mof_C 	C 	0.3377	0.8026	0.055	0.077
Mof_N 	N 	0.3618	0.7482	0.0103	-0.189
Mof_N 	N 	0.9833	0.6335	0.6188	-0.211
Mof_C 	C 	0.9339	0.6181	0.6921	0.098
Mof_C 	C 	0.0304	0.5869	0.586	0.09
Mof_C 	C 	0.9295	0.5589	0.7364	-0.158
Mof_C 	C 	0.0307	0.526	0.6268	-0.155
Mof_C 	C 	0.9793	0.5106	0.7037	0.064
Mof_C 	C 	0.9796	0.4456	0.7501	0.065
Mof_C 	C 	0.9312	0.4312	0.8302	-0.157
Mof_C 	C 	0.0287	0.3974	0.7149	-0.157
Mof_C 	C 	0.9367	0.3725	0.8746	0.094
Mof_C 	C 	0.0305	0.3396	0.7632	0.093
Mof_N 	N 	0.9864	0.3261	0.844	-0.205
Mof_H 	H 	0.0532	0.8286	0.3754	-0.017
Mof_H 	H 	0.1487	0.6667	0.4561	-0.016
Mof_H 	H 	0.1369	0.833	0.2381	0.073
Mof_H 	H 	0.2325	0.6653	0.3188	0.079
Mof_H 	H 	0.2521	0.6539	0.1464	0.07
Mof_H 	H 	0.2682	0.8449	0.1593	0.07
Mof_H 	H 	0.3398	0.6563	0.0136	-0.009
Mof_H 	H 	0.3597	0.8409	0.0313	-0.011
Mof_H 	H 	0.8987	0.6498	0.7164	-0.02
Mof_H 	H 	0.0657	0.5952	0.5323	-0.017
Mof_H 	H 	0.8924	0.5517	0.7888	0.076
Mof_H 	H 	0.0666	0.4952	0.6011	0.076
Mof_H 	H 	0.8942	0.4614	0.855	0.076
Mof_H 	H 	0.0611	0.4039	0.658	0.073
Mof_H 	H 	0.9033	0.3646	0.9302	-0.016
Mof_H 	H 	0.065	0.3079	0.7375	-0.018
Mof_Ag	Ag	0.99561	0.76386	0.06377	0.611
Mof_N 	N 	0.091	0.7532	0.9287	-0.198
Mof_C 	C 	0.09	0.7049	0.8639	0.092
Mof_C 	C 	0.1453	0.7996	0.9107	0.095
Mof_C 	C 	0.14	0.7019	0.7812	-0.162
Mof_C 	C 	0.1967	0.8004	0.8289	-0.154
Mof_C 	C 	0.1952	0.7509	0.7621	0.064
Mof_C 	C 	0.2496	0.7504	0.6727	0.039
Mof_C 	C 	0.2731	0.8071	0.6244	-0.137
Mof_C 	C 	0.2832	0.6946	0.6327	-0.141
Mof_C 	C 	0.3268	0.8053	0.5452	0.074
Mof_C 	C 	0.3377	0.6974	0.555	0.077
Mof_N 	N 	0.3618	0.7518	0.5103	-0.189
Mof_N 	N 	0.9833	0.8665	0.1188	-0.209
Mof_C 	C 	0.9339	0.8819	0.1921	0.092
Mof_C 	C 	0.0304	0.9131	0.086	0.085
Mof_C 	C 	0.9295	0.9411	0.2364	-0.149
Mof_C 	C 	0.0307	0.974	0.1268	-0.137
Mof_C 	C 	0.9793	0.9894	0.2037	0.048
Mof_C 	C 	0.9796	0.0544	0.2501	0.075
Mof_C 	C 	0.9312	0.0688	0.3302	-0.165
Mof_C 	C 	0.0287	0.1026	0.2149	-0.165
Mof_C 	C 	0.9367	0.1275	0.3746	0.098
Mof_C 	C 	0.0305	0.1604	0.2632	0.098
Mof_N 	N 	0.9864	0.1739	0.344	-0.208
Mof_H 	H 	0.0532	0.6714	0.8754	-0.017
Mof_H 	H 	0.1487	0.8333	0.9561	-0.017
Mof_H 	H 	0.1369	0.667	0.7381	0.073
Mof_H 	H 	0.2325	0.8347	0.8188	0.079
Mof_H 	H 	0.2521	0.8461	0.6464	0.07
Mof_H 	H 	0.2682	0.6551	0.6593	0.069
Mof_H 	H 	0.3398	0.8437	0.5136	-0.009
Mof_H 	H 	0.3597	0.6591	0.5313	-0.011
Mof_H 	H 	0.8987	0.8502	0.2164	-0.018
Mof_H 	H 	0.0657	0.9048	0.0323	-0.014
Mof_H 	H 	0.8924	0.9483	0.2888	0.072
Mof_H 	H 	0.0666	0.0048	0.1011	0.069
Mof_H 	H 	0.8942	0.0386	0.355	0.079
Mof_H 	H 	0.0611	0.0961	0.158	0.076
Mof_H 	H 	0.9033	0.1354	0.4302	-0.017
Mof_H 	H 	0.065	0.1921	0.2375	-0.02
Mof_Ag	Ag	0.00439	0.26386	0.43623	0.614
Mof_N 	N 	0.909	0.2532	0.5713	-0.198
Mof_C 	C 	0.91	0.2049	0.6361	0.092
Mof_C 	C 	0.8547	0.2996	0.5893	0.095
Mof_C 	C 	0.86	0.2019	0.7188	-0.161
Mof_C 	C 	0.8033	0.3004	0.6711	-0.154
Mof_C 	C 	0.8048	0.2509	0.7379	0.064
Mof_C 	C 	0.7504	0.2504	0.8273	0.039
Mof_C 	C 	0.7269	0.3071	0.8756	-0.137
Mof_C 	C 	0.7168	0.1946	0.8673	-0.141
Mof_C 	C 	0.6732	0.3053	0.9548	0.074
Mof_C 	C 	0.6623	0.1974	0.945	0.077
Mof_N 	N 	0.6382	0.2518	0.9897	-0.189
Mof_N 	N 	0.0167	0.3665	0.3812	-0.211
Mof_C 	C 	0.0661	0.3819	0.3079	0.098
Mof_C 	C 	0.9696	0.4131	0.414	0.09
Mof_C 	C 	0.0705	0.4411	0.2636	-0.158
Mof_C 	C 	0.9693	0.474	0.3732	-0.155
Mof_C 	C 	0.0207	0.4894	0.2963	0.064
Mof_C 	C 	0.0204	0.5544	0.2499	0.065
Mof_C 	C 	0.0688	0.5688	0.1698	-0.157
Mof_C 	C 	0.9713	0.6026	0.2851	-0.157
Mof_C 	C 	0.0633	0.6275	0.1254	0.094
Mof_C 	C 	0.9695	0.6604	0.2368	0.093
Mof_N 	N 	0.0136	0.6739	0.156	-0.205
Mof_H 	H 	0.9468	0.1714	0.6246	-0.017
Mof_H 	H 	0.8513	0.3333	0.5439	-0.016
Mof_H 	H 	0.8631	0.167	0.7619	0.073
Mof_H 	H 	0.7675	0.3347	0.6812	0.079
Mof_H 	H 	0.7479	0.3461	0.8536	0.07
Mof_H 	H 	0.7318	0.1551	0.8407	0.07
Mof_H 	H 	0.6602	0.3437	0.9864	-0.009
Mof_H 	H 	0.6403	0.1591	0.9687	-0.011
Mof_H 	H 	0.1013	0.3502	0.2836	-0.02
Mof_H 	H 	0.9343	0.4048	0.4677	-0.017
Mof_H 	H 	0.1076	0.4483	0.2112	0.076
Mof_H 	H 	0.9334	0.5048	0.3989	0.076
Mof_H 	H 	0.1058	0.5386	0.145	0.076
Mof_H 	H 	0.9389	0.5961	0.342	0.073
Mof_H 	H 	0.0967	0.6354	0.0698	-0.016
Mof_H 	H 	0.935	0.6921	0.2625	-0.018
Mof_Ag	Ag	0.49561	0.76386	0.43623	0.615
Mof_N 	N 	0.591	0.7532	0.5713	-0.198
Mof_C 	C 	0.59	0.7049	0.6361	0.092
Mof_C 	C 	0.6453	0.7996	0.5893	0.094
Mof_C 	C 	0.64	0.7019	0.7188	-0.162
Mof_C 	C 	0.6967	0.8004	0.6711	-0.154
Mof_C 	C 	0.6952	0.7509	0.7379	0.064
Mof_C 	C 	0.7496	0.7504	0.8273	0.039
Mof_C 	C 	0.7731	0.8071	0.8756	-0.137
Mof_C 	C 	0.7832	0.6946	0.8673	-0.141
Mof_C 	C 	0.8268	0.8053	0.9548	0.074
Mof_C 	C 	0.8377	0.6974	0.945	0.077
Mof_N 	N 	0.8618	0.7518	0.9897	-0.189
Mof_N 	N 	0.4833	0.8665	0.3812	-0.211
Mof_C 	C 	0.4339	0.8819	0.3079	0.098
Mof_C 	C 	0.5304	0.9131	0.414	0.09
Mof_C 	C 	0.4295	0.9411	0.2636	-0.159
Mof_C 	C 	0.5307	0.974	0.3732	-0.155
Mof_C 	C 	0.4793	0.9894	0.2963	0.064
Mof_C 	C 	0.4796	0.0544	0.2499	0.063
Mof_C 	C 	0.4312	0.0688	0.1698	-0.157
Mof_C 	C 	0.5287	0.1026	0.2851	-0.156
Mof_C 	C 	0.4367	0.1275	0.1254	0.093
Mof_C 	C 	0.5305	0.1604	0.2368	0.094
Mof_N 	N 	0.4864	0.1739	0.156	-0.207
Mof_H 	H 	0.5532	0.6714	0.6246	-0.017
Mof_H 	H 	0.6487	0.8333	0.5439	-0.017
Mof_H 	H 	0.6369	0.667	0.7619	0.073
Mof_H 	H 	0.7325	0.8347	0.6812	0.079
Mof_H 	H 	0.7521	0.8461	0.8536	0.07
Mof_H 	H 	0.7682	0.6551	0.8407	0.07
Mof_H 	H 	0.8398	0.8437	0.9864	-0.009
Mof_H 	H 	0.8597	0.6591	0.9687	-0.01
Mof_H 	H 	0.3987	0.8502	0.2836	-0.02
Mof_H 	H 	0.5657	0.9048	0.4677	-0.017
Mof_H 	H 	0.3924	0.9483	0.2112	0.076
Mof_H 	H 	0.5666	0.0048	0.3989	0.077
Mof_H 	H 	0.3942	0.0386	0.145	0.076
Mof_H 	H 	0.5611	0.0961	0.342	0.073
Mof_H 	H 	0.4033	0.1354	0.0698	-0.016
Mof_H 	H 	0.565	0.1921	0.2625	-0.019
Mof_Ag	Ag	0.50439	0.26386	0.06377	0.615
Mof_N 	N 	0.409	0.2532	0.9287	-0.198
Mof_C 	C 	0.41	0.2049	0.8639	0.092
Mof_C 	C 	0.3547	0.2996	0.9107	0.094
Mof_C 	C 	0.36	0.2019	0.7812	-0.162
Mof_C 	C 	0.3033	0.3004	0.8289	-0.154
Mof_C 	C 	0.3048	0.2509	0.7621	0.064
Mof_C 	C 	0.2504	0.2504	0.6727	0.039
Mof_C 	C 	0.2269	0.3071	0.6244	-0.138
Mof_C 	C 	0.2168	0.1946	0.6327	-0.141
Mof_C 	C 	0.1732	0.3053	0.5452	0.074
Mof_C 	C 	0.1623	0.1974	0.555	0.077
Mof_N 	N 	0.1382	0.2518	0.5103	-0.189
Mof_N 	N 	0.5167	0.3665	0.1188	-0.211
Mof_C 	C 	0.5661	0.3819	0.1921	0.098
Mof_C 	C 	0.4696	0.4131	0.086	0.09
Mof_C 	C 	0.5705	0.4411	0.2364	-0.158
Mof_C 	C 	0.4693	0.474	0.1268	-0.154
Mof_C 	C 	0.5207	0.4894	0.2037	0.063
Mof_C 	C 	0.5204	0.5544	0.2501	0.064
Mof_C 	C 	0.5688	0.5688	0.3302	-0.157
Mof_C 	C 	0.4713	0.6026	0.2149	-0.156
Mof_C 	C 	0.5633	0.6275	0.3746	0.094
Mof_C 	C 	0.4695	0.6604	0.2632	0.095
Mof_N 	N 	0.5136	0.6739	0.344	-0.207
Mof_H 	H 	0.4468	0.1714	0.8754	-0.017
Mof_H 	H 	0.3513	0.3333	0.9561	-0.017
Mof_H 	H 	0.3631	0.167	0.7381	0.073
Mof_H 	H 	0.2675	0.3347	0.8188	0.079
Mof_H 	H 	0.2479	0.3461	0.6464	0.07
Mof_H 	H 	0.2318	0.1551	0.6593	0.069
Mof_H 	H 	0.1602	0.3437	0.5136	-0.009
Mof_H 	H 	0.1403	0.1591	0.5313	-0.011
Mof_H 	H 	0.6013	0.3502	0.2164	-0.02
Mof_H 	H 	0.4343	0.4048	0.0323	-0.017
Mof_H 	H 	0.6076	0.4483	0.2888	0.075
Mof_H 	H 	0.4334	0.5048	0.1011	0.076
Mof_H 	H 	0.6058	0.5386	0.355	0.076
Mof_H 	H 	0.4389	0.5961	0.158	0.073
Mof_H 	H 	0.5967	0.6354	0.4302	-0.016
Mof_H 	H 	0.435	0.6921	0.2375	-0.019
_end
