data_functionalizedCrystal
_audit_creation_method	'EQeq! by Chris Wilmer'
_symmetry_space_group_name_H-M	'P1'
_symmetry_Int_Tables_number	1
_symmetry_cell_setting	triclinic
loop_
_symmetry_equiv_pos_as_xyz
  x,y,z
_cell_length_a	23.5973
_cell_length_b	23.6053
_cell_length_c	28.0515
_cell_angle_alpha	90
_cell_angle_beta	90
_cell_angle_gamma	90
loop_
_atom_site_label
_atom_site_type_symbol
_atom_site_fract_x
_atom_site_fract_y
_atom_site_fract_z
_atom_site_charge
Mof_O 	O 	0.58452	0.4647	0.21067	-0.495
Mof_C 	C 	0.76079	0.46533	0.20877	-0.258
Mof_H 	H 	0.7802	0.4658	0.1799	0.11
Mof_C 	C 	0.7024	0.46529	0.20832	0.162
Mof_H 	H 	0.6833	0.4656	0.1793	-0.023
Mof_C 	C 	0.5353	0.44231	0.40602	0.209
Mof_C 	C 	0.5345	0.45355	0.4561	-0.183
Mof_H 	H 	0.5577	0.4329	0.4765	0.081
Mof_C 	C 	0.4693	0.5247	0.44235	-0.091
Mof_H 	H 	0.4473	0.5548	0.4529	0.047
Mof_C 	C 	0.47084	0.5111	0.39412	0.025
Mof_H 	H 	0.4491	0.5329	0.3735	0.011
Mof_C 	C 	0.5726	0.3926	0.38643	-0.708
Mof_H 	H 	0.5679	0.3898	0.3525	0.233
Mof_H 	H 	0.5611	0.3577	0.4011	0.228
Mof_H 	H 	0.6117	0.3998	0.3937	0.233
Mof_O 	O 	0.08452	0.9647	0.21067	-0.494
Mof_C 	C 	0.26079	0.96533	0.20877	-0.258
Mof_H 	H 	0.2802	0.9658	0.1799	0.109
Mof_C 	C 	0.2024	0.96529	0.20832	0.162
Mof_H 	H 	0.1833	0.9656	0.1793	-0.023
Mof_C 	C 	0.0353	0.94231	0.40602	0.196
Mof_C 	C 	0.0345	0.95355	0.4561	-0.181
Mof_H 	H 	0.0577	0.9329	0.4765	0.078
Mof_C 	C 	0.9693	0.0247	0.44235	-0.053
Mof_H 	H 	0.9473	0.0548	0.4529	0.045
Mof_C 	C 	0.97084	0.0111	0.39412	0.064
Mof_H 	H 	0.9491	0.0329	0.3735	0.01
Mof_C 	C 	0.0726	0.8926	0.38643	-0.692
Mof_H 	H 	0.0679	0.8898	0.3525	0.228
Mof_H 	H 	0.0611	0.8577	0.4011	0.218
Mof_H 	H 	0.1117	0.8998	0.3937	0.229
Mof_O 	O 	0.41548	0.5353	0.71067	-0.494
Mof_C 	C 	0.23921	0.53467	0.70877	-0.256
Mof_H 	H 	0.2198	0.5342	0.6799	0.107
Mof_C 	C 	0.2976	0.53471	0.70832	0.161
Mof_H 	H 	0.3167	0.5344	0.6793	-0.023
Mof_C 	C 	0.4647	0.55769	0.90602	0.206
Mof_C 	C 	0.4655	0.54645	0.9561	-0.179
Mof_H 	H 	0.4423	0.5671	0.9765	0.08
Mof_C 	C 	0.5307	0.4753	0.94235	-0.085
Mof_H 	H 	0.5527	0.4452	0.9529	0.047
Mof_C 	C 	0.52916	0.4889	0.89412	0.021
Mof_H 	H 	0.5509	0.4671	0.8735	0.014
Mof_C 	C 	0.4274	0.6074	0.88643	-0.7
Mof_H 	H 	0.4321	0.6102	0.8525	0.232
Mof_H 	H 	0.4389	0.6423	0.9011	0.226
Mof_H 	H 	0.3883	0.6002	0.8937	0.231
Mof_O 	O 	0.91548	0.0353	0.71067	-0.477
Mof_C 	C 	0.73921	0.03467	0.70877	-0.256
Mof_H 	H 	0.7198	0.0342	0.6799	0.109
Mof_C 	C 	0.7976	0.03471	0.70832	0.162
Mof_H 	H 	0.8167	0.0344	0.6793	-0.021
Mof_C 	C 	0.9647	0.05769	0.90602	0.228
Mof_C 	C 	0.9655	0.04645	0.9561	-0.14
Mof_H 	H 	0.9423	0.0671	0.9765	0.074
Mof_C 	C 	0.0307	0.9753	0.94235	-0.085
Mof_H 	H 	0.0527	0.9452	0.9529	0.043
Mof_C 	C 	0.02916	0.9889	0.89412	-0.01
Mof_H 	H 	0.0509	0.9671	0.8735	0.022
Mof_C 	C 	0.9274	0.1074	0.88643	-0.731
Mof_H 	H 	0.9321	0.1102	0.8525	0.252
Mof_H 	H 	0.9389	0.1423	0.9011	0.246
Mof_H 	H 	0.8883	0.1002	0.8937	0.242
Mof_O 	O 	0.41548	0.4647	0.28933	-0.494
Mof_C 	C 	0.23921	0.46533	0.29123	-0.256
Mof_H 	H 	0.2198	0.4658	0.3201	0.107
Mof_C 	C 	0.2976	0.46529	0.29168	0.161
Mof_H 	H 	0.3167	0.4656	0.3207	-0.023
Mof_C 	C 	0.4647	0.44231	0.09398	0.206
Mof_C 	C 	0.4655	0.45355	0.0439	-0.179
Mof_H 	H 	0.4423	0.4329	0.0235	0.08
Mof_C 	C 	0.5307	0.5247	0.05765	-0.085
Mof_H 	H 	0.5527	0.5548	0.0471	0.047
Mof_C 	C 	0.52916	0.5111	0.10588	0.021
Mof_H 	H 	0.5509	0.5329	0.1265	0.014
Mof_C 	C 	0.4274	0.3926	0.11357	-0.7
Mof_H 	H 	0.4321	0.3898	0.1475	0.232
Mof_H 	H 	0.4389	0.3577	0.0989	0.226
Mof_H 	H 	0.3883	0.3998	0.1063	0.231
Mof_O 	O 	0.91548	0.9647	0.28933	-0.477
Mof_C 	C 	0.73921	0.96533	0.29123	-0.256
Mof_H 	H 	0.7198	0.9658	0.3201	0.109
Mof_C 	C 	0.7976	0.96529	0.29168	0.162
Mof_H 	H 	0.8167	0.9656	0.3207	-0.021
Mof_C 	C 	0.9647	0.94231	0.09398	0.228
Mof_C 	C 	0.9655	0.95355	0.0439	-0.14
Mof_H 	H 	0.9423	0.9329	0.0235	0.074
Mof_C 	C 	0.0307	0.0247	0.05765	-0.085
Mof_H 	H 	0.0527	0.0548	0.0471	0.043
Mof_C 	C 	0.02916	0.0111	0.10588	-0.01
Mof_H 	H 	0.0509	0.0329	0.1265	0.022
Mof_C 	C 	0.9274	0.8926	0.11357	-0.731
Mof_H 	H 	0.9321	0.8898	0.1475	0.252
Mof_H 	H 	0.9389	0.8577	0.0989	0.246
Mof_H 	H 	0.8883	0.8998	0.1063	0.242
Mof_O 	O 	0.58452	0.5353	0.78933	-0.494
Mof_C 	C 	0.76079	0.53467	0.79123	-0.257
Mof_H 	H 	0.7802	0.5342	0.8201	0.111
Mof_C 	C 	0.7024	0.53471	0.79168	0.163
Mof_H 	H 	0.6833	0.5344	0.8207	-0.022
Mof_C 	C 	0.5353	0.55769	0.59398	0.21
Mof_C 	C 	0.5345	0.54645	0.5439	-0.182
Mof_H 	H 	0.5577	0.5671	0.5235	0.082
Mof_C 	C 	0.4693	0.4753	0.55765	-0.09
Mof_H 	H 	0.4473	0.4452	0.5471	0.048
Mof_C 	C 	0.47084	0.4889	0.60588	0.026
Mof_H 	H 	0.4491	0.4671	0.6265	0.012
Mof_C 	C 	0.5726	0.6074	0.61357	-0.707
Mof_H 	H 	0.5679	0.6102	0.6475	0.234
Mof_H 	H 	0.5611	0.6423	0.5989	0.229
Mof_H 	H 	0.6117	0.6002	0.6063	0.234
Mof_O 	O 	0.08452	0.0353	0.78933	-0.494
Mof_C 	C 	0.26079	0.03467	0.79123	-0.258
Mof_H 	H 	0.2802	0.0342	0.8201	0.109
Mof_C 	C 	0.2024	0.03471	0.79168	0.162
Mof_H 	H 	0.1833	0.0344	0.8207	-0.023
Mof_C 	C 	0.0353	0.05769	0.59398	0.196
Mof_C 	C 	0.0345	0.04645	0.5439	-0.181
Mof_H 	H 	0.0577	0.0671	0.5235	0.078
Mof_C 	C 	0.9693	0.9753	0.55765	-0.053
Mof_H 	H 	0.9473	0.9452	0.5471	0.045
Mof_C 	C 	0.97084	0.9889	0.60588	0.064
Mof_H 	H 	0.9491	0.9671	0.6265	0.01
Mof_C 	C 	0.0726	0.1074	0.61357	-0.692
Mof_H 	H 	0.0679	0.1102	0.6475	0.228
Mof_H 	H 	0.0611	0.1423	0.5989	0.218
Mof_H 	H 	0.1117	0.1002	0.6063	0.229
Mof_O 	O 	0.41548	0.5353	0.78933	-0.494
Mof_C 	C 	0.23921	0.53467	0.79123	-0.256
Mof_H 	H 	0.2198	0.5342	0.8201	0.107
Mof_C 	C 	0.2976	0.53471	0.79168	0.161
Mof_H 	H 	0.3167	0.5344	0.8207	-0.023
Mof_C 	C 	0.4647	0.55769	0.59398	0.206
Mof_C 	C 	0.4655	0.54645	0.5439	-0.179
Mof_H 	H 	0.4423	0.5671	0.5235	0.08
Mof_C 	C 	0.5307	0.4753	0.55765	-0.085
Mof_H 	H 	0.5527	0.4452	0.5471	0.047
Mof_C 	C 	0.52916	0.4889	0.60588	0.021
Mof_H 	H 	0.5509	0.4671	0.6265	0.014
Mof_C 	C 	0.4274	0.6074	0.61357	-0.7
Mof_H 	H 	0.4321	0.6102	0.6475	0.231
Mof_H 	H 	0.4389	0.6423	0.5989	0.226
Mof_H 	H 	0.3883	0.6002	0.6063	0.231
Mof_O 	O 	0.91548	0.0353	0.78933	-0.477
Mof_C 	C 	0.73921	0.03467	0.79123	-0.256
Mof_H 	H 	0.7198	0.0342	0.8201	0.109
Mof_C 	C 	0.7976	0.03471	0.79168	0.162
Mof_H 	H 	0.8167	0.0344	0.8207	-0.021
Mof_C 	C 	0.9647	0.05769	0.59398	0.228
Mof_C 	C 	0.9655	0.04645	0.5439	-0.14
Mof_H 	H 	0.9423	0.0671	0.5235	0.074
Mof_C 	C 	0.0307	0.9753	0.55765	-0.086
Mof_H 	H 	0.0527	0.9452	0.5471	0.043
Mof_C 	C 	0.02916	0.9889	0.60588	-0.01
Mof_H 	H 	0.0509	0.9671	0.6265	0.022
Mof_C 	C 	0.9274	0.1074	0.61357	-0.731
Mof_H 	H 	0.9321	0.1102	0.6475	0.252
Mof_H 	H 	0.9389	0.1423	0.5989	0.247
Mof_H 	H 	0.8883	0.1002	0.6063	0.242
Mof_O 	O 	0.58452	0.4647	0.28933	-0.494
Mof_C 	C 	0.76079	0.46533	0.29123	-0.257
Mof_H 	H 	0.7802	0.4658	0.3201	0.111
Mof_C 	C 	0.7024	0.46529	0.29168	0.163
Mof_H 	H 	0.6833	0.4656	0.3207	-0.022
Mof_C 	C 	0.5353	0.44231	0.09398	0.21
Mof_C 	C 	0.5345	0.45355	0.0439	-0.182
Mof_H 	H 	0.5577	0.4329	0.0235	0.082
Mof_C 	C 	0.4693	0.5247	0.05765	-0.09
Mof_H 	H 	0.4473	0.5548	0.0471	0.048
Mof_C 	C 	0.47084	0.5111	0.10588	0.026
Mof_H 	H 	0.4491	0.5329	0.1265	0.012
Mof_C 	C 	0.5726	0.3926	0.11357	-0.707
Mof_H 	H 	0.5679	0.3898	0.1475	0.234
Mof_H 	H 	0.5611	0.3577	0.0989	0.229
Mof_H 	H 	0.6117	0.3998	0.1063	0.234
Mof_O 	O 	0.08452	0.9647	0.28933	-0.494
Mof_C 	C 	0.26079	0.96533	0.29123	-0.258
Mof_H 	H 	0.2802	0.9658	0.3201	0.109
Mof_C 	C 	0.2024	0.96529	0.29168	0.162
Mof_H 	H 	0.1833	0.9656	0.3207	-0.023
Mof_C 	C 	0.0353	0.94231	0.09398	0.196
Mof_C 	C 	0.0345	0.95355	0.0439	-0.181
Mof_H 	H 	0.0577	0.9329	0.0235	0.078
Mof_C 	C 	0.9693	0.0247	0.05765	-0.053
Mof_H 	H 	0.9473	0.0548	0.0471	0.045
Mof_C 	C 	0.97084	0.0111	0.10588	0.064
Mof_H 	H 	0.9491	0.0329	0.1265	0.01
Mof_C 	C 	0.0726	0.8926	0.11357	-0.692
Mof_H 	H 	0.0679	0.8898	0.1475	0.228
Mof_H 	H 	0.0611	0.8577	0.0989	0.218
Mof_H 	H 	0.1117	0.8998	0.1063	0.229
Mof_O 	O 	0.58452	0.5353	0.71067	-0.494
Mof_C 	C 	0.76079	0.53467	0.70877	-0.257
Mof_H 	H 	0.7802	0.5342	0.6799	0.111
Mof_C 	C 	0.7024	0.53471	0.70832	0.163
Mof_H 	H 	0.6833	0.5344	0.6793	-0.022
Mof_C 	C 	0.5353	0.55769	0.90602	0.21
Mof_C 	C 	0.5345	0.54645	0.9561	-0.182
Mof_H 	H 	0.5577	0.5671	0.9765	0.082
Mof_C 	C 	0.4693	0.4753	0.94235	-0.09
Mof_H 	H 	0.4473	0.4452	0.9529	0.048
Mof_C 	C 	0.47084	0.4889	0.89412	0.026
Mof_H 	H 	0.4491	0.4671	0.8735	0.012
Mof_C 	C 	0.5726	0.6074	0.88643	-0.707
Mof_H 	H 	0.5679	0.6102	0.8525	0.234
Mof_H 	H 	0.5611	0.6423	0.9011	0.229
Mof_H 	H 	0.6117	0.6002	0.8937	0.234
Mof_O 	O 	0.08452	0.0353	0.71067	-0.494
Mof_C 	C 	0.26079	0.03467	0.70877	-0.258
Mof_H 	H 	0.2802	0.0342	0.6799	0.109
Mof_C 	C 	0.2024	0.03471	0.70832	0.162
Mof_H 	H 	0.1833	0.0344	0.6793	-0.023
Mof_C 	C 	0.0353	0.05769	0.90602	0.196
Mof_C 	C 	0.0345	0.04645	0.9561	-0.181
Mof_H 	H 	0.0577	0.0671	0.9765	0.078
Mof_C 	C 	0.9693	0.9753	0.94235	-0.053
Mof_H 	H 	0.9473	0.9452	0.9529	0.045
Mof_C 	C 	0.97084	0.9889	0.89412	0.064
Mof_H 	H 	0.9491	0.9671	0.8735	0.01
Mof_C 	C 	0.0726	0.1074	0.88643	-0.692
Mof_H 	H 	0.0679	0.1102	0.8525	0.228
Mof_H 	H 	0.0611	0.1423	0.9011	0.218
Mof_H 	H 	0.1117	0.1002	0.8937	0.229
Mof_O 	O 	0.41548	0.4647	0.21067	-0.494
Mof_C 	C 	0.23921	0.46533	0.20877	-0.256
Mof_H 	H 	0.2198	0.4658	0.1799	0.107
Mof_C 	C 	0.2976	0.46529	0.20832	0.161
Mof_H 	H 	0.3167	0.4656	0.1793	-0.023
Mof_C 	C 	0.4647	0.44231	0.40602	0.206
Mof_C 	C 	0.4655	0.45355	0.4561	-0.179
Mof_H 	H 	0.4423	0.4329	0.4765	0.08
Mof_C 	C 	0.5307	0.5247	0.44235	-0.085
Mof_H 	H 	0.5527	0.5548	0.4529	0.047
Mof_C 	C 	0.52916	0.5111	0.39412	0.021
Mof_H 	H 	0.5509	0.5329	0.3735	0.014
Mof_C 	C 	0.4274	0.3926	0.38643	-0.7
Mof_H 	H 	0.4321	0.3898	0.3525	0.231
Mof_H 	H 	0.4389	0.3577	0.4011	0.226
Mof_H 	H 	0.3883	0.3998	0.3937	0.231
Mof_O 	O 	0.91548	0.9647	0.21067	-0.477
Mof_C 	C 	0.73921	0.96533	0.20877	-0.256
Mof_H 	H 	0.7198	0.9658	0.1799	0.109
Mof_C 	C 	0.7976	0.96529	0.20832	0.162
Mof_H 	H 	0.8167	0.9656	0.1793	-0.021
Mof_C 	C 	0.9647	0.94231	0.40602	0.228
Mof_C 	C 	0.9655	0.95355	0.4561	-0.14
Mof_H 	H 	0.9423	0.9329	0.4765	0.074
Mof_C 	C 	0.0307	0.0247	0.44235	-0.086
Mof_H 	H 	0.0527	0.0548	0.4529	0.043
Mof_C 	C 	0.02916	0.0111	0.39412	-0.01
Mof_H 	H 	0.0509	0.0329	0.3735	0.022
Mof_C 	C 	0.9274	0.8926	0.38643	-0.731
Mof_H 	H 	0.9321	0.8898	0.3525	0.252
Mof_H 	H 	0.9389	0.8577	0.4011	0.247
Mof_H 	H 	0.8883	0.8998	0.3937	0.242
Mof_Zn	Zn	-5.40518e-33	0.46475	0.23716	0.779
Mof_O 	O 	1.28976e-33	0.04919	0.28937	-0.489
Mof_O 	O 	4.51981e-33	0.87999	0.28913	-0.529
Mof_C 	C 	1.29948e-33	0.22554	0.29155	-0.252
Mof_H 	H 	-5.03461e-33	0.2451	0.3203	0.101
Mof_C 	C 	-5.16097e-33	0.1666	0.29195	0.146
Mof_H 	H 	-1.80082e-33	0.1473	0.3209	-0.019
Mof_C 	C 	1.29738e-33	0.7037	0.29108	-0.294
Mof_H 	H 	-5.03639e-33	0.6842	0.3199	0.112
Mof_C 	C 	-1.92977e-33	0.76228	0.29197	0.188
Mof_H 	H 	-1.80082e-33	0.7815	0.3209	-0.046
Mof_Zn	Zn	0.5	0.96475	0.23716	0.786
Mof_O 	O 	0.5	0.54919	0.28937	-0.477
Mof_O 	O 	0.5	0.37999	0.28913	-0.516
Mof_C 	C 	0.5	0.72554	0.29155	-0.229
Mof_H 	H 	0.5	0.7451	0.3203	0.101
Mof_C 	C 	0.5	0.6666	0.29195	0.133
Mof_H 	H 	0.5	0.6473	0.3209	-0.007
Mof_C 	C 	0.5	0.2037	0.29108	-0.268
Mof_H 	H 	0.5	0.1842	0.3199	0.111
Mof_C 	C 	0.5	0.26228	0.29197	0.172
Mof_H 	H 	0.5	0.2815	0.3209	-0.034
Mof_Zn	Zn	-9.63884e-33	0.53525	0.73716	0.779
Mof_O 	O 	-9.40614e-33	0.95081	0.78937	-0.489
Mof_O 	O 	-9.40721e-33	0.12001	0.78913	-0.529
Mof_C 	C 	9.99027e-33	0.77446	0.79155	-0.252
Mof_H 	H 	-9.26828e-33	0.7549	0.8203	0.101
Mof_C 	C 	3.52983e-33	0.8334	0.79195	0.146
Mof_H 	H 	-9.2656e-33	0.8527	0.8209	-0.018
Mof_C 	C 	-2.2323e-32	0.2963	0.79108	-0.294
Mof_H 	H 	3.6544e-33	0.3158	0.8199	0.112
Mof_C 	C 	-9.39455e-33	0.23772	0.79197	0.188
Mof_H 	H 	-9.2656e-33	0.2185	0.8209	-0.046
Mof_Zn	Zn	0.5	0.03525	0.73716	0.786
Mof_O 	O 	0.5	0.45081	0.78937	-0.477
Mof_O 	O 	0.5	0.62001	0.78913	-0.516
Mof_C 	C 	0.5	0.27446	0.79155	-0.229
Mof_H 	H 	0.5	0.2549	0.8203	0.101
Mof_C 	C 	0.5	0.3334	0.79195	0.133
Mof_H 	H 	0.5	0.3527	0.8209	-0.007
Mof_C 	C 	0.5	0.7963	0.79108	-0.268
Mof_H 	H 	0.5	0.8158	0.8199	0.111
Mof_C 	C 	0.5	0.73772	0.79197	0.172
Mof_H 	H 	0.5	0.7185	0.8209	-0.034
Mof_Zn	Zn	-5.29072e-33	0.46475	0.26284	0.779
Mof_O 	O 	9.38806e-34	0.04919	0.21063	-0.489
Mof_O 	O 	4.17099e-33	0.87999	0.21087	-0.529
Mof_C 	C 	-2.30203e-33	0.22554	0.20845	-0.252
Mof_H 	H 	-8.14611e-34	0.2451	0.1797	0.101
Mof_C 	C 	9.27306e-34	0.1666	0.20805	0.146
Mof_H 	H 	7.98272e-34	0.1473	0.1791	-0.018
Mof_C 	C 	-8.76216e-33	0.7037	0.20892	-0.294
Mof_H 	H 	-4.04394e-33	0.6842	0.1801	0.112
Mof_C 	C 	-2.3039e-33	0.76228	0.20803	0.188
Mof_H 	H 	-2.43284e-33	0.7815	0.1791	-0.046
Mof_Zn	Zn	0.5	0.96475	0.26284	0.786
Mof_O 	O 	0.5	0.54919	0.21063	-0.477
Mof_O 	O 	0.5	0.37999	0.21087	-0.516
Mof_C 	C 	0.5	0.72554	0.20845	-0.229
Mof_H 	H 	0.5	0.7451	0.1797	0.101
Mof_C 	C 	0.5	0.6666	0.20805	0.133
Mof_H 	H 	0.5	0.6473	0.1791	-0.007
Mof_C 	C 	0.5	0.2037	0.20892	-0.268
Mof_H 	H 	0.5	0.1842	0.1801	0.111
Mof_C 	C 	0.5	0.26228	0.20803	0.172
Mof_H 	H 	0.5	0.2815	0.1791	-0.034
Mof_Zn	Zn	-3.06215e-33	0.53525	0.76284	0.779
Mof_O 	O 	3.16737e-33	0.95081	0.71063	-0.489
Mof_O 	O 	-9.75602e-33	0.12001	0.71087	-0.529
Mof_C 	C 	-3.30458e-33	0.77446	0.70845	-0.252
Mof_H 	H 	-9.89495e-33	0.7549	0.6797	0.101
Mof_C 	C 	3.15587e-33	0.8334	0.70805	0.146
Mof_H 	H 	-2.28221e-32	0.8527	0.6791	-0.019
Mof_C 	C 	-9.76471e-33	0.2963	0.70892	-0.294
Mof_H 	H 	-9.89317e-33	0.3158	0.6801	0.112
Mof_C 	C 	-9.76868e-33	0.23772	0.70803	0.188
Mof_H 	H 	-9.89762e-33	0.2185	0.6791	-0.046
Mof_Zn	Zn	0.5	0.03525	0.76284	0.786
Mof_O 	O 	0.5	0.45081	0.71063	-0.477
Mof_O 	O 	0.5	0.62001	0.71087	-0.516
Mof_C 	C 	0.5	0.27446	0.70845	-0.229
Mof_H 	H 	0.5	0.2549	0.6797	0.101
Mof_C 	C 	0.5	0.3334	0.70805	0.133
Mof_H 	H 	0.5	0.3527	0.6791	-0.007
Mof_C 	C 	0.5	0.7963	0.70892	-0.268
Mof_H 	H 	0.5	0.8158	0.6801	0.111
Mof_C 	C 	0.5	0.73772	0.70803	0.172
Mof_H 	H 	0.5	0.7185	0.6791	-0.034
Mof_Zn	Zn	0.5	0.46414	0.30335	1.219
Mof_N 	N 	0.5	0.47072	0.37609	-0.302
Mof_C 	C 	0.5	0.49411	0.47399	0.119
Mof_Zn	Zn	4.58319e-33	0.96414	0.30335	1.213
Mof_N 	N 	-1.55483e-33	0.97072	0.37609	-0.324
Mof_C 	C 	8.57487e-33	0.99411	0.47399	0.071
Mof_Zn	Zn	0.5	0.53586	0.80335	1.219
Mof_N 	N 	0.5	0.52928	0.87609	-0.302
Mof_C 	C 	0.5	0.50589	0.97399	0.119
Mof_Zn	Zn	3.58064e-33	0.03586	0.80335	1.213
Mof_N 	N 	3.90485e-33	0.02928	0.87609	-0.324
Mof_C 	C 	-8.58326e-33	0.00589	0.97399	0.07
Mof_Zn	Zn	0.5	0.46414	0.19665	1.219
Mof_N 	N 	0.5	0.47072	0.12391	-0.302
Mof_C 	C 	0.5	0.49411	0.02601	0.119
Mof_Zn	Zn	-5.58574e-33	0.96414	0.19665	1.213
Mof_N 	N 	-2.67883e-33	0.97072	0.12391	-0.324
Mof_C 	C 	9.40539e-33	0.99411	0.02601	0.07
Mof_Zn	Zn	0.5	0.53586	0.69665	1.219
Mof_N 	N 	0.5	0.52928	0.62391	-0.302
Mof_C 	C 	0.5	0.50589	0.52601	0.119
Mof_Zn	Zn	-9.8194e-33	0.03586	0.69665	1.213
Mof_N 	N 	-3.68138e-33	0.02928	0.62391	-0.324
Mof_C 	C 	-1.058e-32	0.00589	0.52601	0.071
Mof_N 	N 	0.93883	0.40368	0.25	-0.346
Mof_N 	N 	0.93891	0.5256	0.25	-0.348
Mof_C 	C 	0.94738	0.34578	0.25	0.151
Mof_C 	C 	0.89334	0.31793	0.25	-0.114
Mof_H 	H 	0.8873	0.279	0.25	0.078
Mof_C 	C 	0.85328	0.35799	0.25	-0.074
Mof_H 	H 	0.8143	0.3521	0.25	0.054
Mof_C 	C 	0.8818	0.41197	0.25	0.096
Mof_C 	C 	0.85438	0.46467	0.25	-0.192
Mof_C 	C 	0.88129	0.51716	0.25	0.094
Mof_C 	C 	0.85286	0.57135	0.25	-0.074
Mof_H 	H 	0.8139	0.5775	0.25	0.056
Mof_C 	C 	0.89369	0.61142	0.25	-0.116
Mof_H 	H 	0.8881	0.6504	0.25	0.078
Mof_C 	C 	0.94742	0.58274	0.25	0.155
Mof_C 	C 	0.79084	0.46477	0.25	0.203
Mof_C 	C 	0.67222	0.46475	0.25	-0.229
Mof_C 	C 	0.60867	0.46494	0.25	0.457
Mof_N 	N 	0.43883	0.90368	0.25	-0.35
Mof_N 	N 	0.43891	0.0256	0.25	-0.352
Mof_C 	C 	0.44738	0.84578	0.25	0.091
Mof_C 	C 	0.39334	0.81793	0.25	-0.088
Mof_H 	H 	0.3873	0.779	0.25	0.058
Mof_C 	C 	0.35328	0.85799	0.25	-0.093
Mof_H 	H 	0.3143	0.8521	0.25	0.058
Mof_C 	C 	0.3818	0.91197	0.25	0.098
Mof_C 	C 	0.35438	0.96467	0.25	-0.2
Mof_C 	C 	0.38129	0.01716	0.25	0.097
Mof_C 	C 	0.35286	0.07135	0.25	-0.091
Mof_H 	H 	0.3139	0.0775	0.25	0.059
Mof_C 	C 	0.39369	0.11142	0.25	-0.093
Mof_H 	H 	0.3881	0.1504	0.25	0.058
Mof_C 	C 	0.44742	0.08274	0.25	0.097
Mof_C 	C 	0.29084	0.96477	0.25	0.204
Mof_C 	C 	0.17222	0.96475	0.25	-0.23
Mof_C 	C 	0.10867	0.96494	0.25	0.456
Mof_N 	N 	0.06117	0.59632	0.75	-0.357
Mof_N 	N 	0.06109	0.4744	0.75	-0.359
Mof_C 	C 	0.05262	0.65422	0.75	0.107
Mof_C 	C 	0.10666	0.68207	0.75	-0.101
Mof_H 	H 	0.1127	0.721	0.75	0.062
Mof_C 	C 	0.14672	0.64201	0.75	-0.088
Mof_H 	H 	0.1857	0.6479	0.75	0.056
Mof_C 	C 	0.1182	0.58803	0.75	0.094
Mof_C 	C 	0.14562	0.53533	0.75	-0.199
Mof_C 	C 	0.11871	0.48284	0.75	0.092
Mof_C 	C 	0.14714	0.42865	0.75	-0.086
Mof_H 	H 	0.1861	0.4225	0.75	0.057
Mof_C 	C 	0.10631	0.38858	0.75	-0.104
Mof_H 	H 	0.1119	0.3496	0.75	0.062
Mof_C 	C 	0.05258	0.41726	0.75	0.111
Mof_C 	C 	0.20916	0.53523	0.75	0.202
Mof_C 	C 	0.32778	0.53525	0.75	-0.229
Mof_C 	C 	0.39133	0.53506	0.75	0.456
Mof_N 	N 	0.56117	0.09632	0.75	-0.35
Mof_N 	N 	0.56109	0.9744	0.75	-0.352
Mof_C 	C 	0.55262	0.15422	0.75	0.091
Mof_C 	C 	0.60666	0.18207	0.75	-0.087
Mof_H 	H 	0.6127	0.221	0.75	0.059
Mof_C 	C 	0.64672	0.14201	0.75	-0.093
Mof_H 	H 	0.6857	0.1479	0.75	0.06
Mof_C 	C 	0.6182	0.08803	0.75	0.098
Mof_C 	C 	0.64562	0.03533	0.75	-0.199
Mof_C 	C 	0.61871	0.98284	0.75	0.097
Mof_C 	C 	0.64714	0.92865	0.75	-0.091
Mof_H 	H 	0.6861	0.9225	0.75	0.061
Mof_C 	C 	0.60631	0.88858	0.75	-0.092
Mof_H 	H 	0.6119	0.8496	0.75	0.059
Mof_C 	C 	0.55258	0.91726	0.75	0.097
Mof_C 	C 	0.70916	0.03523	0.75	0.204
Mof_C 	C 	0.82778	0.03525	0.75	-0.225
Mof_C 	C 	0.89133	0.03506	0.75	0.455
Mof_N 	N 	0.06117	0.40368	0.25	-0.357
Mof_N 	N 	0.06109	0.5256	0.25	-0.359
Mof_C 	C 	0.05262	0.34578	0.25	0.107
Mof_C 	C 	0.10666	0.31793	0.25	-0.101
Mof_H 	H 	0.1127	0.279	0.25	0.062
Mof_C 	C 	0.14672	0.35799	0.25	-0.088
Mof_H 	H 	0.1857	0.3521	0.25	0.056
Mof_C 	C 	0.1182	0.41197	0.25	0.094
Mof_C 	C 	0.14562	0.46467	0.25	-0.199
Mof_C 	C 	0.11871	0.51716	0.25	0.092
Mof_C 	C 	0.14714	0.57135	0.25	-0.086
Mof_H 	H 	0.1861	0.5775	0.25	0.057
Mof_C 	C 	0.10631	0.61142	0.25	-0.104
Mof_H 	H 	0.1119	0.6504	0.25	0.062
Mof_C 	C 	0.05258	0.58274	0.25	0.111
Mof_C 	C 	0.20916	0.46477	0.25	0.202
Mof_C 	C 	0.32778	0.46475	0.25	-0.229
Mof_C 	C 	0.39133	0.46494	0.25	0.456
Mof_N 	N 	0.56117	0.90368	0.25	-0.35
Mof_N 	N 	0.56109	0.0256	0.25	-0.352
Mof_C 	C 	0.55262	0.84578	0.25	0.091
Mof_C 	C 	0.60666	0.81793	0.25	-0.087
Mof_H 	H 	0.6127	0.779	0.25	0.059
Mof_C 	C 	0.64672	0.85799	0.25	-0.093
Mof_H 	H 	0.6857	0.8521	0.25	0.06
Mof_C 	C 	0.6182	0.91197	0.25	0.098
Mof_C 	C 	0.64562	0.96467	0.25	-0.199
Mof_C 	C 	0.61871	0.01716	0.25	0.097
Mof_C 	C 	0.64714	0.07135	0.25	-0.091
Mof_H 	H 	0.6861	0.0775	0.25	0.061
Mof_C 	C 	0.60631	0.11142	0.25	-0.092
Mof_H 	H 	0.6119	0.1504	0.25	0.059
Mof_C 	C 	0.55258	0.08274	0.25	0.097
Mof_C 	C 	0.70916	0.96477	0.25	0.204
Mof_C 	C 	0.82778	0.96475	0.25	-0.225
Mof_C 	C 	0.89133	0.96494	0.25	0.455
Mof_N 	N 	0.93883	0.59632	0.75	-0.346
Mof_N 	N 	0.93891	0.4744	0.75	-0.348
Mof_C 	C 	0.94738	0.65422	0.75	0.151
Mof_C 	C 	0.89334	0.68207	0.75	-0.114
Mof_H 	H 	0.8873	0.721	0.75	0.078
Mof_C 	C 	0.85328	0.64201	0.75	-0.074
Mof_H 	H 	0.8143	0.6479	0.75	0.054
Mof_C 	C 	0.8818	0.58803	0.75	0.096
Mof_C 	C 	0.85438	0.53533	0.75	-0.192
Mof_C 	C 	0.88129	0.48284	0.75	0.094
Mof_C 	C 	0.85286	0.42865	0.75	-0.074
Mof_H 	H 	0.8139	0.4225	0.75	0.056
Mof_C 	C 	0.89369	0.38858	0.75	-0.116
Mof_H 	H 	0.8881	0.3496	0.75	0.078
Mof_C 	C 	0.94742	0.41726	0.75	0.155
Mof_C 	C 	0.79084	0.53523	0.75	0.203
Mof_C 	C 	0.67222	0.53525	0.75	-0.229
Mof_C 	C 	0.60867	0.53506	0.75	0.457
Mof_N 	N 	0.43883	0.09632	0.75	-0.35
Mof_N 	N 	0.43891	0.9744	0.75	-0.352
Mof_C 	C 	0.44738	0.15422	0.75	0.091
Mof_C 	C 	0.39334	0.18207	0.75	-0.088
Mof_H 	H 	0.3873	0.221	0.75	0.058
Mof_C 	C 	0.35328	0.14201	0.75	-0.093
Mof_H 	H 	0.3143	0.1479	0.75	0.058
Mof_C 	C 	0.3818	0.08803	0.75	0.098
Mof_C 	C 	0.35438	0.03533	0.75	-0.2
Mof_C 	C 	0.38129	0.98284	0.75	0.097
Mof_C 	C 	0.35286	0.92865	0.75	-0.091
Mof_H 	H 	0.3139	0.9225	0.75	0.059
Mof_C 	C 	0.39369	0.88858	0.75	-0.093
Mof_H 	H 	0.3881	0.8496	0.75	0.058
Mof_C 	C 	0.44742	0.91726	0.75	0.097
Mof_C 	C 	0.29084	0.03523	0.75	0.204
Mof_C 	C 	0.17222	0.03525	0.75	-0.23
Mof_C 	C 	0.10867	0.03506	0.75	0.456
Mof_C 	C 	-8.57906e-33	0.31942	0.25	-0.244
Mof_C 	C 	-8.57906e-33	0.25509	0.25	0.198
Mof_C 	C 	-2.11683e-33	0.13671	0.25	-0.218
Mof_C 	C 	-5.34795e-33	0.07319	0.25	0.447
Mof_C 	C 	-2.11683e-33	0.61081	0.25	-0.259
Mof_C 	C 	4.3454e-33	0.67349	0.25	0.236
Mof_C 	C 	-2.11683e-33	0.79186	0.25	-0.265
Mof_C 	C 	-1.50413e-32	0.85562	0.25	0.475
Mof_C 	C 	0.5	0.81942	0.25	-0.187
Mof_C 	C 	0.5	0.75509	0.25	0.18
Mof_C 	C 	0.5	0.63671	0.25	-0.201
Mof_C 	C 	0.5	0.57319	0.25	0.443
Mof_C 	C 	0.5	0.11081	0.25	-0.203
Mof_C 	C 	0.5	0.17349	0.25	0.214
Mof_C 	C 	0.5	0.29186	0.25	-0.245
Mof_C 	C 	0.5	0.35562	0.25	0.47
Mof_C 	C 	9.80508e-33	0.68058	0.75	-0.244
Mof_C 	C 	3.34285e-33	0.74491	0.75	0.198
Mof_C 	C 	2.27295e-32	0.86329	0.75	-0.218
Mof_C 	C 	-9.58161e-33	0.92681	0.75	0.447
Mof_C 	C 	3.34285e-33	0.38919	0.75	-0.259
Mof_C 	C 	3.34285e-33	0.32651	0.75	0.236
Mof_C 	C 	-3.11938e-33	0.20814	0.75	-0.265
Mof_C 	C 	3.34285e-33	0.14438	0.75	0.475
Mof_C 	C 	0.5	0.18058	0.75	-0.187
Mof_C 	C 	0.5	0.24491	0.75	0.18
Mof_C 	C 	0.5	0.36329	0.75	-0.201
Mof_C 	C 	0.5	0.42681	0.75	0.443
Mof_C 	C 	0.5	0.88919	0.75	-0.203
Mof_C 	C 	0.5	0.82651	0.75	0.214
Mof_C 	C 	0.5	0.70814	0.75	-0.245
Mof_C 	C 	0.5	0.64438	0.75	0.47
_end
