data_functionalizedCrystal
_audit_creation_method	'EQeq! by Chris Wilmer'
_symmetry_space_group_name_H-M	'P1'
_symmetry_Int_Tables_number	1
_symmetry_cell_setting	triclinic
loop_
_symmetry_equiv_pos_as_xyz
  x,y,z
_cell_length_a	15.7709
_cell_length_b	23.107
_cell_length_c	18.3269
_cell_angle_alpha	90
_cell_angle_beta	106.271
_cell_angle_gamma	90
loop_
_atom_site_label
_atom_site_type_symbol
_atom_site_fract_x
_atom_site_fract_y
_atom_site_fract_z
_atom_site_charge
Mof_Ni	Ni	0.43689	0.7067	0.19277	0.975
Mof_Ni	Ni	0.93806	0.57346	0.25169	0.974
Mof_N 	N 	0.4713	0.64737	0.2832	-0.258
Mof_N 	N 	0.4539	0.5712	0.3497	-0.162
Mof_N 	N 	0.0415	0.5183	0.3058	-0.27
Mof_N 	N 	0.1765	0.48317	0.3521	-0.16
Mof_N 	N 	0.4457	0.42698	0.5409	-0.16
Mof_N 	N 	0.8362	0.6229	0.1839	-0.275
Mof_N 	N 	0.7577	0.6665	0.0792	-0.148
Mof_N 	N 	0.8883	0.73275	0.757	-0.273
Mof_N 	N 	0.8133	0.69994	0.8335	-0.157
Mof_N 	N 	0.48	0.85923	0.829	-0.256
Mof_N 	N 	0.5593	0.78494	0.8885	-0.149
Mof_C 	C 	0.4509	0.4974	0.444	-0.271
Mof_H 	H 	0.5112	0.5021	0.4658	0.122
Mof_C 	C 	0.4074	0.5288	0.3809	0.211
Mof_C 	C 	0.3173	0.5207	0.3471	-0.276
Mof_H 	H 	0.2891	0.5399	0.3023	0.119
Mof_C 	C 	0.2708	0.4846	0.3801	0.212
Mof_C 	C 	0.312	0.452	0.4439	-0.272
Mof_H 	H 	0.2799	0.4268	0.4654	0.118
Mof_C 	C 	0.4026	0.4583	0.4747	0.209
Mof_C 	C 	0.5417	0.5863	0.3742	-0.002
Mof_H 	H 	0.5857	0.5683	0.412	0.013
Mof_C 	C 	0.5511	0.6326	0.332	-0.002
Mof_H 	H 	0.6041	0.6515	0.3356	-0.007
Mof_C 	C 	0.4157	0.6104	0.2956	0.109
Mof_H 	H 	0.3558	0.6107	0.27	-0.048
Mof_C 	C 	0.1257	0.5295	0.3191	0.09
Mof_H 	H 	0.1482	0.5644	0.3075	-0.035
Mof_C 	C 	0.0375	0.4631	0.3329	0.016
Mof_H 	H 	0.9857	0.4437	0.3325	-0.03
Mof_C 	C 	0.1186	0.4414	0.3599	-0.015
Mof_H 	H 	0.133	0.4047	0.3802	0.02
Mof_C 	C 	0.5242	0.4408	0.5933	-0.003
Mof_H 	H 	0.5603	0.4724	0.5921	0.018
Mof_C 	C 	0.4195	0.3756	0.5635	0.09
Mof_H 	H 	0.3688	0.3559	0.537	-0.05
Mof_N 	N 	0.4737	0.3573	0.6267	-0.267
Mof_C 	C 	0.5383	0.3985	0.6475	0.008
Mof_H 	H 	0.5841	0.3917	0.701	-0.003
Mof_C 	C 	0.7314	0.6875	0.0038	0.109
Mof_C 	C 	0.7832	0.6781	0.9552	-0.188
Mof_H 	H 	0.8343	0.6559	0.9706	0.093
Mof_C 	C 	0.7573	0.7024	0.8828	0.16
Mof_C 	C 	0.6797	0.7343	0.8576	-0.216
Mof_H 	H 	0.6603	0.7475	0.8077	0.1
Mof_C 	C 	0.6323	0.7458	0.9095	0.151
Mof_C 	C 	0.6563	0.7219	0.9818	-0.142
Mof_H 	H 	0.6225	0.7288	0.0151	0.058
Mof_C 	C 	0.8244	0.6297	0.1108	0.082
Mof_H 	H 	0.8583	0.6113	0.0836	-0.058
Mof_C 	C 	0.7295	0.6867	0.1392	-0.013
Mof_H 	H 	0.6858	0.7141	0.1372	0.007
Mof_C 	C 	0.7782	0.6586	0.2018	0.005
Mof_H 	H 	0.7722	0.6634	0.2505	-0.009
Mof_C 	C 	0.8747	0.6584	0.831	-0.009
Mof_H 	H 	0.8838	0.6232	0.8566	0.012
Mof_C 	C 	0.9191	0.6793	0.7836	-0.013
Mof_H 	H 	0.9646	0.66	0.7708	-0.014
Mof_C 	C 	0.8253	0.7425	0.7887	0.101
Mof_H 	H 	0.7918	0.7763	0.7807	-0.04
Mof_C 	C 	0.5452	0.8232	0.8296	0.093
Mof_H 	H 	0.5775	0.8239	0.7942	-0.038
Mof_C 	C 	0.4519	0.8434	0.8912	-0.011
Mof_H 	H 	0.406	0.8611	0.9055	-0.005
Mof_C 	C 	0.4997	0.7995	0.9276	0.004
Mof_H 	H 	0.4939	0.7818	0.9715	0.009
Mof_Ni	Ni	0.93689	0.2067	0.19277	0.973
Mof_Ni	Ni	0.43806	0.07346	0.25169	0.979
Mof_N 	N 	0.9713	0.14737	0.2832	-0.266
Mof_N 	N 	0.9539	0.0712	0.3497	-0.173
Mof_N 	N 	0.5415	0.0183	0.3058	-0.269
Mof_N 	N 	0.6765	0.98317	0.3521	-0.165
Mof_N 	N 	0.9457	0.92698	0.5409	-0.171
Mof_N 	N 	0.3362	0.1229	0.1839	-0.274
Mof_N 	N 	0.2577	0.1665	0.0792	-0.147
Mof_N 	N 	0.3883	0.23275	0.757	-0.271
Mof_N 	N 	0.3133	0.19994	0.8335	-0.157
Mof_N 	N 	0.98	0.35923	0.829	-0.268
Mof_N 	N 	0.0593	0.28494	0.8885	-0.143
Mof_C 	C 	0.9509	0.9974	0.444	-0.315
Mof_H 	H 	0.0112	0.0021	0.4658	0.148
Mof_C 	C 	0.9074	0.0288	0.3809	0.226
Mof_C 	C 	0.8173	0.0207	0.3471	-0.288
Mof_H 	H 	0.7891	0.0399	0.3023	0.122
Mof_C 	C 	0.7708	0.9846	0.3801	0.219
Mof_C 	C 	0.812	0.952	0.4439	-0.284
Mof_H 	H 	0.7799	0.9268	0.4654	0.12
Mof_C 	C 	0.9026	0.9583	0.4747	0.223
Mof_C 	C 	0.0417	0.0863	0.3742	0.01
Mof_H 	H 	0.0857	0.0683	0.412	0.012
Mof_C 	C 	0.0511	0.1326	0.332	0.01
Mof_H 	H 	0.1041	0.1515	0.3356	-0.008
Mof_C 	C 	0.9157	0.1104	0.2956	0.107
Mof_H 	H 	0.8558	0.1107	0.27	-0.05
Mof_C 	C 	0.6257	0.0295	0.3191	0.089
Mof_H 	H 	0.6482	0.0644	0.3075	-0.037
Mof_C 	C 	0.5375	0.9631	0.3329	-0.025
Mof_H 	H 	0.4857	0.9437	0.3325	-0.006
Mof_C 	C 	0.6186	0.9414	0.3599	0.004
Mof_H 	H 	0.633	0.9047	0.3802	0.009
Mof_C 	C 	0.0242	0.9408	0.5933	0.01
Mof_H 	H 	0.0603	0.9724	0.5921	0.016
Mof_C 	C 	0.9195	0.8756	0.5635	0.088
Mof_H 	H 	0.8688	0.8559	0.537	-0.052
Mof_N 	N 	0.9737	0.8573	0.6267	-0.276
Mof_C 	C 	0.0383	0.8985	0.6475	0.018
Mof_H 	H 	0.0841	0.8917	0.701	-0.002
Mof_C 	C 	0.2314	0.1875	0.0038	0.111
Mof_C 	C 	0.2832	0.1781	0.9552	-0.188
Mof_H 	H 	0.3343	0.1559	0.9706	0.095
Mof_C 	C 	0.2573	0.2024	0.8828	0.163
Mof_C 	C 	0.1797	0.2343	0.8576	-0.217
Mof_H 	H 	0.1603	0.2475	0.8077	0.102
Mof_C 	C 	0.1323	0.2458	0.9095	0.155
Mof_C 	C 	0.1563	0.2219	0.9818	-0.142
Mof_H 	H 	0.1225	0.2288	0.0151	0.062
Mof_C 	C 	0.3244	0.1297	0.1108	0.084
Mof_H 	H 	0.3583	0.1113	0.0836	-0.056
Mof_C 	C 	0.2295	0.1867	0.1392	-0.012
Mof_H 	H 	0.1858	0.2141	0.1372	0.01
Mof_C 	C 	0.2782	0.1586	0.2018	0.006
Mof_H 	H 	0.2722	0.1634	0.2505	-0.007
Mof_C 	C 	0.3747	0.1584	0.831	-0.006
Mof_H 	H 	0.3838	0.1232	0.8566	0.013
Mof_C 	C 	0.4191	0.1793	0.7836	-0.013
Mof_H 	H 	0.4646	0.16	0.7708	-0.011
Mof_C 	C 	0.3253	0.2425	0.7887	0.103
Mof_H 	H 	0.2918	0.2763	0.7807	-0.039
Mof_C 	C 	0.0452	0.3232	0.8296	0.112
Mof_H 	H 	0.0775	0.3239	0.7942	-0.041
Mof_C 	C 	0.9519	0.3434	0.8912	-0.005
Mof_H 	H 	0.906	0.3611	0.9055	-0.009
Mof_C 	C 	0.9997	0.2995	0.9276	-0.016
Mof_H 	H 	0.9939	0.2818	0.9715	0.011
Mof_Ni	Ni	0.43689	0.2933	0.69277	0.978
Mof_Ni	Ni	0.93806	0.42654	0.75169	0.976
Mof_N 	N 	0.4713	0.35263	0.7832	-0.257
Mof_N 	N 	0.4539	0.4288	0.8497	-0.163
Mof_N 	N 	0.0415	0.4817	0.8058	-0.269
Mof_N 	N 	0.1765	0.51683	0.8521	-0.16
Mof_N 	N 	0.4457	0.57302	0.0409	-0.174
Mof_N 	N 	0.8362	0.3771	0.6839	-0.274
Mof_N 	N 	0.7577	0.3335	0.5792	-0.162
Mof_N 	N 	0.8883	0.26725	0.257	-0.274
Mof_N 	N 	0.8133	0.30006	0.3335	-0.164
Mof_N 	N 	0.48	0.14077	0.329	-0.257
Mof_N 	N 	0.5593	0.21506	0.3885	-0.159
Mof_C 	C 	0.4509	0.5026	0.944	-0.283
Mof_H 	H 	0.5112	0.4979	0.9658	0.133
Mof_C 	C 	0.4074	0.4712	0.8809	0.221
Mof_C 	C 	0.3173	0.4793	0.8471	-0.284
Mof_H 	H 	0.2891	0.4601	0.8023	0.123
Mof_C 	C 	0.2708	0.5154	0.8801	0.222
Mof_C 	C 	0.312	0.548	0.9439	-0.284
Mof_H 	H 	0.2799	0.5732	0.9654	0.128
Mof_C 	C 	0.4026	0.5417	0.9747	0.236
Mof_C 	C 	0.5417	0.4137	0.8742	-0.001
Mof_H 	H 	0.5857	0.4317	0.912	0.016
Mof_C 	C 	0.5511	0.3674	0.832	-0.001
Mof_H 	H 	0.6041	0.3485	0.8356	-0.005
Mof_C 	C 	0.4157	0.3896	0.7956	0.111
Mof_H 	H 	0.3558	0.3893	0.77	-0.047
Mof_C 	C 	0.1257	0.4705	0.8191	0.093
Mof_H 	H 	0.1482	0.4356	0.8075	-0.034
Mof_C 	C 	0.0375	0.5369	0.8329	0.017
Mof_H 	H 	0.9857	0.5563	0.8325	-0.028
Mof_C 	C 	0.1186	0.5586	0.8599	-0.013
Mof_H 	H 	0.133	0.5953	0.8802	0.022
Mof_C 	C 	0.5242	0.5592	0.0933	-0.004
Mof_H 	H 	0.5603	0.5276	0.0921	0.012
Mof_C 	C 	0.4195	0.6244	0.0635	0.089
Mof_H 	H 	0.3688	0.6441	0.037	-0.058
Mof_N 	N 	0.4737	0.6427	0.1267	-0.269
Mof_C 	C 	0.5383	0.6015	0.1475	0.006
Mof_H 	H 	0.5841	0.6083	0.201	-0.003
Mof_C 	C 	0.7314	0.3125	0.5038	0.202
Mof_C 	C 	0.7832	0.3219	0.4552	-0.264
Mof_H 	H 	0.8343	0.3441	0.4706	0.112
Mof_C 	C 	0.7573	0.2976	0.3828	0.196
Mof_C 	C 	0.6797	0.2657	0.3576	-0.259
Mof_H 	H 	0.6603	0.2525	0.3077	0.112
Mof_C 	C 	0.6323	0.2542	0.4095	0.199
Mof_C 	C 	0.6563	0.2781	0.4818	-0.26
Mof_H 	H 	0.6225	0.2712	0.5151	0.113
Mof_C 	C 	0.8244	0.3703	0.6108	0.09
Mof_H 	H 	0.8583	0.3887	0.5836	-0.056
Mof_C 	C 	0.7295	0.3133	0.6392	-0.005
Mof_H 	H 	0.6858	0.2859	0.6372	0.006
Mof_C 	C 	0.7782	0.3414	0.7018	0.003
Mof_H 	H 	0.7722	0.3366	0.7505	-0.006
Mof_C 	C 	0.8747	0.3416	0.331	-0.008
Mof_H 	H 	0.8838	0.3768	0.3566	0.008
Mof_C 	C 	0.9191	0.3207	0.2836	-0.016
Mof_H 	H 	0.9646	0.34	0.2708	-0.016
Mof_C 	C 	0.8253	0.2575	0.2887	0.101
Mof_H 	H 	0.7918	0.2237	0.2807	-0.043
Mof_C 	C 	0.5452	0.1768	0.3296	0.094
Mof_H 	H 	0.5775	0.1761	0.2942	-0.041
Mof_C 	C 	0.4519	0.1566	0.3912	-0.014
Mof_H 	H 	0.406	0.1389	0.4055	-0.007
Mof_C 	C 	0.4997	0.2005	0.4276	0.006
Mof_H 	H 	0.4939	0.2182	0.4715	0.001
Mof_Ni	Ni	0.93689	0.7933	0.69277	0.975
Mof_Ni	Ni	0.43806	0.92654	0.75169	0.98
Mof_N 	N 	0.9713	0.85263	0.7832	-0.266
Mof_N 	N 	0.9539	0.9288	0.8497	-0.173
Mof_N 	N 	0.5415	0.9817	0.8058	-0.269
Mof_N 	N 	0.6765	0.01683	0.8521	-0.165
Mof_N 	N 	0.9457	0.07302	0.0409	-0.185
Mof_N 	N 	0.3362	0.8771	0.6839	-0.273
Mof_N 	N 	0.2577	0.8335	0.5792	-0.161
Mof_N 	N 	0.3883	0.76725	0.257	-0.273
Mof_N 	N 	0.3133	0.80006	0.3335	-0.164
Mof_N 	N 	0.98	0.64077	0.329	-0.269
Mof_N 	N 	0.0593	0.71506	0.3885	-0.153
Mof_C 	C 	0.9509	0.0026	0.944	-0.322
Mof_H 	H 	0.0112	0.9979	0.9658	0.155
Mof_C 	C 	0.9074	0.9712	0.8809	0.233
Mof_C 	C 	0.8173	0.9793	0.8471	-0.296
Mof_H 	H 	0.7891	0.9601	0.8023	0.126
Mof_C 	C 	0.7708	0.0154	0.8801	0.229
Mof_C 	C 	0.812	0.048	0.9439	-0.295
Mof_H 	H 	0.7799	0.0732	0.9654	0.131
Mof_C 	C 	0.9026	0.0417	0.9747	0.248
Mof_C 	C 	0.0417	0.9137	0.8742	0.012
Mof_H 	H 	0.0857	0.9317	0.912	0.015
Mof_C 	C 	0.0511	0.8674	0.832	0.011
Mof_H 	H 	0.1041	0.8485	0.8356	-0.006
Mof_C 	C 	0.9157	0.8896	0.7956	0.109
Mof_H 	H 	0.8558	0.8893	0.77	-0.048
Mof_C 	C 	0.6257	0.9705	0.8191	0.09
Mof_H 	H 	0.6482	0.9356	0.8075	-0.036
Mof_C 	C 	0.5375	0.0369	0.8329	-0.022
Mof_H 	H 	0.4857	0.0563	0.8325	-0.004
Mof_C 	C 	0.6186	0.0586	0.8599	0.005
Mof_H 	H 	0.633	0.0953	0.8802	0.011
Mof_C 	C 	0.0242	0.0592	0.0933	0.01
Mof_H 	H 	0.0603	0.0276	0.0921	0.01
Mof_C 	C 	0.9195	0.1244	0.0635	0.087
Mof_H 	H 	0.8688	0.1441	0.037	-0.06
Mof_N 	N 	0.9737	0.1427	0.1267	-0.278
Mof_C 	C 	0.0383	0.1015	0.1475	0.016
Mof_H 	H 	0.0841	0.1083	0.201	-0.003
Mof_C 	C 	0.2314	0.8125	0.5038	0.205
Mof_C 	C 	0.2832	0.8219	0.4552	-0.265
Mof_H 	H 	0.3343	0.8441	0.4706	0.114
Mof_C 	C 	0.2573	0.7976	0.3828	0.198
Mof_C 	C 	0.1797	0.7657	0.3576	-0.26
Mof_H 	H 	0.1603	0.7525	0.3077	0.115
Mof_C 	C 	0.1323	0.7542	0.4095	0.203
Mof_C 	C 	0.1563	0.7781	0.4818	-0.26
Mof_H 	H 	0.1225	0.7712	0.5151	0.117
Mof_C 	C 	0.3244	0.8703	0.6108	0.091
Mof_H 	H 	0.3583	0.8887	0.5836	-0.054
Mof_C 	C 	0.2295	0.8133	0.6392	-0.004
Mof_H 	H 	0.1858	0.7859	0.6372	0.008
Mof_C 	C 	0.2782	0.8414	0.7018	0.004
Mof_H 	H 	0.2722	0.8366	0.7505	-0.005
Mof_C 	C 	0.3747	0.8416	0.331	-0.006
Mof_H 	H 	0.3838	0.8768	0.3566	0.009
Mof_C 	C 	0.4191	0.8207	0.2836	-0.015
Mof_H 	H 	0.4646	0.84	0.2708	-0.012
Mof_C 	C 	0.3253	0.7575	0.2887	0.103
Mof_H 	H 	0.2918	0.7237	0.2807	-0.042
Mof_C 	C 	0.0452	0.6768	0.3296	0.113
Mof_H 	H 	0.0775	0.6761	0.2942	-0.044
Mof_C 	C 	0.9519	0.6566	0.3912	-0.009
Mof_H 	H 	0.906	0.6389	0.4055	-0.012
Mof_C 	C 	0.9997	0.7005	0.4276	-0.015
Mof_H 	H 	0.9939	0.7182	0.4715	0.003
_end
