data_functionalizedCrystal
_audit_creation_method	'EQeq! by Chris Wilmer'
_symmetry_space_group_name_H-M	'P1'
_symmetry_Int_Tables_number	1
_symmetry_cell_setting	triclinic
loop_
_symmetry_equiv_pos_as_xyz
  x,y,z
_cell_length_a	22.4577
_cell_length_b	11.3406
_cell_length_c	12.0773
_cell_angle_alpha	90
_cell_angle_beta	113.556
_cell_angle_gamma	90
loop_
_atom_site_label
_atom_site_type_symbol
_atom_site_fract_x
_atom_site_fract_y
_atom_site_fract_z
_atom_site_charge
Mof_C 	C 	0.21308	0.217	0.65389	0.335
Mof_C 	C 	0.20904	0.18281	0.77136	-0.086
Mof_C 	C 	0.24512	0.087	0.8357	0.053
Mof_H 	H 	0.2704	0.0458	0.8037	0.041
Mof_C 	C 	0.20668	0.1094	0.9846	0.046
Mof_H 	H 	0.2053	0.084	0.0567	0.041
Mof_C 	C 	0.16908	0.2049	0.9261	-0.079
Mof_H 	H 	0.1429	0.2424	0.9584	0.066
Mof_C 	C 	0.17079	0.24443	0.81833	-0.005
Mof_C 	C 	0.1304	0.3511	0.75689	0.299
Mof_C 	C 	0.38154	0.3408	0.6802	0.103
Mof_H 	H 	0.3581	0.3664	0.6015	0.016
Mof_C 	C 	0.4176	0.4217	0.7648	-0.17
Mof_H 	H 	0.4178	0.5005	0.7436	0.103
Mof_C 	C 	0.4536	0.3851	0.8821	0.119
Mof_C 	C 	0.44921	0.2688	0.9088	-0.181
Mof_H 	H 	0.4714	0.2412	0.9871	0.117
Mof_C 	C 	0.41191	0.1937	0.8194	0.107
Mof_H 	H 	0.4097	0.1151	0.8391	0.018
Mof_C 	C 	0.5158	0.456	0.9723	0.006
Mof_N 	N 	0.24524	0.05153	0.94136	-0.132
Mof_N 	N 	0.37852	0.2274	0.70542	-0.158
Mof_O 	O 	0.22977	0.13915	0.59937	-0.293
Mof_O 	O 	0.19818	0.32015	0.61969	-0.29
Mof_O 	O 	0.15313	0.44999	0.7951	-0.271
Mof_O 	O 	0.07585	0.33164	0.67447	-0.234
Mof_Cd	Cd	0.31681	0.09418	0.55701	0.445
Mof_C 	C 	0.4637	0.4899	0.981	-0.033
Mof_C 	C 	0.71308	0.717	0.65389	0.336
Mof_C 	C 	0.70904	0.68281	0.77136	-0.086
Mof_C 	C 	0.74512	0.587	0.8357	0.055
Mof_H 	H 	0.7704	0.5458	0.8037	0.043
Mof_C 	C 	0.70668	0.6094	0.9846	0.055
Mof_H 	H 	0.7053	0.584	0.0567	0.037
Mof_C 	C 	0.66908	0.7049	0.9261	-0.082
Mof_H 	H 	0.6429	0.7424	0.9584	0.07
Mof_C 	C 	0.67079	0.74443	0.81833	-0.001
Mof_C 	C 	0.6304	0.8511	0.75689	0.299
Mof_C 	C 	0.88154	0.8408	0.6802	0.102
Mof_H 	H 	0.8581	0.8664	0.6015	0.018
Mof_C 	C 	0.9176	0.9217	0.7648	-0.165
Mof_H 	H 	0.9178	0.0005	0.7436	0.102
Mof_C 	C 	0.9536	0.8851	0.8821	0.118
Mof_C 	C 	0.94921	0.7688	0.9088	-0.179
Mof_H 	H 	0.9714	0.7412	0.9871	0.117
Mof_C 	C 	0.91191	0.6937	0.8194	0.106
Mof_H 	H 	0.9097	0.6151	0.8391	0.019
Mof_C 	C 	0.0158	0.956	0.9723	0.026
Mof_N 	N 	0.74524	0.55153	0.94136	-0.133
Mof_N 	N 	0.87852	0.7274	0.70542	-0.158
Mof_O 	O 	0.72977	0.63915	0.59937	-0.293
Mof_O 	O 	0.69818	0.82015	0.61969	-0.29
Mof_O 	O 	0.65313	0.94999	0.7951	-0.27
Mof_O 	O 	0.57585	0.83164	0.67447	-0.234
Mof_Cd	Cd	0.81681	0.59418	0.55701	0.446
Mof_C 	C 	0.9637	0.9899	0.981	-0.052
Mof_C 	C 	0.78692	0.217	0.84611	0.336
Mof_C 	C 	0.79096	0.18281	0.72864	-0.086
Mof_C 	C 	0.75488	0.087	0.6643	0.055
Mof_H 	H 	0.7296	0.0458	0.6963	0.042
Mof_C 	C 	0.79332	0.1094	0.5154	0.053
Mof_H 	H 	0.7947	0.084	0.4433	0.038
Mof_C 	C 	0.83092	0.2049	0.5739	-0.081
Mof_H 	H 	0.8571	0.2424	0.5416	0.069
Mof_C 	C 	0.82921	0.24443	0.68167	-0.002
Mof_C 	C 	0.8696	0.3511	0.74311	0.3
Mof_C 	C 	0.61846	0.3408	0.8198	0.104
Mof_H 	H 	0.6419	0.3664	0.8985	0.017
Mof_C 	C 	0.5824	0.4217	0.7352	-0.169
Mof_H 	H 	0.5822	0.5005	0.7564	0.104
Mof_C 	C 	0.5464	0.3851	0.6179	0.12
Mof_C 	C 	0.55079	0.2688	0.5912	-0.18
Mof_H 	H 	0.5286	0.2412	0.5129	0.117
Mof_C 	C 	0.58809	0.1937	0.6806	0.107
Mof_H 	H 	0.5903	0.1151	0.6609	0.018
Mof_C 	C 	0.4842	0.456	0.5277	0.004
Mof_N 	N 	0.75476	0.05153	0.55864	-0.133
Mof_N 	N 	0.62148	0.2274	0.79458	-0.159
Mof_O 	O 	0.77023	0.13915	0.90063	-0.293
Mof_O 	O 	0.80182	0.32015	0.88031	-0.29
Mof_O 	O 	0.84687	0.44999	0.7049	-0.271
Mof_O 	O 	0.92415	0.33164	0.82553	-0.234
Mof_Cd	Cd	0.68319	0.09418	0.94299	0.444
Mof_C 	C 	0.5363	0.4899	0.519	-0.031
Mof_C 	C 	0.28692	0.717	0.84611	0.336
Mof_C 	C 	0.29096	0.68281	0.72864	-0.086
Mof_C 	C 	0.25488	0.587	0.6643	0.055
Mof_H 	H 	0.2296	0.5458	0.6963	0.043
Mof_C 	C 	0.29332	0.6094	0.5154	0.053
Mof_H 	H 	0.2947	0.584	0.4433	0.038
Mof_C 	C 	0.33092	0.7049	0.5739	-0.081
Mof_H 	H 	0.3571	0.7424	0.5416	0.069
Mof_C 	C 	0.32921	0.74443	0.68167	-0.002
Mof_C 	C 	0.3696	0.8511	0.74311	0.299
Mof_C 	C 	0.11846	0.8408	0.8198	0.102
Mof_H 	H 	0.1419	0.8664	0.8985	0.018
Mof_C 	C 	0.0824	0.9217	0.7352	-0.165
Mof_H 	H 	0.0822	0.0005	0.7564	0.102
Mof_C 	C 	0.0464	0.8851	0.6179	0.118
Mof_C 	C 	0.05079	0.7688	0.5912	-0.179
Mof_H 	H 	0.0286	0.7412	0.5129	0.117
Mof_C 	C 	0.08809	0.6937	0.6806	0.106
Mof_H 	H 	0.0903	0.6151	0.6609	0.019
Mof_C 	C 	0.9842	0.956	0.5277	0.007
Mof_N 	N 	0.25476	0.55153	0.55864	-0.133
Mof_N 	N 	0.12148	0.7274	0.79458	-0.158
Mof_O 	O 	0.27023	0.63915	0.90063	-0.293
Mof_O 	O 	0.30182	0.82015	0.88031	-0.289
Mof_O 	O 	0.34687	0.94999	0.7049	-0.27
Mof_O 	O 	0.42415	0.83164	0.82553	-0.234
Mof_Cd	Cd	0.18319	0.59418	0.94299	0.446
Mof_C 	C 	0.0363	0.9899	0.519	-0.034
Mof_C 	C 	0.78692	0.783	0.34611	0.336
Mof_C 	C 	0.79096	0.81719	0.22864	-0.085
Mof_C 	C 	0.75488	0.913	0.1643	0.054
Mof_H 	H 	0.7296	0.9542	0.1963	0.042
Mof_C 	C 	0.79332	0.8906	0.0154	0.047
Mof_H 	H 	0.7947	0.916	0.9433	0.042
Mof_C 	C 	0.83092	0.7951	0.0739	-0.078
Mof_H 	H 	0.8571	0.7576	0.0416	0.067
Mof_C 	C 	0.82921	0.75557	0.18167	-0.004
Mof_C 	C 	0.8696	0.6489	0.24311	0.3
Mof_C 	C 	0.61846	0.6592	0.3198	0.104
Mof_H 	H 	0.6419	0.6336	0.3985	0.017
Mof_C 	C 	0.5824	0.5783	0.2352	-0.169
Mof_H 	H 	0.5822	0.4995	0.2564	0.104
Mof_C 	C 	0.5464	0.6149	0.1179	0.12
Mof_C 	C 	0.55079	0.7312	0.0912	-0.18
Mof_H 	H 	0.5286	0.7588	0.0129	0.117
Mof_C 	C 	0.58809	0.8063	0.1806	0.107
Mof_H 	H 	0.5903	0.8849	0.1609	0.018
Mof_C 	C 	0.4842	0.544	0.0277	0.006
Mof_N 	N 	0.75476	0.94847	0.05864	-0.132
Mof_N 	N 	0.62148	0.7726	0.29458	-0.158
Mof_O 	O 	0.77023	0.86085	0.40063	-0.293
Mof_O 	O 	0.80182	0.67985	0.38031	-0.29
Mof_O 	O 	0.84687	0.55001	0.2049	-0.271
Mof_O 	O 	0.92415	0.66836	0.32553	-0.234
Mof_Cd	Cd	0.68319	0.90582	0.44299	0.445
Mof_C 	C 	0.5363	0.5101	0.019	-0.033
Mof_C 	C 	0.28692	0.283	0.34611	0.336
Mof_C 	C 	0.29096	0.31719	0.22864	-0.086
Mof_C 	C 	0.25488	0.413	0.1643	0.055
Mof_H 	H 	0.2296	0.4542	0.1963	0.043
Mof_C 	C 	0.29332	0.3906	0.0154	0.055
Mof_H 	H 	0.2947	0.416	0.9433	0.037
Mof_C 	C 	0.33092	0.2951	0.0739	-0.082
Mof_H 	H 	0.3571	0.2576	0.0416	0.07
Mof_C 	C 	0.32921	0.25557	0.18167	-0.001
Mof_C 	C 	0.3696	0.1489	0.24311	0.299
Mof_C 	C 	0.11846	0.1592	0.3198	0.102
Mof_H 	H 	0.1419	0.1336	0.3985	0.018
Mof_C 	C 	0.0824	0.0783	0.2352	-0.165
Mof_H 	H 	0.0822	0.9995	0.2564	0.102
Mof_C 	C 	0.0464	0.1149	0.1179	0.118
Mof_C 	C 	0.05079	0.2312	0.0912	-0.179
Mof_H 	H 	0.0286	0.2588	0.0129	0.117
Mof_C 	C 	0.08809	0.3063	0.1806	0.106
Mof_H 	H 	0.0903	0.3849	0.1609	0.019
Mof_C 	C 	0.9842	0.044	0.0277	0.026
Mof_N 	N 	0.25476	0.44847	0.05864	-0.133
Mof_N 	N 	0.12148	0.2726	0.29458	-0.158
Mof_O 	O 	0.27023	0.36085	0.40063	-0.293
Mof_O 	O 	0.30182	0.17985	0.38031	-0.29
Mof_O 	O 	0.34687	0.05001	0.2049	-0.27
Mof_O 	O 	0.42415	0.16836	0.32553	-0.234
Mof_Cd	Cd	0.18319	0.40582	0.44299	0.446
Mof_C 	C 	0.0363	0.0101	0.019	-0.052
Mof_C 	C 	0.21308	0.783	0.15389	0.336
Mof_C 	C 	0.20904	0.81719	0.27136	-0.086
Mof_C 	C 	0.24512	0.913	0.3357	0.055
Mof_H 	H 	0.2704	0.9542	0.3037	0.042
Mof_C 	C 	0.20668	0.8906	0.4846	0.053
Mof_H 	H 	0.2053	0.916	0.5567	0.038
Mof_C 	C 	0.16908	0.7951	0.4261	-0.081
Mof_H 	H 	0.1429	0.7576	0.4584	0.069
Mof_C 	C 	0.17079	0.75557	0.31833	-0.002
Mof_C 	C 	0.1304	0.6489	0.25689	0.3
Mof_C 	C 	0.38154	0.6592	0.1802	0.104
Mof_H 	H 	0.3581	0.6336	0.1015	0.017
Mof_C 	C 	0.4176	0.5783	0.2648	-0.169
Mof_H 	H 	0.4178	0.4995	0.2436	0.104
Mof_C 	C 	0.4536	0.6149	0.3821	0.12
Mof_C 	C 	0.44921	0.7312	0.4088	-0.18
Mof_H 	H 	0.4714	0.7588	0.4871	0.117
Mof_C 	C 	0.41191	0.8063	0.3194	0.107
Mof_H 	H 	0.4097	0.8849	0.3391	0.018
Mof_C 	C 	0.5158	0.544	0.4723	0.004
Mof_N 	N 	0.24524	0.94847	0.44136	-0.133
Mof_N 	N 	0.37852	0.7726	0.20542	-0.159
Mof_O 	O 	0.22977	0.86085	0.09937	-0.293
Mof_O 	O 	0.19818	0.67985	0.11969	-0.29
Mof_O 	O 	0.15313	0.55001	0.2951	-0.271
Mof_O 	O 	0.07585	0.66836	0.17447	-0.234
Mof_Cd	Cd	0.31681	0.90582	0.05701	0.444
Mof_C 	C 	0.4637	0.5101	0.481	-0.031
Mof_C 	C 	0.71308	0.283	0.15389	0.336
Mof_C 	C 	0.70904	0.31719	0.27136	-0.086
Mof_C 	C 	0.74512	0.413	0.3357	0.055
Mof_H 	H 	0.7704	0.4542	0.3037	0.043
Mof_C 	C 	0.70668	0.3906	0.4846	0.053
Mof_H 	H 	0.7053	0.416	0.5567	0.038
Mof_C 	C 	0.66908	0.2951	0.4261	-0.081
Mof_H 	H 	0.6429	0.2576	0.4584	0.069
Mof_C 	C 	0.67079	0.25557	0.31833	-0.002
Mof_C 	C 	0.6304	0.1489	0.25689	0.299
Mof_C 	C 	0.88154	0.1592	0.1802	0.102
Mof_H 	H 	0.8581	0.1336	0.1015	0.018
Mof_C 	C 	0.9176	0.0783	0.2648	-0.165
Mof_H 	H 	0.9178	0.9995	0.2436	0.102
Mof_C 	C 	0.9536	0.1149	0.3821	0.118
Mof_C 	C 	0.94921	0.2312	0.4088	-0.179
Mof_H 	H 	0.9714	0.2588	0.4871	0.117
Mof_C 	C 	0.91191	0.3063	0.3194	0.106
Mof_H 	H 	0.9097	0.3849	0.3391	0.019
Mof_C 	C 	0.0158	0.044	0.4723	0.007
Mof_N 	N 	0.74524	0.44847	0.44136	-0.133
Mof_N 	N 	0.87852	0.2726	0.20542	-0.158
Mof_O 	O 	0.72977	0.36085	0.09937	-0.293
Mof_O 	O 	0.69818	0.17985	0.11969	-0.289
Mof_O 	O 	0.65313	0.05001	0.2951	-0.27
Mof_O 	O 	0.57585	0.16836	0.17447	-0.234
Mof_Cd	Cd	0.81681	0.40582	0.05701	0.446
Mof_C 	C 	0.9637	0.0101	0.481	-0.034
_end
