data_functionalizedCrystal
_audit_creation_method	'EQeq! by Chris Wilmer'
_symmetry_space_group_name_H-M	'P1'
_symmetry_Int_Tables_number	1
_symmetry_cell_setting	triclinic
loop_
_symmetry_equiv_pos_as_xyz
  x,y,z
_cell_length_a	10.0355
_cell_length_b	12.819
_cell_length_c	15.4797
_cell_angle_alpha	90
_cell_angle_beta	102.486
_cell_angle_gamma	90
loop_
_atom_site_label
_atom_site_type_symbol
_atom_site_fract_x
_atom_site_fract_y
_atom_site_fract_z
_atom_site_charge
Mof_Cd	Cd	0.17871	0.96605	0.09169	0.51
Mof_O 	O 	0.37865	0.91392	0.04833	-0.242
Mof_O 	O 	0.34864	0.84479	0.17227	-0.235
Mof_O 	O 	0.68834	0.59953	0.3339	-0.255
Mof_O 	O 	0.87489	0.56568	0.29086	-0.25
Mof_O 	O 	0.02586	0.84566	0.10373	-0.26
Mof_O 	O 	0.87987	0.96875	0.04562	-0.274
Mof_C 	C 	0.42126	0.86164	0.11735	0.298
Mof_C 	C 	0.56325	0.81975	0.13488	-0.056
Mof_C 	C 	0.66295	0.86377	0.09504	0.015
Mof_H 	H 	0.6397	0.9174	0.0541	0.073
Mof_C 	C 	0.79671	0.82729	0.11684	-0.065
Mof_C 	C 	0.82932	0.74369	0.17529	0.019
Mof_H 	H 	0.9176	0.7171	0.1875	0.068
Mof_C 	C 	0.73233	0.6999	0.21532	-0.062
Mof_C 	C 	0.59954	0.73883	0.1951	0.014
Mof_H 	H 	0.5341	0.7102	0.2224	0.07
Mof_C 	C 	0.76801	0.61584	0.28373	0.31
Mof_C 	C 	0.90688	0.88357	0.08424	0.32
Mof_Cd	Cd	0.82129	0.46605	0.40832	0.511
Mof_O 	O 	0.62135	0.41392	0.45167	-0.242
Mof_O 	O 	0.65136	0.34479	0.32773	-0.235
Mof_O 	O 	0.31166	0.09953	0.1661	-0.254
Mof_O 	O 	0.12511	0.06568	0.20914	-0.249
Mof_O 	O 	0.97414	0.34566	0.39627	-0.26
Mof_O 	O 	0.12013	0.46875	0.45438	-0.274
Mof_C 	C 	0.57874	0.36164	0.38265	0.298
Mof_C 	C 	0.43675	0.31975	0.36512	-0.055
Mof_C 	C 	0.33705	0.36377	0.40496	0.015
Mof_H 	H 	0.3603	0.4174	0.4459	0.073
Mof_C 	C 	0.20329	0.32729	0.38316	-0.064
Mof_C 	C 	0.17068	0.24369	0.32471	0.019
Mof_H 	H 	0.0824	0.2171	0.3125	0.069
Mof_C 	C 	0.26767	0.1999	0.28468	-0.062
Mof_C 	C 	0.40046	0.23883	0.3049	0.013
Mof_H 	H 	0.4659	0.2102	0.2776	0.07
Mof_C 	C 	0.23199	0.11584	0.21627	0.309
Mof_C 	C 	0.09312	0.38357	0.41576	0.32
Mof_Cd	Cd	0.82129	0.03395	0.90832	0.51
Mof_O 	O 	0.62135	0.08608	0.95167	-0.242
Mof_O 	O 	0.65136	0.15521	0.82773	-0.235
Mof_O 	O 	0.31166	0.40047	0.6661	-0.255
Mof_O 	O 	0.12511	0.43432	0.70914	-0.25
Mof_O 	O 	0.97414	0.15434	0.89627	-0.26
Mof_O 	O 	0.12013	0.03125	0.95438	-0.274
Mof_C 	C 	0.57874	0.13836	0.88265	0.298
Mof_C 	C 	0.43675	0.18025	0.86512	-0.056
Mof_C 	C 	0.33705	0.13623	0.90496	0.015
Mof_H 	H 	0.3603	0.0826	0.9459	0.073
Mof_C 	C 	0.20329	0.17271	0.88316	-0.065
Mof_C 	C 	0.17068	0.25631	0.82471	0.019
Mof_H 	H 	0.0824	0.2829	0.8125	0.068
Mof_C 	C 	0.26767	0.3001	0.78468	-0.062
Mof_C 	C 	0.40046	0.26117	0.8049	0.014
Mof_H 	H 	0.4659	0.2898	0.7776	0.07
Mof_C 	C 	0.23199	0.38416	0.71627	0.31
Mof_C 	C 	0.09312	0.11643	0.91576	0.32
Mof_Cd	Cd	0.17871	0.53395	0.59169	0.511
Mof_O 	O 	0.37865	0.58608	0.54833	-0.242
Mof_O 	O 	0.34864	0.65521	0.67227	-0.235
Mof_O 	O 	0.68834	0.90047	0.8339	-0.254
Mof_O 	O 	0.87489	0.93432	0.79086	-0.249
Mof_O 	O 	0.02586	0.65434	0.60373	-0.26
Mof_O 	O 	0.87987	0.53125	0.54562	-0.274
Mof_C 	C 	0.42126	0.63836	0.61735	0.298
Mof_C 	C 	0.56325	0.68025	0.63488	-0.055
Mof_C 	C 	0.66295	0.63623	0.59504	0.015
Mof_H 	H 	0.6397	0.5826	0.5541	0.073
Mof_C 	C 	0.79671	0.67271	0.61684	-0.064
Mof_C 	C 	0.82932	0.75631	0.67529	0.019
Mof_H 	H 	0.9176	0.7829	0.6875	0.068
Mof_C 	C 	0.73233	0.8001	0.71532	-0.062
Mof_C 	C 	0.59954	0.76117	0.6951	0.014
Mof_H 	H 	0.5341	0.7898	0.7224	0.07
Mof_C 	C 	0.76801	0.88416	0.78373	0.309
Mof_C 	C 	0.90688	0.61643	0.58424	0.32
_end
