data_functionalizedCrystal
_audit_creation_method	'EQeq! by Chris Wilmer'
_symmetry_space_group_name_H-M	'P1'
_symmetry_Int_Tables_number	1
_symmetry_cell_setting	triclinic
loop_
_symmetry_equiv_pos_as_xyz
  x,y,z
_cell_length_a	11.8819
_cell_length_b	5.5555
_cell_length_c	22.6411
_cell_angle_alpha	90
_cell_angle_beta	101.302
_cell_angle_gamma	90
loop_
_atom_site_label
_atom_site_type_symbol
_atom_site_fract_x
_atom_site_fract_y
_atom_site_fract_z
_atom_site_charge
Mof_Ca	Ca	0.10216	0.73476	0.04209	1.558
Mof_S 	S 	0.39234	0.52469	0.10458	0.318
Mof_O 	O 	0.90738	0.5927	0.0268	-0.584
Mof_O 	O 	0.38235	0.9616	0.38006	-0.475
Mof_O 	O 	0.379	0.2674	0.09805	-0.251
Mof_O 	O 	0.86789	0.9838	0.02963	-0.507
Mof_O 	O 	0.30944	0.6829	0.06774	-0.362
Mof_O 	O 	0.39372	0.5661	0.3992	-0.505
Mof_C 	C 	0.39875	0.6964	0.30054	-0.157
Mof_C 	C 	0.39781	0.5978	0.18083	-0.012
Mof_C 	C 	0.52786	0.6015	0.08913	0.003
Mof_C 	C 	0.7343	0.7087	0.05665	-0.162
Mof_C 	C 	0.44349	0.4792	0.28465	0.05
Mof_H 	H 	0.4733	0.3648	0.3149	0.01
Mof_C 	C 	0.84398	0.7668	0.03573	0.454
Mof_C 	C 	0.71987	0.4872	0.08301	0.055
Mof_H 	H 	0.7806	0.3731	0.0894	0.01
Mof_C 	C 	0.35538	0.865	0.25628	0.042
Mof_H 	H 	0.3269	0.0144	0.2676	0.027
Mof_C 	C 	0.39155	0.7457	0.36557	0.473
Mof_C 	C 	0.616	0.4334	0.09995	-0.089
Mof_H 	H 	0.6057	0.284	0.1186	0.067
Mof_C 	C 	0.44452	0.4302	0.22446	-0.085
Mof_H 	H 	0.4766	0.2844	0.2133	0.065
Mof_C 	C 	0.54223	0.8261	0.0644	-0.094
Mof_H 	H 	0.482	0.9414	0.0586	0.084
Mof_C 	C 	0.35342	0.8167	0.19571	-0.079
Mof_H 	H 	0.3227	0.93	0.1654	0.068
Mof_C 	C 	0.64667	0.8779	0.0484	0.061
Mof_H 	H 	0.6582	0.0306	0.0316	0.018
Mof_Ca	Ca	0.39784	0.23476	0.45791	1.567
Mof_S 	S 	0.10766	0.02469	0.39542	0.32
Mof_O 	O 	0.59262	0.0927	0.4732	-0.588
Mof_O 	O 	0.11765	0.4616	0.11994	-0.475
Mof_O 	O 	0.121	0.7674	0.40195	-0.252
Mof_O 	O 	0.63211	0.4838	0.47037	-0.511
Mof_O 	O 	0.19056	0.1829	0.43226	-0.362
Mof_O 	O 	0.10628	0.0661	0.1008	-0.504
Mof_C 	C 	0.10125	0.1964	0.19946	-0.155
Mof_C 	C 	0.10219	0.0978	0.31917	-0.014
Mof_C 	C 	0.97214	0.1015	0.41087	-0.002
Mof_C 	C 	0.7657	0.2087	0.44335	-0.164
Mof_C 	C 	0.05651	0.9792	0.21535	0.047
Mof_H 	H 	0.0267	0.8648	0.1851	0.01
Mof_C 	C 	0.65602	0.2668	0.46427	0.455
Mof_C 	C 	0.78013	0.9872	0.41699	0.055
Mof_H 	H 	0.7194	0.8731	0.4106	0.01
Mof_C 	C 	0.14462	0.365	0.24372	0.039
Mof_H 	H 	0.1731	0.5144	0.2324	0.029
Mof_C 	C 	0.10845	0.2457	0.13443	0.471
Mof_C 	C 	0.884	0.9334	0.40005	-0.085
Mof_H 	H 	0.8943	0.784	0.3814	0.066
Mof_C 	C 	0.05548	0.9302	0.27554	-0.083
Mof_H 	H 	0.0234	0.7844	0.2867	0.064
Mof_C 	C 	0.95777	0.3261	0.4356	-0.091
Mof_H 	H 	0.018	0.4414	0.4414	0.084
Mof_C 	C 	0.14658	0.3167	0.30429	-0.077
Mof_H 	H 	0.1773	0.43	0.3346	0.068
Mof_C 	C 	0.85333	0.3779	0.4516	0.058
Mof_H 	H 	0.8418	0.5306	0.4684	0.019
Mof_Ca	Ca	0.89784	0.26524	0.95791	1.558
Mof_S 	S 	0.60766	0.47531	0.89542	0.318
Mof_O 	O 	0.09262	0.4073	0.9732	-0.584
Mof_O 	O 	0.61765	0.0384	0.61994	-0.475
Mof_O 	O 	0.621	0.7326	0.90195	-0.251
Mof_O 	O 	0.13211	0.0162	0.97037	-0.507
Mof_O 	O 	0.69056	0.3171	0.93226	-0.362
Mof_O 	O 	0.60628	0.4339	0.6008	-0.505
Mof_C 	C 	0.60125	0.3036	0.69946	-0.157
Mof_C 	C 	0.60219	0.4022	0.81917	-0.012
Mof_C 	C 	0.47214	0.3985	0.91087	0.003
Mof_C 	C 	0.2657	0.2913	0.94335	-0.162
Mof_C 	C 	0.55651	0.5208	0.71535	0.05
Mof_H 	H 	0.5267	0.6352	0.6851	0.01
Mof_C 	C 	0.15602	0.2332	0.96427	0.454
Mof_C 	C 	0.28013	0.5128	0.91699	0.055
Mof_H 	H 	0.2194	0.6269	0.9106	0.01
Mof_C 	C 	0.64462	0.135	0.74372	0.042
Mof_H 	H 	0.6731	0.9856	0.7324	0.027
Mof_C 	C 	0.60845	0.2543	0.63443	0.473
Mof_C 	C 	0.384	0.5666	0.90005	-0.089
Mof_H 	H 	0.3943	0.716	0.8814	0.067
Mof_C 	C 	0.55548	0.5698	0.77554	-0.085
Mof_H 	H 	0.5234	0.7156	0.7867	0.065
Mof_C 	C 	0.45777	0.1739	0.9356	-0.094
Mof_H 	H 	0.518	0.0586	0.9414	0.084
Mof_C 	C 	0.64658	0.1833	0.80429	-0.079
Mof_H 	H 	0.6773	0.07	0.8346	0.068
Mof_C 	C 	0.35333	0.1221	0.9516	0.061
Mof_H 	H 	0.3418	0.9694	0.9684	0.018
Mof_Ca	Ca	0.60216	0.76524	0.54209	1.567
Mof_S 	S 	0.89234	0.97531	0.60458	0.32
Mof_O 	O 	0.40738	0.9073	0.5268	-0.588
Mof_O 	O 	0.88235	0.5384	0.88006	-0.475
Mof_O 	O 	0.879	0.2326	0.59805	-0.252
Mof_O 	O 	0.36789	0.5162	0.52963	-0.511
Mof_O 	O 	0.80944	0.8171	0.56774	-0.362
Mof_O 	O 	0.89372	0.9339	0.8992	-0.504
Mof_C 	C 	0.89875	0.8036	0.80054	-0.155
Mof_C 	C 	0.89781	0.9022	0.68083	-0.014
Mof_C 	C 	0.02786	0.8985	0.58913	-0.002
Mof_C 	C 	0.2343	0.7913	0.55665	-0.164
Mof_C 	C 	0.94349	0.0208	0.78465	0.047
Mof_H 	H 	0.9733	0.1352	0.8149	0.01
Mof_C 	C 	0.34398	0.7332	0.53573	0.455
Mof_C 	C 	0.21987	0.0128	0.58301	0.055
Mof_H 	H 	0.2806	0.1269	0.5894	0.01
Mof_C 	C 	0.85538	0.635	0.75628	0.039
Mof_H 	H 	0.8269	0.4856	0.7676	0.029
Mof_C 	C 	0.89155	0.7543	0.86557	0.471
Mof_C 	C 	0.116	0.0666	0.59995	-0.085
Mof_H 	H 	0.1057	0.216	0.6186	0.066
Mof_C 	C 	0.94452	0.0698	0.72446	-0.083
Mof_H 	H 	0.9766	0.2156	0.7133	0.064
Mof_C 	C 	0.04223	0.6739	0.5644	-0.091
Mof_H 	H 	0.982	0.5586	0.5586	0.084
Mof_C 	C 	0.85342	0.6833	0.69571	-0.077
Mof_H 	H 	0.8227	0.57	0.6654	0.068
Mof_C 	C 	0.14667	0.6221	0.5484	0.058
Mof_H 	H 	0.1582	0.4694	0.5316	0.019
_end
