data_functionalizedCrystal
_audit_creation_method	'EQeq! by Chris Wilmer'
_symmetry_space_group_name_H-M	'P1'
_symmetry_Int_Tables_number	1
_symmetry_cell_setting	triclinic
loop_
_symmetry_equiv_pos_as_xyz
  x,y,z
_cell_length_a	9.4891
_cell_length_b	9.5461
_cell_length_c	10.9842
_cell_angle_alpha	90
_cell_angle_beta	90
_cell_angle_gamma	90
loop_
_atom_site_label
_atom_site_type_symbol
_atom_site_fract_x
_atom_site_fract_y
_atom_site_fract_z
_atom_site_charge
Mof_Eu	Eu	0.18189	0.19323	0.18458	1.83
Mof_Eu	Eu	0.31811	0.80677	0.68458	1.836
Mof_Eu	Eu	0.81811	0.69323	0.31542	1.837
Mof_Eu	Eu	0.68189	0.30677	0.81542	1.841
Mof_H 	H 	0.7235	0.1879	0.1375	-0.388
Mof_H 	H 	0.8243	0.3438	0.0371	1.578
Mof_H 	H 	0.6768	0.2859	0.3181	0.187
Mof_H 	H 	0.5801	0.4559	0.3178	0.123
Mof_H 	H 	0.7765	0.8121	0.6375	-0.388
Mof_H 	H 	0.6757	0.6562	0.5371	1.576
Mof_H 	H 	0.8232	0.7141	0.8181	0.186
Mof_H 	H 	0.9199	0.5441	0.8178	0.123
Mof_H 	H 	0.2765	0.6879	0.3625	-0.387
Mof_H 	H 	0.1757	0.8438	0.4629	1.577
Mof_H 	H 	0.3232	0.7859	0.1819	0.187
Mof_H 	H 	0.4199	0.9559	0.1822	0.124
Mof_H 	H 	0.2235	0.3121	0.8625	-0.387
Mof_H 	H 	0.3243	0.1562	0.9629	1.575
Mof_H 	H 	0.1768	0.2141	0.6819	0.186
Mof_H 	H 	0.0801	0.0441	0.6822	0.122
Mof_C 	C 	0.5384	0.2609	0.1031	0.129
Mof_C 	C 	0.6966	0.2761	0.1364	0.972
Mof_C 	C 	0.7179	0.337	0.2621	-0.475
Mof_C 	C 	0.8761	0.3385	0.2928	0.468
Mof_C 	C 	0.9616	0.7391	0.6031	0.13
Mof_C 	C 	0.8034	0.7239	0.6364	0.971
Mof_C 	C 	0.7821	0.663	0.7621	-0.474
Mof_C 	C 	0.6239	0.6615	0.7928	0.468
Mof_C 	C 	0.4616	0.7609	0.3969	0.131
Mof_C 	C 	0.3034	0.7761	0.3636	0.97
Mof_C 	C 	0.2821	0.837	0.2379	-0.474
Mof_C 	C 	0.1239	0.8385	0.2072	0.468
Mof_C 	C 	0.0384	0.2391	0.8969	0.13
Mof_C 	C 	0.1966	0.2239	0.8636	0.97
Mof_C 	C 	0.2179	0.163	0.7379	-0.474
Mof_C 	C 	0.3761	0.1615	0.7072	0.468
Mof_O 	O 	0.452	0.2425	0.1866	-0.426
Mof_O 	O 	0.5108	0.2614	0.9912	-0.453
Mof_O 	O 	0.7654	0.3557	0.0445	-2.232
Mof_O 	O 	0.6602	0.4736	0.2722	-0.306
Mof_O 	O 	0.9401	0.2239	0.2852	-0.521
Mof_O 	O 	0.9304	0.4524	0.3271	-0.491
Mof_O 	O 	0.048	0.7575	0.6866	-0.426
Mof_O 	O 	0.9892	0.7386	0.4912	-0.454
Mof_O 	O 	0.7346	0.6443	0.5445	-2.23
Mof_O 	O 	0.8398	0.5264	0.7722	-0.307
Mof_O 	O 	0.5599	0.7761	0.7852	-0.524
Mof_O 	O 	0.5696	0.5476	0.8271	-0.492
Mof_O 	O 	0.548	0.7425	0.3134	-0.426
Mof_O 	O 	0.4892	0.7614	0.5088	-0.454
Mof_O 	O 	0.2346	0.8557	0.4555	-2.23
Mof_O 	O 	0.3398	0.9736	0.2278	-0.305
Mof_O 	O 	0.0599	0.7239	0.2148	-0.522
Mof_O 	O 	0.0696	0.9524	0.1729	-0.489
Mof_O 	O 	0.952	0.2575	0.8134	-0.424
Mof_O 	O 	0.0108	0.2386	0.0088	-0.456
Mof_O 	O 	0.2654	0.1443	0.9555	-2.228
Mof_O 	O 	0.1602	0.0264	0.7278	-0.306
Mof_O 	O 	0.4401	0.2761	0.7148	-0.523
Mof_O 	O 	0.4304	0.0476	0.6729	-0.491
_end
