data_functionalizedCrystal
_audit_creation_method	'EQeq! by Chris Wilmer'
_symmetry_space_group_name_H-M	'P1'
_symmetry_Int_Tables_number	1
_symmetry_cell_setting	triclinic
loop_
_symmetry_equiv_pos_as_xyz
  x,y,z
_cell_length_a	28.7595
_cell_length_b	28.7595
_cell_length_c	28.7595
_cell_angle_alpha	90
_cell_angle_beta	90
_cell_angle_gamma	90
loop_
_atom_site_label
_atom_site_type_symbol
_atom_site_fract_x
_atom_site_fract_y
_atom_site_fract_z
_atom_site_charge
Mof_Zn	Zn	0.39623	0.10429	0.25197	1.175
Mof_C 	C 	0.3356	0.0256	0.2215	0.038
Mof_C 	C 	0.2991	0.05	0.1998	-0.101
Mof_H 	H 	0.2986	0.0823	0.1989	0.034
Mof_C 	C 	0.2652	0.0247	0.1803	-0.03
Mof_H 	H 	0.2405	0.0402	0.1662	0.031
Mof_C 	C 	0.4071	0.1096	0.1447	0.107
Mof_C 	C 	0.412	0.0632	0.1331	-0.166
Mof_H 	H 	0.4132	0.04	0.1556	0.071
Mof_C 	C 	0.415	0.0533	0.0867	0.006
Mof_H 	H 	0.4171	0.0224	0.0775	0.014
Mof_C 	C 	0.3554	0.1738	0.3197	0.039
Mof_C 	C 	0.3825	0.2137	0.3139	-0.114
Mof_H 	H 	0.4095	0.2154	0.2944	0.035
Mof_C 	C 	0.3723	0.2564	0.3374	-0.104
Mof_H 	H 	0.3882	0.2836	0.3299	0.05
Mof_C 	C 	0.477	0.0808	0.3169	0.008
Mof_C 	C 	0.4501	0.0584	0.3529	-0.039
Mof_H 	H 	0.4179	0.0602	0.3544	0.011
Mof_C 	C 	0.4769	0.0334	0.3857	-0.028
Mof_H 	H 	0.4615	0.0162	0.4084	0.023
Mof_N 	N 	0.3751	0.0394	0.244	-0.3
Mof_N 	N 	0.3992	0.1358	0.1906	-0.288
Mof_N 	N 	0.3529	0.1312	0.2975	-0.315
Mof_N 	N 	0.4607	0.1022	0.2768	-0.291
Mof_C 	C 	0.423	0.1201	0.1563	-0.077
Mof_C 	C 	0.4423	0.0744	0.1466	0.044
Mof_H 	H 	0.4418	0.0502	0.168	-0.028
Mof_C 	C 	0.4611	0.0703	0.1038	-0.044
Mof_H 	H 	0.4752	0.0422	0.0966	0.032
Mof_H 	H 	0.3025	0.0835	0.3184	-0.043
Mof_C 	C 	0.3877	0.2389	0.3503	0.077
Mof_H 	H 	0.4142	0.257	0.3539	-0.008
Mof_C 	C 	0.4747	0.1015	0.3231	0.032
Mof_C 	C 	0.4499	0.0957	0.3647	-0.07
Mof_H 	H 	0.4176	0.0949	0.3652	0.029
Mof_C 	C 	0.4762	0.0913	0.4054	-0.024
Mof_H 	H 	0.4607	0.0882	0.4336	0.027
Mof_Zn	Zn	0.60377	0.89571	0.25197	1.176
Mof_C 	C 	0.6644	0.9744	0.2215	0.049
Mof_C 	C 	0.7009	0.95	0.1998	-0.112
Mof_H 	H 	0.7014	0.9177	0.1989	0.039
Mof_C 	C 	0.7348	0.9753	0.1803	-0.011
Mof_H 	H 	0.7595	0.9598	0.1662	0.027
Mof_C 	C 	0.5929	0.8904	0.1447	0.108
Mof_C 	C 	0.588	0.9368	0.1331	-0.166
Mof_H 	H 	0.5868	0.96	0.1556	0.073
Mof_C 	C 	0.585	0.9467	0.0867	0.008
Mof_H 	H 	0.5829	0.9776	0.0775	0.017
Mof_C 	C 	0.6446	0.8262	0.3197	0.04
Mof_C 	C 	0.6175	0.7863	0.3139	-0.113
Mof_H 	H 	0.5905	0.7846	0.2944	0.036
Mof_C 	C 	0.6277	0.7436	0.3374	-0.103
Mof_H 	H 	0.6118	0.7164	0.3299	0.051
Mof_C 	C 	0.523	0.9192	0.3169	0.01
Mof_C 	C 	0.5499	0.9416	0.3529	-0.037
Mof_H 	H 	0.5821	0.9398	0.3544	0.012
Mof_C 	C 	0.5231	0.9666	0.3857	-0.028
Mof_H 	H 	0.5385	0.9838	0.4084	0.027
Mof_N 	N 	0.6249	0.9606	0.244	-0.3
Mof_N 	N 	0.6008	0.8642	0.1906	-0.287
Mof_N 	N 	0.6471	0.8688	0.2975	-0.314
Mof_N 	N 	0.5393	0.8978	0.2768	-0.291
Mof_C 	C 	0.577	0.8799	0.1563	-0.077
Mof_C 	C 	0.5577	0.9256	0.1466	0.045
Mof_H 	H 	0.5582	0.9498	0.168	-0.028
Mof_C 	C 	0.5389	0.9297	0.1038	-0.046
Mof_H 	H 	0.5248	0.9578	0.0966	0.033
Mof_H 	H 	0.6975	0.9165	0.3184	-0.042
Mof_C 	C 	0.6123	0.7611	0.3503	0.077
Mof_H 	H 	0.5858	0.743	0.3539	-0.008
Mof_C 	C 	0.5253	0.8985	0.3231	0.031
Mof_C 	C 	0.5501	0.9043	0.3647	-0.071
Mof_H 	H 	0.5824	0.9051	0.3652	0.029
Mof_C 	C 	0.5238	0.9087	0.4054	-0.024
Mof_H 	H 	0.5393	0.9118	0.4336	0.027
Mof_Zn	Zn	0.60377	0.10429	0.74803	1.176
Mof_C 	C 	0.6644	0.0256	0.7785	0.039
Mof_C 	C 	0.7009	0.05	0.8002	-0.1
Mof_H 	H 	0.7014	0.0823	0.8011	0.035
Mof_C 	C 	0.7348	0.0247	0.8197	-0.029
Mof_H 	H 	0.7595	0.0402	0.8338	0.033
Mof_C 	C 	0.5929	0.1096	0.8553	0.109
Mof_C 	C 	0.588	0.0632	0.8669	-0.165
Mof_H 	H 	0.5868	0.04	0.8444	0.072
Mof_C 	C 	0.585	0.0533	0.9133	0.007
Mof_H 	H 	0.5829	0.0224	0.9225	0.016
Mof_C 	C 	0.6446	0.1738	0.6803	0.04
Mof_C 	C 	0.6175	0.2137	0.6861	-0.113
Mof_H 	H 	0.5905	0.2154	0.7056	0.036
Mof_C 	C 	0.6277	0.2564	0.6626	-0.103
Mof_H 	H 	0.6118	0.2836	0.6701	0.051
Mof_C 	C 	0.523	0.0808	0.6831	0.009
Mof_C 	C 	0.5499	0.0584	0.6471	-0.038
Mof_H 	H 	0.5821	0.0602	0.6456	0.012
Mof_C 	C 	0.5231	0.0334	0.6143	-0.027
Mof_H 	H 	0.5385	0.0162	0.5916	0.024
Mof_N 	N 	0.6249	0.0394	0.756	-0.299
Mof_N 	N 	0.6008	0.1358	0.8094	-0.287
Mof_N 	N 	0.6471	0.1312	0.7025	-0.314
Mof_N 	N 	0.5393	0.1022	0.7232	-0.291
Mof_C 	C 	0.577	0.1201	0.8437	-0.077
Mof_C 	C 	0.5577	0.0744	0.8534	0.042
Mof_H 	H 	0.5582	0.0502	0.832	-0.028
Mof_C 	C 	0.5389	0.0703	0.8962	-0.043
Mof_H 	H 	0.5248	0.0422	0.9034	0.032
Mof_H 	H 	0.6975	0.0835	0.6816	-0.043
Mof_C 	C 	0.6123	0.2389	0.6497	0.077
Mof_H 	H 	0.5858	0.257	0.6461	-0.008
Mof_C 	C 	0.5253	0.1015	0.6769	0.032
Mof_C 	C 	0.5501	0.0957	0.6353	-0.07
Mof_H 	H 	0.5824	0.0949	0.6348	0.029
Mof_C 	C 	0.5238	0.0913	0.5946	-0.024
Mof_H 	H 	0.5393	0.0882	0.5664	0.027
Mof_Zn	Zn	0.39623	0.89571	0.74803	1.176
Mof_C 	C 	0.3356	0.9744	0.7785	0.049
Mof_C 	C 	0.2991	0.95	0.8002	-0.112
Mof_H 	H 	0.2986	0.9177	0.8011	0.039
Mof_C 	C 	0.2652	0.9753	0.8197	-0.011
Mof_H 	H 	0.2405	0.9598	0.8338	0.027
Mof_C 	C 	0.4071	0.8904	0.8553	0.109
Mof_C 	C 	0.412	0.9368	0.8669	-0.165
Mof_H 	H 	0.4132	0.96	0.8444	0.073
Mof_C 	C 	0.415	0.9467	0.9133	0.007
Mof_H 	H 	0.4171	0.9776	0.9225	0.017
Mof_C 	C 	0.3554	0.8262	0.6803	0.04
Mof_C 	C 	0.3825	0.7863	0.6861	-0.113
Mof_H 	H 	0.4095	0.7846	0.7056	0.036
Mof_C 	C 	0.3723	0.7436	0.6626	-0.103
Mof_H 	H 	0.3882	0.7164	0.6701	0.051
Mof_C 	C 	0.477	0.9192	0.6831	0.01
Mof_C 	C 	0.4501	0.9416	0.6471	-0.037
Mof_H 	H 	0.4179	0.9398	0.6456	0.012
Mof_C 	C 	0.4769	0.9666	0.6143	-0.028
Mof_H 	H 	0.4615	0.9838	0.5916	0.027
Mof_N 	N 	0.3751	0.9606	0.756	-0.3
Mof_N 	N 	0.3992	0.8642	0.8094	-0.287
Mof_N 	N 	0.3529	0.8688	0.7025	-0.314
Mof_N 	N 	0.4607	0.8978	0.7232	-0.291
Mof_C 	C 	0.423	0.8799	0.8437	-0.077
Mof_C 	C 	0.4423	0.9256	0.8534	0.043
Mof_H 	H 	0.4418	0.9498	0.832	-0.028
Mof_C 	C 	0.4611	0.9297	0.8962	-0.044
Mof_H 	H 	0.4752	0.9578	0.9034	0.033
Mof_H 	H 	0.3025	0.9165	0.6816	-0.042
Mof_C 	C 	0.3877	0.7611	0.6497	0.077
Mof_H 	H 	0.4142	0.743	0.6461	-0.008
Mof_C 	C 	0.4747	0.8985	0.6769	0.031
Mof_C 	C 	0.4499	0.9043	0.6353	-0.071
Mof_H 	H 	0.4176	0.9051	0.6348	0.029
Mof_C 	C 	0.4762	0.9087	0.5946	-0.024
Mof_H 	H 	0.4607	0.9118	0.5664	0.027
Mof_Zn	Zn	0.25197	0.39623	0.10429	1.176
Mof_C 	C 	0.2215	0.3356	0.0256	0.039
Mof_C 	C 	0.1998	0.2991	0.05	-0.1
Mof_H 	H 	0.1989	0.2986	0.0823	0.035
Mof_C 	C 	0.1803	0.2652	0.0247	-0.029
Mof_H 	H 	0.1662	0.2405	0.0402	0.032
Mof_C 	C 	0.1447	0.4071	0.1096	0.108
Mof_C 	C 	0.1331	0.412	0.0632	-0.165
Mof_H 	H 	0.1556	0.4132	0.04	0.072
Mof_C 	C 	0.0867	0.415	0.0533	0.007
Mof_H 	H 	0.0775	0.4171	0.0224	0.015
Mof_C 	C 	0.3197	0.3554	0.1738	0.04
Mof_C 	C 	0.3139	0.3825	0.2137	-0.113
Mof_H 	H 	0.2944	0.4095	0.2154	0.036
Mof_C 	C 	0.3374	0.3723	0.2564	-0.103
Mof_H 	H 	0.3299	0.3882	0.2836	0.051
Mof_C 	C 	0.3169	0.477	0.0808	0.009
Mof_C 	C 	0.3529	0.4501	0.0584	-0.038
Mof_H 	H 	0.3544	0.4179	0.0602	0.012
Mof_C 	C 	0.3857	0.4769	0.0334	-0.027
Mof_H 	H 	0.4084	0.4615	0.0162	0.024
Mof_N 	N 	0.244	0.3751	0.0394	-0.299
Mof_N 	N 	0.1906	0.3992	0.1358	-0.287
Mof_N 	N 	0.2975	0.3529	0.1312	-0.314
Mof_N 	N 	0.2768	0.4607	0.1022	-0.291
Mof_C 	C 	0.1563	0.423	0.1201	-0.077
Mof_C 	C 	0.1466	0.4423	0.0744	0.044
Mof_H 	H 	0.168	0.4418	0.0502	-0.028
Mof_C 	C 	0.1038	0.4611	0.0703	-0.044
Mof_H 	H 	0.0966	0.4752	0.0422	0.032
Mof_H 	H 	0.3184	0.3025	0.0835	-0.043
Mof_C 	C 	0.3503	0.3877	0.2389	0.077
Mof_H 	H 	0.3539	0.4142	0.257	-0.008
Mof_C 	C 	0.3231	0.4747	0.1015	0.032
Mof_C 	C 	0.3647	0.4499	0.0957	-0.07
Mof_H 	H 	0.3652	0.4176	0.0949	0.029
Mof_C 	C 	0.4054	0.4762	0.0913	-0.024
Mof_H 	H 	0.4336	0.4607	0.0882	0.027
Mof_Zn	Zn	0.25197	0.60377	0.89571	1.176
Mof_C 	C 	0.2215	0.6644	0.9744	0.049
Mof_C 	C 	0.1998	0.7009	0.95	-0.112
Mof_H 	H 	0.1989	0.7014	0.9177	0.039
Mof_C 	C 	0.1803	0.7348	0.9753	-0.011
Mof_H 	H 	0.1662	0.7595	0.9598	0.027
Mof_C 	C 	0.1447	0.5929	0.8904	0.108
Mof_C 	C 	0.1331	0.588	0.9368	-0.166
Mof_H 	H 	0.1556	0.5868	0.96	0.073
Mof_C 	C 	0.0867	0.585	0.9467	0.008
Mof_H 	H 	0.0775	0.5829	0.9776	0.017
Mof_C 	C 	0.3197	0.6446	0.8262	0.04
Mof_C 	C 	0.3139	0.6175	0.7863	-0.113
Mof_H 	H 	0.2944	0.5905	0.7846	0.036
Mof_C 	C 	0.3374	0.6277	0.7436	-0.103
Mof_H 	H 	0.3299	0.6118	0.7164	0.051
Mof_C 	C 	0.3169	0.523	0.9192	0.01
Mof_C 	C 	0.3529	0.5499	0.9416	-0.037
Mof_H 	H 	0.3544	0.5821	0.9398	0.012
Mof_C 	C 	0.3857	0.5231	0.9666	-0.028
Mof_H 	H 	0.4084	0.5385	0.9838	0.027
Mof_N 	N 	0.244	0.6249	0.9606	-0.3
Mof_N 	N 	0.1906	0.6008	0.8642	-0.287
Mof_N 	N 	0.2975	0.6471	0.8688	-0.314
Mof_N 	N 	0.2768	0.5393	0.8978	-0.291
Mof_C 	C 	0.1563	0.577	0.8799	-0.077
Mof_C 	C 	0.1466	0.5577	0.9256	0.045
Mof_H 	H 	0.168	0.5582	0.9498	-0.028
Mof_C 	C 	0.1038	0.5389	0.9297	-0.046
Mof_H 	H 	0.0966	0.5248	0.9578	0.033
Mof_H 	H 	0.3184	0.6975	0.9165	-0.042
Mof_C 	C 	0.3503	0.6123	0.7611	0.077
Mof_H 	H 	0.3539	0.5858	0.743	-0.008
Mof_C 	C 	0.3231	0.5253	0.8985	0.031
Mof_C 	C 	0.3647	0.5501	0.9043	-0.071
Mof_H 	H 	0.3652	0.5824	0.9051	0.029
Mof_C 	C 	0.4054	0.5238	0.9087	-0.024
Mof_H 	H 	0.4336	0.5393	0.9118	0.027
Mof_Zn	Zn	0.74803	0.60377	0.10429	1.176
Mof_C 	C 	0.7785	0.6644	0.0256	0.039
Mof_C 	C 	0.8002	0.7009	0.05	-0.1
Mof_H 	H 	0.8011	0.7014	0.0823	0.035
Mof_C 	C 	0.8197	0.7348	0.0247	-0.029
Mof_H 	H 	0.8338	0.7595	0.0402	0.033
Mof_C 	C 	0.8553	0.5929	0.1096	0.109
Mof_C 	C 	0.8669	0.588	0.0632	-0.165
Mof_H 	H 	0.8444	0.5868	0.04	0.072
Mof_C 	C 	0.9133	0.585	0.0533	0.007
Mof_H 	H 	0.9225	0.5829	0.0224	0.016
Mof_C 	C 	0.6803	0.6446	0.1738	0.04
Mof_C 	C 	0.6861	0.6175	0.2137	-0.113
Mof_H 	H 	0.7056	0.5905	0.2154	0.036
Mof_C 	C 	0.6626	0.6277	0.2564	-0.103
Mof_H 	H 	0.6701	0.6118	0.2836	0.051
Mof_C 	C 	0.6831	0.523	0.0808	0.009
Mof_C 	C 	0.6471	0.5499	0.0584	-0.038
Mof_H 	H 	0.6456	0.5821	0.0602	0.012
Mof_C 	C 	0.6143	0.5231	0.0334	-0.027
Mof_H 	H 	0.5916	0.5385	0.0162	0.024
Mof_N 	N 	0.756	0.6249	0.0394	-0.299
Mof_N 	N 	0.8094	0.6008	0.1358	-0.287
Mof_N 	N 	0.7025	0.6471	0.1312	-0.314
Mof_N 	N 	0.7232	0.5393	0.1022	-0.291
Mof_C 	C 	0.8437	0.577	0.1201	-0.077
Mof_C 	C 	0.8534	0.5577	0.0744	0.042
Mof_H 	H 	0.832	0.5582	0.0502	-0.028
Mof_C 	C 	0.8962	0.5389	0.0703	-0.043
Mof_H 	H 	0.9034	0.5248	0.0422	0.032
Mof_H 	H 	0.6816	0.6975	0.0835	-0.043
Mof_C 	C 	0.6497	0.6123	0.2389	0.077
Mof_H 	H 	0.6461	0.5858	0.257	-0.008
Mof_C 	C 	0.6769	0.5253	0.1015	0.032
Mof_C 	C 	0.6353	0.5501	0.0957	-0.07
Mof_H 	H 	0.6348	0.5824	0.0949	0.029
Mof_C 	C 	0.5946	0.5238	0.0913	-0.024
Mof_H 	H 	0.5664	0.5393	0.0882	0.027
Mof_Zn	Zn	0.74803	0.39623	0.89571	1.176
Mof_C 	C 	0.7785	0.3356	0.9744	0.049
Mof_C 	C 	0.8002	0.2991	0.95	-0.112
Mof_H 	H 	0.8011	0.2986	0.9177	0.039
Mof_C 	C 	0.8197	0.2652	0.9753	-0.011
Mof_H 	H 	0.8338	0.2405	0.9598	0.027
Mof_C 	C 	0.8553	0.4071	0.8904	0.109
Mof_C 	C 	0.8669	0.412	0.9368	-0.165
Mof_H 	H 	0.8444	0.4132	0.96	0.073
Mof_C 	C 	0.9133	0.415	0.9467	0.007
Mof_H 	H 	0.9225	0.4171	0.9776	0.017
Mof_C 	C 	0.6803	0.3554	0.8262	0.04
Mof_C 	C 	0.6861	0.3825	0.7863	-0.113
Mof_H 	H 	0.7056	0.4095	0.7846	0.036
Mof_C 	C 	0.6626	0.3723	0.7436	-0.103
Mof_H 	H 	0.6701	0.3882	0.7164	0.051
Mof_C 	C 	0.6831	0.477	0.9192	0.01
Mof_C 	C 	0.6471	0.4501	0.9416	-0.037
Mof_H 	H 	0.6456	0.4179	0.9398	0.012
Mof_C 	C 	0.6143	0.4769	0.9666	-0.028
Mof_H 	H 	0.5916	0.4615	0.9838	0.027
Mof_N 	N 	0.756	0.3751	0.9606	-0.3
Mof_N 	N 	0.8094	0.3992	0.8642	-0.287
Mof_N 	N 	0.7025	0.3529	0.8688	-0.314
Mof_N 	N 	0.7232	0.4607	0.8978	-0.291
Mof_C 	C 	0.8437	0.423	0.8799	-0.077
Mof_C 	C 	0.8534	0.4423	0.9256	0.043
Mof_H 	H 	0.832	0.4418	0.9498	-0.028
Mof_C 	C 	0.8962	0.4611	0.9297	-0.044
Mof_H 	H 	0.9034	0.4752	0.9578	0.033
Mof_H 	H 	0.6816	0.3025	0.9165	-0.042
Mof_C 	C 	0.6497	0.3877	0.7611	0.077
Mof_H 	H 	0.6461	0.4142	0.743	-0.008
Mof_C 	C 	0.6769	0.4747	0.8985	0.031
Mof_C 	C 	0.6353	0.4499	0.9043	-0.071
Mof_H 	H 	0.6348	0.4176	0.9051	0.029
Mof_C 	C 	0.5946	0.4762	0.9087	-0.024
Mof_H 	H 	0.5664	0.4607	0.9118	0.027
Mof_Zn	Zn	0.10429	0.25197	0.39623	1.176
Mof_C 	C 	0.0256	0.2215	0.3356	0.039
Mof_C 	C 	0.05	0.1998	0.2991	-0.1
Mof_H 	H 	0.0823	0.1989	0.2986	0.035
Mof_C 	C 	0.0247	0.1803	0.2652	-0.029
Mof_H 	H 	0.0402	0.1662	0.2405	0.032
Mof_C 	C 	0.1096	0.1447	0.4071	0.108
Mof_C 	C 	0.0632	0.1331	0.412	-0.165
Mof_H 	H 	0.04	0.1556	0.4132	0.072
Mof_C 	C 	0.0533	0.0867	0.415	0.007
Mof_H 	H 	0.0224	0.0775	0.4171	0.015
Mof_C 	C 	0.1738	0.3197	0.3554	0.04
Mof_C 	C 	0.2137	0.3139	0.3825	-0.113
Mof_H 	H 	0.2154	0.2944	0.4095	0.036
Mof_C 	C 	0.2564	0.3374	0.3723	-0.103
Mof_H 	H 	0.2836	0.3299	0.3882	0.051
Mof_C 	C 	0.0808	0.3169	0.477	0.009
Mof_C 	C 	0.0584	0.3529	0.4501	-0.038
Mof_H 	H 	0.0602	0.3544	0.4179	0.012
Mof_C 	C 	0.0334	0.3857	0.4769	-0.027
Mof_H 	H 	0.0162	0.4084	0.4615	0.024
Mof_N 	N 	0.0394	0.244	0.3751	-0.299
Mof_N 	N 	0.1358	0.1906	0.3992	-0.287
Mof_N 	N 	0.1312	0.2975	0.3529	-0.314
Mof_N 	N 	0.1022	0.2768	0.4607	-0.291
Mof_C 	C 	0.1201	0.1563	0.423	-0.077
Mof_C 	C 	0.0744	0.1466	0.4423	0.044
Mof_H 	H 	0.0502	0.168	0.4418	-0.028
Mof_C 	C 	0.0703	0.1038	0.4611	-0.044
Mof_H 	H 	0.0422	0.0966	0.4752	0.032
Mof_H 	H 	0.0835	0.3184	0.3025	-0.043
Mof_C 	C 	0.2389	0.3503	0.3877	0.077
Mof_H 	H 	0.257	0.3539	0.4142	-0.008
Mof_C 	C 	0.1015	0.3231	0.4747	0.032
Mof_C 	C 	0.0957	0.3647	0.4499	-0.07
Mof_H 	H 	0.0949	0.3652	0.4176	0.029
Mof_C 	C 	0.0913	0.4054	0.4762	-0.024
Mof_H 	H 	0.0882	0.4336	0.4607	0.027
Mof_Zn	Zn	0.89571	0.25197	0.60377	1.176
Mof_C 	C 	0.9744	0.2215	0.6644	0.049
Mof_C 	C 	0.95	0.1998	0.7009	-0.112
Mof_H 	H 	0.9177	0.1989	0.7014	0.039
Mof_C 	C 	0.9753	0.1803	0.7348	-0.011
Mof_H 	H 	0.9598	0.1662	0.7595	0.027
Mof_C 	C 	0.8904	0.1447	0.5929	0.108
Mof_C 	C 	0.9368	0.1331	0.588	-0.166
Mof_H 	H 	0.96	0.1556	0.5868	0.073
Mof_C 	C 	0.9467	0.0867	0.585	0.008
Mof_H 	H 	0.9776	0.0775	0.5829	0.017
Mof_C 	C 	0.8262	0.3197	0.6446	0.04
Mof_C 	C 	0.7863	0.3139	0.6175	-0.113
Mof_H 	H 	0.7846	0.2944	0.5905	0.036
Mof_C 	C 	0.7436	0.3374	0.6277	-0.103
Mof_H 	H 	0.7164	0.3299	0.6118	0.051
Mof_C 	C 	0.9192	0.3169	0.523	0.01
Mof_C 	C 	0.9416	0.3529	0.5499	-0.037
Mof_H 	H 	0.9398	0.3544	0.5821	0.012
Mof_C 	C 	0.9666	0.3857	0.5231	-0.028
Mof_H 	H 	0.9838	0.4084	0.5385	0.027
Mof_N 	N 	0.9606	0.244	0.6249	-0.3
Mof_N 	N 	0.8642	0.1906	0.6008	-0.287
Mof_N 	N 	0.8688	0.2975	0.6471	-0.314
Mof_N 	N 	0.8978	0.2768	0.5393	-0.291
Mof_C 	C 	0.8799	0.1563	0.577	-0.077
Mof_C 	C 	0.9256	0.1466	0.5577	0.045
Mof_H 	H 	0.9498	0.168	0.5582	-0.028
Mof_C 	C 	0.9297	0.1038	0.5389	-0.046
Mof_H 	H 	0.9578	0.0966	0.5248	0.033
Mof_H 	H 	0.9165	0.3184	0.6975	-0.042
Mof_C 	C 	0.7611	0.3503	0.6123	0.077
Mof_H 	H 	0.743	0.3539	0.5858	-0.008
Mof_C 	C 	0.8985	0.3231	0.5253	0.031
Mof_C 	C 	0.9043	0.3647	0.5501	-0.071
Mof_H 	H 	0.9051	0.3652	0.5824	0.029
Mof_C 	C 	0.9087	0.4054	0.5238	-0.024
Mof_H 	H 	0.9118	0.4336	0.5393	0.027
Mof_Zn	Zn	0.10429	0.74803	0.60377	1.176
Mof_C 	C 	0.0256	0.7785	0.6644	0.039
Mof_C 	C 	0.05	0.8002	0.7009	-0.1
Mof_H 	H 	0.0823	0.8011	0.7014	0.035
Mof_C 	C 	0.0247	0.8197	0.7348	-0.029
Mof_H 	H 	0.0402	0.8338	0.7595	0.033
Mof_C 	C 	0.1096	0.8553	0.5929	0.109
Mof_C 	C 	0.0632	0.8669	0.588	-0.165
Mof_H 	H 	0.04	0.8444	0.5868	0.072
Mof_C 	C 	0.0533	0.9133	0.585	0.007
Mof_H 	H 	0.0224	0.9225	0.5829	0.016
Mof_C 	C 	0.1738	0.6803	0.6446	0.04
Mof_C 	C 	0.2137	0.6861	0.6175	-0.113
Mof_H 	H 	0.2154	0.7056	0.5905	0.036
Mof_C 	C 	0.2564	0.6626	0.6277	-0.103
Mof_H 	H 	0.2836	0.6701	0.6118	0.051
Mof_C 	C 	0.0808	0.6831	0.523	0.009
Mof_C 	C 	0.0584	0.6471	0.5499	-0.038
Mof_H 	H 	0.0602	0.6456	0.5821	0.012
Mof_C 	C 	0.0334	0.6143	0.5231	-0.027
Mof_H 	H 	0.0162	0.5916	0.5385	0.024
Mof_N 	N 	0.0394	0.756	0.6249	-0.299
Mof_N 	N 	0.1358	0.8094	0.6008	-0.287
Mof_N 	N 	0.1312	0.7025	0.6471	-0.314
Mof_N 	N 	0.1022	0.7232	0.5393	-0.291
Mof_C 	C 	0.1201	0.8437	0.577	-0.077
Mof_C 	C 	0.0744	0.8534	0.5577	0.042
Mof_H 	H 	0.0502	0.832	0.5582	-0.028
Mof_C 	C 	0.0703	0.8962	0.5389	-0.043
Mof_H 	H 	0.0422	0.9034	0.5248	0.032
Mof_H 	H 	0.0835	0.6816	0.6975	-0.043
Mof_C 	C 	0.2389	0.6497	0.6123	0.077
Mof_H 	H 	0.257	0.6461	0.5858	-0.008
Mof_C 	C 	0.1015	0.6769	0.5253	0.032
Mof_C 	C 	0.0957	0.6353	0.5501	-0.07
Mof_H 	H 	0.0949	0.6348	0.5824	0.029
Mof_C 	C 	0.0913	0.5946	0.5238	-0.024
Mof_H 	H 	0.0882	0.5664	0.5393	0.027
Mof_Zn	Zn	0.89571	0.74803	0.39623	1.176
Mof_C 	C 	0.9744	0.7785	0.3356	0.049
Mof_C 	C 	0.95	0.8002	0.2991	-0.112
Mof_H 	H 	0.9177	0.8011	0.2986	0.039
Mof_C 	C 	0.9753	0.8197	0.2652	-0.011
Mof_H 	H 	0.9598	0.8338	0.2405	0.027
Mof_C 	C 	0.8904	0.8553	0.4071	0.109
Mof_C 	C 	0.9368	0.8669	0.412	-0.165
Mof_H 	H 	0.96	0.8444	0.4132	0.073
Mof_C 	C 	0.9467	0.9133	0.415	0.007
Mof_H 	H 	0.9776	0.9225	0.4171	0.017
Mof_C 	C 	0.8262	0.6803	0.3554	0.04
Mof_C 	C 	0.7863	0.6861	0.3825	-0.113
Mof_H 	H 	0.7846	0.7056	0.4095	0.036
Mof_C 	C 	0.7436	0.6626	0.3723	-0.103
Mof_H 	H 	0.7164	0.6701	0.3882	0.051
Mof_C 	C 	0.9192	0.6831	0.477	0.01
Mof_C 	C 	0.9416	0.6471	0.4501	-0.037
Mof_H 	H 	0.9398	0.6456	0.4179	0.012
Mof_C 	C 	0.9666	0.6143	0.4769	-0.028
Mof_H 	H 	0.9838	0.5916	0.4615	0.027
Mof_N 	N 	0.9606	0.756	0.3751	-0.3
Mof_N 	N 	0.8642	0.8094	0.3992	-0.287
Mof_N 	N 	0.8688	0.7025	0.3529	-0.314
Mof_N 	N 	0.8978	0.7232	0.4607	-0.291
Mof_C 	C 	0.8799	0.8437	0.423	-0.077
Mof_C 	C 	0.9256	0.8534	0.4423	0.043
Mof_H 	H 	0.9498	0.832	0.4418	-0.028
Mof_C 	C 	0.9297	0.8962	0.4611	-0.044
Mof_H 	H 	0.9578	0.9034	0.4752	0.033
Mof_H 	H 	0.9165	0.6816	0.3025	-0.042
Mof_C 	C 	0.7611	0.6497	0.3877	0.077
Mof_H 	H 	0.743	0.6461	0.4142	-0.008
Mof_C 	C 	0.8985	0.6769	0.4747	0.031
Mof_C 	C 	0.9043	0.6353	0.4499	-0.071
Mof_H 	H 	0.9051	0.6348	0.4176	0.029
Mof_C 	C 	0.9087	0.5946	0.4762	-0.024
Mof_H 	H 	0.9118	0.5664	0.4607	0.027
Mof_Zn	Zn	0.10429	0.39623	0.74803	1.176
Mof_C 	C 	0.0256	0.3356	0.7785	0.039
Mof_C 	C 	0.05	0.2991	0.8002	-0.1
Mof_H 	H 	0.0823	0.2986	0.8011	0.035
Mof_C 	C 	0.0247	0.2652	0.8197	-0.029
Mof_H 	H 	0.0402	0.2405	0.8338	0.032
Mof_C 	C 	0.1096	0.4071	0.8553	0.109
Mof_C 	C 	0.0632	0.412	0.8669	-0.165
Mof_H 	H 	0.04	0.4132	0.8444	0.072
Mof_C 	C 	0.0533	0.415	0.9133	0.007
Mof_H 	H 	0.0224	0.4171	0.9225	0.016
Mof_C 	C 	0.1738	0.3554	0.6803	0.04
Mof_C 	C 	0.2137	0.3825	0.6861	-0.113
Mof_H 	H 	0.2154	0.4095	0.7056	0.036
Mof_C 	C 	0.2564	0.3723	0.6626	-0.103
Mof_H 	H 	0.2836	0.3882	0.6701	0.051
Mof_C 	C 	0.0808	0.477	0.6831	0.009
Mof_C 	C 	0.0584	0.4501	0.6471	-0.038
Mof_H 	H 	0.0602	0.4179	0.6456	0.012
Mof_C 	C 	0.0334	0.4769	0.6143	-0.027
Mof_H 	H 	0.0162	0.4615	0.5916	0.024
Mof_N 	N 	0.0394	0.3751	0.756	-0.299
Mof_N 	N 	0.1358	0.3992	0.8094	-0.287
Mof_N 	N 	0.1312	0.3529	0.7025	-0.314
Mof_N 	N 	0.1022	0.4607	0.7232	-0.291
Mof_C 	C 	0.1201	0.423	0.8437	-0.077
Mof_C 	C 	0.0744	0.4423	0.8534	0.042
Mof_H 	H 	0.0502	0.4418	0.832	-0.028
Mof_C 	C 	0.0703	0.4611	0.8962	-0.043
Mof_H 	H 	0.0422	0.4752	0.9034	0.032
Mof_H 	H 	0.0835	0.3025	0.6816	-0.043
Mof_C 	C 	0.2389	0.3877	0.6497	0.077
Mof_H 	H 	0.257	0.4142	0.6461	-0.008
Mof_C 	C 	0.1015	0.4747	0.6769	0.032
Mof_C 	C 	0.0957	0.4499	0.6353	-0.07
Mof_H 	H 	0.0949	0.4176	0.6348	0.029
Mof_C 	C 	0.0913	0.4762	0.5946	-0.024
Mof_H 	H 	0.0882	0.4607	0.5664	0.027
Mof_Zn	Zn	0.89571	0.60377	0.74803	1.176
Mof_C 	C 	0.9744	0.6644	0.7785	0.049
Mof_C 	C 	0.95	0.7009	0.8002	-0.112
Mof_H 	H 	0.9177	0.7014	0.8011	0.039
Mof_C 	C 	0.9753	0.7348	0.8197	-0.011
Mof_H 	H 	0.9598	0.7595	0.8338	0.027
Mof_C 	C 	0.8904	0.5929	0.8553	0.109
Mof_C 	C 	0.9368	0.588	0.8669	-0.165
Mof_H 	H 	0.96	0.5868	0.8444	0.073
Mof_C 	C 	0.9467	0.585	0.9133	0.007
Mof_H 	H 	0.9776	0.5829	0.9225	0.017
Mof_C 	C 	0.8262	0.6446	0.6803	0.04
Mof_C 	C 	0.7863	0.6175	0.6861	-0.113
Mof_H 	H 	0.7846	0.5905	0.7056	0.036
Mof_C 	C 	0.7436	0.6277	0.6626	-0.103
Mof_H 	H 	0.7164	0.6118	0.6701	0.051
Mof_C 	C 	0.9192	0.523	0.6831	0.01
Mof_C 	C 	0.9416	0.5499	0.6471	-0.037
Mof_H 	H 	0.9398	0.5821	0.6456	0.012
Mof_C 	C 	0.9666	0.5231	0.6143	-0.028
Mof_H 	H 	0.9838	0.5385	0.5916	0.027
Mof_N 	N 	0.9606	0.6249	0.756	-0.3
Mof_N 	N 	0.8642	0.6008	0.8094	-0.287
Mof_N 	N 	0.8688	0.6471	0.7025	-0.314
Mof_N 	N 	0.8978	0.5393	0.7232	-0.291
Mof_C 	C 	0.8799	0.577	0.8437	-0.077
Mof_C 	C 	0.9256	0.5577	0.8534	0.043
Mof_H 	H 	0.9498	0.5582	0.832	-0.028
Mof_C 	C 	0.9297	0.5389	0.8962	-0.044
Mof_H 	H 	0.9578	0.5248	0.9034	0.033
Mof_H 	H 	0.9165	0.6975	0.6816	-0.042
Mof_C 	C 	0.7611	0.6123	0.6497	0.077
Mof_H 	H 	0.743	0.5858	0.6461	-0.008
Mof_C 	C 	0.8985	0.5253	0.6769	0.031
Mof_C 	C 	0.9043	0.5501	0.6353	-0.071
Mof_H 	H 	0.9051	0.5824	0.6348	0.029
Mof_C 	C 	0.9087	0.5238	0.5946	-0.024
Mof_H 	H 	0.9118	0.5393	0.5664	0.027
Mof_Zn	Zn	0.10429	0.60377	0.25197	1.176
Mof_C 	C 	0.0256	0.6644	0.2215	0.039
Mof_C 	C 	0.05	0.7009	0.1998	-0.1
Mof_H 	H 	0.0823	0.7014	0.1989	0.035
Mof_C 	C 	0.0247	0.7348	0.1803	-0.029
Mof_H 	H 	0.0402	0.7595	0.1662	0.032
Mof_C 	C 	0.1096	0.5929	0.1447	0.108
Mof_C 	C 	0.0632	0.588	0.1331	-0.165
Mof_H 	H 	0.04	0.5868	0.1556	0.072
Mof_C 	C 	0.0533	0.585	0.0867	0.007
Mof_H 	H 	0.0224	0.5829	0.0775	0.015
Mof_C 	C 	0.1738	0.6446	0.3197	0.04
Mof_C 	C 	0.2137	0.6175	0.3139	-0.113
Mof_H 	H 	0.2154	0.5905	0.2944	0.036
Mof_C 	C 	0.2564	0.6277	0.3374	-0.103
Mof_H 	H 	0.2836	0.6118	0.3299	0.051
Mof_C 	C 	0.0808	0.523	0.3169	0.009
Mof_C 	C 	0.0584	0.5499	0.3529	-0.038
Mof_H 	H 	0.0602	0.5821	0.3544	0.012
Mof_C 	C 	0.0334	0.5231	0.3857	-0.027
Mof_H 	H 	0.0162	0.5385	0.4084	0.024
Mof_N 	N 	0.0394	0.6249	0.244	-0.299
Mof_N 	N 	0.1358	0.6008	0.1906	-0.287
Mof_N 	N 	0.1312	0.6471	0.2975	-0.314
Mof_N 	N 	0.1022	0.5393	0.2768	-0.291
Mof_C 	C 	0.1201	0.577	0.1563	-0.077
Mof_C 	C 	0.0744	0.5577	0.1466	0.043
Mof_H 	H 	0.0502	0.5582	0.168	-0.028
Mof_C 	C 	0.0703	0.5389	0.1038	-0.044
Mof_H 	H 	0.0422	0.5248	0.0966	0.032
Mof_H 	H 	0.0835	0.6975	0.3184	-0.043
Mof_C 	C 	0.2389	0.6123	0.3503	0.077
Mof_H 	H 	0.257	0.5858	0.3539	-0.008
Mof_C 	C 	0.1015	0.5253	0.3231	0.032
Mof_C 	C 	0.0957	0.5501	0.3647	-0.07
Mof_H 	H 	0.0949	0.5824	0.3652	0.029
Mof_C 	C 	0.0913	0.5238	0.4054	-0.024
Mof_H 	H 	0.0882	0.5393	0.4336	0.027
Mof_Zn	Zn	0.89571	0.39623	0.25197	1.176
Mof_C 	C 	0.9744	0.3356	0.2215	0.049
Mof_C 	C 	0.95	0.2991	0.1998	-0.112
Mof_H 	H 	0.9177	0.2986	0.1989	0.039
Mof_C 	C 	0.9753	0.2652	0.1803	-0.011
Mof_H 	H 	0.9598	0.2405	0.1662	0.027
Mof_C 	C 	0.8904	0.4071	0.1447	0.108
Mof_C 	C 	0.9368	0.412	0.1331	-0.166
Mof_H 	H 	0.96	0.4132	0.1556	0.073
Mof_C 	C 	0.9467	0.415	0.0867	0.008
Mof_H 	H 	0.9776	0.4171	0.0775	0.017
Mof_C 	C 	0.8262	0.3554	0.3197	0.04
Mof_C 	C 	0.7863	0.3825	0.3139	-0.113
Mof_H 	H 	0.7846	0.4095	0.2944	0.036
Mof_C 	C 	0.7436	0.3723	0.3374	-0.103
Mof_H 	H 	0.7164	0.3882	0.3299	0.051
Mof_C 	C 	0.9192	0.477	0.3169	0.01
Mof_C 	C 	0.9416	0.4501	0.3529	-0.037
Mof_H 	H 	0.9398	0.4179	0.3544	0.012
Mof_C 	C 	0.9666	0.4769	0.3857	-0.028
Mof_H 	H 	0.9838	0.4615	0.4084	0.027
Mof_N 	N 	0.9606	0.3751	0.244	-0.3
Mof_N 	N 	0.8642	0.3992	0.1906	-0.287
Mof_N 	N 	0.8688	0.3529	0.2975	-0.314
Mof_N 	N 	0.8978	0.4607	0.2768	-0.291
Mof_C 	C 	0.8799	0.423	0.1563	-0.077
Mof_C 	C 	0.9256	0.4423	0.1466	0.045
Mof_H 	H 	0.9498	0.4418	0.168	-0.028
Mof_C 	C 	0.9297	0.4611	0.1038	-0.046
Mof_H 	H 	0.9578	0.4752	0.0966	0.033
Mof_H 	H 	0.9165	0.3025	0.3184	-0.042
Mof_C 	C 	0.7611	0.3877	0.3503	0.077
Mof_H 	H 	0.743	0.4142	0.3539	-0.008
Mof_C 	C 	0.8985	0.4747	0.3231	0.031
Mof_C 	C 	0.9043	0.4499	0.3647	-0.071
Mof_H 	H 	0.9051	0.4176	0.3652	0.029
Mof_C 	C 	0.9087	0.4762	0.4054	-0.024
Mof_H 	H 	0.9118	0.4607	0.4336	0.027
Mof_Zn	Zn	0.39623	0.25197	0.89571	1.176
Mof_C 	C 	0.3356	0.2215	0.9744	0.049
Mof_C 	C 	0.2991	0.1998	0.95	-0.112
Mof_H 	H 	0.2986	0.1989	0.9177	0.039
Mof_C 	C 	0.2652	0.1803	0.9753	-0.011
Mof_H 	H 	0.2405	0.1662	0.9598	0.027
Mof_C 	C 	0.4071	0.1447	0.8904	0.108
Mof_C 	C 	0.412	0.1331	0.9368	-0.166
Mof_H 	H 	0.4132	0.1556	0.96	0.073
Mof_C 	C 	0.415	0.0867	0.9467	0.008
Mof_H 	H 	0.4171	0.0775	0.9776	0.017
Mof_C 	C 	0.3554	0.3197	0.8262	0.04
Mof_C 	C 	0.3825	0.3139	0.7863	-0.113
Mof_H 	H 	0.4095	0.2944	0.7846	0.036
Mof_C 	C 	0.3723	0.3374	0.7436	-0.103
Mof_H 	H 	0.3882	0.3299	0.7164	0.051
Mof_C 	C 	0.477	0.3169	0.9192	0.01
Mof_C 	C 	0.4501	0.3529	0.9416	-0.037
Mof_H 	H 	0.4179	0.3544	0.9398	0.012
Mof_C 	C 	0.4769	0.3857	0.9666	-0.028
Mof_H 	H 	0.4615	0.4084	0.9838	0.027
Mof_N 	N 	0.3751	0.244	0.9606	-0.3
Mof_N 	N 	0.3992	0.1906	0.8642	-0.287
Mof_N 	N 	0.3529	0.2975	0.8688	-0.314
Mof_N 	N 	0.4607	0.2768	0.8978	-0.291
Mof_C 	C 	0.423	0.1563	0.8799	-0.077
Mof_C 	C 	0.4423	0.1466	0.9256	0.045
Mof_H 	H 	0.4418	0.168	0.9498	-0.028
Mof_C 	C 	0.4611	0.1038	0.9297	-0.046
Mof_H 	H 	0.4752	0.0966	0.9578	0.033
Mof_H 	H 	0.3025	0.3184	0.9165	-0.042
Mof_C 	C 	0.3877	0.3503	0.7611	0.077
Mof_H 	H 	0.4142	0.3539	0.743	-0.008
Mof_C 	C 	0.4747	0.3231	0.8985	0.031
Mof_C 	C 	0.4499	0.3647	0.9043	-0.071
Mof_H 	H 	0.4176	0.3652	0.9051	0.029
Mof_C 	C 	0.4762	0.4054	0.9087	-0.024
Mof_H 	H 	0.4607	0.4336	0.9118	0.027
Mof_Zn	Zn	0.60377	0.25197	0.10429	1.176
Mof_C 	C 	0.6644	0.2215	0.0256	0.039
Mof_C 	C 	0.7009	0.1998	0.05	-0.1
Mof_H 	H 	0.7014	0.1989	0.0823	0.035
Mof_C 	C 	0.7348	0.1803	0.0247	-0.029
Mof_H 	H 	0.7595	0.1662	0.0402	0.032
Mof_C 	C 	0.5929	0.1447	0.1096	0.108
Mof_C 	C 	0.588	0.1331	0.0632	-0.165
Mof_H 	H 	0.5868	0.1556	0.04	0.072
Mof_C 	C 	0.585	0.0867	0.0533	0.007
Mof_H 	H 	0.5829	0.0775	0.0224	0.015
Mof_C 	C 	0.6446	0.3197	0.1738	0.04
Mof_C 	C 	0.6175	0.3139	0.2137	-0.113
Mof_H 	H 	0.5905	0.2944	0.2154	0.036
Mof_C 	C 	0.6277	0.3374	0.2564	-0.103
Mof_H 	H 	0.6118	0.3299	0.2836	0.051
Mof_C 	C 	0.523	0.3169	0.0808	0.009
Mof_C 	C 	0.5499	0.3529	0.0584	-0.038
Mof_H 	H 	0.5821	0.3544	0.0602	0.012
Mof_C 	C 	0.5231	0.3857	0.0334	-0.027
Mof_H 	H 	0.5385	0.4084	0.0162	0.024
Mof_N 	N 	0.6249	0.244	0.0394	-0.299
Mof_N 	N 	0.6008	0.1906	0.1358	-0.287
Mof_N 	N 	0.6471	0.2975	0.1312	-0.314
Mof_N 	N 	0.5393	0.2768	0.1022	-0.291
Mof_C 	C 	0.577	0.1563	0.1201	-0.077
Mof_C 	C 	0.5577	0.1466	0.0744	0.043
Mof_H 	H 	0.5582	0.168	0.0502	-0.028
Mof_C 	C 	0.5389	0.1038	0.0703	-0.044
Mof_H 	H 	0.5248	0.0966	0.0422	0.032
Mof_H 	H 	0.6975	0.3184	0.0835	-0.043
Mof_C 	C 	0.6123	0.3503	0.2389	0.077
Mof_H 	H 	0.5858	0.3539	0.257	-0.008
Mof_C 	C 	0.5253	0.3231	0.1015	0.032
Mof_C 	C 	0.5501	0.3647	0.0957	-0.07
Mof_H 	H 	0.5824	0.3652	0.0949	0.029
Mof_C 	C 	0.5238	0.4054	0.0913	-0.024
Mof_H 	H 	0.5393	0.4336	0.0882	0.027
Mof_Zn	Zn	0.60377	0.74803	0.89571	1.176
Mof_C 	C 	0.6644	0.7785	0.9744	0.049
Mof_C 	C 	0.7009	0.8002	0.95	-0.112
Mof_H 	H 	0.7014	0.8011	0.9177	0.039
Mof_C 	C 	0.7348	0.8197	0.9753	-0.011
Mof_H 	H 	0.7595	0.8338	0.9598	0.027
Mof_C 	C 	0.5929	0.8553	0.8904	0.109
Mof_C 	C 	0.588	0.8669	0.9368	-0.165
Mof_H 	H 	0.5868	0.8444	0.96	0.073
Mof_C 	C 	0.585	0.9133	0.9467	0.007
Mof_H 	H 	0.5829	0.9225	0.9776	0.017
Mof_C 	C 	0.6446	0.6803	0.8262	0.04
Mof_C 	C 	0.6175	0.6861	0.7863	-0.113
Mof_H 	H 	0.5905	0.7056	0.7846	0.036
Mof_C 	C 	0.6277	0.6626	0.7436	-0.103
Mof_H 	H 	0.6118	0.6701	0.7164	0.051
Mof_C 	C 	0.523	0.6831	0.9192	0.01
Mof_C 	C 	0.5499	0.6471	0.9416	-0.037
Mof_H 	H 	0.5821	0.6456	0.9398	0.012
Mof_C 	C 	0.5231	0.6143	0.9666	-0.028
Mof_H 	H 	0.5385	0.5916	0.9838	0.027
Mof_N 	N 	0.6249	0.756	0.9606	-0.3
Mof_N 	N 	0.6008	0.8094	0.8642	-0.287
Mof_N 	N 	0.6471	0.7025	0.8688	-0.314
Mof_N 	N 	0.5393	0.7232	0.8978	-0.291
Mof_C 	C 	0.577	0.8437	0.8799	-0.077
Mof_C 	C 	0.5577	0.8534	0.9256	0.043
Mof_H 	H 	0.5582	0.832	0.9498	-0.028
Mof_C 	C 	0.5389	0.8962	0.9297	-0.044
Mof_H 	H 	0.5248	0.9034	0.9578	0.033
Mof_H 	H 	0.6975	0.6816	0.9165	-0.042
Mof_C 	C 	0.6123	0.6497	0.7611	0.077
Mof_H 	H 	0.5858	0.6461	0.743	-0.008
Mof_C 	C 	0.5253	0.6769	0.8985	0.031
Mof_C 	C 	0.5501	0.6353	0.9043	-0.071
Mof_H 	H 	0.5824	0.6348	0.9051	0.029
Mof_C 	C 	0.5238	0.5946	0.9087	-0.024
Mof_H 	H 	0.5393	0.5664	0.9118	0.027
Mof_Zn	Zn	0.39623	0.74803	0.10429	1.176
Mof_C 	C 	0.3356	0.7785	0.0256	0.039
Mof_C 	C 	0.2991	0.8002	0.05	-0.1
Mof_H 	H 	0.2986	0.8011	0.0823	0.035
Mof_C 	C 	0.2652	0.8197	0.0247	-0.029
Mof_H 	H 	0.2405	0.8338	0.0402	0.032
Mof_C 	C 	0.4071	0.8553	0.1096	0.109
Mof_C 	C 	0.412	0.8669	0.0632	-0.165
Mof_H 	H 	0.4132	0.8444	0.04	0.072
Mof_C 	C 	0.415	0.9133	0.0533	0.007
Mof_H 	H 	0.4171	0.9225	0.0224	0.016
Mof_C 	C 	0.3554	0.6803	0.1738	0.04
Mof_C 	C 	0.3825	0.6861	0.2137	-0.113
Mof_H 	H 	0.4095	0.7056	0.2154	0.036
Mof_C 	C 	0.3723	0.6626	0.2564	-0.103
Mof_H 	H 	0.3882	0.6701	0.2836	0.051
Mof_C 	C 	0.477	0.6831	0.0808	0.009
Mof_C 	C 	0.4501	0.6471	0.0584	-0.038
Mof_H 	H 	0.4179	0.6456	0.0602	0.012
Mof_C 	C 	0.4769	0.6143	0.0334	-0.027
Mof_H 	H 	0.4615	0.5916	0.0162	0.024
Mof_N 	N 	0.3751	0.756	0.0394	-0.299
Mof_N 	N 	0.3992	0.8094	0.1358	-0.287
Mof_N 	N 	0.3529	0.7025	0.1312	-0.314
Mof_N 	N 	0.4607	0.7232	0.1022	-0.291
Mof_C 	C 	0.423	0.8437	0.1201	-0.077
Mof_C 	C 	0.4423	0.8534	0.0744	0.042
Mof_H 	H 	0.4418	0.832	0.0502	-0.028
Mof_C 	C 	0.4611	0.8962	0.0703	-0.043
Mof_H 	H 	0.4752	0.9034	0.0422	0.032
Mof_H 	H 	0.3025	0.6816	0.0835	-0.043
Mof_C 	C 	0.3877	0.6497	0.2389	0.077
Mof_H 	H 	0.4142	0.6461	0.257	-0.008
Mof_C 	C 	0.4747	0.6769	0.1015	0.032
Mof_C 	C 	0.4499	0.6353	0.0957	-0.07
Mof_H 	H 	0.4176	0.6348	0.0949	0.029
Mof_C 	C 	0.4762	0.5946	0.0913	-0.024
Mof_H 	H 	0.4607	0.5664	0.0882	0.027
Mof_Zn	Zn	0.25197	0.10429	0.60377	1.176
Mof_C 	C 	0.2215	0.0256	0.6644	0.039
Mof_C 	C 	0.1998	0.05	0.7009	-0.1
Mof_H 	H 	0.1989	0.0823	0.7014	0.035
Mof_C 	C 	0.1803	0.0247	0.7348	-0.029
Mof_H 	H 	0.1662	0.0402	0.7595	0.032
Mof_C 	C 	0.1447	0.1096	0.5929	0.108
Mof_C 	C 	0.1331	0.0632	0.588	-0.165
Mof_H 	H 	0.1556	0.04	0.5868	0.072
Mof_C 	C 	0.0867	0.0533	0.585	0.007
Mof_H 	H 	0.0775	0.0224	0.5829	0.015
Mof_C 	C 	0.3197	0.1738	0.6446	0.04
Mof_C 	C 	0.3139	0.2137	0.6175	-0.113
Mof_H 	H 	0.2944	0.2154	0.5905	0.036
Mof_C 	C 	0.3374	0.2564	0.6277	-0.103
Mof_H 	H 	0.3299	0.2836	0.6118	0.051
Mof_C 	C 	0.3169	0.0808	0.523	0.009
Mof_C 	C 	0.3529	0.0584	0.5499	-0.038
Mof_H 	H 	0.3544	0.0602	0.5821	0.012
Mof_C 	C 	0.3857	0.0334	0.5231	-0.027
Mof_H 	H 	0.4084	0.0162	0.5385	0.024
Mof_N 	N 	0.244	0.0394	0.6249	-0.299
Mof_N 	N 	0.1906	0.1358	0.6008	-0.287
Mof_N 	N 	0.2975	0.1312	0.6471	-0.314
Mof_N 	N 	0.2768	0.1022	0.5393	-0.291
Mof_C 	C 	0.1563	0.1201	0.577	-0.077
Mof_C 	C 	0.1466	0.0744	0.5577	0.043
Mof_H 	H 	0.168	0.0502	0.5582	-0.028
Mof_C 	C 	0.1038	0.0703	0.5389	-0.044
Mof_H 	H 	0.0966	0.0422	0.5248	0.032
Mof_H 	H 	0.3184	0.0835	0.6975	-0.043
Mof_C 	C 	0.3503	0.2389	0.6123	0.077
Mof_H 	H 	0.3539	0.257	0.5858	-0.008
Mof_C 	C 	0.3231	0.1015	0.5253	0.032
Mof_C 	C 	0.3647	0.0957	0.5501	-0.07
Mof_H 	H 	0.3652	0.0949	0.5824	0.029
Mof_C 	C 	0.4054	0.0913	0.5238	-0.024
Mof_H 	H 	0.4336	0.0882	0.5393	0.027
Mof_Zn	Zn	0.25197	0.89571	0.39623	1.176
Mof_C 	C 	0.2215	0.9744	0.3356	0.049
Mof_C 	C 	0.1998	0.95	0.2991	-0.112
Mof_H 	H 	0.1989	0.9177	0.2986	0.039
Mof_C 	C 	0.1803	0.9753	0.2652	-0.011
Mof_H 	H 	0.1662	0.9598	0.2405	0.027
Mof_C 	C 	0.1447	0.8904	0.4071	0.108
Mof_C 	C 	0.1331	0.9368	0.412	-0.166
Mof_H 	H 	0.1556	0.96	0.4132	0.073
Mof_C 	C 	0.0867	0.9467	0.415	0.008
Mof_H 	H 	0.0775	0.9776	0.4171	0.017
Mof_C 	C 	0.3197	0.8262	0.3554	0.04
Mof_C 	C 	0.3139	0.7863	0.3825	-0.113
Mof_H 	H 	0.2944	0.7846	0.4095	0.036
Mof_C 	C 	0.3374	0.7436	0.3723	-0.103
Mof_H 	H 	0.3299	0.7164	0.3882	0.051
Mof_C 	C 	0.3169	0.9192	0.477	0.01
Mof_C 	C 	0.3529	0.9416	0.4501	-0.037
Mof_H 	H 	0.3544	0.9398	0.4179	0.012
Mof_C 	C 	0.3857	0.9666	0.4769	-0.028
Mof_H 	H 	0.4084	0.9838	0.4615	0.027
Mof_N 	N 	0.244	0.9606	0.3751	-0.3
Mof_N 	N 	0.1906	0.8642	0.3992	-0.287
Mof_N 	N 	0.2975	0.8688	0.3529	-0.314
Mof_N 	N 	0.2768	0.8978	0.4607	-0.291
Mof_C 	C 	0.1563	0.8799	0.423	-0.077
Mof_C 	C 	0.1466	0.9256	0.4423	0.045
Mof_H 	H 	0.168	0.9498	0.4418	-0.028
Mof_C 	C 	0.1038	0.9297	0.4611	-0.046
Mof_H 	H 	0.0966	0.9578	0.4752	0.033
Mof_H 	H 	0.3184	0.9165	0.3025	-0.042
Mof_C 	C 	0.3503	0.7611	0.3877	0.077
Mof_H 	H 	0.3539	0.743	0.4142	-0.008
Mof_C 	C 	0.3231	0.8985	0.4747	0.031
Mof_C 	C 	0.3647	0.9043	0.4499	-0.071
Mof_H 	H 	0.3652	0.9051	0.4176	0.029
Mof_C 	C 	0.4054	0.9087	0.4762	-0.024
Mof_H 	H 	0.4336	0.9118	0.4607	0.027
Mof_Zn	Zn	0.74803	0.10429	0.39623	1.176
Mof_C 	C 	0.7785	0.0256	0.3356	0.039
Mof_C 	C 	0.8002	0.05	0.2991	-0.1
Mof_H 	H 	0.8011	0.0823	0.2986	0.035
Mof_C 	C 	0.8197	0.0247	0.2652	-0.029
Mof_H 	H 	0.8338	0.0402	0.2405	0.032
Mof_C 	C 	0.8553	0.1096	0.4071	0.109
Mof_C 	C 	0.8669	0.0632	0.412	-0.165
Mof_H 	H 	0.8444	0.04	0.4132	0.072
Mof_C 	C 	0.9133	0.0533	0.415	0.007
Mof_H 	H 	0.9225	0.0224	0.4171	0.016
Mof_C 	C 	0.6803	0.1738	0.3554	0.04
Mof_C 	C 	0.6861	0.2137	0.3825	-0.113
Mof_H 	H 	0.7056	0.2154	0.4095	0.036
Mof_C 	C 	0.6626	0.2564	0.3723	-0.103
Mof_H 	H 	0.6701	0.2836	0.3882	0.051
Mof_C 	C 	0.6831	0.0808	0.477	0.009
Mof_C 	C 	0.6471	0.0584	0.4501	-0.038
Mof_H 	H 	0.6456	0.0602	0.4179	0.012
Mof_C 	C 	0.6143	0.0334	0.4769	-0.027
Mof_H 	H 	0.5916	0.0162	0.4615	0.024
Mof_N 	N 	0.756	0.0394	0.3751	-0.299
Mof_N 	N 	0.8094	0.1358	0.3992	-0.287
Mof_N 	N 	0.7025	0.1312	0.3529	-0.314
Mof_N 	N 	0.7232	0.1022	0.4607	-0.291
Mof_C 	C 	0.8437	0.1201	0.423	-0.077
Mof_C 	C 	0.8534	0.0744	0.4423	0.042
Mof_H 	H 	0.832	0.0502	0.4418	-0.028
Mof_C 	C 	0.8962	0.0703	0.4611	-0.043
Mof_H 	H 	0.9034	0.0422	0.4752	0.032
Mof_H 	H 	0.6816	0.0835	0.3025	-0.043
Mof_C 	C 	0.6497	0.2389	0.3877	0.077
Mof_H 	H 	0.6461	0.257	0.4142	-0.008
Mof_C 	C 	0.6769	0.1015	0.4747	0.032
Mof_C 	C 	0.6353	0.0957	0.4499	-0.07
Mof_H 	H 	0.6348	0.0949	0.4176	0.029
Mof_C 	C 	0.5946	0.0913	0.4762	-0.024
Mof_H 	H 	0.5664	0.0882	0.4607	0.027
Mof_Zn	Zn	0.74803	0.89571	0.60377	1.176
Mof_C 	C 	0.7785	0.9744	0.6644	0.049
Mof_C 	C 	0.8002	0.95	0.7009	-0.112
Mof_H 	H 	0.8011	0.9177	0.7014	0.039
Mof_C 	C 	0.8197	0.9753	0.7348	-0.011
Mof_H 	H 	0.8338	0.9598	0.7595	0.027
Mof_C 	C 	0.8553	0.8904	0.5929	0.109
Mof_C 	C 	0.8669	0.9368	0.588	-0.165
Mof_H 	H 	0.8444	0.96	0.5868	0.073
Mof_C 	C 	0.9133	0.9467	0.585	0.007
Mof_H 	H 	0.9225	0.9776	0.5829	0.017
Mof_C 	C 	0.6803	0.8262	0.6446	0.04
Mof_C 	C 	0.6861	0.7863	0.6175	-0.113
Mof_H 	H 	0.7056	0.7846	0.5905	0.036
Mof_C 	C 	0.6626	0.7436	0.6277	-0.103
Mof_H 	H 	0.6701	0.7164	0.6118	0.051
Mof_C 	C 	0.6831	0.9192	0.523	0.01
Mof_C 	C 	0.6471	0.9416	0.5499	-0.037
Mof_H 	H 	0.6456	0.9398	0.5821	0.012
Mof_C 	C 	0.6143	0.9666	0.5231	-0.028
Mof_H 	H 	0.5916	0.9838	0.5385	0.027
Mof_N 	N 	0.756	0.9606	0.6249	-0.3
Mof_N 	N 	0.8094	0.8642	0.6008	-0.287
Mof_N 	N 	0.7025	0.8688	0.6471	-0.314
Mof_N 	N 	0.7232	0.8978	0.5393	-0.291
Mof_C 	C 	0.8437	0.8799	0.577	-0.077
Mof_C 	C 	0.8534	0.9256	0.5577	0.043
Mof_H 	H 	0.832	0.9498	0.5582	-0.028
Mof_C 	C 	0.8962	0.9297	0.5389	-0.044
Mof_H 	H 	0.9034	0.9578	0.5248	0.033
Mof_H 	H 	0.6816	0.9165	0.6975	-0.042
Mof_C 	C 	0.6497	0.7611	0.6123	0.077
Mof_H 	H 	0.6461	0.743	0.5858	-0.008
Mof_C 	C 	0.6769	0.8985	0.5253	0.031
Mof_C 	C 	0.6353	0.9043	0.5501	-0.071
Mof_H 	H 	0.6348	0.9051	0.5824	0.029
Mof_C 	C 	0.5946	0.9087	0.5238	-0.024
Mof_H 	H 	0.5664	0.9118	0.5393	0.027
Mof_Zn	Zn	0.60377	0.89571	0.74803	1.176
Mof_C 	C 	0.6644	0.9744	0.7785	0.049
Mof_C 	C 	0.7009	0.95	0.8002	-0.112
Mof_H 	H 	0.7014	0.9177	0.8011	0.039
Mof_C 	C 	0.7348	0.9753	0.8197	-0.011
Mof_H 	H 	0.7595	0.9598	0.8338	0.027
Mof_C 	C 	0.5929	0.8904	0.8553	0.109
Mof_C 	C 	0.588	0.9368	0.8669	-0.165
Mof_H 	H 	0.5868	0.96	0.8444	0.073
Mof_C 	C 	0.585	0.9467	0.9133	0.007
Mof_H 	H 	0.5829	0.9776	0.9225	0.017
Mof_C 	C 	0.6446	0.8262	0.6803	0.04
Mof_C 	C 	0.6175	0.7863	0.6861	-0.113
Mof_H 	H 	0.5905	0.7846	0.7056	0.036
Mof_C 	C 	0.6277	0.7436	0.6626	-0.103
Mof_H 	H 	0.6118	0.7164	0.6701	0.051
Mof_C 	C 	0.523	0.9192	0.6831	0.01
Mof_C 	C 	0.5499	0.9416	0.6471	-0.037
Mof_H 	H 	0.5821	0.9398	0.6456	0.012
Mof_C 	C 	0.5231	0.9666	0.6143	-0.028
Mof_H 	H 	0.5385	0.9838	0.5916	0.027
Mof_N 	N 	0.6249	0.9606	0.756	-0.3
Mof_N 	N 	0.6008	0.8642	0.8094	-0.287
Mof_N 	N 	0.6471	0.8688	0.7025	-0.314
Mof_N 	N 	0.5393	0.8978	0.7232	-0.291
Mof_C 	C 	0.577	0.8799	0.8437	-0.077
Mof_C 	C 	0.5577	0.9256	0.8534	0.043
Mof_H 	H 	0.5582	0.9498	0.832	-0.028
Mof_C 	C 	0.5389	0.9297	0.8962	-0.044
Mof_H 	H 	0.5248	0.9578	0.9034	0.033
Mof_H 	H 	0.6975	0.9165	0.6816	-0.042
Mof_C 	C 	0.6123	0.7611	0.6497	0.077
Mof_H 	H 	0.5858	0.743	0.6461	-0.008
Mof_C 	C 	0.5253	0.8985	0.6769	0.031
Mof_C 	C 	0.5501	0.9043	0.6353	-0.071
Mof_H 	H 	0.5824	0.9051	0.6348	0.029
Mof_C 	C 	0.5238	0.9087	0.5946	-0.024
Mof_H 	H 	0.5393	0.9118	0.5664	0.027
Mof_Zn	Zn	0.39623	0.10429	0.74803	1.176
Mof_C 	C 	0.3356	0.0256	0.7785	0.039
Mof_C 	C 	0.2991	0.05	0.8002	-0.1
Mof_H 	H 	0.2986	0.0823	0.8011	0.035
Mof_C 	C 	0.2652	0.0247	0.8197	-0.029
Mof_H 	H 	0.2405	0.0402	0.8338	0.032
Mof_C 	C 	0.4071	0.1096	0.8553	0.109
Mof_C 	C 	0.412	0.0632	0.8669	-0.165
Mof_H 	H 	0.4132	0.04	0.8444	0.072
Mof_C 	C 	0.415	0.0533	0.9133	0.007
Mof_H 	H 	0.4171	0.0224	0.9225	0.016
Mof_C 	C 	0.3554	0.1738	0.6803	0.04
Mof_C 	C 	0.3825	0.2137	0.6861	-0.113
Mof_H 	H 	0.4095	0.2154	0.7056	0.036
Mof_C 	C 	0.3723	0.2564	0.6626	-0.103
Mof_H 	H 	0.3882	0.2836	0.6701	0.051
Mof_C 	C 	0.477	0.0808	0.6831	0.009
Mof_C 	C 	0.4501	0.0584	0.6471	-0.038
Mof_H 	H 	0.4179	0.0602	0.6456	0.012
Mof_C 	C 	0.4769	0.0334	0.6143	-0.027
Mof_H 	H 	0.4615	0.0162	0.5916	0.024
Mof_N 	N 	0.3751	0.0394	0.756	-0.299
Mof_N 	N 	0.3992	0.1358	0.8094	-0.287
Mof_N 	N 	0.3529	0.1312	0.7025	-0.314
Mof_N 	N 	0.4607	0.1022	0.7232	-0.291
Mof_C 	C 	0.423	0.1201	0.8437	-0.077
Mof_C 	C 	0.4423	0.0744	0.8534	0.042
Mof_H 	H 	0.4418	0.0502	0.832	-0.028
Mof_C 	C 	0.4611	0.0703	0.8962	-0.043
Mof_H 	H 	0.4752	0.0422	0.9034	0.032
Mof_H 	H 	0.3025	0.0835	0.6816	-0.043
Mof_C 	C 	0.3877	0.2389	0.6497	0.077
Mof_H 	H 	0.4142	0.257	0.6461	-0.008
Mof_C 	C 	0.4747	0.1015	0.6769	0.032
Mof_C 	C 	0.4499	0.0957	0.6353	-0.07
Mof_H 	H 	0.4176	0.0949	0.6348	0.029
Mof_C 	C 	0.4762	0.0913	0.5946	-0.024
Mof_H 	H 	0.4607	0.0882	0.5664	0.027
Mof_Zn	Zn	0.39623	0.89571	0.25197	1.176
Mof_C 	C 	0.3356	0.9744	0.2215	0.049
Mof_C 	C 	0.2991	0.95	0.1998	-0.112
Mof_H 	H 	0.2986	0.9177	0.1989	0.039
Mof_C 	C 	0.2652	0.9753	0.1803	-0.011
Mof_H 	H 	0.2405	0.9598	0.1662	0.027
Mof_C 	C 	0.4071	0.8904	0.1447	0.108
Mof_C 	C 	0.412	0.9368	0.1331	-0.166
Mof_H 	H 	0.4132	0.96	0.1556	0.073
Mof_C 	C 	0.415	0.9467	0.0867	0.008
Mof_H 	H 	0.4171	0.9776	0.0775	0.017
Mof_C 	C 	0.3554	0.8262	0.3197	0.04
Mof_C 	C 	0.3825	0.7863	0.3139	-0.113
Mof_H 	H 	0.4095	0.7846	0.2944	0.036
Mof_C 	C 	0.3723	0.7436	0.3374	-0.103
Mof_H 	H 	0.3882	0.7164	0.3299	0.051
Mof_C 	C 	0.477	0.9192	0.3169	0.01
Mof_C 	C 	0.4501	0.9416	0.3529	-0.037
Mof_H 	H 	0.4179	0.9398	0.3544	0.012
Mof_C 	C 	0.4769	0.9666	0.3857	-0.028
Mof_H 	H 	0.4615	0.9838	0.4084	0.027
Mof_N 	N 	0.3751	0.9606	0.244	-0.3
Mof_N 	N 	0.3992	0.8642	0.1906	-0.287
Mof_N 	N 	0.3529	0.8688	0.2975	-0.314
Mof_N 	N 	0.4607	0.8978	0.2768	-0.291
Mof_C 	C 	0.423	0.8799	0.1563	-0.077
Mof_C 	C 	0.4423	0.9256	0.1466	0.045
Mof_H 	H 	0.4418	0.9498	0.168	-0.028
Mof_C 	C 	0.4611	0.9297	0.1038	-0.046
Mof_H 	H 	0.4752	0.9578	0.0966	0.033
Mof_H 	H 	0.3025	0.9165	0.3184	-0.042
Mof_C 	C 	0.3877	0.7611	0.3503	0.077
Mof_H 	H 	0.4142	0.743	0.3539	-0.008
Mof_C 	C 	0.4747	0.8985	0.3231	0.031
Mof_C 	C 	0.4499	0.9043	0.3647	-0.071
Mof_H 	H 	0.4176	0.9051	0.3652	0.029
Mof_C 	C 	0.4762	0.9087	0.4054	-0.024
Mof_H 	H 	0.4607	0.9118	0.4336	0.027
Mof_Zn	Zn	0.60377	0.10429	0.25197	1.176
Mof_C 	C 	0.6644	0.0256	0.2215	0.039
Mof_C 	C 	0.7009	0.05	0.1998	-0.1
Mof_H 	H 	0.7014	0.0823	0.1989	0.035
Mof_C 	C 	0.7348	0.0247	0.1803	-0.029
Mof_H 	H 	0.7595	0.0402	0.1662	0.032
Mof_C 	C 	0.5929	0.1096	0.1447	0.108
Mof_C 	C 	0.588	0.0632	0.1331	-0.165
Mof_H 	H 	0.5868	0.04	0.1556	0.072
Mof_C 	C 	0.585	0.0533	0.0867	0.007
Mof_H 	H 	0.5829	0.0224	0.0775	0.015
Mof_C 	C 	0.6446	0.1738	0.3197	0.04
Mof_C 	C 	0.6175	0.2137	0.3139	-0.113
Mof_H 	H 	0.5905	0.2154	0.2944	0.036
Mof_C 	C 	0.6277	0.2564	0.3374	-0.103
Mof_H 	H 	0.6118	0.2836	0.3299	0.051
Mof_C 	C 	0.523	0.0808	0.3169	0.009
Mof_C 	C 	0.5499	0.0584	0.3529	-0.038
Mof_H 	H 	0.5821	0.0602	0.3544	0.012
Mof_C 	C 	0.5231	0.0334	0.3857	-0.027
Mof_H 	H 	0.5385	0.0162	0.4084	0.024
Mof_N 	N 	0.6249	0.0394	0.244	-0.299
Mof_N 	N 	0.6008	0.1358	0.1906	-0.287
Mof_N 	N 	0.6471	0.1312	0.2975	-0.314
Mof_N 	N 	0.5393	0.1022	0.2768	-0.291
Mof_C 	C 	0.577	0.1201	0.1563	-0.077
Mof_C 	C 	0.5577	0.0744	0.1466	0.043
Mof_H 	H 	0.5582	0.0502	0.168	-0.028
Mof_C 	C 	0.5389	0.0703	0.1038	-0.044
Mof_H 	H 	0.5248	0.0422	0.0966	0.032
Mof_H 	H 	0.6975	0.0835	0.3184	-0.043
Mof_C 	C 	0.6123	0.2389	0.3503	0.077
Mof_H 	H 	0.5858	0.257	0.3539	-0.008
Mof_C 	C 	0.5253	0.1015	0.3231	0.032
Mof_C 	C 	0.5501	0.0957	0.3647	-0.07
Mof_H 	H 	0.5824	0.0949	0.3652	0.029
Mof_C 	C 	0.5238	0.0913	0.4054	-0.024
Mof_H 	H 	0.5393	0.0882	0.4336	0.027
Mof_Zn	Zn	0.74803	0.60377	0.89571	1.176
Mof_C 	C 	0.7785	0.6644	0.9744	0.049
Mof_C 	C 	0.8002	0.7009	0.95	-0.112
Mof_H 	H 	0.8011	0.7014	0.9177	0.039
Mof_C 	C 	0.8197	0.7348	0.9753	-0.011
Mof_H 	H 	0.8338	0.7595	0.9598	0.027
Mof_C 	C 	0.8553	0.5929	0.8904	0.109
Mof_C 	C 	0.8669	0.588	0.9368	-0.165
Mof_H 	H 	0.8444	0.5868	0.96	0.073
Mof_C 	C 	0.9133	0.585	0.9467	0.007
Mof_H 	H 	0.9225	0.5829	0.9776	0.017
Mof_C 	C 	0.6803	0.6446	0.8262	0.04
Mof_C 	C 	0.6861	0.6175	0.7863	-0.113
Mof_H 	H 	0.7056	0.5905	0.7846	0.036
Mof_C 	C 	0.6626	0.6277	0.7436	-0.103
Mof_H 	H 	0.6701	0.6118	0.7164	0.051
Mof_C 	C 	0.6831	0.523	0.9192	0.01
Mof_C 	C 	0.6471	0.5499	0.9416	-0.037
Mof_H 	H 	0.6456	0.5821	0.9398	0.012
Mof_C 	C 	0.6143	0.5231	0.9666	-0.028
Mof_H 	H 	0.5916	0.5385	0.9838	0.027
Mof_N 	N 	0.756	0.6249	0.9606	-0.3
Mof_N 	N 	0.8094	0.6008	0.8642	-0.287
Mof_N 	N 	0.7025	0.6471	0.8688	-0.314
Mof_N 	N 	0.7232	0.5393	0.8978	-0.291
Mof_C 	C 	0.8437	0.577	0.8799	-0.077
Mof_C 	C 	0.8534	0.5577	0.9256	0.043
Mof_H 	H 	0.832	0.5582	0.9498	-0.028
Mof_C 	C 	0.8962	0.5389	0.9297	-0.044
Mof_H 	H 	0.9034	0.5248	0.9578	0.033
Mof_H 	H 	0.6816	0.6975	0.9165	-0.042
Mof_C 	C 	0.6497	0.6123	0.7611	0.077
Mof_H 	H 	0.6461	0.5858	0.743	-0.008
Mof_C 	C 	0.6769	0.5253	0.8985	0.031
Mof_C 	C 	0.6353	0.5501	0.9043	-0.071
Mof_H 	H 	0.6348	0.5824	0.9051	0.029
Mof_C 	C 	0.5946	0.5238	0.9087	-0.024
Mof_H 	H 	0.5664	0.5393	0.9118	0.027
Mof_Zn	Zn	0.74803	0.39623	0.10429	1.176
Mof_C 	C 	0.7785	0.3356	0.0256	0.039
Mof_C 	C 	0.8002	0.2991	0.05	-0.1
Mof_H 	H 	0.8011	0.2986	0.0823	0.035
Mof_C 	C 	0.8197	0.2652	0.0247	-0.029
Mof_H 	H 	0.8338	0.2405	0.0402	0.032
Mof_C 	C 	0.8553	0.4071	0.1096	0.109
Mof_C 	C 	0.8669	0.412	0.0632	-0.165
Mof_H 	H 	0.8444	0.4132	0.04	0.072
Mof_C 	C 	0.9133	0.415	0.0533	0.007
Mof_H 	H 	0.9225	0.4171	0.0224	0.016
Mof_C 	C 	0.6803	0.3554	0.1738	0.04
Mof_C 	C 	0.6861	0.3825	0.2137	-0.113
Mof_H 	H 	0.7056	0.4095	0.2154	0.036
Mof_C 	C 	0.6626	0.3723	0.2564	-0.103
Mof_H 	H 	0.6701	0.3882	0.2836	0.051
Mof_C 	C 	0.6831	0.477	0.0808	0.009
Mof_C 	C 	0.6471	0.4501	0.0584	-0.038
Mof_H 	H 	0.6456	0.4179	0.0602	0.012
Mof_C 	C 	0.6143	0.4769	0.0334	-0.027
Mof_H 	H 	0.5916	0.4615	0.0162	0.024
Mof_N 	N 	0.756	0.3751	0.0394	-0.299
Mof_N 	N 	0.8094	0.3992	0.1358	-0.287
Mof_N 	N 	0.7025	0.3529	0.1312	-0.314
Mof_N 	N 	0.7232	0.4607	0.1022	-0.291
Mof_C 	C 	0.8437	0.423	0.1201	-0.077
Mof_C 	C 	0.8534	0.4423	0.0744	0.042
Mof_H 	H 	0.832	0.4418	0.0502	-0.028
Mof_C 	C 	0.8962	0.4611	0.0703	-0.043
Mof_H 	H 	0.9034	0.4752	0.0422	0.032
Mof_H 	H 	0.6816	0.3025	0.0835	-0.043
Mof_C 	C 	0.6497	0.3877	0.2389	0.077
Mof_H 	H 	0.6461	0.4142	0.257	-0.008
Mof_C 	C 	0.6769	0.4747	0.1015	0.032
Mof_C 	C 	0.6353	0.4499	0.0957	-0.07
Mof_H 	H 	0.6348	0.4176	0.0949	0.029
Mof_C 	C 	0.5946	0.4762	0.0913	-0.024
Mof_H 	H 	0.5664	0.4607	0.0882	0.027
Mof_Zn	Zn	0.25197	0.39623	0.89571	1.176
Mof_C 	C 	0.2215	0.3356	0.9744	0.049
Mof_C 	C 	0.1998	0.2991	0.95	-0.112
Mof_H 	H 	0.1989	0.2986	0.9177	0.039
Mof_C 	C 	0.1803	0.2652	0.9753	-0.011
Mof_H 	H 	0.1662	0.2405	0.9598	0.027
Mof_C 	C 	0.1447	0.4071	0.8904	0.108
Mof_C 	C 	0.1331	0.412	0.9368	-0.166
Mof_H 	H 	0.1556	0.4132	0.96	0.073
Mof_C 	C 	0.0867	0.415	0.9467	0.008
Mof_H 	H 	0.0775	0.4171	0.9776	0.017
Mof_C 	C 	0.3197	0.3554	0.8262	0.04
Mof_C 	C 	0.3139	0.3825	0.7863	-0.113
Mof_H 	H 	0.2944	0.4095	0.7846	0.036
Mof_C 	C 	0.3374	0.3723	0.7436	-0.103
Mof_H 	H 	0.3299	0.3882	0.7164	0.051
Mof_C 	C 	0.3169	0.477	0.9192	0.01
Mof_C 	C 	0.3529	0.4501	0.9416	-0.037
Mof_H 	H 	0.3544	0.4179	0.9398	0.012
Mof_C 	C 	0.3857	0.4769	0.9666	-0.028
Mof_H 	H 	0.4084	0.4615	0.9838	0.027
Mof_N 	N 	0.244	0.3751	0.9606	-0.3
Mof_N 	N 	0.1906	0.3992	0.8642	-0.287
Mof_N 	N 	0.2975	0.3529	0.8688	-0.314
Mof_N 	N 	0.2768	0.4607	0.8978	-0.291
Mof_C 	C 	0.1563	0.423	0.8799	-0.077
Mof_C 	C 	0.1466	0.4423	0.9256	0.045
Mof_H 	H 	0.168	0.4418	0.9498	-0.028
Mof_C 	C 	0.1038	0.4611	0.9297	-0.046
Mof_H 	H 	0.0966	0.4752	0.9578	0.033
Mof_H 	H 	0.3184	0.3025	0.9165	-0.042
Mof_C 	C 	0.3503	0.3877	0.7611	0.077
Mof_H 	H 	0.3539	0.4142	0.743	-0.008
Mof_C 	C 	0.3231	0.4747	0.8985	0.031
Mof_C 	C 	0.3647	0.4499	0.9043	-0.071
Mof_H 	H 	0.3652	0.4176	0.9051	0.029
Mof_C 	C 	0.4054	0.4762	0.9087	-0.024
Mof_H 	H 	0.4336	0.4607	0.9118	0.027
Mof_Zn	Zn	0.25197	0.60377	0.10429	1.176
Mof_C 	C 	0.2215	0.6644	0.0256	0.039
Mof_C 	C 	0.1998	0.7009	0.05	-0.1
Mof_H 	H 	0.1989	0.7014	0.0823	0.035
Mof_C 	C 	0.1803	0.7348	0.0247	-0.029
Mof_H 	H 	0.1662	0.7595	0.0402	0.032
Mof_C 	C 	0.1447	0.5929	0.1096	0.108
Mof_C 	C 	0.1331	0.588	0.0632	-0.165
Mof_H 	H 	0.1556	0.5868	0.04	0.072
Mof_C 	C 	0.0867	0.585	0.0533	0.007
Mof_H 	H 	0.0775	0.5829	0.0224	0.015
Mof_C 	C 	0.3197	0.6446	0.1738	0.04
Mof_C 	C 	0.3139	0.6175	0.2137	-0.113
Mof_H 	H 	0.2944	0.5905	0.2154	0.036
Mof_C 	C 	0.3374	0.6277	0.2564	-0.103
Mof_H 	H 	0.3299	0.6118	0.2836	0.051
Mof_C 	C 	0.3169	0.523	0.0808	0.009
Mof_C 	C 	0.3529	0.5499	0.0584	-0.038
Mof_H 	H 	0.3544	0.5821	0.0602	0.012
Mof_C 	C 	0.3857	0.5231	0.0334	-0.027
Mof_H 	H 	0.4084	0.5385	0.0162	0.024
Mof_N 	N 	0.244	0.6249	0.0394	-0.299
Mof_N 	N 	0.1906	0.6008	0.1358	-0.287
Mof_N 	N 	0.2975	0.6471	0.1312	-0.314
Mof_N 	N 	0.2768	0.5393	0.1022	-0.291
Mof_C 	C 	0.1563	0.577	0.1201	-0.077
Mof_C 	C 	0.1466	0.5577	0.0744	0.043
Mof_H 	H 	0.168	0.5582	0.0502	-0.028
Mof_C 	C 	0.1038	0.5389	0.0703	-0.044
Mof_H 	H 	0.0966	0.5248	0.0422	0.032
Mof_H 	H 	0.3184	0.6975	0.0835	-0.043
Mof_C 	C 	0.3503	0.6123	0.2389	0.077
Mof_H 	H 	0.3539	0.5858	0.257	-0.008
Mof_C 	C 	0.3231	0.5253	0.1015	0.032
Mof_C 	C 	0.3647	0.5501	0.0957	-0.07
Mof_H 	H 	0.3652	0.5824	0.0949	0.029
Mof_C 	C 	0.4054	0.5238	0.0913	-0.024
Mof_H 	H 	0.4336	0.5393	0.0882	0.027
Mof_Zn	Zn	0.89571	0.74803	0.60377	1.176
Mof_C 	C 	0.9744	0.7785	0.6644	0.049
Mof_C 	C 	0.95	0.8002	0.7009	-0.112
Mof_H 	H 	0.9177	0.8011	0.7014	0.039
Mof_C 	C 	0.9753	0.8197	0.7348	-0.011
Mof_H 	H 	0.9598	0.8338	0.7595	0.027
Mof_C 	C 	0.8904	0.8553	0.5929	0.109
Mof_C 	C 	0.9368	0.8669	0.588	-0.165
Mof_H 	H 	0.96	0.8444	0.5868	0.073
Mof_C 	C 	0.9467	0.9133	0.585	0.007
Mof_H 	H 	0.9776	0.9225	0.5829	0.017
Mof_C 	C 	0.8262	0.6803	0.6446	0.04
Mof_C 	C 	0.7863	0.6861	0.6175	-0.113
Mof_H 	H 	0.7846	0.7056	0.5905	0.036
Mof_C 	C 	0.7436	0.6626	0.6277	-0.103
Mof_H 	H 	0.7164	0.6701	0.6118	0.051
Mof_C 	C 	0.9192	0.6831	0.523	0.01
Mof_C 	C 	0.9416	0.6471	0.5499	-0.037
Mof_H 	H 	0.9398	0.6456	0.5821	0.012
Mof_C 	C 	0.9666	0.6143	0.5231	-0.028
Mof_H 	H 	0.9838	0.5916	0.5385	0.027
Mof_N 	N 	0.9606	0.756	0.6249	-0.3
Mof_N 	N 	0.8642	0.8094	0.6008	-0.287
Mof_N 	N 	0.8688	0.7025	0.6471	-0.314
Mof_N 	N 	0.8978	0.7232	0.5393	-0.291
Mof_C 	C 	0.8799	0.8437	0.577	-0.077
Mof_C 	C 	0.9256	0.8534	0.5577	0.043
Mof_H 	H 	0.9498	0.832	0.5582	-0.028
Mof_C 	C 	0.9297	0.8962	0.5389	-0.044
Mof_H 	H 	0.9578	0.9034	0.5248	0.033
Mof_H 	H 	0.9165	0.6816	0.6975	-0.042
Mof_C 	C 	0.7611	0.6497	0.6123	0.077
Mof_H 	H 	0.743	0.6461	0.5858	-0.008
Mof_C 	C 	0.8985	0.6769	0.5253	0.031
Mof_C 	C 	0.9043	0.6353	0.5501	-0.071
Mof_H 	H 	0.9051	0.6348	0.5824	0.029
Mof_C 	C 	0.9087	0.5946	0.5238	-0.024
Mof_H 	H 	0.9118	0.5664	0.5393	0.027
Mof_Zn	Zn	0.10429	0.74803	0.39623	1.176
Mof_C 	C 	0.0256	0.7785	0.3356	0.039
Mof_C 	C 	0.05	0.8002	0.2991	-0.1
Mof_H 	H 	0.0823	0.8011	0.2986	0.035
Mof_C 	C 	0.0247	0.8197	0.2652	-0.029
Mof_H 	H 	0.0402	0.8338	0.2405	0.032
Mof_C 	C 	0.1096	0.8553	0.4071	0.109
Mof_C 	C 	0.0632	0.8669	0.412	-0.165
Mof_H 	H 	0.04	0.8444	0.4132	0.072
Mof_C 	C 	0.0533	0.9133	0.415	0.007
Mof_H 	H 	0.0224	0.9225	0.4171	0.016
Mof_C 	C 	0.1738	0.6803	0.3554	0.04
Mof_C 	C 	0.2137	0.6861	0.3825	-0.113
Mof_H 	H 	0.2154	0.7056	0.4095	0.036
Mof_C 	C 	0.2564	0.6626	0.3723	-0.103
Mof_H 	H 	0.2836	0.6701	0.3882	0.051
Mof_C 	C 	0.0808	0.6831	0.477	0.009
Mof_C 	C 	0.0584	0.6471	0.4501	-0.038
Mof_H 	H 	0.0602	0.6456	0.4179	0.012
Mof_C 	C 	0.0334	0.6143	0.4769	-0.027
Mof_H 	H 	0.0162	0.5916	0.4615	0.024
Mof_N 	N 	0.0394	0.756	0.3751	-0.299
Mof_N 	N 	0.1358	0.8094	0.3992	-0.287
Mof_N 	N 	0.1312	0.7025	0.3529	-0.314
Mof_N 	N 	0.1022	0.7232	0.4607	-0.291
Mof_C 	C 	0.1201	0.8437	0.423	-0.077
Mof_C 	C 	0.0744	0.8534	0.4423	0.042
Mof_H 	H 	0.0502	0.832	0.4418	-0.028
Mof_C 	C 	0.0703	0.8962	0.4611	-0.043
Mof_H 	H 	0.0422	0.9034	0.4752	0.032
Mof_H 	H 	0.0835	0.6816	0.3025	-0.043
Mof_C 	C 	0.2389	0.6497	0.3877	0.077
Mof_H 	H 	0.257	0.6461	0.4142	-0.008
Mof_C 	C 	0.1015	0.6769	0.4747	0.032
Mof_C 	C 	0.0957	0.6353	0.4499	-0.07
Mof_H 	H 	0.0949	0.6348	0.4176	0.029
Mof_C 	C 	0.0913	0.5946	0.4762	-0.024
Mof_H 	H 	0.0882	0.5664	0.4607	0.027
Mof_Zn	Zn	0.89571	0.25197	0.39623	1.176
Mof_C 	C 	0.9744	0.2215	0.3356	0.049
Mof_C 	C 	0.95	0.1998	0.2991	-0.112
Mof_H 	H 	0.9177	0.1989	0.2986	0.039
Mof_C 	C 	0.9753	0.1803	0.2652	-0.011
Mof_H 	H 	0.9598	0.1662	0.2405	0.027
Mof_C 	C 	0.8904	0.1447	0.4071	0.108
Mof_C 	C 	0.9368	0.1331	0.412	-0.166
Mof_H 	H 	0.96	0.1556	0.4132	0.073
Mof_C 	C 	0.9467	0.0867	0.415	0.008
Mof_H 	H 	0.9776	0.0775	0.4171	0.017
Mof_C 	C 	0.8262	0.3197	0.3554	0.04
Mof_C 	C 	0.7863	0.3139	0.3825	-0.113
Mof_H 	H 	0.7846	0.2944	0.4095	0.036
Mof_C 	C 	0.7436	0.3374	0.3723	-0.103
Mof_H 	H 	0.7164	0.3299	0.3882	0.051
Mof_C 	C 	0.9192	0.3169	0.477	0.01
Mof_C 	C 	0.9416	0.3529	0.4501	-0.037
Mof_H 	H 	0.9398	0.3544	0.4179	0.012
Mof_C 	C 	0.9666	0.3857	0.4769	-0.028
Mof_H 	H 	0.9838	0.4084	0.4615	0.027
Mof_N 	N 	0.9606	0.244	0.3751	-0.3
Mof_N 	N 	0.8642	0.1906	0.3992	-0.287
Mof_N 	N 	0.8688	0.2975	0.3529	-0.314
Mof_N 	N 	0.8978	0.2768	0.4607	-0.291
Mof_C 	C 	0.8799	0.1563	0.423	-0.077
Mof_C 	C 	0.9256	0.1466	0.4423	0.045
Mof_H 	H 	0.9498	0.168	0.4418	-0.028
Mof_C 	C 	0.9297	0.1038	0.4611	-0.046
Mof_H 	H 	0.9578	0.0966	0.4752	0.033
Mof_H 	H 	0.9165	0.3184	0.3025	-0.042
Mof_C 	C 	0.7611	0.3503	0.3877	0.077
Mof_H 	H 	0.743	0.3539	0.4142	-0.008
Mof_C 	C 	0.8985	0.3231	0.4747	0.031
Mof_C 	C 	0.9043	0.3647	0.4499	-0.071
Mof_H 	H 	0.9051	0.3652	0.4176	0.029
Mof_C 	C 	0.9087	0.4054	0.4762	-0.024
Mof_H 	H 	0.9118	0.4336	0.4607	0.027
Mof_Zn	Zn	0.10429	0.25197	0.60377	1.176
Mof_C 	C 	0.0256	0.2215	0.6644	0.039
Mof_C 	C 	0.05	0.1998	0.7009	-0.1
Mof_H 	H 	0.0823	0.1989	0.7014	0.035
Mof_C 	C 	0.0247	0.1803	0.7348	-0.029
Mof_H 	H 	0.0402	0.1662	0.7595	0.032
Mof_C 	C 	0.1096	0.1447	0.5929	0.108
Mof_C 	C 	0.0632	0.1331	0.588	-0.165
Mof_H 	H 	0.04	0.1556	0.5868	0.072
Mof_C 	C 	0.0533	0.0867	0.585	0.007
Mof_H 	H 	0.0224	0.0775	0.5829	0.015
Mof_C 	C 	0.1738	0.3197	0.6446	0.04
Mof_C 	C 	0.2137	0.3139	0.6175	-0.113
Mof_H 	H 	0.2154	0.2944	0.5905	0.036
Mof_C 	C 	0.2564	0.3374	0.6277	-0.103
Mof_H 	H 	0.2836	0.3299	0.6118	0.051
Mof_C 	C 	0.0808	0.3169	0.523	0.009
Mof_C 	C 	0.0584	0.3529	0.5499	-0.038
Mof_H 	H 	0.0602	0.3544	0.5821	0.012
Mof_C 	C 	0.0334	0.3857	0.5231	-0.027
Mof_H 	H 	0.0162	0.4084	0.5385	0.024
Mof_N 	N 	0.0394	0.244	0.6249	-0.299
Mof_N 	N 	0.1358	0.1906	0.6008	-0.287
Mof_N 	N 	0.1312	0.2975	0.6471	-0.314
Mof_N 	N 	0.1022	0.2768	0.5393	-0.291
Mof_C 	C 	0.1201	0.1563	0.577	-0.077
Mof_C 	C 	0.0744	0.1466	0.5577	0.043
Mof_H 	H 	0.0502	0.168	0.5582	-0.028
Mof_C 	C 	0.0703	0.1038	0.5389	-0.044
Mof_H 	H 	0.0422	0.0966	0.5248	0.032
Mof_H 	H 	0.0835	0.3184	0.6975	-0.043
Mof_C 	C 	0.2389	0.3503	0.6123	0.077
Mof_H 	H 	0.257	0.3539	0.5858	-0.008
Mof_C 	C 	0.1015	0.3231	0.5253	0.032
Mof_C 	C 	0.0957	0.3647	0.5501	-0.07
Mof_H 	H 	0.0949	0.3652	0.5824	0.029
Mof_C 	C 	0.0913	0.4054	0.5238	-0.024
Mof_H 	H 	0.0882	0.4336	0.5393	0.027
Mof_Zn	Zn	0.89571	0.60377	0.25197	1.176
Mof_C 	C 	0.9744	0.6644	0.2215	0.049
Mof_C 	C 	0.95	0.7009	0.1998	-0.112
Mof_H 	H 	0.9177	0.7014	0.1989	0.039
Mof_C 	C 	0.9753	0.7348	0.1803	-0.011
Mof_H 	H 	0.9598	0.7595	0.1662	0.027
Mof_C 	C 	0.8904	0.5929	0.1447	0.108
Mof_C 	C 	0.9368	0.588	0.1331	-0.166
Mof_H 	H 	0.96	0.5868	0.1556	0.073
Mof_C 	C 	0.9467	0.585	0.0867	0.008
Mof_H 	H 	0.9776	0.5829	0.0775	0.017
Mof_C 	C 	0.8262	0.6446	0.3197	0.04
Mof_C 	C 	0.7863	0.6175	0.3139	-0.113
Mof_H 	H 	0.7846	0.5905	0.2944	0.036
Mof_C 	C 	0.7436	0.6277	0.3374	-0.103
Mof_H 	H 	0.7164	0.6118	0.3299	0.051
Mof_C 	C 	0.9192	0.523	0.3169	0.01
Mof_C 	C 	0.9416	0.5499	0.3529	-0.037
Mof_H 	H 	0.9398	0.5821	0.3544	0.012
Mof_C 	C 	0.9666	0.5231	0.3857	-0.028
Mof_H 	H 	0.9838	0.5385	0.4084	0.027
Mof_N 	N 	0.9606	0.6249	0.244	-0.3
Mof_N 	N 	0.8642	0.6008	0.1906	-0.287
Mof_N 	N 	0.8688	0.6471	0.2975	-0.314
Mof_N 	N 	0.8978	0.5393	0.2768	-0.291
Mof_C 	C 	0.8799	0.577	0.1563	-0.077
Mof_C 	C 	0.9256	0.5577	0.1466	0.045
Mof_H 	H 	0.9498	0.5582	0.168	-0.028
Mof_C 	C 	0.9297	0.5389	0.1038	-0.046
Mof_H 	H 	0.9578	0.5248	0.0966	0.033
Mof_H 	H 	0.9165	0.6975	0.3184	-0.042
Mof_C 	C 	0.7611	0.6123	0.3503	0.077
Mof_H 	H 	0.743	0.5858	0.3539	-0.008
Mof_C 	C 	0.8985	0.5253	0.3231	0.031
Mof_C 	C 	0.9043	0.5501	0.3647	-0.071
Mof_H 	H 	0.9051	0.5824	0.3652	0.029
Mof_C 	C 	0.9087	0.5238	0.4054	-0.024
Mof_H 	H 	0.9118	0.5393	0.4336	0.027
Mof_Zn	Zn	0.10429	0.39623	0.25197	1.176
Mof_C 	C 	0.0256	0.3356	0.2215	0.039
Mof_C 	C 	0.05	0.2991	0.1998	-0.1
Mof_H 	H 	0.0823	0.2986	0.1989	0.035
Mof_C 	C 	0.0247	0.2652	0.1803	-0.029
Mof_H 	H 	0.0402	0.2405	0.1662	0.032
Mof_C 	C 	0.1096	0.4071	0.1447	0.108
Mof_C 	C 	0.0632	0.412	0.1331	-0.165
Mof_H 	H 	0.04	0.4132	0.1556	0.072
Mof_C 	C 	0.0533	0.415	0.0867	0.007
Mof_H 	H 	0.0224	0.4171	0.0775	0.015
Mof_C 	C 	0.1738	0.3554	0.3197	0.04
Mof_C 	C 	0.2137	0.3825	0.3139	-0.113
Mof_H 	H 	0.2154	0.4095	0.2944	0.036
Mof_C 	C 	0.2564	0.3723	0.3374	-0.103
Mof_H 	H 	0.2836	0.3882	0.3299	0.051
Mof_C 	C 	0.0808	0.477	0.3169	0.009
Mof_C 	C 	0.0584	0.4501	0.3529	-0.038
Mof_H 	H 	0.0602	0.4179	0.3544	0.012
Mof_C 	C 	0.0334	0.4769	0.3857	-0.027
Mof_H 	H 	0.0162	0.4615	0.4084	0.024
Mof_N 	N 	0.0394	0.3751	0.244	-0.299
Mof_N 	N 	0.1358	0.3992	0.1906	-0.287
Mof_N 	N 	0.1312	0.3529	0.2975	-0.314
Mof_N 	N 	0.1022	0.4607	0.2768	-0.291
Mof_C 	C 	0.1201	0.423	0.1563	-0.077
Mof_C 	C 	0.0744	0.4423	0.1466	0.044
Mof_H 	H 	0.0502	0.4418	0.168	-0.028
Mof_C 	C 	0.0703	0.4611	0.1038	-0.044
Mof_H 	H 	0.0422	0.4752	0.0966	0.032
Mof_H 	H 	0.0835	0.3025	0.3184	-0.043
Mof_C 	C 	0.2389	0.3877	0.3503	0.077
Mof_H 	H 	0.257	0.4142	0.3539	-0.008
Mof_C 	C 	0.1015	0.4747	0.3231	0.032
Mof_C 	C 	0.0957	0.4499	0.3647	-0.07
Mof_H 	H 	0.0949	0.4176	0.3652	0.029
Mof_C 	C 	0.0913	0.4762	0.4054	-0.024
Mof_H 	H 	0.0882	0.4607	0.4336	0.027
Mof_Zn	Zn	0.89571	0.39623	0.74803	1.176
Mof_C 	C 	0.9744	0.3356	0.7785	0.049
Mof_C 	C 	0.95	0.2991	0.8002	-0.112
Mof_H 	H 	0.9177	0.2986	0.8011	0.039
Mof_C 	C 	0.9753	0.2652	0.8197	-0.011
Mof_H 	H 	0.9598	0.2405	0.8338	0.027
Mof_C 	C 	0.8904	0.4071	0.8553	0.109
Mof_C 	C 	0.9368	0.412	0.8669	-0.165
Mof_H 	H 	0.96	0.4132	0.8444	0.073
Mof_C 	C 	0.9467	0.415	0.9133	0.007
Mof_H 	H 	0.9776	0.4171	0.9225	0.017
Mof_C 	C 	0.8262	0.3554	0.6803	0.04
Mof_C 	C 	0.7863	0.3825	0.6861	-0.113
Mof_H 	H 	0.7846	0.4095	0.7056	0.036
Mof_C 	C 	0.7436	0.3723	0.6626	-0.103
Mof_H 	H 	0.7164	0.3882	0.6701	0.051
Mof_C 	C 	0.9192	0.477	0.6831	0.01
Mof_C 	C 	0.9416	0.4501	0.6471	-0.037
Mof_H 	H 	0.9398	0.4179	0.6456	0.012
Mof_C 	C 	0.9666	0.4769	0.6143	-0.028
Mof_H 	H 	0.9838	0.4615	0.5916	0.027
Mof_N 	N 	0.9606	0.3751	0.756	-0.3
Mof_N 	N 	0.8642	0.3992	0.8094	-0.287
Mof_N 	N 	0.8688	0.3529	0.7025	-0.314
Mof_N 	N 	0.8978	0.4607	0.7232	-0.291
Mof_C 	C 	0.8799	0.423	0.8437	-0.077
Mof_C 	C 	0.9256	0.4423	0.8534	0.043
Mof_H 	H 	0.9498	0.4418	0.832	-0.028
Mof_C 	C 	0.9297	0.4611	0.8962	-0.044
Mof_H 	H 	0.9578	0.4752	0.9034	0.033
Mof_H 	H 	0.9165	0.3025	0.6816	-0.042
Mof_C 	C 	0.7611	0.3877	0.6497	0.077
Mof_H 	H 	0.743	0.4142	0.6461	-0.008
Mof_C 	C 	0.8985	0.4747	0.6769	0.031
Mof_C 	C 	0.9043	0.4499	0.6353	-0.071
Mof_H 	H 	0.9051	0.4176	0.6348	0.029
Mof_C 	C 	0.9087	0.4762	0.5946	-0.024
Mof_H 	H 	0.9118	0.4607	0.5664	0.027
Mof_Zn	Zn	0.10429	0.60377	0.74803	1.176
Mof_C 	C 	0.0256	0.6644	0.7785	0.039
Mof_C 	C 	0.05	0.7009	0.8002	-0.1
Mof_H 	H 	0.0823	0.7014	0.8011	0.035
Mof_C 	C 	0.0247	0.7348	0.8197	-0.029
Mof_H 	H 	0.0402	0.7595	0.8338	0.033
Mof_C 	C 	0.1096	0.5929	0.8553	0.109
Mof_C 	C 	0.0632	0.588	0.8669	-0.165
Mof_H 	H 	0.04	0.5868	0.8444	0.072
Mof_C 	C 	0.0533	0.585	0.9133	0.007
Mof_H 	H 	0.0224	0.5829	0.9225	0.016
Mof_C 	C 	0.1738	0.6446	0.6803	0.04
Mof_C 	C 	0.2137	0.6175	0.6861	-0.113
Mof_H 	H 	0.2154	0.5905	0.7056	0.036
Mof_C 	C 	0.2564	0.6277	0.6626	-0.103
Mof_H 	H 	0.2836	0.6118	0.6701	0.051
Mof_C 	C 	0.0808	0.523	0.6831	0.009
Mof_C 	C 	0.0584	0.5499	0.6471	-0.038
Mof_H 	H 	0.0602	0.5821	0.6456	0.012
Mof_C 	C 	0.0334	0.5231	0.6143	-0.027
Mof_H 	H 	0.0162	0.5385	0.5916	0.024
Mof_N 	N 	0.0394	0.6249	0.756	-0.299
Mof_N 	N 	0.1358	0.6008	0.8094	-0.287
Mof_N 	N 	0.1312	0.6471	0.7025	-0.314
Mof_N 	N 	0.1022	0.5393	0.7232	-0.291
Mof_C 	C 	0.1201	0.577	0.8437	-0.077
Mof_C 	C 	0.0744	0.5577	0.8534	0.042
Mof_H 	H 	0.0502	0.5582	0.832	-0.028
Mof_C 	C 	0.0703	0.5389	0.8962	-0.043
Mof_H 	H 	0.0422	0.5248	0.9034	0.032
Mof_H 	H 	0.0835	0.6975	0.6816	-0.043
Mof_C 	C 	0.2389	0.6123	0.6497	0.077
Mof_H 	H 	0.257	0.5858	0.6461	-0.008
Mof_C 	C 	0.1015	0.5253	0.6769	0.032
Mof_C 	C 	0.0957	0.5501	0.6353	-0.07
Mof_H 	H 	0.0949	0.5824	0.6348	0.029
Mof_C 	C 	0.0913	0.5238	0.5946	-0.024
Mof_H 	H 	0.0882	0.5393	0.5664	0.027
Mof_Zn	Zn	0.60377	0.74803	0.10429	1.176
Mof_C 	C 	0.6644	0.7785	0.0256	0.039
Mof_C 	C 	0.7009	0.8002	0.05	-0.1
Mof_H 	H 	0.7014	0.8011	0.0823	0.035
Mof_C 	C 	0.7348	0.8197	0.0247	-0.029
Mof_H 	H 	0.7595	0.8338	0.0402	0.033
Mof_C 	C 	0.5929	0.8553	0.1096	0.109
Mof_C 	C 	0.588	0.8669	0.0632	-0.165
Mof_H 	H 	0.5868	0.8444	0.04	0.072
Mof_C 	C 	0.585	0.9133	0.0533	0.007
Mof_H 	H 	0.5829	0.9225	0.0224	0.016
Mof_C 	C 	0.6446	0.6803	0.1738	0.04
Mof_C 	C 	0.6175	0.6861	0.2137	-0.113
Mof_H 	H 	0.5905	0.7056	0.2154	0.036
Mof_C 	C 	0.6277	0.6626	0.2564	-0.103
Mof_H 	H 	0.6118	0.6701	0.2836	0.051
Mof_C 	C 	0.523	0.6831	0.0808	0.009
Mof_C 	C 	0.5499	0.6471	0.0584	-0.038
Mof_H 	H 	0.5821	0.6456	0.0602	0.012
Mof_C 	C 	0.5231	0.6143	0.0334	-0.027
Mof_H 	H 	0.5385	0.5916	0.0162	0.024
Mof_N 	N 	0.6249	0.756	0.0394	-0.299
Mof_N 	N 	0.6008	0.8094	0.1358	-0.287
Mof_N 	N 	0.6471	0.7025	0.1312	-0.314
Mof_N 	N 	0.5393	0.7232	0.1022	-0.291
Mof_C 	C 	0.577	0.8437	0.1201	-0.077
Mof_C 	C 	0.5577	0.8534	0.0744	0.042
Mof_H 	H 	0.5582	0.832	0.0502	-0.028
Mof_C 	C 	0.5389	0.8962	0.0703	-0.043
Mof_H 	H 	0.5248	0.9034	0.0422	0.032
Mof_H 	H 	0.6975	0.6816	0.0835	-0.043
Mof_C 	C 	0.6123	0.6497	0.2389	0.077
Mof_H 	H 	0.5858	0.6461	0.257	-0.008
Mof_C 	C 	0.5253	0.6769	0.1015	0.032
Mof_C 	C 	0.5501	0.6353	0.0957	-0.07
Mof_H 	H 	0.5824	0.6348	0.0949	0.029
Mof_C 	C 	0.5238	0.5946	0.0913	-0.024
Mof_H 	H 	0.5393	0.5664	0.0882	0.027
Mof_Zn	Zn	0.39623	0.74803	0.89571	1.176
Mof_C 	C 	0.3356	0.7785	0.9744	0.049
Mof_C 	C 	0.2991	0.8002	0.95	-0.112
Mof_H 	H 	0.2986	0.8011	0.9177	0.039
Mof_C 	C 	0.2652	0.8197	0.9753	-0.011
Mof_H 	H 	0.2405	0.8338	0.9598	0.027
Mof_C 	C 	0.4071	0.8553	0.8904	0.109
Mof_C 	C 	0.412	0.8669	0.9368	-0.165
Mof_H 	H 	0.4132	0.8444	0.96	0.073
Mof_C 	C 	0.415	0.9133	0.9467	0.007
Mof_H 	H 	0.4171	0.9225	0.9776	0.017
Mof_C 	C 	0.3554	0.6803	0.8262	0.04
Mof_C 	C 	0.3825	0.6861	0.7863	-0.113
Mof_H 	H 	0.4095	0.7056	0.7846	0.036
Mof_C 	C 	0.3723	0.6626	0.7436	-0.103
Mof_H 	H 	0.3882	0.6701	0.7164	0.051
Mof_C 	C 	0.477	0.6831	0.9192	0.01
Mof_C 	C 	0.4501	0.6471	0.9416	-0.037
Mof_H 	H 	0.4179	0.6456	0.9398	0.012
Mof_C 	C 	0.4769	0.6143	0.9666	-0.028
Mof_H 	H 	0.4615	0.5916	0.9838	0.027
Mof_N 	N 	0.3751	0.756	0.9606	-0.3
Mof_N 	N 	0.3992	0.8094	0.8642	-0.287
Mof_N 	N 	0.3529	0.7025	0.8688	-0.314
Mof_N 	N 	0.4607	0.7232	0.8978	-0.291
Mof_C 	C 	0.423	0.8437	0.8799	-0.077
Mof_C 	C 	0.4423	0.8534	0.9256	0.043
Mof_H 	H 	0.4418	0.832	0.9498	-0.028
Mof_C 	C 	0.4611	0.8962	0.9297	-0.044
Mof_H 	H 	0.4752	0.9034	0.9578	0.033
Mof_H 	H 	0.3025	0.6816	0.9165	-0.042
Mof_C 	C 	0.3877	0.6497	0.7611	0.077
Mof_H 	H 	0.4142	0.6461	0.743	-0.008
Mof_C 	C 	0.4747	0.6769	0.8985	0.031
Mof_C 	C 	0.4499	0.6353	0.9043	-0.071
Mof_H 	H 	0.4176	0.6348	0.9051	0.029
Mof_C 	C 	0.4762	0.5946	0.9087	-0.024
Mof_H 	H 	0.4607	0.5664	0.9118	0.027
Mof_Zn	Zn	0.39623	0.25197	0.10429	1.176
Mof_C 	C 	0.3356	0.2215	0.0256	0.039
Mof_C 	C 	0.2991	0.1998	0.05	-0.1
Mof_H 	H 	0.2986	0.1989	0.0823	0.035
Mof_C 	C 	0.2652	0.1803	0.0247	-0.029
Mof_H 	H 	0.2405	0.1662	0.0402	0.032
Mof_C 	C 	0.4071	0.1447	0.1096	0.108
Mof_C 	C 	0.412	0.1331	0.0632	-0.165
Mof_H 	H 	0.4132	0.1556	0.04	0.072
Mof_C 	C 	0.415	0.0867	0.0533	0.007
Mof_H 	H 	0.4171	0.0775	0.0224	0.015
Mof_C 	C 	0.3554	0.3197	0.1738	0.04
Mof_C 	C 	0.3825	0.3139	0.2137	-0.113
Mof_H 	H 	0.4095	0.2944	0.2154	0.036
Mof_C 	C 	0.3723	0.3374	0.2564	-0.103
Mof_H 	H 	0.3882	0.3299	0.2836	0.051
Mof_C 	C 	0.477	0.3169	0.0808	0.009
Mof_C 	C 	0.4501	0.3529	0.0584	-0.038
Mof_H 	H 	0.4179	0.3544	0.0602	0.012
Mof_C 	C 	0.4769	0.3857	0.0334	-0.027
Mof_H 	H 	0.4615	0.4084	0.0162	0.024
Mof_N 	N 	0.3751	0.244	0.0394	-0.299
Mof_N 	N 	0.3992	0.1906	0.1358	-0.287
Mof_N 	N 	0.3529	0.2975	0.1312	-0.314
Mof_N 	N 	0.4607	0.2768	0.1022	-0.291
Mof_C 	C 	0.423	0.1563	0.1201	-0.077
Mof_C 	C 	0.4423	0.1466	0.0744	0.044
Mof_H 	H 	0.4418	0.168	0.0502	-0.028
Mof_C 	C 	0.4611	0.1038	0.0703	-0.044
Mof_H 	H 	0.4752	0.0966	0.0422	0.032
Mof_H 	H 	0.3025	0.3184	0.0835	-0.043
Mof_C 	C 	0.3877	0.3503	0.2389	0.077
Mof_H 	H 	0.4142	0.3539	0.257	-0.008
Mof_C 	C 	0.4747	0.3231	0.1015	0.032
Mof_C 	C 	0.4499	0.3647	0.0957	-0.07
Mof_H 	H 	0.4176	0.3652	0.0949	0.029
Mof_C 	C 	0.4762	0.4054	0.0913	-0.024
Mof_H 	H 	0.4607	0.4336	0.0882	0.027
Mof_Zn	Zn	0.60377	0.25197	0.89571	1.176
Mof_C 	C 	0.6644	0.2215	0.9744	0.049
Mof_C 	C 	0.7009	0.1998	0.95	-0.112
Mof_H 	H 	0.7014	0.1989	0.9177	0.039
Mof_C 	C 	0.7348	0.1803	0.9753	-0.011
Mof_H 	H 	0.7595	0.1662	0.9598	0.027
Mof_C 	C 	0.5929	0.1447	0.8904	0.108
Mof_C 	C 	0.588	0.1331	0.9368	-0.166
Mof_H 	H 	0.5868	0.1556	0.96	0.073
Mof_C 	C 	0.585	0.0867	0.9467	0.008
Mof_H 	H 	0.5829	0.0775	0.9776	0.017
Mof_C 	C 	0.6446	0.3197	0.8262	0.04
Mof_C 	C 	0.6175	0.3139	0.7863	-0.113
Mof_H 	H 	0.5905	0.2944	0.7846	0.036
Mof_C 	C 	0.6277	0.3374	0.7436	-0.103
Mof_H 	H 	0.6118	0.3299	0.7164	0.051
Mof_C 	C 	0.523	0.3169	0.9192	0.01
Mof_C 	C 	0.5499	0.3529	0.9416	-0.037
Mof_H 	H 	0.5821	0.3544	0.9398	0.012
Mof_C 	C 	0.5231	0.3857	0.9666	-0.028
Mof_H 	H 	0.5385	0.4084	0.9838	0.027
Mof_N 	N 	0.6249	0.244	0.9606	-0.3
Mof_N 	N 	0.6008	0.1906	0.8642	-0.287
Mof_N 	N 	0.6471	0.2975	0.8688	-0.314
Mof_N 	N 	0.5393	0.2768	0.8978	-0.291
Mof_C 	C 	0.577	0.1563	0.8799	-0.077
Mof_C 	C 	0.5577	0.1466	0.9256	0.045
Mof_H 	H 	0.5582	0.168	0.9498	-0.028
Mof_C 	C 	0.5389	0.1038	0.9297	-0.046
Mof_H 	H 	0.5248	0.0966	0.9578	0.033
Mof_H 	H 	0.6975	0.3184	0.9165	-0.042
Mof_C 	C 	0.6123	0.3503	0.7611	0.077
Mof_H 	H 	0.5858	0.3539	0.743	-0.008
Mof_C 	C 	0.5253	0.3231	0.8985	0.031
Mof_C 	C 	0.5501	0.3647	0.9043	-0.071
Mof_H 	H 	0.5824	0.3652	0.9051	0.029
Mof_C 	C 	0.5238	0.4054	0.9087	-0.024
Mof_H 	H 	0.5393	0.4336	0.9118	0.027
Mof_Zn	Zn	0.74803	0.89571	0.39623	1.176
Mof_C 	C 	0.7785	0.9744	0.3356	0.049
Mof_C 	C 	0.8002	0.95	0.2991	-0.112
Mof_H 	H 	0.8011	0.9177	0.2986	0.039
Mof_C 	C 	0.8197	0.9753	0.2652	-0.011
Mof_H 	H 	0.8338	0.9598	0.2405	0.027
Mof_C 	C 	0.8553	0.8904	0.4071	0.109
Mof_C 	C 	0.8669	0.9368	0.412	-0.165
Mof_H 	H 	0.8444	0.96	0.4132	0.073
Mof_C 	C 	0.9133	0.9467	0.415	0.007
Mof_H 	H 	0.9225	0.9776	0.4171	0.017
Mof_C 	C 	0.6803	0.8262	0.3554	0.04
Mof_C 	C 	0.6861	0.7863	0.3825	-0.113
Mof_H 	H 	0.7056	0.7846	0.4095	0.036
Mof_C 	C 	0.6626	0.7436	0.3723	-0.103
Mof_H 	H 	0.6701	0.7164	0.3882	0.051
Mof_C 	C 	0.6831	0.9192	0.477	0.01
Mof_C 	C 	0.6471	0.9416	0.4501	-0.037
Mof_H 	H 	0.6456	0.9398	0.4179	0.012
Mof_C 	C 	0.6143	0.9666	0.4769	-0.028
Mof_H 	H 	0.5916	0.9838	0.4615	0.027
Mof_N 	N 	0.756	0.9606	0.3751	-0.3
Mof_N 	N 	0.8094	0.8642	0.3992	-0.287
Mof_N 	N 	0.7025	0.8688	0.3529	-0.314
Mof_N 	N 	0.7232	0.8978	0.4607	-0.291
Mof_C 	C 	0.8437	0.8799	0.423	-0.077
Mof_C 	C 	0.8534	0.9256	0.4423	0.043
Mof_H 	H 	0.832	0.9498	0.4418	-0.028
Mof_C 	C 	0.8962	0.9297	0.4611	-0.044
Mof_H 	H 	0.9034	0.9578	0.4752	0.033
Mof_H 	H 	0.6816	0.9165	0.3025	-0.042
Mof_C 	C 	0.6497	0.7611	0.3877	0.077
Mof_H 	H 	0.6461	0.743	0.4142	-0.008
Mof_C 	C 	0.6769	0.8985	0.4747	0.031
Mof_C 	C 	0.6353	0.9043	0.4499	-0.071
Mof_H 	H 	0.6348	0.9051	0.4176	0.029
Mof_C 	C 	0.5946	0.9087	0.4762	-0.024
Mof_H 	H 	0.5664	0.9118	0.4607	0.027
Mof_Zn	Zn	0.74803	0.10429	0.60377	1.176
Mof_C 	C 	0.7785	0.0256	0.6644	0.039
Mof_C 	C 	0.8002	0.05	0.7009	-0.1
Mof_H 	H 	0.8011	0.0823	0.7014	0.035
Mof_C 	C 	0.8197	0.0247	0.7348	-0.029
Mof_H 	H 	0.8338	0.0402	0.7595	0.033
Mof_C 	C 	0.8553	0.1096	0.5929	0.109
Mof_C 	C 	0.8669	0.0632	0.588	-0.165
Mof_H 	H 	0.8444	0.04	0.5868	0.072
Mof_C 	C 	0.9133	0.0533	0.585	0.007
Mof_H 	H 	0.9225	0.0224	0.5829	0.016
Mof_C 	C 	0.6803	0.1738	0.6446	0.04
Mof_C 	C 	0.6861	0.2137	0.6175	-0.113
Mof_H 	H 	0.7056	0.2154	0.5905	0.036
Mof_C 	C 	0.6626	0.2564	0.6277	-0.103
Mof_H 	H 	0.6701	0.2836	0.6118	0.051
Mof_C 	C 	0.6831	0.0808	0.523	0.009
Mof_C 	C 	0.6471	0.0584	0.5499	-0.038
Mof_H 	H 	0.6456	0.0602	0.5821	0.012
Mof_C 	C 	0.6143	0.0334	0.5231	-0.027
Mof_H 	H 	0.5916	0.0162	0.5385	0.024
Mof_N 	N 	0.756	0.0394	0.6249	-0.299
Mof_N 	N 	0.8094	0.1358	0.6008	-0.287
Mof_N 	N 	0.7025	0.1312	0.6471	-0.314
Mof_N 	N 	0.7232	0.1022	0.5393	-0.291
Mof_C 	C 	0.8437	0.1201	0.577	-0.077
Mof_C 	C 	0.8534	0.0744	0.5577	0.042
Mof_H 	H 	0.832	0.0502	0.5582	-0.028
Mof_C 	C 	0.8962	0.0703	0.5389	-0.043
Mof_H 	H 	0.9034	0.0422	0.5248	0.032
Mof_H 	H 	0.6816	0.0835	0.6975	-0.043
Mof_C 	C 	0.6497	0.2389	0.6123	0.077
Mof_H 	H 	0.6461	0.257	0.5858	-0.008
Mof_C 	C 	0.6769	0.1015	0.5253	0.032
Mof_C 	C 	0.6353	0.0957	0.5501	-0.07
Mof_H 	H 	0.6348	0.0949	0.5824	0.029
Mof_C 	C 	0.5946	0.0913	0.5238	-0.024
Mof_H 	H 	0.5664	0.0882	0.5393	0.027
Mof_Zn	Zn	0.25197	0.89571	0.60377	1.176
Mof_C 	C 	0.2215	0.9744	0.6644	0.049
Mof_C 	C 	0.1998	0.95	0.7009	-0.112
Mof_H 	H 	0.1989	0.9177	0.7014	0.039
Mof_C 	C 	0.1803	0.9753	0.7348	-0.011
Mof_H 	H 	0.1662	0.9598	0.7595	0.027
Mof_C 	C 	0.1447	0.8904	0.5929	0.108
Mof_C 	C 	0.1331	0.9368	0.588	-0.166
Mof_H 	H 	0.1556	0.96	0.5868	0.073
Mof_C 	C 	0.0867	0.9467	0.585	0.008
Mof_H 	H 	0.0775	0.9776	0.5829	0.017
Mof_C 	C 	0.3197	0.8262	0.6446	0.04
Mof_C 	C 	0.3139	0.7863	0.6175	-0.113
Mof_H 	H 	0.2944	0.7846	0.5905	0.036
Mof_C 	C 	0.3374	0.7436	0.6277	-0.103
Mof_H 	H 	0.3299	0.7164	0.6118	0.051
Mof_C 	C 	0.3169	0.9192	0.523	0.01
Mof_C 	C 	0.3529	0.9416	0.5499	-0.037
Mof_H 	H 	0.3544	0.9398	0.5821	0.012
Mof_C 	C 	0.3857	0.9666	0.5231	-0.028
Mof_H 	H 	0.4084	0.9838	0.5385	0.027
Mof_N 	N 	0.244	0.9606	0.6249	-0.3
Mof_N 	N 	0.1906	0.8642	0.6008	-0.287
Mof_N 	N 	0.2975	0.8688	0.6471	-0.314
Mof_N 	N 	0.2768	0.8978	0.5393	-0.291
Mof_C 	C 	0.1563	0.8799	0.577	-0.077
Mof_C 	C 	0.1466	0.9256	0.5577	0.045
Mof_H 	H 	0.168	0.9498	0.5582	-0.028
Mof_C 	C 	0.1038	0.9297	0.5389	-0.046
Mof_H 	H 	0.0966	0.9578	0.5248	0.033
Mof_H 	H 	0.3184	0.9165	0.6975	-0.042
Mof_C 	C 	0.3503	0.7611	0.6123	0.077
Mof_H 	H 	0.3539	0.743	0.5858	-0.008
Mof_C 	C 	0.3231	0.8985	0.5253	0.031
Mof_C 	C 	0.3647	0.9043	0.5501	-0.071
Mof_H 	H 	0.3652	0.9051	0.5824	0.029
Mof_C 	C 	0.4054	0.9087	0.5238	-0.024
Mof_H 	H 	0.4336	0.9118	0.5393	0.027
Mof_Zn	Zn	0.25197	0.10429	0.39623	1.176
Mof_C 	C 	0.2215	0.0256	0.3356	0.039
Mof_C 	C 	0.1998	0.05	0.2991	-0.1
Mof_H 	H 	0.1989	0.0823	0.2986	0.035
Mof_C 	C 	0.1803	0.0247	0.2652	-0.029
Mof_H 	H 	0.1662	0.0402	0.2405	0.032
Mof_C 	C 	0.1447	0.1096	0.4071	0.108
Mof_C 	C 	0.1331	0.0632	0.412	-0.165
Mof_H 	H 	0.1556	0.04	0.4132	0.072
Mof_C 	C 	0.0867	0.0533	0.415	0.007
Mof_H 	H 	0.0775	0.0224	0.4171	0.015
Mof_C 	C 	0.3197	0.1738	0.3554	0.04
Mof_C 	C 	0.3139	0.2137	0.3825	-0.113
Mof_H 	H 	0.2944	0.2154	0.4095	0.036
Mof_C 	C 	0.3374	0.2564	0.3723	-0.103
Mof_H 	H 	0.3299	0.2836	0.3882	0.051
Mof_C 	C 	0.3169	0.0808	0.477	0.009
Mof_C 	C 	0.3529	0.0584	0.4501	-0.038
Mof_H 	H 	0.3544	0.0602	0.4179	0.012
Mof_C 	C 	0.3857	0.0334	0.4769	-0.027
Mof_H 	H 	0.4084	0.0162	0.4615	0.024
Mof_N 	N 	0.244	0.0394	0.3751	-0.299
Mof_N 	N 	0.1906	0.1358	0.3992	-0.287
Mof_N 	N 	0.2975	0.1312	0.3529	-0.314
Mof_N 	N 	0.2768	0.1022	0.4607	-0.291
Mof_C 	C 	0.1563	0.1201	0.423	-0.077
Mof_C 	C 	0.1466	0.0744	0.4423	0.044
Mof_H 	H 	0.168	0.0502	0.4418	-0.028
Mof_C 	C 	0.1038	0.0703	0.4611	-0.044
Mof_H 	H 	0.0966	0.0422	0.4752	0.032
Mof_H 	H 	0.3184	0.0835	0.3025	-0.043
Mof_C 	C 	0.3503	0.2389	0.3877	0.077
Mof_H 	H 	0.3539	0.257	0.4142	-0.008
Mof_C 	C 	0.3231	0.1015	0.4747	0.032
Mof_C 	C 	0.3647	0.0957	0.4499	-0.07
Mof_H 	H 	0.3652	0.0949	0.4176	0.029
Mof_C 	C 	0.4054	0.0913	0.4762	-0.024
Mof_H 	H 	0.4336	0.0882	0.4607	0.027
Mof_C 	C 	0.395	2.12244e-33	0.256	0.11
Mof_H 	H 	0.4227	-2.12244e-33	0.2728	-0.052
Mof_C 	C 	0.605	2.12244e-33	0.256	0.11
Mof_H 	H 	0.5773	-2.12244e-33	0.2728	-0.052
Mof_C 	C 	0.605	-8.48978e-33	0.744	0.11
Mof_H 	H 	0.5773	0	0.7272	-0.052
Mof_C 	C 	0.395	-8.48978e-33	0.744	0.11
Mof_H 	H 	0.4227	0	0.7272	-0.052
Mof_C 	C 	0.256	0.395	-0	0.11
Mof_H 	H 	0.2728	0.4227	-0	-0.052
Mof_C 	C 	0.256	0.605	-0	0.11
Mof_H 	H 	0.2728	0.5773	-0	-0.052
Mof_C 	C 	0.744	0.605	-0	0.11
Mof_H 	H 	0.7272	0.5773	-0	-0.052
Mof_C 	C 	0.744	0.395	-0	0.11
Mof_H 	H 	0.7272	0.4227	-0	-0.052
Mof_C 	C 	-2.76388e-33	0.256	0.395	0.11
Mof_H 	H 	-6.90491e-33	0.2728	0.4227	-0.052
Mof_C 	C 	-1.9765e-33	0.256	0.605	0.11
Mof_H 	H 	-6.32525e-33	0.2728	0.5773	-0.052
Mof_C 	C 	-1.9765e-33	0.744	0.605	0.11
Mof_H 	H 	-2.08036e-33	0.7272	0.5773	-0.052
Mof_C 	C 	-1.12537e-32	0.744	0.395	0.11
Mof_H 	H 	5.82976e-33	0.7272	0.4227	-0.052
Mof_C 	C 	-1.419e-32	0.395	0.744	0.11
Mof_H 	H 	2.72656e-33	0.4227	0.7272	-0.052
Mof_C 	C 	-5.70023e-33	0.605	0.744	0.11
Mof_H 	H 	2.72656e-33	0.5773	0.7272	-0.052
Mof_C 	C 	-1.1626e-33	0.605	0.256	0.11
Mof_H 	H 	-5.3445e-33	0.5773	0.2728	-0.052
Mof_C 	C 	-1.1626e-33	0.395	0.256	0.11
Mof_H 	H 	-5.3445e-33	0.4227	0.2728	-0.052
Mof_C 	C 	0.395	0.256	-0	0.11
Mof_H 	H 	0.4227	0.2728	-0	-0.052
Mof_C 	C 	0.605	0.256	-0	0.11
Mof_H 	H 	0.5773	0.2728	-0	-0.052
Mof_C 	C 	0.605	0.744	-0	0.11
Mof_H 	H 	0.5773	0.7272	-0	-0.052
Mof_C 	C 	0.395	0.744	-0	0.11
Mof_H 	H 	0.4227	0.7272	-0	-0.052
Mof_C 	C 	0.256	-4.24489e-33	0.605	0.11
Mof_H 	H 	0.2728	0	0.5773	-0.052
Mof_C 	C 	0.256	0	0.395	0.11
Mof_H 	H 	0.2728	0	0.4227	-0.052
Mof_C 	C 	0.744	0	0.395	0.11
Mof_H 	H 	0.7272	0	0.4227	-0.052
Mof_C 	C 	0.744	-4.24489e-33	0.605	0.11
Mof_H 	H 	0.7272	0	0.5773	-0.052
Mof_C 	C 	0.3908	0.1793	0.1793	0.112
Mof_H 	H 	0.3796	0.2007	0.2007	-0.06
Mof_C 	C 	0.6092	0.8207	0.1793	0.112
Mof_H 	H 	0.6204	0.7993	0.2007	-0.06
Mof_C 	C 	0.6092	0.1793	0.8207	0.112
Mof_H 	H 	0.6204	0.2007	0.7993	-0.06
Mof_C 	C 	0.3908	0.8207	0.8207	0.112
Mof_H 	H 	0.3796	0.7993	0.7993	-0.06
Mof_C 	C 	0.1793	0.3908	0.1793	0.112
Mof_H 	H 	0.2007	0.3796	0.2007	-0.06
Mof_C 	C 	0.1793	0.6092	0.8207	0.112
Mof_H 	H 	0.2007	0.6204	0.7993	-0.06
Mof_C 	C 	0.8207	0.6092	0.1793	0.112
Mof_H 	H 	0.7993	0.6204	0.2007	-0.06
Mof_C 	C 	0.8207	0.3908	0.8207	0.112
Mof_H 	H 	0.7993	0.3796	0.7993	-0.06
Mof_C 	C 	0.1793	0.1793	0.3908	0.112
Mof_H 	H 	0.2007	0.2007	0.3796	-0.06
Mof_C 	C 	0.8207	0.1793	0.6092	0.112
Mof_H 	H 	0.7993	0.2007	0.6204	-0.06
Mof_C 	C 	0.1793	0.8207	0.6092	0.112
Mof_H 	H 	0.2007	0.7993	0.6204	-0.06
Mof_C 	C 	0.8207	0.8207	0.3908	0.112
Mof_H 	H 	0.7993	0.7993	0.3796	-0.06
Mof_C 	C 	0.1793	0.3908	0.8207	0.112
Mof_H 	H 	0.2007	0.3796	0.7993	-0.06
Mof_C 	C 	0.8207	0.6092	0.8207	0.112
Mof_H 	H 	0.7993	0.6204	0.7993	-0.06
Mof_C 	C 	0.1793	0.6092	0.1793	0.112
Mof_H 	H 	0.2007	0.6204	0.2007	-0.06
Mof_C 	C 	0.8207	0.3908	0.1793	0.112
Mof_H 	H 	0.7993	0.3796	0.2007	-0.06
Mof_C 	C 	0.3908	0.1793	0.8207	0.112
Mof_H 	H 	0.3796	0.2007	0.7993	-0.06
Mof_C 	C 	0.6092	0.1793	0.1793	0.112
Mof_H 	H 	0.6204	0.2007	0.2007	-0.06
Mof_C 	C 	0.6092	0.8207	0.8207	0.112
Mof_H 	H 	0.6204	0.7993	0.7993	-0.06
Mof_C 	C 	0.3908	0.8207	0.1793	0.112
Mof_H 	H 	0.3796	0.7993	0.2007	-0.06
Mof_C 	C 	0.1793	0.1793	0.6092	0.112
Mof_H 	H 	0.2007	0.2007	0.6204	-0.06
Mof_C 	C 	0.1793	0.8207	0.3908	0.112
Mof_H 	H 	0.2007	0.7993	0.3796	-0.06
Mof_C 	C 	0.8207	0.1793	0.3908	0.112
Mof_H 	H 	0.7993	0.2007	0.3796	-0.06
Mof_C 	C 	0.8207	0.8207	0.6092	0.112
Mof_H 	H 	0.7993	0.7993	0.6204	-0.06
Mof_C 	C 	0.3189	0.1113	0.3189	0.156
Mof_C 	C 	0.6811	0.8887	0.3189	0.156
Mof_C 	C 	0.6811	0.1113	0.6811	0.156
Mof_C 	C 	0.3189	0.8887	0.6811	0.156
Mof_C 	C 	0.3189	0.3189	0.1113	0.156
Mof_C 	C 	0.3189	0.6811	0.8887	0.156
Mof_C 	C 	0.6811	0.6811	0.1113	0.156
Mof_C 	C 	0.6811	0.3189	0.8887	0.156
Mof_C 	C 	0.1113	0.3189	0.3189	0.156
Mof_C 	C 	0.8887	0.3189	0.6811	0.156
Mof_C 	C 	0.1113	0.6811	0.6811	0.156
Mof_C 	C 	0.8887	0.6811	0.3189	0.156
Mof_C 	C 	0.1113	0.3189	0.6811	0.156
Mof_C 	C 	0.8887	0.6811	0.6811	0.156
Mof_C 	C 	0.1113	0.6811	0.3189	0.156
Mof_C 	C 	0.8887	0.3189	0.3189	0.156
Mof_C 	C 	0.3189	0.3189	0.8887	0.156
Mof_C 	C 	0.6811	0.3189	0.1113	0.156
Mof_C 	C 	0.6811	0.6811	0.8887	0.156
Mof_C 	C 	0.3189	0.6811	0.1113	0.156
Mof_C 	C 	0.3189	0.1113	0.6811	0.156
Mof_C 	C 	0.3189	0.8887	0.3189	0.156
Mof_C 	C 	0.6811	0.1113	0.3189	0.156
Mof_C 	C 	0.6811	0.8887	0.6811	0.156
Mof_C 	C 	0.5	0.1106	0.2533	0.084
Mof_H 	H 	0.5	0.1215	0.2228	-0.044
Mof_C 	C 	0.5	0.8894	0.2533	0.084
Mof_H 	H 	0.5	0.8785	0.2228	-0.044
Mof_C 	C 	0.5	0.1106	0.7467	0.084
Mof_H 	H 	0.5	0.1215	0.7772	-0.044
Mof_C 	C 	0.5	0.8894	0.7467	0.084
Mof_H 	H 	0.5	0.8785	0.7772	-0.044
Mof_C 	C 	0.2533	0.5	0.1106	0.084
Mof_H 	H 	0.2228	0.5	0.1215	-0.044
Mof_C 	C 	0.2533	0.5	0.8894	0.084
Mof_H 	H 	0.2228	0.5	0.8785	-0.044
Mof_C 	C 	0.7467	0.5	0.1106	0.084
Mof_H 	H 	0.7772	0.5	0.1215	-0.044
Mof_C 	C 	0.7467	0.5	0.8894	0.084
Mof_H 	H 	0.7772	0.5	0.8785	-0.044
Mof_C 	C 	0.1106	0.2533	0.5	0.084
Mof_H 	H 	0.1215	0.2228	0.5	-0.044
Mof_C 	C 	0.8894	0.2533	0.5	0.084
Mof_H 	H 	0.8785	0.2228	0.5	-0.044
Mof_C 	C 	0.1106	0.7467	0.5	0.084
Mof_H 	H 	0.1215	0.7772	0.5	-0.044
Mof_C 	C 	0.8894	0.7467	0.5	0.084
Mof_H 	H 	0.8785	0.7772	0.5	-0.044
Mof_C 	C 	0.1106	0.5	0.7467	0.084
Mof_H 	H 	0.1215	0.5	0.7772	-0.044
Mof_C 	C 	0.8894	0.5	0.7467	0.084
Mof_H 	H 	0.8785	0.5	0.7772	-0.044
Mof_C 	C 	0.1106	0.5	0.2533	0.084
Mof_H 	H 	0.1215	0.5	0.2228	-0.044
Mof_C 	C 	0.8894	0.5	0.2533	0.084
Mof_H 	H 	0.8785	0.5	0.2228	-0.044
Mof_C 	C 	0.5	0.2533	0.8894	0.084
Mof_H 	H 	0.5	0.2228	0.8785	-0.044
Mof_C 	C 	0.5	0.2533	0.1106	0.084
Mof_H 	H 	0.5	0.2228	0.1215	-0.044
Mof_C 	C 	0.5	0.7467	0.8894	0.084
Mof_H 	H 	0.5	0.7772	0.8785	-0.044
Mof_C 	C 	0.5	0.7467	0.1106	0.084
Mof_H 	H 	0.5	0.7772	0.1215	-0.044
Mof_C 	C 	0.2533	0.1106	0.5	0.084
Mof_H 	H 	0.2228	0.1215	0.5	-0.044
Mof_C 	C 	0.2533	0.8894	0.5	0.084
Mof_H 	H 	0.2228	0.8785	0.5	-0.044
Mof_C 	C 	0.7467	0.1106	0.5	0.084
Mof_H 	H 	0.7772	0.1215	0.5	-0.044
Mof_C 	C 	0.7467	0.8894	0.5	0.084
Mof_H 	H 	0.7772	0.8785	0.5	-0.044
_end
