data_functionalizedCrystal
_audit_creation_method	'EQeq! by Chris Wilmer'
_symmetry_space_group_name_H-M	'P1'
_symmetry_Int_Tables_number	1
_symmetry_cell_setting	triclinic
loop_
_symmetry_equiv_pos_as_xyz
  x,y,z
_cell_length_a	15.7991
_cell_length_b	11.4257
_cell_length_c	18.7582
_cell_angle_alpha	90
_cell_angle_beta	103.367
_cell_angle_gamma	90
loop_
_atom_site_label
_atom_site_type_symbol
_atom_site_fract_x
_atom_site_fract_y
_atom_site_fract_z
_atom_site_charge
Mof_Zn	Zn	0.57898	0.68356	0.19397	1.217
Mof_Zn	Zn	0.77375	0.80838	0.17013	1.197
Mof_Zn	Zn	0.58296	0.09088	0.99966	1.226
Mof_O 	O 	0.435	0.0683	0.15127	-0.307
Mof_O 	O 	0.51453	0.20479	0.92611	-0.516
Mof_O 	O 	0.45451	0.38014	0.90704	-0.485
Mof_O 	O 	0.64041	0.01903	0.09969	-0.458
Mof_O 	O 	0.77018	0.99103	0.172	-0.436
Mof_O 	O 	0.87804	0.55106	0.24218	-0.491
Mof_O 	O 	0.76215	0.62597	0.16366	-0.516
Mof_N 	N 	0.58381	0.25067	0.07509	-0.11
Mof_N 	N 	0.29582	0.8878	0.03091	-0.247
Mof_N 	N 	0.89142	0.8248	0.13143	-0.256
Mof_N 	N 	0.46241	0.702	0.22267	-0.254
Mof_C 	C 	0.71241	0.0564	0.13721	0.385
Mof_C 	C 	0.73172	0.1861	0.14186	-0.151
Mof_C 	C 	0.81675	0.2161	0.17775	0.027
Mof_H 	H 	0.8579	0.1553	0.1932	0.036
Mof_C 	C 	0.84304	0.3309	0.19149	-0.044
Mof_H 	H 	0.9012	0.3488	0.2161	0.054
Mof_C 	C 	0.78297	0.4194	0.16865	-0.062
Mof_C 	C 	0.69947	0.3932	0.12995	-0.066
Mof_H 	H 	0.6596	0.455	0.1133	0.06
Mof_C 	C 	0.6727	0.2778	0.11497	0.069
Mof_C 	C 	0.80908	0.5427	0.19198	0.387
Mof_C 	C 	0.53107	0.2132	0.12761	-0.303
Mof_H 	H 	0.4952	0.2806	0.1361	0.121
Mof_H 	H 	0.5715	0.1946	0.175	0.132
Mof_C 	C 	0.47107	0.1088	0.1053	0.396
Mof_C 	C 	0.54125	0.3457	0.02571	-0.41
Mof_C 	C 	0.50007	0.3052	0.94836	0.422
Mof_C 	C 	0.2611	0.7831	0.03943	0.083
Mof_H 	H 	0.2941	0.7154	0.0343	-0.014
Mof_C 	C 	0.1818	0.7674	0.05493	-0.133
Mof_H 	H 	0.1603	0.6908	0.0597	0.073
Mof_C 	C 	0.1322	0.8662	0.06372	0.059
Mof_C 	C 	0.1674	0.9737	0.0553	-0.14
Mof_H 	H 	0.1362	0.0429	0.0609	0.078
Mof_C 	C 	0.2476	0.9815	0.03882	0.074
Mof_H 	H 	0.27	0.0571	0.0327	-0.013
Mof_C 	C 	0.04709	0.8531	0.0844	0.046
Mof_C 	C 	0.9946	0.7559	0.0651	-0.116
Mof_H 	H 	0.0105	0.6966	0.0352	0.064
Mof_C 	C 	0.9182	0.7454	0.0899	0.057
Mof_H 	H 	0.8835	0.6775	0.0764	-0.012
Mof_C 	C 	0.9421	0.9202	0.1479	0.064
Mof_H 	H 	0.9242	0.9793	0.1769	0.009
Mof_C 	C 	0.018	0.9376	0.1255	-0.127
Mof_H 	H 	0.0504	0.0076	0.1383	0.077
Mof_C 	C 	0.4144	0.8002	0.21059	0.068
Mof_H 	H 	0.4387	0.8678	0.1937	0.009
Mof_C 	C 	0.332	0.8065	0.22169	-0.118
Mof_H 	H 	0.3003	0.8778	0.2132	0.078
Mof_C 	C 	0.29515	0.7085	0.24533	0.049
Mof_C 	C 	0.3453	0.6075	0.2594	-0.117
Mof_H 	H 	0.3212	0.5383	0.2746	0.065
Mof_C 	C 	0.4286	0.60713	0.25147	0.053
Mof_H 	H 	0.464	0.5402	0.2661	0.001
Mof_H 	H 	0.4993	0.3794	0.0519	0.161
Mof_H 	H 	0.5819	0.4016	0.0243	0.178
Mof_O 	O 	0.661	0.81008	0.2168	-0.634
Mof_O 	O 	0.46111	0.07168	0.039	-0.533
Mof_Zn	Zn	0.92102	0.68356	0.30603	1.216
Mof_Zn	Zn	0.72625	0.80838	0.32987	1.197
Mof_Zn	Zn	0.91704	0.09088	0.50035	1.226
Mof_O 	O 	0.065	0.0683	0.34873	-0.308
Mof_O 	O 	0.98547	0.20479	0.57389	-0.517
Mof_O 	O 	0.04549	0.38014	0.59296	-0.486
Mof_O 	O 	0.85959	0.01903	0.40031	-0.46
Mof_O 	O 	0.72982	0.99103	0.328	-0.436
Mof_O 	O 	0.62196	0.55106	0.25782	-0.493
Mof_O 	O 	0.73785	0.62597	0.33634	-0.517
Mof_N 	N 	0.91619	0.25067	0.42491	-0.11
Mof_N 	N 	0.20418	0.8878	0.46909	-0.247
Mof_N 	N 	0.60858	0.8248	0.36857	-0.255
Mof_N 	N 	0.03759	0.702	0.27733	-0.254
Mof_C 	C 	0.78759	0.0564	0.36279	0.383
Mof_C 	C 	0.76828	0.1861	0.35814	-0.151
Mof_C 	C 	0.68325	0.2161	0.32225	0.027
Mof_H 	H 	0.6421	0.1553	0.3068	0.036
Mof_C 	C 	0.65696	0.3309	0.30851	-0.044
Mof_H 	H 	0.5988	0.3488	0.2839	0.054
Mof_C 	C 	0.71703	0.4194	0.33135	-0.062
Mof_C 	C 	0.80053	0.3932	0.37005	-0.066
Mof_H 	H 	0.8404	0.455	0.3867	0.06
Mof_C 	C 	0.8273	0.2778	0.38503	0.068
Mof_C 	C 	0.69092	0.5427	0.30802	0.387
Mof_C 	C 	0.96893	0.2132	0.37239	-0.305
Mof_H 	H 	0.0048	0.2806	0.3639	0.122
Mof_H 	H 	0.9285	0.1946	0.325	0.133
Mof_C 	C 	0.02893	0.1088	0.3947	0.397
Mof_C 	C 	0.95875	0.3457	0.47429	-0.413
Mof_C 	C 	0.99993	0.3052	0.55164	0.423
Mof_C 	C 	0.2389	0.7831	0.46057	0.083
Mof_H 	H 	0.2059	0.7154	0.4657	-0.014
Mof_C 	C 	0.3182	0.7674	0.44507	-0.132
Mof_H 	H 	0.3397	0.6908	0.4403	0.073
Mof_C 	C 	0.3678	0.8662	0.43628	0.058
Mof_C 	C 	0.3326	0.9737	0.4447	-0.134
Mof_H 	H 	0.3638	0.0429	0.4391	0.074
Mof_C 	C 	0.2524	0.9815	0.46118	0.078
Mof_H 	H 	0.23	0.0571	0.4673	-0.016
Mof_C 	C 	0.45291	0.8531	0.4156	0.047
Mof_C 	C 	0.5054	0.7559	0.4349	-0.12
Mof_H 	H 	0.4895	0.6966	0.4648	0.066
Mof_C 	C 	0.5818	0.7454	0.4101	0.059
Mof_H 	H 	0.6165	0.6775	0.4236	-0.013
Mof_C 	C 	0.5579	0.9202	0.3521	0.059
Mof_H 	H 	0.5758	0.9793	0.3231	0.01
Mof_C 	C 	0.482	0.9376	0.3745	-0.118
Mof_H 	H 	0.4496	0.0076	0.3617	0.073
Mof_C 	C 	0.0856	0.8002	0.28941	0.067
Mof_H 	H 	0.0613	0.8678	0.3063	0.009
Mof_C 	C 	0.168	0.8065	0.27831	-0.118
Mof_H 	H 	0.1997	0.8778	0.2868	0.078
Mof_C 	C 	0.20485	0.7085	0.25467	0.049
Mof_C 	C 	0.1547	0.6075	0.2406	-0.117
Mof_H 	H 	0.1788	0.5383	0.2254	0.065
Mof_C 	C 	0.0714	0.60713	0.24853	0.053
Mof_H 	H 	0.036	0.5402	0.2339	0.001
Mof_H 	H 	0.0007	0.3794	0.4481	0.162
Mof_H 	H 	0.9181	0.4016	0.4757	0.179
Mof_O 	O 	0.839	0.81008	0.2832	-0.633
Mof_O 	O 	0.03889	0.07168	0.461	-0.534
Mof_Zn	Zn	0.42102	0.31644	0.80604	1.216
Mof_Zn	Zn	0.22625	0.19162	0.82987	1.196
Mof_Zn	Zn	0.41704	0.90912	0.00035	1.225
Mof_O 	O 	0.565	0.9317	0.84873	-0.308
Mof_O 	O 	0.48547	0.79521	0.07389	-0.517
Mof_O 	O 	0.54549	0.61986	0.09296	-0.486
Mof_O 	O 	0.35959	0.98097	0.90031	-0.459
Mof_O 	O 	0.22982	0.00897	0.828	-0.437
Mof_O 	O 	0.12196	0.44894	0.75782	-0.492
Mof_O 	O 	0.23785	0.37403	0.83634	-0.517
Mof_N 	N 	0.41619	0.74933	0.92491	-0.11
Mof_N 	N 	0.70418	0.1122	0.96909	-0.247
Mof_N 	N 	0.10858	0.1752	0.86857	-0.256
Mof_N 	N 	0.53759	0.298	0.77733	-0.254
Mof_C 	C 	0.28759	0.9436	0.86279	0.385
Mof_C 	C 	0.26828	0.8139	0.85814	-0.151
Mof_C 	C 	0.18325	0.7839	0.82225	0.027
Mof_H 	H 	0.1421	0.8447	0.8068	0.036
Mof_C 	C 	0.15696	0.6691	0.80851	-0.044
Mof_H 	H 	0.0988	0.6512	0.7839	0.054
Mof_C 	C 	0.21703	0.5806	0.83135	-0.062
Mof_C 	C 	0.30053	0.6068	0.87005	-0.066
Mof_H 	H 	0.3404	0.545	0.8867	0.06
Mof_C 	C 	0.3273	0.7222	0.88503	0.069
Mof_C 	C 	0.19092	0.4573	0.80802	0.387
Mof_C 	C 	0.46893	0.7868	0.87239	-0.303
Mof_H 	H 	0.5048	0.7194	0.8639	0.121
Mof_H 	H 	0.4285	0.8054	0.825	0.132
Mof_C 	C 	0.52893	0.8912	0.8947	0.396
Mof_C 	C 	0.45875	0.6543	0.97429	-0.41
Mof_C 	C 	0.49993	0.6948	0.05164	0.422
Mof_C 	C 	0.7389	0.2169	0.96057	0.083
Mof_H 	H 	0.7059	0.2846	0.9657	-0.014
Mof_C 	C 	0.8182	0.2326	0.94507	-0.133
Mof_H 	H 	0.8397	0.3092	0.9403	0.073
Mof_C 	C 	0.8678	0.1338	0.93628	0.059
Mof_C 	C 	0.8326	0.0263	0.9447	-0.14
Mof_H 	H 	0.8638	0.9571	0.9391	0.078
Mof_C 	C 	0.7524	0.0185	0.96118	0.074
Mof_H 	H 	0.73	0.9429	0.9673	-0.013
Mof_C 	C 	0.95291	0.1469	0.9156	0.046
Mof_C 	C 	0.0054	0.2441	0.9349	-0.116
Mof_H 	H 	0.9895	0.3034	0.9648	0.064
Mof_C 	C 	0.0818	0.2546	0.9101	0.057
Mof_H 	H 	0.1165	0.3225	0.9236	-0.012
Mof_C 	C 	0.0579	0.0798	0.8521	0.064
Mof_H 	H 	0.0758	0.0207	0.8231	0.009
Mof_C 	C 	0.982	0.0624	0.8745	-0.127
Mof_H 	H 	0.9496	0.9924	0.8617	0.077
Mof_C 	C 	0.5856	0.1998	0.78941	0.068
Mof_H 	H 	0.5613	0.1322	0.8063	0.009
Mof_C 	C 	0.668	0.1935	0.77831	-0.118
Mof_H 	H 	0.6997	0.1222	0.7868	0.078
Mof_C 	C 	0.70485	0.2915	0.75467	0.049
Mof_C 	C 	0.6547	0.3925	0.7406	-0.117
Mof_H 	H 	0.6788	0.4617	0.7254	0.065
Mof_C 	C 	0.5714	0.39287	0.74853	0.053
Mof_H 	H 	0.536	0.4598	0.7339	0.001
Mof_H 	H 	0.5007	0.6206	0.9481	0.161
Mof_H 	H 	0.4181	0.5984	0.9757	0.178
Mof_O 	O 	0.339	0.18992	0.7832	-0.634
Mof_O 	O 	0.53889	0.92832	0.961	-0.533
Mof_Zn	Zn	0.07898	0.31644	0.69397	1.216
Mof_Zn	Zn	0.27375	0.19162	0.67013	1.197
Mof_Zn	Zn	0.08296	0.90912	0.49965	1.226
Mof_O 	O 	0.935	0.9317	0.65127	-0.308
Mof_O 	O 	0.01453	0.79521	0.42611	-0.517
Mof_O 	O 	0.95451	0.61986	0.40704	-0.486
Mof_O 	O 	0.14041	0.98097	0.59969	-0.46
Mof_O 	O 	0.27018	0.00897	0.672	-0.436
Mof_O 	O 	0.37804	0.44894	0.74218	-0.493
Mof_O 	O 	0.26215	0.37403	0.66366	-0.517
Mof_N 	N 	0.08381	0.74933	0.57509	-0.11
Mof_N 	N 	0.79582	0.1122	0.53091	-0.247
Mof_N 	N 	0.39142	0.1752	0.63143	-0.255
Mof_N 	N 	0.96241	0.298	0.72267	-0.254
Mof_C 	C 	0.21241	0.9436	0.63721	0.383
Mof_C 	C 	0.23172	0.8139	0.64186	-0.151
Mof_C 	C 	0.31675	0.7839	0.67775	0.027
Mof_H 	H 	0.3579	0.8447	0.6932	0.036
Mof_C 	C 	0.34304	0.6691	0.69149	-0.044
Mof_H 	H 	0.4012	0.6512	0.7161	0.054
Mof_C 	C 	0.28297	0.5806	0.66865	-0.062
Mof_C 	C 	0.19947	0.6068	0.62995	-0.066
Mof_H 	H 	0.1596	0.545	0.6133	0.06
Mof_C 	C 	0.1727	0.7222	0.61497	0.068
Mof_C 	C 	0.30908	0.4573	0.69198	0.387
Mof_C 	C 	0.03107	0.7868	0.62761	-0.305
Mof_H 	H 	0.9952	0.7194	0.6361	0.122
Mof_H 	H 	0.0715	0.8054	0.675	0.133
Mof_C 	C 	0.97107	0.8912	0.6053	0.397
Mof_C 	C 	0.04125	0.6543	0.52571	-0.413
Mof_C 	C 	7e-05	0.6948	0.44836	0.423
Mof_C 	C 	0.7611	0.2169	0.53943	0.083
Mof_H 	H 	0.7941	0.2846	0.5343	-0.014
Mof_C 	C 	0.6818	0.2326	0.55493	-0.132
Mof_H 	H 	0.6603	0.3092	0.5597	0.073
Mof_C 	C 	0.6322	0.1338	0.56372	0.058
Mof_C 	C 	0.6674	0.0263	0.5553	-0.134
Mof_H 	H 	0.6362	0.9571	0.5609	0.074
Mof_C 	C 	0.7476	0.0185	0.53882	0.078
Mof_H 	H 	0.77	0.9429	0.5327	-0.016
Mof_C 	C 	0.54709	0.1469	0.5844	0.047
Mof_C 	C 	0.4946	0.2441	0.5651	-0.12
Mof_H 	H 	0.5105	0.3034	0.5352	0.066
Mof_C 	C 	0.4182	0.2546	0.5899	0.059
Mof_H 	H 	0.3835	0.3225	0.5764	-0.013
Mof_C 	C 	0.4421	0.0798	0.6479	0.059
Mof_H 	H 	0.4242	0.0207	0.6769	0.01
Mof_C 	C 	0.518	0.0624	0.6255	-0.118
Mof_H 	H 	0.5504	0.9924	0.6383	0.073
Mof_C 	C 	0.9144	0.1998	0.71059	0.067
Mof_H 	H 	0.9387	0.1322	0.6937	0.009
Mof_C 	C 	0.832	0.1935	0.72169	-0.118
Mof_H 	H 	0.8003	0.1222	0.7132	0.078
Mof_C 	C 	0.79515	0.2915	0.74533	0.049
Mof_C 	C 	0.8453	0.3925	0.7594	-0.117
Mof_H 	H 	0.8212	0.4617	0.7746	0.065
Mof_C 	C 	0.9286	0.39287	0.75147	0.053
Mof_H 	H 	0.964	0.4598	0.7661	0.001
Mof_H 	H 	0.9993	0.6206	0.5519	0.162
Mof_H 	H 	0.0819	0.5984	0.5243	0.179
Mof_O 	O 	0.161	0.18992	0.7168	-0.633
Mof_O 	O 	0.96111	0.92832	0.539	-0.534
_end
