data_functionalizedCrystal
_audit_creation_method	'EQeq! by Chris Wilmer'
_symmetry_space_group_name_H-M	'P1'
_symmetry_Int_Tables_number	1
_symmetry_cell_setting	triclinic
loop_
_symmetry_equiv_pos_as_xyz
  x,y,z
_cell_length_a	17.227
_cell_length_b	24.0435
_cell_length_c	28.8385
_cell_angle_alpha	90
_cell_angle_beta	90
_cell_angle_gamma	90
loop_
_atom_site_label
_atom_site_type_symbol
_atom_site_fract_x
_atom_site_fract_y
_atom_site_fract_z
_atom_site_charge
Mof_Cd	Cd	0.90833	0.39461	0.70964	0.454
Mof_Cd	Cd	0.59221	0.33387	0.21069	0.459
Mof_O 	O 	0.6012	0.8895	0.1934	-0.846
Mof_N 	N 	0.9254	0.2996	0.7096	-0.161
Mof_N 	N 	0.5951	0.4299	0.2152	-0.165
Mof_V 	V 	0.67067	0.83941	0.22595	1.395
Mof_N 	N 	0.9147	0.4906	0.7049	-0.181
Mof_N 	N 	0.5819	0.239	0.212	-0.157
Mof_O 	O 	0.6682	0.3316	0.2758	-0.272
Mof_O 	O 	0.8963	0.3884	0.6303	-0.286
Mof_O 	O 	0.6004	0.336	0.132	-0.289
Mof_C 	C 	0.615	0.3337	0.307	0.285
Mof_O 	O 	0.5445	0.3383	0.2964	-0.287
Mof_O 	O 	0.9561	0.3986	0.7985	-0.311
Mof_C 	C 	0.8859	0.3927	0.8064	0.331
Mof_O 	O 	0.8363	0.3939	0.7757	-0.298
Mof_O 	O 	0.6182	0.7796	0.1934	-0.888
Mof_O 	O 	0.7851	0.3769	0.666	-0.278
Mof_C 	C 	0.8249	0.3759	0.6305	0.301
Mof_C 	C 	0.6032	0.547	0.2127	0.21
Mof_C 	C 	0.6412	0.3343	0.3558	-0.069
Mof_O 	O 	0.916	0.8373	0.674	-0.834
Mof_C 	C 	0.8584	0.3819	0.8551	-0.096
Mof_C 	C 	0.8809	0.3698	0.9373	-0.093
Mof_H 	H 	0.9153	0.3694	0.9622	0.042
Mof_C 	C 	0.6219	0.2074	0.2428	0.092
Mof_H 	H 	0.6506	0.2254	0.2656	-0.009
Mof_C 	C 	0.6158	0.3456	0.4379	-0.062
Mof_H 	H 	0.581	0.3517	0.462	0.032
Mof_O 	O 	0.7156	0.3241	0.1629	-0.277
Mof_C 	C 	0.7806	0.3718	0.8628	0.002
Mof_H 	H 	0.7463	0.3711	0.8379	0.039
Mof_C 	C 	0.6224	0.1509	0.2423	-0.185
Mof_H 	H 	0.6504	0.1314	0.2646	0.045
Mof_C 	C 	0.6731	0.3308	0.1291	0.302
Mof_N 	N 	0.8446	0.9495	0.7622	-0.418
Mof_C 	C 	0.6167	0.7246	0.1977	0.486
Mof_N 	N 	0.6565	0.8893	0.2835	-0.433
Mof_C 	C 	0.8739	0.5232	0.7341	0.163
Mof_H 	H 	0.8421	0.5066	0.7562	-0.016
Mof_C 	C 	0.5808	0.1217	0.2081	0.151
Mof_C 	C 	0.5406	0.4611	0.1936	0.129
Mof_H 	H 	0.4996	0.4428	0.1792	-0.001
Mof_C 	C 	0.6957	0.3697	0.0031	-0.095
Mof_H 	H 	0.6667	0.3882	0.9806	0.04
Mof_C 	C 	0.917	0.6044	0.6948	0.244
Mof_C 	C 	0.8778	0.578	0.7323	-0.265
Mof_H 	H 	0.855	0.5993	0.7555	0.133
Mof_C 	C 	0.5778	0.6354	0.1707	0.372
Mof_H 	H 	0.5538	0.6133	0.1485	-0.131
Mof_C 	C 	0.9348	0.6927	0.6469	0.471
Mof_H 	H 	0.9493	0.6702	0.6221	-0.18
Mof_C 	C 	0.7444	0.3286	0.4107	-0.064
Mof_H 	H 	0.7969	0.3232	0.4165	0.001
Mof_C 	C 	0.93	0.1829	0.7007	0.151
Mof_C 	C 	0.7184	0.3264	0.3664	-0.026
Mof_H 	H 	0.7535	0.3195	0.3426	0.045
Mof_C 	C 	0.694	0.3386	0.4481	-0.015
Mof_C 	C 	0.5844	0.0599	0.2055	-0.204
Mof_C 	C 	0.9111	0.0067	0.6798	0.405
Mof_C 	C 	0.9537	0.5122	0.6716	0.162
Mof_H 	H 	0.9797	0.4893	0.6508	-0.017
Mof_N 	N 	0.6883	0.7827	0.2774	-0.426
Mof_C 	C 	0.6513	0.4572	0.2361	0.135
Mof_H 	H 	0.688	0.4368	0.2525	-0
Mof_C 	C 	0.6037	0.0279	0.2439	0.152
Mof_H 	H 	0.6118	0.0453	0.2723	-0.048
Mof_C 	C 	0.5424	0.5179	0.1919	-0.229
Mof_H 	H 	0.503	0.5372	0.1767	0.108
Mof_C 	C 	0.7717	0.3508	0.9918	0.011
Mof_C 	C 	0.8068	0.3593	0.4999	-0.11
Mof_H 	H 	0.8386	0.3596	0.4738	0.021
Mof_C 	C 	0.8385	0.3676	0.5436	0.006
Mof_H 	H 	0.8916	0.3734	0.5469	0.02
Mof_C 	C 	0.7909	0.3672	0.5825	-0.093
Mof_C 	C 	0.7115	0.3585	0.57767	0.014
Mof_H 	H 	0.6797	0.3582	0.6037	-0.001
Mof_C 	C 	0.6798	0.3502	0.5339	-0.114
Mof_H 	H 	0.6267	0.3444	0.5306	0.031
Mof_C 	C 	0.7274	0.3506	0.49498	0.035
Mof_C 	C 	0.664	0.3614	0.0461	-0.001
Mof_H 	H 	0.6132	0.3723	0.0521	0.029
Mof_C 	C 	0.7531	0.3626	0.9074	-0.095
Mof_H 	H 	0.7001	0.3577	0.912	0.028
Mof_C 	C 	0.6494	0.6982	0.2377	-0.344
Mof_C 	C 	0.5964	0.9426	0.1969	0.442
Mof_C 	C 	0.5803	0.6917	0.163	-0.666
Mof_C 	C 	0.8939	0.7006	0.7275	0.239
Mof_H 	H 	0.8801	0.6853	0.7559	-0.051
Mof_C 	C 	0.6088	0.6093	0.2095	-0.279
Mof_C 	C 	0.5403	0.211	0.1809	0.103
Mof_H 	H 	0.5099	0.2314	0.1605	-0.007
Mof_C 	C 	0.6447	0.6407	0.2416	0.22
Mof_H 	H 	0.6671	0.6234	0.2672	-0.032
Mof_C 	C 	0.7132	0.8984	0.3647	-0.156
Mof_H 	H 	0.7626	0.9117	0.353	0.059
Mof_H 	H 	0.6809	0.9303	0.3719	0.03
Mof_C 	C 	0.9015	0.0888	0.7294	0.159
Mof_H 	H 	0.8908	0.1047	0.7581	-0.062
Mof_C 	C 	0.5709	0.0333	0.1635	0.236
Mof_H 	H 	0.556	0.0545	0.138	-0.087
Mof_C 	C 	0.6735	0.8624	0.3279	-0.001
Mof_H 	H 	0.6245	0.8487	0.3409	-0.037
Mof_C 	C 	0.6591	0.5146	0.2351	-0.235
Mof_H 	H 	0.7015	0.5314	0.2492	0.128
Mof_C 	C 	0.579	0.9756	0.158	-0.498
Mof_C 	C 	0.539	0.1535	0.1767	-0.198
Mof_H 	H 	0.5105	0.1366	0.1532	0.076
Mof_C 	C 	0.743	0.7772	0.3602	-0.082
Mof_H 	H 	0.6958	0.7598	0.3714	0.024
Mof_H 	H 	0.7798	0.7481	0.3524	0.057
Mof_C 	C 	0.8913	0.0315	0.7244	-0.318
Mof_C 	C 	0.7768	0.8143	0.3976	-0.119
Mof_H 	H 	0.8277	0.827	0.3879	0.047
Mof_H 	H 	0.7831	0.7929	0.4258	0.029
Mof_C 	C 	0.8023	0.3605	0.9451	0.016
Mof_C 	C 	0.9654	0.2192	0.6674	-0.197
Mof_H 	H 	0.991	0.2044	0.6418	0.067
Mof_C 	C 	0.9616	0.275	0.6732	0.1
Mof_H 	H 	0.9851	0.2976	0.6511	-0.009
Mof_C 	C 	0.7254	0.8118	0.3173	-0.048
Mof_H 	H 	0.7751	0.8264	0.3062	0.005
Mof_C 	C 	0.8961	0.2664	0.7419	0.112
Mof_H 	H 	0.8728	0.2824	0.7678	-0.016
Mof_C 	C 	0.9403	0.0972	0.6509	0.228
Mof_H 	H 	0.9567	0.1194	0.6263	-0.088
Mof_N 	N 	0.8619	0.8401	0.7653	-0.442
Mof_C 	C 	0.7258	0.8643	0.4075	-0.02
Mof_H 	H 	0.6761	0.8518	0.4194	-0.008
Mof_H 	H 	0.7501	0.8872	0.4311	-0.02
Mof_C 	C 	0.9264	0.1227	0.6946	-0.215
Mof_C 	C 	0.7887	0.9546	0.8439	-0.063
Mof_H 	H 	0.757	0.9868	0.8366	0.019
Mof_H 	H 	0.8381	0.9677	0.8558	0.012
Mof_C 	C 	0.6479	0.9184	0.0969	-1.416
Mof_H 	H 	0.6902	0.9441	0.0994	0.417
Mof_H 	H 	0.6453	0.9043	0.0658	0.4
Mof_H 	H 	0.6557	0.8881	0.118	0.398
Mof_C 	C 	0.5709	0.9484	0.1088	1.031
Mof_C 	C 	0.9156	0.6653	0.6904	-0.308
Mof_C 	C 	0.7482	0.9198	0.8811	-0.13
Mof_H 	H 	0.6949	0.9132	0.8716	0.051
Mof_H 	H 	0.7471	0.9407	0.9098	0.015
Mof_C 	C 	0.8931	0.7581	0.7215	-0.388
Mof_C 	C 	0.8987	0.2106	0.7389	-0.201
Mof_H 	H 	0.8787	0.1896	0.7633	0.051
Mof_C 	C 	0.9304	0.0417	0.6435	-0.46
Mof_C 	C 	0.6314	0.9404	0.2811	0.087
Mof_H 	H 	0.6266	0.9597	0.3089	-0.026
Mof_C 	C 	0.9154	0.7833	0.6785	0.55
Mof_C 	C 	0.8446	0.8669	0.8111	0.006
Mof_H 	H 	0.8946	0.8764	0.8252	-0.029
Mof_C 	C 	0.6112	0.969	0.2407	-0.322
Mof_C 	C 	0.6844	0.7297	0.2745	0.101
Mof_H 	H 	0.7065	0.7095	0.2986	0.001
Mof_C 	C 	0.8019	0.9221	0.8016	-0.047
Mof_H 	H 	0.7505	0.9122	0.7897	0.005
Mof_C 	C 	0.7883	0.8635	0.8896	-0.01
Mof_H 	H 	0.8381	0.8699	0.9044	-0.02
Mof_H 	H 	0.7568	0.8415	0.9106	-0.002
Mof_C 	C 	0.5035	0.9062	0.1101	-1.47
Mof_H 	H 	0.5126	0.8797	0.1344	0.445
Mof_H 	H 	0.5005	0.8871	0.0809	0.418
Mof_H 	H 	0.4556	0.9254	0.1158	0.447
Mof_C 	C 	0.8005	0.8322	0.8464	-0.178
Mof_H 	H 	0.7506	0.8216	0.8335	0.086
Mof_H 	H 	0.8294	0.7985	0.853	0.045
Mof_C 	C 	0.9577	0.5696	0.6664	-0.267
Mof_H 	H 	0.9887	0.5845	0.6431	0.113
Mof_O 	O 	0.9072	0.9528	0.6735	-0.775
Mof_C 	C 	0.5988	0.7567	0.0937	-1.807
Mof_H 	H 	0.6146	0.7866	0.1136	0.542
Mof_H 	H 	0.5732	0.7715	0.0669	0.521
Mof_H 	H 	0.6436	0.7359	0.0842	0.549
Mof_C 	C 	0.9566	0.0636	0.5579	-1.301
Mof_H 	H 	0.9143	0.0896	0.5582	0.379
Mof_H 	H 	0.0039	0.0826	0.5657	0.389
Mof_H 	H 	0.9613	0.0474	0.5276	0.348
Mof_C 	C 	0.7828	0.3178	0.0709	-0.005
Mof_H 	H 	0.8115	0.2993	0.0934	0.008
Mof_C 	C 	0.9087	0.3799	0.8927	0.001
Mof_H 	H 	0.9616	0.3853	0.888	0.039
Mof_C 	C 	0.5424	0.718	0.1203	1.379
Mof_C 	C 	0.5105	0.6758	0.0877	-2.028
Mof_H 	H 	0.5463	0.6454	0.085	0.629
Mof_H 	H 	0.5028	0.6924	0.0578	0.611
Mof_H 	H 	0.4618	0.6623	0.0993	0.622
Mof_C 	C 	0.9413	0.0176	0.5936	0.852
Mof_C 	C 	0.8153	0.3264	0.0269	-0.095
Mof_H 	H 	0.8663	0.3158	0.0212	0.01
Mof_C 	C 	0.5547	0.9918	0.0716	-1.47
Mof_H 	H 	0.5046	0.0081	0.0768	0.432
Mof_H 	H 	0.5557	0.9744	0.0416	0.415
Mof_H 	H 	0.5938	0.0203	0.0729	0.435
Mof_C 	C 	0.8603	0.0002	0.761	0.123
Mof_H 	H 	0.8499	0.0198	0.7881	-0.038
Mof_C 	C 	0.9332	0.7487	0.6395	-0.88
Mof_C 	C 	0.4731	0.7552	0.1366	-1.741
Mof_H 	H 	0.428	0.7324	0.1413	0.53
Mof_H 	H 	0.4623	0.7828	0.1135	0.517
Mof_H 	H 	0.4866	0.7732	0.1652	0.519
Mof_C 	C 	0.5878	0.3436	0.392	-0.029
Mof_H 	H 	0.5353	0.3484	0.3857	0.058
Mof_C 	C 	0.7084	0.3364	0.0812	-0.087
Mof_C 	C 	0.8648	0.9877	0.5783	-1.179
Mof_H 	H 	0.8623	0.9516	0.5924	0.323
Mof_H 	H 	0.8642	0.9839	0.5452	0.321
Mof_H 	H 	0.8208	0.0094	0.588	0.348
Mof_C 	C 	0.9507	0.7744	0.5913	2.065
Mof_C 	C 	0.8789	0.8064	0.5765	-2.597
Mof_H 	H 	0.8395	0.7808	0.5666	0.774
Mof_H 	H 	0.8918	0.8309	0.5514	0.748
Mof_H 	H 	0.8599	0.8278	0.6022	0.762
Mof_C 	C 	0.0204	0.8139	0.594	-2.562
Mof_H 	H 	0.0025	0.8511	0.5998	0.77
Mof_H 	H 	0.0483	0.813	0.5652	0.755
Mof_H 	H 	0.0542	0.8024	0.6187	0.794
Mof_C 	C 	0.0102	0.9763	0.5926	-1.226
Mof_H 	H 	0.0574	0.9957	0.5998	0.37
Mof_H 	H 	0.0142	0.96	0.5623	0.339
Mof_H 	H 	0.0018	0.9475	0.6151	0.365
Mof_C 	C 	0.8699	0.7894	0.7628	0.153
Mof_H 	H 	0.8603	0.7691	0.7896	-0.03
Mof_C 	C 	0.9671	0.7297	0.5579	-2.946
Mof_H 	H 	0.0126	0.7097	0.5675	0.909
Mof_H 	H 	0.9237	0.7047	0.5566	0.895
Mof_H 	H 	0.9757	0.7455	0.5278	0.863
Mof_V 	V 	0.8587	0.89282	0.7073	1.269
Mof_V 	V 	0.5986	0.8297	0.2365	1.483
Mof_V 	V 	0.9131	0.8967	0.7225	1.362
Mof_Cd	Cd	0.09167	0.39461	0.79036	0.466
Mof_Cd	Cd	0.40779	0.33387	0.28931	0.458
Mof_O 	O 	0.3988	0.8895	0.3066	-0.847
Mof_N 	N 	0.0746	0.2996	0.7904	-0.158
Mof_N 	N 	0.4049	0.4299	0.2848	-0.166
Mof_V 	V 	0.32933	0.83941	0.27405	1.394
Mof_N 	N 	0.0853	0.4906	0.7951	-0.179
Mof_N 	N 	0.4181	0.239	0.288	-0.158
Mof_O 	O 	0.3318	0.3316	0.2242	-0.273
Mof_O 	O 	0.1037	0.3884	0.8697	-0.279
Mof_O 	O 	0.3996	0.336	0.368	-0.29
Mof_C 	C 	0.385	0.3337	0.193	0.285
Mof_O 	O 	0.4555	0.3383	0.2036	-0.287
Mof_O 	O 	0.0439	0.3986	0.7015	-0.291
Mof_C 	C 	0.1141	0.3927	0.6936	0.327
Mof_O 	O 	0.1637	0.3939	0.7243	-0.296
Mof_O 	O 	0.3818	0.7796	0.3066	-0.888
Mof_O 	O 	0.2149	0.3769	0.834	-0.278
Mof_C 	C 	0.1751	0.3759	0.8695	0.298
Mof_C 	C 	0.3968	0.547	0.2873	0.21
Mof_C 	C 	0.3588	0.3343	0.1442	-0.07
Mof_O 	O 	0.084	0.8373	0.826	-0.822
Mof_C 	C 	0.1416	0.3819	0.6449	-0.087
Mof_C 	C 	0.1191	0.3698	0.5627	-0.086
Mof_H 	H 	0.0847	0.3694	0.5378	0.046
Mof_C 	C 	0.3781	0.2074	0.2572	0.093
Mof_H 	H 	0.3494	0.2254	0.2344	-0.01
Mof_C 	C 	0.3842	0.3456	0.0621	-0.063
Mof_H 	H 	0.419	0.3517	0.038	0.032
Mof_O 	O 	0.2844	0.3241	0.3371	-0.276
Mof_C 	C 	0.2194	0.3718	0.6372	-0.002
Mof_H 	H 	0.2537	0.3711	0.6621	0.042
Mof_C 	C 	0.3776	0.1509	0.2577	-0.185
Mof_H 	H 	0.3496	0.1314	0.2354	0.045
Mof_C 	C 	0.3269	0.3308	0.3709	0.302
Mof_N 	N 	0.1554	0.9495	0.7378	-0.417
Mof_C 	C 	0.3833	0.7246	0.3023	0.487
Mof_N 	N 	0.3435	0.8893	0.2165	-0.433
Mof_C 	C 	0.1261	0.5232	0.7659	0.166
Mof_H 	H 	0.1579	0.5066	0.7438	-0.015
Mof_C 	C 	0.4192	0.1217	0.2919	0.151
Mof_C 	C 	0.4594	0.4611	0.3064	0.129
Mof_H 	H 	0.5004	0.4428	0.3208	-0.001
Mof_C 	C 	0.3043	0.3697	0.4969	-0.096
Mof_H 	H 	0.3333	0.3882	0.5194	0.041
Mof_C 	C 	0.083	0.6044	0.8052	0.245
Mof_C 	C 	0.1222	0.578	0.7677	-0.262
Mof_H 	H 	0.145	0.5993	0.7445	0.135
Mof_C 	C 	0.4222	0.6354	0.3293	0.372
Mof_H 	H 	0.4462	0.6133	0.3515	-0.131
Mof_C 	C 	0.0652	0.6927	0.8531	0.458
Mof_H 	H 	0.0507	0.6702	0.8779	-0.167
Mof_C 	C 	0.2556	0.3286	0.0893	-0.067
Mof_H 	H 	0.2031	0.3232	0.0835	0.004
Mof_C 	C 	0.07	0.1829	0.7993	0.153
Mof_C 	C 	0.2816	0.3264	0.1336	-0.023
Mof_H 	H 	0.2465	0.3195	0.1574	0.044
Mof_C 	C 	0.306	0.3386	0.0519	-0.013
Mof_C 	C 	0.4156	0.0599	0.2945	-0.204
Mof_C 	C 	0.0889	0.0067	0.8202	0.403
Mof_C 	C 	0.0463	0.5122	0.8284	0.165
Mof_H 	H 	0.0203	0.4893	0.8492	-0.008
Mof_N 	N 	0.3117	0.7827	0.2226	-0.426
Mof_C 	C 	0.3487	0.4572	0.2639	0.135
Mof_H 	H 	0.312	0.4368	0.2475	-0
Mof_C 	C 	0.3963	0.0279	0.2561	0.152
Mof_H 	H 	0.3882	0.0453	0.2277	-0.048
Mof_C 	C 	0.4576	0.5179	0.3081	-0.229
Mof_H 	H 	0.497	0.5372	0.3233	0.108
Mof_C 	C 	0.2283	0.3508	0.5082	0.013
Mof_C 	C 	0.1932	0.3593	0.0001	-0.106
Mof_H 	H 	0.1614	0.3596	0.0262	0.024
Mof_C 	C 	0.1615	0.3676	0.9564	0.003
Mof_H 	H 	0.1084	0.3734	0.9531	0.028
Mof_C 	C 	0.2091	0.3672	0.9175	-0.089
Mof_C 	C 	0.2885	0.3585	0.92233	0.011
Mof_H 	H 	0.3203	0.3582	0.8963	0
Mof_C 	C 	0.3202	0.3502	0.9661	-0.111
Mof_H 	H 	0.3733	0.3444	0.9694	0.03
Mof_C 	C 	0.2726	0.3506	0.00502	0.033
Mof_C 	C 	0.336	0.3614	0.4539	-0
Mof_H 	H 	0.3868	0.3723	0.4479	0.028
Mof_C 	C 	0.2469	0.3626	0.5926	-0.09
Mof_H 	H 	0.2999	0.3577	0.588	0.026
Mof_C 	C 	0.3506	0.6982	0.2623	-0.344
Mof_C 	C 	0.4036	0.9426	0.3031	0.442
Mof_C 	C 	0.4197	0.6917	0.337	-0.667
Mof_C 	C 	0.1061	0.7006	0.7725	0.236
Mof_H 	H 	0.1199	0.6853	0.7441	-0.046
Mof_C 	C 	0.3912	0.6093	0.2905	-0.279
Mof_C 	C 	0.4597	0.211	0.3191	0.103
Mof_H 	H 	0.4901	0.2314	0.3395	-0.007
Mof_C 	C 	0.3553	0.6407	0.2584	0.22
Mof_H 	H 	0.3329	0.6234	0.2328	-0.032
Mof_C 	C 	0.2868	0.8984	0.1353	-0.156
Mof_H 	H 	0.2374	0.9117	0.147	0.059
Mof_H 	H 	0.3191	0.9303	0.1281	0.03
Mof_C 	C 	0.0985	0.0888	0.7706	0.157
Mof_H 	H 	0.1092	0.1047	0.7419	-0.057
Mof_C 	C 	0.4291	0.0333	0.3365	0.237
Mof_H 	H 	0.444	0.0545	0.362	-0.087
Mof_C 	C 	0.3265	0.8624	0.1721	-0.001
Mof_H 	H 	0.3755	0.8487	0.1591	-0.037
Mof_C 	C 	0.3409	0.5146	0.2649	-0.234
Mof_H 	H 	0.2985	0.5314	0.2508	0.128
Mof_C 	C 	0.421	0.9756	0.342	-0.498
Mof_C 	C 	0.461	0.1535	0.3233	-0.198
Mof_H 	H 	0.4895	0.1366	0.3468	0.076
Mof_C 	C 	0.257	0.7772	0.1398	-0.081
Mof_H 	H 	0.3042	0.7598	0.1286	0.023
Mof_H 	H 	0.2202	0.7481	0.1476	0.057
Mof_C 	C 	0.1087	0.0315	0.7756	-0.31
Mof_C 	C 	0.2232	0.8143	0.1024	-0.12
Mof_H 	H 	0.1723	0.827	0.1121	0.049
Mof_H 	H 	0.2169	0.7929	0.0742	0.031
Mof_C 	C 	0.1977	0.3605	0.5549	0.014
Mof_C 	C 	0.0346	0.2192	0.8326	-0.193
Mof_H 	H 	0.009	0.2044	0.8582	0.075
Mof_C 	C 	0.0384	0.275	0.8268	0.104
Mof_H 	H 	0.0149	0.2976	0.8489	0
Mof_C 	C 	0.2746	0.8118	0.1827	-0.048
Mof_H 	H 	0.2249	0.8264	0.1938	0.005
Mof_C 	C 	0.1039	0.2664	0.7581	0.116
Mof_H 	H 	0.1272	0.2824	0.7322	-0.014
Mof_C 	C 	0.0597	0.0972	0.8491	0.221
Mof_H 	H 	0.0433	0.1194	0.8737	-0.077
Mof_N 	N 	0.1381	0.8401	0.7347	-0.44
Mof_C 	C 	0.2742	0.8643	0.0925	-0.02
Mof_H 	H 	0.3239	0.8518	0.0806	-0.007
Mof_H 	H 	0.2499	0.8872	0.0689	-0.018
Mof_C 	C 	0.0736	0.1227	0.8054	-0.206
Mof_C 	C 	0.2113	0.9546	0.6561	-0.067
Mof_H 	H 	0.243	0.9868	0.6634	0.021
Mof_H 	H 	0.1619	0.9677	0.6442	0.015
Mof_C 	C 	0.3521	0.9184	0.4031	-1.419
Mof_H 	H 	0.3098	0.9441	0.4006	0.419
Mof_H 	H 	0.3547	0.9043	0.4342	0.401
Mof_H 	H 	0.3443	0.8881	0.382	0.4
Mof_C 	C 	0.4291	0.9484	0.3912	1.033
Mof_C 	C 	0.0844	0.6653	0.8096	-0.297
Mof_C 	C 	0.2518	0.9198	0.6189	-0.127
Mof_H 	H 	0.3051	0.9132	0.6284	0.05
Mof_H 	H 	0.2529	0.9407	0.5902	0.015
Mof_C 	C 	0.1069	0.7581	0.7785	-0.379
Mof_C 	C 	0.1013	0.2106	0.7611	-0.198
Mof_H 	H 	0.1213	0.1896	0.7367	0.054
Mof_C 	C 	0.0696	0.0417	0.8565	-0.444
Mof_C 	C 	0.3686	0.9404	0.2189	0.087
Mof_H 	H 	0.3734	0.9597	0.1911	-0.026
Mof_C 	C 	0.0846	0.7833	0.8215	0.543
Mof_C 	C 	0.1554	0.8669	0.6889	0.004
Mof_H 	H 	0.1054	0.8764	0.6748	-0.024
Mof_C 	C 	0.3888	0.969	0.2593	-0.322
Mof_C 	C 	0.3156	0.7297	0.2255	0.101
Mof_H 	H 	0.2935	0.7095	0.2014	0
Mof_C 	C 	0.1981	0.9221	0.6984	-0.044
Mof_H 	H 	0.2495	0.9122	0.7103	0.004
Mof_C 	C 	0.2117	0.8635	0.6104	-0.013
Mof_H 	H 	0.1619	0.8699	0.5956	-0.018
Mof_H 	H 	0.2432	0.8415	0.5894	-0.001
Mof_C 	C 	0.4965	0.9062	0.3899	-1.472
Mof_H 	H 	0.4874	0.8797	0.3656	0.445
Mof_H 	H 	0.4995	0.8871	0.4191	0.418
Mof_H 	H 	0.5444	0.9254	0.3842	0.448
Mof_C 	C 	0.1995	0.8322	0.6536	-0.176
Mof_H 	H 	0.2494	0.8216	0.6665	0.086
Mof_H 	H 	0.1706	0.7985	0.647	0.045
Mof_C 	C 	0.0423	0.5696	0.8336	-0.263
Mof_H 	H 	0.0113	0.5845	0.8569	0.121
Mof_O 	O 	0.0928	0.9528	0.8265	-0.766
Mof_C 	C 	0.4012	0.7567	0.4063	-1.809
Mof_H 	H 	0.3854	0.7866	0.3864	0.542
Mof_H 	H 	0.4268	0.7715	0.4331	0.521
Mof_H 	H 	0.3564	0.7359	0.4158	0.55
Mof_C 	C 	0.0434	0.0636	0.9421	-1.166
Mof_H 	H 	0.0857	0.0896	0.9418	0.342
Mof_H 	H 	0.9961	0.0826	0.9343	0.324
Mof_H 	H 	0.0387	0.0474	0.9724	0.319
Mof_C 	C 	0.2172	0.3178	0.4291	-0.004
Mof_H 	H 	0.1885	0.2993	0.4066	0.009
Mof_C 	C 	0.0913	0.3799	0.6073	-0.002
Mof_H 	H 	0.0384	0.3853	0.612	0.053
Mof_C 	C 	0.4576	0.718	0.3797	1.38
Mof_C 	C 	0.4895	0.6758	0.4123	-2.029
Mof_H 	H 	0.4537	0.6454	0.415	0.63
Mof_H 	H 	0.4972	0.6924	0.4422	0.612
Mof_H 	H 	0.5382	0.6623	0.4007	0.622
Mof_C 	C 	0.0587	0.0176	0.9064	0.84
Mof_C 	C 	0.1847	0.3264	0.4731	-0.095
Mof_H 	H 	0.1337	0.3158	0.4788	0.013
Mof_C 	C 	0.4453	0.9918	0.4284	-1.473
Mof_H 	H 	0.4954	0.0081	0.4232	0.433
Mof_H 	H 	0.4443	0.9744	0.4584	0.415
Mof_H 	H 	0.4062	0.0203	0.4271	0.436
Mof_C 	C 	0.1397	0.0002	0.739	0.123
Mof_H 	H 	0.1501	0.0198	0.7119	-0.035
Mof_C 	C 	0.0668	0.7487	0.8605	-0.851
Mof_C 	C 	0.5269	0.7552	0.3634	-1.742
Mof_H 	H 	0.572	0.7324	0.3587	0.53
Mof_H 	H 	0.5377	0.7828	0.3865	0.517
Mof_H 	H 	0.5134	0.7732	0.3348	0.52
Mof_C 	C 	0.4122	0.3436	0.108	-0.027
Mof_H 	H 	0.4647	0.3484	0.1143	0.057
Mof_C 	C 	0.2916	0.3364	0.4188	-0.087
Mof_C 	C 	0.1352	0.9877	0.9217	-1.166
Mof_H 	H 	0.1377	0.9516	0.9076	0.324
Mof_H 	H 	0.1358	0.9839	0.9548	0.321
Mof_H 	H 	0.1792	0.0094	0.912	0.344
Mof_C 	C 	0.0493	0.7744	0.9087	2.02
Mof_C 	C 	0.1211	0.8064	0.9235	-2.548
Mof_H 	H 	0.1605	0.7808	0.9334	0.76
Mof_H 	H 	0.1082	0.8309	0.9486	0.74
Mof_H 	H 	0.1401	0.8278	0.8978	0.75
Mof_C 	C 	0.9796	0.8139	0.906	-2.547
Mof_H 	H 	0.9975	0.8511	0.9002	0.754
Mof_H 	H 	0.9517	0.813	0.9348	0.744
Mof_H 	H 	0.9458	0.8024	0.8813	0.783
Mof_C 	C 	0.9898	0.9763	0.9074	-1.245
Mof_H 	H 	0.9426	0.9957	0.9002	0.37
Mof_H 	H 	0.9858	0.96	0.9377	0.335
Mof_H 	H 	0.9982	0.9475	0.8849	0.36
Mof_C 	C 	0.1301	0.7894	0.7372	0.153
Mof_H 	H 	0.1397	0.7691	0.7104	-0.027
Mof_C 	C 	0.0329	0.7297	0.9421	-2.765
Mof_H 	H 	0.9874	0.7097	0.9325	0.831
Mof_H 	H 	0.0763	0.7047	0.9434	0.844
Mof_H 	H 	0.0243	0.7455	0.9722	0.821
Mof_V 	V 	0.1413	0.89282	0.7927	1.268
Mof_V 	V 	0.4014	0.8297	0.2635	1.483
Mof_V 	V 	0.0869	0.8967	0.7775	1.367
Mof_O 	O 	4.70745e-33	0.9032	0.75	-0.895
Mof_O 	O 	0.5	0.8178	0.25	-0.905
Mof_Cd	Cd	0.09167	0.60539	0.20964	0.466
Mof_Cd	Cd	0.40779	0.66613	0.71069	0.458
Mof_O 	O 	0.3988	0.1105	0.6934	-0.847
Mof_N 	N 	0.0746	0.7004	0.2096	-0.158
Mof_N 	N 	0.4049	0.5701	0.7152	-0.166
Mof_V 	V 	0.32933	0.16059	0.72595	1.394
Mof_N 	N 	0.0853	0.5094	0.2049	-0.179
Mof_N 	N 	0.4181	0.761	0.712	-0.158
Mof_O 	O 	0.3318	0.6684	0.7758	-0.273
Mof_O 	O 	0.1037	0.6116	0.1303	-0.279
Mof_O 	O 	0.3996	0.664	0.632	-0.29
Mof_C 	C 	0.385	0.6663	0.807	0.285
Mof_O 	O 	0.4555	0.6617	0.7964	-0.287
Mof_O 	O 	0.0439	0.6014	0.2985	-0.291
Mof_C 	C 	0.1141	0.6073	0.3064	0.327
Mof_O 	O 	0.1637	0.6061	0.2757	-0.296
Mof_O 	O 	0.3818	0.2204	0.6934	-0.888
Mof_O 	O 	0.2149	0.6231	0.166	-0.278
Mof_C 	C 	0.1751	0.6241	0.1305	0.298
Mof_C 	C 	0.3968	0.453	0.7127	0.21
Mof_C 	C 	0.3588	0.6657	0.8558	-0.07
Mof_O 	O 	0.084	0.1627	0.174	-0.822
Mof_C 	C 	0.1416	0.6181	0.3551	-0.087
Mof_C 	C 	0.1191	0.6302	0.4373	-0.086
Mof_H 	H 	0.0847	0.6306	0.4622	0.046
Mof_C 	C 	0.3781	0.7926	0.7428	0.093
Mof_H 	H 	0.3494	0.7746	0.7656	-0.01
Mof_C 	C 	0.3842	0.6544	0.9379	-0.063
Mof_H 	H 	0.419	0.6483	0.962	0.032
Mof_O 	O 	0.2844	0.6759	0.6629	-0.276
Mof_C 	C 	0.2194	0.6282	0.3628	-0.002
Mof_H 	H 	0.2537	0.6289	0.3379	0.042
Mof_C 	C 	0.3776	0.8491	0.7423	-0.185
Mof_H 	H 	0.3496	0.8686	0.7646	0.045
Mof_C 	C 	0.3269	0.6692	0.6291	0.302
Mof_N 	N 	0.1554	0.0505	0.2622	-0.417
Mof_C 	C 	0.3833	0.2754	0.6977	0.487
Mof_N 	N 	0.3435	0.1107	0.7835	-0.433
Mof_C 	C 	0.1261	0.4768	0.2341	0.166
Mof_H 	H 	0.1579	0.4934	0.2562	-0.015
Mof_C 	C 	0.4192	0.8783	0.7081	0.151
Mof_C 	C 	0.4594	0.5389	0.6936	0.129
Mof_H 	H 	0.5004	0.5572	0.6792	-0.001
Mof_C 	C 	0.3043	0.6303	0.5031	-0.096
Mof_H 	H 	0.3333	0.6118	0.4806	0.041
Mof_C 	C 	0.083	0.3956	0.1948	0.245
Mof_C 	C 	0.1222	0.422	0.2323	-0.262
Mof_H 	H 	0.145	0.4007	0.2555	0.135
Mof_C 	C 	0.4222	0.3646	0.6707	0.372
Mof_H 	H 	0.4462	0.3867	0.6485	-0.131
Mof_C 	C 	0.0652	0.3073	0.1469	0.458
Mof_H 	H 	0.0507	0.3298	0.1221	-0.167
Mof_C 	C 	0.2556	0.6714	0.9107	-0.067
Mof_H 	H 	0.2031	0.6768	0.9165	0.004
Mof_C 	C 	0.07	0.8171	0.2007	0.153
Mof_C 	C 	0.2816	0.6736	0.8664	-0.023
Mof_H 	H 	0.2465	0.6805	0.8426	0.044
Mof_C 	C 	0.306	0.6614	0.9481	-0.013
Mof_C 	C 	0.4156	0.9401	0.7055	-0.204
Mof_C 	C 	0.0889	0.9933	0.1798	0.403
Mof_C 	C 	0.0463	0.4878	0.1716	0.165
Mof_H 	H 	0.0203	0.5107	0.1508	-0.008
Mof_N 	N 	0.3117	0.2173	0.7774	-0.426
Mof_C 	C 	0.3487	0.5428	0.7361	0.135
Mof_H 	H 	0.312	0.5632	0.7525	-0
Mof_C 	C 	0.3963	0.9721	0.7439	0.152
Mof_H 	H 	0.3882	0.9547	0.7723	-0.048
Mof_C 	C 	0.4576	0.4821	0.6919	-0.229
Mof_H 	H 	0.497	0.4628	0.6767	0.108
Mof_C 	C 	0.2283	0.6492	0.4918	0.013
Mof_C 	C 	0.1932	0.6407	0.9999	-0.106
Mof_H 	H 	0.1614	0.6404	0.9738	0.024
Mof_C 	C 	0.1615	0.6324	0.0436	0.003
Mof_H 	H 	0.1084	0.6266	0.0469	0.028
Mof_C 	C 	0.2091	0.6328	0.0825	-0.089
Mof_C 	C 	0.2885	0.6415	0.07767	0.011
Mof_H 	H 	0.3203	0.6418	0.1037	0
Mof_C 	C 	0.3202	0.6498	0.0339	-0.111
Mof_H 	H 	0.3733	0.6556	0.0306	0.03
Mof_C 	C 	0.2726	0.6494	0.99498	0.033
Mof_C 	C 	0.336	0.6386	0.5461	-0
Mof_H 	H 	0.3868	0.6277	0.5521	0.028
Mof_C 	C 	0.2469	0.6374	0.4074	-0.09
Mof_H 	H 	0.2999	0.6423	0.412	0.026
Mof_C 	C 	0.3506	0.3018	0.7377	-0.344
Mof_C 	C 	0.4036	0.0574	0.6969	0.442
Mof_C 	C 	0.4197	0.3083	0.663	-0.667
Mof_C 	C 	0.1061	0.2994	0.2275	0.236
Mof_H 	H 	0.1199	0.3147	0.2559	-0.046
Mof_C 	C 	0.3912	0.3907	0.7095	-0.279
Mof_C 	C 	0.4597	0.789	0.6809	0.103
Mof_H 	H 	0.4901	0.7686	0.6605	-0.007
Mof_C 	C 	0.3553	0.3593	0.7416	0.22
Mof_H 	H 	0.3329	0.3766	0.7672	-0.032
Mof_C 	C 	0.2868	0.1016	0.8647	-0.156
Mof_H 	H 	0.2374	0.0883	0.853	0.059
Mof_H 	H 	0.3191	0.0697	0.8719	0.03
Mof_C 	C 	0.0985	0.9112	0.2294	0.157
Mof_H 	H 	0.1092	0.8953	0.2581	-0.057
Mof_C 	C 	0.4291	0.9667	0.6635	0.237
Mof_H 	H 	0.444	0.9455	0.638	-0.087
Mof_C 	C 	0.3265	0.1376	0.8279	-0.001
Mof_H 	H 	0.3755	0.1513	0.8409	-0.037
Mof_C 	C 	0.3409	0.4854	0.7351	-0.234
Mof_H 	H 	0.2985	0.4686	0.7492	0.128
Mof_C 	C 	0.421	0.0244	0.658	-0.498
Mof_C 	C 	0.461	0.8465	0.6767	-0.198
Mof_H 	H 	0.4895	0.8634	0.6532	0.076
Mof_C 	C 	0.257	0.2228	0.8602	-0.081
Mof_H 	H 	0.3042	0.2402	0.8714	0.023
Mof_H 	H 	0.2202	0.2519	0.8524	0.057
Mof_C 	C 	0.1087	0.9685	0.2244	-0.31
Mof_C 	C 	0.2232	0.1857	0.8976	-0.12
Mof_H 	H 	0.1723	0.173	0.8879	0.049
Mof_H 	H 	0.2169	0.2071	0.9258	0.031
Mof_C 	C 	0.1977	0.6395	0.4451	0.014
Mof_C 	C 	0.0346	0.7808	0.1674	-0.193
Mof_H 	H 	0.009	0.7956	0.1418	0.075
Mof_C 	C 	0.0384	0.725	0.1732	0.104
Mof_H 	H 	0.0149	0.7024	0.1511	0
Mof_C 	C 	0.2746	0.1882	0.8173	-0.048
Mof_H 	H 	0.2249	0.1736	0.8062	0.005
Mof_C 	C 	0.1039	0.7336	0.2419	0.116
Mof_H 	H 	0.1272	0.7176	0.2678	-0.014
Mof_C 	C 	0.0597	0.9028	0.1509	0.221
Mof_H 	H 	0.0433	0.8806	0.1263	-0.077
Mof_N 	N 	0.1381	0.1599	0.2653	-0.44
Mof_C 	C 	0.2742	0.1357	0.9075	-0.02
Mof_H 	H 	0.3239	0.1482	0.9194	-0.007
Mof_H 	H 	0.2499	0.1128	0.9311	-0.018
Mof_C 	C 	0.0736	0.8773	0.1946	-0.206
Mof_C 	C 	0.2113	0.0454	0.3439	-0.067
Mof_H 	H 	0.243	0.0132	0.3366	0.021
Mof_H 	H 	0.1619	0.0323	0.3558	0.015
Mof_C 	C 	0.3521	0.0816	0.5969	-1.419
Mof_H 	H 	0.3098	0.0559	0.5994	0.419
Mof_H 	H 	0.3547	0.0957	0.5658	0.401
Mof_H 	H 	0.3443	0.1119	0.618	0.4
Mof_C 	C 	0.4291	0.0516	0.6088	1.033
Mof_C 	C 	0.0844	0.3347	0.1904	-0.297
Mof_C 	C 	0.2518	0.0802	0.3811	-0.127
Mof_H 	H 	0.3051	0.0868	0.3716	0.05
Mof_H 	H 	0.2529	0.0593	0.4098	0.015
Mof_C 	C 	0.1069	0.2419	0.2215	-0.379
Mof_C 	C 	0.1013	0.7894	0.2389	-0.198
Mof_H 	H 	0.1213	0.8104	0.2633	0.054
Mof_C 	C 	0.0696	0.9583	0.1435	-0.444
Mof_C 	C 	0.3686	0.0596	0.7811	0.087
Mof_H 	H 	0.3734	0.0403	0.8089	-0.026
Mof_C 	C 	0.0846	0.2167	0.1785	0.543
Mof_C 	C 	0.1554	0.1331	0.3111	0.004
Mof_H 	H 	0.1054	0.1236	0.3252	-0.024
Mof_C 	C 	0.3888	0.031	0.7407	-0.322
Mof_C 	C 	0.3156	0.2703	0.7745	0.101
Mof_H 	H 	0.2935	0.2905	0.7986	0
Mof_C 	C 	0.1981	0.0779	0.3016	-0.044
Mof_H 	H 	0.2495	0.0878	0.2897	0.004
Mof_C 	C 	0.2117	0.1365	0.3896	-0.013
Mof_H 	H 	0.1619	0.1301	0.4044	-0.018
Mof_H 	H 	0.2432	0.1585	0.4106	-0.001
Mof_C 	C 	0.4965	0.0938	0.6101	-1.472
Mof_H 	H 	0.4874	0.1203	0.6344	0.445
Mof_H 	H 	0.4995	0.1129	0.5809	0.418
Mof_H 	H 	0.5444	0.0746	0.6158	0.448
Mof_C 	C 	0.1995	0.1678	0.3464	-0.176
Mof_H 	H 	0.2494	0.1784	0.3335	0.086
Mof_H 	H 	0.1706	0.2015	0.353	0.045
Mof_C 	C 	0.0423	0.4304	0.1664	-0.263
Mof_H 	H 	0.0113	0.4155	0.1431	0.121
Mof_O 	O 	0.0928	0.0472	0.1735	-0.766
Mof_C 	C 	0.4012	0.2433	0.5937	-1.809
Mof_H 	H 	0.3854	0.2134	0.6136	0.542
Mof_H 	H 	0.4268	0.2285	0.5669	0.521
Mof_H 	H 	0.3564	0.2641	0.5842	0.55
Mof_C 	C 	0.0434	0.9364	0.0579	-1.166
Mof_H 	H 	0.0857	0.9104	0.0582	0.342
Mof_H 	H 	0.9961	0.9174	0.0657	0.324
Mof_H 	H 	0.0387	0.9526	0.0276	0.319
Mof_C 	C 	0.2172	0.6822	0.5709	-0.004
Mof_H 	H 	0.1885	0.7007	0.5934	0.009
Mof_C 	C 	0.0913	0.6201	0.3927	-0.002
Mof_H 	H 	0.0384	0.6147	0.388	0.053
Mof_C 	C 	0.4576	0.282	0.6203	1.38
Mof_C 	C 	0.4895	0.3242	0.5877	-2.029
Mof_H 	H 	0.4537	0.3546	0.585	0.63
Mof_H 	H 	0.4972	0.3076	0.5578	0.612
Mof_H 	H 	0.5382	0.3377	0.5993	0.622
Mof_C 	C 	0.0587	0.9824	0.0936	0.84
Mof_C 	C 	0.1847	0.6736	0.5269	-0.095
Mof_H 	H 	0.1337	0.6842	0.5212	0.013
Mof_C 	C 	0.4453	0.0082	0.5716	-1.473
Mof_H 	H 	0.4954	0.9919	0.5768	0.433
Mof_H 	H 	0.4443	0.0256	0.5416	0.415
Mof_H 	H 	0.4062	0.9797	0.5729	0.436
Mof_C 	C 	0.1397	0.9998	0.261	0.123
Mof_H 	H 	0.1501	0.9802	0.2881	-0.035
Mof_C 	C 	0.0668	0.2513	0.1395	-0.851
Mof_C 	C 	0.5269	0.2448	0.6366	-1.742
Mof_H 	H 	0.572	0.2676	0.6413	0.53
Mof_H 	H 	0.5377	0.2172	0.6135	0.517
Mof_H 	H 	0.5134	0.2268	0.6652	0.52
Mof_C 	C 	0.4122	0.6564	0.892	-0.027
Mof_H 	H 	0.4647	0.6516	0.8857	0.057
Mof_C 	C 	0.2916	0.6636	0.5812	-0.087
Mof_C 	C 	0.1352	0.0123	0.0783	-1.166
Mof_H 	H 	0.1377	0.0484	0.0924	0.324
Mof_H 	H 	0.1358	0.0161	0.0452	0.321
Mof_H 	H 	0.1792	0.9906	0.088	0.344
Mof_C 	C 	0.0493	0.2256	0.0913	2.02
Mof_C 	C 	0.1211	0.1936	0.0765	-2.548
Mof_H 	H 	0.1605	0.2192	0.0666	0.76
Mof_H 	H 	0.1082	0.1691	0.0514	0.74
Mof_H 	H 	0.1401	0.1722	0.1022	0.75
Mof_C 	C 	0.9796	0.1861	0.094	-2.547
Mof_H 	H 	0.9975	0.1489	0.0998	0.754
Mof_H 	H 	0.9517	0.187	0.0652	0.744
Mof_H 	H 	0.9458	0.1976	0.1187	0.783
Mof_C 	C 	0.9898	0.0237	0.0926	-1.245
Mof_H 	H 	0.9426	0.0043	0.0998	0.37
Mof_H 	H 	0.9858	0.04	0.0623	0.335
Mof_H 	H 	0.9982	0.0525	0.1151	0.36
Mof_C 	C 	0.1301	0.2106	0.2628	0.153
Mof_H 	H 	0.1397	0.2309	0.2896	-0.027
Mof_C 	C 	0.0329	0.2703	0.0579	-2.765
Mof_H 	H 	0.9874	0.2903	0.0675	0.831
Mof_H 	H 	0.0763	0.2953	0.0566	0.844
Mof_H 	H 	0.0243	0.2545	0.0278	0.821
Mof_V 	V 	0.1413	0.10718	0.2073	1.268
Mof_V 	V 	0.4014	0.1703	0.7365	1.483
Mof_V 	V 	0.0869	0.1033	0.2225	1.367
Mof_Cd	Cd	0.90833	0.60539	0.29036	0.453
Mof_Cd	Cd	0.59221	0.66613	0.78931	0.458
Mof_O 	O 	0.6012	0.1105	0.8066	-0.847
Mof_N 	N 	0.9254	0.7004	0.2904	-0.162
Mof_N 	N 	0.5951	0.5701	0.7848	-0.166
Mof_V 	V 	0.67067	0.16059	0.77405	1.394
Mof_N 	N 	0.9147	0.5094	0.2951	-0.182
Mof_N 	N 	0.5819	0.761	0.788	-0.158
Mof_O 	O 	0.6682	0.6684	0.7242	-0.273
Mof_O 	O 	0.8963	0.6116	0.3697	-0.287
Mof_O 	O 	0.6004	0.664	0.868	-0.29
Mof_C 	C 	0.615	0.6663	0.693	0.284
Mof_O 	O 	0.5445	0.6617	0.7036	-0.287
Mof_O 	O 	0.9561	0.6014	0.2015	-0.311
Mof_C 	C 	0.8859	0.6073	0.1936	0.331
Mof_O 	O 	0.8363	0.6061	0.2243	-0.298
Mof_O 	O 	0.6182	0.2204	0.8066	-0.888
Mof_O 	O 	0.7851	0.6231	0.334	-0.278
Mof_C 	C 	0.8249	0.6241	0.3695	0.301
Mof_C 	C 	0.6032	0.453	0.7873	0.21
Mof_C 	C 	0.6412	0.6657	0.6442	-0.069
Mof_O 	O 	0.916	0.1627	0.326	-0.834
Mof_C 	C 	0.8584	0.6181	0.1449	-0.096
Mof_C 	C 	0.8809	0.6302	0.0627	-0.093
Mof_H 	H 	0.9153	0.6306	0.0378	0.042
Mof_C 	C 	0.6219	0.7926	0.7572	0.092
Mof_H 	H 	0.6506	0.7746	0.7344	-0.009
Mof_C 	C 	0.6158	0.6544	0.5621	-0.062
Mof_H 	H 	0.581	0.6483	0.538	0.032
Mof_O 	O 	0.7156	0.6759	0.8371	-0.277
Mof_C 	C 	0.7806	0.6282	0.1372	0.002
Mof_H 	H 	0.7463	0.6289	0.1621	0.039
Mof_C 	C 	0.6224	0.8491	0.7577	-0.185
Mof_H 	H 	0.6504	0.8686	0.7354	0.045
Mof_C 	C 	0.6731	0.6692	0.8709	0.302
Mof_N 	N 	0.8446	0.0505	0.2378	-0.418
Mof_C 	C 	0.6167	0.2754	0.8023	0.486
Mof_N 	N 	0.6565	0.1107	0.7165	-0.433
Mof_C 	C 	0.8739	0.4768	0.2659	0.163
Mof_H 	H 	0.8421	0.4934	0.2438	-0.016
Mof_C 	C 	0.5808	0.8783	0.7919	0.151
Mof_C 	C 	0.5406	0.5389	0.8064	0.129
Mof_H 	H 	0.4996	0.5572	0.8208	-0.001
Mof_C 	C 	0.6957	0.6303	0.9969	-0.095
Mof_H 	H 	0.6667	0.6118	0.0194	0.04
Mof_C 	C 	0.917	0.3956	0.3052	0.244
Mof_C 	C 	0.8778	0.422	0.2677	-0.265
Mof_H 	H 	0.855	0.4007	0.2445	0.133
Mof_C 	C 	0.5778	0.3646	0.8293	0.372
Mof_H 	H 	0.5538	0.3867	0.8515	-0.131
Mof_C 	C 	0.9348	0.3073	0.3531	0.471
Mof_H 	H 	0.9493	0.3298	0.3779	-0.18
Mof_C 	C 	0.7444	0.6714	0.5893	-0.064
Mof_H 	H 	0.7969	0.6768	0.5835	0.001
Mof_C 	C 	0.93	0.8171	0.2993	0.151
Mof_C 	C 	0.7184	0.6736	0.6336	-0.026
Mof_H 	H 	0.7535	0.6805	0.6574	0.045
Mof_C 	C 	0.694	0.6614	0.5519	-0.015
Mof_C 	C 	0.5844	0.9401	0.7945	-0.204
Mof_C 	C 	0.9111	0.9933	0.3202	0.405
Mof_C 	C 	0.9537	0.4878	0.3284	0.162
Mof_H 	H 	0.9797	0.5107	0.3492	-0.017
Mof_N 	N 	0.6883	0.2173	0.7226	-0.426
Mof_C 	C 	0.6513	0.5428	0.7639	0.135
Mof_H 	H 	0.688	0.5632	0.7475	-0
Mof_C 	C 	0.6037	0.9721	0.7561	0.152
Mof_H 	H 	0.6118	0.9547	0.7277	-0.048
Mof_C 	C 	0.5424	0.4821	0.8081	-0.229
Mof_H 	H 	0.503	0.4628	0.8233	0.108
Mof_C 	C 	0.7717	0.6492	0.0082	0.011
Mof_C 	C 	0.8068	0.6407	0.5001	-0.11
Mof_H 	H 	0.8386	0.6404	0.5262	0.021
Mof_C 	C 	0.8385	0.6324	0.4564	0.006
Mof_H 	H 	0.8916	0.6266	0.4531	0.02
Mof_C 	C 	0.7909	0.6328	0.4175	-0.093
Mof_C 	C 	0.7115	0.6415	0.42233	0.014
Mof_H 	H 	0.6797	0.6418	0.3963	-0.001
Mof_C 	C 	0.6798	0.6498	0.4661	-0.114
Mof_H 	H 	0.6267	0.6556	0.4694	0.031
Mof_C 	C 	0.7274	0.6494	0.50502	0.035
Mof_C 	C 	0.664	0.6386	0.9539	-0.001
Mof_H 	H 	0.6132	0.6277	0.9479	0.029
Mof_C 	C 	0.7531	0.6374	0.0926	-0.095
Mof_H 	H 	0.7001	0.6423	0.088	0.028
Mof_C 	C 	0.6494	0.3018	0.7623	-0.344
Mof_C 	C 	0.5964	0.0574	0.8031	0.442
Mof_C 	C 	0.5803	0.3083	0.837	-0.666
Mof_C 	C 	0.8939	0.2994	0.2725	0.239
Mof_H 	H 	0.8801	0.3147	0.2441	-0.051
Mof_C 	C 	0.6088	0.3907	0.7905	-0.279
Mof_C 	C 	0.5403	0.789	0.8191	0.103
Mof_H 	H 	0.5099	0.7686	0.8395	-0.007
Mof_C 	C 	0.6447	0.3593	0.7584	0.22
Mof_H 	H 	0.6671	0.3766	0.7328	-0.032
Mof_C 	C 	0.7132	0.1016	0.6353	-0.156
Mof_H 	H 	0.7626	0.0883	0.647	0.059
Mof_H 	H 	0.6809	0.0697	0.6281	0.03
Mof_C 	C 	0.9015	0.9112	0.2706	0.159
Mof_H 	H 	0.8908	0.8953	0.2419	-0.062
Mof_C 	C 	0.5709	0.9667	0.8365	0.236
Mof_H 	H 	0.556	0.9455	0.862	-0.087
Mof_C 	C 	0.6735	0.1376	0.6721	-0.001
Mof_H 	H 	0.6245	0.1513	0.6591	-0.037
Mof_C 	C 	0.6591	0.4854	0.7649	-0.235
Mof_H 	H 	0.7015	0.4686	0.7508	0.128
Mof_C 	C 	0.579	0.0244	0.842	-0.498
Mof_C 	C 	0.539	0.8465	0.8233	-0.198
Mof_H 	H 	0.5105	0.8634	0.8468	0.076
Mof_C 	C 	0.743	0.2228	0.6398	-0.082
Mof_H 	H 	0.6958	0.2402	0.6286	0.024
Mof_H 	H 	0.7798	0.2519	0.6476	0.057
Mof_C 	C 	0.8913	0.9685	0.2756	-0.318
Mof_C 	C 	0.7768	0.1857	0.6024	-0.119
Mof_H 	H 	0.8277	0.173	0.6121	0.047
Mof_H 	H 	0.7831	0.2071	0.5742	0.029
Mof_C 	C 	0.8023	0.6395	0.0549	0.016
Mof_C 	C 	0.9654	0.7808	0.3326	-0.197
Mof_H 	H 	0.991	0.7956	0.3582	0.067
Mof_C 	C 	0.9616	0.725	0.3268	0.1
Mof_H 	H 	0.9851	0.7024	0.3489	-0.009
Mof_C 	C 	0.7254	0.1882	0.6827	-0.048
Mof_H 	H 	0.7751	0.1736	0.6938	0.005
Mof_C 	C 	0.8961	0.7336	0.2581	0.112
Mof_H 	H 	0.8728	0.7176	0.2322	-0.016
Mof_C 	C 	0.9403	0.9028	0.3491	0.228
Mof_H 	H 	0.9567	0.8806	0.3737	-0.088
Mof_N 	N 	0.8619	0.1599	0.2347	-0.442
Mof_C 	C 	0.7258	0.1357	0.5925	-0.02
Mof_H 	H 	0.6761	0.1482	0.5806	-0.008
Mof_H 	H 	0.7501	0.1128	0.5689	-0.02
Mof_C 	C 	0.9264	0.8773	0.3054	-0.215
Mof_C 	C 	0.7887	0.0454	0.1561	-0.063
Mof_H 	H 	0.757	0.0132	0.1634	0.019
Mof_H 	H 	0.8381	0.0323	0.1442	0.012
Mof_C 	C 	0.6479	0.0816	0.9031	-1.416
Mof_H 	H 	0.6902	0.0559	0.9006	0.417
Mof_H 	H 	0.6453	0.0957	0.9342	0.4
Mof_H 	H 	0.6557	0.1119	0.882	0.398
Mof_C 	C 	0.5709	0.0516	0.8912	1.031
Mof_C 	C 	0.9156	0.3347	0.3096	-0.308
Mof_C 	C 	0.7482	0.0802	0.1189	-0.13
Mof_H 	H 	0.6949	0.0868	0.1284	0.051
Mof_H 	H 	0.7471	0.0593	0.0902	0.015
Mof_C 	C 	0.8931	0.2419	0.2785	-0.388
Mof_C 	C 	0.8987	0.7894	0.2611	-0.201
Mof_H 	H 	0.8787	0.8104	0.2367	0.051
Mof_C 	C 	0.9304	0.9583	0.3565	-0.46
Mof_C 	C 	0.6314	0.0596	0.7189	0.087
Mof_H 	H 	0.6266	0.0403	0.6911	-0.026
Mof_C 	C 	0.9154	0.2167	0.3215	0.55
Mof_C 	C 	0.8446	0.1331	0.1889	0.006
Mof_H 	H 	0.8946	0.1236	0.1748	-0.029
Mof_C 	C 	0.6112	0.031	0.7593	-0.322
Mof_C 	C 	0.6844	0.2703	0.7255	0.101
Mof_H 	H 	0.7065	0.2905	0.7014	0.001
Mof_C 	C 	0.8019	0.0779	0.1984	-0.047
Mof_H 	H 	0.7505	0.0878	0.2103	0.005
Mof_C 	C 	0.7883	0.1365	0.1104	-0.01
Mof_H 	H 	0.8381	0.1301	0.0956	-0.02
Mof_H 	H 	0.7568	0.1585	0.0894	-0.002
Mof_C 	C 	0.5035	0.0938	0.8899	-1.47
Mof_H 	H 	0.5126	0.1203	0.8656	0.445
Mof_H 	H 	0.5005	0.1129	0.9191	0.418
Mof_H 	H 	0.4556	0.0746	0.8842	0.447
Mof_C 	C 	0.8005	0.1678	0.1536	-0.178
Mof_H 	H 	0.7506	0.1784	0.1665	0.086
Mof_H 	H 	0.8294	0.2015	0.147	0.045
Mof_C 	C 	0.9577	0.4304	0.3336	-0.267
Mof_H 	H 	0.9887	0.4155	0.3569	0.113
Mof_O 	O 	0.9072	0.0472	0.3265	-0.775
Mof_C 	C 	0.5988	0.2433	0.9063	-1.807
Mof_H 	H 	0.6146	0.2134	0.8864	0.542
Mof_H 	H 	0.5732	0.2285	0.9331	0.521
Mof_H 	H 	0.6436	0.2641	0.9158	0.549
Mof_C 	C 	0.9566	0.9364	0.4421	-1.301
Mof_H 	H 	0.9143	0.9104	0.4418	0.379
Mof_H 	H 	0.0039	0.9174	0.4343	0.389
Mof_H 	H 	0.9613	0.9526	0.4724	0.348
Mof_C 	C 	0.7828	0.6822	0.9291	-0.005
Mof_H 	H 	0.8115	0.7007	0.9066	0.008
Mof_C 	C 	0.9087	0.6201	0.1073	0.001
Mof_H 	H 	0.9616	0.6147	0.112	0.039
Mof_C 	C 	0.5424	0.282	0.8797	1.379
Mof_C 	C 	0.5105	0.3242	0.9123	-2.028
Mof_H 	H 	0.5463	0.3546	0.915	0.629
Mof_H 	H 	0.5028	0.3076	0.9422	0.611
Mof_H 	H 	0.4618	0.3377	0.9007	0.622
Mof_C 	C 	0.9413	0.9824	0.4064	0.852
Mof_C 	C 	0.8153	0.6736	0.9731	-0.095
Mof_H 	H 	0.8663	0.6842	0.9788	0.01
Mof_C 	C 	0.5547	0.0082	0.9284	-1.47
Mof_H 	H 	0.5046	0.9919	0.9232	0.432
Mof_H 	H 	0.5557	0.0256	0.9584	0.415
Mof_H 	H 	0.5938	0.9797	0.9271	0.435
Mof_C 	C 	0.8603	0.9998	0.239	0.123
Mof_H 	H 	0.8499	0.9802	0.2119	-0.038
Mof_C 	C 	0.9332	0.2513	0.3605	-0.88
Mof_C 	C 	0.4731	0.2448	0.8634	-1.741
Mof_H 	H 	0.428	0.2676	0.8587	0.53
Mof_H 	H 	0.4623	0.2172	0.8865	0.517
Mof_H 	H 	0.4866	0.2268	0.8348	0.519
Mof_C 	C 	0.5878	0.6564	0.608	-0.029
Mof_H 	H 	0.5353	0.6516	0.6143	0.058
Mof_C 	C 	0.7084	0.6636	0.9188	-0.087
Mof_C 	C 	0.8648	0.0123	0.4217	-1.179
Mof_H 	H 	0.8623	0.0484	0.4076	0.323
Mof_H 	H 	0.8642	0.0161	0.4548	0.321
Mof_H 	H 	0.8208	0.9906	0.412	0.348
Mof_C 	C 	0.9507	0.2256	0.4087	2.065
Mof_C 	C 	0.8789	0.1936	0.4235	-2.597
Mof_H 	H 	0.8395	0.2192	0.4334	0.774
Mof_H 	H 	0.8918	0.1691	0.4486	0.748
Mof_H 	H 	0.8599	0.1722	0.3978	0.762
Mof_C 	C 	0.0204	0.1861	0.406	-2.562
Mof_H 	H 	0.0025	0.1489	0.4002	0.77
Mof_H 	H 	0.0483	0.187	0.4348	0.755
Mof_H 	H 	0.0542	0.1976	0.3813	0.794
Mof_C 	C 	0.0102	0.0237	0.4074	-1.226
Mof_H 	H 	0.0574	0.0043	0.4002	0.37
Mof_H 	H 	0.0142	0.04	0.4377	0.339
Mof_H 	H 	0.0018	0.0525	0.3849	0.365
Mof_C 	C 	0.8699	0.2106	0.2372	0.153
Mof_H 	H 	0.8603	0.2309	0.2104	-0.03
Mof_C 	C 	0.9671	0.2703	0.4421	-2.946
Mof_H 	H 	0.0126	0.2903	0.4325	0.909
Mof_H 	H 	0.9237	0.2953	0.4434	0.895
Mof_H 	H 	0.9757	0.2545	0.4722	0.863
Mof_V 	V 	0.8587	0.10718	0.2927	1.269
Mof_V 	V 	0.5986	0.1703	0.7635	1.483
Mof_V 	V 	0.9131	0.1033	0.2775	1.362
Mof_O 	O 	-2.65754e-33	0.0968	0.25	-0.895
Mof_O 	O 	0.5	0.1822	0.75	-0.905
_end
