data_functionalizedCrystal
_audit_creation_method	'EQeq! by Chris Wilmer'
_symmetry_space_group_name_H-M	'P1'
_symmetry_Int_Tables_number	1
_symmetry_cell_setting	triclinic
loop_
_symmetry_equiv_pos_as_xyz
  x,y,z
_cell_length_a	33.7553
_cell_length_b	33.7553
_cell_length_c	33.7553
_cell_angle_alpha	90
_cell_angle_beta	90
_cell_angle_gamma	90
loop_
_atom_site_label
_atom_site_type_symbol
_atom_site_fract_x
_atom_site_fract_y
_atom_site_fract_z
_atom_site_charge
Mof_Zn	Zn	0.22596	0.26854	0.30169	1.214
Mof_C 	C 	0.15514	0.2236	0.276	0.445
Mof_C 	C 	0.11436	0.2107	0.2871	-0.21
Mof_C 	C 	0.0962	0.2263	0.3196	0.143
Mof_H 	H 	0.1095	0.2456	0.334	-0.002
Mof_C 	C 	0.0586	0.2148	0.3322	-0.231
Mof_H 	H 	0.0465	0.2265	0.354	0.118
Mof_C 	C 	0.0403	0.1849	0.3108	0.195
Mof_C 	C 	0.0574	0.17	0.278	-0.235
Mof_H 	H 	0.0437	0.1514	0.263	0.118
Mof_C 	C 	0.0954	0.1819	0.2659	0.143
Mof_H 	H 	0.1074	0.1704	0.244	-0.004
Mof_C 	C 	0.00471	0.1394	0.355	0.035
Mof_C 	C 	0.0391	0.1257	0.3716	-0.094
Mof_H 	H 	0.0634	0.1354	0.3627	0.072
Mof_C 	C 	0.0382	0.098	0.401	0.011
Mof_H 	H 	0.062	0.0892	0.4118	0.044
Mof_C 	C 	0.0031	0.0827	0.4153	-0.066
Mof_C 	C 	0.96815	0.0967	0.3987	-0.078
Mof_H 	H 	0.944	0.0873	0.4079	0.09
Mof_C 	C 	0.9689	0.124	0.3691	0.133
Mof_C 	C 	0.93236	0.1648	0.3259	0.118
Mof_C 	C 	0.96757	0.1833	0.3124	0.06
Mof_C 	C 	0.964	0.2131	0.2845	-0.105
Mof_H 	H 	0.9867	0.2247	0.2741	0.079
Mof_C 	C 	0.92683	0.226	0.2718	0.019
Mof_H 	H 	0.9248	0.2469	0.2541	0.04
Mof_C 	C 	0.89302	0.2076	0.2857	-0.077
Mof_C 	C 	0.89576	0.1778	0.3135	-0.078
Mof_H 	H 	0.8729	0.1665	0.3238	0.087
Mof_C 	C 	0.002	0.05213	0.44687	0.342
Mof_C 	C 	0.85238	0.2196	0.2728	0.383
Mof_N 	N 	0.00364	0.1685	0.3251	-0.153
Mof_O 	O 	0.17244	0.24622	0.29942	-0.52
Mof_O 	O 	0.1689	0.21035	0.24417	-0.513
Mof_O 	O 	0.93311	0.1347	0.353	-0.224
Mof_O 	O 	0.96858	0.04004	0.45802	-0.396
Mof_O 	O 	0.03484	0.04125	0.46011	-0.41
Mof_O 	O 	0.82479	0.19759	0.28348	-0.517
Mof_O 	O 	0.84969	0.24993	0.2506	-0.505
Mof_Zn	Zn	0.72596	0.76854	0.80169	1.213
Mof_C 	C 	0.65514	0.7236	0.776	0.444
Mof_C 	C 	0.61436	0.7107	0.7871	-0.211
Mof_C 	C 	0.5962	0.7263	0.8196	0.144
Mof_H 	H 	0.6095	0.7456	0.834	-0.002
Mof_C 	C 	0.5586	0.7148	0.8322	-0.232
Mof_H 	H 	0.5465	0.7265	0.854	0.12
Mof_C 	C 	0.5403	0.6849	0.8108	0.197
Mof_C 	C 	0.5574	0.67	0.778	-0.236
Mof_H 	H 	0.5437	0.6514	0.763	0.12
Mof_C 	C 	0.5954	0.6819	0.7659	0.144
Mof_H 	H 	0.6074	0.6704	0.744	-0.004
Mof_C 	C 	0.50471	0.6394	0.855	0.044
Mof_C 	C 	0.5391	0.6257	0.8716	-0.094
Mof_H 	H 	0.5634	0.6354	0.8627	0.072
Mof_C 	C 	0.5382	0.598	0.901	0.009
Mof_H 	H 	0.562	0.5892	0.9118	0.046
Mof_C 	C 	0.5031	0.5827	0.9153	-0.055
Mof_C 	C 	0.46815	0.5967	0.8987	-0.09
Mof_H 	H 	0.444	0.5873	0.9079	0.093
Mof_C 	C 	0.4689	0.624	0.8691	0.126
Mof_C 	C 	0.43236	0.6648	0.8259	0.12
Mof_C 	C 	0.46757	0.6833	0.8124	0.049
Mof_C 	C 	0.464	0.7131	0.7845	-0.101
Mof_H 	H 	0.4867	0.7247	0.7741	0.073
Mof_C 	C 	0.42683	0.726	0.7718	0.014
Mof_H 	H 	0.4248	0.7469	0.7541	0.04
Mof_C 	C 	0.39302	0.7076	0.7857	-0.074
Mof_C 	C 	0.39576	0.6778	0.8135	-0.08
Mof_H 	H 	0.3729	0.6665	0.8238	0.089
Mof_C 	C 	0.502	0.55213	0.94687	0.351
Mof_C 	C 	0.35238	0.7196	0.7728	0.382
Mof_N 	N 	0.50364	0.6685	0.8251	-0.149
Mof_O 	O 	0.67244	0.74622	0.79942	-0.519
Mof_O 	O 	0.6689	0.71035	0.74417	-0.512
Mof_O 	O 	0.43311	0.6347	0.853	-0.224
Mof_O 	O 	0.46858	0.54004	0.95802	-0.398
Mof_O 	O 	0.53484	0.54125	0.96011	-0.404
Mof_O 	O 	0.32479	0.69759	0.78348	-0.516
Mof_O 	O 	0.34969	0.74993	0.7506	-0.505
Mof_Zn	Zn	0.77404	0.73146	0.30169	1.213
Mof_C 	C 	0.84486	0.7764	0.276	0.445
Mof_C 	C 	0.88564	0.7893	0.2871	-0.211
Mof_C 	C 	0.9038	0.7737	0.3196	0.145
Mof_H 	H 	0.8905	0.7544	0.334	-0.002
Mof_C 	C 	0.9414	0.7852	0.3322	-0.233
Mof_H 	H 	0.9535	0.7735	0.354	0.122
Mof_C 	C 	0.9597	0.8151	0.3108	0.2
Mof_C 	C 	0.9426	0.83	0.278	-0.237
Mof_H 	H 	0.9563	0.8486	0.263	0.123
Mof_C 	C 	0.9046	0.8181	0.2659	0.145
Mof_H 	H 	0.8926	0.8296	0.244	-0.003
Mof_C 	C 	0.99529	0.8606	0.355	0.054
Mof_C 	C 	0.9609	0.8743	0.3716	-0.096
Mof_H 	H 	0.9366	0.8646	0.3627	0.073
Mof_C 	C 	0.9618	0.902	0.401	0.01
Mof_H 	H 	0.938	0.9108	0.4118	0.046
Mof_C 	C 	0.9969	0.9173	0.4153	-0.047
Mof_C 	C 	0.03185	0.9033	0.3987	-0.1
Mof_H 	H 	0.056	0.9127	0.4079	0.096
Mof_C 	C 	0.0311	0.876	0.3691	0.118
Mof_C 	C 	0.06764	0.8352	0.3259	0.122
Mof_C 	C 	0.03243	0.8167	0.3124	0.039
Mof_C 	C 	0.036	0.7869	0.2845	-0.096
Mof_H 	H 	0.0133	0.7753	0.2741	0.068
Mof_C 	C 	0.07317	0.774	0.2718	0.01
Mof_H 	H 	0.0752	0.7531	0.2541	0.04
Mof_C 	C 	0.10698	0.7924	0.2857	-0.073
Mof_C 	C 	0.10424	0.8222	0.3135	-0.083
Mof_H 	H 	0.1271	0.8335	0.3238	0.089
Mof_C 	C 	0.998	0.94787	0.44687	0.361
Mof_C 	C 	0.14762	0.7804	0.2728	0.381
Mof_N 	N 	0.99636	0.8315	0.3251	-0.145
Mof_O 	O 	0.82756	0.75378	0.29942	-0.519
Mof_O 	O 	0.8311	0.78965	0.24417	-0.512
Mof_O 	O 	0.06689	0.8653	0.353	-0.224
Mof_O 	O 	0.03142	0.95996	0.45802	-0.407
Mof_O 	O 	0.96516	0.95875	0.46011	-0.405
Mof_O 	O 	0.17521	0.80241	0.28348	-0.516
Mof_O 	O 	0.15031	0.75007	0.2506	-0.506
Mof_Zn	Zn	0.27404	0.23146	0.80169	1.213
Mof_C 	C 	0.34486	0.2764	0.776	0.444
Mof_C 	C 	0.38564	0.2893	0.7871	-0.211
Mof_C 	C 	0.4038	0.2737	0.8196	0.144
Mof_H 	H 	0.3905	0.2544	0.834	-0.002
Mof_C 	C 	0.4414	0.2852	0.8322	-0.232
Mof_H 	H 	0.4535	0.2735	0.854	0.12
Mof_C 	C 	0.4597	0.3151	0.8108	0.197
Mof_C 	C 	0.4426	0.33	0.778	-0.236
Mof_H 	H 	0.4563	0.3486	0.763	0.12
Mof_C 	C 	0.4046	0.3181	0.7659	0.144
Mof_H 	H 	0.3926	0.3296	0.744	-0.004
Mof_C 	C 	0.49529	0.3606	0.855	0.044
Mof_C 	C 	0.4609	0.3743	0.8716	-0.094
Mof_H 	H 	0.4366	0.3646	0.8627	0.072
Mof_C 	C 	0.4618	0.402	0.901	0.009
Mof_H 	H 	0.438	0.4108	0.9118	0.046
Mof_C 	C 	0.4969	0.4173	0.9153	-0.055
Mof_C 	C 	0.53185	0.4033	0.8987	-0.09
Mof_H 	H 	0.556	0.4127	0.9079	0.093
Mof_C 	C 	0.5311	0.376	0.8691	0.126
Mof_C 	C 	0.56764	0.3352	0.8259	0.12
Mof_C 	C 	0.53243	0.3167	0.8124	0.049
Mof_C 	C 	0.536	0.2869	0.7845	-0.101
Mof_H 	H 	0.5133	0.2753	0.7741	0.073
Mof_C 	C 	0.57317	0.274	0.7718	0.014
Mof_H 	H 	0.5752	0.2531	0.7541	0.04
Mof_C 	C 	0.60698	0.2924	0.7857	-0.075
Mof_C 	C 	0.60424	0.3222	0.8135	-0.08
Mof_H 	H 	0.6271	0.3335	0.8238	0.088
Mof_C 	C 	0.498	0.44787	0.94687	0.351
Mof_C 	C 	0.64762	0.2804	0.7728	0.382
Mof_N 	N 	0.49636	0.3315	0.8251	-0.149
Mof_O 	O 	0.32756	0.25378	0.79942	-0.519
Mof_O 	O 	0.3311	0.28965	0.74417	-0.512
Mof_O 	O 	0.56689	0.3653	0.853	-0.224
Mof_O 	O 	0.53142	0.45996	0.95802	-0.398
Mof_O 	O 	0.46516	0.45875	0.96011	-0.404
Mof_O 	O 	0.67521	0.30241	0.78348	-0.516
Mof_O 	O 	0.65031	0.25007	0.7506	-0.505
Mof_Zn	Zn	0.77404	0.26854	0.69831	1.213
Mof_C 	C 	0.84486	0.2236	0.724	0.445
Mof_C 	C 	0.88564	0.2107	0.7129	-0.212
Mof_C 	C 	0.9038	0.2263	0.6804	0.145
Mof_H 	H 	0.8905	0.2456	0.666	-0.002
Mof_C 	C 	0.9414	0.2148	0.6678	-0.233
Mof_H 	H 	0.9535	0.2265	0.646	0.121
Mof_C 	C 	0.9597	0.1849	0.6892	0.199
Mof_C 	C 	0.9426	0.17	0.722	-0.237
Mof_H 	H 	0.9563	0.1514	0.737	0.122
Mof_C 	C 	0.9046	0.1819	0.7341	0.145
Mof_H 	H 	0.8926	0.1704	0.756	-0.004
Mof_C 	C 	0.99529	0.1394	0.645	0.055
Mof_C 	C 	0.9609	0.1257	0.6284	-0.098
Mof_H 	H 	0.9366	0.1354	0.6373	0.073
Mof_C 	C 	0.9618	0.098	0.599	0.011
Mof_H 	H 	0.938	0.0892	0.5882	0.044
Mof_C 	C 	0.9969	0.0827	0.5847	-0.05
Mof_C 	C 	0.03185	0.0967	0.6013	-0.099
Mof_H 	H 	0.056	0.0873	0.5921	0.093
Mof_C 	C 	0.0311	0.124	0.6309	0.117
Mof_C 	C 	0.06764	0.1648	0.6741	0.121
Mof_C 	C 	0.03243	0.1833	0.6876	0.039
Mof_C 	C 	0.036	0.2131	0.7155	-0.097
Mof_H 	H 	0.0133	0.2247	0.7259	0.068
Mof_C 	C 	0.07317	0.226	0.7282	0.01
Mof_H 	H 	0.0752	0.2469	0.7459	0.04
Mof_C 	C 	0.10698	0.2076	0.7143	-0.073
Mof_C 	C 	0.10424	0.1778	0.6865	-0.083
Mof_H 	H 	0.1271	0.1665	0.6762	0.088
Mof_C 	C 	0.998	0.05213	0.55313	0.362
Mof_C 	C 	0.14762	0.2196	0.7272	0.381
Mof_N 	N 	0.99636	0.1685	0.6749	-0.145
Mof_O 	O 	0.82756	0.24622	0.70058	-0.519
Mof_O 	O 	0.8311	0.21035	0.75583	-0.512
Mof_O 	O 	0.06689	0.1347	0.647	-0.225
Mof_O 	O 	0.03142	0.04004	0.54198	-0.413
Mof_O 	O 	0.96516	0.04125	0.53989	-0.411
Mof_O 	O 	0.17521	0.19759	0.71652	-0.517
Mof_O 	O 	0.15031	0.24993	0.7494	-0.506
Mof_Zn	Zn	0.27404	0.76854	0.19831	1.213
Mof_C 	C 	0.34486	0.7236	0.224	0.444
Mof_C 	C 	0.38564	0.7107	0.2129	-0.211
Mof_C 	C 	0.4038	0.7263	0.1804	0.144
Mof_H 	H 	0.3905	0.7456	0.166	-0.003
Mof_C 	C 	0.4414	0.7148	0.1678	-0.232
Mof_H 	H 	0.4535	0.7265	0.146	0.119
Mof_C 	C 	0.4597	0.6849	0.1892	0.197
Mof_C 	C 	0.4426	0.67	0.222	-0.236
Mof_H 	H 	0.4563	0.6514	0.237	0.12
Mof_C 	C 	0.4046	0.6819	0.2341	0.144
Mof_H 	H 	0.3926	0.6704	0.256	-0.004
Mof_C 	C 	0.49529	0.6394	0.145	0.044
Mof_C 	C 	0.4609	0.6257	0.1284	-0.096
Mof_H 	H 	0.4366	0.6354	0.1373	0.072
Mof_C 	C 	0.4618	0.598	0.099	0.01
Mof_H 	H 	0.438	0.5892	0.0882	0.043
Mof_C 	C 	0.4969	0.5827	0.0847	-0.059
Mof_C 	C 	0.53185	0.5967	0.1013	-0.089
Mof_H 	H 	0.556	0.5873	0.0921	0.091
Mof_C 	C 	0.5311	0.624	0.1309	0.124
Mof_C 	C 	0.56764	0.6648	0.1741	0.119
Mof_C 	C 	0.53243	0.6833	0.1876	0.049
Mof_C 	C 	0.536	0.7131	0.2155	-0.101
Mof_H 	H 	0.5133	0.7247	0.2259	0.073
Mof_C 	C 	0.57317	0.726	0.2282	0.014
Mof_H 	H 	0.5752	0.7469	0.2459	0.04
Mof_C 	C 	0.60698	0.7076	0.2143	-0.075
Mof_C 	C 	0.60424	0.6778	0.1865	-0.081
Mof_H 	H 	0.6271	0.6665	0.1762	0.088
Mof_C 	C 	0.498	0.55213	0.05313	0.352
Mof_C 	C 	0.64762	0.7196	0.2272	0.382
Mof_N 	N 	0.49636	0.6685	0.1749	-0.149
Mof_O 	O 	0.32756	0.74622	0.20058	-0.52
Mof_O 	O 	0.3311	0.71035	0.25583	-0.512
Mof_O 	O 	0.56689	0.6347	0.147	-0.225
Mof_O 	O 	0.53142	0.54004	0.04198	-0.405
Mof_O 	O 	0.46516	0.54125	0.03989	-0.411
Mof_O 	O 	0.67521	0.69759	0.21652	-0.517
Mof_O 	O 	0.65031	0.74993	0.2494	-0.505
Mof_Zn	Zn	0.22596	0.73146	0.69831	1.213
Mof_C 	C 	0.15514	0.7764	0.724	0.444
Mof_C 	C 	0.11436	0.7893	0.7129	-0.211
Mof_C 	C 	0.0962	0.7737	0.6804	0.143
Mof_H 	H 	0.1095	0.7544	0.666	-0.003
Mof_C 	C 	0.0586	0.7852	0.6678	-0.232
Mof_H 	H 	0.0465	0.7735	0.646	0.117
Mof_C 	C 	0.0403	0.8151	0.6892	0.195
Mof_C 	C 	0.0574	0.83	0.722	-0.236
Mof_H 	H 	0.0437	0.8486	0.737	0.119
Mof_C 	C 	0.0954	0.8181	0.7341	0.143
Mof_H 	H 	0.1074	0.8296	0.756	-0.003
Mof_C 	C 	0.00471	0.8606	0.645	0.034
Mof_C 	C 	0.0391	0.8743	0.6284	-0.093
Mof_H 	H 	0.0634	0.8646	0.6373	0.071
Mof_C 	C 	0.0382	0.902	0.599	0.009
Mof_H 	H 	0.062	0.9108	0.5882	0.045
Mof_C 	C 	0.0031	0.9173	0.5847	-0.064
Mof_C 	C 	0.96815	0.9033	0.6013	-0.08
Mof_H 	H 	0.944	0.9127	0.5921	0.091
Mof_C 	C 	0.9689	0.876	0.6309	0.133
Mof_C 	C 	0.93236	0.8352	0.6741	0.118
Mof_C 	C 	0.96757	0.8167	0.6876	0.059
Mof_C 	C 	0.964	0.7869	0.7155	-0.105
Mof_H 	H 	0.9867	0.7753	0.7259	0.078
Mof_C 	C 	0.92683	0.774	0.7282	0.018
Mof_H 	H 	0.9248	0.7531	0.7459	0.04
Mof_C 	C 	0.89302	0.7924	0.7143	-0.076
Mof_C 	C 	0.89576	0.8222	0.6865	-0.078
Mof_H 	H 	0.8729	0.8335	0.6762	0.088
Mof_C 	C 	0.002	0.94787	0.55313	0.341
Mof_C 	C 	0.85238	0.7804	0.7272	0.383
Mof_N 	N 	0.00364	0.8315	0.6749	-0.153
Mof_O 	O 	0.17244	0.75378	0.70058	-0.519
Mof_O 	O 	0.1689	0.78965	0.75583	-0.512
Mof_O 	O 	0.93311	0.8653	0.647	-0.223
Mof_O 	O 	0.96858	0.95996	0.54198	-0.39
Mof_O 	O 	0.03484	0.95875	0.53989	-0.403
Mof_O 	O 	0.82479	0.80241	0.71652	-0.516
Mof_O 	O 	0.84969	0.75007	0.7494	-0.505
Mof_Zn	Zn	0.72596	0.23146	0.19831	1.213
Mof_C 	C 	0.65514	0.2764	0.224	0.444
Mof_C 	C 	0.61436	0.2893	0.2129	-0.212
Mof_C 	C 	0.5962	0.2737	0.1804	0.144
Mof_H 	H 	0.6095	0.2544	0.166	-0.003
Mof_C 	C 	0.5586	0.2852	0.1678	-0.232
Mof_H 	H 	0.5465	0.2735	0.146	0.118
Mof_C 	C 	0.5403	0.3151	0.1892	0.197
Mof_C 	C 	0.5574	0.33	0.222	-0.236
Mof_H 	H 	0.5437	0.3486	0.237	0.12
Mof_C 	C 	0.5954	0.3181	0.2341	0.144
Mof_H 	H 	0.6074	0.3296	0.256	-0.004
Mof_C 	C 	0.50471	0.3606	0.145	0.044
Mof_C 	C 	0.5391	0.3743	0.1284	-0.096
Mof_H 	H 	0.5634	0.3646	0.1373	0.072
Mof_C 	C 	0.5382	0.402	0.099	0.01
Mof_H 	H 	0.562	0.4108	0.0882	0.043
Mof_C 	C 	0.5031	0.4173	0.0847	-0.059
Mof_C 	C 	0.46815	0.4033	0.1013	-0.089
Mof_H 	H 	0.444	0.4127	0.0921	0.091
Mof_C 	C 	0.4689	0.376	0.1309	0.124
Mof_C 	C 	0.43236	0.3352	0.1741	0.119
Mof_C 	C 	0.46757	0.3167	0.1876	0.049
Mof_C 	C 	0.464	0.2869	0.2155	-0.101
Mof_H 	H 	0.4867	0.2753	0.2259	0.073
Mof_C 	C 	0.42683	0.274	0.2282	0.014
Mof_H 	H 	0.4248	0.2531	0.2459	0.04
Mof_C 	C 	0.39302	0.2924	0.2143	-0.075
Mof_C 	C 	0.39576	0.3222	0.1865	-0.081
Mof_H 	H 	0.3729	0.3335	0.1762	0.088
Mof_C 	C 	0.502	0.44787	0.05313	0.352
Mof_C 	C 	0.35238	0.2804	0.2272	0.382
Mof_N 	N 	0.50364	0.3315	0.1749	-0.149
Mof_O 	O 	0.67244	0.25378	0.20058	-0.52
Mof_O 	O 	0.6689	0.28965	0.25583	-0.512
Mof_O 	O 	0.43311	0.3653	0.147	-0.225
Mof_O 	O 	0.46858	0.45996	0.04198	-0.405
Mof_O 	O 	0.53484	0.45875	0.03989	-0.411
Mof_O 	O 	0.32479	0.30241	0.21652	-0.517
Mof_O 	O 	0.34969	0.25007	0.2494	-0.506
Mof_Zn	Zn	0.30169	0.22596	0.26854	1.213
Mof_C 	C 	0.276	0.15514	0.2236	0.444
Mof_C 	C 	0.2871	0.11436	0.2107	-0.211
Mof_C 	C 	0.3196	0.0962	0.2263	0.142
Mof_H 	H 	0.334	0.1095	0.2456	-0.003
Mof_C 	C 	0.3322	0.0586	0.2148	-0.232
Mof_H 	H 	0.354	0.0465	0.2265	0.117
Mof_C 	C 	0.3108	0.0403	0.1849	0.194
Mof_C 	C 	0.278	0.0574	0.17	-0.236
Mof_H 	H 	0.263	0.0437	0.1514	0.117
Mof_C 	C 	0.2659	0.0954	0.1819	0.142
Mof_H 	H 	0.244	0.1074	0.1704	-0.005
Mof_C 	C 	0.355	0.00471	0.1394	0.034
Mof_C 	C 	0.3716	0.0391	0.1257	-0.095
Mof_H 	H 	0.3627	0.0634	0.1354	0.071
Mof_C 	C 	0.401	0.0382	0.098	0.01
Mof_H 	H 	0.4118	0.062	0.0892	0.043
Mof_C 	C 	0.4153	0.0031	0.0827	-0.067
Mof_C 	C 	0.3987	0.96815	0.0967	-0.079
Mof_H 	H 	0.4079	0.944	0.0873	0.089
Mof_C 	C 	0.3691	0.9689	0.124	0.132
Mof_C 	C 	0.3259	0.93236	0.1648	0.117
Mof_C 	C 	0.3124	0.96757	0.1833	0.059
Mof_C 	C 	0.2845	0.964	0.2131	-0.106
Mof_H 	H 	0.2741	0.9867	0.2247	0.078
Mof_C 	C 	0.2718	0.92683	0.226	0.018
Mof_H 	H 	0.2541	0.9248	0.2469	0.039
Mof_C 	C 	0.2857	0.89302	0.2076	-0.077
Mof_C 	C 	0.3135	0.89576	0.1778	-0.078
Mof_H 	H 	0.3238	0.8729	0.1665	0.087
Mof_C 	C 	0.44687	0.002	0.05213	0.342
Mof_C 	C 	0.2728	0.85238	0.2196	0.383
Mof_N 	N 	0.3251	0.00364	0.1685	-0.153
Mof_O 	O 	0.29942	0.17244	0.24622	-0.52
Mof_O 	O 	0.24417	0.1689	0.21035	-0.513
Mof_O 	O 	0.353	0.93311	0.1347	-0.224
Mof_O 	O 	0.45802	0.96858	0.04004	-0.396
Mof_O 	O 	0.46011	0.03484	0.04125	-0.41
Mof_O 	O 	0.28348	0.82479	0.19759	-0.517
Mof_O 	O 	0.2506	0.84969	0.24993	-0.505
Mof_Zn	Zn	0.80169	0.72596	0.76854	1.213
Mof_C 	C 	0.776	0.65514	0.7236	0.444
Mof_C 	C 	0.7871	0.61436	0.7107	-0.211
Mof_C 	C 	0.8196	0.5962	0.7263	0.144
Mof_H 	H 	0.834	0.6095	0.7456	-0.002
Mof_C 	C 	0.8322	0.5586	0.7148	-0.232
Mof_H 	H 	0.854	0.5465	0.7265	0.12
Mof_C 	C 	0.8108	0.5403	0.6849	0.197
Mof_C 	C 	0.778	0.5574	0.67	-0.236
Mof_H 	H 	0.763	0.5437	0.6514	0.12
Mof_C 	C 	0.7659	0.5954	0.6819	0.144
Mof_H 	H 	0.744	0.6074	0.6704	-0.004
Mof_C 	C 	0.855	0.50471	0.6394	0.044
Mof_C 	C 	0.8716	0.5391	0.6257	-0.094
Mof_H 	H 	0.8627	0.5634	0.6354	0.072
Mof_C 	C 	0.901	0.5382	0.598	0.009
Mof_H 	H 	0.9118	0.562	0.5892	0.046
Mof_C 	C 	0.9153	0.5031	0.5827	-0.055
Mof_C 	C 	0.8987	0.46815	0.5967	-0.09
Mof_H 	H 	0.9079	0.444	0.5873	0.093
Mof_C 	C 	0.8691	0.4689	0.624	0.126
Mof_C 	C 	0.8259	0.43236	0.6648	0.12
Mof_C 	C 	0.8124	0.46757	0.6833	0.049
Mof_C 	C 	0.7845	0.464	0.7131	-0.101
Mof_H 	H 	0.7741	0.4867	0.7247	0.073
Mof_C 	C 	0.7718	0.42683	0.726	0.014
Mof_H 	H 	0.7541	0.4248	0.7469	0.04
Mof_C 	C 	0.7857	0.39302	0.7076	-0.074
Mof_C 	C 	0.8135	0.39576	0.6778	-0.08
Mof_H 	H 	0.8238	0.3729	0.6665	0.089
Mof_C 	C 	0.94687	0.502	0.55213	0.351
Mof_C 	C 	0.7728	0.35238	0.7196	0.382
Mof_N 	N 	0.8251	0.50364	0.6685	-0.149
Mof_O 	O 	0.79942	0.67244	0.74622	-0.519
Mof_O 	O 	0.74417	0.6689	0.71035	-0.512
Mof_O 	O 	0.853	0.43311	0.6347	-0.224
Mof_O 	O 	0.95802	0.46858	0.54004	-0.398
Mof_O 	O 	0.96011	0.53484	0.54125	-0.404
Mof_O 	O 	0.78348	0.32479	0.69759	-0.516
Mof_O 	O 	0.7506	0.34969	0.74993	-0.505
Mof_Zn	Zn	0.30169	0.77404	0.73146	1.213
Mof_C 	C 	0.276	0.84486	0.7764	0.445
Mof_C 	C 	0.2871	0.88564	0.7893	-0.211
Mof_C 	C 	0.3196	0.9038	0.7737	0.145
Mof_H 	H 	0.334	0.8905	0.7544	-0.002
Mof_C 	C 	0.3322	0.9414	0.7852	-0.233
Mof_H 	H 	0.354	0.9535	0.7735	0.122
Mof_C 	C 	0.3108	0.9597	0.8151	0.2
Mof_C 	C 	0.278	0.9426	0.83	-0.237
Mof_H 	H 	0.263	0.9563	0.8486	0.123
Mof_C 	C 	0.2659	0.9046	0.8181	0.145
Mof_H 	H 	0.244	0.8926	0.8296	-0.003
Mof_C 	C 	0.355	0.99529	0.8606	0.054
Mof_C 	C 	0.3716	0.9609	0.8743	-0.096
Mof_H 	H 	0.3627	0.9366	0.8646	0.073
Mof_C 	C 	0.401	0.9618	0.902	0.01
Mof_H 	H 	0.4118	0.938	0.9108	0.046
Mof_C 	C 	0.4153	0.9969	0.9173	-0.047
Mof_C 	C 	0.3987	0.03185	0.9033	-0.1
Mof_H 	H 	0.4079	0.056	0.9127	0.096
Mof_C 	C 	0.3691	0.0311	0.876	0.118
Mof_C 	C 	0.3259	0.06764	0.8352	0.122
Mof_C 	C 	0.3124	0.03243	0.8167	0.039
Mof_C 	C 	0.2845	0.036	0.7869	-0.096
Mof_H 	H 	0.2741	0.0133	0.7753	0.068
Mof_C 	C 	0.2718	0.07317	0.774	0.01
Mof_H 	H 	0.2541	0.0752	0.7531	0.04
Mof_C 	C 	0.2857	0.10698	0.7924	-0.073
Mof_C 	C 	0.3135	0.10424	0.8222	-0.083
Mof_H 	H 	0.3238	0.1271	0.8335	0.089
Mof_C 	C 	0.44687	0.998	0.94787	0.361
Mof_C 	C 	0.2728	0.14762	0.7804	0.381
Mof_N 	N 	0.3251	0.99636	0.8315	-0.145
Mof_O 	O 	0.29942	0.82756	0.75378	-0.519
Mof_O 	O 	0.24417	0.8311	0.78965	-0.512
Mof_O 	O 	0.353	0.06689	0.8653	-0.224
Mof_O 	O 	0.45802	0.03142	0.95996	-0.407
Mof_O 	O 	0.46011	0.96516	0.95875	-0.405
Mof_O 	O 	0.28348	0.17521	0.80241	-0.516
Mof_O 	O 	0.2506	0.15031	0.75007	-0.506
Mof_Zn	Zn	0.80169	0.27404	0.23146	1.213
Mof_C 	C 	0.776	0.34486	0.2764	0.444
Mof_C 	C 	0.7871	0.38564	0.2893	-0.211
Mof_C 	C 	0.8196	0.4038	0.2737	0.144
Mof_H 	H 	0.834	0.3905	0.2544	-0.002
Mof_C 	C 	0.8322	0.4414	0.2852	-0.232
Mof_H 	H 	0.854	0.4535	0.2735	0.12
Mof_C 	C 	0.8108	0.4597	0.3151	0.197
Mof_C 	C 	0.778	0.4426	0.33	-0.236
Mof_H 	H 	0.763	0.4563	0.3486	0.12
Mof_C 	C 	0.7659	0.4046	0.3181	0.144
Mof_H 	H 	0.744	0.3926	0.3296	-0.004
Mof_C 	C 	0.855	0.49529	0.3606	0.044
Mof_C 	C 	0.8716	0.4609	0.3743	-0.094
Mof_H 	H 	0.8627	0.4366	0.3646	0.072
Mof_C 	C 	0.901	0.4618	0.402	0.009
Mof_H 	H 	0.9118	0.438	0.4108	0.046
Mof_C 	C 	0.9153	0.4969	0.4173	-0.055
Mof_C 	C 	0.8987	0.53185	0.4033	-0.09
Mof_H 	H 	0.9079	0.556	0.4127	0.093
Mof_C 	C 	0.8691	0.5311	0.376	0.126
Mof_C 	C 	0.8259	0.56764	0.3352	0.12
Mof_C 	C 	0.8124	0.53243	0.3167	0.049
Mof_C 	C 	0.7845	0.536	0.2869	-0.101
Mof_H 	H 	0.7741	0.5133	0.2753	0.073
Mof_C 	C 	0.7718	0.57317	0.274	0.014
Mof_H 	H 	0.7541	0.5752	0.2531	0.04
Mof_C 	C 	0.7857	0.60698	0.2924	-0.075
Mof_C 	C 	0.8135	0.60424	0.3222	-0.08
Mof_H 	H 	0.8238	0.6271	0.3335	0.088
Mof_C 	C 	0.94687	0.498	0.44787	0.351
Mof_C 	C 	0.7728	0.64762	0.2804	0.382
Mof_N 	N 	0.8251	0.49636	0.3315	-0.149
Mof_O 	O 	0.79942	0.32756	0.25378	-0.519
Mof_O 	O 	0.74417	0.3311	0.28965	-0.512
Mof_O 	O 	0.853	0.56689	0.3653	-0.224
Mof_O 	O 	0.95802	0.53142	0.45996	-0.398
Mof_O 	O 	0.96011	0.46516	0.45875	-0.404
Mof_O 	O 	0.78348	0.67521	0.30241	-0.516
Mof_O 	O 	0.7506	0.65031	0.25007	-0.505
Mof_Zn	Zn	0.69831	0.77404	0.26854	1.213
Mof_C 	C 	0.724	0.84486	0.2236	0.445
Mof_C 	C 	0.7129	0.88564	0.2107	-0.212
Mof_C 	C 	0.6804	0.9038	0.2263	0.145
Mof_H 	H 	0.666	0.8905	0.2456	-0.002
Mof_C 	C 	0.6678	0.9414	0.2148	-0.233
Mof_H 	H 	0.646	0.9535	0.2265	0.121
Mof_C 	C 	0.6892	0.9597	0.1849	0.199
Mof_C 	C 	0.722	0.9426	0.17	-0.237
Mof_H 	H 	0.737	0.9563	0.1514	0.122
Mof_C 	C 	0.7341	0.9046	0.1819	0.145
Mof_H 	H 	0.756	0.8926	0.1704	-0.004
Mof_C 	C 	0.645	0.99529	0.1394	0.055
Mof_C 	C 	0.6284	0.9609	0.1257	-0.098
Mof_H 	H 	0.6373	0.9366	0.1354	0.073
Mof_C 	C 	0.599	0.9618	0.098	0.011
Mof_H 	H 	0.5882	0.938	0.0892	0.044
Mof_C 	C 	0.5847	0.9969	0.0827	-0.05
Mof_C 	C 	0.6013	0.03185	0.0967	-0.099
Mof_H 	H 	0.5921	0.056	0.0873	0.093
Mof_C 	C 	0.6309	0.0311	0.124	0.117
Mof_C 	C 	0.6741	0.06764	0.1648	0.121
Mof_C 	C 	0.6876	0.03243	0.1833	0.039
Mof_C 	C 	0.7155	0.036	0.2131	-0.097
Mof_H 	H 	0.7259	0.0133	0.2247	0.068
Mof_C 	C 	0.7282	0.07317	0.226	0.01
Mof_H 	H 	0.7459	0.0752	0.2469	0.04
Mof_C 	C 	0.7143	0.10698	0.2076	-0.073
Mof_C 	C 	0.6865	0.10424	0.1778	-0.083
Mof_H 	H 	0.6762	0.1271	0.1665	0.088
Mof_C 	C 	0.55313	0.998	0.05213	0.362
Mof_C 	C 	0.7272	0.14762	0.2196	0.381
Mof_N 	N 	0.6749	0.99636	0.1685	-0.145
Mof_O 	O 	0.70058	0.82756	0.24622	-0.519
Mof_O 	O 	0.75583	0.8311	0.21035	-0.512
Mof_O 	O 	0.647	0.06689	0.1347	-0.225
Mof_O 	O 	0.54198	0.03142	0.04004	-0.413
Mof_O 	O 	0.53989	0.96516	0.04125	-0.411
Mof_O 	O 	0.71652	0.17521	0.19759	-0.517
Mof_O 	O 	0.7494	0.15031	0.24993	-0.506
Mof_Zn	Zn	0.19831	0.27404	0.76854	1.213
Mof_C 	C 	0.224	0.34486	0.7236	0.444
Mof_C 	C 	0.2129	0.38564	0.7107	-0.211
Mof_C 	C 	0.1804	0.4038	0.7263	0.144
Mof_H 	H 	0.166	0.3905	0.7456	-0.003
Mof_C 	C 	0.1678	0.4414	0.7148	-0.232
Mof_H 	H 	0.146	0.4535	0.7265	0.119
Mof_C 	C 	0.1892	0.4597	0.6849	0.197
Mof_C 	C 	0.222	0.4426	0.67	-0.236
Mof_H 	H 	0.237	0.4563	0.6514	0.12
Mof_C 	C 	0.2341	0.4046	0.6819	0.144
Mof_H 	H 	0.256	0.3926	0.6704	-0.004
Mof_C 	C 	0.145	0.49529	0.6394	0.044
Mof_C 	C 	0.1284	0.4609	0.6257	-0.096
Mof_H 	H 	0.1373	0.4366	0.6354	0.072
Mof_C 	C 	0.099	0.4618	0.598	0.01
Mof_H 	H 	0.0882	0.438	0.5892	0.043
Mof_C 	C 	0.0847	0.4969	0.5827	-0.059
Mof_C 	C 	0.1013	0.53185	0.5967	-0.089
Mof_H 	H 	0.0921	0.556	0.5873	0.091
Mof_C 	C 	0.1309	0.5311	0.624	0.124
Mof_C 	C 	0.1741	0.56764	0.6648	0.119
Mof_C 	C 	0.1876	0.53243	0.6833	0.049
Mof_C 	C 	0.2155	0.536	0.7131	-0.101
Mof_H 	H 	0.2259	0.5133	0.7247	0.073
Mof_C 	C 	0.2282	0.57317	0.726	0.014
Mof_H 	H 	0.2459	0.5752	0.7469	0.04
Mof_C 	C 	0.2143	0.60698	0.7076	-0.075
Mof_C 	C 	0.1865	0.60424	0.6778	-0.081
Mof_H 	H 	0.1762	0.6271	0.6665	0.088
Mof_C 	C 	0.05313	0.498	0.55213	0.352
Mof_C 	C 	0.2272	0.64762	0.7196	0.382
Mof_N 	N 	0.1749	0.49636	0.6685	-0.149
Mof_O 	O 	0.20058	0.32756	0.74622	-0.52
Mof_O 	O 	0.25583	0.3311	0.71035	-0.512
Mof_O 	O 	0.147	0.56689	0.6347	-0.225
Mof_O 	O 	0.04198	0.53142	0.54004	-0.405
Mof_O 	O 	0.03989	0.46516	0.54125	-0.411
Mof_O 	O 	0.21652	0.67521	0.69759	-0.517
Mof_O 	O 	0.2494	0.65031	0.74993	-0.505
Mof_Zn	Zn	0.69831	0.22596	0.73146	1.213
Mof_C 	C 	0.724	0.15514	0.7764	0.444
Mof_C 	C 	0.7129	0.11436	0.7893	-0.211
Mof_C 	C 	0.6804	0.0962	0.7737	0.143
Mof_H 	H 	0.666	0.1095	0.7544	-0.003
Mof_C 	C 	0.6678	0.0586	0.7852	-0.232
Mof_H 	H 	0.646	0.0465	0.7735	0.117
Mof_C 	C 	0.6892	0.0403	0.8151	0.195
Mof_C 	C 	0.722	0.0574	0.83	-0.236
Mof_H 	H 	0.737	0.0437	0.8486	0.119
Mof_C 	C 	0.7341	0.0954	0.8181	0.143
Mof_H 	H 	0.756	0.1074	0.8296	-0.003
Mof_C 	C 	0.645	0.00471	0.8606	0.034
Mof_C 	C 	0.6284	0.0391	0.8743	-0.093
Mof_H 	H 	0.6373	0.0634	0.8646	0.071
Mof_C 	C 	0.599	0.0382	0.902	0.009
Mof_H 	H 	0.5882	0.062	0.9108	0.045
Mof_C 	C 	0.5847	0.0031	0.9173	-0.064
Mof_C 	C 	0.6013	0.96815	0.9033	-0.08
Mof_H 	H 	0.5921	0.944	0.9127	0.091
Mof_C 	C 	0.6309	0.9689	0.876	0.133
Mof_C 	C 	0.6741	0.93236	0.8352	0.118
Mof_C 	C 	0.6876	0.96757	0.8167	0.059
Mof_C 	C 	0.7155	0.964	0.7869	-0.105
Mof_H 	H 	0.7259	0.9867	0.7753	0.078
Mof_C 	C 	0.7282	0.92683	0.774	0.018
Mof_H 	H 	0.7459	0.9248	0.7531	0.04
Mof_C 	C 	0.7143	0.89302	0.7924	-0.076
Mof_C 	C 	0.6865	0.89576	0.8222	-0.078
Mof_H 	H 	0.6762	0.8729	0.8335	0.088
Mof_C 	C 	0.55313	0.002	0.94787	0.341
Mof_C 	C 	0.7272	0.85238	0.7804	0.383
Mof_N 	N 	0.6749	0.00364	0.8315	-0.153
Mof_O 	O 	0.70058	0.17244	0.75378	-0.519
Mof_O 	O 	0.75583	0.1689	0.78965	-0.512
Mof_O 	O 	0.647	0.93311	0.8653	-0.223
Mof_O 	O 	0.54198	0.96858	0.95996	-0.39
Mof_O 	O 	0.53989	0.03484	0.95875	-0.403
Mof_O 	O 	0.71652	0.82479	0.80241	-0.516
Mof_O 	O 	0.7494	0.84969	0.75007	-0.505
Mof_Zn	Zn	0.19831	0.72596	0.23146	1.213
Mof_C 	C 	0.224	0.65514	0.2764	0.444
Mof_C 	C 	0.2129	0.61436	0.2893	-0.212
Mof_C 	C 	0.1804	0.5962	0.2737	0.144
Mof_H 	H 	0.166	0.6095	0.2544	-0.003
Mof_C 	C 	0.1678	0.5586	0.2852	-0.232
Mof_H 	H 	0.146	0.5465	0.2735	0.118
Mof_C 	C 	0.1892	0.5403	0.3151	0.197
Mof_C 	C 	0.222	0.5574	0.33	-0.236
Mof_H 	H 	0.237	0.5437	0.3486	0.12
Mof_C 	C 	0.2341	0.5954	0.3181	0.144
Mof_H 	H 	0.256	0.6074	0.3296	-0.004
Mof_C 	C 	0.145	0.50471	0.3606	0.044
Mof_C 	C 	0.1284	0.5391	0.3743	-0.096
Mof_H 	H 	0.1373	0.5634	0.3646	0.072
Mof_C 	C 	0.099	0.5382	0.402	0.01
Mof_H 	H 	0.0882	0.562	0.4108	0.043
Mof_C 	C 	0.0847	0.5031	0.4173	-0.059
Mof_C 	C 	0.1013	0.46815	0.4033	-0.089
Mof_H 	H 	0.0921	0.444	0.4127	0.091
Mof_C 	C 	0.1309	0.4689	0.376	0.124
Mof_C 	C 	0.1741	0.43236	0.3352	0.119
Mof_C 	C 	0.1876	0.46757	0.3167	0.049
Mof_C 	C 	0.2155	0.464	0.2869	-0.101
Mof_H 	H 	0.2259	0.4867	0.2753	0.073
Mof_C 	C 	0.2282	0.42683	0.274	0.014
Mof_H 	H 	0.2459	0.4248	0.2531	0.04
Mof_C 	C 	0.2143	0.39302	0.2924	-0.075
Mof_C 	C 	0.1865	0.39576	0.3222	-0.081
Mof_H 	H 	0.1762	0.3729	0.3335	0.088
Mof_C 	C 	0.05313	0.502	0.44787	0.352
Mof_C 	C 	0.2272	0.35238	0.2804	0.382
Mof_N 	N 	0.1749	0.50364	0.3315	-0.149
Mof_O 	O 	0.20058	0.67244	0.25378	-0.52
Mof_O 	O 	0.25583	0.6689	0.28965	-0.512
Mof_O 	O 	0.147	0.43311	0.3653	-0.225
Mof_O 	O 	0.04198	0.46858	0.45996	-0.405
Mof_O 	O 	0.03989	0.53484	0.45875	-0.411
Mof_O 	O 	0.21652	0.32479	0.30241	-0.517
Mof_O 	O 	0.2494	0.34969	0.25007	-0.506
Mof_Zn	Zn	0.26854	0.30169	0.22596	1.213
Mof_C 	C 	0.2236	0.276	0.15514	0.444
Mof_C 	C 	0.2107	0.2871	0.11436	-0.211
Mof_C 	C 	0.2263	0.3196	0.0962	0.142
Mof_H 	H 	0.2456	0.334	0.1095	-0.003
Mof_C 	C 	0.2148	0.3322	0.0586	-0.232
Mof_H 	H 	0.2265	0.354	0.0465	0.117
Mof_C 	C 	0.1849	0.3108	0.0403	0.194
Mof_C 	C 	0.17	0.278	0.0574	-0.236
Mof_H 	H 	0.1514	0.263	0.0437	0.117
Mof_C 	C 	0.1819	0.2659	0.0954	0.142
Mof_H 	H 	0.1704	0.244	0.1074	-0.005
Mof_C 	C 	0.1394	0.355	0.00471	0.034
Mof_C 	C 	0.1257	0.3716	0.0391	-0.095
Mof_H 	H 	0.1354	0.3627	0.0634	0.071
Mof_C 	C 	0.098	0.401	0.0382	0.01
Mof_H 	H 	0.0892	0.4118	0.062	0.043
Mof_C 	C 	0.0827	0.4153	0.0031	-0.067
Mof_C 	C 	0.0967	0.3987	0.96815	-0.079
Mof_H 	H 	0.0873	0.4079	0.944	0.089
Mof_C 	C 	0.124	0.3691	0.9689	0.132
Mof_C 	C 	0.1648	0.3259	0.93236	0.117
Mof_C 	C 	0.1833	0.3124	0.96757	0.059
Mof_C 	C 	0.2131	0.2845	0.964	-0.106
Mof_H 	H 	0.2247	0.2741	0.9867	0.078
Mof_C 	C 	0.226	0.2718	0.92683	0.018
Mof_H 	H 	0.2469	0.2541	0.9248	0.039
Mof_C 	C 	0.2076	0.2857	0.89302	-0.077
Mof_C 	C 	0.1778	0.3135	0.89576	-0.078
Mof_H 	H 	0.1665	0.3238	0.8729	0.087
Mof_C 	C 	0.05213	0.44687	0.002	0.342
Mof_C 	C 	0.2196	0.2728	0.85238	0.383
Mof_N 	N 	0.1685	0.3251	0.00364	-0.153
Mof_O 	O 	0.24622	0.29942	0.17244	-0.52
Mof_O 	O 	0.21035	0.24417	0.1689	-0.513
Mof_O 	O 	0.1347	0.353	0.93311	-0.224
Mof_O 	O 	0.04004	0.45802	0.96858	-0.396
Mof_O 	O 	0.04125	0.46011	0.03484	-0.41
Mof_O 	O 	0.19759	0.28348	0.82479	-0.517
Mof_O 	O 	0.24993	0.2506	0.84969	-0.505
Mof_Zn	Zn	0.76854	0.80169	0.72596	1.213
Mof_C 	C 	0.7236	0.776	0.65514	0.444
Mof_C 	C 	0.7107	0.7871	0.61436	-0.211
Mof_C 	C 	0.7263	0.8196	0.5962	0.144
Mof_H 	H 	0.7456	0.834	0.6095	-0.002
Mof_C 	C 	0.7148	0.8322	0.5586	-0.232
Mof_H 	H 	0.7265	0.854	0.5465	0.12
Mof_C 	C 	0.6849	0.8108	0.5403	0.197
Mof_C 	C 	0.67	0.778	0.5574	-0.236
Mof_H 	H 	0.6514	0.763	0.5437	0.12
Mof_C 	C 	0.6819	0.7659	0.5954	0.144
Mof_H 	H 	0.6704	0.744	0.6074	-0.004
Mof_C 	C 	0.6394	0.855	0.50471	0.044
Mof_C 	C 	0.6257	0.8716	0.5391	-0.094
Mof_H 	H 	0.6354	0.8627	0.5634	0.072
Mof_C 	C 	0.598	0.901	0.5382	0.009
Mof_H 	H 	0.5892	0.9118	0.562	0.046
Mof_C 	C 	0.5827	0.9153	0.5031	-0.055
Mof_C 	C 	0.5967	0.8987	0.46815	-0.09
Mof_H 	H 	0.5873	0.9079	0.444	0.093
Mof_C 	C 	0.624	0.8691	0.4689	0.126
Mof_C 	C 	0.6648	0.8259	0.43236	0.12
Mof_C 	C 	0.6833	0.8124	0.46757	0.049
Mof_C 	C 	0.7131	0.7845	0.464	-0.101
Mof_H 	H 	0.7247	0.7741	0.4867	0.073
Mof_C 	C 	0.726	0.7718	0.42683	0.014
Mof_H 	H 	0.7469	0.7541	0.4248	0.04
Mof_C 	C 	0.7076	0.7857	0.39302	-0.074
Mof_C 	C 	0.6778	0.8135	0.39576	-0.08
Mof_H 	H 	0.6665	0.8238	0.3729	0.089
Mof_C 	C 	0.55213	0.94687	0.502	0.351
Mof_C 	C 	0.7196	0.7728	0.35238	0.382
Mof_N 	N 	0.6685	0.8251	0.50364	-0.149
Mof_O 	O 	0.74622	0.79942	0.67244	-0.519
Mof_O 	O 	0.71035	0.74417	0.6689	-0.512
Mof_O 	O 	0.6347	0.853	0.43311	-0.224
Mof_O 	O 	0.54004	0.95802	0.46858	-0.398
Mof_O 	O 	0.54125	0.96011	0.53484	-0.404
Mof_O 	O 	0.69759	0.78348	0.32479	-0.516
Mof_O 	O 	0.74993	0.7506	0.34969	-0.505
Mof_Zn	Zn	0.73146	0.30169	0.77404	1.213
Mof_C 	C 	0.7764	0.276	0.84486	0.445
Mof_C 	C 	0.7893	0.2871	0.88564	-0.211
Mof_C 	C 	0.7737	0.3196	0.9038	0.145
Mof_H 	H 	0.7544	0.334	0.8905	-0.002
Mof_C 	C 	0.7852	0.3322	0.9414	-0.233
Mof_H 	H 	0.7735	0.354	0.9535	0.122
Mof_C 	C 	0.8151	0.3108	0.9597	0.2
Mof_C 	C 	0.83	0.278	0.9426	-0.237
Mof_H 	H 	0.8486	0.263	0.9563	0.123
Mof_C 	C 	0.8181	0.2659	0.9046	0.145
Mof_H 	H 	0.8296	0.244	0.8926	-0.003
Mof_C 	C 	0.8606	0.355	0.99529	0.054
Mof_C 	C 	0.8743	0.3716	0.9609	-0.096
Mof_H 	H 	0.8646	0.3627	0.9366	0.073
Mof_C 	C 	0.902	0.401	0.9618	0.01
Mof_H 	H 	0.9108	0.4118	0.938	0.046
Mof_C 	C 	0.9173	0.4153	0.9969	-0.047
Mof_C 	C 	0.9033	0.3987	0.03185	-0.1
Mof_H 	H 	0.9127	0.4079	0.056	0.096
Mof_C 	C 	0.876	0.3691	0.0311	0.118
Mof_C 	C 	0.8352	0.3259	0.06764	0.122
Mof_C 	C 	0.8167	0.3124	0.03243	0.039
Mof_C 	C 	0.7869	0.2845	0.036	-0.096
Mof_H 	H 	0.7753	0.2741	0.0133	0.068
Mof_C 	C 	0.774	0.2718	0.07317	0.01
Mof_H 	H 	0.7531	0.2541	0.0752	0.04
Mof_C 	C 	0.7924	0.2857	0.10698	-0.073
Mof_C 	C 	0.8222	0.3135	0.10424	-0.083
Mof_H 	H 	0.8335	0.3238	0.1271	0.089
Mof_C 	C 	0.94787	0.44687	0.998	0.361
Mof_C 	C 	0.7804	0.2728	0.14762	0.381
Mof_N 	N 	0.8315	0.3251	0.99636	-0.145
Mof_O 	O 	0.75378	0.29942	0.82756	-0.519
Mof_O 	O 	0.78965	0.24417	0.8311	-0.512
Mof_O 	O 	0.8653	0.353	0.06689	-0.224
Mof_O 	O 	0.95996	0.45802	0.03142	-0.407
Mof_O 	O 	0.95875	0.46011	0.96516	-0.405
Mof_O 	O 	0.80241	0.28348	0.17521	-0.516
Mof_O 	O 	0.75007	0.2506	0.15031	-0.506
Mof_Zn	Zn	0.23146	0.80169	0.27404	1.213
Mof_C 	C 	0.2764	0.776	0.34486	0.444
Mof_C 	C 	0.2893	0.7871	0.38564	-0.211
Mof_C 	C 	0.2737	0.8196	0.4038	0.144
Mof_H 	H 	0.2544	0.834	0.3905	-0.002
Mof_C 	C 	0.2852	0.8322	0.4414	-0.232
Mof_H 	H 	0.2735	0.854	0.4535	0.12
Mof_C 	C 	0.3151	0.8108	0.4597	0.197
Mof_C 	C 	0.33	0.778	0.4426	-0.236
Mof_H 	H 	0.3486	0.763	0.4563	0.12
Mof_C 	C 	0.3181	0.7659	0.4046	0.144
Mof_H 	H 	0.3296	0.744	0.3926	-0.004
Mof_C 	C 	0.3606	0.855	0.49529	0.044
Mof_C 	C 	0.3743	0.8716	0.4609	-0.094
Mof_H 	H 	0.3646	0.8627	0.4366	0.072
Mof_C 	C 	0.402	0.901	0.4618	0.009
Mof_H 	H 	0.4108	0.9118	0.438	0.046
Mof_C 	C 	0.4173	0.9153	0.4969	-0.055
Mof_C 	C 	0.4033	0.8987	0.53185	-0.09
Mof_H 	H 	0.4127	0.9079	0.556	0.093
Mof_C 	C 	0.376	0.8691	0.5311	0.126
Mof_C 	C 	0.3352	0.8259	0.56764	0.12
Mof_C 	C 	0.3167	0.8124	0.53243	0.049
Mof_C 	C 	0.2869	0.7845	0.536	-0.101
Mof_H 	H 	0.2753	0.7741	0.5133	0.073
Mof_C 	C 	0.274	0.7718	0.57317	0.014
Mof_H 	H 	0.2531	0.7541	0.5752	0.04
Mof_C 	C 	0.2924	0.7857	0.60698	-0.075
Mof_C 	C 	0.3222	0.8135	0.60424	-0.08
Mof_H 	H 	0.3335	0.8238	0.6271	0.088
Mof_C 	C 	0.44787	0.94687	0.498	0.351
Mof_C 	C 	0.2804	0.7728	0.64762	0.382
Mof_N 	N 	0.3315	0.8251	0.49636	-0.149
Mof_O 	O 	0.25378	0.79942	0.32756	-0.519
Mof_O 	O 	0.28965	0.74417	0.3311	-0.512
Mof_O 	O 	0.3653	0.853	0.56689	-0.224
Mof_O 	O 	0.45996	0.95802	0.53142	-0.398
Mof_O 	O 	0.45875	0.96011	0.46516	-0.404
Mof_O 	O 	0.30241	0.78348	0.67521	-0.516
Mof_O 	O 	0.25007	0.7506	0.65031	-0.505
Mof_Zn	Zn	0.26854	0.69831	0.77404	1.213
Mof_C 	C 	0.2236	0.724	0.84486	0.445
Mof_C 	C 	0.2107	0.7129	0.88564	-0.212
Mof_C 	C 	0.2263	0.6804	0.9038	0.145
Mof_H 	H 	0.2456	0.666	0.8905	-0.002
Mof_C 	C 	0.2148	0.6678	0.9414	-0.233
Mof_H 	H 	0.2265	0.646	0.9535	0.121
Mof_C 	C 	0.1849	0.6892	0.9597	0.199
Mof_C 	C 	0.17	0.722	0.9426	-0.237
Mof_H 	H 	0.1514	0.737	0.9563	0.122
Mof_C 	C 	0.1819	0.7341	0.9046	0.145
Mof_H 	H 	0.1704	0.756	0.8926	-0.004
Mof_C 	C 	0.1394	0.645	0.99529	0.055
Mof_C 	C 	0.1257	0.6284	0.9609	-0.098
Mof_H 	H 	0.1354	0.6373	0.9366	0.073
Mof_C 	C 	0.098	0.599	0.9618	0.011
Mof_H 	H 	0.0892	0.5882	0.938	0.044
Mof_C 	C 	0.0827	0.5847	0.9969	-0.05
Mof_C 	C 	0.0967	0.6013	0.03185	-0.099
Mof_H 	H 	0.0873	0.5921	0.056	0.093
Mof_C 	C 	0.124	0.6309	0.0311	0.117
Mof_C 	C 	0.1648	0.6741	0.06764	0.121
Mof_C 	C 	0.1833	0.6876	0.03243	0.039
Mof_C 	C 	0.2131	0.7155	0.036	-0.097
Mof_H 	H 	0.2247	0.7259	0.0133	0.068
Mof_C 	C 	0.226	0.7282	0.07317	0.01
Mof_H 	H 	0.2469	0.7459	0.0752	0.04
Mof_C 	C 	0.2076	0.7143	0.10698	-0.073
Mof_C 	C 	0.1778	0.6865	0.10424	-0.083
Mof_H 	H 	0.1665	0.6762	0.1271	0.088
Mof_C 	C 	0.05213	0.55313	0.998	0.362
Mof_C 	C 	0.2196	0.7272	0.14762	0.381
Mof_N 	N 	0.1685	0.6749	0.99636	-0.145
Mof_O 	O 	0.24622	0.70058	0.82756	-0.519
Mof_O 	O 	0.21035	0.75583	0.8311	-0.512
Mof_O 	O 	0.1347	0.647	0.06689	-0.225
Mof_O 	O 	0.04004	0.54198	0.03142	-0.413
Mof_O 	O 	0.04125	0.53989	0.96516	-0.411
Mof_O 	O 	0.19759	0.71652	0.17521	-0.517
Mof_O 	O 	0.24993	0.7494	0.15031	-0.506
Mof_Zn	Zn	0.76854	0.19831	0.27404	1.213
Mof_C 	C 	0.7236	0.224	0.34486	0.444
Mof_C 	C 	0.7107	0.2129	0.38564	-0.211
Mof_C 	C 	0.7263	0.1804	0.4038	0.144
Mof_H 	H 	0.7456	0.166	0.3905	-0.003
Mof_C 	C 	0.7148	0.1678	0.4414	-0.232
Mof_H 	H 	0.7265	0.146	0.4535	0.119
Mof_C 	C 	0.6849	0.1892	0.4597	0.197
Mof_C 	C 	0.67	0.222	0.4426	-0.236
Mof_H 	H 	0.6514	0.237	0.4563	0.12
Mof_C 	C 	0.6819	0.2341	0.4046	0.144
Mof_H 	H 	0.6704	0.256	0.3926	-0.004
Mof_C 	C 	0.6394	0.145	0.49529	0.044
Mof_C 	C 	0.6257	0.1284	0.4609	-0.096
Mof_H 	H 	0.6354	0.1373	0.4366	0.072
Mof_C 	C 	0.598	0.099	0.4618	0.01
Mof_H 	H 	0.5892	0.0882	0.438	0.043
Mof_C 	C 	0.5827	0.0847	0.4969	-0.059
Mof_C 	C 	0.5967	0.1013	0.53185	-0.089
Mof_H 	H 	0.5873	0.0921	0.556	0.091
Mof_C 	C 	0.624	0.1309	0.5311	0.124
Mof_C 	C 	0.6648	0.1741	0.56764	0.119
Mof_C 	C 	0.6833	0.1876	0.53243	0.049
Mof_C 	C 	0.7131	0.2155	0.536	-0.101
Mof_H 	H 	0.7247	0.2259	0.5133	0.073
Mof_C 	C 	0.726	0.2282	0.57317	0.014
Mof_H 	H 	0.7469	0.2459	0.5752	0.04
Mof_C 	C 	0.7076	0.2143	0.60698	-0.075
Mof_C 	C 	0.6778	0.1865	0.60424	-0.081
Mof_H 	H 	0.6665	0.1762	0.6271	0.088
Mof_C 	C 	0.55213	0.05313	0.498	0.352
Mof_C 	C 	0.7196	0.2272	0.64762	0.382
Mof_N 	N 	0.6685	0.1749	0.49636	-0.149
Mof_O 	O 	0.74622	0.20058	0.32756	-0.52
Mof_O 	O 	0.71035	0.25583	0.3311	-0.512
Mof_O 	O 	0.6347	0.147	0.56689	-0.225
Mof_O 	O 	0.54004	0.04198	0.53142	-0.405
Mof_O 	O 	0.54125	0.03989	0.46516	-0.411
Mof_O 	O 	0.69759	0.21652	0.67521	-0.517
Mof_O 	O 	0.74993	0.2494	0.65031	-0.505
Mof_Zn	Zn	0.73146	0.69831	0.22596	1.213
Mof_C 	C 	0.7764	0.724	0.15514	0.444
Mof_C 	C 	0.7893	0.7129	0.11436	-0.211
Mof_C 	C 	0.7737	0.6804	0.0962	0.143
Mof_H 	H 	0.7544	0.666	0.1095	-0.003
Mof_C 	C 	0.7852	0.6678	0.0586	-0.232
Mof_H 	H 	0.7735	0.646	0.0465	0.117
Mof_C 	C 	0.8151	0.6892	0.0403	0.195
Mof_C 	C 	0.83	0.722	0.0574	-0.236
Mof_H 	H 	0.8486	0.737	0.0437	0.119
Mof_C 	C 	0.8181	0.7341	0.0954	0.143
Mof_H 	H 	0.8296	0.756	0.1074	-0.003
Mof_C 	C 	0.8606	0.645	0.00471	0.034
Mof_C 	C 	0.8743	0.6284	0.0391	-0.093
Mof_H 	H 	0.8646	0.6373	0.0634	0.071
Mof_C 	C 	0.902	0.599	0.0382	0.009
Mof_H 	H 	0.9108	0.5882	0.062	0.045
Mof_C 	C 	0.9173	0.5847	0.0031	-0.064
Mof_C 	C 	0.9033	0.6013	0.96815	-0.08
Mof_H 	H 	0.9127	0.5921	0.944	0.091
Mof_C 	C 	0.876	0.6309	0.9689	0.133
Mof_C 	C 	0.8352	0.6741	0.93236	0.118
Mof_C 	C 	0.8167	0.6876	0.96757	0.059
Mof_C 	C 	0.7869	0.7155	0.964	-0.105
Mof_H 	H 	0.7753	0.7259	0.9867	0.078
Mof_C 	C 	0.774	0.7282	0.92683	0.018
Mof_H 	H 	0.7531	0.7459	0.9248	0.04
Mof_C 	C 	0.7924	0.7143	0.89302	-0.076
Mof_C 	C 	0.8222	0.6865	0.89576	-0.078
Mof_H 	H 	0.8335	0.6762	0.8729	0.088
Mof_C 	C 	0.94787	0.55313	0.002	0.341
Mof_C 	C 	0.7804	0.7272	0.85238	0.383
Mof_N 	N 	0.8315	0.6749	0.00364	-0.153
Mof_O 	O 	0.75378	0.70058	0.17244	-0.519
Mof_O 	O 	0.78965	0.75583	0.1689	-0.512
Mof_O 	O 	0.8653	0.647	0.93311	-0.223
Mof_O 	O 	0.95996	0.54198	0.96858	-0.39
Mof_O 	O 	0.95875	0.53989	0.03484	-0.403
Mof_O 	O 	0.80241	0.71652	0.82479	-0.516
Mof_O 	O 	0.75007	0.7494	0.84969	-0.505
Mof_Zn	Zn	0.23146	0.19831	0.72596	1.213
Mof_C 	C 	0.2764	0.224	0.65514	0.444
Mof_C 	C 	0.2893	0.2129	0.61436	-0.212
Mof_C 	C 	0.2737	0.1804	0.5962	0.144
Mof_H 	H 	0.2544	0.166	0.6095	-0.003
Mof_C 	C 	0.2852	0.1678	0.5586	-0.232
Mof_H 	H 	0.2735	0.146	0.5465	0.118
Mof_C 	C 	0.3151	0.1892	0.5403	0.197
Mof_C 	C 	0.33	0.222	0.5574	-0.236
Mof_H 	H 	0.3486	0.237	0.5437	0.12
Mof_C 	C 	0.3181	0.2341	0.5954	0.144
Mof_H 	H 	0.3296	0.256	0.6074	-0.004
Mof_C 	C 	0.3606	0.145	0.50471	0.044
Mof_C 	C 	0.3743	0.1284	0.5391	-0.096
Mof_H 	H 	0.3646	0.1373	0.5634	0.072
Mof_C 	C 	0.402	0.099	0.5382	0.01
Mof_H 	H 	0.4108	0.0882	0.562	0.043
Mof_C 	C 	0.4173	0.0847	0.5031	-0.059
Mof_C 	C 	0.4033	0.1013	0.46815	-0.089
Mof_H 	H 	0.4127	0.0921	0.444	0.091
Mof_C 	C 	0.376	0.1309	0.4689	0.124
Mof_C 	C 	0.3352	0.1741	0.43236	0.119
Mof_C 	C 	0.3167	0.1876	0.46757	0.049
Mof_C 	C 	0.2869	0.2155	0.464	-0.101
Mof_H 	H 	0.2753	0.2259	0.4867	0.073
Mof_C 	C 	0.274	0.2282	0.42683	0.014
Mof_H 	H 	0.2531	0.2459	0.4248	0.04
Mof_C 	C 	0.2924	0.2143	0.39302	-0.075
Mof_C 	C 	0.3222	0.1865	0.39576	-0.081
Mof_H 	H 	0.3335	0.1762	0.3729	0.088
Mof_C 	C 	0.44787	0.05313	0.502	0.352
Mof_C 	C 	0.2804	0.2272	0.35238	0.382
Mof_N 	N 	0.3315	0.1749	0.50364	-0.149
Mof_O 	O 	0.25378	0.20058	0.67244	-0.52
Mof_O 	O 	0.28965	0.25583	0.6689	-0.512
Mof_O 	O 	0.3653	0.147	0.43311	-0.225
Mof_O 	O 	0.45996	0.04198	0.46858	-0.405
Mof_O 	O 	0.45875	0.03989	0.53484	-0.411
Mof_O 	O 	0.30241	0.21652	0.32479	-0.517
Mof_O 	O 	0.25007	0.2494	0.34969	-0.506
Mof_Zn	Zn	0.22066	0.22066	0.22066	1.215
Mof_O 	O 	0.25372	0.25372	0.25372	-0.968
Mof_Zn	Zn	0.72066	0.72066	0.72066	1.215
Mof_O 	O 	0.75372	0.75372	0.75372	-0.967
Mof_Zn	Zn	0.77934	0.77934	0.22066	1.215
Mof_O 	O 	0.74628	0.74628	0.25372	-0.967
Mof_Zn	Zn	0.27934	0.27934	0.72066	1.215
Mof_O 	O 	0.24628	0.24628	0.75372	-0.967
Mof_Zn	Zn	0.77934	0.22066	0.77934	1.215
Mof_O 	O 	0.74628	0.25372	0.74628	-0.967
Mof_Zn	Zn	0.27934	0.72066	0.27934	1.215
Mof_O 	O 	0.24628	0.75372	0.24628	-0.967
Mof_Zn	Zn	0.22066	0.77934	0.77934	1.215
Mof_O 	O 	0.25372	0.74628	0.74628	-0.967
Mof_Zn	Zn	0.72066	0.27934	0.27934	1.215
Mof_O 	O 	0.75372	0.24628	0.24628	-0.967
Mof_Cu	Cu	0.96119	-5.25067e-33	0.5	0.901
Mof_Cu	Cu	0.46119	0.5	-0	0.9
Mof_Cu	Cu	0.03881	-5.25067e-33	0.5	0.899
Mof_Cu	Cu	0.53881	0.5	-0	0.9
Mof_Cu	Cu	0.5	0.96119	-0	0.901
Mof_Cu	Cu	1.8747e-33	0.46119	0.5	0.9
Mof_Cu	Cu	0.5	0.03881	-0	0.899
Mof_Cu	Cu	-1.38773e-32	0.53881	0.5	0.9
Mof_Cu	Cu	-1.73988e-32	0.5	0.96119	0.901
Mof_Cu	Cu	0.5	-5.25067e-33	0.46119	0.9
Mof_Cu	Cu	-2.15165e-33	0.5	0.03881	0.899
Mof_Cu	Cu	0.5	-1.05013e-32	0.53881	0.9
_end
