data_functionalizedCrystal
_audit_creation_method	'EQeq! by Chris Wilmer'
_symmetry_space_group_name_H-M	'P1'
_symmetry_Int_Tables_number	1
_symmetry_cell_setting	triclinic
loop_
_symmetry_equiv_pos_as_xyz
  x,y,z
_cell_length_a	32.8072
_cell_length_b	14.9123
_cell_length_c	34.9062
_cell_angle_alpha	90
_cell_angle_beta	105.822
_cell_angle_gamma	90
loop_
_atom_site_label
_atom_site_type_symbol
_atom_site_fract_x
_atom_site_fract_y
_atom_site_fract_z
_atom_site_charge
Mof_N 	N 	0.93839	0.3363	0.11394	-0.278
Mof_I 	I 	0.95545	0.4068	0.0174	-0.379
Mof_Zn	Zn	0.98081	0.31435	0.08095	1.161
Mof_C 	C 	0.9252	0.4201	0.1187	0.066
Mof_H 	H 	0.9362	0.4686	0.107	-0.015
Mof_I 	I 	0.05563	0.32989	0.12625	-0.381
Mof_Zn	Zn	0.67121	0.79335	0.15206	1.163
Mof_C 	C 	0.8962	0.4381	0.1399	-0.115
Mof_H 	H 	0.8874	0.4979	0.1425	0.084
Mof_I 	I 	0.70751	0.90029	0.11492	-0.342
Mof_Zn	Zn	0.81949	0.05258	0.36222	1.156
Mof_C 	C 	0.88019	0.3673	0.15738	0.059
Mof_I 	I 	0.64077	0.82307	0.21031	-0.33
Mof_Zn	Zn	0.98981	0.77396	0.58766	1.163
Mof_C 	C 	0.8943	0.2805	0.1527	-0.119
Mof_H 	H 	0.8842	0.2305	0.1643	0.084
Mof_I 	I 	0.75273	0.04586	0.38468	-0.396
Mof_Zn	Zn	0.17471	0.03392	0.65542	1.154
Mof_C 	C 	0.9232	0.2693	0.1307	0.078
Mof_H 	H 	0.9327	0.2103	0.1275	-0.02
Mof_I 	I 	0.85712	0.91324	0.3456	-0.339
Mof_Zn	Zn	0.67739	0.26647	0.62028	1.162
Mof_N 	N 	0.71237	0.6839	0.16686	-0.266
Mof_I 	I 	0.05991	0.80375	0.63906	-0.376
Mof_Zn	Zn	0.30762	0.23771	0.36796	1.163
Mof_C 	C 	0.7325	0.6566	0.1406	0.067
Mof_H 	H 	0.7283	0.6887	0.1164	-0.012
Mof_I 	I 	0.96416	0.8772	0.52737	-0.347
Mof_Zn	Zn	0.48092	0.50521	0.58652	1.163
Mof_C 	C 	0.7593	0.583	0.1475	-0.112
Mof_H 	H 	0.7734	0.565	0.1283	0.08
Mof_I 	I 	0.13893	0.01101	0.71087	-0.389
Mof_Zn	Zn	0.30628	0.76691	0.86862	1.164
Mof_C 	C 	0.76524	0.5363	0.18288	0.047
Mof_I 	I 	0.21147	0.91548	0.62446	-0.344
Mof_Zn	Zn	0.175	0.55409	0.11952	1.163
Mof_C 	C 	0.7441	0.5646	0.21033	-0.103
Mof_H 	H 	0.7475	0.5337	0.2348	0.063
Mof_I 	I 	0.6915	0.32497	0.55607	-0.372
Mof_Zn	Zn	0.49022	0.04434	0.08388	1.155
Mof_C 	C 	0.71791	0.6389	0.20107	0.062
Mof_H 	H 	0.7034	0.6586	0.2197	-0.006
Mof_I 	I 	0.67484	0.37322	0.675	-0.375
Mof_Zn	Zn	0.80015	0.58765	0.87101	1.164
Mof_N 	N 	0.81339	0.1401	0.31472	-0.273
Mof_I 	I 	0.23792	0.22831	0.38531	-0.383
Mof_C 	C 	0.8409	0.1332	0.293	0.065
Mof_H 	H 	0.8612	0.0863	0.299	-0.022
Mof_I 	I 	0.3413	0.38464	0.35487	-0.381
Mof_C 	C 	0.8413	0.1908	0.2624	-0.112
Mof_H 	H 	0.8607	0.1823	0.2469	0.079
Mof_I 	I 	0.45232	0.39826	0.52803	-0.381
Mof_C 	C 	0.81263	0.2619	0.25465	0.047
Mof_I 	I 	0.55352	0.47646	0.63474	-0.376
Mof_C 	C 	0.7838	0.2694	0.27693	-0.116
Mof_H 	H 	0.7635	0.3164	0.2719	0.07
Mof_I 	I 	0.34016	0.91321	0.85442	-0.345
Mof_C 	C 	0.785	0.2067	0.30686	0.063
Mof_H 	H 	0.7651	0.2115	0.3221	-0.003
Mof_I 	I 	0.23744	0.75298	0.88776	-0.356
Mof_C 	C 	0.84796	0.3799	0.17944	0.111
Mof_I 	I 	0.18092	0.51669	0.04942	-0.367
Mof_N 	N 	0.82367	0.4535	0.17169	-0.133
Mof_I 	I 	0.17772	0.43566	0.1708	-0.376
Mof_C 	C 	0.79305	0.4561	0.19023	0.099
Mof_I 	I 	0.46468	0.95003	0.02095	-0.337
Mof_N 	N 	0.78612	0.3947	0.21582	-0.147
Mof_I 	I 	0.56253	0.02592	0.13325	-0.429
Mof_C 	C 	0.81475	0.3272	0.22331	0.099
Mof_I 	I 	0.72938	0.6125	0.88499	-0.367
Mof_N 	N 	0.84553	0.3165	0.2057	-0.134
Mof_I 	I 	0.82826	0.4339	0.85856	-0.38
Mof_N 	N 	0.863	0.1172	0.40811	-0.275
Mof_C 	C 	0.8928	0.0693	0.434	0.064
Mof_H 	H 	0.8943	0.0065	0.43	-0.024
Mof_C 	C 	0.9214	0.1085	0.4661	-0.129
Mof_H 	H 	0.9424	0.0732	0.4838	0.086
Mof_C 	C 	0.91902	0.1993	0.47215	0.047
Mof_C 	C 	0.8882	0.2494	0.4463	-0.125
Mof_H 	H 	0.8857	0.312	0.4501	0.081
Mof_C 	C 	0.8608	0.2049	0.41423	0.071
Mof_H 	H 	0.8396	0.2387	0.396	-0.004
Mof_N 	N 	0.98344	0.6402	0.57246	-0.275
Mof_C 	C 	0.9548	0.6099	0.53987	0.069
Mof_H 	H 	0.9364	0.6515	0.523	-0.011
Mof_C 	C 	0.9513	0.5198	0.53	-0.114
Mof_H 	H 	0.9306	0.5004	0.5068	0.078
Mof_C 	C 	0.97814	0.4576	0.55414	0.055
Mof_C 	C 	0.0072	0.4903	0.58848	-0.118
Mof_H 	H 	0.0258	0.4503	0.6062	0.085
Mof_C 	C 	0.0087	0.5807	0.5963	0.065
Mof_H 	H 	0.0285	0.602	0.6197	-0.018
Mof_N 	N 	0.12608	0.0929	0.61238	-0.258
Mof_C 	C 	0.0901	0.0466	0.59592	-0.03
Mof_H 	H 	0.0902	0.9833	0.5991	0.046
Mof_C 	C 	0.0531	0.088	0.57467	-0.072
Mof_H 	H 	0.0286	0.0537	0.5626	0.052
Mof_C 	C 	0.05262	0.1804	0.57142	0.031
Mof_C 	C 	0.0898	0.2279	0.58713	-0.102
Mof_H 	H 	0.0906	0.2912	0.5841	0.086
Mof_C 	C 	0.1255	0.1814	0.60718	0.059
Mof_H 	H 	0.151	0.214	0.6178	-0.002
Mof_C 	C 	0.95138	0.2426	0.50549	0.087
Mof_N 	N 	0.94628	0.3285	0.51455	-0.138
Mof_C 	C 	0.97788	0.3616	0.54382	0.106
Mof_N 	N 	0.01195	0.3156	0.56396	-0.135
Mof_C 	C 	0.01346	0.2309	0.55183	0.108
Mof_N 	N 	0.98436	0.1907	0.52327	-0.144
Mof_N 	N 	0.94376	0.7918	0.61736	-0.272
Mof_C 	C 	0.9304	0.8761	0.6201	0.07
Mof_H 	H 	0.942	0.9232	0.608	-0.007
Mof_C 	C 	0.9008	0.8965	0.6398	-0.115
Mof_H 	H 	0.8917	0.9567	0.641	0.092
Mof_C 	C 	0.88412	0.8289	0.65802	0.063
Mof_C 	C 	0.8975	0.7413	0.6548	-0.121
Mof_H 	H 	0.8866	0.693	0.6667	0.085
Mof_C 	C 	0.927	0.7262	0.634	0.081
Mof_H 	H 	0.9357	0.6663	0.6313	-0.015
Mof_N 	N 	0.71937	0.1641	0.64294	-0.268
Mof_C 	C 	0.74231	0.1271	0.62091	0.047
Mof_H 	H 	0.7404	0.1516	0.5954	-0.009
Mof_C 	C 	0.76841	0.0553	0.63363	-0.091
Mof_H 	H 	0.7846	0.031	0.6173	0.059
Mof_C 	C 	0.77086	0.0184	0.67085	-0.013
Mof_C 	C 	0.74732	0.0569	0.6943	-0.085
Mof_H 	H 	0.7484	0.0331	0.7198	0.058
Mof_C 	C 	0.72242	0.1301	0.67962	0.044
Mof_H 	H 	0.7069	0.1578	0.6957	-0.008
Mof_N 	N 	0.80328	0.662	0.82188	-0.27
Mof_C 	C 	0.8391	0.6602	0.811	0.075
Mof_H 	H 	0.8619	0.6246	0.826	-0.013
Mof_C 	C 	0.8444	0.7083	0.7788	-0.109
Mof_H 	H 	0.8704	0.7055	0.7718	0.085
Mof_C 	C 	0.81117	0.7608	0.75678	0.056
Mof_C 	C 	0.7737	0.7615	0.76817	-0.109
Mof_H 	H 	0.7502	0.7961	0.7537	0.078
Mof_C 	C 	0.771	0.7116	0.80066	0.071
Mof_H 	H 	0.7453	0.7125	0.8082	-0.006
Mof_C 	C 	0.85183	0.8503	0.67892	0.11
Mof_N 	N 	0.82897	0.9242	0.66706	-0.135
Mof_C 	C 	0.79824	0.9388	0.68476	0.146
Mof_N 	N 	0.79043	0.8875	0.71334	-0.141
Mof_C 	C 	0.81679	0.817	0.72405	0.103
Mof_N 	N 	0.8477	0.7957	0.70788	-0.136
Mof_N 	N 	0.62143	0.1953	0.60109	-0.284
Mof_C 	C 	0.5838	0.2374	0.5893	0.082
Mof_H 	H 	0.5827	0.3003	0.5932	-0.019
Mof_C 	C 	0.54666	0.1921	0.5717	-0.154
Mof_H 	H 	0.5206	0.2235	0.563	0.091
Mof_C 	C 	0.54829	0.0993	0.56698	0.107
Mof_C 	C 	0.5869	0.0556	0.5795	-0.235
Mof_H 	H 	0.5888	0.9925	0.5766	0.157
Mof_C 	C 	0.6225	0.1061	0.5963	0.118
Mof_H 	H 	0.649	0.0763	0.6048	-0.03
Mof_N 	N 	0.35288	0.169	0.41098	-0.284
Mof_C 	C 	0.381	0.2153	0.4392	0.082
Mof_H 	H 	0.3797	0.279	0.4388	-0.015
Mof_C 	C 	0.412	0.1737	0.4688	-0.153
Mof_H 	H 	0.4316	0.2081	0.4883	0.105
Mof_C 	C 	0.41379	0.0801	0.46966	0.099
Mof_C 	C 	0.38431	0.0319	0.44125	-0.232
Mof_H 	H 	0.3845	0.9682	0.4415	0.136
Mof_C 	C 	0.3542	0.0793	0.41215	0.118
Mof_H 	H 	0.334	0.0466	0.3925	-0.04
Mof_N 	N 	0.47832	0.636	0.56625	-0.272
Mof_C 	C 	0.509	0.6923	0.5849	0.064
Mof_H 	H 	0.5315	0.6697	0.606	-0.014
Mof_C 	C 	0.5095	0.7816	0.575	-0.114
Mof_H 	H 	0.5323	0.819	0.5887	0.086
Mof_C 	C 	0.4766	0.8164	0.545	0.056
Mof_C 	C 	0.445	0.758	0.5249	-0.109
Mof_H 	H 	0.4223	0.7789	0.5036	0.079
Mof_C 	C 	0.447	0.6687	0.5364	0.059
Mof_C 	C 	0.51015	0.0466	0.54699	0.043
Mof_N 	N 	0.47936	0.0886	0.51998	-0.126
Mof_C 	C 	0.44746	0.0349	0.50071	0.033
Mof_N 	N 	0.44434	0.9471	0.50647	-0.11
Mof_C 	C 	0.47653	0.913	0.53514	0.108
Mof_N 	N 	0.50992	0.96	0.55639	-0.105
Mof_N 	N 	0.43815	0.4973	0.61987	-0.275
Mof_C 	C 	0.42755	0.4146	0.6289	0.064
Mof_H 	H 	0.4406	0.3642	0.6205	-0.019
Mof_C 	C 	0.3981	0.401	0.65012	-0.113
Mof_H 	H 	0.3911	0.3418	0.6561	0.081
Mof_C 	C 	0.37901	0.4738	0.66263	0.06
Mof_C 	C 	0.3912	0.5587	0.6541	-0.119
Mof_H 	H 	0.3795	0.6102	0.6631	0.087
Mof_C 	C 	0.4203	0.568	0.6327	0.076
Mof_H 	H 	0.4281	0.6266	0.6267	-0.012
Mof_N 	N 	0.30437	0.6839	0.82065	-0.272
Mof_C 	C 	0.2744	0.622	0.8072	0.068
Mof_H 	H 	0.2522	0.617	0.8198	-0.006
Mof_C 	C 	0.2741	0.565	0.776	-0.119
Mof_H 	H 	0.2521	0.522	0.7672	0.069
Mof_C 	C 	0.3065	0.5719	0.75768	0.048
Mof_C 	C 	0.3372	0.6372	0.7713	-0.112
Mof_H 	H 	0.3594	0.6447	0.7589	0.086
Mof_C 	C 	0.3352	0.6907	0.8026	0.07
Mof_H 	H 	0.3567	0.7343	0.8119	-0.01
Mof_N 	N 	0.2159	0.1423	0.67015	-0.271
Mof_C 	C 	0.2147	0.1974	0.70042	0.053
Mof_H 	H 	0.1966	0.1828	0.7167	-0.004
Mof_C 	C 	0.2391	0.2751	0.70866	-0.104
Mof_H 	H 	0.2376	0.3128	0.7302	0.066
Mof_C 	C 	0.26574	0.2972	0.68518	0.039
Mof_C 	C 	0.2667	0.2397	0.6538	-0.11
Mof_H 	H 	0.2844	0.2527	0.6371	0.078
Mof_C 	C 	0.2416	0.1634	0.6475	0.057
Mof_H 	H 	0.2426	0.1246	0.6262	-0.017
Mof_C 	C 	0.34608	0.4606	0.68381	0.114
Mof_N 	N 	0.34123	0.5236	0.70886	-0.135
Mof_C 	C 	0.31019	0.5091	0.72564	0.104
Mof_N 	N 	0.28311	0.4396	0.71783	-0.149
Mof_C 	C 	0.29204	0.3794	0.69315	0.106
Mof_N 	N 	0.32383	0.3839	0.67598	-0.132
Mof_N 	N 	0.35251	0.7061	0.91323	-0.272
Mof_C 	C 	0.382	0.7545	0.9394	0.067
Mof_H 	H 	0.3819	0.8178	0.9365	-0.003
Mof_C 	C 	0.4123	0.7156	0.9703	-0.123
Mof_H 	H 	0.4332	0.7514	0.9879	0.093
Mof_C 	C 	0.41171	0.6235	0.9752	0.049
Mof_C 	C 	0.3813	0.5734	0.949	-0.122
Mof_H 	H 	0.3801	0.5101	0.9518	0.082
Mof_C 	C 	0.3523	0.6182	0.9183	0.074
Mof_H 	H 	0.3313	0.5838	0.9	-0.005
Mof_N 	N 	0.4818	0.1795	0.0694	-0.282
Mof_C 	C 	0.4499	0.212	0.0411	0.089
Mof_H 	H 	0.4295	0.1712	0.0261	-0.024
Mof_C 	C 	0.4445	0.3024	0.0323	-0.138
Mof_H 	H 	0.4208	0.3228	0.0119	0.085
Mof_C 	C 	0.4738	0.3616	0.0532	0.075
Mof_C 	C 	0.5075	0.3285	0.0812	-0.135
Mof_H 	H 	0.529	0.3678	0.0956	0.091
Mof_C 	C 	0.5105	0.2376	0.0886	0.079
Mof_H 	H 	0.5343	0.2158	0.1085	-0.019
Mof_N 	N 	0.61944	0.7326	0.11306	-0.271
Mof_C 	C 	0.6175	0.6434	0.1135	0.065
Mof_H 	H 	0.6421	0.6106	0.1269	0.001
Mof_C 	C 	0.5808	0.5969	0.0951	-0.116
Mof_H 	H 	0.5804	0.5332	0.096	0.092
Mof_C 	C 	0.5452	0.6431	0.0755	0.058
Mof_C 	C 	0.5477	0.7358	0.0741	-0.125
Mof_H 	H 	0.5238	0.7702	0.0603	0.082
Mof_C 	C 	0.5857	0.7774	0.0932	0.077
Mof_H 	H 	0.5874	0.8409	0.0918	-0.011
Mof_C 	C 	0.44469	0.581	0.008	0.089
Mof_N 	N 	0.44052	0.4932	0.0152	-0.137
Mof_C 	C 	0.4724	0.4606	0.0449	0.1
Mof_N 	N 	0.50489	0.5076	0.06661	-0.135
Mof_C 	C 	0.5064	0.5923	0.0556	0.102
Mof_N 	N 	0.47707	0.6334	0.02644	-0.14
Mof_N 	N 	0.30868	0.1582	0.31965	-0.264
Mof_C 	C 	0.2756	0.1103	0.29828	0.047
Mof_H 	H 	0.2496	0.1132	0.3052	-0.007
Mof_C 	C 	0.2779	0.0573	0.26678	-0.079
Mof_H 	H 	0.2541	0.0232	0.2526	0.051
Mof_C 	C 	0.3153	0.0542	0.25591	-0.015
Mof_C 	C 	0.3497	0.1046	0.2774	-0.074
Mof_H 	H 	0.3757	0.1042	0.2705	0.065
Mof_C 	C 	0.345	0.1551	0.3091	0.047
Mof_H 	H 	0.3684	0.1891	0.324	-0.009
Mof_N 	N 	0.21811	0.6536	0.1435	-0.272
Mof_C 	C 	0.2219	0.6882	0.1797	0.072
Mof_H 	H 	0.2056	0.6633	0.1958	-0.012
Mof_C 	C 	0.2489	0.7596	0.19429	-0.113
Mof_H 	H 	0.251	0.7832	0.22	0.086
Mof_C 	C 	0.27282	0.7958	0.1711	0.054
Mof_C 	C 	0.27	0.7577	0.1343	-0.111
Mof_H 	H 	0.2868	0.7799	0.1181	0.08
Mof_C 	C 	0.2424	0.6866	0.1214	0.058
Mof_H 	H 	0.2405	0.6605	0.0962	-0.008
Mof_N 	N 	0.44498	0.0221	0.11398	-0.314
Mof_C 	C 	0.4372	0.0803	0.1399	0.109
Mof_H 	H 	0.4524	0.1352	0.1441	-0.03
Mof_C 	C 	0.4077	0.0644	0.1613	-0.208
Mof_H 	H 	0.4033	0.1071	0.1799	0.108
Mof_C 	C 	0.3851	0.9852	0.1547	0.138
Mof_C 	C 	0.3936	0.9239	0.128	-0.172
Mof_H 	H 	0.3792	0.868	0.1234	0.102
Mof_C 	C 	0.423	0.9453	0.1082	0.143
Mof_H 	H 	0.4282	0.9035	0.0895	-0.031
Mof_C 	C 	0.3203	0.996	0.22307	0.184
Mof_N 	N 	0.2933	0.927	0.21278	-0.144
Mof_C 	C 	0.30024	0.8759	0.18379	0.106
Mof_N 	N 	0.32924	0.8911	0.16445	-0.141
Mof_C 	C 	0.3536	0.9633	0.17675	0.125
Mof_N 	N 	0.35106	0.0164	0.2064	-0.184
Mof_N 	N 	0.11789	0.6231	0.10637	-0.268
Mof_C 	C 	0.0815	0.5792	0.0919	0.064
Mof_H 	H 	0.0815	0.5155	0.0934	-0.013
Mof_C 	C 	0.04366	0.6227	0.0749	-0.118
Mof_H 	H 	0.0183	0.5895	0.0645	0.076
Mof_C 	C 	0.04332	0.7155	0.07335	0.054
Mof_C 	C 	0.0809	0.7616	0.0895	-0.114
Mof_H 	H 	0.0814	0.8252	0.0899	0.095
Mof_C 	C 	0.1178	0.7126	0.1051	0.064
Mof_H 	H 	0.1438	0.7438	0.1151	0.003
Mof_N 	N 	0.84807	0.6494	0.91322	-0.273
Mof_C 	C 	0.8818	0.603	0.93489	0.065
Mof_H 	H 	0.8837	0.5408	0.9298	-0.004
Mof_C 	C 	0.9137	0.6429	0.9644	-0.12
Mof_H 	H 	0.9372	0.6087	0.9793	0.091
Mof_C 	C 	0.91083	0.7336	0.97191	0.053
Mof_C 	C 	0.8764	0.7826	0.94909	-0.12
Mof_H 	H 	0.874	0.8452	0.9531	0.09
Mof_C 	C 	0.8459	0.7373	0.92049	0.078
Mof_H 	H 	0.8222	0.7701	0.9052	-0.014
Mof_N 	N 	0.97259	0.1775	0.06756	-0.302
Mof_C 	C 	0.9958	0.1194	0.0935	0.167
Mof_H 	H 	0.0136	0.1417	0.1179	-0.054
Mof_C 	C 	0.9952	0.0283	0.0866	-0.332
Mof_H 	H 	0.0126	0.989	0.1056	0.18
Mof_C 	C 	0.96854	0.9948	0.05127	0.236
Mof_C 	C 	0.9432	0.0548	0.02518	-0.258
Mof_H 	H 	0.9238	0.0342	0.0014	0.119
Mof_C 	C 	0.9466	0.1459	0.0341	0.141
Mof_H 	H 	0.9297	0.187	0.0156	-0.032
Mof_C 	C 	0.005	0.7669	0.05298	0.102
Mof_N 	N 	0.97631	0.7259	0.02357	-0.14
Mof_C 	C 	0.94371	0.7774	0.00437	0.092
Mof_N 	N 	0.93895	0.864	0.01201	-0.123
Mof_C 	C 	0.96958	0.8979	0.04208	0.061
Mof_N 	N 	0.00261	0.8519	0.0643	-0.124
Mof_N 	N 	0.06161	0.8363	0.88606	-0.276
Mof_I 	I 	0.04455	0.9068	0.9826	-0.353
Mof_Zn	Zn	0.01919	0.81435	0.91905	1.162
Mof_C 	C 	0.0748	0.9201	0.8813	0.07
Mof_H 	H 	0.0638	0.9686	0.893	-0.008
Mof_I 	I 	0.94437	0.82989	0.87375	-0.364
Mof_Zn	Zn	0.32879	0.29335	0.84794	1.162
Mof_C 	C 	0.1038	0.9381	0.8601	-0.114
Mof_H 	H 	0.1126	0.9979	0.8575	0.093
Mof_I 	I 	0.29249	0.40029	0.88508	-0.383
Mof_Zn	Zn	0.18051	0.55258	0.63778	1.163
Mof_C 	C 	0.11981	0.8673	0.84262	0.063
Mof_I 	I 	0.35923	0.32307	0.78969	-0.357
Mof_Zn	Zn	0.01019	0.27396	0.41234	1.163
Mof_C 	C 	0.1057	0.7805	0.8473	-0.118
Mof_H 	H 	0.1158	0.7305	0.8357	0.087
Mof_I 	I 	0.24727	0.54586	0.61532	-0.361
Mof_Zn	Zn	0.82529	0.53392	0.34458	1.162
Mof_C 	C 	0.0768	0.7693	0.8693	0.08
Mof_H 	H 	0.0673	0.7103	0.8725	-0.017
Mof_I 	I 	0.14288	0.41324	0.6544	-0.382
Mof_Zn	Zn	0.32261	0.76647	0.37972	1.163
Mof_N 	N 	0.28763	0.1839	0.83314	-0.261
Mof_I 	I 	0.94009	0.30375	0.36094	-0.392
Mof_Zn	Zn	0.69238	0.73771	0.63204	1.163
Mof_C 	C 	0.2675	0.1566	0.8594	0.046
Mof_H 	H 	0.2717	0.1887	0.8836	-0.01
Mof_I 	I 	0.03584	0.3772	0.47263	-0.375
Mof_Zn	Zn	0.51908	0.00521	0.41348	1.146
Mof_C 	C 	0.2407	0.083	0.8525	-0.085
Mof_H 	H 	0.2266	0.065	0.8717	0.056
Mof_I 	I 	0.86107	0.51101	0.28913	-0.343
Mof_Zn	Zn	0.69372	0.26691	0.13138	1.163
Mof_C 	C 	0.23476	0.0363	0.81712	-0.016
Mof_I 	I 	0.78853	0.41548	0.37554	-0.383
Mof_Zn	Zn	0.825	0.05409	0.88048	1.156
Mof_C 	C 	0.2559	0.0646	0.78967	-0.075
Mof_H 	H 	0.2525	0.0337	0.7652	0.042
Mof_I 	I 	0.3085	0.82497	0.44393	-0.349
Mof_Zn	Zn	0.50978	0.54434	0.91612	1.163
Mof_C 	C 	0.28209	0.1389	0.79893	0.041
Mof_H 	H 	0.2966	0.1586	0.7803	-0.002
Mof_I 	I 	0.32516	0.87322	0.325	-0.345
Mof_Zn	Zn	0.19985	0.08765	0.12899	1.157
Mof_N 	N 	0.18661	0.6401	0.68528	-0.27
Mof_I 	I 	0.76208	0.72831	0.61469	-0.365
Mof_C 	C 	0.1591	0.6332	0.707	0.067
Mof_H 	H 	0.1388	0.5863	0.701	-0.012
Mof_I 	I 	0.6587	0.88464	0.64513	-0.351
Mof_C 	C 	0.1587	0.6908	0.7376	-0.111
Mof_H 	H 	0.1393	0.6823	0.7531	0.083
Mof_I 	I 	0.54768	0.89826	0.47197	-0.351
Mof_C 	C 	0.18737	0.7619	0.74535	0.051
Mof_I 	I 	0.44648	0.97646	0.36526	-0.332
Mof_C 	C 	0.2162	0.7694	0.72307	-0.116
Mof_H 	H 	0.2365	0.8164	0.7281	0.076
Mof_I 	I 	0.65984	0.41321	0.14558	-0.38
Mof_C 	C 	0.215	0.7067	0.69314	0.065
Mof_H 	H 	0.2349	0.7115	0.6779	-0.002
Mof_I 	I 	0.76256	0.25298	0.11224	-0.37
Mof_C 	C 	0.15204	0.8799	0.82056	0.115
Mof_I 	I 	0.81908	0.01669	0.95058	-0.402
Mof_N 	N 	0.17633	0.9535	0.82831	-0.132
Mof_I 	I 	0.82228	0.93566	0.8292	-0.337
Mof_C 	C 	0.20695	0.9561	0.80977	0.149
Mof_I 	I 	0.53532	0.45003	0.97905	-0.379
Mof_N 	N 	0.21388	0.8947	0.78418	-0.147
Mof_I 	I 	0.43747	0.52592	0.86675	-0.395
Mof_C 	C 	0.18525	0.8272	0.77669	0.104
Mof_I 	I 	0.27062	0.1125	0.11501	-0.404
Mof_N 	N 	0.15447	0.8165	0.7943	-0.133
Mof_I 	I 	0.17174	0.9339	0.14144	-0.339
Mof_N 	N 	0.137	0.6172	0.59189	-0.272
Mof_C 	C 	0.1072	0.5693	0.566	0.068
Mof_H 	H 	0.1057	0.5065	0.57	-0.009
Mof_C 	C 	0.0786	0.6085	0.5339	-0.127
Mof_H 	H 	0.0576	0.5732	0.5162	0.095
Mof_C 	C 	0.08098	0.6993	0.52785	0.051
Mof_C 	C 	0.1118	0.7494	0.5537	-0.126
Mof_H 	H 	0.1143	0.812	0.5499	0.086
Mof_C 	C 	0.1392	0.7049	0.58577	0.074
Mof_H 	H 	0.1604	0.7387	0.604	-0.004
Mof_N 	N 	0.01656	0.1402	0.42754	-0.271
Mof_C 	C 	0.0452	0.1099	0.46013	0.081
Mof_H 	H 	0.0636	0.1515	0.477	-0.018
Mof_C 	C 	0.0487	0.0198	0.47	-0.168
Mof_H 	H 	0.0694	0.0004	0.4932	0.082
Mof_C 	C 	0.02186	0.9576	0.44586	0.088
Mof_C 	C 	0.9928	0.9903	0.41152	-0.06
Mof_H 	H 	0.9742	0.9503	0.3938	0.076
Mof_C 	C 	0.9913	0.0807	0.4037	0.007
Mof_H 	H 	0.9715	0.102	0.3803	-0.006
Mof_N 	N 	0.87392	0.5929	0.38762	-0.27
Mof_C 	C 	0.9099	0.5466	0.40408	0.064
Mof_H 	H 	0.9098	0.4833	0.4009	-0.013
Mof_C 	C 	0.9469	0.588	0.42533	-0.121
Mof_H 	H 	0.9714	0.5537	0.4374	0.082
Mof_C 	C 	0.94738	0.6804	0.42858	0.058
Mof_C 	C 	0.9102	0.7279	0.41287	-0.12
Mof_H 	H 	0.9094	0.7912	0.4159	0.095
Mof_C 	C 	0.8745	0.6814	0.39282	0.073
Mof_H 	H 	0.849	0.714	0.3822	-0.004
Mof_C 	C 	0.04862	0.7426	0.49451	0.089
Mof_N 	N 	0.05372	0.8285	0.48545	-0.131
Mof_C 	C 	0.02212	0.8616	0.45618	0.104
Mof_N 	N 	0.98805	0.8156	0.43604	-0.131
Mof_C 	C 	0.98654	0.7309	0.44817	0.105
Mof_N 	N 	0.01564	0.6907	0.47673	-0.142
Mof_N 	N 	0.05624	0.2918	0.38264	-0.273
Mof_C 	C 	0.0696	0.3761	0.3799	0.066
Mof_H 	H 	0.058	0.4232	0.392	-0.014
Mof_C 	C 	0.0992	0.3965	0.3602	-0.116
Mof_H 	H 	0.1083	0.4567	0.359	0.083
Mof_C 	C 	0.11588	0.3289	0.34198	0.059
Mof_C 	C 	0.1025	0.2413	0.3452	-0.121
Mof_H 	H 	0.1134	0.193	0.3333	0.081
Mof_C 	C 	0.073	0.2262	0.366	0.078
Mof_H 	H 	0.0643	0.1663	0.3687	-0.019
Mof_N 	N 	0.28063	0.6641	0.35706	-0.273
Mof_C 	C 	0.25769	0.6271	0.37909	0.069
Mof_H 	H 	0.2596	0.6516	0.4046	-0.011
Mof_C 	C 	0.23159	0.5553	0.36637	-0.119
Mof_H 	H 	0.2154	0.531	0.3827	0.083
Mof_C 	C 	0.22914	0.5184	0.32915	0.052
Mof_C 	C 	0.25268	0.5569	0.3057	-0.113
Mof_H 	H 	0.2516	0.5331	0.2802	0.082
Mof_C 	C 	0.27758	0.6301	0.32038	0.066
Mof_H 	H 	0.2931	0.6578	0.3043	-0.011
Mof_N 	N 	0.19672	0.162	0.17812	-0.274
Mof_C 	C 	0.1609	0.1602	0.189	0.073
Mof_H 	H 	0.1381	0.1246	0.174	-0.02
Mof_C 	C 	0.1556	0.2083	0.2212	-0.11
Mof_H 	H 	0.1296	0.2055	0.2282	0.082
Mof_C 	C 	0.18883	0.2608	0.24322	0.054
Mof_C 	C 	0.2263	0.2615	0.23183	-0.108
Mof_H 	H 	0.2498	0.2961	0.2463	0.074
Mof_C 	C 	0.229	0.2116	0.19934	0.069
Mof_H 	H 	0.2547	0.2125	0.1918	-0.009
Mof_C 	C 	0.14817	0.3503	0.32108	0.108
Mof_N 	N 	0.17103	0.4242	0.33294	-0.136
Mof_C 	C 	0.20176	0.4388	0.31524	0.098
Mof_N 	N 	0.20957	0.3875	0.28666	-0.139
Mof_C 	C 	0.18321	0.317	0.27595	0.102
Mof_N 	N 	0.1523	0.2957	0.29212	-0.137
Mof_N 	N 	0.37857	0.6953	0.39891	-0.271
Mof_C 	C 	0.4162	0.7374	0.4107	0.064
Mof_H 	H 	0.4173	0.8003	0.4068	-0.011
Mof_C 	C 	0.45334	0.6921	0.4283	-0.118
Mof_H 	H 	0.4794	0.7235	0.437	0.081
Mof_C 	C 	0.45171	0.5993	0.43302	0.054
Mof_C 	C 	0.4131	0.5556	0.4205	-0.117
Mof_H 	H 	0.4112	0.4925	0.4234	0.091
Mof_C 	C 	0.3775	0.6061	0.4037	0.067
Mof_H 	H 	0.351	0.5763	0.3952	-0.003
Mof_N 	N 	0.64712	0.669	0.58902	-0.27
Mof_C 	C 	0.619	0.7153	0.5608	0.065
Mof_H 	H 	0.6203	0.779	0.5612	-0.008
Mof_C 	C 	0.588	0.6737	0.5312	-0.117
Mof_H 	H 	0.5684	0.7081	0.5117	0.094
Mof_C 	C 	0.58621	0.5801	0.53034	0.048
Mof_C 	C 	0.61569	0.5319	0.55875	-0.114
Mof_H 	H 	0.6155	0.4682	0.5585	0.072
Mof_C 	C 	0.6458	0.5793	0.58785	0.071
Mof_H 	H 	0.666	0.5466	0.6075	-0.012
Mof_N 	N 	0.52168	0.136	0.43375	-0.277
Mof_C 	C 	0.491	0.1923	0.4151	0.063
Mof_H 	H 	0.4685	0.1697	0.394	-0.022
Mof_C 	C 	0.4905	0.2816	0.425	-0.115
Mof_H 	H 	0.4677	0.319	0.4113	0.083
Mof_C 	C 	0.5234	0.3164	0.455	0.053
Mof_C 	C 	0.555	0.258	0.4751	-0.107
Mof_H 	H 	0.5777	0.2789	0.4964	0.076
Mof_C 	C 	0.553	0.1687	0.4636	0.049
Mof_C 	C 	0.48985	0.5466	0.45301	0.1
Mof_N 	N 	0.52064	0.5886	0.48002	-0.14
Mof_C 	C 	0.55254	0.5349	0.49929	0.091
Mof_N 	N 	0.55566	0.4471	0.49353	-0.139
Mof_C 	C 	0.52347	0.413	0.46486	0.103
Mof_N 	N 	0.49008	0.46	0.44361	-0.134
Mof_N 	N 	0.56185	0.9973	0.38013	-0.251
Mof_C 	C 	0.57245	0.9146	0.3711	0.08
Mof_H 	H 	0.5594	0.8642	0.3795	-0.019
Mof_C 	C 	0.6019	0.901	0.34988	-0.129
Mof_H 	H 	0.6089	0.8418	0.3439	0.091
Mof_C 	C 	0.62099	0.9738	0.33737	0.109
Mof_C 	C 	0.6088	0.0587	0.3459	-0.171
Mof_H 	H 	0.6205	0.1102	0.3369	0.096
Mof_C 	C 	0.5797	0.068	0.3673	0.052
Mof_H 	H 	0.5719	0.1266	0.3733	-0.012
Mof_N 	N 	0.69563	0.1839	0.17935	-0.273
Mof_C 	C 	0.7256	0.122	0.1928	0.067
Mof_H 	H 	0.7478	0.117	0.1802	-0.01
Mof_C 	C 	0.7259	0.065	0.224	-0.128
Mof_H 	H 	0.7479	0.022	0.2328	0.06
Mof_C 	C 	0.6935	0.0719	0.24232	0.053
Mof_C 	C 	0.6628	0.1372	0.2287	-0.118
Mof_H 	H 	0.6406	0.1447	0.2411	0.084
Mof_C 	C 	0.6648	0.1907	0.1974	0.069
Mof_H 	H 	0.6433	0.2343	0.1881	-0.013
Mof_N 	N 	0.7841	0.6423	0.32985	-0.268
Mof_C 	C 	0.7853	0.6974	0.29958	0.055
Mof_H 	H 	0.8034	0.6828	0.2833	-0.002
Mof_C 	C 	0.7609	0.7751	0.29134	-0.104
Mof_H 	H 	0.7624	0.8128	0.2698	0.071
Mof_C 	C 	0.73426	0.7972	0.31482	0.042
Mof_C 	C 	0.7333	0.7397	0.3462	-0.107
Mof_H 	H 	0.7156	0.7527	0.3629	0.083
Mof_C 	C 	0.7584	0.6634	0.3525	0.06
Mof_H 	H 	0.7574	0.6246	0.3738	-0.008
Mof_C 	C 	0.65392	0.9606	0.31619	0.139
Mof_N 	N 	0.65877	0.0236	0.29114	-0.151
Mof_C 	C 	0.68981	0.0091	0.27436	0.066
Mof_N 	N 	0.71689	0.9396	0.28217	-0.123
Mof_C 	C 	0.70796	0.8794	0.30685	0.114
Mof_N 	N 	0.67617	0.8839	0.32402	-0.131
Mof_N 	N 	0.64749	0.2061	0.08677	-0.275
Mof_C 	C 	0.618	0.2545	0.0606	0.069
Mof_H 	H 	0.6181	0.3178	0.0635	-0.007
Mof_C 	C 	0.5877	0.2156	0.0297	-0.13
Mof_H 	H 	0.5668	0.2514	0.0121	0.094
Mof_C 	C 	0.58829	0.1235	0.0248	0.056
Mof_C 	C 	0.6187	0.0734	0.051	-0.131
Mof_H 	H 	0.6199	0.0101	0.0482	0.07
Mof_C 	C 	0.6477	0.1182	0.0817	0.075
Mof_H 	H 	0.6687	0.0838	0.1	-0.014
Mof_N 	N 	0.5182	0.6795	0.9306	-0.278
Mof_C 	C 	0.5501	0.712	0.9589	0.087
Mof_H 	H 	0.5705	0.6712	0.9739	-0.016
Mof_C 	C 	0.5555	0.8024	0.9677	-0.131
Mof_H 	H 	0.5792	0.8228	0.9881	0.087
Mof_C 	C 	0.5262	0.8616	0.9468	0.069
Mof_C 	C 	0.4925	0.8285	0.9188	-0.128
Mof_H 	H 	0.471	0.8678	0.9044	0.097
Mof_C 	C 	0.4895	0.7376	0.9114	0.078
Mof_H 	H 	0.4657	0.7158	0.8915	-0.017
Mof_N 	N 	0.38056	0.2326	0.88694	-0.273
Mof_C 	C 	0.3825	0.1434	0.8865	0.06
Mof_H 	H 	0.3579	0.1106	0.8731	-0.006
Mof_C 	C 	0.4192	0.0969	0.9049	-0.118
Mof_H 	H 	0.4196	0.0332	0.904	0.079
Mof_C 	C 	0.4548	0.1431	0.9245	0.054
Mof_C 	C 	0.4523	0.2358	0.9259	-0.128
Mof_H 	H 	0.4762	0.2702	0.9397	0.08
Mof_C 	C 	0.4143	0.2774	0.9068	0.076
Mof_H 	H 	0.4126	0.3409	0.9082	-0.02
Mof_C 	C 	0.55531	0.081	0.992	0.054
Mof_N 	N 	0.55948	0.9932	0.9848	-0.115
Mof_C 	C 	0.5276	0.9606	0.9551	0.137
Mof_N 	N 	0.49511	0.0076	0.93339	-0.163
Mof_C 	C 	0.4936	0.0923	0.9444	0.094
Mof_N 	N 	0.52293	0.1334	0.97356	-0.138
Mof_N 	N 	0.69132	0.6582	0.68035	-0.271
Mof_C 	C 	0.7244	0.6103	0.70172	0.073
Mof_H 	H 	0.7504	0.6132	0.6948	-0.011
Mof_C 	C 	0.7221	0.5573	0.73322	-0.116
Mof_H 	H 	0.7459	0.5232	0.7474	0.077
Mof_C 	C 	0.6847	0.5542	0.74409	0.06
Mof_C 	C 	0.6503	0.6046	0.7226	-0.11
Mof_H 	H 	0.6243	0.6042	0.7295	0.087
Mof_C 	C 	0.655	0.6551	0.6909	0.072
Mof_H 	H 	0.6316	0.6891	0.676	-0.013
Mof_N 	N 	0.78189	0.1536	0.8565	-0.276
Mof_C 	C 	0.7781	0.1882	0.8203	0.07
Mof_H 	H 	0.7944	0.1633	0.8042	-0.02
Mof_C 	C 	0.7511	0.2596	0.80571	-0.116
Mof_H 	H 	0.749	0.2832	0.78	0.082
Mof_C 	C 	0.72718	0.2958	0.8289	0.052
Mof_C 	C 	0.73	0.2577	0.8657	-0.113
Mof_H 	H 	0.7132	0.2799	0.8819	0.077
Mof_C 	C 	0.7576	0.1866	0.8786	0.056
Mof_H 	H 	0.7595	0.1605	0.9038	-0.011
Mof_N 	N 	0.55502	0.5221	0.88602	-0.275
Mof_C 	C 	0.5628	0.5803	0.8601	0.078
Mof_H 	H 	0.5476	0.6352	0.8559	-0.015
Mof_C 	C 	0.5923	0.5644	0.8387	-0.119
Mof_H 	H 	0.5967	0.6071	0.8201	0.087
Mof_C 	C 	0.6149	0.4852	0.8453	0.061
Mof_C 	C 	0.6064	0.4239	0.872	-0.118
Mof_H 	H 	0.6208	0.368	0.8766	0.08
Mof_C 	C 	0.577	0.4453	0.8918	0.067
Mof_H 	H 	0.5718	0.4035	0.9105	-0.014
Mof_C 	C 	0.6797	0.496	0.77693	0.101
Mof_N 	N 	0.7067	0.427	0.78722	-0.138
Mof_C 	C 	0.69976	0.3759	0.81621	0.098
Mof_N 	N 	0.67076	0.3911	0.83555	-0.14
Mof_C 	C 	0.6464	0.4633	0.82325	0.107
Mof_N 	N 	0.64894	0.5164	0.7936	-0.136
Mof_N 	N 	0.88211	0.1231	0.89363	-0.272
Mof_C 	C 	0.9185	0.0792	0.9081	0.06
Mof_H 	H 	0.9185	0.0155	0.9066	-0.027
Mof_C 	C 	0.95634	0.1227	0.9251	-0.119
Mof_H 	H 	0.9817	0.0895	0.9355	0.066
Mof_C 	C 	0.95668	0.2155	0.92665	0.05
Mof_C 	C 	0.9191	0.2616	0.9105	-0.113
Mof_H 	H 	0.9186	0.3252	0.9101	0.091
Mof_C 	C 	0.8822	0.2126	0.8949	0.06
Mof_H 	H 	0.8562	0.2438	0.8849	0.003
Mof_N 	N 	0.15193	0.1494	0.08678	-0.276
Mof_C 	C 	0.1182	0.103	0.06511	0.061
Mof_H 	H 	0.1163	0.0408	0.0702	-0.017
Mof_C 	C 	0.0863	0.1429	0.0356	-0.122
Mof_H 	H 	0.0628	0.1087	0.0207	0.082
Mof_C 	C 	0.08917	0.2336	0.02809	0.048
Mof_C 	C 	0.1236	0.2826	0.05091	-0.119
Mof_H 	H 	0.126	0.3452	0.0469	0.08
Mof_C 	C 	0.1541	0.2373	0.07951	0.073
Mof_H 	H 	0.1778	0.2701	0.0948	-0.017
Mof_N 	N 	0.02741	0.6775	0.93244	-0.27
Mof_C 	C 	0.0042	0.6194	0.9065	0.065
Mof_H 	H 	0.9864	0.6417	0.8821	-0.014
Mof_C 	C 	0.0048	0.5283	0.9134	-0.117
Mof_H 	H 	0.9874	0.489	0.8944	0.082
Mof_C 	C 	0.03146	0.4948	0.94873	0.058
Mof_C 	C 	0.0568	0.5548	0.97482	-0.117
Mof_H 	H 	0.0762	0.5342	0.9986	0.083
Mof_C 	C 	0.0534	0.6459	0.9659	0.074
Mof_H 	H 	0.0703	0.687	0.9844	-0.009
Mof_C 	C 	0.995	0.2669	0.94702	0.1
Mof_N 	N 	0.02369	0.2259	0.97643	-0.144
Mof_C 	C 	0.05629	0.2774	0.99563	0.089
Mof_N 	N 	0.06105	0.364	0.98799	-0.137
Mof_C 	C 	0.03042	0.3979	0.95792	0.103
Mof_N 	N 	0.99739	0.3519	0.9357	-0.134
_end
