data_functionalizedCrystal
_audit_creation_method	'EQeq! by Chris Wilmer'
_symmetry_space_group_name_H-M	'P1'
_symmetry_Int_Tables_number	1
_symmetry_cell_setting	triclinic
loop_
_symmetry_equiv_pos_as_xyz
  x,y,z
_cell_length_a	10.4803
_cell_length_b	17.8855
_cell_length_c	17.8364
_cell_angle_alpha	90
_cell_angle_beta	105.744
_cell_angle_gamma	90
loop_
_atom_site_label
_atom_site_type_symbol
_atom_site_fract_x
_atom_site_fract_y
_atom_site_fract_z
_atom_site_charge
Mof_C 	C 	0.7182	0.0413	0.47	0.559
Mof_C 	C 	0.8543	0.0723	0.4758	-0.164
Mof_C 	C 	0.898	0.0811	0.4092	0.101
Mof_H 	H 	0.8401	0.0721	0.3604	0.033
Mof_C 	C 	0.0278	0.1032	0.4153	-0.135
Mof_C 	C 	0.1111	0.1196	0.4875	0.014
Mof_H 	H 	0.1979	0.1349	0.4926	0.045
Mof_C 	C 	0.0636	0.113	0.5519	0.036
Mof_C 	C 	0.938	0.0886	0.5479	0.034
Mof_H 	H 	0.91	0.0831	0.5928	0.047
Mof_C 	C 	0.0802	0.1053	0.3447	0.426
Mof_C 	C 	0.363	0.1716	0.2605	0.468
Mof_C 	C 	0.4365	0.2421	0.2909	-0.134
Mof_C 	C 	0.3778	0.3109	0.2683	0.082
Mof_H 	H 	0.2973	0.313	0.2301	0.023
Mof_C 	C 	0.4368	0.3763	0.3015	-0.134
Mof_C 	C 	0.5579	0.373	0.3578	-0.006
Mof_H 	H 	0.5991	0.4165	0.381	0.069
Mof_C 	C 	0.6154	0.3044	0.3784	0.064
Mof_C 	C 	0.558	0.2385	0.3467	0.002
Mof_H 	H 	0.5992	0.1928	0.3622	0.06
Mof_C 	C 	0.3702	0.451	0.2785	0.481
Mof_C 	C 	0.4754	0.1427	0.5275	0.58
Mof_C 	C 	0.4464	0.2257	0.5313	-0.219
Mof_C 	C 	0.5082	0.2664	0.5972	0.151
Mof_H 	H 	0.565	0.2413	0.6387	-0.012
Mof_C 	C 	0.4072	0.3752	0.5454	0.123
Mof_H 	H 	0.3935	0.4262	0.5497	-0.01
Mof_C 	C 	0.3398	0.3383	0.4777	-0.185
Mof_H 	H 	0.2809	0.3643	0.4378	0.103
Mof_C 	C 	0.3608	0.2632	0.47	0.15
Mof_H 	H 	0.3183	0.2381	0.4245	-0.01
Mof_Eu	Eu	0.40273	0.01465	0.37277	2.505
Mof_N 	N 	0.1542	0.1291	0.6299	0.002
Mof_N 	N 	0.7234	0.3005	0.4559	0.015
Mof_O 	O 	0.7578	0.357	0.4936	-0.088
Mof_O 	O 	0.7669	0.2419	0.4814	-0.078
Mof_N 	N 	0.4909	0.3398	0.6044	-0.27
Mof_O 	O 	0.6386	0.0342	0.4036	-0.563
Mof_O 	O 	0.694	0.0234	0.5322	-0.627
Mof_O 	O 	0.9986	0.1162	0.2795	-0.456
Mof_O 	O 	0.2007	0.0972	0.3527	-0.538
Mof_O 	O 	0.248	0.1801	0.6291	-0.053
Mof_O 	O 	0.1098	0.1349	0.6846	-0.048
Mof_O 	O 	0.4152	0.1098	0.2833	-0.582
Mof_O 	O 	0.2476	0.1799	0.2148	-0.496
Mof_O 	O 	0.2824	0.4549	0.2166	-0.589
Mof_O 	O 	0.41	0.5042	0.3258	-0.516
Mof_O 	O 	0.4498	0.1154	0.4611	-0.599
Mof_O 	O 	0.5215	0.1101	0.591	-0.584
Mof_Zn	Zn	0.10342	0.10878	0.20214	1.22
Mof_N 	N 	0.7551	0.3013	0.4233	-0.011
Mof_O 	O 	0.8131	0.3584	0.4491	-0.062
Mof_O 	O 	0.8131	0.2449	0.4391	-0.059
Mof_O 	O 	0.2684	0.1431	0.6358	-0.077
Mof_O 	O 	0.1288	0.0896	0.6863	-0.087
Mof_C 	C 	0.7818	0.5413	0.03	0.556
Mof_C 	C 	0.6457	0.5723	0.0242	-0.16
Mof_C 	C 	0.602	0.5811	0.0908	0.092
Mof_H 	H 	0.6599	0.5721	0.1396	0.034
Mof_C 	C 	0.4722	0.6032	0.0847	-0.128
Mof_C 	C 	0.3889	0.6196	0.0125	0.008
Mof_H 	H 	0.3021	0.6349	0.0074	0.047
Mof_C 	C 	0.4364	0.613	0.9481	0.043
Mof_C 	C 	0.562	0.5886	0.9521	0.025
Mof_H 	H 	0.59	0.5831	0.9072	0.049
Mof_C 	C 	0.4198	0.6053	0.1553	0.428
Mof_C 	C 	0.137	0.6716	0.2395	0.467
Mof_C 	C 	0.0635	0.7421	0.2091	-0.13
Mof_C 	C 	0.1222	0.8109	0.2317	0.08
Mof_H 	H 	0.2027	0.813	0.2699	0.024
Mof_C 	C 	0.0632	0.8763	0.1985	-0.131
Mof_C 	C 	0.9421	0.873	0.1422	-0.01
Mof_H 	H 	0.9009	0.9165	0.119	0.07
Mof_C 	C 	0.8846	0.8044	0.1216	0.067
Mof_C 	C 	0.942	0.7385	0.1533	-0.002
Mof_H 	H 	0.9008	0.6928	0.1378	0.061
Mof_C 	C 	0.1298	0.951	0.2215	0.485
Mof_C 	C 	0.0246	0.6427	0.9725	0.581
Mof_C 	C 	0.0536	0.7257	0.9687	-0.213
Mof_C 	C 	0.9918	0.7664	0.9028	0.142
Mof_H 	H 	0.935	0.7413	0.8613	-0.01
Mof_C 	C 	0.0928	0.8752	0.9546	0.12
Mof_H 	H 	0.1065	0.9262	0.9503	-0.008
Mof_C 	C 	0.1602	0.8383	0.0223	-0.181
Mof_H 	H 	0.2191	0.8643	0.0622	0.103
Mof_C 	C 	0.1392	0.7632	0.03	0.146
Mof_H 	H 	0.1817	0.7381	0.0755	-0.008
Mof_Eu	Eu	0.09727	0.51465	0.12723	2.506
Mof_N 	N 	0.3458	0.6291	0.8701	0.001
Mof_N 	N 	0.7766	0.8005	0.0441	0.014
Mof_O 	O 	0.7422	0.857	0.0064	-0.088
Mof_O 	O 	0.7331	0.7419	0.0186	-0.078
Mof_N 	N 	0.0091	0.8398	0.8956	-0.266
Mof_O 	O 	0.8614	0.5342	0.0964	-0.563
Mof_O 	O 	0.806	0.5234	0.9678	-0.628
Mof_O 	O 	0.5014	0.6162	0.2205	-0.459
Mof_O 	O 	0.2993	0.5972	0.1473	-0.538
Mof_O 	O 	0.252	0.6801	0.8709	-0.053
Mof_O 	O 	0.3902	0.6349	0.8154	-0.047
Mof_O 	O 	0.0848	0.6098	0.2167	-0.581
Mof_O 	O 	0.2524	0.6799	0.2852	-0.495
Mof_O 	O 	0.2176	0.9549	0.2834	-0.588
Mof_O 	O 	0.09	0.0042	0.1742	-0.521
Mof_O 	O 	0.0502	0.6154	0.0389	-0.6
Mof_O 	O 	0.9785	0.6101	0.909	-0.586
Mof_Zn	Zn	0.39658	0.60878	0.29786	1.221
Mof_N 	N 	0.7449	0.8013	0.0767	-0.011
Mof_O 	O 	0.6869	0.8584	0.0509	-0.062
Mof_O 	O 	0.6869	0.7449	0.0609	-0.06
Mof_O 	O 	0.2316	0.6431	0.8642	-0.077
Mof_O 	O 	0.3712	0.5896	0.8137	-0.087
Mof_C 	C 	0.2818	0.9587	0.53	0.558
Mof_C 	C 	0.1457	0.9277	0.5242	-0.165
Mof_C 	C 	0.102	0.9189	0.5908	0.1
Mof_H 	H 	0.1599	0.9279	0.6396	0.032
Mof_C 	C 	0.9722	0.8968	0.5847	-0.135
Mof_C 	C 	0.8889	0.8804	0.5125	0.014
Mof_H 	H 	0.8021	0.8651	0.5074	0.045
Mof_C 	C 	0.9364	0.887	0.4481	0.036
Mof_C 	C 	0.062	0.9114	0.4521	0.034
Mof_H 	H 	0.09	0.9169	0.4072	0.047
Mof_C 	C 	0.9198	0.8947	0.6553	0.426
Mof_C 	C 	0.637	0.8284	0.7395	0.468
Mof_C 	C 	0.5635	0.7579	0.7091	-0.134
Mof_C 	C 	0.6222	0.6891	0.7317	0.082
Mof_H 	H 	0.7027	0.687	0.7699	0.023
Mof_C 	C 	0.5632	0.6237	0.6985	-0.134
Mof_C 	C 	0.4421	0.627	0.6422	-0.006
Mof_H 	H 	0.4009	0.5835	0.619	0.069
Mof_C 	C 	0.3846	0.6956	0.6216	0.064
Mof_C 	C 	0.442	0.7615	0.6533	0.002
Mof_H 	H 	0.4008	0.8072	0.6378	0.06
Mof_C 	C 	0.6298	0.549	0.7215	0.481
Mof_C 	C 	0.5246	0.8573	0.4725	0.58
Mof_C 	C 	0.5536	0.7743	0.4687	-0.219
Mof_C 	C 	0.4918	0.7336	0.4028	0.151
Mof_H 	H 	0.435	0.7587	0.3613	-0.012
Mof_C 	C 	0.5928	0.6248	0.4546	0.123
Mof_H 	H 	0.6065	0.5738	0.4503	-0.01
Mof_C 	C 	0.6602	0.6617	0.5223	-0.185
Mof_H 	H 	0.7191	0.6357	0.5622	0.103
Mof_C 	C 	0.6392	0.7368	0.53	0.15
Mof_H 	H 	0.6817	0.7619	0.5755	-0.01
Mof_Eu	Eu	0.59727	0.98535	0.62723	2.505
Mof_N 	N 	0.8458	0.8709	0.3701	0.002
Mof_N 	N 	0.2766	0.6995	0.5441	0.015
Mof_O 	O 	0.2422	0.643	0.5064	-0.088
Mof_O 	O 	0.2331	0.7581	0.5186	-0.078
Mof_N 	N 	0.5091	0.6602	0.3956	-0.27
Mof_O 	O 	0.3614	0.9658	0.5964	-0.563
Mof_O 	O 	0.306	0.9766	0.4678	-0.627
Mof_O 	O 	0.0014	0.8838	0.7205	-0.456
Mof_O 	O 	0.7993	0.9028	0.6473	-0.538
Mof_O 	O 	0.752	0.8199	0.3709	-0.053
Mof_O 	O 	0.8902	0.8651	0.3154	-0.048
Mof_O 	O 	0.5848	0.8902	0.7167	-0.582
Mof_O 	O 	0.7524	0.8201	0.7852	-0.496
Mof_O 	O 	0.7176	0.5451	0.7834	-0.589
Mof_O 	O 	0.59	0.4958	0.6742	-0.516
Mof_O 	O 	0.5502	0.8846	0.5389	-0.599
Mof_O 	O 	0.4785	0.8899	0.409	-0.584
Mof_Zn	Zn	0.89658	0.89122	0.79786	1.22
Mof_N 	N 	0.2449	0.6987	0.5767	-0.011
Mof_O 	O 	0.1869	0.6416	0.5509	-0.062
Mof_O 	O 	0.1869	0.7551	0.5609	-0.059
Mof_O 	O 	0.7316	0.8569	0.3642	-0.077
Mof_O 	O 	0.8712	0.9104	0.3137	-0.087
Mof_C 	C 	0.2182	0.4587	0.97	0.556
Mof_C 	C 	0.3543	0.4277	0.9758	-0.16
Mof_C 	C 	0.398	0.4189	0.9092	0.092
Mof_H 	H 	0.3401	0.4279	0.8604	0.034
Mof_C 	C 	0.5278	0.3968	0.9153	-0.128
Mof_C 	C 	0.6111	0.3804	0.9875	0.008
Mof_H 	H 	0.6979	0.3651	0.9926	0.047
Mof_C 	C 	0.5636	0.387	0.0519	0.043
Mof_C 	C 	0.438	0.4114	0.0479	0.025
Mof_H 	H 	0.41	0.4169	0.0928	0.049
Mof_C 	C 	0.5802	0.3947	0.8447	0.428
Mof_C 	C 	0.863	0.3284	0.7605	0.467
Mof_C 	C 	0.9365	0.2579	0.7909	-0.13
Mof_C 	C 	0.8778	0.1891	0.7683	0.08
Mof_H 	H 	0.7973	0.187	0.7301	0.024
Mof_C 	C 	0.9368	0.1237	0.8015	-0.131
Mof_C 	C 	0.0579	0.127	0.8578	-0.01
Mof_H 	H 	0.0991	0.0835	0.881	0.07
Mof_C 	C 	0.1154	0.1956	0.8784	0.067
Mof_C 	C 	0.058	0.2615	0.8467	-0.002
Mof_H 	H 	0.0992	0.3072	0.8622	0.061
Mof_C 	C 	0.8702	0.049	0.7785	0.485
Mof_C 	C 	0.9754	0.3573	0.0275	0.581
Mof_C 	C 	0.9464	0.2743	0.0313	-0.213
Mof_C 	C 	0.0082	0.2336	0.0972	0.142
Mof_H 	H 	0.065	0.2587	0.1387	-0.01
Mof_C 	C 	0.9072	0.1248	0.0454	0.12
Mof_H 	H 	0.8935	0.0738	0.0497	-0.008
Mof_C 	C 	0.8398	0.1617	0.9777	-0.181
Mof_H 	H 	0.7809	0.1357	0.9378	0.103
Mof_C 	C 	0.8608	0.2368	0.97	0.146
Mof_H 	H 	0.8183	0.2619	0.9245	-0.008
Mof_Eu	Eu	0.90273	0.48535	0.87277	2.506
Mof_N 	N 	0.6542	0.3709	0.1299	0.001
Mof_N 	N 	0.2234	0.1995	0.9559	0.014
Mof_O 	O 	0.2578	0.143	0.9936	-0.088
Mof_O 	O 	0.2669	0.2581	0.9814	-0.078
Mof_N 	N 	0.9909	0.1602	0.1044	-0.266
Mof_O 	O 	0.1386	0.4658	0.9036	-0.563
Mof_O 	O 	0.194	0.4766	0.0322	-0.628
Mof_O 	O 	0.4986	0.3838	0.7795	-0.459
Mof_O 	O 	0.7007	0.4028	0.8527	-0.538
Mof_O 	O 	0.748	0.3199	0.1291	-0.053
Mof_O 	O 	0.6098	0.3651	0.1846	-0.047
Mof_O 	O 	0.9152	0.3902	0.7833	-0.581
Mof_O 	O 	0.7476	0.3201	0.7148	-0.495
Mof_O 	O 	0.7824	0.0451	0.7166	-0.588
Mof_O 	O 	0.91	0.9958	0.8258	-0.521
Mof_O 	O 	0.9498	0.3846	0.9611	-0.6
Mof_O 	O 	0.0215	0.3899	0.091	-0.586
Mof_Zn	Zn	0.60342	0.39122	0.70214	1.221
Mof_N 	N 	0.2551	0.1987	0.9233	-0.011
Mof_O 	O 	0.3131	0.1416	0.9491	-0.062
Mof_O 	O 	0.3131	0.2551	0.9391	-0.06
Mof_O 	O 	0.7684	0.3569	0.1358	-0.077
Mof_O 	O 	0.6288	0.4104	0.1863	-0.087
_end
