data_functionalizedCrystal
_audit_creation_method	'EQeq! by Chris Wilmer'
_symmetry_space_group_name_H-M	'P1'
_symmetry_Int_Tables_number	1
_symmetry_cell_setting	triclinic
loop_
_symmetry_equiv_pos_as_xyz
  x,y,z
_cell_length_a	22.0223
_cell_length_b	22.0223
_cell_length_c	21.628
_cell_angle_alpha	90
_cell_angle_beta	90
_cell_angle_gamma	90
loop_
_atom_site_label
_atom_site_type_symbol
_atom_site_fract_x
_atom_site_fract_y
_atom_site_fract_z
_atom_site_charge
Mof_Cd	Cd	0.20639	0.81047	0.0711	0.438
Mof_O 	O 	0.2119	0.70818	0.0763	-0.277
Mof_N 	N 	0.1888	0.77114	0.9715	-0.128
Mof_C 	C 	0.2042	0.6775	0.0252	0.205
Mof_O 	O 	0.25437	0.909	0.0676	-0.282
Mof_C 	C 	0.2087	0.6146	0.021	-0.221
Mof_H 	H 	0.2187	0.592	0.0564	0.119
Mof_O 	O 	0.306	0.8277	0.04	-0.275
Mof_C 	C 	0.1985	0.584	0.9649	0.109
Mof_H 	H 	0.2015	0.5414	0.9639	-0.008
Mof_C 	C 	0.1848	0.6132	0.9138	-0.173
Mof_H 	H 	0.1777	0.5912	0.8773	0.091
Mof_C 	C 	0.1806	0.6775	0.913	0.079
Mof_C 	C 	0.1911	0.7093	0.9689	-0.033
Mof_C 	C 	0.1698	0.7121	0.8598	-0.067
Mof_H 	H 	0.1625	0.6924	0.822	0.063
Mof_C 	C 	0.1695	0.7748	0.8622	-0.069
Mof_H 	H 	0.1634	0.7978	0.8261	0.068
Mof_C 	C 	0.1784	0.8035	0.9191	0.078
Mof_C 	C 	0.1789	0.8689	0.9276	-0.045
Mof_H 	H 	0.1919	0.8828	0.9665	0.051
Mof_C 	C 	0.1632	0.9114	0.8871	-0.121
Mof_H 	H 	0.1493	0.8984	0.8482	0.076
Mof_C 	C 	0.1657	0.9764	0.898	0.154
Mof_C 	C 	0.1396	0.0167	0.8579	-0.191
Mof_H 	H 	0.1208	0.0023	0.8217	0.101
Mof_C 	C 	0.1406	0.079	0.87	0.107
Mof_H 	H 	0.1202	0.1052	0.8427	-0.001
Mof_C 	C 	0.1952	0.0636	0.956	0.123
Mof_H 	H 	0.2173	0.0792	0.9897	-0.003
Mof_C 	C 	0.1928	0.0019	0.9498	-0.199
Mof_H 	H 	0.2095	0.9767	0.9805	0.113
Mof_C 	C 	0.3033	0.8832	0.0509	0.292
Mof_C 	C 	0.3608	0.9204	0.0446	-0.083
Mof_C 	C 	0.4125	0.8916	0.0225	0.009
Mof_H 	H 	0.4105	0.851	0.0095	0.039
Mof_C 	C 	0.4672	0.9233	0.0195	-0.092
Mof_H 	H 	0.5022	0.9038	0.0045	0.062
Mof_C 	C 	0.4704	0.9842	0.0388	0.033
Mof_C 	C 	0.4178	0.0128	0.057	-0.095
Mof_H 	H 	0.4188	0.0542	0.0672	0.065
Mof_C 	C 	0.3626	0.981	0.0605	0.012
Mof_H 	H 	0.3271	0.001	0.0736	0.038
Mof_N 	N 	0.1694	0.1029	0.919	-0.17
Mof_Cd	Cd	0.70639	0.31047	0.5711	0.439
Mof_O 	O 	0.7119	0.20818	0.5763	-0.276
Mof_N 	N 	0.6888	0.27114	0.4715	-0.127
Mof_C 	C 	0.7042	0.1775	0.5252	0.206
Mof_O 	O 	0.75437	0.409	0.5676	-0.281
Mof_C 	C 	0.7087	0.1146	0.521	-0.22
Mof_H 	H 	0.7187	0.092	0.5564	0.12
Mof_O 	O 	0.806	0.3277	0.54	-0.274
Mof_C 	C 	0.6985	0.084	0.4649	0.109
Mof_H 	H 	0.7015	0.0414	0.4639	-0.008
Mof_C 	C 	0.6848	0.1132	0.4138	-0.173
Mof_H 	H 	0.6777	0.0912	0.3773	0.091
Mof_C 	C 	0.6806	0.1775	0.413	0.079
Mof_C 	C 	0.6911	0.2093	0.4689	-0.033
Mof_C 	C 	0.6698	0.2121	0.3598	-0.067
Mof_H 	H 	0.6625	0.1924	0.322	0.063
Mof_C 	C 	0.6695	0.2748	0.3622	-0.069
Mof_H 	H 	0.6634	0.2978	0.3261	0.068
Mof_C 	C 	0.6784	0.3035	0.4191	0.078
Mof_C 	C 	0.6789	0.3689	0.4276	-0.045
Mof_H 	H 	0.6919	0.3828	0.4665	0.051
Mof_C 	C 	0.6632	0.4114	0.3871	-0.121
Mof_H 	H 	0.6493	0.3984	0.3482	0.076
Mof_C 	C 	0.6657	0.4764	0.398	0.155
Mof_C 	C 	0.6396	0.5167	0.3579	-0.191
Mof_H 	H 	0.6208	0.5023	0.3217	0.101
Mof_C 	C 	0.6406	0.579	0.37	0.107
Mof_H 	H 	0.6202	0.6052	0.3427	-0.001
Mof_C 	C 	0.6952	0.5636	0.456	0.123
Mof_H 	H 	0.7173	0.5792	0.4897	-0.003
Mof_C 	C 	0.6928	0.5019	0.4498	-0.199
Mof_H 	H 	0.7095	0.4767	0.4805	0.113
Mof_C 	C 	0.8033	0.3832	0.5509	0.292
Mof_C 	C 	0.8608	0.4204	0.5446	-0.083
Mof_C 	C 	0.9125	0.3916	0.5225	0.009
Mof_H 	H 	0.9105	0.351	0.5095	0.039
Mof_C 	C 	0.9672	0.4233	0.5195	-0.092
Mof_H 	H 	0.0022	0.4038	0.5045	0.062
Mof_C 	C 	0.9704	0.4842	0.5388	0.033
Mof_C 	C 	0.9178	0.5128	0.557	-0.095
Mof_H 	H 	0.9188	0.5542	0.5672	0.065
Mof_C 	C 	0.8626	0.481	0.5605	0.012
Mof_H 	H 	0.8271	0.501	0.5736	0.038
Mof_N 	N 	0.6694	0.6029	0.419	-0.17
Mof_Cd	Cd	0.79361	0.18953	0.0711	0.439
Mof_O 	O 	0.7881	0.29182	0.0763	-0.276
Mof_N 	N 	0.8112	0.22886	0.9715	-0.127
Mof_C 	C 	0.7958	0.3225	0.0252	0.206
Mof_O 	O 	0.74563	0.091	0.0676	-0.281
Mof_C 	C 	0.7913	0.3854	0.021	-0.22
Mof_H 	H 	0.7813	0.408	0.0564	0.12
Mof_O 	O 	0.694	0.1723	0.04	-0.274
Mof_C 	C 	0.8015	0.416	0.9649	0.109
Mof_H 	H 	0.7985	0.4586	0.9639	-0.008
Mof_C 	C 	0.8152	0.3868	0.9138	-0.173
Mof_H 	H 	0.8223	0.4088	0.8773	0.091
Mof_C 	C 	0.8194	0.3225	0.913	0.079
Mof_C 	C 	0.8089	0.2907	0.9689	-0.033
Mof_C 	C 	0.8302	0.2879	0.8598	-0.067
Mof_H 	H 	0.8375	0.3076	0.822	0.063
Mof_C 	C 	0.8305	0.2252	0.8622	-0.069
Mof_H 	H 	0.8366	0.2022	0.8261	0.068
Mof_C 	C 	0.8216	0.1965	0.9191	0.078
Mof_C 	C 	0.8211	0.1311	0.9276	-0.045
Mof_H 	H 	0.8081	0.1172	0.9665	0.051
Mof_C 	C 	0.8368	0.0886	0.8871	-0.121
Mof_H 	H 	0.8507	0.1016	0.8482	0.076
Mof_C 	C 	0.8343	0.0236	0.898	0.154
Mof_C 	C 	0.8604	0.9833	0.8579	-0.191
Mof_H 	H 	0.8792	0.9977	0.8217	0.101
Mof_C 	C 	0.8594	0.921	0.87	0.107
Mof_H 	H 	0.8798	0.8948	0.8427	-0.001
Mof_C 	C 	0.8048	0.9364	0.956	0.123
Mof_H 	H 	0.7827	0.9208	0.9897	-0.003
Mof_C 	C 	0.8072	0.9981	0.9498	-0.199
Mof_H 	H 	0.7905	0.0233	0.9805	0.113
Mof_C 	C 	0.6967	0.1168	0.0509	0.292
Mof_C 	C 	0.6392	0.0796	0.0446	-0.083
Mof_C 	C 	0.5875	0.1084	0.0225	0.009
Mof_H 	H 	0.5895	0.149	0.0095	0.039
Mof_C 	C 	0.5328	0.0767	0.0195	-0.092
Mof_H 	H 	0.4978	0.0962	0.0045	0.062
Mof_C 	C 	0.5296	0.0158	0.0388	0.033
Mof_C 	C 	0.5822	0.9872	0.057	-0.095
Mof_H 	H 	0.5812	0.9458	0.0672	0.065
Mof_C 	C 	0.6374	0.019	0.0605	0.012
Mof_H 	H 	0.6729	0.999	0.0736	0.038
Mof_N 	N 	0.8306	0.8971	0.919	-0.17
Mof_Cd	Cd	0.29361	0.68953	0.5711	0.439
Mof_O 	O 	0.2881	0.79182	0.5763	-0.276
Mof_N 	N 	0.3112	0.72886	0.4715	-0.127
Mof_C 	C 	0.2958	0.8225	0.5252	0.206
Mof_O 	O 	0.24563	0.591	0.5676	-0.281
Mof_C 	C 	0.2913	0.8854	0.521	-0.22
Mof_H 	H 	0.2813	0.908	0.5564	0.12
Mof_O 	O 	0.194	0.6723	0.54	-0.274
Mof_C 	C 	0.3015	0.916	0.4649	0.109
Mof_H 	H 	0.2985	0.9586	0.4639	-0.008
Mof_C 	C 	0.3152	0.8868	0.4138	-0.173
Mof_H 	H 	0.3223	0.9088	0.3773	0.091
Mof_C 	C 	0.3194	0.8225	0.413	0.079
Mof_C 	C 	0.3089	0.7907	0.4689	-0.033
Mof_C 	C 	0.3302	0.7879	0.3598	-0.067
Mof_H 	H 	0.3375	0.8076	0.322	0.063
Mof_C 	C 	0.3305	0.7252	0.3622	-0.069
Mof_H 	H 	0.3366	0.7022	0.3261	0.068
Mof_C 	C 	0.3216	0.6965	0.4191	0.078
Mof_C 	C 	0.3211	0.6311	0.4276	-0.045
Mof_H 	H 	0.3081	0.6172	0.4665	0.051
Mof_C 	C 	0.3368	0.5886	0.3871	-0.121
Mof_H 	H 	0.3507	0.6016	0.3482	0.076
Mof_C 	C 	0.3343	0.5236	0.398	0.155
Mof_C 	C 	0.3604	0.4833	0.3579	-0.191
Mof_H 	H 	0.3792	0.4977	0.3217	0.101
Mof_C 	C 	0.3594	0.421	0.37	0.107
Mof_H 	H 	0.3798	0.3948	0.3427	-0.001
Mof_C 	C 	0.3048	0.4364	0.456	0.123
Mof_H 	H 	0.2827	0.4208	0.4897	-0.003
Mof_C 	C 	0.3072	0.4981	0.4498	-0.199
Mof_H 	H 	0.2905	0.5233	0.4805	0.113
Mof_C 	C 	0.1967	0.6168	0.5509	0.292
Mof_C 	C 	0.1392	0.5796	0.5446	-0.083
Mof_C 	C 	0.0875	0.6084	0.5225	0.009
Mof_H 	H 	0.0895	0.649	0.5095	0.039
Mof_C 	C 	0.0328	0.5767	0.5195	-0.092
Mof_H 	H 	0.9978	0.5962	0.5045	0.062
Mof_C 	C 	0.0296	0.5158	0.5388	0.033
Mof_C 	C 	0.0822	0.4872	0.557	-0.095
Mof_H 	H 	0.0812	0.4458	0.5672	0.065
Mof_C 	C 	0.1374	0.519	0.5605	0.012
Mof_H 	H 	0.1729	0.499	0.5736	0.038
Mof_N 	N 	0.3306	0.3971	0.419	-0.17
Mof_Cd	Cd	0.81047	0.79361	0.9289	0.439
Mof_O 	O 	0.70818	0.7881	0.9237	-0.276
Mof_N 	N 	0.77114	0.8112	0.0285	-0.127
Mof_C 	C 	0.6775	0.7958	0.9748	0.206
Mof_O 	O 	0.909	0.74563	0.9324	-0.281
Mof_C 	C 	0.6146	0.7913	0.979	-0.22
Mof_H 	H 	0.592	0.7813	0.9436	0.12
Mof_O 	O 	0.8277	0.694	0.96	-0.274
Mof_C 	C 	0.584	0.8015	0.0351	0.109
Mof_H 	H 	0.5414	0.7985	0.0361	-0.008
Mof_C 	C 	0.6132	0.8152	0.0862	-0.173
Mof_H 	H 	0.5912	0.8223	0.1227	0.091
Mof_C 	C 	0.6775	0.8194	0.087	0.079
Mof_C 	C 	0.7093	0.8089	0.0311	-0.033
Mof_C 	C 	0.7121	0.8302	0.1402	-0.067
Mof_H 	H 	0.6924	0.8375	0.178	0.063
Mof_C 	C 	0.7748	0.8305	0.1378	-0.069
Mof_H 	H 	0.7978	0.8366	0.1739	0.068
Mof_C 	C 	0.8035	0.8216	0.0809	0.078
Mof_C 	C 	0.8689	0.8211	0.0724	-0.045
Mof_H 	H 	0.8828	0.8081	0.0335	0.051
Mof_C 	C 	0.9114	0.8368	0.1129	-0.121
Mof_H 	H 	0.8984	0.8507	0.1518	0.076
Mof_C 	C 	0.9764	0.8343	0.102	0.154
Mof_C 	C 	0.0167	0.8604	0.1421	-0.191
Mof_H 	H 	0.0023	0.8792	0.1783	0.101
Mof_C 	C 	0.079	0.8594	0.13	0.107
Mof_H 	H 	0.1052	0.8798	0.1573	-0.001
Mof_C 	C 	0.0636	0.8048	0.044	0.123
Mof_H 	H 	0.0792	0.7827	0.0103	-0.003
Mof_C 	C 	0.0019	0.8072	0.0502	-0.199
Mof_H 	H 	0.9767	0.7905	0.0195	0.113
Mof_C 	C 	0.8832	0.6967	0.9491	0.292
Mof_C 	C 	0.9204	0.6392	0.9554	-0.083
Mof_C 	C 	0.8916	0.5875	0.9775	0.009
Mof_H 	H 	0.851	0.5895	0.9905	0.039
Mof_C 	C 	0.9233	0.5328	0.9805	-0.092
Mof_H 	H 	0.9038	0.4978	0.9955	0.062
Mof_C 	C 	0.9842	0.5296	0.9612	0.033
Mof_C 	C 	0.0128	0.5822	0.943	-0.095
Mof_H 	H 	0.0542	0.5812	0.9328	0.065
Mof_C 	C 	0.981	0.6374	0.9395	0.012
Mof_H 	H 	0.001	0.6729	0.9264	0.038
Mof_N 	N 	0.1029	0.8306	0.081	-0.17
Mof_Cd	Cd	0.31047	0.29361	0.4289	0.439
Mof_O 	O 	0.20818	0.2881	0.4237	-0.276
Mof_N 	N 	0.27114	0.3112	0.5285	-0.127
Mof_C 	C 	0.1775	0.2958	0.4748	0.206
Mof_O 	O 	0.409	0.24563	0.4324	-0.281
Mof_C 	C 	0.1146	0.2913	0.479	-0.22
Mof_H 	H 	0.092	0.2813	0.4436	0.12
Mof_O 	O 	0.3277	0.194	0.46	-0.274
Mof_C 	C 	0.084	0.3015	0.5351	0.109
Mof_H 	H 	0.0414	0.2985	0.5361	-0.008
Mof_C 	C 	0.1132	0.3152	0.5862	-0.173
Mof_H 	H 	0.0912	0.3223	0.6227	0.091
Mof_C 	C 	0.1775	0.3194	0.587	0.079
Mof_C 	C 	0.2093	0.3089	0.5311	-0.033
Mof_C 	C 	0.2121	0.3302	0.6402	-0.067
Mof_H 	H 	0.1924	0.3375	0.678	0.063
Mof_C 	C 	0.2748	0.3305	0.6378	-0.069
Mof_H 	H 	0.2978	0.3366	0.6739	0.068
Mof_C 	C 	0.3035	0.3216	0.5809	0.078
Mof_C 	C 	0.3689	0.3211	0.5724	-0.045
Mof_H 	H 	0.3828	0.3081	0.5335	0.051
Mof_C 	C 	0.4114	0.3368	0.6129	-0.121
Mof_H 	H 	0.3984	0.3507	0.6518	0.076
Mof_C 	C 	0.4764	0.3343	0.602	0.155
Mof_C 	C 	0.5167	0.3604	0.6421	-0.191
Mof_H 	H 	0.5023	0.3792	0.6783	0.101
Mof_C 	C 	0.579	0.3594	0.63	0.107
Mof_H 	H 	0.6052	0.3798	0.6573	-0.001
Mof_C 	C 	0.5636	0.3048	0.544	0.123
Mof_H 	H 	0.5792	0.2827	0.5103	-0.003
Mof_C 	C 	0.5019	0.3072	0.5502	-0.199
Mof_H 	H 	0.4767	0.2905	0.5195	0.113
Mof_C 	C 	0.3832	0.1967	0.4491	0.292
Mof_C 	C 	0.4204	0.1392	0.4554	-0.083
Mof_C 	C 	0.3916	0.0875	0.4775	0.009
Mof_H 	H 	0.351	0.0895	0.4905	0.039
Mof_C 	C 	0.4233	0.0328	0.4805	-0.092
Mof_H 	H 	0.4038	0.9978	0.4955	0.062
Mof_C 	C 	0.4842	0.0296	0.4612	0.033
Mof_C 	C 	0.5128	0.0822	0.443	-0.095
Mof_H 	H 	0.5542	0.0812	0.4328	0.065
Mof_C 	C 	0.481	0.1374	0.4395	0.012
Mof_H 	H 	0.501	0.1729	0.4264	0.038
Mof_N 	N 	0.6029	0.3306	0.581	-0.17
Mof_Cd	Cd	0.18953	0.20639	0.9289	0.439
Mof_O 	O 	0.29182	0.2119	0.9237	-0.276
Mof_N 	N 	0.22886	0.1888	0.0285	-0.127
Mof_C 	C 	0.3225	0.2042	0.9748	0.206
Mof_O 	O 	0.091	0.25437	0.9324	-0.281
Mof_C 	C 	0.3854	0.2087	0.979	-0.22
Mof_H 	H 	0.408	0.2187	0.9436	0.12
Mof_O 	O 	0.1723	0.306	0.96	-0.274
Mof_C 	C 	0.416	0.1985	0.0351	0.109
Mof_H 	H 	0.4586	0.2015	0.0361	-0.008
Mof_C 	C 	0.3868	0.1848	0.0862	-0.173
Mof_H 	H 	0.4088	0.1777	0.1227	0.091
Mof_C 	C 	0.3225	0.1806	0.087	0.079
Mof_C 	C 	0.2907	0.1911	0.0311	-0.033
Mof_C 	C 	0.2879	0.1698	0.1402	-0.067
Mof_H 	H 	0.3076	0.1625	0.178	0.063
Mof_C 	C 	0.2252	0.1695	0.1378	-0.069
Mof_H 	H 	0.2022	0.1634	0.1739	0.068
Mof_C 	C 	0.1965	0.1784	0.0809	0.078
Mof_C 	C 	0.1311	0.1789	0.0724	-0.045
Mof_H 	H 	0.1172	0.1919	0.0335	0.051
Mof_C 	C 	0.0886	0.1632	0.1129	-0.121
Mof_H 	H 	0.1016	0.1493	0.1518	0.076
Mof_C 	C 	0.0236	0.1657	0.102	0.154
Mof_C 	C 	0.9833	0.1396	0.1421	-0.191
Mof_H 	H 	0.9977	0.1208	0.1783	0.101
Mof_C 	C 	0.921	0.1406	0.13	0.107
Mof_H 	H 	0.8948	0.1202	0.1573	-0.001
Mof_C 	C 	0.9364	0.1952	0.044	0.123
Mof_H 	H 	0.9208	0.2173	0.0103	-0.003
Mof_C 	C 	0.9981	0.1928	0.0502	-0.199
Mof_H 	H 	0.0233	0.2095	0.0195	0.113
Mof_C 	C 	0.1168	0.3033	0.9491	0.292
Mof_C 	C 	0.0796	0.3608	0.9554	-0.083
Mof_C 	C 	0.1084	0.4125	0.9775	0.009
Mof_H 	H 	0.149	0.4105	0.9905	0.039
Mof_C 	C 	0.0767	0.4672	0.9805	-0.092
Mof_H 	H 	0.0962	0.5022	0.9955	0.062
Mof_C 	C 	0.0158	0.4704	0.9612	0.033
Mof_C 	C 	0.9872	0.4178	0.943	-0.095
Mof_H 	H 	0.9458	0.4188	0.9328	0.065
Mof_C 	C 	0.019	0.3626	0.9395	0.012
Mof_H 	H 	0.999	0.3271	0.9264	0.038
Mof_N 	N 	0.8971	0.1694	0.081	-0.17
Mof_Cd	Cd	0.68953	0.70639	0.4289	0.439
Mof_O 	O 	0.79182	0.7119	0.4237	-0.276
Mof_N 	N 	0.72886	0.6888	0.5285	-0.127
Mof_C 	C 	0.8225	0.7042	0.4748	0.206
Mof_O 	O 	0.591	0.75437	0.4324	-0.281
Mof_C 	C 	0.8854	0.7087	0.479	-0.22
Mof_H 	H 	0.908	0.7187	0.4436	0.12
Mof_O 	O 	0.6723	0.806	0.46	-0.274
Mof_C 	C 	0.916	0.6985	0.5351	0.109
Mof_H 	H 	0.9586	0.7015	0.5361	-0.008
Mof_C 	C 	0.8868	0.6848	0.5862	-0.173
Mof_H 	H 	0.9088	0.6777	0.6227	0.091
Mof_C 	C 	0.8225	0.6806	0.587	0.079
Mof_C 	C 	0.7907	0.6911	0.5311	-0.033
Mof_C 	C 	0.7879	0.6698	0.6402	-0.067
Mof_H 	H 	0.8076	0.6625	0.678	0.063
Mof_C 	C 	0.7252	0.6695	0.6378	-0.069
Mof_H 	H 	0.7022	0.6634	0.6739	0.068
Mof_C 	C 	0.6965	0.6784	0.5809	0.078
Mof_C 	C 	0.6311	0.6789	0.5724	-0.045
Mof_H 	H 	0.6172	0.6919	0.5335	0.051
Mof_C 	C 	0.5886	0.6632	0.6129	-0.121
Mof_H 	H 	0.6016	0.6493	0.6518	0.076
Mof_C 	C 	0.5236	0.6657	0.602	0.155
Mof_C 	C 	0.4833	0.6396	0.6421	-0.191
Mof_H 	H 	0.4977	0.6208	0.6783	0.101
Mof_C 	C 	0.421	0.6406	0.63	0.107
Mof_H 	H 	0.3948	0.6202	0.6573	-0.001
Mof_C 	C 	0.4364	0.6952	0.544	0.123
Mof_H 	H 	0.4208	0.7173	0.5103	-0.003
Mof_C 	C 	0.4981	0.6928	0.5502	-0.199
Mof_H 	H 	0.5233	0.7095	0.5195	0.113
Mof_C 	C 	0.6168	0.8033	0.4491	0.292
Mof_C 	C 	0.5796	0.8608	0.4554	-0.083
Mof_C 	C 	0.6084	0.9125	0.4775	0.009
Mof_H 	H 	0.649	0.9105	0.4905	0.039
Mof_C 	C 	0.5767	0.9672	0.4805	-0.092
Mof_H 	H 	0.5962	0.0022	0.4955	0.062
Mof_C 	C 	0.5158	0.9704	0.4612	0.033
Mof_C 	C 	0.4872	0.9178	0.443	-0.095
Mof_H 	H 	0.4458	0.9188	0.4328	0.065
Mof_C 	C 	0.519	0.8626	0.4395	0.012
Mof_H 	H 	0.499	0.8271	0.4264	0.038
Mof_N 	N 	0.3971	0.6694	0.581	-0.17
Mof_Cd	Cd	0.29361	0.81047	0.6789	0.439
Mof_O 	O 	0.2881	0.70818	0.6737	-0.276
Mof_N 	N 	0.3112	0.77114	0.7785	-0.127
Mof_C 	C 	0.2958	0.6775	0.7248	0.206
Mof_O 	O 	0.24563	0.909	0.6824	-0.281
Mof_C 	C 	0.2913	0.6146	0.729	-0.22
Mof_H 	H 	0.2813	0.592	0.6936	0.12
Mof_O 	O 	0.194	0.8277	0.71	-0.274
Mof_C 	C 	0.3015	0.584	0.7851	0.109
Mof_H 	H 	0.2985	0.5414	0.7861	-0.008
Mof_C 	C 	0.3152	0.6132	0.8362	-0.173
Mof_H 	H 	0.3223	0.5912	0.8727	0.091
Mof_C 	C 	0.3194	0.6775	0.837	0.079
Mof_C 	C 	0.3089	0.7093	0.7811	-0.033
Mof_C 	C 	0.3302	0.7121	0.8902	-0.067
Mof_H 	H 	0.3375	0.6924	0.928	0.063
Mof_C 	C 	0.3305	0.7748	0.8878	-0.069
Mof_H 	H 	0.3366	0.7978	0.9239	0.068
Mof_C 	C 	0.3216	0.8035	0.8309	0.078
Mof_C 	C 	0.3211	0.8689	0.8224	-0.045
Mof_H 	H 	0.3081	0.8828	0.7835	0.051
Mof_C 	C 	0.3368	0.9114	0.8629	-0.121
Mof_H 	H 	0.3507	0.8984	0.9018	0.076
Mof_C 	C 	0.3343	0.9764	0.852	0.154
Mof_C 	C 	0.3604	0.0167	0.8921	-0.191
Mof_H 	H 	0.3792	0.0023	0.9283	0.101
Mof_C 	C 	0.3594	0.079	0.88	0.107
Mof_H 	H 	0.3798	0.1052	0.9073	-0.001
Mof_C 	C 	0.3048	0.0636	0.794	0.123
Mof_H 	H 	0.2827	0.0792	0.7603	-0.003
Mof_C 	C 	0.3072	0.0019	0.8002	-0.199
Mof_H 	H 	0.2905	0.9767	0.7695	0.113
Mof_C 	C 	0.1967	0.8832	0.6991	0.292
Mof_C 	C 	0.1392	0.9204	0.7054	-0.083
Mof_C 	C 	0.0875	0.8916	0.7275	0.009
Mof_H 	H 	0.0895	0.851	0.7405	0.039
Mof_C 	C 	0.0328	0.9233	0.7305	-0.092
Mof_H 	H 	0.9978	0.9038	0.7455	0.062
Mof_C 	C 	0.0296	0.9842	0.7112	0.033
Mof_C 	C 	0.0822	0.0128	0.693	-0.095
Mof_H 	H 	0.0812	0.0542	0.6828	0.065
Mof_C 	C 	0.1374	0.981	0.6895	0.012
Mof_H 	H 	0.1729	0.001	0.6764	0.038
Mof_N 	N 	0.3306	0.1029	0.831	-0.17
Mof_Cd	Cd	0.79361	0.31047	0.1789	0.439
Mof_O 	O 	0.7881	0.20818	0.1737	-0.276
Mof_N 	N 	0.8112	0.27114	0.2785	-0.127
Mof_C 	C 	0.7958	0.1775	0.2248	0.206
Mof_O 	O 	0.74563	0.409	0.1824	-0.281
Mof_C 	C 	0.7913	0.1146	0.229	-0.22
Mof_H 	H 	0.7813	0.092	0.1936	0.12
Mof_O 	O 	0.694	0.3277	0.21	-0.274
Mof_C 	C 	0.8015	0.084	0.2851	0.109
Mof_H 	H 	0.7985	0.0414	0.2861	-0.008
Mof_C 	C 	0.8152	0.1132	0.3362	-0.173
Mof_H 	H 	0.8223	0.0912	0.3727	0.091
Mof_C 	C 	0.8194	0.1775	0.337	0.079
Mof_C 	C 	0.8089	0.2093	0.2811	-0.033
Mof_C 	C 	0.8302	0.2121	0.3902	-0.067
Mof_H 	H 	0.8375	0.1924	0.428	0.063
Mof_C 	C 	0.8305	0.2748	0.3878	-0.069
Mof_H 	H 	0.8366	0.2978	0.4239	0.068
Mof_C 	C 	0.8216	0.3035	0.3309	0.078
Mof_C 	C 	0.8211	0.3689	0.3224	-0.045
Mof_H 	H 	0.8081	0.3828	0.2835	0.051
Mof_C 	C 	0.8368	0.4114	0.3629	-0.121
Mof_H 	H 	0.8507	0.3984	0.4018	0.076
Mof_C 	C 	0.8343	0.4764	0.352	0.155
Mof_C 	C 	0.8604	0.5167	0.3921	-0.191
Mof_H 	H 	0.8792	0.5023	0.4283	0.101
Mof_C 	C 	0.8594	0.579	0.38	0.107
Mof_H 	H 	0.8798	0.6052	0.4073	-0.001
Mof_C 	C 	0.8048	0.5636	0.294	0.123
Mof_H 	H 	0.7827	0.5792	0.2603	-0.003
Mof_C 	C 	0.8072	0.5019	0.3002	-0.199
Mof_H 	H 	0.7905	0.4767	0.2695	0.113
Mof_C 	C 	0.6967	0.3832	0.1991	0.292
Mof_C 	C 	0.6392	0.4204	0.2054	-0.083
Mof_C 	C 	0.5875	0.3916	0.2275	0.009
Mof_H 	H 	0.5895	0.351	0.2405	0.039
Mof_C 	C 	0.5328	0.4233	0.2305	-0.092
Mof_H 	H 	0.4978	0.4038	0.2455	0.062
Mof_C 	C 	0.5296	0.4842	0.2112	0.033
Mof_C 	C 	0.5822	0.5128	0.193	-0.095
Mof_H 	H 	0.5812	0.5542	0.1828	0.065
Mof_C 	C 	0.6374	0.481	0.1895	0.012
Mof_H 	H 	0.6729	0.501	0.1764	0.038
Mof_N 	N 	0.8306	0.6029	0.331	-0.17
Mof_Cd	Cd	0.70639	0.18953	0.6789	0.439
Mof_O 	O 	0.7119	0.29182	0.6737	-0.276
Mof_N 	N 	0.6888	0.22886	0.7785	-0.127
Mof_C 	C 	0.7042	0.3225	0.7248	0.206
Mof_O 	O 	0.75437	0.091	0.6824	-0.281
Mof_C 	C 	0.7087	0.3854	0.729	-0.22
Mof_H 	H 	0.7187	0.408	0.6936	0.12
Mof_O 	O 	0.806	0.1723	0.71	-0.274
Mof_C 	C 	0.6985	0.416	0.7851	0.109
Mof_H 	H 	0.7015	0.4586	0.7861	-0.008
Mof_C 	C 	0.6848	0.3868	0.8362	-0.173
Mof_H 	H 	0.6777	0.4088	0.8727	0.091
Mof_C 	C 	0.6806	0.3225	0.837	0.079
Mof_C 	C 	0.6911	0.2907	0.7811	-0.033
Mof_C 	C 	0.6698	0.2879	0.8902	-0.067
Mof_H 	H 	0.6625	0.3076	0.928	0.063
Mof_C 	C 	0.6695	0.2252	0.8878	-0.069
Mof_H 	H 	0.6634	0.2022	0.9239	0.068
Mof_C 	C 	0.6784	0.1965	0.8309	0.078
Mof_C 	C 	0.6789	0.1311	0.8224	-0.045
Mof_H 	H 	0.6919	0.1172	0.7835	0.051
Mof_C 	C 	0.6632	0.0886	0.8629	-0.121
Mof_H 	H 	0.6493	0.1016	0.9018	0.076
Mof_C 	C 	0.6657	0.0236	0.852	0.154
Mof_C 	C 	0.6396	0.9833	0.8921	-0.191
Mof_H 	H 	0.6208	0.9977	0.9283	0.101
Mof_C 	C 	0.6406	0.921	0.88	0.107
Mof_H 	H 	0.6202	0.8948	0.9073	-0.001
Mof_C 	C 	0.6952	0.9364	0.794	0.123
Mof_H 	H 	0.7173	0.9208	0.7603	-0.003
Mof_C 	C 	0.6928	0.9981	0.8002	-0.199
Mof_H 	H 	0.7095	0.0233	0.7695	0.113
Mof_C 	C 	0.8033	0.1168	0.6991	0.292
Mof_C 	C 	0.8608	0.0796	0.7054	-0.083
Mof_C 	C 	0.9125	0.1084	0.7275	0.009
Mof_H 	H 	0.9105	0.149	0.7405	0.039
Mof_C 	C 	0.9672	0.0767	0.7305	-0.092
Mof_H 	H 	0.0022	0.0962	0.7455	0.062
Mof_C 	C 	0.9704	0.0158	0.7112	0.033
Mof_C 	C 	0.9178	0.9872	0.693	-0.095
Mof_H 	H 	0.9188	0.9458	0.6828	0.065
Mof_C 	C 	0.8626	0.019	0.6895	0.012
Mof_H 	H 	0.8271	0.999	0.6764	0.038
Mof_N 	N 	0.6694	0.8971	0.831	-0.17
Mof_Cd	Cd	0.20639	0.68953	0.1789	0.439
Mof_O 	O 	0.2119	0.79182	0.1737	-0.276
Mof_N 	N 	0.1888	0.72886	0.2785	-0.127
Mof_C 	C 	0.2042	0.8225	0.2248	0.206
Mof_O 	O 	0.25437	0.591	0.1824	-0.281
Mof_C 	C 	0.2087	0.8854	0.229	-0.22
Mof_H 	H 	0.2187	0.908	0.1936	0.12
Mof_O 	O 	0.306	0.6723	0.21	-0.274
Mof_C 	C 	0.1985	0.916	0.2851	0.109
Mof_H 	H 	0.2015	0.9586	0.2861	-0.008
Mof_C 	C 	0.1848	0.8868	0.3362	-0.173
Mof_H 	H 	0.1777	0.9088	0.3727	0.091
Mof_C 	C 	0.1806	0.8225	0.337	0.079
Mof_C 	C 	0.1911	0.7907	0.2811	-0.033
Mof_C 	C 	0.1698	0.7879	0.3902	-0.067
Mof_H 	H 	0.1625	0.8076	0.428	0.063
Mof_C 	C 	0.1695	0.7252	0.3878	-0.069
Mof_H 	H 	0.1634	0.7022	0.4239	0.068
Mof_C 	C 	0.1784	0.6965	0.3309	0.078
Mof_C 	C 	0.1789	0.6311	0.3224	-0.045
Mof_H 	H 	0.1919	0.6172	0.2835	0.051
Mof_C 	C 	0.1632	0.5886	0.3629	-0.121
Mof_H 	H 	0.1493	0.6016	0.4018	0.076
Mof_C 	C 	0.1657	0.5236	0.352	0.155
Mof_C 	C 	0.1396	0.4833	0.3921	-0.191
Mof_H 	H 	0.1208	0.4977	0.4283	0.101
Mof_C 	C 	0.1406	0.421	0.38	0.107
Mof_H 	H 	0.1202	0.3948	0.4073	-0.001
Mof_C 	C 	0.1952	0.4364	0.294	0.123
Mof_H 	H 	0.2173	0.4208	0.2603	-0.003
Mof_C 	C 	0.1928	0.4981	0.3002	-0.199
Mof_H 	H 	0.2095	0.5233	0.2695	0.113
Mof_C 	C 	0.3033	0.6168	0.1991	0.292
Mof_C 	C 	0.3608	0.5796	0.2054	-0.083
Mof_C 	C 	0.4125	0.6084	0.2275	0.009
Mof_H 	H 	0.4105	0.649	0.2405	0.039
Mof_C 	C 	0.4672	0.5767	0.2305	-0.092
Mof_H 	H 	0.5022	0.5962	0.2455	0.062
Mof_C 	C 	0.4704	0.5158	0.2112	0.033
Mof_C 	C 	0.4178	0.4872	0.193	-0.095
Mof_H 	H 	0.4188	0.4458	0.1828	0.065
Mof_C 	C 	0.3626	0.519	0.1895	0.012
Mof_H 	H 	0.3271	0.499	0.1764	0.038
Mof_N 	N 	0.1694	0.3971	0.331	-0.17
Mof_Cd	Cd	0.68953	0.79361	0.8211	0.439
Mof_O 	O 	0.79182	0.7881	0.8263	-0.276
Mof_N 	N 	0.72886	0.8112	0.7215	-0.127
Mof_C 	C 	0.8225	0.7958	0.7752	0.206
Mof_O 	O 	0.591	0.74563	0.8176	-0.281
Mof_C 	C 	0.8854	0.7913	0.771	-0.22
Mof_H 	H 	0.908	0.7813	0.8064	0.12
Mof_O 	O 	0.6723	0.694	0.79	-0.274
Mof_C 	C 	0.916	0.8015	0.7149	0.109
Mof_H 	H 	0.9586	0.7985	0.7139	-0.008
Mof_C 	C 	0.8868	0.8152	0.6638	-0.173
Mof_H 	H 	0.9088	0.8223	0.6273	0.091
Mof_C 	C 	0.8225	0.8194	0.663	0.079
Mof_C 	C 	0.7907	0.8089	0.7189	-0.033
Mof_C 	C 	0.7879	0.8302	0.6098	-0.067
Mof_H 	H 	0.8076	0.8375	0.572	0.063
Mof_C 	C 	0.7252	0.8305	0.6122	-0.069
Mof_H 	H 	0.7022	0.8366	0.5761	0.068
Mof_C 	C 	0.6965	0.8216	0.6691	0.078
Mof_C 	C 	0.6311	0.8211	0.6776	-0.045
Mof_H 	H 	0.6172	0.8081	0.7165	0.051
Mof_C 	C 	0.5886	0.8368	0.6371	-0.121
Mof_H 	H 	0.6016	0.8507	0.5982	0.076
Mof_C 	C 	0.5236	0.8343	0.648	0.155
Mof_C 	C 	0.4833	0.8604	0.6079	-0.191
Mof_H 	H 	0.4977	0.8792	0.5717	0.101
Mof_C 	C 	0.421	0.8594	0.62	0.107
Mof_H 	H 	0.3948	0.8798	0.5927	-0.001
Mof_C 	C 	0.4364	0.8048	0.706	0.123
Mof_H 	H 	0.4208	0.7827	0.7397	-0.003
Mof_C 	C 	0.4981	0.8072	0.6998	-0.199
Mof_H 	H 	0.5233	0.7905	0.7305	0.113
Mof_C 	C 	0.6168	0.6967	0.8009	0.292
Mof_C 	C 	0.5796	0.6392	0.7946	-0.083
Mof_C 	C 	0.6084	0.5875	0.7725	0.009
Mof_H 	H 	0.649	0.5895	0.7595	0.039
Mof_C 	C 	0.5767	0.5328	0.7695	-0.092
Mof_H 	H 	0.5962	0.4978	0.7545	0.062
Mof_C 	C 	0.5158	0.5296	0.7888	0.033
Mof_C 	C 	0.4872	0.5822	0.807	-0.095
Mof_H 	H 	0.4458	0.5812	0.8172	0.065
Mof_C 	C 	0.519	0.6374	0.8105	0.012
Mof_H 	H 	0.499	0.6729	0.8236	0.038
Mof_N 	N 	0.3971	0.8306	0.669	-0.17
Mof_Cd	Cd	0.18953	0.29361	0.3211	0.439
Mof_O 	O 	0.29182	0.2881	0.3263	-0.276
Mof_N 	N 	0.22886	0.3112	0.2215	-0.127
Mof_C 	C 	0.3225	0.2958	0.2752	0.206
Mof_O 	O 	0.091	0.24563	0.3176	-0.281
Mof_C 	C 	0.3854	0.2913	0.271	-0.22
Mof_H 	H 	0.408	0.2813	0.3064	0.12
Mof_O 	O 	0.1723	0.194	0.29	-0.274
Mof_C 	C 	0.416	0.3015	0.2149	0.109
Mof_H 	H 	0.4586	0.2985	0.2139	-0.008
Mof_C 	C 	0.3868	0.3152	0.1638	-0.173
Mof_H 	H 	0.4088	0.3223	0.1273	0.091
Mof_C 	C 	0.3225	0.3194	0.163	0.079
Mof_C 	C 	0.2907	0.3089	0.2189	-0.033
Mof_C 	C 	0.2879	0.3302	0.1098	-0.067
Mof_H 	H 	0.3076	0.3375	0.072	0.063
Mof_C 	C 	0.2252	0.3305	0.1122	-0.069
Mof_H 	H 	0.2022	0.3366	0.0761	0.068
Mof_C 	C 	0.1965	0.3216	0.1691	0.078
Mof_C 	C 	0.1311	0.3211	0.1776	-0.045
Mof_H 	H 	0.1172	0.3081	0.2165	0.051
Mof_C 	C 	0.0886	0.3368	0.1371	-0.121
Mof_H 	H 	0.1016	0.3507	0.0982	0.076
Mof_C 	C 	0.0236	0.3343	0.148	0.154
Mof_C 	C 	0.9833	0.3604	0.1079	-0.191
Mof_H 	H 	0.9977	0.3792	0.0717	0.101
Mof_C 	C 	0.921	0.3594	0.12	0.107
Mof_H 	H 	0.8948	0.3798	0.0927	-0.001
Mof_C 	C 	0.9364	0.3048	0.206	0.123
Mof_H 	H 	0.9208	0.2827	0.2397	-0.003
Mof_C 	C 	0.9981	0.3072	0.1998	-0.199
Mof_H 	H 	0.0233	0.2905	0.2305	0.113
Mof_C 	C 	0.1168	0.1967	0.3009	0.292
Mof_C 	C 	0.0796	0.1392	0.2946	-0.083
Mof_C 	C 	0.1084	0.0875	0.2725	0.009
Mof_H 	H 	0.149	0.0895	0.2595	0.039
Mof_C 	C 	0.0767	0.0328	0.2695	-0.092
Mof_H 	H 	0.0962	0.9978	0.2545	0.062
Mof_C 	C 	0.0158	0.0296	0.2888	0.033
Mof_C 	C 	0.9872	0.0822	0.307	-0.095
Mof_H 	H 	0.9458	0.0812	0.3172	0.065
Mof_C 	C 	0.019	0.1374	0.3105	0.012
Mof_H 	H 	0.999	0.1729	0.3236	0.038
Mof_N 	N 	0.8971	0.3306	0.169	-0.17
Mof_Cd	Cd	0.31047	0.20639	0.8211	0.439
Mof_O 	O 	0.20818	0.2119	0.8263	-0.276
Mof_N 	N 	0.27114	0.1888	0.7215	-0.127
Mof_C 	C 	0.1775	0.2042	0.7752	0.206
Mof_O 	O 	0.409	0.25437	0.8176	-0.281
Mof_C 	C 	0.1146	0.2087	0.771	-0.22
Mof_H 	H 	0.092	0.2187	0.8064	0.12
Mof_O 	O 	0.3277	0.306	0.79	-0.274
Mof_C 	C 	0.084	0.1985	0.7149	0.109
Mof_H 	H 	0.0414	0.2015	0.7139	-0.008
Mof_C 	C 	0.1132	0.1848	0.6638	-0.173
Mof_H 	H 	0.0912	0.1777	0.6273	0.091
Mof_C 	C 	0.1775	0.1806	0.663	0.079
Mof_C 	C 	0.2093	0.1911	0.7189	-0.033
Mof_C 	C 	0.2121	0.1698	0.6098	-0.067
Mof_H 	H 	0.1924	0.1625	0.572	0.063
Mof_C 	C 	0.2748	0.1695	0.6122	-0.069
Mof_H 	H 	0.2978	0.1634	0.5761	0.068
Mof_C 	C 	0.3035	0.1784	0.6691	0.078
Mof_C 	C 	0.3689	0.1789	0.6776	-0.045
Mof_H 	H 	0.3828	0.1919	0.7165	0.051
Mof_C 	C 	0.4114	0.1632	0.6371	-0.121
Mof_H 	H 	0.3984	0.1493	0.5982	0.076
Mof_C 	C 	0.4764	0.1657	0.648	0.155
Mof_C 	C 	0.5167	0.1396	0.6079	-0.191
Mof_H 	H 	0.5023	0.1208	0.5717	0.101
Mof_C 	C 	0.579	0.1406	0.62	0.107
Mof_H 	H 	0.6052	0.1202	0.5927	-0.001
Mof_C 	C 	0.5636	0.1952	0.706	0.123
Mof_H 	H 	0.5792	0.2173	0.7397	-0.003
Mof_C 	C 	0.5019	0.1928	0.6998	-0.199
Mof_H 	H 	0.4767	0.2095	0.7305	0.113
Mof_C 	C 	0.3832	0.3033	0.8009	0.292
Mof_C 	C 	0.4204	0.3608	0.7946	-0.083
Mof_C 	C 	0.3916	0.4125	0.7725	0.009
Mof_H 	H 	0.351	0.4105	0.7595	0.039
Mof_C 	C 	0.4233	0.4672	0.7695	-0.092
Mof_H 	H 	0.4038	0.5022	0.7545	0.062
Mof_C 	C 	0.4842	0.4704	0.7888	0.033
Mof_C 	C 	0.5128	0.4178	0.807	-0.095
Mof_H 	H 	0.5542	0.4188	0.8172	0.065
Mof_C 	C 	0.481	0.3626	0.8105	0.012
Mof_H 	H 	0.501	0.3271	0.8236	0.038
Mof_N 	N 	0.6029	0.1694	0.669	-0.17
Mof_Cd	Cd	0.81047	0.70639	0.3211	0.439
Mof_O 	O 	0.70818	0.7119	0.3263	-0.276
Mof_N 	N 	0.77114	0.6888	0.2215	-0.127
Mof_C 	C 	0.6775	0.7042	0.2752	0.206
Mof_O 	O 	0.909	0.75437	0.3176	-0.281
Mof_C 	C 	0.6146	0.7087	0.271	-0.22
Mof_H 	H 	0.592	0.7187	0.3064	0.12
Mof_O 	O 	0.8277	0.806	0.29	-0.274
Mof_C 	C 	0.584	0.6985	0.2149	0.109
Mof_H 	H 	0.5414	0.7015	0.2139	-0.008
Mof_C 	C 	0.6132	0.6848	0.1638	-0.173
Mof_H 	H 	0.5912	0.6777	0.1273	0.091
Mof_C 	C 	0.6775	0.6806	0.163	0.079
Mof_C 	C 	0.7093	0.6911	0.2189	-0.033
Mof_C 	C 	0.7121	0.6698	0.1098	-0.067
Mof_H 	H 	0.6924	0.6625	0.072	0.063
Mof_C 	C 	0.7748	0.6695	0.1122	-0.069
Mof_H 	H 	0.7978	0.6634	0.0761	0.068
Mof_C 	C 	0.8035	0.6784	0.1691	0.078
Mof_C 	C 	0.8689	0.6789	0.1776	-0.045
Mof_H 	H 	0.8828	0.6919	0.2165	0.051
Mof_C 	C 	0.9114	0.6632	0.1371	-0.121
Mof_H 	H 	0.8984	0.6493	0.0982	0.076
Mof_C 	C 	0.9764	0.6657	0.148	0.154
Mof_C 	C 	0.0167	0.6396	0.1079	-0.191
Mof_H 	H 	0.0023	0.6208	0.0717	0.101
Mof_C 	C 	0.079	0.6406	0.12	0.107
Mof_H 	H 	0.1052	0.6202	0.0927	-0.001
Mof_C 	C 	0.0636	0.6952	0.206	0.123
Mof_H 	H 	0.0792	0.7173	0.2397	-0.003
Mof_C 	C 	0.0019	0.6928	0.1998	-0.199
Mof_H 	H 	0.9767	0.7095	0.2305	0.113
Mof_C 	C 	0.8832	0.8033	0.3009	0.292
Mof_C 	C 	0.9204	0.8608	0.2946	-0.083
Mof_C 	C 	0.8916	0.9125	0.2725	0.009
Mof_H 	H 	0.851	0.9105	0.2595	0.039
Mof_C 	C 	0.9233	0.9672	0.2695	-0.092
Mof_H 	H 	0.9038	0.0022	0.2545	0.062
Mof_C 	C 	0.9842	0.9704	0.2888	0.033
Mof_C 	C 	0.0128	0.9178	0.307	-0.095
Mof_H 	H 	0.0542	0.9188	0.3172	0.065
Mof_C 	C 	0.981	0.8626	0.3105	0.012
Mof_H 	H 	0.001	0.8271	0.3236	0.038
Mof_N 	N 	0.1029	0.6694	0.169	-0.17
_end
