data_functionalizedCrystal
_audit_creation_method	'EQeq! by Chris Wilmer'
_symmetry_space_group_name_H-M	'P1'
_symmetry_Int_Tables_number	1
_symmetry_cell_setting	triclinic
loop_
_symmetry_equiv_pos_as_xyz
  x,y,z
_cell_length_a	37.023
_cell_length_b	37.023
_cell_length_c	29.896
_cell_angle_alpha	90
_cell_angle_beta	90
_cell_angle_gamma	120
loop_
_atom_site_label
_atom_site_type_symbol
_atom_site_fract_x
_atom_site_fract_y
_atom_site_fract_z
_atom_site_charge
Mof_Zn	Zn	0.37547	0.65418	0.72335	1.106
Mof_Zn	Zn	0.16291	0.37182	0.29486	1.199
Mof_Zn	Zn	0.18905	0.30356	0.27877	1.089
Mof_O 	O 	0.2314	0.3557	0.3266	-0.643
Mof_O 	O 	0.1836	0.3658	0.3489	-0.707
Mof_O 	O 	0.1813	0.3253	0.3613	-0.49
Mof_O 	O 	0.2029	0.3193	0.3425	-0.297
Mof_O 	O 	0.4114	0.6621	0.7708	-0.265
Mof_O 	O 	0.3581	0.6029	0.704	-0.95
Mof_O 	O 	0.3246	0.6158	0.6614	-0.766
Mof_O 	O 	0.296	0.579	0.69	-0.546
Mof_O 	O 	0.123	0.3658	0.2627	-1.192
Mof_O 	O 	0.1076	0.3532	0.3081	-0.352
Mof_O 	O 	0.0872	0.3022	0.3207	-0.402
Mof_O 	O 	0.2371	0.3051	0.2466	-0.491
Mof_O 	O 	0.1285	0.234	0.2188	-0.822
Mof_O 	O 	0.1442	0.2409	0.2732	-0.649
Mof_O 	O 	0.1806	0.4233	0.2492	-0.317
Mof_O 	O 	0.1939	0.4287	0.2772	-0.39
Mof_C 	C 	0.2709	0.3861	0.5413	-0.005
Mof_C 	C 	0.2793	0.4257	0.5557	0.014
Mof_C 	C 	0.2962	0.4292	0.6016	-0.01
Mof_C 	C 	0.2994	0.4032	0.6295	0.015
Mof_C 	C 	0.292	0.3636	0.6093	-0.003
Mof_C 	C 	0.2756	0.3528	0.5638	0.012
Mof_C 	C 	0.2999	0.466	0.6231	0.029
Mof_C 	C 	0.2802	0.4899	0.6102	-0.029
Mof_C 	C 	0.2926	0.5286	0.6343	0.124
Mof_C 	C 	0.3203	0.551	0.6711	-0.201
Mof_C 	C 	0.3377	0.5244	0.6787	0.124
Mof_C 	C 	0.3297	0.4851	0.6593	-0.03
Mof_C 	C 	0.2843	0.3221	0.6789	-0.015
Mof_C 	C 	0.3216	0.2823	0.6372	0.098
Mof_C 	C 	0.2981	0.2976	0.613	-0.015
Mof_C 	C 	0.3059	0.3351	0.6362	0.018
Mof_C 	C 	0.2462	0.3699	0.4958	0.024
Mof_C 	C 	0.2314	0.3299	0.474	-0.026
Mof_C 	C 	0.2165	0.322	0.4282	0.128
Mof_C 	C 	0.226	0.36	0.4046	-0.234
Mof_C 	C 	0.2165	0.3869	0.4315	0.092
Mof_C 	C 	0.2483	0.4017	0.4659	-0.013
Mof_C 	C 	0.2087	0.3559	0.3572	1.039
Mof_C 	C 	0.3343	0.5958	0.6845	1.297
Mof_C 	C 	0.0786	0.3284	0.2907	0.651
Mof_C 	C 	0.2498	0.5532	0.272	-0.031
Mof_C 	C 	0.2256	0.5102	0.2602	0.121
Mof_C 	C 	0.2961	0.2968	0.7057	0.09
Mof_C 	C 	0.3153	0.2751	0.6847	-0.149
Mof_Zn	Zn	0.15468	0.29069	0.19846	1.119
Mof_Zn	Zn	0.22195	0.36196	0.26189	1.358
Mof_Zn	Zn	0.34582	0.72129	0.72335	1.105
Mof_Zn	Zn	0.62818	0.79109	0.29486	1.198
Mof_Zn	Zn	0.69644	0.88549	0.27877	1.088
Mof_O 	O 	0.6443	0.8757	0.3266	-0.644
Mof_O 	O 	0.6342	0.8178	0.3489	-0.708
Mof_O 	O 	0.6747	0.856	0.3613	-0.491
Mof_O 	O 	0.6807	0.8836	0.3425	-0.297
Mof_O 	O 	0.3379	0.7493	0.7708	-0.265
Mof_O 	O 	0.3971	0.7552	0.704	-0.95
Mof_O 	O 	0.3842	0.7088	0.6614	-0.766
Mof_O 	O 	0.421	0.717	0.69	-0.546
Mof_O 	O 	0.6342	0.7572	0.2627	-1.192
Mof_O 	O 	0.6468	0.7544	0.3081	-0.352
Mof_O 	O 	0.6978	0.785	0.3207	-0.402
Mof_O 	O 	0.6949	0.932	0.2466	-0.491
Mof_O 	O 	0.766	0.8945	0.2188	-0.822
Mof_O 	O 	0.7591	0.9033	0.2732	-0.649
Mof_O 	O 	0.5767	0.7573	0.2492	-0.317
Mof_O 	O 	0.5713	0.7652	0.2772	-0.39
Mof_C 	C 	0.6139	0.8848	0.5413	-0.005
Mof_C 	C 	0.5743	0.8536	0.5557	0.014
Mof_C 	C 	0.5708	0.867	0.6016	-0.01
Mof_C 	C 	0.5968	0.8962	0.6295	0.015
Mof_C 	C 	0.6364	0.9284	0.6093	-0.003
Mof_C 	C 	0.6472	0.9228	0.5638	0.012
Mof_C 	C 	0.534	0.8339	0.6231	0.029
Mof_C 	C 	0.5101	0.7903	0.6102	-0.029
Mof_C 	C 	0.4714	0.764	0.6343	0.124
Mof_C 	C 	0.449	0.7693	0.6711	-0.201
Mof_C 	C 	0.4756	0.8133	0.6787	0.124
Mof_C 	C 	0.5149	0.8446	0.6593	-0.03
Mof_C 	C 	0.6779	0.9622	0.6789	-0.015
Mof_C 	C 	0.7177	0.0393	0.6372	0.098
Mof_C 	C 	0.7024	0.0005	0.613	-0.015
Mof_C 	C 	0.6649	0.9708	0.6362	0.018
Mof_C 	C 	0.6301	0.8763	0.4958	0.024
Mof_C 	C 	0.6701	0.9015	0.474	-0.026
Mof_C 	C 	0.678	0.8945	0.4282	0.128
Mof_C 	C 	0.64	0.866	0.4046	-0.234
Mof_C 	C 	0.6131	0.8296	0.4315	0.092
Mof_C 	C 	0.5983	0.8466	0.4659	-0.013
Mof_C 	C 	0.6441	0.8528	0.3572	1.039
Mof_C 	C 	0.4042	0.7385	0.6845	1.297
Mof_C 	C 	0.6716	0.7502	0.2907	0.651
Mof_C 	C 	0.4468	0.6966	0.272	-0.031
Mof_C 	C 	0.4898	0.7154	0.2602	0.121
Mof_C 	C 	0.7032	0.9993	0.7057	0.089
Mof_C 	C 	0.7249	0.0402	0.6847	-0.149
Mof_Zn	Zn	0.70931	0.86399	0.19846	1.119
Mof_Zn	Zn	0.63804	0.85999	0.26189	1.358
Mof_Zn	Zn	0.27871	0.62453	0.72335	1.105
Mof_Zn	Zn	0.20891	0.83709	0.29486	1.198
Mof_Zn	Zn	0.11451	0.81095	0.27877	1.088
Mof_O 	O 	0.1243	0.7686	0.3266	-0.644
Mof_O 	O 	0.1822	0.8164	0.3489	-0.708
Mof_O 	O 	0.144	0.8187	0.3613	-0.491
Mof_O 	O 	0.1164	0.7971	0.3425	-0.297
Mof_O 	O 	0.2507	0.5886	0.7708	-0.265
Mof_O 	O 	0.2448	0.6419	0.704	-0.95
Mof_O 	O 	0.2912	0.6754	0.6614	-0.766
Mof_O 	O 	0.283	0.704	0.69	-0.546
Mof_O 	O 	0.2428	0.877	0.2627	-1.192
Mof_O 	O 	0.2456	0.8924	0.3081	-0.352
Mof_O 	O 	0.215	0.9128	0.3207	-0.402
Mof_O 	O 	0.068	0.7629	0.2466	-0.491
Mof_O 	O 	0.1055	0.8715	0.2188	-0.822
Mof_O 	O 	0.0967	0.8558	0.2732	-0.649
Mof_O 	O 	0.2427	0.8194	0.2492	-0.317
Mof_O 	O 	0.2348	0.8061	0.2772	-0.39
Mof_C 	C 	0.1152	0.7291	0.5413	-0.005
Mof_C 	C 	0.1464	0.7207	0.5557	0.014
Mof_C 	C 	0.133	0.7038	0.6016	-0.01
Mof_C 	C 	0.1038	0.7006	0.6295	0.015
Mof_C 	C 	0.0716	0.708	0.6093	-0.003
Mof_C 	C 	0.0772	0.7244	0.5638	0.012
Mof_C 	C 	0.1661	0.7001	0.6231	0.029
Mof_C 	C 	0.2097	0.7198	0.6102	-0.029
Mof_C 	C 	0.236	0.7074	0.6343	0.124
Mof_C 	C 	0.2307	0.6797	0.6711	-0.201
Mof_C 	C 	0.1867	0.6623	0.6787	0.124
Mof_C 	C 	0.1554	0.6703	0.6593	-0.03
Mof_C 	C 	0.0378	0.7157	0.6789	-0.015
Mof_C 	C 	0.9607	0.6784	0.6372	0.098
Mof_C 	C 	0.9995	0.7019	0.613	-0.015
Mof_C 	C 	0.0292	0.6941	0.6362	0.018
Mof_C 	C 	0.1237	0.7538	0.4958	0.024
Mof_C 	C 	0.0985	0.7686	0.474	-0.026
Mof_C 	C 	0.1055	0.7835	0.4282	0.128
Mof_C 	C 	0.134	0.774	0.4046	-0.234
Mof_C 	C 	0.1704	0.7835	0.4315	0.092
Mof_C 	C 	0.1534	0.7517	0.4659	-0.013
Mof_C 	C 	0.1472	0.7913	0.3572	1.039
Mof_C 	C 	0.2615	0.6657	0.6845	1.297
Mof_C 	C 	0.2498	0.9214	0.2907	0.651
Mof_C 	C 	0.3034	0.7502	0.272	-0.031
Mof_C 	C 	0.2846	0.7744	0.2602	0.121
Mof_C 	C 	0.0007	0.7039	0.7057	0.089
Mof_C 	C 	0.9598	0.6847	0.6847	-0.149
Mof_Zn	Zn	0.13601	0.84532	0.19846	1.119
Mof_Zn	Zn	0.14001	0.77805	0.26189	1.358
Mof_Zn	Zn	0.34582	0.62453	0.77665	1.105
Mof_Zn	Zn	0.62818	0.83709	0.20514	1.198
Mof_Zn	Zn	0.69644	0.81095	0.22123	1.088
Mof_O 	O 	0.6443	0.7686	0.1734	-0.644
Mof_O 	O 	0.6342	0.8164	0.1511	-0.708
Mof_O 	O 	0.6747	0.8187	0.1387	-0.491
Mof_O 	O 	0.6807	0.7971	0.1575	-0.297
Mof_O 	O 	0.3379	0.5886	0.7292	-0.265
Mof_O 	O 	0.3971	0.6419	0.796	-0.95
Mof_O 	O 	0.3842	0.6754	0.8386	-0.766
Mof_O 	O 	0.421	0.704	0.81	-0.546
Mof_O 	O 	0.6342	0.877	0.2373	-1.192
Mof_O 	O 	0.6468	0.8924	0.1919	-0.352
Mof_O 	O 	0.6978	0.9128	0.1793	-0.402
Mof_O 	O 	0.6949	0.7629	0.2534	-0.491
Mof_O 	O 	0.766	0.8715	0.2812	-0.822
Mof_O 	O 	0.7591	0.8558	0.2268	-0.649
Mof_O 	O 	0.5767	0.8194	0.2508	-0.317
Mof_O 	O 	0.5713	0.8061	0.2228	-0.39
Mof_C 	C 	0.6139	0.7291	0.9587	-0.005
Mof_C 	C 	0.5743	0.7207	0.9443	0.014
Mof_C 	C 	0.5708	0.7038	0.8984	-0.01
Mof_C 	C 	0.5968	0.7006	0.8705	0.015
Mof_C 	C 	0.6364	0.708	0.8907	-0.003
Mof_C 	C 	0.6472	0.7244	0.9362	0.012
Mof_C 	C 	0.534	0.7001	0.8769	0.029
Mof_C 	C 	0.5101	0.7198	0.8898	-0.029
Mof_C 	C 	0.4714	0.7074	0.8657	0.124
Mof_C 	C 	0.449	0.6797	0.8289	-0.201
Mof_C 	C 	0.4756	0.6623	0.8213	0.124
Mof_C 	C 	0.5149	0.6703	0.8407	-0.03
Mof_C 	C 	0.6779	0.7157	0.8211	-0.015
Mof_C 	C 	0.7177	0.6784	0.8628	0.098
Mof_C 	C 	0.7024	0.7019	0.887	-0.015
Mof_C 	C 	0.6649	0.6941	0.8638	0.018
Mof_C 	C 	0.6301	0.7538	0.0042	0.024
Mof_C 	C 	0.6701	0.7686	0.026	-0.026
Mof_C 	C 	0.678	0.7835	0.0718	0.128
Mof_C 	C 	0.64	0.774	0.0954	-0.234
Mof_C 	C 	0.6131	0.7835	0.0685	0.092
Mof_C 	C 	0.5983	0.7517	0.0341	-0.013
Mof_C 	C 	0.6441	0.7913	0.1428	1.039
Mof_C 	C 	0.4042	0.6657	0.8155	1.297
Mof_C 	C 	0.6716	0.9214	0.2093	0.651
Mof_C 	C 	0.4468	0.7502	0.228	-0.031
Mof_C 	C 	0.4898	0.7744	0.2398	0.121
Mof_C 	C 	0.7032	0.7039	0.7943	0.09
Mof_C 	C 	0.7249	0.6847	0.8153	-0.149
Mof_Zn	Zn	0.70931	0.84532	0.30154	1.119
Mof_Zn	Zn	0.63804	0.77805	0.23811	1.358
Mof_Zn	Zn	0.27871	0.65418	0.77665	1.105
Mof_Zn	Zn	0.20891	0.37182	0.20514	1.198
Mof_Zn	Zn	0.11451	0.30356	0.22123	1.088
Mof_O 	O 	0.1243	0.3557	0.1734	-0.644
Mof_O 	O 	0.1822	0.3658	0.1511	-0.708
Mof_O 	O 	0.144	0.3253	0.1387	-0.491
Mof_O 	O 	0.1164	0.3193	0.1575	-0.297
Mof_O 	O 	0.2507	0.6621	0.7292	-0.265
Mof_O 	O 	0.2448	0.6029	0.796	-0.95
Mof_O 	O 	0.2912	0.6158	0.8386	-0.766
Mof_O 	O 	0.283	0.579	0.81	-0.546
Mof_O 	O 	0.2428	0.3658	0.2373	-1.192
Mof_O 	O 	0.2456	0.3532	0.1919	-0.352
Mof_O 	O 	0.215	0.3022	0.1793	-0.402
Mof_O 	O 	0.068	0.3051	0.2534	-0.491
Mof_O 	O 	0.1055	0.234	0.2812	-0.822
Mof_O 	O 	0.0967	0.2409	0.2268	-0.649
Mof_O 	O 	0.2427	0.4233	0.2508	-0.317
Mof_O 	O 	0.2348	0.4287	0.2228	-0.39
Mof_C 	C 	0.1152	0.3861	0.9587	-0.005
Mof_C 	C 	0.1464	0.4257	0.9443	0.014
Mof_C 	C 	0.133	0.4292	0.8984	-0.01
Mof_C 	C 	0.1038	0.4032	0.8705	0.015
Mof_C 	C 	0.0716	0.3636	0.8907	-0.003
Mof_C 	C 	0.0772	0.3528	0.9362	0.012
Mof_C 	C 	0.1661	0.466	0.8769	0.029
Mof_C 	C 	0.2097	0.4899	0.8898	-0.029
Mof_C 	C 	0.236	0.5286	0.8657	0.124
Mof_C 	C 	0.2307	0.551	0.8289	-0.201
Mof_C 	C 	0.1867	0.5244	0.8213	0.124
Mof_C 	C 	0.1554	0.4851	0.8407	-0.03
Mof_C 	C 	0.0378	0.3221	0.8211	-0.015
Mof_C 	C 	0.9607	0.2823	0.8628	0.098
Mof_C 	C 	0.9995	0.2976	0.887	-0.015
Mof_C 	C 	0.0292	0.3351	0.8638	0.018
Mof_C 	C 	0.1237	0.3699	0.0042	0.024
Mof_C 	C 	0.0985	0.3299	0.026	-0.026
Mof_C 	C 	0.1055	0.322	0.0718	0.128
Mof_C 	C 	0.134	0.36	0.0954	-0.234
Mof_C 	C 	0.1704	0.3869	0.0685	0.092
Mof_C 	C 	0.1534	0.4017	0.0341	-0.013
Mof_C 	C 	0.1472	0.3559	0.1428	1.039
Mof_C 	C 	0.2615	0.5958	0.8155	1.297
Mof_C 	C 	0.2498	0.3284	0.2093	0.651
Mof_C 	C 	0.3034	0.5532	0.228	-0.031
Mof_C 	C 	0.2846	0.5102	0.2398	0.121
Mof_C 	C 	0.0007	0.2968	0.7943	0.089
Mof_C 	C 	0.9598	0.2751	0.8153	-0.149
Mof_Zn	Zn	0.13601	0.29069	0.30154	1.119
Mof_Zn	Zn	0.14001	0.36196	0.23811	1.358
Mof_Zn	Zn	0.37547	0.72129	0.77665	1.105
Mof_Zn	Zn	0.16291	0.79109	0.20514	1.198
Mof_Zn	Zn	0.18905	0.88549	0.22123	1.088
Mof_O 	O 	0.2314	0.8757	0.1734	-0.644
Mof_O 	O 	0.1836	0.8178	0.1511	-0.708
Mof_O 	O 	0.1813	0.856	0.1387	-0.491
Mof_O 	O 	0.2029	0.8836	0.1575	-0.297
Mof_O 	O 	0.4114	0.7493	0.7292	-0.265
Mof_O 	O 	0.3581	0.7552	0.796	-0.95
Mof_O 	O 	0.3246	0.7088	0.8386	-0.766
Mof_O 	O 	0.296	0.717	0.81	-0.546
Mof_O 	O 	0.123	0.7572	0.2373	-1.192
Mof_O 	O 	0.1076	0.7544	0.1919	-0.352
Mof_O 	O 	0.0872	0.785	0.1793	-0.402
Mof_O 	O 	0.2371	0.932	0.2534	-0.491
Mof_O 	O 	0.1285	0.8945	0.2812	-0.822
Mof_O 	O 	0.1442	0.9033	0.2268	-0.649
Mof_O 	O 	0.1806	0.7573	0.2508	-0.317
Mof_O 	O 	0.1939	0.7652	0.2228	-0.39
Mof_C 	C 	0.2709	0.8848	0.9587	-0.005
Mof_C 	C 	0.2793	0.8536	0.9443	0.014
Mof_C 	C 	0.2962	0.867	0.8984	-0.01
Mof_C 	C 	0.2994	0.8962	0.8705	0.015
Mof_C 	C 	0.292	0.9284	0.8907	-0.003
Mof_C 	C 	0.2756	0.9228	0.9362	0.012
Mof_C 	C 	0.2999	0.8339	0.8769	0.029
Mof_C 	C 	0.2802	0.7903	0.8898	-0.029
Mof_C 	C 	0.2926	0.764	0.8657	0.124
Mof_C 	C 	0.3203	0.7693	0.8289	-0.201
Mof_C 	C 	0.3377	0.8133	0.8213	0.124
Mof_C 	C 	0.3297	0.8446	0.8407	-0.03
Mof_C 	C 	0.2843	0.9622	0.8211	-0.015
Mof_C 	C 	0.3216	0.0393	0.8628	0.098
Mof_C 	C 	0.2981	0.0005	0.887	-0.015
Mof_C 	C 	0.3059	0.9708	0.8638	0.018
Mof_C 	C 	0.2462	0.8763	0.0042	0.024
Mof_C 	C 	0.2314	0.9015	0.026	-0.026
Mof_C 	C 	0.2165	0.8945	0.0718	0.128
Mof_C 	C 	0.226	0.866	0.0954	-0.234
Mof_C 	C 	0.2165	0.8296	0.0685	0.092
Mof_C 	C 	0.2483	0.8466	0.0341	-0.013
Mof_C 	C 	0.2087	0.8528	0.1428	1.039
Mof_C 	C 	0.3343	0.7385	0.8155	1.297
Mof_C 	C 	0.0786	0.7502	0.2093	0.651
Mof_C 	C 	0.2498	0.6966	0.228	-0.031
Mof_C 	C 	0.2256	0.7154	0.2398	0.121
Mof_C 	C 	0.2961	0.9993	0.7943	0.089
Mof_C 	C 	0.3153	0.0402	0.8153	-0.149
Mof_Zn	Zn	0.15468	0.86399	0.30154	1.119
Mof_Zn	Zn	0.22195	0.85999	0.23811	1.358
Mof_Zn	Zn	0.62453	0.34582	0.27665	1.105
Mof_Zn	Zn	0.83709	0.62818	0.70514	1.198
Mof_Zn	Zn	0.81095	0.69644	0.72123	1.088
Mof_O 	O 	0.7686	0.6443	0.6734	-0.644
Mof_O 	O 	0.8164	0.6342	0.6511	-0.708
Mof_O 	O 	0.8187	0.6747	0.6387	-0.491
Mof_O 	O 	0.7971	0.6807	0.6575	-0.297
Mof_O 	O 	0.5886	0.3379	0.2292	-0.265
Mof_O 	O 	0.6419	0.3971	0.296	-0.95
Mof_O 	O 	0.6754	0.3842	0.3386	-0.766
Mof_O 	O 	0.704	0.421	0.31	-0.546
Mof_O 	O 	0.877	0.6342	0.7373	-1.192
Mof_O 	O 	0.8924	0.6468	0.6919	-0.352
Mof_O 	O 	0.9128	0.6978	0.6793	-0.402
Mof_O 	O 	0.7629	0.6949	0.7534	-0.491
Mof_O 	O 	0.8715	0.766	0.7812	-0.822
Mof_O 	O 	0.8558	0.7591	0.7268	-0.649
Mof_O 	O 	0.8194	0.5767	0.7508	-0.317
Mof_O 	O 	0.8061	0.5713	0.7228	-0.39
Mof_C 	C 	0.7291	0.6139	0.4587	-0.005
Mof_C 	C 	0.7207	0.5743	0.4443	0.014
Mof_C 	C 	0.7038	0.5708	0.3984	-0.01
Mof_C 	C 	0.7006	0.5968	0.3705	0.015
Mof_C 	C 	0.708	0.6364	0.3907	-0.003
Mof_C 	C 	0.7244	0.6472	0.4362	0.012
Mof_C 	C 	0.7001	0.534	0.3769	0.029
Mof_C 	C 	0.7198	0.5101	0.3898	-0.029
Mof_C 	C 	0.7074	0.4714	0.3657	0.124
Mof_C 	C 	0.6797	0.449	0.3289	-0.201
Mof_C 	C 	0.6623	0.4756	0.3213	0.124
Mof_C 	C 	0.6703	0.5149	0.3407	-0.03
Mof_C 	C 	0.7157	0.6779	0.3211	-0.015
Mof_C 	C 	0.6784	0.7177	0.3628	0.098
Mof_C 	C 	0.7019	0.7024	0.387	-0.015
Mof_C 	C 	0.6941	0.6649	0.3638	0.018
Mof_C 	C 	0.7538	0.6301	0.5042	0.024
Mof_C 	C 	0.7686	0.6701	0.526	-0.026
Mof_C 	C 	0.7835	0.678	0.5718	0.128
Mof_C 	C 	0.774	0.64	0.5954	-0.234
Mof_C 	C 	0.7835	0.6131	0.5685	0.092
Mof_C 	C 	0.7517	0.5983	0.5341	-0.013
Mof_C 	C 	0.7913	0.6441	0.6428	1.039
Mof_C 	C 	0.6657	0.4042	0.3155	1.297
Mof_C 	C 	0.9214	0.6716	0.7093	0.651
Mof_C 	C 	0.7502	0.4468	0.728	-0.031
Mof_C 	C 	0.7744	0.4898	0.7398	0.121
Mof_C 	C 	0.7039	0.7032	0.2943	0.09
Mof_C 	C 	0.6847	0.7249	0.3153	-0.149
Mof_Zn	Zn	0.84532	0.70931	0.80154	1.119
Mof_Zn	Zn	0.77805	0.63804	0.73811	1.358
Mof_Zn	Zn	0.65418	0.27871	0.27665	1.105
Mof_Zn	Zn	0.37182	0.20891	0.70514	1.198
Mof_Zn	Zn	0.30356	0.11451	0.72123	1.088
Mof_O 	O 	0.3557	0.1243	0.6734	-0.644
Mof_O 	O 	0.3658	0.1822	0.6511	-0.708
Mof_O 	O 	0.3253	0.144	0.6387	-0.491
Mof_O 	O 	0.3193	0.1164	0.6575	-0.297
Mof_O 	O 	0.6621	0.2507	0.2292	-0.265
Mof_O 	O 	0.6029	0.2448	0.296	-0.95
Mof_O 	O 	0.6158	0.2912	0.3386	-0.766
Mof_O 	O 	0.579	0.283	0.31	-0.546
Mof_O 	O 	0.3658	0.2428	0.7373	-1.192
Mof_O 	O 	0.3532	0.2456	0.6919	-0.352
Mof_O 	O 	0.3022	0.215	0.6793	-0.402
Mof_O 	O 	0.3051	0.068	0.7534	-0.491
Mof_O 	O 	0.234	0.1055	0.7812	-0.822
Mof_O 	O 	0.2409	0.0967	0.7268	-0.649
Mof_O 	O 	0.4233	0.2427	0.7508	-0.317
Mof_O 	O 	0.4287	0.2348	0.7228	-0.39
Mof_C 	C 	0.3861	0.1152	0.4587	-0.005
Mof_C 	C 	0.4257	0.1464	0.4443	0.014
Mof_C 	C 	0.4292	0.133	0.3984	-0.01
Mof_C 	C 	0.4032	0.1038	0.3705	0.015
Mof_C 	C 	0.3636	0.0716	0.3907	-0.003
Mof_C 	C 	0.3528	0.0772	0.4362	0.012
Mof_C 	C 	0.466	0.1661	0.3769	0.029
Mof_C 	C 	0.4899	0.2097	0.3898	-0.029
Mof_C 	C 	0.5286	0.236	0.3657	0.124
Mof_C 	C 	0.551	0.2307	0.3289	-0.201
Mof_C 	C 	0.5244	0.1867	0.3213	0.124
Mof_C 	C 	0.4851	0.1554	0.3407	-0.03
Mof_C 	C 	0.3221	0.0378	0.3211	-0.015
Mof_C 	C 	0.2823	0.9607	0.3628	0.098
Mof_C 	C 	0.2976	0.9995	0.387	-0.015
Mof_C 	C 	0.3351	0.0292	0.3638	0.018
Mof_C 	C 	0.3699	0.1237	0.5042	0.024
Mof_C 	C 	0.3299	0.0985	0.526	-0.026
Mof_C 	C 	0.322	0.1055	0.5718	0.128
Mof_C 	C 	0.36	0.134	0.5954	-0.234
Mof_C 	C 	0.3869	0.1704	0.5685	0.092
Mof_C 	C 	0.4017	0.1534	0.5341	-0.013
Mof_C 	C 	0.3559	0.1472	0.6428	1.039
Mof_C 	C 	0.5958	0.2615	0.3155	1.297
Mof_C 	C 	0.3284	0.2498	0.7093	0.651
Mof_C 	C 	0.5532	0.3034	0.728	-0.031
Mof_C 	C 	0.5102	0.2846	0.7398	0.121
Mof_C 	C 	0.2968	0.0007	0.2943	0.089
Mof_C 	C 	0.2751	0.9598	0.3153	-0.149
Mof_Zn	Zn	0.29069	0.13601	0.80154	1.119
Mof_Zn	Zn	0.36196	0.14001	0.73811	1.358
Mof_Zn	Zn	0.72129	0.37547	0.27665	1.105
Mof_Zn	Zn	0.79109	0.16291	0.70514	1.198
Mof_Zn	Zn	0.88549	0.18905	0.72123	1.088
Mof_O 	O 	0.8757	0.2314	0.6734	-0.644
Mof_O 	O 	0.8178	0.1836	0.6511	-0.708
Mof_O 	O 	0.856	0.1813	0.6387	-0.491
Mof_O 	O 	0.8836	0.2029	0.6575	-0.297
Mof_O 	O 	0.7493	0.4114	0.2292	-0.265
Mof_O 	O 	0.7552	0.3581	0.296	-0.95
Mof_O 	O 	0.7088	0.3246	0.3386	-0.766
Mof_O 	O 	0.717	0.296	0.31	-0.546
Mof_O 	O 	0.7572	0.123	0.7373	-1.192
Mof_O 	O 	0.7544	0.1076	0.6919	-0.352
Mof_O 	O 	0.785	0.0872	0.6793	-0.402
Mof_O 	O 	0.932	0.2371	0.7534	-0.491
Mof_O 	O 	0.8945	0.1285	0.7812	-0.822
Mof_O 	O 	0.9033	0.1442	0.7268	-0.649
Mof_O 	O 	0.7573	0.1806	0.7508	-0.317
Mof_O 	O 	0.7652	0.1939	0.7228	-0.39
Mof_C 	C 	0.8848	0.2709	0.4587	-0.005
Mof_C 	C 	0.8536	0.2793	0.4443	0.014
Mof_C 	C 	0.867	0.2962	0.3984	-0.01
Mof_C 	C 	0.8962	0.2994	0.3705	0.015
Mof_C 	C 	0.9284	0.292	0.3907	-0.003
Mof_C 	C 	0.9228	0.2756	0.4362	0.012
Mof_C 	C 	0.8339	0.2999	0.3769	0.029
Mof_C 	C 	0.7903	0.2802	0.3898	-0.029
Mof_C 	C 	0.764	0.2926	0.3657	0.124
Mof_C 	C 	0.7693	0.3203	0.3289	-0.201
Mof_C 	C 	0.8133	0.3377	0.3213	0.124
Mof_C 	C 	0.8446	0.3297	0.3407	-0.03
Mof_C 	C 	0.9622	0.2843	0.3211	-0.015
Mof_C 	C 	0.0393	0.3216	0.3628	0.098
Mof_C 	C 	0.0005	0.2981	0.387	-0.015
Mof_C 	C 	0.9708	0.3059	0.3638	0.018
Mof_C 	C 	0.8763	0.2462	0.5042	0.024
Mof_C 	C 	0.9015	0.2314	0.526	-0.026
Mof_C 	C 	0.8945	0.2165	0.5718	0.128
Mof_C 	C 	0.866	0.226	0.5954	-0.234
Mof_C 	C 	0.8296	0.2165	0.5685	0.092
Mof_C 	C 	0.8466	0.2483	0.5341	-0.013
Mof_C 	C 	0.8528	0.2087	0.6428	1.039
Mof_C 	C 	0.7385	0.3343	0.3155	1.297
Mof_C 	C 	0.7502	0.0786	0.7093	0.651
Mof_C 	C 	0.6966	0.2498	0.728	-0.031
Mof_C 	C 	0.7154	0.2256	0.7398	0.121
Mof_C 	C 	0.9993	0.2961	0.2943	0.089
Mof_C 	C 	0.0402	0.3153	0.3153	-0.149
Mof_Zn	Zn	0.86399	0.15468	0.80154	1.119
Mof_Zn	Zn	0.85999	0.22195	0.73811	1.358
Mof_Zn	Zn	0.65418	0.37547	0.22335	1.105
Mof_Zn	Zn	0.37182	0.16291	0.79486	1.198
Mof_Zn	Zn	0.30356	0.18905	0.77877	1.088
Mof_O 	O 	0.3557	0.2314	0.8266	-0.644
Mof_O 	O 	0.3658	0.1836	0.8489	-0.708
Mof_O 	O 	0.3253	0.1813	0.8613	-0.491
Mof_O 	O 	0.3193	0.2029	0.8425	-0.297
Mof_O 	O 	0.6621	0.4114	0.2708	-0.265
Mof_O 	O 	0.6029	0.3581	0.204	-0.95
Mof_O 	O 	0.6158	0.3246	0.1614	-0.766
Mof_O 	O 	0.579	0.296	0.19	-0.546
Mof_O 	O 	0.3658	0.123	0.7627	-1.192
Mof_O 	O 	0.3532	0.1076	0.8081	-0.352
Mof_O 	O 	0.3022	0.0872	0.8207	-0.402
Mof_O 	O 	0.3051	0.2371	0.7466	-0.491
Mof_O 	O 	0.234	0.1285	0.7188	-0.822
Mof_O 	O 	0.2409	0.1442	0.7732	-0.649
Mof_O 	O 	0.4233	0.1806	0.7492	-0.317
Mof_O 	O 	0.4287	0.1939	0.7772	-0.39
Mof_C 	C 	0.3861	0.2709	0.0413	-0.005
Mof_C 	C 	0.4257	0.2793	0.0557	0.014
Mof_C 	C 	0.4292	0.2962	0.1016	-0.01
Mof_C 	C 	0.4032	0.2994	0.1295	0.015
Mof_C 	C 	0.3636	0.292	0.1093	-0.003
Mof_C 	C 	0.3528	0.2756	0.0638	0.012
Mof_C 	C 	0.466	0.2999	0.1231	0.029
Mof_C 	C 	0.4899	0.2802	0.1102	-0.029
Mof_C 	C 	0.5286	0.2926	0.1343	0.124
Mof_C 	C 	0.551	0.3203	0.1711	-0.201
Mof_C 	C 	0.5244	0.3377	0.1787	0.124
Mof_C 	C 	0.4851	0.3297	0.1593	-0.03
Mof_C 	C 	0.3221	0.2843	0.1789	-0.015
Mof_C 	C 	0.2823	0.3216	0.1372	0.098
Mof_C 	C 	0.2976	0.2981	0.113	-0.015
Mof_C 	C 	0.3351	0.3059	0.1362	0.018
Mof_C 	C 	0.3699	0.2462	0.9958	0.024
Mof_C 	C 	0.3299	0.2314	0.974	-0.026
Mof_C 	C 	0.322	0.2165	0.9282	0.128
Mof_C 	C 	0.36	0.226	0.9046	-0.234
Mof_C 	C 	0.3869	0.2165	0.9315	0.092
Mof_C 	C 	0.4017	0.2483	0.9659	-0.013
Mof_C 	C 	0.3559	0.2087	0.8572	1.039
Mof_C 	C 	0.5958	0.3343	0.1845	1.297
Mof_C 	C 	0.3284	0.0786	0.7907	0.651
Mof_C 	C 	0.5532	0.2498	0.772	-0.031
Mof_C 	C 	0.5102	0.2256	0.7602	0.121
Mof_C 	C 	0.2968	0.2961	0.2057	0.09
Mof_C 	C 	0.2751	0.3153	0.1847	-0.149
Mof_Zn	Zn	0.29069	0.15468	0.69846	1.119
Mof_Zn	Zn	0.36196	0.22195	0.76189	1.358
Mof_Zn	Zn	0.72129	0.34582	0.22335	1.105
Mof_Zn	Zn	0.79109	0.62818	0.79486	1.198
Mof_Zn	Zn	0.88549	0.69644	0.77877	1.088
Mof_O 	O 	0.8757	0.6443	0.8266	-0.644
Mof_O 	O 	0.8178	0.6342	0.8489	-0.708
Mof_O 	O 	0.856	0.6747	0.8613	-0.491
Mof_O 	O 	0.8836	0.6807	0.8425	-0.297
Mof_O 	O 	0.7493	0.3379	0.2708	-0.265
Mof_O 	O 	0.7552	0.3971	0.204	-0.95
Mof_O 	O 	0.7088	0.3842	0.1614	-0.766
Mof_O 	O 	0.717	0.421	0.19	-0.546
Mof_O 	O 	0.7572	0.6342	0.7627	-1.192
Mof_O 	O 	0.7544	0.6468	0.8081	-0.352
Mof_O 	O 	0.785	0.6978	0.8207	-0.402
Mof_O 	O 	0.932	0.6949	0.7466	-0.491
Mof_O 	O 	0.8945	0.766	0.7188	-0.822
Mof_O 	O 	0.9033	0.7591	0.7732	-0.649
Mof_O 	O 	0.7573	0.5767	0.7492	-0.317
Mof_O 	O 	0.7652	0.5713	0.7772	-0.39
Mof_C 	C 	0.8848	0.6139	0.0413	-0.005
Mof_C 	C 	0.8536	0.5743	0.0557	0.014
Mof_C 	C 	0.867	0.5708	0.1016	-0.01
Mof_C 	C 	0.8962	0.5968	0.1295	0.015
Mof_C 	C 	0.9284	0.6364	0.1093	-0.003
Mof_C 	C 	0.9228	0.6472	0.0638	0.012
Mof_C 	C 	0.8339	0.534	0.1231	0.029
Mof_C 	C 	0.7903	0.5101	0.1102	-0.029
Mof_C 	C 	0.764	0.4714	0.1343	0.124
Mof_C 	C 	0.7693	0.449	0.1711	-0.201
Mof_C 	C 	0.8133	0.4756	0.1787	0.124
Mof_C 	C 	0.8446	0.5149	0.1593	-0.03
Mof_C 	C 	0.9622	0.6779	0.1789	-0.015
Mof_C 	C 	0.0393	0.7177	0.1372	0.098
Mof_C 	C 	0.0005	0.7024	0.113	-0.015
Mof_C 	C 	0.9708	0.6649	0.1362	0.018
Mof_C 	C 	0.8763	0.6301	0.9958	0.024
Mof_C 	C 	0.9015	0.6701	0.974	-0.026
Mof_C 	C 	0.8945	0.678	0.9282	0.128
Mof_C 	C 	0.866	0.64	0.9046	-0.234
Mof_C 	C 	0.8296	0.6131	0.9315	0.092
Mof_C 	C 	0.8466	0.5983	0.9659	-0.013
Mof_C 	C 	0.8528	0.6441	0.8572	1.039
Mof_C 	C 	0.7385	0.4042	0.1845	1.297
Mof_C 	C 	0.7502	0.6716	0.7907	0.651
Mof_C 	C 	0.6966	0.4468	0.772	-0.031
Mof_C 	C 	0.7154	0.4898	0.7602	0.121
Mof_C 	C 	0.9993	0.7032	0.2057	0.089
Mof_C 	C 	0.0402	0.7249	0.1847	-0.149
Mof_Zn	Zn	0.86399	0.70931	0.69846	1.119
Mof_Zn	Zn	0.85999	0.63804	0.76189	1.358
Mof_Zn	Zn	0.62453	0.27871	0.22335	1.105
Mof_Zn	Zn	0.83709	0.20891	0.79486	1.198
Mof_Zn	Zn	0.81095	0.11451	0.77877	1.088
Mof_O 	O 	0.7686	0.1243	0.8266	-0.644
Mof_O 	O 	0.8164	0.1822	0.8489	-0.708
Mof_O 	O 	0.8187	0.144	0.8613	-0.491
Mof_O 	O 	0.7971	0.1164	0.8425	-0.297
Mof_O 	O 	0.5886	0.2507	0.2708	-0.265
Mof_O 	O 	0.6419	0.2448	0.204	-0.95
Mof_O 	O 	0.6754	0.2912	0.1614	-0.766
Mof_O 	O 	0.704	0.283	0.19	-0.546
Mof_O 	O 	0.877	0.2428	0.7627	-1.192
Mof_O 	O 	0.8924	0.2456	0.8081	-0.352
Mof_O 	O 	0.9128	0.215	0.8207	-0.402
Mof_O 	O 	0.7629	0.068	0.7466	-0.491
Mof_O 	O 	0.8715	0.1055	0.7188	-0.822
Mof_O 	O 	0.8558	0.0967	0.7732	-0.649
Mof_O 	O 	0.8194	0.2427	0.7492	-0.317
Mof_O 	O 	0.8061	0.2348	0.7772	-0.39
Mof_C 	C 	0.7291	0.1152	0.0413	-0.005
Mof_C 	C 	0.7207	0.1464	0.0557	0.014
Mof_C 	C 	0.7038	0.133	0.1016	-0.01
Mof_C 	C 	0.7006	0.1038	0.1295	0.015
Mof_C 	C 	0.708	0.0716	0.1093	-0.003
Mof_C 	C 	0.7244	0.0772	0.0638	0.012
Mof_C 	C 	0.7001	0.1661	0.1231	0.029
Mof_C 	C 	0.7198	0.2097	0.1102	-0.029
Mof_C 	C 	0.7074	0.236	0.1343	0.124
Mof_C 	C 	0.6797	0.2307	0.1711	-0.201
Mof_C 	C 	0.6623	0.1867	0.1787	0.124
Mof_C 	C 	0.6703	0.1554	0.1593	-0.03
Mof_C 	C 	0.7157	0.0378	0.1789	-0.015
Mof_C 	C 	0.6784	0.9607	0.1372	0.098
Mof_C 	C 	0.7019	0.9995	0.113	-0.015
Mof_C 	C 	0.6941	0.0292	0.1362	0.018
Mof_C 	C 	0.7538	0.1237	0.9958	0.024
Mof_C 	C 	0.7686	0.0985	0.974	-0.026
Mof_C 	C 	0.7835	0.1055	0.9282	0.128
Mof_C 	C 	0.774	0.134	0.9046	-0.234
Mof_C 	C 	0.7835	0.1704	0.9315	0.092
Mof_C 	C 	0.7517	0.1534	0.9659	-0.013
Mof_C 	C 	0.7913	0.1472	0.8572	1.039
Mof_C 	C 	0.6657	0.2615	0.1845	1.297
Mof_C 	C 	0.9214	0.2498	0.7907	0.651
Mof_C 	C 	0.7502	0.3034	0.772	-0.031
Mof_C 	C 	0.7744	0.2846	0.7602	0.121
Mof_C 	C 	0.7039	0.0007	0.2057	0.089
Mof_C 	C 	0.6847	0.9598	0.1847	-0.149
Mof_Zn	Zn	0.84532	0.13601	0.69846	1.119
Mof_Zn	Zn	0.77805	0.14001	0.76189	1.358
Mof_Zn	Zn	0.33333	0.66667	0.69103	1.09
Mof_Zn	Zn	0.33333	0.66667	0.80897	1.09
Mof_Zn	Zn	0.66667	0.33333	0.30897	1.09
Mof_Zn	Zn	0.66667	0.33333	0.19103	1.09
Mof_O 	O 	0.16635	0.3327	0.25	-1.531
Mof_C 	C 	0.11195	0.2239	0.25	1.526
Mof_C 	C 	0.3121	0.6242	0.25	-0.009
Mof_C 	C 	0.28725	0.5745	0.25	0.031
Mof_C 	C 	0.2454	0.4908	0.25	-0.207
Mof_C 	C 	0.22175	0.4435	0.25	0.582
Mof_O 	O 	0.6673	0.83365	0.25	-1.531
Mof_C 	C 	0.7761	0.88805	0.25	1.526
Mof_C 	C 	0.3758	0.6879	0.25	-0.009
Mof_C 	C 	0.4255	0.71275	0.25	0.031
Mof_C 	C 	0.5092	0.7546	0.25	-0.207
Mof_C 	C 	0.5565	0.77825	0.25	0.582
Mof_O 	O 	0.16635	0.83365	0.25	-1.531
Mof_C 	C 	0.11195	0.88805	0.25	1.526
Mof_C 	C 	0.3121	0.6879	0.25	-0.009
Mof_C 	C 	0.28725	0.71275	0.25	0.031
Mof_C 	C 	0.2454	0.7546	0.25	-0.207
Mof_C 	C 	0.22175	0.77825	0.25	0.582
Mof_O 	O 	0.83365	0.6673	0.75	-1.531
Mof_C 	C 	0.88805	0.7761	0.75	1.526
Mof_C 	C 	0.6879	0.3758	0.75	-0.009
Mof_C 	C 	0.71275	0.4255	0.75	0.031
Mof_C 	C 	0.7546	0.5092	0.75	-0.207
Mof_C 	C 	0.77825	0.5565	0.75	0.582
Mof_O 	O 	0.3327	0.16635	0.75	-1.531
Mof_C 	C 	0.2239	0.11195	0.75	1.526
Mof_C 	C 	0.6242	0.3121	0.75	-0.009
Mof_C 	C 	0.5745	0.28725	0.75	0.031
Mof_C 	C 	0.4908	0.2454	0.75	-0.207
Mof_C 	C 	0.4435	0.22175	0.75	0.582
Mof_O 	O 	0.83365	0.16635	0.75	-1.531
Mof_C 	C 	0.88805	0.11195	0.75	1.526
Mof_C 	C 	0.6879	0.3121	0.75	-0.009
Mof_C 	C 	0.71275	0.28725	0.75	0.031
Mof_C 	C 	0.7546	0.2454	0.75	-0.207
Mof_C 	C 	0.77825	0.22175	0.75	0.582
Mof_O 	O 	0.33333	0.66667	0.75	-1.606
Mof_O 	O 	0.66667	0.33333	0.25	-1.606
Mof_C 	C 	0.2888	0.6444	0.25	0.015
Mof_C 	C 	0.3556	0.6444	0.25	0.015
Mof_C 	C 	0.3556	0.7112	0.25	0.015
Mof_C 	C 	0.7112	0.3556	0.75	0.015
Mof_C 	C 	0.6444	0.3556	0.75	0.015
Mof_C 	C 	0.6444	0.2888	0.75	0.015
_end
