data_functionalizedCrystal
_audit_creation_method	'EQeq! by Chris Wilmer'
_symmetry_space_group_name_H-M	'P1'
_symmetry_Int_Tables_number	1
_symmetry_cell_setting	triclinic
loop_
_symmetry_equiv_pos_as_xyz
  x,y,z
_cell_length_a	5.626
_cell_length_b	17.655
_cell_length_c	21.733
_cell_angle_alpha	90
_cell_angle_beta	90
_cell_angle_gamma	90
loop_
_atom_site_label
_atom_site_type_symbol
_atom_site_fract_x
_atom_site_fract_y
_atom_site_fract_z
_atom_site_charge
Mof_Zn	Zn	0.15468	0.32758	0.20405	1.207
Mof_Zn	Zn	0.84532	0.82758	0.29595	1.207
Mof_Zn	Zn	0.15468	0.67242	0.79595	1.207
Mof_Zn	Zn	0.84532	0.17242	0.70405	1.207
Mof_H 	H 	0.753	0.1725	0.2013	0.164
Mof_H 	H 	0.23	0.5379	0.316	0.01
Mof_H 	H 	0.8994	0.1959	0.3953	0.094
Mof_H 	H 	0.1434	0.7622	0.912	-0.014
Mof_H 	H 	0.23	0.4621	0.684	0.011
Mof_H 	H 	0.1434	0.2378	0.088	-0.014
Mof_H 	H 	0.753	0.8275	0.7987	0.165
Mof_H 	H 	0.7646	0.4423	0.9376	0.18
Mof_H 	H 	0.4947	0.037	0.1945	0.025
Mof_H 	H 	0.1297	0.2199	0.3105	-0.014
Mof_H 	H 	0.8807	0.5613	0.1239	0.189
Mof_H 	H 	0.3813	0.6946	0.5594	0.053
Mof_H 	H 	0.77	0.0379	0.184	0.011
Mof_H 	H 	0.7303	0.6078	0.7346	0.006
Mof_H 	H 	0.791	0.0962	0.2882	0.077
Mof_H 	H 	0.7184	0.397	0.1475	0.002
Mof_H 	H 	0.3476	0.6438	0.3616	0.159
Mof_H 	H 	0.8566	0.7378	0.412	-0.014
Mof_H 	H 	0.7303	0.3922	0.2654	0.006
Mof_H 	H 	0.1193	0.9387	0.6239	0.188
Mof_H 	H 	0.3313	0.9237	0.7106	0.156
Mof_H 	H 	0.8703	0.2801	0.8105	-0.014
Mof_H 	H 	0.2816	0.897	0.3525	0.001
Mof_H 	H 	0.209	0.5962	0.2118	0.077
Mof_H 	H 	0.4947	0.963	0.8055	0.025
Mof_H 	H 	0.9027	0.2162	0.0048	0.09
Mof_H 	H 	0.1297	0.7801	0.6895	-0.014
Mof_H 	H 	0.6687	0.4237	0.7894	0.156
Mof_H 	H 	0.2816	0.103	0.6475	0.001
Mof_H 	H 	0.3813	0.3054	0.4406	0.053
Mof_H 	H 	0.7184	0.603	0.8525	0.002
Mof_H 	H 	0.5053	0.463	0.6945	0.026
Mof_H 	H 	0.8703	0.7199	0.1895	-0.014
Mof_H 	H 	0.2354	0.0577	0.4376	0.18
Mof_H 	H 	0.2697	0.8922	0.2346	0.006
Mof_H 	H 	0.5159	0.1292	0.8483	0.082
Mof_H 	H 	0.0973	0.2838	0.5048	0.09
Mof_H 	H 	0.6687	0.5763	0.2106	0.156
Mof_H 	H 	0.4841	0.3708	0.3483	0.082
Mof_H 	H 	0.9027	0.7838	0.9952	0.09
Mof_H 	H 	0.7646	0.5577	0.0624	0.18
Mof_H 	H 	0.6258	0.1772	0.4682	0.077
Mof_H 	H 	0.8994	0.8041	0.6047	0.094
Mof_H 	H 	0.1006	0.3041	0.8953	0.094
Mof_H 	H 	0.6187	0.8054	0.0594	0.053
Mof_H 	H 	0.247	0.3275	0.7013	0.165
Mof_H 	H 	0.6258	0.8228	0.5318	0.077
Mof_H 	H 	0.2697	0.1078	0.7654	0.006
Mof_H 	H 	0.791	0.9038	0.7118	0.077
Mof_H 	H 	0.209	0.4038	0.7882	0.077
Mof_H 	H 	0.6187	0.1946	0.9406	0.053
Mof_H 	H 	0.8566	0.2622	0.588	-0.014
Mof_H 	H 	0.247	0.6725	0.2987	0.165
Mof_H 	H 	0.5159	0.8708	0.1517	0.082
Mof_H 	H 	0.1193	0.0613	0.3761	0.188
Mof_H 	H 	0.6524	0.8562	0.8616	0.159
Mof_H 	H 	0.0973	0.7162	0.4952	0.09
Mof_H 	H 	0.522	0.1165	0.5635	0.096
Mof_H 	H 	0.6524	0.1438	0.1384	0.159
Mof_H 	H 	0.522	0.8835	0.4365	0.096
Mof_H 	H 	0.478	0.6165	0.9365	0.096
Mof_H 	H 	0.2354	0.9423	0.5624	0.18
Mof_H 	H 	0.478	0.3835	0.0635	0.096
Mof_H 	H 	0.3476	0.3562	0.6384	0.159
Mof_H 	H 	0.4841	0.6292	0.6517	0.082
Mof_H 	H 	0.1006	0.6959	0.1047	0.094
Mof_H 	H 	0.77	0.9621	0.816	0.011
Mof_H 	H 	0.8807	0.4387	0.8761	0.189
Mof_H 	H 	0.5053	0.537	0.3055	0.026
Mof_H 	H 	0.3742	0.3228	0.9682	0.076
Mof_H 	H 	0.3313	0.0763	0.2894	0.156
Mof_H 	H 	0.3742	0.6772	0.0318	0.076
Mof_C 	C 	0.9999	0.249	0.8186	0.087
Mof_C 	C 	0.5001	0.7694	0.0653	-0.074
Mof_C 	C 	0.2009	0.48005	0.21308	0.32
Mof_C 	C 	0.3594	0.56316	0.2948	0.076
Mof_C 	C 	0.3847	0.1603	0.8419	-0.166
Mof_C 	C 	0.6406	0.93684	0.7948	0.076
Mof_C 	C 	0.3192	0.44386	0.77543	-0.093
Mof_C 	C 	0.0001	0.749	0.6814	0.086
Mof_C 	C 	0.4928	0.2867	0.97361	-0.106
Mof_C 	C 	0.5382	0.5591	0.12914	0.33
Mof_C 	C 	0.2436	0.8605	0.3818	0.096
Mof_C 	C 	0.3376	0.2187	0.88196	0.111
Mof_C 	C 	0.5072	0.2133	0.47361	-0.107
Mof_C 	C 	0.3376	0.7813	0.11804	0.111
Mof_C 	C 	0.9999	0.751	0.1814	0.087
Mof_C 	C 	0.2009	0.51995	0.78692	0.32
Mof_C 	C 	0.6095	0.6479	0.93181	-0.188
Mof_C 	C 	0.6808	0.94386	0.72457	-0.093
Mof_C 	C 	0.2356	0.1477	0.7918	0.081
Mof_C 	C 	0.3934	0.1851	0.1949	0.446
Mof_C 	C 	0.6564	0.2973	0.02507	0.127
Mof_C 	C 	0.4999	0.7306	0.5653	-0.074
Mof_C 	C 	0.5382	0.4409	0.87086	0.33
Mof_C 	C 	0.7564	0.3605	0.1182	0.095
Mof_C 	C 	0.6251	0.8562	0.8175	-0.411
Mof_C 	C 	0.8612	0.764	0.63061	-0.166
Mof_C 	C 	0.5001	0.2306	0.9347	-0.074
Mof_C 	C 	0.6808	0.05614	0.27543	-0.093
Mof_C 	C 	0.6066	0.6851	0.3051	0.446
Mof_C 	C 	0.3749	0.3562	0.6825	-0.411
Mof_C 	C 	0.3594	0.43684	0.7052	0.076
Mof_C 	C 	0.1371	0.7535	0.46677	-0.173
Mof_C 	C 	0.3749	0.6438	0.3175	-0.411
Mof_C 	C 	0.7644	0.3523	0.2918	0.08
Mof_C 	C 	0.9948	0.2337	0.58353	0.082
Mof_C 	C 	0.2436	0.1395	0.6182	0.096
Mof_C 	C 	0.3436	0.2027	0.52507	0.128
Mof_C 	C 	0.3934	0.8149	0.8051	0.446
Mof_C 	C 	0.0052	0.7337	0.91647	0.081
Mof_C 	C 	0.6624	0.2813	0.38196	0.11
Mof_C 	C 	0.6153	0.3397	0.3419	-0.165
Mof_C 	C 	0.4928	0.7133	0.02639	-0.106
Mof_C 	C 	0.1388	0.264	0.86939	-0.167
Mof_C 	C 	0.6251	0.1438	0.1825	-0.411
Mof_C 	C 	0.7991	0.01995	0.71308	0.321
Mof_C 	C 	0.3192	0.55614	0.22457	-0.093
Mof_C 	C 	0.6564	0.7027	0.97493	0.127
Mof_C 	C 	0.6406	0.06316	0.2052	0.076
Mof_C 	C 	0.1388	0.736	0.13061	-0.167
Mof_C 	C 	0.3905	0.1479	0.56819	-0.189
Mof_C 	C 	0.9948	0.7663	0.41647	0.082
Mof_C 	C 	0.3847	0.8397	0.1581	-0.166
Mof_C 	C 	0.5072	0.7867	0.52639	-0.107
Mof_C 	C 	0.7644	0.6477	0.7082	0.08
Mof_C 	C 	0.2356	0.8523	0.2082	0.081
Mof_C 	C 	0.8629	0.7465	0.96677	-0.172
Mof_C 	C 	0.7564	0.6395	0.8818	0.095
Mof_C 	C 	0.8612	0.236	0.36939	-0.166
Mof_C 	C 	0.4999	0.2694	0.4347	-0.074
Mof_C 	C 	0.3905	0.8521	0.43181	-0.189
Mof_C 	C 	0.4618	0.0591	0.37086	0.329
Mof_C 	C 	0.6624	0.7187	0.61804	0.11
Mof_C 	C 	0.0001	0.251	0.3186	0.086
Mof_C 	C 	0.7991	0.98005	0.28692	0.321
Mof_C 	C 	0.6153	0.6603	0.6581	-0.165
Mof_C 	C 	0.4618	0.9409	0.62914	0.329
Mof_C 	C 	0.6066	0.3149	0.6949	0.446
Mof_C 	C 	0.8629	0.2535	0.03323	-0.172
Mof_C 	C 	0.6095	0.3521	0.06819	-0.188
Mof_C 	C 	0.3436	0.7973	0.47493	0.128
Mof_C 	C 	0.1371	0.2465	0.53323	-0.173
Mof_C 	C 	0.0052	0.2663	0.08353	0.081
Mof_N 	N 	0.246	0.9406	0.60184	-0.368
Mof_N 	N 	0.0454	0.19084	0.78033	-0.272
Mof_N 	N 	0.4609	0.06606	0.3087	-0.222
Mof_N 	N 	0.754	0.4406	0.89816	-0.368
Mof_N 	N 	0.5391	0.56606	0.1913	-0.222
Mof_N 	N 	0.0474	0.81837	0.37334	-0.271
Mof_N 	N 	0.9526	0.31837	0.12666	-0.27
Mof_N 	N 	0.5391	0.43394	0.8087	-0.222
Mof_N 	N 	0.9546	0.30916	0.28033	-0.271
Mof_N 	N 	0.0454	0.80916	0.21967	-0.272
Mof_N 	N 	0.246	0.0594	0.39816	-0.368
Mof_N 	N 	0.0474	0.18163	0.62666	-0.271
Mof_N 	N 	0.9526	0.68163	0.87334	-0.27
Mof_N 	N 	0.754	0.5594	0.10184	-0.368
Mof_N 	N 	0.4609	0.93394	0.6913	-0.222
Mof_N 	N 	0.9546	0.69084	0.71967	-0.271
Mof_O 	O 	0.3481	0.44359	0.89972	-0.277
Mof_O 	O 	0.6519	0.05641	0.39972	-0.277
Mof_O 	O 	0.9825	0.52306	0.78949	-0.32
Mof_O 	O 	0.4164	0.25646	0.20149	-0.5
Mof_O 	O 	0.0175	0.02306	0.71051	-0.32
Mof_O 	O 	0.3374	0.42215	0.20937	-0.44
Mof_O 	O 	0.0175	0.97694	0.28949	-0.32
Mof_O 	O 	0.2037	0.8482	0.80459	-0.347
Mof_O 	O 	0.5836	0.24354	0.70149	-0.5
Mof_O 	O 	0.3374	0.57785	0.79063	-0.44
Mof_O 	O 	0.6519	0.94359	0.60028	-0.277
Mof_O 	O 	0.7963	0.3482	0.69541	-0.347
Mof_O 	O 	0.2037	0.1518	0.19541	-0.347
Mof_O 	O 	0.6626	0.07785	0.70937	-0.44
Mof_O 	O 	0.9825	0.47694	0.21051	-0.32
Mof_O 	O 	0.5836	0.75646	0.29851	-0.5
Mof_O 	O 	0.3481	0.55641	0.10028	-0.277
Mof_O 	O 	0.4164	0.74354	0.79851	-0.5
Mof_O 	O 	0.7963	0.6518	0.30459	-0.347
Mof_O 	O 	0.6626	0.92215	0.29063	-0.44
_end
