data_functionalizedCrystal
_audit_creation_method	'EQeq! by Chris Wilmer'
_symmetry_space_group_name_H-M	'P1'
_symmetry_Int_Tables_number	1
_symmetry_cell_setting	triclinic
loop_
_symmetry_equiv_pos_as_xyz
  x,y,z
_cell_length_a	18.76
_cell_length_b	18.76
_cell_length_c	17.999
_cell_angle_alpha	90
_cell_angle_beta	90
_cell_angle_gamma	90
loop_
_atom_site_label
_atom_site_type_symbol
_atom_site_fract_x
_atom_site_fract_y
_atom_site_fract_z
_atom_site_charge
Mof_C 	C 	0.9034	0.8003	0.7628	0.359
Mof_C 	C 	0.8804	0.7741	0.688	-0.102
Mof_C 	C 	0.814	0.7648	0.6612	-0.007
Mof_H 	H 	0.7728	0.7766	0.6872	0.033
Mof_C 	C 	0.0358	0.7757	0.9654	0.042
Mof_H 	H 	0.0278	0.7326	0.9412	-0
Mof_C 	C 	0.0845	0.7879	0.0195	-0.041
Mof_H 	H 	0.1158	0.7545	0.0393	0.03
Mof_C 	C 	0.9779	0.9701	0.7703	0.119
Mof_H 	H 	0.9598	0.9473	0.7285	-0.004
Mof_N 	N 	0.0293	0.8864	0.999	-0.186
Mof_N 	N 	0.001	0.838	0.953	-0.248
Mof_N 	N 	0.0797	0.8556	0.0392	-0.233
Mof_N 	N 	0.9664	0.9516	0.8398	-0.204
Mof_O 	O 	0.9622	0.7908	0.7846	-0.375
Mof_O 	O 	0.857	0.833	0.8005	-0.47
Mof_Zn	Zn	0.91593	0.8615	0.88833	1.183
Mof_C 	C 	0.4034	0.3003	0.2628	0.358
Mof_C 	C 	0.3804	0.2741	0.188	-0.1
Mof_C 	C 	0.314	0.2648	0.1612	-0.018
Mof_H 	H 	0.2728	0.2766	0.1872	0.031
Mof_C 	C 	0.5358	0.2757	0.4654	0.005
Mof_H 	H 	0.5278	0.2326	0.4412	0.013
Mof_C 	C 	0.5845	0.2879	0.5195	-0
Mof_H 	H 	0.6158	0.2545	0.5393	0.02
Mof_C 	C 	0.4779	0.4701	0.2703	0.015
Mof_H 	H 	0.4598	0.4473	0.2285	0.019
Mof_N 	N 	0.5293	0.3864	0.499	-0.202
Mof_N 	N 	0.501	0.338	0.453	-0.238
Mof_N 	N 	0.5797	0.3556	0.5392	-0.234
Mof_N 	N 	0.4664	0.4516	0.3398	-0.214
Mof_O 	O 	0.4622	0.2908	0.2846	-0.391
Mof_O 	O 	0.357	0.333	0.3005	-0.476
Mof_Zn	Zn	0.41593	0.3615	0.38833	1.176
Mof_C 	C 	0.0966	0.1997	0.7628	0.361
Mof_C 	C 	0.1196	0.2259	0.688	-0.103
Mof_C 	C 	0.186	0.2352	0.6612	-0.01
Mof_H 	H 	0.2272	0.2234	0.6872	0.032
Mof_C 	C 	0.9642	0.2243	0.9654	0.041
Mof_H 	H 	0.9722	0.2674	0.9412	0.013
Mof_C 	C 	0.9155	0.2121	0.0195	-0.033
Mof_H 	H 	0.8842	0.2455	0.0393	0.028
Mof_C 	C 	0.0221	0.0299	0.7703	-0.088
Mof_H 	H 	0.0402	0.0527	0.7285	0.043
Mof_N 	N 	0.9707	0.1136	0.999	-0.185
Mof_N 	N 	0.999	0.162	0.953	-0.23
Mof_N 	N 	0.9203	0.1444	0.0392	-0.237
Mof_N 	N 	0.0336	0.0484	0.8398	-0.203
Mof_O 	O 	0.0378	0.2092	0.7846	-0.399
Mof_O 	O 	0.143	0.167	0.8005	-0.477
Mof_Zn	Zn	0.08407	0.1385	0.88833	1.173
Mof_C 	C 	0.5966	0.6997	0.2628	0.36
Mof_C 	C 	0.6196	0.7259	0.188	-0.099
Mof_C 	C 	0.686	0.7352	0.1612	-0.014
Mof_H 	H 	0.7272	0.7234	0.1872	0.037
Mof_C 	C 	0.4642	0.7243	0.4654	0.005
Mof_H 	H 	0.4722	0.7674	0.4412	0.017
Mof_C 	C 	0.4155	0.7121	0.5195	0.001
Mof_H 	H 	0.3842	0.7455	0.5393	0.02
Mof_C 	C 	0.5221	0.5299	0.2703	0.015
Mof_H 	H 	0.5402	0.5527	0.2285	0.019
Mof_N 	N 	0.4707	0.6136	0.499	-0.202
Mof_N 	N 	0.499	0.662	0.453	-0.237
Mof_N 	N 	0.4203	0.6444	0.5392	-0.234
Mof_N 	N 	0.5336	0.5484	0.3398	-0.214
Mof_O 	O 	0.5378	0.7092	0.2846	-0.387
Mof_O 	O 	0.643	0.667	0.3005	-0.473
Mof_Zn	Zn	0.58407	0.6385	0.38833	1.177
Mof_C 	C 	0.8003	0.0966	0.2372	0.361
Mof_C 	C 	0.7741	0.1196	0.312	-0.103
Mof_C 	C 	0.7648	0.186	0.3388	-0.008
Mof_H 	H 	0.7766	0.2272	0.3128	0.032
Mof_C 	C 	0.7757	0.9642	0.0346	-0.023
Mof_H 	H 	0.7326	0.9722	0.0588	0.029
Mof_C 	C 	0.7879	0.9155	0.9805	0.037
Mof_H 	H 	0.7545	0.8842	0.9607	0.014
Mof_C 	C 	0.9701	0.0221	0.2297	0.016
Mof_H 	H 	0.9473	0.0402	0.2715	0.02
Mof_N 	N 	0.8864	0.9707	0.001	-0.195
Mof_N 	N 	0.838	0.999	0.047	-0.222
Mof_N 	N 	0.8556	0.9203	0.9608	-0.227
Mof_N 	N 	0.9516	0.0336	0.1602	-0.206
Mof_O 	O 	0.7908	0.0378	0.2154	-0.399
Mof_O 	O 	0.833	0.143	0.1995	-0.477
Mof_Zn	Zn	0.8615	0.08407	0.11167	1.172
Mof_C 	C 	0.3003	0.5966	0.7372	0.361
Mof_C 	C 	0.2741	0.6196	0.812	-0.105
Mof_C 	C 	0.2648	0.686	0.8388	0
Mof_H 	H 	0.2766	0.7272	0.8128	0.031
Mof_C 	C 	0.2757	0.4642	0.5346	0.005
Mof_H 	H 	0.2326	0.4722	0.5588	0.013
Mof_C 	C 	0.2879	0.4155	0.4805	-0
Mof_H 	H 	0.2545	0.3842	0.4607	0.019
Mof_C 	C 	0.4701	0.5221	0.7297	0.015
Mof_H 	H 	0.4473	0.5402	0.7715	0.021
Mof_N 	N 	0.3864	0.4707	0.501	-0.202
Mof_N 	N 	0.338	0.499	0.547	-0.238
Mof_N 	N 	0.3556	0.4203	0.4608	-0.234
Mof_N 	N 	0.4516	0.5336	0.6602	-0.214
Mof_O 	O 	0.2908	0.5378	0.7154	-0.389
Mof_O 	O 	0.333	0.643	0.6995	-0.475
Mof_Zn	Zn	0.3615	0.58407	0.61167	1.176
Mof_C 	C 	0.1997	0.9034	0.2372	0.359
Mof_C 	C 	0.2259	0.8804	0.312	-0.103
Mof_C 	C 	0.2352	0.814	0.3388	-0.008
Mof_H 	H 	0.2234	0.7728	0.3128	0.031
Mof_C 	C 	0.2243	0.0358	0.0346	-0.04
Mof_H 	H 	0.2674	0.0278	0.0588	0.017
Mof_C 	C 	0.2121	0.0845	0.9805	0.04
Mof_H 	H 	0.2455	0.1158	0.9607	0.009
Mof_C 	C 	0.0299	0.9779	0.2297	0.016
Mof_H 	H 	0.0527	0.9598	0.2715	0.02
Mof_N 	N 	0.1136	0.0293	0.001	-0.222
Mof_N 	N 	0.162	0.001	0.047	-0.245
Mof_N 	N 	0.1444	0.0797	0.9608	-0.234
Mof_N 	N 	0.0484	0.9664	0.1602	-0.202
Mof_O 	O 	0.2092	0.9622	0.2154	-0.379
Mof_O 	O 	0.167	0.857	0.1995	-0.474
Mof_Zn	Zn	0.1385	0.91593	0.11167	1.18
Mof_C 	C 	0.6997	0.4034	0.7372	0.363
Mof_C 	C 	0.7259	0.3804	0.812	-0.105
Mof_C 	C 	0.7352	0.314	0.8388	0.001
Mof_H 	H 	0.7234	0.2728	0.8128	0.03
Mof_C 	C 	0.7243	0.5358	0.5346	0.005
Mof_H 	H 	0.7674	0.5278	0.5588	0.017
Mof_C 	C 	0.7121	0.5845	0.4805	0.001
Mof_H 	H 	0.7455	0.6158	0.4607	0.021
Mof_C 	C 	0.5299	0.4779	0.7297	0.016
Mof_H 	H 	0.5527	0.4598	0.7715	0.021
Mof_N 	N 	0.6136	0.5293	0.501	-0.202
Mof_N 	N 	0.662	0.501	0.547	-0.237
Mof_N 	N 	0.6444	0.5797	0.4608	-0.234
Mof_N 	N 	0.5484	0.4664	0.6602	-0.214
Mof_O 	O 	0.7092	0.4622	0.7154	-0.386
Mof_O 	O 	0.667	0.357	0.6995	-0.475
Mof_Zn	Zn	0.6385	0.41593	0.61167	1.177
Mof_C 	C 	0.5966	0.8003	0.9872	0.381
Mof_C 	C 	0.6196	0.7741	0.062	-0.122
Mof_C 	C 	0.686	0.7648	0.0888	0.005
Mof_H 	H 	0.7272	0.7766	0.0628	0.026
Mof_C 	C 	0.4642	0.7757	0.7846	0.006
Mof_H 	H 	0.4722	0.7326	0.8088	0.017
Mof_C 	C 	0.4155	0.7879	0.7305	0.002
Mof_H 	H 	0.3842	0.7545	0.7107	0.02
Mof_C 	C 	0.5221	0.9701	0.9797	0.086
Mof_H 	H 	0.5402	0.9473	0.0215	-0.011
Mof_N 	N 	0.4707	0.8864	0.751	-0.195
Mof_N 	N 	0.499	0.838	0.797	-0.235
Mof_N 	N 	0.4203	0.8556	0.7108	-0.23
Mof_N 	N 	0.5336	0.9516	0.9102	-0.212
Mof_O 	O 	0.5378	0.7908	0.9654	-0.386
Mof_O 	O 	0.643	0.833	0.9495	-0.473
Mof_Zn	Zn	0.58407	0.8615	0.86167	1.178
Mof_C 	C 	0.0966	0.3003	0.4872	0.361
Mof_C 	C 	0.1196	0.2741	0.562	-0.104
Mof_C 	C 	0.186	0.2648	0.5888	-0.01
Mof_H 	H 	0.2272	0.2766	0.5628	0.031
Mof_C 	C 	0.9642	0.2757	0.2846	0.007
Mof_H 	H 	0.9722	0.2326	0.3088	0.02
Mof_C 	C 	0.9155	0.2879	0.2305	0.002
Mof_H 	H 	0.8842	0.2545	0.2107	0.02
Mof_C 	C 	0.0221	0.4701	0.4797	-0.039
Mof_H 	H 	0.0402	0.4473	0.5215	0.033
Mof_N 	N 	0.9707	0.3864	0.251	-0.194
Mof_N 	N 	0.999	0.338	0.297	-0.227
Mof_N 	N 	0.9203	0.3556	0.2108	-0.233
Mof_N 	N 	0.0336	0.4516	0.4102	-0.209
Mof_O 	O 	0.0378	0.2908	0.4654	-0.401
Mof_O 	O 	0.143	0.333	0.4495	-0.479
Mof_Zn	Zn	0.08407	0.3615	0.36167	1.172
Mof_C 	C 	0.4034	0.1997	0.9872	0.384
Mof_C 	C 	0.3804	0.2259	0.062	-0.127
Mof_C 	C 	0.314	0.2352	0.0888	0.003
Mof_H 	H 	0.2728	0.2234	0.0628	0.019
Mof_C 	C 	0.5358	0.2243	0.7846	0.004
Mof_H 	H 	0.5278	0.2674	0.8088	0.016
Mof_C 	C 	0.5845	0.2121	0.7305	0
Mof_H 	H 	0.6158	0.2455	0.7107	0.02
Mof_C 	C 	0.4779	0.0299	0.9797	-0.007
Mof_H 	H 	0.4598	0.0527	0.0215	0.007
Mof_N 	N 	0.5293	0.1136	0.751	-0.205
Mof_N 	N 	0.501	0.162	0.797	-0.238
Mof_N 	N 	0.5797	0.1444	0.7108	-0.236
Mof_N 	N 	0.4664	0.0484	0.9102	-0.212
Mof_O 	O 	0.4622	0.2092	0.9654	-0.389
Mof_O 	O 	0.357	0.167	0.9495	-0.476
Mof_Zn	Zn	0.41593	0.1385	0.86167	1.177
Mof_C 	C 	0.9034	0.6997	0.4872	0.36
Mof_C 	C 	0.8804	0.7259	0.562	-0.101
Mof_C 	C 	0.814	0.7352	0.5888	-0.006
Mof_H 	H 	0.7728	0.7234	0.5628	0.034
Mof_C 	C 	0.0358	0.7243	0.2846	0.002
Mof_H 	H 	0.0278	0.7674	0.3088	0.01
Mof_C 	C 	0.0845	0.7121	0.2305	-0.002
Mof_H 	H 	0.1158	0.7455	0.2107	0.019
Mof_C 	C 	0.9779	0.5299	0.4797	0.07
Mof_H 	H 	0.9598	0.5527	0.5215	0.007
Mof_N 	N 	0.0293	0.6136	0.251	-0.207
Mof_N 	N 	0.001	0.662	0.297	-0.247
Mof_N 	N 	0.0797	0.6444	0.2108	-0.235
Mof_N 	N 	0.9664	0.5484	0.4102	-0.208
Mof_O 	O 	0.9622	0.7092	0.4654	-0.375
Mof_O 	O 	0.857	0.667	0.4495	-0.471
Mof_Zn	Zn	0.91593	0.6385	0.36167	1.182
Mof_C 	C 	0.6997	0.0966	0.5128	0.362
Mof_C 	C 	0.7259	0.1196	0.438	-0.102
Mof_C 	C 	0.7352	0.186	0.4112	-0.008
Mof_H 	H 	0.7234	0.2272	0.4372	0.033
Mof_C 	C 	0.7243	0.9642	0.7154	0.008
Mof_H 	H 	0.7674	0.9722	0.6912	0.024
Mof_C 	C 	0.7121	0.9155	0.7695	0.004
Mof_H 	H 	0.7455	0.8842	0.7893	0.021
Mof_C 	C 	0.5299	0.0221	0.5203	-0.039
Mof_H 	H 	0.5527	0.0402	0.4785	0.032
Mof_N 	N 	0.6136	0.9707	0.749	-0.193
Mof_N 	N 	0.662	0.999	0.703	-0.226
Mof_N 	N 	0.6444	0.9203	0.7892	-0.231
Mof_N 	N 	0.5484	0.0336	0.5898	-0.209
Mof_O 	O 	0.7092	0.0378	0.5346	-0.398
Mof_O 	O 	0.667	0.143	0.5505	-0.476
Mof_Zn	Zn	0.6385	0.08407	0.63833	1.173
Mof_C 	C 	0.1997	0.5966	0.0128	0.337
Mof_C 	C 	0.2259	0.6196	0.938	-0.079
Mof_C 	C 	0.2352	0.686	0.9112	-0.021
Mof_H 	H 	0.2234	0.7272	0.9372	0.044
Mof_C 	C 	0.2243	0.4642	0.2154	0.003
Mof_H 	H 	0.2674	0.4722	0.1912	0.013
Mof_C 	C 	0.2121	0.4155	0.2695	-0.001
Mof_H 	H 	0.2455	0.3842	0.2893	0.019
Mof_C 	C 	0.0299	0.5221	0.0203	-0.072
Mof_H 	H 	0.0527	0.5402	0.9785	0.059
Mof_N 	N 	0.1136	0.4707	0.249	-0.206
Mof_N 	N 	0.162	0.499	0.203	-0.239
Mof_N 	N 	0.1444	0.4203	0.2892	-0.237
Mof_N 	N 	0.0484	0.5336	0.0898	-0.203
Mof_O 	O 	0.2092	0.5378	0.0346	-0.39
Mof_O 	O 	0.167	0.643	0.0505	-0.476
Mof_Zn	Zn	0.1385	0.58407	0.13833	1.175
Mof_C 	C 	0.3003	0.9034	0.5128	0.359
Mof_C 	C 	0.2741	0.8804	0.438	-0.102
Mof_C 	C 	0.2648	0.814	0.4112	-0.008
Mof_H 	H 	0.2766	0.7728	0.4372	0.031
Mof_C 	C 	0.2757	0.0358	0.7154	0.002
Mof_H 	H 	0.2326	0.0278	0.6912	0.006
Mof_C 	C 	0.2879	0.0845	0.7695	-0.002
Mof_H 	H 	0.2545	0.1158	0.7893	0.02
Mof_C 	C 	0.4701	0.9779	0.5203	0.07
Mof_H 	H 	0.4473	0.9598	0.4785	0.007
Mof_N 	N 	0.3864	0.0293	0.749	-0.206
Mof_N 	N 	0.338	0.001	0.703	-0.248
Mof_N 	N 	0.3556	0.0797	0.7892	-0.234
Mof_N 	N 	0.4516	0.9664	0.5898	-0.208
Mof_O 	O 	0.2908	0.9622	0.5346	-0.378
Mof_O 	O 	0.333	0.857	0.5505	-0.473
Mof_Zn	Zn	0.3615	0.91593	0.63833	1.181
Mof_C 	C 	0.8003	0.4034	0.0128	0.339
Mof_C 	C 	0.7741	0.3804	0.938	-0.08
Mof_C 	C 	0.7648	0.314	0.9112	-0.019
Mof_H 	H 	0.7766	0.2728	0.9372	0.04
Mof_C 	C 	0.7757	0.5358	0.2154	0.006
Mof_H 	H 	0.7326	0.5278	0.1912	0.014
Mof_C 	C 	0.7879	0.5845	0.2695	0.001
Mof_H 	H 	0.7545	0.6158	0.2893	0.021
Mof_C 	C 	0.9701	0.4779	0.0203	0.054
Mof_H 	H 	0.9473	0.4598	0.9785	0.025
Mof_N 	N 	0.8864	0.5293	0.249	-0.195
Mof_N 	N 	0.838	0.501	0.203	-0.236
Mof_N 	N 	0.8556	0.5797	0.2892	-0.23
Mof_N 	N 	0.9516	0.4664	0.0898	-0.207
Mof_O 	O 	0.7908	0.4622	0.0346	-0.387
Mof_O 	O 	0.833	0.357	0.0505	-0.475
Mof_Zn	Zn	0.8615	0.41593	0.13833	1.177
Mof_N 	N 	3.17102e-33	0	0.8815	-0.234
Mof_N 	N 	0.5	0.5	0.3815	-0.208
Mof_N 	N 	-5.69988e-34	-9.96268e-34	0.1185	-0.243
Mof_N 	N 	0.5	0.5	0.6185	-0.208
Mof_N 	N 	0.5	0	0.8685	-0.223
Mof_N 	N 	1.32561e-33	0.5	0.3685	-0.224
Mof_N 	N 	0.5	7.97015e-33	0.6315	-0.224
Mof_N 	N 	2.46558e-33	0.5	0.1315	-0.225
Mof_S 	S 	0.94274	0.75	0.625	0.087
Mof_S 	S 	0.05726	0.25	0.625	0.053
Mof_S 	S 	0.75	0.05726	0.375	0.06
Mof_S 	S 	0.25	0.55726	0.875	0.07
Mof_S 	S 	0.25	0.94274	0.375	0.079
Mof_S 	S 	0.75	0.44274	0.875	0.077
Mof_S 	S 	0.55726	0.75	0.125	0.07
Mof_S 	S 	0.44274	0.25	0.125	0.062
Mof_Zn	Zn	-0	0	-0	1.123
Mof_Zn	Zn	0.5	0.5	0.5	1.144
Mof_Zn	Zn	0.5	-7.97015e-33	0.75	1.137
Mof_Zn	Zn	-1.09321e-33	0.5	0.25	1.136
_end
