data_functionalizedCrystal
_audit_creation_method	'EQeq! by Chris Wilmer'
_symmetry_space_group_name_H-M	'P1'
_symmetry_Int_Tables_number	1
_symmetry_cell_setting	triclinic
loop_
_symmetry_equiv_pos_as_xyz
  x,y,z
_cell_length_a	18.2056
_cell_length_b	18.2056
_cell_length_c	40.6655
_cell_angle_alpha	90
_cell_angle_beta	90
_cell_angle_gamma	120
loop_
_atom_site_label
_atom_site_type_symbol
_atom_site_fract_x
_atom_site_fract_y
_atom_site_fract_z
_atom_site_charge
Mof_Cu	Cu	0.47485	0.9497	0.5254	0.907
Mof_Cu	Cu	0.47485	0.52514	0.5254	0.907
Mof_Cu	Cu	0.05029	0.52514	0.5254	0.907
Mof_Cu	Cu	0.52515	0.0503	0.0254	0.907
Mof_Cu	Cu	0.52515	0.47486	0.0254	0.907
Mof_Cu	Cu	0.94971	0.47486	0.0254	0.907
Mof_Cu	Cu	0.52515	0.0503	0.4746	0.907
Mof_Cu	Cu	0.94971	0.47486	0.4746	0.907
Mof_Cu	Cu	0.52515	0.47486	0.4746	0.907
Mof_Cu	Cu	0.47485	0.9497	0.9746	0.907
Mof_Cu	Cu	0.05029	0.52514	0.9746	0.907
Mof_Cu	Cu	0.47485	0.52514	0.9746	0.907
Mof_Cu	Cu	0.94173	0.05828	0.25	0.939
Mof_Cu	Cu	0.11655	0.05828	0.25	0.941
Mof_Cu	Cu	0.94173	0.88346	0.25	0.941
Mof_Cu	Cu	0.05827	0.94172	0.75	0.939
Mof_Cu	Cu	0.88345	0.94172	0.75	0.941
Mof_Cu	Cu	0.05827	0.11654	0.75	0.941
Mof_H 	H 	0.638	0.936	0.4166	0.032
Mof_H 	H 	0.6967	0.9557	0.3749	0.11
Mof_H 	H 	0.7785	0.9964	0.3283	-0.007
Mof_H 	H 	0.298	0.362	0.4166	0.032
Mof_H 	H 	0.259	0.3033	0.3749	0.11
Mof_H 	H 	0.2179	0.2215	0.3283	-0.008
Mof_H 	H 	0.064	0.702	0.4166	0.032
Mof_H 	H 	0.0443	0.741	0.3749	0.111
Mof_H 	H 	0.0036	0.7821	0.3283	-0.007
Mof_H 	H 	0.362	0.064	0.9166	0.032
Mof_H 	H 	0.3033	0.0443	0.8749	0.11
Mof_H 	H 	0.2215	0.0036	0.8283	-0.007
Mof_H 	H 	0.702	0.638	0.9166	0.032
Mof_H 	H 	0.741	0.6967	0.8749	0.11
Mof_H 	H 	0.7821	0.7785	0.8283	-0.008
Mof_H 	H 	0.936	0.298	0.9166	0.032
Mof_H 	H 	0.9557	0.259	0.8749	0.111
Mof_H 	H 	0.9964	0.2179	0.8283	-0.007
Mof_H 	H 	0.702	0.064	0.5834	0.032
Mof_H 	H 	0.741	0.0443	0.6251	0.111
Mof_H 	H 	0.7821	0.0036	0.6717	-0.007
Mof_H 	H 	0.936	0.638	0.5834	0.032
Mof_H 	H 	0.9557	0.6967	0.6251	0.11
Mof_H 	H 	0.9964	0.7785	0.6717	-0.007
Mof_H 	H 	0.362	0.298	0.5834	0.032
Mof_H 	H 	0.3033	0.259	0.6251	0.11
Mof_H 	H 	0.2215	0.2179	0.6717	-0.008
Mof_H 	H 	0.298	0.936	0.0834	0.032
Mof_H 	H 	0.259	0.9557	0.1251	0.111
Mof_H 	H 	0.2179	0.9964	0.1717	-0.007
Mof_H 	H 	0.064	0.362	0.0834	0.032
Mof_H 	H 	0.0443	0.3033	0.1251	0.11
Mof_H 	H 	0.0036	0.2215	0.1717	-0.007
Mof_H 	H 	0.638	0.702	0.0834	0.032
Mof_H 	H 	0.6967	0.741	0.1251	0.11
Mof_H 	H 	0.7785	0.7821	0.1717	-0.008
Mof_H 	H 	0.362	0.064	0.5834	0.032
Mof_H 	H 	0.3033	0.0443	0.6251	0.11
Mof_H 	H 	0.2215	0.0036	0.6717	-0.007
Mof_H 	H 	0.702	0.638	0.5834	0.032
Mof_H 	H 	0.741	0.6967	0.6251	0.11
Mof_H 	H 	0.7821	0.7785	0.6717	-0.008
Mof_H 	H 	0.936	0.298	0.5834	0.032
Mof_H 	H 	0.9557	0.259	0.6251	0.111
Mof_H 	H 	0.9964	0.2179	0.6717	-0.007
Mof_H 	H 	0.638	0.936	0.0834	0.032
Mof_H 	H 	0.6967	0.9557	0.1251	0.11
Mof_H 	H 	0.7785	0.9964	0.1717	-0.007
Mof_H 	H 	0.298	0.362	0.0834	0.032
Mof_H 	H 	0.259	0.3033	0.1251	0.11
Mof_H 	H 	0.2179	0.2215	0.1717	-0.008
Mof_H 	H 	0.064	0.702	0.0834	0.032
Mof_H 	H 	0.0443	0.741	0.1251	0.111
Mof_H 	H 	0.0036	0.7821	0.1717	-0.007
Mof_H 	H 	0.298	0.936	0.4166	0.032
Mof_H 	H 	0.259	0.9557	0.3749	0.111
Mof_H 	H 	0.2179	0.9964	0.3283	-0.007
Mof_H 	H 	0.064	0.362	0.4166	0.032
Mof_H 	H 	0.0443	0.3033	0.3749	0.11
Mof_H 	H 	0.0036	0.2215	0.3283	-0.007
Mof_H 	H 	0.638	0.702	0.4166	0.032
Mof_H 	H 	0.6967	0.741	0.3749	0.11
Mof_H 	H 	0.7785	0.7821	0.3283	-0.008
Mof_H 	H 	0.702	0.064	0.9166	0.032
Mof_H 	H 	0.741	0.0443	0.8749	0.111
Mof_H 	H 	0.7821	0.0036	0.8283	-0.007
Mof_H 	H 	0.936	0.638	0.9166	0.032
Mof_H 	H 	0.9557	0.6967	0.8749	0.11
Mof_H 	H 	0.9964	0.7785	0.8283	-0.007
Mof_H 	H 	0.362	0.298	0.9166	0.032
Mof_H 	H 	0.3033	0.259	0.8749	0.11
Mof_H 	H 	0.2215	0.2179	0.8283	-0.008
Mof_H 	H 	0.534	0.767	0.4902	0.048
Mof_H 	H 	0.233	0.466	0.4902	0.048
Mof_H 	H 	0.233	0.767	0.4902	0.048
Mof_H 	H 	0.466	0.233	0.9902	0.048
Mof_H 	H 	0.767	0.534	0.9902	0.048
Mof_H 	H 	0.767	0.233	0.9902	0.048
Mof_H 	H 	0.767	0.233	0.5098	0.048
Mof_H 	H 	0.767	0.534	0.5098	0.048
Mof_H 	H 	0.466	0.233	0.5098	0.048
Mof_H 	H 	0.233	0.767	0.0098	0.048
Mof_H 	H 	0.233	0.466	0.0098	0.048
Mof_H 	H 	0.534	0.767	0.0098	0.048
Mof_C 	C 	0.5531	0.9127	0.47175	0.362
Mof_C 	C 	0.5796	0.8556	0.45575	-0.107
Mof_C 	C 	0.6227	0.8777	0.42613	0.036
Mof_C 	C 	0.7629	0.943	0.33788	0.173
Mof_C 	C 	0.3596	0.4469	0.47175	0.362
Mof_C 	C 	0.276	0.4204	0.45575	-0.107
Mof_C 	C 	0.255	0.3773	0.42613	0.036
Mof_C 	C 	0.1801	0.2371	0.33788	0.173
Mof_C 	C 	0.0873	0.6404	0.47175	0.361
Mof_C 	C 	0.1444	0.724	0.45575	-0.107
Mof_C 	C 	0.1223	0.745	0.42613	0.036
Mof_C 	C 	0.057	0.8199	0.33788	0.173
Mof_C 	C 	0.4469	0.0873	0.97175	0.361
Mof_C 	C 	0.4204	0.1444	0.95575	-0.107
Mof_C 	C 	0.3773	0.1223	0.92613	0.036
Mof_C 	C 	0.2371	0.057	0.83788	0.173
Mof_C 	C 	0.6404	0.5531	0.97175	0.362
Mof_C 	C 	0.724	0.5796	0.95575	-0.107
Mof_C 	C 	0.745	0.6227	0.92613	0.036
Mof_C 	C 	0.8199	0.7629	0.83788	0.173
Mof_C 	C 	0.9127	0.3596	0.97175	0.361
Mof_C 	C 	0.8556	0.276	0.95575	-0.107
Mof_C 	C 	0.8777	0.255	0.92613	0.036
Mof_C 	C 	0.943	0.1801	0.83788	0.173
Mof_C 	C 	0.6404	0.0873	0.52825	0.362
Mof_C 	C 	0.724	0.1444	0.54425	-0.107
Mof_C 	C 	0.745	0.1223	0.57387	0.036
Mof_C 	C 	0.8199	0.057	0.66212	0.173
Mof_C 	C 	0.9127	0.5531	0.52825	0.362
Mof_C 	C 	0.8556	0.5796	0.54425	-0.107
Mof_C 	C 	0.8777	0.6227	0.57387	0.036
Mof_C 	C 	0.943	0.7629	0.66212	0.173
Mof_C 	C 	0.4469	0.3596	0.52825	0.362
Mof_C 	C 	0.4204	0.276	0.54425	-0.107
Mof_C 	C 	0.3773	0.255	0.57387	0.036
Mof_C 	C 	0.2371	0.1801	0.66212	0.173
Mof_C 	C 	0.3596	0.9127	0.02825	0.361
Mof_C 	C 	0.276	0.8556	0.04425	-0.107
Mof_C 	C 	0.255	0.8777	0.07387	0.036
Mof_C 	C 	0.1801	0.943	0.16212	0.173
Mof_C 	C 	0.0873	0.4469	0.02825	0.361
Mof_C 	C 	0.1444	0.4204	0.04425	-0.107
Mof_C 	C 	0.1223	0.3773	0.07387	0.036
Mof_C 	C 	0.057	0.2371	0.16212	0.173
Mof_C 	C 	0.5531	0.6404	0.02825	0.362
Mof_C 	C 	0.5796	0.724	0.04425	-0.107
Mof_C 	C 	0.6227	0.745	0.07387	0.036
Mof_C 	C 	0.7629	0.8199	0.16212	0.173
Mof_C 	C 	0.4469	0.0873	0.52825	0.362
Mof_C 	C 	0.4204	0.1444	0.54425	-0.107
Mof_C 	C 	0.3773	0.1223	0.57387	0.036
Mof_C 	C 	0.2371	0.057	0.66212	0.173
Mof_C 	C 	0.6404	0.5531	0.52825	0.362
Mof_C 	C 	0.724	0.5796	0.54425	-0.107
Mof_C 	C 	0.745	0.6227	0.57387	0.036
Mof_C 	C 	0.8199	0.7629	0.66212	0.173
Mof_C 	C 	0.9127	0.3596	0.52825	0.361
Mof_C 	C 	0.8556	0.276	0.54425	-0.107
Mof_C 	C 	0.8777	0.255	0.57387	0.036
Mof_C 	C 	0.943	0.1801	0.66212	0.173
Mof_C 	C 	0.5531	0.9127	0.02825	0.361
Mof_C 	C 	0.5796	0.8556	0.04425	-0.107
Mof_C 	C 	0.6227	0.8777	0.07387	0.036
Mof_C 	C 	0.7629	0.943	0.16212	0.173
Mof_C 	C 	0.3596	0.4469	0.02825	0.362
Mof_C 	C 	0.276	0.4204	0.04425	-0.107
Mof_C 	C 	0.255	0.3773	0.07387	0.036
Mof_C 	C 	0.1801	0.2371	0.16212	0.173
Mof_C 	C 	0.0873	0.6404	0.02825	0.361
Mof_C 	C 	0.1444	0.724	0.04425	-0.107
Mof_C 	C 	0.1223	0.745	0.07387	0.036
Mof_C 	C 	0.057	0.8199	0.16212	0.173
Mof_C 	C 	0.3596	0.9127	0.47175	0.362
Mof_C 	C 	0.276	0.8556	0.45575	-0.107
Mof_C 	C 	0.255	0.8777	0.42613	0.036
Mof_C 	C 	0.1801	0.943	0.33788	0.173
Mof_C 	C 	0.0873	0.4469	0.47175	0.362
Mof_C 	C 	0.1444	0.4204	0.45575	-0.107
Mof_C 	C 	0.1223	0.3773	0.42613	0.036
Mof_C 	C 	0.057	0.2371	0.33788	0.173
Mof_C 	C 	0.5531	0.6404	0.47175	0.362
Mof_C 	C 	0.5796	0.724	0.45575	-0.107
Mof_C 	C 	0.6227	0.745	0.42613	0.036
Mof_C 	C 	0.7629	0.8199	0.33788	0.173
Mof_C 	C 	0.6404	0.0873	0.97175	0.361
Mof_C 	C 	0.724	0.1444	0.95575	-0.107
Mof_C 	C 	0.745	0.1223	0.92613	0.036
Mof_C 	C 	0.8199	0.057	0.83788	0.173
Mof_C 	C 	0.9127	0.5531	0.97175	0.361
Mof_C 	C 	0.8556	0.5796	0.95575	-0.107
Mof_C 	C 	0.8777	0.6227	0.92613	0.036
Mof_C 	C 	0.943	0.7629	0.83788	0.173
Mof_C 	C 	0.4469	0.3596	0.97175	0.362
Mof_C 	C 	0.4204	0.276	0.95575	-0.107
Mof_C 	C 	0.3773	0.255	0.92613	0.036
Mof_C 	C 	0.2371	0.1801	0.83788	0.173
Mof_C 	C 	0.5594	0.7797	0.47088	0.045
Mof_C 	C 	0.6455	0.82275	0.41117	-0.078
Mof_C 	C 	0.6929	0.84645	0.37947	0.174
Mof_C 	C 	0.7889	0.89445	0.32368	-0.255
Mof_C 	C 	0.8455	0.92275	0.2944	0.52
Mof_C 	C 	0.2203	0.4406	0.47088	0.045
Mof_C 	C 	0.17725	0.3545	0.41117	-0.078
Mof_C 	C 	0.15355	0.3071	0.37947	0.174
Mof_C 	C 	0.10555	0.2111	0.32368	-0.255
Mof_C 	C 	0.07725	0.1545	0.2944	0.52
Mof_C 	C 	0.2203	0.7797	0.47088	0.045
Mof_C 	C 	0.17725	0.82275	0.41117	-0.077
Mof_C 	C 	0.15355	0.84645	0.37947	0.174
Mof_C 	C 	0.10555	0.89445	0.32368	-0.254
Mof_C 	C 	0.07725	0.92275	0.2944	0.519
Mof_C 	C 	0.4406	0.2203	0.97088	0.045
Mof_C 	C 	0.3545	0.17725	0.91117	-0.078
Mof_C 	C 	0.3071	0.15355	0.87947	0.174
Mof_C 	C 	0.2111	0.10555	0.82368	-0.255
Mof_C 	C 	0.1545	0.07725	0.7944	0.52
Mof_C 	C 	0.7797	0.5594	0.97088	0.045
Mof_C 	C 	0.82275	0.6455	0.91117	-0.078
Mof_C 	C 	0.84645	0.6929	0.87947	0.174
Mof_C 	C 	0.89445	0.7889	0.82368	-0.255
Mof_C 	C 	0.92275	0.8455	0.7944	0.52
Mof_C 	C 	0.7797	0.2203	0.97088	0.045
Mof_C 	C 	0.82275	0.17725	0.91117	-0.077
Mof_C 	C 	0.84645	0.15355	0.87947	0.174
Mof_C 	C 	0.89445	0.10555	0.82368	-0.254
Mof_C 	C 	0.92275	0.07725	0.7944	0.519
Mof_C 	C 	0.7797	0.2203	0.52912	0.045
Mof_C 	C 	0.82275	0.17725	0.58883	-0.077
Mof_C 	C 	0.84645	0.15355	0.62053	0.174
Mof_C 	C 	0.89445	0.10555	0.67632	-0.254
Mof_C 	C 	0.92275	0.07725	0.7056	0.519
Mof_C 	C 	0.7797	0.5594	0.52912	0.045
Mof_C 	C 	0.82275	0.6455	0.58883	-0.078
Mof_C 	C 	0.84645	0.6929	0.62053	0.174
Mof_C 	C 	0.89445	0.7889	0.67632	-0.255
Mof_C 	C 	0.92275	0.8455	0.7056	0.52
Mof_C 	C 	0.4406	0.2203	0.52912	0.045
Mof_C 	C 	0.3545	0.17725	0.58883	-0.078
Mof_C 	C 	0.3071	0.15355	0.62053	0.174
Mof_C 	C 	0.2111	0.10555	0.67632	-0.255
Mof_C 	C 	0.1545	0.07725	0.7056	0.52
Mof_C 	C 	0.2203	0.7797	0.02912	0.045
Mof_C 	C 	0.17725	0.82275	0.08883	-0.077
Mof_C 	C 	0.15355	0.84645	0.12053	0.174
Mof_C 	C 	0.10555	0.89445	0.17632	-0.254
Mof_C 	C 	0.07725	0.92275	0.2056	0.519
Mof_C 	C 	0.2203	0.4406	0.02912	0.045
Mof_C 	C 	0.17725	0.3545	0.08883	-0.078
Mof_C 	C 	0.15355	0.3071	0.12053	0.174
Mof_C 	C 	0.10555	0.2111	0.17632	-0.255
Mof_C 	C 	0.07725	0.1545	0.2056	0.52
Mof_C 	C 	0.5594	0.7797	0.02912	0.045
Mof_C 	C 	0.6455	0.82275	0.08883	-0.078
Mof_C 	C 	0.6929	0.84645	0.12053	0.174
Mof_C 	C 	0.7889	0.89445	0.17632	-0.255
Mof_C 	C 	0.8455	0.92275	0.2056	0.52
Mof_N 	N 	0.7146	0.9194	0.36562	-0.225
Mof_N 	N 	0.2048	0.2854	0.36562	-0.225
Mof_N 	N 	0.0806	0.7952	0.36562	-0.224
Mof_N 	N 	0.2854	0.0806	0.86562	-0.225
Mof_N 	N 	0.7952	0.7146	0.86562	-0.225
Mof_N 	N 	0.9194	0.2048	0.86562	-0.224
Mof_N 	N 	0.7952	0.0806	0.63438	-0.224
Mof_N 	N 	0.9194	0.7146	0.63438	-0.225
Mof_N 	N 	0.2854	0.2048	0.63438	-0.225
Mof_N 	N 	0.2048	0.9194	0.13438	-0.224
Mof_N 	N 	0.0806	0.2854	0.13438	-0.225
Mof_N 	N 	0.7146	0.7952	0.13438	-0.225
Mof_N 	N 	0.2854	0.0806	0.63438	-0.225
Mof_N 	N 	0.7952	0.7146	0.63438	-0.225
Mof_N 	N 	0.9194	0.2048	0.63438	-0.224
Mof_N 	N 	0.7146	0.9194	0.13438	-0.225
Mof_N 	N 	0.2048	0.2854	0.13438	-0.225
Mof_N 	N 	0.0806	0.7952	0.13438	-0.224
Mof_N 	N 	0.2048	0.9194	0.36562	-0.224
Mof_N 	N 	0.0806	0.2854	0.36562	-0.225
Mof_N 	N 	0.7146	0.7952	0.36562	-0.225
Mof_N 	N 	0.7952	0.0806	0.86562	-0.224
Mof_N 	N 	0.9194	0.7146	0.86562	-0.225
Mof_N 	N 	0.2854	0.2048	0.86562	-0.225
Mof_O 	O 	0.51987	0.89042	0.49986	-0.409
Mof_O 	O 	0.56439	0.97746	0.4562	-0.406
Mof_O 	O 	0.8661	0.9912	0.28288	-0.475
Mof_O 	O 	0.37055	0.48013	0.49986	-0.408
Mof_O 	O 	0.41307	0.43561	0.4562	-0.407
Mof_O 	O 	0.1251	0.1339	0.28288	-0.476
Mof_O 	O 	0.10958	0.62945	0.49986	-0.409
Mof_O 	O 	0.02254	0.58693	0.4562	-0.406
Mof_O 	O 	0.0088	0.8749	0.28288	-0.474
Mof_O 	O 	0.48013	0.10958	0.99986	-0.408
Mof_O 	O 	0.43561	0.02254	0.9562	-0.406
Mof_O 	O 	0.1339	0.0088	0.78288	-0.475
Mof_O 	O 	0.62945	0.51987	0.99986	-0.408
Mof_O 	O 	0.58693	0.56439	0.9562	-0.407
Mof_O 	O 	0.8749	0.8661	0.78288	-0.476
Mof_O 	O 	0.89042	0.37055	0.99986	-0.408
Mof_O 	O 	0.97746	0.41307	0.9562	-0.406
Mof_O 	O 	0.9912	0.1251	0.78288	-0.474
Mof_O 	O 	0.62945	0.10958	0.50014	-0.409
Mof_O 	O 	0.58693	0.02254	0.5438	-0.406
Mof_O 	O 	0.8749	0.0088	0.71712	-0.474
Mof_O 	O 	0.89042	0.51987	0.50014	-0.409
Mof_O 	O 	0.97746	0.56439	0.5438	-0.406
Mof_O 	O 	0.9912	0.8661	0.71712	-0.475
Mof_O 	O 	0.48013	0.37055	0.50014	-0.408
Mof_O 	O 	0.43561	0.41307	0.5438	-0.407
Mof_O 	O 	0.1339	0.1251	0.71712	-0.476
Mof_O 	O 	0.37055	0.89042	0.00014	-0.408
Mof_O 	O 	0.41307	0.97746	0.0438	-0.406
Mof_O 	O 	0.1251	0.9912	0.21712	-0.474
Mof_O 	O 	0.10958	0.48013	0.00014	-0.408
Mof_O 	O 	0.02254	0.43561	0.0438	-0.406
Mof_O 	O 	0.0088	0.1339	0.21712	-0.475
Mof_O 	O 	0.51987	0.62945	0.00014	-0.408
Mof_O 	O 	0.56439	0.58693	0.0438	-0.407
Mof_O 	O 	0.8661	0.8749	0.21712	-0.476
Mof_O 	O 	0.48013	0.10958	0.50014	-0.409
Mof_O 	O 	0.43561	0.02254	0.5438	-0.406
Mof_O 	O 	0.1339	0.0088	0.71712	-0.475
Mof_O 	O 	0.62945	0.51987	0.50014	-0.408
Mof_O 	O 	0.58693	0.56439	0.5438	-0.407
Mof_O 	O 	0.8749	0.8661	0.71712	-0.476
Mof_O 	O 	0.89042	0.37055	0.50014	-0.409
Mof_O 	O 	0.97746	0.41307	0.5438	-0.406
Mof_O 	O 	0.9912	0.1251	0.71712	-0.474
Mof_O 	O 	0.51987	0.89042	0.00014	-0.408
Mof_O 	O 	0.56439	0.97746	0.0438	-0.406
Mof_O 	O 	0.8661	0.9912	0.21712	-0.475
Mof_O 	O 	0.37055	0.48013	0.00014	-0.408
Mof_O 	O 	0.41307	0.43561	0.0438	-0.407
Mof_O 	O 	0.1251	0.1339	0.21712	-0.476
Mof_O 	O 	0.10958	0.62945	0.00014	-0.408
Mof_O 	O 	0.02254	0.58693	0.0438	-0.406
Mof_O 	O 	0.0088	0.8749	0.21712	-0.474
Mof_O 	O 	0.37055	0.89042	0.49986	-0.409
Mof_O 	O 	0.41307	0.97746	0.4562	-0.406
Mof_O 	O 	0.1251	0.9912	0.28288	-0.474
Mof_O 	O 	0.10958	0.48013	0.49986	-0.409
Mof_O 	O 	0.02254	0.43561	0.4562	-0.406
Mof_O 	O 	0.0088	0.1339	0.28288	-0.475
Mof_O 	O 	0.51987	0.62945	0.49986	-0.408
Mof_O 	O 	0.56439	0.58693	0.4562	-0.407
Mof_O 	O 	0.8661	0.8749	0.28288	-0.476
Mof_O 	O 	0.62945	0.10958	0.99986	-0.408
Mof_O 	O 	0.58693	0.02254	0.9562	-0.406
Mof_O 	O 	0.8749	0.0088	0.78288	-0.474
Mof_O 	O 	0.89042	0.51987	0.99986	-0.408
Mof_O 	O 	0.97746	0.56439	0.9562	-0.406
Mof_O 	O 	0.9912	0.8661	0.78288	-0.475
Mof_O 	O 	0.48013	0.37055	0.99986	-0.408
Mof_O 	O 	0.43561	0.41307	0.9562	-0.407
Mof_O 	O 	0.1339	0.1251	0.78288	-0.476
_end
