data_functionalizedCrystal
_audit_creation_method	'EQeq! by Chris Wilmer'
_symmetry_space_group_name_H-M	'P1'
_symmetry_Int_Tables_number	1
_symmetry_cell_setting	triclinic
loop_
_symmetry_equiv_pos_as_xyz
  x,y,z
_cell_length_a	34.936
_cell_length_b	14.9785
_cell_length_c	30.825
_cell_angle_alpha	90
_cell_angle_beta	102.857
_cell_angle_gamma	90
loop_
_atom_site_label
_atom_site_type_symbol
_atom_site_fract_x
_atom_site_fract_y
_atom_site_fract_z
_atom_site_charge
Mof_C 	C 	0.3529	0.415	0.8318	0.063
Mof_H 	H 	0.3469	0.3559	0.8392	-0.023
Mof_C 	C 	0.3268	0.4596	0.7984	-0.122
Mof_H 	H 	0.3032	0.4315	0.7833	0.069
Mof_C 	C 	0.3356	0.5457	0.7872	0.057
Mof_C 	C 	0.3704	0.5832	0.8104	-0.12
Mof_H 	H 	0.3774	0.6423	0.8041	0.092
Mof_C 	C 	0.3949	0.5334	0.8428	0.083
Mof_H 	H 	0.4192	0.5587	0.8577	-0.012
Mof_C 	C 	0.3094	0.5969	0.7515	0.1
Mof_C 	C 	0.2562	0.6045	0.6963	0.086
Mof_C 	C 	0.2928	0.7271	0.7165	0.097
Mof_C 	C 	0.1703	0.5528	0.6027	0.082
Mof_H 	H 	0.1543	0.5821	0.5778	0.001
Mof_C 	C 	0.1988	0.6008	0.6295	-0.124
Mof_H 	H 	0.2025	0.662	0.6235	0.092
Mof_C 	C 	0.2228	0.5592	0.6662	0.042
Mof_C 	C 	0.2151	0.4699	0.6736	-0.12
Mof_H 	H 	0.2301	0.4387	0.6985	0.081
Mof_C 	C 	0.1846	0.4274	0.6436	0.069
Mof_H 	H 	0.1792	0.3666	0.6487	-0.006
Mof_C 	C 	0.3348	0.9558	0.7416	0.062
Mof_H 	H 	0.3561	0.9825	0.7621	-0.02
Mof_C 	C 	0.3306	0.8636	0.7423	-0.121
Mof_H 	H 	0.3491	0.828	0.7622	0.083
Mof_C 	C 	0.299	0.8247	0.7136	0.057
Mof_C 	C 	0.2729	0.8795	0.6848	-0.13
Mof_H 	H 	0.2509	0.8555	0.6643	0.081
Mof_C 	C 	0.2801	0.9709	0.6871	0.08
Mof_H 	H 	0.2619	0.0087	0.6681	-0.018
Mof_C 	C 	0.3451	0.2201	0.6379	0.075
Mof_H 	H 	0.3205	0.2498	0.633	-0.02
Mof_C 	C 	0.3699	0.2378	0.6098	-0.118
Mof_H 	H 	0.3629	0.2809	0.5867	0.084
Mof_C 	C 	0.4052	0.192	0.6154	0.07
Mof_C 	C 	0.4146	0.1333	0.6511	-0.126
Mof_H 	H 	0.4389	0.102	0.6568	0.087
Mof_C 	C 	0.3892	0.1213	0.6772	0.083
Mof_H 	H 	0.3961	0.0805	0.7013	-0.025
Mof_C 	C 	0.4319	0.2066	0.5845	0.103
Mof_C 	C 	0.4505	0.2867	0.531	0.083
Mof_C 	C 	0.4816	0.1584	0.5553	0.084
Mof_C 	C 	0.5537	0.9717	0.587	0.055
Mof_H 	H 	0.5601	0.927	0.6094	-0.011
Mof_C 	C 	0.5238	0.0309	0.5888	-0.11
Mof_H 	H 	0.511	0.0296	0.6129	0.078
Mof_C 	C 	0.5129	0.093	0.5542	0.041
Mof_C 	C 	0.5321	0.0911	0.5197	-0.122
Mof_H 	H 	0.5245	0.1306	0.4952	0.076
Mof_C 	C 	0.5623	0.0312	0.521	0.075
Mof_H 	H 	0.5752	0.0301	0.4969	-0.004
Mof_C 	C 	0.4143	0.4995	0.4734	0.048
Mof_H 	H 	0.3935	0.5407	0.4726	-0.019
Mof_C 	C 	0.4174	0.4263	0.5009	-0.108
Mof_H 	H 	0.3987	0.4172	0.5186	0.079
Mof_C 	C 	0.4472	0.3671	0.5027	0.047
Mof_C 	C 	0.4747	0.383	0.4771	-0.124
Mof_H 	H 	0.4962	0.3438	0.4782	0.068
Mof_C 	C 	0.4697	0.4566	0.4502	0.079
Mof_H 	H 	0.4884	0.4674	0.4326	-0.005
Mof_N 	N 	0.386	0.4522	0.8539	-0.299
Mof_N 	N 	0.2783	0.5555	0.7276	-0.147
Mof_N 	N 	0.2612	0.6908	0.6888	-0.142
Mof_N 	N 	0.3187	0.683	0.7469	-0.133
Mof_N 	N 	0.1633	0.4676	0.6089	-0.274
Mof_N 	N 	0.3104	0.0084	0.7136	-0.292
Mof_N 	N 	0.3545	0.163	0.6715	-0.299
Mof_N 	N 	0.4596	0.1446	0.5852	-0.136
Mof_N 	N 	0.4257	0.2781	0.5583	-0.134
Mof_N 	N 	0.478	0.2271	0.5273	-0.155
Mof_N 	N 	0.5739	0.9752	0.5545	-0.27
Mof_N 	N 	0.4401	0.5142	0.4474	-0.292
Mof_Zn	Zn	0.3152	0.1467	0.7127	0.637
Mof_I 	I 	0.24911	0.2203	0.68216	-0.472
Mof_I 	I 	0.35704	0.1871	0.78856	0.07
Mof_Zn	Zn	0.6246	0.8994	0.5593	0.57
Mof_I 	I 	0.61381	0.75222	0.59602	-0.049
Mof_I 	I 	0.64923	0.9195	0.48833	-0.344
Mof_Zn	Zn	0.42905	0.61541	0.3999	0.651
Mof_I 	I 	0.39564	0.73902	0.43378	0.161
Mof_I 	I 	0.48766	0.63123	0.36464	-0.659
Mof_Zn	Zn	0.3267	0.1432	0.7223	0.642
Mof_I 	I 	0.26206	0.2287	0.6969	0.084
Mof_I 	I 	0.37262	0.1702	0.79693	-0.493
Mof_Zn	Zn	0.6215	0.8898	0.5659	0.577
Mof_I 	I 	0.6031	0.7506	0.6033	-0.296
Mof_I 	I 	0.6487	0.8906	0.4972	0.005
Mof_Zn	Zn	0.4175	0.6203	0.4059	0.662
Mof_I 	I 	0.3782	0.7326	0.4381	-0.567
Mof_I 	I 	0.4738	0.6558	0.3695	0.282
Mof_C 	C 	0.8529	0.915	0.8318	0.064
Mof_H 	H 	0.8469	0.8559	0.8392	-0.022
Mof_C 	C 	0.8268	0.9596	0.7984	-0.121
Mof_H 	H 	0.8032	0.9315	0.7833	0.071
Mof_C 	C 	0.8356	0.0457	0.7872	0.058
Mof_C 	C 	0.8704	0.0832	0.8104	-0.119
Mof_H 	H 	0.8774	0.1423	0.8041	0.093
Mof_C 	C 	0.8949	0.0334	0.8428	0.084
Mof_H 	H 	0.9192	0.0587	0.8577	-0.011
Mof_C 	C 	0.8094	0.0969	0.7515	0.101
Mof_C 	C 	0.7562	0.1045	0.6963	0.087
Mof_C 	C 	0.7928	0.2271	0.7165	0.098
Mof_C 	C 	0.6703	0.0528	0.6027	0.083
Mof_H 	H 	0.6543	0.0821	0.5778	0.002
Mof_C 	C 	0.6988	0.1008	0.6295	-0.123
Mof_H 	H 	0.7025	0.162	0.6235	0.093
Mof_C 	C 	0.7228	0.0592	0.6662	0.043
Mof_C 	C 	0.7151	0.9699	0.6736	-0.12
Mof_H 	H 	0.7301	0.9387	0.6985	0.082
Mof_C 	C 	0.6846	0.9274	0.6436	0.07
Mof_H 	H 	0.6792	0.8666	0.6487	-0.005
Mof_C 	C 	0.8348	0.4558	0.7416	0.063
Mof_H 	H 	0.8561	0.4825	0.7621	-0.019
Mof_C 	C 	0.8306	0.3636	0.7423	-0.12
Mof_H 	H 	0.8491	0.328	0.7622	0.084
Mof_C 	C 	0.799	0.3247	0.7136	0.058
Mof_C 	C 	0.7729	0.3795	0.6848	-0.129
Mof_H 	H 	0.7509	0.3555	0.6643	0.082
Mof_C 	C 	0.7801	0.4709	0.6871	0.081
Mof_H 	H 	0.7619	0.5087	0.6681	-0.018
Mof_C 	C 	0.8451	0.7201	0.6379	0.076
Mof_H 	H 	0.8205	0.7498	0.633	-0.019
Mof_C 	C 	0.8699	0.7378	0.6098	-0.118
Mof_H 	H 	0.8629	0.7809	0.5867	0.084
Mof_C 	C 	0.9052	0.692	0.6154	0.07
Mof_C 	C 	0.9146	0.6333	0.6511	-0.126
Mof_H 	H 	0.9389	0.602	0.6568	0.087
Mof_C 	C 	0.8892	0.6213	0.6772	0.083
Mof_H 	H 	0.8961	0.5805	0.7013	-0.025
Mof_C 	C 	0.9319	0.7066	0.5845	0.103
Mof_C 	C 	0.9505	0.7867	0.531	0.083
Mof_C 	C 	0.9816	0.6584	0.5553	0.084
Mof_C 	C 	0.0537	0.4717	0.587	0.055
Mof_H 	H 	0.0601	0.427	0.6094	-0.011
Mof_C 	C 	0.0238	0.5309	0.5888	-0.11
Mof_H 	H 	0.011	0.5296	0.6129	0.078
Mof_C 	C 	0.0129	0.593	0.5542	0.041
Mof_C 	C 	0.0321	0.5911	0.5197	-0.122
Mof_H 	H 	0.0245	0.6306	0.4952	0.076
Mof_C 	C 	0.0623	0.5312	0.521	0.075
Mof_H 	H 	0.0752	0.5301	0.4969	-0.004
Mof_C 	C 	0.9143	0.9995	0.4734	0.048
Mof_H 	H 	0.8935	0.0407	0.4726	-0.019
Mof_C 	C 	0.9174	0.9263	0.5009	-0.108
Mof_H 	H 	0.8987	0.9172	0.5186	0.079
Mof_C 	C 	0.9472	0.8671	0.5027	0.047
Mof_C 	C 	0.9747	0.883	0.4771	-0.124
Mof_H 	H 	0.9962	0.8438	0.4782	0.068
Mof_C 	C 	0.9697	0.9566	0.4502	0.079
Mof_H 	H 	0.9884	0.9674	0.4326	-0.005
Mof_N 	N 	0.886	0.9522	0.8539	-0.299
Mof_N 	N 	0.7783	0.0555	0.7276	-0.147
Mof_N 	N 	0.7612	0.1908	0.6888	-0.142
Mof_N 	N 	0.8187	0.183	0.7469	-0.133
Mof_N 	N 	0.6633	0.9676	0.6089	-0.274
Mof_N 	N 	0.8104	0.5084	0.7136	-0.292
Mof_N 	N 	0.8545	0.663	0.6715	-0.299
Mof_N 	N 	0.9596	0.6446	0.5852	-0.136
Mof_N 	N 	0.9257	0.7781	0.5583	-0.134
Mof_N 	N 	0.978	0.7271	0.5273	-0.155
Mof_N 	N 	0.0739	0.4752	0.5545	-0.27
Mof_N 	N 	0.9401	0.0142	0.4474	-0.292
Mof_Zn	Zn	0.8152	0.6467	0.7127	0.637
Mof_I 	I 	0.74911	0.7203	0.68216	-0.472
Mof_I 	I 	0.85704	0.6871	0.78856	0.07
Mof_Zn	Zn	0.1246	0.3994	0.5593	0.57
Mof_I 	I 	0.11381	0.25222	0.59602	-0.049
Mof_I 	I 	0.14923	0.4195	0.48833	-0.344
Mof_Zn	Zn	0.92905	0.11541	0.3999	0.651
Mof_I 	I 	0.89564	0.23902	0.43378	0.161
Mof_I 	I 	0.98766	0.13123	0.36464	-0.658
Mof_Zn	Zn	0.8267	0.6432	0.7223	0.642
Mof_I 	I 	0.76206	0.7287	0.6969	0.084
Mof_I 	I 	0.87262	0.6702	0.79693	-0.493
Mof_Zn	Zn	0.1215	0.3898	0.5659	0.577
Mof_I 	I 	0.1031	0.2506	0.6033	-0.296
Mof_I 	I 	0.1487	0.3906	0.4972	0.005
Mof_Zn	Zn	0.9175	0.1203	0.4059	0.662
Mof_I 	I 	0.8782	0.2326	0.4381	-0.567
Mof_I 	I 	0.9738	0.1558	0.3695	0.282
Mof_C 	C 	0.3529	0.585	0.3318	0.064
Mof_H 	H 	0.3469	0.6441	0.3392	-0.022
Mof_C 	C 	0.3268	0.5404	0.2984	-0.121
Mof_H 	H 	0.3032	0.5685	0.2833	0.07
Mof_C 	C 	0.3356	0.4543	0.2872	0.058
Mof_C 	C 	0.3704	0.4168	0.3104	-0.119
Mof_H 	H 	0.3774	0.3577	0.3041	0.093
Mof_C 	C 	0.3949	0.4666	0.3428	0.084
Mof_H 	H 	0.4192	0.4413	0.3577	-0.011
Mof_C 	C 	0.3094	0.4031	0.2515	0.101
Mof_C 	C 	0.2562	0.3955	0.1963	0.087
Mof_C 	C 	0.2928	0.2729	0.2165	0.098
Mof_C 	C 	0.1703	0.4472	0.1027	0.083
Mof_H 	H 	0.1543	0.4179	0.0778	0.002
Mof_C 	C 	0.1988	0.3992	0.1295	-0.123
Mof_H 	H 	0.2025	0.338	0.1235	0.093
Mof_C 	C 	0.2228	0.4408	0.1662	0.043
Mof_C 	C 	0.2151	0.5301	0.1736	-0.119
Mof_H 	H 	0.2301	0.5613	0.1985	0.082
Mof_C 	C 	0.1846	0.5726	0.1436	0.07
Mof_H 	H 	0.1792	0.6334	0.1487	-0.005
Mof_C 	C 	0.3348	0.0442	0.2416	0.063
Mof_H 	H 	0.3561	0.0175	0.2621	-0.019
Mof_C 	C 	0.3306	0.1364	0.2423	-0.119
Mof_H 	H 	0.3491	0.172	0.2622	0.084
Mof_C 	C 	0.299	0.1753	0.2136	0.058
Mof_C 	C 	0.2729	0.1205	0.1848	-0.129
Mof_H 	H 	0.2509	0.1445	0.1643	0.082
Mof_C 	C 	0.2801	0.0291	0.1871	0.081
Mof_H 	H 	0.2619	0.9913	0.1681	-0.017
Mof_C 	C 	0.3451	0.7799	0.1379	0.076
Mof_H 	H 	0.3205	0.7502	0.133	-0.019
Mof_C 	C 	0.3699	0.7622	0.1098	-0.118
Mof_H 	H 	0.3629	0.7191	0.0867	0.084
Mof_C 	C 	0.4052	0.808	0.1154	0.07
Mof_C 	C 	0.4146	0.8667	0.1511	-0.126
Mof_H 	H 	0.4389	0.898	0.1568	0.087
Mof_C 	C 	0.3892	0.8787	0.1772	0.083
Mof_H 	H 	0.3961	0.9195	0.2013	-0.025
Mof_C 	C 	0.4319	0.7934	0.0845	0.103
Mof_C 	C 	0.4505	0.7133	0.031	0.083
Mof_C 	C 	0.4816	0.8416	0.0553	0.084
Mof_C 	C 	0.5537	0.0283	0.087	0.055
Mof_H 	H 	0.5601	0.073	0.1094	-0.011
Mof_C 	C 	0.5238	0.9691	0.0888	-0.11
Mof_H 	H 	0.511	0.9704	0.1129	0.078
Mof_C 	C 	0.5129	0.907	0.0542	0.04
Mof_C 	C 	0.5321	0.9089	0.0197	-0.122
Mof_H 	H 	0.5245	0.8694	0.9952	0.076
Mof_C 	C 	0.5623	0.9688	0.021	0.076
Mof_H 	H 	0.5752	0.9699	0.9969	-0.005
Mof_C 	C 	0.4143	0.5005	0.9734	0.048
Mof_H 	H 	0.3935	0.4593	0.9726	-0.019
Mof_C 	C 	0.4174	0.5737	0.0009	-0.108
Mof_H 	H 	0.3987	0.5828	0.0186	0.079
Mof_C 	C 	0.4472	0.6329	0.0027	0.047
Mof_C 	C 	0.4747	0.617	0.9771	-0.124
Mof_H 	H 	0.4962	0.6562	0.9782	0.068
Mof_C 	C 	0.4697	0.5434	0.9502	0.079
Mof_H 	H 	0.4884	0.5326	0.9326	-0.005
Mof_N 	N 	0.386	0.5478	0.3539	-0.299
Mof_N 	N 	0.2783	0.4445	0.2276	-0.147
Mof_N 	N 	0.2612	0.3092	0.1888	-0.142
Mof_N 	N 	0.3187	0.317	0.2469	-0.133
Mof_N 	N 	0.1633	0.5324	0.1089	-0.274
Mof_N 	N 	0.3104	0.9916	0.2136	-0.292
Mof_N 	N 	0.3545	0.837	0.1715	-0.299
Mof_N 	N 	0.4596	0.8554	0.0852	-0.136
Mof_N 	N 	0.4257	0.7219	0.0583	-0.134
Mof_N 	N 	0.478	0.7729	0.0273	-0.155
Mof_N 	N 	0.5739	0.0248	0.0545	-0.27
Mof_N 	N 	0.4401	0.4858	0.9474	-0.292
Mof_Zn	Zn	0.3152	0.8533	0.2127	0.637
Mof_I 	I 	0.24911	0.7797	0.18216	-0.472
Mof_I 	I 	0.35704	0.8129	0.28856	0.07
Mof_Zn	Zn	0.6246	0.1006	0.0593	0.57
Mof_I 	I 	0.61381	0.24778	0.09602	-0.049
Mof_I 	I 	0.64923	0.0805	0.98833	-0.344
Mof_Zn	Zn	0.42905	0.38459	0.8999	0.651
Mof_I 	I 	0.39564	0.26098	0.93378	0.161
Mof_I 	I 	0.48766	0.36877	0.86464	-0.659
Mof_Zn	Zn	0.3267	0.8568	0.2223	0.642
Mof_I 	I 	0.26206	0.7713	0.1969	0.084
Mof_I 	I 	0.37262	0.8298	0.29693	-0.493
Mof_Zn	Zn	0.6215	0.1102	0.0659	0.577
Mof_I 	I 	0.6031	0.2494	0.1033	-0.296
Mof_I 	I 	0.6487	0.1094	0.9972	0.005
Mof_Zn	Zn	0.4175	0.3797	0.9059	0.662
Mof_I 	I 	0.3782	0.2674	0.9381	-0.567
Mof_I 	I 	0.4738	0.3442	0.8695	0.282
Mof_C 	C 	0.8529	0.085	0.3318	0.064
Mof_H 	H 	0.8469	0.1441	0.3392	-0.022
Mof_C 	C 	0.8268	0.0404	0.2984	-0.121
Mof_H 	H 	0.8032	0.0685	0.2833	0.071
Mof_C 	C 	0.8356	0.9543	0.2872	0.058
Mof_C 	C 	0.8704	0.9168	0.3104	-0.119
Mof_H 	H 	0.8774	0.8577	0.3041	0.093
Mof_C 	C 	0.8949	0.9666	0.3428	0.084
Mof_H 	H 	0.9192	0.9413	0.3577	-0.011
Mof_C 	C 	0.8094	0.9031	0.2515	0.101
Mof_C 	C 	0.7562	0.8955	0.1963	0.087
Mof_C 	C 	0.7928	0.7729	0.2165	0.098
Mof_C 	C 	0.6703	0.9472	0.1027	0.084
Mof_H 	H 	0.6543	0.9179	0.0778	0.002
Mof_C 	C 	0.6988	0.8992	0.1295	-0.123
Mof_H 	H 	0.7025	0.838	0.1235	0.093
Mof_C 	C 	0.7228	0.9408	0.1662	0.043
Mof_C 	C 	0.7151	0.0301	0.1736	-0.12
Mof_H 	H 	0.7301	0.0613	0.1985	0.083
Mof_C 	C 	0.6846	0.0726	0.1436	0.07
Mof_H 	H 	0.6792	0.1334	0.1487	-0.005
Mof_C 	C 	0.8348	0.5442	0.2416	0.063
Mof_H 	H 	0.8561	0.5175	0.2621	-0.019
Mof_C 	C 	0.8306	0.6364	0.2423	-0.12
Mof_H 	H 	0.8491	0.672	0.2622	0.084
Mof_C 	C 	0.799	0.6753	0.2136	0.058
Mof_C 	C 	0.7729	0.6205	0.1848	-0.129
Mof_H 	H 	0.7509	0.6445	0.1643	0.082
Mof_C 	C 	0.7801	0.5291	0.1871	0.081
Mof_H 	H 	0.7619	0.4913	0.1681	-0.018
Mof_C 	C 	0.8451	0.2799	0.1379	0.076
Mof_H 	H 	0.8205	0.2502	0.133	-0.019
Mof_C 	C 	0.8699	0.2622	0.1098	-0.118
Mof_H 	H 	0.8629	0.2191	0.0867	0.084
Mof_C 	C 	0.9052	0.308	0.1154	0.07
Mof_C 	C 	0.9146	0.3667	0.1511	-0.126
Mof_H 	H 	0.9389	0.398	0.1568	0.087
Mof_C 	C 	0.8892	0.3787	0.1772	0.083
Mof_H 	H 	0.8961	0.4195	0.2013	-0.025
Mof_C 	C 	0.9319	0.2934	0.0845	0.103
Mof_C 	C 	0.9505	0.2133	0.031	0.083
Mof_C 	C 	0.9816	0.3416	0.0553	0.084
Mof_C 	C 	0.0537	0.5283	0.087	0.055
Mof_H 	H 	0.0601	0.573	0.1094	-0.011
Mof_C 	C 	0.0238	0.4691	0.0888	-0.11
Mof_H 	H 	0.011	0.4704	0.1129	0.078
Mof_C 	C 	0.0129	0.407	0.0542	0.041
Mof_C 	C 	0.0321	0.4089	0.0197	-0.122
Mof_H 	H 	0.0245	0.3694	0.9952	0.076
Mof_C 	C 	0.0623	0.4688	0.021	0.075
Mof_H 	H 	0.0752	0.4699	0.9969	-0.004
Mof_C 	C 	0.9143	0.0005	0.9734	0.049
Mof_H 	H 	0.8935	0.9593	0.9726	-0.02
Mof_C 	C 	0.9174	0.0737	0.0009	-0.109
Mof_H 	H 	0.8987	0.0828	0.0186	0.079
Mof_C 	C 	0.9472	0.1329	0.0027	0.047
Mof_C 	C 	0.9747	0.117	0.9771	-0.124
Mof_H 	H 	0.9962	0.1562	0.9782	0.068
Mof_C 	C 	0.9697	0.0434	0.9502	0.079
Mof_H 	H 	0.9884	0.0326	0.9326	-0.005
Mof_N 	N 	0.886	0.0478	0.3539	-0.299
Mof_N 	N 	0.7783	0.9445	0.2276	-0.147
Mof_N 	N 	0.7612	0.8092	0.1888	-0.142
Mof_N 	N 	0.8187	0.817	0.2469	-0.133
Mof_N 	N 	0.6633	0.0324	0.1089	-0.274
Mof_N 	N 	0.8104	0.4916	0.2136	-0.292
Mof_N 	N 	0.8545	0.337	0.1715	-0.299
Mof_N 	N 	0.9596	0.3554	0.0852	-0.136
Mof_N 	N 	0.9257	0.2219	0.0583	-0.134
Mof_N 	N 	0.978	0.2729	0.0273	-0.155
Mof_N 	N 	0.0739	0.5248	0.0545	-0.27
Mof_N 	N 	0.9401	0.9858	0.9474	-0.293
Mof_Zn	Zn	0.8152	0.3533	0.2127	0.637
Mof_I 	I 	0.74911	0.2797	0.18216	-0.472
Mof_I 	I 	0.85704	0.3129	0.28856	0.07
Mof_Zn	Zn	0.1246	0.6006	0.0593	0.57
Mof_I 	I 	0.11381	0.74778	0.09602	-0.049
Mof_I 	I 	0.14923	0.5805	0.98833	-0.344
Mof_Zn	Zn	0.92905	0.88459	0.8999	0.651
Mof_I 	I 	0.89564	0.76098	0.93378	0.161
Mof_I 	I 	0.98766	0.86877	0.86464	-0.658
Mof_Zn	Zn	0.8267	0.3568	0.2223	0.642
Mof_I 	I 	0.76206	0.2713	0.1969	0.084
Mof_I 	I 	0.87262	0.3298	0.29693	-0.493
Mof_Zn	Zn	0.1215	0.6102	0.0659	0.577
Mof_I 	I 	0.1031	0.7494	0.1033	-0.296
Mof_I 	I 	0.1487	0.6094	0.9972	0.005
Mof_Zn	Zn	0.9175	0.8797	0.9059	0.662
Mof_I 	I 	0.8782	0.7674	0.9381	-0.567
Mof_I 	I 	0.9738	0.8442	0.8695	0.282
Mof_C 	C 	0.6471	0.415	0.6682	0.064
Mof_H 	H 	0.6531	0.3559	0.6608	-0.022
Mof_C 	C 	0.6732	0.4596	0.7016	-0.121
Mof_H 	H 	0.6968	0.4315	0.7167	0.07
Mof_C 	C 	0.6644	0.5457	0.7128	0.058
Mof_C 	C 	0.6296	0.5832	0.6896	-0.119
Mof_H 	H 	0.6226	0.6423	0.6959	0.093
Mof_C 	C 	0.6051	0.5334	0.6572	0.084
Mof_H 	H 	0.5808	0.5587	0.6423	-0.011
Mof_C 	C 	0.6906	0.5969	0.7485	0.101
Mof_C 	C 	0.7438	0.6045	0.8037	0.087
Mof_C 	C 	0.7072	0.7271	0.7835	0.098
Mof_C 	C 	0.8297	0.5528	0.8973	0.083
Mof_H 	H 	0.8457	0.5821	0.9222	0.002
Mof_C 	C 	0.8012	0.6008	0.8705	-0.123
Mof_H 	H 	0.7975	0.662	0.8765	0.093
Mof_C 	C 	0.7772	0.5592	0.8338	0.043
Mof_C 	C 	0.7849	0.4699	0.8264	-0.119
Mof_H 	H 	0.7699	0.4387	0.8015	0.082
Mof_C 	C 	0.8154	0.4274	0.8564	0.07
Mof_H 	H 	0.8208	0.3666	0.8513	-0.005
Mof_C 	C 	0.6652	0.9558	0.7584	0.063
Mof_H 	H 	0.6439	0.9825	0.7379	-0.019
Mof_C 	C 	0.6694	0.8636	0.7577	-0.119
Mof_H 	H 	0.6509	0.828	0.7378	0.084
Mof_C 	C 	0.701	0.8247	0.7864	0.058
Mof_C 	C 	0.7271	0.8795	0.8152	-0.129
Mof_H 	H 	0.7491	0.8555	0.8357	0.082
Mof_C 	C 	0.7199	0.9709	0.8129	0.081
Mof_H 	H 	0.7381	0.0087	0.8319	-0.017
Mof_C 	C 	0.6549	0.2201	0.8621	0.076
Mof_H 	H 	0.6795	0.2498	0.867	-0.019
Mof_C 	C 	0.6301	0.2378	0.8902	-0.118
Mof_H 	H 	0.6371	0.2809	0.9133	0.084
Mof_C 	C 	0.5948	0.192	0.8846	0.07
Mof_C 	C 	0.5854	0.1333	0.8489	-0.126
Mof_H 	H 	0.5611	0.102	0.8432	0.087
Mof_C 	C 	0.6108	0.1213	0.8228	0.083
Mof_H 	H 	0.6039	0.0805	0.7987	-0.025
Mof_C 	C 	0.5681	0.2066	0.9155	0.103
Mof_C 	C 	0.5495	0.2867	0.969	0.083
Mof_C 	C 	0.5184	0.1584	0.9447	0.084
Mof_C 	C 	0.4463	0.9717	0.913	0.055
Mof_H 	H 	0.4399	0.927	0.8906	-0.011
Mof_C 	C 	0.4762	0.0309	0.9112	-0.11
Mof_H 	H 	0.489	0.0296	0.8871	0.078
Mof_C 	C 	0.4871	0.093	0.9458	0.04
Mof_C 	C 	0.4679	0.0911	0.9803	-0.122
Mof_H 	H 	0.4755	0.1306	0.0048	0.076
Mof_C 	C 	0.4377	0.0312	0.979	0.076
Mof_H 	H 	0.4248	0.0301	0.0031	-0.005
Mof_C 	C 	0.5857	0.4995	0.0266	0.048
Mof_H 	H 	0.6065	0.5407	0.0274	-0.019
Mof_C 	C 	0.5826	0.4263	0.9991	-0.108
Mof_H 	H 	0.6013	0.4172	0.9814	0.079
Mof_C 	C 	0.5528	0.3671	0.9973	0.047
Mof_C 	C 	0.5253	0.383	0.0229	-0.124
Mof_H 	H 	0.5038	0.3438	0.0218	0.068
Mof_C 	C 	0.5303	0.4566	0.0498	0.079
Mof_H 	H 	0.5116	0.4674	0.0674	-0.005
Mof_N 	N 	0.614	0.4522	0.6461	-0.299
Mof_N 	N 	0.7217	0.5555	0.7724	-0.147
Mof_N 	N 	0.7388	0.6908	0.8112	-0.142
Mof_N 	N 	0.6813	0.683	0.7531	-0.133
Mof_N 	N 	0.8367	0.4676	0.8911	-0.274
Mof_N 	N 	0.6896	0.0084	0.7864	-0.292
Mof_N 	N 	0.6455	0.163	0.8285	-0.299
Mof_N 	N 	0.5404	0.1446	0.9148	-0.136
Mof_N 	N 	0.5743	0.2781	0.9417	-0.134
Mof_N 	N 	0.522	0.2271	0.9727	-0.155
Mof_N 	N 	0.4261	0.9752	0.9455	-0.27
Mof_N 	N 	0.5599	0.5142	0.0526	-0.292
Mof_Zn	Zn	0.6848	0.1467	0.7873	0.637
Mof_I 	I 	0.75089	0.2203	0.81784	-0.472
Mof_I 	I 	0.64296	0.1871	0.71144	0.07
Mof_Zn	Zn	0.3754	0.8994	0.9407	0.57
Mof_I 	I 	0.38619	0.75222	0.90398	-0.049
Mof_I 	I 	0.35077	0.9195	0.01167	-0.344
Mof_Zn	Zn	0.57095	0.61541	0.1001	0.651
Mof_I 	I 	0.60436	0.73902	0.06622	0.161
Mof_I 	I 	0.51234	0.63123	0.13536	-0.659
Mof_Zn	Zn	0.6733	0.1432	0.7777	0.642
Mof_I 	I 	0.73794	0.2287	0.8031	0.084
Mof_I 	I 	0.62738	0.1702	0.70307	-0.493
Mof_Zn	Zn	0.3785	0.8898	0.9341	0.577
Mof_I 	I 	0.3969	0.7506	0.8967	-0.296
Mof_I 	I 	0.3513	0.8906	0.0028	0.005
Mof_Zn	Zn	0.5825	0.6203	0.0941	0.662
Mof_I 	I 	0.6218	0.7326	0.0619	-0.567
Mof_I 	I 	0.5262	0.6558	0.1305	0.282
Mof_C 	C 	0.1471	0.915	0.6682	0.064
Mof_H 	H 	0.1531	0.8559	0.6608	-0.022
Mof_C 	C 	0.1732	0.9596	0.7016	-0.121
Mof_H 	H 	0.1968	0.9315	0.7167	0.071
Mof_C 	C 	0.1644	0.0457	0.7128	0.058
Mof_C 	C 	0.1296	0.0832	0.6896	-0.119
Mof_H 	H 	0.1226	0.1423	0.6959	0.093
Mof_C 	C 	0.1051	0.0334	0.6572	0.084
Mof_H 	H 	0.0808	0.0587	0.6423	-0.011
Mof_C 	C 	0.1906	0.0969	0.7485	0.101
Mof_C 	C 	0.2438	0.1045	0.8037	0.087
Mof_C 	C 	0.2072	0.2271	0.7835	0.098
Mof_C 	C 	0.3297	0.0528	0.8973	0.084
Mof_H 	H 	0.3457	0.0821	0.9222	0.002
Mof_C 	C 	0.3012	0.1008	0.8705	-0.123
Mof_H 	H 	0.2975	0.162	0.8765	0.093
Mof_C 	C 	0.2772	0.0592	0.8338	0.043
Mof_C 	C 	0.2849	0.9699	0.8264	-0.12
Mof_H 	H 	0.2699	0.9387	0.8015	0.083
Mof_C 	C 	0.3154	0.9274	0.8564	0.07
Mof_H 	H 	0.3208	0.8666	0.8513	-0.005
Mof_C 	C 	0.1652	0.4558	0.7584	0.063
Mof_H 	H 	0.1439	0.4825	0.7379	-0.019
Mof_C 	C 	0.1694	0.3636	0.7577	-0.12
Mof_H 	H 	0.1509	0.328	0.7378	0.084
Mof_C 	C 	0.201	0.3247	0.7864	0.058
Mof_C 	C 	0.2271	0.3795	0.8152	-0.129
Mof_H 	H 	0.2491	0.3555	0.8357	0.082
Mof_C 	C 	0.2199	0.4709	0.8129	0.081
Mof_H 	H 	0.2381	0.5087	0.8319	-0.018
Mof_C 	C 	0.1549	0.7201	0.8621	0.076
Mof_H 	H 	0.1795	0.7498	0.867	-0.019
Mof_C 	C 	0.1301	0.7378	0.8902	-0.118
Mof_H 	H 	0.1371	0.7809	0.9133	0.084
Mof_C 	C 	0.0948	0.692	0.8846	0.07
Mof_C 	C 	0.0854	0.6333	0.8489	-0.126
Mof_H 	H 	0.0611	0.602	0.8432	0.087
Mof_C 	C 	0.1108	0.6213	0.8228	0.083
Mof_H 	H 	0.1039	0.5805	0.7987	-0.025
Mof_C 	C 	0.0681	0.7066	0.9155	0.103
Mof_C 	C 	0.0495	0.7867	0.969	0.083
Mof_C 	C 	0.0184	0.6584	0.9447	0.084
Mof_C 	C 	0.9463	0.4717	0.913	0.055
Mof_H 	H 	0.9399	0.427	0.8906	-0.011
Mof_C 	C 	0.9762	0.5309	0.9112	-0.11
Mof_H 	H 	0.989	0.5296	0.8871	0.078
Mof_C 	C 	0.9871	0.593	0.9458	0.041
Mof_C 	C 	0.9679	0.5911	0.9803	-0.122
Mof_H 	H 	0.9755	0.6306	0.0048	0.076
Mof_C 	C 	0.9377	0.5312	0.979	0.075
Mof_H 	H 	0.9248	0.5301	0.0031	-0.004
Mof_C 	C 	0.0857	0.9995	0.0266	0.049
Mof_H 	H 	0.1065	0.0407	0.0274	-0.02
Mof_C 	C 	0.0826	0.9263	0.9991	-0.109
Mof_H 	H 	0.1013	0.9172	0.9814	0.079
Mof_C 	C 	0.0528	0.8671	0.9973	0.047
Mof_C 	C 	0.0253	0.883	0.0229	-0.124
Mof_H 	H 	0.0038	0.8438	0.0218	0.068
Mof_C 	C 	0.0303	0.9566	0.0498	0.079
Mof_H 	H 	0.0116	0.9674	0.0674	-0.005
Mof_N 	N 	0.114	0.9522	0.6461	-0.299
Mof_N 	N 	0.2217	0.0555	0.7724	-0.147
Mof_N 	N 	0.2388	0.1908	0.8112	-0.142
Mof_N 	N 	0.1813	0.183	0.7531	-0.133
Mof_N 	N 	0.3367	0.9676	0.8911	-0.274
Mof_N 	N 	0.1896	0.5084	0.7864	-0.292
Mof_N 	N 	0.1455	0.663	0.8285	-0.299
Mof_N 	N 	0.0404	0.6446	0.9148	-0.136
Mof_N 	N 	0.0743	0.7781	0.9417	-0.134
Mof_N 	N 	0.022	0.7271	0.9727	-0.155
Mof_N 	N 	0.9261	0.4752	0.9455	-0.27
Mof_N 	N 	0.0599	0.0142	0.0526	-0.293
Mof_Zn	Zn	0.1848	0.6467	0.7873	0.637
Mof_I 	I 	0.25089	0.7203	0.81784	-0.472
Mof_I 	I 	0.14296	0.6871	0.71144	0.07
Mof_Zn	Zn	0.8754	0.3994	0.9407	0.57
Mof_I 	I 	0.88619	0.25222	0.90398	-0.049
Mof_I 	I 	0.85077	0.4195	0.01167	-0.344
Mof_Zn	Zn	0.07095	0.11541	0.1001	0.651
Mof_I 	I 	0.10436	0.23902	0.06622	0.161
Mof_I 	I 	0.01234	0.13123	0.13536	-0.658
Mof_Zn	Zn	0.1733	0.6432	0.7777	0.642
Mof_I 	I 	0.23794	0.7287	0.8031	0.084
Mof_I 	I 	0.12738	0.6702	0.70307	-0.493
Mof_Zn	Zn	0.8785	0.3898	0.9341	0.577
Mof_I 	I 	0.8969	0.2506	0.8967	-0.296
Mof_I 	I 	0.8513	0.3906	0.0028	0.005
Mof_Zn	Zn	0.0825	0.1203	0.0941	0.662
Mof_I 	I 	0.1218	0.2326	0.0619	-0.567
Mof_I 	I 	0.0262	0.1558	0.1305	0.282
Mof_C 	C 	0.6471	0.585	0.1682	0.064
Mof_H 	H 	0.6531	0.6441	0.1608	-0.022
Mof_C 	C 	0.6732	0.5404	0.2016	-0.121
Mof_H 	H 	0.6968	0.5685	0.2167	0.07
Mof_C 	C 	0.6644	0.4543	0.2128	0.058
Mof_C 	C 	0.6296	0.4168	0.1896	-0.119
Mof_H 	H 	0.6226	0.3577	0.1959	0.093
Mof_C 	C 	0.6051	0.4666	0.1572	0.084
Mof_H 	H 	0.5808	0.4413	0.1423	-0.011
Mof_C 	C 	0.6906	0.4031	0.2485	0.101
Mof_C 	C 	0.7438	0.3955	0.3037	0.087
Mof_C 	C 	0.7072	0.2729	0.2835	0.098
Mof_C 	C 	0.8297	0.4472	0.3973	0.083
Mof_H 	H 	0.8457	0.4179	0.4222	0.002
Mof_C 	C 	0.8012	0.3992	0.3705	-0.123
Mof_H 	H 	0.7975	0.338	0.3765	0.093
Mof_C 	C 	0.7772	0.4408	0.3338	0.043
Mof_C 	C 	0.7849	0.5301	0.3264	-0.119
Mof_H 	H 	0.7699	0.5613	0.3015	0.082
Mof_C 	C 	0.8154	0.5726	0.3564	0.07
Mof_H 	H 	0.8208	0.6334	0.3513	-0.005
Mof_C 	C 	0.6652	0.0442	0.2584	0.063
Mof_H 	H 	0.6439	0.0175	0.2379	-0.019
Mof_C 	C 	0.6694	0.1364	0.2577	-0.12
Mof_H 	H 	0.6509	0.172	0.2378	0.084
Mof_C 	C 	0.701	0.1753	0.2864	0.058
Mof_C 	C 	0.7271	0.1205	0.3152	-0.129
Mof_H 	H 	0.7491	0.1445	0.3357	0.082
Mof_C 	C 	0.7199	0.0291	0.3129	0.081
Mof_H 	H 	0.7381	0.9913	0.3319	-0.017
Mof_C 	C 	0.6549	0.7799	0.3621	0.076
Mof_H 	H 	0.6795	0.7502	0.367	-0.019
Mof_C 	C 	0.6301	0.7622	0.3902	-0.118
Mof_H 	H 	0.6371	0.7191	0.4133	0.084
Mof_C 	C 	0.5948	0.808	0.3846	0.07
Mof_C 	C 	0.5854	0.8667	0.3489	-0.126
Mof_H 	H 	0.5611	0.898	0.3432	0.087
Mof_C 	C 	0.6108	0.8787	0.3228	0.083
Mof_H 	H 	0.6039	0.9195	0.2987	-0.025
Mof_C 	C 	0.5681	0.7934	0.4155	0.103
Mof_C 	C 	0.5495	0.7133	0.469	0.083
Mof_C 	C 	0.5184	0.8416	0.4447	0.084
Mof_C 	C 	0.4463	0.0283	0.413	0.055
Mof_H 	H 	0.4399	0.073	0.3906	-0.011
Mof_C 	C 	0.4762	0.9691	0.4112	-0.11
Mof_H 	H 	0.489	0.9704	0.3871	0.078
Mof_C 	C 	0.4871	0.907	0.4458	0.041
Mof_C 	C 	0.4679	0.9089	0.4803	-0.122
Mof_H 	H 	0.4755	0.8694	0.5048	0.076
Mof_C 	C 	0.4377	0.9688	0.479	0.075
Mof_H 	H 	0.4248	0.9699	0.5031	-0.004
Mof_C 	C 	0.5857	0.5005	0.5266	0.048
Mof_H 	H 	0.6065	0.4593	0.5274	-0.019
Mof_C 	C 	0.5826	0.5737	0.4991	-0.108
Mof_H 	H 	0.6013	0.5828	0.4814	0.079
Mof_C 	C 	0.5528	0.6329	0.4973	0.047
Mof_C 	C 	0.5253	0.617	0.5229	-0.124
Mof_H 	H 	0.5038	0.6562	0.5218	0.068
Mof_C 	C 	0.5303	0.5434	0.5498	0.079
Mof_H 	H 	0.5116	0.5326	0.5674	-0.005
Mof_N 	N 	0.614	0.5478	0.1461	-0.299
Mof_N 	N 	0.7217	0.4445	0.2724	-0.147
Mof_N 	N 	0.7388	0.3092	0.3112	-0.142
Mof_N 	N 	0.6813	0.317	0.2531	-0.133
Mof_N 	N 	0.8367	0.5324	0.3911	-0.274
Mof_N 	N 	0.6896	0.9916	0.2864	-0.292
Mof_N 	N 	0.6455	0.837	0.3285	-0.299
Mof_N 	N 	0.5404	0.8554	0.4148	-0.136
Mof_N 	N 	0.5743	0.7219	0.4417	-0.134
Mof_N 	N 	0.522	0.7729	0.4727	-0.155
Mof_N 	N 	0.4261	0.0248	0.4455	-0.27
Mof_N 	N 	0.5599	0.4858	0.5526	-0.292
Mof_Zn	Zn	0.6848	0.8533	0.2873	0.637
Mof_I 	I 	0.75089	0.7797	0.31784	-0.472
Mof_I 	I 	0.64296	0.8129	0.21144	0.07
Mof_Zn	Zn	0.3754	0.1006	0.4407	0.57
Mof_I 	I 	0.38619	0.24778	0.40398	-0.049
Mof_I 	I 	0.35077	0.0805	0.51167	-0.344
Mof_Zn	Zn	0.57095	0.38459	0.6001	0.651
Mof_I 	I 	0.60436	0.26098	0.56622	0.161
Mof_I 	I 	0.51234	0.36877	0.63536	-0.659
Mof_Zn	Zn	0.6733	0.8568	0.2777	0.642
Mof_I 	I 	0.73794	0.7713	0.3031	0.084
Mof_I 	I 	0.62738	0.8298	0.20307	-0.493
Mof_Zn	Zn	0.3785	0.1102	0.4341	0.577
Mof_I 	I 	0.3969	0.2494	0.3967	-0.296
Mof_I 	I 	0.3513	0.1094	0.5028	0.005
Mof_Zn	Zn	0.5825	0.3797	0.5941	0.662
Mof_I 	I 	0.6218	0.2674	0.5619	-0.567
Mof_I 	I 	0.5262	0.3442	0.6305	0.282
Mof_C 	C 	0.1471	0.085	0.1682	0.064
Mof_H 	H 	0.1531	0.1441	0.1608	-0.022
Mof_C 	C 	0.1732	0.0404	0.2016	-0.121
Mof_H 	H 	0.1968	0.0685	0.2167	0.071
Mof_C 	C 	0.1644	0.9543	0.2128	0.058
Mof_C 	C 	0.1296	0.9168	0.1896	-0.119
Mof_H 	H 	0.1226	0.8577	0.1959	0.093
Mof_C 	C 	0.1051	0.9666	0.1572	0.084
Mof_H 	H 	0.0808	0.9413	0.1423	-0.011
Mof_C 	C 	0.1906	0.9031	0.2485	0.101
Mof_C 	C 	0.2438	0.8955	0.3037	0.087
Mof_C 	C 	0.2072	0.7729	0.2835	0.098
Mof_C 	C 	0.3297	0.9472	0.3973	0.083
Mof_H 	H 	0.3457	0.9179	0.4222	0.002
Mof_C 	C 	0.3012	0.8992	0.3705	-0.123
Mof_H 	H 	0.2975	0.838	0.3765	0.093
Mof_C 	C 	0.2772	0.9408	0.3338	0.043
Mof_C 	C 	0.2849	0.0301	0.3264	-0.12
Mof_H 	H 	0.2699	0.0613	0.3015	0.082
Mof_C 	C 	0.3154	0.0726	0.3564	0.07
Mof_H 	H 	0.3208	0.1334	0.3513	-0.005
Mof_C 	C 	0.1652	0.5442	0.2584	0.063
Mof_H 	H 	0.1439	0.5175	0.2379	-0.019
Mof_C 	C 	0.1694	0.6364	0.2577	-0.12
Mof_H 	H 	0.1509	0.672	0.2378	0.084
Mof_C 	C 	0.201	0.6753	0.2864	0.058
Mof_C 	C 	0.2271	0.6205	0.3152	-0.129
Mof_H 	H 	0.2491	0.6445	0.3357	0.082
Mof_C 	C 	0.2199	0.5291	0.3129	0.081
Mof_H 	H 	0.2381	0.4913	0.3319	-0.018
Mof_C 	C 	0.1549	0.2799	0.3621	0.076
Mof_H 	H 	0.1795	0.2502	0.367	-0.019
Mof_C 	C 	0.1301	0.2622	0.3902	-0.118
Mof_H 	H 	0.1371	0.2191	0.4133	0.084
Mof_C 	C 	0.0948	0.308	0.3846	0.07
Mof_C 	C 	0.0854	0.3667	0.3489	-0.126
Mof_H 	H 	0.0611	0.398	0.3432	0.087
Mof_C 	C 	0.1108	0.3787	0.3228	0.083
Mof_H 	H 	0.1039	0.4195	0.2987	-0.025
Mof_C 	C 	0.0681	0.2934	0.4155	0.103
Mof_C 	C 	0.0495	0.2133	0.469	0.083
Mof_C 	C 	0.0184	0.3416	0.4447	0.084
Mof_C 	C 	0.9463	0.5283	0.413	0.055
Mof_H 	H 	0.9399	0.573	0.3906	-0.011
Mof_C 	C 	0.9762	0.4691	0.4112	-0.11
Mof_H 	H 	0.989	0.4704	0.3871	0.078
Mof_C 	C 	0.9871	0.407	0.4458	0.041
Mof_C 	C 	0.9679	0.4089	0.4803	-0.122
Mof_H 	H 	0.9755	0.3694	0.5048	0.076
Mof_C 	C 	0.9377	0.4688	0.479	0.075
Mof_H 	H 	0.9248	0.4699	0.5031	-0.004
Mof_C 	C 	0.0857	0.0005	0.5266	0.048
Mof_H 	H 	0.1065	0.9593	0.5274	-0.019
Mof_C 	C 	0.0826	0.0737	0.4991	-0.108
Mof_H 	H 	0.1013	0.0828	0.4814	0.079
Mof_C 	C 	0.0528	0.1329	0.4973	0.047
Mof_C 	C 	0.0253	0.117	0.5229	-0.124
Mof_H 	H 	0.0038	0.1562	0.5218	0.068
Mof_C 	C 	0.0303	0.0434	0.5498	0.079
Mof_H 	H 	0.0116	0.0326	0.5674	-0.005
Mof_N 	N 	0.114	0.0478	0.1461	-0.299
Mof_N 	N 	0.2217	0.9445	0.2724	-0.147
Mof_N 	N 	0.2388	0.8092	0.3112	-0.142
Mof_N 	N 	0.1813	0.817	0.2531	-0.133
Mof_N 	N 	0.3367	0.0324	0.3911	-0.274
Mof_N 	N 	0.1896	0.4916	0.2864	-0.292
Mof_N 	N 	0.1455	0.337	0.3285	-0.299
Mof_N 	N 	0.0404	0.3554	0.4148	-0.136
Mof_N 	N 	0.0743	0.2219	0.4417	-0.134
Mof_N 	N 	0.022	0.2729	0.4727	-0.155
Mof_N 	N 	0.9261	0.5248	0.4455	-0.27
Mof_N 	N 	0.0599	0.9858	0.5526	-0.292
Mof_Zn	Zn	0.1848	0.3533	0.2873	0.637
Mof_I 	I 	0.25089	0.2797	0.31784	-0.472
Mof_I 	I 	0.14296	0.3129	0.21144	0.07
Mof_Zn	Zn	0.8754	0.6006	0.4407	0.57
Mof_I 	I 	0.88619	0.74778	0.40398	-0.049
Mof_I 	I 	0.85077	0.5805	0.51167	-0.344
Mof_Zn	Zn	0.07095	0.88459	0.6001	0.651
Mof_I 	I 	0.10436	0.76098	0.56622	0.161
Mof_I 	I 	0.01234	0.86877	0.63536	-0.658
Mof_Zn	Zn	0.1733	0.3568	0.2777	0.642
Mof_I 	I 	0.23794	0.2713	0.3031	0.084
Mof_I 	I 	0.12738	0.3298	0.20307	-0.493
Mof_Zn	Zn	0.8785	0.6102	0.4341	0.577
Mof_I 	I 	0.8969	0.7494	0.3967	-0.296
Mof_I 	I 	0.8513	0.6094	0.5028	0.005
Mof_Zn	Zn	0.0825	0.8797	0.5941	0.662
Mof_I 	I 	0.1218	0.7674	0.5619	-0.567
Mof_I 	I 	0.0262	0.8442	0.6305	0.282
_end
