data_functionalizedCrystal
_audit_creation_method	'EQeq! by Chris Wilmer'
_symmetry_space_group_name_H-M	'P1'
_symmetry_Int_Tables_number	1
_symmetry_cell_setting	triclinic
loop_
_symmetry_equiv_pos_as_xyz
  x,y,z
_cell_length_a	14.8168
_cell_length_b	24.0395
_cell_length_c	42.3734
_cell_angle_alpha	97.121
_cell_angle_beta	90
_cell_angle_gamma	90
loop_
_atom_site_label
_atom_site_type_symbol
_atom_site_fract_x
_atom_site_fract_y
_atom_site_fract_z
_atom_site_charge
Mof_Ag	Ag	0.38835	0.82873	0.73189	0.688
Mof_Ag	Ag	0.16321	0.66898	0.77344	0.672
Mof_Ag	Ag	0.22375	0.25171	0.50209	0.841
Mof_Ag	Ag	0.54045	0.46384	0.66298	0.719
Mof_Ag	Ag	0.49782	0.03532	0.33624	0.715
Mof_Ag	Ag	0.88835	0.17127	0.76811	0.7
Mof_Ag	Ag	0.66321	0.33102	0.72656	0.678
Mof_Ag	Ag	0.72375	0.74829	0.99791	0.849
Mof_Ag	Ag	0.04045	0.53616	0.83702	0.703
Mof_Ag	Ag	0.99782	0.96468	0.16376	0.753
Mof_Ag	Ag	0.61165	0.17127	0.26811	0.69
Mof_Ag	Ag	0.83679	0.33102	0.22656	0.681
Mof_Ag	Ag	0.77625	0.74829	0.49791	0.847
Mof_Ag	Ag	0.45955	0.53616	0.33702	0.719
Mof_Ag	Ag	0.50218	0.96468	0.66376	0.738
Mof_Ag	Ag	0.11165	0.82873	0.23189	0.682
Mof_Ag	Ag	0.33679	0.66898	0.27344	0.676
Mof_Ag	Ag	0.27625	0.25171	0.00209	0.839
Mof_Ag	Ag	0.95955	0.46384	0.16298	0.733
Mof_Ag	Ag	0.00218	0.03532	0.83624	0.694
Mof_Ag	Ag	0.5	0.5	0.5	0.807
Mof_Ag	Ag	6.74218e-33	0.5	-0	0.783
Mof_Ag	Ag	0.5	-1.5182e-17	0.5	0.814
Mof_Ag	Ag	-0	0	-0	0.787
Mof_H 	H 	0.268	0.8939	0.7852	0.012
Mof_H 	H 	0.1822	0.9778	0.7946	0.103
Mof_H 	H 	0.2492	0.0078	0.7058	0.105
Mof_H 	H 	0.3352	0.9267	0.7004	-0.035
Mof_H 	H 	0.2562	0.0981	0.7451	0.172
Mof_H 	H 	0.1934	0.1251	0.7737	0.182
Mof_H 	H 	0.16	0.1238	0.7377	0.215
Mof_H 	H 	0.1671	0.7976	0.7914	-0.033
Mof_H 	H 	0.0774	0.8727	0.8133	0.136
Mof_H 	H 	0.8714	0.7609	0.8134	0.166
Mof_H 	H 	0.9729	0.69	0.7963	-0.014
Mof_H 	H 	0.8165	0.8922	0.8642	0.213
Mof_H 	H 	0.8996	0.8562	0.8747	0.203
Mof_H 	H 	0.8185	0.8258	0.8544	0.212
Mof_H 	H 	0.1006	0.2208	0.442	-0.003
Mof_H 	H 	0.1068	0.1707	0.393	0.125
Mof_H 	H 	0.3398	0.0988	0.4177	0.117
Mof_H 	H 	0.3248	0.1446	0.4695	0.036
Mof_H 	H 	0.1808	0.0562	0.3322	0.147
Mof_H 	H 	0.1521	0.0416	0.3666	0.155
Mof_H 	H 	0.1106	0.0955	0.3532	0.139
Mof_H 	H 	0.5397	0.3887	0.5256	0.045
Mof_H 	H 	0.6166	0.3539	0.5664	0.129
Mof_H 	H 	0.6613	0.5112	0.6072	0.108
Mof_H 	H 	0.5949	0.5436	0.5639	0.029
Mof_H 	H 	0.8238	0.4249	0.6394	0.14
Mof_H 	H 	0.7813	0.4796	0.6272	0.131
Mof_H 	H 	0.8288	0.4328	0.6025	0.141
Mof_H 	H 	0.5597	0.9575	0.4325	0.033
Mof_H 	H 	0.6373	0.9903	0.3914	0.147
Mof_H 	H 	0.5944	0.1502	0.43	0.159
Mof_H 	H 	0.5236	0.1124	0.4714	0.027
Mof_H 	H 	0.7861	0.0834	0.3547	0.151
Mof_H 	H 	0.7986	0.0727	0.3909	0.161
Mof_H 	H 	0.7531	0.0256	0.3659	0.145
Mof_H 	H 	0.6507	0.638	0.7379	0.108
Mof_H 	H 	0.5949	0.6145	0.7864	0.06
Mof_H 	H 	0.5158	0.528	0.7843	0.067
Mof_H 	H 	0.902	0.8597	0.7601	0.109
Mof_H 	H 	0.9548	0.8889	0.7116	0.05
Mof_H 	H 	0.0335	0.9743	0.7147	0.081
Mof_H 	H 	0.2811	0.6041	0.7192	-0.003
Mof_H 	H 	0.3637	0.5202	0.7085	0.121
Mof_H 	H 	0.3109	0.4906	0.7975	0.114
Mof_H 	H 	0.2152	0.5659	0.8039	-0.029
Mof_H 	H 	0.4047	0.3651	0.7487	0.201
Mof_H 	H 	0.3105	0.3859	0.7358	0.175
Mof_H 	H 	0.333	0.3962	0.773	0.194
Mof_H 	H 	0.3807	0.7	0.709	-0.024
Mof_H 	H 	0.4723	0.6277	0.6869	0.133
Mof_H 	H 	0.6752	0.7412	0.6864	0.158
Mof_H 	H 	0.5772	0.8074	0.7069	-0.01
Mof_H 	H 	0.729	0.6064	0.6344	0.166
Mof_H 	H 	0.7263	0.6731	0.643	0.176
Mof_H 	H 	0.6446	0.6412	0.6238	0.172
Mof_H 	H 	0.1213	0.2841	0.5651	0.013
Mof_H 	H 	0.1456	0.3265	0.6159	0.133
Mof_H 	H 	0.3661	0.401	0.581	0.118
Mof_H 	H 	0.3351	0.3555	0.5328	0.016
Mof_H 	H 	0.2218	0.4448	0.6734	0.147
Mof_H 	H 	0.1503	0.4035	0.6544	0.137
Mof_H 	H 	0.1835	0.4585	0.6399	0.148
Mof_H 	H 	0.3567	0.2865	0.6214	0.1
Mof_H 	H 	0.4749	0.2285	0.6073	0.075
Mof_H 	H 	0.6236	0.2618	0.611	0.135
Mof_H 	H 	0.5846	0.2371	0.386	0.145
Mof_H 	H 	0.4428	0.2751	0.3873	0.079
Mof_H 	H 	0.3187	0.2128	0.3765	0.09
Mof_H 	H 	0.768	0.1061	0.7148	0.005
Mof_H 	H 	0.6822	0.0222	0.7054	0.115
Mof_H 	H 	0.7492	0.9922	0.7942	0.146
Mof_H 	H 	0.8352	0.0733	0.7996	-0.048
Mof_H 	H 	0.7562	0.9019	0.7549	0.171
Mof_H 	H 	0.6934	0.8749	0.7263	0.181
Mof_H 	H 	0.66	0.8762	0.7623	0.215
Mof_H 	H 	0.6671	0.2024	0.7086	-0.029
Mof_H 	H 	0.5774	0.1273	0.6867	0.13
Mof_H 	H 	0.3714	0.2391	0.6866	0.161
Mof_H 	H 	0.4729	0.31	0.7037	-0.011
Mof_H 	H 	0.3165	0.1078	0.6358	0.211
Mof_H 	H 	0.3996	0.1438	0.6253	0.201
Mof_H 	H 	0.3185	0.1742	0.6456	0.212
Mof_H 	H 	0.6006	0.7792	0.058	-0.002
Mof_H 	H 	0.6068	0.8293	0.107	0.126
Mof_H 	H 	0.8398	0.9012	0.0823	0.121
Mof_H 	H 	0.8248	0.8554	0.0305	0.037
Mof_H 	H 	0.6808	0.9438	0.1678	0.154
Mof_H 	H 	0.6521	0.9584	0.1334	0.163
Mof_H 	H 	0.6106	0.9045	0.1468	0.145
Mof_H 	H 	0.0397	0.6113	0.9744	0.043
Mof_H 	H 	0.1166	0.6461	0.9336	0.128
Mof_H 	H 	0.1613	0.4888	0.8928	0.108
Mof_H 	H 	0.0949	0.4564	0.9361	0.029
Mof_H 	H 	0.3238	0.5751	0.8606	0.138
Mof_H 	H 	0.2813	0.5204	0.8728	0.129
Mof_H 	H 	0.3288	0.5672	0.8975	0.138
Mof_H 	H 	0.0597	0.0425	0.0675	0.055
Mof_H 	H 	0.1373	0.0097	0.1086	0.103
Mof_H 	H 	0.0944	0.8498	0.07	0.149
Mof_H 	H 	0.0236	0.8876	0.0286	0.029
Mof_H 	H 	0.2861	0.9166	0.1453	0.152
Mof_H 	H 	0.2986	0.9273	0.1091	0.163
Mof_H 	H 	0.2531	0.9744	0.1341	0.153
Mof_H 	H 	0.1507	0.362	0.7621	0.107
Mof_H 	H 	0.0949	0.3855	0.7136	0.062
Mof_H 	H 	0.0158	0.472	0.7157	0.06
Mof_H 	H 	0.402	0.1403	0.7399	0.104
Mof_H 	H 	0.4548	0.1111	0.7884	0.058
Mof_H 	H 	0.5335	0.0257	0.7853	0.068
Mof_H 	H 	0.7811	0.3959	0.7808	-0.003
Mof_H 	H 	0.8637	0.4798	0.7915	0.123
Mof_H 	H 	0.8109	0.5094	0.7025	0.116
Mof_H 	H 	0.7152	0.4341	0.6961	-0.03
Mof_H 	H 	0.9047	0.6349	0.7513	0.203
Mof_H 	H 	0.8105	0.6141	0.7642	0.175
Mof_H 	H 	0.833	0.6038	0.727	0.194
Mof_H 	H 	0.8807	0.3	0.791	-0.019
Mof_H 	H 	0.9723	0.3723	0.8131	0.126
Mof_H 	H 	0.1752	0.2588	0.8136	0.152
Mof_H 	H 	0.0772	0.1926	0.7931	-0.004
Mof_H 	H 	0.229	0.3936	0.8656	0.166
Mof_H 	H 	0.2263	0.3269	0.857	0.177
Mof_H 	H 	0.1446	0.3588	0.8762	0.171
Mof_H 	H 	0.6213	0.7159	0.9349	0.015
Mof_H 	H 	0.6456	0.6735	0.8841	0.134
Mof_H 	H 	0.8661	0.599	0.919	0.12
Mof_H 	H 	0.8351	0.6445	0.9672	0.018
Mof_H 	H 	0.7218	0.5552	0.8266	0.148
Mof_H 	H 	0.6503	0.5965	0.8456	0.139
Mof_H 	H 	0.6835	0.5415	0.8601	0.15
Mof_H 	H 	0.8567	0.7135	0.8786	0.108
Mof_H 	H 	0.9749	0.7715	0.8927	0.065
Mof_H 	H 	0.1236	0.7382	0.889	0.144
Mof_H 	H 	0.0846	0.7629	0.114	0.151
Mof_H 	H 	0.9428	0.7249	0.1127	0.073
Mof_H 	H 	0.8187	0.7872	0.1235	0.094
Mof_H 	H 	0.732	0.1061	0.2148	0.004
Mof_H 	H 	0.8178	0.0222	0.2054	0.115
Mof_H 	H 	0.7508	0.9922	0.2942	0.146
Mof_H 	H 	0.6648	0.0733	0.2996	-0.05
Mof_H 	H 	0.7438	0.9019	0.2549	0.171
Mof_H 	H 	0.8066	0.8749	0.2263	0.181
Mof_H 	H 	0.84	0.8762	0.2623	0.216
Mof_H 	H 	0.8329	0.2024	0.2086	-0.026
Mof_H 	H 	0.9226	0.1273	0.1867	0.124
Mof_H 	H 	0.1286	0.2391	0.1866	0.155
Mof_H 	H 	0.0271	0.31	0.2037	-0.007
Mof_H 	H 	0.1835	0.1078	0.1358	0.212
Mof_H 	H 	0.1004	0.1438	0.1253	0.2
Mof_H 	H 	0.1815	0.1742	0.1456	0.213
Mof_H 	H 	0.8994	0.7792	0.558	0
Mof_H 	H 	0.8932	0.8293	0.607	0.127
Mof_H 	H 	0.6602	0.9012	0.5823	0.12
Mof_H 	H 	0.6752	0.8554	0.5305	0.037
Mof_H 	H 	0.8192	0.9438	0.6678	0.155
Mof_H 	H 	0.8479	0.9584	0.6334	0.166
Mof_H 	H 	0.8894	0.9045	0.6468	0.147
Mof_H 	H 	0.4603	0.6113	0.4744	0.045
Mof_H 	H 	0.3834	0.6461	0.4336	0.129
Mof_H 	H 	0.3387	0.4888	0.3928	0.108
Mof_H 	H 	0.4051	0.4564	0.4361	0.029
Mof_H 	H 	0.1762	0.5751	0.3606	0.135
Mof_H 	H 	0.2187	0.5204	0.3728	0.127
Mof_H 	H 	0.1712	0.5672	0.3975	0.135
Mof_H 	H 	0.4403	0.0425	0.5675	0.055
Mof_H 	H 	0.3627	0.0097	0.6086	0.107
Mof_H 	H 	0.4056	0.8498	0.57	0.15
Mof_H 	H 	0.4764	0.8876	0.5286	0.032
Mof_H 	H 	0.2139	0.9166	0.6453	0.15
Mof_H 	H 	0.2014	0.9273	0.6091	0.161
Mof_H 	H 	0.2469	0.9744	0.6341	0.151
Mof_H 	H 	0.3493	0.362	0.2621	0.108
Mof_H 	H 	0.4051	0.3855	0.2136	0.06
Mof_H 	H 	0.4842	0.472	0.2157	0.067
Mof_H 	H 	0.098	0.1403	0.2399	0.101
Mof_H 	H 	0.0452	0.1111	0.2884	0.064
Mof_H 	H 	0.9665	0.0257	0.2853	0.064
Mof_H 	H 	0.7189	0.3959	0.2808	-0.002
Mof_H 	H 	0.6363	0.4798	0.2915	0.121
Mof_H 	H 	0.6891	0.5094	0.2025	0.114
Mof_H 	H 	0.7848	0.4341	0.1961	-0.031
Mof_H 	H 	0.5953	0.6349	0.2513	0.201
Mof_H 	H 	0.6895	0.6141	0.2642	0.175
Mof_H 	H 	0.667	0.6038	0.227	0.193
Mof_H 	H 	0.6193	0.3	0.291	-0.023
Mof_H 	H 	0.5277	0.3723	0.3131	0.133
Mof_H 	H 	0.3248	0.2588	0.3136	0.158
Mof_H 	H 	0.4228	0.1926	0.2931	-0.01
Mof_H 	H 	0.271	0.3936	0.3656	0.165
Mof_H 	H 	0.2737	0.3269	0.357	0.175
Mof_H 	H 	0.3554	0.3588	0.3762	0.172
Mof_H 	H 	0.8787	0.7159	0.4349	0.016
Mof_H 	H 	0.8544	0.6735	0.3841	0.134
Mof_H 	H 	0.6339	0.599	0.419	0.118
Mof_H 	H 	0.6649	0.6445	0.4672	0.016
Mof_H 	H 	0.7782	0.5552	0.3266	0.149
Mof_H 	H 	0.8497	0.5965	0.3456	0.14
Mof_H 	H 	0.8165	0.5415	0.3601	0.152
Mof_H 	H 	0.6433	0.7135	0.3786	0.1
Mof_H 	H 	0.5251	0.7715	0.3927	0.075
Mof_H 	H 	0.3764	0.7382	0.389	0.134
Mof_H 	H 	0.4154	0.7629	0.614	0.144
Mof_H 	H 	0.5572	0.7249	0.6127	0.079
Mof_H 	H 	0.6813	0.7872	0.6235	0.09
Mof_H 	H 	0.232	0.8939	0.2852	0.012
Mof_H 	H 	0.3178	0.9778	0.2946	0.104
Mof_H 	H 	0.2508	0.0078	0.2058	0.106
Mof_H 	H 	0.1648	0.9267	0.2004	-0.036
Mof_H 	H 	0.2438	0.0981	0.2451	0.173
Mof_H 	H 	0.3066	0.1251	0.2737	0.183
Mof_H 	H 	0.34	0.1238	0.2377	0.216
Mof_H 	H 	0.3329	0.7976	0.2914	-0.03
Mof_H 	H 	0.4226	0.8727	0.3133	0.131
Mof_H 	H 	0.6286	0.7609	0.3134	0.161
Mof_H 	H 	0.5271	0.69	0.2963	-0.011
Mof_H 	H 	0.6835	0.8922	0.3642	0.213
Mof_H 	H 	0.6004	0.8562	0.3747	0.202
Mof_H 	H 	0.6815	0.8258	0.3544	0.213
Mof_H 	H 	0.3994	0.2208	0.942	-0.001
Mof_H 	H 	0.3932	0.1707	0.893	0.126
Mof_H 	H 	0.1602	0.0988	0.9177	0.116
Mof_H 	H 	0.1752	0.1446	0.9695	0.036
Mof_H 	H 	0.3192	0.0562	0.8322	0.149
Mof_H 	H 	0.3479	0.0416	0.8666	0.157
Mof_H 	H 	0.3894	0.0955	0.8532	0.142
Mof_H 	H 	0.9603	0.3887	0.0256	0.049
Mof_H 	H 	0.8834	0.3539	0.0664	0.13
Mof_H 	H 	0.8387	0.5112	0.1072	0.108
Mof_H 	H 	0.9051	0.5436	0.0639	0.031
Mof_H 	H 	0.6762	0.4249	0.1394	0.137
Mof_H 	H 	0.7187	0.4796	0.1272	0.129
Mof_H 	H 	0.6712	0.4328	0.1025	0.137
Mof_H 	H 	0.9403	0.9575	0.9325	0.038
Mof_H 	H 	0.8627	0.9903	0.8914	0.145
Mof_H 	H 	0.9056	0.1502	0.93	0.16
Mof_H 	H 	0.9764	0.1124	0.9714	0.033
Mof_H 	H 	0.7139	0.0834	0.8547	0.149
Mof_H 	H 	0.7014	0.0727	0.8909	0.158
Mof_H 	H 	0.7469	0.0256	0.8659	0.144
Mof_H 	H 	0.8493	0.638	0.2379	0.11
Mof_H 	H 	0.9051	0.6145	0.2864	0.059
Mof_H 	H 	0.9842	0.528	0.2843	0.073
Mof_H 	H 	0.598	0.8597	0.2601	0.106
Mof_H 	H 	0.5452	0.8889	0.2116	0.055
Mof_H 	H 	0.4665	0.9743	0.2147	0.077
Mof_H 	H 	0.2189	0.6041	0.2192	-0.002
Mof_H 	H 	0.1363	0.5202	0.2085	0.119
Mof_H 	H 	0.1891	0.4906	0.2975	0.113
Mof_H 	H 	0.2848	0.5659	0.3039	-0.03
Mof_H 	H 	0.0953	0.3651	0.2487	0.2
Mof_H 	H 	0.1895	0.3859	0.2358	0.176
Mof_H 	H 	0.167	0.3962	0.273	0.193
Mof_H 	H 	0.1193	0.7	0.209	-0.027
Mof_H 	H 	0.0277	0.6277	0.1869	0.139
Mof_H 	H 	0.8248	0.7412	0.1864	0.164
Mof_H 	H 	0.9228	0.8074	0.2069	-0.015
Mof_H 	H 	0.771	0.6064	0.1344	0.165
Mof_H 	H 	0.7737	0.6731	0.143	0.175
Mof_H 	H 	0.8554	0.6412	0.1238	0.173
Mof_H 	H 	0.3787	0.2841	0.0651	0.015
Mof_H 	H 	0.3544	0.3265	0.1159	0.134
Mof_H 	H 	0.1339	0.401	0.081	0.116
Mof_H 	H 	0.1649	0.3555	0.0328	0.015
Mof_H 	H 	0.2782	0.4448	0.1734	0.148
Mof_H 	H 	0.3497	0.4035	0.1544	0.139
Mof_H 	H 	0.3165	0.4585	0.1399	0.15
Mof_H 	H 	0.1433	0.2865	0.1214	0.091
Mof_H 	H 	0.0251	0.2285	0.1073	0.085
Mof_H 	H 	0.8764	0.2618	0.111	0.125
Mof_H 	H 	0.9154	0.2371	0.886	0.136
Mof_H 	H 	0.0572	0.2751	0.8873	0.087
Mof_H 	H 	0.1813	0.2128	0.8765	0.086
Mof_C 	C 	0.265	0.9184	0.7693	0.087
Mof_C 	C 	0.2128	0.968	0.775	-0.146
Mof_C 	C 	0.2082	0.0025	0.7501	0.14
Mof_C 	C 	0.2527	0.986	0.723	-0.182
Mof_C 	C 	0.3039	0.9369	0.7198	0.141
Mof_C 	C 	0.1938	0.1035	0.7525	-0.365
Mof_C 	C 	0.0607	0.0509	0.7645	0.176
Mof_C 	C 	0.1063	0.7905	0.7968	0.177
Mof_C 	C 	0.054	0.8357	0.8094	-0.22
Mof_C 	C 	0.9634	0.8228	0.8158	0.232
Mof_C 	C 	0.9329	0.7695	0.81	-0.234
Mof_C 	C 	0.9928	0.7279	0.799	0.193
Mof_C 	C 	0.8554	0.8598	0.8578	-0.377
Mof_C 	C 	0.9026	0.9194	0.8199	0.201
Mof_C 	C 	0.15	0.196	0.4372	0.129
Mof_C 	C 	0.1541	0.1679	0.4078	-0.181
Mof_C 	C 	0.2317	0.1335	0.3993	0.175
Mof_C 	C 	0.2915	0.1245	0.4226	-0.166
Mof_C 	C 	0.2832	0.1521	0.4535	0.12
Mof_C 	C 	0.1645	0.0721	0.3539	-0.299
Mof_C 	C 	0.3189	0.1037	0.3523	0.18
Mof_C 	C 	0.5661	0.414	0.5421	0.113
Mof_C 	C 	0.6126	0.3933	0.5662	-0.17
Mof_C 	C 	0.6543	0.4295	0.5904	0.158
Mof_C 	C 	0.6406	0.4853	0.59	-0.194
Mof_C 	C 	0.5973	0.5044	0.5649	0.124
Mof_C 	C 	0.792	0.4393	0.6218	-0.295
Mof_C 	C 	0.6801	0.3673	0.6318	0.156
Mof_C 	C 	0.5672	0.9967	0.4324	0.168
Mof_C 	C 	0.611	0.0163	0.4074	-0.234
Mof_C 	C 	0.6173	0.0713	0.4053	0.186
Mof_C 	C 	0.5874	0.1109	0.43	-0.2
Mof_C 	C 	0.5462	0.0867	0.4543	0.144
Mof_C 	C 	0.7594	0.066	0.3722	-0.314
Mof_C 	C 	0.6427	0.1336	0.3643	0.145
Mof_C 	C 	0.6052	0.5694	0.7094	0.032
Mof_C 	C 	0.6182	0.604	0.7382	-0.079
Mof_C 	C 	0.5859	0.5908	0.767	0.014
Mof_C 	C 	0.539	0.54	0.7653	-0.077
Mof_C 	C 	0.5259	0.5073	0.7369	0.033
Mof_C 	C 	0.9463	0.9302	0.789	0.039
Mof_C 	C 	0.9325	0.8944	0.76	-0.095
Mof_C 	C 	0.9643	0.9112	0.7314	0.046
Mof_C 	C 	0.01	0.9614	0.7333	-0.113
Mof_C 	C 	0.0208	0.9914	0.7614	0.045
Mof_C 	C 	0.2853	0.5804	0.7355	0.129
Mof_C 	C 	0.3367	0.5296	0.7288	-0.212
Mof_C 	C 	0.3458	0.4968	0.7506	0.184
Mof_C 	C 	0.3025	0.5127	0.7806	-0.2
Mof_C 	C 	0.2496	0.5587	0.785	0.122
Mof_C 	C 	0.3585	0.3945	0.7516	-0.357
Mof_C 	C 	0.4816	0.4494	0.7351	0.167
Mof_C 	C 	0.4416	0.7083	0.7043	0.163
Mof_C 	C 	0.4957	0.6647	0.6911	-0.202
Mof_C 	C 	0.5825	0.6757	0.6844	0.208
Mof_C 	C 	0.6146	0.7317	0.6908	-0.211
Mof_C 	C 	0.5559	0.7699	0.7032	0.181
Mof_C 	C 	0.6898	0.6389	0.6405	-0.33
Mof_C 	C 	0.64	0.5794	0.6792	0.169
Mof_C 	C 	0.1732	0.3073	0.5686	0.138
Mof_C 	C 	0.1858	0.333	0.5993	-0.181
Mof_C 	C 	0.2608	0.3697	0.6052	0.179
Mof_C 	C 	0.3156	0.3765	0.5786	-0.184
Mof_C 	C 	0.2968	0.3489	0.5499	0.125
Mof_C 	C 	0.2017	0.4284	0.6523	-0.296
Mof_C 	C 	0.3615	0.3972	0.6483	0.186
Mof_C 	C 	0.43	0.3559	0.6344	0.032
Mof_C 	C 	0.4164	0.3008	0.6232	-0.094
Mof_C 	C 	0.4862	0.2667	0.6147	0.051
Mof_C 	C 	0.5737	0.2858	0.6165	-0.097
Mof_C 	C 	0.5843	0.3434	0.6272	0.053
Mof_C 	C 	0.5505	0.1571	0.3686	0.036
Mof_C 	C 	0.5345	0.2137	0.3796	-0.079
Mof_C 	C 	0.4518	0.236	0.3814	0.061
Mof_C 	C 	0.379	0.1995	0.3744	-0.096
Mof_C 	C 	0.3965	0.1435	0.3641	0.055
Mof_C 	C 	0.3778	0.6033	0.6056	0.791
Mof_C 	C 	0.341	0.8968	0.3949	0.753
Mof_C 	C 	0.014	0.2934	0.9691	0.835
Mof_C 	C 	0.765	0.0816	0.7307	0.11
Mof_C 	C 	0.7128	0.032	0.725	-0.196
Mof_C 	C 	0.7082	0.9975	0.7499	0.21
Mof_C 	C 	0.7527	0.014	0.777	-0.271
Mof_C 	C 	0.8039	0.0631	0.7802	0.183
Mof_C 	C 	0.6938	0.8965	0.7475	-0.359
Mof_C 	C 	0.5607	0.9491	0.7355	0.197
Mof_C 	C 	0.6063	0.2095	0.7032	0.168
Mof_C 	C 	0.554	0.1643	0.6906	-0.195
Mof_C 	C 	0.4634	0.1772	0.6842	0.211
Mof_C 	C 	0.4329	0.2305	0.69	-0.218
Mof_C 	C 	0.4928	0.2721	0.701	0.172
Mof_C 	C 	0.3554	0.1402	0.6422	-0.376
Mof_C 	C 	0.4026	0.0806	0.6801	0.201
Mof_C 	C 	0.65	0.804	0.0628	0.13
Mof_C 	C 	0.6541	0.8321	0.0922	-0.181
Mof_C 	C 	0.7317	0.8665	0.1007	0.177
Mof_C 	C 	0.7915	0.8755	0.0774	-0.166
Mof_C 	C 	0.7832	0.8479	0.0465	0.123
Mof_C 	C 	0.6645	0.9279	0.1461	-0.308
Mof_C 	C 	0.8189	0.8963	0.1477	0.179
Mof_C 	C 	0.0661	0.586	0.9579	0.111
Mof_C 	C 	0.1126	0.6067	0.9338	-0.171
Mof_C 	C 	0.1543	0.5705	0.9096	0.157
Mof_C 	C 	0.1406	0.5147	0.91	-0.195
Mof_C 	C 	0.0973	0.4956	0.9351	0.122
Mof_C 	C 	0.292	0.5607	0.8782	-0.292
Mof_C 	C 	0.1801	0.6327	0.8682	0.153
Mof_C 	C 	0.0672	0.0033	0.0676	0.09
Mof_C 	C 	0.111	0.9837	0.0926	-0.139
Mof_C 	C 	0.1173	0.9287	0.0947	0.145
Mof_C 	C 	0.0874	0.8891	0.07	-0.173
Mof_C 	C 	0.0462	0.9133	0.0457	0.128
Mof_C 	C 	0.2594	0.934	0.1278	-0.321
Mof_C 	C 	0.1427	0.8664	0.1357	0.141
Mof_C 	C 	0.1052	0.4306	0.7906	0.029
Mof_C 	C 	0.1182	0.396	0.7618	-0.076
Mof_C 	C 	0.0859	0.4092	0.733	0.006
Mof_C 	C 	0.039	0.46	0.7347	-0.067
Mof_C 	C 	0.0259	0.4927	0.7631	0.014
Mof_C 	C 	0.4463	0.0698	0.711	0.03
Mof_C 	C 	0.4325	0.1056	0.74	-0.082
Mof_C 	C 	0.4643	0.0888	0.7686	0.015
Mof_C 	C 	0.51	0.0386	0.7667	-0.08
Mof_C 	C 	0.5208	0.0086	0.7386	0.024
Mof_C 	C 	0.7853	0.4196	0.7645	0.131
Mof_C 	C 	0.8367	0.4704	0.7712	-0.213
Mof_C 	C 	0.8458	0.5032	0.7494	0.188
Mof_C 	C 	0.8025	0.4873	0.7194	-0.201
Mof_C 	C 	0.7496	0.4413	0.715	0.124
Mof_C 	C 	0.8585	0.6055	0.7484	-0.355
Mof_C 	C 	0.9816	0.5506	0.7649	0.194
Mof_C 	C 	0.9416	0.2917	0.7957	0.152
Mof_C 	C 	0.9957	0.3353	0.8089	-0.17
Mof_C 	C 	0.0825	0.3243	0.8156	0.181
Mof_C 	C 	0.1146	0.2683	0.8092	-0.19
Mof_C 	C 	0.0559	0.2301	0.7968	0.156
Mof_C 	C 	0.1898	0.3611	0.8595	-0.331
Mof_C 	C 	0.14	0.4206	0.8208	0.167
Mof_C 	C 	0.6732	0.6927	0.9314	0.138
Mof_C 	C 	0.6858	0.667	0.9007	-0.18
Mof_C 	C 	0.7608	0.6303	0.8948	0.179
Mof_C 	C 	0.8156	0.6235	0.9214	-0.184
Mof_C 	C 	0.7968	0.6511	0.9501	0.126
Mof_C 	C 	0.7017	0.5716	0.8477	-0.299
Mof_C 	C 	0.8615	0.6028	0.8517	0.181
Mof_C 	C 	0.93	0.6441	0.8656	0.051
Mof_C 	C 	0.9164	0.6992	0.8768	-0.118
Mof_C 	C 	0.9862	0.7333	0.8853	0.088
Mof_C 	C 	0.0737	0.7142	0.8835	-0.129
Mof_C 	C 	0.0843	0.6566	0.8728	0.062
Mof_C 	C 	0.0505	0.8429	0.1314	0.037
Mof_C 	C 	0.0345	0.7863	0.1204	-0.103
Mof_C 	C 	0.9518	0.764	0.1186	0.087
Mof_C 	C 	0.879	0.8005	0.1256	-0.107
Mof_C 	C 	0.8965	0.8565	0.1359	0.061
Mof_C 	C 	0.8778	0.3967	0.8944	0.791
Mof_C 	C 	0.841	0.1032	0.1051	0.753
Mof_C 	C 	0.514	0.7066	0.5309	0.846
Mof_C 	C 	0.735	0.0816	0.2307	0.109
Mof_C 	C 	0.7872	0.032	0.225	-0.196
Mof_C 	C 	0.7918	0.9975	0.2499	0.209
Mof_C 	C 	0.7473	0.014	0.277	-0.271
Mof_C 	C 	0.6961	0.0631	0.2802	0.183
Mof_C 	C 	0.8062	0.8965	0.2475	-0.36
Mof_C 	C 	0.9393	0.9491	0.2355	0.195
Mof_C 	C 	0.8937	0.2095	0.2032	0.159
Mof_C 	C 	0.946	0.1643	0.1906	-0.168
Mof_C 	C 	0.0366	0.1772	0.1842	0.188
Mof_C 	C 	0.0671	0.2305	0.19	-0.2
Mof_C 	C 	0.0072	0.2721	0.201	0.15
Mof_C 	C 	0.1446	0.1402	0.1422	-0.377
Mof_C 	C 	0.0974	0.0806	0.1801	0.199
Mof_C 	C 	0.85	0.804	0.5628	0.131
Mof_C 	C 	0.8459	0.8321	0.5922	-0.18
Mof_C 	C 	0.7683	0.8665	0.6007	0.177
Mof_C 	C 	0.7085	0.8755	0.5774	-0.165
Mof_C 	C 	0.7168	0.8479	0.5465	0.123
Mof_C 	C 	0.8355	0.9279	0.6461	-0.31
Mof_C 	C 	0.6811	0.8963	0.6477	0.18
Mof_C 	C 	0.4339	0.586	0.4579	0.112
Mof_C 	C 	0.3874	0.6067	0.4338	-0.171
Mof_C 	C 	0.3457	0.5705	0.4096	0.157
Mof_C 	C 	0.3594	0.5147	0.41	-0.195
Mof_C 	C 	0.4027	0.4956	0.4351	0.123
Mof_C 	C 	0.208	0.5607	0.3782	-0.288
Mof_C 	C 	0.3199	0.6327	0.3682	0.156
Mof_C 	C 	0.4328	0.0033	0.5676	0.096
Mof_C 	C 	0.389	0.9837	0.5926	-0.144
Mof_C 	C 	0.3827	0.9287	0.5947	0.149
Mof_C 	C 	0.4126	0.8891	0.57	-0.174
Mof_C 	C 	0.4538	0.9133	0.5457	0.13
Mof_C 	C 	0.2406	0.934	0.6278	-0.318
Mof_C 	C 	0.3573	0.8664	0.6357	0.144
Mof_C 	C 	0.3948	0.4306	0.2906	0.032
Mof_C 	C 	0.3818	0.396	0.2618	-0.079
Mof_C 	C 	0.4141	0.4092	0.233	0.014
Mof_C 	C 	0.461	0.46	0.2347	-0.077
Mof_C 	C 	0.4741	0.4927	0.2631	0.033
Mof_C 	C 	0.0537	0.0698	0.211	0.024
Mof_C 	C 	0.0675	0.1056	0.24	-0.074
Mof_C 	C 	0.0357	0.0888	0.2686	-0.009
Mof_C 	C 	0.99	0.0386	0.2667	-0.059
Mof_C 	C 	0.9792	0.0086	0.2386	0.029
Mof_C 	C 	0.7147	0.4196	0.2645	0.129
Mof_C 	C 	0.6633	0.4704	0.2712	-0.212
Mof_C 	C 	0.6542	0.5032	0.2494	0.185
Mof_C 	C 	0.6975	0.4873	0.2194	-0.201
Mof_C 	C 	0.7504	0.4413	0.215	0.123
Mof_C 	C 	0.6415	0.6055	0.2484	-0.357
Mof_C 	C 	0.5184	0.5506	0.2649	0.167
Mof_C 	C 	0.5584	0.2917	0.2957	0.163
Mof_C 	C 	0.5043	0.3353	0.3089	-0.202
Mof_C 	C 	0.4175	0.3243	0.3156	0.208
Mof_C 	C 	0.3854	0.2683	0.3092	-0.211
Mof_C 	C 	0.4441	0.2301	0.2968	0.181
Mof_C 	C 	0.3102	0.3611	0.3595	-0.329
Mof_C 	C 	0.36	0.4206	0.3208	0.169
Mof_C 	C 	0.8268	0.6927	0.4314	0.139
Mof_C 	C 	0.8142	0.667	0.4007	-0.18
Mof_C 	C 	0.7392	0.6303	0.3948	0.179
Mof_C 	C 	0.6844	0.6235	0.4214	-0.184
Mof_C 	C 	0.7032	0.6511	0.4501	0.126
Mof_C 	C 	0.7983	0.5716	0.3477	-0.3
Mof_C 	C 	0.6385	0.6028	0.3517	0.186
Mof_C 	C 	0.57	0.6441	0.3656	0.031
Mof_C 	C 	0.5836	0.6992	0.3768	-0.094
Mof_C 	C 	0.5138	0.7333	0.3853	0.05
Mof_C 	C 	0.4263	0.7142	0.3835	-0.096
Mof_C 	C 	0.4157	0.6566	0.3728	0.052
Mof_C 	C 	0.4495	0.8429	0.6314	0.037
Mof_C 	C 	0.4655	0.7863	0.6204	-0.079
Mof_C 	C 	0.5482	0.764	0.6186	0.061
Mof_C 	C 	0.621	0.8005	0.6256	-0.096
Mof_C 	C 	0.6035	0.8565	0.6359	0.055
Mof_C 	C 	0.6222	0.3967	0.3944	0.791
Mof_C 	C 	0.659	0.1032	0.6051	0.753
Mof_C 	C 	0.986	0.7066	0.0309	0.856
Mof_C 	C 	0.235	0.9184	0.2693	0.087
Mof_C 	C 	0.2872	0.968	0.275	-0.147
Mof_C 	C 	0.2918	0.0025	0.2501	0.14
Mof_C 	C 	0.2473	0.986	0.223	-0.182
Mof_C 	C 	0.1961	0.9369	0.2198	0.142
Mof_C 	C 	0.3062	0.1035	0.2525	-0.366
Mof_C 	C 	0.4393	0.0509	0.2645	0.178
Mof_C 	C 	0.3937	0.7905	0.2968	0.168
Mof_C 	C 	0.446	0.8357	0.3094	-0.195
Mof_C 	C 	0.5366	0.8228	0.3158	0.211
Mof_C 	C 	0.5671	0.7695	0.31	-0.218
Mof_C 	C 	0.5072	0.7279	0.299	0.172
Mof_C 	C 	0.6446	0.8598	0.3578	-0.378
Mof_C 	C 	0.5974	0.9194	0.3199	0.2
Mof_C 	C 	0.35	0.196	0.9372	0.129
Mof_C 	C 	0.3459	0.1679	0.9078	-0.18
Mof_C 	C 	0.2683	0.1335	0.8993	0.175
Mof_C 	C 	0.2085	0.1245	0.9226	-0.165
Mof_C 	C 	0.2168	0.1521	0.9535	0.121
Mof_C 	C 	0.3355	0.0721	0.8539	-0.302
Mof_C 	C 	0.1811	0.1037	0.8523	0.182
Mof_C 	C 	0.9339	0.414	0.0421	0.113
Mof_C 	C 	0.8874	0.3933	0.0662	-0.169
Mof_C 	C 	0.8457	0.4295	0.0904	0.157
Mof_C 	C 	0.8594	0.4853	0.09	-0.193
Mof_C 	C 	0.9027	0.5044	0.0649	0.125
Mof_C 	C 	0.708	0.4393	0.1218	-0.291
Mof_C 	C 	0.8199	0.3673	0.1318	0.159
Mof_C 	C 	0.9328	0.9967	0.9324	0.164
Mof_C 	C 	0.889	0.0163	0.9074	-0.225
Mof_C 	C 	0.8827	0.0713	0.9053	0.185
Mof_C 	C 	0.9126	0.1109	0.93	-0.195
Mof_C 	C 	0.9538	0.0867	0.9543	0.144
Mof_C 	C 	0.7406	0.066	0.8722	-0.312
Mof_C 	C 	0.8573	0.1336	0.8643	0.148
Mof_C 	C 	0.8948	0.5694	0.2094	0.035
Mof_C 	C 	0.8818	0.604	0.2382	-0.082
Mof_C 	C 	0.9141	0.5908	0.267	0.021
Mof_C 	C 	0.961	0.54	0.2653	-0.085
Mof_C 	C 	0.9741	0.5073	0.2369	0.05
Mof_C 	C 	0.5537	0.9302	0.289	0.034
Mof_C 	C 	0.5675	0.8944	0.26	-0.087
Mof_C 	C 	0.5357	0.9112	0.2314	0.025
Mof_C 	C 	0.49	0.9614	0.2333	-0.093
Mof_C 	C 	0.4792	0.9914	0.2614	0.047
Mof_C 	C 	0.2147	0.5804	0.2355	0.127
Mof_C 	C 	0.1633	0.5296	0.2288	-0.21
Mof_C 	C 	0.1542	0.4968	0.2506	0.181
Mof_C 	C 	0.1975	0.5127	0.2806	-0.2
Mof_C 	C 	0.2504	0.5587	0.285	0.121
Mof_C 	C 	0.1415	0.3945	0.2516	-0.359
Mof_C 	C 	0.0184	0.4494	0.2351	0.143
Mof_C 	C 	0.0584	0.7083	0.2043	0.172
Mof_C 	C 	0.0043	0.6647	0.1911	-0.227
Mof_C 	C 	0.9175	0.6757	0.1844	0.229
Mof_C 	C 	0.8854	0.7317	0.1908	-0.227
Mof_C 	C 	0.9441	0.7699	0.2032	0.201
Mof_C 	C 	0.8102	0.6389	0.1405	-0.328
Mof_C 	C 	0.86	0.5794	0.1792	0.171
Mof_C 	C 	0.3268	0.3073	0.0686	0.138
Mof_C 	C 	0.3142	0.333	0.0993	-0.18
Mof_C 	C 	0.2392	0.3697	0.1052	0.179
Mof_C 	C 	0.1844	0.3765	0.0786	-0.184
Mof_C 	C 	0.2032	0.3489	0.0499	0.125
Mof_C 	C 	0.2983	0.4284	0.1523	-0.298
Mof_C 	C 	0.1385	0.3972	0.1483	0.191
Mof_C 	C 	0.07	0.3559	0.1344	0.012
Mof_C 	C 	0.0836	0.3008	0.1232	-0.069
Mof_C 	C 	0.0138	0.2667	0.1147	0.011
Mof_C 	C 	0.9263	0.2858	0.1165	-0.062
Mof_C 	C 	0.9157	0.3434	0.1272	0.043
Mof_C 	C 	0.9495	0.1571	0.8686	0.038
Mof_C 	C 	0.9655	0.2137	0.8796	-0.049
Mof_C 	C 	0.0482	0.236	0.8814	0.029
Mof_C 	C 	0.121	0.1995	0.8744	-0.082
Mof_C 	C 	0.1035	0.1435	0.8641	0.048
Mof_C 	C 	0.1222	0.6033	0.1056	0.79
Mof_C 	C 	0.159	0.8968	0.8949	0.753
Mof_C 	C 	0.486	0.2934	0.4691	0.846
Mof_S 	S 	0.3832	0.54947	0.63235	0.329
Mof_S 	S 	0.341	0.95108	0.37011	0.342
Mof_S 	S 	0.0987	0.34404	0.96241	0.375
Mof_S 	S 	0.8832	0.45053	0.86765	0.328
Mof_S 	S 	0.841	0.04892	0.12989	0.343
Mof_S 	S 	0.5987	0.65596	0.53759	0.374
Mof_S 	S 	0.6168	0.45053	0.36765	0.329
Mof_S 	S 	0.659	0.04892	0.62989	0.343
Mof_S 	S 	0.9013	0.65596	0.03759	0.371
Mof_S 	S 	0.1168	0.54947	0.13235	0.329
Mof_S 	S 	0.159	0.95108	0.87011	0.342
Mof_S 	S 	0.4013	0.34404	0.46241	0.374
Mof_N 	N 	0.3112	0.9052	0.7414	-0.221
Mof_N 	N 	0.1526	0.0501	0.7541	-0.104
Mof_N 	N 	0.0778	0.739	0.792	-0.236
Mof_N 	N 	0.9032	0.8677	0.8281	-0.109
Mof_N 	N 	0.2122	0.1917	0.461	-0.204
Mof_N 	N 	0.241	0.1069	0.3684	-0.122
Mof_N 	N 	0.5575	0.4689	0.5414	-0.209
Mof_N 	N 	0.7033	0.4095	0.6163	-0.134
Mof_N 	N 	0.534	0.0332	0.4573	-0.226
Mof_N 	N 	0.669	0.091	0.38	-0.128
Mof_N 	N 	0.561	0.5209	0.7097	-0.17
Mof_N 	N 	0.9868	0.9792	0.7891	-0.164
Mof_N 	N 	0.2443	0.5963	0.7622	-0.225
Mof_N 	N 	0.3989	0.4482	0.7475	-0.118
Mof_N 	N 	0.4693	0.7614	0.711	-0.226
Mof_N 	N 	0.6442	0.6326	0.6707	-0.101
Mof_N 	N 	0.2262	0.3112	0.5431	-0.221
Mof_N 	N 	0.2791	0.3949	0.6352	-0.126
Mof_N 	N 	0.5191	0.3777	0.6362	-0.181
Mof_N 	N 	0.4761	0.1212	0.3617	-0.183
Mof_N 	N 	0.8112	0.0948	0.7586	-0.234
Mof_N 	N 	0.6526	0.9499	0.7459	-0.116
Mof_N 	N 	0.5778	0.261	0.708	-0.226
Mof_N 	N 	0.4032	0.1323	0.6719	-0.107
Mof_N 	N 	0.7122	0.8083	0.039	-0.205
Mof_N 	N 	0.741	0.8931	0.1316	-0.12
Mof_N 	N 	0.0575	0.5311	0.9586	-0.207
Mof_N 	N 	0.2033	0.5905	0.8837	-0.134
Mof_N 	N 	0.034	0.9668	0.0427	-0.201
Mof_N 	N 	0.169	0.909	0.12	-0.121
Mof_N 	N 	0.061	0.4791	0.7903	-0.168
Mof_N 	N 	0.4868	0.0208	0.7109	-0.174
Mof_N 	N 	0.7443	0.4037	0.7378	-0.225
Mof_N 	N 	0.8989	0.5518	0.7525	-0.121
Mof_N 	N 	0.9693	0.2386	0.789	-0.214
Mof_N 	N 	0.1442	0.3674	0.8293	-0.098
Mof_N 	N 	0.7262	0.6888	0.9569	-0.221
Mof_N 	N 	0.7791	0.6051	0.8648	-0.125
Mof_N 	N 	0.0191	0.6223	0.8638	-0.191
Mof_N 	N 	0.9761	0.8788	0.1383	-0.182
Mof_N 	N 	0.6888	0.0948	0.2586	-0.234
Mof_N 	N 	0.8474	0.9499	0.2459	-0.116
Mof_N 	N 	0.9222	0.261	0.208	-0.215
Mof_N 	N 	0.0968	0.1323	0.1719	-0.104
Mof_N 	N 	0.7878	0.8083	0.539	-0.203
Mof_N 	N 	0.759	0.8931	0.6316	-0.12
Mof_N 	N 	0.4425	0.5311	0.4586	-0.209
Mof_N 	N 	0.2967	0.5905	0.3837	-0.135
Mof_N 	N 	0.466	0.9668	0.5427	-0.204
Mof_N 	N 	0.331	0.909	0.62	-0.121
Mof_N 	N 	0.439	0.4791	0.2903	-0.17
Mof_N 	N 	0.0132	0.0208	0.2109	-0.183
Mof_N 	N 	0.7557	0.4037	0.2378	-0.225
Mof_N 	N 	0.6011	0.5518	0.2525	-0.118
Mof_N 	N 	0.5307	0.2386	0.289	-0.226
Mof_N 	N 	0.3558	0.3674	0.3293	-0.102
Mof_N 	N 	0.7738	0.6888	0.4569	-0.221
Mof_N 	N 	0.7209	0.6051	0.3648	-0.126
Mof_N 	N 	0.4809	0.6223	0.3638	-0.181
Mof_N 	N 	0.5239	0.8788	0.6383	-0.184
Mof_N 	N 	0.1888	0.9052	0.2414	-0.221
Mof_N 	N 	0.3474	0.0501	0.2541	-0.104
Mof_N 	N 	0.4222	0.739	0.292	-0.226
Mof_N 	N 	0.5968	0.8677	0.3281	-0.106
Mof_N 	N 	0.2878	0.1917	0.961	-0.202
Mof_N 	N 	0.259	0.1069	0.8684	-0.122
Mof_N 	N 	0.9425	0.4689	0.0414	-0.203
Mof_N 	N 	0.7967	0.4095	0.1163	-0.135
Mof_N 	N 	0.966	0.0332	0.9573	-0.217
Mof_N 	N 	0.831	0.091	0.88	-0.128
Mof_N 	N 	0.939	0.5209	0.2097	-0.173
Mof_N 	N 	0.5132	0.9792	0.2891	-0.172
Mof_N 	N 	0.2557	0.5963	0.2622	-0.225
Mof_N 	N 	0.1011	0.4482	0.2475	-0.114
Mof_N 	N 	0.0307	0.7614	0.211	-0.235
Mof_N 	N 	0.8558	0.6326	0.1707	-0.104
Mof_N 	N 	0.2738	0.3112	0.0431	-0.221
Mof_N 	N 	0.2209	0.3949	0.1352	-0.127
Mof_N 	N 	0.9809	0.3777	0.1362	-0.172
Mof_N 	N 	0.0239	0.1212	0.8617	-0.186
Mof_O 	O 	0.0241	0.0927	0.774	-0.288
Mof_O 	O 	0.864	0.9577	0.83509	-0.263
Mof_O 	O 	0.3313	0.0711	0.32819	-0.261
Mof_O 	O 	0.7304	0.346	0.6498	-0.221
Mof_O 	O 	0.6925	0.1536	0.3439	-0.211
Mof_O 	O 	0.5252	0.4056	0.725	-0.272
Mof_O 	O 	0.6805	0.5411	0.6618	-0.254
Mof_O 	O 	0.3776	0.4281	0.6731	-0.259
Mof_O 	O 	0.4783	0.5481	0.6402	-0.259
Mof_O 	O 	0.3487	0.5001	0.6133	-0.196
Mof_O 	O 	0.3276	0.5713	0.6584	-0.196
Mof_O 	O 	0.4333	0.9535	0.3599	-0.26
Mof_O 	O 	0.3139	0.999	0.3905	-0.191
Mof_O 	O 	0.2839	0.9304	0.3446	-0.2
Mof_O 	O 	0.1775	0.319	0.9729	-0.272
Mof_O 	O 	0.0728	0.3937	0.9822	-0.246
Mof_O 	O 	0.0965	0.3467	0.929	-0.182
Mof_O 	O 	0.5241	0.9073	0.726	-0.288
Mof_O 	O 	0.364	0.0423	0.66491	-0.271
Mof_O 	O 	0.8313	0.9289	0.17181	-0.259
Mof_O 	O 	0.2304	0.654	0.8502	-0.222
Mof_O 	O 	0.1925	0.8464	0.1561	-0.212
Mof_O 	O 	0.0252	0.5944	0.775	-0.288
Mof_O 	O 	0.1805	0.4589	0.8382	-0.254
Mof_O 	O 	0.8776	0.5719	0.8269	-0.254
Mof_O 	O 	0.9783	0.4519	0.8598	-0.25
Mof_O 	O 	0.8487	0.4999	0.8867	-0.193
Mof_O 	O 	0.8276	0.4287	0.8416	-0.194
Mof_O 	O 	0.9333	0.0465	0.1401	-0.263
Mof_O 	O 	0.8139	0.001	0.1095	-0.199
Mof_O 	O 	0.7839	0.0696	0.1554	-0.202
Mof_O 	O 	0.6775	0.681	0.5271	-0.273
Mof_O 	O 	0.5728	0.6063	0.5178	-0.245
Mof_O 	O 	0.5965	0.6533	0.571	-0.179
Mof_O 	O 	0.9759	0.9073	0.226	-0.284
Mof_O 	O 	0.136	0.0423	0.16491	-0.273
Mof_O 	O 	0.6687	0.9289	0.67181	-0.259
Mof_O 	O 	0.2696	0.654	0.3502	-0.224
Mof_O 	O 	0.3075	0.8464	0.6561	-0.213
Mof_O 	O 	0.4748	0.5944	0.275	-0.272
Mof_O 	O 	0.3195	0.4589	0.3382	-0.255
Mof_O 	O 	0.6224	0.5719	0.3269	-0.259
Mof_O 	O 	0.5217	0.4519	0.3598	-0.259
Mof_O 	O 	0.6513	0.4999	0.3867	-0.195
Mof_O 	O 	0.6724	0.4287	0.3416	-0.194
Mof_O 	O 	0.5667	0.0465	0.6401	-0.267
Mof_O 	O 	0.6861	0.001	0.6095	-0.199
Mof_O 	O 	0.7161	0.0696	0.6554	-0.201
Mof_O 	O 	0.8225	0.681	0.0271	-0.274
Mof_O 	O 	0.9272	0.6063	0.0178	-0.239
Mof_O 	O 	0.9035	0.6533	0.071	-0.175
Mof_O 	O 	0.4759	0.0927	0.274	-0.283
Mof_O 	O 	0.636	0.9577	0.33509	-0.265
Mof_O 	O 	0.1687	0.0711	0.82819	-0.261
Mof_O 	O 	0.7696	0.346	0.1498	-0.223
Mof_O 	O 	0.8075	0.1536	0.8439	-0.212
Mof_O 	O 	0.9748	0.4056	0.225	-0.258
Mof_O 	O 	0.8195	0.5411	0.1618	-0.255
Mof_O 	O 	0.1224	0.4281	0.1731	-0.264
Mof_O 	O 	0.0217	0.5481	0.1402	-0.266
Mof_O 	O 	0.1513	0.5001	0.1133	-0.198
Mof_O 	O 	0.1724	0.5713	0.1584	-0.196
Mof_O 	O 	0.0667	0.9535	0.8599	-0.263
Mof_O 	O 	0.1861	0.999	0.8905	-0.19
Mof_O 	O 	0.2161	0.9304	0.8446	-0.199
Mof_O 	O 	0.3225	0.319	0.4729	-0.273
Mof_O 	O 	0.4272	0.3937	0.4822	-0.245
Mof_O 	O 	0.4035	0.3467	0.429	-0.179
Mof_F 	F 	0.4186	0.5872	0.5779	-0.461
Mof_F 	F 	0.4147	0.6502	0.6183	-0.476
Mof_F 	F 	0.2906	0.6126	0.5976	-0.43
Mof_F 	F 	0.3774	0.8492	0.3827	-0.475
Mof_F 	F 	0.2608	0.8868	0.4062	-0.437
Mof_F 	F 	0.3909	0.9131	0.423	-0.432
Mof_F 	F 	0.0013	0.2887	0.99918	-0.491
Mof_F 	F 	0.034	0.2437	0.9554	-0.501
Mof_F 	F 	0.9392	0.3053	0.9561	-0.442
Mof_F 	F 	0.9186	0.4128	0.9221	-0.456
Mof_F 	F 	0.9147	0.3498	0.8817	-0.473
Mof_F 	F 	0.7906	0.3874	0.9024	-0.428
Mof_F 	F 	0.8774	0.1508	0.1173	-0.472
Mof_F 	F 	0.7608	0.1132	0.0938	-0.437
Mof_F 	F 	0.8909	0.0869	0.077	-0.429
Mof_F 	F 	0.5013	0.7113	0.50082	-0.49
Mof_F 	F 	0.534	0.7563	0.5446	-0.499
Mof_F 	F 	0.4392	0.6947	0.5439	-0.453
Mof_F 	F 	0.5814	0.4128	0.4221	-0.46
Mof_F 	F 	0.5853	0.3498	0.3817	-0.475
Mof_F 	F 	0.7094	0.3874	0.4024	-0.427
Mof_F 	F 	0.6226	0.1508	0.6173	-0.474
Mof_F 	F 	0.7392	0.1132	0.5938	-0.436
Mof_F 	F 	0.6091	0.0869	0.577	-0.433
Mof_F 	F 	0.9987	0.7113	0.00082	-0.488
Mof_F 	F 	0.966	0.7563	0.0446	-0.498
Mof_F 	F 	0.0608	0.6947	0.0439	-0.461
Mof_F 	F 	0.0814	0.5872	0.0779	-0.464
Mof_F 	F 	0.0853	0.6502	0.1183	-0.478
Mof_F 	F 	0.2094	0.6126	0.0976	-0.429
Mof_F 	F 	0.1226	0.8492	0.8827	-0.477
Mof_F 	F 	0.2392	0.8868	0.9062	-0.436
Mof_F 	F 	0.1091	0.9131	0.923	-0.434
Mof_F 	F 	0.4987	0.2887	0.49918	-0.489
Mof_F 	F 	0.466	0.2437	0.4554	-0.499
Mof_F 	F 	0.5608	0.3053	0.4561	-0.452
Mof_C 	C 	0.2687	0.1373	0.5524	0.731
Mof_S 	S 	0.3783	0.14775	0.53986	0.306
Mof_O 	O 	0.3937	0.0992	0.5164	-0.213
Mof_O 	O 	0.3676	0.2	0.5263	-0.192
Mof_O 	O 	0.4315	0.1491	0.5685	-0.147
Mof_F 	F 	0.2089	0.1345	0.531	-0.503
Mof_F 	F 	0.2426	0.1772	0.5766	-0.453
Mof_F 	F 	0.2632	0.0875	0.5682	-0.426
Mof_C 	C 	0.9011	0.7272	0.6961	0.783
Mof_S 	S 	0.8713	0.77991	0.67471	0.289
Mof_O 	O 	0.8179	0.8076	0.7002	-0.182
Mof_O 	O 	0.817	0.7557	0.6495	-0.194
Mof_O 	O 	0.9511	0.8089	0.6676	-0.171
Mof_F 	F 	0.9502	0.7436	0.7223	-0.473
Mof_F 	F 	0.835	0.6963	0.7036	-0.499
Mof_F 	F 	0.9588	0.6927	0.6775	-0.446
Mof_C 	C 	0.646	0.7714	0.7987	0.804
Mof_S 	S 	0.6758	0.72096	0.82202	0.293
Mof_O 	O 	0.73	0.7473	0.8465	-0.176
Mof_O 	O 	0.5993	0.6915	0.8293	-0.18
Mof_O 	O 	0.7284	0.6933	0.7953	-0.177
Mof_F 	F 	0.6032	0.747	0.7721	-0.478
Mof_F 	F 	0.5804	0.8023	0.8123	-0.467
Mof_F 	F 	0.7119	0.8062	0.7949	-0.502
Mof_C 	C 	0.7687	0.8627	0.9476	0.731
Mof_S 	S 	0.8783	0.85225	0.96014	0.305
Mof_O 	O 	0.8937	0.9008	0.9836	-0.203
Mof_O 	O 	0.8676	0.8	0.9737	-0.19
Mof_O 	O 	0.9315	0.8509	0.9315	-0.142
Mof_F 	F 	0.7089	0.8655	0.969	-0.5
Mof_F 	F 	0.7426	0.8228	0.9234	-0.452
Mof_F 	F 	0.7632	0.9125	0.9318	-0.421
Mof_C 	C 	0.4011	0.2728	0.8039	0.783
Mof_S 	S 	0.3713	0.22009	0.82529	0.289
Mof_O 	O 	0.3179	0.1924	0.7998	-0.182
Mof_O 	O 	0.317	0.2443	0.8505	-0.194
Mof_O 	O 	0.4511	0.1911	0.8324	-0.175
Mof_F 	F 	0.4502	0.2564	0.7777	-0.476
Mof_F 	F 	0.335	0.3037	0.7964	-0.499
Mof_F 	F 	0.4588	0.3073	0.8225	-0.449
Mof_C 	C 	0.146	0.2286	0.7013	0.804
Mof_S 	S 	0.1758	0.27904	0.67798	0.293
Mof_O 	O 	0.23	0.2527	0.6535	-0.176
Mof_O 	O 	0.0993	0.3085	0.6707	-0.183
Mof_O 	O 	0.2284	0.3067	0.7047	-0.177
Mof_F 	F 	0.1032	0.253	0.7279	-0.481
Mof_F 	F 	0.0804	0.1977	0.6877	-0.471
Mof_F 	F 	0.2119	0.1938	0.7051	-0.502
Mof_C 	C 	0.7313	0.8627	0.4476	0.731
Mof_S 	S 	0.6217	0.85225	0.46014	0.306
Mof_O 	O 	0.6063	0.9008	0.4836	-0.21
Mof_O 	O 	0.6324	0.8	0.4737	-0.192
Mof_O 	O 	0.5685	0.8509	0.4315	-0.146
Mof_F 	F 	0.7911	0.8655	0.469	-0.499
Mof_F 	F 	0.7574	0.8228	0.4234	-0.451
Mof_F 	F 	0.7368	0.9125	0.4318	-0.421
Mof_C 	C 	0.0989	0.2728	0.3039	0.783
Mof_S 	S 	0.1287	0.22009	0.32529	0.289
Mof_O 	O 	0.1821	0.1924	0.2998	-0.182
Mof_O 	O 	0.183	0.2443	0.3505	-0.195
Mof_O 	O 	0.0489	0.1911	0.3324	-0.178
Mof_F 	F 	0.0498	0.2564	0.2777	-0.478
Mof_F 	F 	0.165	0.3037	0.2964	-0.5
Mof_F 	F 	0.0412	0.3073	0.3225	-0.452
Mof_C 	C 	0.354	0.2286	0.2013	0.804
Mof_S 	S 	0.3242	0.27904	0.17798	0.293
Mof_O 	O 	0.27	0.2527	0.1535	-0.175
Mof_O 	O 	0.4007	0.3085	0.1707	-0.18
Mof_O 	O 	0.2716	0.3067	0.2047	-0.177
Mof_F 	F 	0.3968	0.253	0.2279	-0.478
Mof_F 	F 	0.4196	0.1977	0.1877	-0.468
Mof_F 	F 	0.2881	0.1938	0.2051	-0.502
Mof_C 	C 	0.2313	0.1373	0.0524	0.731
Mof_S 	S 	0.1217	0.14775	0.03986	0.305
Mof_O 	O 	0.1063	0.0992	0.0164	-0.215
Mof_O 	O 	0.1324	0.2	0.0263	-0.194
Mof_O 	O 	0.0685	0.1491	0.0685	-0.151
Mof_F 	F 	0.2911	0.1345	0.031	-0.502
Mof_F 	F 	0.2574	0.1772	0.0766	-0.452
Mof_F 	F 	0.2368	0.0875	0.0682	-0.425
Mof_C 	C 	0.5989	0.7272	0.1961	0.783
Mof_S 	S 	0.6287	0.77991	0.17471	0.289
Mof_O 	O 	0.6821	0.8076	0.2002	-0.182
Mof_O 	O 	0.683	0.7557	0.1495	-0.195
Mof_O 	O 	0.5489	0.8089	0.1676	-0.174
Mof_F 	F 	0.5498	0.7436	0.2223	-0.476
Mof_F 	F 	0.665	0.6963	0.2036	-0.5
Mof_F 	F 	0.5412	0.6927	0.1775	-0.449
Mof_C 	C 	0.854	0.7714	0.2987	0.804
Mof_S 	S 	0.8242	0.72096	0.32202	0.293
Mof_O 	O 	0.77	0.7473	0.3465	-0.175
Mof_O 	O 	0.9007	0.6915	0.3293	-0.178
Mof_O 	O 	0.7716	0.6933	0.2953	-0.177
Mof_F 	F 	0.8968	0.747	0.2721	-0.477
Mof_F 	F 	0.9196	0.8023	0.3123	-0.465
Mof_F 	F 	0.7881	0.8062	0.2949	-0.501
_end
