data_functionalizedCrystal
_audit_creation_method	'EQeq! by Chris Wilmer'
_symmetry_space_group_name_H-M	'P1'
_symmetry_Int_Tables_number	1
_symmetry_cell_setting	triclinic
loop_
_symmetry_equiv_pos_as_xyz
  x,y,z
_cell_length_a	20.508
_cell_length_b	20.508
_cell_length_c	17.792
_cell_angle_alpha	90
_cell_angle_beta	90
_cell_angle_gamma	90
loop_
_atom_site_label
_atom_site_type_symbol
_atom_site_fract_x
_atom_site_fract_y
_atom_site_fract_z
_atom_site_charge
Mof_Zn	Zn	0.74291	0.88078	0.78977	1.232
Mof_O 	O 	0.66349	0.05693	0.4309	-0.428
Mof_O 	O 	0.8401	0.7599	0.4509	-0.456
Mof_C 	C 	0.7256	0.9613	0.444	-0.126
Mof_O 	O 	0.7651	0.8677	0.6845	-0.432
Mof_O 	O 	0.8281	0.8112	0.3397	-0.454
Mof_C 	C 	0.7272	0.9046	0.6455	0.306
Mof_O 	O 	0.6847	0.941	0.6736	-0.293
Mof_C 	C 	0.7114	0.9575	0.5198	0.056
Mof_H 	H 	0.6849	0.9897	0.5431	0.041
Mof_C 	C 	0.737	0.9051	0.5622	-0.099
Mof_C 	C 	0.7825	0.8574	0.4487	-0.134
Mof_C 	C 	0.7726	0.8567	0.5255	0.061
Mof_H 	H 	0.7907	0.8221	0.5542	0.04
Mof_C 	C 	0.8187	0.8042	0.4112	0.378
Mof_C 	C 	0.7597	0.9106	0.4098	0.076
Mof_H 	H 	0.7675	0.9129	0.3573	0.04
Mof_O 	O 	0.7393	0.0347	0.3428	-0.455
Mof_C 	C 	0.7069	0.0222	0.4027	0.39
Mof_Zn	Zn	0.24291	0.38078	0.28977	1.231
Mof_O 	O 	0.16349	0.55693	0.9309	-0.421
Mof_O 	O 	0.3401	0.2599	0.9509	-0.448
Mof_C 	C 	0.2256	0.4613	0.944	-0.09
Mof_O 	O 	0.2651	0.3677	0.1845	-0.431
Mof_O 	O 	0.3281	0.3112	0.8397	-0.45
Mof_C 	C 	0.2272	0.4046	0.1455	0.297
Mof_O 	O 	0.1847	0.441	0.1736	-0.293
Mof_C 	C 	0.2114	0.4575	0.0198	0.016
Mof_H 	H 	0.1849	0.4897	0.0431	0.049
Mof_C 	C 	0.237	0.4051	0.0622	-0.076
Mof_C 	C 	0.2825	0.3574	0.9487	-0.097
Mof_C 	C 	0.2726	0.3567	0.0255	0.02
Mof_H 	H 	0.2907	0.3221	0.0542	0.049
Mof_C 	C 	0.3187	0.3042	0.9112	0.366
Mof_C 	C 	0.2597	0.4106	0.9098	0.049
Mof_H 	H 	0.2675	0.4129	0.8573	0.049
Mof_O 	O 	0.2393	0.5347	0.8428	-0.451
Mof_C 	C 	0.2069	0.5222	0.9027	0.379
Mof_Zn	Zn	0.25709	0.11922	0.78977	1.232
Mof_O 	O 	0.33651	0.94307	0.4309	-0.428
Mof_O 	O 	0.1599	0.2401	0.4509	-0.456
Mof_C 	C 	0.2744	0.0387	0.444	-0.126
Mof_O 	O 	0.2349	0.1323	0.6845	-0.432
Mof_O 	O 	0.1719	0.1888	0.3397	-0.454
Mof_C 	C 	0.2728	0.0954	0.6455	0.306
Mof_O 	O 	0.3153	0.059	0.6736	-0.293
Mof_C 	C 	0.2886	0.0425	0.5198	0.056
Mof_H 	H 	0.3151	0.0103	0.5431	0.041
Mof_C 	C 	0.263	0.0949	0.5622	-0.099
Mof_C 	C 	0.2175	0.1426	0.4487	-0.134
Mof_C 	C 	0.2274	0.1433	0.5255	0.061
Mof_H 	H 	0.2093	0.1779	0.5542	0.04
Mof_C 	C 	0.1813	0.1958	0.4112	0.378
Mof_C 	C 	0.2403	0.0894	0.4098	0.076
Mof_H 	H 	0.2325	0.0871	0.3573	0.04
Mof_O 	O 	0.2607	0.9653	0.3428	-0.455
Mof_C 	C 	0.2931	0.9778	0.4027	0.39
Mof_Zn	Zn	0.75709	0.61922	0.28977	1.231
Mof_O 	O 	0.83651	0.44307	0.9309	-0.421
Mof_O 	O 	0.6599	0.7401	0.9509	-0.448
Mof_C 	C 	0.7744	0.5387	0.944	-0.09
Mof_O 	O 	0.7349	0.6323	0.1845	-0.431
Mof_O 	O 	0.6719	0.6888	0.8397	-0.45
Mof_C 	C 	0.7728	0.5954	0.1455	0.297
Mof_O 	O 	0.8153	0.559	0.1736	-0.293
Mof_C 	C 	0.7886	0.5425	0.0198	0.016
Mof_H 	H 	0.8151	0.5103	0.0431	0.049
Mof_C 	C 	0.763	0.5949	0.0622	-0.076
Mof_C 	C 	0.7175	0.6426	0.9487	-0.097
Mof_C 	C 	0.7274	0.6433	0.0255	0.02
Mof_H 	H 	0.7093	0.6779	0.0542	0.049
Mof_C 	C 	0.6813	0.6958	0.9112	0.366
Mof_C 	C 	0.7403	0.5894	0.9098	0.049
Mof_H 	H 	0.7325	0.5871	0.8573	0.049
Mof_O 	O 	0.7607	0.4653	0.8428	-0.451
Mof_C 	C 	0.7931	0.4778	0.9027	0.379
Mof_Zn	Zn	0.11922	0.74291	0.78977	1.232
Mof_O 	O 	0.94307	0.66349	0.4309	-0.428
Mof_O 	O 	0.2401	0.8401	0.4509	-0.456
Mof_C 	C 	0.0387	0.7256	0.444	-0.126
Mof_O 	O 	0.1323	0.7651	0.6845	-0.432
Mof_O 	O 	0.1888	0.8281	0.3397	-0.454
Mof_C 	C 	0.0954	0.7272	0.6455	0.306
Mof_O 	O 	0.059	0.6847	0.6736	-0.293
Mof_C 	C 	0.0425	0.7114	0.5198	0.056
Mof_H 	H 	0.0103	0.6849	0.5431	0.041
Mof_C 	C 	0.0949	0.737	0.5622	-0.099
Mof_C 	C 	0.1426	0.7825	0.4487	-0.134
Mof_C 	C 	0.1433	0.7726	0.5255	0.061
Mof_H 	H 	0.1779	0.7907	0.5542	0.04
Mof_C 	C 	0.1958	0.8187	0.4112	0.378
Mof_C 	C 	0.0894	0.7597	0.4098	0.076
Mof_H 	H 	0.0871	0.7675	0.3573	0.04
Mof_O 	O 	0.9653	0.7393	0.3428	-0.455
Mof_C 	C 	0.9778	0.7069	0.4027	0.39
Mof_Zn	Zn	0.61922	0.24291	0.28977	1.231
Mof_O 	O 	0.44307	0.16349	0.9309	-0.421
Mof_O 	O 	0.7401	0.3401	0.9509	-0.448
Mof_C 	C 	0.5387	0.2256	0.944	-0.09
Mof_O 	O 	0.6323	0.2651	0.1845	-0.431
Mof_O 	O 	0.6888	0.3281	0.8397	-0.45
Mof_C 	C 	0.5954	0.2272	0.1455	0.297
Mof_O 	O 	0.559	0.1847	0.1736	-0.293
Mof_C 	C 	0.5425	0.2114	0.0198	0.016
Mof_H 	H 	0.5103	0.1849	0.0431	0.049
Mof_C 	C 	0.5949	0.237	0.0622	-0.076
Mof_C 	C 	0.6426	0.2825	0.9487	-0.097
Mof_C 	C 	0.6433	0.2726	0.0255	0.02
Mof_H 	H 	0.6779	0.2907	0.0542	0.049
Mof_C 	C 	0.6958	0.3187	0.9112	0.366
Mof_C 	C 	0.5894	0.2597	0.9098	0.049
Mof_H 	H 	0.5871	0.2675	0.8573	0.049
Mof_O 	O 	0.4653	0.2393	0.8428	-0.451
Mof_C 	C 	0.4778	0.2069	0.9027	0.379
Mof_Zn	Zn	0.88078	0.25709	0.78977	1.232
Mof_O 	O 	0.05693	0.33651	0.4309	-0.428
Mof_O 	O 	0.7599	0.1599	0.4509	-0.456
Mof_C 	C 	0.9613	0.2744	0.444	-0.126
Mof_O 	O 	0.8677	0.2349	0.6845	-0.432
Mof_O 	O 	0.8112	0.1719	0.3397	-0.454
Mof_C 	C 	0.9046	0.2728	0.6455	0.306
Mof_O 	O 	0.941	0.3153	0.6736	-0.293
Mof_C 	C 	0.9575	0.2886	0.5198	0.056
Mof_H 	H 	0.9897	0.3151	0.5431	0.041
Mof_C 	C 	0.9051	0.263	0.5622	-0.099
Mof_C 	C 	0.8574	0.2175	0.4487	-0.134
Mof_C 	C 	0.8567	0.2274	0.5255	0.061
Mof_H 	H 	0.8221	0.2093	0.5542	0.04
Mof_C 	C 	0.8042	0.1813	0.4112	0.378
Mof_C 	C 	0.9106	0.2403	0.4098	0.076
Mof_H 	H 	0.9129	0.2325	0.3573	0.04
Mof_O 	O 	0.0347	0.2607	0.3428	-0.455
Mof_C 	C 	0.0222	0.2931	0.4027	0.39
Mof_Zn	Zn	0.38078	0.75709	0.28977	1.231
Mof_O 	O 	0.55693	0.83651	0.9309	-0.421
Mof_O 	O 	0.2599	0.6599	0.9509	-0.448
Mof_C 	C 	0.4613	0.7744	0.944	-0.09
Mof_O 	O 	0.3677	0.7349	0.1845	-0.431
Mof_O 	O 	0.3112	0.6719	0.8397	-0.45
Mof_C 	C 	0.4046	0.7728	0.1455	0.297
Mof_O 	O 	0.441	0.8153	0.1736	-0.293
Mof_C 	C 	0.4575	0.7886	0.0198	0.016
Mof_H 	H 	0.4897	0.8151	0.0431	0.049
Mof_C 	C 	0.4051	0.763	0.0622	-0.076
Mof_C 	C 	0.3574	0.7175	0.9487	-0.097
Mof_C 	C 	0.3567	0.7274	0.0255	0.02
Mof_H 	H 	0.3221	0.7093	0.0542	0.049
Mof_C 	C 	0.3042	0.6813	0.9112	0.366
Mof_C 	C 	0.4106	0.7403	0.9098	0.049
Mof_H 	H 	0.4129	0.7325	0.8573	0.049
Mof_O 	O 	0.5347	0.7607	0.8428	-0.451
Mof_C 	C 	0.5222	0.7931	0.9027	0.379
Mof_Zn	Zn	0.74291	0.11922	0.28977	1.231
Mof_O 	O 	0.66349	0.94307	0.9309	-0.421
Mof_O 	O 	0.8401	0.2401	0.9509	-0.448
Mof_C 	C 	0.7256	0.0387	0.944	-0.091
Mof_O 	O 	0.7651	0.1323	0.1845	-0.431
Mof_O 	O 	0.8281	0.1888	0.8397	-0.45
Mof_C 	C 	0.7272	0.0954	0.1455	0.298
Mof_O 	O 	0.6847	0.059	0.1736	-0.293
Mof_C 	C 	0.7114	0.0425	0.0198	0.017
Mof_H 	H 	0.6849	0.0103	0.0431	0.049
Mof_C 	C 	0.737	0.0949	0.0622	-0.076
Mof_C 	C 	0.7825	0.1426	0.9487	-0.098
Mof_C 	C 	0.7726	0.1433	0.0255	0.02
Mof_H 	H 	0.7907	0.1779	0.0542	0.049
Mof_C 	C 	0.8187	0.1958	0.9112	0.366
Mof_C 	C 	0.7597	0.0894	0.9098	0.049
Mof_H 	H 	0.7675	0.0871	0.8573	0.049
Mof_O 	O 	0.7393	0.9653	0.8428	-0.451
Mof_C 	C 	0.7069	0.9778	0.9027	0.379
Mof_Zn	Zn	0.24291	0.61922	0.78977	1.232
Mof_O 	O 	0.16349	0.44307	0.4309	-0.428
Mof_O 	O 	0.3401	0.7401	0.4509	-0.456
Mof_C 	C 	0.2256	0.5387	0.444	-0.126
Mof_O 	O 	0.2651	0.6323	0.6845	-0.432
Mof_O 	O 	0.3281	0.6888	0.3397	-0.454
Mof_C 	C 	0.2272	0.5954	0.6455	0.306
Mof_O 	O 	0.1847	0.559	0.6736	-0.293
Mof_C 	C 	0.2114	0.5425	0.5198	0.056
Mof_H 	H 	0.1849	0.5103	0.5431	0.041
Mof_C 	C 	0.237	0.5949	0.5622	-0.099
Mof_C 	C 	0.2825	0.6426	0.4487	-0.134
Mof_C 	C 	0.2726	0.6433	0.5255	0.061
Mof_H 	H 	0.2907	0.6779	0.5542	0.04
Mof_C 	C 	0.3187	0.6958	0.4112	0.378
Mof_C 	C 	0.2597	0.5894	0.4098	0.076
Mof_H 	H 	0.2675	0.5871	0.3573	0.04
Mof_O 	O 	0.2393	0.4653	0.3428	-0.455
Mof_C 	C 	0.2069	0.4778	0.4027	0.39
Mof_Zn	Zn	0.25709	0.88078	0.28977	1.231
Mof_O 	O 	0.33651	0.05693	0.9309	-0.421
Mof_O 	O 	0.1599	0.7599	0.9509	-0.448
Mof_C 	C 	0.2744	0.9613	0.944	-0.091
Mof_O 	O 	0.2349	0.8677	0.1845	-0.431
Mof_O 	O 	0.1719	0.8112	0.8397	-0.45
Mof_C 	C 	0.2728	0.9046	0.1455	0.298
Mof_O 	O 	0.3153	0.941	0.1736	-0.293
Mof_C 	C 	0.2886	0.9575	0.0198	0.017
Mof_H 	H 	0.3151	0.9897	0.0431	0.049
Mof_C 	C 	0.263	0.9051	0.0622	-0.076
Mof_C 	C 	0.2175	0.8574	0.9487	-0.098
Mof_C 	C 	0.2274	0.8567	0.0255	0.02
Mof_H 	H 	0.2093	0.8221	0.0542	0.049
Mof_C 	C 	0.1813	0.8042	0.9112	0.366
Mof_C 	C 	0.2403	0.9106	0.9098	0.049
Mof_H 	H 	0.2325	0.9129	0.8573	0.049
Mof_O 	O 	0.2607	0.0347	0.8428	-0.451
Mof_C 	C 	0.2931	0.0222	0.9027	0.379
Mof_Zn	Zn	0.75709	0.38078	0.78977	1.232
Mof_O 	O 	0.83651	0.55693	0.4309	-0.428
Mof_O 	O 	0.6599	0.2599	0.4509	-0.456
Mof_C 	C 	0.7744	0.4613	0.444	-0.126
Mof_O 	O 	0.7349	0.3677	0.6845	-0.432
Mof_O 	O 	0.6719	0.3112	0.3397	-0.454
Mof_C 	C 	0.7728	0.4046	0.6455	0.306
Mof_O 	O 	0.8153	0.441	0.6736	-0.293
Mof_C 	C 	0.7886	0.4575	0.5198	0.056
Mof_H 	H 	0.8151	0.4897	0.5431	0.041
Mof_C 	C 	0.763	0.4051	0.5622	-0.099
Mof_C 	C 	0.7175	0.3574	0.4487	-0.134
Mof_C 	C 	0.7274	0.3567	0.5255	0.061
Mof_H 	H 	0.7093	0.3221	0.5542	0.04
Mof_C 	C 	0.6813	0.3042	0.4112	0.378
Mof_C 	C 	0.7403	0.4106	0.4098	0.076
Mof_H 	H 	0.7325	0.4129	0.3573	0.04
Mof_O 	O 	0.7607	0.5347	0.3428	-0.455
Mof_C 	C 	0.7931	0.5222	0.4027	0.39
Mof_Zn	Zn	0.11922	0.25709	0.28977	1.231
Mof_O 	O 	0.94307	0.33651	0.9309	-0.421
Mof_O 	O 	0.2401	0.1599	0.9509	-0.448
Mof_C 	C 	0.0387	0.2744	0.944	-0.091
Mof_O 	O 	0.1323	0.2349	0.1845	-0.431
Mof_O 	O 	0.1888	0.1719	0.8397	-0.45
Mof_C 	C 	0.0954	0.2728	0.1455	0.298
Mof_O 	O 	0.059	0.3153	0.1736	-0.293
Mof_C 	C 	0.0425	0.2886	0.0198	0.017
Mof_H 	H 	0.0103	0.3151	0.0431	0.049
Mof_C 	C 	0.0949	0.263	0.0622	-0.076
Mof_C 	C 	0.1426	0.2175	0.9487	-0.098
Mof_C 	C 	0.1433	0.2274	0.0255	0.02
Mof_H 	H 	0.1779	0.2093	0.0542	0.049
Mof_C 	C 	0.1958	0.1813	0.9112	0.366
Mof_C 	C 	0.0894	0.2403	0.9098	0.049
Mof_H 	H 	0.0871	0.2325	0.8573	0.049
Mof_O 	O 	0.9653	0.2607	0.8428	-0.451
Mof_C 	C 	0.9778	0.2931	0.9027	0.379
Mof_Zn	Zn	0.61922	0.75709	0.78977	1.232
Mof_O 	O 	0.44307	0.83651	0.4309	-0.428
Mof_O 	O 	0.7401	0.6599	0.4509	-0.456
Mof_C 	C 	0.5387	0.7744	0.444	-0.126
Mof_O 	O 	0.6323	0.7349	0.6845	-0.432
Mof_O 	O 	0.6888	0.6719	0.3397	-0.454
Mof_C 	C 	0.5954	0.7728	0.6455	0.306
Mof_O 	O 	0.559	0.8153	0.6736	-0.293
Mof_C 	C 	0.5425	0.7886	0.5198	0.056
Mof_H 	H 	0.5103	0.8151	0.5431	0.041
Mof_C 	C 	0.5949	0.763	0.5622	-0.099
Mof_C 	C 	0.6426	0.7175	0.4487	-0.134
Mof_C 	C 	0.6433	0.7274	0.5255	0.061
Mof_H 	H 	0.6779	0.7093	0.5542	0.04
Mof_C 	C 	0.6958	0.6813	0.4112	0.378
Mof_C 	C 	0.5894	0.7403	0.4098	0.076
Mof_H 	H 	0.5871	0.7325	0.3573	0.04
Mof_O 	O 	0.4653	0.7607	0.3428	-0.455
Mof_C 	C 	0.4778	0.7931	0.4027	0.39
Mof_Zn	Zn	0.88078	0.74291	0.28977	1.231
Mof_O 	O 	0.05693	0.66349	0.9309	-0.421
Mof_O 	O 	0.7599	0.8401	0.9509	-0.448
Mof_C 	C 	0.9613	0.7256	0.944	-0.091
Mof_O 	O 	0.8677	0.7651	0.1845	-0.431
Mof_O 	O 	0.8112	0.8281	0.8397	-0.45
Mof_C 	C 	0.9046	0.7272	0.1455	0.298
Mof_O 	O 	0.941	0.6847	0.1736	-0.293
Mof_C 	C 	0.9575	0.7114	0.0198	0.017
Mof_H 	H 	0.9897	0.6849	0.0431	0.049
Mof_C 	C 	0.9051	0.737	0.0622	-0.076
Mof_C 	C 	0.8574	0.7825	0.9487	-0.098
Mof_C 	C 	0.8567	0.7726	0.0255	0.02
Mof_H 	H 	0.8221	0.7907	0.0542	0.049
Mof_C 	C 	0.8042	0.8187	0.9112	0.366
Mof_C 	C 	0.9106	0.7597	0.9098	0.049
Mof_H 	H 	0.9129	0.7675	0.8573	0.049
Mof_O 	O 	0.0347	0.7393	0.8428	-0.451
Mof_C 	C 	0.0222	0.7069	0.9027	0.379
Mof_Zn	Zn	0.38078	0.24291	0.78977	1.232
Mof_O 	O 	0.55693	0.16349	0.4309	-0.428
Mof_O 	O 	0.2599	0.3401	0.4509	-0.456
Mof_C 	C 	0.4613	0.2256	0.444	-0.126
Mof_O 	O 	0.3677	0.2651	0.6845	-0.432
Mof_O 	O 	0.3112	0.3281	0.3397	-0.454
Mof_C 	C 	0.4046	0.2272	0.6455	0.306
Mof_O 	O 	0.441	0.1847	0.6736	-0.293
Mof_C 	C 	0.4575	0.2114	0.5198	0.056
Mof_H 	H 	0.4897	0.1849	0.5431	0.041
Mof_C 	C 	0.4051	0.237	0.5622	-0.099
Mof_C 	C 	0.3574	0.2825	0.4487	-0.134
Mof_C 	C 	0.3567	0.2726	0.5255	0.061
Mof_H 	H 	0.3221	0.2907	0.5542	0.04
Mof_C 	C 	0.3042	0.3187	0.4112	0.378
Mof_C 	C 	0.4106	0.2597	0.4098	0.076
Mof_H 	H 	0.4129	0.2675	0.3573	0.04
Mof_O 	O 	0.5347	0.2393	0.3428	-0.455
Mof_C 	C 	0.5222	0.2069	0.4027	0.39
Mof_Co	Co	0.65818	0.84182	0.93856	1.161
Mof_O 	O 	0.66237	0.83763	0.8195	-0.651
Mof_Co	Co	0.34182	0.15818	0.93856	1.161
Mof_O 	O 	0.33763	0.16237	0.8195	-0.651
Mof_Co	Co	0.15818	0.65818	0.93856	1.161
Mof_O 	O 	0.16237	0.66237	0.8195	-0.651
Mof_Co	Co	0.84182	0.34182	0.93856	1.161
Mof_O 	O 	0.83763	0.33763	0.8195	-0.651
Mof_Co	Co	0.65818	0.15818	0.43856	1.16
Mof_O 	O 	0.66237	0.16237	0.3195	-0.652
Mof_Co	Co	0.34182	0.84182	0.43856	1.16
Mof_O 	O 	0.33763	0.83763	0.3195	-0.652
Mof_Co	Co	0.15818	0.34182	0.43856	1.16
Mof_O 	O 	0.16237	0.33763	0.3195	-0.652
Mof_Co	Co	0.84182	0.65818	0.43856	1.16
Mof_O 	O 	0.83763	0.66237	0.3195	-0.652
_end
