data_functionalizedCrystal
_audit_creation_method	'EQeq! by Chris Wilmer'
_symmetry_space_group_name_H-M	'P1'
_symmetry_Int_Tables_number	1
_symmetry_cell_setting	triclinic
loop_
_symmetry_equiv_pos_as_xyz
  x,y,z
_cell_length_a	11.238
_cell_length_b	11.644
_cell_length_c	10.02
_cell_angle_alpha	90
_cell_angle_beta	102.67
_cell_angle_gamma	90
loop_
_atom_site_label
_atom_site_type_symbol
_atom_site_fract_x
_atom_site_fract_y
_atom_site_fract_z
_atom_site_charge
Mof_Cu	Cu	0.25	0.5745	0.25	0.803
Mof_Cu	Cu	0.431	0.4048	0.2934	0.809
Mof_S 	S 	0.1584	0.6748	0.0545	-0.264
Mof_C 	C 	0.0719	0.7582	0.1239	0.113
Mof_N 	N 	0.0135	0.8175	0.1746	-0.25
Mof_S 	S 	0.2085	0.3727	0.2032	-0.331
Mof_C 	C 	0.2127	0.3801	0.0386	0.047
Mof_N 	N 	0.2162	0.3857	0.9246	-0.259
Mof_S 	S 	0.4681	0.6085	0.2694	-0.372
Mof_C 	C 	0.464	0.616	0.1031	0.06
Mof_N 	N 	0.4635	0.6201	0.989	-0.263
Mof_Cu	Cu	0.75	0.0745	0.25	0.8
Mof_Cu	Cu	0.931	0.9048	0.2934	0.791
Mof_S 	S 	0.6584	0.1748	0.0545	-0.294
Mof_C 	C 	0.5719	0.2582	0.1239	0.092
Mof_N 	N 	0.5135	0.3175	0.1746	-0.284
Mof_S 	S 	0.7085	0.8727	0.2032	-0.365
Mof_C 	C 	0.7127	0.8801	0.0386	0.033
Mof_N 	N 	0.7162	0.8857	0.9246	-0.266
Mof_S 	S 	0.9681	0.1085	0.2694	-0.417
Mof_C 	C 	0.964	0.116	0.1031	0.047
Mof_N 	N 	0.9635	0.1201	0.989	-0.277
Mof_Cu	Cu	0.25	0.4255	0.75	0.803
Mof_Cu	Cu	0.431	0.5952	0.7934	0.81
Mof_S 	S 	0.1584	0.3252	0.5545	-0.249
Mof_C 	C 	0.0719	0.2418	0.6239	0.117
Mof_N 	N 	0.0135	0.1825	0.6746	-0.246
Mof_S 	S 	0.2085	0.6273	0.7032	-0.326
Mof_C 	C 	0.2127	0.6199	0.5386	0.074
Mof_N 	N 	0.2162	0.6143	0.4246	-0.28
Mof_S 	S 	0.4681	0.3915	0.7694	-0.366
Mof_C 	C 	0.464	0.384	0.6031	0.086
Mof_N 	N 	0.4635	0.3799	0.489	-0.285
Mof_Cu	Cu	0.75	0.9255	0.75	0.802
Mof_Cu	Cu	0.931	0.0952	0.7934	0.794
Mof_S 	S 	0.6584	0.8252	0.5545	-0.279
Mof_C 	C 	0.5719	0.7418	0.6239	0.097
Mof_N 	N 	0.5135	0.6825	0.6746	-0.281
Mof_S 	S 	0.7085	0.1273	0.7032	-0.36
Mof_C 	C 	0.7127	0.1199	0.5386	0.06
Mof_N 	N 	0.7162	0.1143	0.4246	-0.287
Mof_S 	S 	0.9681	0.8915	0.7694	-0.41
Mof_C 	C 	0.964	0.884	0.6031	0.072
Mof_N 	N 	0.9635	0.8799	0.489	-0.299
_end
