data_functionalizedCrystal
_audit_creation_method	'EQeq! by Chris Wilmer'
_symmetry_space_group_name_H-M	'P1'
_symmetry_Int_Tables_number	1
_symmetry_cell_setting	triclinic
loop_
_symmetry_equiv_pos_as_xyz
  x,y,z
_cell_length_a	20.9112
_cell_length_b	20.9112
_cell_length_c	38.3502
_cell_angle_alpha	90
_cell_angle_beta	90
_cell_angle_gamma	120
loop_
_atom_site_label
_atom_site_type_symbol
_atom_site_fract_x
_atom_site_fract_y
_atom_site_fract_z
_atom_site_charge
Mof_W 	W 	0.08393	0.98344	0.68496	0.92
Mof_W 	W 	0.07574	0.88417	0.60304	1.004
Mof_W 	W 	0.07335	0.88119	0.50513	1.002
Mof_W 	W 	0.09111	0.99546	0.42818	0.936
Mof_W 	W 	0.19294	0.0833	0.50988	1.329
Mof_W 	W 	0.19322	0.08564	0.60782	1.071
Mof_Cu	Cu	0.30506	0.00942	0.4879	0.85
Mof_Cu	Cu	0.3192	0.0447	0.31823	0.807
Mof_O 	O 	0.0749	0.917	0.6522	-0.463
Mof_O 	O 	0.1558	0.0565	0.6525	-0.432
Mof_O 	O 	0.989	0.9196	0.704	-0.416
Mof_O 	O 	0.9927	0.9265	0.597	-0.315
Mof_O 	O 	0.0622	0.868	0.5553	-0.462
Mof_O 	O 	0.1477	0.9823	0.5971	-0.478
Mof_O 	O 	0.9807	0.8033	0.6126	-0.441
Mof_O 	O 	0.0754	0.9169	0.4605	-0.467
Mof_O 	O 	0.9911	0.9252	0.5163	-0.332
Mof_O 	O 	0.1481	0.9796	0.5163	-0.516
Mof_O 	O 	0.9782	0.8015	0.4999	-0.445
Mof_O 	O 	0.1586	0.0578	0.4612	-0.443
Mof_O 	O 	0.9946	0.925	0.4097	-0.428
Mof_O 	O 	0.2011	0.0983	0.5569	-0.472
Mof_O 	O 	0.2818	0.102	0.5009	-0.492
Mof_N 	N 	0.3289	0.993	0.5336	-0.272
Mof_N 	N 	0.371	0.9963	0.6027	-0.282
Mof_N 	N 	0.2962	0.0148	0.439	-0.235
Mof_N 	N 	0.308	0.0336	0.3676	-0.243
Mof_C 	C 	0.3986	0.0145	0.5428	0.053
Mof_C 	C 	0.4565	0.043	0.517	-0.104
Mof_H 	H 	0.4439	0.0424	0.4932	0.012
Mof_C 	C 	0.5273	0.07	0.5255	-0.027
Mof_H 	H 	0.5647	0.0911	0.5082	0.025
Mof_C 	C 	0.5455	0.0667	0.5606	-0.032
Mof_H 	H 	0.5948	0.0802	0.5666	0.025
Mof_C 	C 	0.4925	0.0442	0.5866	-0.111
Mof_H 	H 	0.5054	0.0469	0.6105	0.002
Mof_C 	C 	0.4225	0.0184	0.5768	0.059
Mof_C 	C 	0.3022	0.9715	0.5938	-0.021
Mof_H 	H 	0.2658	0.9552	0.6116	-0.043
Mof_C 	C 	0.2792	0.968	0.5574	-0.005
Mof_H 	H 	0.2286	0.9475	0.5516	-0.016
Mof_C 	C 	0.269	0.9535	0.4181	-0.001
Mof_C 	C 	0.2389	0.8829	0.4316	-0.101
Mof_H 	H 	0.2395	0.8772	0.4562	-0.015
Mof_C 	C 	0.2102	0.8245	0.4125	-0.025
Mof_H 	H 	0.1873	0.7775	0.4235	0.011
Mof_C 	C 	0.2118	0.8285	0.3746	-0.075
Mof_H 	H 	0.192	0.7854	0.3605	0.038
Mof_C 	C 	0.2482	0.9084	0.3584	-0.095
Mof_H 	H 	0.2509	0.916	0.3339	-0.037
Mof_C 	C 	0.2755	0.9654	0.3811	0
Mof_C 	C 	0.3246	0.0872	0.3885	-0.007
Mof_H 	H 	0.3405	0.1351	0.3795	-0.02
Mof_C 	C 	0.3195	0.076	0.4252	0.017
Mof_H 	H 	0.3348	0.1177	0.44	-0
Mof_W 	W 	0.7506	0.31677	0.01829	1.009
Mof_W 	W 	0.74241	0.2175	0.93637	1.059
Mof_W 	W 	0.74002	0.21452	0.83846	1.054
Mof_W 	W 	0.75778	0.32879	0.76151	1.026
Mof_W 	W 	0.85961	0.41663	0.84322	1.312
Mof_W 	W 	0.85989	0.41897	0.94115	1.059
Mof_Cu	Cu	0.97173	0.34275	0.82123	0.845
Mof_Cu	Cu	0.98587	0.37803	0.65156	0.812
Mof_O 	O 	0.74157	0.25033	0.98553	-0.456
Mof_O 	O 	0.82247	0.38983	0.98583	-0.452
Mof_O 	O 	0.65567	0.25293	0.03733	-0.44
Mof_O 	O 	0.65937	0.25983	0.93033	-0.337
Mof_O 	O 	0.72887	0.20133	0.88863	-0.454
Mof_O 	O 	0.81437	0.31563	0.93043	-0.464
Mof_O 	O 	0.64737	0.13663	0.94593	-0.462
Mof_O 	O 	0.74207	0.25023	0.79383	-0.464
Mof_O 	O 	0.65777	0.25853	0.84963	-0.353
Mof_O 	O 	0.81477	0.31293	0.84963	-0.501
Mof_O 	O 	0.64487	0.13483	0.83323	-0.467
Mof_O 	O 	0.82527	0.39113	0.79453	-0.467
Mof_O 	O 	0.66127	0.25833	0.74303	-0.454
Mof_O 	O 	0.86777	0.43163	0.89023	-0.473
Mof_O 	O 	0.94847	0.43533	0.83423	-0.485
Mof_N 	N 	0.99557	0.32633	0.86693	-0.221
Mof_N 	N 	0.03767	0.32963	0.93603	-0.287
Mof_N 	N 	0.96287	0.34813	0.77233	-0.258
Mof_N 	N 	0.97467	0.36693	0.70093	-0.265
Mof_C 	C 	0.06527	0.34783	0.87613	-0.021
Mof_C 	C 	0.12317	0.37633	0.85033	-0.072
Mof_H 	H 	0.11057	0.37573	0.82653	-0.016
Mof_C 	C 	0.19397	0.40333	0.85883	-0.057
Mof_H 	H 	0.23137	0.42443	0.84153	0.028
Mof_C 	C 	0.21217	0.40003	0.89393	-0.02
Mof_H 	H 	0.26147	0.41353	0.89993	0.016
Mof_C 	C 	0.15917	0.37753	0.91993	-0.125
Mof_H 	H 	0.17207	0.38023	0.94383	-0.001
Mof_C 	C 	0.08917	0.35173	0.91013	0.055
Mof_C 	C 	0.96887	0.30483	0.92713	0.038
Mof_H 	H 	0.93247	0.28853	0.94493	-0.045
Mof_C 	C 	0.94587	0.30133	0.89073	-0.01
Mof_H 	H 	0.89527	0.28083	0.88493	-0.007
Mof_C 	C 	0.93567	0.28683	0.75143	0.025
Mof_C 	C 	0.90557	0.21623	0.76493	-0.105
Mof_H 	H 	0.90617	0.21053	0.78953	-0
Mof_C 	C 	0.87687	0.15783	0.74583	-0.017
Mof_H 	H 	0.85397	0.11083	0.75683	0.022
Mof_C 	C 	0.87847	0.16183	0.70793	-0.065
Mof_H 	H 	0.85867	0.11873	0.69383	0.044
Mof_C 	C 	0.91487	0.24173	0.69173	-0.099
Mof_H 	H 	0.91757	0.24933	0.66723	-0.021
Mof_C 	C 	0.94217	0.29873	0.71443	0.029
Mof_C 	C 	0.99127	0.42053	0.72183	0.034
Mof_H 	H 	0.00717	0.46843	0.71283	-0.066
Mof_C 	C 	0.98617	0.40933	0.75853	0.058
Mof_H 	H 	0.00147	0.45103	0.77333	-0.046
Mof_W 	W 	0.41726	0.65011	0.35163	1.007
Mof_W 	W 	0.40907	0.55084	0.26971	1.052
Mof_W 	W 	0.40668	0.54786	0.1718	1.05
Mof_W 	W 	0.42444	0.66213	0.09485	1.022
Mof_W 	W 	0.52627	0.74997	0.17655	1.31
Mof_W 	W 	0.52655	0.75231	0.27449	1.049
Mof_Cu	Cu	0.63839	0.67609	0.15457	0.838
Mof_Cu	Cu	0.65253	0.71137	0.9849	0.8
Mof_O 	O 	0.40823	0.58367	0.31887	-0.459
Mof_O 	O 	0.48913	0.72317	0.31917	-0.454
Mof_O 	O 	0.32233	0.58627	0.37067	-0.443
Mof_O 	O 	0.32603	0.59317	0.26367	-0.335
Mof_O 	O 	0.39553	0.53467	0.22197	-0.455
Mof_O 	O 	0.48103	0.64897	0.26377	-0.464
Mof_O 	O 	0.31403	0.46997	0.27927	-0.466
Mof_O 	O 	0.40873	0.58357	0.12717	-0.464
Mof_O 	O 	0.32443	0.59187	0.18297	-0.351
Mof_O 	O 	0.48143	0.64627	0.18297	-0.5
Mof_O 	O 	0.31153	0.46817	0.16657	-0.471
Mof_O 	O 	0.49193	0.72447	0.12787	-0.469
Mof_O 	O 	0.32793	0.59167	0.07637	-0.456
Mof_O 	O 	0.53443	0.76497	0.22357	-0.475
Mof_O 	O 	0.61513	0.76867	0.16757	-0.498
Mof_N 	N 	0.66223	0.65967	0.20027	-0.249
Mof_N 	N 	0.70433	0.66297	0.26937	-0.258
Mof_N 	N 	0.62953	0.68147	0.10567	-0.253
Mof_N 	N 	0.64133	0.70027	0.03427	-0.261
Mof_C 	C 	0.73193	0.68117	0.20947	0.029
Mof_C 	C 	0.78983	0.70967	0.18367	-0.097
Mof_H 	H 	0.77723	0.70907	0.15987	0.004
Mof_C 	C 	0.86063	0.73667	0.19217	-0.031
Mof_H 	H 	0.89803	0.75777	0.17487	0.026
Mof_C 	C 	0.87883	0.73337	0.22727	-0.036
Mof_H 	H 	0.92813	0.74687	0.23327	0.029
Mof_C 	C 	0.82583	0.71087	0.25327	-0.103
Mof_H 	H 	0.83873	0.71357	0.27717	-0.004
Mof_C 	C 	0.75583	0.68507	0.24347	0.038
Mof_C 	C 	0.63553	0.63817	0.26047	-0.014
Mof_H 	H 	0.59913	0.62187	0.27827	-0.037
Mof_C 	C 	0.61253	0.63467	0.22407	0.003
Mof_H 	H 	0.56193	0.61417	0.21827	-0.014
Mof_C 	C 	0.60233	0.62017	0.08477	0.022
Mof_C 	C 	0.57223	0.54957	0.09827	-0.108
Mof_H 	H 	0.57283	0.54387	0.12287	-0.005
Mof_C 	C 	0.54353	0.49117	0.07917	-0.019
Mof_H 	H 	0.52063	0.44417	0.09017	0.015
Mof_C 	C 	0.54513	0.49517	0.04127	-0.07
Mof_H 	H 	0.52533	0.45207	0.02717	0.041
Mof_C 	C 	0.58153	0.57507	0.02507	-0.101
Mof_H 	H 	0.58423	0.58267	0.00057	-0.027
Mof_C 	C 	0.60883	0.63207	0.04777	0.025
Mof_C 	C 	0.65793	0.75387	0.05517	-0.012
Mof_H 	H 	0.67383	0.80177	0.04617	-0.024
Mof_C 	C 	0.65283	0.74267	0.09187	0.012
Mof_H 	H 	0.66813	0.78437	0.10667	-0.002
Mof_W 	W 	0.01656	0.10049	0.68496	0.951
Mof_W 	W 	0.11583	0.19157	0.60304	1.047
Mof_W 	W 	0.11881	0.19216	0.50513	1.045
Mof_W 	W 	0.00454	0.09565	0.42818	0.963
Mof_W 	W 	0.9167	0.10964	0.50988	1.337
Mof_W 	W 	0.91436	0.10758	0.60782	1.08
Mof_Cu	Cu	0.99058	0.29564	0.4879	0.852
Mof_Cu	Cu	0.9553	0.2745	0.31823	0.81
Mof_O 	O 	0.083	0.1579	0.6522	-0.457
Mof_O 	O 	0.9435	0.0993	0.6525	-0.43
Mof_O 	O 	0.0804	0.0694	0.704	-0.424
Mof_O 	O 	0.0735	0.0662	0.597	-0.331
Mof_O 	O 	0.132	0.1942	0.5553	-0.456
Mof_O 	O 	0.0177	0.1654	0.5971	-0.486
Mof_O 	O 	0.1967	0.1774	0.6126	-0.469
Mof_O 	O 	0.0831	0.1585	0.4605	-0.461
Mof_O 	O 	0.0748	0.0659	0.5163	-0.348
Mof_O 	O 	0.0204	0.1685	0.5163	-0.523
Mof_O 	O 	0.1985	0.1767	0.4999	-0.473
Mof_O 	O 	0.9422	0.1008	0.4612	-0.44
Mof_O 	O 	0.075	0.0696	0.4097	-0.433
Mof_O 	O 	0.9017	0.1028	0.5569	-0.468
Mof_O 	O 	0.898	0.1798	0.5009	-0.491
Mof_N 	N 	0.007	0.3359	0.5336	-0.276
Mof_N 	N 	0.0037	0.3747	0.6027	-0.286
Mof_N 	N 	0.9852	0.2814	0.439	-0.232
Mof_N 	N 	0.9664	0.2744	0.3676	-0.238
Mof_C 	C 	0.9855	0.3841	0.5428	0.057
Mof_C 	C 	0.957	0.4135	0.517	-0.106
Mof_H 	H 	0.9576	0.4015	0.4932	0.013
Mof_C 	C 	0.93	0.4573	0.5255	-0.026
Mof_H 	H 	0.9089	0.4736	0.5082	0.025
Mof_C 	C 	0.9333	0.4788	0.5606	-0.031
Mof_H 	H 	0.9198	0.5146	0.5666	0.025
Mof_C 	C 	0.9558	0.4483	0.5866	-0.112
Mof_H 	H 	0.9531	0.4585	0.6105	0.003
Mof_C 	C 	0.9816	0.4041	0.5768	0.063
Mof_C 	C 	0.0285	0.3307	0.5938	-0.022
Mof_H 	H 	0.0448	0.3106	0.6116	-0.044
Mof_C 	C 	0.032	0.3112	0.5574	-0.005
Mof_H 	H 	0.0525	0.2811	0.5516	-0.017
Mof_C 	C 	0.0465	0.3155	0.4181	-0.005
Mof_C 	C 	0.1171	0.356	0.4316	-0.098
Mof_H 	H 	0.1228	0.3623	0.4562	-0.016
Mof_C 	C 	0.1755	0.3857	0.4125	-0.026
Mof_H 	H 	0.2225	0.4098	0.4235	0.016
Mof_C 	C 	0.1715	0.3833	0.3746	-0.072
Mof_H 	H 	0.2146	0.4066	0.3605	0.041
Mof_C 	C 	0.0916	0.3398	0.3584	-0.092
Mof_H 	H 	0.084	0.3349	0.3339	-0.037
Mof_C 	C 	0.0346	0.3101	0.3811	-0.003
Mof_C 	C 	0.9128	0.2374	0.3885	-0.005
Mof_H 	H 	0.8649	0.2054	0.3795	-0.017
Mof_C 	C 	0.924	0.2435	0.4252	0.019
Mof_H 	H 	0.8823	0.2171	0.44	0.001
Mof_W 	W 	0.68323	0.43382	0.01829	1.006
Mof_W 	W 	0.7825	0.5249	0.93637	1.055
Mof_W 	W 	0.78548	0.52549	0.83846	1.052
Mof_W 	W 	0.67121	0.42898	0.76151	1.025
Mof_W 	W 	0.58337	0.44297	0.84322	1.311
Mof_W 	W 	0.58103	0.44091	0.94115	1.052
Mof_Cu	Cu	0.65725	0.62897	0.82123	0.838
Mof_Cu	Cu	0.62197	0.60783	0.65156	0.798
Mof_O 	O 	0.74967	0.49123	0.98553	-0.457
Mof_O 	O 	0.61017	0.43263	0.98583	-0.452
Mof_O 	O 	0.74707	0.40273	0.03733	-0.441
Mof_O 	O 	0.74017	0.39953	0.93033	-0.336
Mof_O 	O 	0.79867	0.52753	0.88863	-0.454
Mof_O 	O 	0.68437	0.49873	0.93043	-0.464
Mof_O 	O 	0.86337	0.51073	0.94593	-0.462
Mof_O 	O 	0.74977	0.49183	0.79383	-0.464
Mof_O 	O 	0.74147	0.39923	0.84963	-0.352
Mof_O 	O 	0.68707	0.50183	0.84963	-0.5
Mof_O 	O 	0.86517	0.51003	0.83323	-0.467
Mof_O 	O 	0.60887	0.43413	0.79453	-0.468
Mof_O 	O 	0.74167	0.40293	0.74303	-0.454
Mof_O 	O 	0.56837	0.43613	0.89023	-0.475
Mof_O 	O 	0.56467	0.51313	0.83423	-0.497
Mof_N 	N 	0.67367	0.66923	0.86693	-0.249
Mof_N 	N 	0.67037	0.70803	0.93603	-0.258
Mof_N 	N 	0.65187	0.61473	0.77233	-0.253
Mof_N 	N 	0.63307	0.60773	0.70093	-0.261
Mof_C 	C 	0.65217	0.71743	0.87613	0.028
Mof_C 	C 	0.62367	0.74683	0.85033	-0.098
Mof_H 	H 	0.62427	0.73483	0.82653	0.001
Mof_C 	C 	0.59667	0.79063	0.85883	-0.035
Mof_H 	H 	0.57557	0.80693	0.84153	0.019
Mof_C 	C 	0.59997	0.81213	0.89393	-0.037
Mof_H 	H 	0.58647	0.84793	0.89993	0.018
Mof_C 	C 	0.62247	0.78163	0.91993	-0.106
Mof_H 	H 	0.61977	0.79183	0.94383	-0.008
Mof_C 	C 	0.64827	0.73743	0.91013	0.037
Mof_C 	C 	0.69517	0.66403	0.92713	-0.014
Mof_H 	H 	0.71147	0.64393	0.94493	-0.036
Mof_C 	C 	0.69867	0.64453	0.89073	0.003
Mof_H 	H 	0.71917	0.61443	0.88493	-0.014
Mof_C 	C 	0.71317	0.64883	0.75143	0.022
Mof_C 	C 	0.78377	0.68933	0.76493	-0.108
Mof_H 	H 	0.78947	0.69563	0.78953	-0.005
Mof_C 	C 	0.84217	0.71903	0.74583	-0.019
Mof_H 	H 	0.88917	0.74313	0.75683	0.018
Mof_C 	C 	0.83817	0.71663	0.70793	-0.07
Mof_H 	H 	0.88127	0.73993	0.69383	0.044
Mof_C 	C 	0.75827	0.67313	0.69173	-0.101
Mof_H 	H 	0.75067	0.66823	0.66723	-0.026
Mof_C 	C 	0.70127	0.64343	0.71443	0.025
Mof_C 	C 	0.57947	0.57073	0.72183	-0.012
Mof_H 	H 	0.53157	0.53873	0.71283	-0.022
Mof_C 	C 	0.59067	0.57683	0.75853	0.012
Mof_H 	H 	0.54897	0.55043	0.77333	-0.002
Mof_W 	W 	0.34989	0.76716	0.35163	1.003
Mof_W 	W 	0.44916	0.85824	0.26971	1.045
Mof_W 	W 	0.45214	0.85883	0.1718	1.04
Mof_W 	W 	0.33787	0.76232	0.09485	1.019
Mof_W 	W 	0.25003	0.77631	0.17655	1.309
Mof_W 	W 	0.24769	0.77425	0.27449	1.045
Mof_Cu	Cu	0.32391	0.96231	0.15457	0.826
Mof_Cu	Cu	0.28863	0.94117	0.9849	0.791
Mof_O 	O 	0.41633	0.82457	0.31887	-0.461
Mof_O 	O 	0.27683	0.76597	0.31917	-0.454
Mof_O 	O 	0.41373	0.73607	0.37067	-0.444
Mof_O 	O 	0.40683	0.73287	0.26367	-0.334
Mof_O 	O 	0.46533	0.86087	0.22197	-0.456
Mof_O 	O 	0.35103	0.83207	0.26377	-0.463
Mof_O 	O 	0.53003	0.84407	0.27927	-0.468
Mof_O 	O 	0.41643	0.82517	0.12717	-0.466
Mof_O 	O 	0.40813	0.73257	0.18297	-0.351
Mof_O 	O 	0.35373	0.83517	0.18297	-0.501
Mof_O 	O 	0.53183	0.84337	0.16657	-0.474
Mof_O 	O 	0.27553	0.76747	0.12787	-0.469
Mof_O 	O 	0.40833	0.73627	0.07637	-0.458
Mof_O 	O 	0.23503	0.76947	0.22357	-0.477
Mof_O 	O 	0.23133	0.84647	0.16757	-0.504
Mof_N 	N 	0.34033	0.00257	0.20027	-0.225
Mof_N 	N 	0.33703	0.04137	0.26937	-0.24
Mof_N 	N 	0.31853	0.94807	0.10567	-0.252
Mof_N 	N 	0.29973	0.94107	0.03427	-0.262
Mof_C 	C 	0.31883	0.05077	0.20947	0.035
Mof_C 	C 	0.29033	0.08017	0.18367	-0.098
Mof_H 	H 	0.29093	0.06817	0.15987	0.009
Mof_C 	C 	0.26333	0.12397	0.19217	-0.03
Mof_H 	H 	0.24223	0.14027	0.17487	0.022
Mof_C 	C 	0.26663	0.14547	0.22727	-0.036
Mof_H 	H 	0.25313	0.18127	0.23327	0.022
Mof_C 	C 	0.28913	0.11497	0.25327	-0.103
Mof_H 	H 	0.28643	0.12517	0.27717	-0.005
Mof_C 	C 	0.31493	0.07077	0.24347	0.041
Mof_C 	C 	0.36183	0.99737	0.26047	-0.041
Mof_H 	H 	0.37813	0.97727	0.27827	-0.035
Mof_C 	C 	0.36533	0.97787	0.22407	-0.026
Mof_H 	H 	0.38583	0.94777	0.21827	-0.009
Mof_C 	C 	0.37983	0.98217	0.08477	-0.014
Mof_C 	C 	0.45043	0.02267	0.09827	-0.053
Mof_H 	H 	0.45613	0.02897	0.12287	-0.012
Mof_C 	C 	0.50883	0.05237	0.07917	-0.04
Mof_H 	H 	0.55583	0.07647	0.09017	0.028
Mof_C 	C 	0.50483	0.04997	0.04127	-0.063
Mof_H 	H 	0.54793	0.07327	0.02717	0.042
Mof_C 	C 	0.42493	0.00647	0.02507	-0.062
Mof_H 	H 	0.41733	0.00157	0.00057	-0.03
Mof_C 	C 	0.36793	0.97677	0.04777	-0.005
Mof_C 	C 	0.24613	0.90407	0.05517	-0.015
Mof_H 	H 	0.19823	0.87207	0.04617	-0.029
Mof_C 	C 	0.25733	0.91017	0.09187	0.009
Mof_H 	H 	0.21563	0.88377	0.10667	-0.006
Mof_W 	W 	0.89951	0.91607	0.68496	0.982
Mof_W 	W 	0.80843	0.92426	0.60304	1.014
Mof_W 	W 	0.80784	0.92665	0.50513	1.012
Mof_W 	W 	0.90435	0.90889	0.42818	1
Mof_W 	W 	0.89036	0.80706	0.50988	1.307
Mof_W 	W 	0.89242	0.80678	0.60782	1.049
Mof_Cu	Cu	0.70436	0.69494	0.4879	0.838
Mof_Cu	Cu	0.7255	0.6808	0.31823	0.8
Mof_O 	O 	0.8421	0.9251	0.6522	-0.463
Mof_O 	O 	0.9007	0.8442	0.6525	-0.446
Mof_O 	O 	0.9306	0.011	0.704	-0.4
Mof_O 	O 	0.9338	0.0073	0.597	-0.299
Mof_O 	O 	0.8058	0.9378	0.5553	-0.461
Mof_O 	O 	0.8346	0.8523	0.5971	-0.46
Mof_O 	O 	0.8226	0.0193	0.6126	-0.449
Mof_O 	O 	0.8415	0.9246	0.4605	-0.467
Mof_O 	O 	0.9341	0.0089	0.5163	-0.316
Mof_O 	O 	0.8315	0.8519	0.5163	-0.497
Mof_O 	O 	0.8233	0.0218	0.4999	-0.453
Mof_O 	O 	0.8992	0.8414	0.4612	-0.46
Mof_O 	O 	0.9304	0.0054	0.4097	-0.409
Mof_O 	O 	0.8972	0.7989	0.5569	-0.47
Mof_O 	O 	0.8202	0.7182	0.5009	-0.493
Mof_N 	N 	0.6641	0.6711	0.5336	-0.249
Mof_N 	N 	0.6253	0.629	0.6027	-0.259
Mof_N 	N 	0.7186	0.7038	0.439	-0.253
Mof_N 	N 	0.7256	0.692	0.3676	-0.26
Mof_C 	C 	0.6159	0.6014	0.5428	0.028
Mof_C 	C 	0.5865	0.5435	0.517	-0.097
Mof_H 	H 	0.5985	0.5561	0.4932	0.003
Mof_C 	C 	0.5427	0.4727	0.5255	-0.033
Mof_H 	H 	0.5264	0.4353	0.5082	0.023
Mof_C 	C 	0.5212	0.4545	0.5606	-0.036
Mof_H 	H 	0.4854	0.4052	0.5666	0.023
Mof_C 	C 	0.5517	0.5075	0.5866	-0.104
Mof_H 	H 	0.5415	0.4946	0.6105	-0.006
Mof_C 	C 	0.5959	0.5775	0.5768	0.037
Mof_C 	C 	0.6693	0.6978	0.5938	-0.014
Mof_H 	H 	0.6894	0.7342	0.6116	-0.038
Mof_C 	C 	0.6888	0.7208	0.5574	0.002
Mof_H 	H 	0.7189	0.7714	0.5516	-0.014
Mof_C 	C 	0.6845	0.731	0.4181	0.022
Mof_C 	C 	0.644	0.7611	0.4316	-0.11
Mof_H 	H 	0.6377	0.7605	0.4562	-0.006
Mof_C 	C 	0.6143	0.7898	0.4125	-0.019
Mof_H 	H 	0.5902	0.8127	0.4235	0.011
Mof_C 	C 	0.6167	0.7882	0.3746	-0.072
Mof_H 	H 	0.5934	0.808	0.3605	0.039
Mof_C 	C 	0.6602	0.7518	0.3584	-0.102
Mof_H 	H 	0.6651	0.7491	0.3339	-0.027
Mof_C 	C 	0.6899	0.7245	0.3811	0.025
Mof_C 	C 	0.7626	0.6754	0.3885	-0.011
Mof_H 	H 	0.7946	0.6595	0.3795	-0.018
Mof_C 	C 	0.7565	0.6805	0.4252	0.014
Mof_H 	H 	0.7829	0.6652	0.44	0.001
Mof_W 	W 	0.56618	0.2494	0.01829	1.006
Mof_W 	W 	0.4751	0.25759	0.93637	1.053
Mof_W 	W 	0.47451	0.25998	0.83846	1.049
Mof_W 	W 	0.57102	0.24222	0.76151	1.025
Mof_W 	W 	0.55703	0.14039	0.84322	1.312
Mof_W 	W 	0.55909	0.14011	0.94115	1.058
Mof_Cu	Cu	0.37103	0.02827	0.82123	0.843
Mof_Cu	Cu	0.39217	0.01413	0.65156	0.809
Mof_O 	O 	0.50877	0.25843	0.98553	-0.457
Mof_O 	O 	0.56737	0.17753	0.98583	-0.452
Mof_O 	O 	0.59727	0.34433	0.03733	-0.441
Mof_O 	O 	0.60047	0.34063	0.93033	-0.336
Mof_O 	O 	0.47247	0.27113	0.88863	-0.455
Mof_O 	O 	0.50127	0.18563	0.93043	-0.464
Mof_O 	O 	0.48927	0.35263	0.94593	-0.466
Mof_O 	O 	0.50817	0.25793	0.79383	-0.465
Mof_O 	O 	0.60077	0.34223	0.84963	-0.352
Mof_O 	O 	0.49817	0.18523	0.84963	-0.5
Mof_O 	O 	0.48997	0.35513	0.83323	-0.472
Mof_O 	O 	0.56587	0.17473	0.79453	-0.467
Mof_O 	O 	0.59707	0.33873	0.74303	-0.455
Mof_O 	O 	0.56387	0.13223	0.89023	-0.473
Mof_O 	O 	0.48687	0.05153	0.83423	-0.486
Mof_N 	N 	0.33077	0.00443	0.86693	-0.226
Mof_N 	N 	0.29197	0.96233	0.93603	-0.284
Mof_N 	N 	0.38527	0.03713	0.77233	-0.258
Mof_N 	N 	0.39227	0.02533	0.70093	-0.264
Mof_C 	C 	0.28257	0.93473	0.87613	-0.015
Mof_C 	C 	0.25317	0.87683	0.85033	-0.077
Mof_H 	H 	0.26517	0.88943	0.82653	-0.015
Mof_C 	C 	0.20937	0.80603	0.85883	-0.056
Mof_H 	H 	0.19307	0.76863	0.84153	0.023
Mof_C 	C 	0.18787	0.78783	0.89393	-0.024
Mof_H 	H 	0.15207	0.73853	0.89993	0.01
Mof_C 	C 	0.21837	0.84083	0.91993	-0.124
Mof_H 	H 	0.20817	0.82793	0.94383	-0.005
Mof_C 	C 	0.26257	0.91083	0.91013	0.05
Mof_C 	C 	0.33597	0.03113	0.92713	0.028
Mof_H 	H 	0.35607	0.06753	0.94493	-0.046
Mof_C 	C 	0.35547	0.05413	0.89073	-0.01
Mof_H 	H 	0.38557	0.10473	0.88493	-0.009
Mof_C 	C 	0.35117	0.06433	0.75143	0.024
Mof_C 	C 	0.31067	0.09443	0.76493	-0.107
Mof_H 	H 	0.30437	0.09383	0.78953	-0.004
Mof_C 	C 	0.28097	0.12313	0.74583	-0.018
Mof_H 	H 	0.25687	0.14603	0.75683	0.014
Mof_C 	C 	0.28337	0.12153	0.70793	-0.067
Mof_H 	H 	0.26007	0.14133	0.69383	0.041
Mof_C 	C 	0.32687	0.08513	0.69173	-0.099
Mof_H 	H 	0.33177	0.08243	0.66723	-0.022
Mof_C 	C 	0.35657	0.05783	0.71443	0.028
Mof_C 	C 	0.42927	0.00873	0.72183	0.026
Mof_H 	H 	0.46127	0.99283	0.71283	-0.059
Mof_C 	C 	0.42317	0.01383	0.75853	0.051
Mof_H 	H 	0.44957	0.99853	0.77333	-0.039
Mof_W 	W 	0.23284	0.58274	0.35163	1.003
Mof_W 	W 	0.14176	0.59093	0.26971	1.043
Mof_W 	W 	0.14117	0.59332	0.1718	1.038
Mof_W 	W 	0.23768	0.57556	0.09485	1.019
Mof_W 	W 	0.22369	0.47373	0.17655	1.31
Mof_W 	W 	0.22575	0.47345	0.27449	1.048
Mof_Cu	Cu	0.03769	0.36161	0.15457	0.825
Mof_Cu	Cu	0.05883	0.34747	0.9849	0.792
Mof_O 	O 	0.17543	0.59177	0.31887	-0.461
Mof_O 	O 	0.23403	0.51087	0.31917	-0.454
Mof_O 	O 	0.26393	0.67767	0.37067	-0.444
Mof_O 	O 	0.26713	0.67397	0.26367	-0.334
Mof_O 	O 	0.13913	0.60447	0.22197	-0.456
Mof_O 	O 	0.16793	0.51897	0.26377	-0.463
Mof_O 	O 	0.15593	0.68597	0.27927	-0.47
Mof_O 	O 	0.17483	0.59127	0.12717	-0.467
Mof_O 	O 	0.26743	0.67557	0.18297	-0.35
Mof_O 	O 	0.16483	0.51857	0.18297	-0.501
Mof_O 	O 	0.15663	0.68847	0.16657	-0.476
Mof_O 	O 	0.23253	0.50807	0.12787	-0.468
Mof_O 	O 	0.26373	0.67207	0.07637	-0.458
Mof_O 	O 	0.23053	0.46557	0.22357	-0.475
Mof_O 	O 	0.15353	0.38487	0.16757	-0.5
Mof_N 	N 	0.99743	0.33777	0.20027	-0.22
Mof_N 	N 	0.95863	0.29567	0.26937	-0.236
Mof_N 	N 	0.05193	0.37047	0.10567	-0.251
Mof_N 	N 	0.05893	0.35867	0.03427	-0.261
Mof_C 	C 	0.94923	0.26807	0.20947	0.038
Mof_C 	C 	0.91983	0.21017	0.18367	-0.095
Mof_H 	H 	0.93183	0.22277	0.15987	0.013
Mof_C 	C 	0.87603	0.13937	0.19217	-0.027
Mof_H 	H 	0.85973	0.10197	0.17487	0.031
Mof_C 	C 	0.85453	0.12117	0.22727	-0.032
Mof_H 	H 	0.81873	0.07187	0.23327	0.031
Mof_C 	C 	0.88503	0.17417	0.25327	-0.1
Mof_H 	H 	0.87483	0.16127	0.27717	0
Mof_C 	C 	0.92923	0.24417	0.24347	0.044
Mof_C 	C 	0.00263	0.36447	0.26047	-0.045
Mof_H 	H 	0.02273	0.40087	0.27827	-0.035
Mof_C 	C 	0.02213	0.38747	0.22407	-0.03
Mof_H 	H 	0.05223	0.43807	0.21827	-0.008
Mof_C 	C 	0.01783	0.39767	0.08477	-0.019
Mof_C 	C 	0.97733	0.42777	0.09827	-0.044
Mof_H 	H 	0.97103	0.42717	0.12287	-0.014
Mof_C 	C 	0.94763	0.45647	0.07917	-0.044
Mof_H 	H 	0.92353	0.47937	0.09017	0.029
Mof_C 	C 	0.95003	0.45487	0.04127	-0.062
Mof_H 	H 	0.92673	0.47467	0.02717	0.041
Mof_C 	C 	0.99353	0.41847	0.02507	-0.055
Mof_H 	H 	0.99843	0.41577	0.00057	-0.03
Mof_C 	C 	0.02323	0.39117	0.04777	-0.009
Mof_C 	C 	0.09593	0.34207	0.05517	-0.013
Mof_H 	H 	0.12793	0.32617	0.04617	-0.023
Mof_C 	C 	0.08983	0.34717	0.09187	0.01
Mof_H 	H 	0.11623	0.33187	0.10667	-0.002
Mof_P 	P 	1.39054e-32	0	0.6082	0.528
Mof_P 	P 	-0	0	0.5045	0.526
Mof_O 	O 	-0	2.78108e-32	0.6502	-0.364
Mof_O 	O 	-2.08581e-32	0	0.4636	-0.373
Mof_P 	P 	0.66667	0.33333	0.94153	0.557
Mof_P 	P 	0.66667	0.33333	0.83783	0.554
Mof_O 	O 	0.66667	0.33333	0.98353	-0.372
Mof_O 	O 	0.66667	0.33333	0.79693	-0.382
Mof_P 	P 	0.33333	0.66667	0.27487	0.557
Mof_P 	P 	0.33333	0.66667	0.17117	0.554
Mof_O 	O 	0.33333	0.66667	0.31687	-0.372
Mof_O 	O 	0.33333	0.66667	0.13027	-0.381
_end
