data_functionalizedCrystal
_audit_creation_method	'EQeq! by Chris Wilmer'
_symmetry_space_group_name_H-M	'P1'
_symmetry_Int_Tables_number	1
_symmetry_cell_setting	triclinic
loop_
_symmetry_equiv_pos_as_xyz
  x,y,z
_cell_length_a	14.349
_cell_length_b	12.088
_cell_length_c	26.62
_cell_angle_alpha	90
_cell_angle_beta	97.255
_cell_angle_gamma	90
loop_
_atom_site_label
_atom_site_type_symbol
_atom_site_fract_x
_atom_site_fract_y
_atom_site_fract_z
_atom_site_charge
Mof_Co	Co	0.15946	0.21171	0.3073	1.168
Mof_Co	Co	0.64194	0.83762	0.78506	1.171
Mof_C 	C 	0.0858	0.0286	0.2308	0.109
Mof_H 	H 	0.1193	0.9827	0.2546	-0.014
Mof_C 	C 	0.0456	0.9818	0.1861	-0.185
Mof_H 	H 	0.052	0.9067	0.1798	0.113
Mof_C 	C 	0.9953	0.0506	0.1506	0.124
Mof_C 	C 	0.9838	0.163	0.163	-0.17
Mof_H 	H 	0.9483	0.2101	0.1406	0.096
Mof_C 	C 	0.0262	0.2009	0.2086	0.091
Mof_H 	H 	0.0178	0.2746	0.2171	-0.006
Mof_C 	C 	0.957	0.0059	0.1	-0.047
Mof_H 	H 	0.9555	0.9297	0.0951	0.066
Mof_C 	C 	0.858	0.0655	0.983	-0.047
Mof_H 	H 	0.8596	0.1422	0.9857	0.058
Mof_C 	C 	0.8164	0.0122	0.9365	0.128
Mof_C 	C 	0.8103	0.8998	0.93	-0.169
Mof_H 	H 	0.8374	0.8533	0.9556	0.102
Mof_C 	C 	0.7648	0.8547	0.8863	0.099
Mof_H 	H 	0.7621	0.7781	0.8831	-0.003
Mof_C 	C 	0.7315	0.0267	0.8525	0.101
Mof_H 	H 	0.706	0.071	0.8257	-0.002
Mof_C 	C 	0.7764	0.0771	0.8959	-0.167
Mof_H 	H 	0.7799	0.1538	0.8979	0.085
Mof_C 	C 	0.2462	0.4006	0.3768	0.093
Mof_H 	H 	0.2199	0.4448	0.3501	-0
Mof_C 	C 	0.2914	0.4515	0.4189	-0.159
Mof_H 	H 	0.2937	0.5283	0.4208	0.095
Mof_C 	C 	0.3336	0.3883	0.4584	0.112
Mof_C 	C 	0.3262	0.2721	0.4538	-0.16
Mof_H 	H 	0.3532	0.2264	0.4798	0.085
Mof_C 	C 	0.2785	0.2274	0.4105	0.089
Mof_H 	H 	0.2743	0.1508	0.4076	-0.001
Mof_C 	C 	0.3831	0.4368	0.5053	-0.032
Mof_H 	H 	0.4124	0.3896	0.53	0.058
Mof_C 	C 	0.4281	0.6595	0.5744	-0.047
Mof_H 	H 	0.3942	0.7092	0.5525	0.054
Mof_C 	C 	0.4709	0.6979	0.6252	0.123
Mof_C 	C 	0.5232	0.6247	0.6575	-0.175
Mof_H 	H 	0.529	0.551	0.6484	0.113
Mof_C 	C 	0.5666	0.6634	0.7035	0.1
Mof_H 	H 	0.6038	0.6148	0.7244	-0.01
Mof_C 	C 	0.5028	0.8348	0.6893	0.104
Mof_H 	H 	0.4935	0.9065	0.7003	-0.008
Mof_C 	C 	0.4589	0.8034	0.6422	-0.184
Mof_H 	H 	0.4215	0.8535	0.6222	0.089
Mof_C 	C 	0.3023	0.0166	0.2958	0.409
Mof_C 	C 	0.3139	0.9093	0.3265	-0.169
Mof_H 	H 	0.2585	0.9011	0.3442	0.091
Mof_C 	C 	0.4012	0.9191	0.367	-0.046
Mof_H 	H 	0.4564	0.9333	0.3504	0.058
Mof_H 	H 	0.3929	0.9812	0.3891	0.043
Mof_C 	C 	0.4164	0.8139	0.3986	-0.092
Mof_H 	H 	0.4748	0.8207	0.4212	0.06
Mof_H 	H 	0.3658	0.8066	0.4193	0.056
Mof_C 	C 	0.4204	0.7098	0.3668	-0.087
Mof_H 	H 	0.4196	0.6462	0.3896	0.06
Mof_C 	C 	0.3318	0.703	0.3279	-0.113
Mof_H 	H 	0.277	0.6946	0.3455	0.062
Mof_H 	H 	0.3358	0.6386	0.3066	0.068
Mof_C 	C 	0.3213	0.8074	0.295	-0.026
Mof_H 	H 	0.3751	0.8141	0.2765	0.053
Mof_H 	H 	0.2654	0.8009	0.2705	0.033
Mof_C 	C 	0.5097	0.6986	0.3386	0.312
Mof_C 	C 	0.2101	0.3568	0.2271	0.379
Mof_C 	C 	0.1952	0.4586	0.1926	-0.145
Mof_H 	H 	0.254	0.4728	0.1785	0.082
Mof_C 	C 	0.1172	0.4344	0.1474	-0.068
Mof_H 	H 	0.1333	0.368	0.1299	0.052
Mof_H 	H 	0.0579	0.4214	0.1604	0.064
Mof_C 	C 	0.1066	0.5308	0.1105	-0.07
Mof_H 	H 	0.0551	0.5153	0.0842	0.056
Mof_H 	H 	0.1635	0.5368	0.0944	0.048
Mof_C 	C 	0.0883	0.6419	0.1352	-0.116
Mof_H 	H 	0.0979	0.7001	0.1108	0.065
Mof_C 	C 	0.1608	0.6606	0.1823	-0.084
Mof_H 	H 	0.2219	0.6745	0.1715	0.051
Mof_H 	H 	0.1432	0.7258	0.2001	0.057
Mof_C 	C 	0.1684	0.5631	0.2181	-0.052
Mof_H 	H 	0.2151	0.579	0.2468	0.043
Mof_H 	H 	0.1085	0.5521	0.2308	0.062
Mof_C 	C 	0.9896	0.6525	0.1475	0.31
Mof_N 	N 	0.0798	0.1354	0.24202	-0.237
Mof_N 	N 	0.9267	0.0688	0.06362	-0.074
Mof_N 	N 	0.8929	0.0037	0.02061	-0.07
Mof_N 	N 	0.7238	0.9177	0.84792	-0.229
Mof_N 	N 	0.2376	0.29	0.37183	-0.229
Mof_N 	N 	0.3869	0.5389	0.51308	-0.075
Mof_N 	N 	0.4366	0.5614	0.5605	-0.072
Mof_N 	N 	0.5574	0.7677	0.71934	-0.237
Mof_O 	O 	0.2585	0.0932	0.31421	-0.478
Mof_O 	O 	0.3409	0.023	0.25662	-0.45
Mof_O 	O 	0.5746	0.7676	0.3454	-0.351
Mof_O 	O 	0.5145	0.6187	0.31018	-0.4
Mof_O 	O 	0.2586	0.2789	0.21225	-0.473
Mof_O 	O 	0.1699	0.3538	0.26677	-0.436
Mof_O 	O 	0.9682	0.7453	0.1676	-0.399
Mof_O 	O 	0.93	0.5788	0.1419	-0.33
Mof_Co	Co	0.84054	0.71171	0.1927	1.167
Mof_Co	Co	0.35806	0.33762	0.71494	1.17
Mof_C 	C 	0.9142	0.5286	0.2692	0.109
Mof_H 	H 	0.8807	0.4827	0.2454	-0.016
Mof_C 	C 	0.9544	0.4818	0.3139	-0.187
Mof_H 	H 	0.948	0.4067	0.3202	0.113
Mof_C 	C 	0.0047	0.5506	0.3494	0.123
Mof_C 	C 	0.0162	0.663	0.337	-0.172
Mof_H 	H 	0.0517	0.7101	0.3594	0.096
Mof_C 	C 	0.9738	0.7009	0.2914	0.092
Mof_H 	H 	0.9822	0.7746	0.2829	-0.006
Mof_C 	C 	0.043	0.5059	0.4	-0.047
Mof_H 	H 	0.0445	0.4297	0.4049	0.067
Mof_C 	C 	0.142	0.5655	0.517	-0.047
Mof_H 	H 	0.1404	0.6422	0.5143	0.058
Mof_C 	C 	0.1836	0.5122	0.5635	0.127
Mof_C 	C 	0.1897	0.3998	0.57	-0.168
Mof_H 	H 	0.1626	0.3533	0.5444	0.102
Mof_C 	C 	0.2352	0.3547	0.6137	0.098
Mof_H 	H 	0.2379	0.2781	0.6169	-0.003
Mof_C 	C 	0.2685	0.5267	0.6475	0.101
Mof_H 	H 	0.294	0.571	0.6743	-0.002
Mof_C 	C 	0.2236	0.5771	0.6041	-0.167
Mof_H 	H 	0.2201	0.6538	0.6021	0.085
Mof_C 	C 	0.7538	0.9006	0.1232	0.093
Mof_H 	H 	0.7801	0.9448	0.1499	-0
Mof_C 	C 	0.7086	0.9515	0.0811	-0.159
Mof_H 	H 	0.7063	0.0283	0.0792	0.096
Mof_C 	C 	0.6664	0.8883	0.0416	0.113
Mof_C 	C 	0.6738	0.7721	0.0462	-0.16
Mof_H 	H 	0.6468	0.7264	0.0202	0.085
Mof_C 	C 	0.7215	0.7274	0.0895	0.089
Mof_H 	H 	0.7257	0.6508	0.0924	-0.001
Mof_C 	C 	0.6169	0.9368	0.9947	-0.032
Mof_H 	H 	0.5876	0.8896	0.97	0.058
Mof_C 	C 	0.5719	0.1595	0.9256	-0.047
Mof_H 	H 	0.6058	0.2092	0.9475	0.054
Mof_C 	C 	0.5291	0.1979	0.8748	0.123
Mof_C 	C 	0.4768	0.1247	0.8425	-0.175
Mof_H 	H 	0.471	0.051	0.8516	0.113
Mof_C 	C 	0.4334	0.1634	0.7965	0.1
Mof_H 	H 	0.3962	0.1148	0.7756	-0.01
Mof_C 	C 	0.4972	0.3348	0.8107	0.104
Mof_H 	H 	0.5065	0.4065	0.7997	-0.008
Mof_C 	C 	0.5411	0.3034	0.8578	-0.184
Mof_H 	H 	0.5785	0.3535	0.8778	0.089
Mof_C 	C 	0.6977	0.5166	0.2042	0.409
Mof_C 	C 	0.6861	0.4093	0.1735	-0.169
Mof_H 	H 	0.7415	0.4011	0.1558	0.091
Mof_C 	C 	0.5988	0.4191	0.133	-0.046
Mof_H 	H 	0.5436	0.4333	0.1496	0.058
Mof_H 	H 	0.6071	0.4812	0.1109	0.043
Mof_C 	C 	0.5836	0.3139	0.1014	-0.092
Mof_H 	H 	0.5252	0.3207	0.0788	0.06
Mof_H 	H 	0.6342	0.3066	0.0807	0.056
Mof_C 	C 	0.5796	0.2098	0.1332	-0.087
Mof_H 	H 	0.5804	0.1462	0.1104	0.06
Mof_C 	C 	0.6682	0.203	0.1721	-0.113
Mof_H 	H 	0.723	0.1946	0.1545	0.062
Mof_H 	H 	0.6642	0.1386	0.1934	0.068
Mof_C 	C 	0.6787	0.3074	0.205	-0.026
Mof_H 	H 	0.6249	0.3141	0.2235	0.053
Mof_H 	H 	0.7346	0.3009	0.2295	0.033
Mof_C 	C 	0.4903	0.1986	0.1614	0.312
Mof_C 	C 	0.7899	0.8568	0.2729	0.379
Mof_C 	C 	0.8048	0.9586	0.3074	-0.145
Mof_H 	H 	0.746	0.9728	0.3215	0.082
Mof_C 	C 	0.8828	0.9344	0.3526	-0.068
Mof_H 	H 	0.8667	0.868	0.3701	0.052
Mof_H 	H 	0.9421	0.9214	0.3396	0.064
Mof_C 	C 	0.8934	0.0308	0.3895	-0.07
Mof_H 	H 	0.9449	0.0153	0.4158	0.056
Mof_H 	H 	0.8365	0.0368	0.4056	0.048
Mof_C 	C 	0.9117	0.1419	0.3648	-0.116
Mof_H 	H 	0.9021	0.2001	0.3892	0.065
Mof_C 	C 	0.8392	0.1606	0.3177	-0.085
Mof_H 	H 	0.7781	0.1745	0.3285	0.051
Mof_H 	H 	0.8568	0.2258	0.2999	0.057
Mof_C 	C 	0.8316	0.0631	0.2819	-0.052
Mof_H 	H 	0.7849	0.079	0.2532	0.043
Mof_H 	H 	0.8915	0.0521	0.2692	0.062
Mof_C 	C 	0.0104	0.1525	0.3525	0.309
Mof_N 	N 	0.9202	0.6354	0.25798	-0.237
Mof_N 	N 	0.0733	0.5688	0.43638	-0.074
Mof_N 	N 	0.1071	0.5037	0.47939	-0.07
Mof_N 	N 	0.2762	0.4177	0.65208	-0.229
Mof_N 	N 	0.7624	0.79	0.12817	-0.229
Mof_N 	N 	0.6131	0.0389	0.98692	-0.075
Mof_N 	N 	0.5634	0.0614	0.9395	-0.072
Mof_N 	N 	0.4426	0.2677	0.78066	-0.237
Mof_O 	O 	0.7415	0.5932	0.18579	-0.478
Mof_O 	O 	0.6591	0.523	0.24338	-0.45
Mof_O 	O 	0.4254	0.2676	0.1546	-0.351
Mof_O 	O 	0.4855	0.1187	0.18982	-0.4
Mof_O 	O 	0.7414	0.7789	0.28775	-0.473
Mof_O 	O 	0.8301	0.8538	0.23323	-0.436
Mof_O 	O 	0.0318	0.2453	0.3324	-0.399
Mof_O 	O 	0.07	0.0788	0.3581	-0.33
Mof_Co	Co	0.84054	0.78829	0.6927	1.167
Mof_Co	Co	0.35806	0.16238	0.21494	1.17
Mof_C 	C 	0.9142	0.9714	0.7692	0.108
Mof_H 	H 	0.8807	0.0173	0.7454	-0.015
Mof_C 	C 	0.9544	0.0182	0.8139	-0.186
Mof_H 	H 	0.948	0.0933	0.8202	0.112
Mof_C 	C 	0.0047	0.9494	0.8494	0.123
Mof_C 	C 	0.0162	0.837	0.837	-0.171
Mof_H 	H 	0.0517	0.7899	0.8594	0.096
Mof_C 	C 	0.9738	0.7991	0.7914	0.091
Mof_H 	H 	0.9822	0.7254	0.7829	-0.006
Mof_C 	C 	0.043	0.9941	0.9	-0.047
Mof_H 	H 	0.0445	0.0703	0.9049	0.066
Mof_C 	C 	0.142	0.9345	0.017	-0.047
Mof_H 	H 	0.1404	0.8578	0.0143	0.058
Mof_C 	C 	0.1836	0.9878	0.0635	0.128
Mof_C 	C 	0.1897	0.1002	0.07	-0.169
Mof_H 	H 	0.1626	0.1467	0.0444	0.102
Mof_C 	C 	0.2352	0.1453	0.1137	0.099
Mof_H 	H 	0.2379	0.2219	0.1169	-0.003
Mof_C 	C 	0.2685	0.9733	0.1475	0.101
Mof_H 	H 	0.294	0.929	0.1743	-0.002
Mof_C 	C 	0.2236	0.9229	0.1041	-0.167
Mof_H 	H 	0.2201	0.8462	0.1021	0.085
Mof_C 	C 	0.7538	0.5994	0.6232	0.093
Mof_H 	H 	0.7801	0.5552	0.6499	-0
Mof_C 	C 	0.7086	0.5485	0.5811	-0.159
Mof_H 	H 	0.7063	0.4717	0.5792	0.095
Mof_C 	C 	0.6664	0.6117	0.5416	0.112
Mof_C 	C 	0.6738	0.7279	0.5462	-0.16
Mof_H 	H 	0.6468	0.7736	0.5202	0.085
Mof_C 	C 	0.7215	0.7726	0.5895	0.089
Mof_H 	H 	0.7257	0.8492	0.5924	-0.001
Mof_C 	C 	0.6169	0.5632	0.4947	-0.032
Mof_H 	H 	0.5876	0.6104	0.47	0.058
Mof_C 	C 	0.5719	0.3405	0.4256	-0.047
Mof_H 	H 	0.6058	0.2908	0.4475	0.054
Mof_C 	C 	0.5291	0.3021	0.3748	0.123
Mof_C 	C 	0.4768	0.3753	0.3425	-0.175
Mof_H 	H 	0.471	0.449	0.3516	0.113
Mof_C 	C 	0.4334	0.3366	0.2965	0.1
Mof_H 	H 	0.3962	0.3852	0.2756	-0.01
Mof_C 	C 	0.4972	0.1652	0.3107	0.104
Mof_H 	H 	0.5065	0.0935	0.2997	-0.008
Mof_C 	C 	0.5411	0.1966	0.3578	-0.184
Mof_H 	H 	0.5785	0.1465	0.3778	0.089
Mof_C 	C 	0.6977	0.9834	0.7042	0.409
Mof_C 	C 	0.6861	0.0907	0.6735	-0.169
Mof_H 	H 	0.7415	0.0989	0.6558	0.091
Mof_C 	C 	0.5988	0.0809	0.633	-0.046
Mof_H 	H 	0.5436	0.0667	0.6496	0.058
Mof_H 	H 	0.6071	0.0188	0.6109	0.043
Mof_C 	C 	0.5836	0.1861	0.6014	-0.092
Mof_H 	H 	0.5252	0.1793	0.5788	0.06
Mof_H 	H 	0.6342	0.1934	0.5807	0.056
Mof_C 	C 	0.5796	0.2902	0.6332	-0.087
Mof_H 	H 	0.5804	0.3538	0.6104	0.06
Mof_C 	C 	0.6682	0.297	0.6721	-0.113
Mof_H 	H 	0.723	0.3054	0.6545	0.062
Mof_H 	H 	0.6642	0.3614	0.6934	0.068
Mof_C 	C 	0.6787	0.1926	0.705	-0.026
Mof_H 	H 	0.6249	0.1859	0.7235	0.053
Mof_H 	H 	0.7346	0.1991	0.7295	0.033
Mof_C 	C 	0.4903	0.3014	0.6614	0.312
Mof_C 	C 	0.7899	0.6432	0.7729	0.379
Mof_C 	C 	0.8048	0.5414	0.8074	-0.145
Mof_H 	H 	0.746	0.5272	0.8215	0.082
Mof_C 	C 	0.8828	0.5656	0.8526	-0.068
Mof_H 	H 	0.8667	0.632	0.8701	0.052
Mof_H 	H 	0.9421	0.5786	0.8396	0.064
Mof_C 	C 	0.8934	0.4692	0.8895	-0.07
Mof_H 	H 	0.9449	0.4847	0.9158	0.056
Mof_H 	H 	0.8365	0.4632	0.9056	0.048
Mof_C 	C 	0.9117	0.3581	0.8648	-0.116
Mof_H 	H 	0.9021	0.2999	0.8892	0.065
Mof_C 	C 	0.8392	0.3394	0.8177	-0.084
Mof_H 	H 	0.7781	0.3255	0.8285	0.051
Mof_H 	H 	0.8568	0.2742	0.7999	0.057
Mof_C 	C 	0.8316	0.4369	0.7819	-0.052
Mof_H 	H 	0.7849	0.421	0.7532	0.043
Mof_H 	H 	0.8915	0.4479	0.7692	0.062
Mof_C 	C 	0.0104	0.3475	0.8525	0.31
Mof_N 	N 	0.9202	0.8646	0.75798	-0.237
Mof_N 	N 	0.0733	0.9312	0.93638	-0.074
Mof_N 	N 	0.1071	0.9963	0.97939	-0.07
Mof_N 	N 	0.2762	0.0823	0.15208	-0.229
Mof_N 	N 	0.7624	0.71	0.62817	-0.229
Mof_N 	N 	0.6131	0.4611	0.48692	-0.075
Mof_N 	N 	0.5634	0.4386	0.4395	-0.072
Mof_N 	N 	0.4426	0.2323	0.28066	-0.237
Mof_O 	O 	0.7415	0.9068	0.68579	-0.478
Mof_O 	O 	0.6591	0.977	0.74338	-0.45
Mof_O 	O 	0.4254	0.2324	0.6546	-0.351
Mof_O 	O 	0.4855	0.3813	0.68982	-0.4
Mof_O 	O 	0.7414	0.7211	0.78775	-0.473
Mof_O 	O 	0.8301	0.6462	0.73323	-0.436
Mof_O 	O 	0.0318	0.2547	0.8324	-0.399
Mof_O 	O 	0.07	0.4212	0.8581	-0.33
Mof_Co	Co	0.15946	0.28829	0.8073	1.167
Mof_Co	Co	0.64194	0.66238	0.28506	1.17
Mof_C 	C 	0.0858	0.4714	0.7308	0.109
Mof_H 	H 	0.1193	0.5173	0.7546	-0.016
Mof_C 	C 	0.0456	0.5182	0.6861	-0.187
Mof_H 	H 	0.052	0.5933	0.6798	0.113
Mof_C 	C 	0.9953	0.4494	0.6506	0.123
Mof_C 	C 	0.9838	0.337	0.663	-0.172
Mof_H 	H 	0.9483	0.2899	0.6406	0.096
Mof_C 	C 	0.0262	0.2991	0.7086	0.092
Mof_H 	H 	0.0178	0.2254	0.7171	-0.006
Mof_C 	C 	0.957	0.4941	0.6	-0.047
Mof_H 	H 	0.9555	0.5703	0.5951	0.067
Mof_C 	C 	0.858	0.4345	0.483	-0.047
Mof_H 	H 	0.8596	0.3578	0.4857	0.058
Mof_C 	C 	0.8164	0.4878	0.4365	0.127
Mof_C 	C 	0.8103	0.6002	0.43	-0.168
Mof_H 	H 	0.8374	0.6467	0.4556	0.102
Mof_C 	C 	0.7648	0.6453	0.3863	0.098
Mof_H 	H 	0.7621	0.7219	0.3831	-0.003
Mof_C 	C 	0.7315	0.4733	0.3525	0.101
Mof_H 	H 	0.706	0.429	0.3257	-0.002
Mof_C 	C 	0.7764	0.4229	0.3959	-0.167
Mof_H 	H 	0.7799	0.3462	0.3979	0.085
Mof_C 	C 	0.2462	0.0994	0.8768	0.093
Mof_H 	H 	0.2199	0.0552	0.8501	-0
Mof_C 	C 	0.2914	0.0485	0.9189	-0.159
Mof_H 	H 	0.2937	0.9717	0.9208	0.096
Mof_C 	C 	0.3336	0.1117	0.9584	0.113
Mof_C 	C 	0.3262	0.2279	0.9538	-0.16
Mof_H 	H 	0.3532	0.2736	0.9798	0.085
Mof_C 	C 	0.2785	0.2726	0.9105	0.089
Mof_H 	H 	0.2743	0.3492	0.9076	-0.001
Mof_C 	C 	0.3831	0.0632	0.0053	-0.032
Mof_H 	H 	0.4124	0.1104	0.03	0.058
Mof_C 	C 	0.4281	0.8405	0.0744	-0.047
Mof_H 	H 	0.3942	0.7908	0.0525	0.054
Mof_C 	C 	0.4709	0.8021	0.1252	0.123
Mof_C 	C 	0.5232	0.8753	0.1575	-0.175
Mof_H 	H 	0.529	0.949	0.1484	0.113
Mof_C 	C 	0.5666	0.8366	0.2035	0.1
Mof_H 	H 	0.6038	0.8852	0.2244	-0.01
Mof_C 	C 	0.5028	0.6652	0.1893	0.104
Mof_H 	H 	0.4935	0.5935	0.2003	-0.008
Mof_C 	C 	0.4589	0.6966	0.1422	-0.184
Mof_H 	H 	0.4215	0.6465	0.1222	0.089
Mof_C 	C 	0.3023	0.4834	0.7958	0.409
Mof_C 	C 	0.3139	0.5907	0.8265	-0.169
Mof_H 	H 	0.2585	0.5989	0.8442	0.091
Mof_C 	C 	0.4012	0.5809	0.867	-0.046
Mof_H 	H 	0.4564	0.5667	0.8504	0.058
Mof_H 	H 	0.3929	0.5188	0.8891	0.043
Mof_C 	C 	0.4164	0.6861	0.8986	-0.092
Mof_H 	H 	0.4748	0.6793	0.9212	0.06
Mof_H 	H 	0.3658	0.6934	0.9193	0.056
Mof_C 	C 	0.4204	0.7902	0.8668	-0.087
Mof_H 	H 	0.4196	0.8538	0.8896	0.06
Mof_C 	C 	0.3318	0.797	0.8279	-0.113
Mof_H 	H 	0.277	0.8054	0.8455	0.062
Mof_H 	H 	0.3358	0.8614	0.8066	0.068
Mof_C 	C 	0.3213	0.6926	0.795	-0.026
Mof_H 	H 	0.3751	0.6859	0.7765	0.053
Mof_H 	H 	0.2654	0.6991	0.7705	0.033
Mof_C 	C 	0.5097	0.8014	0.8386	0.312
Mof_C 	C 	0.2101	0.1432	0.7271	0.379
Mof_C 	C 	0.1952	0.0414	0.6926	-0.145
Mof_H 	H 	0.254	0.0272	0.6785	0.082
Mof_C 	C 	0.1172	0.0656	0.6474	-0.068
Mof_H 	H 	0.1333	0.132	0.6299	0.052
Mof_H 	H 	0.0579	0.0786	0.6604	0.064
Mof_C 	C 	0.1066	0.9692	0.6105	-0.07
Mof_H 	H 	0.0551	0.9847	0.5842	0.056
Mof_H 	H 	0.1635	0.9632	0.5944	0.048
Mof_C 	C 	0.0883	0.8581	0.6352	-0.116
Mof_H 	H 	0.0979	0.7999	0.6108	0.065
Mof_C 	C 	0.1608	0.8394	0.6823	-0.085
Mof_H 	H 	0.2219	0.8255	0.6715	0.051
Mof_H 	H 	0.1432	0.7742	0.7001	0.057
Mof_C 	C 	0.1684	0.9369	0.7181	-0.052
Mof_H 	H 	0.2151	0.921	0.7468	0.043
Mof_H 	H 	0.1085	0.9479	0.7308	0.062
Mof_C 	C 	0.9896	0.8475	0.6475	0.309
Mof_N 	N 	0.0798	0.3646	0.74202	-0.237
Mof_N 	N 	0.9267	0.4312	0.56362	-0.074
Mof_N 	N 	0.8929	0.4963	0.52061	-0.07
Mof_N 	N 	0.7238	0.5823	0.34792	-0.229
Mof_N 	N 	0.2376	0.21	0.87183	-0.229
Mof_N 	N 	0.3869	0.9611	0.01308	-0.075
Mof_N 	N 	0.4366	0.9386	0.0605	-0.072
Mof_N 	N 	0.5574	0.7323	0.21934	-0.237
Mof_O 	O 	0.2585	0.4068	0.81421	-0.478
Mof_O 	O 	0.3409	0.477	0.75662	-0.45
Mof_O 	O 	0.5746	0.7324	0.8454	-0.351
Mof_O 	O 	0.5145	0.8813	0.81018	-0.4
Mof_O 	O 	0.2586	0.2211	0.71225	-0.473
Mof_O 	O 	0.1699	0.1462	0.76677	-0.436
Mof_O 	O 	0.9682	0.7547	0.6676	-0.399
Mof_O 	O 	0.93	0.9212	0.6419	-0.33
_end
