data_functionalizedCrystal
_audit_creation_method	'EQeq! by Chris Wilmer'
_symmetry_space_group_name_H-M	'P1'
_symmetry_Int_Tables_number	1
_symmetry_cell_setting	triclinic
loop_
_symmetry_equiv_pos_as_xyz
  x,y,z
_cell_length_a	31.251
_cell_length_b	31.251
_cell_length_c	31.251
_cell_angle_alpha	90
_cell_angle_beta	90
_cell_angle_gamma	90
loop_
_atom_site_label
_atom_site_type_symbol
_atom_site_fract_x
_atom_site_fract_y
_atom_site_fract_z
_atom_site_charge
Mof_N 	N 	0.11368	0.83467	0.20168	-0.403
Mof_N 	N 	0.07044	0.94612	0.27811	-0.367
Mof_N 	N 	0.25883	0.79792	0.16993	-0.403
Mof_N 	N 	0.33212	0.83134	0.05378	-0.386
Mof_C 	C 	0.07932	0.84434	0.2089	0.077
Mof_C 	C 	0.04906	0.92143	0.26181	0.095
Mof_C 	C 	0.29089	0.78371	0.1596	0.077
Mof_C 	C 	0.3418	0.8064	0.07866	0.083
Mof_C 	C 	0.03632	0.8558	0.21746	-0.046
Mof_C 	C 	0.02235	0.89099	0.24126	-0.097
Mof_C 	C 	0.33075	0.76581	0.14717	-0.06
Mof_C 	C 	0.35335	0.77552	0.11016	-0.063
Mof_N 	N 	0.88632	0.16533	0.20168	-0.403
Mof_N 	N 	0.92956	0.05388	0.27811	-0.374
Mof_N 	N 	0.74117	0.20208	0.16993	-0.404
Mof_N 	N 	0.66788	0.16866	0.05378	-0.385
Mof_C 	C 	0.92068	0.15566	0.2089	0.083
Mof_C 	C 	0.95094	0.07857	0.26181	0.082
Mof_C 	C 	0.70911	0.21629	0.1596	0.075
Mof_C 	C 	0.6582	0.1936	0.07866	0.081
Mof_C 	C 	0.96368	0.1442	0.21746	-0.036
Mof_C 	C 	0.97765	0.10901	0.24126	-0.025
Mof_C 	C 	0.66925	0.23419	0.14717	-0.061
Mof_C 	C 	0.64665	0.22448	0.11016	-0.064
Mof_N 	N 	0.88632	0.83467	0.79832	-0.404
Mof_N 	N 	0.92956	0.94612	0.72189	-0.36
Mof_N 	N 	0.74117	0.79792	0.83007	-0.406
Mof_N 	N 	0.66788	0.83134	0.94622	-0.372
Mof_C 	C 	0.92068	0.84434	0.7911	0.088
Mof_C 	C 	0.95094	0.92143	0.73819	0.093
Mof_C 	C 	0.70911	0.78371	0.8404	0.08
Mof_C 	C 	0.6582	0.8064	0.92134	0.093
Mof_C 	C 	0.96368	0.8558	0.78254	-0.035
Mof_C 	C 	0.97765	0.89099	0.75874	-0.021
Mof_C 	C 	0.66925	0.76581	0.85283	-0.061
Mof_C 	C 	0.64665	0.77552	0.88984	-0.06
Mof_N 	N 	0.11368	0.16533	0.79832	-0.405
Mof_N 	N 	0.07044	0.05388	0.72189	-0.383
Mof_N 	N 	0.25883	0.20208	0.83007	-0.404
Mof_N 	N 	0.33212	0.16866	0.94622	-0.371
Mof_C 	C 	0.07932	0.15566	0.7911	0.074
Mof_C 	C 	0.04906	0.07857	0.73819	0.085
Mof_C 	C 	0.29089	0.21629	0.8404	0.078
Mof_C 	C 	0.3418	0.1936	0.92134	0.091
Mof_C 	C 	0.03632	0.1442	0.78254	-0.047
Mof_C 	C 	0.02235	0.10901	0.75874	-0.101
Mof_C 	C 	0.33075	0.23419	0.85283	-0.061
Mof_C 	C 	0.35335	0.22448	0.88984	-0.06
Mof_N 	N 	0.20168	0.11368	0.83467	-0.404
Mof_N 	N 	0.27811	0.07044	0.94612	-0.368
Mof_N 	N 	0.16993	0.25883	0.79792	-0.404
Mof_N 	N 	0.05378	0.33212	0.83134	-0.387
Mof_C 	C 	0.2089	0.07932	0.84434	0.076
Mof_C 	C 	0.26181	0.04906	0.92143	0.094
Mof_C 	C 	0.1596	0.29089	0.78371	0.076
Mof_C 	C 	0.07866	0.3418	0.8064	0.082
Mof_C 	C 	0.21746	0.03632	0.8558	-0.047
Mof_C 	C 	0.24126	0.02235	0.89099	-0.098
Mof_C 	C 	0.14717	0.33075	0.76581	-0.061
Mof_C 	C 	0.11016	0.35335	0.77552	-0.064
Mof_N 	N 	0.20168	0.88632	0.16533	-0.404
Mof_N 	N 	0.27811	0.92956	0.05388	-0.375
Mof_N 	N 	0.16993	0.74117	0.20208	-0.405
Mof_N 	N 	0.05378	0.66788	0.16866	-0.386
Mof_C 	C 	0.2089	0.92068	0.15566	0.082
Mof_C 	C 	0.26181	0.95094	0.07857	0.081
Mof_C 	C 	0.1596	0.70911	0.21629	0.074
Mof_C 	C 	0.07866	0.6582	0.1936	0.08
Mof_C 	C 	0.21746	0.96368	0.1442	-0.037
Mof_C 	C 	0.24126	0.97765	0.10901	-0.026
Mof_C 	C 	0.14717	0.66925	0.23419	-0.062
Mof_C 	C 	0.11016	0.64665	0.22448	-0.064
Mof_N 	N 	0.79832	0.88632	0.83467	-0.404
Mof_N 	N 	0.72189	0.92956	0.94612	-0.36
Mof_N 	N 	0.83007	0.74117	0.79792	-0.406
Mof_N 	N 	0.94622	0.66788	0.83134	-0.372
Mof_C 	C 	0.7911	0.92068	0.84434	0.088
Mof_C 	C 	0.73819	0.95094	0.92143	0.093
Mof_C 	C 	0.8404	0.70911	0.78371	0.08
Mof_C 	C 	0.92134	0.6582	0.8064	0.093
Mof_C 	C 	0.78254	0.96368	0.8558	-0.035
Mof_C 	C 	0.75874	0.97765	0.89099	-0.021
Mof_C 	C 	0.85283	0.66925	0.76581	-0.061
Mof_C 	C 	0.88984	0.64665	0.77552	-0.06
Mof_N 	N 	0.79832	0.11368	0.16533	-0.405
Mof_N 	N 	0.72189	0.07044	0.05388	-0.383
Mof_N 	N 	0.83007	0.25883	0.20208	-0.404
Mof_N 	N 	0.94622	0.33212	0.16866	-0.371
Mof_C 	C 	0.7911	0.07932	0.15566	0.074
Mof_C 	C 	0.73819	0.04906	0.07857	0.085
Mof_C 	C 	0.8404	0.29089	0.21629	0.078
Mof_C 	C 	0.92134	0.3418	0.1936	0.091
Mof_C 	C 	0.78254	0.03632	0.1442	-0.047
Mof_C 	C 	0.75874	0.02235	0.10901	-0.101
Mof_C 	C 	0.85283	0.33075	0.23419	-0.061
Mof_C 	C 	0.88984	0.35335	0.22448	-0.06
Mof_N 	N 	0.83467	0.20168	0.11368	-0.404
Mof_N 	N 	0.94612	0.27811	0.07044	-0.368
Mof_N 	N 	0.79792	0.16993	0.25883	-0.404
Mof_N 	N 	0.83134	0.05378	0.33212	-0.387
Mof_C 	C 	0.84434	0.2089	0.07932	0.076
Mof_C 	C 	0.92143	0.26181	0.04906	0.094
Mof_C 	C 	0.78371	0.1596	0.29089	0.076
Mof_C 	C 	0.8064	0.07866	0.3418	0.082
Mof_C 	C 	0.8558	0.21746	0.03632	-0.047
Mof_C 	C 	0.89099	0.24126	0.02235	-0.098
Mof_C 	C 	0.76581	0.14717	0.33075	-0.061
Mof_C 	C 	0.77552	0.11016	0.35335	-0.064
Mof_N 	N 	0.16533	0.20168	0.88632	-0.404
Mof_N 	N 	0.05388	0.27811	0.92956	-0.375
Mof_N 	N 	0.20208	0.16993	0.74117	-0.405
Mof_N 	N 	0.16866	0.05378	0.66788	-0.386
Mof_C 	C 	0.15566	0.2089	0.92068	0.082
Mof_C 	C 	0.07857	0.26181	0.95094	0.081
Mof_C 	C 	0.21629	0.1596	0.70911	0.074
Mof_C 	C 	0.1936	0.07866	0.6582	0.08
Mof_C 	C 	0.1442	0.21746	0.96368	-0.037
Mof_C 	C 	0.10901	0.24126	0.97765	-0.026
Mof_C 	C 	0.23419	0.14717	0.66925	-0.062
Mof_C 	C 	0.22448	0.11016	0.64665	-0.064
Mof_N 	N 	0.83467	0.79832	0.88632	-0.404
Mof_N 	N 	0.94612	0.72189	0.92956	-0.36
Mof_N 	N 	0.79792	0.83007	0.74117	-0.406
Mof_N 	N 	0.83134	0.94622	0.66788	-0.372
Mof_C 	C 	0.84434	0.7911	0.92068	0.088
Mof_C 	C 	0.92143	0.73819	0.95094	0.093
Mof_C 	C 	0.78371	0.8404	0.70911	0.08
Mof_C 	C 	0.8064	0.92134	0.6582	0.093
Mof_C 	C 	0.8558	0.78254	0.96368	-0.035
Mof_C 	C 	0.89099	0.75874	0.97765	-0.021
Mof_C 	C 	0.76581	0.85283	0.66925	-0.061
Mof_C 	C 	0.77552	0.88984	0.64665	-0.06
Mof_N 	N 	0.16533	0.79832	0.11368	-0.405
Mof_N 	N 	0.05388	0.72189	0.07044	-0.383
Mof_N 	N 	0.20208	0.83007	0.25883	-0.404
Mof_N 	N 	0.16866	0.94622	0.33212	-0.371
Mof_C 	C 	0.15566	0.7911	0.07932	0.074
Mof_C 	C 	0.07857	0.73819	0.04906	0.085
Mof_C 	C 	0.21629	0.8404	0.29089	0.078
Mof_C 	C 	0.1936	0.92134	0.3418	0.091
Mof_C 	C 	0.1442	0.78254	0.03632	-0.047
Mof_C 	C 	0.10901	0.75874	0.02235	-0.101
Mof_C 	C 	0.23419	0.85283	0.33075	-0.061
Mof_C 	C 	0.22448	0.88984	0.35335	-0.06
Mof_N 	N 	0.33467	0.61368	0.29832	-0.407
Mof_N 	N 	0.44612	0.57044	0.22189	-0.384
Mof_N 	N 	0.29792	0.75883	0.33007	-0.404
Mof_N 	N 	0.33134	0.83212	0.44622	-0.391
Mof_C 	C 	0.34434	0.57932	0.2911	0.083
Mof_C 	C 	0.42143	0.54906	0.23819	0.082
Mof_C 	C 	0.28371	0.79089	0.3404	0.076
Mof_C 	C 	0.3064	0.8418	0.42134	0.087
Mof_C 	C 	0.3558	0.53632	0.28254	-0.067
Mof_C 	C 	0.39099	0.52235	0.25874	-0.059
Mof_C 	C 	0.26581	0.83075	0.35283	-0.06
Mof_C 	C 	0.27552	0.85335	0.38984	-0.064
Mof_N 	N 	0.66533	0.38632	0.29832	-0.407
Mof_N 	N 	0.55388	0.42956	0.22189	-0.384
Mof_N 	N 	0.70208	0.24117	0.33007	-0.405
Mof_N 	N 	0.66866	0.16788	0.44622	-0.391
Mof_C 	C 	0.65566	0.42068	0.2911	0.083
Mof_C 	C 	0.57857	0.45094	0.23819	0.082
Mof_C 	C 	0.71629	0.20911	0.3404	0.075
Mof_C 	C 	0.6936	0.1582	0.42134	0.084
Mof_C 	C 	0.6442	0.46368	0.28254	-0.067
Mof_C 	C 	0.60901	0.47765	0.25874	-0.059
Mof_C 	C 	0.73419	0.16925	0.35283	-0.061
Mof_C 	C 	0.72448	0.14665	0.38984	-0.064
Mof_N 	N 	0.33467	0.38632	0.70168	-0.407
Mof_N 	N 	0.44612	0.42956	0.77811	-0.384
Mof_N 	N 	0.29792	0.24117	0.66993	-0.405
Mof_N 	N 	0.33134	0.16788	0.55378	-0.391
Mof_C 	C 	0.34434	0.42068	0.7089	0.084
Mof_C 	C 	0.42143	0.45094	0.76181	0.084
Mof_C 	C 	0.28371	0.20911	0.6596	0.074
Mof_C 	C 	0.3064	0.1582	0.57866	0.084
Mof_C 	C 	0.3558	0.46368	0.71746	-0.067
Mof_C 	C 	0.39099	0.47765	0.74126	-0.059
Mof_C 	C 	0.26581	0.16925	0.64717	-0.062
Mof_C 	C 	0.27552	0.14665	0.61016	-0.065
Mof_N 	N 	0.66533	0.61368	0.70168	-0.407
Mof_N 	N 	0.55388	0.57044	0.77811	-0.384
Mof_N 	N 	0.70208	0.75883	0.66993	-0.405
Mof_N 	N 	0.66866	0.83212	0.55378	-0.391
Mof_C 	C 	0.65566	0.57932	0.7089	0.084
Mof_C 	C 	0.57857	0.54906	0.76181	0.084
Mof_C 	C 	0.71629	0.79089	0.6596	0.076
Mof_C 	C 	0.6936	0.8418	0.57866	0.088
Mof_C 	C 	0.6442	0.53632	0.71746	-0.067
Mof_C 	C 	0.60901	0.52235	0.74126	-0.059
Mof_C 	C 	0.73419	0.83075	0.64717	-0.06
Mof_C 	C 	0.72448	0.85335	0.61016	-0.063
Mof_N 	N 	0.61368	0.70168	0.66533	-0.407
Mof_N 	N 	0.57044	0.77811	0.55388	-0.384
Mof_N 	N 	0.75883	0.66993	0.70208	-0.405
Mof_N 	N 	0.83212	0.55378	0.66866	-0.391
Mof_C 	C 	0.57932	0.7089	0.65566	0.084
Mof_C 	C 	0.54906	0.76181	0.57857	0.084
Mof_C 	C 	0.79089	0.6596	0.71629	0.076
Mof_C 	C 	0.8418	0.57866	0.6936	0.088
Mof_C 	C 	0.53632	0.71746	0.6442	-0.067
Mof_C 	C 	0.52235	0.74126	0.60901	-0.059
Mof_C 	C 	0.83075	0.64717	0.73419	-0.06
Mof_C 	C 	0.85335	0.61016	0.72448	-0.063
Mof_N 	N 	0.38632	0.70168	0.33467	-0.407
Mof_N 	N 	0.42956	0.77811	0.44612	-0.384
Mof_N 	N 	0.24117	0.66993	0.29792	-0.405
Mof_N 	N 	0.16788	0.55378	0.33134	-0.391
Mof_C 	C 	0.42068	0.7089	0.34434	0.084
Mof_C 	C 	0.45094	0.76181	0.42143	0.084
Mof_C 	C 	0.20911	0.6596	0.28371	0.074
Mof_C 	C 	0.1582	0.57866	0.3064	0.084
Mof_C 	C 	0.46368	0.71746	0.3558	-0.067
Mof_C 	C 	0.47765	0.74126	0.39099	-0.059
Mof_C 	C 	0.16925	0.64717	0.26581	-0.062
Mof_C 	C 	0.14665	0.61016	0.27552	-0.065
Mof_N 	N 	0.38632	0.29832	0.66533	-0.407
Mof_N 	N 	0.42956	0.22189	0.55388	-0.384
Mof_N 	N 	0.24117	0.33007	0.70208	-0.405
Mof_N 	N 	0.16788	0.44622	0.66866	-0.391
Mof_C 	C 	0.42068	0.2911	0.65566	0.083
Mof_C 	C 	0.45094	0.23819	0.57857	0.082
Mof_C 	C 	0.20911	0.3404	0.71629	0.075
Mof_C 	C 	0.1582	0.42134	0.6936	0.084
Mof_C 	C 	0.46368	0.28254	0.6442	-0.067
Mof_C 	C 	0.47765	0.25874	0.60901	-0.059
Mof_C 	C 	0.16925	0.35283	0.73419	-0.061
Mof_C 	C 	0.14665	0.38984	0.72448	-0.064
Mof_N 	N 	0.61368	0.29832	0.33467	-0.407
Mof_N 	N 	0.57044	0.22189	0.44612	-0.384
Mof_N 	N 	0.75883	0.33007	0.29792	-0.404
Mof_N 	N 	0.83212	0.44622	0.33134	-0.391
Mof_C 	C 	0.57932	0.2911	0.34434	0.083
Mof_C 	C 	0.54906	0.23819	0.42143	0.082
Mof_C 	C 	0.79089	0.3404	0.28371	0.076
Mof_C 	C 	0.8418	0.42134	0.3064	0.087
Mof_C 	C 	0.53632	0.28254	0.3558	-0.067
Mof_C 	C 	0.52235	0.25874	0.39099	-0.059
Mof_C 	C 	0.83075	0.35283	0.26581	-0.06
Mof_C 	C 	0.85335	0.38984	0.27552	-0.064
Mof_N 	N 	0.70168	0.33467	0.38632	-0.407
Mof_N 	N 	0.77811	0.44612	0.42956	-0.384
Mof_N 	N 	0.66993	0.29792	0.24117	-0.405
Mof_N 	N 	0.55378	0.33134	0.16788	-0.391
Mof_C 	C 	0.7089	0.34434	0.42068	0.084
Mof_C 	C 	0.76181	0.42143	0.45094	0.084
Mof_C 	C 	0.6596	0.28371	0.20911	0.074
Mof_C 	C 	0.57866	0.3064	0.1582	0.084
Mof_C 	C 	0.71746	0.3558	0.46368	-0.067
Mof_C 	C 	0.74126	0.39099	0.47765	-0.059
Mof_C 	C 	0.64717	0.26581	0.16925	-0.062
Mof_C 	C 	0.61016	0.27552	0.14665	-0.065
Mof_N 	N 	0.70168	0.66533	0.61368	-0.407
Mof_N 	N 	0.77811	0.55388	0.57044	-0.384
Mof_N 	N 	0.66993	0.70208	0.75883	-0.405
Mof_N 	N 	0.55378	0.66866	0.83212	-0.391
Mof_C 	C 	0.7089	0.65566	0.57932	0.084
Mof_C 	C 	0.76181	0.57857	0.54906	0.084
Mof_C 	C 	0.6596	0.71629	0.79089	0.076
Mof_C 	C 	0.57866	0.6936	0.8418	0.088
Mof_C 	C 	0.71746	0.6442	0.53632	-0.067
Mof_C 	C 	0.74126	0.60901	0.52235	-0.059
Mof_C 	C 	0.64717	0.73419	0.83075	-0.06
Mof_C 	C 	0.61016	0.72448	0.85335	-0.063
Mof_N 	N 	0.29832	0.33467	0.61368	-0.407
Mof_N 	N 	0.22189	0.44612	0.57044	-0.384
Mof_N 	N 	0.33007	0.29792	0.75883	-0.404
Mof_N 	N 	0.44622	0.33134	0.83212	-0.391
Mof_C 	C 	0.2911	0.34434	0.57932	0.083
Mof_C 	C 	0.23819	0.42143	0.54906	0.082
Mof_C 	C 	0.3404	0.28371	0.79089	0.076
Mof_C 	C 	0.42134	0.3064	0.8418	0.087
Mof_C 	C 	0.28254	0.3558	0.53632	-0.067
Mof_C 	C 	0.25874	0.39099	0.52235	-0.059
Mof_C 	C 	0.35283	0.26581	0.83075	-0.06
Mof_C 	C 	0.38984	0.27552	0.85335	-0.064
Mof_N 	N 	0.29832	0.66533	0.38632	-0.407
Mof_N 	N 	0.22189	0.55388	0.42956	-0.384
Mof_N 	N 	0.33007	0.70208	0.24117	-0.405
Mof_N 	N 	0.44622	0.66866	0.16788	-0.391
Mof_C 	C 	0.2911	0.65566	0.42068	0.083
Mof_C 	C 	0.23819	0.57857	0.45094	0.082
Mof_C 	C 	0.3404	0.71629	0.20911	0.075
Mof_C 	C 	0.42134	0.6936	0.1582	0.084
Mof_C 	C 	0.28254	0.6442	0.46368	-0.067
Mof_C 	C 	0.25874	0.60901	0.47765	-0.059
Mof_C 	C 	0.35283	0.73419	0.16925	-0.061
Mof_C 	C 	0.38984	0.72448	0.14665	-0.064
Mof_N 	N 	0.88632	0.16533	0.79832	-0.404
Mof_N 	N 	0.92956	0.05388	0.72189	-0.375
Mof_N 	N 	0.74117	0.20208	0.83007	-0.405
Mof_N 	N 	0.66788	0.16866	0.94622	-0.371
Mof_C 	C 	0.92068	0.15566	0.7911	0.084
Mof_C 	C 	0.95094	0.07857	0.73819	0.082
Mof_C 	C 	0.70911	0.21629	0.8404	0.078
Mof_C 	C 	0.6582	0.1936	0.92134	0.091
Mof_C 	C 	0.96368	0.1442	0.78254	-0.036
Mof_C 	C 	0.97765	0.10901	0.75874	-0.025
Mof_C 	C 	0.66925	0.23419	0.85283	-0.061
Mof_C 	C 	0.64665	0.22448	0.88984	-0.06
Mof_N 	N 	0.11368	0.83467	0.79832	-0.405
Mof_N 	N 	0.07044	0.94612	0.72189	-0.368
Mof_N 	N 	0.25883	0.79792	0.83007	-0.404
Mof_N 	N 	0.33212	0.83134	0.94622	-0.372
Mof_C 	C 	0.07932	0.84434	0.7911	0.078
Mof_C 	C 	0.04906	0.92143	0.73819	0.095
Mof_C 	C 	0.29089	0.78371	0.8404	0.08
Mof_C 	C 	0.3418	0.8064	0.92134	0.093
Mof_C 	C 	0.03632	0.8558	0.78254	-0.046
Mof_C 	C 	0.02235	0.89099	0.75874	-0.098
Mof_C 	C 	0.33075	0.76581	0.85283	-0.061
Mof_C 	C 	0.35335	0.77552	0.88984	-0.06
Mof_N 	N 	0.11368	0.16533	0.20168	-0.404
Mof_N 	N 	0.07044	0.05388	0.27811	-0.383
Mof_N 	N 	0.25883	0.20208	0.16993	-0.404
Mof_N 	N 	0.33212	0.16866	0.05378	-0.386
Mof_C 	C 	0.07932	0.15566	0.2089	0.072
Mof_C 	C 	0.04906	0.07857	0.26181	0.084
Mof_C 	C 	0.29089	0.21629	0.1596	0.074
Mof_C 	C 	0.3418	0.1936	0.07866	0.08
Mof_C 	C 	0.03632	0.1442	0.21746	-0.048
Mof_C 	C 	0.02235	0.10901	0.24126	-0.102
Mof_C 	C 	0.33075	0.23419	0.14717	-0.062
Mof_C 	C 	0.35335	0.22448	0.11016	-0.064
Mof_N 	N 	0.88632	0.83467	0.20168	-0.403
Mof_N 	N 	0.92956	0.94612	0.27811	-0.36
Mof_N 	N 	0.74117	0.79792	0.16993	-0.405
Mof_N 	N 	0.66788	0.83134	0.05378	-0.387
Mof_C 	C 	0.92068	0.84434	0.2089	0.086
Mof_C 	C 	0.95094	0.92143	0.26181	0.092
Mof_C 	C 	0.70911	0.78371	0.1596	0.076
Mof_C 	C 	0.6582	0.8064	0.07866	0.082
Mof_C 	C 	0.96368	0.8558	0.21746	-0.036
Mof_C 	C 	0.97765	0.89099	0.24126	-0.022
Mof_C 	C 	0.66925	0.76581	0.14717	-0.062
Mof_C 	C 	0.64665	0.77552	0.11016	-0.064
Mof_N 	N 	0.79832	0.88632	0.16533	-0.404
Mof_N 	N 	0.72189	0.92956	0.05388	-0.375
Mof_N 	N 	0.83007	0.74117	0.20208	-0.405
Mof_N 	N 	0.94622	0.66788	0.16866	-0.371
Mof_C 	C 	0.7911	0.92068	0.15566	0.084
Mof_C 	C 	0.73819	0.95094	0.07857	0.082
Mof_C 	C 	0.8404	0.70911	0.21629	0.078
Mof_C 	C 	0.92134	0.6582	0.1936	0.091
Mof_C 	C 	0.78254	0.96368	0.1442	-0.036
Mof_C 	C 	0.75874	0.97765	0.10901	-0.025
Mof_C 	C 	0.85283	0.66925	0.23419	-0.061
Mof_C 	C 	0.88984	0.64665	0.22448	-0.06
Mof_N 	N 	0.79832	0.11368	0.83467	-0.405
Mof_N 	N 	0.72189	0.07044	0.94612	-0.368
Mof_N 	N 	0.83007	0.25883	0.79792	-0.404
Mof_N 	N 	0.94622	0.33212	0.83134	-0.372
Mof_C 	C 	0.7911	0.07932	0.84434	0.078
Mof_C 	C 	0.73819	0.04906	0.92143	0.095
Mof_C 	C 	0.8404	0.29089	0.78371	0.08
Mof_C 	C 	0.92134	0.3418	0.8064	0.093
Mof_C 	C 	0.78254	0.03632	0.8558	-0.046
Mof_C 	C 	0.75874	0.02235	0.89099	-0.098
Mof_C 	C 	0.85283	0.33075	0.76581	-0.061
Mof_C 	C 	0.88984	0.35335	0.77552	-0.06
Mof_N 	N 	0.20168	0.11368	0.16533	-0.404
Mof_N 	N 	0.27811	0.07044	0.05388	-0.383
Mof_N 	N 	0.16993	0.25883	0.20208	-0.404
Mof_N 	N 	0.05378	0.33212	0.16866	-0.386
Mof_C 	C 	0.2089	0.07932	0.15566	0.072
Mof_C 	C 	0.26181	0.04906	0.07857	0.084
Mof_C 	C 	0.1596	0.29089	0.21629	0.074
Mof_C 	C 	0.07866	0.3418	0.1936	0.08
Mof_C 	C 	0.21746	0.03632	0.1442	-0.048
Mof_C 	C 	0.24126	0.02235	0.10901	-0.102
Mof_C 	C 	0.14717	0.33075	0.23419	-0.062
Mof_C 	C 	0.11016	0.35335	0.22448	-0.064
Mof_N 	N 	0.20168	0.88632	0.83467	-0.403
Mof_N 	N 	0.27811	0.92956	0.94612	-0.36
Mof_N 	N 	0.16993	0.74117	0.79792	-0.405
Mof_N 	N 	0.05378	0.66788	0.83134	-0.387
Mof_C 	C 	0.2089	0.92068	0.84434	0.086
Mof_C 	C 	0.26181	0.95094	0.92143	0.092
Mof_C 	C 	0.1596	0.70911	0.78371	0.076
Mof_C 	C 	0.07866	0.6582	0.8064	0.082
Mof_C 	C 	0.21746	0.96368	0.8558	-0.036
Mof_C 	C 	0.24126	0.97765	0.89099	-0.022
Mof_C 	C 	0.14717	0.66925	0.76581	-0.062
Mof_C 	C 	0.11016	0.64665	0.77552	-0.064
Mof_N 	N 	0.16533	0.79832	0.88632	-0.404
Mof_N 	N 	0.05388	0.72189	0.92956	-0.375
Mof_N 	N 	0.20208	0.83007	0.74117	-0.405
Mof_N 	N 	0.16866	0.94622	0.66788	-0.371
Mof_C 	C 	0.15566	0.7911	0.92068	0.084
Mof_C 	C 	0.07857	0.73819	0.95094	0.082
Mof_C 	C 	0.21629	0.8404	0.70911	0.078
Mof_C 	C 	0.1936	0.92134	0.6582	0.091
Mof_C 	C 	0.1442	0.78254	0.96368	-0.036
Mof_C 	C 	0.10901	0.75874	0.97765	-0.025
Mof_C 	C 	0.23419	0.85283	0.66925	-0.061
Mof_C 	C 	0.22448	0.88984	0.64665	-0.06
Mof_N 	N 	0.83467	0.79832	0.11368	-0.405
Mof_N 	N 	0.94612	0.72189	0.07044	-0.368
Mof_N 	N 	0.79792	0.83007	0.25883	-0.404
Mof_N 	N 	0.83134	0.94622	0.33212	-0.372
Mof_C 	C 	0.84434	0.7911	0.07932	0.078
Mof_C 	C 	0.92143	0.73819	0.04906	0.095
Mof_C 	C 	0.78371	0.8404	0.29089	0.08
Mof_C 	C 	0.8064	0.92134	0.3418	0.093
Mof_C 	C 	0.8558	0.78254	0.03632	-0.046
Mof_C 	C 	0.89099	0.75874	0.02235	-0.098
Mof_C 	C 	0.76581	0.85283	0.33075	-0.061
Mof_C 	C 	0.77552	0.88984	0.35335	-0.06
Mof_N 	N 	0.16533	0.20168	0.11368	-0.404
Mof_N 	N 	0.05388	0.27811	0.07044	-0.383
Mof_N 	N 	0.20208	0.16993	0.25883	-0.404
Mof_N 	N 	0.16866	0.05378	0.33212	-0.386
Mof_C 	C 	0.15566	0.2089	0.07932	0.072
Mof_C 	C 	0.07857	0.26181	0.04906	0.084
Mof_C 	C 	0.21629	0.1596	0.29089	0.074
Mof_C 	C 	0.1936	0.07866	0.3418	0.08
Mof_C 	C 	0.1442	0.21746	0.03632	-0.048
Mof_C 	C 	0.10901	0.24126	0.02235	-0.102
Mof_C 	C 	0.23419	0.14717	0.33075	-0.062
Mof_C 	C 	0.22448	0.11016	0.35335	-0.064
Mof_N 	N 	0.83467	0.20168	0.88632	-0.403
Mof_N 	N 	0.94612	0.27811	0.92956	-0.36
Mof_N 	N 	0.79792	0.16993	0.74117	-0.405
Mof_N 	N 	0.83134	0.05378	0.66788	-0.387
Mof_C 	C 	0.84434	0.2089	0.92068	0.086
Mof_C 	C 	0.92143	0.26181	0.95094	0.092
Mof_C 	C 	0.78371	0.1596	0.70911	0.076
Mof_C 	C 	0.8064	0.07866	0.6582	0.082
Mof_C 	C 	0.8558	0.21746	0.96368	-0.036
Mof_C 	C 	0.89099	0.24126	0.97765	-0.022
Mof_C 	C 	0.76581	0.14717	0.66925	-0.062
Mof_C 	C 	0.77552	0.11016	0.64665	-0.064
Mof_N 	N 	0.66533	0.38632	0.70168	-0.407
Mof_N 	N 	0.55388	0.42956	0.77811	-0.384
Mof_N 	N 	0.70208	0.24117	0.66993	-0.405
Mof_N 	N 	0.66866	0.16788	0.55378	-0.391
Mof_C 	C 	0.65566	0.42068	0.7089	0.084
Mof_C 	C 	0.57857	0.45094	0.76181	0.084
Mof_C 	C 	0.71629	0.20911	0.6596	0.075
Mof_C 	C 	0.6936	0.1582	0.57866	0.084
Mof_C 	C 	0.6442	0.46368	0.71746	-0.067
Mof_C 	C 	0.60901	0.47765	0.74126	-0.059
Mof_C 	C 	0.73419	0.16925	0.64717	-0.061
Mof_C 	C 	0.72448	0.14665	0.61016	-0.064
Mof_N 	N 	0.33467	0.61368	0.70168	-0.407
Mof_N 	N 	0.44612	0.57044	0.77811	-0.384
Mof_N 	N 	0.29792	0.75883	0.66993	-0.405
Mof_N 	N 	0.33134	0.83212	0.55378	-0.391
Mof_C 	C 	0.34434	0.57932	0.7089	0.084
Mof_C 	C 	0.42143	0.54906	0.76181	0.084
Mof_C 	C 	0.28371	0.79089	0.6596	0.076
Mof_C 	C 	0.3064	0.8418	0.57866	0.087
Mof_C 	C 	0.3558	0.53632	0.71746	-0.067
Mof_C 	C 	0.39099	0.52235	0.74126	-0.059
Mof_C 	C 	0.26581	0.83075	0.64717	-0.06
Mof_C 	C 	0.27552	0.85335	0.61016	-0.064
Mof_N 	N 	0.66533	0.61368	0.29832	-0.407
Mof_N 	N 	0.55388	0.57044	0.22189	-0.384
Mof_N 	N 	0.70208	0.75883	0.33007	-0.404
Mof_N 	N 	0.66866	0.83212	0.44622	-0.391
Mof_C 	C 	0.65566	0.57932	0.2911	0.083
Mof_C 	C 	0.57857	0.54906	0.23819	0.082
Mof_C 	C 	0.71629	0.79089	0.3404	0.076
Mof_C 	C 	0.6936	0.8418	0.42134	0.087
Mof_C 	C 	0.6442	0.53632	0.28254	-0.067
Mof_C 	C 	0.60901	0.52235	0.25874	-0.059
Mof_C 	C 	0.73419	0.83075	0.35283	-0.06
Mof_C 	C 	0.72448	0.85335	0.38984	-0.063
Mof_N 	N 	0.33467	0.38632	0.29832	-0.407
Mof_N 	N 	0.44612	0.42956	0.22189	-0.384
Mof_N 	N 	0.29792	0.24117	0.33007	-0.405
Mof_N 	N 	0.33134	0.16788	0.44622	-0.391
Mof_C 	C 	0.34434	0.42068	0.2911	0.083
Mof_C 	C 	0.42143	0.45094	0.23819	0.082
Mof_C 	C 	0.28371	0.20911	0.3404	0.074
Mof_C 	C 	0.3064	0.1582	0.42134	0.084
Mof_C 	C 	0.3558	0.46368	0.28254	-0.067
Mof_C 	C 	0.39099	0.47765	0.25874	-0.059
Mof_C 	C 	0.26581	0.16925	0.35283	-0.062
Mof_C 	C 	0.27552	0.14665	0.38984	-0.065
Mof_N 	N 	0.38632	0.29832	0.33467	-0.407
Mof_N 	N 	0.42956	0.22189	0.44612	-0.384
Mof_N 	N 	0.24117	0.33007	0.29792	-0.405
Mof_N 	N 	0.16788	0.44622	0.33134	-0.391
Mof_C 	C 	0.42068	0.2911	0.34434	0.083
Mof_C 	C 	0.45094	0.23819	0.42143	0.082
Mof_C 	C 	0.20911	0.3404	0.28371	0.074
Mof_C 	C 	0.1582	0.42134	0.3064	0.084
Mof_C 	C 	0.46368	0.28254	0.3558	-0.067
Mof_C 	C 	0.47765	0.25874	0.39099	-0.059
Mof_C 	C 	0.16925	0.35283	0.26581	-0.062
Mof_C 	C 	0.14665	0.38984	0.27552	-0.065
Mof_N 	N 	0.61368	0.29832	0.66533	-0.407
Mof_N 	N 	0.57044	0.22189	0.55388	-0.384
Mof_N 	N 	0.75883	0.33007	0.70208	-0.404
Mof_N 	N 	0.83212	0.44622	0.66866	-0.391
Mof_C 	C 	0.57932	0.2911	0.65566	0.083
Mof_C 	C 	0.54906	0.23819	0.57857	0.082
Mof_C 	C 	0.79089	0.3404	0.71629	0.076
Mof_C 	C 	0.8418	0.42134	0.6936	0.087
Mof_C 	C 	0.53632	0.28254	0.6442	-0.067
Mof_C 	C 	0.52235	0.25874	0.60901	-0.059
Mof_C 	C 	0.83075	0.35283	0.73419	-0.06
Mof_C 	C 	0.85335	0.38984	0.72448	-0.063
Mof_N 	N 	0.61368	0.70168	0.33467	-0.407
Mof_N 	N 	0.57044	0.77811	0.44612	-0.384
Mof_N 	N 	0.75883	0.66993	0.29792	-0.405
Mof_N 	N 	0.83212	0.55378	0.33134	-0.391
Mof_C 	C 	0.57932	0.7089	0.34434	0.084
Mof_C 	C 	0.54906	0.76181	0.42143	0.084
Mof_C 	C 	0.79089	0.6596	0.28371	0.076
Mof_C 	C 	0.8418	0.57866	0.3064	0.087
Mof_C 	C 	0.53632	0.71746	0.3558	-0.067
Mof_C 	C 	0.52235	0.74126	0.39099	-0.059
Mof_C 	C 	0.83075	0.64717	0.26581	-0.06
Mof_C 	C 	0.85335	0.61016	0.27552	-0.064
Mof_N 	N 	0.38632	0.70168	0.66533	-0.407
Mof_N 	N 	0.42956	0.77811	0.55388	-0.384
Mof_N 	N 	0.24117	0.66993	0.70208	-0.405
Mof_N 	N 	0.16788	0.55378	0.66866	-0.391
Mof_C 	C 	0.42068	0.7089	0.65566	0.084
Mof_C 	C 	0.45094	0.76181	0.57857	0.084
Mof_C 	C 	0.20911	0.6596	0.71629	0.075
Mof_C 	C 	0.1582	0.57866	0.6936	0.084
Mof_C 	C 	0.46368	0.71746	0.6442	-0.067
Mof_C 	C 	0.47765	0.74126	0.60901	-0.059
Mof_C 	C 	0.16925	0.64717	0.73419	-0.061
Mof_C 	C 	0.14665	0.61016	0.72448	-0.064
Mof_N 	N 	0.29832	0.66533	0.61368	-0.407
Mof_N 	N 	0.22189	0.55388	0.57044	-0.384
Mof_N 	N 	0.33007	0.70208	0.75883	-0.404
Mof_N 	N 	0.44622	0.66866	0.83212	-0.391
Mof_C 	C 	0.2911	0.65566	0.57932	0.083
Mof_C 	C 	0.23819	0.57857	0.54906	0.082
Mof_C 	C 	0.3404	0.71629	0.79089	0.076
Mof_C 	C 	0.42134	0.6936	0.8418	0.087
Mof_C 	C 	0.28254	0.6442	0.53632	-0.067
Mof_C 	C 	0.25874	0.60901	0.52235	-0.059
Mof_C 	C 	0.35283	0.73419	0.83075	-0.06
Mof_C 	C 	0.38984	0.72448	0.85335	-0.063
Mof_N 	N 	0.29832	0.33467	0.38632	-0.407
Mof_N 	N 	0.22189	0.44612	0.42956	-0.384
Mof_N 	N 	0.33007	0.29792	0.24117	-0.405
Mof_N 	N 	0.44622	0.33134	0.16788	-0.391
Mof_C 	C 	0.2911	0.34434	0.42068	0.083
Mof_C 	C 	0.23819	0.42143	0.45094	0.082
Mof_C 	C 	0.3404	0.28371	0.20911	0.074
Mof_C 	C 	0.42134	0.3064	0.1582	0.084
Mof_C 	C 	0.28254	0.3558	0.46368	-0.067
Mof_C 	C 	0.25874	0.39099	0.47765	-0.059
Mof_C 	C 	0.35283	0.26581	0.16925	-0.062
Mof_C 	C 	0.38984	0.27552	0.14665	-0.065
Mof_N 	N 	0.70168	0.66533	0.38632	-0.407
Mof_N 	N 	0.77811	0.55388	0.42956	-0.384
Mof_N 	N 	0.66993	0.70208	0.24117	-0.405
Mof_N 	N 	0.55378	0.66866	0.16788	-0.391
Mof_C 	C 	0.7089	0.65566	0.42068	0.084
Mof_C 	C 	0.76181	0.57857	0.45094	0.084
Mof_C 	C 	0.6596	0.71629	0.20911	0.075
Mof_C 	C 	0.57866	0.6936	0.1582	0.084
Mof_C 	C 	0.71746	0.6442	0.46368	-0.067
Mof_C 	C 	0.74126	0.60901	0.47765	-0.059
Mof_C 	C 	0.64717	0.73419	0.16925	-0.061
Mof_C 	C 	0.61016	0.72448	0.14665	-0.064
Mof_N 	N 	0.70168	0.33467	0.61368	-0.407
Mof_N 	N 	0.77811	0.44612	0.57044	-0.384
Mof_N 	N 	0.66993	0.29792	0.75883	-0.405
Mof_N 	N 	0.55378	0.33134	0.83212	-0.391
Mof_C 	C 	0.7089	0.34434	0.57932	0.084
Mof_C 	C 	0.76181	0.42143	0.54906	0.084
Mof_C 	C 	0.6596	0.28371	0.79089	0.076
Mof_C 	C 	0.57866	0.3064	0.8418	0.087
Mof_C 	C 	0.71746	0.3558	0.53632	-0.067
Mof_C 	C 	0.74126	0.39099	0.52235	-0.059
Mof_C 	C 	0.64717	0.26581	0.83075	-0.06
Mof_C 	C 	0.61016	0.27552	0.85335	-0.064
Mof_Na	Na	0.18562	0.81438	0.18562	2.344
Mof_Na	Na	0.81438	0.18562	0.18562	2.344
Mof_Na	Na	0.81438	0.81438	0.81438	2.365
Mof_Na	Na	0.18562	0.18562	0.81438	2.344
Mof_Na	Na	0.31438	0.68562	0.31438	2.342
Mof_Na	Na	0.68562	0.31438	0.31438	2.342
Mof_Na	Na	0.31438	0.31438	0.68562	2.342
Mof_Na	Na	0.68562	0.68562	0.68562	2.344
Mof_Na	Na	0.81438	0.18562	0.81438	2.354
Mof_Na	Na	0.18562	0.81438	0.81438	2.354
Mof_Na	Na	0.18562	0.18562	0.18562	2.333
Mof_Na	Na	0.81438	0.81438	0.18562	2.354
Mof_Na	Na	0.68562	0.31438	0.68562	2.343
Mof_Na	Na	0.31438	0.68562	0.68562	2.343
Mof_Na	Na	0.68562	0.68562	0.31438	2.343
Mof_Na	Na	0.31438	0.31438	0.31438	2.34
Mof_Na	Na	0.30462	0.87966	-0	2.273
Mof_O 	O 	0.3748	0.9163	-0	-0.524
Mof_C 	C 	0.3734	0.9608	-0	0.111
Mof_C 	C 	0.4163	0.9001	-0	0.113
Mof_C 	C 	0.4389	0.8577	-0	-0.208
Mof_Na	Na	0.69538	0.12034	-0	2.252
Mof_O 	O 	0.6252	0.0837	-0	-0.518
Mof_C 	C 	0.6266	0.0392	-0	0.07
Mof_C 	C 	0.5837	0.0999	-0	0.1
Mof_C 	C 	0.5611	0.1423	-0	-0.212
Mof_Na	Na	0.69538	0.87966	-0	2.274
Mof_O 	O 	0.6252	0.9163	-0	-0.524
Mof_C 	C 	0.6266	0.9608	-0	0.111
Mof_C 	C 	0.5837	0.9001	-0	0.113
Mof_C 	C 	0.5611	0.8577	-0	-0.208
Mof_Na	Na	0.30462	0.12034	-0	2.251
Mof_O 	O 	0.3748	0.0837	-0	-0.517
Mof_C 	C 	0.3734	0.0392	-0	0.07
Mof_C 	C 	0.4163	0.0999	-0	0.1
Mof_C 	C 	0.4389	0.1423	-0	-0.212
Mof_Na	Na	9.91501e-33	0.30462	0.87966	2.273
Mof_O 	O 	1.00524e-32	0.3748	0.9163	-0.524
Mof_C 	C 	1.6836e-32	0.3734	0.9608	0.111
Mof_C 	C 	9.99164e-33	0.4163	0.9001	0.113
Mof_C 	C 	9.83267e-33	0.4389	0.8577	-0.208
Mof_Na	Na	9.54932e-33	0.69538	0.12034	2.252
Mof_O 	O 	7.75774e-33	0.6252	0.0837	-0.518
Mof_C 	C 	8.83154e-33	0.6266	0.0392	0.07
Mof_C 	C 	3.68297e-33	0.5837	0.0999	0.1
Mof_C 	C 	1.04588e-32	0.5611	0.1423	-0.212
Mof_Na	Na	2.31486e-32	0.69538	0.87966	2.274
Mof_O 	O 	1.66692e-32	0.6252	0.9163	-0.524
Mof_C 	C 	1.02192e-32	0.6266	0.9608	0.111
Mof_C 	C 	1.66085e-32	0.5837	0.9001	0.113
Mof_C 	C 	3.21586e-33	0.5611	0.8577	-0.208
Mof_Na	Na	2.93251e-33	0.30462	0.12034	2.251
Mof_O 	O 	7.75774e-33	0.3748	0.0837	-0.517
Mof_C 	C 	5.52313e-33	0.3734	0.0392	0.07
Mof_C 	C 	3.68297e-33	0.4163	0.0999	0.1
Mof_C 	C 	5.3354e-34	0.4389	0.1423	-0.212
Mof_Na	Na	0.87966	0	0.30462	2.273
Mof_O 	O 	0.9163	0	0.3748	-0.524
Mof_C 	C 	0.9608	0	0.3734	0.111
Mof_C 	C 	0.9001	0	0.4163	0.113
Mof_C 	C 	0.8577	-3.3084e-33	0.4389	-0.208
Mof_Na	Na	0.12034	6.61681e-33	0.69538	2.252
Mof_O 	O 	0.0837	0	0.6252	-0.518
Mof_C 	C 	0.0392	0	0.6266	0.07
Mof_C 	C 	0.0999	0	0.5837	0.1
Mof_C 	C 	0.1423	-6.61681e-33	0.5611	-0.212
Mof_Na	Na	0.87966	6.61681e-33	0.69538	2.274
Mof_O 	O 	0.9163	0	0.6252	-0.524
Mof_C 	C 	0.9608	0	0.6266	0.111
Mof_C 	C 	0.9001	0	0.5837	0.113
Mof_C 	C 	0.8577	-6.61681e-33	0.5611	-0.208
Mof_Na	Na	0.12034	0	0.30462	2.251
Mof_O 	O 	0.0837	0	0.3748	-0.517
Mof_C 	C 	0.0392	0	0.3734	0.07
Mof_C 	C 	0.0999	0	0.4163	0.1
Mof_C 	C 	0.1423	-3.3084e-33	0.4389	-0.212
Mof_Na	Na	0.37966	0.80462	0.5	2.335
Mof_O 	O 	0.4163	0.8748	0.5	-0.521
Mof_C 	C 	0.4608	0.8734	0.5	0.082
Mof_C 	C 	0.4001	0.9163	0.5	0.117
Mof_C 	C 	0.3577	0.9389	0.5	-0.19
Mof_Na	Na	0.62034	0.19538	0.5	2.329
Mof_O 	O 	0.5837	0.1252	0.5	-0.52
Mof_C 	C 	0.5392	0.1266	0.5	0.072
Mof_C 	C 	0.5999	0.0837	0.5	0.106
Mof_C 	C 	0.6423	0.0611	0.5	-0.215
Mof_Na	Na	0.37966	0.19538	0.5	2.328
Mof_O 	O 	0.4163	0.1252	0.5	-0.52
Mof_C 	C 	0.4608	0.1266	0.5	0.072
Mof_C 	C 	0.4001	0.0837	0.5	0.106
Mof_C 	C 	0.3577	0.0611	0.5	-0.214
Mof_Na	Na	0.62034	0.80462	0.5	2.336
Mof_O 	O 	0.5837	0.8748	0.5	-0.521
Mof_C 	C 	0.5392	0.8734	0.5	0.082
Mof_C 	C 	0.5999	0.9163	0.5	0.117
Mof_C 	C 	0.6423	0.9389	0.5	-0.191
Mof_Na	Na	0.80462	0.5	0.62034	2.336
Mof_O 	O 	0.8748	0.5	0.5837	-0.521
Mof_C 	C 	0.8734	0.5	0.5392	0.082
Mof_C 	C 	0.9163	0.5	0.5999	0.117
Mof_C 	C 	0.9389	0.5	0.6423	-0.191
Mof_Na	Na	0.19538	0.5	0.37966	2.328
Mof_O 	O 	0.1252	0.5	0.4163	-0.52
Mof_C 	C 	0.1266	0.5	0.4608	0.072
Mof_C 	C 	0.0837	0.5	0.4001	0.106
Mof_C 	C 	0.0611	0.5	0.3577	-0.214
Mof_Na	Na	0.19538	0.5	0.62034	2.329
Mof_O 	O 	0.1252	0.5	0.5837	-0.52
Mof_C 	C 	0.1266	0.5	0.5392	0.072
Mof_C 	C 	0.0837	0.5	0.5999	0.106
Mof_C 	C 	0.0611	0.5	0.6423	-0.215
Mof_Na	Na	0.80462	0.5	0.37966	2.335
Mof_O 	O 	0.8748	0.5	0.4163	-0.521
Mof_C 	C 	0.8734	0.5	0.4608	0.082
Mof_C 	C 	0.9163	0.5	0.4001	0.117
Mof_C 	C 	0.9389	0.5	0.3577	-0.19
Mof_Na	Na	0.5	0.37966	0.19538	2.328
Mof_O 	O 	0.5	0.4163	0.1252	-0.52
Mof_C 	C 	0.5	0.4608	0.1266	0.072
Mof_C 	C 	0.5	0.4001	0.0837	0.106
Mof_C 	C 	0.5	0.3577	0.0611	-0.214
Mof_Na	Na	0.5	0.62034	0.80462	2.336
Mof_O 	O 	0.5	0.5837	0.8748	-0.521
Mof_C 	C 	0.5	0.5392	0.8734	0.082
Mof_C 	C 	0.5	0.5999	0.9163	0.117
Mof_C 	C 	0.5	0.6423	0.9389	-0.191
Mof_Na	Na	0.5	0.37966	0.80462	2.335
Mof_O 	O 	0.5	0.4163	0.8748	-0.521
Mof_C 	C 	0.5	0.4608	0.8734	0.082
Mof_C 	C 	0.5	0.4001	0.9163	0.117
Mof_C 	C 	0.5	0.3577	0.9389	-0.19
Mof_Na	Na	0.5	0.62034	0.19538	2.329
Mof_O 	O 	0.5	0.5837	0.1252	-0.52
Mof_C 	C 	0.5	0.5392	0.1266	0.072
Mof_C 	C 	0.5	0.5999	0.0837	0.106
Mof_C 	C 	0.5	0.6423	0.0611	-0.215
Mof_Na	Na	0.5	0.7692	-0	0.861
Mof_Na	Na	0.5	0.2308	-0	0.873
Mof_Na	Na	2.27345e-32	0.5	0.7692	0.861
Mof_Na	Na	4.17377e-33	0.5	0.2308	0.873
Mof_Na	Na	0.7692	0	0.5	0.861
Mof_Na	Na	0.2308	0	0.5	0.873
Mof_Na	Na	0.2692	0	0.5	0.934
Mof_Na	Na	0.7308	0	0.5	0.95
Mof_Na	Na	-3.87675e-33	0.5	0.7308	0.95
Mof_Na	Na	1.00934e-33	0.5	0.2692	0.934
Mof_Na	Na	0.5	0.2692	-0	0.934
Mof_Na	Na	0.5	0.7308	-0	0.95
Mof_N 	N 	1.71329e-32	0.7655	0.1576	-0.388
Mof_C 	C 	1.059e-32	0.796	0.1773	0.073
Mof_C 	C 	2.41308e-33	0.834	0.2024	-0.1
Mof_N 	N 	3.89931e-33	0.2345	0.1576	-0.388
Mof_C 	C 	5.62738e-33	0.204	0.1773	0.071
Mof_C 	C 	4.06728e-33	0.166	0.2024	-0.101
Mof_N 	N 	2.30089e-32	0.7655	0.8424	-0.389
Mof_C 	C 	9.70144e-33	0.796	0.8227	0.075
Mof_C 	C 	2.99052e-33	0.834	0.7976	-0.099
Mof_N 	N 	3.15849e-33	0.2345	0.8424	-0.389
Mof_C 	C 	-3.53218e-33	0.204	0.8227	0.074
Mof_C 	C 	2.99052e-33	0.166	0.7976	-0.101
Mof_N 	N 	0.1576	-6.61681e-33	0.7655	-0.388
Mof_C 	C 	0.1773	0	0.796	0.073
Mof_C 	C 	0.2024	-1.32336e-32	0.834	-0.1
Mof_N 	N 	0.1576	-1.6542e-33	0.2345	-0.388
Mof_C 	C 	0.1773	-1.6542e-33	0.204	0.071
Mof_C 	C 	0.2024	0	0.166	-0.101
Mof_N 	N 	0.8424	-6.61681e-33	0.7655	-0.389
Mof_C 	C 	0.8227	0	0.796	0.075
Mof_C 	C 	0.7976	-1.32336e-32	0.834	-0.099
Mof_N 	N 	0.8424	-1.6542e-33	0.2345	-0.389
Mof_C 	C 	0.8227	-1.6542e-33	0.204	0.074
Mof_C 	C 	0.7976	0	0.166	-0.101
Mof_N 	N 	0.7655	0.1576	-0	-0.388
Mof_C 	C 	0.796	0.1773	-0	0.073
Mof_C 	C 	0.834	0.2024	-0	-0.1
Mof_N 	N 	0.2345	0.1576	-0	-0.388
Mof_C 	C 	0.204	0.1773	-0	0.071
Mof_C 	C 	0.166	0.2024	-0	-0.101
Mof_N 	N 	0.7655	0.8424	-0	-0.389
Mof_C 	C 	0.796	0.8227	-0	0.075
Mof_C 	C 	0.834	0.7976	-0	-0.099
Mof_N 	N 	0.2345	0.8424	-0	-0.389
Mof_C 	C 	0.204	0.8227	-0	0.074
Mof_C 	C 	0.166	0.7976	-0	-0.101
Mof_N 	N 	0.2655	0.5	0.3424	-0.385
Mof_C 	C 	0.296	0.5	0.3227	0.072
Mof_C 	C 	0.334	0.5	0.2976	-0.059
Mof_N 	N 	0.7345	0.5	0.3424	-0.386
Mof_C 	C 	0.704	0.5	0.3227	0.073
Mof_C 	C 	0.666	0.5	0.2976	-0.059
Mof_N 	N 	0.2655	0.5	0.6576	-0.385
Mof_C 	C 	0.296	0.5	0.6773	0.073
Mof_C 	C 	0.334	0.5	0.7024	-0.059
Mof_N 	N 	0.7345	0.5	0.6576	-0.386
Mof_C 	C 	0.704	0.5	0.6773	0.073
Mof_C 	C 	0.666	0.5	0.7024	-0.059
Mof_N 	N 	0.5	0.6576	0.7345	-0.386
Mof_C 	C 	0.5	0.6773	0.704	0.073
Mof_C 	C 	0.5	0.7024	0.666	-0.059
Mof_N 	N 	0.5	0.6576	0.2655	-0.385
Mof_C 	C 	0.5	0.6773	0.296	0.073
Mof_C 	C 	0.5	0.7024	0.334	-0.059
Mof_N 	N 	0.5	0.3424	0.7345	-0.386
Mof_C 	C 	0.5	0.3227	0.704	0.073
Mof_C 	C 	0.5	0.2976	0.666	-0.059
Mof_N 	N 	0.5	0.3424	0.2655	-0.385
Mof_C 	C 	0.5	0.3227	0.296	0.072
Mof_C 	C 	0.5	0.2976	0.334	-0.059
Mof_N 	N 	0.6576	0.2655	0.5	-0.385
Mof_C 	C 	0.6773	0.296	0.5	0.073
Mof_C 	C 	0.7024	0.334	0.5	-0.059
Mof_N 	N 	0.6576	0.7345	0.5	-0.386
Mof_C 	C 	0.6773	0.704	0.5	0.073
Mof_C 	C 	0.7024	0.666	0.5	-0.059
Mof_N 	N 	0.3424	0.2655	0.5	-0.385
Mof_C 	C 	0.3227	0.296	0.5	0.072
Mof_C 	C 	0.2976	0.334	0.5	-0.059
Mof_N 	N 	0.3424	0.7345	0.5	-0.386
Mof_C 	C 	0.3227	0.704	0.5	0.073
Mof_C 	C 	0.2976	0.666	0.5	-0.059
Mof_N 	N 	0.44837	0.75	0.05163	-0.358
Mof_C 	C 	0.4224	0.75	0.0776	0.071
Mof_C 	C 	0.39009	0.75	0.10991	-0.05
Mof_N 	N 	0.55163	0.25	0.05163	-0.358
Mof_C 	C 	0.5776	0.25	0.0776	0.07
Mof_C 	C 	0.60991	0.25	0.10991	-0.051
Mof_N 	N 	0.55163	0.75	0.94837	-0.343
Mof_C 	C 	0.5776	0.75	0.9224	0.081
Mof_C 	C 	0.60991	0.75	0.89009	-0.047
Mof_N 	N 	0.44837	0.25	0.94837	-0.343
Mof_C 	C 	0.4224	0.25	0.9224	0.08
Mof_C 	C 	0.39009	0.25	0.89009	-0.047
Mof_N 	N 	0.05163	0.44837	0.75	-0.358
Mof_C 	C 	0.0776	0.4224	0.75	0.071
Mof_C 	C 	0.10991	0.39009	0.75	-0.05
Mof_N 	N 	0.05163	0.55163	0.25	-0.358
Mof_C 	C 	0.0776	0.5776	0.25	0.07
Mof_C 	C 	0.10991	0.60991	0.25	-0.051
Mof_N 	N 	0.94837	0.55163	0.75	-0.343
Mof_C 	C 	0.9224	0.5776	0.75	0.081
Mof_C 	C 	0.89009	0.60991	0.75	-0.047
Mof_N 	N 	0.94837	0.44837	0.25	-0.343
Mof_C 	C 	0.9224	0.4224	0.25	0.08
Mof_C 	C 	0.89009	0.39009	0.25	-0.047
Mof_N 	N 	0.75	0.05163	0.44837	-0.358
Mof_C 	C 	0.75	0.0776	0.4224	0.071
Mof_C 	C 	0.75	0.10991	0.39009	-0.05
Mof_N 	N 	0.25	0.05163	0.55163	-0.358
Mof_C 	C 	0.25	0.0776	0.5776	0.07
Mof_C 	C 	0.25	0.10991	0.60991	-0.051
Mof_N 	N 	0.75	0.94837	0.55163	-0.343
Mof_C 	C 	0.75	0.9224	0.5776	0.081
Mof_C 	C 	0.75	0.89009	0.60991	-0.047
Mof_N 	N 	0.25	0.94837	0.44837	-0.343
Mof_C 	C 	0.25	0.9224	0.4224	0.08
Mof_C 	C 	0.25	0.89009	0.39009	-0.047
Mof_N 	N 	0.55163	0.25	0.94837	-0.343
Mof_C 	C 	0.5776	0.25	0.9224	0.08
Mof_C 	C 	0.60991	0.25	0.89009	-0.047
Mof_N 	N 	0.44837	0.75	0.94837	-0.343
Mof_C 	C 	0.4224	0.75	0.9224	0.081
Mof_C 	C 	0.39009	0.75	0.89009	-0.047
Mof_N 	N 	0.44837	0.25	0.05163	-0.358
Mof_C 	C 	0.4224	0.25	0.0776	0.07
Mof_C 	C 	0.39009	0.25	0.10991	-0.051
Mof_N 	N 	0.55163	0.75	0.05163	-0.358
Mof_C 	C 	0.5776	0.75	0.0776	0.071
Mof_C 	C 	0.60991	0.75	0.10991	-0.05
Mof_N 	N 	0.94837	0.55163	0.25	-0.343
Mof_C 	C 	0.9224	0.5776	0.25	0.08
Mof_C 	C 	0.89009	0.60991	0.25	-0.047
Mof_N 	N 	0.94837	0.44837	0.75	-0.343
Mof_C 	C 	0.9224	0.4224	0.75	0.081
Mof_C 	C 	0.89009	0.39009	0.75	-0.047
Mof_N 	N 	0.05163	0.44837	0.25	-0.358
Mof_C 	C 	0.0776	0.4224	0.25	0.07
Mof_C 	C 	0.10991	0.39009	0.25	-0.051
Mof_N 	N 	0.05163	0.55163	0.75	-0.358
Mof_C 	C 	0.0776	0.5776	0.75	0.071
Mof_C 	C 	0.10991	0.60991	0.75	-0.05
Mof_N 	N 	0.25	0.94837	0.55163	-0.343
Mof_C 	C 	0.25	0.9224	0.5776	0.08
Mof_C 	C 	0.25	0.89009	0.60991	-0.047
Mof_N 	N 	0.75	0.94837	0.44837	-0.343
Mof_C 	C 	0.75	0.9224	0.4224	0.081
Mof_C 	C 	0.75	0.89009	0.39009	-0.047
Mof_N 	N 	0.25	0.05163	0.44837	-0.358
Mof_C 	C 	0.25	0.0776	0.4224	0.07
Mof_C 	C 	0.25	0.10991	0.39009	-0.051
Mof_N 	N 	0.75	0.05163	0.55163	-0.358
Mof_C 	C 	0.75	0.0776	0.5776	0.071
Mof_C 	C 	0.75	0.10991	0.60991	-0.05
Mof_C 	C 	0.3459	0	-0	-0.22
Mof_C 	C 	0.6541	0	-0	-0.22
Mof_C 	C 	3.3084e-33	0.3459	-0	-0.22
Mof_C 	C 	6.61681e-33	0.6541	-0	-0.22
Mof_C 	C 	4.60532e-33	0	0.3459	-0.22
Mof_C 	C 	9.06929e-33	0	0.6541	-0.22
Mof_C 	C 	0.5	0.8459	0.5	-0.175
Mof_C 	C 	0.5	0.1541	0.5	-0.174
Mof_C 	C 	0.8459	0.5	0.5	-0.175
Mof_C 	C 	0.1541	0.5	0.5	-0.174
Mof_C 	C 	0.5	0.5	0.1541	-0.174
Mof_C 	C 	0.5	0.5	0.8459	-0.175
_end
