data_functionalizedCrystal
_audit_creation_method	'EQeq! by Chris Wilmer'
_symmetry_space_group_name_H-M	'P1'
_symmetry_Int_Tables_number	1
_symmetry_cell_setting	triclinic
loop_
_symmetry_equiv_pos_as_xyz
  x,y,z
_cell_length_a	36.793
_cell_length_b	36.793
_cell_length_c	36.793
_cell_angle_alpha	90
_cell_angle_beta	90
_cell_angle_gamma	90
loop_
_atom_site_label
_atom_site_type_symbol
_atom_site_fract_x
_atom_site_fract_y
_atom_site_fract_z
_atom_site_charge
Mof_C 	C 	0.2327	0.0523	0.1915	0.192
Mof_H 	H 	0.2546	0.0429	0.1817	-0.049
Mof_C 	C 	0.2132	0.0798	0.1728	-0.306
Mof_H 	H 	0.223	0.0885	0.1505	0.129
Mof_C 	C 	0.2327	0.5523	0.6915	0.192
Mof_H 	H 	0.2546	0.5429	0.6817	-0.049
Mof_C 	C 	0.2132	0.5798	0.6728	-0.306
Mof_H 	H 	0.223	0.5885	0.6505	0.129
Mof_C 	C 	0.7327	0.0523	0.6915	0.192
Mof_H 	H 	0.7546	0.0429	0.6817	-0.049
Mof_C 	C 	0.7132	0.0798	0.6728	-0.306
Mof_H 	H 	0.723	0.0885	0.6505	0.129
Mof_C 	C 	0.7327	0.5523	0.1915	0.192
Mof_H 	H 	0.7546	0.5429	0.1817	-0.049
Mof_C 	C 	0.7132	0.5798	0.1728	-0.306
Mof_H 	H 	0.723	0.5885	0.1505	0.129
Mof_C 	C 	0.7673	0.9477	0.1915	0.192
Mof_H 	H 	0.7454	0.9571	0.1817	-0.048
Mof_C 	C 	0.7868	0.9202	0.1728	-0.305
Mof_H 	H 	0.777	0.9115	0.1505	0.129
Mof_C 	C 	0.7673	0.4477	0.6915	0.193
Mof_H 	H 	0.7454	0.4571	0.6817	-0.049
Mof_C 	C 	0.7868	0.4202	0.6728	-0.306
Mof_H 	H 	0.777	0.4115	0.6505	0.129
Mof_C 	C 	0.2673	0.9477	0.6915	0.192
Mof_H 	H 	0.2454	0.9571	0.6817	-0.048
Mof_C 	C 	0.2868	0.9202	0.6728	-0.305
Mof_H 	H 	0.277	0.9115	0.6505	0.129
Mof_C 	C 	0.2673	0.4477	0.1915	0.192
Mof_H 	H 	0.2454	0.4571	0.1817	-0.049
Mof_C 	C 	0.2868	0.4202	0.1728	-0.306
Mof_H 	H 	0.277	0.4115	0.1505	0.129
Mof_C 	C 	0.7673	0.0523	0.8085	0.192
Mof_H 	H 	0.7454	0.0429	0.8183	-0.049
Mof_C 	C 	0.7868	0.0798	0.8272	-0.306
Mof_H 	H 	0.777	0.0885	0.8495	0.129
Mof_C 	C 	0.7673	0.5523	0.3085	0.193
Mof_H 	H 	0.7454	0.5429	0.3183	-0.049
Mof_C 	C 	0.7868	0.5798	0.3272	-0.306
Mof_H 	H 	0.777	0.5885	0.3495	0.129
Mof_C 	C 	0.2673	0.0523	0.3085	0.192
Mof_H 	H 	0.2454	0.0429	0.3183	-0.049
Mof_C 	C 	0.2868	0.0798	0.3272	-0.306
Mof_H 	H 	0.277	0.0885	0.3495	0.129
Mof_C 	C 	0.2673	0.5523	0.8085	0.193
Mof_H 	H 	0.2454	0.5429	0.8183	-0.049
Mof_C 	C 	0.2868	0.5798	0.8272	-0.306
Mof_H 	H 	0.277	0.5885	0.8495	0.129
Mof_C 	C 	0.2327	0.9477	0.8085	0.193
Mof_H 	H 	0.2546	0.9571	0.8183	-0.047
Mof_C 	C 	0.2132	0.9202	0.8272	-0.305
Mof_H 	H 	0.223	0.9115	0.8495	0.13
Mof_C 	C 	0.2327	0.4477	0.3085	0.192
Mof_H 	H 	0.2546	0.4571	0.3183	-0.049
Mof_C 	C 	0.2132	0.4202	0.3272	-0.306
Mof_H 	H 	0.223	0.4115	0.3495	0.129
Mof_C 	C 	0.7327	0.9477	0.3085	0.193
Mof_H 	H 	0.7546	0.9571	0.3183	-0.048
Mof_C 	C 	0.7132	0.9202	0.3272	-0.305
Mof_H 	H 	0.723	0.9115	0.3495	0.129
Mof_C 	C 	0.7327	0.4477	0.8085	0.193
Mof_H 	H 	0.7546	0.4571	0.8183	-0.049
Mof_C 	C 	0.7132	0.4202	0.8272	-0.306
Mof_H 	H 	0.723	0.4115	0.8495	0.129
Mof_C 	C 	0.1915	0.2327	0.0523	0.192
Mof_H 	H 	0.1817	0.2546	0.0429	-0.049
Mof_C 	C 	0.1728	0.2132	0.0798	-0.306
Mof_H 	H 	0.1505	0.223	0.0885	0.129
Mof_C 	C 	0.1915	0.7327	0.5523	0.192
Mof_H 	H 	0.1817	0.7546	0.5429	-0.049
Mof_C 	C 	0.1728	0.7132	0.5798	-0.306
Mof_H 	H 	0.1505	0.723	0.5885	0.129
Mof_C 	C 	0.6915	0.2327	0.5523	0.192
Mof_H 	H 	0.6817	0.2546	0.5429	-0.049
Mof_C 	C 	0.6728	0.2132	0.5798	-0.306
Mof_H 	H 	0.6505	0.223	0.5885	0.129
Mof_C 	C 	0.6915	0.7327	0.0523	0.192
Mof_H 	H 	0.6817	0.7546	0.0429	-0.049
Mof_C 	C 	0.6728	0.7132	0.0798	-0.306
Mof_H 	H 	0.6505	0.723	0.0885	0.129
Mof_C 	C 	0.1915	0.7673	0.9477	0.192
Mof_H 	H 	0.1817	0.7454	0.9571	-0.048
Mof_C 	C 	0.1728	0.7868	0.9202	-0.305
Mof_H 	H 	0.1505	0.777	0.9115	0.129
Mof_C 	C 	0.1915	0.2673	0.4477	0.192
Mof_H 	H 	0.1817	0.2454	0.4571	-0.049
Mof_C 	C 	0.1728	0.2868	0.4202	-0.306
Mof_H 	H 	0.1505	0.277	0.4115	0.129
Mof_C 	C 	0.6915	0.7673	0.4477	0.193
Mof_H 	H 	0.6817	0.7454	0.4571	-0.049
Mof_C 	C 	0.6728	0.7868	0.4202	-0.306
Mof_H 	H 	0.6505	0.777	0.4115	0.129
Mof_C 	C 	0.6915	0.2673	0.9477	0.192
Mof_H 	H 	0.6817	0.2454	0.9571	-0.048
Mof_C 	C 	0.6728	0.2868	0.9202	-0.305
Mof_H 	H 	0.6505	0.277	0.9115	0.129
Mof_C 	C 	0.8085	0.7673	0.0523	0.192
Mof_H 	H 	0.8183	0.7454	0.0429	-0.049
Mof_C 	C 	0.8272	0.7868	0.0798	-0.306
Mof_H 	H 	0.8495	0.777	0.0885	0.129
Mof_C 	C 	0.8085	0.2673	0.5523	0.193
Mof_H 	H 	0.8183	0.2454	0.5429	-0.049
Mof_C 	C 	0.8272	0.2868	0.5798	-0.306
Mof_H 	H 	0.8495	0.277	0.5885	0.129
Mof_C 	C 	0.3085	0.7673	0.5523	0.193
Mof_H 	H 	0.3183	0.7454	0.5429	-0.049
Mof_C 	C 	0.3272	0.7868	0.5798	-0.306
Mof_H 	H 	0.3495	0.777	0.5885	0.129
Mof_C 	C 	0.3085	0.2673	0.0523	0.192
Mof_H 	H 	0.3183	0.2454	0.0429	-0.049
Mof_C 	C 	0.3272	0.2868	0.0798	-0.306
Mof_H 	H 	0.3495	0.277	0.0885	0.128
Mof_C 	C 	0.8085	0.2327	0.9477	0.192
Mof_H 	H 	0.8183	0.2546	0.9571	-0.048
Mof_C 	C 	0.8272	0.2132	0.9202	-0.306
Mof_H 	H 	0.8495	0.223	0.9115	0.129
Mof_C 	C 	0.8085	0.7327	0.4477	0.192
Mof_H 	H 	0.8183	0.7546	0.4571	-0.05
Mof_C 	C 	0.8272	0.7132	0.4202	-0.307
Mof_H 	H 	0.8495	0.723	0.4115	0.128
Mof_C 	C 	0.3085	0.2327	0.4477	0.191
Mof_H 	H 	0.3183	0.2546	0.4571	-0.05
Mof_C 	C 	0.3272	0.2132	0.4202	-0.307
Mof_H 	H 	0.3495	0.223	0.4115	0.128
Mof_C 	C 	0.3085	0.7327	0.9477	0.192
Mof_H 	H 	0.3183	0.7546	0.9571	-0.049
Mof_C 	C 	0.3272	0.7132	0.9202	-0.306
Mof_H 	H 	0.3495	0.723	0.9115	0.128
Mof_C 	C 	0.0523	0.1915	0.2327	0.191
Mof_H 	H 	0.0429	0.1817	0.2546	-0.05
Mof_C 	C 	0.0798	0.1728	0.2132	-0.307
Mof_H 	H 	0.0885	0.1505	0.223	0.128
Mof_C 	C 	0.0523	0.6915	0.7327	0.191
Mof_H 	H 	0.0429	0.6817	0.7546	-0.05
Mof_C 	C 	0.0798	0.6728	0.7132	-0.307
Mof_H 	H 	0.0885	0.6505	0.723	0.128
Mof_C 	C 	0.5523	0.1915	0.7327	0.191
Mof_H 	H 	0.5429	0.1817	0.7546	-0.05
Mof_C 	C 	0.5798	0.1728	0.7132	-0.307
Mof_H 	H 	0.5885	0.1505	0.723	0.128
Mof_C 	C 	0.5523	0.6915	0.2327	0.191
Mof_H 	H 	0.5429	0.6817	0.2546	-0.05
Mof_C 	C 	0.5798	0.6728	0.2132	-0.307
Mof_H 	H 	0.5885	0.6505	0.223	0.128
Mof_C 	C 	0.9477	0.1915	0.7673	0.191
Mof_H 	H 	0.9571	0.1817	0.7454	-0.049
Mof_C 	C 	0.9202	0.1728	0.7868	-0.306
Mof_H 	H 	0.9115	0.1505	0.777	0.128
Mof_C 	C 	0.9477	0.6915	0.2673	0.191
Mof_H 	H 	0.9571	0.6817	0.2454	-0.049
Mof_C 	C 	0.9202	0.6728	0.2868	-0.306
Mof_H 	H 	0.9115	0.6505	0.277	0.128
Mof_C 	C 	0.4477	0.1915	0.2673	0.191
Mof_H 	H 	0.4571	0.1817	0.2454	-0.05
Mof_C 	C 	0.4202	0.1728	0.2868	-0.307
Mof_H 	H 	0.4115	0.1505	0.277	0.128
Mof_C 	C 	0.4477	0.6915	0.7673	0.192
Mof_H 	H 	0.4571	0.6817	0.7454	-0.05
Mof_C 	C 	0.4202	0.6728	0.7868	-0.307
Mof_H 	H 	0.4115	0.6505	0.777	0.128
Mof_C 	C 	0.0523	0.8085	0.7673	0.191
Mof_H 	H 	0.0429	0.8183	0.7454	-0.05
Mof_C 	C 	0.0798	0.8272	0.7868	-0.307
Mof_H 	H 	0.0885	0.8495	0.777	0.128
Mof_C 	C 	0.0523	0.3085	0.2673	0.191
Mof_H 	H 	0.0429	0.3183	0.2454	-0.05
Mof_C 	C 	0.0798	0.3272	0.2868	-0.307
Mof_H 	H 	0.0885	0.3495	0.277	0.128
Mof_C 	C 	0.5523	0.8085	0.2673	0.192
Mof_H 	H 	0.5429	0.8183	0.2454	-0.05
Mof_C 	C 	0.5798	0.8272	0.2868	-0.307
Mof_H 	H 	0.5885	0.8495	0.277	0.128
Mof_C 	C 	0.5523	0.3085	0.7673	0.192
Mof_H 	H 	0.5429	0.3183	0.7454	-0.05
Mof_C 	C 	0.5798	0.3272	0.7868	-0.307
Mof_H 	H 	0.5885	0.3495	0.777	0.128
Mof_C 	C 	0.9477	0.8085	0.2327	0.192
Mof_H 	H 	0.9571	0.8183	0.2546	-0.048
Mof_C 	C 	0.9202	0.8272	0.2132	-0.306
Mof_H 	H 	0.9115	0.8495	0.223	0.129
Mof_C 	C 	0.9477	0.3085	0.7327	0.192
Mof_H 	H 	0.9571	0.3183	0.7546	-0.049
Mof_C 	C 	0.9202	0.3272	0.7132	-0.306
Mof_H 	H 	0.9115	0.3495	0.723	0.128
Mof_C 	C 	0.4477	0.8085	0.7327	0.192
Mof_H 	H 	0.4571	0.8183	0.7546	-0.05
Mof_C 	C 	0.4202	0.8272	0.7132	-0.307
Mof_H 	H 	0.4115	0.8495	0.723	0.128
Mof_C 	C 	0.4477	0.3085	0.2327	0.191
Mof_H 	H 	0.4571	0.3183	0.2546	-0.05
Mof_C 	C 	0.4202	0.3272	0.2132	-0.307
Mof_H 	H 	0.4115	0.3495	0.223	0.128
Mof_C 	C 	0.0523	0.2327	0.8085	0.191
Mof_H 	H 	0.0429	0.2546	0.8183	-0.05
Mof_C 	C 	0.0798	0.2132	0.8272	-0.307
Mof_H 	H 	0.0885	0.223	0.8495	0.128
Mof_C 	C 	0.0523	0.7327	0.3085	0.191
Mof_H 	H 	0.0429	0.7546	0.3183	-0.05
Mof_C 	C 	0.0798	0.7132	0.3272	-0.307
Mof_H 	H 	0.0885	0.723	0.3495	0.128
Mof_C 	C 	0.5523	0.2327	0.3085	0.191
Mof_H 	H 	0.5429	0.2546	0.3183	-0.05
Mof_C 	C 	0.5798	0.2132	0.3272	-0.307
Mof_H 	H 	0.5885	0.223	0.3495	0.128
Mof_C 	C 	0.5523	0.7327	0.8085	0.192
Mof_H 	H 	0.5429	0.7546	0.8183	-0.05
Mof_C 	C 	0.5798	0.7132	0.8272	-0.307
Mof_H 	H 	0.5885	0.723	0.8495	0.128
Mof_C 	C 	0.9477	0.7673	0.8085	0.192
Mof_H 	H 	0.9571	0.7454	0.8183	-0.048
Mof_C 	C 	0.9202	0.7868	0.8272	-0.306
Mof_H 	H 	0.9115	0.777	0.8495	0.129
Mof_C 	C 	0.9477	0.2673	0.3085	0.191
Mof_H 	H 	0.9571	0.2454	0.3183	-0.049
Mof_C 	C 	0.9202	0.2868	0.3272	-0.306
Mof_H 	H 	0.9115	0.277	0.3495	0.128
Mof_C 	C 	0.4477	0.7673	0.3085	0.192
Mof_H 	H 	0.4571	0.7454	0.3183	-0.05
Mof_C 	C 	0.4202	0.7868	0.3272	-0.307
Mof_H 	H 	0.4115	0.777	0.3495	0.128
Mof_C 	C 	0.4477	0.2673	0.8085	0.192
Mof_H 	H 	0.4571	0.2454	0.8183	-0.05
Mof_C 	C 	0.4202	0.2868	0.8272	-0.307
Mof_H 	H 	0.4115	0.277	0.8495	0.128
Mof_C 	C 	0.0523	0.7673	0.1915	0.191
Mof_H 	H 	0.0429	0.7454	0.1817	-0.05
Mof_C 	C 	0.0798	0.7868	0.1728	-0.307
Mof_H 	H 	0.0885	0.777	0.1505	0.128
Mof_C 	C 	0.0523	0.2673	0.6915	0.191
Mof_H 	H 	0.0429	0.2454	0.6817	-0.05
Mof_C 	C 	0.0798	0.2868	0.6728	-0.307
Mof_H 	H 	0.0885	0.277	0.6505	0.128
Mof_C 	C 	0.5523	0.7673	0.6915	0.192
Mof_H 	H 	0.5429	0.7454	0.6817	-0.05
Mof_C 	C 	0.5798	0.7868	0.6728	-0.307
Mof_H 	H 	0.5885	0.777	0.6505	0.128
Mof_C 	C 	0.5523	0.2673	0.1915	0.191
Mof_H 	H 	0.5429	0.2454	0.1817	-0.05
Mof_C 	C 	0.5798	0.2868	0.1728	-0.307
Mof_H 	H 	0.5885	0.277	0.1505	0.128
Mof_C 	C 	0.9477	0.2327	0.1915	0.191
Mof_H 	H 	0.9571	0.2546	0.1817	-0.049
Mof_C 	C 	0.9202	0.2132	0.1728	-0.306
Mof_H 	H 	0.9115	0.223	0.1505	0.128
Mof_C 	C 	0.9477	0.7327	0.6915	0.192
Mof_H 	H 	0.9571	0.7546	0.6817	-0.049
Mof_C 	C 	0.9202	0.7132	0.6728	-0.306
Mof_H 	H 	0.9115	0.723	0.6505	0.128
Mof_C 	C 	0.4477	0.2327	0.6915	0.191
Mof_H 	H 	0.4571	0.2546	0.6817	-0.05
Mof_C 	C 	0.4202	0.2132	0.6728	-0.307
Mof_H 	H 	0.4115	0.223	0.6505	0.128
Mof_C 	C 	0.4477	0.7327	0.1915	0.191
Mof_H 	H 	0.4571	0.7546	0.1817	-0.05
Mof_C 	C 	0.4202	0.7132	0.1728	-0.307
Mof_H 	H 	0.4115	0.723	0.1505	0.128
Mof_C 	C 	0.2327	0.1915	0.9477	0.191
Mof_H 	H 	0.2546	0.1817	0.9571	-0.049
Mof_C 	C 	0.2132	0.1728	0.9202	-0.306
Mof_H 	H 	0.223	0.1505	0.9115	0.128
Mof_C 	C 	0.2327	0.6915	0.4477	0.191
Mof_H 	H 	0.2546	0.6817	0.4571	-0.05
Mof_C 	C 	0.2132	0.6728	0.4202	-0.307
Mof_H 	H 	0.223	0.6505	0.4115	0.128
Mof_C 	C 	0.7327	0.1915	0.4477	0.191
Mof_H 	H 	0.7546	0.1817	0.4571	-0.05
Mof_C 	C 	0.7132	0.1728	0.4202	-0.307
Mof_H 	H 	0.723	0.1505	0.4115	0.128
Mof_C 	C 	0.7327	0.6915	0.9477	0.192
Mof_H 	H 	0.7546	0.6817	0.9571	-0.049
Mof_C 	C 	0.7132	0.6728	0.9202	-0.306
Mof_H 	H 	0.723	0.6505	0.9115	0.128
Mof_C 	C 	0.7673	0.1915	0.0523	0.191
Mof_H 	H 	0.7454	0.1817	0.0429	-0.05
Mof_C 	C 	0.7868	0.1728	0.0798	-0.307
Mof_H 	H 	0.777	0.1505	0.0885	0.128
Mof_C 	C 	0.7673	0.6915	0.5523	0.192
Mof_H 	H 	0.7454	0.6817	0.5429	-0.05
Mof_C 	C 	0.7868	0.6728	0.5798	-0.307
Mof_H 	H 	0.777	0.6505	0.5885	0.128
Mof_C 	C 	0.2673	0.1915	0.5523	0.191
Mof_H 	H 	0.2454	0.1817	0.5429	-0.05
Mof_C 	C 	0.2868	0.1728	0.5798	-0.307
Mof_H 	H 	0.277	0.1505	0.5885	0.128
Mof_C 	C 	0.2673	0.6915	0.0523	0.191
Mof_H 	H 	0.2454	0.6817	0.0429	-0.05
Mof_C 	C 	0.2868	0.6728	0.0798	-0.307
Mof_H 	H 	0.277	0.6505	0.0885	0.128
Mof_C 	C 	0.7673	0.8085	0.9477	0.192
Mof_H 	H 	0.7454	0.8183	0.9571	-0.048
Mof_C 	C 	0.7868	0.8272	0.9202	-0.306
Mof_H 	H 	0.777	0.8495	0.9115	0.129
Mof_C 	C 	0.7673	0.3085	0.4477	0.192
Mof_H 	H 	0.7454	0.3183	0.4571	-0.05
Mof_C 	C 	0.7868	0.3272	0.4202	-0.307
Mof_H 	H 	0.777	0.3495	0.4115	0.128
Mof_C 	C 	0.2673	0.8085	0.4477	0.192
Mof_H 	H 	0.2454	0.8183	0.4571	-0.05
Mof_C 	C 	0.2868	0.8272	0.4202	-0.307
Mof_H 	H 	0.277	0.8495	0.4115	0.128
Mof_C 	C 	0.2673	0.3085	0.9477	0.191
Mof_H 	H 	0.2454	0.3183	0.9571	-0.049
Mof_C 	C 	0.2868	0.3272	0.9202	-0.306
Mof_H 	H 	0.277	0.3495	0.9115	0.128
Mof_C 	C 	0.2327	0.8085	0.0523	0.191
Mof_H 	H 	0.2546	0.8183	0.0429	-0.05
Mof_C 	C 	0.2132	0.8272	0.0798	-0.307
Mof_H 	H 	0.223	0.8495	0.0885	0.128
Mof_C 	C 	0.2327	0.3085	0.5523	0.191
Mof_H 	H 	0.2546	0.3183	0.5429	-0.05
Mof_C 	C 	0.2132	0.3272	0.5798	-0.307
Mof_H 	H 	0.223	0.3495	0.5885	0.128
Mof_C 	C 	0.7327	0.8085	0.5523	0.192
Mof_H 	H 	0.7546	0.8183	0.5429	-0.05
Mof_C 	C 	0.7132	0.8272	0.5798	-0.307
Mof_H 	H 	0.723	0.8495	0.5885	0.128
Mof_C 	C 	0.7327	0.3085	0.0523	0.191
Mof_H 	H 	0.7546	0.3183	0.0429	-0.05
Mof_C 	C 	0.7132	0.3272	0.0798	-0.307
Mof_H 	H 	0.723	0.3495	0.0885	0.128
Mof_C 	C 	0.1915	0.0523	0.7673	0.191
Mof_H 	H 	0.1817	0.0429	0.7454	-0.05
Mof_C 	C 	0.1728	0.0798	0.7868	-0.307
Mof_H 	H 	0.1505	0.0885	0.777	0.128
Mof_C 	C 	0.1915	0.5523	0.2673	0.191
Mof_H 	H 	0.1817	0.5429	0.2454	-0.05
Mof_C 	C 	0.1728	0.5798	0.2868	-0.307
Mof_H 	H 	0.1505	0.5885	0.277	0.128
Mof_C 	C 	0.6915	0.0523	0.2673	0.191
Mof_H 	H 	0.6817	0.0429	0.2454	-0.05
Mof_C 	C 	0.6728	0.0798	0.2868	-0.307
Mof_H 	H 	0.6505	0.0885	0.277	0.128
Mof_C 	C 	0.6915	0.5523	0.7673	0.192
Mof_H 	H 	0.6817	0.5429	0.7454	-0.05
Mof_C 	C 	0.6728	0.5798	0.7868	-0.307
Mof_H 	H 	0.6505	0.5885	0.777	0.128
Mof_C 	C 	0.1915	0.9477	0.2327	0.191
Mof_H 	H 	0.1817	0.9571	0.2546	-0.049
Mof_C 	C 	0.1728	0.9202	0.2132	-0.306
Mof_H 	H 	0.1505	0.9115	0.223	0.128
Mof_C 	C 	0.1915	0.4477	0.7327	0.191
Mof_H 	H 	0.1817	0.4571	0.7546	-0.05
Mof_C 	C 	0.1728	0.4202	0.7132	-0.307
Mof_H 	H 	0.1505	0.4115	0.723	0.128
Mof_C 	C 	0.6915	0.9477	0.7327	0.192
Mof_H 	H 	0.6817	0.9571	0.7546	-0.049
Mof_C 	C 	0.6728	0.9202	0.7132	-0.306
Mof_H 	H 	0.6505	0.9115	0.723	0.128
Mof_C 	C 	0.6915	0.4477	0.2327	0.191
Mof_H 	H 	0.6817	0.4571	0.2546	-0.05
Mof_C 	C 	0.6728	0.4202	0.2132	-0.307
Mof_H 	H 	0.6505	0.4115	0.223	0.128
Mof_C 	C 	0.8085	0.0523	0.2327	0.191
Mof_H 	H 	0.8183	0.0429	0.2546	-0.05
Mof_C 	C 	0.8272	0.0798	0.2132	-0.307
Mof_H 	H 	0.8495	0.0885	0.223	0.128
Mof_C 	C 	0.8085	0.5523	0.7327	0.192
Mof_H 	H 	0.8183	0.5429	0.7546	-0.05
Mof_C 	C 	0.8272	0.5798	0.7132	-0.307
Mof_H 	H 	0.8495	0.5885	0.723	0.128
Mof_C 	C 	0.3085	0.0523	0.7327	0.191
Mof_H 	H 	0.3183	0.0429	0.7546	-0.05
Mof_C 	C 	0.3272	0.0798	0.7132	-0.307
Mof_H 	H 	0.3495	0.0885	0.723	0.128
Mof_C 	C 	0.3085	0.5523	0.2327	0.191
Mof_H 	H 	0.3183	0.5429	0.2546	-0.05
Mof_C 	C 	0.3272	0.5798	0.2132	-0.307
Mof_H 	H 	0.3495	0.5885	0.223	0.128
Mof_C 	C 	0.8085	0.9477	0.7673	0.192
Mof_H 	H 	0.8183	0.9571	0.7454	-0.048
Mof_C 	C 	0.8272	0.9202	0.7868	-0.306
Mof_H 	H 	0.8495	0.9115	0.777	0.129
Mof_C 	C 	0.8085	0.4477	0.2673	0.192
Mof_H 	H 	0.8183	0.4571	0.2454	-0.05
Mof_C 	C 	0.8272	0.4202	0.2868	-0.307
Mof_H 	H 	0.8495	0.4115	0.277	0.128
Mof_C 	C 	0.3085	0.9477	0.2673	0.191
Mof_H 	H 	0.3183	0.9571	0.2454	-0.049
Mof_C 	C 	0.3272	0.9202	0.2868	-0.306
Mof_H 	H 	0.3495	0.9115	0.277	0.128
Mof_C 	C 	0.3085	0.4477	0.7673	0.192
Mof_H 	H 	0.3183	0.4571	0.7454	-0.05
Mof_C 	C 	0.3272	0.4202	0.7868	-0.307
Mof_H 	H 	0.3495	0.4115	0.777	0.128
Mof_C 	C 	0.7673	0.9477	0.8085	0.192
Mof_H 	H 	0.7454	0.9571	0.8183	-0.048
Mof_C 	C 	0.7868	0.9202	0.8272	-0.306
Mof_H 	H 	0.777	0.9115	0.8495	0.129
Mof_C 	C 	0.7673	0.4477	0.3085	0.192
Mof_H 	H 	0.7454	0.4571	0.3183	-0.05
Mof_C 	C 	0.7868	0.4202	0.3272	-0.307
Mof_H 	H 	0.777	0.4115	0.3495	0.128
Mof_C 	C 	0.2673	0.9477	0.3085	0.191
Mof_H 	H 	0.2454	0.9571	0.3183	-0.049
Mof_C 	C 	0.2868	0.9202	0.3272	-0.306
Mof_H 	H 	0.277	0.9115	0.3495	0.128
Mof_C 	C 	0.2673	0.4477	0.8085	0.192
Mof_H 	H 	0.2454	0.4571	0.8183	-0.05
Mof_C 	C 	0.2868	0.4202	0.8272	-0.307
Mof_H 	H 	0.277	0.4115	0.8495	0.128
Mof_C 	C 	0.2327	0.0523	0.8085	0.191
Mof_H 	H 	0.2546	0.0429	0.8183	-0.05
Mof_C 	C 	0.2132	0.0798	0.8272	-0.307
Mof_H 	H 	0.223	0.0885	0.8495	0.128
Mof_C 	C 	0.2327	0.5523	0.3085	0.191
Mof_H 	H 	0.2546	0.5429	0.3183	-0.05
Mof_C 	C 	0.2132	0.5798	0.3272	-0.307
Mof_H 	H 	0.223	0.5885	0.3495	0.128
Mof_C 	C 	0.7327	0.0523	0.3085	0.191
Mof_H 	H 	0.7546	0.0429	0.3183	-0.05
Mof_C 	C 	0.7132	0.0798	0.3272	-0.307
Mof_H 	H 	0.723	0.0885	0.3495	0.128
Mof_C 	C 	0.7327	0.5523	0.8085	0.192
Mof_H 	H 	0.7546	0.5429	0.8183	-0.05
Mof_C 	C 	0.7132	0.5798	0.8272	-0.307
Mof_H 	H 	0.723	0.5885	0.8495	0.128
Mof_C 	C 	0.2327	0.9477	0.1915	0.191
Mof_H 	H 	0.2546	0.9571	0.1817	-0.049
Mof_C 	C 	0.2132	0.9202	0.1728	-0.306
Mof_H 	H 	0.223	0.9115	0.1505	0.128
Mof_C 	C 	0.2327	0.4477	0.6915	0.191
Mof_H 	H 	0.2546	0.4571	0.6817	-0.05
Mof_C 	C 	0.2132	0.4202	0.6728	-0.307
Mof_H 	H 	0.223	0.4115	0.6505	0.128
Mof_C 	C 	0.7327	0.9477	0.6915	0.192
Mof_H 	H 	0.7546	0.9571	0.6817	-0.049
Mof_C 	C 	0.7132	0.9202	0.6728	-0.306
Mof_H 	H 	0.723	0.9115	0.6505	0.128
Mof_C 	C 	0.7327	0.4477	0.1915	0.191
Mof_H 	H 	0.7546	0.4571	0.1817	-0.05
Mof_C 	C 	0.7132	0.4202	0.1728	-0.307
Mof_H 	H 	0.723	0.4115	0.1505	0.128
Mof_C 	C 	0.7673	0.0523	0.1915	0.191
Mof_H 	H 	0.7454	0.0429	0.1817	-0.05
Mof_C 	C 	0.7868	0.0798	0.1728	-0.307
Mof_H 	H 	0.777	0.0885	0.1505	0.128
Mof_C 	C 	0.7673	0.5523	0.6915	0.192
Mof_H 	H 	0.7454	0.5429	0.6817	-0.05
Mof_C 	C 	0.7868	0.5798	0.6728	-0.307
Mof_H 	H 	0.777	0.5885	0.6505	0.128
Mof_C 	C 	0.2673	0.0523	0.6915	0.191
Mof_H 	H 	0.2454	0.0429	0.6817	-0.05
Mof_C 	C 	0.2868	0.0798	0.6728	-0.307
Mof_H 	H 	0.277	0.0885	0.6505	0.128
Mof_C 	C 	0.2673	0.5523	0.1915	0.191
Mof_H 	H 	0.2454	0.5429	0.1817	-0.05
Mof_C 	C 	0.2868	0.5798	0.1728	-0.307
Mof_H 	H 	0.277	0.5885	0.1505	0.128
Mof_C 	C 	0.8085	0.7673	0.9477	0.192
Mof_H 	H 	0.8183	0.7454	0.9571	-0.048
Mof_C 	C 	0.8272	0.7868	0.9202	-0.306
Mof_H 	H 	0.8495	0.777	0.9115	0.129
Mof_C 	C 	0.8085	0.2673	0.4477	0.192
Mof_H 	H 	0.8183	0.2454	0.4571	-0.05
Mof_C 	C 	0.8272	0.2868	0.4202	-0.307
Mof_H 	H 	0.8495	0.277	0.4115	0.128
Mof_C 	C 	0.3085	0.7673	0.4477	0.192
Mof_H 	H 	0.3183	0.7454	0.4571	-0.05
Mof_C 	C 	0.3272	0.7868	0.4202	-0.307
Mof_H 	H 	0.3495	0.777	0.4115	0.128
Mof_C 	C 	0.3085	0.2673	0.9477	0.191
Mof_H 	H 	0.3183	0.2454	0.9571	-0.049
Mof_C 	C 	0.3272	0.2868	0.9202	-0.306
Mof_H 	H 	0.3495	0.277	0.9115	0.128
Mof_C 	C 	0.8085	0.2327	0.0523	0.191
Mof_H 	H 	0.8183	0.2546	0.0429	-0.05
Mof_C 	C 	0.8272	0.2132	0.0798	-0.307
Mof_H 	H 	0.8495	0.223	0.0885	0.128
Mof_C 	C 	0.8085	0.7327	0.5523	0.192
Mof_H 	H 	0.8183	0.7546	0.5429	-0.05
Mof_C 	C 	0.8272	0.7132	0.5798	-0.307
Mof_H 	H 	0.8495	0.723	0.5885	0.128
Mof_C 	C 	0.3085	0.2327	0.5523	0.191
Mof_H 	H 	0.3183	0.2546	0.5429	-0.05
Mof_C 	C 	0.3272	0.2132	0.5798	-0.307
Mof_H 	H 	0.3495	0.223	0.5885	0.128
Mof_C 	C 	0.3085	0.7327	0.0523	0.191
Mof_H 	H 	0.3183	0.7546	0.0429	-0.05
Mof_C 	C 	0.3272	0.7132	0.0798	-0.307
Mof_H 	H 	0.3495	0.723	0.0885	0.128
Mof_C 	C 	0.1915	0.2327	0.9477	0.191
Mof_H 	H 	0.1817	0.2546	0.9571	-0.049
Mof_C 	C 	0.1728	0.2132	0.9202	-0.306
Mof_H 	H 	0.1505	0.223	0.9115	0.128
Mof_C 	C 	0.1915	0.7327	0.4477	0.191
Mof_H 	H 	0.1817	0.7546	0.4571	-0.05
Mof_C 	C 	0.1728	0.7132	0.4202	-0.307
Mof_H 	H 	0.1505	0.723	0.4115	0.128
Mof_C 	C 	0.6915	0.2327	0.4477	0.191
Mof_H 	H 	0.6817	0.2546	0.4571	-0.05
Mof_C 	C 	0.6728	0.2132	0.4202	-0.307
Mof_H 	H 	0.6505	0.223	0.4115	0.128
Mof_C 	C 	0.6915	0.7327	0.9477	0.192
Mof_H 	H 	0.6817	0.7546	0.9571	-0.049
Mof_C 	C 	0.6728	0.7132	0.9202	-0.306
Mof_H 	H 	0.6505	0.723	0.9115	0.128
Mof_C 	C 	0.1915	0.7673	0.0523	0.191
Mof_H 	H 	0.1817	0.7454	0.0429	-0.05
Mof_C 	C 	0.1728	0.7868	0.0798	-0.307
Mof_H 	H 	0.1505	0.777	0.0885	0.128
Mof_C 	C 	0.1915	0.2673	0.5523	0.191
Mof_H 	H 	0.1817	0.2454	0.5429	-0.05
Mof_C 	C 	0.1728	0.2868	0.5798	-0.307
Mof_H 	H 	0.1505	0.277	0.5885	0.128
Mof_C 	C 	0.6915	0.7673	0.5523	0.192
Mof_H 	H 	0.6817	0.7454	0.5429	-0.05
Mof_C 	C 	0.6728	0.7868	0.5798	-0.307
Mof_H 	H 	0.6505	0.777	0.5885	0.128
Mof_C 	C 	0.6915	0.2673	0.0523	0.191
Mof_H 	H 	0.6817	0.2454	0.0429	-0.05
Mof_C 	C 	0.6728	0.2868	0.0798	-0.307
Mof_H 	H 	0.6505	0.277	0.0885	0.128
Mof_C 	C 	0.9477	0.8085	0.7673	0.192
Mof_H 	H 	0.9571	0.8183	0.7454	-0.048
Mof_C 	C 	0.9202	0.8272	0.7868	-0.306
Mof_H 	H 	0.9115	0.8495	0.777	0.129
Mof_C 	C 	0.9477	0.3085	0.2673	0.191
Mof_H 	H 	0.9571	0.3183	0.2454	-0.049
Mof_C 	C 	0.9202	0.3272	0.2868	-0.306
Mof_H 	H 	0.9115	0.3495	0.277	0.128
Mof_C 	C 	0.4477	0.8085	0.2673	0.192
Mof_H 	H 	0.4571	0.8183	0.2454	-0.05
Mof_C 	C 	0.4202	0.8272	0.2868	-0.307
Mof_H 	H 	0.4115	0.8495	0.277	0.128
Mof_C 	C 	0.4477	0.3085	0.7673	0.192
Mof_H 	H 	0.4571	0.3183	0.7454	-0.05
Mof_C 	C 	0.4202	0.3272	0.7868	-0.307
Mof_H 	H 	0.4115	0.3495	0.777	0.128
Mof_C 	C 	0.0523	0.8085	0.2327	0.191
Mof_H 	H 	0.0429	0.8183	0.2546	-0.05
Mof_C 	C 	0.0798	0.8272	0.2132	-0.307
Mof_H 	H 	0.0885	0.8495	0.223	0.128
Mof_C 	C 	0.0523	0.3085	0.7327	0.191
Mof_H 	H 	0.0429	0.3183	0.7546	-0.05
Mof_C 	C 	0.0798	0.3272	0.7132	-0.307
Mof_H 	H 	0.0885	0.3495	0.723	0.128
Mof_C 	C 	0.5523	0.8085	0.7327	0.192
Mof_H 	H 	0.5429	0.8183	0.7546	-0.05
Mof_C 	C 	0.5798	0.8272	0.7132	-0.307
Mof_H 	H 	0.5885	0.8495	0.723	0.128
Mof_C 	C 	0.5523	0.3085	0.2327	0.191
Mof_H 	H 	0.5429	0.3183	0.2546	-0.05
Mof_C 	C 	0.5798	0.3272	0.2132	-0.307
Mof_H 	H 	0.5885	0.3495	0.223	0.128
Mof_C 	C 	0.9477	0.1915	0.2327	0.191
Mof_H 	H 	0.9571	0.1817	0.2546	-0.049
Mof_C 	C 	0.9202	0.1728	0.2132	-0.306
Mof_H 	H 	0.9115	0.1505	0.223	0.128
Mof_C 	C 	0.9477	0.6915	0.7327	0.192
Mof_H 	H 	0.9571	0.6817	0.7546	-0.049
Mof_C 	C 	0.9202	0.6728	0.7132	-0.306
Mof_H 	H 	0.9115	0.6505	0.723	0.128
Mof_C 	C 	0.4477	0.1915	0.7327	0.191
Mof_H 	H 	0.4571	0.1817	0.7546	-0.05
Mof_C 	C 	0.4202	0.1728	0.7132	-0.307
Mof_H 	H 	0.4115	0.1505	0.723	0.128
Mof_C 	C 	0.4477	0.6915	0.2327	0.191
Mof_H 	H 	0.4571	0.6817	0.2546	-0.05
Mof_C 	C 	0.4202	0.6728	0.2132	-0.307
Mof_H 	H 	0.4115	0.6505	0.223	0.128
Mof_C 	C 	0.0523	0.1915	0.7673	0.191
Mof_H 	H 	0.0429	0.1817	0.7454	-0.05
Mof_C 	C 	0.0798	0.1728	0.7868	-0.307
Mof_H 	H 	0.0885	0.1505	0.777	0.128
Mof_C 	C 	0.0523	0.6915	0.2673	0.191
Mof_H 	H 	0.0429	0.6817	0.2454	-0.05
Mof_C 	C 	0.0798	0.6728	0.2868	-0.307
Mof_H 	H 	0.0885	0.6505	0.277	0.128
Mof_C 	C 	0.5523	0.1915	0.2673	0.191
Mof_H 	H 	0.5429	0.1817	0.2454	-0.05
Mof_C 	C 	0.5798	0.1728	0.2868	-0.307
Mof_H 	H 	0.5885	0.1505	0.277	0.128
Mof_C 	C 	0.5523	0.6915	0.7673	0.192
Mof_H 	H 	0.5429	0.6817	0.7454	-0.05
Mof_C 	C 	0.5798	0.6728	0.7868	-0.307
Mof_H 	H 	0.5885	0.6505	0.777	0.128
Mof_C 	C 	0.9477	0.7673	0.1915	0.191
Mof_H 	H 	0.9571	0.7454	0.1817	-0.049
Mof_C 	C 	0.9202	0.7868	0.1728	-0.306
Mof_H 	H 	0.9115	0.777	0.1505	0.128
Mof_C 	C 	0.9477	0.2673	0.6915	0.191
Mof_H 	H 	0.9571	0.2454	0.6817	-0.049
Mof_C 	C 	0.9202	0.2868	0.6728	-0.306
Mof_H 	H 	0.9115	0.277	0.6505	0.128
Mof_C 	C 	0.4477	0.7673	0.6915	0.192
Mof_H 	H 	0.4571	0.7454	0.6817	-0.05
Mof_C 	C 	0.4202	0.7868	0.6728	-0.307
Mof_H 	H 	0.4115	0.777	0.6505	0.128
Mof_C 	C 	0.4477	0.2673	0.1915	0.191
Mof_H 	H 	0.4571	0.2454	0.1817	-0.05
Mof_C 	C 	0.4202	0.2868	0.1728	-0.307
Mof_H 	H 	0.4115	0.277	0.1505	0.128
Mof_C 	C 	0.0523	0.2327	0.1915	0.191
Mof_H 	H 	0.0429	0.2546	0.1817	-0.05
Mof_C 	C 	0.0798	0.2132	0.1728	-0.307
Mof_H 	H 	0.0885	0.223	0.1505	0.128
Mof_C 	C 	0.0523	0.7327	0.6915	0.191
Mof_H 	H 	0.0429	0.7546	0.6817	-0.05
Mof_C 	C 	0.0798	0.7132	0.6728	-0.307
Mof_H 	H 	0.0885	0.723	0.6505	0.128
Mof_C 	C 	0.5523	0.2327	0.6915	0.191
Mof_H 	H 	0.5429	0.2546	0.6817	-0.05
Mof_C 	C 	0.5798	0.2132	0.6728	-0.307
Mof_H 	H 	0.5885	0.223	0.6505	0.128
Mof_C 	C 	0.5523	0.7327	0.1915	0.191
Mof_H 	H 	0.5429	0.7546	0.1817	-0.05
Mof_C 	C 	0.5798	0.7132	0.1728	-0.307
Mof_H 	H 	0.5885	0.723	0.1505	0.128
Mof_C 	C 	0.9477	0.2327	0.8085	0.192
Mof_H 	H 	0.9571	0.2546	0.8183	-0.048
Mof_C 	C 	0.9202	0.2132	0.8272	-0.306
Mof_H 	H 	0.9115	0.223	0.8495	0.129
Mof_C 	C 	0.9477	0.7327	0.3085	0.192
Mof_H 	H 	0.9571	0.7546	0.3183	-0.049
Mof_C 	C 	0.9202	0.7132	0.3272	-0.306
Mof_H 	H 	0.9115	0.723	0.3495	0.128
Mof_C 	C 	0.4477	0.2327	0.3085	0.191
Mof_H 	H 	0.4571	0.2546	0.3183	-0.05
Mof_C 	C 	0.4202	0.2132	0.3272	-0.307
Mof_H 	H 	0.4115	0.223	0.3495	0.128
Mof_C 	C 	0.4477	0.7327	0.8085	0.192
Mof_H 	H 	0.4571	0.7546	0.8183	-0.05
Mof_C 	C 	0.4202	0.7132	0.8272	-0.307
Mof_H 	H 	0.4115	0.723	0.8495	0.128
Mof_C 	C 	0.0523	0.7673	0.8085	0.191
Mof_H 	H 	0.0429	0.7454	0.8183	-0.05
Mof_C 	C 	0.0798	0.7868	0.8272	-0.307
Mof_H 	H 	0.0885	0.777	0.8495	0.128
Mof_C 	C 	0.0523	0.2673	0.3085	0.191
Mof_H 	H 	0.0429	0.2454	0.3183	-0.05
Mof_C 	C 	0.0798	0.2868	0.3272	-0.307
Mof_H 	H 	0.0885	0.277	0.3495	0.128
Mof_C 	C 	0.5523	0.7673	0.3085	0.192
Mof_H 	H 	0.5429	0.7454	0.3183	-0.05
Mof_C 	C 	0.5798	0.7868	0.3272	-0.307
Mof_H 	H 	0.5885	0.777	0.3495	0.128
Mof_C 	C 	0.5523	0.2673	0.8085	0.192
Mof_H 	H 	0.5429	0.2454	0.8183	-0.05
Mof_C 	C 	0.5798	0.2868	0.8272	-0.307
Mof_H 	H 	0.5885	0.277	0.8495	0.128
Mof_C 	C 	0.7673	0.8085	0.0523	0.191
Mof_H 	H 	0.7454	0.8183	0.0429	-0.05
Mof_C 	C 	0.7868	0.8272	0.0798	-0.307
Mof_H 	H 	0.777	0.8495	0.0885	0.128
Mof_C 	C 	0.7673	0.3085	0.5523	0.192
Mof_H 	H 	0.7454	0.3183	0.5429	-0.05
Mof_C 	C 	0.7868	0.3272	0.5798	-0.307
Mof_H 	H 	0.777	0.3495	0.5885	0.128
Mof_C 	C 	0.2673	0.8085	0.5523	0.192
Mof_H 	H 	0.2454	0.8183	0.5429	-0.05
Mof_C 	C 	0.2868	0.8272	0.5798	-0.307
Mof_H 	H 	0.277	0.8495	0.5885	0.128
Mof_C 	C 	0.2673	0.3085	0.0523	0.191
Mof_H 	H 	0.2454	0.3183	0.0429	-0.05
Mof_C 	C 	0.2868	0.3272	0.0798	-0.307
Mof_H 	H 	0.277	0.3495	0.0885	0.128
Mof_C 	C 	0.2327	0.8085	0.9477	0.192
Mof_H 	H 	0.2546	0.8183	0.9571	-0.048
Mof_C 	C 	0.2132	0.8272	0.9202	-0.306
Mof_H 	H 	0.223	0.8495	0.9115	0.129
Mof_C 	C 	0.2327	0.3085	0.4477	0.191
Mof_H 	H 	0.2546	0.3183	0.4571	-0.05
Mof_C 	C 	0.2132	0.3272	0.4202	-0.307
Mof_H 	H 	0.223	0.3495	0.4115	0.128
Mof_C 	C 	0.7327	0.8085	0.4477	0.192
Mof_H 	H 	0.7546	0.8183	0.4571	-0.05
Mof_C 	C 	0.7132	0.8272	0.4202	-0.307
Mof_H 	H 	0.723	0.8495	0.4115	0.128
Mof_C 	C 	0.7327	0.3085	0.9477	0.192
Mof_H 	H 	0.7546	0.3183	0.9571	-0.049
Mof_C 	C 	0.7132	0.3272	0.9202	-0.306
Mof_H 	H 	0.723	0.3495	0.9115	0.128
Mof_C 	C 	0.2327	0.1915	0.0523	0.191
Mof_H 	H 	0.2546	0.1817	0.0429	-0.05
Mof_C 	C 	0.2132	0.1728	0.0798	-0.307
Mof_H 	H 	0.223	0.1505	0.0885	0.128
Mof_C 	C 	0.2327	0.6915	0.5523	0.191
Mof_H 	H 	0.2546	0.6817	0.5429	-0.05
Mof_C 	C 	0.2132	0.6728	0.5798	-0.307
Mof_H 	H 	0.223	0.6505	0.5885	0.128
Mof_C 	C 	0.7327	0.1915	0.5523	0.191
Mof_H 	H 	0.7546	0.1817	0.5429	-0.05
Mof_C 	C 	0.7132	0.1728	0.5798	-0.307
Mof_H 	H 	0.723	0.1505	0.5885	0.128
Mof_C 	C 	0.7327	0.6915	0.0523	0.191
Mof_H 	H 	0.7546	0.6817	0.0429	-0.05
Mof_C 	C 	0.7132	0.6728	0.0798	-0.307
Mof_H 	H 	0.723	0.6505	0.0885	0.128
Mof_C 	C 	0.7673	0.1915	0.9477	0.191
Mof_H 	H 	0.7454	0.1817	0.9571	-0.049
Mof_C 	C 	0.7868	0.1728	0.9202	-0.306
Mof_H 	H 	0.777	0.1505	0.9115	0.128
Mof_C 	C 	0.7673	0.6915	0.4477	0.192
Mof_H 	H 	0.7454	0.6817	0.4571	-0.05
Mof_C 	C 	0.7868	0.6728	0.4202	-0.307
Mof_H 	H 	0.777	0.6505	0.4115	0.128
Mof_C 	C 	0.2673	0.1915	0.4477	0.191
Mof_H 	H 	0.2454	0.1817	0.4571	-0.05
Mof_C 	C 	0.2868	0.1728	0.4202	-0.307
Mof_H 	H 	0.277	0.1505	0.4115	0.128
Mof_C 	C 	0.2673	0.6915	0.9477	0.191
Mof_H 	H 	0.2454	0.6817	0.9571	-0.049
Mof_C 	C 	0.2868	0.6728	0.9202	-0.306
Mof_H 	H 	0.277	0.6505	0.9115	0.128
Mof_C 	C 	0.8085	0.9477	0.2327	0.192
Mof_H 	H 	0.8183	0.9571	0.2546	-0.048
Mof_C 	C 	0.8272	0.9202	0.2132	-0.306
Mof_H 	H 	0.8495	0.9115	0.223	0.129
Mof_C 	C 	0.8085	0.4477	0.7327	0.192
Mof_H 	H 	0.8183	0.4571	0.7546	-0.05
Mof_C 	C 	0.8272	0.4202	0.7132	-0.307
Mof_H 	H 	0.8495	0.4115	0.723	0.128
Mof_C 	C 	0.3085	0.9477	0.7327	0.192
Mof_H 	H 	0.3183	0.9571	0.7546	-0.049
Mof_C 	C 	0.3272	0.9202	0.7132	-0.306
Mof_H 	H 	0.3495	0.9115	0.723	0.128
Mof_C 	C 	0.3085	0.4477	0.2327	0.191
Mof_H 	H 	0.3183	0.4571	0.2546	-0.05
Mof_C 	C 	0.3272	0.4202	0.2132	-0.307
Mof_H 	H 	0.3495	0.4115	0.223	0.128
Mof_C 	C 	0.8085	0.0523	0.7673	0.191
Mof_H 	H 	0.8183	0.0429	0.7454	-0.05
Mof_C 	C 	0.8272	0.0798	0.7868	-0.307
Mof_H 	H 	0.8495	0.0885	0.777	0.128
Mof_C 	C 	0.8085	0.5523	0.2673	0.192
Mof_H 	H 	0.8183	0.5429	0.2454	-0.05
Mof_C 	C 	0.8272	0.5798	0.2868	-0.307
Mof_H 	H 	0.8495	0.5885	0.277	0.128
Mof_C 	C 	0.3085	0.0523	0.2673	0.191
Mof_H 	H 	0.3183	0.0429	0.2454	-0.05
Mof_C 	C 	0.3272	0.0798	0.2868	-0.307
Mof_H 	H 	0.3495	0.0885	0.277	0.128
Mof_C 	C 	0.3085	0.5523	0.7673	0.192
Mof_H 	H 	0.3183	0.5429	0.7454	-0.05
Mof_C 	C 	0.3272	0.5798	0.7868	-0.307
Mof_H 	H 	0.3495	0.5885	0.777	0.128
Mof_C 	C 	0.1915	0.9477	0.7673	0.191
Mof_H 	H 	0.1817	0.9571	0.7454	-0.049
Mof_C 	C 	0.1728	0.9202	0.7868	-0.306
Mof_H 	H 	0.1505	0.9115	0.777	0.128
Mof_C 	C 	0.1915	0.4477	0.2673	0.191
Mof_H 	H 	0.1817	0.4571	0.2454	-0.05
Mof_C 	C 	0.1728	0.4202	0.2868	-0.307
Mof_H 	H 	0.1505	0.4115	0.277	0.128
Mof_C 	C 	0.6915	0.9477	0.2673	0.191
Mof_H 	H 	0.6817	0.9571	0.2454	-0.049
Mof_C 	C 	0.6728	0.9202	0.2868	-0.306
Mof_H 	H 	0.6505	0.9115	0.277	0.128
Mof_C 	C 	0.6915	0.4477	0.7673	0.192
Mof_H 	H 	0.6817	0.4571	0.7454	-0.05
Mof_C 	C 	0.6728	0.4202	0.7868	-0.307
Mof_H 	H 	0.6505	0.4115	0.777	0.128
Mof_C 	C 	0.1915	0.0523	0.2327	0.191
Mof_H 	H 	0.1817	0.0429	0.2546	-0.05
Mof_C 	C 	0.1728	0.0798	0.2132	-0.307
Mof_H 	H 	0.1505	0.0885	0.223	0.128
Mof_C 	C 	0.1915	0.5523	0.7327	0.191
Mof_H 	H 	0.1817	0.5429	0.7546	-0.05
Mof_C 	C 	0.1728	0.5798	0.7132	-0.307
Mof_H 	H 	0.1505	0.5885	0.723	0.128
Mof_C 	C 	0.6915	0.0523	0.7327	0.191
Mof_H 	H 	0.6817	0.0429	0.7546	-0.05
Mof_C 	C 	0.6728	0.0798	0.7132	-0.307
Mof_H 	H 	0.6505	0.0885	0.723	0.128
Mof_C 	C 	0.6915	0.5523	0.2327	0.191
Mof_H 	H 	0.6817	0.5429	0.2546	-0.05
Mof_C 	C 	0.6728	0.5798	0.2132	-0.307
Mof_H 	H 	0.6505	0.5885	0.223	0.128
Mof_C 	C 	0.1838	0.0935	0.1838	0.29
Mof_N 	N 	0.22082	0.0405	0.22082	-0.304
Mof_N 	N 	0.1632	0.1194	0.1632	-0.177
Mof_C 	C 	0.1838	0.5935	0.6838	0.29
Mof_N 	N 	0.22082	0.5405	0.72082	-0.304
Mof_N 	N 	0.1632	0.6194	0.6632	-0.177
Mof_C 	C 	0.6838	0.0935	0.6838	0.29
Mof_N 	N 	0.72082	0.0405	0.72082	-0.304
Mof_N 	N 	0.6632	0.1194	0.6632	-0.177
Mof_C 	C 	0.6838	0.5935	0.1838	0.29
Mof_N 	N 	0.72082	0.5405	0.22082	-0.304
Mof_N 	N 	0.6632	0.6194	0.1632	-0.177
Mof_C 	C 	0.8162	0.9065	0.1838	0.291
Mof_N 	N 	0.77918	0.9595	0.22082	-0.303
Mof_N 	N 	0.8368	0.8806	0.1632	-0.177
Mof_C 	C 	0.8162	0.4065	0.6838	0.291
Mof_N 	N 	0.77918	0.4595	0.72082	-0.304
Mof_N 	N 	0.8368	0.3806	0.6632	-0.177
Mof_C 	C 	0.3162	0.9065	0.6838	0.29
Mof_N 	N 	0.27918	0.9595	0.72082	-0.303
Mof_N 	N 	0.3368	0.8806	0.6632	-0.177
Mof_C 	C 	0.3162	0.4065	0.1838	0.29
Mof_N 	N 	0.27918	0.4595	0.22082	-0.304
Mof_N 	N 	0.3368	0.3806	0.1632	-0.177
Mof_C 	C 	0.8162	0.0935	0.8162	0.291
Mof_N 	N 	0.77918	0.0405	0.77918	-0.304
Mof_N 	N 	0.8368	0.1194	0.8368	-0.177
Mof_C 	C 	0.8162	0.5935	0.3162	0.291
Mof_N 	N 	0.77918	0.5405	0.27918	-0.304
Mof_N 	N 	0.8368	0.6194	0.3368	-0.177
Mof_C 	C 	0.3162	0.0935	0.3162	0.29
Mof_N 	N 	0.27918	0.0405	0.27918	-0.304
Mof_N 	N 	0.3368	0.1194	0.3368	-0.177
Mof_C 	C 	0.3162	0.5935	0.8162	0.291
Mof_N 	N 	0.27918	0.5405	0.77918	-0.304
Mof_N 	N 	0.3368	0.6194	0.8368	-0.177
Mof_C 	C 	0.1838	0.9065	0.8162	0.291
Mof_N 	N 	0.22082	0.9595	0.77918	-0.303
Mof_N 	N 	0.1632	0.8806	0.8368	-0.177
Mof_C 	C 	0.1838	0.4065	0.3162	0.29
Mof_N 	N 	0.22082	0.4595	0.27918	-0.304
Mof_N 	N 	0.1632	0.3806	0.3368	-0.177
Mof_C 	C 	0.6838	0.9065	0.3162	0.29
Mof_N 	N 	0.72082	0.9595	0.27918	-0.303
Mof_N 	N 	0.6632	0.8806	0.3368	-0.177
Mof_C 	C 	0.6838	0.4065	0.8162	0.291
Mof_N 	N 	0.72082	0.4595	0.77918	-0.304
Mof_N 	N 	0.6632	0.3806	0.8368	-0.177
Mof_C 	C 	0.1838	0.1838	0.0935	0.29
Mof_N 	N 	0.22082	0.22082	0.0405	-0.304
Mof_N 	N 	0.1632	0.1632	0.1194	-0.177
Mof_C 	C 	0.1838	0.6838	0.5935	0.29
Mof_N 	N 	0.22082	0.72082	0.5405	-0.304
Mof_N 	N 	0.1632	0.6632	0.6194	-0.177
Mof_C 	C 	0.6838	0.1838	0.5935	0.29
Mof_N 	N 	0.72082	0.22082	0.5405	-0.304
Mof_N 	N 	0.6632	0.1632	0.6194	-0.177
Mof_C 	C 	0.6838	0.6838	0.0935	0.29
Mof_N 	N 	0.72082	0.72082	0.0405	-0.304
Mof_N 	N 	0.6632	0.6632	0.1194	-0.177
Mof_C 	C 	0.1838	0.8162	0.9065	0.291
Mof_N 	N 	0.22082	0.77918	0.9595	-0.303
Mof_N 	N 	0.1632	0.8368	0.8806	-0.177
Mof_C 	C 	0.1838	0.3162	0.4065	0.29
Mof_N 	N 	0.22082	0.27918	0.4595	-0.304
Mof_N 	N 	0.1632	0.3368	0.3806	-0.177
Mof_C 	C 	0.6838	0.8162	0.4065	0.291
Mof_N 	N 	0.72082	0.77918	0.4595	-0.304
Mof_N 	N 	0.6632	0.8368	0.3806	-0.177
Mof_C 	C 	0.6838	0.3162	0.9065	0.29
Mof_N 	N 	0.72082	0.27918	0.9595	-0.303
Mof_N 	N 	0.6632	0.3368	0.8806	-0.177
Mof_C 	C 	0.8162	0.8162	0.0935	0.291
Mof_N 	N 	0.77918	0.77918	0.0405	-0.304
Mof_N 	N 	0.8368	0.8368	0.1194	-0.177
Mof_C 	C 	0.8162	0.3162	0.5935	0.291
Mof_N 	N 	0.77918	0.27918	0.5405	-0.304
Mof_N 	N 	0.8368	0.3368	0.6194	-0.177
Mof_C 	C 	0.3162	0.8162	0.5935	0.291
Mof_N 	N 	0.27918	0.77918	0.5405	-0.304
Mof_N 	N 	0.3368	0.8368	0.6194	-0.177
Mof_C 	C 	0.3162	0.3162	0.0935	0.29
Mof_N 	N 	0.27918	0.27918	0.0405	-0.304
Mof_N 	N 	0.3368	0.3368	0.1194	-0.177
Mof_C 	C 	0.8162	0.1838	0.9065	0.291
Mof_N 	N 	0.77918	0.22082	0.9595	-0.303
Mof_N 	N 	0.8368	0.1632	0.8806	-0.177
Mof_C 	C 	0.8162	0.6838	0.4065	0.291
Mof_N 	N 	0.77918	0.72082	0.4595	-0.304
Mof_N 	N 	0.8368	0.6632	0.3806	-0.177
Mof_C 	C 	0.3162	0.1838	0.4065	0.29
Mof_N 	N 	0.27918	0.22082	0.4595	-0.304
Mof_N 	N 	0.3368	0.1632	0.3806	-0.177
Mof_C 	C 	0.3162	0.6838	0.9065	0.29
Mof_N 	N 	0.27918	0.72082	0.9595	-0.303
Mof_N 	N 	0.3368	0.6632	0.8806	-0.177
Mof_C 	C 	0.0935	0.1838	0.1838	0.29
Mof_N 	N 	0.0405	0.22082	0.22082	-0.304
Mof_N 	N 	0.1194	0.1632	0.1632	-0.177
Mof_C 	C 	0.0935	0.6838	0.6838	0.29
Mof_N 	N 	0.0405	0.72082	0.72082	-0.304
Mof_N 	N 	0.1194	0.6632	0.6632	-0.177
Mof_C 	C 	0.5935	0.1838	0.6838	0.29
Mof_N 	N 	0.5405	0.22082	0.72082	-0.304
Mof_N 	N 	0.6194	0.1632	0.6632	-0.177
Mof_C 	C 	0.5935	0.6838	0.1838	0.29
Mof_N 	N 	0.5405	0.72082	0.22082	-0.304
Mof_N 	N 	0.6194	0.6632	0.1632	-0.177
Mof_C 	C 	0.9065	0.1838	0.8162	0.291
Mof_N 	N 	0.9595	0.22082	0.77918	-0.303
Mof_N 	N 	0.8806	0.1632	0.8368	-0.177
Mof_C 	C 	0.9065	0.6838	0.3162	0.29
Mof_N 	N 	0.9595	0.72082	0.27918	-0.303
Mof_N 	N 	0.8806	0.6632	0.3368	-0.177
Mof_C 	C 	0.4065	0.1838	0.3162	0.29
Mof_N 	N 	0.4595	0.22082	0.27918	-0.304
Mof_N 	N 	0.3806	0.1632	0.3368	-0.177
Mof_C 	C 	0.4065	0.6838	0.8162	0.291
Mof_N 	N 	0.4595	0.72082	0.77918	-0.304
Mof_N 	N 	0.3806	0.6632	0.8368	-0.177
Mof_C 	C 	0.0935	0.8162	0.8162	0.291
Mof_N 	N 	0.0405	0.77918	0.77918	-0.304
Mof_N 	N 	0.1194	0.8368	0.8368	-0.177
Mof_C 	C 	0.0935	0.3162	0.3162	0.29
Mof_N 	N 	0.0405	0.27918	0.27918	-0.304
Mof_N 	N 	0.1194	0.3368	0.3368	-0.177
Mof_C 	C 	0.5935	0.8162	0.3162	0.291
Mof_N 	N 	0.5405	0.77918	0.27918	-0.304
Mof_N 	N 	0.6194	0.8368	0.3368	-0.177
Mof_C 	C 	0.5935	0.3162	0.8162	0.291
Mof_N 	N 	0.5405	0.27918	0.77918	-0.304
Mof_N 	N 	0.6194	0.3368	0.8368	-0.177
Mof_C 	C 	0.9065	0.8162	0.1838	0.291
Mof_N 	N 	0.9595	0.77918	0.22082	-0.303
Mof_N 	N 	0.8806	0.8368	0.1632	-0.177
Mof_C 	C 	0.9065	0.3162	0.6838	0.29
Mof_N 	N 	0.9595	0.27918	0.72082	-0.303
Mof_N 	N 	0.8806	0.3368	0.6632	-0.177
Mof_C 	C 	0.4065	0.8162	0.6838	0.291
Mof_N 	N 	0.4595	0.77918	0.72082	-0.304
Mof_N 	N 	0.3806	0.8368	0.6632	-0.177
Mof_C 	C 	0.4065	0.3162	0.1838	0.29
Mof_N 	N 	0.4595	0.27918	0.22082	-0.304
Mof_N 	N 	0.3806	0.3368	0.1632	-0.177
Mof_C 	C 	0.0935	0.1838	0.8162	0.29
Mof_N 	N 	0.0405	0.22082	0.77918	-0.304
Mof_N 	N 	0.1194	0.1632	0.8368	-0.177
Mof_C 	C 	0.0935	0.6838	0.3162	0.29
Mof_N 	N 	0.0405	0.72082	0.27918	-0.304
Mof_N 	N 	0.1194	0.6632	0.3368	-0.177
Mof_C 	C 	0.5935	0.1838	0.3162	0.29
Mof_N 	N 	0.5405	0.22082	0.27918	-0.304
Mof_N 	N 	0.6194	0.1632	0.3368	-0.177
Mof_C 	C 	0.5935	0.6838	0.8162	0.291
Mof_N 	N 	0.5405	0.72082	0.77918	-0.304
Mof_N 	N 	0.6194	0.6632	0.8368	-0.177
Mof_C 	C 	0.9065	0.8162	0.8162	0.291
Mof_N 	N 	0.9595	0.77918	0.77918	-0.303
Mof_N 	N 	0.8806	0.8368	0.8368	-0.177
Mof_C 	C 	0.9065	0.3162	0.3162	0.29
Mof_N 	N 	0.9595	0.27918	0.27918	-0.303
Mof_N 	N 	0.8806	0.3368	0.3368	-0.177
Mof_C 	C 	0.4065	0.8162	0.3162	0.291
Mof_N 	N 	0.4595	0.77918	0.27918	-0.304
Mof_N 	N 	0.3806	0.8368	0.3368	-0.177
Mof_C 	C 	0.4065	0.3162	0.8162	0.291
Mof_N 	N 	0.4595	0.27918	0.77918	-0.304
Mof_N 	N 	0.3806	0.3368	0.8368	-0.177
Mof_C 	C 	0.0935	0.8162	0.1838	0.29
Mof_N 	N 	0.0405	0.77918	0.22082	-0.304
Mof_N 	N 	0.1194	0.8368	0.1632	-0.177
Mof_C 	C 	0.0935	0.3162	0.6838	0.29
Mof_N 	N 	0.0405	0.27918	0.72082	-0.304
Mof_N 	N 	0.1194	0.3368	0.6632	-0.177
Mof_C 	C 	0.5935	0.8162	0.6838	0.291
Mof_N 	N 	0.5405	0.77918	0.72082	-0.304
Mof_N 	N 	0.6194	0.8368	0.6632	-0.177
Mof_C 	C 	0.5935	0.3162	0.1838	0.29
Mof_N 	N 	0.5405	0.27918	0.22082	-0.304
Mof_N 	N 	0.6194	0.3368	0.1632	-0.177
Mof_C 	C 	0.9065	0.1838	0.1838	0.29
Mof_N 	N 	0.9595	0.22082	0.22082	-0.303
Mof_N 	N 	0.8806	0.1632	0.1632	-0.177
Mof_C 	C 	0.9065	0.6838	0.6838	0.29
Mof_N 	N 	0.9595	0.72082	0.72082	-0.303
Mof_N 	N 	0.8806	0.6632	0.6632	-0.177
Mof_C 	C 	0.4065	0.1838	0.6838	0.29
Mof_N 	N 	0.4595	0.22082	0.72082	-0.304
Mof_N 	N 	0.3806	0.1632	0.6632	-0.177
Mof_C 	C 	0.4065	0.6838	0.1838	0.29
Mof_N 	N 	0.4595	0.72082	0.22082	-0.304
Mof_N 	N 	0.3806	0.6632	0.1632	-0.177
Mof_C 	C 	0.1838	0.1838	0.9065	0.29
Mof_N 	N 	0.22082	0.22082	0.9595	-0.303
Mof_N 	N 	0.1632	0.1632	0.8806	-0.177
Mof_C 	C 	0.1838	0.6838	0.4065	0.29
Mof_N 	N 	0.22082	0.72082	0.4595	-0.304
Mof_N 	N 	0.1632	0.6632	0.3806	-0.177
Mof_C 	C 	0.6838	0.1838	0.4065	0.29
Mof_N 	N 	0.72082	0.22082	0.4595	-0.304
Mof_N 	N 	0.6632	0.1632	0.3806	-0.177
Mof_C 	C 	0.6838	0.6838	0.9065	0.29
Mof_N 	N 	0.72082	0.72082	0.9595	-0.303
Mof_N 	N 	0.6632	0.6632	0.8806	-0.177
Mof_C 	C 	0.8162	0.1838	0.0935	0.29
Mof_N 	N 	0.77918	0.22082	0.0405	-0.304
Mof_N 	N 	0.8368	0.1632	0.1194	-0.177
Mof_C 	C 	0.8162	0.6838	0.5935	0.291
Mof_N 	N 	0.77918	0.72082	0.5405	-0.304
Mof_N 	N 	0.8368	0.6632	0.6194	-0.177
Mof_C 	C 	0.3162	0.1838	0.5935	0.29
Mof_N 	N 	0.27918	0.22082	0.5405	-0.304
Mof_N 	N 	0.3368	0.1632	0.6194	-0.177
Mof_C 	C 	0.3162	0.6838	0.0935	0.29
Mof_N 	N 	0.27918	0.72082	0.0405	-0.304
Mof_N 	N 	0.3368	0.6632	0.1194	-0.177
Mof_C 	C 	0.8162	0.8162	0.9065	0.291
Mof_N 	N 	0.77918	0.77918	0.9595	-0.303
Mof_N 	N 	0.8368	0.8368	0.8806	-0.177
Mof_C 	C 	0.8162	0.3162	0.4065	0.291
Mof_N 	N 	0.77918	0.27918	0.4595	-0.304
Mof_N 	N 	0.8368	0.3368	0.3806	-0.177
Mof_C 	C 	0.3162	0.8162	0.4065	0.291
Mof_N 	N 	0.27918	0.77918	0.4595	-0.304
Mof_N 	N 	0.3368	0.8368	0.3806	-0.177
Mof_C 	C 	0.3162	0.3162	0.9065	0.29
Mof_N 	N 	0.27918	0.27918	0.9595	-0.303
Mof_N 	N 	0.3368	0.3368	0.8806	-0.177
Mof_C 	C 	0.1838	0.8162	0.0935	0.29
Mof_N 	N 	0.22082	0.77918	0.0405	-0.304
Mof_N 	N 	0.1632	0.8368	0.1194	-0.177
Mof_C 	C 	0.1838	0.3162	0.5935	0.29
Mof_N 	N 	0.22082	0.27918	0.5405	-0.304
Mof_N 	N 	0.1632	0.3368	0.6194	-0.177
Mof_C 	C 	0.6838	0.8162	0.5935	0.291
Mof_N 	N 	0.72082	0.77918	0.5405	-0.304
Mof_N 	N 	0.6632	0.8368	0.6194	-0.177
Mof_C 	C 	0.6838	0.3162	0.0935	0.29
Mof_N 	N 	0.72082	0.27918	0.0405	-0.304
Mof_N 	N 	0.6632	0.3368	0.1194	-0.177
Mof_C 	C 	0.1838	0.0935	0.8162	0.29
Mof_N 	N 	0.22082	0.0405	0.77918	-0.304
Mof_N 	N 	0.1632	0.1194	0.8368	-0.177
Mof_C 	C 	0.1838	0.5935	0.3162	0.29
Mof_N 	N 	0.22082	0.5405	0.27918	-0.304
Mof_N 	N 	0.1632	0.6194	0.3368	-0.177
Mof_C 	C 	0.6838	0.0935	0.3162	0.29
Mof_N 	N 	0.72082	0.0405	0.27918	-0.304
Mof_N 	N 	0.6632	0.1194	0.3368	-0.177
Mof_C 	C 	0.6838	0.5935	0.8162	0.291
Mof_N 	N 	0.72082	0.5405	0.77918	-0.304
Mof_N 	N 	0.6632	0.6194	0.8368	-0.177
Mof_C 	C 	0.1838	0.9065	0.1838	0.29
Mof_N 	N 	0.22082	0.9595	0.22082	-0.303
Mof_N 	N 	0.1632	0.8806	0.1632	-0.177
Mof_C 	C 	0.1838	0.4065	0.6838	0.29
Mof_N 	N 	0.22082	0.4595	0.72082	-0.304
Mof_N 	N 	0.1632	0.3806	0.6632	-0.177
Mof_C 	C 	0.6838	0.9065	0.6838	0.29
Mof_N 	N 	0.72082	0.9595	0.72082	-0.303
Mof_N 	N 	0.6632	0.8806	0.6632	-0.177
Mof_C 	C 	0.6838	0.4065	0.1838	0.29
Mof_N 	N 	0.72082	0.4595	0.22082	-0.304
Mof_N 	N 	0.6632	0.3806	0.1632	-0.177
Mof_C 	C 	0.8162	0.0935	0.1838	0.29
Mof_N 	N 	0.77918	0.0405	0.22082	-0.304
Mof_N 	N 	0.8368	0.1194	0.1632	-0.177
Mof_C 	C 	0.8162	0.5935	0.6838	0.291
Mof_N 	N 	0.77918	0.5405	0.72082	-0.304
Mof_N 	N 	0.8368	0.6194	0.6632	-0.177
Mof_C 	C 	0.3162	0.0935	0.6838	0.29
Mof_N 	N 	0.27918	0.0405	0.72082	-0.304
Mof_N 	N 	0.3368	0.1194	0.6632	-0.177
Mof_C 	C 	0.3162	0.5935	0.1838	0.29
Mof_N 	N 	0.27918	0.5405	0.22082	-0.304
Mof_N 	N 	0.3368	0.6194	0.1632	-0.177
Mof_C 	C 	0.8162	0.9065	0.8162	0.291
Mof_N 	N 	0.77918	0.9595	0.77918	-0.303
Mof_N 	N 	0.8368	0.8806	0.8368	-0.177
Mof_C 	C 	0.8162	0.4065	0.3162	0.291
Mof_N 	N 	0.77918	0.4595	0.27918	-0.304
Mof_N 	N 	0.8368	0.3806	0.3368	-0.177
Mof_C 	C 	0.3162	0.9065	0.3162	0.29
Mof_N 	N 	0.27918	0.9595	0.27918	-0.303
Mof_N 	N 	0.3368	0.8806	0.3368	-0.177
Mof_C 	C 	0.3162	0.4065	0.8162	0.291
Mof_N 	N 	0.27918	0.4595	0.77918	-0.304
Mof_N 	N 	0.3368	0.3806	0.8368	-0.177
Mof_C 	C 	0.1854	0	0.3146	0.099
Mof_N 	N 	0.2086	-2.02728e-33	0.2914	-0.245
Mof_S 	S 	0.15796	0	0.34204	-0.068
Mof_C 	C 	0.1854	0.5	0.8146	0.1
Mof_N 	N 	0.2086	0.5	0.7914	-0.244
Mof_S 	S 	0.15796	0.5	0.84204	-0.064
Mof_C 	C 	0.8146	0	0.3146	0.099
Mof_N 	N 	0.7914	-2.02728e-33	0.2914	-0.245
Mof_S 	S 	0.84204	0	0.34204	-0.066
Mof_C 	C 	0.8146	0.5	0.8146	0.1
Mof_N 	N 	0.7914	0.5	0.7914	-0.244
Mof_S 	S 	0.84204	0.5	0.84204	-0.062
Mof_C 	C 	0.3146	0.5	0.3146	0.1
Mof_N 	N 	0.2914	0.5	0.2914	-0.244
Mof_S 	S 	0.34204	0.5	0.34204	-0.065
Mof_C 	C 	0.8146	0	0.6854	0.099
Mof_N 	N 	0.7914	0	0.7086	-0.245
Mof_S 	S 	0.84204	0	0.65796	-0.066
Mof_C 	C 	0.8146	0.5	0.1854	0.1
Mof_N 	N 	0.7914	0.5	0.2086	-0.244
Mof_S 	S 	0.84204	0.5	0.15796	-0.064
Mof_C 	C 	0.3146	0	0.1854	0.099
Mof_N 	N 	0.2914	-2.02728e-33	0.2086	-0.245
Mof_S 	S 	0.34204	-2.02728e-33	0.15796	-0.068
Mof_C 	C 	0.1854	0	0.6854	0.099
Mof_N 	N 	0.2086	0	0.7086	-0.245
Mof_S 	S 	0.15796	0	0.65796	-0.068
Mof_C 	C 	0.1854	0.5	0.1854	0.1
Mof_N 	N 	0.2086	0.5	0.2086	-0.244
Mof_S 	S 	0.15796	0.5	0.15796	-0.066
Mof_C 	C 	0.3146	0.1854	-0	0.099
Mof_N 	N 	0.2914	0.2086	-0	-0.245
Mof_S 	S 	0.34204	0.15796	-0	-0.068
Mof_C 	C 	0.3146	0.6854	0.5	0.1
Mof_N 	N 	0.2914	0.7086	0.5	-0.244
Mof_S 	S 	0.34204	0.65796	0.5	-0.065
Mof_C 	C 	0.3146	0.8146	-0	0.099
Mof_N 	N 	0.2914	0.7914	-0	-0.245
Mof_S 	S 	0.34204	0.84204	-0	-0.066
Mof_C 	C 	0.3146	0.3146	0.5	0.1
Mof_N 	N 	0.2914	0.2914	0.5	-0.244
Mof_S 	S 	0.34204	0.34204	0.5	-0.065
Mof_C 	C 	0.6854	0.8146	-0	0.099
Mof_N 	N 	0.7086	0.7914	-0	-0.245
Mof_S 	S 	0.65796	0.84204	-0	-0.066
Mof_C 	C 	0.6854	0.3146	0.5	0.1
Mof_N 	N 	0.7086	0.2914	0.5	-0.244
Mof_S 	S 	0.65796	0.34204	0.5	-0.065
Mof_C 	C 	0.1854	0.3146	-0	0.099
Mof_N 	N 	0.2086	0.2914	-0	-0.245
Mof_S 	S 	0.15796	0.34204	-0	-0.068
Mof_C 	C 	0.6854	0.1854	-0	0.099
Mof_N 	N 	0.7086	0.2086	-0	-0.245
Mof_S 	S 	0.65796	0.15796	-0	-0.068
Mof_C 	C 	0.6854	0.6854	0.5	0.1
Mof_N 	N 	0.7086	0.7086	0.5	-0.244
Mof_S 	S 	0.65796	0.65796	0.5	-0.065
Mof_C 	C 	0.1854	0.1854	0.5	0.1
Mof_N 	N 	0.2086	0.2086	0.5	-0.244
Mof_S 	S 	0.15796	0.15796	0.5	-0.066
Mof_C 	C 	6.95139e-34	0.3146	0.1854	0.099
Mof_N 	N 	-3.27245e-33	0.2914	0.2086	-0.245
Mof_S 	S 	-1.43503e-33	0.34204	0.15796	-0.068
Mof_C 	C 	0.5	0.3146	0.6854	0.1
Mof_N 	N 	0.5	0.2914	0.7086	-0.244
Mof_S 	S 	0.5	0.34204	0.65796	-0.065
Mof_C 	C 	-5.05488e-33	0.3146	0.8146	0.099
Mof_N 	N 	2.96727e-33	0.2914	0.7914	-0.245
Mof_S 	S 	3.15714e-33	0.34204	0.84204	-0.066
Mof_C 	C 	0.5	0.3146	0.3146	0.1
Mof_N 	N 	0.5	0.2914	0.2914	-0.244
Mof_S 	S 	0.5	0.34204	0.34204	-0.065
Mof_C 	C 	-1.3164e-32	0.6854	0.8146	0.099
Mof_N 	N 	2.96727e-33	0.7086	0.7914	-0.245
Mof_S 	S 	3.15714e-33	0.65796	0.84204	-0.066
Mof_C 	C 	-2.87501e-33	0.1854	0.3146	0.099
Mof_N 	N 	-4.98928e-33	0.2086	0.2914	-0.245
Mof_S 	S 	-2.77213e-33	0.15796	0.34204	-0.068
Mof_C 	C 	0.5	0.6854	0.3146	0.1
Mof_N 	N 	0.5	0.7086	0.2914	-0.244
Mof_S 	S 	0.5	0.65796	0.34204	-0.065
Mof_C 	C 	6.95139e-34	0.6854	0.1854	0.099
Mof_N 	N 	-7.32702e-33	0.7086	0.2086	-0.245
Mof_S 	S 	-1.43503e-33	0.65796	0.15796	-0.068
Mof_C 	C 	0.5	0.6854	0.6854	0.1
Mof_N 	N 	0.5	0.7086	0.7086	-0.244
Mof_S 	S 	0.5	0.65796	0.65796	-0.065
Mof_C 	C 	0.5	0.1854	0.1854	0.1
Mof_N 	N 	0.5	0.2086	0.2086	-0.244
Mof_S 	S 	0.5	0.15796	0.15796	-0.066
Mof_C 	C 	2.56984e-33	0.1854	0.6854	0.099
Mof_N 	N 	-5.45232e-33	0.2086	0.7086	-0.245
Mof_S 	S 	-5.64219e-33	0.15796	0.65796	-0.068
Mof_C 	C 	-5.5393e-33	0.8146	0.6854	0.099
Mof_N 	N 	1.0766e-32	0.7914	0.7086	-0.245
Mof_S 	S 	1.05761e-32	0.84204	0.65796	-0.066
Mof_C 	C 	0.5	0.8146	0.1854	0.1
Mof_N 	N 	0.5	0.7914	0.2086	-0.244
Mof_S 	S 	0.5	0.84204	0.15796	-0.064
Mof_C 	C 	-2.87501e-33	0.8146	0.3146	0.099
Mof_N 	N 	1.09258e-33	0.7914	0.2914	-0.245
Mof_S 	S 	5.33701e-33	0.84204	0.34204	-0.066
Mof_C 	C 	0.5	0.8146	0.8146	0.1
Mof_N 	N 	0.5	0.7914	0.7914	-0.244
Mof_S 	S 	0.5	0.84204	0.84204	-0.062
Mof_C 	C 	0.5	0.1854	0.8146	0.1
Mof_N 	N 	0.5	0.2086	0.7914	-0.244
Mof_S 	S 	0.5	0.15796	0.84204	-0.064
Mof_C 	C 	0.1854	0.8146	0.5	0.1
Mof_N 	N 	0.2086	0.7914	0.5	-0.244
Mof_S 	S 	0.15796	0.84204	0.5	-0.064
Mof_C 	C 	0.8146	0.3146	-0	0.099
Mof_N 	N 	0.7914	0.2914	-0	-0.245
Mof_S 	S 	0.84204	0.34204	-0	-0.066
Mof_C 	C 	0.8146	0.8146	0.5	0.1
Mof_N 	N 	0.7914	0.7914	0.5	-0.244
Mof_S 	S 	0.84204	0.84204	0.5	-0.062
Mof_C 	C 	0.8146	0.6854	-0	0.099
Mof_N 	N 	0.7914	0.7086	-0	-0.245
Mof_S 	S 	0.84204	0.65796	-0	-0.066
Mof_C 	C 	0.8146	0.1854	0.5	0.1
Mof_N 	N 	0.7914	0.2086	0.5	-0.244
Mof_S 	S 	0.84204	0.15796	0.5	-0.064
Mof_C 	C 	0.1854	0.6854	-0	0.099
Mof_N 	N 	0.2086	0.7086	-0	-0.245
Mof_S 	S 	0.15796	0.65796	-0	-0.068
Mof_C 	C 	0.3146	0	0.8146	0.099
Mof_N 	N 	0.2914	8.10914e-33	0.7914	-0.245
Mof_S 	S 	0.34204	0	0.84204	-0.066
Mof_C 	C 	0.3146	0.5	0.6854	0.1
Mof_N 	N 	0.2914	0.5	0.7086	-0.244
Mof_S 	S 	0.34204	0.5	0.65796	-0.065
Mof_C 	C 	0.6854	0	0.1854	0.099
Mof_N 	N 	0.7086	-2.02728e-33	0.2086	-0.245
Mof_S 	S 	0.65796	-2.02728e-33	0.15796	-0.068
Mof_C 	C 	0.6854	0.5	0.6854	0.1
Mof_N 	N 	0.7086	0.5	0.7086	-0.244
Mof_S 	S 	0.65796	0.5	0.65796	-0.065
Mof_C 	C 	0.6854	0	0.8146	0.099
Mof_N 	N 	0.7086	8.10914e-33	0.7914	-0.245
Mof_S 	S 	0.65796	0	0.84204	-0.066
Mof_C 	C 	0.6854	0.5	0.3146	0.1
Mof_N 	N 	0.7086	0.5	0.2914	-0.244
Mof_S 	S 	0.65796	0.5	0.34204	-0.065
Mof_Co	Co	0.25	-2.02728e-33	0.25	1.124
Mof_Co	Co	0.25	0.5	0.75	1.126
Mof_Co	Co	0.75	-2.02728e-33	0.25	1.124
Mof_Co	Co	0.75	0.5	0.75	1.126
Mof_Co	Co	0.25	0.5	0.25	1.126
Mof_Co	Co	0.75	8.10914e-33	0.75	1.124
Mof_Co	Co	0.75	0.5	0.25	1.126
Mof_Co	Co	0.25	8.10914e-33	0.75	1.124
Mof_Co	Co	0.25	0.25	-0	1.124
Mof_Co	Co	0.25	0.75	0.5	1.126
Mof_Co	Co	0.25	0.75	-0	1.124
Mof_Co	Co	0.25	0.25	0.5	1.126
Mof_Co	Co	0.75	0.75	-0	1.124
Mof_Co	Co	0.75	0.25	0.5	1.126
Mof_Co	Co	0.75	0.25	-0	1.124
Mof_Co	Co	0.75	0.75	0.5	1.126
Mof_Co	Co	-3.11722e-33	0.25	0.25	1.124
Mof_Co	Co	0.5	0.25	0.75	1.126
Mof_Co	Co	2.81205e-33	0.25	0.75	1.124
Mof_Co	Co	0.5	0.25	0.25	1.126
Mof_Co	Co	1.90303e-32	0.75	0.75	1.124
Mof_Co	Co	0.5	0.75	0.25	1.126
Mof_Co	Co	9.3735e-34	0.75	0.25	1.124
Mof_Co	Co	0.5	0.75	0.75	1.126
Mof_C 	C 	0.1799	0.132	0.132	0.086
Mof_C 	C 	0.1799	0.632	0.632	0.087
Mof_C 	C 	0.6799	0.132	0.632	0.087
Mof_C 	C 	0.6799	0.632	0.132	0.087
Mof_C 	C 	0.8201	0.868	0.132	0.088
Mof_C 	C 	0.8201	0.368	0.632	0.087
Mof_C 	C 	0.3201	0.868	0.632	0.088
Mof_C 	C 	0.3201	0.368	0.132	0.087
Mof_C 	C 	0.8201	0.132	0.868	0.088
Mof_C 	C 	0.8201	0.632	0.368	0.087
Mof_C 	C 	0.3201	0.132	0.368	0.087
Mof_C 	C 	0.3201	0.632	0.868	0.088
Mof_C 	C 	0.1799	0.868	0.868	0.088
Mof_C 	C 	0.1799	0.368	0.368	0.087
Mof_C 	C 	0.6799	0.868	0.368	0.088
Mof_C 	C 	0.6799	0.368	0.868	0.088
Mof_C 	C 	0.132	0.1799	0.132	0.086
Mof_C 	C 	0.132	0.6799	0.632	0.087
Mof_C 	C 	0.632	0.1799	0.632	0.087
Mof_C 	C 	0.632	0.6799	0.132	0.087
Mof_C 	C 	0.132	0.8201	0.868	0.088
Mof_C 	C 	0.132	0.3201	0.368	0.087
Mof_C 	C 	0.632	0.8201	0.368	0.087
Mof_C 	C 	0.632	0.3201	0.868	0.088
Mof_C 	C 	0.868	0.8201	0.132	0.088
Mof_C 	C 	0.868	0.3201	0.632	0.088
Mof_C 	C 	0.368	0.8201	0.632	0.087
Mof_C 	C 	0.368	0.3201	0.132	0.087
Mof_C 	C 	0.868	0.1799	0.868	0.088
Mof_C 	C 	0.868	0.6799	0.368	0.088
Mof_C 	C 	0.368	0.1799	0.368	0.087
Mof_C 	C 	0.368	0.6799	0.868	0.088
Mof_C 	C 	0.132	0.132	0.1799	0.086
Mof_C 	C 	0.132	0.632	0.6799	0.087
Mof_C 	C 	0.632	0.132	0.6799	0.087
Mof_C 	C 	0.632	0.632	0.1799	0.087
Mof_C 	C 	0.868	0.132	0.8201	0.088
Mof_C 	C 	0.868	0.632	0.3201	0.088
Mof_C 	C 	0.368	0.132	0.3201	0.087
Mof_C 	C 	0.368	0.632	0.8201	0.087
Mof_C 	C 	0.132	0.868	0.8201	0.088
Mof_C 	C 	0.132	0.368	0.3201	0.087
Mof_C 	C 	0.632	0.868	0.3201	0.088
Mof_C 	C 	0.632	0.368	0.8201	0.087
Mof_C 	C 	0.868	0.868	0.1799	0.088
Mof_C 	C 	0.868	0.368	0.6799	0.088
Mof_C 	C 	0.368	0.868	0.6799	0.088
Mof_C 	C 	0.368	0.368	0.1799	0.087
Mof_C 	C 	0.132	0.1799	0.868	0.087
Mof_C 	C 	0.132	0.6799	0.368	0.087
Mof_C 	C 	0.632	0.1799	0.368	0.087
Mof_C 	C 	0.632	0.6799	0.868	0.088
Mof_C 	C 	0.868	0.8201	0.868	0.088
Mof_C 	C 	0.868	0.3201	0.368	0.088
Mof_C 	C 	0.368	0.8201	0.368	0.087
Mof_C 	C 	0.368	0.3201	0.868	0.088
Mof_C 	C 	0.132	0.8201	0.132	0.087
Mof_C 	C 	0.132	0.3201	0.632	0.087
Mof_C 	C 	0.632	0.8201	0.632	0.087
Mof_C 	C 	0.632	0.3201	0.132	0.087
Mof_C 	C 	0.868	0.1799	0.132	0.087
Mof_C 	C 	0.868	0.6799	0.632	0.088
Mof_C 	C 	0.368	0.1799	0.632	0.087
Mof_C 	C 	0.368	0.6799	0.132	0.087
Mof_C 	C 	0.1799	0.132	0.868	0.087
Mof_C 	C 	0.1799	0.632	0.368	0.087
Mof_C 	C 	0.6799	0.132	0.368	0.087
Mof_C 	C 	0.6799	0.632	0.868	0.088
Mof_C 	C 	0.8201	0.132	0.132	0.087
Mof_C 	C 	0.8201	0.632	0.632	0.087
Mof_C 	C 	0.3201	0.132	0.632	0.087
Mof_C 	C 	0.3201	0.632	0.132	0.087
Mof_C 	C 	0.8201	0.868	0.868	0.088
Mof_C 	C 	0.8201	0.368	0.368	0.087
Mof_C 	C 	0.3201	0.868	0.368	0.088
Mof_C 	C 	0.3201	0.368	0.868	0.088
Mof_C 	C 	0.1799	0.868	0.132	0.087
Mof_C 	C 	0.1799	0.368	0.632	0.087
Mof_C 	C 	0.6799	0.868	0.632	0.088
Mof_C 	C 	0.6799	0.368	0.132	0.087
Mof_C 	C 	0.132	0.132	0.8201	0.087
Mof_C 	C 	0.132	0.632	0.3201	0.087
Mof_C 	C 	0.632	0.132	0.3201	0.087
Mof_C 	C 	0.632	0.632	0.8201	0.087
Mof_C 	C 	0.132	0.868	0.1799	0.087
Mof_C 	C 	0.132	0.368	0.6799	0.087
Mof_C 	C 	0.632	0.868	0.6799	0.088
Mof_C 	C 	0.632	0.368	0.1799	0.087
Mof_C 	C 	0.868	0.132	0.1799	0.087
Mof_C 	C 	0.868	0.632	0.6799	0.088
Mof_C 	C 	0.368	0.132	0.6799	0.087
Mof_C 	C 	0.368	0.632	0.1799	0.087
Mof_C 	C 	0.868	0.868	0.8201	0.088
Mof_C 	C 	0.868	0.368	0.3201	0.088
Mof_C 	C 	0.368	0.868	0.3201	0.088
Mof_C 	C 	0.368	0.368	0.8201	0.087
_end
