data_functionalizedCrystal
_audit_creation_method	'EQeq! by Chris Wilmer'
_symmetry_space_group_name_H-M	'P1'
_symmetry_Int_Tables_number	1
_symmetry_cell_setting	triclinic
loop_
_symmetry_equiv_pos_as_xyz
  x,y,z
_cell_length_a	15.1988
_cell_length_b	19.2039
_cell_length_c	25.754
_cell_angle_alpha	90
_cell_angle_beta	90
_cell_angle_gamma	90
loop_
_atom_site_label
_atom_site_type_symbol
_atom_site_fract_x
_atom_site_fract_y
_atom_site_fract_z
_atom_site_charge
Mof_Zn	Zn	0.42725	0.83813	0.23418	1.191
Mof_Zn	Zn	0.46962	0.96392	0.45162	1.215
Mof_N 	N 	0.4179	0.869	0.30883	-0.311
Mof_N 	N 	0.3582	0.83457	0.3401	-0.321
Mof_N 	N 	0.4244	0.9151	0.38732	-0.346
Mof_N 	N 	0.54	0.786	0.21873	-0.304
Mof_O 	O 	0.487	0.87905	0.49885	-0.443
Mof_O 	O 	0.5276	0.9345	0.57079	-0.458
Mof_O 	O 	0.6012	0.9611	0.43753	-0.451
Mof_O 	O 	0.6438	0.0182	0.50825	-0.463
Mof_O 	O 	0.8369	0.879	0.3171	-0.472
Mof_O 	O 	0.9543	0.9344	0.3104	-0.445
Mof_O 	O 	0.963	0.0794	0.4727	0.744
Mof_C 	C 	0.5247	0.9658	0.32	-0.898
Mof_H 	H 	0.5811	0.9434	0.322	0.275
Mof_H 	H 	0.5248	0.0066	0.3415	0.284
Mof_H 	H 	0.5129	0.9788	0.2847	0.268
Mof_C 	C 	0.4556	0.917	0.33828	0.317
Mof_C 	C 	0.3636	0.864	0.38623	0.294
Mof_C 	C 	0.3083	0.8431	0.4311	-0.847
Mof_H 	H 	0.2643	0.8106	0.4198	0.219
Mof_H 	H 	0.2802	0.8835	0.4455	0.261
Mof_H 	H 	0.3446	0.8217	0.4571	0.263
Mof_C 	C 	0.5103	0.8811	0.5458	0.274
Mof_C 	C 	0.5148	0.8126	0.574	0.232
Mof_C 	C 	0.5268	0.8118	0.6266	-0.66
Mof_H 	H 	0.5309	0.8536	0.6447	0.255
Mof_C 	C 	0.8837	0.9254	0.3316	0.293
Mof_C 	C 	0.8556	0.9667	0.3777	0.133
Mof_C 	C 	0.9172	0.0112	0.4009	-0.53
Mof_H 	H 	0.971	0.0198	0.3849	0.201
Mof_C 	C 	0.8972	0.0423	0.4477	0.787
Mof_C 	C 	0.809	0.0393	0.4656	-0.502
Mof_H 	H 	0.792	0.067	0.4935	0.191
Mof_C 	C 	0.7493	0.9971	0.4429	0.147
Mof_C 	C 	0.7735	0.9604	0.3985	-0.216
Mof_H 	H 	0.7329	0.931	0.3828	0.108
Mof_C 	C 	0.6579	0.9913	0.465	0.298
Mof_C 	C 	0.6503	0.8786	0.2031	-0.865
Mof_H 	H 	0.6011	0.9094	0.2078	0.259
Mof_H 	H 	0.6767	0.8871	0.1699	0.249
Mof_H 	H 	0.6928	0.8868	0.23	0.241
Mof_C 	C 	0.6197	0.8055	0.2058	0.291
Mof_C 	C 	0.9436	0.116	0.5232	-0.337
Mof_H 	H 	0.9289	0.0816	0.5492	0.115
Mof_H 	H 	0.8954	0.1493	0.5211	0.098
Mof_C 	C 	0.032	0.152	0.5384	-0.179
Mof_H 	H 	0.0682	0.158	0.5083	0.05
Mof_H 	H 	0.0627	0.1248	0.5638	0.07
Mof_H 	H 	0.0174	0.1966	0.5528	0.056
Mof_C 	C 	0.544	0.8163	0.7377	-0.003
Mof_H 	H 	0.4998	0.8497	0.7271	0.005
Mof_H 	H 	0.6019	0.8369	0.7327	0.012
Mof_C 	C 	0.531	0.7947	0.7953	-0.935
Mof_H 	H 	0.5581	0.8286	0.8175	0.278
Mof_H 	H 	0.469	0.7924	0.8028	0.282
Mof_H 	H 	0.9405	0.0646	0.4671	-0.921
Mof_Zn	Zn	0.07275	0.16187	0.73418	1.19
Mof_Zn	Zn	0.03038	0.03608	0.95162	1.213
Mof_N 	N 	0.0821	0.131	0.80883	-0.31
Mof_N 	N 	0.1418	0.16543	0.8401	-0.322
Mof_N 	N 	0.0756	0.0849	0.88732	-0.344
Mof_N 	N 	0.96	0.214	0.71873	-0.304
Mof_O 	O 	0.013	0.12095	0.99885	-0.448
Mof_O 	O 	0.9724	0.0655	0.07079	-0.457
Mof_O 	O 	0.8988	0.0389	0.93753	-0.448
Mof_O 	O 	0.8562	0.9818	0.00825	-0.468
Mof_O 	O 	0.6631	0.121	0.8171	-0.47
Mof_O 	O 	0.5457	0.0656	0.8104	-0.441
Mof_O 	O 	0.537	0.9206	0.9727	0.735
Mof_C 	C 	0.9753	0.0342	0.82	-0.851
Mof_H 	H 	0.9189	0.0566	0.822	0.262
Mof_H 	H 	0.9752	0.9934	0.8415	0.265
Mof_H 	H 	0.9871	0.0212	0.7847	0.257
Mof_C 	C 	0.0444	0.083	0.83828	0.3
Mof_C 	C 	0.1364	0.136	0.88623	0.294
Mof_C 	C 	0.1917	0.1569	0.9311	-0.845
Mof_H 	H 	0.2357	0.1894	0.9198	0.218
Mof_H 	H 	0.2198	0.1165	0.9455	0.26
Mof_H 	H 	0.1554	0.1783	0.9571	0.262
Mof_C 	C 	0.9897	0.1189	0.0458	0.281
Mof_C 	C 	0.9852	0.1874	0.074	0.226
Mof_C 	C 	0.9732	0.1882	0.1266	-0.651
Mof_H 	H 	0.9691	0.1464	0.1447	0.254
Mof_C 	C 	0.6163	0.0746	0.8316	0.288
Mof_C 	C 	0.6444	0.0333	0.8777	0.147
Mof_C 	C 	0.5828	0.9888	0.9009	-0.545
Mof_H 	H 	0.529	0.9802	0.8849	0.205
Mof_C 	C 	0.6028	0.9577	0.9477	0.793
Mof_C 	C 	0.691	0.9607	0.9656	-0.517
Mof_H 	H 	0.708	0.933	0.9935	0.196
Mof_C 	C 	0.7507	0.0029	0.9429	0.161
Mof_C 	C 	0.7265	0.0396	0.8985	-0.226
Mof_H 	H 	0.7671	0.069	0.8828	0.112
Mof_C 	C 	0.8421	0.0087	0.965	0.302
Mof_C 	C 	0.8497	0.1214	0.7031	-0.869
Mof_H 	H 	0.8989	0.0906	0.7078	0.262
Mof_H 	H 	0.8233	0.1129	0.6699	0.251
Mof_H 	H 	0.8072	0.1132	0.73	0.243
Mof_C 	C 	0.8803	0.1945	0.7058	0.293
Mof_C 	C 	0.5564	0.884	0.0232	-0.338
Mof_H 	H 	0.5711	0.9184	0.0492	0.115
Mof_H 	H 	0.6046	0.8507	0.0211	0.098
Mof_C 	C 	0.468	0.848	0.0384	-0.173
Mof_H 	H 	0.4318	0.842	0.0083	0.05
Mof_H 	H 	0.4373	0.8752	0.0638	0.07
Mof_H 	H 	0.4826	0.8034	0.0528	0.055
Mof_C 	C 	0.956	0.1837	0.2377	-0.011
Mof_H 	H 	0.0002	0.1503	0.2271	0.005
Mof_H 	H 	0.8981	0.1631	0.2327	0.016
Mof_C 	C 	0.969	0.2053	0.2953	-0.897
Mof_H 	H 	0.9419	0.1714	0.3175	0.268
Mof_H 	H 	0.031	0.2076	0.3028	0.269
Mof_H 	H 	0.5595	0.9354	0.9671	-0.915
Mof_Zn	Zn	0.57275	0.33813	0.76582	1.19
Mof_Zn	Zn	0.53038	0.46392	0.54838	1.214
Mof_N 	N 	0.5821	0.369	0.69117	-0.312
Mof_N 	N 	0.6418	0.33457	0.6599	-0.322
Mof_N 	N 	0.5756	0.4151	0.61268	-0.346
Mof_N 	N 	0.46	0.286	0.78127	-0.305
Mof_O 	O 	0.513	0.37905	0.50115	-0.443
Mof_O 	O 	0.4724	0.4345	0.42921	-0.458
Mof_O 	O 	0.3988	0.4611	0.56247	-0.45
Mof_O 	O 	0.3562	0.5182	0.49175	-0.464
Mof_O 	O 	0.1631	0.379	0.6829	-0.471
Mof_O 	O 	0.0457	0.4344	0.6896	-0.442
Mof_O 	O 	0.037	0.5794	0.5273	0.738
Mof_C 	C 	0.4753	0.4658	0.68	-0.897
Mof_H 	H 	0.4189	0.4434	0.678	0.275
Mof_H 	H 	0.4752	0.5066	0.6585	0.283
Mof_H 	H 	0.4871	0.4788	0.7153	0.268
Mof_C 	C 	0.5444	0.417	0.66172	0.316
Mof_C 	C 	0.6364	0.364	0.61377	0.294
Mof_C 	C 	0.6917	0.3431	0.5689	-0.846
Mof_H 	H 	0.7357	0.3106	0.5802	0.218
Mof_H 	H 	0.7198	0.3835	0.5545	0.261
Mof_H 	H 	0.6554	0.3217	0.5429	0.263
Mof_C 	C 	0.4897	0.3811	0.4542	0.274
Mof_C 	C 	0.4852	0.3126	0.426	0.232
Mof_C 	C 	0.4732	0.3118	0.3734	-0.66
Mof_H 	H 	0.4691	0.3536	0.3553	0.255
Mof_C 	C 	0.1163	0.4254	0.6684	0.29
Mof_C 	C 	0.1444	0.4667	0.6223	0.143
Mof_C 	C 	0.0828	0.5112	0.5991	-0.54
Mof_H 	H 	0.029	0.5198	0.6151	0.203
Mof_C 	C 	0.1028	0.5423	0.5523	0.791
Mof_C 	C 	0.191	0.5393	0.5344	-0.51
Mof_H 	H 	0.208	0.567	0.5065	0.194
Mof_C 	C 	0.2507	0.4971	0.5571	0.155
Mof_C 	C 	0.2265	0.4604	0.6015	-0.222
Mof_H 	H 	0.2671	0.431	0.6172	0.111
Mof_C 	C 	0.3421	0.4913	0.535	0.298
Mof_C 	C 	0.3497	0.3786	0.7969	-0.865
Mof_H 	H 	0.3989	0.4094	0.7922	0.26
Mof_H 	H 	0.3233	0.3871	0.8301	0.249
Mof_H 	H 	0.3072	0.3868	0.77	0.242
Mof_C 	C 	0.3803	0.3055	0.7942	0.291
Mof_C 	C 	0.0564	0.616	0.4768	-0.338
Mof_H 	H 	0.0711	0.5816	0.4508	0.115
Mof_H 	H 	0.1046	0.6493	0.4789	0.098
Mof_C 	C 	0.968	0.652	0.4616	-0.174
Mof_H 	H 	0.9318	0.658	0.4917	0.049
Mof_H 	H 	0.9373	0.6248	0.4362	0.07
Mof_H 	H 	0.9826	0.6966	0.4472	0.054
Mof_C 	C 	0.456	0.3163	0.2623	-0.003
Mof_H 	H 	0.5002	0.3497	0.2729	0.005
Mof_H 	H 	0.3981	0.3369	0.2673	0.013
Mof_C 	C 	0.469	0.2947	0.2047	-0.935
Mof_H 	H 	0.4419	0.3286	0.1825	0.278
Mof_H 	H 	0.531	0.2924	0.1972	0.282
Mof_H 	H 	0.0595	0.5646	0.5329	-0.917
Mof_Zn	Zn	0.92725	0.66187	0.26582	1.19
Mof_Zn	Zn	0.96962	0.53608	0.04838	1.214
Mof_N 	N 	0.9179	0.631	0.19117	-0.312
Mof_N 	N 	0.8582	0.66543	0.1599	-0.322
Mof_N 	N 	0.9244	0.5849	0.11268	-0.346
Mof_N 	N 	0.04	0.714	0.28127	-0.304
Mof_O 	O 	0.987	0.62095	0.00115	-0.445
Mof_O 	O 	0.0276	0.5655	0.92921	-0.459
Mof_O 	O 	0.1012	0.5389	0.06247	-0.45
Mof_O 	O 	0.1438	0.4818	0.99175	-0.464
Mof_O 	O 	0.3369	0.621	0.1829	-0.47
Mof_O 	O 	0.4543	0.5656	0.1896	-0.441
Mof_O 	O 	0.463	0.4206	0.0273	0.739
Mof_C 	C 	0.0247	0.5342	0.18	-0.893
Mof_H 	H 	0.0811	0.5566	0.178	0.274
Mof_H 	H 	0.0248	0.4934	0.1585	0.282
Mof_H 	H 	0.0129	0.5212	0.2153	0.267
Mof_C 	C 	0.9556	0.583	0.16172	0.315
Mof_C 	C 	0.8636	0.636	0.11377	0.294
Mof_C 	C 	0.8083	0.6569	0.0689	-0.845
Mof_H 	H 	0.7643	0.6894	0.0802	0.218
Mof_H 	H 	0.7802	0.6165	0.0545	0.26
Mof_H 	H 	0.8446	0.6783	0.0429	0.262
Mof_C 	C 	0.0103	0.6189	0.9542	0.278
Mof_C 	C 	0.0148	0.6874	0.926	0.226
Mof_C 	C 	0.0268	0.6882	0.8734	-0.651
Mof_H 	H 	0.0309	0.6464	0.8553	0.253
Mof_C 	C 	0.3837	0.5746	0.1684	0.29
Mof_C 	C 	0.3556	0.5333	0.1223	0.143
Mof_C 	C 	0.4172	0.4888	0.0991	-0.54
Mof_H 	H 	0.471	0.4802	0.1151	0.203
Mof_C 	C 	0.3972	0.4577	0.0523	0.791
Mof_C 	C 	0.309	0.4607	0.0344	-0.511
Mof_H 	H 	0.292	0.433	0.0065	0.194
Mof_C 	C 	0.2493	0.5029	0.0571	0.155
Mof_C 	C 	0.2735	0.5396	0.1015	-0.223
Mof_H 	H 	0.2329	0.569	0.1172	0.111
Mof_C 	C 	0.1579	0.5087	0.035	0.298
Mof_C 	C 	0.1503	0.6214	0.2969	-0.866
Mof_H 	H 	0.1011	0.5906	0.2922	0.26
Mof_H 	H 	0.1767	0.6129	0.3301	0.25
Mof_H 	H 	0.1928	0.6132	0.27	0.242
Mof_C 	C 	0.1197	0.6945	0.2942	0.291
Mof_C 	C 	0.4436	0.384	0.9768	-0.341
Mof_H 	H 	0.4289	0.4184	0.9508	0.115
Mof_H 	H 	0.3954	0.3507	0.9789	0.099
Mof_C 	C 	0.532	0.348	0.9616	-0.17
Mof_H 	H 	0.5682	0.342	0.9917	0.048
Mof_H 	H 	0.5627	0.3752	0.9362	0.069
Mof_H 	H 	0.5174	0.3034	0.9472	0.054
Mof_C 	C 	0.044	0.6837	0.7623	-0.015
Mof_H 	H 	0.9998	0.6503	0.7729	0.007
Mof_H 	H 	0.1019	0.6631	0.7673	0.016
Mof_C 	C 	0.031	0.7053	0.7047	-0.897
Mof_H 	H 	0.0581	0.6714	0.6825	0.267
Mof_H 	H 	0.969	0.7076	0.6972	0.27
Mof_H 	H 	0.4405	0.4354	0.0329	-0.917
Mof_Zn	Zn	0.57275	0.16187	0.76582	1.19
Mof_Zn	Zn	0.53038	0.03608	0.54838	1.214
Mof_N 	N 	0.5821	0.131	0.69117	-0.312
Mof_N 	N 	0.6418	0.16543	0.6599	-0.322
Mof_N 	N 	0.5756	0.0849	0.61268	-0.347
Mof_N 	N 	0.46	0.214	0.78127	-0.305
Mof_O 	O 	0.513	0.12095	0.50115	-0.443
Mof_O 	O 	0.4724	0.0655	0.42921	-0.458
Mof_O 	O 	0.3988	0.0389	0.56247	-0.451
Mof_O 	O 	0.3562	0.9818	0.49175	-0.463
Mof_O 	O 	0.1631	0.121	0.6829	-0.472
Mof_O 	O 	0.0457	0.0656	0.6896	-0.445
Mof_O 	O 	0.037	0.9206	0.5273	0.744
Mof_C 	C 	0.4753	0.0342	0.68	-0.898
Mof_H 	H 	0.4189	0.0566	0.678	0.275
Mof_H 	H 	0.4752	0.9934	0.6585	0.284
Mof_H 	H 	0.4871	0.0212	0.7153	0.268
Mof_C 	C 	0.5444	0.083	0.66172	0.317
Mof_C 	C 	0.6364	0.136	0.61377	0.294
Mof_C 	C 	0.6917	0.1569	0.5689	-0.847
Mof_H 	H 	0.7357	0.1894	0.5802	0.219
Mof_H 	H 	0.7198	0.1165	0.5545	0.261
Mof_H 	H 	0.6554	0.1783	0.5429	0.263
Mof_C 	C 	0.4897	0.1189	0.4542	0.274
Mof_C 	C 	0.4852	0.1874	0.426	0.232
Mof_C 	C 	0.4732	0.1882	0.3734	-0.66
Mof_H 	H 	0.4691	0.1464	0.3553	0.255
Mof_C 	C 	0.1163	0.0746	0.6684	0.293
Mof_C 	C 	0.1444	0.0333	0.6223	0.133
Mof_C 	C 	0.0828	0.9888	0.5991	-0.53
Mof_H 	H 	0.029	0.9802	0.6151	0.201
Mof_C 	C 	0.1028	0.9577	0.5523	0.787
Mof_C 	C 	0.191	0.9607	0.5344	-0.502
Mof_H 	H 	0.208	0.933	0.5065	0.191
Mof_C 	C 	0.2507	0.0029	0.5571	0.147
Mof_C 	C 	0.2265	0.0396	0.6015	-0.216
Mof_H 	H 	0.2671	0.069	0.6172	0.108
Mof_C 	C 	0.3421	0.0087	0.535	0.298
Mof_C 	C 	0.3497	0.1214	0.7969	-0.865
Mof_H 	H 	0.3989	0.0906	0.7922	0.259
Mof_H 	H 	0.3233	0.1129	0.8301	0.249
Mof_H 	H 	0.3072	0.1132	0.77	0.241
Mof_C 	C 	0.3803	0.1945	0.7942	0.291
Mof_C 	C 	0.0564	0.884	0.4768	-0.337
Mof_H 	H 	0.0711	0.9184	0.4508	0.115
Mof_H 	H 	0.1046	0.8507	0.4789	0.098
Mof_C 	C 	0.968	0.848	0.4616	-0.179
Mof_H 	H 	0.9318	0.842	0.4917	0.05
Mof_H 	H 	0.9373	0.8752	0.4362	0.07
Mof_H 	H 	0.9826	0.8034	0.4472	0.056
Mof_C 	C 	0.456	0.1837	0.2623	-0.003
Mof_H 	H 	0.5002	0.1503	0.2729	0.005
Mof_H 	H 	0.3981	0.1631	0.2673	0.012
Mof_C 	C 	0.469	0.2053	0.2047	-0.935
Mof_H 	H 	0.4419	0.1714	0.1825	0.278
Mof_H 	H 	0.531	0.2076	0.1972	0.282
Mof_H 	H 	0.0595	0.9354	0.5329	-0.921
Mof_Zn	Zn	0.92725	0.83813	0.26582	1.19
Mof_Zn	Zn	0.96962	0.96392	0.04838	1.213
Mof_N 	N 	0.9179	0.869	0.19117	-0.31
Mof_N 	N 	0.8582	0.83457	0.1599	-0.322
Mof_N 	N 	0.9244	0.9151	0.11268	-0.344
Mof_N 	N 	0.04	0.786	0.28127	-0.304
Mof_O 	O 	0.987	0.87905	0.00115	-0.448
Mof_O 	O 	0.0276	0.9345	0.92921	-0.457
Mof_O 	O 	0.1012	0.9611	0.06247	-0.448
Mof_O 	O 	0.1438	0.0182	0.99175	-0.468
Mof_O 	O 	0.3369	0.879	0.1829	-0.47
Mof_O 	O 	0.4543	0.9344	0.1896	-0.441
Mof_O 	O 	0.463	0.0794	0.0273	0.735
Mof_C 	C 	0.0247	0.9658	0.18	-0.851
Mof_H 	H 	0.0811	0.9434	0.178	0.262
Mof_H 	H 	0.0248	0.0066	0.1585	0.265
Mof_H 	H 	0.0129	0.9788	0.2153	0.257
Mof_C 	C 	0.9556	0.917	0.16172	0.3
Mof_C 	C 	0.8636	0.864	0.11377	0.294
Mof_C 	C 	0.8083	0.8431	0.0689	-0.845
Mof_H 	H 	0.7643	0.8106	0.0802	0.218
Mof_H 	H 	0.7802	0.8835	0.0545	0.26
Mof_H 	H 	0.8446	0.8217	0.0429	0.262
Mof_C 	C 	0.0103	0.8811	0.9542	0.281
Mof_C 	C 	0.0148	0.8126	0.926	0.226
Mof_C 	C 	0.0268	0.8118	0.8734	-0.651
Mof_H 	H 	0.0309	0.8536	0.8553	0.254
Mof_C 	C 	0.3837	0.9254	0.1684	0.288
Mof_C 	C 	0.3556	0.9667	0.1223	0.147
Mof_C 	C 	0.4172	0.0112	0.0991	-0.545
Mof_H 	H 	0.471	0.0198	0.1151	0.205
Mof_C 	C 	0.3972	0.0423	0.0523	0.793
Mof_C 	C 	0.309	0.0393	0.0344	-0.517
Mof_H 	H 	0.292	0.067	0.0065	0.196
Mof_C 	C 	0.2493	0.9971	0.0571	0.161
Mof_C 	C 	0.2735	0.9604	0.1015	-0.226
Mof_H 	H 	0.2329	0.931	0.1172	0.112
Mof_C 	C 	0.1579	0.9913	0.035	0.302
Mof_C 	C 	0.1503	0.8786	0.2969	-0.869
Mof_H 	H 	0.1011	0.9094	0.2922	0.262
Mof_H 	H 	0.1767	0.8871	0.3301	0.251
Mof_H 	H 	0.1928	0.8868	0.27	0.243
Mof_C 	C 	0.1197	0.8055	0.2942	0.293
Mof_C 	C 	0.4436	0.116	0.9768	-0.338
Mof_H 	H 	0.4289	0.0816	0.9508	0.115
Mof_H 	H 	0.3954	0.1493	0.9789	0.098
Mof_C 	C 	0.532	0.152	0.9616	-0.173
Mof_H 	H 	0.5682	0.158	0.9917	0.05
Mof_H 	H 	0.5627	0.1248	0.9362	0.07
Mof_H 	H 	0.5174	0.1966	0.9472	0.055
Mof_C 	C 	0.044	0.8163	0.7623	-0.011
Mof_H 	H 	0.9998	0.8497	0.7729	0.005
Mof_H 	H 	0.1019	0.8369	0.7673	0.016
Mof_C 	C 	0.031	0.7947	0.7047	-0.897
Mof_H 	H 	0.0581	0.8286	0.6825	0.268
Mof_H 	H 	0.969	0.7924	0.6972	0.269
Mof_H 	H 	0.4405	0.0646	0.0329	-0.915
Mof_Zn	Zn	0.42725	0.66187	0.23418	1.19
Mof_Zn	Zn	0.46962	0.53608	0.45162	1.214
Mof_N 	N 	0.4179	0.631	0.30883	-0.312
Mof_N 	N 	0.3582	0.66543	0.3401	-0.322
Mof_N 	N 	0.4244	0.5849	0.38732	-0.346
Mof_N 	N 	0.54	0.714	0.21873	-0.305
Mof_O 	O 	0.487	0.62095	0.49885	-0.443
Mof_O 	O 	0.5276	0.5655	0.57079	-0.458
Mof_O 	O 	0.6012	0.5389	0.43753	-0.45
Mof_O 	O 	0.6438	0.4818	0.50825	-0.464
Mof_O 	O 	0.8369	0.621	0.3171	-0.471
Mof_O 	O 	0.9543	0.5656	0.3104	-0.442
Mof_O 	O 	0.963	0.4206	0.4727	0.738
Mof_C 	C 	0.5247	0.5342	0.32	-0.897
Mof_H 	H 	0.5811	0.5566	0.322	0.275
Mof_H 	H 	0.5248	0.4934	0.3415	0.283
Mof_H 	H 	0.5129	0.5212	0.2847	0.268
Mof_C 	C 	0.4556	0.583	0.33828	0.316
Mof_C 	C 	0.3636	0.636	0.38623	0.294
Mof_C 	C 	0.3083	0.6569	0.4311	-0.846
Mof_H 	H 	0.2643	0.6894	0.4198	0.218
Mof_H 	H 	0.2802	0.6165	0.4455	0.261
Mof_H 	H 	0.3446	0.6783	0.4571	0.263
Mof_C 	C 	0.5103	0.6189	0.5458	0.274
Mof_C 	C 	0.5148	0.6874	0.574	0.232
Mof_C 	C 	0.5268	0.6882	0.6266	-0.66
Mof_H 	H 	0.5309	0.6464	0.6447	0.255
Mof_C 	C 	0.8837	0.5746	0.3316	0.29
Mof_C 	C 	0.8556	0.5333	0.3777	0.143
Mof_C 	C 	0.9172	0.4888	0.4009	-0.54
Mof_H 	H 	0.971	0.4802	0.3849	0.203
Mof_C 	C 	0.8972	0.4577	0.4477	0.791
Mof_C 	C 	0.809	0.4607	0.4656	-0.51
Mof_H 	H 	0.792	0.433	0.4935	0.194
Mof_C 	C 	0.7493	0.5029	0.4429	0.155
Mof_C 	C 	0.7735	0.5396	0.3985	-0.222
Mof_H 	H 	0.7329	0.569	0.3828	0.111
Mof_C 	C 	0.6579	0.5087	0.465	0.298
Mof_C 	C 	0.6503	0.6214	0.2031	-0.865
Mof_H 	H 	0.6011	0.5906	0.2078	0.26
Mof_H 	H 	0.6767	0.6129	0.1699	0.249
Mof_H 	H 	0.6928	0.6132	0.23	0.242
Mof_C 	C 	0.6197	0.6945	0.2058	0.291
Mof_C 	C 	0.9436	0.384	0.5232	-0.338
Mof_H 	H 	0.9289	0.4184	0.5492	0.115
Mof_H 	H 	0.8954	0.3507	0.5211	0.098
Mof_C 	C 	0.032	0.348	0.5384	-0.174
Mof_H 	H 	0.0682	0.342	0.5083	0.049
Mof_H 	H 	0.0627	0.3752	0.5638	0.07
Mof_H 	H 	0.0174	0.3034	0.5528	0.054
Mof_C 	C 	0.544	0.6837	0.7377	-0.003
Mof_H 	H 	0.4998	0.6503	0.7271	0.005
Mof_H 	H 	0.6019	0.6631	0.7327	0.013
Mof_C 	C 	0.531	0.7053	0.7953	-0.935
Mof_H 	H 	0.5581	0.6714	0.8175	0.278
Mof_H 	H 	0.469	0.7076	0.8028	0.282
Mof_H 	H 	0.9405	0.4354	0.4671	-0.917
Mof_Zn	Zn	0.07275	0.33813	0.73418	1.19
Mof_Zn	Zn	0.03038	0.46392	0.95162	1.214
Mof_N 	N 	0.0821	0.369	0.80883	-0.312
Mof_N 	N 	0.1418	0.33457	0.8401	-0.322
Mof_N 	N 	0.0756	0.4151	0.88732	-0.346
Mof_N 	N 	0.96	0.286	0.71873	-0.304
Mof_O 	O 	0.013	0.37905	0.99885	-0.445
Mof_O 	O 	0.9724	0.4345	0.07079	-0.459
Mof_O 	O 	0.8988	0.4611	0.93753	-0.45
Mof_O 	O 	0.8562	0.5182	0.00825	-0.464
Mof_O 	O 	0.6631	0.379	0.8171	-0.47
Mof_O 	O 	0.5457	0.4344	0.8104	-0.441
Mof_O 	O 	0.537	0.5794	0.9727	0.739
Mof_C 	C 	0.9753	0.4658	0.82	-0.893
Mof_H 	H 	0.9189	0.4434	0.822	0.274
Mof_H 	H 	0.9752	0.5066	0.8415	0.282
Mof_H 	H 	0.9871	0.4788	0.7847	0.267
Mof_C 	C 	0.0444	0.417	0.83828	0.315
Mof_C 	C 	0.1364	0.364	0.88623	0.294
Mof_C 	C 	0.1917	0.3431	0.9311	-0.845
Mof_H 	H 	0.2357	0.3106	0.9198	0.218
Mof_H 	H 	0.2198	0.3835	0.9455	0.26
Mof_H 	H 	0.1554	0.3217	0.9571	0.262
Mof_C 	C 	0.9897	0.3811	0.0458	0.278
Mof_C 	C 	0.9852	0.3126	0.074	0.226
Mof_C 	C 	0.9732	0.3118	0.1266	-0.651
Mof_H 	H 	0.9691	0.3536	0.1447	0.253
Mof_C 	C 	0.6163	0.4254	0.8316	0.29
Mof_C 	C 	0.6444	0.4667	0.8777	0.143
Mof_C 	C 	0.5828	0.5112	0.9009	-0.54
Mof_H 	H 	0.529	0.5198	0.8849	0.203
Mof_C 	C 	0.6028	0.5423	0.9477	0.791
Mof_C 	C 	0.691	0.5393	0.9656	-0.511
Mof_H 	H 	0.708	0.567	0.9935	0.194
Mof_C 	C 	0.7507	0.4971	0.9429	0.155
Mof_C 	C 	0.7265	0.4604	0.8985	-0.223
Mof_H 	H 	0.7671	0.431	0.8828	0.111
Mof_C 	C 	0.8421	0.4913	0.965	0.298
Mof_C 	C 	0.8497	0.3786	0.7031	-0.866
Mof_H 	H 	0.8989	0.4094	0.7078	0.26
Mof_H 	H 	0.8233	0.3871	0.6699	0.25
Mof_H 	H 	0.8072	0.3868	0.73	0.242
Mof_C 	C 	0.8803	0.3055	0.7058	0.291
Mof_C 	C 	0.5564	0.616	0.0232	-0.341
Mof_H 	H 	0.5711	0.5816	0.0492	0.115
Mof_H 	H 	0.6046	0.6493	0.0211	0.099
Mof_C 	C 	0.468	0.652	0.0384	-0.17
Mof_H 	H 	0.4318	0.658	0.0083	0.048
Mof_H 	H 	0.4373	0.6248	0.0638	0.069
Mof_H 	H 	0.4826	0.6966	0.0528	0.054
Mof_C 	C 	0.956	0.3163	0.2377	-0.015
Mof_H 	H 	0.0002	0.3497	0.2271	0.007
Mof_H 	H 	0.8981	0.3369	0.2327	0.016
Mof_C 	C 	0.969	0.2947	0.2953	-0.897
Mof_H 	H 	0.9419	0.3286	0.3175	0.267
Mof_H 	H 	0.031	0.2924	0.3028	0.27
Mof_H 	H 	0.5595	0.5646	0.9671	-0.917
Mof_Zn	Zn	0.29969	0.75	0.31236	1.17
Mof_N 	N 	0.6717	0.75	0.1965	-0.397
Mof_O 	O 	0.3547	0.75	0.2428	-0.897
Mof_H 	H 	0.3058	0.75	0.2244	0.238
Mof_O 	O 	0.5358	0.75	0.7067	0.706
Mof_C 	C 	0.533	0.75	0.6528	0.954
Mof_C 	C 	0.5069	0.75	0.5474	-0.295
Mof_H 	H 	0.4963	0.75	0.5119	0.136
Mof_H 	H 	0.5413	0.75	0.6885	-0.943
Mof_H 	H 	0.5571	0.75	0.8011	0.627
Mof_Zn	Zn	0.20031	0.25	0.81236	1.17
Mof_N 	N 	0.8283	0.25	0.6965	-0.397
Mof_O 	O 	0.1453	0.25	0.7428	-0.898
Mof_H 	H 	0.1942	0.25	0.7244	0.237
Mof_O 	O 	0.9642	0.25	0.2067	0.703
Mof_C 	C 	0.967	0.25	0.1528	0.945
Mof_C 	C 	0.9931	0.25	0.0474	-0.284
Mof_H 	H 	0.0037	0.25	0.0119	0.131
Mof_H 	H 	0.9587	0.25	0.1885	-0.936
Mof_H 	H 	0.9429	0.25	0.3011	0.603
Mof_Zn	Zn	0.70031	0.25	0.68764	1.17
Mof_N 	N 	0.3283	0.25	0.8035	-0.397
Mof_O 	O 	0.6453	0.25	0.7572	-0.897
Mof_H 	H 	0.6942	0.25	0.7756	0.238
Mof_O 	O 	0.4642	0.25	0.2933	0.706
Mof_C 	C 	0.467	0.25	0.3472	0.954
Mof_C 	C 	0.4931	0.25	0.4526	-0.295
Mof_H 	H 	0.5037	0.25	0.4881	0.136
Mof_H 	H 	0.4587	0.25	0.3115	-0.943
Mof_H 	H 	0.4429	0.25	0.1989	0.627
Mof_Zn	Zn	0.79969	0.75	0.18764	1.17
Mof_N 	N 	0.1717	0.75	0.3035	-0.397
Mof_O 	O 	0.8547	0.75	0.2572	-0.898
Mof_H 	H 	0.8058	0.75	0.2756	0.237
Mof_O 	O 	0.0358	0.75	0.7933	0.703
Mof_C 	C 	0.033	0.75	0.8472	0.945
Mof_C 	C 	0.0069	0.75	0.9526	-0.284
Mof_H 	H 	0.9963	0.75	0.9881	0.131
Mof_H 	H 	0.0413	0.75	0.8115	-0.936
Mof_H 	H 	0.0571	0.75	0.6989	0.603
_end
