data_functionalizedCrystal
_audit_creation_method	'EQeq! by Chris Wilmer'
_symmetry_space_group_name_H-M	'P1'
_symmetry_Int_Tables_number	1
_symmetry_cell_setting	triclinic
loop_
_symmetry_equiv_pos_as_xyz
  x,y,z
_cell_length_a	15.141
_cell_length_b	15.141
_cell_length_c	9.3313
_cell_angle_alpha	90
_cell_angle_beta	90
_cell_angle_gamma	120
loop_
_atom_site_label
_atom_site_type_symbol
_atom_site_fract_x
_atom_site_fract_y
_atom_site_fract_z
_atom_site_charge
Mof_Co	Co	0.47894	0.36502	0.29865	1.172
Mof_P 	P 	0.49458	0.30724	0.6283	0.452
Mof_H 	H 	0.4314	0.344	0.628	-0.033
Mof_O 	O 	0.5354	0.3214	0.4752	-0.504
Mof_O 	O 	0.5789	0.3715	0.7349	-0.518
Mof_O 	O 	0.4321	0.1962	0.6728	-0.382
Mof_O 	O 	0.3119	0.3798	0.928	-0.258
Mof_H 	H 	0.2106	0.2261	0.2611	0.011
Mof_H 	H 	0.1847	0.2352	0.4211	-0.265
Mof_H 	H 	0.2449	0.1789	0.3836	0.359
Mof_Co	Co	0.63498	0.11392	0.29865	1.167
Mof_P 	P 	0.69276	0.18734	0.6283	0.449
Mof_H 	H 	0.656	0.0874	0.628	-0.024
Mof_O 	O 	0.6786	0.214	0.4752	-0.506
Mof_O 	O 	0.6285	0.2074	0.7349	-0.518
Mof_O 	O 	0.8038	0.2359	0.6728	-0.349
Mof_O 	O 	0.6202	0.9321	0.928	-0.249
Mof_H 	H 	0.7739	0.9845	0.2611	-0.564
Mof_H 	H 	0.7648	0.9495	0.4211	-0.427
Mof_H 	H 	0.8211	0.066	0.3836	1.114
Mof_Co	Co	0.88608	0.52106	0.29865	1.172
Mof_P 	P 	0.81266	0.50542	0.6283	0.451
Mof_H 	H 	0.9126	0.5686	0.628	-0.027
Mof_O 	O 	0.786	0.4646	0.4752	-0.504
Mof_O 	O 	0.7926	0.4211	0.7349	-0.52
Mof_O 	O 	0.7641	0.5679	0.6728	-0.371
Mof_O 	O 	0.0679	0.6881	0.928	-0.245
Mof_H 	H 	0.0155	0.7894	0.2611	0.526
Mof_H 	H 	0.0505	0.8153	0.4211	-1.031
Mof_H 	H 	0.934	0.7551	0.3836	0.625
Mof_Co	Co	0.52106	0.63498	0.79865	1.172
Mof_P 	P 	0.50542	0.69276	0.1283	0.429
Mof_H 	H 	0.5686	0.656	0.128	-0.032
Mof_O 	O 	0.4646	0.6786	0.9752	-0.486
Mof_O 	O 	0.4211	0.6285	0.2349	-0.52
Mof_O 	O 	0.5679	0.8038	0.1728	-0.369
Mof_O 	O 	0.6881	0.6202	0.428	-0.253
Mof_H 	H 	0.7894	0.7739	0.7611	0.011
Mof_H 	H 	0.8153	0.7648	0.9211	-0.497
Mof_H 	H 	0.7551	0.8211	0.8836	0.643
Mof_Co	Co	0.36502	0.88608	0.79865	1.176
Mof_P 	P 	0.30724	0.81266	0.1283	0.432
Mof_H 	H 	0.344	0.9126	0.128	-0.044
Mof_O 	O 	0.3214	0.786	0.9752	-0.485
Mof_O 	O 	0.3715	0.7926	0.2349	-0.521
Mof_O 	O 	0.1962	0.7641	0.1728	-0.401
Mof_O 	O 	0.3798	0.0679	0.428	-0.262
Mof_H 	H 	0.2261	0.0155	0.7611	0.601
Mof_H 	H 	0.2352	0.0505	0.9211	-0.302
Mof_H 	H 	0.1789	0.934	0.8836	-0.165
Mof_Co	Co	0.11392	0.47894	0.79865	1.171
Mof_P 	P 	0.18734	0.49458	0.1283	0.43
Mof_H 	H 	0.0874	0.4314	0.128	-0.04
Mof_O 	O 	0.214	0.5354	0.9752	-0.487
Mof_O 	O 	0.2074	0.5789	0.2349	-0.52
Mof_O 	O 	0.2359	0.4321	0.1728	-0.38
Mof_O 	O 	0.9321	0.3119	0.428	-0.267
Mof_H 	H 	0.9845	0.2106	0.7611	-0.518
Mof_H 	H 	0.9495	0.1847	0.9211	0.316
Mof_H 	H 	0.066	0.2449	0.8836	0.336
Mof_Co	Co	0.63498	0.52106	0.79865	1.172
Mof_P 	P 	0.69276	0.50542	0.1283	0.429
Mof_H 	H 	0.656	0.5686	0.128	-0.032
Mof_O 	O 	0.6786	0.4646	0.9752	-0.486
Mof_O 	O 	0.6285	0.4211	0.2349	-0.52
Mof_O 	O 	0.8038	0.5679	0.1728	-0.369
Mof_O 	O 	0.6202	0.6881	0.428	-0.253
Mof_H 	H 	0.7739	0.7894	0.7611	0.011
Mof_H 	H 	0.7648	0.8153	0.9211	-0.497
Mof_H 	H 	0.8211	0.7551	0.8836	0.643
Mof_Co	Co	0.88608	0.36502	0.79865	1.176
Mof_P 	P 	0.81266	0.30724	0.1283	0.432
Mof_H 	H 	0.9126	0.344	0.128	-0.044
Mof_O 	O 	0.786	0.3214	0.9752	-0.485
Mof_O 	O 	0.7926	0.3715	0.2349	-0.521
Mof_O 	O 	0.7641	0.1962	0.1728	-0.401
Mof_O 	O 	0.0679	0.3798	0.428	-0.262
Mof_H 	H 	0.0155	0.2261	0.7611	0.601
Mof_H 	H 	0.0505	0.2352	0.9211	-0.302
Mof_H 	H 	0.934	0.1789	0.8836	-0.165
Mof_Co	Co	0.47894	0.11392	0.79865	1.171
Mof_P 	P 	0.49458	0.18734	0.1283	0.43
Mof_H 	H 	0.4314	0.0874	0.128	-0.04
Mof_O 	O 	0.5354	0.214	0.9752	-0.487
Mof_O 	O 	0.5789	0.2074	0.2349	-0.52
Mof_O 	O 	0.4321	0.2359	0.1728	-0.38
Mof_O 	O 	0.3119	0.9321	0.428	-0.267
Mof_H 	H 	0.2106	0.9845	0.7611	-0.518
Mof_H 	H 	0.1847	0.9495	0.9211	0.316
Mof_H 	H 	0.2449	0.066	0.8836	0.336
Mof_Co	Co	0.36502	0.47894	0.29865	1.171
Mof_P 	P 	0.30724	0.49458	0.6283	0.451
Mof_H 	H 	0.344	0.4314	0.628	-0.034
Mof_O 	O 	0.3214	0.5354	0.4752	-0.505
Mof_O 	O 	0.3715	0.5789	0.7349	-0.519
Mof_O 	O 	0.1962	0.4321	0.6728	-0.382
Mof_O 	O 	0.3798	0.3119	0.928	-0.258
Mof_H 	H 	0.2261	0.2106	0.2611	0.011
Mof_H 	H 	0.2352	0.1847	0.4211	-0.265
Mof_H 	H 	0.1789	0.2449	0.3836	0.359
Mof_Co	Co	0.11392	0.63498	0.29865	1.167
Mof_P 	P 	0.18734	0.69276	0.6283	0.449
Mof_H 	H 	0.0874	0.656	0.628	-0.024
Mof_O 	O 	0.214	0.6786	0.4752	-0.506
Mof_O 	O 	0.2074	0.6285	0.7349	-0.518
Mof_O 	O 	0.2359	0.8038	0.6728	-0.349
Mof_O 	O 	0.9321	0.6202	0.928	-0.249
Mof_H 	H 	0.9845	0.7739	0.2611	-0.564
Mof_H 	H 	0.9495	0.7648	0.4211	-0.427
Mof_H 	H 	0.066	0.8211	0.3836	1.114
Mof_Co	Co	0.52106	0.88608	0.29865	1.172
Mof_P 	P 	0.50542	0.81266	0.6283	0.451
Mof_H 	H 	0.5686	0.9126	0.628	-0.027
Mof_O 	O 	0.4646	0.786	0.4752	-0.504
Mof_O 	O 	0.4211	0.7926	0.7349	-0.52
Mof_O 	O 	0.5679	0.7641	0.6728	-0.371
Mof_O 	O 	0.6881	0.0679	0.928	-0.245
Mof_H 	H 	0.7894	0.0155	0.2611	0.526
Mof_H 	H 	0.8153	0.0505	0.4211	-1.031
Mof_H 	H 	0.7551	0.934	0.3836	0.625
Mof_Co	Co	0.66667	0.33333	0.3724	1.165
Mof_Co	Co	0.33333	0.66667	0.8724	1.167
Mof_Co	Co	0.66667	0.33333	0.8724	1.167
Mof_Co	Co	0.33333	0.66667	0.3724	1.165
Mof_P 	P 	0.412	0.412	0.9759	0.638
Mof_O 	O 	0.4268	0.4268	0.1334	-0.532
Mof_O 	O 	0.3273	0.3273	0.3711	-0.38
Mof_O 	O 	0.4955	0.4955	0.8891	-0.526
Mof_C 	C 	0.2344	0.2344	0.3582	-0.082
Mof_P 	P 	0.588	0	0.9759	0.632
Mof_O 	O 	0.5732	0	0.1334	-0.532
Mof_O 	O 	0.6727	3.4065e-33	0.3711	-0.373
Mof_O 	O 	0.5045	0	0.8891	-0.525
Mof_C 	C 	0.7656	3.4065e-33	0.3582	-0.097
Mof_P 	P 	1.10443e-16	0.588	0.9759	0.632
Mof_O 	O 	-1.00683e-17	0.5732	0.1334	-0.532
Mof_O 	O 	-2.80085e-17	0.6727	0.3711	-0.373
Mof_O 	O 	-5.73803e-18	0.5045	0.8891	-0.525
Mof_C 	C 	3.43312e-17	0.7656	0.3582	-0.097
Mof_P 	P 	0.588	0.588	0.4759	0.613
Mof_O 	O 	0.5732	0.5732	0.6334	-0.513
Mof_O 	O 	0.6727	0.6727	0.8711	-0.358
Mof_O 	O 	0.5045	0.5045	0.3891	-0.527
Mof_C 	C 	0.7656	0.7656	0.8582	-0.138
Mof_P 	P 	0.412	0	0.4759	0.618
Mof_O 	O 	0.4268	6.813e-33	0.6334	-0.512
Mof_O 	O 	0.3273	-1.3626e-32	0.8711	-0.366
Mof_O 	O 	0.4955	3.4065e-33	0.3891	-0.528
Mof_C 	C 	0.2344	0	0.8582	-0.115
Mof_P 	P 	5.61309e-17	0.412	0.4759	0.618
Mof_O 	O 	-1.71223e-17	0.4268	0.6334	-0.512
Mof_O 	O 	2.63035e-17	0.3273	0.8711	-0.366
Mof_O 	O 	3.19991e-17	0.4955	0.3891	-0.528
Mof_C 	C 	1.19356e-17	0.2344	0.8582	-0.115
_end
