data_functionalizedCrystal
_audit_creation_method	'EQeq! by Chris Wilmer'
_symmetry_space_group_name_H-M	'P1'
_symmetry_Int_Tables_number	1
_symmetry_cell_setting	triclinic
loop_
_symmetry_equiv_pos_as_xyz
  x,y,z
_cell_length_a	15.433
_cell_length_b	28.552
_cell_length_c	36.861
_cell_angle_alpha	90
_cell_angle_beta	90
_cell_angle_gamma	90
loop_
_atom_site_label
_atom_site_type_symbol
_atom_site_fract_x
_atom_site_fract_y
_atom_site_fract_z
_atom_site_charge
Mof_Cd	Cd	0.46136	0.25813	0.55228	0.366
Mof_O 	O 	0.3699	0.31558	0.52055	-0.264
Mof_O 	O 	0.50877	0.31618	0.50995	-0.28
Mof_C 	C 	0.43314	0.32963	0.50299	0.28
Mof_C 	C 	0.41839	0.36324	0.47207	0.019
Mof_C 	C 	0.482	0.3667	0.44927	-0.245
Mof_H 	H 	0.4771	0.3863	0.4292	0.12
Mof_H 	H 	0.5326	0.3496	0.453	0.122
Mof_N 	N 	0.32496	0.23934	0.57774	-0.156
Mof_C 	C 	0.32055	0.22564	0.61231	0.078
Mof_H 	H 	0.3719	0.2175	0.6239	-0.004
Mof_C 	C 	0.24499	0.22283	0.63172	-0.144
Mof_H 	H 	0.2459	0.2136	0.6559	0.08
Mof_C 	C 	0.16671	0.23394	0.61486	0.058
Mof_C 	C 	0.1708	0.24658	0.5787	-0.137
Mof_H 	H 	0.1203	0.253	0.5659	0.088
Mof_C 	C 	0.25049	0.24963	0.56177	0.082
Mof_H 	H 	0.2519	0.2595	0.5377	0.024
Mof_N 	N 	0.45916	0.20879	0.5012	-0.158
Mof_N 	N 	0.50844	0.05852	0.35054	-0.159
Mof_C 	C 	0.53398	0.18502	0.44787	-0.143
Mof_H 	H 	0.5799	0.1897	0.4319	0.081
Mof_C 	C 	0.52353	0.2138	0.47724	0.075
Mof_H 	H 	0.5631	0.238	0.4807	0.008
Mof_C 	C 	0.40402	0.17357	0.49574	0.082
Mof_H 	H 	0.3591	0.1695	0.5123	0.01
Mof_C 	C 	0.40978	0.14291	0.46699	-0.146
Mof_H 	H 	0.37	0.1187	0.4644	0.097
Mof_C 	C 	0.47586	0.14879	0.44197	0.062
Mof_C 	C 	0.48486	0.11767	0.40994	0.057
Mof_C 	C 	0.5098	0.13485	0.37649	-0.133
Mof_H 	H 	0.519	0.1668	0.3734	0.085
Mof_C 	C 	0.52107	0.10439	0.34768	0.078
Mof_H 	H 	0.5382	0.1165	0.3254	0.022
Mof_C 	C 	0.48248	0.04229	0.38247	0.081
Mof_H 	H 	0.4725	0.0103	0.3846	-0.009
Mof_C 	C 	0.46943	0.06989	0.41256	-0.139
Mof_H 	H 	0.4506	0.0568	0.4343	0.077
Mof_Cd	Cd	0.46136	0.75813	0.05228	0.365
Mof_O 	O 	0.3699	0.81558	0.02055	-0.265
Mof_O 	O 	0.50877	0.81618	0.00995	-0.281
Mof_C 	C 	0.43314	0.82963	0.00299	0.279
Mof_C 	C 	0.41839	0.86324	0.97207	0.018
Mof_C 	C 	0.482	0.8667	0.94927	-0.246
Mof_H 	H 	0.4771	0.8863	0.9292	0.119
Mof_H 	H 	0.5326	0.8496	0.953	0.122
Mof_N 	N 	0.32496	0.73934	0.07774	-0.157
Mof_C 	C 	0.32055	0.72564	0.11231	0.077
Mof_H 	H 	0.3719	0.7175	0.1239	-0.005
Mof_C 	C 	0.24499	0.72283	0.13172	-0.145
Mof_H 	H 	0.2459	0.7136	0.1559	0.079
Mof_C 	C 	0.16671	0.73394	0.11486	0.057
Mof_C 	C 	0.1708	0.74658	0.0787	-0.138
Mof_H 	H 	0.1203	0.753	0.0659	0.087
Mof_C 	C 	0.25049	0.74963	0.06177	0.082
Mof_H 	H 	0.2519	0.7595	0.0377	0.024
Mof_N 	N 	0.45916	0.70879	0.0012	-0.158
Mof_N 	N 	0.50844	0.55852	0.85054	-0.159
Mof_C 	C 	0.53398	0.68502	0.94787	-0.143
Mof_H 	H 	0.5799	0.6897	0.9319	0.081
Mof_C 	C 	0.52353	0.7138	0.97724	0.075
Mof_H 	H 	0.5631	0.738	0.9807	0.008
Mof_C 	C 	0.40402	0.67357	0.99574	0.082
Mof_H 	H 	0.3591	0.6695	0.0123	0.01
Mof_C 	C 	0.40978	0.64291	0.96699	-0.146
Mof_H 	H 	0.37	0.6187	0.9644	0.097
Mof_C 	C 	0.47586	0.64879	0.94197	0.063
Mof_C 	C 	0.48486	0.61767	0.90994	0.057
Mof_C 	C 	0.5098	0.63485	0.87649	-0.133
Mof_H 	H 	0.519	0.6668	0.8734	0.085
Mof_C 	C 	0.52107	0.60439	0.84768	0.078
Mof_H 	H 	0.5382	0.6165	0.8254	0.022
Mof_C 	C 	0.48248	0.54229	0.88247	0.081
Mof_H 	H 	0.4725	0.5103	0.8846	-0.009
Mof_C 	C 	0.46943	0.56989	0.91256	-0.139
Mof_H 	H 	0.4506	0.5568	0.9343	0.077
Mof_Cd	Cd	0.96136	0.25813	0.05228	0.365
Mof_O 	O 	0.8699	0.31558	0.02055	-0.265
Mof_O 	O 	0.00877	0.31618	0.00995	-0.28
Mof_C 	C 	0.93314	0.32963	0.00299	0.279
Mof_C 	C 	0.91839	0.36324	0.97207	0.017
Mof_C 	C 	0.982	0.3667	0.94927	-0.245
Mof_H 	H 	0.9771	0.3863	0.9292	0.119
Mof_H 	H 	0.0326	0.3496	0.953	0.121
Mof_N 	N 	0.82496	0.23934	0.07774	-0.157
Mof_C 	C 	0.82055	0.22564	0.11231	0.077
Mof_H 	H 	0.8719	0.2175	0.1239	-0.005
Mof_C 	C 	0.74499	0.22283	0.13172	-0.145
Mof_H 	H 	0.7459	0.2136	0.1559	0.079
Mof_C 	C 	0.66671	0.23394	0.11486	0.057
Mof_C 	C 	0.6708	0.24658	0.0787	-0.138
Mof_H 	H 	0.6203	0.253	0.0659	0.087
Mof_C 	C 	0.75049	0.24963	0.06177	0.082
Mof_H 	H 	0.7519	0.2595	0.0377	0.024
Mof_N 	N 	0.95916	0.20879	0.0012	-0.158
Mof_N 	N 	0.00844	0.05852	0.85054	-0.159
Mof_C 	C 	0.03398	0.18502	0.94787	-0.144
Mof_H 	H 	0.0799	0.1897	0.9319	0.081
Mof_C 	C 	0.02353	0.2138	0.97724	0.075
Mof_H 	H 	0.0631	0.238	0.9807	0.008
Mof_C 	C 	0.90402	0.17357	0.99574	0.082
Mof_H 	H 	0.8591	0.1695	0.0123	0.01
Mof_C 	C 	0.90978	0.14291	0.96699	-0.146
Mof_H 	H 	0.87	0.1187	0.9644	0.097
Mof_C 	C 	0.97586	0.14879	0.94197	0.063
Mof_C 	C 	0.98486	0.11767	0.90994	0.058
Mof_C 	C 	0.0098	0.13485	0.87649	-0.133
Mof_H 	H 	0.019	0.1668	0.8734	0.085
Mof_C 	C 	0.02107	0.10439	0.84768	0.078
Mof_H 	H 	0.0382	0.1165	0.8254	0.022
Mof_C 	C 	0.98248	0.04229	0.88247	0.081
Mof_H 	H 	0.9725	0.0103	0.8846	-0.009
Mof_C 	C 	0.96943	0.06989	0.91256	-0.139
Mof_H 	H 	0.9506	0.0568	0.9343	0.077
Mof_Cd	Cd	0.96136	0.75813	0.55228	0.365
Mof_O 	O 	0.8699	0.81558	0.52055	-0.265
Mof_O 	O 	0.00877	0.81618	0.50995	-0.28
Mof_C 	C 	0.93314	0.82963	0.50299	0.279
Mof_C 	C 	0.91839	0.86324	0.47207	0.018
Mof_C 	C 	0.982	0.8667	0.44927	-0.246
Mof_H 	H 	0.9771	0.8863	0.4292	0.119
Mof_H 	H 	0.0326	0.8496	0.453	0.122
Mof_N 	N 	0.82496	0.73934	0.57774	-0.157
Mof_C 	C 	0.82055	0.72564	0.61231	0.077
Mof_H 	H 	0.8719	0.7175	0.6239	-0.005
Mof_C 	C 	0.74499	0.72283	0.63172	-0.145
Mof_H 	H 	0.7459	0.7136	0.6559	0.079
Mof_C 	C 	0.66671	0.73394	0.61486	0.057
Mof_C 	C 	0.6708	0.74658	0.5787	-0.138
Mof_H 	H 	0.6203	0.753	0.5659	0.087
Mof_C 	C 	0.75049	0.74963	0.56177	0.082
Mof_H 	H 	0.7519	0.7595	0.5377	0.024
Mof_N 	N 	0.95916	0.70879	0.5012	-0.158
Mof_N 	N 	0.00844	0.55852	0.35054	-0.159
Mof_C 	C 	0.03398	0.68502	0.44787	-0.143
Mof_H 	H 	0.0799	0.6897	0.4319	0.081
Mof_C 	C 	0.02353	0.7138	0.47724	0.075
Mof_H 	H 	0.0631	0.738	0.4807	0.008
Mof_C 	C 	0.90402	0.67357	0.49574	0.082
Mof_H 	H 	0.8591	0.6695	0.5123	0.01
Mof_C 	C 	0.90978	0.64291	0.46699	-0.146
Mof_H 	H 	0.87	0.6187	0.4644	0.097
Mof_C 	C 	0.97586	0.64879	0.44197	0.062
Mof_C 	C 	0.98486	0.61767	0.40994	0.057
Mof_C 	C 	0.0098	0.63485	0.37649	-0.133
Mof_H 	H 	0.019	0.6668	0.3734	0.085
Mof_C 	C 	0.02107	0.60439	0.34768	0.078
Mof_H 	H 	0.0382	0.6165	0.3254	0.022
Mof_C 	C 	0.98248	0.54229	0.38247	0.081
Mof_H 	H 	0.9725	0.5103	0.3846	-0.009
Mof_C 	C 	0.96943	0.56989	0.41256	-0.139
Mof_H 	H 	0.9506	0.5568	0.4343	0.077
Mof_Cd	Cd	0.28864	0.49187	0.55228	0.365
Mof_O 	O 	0.3801	0.43442	0.52055	-0.265
Mof_O 	O 	0.24123	0.43382	0.50995	-0.281
Mof_C 	C 	0.31686	0.42037	0.50299	0.279
Mof_C 	C 	0.33161	0.38676	0.47207	0.018
Mof_C 	C 	0.268	0.3833	0.44927	-0.246
Mof_H 	H 	0.2729	0.3637	0.4292	0.119
Mof_H 	H 	0.2174	0.4004	0.453	0.121
Mof_N 	N 	0.42504	0.51066	0.57774	-0.157
Mof_C 	C 	0.42945	0.52436	0.61231	0.077
Mof_H 	H 	0.3781	0.5325	0.6239	-0.005
Mof_C 	C 	0.50501	0.52717	0.63172	-0.145
Mof_H 	H 	0.5041	0.5364	0.6559	0.079
Mof_C 	C 	0.58329	0.51606	0.61486	0.057
Mof_C 	C 	0.5792	0.50342	0.5787	-0.138
Mof_H 	H 	0.6297	0.497	0.5659	0.087
Mof_C 	C 	0.49951	0.50037	0.56177	0.082
Mof_H 	H 	0.4981	0.4905	0.5377	0.024
Mof_N 	N 	0.29084	0.54121	0.5012	-0.158
Mof_N 	N 	0.24156	0.69148	0.35054	-0.159
Mof_C 	C 	0.21602	0.56498	0.44787	-0.143
Mof_H 	H 	0.1701	0.5603	0.4319	0.081
Mof_C 	C 	0.22647	0.5362	0.47724	0.075
Mof_H 	H 	0.1869	0.512	0.4807	0.008
Mof_C 	C 	0.34598	0.57643	0.49574	0.082
Mof_H 	H 	0.3909	0.5805	0.5123	0.01
Mof_C 	C 	0.34022	0.60709	0.46699	-0.146
Mof_H 	H 	0.38	0.6313	0.4644	0.097
Mof_C 	C 	0.27414	0.60121	0.44197	0.062
Mof_C 	C 	0.26514	0.63233	0.40994	0.057
Mof_C 	C 	0.2402	0.61515	0.37649	-0.133
Mof_H 	H 	0.231	0.5832	0.3734	0.085
Mof_C 	C 	0.22893	0.64561	0.34768	0.078
Mof_H 	H 	0.2118	0.6335	0.3254	0.022
Mof_C 	C 	0.26752	0.70771	0.38247	0.081
Mof_H 	H 	0.2775	0.7397	0.3846	-0.009
Mof_C 	C 	0.28057	0.68011	0.41256	-0.139
Mof_H 	H 	0.2994	0.6932	0.4343	0.077
Mof_Cd	Cd	0.28864	0.99187	0.05228	0.365
Mof_O 	O 	0.3801	0.93442	0.02055	-0.265
Mof_O 	O 	0.24123	0.93382	0.00995	-0.281
Mof_C 	C 	0.31686	0.92037	0.00299	0.279
Mof_C 	C 	0.33161	0.88676	0.97207	0.018
Mof_C 	C 	0.268	0.8833	0.94927	-0.246
Mof_H 	H 	0.2729	0.8637	0.9292	0.119
Mof_H 	H 	0.2174	0.9004	0.953	0.121
Mof_N 	N 	0.42504	0.01066	0.07774	-0.157
Mof_C 	C 	0.42945	0.02436	0.11231	0.077
Mof_H 	H 	0.3781	0.0325	0.1239	-0.005
Mof_C 	C 	0.50501	0.02717	0.13172	-0.145
Mof_H 	H 	0.5041	0.0364	0.1559	0.079
Mof_C 	C 	0.58329	0.01606	0.11486	0.057
Mof_C 	C 	0.5792	0.00342	0.0787	-0.138
Mof_H 	H 	0.6297	0.997	0.0659	0.087
Mof_C 	C 	0.49951	0.00037	0.06177	0.082
Mof_H 	H 	0.4981	0.9905	0.0377	0.023
Mof_N 	N 	0.29084	0.04121	0.0012	-0.158
Mof_N 	N 	0.24156	0.19148	0.85054	-0.159
Mof_C 	C 	0.21602	0.06498	0.94787	-0.143
Mof_H 	H 	0.1701	0.0603	0.9319	0.081
Mof_C 	C 	0.22647	0.0362	0.97724	0.075
Mof_H 	H 	0.1869	0.012	0.9807	0.008
Mof_C 	C 	0.34598	0.07643	0.99574	0.081
Mof_H 	H 	0.3909	0.0805	0.0123	0.01
Mof_C 	C 	0.34022	0.10709	0.96699	-0.146
Mof_H 	H 	0.38	0.1313	0.9644	0.097
Mof_C 	C 	0.27414	0.10121	0.94197	0.062
Mof_C 	C 	0.26514	0.13233	0.90994	0.058
Mof_C 	C 	0.2402	0.11515	0.87649	-0.133
Mof_H 	H 	0.231	0.0832	0.8734	0.085
Mof_C 	C 	0.22893	0.14561	0.84768	0.078
Mof_H 	H 	0.2118	0.1335	0.8254	0.022
Mof_C 	C 	0.26752	0.20771	0.88247	0.081
Mof_H 	H 	0.2775	0.2397	0.8846	-0.009
Mof_C 	C 	0.28057	0.18011	0.91256	-0.139
Mof_H 	H 	0.2994	0.1932	0.9343	0.077
Mof_Cd	Cd	0.78864	0.49187	0.05228	0.365
Mof_O 	O 	0.8801	0.43442	0.02055	-0.265
Mof_O 	O 	0.74123	0.43382	0.00995	-0.281
Mof_C 	C 	0.81686	0.42037	0.00299	0.279
Mof_C 	C 	0.83161	0.38676	0.97207	0.018
Mof_C 	C 	0.768	0.3833	0.94927	-0.246
Mof_H 	H 	0.7729	0.3637	0.9292	0.119
Mof_H 	H 	0.7174	0.4004	0.953	0.122
Mof_N 	N 	0.92504	0.51066	0.07774	-0.157
Mof_C 	C 	0.92945	0.52436	0.11231	0.076
Mof_H 	H 	0.8781	0.5325	0.1239	-0.005
Mof_C 	C 	0.00501	0.52717	0.13172	-0.144
Mof_H 	H 	0.0041	0.5364	0.1559	0.079
Mof_C 	C 	0.08329	0.51606	0.11486	0.057
Mof_C 	C 	0.0792	0.50342	0.0787	-0.138
Mof_H 	H 	0.1297	0.497	0.0659	0.087
Mof_C 	C 	0.99951	0.50037	0.06177	0.081
Mof_H 	H 	0.9981	0.4905	0.0377	0.024
Mof_N 	N 	0.79084	0.54121	0.0012	-0.159
Mof_N 	N 	0.74156	0.69148	0.85054	-0.159
Mof_C 	C 	0.71602	0.56498	0.94787	-0.144
Mof_H 	H 	0.6701	0.5603	0.9319	0.081
Mof_C 	C 	0.72647	0.5362	0.97724	0.076
Mof_H 	H 	0.6869	0.512	0.9807	0.008
Mof_C 	C 	0.84598	0.57643	0.99574	0.083
Mof_H 	H 	0.8909	0.5805	0.0123	0.01
Mof_C 	C 	0.84022	0.60709	0.96699	-0.146
Mof_H 	H 	0.88	0.6313	0.9644	0.098
Mof_C 	C 	0.77414	0.60121	0.94197	0.063
Mof_C 	C 	0.76514	0.63233	0.90994	0.057
Mof_C 	C 	0.7402	0.61515	0.87649	-0.133
Mof_H 	H 	0.731	0.5832	0.8734	0.085
Mof_C 	C 	0.72893	0.64561	0.84768	0.078
Mof_H 	H 	0.7118	0.6335	0.8254	0.022
Mof_C 	C 	0.76752	0.70771	0.88247	0.081
Mof_H 	H 	0.7775	0.7397	0.8846	-0.009
Mof_C 	C 	0.78057	0.68011	0.91256	-0.139
Mof_H 	H 	0.7994	0.6932	0.9343	0.077
Mof_Cd	Cd	0.78864	0.99187	0.55228	0.365
Mof_O 	O 	0.8801	0.93442	0.52055	-0.265
Mof_O 	O 	0.74123	0.93382	0.50995	-0.281
Mof_C 	C 	0.81686	0.92037	0.50299	0.279
Mof_C 	C 	0.83161	0.88676	0.47207	0.017
Mof_C 	C 	0.768	0.8833	0.44927	-0.246
Mof_H 	H 	0.7729	0.8637	0.4292	0.119
Mof_H 	H 	0.7174	0.9004	0.453	0.121
Mof_N 	N 	0.92504	0.01066	0.57774	-0.157
Mof_C 	C 	0.92945	0.02436	0.61231	0.077
Mof_H 	H 	0.8781	0.0325	0.6239	-0.005
Mof_C 	C 	0.00501	0.02717	0.63172	-0.145
Mof_H 	H 	0.0041	0.0364	0.6559	0.079
Mof_C 	C 	0.08329	0.01606	0.61486	0.058
Mof_C 	C 	0.0792	0.00342	0.5787	-0.139
Mof_H 	H 	0.1297	0.997	0.5659	0.088
Mof_C 	C 	0.99951	0.00037	0.56177	0.082
Mof_H 	H 	0.9981	0.9905	0.5377	0.023
Mof_N 	N 	0.79084	0.04121	0.5012	-0.158
Mof_N 	N 	0.74156	0.19148	0.35054	-0.159
Mof_C 	C 	0.71602	0.06498	0.44787	-0.143
Mof_H 	H 	0.6701	0.0603	0.4319	0.081
Mof_C 	C 	0.72647	0.0362	0.47724	0.075
Mof_H 	H 	0.6869	0.012	0.4807	0.008
Mof_C 	C 	0.84598	0.07643	0.49574	0.082
Mof_H 	H 	0.8909	0.0805	0.5123	0.01
Mof_C 	C 	0.84022	0.10709	0.46699	-0.146
Mof_H 	H 	0.88	0.1313	0.4644	0.097
Mof_C 	C 	0.77414	0.10121	0.44197	0.062
Mof_C 	C 	0.76514	0.13233	0.40994	0.057
Mof_C 	C 	0.7402	0.11515	0.37649	-0.133
Mof_H 	H 	0.731	0.0832	0.3734	0.085
Mof_C 	C 	0.72893	0.14561	0.34768	0.078
Mof_H 	H 	0.7118	0.1335	0.3254	0.022
Mof_C 	C 	0.76752	0.20771	0.38247	0.081
Mof_H 	H 	0.7775	0.2397	0.3846	-0.009
Mof_C 	C 	0.78057	0.18011	0.41256	-0.139
Mof_H 	H 	0.7994	0.1932	0.4343	0.077
Mof_Cd	Cd	0.28864	0.25813	0.19772	0.365
Mof_O 	O 	0.3801	0.31558	0.22945	-0.265
Mof_O 	O 	0.24123	0.31618	0.24005	-0.281
Mof_C 	C 	0.31686	0.32963	0.24701	0.279
Mof_C 	C 	0.33161	0.36324	0.27793	0.018
Mof_C 	C 	0.268	0.3667	0.30073	-0.246
Mof_H 	H 	0.2729	0.3863	0.3208	0.119
Mof_H 	H 	0.2174	0.3496	0.297	0.121
Mof_N 	N 	0.42504	0.23934	0.17226	-0.157
Mof_C 	C 	0.42945	0.22564	0.13769	0.077
Mof_H 	H 	0.3781	0.2175	0.1261	-0.005
Mof_C 	C 	0.50501	0.22283	0.11828	-0.145
Mof_H 	H 	0.5041	0.2136	0.0941	0.079
Mof_C 	C 	0.58329	0.23394	0.13514	0.057
Mof_C 	C 	0.5792	0.24658	0.1713	-0.138
Mof_H 	H 	0.6297	0.253	0.1841	0.087
Mof_C 	C 	0.49951	0.24963	0.18823	0.082
Mof_H 	H 	0.4981	0.2595	0.2123	0.024
Mof_N 	N 	0.29084	0.20879	0.2488	-0.158
Mof_N 	N 	0.24156	0.05852	0.39946	-0.159
Mof_C 	C 	0.21602	0.18502	0.30213	-0.143
Mof_H 	H 	0.1701	0.1897	0.3181	0.081
Mof_C 	C 	0.22647	0.2138	0.27276	0.075
Mof_H 	H 	0.1869	0.238	0.2693	0.008
Mof_C 	C 	0.34598	0.17357	0.25426	0.082
Mof_H 	H 	0.3909	0.1695	0.2377	0.01
Mof_C 	C 	0.34022	0.14291	0.28301	-0.146
Mof_H 	H 	0.38	0.1187	0.2856	0.097
Mof_C 	C 	0.27414	0.14879	0.30803	0.062
Mof_C 	C 	0.26514	0.11767	0.34006	0.057
Mof_C 	C 	0.2402	0.13485	0.37351	-0.133
Mof_H 	H 	0.231	0.1668	0.3766	0.085
Mof_C 	C 	0.22893	0.10439	0.40232	0.078
Mof_H 	H 	0.2118	0.1165	0.4246	0.022
Mof_C 	C 	0.26752	0.04229	0.36753	0.081
Mof_H 	H 	0.2775	0.0103	0.3654	-0.009
Mof_C 	C 	0.28057	0.06989	0.33744	-0.139
Mof_H 	H 	0.2994	0.0568	0.3157	0.077
Mof_Cd	Cd	0.28864	0.75813	0.69772	0.365
Mof_O 	O 	0.3801	0.81558	0.72945	-0.265
Mof_O 	O 	0.24123	0.81618	0.74005	-0.281
Mof_C 	C 	0.31686	0.82963	0.74701	0.279
Mof_C 	C 	0.33161	0.86324	0.77793	0.018
Mof_C 	C 	0.268	0.8667	0.80073	-0.246
Mof_H 	H 	0.2729	0.8863	0.8208	0.119
Mof_H 	H 	0.2174	0.8496	0.797	0.121
Mof_N 	N 	0.42504	0.73934	0.67226	-0.157
Mof_C 	C 	0.42945	0.72564	0.63769	0.077
Mof_H 	H 	0.3781	0.7175	0.6261	-0.005
Mof_C 	C 	0.50501	0.72283	0.61828	-0.145
Mof_H 	H 	0.5041	0.7136	0.5941	0.079
Mof_C 	C 	0.58329	0.73394	0.63514	0.057
Mof_C 	C 	0.5792	0.74658	0.6713	-0.138
Mof_H 	H 	0.6297	0.753	0.6841	0.087
Mof_C 	C 	0.49951	0.74963	0.68823	0.082
Mof_H 	H 	0.4981	0.7595	0.7123	0.024
Mof_N 	N 	0.29084	0.70879	0.7488	-0.158
Mof_N 	N 	0.24156	0.55852	0.89946	-0.159
Mof_C 	C 	0.21602	0.68502	0.80213	-0.143
Mof_H 	H 	0.1701	0.6897	0.8181	0.081
Mof_C 	C 	0.22647	0.7138	0.77276	0.075
Mof_H 	H 	0.1869	0.738	0.7693	0.008
Mof_C 	C 	0.34598	0.67357	0.75426	0.082
Mof_H 	H 	0.3909	0.6695	0.7377	0.01
Mof_C 	C 	0.34022	0.64291	0.78301	-0.146
Mof_H 	H 	0.38	0.6187	0.7856	0.097
Mof_C 	C 	0.27414	0.64879	0.80803	0.062
Mof_C 	C 	0.26514	0.61767	0.84006	0.057
Mof_C 	C 	0.2402	0.63485	0.87351	-0.133
Mof_H 	H 	0.231	0.6668	0.8766	0.085
Mof_C 	C 	0.22893	0.60439	0.90232	0.078
Mof_H 	H 	0.2118	0.6165	0.9246	0.022
Mof_C 	C 	0.26752	0.54229	0.86753	0.081
Mof_H 	H 	0.2775	0.5103	0.8654	-0.009
Mof_C 	C 	0.28057	0.56989	0.83744	-0.139
Mof_H 	H 	0.2994	0.5568	0.8157	0.077
Mof_Cd	Cd	0.78864	0.25813	0.69772	0.365
Mof_O 	O 	0.8801	0.31558	0.72945	-0.265
Mof_O 	O 	0.74123	0.31618	0.74005	-0.281
Mof_C 	C 	0.81686	0.32963	0.74701	0.279
Mof_C 	C 	0.83161	0.36324	0.77793	0.018
Mof_C 	C 	0.768	0.3667	0.80073	-0.246
Mof_H 	H 	0.7729	0.3863	0.8208	0.119
Mof_H 	H 	0.7174	0.3496	0.797	0.122
Mof_N 	N 	0.92504	0.23934	0.67226	-0.157
Mof_C 	C 	0.92945	0.22564	0.63769	0.077
Mof_H 	H 	0.8781	0.2175	0.6261	-0.005
Mof_C 	C 	0.00501	0.22283	0.61828	-0.145
Mof_H 	H 	0.0041	0.2136	0.5941	0.079
Mof_C 	C 	0.08329	0.23394	0.63514	0.057
Mof_C 	C 	0.0792	0.24658	0.6713	-0.139
Mof_H 	H 	0.1297	0.253	0.6841	0.087
Mof_C 	C 	0.99951	0.24963	0.68823	0.082
Mof_H 	H 	0.9981	0.2595	0.7123	0.024
Mof_N 	N 	0.79084	0.20879	0.7488	-0.158
Mof_N 	N 	0.74156	0.05852	0.89946	-0.159
Mof_C 	C 	0.71602	0.18502	0.80213	-0.143
Mof_H 	H 	0.6701	0.1897	0.8181	0.081
Mof_C 	C 	0.72647	0.2138	0.77276	0.075
Mof_H 	H 	0.6869	0.238	0.7693	0.008
Mof_C 	C 	0.84598	0.17357	0.75426	0.082
Mof_H 	H 	0.8909	0.1695	0.7377	0.01
Mof_C 	C 	0.84022	0.14291	0.78301	-0.146
Mof_H 	H 	0.88	0.1187	0.7856	0.097
Mof_C 	C 	0.77414	0.14879	0.80803	0.063
Mof_C 	C 	0.76514	0.11767	0.84006	0.057
Mof_C 	C 	0.7402	0.13485	0.87351	-0.133
Mof_H 	H 	0.731	0.1668	0.8766	0.085
Mof_C 	C 	0.72893	0.10439	0.90232	0.078
Mof_H 	H 	0.7118	0.1165	0.9246	0.022
Mof_C 	C 	0.76752	0.04229	0.86753	0.081
Mof_H 	H 	0.7775	0.0103	0.8654	-0.009
Mof_C 	C 	0.78057	0.06989	0.83744	-0.139
Mof_H 	H 	0.7994	0.0568	0.8157	0.077
Mof_Cd	Cd	0.78864	0.75813	0.19772	0.365
Mof_O 	O 	0.8801	0.81558	0.22945	-0.265
Mof_O 	O 	0.74123	0.81618	0.24005	-0.281
Mof_C 	C 	0.81686	0.82963	0.24701	0.279
Mof_C 	C 	0.83161	0.86324	0.27793	0.017
Mof_C 	C 	0.768	0.8667	0.30073	-0.246
Mof_H 	H 	0.7729	0.8863	0.3208	0.119
Mof_H 	H 	0.7174	0.8496	0.297	0.121
Mof_N 	N 	0.92504	0.73934	0.17226	-0.157
Mof_C 	C 	0.92945	0.72564	0.13769	0.076
Mof_H 	H 	0.8781	0.7175	0.1261	-0.005
Mof_C 	C 	0.00501	0.72283	0.11828	-0.144
Mof_H 	H 	0.0041	0.7136	0.0941	0.079
Mof_C 	C 	0.08329	0.73394	0.13514	0.057
Mof_C 	C 	0.0792	0.74658	0.1713	-0.138
Mof_H 	H 	0.1297	0.753	0.1841	0.087
Mof_C 	C 	0.99951	0.74963	0.18823	0.081
Mof_H 	H 	0.9981	0.7595	0.2123	0.024
Mof_N 	N 	0.79084	0.70879	0.2488	-0.158
Mof_N 	N 	0.74156	0.55852	0.39946	-0.159
Mof_C 	C 	0.71602	0.68502	0.30213	-0.143
Mof_H 	H 	0.6701	0.6897	0.3181	0.081
Mof_C 	C 	0.72647	0.7138	0.27276	0.075
Mof_H 	H 	0.6869	0.738	0.2693	0.008
Mof_C 	C 	0.84598	0.67357	0.25426	0.082
Mof_H 	H 	0.8909	0.6695	0.2377	0.01
Mof_C 	C 	0.84022	0.64291	0.28301	-0.146
Mof_H 	H 	0.88	0.6187	0.2856	0.097
Mof_C 	C 	0.77414	0.64879	0.30803	0.062
Mof_C 	C 	0.76514	0.61767	0.34006	0.057
Mof_C 	C 	0.7402	0.63485	0.37351	-0.133
Mof_H 	H 	0.731	0.6668	0.3766	0.085
Mof_C 	C 	0.72893	0.60439	0.40232	0.078
Mof_H 	H 	0.7118	0.6165	0.4246	0.022
Mof_C 	C 	0.76752	0.54229	0.36753	0.081
Mof_H 	H 	0.7775	0.5103	0.3654	-0.009
Mof_C 	C 	0.78057	0.56989	0.33744	-0.139
Mof_H 	H 	0.7994	0.5568	0.3157	0.077
Mof_Cd	Cd	0.46136	0.49187	0.19772	0.365
Mof_O 	O 	0.3699	0.43442	0.22945	-0.265
Mof_O 	O 	0.50877	0.43382	0.24005	-0.281
Mof_C 	C 	0.43314	0.42037	0.24701	0.279
Mof_C 	C 	0.41839	0.38676	0.27793	0.018
Mof_C 	C 	0.482	0.3833	0.30073	-0.246
Mof_H 	H 	0.4771	0.3637	0.3208	0.119
Mof_H 	H 	0.5326	0.4004	0.297	0.121
Mof_N 	N 	0.32496	0.51066	0.17226	-0.157
Mof_C 	C 	0.32055	0.52436	0.13769	0.077
Mof_H 	H 	0.3719	0.5325	0.1261	-0.005
Mof_C 	C 	0.24499	0.52717	0.11828	-0.145
Mof_H 	H 	0.2459	0.5364	0.0941	0.079
Mof_C 	C 	0.16671	0.51606	0.13514	0.057
Mof_C 	C 	0.1708	0.50342	0.1713	-0.138
Mof_H 	H 	0.1203	0.497	0.1841	0.087
Mof_C 	C 	0.25049	0.50037	0.18823	0.082
Mof_H 	H 	0.2519	0.4905	0.2123	0.024
Mof_N 	N 	0.45916	0.54121	0.2488	-0.158
Mof_N 	N 	0.50844	0.69148	0.39946	-0.159
Mof_C 	C 	0.53398	0.56498	0.30213	-0.143
Mof_H 	H 	0.5799	0.5603	0.3181	0.081
Mof_C 	C 	0.52353	0.5362	0.27276	0.075
Mof_H 	H 	0.5631	0.512	0.2693	0.008
Mof_C 	C 	0.40402	0.57643	0.25426	0.082
Mof_H 	H 	0.3591	0.5805	0.2377	0.01
Mof_C 	C 	0.40978	0.60709	0.28301	-0.146
Mof_H 	H 	0.37	0.6313	0.2856	0.097
Mof_C 	C 	0.47586	0.60121	0.30803	0.062
Mof_C 	C 	0.48486	0.63233	0.34006	0.057
Mof_C 	C 	0.5098	0.61515	0.37351	-0.133
Mof_H 	H 	0.519	0.5832	0.3766	0.085
Mof_C 	C 	0.52107	0.64561	0.40232	0.078
Mof_H 	H 	0.5382	0.6335	0.4246	0.022
Mof_C 	C 	0.48248	0.70771	0.36753	0.081
Mof_H 	H 	0.4725	0.7397	0.3654	-0.009
Mof_C 	C 	0.46943	0.68011	0.33744	-0.139
Mof_H 	H 	0.4506	0.6932	0.3157	0.077
Mof_Cd	Cd	0.46136	0.99187	0.69772	0.365
Mof_O 	O 	0.3699	0.93442	0.72945	-0.265
Mof_O 	O 	0.50877	0.93382	0.74005	-0.28
Mof_C 	C 	0.43314	0.92037	0.74701	0.279
Mof_C 	C 	0.41839	0.88676	0.77793	0.018
Mof_C 	C 	0.482	0.8833	0.80073	-0.246
Mof_H 	H 	0.4771	0.8637	0.8208	0.119
Mof_H 	H 	0.5326	0.9004	0.797	0.121
Mof_N 	N 	0.32496	0.01066	0.67226	-0.157
Mof_C 	C 	0.32055	0.02436	0.63769	0.077
Mof_H 	H 	0.3719	0.0325	0.6261	-0.005
Mof_C 	C 	0.24499	0.02717	0.61828	-0.145
Mof_H 	H 	0.2459	0.0364	0.5941	0.079
Mof_C 	C 	0.16671	0.01606	0.63514	0.057
Mof_C 	C 	0.1708	0.00342	0.6713	-0.138
Mof_H 	H 	0.1203	0.997	0.6841	0.088
Mof_C 	C 	0.25049	0.00037	0.68823	0.082
Mof_H 	H 	0.2519	0.9905	0.7123	0.024
Mof_N 	N 	0.45916	0.04121	0.7488	-0.158
Mof_N 	N 	0.50844	0.19148	0.89946	-0.159
Mof_C 	C 	0.53398	0.06498	0.80213	-0.143
Mof_H 	H 	0.5799	0.0603	0.8181	0.081
Mof_C 	C 	0.52353	0.0362	0.77276	0.075
Mof_H 	H 	0.5631	0.012	0.7693	0.008
Mof_C 	C 	0.40402	0.07643	0.75426	0.082
Mof_H 	H 	0.3591	0.0805	0.7377	0.01
Mof_C 	C 	0.40978	0.10709	0.78301	-0.146
Mof_H 	H 	0.37	0.1313	0.7856	0.097
Mof_C 	C 	0.47586	0.10121	0.80803	0.062
Mof_C 	C 	0.48486	0.13233	0.84006	0.057
Mof_C 	C 	0.5098	0.11515	0.87351	-0.133
Mof_H 	H 	0.519	0.0832	0.8766	0.085
Mof_C 	C 	0.52107	0.14561	0.90232	0.078
Mof_H 	H 	0.5382	0.1335	0.9246	0.022
Mof_C 	C 	0.48248	0.20771	0.86753	0.081
Mof_H 	H 	0.4725	0.2397	0.8654	-0.009
Mof_C 	C 	0.46943	0.18011	0.83744	-0.139
Mof_H 	H 	0.4506	0.1932	0.8157	0.077
Mof_Cd	Cd	0.96136	0.49187	0.69772	0.365
Mof_O 	O 	0.8699	0.43442	0.72945	-0.265
Mof_O 	O 	0.00877	0.43382	0.74005	-0.281
Mof_C 	C 	0.93314	0.42037	0.74701	0.279
Mof_C 	C 	0.91839	0.38676	0.77793	0.017
Mof_C 	C 	0.982	0.3833	0.80073	-0.245
Mof_H 	H 	0.9771	0.3637	0.8208	0.119
Mof_H 	H 	0.0326	0.4004	0.797	0.121
Mof_N 	N 	0.82496	0.51066	0.67226	-0.157
Mof_C 	C 	0.82055	0.52436	0.63769	0.077
Mof_H 	H 	0.8719	0.5325	0.6261	-0.005
Mof_C 	C 	0.74499	0.52717	0.61828	-0.145
Mof_H 	H 	0.7459	0.5364	0.5941	0.079
Mof_C 	C 	0.66671	0.51606	0.63514	0.057
Mof_C 	C 	0.6708	0.50342	0.6713	-0.138
Mof_H 	H 	0.6203	0.497	0.6841	0.087
Mof_C 	C 	0.75049	0.50037	0.68823	0.082
Mof_H 	H 	0.7519	0.4905	0.7123	0.024
Mof_N 	N 	0.95916	0.54121	0.7488	-0.158
Mof_N 	N 	0.00844	0.69148	0.89946	-0.159
Mof_C 	C 	0.03398	0.56498	0.80213	-0.143
Mof_H 	H 	0.0799	0.5603	0.8181	0.081
Mof_C 	C 	0.02353	0.5362	0.77276	0.075
Mof_H 	H 	0.0631	0.512	0.7693	0.008
Mof_C 	C 	0.90402	0.57643	0.75426	0.082
Mof_H 	H 	0.8591	0.5805	0.7377	0.01
Mof_C 	C 	0.90978	0.60709	0.78301	-0.146
Mof_H 	H 	0.87	0.6313	0.7856	0.097
Mof_C 	C 	0.97586	0.60121	0.80803	0.062
Mof_C 	C 	0.98486	0.63233	0.84006	0.058
Mof_C 	C 	0.0098	0.61515	0.87351	-0.133
Mof_H 	H 	0.019	0.5832	0.8766	0.085
Mof_C 	C 	0.02107	0.64561	0.90232	0.078
Mof_H 	H 	0.0382	0.6335	0.9246	0.022
Mof_C 	C 	0.98248	0.70771	0.86753	0.081
Mof_H 	H 	0.9725	0.7397	0.8654	-0.009
Mof_C 	C 	0.96943	0.68011	0.83744	-0.139
Mof_H 	H 	0.9506	0.6932	0.8157	0.077
Mof_Cd	Cd	0.96136	0.99187	0.19772	0.365
Mof_O 	O 	0.8699	0.93442	0.22945	-0.265
Mof_O 	O 	0.00877	0.93382	0.24005	-0.28
Mof_C 	C 	0.93314	0.92037	0.24701	0.278
Mof_C 	C 	0.91839	0.88676	0.27793	0.018
Mof_C 	C 	0.982	0.8833	0.30073	-0.246
Mof_H 	H 	0.9771	0.8637	0.3208	0.119
Mof_H 	H 	0.0326	0.9004	0.297	0.122
Mof_N 	N 	0.82496	0.01066	0.17226	-0.157
Mof_C 	C 	0.82055	0.02436	0.13769	0.077
Mof_H 	H 	0.8719	0.0325	0.1261	-0.005
Mof_C 	C 	0.74499	0.02717	0.11828	-0.145
Mof_H 	H 	0.7459	0.0364	0.0941	0.079
Mof_C 	C 	0.66671	0.01606	0.13514	0.057
Mof_C 	C 	0.6708	0.00342	0.1713	-0.138
Mof_H 	H 	0.6203	0.997	0.1841	0.087
Mof_C 	C 	0.75049	0.00037	0.18823	0.082
Mof_H 	H 	0.7519	0.9905	0.2123	0.023
Mof_N 	N 	0.95916	0.04121	0.2488	-0.158
Mof_N 	N 	0.00844	0.19148	0.39946	-0.159
Mof_C 	C 	0.03398	0.06498	0.30213	-0.143
Mof_H 	H 	0.0799	0.0603	0.3181	0.081
Mof_C 	C 	0.02353	0.0362	0.27276	0.075
Mof_H 	H 	0.0631	0.012	0.2693	0.008
Mof_C 	C 	0.90402	0.07643	0.25426	0.082
Mof_H 	H 	0.8591	0.0805	0.2377	0.01
Mof_C 	C 	0.90978	0.10709	0.28301	-0.146
Mof_H 	H 	0.87	0.1313	0.2856	0.097
Mof_C 	C 	0.97586	0.10121	0.30803	0.062
Mof_C 	C 	0.98486	0.13233	0.34006	0.057
Mof_C 	C 	0.0098	0.11515	0.37351	-0.133
Mof_H 	H 	0.019	0.0832	0.3766	0.085
Mof_C 	C 	0.02107	0.14561	0.40232	0.078
Mof_H 	H 	0.0382	0.1335	0.4246	0.022
Mof_C 	C 	0.98248	0.20771	0.36753	0.081
Mof_H 	H 	0.9725	0.2397	0.3654	-0.009
Mof_C 	C 	0.96943	0.18011	0.33744	-0.139
Mof_H 	H 	0.9506	0.1932	0.3157	0.077
Mof_Cd	Cd	0.53864	0.74187	0.44772	0.365
Mof_O 	O 	0.6301	0.68442	0.47945	-0.265
Mof_O 	O 	0.49123	0.68382	0.49005	-0.281
Mof_C 	C 	0.56686	0.67037	0.49701	0.279
Mof_C 	C 	0.58161	0.63676	0.52793	0.018
Mof_C 	C 	0.518	0.6333	0.55073	-0.246
Mof_H 	H 	0.5229	0.6137	0.5708	0.119
Mof_H 	H 	0.4674	0.6504	0.547	0.121
Mof_N 	N 	0.67504	0.76066	0.42226	-0.157
Mof_C 	C 	0.67945	0.77436	0.38769	0.077
Mof_H 	H 	0.6281	0.7825	0.3761	-0.005
Mof_C 	C 	0.75501	0.77717	0.36828	-0.145
Mof_H 	H 	0.7541	0.7864	0.3441	0.079
Mof_C 	C 	0.83329	0.76606	0.38514	0.057
Mof_C 	C 	0.8292	0.75342	0.4213	-0.138
Mof_H 	H 	0.8797	0.747	0.4341	0.087
Mof_C 	C 	0.74951	0.75037	0.43823	0.082
Mof_H 	H 	0.7481	0.7405	0.4623	0.024
Mof_N 	N 	0.54084	0.79121	0.4988	-0.158
Mof_N 	N 	0.49156	0.94148	0.64946	-0.159
Mof_C 	C 	0.46602	0.81498	0.55213	-0.143
Mof_H 	H 	0.4201	0.8103	0.5681	0.081
Mof_C 	C 	0.47647	0.7862	0.52276	0.075
Mof_H 	H 	0.4369	0.762	0.5193	0.008
Mof_C 	C 	0.59598	0.82643	0.50426	0.082
Mof_H 	H 	0.6409	0.8305	0.4877	0.01
Mof_C 	C 	0.59022	0.85709	0.53301	-0.146
Mof_H 	H 	0.63	0.8813	0.5356	0.097
Mof_C 	C 	0.52414	0.85121	0.55803	0.062
Mof_C 	C 	0.51514	0.88233	0.59006	0.057
Mof_C 	C 	0.4902	0.86515	0.62351	-0.133
Mof_H 	H 	0.481	0.8332	0.6266	0.085
Mof_C 	C 	0.47893	0.89561	0.65232	0.078
Mof_H 	H 	0.4618	0.8835	0.6746	0.022
Mof_C 	C 	0.51752	0.95771	0.61753	0.081
Mof_H 	H 	0.5275	0.9897	0.6154	-0.009
Mof_C 	C 	0.53057	0.93011	0.58744	-0.139
Mof_H 	H 	0.5494	0.9432	0.5657	0.077
Mof_Cd	Cd	0.53864	0.24187	0.94772	0.365
Mof_O 	O 	0.6301	0.18442	0.97945	-0.265
Mof_O 	O 	0.49123	0.18382	0.99005	-0.281
Mof_C 	C 	0.56686	0.17037	0.99701	0.279
Mof_C 	C 	0.58161	0.13676	0.02793	0.018
Mof_C 	C 	0.518	0.1333	0.05073	-0.246
Mof_H 	H 	0.5229	0.1137	0.0708	0.119
Mof_H 	H 	0.4674	0.1504	0.047	0.122
Mof_N 	N 	0.67504	0.26066	0.92226	-0.157
Mof_C 	C 	0.67945	0.27436	0.88769	0.077
Mof_H 	H 	0.6281	0.2825	0.8761	-0.005
Mof_C 	C 	0.75501	0.27717	0.86828	-0.145
Mof_H 	H 	0.7541	0.2864	0.8441	0.079
Mof_C 	C 	0.83329	0.26606	0.88514	0.057
Mof_C 	C 	0.8292	0.25342	0.9213	-0.138
Mof_H 	H 	0.8797	0.247	0.9341	0.087
Mof_C 	C 	0.74951	0.25037	0.93823	0.082
Mof_H 	H 	0.7481	0.2405	0.9623	0.024
Mof_N 	N 	0.54084	0.29121	0.9988	-0.158
Mof_N 	N 	0.49156	0.44148	0.14946	-0.159
Mof_C 	C 	0.46602	0.31498	0.05213	-0.143
Mof_H 	H 	0.4201	0.3103	0.0681	0.081
Mof_C 	C 	0.47647	0.2862	0.02276	0.075
Mof_H 	H 	0.4369	0.262	0.0193	0.008
Mof_C 	C 	0.59598	0.32643	0.00426	0.082
Mof_H 	H 	0.6409	0.3305	0.9877	0.01
Mof_C 	C 	0.59022	0.35709	0.03301	-0.146
Mof_H 	H 	0.63	0.3813	0.0356	0.097
Mof_C 	C 	0.52414	0.35121	0.05803	0.063
Mof_C 	C 	0.51514	0.38233	0.09006	0.057
Mof_C 	C 	0.4902	0.36515	0.12351	-0.133
Mof_H 	H 	0.481	0.3332	0.1266	0.085
Mof_C 	C 	0.47893	0.39561	0.15232	0.078
Mof_H 	H 	0.4618	0.3835	0.1746	0.022
Mof_C 	C 	0.51752	0.45771	0.11753	0.081
Mof_H 	H 	0.5275	0.4897	0.1154	-0.009
Mof_C 	C 	0.53057	0.43011	0.08744	-0.139
Mof_H 	H 	0.5494	0.4432	0.0657	0.077
Mof_Cd	Cd	0.03864	0.74187	0.94772	0.365
Mof_O 	O 	0.1301	0.68442	0.97945	-0.265
Mof_O 	O 	0.99123	0.68382	0.99005	-0.28
Mof_C 	C 	0.06686	0.67037	0.99701	0.279
Mof_C 	C 	0.08161	0.63676	0.02793	0.017
Mof_C 	C 	0.018	0.6333	0.05073	-0.245
Mof_H 	H 	0.0229	0.6137	0.0708	0.119
Mof_H 	H 	0.9674	0.6504	0.047	0.121
Mof_N 	N 	0.17504	0.76066	0.92226	-0.157
Mof_C 	C 	0.17945	0.77436	0.88769	0.077
Mof_H 	H 	0.1281	0.7825	0.8761	-0.005
Mof_C 	C 	0.25501	0.77717	0.86828	-0.145
Mof_H 	H 	0.2541	0.7864	0.8441	0.079
Mof_C 	C 	0.33329	0.76606	0.88514	0.057
Mof_C 	C 	0.3292	0.75342	0.9213	-0.138
Mof_H 	H 	0.3797	0.747	0.9341	0.087
Mof_C 	C 	0.24951	0.75037	0.93823	0.082
Mof_H 	H 	0.2481	0.7405	0.9623	0.024
Mof_N 	N 	0.04084	0.79121	0.9988	-0.158
Mof_N 	N 	0.99156	0.94148	0.14946	-0.159
Mof_C 	C 	0.96602	0.81498	0.05213	-0.144
Mof_H 	H 	0.9201	0.8103	0.0681	0.081
Mof_C 	C 	0.97647	0.7862	0.02276	0.075
Mof_H 	H 	0.9369	0.762	0.0193	0.008
Mof_C 	C 	0.09598	0.82643	0.00426	0.082
Mof_H 	H 	0.1409	0.8305	0.9877	0.01
Mof_C 	C 	0.09022	0.85709	0.03301	-0.146
Mof_H 	H 	0.13	0.8813	0.0356	0.097
Mof_C 	C 	0.02414	0.85121	0.05803	0.063
Mof_C 	C 	0.01514	0.88233	0.09006	0.058
Mof_C 	C 	0.9902	0.86515	0.12351	-0.133
Mof_H 	H 	0.981	0.8332	0.1266	0.085
Mof_C 	C 	0.97893	0.89561	0.15232	0.078
Mof_H 	H 	0.9618	0.8835	0.1746	0.022
Mof_C 	C 	0.01752	0.95771	0.11753	0.081
Mof_H 	H 	0.0275	0.9897	0.1154	-0.009
Mof_C 	C 	0.03057	0.93011	0.08744	-0.139
Mof_H 	H 	0.0494	0.9432	0.0657	0.077
Mof_Cd	Cd	0.03864	0.24187	0.44772	0.365
Mof_O 	O 	0.1301	0.18442	0.47945	-0.265
Mof_O 	O 	0.99123	0.18382	0.49005	-0.28
Mof_C 	C 	0.06686	0.17037	0.49701	0.279
Mof_C 	C 	0.08161	0.13676	0.52793	0.018
Mof_C 	C 	0.018	0.1333	0.55073	-0.246
Mof_H 	H 	0.0229	0.1137	0.5708	0.119
Mof_H 	H 	0.9674	0.1504	0.547	0.122
Mof_N 	N 	0.17504	0.26066	0.42226	-0.157
Mof_C 	C 	0.17945	0.27436	0.38769	0.077
Mof_H 	H 	0.1281	0.2825	0.3761	-0.005
Mof_C 	C 	0.25501	0.27717	0.36828	-0.145
Mof_H 	H 	0.2541	0.2864	0.3441	0.079
Mof_C 	C 	0.33329	0.26606	0.38514	0.057
Mof_C 	C 	0.3292	0.25342	0.4213	-0.138
Mof_H 	H 	0.3797	0.247	0.4341	0.087
Mof_C 	C 	0.24951	0.25037	0.43823	0.082
Mof_H 	H 	0.2481	0.2405	0.4623	0.024
Mof_N 	N 	0.04084	0.29121	0.4988	-0.158
Mof_N 	N 	0.99156	0.44148	0.64946	-0.159
Mof_C 	C 	0.96602	0.31498	0.55213	-0.143
Mof_H 	H 	0.9201	0.3103	0.5681	0.081
Mof_C 	C 	0.97647	0.2862	0.52276	0.075
Mof_H 	H 	0.9369	0.262	0.5193	0.008
Mof_C 	C 	0.09598	0.32643	0.50426	0.082
Mof_H 	H 	0.1409	0.3305	0.4877	0.01
Mof_C 	C 	0.09022	0.35709	0.53301	-0.146
Mof_H 	H 	0.13	0.3813	0.5356	0.097
Mof_C 	C 	0.02414	0.35121	0.55803	0.062
Mof_C 	C 	0.01514	0.38233	0.59006	0.057
Mof_C 	C 	0.9902	0.36515	0.62351	-0.133
Mof_H 	H 	0.981	0.3332	0.6266	0.085
Mof_C 	C 	0.97893	0.39561	0.65232	0.078
Mof_H 	H 	0.9618	0.3835	0.6746	0.022
Mof_C 	C 	0.01752	0.45771	0.61753	0.081
Mof_H 	H 	0.0275	0.4897	0.6154	-0.009
Mof_C 	C 	0.03057	0.43011	0.58744	-0.139
Mof_H 	H 	0.0494	0.4432	0.5657	0.077
Mof_Cd	Cd	0.71136	0.50813	0.44772	0.365
Mof_O 	O 	0.6199	0.56558	0.47945	-0.265
Mof_O 	O 	0.75877	0.56618	0.49005	-0.281
Mof_C 	C 	0.68314	0.57963	0.49701	0.279
Mof_C 	C 	0.66839	0.61324	0.52793	0.018
Mof_C 	C 	0.732	0.6167	0.55073	-0.246
Mof_H 	H 	0.7271	0.6363	0.5708	0.119
Mof_H 	H 	0.7826	0.5996	0.547	0.121
Mof_N 	N 	0.57496	0.48934	0.42226	-0.157
Mof_C 	C 	0.57055	0.47564	0.38769	0.077
Mof_H 	H 	0.6219	0.4675	0.3761	-0.005
Mof_C 	C 	0.49499	0.47283	0.36828	-0.145
Mof_H 	H 	0.4959	0.4636	0.3441	0.079
Mof_C 	C 	0.41671	0.48394	0.38514	0.057
Mof_C 	C 	0.4208	0.49658	0.4213	-0.138
Mof_H 	H 	0.3703	0.503	0.4341	0.087
Mof_C 	C 	0.50049	0.49963	0.43823	0.082
Mof_H 	H 	0.5019	0.5095	0.4623	0.024
Mof_N 	N 	0.70916	0.45879	0.4988	-0.158
Mof_N 	N 	0.75844	0.30852	0.64946	-0.159
Mof_C 	C 	0.78398	0.43502	0.55213	-0.143
Mof_H 	H 	0.8299	0.4397	0.5681	0.081
Mof_C 	C 	0.77353	0.4638	0.52276	0.075
Mof_H 	H 	0.8131	0.488	0.5193	0.008
Mof_C 	C 	0.65402	0.42357	0.50426	0.082
Mof_H 	H 	0.6091	0.4195	0.4877	0.01
Mof_C 	C 	0.65978	0.39291	0.53301	-0.146
Mof_H 	H 	0.62	0.3687	0.5356	0.097
Mof_C 	C 	0.72586	0.39879	0.55803	0.062
Mof_C 	C 	0.73486	0.36767	0.59006	0.057
Mof_C 	C 	0.7598	0.38485	0.62351	-0.133
Mof_H 	H 	0.769	0.4168	0.6266	0.085
Mof_C 	C 	0.77107	0.35439	0.65232	0.078
Mof_H 	H 	0.7882	0.3665	0.6746	0.022
Mof_C 	C 	0.73248	0.29229	0.61753	0.081
Mof_H 	H 	0.7225	0.2603	0.6154	-0.009
Mof_C 	C 	0.71943	0.31989	0.58744	-0.139
Mof_H 	H 	0.7006	0.3068	0.5657	0.077
Mof_Cd	Cd	0.71136	0.00813	0.94772	0.365
Mof_O 	O 	0.6199	0.06558	0.97945	-0.265
Mof_O 	O 	0.75877	0.06618	0.99005	-0.281
Mof_C 	C 	0.68314	0.07963	0.99701	0.279
Mof_C 	C 	0.66839	0.11324	0.02793	0.018
Mof_C 	C 	0.732	0.1167	0.05073	-0.246
Mof_H 	H 	0.7271	0.1363	0.0708	0.119
Mof_H 	H 	0.7826	0.0996	0.047	0.121
Mof_N 	N 	0.57496	0.98934	0.92226	-0.157
Mof_C 	C 	0.57055	0.97564	0.88769	0.077
Mof_H 	H 	0.6219	0.9675	0.8761	-0.005
Mof_C 	C 	0.49499	0.97283	0.86828	-0.145
Mof_H 	H 	0.4959	0.9636	0.8441	0.079
Mof_C 	C 	0.41671	0.98394	0.88514	0.057
Mof_C 	C 	0.4208	0.99658	0.9213	-0.138
Mof_H 	H 	0.3703	0.003	0.9341	0.087
Mof_C 	C 	0.50049	0.99963	0.93823	0.082
Mof_H 	H 	0.5019	0.0095	0.9623	0.023
Mof_N 	N 	0.70916	0.95879	0.9988	-0.158
Mof_N 	N 	0.75844	0.80852	0.14946	-0.159
Mof_C 	C 	0.78398	0.93502	0.05213	-0.143
Mof_H 	H 	0.8299	0.9397	0.0681	0.081
Mof_C 	C 	0.77353	0.9638	0.02276	0.075
Mof_H 	H 	0.8131	0.988	0.0193	0.008
Mof_C 	C 	0.65402	0.92357	0.00426	0.081
Mof_H 	H 	0.6091	0.9195	0.9877	0.01
Mof_C 	C 	0.65978	0.89291	0.03301	-0.146
Mof_H 	H 	0.62	0.8687	0.0356	0.097
Mof_C 	C 	0.72586	0.89879	0.05803	0.062
Mof_C 	C 	0.73486	0.86767	0.09006	0.058
Mof_C 	C 	0.7598	0.88485	0.12351	-0.133
Mof_H 	H 	0.769	0.9168	0.1266	0.085
Mof_C 	C 	0.77107	0.85439	0.15232	0.078
Mof_H 	H 	0.7882	0.8665	0.1746	0.022
Mof_C 	C 	0.73248	0.79229	0.11753	0.081
Mof_H 	H 	0.7225	0.7603	0.1154	-0.009
Mof_C 	C 	0.71943	0.81989	0.08744	-0.139
Mof_H 	H 	0.7006	0.8068	0.0657	0.077
Mof_Cd	Cd	0.21136	0.50813	0.94772	0.365
Mof_O 	O 	0.1199	0.56558	0.97945	-0.265
Mof_O 	O 	0.25877	0.56618	0.99005	-0.281
Mof_C 	C 	0.18314	0.57963	0.99701	0.279
Mof_C 	C 	0.16839	0.61324	0.02793	0.018
Mof_C 	C 	0.232	0.6167	0.05073	-0.246
Mof_H 	H 	0.2271	0.6363	0.0708	0.119
Mof_H 	H 	0.2826	0.5996	0.047	0.122
Mof_N 	N 	0.07496	0.48934	0.92226	-0.157
Mof_C 	C 	0.07055	0.47564	0.88769	0.076
Mof_H 	H 	0.1219	0.4675	0.8761	-0.005
Mof_C 	C 	0.99499	0.47283	0.86828	-0.144
Mof_H 	H 	0.9959	0.4636	0.8441	0.079
Mof_C 	C 	0.91671	0.48394	0.88514	0.057
Mof_C 	C 	0.9208	0.49658	0.9213	-0.138
Mof_H 	H 	0.8703	0.503	0.9341	0.087
Mof_C 	C 	0.00049	0.49963	0.93823	0.081
Mof_H 	H 	0.0019	0.5095	0.9623	0.024
Mof_N 	N 	0.20916	0.45879	0.9988	-0.159
Mof_N 	N 	0.25844	0.30852	0.14946	-0.159
Mof_C 	C 	0.28398	0.43502	0.05213	-0.144
Mof_H 	H 	0.3299	0.4397	0.0681	0.081
Mof_C 	C 	0.27353	0.4638	0.02276	0.076
Mof_H 	H 	0.3131	0.488	0.0193	0.008
Mof_C 	C 	0.15402	0.42357	0.00426	0.083
Mof_H 	H 	0.1091	0.4195	0.9877	0.01
Mof_C 	C 	0.15978	0.39291	0.03301	-0.146
Mof_H 	H 	0.12	0.3687	0.0356	0.098
Mof_C 	C 	0.22586	0.39879	0.05803	0.063
Mof_C 	C 	0.23486	0.36767	0.09006	0.057
Mof_C 	C 	0.2598	0.38485	0.12351	-0.133
Mof_H 	H 	0.269	0.4168	0.1266	0.085
Mof_C 	C 	0.27107	0.35439	0.15232	0.078
Mof_H 	H 	0.2882	0.3665	0.1746	0.022
Mof_C 	C 	0.23248	0.29229	0.11753	0.081
Mof_H 	H 	0.2225	0.2603	0.1154	-0.009
Mof_C 	C 	0.21943	0.31989	0.08744	-0.139
Mof_H 	H 	0.2006	0.3068	0.0657	0.077
Mof_Cd	Cd	0.21136	0.00813	0.44772	0.365
Mof_O 	O 	0.1199	0.06558	0.47945	-0.265
Mof_O 	O 	0.25877	0.06618	0.49005	-0.281
Mof_C 	C 	0.18314	0.07963	0.49701	0.279
Mof_C 	C 	0.16839	0.11324	0.52793	0.017
Mof_C 	C 	0.232	0.1167	0.55073	-0.246
Mof_H 	H 	0.2271	0.1363	0.5708	0.119
Mof_H 	H 	0.2826	0.0996	0.547	0.121
Mof_N 	N 	0.07496	0.98934	0.42226	-0.157
Mof_C 	C 	0.07055	0.97564	0.38769	0.077
Mof_H 	H 	0.1219	0.9675	0.3761	-0.005
Mof_C 	C 	0.99499	0.97283	0.36828	-0.145
Mof_H 	H 	0.9959	0.9636	0.3441	0.079
Mof_C 	C 	0.91671	0.98394	0.38514	0.058
Mof_C 	C 	0.9208	0.99658	0.4213	-0.139
Mof_H 	H 	0.8703	0.003	0.4341	0.088
Mof_C 	C 	0.00049	0.99963	0.43823	0.082
Mof_H 	H 	0.0019	0.0095	0.4623	0.023
Mof_N 	N 	0.20916	0.95879	0.4988	-0.158
Mof_N 	N 	0.25844	0.80852	0.64946	-0.159
Mof_C 	C 	0.28398	0.93502	0.55213	-0.143
Mof_H 	H 	0.3299	0.9397	0.5681	0.081
Mof_C 	C 	0.27353	0.9638	0.52276	0.075
Mof_H 	H 	0.3131	0.988	0.5193	0.008
Mof_C 	C 	0.15402	0.92357	0.50426	0.082
Mof_H 	H 	0.1091	0.9195	0.4877	0.01
Mof_C 	C 	0.15978	0.89291	0.53301	-0.146
Mof_H 	H 	0.12	0.8687	0.5356	0.097
Mof_C 	C 	0.22586	0.89879	0.55803	0.062
Mof_C 	C 	0.23486	0.86767	0.59006	0.057
Mof_C 	C 	0.2598	0.88485	0.62351	-0.133
Mof_H 	H 	0.269	0.9168	0.6266	0.085
Mof_C 	C 	0.27107	0.85439	0.65232	0.078
Mof_H 	H 	0.2882	0.8665	0.6746	0.022
Mof_C 	C 	0.23248	0.79229	0.61753	0.081
Mof_H 	H 	0.2225	0.7603	0.6154	-0.009
Mof_C 	C 	0.21943	0.81989	0.58744	-0.139
Mof_H 	H 	0.2006	0.8068	0.5657	0.077
Mof_Cd	Cd	0.71136	0.74187	0.80228	0.365
Mof_O 	O 	0.6199	0.68442	0.77055	-0.265
Mof_O 	O 	0.75877	0.68382	0.75995	-0.281
Mof_C 	C 	0.68314	0.67037	0.75299	0.279
Mof_C 	C 	0.66839	0.63676	0.72207	0.018
Mof_C 	C 	0.732	0.6333	0.69927	-0.246
Mof_H 	H 	0.7271	0.6137	0.6792	0.119
Mof_H 	H 	0.7826	0.6504	0.703	0.121
Mof_N 	N 	0.57496	0.76066	0.82774	-0.157
Mof_C 	C 	0.57055	0.77436	0.86231	0.077
Mof_H 	H 	0.6219	0.7825	0.8739	-0.005
Mof_C 	C 	0.49499	0.77717	0.88172	-0.145
Mof_H 	H 	0.4959	0.7864	0.9059	0.079
Mof_C 	C 	0.41671	0.76606	0.86486	0.057
Mof_C 	C 	0.4208	0.75342	0.8287	-0.138
Mof_H 	H 	0.3703	0.747	0.8159	0.087
Mof_C 	C 	0.50049	0.75037	0.81177	0.082
Mof_H 	H 	0.5019	0.7405	0.7877	0.024
Mof_N 	N 	0.70916	0.79121	0.7512	-0.158
Mof_N 	N 	0.75844	0.94148	0.60054	-0.159
Mof_C 	C 	0.78398	0.81498	0.69787	-0.143
Mof_H 	H 	0.8299	0.8103	0.6819	0.081
Mof_C 	C 	0.77353	0.7862	0.72724	0.075
Mof_H 	H 	0.8131	0.762	0.7307	0.008
Mof_C 	C 	0.65402	0.82643	0.74574	0.082
Mof_H 	H 	0.6091	0.8305	0.7623	0.01
Mof_C 	C 	0.65978	0.85709	0.71699	-0.146
Mof_H 	H 	0.62	0.8813	0.7144	0.097
Mof_C 	C 	0.72586	0.85121	0.69197	0.062
Mof_C 	C 	0.73486	0.88233	0.65994	0.057
Mof_C 	C 	0.7598	0.86515	0.62649	-0.133
Mof_H 	H 	0.769	0.8332	0.6234	0.085
Mof_C 	C 	0.77107	0.89561	0.59768	0.078
Mof_H 	H 	0.7882	0.8835	0.5754	0.022
Mof_C 	C 	0.73248	0.95771	0.63247	0.081
Mof_H 	H 	0.7225	0.9897	0.6346	-0.009
Mof_C 	C 	0.71943	0.93011	0.66256	-0.139
Mof_H 	H 	0.7006	0.9432	0.6843	0.077
Mof_Cd	Cd	0.71136	0.24187	0.30228	0.365
Mof_O 	O 	0.6199	0.18442	0.27055	-0.265
Mof_O 	O 	0.75877	0.18382	0.25995	-0.281
Mof_C 	C 	0.68314	0.17037	0.25299	0.279
Mof_C 	C 	0.66839	0.13676	0.22207	0.018
Mof_C 	C 	0.732	0.1333	0.19927	-0.246
Mof_H 	H 	0.7271	0.1137	0.1792	0.119
Mof_H 	H 	0.7826	0.1504	0.203	0.121
Mof_N 	N 	0.57496	0.26066	0.32774	-0.157
Mof_C 	C 	0.57055	0.27436	0.36231	0.077
Mof_H 	H 	0.6219	0.2825	0.3739	-0.005
Mof_C 	C 	0.49499	0.27717	0.38172	-0.145
Mof_H 	H 	0.4959	0.2864	0.4059	0.079
Mof_C 	C 	0.41671	0.26606	0.36486	0.057
Mof_C 	C 	0.4208	0.25342	0.3287	-0.138
Mof_H 	H 	0.3703	0.247	0.3159	0.087
Mof_C 	C 	0.50049	0.25037	0.31177	0.082
Mof_H 	H 	0.5019	0.2405	0.2877	0.024
Mof_N 	N 	0.70916	0.29121	0.2512	-0.158
Mof_N 	N 	0.75844	0.44148	0.10054	-0.159
Mof_C 	C 	0.78398	0.31498	0.19787	-0.143
Mof_H 	H 	0.8299	0.3103	0.1819	0.081
Mof_C 	C 	0.77353	0.2862	0.22724	0.075
Mof_H 	H 	0.8131	0.262	0.2307	0.008
Mof_C 	C 	0.65402	0.32643	0.24574	0.082
Mof_H 	H 	0.6091	0.3305	0.2623	0.01
Mof_C 	C 	0.65978	0.35709	0.21699	-0.146
Mof_H 	H 	0.62	0.3813	0.2144	0.097
Mof_C 	C 	0.72586	0.35121	0.19197	0.062
Mof_C 	C 	0.73486	0.38233	0.15994	0.057
Mof_C 	C 	0.7598	0.36515	0.12649	-0.133
Mof_H 	H 	0.769	0.3332	0.1234	0.085
Mof_C 	C 	0.77107	0.39561	0.09768	0.078
Mof_H 	H 	0.7882	0.3835	0.0754	0.022
Mof_C 	C 	0.73248	0.45771	0.13247	0.081
Mof_H 	H 	0.7225	0.4897	0.1346	-0.009
Mof_C 	C 	0.71943	0.43011	0.16256	-0.139
Mof_H 	H 	0.7006	0.4432	0.1843	0.077
Mof_Cd	Cd	0.21136	0.74187	0.30228	0.365
Mof_O 	O 	0.1199	0.68442	0.27055	-0.265
Mof_O 	O 	0.25877	0.68382	0.25995	-0.281
Mof_C 	C 	0.18314	0.67037	0.25299	0.279
Mof_C 	C 	0.16839	0.63676	0.22207	0.018
Mof_C 	C 	0.232	0.6333	0.19927	-0.246
Mof_H 	H 	0.2271	0.6137	0.1792	0.119
Mof_H 	H 	0.2826	0.6504	0.203	0.122
Mof_N 	N 	0.07496	0.76066	0.32774	-0.157
Mof_C 	C 	0.07055	0.77436	0.36231	0.077
Mof_H 	H 	0.1219	0.7825	0.3739	-0.005
Mof_C 	C 	0.99499	0.77717	0.38172	-0.145
Mof_H 	H 	0.9959	0.7864	0.4059	0.079
Mof_C 	C 	0.91671	0.76606	0.36486	0.057
Mof_C 	C 	0.9208	0.75342	0.3287	-0.139
Mof_H 	H 	0.8703	0.747	0.3159	0.087
Mof_C 	C 	0.00049	0.75037	0.31177	0.082
Mof_H 	H 	0.0019	0.7405	0.2877	0.024
Mof_N 	N 	0.20916	0.79121	0.2512	-0.158
Mof_N 	N 	0.25844	0.94148	0.10054	-0.159
Mof_C 	C 	0.28398	0.81498	0.19787	-0.143
Mof_H 	H 	0.3299	0.8103	0.1819	0.081
Mof_C 	C 	0.27353	0.7862	0.22724	0.075
Mof_H 	H 	0.3131	0.762	0.2307	0.008
Mof_C 	C 	0.15402	0.82643	0.24574	0.082
Mof_H 	H 	0.1091	0.8305	0.2623	0.01
Mof_C 	C 	0.15978	0.85709	0.21699	-0.146
Mof_H 	H 	0.12	0.8813	0.2144	0.097
Mof_C 	C 	0.22586	0.85121	0.19197	0.063
Mof_C 	C 	0.23486	0.88233	0.15994	0.057
Mof_C 	C 	0.2598	0.86515	0.12649	-0.133
Mof_H 	H 	0.269	0.8332	0.1234	0.085
Mof_C 	C 	0.27107	0.89561	0.09768	0.078
Mof_H 	H 	0.2882	0.8835	0.0754	0.022
Mof_C 	C 	0.23248	0.95771	0.13247	0.081
Mof_H 	H 	0.2225	0.9897	0.1346	-0.009
Mof_C 	C 	0.21943	0.93011	0.16256	-0.139
Mof_H 	H 	0.2006	0.9432	0.1843	0.077
Mof_Cd	Cd	0.21136	0.24187	0.80228	0.365
Mof_O 	O 	0.1199	0.18442	0.77055	-0.265
Mof_O 	O 	0.25877	0.18382	0.75995	-0.281
Mof_C 	C 	0.18314	0.17037	0.75299	0.279
Mof_C 	C 	0.16839	0.13676	0.72207	0.017
Mof_C 	C 	0.232	0.1333	0.69927	-0.246
Mof_H 	H 	0.2271	0.1137	0.6792	0.119
Mof_H 	H 	0.2826	0.1504	0.703	0.121
Mof_N 	N 	0.07496	0.26066	0.82774	-0.157
Mof_C 	C 	0.07055	0.27436	0.86231	0.076
Mof_H 	H 	0.1219	0.2825	0.8739	-0.005
Mof_C 	C 	0.99499	0.27717	0.88172	-0.144
Mof_H 	H 	0.9959	0.2864	0.9059	0.079
Mof_C 	C 	0.91671	0.26606	0.86486	0.057
Mof_C 	C 	0.9208	0.25342	0.8287	-0.138
Mof_H 	H 	0.8703	0.247	0.8159	0.087
Mof_C 	C 	0.00049	0.25037	0.81177	0.081
Mof_H 	H 	0.0019	0.2405	0.7877	0.024
Mof_N 	N 	0.20916	0.29121	0.7512	-0.158
Mof_N 	N 	0.25844	0.44148	0.60054	-0.159
Mof_C 	C 	0.28398	0.31498	0.69787	-0.143
Mof_H 	H 	0.3299	0.3103	0.6819	0.081
Mof_C 	C 	0.27353	0.2862	0.72724	0.075
Mof_H 	H 	0.3131	0.262	0.7307	0.008
Mof_C 	C 	0.15402	0.32643	0.74574	0.082
Mof_H 	H 	0.1091	0.3305	0.7623	0.01
Mof_C 	C 	0.15978	0.35709	0.71699	-0.146
Mof_H 	H 	0.12	0.3813	0.7144	0.097
Mof_C 	C 	0.22586	0.35121	0.69197	0.062
Mof_C 	C 	0.23486	0.38233	0.65994	0.057
Mof_C 	C 	0.2598	0.36515	0.62649	-0.133
Mof_H 	H 	0.269	0.3332	0.6234	0.085
Mof_C 	C 	0.27107	0.39561	0.59768	0.078
Mof_H 	H 	0.2882	0.3835	0.5754	0.022
Mof_C 	C 	0.23248	0.45771	0.63247	0.081
Mof_H 	H 	0.2225	0.4897	0.6346	-0.009
Mof_C 	C 	0.21943	0.43011	0.66256	-0.139
Mof_H 	H 	0.2006	0.4432	0.6843	0.077
Mof_Cd	Cd	0.53864	0.50813	0.80228	0.365
Mof_O 	O 	0.6301	0.56558	0.77055	-0.265
Mof_O 	O 	0.49123	0.56618	0.75995	-0.281
Mof_C 	C 	0.56686	0.57963	0.75299	0.279
Mof_C 	C 	0.58161	0.61324	0.72207	0.018
Mof_C 	C 	0.518	0.6167	0.69927	-0.246
Mof_H 	H 	0.5229	0.6363	0.6792	0.119
Mof_H 	H 	0.4674	0.5996	0.703	0.121
Mof_N 	N 	0.67504	0.48934	0.82774	-0.157
Mof_C 	C 	0.67945	0.47564	0.86231	0.077
Mof_H 	H 	0.6281	0.4675	0.8739	-0.005
Mof_C 	C 	0.75501	0.47283	0.88172	-0.145
Mof_H 	H 	0.7541	0.4636	0.9059	0.079
Mof_C 	C 	0.83329	0.48394	0.86486	0.057
Mof_C 	C 	0.8292	0.49658	0.8287	-0.138
Mof_H 	H 	0.8797	0.503	0.8159	0.087
Mof_C 	C 	0.74951	0.49963	0.81177	0.082
Mof_H 	H 	0.7481	0.5095	0.7877	0.024
Mof_N 	N 	0.54084	0.45879	0.7512	-0.158
Mof_N 	N 	0.49156	0.30852	0.60054	-0.159
Mof_C 	C 	0.46602	0.43502	0.69787	-0.143
Mof_H 	H 	0.4201	0.4397	0.6819	0.081
Mof_C 	C 	0.47647	0.4638	0.72724	0.075
Mof_H 	H 	0.4369	0.488	0.7307	0.008
Mof_C 	C 	0.59598	0.42357	0.74574	0.082
Mof_H 	H 	0.6409	0.4195	0.7623	0.01
Mof_C 	C 	0.59022	0.39291	0.71699	-0.146
Mof_H 	H 	0.63	0.3687	0.7144	0.097
Mof_C 	C 	0.52414	0.39879	0.69197	0.062
Mof_C 	C 	0.51514	0.36767	0.65994	0.057
Mof_C 	C 	0.4902	0.38485	0.62649	-0.133
Mof_H 	H 	0.481	0.4168	0.6234	0.085
Mof_C 	C 	0.47893	0.35439	0.59768	0.078
Mof_H 	H 	0.4618	0.3665	0.5754	0.022
Mof_C 	C 	0.51752	0.29229	0.63247	0.081
Mof_H 	H 	0.5275	0.2603	0.6346	-0.009
Mof_C 	C 	0.53057	0.31989	0.66256	-0.139
Mof_H 	H 	0.5494	0.3068	0.6843	0.077
Mof_Cd	Cd	0.53864	0.00813	0.30228	0.365
Mof_O 	O 	0.6301	0.06558	0.27055	-0.265
Mof_O 	O 	0.49123	0.06618	0.25995	-0.28
Mof_C 	C 	0.56686	0.07963	0.25299	0.279
Mof_C 	C 	0.58161	0.11324	0.22207	0.018
Mof_C 	C 	0.518	0.1167	0.19927	-0.246
Mof_H 	H 	0.5229	0.1363	0.1792	0.119
Mof_H 	H 	0.4674	0.0996	0.203	0.121
Mof_N 	N 	0.67504	0.98934	0.32774	-0.157
Mof_C 	C 	0.67945	0.97564	0.36231	0.077
Mof_H 	H 	0.6281	0.9675	0.3739	-0.005
Mof_C 	C 	0.75501	0.97283	0.38172	-0.145
Mof_H 	H 	0.7541	0.9636	0.4059	0.079
Mof_C 	C 	0.83329	0.98394	0.36486	0.057
Mof_C 	C 	0.8292	0.99658	0.3287	-0.138
Mof_H 	H 	0.8797	0.003	0.3159	0.088
Mof_C 	C 	0.74951	0.99963	0.31177	0.082
Mof_H 	H 	0.7481	0.0095	0.2877	0.024
Mof_N 	N 	0.54084	0.95879	0.2512	-0.158
Mof_N 	N 	0.49156	0.80852	0.10054	-0.159
Mof_C 	C 	0.46602	0.93502	0.19787	-0.143
Mof_H 	H 	0.4201	0.9397	0.1819	0.081
Mof_C 	C 	0.47647	0.9638	0.22724	0.075
Mof_H 	H 	0.4369	0.988	0.2307	0.008
Mof_C 	C 	0.59598	0.92357	0.24574	0.082
Mof_H 	H 	0.6409	0.9195	0.2623	0.01
Mof_C 	C 	0.59022	0.89291	0.21699	-0.146
Mof_H 	H 	0.63	0.8687	0.2144	0.097
Mof_C 	C 	0.52414	0.89879	0.19197	0.062
Mof_C 	C 	0.51514	0.86767	0.15994	0.057
Mof_C 	C 	0.4902	0.88485	0.12649	-0.133
Mof_H 	H 	0.481	0.9168	0.1234	0.085
Mof_C 	C 	0.47893	0.85439	0.09768	0.078
Mof_H 	H 	0.4618	0.8665	0.0754	0.022
Mof_C 	C 	0.51752	0.79229	0.13247	0.081
Mof_H 	H 	0.5275	0.7603	0.1346	-0.009
Mof_C 	C 	0.53057	0.81989	0.16256	-0.139
Mof_H 	H 	0.5494	0.8068	0.1843	0.077
Mof_Cd	Cd	0.03864	0.50813	0.30228	0.365
Mof_O 	O 	0.1301	0.56558	0.27055	-0.265
Mof_O 	O 	0.99123	0.56618	0.25995	-0.281
Mof_C 	C 	0.06686	0.57963	0.25299	0.279
Mof_C 	C 	0.08161	0.61324	0.22207	0.017
Mof_C 	C 	0.018	0.6167	0.19927	-0.245
Mof_H 	H 	0.0229	0.6363	0.1792	0.119
Mof_H 	H 	0.9674	0.5996	0.203	0.121
Mof_N 	N 	0.17504	0.48934	0.32774	-0.157
Mof_C 	C 	0.17945	0.47564	0.36231	0.077
Mof_H 	H 	0.1281	0.4675	0.3739	-0.005
Mof_C 	C 	0.25501	0.47283	0.38172	-0.145
Mof_H 	H 	0.2541	0.4636	0.4059	0.079
Mof_C 	C 	0.33329	0.48394	0.36486	0.057
Mof_C 	C 	0.3292	0.49658	0.3287	-0.138
Mof_H 	H 	0.3797	0.503	0.3159	0.087
Mof_C 	C 	0.24951	0.49963	0.31177	0.082
Mof_H 	H 	0.2481	0.5095	0.2877	0.024
Mof_N 	N 	0.04084	0.45879	0.2512	-0.158
Mof_N 	N 	0.99156	0.30852	0.10054	-0.159
Mof_C 	C 	0.96602	0.43502	0.19787	-0.143
Mof_H 	H 	0.9201	0.4397	0.1819	0.081
Mof_C 	C 	0.97647	0.4638	0.22724	0.075
Mof_H 	H 	0.9369	0.488	0.2307	0.008
Mof_C 	C 	0.09598	0.42357	0.24574	0.082
Mof_H 	H 	0.1409	0.4195	0.2623	0.01
Mof_C 	C 	0.09022	0.39291	0.21699	-0.146
Mof_H 	H 	0.13	0.3687	0.2144	0.097
Mof_C 	C 	0.02414	0.39879	0.19197	0.062
Mof_C 	C 	0.01514	0.36767	0.15994	0.058
Mof_C 	C 	0.9902	0.38485	0.12649	-0.133
Mof_H 	H 	0.981	0.4168	0.1234	0.085
Mof_C 	C 	0.97893	0.35439	0.09768	0.078
Mof_H 	H 	0.9618	0.3665	0.0754	0.022
Mof_C 	C 	0.01752	0.29229	0.13247	0.081
Mof_H 	H 	0.0275	0.2603	0.1346	-0.009
Mof_C 	C 	0.03057	0.31989	0.16256	-0.139
Mof_H 	H 	0.0494	0.3068	0.1843	0.077
Mof_Cd	Cd	0.03864	0.00813	0.80228	0.365
Mof_O 	O 	0.1301	0.06558	0.77055	-0.265
Mof_O 	O 	0.99123	0.06618	0.75995	-0.28
Mof_C 	C 	0.06686	0.07963	0.75299	0.278
Mof_C 	C 	0.08161	0.11324	0.72207	0.018
Mof_C 	C 	0.018	0.1167	0.69927	-0.246
Mof_H 	H 	0.0229	0.1363	0.6792	0.119
Mof_H 	H 	0.9674	0.0996	0.703	0.122
Mof_N 	N 	0.17504	0.98934	0.82774	-0.157
Mof_C 	C 	0.17945	0.97564	0.86231	0.077
Mof_H 	H 	0.1281	0.9675	0.8739	-0.005
Mof_C 	C 	0.25501	0.97283	0.88172	-0.145
Mof_H 	H 	0.2541	0.9636	0.9059	0.079
Mof_C 	C 	0.33329	0.98394	0.86486	0.057
Mof_C 	C 	0.3292	0.99658	0.8287	-0.138
Mof_H 	H 	0.3797	0.003	0.8159	0.087
Mof_C 	C 	0.24951	0.99963	0.81177	0.082
Mof_H 	H 	0.2481	0.0095	0.7877	0.023
Mof_N 	N 	0.04084	0.95879	0.7512	-0.158
Mof_N 	N 	0.99156	0.80852	0.60054	-0.159
Mof_C 	C 	0.96602	0.93502	0.69787	-0.143
Mof_H 	H 	0.9201	0.9397	0.6819	0.081
Mof_C 	C 	0.97647	0.9638	0.72724	0.075
Mof_H 	H 	0.9369	0.988	0.7307	0.008
Mof_C 	C 	0.09598	0.92357	0.74574	0.082
Mof_H 	H 	0.1409	0.9195	0.7623	0.01
Mof_C 	C 	0.09022	0.89291	0.71699	-0.146
Mof_H 	H 	0.13	0.8687	0.7144	0.097
Mof_C 	C 	0.02414	0.89879	0.69197	0.062
Mof_C 	C 	0.01514	0.86767	0.65994	0.057
Mof_C 	C 	0.9902	0.88485	0.62649	-0.133
Mof_H 	H 	0.981	0.9168	0.6234	0.085
Mof_C 	C 	0.97893	0.85439	0.59768	0.078
Mof_H 	H 	0.9618	0.8665	0.5754	0.022
Mof_C 	C 	0.01752	0.79229	0.63247	0.081
Mof_H 	H 	0.0275	0.7603	0.6346	-0.009
Mof_C 	C 	0.03057	0.81989	0.66256	-0.139
Mof_H 	H 	0.0494	0.8068	0.6843	0.077
_end
