data_functionalizedCrystal
_audit_creation_method	'EQeq! by Chris Wilmer'
_symmetry_space_group_name_H-M	'P1'
_symmetry_Int_Tables_number	1
_symmetry_cell_setting	triclinic
loop_
_symmetry_equiv_pos_as_xyz
  x,y,z
_cell_length_a	14.444
_cell_length_b	12.5254
_cell_length_c	13.3074
_cell_angle_alpha	90
_cell_angle_beta	90
_cell_angle_gamma	90
loop_
_atom_site_label
_atom_site_type_symbol
_atom_site_fract_x
_atom_site_fract_y
_atom_site_fract_z
_atom_site_charge
Mof_Cu	Cu	0.44843	0.53144	0.06814	0.78
Mof_Cu	Cu	0.38202	0.14404	0.02119	0.797
Mof_N 	N 	0.4293	0.2881	0.0194	-0.221
Mof_N 	N 	0.3223	0.5874	0.05	-0.222
Mof_C 	C 	0.4574	0.3735	0.0135	-0.357
Mof_C 	C 	0.246	0.6121	0.0404	-0.279
Mof_C 	C 	0.4734	0.0344	0.003	-0.273
Mof_N 	N 	0.0266	0.5344	0.003	-0.239
Mof_C 	C 	0.4881	0.5349	0.2097	-0.242
Mof_Cu	Cu	0.05157	0.96856	0.56814	0.78
Mof_Cu	Cu	0.11798	0.35596	0.52119	0.798
Mof_N 	N 	0.0707	0.2119	0.5194	-0.221
Mof_N 	N 	0.1777	0.9126	0.55	-0.222
Mof_C 	C 	0.0426	0.1265	0.5135	-0.354
Mof_C 	C 	0.254	0.8879	0.5404	-0.28
Mof_C 	C 	0.0266	0.4656	0.503	-0.276
Mof_N 	N 	0.4734	0.9656	0.503	-0.241
Mof_C 	C 	0.0119	0.9651	0.7097	-0.242
Mof_Cu	Cu	0.55157	0.53144	0.43186	0.781
Mof_Cu	Cu	0.61798	0.14404	0.47881	0.798
Mof_N 	N 	0.5707	0.2881	0.4806	-0.221
Mof_N 	N 	0.6777	0.5874	0.45	-0.222
Mof_C 	C 	0.5426	0.3735	0.4865	-0.356
Mof_C 	C 	0.754	0.6121	0.4596	-0.279
Mof_C 	C 	0.5266	0.0344	0.497	-0.272
Mof_N 	N 	0.9734	0.5344	0.497	-0.239
Mof_C 	C 	0.5119	0.5349	0.2903	-0.242
Mof_Cu	Cu	0.94843	0.96856	0.93186	0.779
Mof_Cu	Cu	0.88202	0.35596	0.97881	0.798
Mof_N 	N 	0.9293	0.2119	0.9806	-0.221
Mof_N 	N 	0.8223	0.9126	0.95	-0.222
Mof_C 	C 	0.9574	0.1265	0.9865	-0.352
Mof_C 	C 	0.746	0.8879	0.9596	-0.281
Mof_C 	C 	0.9734	0.4656	0.997	-0.276
Mof_N 	N 	0.5266	0.9656	0.997	-0.241
Mof_C 	C 	0.9881	0.9651	0.7903	-0.244
Mof_Cu	Cu	0.55157	0.46856	0.93186	0.781
Mof_Cu	Cu	0.61798	0.85596	0.97881	0.794
Mof_N 	N 	0.5707	0.7119	0.9806	-0.222
Mof_N 	N 	0.6777	0.4126	0.95	-0.221
Mof_C 	C 	0.5426	0.6265	0.9865	-0.357
Mof_C 	C 	0.754	0.3879	0.9596	-0.278
Mof_C 	C 	0.5119	0.4651	0.7903	-0.241
Mof_Cu	Cu	0.94843	0.03144	0.43186	0.782
Mof_Cu	Cu	0.88202	0.64404	0.47881	0.795
Mof_N 	N 	0.9293	0.7881	0.4806	-0.222
Mof_N 	N 	0.8223	0.0874	0.45	-0.221
Mof_C 	C 	0.9574	0.8735	0.4865	-0.358
Mof_C 	C 	0.746	0.1121	0.4596	-0.277
Mof_C 	C 	0.9881	0.0349	0.2903	-0.241
Mof_Cu	Cu	0.44843	0.46856	0.56814	0.781
Mof_Cu	Cu	0.38202	0.85596	0.52119	0.795
Mof_N 	N 	0.4293	0.7119	0.5194	-0.222
Mof_N 	N 	0.3223	0.4126	0.55	-0.221
Mof_C 	C 	0.4574	0.6265	0.5135	-0.357
Mof_C 	C 	0.246	0.3879	0.5404	-0.278
Mof_C 	C 	0.4881	0.4651	0.7097	-0.242
Mof_Cu	Cu	0.05157	0.03144	0.06814	0.781
Mof_Cu	Cu	0.11798	0.64404	0.02119	0.795
Mof_N 	N 	0.0707	0.7881	0.0194	-0.222
Mof_N 	N 	0.1777	0.0874	0.05	-0.222
Mof_C 	C 	0.0426	0.8735	0.0135	-0.356
Mof_C 	C 	0.254	0.1121	0.0404	-0.278
Mof_C 	C 	0.0119	0.0349	0.2097	-0.242
_end
