data_functionalizedCrystal
_audit_creation_method	'EQeq! by Chris Wilmer'
_symmetry_space_group_name_H-M	'P1'
_symmetry_Int_Tables_number	1
_symmetry_cell_setting	triclinic
loop_
_symmetry_equiv_pos_as_xyz
  x,y,z
_cell_length_a	8.8079
_cell_length_b	8.8079
_cell_length_c	21.1663
_cell_angle_alpha	90
_cell_angle_beta	90
_cell_angle_gamma	120
loop_
_atom_site_label
_atom_site_type_symbol
_atom_site_fract_x
_atom_site_fract_y
_atom_site_fract_z
_atom_site_charge
Mof_Ni	Ni	0.96527	0.94629	0.91718	1.14
Mof_Ni	Ni	0.98102	0.03473	0.58385	1.15
Mof_Ni	Ni	0.05371	0.01898	0.25052	1.148
Mof_Ni	Ni	0.01898	0.05371	0.08282	1.148
Mof_Ni	Ni	0.94629	0.96527	0.41615	1.142
Mof_Ni	Ni	0.03473	0.98102	0.74948	1.149
Mof_H 	H 	0.9221	0.39	0.9254	0.105
Mof_H 	H 	0.4074	0.8962	0.9112	0.102
Mof_H 	H 	0.636	0.85	0.8669	0.25
Mof_H 	H 	0.884	0.63	0.9724	0.255
Mof_H 	H 	0.4679	0.0779	0.59207	0.106
Mof_H 	H 	0.4888	0.5926	0.57787	0.1
Mof_H 	H 	0.214	0.364	0.53357	0.252
Mof_H 	H 	0.746	0.116	0.63907	0.258
Mof_H 	H 	0.61	0.5321	0.25873	0.104
Mof_H 	H 	0.1038	0.5112	0.24453	0.102
Mof_H 	H 	0.15	0.786	0.20023	0.252
Mof_H 	H 	0.37	0.254	0.30573	0.257
Mof_H 	H 	0.5321	0.61	0.0746	0.104
Mof_H 	H 	0.5112	0.1038	0.0888	0.102
Mof_H 	H 	0.786	0.15	0.1331	0.252
Mof_H 	H 	0.254	0.37	0.0276	0.258
Mof_H 	H 	0.39	0.9221	0.40793	0.106
Mof_H 	H 	0.8962	0.4074	0.42213	0.101
Mof_H 	H 	0.85	0.636	0.46643	0.25
Mof_H 	H 	0.63	0.884	0.36093	0.256
Mof_H 	H 	0.0779	0.4679	0.74127	0.106
Mof_H 	H 	0.5926	0.4888	0.75547	0.1
Mof_H 	H 	0.364	0.214	0.79977	0.252
Mof_H 	H 	0.116	0.746	0.69427	0.258
Mof_C 	C 	0.6376	0.9353	0.9482	0.184
Mof_C 	C 	0.9523	0.4594	0.88819	-0.191
Mof_C 	C 	0.4817	0.937	0.94714	-0.188
Mof_C 	C 	0.9496	0.6157	0.88765	0.2
Mof_C 	C 	0.2977	0.3624	0.61487	0.196
Mof_C 	C 	0.5071	0.0477	0.55486	-0.185
Mof_C 	C 	0.4553	0.5183	0.61381	-0.178
Mof_C 	C 	0.6661	0.0504	0.55432	0.21
Mof_C 	C 	0.0647	0.7023	0.28153	0.195
Mof_C 	C 	0.5406	0.4929	0.22152	-0.185
Mof_C 	C 	0.063	0.5447	0.28047	-0.18
Mof_C 	C 	0.3843	0.3339	0.22098	0.21
Mof_C 	C 	0.7023	0.0647	0.0518	0.195
Mof_C 	C 	0.4929	0.5406	0.11181	-0.186
Mof_C 	C 	0.5447	0.063	0.05286	-0.181
Mof_C 	C 	0.3339	0.3843	0.11235	0.21
Mof_C 	C 	0.9353	0.6376	0.38513	0.187
Mof_C 	C 	0.4594	0.9523	0.44514	-0.189
Mof_C 	C 	0.937	0.4817	0.38619	-0.184
Mof_C 	C 	0.6157	0.9496	0.44568	0.202
Mof_C 	C 	0.3624	0.2977	0.71847	0.196
Mof_C 	C 	0.0477	0.5071	0.77848	-0.185
Mof_C 	C 	0.5183	0.4553	0.71953	-0.178
Mof_C 	C 	0.0504	0.6661	0.77902	0.21
Mof_C 	C 	0.267	0	-0	0.3
Mof_C 	C 	0.7508	0	-0	-0
Mof_C 	C 	0.4354	0	-0	0.043
Mof_C 	C 	0.733	0.733	0.66667	0.306
Mof_C 	C 	0.2492	0.2492	0.66667	-0.013
Mof_C 	C 	0.5646	0.5646	0.66667	0.03
Mof_C 	C 	4.18058e-17	0.267	0.33333	0.303
Mof_C 	C 	-1.81527e-17	0.7508	0.33333	-0.003
Mof_C 	C 	-1.81527e-17	0.4354	0.33333	0.039
Mof_C 	C 	-5.41096e-18	0.7205	0.83333	-0.012
Mof_C 	C 	-5.41096e-18	0.2366	0.83333	0.31
Mof_C 	C 	-5.41096e-18	0.4056	0.83333	0.043
Mof_C 	C 	0.7205	-1.77513e-32	0.5	-0.014
Mof_C 	C 	0.2366	-1.77513e-32	0.5	0.309
Mof_C 	C 	0.4056	-1.77513e-32	0.5	0.041
Mof_C 	C 	0.2795	0.2795	0.16667	-0.022
Mof_C 	C 	0.7634	0.7634	0.16667	0.308
Mof_C 	C 	0.5944	0.5944	0.16667	0.036
Mof_O 	O 	0.2142	0.0255	0.94735	-0.383
Mof_O 	O 	0.6965	0.8701	0.90081	-0.508
Mof_O 	O 	0.0393	0.1913	0.88476	-0.388
Mof_O 	O 	0.8979	0.6808	0.93678	-0.517
Mof_O 	O 	0.8113	0.7858	0.61402	-0.398
Mof_O 	O 	0.1736	0.3035	0.56748	-0.504
Mof_O 	O 	0.152	0.9607	0.55143	-0.391
Mof_O 	O 	0.7829	0.1021	0.60345	-0.515
Mof_O 	O 	0.9745	0.1887	0.28068	-0.388
Mof_O 	O 	0.1299	0.8264	0.23414	-0.504
Mof_O 	O 	0.8087	0.848	0.21809	-0.396
Mof_O 	O 	0.3192	0.2171	0.27011	-0.516
Mof_O 	O 	0.1887	0.9745	0.05265	-0.385
Mof_O 	O 	0.8264	0.1299	0.09919	-0.504
Mof_O 	O 	0.848	0.8087	0.11524	-0.395
Mof_O 	O 	0.2171	0.3192	0.06322	-0.516
Mof_O 	O 	0.0255	0.2142	0.38598	-0.385
Mof_O 	O 	0.8701	0.6965	0.43252	-0.507
Mof_O 	O 	0.1913	0.0393	0.44857	-0.389
Mof_O 	O 	0.6808	0.8979	0.39655	-0.516
Mof_O 	O 	0.7858	0.8113	0.71932	-0.398
Mof_O 	O 	0.3035	0.1736	0.76586	-0.504
Mof_O 	O 	0.9607	0.152	0.78191	-0.392
Mof_O 	O 	0.1021	0.7829	0.72989	-0.515
Mof_O 	O 	0.9014	0	-0	-0.422
Mof_O 	O 	0.0986	0.0986	0.66667	-0.422
Mof_O 	O 	6.1792e-17	0.9014	0.33333	-0.423
Mof_O 	O 	-5.41096e-18	0.8714	0.83333	-0.424
Mof_O 	O 	0.8714	-1.77513e-32	0.5	-0.423
Mof_O 	O 	0.1286	0.1286	0.16667	-0.426
_end
