data_functionalizedCrystal
_audit_creation_method	'EQeq! by Chris Wilmer'
_symmetry_space_group_name_H-M	'P1'
_symmetry_Int_Tables_number	1
_symmetry_cell_setting	triclinic
loop_
_symmetry_equiv_pos_as_xyz
  x,y,z
_cell_length_a	10.1591
_cell_length_b	17.6487
_cell_length_c	22.6853
_cell_angle_alpha	90
_cell_angle_beta	99.592
_cell_angle_gamma	90
loop_
_atom_site_label
_atom_site_type_symbol
_atom_site_fract_x
_atom_site_fract_y
_atom_site_fract_z
_atom_site_charge
Mof_Zn	Zn	0.49309	0.80775	0.83316	1.238
Mof_Zn	Zn	0.6737	0.72506	0.72779	1.229
Mof_O 	O 	0.5118	0.6996	0.84742	-0.494
Mof_O 	O 	0.5254	0.3758	0.73484	-0.497
Mof_O 	O 	0.5744	0.6521	0.76595	-0.513
Mof_O 	O 	0.4477	0.3063	0.80261	-0.483
Mof_O 	O 	0.673	0.8414	0.87182	-0.479
Mof_O 	O 	0.7621	0.7834	0.8018	-0.511
Mof_O 	O 	0.256	0.79	0.81397	-0.342
Mof_O 	O 	0.3771	0.8531	0.88675	-0.426
Mof_O 	O 	0.6626	0.6924	0.6446	-0.35
Mof_N 	N 	0.4938	0.4716	0.98352	-0.086
Mof_N 	N 	0.0528	0.9874	0.9934	-0.095
Mof_N 	N 	0.6137	0.6458	0.5534	-0.18
Mof_C 	C 	0.5395	0.6455	0.8162	0.429
Mof_C 	C 	0.5272	0.5683	0.8401	-0.129
Mof_C 	C 	0.5179	0.5597	0.9002	-0.023
Mof_H 	H 	0.5204	0.6017	0.9251	0.062
Mof_C 	C 	0.5046	0.4863	0.9227	0.062
Mof_C 	C 	0.4948	0.4252	0.885	-0.031
Mof_H 	H 	0.4797	0.3773	0.8997	0.058
Mof_C 	C 	0.5069	0.4333	0.8259	-0.12
Mof_C 	C 	0.5233	0.5054	0.8046	0.063
Mof_H 	H 	0.5321	0.5115	0.7647	0.019
Mof_C 	C 	0.4935	0.367	0.7844	0.423
Mof_C 	C 	0.7682	0.8237	0.8476	0.421
Mof_C 	C 	0.9032	0.8527	0.875	-0.101
Mof_C 	C 	0.9121	0.9044	0.9212	-0.047
Mof_H 	H 	0.8351	0.921	0.9343	0.065
Mof_C 	C 	0.2638	0.831	0.8582	0.3
Mof_C 	C 	0.1423	0.8564	0.8809	-0.064
Mof_C 	C 	0.1508	0.9079	0.927	-0.072
Mof_H 	H 	0.2336	0.9271	0.9442	0.06
Mof_C 	C 	0.0359	0.9317	0.9481	0.076
Mof_C 	C 	0.0172	0.8305	0.8534	0.017
Mof_H 	H 	0.0103	0.7982	0.8206	0.038
Mof_C 	C 	0.625	0.6399	0.6104	0.707
Mof_C 	C 	0.6436	0.5618	0.6387	-1.191
Mof_H 	H 	0.648	0.5661	0.6811	0.39
Mof_H 	H 	0.7249	0.5398	0.6303	0.38
Mof_H 	H 	0.5695	0.5301	0.6224	0.386
Mof_C 	C 	0.5955	0.5796	0.5106	-0.316
Mof_H 	H 	0.6813	0.5615	0.5044	0.126
Mof_H 	H 	0.5447	0.5954	0.4731	0.134
Mof_H 	H 	0.5488	0.5396	0.5271	0.106
Mof_C 	C 	0.6015	0.7192	0.5307	-0.305
Mof_H 	H 	0.6698	0.7506	0.5527	0.128
Mof_H 	H 	0.5153	0.7391	0.5344	0.134
Mof_H 	H 	0.611	0.7186	0.4893	0.131
Mof_O 	O 	0.5927	0.6693	0.6465	-0.33
Mof_Zn	Zn	0.50691	0.30775	0.66684	1.239
Mof_Zn	Zn	0.3263	0.22506	0.77221	1.23
Mof_O 	O 	0.4882	0.1996	0.65258	-0.493
Mof_O 	O 	0.4746	0.8758	0.76516	-0.496
Mof_O 	O 	0.4256	0.1521	0.73405	-0.513
Mof_O 	O 	0.5523	0.8063	0.69739	-0.483
Mof_O 	O 	0.327	0.3414	0.62818	-0.479
Mof_O 	O 	0.2379	0.2834	0.6982	-0.511
Mof_O 	O 	0.744	0.29	0.68603	-0.342
Mof_O 	O 	0.6229	0.3531	0.61325	-0.426
Mof_O 	O 	0.3374	0.1924	0.8554	-0.35
Mof_N 	N 	0.5062	0.9716	0.51648	-0.086
Mof_N 	N 	0.9472	0.4874	0.5066	-0.095
Mof_N 	N 	0.3863	0.1458	0.9466	-0.18
Mof_C 	C 	0.4605	0.1455	0.6838	0.429
Mof_C 	C 	0.4728	0.0683	0.6599	-0.129
Mof_C 	C 	0.4821	0.0597	0.5998	-0.023
Mof_H 	H 	0.4796	0.1017	0.5749	0.062
Mof_C 	C 	0.4954	0.9863	0.5773	0.062
Mof_C 	C 	0.5052	0.9252	0.615	-0.031
Mof_H 	H 	0.5203	0.8773	0.6003	0.058
Mof_C 	C 	0.4931	0.9333	0.6741	-0.12
Mof_C 	C 	0.4767	0.0054	0.6954	0.063
Mof_H 	H 	0.4679	0.0115	0.7353	0.019
Mof_C 	C 	0.5065	0.867	0.7156	0.423
Mof_C 	C 	0.2318	0.3237	0.6524	0.421
Mof_C 	C 	0.0968	0.3527	0.625	-0.101
Mof_C 	C 	0.0879	0.4044	0.5788	-0.047
Mof_H 	H 	0.1649	0.421	0.5657	0.065
Mof_C 	C 	0.7362	0.331	0.6418	0.3
Mof_C 	C 	0.8577	0.3564	0.6191	-0.064
Mof_C 	C 	0.8492	0.4079	0.573	-0.072
Mof_H 	H 	0.7664	0.4271	0.5558	0.059
Mof_C 	C 	0.9641	0.4317	0.5519	0.075
Mof_C 	C 	0.9828	0.3305	0.6466	0.017
Mof_H 	H 	0.9897	0.2982	0.6794	0.038
Mof_C 	C 	0.375	0.1399	0.8896	0.707
Mof_C 	C 	0.3564	0.0618	0.8613	-1.19
Mof_H 	H 	0.352	0.0661	0.8189	0.39
Mof_H 	H 	0.2751	0.0398	0.8697	0.38
Mof_H 	H 	0.4305	0.0301	0.8776	0.386
Mof_C 	C 	0.4045	0.0796	0.9894	-0.316
Mof_H 	H 	0.3187	0.0615	0.9956	0.126
Mof_H 	H 	0.4553	0.0954	0.0269	0.134
Mof_H 	H 	0.4512	0.0396	0.9729	0.106
Mof_C 	C 	0.3985	0.2192	0.9693	-0.304
Mof_H 	H 	0.3302	0.2506	0.9473	0.128
Mof_H 	H 	0.4847	0.2391	0.9656	0.134
Mof_H 	H 	0.389	0.2186	0.0107	0.131
Mof_O 	O 	0.4073	0.1693	0.8535	-0.33
Mof_Zn	Zn	0.50691	0.19225	0.16684	1.239
Mof_Zn	Zn	0.3263	0.27494	0.27221	1.23
Mof_O 	O 	0.4882	0.3004	0.15258	-0.493
Mof_O 	O 	0.4746	0.6242	0.26516	-0.496
Mof_O 	O 	0.4256	0.3479	0.23405	-0.513
Mof_O 	O 	0.5523	0.6937	0.19739	-0.483
Mof_O 	O 	0.327	0.1586	0.12818	-0.479
Mof_O 	O 	0.2379	0.2166	0.1982	-0.511
Mof_O 	O 	0.744	0.21	0.18603	-0.342
Mof_O 	O 	0.6229	0.1469	0.11325	-0.426
Mof_O 	O 	0.3374	0.3076	0.3554	-0.35
Mof_N 	N 	0.5062	0.5284	0.01648	-0.086
Mof_N 	N 	0.9472	0.0126	0.0066	-0.095
Mof_N 	N 	0.3863	0.3542	0.4466	-0.18
Mof_C 	C 	0.4605	0.3545	0.1838	0.429
Mof_C 	C 	0.4728	0.4317	0.1599	-0.129
Mof_C 	C 	0.4821	0.4403	0.0998	-0.023
Mof_H 	H 	0.4796	0.3983	0.0749	0.062
Mof_C 	C 	0.4954	0.5137	0.0773	0.062
Mof_C 	C 	0.5052	0.5748	0.115	-0.031
Mof_H 	H 	0.5203	0.6227	0.1003	0.058
Mof_C 	C 	0.4931	0.5667	0.1741	-0.12
Mof_C 	C 	0.4767	0.4946	0.1954	0.063
Mof_H 	H 	0.4679	0.4885	0.2353	0.019
Mof_C 	C 	0.5065	0.633	0.2156	0.423
Mof_C 	C 	0.2318	0.1763	0.1524	0.421
Mof_C 	C 	0.0968	0.1473	0.125	-0.101
Mof_C 	C 	0.0879	0.0956	0.0788	-0.047
Mof_H 	H 	0.1649	0.079	0.0657	0.065
Mof_C 	C 	0.7362	0.169	0.1418	0.3
Mof_C 	C 	0.8577	0.1436	0.1191	-0.064
Mof_C 	C 	0.8492	0.0921	0.073	-0.072
Mof_H 	H 	0.7664	0.0729	0.0558	0.06
Mof_C 	C 	0.9641	0.0683	0.0519	0.076
Mof_C 	C 	0.9828	0.1695	0.1466	0.017
Mof_H 	H 	0.9897	0.2018	0.1794	0.038
Mof_C 	C 	0.375	0.3601	0.3896	0.707
Mof_C 	C 	0.3564	0.4382	0.3613	-1.191
Mof_H 	H 	0.352	0.4339	0.3189	0.39
Mof_H 	H 	0.2751	0.4602	0.3697	0.38
Mof_H 	H 	0.4305	0.4699	0.3776	0.386
Mof_C 	C 	0.4045	0.4204	0.4894	-0.316
Mof_H 	H 	0.3187	0.4385	0.4956	0.126
Mof_H 	H 	0.4553	0.4046	0.5269	0.134
Mof_H 	H 	0.4512	0.4604	0.4729	0.106
Mof_C 	C 	0.3985	0.2808	0.4693	-0.305
Mof_H 	H 	0.3302	0.2494	0.4473	0.128
Mof_H 	H 	0.4847	0.2609	0.4656	0.134
Mof_H 	H 	0.389	0.2814	0.5107	0.131
Mof_O 	O 	0.4073	0.3307	0.3535	-0.33
Mof_Zn	Zn	0.49309	0.69225	0.33316	1.239
Mof_Zn	Zn	0.6737	0.77494	0.22779	1.23
Mof_O 	O 	0.5118	0.8004	0.34742	-0.493
Mof_O 	O 	0.5254	0.1242	0.23484	-0.496
Mof_O 	O 	0.5744	0.8479	0.26595	-0.513
Mof_O 	O 	0.4477	0.1937	0.30261	-0.483
Mof_O 	O 	0.673	0.6586	0.37182	-0.479
Mof_O 	O 	0.7621	0.7166	0.3018	-0.511
Mof_O 	O 	0.256	0.71	0.31397	-0.342
Mof_O 	O 	0.3771	0.6469	0.38675	-0.426
Mof_O 	O 	0.6626	0.8076	0.1446	-0.35
Mof_N 	N 	0.4938	0.0284	0.48352	-0.086
Mof_N 	N 	0.0528	0.5126	0.4934	-0.095
Mof_N 	N 	0.6137	0.8542	0.0534	-0.18
Mof_C 	C 	0.5395	0.8545	0.3162	0.429
Mof_C 	C 	0.5272	0.9317	0.3401	-0.129
Mof_C 	C 	0.5179	0.9403	0.4002	-0.023
Mof_H 	H 	0.5204	0.8983	0.4251	0.062
Mof_C 	C 	0.5046	0.0137	0.4227	0.062
Mof_C 	C 	0.4948	0.0748	0.385	-0.031
Mof_H 	H 	0.4797	0.1227	0.3997	0.058
Mof_C 	C 	0.5069	0.0667	0.3259	-0.12
Mof_C 	C 	0.5233	0.9946	0.3046	0.063
Mof_H 	H 	0.5321	0.9885	0.2647	0.019
Mof_C 	C 	0.4935	0.133	0.2844	0.423
Mof_C 	C 	0.7682	0.6763	0.3476	0.421
Mof_C 	C 	0.9032	0.6473	0.375	-0.101
Mof_C 	C 	0.9121	0.5956	0.4212	-0.047
Mof_H 	H 	0.8351	0.579	0.4343	0.065
Mof_C 	C 	0.2638	0.669	0.3582	0.3
Mof_C 	C 	0.1423	0.6436	0.3809	-0.064
Mof_C 	C 	0.1508	0.5921	0.427	-0.072
Mof_H 	H 	0.2336	0.5729	0.4442	0.059
Mof_C 	C 	0.0359	0.5683	0.4481	0.075
Mof_C 	C 	0.0172	0.6695	0.3534	0.017
Mof_H 	H 	0.0103	0.7018	0.3206	0.038
Mof_C 	C 	0.625	0.8601	0.1104	0.707
Mof_C 	C 	0.6436	0.9382	0.1387	-1.19
Mof_H 	H 	0.648	0.9339	0.1811	0.39
Mof_H 	H 	0.7249	0.9602	0.1303	0.38
Mof_H 	H 	0.5695	0.9699	0.1224	0.386
Mof_C 	C 	0.5955	0.9204	0.0106	-0.316
Mof_H 	H 	0.6813	0.9385	0.0044	0.126
Mof_H 	H 	0.5447	0.9046	0.9731	0.134
Mof_H 	H 	0.5488	0.9604	0.0271	0.106
Mof_C 	C 	0.6015	0.7808	0.0307	-0.304
Mof_H 	H 	0.6698	0.7494	0.0527	0.128
Mof_H 	H 	0.5153	0.7609	0.0344	0.134
Mof_H 	H 	0.611	0.7814	0.9893	0.131
Mof_O 	O 	0.5927	0.8307	0.1465	-0.33
_end
