data_functionalizedCrystal
_audit_creation_method	'EQeq! by Chris Wilmer'
_symmetry_space_group_name_H-M	'P1'
_symmetry_Int_Tables_number	1
_symmetry_cell_setting	triclinic
loop_
_symmetry_equiv_pos_as_xyz
  x,y,z
_cell_length_a	5.3667
_cell_length_b	22.228
_cell_length_c	8.8952
_cell_angle_alpha	90
_cell_angle_beta	98.7072
_cell_angle_gamma	90
loop_
_atom_site_label
_atom_site_type_symbol
_atom_site_fract_x
_atom_site_fract_y
_atom_site_fract_z
_atom_site_charge
Mof_N 	N 	0.2752	0.81195	0.3711	-0.273
Mof_N 	N 	0.1751	0.91104	0.1237	-0.261
Mof_C 	C 	0.4582	0.79437	0.4382	0.115
Mof_C 	C 	0.6922	0.77374	0.5233	-0.16
Mof_H 	H 	0.7636	0.7943	0.6133	0.079
Mof_C 	C 	0.2725	0.9545	0.0884	0.146
Mof_C 	C 	0.4128	0.0044	0.0424	-0.011
Mof_H 	H 	0.3783	0.044	0.0738	0.028
Mof_C 	C 	0.3173	0.9349	0.0565	-0.061
Mof_C 	C 	0.4861	0.9707	0.9844	-0.105
Mof_H 	H 	0.5793	0.9527	0.9136	0.013
Mof_N 	N 	0.7752	0.31195	0.3711	-0.274
Mof_N 	N 	0.6751	0.41104	0.1237	-0.233
Mof_C 	C 	0.9582	0.29437	0.4382	0.175
Mof_C 	C 	0.1922	0.27374	0.5233	-0.204
Mof_H 	H 	0.2636	0.2943	0.6133	0.076
Mof_C 	C 	0.7725	0.4545	0.0884	0.086
Mof_C 	C 	0.9128	0.5044	0.0424	0.068
Mof_H 	H 	0.8783	0.544	0.0738	0.07
Mof_C 	C 	0.8173	0.4349	0.0565	-0.042
Mof_C 	C 	0.9861	0.4707	0.9844	0.028
Mof_H 	H 	0.0793	0.4527	0.9136	0.023
Mof_N 	N 	0.7248	0.81195	0.1289	-0.246
Mof_N 	N 	0.8249	0.91104	0.3763	-0.229
Mof_C 	C 	0.5418	0.79437	0.0618	0.115
Mof_C 	C 	0.3078	0.77374	0.9767	-0.129
Mof_H 	H 	0.2364	0.7943	0.8867	0.046
Mof_C 	C 	0.7275	0.9545	0.4116	0.063
Mof_C 	C 	0.5872	0.0044	0.4576	0.02
Mof_H 	H 	0.6217	0.044	0.4262	0.027
Mof_C 	C 	0.6827	0.9349	0.4435	0.018
Mof_C 	C 	0.5139	0.9707	0.5156	-0.081
Mof_H 	H 	0.4207	0.9527	0.5864	0.005
Mof_N 	N 	0.2248	0.31195	0.1289	-0.254
Mof_N 	N 	0.3249	0.41104	0.3763	-0.265
Mof_C 	C 	0.0418	0.29437	0.0618	0.057
Mof_C 	C 	0.8078	0.27374	0.9767	-0.087
Mof_H 	H 	0.7364	0.2943	0.8867	0.049
Mof_C 	C 	0.2275	0.4545	0.4116	0.121
Mof_C 	C 	0.0872	0.5044	0.4576	-0.062
Mof_H 	H 	0.1217	0.544	0.4262	-0.018
Mof_C 	C 	0.1827	0.4349	0.4435	-0.001
Mof_C 	C 	0.0139	0.4707	0.5156	-0.215
Mof_H 	H 	0.9207	0.4527	0.5864	-0.005
Mof_N 	N 	0.7248	0.18805	0.6289	-0.239
Mof_N 	N 	0.8249	0.08896	0.8763	-0.228
Mof_C 	C 	0.5418	0.20563	0.5618	0.082
Mof_C 	C 	0.3078	0.22626	0.4767	-0.064
Mof_H 	H 	0.2364	0.2057	0.3867	0.027
Mof_C 	C 	0.7275	0.0455	0.9116	0.029
Mof_C 	C 	0.5872	0.9956	0.9576	0.02
Mof_H 	H 	0.6217	0.956	0.9262	0.034
Mof_C 	C 	0.6827	0.0651	0.9435	0.036
Mof_C 	C 	0.5139	0.0293	0.0156	-0.057
Mof_H 	H 	0.4207	0.0473	0.0864	0.004
Mof_N 	N 	0.2248	0.68805	0.6289	-0.247
Mof_N 	N 	0.3249	0.58896	0.8763	-0.264
Mof_C 	C 	0.0418	0.70563	0.5618	0.023
Mof_C 	C 	0.8078	0.72626	0.4767	-0.021
Mof_H 	H 	0.7364	0.7057	0.3867	0.031
Mof_C 	C 	0.2275	0.5455	0.9116	0.072
Mof_C 	C 	0.0872	0.4956	0.9576	-0.07
Mof_H 	H 	0.1217	0.456	0.9262	-0.012
Mof_C 	C 	0.1827	0.5651	0.9435	0.032
Mof_C 	C 	0.0139	0.5293	0.0156	-0.182
Mof_H 	H 	0.9207	0.5473	0.0864	-0.005
Mof_N 	N 	0.2752	0.18805	0.8711	-0.267
Mof_N 	N 	0.1751	0.08896	0.6237	-0.26
Mof_C 	C 	0.4582	0.20563	0.9382	0.082
Mof_C 	C 	0.6922	0.22626	0.0233	-0.095
Mof_H 	H 	0.7636	0.2057	0.1133	0.061
Mof_C 	C 	0.2725	0.0455	0.5884	0.106
Mof_C 	C 	0.4128	0.9956	0.5424	-0.017
Mof_H 	H 	0.3783	0.956	0.5738	0.033
Mof_C 	C 	0.3173	0.0651	0.5565	-0.036
Mof_C 	C 	0.4861	0.0293	0.4844	-0.075
Mof_H 	H 	0.5793	0.0473	0.4136	0.013
Mof_N 	N 	0.7752	0.68805	0.8711	-0.267
Mof_N 	N 	0.6751	0.58896	0.6237	-0.232
Mof_C 	C 	0.9582	0.70563	0.9382	0.141
Mof_C 	C 	0.1922	0.72626	0.0233	-0.139
Mof_H 	H 	0.2636	0.7057	0.1133	0.058
Mof_C 	C 	0.7725	0.5455	0.5884	0.053
Mof_C 	C 	0.9128	0.4956	0.5424	0.069
Mof_H 	H 	0.8783	0.456	0.5738	0.079
Mof_C 	C 	0.8173	0.5651	0.5565	-0.024
Mof_C 	C 	0.9861	0.5293	0.4844	0.053
Mof_H 	H 	0.0793	0.5473	0.4136	0.021
Mof_Cu	Cu	1.35485e-17	0.85688	0.25	0.848
Mof_Cu	Cu	0.5	0.35688	0.25	0.87
Mof_Cu	Cu	2.7097e-17	0.14312	0.75	0.845
Mof_Cu	Cu	0.5	0.64312	0.75	0.867
_end
