data_functionalizedCrystal
_audit_creation_method	'EQeq! by Chris Wilmer'
_symmetry_space_group_name_H-M	'P1'
_symmetry_Int_Tables_number	1
_symmetry_cell_setting	triclinic
loop_
_symmetry_equiv_pos_as_xyz
  x,y,z
_cell_length_a	25.384
_cell_length_b	25.384
_cell_length_c	25.384
_cell_angle_alpha	90
_cell_angle_beta	90
_cell_angle_gamma	90
loop_
_atom_site_label
_atom_site_type_symbol
_atom_site_fract_x
_atom_site_fract_y
_atom_site_fract_z
_atom_site_charge
Mof_O 	O 	0.1831	0.1889	0.098	-0.429
Mof_O 	O 	0.1878	0.2298	0.8277	-0.521
Mof_O 	O 	0.2368	0.3021	0.844	-0.508
Mof_O 	O 	0.2662	0.2451	0.1032	-0.451
Mof_C 	C 	0.1836	0.1964	0.99	-0.161
Mof_H 	H 	0.1618	0.171	0.0049	0.124
Mof_C 	C 	0.251	0.2722	0.0032	-0.109
Mof_H 	H 	0.2708	0.294	0.025	0.086
Mof_C 	C 	0.2118	0.2609	0.856	0.421
Mof_C 	C 	0.2204	0.2287	0.0212	0.048
Mof_C 	C 	0.2219	0.2227	0.0806	0.189
Mof_C 	C 	0.213	0.2464	0.9155	-0.177
Mof_C 	C 	0.2473	0.278	0.9454	0.06
Mof_H 	H 	0.2681	0.3031	0.9285	0.035
Mof_C 	C 	0.1846	0.2073	0.9366	0.197
Mof_N 	N 	0.1583	0.1679	0.9065	-0.242
Mof_H 	H 	0.1439	0.1832	0.8799	0.149
Mof_O 	O 	0.1676	0.088	0.9437	-0.204
Mof_C 	C 	0.0975	0.1172	0.8234	0.056
Mof_H 	H 	0.1036	0.1533	0.8221	0.009
Mof_C 	C 	0.1181	0.0922	0.8647	-0.108
Mof_C 	C 	0.121	0.0406	0.881	0.04
Mof_H 	H 	0.1382	0.0258	0.9102	0.046
Mof_C 	C 	0.0683	0.0968	0.7823	-0.145
Mof_H 	H 	0.0519	0.1116	0.7531	0.094
Mof_C 	C 	0.0922	0.018	0.843	-0.125
Mof_H 	H 	0.0852	0.9825	0.8446	0.081
Mof_C 	C 	0.0725	0.047	0.801	0.08
Mof_C 	C 	0.1471	0.116	0.9033	0.209
Mof_Zn	Zn	0.25066	0.17647	0.27217	1.21
Mof_O 	O 	0.3169	0.8111	0.598	-0.43
Mof_O 	O 	0.3122	0.7702	0.3277	-0.522
Mof_O 	O 	0.2632	0.6979	0.344	-0.509
Mof_O 	O 	0.2338	0.7549	0.6032	-0.452
Mof_C 	C 	0.3164	0.8036	0.49	-0.163
Mof_H 	H 	0.3382	0.829	0.5049	0.124
Mof_C 	C 	0.249	0.7278	0.5032	-0.109
Mof_H 	H 	0.2292	0.706	0.525	0.085
Mof_C 	C 	0.2882	0.7391	0.356	0.42
Mof_C 	C 	0.2796	0.7713	0.5212	0.048
Mof_C 	C 	0.2781	0.7773	0.5806	0.187
Mof_C 	C 	0.287	0.7536	0.4155	-0.178
Mof_C 	C 	0.2527	0.722	0.4454	0.059
Mof_H 	H 	0.2319	0.6969	0.4285	0.034
Mof_C 	C 	0.3154	0.7927	0.4366	0.197
Mof_N 	N 	0.3417	0.8321	0.4065	-0.243
Mof_H 	H 	0.3561	0.8168	0.3799	0.148
Mof_O 	O 	0.3324	0.912	0.4437	-0.205
Mof_C 	C 	0.4025	0.8828	0.3234	0.055
Mof_H 	H 	0.3964	0.8467	0.3221	0.008
Mof_C 	C 	0.3819	0.9078	0.3647	-0.108
Mof_C 	C 	0.379	0.9594	0.381	0.038
Mof_H 	H 	0.3618	0.9742	0.4102	0.045
Mof_C 	C 	0.4317	0.9032	0.2823	-0.146
Mof_H 	H 	0.4481	0.8884	0.2531	0.093
Mof_C 	C 	0.4078	0.982	0.343	-0.126
Mof_H 	H 	0.4148	0.0175	0.3446	0.081
Mof_C 	C 	0.4275	0.953	0.301	0.08
Mof_C 	C 	0.3529	0.884	0.4033	0.209
Mof_Zn	Zn	0.24934	0.82353	0.77217	1.21
Mof_O 	O 	0.8169	0.6889	0.402	-0.43
Mof_O 	O 	0.8122	0.7298	0.6723	-0.522
Mof_O 	O 	0.7632	0.8021	0.656	-0.509
Mof_O 	O 	0.7338	0.7451	0.3968	-0.452
Mof_C 	C 	0.8164	0.6964	0.51	-0.163
Mof_H 	H 	0.8382	0.671	0.4951	0.124
Mof_C 	C 	0.749	0.7722	0.4968	-0.11
Mof_H 	H 	0.7292	0.794	0.475	0.085
Mof_C 	C 	0.7882	0.7609	0.644	0.42
Mof_C 	C 	0.7796	0.7287	0.4788	0.048
Mof_C 	C 	0.7781	0.7227	0.4194	0.187
Mof_C 	C 	0.787	0.7464	0.5845	-0.178
Mof_C 	C 	0.7527	0.778	0.5546	0.059
Mof_H 	H 	0.7319	0.8031	0.5715	0.034
Mof_C 	C 	0.8154	0.7073	0.5634	0.197
Mof_N 	N 	0.8417	0.6679	0.5935	-0.243
Mof_H 	H 	0.8561	0.6832	0.6201	0.148
Mof_O 	O 	0.8324	0.588	0.5563	-0.205
Mof_C 	C 	0.9025	0.6172	0.6766	0.055
Mof_H 	H 	0.8964	0.6533	0.6779	0.008
Mof_C 	C 	0.8819	0.5922	0.6353	-0.109
Mof_C 	C 	0.879	0.5406	0.619	0.038
Mof_H 	H 	0.8618	0.5258	0.5898	0.045
Mof_C 	C 	0.9317	0.5968	0.7177	-0.146
Mof_H 	H 	0.9481	0.6116	0.7469	0.093
Mof_C 	C 	0.9078	0.518	0.657	-0.126
Mof_H 	H 	0.9148	0.4825	0.6554	0.081
Mof_C 	C 	0.9275	0.547	0.699	0.08
Mof_C 	C 	0.8529	0.616	0.5967	0.209
Mof_Zn	Zn	0.74934	0.67647	0.22783	1.21
Mof_O 	O 	0.6831	0.3111	0.902	-0.43
Mof_O 	O 	0.6878	0.2702	0.1723	-0.522
Mof_O 	O 	0.7368	0.1979	0.156	-0.509
Mof_O 	O 	0.7662	0.2549	0.8968	-0.452
Mof_C 	C 	0.6836	0.3036	0.01	-0.164
Mof_H 	H 	0.6618	0.329	0.9951	0.124
Mof_C 	C 	0.751	0.2278	0.9968	-0.11
Mof_H 	H 	0.7708	0.206	0.975	0.085
Mof_C 	C 	0.7118	0.2391	0.144	0.42
Mof_C 	C 	0.7204	0.2713	0.9788	0.048
Mof_C 	C 	0.7219	0.2773	0.9194	0.187
Mof_C 	C 	0.713	0.2536	0.0845	-0.178
Mof_C 	C 	0.7473	0.222	0.0546	0.059
Mof_H 	H 	0.7681	0.1969	0.0715	0.034
Mof_C 	C 	0.6846	0.2927	0.0634	0.197
Mof_N 	N 	0.6583	0.3321	0.0935	-0.243
Mof_H 	H 	0.6439	0.3168	0.1201	0.148
Mof_O 	O 	0.6676	0.412	0.0563	-0.205
Mof_C 	C 	0.5975	0.3828	0.1766	0.055
Mof_H 	H 	0.6036	0.3467	0.1779	0.008
Mof_C 	C 	0.6181	0.4078	0.1353	-0.109
Mof_C 	C 	0.621	0.4594	0.119	0.038
Mof_H 	H 	0.6382	0.4742	0.0898	0.045
Mof_C 	C 	0.5683	0.4032	0.2177	-0.146
Mof_H 	H 	0.5519	0.3884	0.2469	0.093
Mof_C 	C 	0.5922	0.482	0.157	-0.126
Mof_H 	H 	0.5852	0.5175	0.1554	0.081
Mof_C 	C 	0.5725	0.453	0.199	0.08
Mof_C 	C 	0.6471	0.384	0.0967	0.209
Mof_Zn	Zn	0.75066	0.32353	0.72783	1.21
Mof_O 	O 	0.098	0.1831	0.1889	-0.43
Mof_O 	O 	0.8277	0.1878	0.2298	-0.522
Mof_O 	O 	0.844	0.2368	0.3021	-0.509
Mof_O 	O 	0.1032	0.2662	0.2451	-0.452
Mof_C 	C 	0.99	0.1836	0.1964	-0.162
Mof_H 	H 	0.0049	0.1618	0.171	0.123
Mof_C 	C 	0.0032	0.251	0.2722	-0.11
Mof_H 	H 	0.025	0.2708	0.294	0.085
Mof_C 	C 	0.856	0.2118	0.2609	0.42
Mof_C 	C 	0.0212	0.2204	0.2287	0.047
Mof_C 	C 	0.0806	0.2219	0.2227	0.188
Mof_C 	C 	0.9155	0.213	0.2464	-0.178
Mof_C 	C 	0.9454	0.2473	0.278	0.059
Mof_H 	H 	0.9285	0.2681	0.3031	0.034
Mof_C 	C 	0.9366	0.1846	0.2073	0.196
Mof_N 	N 	0.9065	0.1583	0.1679	-0.243
Mof_H 	H 	0.8799	0.1439	0.1832	0.148
Mof_O 	O 	0.9437	0.1676	0.088	-0.205
Mof_C 	C 	0.8234	0.0975	0.1172	0.055
Mof_H 	H 	0.8221	0.1036	0.1533	0.008
Mof_C 	C 	0.8647	0.1181	0.0922	-0.109
Mof_C 	C 	0.881	0.121	0.0406	0.039
Mof_H 	H 	0.9102	0.1382	0.0258	0.045
Mof_C 	C 	0.7823	0.0683	0.0968	-0.146
Mof_H 	H 	0.7531	0.0519	0.1116	0.093
Mof_C 	C 	0.843	0.0922	0.018	-0.126
Mof_H 	H 	0.8446	0.0852	0.9825	0.081
Mof_C 	C 	0.801	0.0725	0.047	0.08
Mof_C 	C 	0.9033	0.1471	0.116	0.209
Mof_Zn	Zn	0.27217	0.25066	0.17647	1.21
Mof_O 	O 	0.598	0.3169	0.8111	-0.43
Mof_O 	O 	0.3277	0.3122	0.7702	-0.522
Mof_O 	O 	0.344	0.2632	0.6979	-0.509
Mof_O 	O 	0.6032	0.2338	0.7549	-0.452
Mof_C 	C 	0.49	0.3164	0.8036	-0.163
Mof_H 	H 	0.5049	0.3382	0.829	0.124
Mof_C 	C 	0.5032	0.249	0.7278	-0.109
Mof_H 	H 	0.525	0.2292	0.706	0.085
Mof_C 	C 	0.356	0.2882	0.7391	0.42
Mof_C 	C 	0.5212	0.2796	0.7713	0.048
Mof_C 	C 	0.5806	0.2781	0.7773	0.187
Mof_C 	C 	0.4155	0.287	0.7536	-0.178
Mof_C 	C 	0.4454	0.2527	0.722	0.059
Mof_H 	H 	0.4285	0.2319	0.6969	0.034
Mof_C 	C 	0.4366	0.3154	0.7927	0.197
Mof_N 	N 	0.4065	0.3417	0.8321	-0.243
Mof_H 	H 	0.3799	0.3561	0.8168	0.148
Mof_O 	O 	0.4437	0.3324	0.912	-0.205
Mof_C 	C 	0.3234	0.4025	0.8828	0.055
Mof_H 	H 	0.3221	0.3964	0.8467	0.008
Mof_C 	C 	0.3647	0.3819	0.9078	-0.108
Mof_C 	C 	0.381	0.379	0.9594	0.038
Mof_H 	H 	0.4102	0.3618	0.9742	0.045
Mof_C 	C 	0.2823	0.4317	0.9032	-0.146
Mof_H 	H 	0.2531	0.4481	0.8884	0.093
Mof_C 	C 	0.343	0.4078	0.982	-0.126
Mof_H 	H 	0.3446	0.4148	0.0175	0.081
Mof_C 	C 	0.301	0.4275	0.953	0.08
Mof_C 	C 	0.4033	0.3529	0.884	0.209
Mof_Zn	Zn	0.77217	0.24934	0.82353	1.21
Mof_O 	O 	0.402	0.8169	0.6889	-0.43
Mof_O 	O 	0.6723	0.8122	0.7298	-0.522
Mof_O 	O 	0.656	0.7632	0.8021	-0.509
Mof_O 	O 	0.3968	0.7338	0.7451	-0.452
Mof_C 	C 	0.51	0.8164	0.6964	-0.163
Mof_H 	H 	0.4951	0.8382	0.671	0.124
Mof_C 	C 	0.4968	0.749	0.7722	-0.11
Mof_H 	H 	0.475	0.7292	0.794	0.085
Mof_C 	C 	0.644	0.7882	0.7609	0.42
Mof_C 	C 	0.4788	0.7796	0.7287	0.048
Mof_C 	C 	0.4194	0.7781	0.7227	0.187
Mof_C 	C 	0.5845	0.787	0.7464	-0.178
Mof_C 	C 	0.5546	0.7527	0.778	0.059
Mof_H 	H 	0.5715	0.7319	0.8031	0.034
Mof_C 	C 	0.5634	0.8154	0.7073	0.197
Mof_N 	N 	0.5935	0.8417	0.6679	-0.243
Mof_H 	H 	0.6201	0.8561	0.6832	0.148
Mof_O 	O 	0.5563	0.8324	0.588	-0.205
Mof_C 	C 	0.6766	0.9025	0.6172	0.055
Mof_H 	H 	0.6779	0.8964	0.6533	0.008
Mof_C 	C 	0.6353	0.8819	0.5922	-0.109
Mof_C 	C 	0.619	0.879	0.5406	0.038
Mof_H 	H 	0.5898	0.8618	0.5258	0.045
Mof_C 	C 	0.7177	0.9317	0.5968	-0.146
Mof_H 	H 	0.7469	0.9481	0.6116	0.093
Mof_C 	C 	0.657	0.9078	0.518	-0.126
Mof_H 	H 	0.6554	0.9148	0.4825	0.081
Mof_C 	C 	0.699	0.9275	0.547	0.08
Mof_C 	C 	0.5967	0.8529	0.616	0.209
Mof_Zn	Zn	0.22783	0.74934	0.67647	1.21
Mof_O 	O 	0.902	0.6831	0.3111	-0.43
Mof_O 	O 	0.1723	0.6878	0.2702	-0.522
Mof_O 	O 	0.156	0.7368	0.1979	-0.509
Mof_O 	O 	0.8968	0.7662	0.2549	-0.452
Mof_C 	C 	0.01	0.6836	0.3036	-0.164
Mof_H 	H 	0.9951	0.6618	0.329	0.124
Mof_C 	C 	0.9968	0.751	0.2278	-0.11
Mof_H 	H 	0.975	0.7708	0.206	0.085
Mof_C 	C 	0.144	0.7118	0.2391	0.42
Mof_C 	C 	0.9788	0.7204	0.2713	0.048
Mof_C 	C 	0.9194	0.7219	0.2773	0.187
Mof_C 	C 	0.0845	0.713	0.2536	-0.178
Mof_C 	C 	0.0546	0.7473	0.222	0.059
Mof_H 	H 	0.0715	0.7681	0.1969	0.034
Mof_C 	C 	0.0634	0.6846	0.2927	0.197
Mof_N 	N 	0.0935	0.6583	0.3321	-0.243
Mof_H 	H 	0.1201	0.6439	0.3168	0.148
Mof_O 	O 	0.0563	0.6676	0.412	-0.205
Mof_C 	C 	0.1766	0.5975	0.3828	0.055
Mof_H 	H 	0.1779	0.6036	0.3467	0.008
Mof_C 	C 	0.1353	0.6181	0.4078	-0.109
Mof_C 	C 	0.119	0.621	0.4594	0.038
Mof_H 	H 	0.0898	0.6382	0.4742	0.045
Mof_C 	C 	0.2177	0.5683	0.4032	-0.146
Mof_H 	H 	0.2469	0.5519	0.3884	0.093
Mof_C 	C 	0.157	0.5922	0.482	-0.126
Mof_H 	H 	0.1554	0.5852	0.5175	0.081
Mof_C 	C 	0.199	0.5725	0.453	0.08
Mof_C 	C 	0.0967	0.6471	0.384	0.209
Mof_Zn	Zn	0.72783	0.75066	0.32353	1.21
Mof_O 	O 	0.1889	0.098	0.1831	-0.43
Mof_O 	O 	0.2298	0.8277	0.1878	-0.522
Mof_O 	O 	0.3021	0.844	0.2368	-0.509
Mof_O 	O 	0.2451	0.1032	0.2662	-0.452
Mof_C 	C 	0.1964	0.99	0.1836	-0.162
Mof_H 	H 	0.171	0.0049	0.1618	0.123
Mof_C 	C 	0.2722	0.0032	0.251	-0.11
Mof_H 	H 	0.294	0.025	0.2708	0.085
Mof_C 	C 	0.2609	0.856	0.2118	0.42
Mof_C 	C 	0.2287	0.0212	0.2204	0.047
Mof_C 	C 	0.2227	0.0806	0.2219	0.188
Mof_C 	C 	0.2464	0.9155	0.213	-0.178
Mof_C 	C 	0.278	0.9454	0.2473	0.059
Mof_H 	H 	0.3031	0.9285	0.2681	0.034
Mof_C 	C 	0.2073	0.9366	0.1846	0.196
Mof_N 	N 	0.1679	0.9065	0.1583	-0.243
Mof_H 	H 	0.1832	0.8799	0.1439	0.148
Mof_O 	O 	0.088	0.9437	0.1676	-0.205
Mof_C 	C 	0.1172	0.8234	0.0975	0.055
Mof_H 	H 	0.1533	0.8221	0.1036	0.008
Mof_C 	C 	0.0922	0.8647	0.1181	-0.109
Mof_C 	C 	0.0406	0.881	0.121	0.039
Mof_H 	H 	0.0258	0.9102	0.1382	0.045
Mof_C 	C 	0.0968	0.7823	0.0683	-0.146
Mof_H 	H 	0.1116	0.7531	0.0519	0.093
Mof_C 	C 	0.018	0.843	0.0922	-0.126
Mof_H 	H 	0.9825	0.8446	0.0852	0.081
Mof_C 	C 	0.047	0.801	0.0725	0.08
Mof_C 	C 	0.116	0.9033	0.1471	0.209
Mof_Zn	Zn	0.17647	0.27217	0.25066	1.21
Mof_O 	O 	0.8111	0.598	0.3169	-0.43
Mof_O 	O 	0.7702	0.3277	0.3122	-0.522
Mof_O 	O 	0.6979	0.344	0.2632	-0.509
Mof_O 	O 	0.7549	0.6032	0.2338	-0.452
Mof_C 	C 	0.8036	0.49	0.3164	-0.163
Mof_H 	H 	0.829	0.5049	0.3382	0.124
Mof_C 	C 	0.7278	0.5032	0.249	-0.109
Mof_H 	H 	0.706	0.525	0.2292	0.085
Mof_C 	C 	0.7391	0.356	0.2882	0.42
Mof_C 	C 	0.7713	0.5212	0.2796	0.048
Mof_C 	C 	0.7773	0.5806	0.2781	0.187
Mof_C 	C 	0.7536	0.4155	0.287	-0.178
Mof_C 	C 	0.722	0.4454	0.2527	0.059
Mof_H 	H 	0.6969	0.4285	0.2319	0.034
Mof_C 	C 	0.7927	0.4366	0.3154	0.197
Mof_N 	N 	0.8321	0.4065	0.3417	-0.243
Mof_H 	H 	0.8168	0.3799	0.3561	0.148
Mof_O 	O 	0.912	0.4437	0.3324	-0.205
Mof_C 	C 	0.8828	0.3234	0.4025	0.055
Mof_H 	H 	0.8467	0.3221	0.3964	0.008
Mof_C 	C 	0.9078	0.3647	0.3819	-0.108
Mof_C 	C 	0.9594	0.381	0.379	0.038
Mof_H 	H 	0.9742	0.4102	0.3618	0.045
Mof_C 	C 	0.9032	0.2823	0.4317	-0.146
Mof_H 	H 	0.8884	0.2531	0.4481	0.093
Mof_C 	C 	0.982	0.343	0.4078	-0.126
Mof_H 	H 	0.0175	0.3446	0.4148	0.081
Mof_C 	C 	0.953	0.301	0.4275	0.08
Mof_C 	C 	0.884	0.4033	0.3529	0.209
Mof_Zn	Zn	0.82353	0.77217	0.24934	1.21
Mof_O 	O 	0.6889	0.402	0.8169	-0.43
Mof_O 	O 	0.7298	0.6723	0.8122	-0.522
Mof_O 	O 	0.8021	0.656	0.7632	-0.509
Mof_O 	O 	0.7451	0.3968	0.7338	-0.452
Mof_C 	C 	0.6964	0.51	0.8164	-0.163
Mof_H 	H 	0.671	0.4951	0.8382	0.124
Mof_C 	C 	0.7722	0.4968	0.749	-0.11
Mof_H 	H 	0.794	0.475	0.7292	0.085
Mof_C 	C 	0.7609	0.644	0.7882	0.42
Mof_C 	C 	0.7287	0.4788	0.7796	0.048
Mof_C 	C 	0.7227	0.4194	0.7781	0.187
Mof_C 	C 	0.7464	0.5845	0.787	-0.178
Mof_C 	C 	0.778	0.5546	0.7527	0.059
Mof_H 	H 	0.8031	0.5715	0.7319	0.034
Mof_C 	C 	0.7073	0.5634	0.8154	0.197
Mof_N 	N 	0.6679	0.5935	0.8417	-0.243
Mof_H 	H 	0.6832	0.6201	0.8561	0.148
Mof_O 	O 	0.588	0.5563	0.8324	-0.205
Mof_C 	C 	0.6172	0.6766	0.9025	0.055
Mof_H 	H 	0.6533	0.6779	0.8964	0.008
Mof_C 	C 	0.5922	0.6353	0.8819	-0.109
Mof_C 	C 	0.5406	0.619	0.879	0.038
Mof_H 	H 	0.5258	0.5898	0.8618	0.045
Mof_C 	C 	0.5968	0.7177	0.9317	-0.146
Mof_H 	H 	0.6116	0.7469	0.9481	0.093
Mof_C 	C 	0.518	0.657	0.9078	-0.126
Mof_H 	H 	0.4825	0.6554	0.9148	0.081
Mof_C 	C 	0.547	0.699	0.9275	0.08
Mof_C 	C 	0.616	0.5967	0.8529	0.209
Mof_Zn	Zn	0.67647	0.22783	0.74934	1.21
Mof_O 	O 	0.3111	0.902	0.6831	-0.43
Mof_O 	O 	0.2702	0.1723	0.6878	-0.522
Mof_O 	O 	0.1979	0.156	0.7368	-0.509
Mof_O 	O 	0.2549	0.8968	0.7662	-0.452
Mof_C 	C 	0.3036	0.01	0.6836	-0.164
Mof_H 	H 	0.329	0.9951	0.6618	0.124
Mof_C 	C 	0.2278	0.9968	0.751	-0.11
Mof_H 	H 	0.206	0.975	0.7708	0.085
Mof_C 	C 	0.2391	0.144	0.7118	0.42
Mof_C 	C 	0.2713	0.9788	0.7204	0.048
Mof_C 	C 	0.2773	0.9194	0.7219	0.187
Mof_C 	C 	0.2536	0.0845	0.713	-0.178
Mof_C 	C 	0.222	0.0546	0.7473	0.059
Mof_H 	H 	0.1969	0.0715	0.7681	0.034
Mof_C 	C 	0.2927	0.0634	0.6846	0.197
Mof_N 	N 	0.3321	0.0935	0.6583	-0.243
Mof_H 	H 	0.3168	0.1201	0.6439	0.148
Mof_O 	O 	0.412	0.0563	0.6676	-0.205
Mof_C 	C 	0.3828	0.1766	0.5975	0.055
Mof_H 	H 	0.3467	0.1779	0.6036	0.008
Mof_C 	C 	0.4078	0.1353	0.6181	-0.109
Mof_C 	C 	0.4594	0.119	0.621	0.038
Mof_H 	H 	0.4742	0.0898	0.6382	0.045
Mof_C 	C 	0.4032	0.2177	0.5683	-0.146
Mof_H 	H 	0.3884	0.2469	0.5519	0.093
Mof_C 	C 	0.482	0.157	0.5922	-0.126
Mof_H 	H 	0.5175	0.1554	0.5852	0.081
Mof_C 	C 	0.453	0.199	0.5725	0.08
Mof_C 	C 	0.384	0.0967	0.6471	0.209
Mof_Zn	Zn	0.32353	0.72783	0.75066	1.21
Mof_O 	O 	0.8169	0.8111	0.902	-0.43
Mof_O 	O 	0.8122	0.7702	0.1723	-0.522
Mof_O 	O 	0.7632	0.6979	0.156	-0.509
Mof_O 	O 	0.7338	0.7549	0.8968	-0.452
Mof_C 	C 	0.8164	0.8036	0.01	-0.162
Mof_H 	H 	0.8382	0.829	0.9951	0.123
Mof_C 	C 	0.749	0.7278	0.9968	-0.11
Mof_H 	H 	0.7292	0.706	0.975	0.085
Mof_C 	C 	0.7882	0.7391	0.144	0.42
Mof_C 	C 	0.7796	0.7713	0.9788	0.047
Mof_C 	C 	0.7781	0.7773	0.9194	0.188
Mof_C 	C 	0.787	0.7536	0.0845	-0.178
Mof_C 	C 	0.7527	0.722	0.0546	0.059
Mof_H 	H 	0.7319	0.6969	0.0715	0.034
Mof_C 	C 	0.8154	0.7927	0.0634	0.196
Mof_N 	N 	0.8417	0.8321	0.0935	-0.243
Mof_H 	H 	0.8561	0.8168	0.1201	0.148
Mof_O 	O 	0.8324	0.912	0.0563	-0.205
Mof_C 	C 	0.9025	0.8828	0.1766	0.055
Mof_H 	H 	0.8964	0.8467	0.1779	0.008
Mof_C 	C 	0.8819	0.9078	0.1353	-0.109
Mof_C 	C 	0.879	0.9594	0.119	0.039
Mof_H 	H 	0.8618	0.9742	0.0898	0.045
Mof_C 	C 	0.9317	0.9032	0.2177	-0.146
Mof_H 	H 	0.9481	0.8884	0.2469	0.093
Mof_C 	C 	0.9078	0.982	0.157	-0.126
Mof_H 	H 	0.9148	0.0175	0.1554	0.081
Mof_C 	C 	0.9275	0.953	0.199	0.08
Mof_C 	C 	0.8529	0.884	0.0967	0.209
Mof_Zn	Zn	0.74934	0.82353	0.72783	1.21
Mof_O 	O 	0.6831	0.1889	0.402	-0.43
Mof_O 	O 	0.6878	0.2298	0.6723	-0.522
Mof_O 	O 	0.7368	0.3021	0.656	-0.509
Mof_O 	O 	0.7662	0.2451	0.3968	-0.452
Mof_C 	C 	0.6836	0.1964	0.51	-0.163
Mof_H 	H 	0.6618	0.171	0.4951	0.124
Mof_C 	C 	0.751	0.2722	0.4968	-0.109
Mof_H 	H 	0.7708	0.294	0.475	0.085
Mof_C 	C 	0.7118	0.2609	0.644	0.42
Mof_C 	C 	0.7204	0.2287	0.4788	0.048
Mof_C 	C 	0.7219	0.2227	0.4194	0.187
Mof_C 	C 	0.713	0.2464	0.5845	-0.178
Mof_C 	C 	0.7473	0.278	0.5546	0.059
Mof_H 	H 	0.7681	0.3031	0.5715	0.034
Mof_C 	C 	0.6846	0.2073	0.5634	0.197
Mof_N 	N 	0.6583	0.1679	0.5935	-0.243
Mof_H 	H 	0.6439	0.1832	0.6201	0.148
Mof_O 	O 	0.6676	0.088	0.5563	-0.205
Mof_C 	C 	0.5975	0.1172	0.6766	0.055
Mof_H 	H 	0.6036	0.1533	0.6779	0.008
Mof_C 	C 	0.6181	0.0922	0.6353	-0.108
Mof_C 	C 	0.621	0.0406	0.619	0.038
Mof_H 	H 	0.6382	0.0258	0.5898	0.045
Mof_C 	C 	0.5683	0.0968	0.7177	-0.146
Mof_H 	H 	0.5519	0.1116	0.7469	0.093
Mof_C 	C 	0.5922	0.018	0.657	-0.126
Mof_H 	H 	0.5852	0.9825	0.6554	0.081
Mof_C 	C 	0.5725	0.047	0.699	0.08
Mof_C 	C 	0.6471	0.116	0.5967	0.209
Mof_Zn	Zn	0.75066	0.17647	0.22783	1.21
Mof_O 	O 	0.1831	0.3111	0.598	-0.43
Mof_O 	O 	0.1878	0.2702	0.3277	-0.522
Mof_O 	O 	0.2368	0.1979	0.344	-0.509
Mof_O 	O 	0.2662	0.2549	0.6032	-0.452
Mof_C 	C 	0.1836	0.3036	0.49	-0.163
Mof_H 	H 	0.1618	0.329	0.5049	0.124
Mof_C 	C 	0.251	0.2278	0.5032	-0.11
Mof_H 	H 	0.2708	0.206	0.525	0.085
Mof_C 	C 	0.2118	0.2391	0.356	0.42
Mof_C 	C 	0.2204	0.2713	0.5212	0.048
Mof_C 	C 	0.2219	0.2773	0.5806	0.187
Mof_C 	C 	0.213	0.2536	0.4155	-0.178
Mof_C 	C 	0.2473	0.222	0.4454	0.059
Mof_H 	H 	0.2681	0.1969	0.4285	0.034
Mof_C 	C 	0.1846	0.2927	0.4366	0.197
Mof_N 	N 	0.1583	0.3321	0.4065	-0.243
Mof_H 	H 	0.1439	0.3168	0.3799	0.148
Mof_O 	O 	0.1676	0.412	0.4437	-0.205
Mof_C 	C 	0.0975	0.3828	0.3234	0.055
Mof_H 	H 	0.1036	0.3467	0.3221	0.008
Mof_C 	C 	0.1181	0.4078	0.3647	-0.109
Mof_C 	C 	0.121	0.4594	0.381	0.038
Mof_H 	H 	0.1382	0.4742	0.4102	0.045
Mof_C 	C 	0.0683	0.4032	0.2823	-0.146
Mof_H 	H 	0.0519	0.3884	0.2531	0.093
Mof_C 	C 	0.0922	0.482	0.343	-0.126
Mof_H 	H 	0.0852	0.5175	0.3446	0.081
Mof_C 	C 	0.0725	0.453	0.301	0.08
Mof_C 	C 	0.1471	0.384	0.4033	0.209
Mof_Zn	Zn	0.25066	0.32353	0.77217	1.21
Mof_O 	O 	0.3169	0.6889	0.098	-0.43
Mof_O 	O 	0.3122	0.7298	0.8277	-0.522
Mof_O 	O 	0.2632	0.8021	0.844	-0.509
Mof_O 	O 	0.2338	0.7451	0.1032	-0.452
Mof_C 	C 	0.3164	0.6964	0.99	-0.164
Mof_H 	H 	0.3382	0.671	0.0049	0.124
Mof_C 	C 	0.249	0.7722	0.0032	-0.11
Mof_H 	H 	0.2292	0.794	0.025	0.085
Mof_C 	C 	0.2882	0.7609	0.856	0.42
Mof_C 	C 	0.2796	0.7287	0.0212	0.048
Mof_C 	C 	0.2781	0.7227	0.0806	0.187
Mof_C 	C 	0.287	0.7464	0.9155	-0.178
Mof_C 	C 	0.2527	0.778	0.9454	0.059
Mof_H 	H 	0.2319	0.8031	0.9285	0.034
Mof_C 	C 	0.3154	0.7073	0.9366	0.197
Mof_N 	N 	0.3417	0.6679	0.9065	-0.243
Mof_H 	H 	0.3561	0.6832	0.8799	0.148
Mof_O 	O 	0.3324	0.588	0.9437	-0.205
Mof_C 	C 	0.4025	0.6172	0.8234	0.055
Mof_H 	H 	0.3964	0.6533	0.8221	0.008
Mof_C 	C 	0.3819	0.5922	0.8647	-0.109
Mof_C 	C 	0.379	0.5406	0.881	0.038
Mof_H 	H 	0.3618	0.5258	0.9102	0.045
Mof_C 	C 	0.4317	0.5968	0.7823	-0.146
Mof_H 	H 	0.4481	0.6116	0.7531	0.093
Mof_C 	C 	0.4078	0.518	0.843	-0.126
Mof_H 	H 	0.4148	0.4825	0.8446	0.081
Mof_C 	C 	0.4275	0.547	0.801	0.08
Mof_C 	C 	0.3529	0.616	0.9033	0.209
Mof_Zn	Zn	0.24934	0.67647	0.27217	1.21
Mof_O 	O 	0.902	0.8169	0.8111	-0.43
Mof_O 	O 	0.1723	0.8122	0.7702	-0.522
Mof_O 	O 	0.156	0.7632	0.6979	-0.509
Mof_O 	O 	0.8968	0.7338	0.7549	-0.452
Mof_C 	C 	0.01	0.8164	0.8036	-0.162
Mof_H 	H 	0.9951	0.8382	0.829	0.123
Mof_C 	C 	0.9968	0.749	0.7278	-0.11
Mof_H 	H 	0.975	0.7292	0.706	0.085
Mof_C 	C 	0.144	0.7882	0.7391	0.42
Mof_C 	C 	0.9788	0.7796	0.7713	0.047
Mof_C 	C 	0.9194	0.7781	0.7773	0.188
Mof_C 	C 	0.0845	0.787	0.7536	-0.178
Mof_C 	C 	0.0546	0.7527	0.722	0.059
Mof_H 	H 	0.0715	0.7319	0.6969	0.034
Mof_C 	C 	0.0634	0.8154	0.7927	0.196
Mof_N 	N 	0.0935	0.8417	0.8321	-0.243
Mof_H 	H 	0.1201	0.8561	0.8168	0.148
Mof_O 	O 	0.0563	0.8324	0.912	-0.205
Mof_C 	C 	0.1766	0.9025	0.8828	0.055
Mof_H 	H 	0.1779	0.8964	0.8467	0.008
Mof_C 	C 	0.1353	0.8819	0.9078	-0.109
Mof_C 	C 	0.119	0.879	0.9594	0.039
Mof_H 	H 	0.0898	0.8618	0.9742	0.045
Mof_C 	C 	0.2177	0.9317	0.9032	-0.146
Mof_H 	H 	0.2469	0.9481	0.8884	0.093
Mof_C 	C 	0.157	0.9078	0.982	-0.126
Mof_H 	H 	0.1554	0.9148	0.0175	0.081
Mof_C 	C 	0.199	0.9275	0.953	0.08
Mof_C 	C 	0.0967	0.8529	0.884	0.209
Mof_Zn	Zn	0.72783	0.74934	0.82353	1.21
Mof_O 	O 	0.402	0.6831	0.1889	-0.43
Mof_O 	O 	0.6723	0.6878	0.2298	-0.522
Mof_O 	O 	0.656	0.7368	0.3021	-0.509
Mof_O 	O 	0.3968	0.7662	0.2451	-0.452
Mof_C 	C 	0.51	0.6836	0.1964	-0.163
Mof_H 	H 	0.4951	0.6618	0.171	0.124
Mof_C 	C 	0.4968	0.751	0.2722	-0.109
Mof_H 	H 	0.475	0.7708	0.294	0.085
Mof_C 	C 	0.644	0.7118	0.2609	0.42
Mof_C 	C 	0.4788	0.7204	0.2287	0.048
Mof_C 	C 	0.4194	0.7219	0.2227	0.187
Mof_C 	C 	0.5845	0.713	0.2464	-0.178
Mof_C 	C 	0.5546	0.7473	0.278	0.059
Mof_H 	H 	0.5715	0.7681	0.3031	0.034
Mof_C 	C 	0.5634	0.6846	0.2073	0.197
Mof_N 	N 	0.5935	0.6583	0.1679	-0.243
Mof_H 	H 	0.6201	0.6439	0.1832	0.148
Mof_O 	O 	0.5563	0.6676	0.088	-0.205
Mof_C 	C 	0.6766	0.5975	0.1172	0.055
Mof_H 	H 	0.6779	0.6036	0.1533	0.008
Mof_C 	C 	0.6353	0.6181	0.0922	-0.108
Mof_C 	C 	0.619	0.621	0.0406	0.038
Mof_H 	H 	0.5898	0.6382	0.0258	0.045
Mof_C 	C 	0.7177	0.5683	0.0968	-0.146
Mof_H 	H 	0.7469	0.5519	0.1116	0.093
Mof_C 	C 	0.657	0.5922	0.018	-0.126
Mof_H 	H 	0.6554	0.5852	0.9825	0.081
Mof_C 	C 	0.699	0.5725	0.047	0.08
Mof_C 	C 	0.5967	0.6471	0.116	0.209
Mof_Zn	Zn	0.22783	0.75066	0.17647	1.21
Mof_O 	O 	0.598	0.1831	0.3111	-0.43
Mof_O 	O 	0.3277	0.1878	0.2702	-0.522
Mof_O 	O 	0.344	0.2368	0.1979	-0.509
Mof_O 	O 	0.6032	0.2662	0.2549	-0.452
Mof_C 	C 	0.49	0.1836	0.3036	-0.163
Mof_H 	H 	0.5049	0.1618	0.329	0.124
Mof_C 	C 	0.5032	0.251	0.2278	-0.11
Mof_H 	H 	0.525	0.2708	0.206	0.085
Mof_C 	C 	0.356	0.2118	0.2391	0.42
Mof_C 	C 	0.5212	0.2204	0.2713	0.048
Mof_C 	C 	0.5806	0.2219	0.2773	0.187
Mof_C 	C 	0.4155	0.213	0.2536	-0.178
Mof_C 	C 	0.4454	0.2473	0.222	0.059
Mof_H 	H 	0.4285	0.2681	0.1969	0.034
Mof_C 	C 	0.4366	0.1846	0.2927	0.197
Mof_N 	N 	0.4065	0.1583	0.3321	-0.243
Mof_H 	H 	0.3799	0.1439	0.3168	0.148
Mof_O 	O 	0.4437	0.1676	0.412	-0.205
Mof_C 	C 	0.3234	0.0975	0.3828	0.055
Mof_H 	H 	0.3221	0.1036	0.3467	0.008
Mof_C 	C 	0.3647	0.1181	0.4078	-0.109
Mof_C 	C 	0.381	0.121	0.4594	0.038
Mof_H 	H 	0.4102	0.1382	0.4742	0.045
Mof_C 	C 	0.2823	0.0683	0.4032	-0.146
Mof_H 	H 	0.2531	0.0519	0.3884	0.093
Mof_C 	C 	0.343	0.0922	0.482	-0.126
Mof_H 	H 	0.3446	0.0852	0.5175	0.081
Mof_C 	C 	0.301	0.0725	0.453	0.08
Mof_C 	C 	0.4033	0.1471	0.384	0.209
Mof_Zn	Zn	0.77217	0.25066	0.32353	1.21
Mof_O 	O 	0.098	0.3169	0.6889	-0.43
Mof_O 	O 	0.8277	0.3122	0.7298	-0.522
Mof_O 	O 	0.844	0.2632	0.8021	-0.509
Mof_O 	O 	0.1032	0.2338	0.7451	-0.452
Mof_C 	C 	0.99	0.3164	0.6964	-0.164
Mof_H 	H 	0.0049	0.3382	0.671	0.124
Mof_C 	C 	0.0032	0.249	0.7722	-0.11
Mof_H 	H 	0.025	0.2292	0.794	0.085
Mof_C 	C 	0.856	0.2882	0.7609	0.42
Mof_C 	C 	0.0212	0.2796	0.7287	0.048
Mof_C 	C 	0.0806	0.2781	0.7227	0.187
Mof_C 	C 	0.9155	0.287	0.7464	-0.178
Mof_C 	C 	0.9454	0.2527	0.778	0.059
Mof_H 	H 	0.9285	0.2319	0.8031	0.034
Mof_C 	C 	0.9366	0.3154	0.7073	0.197
Mof_N 	N 	0.9065	0.3417	0.6679	-0.243
Mof_H 	H 	0.8799	0.3561	0.6832	0.148
Mof_O 	O 	0.9437	0.3324	0.588	-0.205
Mof_C 	C 	0.8234	0.4025	0.6172	0.055
Mof_H 	H 	0.8221	0.3964	0.6533	0.008
Mof_C 	C 	0.8647	0.3819	0.5922	-0.109
Mof_C 	C 	0.881	0.379	0.5406	0.038
Mof_H 	H 	0.9102	0.3618	0.5258	0.045
Mof_C 	C 	0.7823	0.4317	0.5968	-0.146
Mof_H 	H 	0.7531	0.4481	0.6116	0.093
Mof_C 	C 	0.843	0.4078	0.518	-0.126
Mof_H 	H 	0.8446	0.4148	0.4825	0.081
Mof_C 	C 	0.801	0.4275	0.547	0.08
Mof_C 	C 	0.9033	0.3529	0.616	0.209
Mof_Zn	Zn	0.27217	0.24934	0.67647	1.21
Mof_O 	O 	0.8111	0.902	0.8169	-0.43
Mof_O 	O 	0.7702	0.1723	0.8122	-0.522
Mof_O 	O 	0.6979	0.156	0.7632	-0.509
Mof_O 	O 	0.7549	0.8968	0.7338	-0.452
Mof_C 	C 	0.8036	0.01	0.8164	-0.162
Mof_H 	H 	0.829	0.9951	0.8382	0.123
Mof_C 	C 	0.7278	0.9968	0.749	-0.11
Mof_H 	H 	0.706	0.975	0.7292	0.085
Mof_C 	C 	0.7391	0.144	0.7882	0.42
Mof_C 	C 	0.7713	0.9788	0.7796	0.047
Mof_C 	C 	0.7773	0.9194	0.7781	0.188
Mof_C 	C 	0.7536	0.0845	0.787	-0.178
Mof_C 	C 	0.722	0.0546	0.7527	0.059
Mof_H 	H 	0.6969	0.0715	0.7319	0.034
Mof_C 	C 	0.7927	0.0634	0.8154	0.196
Mof_N 	N 	0.8321	0.0935	0.8417	-0.243
Mof_H 	H 	0.8168	0.1201	0.8561	0.148
Mof_O 	O 	0.912	0.0563	0.8324	-0.205
Mof_C 	C 	0.8828	0.1766	0.9025	0.055
Mof_H 	H 	0.8467	0.1779	0.8964	0.008
Mof_C 	C 	0.9078	0.1353	0.8819	-0.109
Mof_C 	C 	0.9594	0.119	0.879	0.039
Mof_H 	H 	0.9742	0.0898	0.8618	0.045
Mof_C 	C 	0.9032	0.2177	0.9317	-0.146
Mof_H 	H 	0.8884	0.2469	0.9481	0.093
Mof_C 	C 	0.982	0.157	0.9078	-0.126
Mof_H 	H 	0.0175	0.1554	0.9148	0.081
Mof_C 	C 	0.953	0.199	0.9275	0.08
Mof_C 	C 	0.884	0.0967	0.8529	0.209
Mof_Zn	Zn	0.82353	0.72783	0.74934	1.21
Mof_O 	O 	0.1889	0.402	0.6831	-0.43
Mof_O 	O 	0.2298	0.6723	0.6878	-0.522
Mof_O 	O 	0.3021	0.656	0.7368	-0.509
Mof_O 	O 	0.2451	0.3968	0.7662	-0.452
Mof_C 	C 	0.1964	0.51	0.6836	-0.163
Mof_H 	H 	0.171	0.4951	0.6618	0.124
Mof_C 	C 	0.2722	0.4968	0.751	-0.109
Mof_H 	H 	0.294	0.475	0.7708	0.085
Mof_C 	C 	0.2609	0.644	0.7118	0.42
Mof_C 	C 	0.2287	0.4788	0.7204	0.048
Mof_C 	C 	0.2227	0.4194	0.7219	0.187
Mof_C 	C 	0.2464	0.5845	0.713	-0.178
Mof_C 	C 	0.278	0.5546	0.7473	0.059
Mof_H 	H 	0.3031	0.5715	0.7681	0.034
Mof_C 	C 	0.2073	0.5634	0.6846	0.197
Mof_N 	N 	0.1679	0.5935	0.6583	-0.243
Mof_H 	H 	0.1832	0.6201	0.6439	0.148
Mof_O 	O 	0.088	0.5563	0.6676	-0.205
Mof_C 	C 	0.1172	0.6766	0.5975	0.055
Mof_H 	H 	0.1533	0.6779	0.6036	0.008
Mof_C 	C 	0.0922	0.6353	0.6181	-0.108
Mof_C 	C 	0.0406	0.619	0.621	0.038
Mof_H 	H 	0.0258	0.5898	0.6382	0.045
Mof_C 	C 	0.0968	0.7177	0.5683	-0.146
Mof_H 	H 	0.1116	0.7469	0.5519	0.093
Mof_C 	C 	0.018	0.657	0.5922	-0.126
Mof_H 	H 	0.9825	0.6554	0.5852	0.081
Mof_C 	C 	0.047	0.699	0.5725	0.08
Mof_C 	C 	0.116	0.5967	0.6471	0.209
Mof_Zn	Zn	0.17647	0.22783	0.75066	1.21
Mof_O 	O 	0.3111	0.598	0.1831	-0.43
Mof_O 	O 	0.2702	0.3277	0.1878	-0.522
Mof_O 	O 	0.1979	0.344	0.2368	-0.509
Mof_O 	O 	0.2549	0.6032	0.2662	-0.452
Mof_C 	C 	0.3036	0.49	0.1836	-0.163
Mof_H 	H 	0.329	0.5049	0.1618	0.124
Mof_C 	C 	0.2278	0.5032	0.251	-0.11
Mof_H 	H 	0.206	0.525	0.2708	0.085
Mof_C 	C 	0.2391	0.356	0.2118	0.42
Mof_C 	C 	0.2713	0.5212	0.2204	0.048
Mof_C 	C 	0.2773	0.5806	0.2219	0.187
Mof_C 	C 	0.2536	0.4155	0.213	-0.178
Mof_C 	C 	0.222	0.4454	0.2473	0.059
Mof_H 	H 	0.1969	0.4285	0.2681	0.034
Mof_C 	C 	0.2927	0.4366	0.1846	0.197
Mof_N 	N 	0.3321	0.4065	0.1583	-0.243
Mof_H 	H 	0.3168	0.3799	0.1439	0.148
Mof_O 	O 	0.412	0.4437	0.1676	-0.205
Mof_C 	C 	0.3828	0.3234	0.0975	0.055
Mof_H 	H 	0.3467	0.3221	0.1036	0.008
Mof_C 	C 	0.4078	0.3647	0.1181	-0.109
Mof_C 	C 	0.4594	0.381	0.121	0.038
Mof_H 	H 	0.4742	0.4102	0.1382	0.045
Mof_C 	C 	0.4032	0.2823	0.0683	-0.146
Mof_H 	H 	0.3884	0.2531	0.0519	0.093
Mof_C 	C 	0.482	0.343	0.0922	-0.126
Mof_H 	H 	0.5175	0.3446	0.0852	0.081
Mof_C 	C 	0.453	0.301	0.0725	0.08
Mof_C 	C 	0.384	0.4033	0.1471	0.209
Mof_Zn	Zn	0.32353	0.77217	0.25066	1.21
Mof_O 	O 	0.6889	0.098	0.3169	-0.43
Mof_O 	O 	0.7298	0.8277	0.3122	-0.522
Mof_O 	O 	0.8021	0.844	0.2632	-0.509
Mof_O 	O 	0.7451	0.1032	0.2338	-0.452
Mof_C 	C 	0.6964	0.99	0.3164	-0.164
Mof_H 	H 	0.671	0.0049	0.3382	0.124
Mof_C 	C 	0.7722	0.0032	0.249	-0.11
Mof_H 	H 	0.794	0.025	0.2292	0.085
Mof_C 	C 	0.7609	0.856	0.2882	0.42
Mof_C 	C 	0.7287	0.0212	0.2796	0.048
Mof_C 	C 	0.7227	0.0806	0.2781	0.187
Mof_C 	C 	0.7464	0.9155	0.287	-0.178
Mof_C 	C 	0.778	0.9454	0.2527	0.059
Mof_H 	H 	0.8031	0.9285	0.2319	0.034
Mof_C 	C 	0.7073	0.9366	0.3154	0.197
Mof_N 	N 	0.6679	0.9065	0.3417	-0.243
Mof_H 	H 	0.6832	0.8799	0.3561	0.148
Mof_O 	O 	0.588	0.9437	0.3324	-0.205
Mof_C 	C 	0.6172	0.8234	0.4025	0.055
Mof_H 	H 	0.6533	0.8221	0.3964	0.008
Mof_C 	C 	0.5922	0.8647	0.3819	-0.109
Mof_C 	C 	0.5406	0.881	0.379	0.038
Mof_H 	H 	0.5258	0.9102	0.3618	0.045
Mof_C 	C 	0.5968	0.7823	0.4317	-0.146
Mof_H 	H 	0.6116	0.7531	0.4481	0.093
Mof_C 	C 	0.518	0.843	0.4078	-0.126
Mof_H 	H 	0.4825	0.8446	0.4148	0.081
Mof_C 	C 	0.547	0.801	0.4275	0.08
Mof_C 	C 	0.616	0.9033	0.3529	0.209
Mof_Zn	Zn	0.67647	0.27217	0.24934	1.21
Mof_O 	O 	0.218	0.218	0.218	-0.985
Mof_Zn	Zn	0.17336	0.17336	0.17336	1.197
Mof_O 	O 	0.282	0.782	0.718	-0.985
Mof_Zn	Zn	0.32664	0.82664	0.67336	1.197
Mof_O 	O 	0.782	0.718	0.282	-0.985
Mof_Zn	Zn	0.82664	0.67336	0.32664	1.197
Mof_O 	O 	0.718	0.282	0.782	-0.985
Mof_Zn	Zn	0.67336	0.32664	0.82664	1.197
Mof_O 	O 	0.782	0.782	0.782	-0.985
Mof_Zn	Zn	0.82664	0.82664	0.82664	1.197
Mof_O 	O 	0.718	0.218	0.282	-0.985
Mof_Zn	Zn	0.67336	0.17336	0.32664	1.197
Mof_O 	O 	0.218	0.282	0.718	-0.985
Mof_Zn	Zn	0.17336	0.32664	0.67336	1.197
Mof_O 	O 	0.282	0.718	0.218	-0.985
Mof_Zn	Zn	0.32664	0.67336	0.17336	1.197
_end
