data_functionalizedCrystal
_audit_creation_method	'EQeq! by Chris Wilmer'
_symmetry_space_group_name_H-M	'P1'
_symmetry_Int_Tables_number	1
_symmetry_cell_setting	triclinic
loop_
_symmetry_equiv_pos_as_xyz
  x,y,z
_cell_length_a	8.2293
_cell_length_b	9.7386
_cell_length_c	9.7543
_cell_angle_alpha	60.741
_cell_angle_beta	72.357
_cell_angle_gamma	84.666
loop_
_atom_site_label
_atom_site_type_symbol
_atom_site_fract_x
_atom_site_fract_y
_atom_site_fract_z
_atom_site_charge
Mof_Y 	Y 	0.6704	0.8413	0.7868	1.467
Mof_O 	O 	0.6902	0.9068	0.9881	-0.364
Mof_O 	O 	0.47	0.6605	0.0369	-0.366
Mof_O 	O 	0.8817	0.8284	0.5614	-0.344
Mof_O 	O 	0.5602	0.0082	0.1532	-0.345
Mof_O 	O 	0.4632	0.812	0.6732	-0.346
Mof_O 	O 	0.0869	0.972	0.3289	-0.34
Mof_O 	O 	0.3298	0.4223	0.1811	-0.352
Mof_O 	O 	0.3404	0.9217	0.4702	-0.336
Mof_C 	C 	0.443	0.9235	0.5411	0.244
Mof_C 	C 	0.5729	0.976	0.0392	0.247
Mof_C 	C 	0.9929	0.9435	0.4674	0.239
Mof_C 	C 	0.4419	0.524	0.0635	0.244
Mof_Y 	Y 	0.3296	0.1587	0.2132	1.468
Mof_O 	O 	0.3098	0.0932	0.0119	-0.363
Mof_O 	O 	0.53	0.3395	0.9631	-0.365
Mof_O 	O 	0.1183	0.1716	0.4386	-0.343
Mof_O 	O 	0.4398	0.9918	0.8468	-0.345
Mof_O 	O 	0.5368	0.188	0.3268	-0.346
Mof_O 	O 	0.9131	0.028	0.6711	-0.34
Mof_O 	O 	0.6702	0.5777	0.8189	-0.352
Mof_O 	O 	0.6596	0.0783	0.5298	-0.336
Mof_C 	C 	0.557	0.0765	0.4589	0.244
Mof_C 	C 	0.4271	0.024	0.9608	0.247
Mof_C 	C 	0.0071	0.0565	0.5326	0.239
Mof_C 	C 	0.5581	0.476	0.9365	0.244
Mof_N 	N 	0.9878	0.3655	0.6533	-0.264
Mof_C 	C 	0.8338	0.4221	0.5892	-0.309
Mof_C 	C 	0.1504	0.4086	0.5184	0.418
Mof_C 	C 	0.2999	0.35	0.5814	-0.984
Mof_H 	H 	0.9922	0.4081	0.7159	0.128
Mof_H 	H 	0.9754	0.26	0.7172	0.145
Mof_H 	H 	0.823	0.3695	0.5295	0.134
Mof_H 	H 	0.731	0.3943	0.6814	0.144
Mof_H 	H 	0.144	0.3584	0.454	-0.054
Mof_H 	H 	0.2837	0.2377	0.6518	0.345
Mof_H 	H 	0.4015	0.3747	0.4906	0.331
Mof_H 	H 	0.3113	0.3995	0.6426	0.316
Mof_N 	N 	0.0122	0.6345	0.3467	-0.264
Mof_C 	C 	0.1662	0.5779	0.4108	-0.309
Mof_C 	C 	0.8496	0.5914	0.4816	0.418
Mof_C 	C 	0.7001	0.65	0.4186	-0.984
Mof_H 	H 	0.0078	0.5919	0.2841	0.128
Mof_H 	H 	0.0246	0.74	0.2828	0.145
Mof_H 	H 	0.177	0.6305	0.4705	0.134
Mof_H 	H 	0.269	0.6057	0.3186	0.144
Mof_H 	H 	0.856	0.6416	0.546	-0.054
Mof_H 	H 	0.7163	0.7623	0.3482	0.345
Mof_H 	H 	0.5985	0.6253	0.5094	0.331
Mof_H 	H 	0.6887	0.6005	0.3574	0.316
_end
