data_functionalizedCrystal
_audit_creation_method	'EQeq! by Chris Wilmer'
_symmetry_space_group_name_H-M	'P1'
_symmetry_Int_Tables_number	1
_symmetry_cell_setting	triclinic
loop_
_symmetry_equiv_pos_as_xyz
  x,y,z
_cell_length_a	11.75
_cell_length_b	9.832
_cell_length_c	14.63
_cell_angle_alpha	90
_cell_angle_beta	97.73
_cell_angle_gamma	90
loop_
_atom_site_label
_atom_site_type_symbol
_atom_site_fract_x
_atom_site_fract_y
_atom_site_fract_z
_atom_site_charge
Mof_C 	C 	0.275	0.1406	0.2187	0.269
Mof_C 	C 	0.15	0.1229	0.2217	-0.016
Mof_C 	C 	0.0929	0.2086	0.276	-0.014
Mof_H 	H 	0.1334	0.2745	0.3126	0.084
Mof_C 	C 	0.9758	0.1954	0.2753	-0.02
Mof_H 	H 	0.9378	0.2523	0.312	0.094
Mof_C 	C 	0.9143	0.0985	0.2205	-0.016
Mof_C 	C 	0.972	0.0074	0.1686	0
Mof_C 	C 	0.0889	0.0196	0.1693	-0.016
Mof_H 	H 	0.1275	0.9596	0.1351	0.091
Mof_C 	C 	0.9147	0.8925	0.1089	0.267
Mof_C 	C 	0.7857	0.0927	0.2182	0.285
Mof_O 	O 	0.4885	0.9673	0.9112	-0.044
Mof_O 	O 	0.3397	0.2008	0.2811	-0.177
Mof_O 	O 	0.3193	0.0887	0.1513	-0.16
Mof_O 	O 	0.9318	0.7693	0.1341	-0.148
Mof_O 	O 	0.8591	0.9257	0.031	-0.167
Mof_O 	O 	0.7302	0.0049	0.1684	-0.166
Mof_O 	O 	0.7363	0.1745	0.2637	-0.171
Mof_U 	U 	0.34567	0.03086	0.99113	0.014
Mof_U 	U 	0.47242	0.85483	0.77893	0.015
Mof_C 	C 	0.225	0.6406	0.2813	0.267
Mof_C 	C 	0.35	0.6229	0.2783	-0.016
Mof_C 	C 	0.4071	0.7086	0.224	-0.015
Mof_H 	H 	0.3666	0.7745	0.1874	0.083
Mof_C 	C 	0.5242	0.6954	0.2247	-0.019
Mof_H 	H 	0.5622	0.7523	0.188	0.093
Mof_C 	C 	0.5857	0.5985	0.2795	-0.016
Mof_C 	C 	0.528	0.5074	0.3314	0
Mof_C 	C 	0.4111	0.5196	0.3307	-0.018
Mof_H 	H 	0.3725	0.4596	0.3649	0.092
Mof_C 	C 	0.5853	0.3925	0.3911	0.267
Mof_C 	C 	0.7143	0.5927	0.2818	0.285
Mof_O 	O 	0.0115	0.4673	0.5888	-0.044
Mof_O 	O 	0.1603	0.7008	0.2189	-0.177
Mof_O 	O 	0.1807	0.5887	0.3487	-0.16
Mof_O 	O 	0.5682	0.2693	0.3659	-0.148
Mof_O 	O 	0.6409	0.4257	0.469	-0.167
Mof_O 	O 	0.7698	0.5049	0.3316	-0.167
Mof_O 	O 	0.7637	0.6745	0.2363	-0.171
Mof_U 	U 	0.15433	0.53086	0.50887	0.014
Mof_U 	U 	0.02758	0.35483	0.72107	0.015
Mof_C 	C 	0.725	0.8594	0.7813	0.268
Mof_C 	C 	0.85	0.8771	0.7783	-0.017
Mof_C 	C 	0.9071	0.7914	0.724	-0.015
Mof_H 	H 	0.8666	0.7255	0.6874	0.083
Mof_C 	C 	0.0242	0.8046	0.7247	-0.02
Mof_H 	H 	0.0622	0.7477	0.688	0.094
Mof_C 	C 	0.0857	0.9015	0.7795	-0.016
Mof_C 	C 	0.028	0.9926	0.8314	0
Mof_C 	C 	0.9111	0.9804	0.8307	-0.016
Mof_H 	H 	0.8725	0.0404	0.8649	0.091
Mof_C 	C 	0.0853	0.1075	0.8911	0.267
Mof_C 	C 	0.2143	0.9073	0.7818	0.285
Mof_O 	O 	0.5115	0.0327	0.0888	-0.044
Mof_O 	O 	0.6603	0.7992	0.7189	-0.177
Mof_O 	O 	0.6807	0.9113	0.8487	-0.16
Mof_O 	O 	0.0682	0.2307	0.8659	-0.148
Mof_O 	O 	0.1409	0.0743	0.969	-0.167
Mof_O 	O 	0.2698	0.9951	0.8316	-0.166
Mof_O 	O 	0.2637	0.8255	0.7363	-0.171
Mof_U 	U 	0.65433	0.96914	0.00887	0.014
Mof_U 	U 	0.52758	0.14517	0.22107	0.015
Mof_C 	C 	0.775	0.3594	0.7187	0.267
Mof_C 	C 	0.65	0.3771	0.7217	-0.016
Mof_C 	C 	0.5929	0.2914	0.776	-0.015
Mof_H 	H 	0.6334	0.2255	0.8126	0.083
Mof_C 	C 	0.4758	0.3046	0.7753	-0.019
Mof_H 	H 	0.4378	0.2477	0.812	0.093
Mof_C 	C 	0.4143	0.4015	0.7205	-0.016
Mof_C 	C 	0.472	0.4926	0.6686	0
Mof_C 	C 	0.5889	0.4804	0.6693	-0.018
Mof_H 	H 	0.6275	0.5404	0.6351	0.092
Mof_C 	C 	0.4147	0.6075	0.6089	0.267
Mof_C 	C 	0.2857	0.4073	0.7182	0.285
Mof_O 	O 	0.9885	0.5327	0.4112	-0.044
Mof_O 	O 	0.8397	0.2992	0.7811	-0.177
Mof_O 	O 	0.8193	0.4113	0.6513	-0.16
Mof_O 	O 	0.4318	0.7307	0.6341	-0.148
Mof_O 	O 	0.3591	0.5743	0.531	-0.167
Mof_O 	O 	0.2302	0.4951	0.6684	-0.167
Mof_O 	O 	0.2363	0.3255	0.7637	-0.171
Mof_U 	U 	0.84567	0.46914	0.49113	0.014
Mof_U 	U 	0.97242	0.64517	0.27893	0.015
_end
