data_functionalizedCrystal
_audit_creation_method	'EQeq! by Chris Wilmer'
_symmetry_space_group_name_H-M	'P1'
_symmetry_Int_Tables_number	1
_symmetry_cell_setting	triclinic
loop_
_symmetry_equiv_pos_as_xyz
  x,y,z
_cell_length_a	15.114
_cell_length_b	8.782
_cell_length_c	15.345
_cell_angle_alpha	90
_cell_angle_beta	95.378
_cell_angle_gamma	90
loop_
_atom_site_label
_atom_site_type_symbol
_atom_site_fract_x
_atom_site_fract_y
_atom_site_fract_z
_atom_site_charge
Mof_Li	Li	0.86658	0.2563	0.36166	2.892
Mof_N 	N 	0.72918	0.58506	0.16785	-0.451
Mof_N 	N 	0.83455	0.64274	0.97457	-0.573
Mof_N 	N 	0.00457	0.33595	0.14359	-0.558
Mof_N 	N 	0.81513	0.41815	0.25384	-0.375
Mof_C 	C 	0.80183	0.54635	0.12634	0.004
Mof_C 	C 	0.8543	0.44599	0.17881	-0.007
Mof_C 	C 	0.93714	0.38311	0.15975	0.123
Mof_C 	C 	0.74178	0.50451	0.24224	-0.054
Mof_C 	C 	0.81873	0.60131	0.04229	0.122
Mof_C 	C 	0.67603	0.51474	0.30908	0.8
Mof_F 	F 	0.59947	0.57505	0.27393	-0.704
Mof_F 	F 	0.70463	0.60294	0.37747	-0.592
Mof_F 	F 	0.65768	0.37895	0.34179	-0.623
Mof_Li	Li	0.36658	0.7563	0.36166	2.891
Mof_N 	N 	0.22918	0.08506	0.16785	-0.452
Mof_N 	N 	0.33455	0.14274	0.97457	-0.571
Mof_N 	N 	0.50457	0.83595	0.14359	-0.558
Mof_N 	N 	0.31513	0.91815	0.25384	-0.374
Mof_C 	C 	0.30183	0.04635	0.12634	0.004
Mof_C 	C 	0.3543	0.94599	0.17881	-0.005
Mof_C 	C 	0.43714	0.88311	0.15975	0.122
Mof_C 	C 	0.24178	0.00451	0.24224	-0.055
Mof_C 	C 	0.31873	0.10131	0.04229	0.118
Mof_C 	C 	0.17603	0.01474	0.30908	0.799
Mof_F 	F 	0.09947	0.07505	0.27393	-0.704
Mof_F 	F 	0.20463	0.10294	0.37747	-0.592
Mof_F 	F 	0.15768	0.87895	0.34179	-0.623
Mof_Li	Li	0.13342	0.2563	0.13834	2.889
Mof_N 	N 	0.27082	0.58506	0.33215	-0.452
Mof_N 	N 	0.16545	0.64274	0.52543	-0.572
Mof_N 	N 	0.99543	0.33595	0.35641	-0.558
Mof_N 	N 	0.18487	0.41815	0.24616	-0.375
Mof_C 	C 	0.19817	0.54635	0.37366	0.004
Mof_C 	C 	0.1457	0.44599	0.32119	-0.007
Mof_C 	C 	0.06286	0.38311	0.34025	0.121
Mof_C 	C 	0.25822	0.50451	0.25776	-0.054
Mof_C 	C 	0.18127	0.60131	0.45771	0.12
Mof_C 	C 	0.32397	0.51474	0.19092	0.8
Mof_F 	F 	0.40053	0.57505	0.22607	-0.704
Mof_F 	F 	0.29537	0.60294	0.12253	-0.592
Mof_F 	F 	0.34232	0.37895	0.15821	-0.623
Mof_Li	Li	0.63342	0.7563	0.13834	2.892
Mof_N 	N 	0.77082	0.08506	0.33215	-0.452
Mof_N 	N 	0.66545	0.14274	0.52543	-0.573
Mof_N 	N 	0.49543	0.83595	0.35641	-0.558
Mof_N 	N 	0.68487	0.91815	0.24616	-0.374
Mof_C 	C 	0.69817	0.04635	0.37366	0.004
Mof_C 	C 	0.6457	0.94599	0.32119	-0.006
Mof_C 	C 	0.56286	0.88311	0.34025	0.122
Mof_C 	C 	0.75822	0.00451	0.25776	-0.055
Mof_C 	C 	0.68127	0.10131	0.45771	0.12
Mof_C 	C 	0.82397	0.01474	0.19092	0.799
Mof_F 	F 	0.90053	0.07505	0.22607	-0.704
Mof_F 	F 	0.79537	0.10294	0.12253	-0.592
Mof_F 	F 	0.84232	0.87895	0.15821	-0.622
Mof_Li	Li	0.13342	0.7437	0.63834	2.891
Mof_N 	N 	0.27082	0.41494	0.83215	-0.452
Mof_N 	N 	0.16545	0.35726	0.02543	-0.574
Mof_N 	N 	0.99543	0.66405	0.85641	-0.559
Mof_N 	N 	0.18487	0.58185	0.74616	-0.375
Mof_C 	C 	0.19817	0.45365	0.87366	0.004
Mof_C 	C 	0.1457	0.55401	0.82119	-0.007
Mof_C 	C 	0.06286	0.61689	0.84025	0.123
Mof_C 	C 	0.25822	0.49549	0.75776	-0.054
Mof_C 	C 	0.18127	0.39869	0.95771	0.122
Mof_C 	C 	0.32397	0.48526	0.69092	0.8
Mof_F 	F 	0.40053	0.42495	0.72607	-0.704
Mof_F 	F 	0.29537	0.39706	0.62253	-0.592
Mof_F 	F 	0.34232	0.62105	0.65821	-0.623
Mof_Li	Li	0.63342	0.2437	0.63834	2.891
Mof_N 	N 	0.77082	0.91494	0.83215	-0.452
Mof_N 	N 	0.66545	0.85726	0.02543	-0.571
Mof_N 	N 	0.49543	0.16405	0.85641	-0.558
Mof_N 	N 	0.68487	0.08185	0.74616	-0.374
Mof_C 	C 	0.69817	0.95365	0.87366	0.004
Mof_C 	C 	0.6457	0.05401	0.82119	-0.005
Mof_C 	C 	0.56286	0.11689	0.84025	0.122
Mof_C 	C 	0.75822	0.99549	0.75776	-0.055
Mof_C 	C 	0.68127	0.89869	0.95771	0.118
Mof_C 	C 	0.82397	0.98526	0.69092	0.799
Mof_F 	F 	0.90053	0.92495	0.72607	-0.704
Mof_F 	F 	0.79537	0.89706	0.62253	-0.592
Mof_F 	F 	0.84232	0.12105	0.65821	-0.623
Mof_Li	Li	0.86658	0.7437	0.86166	2.889
Mof_N 	N 	0.72918	0.41494	0.66785	-0.452
Mof_N 	N 	0.83455	0.35726	0.47457	-0.572
Mof_N 	N 	0.00457	0.66405	0.64359	-0.558
Mof_N 	N 	0.81513	0.58185	0.75384	-0.375
Mof_C 	C 	0.80183	0.45365	0.62634	0.004
Mof_C 	C 	0.8543	0.55401	0.67881	-0.007
Mof_C 	C 	0.93714	0.61689	0.65975	0.121
Mof_C 	C 	0.74178	0.49549	0.74224	-0.054
Mof_C 	C 	0.81873	0.39869	0.54229	0.12
Mof_C 	C 	0.67603	0.48526	0.80908	0.8
Mof_F 	F 	0.59947	0.42495	0.77393	-0.704
Mof_F 	F 	0.70463	0.39706	0.87747	-0.592
Mof_F 	F 	0.65768	0.62105	0.84179	-0.623
Mof_Li	Li	0.36658	0.2437	0.86166	2.892
Mof_N 	N 	0.22918	0.91494	0.66785	-0.452
Mof_N 	N 	0.33455	0.85726	0.47457	-0.573
Mof_N 	N 	0.50457	0.16405	0.64359	-0.558
Mof_N 	N 	0.31513	0.08185	0.75384	-0.374
Mof_C 	C 	0.30183	0.95365	0.62634	0.004
Mof_C 	C 	0.3543	0.05401	0.67881	-0.006
Mof_C 	C 	0.43714	0.11689	0.65975	0.122
Mof_C 	C 	0.24178	0.99549	0.74224	-0.055
Mof_C 	C 	0.31873	0.89869	0.54229	0.12
Mof_C 	C 	0.17603	0.98526	0.80908	0.799
Mof_F 	F 	0.09947	0.92495	0.77393	-0.704
Mof_F 	F 	0.20463	0.89706	0.87747	-0.592
Mof_F 	F 	0.15768	0.12105	0.84179	-0.622
_end
