data_functionalizedCrystal
_audit_creation_method	'EQeq! by Chris Wilmer'
_symmetry_space_group_name_H-M	'P1'
_symmetry_Int_Tables_number	1
_symmetry_cell_setting	triclinic
loop_
_symmetry_equiv_pos_as_xyz
  x,y,z
_cell_length_a	17.4726
_cell_length_b	30.0733
_cell_length_c	30.0733
_cell_angle_alpha	85.159
_cell_angle_beta	73.112
_cell_angle_gamma	73.1121
loop_
_atom_site_label
_atom_site_type_symbol
_atom_site_fract_x
_atom_site_fract_y
_atom_site_fract_z
_atom_site_charge
Mof_Mn	Mn	0.08857	0.91672	0.35642	1.059
Mof_Mn	Mn	0.2595	0.8833	0.46368	1.016
Mof_Mn	Mn	0.79697	0.9976	0.4218	1.056
Mof_Mn	Mn	0.86171	0.58328	0.14358	1.06
Mof_Mn	Mn	0.10648	0.6167	0.03632	1.015
Mof_Mn	Mn	0.71637	0.5024	0.0782	1.055
Mof_Mn	Mn	0.44499	0.64358	0.41672	1.06
Mof_Mn	Mn	0.72318	0.53632	0.3833	1.016
Mof_Mn	Mn	0.21877	0.5782	0.4976	1.055
Mof_Mn	Mn	0.00529	0.85642	0.08328	1.058
Mof_Mn	Mn	0.1428	0.96368	0.1167	1.012
Mof_Mn	Mn	0.79457	0.9218	0.0024	1.053
Mof_Mn	Mn	0.91143	0.08328	0.64358	1.058
Mof_Mn	Mn	0.7405	0.1167	0.53632	1.015
Mof_Mn	Mn	0.20303	0.0024	0.5782	1.055
Mof_Mn	Mn	0.13829	0.41672	0.85642	1.059
Mof_Mn	Mn	0.89352	0.3833	0.96368	1.014
Mof_Mn	Mn	0.28363	0.4976	0.9218	1.054
Mof_Mn	Mn	0.55501	0.35642	0.58328	1.059
Mof_Mn	Mn	0.27682	0.46368	0.6167	1.015
Mof_Mn	Mn	0.78123	0.4218	0.5024	1.054
Mof_Mn	Mn	0.99471	0.14358	0.91672	1.056
Mof_Mn	Mn	0.8572	0.03632	0.8833	1.012
Mof_Mn	Mn	0.20543	0.0782	0.9976	1.053
Mof_H 	H 	0.2704	0.7568	0.4014	0.003
Mof_H 	H 	0.2596	0.6958	0.364	0.112
Mof_H 	H 	0.1686	0.7104	0.318	-0.038
Mof_H 	H 	0.0882	0.7849	0.3099	0.135
Mof_H 	H 	0.1111	0.0286	0.434	0.057
Mof_H 	H 	0.1857	0.9936	0.451	0.054
Mof_H 	H 	0.2085	0.0273	0.3567	0.13
Mof_H 	H 	0.2816	0.9978	0.3782	0.118
Mof_H 	H 	0.1924	0.0778	0.427	-0.095
Mof_H 	H 	0.2294	0.0888	0.3738	-0.105
Mof_H 	H 	0.3046	0.0467	0.4333	0.201
Mof_H 	H 	0.3453	0.0521	0.3793	0.187
Mof_H 	H 	0.2581	0.1376	0.4252	0.01
Mof_H 	H 	0.3399	0.1099	0.4403	0.003
Mof_H 	H 	0.347	0.1245	0.3871	0.002
Mof_H 	H 	0.1555	0.9069	0.2459	-0.003
Mof_H 	H 	0.2704	0.9048	0.1838	0.103
Mof_H 	H 	0.3956	0.9135	0.2741	0.087
Mof_H 	H 	0.2773	0.915	0.3338	-0.009
Mof_H 	H 	0.4061	0.9404	0.164	0.071
Mof_H 	H 	0.4289	0.8854	0.1594	0.073
Mof_H 	H 	0.442	0.9877	0.4829	-0.012
Mof_H 	H 	0.5543	0.9844	0.417	0.119
Mof_H 	H 	0.5668	0.9427	0.3531	-0.046
Mof_H 	H 	0.4708	0.9041	0.3533	0.138
Mof_H 	H 	0.0653	0.9449	0.6063	0.125
Mof_H 	H 	0.0212	0.9282	0.5736	0.132
Mof_H 	H 	0.0162	0.8791	0.6373	-0.025
Mof_H 	H 	0.0796	0.8494	0.5932	-0.016
Mof_H 	H 	0.1321	0.8891	0.6581	0.135
Mof_H 	H 	0.1934	0.8566	0.6156	0.135
Mof_H 	H 	0.0824	0.8264	0.6932	-0.066
Mof_H 	H 	0.1428	0.7937	0.6503	-0.063
Mof_H 	H 	0.1986	0.8338	0.713	0.202
Mof_H 	H 	0.2016	0.7802	0.7124	0.193
Mof_H 	H 	0.2593	0.8017	0.6699	0.199
Mof_H 	H 	0.9798	0.9821	0.2479	-0.003
Mof_H 	H 	0.906	0.023	0.1984	0.116
Mof_H 	H 	0.7711	0.0703	0.2289	-0.033
Mof_H 	H 	0.7087	0.0725	0.3083	0.134
Mof_H 	H 	0.9554	0.9168	0.5086	0.132
Mof_H 	H 	0.023	0.8895	0.4641	0.124
Mof_H 	H 	0.9462	0.8407	0.5155	-0.016
Mof_H 	H 	0.8634	0.8719	0.5035	-0.003
Mof_H 	H 	0.005	0.8174	0.4374	0.129
Mof_H 	H 	0.9232	0.849	0.425	0.131
Mof_H 	H 	0.9249	0.7697	0.4845	-0.05
Mof_H 	H 	0.8448	0.8008	0.4698	-0.053
Mof_H 	H 	0.925	0.7777	0.3901	0.197
Mof_H 	H 	0.8921	0.7385	0.4229	0.196
Mof_H 	H 	0.9871	0.7387	0.4127	0.2
Mof_H 	H 	0.634	0.9805	0.0711	-0.006
Mof_H 	H 	0.5307	0.9775	0.1377	0.091
Mof_H 	H 	0.6127	0.8391	0.1325	0.088
Mof_H 	H 	0.7151	0.845	0.0664	-0.02
Mof_H 	H 	0.5138	0.8766	0.2058	0.062
Mof_H 	H 	0.4913	0.932	0.2098	0.062
Mof_H 	H 	0.9286	0.7432	0.0986	0.003
Mof_H 	H 	0.8194	0.8042	0.136	0.112
Mof_H 	H 	0.697	0.7896	0.182	-0.038
Mof_H 	H 	0.683	0.7151	0.1901	0.135
Mof_H 	H 	0.0737	0.4714	0.066	0.057
Mof_H 	H 	0.1303	0.5064	0.049	0.055
Mof_H 	H 	0.0925	0.4727	0.1433	0.13
Mof_H 	H 	0.1576	0.5022	0.1218	0.118
Mof_H 	H 	0.1972	0.4222	0.073	-0.095
Mof_H 	H 	0.192	0.4112	0.1262	-0.105
Mof_H 	H 	0.2846	0.4533	0.0667	0.201
Mof_H 	H 	0.2767	0.4479	0.1207	0.187
Mof_H 	H 	0.3209	0.3624	0.0748	0.01
Mof_H 	H 	0.3901	0.3901	0.0597	0.003
Mof_H 	H 	0.3586	0.3755	0.1129	0.002
Mof_H 	H 	0.8083	0.5931	0.2541	-0.003
Mof_H 	H 	0.859	0.5952	0.3162	0.103
Mof_H 	H 	0.0832	0.5865	0.2259	0.087
Mof_H 	H 	0.0261	0.585	0.1662	-0.01
Mof_H 	H 	0.0105	0.5596	0.336	0.072
Mof_H 	H 	0.9737	0.6146	0.3406	0.073
Mof_H 	H 	0.4126	0.5123	0.0171	-0.012
Mof_H 	H 	0.4557	0.5156	0.083	0.119
Mof_H 	H 	0.3626	0.5573	0.1469	-0.046
Mof_H 	H 	0.2282	0.5959	0.1467	0.138
Mof_H 	H 	0.1165	0.5551	0.8937	0.125
Mof_H 	H 	0.023	0.5718	0.9264	0.132
Mof_H 	H 	0.0326	0.6209	0.8627	-0.025
Mof_H 	H 	0.0222	0.6506	0.9068	-0.015
Mof_H 	H 	0.1793	0.6109	0.8419	0.136
Mof_H 	H 	0.1656	0.6434	0.8844	0.135
Mof_H 	H 	0.102	0.6736	0.8068	-0.066
Mof_H 	H 	0.0868	0.7063	0.8497	-0.063
Mof_H 	H 	0.2454	0.6662	0.787	0.202
Mof_H 	H 	0.1942	0.7198	0.7876	0.193
Mof_H 	H 	0.2309	0.6983	0.8301	0.199
Mof_H 	H 	0.7098	0.5179	0.2521	-0.004
Mof_H 	H 	0.6274	0.477	0.3016	0.117
Mof_H 	H 	0.5703	0.4297	0.2711	-0.033
Mof_H 	H 	0.5895	0.4275	0.1917	0.134
Mof_H 	H 	0.8808	0.5832	0.9914	0.132
Mof_H 	H 	0.8766	0.6105	0.0359	0.124
Mof_H 	H 	0.8024	0.6593	0.9845	-0.016
Mof_H 	H 	0.7388	0.6281	0.9965	-0.003
Mof_H 	H 	0.7598	0.6826	0.0626	0.13
Mof_H 	H 	0.6972	0.651	0.075	0.131
Mof_H 	H 	0.6791	0.7303	0.0155	-0.051
Mof_H 	H 	0.6154	0.6992	0.0302	-0.053
Mof_H 	H 	0.5928	0.7223	0.1099	0.197
Mof_H 	H 	0.5535	0.7615	0.0771	0.196
Mof_H 	H 	0.6385	0.7613	0.0873	0.2
Mof_H 	H 	0.1856	0.5195	0.4289	-0.006
Mof_H 	H 	0.1459	0.5225	0.3623	0.091
Mof_H 	H 	0.0843	0.6609	0.3675	0.087
Mof_H 	H 	0.1265	0.655	0.4336	-0.02
Mof_H 	H 	0.0962	0.6234	0.2942	0.062
Mof_H 	H 	0.1331	0.568	0.2902	0.061
Mof_H 	H 	0.6718	0.5986	0.2568	0.003
Mof_H 	H 	0.6236	0.636	0.1958	0.112
Mof_H 	H 	0.4866	0.682	0.2104	-0.038
Mof_H 	H 	0.3981	0.6901	0.2849	0.135
Mof_H 	H 	0.5451	0.566	0.5286	0.057
Mof_H 	H 	0.6367	0.549	0.4936	0.056
Mof_H 	H 	0.5652	0.6433	0.5273	0.13
Mof_H 	H 	0.6598	0.6218	0.4978	0.118
Mof_H 	H 	0.6194	0.573	0.5778	-0.095
Mof_H 	H 	0.6032	0.6262	0.5888	-0.105
Mof_H 	H 	0.7379	0.5667	0.5467	0.201
Mof_H 	H 	0.7246	0.6207	0.5521	0.187
Mof_H 	H 	0.6833	0.5748	0.6376	0.01
Mof_H 	H 	0.7802	0.5597	0.6099	0.003
Mof_H 	H 	0.7341	0.6129	0.6245	0.002
Mof_H 	H 	0.4014	0.7541	0.4069	-0.003
Mof_H 	H 	0.4542	0.8162	0.4048	0.103
Mof_H 	H 	0.6697	0.7259	0.4135	0.087
Mof_H 	H 	0.6111	0.6662	0.415	-0.009
Mof_H 	H 	0.5701	0.836	0.4404	0.071
Mof_H 	H 	0.5883	0.8406	0.3854	0.073
Mof_H 	H 	0.9249	0.5171	0.4877	-0.012
Mof_H 	H 	0.9713	0.583	0.4844	0.119
Mof_H 	H 	0.9199	0.6469	0.4427	-0.046
Mof_H 	H 	0.8241	0.6467	0.4041	0.138
Mof_H 	H 	0.6716	0.3937	0.4449	0.125
Mof_H 	H 	0.5948	0.4264	0.4282	0.132
Mof_H 	H 	0.6535	0.3627	0.3791	-0.025
Mof_H 	H 	0.6728	0.4068	0.3494	-0.016
Mof_H 	H 	0.7902	0.3419	0.3891	0.135
Mof_H 	H 	0.809	0.3844	0.3566	0.135
Mof_H 	H 	0.7756	0.3068	0.3264	-0.066
Mof_H 	H 	0.7931	0.3497	0.2937	-0.063
Mof_H 	H 	0.9116	0.287	0.3338	0.202
Mof_H 	H 	0.914	0.2876	0.2802	0.193
Mof_H 	H 	0.9292	0.3301	0.3017	0.199
Mof_H 	H 	0.2277	0.7521	0.4821	-0.004
Mof_H 	H 	0.1044	0.8016	0.523	0.117
Mof_H 	H 	3.3276e-17	0.7711	0.5703	-0.033
Mof_H 	H 	0.017	0.6917	0.5725	0.134
Mof_H 	H 	0.464	0.4914	0.4168	0.133
Mof_H 	H 	0.4871	0.5359	0.3895	0.124
Mof_H 	H 	0.4617	0.4845	0.3407	-0.016
Mof_H 	H 	0.3669	0.4965	0.3719	-0.003
Mof_H 	H 	0.4424	0.5626	0.3174	0.13
Mof_H 	H 	0.3482	0.575	0.349	0.131
Mof_H 	H 	0.4094	0.5155	0.2697	-0.051
Mof_H 	H 	0.3146	0.5302	0.3008	-0.053
Mof_H 	H 	0.3151	0.6099	0.2777	0.197
Mof_H 	H 	0.315	0.5771	0.2385	0.196
Mof_H 	H 	0.3998	0.5873	0.2387	0.2
Mof_H 	H 	0.7051	0.9289	0.4805	-0.006
Mof_H 	H 	0.6684	0.8623	0.4775	0.091
Mof_H 	H 	0.7452	0.8675	0.3391	0.088
Mof_H 	H 	0.7815	0.9336	0.345	-0.02
Mof_H 	H 	0.7196	0.7942	0.3766	0.062
Mof_H 	H 	0.7011	0.7902	0.432	0.062
Mof_H 	H 	0.0272	0.9014	0.2432	0.002
Mof_H 	H 	0.9554	0.864	0.3042	0.112
Mof_H 	H 	0.879	0.818	0.2896	-0.038
Mof_H 	H 	0.8731	0.8099	0.2151	0.135
Mof_H 	H 	0.1397	0.934	0.9714	0.056
Mof_H 	H 	0.1793	0.951	0.0064	0.053
Mof_H 	H 	0.2358	0.8567	0.9727	0.13
Mof_H 	H 	0.2794	0.8782	0.0022	0.117
Mof_H 	H 	0.2702	0.927	0.9222	-0.094
Mof_H 	H 	0.3182	0.8738	0.9112	-0.105
Mof_H 	H 	0.3513	0.9333	0.9533	0.201
Mof_H 	H 	0.3974	0.8793	0.9479	0.187
Mof_H 	H 	0.3957	0.9252	0.8624	0.01
Mof_H 	H 	0.4498	0.9403	0.8901	0.003
Mof_H 	H 	0.4715	0.8871	0.8755	0.003
Mof_H 	H 	0.0624	0.7459	0.0931	-0.003
Mof_H 	H 	0.1752	0.6838	0.0952	0.103
Mof_H 	H 	0.3091	0.7741	0.0865	0.087
Mof_H 	H 	0.1923	0.8338	0.085	-0.009
Mof_H 	H 	0.3465	0.664	0.0596	0.071
Mof_H 	H 	0.3143	0.6594	0.1146	0.073
Mof_H 	H 	0.4297	0.9829	0.0123	-0.012
Mof_H 	H 	0.5387	0.917	0.0156	0.119
Mof_H 	H 	0.5095	0.8531	0.0573	-0.046
Mof_H 	H 	0.3749	0.8533	0.0959	0.138
Mof_H 	H 	0.0102	0.1063	0.0551	0.126
Mof_H 	H 	0.9494	0.0736	0.0718	0.132
Mof_H 	H 	0.8953	0.1373	0.1209	-0.024
Mof_H 	H 	0.929	0.0932	0.1506	-0.015
Mof_H 	H 	0.0212	0.1581	0.1109	0.134
Mof_H 	H 	0.05	0.1156	0.1434	0.134
Mof_H 	H 	0.9088	0.1932	0.1736	-0.064
Mof_H 	H 	0.9365	0.1503	0.2063	-0.062
Mof_H 	H 	0.0324	0.213	0.1662	0.2
Mof_H 	H 	0.9818	0.2124	0.2198	0.191
Mof_H 	H 	0.061	0.1699	0.1983	0.197
Mof_H 	H 	0.9619	0.7479	0.0179	-0.004
Mof_H 	H 	0.929	0.6984	0.977	0.117
Mof_H 	H 	0.8414	0.7289	0.9297	-0.033
Mof_H 	H 	0.7812	0.8083	0.9275	0.134
Mof_H 	H 	0.8722	0.0086	0.0832	0.133
Mof_H 	H 	0.9125	0.9641	0.1105	0.125
Mof_H 	H 	0.7869	0.0155	0.1593	-0.016
Mof_H 	H 	0.7353	0.0035	0.1281	-0.003
Mof_H 	H 	0.8224	0.9374	0.1826	0.13
Mof_H 	H 	0.7722	0.925	0.151	0.131
Mof_H 	H 	0.6946	0.9845	0.2303	-0.051
Mof_H 	H 	0.6456	0.9698	0.1992	-0.053
Mof_H 	H 	0.7027	0.8901	0.2223	0.197
Mof_H 	H 	0.6306	0.9229	0.2615	0.196
Mof_H 	H 	0.7258	0.9127	0.2613	0.2
Mof_H 	H 	0.6145	0.5711	0.0195	-0.006
Mof_H 	H 	0.5082	0.6377	0.0225	0.091
Mof_H 	H 	0.4518	0.6325	0.1609	0.088
Mof_H 	H 	0.5601	0.5664	0.155	-0.02
Mof_H 	H 	0.3904	0.7058	0.1234	0.062
Mof_H 	H 	0.4233	0.7098	0.068	0.062
Mof_H 	H 	0.7296	0.2432	0.5986	0.003
Mof_H 	H 	0.7404	0.3042	0.636	0.112
Mof_H 	H 	0.8314	0.2896	0.682	-0.038
Mof_H 	H 	0.9118	0.2151	0.6901	0.134
Mof_H 	H 	0.8889	0.9714	0.566	0.056
Mof_H 	H 	0.8143	0.0064	0.549	0.054
Mof_H 	H 	0.7915	0.9727	0.6433	0.13
Mof_H 	H 	0.7184	0.0022	0.6218	0.118
Mof_H 	H 	0.8076	0.9222	0.573	-0.095
Mof_H 	H 	0.7706	0.9112	0.6262	-0.105
Mof_H 	H 	0.6954	0.9533	0.5667	0.201
Mof_H 	H 	0.6547	0.9479	0.6207	0.187
Mof_H 	H 	0.7419	0.8624	0.5748	0.01
Mof_H 	H 	0.6601	0.8901	0.5597	0.003
Mof_H 	H 	0.653	0.8755	0.6129	0.002
Mof_H 	H 	0.8445	0.0931	0.7541	-0.003
Mof_H 	H 	0.7296	0.0952	0.8162	0.103
Mof_H 	H 	0.6044	0.0865	0.7259	0.087
Mof_H 	H 	0.7227	0.085	0.6662	-0.009
Mof_H 	H 	0.5939	0.0596	0.836	0.071
Mof_H 	H 	0.5711	0.1146	0.8406	0.073
Mof_H 	H 	0.558	0.0123	0.5171	-0.012
Mof_H 	H 	0.4457	0.0156	0.583	0.119
Mof_H 	H 	0.4332	0.0573	0.6469	-0.046
Mof_H 	H 	0.5292	0.0959	0.6467	0.138
Mof_H 	H 	0.9347	0.0551	0.3937	0.125
Mof_H 	H 	0.9788	0.0718	0.4264	0.131
Mof_H 	H 	0.9838	0.1209	0.3627	-0.025
Mof_H 	H 	0.9204	0.1506	0.4068	-0.016
Mof_H 	H 	0.8679	0.1109	0.3419	0.135
Mof_H 	H 	0.8066	0.1434	0.3844	0.135
Mof_H 	H 	0.9176	0.1736	0.3068	-0.066
Mof_H 	H 	0.8572	0.2063	0.3497	-0.063
Mof_H 	H 	0.8014	0.1662	0.287	0.202
Mof_H 	H 	0.7984	0.2198	0.2876	0.193
Mof_H 	H 	0.7407	0.1983	0.3301	0.199
Mof_H 	H 	0.0202	0.0179	0.7521	-0.003
Mof_H 	H 	0.094	0.977	0.8016	0.116
Mof_H 	H 	0.2289	0.9297	0.7711	-0.033
Mof_H 	H 	0.2913	0.9275	0.6917	0.134
Mof_H 	H 	0.0446	0.0832	0.4914	0.132
Mof_H 	H 	0.977	0.1105	0.5359	0.123
Mof_H 	H 	0.0538	0.1593	0.4845	-0.015
Mof_H 	H 	0.1366	0.1281	0.4965	-0.002
Mof_H 	H 	0.995	0.1826	0.5626	0.128
Mof_H 	H 	0.0768	0.151	0.575	0.13
Mof_H 	H 	0.0751	0.2303	0.5155	-0.05
Mof_H 	H 	0.1552	0.1992	0.5302	-0.052
Mof_H 	H 	0.075	0.2223	0.6099	0.197
Mof_H 	H 	0.1079	0.2615	0.5771	0.196
Mof_H 	H 	0.0129	0.2613	0.5873	0.2
Mof_H 	H 	0.366	0.0195	0.9289	-0.006
Mof_H 	H 	0.4693	0.0225	0.8623	0.091
Mof_H 	H 	0.3873	0.1609	0.8675	0.088
Mof_H 	H 	0.2849	0.155	0.9336	-0.02
Mof_H 	H 	0.4862	0.1234	0.7942	0.062
Mof_H 	H 	0.5087	0.068	0.7902	0.062
Mof_H 	H 	0.0714	0.2568	0.9014	0.003
Mof_H 	H 	0.1806	0.1958	0.864	0.112
Mof_H 	H 	0.303	0.2104	0.818	-0.038
Mof_H 	H 	0.317	0.2849	0.8099	0.135
Mof_H 	H 	0.9263	0.5286	0.934	0.057
Mof_H 	H 	0.8697	0.4936	0.951	0.055
Mof_H 	H 	0.9075	0.5273	0.8567	0.13
Mof_H 	H 	0.8424	0.4978	0.8782	0.118
Mof_H 	H 	0.8028	0.5778	0.927	-0.095
Mof_H 	H 	0.808	0.5888	0.8738	-0.105
Mof_H 	H 	0.7154	0.5467	0.9333	0.201
Mof_H 	H 	0.7233	0.5521	0.8793	0.187
Mof_H 	H 	0.6791	0.6376	0.9252	0.01
Mof_H 	H 	0.6099	0.6099	0.9403	0.003
Mof_H 	H 	0.6414	0.6245	0.8871	0.002
Mof_H 	H 	0.1917	0.4069	0.7459	-0.004
Mof_H 	H 	0.141	0.4048	0.6838	0.104
Mof_H 	H 	0.9168	0.4135	0.7741	0.089
Mof_H 	H 	0.9739	0.415	0.8338	-0.011
Mof_H 	H 	0.9895	0.4404	0.664	0.073
Mof_H 	H 	0.0263	0.3854	0.6594	0.075
Mof_H 	H 	0.5874	0.4877	0.9829	-0.012
Mof_H 	H 	0.5443	0.4844	0.917	0.119
Mof_H 	H 	0.6374	0.4427	0.8531	-0.046
Mof_H 	H 	0.7718	0.4041	0.8533	0.138
Mof_H 	H 	0.8835	0.4449	0.1063	0.125
Mof_H 	H 	0.977	0.4282	0.0736	0.132
Mof_H 	H 	0.9674	0.3791	0.1373	-0.025
Mof_H 	H 	0.9778	0.3494	0.0932	-0.016
Mof_H 	H 	0.8207	0.3891	0.1581	0.136
Mof_H 	H 	0.8344	0.3566	0.1156	0.135
Mof_H 	H 	0.898	0.3264	0.1932	-0.066
Mof_H 	H 	0.9132	0.2937	0.1503	-0.064
Mof_H 	H 	0.7546	0.3338	0.213	0.202
Mof_H 	H 	0.8058	0.2802	0.2124	0.193
Mof_H 	H 	0.7691	0.3017	0.1699	0.199
Mof_H 	H 	0.2902	0.4821	0.7479	-0.004
Mof_H 	H 	0.3726	0.523	0.6984	0.117
Mof_H 	H 	0.4297	0.5703	0.7289	-0.033
Mof_H 	H 	0.4105	0.5725	0.8083	0.134
Mof_H 	H 	0.1192	0.4168	0.0086	0.132
Mof_H 	H 	0.1234	0.3895	0.9641	0.124
Mof_H 	H 	0.1976	0.3407	0.0155	-0.016
Mof_H 	H 	0.2612	0.3719	0.0035	-0.003
Mof_H 	H 	0.2402	0.3174	0.9374	0.13
Mof_H 	H 	0.3028	0.349	0.925	0.131
Mof_H 	H 	0.3209	0.2697	0.9845	-0.051
Mof_H 	H 	0.3846	0.3008	0.9698	-0.053
Mof_H 	H 	0.4072	0.2777	0.8901	0.197
Mof_H 	H 	0.4465	0.2385	0.9229	0.196
Mof_H 	H 	0.3615	0.2387	0.9127	0.2
Mof_H 	H 	0.8144	0.4805	0.5711	-0.006
Mof_H 	H 	0.8541	0.4775	0.6377	0.091
Mof_H 	H 	0.9157	0.3391	0.6325	0.087
Mof_H 	H 	0.8735	0.345	0.5664	-0.02
Mof_H 	H 	0.9038	0.3766	0.7058	0.061
Mof_H 	H 	0.8669	0.432	0.7098	0.06
Mof_H 	H 	0.3282	0.4014	0.7432	0.003
Mof_H 	H 	0.3764	0.364	0.8042	0.112
Mof_H 	H 	0.5134	0.318	0.7896	-0.038
Mof_H 	H 	0.6019	0.3099	0.7151	0.135
Mof_H 	H 	0.4549	0.434	0.4714	0.057
Mof_H 	H 	0.3633	0.451	0.5064	0.056
Mof_H 	H 	0.4348	0.3567	0.4727	0.13
Mof_H 	H 	0.3402	0.3782	0.5022	0.118
Mof_H 	H 	0.3806	0.427	0.4222	-0.095
Mof_H 	H 	0.3968	0.3738	0.4112	-0.105
Mof_H 	H 	0.2621	0.4333	0.4533	0.201
Mof_H 	H 	0.2754	0.3793	0.4479	0.187
Mof_H 	H 	0.3167	0.4252	0.3624	0.01
Mof_H 	H 	0.2198	0.4403	0.3901	0.003
Mof_H 	H 	0.2659	0.3871	0.3755	0.002
Mof_H 	H 	0.5986	0.2459	0.5931	-0.003
Mof_H 	H 	0.5458	0.1838	0.5952	0.103
Mof_H 	H 	0.3303	0.2741	0.5865	0.087
Mof_H 	H 	0.3889	0.3338	0.585	-0.009
Mof_H 	H 	0.4299	0.164	0.5596	0.071
Mof_H 	H 	0.4117	0.1594	0.6146	0.073
Mof_H 	H 	0.0751	0.4829	0.5123	-0.012
Mof_H 	H 	0.0287	0.417	0.5156	0.119
Mof_H 	H 	0.0801	0.3531	0.5573	-0.046
Mof_H 	H 	0.1759	0.3533	0.5959	0.138
Mof_H 	H 	0.3284	0.6063	0.5551	0.125
Mof_H 	H 	0.4052	0.5736	0.5718	0.132
Mof_H 	H 	0.3465	0.6373	0.6209	-0.025
Mof_H 	H 	0.3272	0.5932	0.6506	-0.016
Mof_H 	H 	0.2098	0.6581	0.6109	0.136
Mof_H 	H 	0.191	0.6156	0.6434	0.135
Mof_H 	H 	0.2244	0.6932	0.6736	-0.066
Mof_H 	H 	0.2069	0.6503	0.7063	-0.063
Mof_H 	H 	0.0884	0.713	0.6662	0.202
Mof_H 	H 	0.086	0.7124	0.7198	0.193
Mof_H 	H 	0.0708	0.6699	0.6983	0.199
Mof_H 	H 	0.7723	0.2479	0.5179	-0.004
Mof_H 	H 	0.8956	0.1984	0.477	0.116
Mof_H 	H 	4.83566e-17	0.2289	0.4297	-0.032
Mof_H 	H 	0.983	0.3083	0.4275	0.133
Mof_H 	H 	0.536	0.5086	0.5832	0.133
Mof_H 	H 	0.5129	0.4641	0.6105	0.124
Mof_H 	H 	0.5383	0.5155	0.6593	-0.016
Mof_H 	H 	0.6331	0.5035	0.6281	-0.003
Mof_H 	H 	0.5576	0.4374	0.6826	0.13
Mof_H 	H 	0.6518	0.425	0.651	0.131
Mof_H 	H 	0.5906	0.4845	0.7303	-0.051
Mof_H 	H 	0.6854	0.4698	0.6992	-0.053
Mof_H 	H 	0.6849	0.3901	0.7223	0.197
Mof_H 	H 	0.685	0.4229	0.7615	0.196
Mof_H 	H 	0.6002	0.4127	0.7613	0.2
Mof_H 	H 	0.2949	0.0711	0.5195	-0.006
Mof_H 	H 	0.3316	0.1377	0.5225	0.091
Mof_H 	H 	0.2548	0.1325	0.6609	0.088
Mof_H 	H 	0.2185	0.0664	0.655	-0.02
Mof_H 	H 	0.2804	0.2058	0.6234	0.062
Mof_H 	H 	0.2989	0.2098	0.568	0.062
Mof_H 	H 	0.9728	0.0986	0.7568	0.001
Mof_H 	H 	0.0446	0.136	0.6958	0.113
Mof_H 	H 	0.121	0.182	0.7104	-0.039
Mof_H 	H 	0.1269	0.1901	0.7849	0.135
Mof_H 	H 	0.8603	0.066	0.0286	0.056
Mof_H 	H 	0.8207	0.049	0.9936	0.053
Mof_H 	H 	0.7642	0.1433	0.0273	0.13
Mof_H 	H 	0.7206	0.1218	0.9978	0.117
Mof_H 	H 	0.7298	0.073	0.0778	-0.094
Mof_H 	H 	0.6818	0.1262	0.0888	-0.105
Mof_H 	H 	0.6487	0.0667	0.0467	0.201
Mof_H 	H 	0.6026	0.1207	0.0521	0.187
Mof_H 	H 	0.6043	0.0748	0.1376	0.01
Mof_H 	H 	0.5502	0.0597	0.1099	0.003
Mof_H 	H 	0.5285	0.1129	0.1245	0.003
Mof_H 	H 	0.9376	0.2541	0.9069	-0.003
Mof_H 	H 	0.8248	0.3162	0.9048	0.103
Mof_H 	H 	0.6909	0.2259	0.9135	0.087
Mof_H 	H 	0.8077	0.1662	0.915	-0.009
Mof_H 	H 	0.6535	0.336	0.9404	0.071
Mof_H 	H 	0.6857	0.3406	0.8854	0.073
Mof_H 	H 	0.5703	0.0171	0.9877	-0.012
Mof_H 	H 	0.4613	0.083	0.9844	0.119
Mof_H 	H 	0.4905	0.1469	0.9427	-0.046
Mof_H 	H 	0.6251	0.1467	0.9041	0.138
Mof_H 	H 	0.9898	0.8937	0.9449	0.126
Mof_H 	H 	0.0506	0.9264	0.9282	0.132
Mof_H 	H 	0.1047	0.8627	0.8791	-0.025
Mof_H 	H 	0.071	0.9068	0.8494	-0.016
Mof_H 	H 	0.9788	0.8419	0.8891	0.136
Mof_H 	H 	0.95	0.8844	0.8566	0.135
Mof_H 	H 	0.0912	0.8068	0.8264	-0.066
Mof_H 	H 	0.0635	0.8497	0.7937	-0.063
Mof_H 	H 	0.9676	0.787	0.8338	0.202
Mof_H 	H 	0.0182	0.7876	0.7802	0.193
Mof_H 	H 	0.939	0.8301	0.8017	0.199
Mof_H 	H 	0.0381	0.2521	0.9821	-0.004
Mof_H 	H 	0.071	0.3016	0.023	0.117
Mof_H 	H 	0.1586	0.2711	0.0703	-0.033
Mof_H 	H 	0.2188	0.1917	0.0725	0.134
Mof_H 	H 	0.1278	0.9914	0.9168	0.133
Mof_H 	H 	0.0875	0.0359	0.8895	0.125
Mof_H 	H 	0.2131	0.9845	0.8407	-0.016
Mof_H 	H 	0.2647	0.9965	0.8719	-0.003
Mof_H 	H 	0.1776	0.0626	0.8174	0.13
Mof_H 	H 	0.2278	0.075	0.849	0.131
Mof_H 	H 	0.3054	0.0155	0.7697	-0.051
Mof_H 	H 	0.3544	0.0302	0.8008	-0.053
Mof_H 	H 	0.2973	0.1099	0.7777	0.197
Mof_H 	H 	0.3694	0.0771	0.7385	0.196
Mof_H 	H 	0.2742	0.0873	0.7387	0.2
Mof_H 	H 	0.3855	0.4289	0.9805	-0.006
Mof_H 	H 	0.4918	0.3623	0.9775	0.091
Mof_H 	H 	0.5482	0.3675	0.8391	0.088
Mof_H 	H 	0.4399	0.4336	0.845	-0.02
Mof_H 	H 	0.6096	0.2942	0.8766	0.062
Mof_H 	H 	0.5767	0.2902	0.932	0.062
Mof_C 	C 	0.13185	0.81737	0.35033	0.324
Mof_C 	C 	0.18648	0.80874	0.3783	-0.26
Mof_C 	C 	0.23318	0.7629	0.38254	0.151
Mof_C 	C 	0.22713	0.72657	0.36057	-0.23
Mof_C 	C 	0.17303	0.73545	0.33349	0.163
Mof_C 	C 	0.12565	0.77967	0.32843	-0.297
Mof_C 	C 	0.19713	0.84545	0.40329	0.309
Mof_C 	C 	0.14588	0.96311	0.40673	0.224
Mof_C 	C 	0.16348	0.0034	0.42384	-0.107
Mof_C 	C 	0.22727	0.02176	0.3853	-0.339
Mof_C 	C 	0.2383	0.066	0.3988	0.475
Mof_C 	C 	0.2987	0.0669	0.4061	-0.597
Mof_C 	C 	0.3122	0.1142	0.4156	0.064
Mof_C 	C 	0.20518	0.9085	0.25174	0.125
Mof_C 	C 	0.27324	0.90733	0.21459	-0.21
Mof_C 	C 	0.34531	0.90982	0.22196	0.143
Mof_C 	C 	0.34634	0.91236	0.26736	-0.196
Mof_C 	C 	0.27574	0.91324	0.30268	0.114
Mof_C 	C 	0.42056	0.91072	0.18076	-0.157
Mof_C 	C 	0.40047	0.91923	0.41983	0.341
Mof_C 	C 	0.39031	0.94627	0.45791	-0.279
Mof_C 	C 	0.44813	0.97011	0.45663	0.164
Mof_C 	C 	0.51446	0.96847	0.41761	-0.254
Mof_C 	C 	0.52157	0.9437	0.38016	0.194
Mof_C 	C 	0.46531	0.92011	0.38047	-0.329
Mof_C 	C 	0.31867	0.95251	0.49955	0.312
Mof_C 	C 	0.14757	0.91401	0.54625	0.295
Mof_C 	C 	0.07047	0.9194	0.58586	-0.365
Mof_C 	C 	0.07108	0.87519	0.61405	0.169
Mof_C 	C 	0.13853	0.8624	0.63894	-0.377
Mof_C 	C 	0.137	0.82043	0.66937	0.286
Mof_C 	C 	0.205	0.80798	0.69322	-0.629
Mof_C 	C 	0.80731	0.02788	0.3269	0.329
Mof_C 	C 	0.88915	0.00115	0.30855	-0.268
Mof_C 	C 	0.92412	0.0003	0.26046	0.158
Mof_C 	C 	0.88119	0.02474	0.23108	-0.236
Mof_C 	C 	0.80101	0.05221	0.24917	0.167
Mof_C 	C 	0.76416	0.0537	0.29638	-0.299
Mof_C 	C 	0.94042	0.97277	0.33719	0.308
Mof_C 	C 	0.92189	0.93481	0.44841	0.302
Mof_C 	C 	0.96253	0.90107	0.47947	-0.357
Mof_C 	C 	0.92461	0.85979	0.49099	0.145
Mof_C 	C 	0.94376	0.82952	0.44956	-0.35
Mof_C 	C 	0.9063	0.78869	0.45911	0.263
Mof_C 	C 	0.9296	0.7583	0.4177	-0.612
Mof_C 	C 	0.6304	0.95102	0.08398	0.123
Mof_C 	C 	0.56934	0.94941	0.12391	-0.2
Mof_C 	C 	0.56344	0.90745	0.14427	0.145
Mof_C 	C 	0.61703	0.86895	0.12099	-0.209
Mof_C 	C 	0.67713	0.87264	0.0813	0.121
Mof_C 	C 	0.4971	0.90629	0.18951	-0.149
Mof_C 	C 	0.79955	0.68263	0.14967	0.324
Mof_C 	C 	0.87352	0.69126	0.1217	-0.26
Mof_C 	C 	0.87862	0.7371	0.11746	0.151
Mof_C 	C 	0.81427	0.77343	0.13943	-0.23
Mof_C 	C 	0.74197	0.76455	0.16651	0.163
Mof_C 	C 	0.73375	0.72033	0.17157	-0.297
Mof_C 	C 	0.94587	0.65455	0.09671	0.31
Mof_C 	C 	0.01572	0.53689	0.09327	0.225
Mof_C 	C 	0.09072	0.4966	0.07616	-0.11
Mof_C 	C 	0.13433	0.47824	0.1147	-0.34
Mof_C 	C 	0.2031	0.434	0.1012	0.476
Mof_C 	C 	0.2717	0.4331	0.0939	-0.598
Mof_C 	C 	0.342	0.3858	0.0844	0.065
Mof_C 	C 	0.86542	0.5915	0.24826	0.125
Mof_C 	C 	0.89516	0.59267	0.28541	-0.21
Mof_C 	C 	0.97709	0.59018	0.27804	0.143
Mof_C 	C 	0.02606	0.58764	0.23264	-0.197
Mof_C 	C 	0.99166	0.58676	0.19732	0.115
Mof_C 	C 	0.01204	0.58928	0.31924	-0.158
Mof_C 	C 	0.23953	0.58077	0.08017	0.341
Mof_C 	C 	0.29449	0.55373	0.04209	-0.279
Mof_C 	C 	0.37487	0.52989	0.04337	0.163
Mof_C 	C 	0.40054	0.53153	0.08239	-0.253
Mof_C 	C 	0.34543	0.5563	0.11984	0.194
Mof_C 	C 	0.26589	0.57989	0.11953	-0.329
Mof_C 	C 	0.27073	0.54749	0.00045	0.311
Mof_C 	C 	0.10783	0.58599	0.95375	0.295
Mof_C 	C 	0.07573	0.5806	0.91414	-0.366
Mof_C 	C 	0.06032	0.62481	0.88595	0.169
Mof_C 	C 	0.13987	0.6376	0.86106	-0.377
Mof_C 	C 	0.1268	0.67957	0.83063	0.286
Mof_C 	C 	0.2062	0.69202	0.80678	-0.629
Mof_C 	C 	0.66209	0.47212	0.1731	0.329
Mof_C 	C 	0.69885	0.49885	0.19145	-0.267
Mof_C 	C 	0.68488	0.4997	0.23954	0.159
Mof_C 	C 	0.63701	0.47526	0.26892	-0.237
Mof_C 	C 	0.60239	0.44779	0.25083	0.167
Mof_C 	C 	0.61424	0.4463	0.20362	-0.3
Mof_C 	C 	0.75038	0.52723	0.16281	0.306
Mof_C 	C 	0.80511	0.56519	0.05159	0.302
Mof_C 	C 	0.84307	0.59893	0.02053	-0.358
Mof_C 	C 	0.77539	0.64021	0.00901	0.146
Mof_C 	C 	0.72284	0.67048	0.05044	-0.351
Mof_C 	C 	0.6541	0.71131	0.04089	0.263
Mof_C 	C 	0.6056	0.7417	0.0823	-0.613
Mof_C 	C 	0.1654	0.54898	0.41602	0.123
Mof_C 	C 	0.14266	0.55059	0.37609	-0.2
Mof_C 	C 	0.11516	0.59255	0.35573	0.145
Mof_C 	C 	0.10697	0.63105	0.37901	-0.209
Mof_C 	C 	0.13107	0.62736	0.4187	0.121
Mof_C 	C 	0.0929	0.59371	0.31049	-0.149
Mof_C 	C 	0.48218	0.64967	0.31737	0.324
Mof_C 	C 	0.56478	0.6217	0.30874	-0.26
Mof_C 	C 	0.61572	0.61746	0.2629	0.151
Mof_C 	C 	0.5877	0.63943	0.22657	-0.23
Mof_C 	C 	0.50652	0.66651	0.23545	0.163
Mof_C 	C 	0.45408	0.67157	0.27967	-0.297
Mof_C 	C 	0.60042	0.59671	0.34545	0.309
Mof_C 	C 	0.55261	0.59327	0.46311	0.225
Mof_C 	C 	0.58732	0.57616	0.5034	-0.11
Mof_C 	C 	0.61257	0.6147	0.52176	-0.34
Mof_C 	C 	0.6371	0.6012	0.566	0.475
Mof_C 	C 	0.7048	0.5939	0.5669	-0.597
Mof_C 	C 	0.7278	0.5844	0.6142	0.064
Mof_C 	C 	0.45692	0.74826	0.4085	0.125
Mof_C 	C 	0.48783	0.78541	0.40733	-0.21
Mof_C 	C 	0.56727	0.77804	0.40982	0.143
Mof_C 	C 	0.6137	0.73264	0.41236	-0.196
Mof_C 	C 	0.57842	0.69732	0.41324	0.114
Mof_C 	C 	0.60132	0.81924	0.41072	-0.157
Mof_C 	C 	0.8203	0.58017	0.41923	0.341
Mof_C 	C 	0.84822	0.54209	0.44627	-0.279
Mof_C 	C 	0.90476	0.54337	0.47011	0.164
Mof_C 	C 	0.93207	0.58239	0.46847	-0.254
Mof_C 	C 	0.90173	0.61984	0.4437	0.194
Mof_C 	C 	0.84578	0.61953	0.42011	-0.329
Mof_C 	C 	0.81822	0.50045	0.45251	0.312
Mof_C 	C 	0.69382	0.45375	0.41401	0.295
Mof_C 	C 	0.65633	0.41414	0.4194	-0.366
Mof_C 	C 	0.68513	0.38595	0.37519	0.169
Mof_C 	C 	0.77747	0.36106	0.3624	-0.377
Mof_C 	C 	0.80637	0.33063	0.32043	0.286
Mof_C 	C 	0.89822	0.30678	0.30798	-0.629
Mof_C 	C 	0.13421	0.6731	0.52788	0.329
Mof_C 	C 	0.1977	0.69145	0.50115	-0.267
Mof_C 	C 	0.18458	0.73954	0.5003	0.159
Mof_C 	C 	0.11227	0.76892	0.52474	-0.237
Mof_C 	C 	0.05018	0.75083	0.55221	0.167
Mof_C 	C 	0.06054	0.70362	0.5537	-0.3
Mof_C 	C 	0.27761	0.66281	0.47277	0.306
Mof_C 	C 	0.3703	0.55159	0.43481	0.302
Mof_C 	C 	0.442	0.52053	0.40107	-0.359
Mof_C 	C 	0.4156	0.50901	0.35979	0.147
Mof_C 	C 	0.39332	0.55044	0.32952	-0.352
Mof_C 	C 	0.36541	0.54089	0.28869	0.264
Mof_C 	C 	0.3473	0.5823	0.2583	-0.613
Mof_C 	C 	0.71438	0.91602	0.45102	0.123
Mof_C 	C 	0.69325	0.87609	0.44941	-0.2
Mof_C 	C 	0.70771	0.85573	0.40745	0.145
Mof_C 	C 	0.73802	0.87901	0.36895	-0.209
Mof_C 	C 	0.75843	0.9187	0.37264	0.121
Mof_C 	C 	0.68661	0.81049	0.40629	-0.149
Mof_C 	C 	0.94922	0.85033	0.18263	0.324
Mof_C 	C 	0.99522	0.8783	0.19126	-0.26
Mof_C 	C 	0.99608	0.88254	0.2371	0.153
Mof_C 	C 	0.9537	0.86057	0.27343	-0.231
Mof_C 	C 	0.90848	0.83349	0.26455	0.163
Mof_C 	C 	0.90532	0.82843	0.22033	-0.297
Mof_C 	C 	0.04258	0.90329	0.15455	0.308
Mof_C 	C 	0.10899	0.90673	0.03689	0.223
Mof_C 	C 	0.16688	0.92384	0.9966	-0.106
Mof_C 	C 	0.24903	0.8853	0.97824	-0.339
Mof_C 	C 	0.3043	0.8988	0.934	0.474
Mof_C 	C 	0.3656	0.9061	0.9331	-0.596
Mof_C 	C 	0.4264	0.9156	0.8858	0.063
Mof_C 	C 	0.11368	0.75174	0.0915	0.125
Mof_C 	C 	0.18057	0.71459	0.09267	-0.21
Mof_C 	C 	0.25513	0.72196	0.09018	0.143
Mof_C 	C 	0.2587	0.76736	0.08764	-0.196
Mof_C 	C 	0.18898	0.80268	0.08676	0.114
Mof_C 	C 	0.33128	0.68076	0.08928	-0.157
Mof_C 	C 	0.3197	0.91983	0.08077	0.34
Mof_C 	C 	0.33658	0.95791	0.05373	-0.277
Mof_C 	C 	0.41824	0.95663	0.02989	0.162
Mof_C 	C 	0.48293	0.91761	0.03153	-0.253
Mof_C 	C 	0.46527	0.88016	0.0563	0.193
Mof_C 	C 	0.38542	0.88047	0.07989	-0.328
Mof_C 	C 	0.27118	0.99955	0.04749	0.308
Mof_C 	C 	0.06158	0.04625	0.08599	0.296
Mof_C 	C 	0.98987	0.08586	0.0806	-0.367
Mof_C 	C 	0.94627	0.11405	0.12481	0.167
Mof_C 	C 	0.00093	0.13894	0.1376	-0.372
Mof_C 	C 	0.95743	0.16937	0.17957	0.28
Mof_C 	C 	0.01298	0.19322	0.19202	-0.621
Mof_C 	C 	0.83519	0.8269	0.97212	0.329
Mof_C 	C 	0.8903	0.80855	0.99885	-0.267
Mof_C 	C 	0.92442	0.76046	0.9997	0.159
Mof_C 	C 	0.90593	0.73108	0.97526	-0.237
Mof_C 	C 	0.85322	0.74917	0.94779	0.167
Mof_C 	C 	0.81786	0.79638	0.9463	-0.299
Mof_C 	C 	0.91319	0.83719	0.02723	0.306
Mof_C 	C 	0.8567	0.94841	0.06519	0.302
Mof_C 	C 	0.8636	0.97947	0.09893	-0.359
Mof_C 	C 	0.7844	0.99099	0.14021	0.146
Mof_C 	C 	0.77328	0.94956	0.17048	-0.351
Mof_C 	C 	0.69499	0.95911	0.21131	0.263
Mof_C 	C 	0.6879	0.9177	0.2417	-0.613
Mof_C 	C 	0.58142	0.58398	0.04898	0.123
Mof_C 	C 	0.51875	0.62391	0.05059	-0.2
Mof_C 	C 	0.47089	0.64427	0.09255	0.145
Mof_C 	C 	0.48598	0.62099	0.13105	-0.209
Mof_C 	C 	0.54977	0.5813	0.12736	0.121
Mof_C 	C 	0.40339	0.68951	0.09371	-0.149
Mof_C 	C 	0.86815	0.18263	0.64967	0.324
Mof_C 	C 	0.81352	0.19126	0.6217	-0.26
Mof_C 	C 	0.76682	0.2371	0.61746	0.151
Mof_C 	C 	0.77287	0.27343	0.63943	-0.23
Mof_C 	C 	0.82697	0.26455	0.66651	0.163
Mof_C 	C 	0.87435	0.22033	0.67157	-0.297
Mof_C 	C 	0.80287	0.15455	0.59671	0.309
Mof_C 	C 	0.85412	0.03689	0.59327	0.224
Mof_C 	C 	0.83652	0.9966	0.57616	-0.107
Mof_C 	C 	0.77273	0.97824	0.6147	-0.339
Mof_C 	C 	0.7617	0.934	0.6012	0.475
Mof_C 	C 	0.7013	0.9331	0.5939	-0.597
Mof_C 	C 	0.6878	0.8858	0.5844	0.064
Mof_C 	C 	0.79482	0.0915	0.74826	0.125
Mof_C 	C 	0.72676	0.09267	0.78541	-0.21
Mof_C 	C 	0.65469	0.09018	0.77804	0.143
Mof_C 	C 	0.65366	0.08764	0.73264	-0.196
Mof_C 	C 	0.72426	0.08676	0.69732	0.114
Mof_C 	C 	0.57944	0.08928	0.81924	-0.157
Mof_C 	C 	0.59953	0.08077	0.58017	0.341
Mof_C 	C 	0.60969	0.05373	0.54209	-0.279
Mof_C 	C 	0.55187	0.02989	0.54337	0.164
Mof_C 	C 	0.48554	0.03153	0.58239	-0.254
Mof_C 	C 	0.47843	0.0563	0.61984	0.194
Mof_C 	C 	0.53469	0.07989	0.61953	-0.329
Mof_C 	C 	0.68133	0.04749	0.50045	0.312
Mof_C 	C 	0.85243	0.08599	0.45375	0.295
Mof_C 	C 	0.92953	0.0806	0.41414	-0.365
Mof_C 	C 	0.92892	0.12481	0.38595	0.169
Mof_C 	C 	0.86147	0.1376	0.36106	-0.377
Mof_C 	C 	0.863	0.17957	0.33063	0.286
Mof_C 	C 	0.795	0.19202	0.30678	-0.629
Mof_C 	C 	0.19269	0.97212	0.6731	0.329
Mof_C 	C 	0.11085	0.99885	0.69145	-0.268
Mof_C 	C 	0.07588	0.9997	0.73954	0.159
Mof_C 	C 	0.11881	0.97526	0.76892	-0.236
Mof_C 	C 	0.19899	0.94779	0.75083	0.167
Mof_C 	C 	0.23584	0.9463	0.70362	-0.3
Mof_C 	C 	0.05958	0.02723	0.66281	0.308
Mof_C 	C 	0.07811	0.06519	0.55159	0.302
Mof_C 	C 	0.03747	0.09893	0.52053	-0.355
Mof_C 	C 	0.07539	0.14021	0.50901	0.144
Mof_C 	C 	0.05624	0.17048	0.55044	-0.347
Mof_C 	C 	0.0937	0.21131	0.54089	0.261
Mof_C 	C 	0.0704	0.2417	0.5823	-0.611
Mof_C 	C 	0.3696	0.04898	0.91602	0.123
Mof_C 	C 	0.43066	0.05059	0.87609	-0.2
Mof_C 	C 	0.43656	0.09255	0.85573	0.145
Mof_C 	C 	0.38297	0.13105	0.87901	-0.209
Mof_C 	C 	0.32287	0.12736	0.9187	0.121
Mof_C 	C 	0.5029	0.09371	0.81049	-0.149
Mof_C 	C 	0.20045	0.31737	0.85033	0.324
Mof_C 	C 	0.12648	0.30874	0.8783	-0.26
Mof_C 	C 	0.12138	0.2629	0.88254	0.152
Mof_C 	C 	0.18573	0.22657	0.86057	-0.23
Mof_C 	C 	0.25803	0.23545	0.83349	0.163
Mof_C 	C 	0.26625	0.27967	0.82843	-0.297
Mof_C 	C 	0.05413	0.34545	0.90329	0.311
Mof_C 	C 	0.98428	0.46311	0.90673	0.224
Mof_C 	C 	0.90928	0.5034	0.92384	-0.11
Mof_C 	C 	0.86567	0.52176	0.8853	-0.34
Mof_C 	C 	0.7969	0.566	0.8988	0.475
Mof_C 	C 	0.7283	0.5669	0.9061	-0.597
Mof_C 	C 	0.658	0.6142	0.9156	0.064
Mof_C 	C 	0.13458	0.4085	0.75174	0.127
Mof_C 	C 	0.10484	0.40733	0.71459	-0.213
Mof_C 	C 	0.02291	0.40982	0.72196	0.148
Mof_C 	C 	0.97394	0.41236	0.76736	-0.201
Mof_C 	C 	0.00834	0.41324	0.80268	0.119
Mof_C 	C 	0.98796	0.41072	0.68076	-0.163
Mof_C 	C 	0.76047	0.41923	0.91983	0.341
Mof_C 	C 	0.70551	0.44627	0.95791	-0.279
Mof_C 	C 	0.62513	0.47011	0.95663	0.163
Mof_C 	C 	0.59946	0.46847	0.91761	-0.253
Mof_C 	C 	0.65457	0.4437	0.88016	0.194
Mof_C 	C 	0.73411	0.42011	0.88047	-0.329
Mof_C 	C 	0.72927	0.45251	0.99955	0.311
Mof_C 	C 	0.89217	0.41401	0.04625	0.295
Mof_C 	C 	0.92427	0.4194	0.08586	-0.366
Mof_C 	C 	0.93968	0.37519	0.11405	0.169
Mof_C 	C 	0.86013	0.3624	0.13894	-0.377
Mof_C 	C 	0.8732	0.32043	0.16937	0.286
Mof_C 	C 	0.7938	0.30798	0.19322	-0.629
Mof_C 	C 	0.33791	0.52788	0.8269	0.329
Mof_C 	C 	0.30115	0.50115	0.80855	-0.267
Mof_C 	C 	0.31512	0.5003	0.76046	0.159
Mof_C 	C 	0.36299	0.52474	0.73108	-0.237
Mof_C 	C 	0.39761	0.55221	0.74917	0.167
Mof_C 	C 	0.38576	0.5537	0.79638	-0.3
Mof_C 	C 	0.24962	0.47277	0.83719	0.306
Mof_C 	C 	0.19489	0.43481	0.94841	0.302
Mof_C 	C 	0.15693	0.40107	0.97947	-0.358
Mof_C 	C 	0.22461	0.35979	0.99099	0.146
Mof_C 	C 	0.27716	0.32952	0.94956	-0.351
Mof_C 	C 	0.3459	0.28869	0.95911	0.263
Mof_C 	C 	0.3944	0.2583	0.9177	-0.613
Mof_C 	C 	0.8346	0.45102	0.58398	0.123
Mof_C 	C 	0.85734	0.44941	0.62391	-0.199
Mof_C 	C 	0.88484	0.40745	0.64427	0.143
Mof_C 	C 	0.89303	0.36895	0.62099	-0.208
Mof_C 	C 	0.86893	0.37264	0.5813	0.12
Mof_C 	C 	0.9071	0.40629	0.68951	-0.145
Mof_C 	C 	0.51782	0.35033	0.68263	0.324
Mof_C 	C 	0.43522	0.3783	0.69126	-0.26
Mof_C 	C 	0.38428	0.38254	0.7371	0.151
Mof_C 	C 	0.4123	0.36057	0.77343	-0.23
Mof_C 	C 	0.49348	0.33349	0.76455	0.163
Mof_C 	C 	0.54592	0.32843	0.72033	-0.297
Mof_C 	C 	0.39958	0.40329	0.65455	0.309
Mof_C 	C 	0.44739	0.40673	0.53689	0.225
Mof_C 	C 	0.41268	0.42384	0.4966	-0.11
Mof_C 	C 	0.38743	0.3853	0.47824	-0.34
Mof_C 	C 	0.3629	0.3988	0.434	0.475
Mof_C 	C 	0.2952	0.4061	0.4331	-0.598
Mof_C 	C 	0.2722	0.4156	0.3858	0.065
Mof_C 	C 	0.54308	0.25174	0.5915	0.125
Mof_C 	C 	0.51217	0.21459	0.59267	-0.21
Mof_C 	C 	0.43273	0.22196	0.59018	0.143
Mof_C 	C 	0.3863	0.26736	0.58764	-0.196
Mof_C 	C 	0.42158	0.30268	0.58676	0.114
Mof_C 	C 	0.39868	0.18076	0.58928	-0.157
Mof_C 	C 	0.1797	0.41983	0.58077	0.341
Mof_C 	C 	0.15178	0.45791	0.55373	-0.279
Mof_C 	C 	0.09524	0.45663	0.52989	0.164
Mof_C 	C 	0.06793	0.41761	0.53153	-0.253
Mof_C 	C 	0.09827	0.38016	0.5563	0.194
Mof_C 	C 	0.15422	0.38047	0.57989	-0.329
Mof_C 	C 	0.18178	0.49955	0.54749	0.312
Mof_C 	C 	0.30618	0.54625	0.58599	0.295
Mof_C 	C 	0.34367	0.58586	0.5806	-0.366
Mof_C 	C 	0.31487	0.61405	0.62481	0.169
Mof_C 	C 	0.22253	0.63894	0.6376	-0.377
Mof_C 	C 	0.19363	0.66937	0.67957	0.286
Mof_C 	C 	0.10178	0.69322	0.69202	-0.629
Mof_C 	C 	0.86579	0.3269	0.47212	0.328
Mof_C 	C 	0.8023	0.30855	0.49885	-0.267
Mof_C 	C 	0.81542	0.26046	0.4997	0.158
Mof_C 	C 	0.88773	0.23108	0.47526	-0.235
Mof_C 	C 	0.94982	0.24917	0.44779	0.165
Mof_C 	C 	0.93946	0.29638	0.4463	-0.298
Mof_C 	C 	0.72239	0.33719	0.52723	0.306
Mof_C 	C 	0.6297	0.44841	0.56519	0.302
Mof_C 	C 	0.558	0.47947	0.59893	-0.359
Mof_C 	C 	0.5844	0.49099	0.64021	0.147
Mof_C 	C 	0.60668	0.44956	0.67048	-0.352
Mof_C 	C 	0.63459	0.45911	0.71131	0.264
Mof_C 	C 	0.6527	0.4177	0.7417	-0.613
Mof_C 	C 	0.28562	0.08398	0.54898	0.123
Mof_C 	C 	0.30675	0.12391	0.55059	-0.2
Mof_C 	C 	0.29229	0.14427	0.59255	0.145
Mof_C 	C 	0.26198	0.12099	0.63105	-0.209
Mof_C 	C 	0.24157	0.0813	0.62736	0.121
Mof_C 	C 	0.31339	0.18951	0.59371	-0.149
Mof_C 	C 	0.05078	0.14967	0.81737	0.324
Mof_C 	C 	0.00478	0.1217	0.80874	-0.259
Mof_C 	C 	0.00392	0.11746	0.7629	0.154
Mof_C 	C 	0.0463	0.13943	0.72657	-0.232
Mof_C 	C 	0.09152	0.16651	0.73545	0.164
Mof_C 	C 	0.09468	0.17157	0.77967	-0.298
Mof_C 	C 	0.95742	0.09671	0.84545	0.308
Mof_C 	C 	0.89101	0.09327	0.96311	0.223
Mof_C 	C 	0.83312	0.07616	0.0034	-0.105
Mof_C 	C 	0.75097	0.1147	0.02176	-0.339
Mof_C 	C 	0.6957	0.1012	0.066	0.474
Mof_C 	C 	0.6344	0.0939	0.0669	-0.596
Mof_C 	C 	0.5736	0.0844	0.1142	0.063
Mof_C 	C 	0.88632	0.24826	0.9085	0.125
Mof_C 	C 	0.81943	0.28541	0.90733	-0.21
Mof_C 	C 	0.74487	0.27804	0.90982	0.143
Mof_C 	C 	0.7413	0.23264	0.91236	-0.196
Mof_C 	C 	0.81102	0.19732	0.91324	0.114
Mof_C 	C 	0.66872	0.31924	0.91072	-0.157
Mof_C 	C 	0.6803	0.08017	0.91923	0.34
Mof_C 	C 	0.66342	0.04209	0.94627	-0.277
Mof_C 	C 	0.58176	0.04337	0.97011	0.162
Mof_C 	C 	0.51707	0.08239	0.96847	-0.253
Mof_C 	C 	0.53473	0.11984	0.9437	0.193
Mof_C 	C 	0.61458	0.11953	0.92011	-0.328
Mof_C 	C 	0.72882	0.00045	0.95251	0.308
Mof_C 	C 	0.93842	0.95375	0.91401	0.296
Mof_C 	C 	0.01013	0.91414	0.9194	-0.366
Mof_C 	C 	0.05373	0.88595	0.87519	0.169
Mof_C 	C 	0.99907	0.86106	0.8624	-0.377
Mof_C 	C 	0.04257	0.83063	0.82043	0.286
Mof_C 	C 	0.98702	0.80678	0.80798	-0.629
Mof_C 	C 	0.16481	0.1731	0.02788	0.329
Mof_C 	C 	0.1097	0.19145	0.00115	-0.267
Mof_C 	C 	0.07558	0.23954	0.0003	0.159
Mof_C 	C 	0.09407	0.26892	0.02474	-0.237
Mof_C 	C 	0.14678	0.25083	0.05221	0.167
Mof_C 	C 	0.18214	0.20362	0.0537	-0.299
Mof_C 	C 	0.08681	0.16281	0.97277	0.306
Mof_C 	C 	0.1433	0.05159	0.93481	0.303
Mof_C 	C 	0.1364	0.02053	0.90107	-0.359
Mof_C 	C 	0.2156	0.00901	0.85979	0.146
Mof_C 	C 	0.22672	0.05044	0.82952	-0.351
Mof_C 	C 	0.30501	0.04089	0.78869	0.264
Mof_C 	C 	0.3121	0.0823	0.7583	-0.613
Mof_C 	C 	0.41858	0.41602	0.95102	0.123
Mof_C 	C 	0.48125	0.37609	0.94941	-0.2
Mof_C 	C 	0.52911	0.35573	0.90745	0.145
Mof_C 	C 	0.51402	0.37901	0.86895	-0.209
Mof_C 	C 	0.45023	0.4187	0.87264	0.121
Mof_C 	C 	0.59661	0.31049	0.90629	-0.149
Mof_N 	N 	0.15652	0.88894	0.39774	-0.254
Mof_N 	N 	0.1747	0.9216	0.42118	-0.189
Mof_N 	N 	0.20495	0.91167	0.29533	-0.205
Mof_N 	N 	0.26253	0.93048	0.50252	-0.256
Mof_N 	N 	0.19532	0.94064	0.54346	-0.206
Mof_N 	N 	0.90757	0.9694	0.38204	-0.255
Mof_N 	N 	0.9605	0.93817	0.40523	-0.209
Mof_N 	N 	0.68497	0.91317	0.06249	-0.206
Mof_N 	N 	0.9432	0.61106	0.10226	-0.254
Mof_N 	N 	0.01748	0.5784	0.07882	-0.189
Mof_N 	N 	0.91195	0.58833	0.20467	-0.205
Mof_N 	N 	0.19553	0.56952	0.99748	-0.256
Mof_N 	N 	0.17942	0.55936	0.95654	-0.206
Mof_N 	N 	0.75901	0.5306	0.11796	-0.255
Mof_N 	N 	0.8039	0.56183	0.09477	-0.21
Mof_N 	N 	0.16063	0.58683	0.43751	-0.206
Mof_N 	N 	0.55426	0.60226	0.38894	-0.254
Mof_N 	N 	0.59588	0.57882	0.4216	-0.189
Mof_N 	N 	0.50028	0.70467	0.41167	-0.205
Mof_N 	N 	0.76505	0.49748	0.43048	-0.256
Mof_N 	N 	0.73878	0.45654	0.44064	-0.206
Mof_N 	N 	0.28961	0.61796	0.4694	-0.255
Mof_N 	N 	0.36573	0.59477	0.43817	-0.21
Mof_N 	N 	0.74746	0.93751	0.41317	-0.206
Mof_N 	N 	0.04546	0.89774	0.11106	-0.254
Mof_N 	N 	0.0963	0.92118	0.0784	-0.189
Mof_N 	N 	0.11662	0.79533	0.08833	-0.205
Mof_N 	N 	0.19301	0.00252	0.06952	-0.254
Mof_N 	N 	0.13596	0.04346	0.05936	-0.206
Mof_N 	N 	0.87697	0.88204	0.0306	-0.254
Mof_N 	N 	0.89867	0.90523	0.06183	-0.209
Mof_N 	N 	0.59814	0.56249	0.08683	-0.206
Mof_N 	N 	0.84348	0.11106	0.60226	-0.254
Mof_N 	N 	0.8253	0.0784	0.57882	-0.189
Mof_N 	N 	0.79505	0.08833	0.70467	-0.205
Mof_N 	N 	0.73747	0.06952	0.49748	-0.256
Mof_N 	N 	0.80468	0.05936	0.45654	-0.206
Mof_N 	N 	0.09243	0.0306	0.61796	-0.255
Mof_N 	N 	0.0395	0.06183	0.59477	-0.209
Mof_N 	N 	0.31503	0.08683	0.93751	-0.206
Mof_N 	N 	0.0568	0.38894	0.89774	-0.254
Mof_N 	N 	0.98252	0.4216	0.92118	-0.189
Mof_N 	N 	0.08805	0.41167	0.79533	-0.206
Mof_N 	N 	0.80447	0.43048	0.00252	-0.256
Mof_N 	N 	0.82058	0.44064	0.04346	-0.206
Mof_N 	N 	0.24099	0.4694	0.88204	-0.255
Mof_N 	N 	0.1961	0.43817	0.90523	-0.21
Mof_N 	N 	0.83937	0.41317	0.56249	-0.206
Mof_N 	N 	0.44574	0.39774	0.61106	-0.254
Mof_N 	N 	0.40412	0.42118	0.5784	-0.189
Mof_N 	N 	0.49972	0.29533	0.58833	-0.205
Mof_N 	N 	0.23495	0.50252	0.56952	-0.256
Mof_N 	N 	0.26122	0.54346	0.55936	-0.206
Mof_N 	N 	0.71039	0.38204	0.5306	-0.255
Mof_N 	N 	0.63427	0.40523	0.56183	-0.21
Mof_N 	N 	0.25254	0.06249	0.58683	-0.206
Mof_N 	N 	0.95454	0.10226	0.88894	-0.254
Mof_N 	N 	0.9037	0.07882	0.9216	-0.189
Mof_N 	N 	0.88338	0.20467	0.91167	-0.205
Mof_N 	N 	0.80699	0.99748	0.93048	-0.254
Mof_N 	N 	0.86404	0.95654	0.94064	-0.206
Mof_N 	N 	0.12303	0.11796	0.9694	-0.254
Mof_N 	N 	0.10133	0.09477	0.93817	-0.209
Mof_N 	N 	0.40186	0.43751	0.91317	-0.206
Mof_O 	O 	0.08361	0.85892	0.34322	-0.44
Mof_O 	O 	0.24598	0.83435	0.42941	-0.389
Mof_O 	O 	0.10487	0.97184	0.37584	-0.386
Mof_O 	O 	0.35127	0.89339	0.41859	-0.443
Mof_O 	O 	0.3117	0.98029	0.53115	-0.387
Mof_O 	O 	0.16395	0.88223	0.51545	-0.407
Mof_O 	O 	0.7666	0.0311	0.37184	-0.437
Mof_O 	O 	0.01686	0.95167	0.31743	-0.384
Mof_O 	O 	0.84548	0.95878	0.46644	-0.404
Mof_O 	O 	0.78575	0.64108	0.15678	-0.44
Mof_O 	O 	0.00974	0.66565	0.07059	-0.39
Mof_O 	O 	0.95255	0.52816	0.12416	-0.386
Mof_O 	O 	0.16325	0.60661	0.08141	-0.443
Mof_O 	O 	0.32314	0.51971	0.96885	-0.387
Mof_O 	O 	0.06163	0.61777	0.98455	-0.407
Mof_O 	O 	0.66954	0.4689	0.12816	-0.437
Mof_O 	O 	0.78596	0.54833	0.18257	-0.383
Mof_O 	O 	0.7707	0.54122	0.03356	-0.404
Mof_O 	O 	0.42683	0.65678	0.35892	-0.44
Mof_O 	O 	0.67539	0.57059	0.33435	-0.389
Mof_O 	O 	0.48071	0.62416	0.47184	-0.386
Mof_O 	O 	0.76986	0.58141	0.39339	-0.443
Mof_O 	O 	0.84285	0.46885	0.48029	-0.387
Mof_O 	O 	0.6794	0.48455	0.38223	-0.407
Mof_O 	O 	0.13844	0.62816	0.5311	-0.437
Mof_O 	O 	0.33429	0.68257	0.45167	-0.383
Mof_O 	O 	0.31192	0.53356	0.45878	-0.405
Mof_O 	O 	0.94253	0.84322	0.14108	-0.439
Mof_O 	O 	0.08033	0.92941	0.16565	-0.389
Mof_O 	O 	0.07671	0.87584	0.02816	-0.386
Mof_O 	O 	0.24466	0.91859	0.10661	-0.443
Mof_O 	O 	0.29199	0.03115	0.01971	-0.385
Mof_O 	O 	0.04618	0.01545	0.11777	-0.406
Mof_O 	O 	0.7977	0.87184	0.9689	-0.436
Mof_O 	O 	0.96853	0.81743	0.04833	-0.382
Mof_O 	O 	0.80426	0.96644	0.04122	-0.405
Mof_O 	O 	0.91639	0.14108	0.65678	-0.44
Mof_O 	O 	0.75402	0.16565	0.57059	-0.389
Mof_O 	O 	0.89513	0.02816	0.62416	-0.387
Mof_O 	O 	0.64873	0.10661	0.58141	-0.443
Mof_O 	O 	0.6883	0.01971	0.46885	-0.387
Mof_O 	O 	0.83605	0.11777	0.48455	-0.407
Mof_O 	O 	0.2334	0.9689	0.62816	-0.437
Mof_O 	O 	0.98314	0.04833	0.68257	-0.384
Mof_O 	O 	0.15452	0.04122	0.53356	-0.404
Mof_O 	O 	0.21425	0.35892	0.84322	-0.44
Mof_O 	O 	0.99026	0.33435	0.92941	-0.39
Mof_O 	O 	0.04745	0.47184	0.87584	-0.386
Mof_O 	O 	0.83675	0.39339	0.91859	-0.443
Mof_O 	O 	0.67686	0.48029	0.03115	-0.387
Mof_O 	O 	0.93837	0.38223	0.01545	-0.407
Mof_O 	O 	0.33046	0.5311	0.87184	-0.437
Mof_O 	O 	0.21404	0.45167	0.81743	-0.383
Mof_O 	O 	0.2293	0.45878	0.96644	-0.404
Mof_O 	O 	0.57317	0.34322	0.64108	-0.44
Mof_O 	O 	0.32461	0.42941	0.66565	-0.389
Mof_O 	O 	0.51929	0.37584	0.52816	-0.386
Mof_O 	O 	0.23014	0.41859	0.60661	-0.443
Mof_O 	O 	0.15715	0.53115	0.51971	-0.387
Mof_O 	O 	0.3206	0.51545	0.61777	-0.407
Mof_O 	O 	0.86156	0.37184	0.4689	-0.437
Mof_O 	O 	0.66571	0.31743	0.54833	-0.382
Mof_O 	O 	0.68808	0.46644	0.54122	-0.405
Mof_O 	O 	0.05747	0.15678	0.85892	-0.439
Mof_O 	O 	0.91967	0.07059	0.83435	-0.389
Mof_O 	O 	0.92329	0.12416	0.97184	-0.386
Mof_O 	O 	0.75534	0.08141	0.89339	-0.443
Mof_O 	O 	0.70801	0.96885	0.98029	-0.385
Mof_O 	O 	0.95382	0.98455	0.88223	-0.406
Mof_O 	O 	0.2023	0.12816	0.0311	-0.436
Mof_O 	O 	0.03147	0.18257	0.95167	-0.382
Mof_O 	O 	0.19574	0.03356	0.95878	-0.405
_end
