data_functionalizedCrystal
_audit_creation_method	'EQeq! by Chris Wilmer'
_symmetry_space_group_name_H-M	'P1'
_symmetry_Int_Tables_number	1
_symmetry_cell_setting	triclinic
loop_
_symmetry_equiv_pos_as_xyz
  x,y,z
_cell_length_a	9.896
_cell_length_b	16.21
_cell_length_c	18.443
_cell_angle_alpha	92.002
_cell_angle_beta	103.58
_cell_angle_gamma	92.51
loop_
_atom_site_label
_atom_site_type_symbol
_atom_site_fract_x
_atom_site_fract_y
_atom_site_fract_z
_atom_site_charge
Mof_C 	C 	0.6636	0.0631	0.0294	-0.29
Mof_C 	C 	0.0591	0.3082	0.9953	-0.338
Mof_C 	C 	0.9595	0.1085	0.7993	0.005
Mof_H 	H 	0.8808	0.1005	0.8181	-0.013
Mof_C 	C 	0.9465	0.0921	0.7237	-0.013
Mof_H 	H 	0.8607	0.0753	0.6927	0.042
Mof_C 	C 	0.0635	0.1013	0.6952	-0.134
Mof_C 	C 	0.1842	0.133	0.743	-0.007
Mof_H 	H 	0.2635	0.1435	0.7252	0.031
Mof_C 	C 	0.1879	0.1493	0.8172	-0.012
Mof_H 	H 	0.2705	0.1714	0.8484	0.017
Mof_C 	C 	0.063	0.0749	0.6154	0.494
Mof_C 	C 	0.5604	0.0205	0.1939	-0.001
Mof_H 	H 	0.6408	0.01	0.1781	-0.007
Mof_C 	C 	0.5646	0.0175	0.2688	-0.002
Mof_H 	H 	0.6466	0.0055	0.3024	0.01
Mof_C 	C 	0.4477	0.0323	0.2939	-0.146
Mof_C 	C 	0.3287	0.0506	0.2409	-0.02
Mof_H 	H 	0.2473	0.0619	0.2554	0.045
Mof_C 	C 	0.3325	0.0519	0.1669	0.013
Mof_H 	H 	0.252	0.0631	0.1319	-0.026
Mof_C 	C 	0.4444	0.0288	0.3747	0.517
Mof_C 	C 	0.1037	0.2227	0.1946	0.035
Mof_H 	H 	0.1439	0.2564	0.1647	-0.01
Mof_C 	C 	0.1512	0.2344	0.2707	-0.064
Mof_H 	H 	0.2202	0.275	0.2913	0.061
Mof_C 	C 	0.0928	0.1836	0.3161	-0.063
Mof_C 	C 	0.9926	0.1246	0.2818	-0.051
Mof_H 	H 	0.953	0.0888	0.3103	0.04
Mof_C 	C 	0.9507	0.1186	0.2051	0.024
Mof_H 	H 	0.8813	0.0787	0.1832	-0.013
Mof_C 	C 	0.1484	0.1905	0.4	0.357
Mof_C 	C 	0.1401	0.4693	0.1997	-0.001
Mof_H 	H 	0.049	0.4858	0.1874	0.019
Mof_C 	C 	0.2107	0.4758	0.2733	-0.008
Mof_H 	H 	0.1661	0.4939	0.3096	0.04
Mof_C 	C 	0.3486	0.4553	0.2936	-0.137
Mof_C 	C 	0.4061	0.4259	0.2362	-0.012
Mof_H 	H 	0.4978	0.4105	0.2465	0.027
Mof_C 	C 	0.3265	0.4199	0.1646	-0.019
Mof_H 	H 	0.3668	0.4001	0.1271	-0.013
Mof_C 	C 	0.4337	0.4637	0.3729	0.493
Mof_C 	C 	0.9586	0.6642	0.2053	-0.007
Mof_H 	H 	0.0203	0.6945	0.1842	-0.005
Mof_C 	C 	0.0021	0.6436	0.2783	0.011
Mof_H 	H 	0.0917	0.6595	0.3054	0.017
Mof_C 	C 	0.9122	0.5992	0.3117	-0.163
Mof_C 	C 	0.7806	0.5791	0.2692	0.007
Mof_H 	H 	0.7166	0.5498	0.2896	0.01
Mof_C 	C 	0.7433	0.6023	0.1963	-0.01
Mof_H 	H 	0.6531	0.5895	0.1685	-0.017
Mof_C 	C 	0.9591	0.5698	0.3883	0.51
Mof_Cl	Cl	0.3385	0.16912	0.00691	-0.699
Mof_Cl	Cl	0.8527	0.47145	0.04238	-0.87
Mof_Cl	Cl	0.435	0.37739	0.9952	-0.84
Mof_Cu	Cu	0.10626	0.12446	0.95933	0.815
Mof_Cu	Cu	0.44255	0.04696	0.03253	0.791
Mof_Cu	Cu	0.91772	0.15961	0.04561	0.788
Mof_Cu	Cu	0.08054	0.42572	0.03792	0.811
Mof_Cu	Cu	0.19812	0.35593	0.94806	0.821
Mof_N 	N 	0.9805	0.9676	0.0062	-0.279
Mof_N 	N 	0.7323	0.0951	0.0369	-0.157
Mof_N 	N 	0.0011	0.2481	0.0042	-0.257
Mof_N 	N 	0.0782	0.1349	0.8466	-0.226
Mof_N 	N 	0.4479	0.0376	0.1432	-0.225
Mof_N 	N 	0.004	0.1665	0.1602	-0.235
Mof_N 	N 	0.1942	0.4408	0.1453	-0.224
Mof_N 	N 	0.8341	0.6432	0.1639	-0.215
Mof_O 	O 	0.9536	0.0393	0.5767	-0.578
Mof_O 	O 	0.1738	0.0866	0.5953	-0.566
Mof_O 	O 	0.5518	0.0091	0.4195	-0.628
Mof_O 	O 	0.3316	0.0451	0.3904	-0.545
Mof_O 	O 	0.2233	0.252	0.4271	-0.334
Mof_O 	O 	0.113	0.1318	0.4367	-0.472
Mof_O 	O 	0.3733	0.4937	0.42	-0.596
Mof_O 	O 	0.5546	0.4423	0.3852	-0.576
Mof_O 	O 	0.0842	0.5863	0.4225	-0.553
Mof_O 	O 	0.8745	0.5281	0.4146	-0.579
Mof_O 	O 	0.109	0.4122	0.4297	-0.712
Mof_H 	H 	0.0425	0.3848	0.4412	0.282
Mof_H 	H 	0.1839	0.3891	0.4485	0.242
Mof_O 	O 	0.3075	0.8885	0.4508	-0.708
Mof_H 	H 	0.2773	0.8409	0.4589	0.275
Mof_H 	H 	0.3578	0.9076	0.4922	0.152
Mof_Tb	Tb	0.2584	0.52773	0.51039	1.84
Mof_Tb	Tb	0.24893	0.0212	0.49698	2.102
Mof_Cu	Cu	0.624	0.4826	0.0184	0.677
Mof_C 	C 	0.0195	0.0324	0.9938	-0.307
Mof_C 	C 	0.3364	0.9369	0.9706	-0.267
Mof_C 	C 	0.9409	0.6918	0.0047	-0.389
Mof_C 	C 	0.0405	0.8915	0.2007	0.006
Mof_H 	H 	0.1192	0.8995	0.1819	-0.017
Mof_C 	C 	0.0535	0.9079	0.2763	-0.013
Mof_H 	H 	0.1393	0.9247	0.3073	0.04
Mof_C 	C 	0.9365	0.8987	0.3048	-0.135
Mof_C 	C 	0.8158	0.867	0.257	-0.008
Mof_H 	H 	0.7365	0.8565	0.2748	0.03
Mof_C 	C 	0.8121	0.8507	0.1828	-0.012
Mof_H 	H 	0.7295	0.8286	0.1516	0.011
Mof_C 	C 	0.937	0.9251	0.3846	0.494
Mof_C 	C 	0.4396	0.9795	0.8061	-0.001
Mof_H 	H 	0.3592	0.99	0.8219	-0.006
Mof_C 	C 	0.4354	0.9825	0.7312	-0.001
Mof_H 	H 	0.3534	0.9945	0.6976	0.009
Mof_C 	C 	0.5523	0.9677	0.7061	-0.147
Mof_C 	C 	0.6713	0.9494	0.7591	-0.019
Mof_H 	H 	0.7527	0.9381	0.7446	0.045
Mof_C 	C 	0.6675	0.9481	0.8331	0.013
Mof_H 	H 	0.748	0.9369	0.8681	-0.023
Mof_C 	C 	0.5556	0.9712	0.6253	0.517
Mof_C 	C 	0.8963	0.7773	0.8054	0.034
Mof_H 	H 	0.8561	0.7436	0.8353	-0.007
Mof_C 	C 	0.8488	0.7656	0.7293	-0.062
Mof_H 	H 	0.7798	0.725	0.7087	0.061
Mof_C 	C 	0.9072	0.8164	0.6839	-0.065
Mof_C 	C 	0.0074	0.8754	0.7182	-0.05
Mof_H 	H 	0.047	0.9112	0.6897	0.039
Mof_C 	C 	0.0493	0.8814	0.7949	0.024
Mof_H 	H 	0.1187	0.9213	0.8168	-0.013
Mof_C 	C 	0.8516	0.8095	0.6	0.358
Mof_C 	C 	0.8599	0.5307	0.8003	-0.001
Mof_H 	H 	0.951	0.5142	0.8126	0.02
Mof_C 	C 	0.7893	0.5242	0.7267	-0.007
Mof_H 	H 	0.8339	0.5061	0.6904	0.04
Mof_C 	C 	0.6514	0.5447	0.7064	-0.138
Mof_C 	C 	0.5939	0.5741	0.7638	-0.009
Mof_H 	H 	0.5022	0.5895	0.7535	0.027
Mof_C 	C 	0.6735	0.5801	0.8354	-0.02
Mof_H 	H 	0.6332	0.5999	0.8729	-0.004
Mof_C 	C 	0.5663	0.5363	0.6271	0.493
Mof_C 	C 	0.0414	0.3358	0.7947	-0.003
Mof_H 	H 	0.9797	0.3055	0.8158	-0.005
Mof_C 	C 	0.9979	0.3564	0.7217	0.007
Mof_H 	H 	0.9083	0.3405	0.6946	0.019
Mof_C 	C 	0.0878	0.4008	0.6883	-0.16
Mof_C 	C 	0.2194	0.4209	0.7308	0.007
Mof_H 	H 	0.2834	0.4502	0.7104	0.011
Mof_C 	C 	0.2567	0.3977	0.8037	-0.009
Mof_H 	H 	0.3469	0.4105	0.8315	-0.015
Mof_C 	C 	0.0409	0.4302	0.6117	0.51
Mof_Cl	Cl	0.6615	0.83088	0.99309	-0.671
Mof_Cl	Cl	0.1473	0.52855	0.95762	-0.851
Mof_Cl	Cl	0.565	0.62261	0.0048	-0.869
Mof_Cu	Cu	0.89374	0.87554	0.04067	0.798
Mof_Cu	Cu	0.55745	0.95304	0.96747	0.799
Mof_Cu	Cu	0.08228	0.84039	0.95439	0.793
Mof_Cu	Cu	0.91946	0.57428	0.96208	0.827
Mof_Cu	Cu	0.80188	0.64407	0.05194	0.819
Mof_N 	N 	0.2677	0.9049	0.9631	-0.162
Mof_N 	N 	0.9989	0.7519	0.9958	-0.224
Mof_N 	N 	0.9218	0.8651	0.1534	-0.231
Mof_N 	N 	0.5521	0.9624	0.8568	-0.223
Mof_N 	N 	0.996	0.8335	0.8398	-0.234
Mof_N 	N 	0.8058	0.5592	0.8547	-0.22
Mof_N 	N 	0.1659	0.3568	0.8361	-0.215
Mof_O 	O 	0.0464	0.9607	0.4233	-0.581
Mof_O 	O 	0.8262	0.9134	0.4047	-0.566
Mof_O 	O 	0.4482	0.9909	0.5805	-0.631
Mof_O 	O 	0.6684	0.9549	0.6096	-0.546
Mof_O 	O 	0.7767	0.748	0.5729	-0.334
Mof_O 	O 	0.887	0.8682	0.5633	-0.472
Mof_O 	O 	0.6267	0.5063	0.58	-0.596
Mof_O 	O 	0.4454	0.5577	0.6148	-0.576
Mof_O 	O 	0.9158	0.4137	0.5775	-0.553
Mof_O 	O 	0.1255	0.4719	0.5854	-0.578
Mof_O 	O 	0.891	0.5878	0.5703	-0.712
Mof_H 	H 	0.9575	0.6152	0.5588	0.282
Mof_H 	H 	0.8161	0.6109	0.5515	0.242
Mof_O 	O 	0.6925	0.1115	0.5492	-0.706
Mof_H 	H 	0.7227	0.1591	0.5411	0.275
Mof_H 	H 	0.6422	0.0924	0.5078	0.152
Mof_Tb	Tb	0.7416	0.47227	0.48961	1.839
Mof_Tb	Tb	0.75107	0.9788	0.50302	2.09
Mof_Cu	Cu	0.376	0.5174	0.9816	0.688
Mof_Cu	Cu	0.5	0.5	-0	0.5
_end
