data_functionalizedCrystal
_audit_creation_method	'EQeq! by Chris Wilmer'
_symmetry_space_group_name_H-M	'P1'
_symmetry_Int_Tables_number	1
_symmetry_cell_setting	triclinic
loop_
_symmetry_equiv_pos_as_xyz
  x,y,z
_cell_length_a	18.8832
_cell_length_b	18.8832
_cell_length_c	18.8832
_cell_angle_alpha	62.0984
_cell_angle_beta	62.0984
_cell_angle_gamma	62.0984
loop_
_atom_site_label
_atom_site_type_symbol
_atom_site_fract_x
_atom_site_fract_y
_atom_site_fract_z
_atom_site_charge
Mof_Mg	Mg	0.25	0.35174	0.14826	1.479
Mof_Mg	Mg	0.14826	0.25	0.35174	1.479
Mof_Mg	Mg	0.35174	0.14826	0.25	1.479
Mof_Mg	Mg	0.75	0.64826	0.85174	1.479
Mof_Mg	Mg	0.85174	0.75	0.64826	1.478
Mof_Mg	Mg	0.64826	0.85174	0.75	1.478
Mof_H 	H 	0.9671	0.6593	0.5119	0.021
Mof_H 	H 	0.1062	0.4279	0.4464	0.013
Mof_H 	H 	0.0678	0.5353	0.4971	0.093
Mof_H 	H 	0.1398	0.6881	0.2648	0.093
Mof_H 	H 	0.1805	0.5815	0.2113	0.013
Mof_H 	H 	0.5119	0.9671	0.6593	0.021
Mof_H 	H 	0.4464	0.1062	0.4279	0.013
Mof_H 	H 	0.4971	0.0678	0.5353	0.093
Mof_H 	H 	0.2648	0.1398	0.6881	0.093
Mof_H 	H 	0.2113	0.1805	0.5815	0.013
Mof_H 	H 	0.6593	0.5119	0.9671	0.021
Mof_H 	H 	0.4279	0.4464	0.1062	0.013
Mof_H 	H 	0.5353	0.4971	0.0678	0.093
Mof_H 	H 	0.6881	0.2648	0.1398	0.093
Mof_H 	H 	0.5815	0.2113	0.1805	0.013
Mof_H 	H 	0.8407	0.5329	0.9881	0.021
Mof_H 	H 	0.0721	0.3938	0.0536	0.013
Mof_H 	H 	0.9647	0.4322	0.0029	0.093
Mof_H 	H 	0.8119	0.3602	0.2352	0.093
Mof_H 	H 	0.9185	0.3195	0.2887	0.013
Mof_H 	H 	0.5329	0.9881	0.8407	0.021
Mof_H 	H 	0.3938	0.0536	0.0721	0.013
Mof_H 	H 	0.4322	0.0029	0.9647	0.093
Mof_H 	H 	0.3602	0.2352	0.8119	0.093
Mof_H 	H 	0.3195	0.2887	0.9185	0.013
Mof_H 	H 	0.9881	0.8407	0.5329	0.021
Mof_H 	H 	0.0536	0.0721	0.3938	0.013
Mof_H 	H 	0.0029	0.9647	0.4322	0.093
Mof_H 	H 	0.2352	0.8119	0.3602	0.093
Mof_H 	H 	0.2887	0.9185	0.3195	0.013
Mof_H 	H 	0.0329	0.3407	0.4881	0.021
Mof_H 	H 	0.8938	0.5721	0.5536	0.013
Mof_H 	H 	0.9322	0.4647	0.5029	0.093
Mof_H 	H 	0.8602	0.3119	0.7352	0.093
Mof_H 	H 	0.8195	0.4185	0.7887	0.013
Mof_H 	H 	0.4881	0.0329	0.3407	0.021
Mof_H 	H 	0.5536	0.8938	0.5721	0.013
Mof_H 	H 	0.5029	0.9322	0.4647	0.093
Mof_H 	H 	0.7352	0.8602	0.3119	0.093
Mof_H 	H 	0.7887	0.8195	0.4185	0.013
Mof_H 	H 	0.3407	0.4881	0.0329	0.021
Mof_H 	H 	0.5721	0.5536	0.8938	0.013
Mof_H 	H 	0.4647	0.5029	0.9322	0.093
Mof_H 	H 	0.3119	0.7352	0.8602	0.093
Mof_H 	H 	0.4185	0.7887	0.8195	0.013
Mof_H 	H 	0.1593	0.4671	0.0119	0.021
Mof_H 	H 	0.9279	0.6062	0.9464	0.013
Mof_H 	H 	0.0353	0.5678	0.9971	0.093
Mof_H 	H 	0.1881	0.6398	0.7648	0.093
Mof_H 	H 	0.0815	0.6805	0.7113	0.013
Mof_H 	H 	0.4671	0.0119	0.1593	0.021
Mof_H 	H 	0.6062	0.9464	0.9279	0.013
Mof_H 	H 	0.5678	0.9971	0.0353	0.093
Mof_H 	H 	0.6398	0.7648	0.1881	0.093
Mof_H 	H 	0.6805	0.7113	0.0815	0.013
Mof_H 	H 	0.0119	0.1593	0.4671	0.021
Mof_H 	H 	0.9464	0.9279	0.6062	0.013
Mof_H 	H 	0.9971	0.0353	0.5678	0.093
Mof_H 	H 	0.7648	0.1881	0.6398	0.093
Mof_H 	H 	0.7113	0.0815	0.6805	0.013
Mof_H 	H 	0.15735	0.75	0.34265	0.036
Mof_H 	H 	0.34265	0.15735	0.75	0.036
Mof_H 	H 	0.75	0.34265	0.15735	0.036
Mof_H 	H 	0.84265	0.25	0.65735	0.036
Mof_H 	H 	0.65735	0.84265	0.25	0.036
Mof_H 	H 	0.25	0.65735	0.84265	0.036
Mof_C 	C 	0.99678	0.69587	0.49317	0.045
Mof_C 	C 	0.07174	0.68952	0.42306	-0.054
Mof_C 	C 	0.16287	0.42764	0.28817	0.45
Mof_C 	C 	0.14827	0.49329	0.32133	-0.166
Mof_C 	C 	0.11342	0.47976	0.40898	0.089
Mof_C 	C 	0.09005	0.54486	0.43904	-0.164
Mof_C 	C 	0.09892	0.62424	0.38466	0.117
Mof_C 	C 	0.13254	0.63614	0.30194	-0.174
Mof_C 	C 	0.15732	0.57112	0.26952	0.096
Mof_C 	C 	0.49317	0.99678	0.69587	0.045
Mof_C 	C 	0.42306	0.07174	0.68952	-0.054
Mof_C 	C 	0.28817	0.16287	0.42764	0.45
Mof_C 	C 	0.32133	0.14827	0.49329	-0.166
Mof_C 	C 	0.40898	0.11342	0.47976	0.089
Mof_C 	C 	0.43904	0.09005	0.54486	-0.164
Mof_C 	C 	0.38466	0.09892	0.62424	0.117
Mof_C 	C 	0.30194	0.13254	0.63614	-0.174
Mof_C 	C 	0.26952	0.15732	0.57112	0.096
Mof_C 	C 	0.69587	0.49317	0.99678	0.045
Mof_C 	C 	0.68952	0.42306	0.07174	-0.054
Mof_C 	C 	0.42764	0.28817	0.16287	0.45
Mof_C 	C 	0.49329	0.32133	0.14827	-0.166
Mof_C 	C 	0.47976	0.40898	0.11342	0.089
Mof_C 	C 	0.54486	0.43904	0.09005	-0.164
Mof_C 	C 	0.62424	0.38466	0.09892	0.117
Mof_C 	C 	0.63614	0.30194	0.13254	-0.174
Mof_C 	C 	0.57112	0.26952	0.15732	0.096
Mof_C 	C 	0.80413	0.50322	0.00683	0.043
Mof_C 	C 	0.81048	0.42826	0.07694	-0.054
Mof_C 	C 	0.07236	0.33713	0.21183	0.45
Mof_C 	C 	0.00671	0.35173	0.17867	-0.166
Mof_C 	C 	0.02024	0.38658	0.09102	0.089
Mof_C 	C 	0.95514	0.40995	0.06096	-0.165
Mof_C 	C 	0.87576	0.40108	0.11534	0.117
Mof_C 	C 	0.86386	0.36746	0.19806	-0.173
Mof_C 	C 	0.92888	0.34268	0.23048	0.096
Mof_C 	C 	0.50322	0.00683	0.80413	0.043
Mof_C 	C 	0.42826	0.07694	0.81048	-0.054
Mof_C 	C 	0.33713	0.21183	0.07236	0.45
Mof_C 	C 	0.35173	0.17867	0.00671	-0.166
Mof_C 	C 	0.38658	0.09102	0.02024	0.089
Mof_C 	C 	0.40995	0.06096	0.95514	-0.165
Mof_C 	C 	0.40108	0.11534	0.87576	0.117
Mof_C 	C 	0.36746	0.19806	0.86386	-0.173
Mof_C 	C 	0.34268	0.23048	0.92888	0.096
Mof_C 	C 	0.00683	0.80413	0.50322	0.043
Mof_C 	C 	0.07694	0.81048	0.42826	-0.054
Mof_C 	C 	0.21183	0.07236	0.33713	0.45
Mof_C 	C 	0.17867	0.00671	0.35173	-0.166
Mof_C 	C 	0.09102	0.02024	0.38658	0.089
Mof_C 	C 	0.06096	0.95514	0.40995	-0.165
Mof_C 	C 	0.11534	0.87576	0.40108	0.117
Mof_C 	C 	0.19806	0.86386	0.36746	-0.173
Mof_C 	C 	0.23048	0.92888	0.34268	0.096
Mof_C 	C 	0.00322	0.30413	0.50683	0.045
Mof_C 	C 	0.92826	0.31048	0.57694	-0.054
Mof_C 	C 	0.83713	0.57236	0.71183	0.45
Mof_C 	C 	0.85173	0.50671	0.67867	-0.166
Mof_C 	C 	0.88658	0.52024	0.59102	0.089
Mof_C 	C 	0.90995	0.45514	0.56096	-0.164
Mof_C 	C 	0.90108	0.37576	0.61534	0.117
Mof_C 	C 	0.86746	0.36386	0.69806	-0.174
Mof_C 	C 	0.84268	0.42888	0.73048	0.096
Mof_C 	C 	0.50683	0.00322	0.30413	0.045
Mof_C 	C 	0.57694	0.92826	0.31048	-0.054
Mof_C 	C 	0.71183	0.83713	0.57236	0.45
Mof_C 	C 	0.67867	0.85173	0.50671	-0.166
Mof_C 	C 	0.59102	0.88658	0.52024	0.089
Mof_C 	C 	0.56096	0.90995	0.45514	-0.164
Mof_C 	C 	0.61534	0.90108	0.37576	0.117
Mof_C 	C 	0.69806	0.86746	0.36386	-0.174
Mof_C 	C 	0.73048	0.84268	0.42888	0.096
Mof_C 	C 	0.30413	0.50683	0.00322	0.045
Mof_C 	C 	0.31048	0.57694	0.92826	-0.054
Mof_C 	C 	0.57236	0.71183	0.83713	0.45
Mof_C 	C 	0.50671	0.67867	0.85173	-0.166
Mof_C 	C 	0.52024	0.59102	0.88658	0.089
Mof_C 	C 	0.45514	0.56096	0.90995	-0.164
Mof_C 	C 	0.37576	0.61534	0.90108	0.117
Mof_C 	C 	0.36386	0.69806	0.86746	-0.174
Mof_C 	C 	0.42888	0.73048	0.84268	0.096
Mof_C 	C 	0.19587	0.49678	0.99317	0.043
Mof_C 	C 	0.18952	0.57174	0.92306	-0.054
Mof_C 	C 	0.92764	0.66287	0.78817	0.45
Mof_C 	C 	0.99329	0.64827	0.82133	-0.166
Mof_C 	C 	0.97976	0.61342	0.90898	0.089
Mof_C 	C 	0.04486	0.59005	0.93904	-0.165
Mof_C 	C 	0.12424	0.59892	0.88466	0.117
Mof_C 	C 	0.13614	0.63254	0.80194	-0.173
Mof_C 	C 	0.07112	0.65732	0.76952	0.096
Mof_C 	C 	0.49678	0.99317	0.19587	0.043
Mof_C 	C 	0.57174	0.92306	0.18952	-0.054
Mof_C 	C 	0.66287	0.78817	0.92764	0.45
Mof_C 	C 	0.64827	0.82133	0.99329	-0.166
Mof_C 	C 	0.61342	0.90898	0.97976	0.089
Mof_C 	C 	0.59005	0.93904	0.04486	-0.165
Mof_C 	C 	0.59892	0.88466	0.12424	0.117
Mof_C 	C 	0.63254	0.80194	0.13614	-0.173
Mof_C 	C 	0.65732	0.76952	0.07112	0.096
Mof_C 	C 	0.99317	0.19587	0.49678	0.043
Mof_C 	C 	0.92306	0.18952	0.57174	-0.054
Mof_C 	C 	0.78817	0.92764	0.66287	0.45
Mof_C 	C 	0.82133	0.99329	0.64827	-0.166
Mof_C 	C 	0.90898	0.97976	0.61342	0.089
Mof_C 	C 	0.93904	0.04486	0.59005	-0.165
Mof_C 	C 	0.88466	0.12424	0.59892	0.117
Mof_C 	C 	0.80194	0.13614	0.63254	-0.173
Mof_C 	C 	0.76952	0.07112	0.65732	0.096
Mof_C 	C 	0.10965	0.75	0.39035	-0.014
Mof_C 	C 	0.39035	0.10965	0.75	-0.014
Mof_C 	C 	0.75	0.39035	0.10965	-0.014
Mof_C 	C 	0.89035	0.25	0.60965	-0.014
Mof_C 	C 	0.60965	0.89035	0.25	-0.014
Mof_C 	C 	0.25	0.60965	0.89035	-0.014
Mof_N 	N 	0.96657	0.75	0.53343	-0.215
Mof_N 	N 	0.53343	0.96657	0.75	-0.215
Mof_N 	N 	0.75	0.53343	0.96657	-0.215
Mof_N 	N 	0.03343	0.25	0.46657	-0.215
Mof_N 	N 	0.46657	0.03343	0.25	-0.215
Mof_N 	N 	0.25	0.46657	0.03343	-0.215
Mof_O 	O 	0.21076	0.43283	0.21328	-0.485
Mof_O 	O 	0.12913	0.37177	0.33797	-0.501
Mof_O 	O 	0.21328	0.21076	0.43283	-0.485
Mof_O 	O 	0.33797	0.12913	0.37177	-0.501
Mof_O 	O 	0.43283	0.21328	0.21076	-0.485
Mof_O 	O 	0.37177	0.33797	0.12913	-0.501
Mof_O 	O 	0.06717	0.28924	0.28672	-0.484
Mof_O 	O 	0.12823	0.37087	0.16203	-0.501
Mof_O 	O 	0.28924	0.28672	0.06717	-0.484
Mof_O 	O 	0.37087	0.16203	0.12823	-0.501
Mof_O 	O 	0.28672	0.06717	0.28924	-0.484
Mof_O 	O 	0.16203	0.12823	0.37087	-0.501
Mof_O 	O 	0.78924	0.56717	0.78672	-0.485
Mof_O 	O 	0.87087	0.62823	0.66203	-0.501
Mof_O 	O 	0.78672	0.78924	0.56717	-0.485
Mof_O 	O 	0.66203	0.87087	0.62823	-0.501
Mof_O 	O 	0.56717	0.78672	0.78924	-0.485
Mof_O 	O 	0.62823	0.66203	0.87087	-0.501
Mof_O 	O 	0.93283	0.71076	0.71328	-0.484
Mof_O 	O 	0.87177	0.62913	0.83797	-0.501
Mof_O 	O 	0.71076	0.71328	0.93283	-0.484
Mof_O 	O 	0.62913	0.83797	0.87177	-0.501
Mof_O 	O 	0.71328	0.93283	0.71076	-0.484
Mof_O 	O 	0.83797	0.87177	0.62913	-0.501
Mof_O 	O 	0.25	0.25	0.25	-0.77
Mof_O 	O 	0.75	0.75	0.75	-0.77
_end
