data_functionalizedCrystal
_audit_creation_method	'EQeq! by Chris Wilmer'
_symmetry_space_group_name_H-M	'P1'
_symmetry_Int_Tables_number	1
_symmetry_cell_setting	triclinic
loop_
_symmetry_equiv_pos_as_xyz
  x,y,z
_cell_length_a	42.606
_cell_length_b	42.606
_cell_length_c	42.606
_cell_angle_alpha	90
_cell_angle_beta	90
_cell_angle_gamma	90
loop_
_atom_site_label
_atom_site_type_symbol
_atom_site_fract_x
_atom_site_fract_y
_atom_site_fract_z
_atom_site_charge
Mof_N 	N 	0.30716	0.17067	0.10606	-0.211
Mof_C 	C 	0.28695	0.17787	0.08351	0.114
Mof_H 	H 	0.2693	0.166	0.0786	0.012
Mof_O 	O 	0.25449	0.20877	0.03293	-0.413
Mof_N 	N 	0.30716	0.67067	0.60606	-0.211
Mof_C 	C 	0.28695	0.67787	0.58351	0.114
Mof_H 	H 	0.2693	0.666	0.5786	0.013
Mof_O 	O 	0.25449	0.70877	0.53293	-0.412
Mof_N 	N 	0.80716	0.17067	0.60606	-0.211
Mof_C 	C 	0.78695	0.17787	0.58351	0.114
Mof_H 	H 	0.7693	0.166	0.5786	0.013
Mof_O 	O 	0.75449	0.20877	0.53293	-0.412
Mof_N 	N 	0.80716	0.67067	0.10606	-0.211
Mof_C 	C 	0.78695	0.67787	0.08351	0.114
Mof_H 	H 	0.7693	0.666	0.0786	0.013
Mof_O 	O 	0.75449	0.70877	0.03293	-0.413
Mof_N 	N 	0.69284	0.82933	0.10606	-0.211
Mof_C 	C 	0.71305	0.82213	0.08351	0.114
Mof_H 	H 	0.7307	0.834	0.0786	0.013
Mof_O 	O 	0.74551	0.79123	0.03293	-0.412
Mof_N 	N 	0.69284	0.32933	0.60606	-0.211
Mof_C 	C 	0.71305	0.32213	0.58351	0.114
Mof_H 	H 	0.7307	0.334	0.5786	0.013
Mof_O 	O 	0.74551	0.29123	0.53293	-0.412
Mof_N 	N 	0.19284	0.82933	0.60606	-0.211
Mof_C 	C 	0.21305	0.82213	0.58351	0.114
Mof_H 	H 	0.2307	0.834	0.5786	0.013
Mof_O 	O 	0.24551	0.79123	0.53293	-0.412
Mof_N 	N 	0.19284	0.32933	0.10606	-0.211
Mof_C 	C 	0.21305	0.32213	0.08351	0.114
Mof_H 	H 	0.2307	0.334	0.0786	0.013
Mof_O 	O 	0.24551	0.29123	0.03293	-0.413
Mof_N 	N 	0.69284	0.17067	0.89394	-0.211
Mof_C 	C 	0.71305	0.17787	0.91649	0.114
Mof_H 	H 	0.7307	0.166	0.9214	0.013
Mof_O 	O 	0.74551	0.20877	0.96707	-0.41
Mof_N 	N 	0.69284	0.67067	0.39394	-0.211
Mof_C 	C 	0.71305	0.67787	0.41649	0.114
Mof_H 	H 	0.7307	0.666	0.4214	0.013
Mof_O 	O 	0.74551	0.70877	0.46707	-0.412
Mof_N 	N 	0.19284	0.17067	0.39394	-0.211
Mof_C 	C 	0.21305	0.17787	0.41649	0.114
Mof_H 	H 	0.2307	0.166	0.4214	0.013
Mof_O 	O 	0.24551	0.20877	0.46707	-0.412
Mof_N 	N 	0.19284	0.67067	0.89394	-0.211
Mof_C 	C 	0.21305	0.67787	0.91649	0.114
Mof_H 	H 	0.2307	0.666	0.9214	0.013
Mof_O 	O 	0.24551	0.70877	0.96707	-0.41
Mof_N 	N 	0.30716	0.82933	0.89394	-0.211
Mof_C 	C 	0.28695	0.82213	0.91649	0.114
Mof_H 	H 	0.2693	0.834	0.9214	0.013
Mof_O 	O 	0.25449	0.79123	0.96707	-0.41
Mof_N 	N 	0.30716	0.32933	0.39394	-0.211
Mof_C 	C 	0.28695	0.32213	0.41649	0.114
Mof_H 	H 	0.2693	0.334	0.4214	0.013
Mof_O 	O 	0.25449	0.29123	0.46707	-0.412
Mof_N 	N 	0.80716	0.82933	0.39394	-0.211
Mof_C 	C 	0.78695	0.82213	0.41649	0.114
Mof_H 	H 	0.7693	0.834	0.4214	0.013
Mof_O 	O 	0.75449	0.79123	0.46707	-0.412
Mof_N 	N 	0.80716	0.32933	0.89394	-0.211
Mof_C 	C 	0.78695	0.32213	0.91649	0.114
Mof_H 	H 	0.7693	0.334	0.9214	0.013
Mof_O 	O 	0.75449	0.29123	0.96707	-0.41
Mof_N 	N 	0.10606	0.30716	0.17067	-0.211
Mof_C 	C 	0.08351	0.28695	0.17787	0.114
Mof_H 	H 	0.0786	0.2693	0.166	0.012
Mof_O 	O 	0.03293	0.25449	0.20877	-0.413
Mof_N 	N 	0.10606	0.80716	0.67067	-0.211
Mof_C 	C 	0.08351	0.78695	0.67787	0.114
Mof_H 	H 	0.0786	0.7693	0.666	0.013
Mof_O 	O 	0.03293	0.75449	0.70877	-0.413
Mof_N 	N 	0.60606	0.30716	0.67067	-0.211
Mof_C 	C 	0.58351	0.28695	0.67787	0.114
Mof_H 	H 	0.5786	0.2693	0.666	0.013
Mof_O 	O 	0.53293	0.25449	0.70877	-0.412
Mof_N 	N 	0.60606	0.80716	0.17067	-0.211
Mof_C 	C 	0.58351	0.78695	0.17787	0.114
Mof_H 	H 	0.5786	0.7693	0.166	0.013
Mof_O 	O 	0.53293	0.75449	0.20877	-0.412
Mof_N 	N 	0.10606	0.69284	0.82933	-0.212
Mof_C 	C 	0.08351	0.71305	0.82213	0.113
Mof_H 	H 	0.0786	0.7307	0.834	0.012
Mof_O 	O 	0.03293	0.74551	0.79123	-0.413
Mof_N 	N 	0.10606	0.19284	0.32933	-0.212
Mof_C 	C 	0.08351	0.21305	0.32213	0.113
Mof_H 	H 	0.0786	0.2307	0.334	0.012
Mof_O 	O 	0.03293	0.24551	0.29123	-0.414
Mof_N 	N 	0.60606	0.69284	0.32933	-0.212
Mof_C 	C 	0.58351	0.71305	0.32213	0.113
Mof_H 	H 	0.5786	0.7307	0.334	0.012
Mof_O 	O 	0.53293	0.74551	0.29123	-0.413
Mof_N 	N 	0.60606	0.19284	0.82933	-0.212
Mof_C 	C 	0.58351	0.21305	0.82213	0.113
Mof_H 	H 	0.5786	0.2307	0.834	0.012
Mof_O 	O 	0.53293	0.24551	0.79123	-0.413
Mof_N 	N 	0.89394	0.69284	0.17067	-0.212
Mof_C 	C 	0.91649	0.71305	0.17787	0.113
Mof_H 	H 	0.9214	0.7307	0.166	0.012
Mof_O 	O 	0.96707	0.74551	0.20877	-0.411
Mof_N 	N 	0.89394	0.19284	0.67067	-0.212
Mof_C 	C 	0.91649	0.21305	0.67787	0.113
Mof_H 	H 	0.9214	0.2307	0.666	0.012
Mof_O 	O 	0.96707	0.24551	0.70877	-0.411
Mof_N 	N 	0.39394	0.69284	0.67067	-0.212
Mof_C 	C 	0.41649	0.71305	0.67787	0.113
Mof_H 	H 	0.4214	0.7307	0.666	0.012
Mof_O 	O 	0.46707	0.74551	0.70877	-0.413
Mof_N 	N 	0.39394	0.19284	0.17067	-0.212
Mof_C 	C 	0.41649	0.21305	0.17787	0.113
Mof_H 	H 	0.4214	0.2307	0.166	0.012
Mof_O 	O 	0.46707	0.24551	0.20877	-0.413
Mof_N 	N 	0.89394	0.30716	0.82933	-0.212
Mof_C 	C 	0.91649	0.28695	0.82213	0.113
Mof_H 	H 	0.9214	0.2693	0.834	0.012
Mof_O 	O 	0.96707	0.25449	0.79123	-0.411
Mof_N 	N 	0.89394	0.80716	0.32933	-0.212
Mof_C 	C 	0.91649	0.78695	0.32213	0.113
Mof_H 	H 	0.9214	0.7693	0.334	0.012
Mof_O 	O 	0.96707	0.75449	0.29123	-0.411
Mof_N 	N 	0.39394	0.30716	0.32933	-0.212
Mof_C 	C 	0.41649	0.28695	0.32213	0.113
Mof_H 	H 	0.4214	0.2693	0.334	0.012
Mof_O 	O 	0.46707	0.25449	0.29123	-0.413
Mof_N 	N 	0.39394	0.80716	0.82933	-0.212
Mof_C 	C 	0.41649	0.78695	0.82213	0.113
Mof_H 	H 	0.4214	0.7693	0.834	0.012
Mof_O 	O 	0.46707	0.75449	0.79123	-0.413
Mof_N 	N 	0.17067	0.10606	0.30716	-0.212
Mof_C 	C 	0.17787	0.08351	0.28695	0.113
Mof_H 	H 	0.166	0.0786	0.2693	0.011
Mof_O 	O 	0.20877	0.03293	0.25449	-0.414
Mof_N 	N 	0.17067	0.60606	0.80716	-0.212
Mof_C 	C 	0.17787	0.58351	0.78695	0.113
Mof_H 	H 	0.166	0.5786	0.7693	0.012
Mof_O 	O 	0.20877	0.53293	0.75449	-0.413
Mof_N 	N 	0.67067	0.10606	0.80716	-0.212
Mof_C 	C 	0.67787	0.08351	0.78695	0.113
Mof_H 	H 	0.666	0.0786	0.7693	0.012
Mof_O 	O 	0.70877	0.03293	0.75449	-0.414
Mof_N 	N 	0.67067	0.60606	0.30716	-0.212
Mof_C 	C 	0.67787	0.58351	0.28695	0.113
Mof_H 	H 	0.666	0.5786	0.2693	0.012
Mof_O 	O 	0.70877	0.53293	0.25449	-0.413
Mof_N 	N 	0.82933	0.10606	0.69284	-0.212
Mof_C 	C 	0.82213	0.08351	0.71305	0.113
Mof_H 	H 	0.834	0.0786	0.7307	0.012
Mof_O 	O 	0.79123	0.03293	0.74551	-0.413
Mof_N 	N 	0.82933	0.60606	0.19284	-0.212
Mof_C 	C 	0.82213	0.58351	0.21305	0.113
Mof_H 	H 	0.834	0.5786	0.2307	0.012
Mof_O 	O 	0.79123	0.53293	0.24551	-0.413
Mof_N 	N 	0.32933	0.10606	0.19284	-0.212
Mof_C 	C 	0.32213	0.08351	0.21305	0.113
Mof_H 	H 	0.334	0.0786	0.2307	0.012
Mof_O 	O 	0.29123	0.03293	0.24551	-0.414
Mof_N 	N 	0.32933	0.60606	0.69284	-0.212
Mof_C 	C 	0.32213	0.58351	0.71305	0.113
Mof_H 	H 	0.334	0.5786	0.7307	0.012
Mof_O 	O 	0.29123	0.53293	0.74551	-0.413
Mof_N 	N 	0.17067	0.89394	0.69284	-0.212
Mof_C 	C 	0.17787	0.91649	0.71305	0.113
Mof_H 	H 	0.166	0.9214	0.7307	0.012
Mof_O 	O 	0.20877	0.96707	0.74551	-0.411
Mof_N 	N 	0.17067	0.39394	0.19284	-0.212
Mof_C 	C 	0.17787	0.41649	0.21305	0.113
Mof_H 	H 	0.166	0.4214	0.2307	0.012
Mof_O 	O 	0.20877	0.46707	0.24551	-0.413
Mof_N 	N 	0.67067	0.89394	0.19284	-0.212
Mof_C 	C 	0.67787	0.91649	0.21305	0.113
Mof_H 	H 	0.666	0.9214	0.2307	0.012
Mof_O 	O 	0.70877	0.96707	0.24551	-0.411
Mof_N 	N 	0.67067	0.39394	0.69284	-0.212
Mof_C 	C 	0.67787	0.41649	0.71305	0.113
Mof_H 	H 	0.666	0.4214	0.7307	0.012
Mof_O 	O 	0.70877	0.46707	0.74551	-0.413
Mof_N 	N 	0.82933	0.89394	0.30716	-0.212
Mof_C 	C 	0.82213	0.91649	0.28695	0.113
Mof_H 	H 	0.834	0.9214	0.2693	0.012
Mof_O 	O 	0.79123	0.96707	0.25449	-0.411
Mof_N 	N 	0.82933	0.39394	0.80716	-0.212
Mof_C 	C 	0.82213	0.41649	0.78695	0.113
Mof_H 	H 	0.834	0.4214	0.7693	0.012
Mof_O 	O 	0.79123	0.46707	0.75449	-0.413
Mof_N 	N 	0.32933	0.89394	0.80716	-0.212
Mof_C 	C 	0.32213	0.91649	0.78695	0.113
Mof_H 	H 	0.334	0.9214	0.7693	0.012
Mof_O 	O 	0.29123	0.96707	0.75449	-0.411
Mof_N 	N 	0.32933	0.39394	0.30716	-0.212
Mof_C 	C 	0.32213	0.41649	0.28695	0.113
Mof_H 	H 	0.334	0.4214	0.2693	0.012
Mof_O 	O 	0.29123	0.46707	0.25449	-0.413
Mof_N 	N 	0.17067	0.30716	0.89394	-0.212
Mof_C 	C 	0.17787	0.28695	0.91649	0.113
Mof_H 	H 	0.166	0.2693	0.9214	0.012
Mof_O 	O 	0.20877	0.25449	0.96707	-0.411
Mof_N 	N 	0.17067	0.80716	0.39394	-0.212
Mof_C 	C 	0.17787	0.78695	0.41649	0.113
Mof_H 	H 	0.166	0.7693	0.4214	0.012
Mof_O 	O 	0.20877	0.75449	0.46707	-0.413
Mof_N 	N 	0.67067	0.30716	0.39394	-0.212
Mof_C 	C 	0.67787	0.28695	0.41649	0.113
Mof_H 	H 	0.666	0.2693	0.4214	0.012
Mof_O 	O 	0.70877	0.25449	0.46707	-0.413
Mof_N 	N 	0.67067	0.80716	0.89394	-0.212
Mof_C 	C 	0.67787	0.78695	0.91649	0.113
Mof_H 	H 	0.666	0.7693	0.9214	0.012
Mof_O 	O 	0.70877	0.75449	0.96707	-0.411
Mof_N 	N 	0.82933	0.69284	0.89394	-0.212
Mof_C 	C 	0.82213	0.71305	0.91649	0.113
Mof_H 	H 	0.834	0.7307	0.9214	0.012
Mof_O 	O 	0.79123	0.74551	0.96707	-0.411
Mof_N 	N 	0.82933	0.19284	0.39394	-0.212
Mof_C 	C 	0.82213	0.21305	0.41649	0.113
Mof_H 	H 	0.834	0.2307	0.4214	0.012
Mof_O 	O 	0.79123	0.24551	0.46707	-0.413
Mof_N 	N 	0.32933	0.69284	0.39394	-0.212
Mof_C 	C 	0.32213	0.71305	0.41649	0.113
Mof_H 	H 	0.334	0.7307	0.4214	0.012
Mof_O 	O 	0.29123	0.74551	0.46707	-0.413
Mof_N 	N 	0.32933	0.19284	0.89394	-0.212
Mof_C 	C 	0.32213	0.21305	0.91649	0.113
Mof_H 	H 	0.334	0.2307	0.9214	0.012
Mof_O 	O 	0.29123	0.24551	0.96707	-0.411
Mof_N 	N 	0.17067	0.69284	0.10606	-0.212
Mof_C 	C 	0.17787	0.71305	0.08351	0.113
Mof_H 	H 	0.166	0.7307	0.0786	0.012
Mof_O 	O 	0.20877	0.74551	0.03293	-0.414
Mof_N 	N 	0.17067	0.19284	0.60606	-0.212
Mof_C 	C 	0.17787	0.21305	0.58351	0.113
Mof_H 	H 	0.166	0.2307	0.5786	0.012
Mof_O 	O 	0.20877	0.24551	0.53293	-0.413
Mof_N 	N 	0.67067	0.69284	0.60606	-0.212
Mof_C 	C 	0.67787	0.71305	0.58351	0.113
Mof_H 	H 	0.666	0.7307	0.5786	0.012
Mof_O 	O 	0.70877	0.74551	0.53293	-0.413
Mof_N 	N 	0.67067	0.19284	0.10606	-0.212
Mof_C 	C 	0.67787	0.21305	0.08351	0.113
Mof_H 	H 	0.666	0.2307	0.0786	0.012
Mof_O 	O 	0.70877	0.24551	0.03293	-0.414
Mof_N 	N 	0.82933	0.30716	0.10606	-0.212
Mof_C 	C 	0.82213	0.28695	0.08351	0.113
Mof_H 	H 	0.834	0.2693	0.0786	0.012
Mof_O 	O 	0.79123	0.25449	0.03293	-0.414
Mof_N 	N 	0.82933	0.80716	0.60606	-0.212
Mof_C 	C 	0.82213	0.78695	0.58351	0.113
Mof_H 	H 	0.834	0.7693	0.5786	0.012
Mof_O 	O 	0.79123	0.75449	0.53293	-0.413
Mof_N 	N 	0.32933	0.30716	0.60606	-0.212
Mof_C 	C 	0.32213	0.28695	0.58351	0.113
Mof_H 	H 	0.334	0.2693	0.5786	0.012
Mof_O 	O 	0.29123	0.25449	0.53293	-0.413
Mof_N 	N 	0.32933	0.80716	0.10606	-0.212
Mof_C 	C 	0.32213	0.78695	0.08351	0.113
Mof_H 	H 	0.334	0.7693	0.0786	0.012
Mof_O 	O 	0.29123	0.75449	0.03293	-0.414
Mof_N 	N 	0.30716	0.10606	0.82933	-0.212
Mof_C 	C 	0.28695	0.08351	0.82213	0.113
Mof_H 	H 	0.2693	0.0786	0.834	0.012
Mof_O 	O 	0.25449	0.03293	0.79123	-0.414
Mof_N 	N 	0.30716	0.60606	0.32933	-0.212
Mof_C 	C 	0.28695	0.58351	0.32213	0.113
Mof_H 	H 	0.2693	0.5786	0.334	0.012
Mof_O 	O 	0.25449	0.53293	0.29123	-0.413
Mof_N 	N 	0.80716	0.10606	0.32933	-0.212
Mof_C 	C 	0.78695	0.08351	0.32213	0.113
Mof_H 	H 	0.7693	0.0786	0.334	0.012
Mof_O 	O 	0.75449	0.03293	0.29123	-0.414
Mof_N 	N 	0.80716	0.60606	0.82933	-0.212
Mof_C 	C 	0.78695	0.58351	0.82213	0.113
Mof_H 	H 	0.7693	0.5786	0.834	0.012
Mof_O 	O 	0.75449	0.53293	0.79123	-0.413
Mof_N 	N 	0.69284	0.10606	0.17067	-0.212
Mof_C 	C 	0.71305	0.08351	0.17787	0.113
Mof_H 	H 	0.7307	0.0786	0.166	0.012
Mof_O 	O 	0.74551	0.03293	0.20877	-0.414
Mof_N 	N 	0.69284	0.60606	0.67067	-0.212
Mof_C 	C 	0.71305	0.58351	0.67787	0.113
Mof_H 	H 	0.7307	0.5786	0.666	0.012
Mof_O 	O 	0.74551	0.53293	0.70877	-0.413
Mof_N 	N 	0.19284	0.10606	0.67067	-0.212
Mof_C 	C 	0.21305	0.08351	0.67787	0.113
Mof_H 	H 	0.2307	0.0786	0.666	0.012
Mof_O 	O 	0.24551	0.03293	0.70877	-0.414
Mof_N 	N 	0.19284	0.60606	0.17067	-0.212
Mof_C 	C 	0.21305	0.58351	0.17787	0.113
Mof_H 	H 	0.2307	0.5786	0.166	0.012
Mof_O 	O 	0.24551	0.53293	0.20877	-0.413
Mof_N 	N 	0.69284	0.89394	0.82933	-0.212
Mof_C 	C 	0.71305	0.91649	0.82213	0.113
Mof_H 	H 	0.7307	0.9214	0.834	0.012
Mof_O 	O 	0.74551	0.96707	0.79123	-0.411
Mof_N 	N 	0.69284	0.39394	0.32933	-0.212
Mof_C 	C 	0.71305	0.41649	0.32213	0.113
Mof_H 	H 	0.7307	0.4214	0.334	0.012
Mof_O 	O 	0.74551	0.46707	0.29123	-0.413
Mof_N 	N 	0.19284	0.89394	0.32933	-0.212
Mof_C 	C 	0.21305	0.91649	0.32213	0.113
Mof_H 	H 	0.2307	0.9214	0.334	0.012
Mof_O 	O 	0.24551	0.96707	0.29123	-0.411
Mof_N 	N 	0.19284	0.39394	0.82933	-0.212
Mof_C 	C 	0.21305	0.41649	0.82213	0.113
Mof_H 	H 	0.2307	0.4214	0.834	0.012
Mof_O 	O 	0.24551	0.46707	0.79123	-0.413
Mof_N 	N 	0.30716	0.89394	0.17067	-0.212
Mof_C 	C 	0.28695	0.91649	0.17787	0.113
Mof_H 	H 	0.2693	0.9214	0.166	0.012
Mof_O 	O 	0.25449	0.96707	0.20877	-0.411
Mof_N 	N 	0.30716	0.39394	0.67067	-0.212
Mof_C 	C 	0.28695	0.41649	0.67787	0.113
Mof_H 	H 	0.2693	0.4214	0.666	0.012
Mof_O 	O 	0.25449	0.46707	0.70877	-0.413
Mof_N 	N 	0.80716	0.89394	0.67067	-0.212
Mof_C 	C 	0.78695	0.91649	0.67787	0.113
Mof_H 	H 	0.7693	0.9214	0.666	0.012
Mof_O 	O 	0.75449	0.96707	0.70877	-0.411
Mof_N 	N 	0.80716	0.39394	0.17067	-0.212
Mof_C 	C 	0.78695	0.41649	0.17787	0.113
Mof_H 	H 	0.7693	0.4214	0.166	0.012
Mof_O 	O 	0.75449	0.46707	0.20877	-0.413
Mof_N 	N 	0.10606	0.17067	0.69284	-0.212
Mof_C 	C 	0.08351	0.17787	0.71305	0.113
Mof_H 	H 	0.0786	0.166	0.7307	0.012
Mof_O 	O 	0.03293	0.20877	0.74551	-0.414
Mof_N 	N 	0.10606	0.67067	0.19284	-0.212
Mof_C 	C 	0.08351	0.67787	0.21305	0.113
Mof_H 	H 	0.0786	0.666	0.2307	0.012
Mof_O 	O 	0.03293	0.70877	0.24551	-0.414
Mof_N 	N 	0.60606	0.17067	0.19284	-0.212
Mof_C 	C 	0.58351	0.17787	0.21305	0.113
Mof_H 	H 	0.5786	0.166	0.2307	0.012
Mof_O 	O 	0.53293	0.20877	0.24551	-0.413
Mof_N 	N 	0.60606	0.67067	0.69284	-0.212
Mof_C 	C 	0.58351	0.67787	0.71305	0.113
Mof_H 	H 	0.5786	0.666	0.7307	0.012
Mof_O 	O 	0.53293	0.70877	0.74551	-0.413
Mof_N 	N 	0.10606	0.82933	0.30716	-0.212
Mof_C 	C 	0.08351	0.82213	0.28695	0.113
Mof_H 	H 	0.0786	0.834	0.2693	0.012
Mof_O 	O 	0.03293	0.79123	0.25449	-0.414
Mof_N 	N 	0.10606	0.32933	0.80716	-0.212
Mof_C 	C 	0.08351	0.32213	0.78695	0.113
Mof_H 	H 	0.0786	0.334	0.7693	0.012
Mof_O 	O 	0.03293	0.29123	0.75449	-0.414
Mof_N 	N 	0.60606	0.82933	0.80716	-0.212
Mof_C 	C 	0.58351	0.82213	0.78695	0.113
Mof_H 	H 	0.5786	0.834	0.7693	0.012
Mof_O 	O 	0.53293	0.79123	0.75449	-0.413
Mof_N 	N 	0.60606	0.32933	0.30716	-0.212
Mof_C 	C 	0.58351	0.32213	0.28695	0.113
Mof_H 	H 	0.5786	0.334	0.2693	0.012
Mof_O 	O 	0.53293	0.29123	0.25449	-0.413
Mof_N 	N 	0.89394	0.17067	0.30716	-0.212
Mof_C 	C 	0.91649	0.17787	0.28695	0.113
Mof_H 	H 	0.9214	0.166	0.2693	0.012
Mof_O 	O 	0.96707	0.20877	0.25449	-0.411
Mof_N 	N 	0.89394	0.67067	0.80716	-0.212
Mof_C 	C 	0.91649	0.67787	0.78695	0.113
Mof_H 	H 	0.9214	0.666	0.7693	0.012
Mof_O 	O 	0.96707	0.70877	0.75449	-0.411
Mof_N 	N 	0.39394	0.17067	0.80716	-0.212
Mof_C 	C 	0.41649	0.17787	0.78695	0.113
Mof_H 	H 	0.4214	0.166	0.7693	0.012
Mof_O 	O 	0.46707	0.20877	0.75449	-0.413
Mof_N 	N 	0.39394	0.67067	0.30716	-0.212
Mof_C 	C 	0.41649	0.67787	0.28695	0.113
Mof_H 	H 	0.4214	0.666	0.2693	0.012
Mof_O 	O 	0.46707	0.70877	0.25449	-0.413
Mof_N 	N 	0.89394	0.82933	0.69284	-0.212
Mof_C 	C 	0.91649	0.82213	0.71305	0.113
Mof_H 	H 	0.9214	0.834	0.7307	0.012
Mof_O 	O 	0.96707	0.79123	0.74551	-0.411
Mof_N 	N 	0.89394	0.32933	0.19284	-0.212
Mof_C 	C 	0.91649	0.32213	0.21305	0.113
Mof_H 	H 	0.9214	0.334	0.2307	0.012
Mof_O 	O 	0.96707	0.29123	0.24551	-0.411
Mof_N 	N 	0.39394	0.82933	0.19284	-0.212
Mof_C 	C 	0.41649	0.82213	0.21305	0.113
Mof_H 	H 	0.4214	0.834	0.2307	0.012
Mof_O 	O 	0.46707	0.79123	0.24551	-0.413
Mof_N 	N 	0.39394	0.32933	0.69284	-0.212
Mof_C 	C 	0.41649	0.32213	0.71305	0.113
Mof_H 	H 	0.4214	0.334	0.7307	0.012
Mof_O 	O 	0.46707	0.29123	0.74551	-0.413
Mof_N 	N 	0.69284	0.82933	0.89394	-0.212
Mof_C 	C 	0.71305	0.82213	0.91649	0.113
Mof_H 	H 	0.7307	0.834	0.9214	0.012
Mof_O 	O 	0.74551	0.79123	0.96707	-0.411
Mof_N 	N 	0.69284	0.32933	0.39394	-0.212
Mof_C 	C 	0.71305	0.32213	0.41649	0.113
Mof_H 	H 	0.7307	0.334	0.4214	0.012
Mof_O 	O 	0.74551	0.29123	0.46707	-0.413
Mof_N 	N 	0.19284	0.82933	0.39394	-0.212
Mof_C 	C 	0.21305	0.82213	0.41649	0.113
Mof_H 	H 	0.2307	0.834	0.4214	0.012
Mof_O 	O 	0.24551	0.79123	0.46707	-0.413
Mof_N 	N 	0.19284	0.32933	0.89394	-0.212
Mof_C 	C 	0.21305	0.32213	0.91649	0.113
Mof_H 	H 	0.2307	0.334	0.9214	0.012
Mof_O 	O 	0.24551	0.29123	0.96707	-0.411
Mof_N 	N 	0.30716	0.17067	0.89394	-0.212
Mof_C 	C 	0.28695	0.17787	0.91649	0.113
Mof_H 	H 	0.2693	0.166	0.9214	0.012
Mof_O 	O 	0.25449	0.20877	0.96707	-0.411
Mof_N 	N 	0.30716	0.67067	0.39394	-0.212
Mof_C 	C 	0.28695	0.67787	0.41649	0.113
Mof_H 	H 	0.2693	0.666	0.4214	0.012
Mof_O 	O 	0.25449	0.70877	0.46707	-0.413
Mof_N 	N 	0.80716	0.17067	0.39394	-0.212
Mof_C 	C 	0.78695	0.17787	0.41649	0.113
Mof_H 	H 	0.7693	0.166	0.4214	0.012
Mof_O 	O 	0.75449	0.20877	0.46707	-0.413
Mof_N 	N 	0.80716	0.67067	0.89394	-0.212
Mof_C 	C 	0.78695	0.67787	0.91649	0.113
Mof_H 	H 	0.7693	0.666	0.9214	0.012
Mof_O 	O 	0.75449	0.70877	0.96707	-0.411
Mof_N 	N 	0.30716	0.82933	0.10606	-0.212
Mof_C 	C 	0.28695	0.82213	0.08351	0.113
Mof_H 	H 	0.2693	0.834	0.0786	0.012
Mof_O 	O 	0.25449	0.79123	0.03293	-0.414
Mof_N 	N 	0.30716	0.32933	0.60606	-0.212
Mof_C 	C 	0.28695	0.32213	0.58351	0.113
Mof_H 	H 	0.2693	0.334	0.5786	0.012
Mof_O 	O 	0.25449	0.29123	0.53293	-0.413
Mof_N 	N 	0.80716	0.82933	0.60606	-0.212
Mof_C 	C 	0.78695	0.82213	0.58351	0.113
Mof_H 	H 	0.7693	0.834	0.5786	0.012
Mof_O 	O 	0.75449	0.79123	0.53293	-0.413
Mof_N 	N 	0.80716	0.32933	0.10606	-0.212
Mof_C 	C 	0.78695	0.32213	0.08351	0.113
Mof_H 	H 	0.7693	0.334	0.0786	0.012
Mof_O 	O 	0.75449	0.29123	0.03293	-0.414
Mof_N 	N 	0.69284	0.17067	0.10606	-0.212
Mof_C 	C 	0.71305	0.17787	0.08351	0.113
Mof_H 	H 	0.7307	0.166	0.0786	0.012
Mof_O 	O 	0.74551	0.20877	0.03293	-0.414
Mof_N 	N 	0.69284	0.67067	0.60606	-0.212
Mof_C 	C 	0.71305	0.67787	0.58351	0.113
Mof_H 	H 	0.7307	0.666	0.5786	0.012
Mof_O 	O 	0.74551	0.70877	0.53293	-0.413
Mof_N 	N 	0.19284	0.17067	0.60606	-0.212
Mof_C 	C 	0.21305	0.17787	0.58351	0.113
Mof_H 	H 	0.2307	0.166	0.5786	0.012
Mof_O 	O 	0.24551	0.20877	0.53293	-0.413
Mof_N 	N 	0.19284	0.67067	0.10606	-0.212
Mof_C 	C 	0.21305	0.67787	0.08351	0.113
Mof_H 	H 	0.2307	0.666	0.0786	0.012
Mof_O 	O 	0.24551	0.70877	0.03293	-0.414
Mof_N 	N 	0.89394	0.69284	0.82933	-0.212
Mof_C 	C 	0.91649	0.71305	0.82213	0.113
Mof_H 	H 	0.9214	0.7307	0.834	0.012
Mof_O 	O 	0.96707	0.74551	0.79123	-0.411
Mof_N 	N 	0.89394	0.19284	0.32933	-0.212
Mof_C 	C 	0.91649	0.21305	0.32213	0.113
Mof_H 	H 	0.9214	0.2307	0.334	0.012
Mof_O 	O 	0.96707	0.24551	0.29123	-0.411
Mof_N 	N 	0.39394	0.69284	0.32933	-0.212
Mof_C 	C 	0.41649	0.71305	0.32213	0.113
Mof_H 	H 	0.4214	0.7307	0.334	0.012
Mof_O 	O 	0.46707	0.74551	0.29123	-0.413
Mof_N 	N 	0.39394	0.19284	0.82933	-0.212
Mof_C 	C 	0.41649	0.21305	0.82213	0.113
Mof_H 	H 	0.4214	0.2307	0.834	0.012
Mof_O 	O 	0.46707	0.24551	0.79123	-0.413
Mof_N 	N 	0.89394	0.30716	0.17067	-0.212
Mof_C 	C 	0.91649	0.28695	0.17787	0.113
Mof_H 	H 	0.9214	0.2693	0.166	0.012
Mof_O 	O 	0.96707	0.25449	0.20877	-0.411
Mof_N 	N 	0.89394	0.80716	0.67067	-0.212
Mof_C 	C 	0.91649	0.78695	0.67787	0.113
Mof_H 	H 	0.9214	0.7693	0.666	0.012
Mof_O 	O 	0.96707	0.75449	0.70877	-0.411
Mof_N 	N 	0.39394	0.30716	0.67067	-0.212
Mof_C 	C 	0.41649	0.28695	0.67787	0.113
Mof_H 	H 	0.4214	0.2693	0.666	0.012
Mof_O 	O 	0.46707	0.25449	0.70877	-0.413
Mof_N 	N 	0.39394	0.80716	0.17067	-0.212
Mof_C 	C 	0.41649	0.78695	0.17787	0.113
Mof_H 	H 	0.4214	0.7693	0.166	0.012
Mof_O 	O 	0.46707	0.75449	0.20877	-0.413
Mof_N 	N 	0.10606	0.30716	0.82933	-0.212
Mof_C 	C 	0.08351	0.28695	0.82213	0.113
Mof_H 	H 	0.0786	0.2693	0.834	0.012
Mof_O 	O 	0.03293	0.25449	0.79123	-0.414
Mof_N 	N 	0.10606	0.80716	0.32933	-0.212
Mof_C 	C 	0.08351	0.78695	0.32213	0.113
Mof_H 	H 	0.0786	0.7693	0.334	0.012
Mof_O 	O 	0.03293	0.75449	0.29123	-0.414
Mof_N 	N 	0.60606	0.30716	0.32933	-0.212
Mof_C 	C 	0.58351	0.28695	0.32213	0.113
Mof_H 	H 	0.5786	0.2693	0.334	0.012
Mof_O 	O 	0.53293	0.25449	0.29123	-0.413
Mof_N 	N 	0.60606	0.80716	0.82933	-0.212
Mof_C 	C 	0.58351	0.78695	0.82213	0.113
Mof_H 	H 	0.5786	0.7693	0.834	0.012
Mof_O 	O 	0.53293	0.75449	0.79123	-0.413
Mof_N 	N 	0.10606	0.69284	0.17067	-0.212
Mof_C 	C 	0.08351	0.71305	0.17787	0.113
Mof_H 	H 	0.0786	0.7307	0.166	0.012
Mof_O 	O 	0.03293	0.74551	0.20877	-0.414
Mof_N 	N 	0.10606	0.19284	0.67067	-0.212
Mof_C 	C 	0.08351	0.21305	0.67787	0.113
Mof_H 	H 	0.0786	0.2307	0.666	0.012
Mof_O 	O 	0.03293	0.24551	0.70877	-0.414
Mof_N 	N 	0.60606	0.69284	0.67067	-0.212
Mof_C 	C 	0.58351	0.71305	0.67787	0.113
Mof_H 	H 	0.5786	0.7307	0.666	0.012
Mof_O 	O 	0.53293	0.74551	0.70877	-0.413
Mof_N 	N 	0.60606	0.19284	0.17067	-0.212
Mof_C 	C 	0.58351	0.21305	0.17787	0.113
Mof_H 	H 	0.5786	0.2307	0.166	0.012
Mof_O 	O 	0.53293	0.24551	0.20877	-0.413
Mof_N 	N 	0.82933	0.89394	0.69284	-0.212
Mof_C 	C 	0.82213	0.91649	0.71305	0.113
Mof_H 	H 	0.834	0.9214	0.7307	0.012
Mof_O 	O 	0.79123	0.96707	0.74551	-0.411
Mof_N 	N 	0.82933	0.39394	0.19284	-0.212
Mof_C 	C 	0.82213	0.41649	0.21305	0.113
Mof_H 	H 	0.834	0.4214	0.2307	0.012
Mof_O 	O 	0.79123	0.46707	0.24551	-0.413
Mof_N 	N 	0.32933	0.89394	0.19284	-0.212
Mof_C 	C 	0.32213	0.91649	0.21305	0.113
Mof_H 	H 	0.334	0.9214	0.2307	0.012
Mof_O 	O 	0.29123	0.96707	0.24551	-0.411
Mof_N 	N 	0.32933	0.39394	0.69284	-0.212
Mof_C 	C 	0.32213	0.41649	0.71305	0.113
Mof_H 	H 	0.334	0.4214	0.7307	0.012
Mof_O 	O 	0.29123	0.46707	0.74551	-0.413
Mof_N 	N 	0.17067	0.89394	0.30716	-0.212
Mof_C 	C 	0.17787	0.91649	0.28695	0.113
Mof_H 	H 	0.166	0.9214	0.2693	0.012
Mof_O 	O 	0.20877	0.96707	0.25449	-0.411
Mof_N 	N 	0.17067	0.39394	0.80716	-0.212
Mof_C 	C 	0.17787	0.41649	0.78695	0.113
Mof_H 	H 	0.166	0.4214	0.7693	0.012
Mof_O 	O 	0.20877	0.46707	0.75449	-0.413
Mof_N 	N 	0.67067	0.89394	0.80716	-0.212
Mof_C 	C 	0.67787	0.91649	0.78695	0.113
Mof_H 	H 	0.666	0.9214	0.7693	0.012
Mof_O 	O 	0.70877	0.96707	0.75449	-0.411
Mof_N 	N 	0.67067	0.39394	0.30716	-0.212
Mof_C 	C 	0.67787	0.41649	0.28695	0.113
Mof_H 	H 	0.666	0.4214	0.2693	0.012
Mof_O 	O 	0.70877	0.46707	0.25449	-0.413
Mof_N 	N 	0.82933	0.10606	0.30716	-0.212
Mof_C 	C 	0.82213	0.08351	0.28695	0.113
Mof_H 	H 	0.834	0.0786	0.2693	0.012
Mof_O 	O 	0.79123	0.03293	0.25449	-0.414
Mof_N 	N 	0.82933	0.60606	0.80716	-0.212
Mof_C 	C 	0.82213	0.58351	0.78695	0.113
Mof_H 	H 	0.834	0.5786	0.7693	0.012
Mof_O 	O 	0.79123	0.53293	0.75449	-0.413
Mof_N 	N 	0.32933	0.10606	0.80716	-0.212
Mof_C 	C 	0.32213	0.08351	0.78695	0.113
Mof_H 	H 	0.334	0.0786	0.7693	0.012
Mof_O 	O 	0.29123	0.03293	0.75449	-0.414
Mof_N 	N 	0.32933	0.60606	0.30716	-0.212
Mof_C 	C 	0.32213	0.58351	0.28695	0.113
Mof_H 	H 	0.334	0.5786	0.2693	0.012
Mof_O 	O 	0.29123	0.53293	0.25449	-0.413
Mof_N 	N 	0.17067	0.10606	0.69284	-0.212
Mof_C 	C 	0.17787	0.08351	0.71305	0.113
Mof_H 	H 	0.166	0.0786	0.7307	0.012
Mof_O 	O 	0.20877	0.03293	0.74551	-0.414
Mof_N 	N 	0.17067	0.60606	0.19284	-0.212
Mof_C 	C 	0.17787	0.58351	0.21305	0.113
Mof_H 	H 	0.166	0.5786	0.2307	0.012
Mof_O 	O 	0.20877	0.53293	0.24551	-0.413
Mof_N 	N 	0.67067	0.10606	0.19284	-0.212
Mof_C 	C 	0.67787	0.08351	0.21305	0.113
Mof_H 	H 	0.666	0.0786	0.2307	0.012
Mof_O 	O 	0.70877	0.03293	0.24551	-0.414
Mof_N 	N 	0.67067	0.60606	0.69284	-0.212
Mof_C 	C 	0.67787	0.58351	0.71305	0.113
Mof_H 	H 	0.666	0.5786	0.7307	0.012
Mof_O 	O 	0.70877	0.53293	0.74551	-0.413
Mof_N 	N 	0.82933	0.69284	0.10606	-0.212
Mof_C 	C 	0.82213	0.71305	0.08351	0.113
Mof_H 	H 	0.834	0.7307	0.0786	0.012
Mof_O 	O 	0.79123	0.74551	0.03293	-0.413
Mof_N 	N 	0.82933	0.19284	0.60606	-0.212
Mof_C 	C 	0.82213	0.21305	0.58351	0.113
Mof_H 	H 	0.834	0.2307	0.5786	0.012
Mof_O 	O 	0.79123	0.24551	0.53293	-0.413
Mof_N 	N 	0.32933	0.69284	0.60606	-0.212
Mof_C 	C 	0.32213	0.71305	0.58351	0.113
Mof_H 	H 	0.334	0.7307	0.5786	0.012
Mof_O 	O 	0.29123	0.74551	0.53293	-0.413
Mof_N 	N 	0.32933	0.19284	0.10606	-0.212
Mof_C 	C 	0.32213	0.21305	0.08351	0.113
Mof_H 	H 	0.334	0.2307	0.0786	0.012
Mof_O 	O 	0.29123	0.24551	0.03293	-0.414
Mof_N 	N 	0.17067	0.30716	0.10606	-0.212
Mof_C 	C 	0.17787	0.28695	0.08351	0.113
Mof_H 	H 	0.166	0.2693	0.0786	0.011
Mof_O 	O 	0.20877	0.25449	0.03293	-0.414
Mof_N 	N 	0.17067	0.80716	0.60606	-0.212
Mof_C 	C 	0.17787	0.78695	0.58351	0.113
Mof_H 	H 	0.166	0.7693	0.5786	0.012
Mof_O 	O 	0.20877	0.75449	0.53293	-0.413
Mof_N 	N 	0.67067	0.30716	0.60606	-0.212
Mof_C 	C 	0.67787	0.28695	0.58351	0.113
Mof_H 	H 	0.666	0.2693	0.5786	0.012
Mof_O 	O 	0.70877	0.25449	0.53293	-0.413
Mof_N 	N 	0.67067	0.80716	0.10606	-0.212
Mof_C 	C 	0.67787	0.78695	0.08351	0.113
Mof_H 	H 	0.666	0.7693	0.0786	0.012
Mof_O 	O 	0.70877	0.75449	0.03293	-0.414
Mof_N 	N 	0.82933	0.30716	0.89394	-0.212
Mof_C 	C 	0.82213	0.28695	0.91649	0.113
Mof_H 	H 	0.834	0.2693	0.9214	0.012
Mof_O 	O 	0.79123	0.25449	0.96707	-0.411
Mof_N 	N 	0.82933	0.80716	0.39394	-0.212
Mof_C 	C 	0.82213	0.78695	0.41649	0.113
Mof_H 	H 	0.834	0.7693	0.4214	0.012
Mof_O 	O 	0.79123	0.75449	0.46707	-0.413
Mof_N 	N 	0.32933	0.30716	0.39394	-0.212
Mof_C 	C 	0.32213	0.28695	0.41649	0.113
Mof_H 	H 	0.334	0.2693	0.4214	0.012
Mof_O 	O 	0.29123	0.25449	0.46707	-0.413
Mof_N 	N 	0.32933	0.80716	0.89394	-0.212
Mof_C 	C 	0.32213	0.78695	0.91649	0.113
Mof_H 	H 	0.334	0.7693	0.9214	0.012
Mof_O 	O 	0.29123	0.75449	0.96707	-0.411
Mof_N 	N 	0.17067	0.69284	0.89394	-0.212
Mof_C 	C 	0.17787	0.71305	0.91649	0.113
Mof_H 	H 	0.166	0.7307	0.9214	0.012
Mof_O 	O 	0.20877	0.74551	0.96707	-0.411
Mof_N 	N 	0.17067	0.19284	0.39394	-0.212
Mof_C 	C 	0.17787	0.21305	0.41649	0.113
Mof_H 	H 	0.166	0.2307	0.4214	0.012
Mof_O 	O 	0.20877	0.24551	0.46707	-0.413
Mof_N 	N 	0.67067	0.69284	0.39394	-0.212
Mof_C 	C 	0.67787	0.71305	0.41649	0.113
Mof_H 	H 	0.666	0.7307	0.4214	0.012
Mof_O 	O 	0.70877	0.74551	0.46707	-0.413
Mof_N 	N 	0.67067	0.19284	0.89394	-0.212
Mof_C 	C 	0.67787	0.21305	0.91649	0.113
Mof_H 	H 	0.666	0.2307	0.9214	0.012
Mof_O 	O 	0.70877	0.24551	0.96707	-0.411
Mof_N 	N 	0.69284	0.89394	0.17067	-0.212
Mof_C 	C 	0.71305	0.91649	0.17787	0.113
Mof_H 	H 	0.7307	0.9214	0.166	0.012
Mof_O 	O 	0.74551	0.96707	0.20877	-0.411
Mof_N 	N 	0.69284	0.39394	0.67067	-0.212
Mof_C 	C 	0.71305	0.41649	0.67787	0.113
Mof_H 	H 	0.7307	0.4214	0.666	0.012
Mof_O 	O 	0.74551	0.46707	0.70877	-0.413
Mof_N 	N 	0.19284	0.89394	0.67067	-0.212
Mof_C 	C 	0.21305	0.91649	0.67787	0.113
Mof_H 	H 	0.2307	0.9214	0.666	0.012
Mof_O 	O 	0.24551	0.96707	0.70877	-0.411
Mof_N 	N 	0.19284	0.39394	0.17067	-0.212
Mof_C 	C 	0.21305	0.41649	0.17787	0.113
Mof_H 	H 	0.2307	0.4214	0.166	0.012
Mof_O 	O 	0.24551	0.46707	0.20877	-0.413
Mof_N 	N 	0.30716	0.89394	0.82933	-0.212
Mof_C 	C 	0.28695	0.91649	0.82213	0.113
Mof_H 	H 	0.2693	0.9214	0.834	0.012
Mof_O 	O 	0.25449	0.96707	0.79123	-0.411
Mof_N 	N 	0.30716	0.39394	0.32933	-0.212
Mof_C 	C 	0.28695	0.41649	0.32213	0.113
Mof_H 	H 	0.2693	0.4214	0.334	0.012
Mof_O 	O 	0.25449	0.46707	0.29123	-0.413
Mof_N 	N 	0.80716	0.89394	0.32933	-0.212
Mof_C 	C 	0.78695	0.91649	0.32213	0.113
Mof_H 	H 	0.7693	0.9214	0.334	0.012
Mof_O 	O 	0.75449	0.96707	0.29123	-0.411
Mof_N 	N 	0.80716	0.39394	0.82933	-0.212
Mof_C 	C 	0.78695	0.41649	0.82213	0.113
Mof_H 	H 	0.7693	0.4214	0.834	0.012
Mof_O 	O 	0.75449	0.46707	0.79123	-0.413
Mof_N 	N 	0.30716	0.10606	0.17067	-0.212
Mof_C 	C 	0.28695	0.08351	0.17787	0.113
Mof_H 	H 	0.2693	0.0786	0.166	0.011
Mof_O 	O 	0.25449	0.03293	0.20877	-0.414
Mof_N 	N 	0.30716	0.60606	0.67067	-0.212
Mof_C 	C 	0.28695	0.58351	0.67787	0.113
Mof_H 	H 	0.2693	0.5786	0.666	0.012
Mof_O 	O 	0.25449	0.53293	0.70877	-0.413
Mof_N 	N 	0.80716	0.10606	0.67067	-0.212
Mof_C 	C 	0.78695	0.08351	0.67787	0.113
Mof_H 	H 	0.7693	0.0786	0.666	0.012
Mof_O 	O 	0.75449	0.03293	0.70877	-0.414
Mof_N 	N 	0.80716	0.60606	0.17067	-0.212
Mof_C 	C 	0.78695	0.58351	0.17787	0.113
Mof_H 	H 	0.7693	0.5786	0.166	0.012
Mof_O 	O 	0.75449	0.53293	0.20877	-0.413
Mof_N 	N 	0.69284	0.10606	0.82933	-0.212
Mof_C 	C 	0.71305	0.08351	0.82213	0.113
Mof_H 	H 	0.7307	0.0786	0.834	0.012
Mof_O 	O 	0.74551	0.03293	0.79123	-0.413
Mof_N 	N 	0.69284	0.60606	0.32933	-0.212
Mof_C 	C 	0.71305	0.58351	0.32213	0.113
Mof_H 	H 	0.7307	0.5786	0.334	0.012
Mof_O 	O 	0.74551	0.53293	0.29123	-0.413
Mof_N 	N 	0.19284	0.10606	0.32933	-0.212
Mof_C 	C 	0.21305	0.08351	0.32213	0.113
Mof_H 	H 	0.2307	0.0786	0.334	0.012
Mof_O 	O 	0.24551	0.03293	0.29123	-0.414
Mof_N 	N 	0.19284	0.60606	0.82933	-0.212
Mof_C 	C 	0.21305	0.58351	0.82213	0.113
Mof_H 	H 	0.2307	0.5786	0.834	0.012
Mof_O 	O 	0.24551	0.53293	0.79123	-0.413
Mof_N 	N 	0.89394	0.82933	0.30716	-0.212
Mof_C 	C 	0.91649	0.82213	0.28695	0.113
Mof_H 	H 	0.9214	0.834	0.2693	0.012
Mof_O 	O 	0.96707	0.79123	0.25449	-0.411
Mof_N 	N 	0.89394	0.32933	0.80716	-0.212
Mof_C 	C 	0.91649	0.32213	0.78695	0.113
Mof_H 	H 	0.9214	0.334	0.7693	0.012
Mof_O 	O 	0.96707	0.29123	0.75449	-0.411
Mof_N 	N 	0.39394	0.82933	0.80716	-0.212
Mof_C 	C 	0.41649	0.82213	0.78695	0.113
Mof_H 	H 	0.4214	0.834	0.7693	0.012
Mof_O 	O 	0.46707	0.79123	0.75449	-0.413
Mof_N 	N 	0.39394	0.32933	0.30716	-0.212
Mof_C 	C 	0.41649	0.32213	0.28695	0.113
Mof_H 	H 	0.4214	0.334	0.2693	0.012
Mof_O 	O 	0.46707	0.29123	0.25449	-0.413
Mof_N 	N 	0.89394	0.17067	0.69284	-0.212
Mof_C 	C 	0.91649	0.17787	0.71305	0.113
Mof_H 	H 	0.9214	0.166	0.7307	0.012
Mof_O 	O 	0.96707	0.20877	0.74551	-0.411
Mof_N 	N 	0.89394	0.67067	0.19284	-0.212
Mof_C 	C 	0.91649	0.67787	0.21305	0.113
Mof_H 	H 	0.9214	0.666	0.2307	0.012
Mof_O 	O 	0.96707	0.70877	0.24551	-0.411
Mof_N 	N 	0.39394	0.17067	0.19284	-0.212
Mof_C 	C 	0.41649	0.17787	0.21305	0.113
Mof_H 	H 	0.4214	0.166	0.2307	0.012
Mof_O 	O 	0.46707	0.20877	0.24551	-0.413
Mof_N 	N 	0.39394	0.67067	0.69284	-0.212
Mof_C 	C 	0.41649	0.67787	0.71305	0.113
Mof_H 	H 	0.4214	0.666	0.7307	0.012
Mof_O 	O 	0.46707	0.70877	0.74551	-0.413
Mof_N 	N 	0.10606	0.82933	0.69284	-0.212
Mof_C 	C 	0.08351	0.82213	0.71305	0.113
Mof_H 	H 	0.0786	0.834	0.7307	0.012
Mof_O 	O 	0.03293	0.79123	0.74551	-0.413
Mof_N 	N 	0.10606	0.32933	0.19284	-0.212
Mof_C 	C 	0.08351	0.32213	0.21305	0.113
Mof_H 	H 	0.0786	0.334	0.2307	0.012
Mof_O 	O 	0.03293	0.29123	0.24551	-0.414
Mof_N 	N 	0.60606	0.82933	0.19284	-0.212
Mof_C 	C 	0.58351	0.82213	0.21305	0.113
Mof_H 	H 	0.5786	0.834	0.2307	0.012
Mof_O 	O 	0.53293	0.79123	0.24551	-0.413
Mof_N 	N 	0.60606	0.32933	0.69284	-0.212
Mof_C 	C 	0.58351	0.32213	0.71305	0.113
Mof_H 	H 	0.5786	0.334	0.7307	0.012
Mof_O 	O 	0.53293	0.29123	0.74551	-0.413
Mof_N 	N 	0.10606	0.17067	0.30716	-0.212
Mof_C 	C 	0.08351	0.17787	0.28695	0.113
Mof_H 	H 	0.0786	0.166	0.2693	0.011
Mof_O 	O 	0.03293	0.20877	0.25449	-0.414
Mof_N 	N 	0.10606	0.67067	0.80716	-0.212
Mof_C 	C 	0.08351	0.67787	0.78695	0.113
Mof_H 	H 	0.0786	0.666	0.7693	0.012
Mof_O 	O 	0.03293	0.70877	0.75449	-0.414
Mof_N 	N 	0.60606	0.17067	0.80716	-0.212
Mof_C 	C 	0.58351	0.17787	0.78695	0.113
Mof_H 	H 	0.5786	0.166	0.7693	0.012
Mof_O 	O 	0.53293	0.20877	0.75449	-0.413
Mof_N 	N 	0.60606	0.67067	0.30716	-0.212
Mof_C 	C 	0.58351	0.67787	0.28695	0.113
Mof_H 	H 	0.5786	0.666	0.2693	0.012
Mof_O 	O 	0.53293	0.70877	0.25449	-0.413
Mof_Cu	Cu	0.30697	0.13784	0.13784	0.877
Mof_O 	O 	0.285	0.1053	0.1053	-0.165
Mof_O 	O 	0.2671	0.1197	0.1197	-0.203
Mof_Cu	Cu	0.30697	0.63784	0.63784	0.877
Mof_O 	O 	0.285	0.6053	0.6053	-0.164
Mof_O 	O 	0.2671	0.6197	0.6197	-0.202
Mof_Cu	Cu	0.80697	0.13784	0.63784	0.877
Mof_O 	O 	0.785	0.1053	0.6053	-0.164
Mof_O 	O 	0.7671	0.1197	0.6197	-0.202
Mof_Cu	Cu	0.80697	0.63784	0.13784	0.877
Mof_O 	O 	0.785	0.6053	0.1053	-0.164
Mof_O 	O 	0.7671	0.6197	0.1197	-0.202
Mof_Cu	Cu	0.69303	0.86216	0.13784	0.877
Mof_O 	O 	0.715	0.8947	0.1053	-0.163
Mof_O 	O 	0.7329	0.8803	0.1197	-0.202
Mof_Cu	Cu	0.69303	0.36216	0.63784	0.877
Mof_O 	O 	0.715	0.3947	0.6053	-0.164
Mof_O 	O 	0.7329	0.3803	0.6197	-0.202
Mof_Cu	Cu	0.19303	0.86216	0.63784	0.877
Mof_O 	O 	0.215	0.8947	0.6053	-0.163
Mof_O 	O 	0.2329	0.8803	0.6197	-0.202
Mof_Cu	Cu	0.19303	0.36216	0.13784	0.877
Mof_O 	O 	0.215	0.3947	0.1053	-0.164
Mof_O 	O 	0.2329	0.3803	0.1197	-0.202
Mof_Cu	Cu	0.69303	0.13784	0.86216	0.877
Mof_O 	O 	0.715	0.1053	0.8947	-0.163
Mof_O 	O 	0.7329	0.1197	0.8803	-0.202
Mof_Cu	Cu	0.69303	0.63784	0.36216	0.877
Mof_O 	O 	0.715	0.6053	0.3947	-0.164
Mof_O 	O 	0.7329	0.6197	0.3803	-0.202
Mof_Cu	Cu	0.19303	0.13784	0.36216	0.877
Mof_O 	O 	0.215	0.1053	0.3947	-0.164
Mof_O 	O 	0.2329	0.1197	0.3803	-0.202
Mof_Cu	Cu	0.19303	0.63784	0.86216	0.877
Mof_O 	O 	0.215	0.6053	0.8947	-0.163
Mof_O 	O 	0.2329	0.6197	0.8803	-0.202
Mof_Cu	Cu	0.30697	0.86216	0.86216	0.877
Mof_O 	O 	0.285	0.8947	0.8947	-0.163
Mof_O 	O 	0.2671	0.8803	0.8803	-0.202
Mof_Cu	Cu	0.30697	0.36216	0.36216	0.877
Mof_O 	O 	0.285	0.3947	0.3947	-0.164
Mof_O 	O 	0.2671	0.3803	0.3803	-0.202
Mof_Cu	Cu	0.80697	0.86216	0.36216	0.877
Mof_O 	O 	0.785	0.8947	0.3947	-0.163
Mof_O 	O 	0.7671	0.8803	0.3803	-0.202
Mof_Cu	Cu	0.80697	0.36216	0.86216	0.877
Mof_O 	O 	0.785	0.3947	0.8947	-0.163
Mof_O 	O 	0.7671	0.3803	0.8803	-0.202
Mof_Cu	Cu	0.13784	0.30697	0.13784	0.877
Mof_O 	O 	0.1053	0.285	0.1053	-0.165
Mof_O 	O 	0.1197	0.2671	0.1197	-0.203
Mof_Cu	Cu	0.13784	0.80697	0.63784	0.877
Mof_O 	O 	0.1053	0.785	0.6053	-0.164
Mof_O 	O 	0.1197	0.7671	0.6197	-0.202
Mof_Cu	Cu	0.63784	0.30697	0.63784	0.877
Mof_O 	O 	0.6053	0.285	0.6053	-0.164
Mof_O 	O 	0.6197	0.2671	0.6197	-0.202
Mof_Cu	Cu	0.63784	0.80697	0.13784	0.877
Mof_O 	O 	0.6053	0.785	0.1053	-0.164
Mof_O 	O 	0.6197	0.7671	0.1197	-0.202
Mof_Cu	Cu	0.13784	0.69303	0.86216	0.877
Mof_O 	O 	0.1053	0.715	0.8947	-0.163
Mof_O 	O 	0.1197	0.7329	0.8803	-0.202
Mof_Cu	Cu	0.13784	0.19303	0.36216	0.877
Mof_O 	O 	0.1053	0.215	0.3947	-0.164
Mof_O 	O 	0.1197	0.2329	0.3803	-0.202
Mof_Cu	Cu	0.63784	0.69303	0.36216	0.877
Mof_O 	O 	0.6053	0.715	0.3947	-0.164
Mof_O 	O 	0.6197	0.7329	0.3803	-0.202
Mof_Cu	Cu	0.63784	0.19303	0.86216	0.877
Mof_O 	O 	0.6053	0.215	0.8947	-0.163
Mof_O 	O 	0.6197	0.2329	0.8803	-0.202
Mof_Cu	Cu	0.86216	0.69303	0.13784	0.877
Mof_O 	O 	0.8947	0.715	0.1053	-0.163
Mof_O 	O 	0.8803	0.7329	0.1197	-0.202
Mof_Cu	Cu	0.86216	0.19303	0.63784	0.877
Mof_O 	O 	0.8947	0.215	0.6053	-0.163
Mof_O 	O 	0.8803	0.2329	0.6197	-0.202
Mof_Cu	Cu	0.36216	0.69303	0.63784	0.877
Mof_O 	O 	0.3947	0.715	0.6053	-0.164
Mof_O 	O 	0.3803	0.7329	0.6197	-0.202
Mof_Cu	Cu	0.36216	0.19303	0.13784	0.877
Mof_O 	O 	0.3947	0.215	0.1053	-0.164
Mof_O 	O 	0.3803	0.2329	0.1197	-0.202
Mof_Cu	Cu	0.86216	0.30697	0.86216	0.877
Mof_O 	O 	0.8947	0.285	0.8947	-0.163
Mof_O 	O 	0.8803	0.2671	0.8803	-0.202
Mof_Cu	Cu	0.86216	0.80697	0.36216	0.877
Mof_O 	O 	0.8947	0.785	0.3947	-0.163
Mof_O 	O 	0.8803	0.7671	0.3803	-0.202
Mof_Cu	Cu	0.36216	0.30697	0.36216	0.877
Mof_O 	O 	0.3947	0.285	0.3947	-0.164
Mof_O 	O 	0.3803	0.2671	0.3803	-0.202
Mof_Cu	Cu	0.36216	0.80697	0.86216	0.877
Mof_O 	O 	0.3947	0.785	0.8947	-0.163
Mof_O 	O 	0.3803	0.7671	0.8803	-0.202
Mof_Cu	Cu	0.13784	0.13784	0.30697	0.877
Mof_O 	O 	0.1053	0.1053	0.285	-0.165
Mof_O 	O 	0.1197	0.1197	0.2671	-0.203
Mof_Cu	Cu	0.13784	0.63784	0.80697	0.877
Mof_O 	O 	0.1053	0.6053	0.785	-0.164
Mof_O 	O 	0.1197	0.6197	0.7671	-0.202
Mof_Cu	Cu	0.63784	0.13784	0.80697	0.877
Mof_O 	O 	0.6053	0.1053	0.785	-0.164
Mof_O 	O 	0.6197	0.1197	0.7671	-0.202
Mof_Cu	Cu	0.63784	0.63784	0.30697	0.877
Mof_O 	O 	0.6053	0.6053	0.285	-0.164
Mof_O 	O 	0.6197	0.6197	0.2671	-0.202
Mof_Cu	Cu	0.86216	0.13784	0.69303	0.877
Mof_O 	O 	0.8947	0.1053	0.715	-0.163
Mof_O 	O 	0.8803	0.1197	0.7329	-0.202
Mof_Cu	Cu	0.86216	0.63784	0.19303	0.877
Mof_O 	O 	0.8947	0.6053	0.215	-0.163
Mof_O 	O 	0.8803	0.6197	0.2329	-0.202
Mof_Cu	Cu	0.36216	0.13784	0.19303	0.877
Mof_O 	O 	0.3947	0.1053	0.215	-0.164
Mof_O 	O 	0.3803	0.1197	0.2329	-0.202
Mof_Cu	Cu	0.36216	0.63784	0.69303	0.877
Mof_O 	O 	0.3947	0.6053	0.715	-0.164
Mof_O 	O 	0.3803	0.6197	0.7329	-0.202
Mof_Cu	Cu	0.13784	0.86216	0.69303	0.877
Mof_O 	O 	0.1053	0.8947	0.715	-0.163
Mof_O 	O 	0.1197	0.8803	0.7329	-0.202
Mof_Cu	Cu	0.13784	0.36216	0.19303	0.877
Mof_O 	O 	0.1053	0.3947	0.215	-0.164
Mof_O 	O 	0.1197	0.3803	0.2329	-0.202
Mof_Cu	Cu	0.63784	0.86216	0.19303	0.877
Mof_O 	O 	0.6053	0.8947	0.215	-0.163
Mof_O 	O 	0.6197	0.8803	0.2329	-0.202
Mof_Cu	Cu	0.63784	0.36216	0.69303	0.877
Mof_O 	O 	0.6053	0.3947	0.715	-0.164
Mof_O 	O 	0.6197	0.3803	0.7329	-0.202
Mof_Cu	Cu	0.86216	0.86216	0.30697	0.877
Mof_O 	O 	0.8947	0.8947	0.285	-0.163
Mof_O 	O 	0.8803	0.8803	0.2671	-0.202
Mof_Cu	Cu	0.86216	0.36216	0.80697	0.877
Mof_O 	O 	0.8947	0.3947	0.785	-0.163
Mof_O 	O 	0.8803	0.3803	0.7671	-0.202
Mof_Cu	Cu	0.36216	0.86216	0.80697	0.877
Mof_O 	O 	0.3947	0.8947	0.785	-0.163
Mof_O 	O 	0.3803	0.8803	0.7671	-0.202
Mof_Cu	Cu	0.36216	0.36216	0.30697	0.877
Mof_O 	O 	0.3947	0.3947	0.285	-0.164
Mof_O 	O 	0.3803	0.3803	0.2671	-0.202
Mof_Cu	Cu	0.13784	0.30697	0.86216	0.877
Mof_O 	O 	0.1053	0.285	0.8947	-0.164
Mof_O 	O 	0.1197	0.2671	0.8803	-0.202
Mof_Cu	Cu	0.13784	0.80697	0.36216	0.877
Mof_O 	O 	0.1053	0.785	0.3947	-0.164
Mof_O 	O 	0.1197	0.7671	0.3803	-0.202
Mof_Cu	Cu	0.63784	0.30697	0.36216	0.877
Mof_O 	O 	0.6053	0.285	0.3947	-0.164
Mof_O 	O 	0.6197	0.2671	0.3803	-0.202
Mof_Cu	Cu	0.63784	0.80697	0.86216	0.877
Mof_O 	O 	0.6053	0.785	0.8947	-0.163
Mof_O 	O 	0.6197	0.7671	0.8803	-0.202
Mof_Cu	Cu	0.86216	0.69303	0.86216	0.877
Mof_O 	O 	0.8947	0.715	0.8947	-0.163
Mof_O 	O 	0.8803	0.7329	0.8803	-0.202
Mof_Cu	Cu	0.86216	0.19303	0.36216	0.877
Mof_O 	O 	0.8947	0.215	0.3947	-0.163
Mof_O 	O 	0.8803	0.2329	0.3803	-0.202
Mof_Cu	Cu	0.36216	0.69303	0.36216	0.877
Mof_O 	O 	0.3947	0.715	0.3947	-0.164
Mof_O 	O 	0.3803	0.7329	0.3803	-0.202
Mof_Cu	Cu	0.36216	0.19303	0.86216	0.877
Mof_O 	O 	0.3947	0.215	0.8947	-0.163
Mof_O 	O 	0.3803	0.2329	0.8803	-0.202
Mof_Cu	Cu	0.13784	0.69303	0.13784	0.877
Mof_O 	O 	0.1053	0.715	0.1053	-0.164
Mof_O 	O 	0.1197	0.7329	0.1197	-0.202
Mof_Cu	Cu	0.13784	0.19303	0.63784	0.877
Mof_O 	O 	0.1053	0.215	0.6053	-0.164
Mof_O 	O 	0.1197	0.2329	0.6197	-0.202
Mof_Cu	Cu	0.63784	0.69303	0.63784	0.877
Mof_O 	O 	0.6053	0.715	0.6053	-0.164
Mof_O 	O 	0.6197	0.7329	0.6197	-0.202
Mof_Cu	Cu	0.63784	0.19303	0.13784	0.877
Mof_O 	O 	0.6053	0.215	0.1053	-0.164
Mof_O 	O 	0.6197	0.2329	0.1197	-0.202
Mof_Cu	Cu	0.86216	0.30697	0.13784	0.877
Mof_O 	O 	0.8947	0.285	0.1053	-0.164
Mof_O 	O 	0.8803	0.2671	0.1197	-0.202
Mof_Cu	Cu	0.86216	0.80697	0.63784	0.877
Mof_O 	O 	0.8947	0.785	0.6053	-0.163
Mof_O 	O 	0.8803	0.7671	0.6197	-0.202
Mof_Cu	Cu	0.36216	0.30697	0.63784	0.877
Mof_O 	O 	0.3947	0.285	0.6053	-0.164
Mof_O 	O 	0.3803	0.2671	0.6197	-0.202
Mof_Cu	Cu	0.36216	0.80697	0.13784	0.877
Mof_O 	O 	0.3947	0.785	0.1053	-0.164
Mof_O 	O 	0.3803	0.7671	0.1197	-0.202
Mof_Cu	Cu	0.30697	0.13784	0.86216	0.877
Mof_O 	O 	0.285	0.1053	0.8947	-0.164
Mof_O 	O 	0.2671	0.1197	0.8803	-0.202
Mof_Cu	Cu	0.30697	0.63784	0.36216	0.877
Mof_O 	O 	0.285	0.6053	0.3947	-0.164
Mof_O 	O 	0.2671	0.6197	0.3803	-0.202
Mof_Cu	Cu	0.80697	0.13784	0.36216	0.877
Mof_O 	O 	0.785	0.1053	0.3947	-0.164
Mof_O 	O 	0.7671	0.1197	0.3803	-0.202
Mof_Cu	Cu	0.80697	0.63784	0.86216	0.877
Mof_O 	O 	0.785	0.6053	0.8947	-0.163
Mof_O 	O 	0.7671	0.6197	0.8803	-0.202
Mof_Cu	Cu	0.69303	0.13784	0.13784	0.877
Mof_O 	O 	0.715	0.1053	0.1053	-0.164
Mof_O 	O 	0.7329	0.1197	0.1197	-0.202
Mof_Cu	Cu	0.69303	0.63784	0.63784	0.877
Mof_O 	O 	0.715	0.6053	0.6053	-0.164
Mof_O 	O 	0.7329	0.6197	0.6197	-0.202
Mof_Cu	Cu	0.19303	0.13784	0.63784	0.877
Mof_O 	O 	0.215	0.1053	0.6053	-0.164
Mof_O 	O 	0.2329	0.1197	0.6197	-0.202
Mof_Cu	Cu	0.19303	0.63784	0.13784	0.877
Mof_O 	O 	0.215	0.6053	0.1053	-0.164
Mof_O 	O 	0.2329	0.6197	0.1197	-0.202
Mof_Cu	Cu	0.69303	0.86216	0.86216	0.877
Mof_O 	O 	0.715	0.8947	0.8947	-0.163
Mof_O 	O 	0.7329	0.8803	0.8803	-0.202
Mof_Cu	Cu	0.69303	0.36216	0.36216	0.877
Mof_O 	O 	0.715	0.3947	0.3947	-0.164
Mof_O 	O 	0.7329	0.3803	0.3803	-0.202
Mof_Cu	Cu	0.19303	0.86216	0.36216	0.877
Mof_O 	O 	0.215	0.8947	0.3947	-0.163
Mof_O 	O 	0.2329	0.8803	0.3803	-0.202
Mof_Cu	Cu	0.19303	0.36216	0.86216	0.877
Mof_O 	O 	0.215	0.3947	0.8947	-0.163
Mof_O 	O 	0.2329	0.3803	0.8803	-0.202
Mof_Cu	Cu	0.30697	0.86216	0.13784	0.877
Mof_O 	O 	0.285	0.8947	0.1053	-0.164
Mof_O 	O 	0.2671	0.8803	0.1197	-0.202
Mof_Cu	Cu	0.30697	0.36216	0.63784	0.877
Mof_O 	O 	0.285	0.3947	0.6053	-0.164
Mof_O 	O 	0.2671	0.3803	0.6197	-0.202
Mof_Cu	Cu	0.80697	0.86216	0.63784	0.877
Mof_O 	O 	0.785	0.8947	0.6053	-0.163
Mof_O 	O 	0.7671	0.8803	0.6197	-0.202
Mof_Cu	Cu	0.80697	0.36216	0.13784	0.877
Mof_O 	O 	0.785	0.3947	0.1053	-0.164
Mof_O 	O 	0.7671	0.3803	0.1197	-0.202
Mof_Cu	Cu	0.13784	0.13784	0.69303	0.877
Mof_O 	O 	0.1053	0.1053	0.715	-0.164
Mof_O 	O 	0.1197	0.1197	0.7329	-0.202
Mof_Cu	Cu	0.13784	0.63784	0.19303	0.877
Mof_O 	O 	0.1053	0.6053	0.215	-0.164
Mof_O 	O 	0.1197	0.6197	0.2329	-0.202
Mof_Cu	Cu	0.63784	0.13784	0.19303	0.877
Mof_O 	O 	0.6053	0.1053	0.215	-0.164
Mof_O 	O 	0.6197	0.1197	0.2329	-0.202
Mof_Cu	Cu	0.63784	0.63784	0.69303	0.877
Mof_O 	O 	0.6053	0.6053	0.715	-0.164
Mof_O 	O 	0.6197	0.6197	0.7329	-0.202
Mof_Cu	Cu	0.13784	0.86216	0.30697	0.877
Mof_O 	O 	0.1053	0.8947	0.285	-0.164
Mof_O 	O 	0.1197	0.8803	0.2671	-0.202
Mof_Cu	Cu	0.13784	0.36216	0.80697	0.877
Mof_O 	O 	0.1053	0.3947	0.785	-0.164
Mof_O 	O 	0.1197	0.3803	0.7671	-0.202
Mof_Cu	Cu	0.63784	0.86216	0.80697	0.877
Mof_O 	O 	0.6053	0.8947	0.785	-0.163
Mof_O 	O 	0.6197	0.8803	0.7671	-0.202
Mof_Cu	Cu	0.63784	0.36216	0.30697	0.877
Mof_O 	O 	0.6053	0.3947	0.285	-0.164
Mof_O 	O 	0.6197	0.3803	0.2671	-0.202
Mof_Cu	Cu	0.86216	0.13784	0.30697	0.877
Mof_O 	O 	0.8947	0.1053	0.285	-0.164
Mof_O 	O 	0.8803	0.1197	0.2671	-0.202
Mof_Cu	Cu	0.86216	0.63784	0.80697	0.877
Mof_O 	O 	0.8947	0.6053	0.785	-0.163
Mof_O 	O 	0.8803	0.6197	0.7671	-0.202
Mof_Cu	Cu	0.36216	0.13784	0.80697	0.877
Mof_O 	O 	0.3947	0.1053	0.785	-0.164
Mof_O 	O 	0.3803	0.1197	0.7671	-0.202
Mof_Cu	Cu	0.36216	0.63784	0.30697	0.877
Mof_O 	O 	0.3947	0.6053	0.285	-0.164
Mof_O 	O 	0.3803	0.6197	0.2671	-0.202
Mof_Cu	Cu	0.86216	0.86216	0.69303	0.877
Mof_O 	O 	0.8947	0.8947	0.715	-0.163
Mof_O 	O 	0.8803	0.8803	0.7329	-0.202
Mof_Cu	Cu	0.86216	0.36216	0.19303	0.877
Mof_O 	O 	0.8947	0.3947	0.215	-0.163
Mof_O 	O 	0.8803	0.3803	0.2329	-0.202
Mof_Cu	Cu	0.36216	0.86216	0.19303	0.877
Mof_O 	O 	0.3947	0.8947	0.215	-0.163
Mof_O 	O 	0.3803	0.8803	0.2329	-0.202
Mof_Cu	Cu	0.36216	0.36216	0.69303	0.877
Mof_O 	O 	0.3947	0.3947	0.715	-0.164
Mof_O 	O 	0.3803	0.3803	0.7329	-0.202
Mof_O 	O 	0.3378	0.1622	0.1622	-0.583
Mof_O 	O 	0.3378	0.6622	0.6622	-0.583
Mof_O 	O 	0.6622	0.8378	0.1622	-0.583
Mof_O 	O 	0.6622	0.3378	0.6622	-0.583
Mof_O 	O 	0.1622	0.3378	0.1622	-0.583
Mof_O 	O 	0.6622	0.1622	0.8378	-0.583
Mof_O 	O 	0.6622	0.6622	0.3378	-0.583
Mof_O 	O 	0.1622	0.1622	0.3378	-0.583
Mof_O 	O 	0.3378	0.8378	0.8378	-0.583
Mof_O 	O 	0.3378	0.3378	0.3378	-0.583
Mof_O 	O 	0.1622	0.6622	0.8378	-0.583
Mof_O 	O 	0.8378	0.6622	0.1622	-0.583
Mof_O 	O 	0.8378	0.3378	0.8378	-0.583
Mof_O 	O 	0.8378	0.1622	0.6622	-0.583
Mof_O 	O 	0.1622	0.8378	0.6622	-0.583
Mof_O 	O 	0.8378	0.8378	0.3378	-0.583
Mof_O 	O 	0.1622	0.3378	0.8378	-0.583
Mof_O 	O 	0.8378	0.6622	0.8378	-0.583
Mof_O 	O 	0.8378	0.1622	0.3378	-0.583
Mof_O 	O 	0.3378	0.1622	0.8378	-0.583
Mof_O 	O 	0.1622	0.6622	0.1622	-0.583
Mof_O 	O 	0.8378	0.3378	0.1622	-0.583
Mof_O 	O 	0.3378	0.3378	0.6622	-0.583
Mof_O 	O 	0.3378	0.6622	0.3378	-0.583
Mof_O 	O 	0.6622	0.1622	0.1622	-0.583
Mof_O 	O 	0.6622	0.6622	0.6622	-0.583
Mof_O 	O 	0.6622	0.8378	0.8378	-0.583
Mof_O 	O 	0.6622	0.3378	0.3378	-0.583
Mof_O 	O 	0.1622	0.8378	0.3378	-0.583
Mof_O 	O 	0.3378	0.8378	0.1622	-0.583
Mof_O 	O 	0.1622	0.1622	0.6622	-0.583
Mof_O 	O 	0.8378	0.8378	0.6622	-0.583
Mof_C 	C 	0.29529	0.20471	0.0684	-0.178
Mof_C 	C 	0.27944	0.22056	0.043	0.408
Mof_C 	C 	0.29529	0.70471	0.5684	-0.178
Mof_C 	C 	0.27944	0.72056	0.543	0.408
Mof_C 	C 	0.70471	0.79529	0.0684	-0.178
Mof_C 	C 	0.72056	0.77944	0.043	0.408
Mof_C 	C 	0.70471	0.29529	0.5684	-0.178
Mof_C 	C 	0.72056	0.27944	0.543	0.408
Mof_C 	C 	0.20471	0.29529	0.0684	-0.178
Mof_C 	C 	0.22056	0.27944	0.043	0.408
Mof_C 	C 	0.70471	0.20471	0.9316	-0.177
Mof_C 	C 	0.72056	0.22056	0.957	0.407
Mof_C 	C 	0.70471	0.70471	0.4316	-0.178
Mof_C 	C 	0.72056	0.72056	0.457	0.408
Mof_C 	C 	0.20471	0.20471	0.4316	-0.178
Mof_C 	C 	0.22056	0.22056	0.457	0.408
Mof_C 	C 	0.29529	0.79529	0.9316	-0.177
Mof_C 	C 	0.27944	0.77944	0.957	0.407
Mof_C 	C 	0.29529	0.29529	0.4316	-0.178
Mof_C 	C 	0.27944	0.27944	0.457	0.408
Mof_C 	C 	0.0684	0.29529	0.20471	-0.178
Mof_C 	C 	0.043	0.27944	0.22056	0.408
Mof_C 	C 	0.5684	0.29529	0.70471	-0.178
Mof_C 	C 	0.543	0.27944	0.72056	0.408
Mof_C 	C 	0.0684	0.70471	0.79529	-0.178
Mof_C 	C 	0.043	0.72056	0.77944	0.408
Mof_C 	C 	0.0684	0.20471	0.29529	-0.178
Mof_C 	C 	0.043	0.22056	0.27944	0.408
Mof_C 	C 	0.5684	0.70471	0.29529	-0.178
Mof_C 	C 	0.543	0.72056	0.27944	0.408
Mof_C 	C 	0.9316	0.70471	0.20471	-0.177
Mof_C 	C 	0.957	0.72056	0.22056	0.407
Mof_C 	C 	0.4316	0.70471	0.70471	-0.178
Mof_C 	C 	0.457	0.72056	0.72056	0.408
Mof_C 	C 	0.4316	0.20471	0.20471	-0.178
Mof_C 	C 	0.457	0.22056	0.22056	0.408
Mof_C 	C 	0.9316	0.29529	0.79529	-0.177
Mof_C 	C 	0.957	0.27944	0.77944	0.407
Mof_C 	C 	0.4316	0.29529	0.29529	-0.178
Mof_C 	C 	0.457	0.27944	0.27944	0.408
Mof_C 	C 	0.20471	0.0684	0.29529	-0.178
Mof_C 	C 	0.22056	0.043	0.27944	0.408
Mof_C 	C 	0.20471	0.5684	0.79529	-0.178
Mof_C 	C 	0.22056	0.543	0.77944	0.408
Mof_C 	C 	0.79529	0.0684	0.70471	-0.178
Mof_C 	C 	0.77944	0.043	0.72056	0.408
Mof_C 	C 	0.79529	0.5684	0.20471	-0.178
Mof_C 	C 	0.77944	0.543	0.22056	0.408
Mof_C 	C 	0.29529	0.0684	0.20471	-0.178
Mof_C 	C 	0.27944	0.043	0.22056	0.408
Mof_C 	C 	0.20471	0.9316	0.70471	-0.177
Mof_C 	C 	0.22056	0.957	0.72056	0.407
Mof_C 	C 	0.20471	0.4316	0.20471	-0.178
Mof_C 	C 	0.22056	0.457	0.22056	0.408
Mof_C 	C 	0.79529	0.9316	0.29529	-0.177
Mof_C 	C 	0.77944	0.957	0.27944	0.407
Mof_C 	C 	0.79529	0.4316	0.79529	-0.177
Mof_C 	C 	0.77944	0.457	0.77944	0.408
Mof_C 	C 	0.29529	0.4316	0.29529	-0.178
Mof_C 	C 	0.27944	0.457	0.27944	0.408
Mof_C 	C 	0.20471	0.29529	0.9316	-0.177
Mof_C 	C 	0.22056	0.27944	0.957	0.407
Mof_C 	C 	0.20471	0.79529	0.4316	-0.178
Mof_C 	C 	0.22056	0.77944	0.457	0.408
Mof_C 	C 	0.79529	0.70471	0.9316	-0.177
Mof_C 	C 	0.77944	0.72056	0.957	0.407
Mof_C 	C 	0.79529	0.20471	0.4316	-0.178
Mof_C 	C 	0.77944	0.22056	0.457	0.408
Mof_C 	C 	0.29529	0.20471	0.9316	-0.177
Mof_C 	C 	0.27944	0.22056	0.957	0.407
Mof_C 	C 	0.20471	0.70471	0.0684	-0.178
Mof_C 	C 	0.22056	0.72056	0.043	0.408
Mof_C 	C 	0.20471	0.20471	0.5684	-0.178
Mof_C 	C 	0.22056	0.22056	0.543	0.408
Mof_C 	C 	0.79529	0.29529	0.0684	-0.178
Mof_C 	C 	0.77944	0.27944	0.043	0.408
Mof_C 	C 	0.79529	0.79529	0.5684	-0.177
Mof_C 	C 	0.77944	0.77944	0.543	0.408
Mof_C 	C 	0.29529	0.29529	0.5684	-0.178
Mof_C 	C 	0.27944	0.27944	0.543	0.408
Mof_C 	C 	0.29529	0.0684	0.79529	-0.178
Mof_C 	C 	0.27944	0.043	0.77944	0.408
Mof_C 	C 	0.29529	0.5684	0.29529	-0.178
Mof_C 	C 	0.27944	0.543	0.27944	0.408
Mof_C 	C 	0.70471	0.0684	0.20471	-0.178
Mof_C 	C 	0.72056	0.043	0.22056	0.408
Mof_C 	C 	0.70471	0.5684	0.70471	-0.178
Mof_C 	C 	0.72056	0.543	0.72056	0.408
Mof_C 	C 	0.20471	0.5684	0.20471	-0.178
Mof_C 	C 	0.22056	0.543	0.22056	0.408
Mof_C 	C 	0.70471	0.9316	0.79529	-0.177
Mof_C 	C 	0.72056	0.957	0.77944	0.407
Mof_C 	C 	0.70471	0.4316	0.29529	-0.178
Mof_C 	C 	0.72056	0.457	0.27944	0.408
Mof_C 	C 	0.20471	0.9316	0.29529	-0.177
Mof_C 	C 	0.22056	0.957	0.27944	0.407
Mof_C 	C 	0.29529	0.9316	0.20471	-0.177
Mof_C 	C 	0.27944	0.957	0.22056	0.407
Mof_C 	C 	0.29529	0.4316	0.70471	-0.178
Mof_C 	C 	0.27944	0.457	0.72056	0.408
Mof_C 	C 	0.0684	0.20471	0.70471	-0.178
Mof_C 	C 	0.043	0.22056	0.72056	0.408
Mof_C 	C 	0.5684	0.20471	0.20471	-0.178
Mof_C 	C 	0.543	0.22056	0.22056	0.408
Mof_C 	C 	0.0684	0.79529	0.29529	-0.178
Mof_C 	C 	0.043	0.77944	0.27944	0.408
Mof_C 	C 	0.5684	0.79529	0.79529	-0.177
Mof_C 	C 	0.543	0.77944	0.77944	0.408
Mof_C 	C 	0.5684	0.29529	0.29529	-0.178
Mof_C 	C 	0.543	0.27944	0.27944	0.408
Mof_C 	C 	0.9316	0.20471	0.29529	-0.177
Mof_C 	C 	0.957	0.22056	0.27944	0.407
Mof_C 	C 	0.4316	0.20471	0.79529	-0.178
Mof_C 	C 	0.457	0.22056	0.77944	0.408
Mof_C 	C 	0.9316	0.79529	0.70471	-0.177
Mof_C 	C 	0.957	0.77944	0.72056	0.407
Mof_C 	C 	0.9316	0.29529	0.20471	-0.177
Mof_C 	C 	0.957	0.27944	0.22056	0.407
Mof_C 	C 	0.4316	0.79529	0.20471	-0.178
Mof_C 	C 	0.457	0.77944	0.22056	0.408
Mof_C 	C 	0.70471	0.79529	0.9316	-0.177
Mof_C 	C 	0.72056	0.77944	0.957	0.407
Mof_C 	C 	0.70471	0.29529	0.4316	-0.178
Mof_C 	C 	0.72056	0.27944	0.457	0.408
Mof_C 	C 	0.29529	0.70471	0.4316	-0.178
Mof_C 	C 	0.27944	0.72056	0.457	0.408
Mof_C 	C 	0.29529	0.79529	0.0684	-0.178
Mof_C 	C 	0.27944	0.77944	0.043	0.408
Mof_C 	C 	0.70471	0.20471	0.0684	-0.178
Mof_C 	C 	0.72056	0.22056	0.043	0.408
Mof_C 	C 	0.70471	0.70471	0.5684	-0.178
Mof_C 	C 	0.72056	0.72056	0.543	0.408
Mof_C 	C 	0.9316	0.70471	0.79529	-0.177
Mof_C 	C 	0.957	0.72056	0.77944	0.407
Mof_C 	C 	0.4316	0.70471	0.29529	-0.178
Mof_C 	C 	0.457	0.72056	0.27944	0.408
Mof_C 	C 	0.4316	0.29529	0.70471	-0.178
Mof_C 	C 	0.457	0.27944	0.72056	0.408
Mof_C 	C 	0.0684	0.29529	0.79529	-0.178
Mof_C 	C 	0.043	0.27944	0.77944	0.408
Mof_C 	C 	0.0684	0.70471	0.20471	-0.178
Mof_C 	C 	0.043	0.72056	0.22056	0.408
Mof_C 	C 	0.5684	0.70471	0.70471	-0.178
Mof_C 	C 	0.543	0.72056	0.72056	0.408
Mof_C 	C 	0.79529	0.9316	0.70471	-0.177
Mof_C 	C 	0.77944	0.957	0.72056	0.407
Mof_C 	C 	0.79529	0.4316	0.20471	-0.178
Mof_C 	C 	0.77944	0.457	0.22056	0.408
Mof_C 	C 	0.20471	0.4316	0.79529	-0.178
Mof_C 	C 	0.22056	0.457	0.77944	0.408
Mof_C 	C 	0.79529	0.0684	0.29529	-0.178
Mof_C 	C 	0.77944	0.043	0.27944	0.408
Mof_C 	C 	0.79529	0.5684	0.79529	-0.177
Mof_C 	C 	0.77944	0.543	0.77944	0.408
Mof_C 	C 	0.20471	0.0684	0.70471	-0.178
Mof_C 	C 	0.22056	0.043	0.72056	0.408
Mof_C 	C 	0.79529	0.70471	0.0684	-0.178
Mof_C 	C 	0.77944	0.72056	0.043	0.408
Mof_C 	C 	0.79529	0.20471	0.5684	-0.178
Mof_C 	C 	0.77944	0.22056	0.543	0.408
Mof_C 	C 	0.20471	0.79529	0.5684	-0.178
Mof_C 	C 	0.22056	0.77944	0.543	0.408
Mof_C 	C 	0.79529	0.29529	0.9316	-0.177
Mof_C 	C 	0.77944	0.27944	0.957	0.407
Mof_C 	C 	0.79529	0.79529	0.4316	-0.177
Mof_C 	C 	0.77944	0.77944	0.457	0.408
Mof_C 	C 	0.20471	0.70471	0.9316	-0.177
Mof_C 	C 	0.22056	0.72056	0.957	0.407
Mof_C 	C 	0.70471	0.9316	0.20471	-0.177
Mof_C 	C 	0.72056	0.957	0.22056	0.407
Mof_C 	C 	0.70471	0.4316	0.70471	-0.178
Mof_C 	C 	0.72056	0.457	0.72056	0.408
Mof_C 	C 	0.29529	0.9316	0.79529	-0.177
Mof_C 	C 	0.27944	0.957	0.77944	0.407
Mof_C 	C 	0.29529	0.5684	0.70471	-0.178
Mof_C 	C 	0.27944	0.543	0.72056	0.408
Mof_C 	C 	0.70471	0.0684	0.79529	-0.178
Mof_C 	C 	0.72056	0.043	0.77944	0.408
Mof_C 	C 	0.70471	0.5684	0.29529	-0.178
Mof_C 	C 	0.72056	0.543	0.27944	0.408
Mof_C 	C 	0.9316	0.79529	0.29529	-0.177
Mof_C 	C 	0.957	0.77944	0.27944	0.407
Mof_C 	C 	0.4316	0.79529	0.79529	-0.177
Mof_C 	C 	0.457	0.77944	0.77944	0.408
Mof_C 	C 	0.9316	0.20471	0.70471	-0.177
Mof_C 	C 	0.957	0.22056	0.72056	0.407
Mof_C 	C 	0.0684	0.79529	0.70471	-0.178
Mof_C 	C 	0.043	0.77944	0.72056	0.408
Mof_C 	C 	0.5684	0.79529	0.20471	-0.178
Mof_C 	C 	0.543	0.77944	0.22056	0.408
Mof_C 	C 	0.5684	0.20471	0.79529	-0.178
Mof_C 	C 	0.543	0.22056	0.77944	0.408
Mof_Cu	Cu	0.22831	0.22831	-0	0.902
Mof_Cu	Cu	0.22831	0.72831	0.5	0.904
Mof_Cu	Cu	0.72831	0.22831	0.5	0.904
Mof_Cu	Cu	0.72831	0.72831	-0	0.902
Mof_Cu	Cu	0.77169	0.77169	-0	0.903
Mof_Cu	Cu	0.77169	0.27169	0.5	0.904
Mof_Cu	Cu	0.27169	0.77169	0.5	0.904
Mof_Cu	Cu	0.27169	0.27169	-0	0.903
Mof_Cu	Cu	0.77169	0.22831	-0	0.903
Mof_Cu	Cu	0.77169	0.72831	0.5	0.904
Mof_Cu	Cu	0.27169	0.22831	0.5	0.904
Mof_Cu	Cu	0.27169	0.72831	-0	0.902
Mof_Cu	Cu	0.22831	0.77169	-0	0.903
Mof_Cu	Cu	0.22831	0.27169	0.5	0.904
Mof_Cu	Cu	0.72831	0.77169	0.5	0.904
Mof_Cu	Cu	0.72831	0.27169	-0	0.902
Mof_Cu	Cu	8.56025e-34	0.22831	0.22831	0.902
Mof_Cu	Cu	-1.2936e-32	0.72831	0.72831	0.902
Mof_Cu	Cu	0.5	0.22831	0.72831	0.904
Mof_Cu	Cu	0.5	0.72831	0.22831	0.904
Mof_Cu	Cu	-1.79956e-32	0.77169	0.77169	0.903
Mof_Cu	Cu	1.01867e-33	0.27169	0.27169	0.903
Mof_Cu	Cu	0.5	0.77169	0.27169	0.904
Mof_Cu	Cu	0.5	0.27169	0.77169	0.904
Mof_Cu	Cu	-9.58849e-33	0.77169	0.22831	0.903
Mof_Cu	Cu	2.73073e-33	0.27169	0.72831	0.902
Mof_Cu	Cu	0.5	0.77169	0.72831	0.904
Mof_Cu	Cu	0.5	0.27169	0.22831	0.904
Mof_Cu	Cu	-7.55114e-33	0.22831	0.77169	0.903
Mof_Cu	Cu	3.6298e-33	0.72831	0.27169	0.902
Mof_Cu	Cu	0.5	0.22831	0.27169	0.904
Mof_Cu	Cu	0.5	0.72831	0.77169	0.904
Mof_Cu	Cu	0.22831	0	0.22831	0.902
Mof_Cu	Cu	0.22831	0.5	0.72831	0.904
Mof_Cu	Cu	0.72831	0	0.72831	0.902
Mof_Cu	Cu	0.72831	0.5	0.22831	0.904
Mof_Cu	Cu	0.77169	0	0.77169	0.903
Mof_Cu	Cu	0.77169	0.5	0.27169	0.904
Mof_Cu	Cu	0.27169	-2.61113e-33	0.27169	0.903
Mof_Cu	Cu	0.27169	0.5	0.77169	0.904
Mof_Cu	Cu	0.22831	0	0.77169	0.903
Mof_Cu	Cu	0.22831	0.5	0.27169	0.904
Mof_Cu	Cu	0.72831	-2.61113e-33	0.27169	0.902
Mof_Cu	Cu	0.72831	0.5	0.77169	0.904
Mof_Cu	Cu	0.77169	0	0.22831	0.903
Mof_Cu	Cu	0.77169	0.5	0.72831	0.904
Mof_Cu	Cu	0.27169	0	0.72831	0.902
Mof_Cu	Cu	0.27169	0.5	0.22831	0.904
_end
