data_functionalizedCrystal
_audit_creation_method	'EQeq! by Chris Wilmer'
_symmetry_space_group_name_H-M	'P1'
_symmetry_Int_Tables_number	1
_symmetry_cell_setting	triclinic
loop_
_symmetry_equiv_pos_as_xyz
  x,y,z
_cell_length_a	7.1422
_cell_length_b	21.211
_cell_length_c	22.181
_cell_angle_alpha	62.412
_cell_angle_beta	81.392
_cell_angle_gamma	89.538
loop_
_atom_site_label
_atom_site_type_symbol
_atom_site_fract_x
_atom_site_fract_y
_atom_site_fract_z
_atom_site_charge
Mof_Cd	Cd	0.16505	0.6905	0.56925	0.458
Mof_Cd	Cd	0.66359	0.7466	0.56965	0.476
Mof_Cd	Cd	0.25874	0.90729	0.01583	0.412
Mof_Cd	Cd	0.83495	0.3095	0.43075	0.458
Mof_Cd	Cd	0.33641	0.2534	0.43035	0.477
Mof_Cd	Cd	0.74126	0.09271	0.98417	0.413
Mof_H 	H 	0.8936	0.9089	0.9111	0.049
Mof_H 	H 	0.1331	0.9156	0.8254	0.08
Mof_H 	H 	0.7384	0.8717	0.734	0.071
Mof_H 	H 	0.5023	0.8747	0.8198	0.04
Mof_H 	H 	0.999	0.8055	0.7157	0.064
Mof_H 	H 	0.486	0.8869	0.5846	0.063
Mof_H 	H 	0.2784	0.9718	0.7051	0.063
Mof_H 	H 	0.4199	0.076	0.6054	0.081
Mof_H 	H 	0.6677	0.1624	0.5607	0.037
Mof_H 	H 	0.0273	0.0191	0.5522	0.028
Mof_H 	H 	0.7784	0.9341	0.5941	0.084
Mof_H 	H 	0.4703	0.5656	0.4525	0.03
Mof_H 	H 	0.7159	0.5241	0.4038	0.084
Mof_H 	H 	0.0856	0.6596	0.4134	0.091
Mof_H 	H 	0.8378	0.7022	0.4603	0.042
Mof_H 	H 	0.0125	0.4608	0.4121	0.056
Mof_H 	H 	0.5066	0.5125	0.2832	0.054
Mof_H 	H 	0.2128	0.6661	0.305	0.061
Mof_H 	H 	0.366	0.7304	0.1902	0.09
Mof_H 	H 	0.7601	0.5884	0.2643	0.076
Mof_H 	H 	0.9985	0.673	0.195	0.032
Mof_H 	H 	0.6088	0.8174	0.1158	0.039
Mof_H 	H 	0.1064	0.0911	0.0889	0.049
Mof_H 	H 	0.8669	0.0844	0.1746	0.08
Mof_H 	H 	0.2616	0.1283	0.266	0.071
Mof_H 	H 	0.4977	0.1253	0.1802	0.04
Mof_H 	H 	0.001	0.1945	0.2843	0.064
Mof_H 	H 	0.514	0.1131	0.4154	0.063
Mof_H 	H 	0.7216	0.0282	0.2949	0.063
Mof_H 	H 	0.5801	0.924	0.3946	0.081
Mof_H 	H 	0.3323	0.8376	0.4393	0.037
Mof_H 	H 	0.9727	0.9809	0.4478	0.028
Mof_H 	H 	0.2216	0.0659	0.4059	0.084
Mof_H 	H 	0.5297	0.4344	0.5475	0.03
Mof_H 	H 	0.2841	0.4759	0.5962	0.084
Mof_H 	H 	0.9144	0.3404	0.5866	0.091
Mof_H 	H 	0.1622	0.2978	0.5397	0.042
Mof_H 	H 	0.9875	0.5392	0.5879	0.056
Mof_H 	H 	0.4934	0.4875	0.7168	0.054
Mof_H 	H 	0.7872	0.3339	0.695	0.061
Mof_H 	H 	0.634	0.2696	0.8098	0.09
Mof_H 	H 	0.2399	0.4116	0.7357	0.076
Mof_H 	H 	0.0015	0.327	0.805	0.032
Mof_H 	H 	0.3912	0.1826	0.8842	0.039
Mof_C 	C 	0.5264	0.8976	0.9236	0.285
Mof_C 	C 	0.6791	0.8975	0.8682	-0.079
Mof_C 	C 	0.8639	0.9049	0.8735	0.023
Mof_C 	C 	0.0073	0.9064	0.8238	-0.096
Mof_C 	C 	0.961	0.8939	0.7706	0.046
Mof_C 	C 	0.7714	0.8812	0.7681	-0.096
Mof_C 	C 	0.6298	0.8833	0.8199	0.022
Mof_C 	C 	0.1146	0.889	0.7189	0.021
Mof_C 	C 	0.1034	0.8386	0.697	-0.047
Mof_C 	C 	0.2433	0.8351	0.6476	-0.053
Mof_C 	C 	0.3934	0.8872	0.6187	-0.045
Mof_C 	C 	0.4103	0.9392	0.6386	0.011
Mof_C 	C 	0.2683	0.9379	0.6899	-0.083
Mof_C 	C 	0.5676	0.995	0.6054	0.06
Mof_C 	C 	0.5413	0.0643	0.5941	-0.114
Mof_C 	C 	0.6894	0.1167	0.5668	0.049
Mof_C 	C 	0.8689	0.1002	0.5486	-0.116
Mof_C 	C 	0.9043	0.0308	0.5614	0.049
Mof_C 	C 	0.7553	0.9798	0.5877	-0.12
Mof_C 	C 	0.025	0.1586	0.5175	0.349
Mof_C 	C 	0.2227	0.781	0.625	0.314
Mof_C 	C 	0.4714	0.6672	0.4902	0.323
Mof_C 	C 	0.628	0.6383	0.4603	-0.109
Mof_C 	C 	0.5936	0.5851	0.4438	0.049
Mof_C 	C 	0.7403	0.5604	0.4145	-0.123
Mof_C 	C 	0.9278	0.5902	0.4006	0.069
Mof_C 	C 	0.9619	0.6416	0.4198	-0.121
Mof_C 	C 	0.8139	0.6666	0.4486	0.044
Mof_C 	C 	0.0877	0.5666	0.366	0.001
Mof_C 	C 	0.1064	0.4948	0.3801	-0.027
Mof_C 	C 	0.2568	0.4716	0.349	-0.078
Mof_C 	C 	0.3995	0.5255	0.3031	-0.027
Mof_C 	C 	0.3862	0.598	0.2865	0.003
Mof_C 	C 	0.2262	0.6183	0.3172	-0.07
Mof_C 	C 	0.2771	0.3984	0.3679	0.333
Mof_C 	C 	0.5381	0.652	0.2364	0.064
Mof_C 	C 	0.4923	0.7195	0.1909	-0.115
Mof_C 	C 	0.731	0.6344	0.2355	-0.113
Mof_C 	C 	0.8728	0.6844	0.1929	0.04
Mof_C 	C 	0.8312	0.7546	0.1449	-0.102
Mof_C 	C 	0.6388	0.7718	0.1454	0.041
Mof_C 	C 	0.9861	0.8059	0.0969	0.318
Mof_C 	C 	0.4736	0.1024	0.0764	0.285
Mof_C 	C 	0.3209	0.1025	0.1318	-0.079
Mof_C 	C 	0.1361	0.0951	0.1265	0.023
Mof_C 	C 	0.9927	0.0936	0.1762	-0.096
Mof_C 	C 	0.039	0.1061	0.2294	0.046
Mof_C 	C 	0.2286	0.1188	0.2319	-0.096
Mof_C 	C 	0.3702	0.1167	0.1801	0.022
Mof_C 	C 	0.8854	0.111	0.2811	0.021
Mof_C 	C 	0.8966	0.1614	0.303	-0.047
Mof_C 	C 	0.7567	0.1649	0.3524	-0.053
Mof_C 	C 	0.6066	0.1128	0.3813	-0.045
Mof_C 	C 	0.5897	0.0608	0.3614	0.011
Mof_C 	C 	0.7317	0.0621	0.3101	-0.083
Mof_C 	C 	0.4324	0.005	0.3946	0.06
Mof_C 	C 	0.4587	0.9357	0.4059	-0.114
Mof_C 	C 	0.3106	0.8833	0.4332	0.049
Mof_C 	C 	0.1311	0.8998	0.4514	-0.116
Mof_C 	C 	0.0957	0.9692	0.4386	0.049
Mof_C 	C 	0.2447	0.0202	0.4123	-0.12
Mof_C 	C 	0.975	0.8414	0.4825	0.349
Mof_C 	C 	0.7773	0.219	0.375	0.314
Mof_C 	C 	0.5286	0.3328	0.5098	0.323
Mof_C 	C 	0.372	0.3617	0.5397	-0.109
Mof_C 	C 	0.4064	0.4149	0.5562	0.049
Mof_C 	C 	0.2597	0.4396	0.5855	-0.123
Mof_C 	C 	0.0722	0.4098	0.5994	0.069
Mof_C 	C 	0.0381	0.3584	0.5802	-0.121
Mof_C 	C 	0.1861	0.3334	0.5514	0.044
Mof_C 	C 	0.9123	0.4334	0.634	0.001
Mof_C 	C 	0.8936	0.5052	0.6199	-0.027
Mof_C 	C 	0.7432	0.5284	0.651	-0.078
Mof_C 	C 	0.6005	0.4745	0.6969	-0.027
Mof_C 	C 	0.6138	0.402	0.7135	0.003
Mof_C 	C 	0.7738	0.3817	0.6828	-0.07
Mof_C 	C 	0.7229	0.6016	0.6321	0.333
Mof_C 	C 	0.4619	0.348	0.7636	0.064
Mof_C 	C 	0.5077	0.2805	0.8091	-0.115
Mof_C 	C 	0.269	0.3656	0.7645	-0.113
Mof_C 	C 	0.1272	0.3156	0.8071	0.04
Mof_C 	C 	0.1688	0.2454	0.8551	-0.102
Mof_C 	C 	0.3612	0.2282	0.8546	0.041
Mof_C 	C 	0.0139	0.1941	0.9031	0.318
Mof_O 	O 	0.5672	0.9192	0.9662	-0.268
Mof_O 	O 	0.3579	0.8813	0.9242	-0.268
Mof_O 	O 	0.0672	0.7456	0.6399	-0.268
Mof_O 	O 	0.3552	0.7716	0.5885	-0.305
Mof_O 	O 	0.0039	0.2125	0.5227	-0.3
Mof_O 	O 	0.1691	0.1544	0.4798	-0.304
Mof_O 	O 	0.3064	0.6365	0.5067	-0.286
Mof_O 	O 	0.5077	0.7177	0.5018	-0.291
Mof_O 	O 	0.1364	0.3579	0.3853	-0.311
Mof_O 	O 	0.4387	0.3737	0.3706	-0.279
Mof_O 	O 	0.1537	0.7973	0.1047	-0.287
Mof_O 	O 	0.947	0.8663	0.0512	-0.275
Mof_O 	O 	0.4328	0.0808	0.0338	-0.268
Mof_O 	O 	0.6421	0.1187	0.0758	-0.268
Mof_O 	O 	0.9328	0.2544	0.3601	-0.268
Mof_O 	O 	0.6448	0.2284	0.4115	-0.305
Mof_O 	O 	0.9961	0.7875	0.4773	-0.3
Mof_O 	O 	0.8309	0.8456	0.5202	-0.304
Mof_O 	O 	0.6936	0.3635	0.4933	-0.286
Mof_O 	O 	0.4923	0.2823	0.4982	-0.291
Mof_O 	O 	0.8636	0.6421	0.6147	-0.311
Mof_O 	O 	0.5613	0.6263	0.6294	-0.279
Mof_O 	O 	0.8463	0.2027	0.8953	-0.287
Mof_O 	O 	0.053	0.1337	0.9488	-0.275
_end
