data_functionalizedCrystal
_audit_creation_method	'EQeq! by Chris Wilmer'
_symmetry_space_group_name_H-M	'P1'
_symmetry_Int_Tables_number	1
_symmetry_cell_setting	triclinic
loop_
_symmetry_equiv_pos_as_xyz
  x,y,z
_cell_length_a	18.1741
_cell_length_b	11.3088
_cell_length_c	18.6005
_cell_angle_alpha	90
_cell_angle_beta	108.166
_cell_angle_gamma	90
loop_
_atom_site_label
_atom_site_type_symbol
_atom_site_fract_x
_atom_site_fract_y
_atom_site_fract_z
_atom_site_charge
Mof_Tb	Tb	0.50125	0.06493	0.3978	2.216
Mof_O 	O 	0.4219	0.0699	0.5148	-0.6
Mof_O 	O 	0.58889	0.0712	0.22184	-0.565
Mof_O 	O 	0.58744	0.0208	0.33671	-0.596
Mof_O 	O 	0.92632	0.3262	0.49885	-0.593
Mof_O 	O 	0.4042	0.1872	0.41691	-0.532
Mof_O 	O 	0.9237	0.4005	0.387	-0.563
Mof_C 	C 	0.6182	0.0704	0.2919	0.486
Mof_C 	C 	0.7944	0.1979	0.4348	0.053
Mof_H 	H 	0.8159	0.2015	0.4871	0.003
Mof_C 	C 	0.3162	0.2046	0.4868	-0.156
Mof_C 	C 	0.2755	0.2986	0.4431	0.129
Mof_C 	C 	0.2101	0.3415	0.4565	-0.07
Mof_H 	H 	0.1829	0.4031	0.4267	0.056
Mof_C 	C 	0.7261	0.1381	0.4046	-0.061
Mof_H 	H 	0.7009	0.1041	0.4359	0.028
Mof_C 	C 	0.8993	0.3315	0.4277	0.536
Mof_C 	C 	0.695	0.129	0.3259	-0.11
Mof_C 	C 	0.7335	0.1773	0.2804	-0.104
Mof_H 	H 	0.7139	0.1672	0.2283	0.066
Mof_C 	C 	0.3852	0.1511	0.4727	0.478
Mof_N 	N 	0.8356	0.291	0.2606	-0.291
Mof_H 	H 	0.8775	0.2531	0.2638	0.136
Mof_H 	H 	0.8042	0.2849	0.2153	0.123
Mof_C 	C 	0.8324	0.253	0.3903	-0.221
Mof_C 	C 	0.8025	0.2422	0.3114	0.158
Mof_N 	N 	0.2983	0.3558	0.3884	-0.283
Mof_H 	H 	0.2685	0.3355	0.3438	0.126
Mof_H 	H 	0.2951	0.4318	0.3932	0.135
Mof_Tb	Tb	0.00125	0.56493	0.3978	2.23
Mof_O 	O 	0.9219	0.5699	0.5148	-0.601
Mof_O 	O 	0.08889	0.5712	0.22184	-0.562
Mof_O 	O 	0.08744	0.5208	0.33671	-0.594
Mof_O 	O 	0.42632	0.8262	0.49885	-0.591
Mof_O 	O 	0.9042	0.6872	0.41691	-0.532
Mof_O 	O 	0.4237	0.9005	0.387	-0.56
Mof_C 	C 	0.1182	0.5704	0.2919	0.488
Mof_C 	C 	0.2944	0.6979	0.4348	0.054
Mof_H 	H 	0.3159	0.7015	0.4871	0.004
Mof_C 	C 	0.8162	0.7046	0.4868	-0.156
Mof_C 	C 	0.7755	0.7986	0.4431	0.13
Mof_C 	C 	0.7101	0.8415	0.4565	-0.071
Mof_H 	H 	0.6829	0.9031	0.4267	0.057
Mof_C 	C 	0.2261	0.6381	0.4046	-0.061
Mof_H 	H 	0.2009	0.6041	0.4359	0.028
Mof_C 	C 	0.3993	0.8315	0.4277	0.535
Mof_C 	C 	0.195	0.629	0.3259	-0.11
Mof_C 	C 	0.2335	0.6773	0.2804	-0.104
Mof_H 	H 	0.2139	0.6672	0.2283	0.067
Mof_C 	C 	0.8852	0.6511	0.4727	0.479
Mof_N 	N 	0.3356	0.791	0.2606	-0.292
Mof_H 	H 	0.3775	0.7531	0.2638	0.137
Mof_H 	H 	0.3042	0.7849	0.2153	0.124
Mof_C 	C 	0.3324	0.753	0.3903	-0.221
Mof_C 	C 	0.3025	0.7422	0.3114	0.159
Mof_N 	N 	0.7983	0.8558	0.3884	-0.283
Mof_H 	H 	0.7685	0.8355	0.3438	0.126
Mof_H 	H 	0.7951	0.9318	0.3932	0.136
Mof_Tb	Tb	0.49875	0.06493	0.1022	2.204
Mof_O 	O 	0.5781	0.0699	0.9852	-0.592
Mof_O 	O 	0.41111	0.0712	0.27816	-0.564
Mof_O 	O 	0.41256	0.0208	0.16329	-0.594
Mof_O 	O 	0.07368	0.3262	0.00115	-0.588
Mof_O 	O 	0.5958	0.1872	0.08309	-0.529
Mof_O 	O 	0.0763	0.4005	0.113	-0.557
Mof_C 	C 	0.3818	0.0704	0.2081	0.487
Mof_C 	C 	0.2056	0.1979	0.0652	0.054
Mof_H 	H 	0.1841	0.2015	0.0129	0.004
Mof_C 	C 	0.6838	0.2046	0.0132	-0.166
Mof_C 	C 	0.7245	0.2986	0.0569	0.135
Mof_C 	C 	0.7899	0.3415	0.0435	-0.084
Mof_H 	H 	0.8171	0.4031	0.0733	0.06
Mof_C 	C 	0.2739	0.1381	0.0954	-0.061
Mof_H 	H 	0.2991	0.1041	0.0641	0.027
Mof_C 	C 	0.1007	0.3315	0.0723	0.535
Mof_C 	C 	0.305	0.129	0.1741	-0.111
Mof_C 	C 	0.2665	0.1773	0.2196	-0.104
Mof_H 	H 	0.2861	0.1672	0.2717	0.066
Mof_C 	C 	0.6148	0.1511	0.0273	0.472
Mof_N 	N 	0.1644	0.291	0.2394	-0.292
Mof_H 	H 	0.1225	0.2531	0.2362	0.138
Mof_H 	H 	0.1958	0.2849	0.2847	0.124
Mof_C 	C 	0.1676	0.253	0.1097	-0.22
Mof_C 	C 	0.1975	0.2422	0.1886	0.158
Mof_N 	N 	0.7017	0.3558	0.1116	-0.284
Mof_H 	H 	0.7315	0.3355	0.1562	0.126
Mof_H 	H 	0.7049	0.4318	0.1068	0.135
Mof_Tb	Tb	0.99875	0.56493	0.1022	2.213
Mof_O 	O 	0.0781	0.5699	0.9852	-0.605
Mof_O 	O 	0.91111	0.5712	0.27816	-0.566
Mof_O 	O 	0.91256	0.5208	0.16329	-0.594
Mof_O 	O 	0.57368	0.8262	0.00115	-0.588
Mof_O 	O 	0.0958	0.6872	0.08309	-0.529
Mof_O 	O 	0.5763	0.9005	0.113	-0.557
Mof_C 	C 	0.8818	0.5704	0.2081	0.489
Mof_C 	C 	0.7056	0.6979	0.0652	0.053
Mof_H 	H 	0.6841	0.7015	0.0129	0.004
Mof_C 	C 	0.1838	0.7046	0.0132	-0.147
Mof_C 	C 	0.2245	0.7986	0.0569	0.124
Mof_C 	C 	0.2899	0.8415	0.0435	-0.059
Mof_H 	H 	0.3171	0.9031	0.0733	0.054
Mof_C 	C 	0.7739	0.6381	0.0954	-0.06
Mof_H 	H 	0.7991	0.6041	0.0641	0.027
Mof_C 	C 	0.6007	0.8315	0.0723	0.533
Mof_C 	C 	0.805	0.629	0.1741	-0.111
Mof_C 	C 	0.7665	0.6773	0.2196	-0.103
Mof_H 	H 	0.7861	0.6672	0.2717	0.066
Mof_C 	C 	0.1148	0.6511	0.0273	0.482
Mof_N 	N 	0.6644	0.791	0.2394	-0.291
Mof_H 	H 	0.6225	0.7531	0.2362	0.137
Mof_H 	H 	0.6958	0.7849	0.2847	0.124
Mof_C 	C 	0.6676	0.753	0.1097	-0.219
Mof_C 	C 	0.6975	0.7422	0.1886	0.158
Mof_N 	N 	0.2017	0.8558	0.1116	-0.282
Mof_H 	H 	0.2315	0.8355	0.1562	0.126
Mof_H 	H 	0.2049	0.9318	0.1068	0.137
Mof_Tb	Tb	0.49875	0.93507	0.6022	2.217
Mof_O 	O 	0.5781	0.9301	0.4852	-0.599
Mof_O 	O 	0.41111	0.9288	0.77816	-0.564
Mof_O 	O 	0.41256	0.9792	0.66329	-0.595
Mof_O 	O 	0.07368	0.6738	0.50115	-0.592
Mof_O 	O 	0.5958	0.8128	0.58309	-0.531
Mof_O 	O 	0.0763	0.5995	0.613	-0.562
Mof_C 	C 	0.3818	0.9296	0.7081	0.487
Mof_C 	C 	0.2056	0.8021	0.5652	0.054
Mof_H 	H 	0.1841	0.7985	0.5129	0.004
Mof_C 	C 	0.6838	0.7954	0.5132	-0.156
Mof_C 	C 	0.7245	0.7014	0.5569	0.129
Mof_C 	C 	0.7899	0.6585	0.5435	-0.07
Mof_H 	H 	0.8171	0.5969	0.5733	0.056
Mof_C 	C 	0.2739	0.8619	0.5954	-0.061
Mof_H 	H 	0.2991	0.8959	0.5641	0.028
Mof_C 	C 	0.1007	0.6685	0.5723	0.536
Mof_C 	C 	0.305	0.871	0.6741	-0.11
Mof_C 	C 	0.2665	0.8227	0.7196	-0.104
Mof_H 	H 	0.2861	0.8328	0.7717	0.066
Mof_C 	C 	0.6148	0.8489	0.5273	0.478
Mof_N 	N 	0.1644	0.709	0.7394	-0.291
Mof_H 	H 	0.1225	0.7469	0.7362	0.136
Mof_H 	H 	0.1958	0.7151	0.7847	0.123
Mof_C 	C 	0.1676	0.747	0.6097	-0.221
Mof_C 	C 	0.1975	0.7578	0.6886	0.158
Mof_N 	N 	0.7017	0.6442	0.6116	-0.283
Mof_H 	H 	0.7315	0.6645	0.6562	0.126
Mof_H 	H 	0.7049	0.5682	0.6068	0.135
Mof_Tb	Tb	0.99875	0.43507	0.6022	2.23
Mof_O 	O 	0.0781	0.4301	0.4852	-0.601
Mof_O 	O 	0.91111	0.4288	0.77816	-0.562
Mof_O 	O 	0.91256	0.4792	0.66329	-0.594
Mof_O 	O 	0.57368	0.1738	0.50115	-0.591
Mof_O 	O 	0.0958	0.3128	0.58309	-0.532
Mof_O 	O 	0.5763	0.0995	0.613	-0.56
Mof_C 	C 	0.8818	0.4296	0.7081	0.488
Mof_C 	C 	0.7056	0.3021	0.5652	0.054
Mof_H 	H 	0.6841	0.2985	0.5129	0.004
Mof_C 	C 	0.1838	0.2954	0.5132	-0.156
Mof_C 	C 	0.2245	0.2014	0.5569	0.13
Mof_C 	C 	0.2899	0.1585	0.5435	-0.071
Mof_H 	H 	0.3171	0.0969	0.5733	0.057
Mof_C 	C 	0.7739	0.3619	0.5954	-0.061
Mof_H 	H 	0.7991	0.3959	0.5641	0.028
Mof_C 	C 	0.6007	0.1685	0.5723	0.535
Mof_C 	C 	0.805	0.371	0.6741	-0.11
Mof_C 	C 	0.7665	0.3227	0.7196	-0.104
Mof_H 	H 	0.7861	0.3328	0.7717	0.067
Mof_C 	C 	0.1148	0.3489	0.5273	0.479
Mof_N 	N 	0.6644	0.209	0.7394	-0.292
Mof_H 	H 	0.6225	0.2469	0.7362	0.137
Mof_H 	H 	0.6958	0.2151	0.7847	0.124
Mof_C 	C 	0.6676	0.247	0.6097	-0.221
Mof_C 	C 	0.6975	0.2578	0.6886	0.159
Mof_N 	N 	0.2017	0.1442	0.6116	-0.283
Mof_H 	H 	0.2315	0.1645	0.6562	0.126
Mof_H 	H 	0.2049	0.0682	0.6068	0.136
Mof_Tb	Tb	0.50125	0.93507	0.8978	2.204
Mof_O 	O 	0.4219	0.9301	0.0148	-0.592
Mof_O 	O 	0.58889	0.9288	0.72184	-0.564
Mof_O 	O 	0.58744	0.9792	0.83671	-0.594
Mof_O 	O 	0.92632	0.6738	0.99885	-0.588
Mof_O 	O 	0.4042	0.8128	0.91691	-0.529
Mof_O 	O 	0.9237	0.5995	0.887	-0.557
Mof_C 	C 	0.6182	0.9296	0.7919	0.487
Mof_C 	C 	0.7944	0.8021	0.9348	0.054
Mof_H 	H 	0.8159	0.7985	0.9871	0.004
Mof_C 	C 	0.3162	0.7954	0.9868	-0.166
Mof_C 	C 	0.2755	0.7014	0.9431	0.135
Mof_C 	C 	0.2101	0.6585	0.9565	-0.084
Mof_H 	H 	0.1829	0.5969	0.9267	0.06
Mof_C 	C 	0.7261	0.8619	0.9046	-0.061
Mof_H 	H 	0.7009	0.8959	0.9359	0.027
Mof_C 	C 	0.8993	0.6685	0.9277	0.535
Mof_C 	C 	0.695	0.871	0.8259	-0.111
Mof_C 	C 	0.7335	0.8227	0.7804	-0.104
Mof_H 	H 	0.7139	0.8328	0.7283	0.066
Mof_C 	C 	0.3852	0.8489	0.9727	0.472
Mof_N 	N 	0.8356	0.709	0.7606	-0.292
Mof_H 	H 	0.8775	0.7469	0.7638	0.138
Mof_H 	H 	0.8042	0.7151	0.7153	0.124
Mof_C 	C 	0.8324	0.747	0.8903	-0.22
Mof_C 	C 	0.8025	0.7578	0.8114	0.158
Mof_N 	N 	0.2983	0.6442	0.8884	-0.284
Mof_H 	H 	0.2685	0.6645	0.8438	0.126
Mof_H 	H 	0.2951	0.5682	0.8932	0.135
Mof_Tb	Tb	0.00125	0.43507	0.8978	2.213
Mof_O 	O 	0.9219	0.4301	0.0148	-0.605
Mof_O 	O 	0.08889	0.4288	0.72184	-0.566
Mof_O 	O 	0.08744	0.4792	0.83671	-0.594
Mof_O 	O 	0.42632	0.1738	0.99885	-0.588
Mof_O 	O 	0.9042	0.3128	0.91691	-0.529
Mof_O 	O 	0.4237	0.0995	0.887	-0.557
Mof_C 	C 	0.1182	0.4296	0.7919	0.489
Mof_C 	C 	0.2944	0.3021	0.9348	0.053
Mof_H 	H 	0.3159	0.2985	0.9871	0.004
Mof_C 	C 	0.8162	0.2954	0.9868	-0.147
Mof_C 	C 	0.7755	0.2014	0.9431	0.124
Mof_C 	C 	0.7101	0.1585	0.9565	-0.059
Mof_H 	H 	0.6829	0.0969	0.9267	0.054
Mof_C 	C 	0.2261	0.3619	0.9046	-0.06
Mof_H 	H 	0.2009	0.3959	0.9359	0.027
Mof_C 	C 	0.3993	0.1685	0.9277	0.533
Mof_C 	C 	0.195	0.371	0.8259	-0.111
Mof_C 	C 	0.2335	0.3227	0.7804	-0.103
Mof_H 	H 	0.2139	0.3328	0.7283	0.066
Mof_C 	C 	0.8852	0.3489	0.9727	0.482
Mof_N 	N 	0.3356	0.209	0.7606	-0.291
Mof_H 	H 	0.3775	0.2469	0.7638	0.137
Mof_H 	H 	0.3042	0.2151	0.7153	0.124
Mof_C 	C 	0.3324	0.247	0.8903	-0.219
Mof_C 	C 	0.3025	0.2578	0.8114	0.158
Mof_N 	N 	0.7983	0.1442	0.8884	-0.282
Mof_H 	H 	0.7685	0.1645	0.8438	0.126
Mof_H 	H 	0.7951	0.0682	0.8932	0.137
_end
