data_functionalizedCrystal
_audit_creation_method	'EQeq! by Chris Wilmer'
_symmetry_space_group_name_H-M	'P1'
_symmetry_Int_Tables_number	1
_symmetry_cell_setting	triclinic
loop_
_symmetry_equiv_pos_as_xyz
  x,y,z
_cell_length_a	10.3627
_cell_length_b	10.3627
_cell_length_c	14.332
_cell_angle_alpha	90
_cell_angle_beta	90
_cell_angle_gamma	90
loop_
_atom_site_label
_atom_site_type_symbol
_atom_site_fract_x
_atom_site_fract_y
_atom_site_fract_z
_atom_site_charge
Mof_Eu	Eu	0.14179	0.85821	0.625	2.583
Mof_Eu	Eu	0.85821	0.14179	0.125	2.536
Mof_Eu	Eu	0.14179	0.14179	0.875	2.525
Mof_Eu	Eu	0.85821	0.85821	0.375	2.666
Mof_H 	H 	0.4453	0.9403	0.3822	-0.082
Mof_H 	H 	0.5547	0.0597	0.8822	-0.062
Mof_H 	H 	0.0597	0.4453	0.6322	-0.076
Mof_H 	H 	0.9403	0.5547	0.1322	-0.072
Mof_H 	H 	0.5547	0.9403	0.6178	-0.072
Mof_H 	H 	0.4453	0.0597	0.1178	-0.083
Mof_H 	H 	0.9403	0.4453	0.3678	-0.083
Mof_H 	H 	0.0597	0.5547	0.8678	-0.073
Mof_H 	H 	0.1118	0	0.25	-0.131
Mof_H 	H 	0.8882	-8.20102e-33	0.75	-0.093
Mof_H 	H 	2.59278e-33	0.1118	0.5	-0.133
Mof_H 	H 	-0	0.8882	-0	-0.092
Mof_C 	C 	0.1931	0.9216	0.4147	0.656
Mof_C 	C 	0.2661	0.9591	0.3282	-0.381
Mof_C 	C 	0.4007	0.963	0.3284	0.363
Mof_C 	C 	0.8069	0.0784	0.9147	0.63
Mof_C 	C 	0.7339	0.0409	0.8282	-0.372
Mof_C 	C 	0.5993	0.037	0.8284	0.296
Mof_C 	C 	0.0784	0.1931	0.6647	0.65
Mof_C 	C 	0.0409	0.2661	0.5782	-0.413
Mof_C 	C 	0.037	0.4007	0.5784	0.319
Mof_C 	C 	0.9216	0.8069	0.1647	0.634
Mof_C 	C 	0.9591	0.7339	0.0782	-0.344
Mof_C 	C 	0.963	0.5993	0.0784	0.333
Mof_C 	C 	0.8069	0.9216	0.5853	0.639
Mof_C 	C 	0.7339	0.9591	0.6718	-0.344
Mof_C 	C 	0.5993	0.963	0.6716	0.341
Mof_C 	C 	0.1931	0.0784	0.0853	0.65
Mof_C 	C 	0.2661	0.0409	0.1718	-0.415
Mof_C 	C 	0.4007	0.037	0.1716	0.32
Mof_C 	C 	0.9216	0.1931	0.3353	0.654
Mof_C 	C 	0.9591	0.2661	0.4218	-0.379
Mof_C 	C 	0.963	0.4007	0.4216	0.362
Mof_C 	C 	0.0784	0.8069	0.8353	0.629
Mof_C 	C 	0.0409	0.7339	0.9218	-0.355
Mof_C 	C 	0.037	0.5993	0.9216	0.32
Mof_C 	C 	0.4687	0	0.25	-0.459
Mof_C 	C 	0.6151	0	0.25	0.694
Mof_C 	C 	0.2015	0	0.25	0.299
Mof_C 	C 	0.5313	-8.20102e-33	0.75	-0.431
Mof_C 	C 	0.3849	-8.20102e-33	0.75	0.681
Mof_C 	C 	0.7985	-8.20102e-33	0.75	0.27
Mof_C 	C 	-5.60824e-33	0.4687	0.5	-0.456
Mof_C 	C 	2.59278e-33	0.6151	0.5	0.696
Mof_C 	C 	-5.60824e-33	0.2015	0.5	0.298
Mof_C 	C 	-4.10051e-33	0.5313	-0	-0.45
Mof_C 	C 	-0	0.3849	-0	0.656
Mof_C 	C 	-8.20102e-33	0.7985	-0	0.24
Mof_O 	O 	0.2534	0.9178	0.4893	-0.646
Mof_O 	O 	0.078	0.9006	0.4086	-0.706
Mof_O 	O 	0.6684	0.9345	0.3089	-0.681
Mof_O 	O 	0.7466	0.0822	0.9893	-0.623
Mof_O 	O 	0.922	0.0994	0.9086	-0.648
Mof_O 	O 	0.3316	0.0655	0.8089	-0.693
Mof_O 	O 	0.0822	0.2534	0.7393	-0.654
Mof_O 	O 	0.0994	0.078	0.6586	-0.718
Mof_O 	O 	0.0655	0.6684	0.5589	-0.711
Mof_O 	O 	0.9178	0.7466	0.2393	-0.643
Mof_O 	O 	0.9006	0.922	0.1586	-0.647
Mof_O 	O 	0.9345	0.3316	0.0589	-0.665
Mof_O 	O 	0.7466	0.9178	0.5107	-0.643
Mof_O 	O 	0.922	0.9006	0.5914	-0.648
Mof_O 	O 	0.3316	0.9345	0.6911	-0.664
Mof_O 	O 	0.2534	0.0822	0.0107	-0.669
Mof_O 	O 	0.078	0.0994	0.0914	-0.717
Mof_O 	O 	0.6684	0.0655	0.1911	-0.71
Mof_O 	O 	0.9178	0.2534	0.2607	-0.642
Mof_O 	O 	0.9006	0.078	0.3414	-0.705
Mof_O 	O 	0.9345	0.6684	0.4411	-0.68
Mof_O 	O 	0.0822	0.7466	0.7607	-0.647
Mof_O 	O 	0.0994	0.922	0.8414	-0.657
Mof_O 	O 	0.0655	0.3316	0.9411	-0.672
_end
