data_functionalizedCrystal
_audit_creation_method	'EQeq! by Chris Wilmer'
_symmetry_space_group_name_H-M	'P1'
_symmetry_Int_Tables_number	1
_symmetry_cell_setting	triclinic
loop_
_symmetry_equiv_pos_as_xyz
  x,y,z
_cell_length_a	26.2736
_cell_length_b	26.2736
_cell_length_c	6.7213
_cell_angle_alpha	90
_cell_angle_beta	90
_cell_angle_gamma	120
loop_
_atom_site_label
_atom_site_type_symbol
_atom_site_fract_x
_atom_site_fract_y
_atom_site_fract_z
_atom_site_charge
Mof_C 	C 	0.4218	0.4083	0.2533	0.426
Mof_C 	C 	0.4611	0.4528	0.1233	-0.174
Mof_C 	C 	0.5573	0.5422	0.0698	0.216
Mof_C 	C 	0.5183	0.4968	0.1958	-0.084
Mof_H 	H 	0.5291	0.4955	0.3329	0.079
Mof_Fe	Fe	0.61356	0.64838	0.3442	0.875
Mof_O 	O 	0.4391	0.4046	0.4259	-0.383
Mof_O 	O 	0.37463	0.366	0.1858	-0.427
Mof_O 	O 	0.61027	0.5867	0.1447	-0.417
Mof_O 	O 	0.5429	0.6578	0.197	-0.241
Mof_H 	H 	0.5633	0.636	0.192	0.014
Mof_C 	C 	0.4851	0.6149	0.222	-0.028
Mof_H 	H 	0.46	0.625	0.129	0.05
Mof_H 	H 	0.4811	0.5745	0.181	0.046
Mof_H 	H 	0.474	0.614	0.372	0.048
Mof_C 	C 	0.08847	0.74163	0.58663	0.427
Mof_C 	C 	0.12777	0.78613	0.45663	-0.174
Mof_C 	C 	0.22397	0.87553	0.40313	0.216
Mof_C 	C 	0.18497	0.83013	0.52913	-0.084
Mof_H 	H 	0.19577	0.82883	0.66623	0.079
Mof_Fe	Fe	0.28023	0.98171	0.67753	0.875
Mof_O 	O 	0.10577	0.73793	0.75923	-0.383
Mof_O 	O 	0.0413	0.69933	0.51913	-0.427
Mof_O 	O 	0.27694	0.92003	0.47803	-0.417
Mof_O 	O 	0.20957	0.99113	0.53033	-0.241
Mof_H 	H 	0.22997	0.96933	0.52533	0.014
Mof_C 	C 	0.15177	0.94823	0.55533	-0.028
Mof_H 	H 	0.12667	0.95833	0.46233	0.05
Mof_H 	H 	0.14777	0.90783	0.51433	0.045
Mof_H 	H 	0.14067	0.94733	0.70533	0.048
Mof_C 	C 	0.75513	0.07497	0.91997	0.427
Mof_C 	C 	0.79443	0.11947	0.78997	-0.174
Mof_C 	C 	0.89063	0.20887	0.73647	0.216
Mof_C 	C 	0.85163	0.16347	0.86247	-0.083
Mof_H 	H 	0.86243	0.16217	0.99957	0.079
Mof_Fe	Fe	0.94689	0.31505	0.01087	0.873
Mof_O 	O 	0.77243	0.07127	0.09257	-0.383
Mof_O 	O 	0.70796	0.03267	0.85247	-0.427
Mof_O 	O 	0.9436	0.25337	0.81137	-0.417
Mof_O 	O 	0.87623	0.32447	0.86367	-0.242
Mof_H 	H 	0.89663	0.30267	0.85867	0.015
Mof_C 	C 	0.81843	0.28157	0.88867	-0.024
Mof_H 	H 	0.79333	0.29167	0.79567	0.049
Mof_H 	H 	0.81443	0.24117	0.84767	0.045
Mof_H 	H 	0.80733	0.28067	0.03867	0.046
Mof_C 	C 	0.5917	0.0135	0.2533	0.427
Mof_C 	C 	0.5472	0.0083	0.1233	-0.173
Mof_C 	C 	0.4578	0.0151	0.0698	0.215
Mof_C 	C 	0.5032	0.0215	0.1958	-0.084
Mof_H 	H 	0.5045	0.0336	0.3329	0.079
Mof_Fe	Fe	0.35162	0.96518	0.3442	0.875
Mof_O 	O 	0.5954	0.0345	0.4259	-0.383
Mof_O 	O 	0.634	0.00863	0.1858	-0.427
Mof_O 	O 	0.4133	0.02357	0.1447	-0.417
Mof_O 	O 	0.3422	0.8851	0.197	-0.241
Mof_H 	H 	0.364	0.9273	0.192	0.014
Mof_C 	C 	0.3851	0.8702	0.222	-0.028
Mof_H 	H 	0.375	0.835	0.129	0.051
Mof_H 	H 	0.4255	0.9066	0.181	0.046
Mof_H 	H 	0.386	0.86	0.372	0.048
Mof_C 	C 	0.25837	0.34683	0.58663	0.427
Mof_C 	C 	0.21387	0.34163	0.45663	-0.174
Mof_C 	C 	0.12447	0.34843	0.40313	0.216
Mof_C 	C 	0.16987	0.35483	0.52913	-0.084
Mof_H 	H 	0.17117	0.36693	0.66623	0.079
Mof_Fe	Fe	0.01829	0.29851	0.67753	0.875
Mof_O 	O 	0.26207	0.36783	0.75923	-0.383
Mof_O 	O 	0.30067	0.34196	0.51913	-0.428
Mof_O 	O 	0.07997	0.3569	0.47803	-0.417
Mof_O 	O 	0.00887	0.21843	0.53033	-0.241
Mof_H 	H 	0.03067	0.26063	0.52533	0.014
Mof_C 	C 	0.05177	0.20353	0.55533	-0.028
Mof_H 	H 	0.04167	0.16833	0.46233	0.05
Mof_H 	H 	0.09217	0.23993	0.51433	0.045
Mof_H 	H 	0.05267	0.19333	0.70533	0.048
Mof_C 	C 	0.92503	0.68017	0.91997	0.427
Mof_C 	C 	0.88053	0.67497	0.78997	-0.174
Mof_C 	C 	0.79113	0.68177	0.73647	0.216
Mof_C 	C 	0.83653	0.68817	0.86247	-0.084
Mof_H 	H 	0.83783	0.70027	0.99957	0.079
Mof_Fe	Fe	0.68495	0.63185	0.01087	0.874
Mof_O 	O 	0.92873	0.70117	0.09257	-0.383
Mof_O 	O 	0.96733	0.6753	0.85247	-0.427
Mof_O 	O 	0.74663	0.69024	0.81137	-0.417
Mof_O 	O 	0.67553	0.55177	0.86367	-0.242
Mof_H 	H 	0.69733	0.59397	0.85867	0.015
Mof_C 	C 	0.71843	0.53687	0.88867	-0.024
Mof_H 	H 	0.70833	0.50167	0.79567	0.049
Mof_H 	H 	0.75883	0.57327	0.84767	0.045
Mof_H 	H 	0.71933	0.52667	0.03867	0.046
Mof_C 	C 	0.9865	0.5782	0.2533	0.427
Mof_C 	C 	0.9917	0.5389	0.1233	-0.173
Mof_C 	C 	0.9849	0.4427	0.0698	0.215
Mof_C 	C 	0.9785	0.4817	0.1958	-0.084
Mof_H 	H 	0.9664	0.4709	0.3329	0.079
Mof_Fe	Fe	0.03482	0.38644	0.3442	0.875
Mof_O 	O 	0.9655	0.5609	0.4259	-0.383
Mof_O 	O 	0.99137	0.62537	0.1858	-0.427
Mof_O 	O 	0.97643	0.38973	0.1447	-0.417
Mof_O 	O 	0.1149	0.4571	0.197	-0.241
Mof_H 	H 	0.0727	0.4367	0.192	0.014
Mof_C 	C 	0.1298	0.5149	0.222	-0.028
Mof_H 	H 	0.165	0.54	0.129	0.05
Mof_H 	H 	0.0934	0.5189	0.181	0.046
Mof_H 	H 	0.14	0.526	0.372	0.048
Mof_C 	C 	0.65317	0.91153	0.58663	0.427
Mof_C 	C 	0.65837	0.87223	0.45663	-0.174
Mof_C 	C 	0.65157	0.77603	0.40313	0.216
Mof_C 	C 	0.64517	0.81503	0.52913	-0.084
Mof_H 	H 	0.63307	0.80423	0.66623	0.079
Mof_Fe	Fe	0.70149	0.71977	0.67753	0.875
Mof_O 	O 	0.63217	0.89423	0.75923	-0.383
Mof_O 	O 	0.65804	0.9587	0.51913	-0.428
Mof_O 	O 	0.6431	0.72306	0.47803	-0.417
Mof_O 	O 	0.78157	0.79043	0.53033	-0.241
Mof_H 	H 	0.73937	0.77003	0.52533	0.014
Mof_C 	C 	0.79647	0.84823	0.55533	-0.028
Mof_H 	H 	0.83167	0.87333	0.46233	0.05
Mof_H 	H 	0.76007	0.85223	0.51433	0.045
Mof_H 	H 	0.80667	0.85933	0.70533	0.048
Mof_C 	C 	0.31983	0.24487	0.91997	0.427
Mof_C 	C 	0.32503	0.20557	0.78997	-0.174
Mof_C 	C 	0.31823	0.10937	0.73647	0.216
Mof_C 	C 	0.31183	0.14837	0.86247	-0.084
Mof_H 	H 	0.29973	0.13757	0.99957	0.079
Mof_Fe	Fe	0.36815	0.05311	0.01087	0.873
Mof_O 	O 	0.29883	0.22757	0.09257	-0.383
Mof_O 	O 	0.3247	0.29204	0.85247	-0.428
Mof_O 	O 	0.30976	0.0564	0.81137	-0.417
Mof_O 	O 	0.44823	0.12377	0.86367	-0.242
Mof_H 	H 	0.40603	0.10337	0.85867	0.015
Mof_C 	C 	0.46313	0.18157	0.88867	-0.024
Mof_H 	H 	0.49833	0.20667	0.79567	0.049
Mof_H 	H 	0.42673	0.18557	0.84767	0.045
Mof_H 	H 	0.47333	0.19267	0.03867	0.046
Mof_C 	C 	0.5782	0.5917	0.7467	0.427
Mof_C 	C 	0.5389	0.5472	0.8767	-0.173
Mof_C 	C 	0.4427	0.4578	0.9302	0.216
Mof_C 	C 	0.4817	0.5032	0.8042	-0.084
Mof_H 	H 	0.4709	0.5045	0.6671	0.079
Mof_Fe	Fe	0.38644	0.35162	0.6558	0.875
Mof_O 	O 	0.5609	0.5954	0.5741	-0.383
Mof_O 	O 	0.62537	0.634	0.8142	-0.427
Mof_O 	O 	0.38973	0.4133	0.8553	-0.417
Mof_O 	O 	0.4571	0.3422	0.803	-0.241
Mof_H 	H 	0.4367	0.364	0.808	0.014
Mof_C 	C 	0.5149	0.3851	0.778	-0.028
Mof_H 	H 	0.54	0.375	0.871	0.05
Mof_H 	H 	0.5189	0.4255	0.819	0.046
Mof_H 	H 	0.526	0.386	0.628	0.048
Mof_C 	C 	0.24487	0.92503	0.08003	0.427
Mof_C 	C 	0.20557	0.88053	0.21003	-0.174
Mof_C 	C 	0.10937	0.79113	0.26353	0.216
Mof_C 	C 	0.14837	0.83653	0.13753	-0.083
Mof_H 	H 	0.13757	0.83783	0.00043	0.079
Mof_Fe	Fe	0.05311	0.68495	0.98913	0.873
Mof_O 	O 	0.22757	0.92873	0.90743	-0.383
Mof_O 	O 	0.29204	0.96733	0.14753	-0.427
Mof_O 	O 	0.0564	0.74663	0.18863	-0.417
Mof_O 	O 	0.12377	0.67553	0.13633	-0.242
Mof_H 	H 	0.10337	0.69733	0.14133	0.015
Mof_C 	C 	0.18157	0.71843	0.11133	-0.024
Mof_H 	H 	0.20667	0.70833	0.20433	0.049
Mof_H 	H 	0.18557	0.75883	0.15233	0.045
Mof_H 	H 	0.19267	0.71933	0.96133	0.046
Mof_C 	C 	0.91153	0.25837	0.41337	0.427
Mof_C 	C 	0.87223	0.21387	0.54337	-0.174
Mof_C 	C 	0.77603	0.12447	0.59687	0.216
Mof_C 	C 	0.81503	0.16987	0.47087	-0.084
Mof_H 	H 	0.80423	0.17117	0.33377	0.079
Mof_Fe	Fe	0.71977	0.01829	0.32247	0.875
Mof_O 	O 	0.89423	0.26207	0.24077	-0.383
Mof_O 	O 	0.9587	0.30067	0.48087	-0.427
Mof_O 	O 	0.72306	0.07997	0.52197	-0.417
Mof_O 	O 	0.79043	0.00887	0.46967	-0.241
Mof_H 	H 	0.77003	0.03067	0.47467	0.014
Mof_C 	C 	0.84823	0.05177	0.44467	-0.028
Mof_H 	H 	0.87333	0.04167	0.53767	0.05
Mof_H 	H 	0.85223	0.09217	0.48567	0.045
Mof_H 	H 	0.85933	0.05267	0.29467	0.048
Mof_C 	C 	0.4083	0.9865	0.7467	0.427
Mof_C 	C 	0.4528	0.9917	0.8767	-0.173
Mof_C 	C 	0.5422	0.9849	0.9302	0.215
Mof_C 	C 	0.4968	0.9785	0.8042	-0.084
Mof_H 	H 	0.4955	0.9664	0.6671	0.079
Mof_Fe	Fe	0.64838	0.03482	0.6558	0.875
Mof_O 	O 	0.4046	0.9655	0.5741	-0.383
Mof_O 	O 	0.366	0.99137	0.8142	-0.427
Mof_O 	O 	0.5867	0.97643	0.8553	-0.417
Mof_O 	O 	0.6578	0.1149	0.803	-0.241
Mof_H 	H 	0.636	0.0727	0.808	0.014
Mof_C 	C 	0.6149	0.1298	0.778	-0.028
Mof_H 	H 	0.625	0.165	0.871	0.051
Mof_H 	H 	0.5745	0.0934	0.819	0.046
Mof_H 	H 	0.614	0.14	0.628	0.048
Mof_C 	C 	0.07497	0.31983	0.08003	0.427
Mof_C 	C 	0.11947	0.32503	0.21003	-0.174
Mof_C 	C 	0.20887	0.31823	0.26353	0.216
Mof_C 	C 	0.16347	0.31183	0.13753	-0.084
Mof_H 	H 	0.16217	0.29973	0.00043	0.079
Mof_Fe	Fe	0.31505	0.36815	0.98913	0.874
Mof_O 	O 	0.07127	0.29883	0.90743	-0.383
Mof_O 	O 	0.03267	0.3247	0.14753	-0.427
Mof_O 	O 	0.25337	0.30976	0.18863	-0.417
Mof_O 	O 	0.32447	0.44823	0.13633	-0.242
Mof_H 	H 	0.30267	0.40603	0.14133	0.015
Mof_C 	C 	0.28157	0.46313	0.11133	-0.024
Mof_H 	H 	0.29167	0.49833	0.20433	0.049
Mof_H 	H 	0.24117	0.42673	0.15233	0.045
Mof_H 	H 	0.28067	0.47333	0.96133	0.046
Mof_C 	C 	0.74163	0.65317	0.41337	0.427
Mof_C 	C 	0.78613	0.65837	0.54337	-0.174
Mof_C 	C 	0.87553	0.65157	0.59687	0.216
Mof_C 	C 	0.83013	0.64517	0.47087	-0.084
Mof_H 	H 	0.82883	0.63307	0.33377	0.079
Mof_Fe	Fe	0.98171	0.70149	0.32247	0.875
Mof_O 	O 	0.73793	0.63217	0.24077	-0.383
Mof_O 	O 	0.69933	0.65804	0.48087	-0.428
Mof_O 	O 	0.92003	0.6431	0.52197	-0.417
Mof_O 	O 	0.99113	0.78157	0.46967	-0.241
Mof_H 	H 	0.96933	0.73937	0.47467	0.014
Mof_C 	C 	0.94823	0.79647	0.44467	-0.028
Mof_H 	H 	0.95833	0.83167	0.53767	0.05
Mof_H 	H 	0.90783	0.76007	0.48567	0.045
Mof_H 	H 	0.94733	0.80667	0.29467	0.048
Mof_C 	C 	0.0135	0.4218	0.7467	0.427
Mof_C 	C 	0.0083	0.4611	0.8767	-0.173
Mof_C 	C 	0.0151	0.5573	0.9302	0.215
Mof_C 	C 	0.0215	0.5183	0.8042	-0.084
Mof_H 	H 	0.0336	0.5291	0.6671	0.079
Mof_Fe	Fe	0.96518	0.61356	0.6558	0.875
Mof_O 	O 	0.0345	0.4391	0.5741	-0.383
Mof_O 	O 	0.00863	0.37463	0.8142	-0.427
Mof_O 	O 	0.02357	0.61027	0.8553	-0.417
Mof_O 	O 	0.8851	0.5429	0.803	-0.241
Mof_H 	H 	0.9273	0.5633	0.808	0.014
Mof_C 	C 	0.8702	0.4851	0.778	-0.028
Mof_H 	H 	0.835	0.46	0.871	0.05
Mof_H 	H 	0.9066	0.4811	0.819	0.046
Mof_H 	H 	0.86	0.474	0.628	0.048
Mof_C 	C 	0.68017	0.75513	0.08003	0.427
Mof_C 	C 	0.67497	0.79443	0.21003	-0.174
Mof_C 	C 	0.68177	0.89063	0.26353	0.216
Mof_C 	C 	0.68817	0.85163	0.13753	-0.084
Mof_H 	H 	0.70027	0.86243	0.00043	0.079
Mof_Fe	Fe	0.63185	0.94689	0.98913	0.873
Mof_O 	O 	0.70117	0.77243	0.90743	-0.383
Mof_O 	O 	0.6753	0.70796	0.14753	-0.428
Mof_O 	O 	0.69024	0.9436	0.18863	-0.417
Mof_O 	O 	0.55177	0.87623	0.13633	-0.242
Mof_H 	H 	0.59397	0.89663	0.14133	0.015
Mof_C 	C 	0.53687	0.81843	0.11133	-0.024
Mof_H 	H 	0.50167	0.79333	0.20433	0.049
Mof_H 	H 	0.57327	0.81443	0.15233	0.045
Mof_H 	H 	0.52667	0.80733	0.96133	0.046
Mof_C 	C 	0.34683	0.08847	0.41337	0.427
Mof_C 	C 	0.34163	0.12777	0.54337	-0.174
Mof_C 	C 	0.34843	0.22397	0.59687	0.216
Mof_C 	C 	0.35483	0.18497	0.47087	-0.084
Mof_H 	H 	0.36693	0.19577	0.33377	0.079
Mof_Fe	Fe	0.29851	0.28023	0.32247	0.875
Mof_O 	O 	0.36783	0.10577	0.24077	-0.383
Mof_O 	O 	0.34196	0.0413	0.48087	-0.428
Mof_O 	O 	0.3569	0.27694	0.52197	-0.417
Mof_O 	O 	0.21843	0.20957	0.46967	-0.241
Mof_H 	H 	0.26063	0.22997	0.47467	0.014
Mof_C 	C 	0.20353	0.15177	0.44467	-0.028
Mof_H 	H 	0.16833	0.12667	0.53767	0.05
Mof_H 	H 	0.23993	0.14777	0.48567	0.045
Mof_H 	H 	0.19333	0.14067	0.29467	0.048
_end
