data_functionalizedCrystal
_audit_creation_method	'EQeq! by Chris Wilmer'
_symmetry_space_group_name_H-M	'P1'
_symmetry_Int_Tables_number	1
_symmetry_cell_setting	triclinic
loop_
_symmetry_equiv_pos_as_xyz
  x,y,z
_cell_length_a	19.6025
_cell_length_b	23.5274
_cell_length_c	25.9223
_cell_angle_alpha	90
_cell_angle_beta	90
_cell_angle_gamma	90
loop_
_atom_site_label
_atom_site_type_symbol
_atom_site_fract_x
_atom_site_fract_y
_atom_site_fract_z
_atom_site_charge
Mof_Ni	Ni	0.3162	0.33524	0.20028	1.078
Mof_O 	O 	0.95578	0.31981	0.22792	-0.273
Mof_O 	O 	0.91264	0.36338	0.29714	-0.414
Mof_O 	O 	0.21078	0.3264	0.21488	-0.382
Mof_O 	O 	0.26743	0.39625	0.251	-0.356
Mof_O 	O 	0.08408	0.51714	0.33438	-0.273
Mof_C 	C 	0.75765	0.38041	0.60693	0.078
Mof_H 	H 	0.7713	0.3419	0.6033	-0.001
Mof_C 	C 	0.78994	0.4204	0.57724	-0.12
Mof_H 	H 	0.8247	0.4093	0.5537	0.072
Mof_C 	C 	0.77167	0.47712	0.58164	0.054
Mof_C 	C 	0.71856	0.48933	0.61505	-0.121
Mof_H 	H 	0.7028	0.5273	0.6186	0.084
Mof_C 	C 	0.68881	0.44656	0.64296	0.08
Mof_H 	H 	0.6522	0.4561	0.6653	0.008
Mof_C 	C 	0.80991	0.52319	0.55507	0.088
Mof_C 	C 	0.85011	0.51393	0.51165	-0.153
Mof_H 	H 	0.8506	0.4775	0.4959	0.084
Mof_C 	C 	0.88944	0.5575	0.49122	0.117
Mof_C 	C 	0.88591	0.61023	0.51543	-0.155
Mof_H 	H 	0.9117	0.6415	0.5028	0.081
Mof_C 	C 	0.84396	0.61651	0.55844	0.081
Mof_C 	C 	0.83971	0.6707	0.58831	0.058
Mof_C 	C 	0.88967	0.7114	0.58899	-0.13
Mof_H 	H 	0.9293	0.7068	0.5683	0.07
Mof_C 	C 	0.88261	0.75924	0.61968	0.08
Mof_H 	H 	0.9177	0.7871	0.6189	-0.004
Mof_C 	C 	0.78123	0.7281	0.64936	0.074
Mof_H 	H 	0.7421	0.7334	0.6704	-0.012
Mof_C 	C 	0.78487	0.67994	0.62008	-0.126
Mof_H 	H 	0.7492	0.6527	0.6217	0.084
Mof_C 	C 	0.93782	0.54675	0.44826	-0.106
Mof_C 	C 	0.95938	0.58953	0.4147	0.081
Mof_H 	H 	0.9411	0.6267	0.4182	0.006
Mof_C 	C 	0.00671	0.5788	0.3765	-0.222
Mof_H 	H 	0.0202	0.6083	0.3536	0.129
Mof_C 	C 	0.03429	0.52532	0.37167	0.259
Mof_C 	C 	0.01469	0.48269	0.40476	-0.231
Mof_H 	H 	0.0345	0.446	0.4019	0.12
Mof_C 	C 	0.96656	0.49327	0.44191	0.087
Mof_H 	H 	0.9525	0.4632	0.4639	0.002
Mof_C 	C 	0.08361	0.46515	0.30855	0.212
Mof_C 	C 	0.02333	0.4365	0.29869	-0.149
Mof_H 	H 	0.9811	0.452	0.3098	0.099
Mof_C 	C 	0.0247	0.38543	0.27268	-0.004
Mof_C 	C 	0.08635	0.36432	0.2545	-0.053
Mof_H 	H 	0.0873	0.3297	0.2356	0.074
Mof_C 	C 	0.14627	0.3934	0.26378	0.007
Mof_C 	C 	0.14536	0.44426	0.29154	-0.144
Mof_H 	H 	0.1865	0.4641	0.2986	0.112
Mof_C 	C 	0.95942	0.35351	0.26491	0.307
Mof_C 	C 	0.21202	0.37107	0.24262	0.265
Mof_N 	N 	0.70823	0.39229	0.64062	-0.225
Mof_N 	N 	0.80604	0.5742	0.57758	-0.133
Mof_N 	N 	0.82922	0.76792	0.65007	-0.246
Mof_Ni	Ni	0.8162	0.83524	0.70028	1.079
Mof_O 	O 	0.45578	0.81981	0.72792	-0.272
Mof_O 	O 	0.41264	0.86338	0.79714	-0.414
Mof_O 	O 	0.71078	0.8264	0.71488	-0.382
Mof_O 	O 	0.76743	0.89625	0.751	-0.356
Mof_O 	O 	0.58408	0.01714	0.83438	-0.273
Mof_C 	C 	0.25765	0.88041	0.10693	0.078
Mof_H 	H 	0.2713	0.8419	0.1033	-0.001
Mof_C 	C 	0.28994	0.9204	0.07724	-0.12
Mof_H 	H 	0.3247	0.9093	0.0537	0.073
Mof_C 	C 	0.27167	0.97712	0.08164	0.054
Mof_C 	C 	0.21856	0.98933	0.11505	-0.121
Mof_H 	H 	0.2028	0.0273	0.1186	0.084
Mof_C 	C 	0.18881	0.94656	0.14296	0.08
Mof_H 	H 	0.1522	0.9561	0.1653	0.008
Mof_C 	C 	0.30991	0.02319	0.05507	0.088
Mof_C 	C 	0.35011	0.01393	0.01165	-0.153
Mof_H 	H 	0.3506	0.9775	0.9959	0.084
Mof_C 	C 	0.38944	0.0575	0.99122	0.117
Mof_C 	C 	0.38591	0.11023	0.01543	-0.155
Mof_H 	H 	0.4117	0.1415	0.0028	0.081
Mof_C 	C 	0.34396	0.11651	0.05844	0.081
Mof_C 	C 	0.33971	0.1707	0.08831	0.058
Mof_C 	C 	0.38967	0.2114	0.08899	-0.13
Mof_H 	H 	0.4293	0.2068	0.0683	0.07
Mof_C 	C 	0.38261	0.25924	0.11968	0.08
Mof_H 	H 	0.4177	0.2871	0.1189	-0.004
Mof_C 	C 	0.28123	0.2281	0.14936	0.074
Mof_H 	H 	0.2421	0.2334	0.1704	-0.012
Mof_C 	C 	0.28487	0.17994	0.12008	-0.126
Mof_H 	H 	0.2492	0.1527	0.1217	0.084
Mof_C 	C 	0.43782	0.04675	0.94826	-0.106
Mof_C 	C 	0.45938	0.08953	0.9147	0.081
Mof_H 	H 	0.4411	0.1267	0.9182	0.006
Mof_C 	C 	0.50671	0.0788	0.8765	-0.222
Mof_H 	H 	0.5202	0.1083	0.8536	0.129
Mof_C 	C 	0.53429	0.02532	0.87167	0.259
Mof_C 	C 	0.51469	0.98269	0.90476	-0.231
Mof_H 	H 	0.5345	0.946	0.9019	0.12
Mof_C 	C 	0.46656	0.99327	0.94191	0.087
Mof_H 	H 	0.4525	0.9632	0.9639	0.002
Mof_C 	C 	0.58361	0.96515	0.80855	0.212
Mof_C 	C 	0.52333	0.9365	0.79869	-0.149
Mof_H 	H 	0.4811	0.952	0.8098	0.099
Mof_C 	C 	0.5247	0.88543	0.77268	-0.004
Mof_C 	C 	0.58635	0.86432	0.7545	-0.053
Mof_H 	H 	0.5873	0.8297	0.7356	0.074
Mof_C 	C 	0.64627	0.8934	0.76378	0.007
Mof_C 	C 	0.64536	0.94426	0.79154	-0.144
Mof_H 	H 	0.6865	0.9641	0.7986	0.112
Mof_C 	C 	0.45942	0.85351	0.76491	0.307
Mof_C 	C 	0.71202	0.87107	0.74262	0.265
Mof_N 	N 	0.20823	0.89229	0.14062	-0.225
Mof_N 	N 	0.30604	0.0742	0.07758	-0.133
Mof_N 	N 	0.32922	0.26792	0.15007	-0.246
Mof_Ni	Ni	0.6838	0.83524	0.29972	1.079
Mof_O 	O 	0.04422	0.81981	0.27208	-0.272
Mof_O 	O 	0.08736	0.86338	0.20286	-0.414
Mof_O 	O 	0.78922	0.8264	0.28512	-0.382
Mof_O 	O 	0.73257	0.89625	0.249	-0.356
Mof_O 	O 	0.91592	0.01714	0.16562	-0.273
Mof_C 	C 	0.24235	0.88041	0.89307	0.078
Mof_H 	H 	0.2287	0.8419	0.8967	-0.001
Mof_C 	C 	0.21006	0.9204	0.92276	-0.12
Mof_H 	H 	0.1753	0.9093	0.9463	0.073
Mof_C 	C 	0.22833	0.97712	0.91836	0.054
Mof_C 	C 	0.28144	0.98933	0.88495	-0.121
Mof_H 	H 	0.2972	0.0273	0.8814	0.084
Mof_C 	C 	0.31119	0.94656	0.85704	0.08
Mof_H 	H 	0.3478	0.9561	0.8347	0.008
Mof_C 	C 	0.19009	0.02319	0.94493	0.088
Mof_C 	C 	0.14989	0.01393	0.98835	-0.154
Mof_H 	H 	0.1494	0.9775	0.0041	0.084
Mof_C 	C 	0.11056	0.0575	0.00878	0.117
Mof_C 	C 	0.11409	0.11023	0.98457	-0.155
Mof_H 	H 	0.0883	0.1415	0.9972	0.081
Mof_C 	C 	0.15604	0.11651	0.94156	0.081
Mof_C 	C 	0.16029	0.1707	0.91169	0.058
Mof_C 	C 	0.11033	0.2114	0.91101	-0.13
Mof_H 	H 	0.0707	0.2068	0.9317	0.07
Mof_C 	C 	0.11739	0.25924	0.88032	0.08
Mof_H 	H 	0.0823	0.2871	0.8811	-0.004
Mof_C 	C 	0.21877	0.2281	0.85064	0.074
Mof_H 	H 	0.2579	0.2334	0.8296	-0.012
Mof_C 	C 	0.21513	0.17994	0.87992	-0.126
Mof_H 	H 	0.2508	0.1527	0.8783	0.084
Mof_C 	C 	0.06218	0.04675	0.05174	-0.106
Mof_C 	C 	0.04062	0.08953	0.0853	0.081
Mof_H 	H 	0.0589	0.1267	0.0818	0.006
Mof_C 	C 	0.99329	0.0788	0.1235	-0.222
Mof_H 	H 	0.9798	0.1083	0.1464	0.129
Mof_C 	C 	0.96571	0.02532	0.12833	0.259
Mof_C 	C 	0.98531	0.98269	0.09524	-0.231
Mof_H 	H 	0.9655	0.946	0.0981	0.12
Mof_C 	C 	0.03344	0.99327	0.05809	0.087
Mof_H 	H 	0.0475	0.9632	0.0361	0.002
Mof_C 	C 	0.91639	0.96515	0.19145	0.212
Mof_C 	C 	0.97667	0.9365	0.20131	-0.149
Mof_H 	H 	0.0189	0.952	0.1902	0.099
Mof_C 	C 	0.9753	0.88543	0.22732	-0.004
Mof_C 	C 	0.91365	0.86432	0.2455	-0.053
Mof_H 	H 	0.9127	0.8297	0.2644	0.073
Mof_C 	C 	0.85373	0.8934	0.23622	0.007
Mof_C 	C 	0.85464	0.94426	0.20846	-0.144
Mof_H 	H 	0.8135	0.9641	0.2014	0.112
Mof_C 	C 	0.04058	0.85351	0.23509	0.307
Mof_C 	C 	0.78798	0.87107	0.25738	0.265
Mof_N 	N 	0.29177	0.89229	0.85938	-0.225
Mof_N 	N 	0.19396	0.0742	0.92242	-0.133
Mof_N 	N 	0.17078	0.26792	0.84993	-0.246
Mof_Ni	Ni	0.1838	0.33524	0.79972	1.079
Mof_O 	O 	0.54422	0.31981	0.77208	-0.272
Mof_O 	O 	0.58736	0.36338	0.70286	-0.414
Mof_O 	O 	0.28922	0.3264	0.78512	-0.382
Mof_O 	O 	0.23257	0.39625	0.749	-0.356
Mof_O 	O 	0.41592	0.51714	0.66562	-0.273
Mof_C 	C 	0.74235	0.38041	0.39307	0.078
Mof_H 	H 	0.7287	0.3419	0.3967	-0.001
Mof_C 	C 	0.71006	0.4204	0.42276	-0.12
Mof_H 	H 	0.6753	0.4093	0.4463	0.072
Mof_C 	C 	0.72833	0.47712	0.41836	0.054
Mof_C 	C 	0.78144	0.48933	0.38495	-0.121
Mof_H 	H 	0.7972	0.5273	0.3814	0.084
Mof_C 	C 	0.81119	0.44656	0.35704	0.08
Mof_H 	H 	0.8478	0.4561	0.3347	0.008
Mof_C 	C 	0.69009	0.52319	0.44493	0.088
Mof_C 	C 	0.64989	0.51393	0.48835	-0.153
Mof_H 	H 	0.6494	0.4775	0.5041	0.084
Mof_C 	C 	0.61056	0.5575	0.50878	0.117
Mof_C 	C 	0.61409	0.61023	0.48457	-0.155
Mof_H 	H 	0.5883	0.6415	0.4972	0.081
Mof_C 	C 	0.65604	0.61651	0.44156	0.081
Mof_C 	C 	0.66029	0.6707	0.41169	0.058
Mof_C 	C 	0.61033	0.7114	0.41101	-0.13
Mof_H 	H 	0.5707	0.7068	0.4317	0.07
Mof_C 	C 	0.61739	0.75924	0.38032	0.08
Mof_H 	H 	0.5823	0.7871	0.3811	-0.004
Mof_C 	C 	0.71877	0.7281	0.35064	0.074
Mof_H 	H 	0.7579	0.7334	0.3296	-0.012
Mof_C 	C 	0.71513	0.67994	0.37992	-0.126
Mof_H 	H 	0.7508	0.6527	0.3783	0.084
Mof_C 	C 	0.56218	0.54675	0.55174	-0.106
Mof_C 	C 	0.54062	0.58953	0.5853	0.081
Mof_H 	H 	0.5589	0.6267	0.5818	0.006
Mof_C 	C 	0.49329	0.5788	0.6235	-0.222
Mof_H 	H 	0.4798	0.6083	0.6464	0.129
Mof_C 	C 	0.46571	0.52532	0.62833	0.259
Mof_C 	C 	0.48531	0.48269	0.59524	-0.231
Mof_H 	H 	0.4655	0.446	0.5981	0.12
Mof_C 	C 	0.53344	0.49327	0.55809	0.087
Mof_H 	H 	0.5475	0.4632	0.5361	0.002
Mof_C 	C 	0.41639	0.46515	0.69145	0.212
Mof_C 	C 	0.47667	0.4365	0.70131	-0.149
Mof_H 	H 	0.5189	0.452	0.6902	0.099
Mof_C 	C 	0.4753	0.38543	0.72732	-0.004
Mof_C 	C 	0.41365	0.36432	0.7455	-0.053
Mof_H 	H 	0.4127	0.3297	0.7644	0.074
Mof_C 	C 	0.35373	0.3934	0.73622	0.007
Mof_C 	C 	0.35464	0.44426	0.70846	-0.144
Mof_H 	H 	0.3135	0.4641	0.7014	0.112
Mof_C 	C 	0.54058	0.35351	0.73509	0.307
Mof_C 	C 	0.28798	0.37107	0.75738	0.265
Mof_N 	N 	0.79177	0.39229	0.35938	-0.225
Mof_N 	N 	0.69396	0.5742	0.42242	-0.133
Mof_N 	N 	0.67078	0.76792	0.34993	-0.246
Mof_Ni	Ni	0.8162	0.33524	0.29972	1.079
Mof_O 	O 	0.45578	0.31981	0.27208	-0.272
Mof_O 	O 	0.41264	0.36338	0.20286	-0.414
Mof_O 	O 	0.71078	0.3264	0.28512	-0.382
Mof_O 	O 	0.76743	0.39625	0.249	-0.356
Mof_O 	O 	0.58408	0.51714	0.16562	-0.273
Mof_C 	C 	0.25765	0.38041	0.89307	0.078
Mof_H 	H 	0.2713	0.3419	0.8967	-0.001
Mof_C 	C 	0.28994	0.4204	0.92276	-0.12
Mof_H 	H 	0.3247	0.4093	0.9463	0.073
Mof_C 	C 	0.27167	0.47712	0.91836	0.054
Mof_C 	C 	0.21856	0.48933	0.88495	-0.121
Mof_H 	H 	0.2028	0.5273	0.8814	0.084
Mof_C 	C 	0.18881	0.44656	0.85704	0.08
Mof_H 	H 	0.1522	0.4561	0.8347	0.008
Mof_C 	C 	0.30991	0.52319	0.94493	0.088
Mof_C 	C 	0.35011	0.51393	0.98835	-0.153
Mof_H 	H 	0.3506	0.4775	0.0041	0.084
Mof_C 	C 	0.38944	0.5575	0.00878	0.117
Mof_C 	C 	0.38591	0.61023	0.98457	-0.155
Mof_H 	H 	0.4117	0.6415	0.9972	0.081
Mof_C 	C 	0.34396	0.61651	0.94156	0.081
Mof_C 	C 	0.33971	0.6707	0.91169	0.058
Mof_C 	C 	0.38967	0.7114	0.91101	-0.13
Mof_H 	H 	0.4293	0.7068	0.9317	0.07
Mof_C 	C 	0.38261	0.75924	0.88032	0.08
Mof_H 	H 	0.4177	0.7871	0.8811	-0.004
Mof_C 	C 	0.28123	0.7281	0.85064	0.074
Mof_H 	H 	0.2421	0.7334	0.8296	-0.012
Mof_C 	C 	0.28487	0.67994	0.87992	-0.126
Mof_H 	H 	0.2492	0.6527	0.8783	0.084
Mof_C 	C 	0.43782	0.54675	0.05174	-0.106
Mof_C 	C 	0.45938	0.58953	0.0853	0.081
Mof_H 	H 	0.4411	0.6267	0.0818	0.006
Mof_C 	C 	0.50671	0.5788	0.1235	-0.222
Mof_H 	H 	0.5202	0.6083	0.1464	0.129
Mof_C 	C 	0.53429	0.52532	0.12833	0.259
Mof_C 	C 	0.51469	0.48269	0.09524	-0.231
Mof_H 	H 	0.5345	0.446	0.0981	0.12
Mof_C 	C 	0.46656	0.49327	0.05809	0.087
Mof_H 	H 	0.4525	0.4632	0.0361	0.002
Mof_C 	C 	0.58361	0.46515	0.19145	0.212
Mof_C 	C 	0.52333	0.4365	0.20131	-0.149
Mof_H 	H 	0.4811	0.452	0.1902	0.099
Mof_C 	C 	0.5247	0.38543	0.22732	-0.004
Mof_C 	C 	0.58635	0.36432	0.2455	-0.053
Mof_H 	H 	0.5873	0.3297	0.2644	0.074
Mof_C 	C 	0.64627	0.3934	0.23622	0.007
Mof_C 	C 	0.64536	0.44426	0.20846	-0.144
Mof_H 	H 	0.6865	0.4641	0.2014	0.112
Mof_C 	C 	0.45942	0.35351	0.23509	0.307
Mof_C 	C 	0.71202	0.37107	0.25738	0.265
Mof_N 	N 	0.20823	0.39229	0.85938	-0.225
Mof_N 	N 	0.30604	0.5742	0.92242	-0.133
Mof_N 	N 	0.32922	0.76792	0.84993	-0.246
Mof_Ni	Ni	0.3162	0.83524	0.79972	1.079
Mof_O 	O 	0.95578	0.81981	0.77208	-0.272
Mof_O 	O 	0.91264	0.86338	0.70286	-0.414
Mof_O 	O 	0.21078	0.8264	0.78512	-0.382
Mof_O 	O 	0.26743	0.89625	0.749	-0.356
Mof_O 	O 	0.08408	0.01714	0.66562	-0.273
Mof_C 	C 	0.75765	0.88041	0.39307	0.078
Mof_H 	H 	0.7713	0.8419	0.3967	-0.001
Mof_C 	C 	0.78994	0.9204	0.42276	-0.12
Mof_H 	H 	0.8247	0.9093	0.4463	0.072
Mof_C 	C 	0.77167	0.97712	0.41836	0.054
Mof_C 	C 	0.71856	0.98933	0.38495	-0.121
Mof_H 	H 	0.7028	0.0273	0.3814	0.084
Mof_C 	C 	0.68881	0.94656	0.35704	0.08
Mof_H 	H 	0.6522	0.9561	0.3347	0.008
Mof_C 	C 	0.80991	0.02319	0.44493	0.088
Mof_C 	C 	0.85011	0.01393	0.48835	-0.153
Mof_H 	H 	0.8506	0.9775	0.5041	0.084
Mof_C 	C 	0.88944	0.0575	0.50878	0.117
Mof_C 	C 	0.88591	0.11023	0.48457	-0.155
Mof_H 	H 	0.9117	0.1415	0.4972	0.081
Mof_C 	C 	0.84396	0.11651	0.44156	0.081
Mof_C 	C 	0.83971	0.1707	0.41169	0.058
Mof_C 	C 	0.88967	0.2114	0.41101	-0.13
Mof_H 	H 	0.9293	0.2068	0.4317	0.07
Mof_C 	C 	0.88261	0.25924	0.38032	0.08
Mof_H 	H 	0.9177	0.2871	0.3811	-0.004
Mof_C 	C 	0.78123	0.2281	0.35064	0.074
Mof_H 	H 	0.7421	0.2334	0.3296	-0.012
Mof_C 	C 	0.78487	0.17994	0.37992	-0.126
Mof_H 	H 	0.7492	0.1527	0.3783	0.084
Mof_C 	C 	0.93782	0.04675	0.55174	-0.106
Mof_C 	C 	0.95938	0.08953	0.5853	0.081
Mof_H 	H 	0.9411	0.1267	0.5818	0.006
Mof_C 	C 	0.00671	0.0788	0.6235	-0.222
Mof_H 	H 	0.0202	0.1083	0.6464	0.129
Mof_C 	C 	0.03429	0.02532	0.62833	0.259
Mof_C 	C 	0.01469	0.98269	0.59524	-0.231
Mof_H 	H 	0.0345	0.946	0.5981	0.12
Mof_C 	C 	0.96656	0.99327	0.55809	0.087
Mof_H 	H 	0.9525	0.9632	0.5361	0.002
Mof_C 	C 	0.08361	0.96515	0.69145	0.212
Mof_C 	C 	0.02333	0.9365	0.70131	-0.149
Mof_H 	H 	0.9811	0.952	0.6902	0.099
Mof_C 	C 	0.0247	0.88543	0.72732	-0.004
Mof_C 	C 	0.08635	0.86432	0.7455	-0.053
Mof_H 	H 	0.0873	0.8297	0.7644	0.073
Mof_C 	C 	0.14627	0.8934	0.73622	0.007
Mof_C 	C 	0.14536	0.94426	0.70846	-0.144
Mof_H 	H 	0.1865	0.9641	0.7014	0.112
Mof_C 	C 	0.95942	0.85351	0.73509	0.307
Mof_C 	C 	0.21202	0.87107	0.75738	0.265
Mof_N 	N 	0.70823	0.89229	0.35938	-0.225
Mof_N 	N 	0.80604	0.0742	0.42242	-0.133
Mof_N 	N 	0.82922	0.26792	0.34993	-0.246
Mof_Ni	Ni	0.1838	0.83524	0.20028	1.079
Mof_O 	O 	0.54422	0.81981	0.22792	-0.272
Mof_O 	O 	0.58736	0.86338	0.29714	-0.414
Mof_O 	O 	0.28922	0.8264	0.21488	-0.382
Mof_O 	O 	0.23257	0.89625	0.251	-0.356
Mof_O 	O 	0.41592	0.01714	0.33438	-0.273
Mof_C 	C 	0.74235	0.88041	0.60693	0.078
Mof_H 	H 	0.7287	0.8419	0.6033	-0.001
Mof_C 	C 	0.71006	0.9204	0.57724	-0.12
Mof_H 	H 	0.6753	0.9093	0.5537	0.072
Mof_C 	C 	0.72833	0.97712	0.58164	0.054
Mof_C 	C 	0.78144	0.98933	0.61505	-0.121
Mof_H 	H 	0.7972	0.0273	0.6186	0.084
Mof_C 	C 	0.81119	0.94656	0.64296	0.08
Mof_H 	H 	0.8478	0.9561	0.6653	0.008
Mof_C 	C 	0.69009	0.02319	0.55507	0.088
Mof_C 	C 	0.64989	0.01393	0.51165	-0.153
Mof_H 	H 	0.6494	0.9775	0.4959	0.084
Mof_C 	C 	0.61056	0.0575	0.49122	0.117
Mof_C 	C 	0.61409	0.11023	0.51543	-0.155
Mof_H 	H 	0.5883	0.1415	0.5028	0.081
Mof_C 	C 	0.65604	0.11651	0.55844	0.081
Mof_C 	C 	0.66029	0.1707	0.58831	0.058
Mof_C 	C 	0.61033	0.2114	0.58899	-0.13
Mof_H 	H 	0.5707	0.2068	0.5683	0.07
Mof_C 	C 	0.61739	0.25924	0.61968	0.08
Mof_H 	H 	0.5823	0.2871	0.6189	-0.004
Mof_C 	C 	0.71877	0.2281	0.64936	0.074
Mof_H 	H 	0.7579	0.2334	0.6704	-0.012
Mof_C 	C 	0.71513	0.17994	0.62008	-0.126
Mof_H 	H 	0.7508	0.1527	0.6217	0.084
Mof_C 	C 	0.56218	0.04675	0.44826	-0.106
Mof_C 	C 	0.54062	0.08953	0.4147	0.081
Mof_H 	H 	0.5589	0.1267	0.4182	0.006
Mof_C 	C 	0.49329	0.0788	0.3765	-0.222
Mof_H 	H 	0.4798	0.1083	0.3536	0.129
Mof_C 	C 	0.46571	0.02532	0.37167	0.259
Mof_C 	C 	0.48531	0.98269	0.40476	-0.231
Mof_H 	H 	0.4655	0.946	0.4019	0.12
Mof_C 	C 	0.53344	0.99327	0.44191	0.087
Mof_H 	H 	0.5475	0.9632	0.4639	0.002
Mof_C 	C 	0.41639	0.96515	0.30855	0.212
Mof_C 	C 	0.47667	0.9365	0.29869	-0.149
Mof_H 	H 	0.5189	0.952	0.3098	0.099
Mof_C 	C 	0.4753	0.88543	0.27268	-0.004
Mof_C 	C 	0.41365	0.86432	0.2545	-0.053
Mof_H 	H 	0.4127	0.8297	0.2356	0.074
Mof_C 	C 	0.35373	0.8934	0.26378	0.007
Mof_C 	C 	0.35464	0.94426	0.29154	-0.144
Mof_H 	H 	0.3135	0.9641	0.2986	0.112
Mof_C 	C 	0.54058	0.85351	0.26491	0.307
Mof_C 	C 	0.28798	0.87107	0.24262	0.265
Mof_N 	N 	0.79177	0.89229	0.64062	-0.225
Mof_N 	N 	0.69396	0.0742	0.57758	-0.133
Mof_N 	N 	0.67078	0.26792	0.65007	-0.246
Mof_Ni	Ni	0.6838	0.33524	0.70028	1.079
Mof_O 	O 	0.04422	0.31981	0.72792	-0.272
Mof_O 	O 	0.08736	0.36338	0.79714	-0.414
Mof_O 	O 	0.78922	0.3264	0.71488	-0.382
Mof_O 	O 	0.73257	0.39625	0.751	-0.356
Mof_O 	O 	0.91592	0.51714	0.83438	-0.273
Mof_C 	C 	0.24235	0.38041	0.10693	0.078
Mof_H 	H 	0.2287	0.3419	0.1033	-0.001
Mof_C 	C 	0.21006	0.4204	0.07724	-0.12
Mof_H 	H 	0.1753	0.4093	0.0537	0.073
Mof_C 	C 	0.22833	0.47712	0.08164	0.054
Mof_C 	C 	0.28144	0.48933	0.11505	-0.121
Mof_H 	H 	0.2972	0.5273	0.1186	0.084
Mof_C 	C 	0.31119	0.44656	0.14296	0.08
Mof_H 	H 	0.3478	0.4561	0.1653	0.008
Mof_C 	C 	0.19009	0.52319	0.05507	0.088
Mof_C 	C 	0.14989	0.51393	0.01165	-0.153
Mof_H 	H 	0.1494	0.4775	0.9959	0.084
Mof_C 	C 	0.11056	0.5575	0.99122	0.117
Mof_C 	C 	0.11409	0.61023	0.01543	-0.155
Mof_H 	H 	0.0883	0.6415	0.0028	0.081
Mof_C 	C 	0.15604	0.61651	0.05844	0.081
Mof_C 	C 	0.16029	0.6707	0.08831	0.058
Mof_C 	C 	0.11033	0.7114	0.08899	-0.13
Mof_H 	H 	0.0707	0.7068	0.0683	0.07
Mof_C 	C 	0.11739	0.75924	0.11968	0.08
Mof_H 	H 	0.0823	0.7871	0.1189	-0.004
Mof_C 	C 	0.21877	0.7281	0.14936	0.074
Mof_H 	H 	0.2579	0.7334	0.1704	-0.012
Mof_C 	C 	0.21513	0.67994	0.12008	-0.126
Mof_H 	H 	0.2508	0.6527	0.1217	0.084
Mof_C 	C 	0.06218	0.54675	0.94826	-0.106
Mof_C 	C 	0.04062	0.58953	0.9147	0.081
Mof_H 	H 	0.0589	0.6267	0.9182	0.006
Mof_C 	C 	0.99329	0.5788	0.8765	-0.222
Mof_H 	H 	0.9798	0.6083	0.8536	0.129
Mof_C 	C 	0.96571	0.52532	0.87167	0.259
Mof_C 	C 	0.98531	0.48269	0.90476	-0.231
Mof_H 	H 	0.9655	0.446	0.9019	0.12
Mof_C 	C 	0.03344	0.49327	0.94191	0.087
Mof_H 	H 	0.0475	0.4632	0.9639	0.002
Mof_C 	C 	0.91639	0.46515	0.80855	0.212
Mof_C 	C 	0.97667	0.4365	0.79869	-0.149
Mof_H 	H 	0.0189	0.452	0.8098	0.099
Mof_C 	C 	0.9753	0.38543	0.77268	-0.004
Mof_C 	C 	0.91365	0.36432	0.7545	-0.053
Mof_H 	H 	0.9127	0.3297	0.7356	0.074
Mof_C 	C 	0.85373	0.3934	0.76378	0.007
Mof_C 	C 	0.85464	0.44426	0.79154	-0.144
Mof_H 	H 	0.8135	0.4641	0.7986	0.112
Mof_C 	C 	0.04058	0.35351	0.76491	0.307
Mof_C 	C 	0.78798	0.37107	0.74262	0.265
Mof_N 	N 	0.29177	0.39229	0.14062	-0.225
Mof_N 	N 	0.19396	0.5742	0.07758	-0.133
Mof_N 	N 	0.17078	0.76792	0.15007	-0.246
Mof_Ni	Ni	0.1838	0.66476	0.70028	1.079
Mof_O 	O 	0.54422	0.68019	0.72792	-0.272
Mof_O 	O 	0.58736	0.63662	0.79714	-0.414
Mof_O 	O 	0.28922	0.6736	0.71488	-0.382
Mof_O 	O 	0.23257	0.60375	0.751	-0.356
Mof_O 	O 	0.41592	0.48286	0.83438	-0.273
Mof_C 	C 	0.74235	0.61959	0.10693	0.078
Mof_H 	H 	0.7287	0.6581	0.1033	-0.001
Mof_C 	C 	0.71006	0.5796	0.07724	-0.12
Mof_H 	H 	0.6753	0.5907	0.0537	0.073
Mof_C 	C 	0.72833	0.52288	0.08164	0.054
Mof_C 	C 	0.78144	0.51067	0.11505	-0.121
Mof_H 	H 	0.7972	0.4727	0.1186	0.084
Mof_C 	C 	0.81119	0.55344	0.14296	0.08
Mof_H 	H 	0.8478	0.5439	0.1653	0.008
Mof_C 	C 	0.69009	0.47681	0.05507	0.088
Mof_C 	C 	0.64989	0.48607	0.01165	-0.153
Mof_H 	H 	0.6494	0.5225	0.9959	0.084
Mof_C 	C 	0.61056	0.4425	0.99122	0.117
Mof_C 	C 	0.61409	0.38977	0.01543	-0.155
Mof_H 	H 	0.5883	0.3585	0.0028	0.081
Mof_C 	C 	0.65604	0.38349	0.05844	0.081
Mof_C 	C 	0.66029	0.3293	0.08831	0.058
Mof_C 	C 	0.61033	0.2886	0.08899	-0.13
Mof_H 	H 	0.5707	0.2932	0.0683	0.07
Mof_C 	C 	0.61739	0.24076	0.11968	0.08
Mof_H 	H 	0.5823	0.2129	0.1189	-0.004
Mof_C 	C 	0.71877	0.2719	0.14936	0.074
Mof_H 	H 	0.7579	0.2666	0.1704	-0.012
Mof_C 	C 	0.71513	0.32006	0.12008	-0.126
Mof_H 	H 	0.7508	0.3473	0.1217	0.084
Mof_C 	C 	0.56218	0.45325	0.94826	-0.106
Mof_C 	C 	0.54062	0.41047	0.9147	0.081
Mof_H 	H 	0.5589	0.3733	0.9182	0.006
Mof_C 	C 	0.49329	0.4212	0.8765	-0.222
Mof_H 	H 	0.4798	0.3917	0.8536	0.129
Mof_C 	C 	0.46571	0.47468	0.87167	0.259
Mof_C 	C 	0.48531	0.51731	0.90476	-0.231
Mof_H 	H 	0.4655	0.554	0.9019	0.12
Mof_C 	C 	0.53344	0.50673	0.94191	0.087
Mof_H 	H 	0.5475	0.5368	0.9639	0.002
Mof_C 	C 	0.41639	0.53485	0.80855	0.212
Mof_C 	C 	0.47667	0.5635	0.79869	-0.149
Mof_H 	H 	0.5189	0.548	0.8098	0.099
Mof_C 	C 	0.4753	0.61457	0.77268	-0.004
Mof_C 	C 	0.41365	0.63568	0.7545	-0.053
Mof_H 	H 	0.4127	0.6703	0.7356	0.074
Mof_C 	C 	0.35373	0.6066	0.76378	0.007
Mof_C 	C 	0.35464	0.55574	0.79154	-0.144
Mof_H 	H 	0.3135	0.5359	0.7986	0.112
Mof_C 	C 	0.54058	0.64649	0.76491	0.307
Mof_C 	C 	0.28798	0.62893	0.74262	0.265
Mof_N 	N 	0.79177	0.60771	0.14062	-0.225
Mof_N 	N 	0.69396	0.4258	0.07758	-0.133
Mof_N 	N 	0.67078	0.23208	0.15007	-0.246
Mof_Ni	Ni	0.6838	0.16476	0.20028	1.079
Mof_O 	O 	0.04422	0.18019	0.22792	-0.272
Mof_O 	O 	0.08736	0.13662	0.29714	-0.414
Mof_O 	O 	0.78922	0.1736	0.21488	-0.382
Mof_O 	O 	0.73257	0.10375	0.251	-0.356
Mof_O 	O 	0.91592	0.98286	0.33438	-0.273
Mof_C 	C 	0.24235	0.11959	0.60693	0.078
Mof_H 	H 	0.2287	0.1581	0.6033	-0.001
Mof_C 	C 	0.21006	0.0796	0.57724	-0.12
Mof_H 	H 	0.1753	0.0907	0.5537	0.072
Mof_C 	C 	0.22833	0.02288	0.58164	0.054
Mof_C 	C 	0.28144	0.01067	0.61505	-0.121
Mof_H 	H 	0.2972	0.9727	0.6186	0.084
Mof_C 	C 	0.31119	0.05344	0.64296	0.08
Mof_H 	H 	0.3478	0.0439	0.6653	0.008
Mof_C 	C 	0.19009	0.97681	0.55507	0.088
Mof_C 	C 	0.14989	0.98607	0.51165	-0.153
Mof_H 	H 	0.1494	0.0225	0.4959	0.084
Mof_C 	C 	0.11056	0.9425	0.49122	0.117
Mof_C 	C 	0.11409	0.88977	0.51543	-0.155
Mof_H 	H 	0.0883	0.8585	0.5028	0.081
Mof_C 	C 	0.15604	0.88349	0.55844	0.081
Mof_C 	C 	0.16029	0.8293	0.58831	0.058
Mof_C 	C 	0.11033	0.7886	0.58899	-0.13
Mof_H 	H 	0.0707	0.7932	0.5683	0.07
Mof_C 	C 	0.11739	0.74076	0.61968	0.08
Mof_H 	H 	0.0823	0.7129	0.6189	-0.004
Mof_C 	C 	0.21877	0.7719	0.64936	0.074
Mof_H 	H 	0.2579	0.7666	0.6704	-0.012
Mof_C 	C 	0.21513	0.82006	0.62008	-0.126
Mof_H 	H 	0.2508	0.8473	0.6217	0.084
Mof_C 	C 	0.06218	0.95325	0.44826	-0.106
Mof_C 	C 	0.04062	0.91047	0.4147	0.081
Mof_H 	H 	0.0589	0.8733	0.4182	0.006
Mof_C 	C 	0.99329	0.9212	0.3765	-0.222
Mof_H 	H 	0.9798	0.8917	0.3536	0.129
Mof_C 	C 	0.96571	0.97468	0.37167	0.259
Mof_C 	C 	0.98531	0.01731	0.40476	-0.231
Mof_H 	H 	0.9655	0.054	0.4019	0.12
Mof_C 	C 	0.03344	0.00673	0.44191	0.087
Mof_H 	H 	0.0475	0.0368	0.4639	0.002
Mof_C 	C 	0.91639	0.03485	0.30855	0.212
Mof_C 	C 	0.97667	0.0635	0.29869	-0.149
Mof_H 	H 	0.0189	0.048	0.3098	0.099
Mof_C 	C 	0.9753	0.11457	0.27268	-0.004
Mof_C 	C 	0.91365	0.13568	0.2545	-0.053
Mof_H 	H 	0.9127	0.1703	0.2356	0.073
Mof_C 	C 	0.85373	0.1066	0.26378	0.007
Mof_C 	C 	0.85464	0.05574	0.29154	-0.144
Mof_H 	H 	0.8135	0.0359	0.2986	0.112
Mof_C 	C 	0.04058	0.14649	0.26491	0.307
Mof_C 	C 	0.78798	0.12893	0.24262	0.265
Mof_N 	N 	0.29177	0.10771	0.64062	-0.225
Mof_N 	N 	0.19396	0.9258	0.57758	-0.133
Mof_N 	N 	0.17078	0.73208	0.65007	-0.246
Mof_Ni	Ni	0.8162	0.16476	0.79972	1.079
Mof_O 	O 	0.45578	0.18019	0.77208	-0.272
Mof_O 	O 	0.41264	0.13662	0.70286	-0.414
Mof_O 	O 	0.71078	0.1736	0.78512	-0.382
Mof_O 	O 	0.76743	0.10375	0.749	-0.356
Mof_O 	O 	0.58408	0.98286	0.66562	-0.273
Mof_C 	C 	0.25765	0.11959	0.39307	0.078
Mof_H 	H 	0.2713	0.1581	0.3967	-0.001
Mof_C 	C 	0.28994	0.0796	0.42276	-0.12
Mof_H 	H 	0.3247	0.0907	0.4463	0.072
Mof_C 	C 	0.27167	0.02288	0.41836	0.054
Mof_C 	C 	0.21856	0.01067	0.38495	-0.121
Mof_H 	H 	0.2028	0.9727	0.3814	0.084
Mof_C 	C 	0.18881	0.05344	0.35704	0.08
Mof_H 	H 	0.1522	0.0439	0.3347	0.008
Mof_C 	C 	0.30991	0.97681	0.44493	0.088
Mof_C 	C 	0.35011	0.98607	0.48835	-0.153
Mof_H 	H 	0.3506	0.0225	0.5041	0.084
Mof_C 	C 	0.38944	0.9425	0.50878	0.117
Mof_C 	C 	0.38591	0.88977	0.48457	-0.155
Mof_H 	H 	0.4117	0.8585	0.4972	0.081
Mof_C 	C 	0.34396	0.88349	0.44156	0.081
Mof_C 	C 	0.33971	0.8293	0.41169	0.058
Mof_C 	C 	0.38967	0.7886	0.41101	-0.13
Mof_H 	H 	0.4293	0.7932	0.4317	0.07
Mof_C 	C 	0.38261	0.74076	0.38032	0.08
Mof_H 	H 	0.4177	0.7129	0.3811	-0.004
Mof_C 	C 	0.28123	0.7719	0.35064	0.074
Mof_H 	H 	0.2421	0.7666	0.3296	-0.012
Mof_C 	C 	0.28487	0.82006	0.37992	-0.126
Mof_H 	H 	0.2492	0.8473	0.3783	0.084
Mof_C 	C 	0.43782	0.95325	0.55174	-0.106
Mof_C 	C 	0.45938	0.91047	0.5853	0.081
Mof_H 	H 	0.4411	0.8733	0.5818	0.006
Mof_C 	C 	0.50671	0.9212	0.6235	-0.222
Mof_H 	H 	0.5202	0.8917	0.6464	0.129
Mof_C 	C 	0.53429	0.97468	0.62833	0.259
Mof_C 	C 	0.51469	0.01731	0.59524	-0.231
Mof_H 	H 	0.5345	0.054	0.5981	0.12
Mof_C 	C 	0.46656	0.00673	0.55809	0.087
Mof_H 	H 	0.4525	0.0368	0.5361	0.002
Mof_C 	C 	0.58361	0.03485	0.69145	0.212
Mof_C 	C 	0.52333	0.0635	0.70131	-0.149
Mof_H 	H 	0.4811	0.048	0.6902	0.099
Mof_C 	C 	0.5247	0.11457	0.72732	-0.004
Mof_C 	C 	0.58635	0.13568	0.7455	-0.053
Mof_H 	H 	0.5873	0.1703	0.7644	0.074
Mof_C 	C 	0.64627	0.1066	0.73622	0.007
Mof_C 	C 	0.64536	0.05574	0.70846	-0.144
Mof_H 	H 	0.6865	0.0359	0.7014	0.112
Mof_C 	C 	0.45942	0.14649	0.73509	0.307
Mof_C 	C 	0.71202	0.12893	0.75738	0.265
Mof_N 	N 	0.20823	0.10771	0.35938	-0.225
Mof_N 	N 	0.30604	0.9258	0.42242	-0.133
Mof_N 	N 	0.32922	0.73208	0.34993	-0.246
Mof_Ni	Ni	0.3162	0.66476	0.29972	1.079
Mof_O 	O 	0.95578	0.68019	0.27208	-0.272
Mof_O 	O 	0.91264	0.63662	0.20286	-0.414
Mof_O 	O 	0.21078	0.6736	0.28512	-0.382
Mof_O 	O 	0.26743	0.60375	0.249	-0.356
Mof_O 	O 	0.08408	0.48286	0.16562	-0.273
Mof_C 	C 	0.75765	0.61959	0.89307	0.078
Mof_H 	H 	0.7713	0.6581	0.8967	-0.001
Mof_C 	C 	0.78994	0.5796	0.92276	-0.12
Mof_H 	H 	0.8247	0.5907	0.9463	0.073
Mof_C 	C 	0.77167	0.52288	0.91836	0.054
Mof_C 	C 	0.71856	0.51067	0.88495	-0.121
Mof_H 	H 	0.7028	0.4727	0.8814	0.084
Mof_C 	C 	0.68881	0.55344	0.85704	0.08
Mof_H 	H 	0.6522	0.5439	0.8347	0.008
Mof_C 	C 	0.80991	0.47681	0.94493	0.088
Mof_C 	C 	0.85011	0.48607	0.98835	-0.153
Mof_H 	H 	0.8506	0.5225	0.0041	0.084
Mof_C 	C 	0.88944	0.4425	0.00878	0.117
Mof_C 	C 	0.88591	0.38977	0.98457	-0.155
Mof_H 	H 	0.9117	0.3585	0.9972	0.081
Mof_C 	C 	0.84396	0.38349	0.94156	0.081
Mof_C 	C 	0.83971	0.3293	0.91169	0.058
Mof_C 	C 	0.88967	0.2886	0.91101	-0.13
Mof_H 	H 	0.9293	0.2932	0.9317	0.07
Mof_C 	C 	0.88261	0.24076	0.88032	0.08
Mof_H 	H 	0.9177	0.2129	0.8811	-0.004
Mof_C 	C 	0.78123	0.2719	0.85064	0.074
Mof_H 	H 	0.7421	0.2666	0.8296	-0.012
Mof_C 	C 	0.78487	0.32006	0.87992	-0.126
Mof_H 	H 	0.7492	0.3473	0.8783	0.084
Mof_C 	C 	0.93782	0.45325	0.05174	-0.106
Mof_C 	C 	0.95938	0.41047	0.0853	0.081
Mof_H 	H 	0.9411	0.3733	0.0818	0.006
Mof_C 	C 	0.00671	0.4212	0.1235	-0.222
Mof_H 	H 	0.0202	0.3917	0.1464	0.129
Mof_C 	C 	0.03429	0.47468	0.12833	0.259
Mof_C 	C 	0.01469	0.51731	0.09524	-0.231
Mof_H 	H 	0.0345	0.554	0.0981	0.12
Mof_C 	C 	0.96656	0.50673	0.05809	0.087
Mof_H 	H 	0.9525	0.5368	0.0361	0.002
Mof_C 	C 	0.08361	0.53485	0.19145	0.212
Mof_C 	C 	0.02333	0.5635	0.20131	-0.149
Mof_H 	H 	0.9811	0.548	0.1902	0.099
Mof_C 	C 	0.0247	0.61457	0.22732	-0.004
Mof_C 	C 	0.08635	0.63568	0.2455	-0.053
Mof_H 	H 	0.0873	0.6703	0.2644	0.074
Mof_C 	C 	0.14627	0.6066	0.23622	0.007
Mof_C 	C 	0.14536	0.55574	0.20846	-0.144
Mof_H 	H 	0.1865	0.5359	0.2014	0.112
Mof_C 	C 	0.95942	0.64649	0.23509	0.307
Mof_C 	C 	0.21202	0.62893	0.25738	0.265
Mof_N 	N 	0.70823	0.60771	0.85938	-0.225
Mof_N 	N 	0.80604	0.4258	0.92242	-0.133
Mof_N 	N 	0.82922	0.23208	0.84993	-0.246
Mof_Ni	Ni	0.6838	0.66476	0.79972	1.079
Mof_O 	O 	0.04422	0.68019	0.77208	-0.272
Mof_O 	O 	0.08736	0.63662	0.70286	-0.414
Mof_O 	O 	0.78922	0.6736	0.78512	-0.382
Mof_O 	O 	0.73257	0.60375	0.749	-0.356
Mof_O 	O 	0.91592	0.48286	0.66562	-0.273
Mof_C 	C 	0.24235	0.61959	0.39307	0.078
Mof_H 	H 	0.2287	0.6581	0.3967	-0.001
Mof_C 	C 	0.21006	0.5796	0.42276	-0.12
Mof_H 	H 	0.1753	0.5907	0.4463	0.072
Mof_C 	C 	0.22833	0.52288	0.41836	0.054
Mof_C 	C 	0.28144	0.51067	0.38495	-0.121
Mof_H 	H 	0.2972	0.4727	0.3814	0.084
Mof_C 	C 	0.31119	0.55344	0.35704	0.08
Mof_H 	H 	0.3478	0.5439	0.3347	0.008
Mof_C 	C 	0.19009	0.47681	0.44493	0.088
Mof_C 	C 	0.14989	0.48607	0.48835	-0.153
Mof_H 	H 	0.1494	0.5225	0.5041	0.084
Mof_C 	C 	0.11056	0.4425	0.50878	0.117
Mof_C 	C 	0.11409	0.38977	0.48457	-0.155
Mof_H 	H 	0.0883	0.3585	0.4972	0.081
Mof_C 	C 	0.15604	0.38349	0.44156	0.081
Mof_C 	C 	0.16029	0.3293	0.41169	0.058
Mof_C 	C 	0.11033	0.2886	0.41101	-0.13
Mof_H 	H 	0.0707	0.2932	0.4317	0.07
Mof_C 	C 	0.11739	0.24076	0.38032	0.08
Mof_H 	H 	0.0823	0.2129	0.3811	-0.004
Mof_C 	C 	0.21877	0.2719	0.35064	0.074
Mof_H 	H 	0.2579	0.2666	0.3296	-0.012
Mof_C 	C 	0.21513	0.32006	0.37992	-0.126
Mof_H 	H 	0.2508	0.3473	0.3783	0.084
Mof_C 	C 	0.06218	0.45325	0.55174	-0.106
Mof_C 	C 	0.04062	0.41047	0.5853	0.081
Mof_H 	H 	0.0589	0.3733	0.5818	0.006
Mof_C 	C 	0.99329	0.4212	0.6235	-0.222
Mof_H 	H 	0.9798	0.3917	0.6464	0.129
Mof_C 	C 	0.96571	0.47468	0.62833	0.259
Mof_C 	C 	0.98531	0.51731	0.59524	-0.231
Mof_H 	H 	0.9655	0.554	0.5981	0.12
Mof_C 	C 	0.03344	0.50673	0.55809	0.087
Mof_H 	H 	0.0475	0.5368	0.5361	0.002
Mof_C 	C 	0.91639	0.53485	0.69145	0.212
Mof_C 	C 	0.97667	0.5635	0.70131	-0.149
Mof_H 	H 	0.0189	0.548	0.6902	0.099
Mof_C 	C 	0.9753	0.61457	0.72732	-0.004
Mof_C 	C 	0.91365	0.63568	0.7455	-0.053
Mof_H 	H 	0.9127	0.6703	0.7644	0.074
Mof_C 	C 	0.85373	0.6066	0.73622	0.007
Mof_C 	C 	0.85464	0.55574	0.70846	-0.144
Mof_H 	H 	0.8135	0.5359	0.7014	0.112
Mof_C 	C 	0.04058	0.64649	0.73509	0.307
Mof_C 	C 	0.78798	0.62893	0.75738	0.265
Mof_N 	N 	0.29177	0.60771	0.35938	-0.225
Mof_N 	N 	0.19396	0.4258	0.42242	-0.133
Mof_N 	N 	0.17078	0.23208	0.34993	-0.246
Mof_Ni	Ni	0.1838	0.16476	0.29972	1.079
Mof_O 	O 	0.54422	0.18019	0.27208	-0.272
Mof_O 	O 	0.58736	0.13662	0.20286	-0.414
Mof_O 	O 	0.28922	0.1736	0.28512	-0.382
Mof_O 	O 	0.23257	0.10375	0.249	-0.356
Mof_O 	O 	0.41592	0.98286	0.16562	-0.273
Mof_C 	C 	0.74235	0.11959	0.89307	0.078
Mof_H 	H 	0.7287	0.1581	0.8967	-0.001
Mof_C 	C 	0.71006	0.0796	0.92276	-0.12
Mof_H 	H 	0.6753	0.0907	0.9463	0.073
Mof_C 	C 	0.72833	0.02288	0.91836	0.054
Mof_C 	C 	0.78144	0.01067	0.88495	-0.121
Mof_H 	H 	0.7972	0.9727	0.8814	0.084
Mof_C 	C 	0.81119	0.05344	0.85704	0.08
Mof_H 	H 	0.8478	0.0439	0.8347	0.008
Mof_C 	C 	0.69009	0.97681	0.94493	0.088
Mof_C 	C 	0.64989	0.98607	0.98835	-0.153
Mof_H 	H 	0.6494	0.0225	0.0041	0.084
Mof_C 	C 	0.61056	0.9425	0.00878	0.117
Mof_C 	C 	0.61409	0.88977	0.98457	-0.155
Mof_H 	H 	0.5883	0.8585	0.9972	0.081
Mof_C 	C 	0.65604	0.88349	0.94156	0.081
Mof_C 	C 	0.66029	0.8293	0.91169	0.058
Mof_C 	C 	0.61033	0.7886	0.91101	-0.13
Mof_H 	H 	0.5707	0.7932	0.9317	0.07
Mof_C 	C 	0.61739	0.74076	0.88032	0.08
Mof_H 	H 	0.5823	0.7129	0.8811	-0.004
Mof_C 	C 	0.71877	0.7719	0.85064	0.074
Mof_H 	H 	0.7579	0.7666	0.8296	-0.012
Mof_C 	C 	0.71513	0.82006	0.87992	-0.126
Mof_H 	H 	0.7508	0.8473	0.8783	0.084
Mof_C 	C 	0.56218	0.95325	0.05174	-0.106
Mof_C 	C 	0.54062	0.91047	0.0853	0.081
Mof_H 	H 	0.5589	0.8733	0.0818	0.006
Mof_C 	C 	0.49329	0.9212	0.1235	-0.222
Mof_H 	H 	0.4798	0.8917	0.1464	0.129
Mof_C 	C 	0.46571	0.97468	0.12833	0.259
Mof_C 	C 	0.48531	0.01731	0.09524	-0.231
Mof_H 	H 	0.4655	0.054	0.0981	0.12
Mof_C 	C 	0.53344	0.00673	0.05809	0.087
Mof_H 	H 	0.5475	0.0368	0.0361	0.002
Mof_C 	C 	0.41639	0.03485	0.19145	0.212
Mof_C 	C 	0.47667	0.0635	0.20131	-0.149
Mof_H 	H 	0.5189	0.048	0.1902	0.099
Mof_C 	C 	0.4753	0.11457	0.22732	-0.004
Mof_C 	C 	0.41365	0.13568	0.2455	-0.053
Mof_H 	H 	0.4127	0.1703	0.2644	0.074
Mof_C 	C 	0.35373	0.1066	0.23622	0.007
Mof_C 	C 	0.35464	0.05574	0.20846	-0.144
Mof_H 	H 	0.3135	0.0359	0.2014	0.112
Mof_C 	C 	0.54058	0.14649	0.23509	0.307
Mof_C 	C 	0.28798	0.12893	0.25738	0.265
Mof_N 	N 	0.79177	0.10771	0.85938	-0.225
Mof_N 	N 	0.69396	0.9258	0.92242	-0.133
Mof_N 	N 	0.67078	0.73208	0.84993	-0.246
Mof_Ni	Ni	0.3162	0.16476	0.70028	1.079
Mof_O 	O 	0.95578	0.18019	0.72792	-0.272
Mof_O 	O 	0.91264	0.13662	0.79714	-0.414
Mof_O 	O 	0.21078	0.1736	0.71488	-0.382
Mof_O 	O 	0.26743	0.10375	0.751	-0.356
Mof_O 	O 	0.08408	0.98286	0.83438	-0.273
Mof_C 	C 	0.75765	0.11959	0.10693	0.078
Mof_H 	H 	0.7713	0.1581	0.1033	-0.001
Mof_C 	C 	0.78994	0.0796	0.07724	-0.12
Mof_H 	H 	0.8247	0.0907	0.0537	0.073
Mof_C 	C 	0.77167	0.02288	0.08164	0.054
Mof_C 	C 	0.71856	0.01067	0.11505	-0.121
Mof_H 	H 	0.7028	0.9727	0.1186	0.084
Mof_C 	C 	0.68881	0.05344	0.14296	0.08
Mof_H 	H 	0.6522	0.0439	0.1653	0.008
Mof_C 	C 	0.80991	0.97681	0.05507	0.088
Mof_C 	C 	0.85011	0.98607	0.01165	-0.154
Mof_H 	H 	0.8506	0.0225	0.9959	0.084
Mof_C 	C 	0.88944	0.9425	0.99122	0.117
Mof_C 	C 	0.88591	0.88977	0.01543	-0.155
Mof_H 	H 	0.9117	0.8585	0.0028	0.081
Mof_C 	C 	0.84396	0.88349	0.05844	0.081
Mof_C 	C 	0.83971	0.8293	0.08831	0.058
Mof_C 	C 	0.88967	0.7886	0.08899	-0.13
Mof_H 	H 	0.9293	0.7932	0.0683	0.07
Mof_C 	C 	0.88261	0.74076	0.11968	0.08
Mof_H 	H 	0.9177	0.7129	0.1189	-0.004
Mof_C 	C 	0.78123	0.7719	0.14936	0.074
Mof_H 	H 	0.7421	0.7666	0.1704	-0.012
Mof_C 	C 	0.78487	0.82006	0.12008	-0.126
Mof_H 	H 	0.7492	0.8473	0.1217	0.084
Mof_C 	C 	0.93782	0.95325	0.94826	-0.106
Mof_C 	C 	0.95938	0.91047	0.9147	0.081
Mof_H 	H 	0.9411	0.8733	0.9182	0.006
Mof_C 	C 	0.00671	0.9212	0.8765	-0.222
Mof_H 	H 	0.0202	0.8917	0.8536	0.129
Mof_C 	C 	0.03429	0.97468	0.87167	0.259
Mof_C 	C 	0.01469	0.01731	0.90476	-0.231
Mof_H 	H 	0.0345	0.054	0.9019	0.12
Mof_C 	C 	0.96656	0.00673	0.94191	0.087
Mof_H 	H 	0.9525	0.0368	0.9639	0.002
Mof_C 	C 	0.08361	0.03485	0.80855	0.212
Mof_C 	C 	0.02333	0.0635	0.79869	-0.149
Mof_H 	H 	0.9811	0.048	0.8098	0.099
Mof_C 	C 	0.0247	0.11457	0.77268	-0.004
Mof_C 	C 	0.08635	0.13568	0.7545	-0.053
Mof_H 	H 	0.0873	0.1703	0.7356	0.073
Mof_C 	C 	0.14627	0.1066	0.76378	0.007
Mof_C 	C 	0.14536	0.05574	0.79154	-0.144
Mof_H 	H 	0.1865	0.0359	0.7986	0.112
Mof_C 	C 	0.95942	0.14649	0.76491	0.307
Mof_C 	C 	0.21202	0.12893	0.74262	0.265
Mof_N 	N 	0.70823	0.10771	0.14062	-0.225
Mof_N 	N 	0.80604	0.9258	0.07758	-0.133
Mof_N 	N 	0.82922	0.73208	0.15007	-0.246
Mof_Ni	Ni	0.8162	0.66476	0.20028	1.079
Mof_O 	O 	0.45578	0.68019	0.22792	-0.272
Mof_O 	O 	0.41264	0.63662	0.29714	-0.414
Mof_O 	O 	0.71078	0.6736	0.21488	-0.382
Mof_O 	O 	0.76743	0.60375	0.251	-0.356
Mof_O 	O 	0.58408	0.48286	0.33438	-0.273
Mof_C 	C 	0.25765	0.61959	0.60693	0.078
Mof_H 	H 	0.2713	0.6581	0.6033	-0.001
Mof_C 	C 	0.28994	0.5796	0.57724	-0.12
Mof_H 	H 	0.3247	0.5907	0.5537	0.072
Mof_C 	C 	0.27167	0.52288	0.58164	0.054
Mof_C 	C 	0.21856	0.51067	0.61505	-0.121
Mof_H 	H 	0.2028	0.4727	0.6186	0.084
Mof_C 	C 	0.18881	0.55344	0.64296	0.08
Mof_H 	H 	0.1522	0.5439	0.6653	0.008
Mof_C 	C 	0.30991	0.47681	0.55507	0.088
Mof_C 	C 	0.35011	0.48607	0.51165	-0.153
Mof_H 	H 	0.3506	0.5225	0.4959	0.084
Mof_C 	C 	0.38944	0.4425	0.49122	0.117
Mof_C 	C 	0.38591	0.38977	0.51543	-0.155
Mof_H 	H 	0.4117	0.3585	0.5028	0.081
Mof_C 	C 	0.34396	0.38349	0.55844	0.081
Mof_C 	C 	0.33971	0.3293	0.58831	0.058
Mof_C 	C 	0.38967	0.2886	0.58899	-0.13
Mof_H 	H 	0.4293	0.2932	0.5683	0.07
Mof_C 	C 	0.38261	0.24076	0.61968	0.08
Mof_H 	H 	0.4177	0.2129	0.6189	-0.004
Mof_C 	C 	0.28123	0.2719	0.64936	0.074
Mof_H 	H 	0.2421	0.2666	0.6704	-0.012
Mof_C 	C 	0.28487	0.32006	0.62008	-0.126
Mof_H 	H 	0.2492	0.3473	0.6217	0.084
Mof_C 	C 	0.43782	0.45325	0.44826	-0.106
Mof_C 	C 	0.45938	0.41047	0.4147	0.081
Mof_H 	H 	0.4411	0.3733	0.4182	0.006
Mof_C 	C 	0.50671	0.4212	0.3765	-0.222
Mof_H 	H 	0.5202	0.3917	0.3536	0.129
Mof_C 	C 	0.53429	0.47468	0.37167	0.259
Mof_C 	C 	0.51469	0.51731	0.40476	-0.231
Mof_H 	H 	0.5345	0.554	0.4019	0.12
Mof_C 	C 	0.46656	0.50673	0.44191	0.087
Mof_H 	H 	0.4525	0.5368	0.4639	0.002
Mof_C 	C 	0.58361	0.53485	0.30855	0.212
Mof_C 	C 	0.52333	0.5635	0.29869	-0.149
Mof_H 	H 	0.4811	0.548	0.3098	0.099
Mof_C 	C 	0.5247	0.61457	0.27268	-0.004
Mof_C 	C 	0.58635	0.63568	0.2545	-0.053
Mof_H 	H 	0.5873	0.6703	0.2356	0.074
Mof_C 	C 	0.64627	0.6066	0.26378	0.007
Mof_C 	C 	0.64536	0.55574	0.29154	-0.144
Mof_H 	H 	0.6865	0.5359	0.2986	0.112
Mof_C 	C 	0.45942	0.64649	0.26491	0.307
Mof_C 	C 	0.71202	0.62893	0.24262	0.265
Mof_N 	N 	0.20823	0.60771	0.64062	-0.225
Mof_N 	N 	0.30604	0.4258	0.57758	-0.133
Mof_N 	N 	0.32922	0.23208	0.65007	-0.246
_end
