data_functionalizedCrystal
_audit_creation_method	'EQeq! by Chris Wilmer'
_symmetry_space_group_name_H-M	'P1'
_symmetry_Int_Tables_number	1
_symmetry_cell_setting	triclinic
loop_
_symmetry_equiv_pos_as_xyz
  x,y,z
_cell_length_a	28.5554
_cell_length_b	28.5554
_cell_length_c	19.2155
_cell_angle_alpha	90
_cell_angle_beta	90
_cell_angle_gamma	120
loop_
_atom_site_label
_atom_site_type_symbol
_atom_site_fract_x
_atom_site_fract_y
_atom_site_fract_z
_atom_site_charge
Mof_Mn	Mn	0.02029	0.76417	0.08077	0.925
Mof_Mn	Mn	0.73421	0.75516	0.85156	0.935
Mof_Fe	Fe	0.82273	0.64379	0.9655	0.645
Mof_Br	Br	0.09985	0.02679	0.2387	-0.215
Mof_Br	Br	0.21466	0.67239	0.03075	-0.199
Mof_Br	Br	0.92307	0.0232	0.7103	-0.21
Mof_Br	Br	0.44776	0.66195	0.89118	-0.219
Mof_N 	N 	0.97852	0.77141	0.16167	-0.163
Mof_N 	N 	0.00295	0.68976	0.11185	-0.177
Mof_N 	N 	0.7841	0.76467	0.77133	-0.166
Mof_N 	N 	0.67853	0.67983	0.82094	-0.171
Mof_N 	N 	0.93949	0.72441	0.01933	-0.108
Mof_N 	N 	0.77838	0.71787	0.91296	-0.136
Mof_N 	N 	0.70927	0.55477	0.91854	-0.082
Mof_N 	N 	0.85193	0.55808	0.01185	-0.054
Mof_N 	N 	0.7635	0.63219	0.10635	-0.139
Mof_N 	N 	0.87419	0.63874	0.8245	-0.136
Mof_O 	O 	0.04408	0.83616	0.05466	-0.347
Mof_O 	O 	0.06243	0.76014	0.00698	-0.359
Mof_O 	O 	0.781	0.82583	0.88133	-0.353
Mof_O 	O 	0.68699	0.74974	0.92437	-0.364
Mof_C 	C 	0.89613	0.69719	0.99843	-0.118
Mof_C 	C 	0.79775	0.6935	0.93306	-0.092
Mof_C 	C 	0.75201	0.58743	0.93527	-0.115
Mof_C 	C 	0.84067	0.58978	0.99578	-0.141
Mof_C 	C 	0.7884	0.63885	0.05628	-0.069
Mof_C 	C 	0.85461	0.64274	0.87477	-0.091
Mof_C 	C 	0.0592	0.87654	0.09941	0.191
Mof_C 	C 	0.09973	0.92853	0.07951	-0.097
Mof_H 	H 	0.1184	0.9333	0.0368	0.087
Mof_C 	C 	0.1128	0.97271	0.12103	-0.078
Mof_H 	H 	0.1404	0.0077	0.1073	0.099
Mof_C 	C 	0.08494	0.96546	0.18379	0.138
Mof_C 	C 	0.04699	0.91554	0.20612	-0.091
Mof_H 	H 	0.0292	0.9114	0.2494	0.103
Mof_C 	C 	0.03408	0.86973	0.16478	-0.056
Mof_C 	C 	0.99211	0.81784	0.18885	0.053
Mof_H 	H 	0.9724	0.8177	0.2288	0.039
Mof_C 	C 	0.93051	0.72381	0.19109	-0.279
Mof_H 	H 	0.9008	0.7103	0.1566	0.112
Mof_H 	H 	0.9186	0.7352	0.2329	0.116
Mof_C 	C 	0.94019	0.67723	0.21121	0.431
Mof_C 	C 	0.9512	0.65282	0.14614	-0.271
Mof_H 	H 	0.9512	0.6194	0.1596	0.111
Mof_H 	H 	0.9214	0.6427	0.1124	0.108
Mof_C 	C 	0.0377	0.67388	0.10465	0.025
Mof_H 	H 	0.0309	0.6422	0.1293	0.021
Mof_C 	C 	0.08607	0.69974	0.06262	-0.065
Mof_C 	C 	0.12145	0.67893	0.0663	-0.102
Mof_H 	H 	0.1148	0.6509	0.0984	0.085
Mof_C 	C 	0.16571	0.6994	0.0232	0.143
Mof_C 	C 	0.17524	0.73863	0.97418	-0.105
Mof_H 	H 	0.2056	0.7516	0.944	0.078
Mof_C 	C 	0.14037	0.75874	0.96948	-0.145
Mof_H 	H 	0.1468	0.7855	0.9355	0.074
Mof_C 	C 	0.09536	0.74041	0.01401	0.199
Mof_C 	C 	0.88699	0.63318	0.2428	-0.774
Mof_H 	H 	0.8895	0.6007	0.2515	0.253
Mof_H 	H 	0.8573	0.6245	0.2103	0.252
Mof_H 	H 	0.8802	0.6462	0.2867	0.25
Mof_C 	C 	0.98676	0.69625	0.26296	-0.737
Mof_H 	H 	0.0191	0.7273	0.2436	0.239
Mof_H 	H 	0.9942	0.6668	0.2719	0.253
Mof_H 	H 	0.9769	0.7068	0.3066	0.247
Mof_C 	C 	0.80839	0.86773	0.83869	0.178
Mof_C 	C 	0.82247	0.91985	0.86422	-0.088
Mof_H 	H 	0.8091	0.9233	0.908	0.076
Mof_C 	C 	0.85554	0.96543	0.8257	-0.092
Mof_H 	H 	0.8646	0.0002	0.8426	0.101
Mof_C 	C 	0.87552	0.96014	0.76203	0.145
Mof_C 	C 	0.86178	0.91042	0.73632	-0.101
Mof_H 	H 	0.8755	0.9076	0.6925	0.108
Mof_C 	C 	0.82748	0.86321	0.7739	-0.039
Mof_C 	C 	0.81726	0.81161	0.74601	0.031
Mof_H 	H 	0.8368	0.8126	0.7055	0.041
Mof_C 	C 	0.78581	0.71819	0.741	-0.282
Mof_H 	H 	0.8031	0.7054	0.7748	0.11
Mof_H 	H 	0.8088	0.7304	0.6988	0.115
Mof_C 	C 	0.73035	0.67074	0.72135	0.428
Mof_C 	C 	0.69534	0.64487	0.7856	-0.283
Mof_H 	H 	0.6626	0.6109	0.7716	0.11
Mof_H 	H 	0.7158	0.6354	0.8189	0.106
Mof_C 	C 	0.62773	0.66128	0.82956	0.024
Mof_H 	H 	0.6037	0.6274	0.8087	0.021
Mof_C 	C 	0.60395	0.68745	0.86833	-0.064
Mof_C 	C 	0.54756	0.66668	0.86296	-0.101
Mof_H 	H 	0.5266	0.6376	0.8321	0.082
Mof_C 	C 	0.52321	0.68851	0.90242	0.118
Mof_C 	C 	0.55253	0.73018	0.94864	-0.08
Mof_H 	H 	0.5349	0.7448	0.9755	0.074
Mof_C 	C 	0.60748	0.75056	0.95563	-0.12
Mof_H 	H 	0.6274	0.7788	0.988	0.067
Mof_C 	C 	0.63407	0.73008	0.91545	0.172
Mof_C 	C 	0.74055	0.62764	0.6877	-0.765
Mof_H 	H 	0.7623	0.6425	0.6455	0.248
Mof_H 	H 	0.7059	0.5958	0.6756	0.25
Mof_H 	H 	0.7599	0.6172	0.7206	0.249
Mof_C 	C 	0.70103	0.68903	0.67047	-0.752
Mof_H 	H 	0.6952	0.7166	0.6928	0.25
Mof_H 	H 	0.6661	0.6579	0.6576	0.253
Mof_H 	H 	0.7231	0.7043	0.6286	0.249
Mof_Mn	Mn	0.68669	0.59049	0.18345	0.939
Mof_Fe	Fe	0.48742	0.51027	0.29513	0.648
Mof_Br	Br	0.76744	0.40766	0.02765	-0.207
Mof_Br	Br	0.88308	0.87547	0.23211	-0.208
Mof_N 	N 	0.6453	0.54149	0.10259	-0.171
Mof_N 	N 	0.66928	0.64747	0.15276	-0.179
Mof_N 	N 	0.60545	0.54874	0.2445	-0.137
Mof_N 	N 	0.37286	0.48461	0.33982	-0.082
Mof_N 	N 	0.51546	0.62426	0.24669	-0.081
Mof_O 	O 	0.71081	0.54286	0.21032	-0.35
Mof_O 	O 	0.72791	0.63627	0.2578	-0.363
Mof_C 	C 	0.56161	0.53199	0.26396	-0.087
Mof_C 	C 	0.41579	0.4949	0.32449	-0.106
Mof_C 	C 	0.50417	0.58191	0.26382	-0.105
Mof_C 	C 	0.7261	0.51733	0.1661	0.186
Mof_C 	C 	0.76685	0.50551	0.1861	-0.1
Mof_H 	H 	0.7854	0.5191	0.2289	0.086
Mof_C 	C 	0.77987	0.47485	0.1445	-0.059
Mof_H 	H 	0.8077	0.4677	0.158	0.083
Mof_C 	C 	0.75221	0.4542	0.0825	0.145
Mof_C 	C 	0.71392	0.46581	0.05934	-0.099
Mof_H 	H 	0.6962	0.4518	0.0162	0.118
Mof_C 	C 	0.70108	0.49881	0.10028	-0.034
Mof_C 	C 	0.65889	0.50843	0.07531	0.033
Mof_H 	H 	0.6394	0.4888	0.0353	0.048
Mof_C 	C 	0.59734	0.54116	0.07298	-0.237
Mof_H 	H 	0.5675	0.5248	0.1073	0.099
Mof_H 	H 	0.5856	0.518	0.0309	0.111
Mof_C 	C 	0.60723	0.59713	0.05349	0.328
Mof_C 	C 	0.6173	0.63265	0.11785	-0.233
Mof_H 	H 	0.6174	0.6661	0.1038	0.1
Mof_H 	H 	0.5873	0.6131	0.1513	0.092
Mof_C 	C 	0.70328	0.69799	0.16157	0.025
Mof_H 	H 	0.6955	0.7229	0.139	0.026
Mof_C 	C 	0.7522	0.7205	0.20257	-0.064
Mof_C 	C 	0.78826	0.77649	0.19778	-0.098
Mof_H 	H 	0.7819	0.7978	0.1653	0.086
Mof_C 	C 	0.83275	0.80006	0.24036	0.117
Mof_C 	C 	0.84262	0.76978	0.28911	-0.075
Mof_H 	H 	0.8736	0.7867	0.3182	0.075
Mof_C 	C 	0.80707	0.71524	0.29466	-0.122
Mof_H 	H 	0.8134	0.6948	0.3285	0.073
Mof_C 	C 	0.76157	0.68921	0.25117	0.173
Mof_C 	C 	0.55335	0.58785	0.0216	-0.599
Mof_H 	H 	0.5456	0.5666	0.9788	0.183
Mof_H 	H 	0.5564	0.6228	0.0108	0.212
Mof_H 	H 	0.5239	0.5683	0.055	0.204
Mof_C 	C 	0.65364	0.6255	0.0013	-0.527
Mof_H 	H 	0.6865	0.6279	0.0207	0.194
Mof_H 	H 	0.66	0.662	0.9919	0.172
Mof_H 	H 	0.6441	0.6048	0.9579	0.169
Mof_Mn	Mn	0.40196	0.31215	0.41267	0.936
Mof_Br	Br	0.59084	0.23394	0.55612	-0.226
Mof_Br	Br	0.11447	0.12077	0.37166	-0.208
Mof_N 	N 	0.45209	0.35305	0.49274	-0.166
Mof_N 	N 	0.34631	0.33138	0.4439	-0.174
Mof_N 	N 	0.43075	0.46027	0.15356	-0.136
Mof_N 	N 	0.44522	0.39288	0.35066	-0.137
Mof_O 	O 	0.44926	0.2885	0.38376	-0.355
Mof_O 	O 	0.35436	0.26925	0.3408	-0.366
Mof_C 	C 	0.45449	0.47934	0.20446	-0.095
Mof_C 	C 	0.46373	0.4365	0.32901	-0.089
Mof_C 	C 	0.47658	0.27413	0.42564	0.194
Mof_C 	C 	0.49043	0.23584	0.40167	-0.109
Mof_H 	H 	0.4766	0.2181	0.35847	0.089
Mof_C 	C 	0.52377	0.22404	0.44027	-0.057
Mof_H 	H 	0.5335	0.1988	0.42327	0.084
Mof_C 	C 	0.54315	0.24912	0.50434	0.142
Mof_C 	C 	0.52939	0.28523	0.52987	-0.095
Mof_H 	H 	0.5429	0.3019	0.57377	0.107
Mof_C 	C 	0.49518	0.29778	0.49135	-0.045
Mof_C 	C 	0.48489	0.33897	0.51874	0.034
Mof_H 	H 	0.504	0.3573	0.55957	0.04
Mof_C 	C 	0.45397	0.4014	0.52308	-0.286
Mof_H 	H 	0.4709	0.4314	0.48907	0.111
Mof_H 	H 	0.4772	0.4123	0.56497	0.117
Mof_C 	C 	0.39836	0.39303	0.54323	0.436
Mof_C 	C 	0.36268	0.38335	0.47885	-0.282
Mof_H 	H 	0.3298	0.3843	0.49307	0.109
Mof_H 	H 	0.3827	0.4131	0.44527	0.105
Mof_C 	C 	0.29527	0.29853	0.43624	0.023
Mof_H 	H 	0.2713	0.3077	0.45867	0.022
Mof_C 	C 	0.27125	0.24915	0.39669	-0.065
Mof_C 	C 	0.21503	0.21508	0.40195	-0.098
Mof_H 	H 	0.1944	0.2237	0.43267	0.081
Mof_C 	C 	0.19027	0.16902	0.36187	0.117
Mof_C 	C 	0.21932	0.15649	0.31436	-0.075
Mof_H 	H 	0.2013	0.1249	0.28637	0.081
Mof_C 	C 	0.27404	0.1902	0.3084	-0.12
Mof_H 	H 	0.2938	0.1817	0.27587	0.074
Mof_C 	C 	0.30163	0.23716	0.34936	0.174
Mof_C 	C 	0.40835	0.44633	0.57617	-0.768
Mof_H 	H 	0.3736	0.4435	0.58787	0.251
Mof_H 	H 	0.4278	0.476	0.54307	0.249
Mof_H 	H 	0.43	0.4535	0.61857	0.248
Mof_C 	C 	0.36941	0.34595	0.59407	-0.768
Mof_H 	H 	0.3642	0.3126	0.57217	0.255
Mof_H 	H 	0.3342	0.3417	0.60627	0.258
Mof_H 	H 	0.3913	0.3533	0.63617	0.254
Mof_N 	N 	0.53647	0.56922	0.43571	-0.137
Mof_C 	C 	0.51762	0.54446	0.38576	-0.094
Mof_Mn	Mn	0.35425	0.92626	0.18016	0.933
Mof_Mn	Mn	0.07104	0.64635	0.40932	0.932
Mof_Fe	Fe	0.15719	0.84669	0.29836	0.65
Mof_Br	Br	0.43259	0.74026	0.02755	-0.208
Mof_Br	Br	0.54574	0.21414	0.22649	-0.205
Mof_Br	Br	0.25686	0.56579	0.55617	-0.227
Mof_Br	Br	0.78634	0.45012	0.36597	-0.21
Mof_N 	N 	0.31235	0.87658	0.09953	-0.159
Mof_N 	N 	0.33619	0.98273	0.14889	-0.175
Mof_N 	N 	0.12034	0.68679	0.48986	-0.167
Mof_N 	N 	0.01479	0.665	0.43975	-0.178
Mof_N 	N 	0.04375	0.82121	0.34708	-0.084
Mof_N 	N 	0.11479	0.72792	0.3485	-0.137
Mof_N 	N 	0.27372	0.88495	0.24217	-0.137
Mof_N 	N 	0.18497	0.96172	0.25444	-0.085
Mof_N 	N 	0.20886	0.90228	0.43995	-0.137
Mof_N 	N 	0.09712	0.79901	0.15794	-0.138
Mof_O 	O 	0.37761	0.87814	0.20723	-0.354
Mof_O 	O 	0.39718	0.97335	0.25273	-0.378
Mof_O 	O 	0.11796	0.62181	0.38085	-0.354
Mof_O 	O 	0.02478	0.60534	0.33521	-0.376
Mof_C 	C 	0.08694	0.83187	0.33026	-0.113
Mof_C 	C 	0.13313	0.77171	0.32918	-0.086
Mof_C 	C 	0.23013	0.86786	0.26367	-0.091
Mof_C 	C 	0.17424	0.9186	0.26958	-0.109
Mof_C 	C 	0.18917	0.87903	0.38965	-0.093
Mof_C 	C 	0.12181	0.8174	0.20776	-0.093
Mof_C 	C 	0.39275	0.85241	0.16396	0.191
Mof_C 	C 	0.43207	0.8391	0.18509	-0.106
Mof_H 	H 	0.45	0.8521	0.2284	0.088
Mof_C 	C 	0.44464	0.80779	0.1442	-0.057
Mof_H 	H 	0.4718	0.7999	0.1587	0.082
Mof_C 	C 	0.41796	0.78747	0.08135	0.146
Mof_C 	C 	0.38082	0.80016	0.05798	-0.099
Mof_H 	H 	0.3633	0.7866	0.0146	0.118
Mof_C 	C 	0.36843	0.83364	0.09849	-0.036
Mof_C 	C 	0.32622	0.84382	0.0729	0.028
Mof_H 	H 	0.307	0.8243	0.0327	0.049
Mof_C 	C 	0.26406	0.87575	0.07025	-0.314
Mof_H 	H 	0.2345	0.8597	0.105	0.12
Mof_H 	H 	0.252	0.8522	0.0286	0.133
Mof_C 	C 	0.2738	0.93168	0.05	0.493
Mof_C 	C 	0.28435	0.96712	0.11396	-0.333
Mof_H 	H 	0.284	0.0003	0.0999	0.137
Mof_H 	H 	0.2545	0.9475	0.1477	0.117
Mof_C 	C 	0.37015	0.03342	0.15557	0.04
Mof_H 	H 	0.3625	0.0577	0.131	0.023
Mof_C 	C 	0.41902	0.057	0.19705	-0.073
Mof_C 	C 	0.45338	0.11321	0.19263	-0.089
Mof_H 	H 	0.4459	0.134	0.1606	0.083
Mof_C 	C 	0.49815	0.13793	0.23531	0.113
Mof_C 	C 	0.50898	0.10844	0.28296	-0.069
Mof_H 	H 	0.5398	0.1261	0.3123	0.076
Mof_C 	C 	0.47519	0.0535	0.28814	-0.132
Mof_H 	H 	0.4828	0.0336	0.3215	0.08
Mof_C 	C 	0.42958	0.02604	0.2451	0.196
Mof_C 	C 	0.22025	0.92216	0.0177	-0.74
Mof_H 	H 	0.2124	0.9001	0.9756	0.222
Mof_H 	H 	0.2235	0.957	0.0057	0.248
Mof_H 	H 	0.1908	0.9033	0.0513	0.242
Mof_C 	C 	0.32027	0.95965	0.998	-0.91
Mof_H 	H 	0.3533	0.9629	0.0182	0.31
Mof_H 	H 	0.3261	0.9957	0.9873	0.285
Mof_H 	H 	0.3112	0.9382	0.9552	0.286
Mof_C 	C 	0.14475	0.60757	0.42361	0.193
Mof_C 	C 	0.15739	0.56789	0.4013	-0.108
Mof_H 	H 	0.1432	0.5497	0.3584	0.088
Mof_C 	C 	0.18954	0.55523	0.4402	-0.055
Mof_H 	H 	0.1978	0.5287	0.4242	0.08
Mof_C 	C 	0.21023	0.58156	0.5035	0.141
Mof_C 	C 	0.19738	0.6187	0.5285	-0.094
Mof_H 	H 	0.2113	0.6358	0.5721	0.107
Mof_C 	C 	0.16343	0.63155	0.48934	-0.045
Mof_C 	C 	0.15367	0.67311	0.51611	0.033
Mof_H 	H 	0.1733	0.6921	0.5564	0.04
Mof_C 	C 	0.1216	0.73482	0.52041	-0.286
Mof_H 	H 	0.139	0.7651	0.4869	0.111
Mof_H 	H 	0.1443	0.7455	0.5629	0.115
Mof_C 	C 	0.06564	0.72635	0.53956	0.444
Mof_C 	C 	0.03075	0.7168	0.47488	-0.311
Mof_H 	H 	0.9977	0.7176	0.4886	0.127
Mof_H 	H 	0.051	0.7467	0.4416	0.112
Mof_C 	C 	0.96387	0.63198	0.43075	0.038
Mof_H 	H 	0.9393	0.6409	0.4521	0.018
Mof_C 	C 	0.941	0.58235	0.39083	-0.074
Mof_C 	C 	0.88491	0.54649	0.39627	-0.091
Mof_H 	H 	0.8636	0.554	0.4274	0.08
Mof_C 	C 	0.8614	0.50039	0.35586	0.114
Mof_C 	C 	0.89128	0.48963	0.30843	-0.069
Mof_H 	H 	0.8741	0.4578	0.2807	0.076
Mof_C 	C 	0.94567	0.5249	0.30154	-0.129
Mof_H 	H 	0.9658	0.5178	0.2681	0.081
Mof_C 	C 	0.97217	0.5716	0.34351	0.193
Mof_C 	C 	0.07555	0.77934	0.57256	-0.782
Mof_H 	H 	0.0409	0.7757	0.5869	0.251
Mof_H 	H 	0.0931	0.8087	0.5387	0.253
Mof_H 	H 	0.0989	0.7874	0.6134	0.251
Mof_C 	C 	0.03673	0.67912	0.59065	-0.764
Mof_H 	H 	0.0015	0.6748	0.6032	0.252
Mof_H 	H 	0.0588	0.6865	0.6327	0.25
Mof_H 	H 	0.0314	0.6458	0.5688	0.253
Mof_Mn	Mn	0.91019	0.59804	0.746	0.936
Mof_Br	Br	0.6431	0.40916	0.88945	-0.24
Mof_Br	Br	0.0063	0.88553	0.70499	-0.234
Mof_N 	N 	0.90096	0.54791	0.82607	-0.166
Mof_N 	N 	0.98507	0.65369	0.77723	-0.155
Mof_N 	N 	0.02952	0.56925	0.48689	-0.139
Mof_N 	N 	0.94766	0.55478	0.68399	-0.138
Mof_O 	O 	0.83924	0.55074	0.71709	-0.356
Mof_O 	O 	0.91489	0.64564	0.67413	-0.358
Mof_C 	C 	0.02485	0.54551	0.53779	-0.1
Mof_C 	C 	0.97277	0.53627	0.66234	-0.076
Mof_C 	C 	0.79755	0.52342	0.75897	0.195
Mof_C 	C 	0.74541	0.50957	0.735	-0.11
Mof_H 	H 	0.7415	0.5234	0.6918	0.089
Mof_C 	C 	0.70027	0.47623	0.7736	-0.057
Mof_H 	H 	0.6653	0.4665	0.7566	0.083
Mof_C 	C 	0.70597	0.45685	0.83767	0.14
Mof_C 	C 	0.75584	0.47061	0.8632	-0.093
Mof_H 	H 	0.759	0.4571	0.9071	0.1
Mof_C 	C 	0.8026	0.50482	0.82468	-0.047
Mof_C 	C 	0.85408	0.51511	0.85207	0.035
Mof_H 	H 	0.8533	0.496	0.8929	0.036
Mof_C 	C 	0.94743	0.54603	0.85641	-0.289
Mof_H 	H 	0.9605	0.5291	0.8224	0.115
Mof_H 	H 	0.9351	0.5228	0.8983	0.117
Mof_C 	C 	0.99467	0.60164	0.87656	0.447
Mof_C 	C 	0.02067	0.63732	0.81218	-0.306
Mof_H 	H 	0.0545	0.6702	0.8264	0.114
Mof_H 	H 	0.0304	0.6173	0.7786	0.109
Mof_C 	C 	0.00326	0.70473	0.76957	-0.023
Mof_H 	H 	0.0364	0.7287	0.792	0.034
Mof_C 	C 	0.9779	0.72875	0.73002	-0.011
Mof_C 	C 	5e-05	0.78497	0.73528	-0.16
Mof_H 	H 	0.0293	0.8056	0.766	0.098
Mof_C 	C 	0.97875	0.80973	0.6952	0.162
Mof_C 	C 	0.93717	0.78068	0.64769	-0.105
Mof_H 	H 	0.9236	0.7987	0.6197	0.091
Mof_C 	C 	0.91616	0.72596	0.64173	-0.092
Mof_H 	H 	0.8879	0.7062	0.6092	0.064
Mof_C 	C 	0.93553	0.69837	0.68269	0.149
Mof_C 	C 	0.03798	0.59165	0.9095	-0.778
Mof_H 	H 	0.0699	0.6264	0.9212	0.249
Mof_H 	H 	0.0482	0.5722	0.8764	0.249
Mof_H 	H 	0.0235	0.57	0.9519	0.242
Mof_C 	C 	0.97654	0.63059	0.9274	-0.733
Mof_H 	H 	0.9484	0.6358	0.9055	0.245
Mof_H 	H 	0.0075	0.6658	0.9396	0.235
Mof_H 	H 	0.962	0.6087	0.9695	0.239
Mof_N 	N 	0.03275	0.46353	0.76905	-0.14
Mof_C 	C 	0.02684	0.48238	0.7191	-0.097
Mof_Mn	Mn	0.9038	0.31331	0.51678	0.937
Mof_Fe	Fe	0.02285	0.51258	0.62846	0.633
Mof_Br	Br	0.64023	0.23256	0.36098	-0.226
Mof_Br	Br	0.9924	0.11692	0.56544	-0.197
Mof_N 	N 	0.89619	0.3547	0.43592	-0.164
Mof_N 	N 	0.97819	0.33072	0.48609	-0.172
Mof_N 	N 	0.94329	0.39455	0.57783	-0.137
Mof_N 	N 	0.11175	0.62714	0.67315	-0.083
Mof_N 	N 	0.1088	0.48454	0.58002	-0.083
Mof_O 	O 	0.83205	0.28919	0.54365	-0.35
Mof_O 	O 	0.90836	0.27209	0.59113	-0.365
Mof_C 	C 	0.97038	0.43839	0.59729	-0.075
Mof_C 	C 	0.07911	0.58421	0.65782	-0.105
Mof_C 	C 	0.07774	0.49583	0.59715	-0.105
Mof_C 	C 	0.79123	0.2739	0.49943	0.185
Mof_C 	C 	0.73866	0.23315	0.51943	-0.101
Mof_H 	H 	0.7337	0.2146	0.56223	0.086
Mof_C 	C 	0.69498	0.22013	0.47783	-0.059
Mof_H 	H 	0.66	0.1923	0.49133	0.082
Mof_C 	C 	0.70199	0.24779	0.41583	0.144
Mof_C 	C 	0.75189	0.28608	0.39267	-0.1
Mof_H 	H 	0.7556	0.3038	0.34953	0.111
Mof_C 	C 	0.79773	0.29892	0.43361	-0.036
Mof_C 	C 	0.84954	0.34111	0.40864	0.029
Mof_H 	H 	0.8494	0.3606	0.36863	0.043
Mof_C 	C 	0.94382	0.40266	0.40631	-0.294
Mof_H 	H 	0.9573	0.4325	0.44063	0.116
Mof_H 	H 	0.9324	0.4144	0.36423	0.121
Mof_C 	C 	0.9899	0.39277	0.38682	0.45
Mof_C 	C 	0.01535	0.3827	0.45118	-0.307
Mof_H 	H 	0.0487	0.3826	0.43713	0.115
Mof_H 	H 	0.0258	0.4127	0.48463	0.109
Mof_C 	C 	0.99471	0.29672	0.4949	0.052
Mof_H 	H 	0.0274	0.3045	0.47233	0.006
Mof_C 	C 	0.9683	0.2478	0.5359	-0.084
Mof_C 	C 	0.98823	0.21174	0.53111	-0.062
Mof_H 	H 	0.0159	0.2181	0.49863	0.062
Mof_C 	C 	0.96731	0.16725	0.57369	0.102
Mof_C 	C 	0.92716	0.15738	0.62244	-0.062
Mof_H 	H 	0.9131	0.1264	0.65153	0.072
Mof_C 	C 	0.90817	0.19293	0.62799	-0.133
Mof_H 	H 	0.8814	0.1866	0.66183	0.077
Mof_C 	C 	0.92764	0.23843	0.5845	0.185
Mof_C 	C 	0.0345	0.44665	0.35493	-0.779
Mof_H 	H 	0.021	0.4544	0.31213	0.247
Mof_H 	H 	0.0664	0.4436	0.34413	0.253
Mof_H 	H 	0.0444	0.4761	0.38833	0.249
Mof_C 	C 	0.97186	0.34636	0.33463	-0.741
Mof_H 	H 	0.9414	0.3135	0.35403	0.25
Mof_H 	H 	0.002	0.34	0.32523	0.242
Mof_H 	H 	0.9607	0.3559	0.29123	0.249
Mof_N 	N 	0.43078	0.96725	0.10238	-0.143
Mof_C 	C 	0.45554	0.97316	0.05243	-0.076
Mof_Mn	Mn	0.40951	0.0962	0.85012	0.935
Mof_Fe	Fe	0.48973	0.97715	0.9618	0.626
Mof_Br	Br	0.59234	0.35977	0.69432	-0.227
Mof_Br	Br	0.12453	0.0076	0.89878	-0.214
Mof_N 	N 	0.45851	0.10381	0.76926	-0.164
Mof_N 	N 	0.35253	0.02181	0.81943	-0.172
Mof_N 	N 	0.45126	0.05671	0.91117	-0.139
Mof_N 	N 	0.51539	0.88825	0.00649	-0.057
Mof_N 	N 	0.37574	0.8912	0.91336	-0.087
Mof_O 	O 	0.45714	0.16795	0.87699	-0.353
Mof_O 	O 	0.36373	0.09164	0.92447	-0.369
Mof_C 	C 	0.46801	0.02962	0.93063	-0.082
Mof_C 	C 	0.5051	0.92089	0.99116	-0.137
Mof_C 	C 	0.41809	0.92226	0.93049	-0.113
Mof_C 	C 	0.48267	0.20877	0.83277	0.184
Mof_C 	C 	0.49449	0.26134	0.85277	-0.101
Mof_H 	H 	0.4809	0.2663	0.89557	0.082
Mof_C 	C 	0.52515	0.30502	0.81117	-0.061
Mof_H 	H 	0.5323	0.34	0.82467	0.081
Mof_C 	C 	0.5458	0.29801	0.74917	0.144
Mof_C 	C 	0.53419	0.24811	0.72601	-0.101
Mof_H 	H 	0.5482	0.2444	0.68287	0.111
Mof_C 	C 	0.50119	0.20227	0.76695	-0.036
Mof_C 	C 	0.49157	0.15046	0.74198	0.028
Mof_H 	H 	0.5112	0.1506	0.70197	0.043
Mof_C 	C 	0.45884	0.05618	0.73965	-0.294
Mof_H 	H 	0.4752	0.0427	0.77397	0.117
Mof_H 	H 	0.482	0.0676	0.69757	0.12
Mof_C 	C 	0.40287	0.0101	0.72016	0.451
Mof_C 	C 	0.36735	0.98465	0.78452	-0.308
Mof_H 	H 	0.3339	0.9513	0.77047	0.114
Mof_H 	H 	0.3869	0.9742	0.81797	0.108
Mof_C 	C 	0.30201	0.00529	0.82824	0.052
Mof_H 	H 	0.2771	0.9726	0.80567	0.004
Mof_C 	C 	0.2795	0.0317	0.86924	-0.087
Mof_C 	C 	0.22351	0.01177	0.86445	-0.061
Mof_H 	H 	0.2022	0.9841	0.83197	0.06
Mof_C 	C 	0.19994	0.03269	0.90703	0.099
Mof_C 	C 	0.23022	0.07284	0.95578	-0.064
Mof_H 	H 	0.2133	0.0869	0.98487	0.065
Mof_C 	C 	0.28476	0.09183	0.96133	-0.136
Mof_H 	H 	0.3052	0.1186	0.99517	0.071
Mof_C 	C 	0.31079	0.07236	0.91784	0.183
Mof_C 	C 	0.41215	0.9655	0.68827	-0.78
Mof_H 	H 	0.4334	0.979	0.64547	0.247
Mof_H 	H 	0.3772	0.9336	0.67747	0.253
Mof_H 	H 	0.4317	0.9556	0.72167	0.249
Mof_C 	C 	0.3745	0.02814	0.66797	-0.74
Mof_H 	H 	0.3721	0.0586	0.68737	0.25
Mof_H 	H 	0.338	0.998	0.65857	0.242
Mof_H 	H 	0.3952	0.0393	0.62457	0.248
Mof_Mn	Mn	0.68785	0.08981	0.07933	0.94
Mof_Br	Br	0.76606	0.3569	0.22278	-0.225
Mof_Br	Br	0.87923	0.9937	0.03832	-0.212
Mof_N 	N 	0.64695	0.09904	0.1594	-0.164
Mof_N 	N 	0.66862	0.01493	0.11056	-0.151
Mof_N 	N 	0.53973	0.97048	0.82022	-0.14
Mof_N 	N 	0.60712	0.05234	0.01732	-0.116
Mof_O 	O 	0.7115	0.16076	0.05042	-0.35
Mof_O 	O 	0.73075	0.08511	0.00746	-0.353
Mof_C 	C 	0.52066	0.97515	0.87112	-0.099
Mof_C 	C 	0.5635	0.02723	0.99567	-0.106
Mof_C 	C 	0.72587	0.20245	0.0923	0.196
Mof_C 	C 	0.76416	0.25459	0.06833	-0.107
Mof_H 	H 	0.7819	0.2585	0.02513	0.097
Mof_C 	C 	0.77596	0.29973	0.10693	-0.056
Mof_H 	H 	0.8012	0.3347	0.08993	0.088
Mof_C 	C 	0.75088	0.29403	0.171	0.142
Mof_C 	C 	0.71477	0.24416	0.19653	-0.094
Mof_H 	H 	0.6981	0.241	0.24043	0.107
Mof_C 	C 	0.70222	0.1974	0.15801	-0.044
Mof_C 	C 	0.66103	0.14592	0.1854	0.034
Mof_H 	H 	0.6427	0.1467	0.22623	0.041
Mof_C 	C 	0.5986	0.05257	0.18974	-0.299
Mof_H 	H 	0.5686	0.0395	0.15573	0.12
Mof_H 	H 	0.5877	0.0649	0.23163	0.122
Mof_C 	C 	0.60697	0.00533	0.20989	0.465
Mof_C 	C 	0.61665	0.97933	0.14551	-0.319
Mof_H 	H 	0.6157	0.9455	0.15973	0.12
Mof_H 	H 	0.5869	0.9696	0.11193	0.116
Mof_C 	C 	0.70147	0.99674	0.1029	-0.023
Mof_H 	H 	0.6923	0.9636	0.12533	0.038
Mof_C 	C 	0.75085	0.0221	0.06335	-0.006
Mof_C 	C 	0.78492	0.99995	0.06861	-0.167
Mof_H 	H 	0.7763	0.9707	0.09933	0.105
Mof_C 	C 	0.83098	0.02125	0.02853	0.192
Mof_C 	C 	0.84351	0.06283	0.98102	-0.133
Mof_H 	H 	0.8751	0.0764	0.95303	0.095
Mof_C 	C 	0.8098	0.08384	0.97506	-0.115
Mof_H 	H 	0.8183	0.1121	0.94253	0.068
Mof_C 	C 	0.76284	0.06447	0.01602	0.175
Mof_C 	C 	0.55367	0.96202	0.24283	-0.802
Mof_H 	H 	0.5565	0.9301	0.25453	0.26
Mof_H 	H 	0.524	0.9518	0.20973	0.257
Mof_H 	H 	0.5465	0.9765	0.28523	0.253
Mof_C 	C 	0.65405	0.02346	0.26073	-0.754
Mof_H 	H 	0.6874	0.0516	0.23883	0.253
Mof_H 	H 	0.6583	0.9925	0.27293	0.246
Mof_H 	H 	0.6467	0.038	0.30283	0.252
Mof_Mn	Mn	0.23583	0.25612	0.74744	0.932
Mof_Mn	Mn	0.24484	0.97905	0.51823	0.924
Mof_Fe	Fe	0.35621	0.17894	0.63217	0.649
Mof_Br	Br	0.97321	0.07306	0.90537	-0.226
Mof_Br	Br	0.32761	0.54227	0.69742	-0.214
Mof_Br	Br	0.9768	0.89987	0.37697	-0.216
Mof_Br	Br	0.33805	0.7858	0.55784	-0.209
Mof_N 	N 	0.22859	0.20711	0.82834	-0.166
Mof_N 	N 	0.31024	0.31319	0.77852	-0.172
Mof_N 	N 	0.23533	0.01943	0.438	-0.166
Mof_N 	N 	0.32017	0.9987	0.48761	-0.18
Mof_N 	N 	0.27559	0.21508	0.686	-0.137
Mof_N 	N 	0.28213	0.06051	0.57963	-0.132
Mof_N 	N 	0.44523	0.1545	0.58521	-0.08
Mof_N 	N 	0.44192	0.29385	0.67852	-0.082
Mof_N 	N 	0.36781	0.13131	0.77302	-0.138
Mof_N 	N 	0.36126	0.23545	0.49117	-0.137
Mof_O 	O 	0.16384	0.20792	0.72133	-0.349
Mof_O 	O 	0.23986	0.30229	0.67365	-0.363
Mof_O 	O 	0.17417	0.95517	0.548	-0.355
Mof_O 	O 	0.25026	0.93725	0.59104	-0.364
Mof_C 	C 	0.30281	0.19894	0.6651	-0.086
Mof_C 	C 	0.3065	0.10425	0.59973	-0.085
Mof_C 	C 	0.41257	0.16458	0.60194	-0.108
Mof_C 	C 	0.41022	0.25089	0.66245	-0.108
Mof_C 	C 	0.36115	0.14955	0.72295	-0.094
Mof_C 	C 	0.35726	0.21187	0.54144	-0.093
Mof_C 	C 	0.12346	0.18266	0.76608	0.185
Mof_C 	C 	0.07147	0.1712	0.74618	-0.094
Mof_H 	H 	0.0667	0.1851	0.70347	0.081
Mof_C 	C 	0.02729	0.14009	0.7877	-0.08
Mof_H 	H 	0.9923	0.1327	0.77397	0.096
Mof_C 	C 	0.03454	0.11948	0.85046	0.142
Mof_C 	C 	0.08446	0.13145	0.87279	-0.099
Mof_H 	H 	0.0886	0.1178	0.91607	0.104
Mof_C 	C 	0.13027	0.16435	0.83145	-0.039
Mof_C 	C 	0.18216	0.17427	0.85552	0.031
Mof_H 	H 	0.1823	0.1547	0.89547	0.04
Mof_C 	C 	0.27619	0.2067	0.85776	-0.283
Mof_H 	H 	0.2897	0.1905	0.82327	0.11
Mof_H 	H 	0.2648	0.1834	0.89957	0.115
Mof_C 	C 	0.32277	0.26296	0.87788	0.435
Mof_C 	C 	0.34718	0.29838	0.81281	-0.282
Mof_H 	H 	0.3806	0.3318	0.82627	0.109
Mof_H 	H 	0.3573	0.2787	0.77907	0.105
Mof_C 	C 	0.32612	0.36382	0.77132	0.021
Mof_H 	H 	0.3578	0.3887	0.79597	0.022
Mof_C 	C 	0.30026	0.38633	0.72929	-0.065
Mof_C 	C 	0.32107	0.44252	0.73297	-0.099
Mof_H 	H 	0.3491	0.4639	0.76507	0.081
Mof_C 	C 	0.3006	0.46631	0.68987	0.117
Mof_C 	C 	0.26137	0.43661	0.64085	-0.078
Mof_H 	H 	0.2484	0.454	0.61067	0.076
Mof_C 	C 	0.24126	0.38163	0.63615	-0.121
Mof_H 	H 	0.2145	0.3613	0.60217	0.072
Mof_C 	C 	0.25959	0.35495	0.68068	0.174
Mof_C 	C 	0.36682	0.25381	0.90947	-0.77
Mof_H 	H 	0.3993	0.2888	0.91817	0.247
Mof_H 	H 	0.3755	0.2328	0.87697	0.249
Mof_H 	H 	0.3538	0.234	0.95337	0.243
Mof_C 	C 	0.30375	0.29051	0.92963	-0.764
Mof_H 	H 	0.2727	0.2918	0.91027	0.253
Mof_H 	H 	0.3332	0.3274	0.93857	0.25
Mof_H 	H 	0.2932	0.2701	0.97327	0.244
Mof_C 	C 	0.13227	0.94066	0.50536	0.186
Mof_C 	C 	0.08015	0.90262	0.53089	-0.096
Mof_H 	H 	0.0767	0.8858	0.57467	0.083
Mof_C 	C 	0.03457	0.89011	0.49237	-0.084
Mof_H 	H 	0.9998	0.8644	0.50927	0.099
Mof_C 	C 	0.03986	0.91538	0.4287	0.138
Mof_C 	C 	0.08958	0.95136	0.40299	-0.091
Mof_H 	H 	0.0924	0.9679	0.35917	0.1
Mof_C 	C 	0.13679	0.96427	0.44057	-0.06
Mof_C 	C 	0.18839	0.00565	0.41268	0.053
Mof_H 	H 	0.1874	0.0242	0.37217	0.037
Mof_C 	C 	0.28181	0.06762	0.40767	-0.27
Mof_H 	H 	0.2946	0.0977	0.44147	0.107
Mof_H 	H 	0.2696	0.0784	0.36547	0.112
Mof_C 	C 	0.32926	0.05961	0.38802	0.409
Mof_C 	C 	0.35513	0.05047	0.45227	-0.263
Mof_H 	H 	0.3891	0.0517	0.43827	0.107
Mof_H 	H 	0.3646	0.0804	0.48557	0.101
Mof_C 	C 	0.33872	0.96645	0.49623	0.023
Mof_H 	H 	0.3726	0.9763	0.47537	0.017
Mof_C 	C 	0.31255	0.9165	0.535	-0.064
Mof_C 	C 	0.33332	0.88088	0.52963	-0.1
Mof_H 	H 	0.3624	0.889	0.49877	0.082
Mof_C 	C 	0.31149	0.8347	0.56909	0.12
Mof_C 	C 	0.26982	0.82235	0.61531	-0.079
Mof_H 	H 	0.2552	0.7901	0.64217	0.081
Mof_C 	C 	0.24944	0.85692	0.6223	-0.118
Mof_H 	H 	0.2212	0.8486	0.65467	0.071
Mof_C 	C 	0.26992	0.90399	0.58212	0.172
Mof_C 	C 	0.37236	0.11291	0.35437	-0.75
Mof_H 	H 	0.3575	0.1198	0.31217	0.244
Mof_H 	H 	0.4042	0.1101	0.34227	0.246
Mof_H 	H 	0.3828	0.1427	0.38727	0.244
Mof_C 	C 	0.31097	0.012	0.33714	-0.703
Mof_H 	H 	0.2834	0.9786	0.35947	0.228
Mof_H 	H 	0.3421	0.0082	0.32427	0.243
Mof_H 	H 	0.2957	0.0188	0.29527	0.238
Mof_Mn	Mn	0.07374	0.42799	0.84683	0.933
Mof_Mn	Mn	0.35365	0.42469	0.07599	0.937
Mof_Fe	Fe	0.15331	0.3105	0.96503	0.645
Mof_Br	Br	0.25974	0.69233	0.69422	-0.228
Mof_Br	Br	0.78586	0.3316	0.89316	-0.221
Mof_Br	Br	0.43421	0.69107	0.22284	-0.226
Mof_Br	Br	0.54988	0.33622	0.03264	-0.199
Mof_N 	N 	0.12342	0.43577	0.7662	-0.164
Mof_N 	N 	0.01727	0.35346	0.81556	-0.178
Mof_N 	N 	0.31321	0.43355	0.15653	-0.167
Mof_N 	N 	0.335	0.34979	0.10642	-0.171
Mof_N 	N 	0.17879	0.22254	0.01375	-0.056
Mof_N 	N 	0.27208	0.38687	0.01517	-0.114
Mof_N 	N 	0.11505	0.38877	0.90884	-0.138
Mof_N 	N 	0.03828	0.22325	0.92111	-0.087
Mof_N 	N 	0.09772	0.30658	0.10662	-0.139
Mof_N 	N 	0.20099	0.29811	0.82461	-0.138
Mof_O 	O 	0.12186	0.49947	0.8739	-0.357
Mof_O 	O 	0.02665	0.42383	0.9194	-0.377
Mof_O 	O 	0.37819	0.49615	0.04752	-0.348
Mof_O 	O 	0.39466	0.41944	0.00188	-0.36
Mof_C 	C 	0.16813	0.25507	0.99693	-0.142
Mof_C 	C 	0.22829	0.36142	0.99585	-0.116
Mof_C 	C 	0.13214	0.36227	0.93034	-0.095
Mof_C 	C 	0.0814	0.25564	0.93625	-0.114
Mof_C 	C 	0.12097	0.31014	0.05632	-0.069
Mof_C 	C 	0.1826	0.30441	0.87443	-0.091
Mof_C 	C 	0.14759	0.54034	0.83063	0.191
Mof_C 	C 	0.1609	0.59297	0.85176	-0.108
Mof_H 	H 	0.1479	0.5979	0.89507	0.084
Mof_C 	C 	0.19221	0.63685	0.81087	-0.058
Mof_H 	H 	0.2001	0.6719	0.82537	0.08
Mof_C 	C 	0.21253	0.63049	0.74802	0.144
Mof_C 	C 	0.19984	0.58066	0.72465	-0.099
Mof_H 	H 	0.2134	0.5767	0.68127	0.11
Mof_C 	C 	0.16636	0.53479	0.76516	-0.04
Mof_C 	C 	0.15618	0.4824	0.73957	0.029
Mof_H 	H 	0.1757	0.4827	0.69937	0.043
Mof_C 	C 	0.12425	0.38831	0.73692	-0.29
Mof_H 	H 	0.1403	0.3748	0.77167	0.112
Mof_H 	H 	0.1478	0.3998	0.69527	0.118
Mof_C 	C 	0.06832	0.34212	0.71667	0.443
Mof_C 	C 	0.03288	0.31723	0.78063	-0.309
Mof_H 	H 	0.9997	0.2837	0.76657	0.126
Mof_H 	H 	0.0525	0.307	0.81437	0.111
Mof_C 	C 	0.96658	0.33673	0.82224	0.042
Mof_H 	H 	0.9423	0.3048	0.79767	0.019
Mof_C 	C 	0.943	0.36202	0.86372	-0.075
Mof_C 	C 	0.88679	0.34017	0.8593	-0.089
Mof_H 	H 	0.866	0.3119	0.82727	0.079
Mof_C 	C 	0.86207	0.36022	0.90198	0.11
Mof_C 	C 	0.89156	0.40054	0.94963	-0.07
Mof_H 	H 	0.8739	0.4137	0.97897	0.069
Mof_C 	C 	0.9465	0.42169	0.95481	-0.134
Mof_H 	H 	0.9664	0.4492	0.98817	0.074
Mof_C 	C 	0.97396	0.40354	0.91177	0.196
Mof_C 	C 	0.07784	0.29809	0.68437	-0.769
Mof_H 	H 	0.0999	0.3123	0.64227	0.247
Mof_H 	H 	0.043	0.2665	0.67237	0.248
Mof_H 	H 	0.0967	0.2875	0.71797	0.248
Mof_C 	C 	0.04035	0.36062	0.66467	-0.77
Mof_H 	H 	0.0371	0.3904	0.68487	0.254
Mof_H 	H 	0.0043	0.3304	0.65397	0.253
Mof_H 	H 	0.0618	0.373	0.62187	0.251
Mof_C 	C 	0.39243	0.53718	0.09028	0.195
Mof_C 	C 	0.43211	0.5895	0.06797	-0.106
Mof_H 	H 	0.4503	0.5935	0.02507	0.096
Mof_C 	C 	0.44477	0.63431	0.10687	-0.054
Mof_H 	H 	0.4713	0.6691	0.09087	0.084
Mof_C 	C 	0.41844	0.62867	0.17017	0.142
Mof_C 	C 	0.3813	0.57868	0.19517	-0.093
Mof_H 	H 	0.3642	0.5755	0.23877	0.107
Mof_C 	C 	0.36845	0.53188	0.15601	-0.044
Mof_C 	C 	0.32689	0.48056	0.18278	0.034
Mof_H 	H 	0.3079	0.4812	0.22307	0.04
Mof_C 	C 	0.26518	0.38678	0.18708	-0.286
Mof_H 	H 	0.2349	0.3739	0.15357	0.113
Mof_H 	H 	0.2545	0.3988	0.22957	0.116
Mof_C 	C 	0.27365	0.33929	0.20623	0.443
Mof_C 	C 	0.2832	0.31395	0.14155	-0.292
Mof_H 	H 	0.2824	0.2801	0.15527	0.114
Mof_H 	H 	0.2533	0.3043	0.10827	0.113
Mof_C 	C 	0.36802	0.33189	0.09742	0.024
Mof_H 	H 	0.3591	0.2984	0.11877	0.024
Mof_C 	C 	0.41765	0.35865	0.0575	-0.063
Mof_C 	C 	0.45351	0.33842	0.06294	-0.102
Mof_H 	H 	0.446	0.3096	0.09407	0.086
Mof_C 	C 	0.49961	0.36101	0.02253	0.146
Mof_C 	C 	0.51037	0.40165	0.9751	-0.105
Mof_H 	H 	0.5422	0.4163	0.94737	0.081
Mof_C 	C 	0.4751	0.42077	0.96821	-0.142
Mof_H 	H 	0.4822	0.448	0.93477	0.075
Mof_C 	C 	0.4284	0.40057	0.01018	0.198
Mof_C 	C 	0.22066	0.29621	0.23923	-0.784
Mof_H 	H 	0.2243	0.2652	0.25357	0.255
Mof_H 	H 	0.1913	0.2844	0.20537	0.255
Mof_H 	H 	0.2126	0.3115	0.28007	0.252
Mof_C 	C 	0.32088	0.35761	0.25732	-0.768
Mof_H 	H 	0.3252	0.3267	0.26987	0.258
Mof_H 	H 	0.3135	0.3723	0.29937	0.252
Mof_H 	H 	0.3542	0.3856	0.23547	0.255
Mof_Mn	Mn	0.74388	0.97971	0.4141	0.922
Mof_Mn	Mn	0.02095	0.26579	0.18489	0.929
Mof_Fe	Fe	0.82106	0.17727	0.29883	0.649
Mof_Br	Br	0.92694	0.90015	0.57204	-0.225
Mof_Br	Br	0.45773	0.78534	0.36409	-0.212
Mof_Br	Br	0.10013	0.07693	0.04363	-0.208
Mof_Br	Br	0.2142	0.55224	0.22451	-0.206
Mof_N 	N 	0.79289	0.02148	0.495	-0.165
Mof_N 	N 	0.68681	0.99705	0.44518	-0.179
Mof_N 	N 	0.98057	0.2159	0.10466	-0.172
Mof_N 	N 	0.0013	0.32147	0.15427	-0.187
Mof_N 	N 	0.78492	0.06051	0.35266	-0.132
Mof_N 	N 	0.93949	0.22162	0.24629	-0.132
Mof_N 	N 	0.8455	0.29073	0.25187	-0.079
Mof_N 	N 	0.70615	0.14807	0.34518	-0.081
Mof_N 	N 	0.86869	0.2365	0.43968	-0.138
Mof_N 	N 	0.76455	0.12581	0.15783	-0.136
Mof_O 	O 	0.79208	0.95592	0.38799	-0.353
Mof_O 	O 	0.69771	0.93757	0.34031	-0.363
Mof_O 	O 	0.04483	0.219	0.21466	-0.356
Mof_O 	O 	0.06275	0.31301	0.2577	-0.365
Mof_C 	C 	0.80106	0.10387	0.33176	-0.085
Mof_C 	C 	0.89575	0.20225	0.26639	-0.083
Mof_C 	C 	0.83542	0.24799	0.2686	-0.108
Mof_C 	C 	0.74911	0.15933	0.32911	-0.108
Mof_C 	C 	0.85045	0.2116	0.38961	-0.093
Mof_C 	C 	0.78813	0.14539	0.2081	-0.091
Mof_C 	C 	0.81734	0.9408	0.43274	0.197
Mof_C 	C 	0.8288	0.90027	0.41284	-0.112
Mof_H 	H 	0.8149	0.8816	0.37013	0.09
Mof_C 	C 	0.85991	0.8872	0.45436	-0.05
Mof_H 	H 	0.8673	0.8596	0.44063	0.079
Mof_C 	C 	0.88052	0.91506	0.51712	0.137
Mof_C 	C 	0.86855	0.95301	0.53945	-0.088
Mof_H 	H 	0.8822	0.9708	0.58273	0.103
Mof_C 	C 	0.83565	0.96592	0.49811	-0.06
Mof_C 	C 	0.82573	0.00789	0.52218	0.054
Mof_H 	H 	0.8453	0.0276	0.56213	0.039
Mof_C 	C 	0.7933	0.06949	0.52442	-0.277
Mof_H 	H 	0.8095	0.0992	0.48993	0.109
Mof_H 	H 	0.8166	0.0814	0.56623	0.116
Mof_C 	C 	0.73704	0.05981	0.54454	0.428
Mof_C 	C 	0.70162	0.0488	0.47947	-0.268
Mof_H 	H 	0.6682	0.0488	0.49293	0.108
Mof_H 	H 	0.7213	0.0786	0.44573	0.103
Mof_C 	C 	0.63618	0.9623	0.43798	0.021
Mof_H 	H 	0.6113	0.9691	0.46263	0.02
Mof_C 	C 	0.61367	0.91393	0.39595	-0.065
Mof_C 	C 	0.55748	0.87855	0.39963	-0.098
Mof_H 	H 	0.5361	0.8852	0.43173	0.081
Mof_C 	C 	0.53369	0.83429	0.35653	0.117
Mof_C 	C 	0.56339	0.82476	0.30751	-0.078
Mof_H 	H 	0.546	0.7944	0.27733	0.077
Mof_C 	C 	0.61837	0.85963	0.30281	-0.122
Mof_H 	H 	0.6387	0.8532	0.26883	0.073
Mof_C 	C 	0.64505	0.90464	0.34734	0.174
Mof_C 	C 	0.74619	0.11301	0.57613	-0.77
Mof_H 	H 	0.7112	0.1105	0.58483	0.252
Mof_H 	H 	0.7672	0.1427	0.54363	0.25
Mof_H 	H 	0.766	0.1198	0.62003	0.249
Mof_C 	C 	0.70949	0.01324	0.59629	-0.734
Mof_H 	H 	0.7082	0.9809	0.57693	0.239
Mof_H 	H 	0.6726	0.0058	0.60523	0.253
Mof_H 	H 	0.7299	0.0231	0.63993	0.246
Mof_C 	C 	0.05934	0.19161	0.17202	0.193
Mof_C 	C 	0.09738	0.17753	0.19755	-0.108
Mof_H 	H 	0.1142	0.1909	0.24133	0.089
Mof_C 	C 	0.10989	0.14446	0.15903	-0.056
Mof_H 	H 	0.1356	0.1354	0.17593	0.083
Mof_C 	C 	0.08462	0.12448	0.09536	0.14
Mof_C 	C 	0.04864	0.13822	0.06965	-0.087
Mof_H 	H 	0.0321	0.1245	0.02583	0.109
Mof_C 	C 	0.03573	0.17252	0.10723	-0.06
Mof_C 	C 	0.99435	0.18274	0.07934	0.058
Mof_H 	H 	0.9758	0.1632	0.03883	0.043
Mof_C 	C 	0.93238	0.21419	0.07433	-0.222
Mof_H 	H 	0.9023	0.1969	0.10813	0.096
Mof_H 	H 	0.9216	0.1912	0.03213	0.107
Mof_C 	C 	0.94039	0.26965	0.05468	0.307
Mof_C 	C 	0.94953	0.30466	0.11893	-0.214
Mof_H 	H 	0.9483	0.3374	0.10493	0.097
Mof_H 	H 	0.9196	0.2842	0.15223	0.088
Mof_C 	C 	0.03355	0.37227	0.16289	0.027
Mof_H 	H 	0.0237	0.3963	0.14203	0.019
Mof_C 	C 	0.0835	0.39605	0.20166	-0.064
Mof_C 	C 	0.11912	0.45244	0.19629	-0.1
Mof_H 	H 	0.111	0.4734	0.16543	0.084
Mof_C 	C 	0.1653	0.47679	0.23575	0.121
Mof_C 	C 	0.17765	0.44747	0.28197	-0.079
Mof_H 	H 	0.2099	0.4651	0.30883	0.081
Mof_C 	C 	0.14308	0.39252	0.28896	-0.119
Mof_H 	H 	0.1514	0.3726	0.32133	0.072
Mof_C 	C 	0.09601	0.36593	0.24878	0.172
Mof_C 	C 	0.88709	0.25945	0.02103	-0.591
Mof_H 	H 	0.8802	0.2377	0.97883	0.181
Mof_H 	H 	0.8899	0.2941	0.00893	0.21
Mof_H 	H 	0.8573	0.2401	0.05393	0.203
Mof_C 	C 	0.988	0.29897	0.0038	-0.465
Mof_H 	H 	0.0214	0.3048	0.02613	0.166
Mof_H 	H 	0.9918	0.3339	0.99093	0.157
Mof_H 	H 	0.9812	0.2769	0.96193	0.154
Mof_Mn	Mn	0.57201	0.64575	0.51349	0.934
Mof_Mn	Mn	0.57531	0.92896	0.74265	0.933
Mof_Fe	Fe	0.6895	0.84281	0.63169	0.65
Mof_Br	Br	0.30767	0.56741	0.36088	-0.227
Mof_Br	Br	0.6684	0.45426	0.55982	-0.209
Mof_Br	Br	0.30893	0.74314	0.8895	-0.241
Mof_Br	Br	0.66378	0.21366	0.6993	-0.211
Mof_N 	N 	0.56423	0.68765	0.43286	-0.164
Mof_N 	N 	0.64654	0.66381	0.48222	-0.172
Mof_N 	N 	0.56645	0.87966	0.82319	-0.168
Mof_N 	N 	0.65021	0.98521	0.77308	-0.18
Mof_N 	N 	0.77746	0.95625	0.68041	-0.084
Mof_N 	N 	0.61313	0.88521	0.68183	-0.137
Mof_N 	N 	0.61123	0.72628	0.5755	-0.137
Mof_N 	N 	0.77675	0.81503	0.58777	-0.081
Mof_N 	N 	0.69342	0.79114	0.77328	-0.138
Mof_N 	N 	0.70189	0.90288	0.49127	-0.138
Mof_O 	O 	0.50053	0.62239	0.54056	-0.354
Mof_O 	O 	0.57617	0.60282	0.58606	-0.365
Mof_O 	O 	0.50385	0.88204	0.71418	-0.354
Mof_O 	O 	0.58056	0.97522	0.66854	-0.377
Mof_C 	C 	0.74493	0.91306	0.66359	-0.113
Mof_C 	C 	0.63858	0.86687	0.66251	-0.086
Mof_C 	C 	0.63773	0.76987	0.597	-0.09
Mof_C 	C 	0.74436	0.82576	0.60291	-0.108
Mof_C 	C 	0.68986	0.81083	0.72298	-0.092
Mof_C 	C 	0.69559	0.87819	0.54109	-0.093
Mof_C 	C 	0.45966	0.60725	0.49729	0.193
Mof_C 	C 	0.40703	0.56793	0.51842	-0.108
Mof_H 	H 	0.4021	0.55	0.56173	0.089
Mof_C 	C 	0.36315	0.55536	0.47753	-0.056
Mof_H 	H 	0.3281	0.5282	0.49203	0.081
Mof_C 	C 	0.36951	0.58204	0.41468	0.144
Mof_C 	C 	0.41934	0.61918	0.39131	-0.098
Mof_H 	H 	0.4233	0.6367	0.34793	0.11
Mof_C 	C 	0.46521	0.63157	0.43182	-0.04
Mof_C 	C 	0.5176	0.67378	0.40623	0.03
Mof_H 	H 	0.5173	0.693	0.36603	0.043
Mof_C 	C 	0.61169	0.73594	0.40358	-0.289
Mof_H 	H 	0.6252	0.7655	0.43833	0.112
Mof_H 	H 	0.6002	0.748	0.36193	0.118
Mof_C 	C 	0.65788	0.7262	0.38333	0.441
Mof_C 	C 	0.68277	0.71565	0.44729	-0.289
Mof_H 	H 	0.7163	0.716	0.43323	0.112
Mof_H 	H 	0.693	0.7455	0.48103	0.107
Mof_C 	C 	0.66327	0.62985	0.4889	0.023
Mof_H 	H 	0.6952	0.6375	0.46433	0.023
Mof_C 	C 	0.63798	0.58098	0.53038	-0.064
Mof_C 	C 	0.65983	0.54662	0.52596	-0.097
Mof_H 	H 	0.6881	0.5541	0.49393	0.082
Mof_C 	C 	0.63978	0.50185	0.56864	0.117
Mof_C 	C 	0.59946	0.49102	0.61629	-0.077
Mof_H 	H 	0.5863	0.4602	0.64563	0.078
Mof_C 	C 	0.57831	0.52481	0.62147	-0.121
Mof_H 	H 	0.5508	0.5172	0.65483	0.072
Mof_C 	C 	0.59646	0.57042	0.57843	0.176
Mof_C 	C 	0.70191	0.77975	0.35103	-0.771
Mof_H 	H 	0.6877	0.7876	0.30893	0.249
Mof_H 	H 	0.7335	0.7765	0.33903	0.252
Mof_H 	H 	0.7125	0.8092	0.38463	0.249
Mof_C 	C 	0.63938	0.67973	0.33133	-0.774
Mof_H 	H 	0.6096	0.6467	0.35153	0.257
Mof_H 	H 	0.6696	0.6739	0.32063	0.259
Mof_H 	H 	0.627	0.6888	0.28853	0.255
Mof_C 	C 	0.46282	0.85525	0.75694	0.194
Mof_C 	C 	0.4105	0.84261	0.73463	-0.109
Mof_H 	H 	0.4065	0.8568	0.69173	0.088
Mof_C 	C 	0.36569	0.81046	0.77353	-0.055
Mof_H 	H 	0.3309	0.8022	0.75753	0.08
Mof_C 	C 	0.37133	0.78977	0.83683	0.14
Mof_C 	C 	0.42132	0.80262	0.86183	-0.093
Mof_H 	H 	0.4245	0.7887	0.90543	0.1
Mof_C 	C 	0.46812	0.83657	0.82267	-0.047
Mof_C 	C 	0.51944	0.84633	0.84944	0.034
Mof_H 	H 	0.5188	0.8267	0.88973	0.036
Mof_C 	C 	0.61322	0.8784	0.85374	-0.279
Mof_H 	H 	0.6261	0.861	0.82023	0.109
Mof_H 	H 	0.6012	0.8557	0.89623	0.111
Mof_C 	C 	0.66071	0.93436	0.87289	0.431
Mof_C 	C 	0.68605	0.96925	0.80821	-0.305
Mof_H 	H 	0.7199	0.0023	0.82193	0.125
Mof_H 	H 	0.6957	0.949	0.77493	0.11
Mof_C 	C 	0.66811	0.03613	0.76408	0.039
Mof_H 	H 	0.7016	0.0607	0.78543	0.016
Mof_C 	C 	0.64135	0.059	0.72416	-0.075
Mof_C 	C 	0.66158	0.11509	0.7296	-0.09
Mof_H 	H 	0.6904	0.1364	0.76073	0.078
Mof_C 	C 	0.63899	0.1386	0.68919	0.113
Mof_C 	C 	0.59835	0.10872	0.64176	-0.069
Mof_H 	H 	0.5837	0.1259	0.61403	0.075
Mof_C 	C 	0.57923	0.05433	0.63487	-0.13
Mof_H 	H 	0.552	0.0342	0.60143	0.08
Mof_C 	C 	0.59943	0.02783	0.67684	0.193
Mof_C 	C 	0.70379	0.92445	0.90589	-0.764
Mof_H 	H 	0.7348	0.9591	0.92023	0.241
Mof_H 	H 	0.7156	0.9069	0.87203	0.247
Mof_H 	H 	0.6885	0.9011	0.94673	0.241
Mof_C 	C 	0.64239	0.96327	0.92398	-0.742
Mof_H 	H 	0.6733	0.9985	0.93653	0.238
Mof_H 	H 	0.6277	0.9412	0.96603	0.236
Mof_H 	H 	0.6144	0.9686	0.90213	0.244
_end
