data_functionalizedCrystal
_audit_creation_method	'EQeq! by Chris Wilmer'
_symmetry_space_group_name_H-M	'P1'
_symmetry_Int_Tables_number	1
_symmetry_cell_setting	triclinic
loop_
_symmetry_equiv_pos_as_xyz
  x,y,z
_cell_length_a	13.5451
_cell_length_b	13.5451
_cell_length_c	23.0394
_cell_angle_alpha	90
_cell_angle_beta	90
_cell_angle_gamma	120
loop_
_atom_site_label
_atom_site_type_symbol
_atom_site_fract_x
_atom_site_fract_y
_atom_site_fract_z
_atom_site_charge
Mof_Yb	Yb	0.60258	0	-0	1.322
Mof_Yb	Yb	0.39742	0.39742	0.66667	1.479
Mof_Yb	Yb	-7.32255e-18	0.60258	0.33333	1.379
Mof_Co	Co	0.23185	0.90074	0.79304	1.136
Mof_Co	Co	0.66889	0.76815	0.45971	1.124
Mof_Co	Co	0.09926	0.33111	0.12637	1.12
Mof_Co	Co	0.33111	0.09926	0.20696	1.12
Mof_Co	Co	0.90074	0.23185	0.54029	1.136
Mof_Co	Co	0.76815	0.66889	0.87363	1.124
Mof_Co	Co	-4.93633e-17	0.79653	0.83333	1.073
Mof_Co	Co	0.79653	-1.37916e-32	0.5	1.075
Mof_Co	Co	0.20347	0.20347	0.16667	1.104
Mof_H 	H 	0.3826	0.9399	0.8631	0.121
Mof_H 	H 	0.4283	0.0356	0.8211	0.064
Mof_H 	H 	0.3168	0.0886	0.7493	0.108
Mof_H 	H 	0.3617	0.0233	0.7184	0.083
Mof_H 	H 	0.2615	0.7822	0.7202	0.121
Mof_H 	H 	0.3704	0.8489	0.7526	0.107
Mof_H 	H 	0.2189	0.062	0.9333	0.093
Mof_H 	H 	0.2058	0.9374	0.9292	0.108
Mof_H 	H 	0.3762	0.1382	0.8697	0.059
Mof_H 	H 	0.0443	0.9266	0.6709	0.034
Mof_H 	H 	0.0867	0.997	0.7306	0.032
Mof_H 	H 	0.226	0.95	0.6544	0.125
Mof_H 	H 	0.1226	0.5822	0.8378	0.055
Mof_H 	H 	0.0891	0.6282	0.781	0.035
Mof_H 	H 	0.3162	0.7292	0.8269	0.06
Mof_H 	H 	0.5573	0.6174	0.52977	0.111
Mof_H 	H 	0.6073	0.5717	0.48777	0.097
Mof_H 	H 	0.7718	0.6832	0.41597	0.119
Mof_H 	H 	0.6616	0.6383	0.38507	0.098
Mof_H 	H 	0.5207	0.7385	0.38687	0.12
Mof_H 	H 	0.4785	0.6296	0.41927	0.096
Mof_H 	H 	0.8431	0.7811	0.59997	0.089
Mof_H 	H 	0.7316	0.7942	0.59587	0.067
Mof_H 	H 	0.762	0.6238	0.53637	0.066
Mof_H 	H 	0.8823	0.9557	0.33757	0.098
Mof_H 	H 	0.9103	0.9133	0.39727	0.079
Mof_H 	H 	0.724	0.774	0.32107	0.067
Mof_H 	H 	0.4596	0.8774	0.50447	0.08
Mof_H 	H 	0.5391	0.9109	0.44767	0.063
Mof_H 	H 	0.413	0.6838	0.49357	0.051
Mof_H 	H 	0.0601	0.4427	0.19643	0.107
Mof_H 	H 	0.9644	0.3927	0.15443	0.133
Mof_H 	H 	0.9114	0.2282	0.08263	0.116
Mof_H 	H 	0.9767	0.3384	0.05173	0.101
Mof_H 	H 	0.2178	0.4793	0.05353	0.108
Mof_H 	H 	0.1511	0.5215	0.08593	0.082
Mof_H 	H 	0.938	0.1569	0.26663	0.036
Mof_H 	H 	0.0626	0.2684	0.26253	-0.005
Mof_H 	H 	0.8618	0.238	0.20303	0.059
Mof_H 	H 	0.0734	0.1177	0.00423	0.037
Mof_H 	H 	0.003	0.0897	0.06393	0.03
Mof_H 	H 	0.05	0.276	0.98773	0.056
Mof_H 	H 	0.4178	0.5404	0.17113	0.068
Mof_H 	H 	0.3718	0.4609	0.11433	0.047
Mof_H 	H 	0.2708	0.587	0.16023	0.052
Mof_H 	H 	0.4427	0.0601	0.1369	0.106
Mof_H 	H 	0.3927	0.9644	0.1789	0.133
Mof_H 	H 	0.2282	0.9114	0.2507	0.118
Mof_H 	H 	0.3384	0.9767	0.2816	0.11
Mof_H 	H 	0.4793	0.2178	0.2798	0.114
Mof_H 	H 	0.5215	0.1511	0.2474	0.086
Mof_H 	H 	0.1569	0.938	0.0667	0.028
Mof_H 	H 	0.2684	0.0626	0.0708	-0.011
Mof_H 	H 	0.238	0.8618	0.1303	0.059
Mof_H 	H 	0.1177	0.0734	0.3291	0.062
Mof_H 	H 	0.0897	0.003	0.2694	0.045
Mof_H 	H 	0.276	0.05	0.3456	0.01
Mof_H 	H 	0.5404	0.4178	0.1622	0.066
Mof_H 	H 	0.4609	0.3718	0.219	0.049
Mof_H 	H 	0.587	0.2708	0.1731	0.05
Mof_H 	H 	0.9399	0.3826	0.47023	0.12
Mof_H 	H 	0.0356	0.4283	0.51223	0.059
Mof_H 	H 	0.0886	0.3168	0.58403	0.107
Mof_H 	H 	0.0233	0.3617	0.61493	0.082
Mof_H 	H 	0.7822	0.2615	0.61313	0.122
Mof_H 	H 	0.8489	0.3704	0.58073	0.108
Mof_H 	H 	0.062	0.2189	0.40003	0.087
Mof_H 	H 	0.9374	0.2058	0.40413	0.108
Mof_H 	H 	0.1382	0.3762	0.46363	0.059
Mof_H 	H 	0.9266	0.0443	0.66243	0.035
Mof_H 	H 	0.997	0.0867	0.60273	0.033
Mof_H 	H 	0.95	0.226	0.67893	0.131
Mof_H 	H 	0.5822	0.1226	0.49553	0.053
Mof_H 	H 	0.6282	0.0891	0.55233	0.036
Mof_H 	H 	0.7292	0.3162	0.50643	0.058
Mof_H 	H 	0.6174	0.5573	0.80357	0.112
Mof_H 	H 	0.5717	0.6073	0.84557	0.098
Mof_H 	H 	0.6832	0.7718	0.91737	0.122
Mof_H 	H 	0.6383	0.6616	0.94827	0.108
Mof_H 	H 	0.7385	0.5207	0.94647	0.126
Mof_H 	H 	0.6296	0.4785	0.91407	0.1
Mof_H 	H 	0.7811	0.8431	0.73337	0.089
Mof_H 	H 	0.7942	0.7316	0.73747	0.067
Mof_H 	H 	0.6238	0.762	0.79697	0.066
Mof_H 	H 	0.9557	0.8823	0.99577	0.123
Mof_H 	H 	0.9133	0.9103	0.93607	0.094
Mof_H 	H 	0.774	0.724	0.01227	0.021
Mof_H 	H 	0.8774	0.4596	0.82887	0.082
Mof_H 	H 	0.9109	0.5391	0.88567	0.067
Mof_H 	H 	0.6838	0.413	0.83977	0.05
Mof_C 	C 	0.2291	0.009	0.9077	-0.18
Mof_C 	C 	0.3536	0.0629	0.888	-0.093
Mof_C 	C 	0.4323	0.0837	0.9408	0.365
Mof_C 	C 	0.0972	0.9455	0.704	0.024
Mof_C 	C 	0.2195	0.0023	0.6828	-0.217
Mof_C 	C 	0.2533	0.1142	0.652	0.395
Mof_C 	C 	0.143	0.6505	0.8139	-0.056
Mof_C 	C 	0.2647	0.7035	0.7924	-0.08
Mof_C 	C 	0.2798	0.6118	0.7604	0.295
Mof_C 	C 	0.7799	0.7709	0.57437	-0.087
Mof_C 	C 	0.7093	0.6464	0.55467	-0.09
Mof_C 	C 	0.6514	0.5677	0.60747	0.379
Mof_C 	C 	0.8483	0.9028	0.37067	-0.09
Mof_C 	C 	0.7828	0.7805	0.34947	-0.084
Mof_C 	C 	0.8609	0.7467	0.31867	0.356
Mof_C 	C 	0.5075	0.857	0.48057	-0.081
Mof_C 	C 	0.4388	0.7353	0.45907	-0.07
Mof_C 	C 	0.332	0.7202	0.42707	0.292
Mof_C 	C 	0.991	0.2201	0.24103	0.055
Mof_C 	C 	0.9371	0.2907	0.22133	-0.089
Mof_C 	C 	0.9163	0.3486	0.27413	0.379
Mof_C 	C 	0.0545	0.1517	0.03733	-0.084
Mof_C 	C 	0.9977	0.2172	0.01613	-0.086
Mof_C 	C 	0.8858	0.1391	0.98533	0.42
Mof_C 	C 	0.3495	0.4925	0.14723	-0.066
Mof_C 	C 	0.2965	0.5612	0.12573	-0.077
Mof_C 	C 	0.3882	0.668	0.09373	0.293
Mof_C 	C 	0.2201	0.991	0.0923	0.057
Mof_C 	C 	0.2907	0.9371	0.112	-0.093
Mof_C 	C 	0.3486	0.9163	0.0592	0.378
Mof_C 	C 	0.1517	0.0545	0.296	-0.126
Mof_C 	C 	0.2172	0.9977	0.3172	0.004
Mof_C 	C 	0.1391	0.8858	0.348	0.337
Mof_C 	C 	0.4925	0.3495	0.1861	-0.067
Mof_C 	C 	0.5612	0.2965	0.2076	-0.075
Mof_C 	C 	0.668	0.3882	0.2396	0.291
Mof_C 	C 	0.009	0.2291	0.42563	-0.188
Mof_C 	C 	0.0629	0.3536	0.44533	-0.099
Mof_C 	C 	0.0837	0.4323	0.39253	0.37
Mof_C 	C 	0.9455	0.0972	0.62933	0.03
Mof_C 	C 	0.0023	0.2195	0.65053	-0.227
Mof_C 	C 	0.1142	0.2533	0.68133	0.398
Mof_C 	C 	0.6505	0.143	0.51943	-0.055
Mof_C 	C 	0.7035	0.2647	0.54093	-0.08
Mof_C 	C 	0.6118	0.2798	0.57293	0.295
Mof_C 	C 	0.7709	0.7799	0.75897	-0.087
Mof_C 	C 	0.6464	0.7093	0.77867	-0.09
Mof_C 	C 	0.5677	0.6514	0.72587	0.379
Mof_C 	C 	0.9028	0.8483	0.96267	-0.134
Mof_C 	C 	0.7805	0.7828	0.98387	0.009
Mof_C 	C 	0.7467	0.8609	0.01467	0.272
Mof_C 	C 	0.857	0.5075	0.85277	-0.085
Mof_C 	C 	0.7353	0.4388	0.87427	-0.066
Mof_C 	C 	0.7202	0.332	0.90627	0.289
Mof_S 	S 	0.14424	0.98019	0.84142	-0.358
Mof_S 	S 	0.06954	0.81599	0.74207	-0.449
Mof_S 	S 	0.13988	0.7604	0.85688	-0.432
Mof_S 	S 	0.83595	0.85576	0.50809	-0.356
Mof_S 	S 	0.74645	0.93046	0.40874	-0.37
Mof_S 	S 	0.62052	0.86012	0.52355	-0.385
Mof_S 	S 	0.01981	0.16405	0.17475	-0.473
Mof_S 	S 	0.18401	0.25355	0.0754	-0.423
Mof_S 	S 	0.2396	0.37948	0.19021	-0.415
Mof_S 	S 	0.16405	0.01981	0.15858	-0.475
Mof_S 	S 	0.25355	0.18401	0.25793	-0.407
Mof_S 	S 	0.37948	0.2396	0.14312	-0.42
Mof_S 	S 	0.98019	0.14424	0.49191	-0.353
Mof_S 	S 	0.81599	0.06954	0.59126	-0.447
Mof_S 	S 	0.7604	0.13988	0.47645	-0.436
Mof_S 	S 	0.85576	0.83595	0.82525	-0.355
Mof_S 	S 	0.93046	0.74645	0.9246	-0.352
Mof_S 	S 	0.86012	0.62052	0.80979	-0.383
Mof_N 	N 	0.3666	0.99	0.8441	-0.289
Mof_N 	N 	0.2963	0.0194	0.7325	-0.325
Mof_N 	N 	0.2925	0.8052	0.7566	-0.329
Mof_N 	N 	0.6234	0.6334	0.51077	-0.33
Mof_N 	N 	0.7231	0.7037	0.39917	-0.336
Mof_N 	N 	0.5127	0.7075	0.42327	-0.332
Mof_N 	N 	0.01	0.3766	0.17743	-0.374
Mof_N 	N 	0.9806	0.2769	0.06583	-0.321
Mof_N 	N 	0.1948	0.4873	0.08993	-0.327
Mof_N 	N 	0.3766	0.01	0.1559	-0.372
Mof_N 	N 	0.2769	0.9806	0.2675	-0.334
Mof_N 	N 	0.4873	0.1948	0.2434	-0.329
Mof_N 	N 	0.99	0.3666	0.48923	-0.283
Mof_N 	N 	0.0194	0.2963	0.60083	-0.325
Mof_N 	N 	0.8052	0.2925	0.57673	-0.329
Mof_N 	N 	0.6334	0.6234	0.82257	-0.33
Mof_N 	N 	0.7037	0.7231	0.93417	-0.35
Mof_N 	N 	0.7075	0.5127	0.91007	-0.334
Mof_O 	O 	0.4835	0.0289	0.94098	-0.43
Mof_O 	O 	0.4359	0.1507	0.97915	-0.261
Mof_O 	O 	0.3226	0.2033	0.67883	-0.446
Mof_O 	O 	0.2117	0.1105	0.60308	-0.304
Mof_O 	O 	0.3231	0.5634	0.7883	-0.257
Mof_O 	O 	0.2418	0.589	0.7096	-0.257
Mof_O 	O 	0.5454	0.5165	0.60765	-0.446
Mof_O 	O 	0.7148	0.5641	0.64582	-0.27
Mof_O 	O 	0.8807	0.6774	0.3455	-0.4
Mof_O 	O 	0.8988	0.7883	0.26975	-0.238
Mof_O 	O 	0.2403	0.6769	0.45497	-0.256
Mof_O 	O 	0.3472	0.7582	0.37627	-0.248
Mof_O 	O 	0.9711	0.4546	0.27431	-0.404
Mof_O 	O 	0.8493	0.2852	0.31248	-0.272
Mof_O 	O 	0.7967	0.1193	0.01216	-0.462
Mof_O 	O 	0.8895	0.1012	0.93641	-0.282
Mof_O 	O 	0.4366	0.7597	0.12163	-0.249
Mof_O 	O 	0.411	0.6528	0.04293	-0.259
Mof_O 	O 	0.4546	0.9711	0.05902	-0.404
Mof_O 	O 	0.2852	0.8493	0.02085	-0.285
Mof_O 	O 	0.1193	0.7967	0.32117	-0.427
Mof_O 	O 	0.1012	0.8895	0.39692	-0.271
Mof_O 	O 	0.7597	0.4366	0.2117	-0.249
Mof_O 	O 	0.6528	0.411	0.2904	-0.249
Mof_O 	O 	0.0289	0.4835	0.39235	-0.453
Mof_O 	O 	0.1507	0.4359	0.35418	-0.279
Mof_O 	O 	0.2033	0.3226	0.6545	-0.447
Mof_O 	O 	0.1105	0.2117	0.73025	-0.304
Mof_O 	O 	0.5634	0.3231	0.54503	-0.259
Mof_O 	O 	0.589	0.2418	0.62373	-0.257
Mof_O 	O 	0.5165	0.5454	0.72569	-0.446
Mof_O 	O 	0.5641	0.7148	0.68752	-0.271
Mof_O 	O 	0.6774	0.8807	0.98784	-0.349
Mof_O 	O 	0.7883	0.8988	0.06359	-0.219
Mof_O 	O 	0.6769	0.2403	0.87837	-0.251
Mof_O 	O 	0.7582	0.3472	0.95707	-0.234
_end
