data_functionalizedCrystal
_audit_creation_method	'EQeq! by Chris Wilmer'
_symmetry_space_group_name_H-M	'P1'
_symmetry_Int_Tables_number	1
_symmetry_cell_setting	triclinic
loop_
_symmetry_equiv_pos_as_xyz
  x,y,z
_cell_length_a	39.273
_cell_length_b	27.4978
_cell_length_c	27.3722
_cell_angle_alpha	90
_cell_angle_beta	134.278
_cell_angle_gamma	90
loop_
_atom_site_label
_atom_site_type_symbol
_atom_site_fract_x
_atom_site_fract_y
_atom_site_fract_z
_atom_site_charge
Mof_C 	C 	0.0997	0.6978	0.0311	0.438
Mof_C 	C 	0.0993	0.6643	0.0722	-0.216
Mof_C 	C 	0.1403	0.644	0.1307	0.165
Mof_H 	H 	0.1686	0.6485	0.1421	-0.014
Mof_C 	C 	0.1403	0.6177	0.1717	-0.237
Mof_H 	H 	0.17	0.61	0.2143	0.121
Mof_C 	C 	0.1041	0.602	0.1589	0.152
Mof_C 	C 	0.0554	0.6153	0.0886	-0.151
Mof_H 	H 	0.0271	0.6024	0.0722	0.093
Mof_C 	C 	0.0568	0.6504	0.0488	0.094
Mof_H 	H 	0.0286	0.6629	0.0079	0.011
Mof_C 	C 	0.0998	0.3289	0.4016	0.362
Mof_C 	C 	0.0953	0.3755	0.3651	-0.15
Mof_C 	C 	0.1421	0.3912	0.3959	0.057
Mof_H 	H 	0.1703	0.3793	0.4372	0.024
Mof_C 	C 	0.1403	0.4278	0.3549	-0.158
Mof_H 	H 	0.1682	0.4373	0.3673	0.088
Mof_C 	C 	0.0995	0.4471	0.3009	0.124
Mof_C 	C 	0.0567	0.4296	0.2791	-0.197
Mof_H 	H 	0.028	0.4443	0.2421	0.089
Mof_C 	C 	0.0568	0.3945	0.3086	0.124
Mof_H 	H 	0.0277	0.3814	0.2889	-0.008
Mof_C 	C 	0.0949	0.4907	0.262	-0.052
Mof_C 	C 	0.1142	0.5311	0.2907	-0.099
Mof_H 	H 	0.1266	0.538	0.3338	0.068
Mof_C 	C 	0.1163	0.5701	0.2488	0.18
Mof_C 	C 	0.0981	0.5599	0.1911	-0.097
Mof_C 	C 	0.0638	0.5178	0.1486	-0.124
Mof_H 	H 	0.0469	0.5154	0.1026	0.082
Mof_C 	C 	0.0576	0.4805	0.1813	0.19
Mof_C 	C 	0.1569	0.6336	0.3423	0.108
Mof_H 	H 	0.1607	0.6091	0.3713	-0.001
Mof_H 	H 	0.1349	0.6576	0.3329	0.008
Mof_C 	C 	0.2092	0.6611	0.3883	-0.19
Mof_H 	H 	0.2348	0.6436	0.4299	0.086
Mof_H 	H 	0.2086	0.6946	0.399	0.086
Mof_C 	C 	0.9968	0.4473	0.0813	1.007
Mof_H 	H 	0.9957	0.4813	0.071	-0.276
Mof_H 	H 	0.9985	0.4283	0.0532	-0.272
Mof_C 	C 	0.954	0.4358	0.0624	-1.55
Mof_H 	H 	0.9426	0.4061	0.0359	0.5
Mof_H 	H 	0.9627	0.4274	0.1043	0.488
Mof_C 	C 	0.9165	0.4648	0.0284	1.117
Mof_H 	H 	0.8963	0.4526	0.0342	-0.319
Mof_H 	H 	0.8985	0.4625	0.9803	-0.311
Mof_C 	C 	0.9266	0.52	0.0488	-0.539
Mof_H 	H 	0.9298	0.5265	0.0867	0.187
Mof_H 	H 	0.9549	0.5312	0.0602	0.213
Mof_C 	C 	0.8884	0.5393	0.9927	-0.233
Mof_H 	H 	0.8736	0.5601	0.0022	0.094
Mof_H 	H 	0.8659	0.514	0.9615	0.091
Mof_C 	C 	0.9004	0.5672	0.9623	0.64
Mof_H 	H 	0.8969	0.6004	0.97	-0.166
Mof_H 	H 	0.9344	0.5622	0.9935	-0.161
Mof_C 	C 	0.8853	0.57	0.8973	-1.297
Mof_H 	H 	0.9033	0.5946	0.8987	0.427
Mof_H 	H 	0.8521	0.5781	0.8628	0.407
Mof_H 	H 	0.8904	0.5392	0.8868	0.42
Mof_C 	C 	0.6035	0.6711	0.506	0.334
Mof_C 	C 	0.6002	0.625	0.5357	-0.109
Mof_C 	C 	0.6447	0.6124	0.5993	0.042
Mof_H 	H 	0.6724	0.6228	0.6116	0.032
Mof_C 	C 	0.6473	0.5831	0.6456	-0.138
Mof_H 	H 	0.671	0.5847	0.6929	0.08
Mof_C 	C 	0.6058	0.5501	0.6045	0.133
Mof_C 	C 	0.5563	0.5678	0.5401	-0.141
Mof_H 	H 	0.5277	0.555	0.5225	0.131
Mof_C 	C 	0.5615	0.6066	0.5121	0.074
Mof_H 	H 	0.5335	0.6202	0.4721	0.026
Mof_C 	C 	0.5992	0.3017	0.8738	0.342
Mof_C 	C 	0.6011	0.3379	0.8302	-0.098
Mof_C 	C 	0.5571	0.3507	0.7674	0.029
Mof_H 	H 	0.5288	0.337	0.7498	0.04
Mof_C 	C 	0.5591	0.3866	0.7322	-0.106
Mof_H 	H 	0.5311	0.401	0.6932	0.074
Mof_C 	C 	0.6019	0.4004	0.7548	0.055
Mof_C 	C 	0.6426	0.3805	0.8168	-0.141
Mof_H 	H 	0.672	0.3895	0.8336	0.082
Mof_C 	C 	0.6419	0.3519	0.8505	0.076
Mof_H 	H 	0.6705	0.3397	0.8911	0.017
Mof_C 	C 	0.6065	0.4404	0.7156	0.062
Mof_C 	C 	0.5765	0.4354	0.6499	-0.223
Mof_H 	H 	0.5525	0.4122	0.6254	0.131
Mof_C 	C 	0.5848	0.4713	0.6176	0.355
Mof_C 	C 	0.6006	0.5088	0.6389	-0.194
Mof_C 	C 	0.6429	0.5104	0.7207	0.001
Mof_H 	H 	0.6649	0.5354	0.7388	0.031
Mof_C 	C 	0.6512	0.4781	0.7696	-0.038
Mof_C 	C 	0.5536	0.4177	0.5326	0.982
Mof_H 	H 	0.5634	0.3998	0.5712	-0.244
Mof_H 	H 	0.5192	0.4188	0.4996	-0.225
Mof_C 	C 	0.5643	0.3799	0.4983	-0.505
Mof_H 	H 	0.5897	0.3923	0.5032	0.189
Mof_H 	H 	0.5739	0.3485	0.5206	0.186
Mof_C 	C 	0.9488	0.7603	0.84	0.141
Mof_H 	H 	0.9649	0.7671	0.885	-0.026
Mof_C 	C 	0.8989	0.7619	0.7895	-0.198
Mof_H 	H 	0.8828	0.7704	0.8018	0.095
Mof_C 	C 	0.8766	0.7527	0.7313	0.096
Mof_C 	C 	0.901	0.7213	0.7191	-0.143
Mof_H 	H 	0.8843	0.7022	0.6802	0.091
Mof_C 	C 	0.9492	0.7226	0.7687	0.082
Mof_H 	H 	0.9668	0.7048	0.7637	0.004
Mof_C 	C 	0.747	0.7469	0.6421	0.136
Mof_H 	H 	0.7311	0.7407	0.6553	-0.021
Mof_C 	C 	0.7963	0.75	0.6898	-0.124
Mof_H 	H 	0.8112	0.7548	0.7347	0.066
Mof_C 	C 	0.8264	0.747	0.6799	0.061
Mof_C 	C 	0.7458	0.75	0.5611	0.225
Mof_H 	H 	0.7302	0.7474	0.5156	-0.062
Mof_C 	C 	0.7951	0.75	0.6116	-0.171
Mof_H 	H 	0.8092	0.7526	0.5951	0.097
Mof_N 	N 	0.972	0.7501	0.8261	-0.258
Mof_O 	O 	0.1367	0.7096	0.0488	-0.499
Mof_O 	O 	0.0595	0.7155	0.9748	-0.472
Mof_O 	O 	0.1383	0.3072	0.4466	-0.48
Mof_O 	O 	0.058	0.3119	0.3723	-0.452
Mof_O 	O 	0.1346	0.6111	0.2806	-0.251
Mof_O 	O 	0.0393	0.4391	0.1512	-0.444
Mof_O 	O 	0.642	0.6931	0.5398	-0.435
Mof_O 	O 	0.5599	0.68519	0.4496	-0.423
Mof_O 	O 	0.6421	0.2932	0.9359	-0.431
Mof_O 	O 	0.56011	0.2895	0.8504	-0.459
Mof_O 	O 	0.5631	0.4511	0.5493	-0.672
Mof_Zn	Zn	0.04693	0.75113	0.89921	1.211
Mof_Zn	Zn	0.15084	0.74762	0.00314	1.217
Mof_N 	N 	0.7228	0.7533	0.575	-0.257
Mof_N 	N 	0.7545	0.74622	0.6083	-0.094
Mof_C 	C 	0.5997	0.1978	0.0311	0.438
Mof_C 	C 	0.5993	0.1643	0.0722	-0.218
Mof_C 	C 	0.6403	0.144	0.1307	0.165
Mof_H 	H 	0.6686	0.1485	0.1421	-0.015
Mof_C 	C 	0.6403	0.1177	0.1717	-0.238
Mof_H 	H 	0.67	0.11	0.2143	0.12
Mof_C 	C 	0.6041	0.102	0.1589	0.151
Mof_C 	C 	0.5554	0.1153	0.0886	-0.152
Mof_H 	H 	0.5271	0.1024	0.0722	0.092
Mof_C 	C 	0.5568	0.1504	0.0488	0.093
Mof_H 	H 	0.5286	0.1629	0.0079	0.01
Mof_C 	C 	0.5998	0.8289	0.4016	0.361
Mof_C 	C 	0.5953	0.8755	0.3651	-0.15
Mof_C 	C 	0.6421	0.8912	0.3959	0.056
Mof_H 	H 	0.6703	0.8793	0.4372	0.024
Mof_C 	C 	0.6403	0.9278	0.3549	-0.158
Mof_H 	H 	0.6682	0.9373	0.3673	0.088
Mof_C 	C 	0.5995	0.9471	0.3009	0.124
Mof_C 	C 	0.5567	0.9296	0.2791	-0.197
Mof_H 	H 	0.528	0.9443	0.2421	0.089
Mof_C 	C 	0.5568	0.8945	0.3086	0.123
Mof_H 	H 	0.5277	0.8814	0.2889	-0.008
Mof_C 	C 	0.5949	0.9907	0.262	-0.052
Mof_C 	C 	0.6142	0.0311	0.2907	-0.1
Mof_H 	H 	0.6266	0.038	0.3338	0.068
Mof_C 	C 	0.6163	0.0701	0.2488	0.18
Mof_C 	C 	0.5981	0.0599	0.1911	-0.097
Mof_C 	C 	0.5638	0.0178	0.1486	-0.124
Mof_H 	H 	0.5469	0.0154	0.1026	0.082
Mof_C 	C 	0.5576	0.9805	0.1813	0.189
Mof_C 	C 	0.6569	0.1336	0.3423	0.108
Mof_H 	H 	0.6607	0.1091	0.3713	-0.001
Mof_H 	H 	0.6349	0.1576	0.3329	0.008
Mof_C 	C 	0.7092	0.1611	0.3883	-0.19
Mof_H 	H 	0.7348	0.1436	0.4299	0.086
Mof_H 	H 	0.7086	0.1946	0.399	0.086
Mof_C 	C 	0.4968	0.9473	0.0813	0.996
Mof_H 	H 	0.4957	0.9813	0.071	-0.273
Mof_H 	H 	0.4985	0.9283	0.0532	-0.269
Mof_C 	C 	0.454	0.9358	0.0624	-1.534
Mof_H 	H 	0.4426	0.9061	0.0359	0.495
Mof_H 	H 	0.4627	0.9274	0.1043	0.484
Mof_C 	C 	0.4165	0.9648	0.0284	1.103
Mof_H 	H 	0.3963	0.9526	0.0342	-0.315
Mof_H 	H 	0.3985	0.9625	0.9803	-0.306
Mof_C 	C 	0.4266	0.02	0.0488	-0.536
Mof_H 	H 	0.4298	0.0265	0.0867	0.185
Mof_H 	H 	0.4549	0.0312	0.0602	0.212
Mof_C 	C 	0.3884	0.0393	0.9927	-0.23
Mof_H 	H 	0.3736	0.0601	0.0022	0.093
Mof_H 	H 	0.3659	0.014	0.9615	0.09
Mof_C 	C 	0.4004	0.0672	0.9623	0.636
Mof_H 	H 	0.3969	0.1004	0.97	-0.164
Mof_H 	H 	0.4344	0.0622	0.9935	-0.16
Mof_C 	C 	0.3853	0.07	0.8973	-1.291
Mof_H 	H 	0.4033	0.0946	0.8987	0.425
Mof_H 	H 	0.3521	0.0781	0.8628	0.405
Mof_H 	H 	0.3904	0.0392	0.8868	0.418
Mof_C 	C 	0.1035	0.1711	0.506	0.334
Mof_C 	C 	0.1002	0.125	0.5357	-0.11
Mof_C 	C 	0.1447	0.1124	0.5993	0.042
Mof_H 	H 	0.1724	0.1228	0.6116	0.032
Mof_C 	C 	0.1473	0.0831	0.6456	-0.138
Mof_H 	H 	0.171	0.0847	0.6929	0.08
Mof_C 	C 	0.1058	0.0501	0.6045	0.133
Mof_C 	C 	0.0563	0.0678	0.5401	-0.141
Mof_H 	H 	0.0277	0.055	0.5225	0.131
Mof_C 	C 	0.0615	0.1066	0.5121	0.074
Mof_H 	H 	0.0335	0.1202	0.4721	0.026
Mof_C 	C 	0.0992	0.8017	0.8738	0.342
Mof_C 	C 	0.1011	0.8379	0.8302	-0.098
Mof_C 	C 	0.0571	0.8507	0.7674	0.029
Mof_H 	H 	0.0288	0.837	0.7498	0.04
Mof_C 	C 	0.0591	0.8866	0.7322	-0.106
Mof_H 	H 	0.0311	0.901	0.6932	0.074
Mof_C 	C 	0.1019	0.9004	0.7548	0.055
Mof_C 	C 	0.1426	0.8805	0.8168	-0.141
Mof_H 	H 	0.172	0.8895	0.8336	0.082
Mof_C 	C 	0.1419	0.8519	0.8505	0.075
Mof_H 	H 	0.1705	0.8397	0.8911	0.018
Mof_C 	C 	0.1065	0.9404	0.7156	0.062
Mof_C 	C 	0.0765	0.9354	0.6499	-0.223
Mof_H 	H 	0.0525	0.9122	0.6254	0.131
Mof_C 	C 	0.0848	0.9713	0.6176	0.355
Mof_C 	C 	0.1006	0.0088	0.6389	-0.195
Mof_C 	C 	0.1429	0.0104	0.7207	0.001
Mof_H 	H 	0.1649	0.0354	0.7388	0.031
Mof_C 	C 	0.1512	0.9781	0.7696	-0.038
Mof_C 	C 	0.0536	0.9177	0.5326	0.983
Mof_H 	H 	0.0634	0.8998	0.5712	-0.244
Mof_H 	H 	0.0192	0.9188	0.4996	-0.225
Mof_C 	C 	0.0643	0.8799	0.4983	-0.505
Mof_H 	H 	0.0897	0.8923	0.5032	0.189
Mof_H 	H 	0.0739	0.8485	0.5206	0.186
Mof_C 	C 	0.4488	0.2603	0.84	0.141
Mof_H 	H 	0.4649	0.2671	0.885	-0.025
Mof_C 	C 	0.3989	0.2619	0.7895	-0.198
Mof_H 	H 	0.3828	0.2704	0.8018	0.095
Mof_C 	C 	0.3766	0.2527	0.7313	0.095
Mof_C 	C 	0.401	0.2213	0.7191	-0.143
Mof_H 	H 	0.3843	0.2022	0.6802	0.091
Mof_C 	C 	0.4492	0.2226	0.7687	0.082
Mof_H 	H 	0.4668	0.2048	0.7637	0.004
Mof_C 	C 	0.247	0.2469	0.6421	0.136
Mof_H 	H 	0.2311	0.2407	0.6553	-0.021
Mof_C 	C 	0.2963	0.25	0.6898	-0.124
Mof_H 	H 	0.3112	0.2548	0.7347	0.066
Mof_C 	C 	0.3264	0.247	0.6799	0.061
Mof_C 	C 	0.2458	0.25	0.5611	0.225
Mof_H 	H 	0.2302	0.2474	0.5156	-0.062
Mof_C 	C 	0.2951	0.25	0.6116	-0.171
Mof_H 	H 	0.3092	0.2526	0.5951	0.097
Mof_N 	N 	0.472	0.2501	0.8261	-0.258
Mof_O 	O 	0.6367	0.2096	0.0488	-0.499
Mof_O 	O 	0.5595	0.2155	0.9748	-0.473
Mof_O 	O 	0.6383	0.8072	0.4466	-0.48
Mof_O 	O 	0.558	0.8119	0.3723	-0.452
Mof_O 	O 	0.6346	0.1111	0.2806	-0.251
Mof_O 	O 	0.5393	0.9391	0.1512	-0.441
Mof_O 	O 	0.142	0.1931	0.5398	-0.435
Mof_O 	O 	0.0599	0.18519	0.4496	-0.423
Mof_O 	O 	0.1421	0.7932	0.9359	-0.431
Mof_O 	O 	0.06011	0.7895	0.8504	-0.459
Mof_O 	O 	0.0631	0.9511	0.5493	-0.673
Mof_Zn	Zn	0.54693	0.25113	0.89921	1.211
Mof_Zn	Zn	0.65084	0.24762	0.00314	1.218
Mof_N 	N 	0.2228	0.2533	0.575	-0.257
Mof_N 	N 	0.2545	0.24622	0.6083	-0.094
Mof_C 	C 	0.0997	0.3022	0.5311	0.438
Mof_C 	C 	0.0993	0.3357	0.5722	-0.218
Mof_C 	C 	0.1403	0.356	0.6307	0.165
Mof_H 	H 	0.1686	0.3515	0.6421	-0.015
Mof_C 	C 	0.1403	0.3823	0.6717	-0.238
Mof_H 	H 	0.17	0.39	0.7143	0.12
Mof_C 	C 	0.1041	0.398	0.6589	0.152
Mof_C 	C 	0.0554	0.3847	0.5886	-0.152
Mof_H 	H 	0.0271	0.3976	0.5722	0.092
Mof_C 	C 	0.0568	0.3496	0.5488	0.093
Mof_H 	H 	0.0286	0.3371	0.5079	0.01
Mof_C 	C 	0.0998	0.6711	0.9016	0.361
Mof_C 	C 	0.0953	0.6245	0.8651	-0.15
Mof_C 	C 	0.1421	0.6088	0.8959	0.056
Mof_H 	H 	0.1703	0.6207	0.9372	0.024
Mof_C 	C 	0.1403	0.5722	0.8549	-0.158
Mof_H 	H 	0.1682	0.5627	0.8673	0.088
Mof_C 	C 	0.0995	0.5529	0.8009	0.124
Mof_C 	C 	0.0567	0.5704	0.7791	-0.196
Mof_H 	H 	0.028	0.5557	0.7421	0.089
Mof_C 	C 	0.0568	0.6055	0.8086	0.123
Mof_H 	H 	0.0277	0.6186	0.7889	-0.008
Mof_C 	C 	0.0949	0.5093	0.762	-0.052
Mof_C 	C 	0.1142	0.4689	0.7907	-0.1
Mof_H 	H 	0.1266	0.462	0.8338	0.068
Mof_C 	C 	0.1163	0.4299	0.7488	0.18
Mof_C 	C 	0.0981	0.4401	0.6911	-0.097
Mof_C 	C 	0.0638	0.4822	0.6486	-0.124
Mof_H 	H 	0.0469	0.4846	0.6026	0.082
Mof_C 	C 	0.0576	0.5195	0.6813	0.189
Mof_C 	C 	0.1569	0.3664	0.8423	0.108
Mof_H 	H 	0.1607	0.3909	0.8713	-0.001
Mof_H 	H 	0.1349	0.3424	0.8329	0.008
Mof_C 	C 	0.2092	0.3389	0.8883	-0.19
Mof_H 	H 	0.2348	0.3564	0.9299	0.087
Mof_H 	H 	0.2086	0.3054	0.899	0.086
Mof_C 	C 	0.9968	0.5527	0.5813	0.996
Mof_H 	H 	0.9957	0.5187	0.571	-0.274
Mof_H 	H 	0.9985	0.5717	0.5532	-0.27
Mof_C 	C 	0.954	0.5642	0.5624	-1.535
Mof_H 	H 	0.9426	0.5939	0.5359	0.496
Mof_H 	H 	0.9627	0.5726	0.6043	0.484
Mof_C 	C 	0.9165	0.5352	0.5284	1.105
Mof_H 	H 	0.8963	0.5474	0.5342	-0.316
Mof_H 	H 	0.8985	0.5375	0.4803	-0.306
Mof_C 	C 	0.9266	0.48	0.5488	-0.537
Mof_H 	H 	0.9298	0.4735	0.5867	0.186
Mof_H 	H 	0.9549	0.4688	0.5602	0.212
Mof_C 	C 	0.8884	0.4607	0.4927	-0.229
Mof_H 	H 	0.8736	0.4399	0.5022	0.092
Mof_H 	H 	0.8659	0.486	0.4615	0.09
Mof_C 	C 	0.9004	0.4328	0.4623	0.634
Mof_H 	H 	0.8969	0.3996	0.47	-0.164
Mof_H 	H 	0.9344	0.4378	0.4935	-0.16
Mof_C 	C 	0.8853	0.43	0.3973	-1.289
Mof_H 	H 	0.9033	0.4054	0.3987	0.424
Mof_H 	H 	0.8521	0.4219	0.3628	0.404
Mof_H 	H 	0.8904	0.4608	0.3868	0.418
Mof_C 	C 	0.6035	0.3289	0.006	0.335
Mof_C 	C 	0.6002	0.375	0.0357	-0.11
Mof_C 	C 	0.6447	0.3876	0.0993	0.042
Mof_H 	H 	0.6724	0.3772	0.1116	0.032
Mof_C 	C 	0.6473	0.4169	0.1456	-0.138
Mof_H 	H 	0.671	0.4153	0.1929	0.08
Mof_C 	C 	0.6058	0.4499	0.1045	0.134
Mof_C 	C 	0.5563	0.4322	0.0401	-0.141
Mof_H 	H 	0.5277	0.445	0.0225	0.131
Mof_C 	C 	0.5615	0.3934	0.0121	0.074
Mof_H 	H 	0.5335	0.3798	0.9721	0.026
Mof_C 	C 	0.5992	0.6983	0.3738	0.342
Mof_C 	C 	0.6011	0.6621	0.3302	-0.098
Mof_C 	C 	0.5571	0.6493	0.2674	0.029
Mof_H 	H 	0.5288	0.663	0.2498	0.04
Mof_C 	C 	0.5591	0.6134	0.2322	-0.106
Mof_H 	H 	0.5311	0.599	0.1932	0.074
Mof_C 	C 	0.6019	0.5996	0.2548	0.055
Mof_C 	C 	0.6426	0.6195	0.3168	-0.141
Mof_H 	H 	0.672	0.6105	0.3336	0.082
Mof_C 	C 	0.6419	0.6481	0.3505	0.076
Mof_H 	H 	0.6705	0.6603	0.3911	0.017
Mof_C 	C 	0.6065	0.5596	0.2156	0.062
Mof_C 	C 	0.5765	0.5646	0.1499	-0.223
Mof_H 	H 	0.5525	0.5878	0.1254	0.131
Mof_C 	C 	0.5848	0.5287	0.1176	0.355
Mof_C 	C 	0.6006	0.4912	0.1389	-0.195
Mof_C 	C 	0.6429	0.4896	0.2207	0.001
Mof_H 	H 	0.6649	0.4646	0.2388	0.031
Mof_C 	C 	0.6512	0.5219	0.2696	-0.038
Mof_C 	C 	0.5536	0.5823	0.0326	0.983
Mof_H 	H 	0.5634	0.6002	0.0712	-0.244
Mof_H 	H 	0.5192	0.5812	0.9996	-0.225
Mof_C 	C 	0.5643	0.6201	0.9983	-0.505
Mof_H 	H 	0.5897	0.6077	0.0032	0.189
Mof_H 	H 	0.5739	0.6515	0.0206	0.186
Mof_C 	C 	0.9488	0.2397	0.34	0.141
Mof_H 	H 	0.9649	0.2329	0.385	-0.025
Mof_C 	C 	0.8989	0.2381	0.2895	-0.198
Mof_H 	H 	0.8828	0.2296	0.3018	0.095
Mof_C 	C 	0.8766	0.2473	0.2313	0.095
Mof_C 	C 	0.901	0.2787	0.2191	-0.143
Mof_H 	H 	0.8843	0.2978	0.1802	0.091
Mof_C 	C 	0.9492	0.2774	0.2687	0.082
Mof_H 	H 	0.9668	0.2952	0.2637	0.004
Mof_C 	C 	0.747	0.2531	0.1421	0.136
Mof_H 	H 	0.7311	0.2593	0.1553	-0.021
Mof_C 	C 	0.7963	0.25	0.1898	-0.124
Mof_H 	H 	0.8112	0.2452	0.2347	0.066
Mof_C 	C 	0.8264	0.253	0.1799	0.061
Mof_C 	C 	0.7458	0.25	0.0611	0.225
Mof_H 	H 	0.7302	0.2526	0.0156	-0.062
Mof_C 	C 	0.7951	0.25	0.1116	-0.171
Mof_H 	H 	0.8092	0.2474	0.0951	0.097
Mof_N 	N 	0.972	0.2499	0.3261	-0.258
Mof_O 	O 	0.1367	0.2904	0.5488	-0.499
Mof_O 	O 	0.0595	0.2845	0.4748	-0.473
Mof_O 	O 	0.1383	0.6928	0.9466	-0.48
Mof_O 	O 	0.058	0.6881	0.8723	-0.452
Mof_O 	O 	0.1346	0.3889	0.7806	-0.251
Mof_O 	O 	0.0393	0.5609	0.6512	-0.441
Mof_O 	O 	0.642	0.3069	0.0398	-0.435
Mof_O 	O 	0.5599	0.31481	0.9496	-0.423
Mof_O 	O 	0.6421	0.7068	0.4359	-0.431
Mof_O 	O 	0.56011	0.7105	0.3504	-0.459
Mof_O 	O 	0.5631	0.5489	0.0493	-0.672
Mof_Zn	Zn	0.04693	0.24887	0.39921	1.21
Mof_Zn	Zn	0.15084	0.25238	0.50314	1.218
Mof_N 	N 	0.7228	0.2467	0.075	-0.257
Mof_N 	N 	0.7545	0.25378	0.1083	-0.094
Mof_C 	C 	0.5997	0.8022	0.5311	0.438
Mof_C 	C 	0.5993	0.8357	0.5722	-0.218
Mof_C 	C 	0.6403	0.856	0.6307	0.165
Mof_H 	H 	0.6686	0.8515	0.6421	-0.015
Mof_C 	C 	0.6403	0.8823	0.6717	-0.238
Mof_H 	H 	0.67	0.89	0.7143	0.12
Mof_C 	C 	0.6041	0.898	0.6589	0.151
Mof_C 	C 	0.5554	0.8847	0.5886	-0.152
Mof_H 	H 	0.5271	0.8976	0.5722	0.092
Mof_C 	C 	0.5568	0.8496	0.5488	0.093
Mof_H 	H 	0.5286	0.8371	0.5079	0.01
Mof_C 	C 	0.5998	0.1711	0.9016	0.361
Mof_C 	C 	0.5953	0.1245	0.8651	-0.15
Mof_C 	C 	0.6421	0.1088	0.8959	0.056
Mof_H 	H 	0.6703	0.1207	0.9372	0.024
Mof_C 	C 	0.6403	0.0722	0.8549	-0.158
Mof_H 	H 	0.6682	0.0627	0.8673	0.088
Mof_C 	C 	0.5995	0.0529	0.8009	0.124
Mof_C 	C 	0.5567	0.0704	0.7791	-0.197
Mof_H 	H 	0.528	0.0557	0.7421	0.089
Mof_C 	C 	0.5568	0.1055	0.8086	0.123
Mof_H 	H 	0.5277	0.1186	0.7889	-0.008
Mof_C 	C 	0.5949	0.0093	0.762	-0.052
Mof_C 	C 	0.6142	0.9689	0.7907	-0.1
Mof_H 	H 	0.6266	0.962	0.8338	0.068
Mof_C 	C 	0.6163	0.9299	0.7488	0.18
Mof_C 	C 	0.5981	0.9401	0.6911	-0.097
Mof_C 	C 	0.5638	0.9822	0.6486	-0.124
Mof_H 	H 	0.5469	0.9846	0.6026	0.082
Mof_C 	C 	0.5576	0.0195	0.6813	0.19
Mof_C 	C 	0.6569	0.8664	0.8423	0.108
Mof_H 	H 	0.6607	0.8909	0.8713	-0.001
Mof_H 	H 	0.6349	0.8424	0.8329	0.008
Mof_C 	C 	0.7092	0.8389	0.8883	-0.19
Mof_H 	H 	0.7348	0.8564	0.9299	0.086
Mof_H 	H 	0.7086	0.8054	0.899	0.086
Mof_C 	C 	0.4968	0.0527	0.5813	0.998
Mof_H 	H 	0.4957	0.0187	0.571	-0.274
Mof_H 	H 	0.4985	0.0717	0.5532	-0.27
Mof_C 	C 	0.454	0.0642	0.5624	-1.537
Mof_H 	H 	0.4426	0.0939	0.5359	0.496
Mof_H 	H 	0.4627	0.0726	0.6043	0.484
Mof_C 	C 	0.4165	0.0352	0.5284	1.105
Mof_H 	H 	0.3963	0.0474	0.5342	-0.316
Mof_H 	H 	0.3985	0.0375	0.4803	-0.307
Mof_C 	C 	0.4266	0.98	0.5488	-0.537
Mof_H 	H 	0.4298	0.9735	0.5867	0.186
Mof_H 	H 	0.4549	0.9688	0.5602	0.212
Mof_C 	C 	0.3884	0.9607	0.4927	-0.23
Mof_H 	H 	0.3736	0.9399	0.5022	0.093
Mof_H 	H 	0.3659	0.986	0.4615	0.09
Mof_C 	C 	0.4004	0.9328	0.4623	0.636
Mof_H 	H 	0.3969	0.8996	0.47	-0.165
Mof_H 	H 	0.4344	0.9378	0.4935	-0.16
Mof_C 	C 	0.3853	0.93	0.3973	-1.291
Mof_H 	H 	0.4033	0.9054	0.3987	0.425
Mof_H 	H 	0.3521	0.9219	0.3628	0.405
Mof_H 	H 	0.3904	0.9608	0.3868	0.418
Mof_C 	C 	0.1035	0.8289	0.006	0.333
Mof_C 	C 	0.1002	0.875	0.0357	-0.108
Mof_C 	C 	0.1447	0.8876	0.0993	0.041
Mof_H 	H 	0.1724	0.8772	0.1116	0.032
Mof_C 	C 	0.1473	0.9169	0.1456	-0.137
Mof_H 	H 	0.171	0.9153	0.1929	0.079
Mof_C 	C 	0.1058	0.9499	0.1045	0.132
Mof_C 	C 	0.0563	0.9322	0.0401	-0.139
Mof_H 	H 	0.0277	0.945	0.0225	0.13
Mof_C 	C 	0.0615	0.8934	0.0121	0.071
Mof_H 	H 	0.0335	0.8798	0.9721	0.028
Mof_C 	C 	0.0992	0.1983	0.3738	0.342
Mof_C 	C 	0.1011	0.1621	0.3302	-0.099
Mof_C 	C 	0.0571	0.1493	0.2674	0.029
Mof_H 	H 	0.0288	0.163	0.2498	0.039
Mof_C 	C 	0.0591	0.1134	0.2322	-0.106
Mof_H 	H 	0.0311	0.099	0.1932	0.074
Mof_C 	C 	0.1019	0.0996	0.2548	0.055
Mof_C 	C 	0.1426	0.1195	0.3168	-0.142
Mof_H 	H 	0.172	0.1105	0.3336	0.082
Mof_C 	C 	0.1419	0.1481	0.3505	0.076
Mof_H 	H 	0.1705	0.1603	0.3911	0.017
Mof_C 	C 	0.1065	0.0596	0.2156	0.061
Mof_C 	C 	0.0765	0.0646	0.1499	-0.222
Mof_H 	H 	0.0525	0.0878	0.1254	0.13
Mof_C 	C 	0.0848	0.0287	0.1176	0.353
Mof_C 	C 	0.1006	0.9912	0.1389	-0.193
Mof_C 	C 	0.1429	0.9896	0.2207	0.001
Mof_H 	H 	0.1649	0.9646	0.2388	0.031
Mof_C 	C 	0.1512	0.0219	0.2696	-0.038
Mof_C 	C 	0.0536	0.0823	0.0326	0.971
Mof_H 	H 	0.0634	0.1002	0.0712	-0.241
Mof_H 	H 	0.0192	0.0812	0.9996	-0.221
Mof_C 	C 	0.0643	0.1201	0.9983	-0.498
Mof_H 	H 	0.0897	0.1077	0.0032	0.187
Mof_H 	H 	0.0739	0.1515	0.0206	0.183
Mof_C 	C 	0.4488	0.7397	0.34	0.141
Mof_H 	H 	0.4649	0.7329	0.385	-0.025
Mof_C 	C 	0.3989	0.7381	0.2895	-0.198
Mof_H 	H 	0.3828	0.7296	0.3018	0.095
Mof_C 	C 	0.3766	0.7473	0.2313	0.095
Mof_C 	C 	0.401	0.7787	0.2191	-0.143
Mof_H 	H 	0.3843	0.7978	0.1802	0.091
Mof_C 	C 	0.4492	0.7774	0.2687	0.082
Mof_H 	H 	0.4668	0.7952	0.2637	0.004
Mof_C 	C 	0.247	0.7531	0.1421	0.136
Mof_H 	H 	0.2311	0.7593	0.1553	-0.021
Mof_C 	C 	0.2963	0.75	0.1898	-0.124
Mof_H 	H 	0.3112	0.7452	0.2347	0.066
Mof_C 	C 	0.3264	0.753	0.1799	0.061
Mof_C 	C 	0.2458	0.75	0.0611	0.225
Mof_H 	H 	0.2302	0.7526	0.0156	-0.062
Mof_C 	C 	0.2951	0.75	0.1116	-0.171
Mof_H 	H 	0.3092	0.7474	0.0951	0.097
Mof_N 	N 	0.472	0.7499	0.3261	-0.258
Mof_O 	O 	0.6367	0.7904	0.5488	-0.499
Mof_O 	O 	0.5595	0.7845	0.4748	-0.473
Mof_O 	O 	0.6383	0.1928	0.9466	-0.48
Mof_O 	O 	0.558	0.1881	0.8723	-0.452
Mof_O 	O 	0.6346	0.8889	0.7806	-0.251
Mof_O 	O 	0.5393	0.0609	0.6512	-0.442
Mof_O 	O 	0.142	0.8069	0.0398	-0.435
Mof_O 	O 	0.0599	0.81481	0.9496	-0.422
Mof_O 	O 	0.1421	0.2068	0.4359	-0.431
Mof_O 	O 	0.06011	0.2105	0.3504	-0.459
Mof_O 	O 	0.0631	0.0489	0.0493	-0.667
Mof_Zn	Zn	0.54693	0.74887	0.39921	1.211
Mof_Zn	Zn	0.65084	0.75238	0.50314	1.218
Mof_N 	N 	0.2228	0.7467	0.075	-0.257
Mof_N 	N 	0.2545	0.75378	0.1083	-0.094
Mof_C 	C 	0.9003	0.6978	0.4689	0.438
Mof_C 	C 	0.9007	0.6643	0.4278	-0.218
Mof_C 	C 	0.8597	0.644	0.3693	0.165
Mof_H 	H 	0.8314	0.6485	0.3579	-0.015
Mof_C 	C 	0.8597	0.6177	0.3283	-0.238
Mof_H 	H 	0.83	0.61	0.2857	0.12
Mof_C 	C 	0.8959	0.602	0.3411	0.152
Mof_C 	C 	0.9446	0.6153	0.4114	-0.152
Mof_H 	H 	0.9729	0.6024	0.4278	0.092
Mof_C 	C 	0.9432	0.6504	0.4512	0.093
Mof_H 	H 	0.9714	0.6629	0.4921	0.01
Mof_C 	C 	0.9002	0.3289	0.0984	0.361
Mof_C 	C 	0.9047	0.3755	0.1349	-0.15
Mof_C 	C 	0.8579	0.3912	0.1041	0.056
Mof_H 	H 	0.8297	0.3793	0.0628	0.024
Mof_C 	C 	0.8597	0.4278	0.1451	-0.158
Mof_H 	H 	0.8318	0.4373	0.1327	0.088
Mof_C 	C 	0.9005	0.4471	0.1991	0.124
Mof_C 	C 	0.9433	0.4296	0.2209	-0.196
Mof_H 	H 	0.972	0.4443	0.2579	0.089
Mof_C 	C 	0.9432	0.3945	0.1914	0.123
Mof_H 	H 	0.9723	0.3814	0.2111	-0.008
Mof_C 	C 	0.9051	0.4907	0.238	-0.052
Mof_C 	C 	0.8858	0.5311	0.2093	-0.1
Mof_H 	H 	0.8734	0.538	0.1662	0.068
Mof_C 	C 	0.8837	0.5701	0.2512	0.18
Mof_C 	C 	0.9019	0.5599	0.3089	-0.097
Mof_C 	C 	0.9362	0.5178	0.3514	-0.124
Mof_H 	H 	0.9531	0.5154	0.3974	0.082
Mof_C 	C 	0.9424	0.4805	0.3187	0.189
Mof_C 	C 	0.8431	0.6336	0.1577	0.108
Mof_H 	H 	0.8393	0.6091	0.1287	-0.001
Mof_H 	H 	0.8651	0.6576	0.1671	0.008
Mof_C 	C 	0.7908	0.6611	0.1117	-0.19
Mof_H 	H 	0.7652	0.6436	0.0701	0.087
Mof_H 	H 	0.7914	0.6946	0.101	0.086
Mof_C 	C 	0.0032	0.4473	0.4187	0.996
Mof_H 	H 	0.0043	0.4813	0.429	-0.274
Mof_H 	H 	0.0015	0.4283	0.4468	-0.27
Mof_C 	C 	0.046	0.4358	0.4376	-1.535
Mof_H 	H 	0.0574	0.4061	0.4641	0.496
Mof_H 	H 	0.0373	0.4274	0.3957	0.484
Mof_C 	C 	0.0835	0.4648	0.4716	1.105
Mof_H 	H 	0.1037	0.4526	0.4658	-0.316
Mof_H 	H 	0.1015	0.4625	0.5197	-0.306
Mof_C 	C 	0.0734	0.52	0.4512	-0.537
Mof_H 	H 	0.0702	0.5265	0.4133	0.186
Mof_H 	H 	0.0451	0.5312	0.4398	0.212
Mof_C 	C 	0.1116	0.5393	0.5073	-0.229
Mof_H 	H 	0.1264	0.5601	0.4978	0.092
Mof_H 	H 	0.1341	0.514	0.5385	0.09
Mof_C 	C 	0.0996	0.5672	0.5377	0.634
Mof_H 	H 	0.1031	0.6004	0.53	-0.164
Mof_H 	H 	0.0656	0.5622	0.5065	-0.16
Mof_C 	C 	0.1147	0.57	0.6027	-1.289
Mof_H 	H 	0.0967	0.5946	0.6013	0.424
Mof_H 	H 	0.1479	0.5781	0.6372	0.404
Mof_H 	H 	0.1096	0.5392	0.6132	0.418
Mof_C 	C 	0.3965	0.6711	0.994	0.335
Mof_C 	C 	0.3998	0.625	0.9643	-0.11
Mof_C 	C 	0.3553	0.6124	0.9007	0.042
Mof_H 	H 	0.3276	0.6228	0.8884	0.032
Mof_C 	C 	0.3527	0.5831	0.8544	-0.138
Mof_H 	H 	0.329	0.5847	0.8071	0.08
Mof_C 	C 	0.3942	0.5501	0.8955	0.134
Mof_C 	C 	0.4437	0.5678	0.9599	-0.141
Mof_H 	H 	0.4723	0.555	0.9775	0.131
Mof_C 	C 	0.4385	0.6066	0.9879	0.074
Mof_H 	H 	0.4665	0.6202	0.0279	0.026
Mof_C 	C 	0.4008	0.3017	0.6262	0.342
Mof_C 	C 	0.3989	0.3379	0.6698	-0.098
Mof_C 	C 	0.4429	0.3507	0.7326	0.029
Mof_H 	H 	0.4712	0.337	0.7502	0.04
Mof_C 	C 	0.4409	0.3866	0.7678	-0.106
Mof_H 	H 	0.4689	0.401	0.8068	0.074
Mof_C 	C 	0.3981	0.4004	0.7452	0.055
Mof_C 	C 	0.3574	0.3805	0.6832	-0.141
Mof_H 	H 	0.328	0.3895	0.6664	0.082
Mof_C 	C 	0.3581	0.3519	0.6495	0.076
Mof_H 	H 	0.3295	0.3397	0.6089	0.017
Mof_C 	C 	0.3935	0.4404	0.7844	0.062
Mof_C 	C 	0.4235	0.4354	0.8501	-0.223
Mof_H 	H 	0.4475	0.4122	0.8746	0.131
Mof_C 	C 	0.4152	0.4713	0.8824	0.355
Mof_C 	C 	0.3994	0.5088	0.8611	-0.195
Mof_C 	C 	0.3571	0.5104	0.7793	0.001
Mof_H 	H 	0.3351	0.5354	0.7612	0.031
Mof_C 	C 	0.3488	0.4781	0.7304	-0.038
Mof_C 	C 	0.4464	0.4177	0.9674	0.983
Mof_H 	H 	0.4366	0.3998	0.9288	-0.244
Mof_H 	H 	0.4808	0.4188	0.0004	-0.225
Mof_C 	C 	0.4357	0.3799	0.0017	-0.505
Mof_H 	H 	0.4103	0.3923	0.9968	0.189
Mof_H 	H 	0.4261	0.3485	0.9794	0.186
Mof_C 	C 	0.0512	0.7603	0.66	0.141
Mof_H 	H 	0.0351	0.7671	0.615	-0.025
Mof_C 	C 	0.1011	0.7619	0.7105	-0.198
Mof_H 	H 	0.1172	0.7704	0.6982	0.095
Mof_C 	C 	0.1234	0.7527	0.7687	0.095
Mof_C 	C 	0.099	0.7213	0.7809	-0.143
Mof_H 	H 	0.1157	0.7022	0.8198	0.091
Mof_C 	C 	0.0508	0.7226	0.7313	0.082
Mof_H 	H 	0.0332	0.7048	0.7363	0.004
Mof_C 	C 	0.253	0.7469	0.8579	0.136
Mof_H 	H 	0.2689	0.7407	0.8447	-0.021
Mof_C 	C 	0.2037	0.75	0.8102	-0.124
Mof_H 	H 	0.1888	0.7548	0.7653	0.066
Mof_C 	C 	0.1736	0.747	0.8201	0.061
Mof_C 	C 	0.2542	0.75	0.9389	0.225
Mof_H 	H 	0.2698	0.7474	0.9844	-0.062
Mof_C 	C 	0.2049	0.75	0.8884	-0.171
Mof_H 	H 	0.1908	0.7526	0.9049	0.097
Mof_N 	N 	0.028	0.7501	0.6739	-0.258
Mof_O 	O 	0.8633	0.7096	0.4512	-0.499
Mof_O 	O 	0.9405	0.7155	0.5252	-0.473
Mof_O 	O 	0.8617	0.3072	0.0534	-0.48
Mof_O 	O 	0.942	0.3119	0.1277	-0.452
Mof_O 	O 	0.8654	0.6111	0.2194	-0.251
Mof_O 	O 	0.9607	0.4391	0.3488	-0.441
Mof_O 	O 	0.358	0.6931	0.9602	-0.435
Mof_O 	O 	0.4401	0.68519	0.0504	-0.423
Mof_O 	O 	0.3579	0.2932	0.5641	-0.431
Mof_O 	O 	0.43989	0.2895	0.6496	-0.459
Mof_O 	O 	0.4369	0.4511	0.9507	-0.672
Mof_Zn	Zn	0.95307	0.75113	0.60079	1.211
Mof_Zn	Zn	0.84915	0.74762	0.49686	1.218
Mof_N 	N 	0.2772	0.7533	0.925	-0.257
Mof_N 	N 	0.2455	0.74622	0.8917	-0.094
Mof_C 	C 	0.4003	0.1978	0.4689	0.438
Mof_C 	C 	0.4007	0.1643	0.4278	-0.218
Mof_C 	C 	0.3597	0.144	0.3693	0.165
Mof_H 	H 	0.3314	0.1485	0.3579	-0.015
Mof_C 	C 	0.3597	0.1177	0.3283	-0.238
Mof_H 	H 	0.33	0.11	0.2857	0.12
Mof_C 	C 	0.3959	0.102	0.3411	0.151
Mof_C 	C 	0.4446	0.1153	0.4114	-0.152
Mof_H 	H 	0.4729	0.1024	0.4278	0.092
Mof_C 	C 	0.4432	0.1504	0.4512	0.093
Mof_H 	H 	0.4714	0.1629	0.4921	0.01
Mof_C 	C 	0.4002	0.8289	0.0984	0.361
Mof_C 	C 	0.4047	0.8755	0.1349	-0.15
Mof_C 	C 	0.3579	0.8912	0.1041	0.056
Mof_H 	H 	0.3297	0.8793	0.0628	0.024
Mof_C 	C 	0.3597	0.9278	0.1451	-0.158
Mof_H 	H 	0.3318	0.9373	0.1327	0.088
Mof_C 	C 	0.4005	0.9471	0.1991	0.124
Mof_C 	C 	0.4433	0.9296	0.2209	-0.197
Mof_H 	H 	0.472	0.9443	0.2579	0.089
Mof_C 	C 	0.4432	0.8945	0.1914	0.123
Mof_H 	H 	0.4723	0.8814	0.2111	-0.008
Mof_C 	C 	0.4051	0.9907	0.238	-0.052
Mof_C 	C 	0.3858	0.0311	0.2093	-0.1
Mof_H 	H 	0.3734	0.038	0.1662	0.068
Mof_C 	C 	0.3837	0.0701	0.2512	0.18
Mof_C 	C 	0.4019	0.0599	0.3089	-0.097
Mof_C 	C 	0.4362	0.0178	0.3514	-0.124
Mof_H 	H 	0.4531	0.0154	0.3974	0.082
Mof_C 	C 	0.4424	0.9805	0.3187	0.19
Mof_C 	C 	0.3431	0.1336	0.1577	0.108
Mof_H 	H 	0.3393	0.1091	0.1287	-0.001
Mof_H 	H 	0.3651	0.1576	0.1671	0.008
Mof_C 	C 	0.2908	0.1611	0.1117	-0.19
Mof_H 	H 	0.2652	0.1436	0.0701	0.086
Mof_H 	H 	0.2914	0.1946	0.101	0.086
Mof_C 	C 	0.5032	0.9473	0.4187	0.998
Mof_H 	H 	0.5043	0.9813	0.429	-0.274
Mof_H 	H 	0.5015	0.9283	0.4468	-0.27
Mof_C 	C 	0.546	0.9358	0.4376	-1.537
Mof_H 	H 	0.5574	0.9061	0.4641	0.496
Mof_H 	H 	0.5373	0.9274	0.3957	0.484
Mof_C 	C 	0.5835	0.9648	0.4716	1.105
Mof_H 	H 	0.6037	0.9526	0.4658	-0.316
Mof_H 	H 	0.6015	0.9625	0.5197	-0.307
Mof_C 	C 	0.5734	0.02	0.4512	-0.537
Mof_H 	H 	0.5702	0.0265	0.4133	0.186
Mof_H 	H 	0.5451	0.0312	0.4398	0.212
Mof_C 	C 	0.6116	0.0393	0.5073	-0.23
Mof_H 	H 	0.6264	0.0601	0.4978	0.093
Mof_H 	H 	0.6341	0.014	0.5385	0.09
Mof_C 	C 	0.5996	0.0672	0.5377	0.636
Mof_H 	H 	0.6031	0.1004	0.53	-0.165
Mof_H 	H 	0.5656	0.0622	0.5065	-0.16
Mof_C 	C 	0.6147	0.07	0.6027	-1.291
Mof_H 	H 	0.5967	0.0946	0.6013	0.425
Mof_H 	H 	0.6479	0.0781	0.6372	0.405
Mof_H 	H 	0.6096	0.0392	0.6132	0.418
Mof_C 	C 	0.8965	0.1711	0.994	0.333
Mof_C 	C 	0.8998	0.125	0.9643	-0.108
Mof_C 	C 	0.8553	0.1124	0.9007	0.041
Mof_H 	H 	0.8276	0.1228	0.8884	0.032
Mof_C 	C 	0.8527	0.0831	0.8544	-0.137
Mof_H 	H 	0.829	0.0847	0.8071	0.079
Mof_C 	C 	0.8942	0.0501	0.8955	0.132
Mof_C 	C 	0.9437	0.0678	0.9599	-0.139
Mof_H 	H 	0.9723	0.055	0.9775	0.13
Mof_C 	C 	0.9385	0.1066	0.9879	0.071
Mof_H 	H 	0.9665	0.1202	0.0279	0.028
Mof_C 	C 	0.9008	0.8017	0.6262	0.342
Mof_C 	C 	0.8989	0.8379	0.6698	-0.099
Mof_C 	C 	0.9429	0.8507	0.7326	0.029
Mof_H 	H 	0.9712	0.837	0.7502	0.039
Mof_C 	C 	0.9409	0.8866	0.7678	-0.106
Mof_H 	H 	0.9689	0.901	0.8068	0.074
Mof_C 	C 	0.8981	0.9004	0.7452	0.055
Mof_C 	C 	0.8574	0.8805	0.6832	-0.142
Mof_H 	H 	0.828	0.8895	0.6664	0.082
Mof_C 	C 	0.8581	0.8519	0.6495	0.076
Mof_H 	H 	0.8295	0.8397	0.6089	0.017
Mof_C 	C 	0.8935	0.9404	0.7844	0.061
Mof_C 	C 	0.9235	0.9354	0.8501	-0.222
Mof_H 	H 	0.9475	0.9122	0.8746	0.13
Mof_C 	C 	0.9152	0.9713	0.8824	0.353
Mof_C 	C 	0.8994	0.0088	0.8611	-0.193
Mof_C 	C 	0.8571	0.0104	0.7793	0.001
Mof_H 	H 	0.8351	0.0354	0.7612	0.031
Mof_C 	C 	0.8488	0.9781	0.7304	-0.038
Mof_C 	C 	0.9464	0.9177	0.9674	0.971
Mof_H 	H 	0.9366	0.8998	0.9288	-0.241
Mof_H 	H 	0.9808	0.9188	0.0004	-0.221
Mof_C 	C 	0.9357	0.8799	0.0017	-0.498
Mof_H 	H 	0.9103	0.8923	0.9968	0.187
Mof_H 	H 	0.9261	0.8485	0.9794	0.183
Mof_C 	C 	0.5512	0.2603	0.66	0.141
Mof_H 	H 	0.5351	0.2671	0.615	-0.025
Mof_C 	C 	0.6011	0.2619	0.7105	-0.198
Mof_H 	H 	0.6172	0.2704	0.6982	0.095
Mof_C 	C 	0.6234	0.2527	0.7687	0.095
Mof_C 	C 	0.599	0.2213	0.7809	-0.143
Mof_H 	H 	0.6157	0.2022	0.8198	0.091
Mof_C 	C 	0.5508	0.2226	0.7313	0.082
Mof_H 	H 	0.5332	0.2048	0.7363	0.004
Mof_C 	C 	0.753	0.2469	0.8579	0.136
Mof_H 	H 	0.7689	0.2407	0.8447	-0.021
Mof_C 	C 	0.7037	0.25	0.8102	-0.124
Mof_H 	H 	0.6888	0.2548	0.7653	0.066
Mof_C 	C 	0.6736	0.247	0.8201	0.061
Mof_C 	C 	0.7542	0.25	0.9389	0.225
Mof_H 	H 	0.7698	0.2474	0.9844	-0.062
Mof_C 	C 	0.7049	0.25	0.8884	-0.171
Mof_H 	H 	0.6908	0.2526	0.9049	0.097
Mof_N 	N 	0.528	0.2501	0.6739	-0.258
Mof_O 	O 	0.3633	0.2096	0.4512	-0.499
Mof_O 	O 	0.4405	0.2155	0.5252	-0.473
Mof_O 	O 	0.3617	0.8072	0.0534	-0.48
Mof_O 	O 	0.442	0.8119	0.1277	-0.452
Mof_O 	O 	0.3654	0.1111	0.2194	-0.251
Mof_O 	O 	0.4607	0.9391	0.3488	-0.442
Mof_O 	O 	0.858	0.1931	0.9602	-0.434
Mof_O 	O 	0.9401	0.18519	0.0504	-0.422
Mof_O 	O 	0.8579	0.7932	0.5641	-0.431
Mof_O 	O 	0.93989	0.7895	0.6496	-0.459
Mof_O 	O 	0.9369	0.9511	0.9507	-0.667
Mof_Zn	Zn	0.45307	0.25113	0.60079	1.211
Mof_Zn	Zn	0.34916	0.24762	0.49686	1.218
Mof_N 	N 	0.7772	0.2533	0.925	-0.257
Mof_N 	N 	0.7455	0.24622	0.8917	-0.094
Mof_C 	C 	0.9003	0.3022	0.9689	0.437
Mof_C 	C 	0.9007	0.3357	0.9278	-0.217
Mof_C 	C 	0.8597	0.356	0.8693	0.164
Mof_H 	H 	0.8314	0.3515	0.8579	-0.015
Mof_C 	C 	0.8597	0.3823	0.8283	-0.238
Mof_H 	H 	0.83	0.39	0.7857	0.12
Mof_C 	C 	0.8959	0.398	0.8411	0.151
Mof_C 	C 	0.9446	0.3847	0.9114	-0.152
Mof_H 	H 	0.9729	0.3976	0.9278	0.092
Mof_C 	C 	0.9432	0.3496	0.9512	0.093
Mof_H 	H 	0.9714	0.3371	0.9921	0.01
Mof_C 	C 	0.9002	0.6711	0.5984	0.361
Mof_C 	C 	0.9047	0.6245	0.6349	-0.151
Mof_C 	C 	0.8579	0.6088	0.6041	0.056
Mof_H 	H 	0.8297	0.6207	0.5628	0.024
Mof_C 	C 	0.8597	0.5722	0.6451	-0.159
Mof_H 	H 	0.8318	0.5627	0.6327	0.088
Mof_C 	C 	0.9005	0.5529	0.6991	0.124
Mof_C 	C 	0.9433	0.5704	0.7209	-0.197
Mof_H 	H 	0.972	0.5557	0.7579	0.089
Mof_C 	C 	0.9432	0.6055	0.6914	0.124
Mof_H 	H 	0.9723	0.6186	0.7111	-0.008
Mof_C 	C 	0.9051	0.5093	0.738	-0.052
Mof_C 	C 	0.8858	0.4689	0.7093	-0.099
Mof_H 	H 	0.8734	0.462	0.6662	0.068
Mof_C 	C 	0.8837	0.4299	0.7512	0.18
Mof_C 	C 	0.9019	0.4401	0.8089	-0.097
Mof_C 	C 	0.9362	0.4822	0.8514	-0.124
Mof_H 	H 	0.9531	0.4846	0.8974	0.082
Mof_C 	C 	0.9424	0.5195	0.8187	0.19
Mof_C 	C 	0.8431	0.3664	0.6577	0.108
Mof_H 	H 	0.8393	0.3909	0.6287	-0.001
Mof_H 	H 	0.8651	0.3424	0.6671	0.008
Mof_C 	C 	0.7908	0.3389	0.6117	-0.19
Mof_H 	H 	0.7652	0.3564	0.5701	0.086
Mof_H 	H 	0.7914	0.3054	0.601	0.086
Mof_C 	C 	0.0032	0.5527	0.9187	1.007
Mof_H 	H 	0.0043	0.5187	0.929	-0.276
Mof_H 	H 	0.0015	0.5717	0.9468	-0.272
Mof_C 	C 	0.046	0.5642	0.9376	-1.55
Mof_H 	H 	0.0574	0.5939	0.9641	0.5
Mof_H 	H 	0.0373	0.5726	0.8957	0.488
Mof_C 	C 	0.0835	0.5352	0.9716	1.117
Mof_H 	H 	0.1037	0.5474	0.9658	-0.319
Mof_H 	H 	0.1015	0.5375	0.0197	-0.311
Mof_C 	C 	0.0734	0.48	0.9512	-0.539
Mof_H 	H 	0.0702	0.4735	0.9133	0.187
Mof_H 	H 	0.0451	0.4688	0.9398	0.213
Mof_C 	C 	0.1116	0.4607	0.0073	-0.233
Mof_H 	H 	0.1264	0.4399	0.9978	0.094
Mof_H 	H 	0.1341	0.486	0.0385	0.091
Mof_C 	C 	0.0996	0.4328	0.0377	0.64
Mof_H 	H 	0.1031	0.3996	0.03	-0.166
Mof_H 	H 	0.0656	0.4378	0.0065	-0.161
Mof_C 	C 	0.1147	0.43	0.1027	-1.297
Mof_H 	H 	0.0967	0.4054	0.1013	0.427
Mof_H 	H 	0.1479	0.4219	0.1372	0.407
Mof_H 	H 	0.1096	0.4608	0.1132	0.42
Mof_C 	C 	0.3965	0.3289	0.494	0.334
Mof_C 	C 	0.3998	0.375	0.4643	-0.109
Mof_C 	C 	0.3553	0.3876	0.4007	0.042
Mof_H 	H 	0.3276	0.3772	0.3884	0.032
Mof_C 	C 	0.3527	0.4169	0.3544	-0.138
Mof_H 	H 	0.329	0.4153	0.3071	0.08
Mof_C 	C 	0.3942	0.4499	0.3955	0.133
Mof_C 	C 	0.4437	0.4322	0.4599	-0.141
Mof_H 	H 	0.4723	0.445	0.4775	0.131
Mof_C 	C 	0.4385	0.3934	0.4879	0.074
Mof_H 	H 	0.4665	0.3798	0.5279	0.026
Mof_C 	C 	0.4008	0.6983	0.1262	0.342
Mof_C 	C 	0.3989	0.6621	0.1698	-0.098
Mof_C 	C 	0.4429	0.6493	0.2326	0.029
Mof_H 	H 	0.4712	0.663	0.2502	0.04
Mof_C 	C 	0.4409	0.6134	0.2678	-0.106
Mof_H 	H 	0.4689	0.599	0.3068	0.074
Mof_C 	C 	0.3981	0.5996	0.2452	0.055
Mof_C 	C 	0.3574	0.6195	0.1832	-0.141
Mof_H 	H 	0.328	0.6105	0.1664	0.082
Mof_C 	C 	0.3581	0.6481	0.1495	0.076
Mof_H 	H 	0.3295	0.6603	0.1089	0.017
Mof_C 	C 	0.3935	0.5596	0.2844	0.062
Mof_C 	C 	0.4235	0.5646	0.3501	-0.223
Mof_H 	H 	0.4475	0.5878	0.3746	0.131
Mof_C 	C 	0.4152	0.5287	0.3824	0.355
Mof_C 	C 	0.3994	0.4912	0.3611	-0.194
Mof_C 	C 	0.3571	0.4896	0.2793	0.001
Mof_H 	H 	0.3351	0.4646	0.2612	0.031
Mof_C 	C 	0.3488	0.5219	0.2304	-0.038
Mof_C 	C 	0.4464	0.5823	0.4674	0.982
Mof_H 	H 	0.4366	0.6002	0.4288	-0.244
Mof_H 	H 	0.4808	0.5812	0.5004	-0.225
Mof_C 	C 	0.4357	0.6201	0.5017	-0.505
Mof_H 	H 	0.4103	0.6077	0.4968	0.189
Mof_H 	H 	0.4261	0.6515	0.4794	0.186
Mof_C 	C 	0.0512	0.2397	0.16	0.141
Mof_H 	H 	0.0351	0.2329	0.115	-0.026
Mof_C 	C 	0.1011	0.2381	0.2105	-0.198
Mof_H 	H 	0.1172	0.2296	0.1982	0.095
Mof_C 	C 	0.1234	0.2473	0.2687	0.096
Mof_C 	C 	0.099	0.2787	0.2809	-0.143
Mof_H 	H 	0.1157	0.2978	0.3198	0.091
Mof_C 	C 	0.0508	0.2774	0.2313	0.082
Mof_H 	H 	0.0332	0.2952	0.2363	0.004
Mof_C 	C 	0.253	0.2531	0.3579	0.136
Mof_H 	H 	0.2689	0.2593	0.3447	-0.021
Mof_C 	C 	0.2037	0.25	0.3102	-0.124
Mof_H 	H 	0.1888	0.2452	0.2653	0.066
Mof_C 	C 	0.1736	0.253	0.3201	0.061
Mof_C 	C 	0.2542	0.25	0.4389	0.225
Mof_H 	H 	0.2698	0.2526	0.4844	-0.062
Mof_C 	C 	0.2049	0.25	0.3884	-0.171
Mof_H 	H 	0.1908	0.2474	0.4049	0.097
Mof_N 	N 	0.028	0.2499	0.1739	-0.258
Mof_O 	O 	0.8633	0.2904	0.9512	-0.499
Mof_O 	O 	0.9405	0.2845	0.0252	-0.472
Mof_O 	O 	0.8617	0.6928	0.5534	-0.481
Mof_O 	O 	0.942	0.6881	0.6277	-0.452
Mof_O 	O 	0.8654	0.3889	0.7194	-0.251
Mof_O 	O 	0.9607	0.5609	0.8488	-0.444
Mof_O 	O 	0.358	0.3069	0.4602	-0.435
Mof_O 	O 	0.4401	0.31481	0.5504	-0.423
Mof_O 	O 	0.3579	0.7068	0.0641	-0.431
Mof_O 	O 	0.43989	0.7105	0.1496	-0.459
Mof_O 	O 	0.4369	0.5489	0.4507	-0.672
Mof_Zn	Zn	0.95307	0.24887	0.10079	1.211
Mof_Zn	Zn	0.84915	0.25238	0.99686	1.217
Mof_N 	N 	0.2772	0.2467	0.425	-0.257
Mof_N 	N 	0.2455	0.25378	0.3917	-0.094
Mof_C 	C 	0.4003	0.8022	0.9689	0.438
Mof_C 	C 	0.4007	0.8357	0.9278	-0.218
Mof_C 	C 	0.3597	0.856	0.8693	0.165
Mof_H 	H 	0.3314	0.8515	0.8579	-0.015
Mof_C 	C 	0.3597	0.8823	0.8283	-0.238
Mof_H 	H 	0.33	0.89	0.7857	0.12
Mof_C 	C 	0.3959	0.898	0.8411	0.151
Mof_C 	C 	0.4446	0.8847	0.9114	-0.152
Mof_H 	H 	0.4729	0.8976	0.9278	0.092
Mof_C 	C 	0.4432	0.8496	0.9512	0.093
Mof_H 	H 	0.4714	0.8371	0.9921	0.01
Mof_C 	C 	0.4002	0.1711	0.5984	0.361
Mof_C 	C 	0.4047	0.1245	0.6349	-0.15
Mof_C 	C 	0.3579	0.1088	0.6041	0.056
Mof_H 	H 	0.3297	0.1207	0.5628	0.024
Mof_C 	C 	0.3597	0.0722	0.6451	-0.158
Mof_H 	H 	0.3318	0.0627	0.6327	0.088
Mof_C 	C 	0.4005	0.0529	0.6991	0.124
Mof_C 	C 	0.4433	0.0704	0.7209	-0.197
Mof_H 	H 	0.472	0.0557	0.7579	0.089
Mof_C 	C 	0.4432	0.1055	0.6914	0.123
Mof_H 	H 	0.4723	0.1186	0.7111	-0.008
Mof_C 	C 	0.4051	0.0093	0.738	-0.052
Mof_C 	C 	0.3858	0.9689	0.7093	-0.1
Mof_H 	H 	0.3734	0.962	0.6662	0.068
Mof_C 	C 	0.3837	0.9299	0.7512	0.18
Mof_C 	C 	0.4019	0.9401	0.8089	-0.097
Mof_C 	C 	0.4362	0.9822	0.8514	-0.124
Mof_H 	H 	0.4531	0.9846	0.8974	0.082
Mof_C 	C 	0.4424	0.0195	0.8187	0.189
Mof_C 	C 	0.3431	0.8664	0.6577	0.108
Mof_H 	H 	0.3393	0.8909	0.6287	-0.001
Mof_H 	H 	0.3651	0.8424	0.6671	0.008
Mof_C 	C 	0.2908	0.8389	0.6117	-0.19
Mof_H 	H 	0.2652	0.8564	0.5701	0.086
Mof_H 	H 	0.2914	0.8054	0.601	0.086
Mof_C 	C 	0.5032	0.0527	0.9187	0.996
Mof_H 	H 	0.5043	0.0187	0.929	-0.273
Mof_H 	H 	0.5015	0.0717	0.9468	-0.269
Mof_C 	C 	0.546	0.0642	0.9376	-1.534
Mof_H 	H 	0.5574	0.0939	0.9641	0.495
Mof_H 	H 	0.5373	0.0726	0.8957	0.484
Mof_C 	C 	0.5835	0.0352	0.9716	1.103
Mof_H 	H 	0.6037	0.0474	0.9658	-0.315
Mof_H 	H 	0.6015	0.0375	0.0197	-0.306
Mof_C 	C 	0.5734	0.98	0.9512	-0.536
Mof_H 	H 	0.5702	0.9735	0.9133	0.185
Mof_H 	H 	0.5451	0.9688	0.9398	0.212
Mof_C 	C 	0.6116	0.9607	0.0073	-0.23
Mof_H 	H 	0.6264	0.9399	0.9978	0.093
Mof_H 	H 	0.6341	0.986	0.0385	0.09
Mof_C 	C 	0.5996	0.9328	0.0377	0.636
Mof_H 	H 	0.6031	0.8996	0.03	-0.164
Mof_H 	H 	0.5656	0.9378	0.0065	-0.16
Mof_C 	C 	0.6147	0.93	0.1027	-1.291
Mof_H 	H 	0.5967	0.9054	0.1013	0.425
Mof_H 	H 	0.6479	0.9219	0.1372	0.405
Mof_H 	H 	0.6096	0.9608	0.1132	0.418
Mof_C 	C 	0.8965	0.8289	0.494	0.334
Mof_C 	C 	0.8998	0.875	0.4643	-0.11
Mof_C 	C 	0.8553	0.8876	0.4007	0.042
Mof_H 	H 	0.8276	0.8772	0.3884	0.032
Mof_C 	C 	0.8527	0.9169	0.3544	-0.138
Mof_H 	H 	0.829	0.9153	0.3071	0.08
Mof_C 	C 	0.8942	0.9499	0.3955	0.133
Mof_C 	C 	0.9437	0.9322	0.4599	-0.141
Mof_H 	H 	0.9723	0.945	0.4775	0.131
Mof_C 	C 	0.9385	0.8934	0.4879	0.074
Mof_H 	H 	0.9665	0.8798	0.5279	0.026
Mof_C 	C 	0.9008	0.1983	0.1262	0.342
Mof_C 	C 	0.8989	0.1621	0.1698	-0.098
Mof_C 	C 	0.9429	0.1493	0.2326	0.029
Mof_H 	H 	0.9712	0.163	0.2502	0.04
Mof_C 	C 	0.9409	0.1134	0.2678	-0.106
Mof_H 	H 	0.9689	0.099	0.3068	0.074
Mof_C 	C 	0.8981	0.0996	0.2452	0.055
Mof_C 	C 	0.8574	0.1195	0.1832	-0.141
Mof_H 	H 	0.828	0.1105	0.1664	0.082
Mof_C 	C 	0.8581	0.1481	0.1495	0.075
Mof_H 	H 	0.8295	0.1603	0.1089	0.018
Mof_C 	C 	0.8935	0.0596	0.2844	0.062
Mof_C 	C 	0.9235	0.0646	0.3501	-0.223
Mof_H 	H 	0.9475	0.0878	0.3746	0.131
Mof_C 	C 	0.9152	0.0287	0.3824	0.355
Mof_C 	C 	0.8994	0.9912	0.3611	-0.195
Mof_C 	C 	0.8571	0.9896	0.2793	0.001
Mof_H 	H 	0.8351	0.9646	0.2612	0.031
Mof_C 	C 	0.8488	0.0219	0.2304	-0.038
Mof_C 	C 	0.9464	0.0823	0.4674	0.983
Mof_H 	H 	0.9366	0.1002	0.4288	-0.244
Mof_H 	H 	0.9808	0.0812	0.5004	-0.225
Mof_C 	C 	0.9357	0.1201	0.5017	-0.505
Mof_H 	H 	0.9103	0.1077	0.4968	0.189
Mof_H 	H 	0.9261	0.1515	0.4794	0.186
Mof_C 	C 	0.5512	0.7397	0.16	0.141
Mof_H 	H 	0.5351	0.7329	0.115	-0.025
Mof_C 	C 	0.6011	0.7381	0.2105	-0.198
Mof_H 	H 	0.6172	0.7296	0.1982	0.095
Mof_C 	C 	0.6234	0.7473	0.2687	0.095
Mof_C 	C 	0.599	0.7787	0.2809	-0.143
Mof_H 	H 	0.6157	0.7978	0.3198	0.091
Mof_C 	C 	0.5508	0.7774	0.2313	0.082
Mof_H 	H 	0.5332	0.7952	0.2363	0.004
Mof_C 	C 	0.753	0.7531	0.3579	0.136
Mof_H 	H 	0.7689	0.7593	0.3447	-0.021
Mof_C 	C 	0.7037	0.75	0.3102	-0.124
Mof_H 	H 	0.6888	0.7452	0.2653	0.066
Mof_C 	C 	0.6736	0.753	0.3201	0.061
Mof_C 	C 	0.7542	0.75	0.4389	0.225
Mof_H 	H 	0.7698	0.7526	0.4844	-0.062
Mof_C 	C 	0.7049	0.75	0.3884	-0.171
Mof_H 	H 	0.6908	0.7474	0.4049	0.097
Mof_N 	N 	0.528	0.7499	0.1739	-0.258
Mof_O 	O 	0.3633	0.7904	0.9512	-0.499
Mof_O 	O 	0.4405	0.7845	0.0252	-0.473
Mof_O 	O 	0.3617	0.1928	0.5534	-0.48
Mof_O 	O 	0.442	0.1881	0.6277	-0.452
Mof_O 	O 	0.3654	0.8889	0.7194	-0.251
Mof_O 	O 	0.4607	0.0609	0.8488	-0.441
Mof_O 	O 	0.858	0.8069	0.4602	-0.435
Mof_O 	O 	0.9401	0.81481	0.5504	-0.423
Mof_O 	O 	0.8579	0.2068	0.0641	-0.431
Mof_O 	O 	0.93989	0.2105	0.1496	-0.459
Mof_O 	O 	0.9369	0.0489	0.4507	-0.673
Mof_Zn	Zn	0.45307	0.74887	0.10079	1.211
Mof_Zn	Zn	0.34916	0.75238	0.99686	1.218
Mof_N 	N 	0.7772	0.7467	0.425	-0.257
Mof_N 	N 	0.7455	0.75378	0.3917	-0.094
_end
