data_functionalizedCrystal
_audit_creation_method	'EQeq! by Chris Wilmer'
_symmetry_space_group_name_H-M	'P1'
_symmetry_Int_Tables_number	1
_symmetry_cell_setting	triclinic
loop_
_symmetry_equiv_pos_as_xyz
  x,y,z
_cell_length_a	13.6728
_cell_length_b	45.5987
_cell_length_c	28.4576
_cell_angle_alpha	90
_cell_angle_beta	90
_cell_angle_gamma	90
loop_
_atom_site_label
_atom_site_type_symbol
_atom_site_fract_x
_atom_site_fract_y
_atom_site_fract_z
_atom_site_charge
Mof_Zn	Zn	0.33055	0.56823	0.56324	1.163
Mof_Zn	Zn	0.63817	0.81006	0.75686	1.166
Mof_Zn	Zn	0.34718	0.58737	0.02618	1.164
Mof_I 	I 	0.40234	0.5966	0.49538	-0.369
Mof_I 	I 	0.1506	0.55533	0.57667	-0.377
Mof_I 	I 	0.80099	0.80327	0.79881	-0.376
Mof_I 	I 	0.63409	0.8247	0.67096	-0.374
Mof_I 	I 	0.27007	0.53743	0.0102	-0.391
Mof_I 	I 	0.26145	0.62796	0.07173	-0.365
Mof_C 	C 	0.4153	0.64139	0.7486	0.103
Mof_C 	C 	0.4528	0.68484	0.7824	0.103
Mof_C 	C 	0.417	0.64556	0.8273	0.1
Mof_C 	C 	0.4015	0.62402	0.7046	0.056
Mof_C 	C 	0.3748	0.59473	0.7068	-0.126
Mof_H 	H 	0.3671	0.5853	0.7363	0.083
Mof_C 	C 	0.3598	0.57968	0.666	0.082
Mof_H 	H 	0.342	0.5596	0.668	-0.019
Mof_C 	C 	0.3963	0.61983	0.6213	0.063
Mof_H 	H 	0.4044	0.6285	0.5911	-0.007
Mof_C 	C 	0.4134	0.6367	0.6605	-0.116
Mof_H 	H 	0.433	0.6566	0.6576	0.081
Mof_C 	C 	0.4868	0.71569	0.7771	0.053
Mof_C 	C 	0.4819	0.72957	0.7345	-0.109
Mof_H 	H 	0.4521	0.7201	0.7084	0.081
Mof_C 	C 	0.5208	0.75767	0.7298	0.058
Mof_H 	H 	0.5166	0.7674	0.7003	0.005
Mof_C 	C 	0.5666	0.75807	0.8075	0.068
Mof_H 	H 	0.5954	0.768	0.8334	-0.011
Mof_C 	C 	0.5284	0.72999	0.8144	-0.116
Mof_H 	H 	0.5312	0.721	0.8445	0.081
Mof_C 	C 	0.4069	0.63164	0.8741	0.054
Mof_C 	C 	0.4073	0.64856	0.915	-0.12
Mof_H 	H 	0.4155	0.6692	0.9135	0.083
Mof_C 	C 	0.3957	0.6347	0.9575	0.074
Mof_H 	H 	0.3971	0.6463	0.9852	-0.01
Mof_C 	C 	0.3827	0.58963	0.9223	0.06
Mof_H 	H 	0.3735	0.569	0.9247	-0.001
Mof_C 	C 	0.3958	0.60202	0.8784	-0.11
Mof_H 	H 	0.3971	0.5899	0.8512	0.081
Mof_C 	C 	0.5826	0.45546	0.6075	0.104
Mof_C 	C 	0.5914	0.41001	0.6383	0.106
Mof_C 	C 	0.7254	0.43054	0.6066	0.103
Mof_C 	C 	0.5241	0.48167	0.5946	0.055
Mof_C 	C 	0.5605	0.50352	0.5665	-0.12
Mof_H 	H 	0.6253	0.5024	0.5545	0.088
Mof_C 	C 	0.5009	0.52739	0.5557	0.068
Mof_H 	H 	0.5254	0.5422	0.5354	-0.007
Mof_C 	C 	0.3744	0.50879	0.5985	0.075
Mof_H 	H 	0.3083	0.51	0.6086	-0.012
Mof_C 	C 	0.4293	0.48431	0.6113	-0.118
Mof_H 	H 	0.4021	0.4697	0.6312	0.078
Mof_C 	C 	0.5407	0.38509	0.6604	0.058
Mof_C 	C 	0.4395	0.38444	0.6619	-0.111
Mof_H 	H 	0.4029	0.4	0.6483	0.082
Mof_C 	C 	0.3917	0.36131	0.683	0.067
Mof_H 	H 	0.3222	0.3607	0.6825	-0.008
Mof_C 	C 	0.5378	0.33996	0.7028	0.07
Mof_H 	H 	0.5723	0.3243	0.7171	-0.013
Mof_C 	C 	0.5911	0.3624	0.6809	-0.119
Mof_H 	H 	0.6605	0.3619	0.6803	0.079
Mof_C 	C 	0.8286	0.42781	0.5907	0.057
Mof_C 	C 	0.8834	0.40297	0.6011	-0.122
Mof_H 	H 	0.8564	0.3881	0.6206	0.093
Mof_C 	C 	0.9755	0.39973	0.5836	0.065
Mof_H 	H 	0.0112	0.3825	0.5912	-0.004
Mof_C 	C 	0.9658	0.44387	0.5467	0.081
Mof_H 	H 	0.995	0.4586	0.5277	-0.008
Mof_C 	C 	0.8732	0.44859	0.5628	-0.134
Mof_H 	H 	0.8395	0.4661	0.5548	0.086
Mof_N 	N 	0.4382	0.67009	0.7422	-0.138
Mof_N 	N 	0.4412	0.67415	0.8254	-0.139
Mof_N 	N 	0.4044	0.62833	0.7893	-0.14
Mof_N 	N 	0.3687	0.59164	0.6239	-0.271
Mof_N 	N 	0.5642	0.77137	0.7661	-0.272
Mof_N 	N 	0.3826	0.60608	0.962	-0.27
Mof_N 	N 	0.5367	0.43382	0.6279	-0.138
Mof_N 	N 	0.6872	0.40754	0.6286	-0.133
Mof_N 	N 	0.6792	0.45551	0.5957	-0.14
Mof_N 	N 	0.4101	0.53017	0.573	-0.274
Mof_N 	N 	0.4404	0.33993	0.7041	-0.273
Mof_N 	N 	0.0178	0.42002	0.5558	-0.277
Mof_Zn	Zn	0.16945	0.43177	0.06324	1.162
Mof_Zn	Zn	0.86183	0.18994	0.25686	1.165
Mof_Zn	Zn	0.15282	0.41263	0.52618	1.163
Mof_I 	I 	0.09766	0.4034	0.99538	-0.369
Mof_I 	I 	0.3494	0.44467	0.07667	-0.378
Mof_I 	I 	0.69901	0.19673	0.29881	-0.377
Mof_I 	I 	0.86591	0.1753	0.17096	-0.375
Mof_I 	I 	0.22993	0.46257	0.5102	-0.392
Mof_I 	I 	0.23855	0.37204	0.57173	-0.366
Mof_C 	C 	0.0847	0.35861	0.2486	0.102
Mof_C 	C 	0.0472	0.31516	0.2824	0.102
Mof_C 	C 	0.083	0.35444	0.3273	0.099
Mof_C 	C 	0.0985	0.37598	0.2046	0.055
Mof_C 	C 	0.1252	0.40527	0.2068	-0.127
Mof_H 	H 	0.1329	0.4147	0.2363	0.082
Mof_C 	C 	0.1402	0.42032	0.166	0.081
Mof_H 	H 	0.158	0.4404	0.168	-0.02
Mof_C 	C 	0.1037	0.38017	0.1213	0.062
Mof_H 	H 	0.0956	0.3715	0.0911	-0.008
Mof_C 	C 	0.0866	0.3633	0.1605	-0.117
Mof_H 	H 	0.067	0.3434	0.1576	0.08
Mof_C 	C 	0.0132	0.28431	0.2771	0.052
Mof_C 	C 	0.0181	0.27043	0.2345	-0.11
Mof_H 	H 	0.0479	0.2799	0.2084	0.08
Mof_C 	C 	0.9792	0.24233	0.2298	0.057
Mof_H 	H 	0.9834	0.2326	0.2003	0.004
Mof_C 	C 	0.9334	0.24193	0.3075	0.067
Mof_H 	H 	0.9046	0.232	0.3334	-0.012
Mof_C 	C 	0.9716	0.27001	0.3144	-0.117
Mof_H 	H 	0.9688	0.279	0.3445	0.08
Mof_C 	C 	0.0931	0.36836	0.3741	0.053
Mof_C 	C 	0.0927	0.35144	0.415	-0.121
Mof_H 	H 	0.0845	0.3308	0.4135	0.082
Mof_C 	C 	0.1043	0.3653	0.4575	0.073
Mof_H 	H 	0.1029	0.3537	0.4852	-0.011
Mof_C 	C 	0.1173	0.41037	0.4223	0.059
Mof_H 	H 	0.1265	0.431	0.4247	-0.002
Mof_C 	C 	0.1042	0.39798	0.3784	-0.111
Mof_H 	H 	0.1029	0.4101	0.3512	0.08
Mof_C 	C 	0.9174	0.54454	0.1075	0.103
Mof_C 	C 	0.9086	0.58999	0.1383	0.105
Mof_C 	C 	0.7746	0.56946	0.1066	0.101
Mof_C 	C 	0.9759	0.51833	0.0946	0.055
Mof_C 	C 	0.9395	0.49648	0.0665	-0.121
Mof_H 	H 	0.8747	0.4976	0.0545	0.087
Mof_C 	C 	0.9991	0.47261	0.0557	0.067
Mof_H 	H 	0.9746	0.4578	0.0354	-0.007
Mof_C 	C 	0.1256	0.49121	0.0985	0.075
Mof_H 	H 	0.1917	0.49	0.1086	-0.012
Mof_C 	C 	0.0707	0.51569	0.1113	-0.119
Mof_H 	H 	0.0979	0.5303	0.1312	0.078
Mof_C 	C 	0.9593	0.61491	0.1604	0.059
Mof_C 	C 	0.0605	0.61556	0.1619	-0.112
Mof_H 	H 	0.0971	0.6	0.1483	0.082
Mof_C 	C 	0.1083	0.63869	0.183	0.068
Mof_H 	H 	0.1778	0.6393	0.1825	-0.008
Mof_C 	C 	0.9622	0.66004	0.2028	0.071
Mof_H 	H 	0.9277	0.6757	0.2171	-0.013
Mof_C 	C 	0.9089	0.6376	0.1809	-0.119
Mof_H 	H 	0.8395	0.6381	0.1803	0.08
Mof_C 	C 	0.6714	0.57219	0.0907	0.057
Mof_C 	C 	0.6166	0.59703	0.1011	-0.122
Mof_H 	H 	0.6436	0.6119	0.1206	0.093
Mof_C 	C 	0.5245	0.60027	0.0836	0.066
Mof_H 	H 	0.4888	0.6175	0.0912	-0.004
Mof_C 	C 	0.5342	0.55613	0.0467	0.081
Mof_H 	H 	0.505	0.5414	0.0277	-0.009
Mof_C 	C 	0.6268	0.55141	0.0628	-0.135
Mof_H 	H 	0.6605	0.5339	0.0548	0.087
Mof_N 	N 	0.0618	0.32991	0.2422	-0.138
Mof_N 	N 	0.0588	0.32585	0.3254	-0.139
Mof_N 	N 	0.0956	0.37167	0.2893	-0.14
Mof_N 	N 	0.1313	0.40836	0.1239	-0.271
Mof_N 	N 	0.9358	0.22863	0.2661	-0.272
Mof_N 	N 	0.1174	0.39392	0.462	-0.27
Mof_N 	N 	0.9633	0.56618	0.1279	-0.138
Mof_N 	N 	0.8128	0.59246	0.1286	-0.133
Mof_N 	N 	0.8208	0.54449	0.0957	-0.139
Mof_N 	N 	0.0899	0.46983	0.073	-0.274
Mof_N 	N 	0.0596	0.66007	0.2041	-0.273
Mof_N 	N 	0.4822	0.57998	0.0558	-0.278
Mof_Zn	Zn	0.66945	0.06823	0.93676	1.162
Mof_Zn	Zn	0.36183	0.31006	0.74314	1.165
Mof_Zn	Zn	0.65282	0.08737	0.47382	1.163
Mof_I 	I 	0.59766	0.0966	0.00462	-0.37
Mof_I 	I 	0.8494	0.05533	0.92333	-0.378
Mof_I 	I 	0.19901	0.30327	0.70119	-0.377
Mof_I 	I 	0.36591	0.3247	0.82904	-0.375
Mof_I 	I 	0.72993	0.03743	0.4898	-0.392
Mof_I 	I 	0.73855	0.12796	0.42827	-0.366
Mof_C 	C 	0.5847	0.14139	0.7514	0.102
Mof_C 	C 	0.5472	0.18484	0.7176	0.102
Mof_C 	C 	0.583	0.14556	0.6727	0.099
Mof_C 	C 	0.5985	0.12402	0.7954	0.055
Mof_C 	C 	0.6252	0.09473	0.7932	-0.127
Mof_H 	H 	0.6329	0.0853	0.7637	0.082
Mof_C 	C 	0.6402	0.07968	0.834	0.081
Mof_H 	H 	0.658	0.0596	0.832	-0.02
Mof_C 	C 	0.6037	0.11983	0.8787	0.062
Mof_H 	H 	0.5956	0.1285	0.9089	-0.008
Mof_C 	C 	0.5866	0.1367	0.8395	-0.117
Mof_H 	H 	0.567	0.1566	0.8424	0.08
Mof_C 	C 	0.5132	0.21569	0.7229	0.052
Mof_C 	C 	0.5181	0.22957	0.7655	-0.11
Mof_H 	H 	0.5479	0.2201	0.7916	0.08
Mof_C 	C 	0.4792	0.25767	0.7702	0.057
Mof_H 	H 	0.4834	0.2674	0.7997	0.004
Mof_C 	C 	0.4334	0.25807	0.6925	0.067
Mof_H 	H 	0.4046	0.268	0.6666	-0.012
Mof_C 	C 	0.4716	0.22999	0.6856	-0.117
Mof_H 	H 	0.4688	0.221	0.6555	0.08
Mof_C 	C 	0.5931	0.13164	0.6259	0.053
Mof_C 	C 	0.5927	0.14856	0.585	-0.121
Mof_H 	H 	0.5845	0.1692	0.5865	0.082
Mof_C 	C 	0.6043	0.1347	0.5425	0.073
Mof_H 	H 	0.6029	0.1463	0.5148	-0.011
Mof_C 	C 	0.6173	0.08963	0.5777	0.059
Mof_H 	H 	0.6265	0.069	0.5753	-0.002
Mof_C 	C 	0.6042	0.10202	0.6216	-0.111
Mof_H 	H 	0.6029	0.0899	0.6488	0.08
Mof_C 	C 	0.4174	0.95546	0.8925	0.103
Mof_C 	C 	0.4086	0.91001	0.8617	0.105
Mof_C 	C 	0.2746	0.93054	0.8934	0.101
Mof_C 	C 	0.4759	0.98167	0.9054	0.054
Mof_C 	C 	0.4395	0.00352	0.9335	-0.121
Mof_H 	H 	0.3747	0.0024	0.9455	0.087
Mof_C 	C 	0.4991	0.02739	0.9443	0.067
Mof_H 	H 	0.4746	0.0422	0.9646	-0.007
Mof_C 	C 	0.6256	0.00879	0.9015	0.075
Mof_H 	H 	0.6917	0.01	0.8914	-0.012
Mof_C 	C 	0.5707	0.98431	0.8887	-0.118
Mof_H 	H 	0.5979	0.9697	0.8688	0.078
Mof_C 	C 	0.4593	0.88509	0.8396	0.058
Mof_C 	C 	0.5605	0.88444	0.8381	-0.111
Mof_H 	H 	0.5971	0.9	0.8517	0.082
Mof_C 	C 	0.6083	0.86131	0.817	0.067
Mof_H 	H 	0.6778	0.8607	0.8175	-0.008
Mof_C 	C 	0.4622	0.83996	0.7972	0.07
Mof_H 	H 	0.4277	0.8243	0.7829	-0.013
Mof_C 	C 	0.4089	0.8624	0.8191	-0.119
Mof_H 	H 	0.3395	0.8619	0.8197	0.079
Mof_C 	C 	0.1714	0.92781	0.9093	0.058
Mof_C 	C 	0.1166	0.90297	0.8989	-0.123
Mof_H 	H 	0.1436	0.8881	0.8794	0.093
Mof_C 	C 	0.0245	0.89973	0.9164	0.067
Mof_H 	H 	0.9888	0.8825	0.9088	-0.005
Mof_C 	C 	0.0342	0.94387	0.9533	0.082
Mof_H 	H 	0.005	0.9586	0.9723	-0.009
Mof_C 	C 	0.1268	0.94859	0.9372	-0.135
Mof_H 	H 	0.1605	0.9661	0.9452	0.087
Mof_N 	N 	0.5618	0.17009	0.7578	-0.138
Mof_N 	N 	0.5588	0.17415	0.6746	-0.139
Mof_N 	N 	0.5956	0.12833	0.7107	-0.14
Mof_N 	N 	0.6313	0.09164	0.8761	-0.271
Mof_N 	N 	0.4358	0.27137	0.7339	-0.272
Mof_N 	N 	0.6174	0.10608	0.538	-0.27
Mof_N 	N 	0.4633	0.93382	0.8721	-0.138
Mof_N 	N 	0.3128	0.90754	0.8714	-0.133
Mof_N 	N 	0.3208	0.95551	0.9043	-0.139
Mof_N 	N 	0.5899	0.03017	0.927	-0.274
Mof_N 	N 	0.5596	0.83993	0.7959	-0.273
Mof_N 	N 	0.9822	0.92002	0.9442	-0.278
Mof_Zn	Zn	0.83055	0.93177	0.43676	1.162
Mof_Zn	Zn	0.13817	0.68994	0.24314	1.165
Mof_Zn	Zn	0.84718	0.91263	0.97382	1.163
Mof_I 	I 	0.90234	0.9034	0.50462	-0.37
Mof_I 	I 	0.6506	0.94467	0.42333	-0.378
Mof_I 	I 	0.30099	0.69673	0.20119	-0.377
Mof_I 	I 	0.13409	0.6753	0.32904	-0.375
Mof_I 	I 	0.77007	0.96257	0.9898	-0.392
Mof_I 	I 	0.76145	0.87204	0.92827	-0.366
Mof_C 	C 	0.9153	0.85861	0.2514	0.102
Mof_C 	C 	0.9528	0.81516	0.2176	0.102
Mof_C 	C 	0.917	0.85444	0.1727	0.099
Mof_C 	C 	0.9015	0.87598	0.2954	0.056
Mof_C 	C 	0.8748	0.90527	0.2932	-0.127
Mof_H 	H 	0.8671	0.9147	0.2637	0.082
Mof_C 	C 	0.8598	0.92032	0.334	0.081
Mof_H 	H 	0.842	0.9404	0.332	-0.02
Mof_C 	C 	0.8963	0.88017	0.3787	0.062
Mof_H 	H 	0.9044	0.8715	0.4089	-0.008
Mof_C 	C 	0.9134	0.8633	0.3395	-0.117
Mof_H 	H 	0.933	0.8434	0.3424	0.08
Mof_C 	C 	0.9868	0.78431	0.2229	0.053
Mof_C 	C 	0.9819	0.77043	0.2655	-0.109
Mof_H 	H 	0.9521	0.7799	0.2916	0.08
Mof_C 	C 	0.0208	0.74233	0.2702	0.056
Mof_H 	H 	0.0166	0.7326	0.2997	0.004
Mof_C 	C 	0.0666	0.74193	0.1925	0.068
Mof_H 	H 	0.0954	0.732	0.1666	-0.012
Mof_C 	C 	0.0284	0.77001	0.1856	-0.118
Mof_H 	H 	0.0312	0.779	0.1555	0.08
Mof_C 	C 	0.9069	0.86836	0.1259	0.053
Mof_C 	C 	0.9073	0.85144	0.085	-0.121
Mof_H 	H 	0.9155	0.8308	0.0865	0.082
Mof_C 	C 	0.8957	0.8653	0.0425	0.073
Mof_H 	H 	0.8971	0.8537	0.0148	-0.01
Mof_C 	C 	0.8827	0.91037	0.0777	0.059
Mof_H 	H 	0.8735	0.931	0.0753	-0.002
Mof_C 	C 	0.8958	0.89798	0.1216	-0.111
Mof_H 	H 	0.8971	0.9101	0.1488	0.08
Mof_C 	C 	0.0826	0.04454	0.3925	0.103
Mof_C 	C 	0.0914	0.08999	0.3617	0.105
Mof_C 	C 	0.2254	0.06946	0.3934	0.101
Mof_C 	C 	0.0241	0.01833	0.4054	0.054
Mof_C 	C 	0.0605	0.99648	0.4335	-0.12
Mof_H 	H 	0.1253	0.9976	0.4455	0.087
Mof_C 	C 	0.0009	0.97261	0.4443	0.066
Mof_H 	H 	0.0254	0.9578	0.4646	-0.007
Mof_C 	C 	0.8744	0.99121	0.4015	0.075
Mof_H 	H 	0.8083	0.99	0.3914	-0.012
Mof_C 	C 	0.9293	0.01569	0.3887	-0.118
Mof_H 	H 	0.9021	0.0303	0.3688	0.077
Mof_C 	C 	0.0407	0.11491	0.3396	0.058
Mof_C 	C 	0.9395	0.11556	0.3381	-0.111
Mof_H 	H 	0.9029	0.1	0.3517	0.082
Mof_C 	C 	0.8917	0.13869	0.317	0.067
Mof_H 	H 	0.8222	0.1393	0.3175	-0.008
Mof_C 	C 	0.0378	0.16004	0.2972	0.071
Mof_H 	H 	0.0723	0.1757	0.2829	-0.013
Mof_C 	C 	0.0911	0.1376	0.3191	-0.119
Mof_H 	H 	0.1605	0.1381	0.3197	0.079
Mof_C 	C 	0.3286	0.07219	0.4093	0.057
Mof_C 	C 	0.3834	0.09703	0.3989	-0.122
Mof_H 	H 	0.3564	0.1119	0.3794	0.093
Mof_C 	C 	0.4755	0.10027	0.4164	0.066
Mof_H 	H 	0.5112	0.1175	0.4088	-0.004
Mof_C 	C 	0.4658	0.05613	0.4533	0.081
Mof_H 	H 	0.495	0.0414	0.4723	-0.009
Mof_C 	C 	0.3732	0.05141	0.4372	-0.135
Mof_H 	H 	0.3395	0.0339	0.4452	0.087
Mof_N 	N 	0.9382	0.82991	0.2578	-0.138
Mof_N 	N 	0.9412	0.82585	0.1746	-0.139
Mof_N 	N 	0.9044	0.87167	0.2107	-0.14
Mof_N 	N 	0.8687	0.90836	0.3761	-0.271
Mof_N 	N 	0.0642	0.72863	0.2339	-0.272
Mof_N 	N 	0.8826	0.89392	0.038	-0.27
Mof_N 	N 	0.0367	0.06618	0.3721	-0.138
Mof_N 	N 	0.1872	0.09246	0.3714	-0.133
Mof_N 	N 	0.1792	0.04449	0.4043	-0.139
Mof_N 	N 	0.9101	0.96983	0.427	-0.274
Mof_N 	N 	0.9404	0.16007	0.2959	-0.273
Mof_N 	N 	0.5178	0.07998	0.4442	-0.278
Mof_Zn	Zn	0.66945	0.43177	0.43676	1.162
Mof_Zn	Zn	0.36183	0.18994	0.24314	1.165
Mof_Zn	Zn	0.65282	0.41263	0.97382	1.163
Mof_I 	I 	0.59766	0.4034	0.50462	-0.37
Mof_I 	I 	0.8494	0.44467	0.42333	-0.378
Mof_I 	I 	0.19901	0.19673	0.20119	-0.377
Mof_I 	I 	0.36591	0.1753	0.32904	-0.375
Mof_I 	I 	0.72993	0.46257	0.9898	-0.392
Mof_I 	I 	0.73855	0.37204	0.92827	-0.366
Mof_C 	C 	0.5847	0.35861	0.2514	0.102
Mof_C 	C 	0.5472	0.31516	0.2176	0.102
Mof_C 	C 	0.583	0.35444	0.1727	0.099
Mof_C 	C 	0.5985	0.37598	0.2954	0.055
Mof_C 	C 	0.6252	0.40527	0.2932	-0.127
Mof_H 	H 	0.6329	0.4147	0.2637	0.082
Mof_C 	C 	0.6402	0.42032	0.334	0.081
Mof_H 	H 	0.658	0.4404	0.332	-0.02
Mof_C 	C 	0.6037	0.38017	0.3787	0.062
Mof_H 	H 	0.5956	0.3715	0.4089	-0.008
Mof_C 	C 	0.5866	0.3633	0.3395	-0.117
Mof_H 	H 	0.567	0.3434	0.3424	0.08
Mof_C 	C 	0.5132	0.28431	0.2229	0.052
Mof_C 	C 	0.5181	0.27043	0.2655	-0.11
Mof_H 	H 	0.5479	0.2799	0.2916	0.08
Mof_C 	C 	0.4792	0.24233	0.2702	0.057
Mof_H 	H 	0.4834	0.2326	0.2997	0.004
Mof_C 	C 	0.4334	0.24193	0.1925	0.067
Mof_H 	H 	0.4046	0.232	0.1666	-0.012
Mof_C 	C 	0.4716	0.27001	0.1856	-0.117
Mof_H 	H 	0.4688	0.279	0.1555	0.08
Mof_C 	C 	0.5931	0.36836	0.1259	0.053
Mof_C 	C 	0.5927	0.35144	0.085	-0.121
Mof_H 	H 	0.5845	0.3308	0.0865	0.082
Mof_C 	C 	0.6043	0.3653	0.0425	0.073
Mof_H 	H 	0.6029	0.3537	0.0148	-0.011
Mof_C 	C 	0.6173	0.41037	0.0777	0.059
Mof_H 	H 	0.6265	0.431	0.0753	-0.002
Mof_C 	C 	0.6042	0.39798	0.1216	-0.111
Mof_H 	H 	0.6029	0.4101	0.1488	0.08
Mof_C 	C 	0.4174	0.54454	0.3925	0.103
Mof_C 	C 	0.4086	0.58999	0.3617	0.105
Mof_C 	C 	0.2746	0.56946	0.3934	0.102
Mof_C 	C 	0.4759	0.51833	0.4054	0.054
Mof_C 	C 	0.4395	0.49648	0.4335	-0.121
Mof_H 	H 	0.3747	0.4976	0.4455	0.087
Mof_C 	C 	0.4991	0.47261	0.4443	0.067
Mof_H 	H 	0.4746	0.4578	0.4646	-0.007
Mof_C 	C 	0.6256	0.49121	0.4015	0.075
Mof_H 	H 	0.6917	0.49	0.3914	-0.012
Mof_C 	C 	0.5707	0.51569	0.3887	-0.118
Mof_H 	H 	0.5979	0.5303	0.3688	0.078
Mof_C 	C 	0.4593	0.61491	0.3396	0.058
Mof_C 	C 	0.5605	0.61556	0.3381	-0.111
Mof_H 	H 	0.5971	0.6	0.3517	0.082
Mof_C 	C 	0.6083	0.63869	0.317	0.067
Mof_H 	H 	0.6778	0.6393	0.3175	-0.008
Mof_C 	C 	0.4622	0.66004	0.2972	0.07
Mof_H 	H 	0.4277	0.6757	0.2829	-0.013
Mof_C 	C 	0.4089	0.6376	0.3191	-0.119
Mof_H 	H 	0.3395	0.6381	0.3197	0.079
Mof_C 	C 	0.1714	0.57219	0.4093	0.057
Mof_C 	C 	0.1166	0.59703	0.3989	-0.122
Mof_H 	H 	0.1436	0.6119	0.3794	0.093
Mof_C 	C 	0.0245	0.60027	0.4164	0.065
Mof_H 	H 	0.9888	0.6175	0.4088	-0.004
Mof_C 	C 	0.0342	0.55613	0.4533	0.081
Mof_H 	H 	0.005	0.5414	0.4723	-0.008
Mof_C 	C 	0.1268	0.55141	0.4372	-0.134
Mof_H 	H 	0.1605	0.5339	0.4452	0.086
Mof_N 	N 	0.5618	0.32991	0.2578	-0.138
Mof_N 	N 	0.5588	0.32585	0.1746	-0.139
Mof_N 	N 	0.5956	0.37167	0.2107	-0.14
Mof_N 	N 	0.6313	0.40836	0.3761	-0.271
Mof_N 	N 	0.4358	0.22863	0.2339	-0.272
Mof_N 	N 	0.6174	0.39392	0.038	-0.27
Mof_N 	N 	0.4633	0.56618	0.3721	-0.138
Mof_N 	N 	0.3128	0.59246	0.3714	-0.133
Mof_N 	N 	0.3208	0.54449	0.4043	-0.14
Mof_N 	N 	0.5899	0.46983	0.427	-0.274
Mof_N 	N 	0.5596	0.66007	0.2959	-0.273
Mof_N 	N 	0.9822	0.57998	0.4442	-0.277
Mof_Zn	Zn	0.83055	0.56823	0.93676	1.162
Mof_Zn	Zn	0.13817	0.81006	0.74314	1.165
Mof_Zn	Zn	0.84718	0.58737	0.47382	1.163
Mof_I 	I 	0.90234	0.5966	0.00462	-0.369
Mof_I 	I 	0.6506	0.55533	0.92333	-0.378
Mof_I 	I 	0.30099	0.80327	0.70119	-0.377
Mof_I 	I 	0.13409	0.8247	0.82904	-0.375
Mof_I 	I 	0.77007	0.53743	0.4898	-0.392
Mof_I 	I 	0.76145	0.62796	0.42827	-0.366
Mof_C 	C 	0.9153	0.64139	0.7514	0.102
Mof_C 	C 	0.9528	0.68484	0.7176	0.102
Mof_C 	C 	0.917	0.64556	0.6727	0.099
Mof_C 	C 	0.9015	0.62402	0.7954	0.055
Mof_C 	C 	0.8748	0.59473	0.7932	-0.127
Mof_H 	H 	0.8671	0.5853	0.7637	0.082
Mof_C 	C 	0.8598	0.57968	0.834	0.081
Mof_H 	H 	0.842	0.5596	0.832	-0.02
Mof_C 	C 	0.8963	0.61983	0.8787	0.062
Mof_H 	H 	0.9044	0.6285	0.9089	-0.008
Mof_C 	C 	0.9134	0.6367	0.8395	-0.117
Mof_H 	H 	0.933	0.6566	0.8424	0.08
Mof_C 	C 	0.9868	0.71569	0.7229	0.052
Mof_C 	C 	0.9819	0.72957	0.7655	-0.11
Mof_H 	H 	0.9521	0.7201	0.7916	0.08
Mof_C 	C 	0.0208	0.75767	0.7702	0.057
Mof_H 	H 	0.0166	0.7674	0.7997	0.004
Mof_C 	C 	0.0666	0.75807	0.6925	0.067
Mof_H 	H 	0.0954	0.768	0.6666	-0.012
Mof_C 	C 	0.0284	0.72999	0.6856	-0.117
Mof_H 	H 	0.0312	0.721	0.6555	0.08
Mof_C 	C 	0.9069	0.63164	0.6259	0.053
Mof_C 	C 	0.9073	0.64856	0.585	-0.121
Mof_H 	H 	0.9155	0.6692	0.5865	0.082
Mof_C 	C 	0.8957	0.6347	0.5425	0.073
Mof_H 	H 	0.8971	0.6463	0.5148	-0.011
Mof_C 	C 	0.8827	0.58963	0.5777	0.059
Mof_H 	H 	0.8735	0.569	0.5753	-0.002
Mof_C 	C 	0.8958	0.60202	0.6216	-0.111
Mof_H 	H 	0.8971	0.5899	0.6488	0.08
Mof_C 	C 	0.0826	0.45546	0.8925	0.103
Mof_C 	C 	0.0914	0.41001	0.8617	0.105
Mof_C 	C 	0.2254	0.43054	0.8934	0.101
Mof_C 	C 	0.0241	0.48167	0.9054	0.055
Mof_C 	C 	0.0605	0.50352	0.9335	-0.121
Mof_H 	H 	0.1253	0.5024	0.9455	0.087
Mof_C 	C 	0.0009	0.52739	0.9443	0.067
Mof_H 	H 	0.0254	0.5422	0.9646	-0.007
Mof_C 	C 	0.8744	0.50879	0.9015	0.075
Mof_H 	H 	0.8083	0.51	0.8914	-0.012
Mof_C 	C 	0.9293	0.48431	0.8887	-0.119
Mof_H 	H 	0.9021	0.4697	0.8688	0.078
Mof_C 	C 	0.0407	0.38509	0.8396	0.059
Mof_C 	C 	0.9395	0.38444	0.8381	-0.112
Mof_H 	H 	0.9029	0.4	0.8517	0.082
Mof_C 	C 	0.8917	0.36131	0.817	0.068
Mof_H 	H 	0.8222	0.3607	0.8175	-0.008
Mof_C 	C 	0.0378	0.33996	0.7972	0.071
Mof_H 	H 	0.0723	0.3243	0.7829	-0.013
Mof_C 	C 	0.0911	0.3624	0.8191	-0.119
Mof_H 	H 	0.1605	0.3619	0.8197	0.08
Mof_C 	C 	0.3286	0.42781	0.9093	0.057
Mof_C 	C 	0.3834	0.40297	0.8989	-0.122
Mof_H 	H 	0.3564	0.3881	0.8794	0.093
Mof_C 	C 	0.4755	0.39973	0.9164	0.066
Mof_H 	H 	0.5112	0.3825	0.9088	-0.004
Mof_C 	C 	0.4658	0.44387	0.9533	0.081
Mof_H 	H 	0.495	0.4586	0.9723	-0.009
Mof_C 	C 	0.3732	0.44859	0.9372	-0.135
Mof_H 	H 	0.3395	0.4661	0.9452	0.087
Mof_N 	N 	0.9382	0.67009	0.7578	-0.138
Mof_N 	N 	0.9412	0.67415	0.6746	-0.139
Mof_N 	N 	0.9044	0.62833	0.7107	-0.14
Mof_N 	N 	0.8687	0.59164	0.8761	-0.271
Mof_N 	N 	0.0642	0.77137	0.7339	-0.272
Mof_N 	N 	0.8826	0.60608	0.538	-0.27
Mof_N 	N 	0.0367	0.43382	0.8721	-0.138
Mof_N 	N 	0.1872	0.40754	0.8714	-0.133
Mof_N 	N 	0.1792	0.45551	0.9043	-0.139
Mof_N 	N 	0.9101	0.53017	0.927	-0.274
Mof_N 	N 	0.9404	0.33993	0.7959	-0.273
Mof_N 	N 	0.5178	0.42002	0.9442	-0.278
Mof_Zn	Zn	0.33055	0.93177	0.06324	1.162
Mof_Zn	Zn	0.63817	0.68994	0.25686	1.165
Mof_Zn	Zn	0.34718	0.91263	0.52618	1.163
Mof_I 	I 	0.40234	0.9034	0.99538	-0.37
Mof_I 	I 	0.1506	0.94467	0.07667	-0.378
Mof_I 	I 	0.80099	0.69673	0.29881	-0.377
Mof_I 	I 	0.63409	0.6753	0.17096	-0.375
Mof_I 	I 	0.27007	0.96257	0.5102	-0.392
Mof_I 	I 	0.26145	0.87204	0.57173	-0.366
Mof_C 	C 	0.4153	0.85861	0.2486	0.102
Mof_C 	C 	0.4528	0.81516	0.2824	0.102
Mof_C 	C 	0.417	0.85444	0.3273	0.099
Mof_C 	C 	0.4015	0.87598	0.2046	0.055
Mof_C 	C 	0.3748	0.90527	0.2068	-0.127
Mof_H 	H 	0.3671	0.9147	0.2363	0.082
Mof_C 	C 	0.3598	0.92032	0.166	0.081
Mof_H 	H 	0.342	0.9404	0.168	-0.02
Mof_C 	C 	0.3963	0.88017	0.1213	0.062
Mof_H 	H 	0.4044	0.8715	0.0911	-0.008
Mof_C 	C 	0.4134	0.8633	0.1605	-0.117
Mof_H 	H 	0.433	0.8434	0.1576	0.08
Mof_C 	C 	0.4868	0.78431	0.2771	0.052
Mof_C 	C 	0.4819	0.77043	0.2345	-0.11
Mof_H 	H 	0.4521	0.7799	0.2084	0.08
Mof_C 	C 	0.5208	0.74233	0.2298	0.057
Mof_H 	H 	0.5166	0.7326	0.2003	0.004
Mof_C 	C 	0.5666	0.74193	0.3075	0.067
Mof_H 	H 	0.5954	0.732	0.3334	-0.012
Mof_C 	C 	0.5284	0.77001	0.3144	-0.117
Mof_H 	H 	0.5312	0.779	0.3445	0.08
Mof_C 	C 	0.4069	0.86836	0.3741	0.053
Mof_C 	C 	0.4073	0.85144	0.415	-0.121
Mof_H 	H 	0.4155	0.8308	0.4135	0.082
Mof_C 	C 	0.3957	0.8653	0.4575	0.073
Mof_H 	H 	0.3971	0.8537	0.4852	-0.011
Mof_C 	C 	0.3827	0.91037	0.4223	0.059
Mof_H 	H 	0.3735	0.931	0.4247	-0.002
Mof_C 	C 	0.3958	0.89798	0.3784	-0.111
Mof_H 	H 	0.3971	0.9101	0.3512	0.08
Mof_C 	C 	0.5826	0.04454	0.1075	0.103
Mof_C 	C 	0.5914	0.08999	0.1383	0.105
Mof_C 	C 	0.7254	0.06946	0.1066	0.101
Mof_C 	C 	0.5241	0.01833	0.0946	0.054
Mof_C 	C 	0.5605	0.99648	0.0665	-0.121
Mof_H 	H 	0.6253	0.9976	0.0545	0.087
Mof_C 	C 	0.5009	0.97261	0.0557	0.067
Mof_H 	H 	0.5254	0.9578	0.0354	-0.007
Mof_C 	C 	0.3744	0.99121	0.0985	0.075
Mof_H 	H 	0.3083	0.99	0.1086	-0.012
Mof_C 	C 	0.4293	0.01569	0.1113	-0.118
Mof_H 	H 	0.4021	0.0303	0.1312	0.078
Mof_C 	C 	0.5407	0.11491	0.1604	0.058
Mof_C 	C 	0.4395	0.11556	0.1619	-0.111
Mof_H 	H 	0.4029	0.1	0.1483	0.082
Mof_C 	C 	0.3917	0.13869	0.183	0.067
Mof_H 	H 	0.3222	0.1393	0.1825	-0.008
Mof_C 	C 	0.5378	0.16004	0.2028	0.07
Mof_H 	H 	0.5723	0.1757	0.2171	-0.013
Mof_C 	C 	0.5911	0.1376	0.1809	-0.119
Mof_H 	H 	0.6605	0.1381	0.1803	0.079
Mof_C 	C 	0.8286	0.07219	0.0907	0.058
Mof_C 	C 	0.8834	0.09703	0.1011	-0.123
Mof_H 	H 	0.8564	0.1119	0.1206	0.093
Mof_C 	C 	0.9755	0.10027	0.0836	0.067
Mof_H 	H 	0.0112	0.1175	0.0912	-0.005
Mof_C 	C 	0.9658	0.05613	0.0467	0.082
Mof_H 	H 	0.995	0.0414	0.0277	-0.009
Mof_C 	C 	0.8732	0.05141	0.0628	-0.135
Mof_H 	H 	0.8395	0.0339	0.0548	0.087
Mof_N 	N 	0.4382	0.82991	0.2422	-0.138
Mof_N 	N 	0.4412	0.82585	0.3254	-0.139
Mof_N 	N 	0.4044	0.87167	0.2893	-0.14
Mof_N 	N 	0.3687	0.90836	0.1239	-0.271
Mof_N 	N 	0.5642	0.72863	0.2661	-0.272
Mof_N 	N 	0.3826	0.89392	0.462	-0.27
Mof_N 	N 	0.5367	0.06618	0.1279	-0.138
Mof_N 	N 	0.6872	0.09246	0.1286	-0.133
Mof_N 	N 	0.6792	0.04449	0.0957	-0.139
Mof_N 	N 	0.4101	0.96983	0.073	-0.274
Mof_N 	N 	0.4404	0.16007	0.2041	-0.273
Mof_N 	N 	0.0178	0.07998	0.0558	-0.278
Mof_Zn	Zn	0.16945	0.06823	0.56324	1.162
Mof_Zn	Zn	0.86183	0.31006	0.75686	1.165
Mof_Zn	Zn	0.15282	0.08737	0.02618	1.163
Mof_I 	I 	0.09766	0.0966	0.49538	-0.37
Mof_I 	I 	0.3494	0.05533	0.57667	-0.378
Mof_I 	I 	0.69901	0.30327	0.79881	-0.377
Mof_I 	I 	0.86591	0.3247	0.67096	-0.375
Mof_I 	I 	0.22993	0.03743	0.0102	-0.392
Mof_I 	I 	0.23855	0.12796	0.07173	-0.366
Mof_C 	C 	0.0847	0.14139	0.7486	0.102
Mof_C 	C 	0.0472	0.18484	0.7824	0.102
Mof_C 	C 	0.083	0.14556	0.8273	0.099
Mof_C 	C 	0.0985	0.12402	0.7046	0.056
Mof_C 	C 	0.1252	0.09473	0.7068	-0.127
Mof_H 	H 	0.1329	0.0853	0.7363	0.082
Mof_C 	C 	0.1402	0.07968	0.666	0.081
Mof_H 	H 	0.158	0.0596	0.668	-0.02
Mof_C 	C 	0.1037	0.11983	0.6213	0.062
Mof_H 	H 	0.0956	0.1285	0.5911	-0.008
Mof_C 	C 	0.0866	0.1367	0.6605	-0.117
Mof_H 	H 	0.067	0.1566	0.6576	0.08
Mof_C 	C 	0.0132	0.21569	0.7771	0.053
Mof_C 	C 	0.0181	0.22957	0.7345	-0.109
Mof_H 	H 	0.0479	0.2201	0.7084	0.08
Mof_C 	C 	0.9792	0.25767	0.7298	0.056
Mof_H 	H 	0.9834	0.2674	0.7003	0.004
Mof_C 	C 	0.9334	0.25807	0.8075	0.068
Mof_H 	H 	0.9046	0.268	0.8334	-0.012
Mof_C 	C 	0.9716	0.22999	0.8144	-0.118
Mof_H 	H 	0.9688	0.221	0.8445	0.08
Mof_C 	C 	0.0931	0.13164	0.8741	0.053
Mof_C 	C 	0.0927	0.14856	0.915	-0.121
Mof_H 	H 	0.0845	0.1692	0.9135	0.082
Mof_C 	C 	0.1043	0.1347	0.9575	0.073
Mof_H 	H 	0.1029	0.1463	0.9852	-0.01
Mof_C 	C 	0.1173	0.08963	0.9223	0.059
Mof_H 	H 	0.1265	0.069	0.9247	-0.002
Mof_C 	C 	0.1042	0.10202	0.8784	-0.111
Mof_H 	H 	0.1029	0.0899	0.8512	0.08
Mof_C 	C 	0.9174	0.95546	0.6075	0.103
Mof_C 	C 	0.9086	0.91001	0.6383	0.105
Mof_C 	C 	0.7746	0.93054	0.6066	0.101
Mof_C 	C 	0.9759	0.98167	0.5946	0.054
Mof_C 	C 	0.9395	0.00352	0.5665	-0.12
Mof_H 	H 	0.8747	0.0024	0.5545	0.087
Mof_C 	C 	0.9991	0.02739	0.5557	0.066
Mof_H 	H 	0.9746	0.0422	0.5354	-0.007
Mof_C 	C 	0.1256	0.00879	0.5985	0.075
Mof_H 	H 	0.1917	0.01	0.6086	-0.012
Mof_C 	C 	0.0707	0.98431	0.6113	-0.118
Mof_H 	H 	0.0979	0.9697	0.6312	0.077
Mof_C 	C 	0.9593	0.88509	0.6604	0.058
Mof_C 	C 	0.0605	0.88444	0.6619	-0.111
Mof_H 	H 	0.0971	0.9	0.6483	0.082
Mof_C 	C 	0.1083	0.86131	0.683	0.067
Mof_H 	H 	0.1778	0.8607	0.6825	-0.008
Mof_C 	C 	0.9622	0.83996	0.7028	0.071
Mof_H 	H 	0.9277	0.8243	0.7171	-0.013
Mof_C 	C 	0.9089	0.8624	0.6809	-0.119
Mof_H 	H 	0.8395	0.8619	0.6803	0.079
Mof_C 	C 	0.6714	0.92781	0.5907	0.057
Mof_C 	C 	0.6166	0.90297	0.6011	-0.122
Mof_H 	H 	0.6436	0.8881	0.6206	0.093
Mof_C 	C 	0.5245	0.89973	0.5836	0.066
Mof_H 	H 	0.4888	0.8825	0.5912	-0.004
Mof_C 	C 	0.5342	0.94387	0.5467	0.081
Mof_H 	H 	0.505	0.9586	0.5277	-0.009
Mof_C 	C 	0.6268	0.94859	0.5628	-0.135
Mof_H 	H 	0.6605	0.9661	0.5548	0.087
Mof_N 	N 	0.0618	0.17009	0.7422	-0.138
Mof_N 	N 	0.0588	0.17415	0.8254	-0.139
Mof_N 	N 	0.0956	0.12833	0.7893	-0.14
Mof_N 	N 	0.1313	0.09164	0.6239	-0.271
Mof_N 	N 	0.9358	0.27137	0.7661	-0.272
Mof_N 	N 	0.1174	0.10608	0.962	-0.27
Mof_N 	N 	0.9633	0.93382	0.6279	-0.138
Mof_N 	N 	0.8128	0.90754	0.6286	-0.133
Mof_N 	N 	0.8208	0.95551	0.5957	-0.139
Mof_N 	N 	0.0899	0.03017	0.573	-0.274
Mof_N 	N 	0.0596	0.83993	0.7041	-0.273
Mof_N 	N 	0.4822	0.92002	0.5558	-0.278
_end
