data_functionalizedCrystal
_audit_creation_method	'EQeq! by Chris Wilmer'
_symmetry_space_group_name_H-M	'P1'
_symmetry_Int_Tables_number	1
_symmetry_cell_setting	triclinic
loop_
_symmetry_equiv_pos_as_xyz
  x,y,z
_cell_length_a	15.9253
_cell_length_b	15.9712
_cell_length_c	18.475
_cell_angle_alpha	90
_cell_angle_beta	90
_cell_angle_gamma	90
loop_
_atom_site_label
_atom_site_type_symbol
_atom_site_fract_x
_atom_site_fract_y
_atom_site_fract_z
_atom_site_charge
Mof_Co	Co	0.86361	0.68797	0.39903	1.1
Mof_Co	Co	0.67864	0.99506	0.32506	1.1
Mof_Co	Co	0.13639	0.81203	0.89903	1.1
Mof_Co	Co	0.32136	0.50494	0.82506	1.1
Mof_Co	Co	0.36361	0.31203	0.10097	1.101
Mof_Co	Co	0.17864	0.00494	0.17494	1.099
Mof_Co	Co	0.63639	0.18797	0.60097	1.101
Mof_Co	Co	0.82136	0.49506	0.67494	1.101
Mof_Co	Co	0.13639	0.31203	0.60097	1.101
Mof_Co	Co	0.32136	0.00494	0.67494	1.101
Mof_Co	Co	0.86361	0.18797	0.10097	1.101
Mof_Co	Co	0.67864	0.49506	0.17494	1.101
Mof_Co	Co	0.63639	0.68797	0.89903	1.101
Mof_Co	Co	0.82136	0.99506	0.82506	1.099
Mof_Co	Co	0.36361	0.81203	0.39903	1.101
Mof_Co	Co	0.17864	0.50494	0.32506	1.101
Mof_H 	H 	0.946	0.869	0.4185	-0
Mof_H 	H 	0.866	0.997	0.39	-0.003
Mof_H 	H 	0.7313	0.8157	0.3557	-0.073
Mof_H 	H 	0.914	0.7481	0.5511	0.003
Mof_H 	H 	0.897	0.6699	0.6652	-0.001
Mof_H 	H 	0.8193	0.5485	0.5093	-0.073
Mof_H 	H 	0.989	0.7394	0.2761	-0.005
Mof_H 	H 	0.11	0.663	0.2389	0.002
Mof_H 	H 	0.0058	0.559	0.396	-0.075
Mof_H 	H 	0.598	0.548	0.3198	-0.003
Mof_H 	H 	0.671	0.634	0.414	-0.002
Mof_H 	H 	0.8217	0.5838	0.2654	-0.066
Mof_H 	H 	0.054	0.631	0.9185	0
Mof_H 	H 	0.134	0.503	0.89	-0.003
Mof_H 	H 	0.2687	0.6843	0.8557	-0.073
Mof_H 	H 	0.086	0.7519	0.0511	0.004
Mof_H 	H 	0.103	0.8301	0.1652	-0
Mof_H 	H 	0.1807	0.9515	0.0093	-0.071
Mof_H 	H 	0.011	0.7606	0.7761	0.009
Mof_H 	H 	0.89	0.837	0.7389	-0.006
Mof_H 	H 	0.9942	0.941	0.896	-0.075
Mof_H 	H 	0.402	0.952	0.8198	-0.003
Mof_H 	H 	0.329	0.866	0.914	-0.002
Mof_H 	H 	0.1783	0.9162	0.7654	-0.065
Mof_H 	H 	0.446	0.131	0.0815	0
Mof_H 	H 	0.366	0.003	0.11	-0.003
Mof_H 	H 	0.2313	0.1843	0.1443	-0.073
Mof_H 	H 	0.414	0.2519	0.9489	0.004
Mof_H 	H 	0.397	0.3301	0.8348	-0.001
Mof_H 	H 	0.3193	0.4515	0.9907	-0.073
Mof_H 	H 	0.489	0.2606	0.2239	0.003
Mof_H 	H 	0.61	0.337	0.2611	-0.002
Mof_H 	H 	0.5058	0.441	0.104	-0.074
Mof_H 	H 	0.098	0.452	0.1802	-0.003
Mof_H 	H 	0.171	0.366	0.086	-0.002
Mof_H 	H 	0.3217	0.4162	0.2346	-0.066
Mof_H 	H 	0.554	0.369	0.5815	0.001
Mof_H 	H 	0.634	0.497	0.61	-0.002
Mof_H 	H 	0.7687	0.3157	0.6443	-0.073
Mof_H 	H 	0.586	0.2481	0.4489	0.004
Mof_H 	H 	0.603	0.1699	0.3348	-0.001
Mof_H 	H 	0.6807	0.0485	0.4907	-0.072
Mof_H 	H 	0.511	0.2394	0.7239	0.003
Mof_H 	H 	0.39	0.163	0.7611	-0.002
Mof_H 	H 	0.4942	0.059	0.604	-0.074
Mof_H 	H 	0.902	0.048	0.6802	-0.001
Mof_H 	H 	0.829	0.134	0.586	-0.002
Mof_H 	H 	0.6783	0.0838	0.7346	-0.065
Mof_H 	H 	0.054	0.131	0.5815	-0
Mof_H 	H 	0.134	0.003	0.61	-0.003
Mof_H 	H 	0.2687	0.1843	0.6443	-0.073
Mof_H 	H 	0.086	0.2519	0.4489	0.003
Mof_H 	H 	0.103	0.3301	0.3348	-0.001
Mof_H 	H 	0.1807	0.4515	0.4907	-0.073
Mof_H 	H 	0.011	0.2606	0.7239	-0.005
Mof_H 	H 	0.89	0.337	0.7611	0.002
Mof_H 	H 	0.9942	0.441	0.604	-0.075
Mof_H 	H 	0.402	0.452	0.6802	-0.003
Mof_H 	H 	0.329	0.366	0.586	-0.002
Mof_H 	H 	0.1783	0.4162	0.7346	-0.066
Mof_H 	H 	0.946	0.369	0.0815	0
Mof_H 	H 	0.866	0.497	0.11	-0.003
Mof_H 	H 	0.7313	0.3157	0.1443	-0.073
Mof_H 	H 	0.914	0.2481	0.9489	0.004
Mof_H 	H 	0.897	0.1699	0.8348	-0
Mof_H 	H 	0.8193	0.0485	0.9907	-0.071
Mof_H 	H 	0.989	0.2394	0.2239	0.009
Mof_H 	H 	0.11	0.163	0.2611	-0.006
Mof_H 	H 	0.0058	0.059	0.104	-0.075
Mof_H 	H 	0.598	0.048	0.1802	-0.003
Mof_H 	H 	0.671	0.134	0.086	-0.002
Mof_H 	H 	0.8217	0.0838	0.2346	-0.065
Mof_H 	H 	0.554	0.869	0.9185	0
Mof_H 	H 	0.634	0.997	0.89	-0.003
Mof_H 	H 	0.7687	0.8157	0.8557	-0.073
Mof_H 	H 	0.586	0.7481	0.0511	0.004
Mof_H 	H 	0.603	0.6699	0.1652	-0.001
Mof_H 	H 	0.6807	0.5485	0.0093	-0.073
Mof_H 	H 	0.511	0.7394	0.7761	0.003
Mof_H 	H 	0.39	0.663	0.7389	-0.002
Mof_H 	H 	0.4942	0.559	0.896	-0.074
Mof_H 	H 	0.902	0.548	0.8198	-0.003
Mof_H 	H 	0.829	0.634	0.914	-0.002
Mof_H 	H 	0.6783	0.5838	0.7654	-0.066
Mof_H 	H 	0.446	0.631	0.4185	0.001
Mof_H 	H 	0.366	0.503	0.39	-0.002
Mof_H 	H 	0.2313	0.6843	0.3557	-0.073
Mof_H 	H 	0.414	0.7519	0.5511	0.004
Mof_H 	H 	0.397	0.8301	0.6652	-0.001
Mof_H 	H 	0.3193	0.9515	0.5093	-0.072
Mof_H 	H 	0.489	0.7606	0.2761	0.003
Mof_H 	H 	0.61	0.837	0.2389	-0.002
Mof_H 	H 	0.5058	0.941	0.396	-0.074
Mof_H 	H 	0.098	0.952	0.3198	-0.001
Mof_H 	H 	0.171	0.866	0.414	-0.002
Mof_H 	H 	0.3217	0.9162	0.2654	-0.065
Mof_C 	C 	0.8945	0.8778	0.3993	-0.013
Mof_C 	C 	0.8505	0.9473	0.3837	-0.003
Mof_C 	C 	0.7747	0.8441	0.3642	0.114
Mof_C 	C 	0.8935	0.7037	0.5593	-0.019
Mof_C 	C 	0.8854	0.6603	0.6207	-0.012
Mof_C 	C 	0.8398	0.5886	0.5352	0.123
Mof_C 	C 	0.0071	0.6942	0.2921	-0.001
Mof_C 	C 	0.0737	0.6504	0.2715	-0.013
Mof_C 	C 	0.0188	0.5913	0.3598	0.118
Mof_C 	C 	0.6496	0.5693	0.3227	-0.005
Mof_C 	C 	0.6899	0.6138	0.3732	-0.008
Mof_C 	C 	0.7734	0.5861	0.2891	0.102
Mof_C 	C 	0.1055	0.6222	0.8993	-0.013
Mof_C 	C 	0.1495	0.5527	0.8837	-0.003
Mof_C 	C 	0.2253	0.6559	0.8642	0.114
Mof_C 	C 	0.1065	0.7963	0.0593	-0.019
Mof_C 	C 	0.1146	0.8397	0.1207	-0.011
Mof_C 	C 	0.1602	0.9114	0.0352	0.124
Mof_C 	C 	0.9929	0.8058	0.7921	-0.028
Mof_C 	C 	0.9263	0.8496	0.7715	0.003
Mof_C 	C 	0.9812	0.9087	0.8598	0.114
Mof_C 	C 	0.3504	0.9307	0.8227	-0.005
Mof_C 	C 	0.3101	0.8862	0.8732	-0.008
Mof_C 	C 	0.2266	0.9139	0.7891	0.102
Mof_C 	C 	0.3945	0.1222	0.1007	-0.013
Mof_C 	C 	0.3505	0.0527	0.1163	-0.003
Mof_C 	C 	0.2747	0.1559	0.1358	0.114
Mof_C 	C 	0.3935	0.2963	0.9407	-0.02
Mof_C 	C 	0.3854	0.3397	0.8793	-0.011
Mof_C 	C 	0.3398	0.4114	0.9648	0.123
Mof_C 	C 	0.5071	0.3058	0.2079	-0.015
Mof_C 	C 	0.5737	0.3496	0.2285	-0.005
Mof_C 	C 	0.5188	0.4087	0.1402	0.117
Mof_C 	C 	0.1496	0.4307	0.1773	-0.006
Mof_C 	C 	0.1899	0.3862	0.1268	-0.008
Mof_C 	C 	0.2734	0.4139	0.2109	0.102
Mof_C 	C 	0.6055	0.3778	0.6007	-0.013
Mof_C 	C 	0.6495	0.4473	0.6163	-0.003
Mof_C 	C 	0.7253	0.3441	0.6358	0.115
Mof_C 	C 	0.6065	0.2037	0.4407	-0.019
Mof_C 	C 	0.6146	0.1603	0.3793	-0.012
Mof_C 	C 	0.6602	0.0886	0.4648	0.123
Mof_C 	C 	0.4929	0.1942	0.7079	-0.015
Mof_C 	C 	0.4263	0.1504	0.7285	-0.004
Mof_C 	C 	0.4812	0.0913	0.6402	0.117
Mof_C 	C 	0.8504	0.0693	0.6773	-0.005
Mof_C 	C 	0.8101	0.1138	0.6268	-0.008
Mof_C 	C 	0.7266	0.0861	0.7109	0.102
Mof_C 	C 	0.1055	0.1222	0.6007	-0.013
Mof_C 	C 	0.1495	0.0527	0.6163	-0.003
Mof_C 	C 	0.2253	0.1559	0.6358	0.114
Mof_C 	C 	0.1065	0.2963	0.4407	-0.019
Mof_C 	C 	0.1146	0.3397	0.3793	-0.012
Mof_C 	C 	0.1602	0.4114	0.4648	0.123
Mof_C 	C 	0.9929	0.3058	0.7079	-0.001
Mof_C 	C 	0.9263	0.3496	0.7285	-0.013
Mof_C 	C 	0.9812	0.4087	0.6402	0.118
Mof_C 	C 	0.3504	0.4307	0.6773	-0.005
Mof_C 	C 	0.3101	0.3862	0.6268	-0.008
Mof_C 	C 	0.2266	0.4139	0.7109	0.102
Mof_C 	C 	0.8945	0.3778	0.1007	-0.013
Mof_C 	C 	0.8505	0.4473	0.1163	-0.003
Mof_C 	C 	0.7747	0.3441	0.1358	0.114
Mof_C 	C 	0.8935	0.2037	0.9407	-0.019
Mof_C 	C 	0.8854	0.1603	0.8793	-0.011
Mof_C 	C 	0.8398	0.0886	0.9648	0.124
Mof_C 	C 	0.0071	0.1942	0.2079	-0.028
Mof_C 	C 	0.0737	0.1504	0.2285	0.003
Mof_C 	C 	0.0188	0.0913	0.1402	0.114
Mof_C 	C 	0.6496	0.0693	0.1773	-0.005
Mof_C 	C 	0.6899	0.1138	0.1268	-0.008
Mof_C 	C 	0.7734	0.0861	0.2109	0.102
Mof_C 	C 	0.6055	0.8778	0.8993	-0.013
Mof_C 	C 	0.6495	0.9473	0.8837	-0.003
Mof_C 	C 	0.7253	0.8441	0.8642	0.114
Mof_C 	C 	0.6065	0.7037	0.0593	-0.02
Mof_C 	C 	0.6146	0.6603	0.1207	-0.011
Mof_C 	C 	0.6602	0.5886	0.0352	0.123
Mof_C 	C 	0.4929	0.6942	0.7921	-0.015
Mof_C 	C 	0.4263	0.6504	0.7715	-0.005
Mof_C 	C 	0.4812	0.5913	0.8598	0.117
Mof_C 	C 	0.8504	0.5693	0.8227	-0.006
Mof_C 	C 	0.8101	0.6138	0.8732	-0.008
Mof_C 	C 	0.7266	0.5861	0.7891	0.102
Mof_C 	C 	0.3945	0.6222	0.3993	-0.013
Mof_C 	C 	0.3505	0.5527	0.3837	-0.003
Mof_C 	C 	0.2747	0.6559	0.3642	0.115
Mof_C 	C 	0.3935	0.7963	0.5593	-0.019
Mof_C 	C 	0.3854	0.8397	0.6207	-0.012
Mof_C 	C 	0.3398	0.9114	0.5352	0.123
Mof_C 	C 	0.5071	0.8058	0.2921	-0.015
Mof_C 	C 	0.5737	0.8496	0.2715	-0.004
Mof_C 	C 	0.5188	0.9087	0.3598	0.117
Mof_C 	C 	0.1496	0.9307	0.3227	-0.005
Mof_C 	C 	0.1899	0.8862	0.3732	-0.008
Mof_C 	C 	0.2734	0.9139	0.2891	0.102
Mof_N 	N 	0.8447	0.80966	0.38728	-0.286
Mof_N 	N 	0.7736	0.92712	0.36055	-0.289
Mof_N 	N 	0.86578	0.65787	0.5023	-0.288
Mof_N 	N 	0.85012	0.58465	0.60548	-0.289
Mof_N 	N 	0.969	0.65693	0.34906	-0.288
Mof_N 	N 	0.08258	0.58358	0.31564	-0.285
Mof_N 	N 	0.7026	0.55027	0.26825	-0.285
Mof_N 	N 	0.7705	0.62563	0.35241	-0.282
Mof_N 	N 	0.1553	0.69034	0.88728	-0.286
Mof_N 	N 	0.2264	0.57288	0.86055	-0.289
Mof_N 	N 	0.13422	0.84213	0.0023	-0.287
Mof_N 	N 	0.14988	0.91535	0.10548	-0.287
Mof_N 	N 	0.031	0.84307	0.84906	-0.281
Mof_N 	N 	0.91742	0.91642	0.81564	-0.288
Mof_N 	N 	0.2974	0.94973	0.76825	-0.285
Mof_N 	N 	0.2295	0.87437	0.85241	-0.282
Mof_N 	N 	0.3447	0.19034	0.11272	-0.286
Mof_N 	N 	0.2736	0.07288	0.13945	-0.289
Mof_N 	N 	0.36578	0.34213	0.9977	-0.288
Mof_N 	N 	0.35012	0.41535	0.89452	-0.289
Mof_N 	N 	0.469	0.34307	0.15094	-0.285
Mof_N 	N 	0.58258	0.41642	0.18436	-0.286
Mof_N 	N 	0.2026	0.44973	0.23175	-0.285
Mof_N 	N 	0.2705	0.37437	0.14759	-0.282
Mof_N 	N 	0.6553	0.30966	0.61272	-0.286
Mof_N 	N 	0.7264	0.42712	0.63945	-0.289
Mof_N 	N 	0.63422	0.15787	0.4977	-0.288
Mof_N 	N 	0.64988	0.08465	0.39452	-0.289
Mof_N 	N 	0.531	0.15693	0.65094	-0.285
Mof_N 	N 	0.41742	0.08358	0.68436	-0.286
Mof_N 	N 	0.7974	0.05027	0.73175	-0.284
Mof_N 	N 	0.7295	0.12563	0.64759	-0.281
Mof_N 	N 	0.1553	0.19034	0.61272	-0.286
Mof_N 	N 	0.2264	0.07288	0.63945	-0.289
Mof_N 	N 	0.13422	0.34213	0.4977	-0.288
Mof_N 	N 	0.14988	0.41535	0.39452	-0.289
Mof_N 	N 	0.031	0.34307	0.65094	-0.288
Mof_N 	N 	0.91742	0.41642	0.68436	-0.285
Mof_N 	N 	0.2974	0.44973	0.73175	-0.285
Mof_N 	N 	0.2295	0.37437	0.64759	-0.282
Mof_N 	N 	0.8447	0.30966	0.11272	-0.286
Mof_N 	N 	0.7736	0.42712	0.13945	-0.289
Mof_N 	N 	0.86578	0.15787	0.9977	-0.287
Mof_N 	N 	0.85012	0.08465	0.89452	-0.287
Mof_N 	N 	0.969	0.15693	0.15094	-0.281
Mof_N 	N 	0.08258	0.08358	0.18436	-0.288
Mof_N 	N 	0.7026	0.05027	0.23175	-0.285
Mof_N 	N 	0.7705	0.12563	0.14759	-0.282
Mof_N 	N 	0.6553	0.80966	0.88728	-0.286
Mof_N 	N 	0.7264	0.92712	0.86055	-0.289
Mof_N 	N 	0.63422	0.65787	0.0023	-0.288
Mof_N 	N 	0.64988	0.58465	0.10548	-0.289
Mof_N 	N 	0.531	0.65693	0.84906	-0.285
Mof_N 	N 	0.41742	0.58358	0.81564	-0.286
Mof_N 	N 	0.7974	0.55027	0.76825	-0.285
Mof_N 	N 	0.7295	0.62563	0.85241	-0.282
Mof_N 	N 	0.3447	0.69034	0.38728	-0.286
Mof_N 	N 	0.2736	0.57288	0.36055	-0.289
Mof_N 	N 	0.36578	0.84213	0.5023	-0.288
Mof_N 	N 	0.35012	0.91535	0.60548	-0.289
Mof_N 	N 	0.469	0.84307	0.34906	-0.285
Mof_N 	N 	0.58258	0.91642	0.31564	-0.286
Mof_N 	N 	0.2026	0.94973	0.26825	-0.284
Mof_N 	N 	0.2705	0.87437	0.35241	-0.281
_end
