data_functionalizedCrystal
_audit_creation_method	'EQeq! by Chris Wilmer'
_symmetry_space_group_name_H-M	'P1'
_symmetry_Int_Tables_number	1
_symmetry_cell_setting	triclinic
loop_
_symmetry_equiv_pos_as_xyz
  x,y,z
_cell_length_a	13.6929
_cell_length_b	13.6929
_cell_length_c	50.664
_cell_angle_alpha	90
_cell_angle_beta	90
_cell_angle_gamma	90
loop_
_atom_site_label
_atom_site_type_symbol
_atom_site_fract_x
_atom_site_fract_y
_atom_site_fract_z
_atom_site_charge
Mof_Zn	Zn	0.99525	0.58451	0.88233	1.226
Mof_Zn	Zn	0.36198	0.48799	0.75532	1.196
Mof_Zn	Zn	0.94603	0.73103	0.83189	1.15
Mof_Zn	Zn	0.00475	0.41549	0.38233	1.226
Mof_Zn	Zn	0.63802	0.51201	0.25532	1.196
Mof_Zn	Zn	0.05397	0.26897	0.33189	1.15
Mof_Zn	Zn	0.91549	0.49525	0.63233	1.233
Mof_Zn	Zn	0.01201	0.86198	0.50532	1.192
Mof_Zn	Zn	0.76897	0.44603	0.58189	1.154
Mof_Zn	Zn	0.08451	0.50475	0.13233	1.233
Mof_Zn	Zn	0.98799	0.13802	0.00532	1.192
Mof_Zn	Zn	0.23103	0.55397	0.08189	1.154
Mof_Zn	Zn	0.50475	0.08451	0.86767	1.233
Mof_Zn	Zn	0.13802	0.98799	0.99468	1.192
Mof_Zn	Zn	0.55397	0.23103	0.91811	1.154
Mof_Zn	Zn	0.49525	0.91549	0.36767	1.233
Mof_Zn	Zn	0.86198	0.01201	0.49468	1.192
Mof_Zn	Zn	0.44603	0.76897	0.41811	1.154
Mof_Zn	Zn	0.58451	0.99525	0.11767	1.226
Mof_Zn	Zn	0.48799	0.36198	0.24468	1.196
Mof_Zn	Zn	0.73103	0.94603	0.16811	1.15
Mof_Zn	Zn	0.41549	0.00475	0.61767	1.226
Mof_Zn	Zn	0.51201	0.63802	0.74468	1.196
Mof_Zn	Zn	0.26897	0.05397	0.66811	1.15
Mof_H 	H 	0.2568	0.8362	0.8744	0.031
Mof_H 	H 	0.4271	0.8369	0.8101	0.029
Mof_H 	H 	0.2127	0.6392	0.8167	0.012
Mof_H 	H 	0.9621	0.8396	0.9347	0.006
Mof_H 	H 	0.7793	0.0614	0.9463	-0.002
Mof_H 	H 	0.7335	0.8745	0.8863	0.006
Mof_H 	H 	0.7432	0.1638	0.3744	0.031
Mof_H 	H 	0.5729	0.1631	0.3101	0.029
Mof_H 	H 	0.7873	0.3608	0.3167	0.012
Mof_H 	H 	0.0379	0.1604	0.4347	0.006
Mof_H 	H 	0.2207	0.9386	0.4463	-0.002
Mof_H 	H 	0.2665	0.1255	0.3863	0.006
Mof_H 	H 	0.6638	0.7568	0.6244	0.031
Mof_H 	H 	0.6631	0.9271	0.5601	0.032
Mof_H 	H 	0.8608	0.7127	0.5667	0.011
Mof_H 	H 	0.6604	0.4621	0.6847	0.015
Mof_H 	H 	0.4386	0.2793	0.6963	0.007
Mof_H 	H 	0.6255	0.2335	0.6363	0.01
Mof_H 	H 	0.3362	0.2432	0.1244	0.031
Mof_H 	H 	0.3369	0.0729	0.0601	0.032
Mof_H 	H 	0.1392	0.2873	0.0667	0.011
Mof_H 	H 	0.3396	0.5379	0.1847	0.015
Mof_H 	H 	0.5614	0.7207	0.1963	0.007
Mof_H 	H 	0.3745	0.7665	0.1363	0.01
Mof_H 	H 	0.2432	0.3362	0.8756	0.031
Mof_H 	H 	0.0729	0.3369	0.9399	0.032
Mof_H 	H 	0.2873	0.1392	0.9333	0.011
Mof_H 	H 	0.5379	0.3396	0.8153	0.015
Mof_H 	H 	0.7207	0.5614	0.8037	0.007
Mof_H 	H 	0.7665	0.3745	0.8637	0.01
Mof_H 	H 	0.7568	0.6638	0.3756	0.031
Mof_H 	H 	0.9271	0.6631	0.4399	0.032
Mof_H 	H 	0.7127	0.8608	0.4333	0.011
Mof_H 	H 	0.4621	0.6604	0.3153	0.015
Mof_H 	H 	0.2793	0.4386	0.3037	0.007
Mof_H 	H 	0.2335	0.6255	0.3637	0.01
Mof_H 	H 	0.8362	0.2568	0.1256	0.031
Mof_H 	H 	0.8369	0.4271	0.1899	0.029
Mof_H 	H 	0.6392	0.2127	0.1833	0.012
Mof_H 	H 	0.8396	0.9621	0.0653	0.006
Mof_H 	H 	0.0614	0.7793	0.0537	-0.002
Mof_H 	H 	0.8745	0.7335	0.1137	0.006
Mof_H 	H 	0.1638	0.7432	0.6256	0.031
Mof_H 	H 	0.1631	0.5729	0.6899	0.029
Mof_H 	H 	0.3608	0.7873	0.6833	0.012
Mof_H 	H 	0.1604	0.0379	0.5653	0.006
Mof_H 	H 	0.9386	0.2207	0.5537	-0.002
Mof_H 	H 	0.1255	0.2665	0.6137	0.006
Mof_C 	C 	0.1387	0.692	0.86433	0.347
Mof_C 	C 	0.2203	0.7339	0.84762	-0.156
Mof_C 	C 	0.2729	0.8114	0.85791	0.062
Mof_C 	C 	0.3497	0.8524	0.8437	-0.125
Mof_C 	C 	0.3763	0.8099	0.81983	0.07
Mof_C 	C 	0.3286	0.7282	0.81034	-0.155
Mof_C 	C 	0.2479	0.6913	0.82365	0.07
Mof_C 	C 	0.4037	0.9372	0.85474	0.328
Mof_C 	C 	0.3654	0.6753	0.78644	0.41
Mof_C 	C 	0.8864	0.7557	0.89189	0.42
Mof_C 	C 	0.852	0.8417	0.90806	-0.19
Mof_C 	C 	0.9071	0.8745	0.92955	0.119
Mof_C 	C 	0.8817	0.9561	0.9429	-0.19
Mof_C 	C 	0.7977	0.0068	0.93652	0.134
Mof_C 	C 	0.7402	0.9751	0.91514	-0.201
Mof_C 	C 	0.7696	0.8941	0.90089	0.121
Mof_C 	C 	0.946	0.9957	0.9654	0.406
Mof_C 	C 	0.6514	0.0357	0.90761	0.445
Mof_C 	C 	0.8613	0.308	0.36433	0.347
Mof_C 	C 	0.7797	0.2661	0.34762	-0.156
Mof_C 	C 	0.7271	0.1886	0.35791	0.062
Mof_C 	C 	0.6503	0.1476	0.3437	-0.125
Mof_C 	C 	0.6237	0.1901	0.31983	0.07
Mof_C 	C 	0.6714	0.2718	0.31034	-0.155
Mof_C 	C 	0.7521	0.3087	0.32365	0.07
Mof_C 	C 	0.5963	0.0628	0.35474	0.328
Mof_C 	C 	0.6346	0.3247	0.28644	0.41
Mof_C 	C 	0.1136	0.2443	0.39189	0.42
Mof_C 	C 	0.148	0.1583	0.40806	-0.19
Mof_C 	C 	0.0929	0.1255	0.42955	0.119
Mof_C 	C 	0.1183	0.0439	0.4429	-0.19
Mof_C 	C 	0.2023	0.9932	0.43652	0.134
Mof_C 	C 	0.2598	0.0249	0.41514	-0.201
Mof_C 	C 	0.2304	0.1059	0.40089	0.121
Mof_C 	C 	0.054	0.0043	0.4654	0.406
Mof_C 	C 	0.3486	0.9643	0.40761	0.445
Mof_C 	C 	0.808	0.6387	0.61433	0.349
Mof_C 	C 	0.7661	0.7203	0.59762	-0.158
Mof_C 	C 	0.6886	0.7729	0.60791	0.061
Mof_C 	C 	0.6476	0.8497	0.5937	-0.123
Mof_C 	C 	0.6901	0.8763	0.56983	0.069
Mof_C 	C 	0.7718	0.8286	0.56034	-0.153
Mof_C 	C 	0.8087	0.7479	0.57365	0.07
Mof_C 	C 	0.5628	0.9037	0.60474	0.326
Mof_C 	C 	0.8247	0.8654	0.53644	0.409
Mof_C 	C 	0.7443	0.3864	0.64189	0.416
Mof_C 	C 	0.6583	0.352	0.65806	-0.178
Mof_C 	C 	0.6255	0.4071	0.67955	0.109
Mof_C 	C 	0.5439	0.3817	0.6929	-0.173
Mof_C 	C 	0.4932	0.2977	0.68652	0.103
Mof_C 	C 	0.5249	0.2402	0.66514	-0.175
Mof_C 	C 	0.6059	0.2696	0.65089	0.106
Mof_C 	C 	0.5043	0.446	0.7154	0.441
Mof_C 	C 	0.4643	0.1514	0.65761	0.432
Mof_C 	C 	0.192	0.3613	0.11433	0.349
Mof_C 	C 	0.2339	0.2797	0.09762	-0.158
Mof_C 	C 	0.3114	0.2271	0.10791	0.061
Mof_C 	C 	0.3524	0.1503	0.0937	-0.123
Mof_C 	C 	0.3099	0.1237	0.06983	0.069
Mof_C 	C 	0.2282	0.1714	0.06034	-0.153
Mof_C 	C 	0.1913	0.2521	0.07365	0.07
Mof_C 	C 	0.4372	0.0963	0.10474	0.326
Mof_C 	C 	0.1753	0.1346	0.03644	0.409
Mof_C 	C 	0.2557	0.6136	0.14189	0.416
Mof_C 	C 	0.3417	0.648	0.15806	-0.178
Mof_C 	C 	0.3745	0.5929	0.17955	0.109
Mof_C 	C 	0.4561	0.6183	0.1929	-0.173
Mof_C 	C 	0.5068	0.7023	0.18652	0.103
Mof_C 	C 	0.4751	0.7598	0.16514	-0.175
Mof_C 	C 	0.3941	0.7304	0.15089	0.106
Mof_C 	C 	0.4957	0.554	0.2154	0.441
Mof_C 	C 	0.5357	0.8486	0.15761	0.432
Mof_C 	C 	0.3613	0.192	0.88567	0.349
Mof_C 	C 	0.2797	0.2339	0.90238	-0.158
Mof_C 	C 	0.2271	0.3114	0.89209	0.061
Mof_C 	C 	0.1503	0.3524	0.9063	-0.123
Mof_C 	C 	0.1237	0.3099	0.93017	0.069
Mof_C 	C 	0.1714	0.2282	0.93966	-0.153
Mof_C 	C 	0.2521	0.1913	0.92635	0.07
Mof_C 	C 	0.0963	0.4372	0.89526	0.326
Mof_C 	C 	0.1346	0.1753	0.96356	0.409
Mof_C 	C 	0.6136	0.2557	0.85811	0.416
Mof_C 	C 	0.648	0.3417	0.84194	-0.178
Mof_C 	C 	0.5929	0.3745	0.82045	0.109
Mof_C 	C 	0.6183	0.4561	0.8071	-0.173
Mof_C 	C 	0.7023	0.5068	0.81348	0.103
Mof_C 	C 	0.7598	0.4751	0.83486	-0.175
Mof_C 	C 	0.7304	0.3941	0.84911	0.106
Mof_C 	C 	0.554	0.4957	0.7846	0.441
Mof_C 	C 	0.8486	0.5357	0.84239	0.432
Mof_C 	C 	0.6387	0.808	0.38567	0.349
Mof_C 	C 	0.7203	0.7661	0.40238	-0.158
Mof_C 	C 	0.7729	0.6886	0.39209	0.061
Mof_C 	C 	0.8497	0.6476	0.4063	-0.123
Mof_C 	C 	0.8763	0.6901	0.43017	0.069
Mof_C 	C 	0.8286	0.7718	0.43966	-0.153
Mof_C 	C 	0.7479	0.8087	0.42635	0.07
Mof_C 	C 	0.9037	0.5628	0.39526	0.326
Mof_C 	C 	0.8654	0.8247	0.46356	0.409
Mof_C 	C 	0.3864	0.7443	0.35811	0.416
Mof_C 	C 	0.352	0.6583	0.34194	-0.178
Mof_C 	C 	0.4071	0.6255	0.32045	0.109
Mof_C 	C 	0.3817	0.5439	0.3071	-0.173
Mof_C 	C 	0.2977	0.4932	0.31348	0.103
Mof_C 	C 	0.2402	0.5249	0.33486	-0.175
Mof_C 	C 	0.2696	0.6059	0.34911	0.106
Mof_C 	C 	0.446	0.5043	0.2846	0.441
Mof_C 	C 	0.1514	0.4643	0.34239	0.432
Mof_C 	C 	0.692	0.1387	0.13567	0.347
Mof_C 	C 	0.7339	0.2203	0.15238	-0.156
Mof_C 	C 	0.8114	0.2729	0.14209	0.062
Mof_C 	C 	0.8524	0.3497	0.1563	-0.125
Mof_C 	C 	0.8099	0.3763	0.18017	0.07
Mof_C 	C 	0.7282	0.3286	0.18966	-0.155
Mof_C 	C 	0.6913	0.2479	0.17635	0.07
Mof_C 	C 	0.9372	0.4037	0.14526	0.328
Mof_C 	C 	0.6753	0.3654	0.21356	0.41
Mof_C 	C 	0.7557	0.8864	0.10811	0.42
Mof_C 	C 	0.8417	0.852	0.09194	-0.19
Mof_C 	C 	0.8745	0.9071	0.07045	0.119
Mof_C 	C 	0.9561	0.8817	0.0571	-0.19
Mof_C 	C 	0.0068	0.7977	0.06348	0.134
Mof_C 	C 	0.9751	0.7402	0.08486	-0.201
Mof_C 	C 	0.8941	0.7696	0.09911	0.121
Mof_C 	C 	0.9957	0.946	0.0346	0.406
Mof_C 	C 	0.0357	0.6514	0.09239	0.445
Mof_C 	C 	0.308	0.8613	0.63567	0.347
Mof_C 	C 	0.2661	0.7797	0.65238	-0.156
Mof_C 	C 	0.1886	0.7271	0.64209	0.062
Mof_C 	C 	0.1476	0.6503	0.6563	-0.125
Mof_C 	C 	0.1901	0.6237	0.68017	0.07
Mof_C 	C 	0.2718	0.6714	0.68966	-0.155
Mof_C 	C 	0.3087	0.7521	0.67635	0.07
Mof_C 	C 	0.0628	0.5963	0.64526	0.328
Mof_C 	C 	0.3247	0.6346	0.71356	0.41
Mof_C 	C 	0.2443	0.1136	0.60811	0.42
Mof_C 	C 	0.1583	0.148	0.59194	-0.19
Mof_C 	C 	0.1255	0.0929	0.57045	0.119
Mof_C 	C 	0.0439	0.1183	0.5571	-0.19
Mof_C 	C 	0.9932	0.2023	0.56348	0.134
Mof_C 	C 	0.0249	0.2598	0.58486	-0.201
Mof_C 	C 	0.1059	0.2304	0.59911	0.121
Mof_C 	C 	0.0043	0.054	0.5346	0.406
Mof_C 	C 	0.9643	0.3486	0.59239	0.445
Mof_O 	O 	0.0614	0.659	0.85249	-0.58
Mof_O 	O 	0.1471	0.6866	0.88826	-0.34
Mof_O 	O 	0.3211	0.6001	0.77976	-0.491
Mof_O 	O 	0.4416	0.7082	0.77532	-0.47
Mof_O 	O 	0.3853	0.9616	0.87803	-0.341
Mof_O 	O 	0.4632	0.9823	0.84059	-0.413
Mof_O 	O 	0.9294	0.6891	0.90347	-0.478
Mof_O 	O 	0.8685	0.7598	0.8675	-0.505
Mof_O 	O 	0.0272	0.9572	0.96825	-0.473
Mof_O 	O 	0.9131	0.0658	0.97799	-0.493
Mof_O 	O 	0.6148	0.0148	0.88502	-0.473
Mof_O 	O 	0.6247	0.1003	0.92259	-0.525
Mof_O 	O 	0.9386	0.341	0.35249	-0.58
Mof_O 	O 	0.8529	0.3134	0.38826	-0.34
Mof_O 	O 	0.6789	0.3999	0.27976	-0.491
Mof_O 	O 	0.5584	0.2918	0.27532	-0.47
Mof_O 	O 	0.6147	0.0384	0.37803	-0.341
Mof_O 	O 	0.5368	0.0177	0.34059	-0.413
Mof_O 	O 	0.0706	0.3109	0.40347	-0.478
Mof_O 	O 	0.1315	0.2402	0.3675	-0.505
Mof_O 	O 	0.9728	0.0428	0.46825	-0.473
Mof_O 	O 	0.0869	0.9342	0.47799	-0.493
Mof_O 	O 	0.3852	0.9852	0.38502	-0.473
Mof_O 	O 	0.3753	0.8997	0.42259	-0.525
Mof_O 	O 	0.841	0.5614	0.60249	-0.591
Mof_O 	O 	0.8134	0.6471	0.63826	-0.344
Mof_O 	O 	0.8999	0.8211	0.52976	-0.487
Mof_O 	O 	0.7918	0.9416	0.52532	-0.464
Mof_O 	O 	0.5384	0.8853	0.62803	-0.335
Mof_O 	O 	0.5177	0.9632	0.59059	-0.406
Mof_O 	O 	0.8109	0.4294	0.65347	-0.472
Mof_O 	O 	0.7402	0.3685	0.6175	-0.502
Mof_O 	O 	0.5428	0.5272	0.71825	-0.493
Mof_O 	O 	0.4342	0.4131	0.72799	-0.506
Mof_O 	O 	0.4852	0.1148	0.63502	-0.476
Mof_O 	O 	0.3997	0.1247	0.67259	-0.527
Mof_O 	O 	0.159	0.4386	0.10249	-0.591
Mof_O 	O 	0.1866	0.3529	0.13826	-0.344
Mof_O 	O 	0.1001	0.1789	0.02976	-0.487
Mof_O 	O 	0.2082	0.0584	0.02532	-0.464
Mof_O 	O 	0.4616	0.1147	0.12803	-0.335
Mof_O 	O 	0.4823	0.0368	0.09059	-0.406
Mof_O 	O 	0.1891	0.5706	0.15347	-0.472
Mof_O 	O 	0.2598	0.6315	0.1175	-0.502
Mof_O 	O 	0.4572	0.4728	0.21825	-0.493
Mof_O 	O 	0.5658	0.5869	0.22799	-0.506
Mof_O 	O 	0.5148	0.8852	0.13502	-0.476
Mof_O 	O 	0.6003	0.8753	0.17259	-0.527
Mof_O 	O 	0.4386	0.159	0.89751	-0.591
Mof_O 	O 	0.3529	0.1866	0.86174	-0.344
Mof_O 	O 	0.1789	0.1001	0.97024	-0.487
Mof_O 	O 	0.0584	0.2082	0.97468	-0.464
Mof_O 	O 	0.1147	0.4616	0.87197	-0.335
Mof_O 	O 	0.0368	0.4823	0.90941	-0.406
Mof_O 	O 	0.5706	0.1891	0.84653	-0.472
Mof_O 	O 	0.6315	0.2598	0.8825	-0.502
Mof_O 	O 	0.4728	0.4572	0.78175	-0.493
Mof_O 	O 	0.5869	0.5658	0.77201	-0.506
Mof_O 	O 	0.8852	0.5148	0.86498	-0.476
Mof_O 	O 	0.8753	0.6003	0.82741	-0.527
Mof_O 	O 	0.5614	0.841	0.39751	-0.591
Mof_O 	O 	0.6471	0.8134	0.36174	-0.344
Mof_O 	O 	0.8211	0.8999	0.47024	-0.487
Mof_O 	O 	0.9416	0.7918	0.47468	-0.464
Mof_O 	O 	0.8853	0.5384	0.37197	-0.335
Mof_O 	O 	0.9632	0.5177	0.40941	-0.406
Mof_O 	O 	0.4294	0.8109	0.34653	-0.472
Mof_O 	O 	0.3685	0.7402	0.3825	-0.502
Mof_O 	O 	0.5272	0.5428	0.28175	-0.493
Mof_O 	O 	0.4131	0.4342	0.27201	-0.506
Mof_O 	O 	0.1148	0.4852	0.36498	-0.476
Mof_O 	O 	0.1247	0.3997	0.32741	-0.527
Mof_O 	O 	0.659	0.0614	0.14751	-0.58
Mof_O 	O 	0.6866	0.1471	0.11174	-0.34
Mof_O 	O 	0.6001	0.3211	0.22024	-0.491
Mof_O 	O 	0.7082	0.4416	0.22468	-0.47
Mof_O 	O 	0.9616	0.3853	0.12197	-0.341
Mof_O 	O 	0.9823	0.4632	0.15941	-0.413
Mof_O 	O 	0.6891	0.9294	0.09653	-0.478
Mof_O 	O 	0.7598	0.8685	0.1325	-0.505
Mof_O 	O 	0.9572	0.0272	0.03175	-0.473
Mof_O 	O 	0.0658	0.9131	0.02201	-0.493
Mof_O 	O 	0.0148	0.6148	0.11498	-0.473
Mof_O 	O 	0.1003	0.6247	0.07741	-0.525
Mof_O 	O 	0.341	0.9386	0.64751	-0.58
Mof_O 	O 	0.3134	0.8529	0.61174	-0.34
Mof_O 	O 	0.3999	0.6789	0.72024	-0.491
Mof_O 	O 	0.2918	0.5584	0.72468	-0.47
Mof_O 	O 	0.0384	0.6147	0.62197	-0.341
Mof_O 	O 	0.0177	0.5368	0.65941	-0.413
Mof_O 	O 	0.3109	0.0706	0.59653	-0.478
Mof_O 	O 	0.2402	0.1315	0.6325	-0.505
Mof_O 	O 	0.0428	0.9728	0.53175	-0.473
Mof_O 	O 	0.9342	0.0869	0.52201	-0.493
Mof_O 	O 	0.9852	0.3852	0.61498	-0.473
Mof_O 	O 	0.8997	0.3753	0.57741	-0.525
_end
