data_functionalizedCrystal
_audit_creation_method	'EQeq! by Chris Wilmer'
_symmetry_space_group_name_H-M	'P1'
_symmetry_Int_Tables_number	1
_symmetry_cell_setting	triclinic
loop_
_symmetry_equiv_pos_as_xyz
  x,y,z
_cell_length_a	11.3018
_cell_length_b	10.3583
_cell_length_c	21.3661
_cell_angle_alpha	90
_cell_angle_beta	95.066
_cell_angle_gamma	90
loop_
_atom_site_label
_atom_site_type_symbol
_atom_site_fract_x
_atom_site_fract_y
_atom_site_fract_z
_atom_site_charge
Mof_C 	C 	0.7981	0.0098	0.5248	0.114
Mof_H 	H 	0.8035	0.0692	0.4925	-0.001
Mof_C 	C 	0.8768	0.9088	0.5298	-0.18
Mof_H 	H 	0.9329	0.8995	0.5007	0.105
Mof_C 	C 	0.8725	0.8208	0.5781	0.131
Mof_C 	C 	0.7868	0.839	0.6195	-0.181
Mof_H 	H 	0.781	0.7826	0.653	0.115
Mof_C 	C 	0.7103	0.9412	0.61064	0.11
Mof_H 	H 	0.6524	0.952	0.6385	0.006
Mof_C 	C 	0.9561	0.7108	0.5849	-0.032
Mof_C 	C 	0.1702	0.5648	0.5169	-0.042
Mof_C 	C 	0.2605	0.4632	0.5234	0.142
Mof_C 	C 	0.2765	0.383	0.5747	-0.177
Mof_H 	H 	0.2253	0.3881	0.6064	0.111
Mof_C 	C 	0.3681	0.2952	0.5792	0.118
Mof_H 	H 	0.3769	0.2415	0.6142	0.01
Mof_C 	C 	0.4269	0.3584	0.48457	0.114
Mof_H 	H 	0.4778	0.35	0.4529	0.014
Mof_C 	C 	0.3368	0.4471	0.47705	-0.19
Mof_H 	H 	0.3271	0.4965	0.4406	0.124
Mof_C 	C 	0.618	0.1313	0.35564	-0.015
Mof_C 	C 	0.6572	0.2522	0.33867	-0.056
Mof_H 	H 	0.6735	0.3151	0.3693	0.081
Mof_C 	C 	0.6721	0.2796	0.27667	0.037
Mof_H 	H 	0.6982	0.3611	0.2659	0.038
Mof_C 	C 	0.6487	0.1872	0.23009	-0.109
Mof_C 	C 	0.6135	0.0664	0.24868	0.134
Mof_C 	C 	0.5972	0.0364	0.31006	-0.107
Mof_H 	H 	0.5728	0.9543	0.3208	0.106
Mof_C 	C 	0.6607	0.2218	0.16181	0.353
Mof_C 	C 	0.5962	0.0996	0.42262	0.334
Mof_N 	N 	0.715	0.0264	0.56378	-0.224
Mof_N 	N 	0.0293	0.6934	0.5453	-0.072
Mof_N 	N 	0.1041	0.5869	0.56012	-0.069
Mof_N 	N 	0.4449	0.2835	0.5355	-0.219
Mof_N 	N 	0.5885	0.9644	0.2025	-0.015
Mof_O 	O 	0.6208	0.1885	0.46279	-0.391
Mof_O 	O 	0.5574	0.9921	0.43435	-0.366
Mof_O 	O 	0.5899	0.3081	0.14012	-0.38
Mof_O 	O 	0.7355	0.1664	0.13296	-0.288
Mof_O 	O 	0.538	0.9919	0.15148	-0.123
Mof_O 	O 	0.6155	0.8535	0.2165	-0.12
Mof_Cu	Cu	0.58435	0.15969	0.54935	0.921
Mof_H 	H 	0.16	0.623	0.481	0.071
Mof_H 	H 	0.95	0.652	0.621	0.063
Mof_C 	C 	0.7981	0.4902	0.0248	0.112
Mof_H 	H 	0.8035	0.4308	0.9925	0.001
Mof_C 	C 	0.8768	0.5912	0.0298	-0.177
Mof_H 	H 	0.9329	0.6005	0.0007	0.105
Mof_C 	C 	0.8725	0.6792	0.0781	0.131
Mof_C 	C 	0.7868	0.661	0.1195	-0.181
Mof_H 	H 	0.781	0.7174	0.153	0.115
Mof_C 	C 	0.7103	0.5588	0.11064	0.111
Mof_H 	H 	0.6524	0.548	0.1385	0.006
Mof_C 	C 	0.9561	0.7892	0.0849	-0.033
Mof_C 	C 	0.1702	0.9352	0.0169	-0.035
Mof_C 	C 	0.2605	0.0368	0.0234	0.136
Mof_C 	C 	0.2765	0.117	0.0747	-0.173
Mof_H 	H 	0.2253	0.1119	0.1064	0.11
Mof_C 	C 	0.3681	0.2048	0.0792	0.116
Mof_H 	H 	0.3769	0.2585	0.1142	0.01
Mof_C 	C 	0.4269	0.1416	0.98457	0.113
Mof_H 	H 	0.4778	0.15	0.9529	0.015
Mof_C 	C 	0.3368	0.0529	0.97705	-0.185
Mof_H 	H 	0.3271	0.0035	0.9406	0.123
Mof_C 	C 	0.618	0.3687	0.85564	-0.016
Mof_C 	C 	0.6572	0.2478	0.83867	-0.055
Mof_H 	H 	0.6735	0.1849	0.8693	0.081
Mof_C 	C 	0.6721	0.2204	0.77667	0.037
Mof_H 	H 	0.6982	0.1389	0.7659	0.038
Mof_C 	C 	0.6487	0.3128	0.73009	-0.109
Mof_C 	C 	0.6135	0.4336	0.74868	0.134
Mof_C 	C 	0.5972	0.4636	0.81006	-0.106
Mof_H 	H 	0.5728	0.5457	0.8208	0.106
Mof_C 	C 	0.6607	0.2782	0.66181	0.353
Mof_C 	C 	0.5962	0.4004	0.92262	0.334
Mof_N 	N 	0.715	0.4736	0.06378	-0.224
Mof_N 	N 	0.0293	0.8066	0.0453	-0.071
Mof_N 	N 	0.1041	0.9131	0.06012	-0.069
Mof_N 	N 	0.4449	0.2165	0.0355	-0.219
Mof_N 	N 	0.5885	0.5356	0.7025	-0.015
Mof_O 	O 	0.6208	0.3115	0.96279	-0.391
Mof_O 	O 	0.5574	0.5079	0.93435	-0.366
Mof_O 	O 	0.5899	0.1919	0.64012	-0.38
Mof_O 	O 	0.7355	0.3336	0.63296	-0.287
Mof_O 	O 	0.538	0.5081	0.65148	-0.123
Mof_O 	O 	0.6155	0.6465	0.7165	-0.12
Mof_Cu	Cu	0.58435	0.34031	0.04935	0.921
Mof_H 	H 	0.16	0.877	0.981	0.067
Mof_H 	H 	0.95	0.848	0.121	0.063
Mof_C 	C 	0.2019	0.5098	0.9752	0.112
Mof_H 	H 	0.1965	0.5692	0.0075	0.001
Mof_C 	C 	0.1232	0.4088	0.9702	-0.177
Mof_H 	H 	0.0671	0.3995	0.9993	0.105
Mof_C 	C 	0.1275	0.3208	0.9219	0.131
Mof_C 	C 	0.2132	0.339	0.8805	-0.181
Mof_H 	H 	0.219	0.2826	0.847	0.115
Mof_C 	C 	0.2897	0.4412	0.88936	0.111
Mof_H 	H 	0.3476	0.452	0.8615	0.006
Mof_C 	C 	0.0439	0.2108	0.9151	-0.033
Mof_C 	C 	0.8298	0.0648	0.9831	-0.035
Mof_C 	C 	0.7395	0.9632	0.9766	0.136
Mof_C 	C 	0.7235	0.883	0.9253	-0.173
Mof_H 	H 	0.7747	0.8881	0.8936	0.11
Mof_C 	C 	0.6319	0.7952	0.9208	0.116
Mof_H 	H 	0.6231	0.7415	0.8858	0.01
Mof_C 	C 	0.5731	0.8584	0.01543	0.113
Mof_H 	H 	0.5222	0.85	0.0471	0.015
Mof_C 	C 	0.6632	0.9471	0.02295	-0.185
Mof_H 	H 	0.6729	0.9965	0.0594	0.123
Mof_C 	C 	0.382	0.6313	0.14436	-0.016
Mof_C 	C 	0.3428	0.7522	0.16133	-0.055
Mof_H 	H 	0.3265	0.8151	0.1307	0.081
Mof_C 	C 	0.3279	0.7796	0.22333	0.037
Mof_H 	H 	0.3018	0.8611	0.2341	0.038
Mof_C 	C 	0.3513	0.6872	0.26991	-0.109
Mof_C 	C 	0.3865	0.5664	0.25132	0.134
Mof_C 	C 	0.4028	0.5364	0.18994	-0.106
Mof_H 	H 	0.4272	0.4543	0.1792	0.106
Mof_C 	C 	0.3393	0.7218	0.33819	0.353
Mof_C 	C 	0.4038	0.5996	0.07738	0.334
Mof_N 	N 	0.285	0.5264	0.93622	-0.224
Mof_N 	N 	0.9707	0.1934	0.9547	-0.071
Mof_N 	N 	0.8959	0.0869	0.93988	-0.069
Mof_N 	N 	0.5551	0.7835	0.9645	-0.219
Mof_N 	N 	0.4115	0.4644	0.2975	-0.015
Mof_O 	O 	0.3792	0.6885	0.03721	-0.391
Mof_O 	O 	0.4426	0.4921	0.06565	-0.366
Mof_O 	O 	0.4101	0.8081	0.35988	-0.38
Mof_O 	O 	0.2645	0.6664	0.36704	-0.287
Mof_O 	O 	0.462	0.4919	0.34852	-0.123
Mof_O 	O 	0.3845	0.3535	0.2835	-0.12
Mof_Cu	Cu	0.41565	0.65969	0.95065	0.921
Mof_H 	H 	0.84	0.123	0.019	0.067
Mof_H 	H 	0.05	0.152	0.879	0.063
Mof_C 	C 	0.2019	0.9902	0.4752	0.115
Mof_H 	H 	0.1965	0.9308	0.5075	-0
Mof_C 	C 	0.1232	0.0912	0.4702	-0.179
Mof_H 	H 	0.0671	0.1005	0.4993	0.106
Mof_C 	C 	0.1275	0.1792	0.4219	0.131
Mof_C 	C 	0.2132	0.161	0.3805	-0.181
Mof_H 	H 	0.219	0.2174	0.347	0.115
Mof_C 	C 	0.2897	0.0588	0.38936	0.11
Mof_H 	H 	0.3476	0.048	0.3615	0.006
Mof_C 	C 	0.0439	0.2892	0.4151	-0.032
Mof_C 	C 	0.8298	0.4352	0.4831	-0.042
Mof_C 	C 	0.7395	0.5368	0.4766	0.142
Mof_C 	C 	0.7235	0.617	0.4253	-0.177
Mof_H 	H 	0.7747	0.6119	0.3936	0.111
Mof_C 	C 	0.6319	0.7048	0.4208	0.118
Mof_H 	H 	0.6231	0.7585	0.3858	0.01
Mof_C 	C 	0.5731	0.6416	0.51543	0.114
Mof_H 	H 	0.5222	0.65	0.5471	0.014
Mof_C 	C 	0.6632	0.5529	0.52295	-0.19
Mof_H 	H 	0.6729	0.5035	0.5594	0.124
Mof_C 	C 	0.382	0.8687	0.64436	-0.015
Mof_C 	C 	0.3428	0.7478	0.66133	-0.056
Mof_H 	H 	0.3265	0.6849	0.6307	0.081
Mof_C 	C 	0.3279	0.7204	0.72333	0.037
Mof_H 	H 	0.3018	0.6389	0.7341	0.038
Mof_C 	C 	0.3513	0.8128	0.76991	-0.109
Mof_C 	C 	0.3865	0.9336	0.75132	0.134
Mof_C 	C 	0.4028	0.9636	0.68994	-0.107
Mof_H 	H 	0.4272	0.0457	0.6792	0.106
Mof_C 	C 	0.3393	0.7782	0.83819	0.353
Mof_C 	C 	0.4038	0.9004	0.57738	0.334
Mof_N 	N 	0.285	0.9736	0.43622	-0.224
Mof_N 	N 	0.9707	0.3066	0.4547	-0.072
Mof_N 	N 	0.8959	0.4131	0.43988	-0.069
Mof_N 	N 	0.5551	0.7165	0.4645	-0.219
Mof_N 	N 	0.4115	0.0356	0.7975	-0.015
Mof_O 	O 	0.3792	0.8115	0.53721	-0.391
Mof_O 	O 	0.4426	0.0079	0.56565	-0.366
Mof_O 	O 	0.4101	0.6919	0.85988	-0.38
Mof_O 	O 	0.2645	0.8336	0.86704	-0.288
Mof_O 	O 	0.462	0.0081	0.84852	-0.123
Mof_O 	O 	0.3845	0.1465	0.7835	-0.12
Mof_Cu	Cu	0.41565	0.84031	0.45065	0.921
Mof_H 	H 	0.84	0.377	0.519	0.071
Mof_H 	H 	0.05	0.348	0.379	0.063
_end
