data_functionalizedCrystal
_audit_creation_method	'EQeq! by Chris Wilmer'
_symmetry_space_group_name_H-M	'P1'
_symmetry_Int_Tables_number	1
_symmetry_cell_setting	triclinic
loop_
_symmetry_equiv_pos_as_xyz
  x,y,z
_cell_length_a	9.3278
_cell_length_b	15.5529
_cell_length_c	9.6474
_cell_angle_alpha	90
_cell_angle_beta	93.266
_cell_angle_gamma	90
loop_
_atom_site_label
_atom_site_type_symbol
_atom_site_fract_x
_atom_site_fract_y
_atom_site_fract_z
_atom_site_charge
Mof_U 	U 	0.142	0.017	0.029	0.055
Mof_U 	U 	0.2385	0.0228	0.6349	0.045
Mof_U 	U 	0.1337	0.4892	0.0013	0.055
Mof_U 	U 	0.2285	0.4707	0.6055	0.045
Mof_U 	U 	0.7166	0.2512	0.8112	0.036
Mof_P 	P 	0.48	0.4369	0.8383	0.471
Mof_P 	P 	0.8786	0.4739	0.775	0.42
Mof_P 	P 	0.4888	0.0638	0.8622	0.482
Mof_P 	P 	0.8864	0.03	0.7992	0.415
Mof_O 	O 	0.3242	0.0563	0.878	-0.114
Mof_O 	O 	0.0497	0.0425	0.7835	-0.07
Mof_O 	O 	0.0401	0.4606	0.7552	-0.071
Mof_O 	O 	0.314	0.4445	0.8537	-0.109
Mof_O 	O 	0.4886	0.4606	0.6815	-0.122
Mof_O 	O 	0.5579	0.5047	0.928	-0.131
Mof_O 	O 	0.8151	0.5393	0.665	-0.139
Mof_O 	O 	0.881	0.5175	0.9202	-0.133
Mof_O 	O 	0.824	0.9603	0.6986	-0.137
Mof_O 	O 	0.5673	0.0008	0.9569	-0.14
Mof_O 	O 	0.797	0.3914	0.7689	-0.152
Mof_O 	O 	0.889	0.993	0.9493	-0.127
Mof_O 	O 	0.8066	0.1126	0.7829	-0.153
Mof_O 	O 	0.4985	0.0327	0.7105	-0.128
Mof_O 	O 	0.5293	0.3474	0.8681	-0.132
Mof_O 	O 	0.5374	0.1538	0.8835	-0.136
Mof_U 	U 	0.642	0.983	0.529	0.035
Mof_U 	U 	0.7385	0.9772	0.1349	0.027
Mof_U 	U 	0.6337	0.5108	0.5013	0.031
Mof_U 	U 	0.7285	0.5293	0.1055	0.025
Mof_U 	U 	0.2166	0.7488	0.3112	0.051
Mof_P 	P 	0.98	0.5631	0.3383	0.367
Mof_P 	P 	0.3786	0.5261	0.275	0.47
Mof_P 	P 	0.9888	0.9362	0.3622	0.377
Mof_P 	P 	0.3864	0.97	0.2992	0.476
Mof_O 	O 	0.8242	0.9437	0.378	-0.124
Mof_O 	O 	0.5497	0.9575	0.2835	-0.128
Mof_O 	O 	0.5401	0.5394	0.2552	-0.131
Mof_O 	O 	0.814	0.5555	0.3537	-0.122
Mof_O 	O 	0.9886	0.5394	0.1815	-0.152
Mof_O 	O 	0.0579	0.4953	0.428	-0.076
Mof_O 	O 	0.3151	0.4607	0.165	-0.124
Mof_O 	O 	0.381	0.4825	0.4202	-0.122
Mof_O 	O 	0.324	0.0397	0.1986	-0.129
Mof_O 	O 	0.0673	0.9992	0.4569	-0.079
Mof_O 	O 	0.297	0.6086	0.2689	-0.139
Mof_O 	O 	0.389	0.007	0.4493	-0.125
Mof_O 	O 	0.3066	0.8874	0.2829	-0.14
Mof_O 	O 	0.9985	0.9673	0.2105	-0.153
Mof_O 	O 	0.0293	0.6526	0.3681	-0.071
Mof_O 	O 	0.0374	0.8462	0.3835	-0.074
_end
