data_functionalizedCrystal
_audit_creation_method	'EQeq! by Chris Wilmer'
_symmetry_space_group_name_H-M	'P1'
_symmetry_Int_Tables_number	1
_symmetry_cell_setting	triclinic
loop_
_symmetry_equiv_pos_as_xyz
  x,y,z
_cell_length_a	19.3329
_cell_length_b	19.3329
_cell_length_c	19.3329
_cell_angle_alpha	90
_cell_angle_beta	90
_cell_angle_gamma	90
loop_
_atom_site_label
_atom_site_type_symbol
_atom_site_fract_x
_atom_site_fract_y
_atom_site_fract_z
_atom_site_charge
Mof_N 	N 	0.574	0.0797	0.1297	-0.191
Mof_C 	C 	0.637	0.0846	0.1599	0.091
Mof_H 	H 	0.6513	0.0558	0.1956	-0.055
Mof_N 	N 	0.926	0.4203	0.1297	-0.19
Mof_C 	C 	0.863	0.4154	0.1599	0.091
Mof_H 	H 	0.8487	0.4442	0.1956	-0.055
Mof_N 	N 	0.926	0.0797	0.3703	-0.189
Mof_C 	C 	0.863	0.0846	0.3401	0.091
Mof_H 	H 	0.8487	0.0558	0.3044	-0.054
Mof_N 	N 	0.574	0.4203	0.3703	-0.192
Mof_C 	C 	0.637	0.4154	0.3401	0.09
Mof_H 	H 	0.6513	0.4442	0.3044	-0.055
Mof_N 	N 	0.1297	0.574	0.0797	-0.191
Mof_C 	C 	0.1599	0.637	0.0846	0.091
Mof_H 	H 	0.1956	0.6513	0.0558	-0.055
Mof_N 	N 	0.1297	0.926	0.4203	-0.19
Mof_C 	C 	0.1599	0.863	0.4154	0.091
Mof_H 	H 	0.1956	0.8487	0.4442	-0.055
Mof_N 	N 	0.3703	0.926	0.0797	-0.189
Mof_C 	C 	0.3401	0.863	0.0846	0.091
Mof_H 	H 	0.3044	0.8487	0.0558	-0.054
Mof_N 	N 	0.3703	0.574	0.4203	-0.192
Mof_C 	C 	0.3401	0.637	0.4154	0.09
Mof_H 	H 	0.3044	0.6513	0.4442	-0.055
Mof_N 	N 	0.0797	0.1297	0.574	-0.191
Mof_C 	C 	0.0846	0.1599	0.637	0.091
Mof_H 	H 	0.0558	0.1956	0.6513	-0.055
Mof_N 	N 	0.4203	0.1297	0.926	-0.19
Mof_C 	C 	0.4154	0.1599	0.863	0.091
Mof_H 	H 	0.4442	0.1956	0.8487	-0.055
Mof_N 	N 	0.0797	0.3703	0.926	-0.19
Mof_C 	C 	0.0846	0.3401	0.863	0.09
Mof_H 	H 	0.0558	0.3044	0.8487	-0.055
Mof_N 	N 	0.4203	0.3703	0.574	-0.193
Mof_C 	C 	0.4154	0.3401	0.637	0.089
Mof_H 	H 	0.4442	0.3044	0.6513	-0.056
Mof_N 	N 	0.4203	0.926	0.1297	-0.191
Mof_C 	C 	0.4154	0.863	0.1599	0.09
Mof_H 	H 	0.4442	0.8487	0.1956	-0.056
Mof_N 	N 	0.0797	0.574	0.1297	-0.192
Mof_C 	C 	0.0846	0.637	0.1599	0.09
Mof_H 	H 	0.0558	0.6513	0.1956	-0.056
Mof_N 	N 	0.4203	0.574	0.3703	-0.193
Mof_C 	C 	0.4154	0.637	0.3401	0.089
Mof_H 	H 	0.4442	0.6513	0.3044	-0.056
Mof_N 	N 	0.0797	0.926	0.3703	-0.19
Mof_C 	C 	0.0846	0.863	0.3401	0.09
Mof_H 	H 	0.0558	0.8487	0.3044	-0.055
Mof_N 	N 	0.926	0.3703	0.0797	-0.19
Mof_C 	C 	0.863	0.3401	0.0846	0.09
Mof_H 	H 	0.8487	0.3044	0.0558	-0.055
Mof_N 	N 	0.574	0.3703	0.4203	-0.193
Mof_C 	C 	0.637	0.3401	0.4154	0.089
Mof_H 	H 	0.6513	0.3044	0.4442	-0.056
Mof_N 	N 	0.574	0.1297	0.0797	-0.192
Mof_C 	C 	0.637	0.1599	0.0846	0.09
Mof_H 	H 	0.6513	0.1956	0.0558	-0.056
Mof_N 	N 	0.926	0.1297	0.4203	-0.191
Mof_C 	C 	0.863	0.1599	0.4154	0.09
Mof_H 	H 	0.8487	0.1956	0.4442	-0.056
Mof_N 	N 	0.3703	0.4203	0.574	-0.193
Mof_C 	C 	0.3401	0.4154	0.637	0.089
Mof_H 	H 	0.3044	0.4442	0.6513	-0.056
Mof_N 	N 	0.3703	0.0797	0.926	-0.19
Mof_C 	C 	0.3401	0.0846	0.863	0.09
Mof_H 	H 	0.3044	0.0558	0.8487	-0.055
Mof_N 	N 	0.1297	0.4203	0.926	-0.191
Mof_C 	C 	0.1599	0.4154	0.863	0.09
Mof_H 	H 	0.1956	0.4442	0.8487	-0.056
Mof_N 	N 	0.1297	0.0797	0.574	-0.192
Mof_C 	C 	0.1599	0.0846	0.637	0.09
Mof_H 	H 	0.1956	0.0558	0.6513	-0.056
Mof_Ag	Ag	0.49472	0.00528	0.13646	0.345
Mof_Ag	Ag	0.00528	0.49472	0.13646	0.345
Mof_Ag	Ag	0.00528	0.00528	0.36354	0.338
Mof_Ag	Ag	0.49472	0.49472	0.36354	0.348
Mof_Ag	Ag	0.13646	0.49472	0.00528	0.345
Mof_Ag	Ag	0.13646	0.00528	0.49472	0.345
Mof_Ag	Ag	0.36354	0.00528	0.00528	0.338
Mof_Ag	Ag	0.36354	0.49472	0.49472	0.348
Mof_Ag	Ag	0.00528	0.13646	0.49472	0.345
Mof_Ag	Ag	0.49472	0.13646	0.00528	0.345
Mof_Ag	Ag	0.00528	0.36354	0.00528	0.338
Mof_Ag	Ag	0.49472	0.36354	0.49472	0.348
Mof_Ag	Ag	0.76922	0.17434	0.17434	0.347
Mof_N 	N 	0.676	0.1339	0.1339	-0.225
Mof_N 	N 	0.8556	0.2264	0.2264	-0.182
Mof_C 	C 	0.9213	0.213	0.213	0.112
Mof_H 	H 	0.9367	0.1807	0.1807	-0.069
Mof_Ag	Ag	0.73078	0.32566	0.17434	0.346
Mof_N 	N 	0.824	0.3661	0.1339	-0.225
Mof_N 	N 	0.6444	0.2736	0.2264	-0.182
Mof_C 	C 	0.5787	0.287	0.213	0.112
Mof_H 	H 	0.5633	0.3193	0.1807	-0.071
Mof_Ag	Ag	0.73078	0.17434	0.32566	0.346
Mof_N 	N 	0.824	0.1339	0.3661	-0.225
Mof_N 	N 	0.6444	0.2264	0.2736	-0.182
Mof_C 	C 	0.5787	0.213	0.287	0.112
Mof_H 	H 	0.5633	0.1807	0.3193	-0.071
Mof_Ag	Ag	0.76922	0.32566	0.32566	0.346
Mof_N 	N 	0.676	0.3661	0.3661	-0.225
Mof_N 	N 	0.8556	0.2736	0.2736	-0.182
Mof_C 	C 	0.9213	0.287	0.287	0.112
Mof_H 	H 	0.9367	0.3193	0.3193	-0.07
Mof_Ag	Ag	0.17434	0.76922	0.17434	0.347
Mof_N 	N 	0.1339	0.676	0.1339	-0.225
Mof_N 	N 	0.2264	0.8556	0.2264	-0.182
Mof_C 	C 	0.213	0.9213	0.213	0.112
Mof_H 	H 	0.1807	0.9367	0.1807	-0.069
Mof_Ag	Ag	0.17434	0.73078	0.32566	0.346
Mof_N 	N 	0.1339	0.824	0.3661	-0.225
Mof_N 	N 	0.2264	0.6444	0.2736	-0.182
Mof_C 	C 	0.213	0.5787	0.287	0.112
Mof_H 	H 	0.1807	0.5633	0.3193	-0.071
Mof_Ag	Ag	0.32566	0.73078	0.17434	0.346
Mof_N 	N 	0.3661	0.824	0.1339	-0.225
Mof_N 	N 	0.2736	0.6444	0.2264	-0.182
Mof_C 	C 	0.287	0.5787	0.213	0.112
Mof_H 	H 	0.3193	0.5633	0.1807	-0.071
Mof_Ag	Ag	0.32566	0.76922	0.32566	0.346
Mof_N 	N 	0.3661	0.676	0.3661	-0.225
Mof_N 	N 	0.2736	0.8556	0.2736	-0.182
Mof_C 	C 	0.287	0.9213	0.287	0.112
Mof_H 	H 	0.3193	0.9367	0.3193	-0.07
Mof_Ag	Ag	0.17434	0.17434	0.76922	0.347
Mof_N 	N 	0.1339	0.1339	0.676	-0.225
Mof_N 	N 	0.2264	0.2264	0.8556	-0.182
Mof_C 	C 	0.213	0.213	0.9213	0.112
Mof_H 	H 	0.1807	0.1807	0.9367	-0.069
Mof_Ag	Ag	0.32566	0.17434	0.73078	0.346
Mof_N 	N 	0.3661	0.1339	0.824	-0.225
Mof_N 	N 	0.2736	0.2264	0.6444	-0.182
Mof_C 	C 	0.287	0.213	0.5787	0.112
Mof_H 	H 	0.3193	0.1807	0.5633	-0.071
Mof_Ag	Ag	0.17434	0.32566	0.73078	0.346
Mof_N 	N 	0.1339	0.3661	0.824	-0.225
Mof_N 	N 	0.2264	0.2736	0.6444	-0.182
Mof_C 	C 	0.213	0.287	0.5787	0.112
Mof_H 	H 	0.1807	0.3193	0.5633	-0.071
Mof_Ag	Ag	0.32566	0.32566	0.76922	0.346
Mof_N 	N 	0.3661	0.3661	0.676	-0.225
Mof_N 	N 	0.2736	0.2736	0.8556	-0.182
Mof_C 	C 	0.287	0.287	0.9213	0.112
Mof_H 	H 	0.3193	0.3193	0.9367	-0.07
Mof_Ag	Ag	0.0626	0.2232	0.2768	0.101
Mof_Ag	Ag	0.4374	0.2768	0.2768	0.103
Mof_Ag	Ag	0.4374	0.2232	0.2232	0.104
Mof_Ag	Ag	0.0626	0.2768	0.2232	0.101
Mof_Ag	Ag	0.2768	0.0626	0.2232	0.101
Mof_Ag	Ag	0.2768	0.4374	0.2768	0.103
Mof_Ag	Ag	0.2232	0.4374	0.2232	0.104
Mof_Ag	Ag	0.2232	0.0626	0.2768	0.101
Mof_Ag	Ag	0.2232	0.2768	0.0626	0.101
Mof_Ag	Ag	0.2768	0.2768	0.4374	0.103
Mof_Ag	Ag	0.2232	0.2232	0.4374	0.104
Mof_Ag	Ag	0.2768	0.2232	0.0626	0.101
Mof_N 	N 	0.9603	0.25	0.25	-0.226
Mof_N 	N 	0.5397	0.25	0.25	-0.228
Mof_N 	N 	0.25	0.9603	0.25	-0.226
Mof_N 	N 	0.25	0.5397	0.25	-0.228
Mof_N 	N 	0.25	0.25	0.9603	-0.226
Mof_N 	N 	0.25	0.25	0.5397	-0.228
Mof_N 	N 	0.5797	0.074	0.8703	-0.191
Mof_C 	C 	0.5846	0.137	0.8401	0.09
Mof_H 	H 	0.5558	0.1513	0.8044	-0.056
Mof_N 	N 	0.9203	0.426	0.8703	-0.192
Mof_C 	C 	0.9154	0.363	0.8401	0.09
Mof_H 	H 	0.9442	0.3487	0.8044	-0.056
Mof_N 	N 	0.5797	0.426	0.6297	-0.193
Mof_C 	C 	0.5846	0.363	0.6599	0.089
Mof_H 	H 	0.5558	0.3487	0.6956	-0.056
Mof_N 	N 	0.9203	0.074	0.6297	-0.19
Mof_C 	C 	0.9154	0.137	0.6599	0.09
Mof_H 	H 	0.9442	0.1513	0.6956	-0.055
Mof_N 	N 	0.074	0.6297	0.9203	-0.19
Mof_C 	C 	0.137	0.6599	0.9154	0.09
Mof_H 	H 	0.1513	0.6956	0.9442	-0.055
Mof_N 	N 	0.426	0.6297	0.5797	-0.193
Mof_C 	C 	0.363	0.6599	0.5846	0.089
Mof_H 	H 	0.3487	0.6956	0.5558	-0.056
Mof_N 	N 	0.426	0.8703	0.9203	-0.192
Mof_C 	C 	0.363	0.8401	0.9154	0.09
Mof_H 	H 	0.3487	0.8044	0.9442	-0.056
Mof_N 	N 	0.074	0.8703	0.5797	-0.191
Mof_C 	C 	0.137	0.8401	0.5846	0.09
Mof_H 	H 	0.1513	0.8044	0.5558	-0.056
Mof_N 	N 	0.6297	0.5797	0.426	-0.193
Mof_C 	C 	0.6599	0.5846	0.363	0.089
Mof_H 	H 	0.6956	0.5558	0.3487	-0.056
Mof_N 	N 	0.6297	0.9203	0.074	-0.19
Mof_C 	C 	0.6599	0.9154	0.137	0.09
Mof_H 	H 	0.6956	0.9442	0.1513	-0.055
Mof_N 	N 	0.8703	0.5797	0.074	-0.191
Mof_C 	C 	0.8401	0.5846	0.137	0.09
Mof_H 	H 	0.8044	0.5558	0.1513	-0.056
Mof_N 	N 	0.8703	0.9203	0.426	-0.192
Mof_C 	C 	0.8401	0.9154	0.363	0.09
Mof_H 	H 	0.8044	0.9442	0.3487	-0.056
Mof_N 	N 	0.426	0.9203	0.8703	-0.192
Mof_C 	C 	0.363	0.9154	0.8401	0.09
Mof_H 	H 	0.3487	0.9442	0.8044	-0.056
Mof_N 	N 	0.074	0.5797	0.8703	-0.191
Mof_C 	C 	0.137	0.5846	0.8401	0.09
Mof_H 	H 	0.1513	0.5558	0.8044	-0.056
Mof_N 	N 	0.074	0.9203	0.6297	-0.19
Mof_C 	C 	0.137	0.9154	0.6599	0.09
Mof_H 	H 	0.1513	0.9442	0.6956	-0.055
Mof_N 	N 	0.426	0.5797	0.6297	-0.193
Mof_C 	C 	0.363	0.5846	0.6599	0.089
Mof_H 	H 	0.3487	0.5558	0.6956	-0.056
Mof_N 	N 	0.8703	0.426	0.9203	-0.192
Mof_C 	C 	0.8401	0.363	0.9154	0.09
Mof_H 	H 	0.8044	0.3487	0.9442	-0.056
Mof_N 	N 	0.8703	0.074	0.5797	-0.191
Mof_C 	C 	0.8401	0.137	0.5846	0.09
Mof_H 	H 	0.8044	0.1513	0.5558	-0.056
Mof_N 	N 	0.6297	0.074	0.9203	-0.19
Mof_C 	C 	0.6599	0.137	0.9154	0.09
Mof_H 	H 	0.6956	0.1513	0.9442	-0.055
Mof_N 	N 	0.6297	0.426	0.5797	-0.193
Mof_C 	C 	0.6599	0.363	0.5846	0.089
Mof_H 	H 	0.6956	0.3487	0.5558	-0.056
Mof_N 	N 	0.9203	0.8703	0.426	-0.192
Mof_C 	C 	0.9154	0.8401	0.363	0.09
Mof_H 	H 	0.9442	0.8044	0.3487	-0.056
Mof_N 	N 	0.5797	0.8703	0.074	-0.191
Mof_C 	C 	0.5846	0.8401	0.137	0.09
Mof_H 	H 	0.5558	0.8044	0.1513	-0.056
Mof_N 	N 	0.9203	0.6297	0.074	-0.19
Mof_C 	C 	0.9154	0.6599	0.137	0.09
Mof_H 	H 	0.9442	0.6956	0.1513	-0.055
Mof_N 	N 	0.5797	0.6297	0.426	-0.193
Mof_C 	C 	0.5846	0.6599	0.363	0.089
Mof_H 	H 	0.5558	0.6956	0.3487	-0.056
Mof_Ag	Ag	0.50528	0.99472	0.86354	0.345
Mof_Ag	Ag	0.99472	0.50528	0.86354	0.345
Mof_Ag	Ag	0.50528	0.50528	0.63646	0.348
Mof_Ag	Ag	0.99472	0.99472	0.63646	0.338
Mof_Ag	Ag	0.99472	0.63646	0.99472	0.338
Mof_Ag	Ag	0.50528	0.63646	0.50528	0.348
Mof_Ag	Ag	0.50528	0.86354	0.99472	0.345
Mof_Ag	Ag	0.99472	0.86354	0.50528	0.345
Mof_Ag	Ag	0.63646	0.50528	0.50528	0.348
Mof_Ag	Ag	0.63646	0.99472	0.99472	0.338
Mof_Ag	Ag	0.86354	0.50528	0.99472	0.345
Mof_Ag	Ag	0.86354	0.99472	0.50528	0.345
Mof_Ag	Ag	0.67434	0.26922	0.82566	0.346
Mof_N 	N 	0.6339	0.176	0.8661	-0.225
Mof_N 	N 	0.7264	0.3556	0.7736	-0.182
Mof_C 	C 	0.713	0.4213	0.787	0.112
Mof_H 	H 	0.6807	0.4367	0.8193	-0.071
Mof_Ag	Ag	0.82566	0.23078	0.82566	0.347
Mof_N 	N 	0.8661	0.324	0.8661	-0.225
Mof_N 	N 	0.7736	0.1444	0.7736	-0.182
Mof_C 	C 	0.787	0.0787	0.787	0.112
Mof_H 	H 	0.8193	0.0633	0.8193	-0.069
Mof_Ag	Ag	0.67434	0.23078	0.67434	0.346
Mof_N 	N 	0.6339	0.324	0.6339	-0.225
Mof_N 	N 	0.7264	0.1444	0.7264	-0.182
Mof_C 	C 	0.713	0.0787	0.713	0.112
Mof_H 	H 	0.6807	0.0633	0.6807	-0.07
Mof_Ag	Ag	0.82566	0.26922	0.67434	0.346
Mof_N 	N 	0.8661	0.176	0.6339	-0.225
Mof_N 	N 	0.7736	0.3556	0.7264	-0.182
Mof_C 	C 	0.787	0.4213	0.713	0.112
Mof_H 	H 	0.8193	0.4367	0.6807	-0.071
Mof_Ag	Ag	0.26922	0.67434	0.82566	0.346
Mof_N 	N 	0.176	0.6339	0.8661	-0.225
Mof_N 	N 	0.3556	0.7264	0.7736	-0.182
Mof_C 	C 	0.4213	0.713	0.787	0.112
Mof_H 	H 	0.4367	0.6807	0.8193	-0.071
Mof_Ag	Ag	0.23078	0.67434	0.67434	0.346
Mof_N 	N 	0.324	0.6339	0.6339	-0.225
Mof_N 	N 	0.1444	0.7264	0.7264	-0.182
Mof_C 	C 	0.0787	0.713	0.713	0.112
Mof_H 	H 	0.0633	0.6807	0.6807	-0.07
Mof_Ag	Ag	0.23078	0.82566	0.82566	0.347
Mof_N 	N 	0.324	0.8661	0.8661	-0.225
Mof_N 	N 	0.1444	0.7736	0.7736	-0.182
Mof_C 	C 	0.0787	0.787	0.787	0.112
Mof_H 	H 	0.0633	0.8193	0.8193	-0.069
Mof_Ag	Ag	0.26922	0.82566	0.67434	0.346
Mof_N 	N 	0.176	0.8661	0.6339	-0.225
Mof_N 	N 	0.3556	0.7736	0.7264	-0.182
Mof_C 	C 	0.4213	0.787	0.713	0.112
Mof_H 	H 	0.4367	0.8193	0.6807	-0.071
Mof_Ag	Ag	0.67434	0.67434	0.23078	0.346
Mof_N 	N 	0.6339	0.6339	0.324	-0.225
Mof_N 	N 	0.7264	0.7264	0.1444	-0.182
Mof_C 	C 	0.713	0.713	0.0787	0.112
Mof_H 	H 	0.6807	0.6807	0.0633	-0.07
Mof_Ag	Ag	0.67434	0.82566	0.26922	0.346
Mof_N 	N 	0.6339	0.8661	0.176	-0.225
Mof_N 	N 	0.7264	0.7736	0.3556	-0.182
Mof_C 	C 	0.713	0.787	0.4213	0.112
Mof_H 	H 	0.6807	0.8193	0.4367	-0.071
Mof_Ag	Ag	0.82566	0.67434	0.26922	0.346
Mof_N 	N 	0.8661	0.6339	0.176	-0.225
Mof_N 	N 	0.7736	0.7264	0.3556	-0.182
Mof_C 	C 	0.787	0.713	0.4213	0.112
Mof_H 	H 	0.8193	0.6807	0.4367	-0.071
Mof_Ag	Ag	0.82566	0.82566	0.23078	0.347
Mof_N 	N 	0.8661	0.8661	0.324	-0.225
Mof_N 	N 	0.7736	0.7736	0.1444	-0.182
Mof_C 	C 	0.787	0.787	0.0787	0.112
Mof_H 	H 	0.8193	0.8193	0.0633	-0.069
Mof_Ag	Ag	0.7232	0.5626	0.7232	0.103
Mof_Ag	Ag	0.7768	0.9374	0.7232	0.101
Mof_Ag	Ag	0.7232	0.9374	0.7768	0.101
Mof_Ag	Ag	0.7768	0.5626	0.7768	0.104
Mof_Ag	Ag	0.5626	0.7768	0.7768	0.104
Mof_Ag	Ag	0.9374	0.7768	0.7232	0.101
Mof_Ag	Ag	0.9374	0.7232	0.7768	0.101
Mof_Ag	Ag	0.5626	0.7232	0.7232	0.103
Mof_Ag	Ag	0.7768	0.7232	0.9374	0.101
Mof_Ag	Ag	0.7768	0.7768	0.5626	0.104
Mof_Ag	Ag	0.7232	0.7232	0.5626	0.103
Mof_Ag	Ag	0.7232	0.7768	0.9374	0.101
Mof_N 	N 	0.75	0.4603	0.75	-0.228
Mof_N 	N 	0.75	0.0397	0.75	-0.226
Mof_N 	N 	0.4603	0.75	0.75	-0.228
Mof_N 	N 	0.0397	0.75	0.75	-0.226
Mof_N 	N 	0.75	0.75	0.0397	-0.226
Mof_N 	N 	0.75	0.75	0.4603	-0.228
_end
