data_functionalizedCrystal
_audit_creation_method	'EQeq! by Chris Wilmer'
_symmetry_space_group_name_H-M	'P1'
_symmetry_Int_Tables_number	1
_symmetry_cell_setting	triclinic
loop_
_symmetry_equiv_pos_as_xyz
  x,y,z
_cell_length_a	10.2826
_cell_length_b	12.6977
_cell_length_c	17.864
_cell_angle_alpha	90
_cell_angle_beta	102.761
_cell_angle_gamma	90
loop_
_atom_site_label
_atom_site_type_symbol
_atom_site_fract_x
_atom_site_fract_y
_atom_site_fract_z
_atom_site_charge
Mof_Sc	Sc	0.43963	0.02145	0.12748	1.736
Mof_Sc	Sc	0.24602	0.0692	0.27905	2.003
Mof_Sc	Sc	0.96895	0.88639	0.20811	1.723
Mof_Sc	Sc	0.86551	0.14671	0.42316	1.517
Mof_P 	P 	0.70051	0.9113	0.05789	0.671
Mof_P 	P 	0.56465	0.11791	0.30734	0.666
Mof_P 	P 	0.2228	0.33851	0.29917	0.654
Mof_P 	P 	0.08021	0.9535	0.39262	0.662
Mof_F 	F 	0.2896	0.08579	0.17319	-0.762
Mof_F 	F 	0.0533	0.03385	0.22052	-0.761
Mof_O 	O 	0.6799	0.972	0.98216	-0.492
Mof_O 	O 	0.8444	0.9239	0.10414	-0.489
Mof_O 	O 	0.6035	0.9509	0.10543	-0.571
Mof_O 	O 	0.6739	0.79399	0.03945	-0.519
Mof_O 	O 	0.5862	0.23248	0.28453	-0.558
Mof_O 	O 	0.5594	0.04618	0.23786	-0.509
Mof_O 	O 	0.6838	0.08744	0.37212	-0.48
Mof_O 	O 	0.4356	0.1074	0.3367	-0.518
Mof_O 	O 	0.3711	0.3431	0.33795	-0.484
Mof_O 	O 	0.1373	0.37253	0.3561	-0.483
Mof_O 	O 	0.1817	0.22545	0.27346	-0.484
Mof_O 	O 	0.1938	0.41297	0.22971	-0.505
Mof_O 	O 	0.0541	0.87307	0.32717	-0.496
Mof_O 	O 	0.1833	0.03707	0.37974	-0.52
Mof_O 	O 	0.9486	0.01014	0.39375	-0.524
Mof_O 	O 	0.1333	0.8987	0.46887	-0.489
Mof_Sc	Sc	0.06037	0.52145	0.37252	1.741
Mof_Sc	Sc	0.25398	0.5692	0.22095	2.007
Mof_Sc	Sc	0.53105	0.38639	0.29189	1.735
Mof_Sc	Sc	0.63449	0.64671	0.07684	1.515
Mof_P 	P 	0.79949	0.4113	0.44211	0.673
Mof_P 	P 	0.93535	0.61791	0.19266	0.663
Mof_P 	P 	0.2772	0.83851	0.20083	0.654
Mof_P 	P 	0.41979	0.4535	0.10738	0.659
Mof_F 	F 	0.2104	0.58579	0.32681	-0.762
Mof_F 	F 	0.4467	0.53385	0.27948	-0.762
Mof_O 	O 	0.8201	0.472	0.51784	-0.493
Mof_O 	O 	0.6556	0.4239	0.39586	-0.488
Mof_O 	O 	0.8965	0.4509	0.39457	-0.572
Mof_O 	O 	0.8261	0.29399	0.46055	-0.519
Mof_O 	O 	0.9138	0.73248	0.21547	-0.557
Mof_O 	O 	0.9406	0.54618	0.26214	-0.51
Mof_O 	O 	0.8162	0.58744	0.12788	-0.48
Mof_O 	O 	0.0644	0.6074	0.1633	-0.515
Mof_O 	O 	0.1289	0.8431	0.16205	-0.48
Mof_O 	O 	0.3627	0.87253	0.1439	-0.482
Mof_O 	O 	0.3183	0.72545	0.22654	-0.485
Mof_O 	O 	0.3062	0.91297	0.27029	-0.504
Mof_O 	O 	0.4459	0.37307	0.17283	-0.499
Mof_O 	O 	0.3167	0.53707	0.12026	-0.517
Mof_O 	O 	0.5514	0.51014	0.10625	-0.524
Mof_O 	O 	0.3667	0.3987	0.03113	-0.488
Mof_Sc	Sc	0.56037	0.97855	0.87252	1.737
Mof_Sc	Sc	0.75398	0.9308	0.72095	2.004
Mof_Sc	Sc	0.03105	0.11361	0.79189	1.724
Mof_Sc	Sc	0.13449	0.85329	0.57684	1.518
Mof_P 	P 	0.29949	0.0887	0.94211	0.671
Mof_P 	P 	0.43535	0.88209	0.69266	0.666
Mof_P 	P 	0.7772	0.66149	0.70083	0.654
Mof_P 	P 	0.91979	0.0465	0.60738	0.662
Mof_F 	F 	0.7104	0.91421	0.82681	-0.762
Mof_F 	F 	0.9467	0.96615	0.77948	-0.761
Mof_O 	O 	0.3201	0.028	0.01784	-0.492
Mof_O 	O 	0.1556	0.0761	0.89586	-0.489
Mof_O 	O 	0.3965	0.0491	0.89457	-0.571
Mof_O 	O 	0.3261	0.20601	0.96055	-0.519
Mof_O 	O 	0.4138	0.76752	0.71547	-0.558
Mof_O 	O 	0.4406	0.95382	0.76214	-0.509
Mof_O 	O 	0.3162	0.91256	0.62788	-0.48
Mof_O 	O 	0.5644	0.8926	0.6633	-0.518
Mof_O 	O 	0.6289	0.6569	0.66205	-0.484
Mof_O 	O 	0.8627	0.62747	0.6439	-0.483
Mof_O 	O 	0.8183	0.77455	0.72654	-0.484
Mof_O 	O 	0.8062	0.58703	0.77029	-0.505
Mof_O 	O 	0.9459	0.12693	0.67283	-0.496
Mof_O 	O 	0.8167	0.96293	0.62026	-0.52
Mof_O 	O 	0.0514	0.98986	0.60625	-0.524
Mof_O 	O 	0.8667	0.1013	0.53113	-0.489
Mof_Sc	Sc	0.93963	0.47855	0.62748	1.741
Mof_Sc	Sc	0.74602	0.4308	0.77905	2.007
Mof_Sc	Sc	0.46895	0.61361	0.70811	1.735
Mof_Sc	Sc	0.36551	0.35329	0.92316	1.515
Mof_P 	P 	0.20051	0.5887	0.55789	0.673
Mof_P 	P 	0.06465	0.38209	0.80734	0.663
Mof_P 	P 	0.7228	0.16149	0.79917	0.654
Mof_P 	P 	0.58021	0.5465	0.89262	0.659
Mof_F 	F 	0.7896	0.41421	0.67319	-0.762
Mof_F 	F 	0.5533	0.46615	0.72052	-0.762
Mof_O 	O 	0.1799	0.528	0.48216	-0.493
Mof_O 	O 	0.3444	0.5761	0.60414	-0.488
Mof_O 	O 	0.1035	0.5491	0.60543	-0.572
Mof_O 	O 	0.1739	0.70601	0.53945	-0.519
Mof_O 	O 	0.0862	0.26752	0.78453	-0.557
Mof_O 	O 	0.0594	0.45382	0.73786	-0.51
Mof_O 	O 	0.1838	0.41256	0.87212	-0.48
Mof_O 	O 	0.9356	0.3926	0.8367	-0.515
Mof_O 	O 	0.8711	0.1569	0.83795	-0.48
Mof_O 	O 	0.6373	0.12747	0.8561	-0.482
Mof_O 	O 	0.6817	0.27455	0.77346	-0.485
Mof_O 	O 	0.6938	0.08703	0.72971	-0.504
Mof_O 	O 	0.5541	0.62693	0.82717	-0.499
Mof_O 	O 	0.6833	0.46293	0.87974	-0.517
Mof_O 	O 	0.4486	0.48986	0.89375	-0.524
Mof_O 	O 	0.6333	0.6013	0.96887	-0.488
_end
