data_functionalizedCrystal
_audit_creation_method	'EQeq! by Chris Wilmer'
_symmetry_space_group_name_H-M	'P1'
_symmetry_Int_Tables_number	1
_symmetry_cell_setting	triclinic
loop_
_symmetry_equiv_pos_as_xyz
  x,y,z
_cell_length_a	14.297
_cell_length_b	10.472
_cell_length_c	18.539
_cell_angle_alpha	90
_cell_angle_beta	114.068
_cell_angle_gamma	90
loop_
_atom_site_label
_atom_site_type_symbol
_atom_site_fract_x
_atom_site_fract_y
_atom_site_fract_z
_atom_site_charge
Mof_Cu	Cu	0.42007	0.37395	0.09131	0.946
Mof_O 	O 	0.3733	0.2472	0.0027	-0.286
Mof_O 	O 	0.2693	0.3508	0.0796	-0.282
Mof_O 	O 	0.5604	0.396	0.0792	-0.263
Mof_O 	O 	0.3837	0.5264	0.0069	-0.264
Mof_O 	O 	0.4629	0.4894	0.1845	-0.288
Mof_O 	O 	0.4732	0.2342	0.1839	-0.257
Mof_C 	C 	0.28	0.219	0.9771	0.225
Mof_C 	C 	0.5509	0.4626	0.0202	0.235
Mof_Cu	Cu	0.92007	0.87395	0.09131	0.952
Mof_O 	O 	0.8733	0.7472	0.0027	-0.278
Mof_O 	O 	0.7693	0.8508	0.0796	-0.273
Mof_O 	O 	0.0604	0.896	0.0792	-0.274
Mof_O 	O 	0.8837	0.0264	0.0069	-0.259
Mof_O 	O 	0.9629	0.9894	0.1845	-0.253
Mof_O 	O 	0.9732	0.7342	0.1839	-0.222
Mof_C 	C 	0.78	0.719	0.9771	0.23
Mof_C 	C 	0.0509	0.9626	0.0202	0.203
Mof_Cu	Cu	0.57993	0.37395	0.40869	0.947
Mof_O 	O 	0.6267	0.2472	0.4973	-0.289
Mof_O 	O 	0.7307	0.3508	0.4204	-0.271
Mof_O 	O 	0.4396	0.396	0.4208	-0.265
Mof_O 	O 	0.6163	0.5264	0.4931	-0.261
Mof_O 	O 	0.5371	0.4894	0.3155	-0.286
Mof_O 	O 	0.5268	0.2342	0.3161	-0.257
Mof_C 	C 	0.72	0.219	0.5229	0.236
Mof_C 	C 	0.4491	0.4626	0.4798	0.231
Mof_Cu	Cu	0.07993	0.87395	0.40869	0.942
Mof_O 	O 	0.1267	0.7472	0.4973	-0.299
Mof_O 	O 	0.2307	0.8508	0.4204	-0.277
Mof_O 	O 	0.9396	0.896	0.4208	-0.252
Mof_O 	O 	0.1163	0.0264	0.4931	-0.262
Mof_O 	O 	0.0371	0.9894	0.3155	-0.289
Mof_O 	O 	0.0268	0.7342	0.3161	-0.26
Mof_C 	C 	0.22	0.719	0.5229	0.236
Mof_C 	C 	0.9491	0.9626	0.4798	0.26
Mof_Cu	Cu	0.57993	0.62605	0.90869	0.947
Mof_O 	O 	0.6267	0.7528	0.9973	-0.29
Mof_O 	O 	0.7307	0.6492	0.9204	-0.27
Mof_O 	O 	0.4396	0.604	0.9208	-0.264
Mof_O 	O 	0.6163	0.4736	0.9931	-0.265
Mof_O 	O 	0.5371	0.5106	0.8155	-0.286
Mof_O 	O 	0.5268	0.7658	0.8161	-0.258
Mof_C 	C 	0.72	0.781	0.0229	0.239
Mof_C 	C 	0.4491	0.5374	0.9798	0.225
Mof_Cu	Cu	0.07993	0.12605	0.90869	0.941
Mof_O 	O 	0.1267	0.2528	0.9973	-0.303
Mof_O 	O 	0.2307	0.1492	0.9204	-0.275
Mof_O 	O 	0.9396	0.104	0.9208	-0.251
Mof_O 	O 	0.1163	0.9736	0.9931	-0.263
Mof_O 	O 	0.0371	0.0106	0.8155	-0.29
Mof_O 	O 	0.0268	0.2658	0.8161	-0.26
Mof_C 	C 	0.22	0.281	0.0229	0.244
Mof_C 	C 	0.9491	0.0374	0.9798	0.252
Mof_Cu	Cu	0.42007	0.62605	0.59131	0.947
Mof_O 	O 	0.3733	0.7528	0.5027	-0.289
Mof_O 	O 	0.2693	0.6492	0.5796	-0.279
Mof_O 	O 	0.5604	0.604	0.5792	-0.262
Mof_O 	O 	0.3837	0.4736	0.5069	-0.266
Mof_O 	O 	0.4629	0.5106	0.6845	-0.287
Mof_O 	O 	0.4732	0.7658	0.6839	-0.257
Mof_C 	C 	0.28	0.781	0.4771	0.233
Mof_C 	C 	0.5509	0.5374	0.5202	0.229
Mof_Cu	Cu	0.92007	0.12605	0.59131	0.953
Mof_O 	O 	0.8733	0.2528	0.5027	-0.279
Mof_O 	O 	0.7693	0.1492	0.5796	-0.272
Mof_O 	O 	0.0604	0.104	0.5792	-0.274
Mof_O 	O 	0.8837	0.9736	0.5069	-0.265
Mof_O 	O 	0.9629	0.0106	0.6845	-0.253
Mof_O 	O 	0.9732	0.2658	0.6839	-0.222
Mof_C 	C 	0.78	0.281	0.4771	0.234
Mof_C 	C 	0.0509	0.0374	0.5202	0.2
Mof_C 	C 	0.5	0.4335	0.25	0.236
Mof_C 	C 	0.5	0.2872	0.25	0.213
Mof_C 	C 	1.71116e-33	0.9335	0.25	0.203
Mof_C 	C 	1.71116e-33	0.7872	0.25	0.179
Mof_C 	C 	0.5	0.5665	0.75	0.236
Mof_C 	C 	0.5	0.7128	0.75	0.213
Mof_C 	C 	4.48589e-17	0.0665	0.75	0.202
Mof_C 	C 	4.48589e-17	0.2128	0.75	0.178
_end
