data_functionalizedCrystal
_audit_creation_method	'EQeq! by Chris Wilmer'
_symmetry_space_group_name_H-M	'P1'
_symmetry_Int_Tables_number	1
_symmetry_cell_setting	triclinic
loop_
_symmetry_equiv_pos_as_xyz
  x,y,z
_cell_length_a	15.5419
_cell_length_b	15.5419
_cell_length_c	26.4893
_cell_angle_alpha	90
_cell_angle_beta	90
_cell_angle_gamma	90
loop_
_atom_site_label
_atom_site_type_symbol
_atom_site_fract_x
_atom_site_fract_y
_atom_site_fract_z
_atom_site_charge
Mof_Ni	Ni	0.37036	0.15499	0.25259	1.132
Mof_Ni	Ni	0.1978	0.1556	0.31293	1.11
Mof_Ni	Ni	0.34603	0.2874	0.3317	1.121
Mof_Ni	Ni	0.0416	0.16325	0.38572	1.12
Mof_Ni	Ni	0.18522	0.29477	0.39899	1.114
Mof_Ni	Ni	0.58603	0.3281	0.17059	1.129
Mof_Ni	Ni	0.62964	0.84501	0.75259	1.131
Mof_Ni	Ni	0.8022	0.8444	0.81293	1.11
Mof_Ni	Ni	0.65397	0.7126	0.8317	1.121
Mof_Ni	Ni	0.9584	0.83675	0.88572	1.118
Mof_Ni	Ni	0.81478	0.70523	0.89899	1.113
Mof_Ni	Ni	0.41397	0.6719	0.67059	1.129
Mof_Ni	Ni	0.84501	0.37036	0.00259	1.113
Mof_Ni	Ni	0.8444	0.1978	0.06293	1.101
Mof_Ni	Ni	0.7126	0.34603	0.0817	1.12
Mof_Ni	Ni	0.83675	0.0416	0.13572	1.119
Mof_Ni	Ni	0.70523	0.18522	0.14899	1.114
Mof_Ni	Ni	0.6719	0.58603	0.92059	1.129
Mof_Ni	Ni	0.15499	0.62964	0.50259	1.131
Mof_Ni	Ni	0.1556	0.8022	0.56293	1.111
Mof_Ni	Ni	0.2874	0.65397	0.5817	1.121
Mof_Ni	Ni	0.16325	0.9584	0.63572	1.118
Mof_Ni	Ni	0.29477	0.81478	0.64899	1.113
Mof_Ni	Ni	0.3281	0.41397	0.42059	1.129
Mof_P 	P 	0.1695	0.36108	0.28153	0.568
Mof_P 	P 	0.8305	0.63892	0.78153	0.568
Mof_P 	P 	0.63892	0.1695	0.03153	0.529
Mof_P 	P 	0.36108	0.8305	0.53153	0.568
Mof_H 	H 	0.3477	0.1228	0.3476	0.228
Mof_H 	H 	0.1998	0.1284	0.4113	0.219
Mof_H 	H 	0.34	0.2483	0.4256	0.207
Mof_H 	H 	0.9103	0.1464	0.4571	0.305
Mof_H 	H 	0.5668	0.1679	0.4119	0.061
Mof_H 	H 	0.6983	0.1456	0.4437	0.09
Mof_H 	H 	0.8054	0.2023	0.3098	0.067
Mof_H 	H 	0.6523	0.8772	0.8476	0.229
Mof_H 	H 	0.8002	0.8716	0.9113	0.226
Mof_H 	H 	0.66	0.7517	0.9256	0.215
Mof_H 	H 	0.0897	0.8536	0.9571	0.315
Mof_H 	H 	0.4332	0.8321	0.9119	0.066
Mof_H 	H 	0.3017	0.8544	0.9437	0.106
Mof_H 	H 	0.1946	0.7977	0.8098	0.069
Mof_H 	H 	0.8772	0.3477	0.0976	0.229
Mof_H 	H 	0.8716	0.1998	0.1613	0.219
Mof_H 	H 	0.7517	0.34	0.1756	0.207
Mof_H 	H 	0.8536	0.9103	0.2071	0.305
Mof_H 	H 	0.8321	0.5668	0.1619	0.051
Mof_H 	H 	0.8544	0.6983	0.1937	0.098
Mof_H 	H 	0.7977	0.8054	0.0598	0.073
Mof_H 	H 	0.1228	0.6523	0.5976	0.228
Mof_H 	H 	0.1284	0.8002	0.6613	0.219
Mof_H 	H 	0.2483	0.66	0.6756	0.208
Mof_H 	H 	0.1464	0.0897	0.7071	0.307
Mof_H 	H 	0.1679	0.4332	0.6619	0.062
Mof_H 	H 	0.1456	0.3017	0.6937	0.091
Mof_H 	H 	0.2023	0.1946	0.5598	0.067
Mof_W 	W 	0.35983	0.36517	0.20659	1.327
Mof_W 	W 	0.14105	0.51865	0.37885	1.308
Mof_W 	W 	0.01882	0.53928	0.2711	1.328
Mof_W 	W 	0.9796	0.37349	0.35452	1.242
Mof_W 	W 	0.0381	0.37595	0.169	1.315
Mof_W 	W 	0.33698	0.5137	0.30107	1.289
Mof_W 	W 	0.21626	0.53156	0.19151	1.311
Mof_W 	W 	0.00377	0.21193	0.25423	1.268
Mof_W 	W 	0.18596	0.20978	0.18044	1.269
Mof_W 	W 	0.64017	0.63483	0.70659	1.328
Mof_W 	W 	0.85895	0.48135	0.87885	1.31
Mof_W 	W 	0.98118	0.46072	0.7711	1.307
Mof_W 	W 	0.0204	0.62651	0.85452	1.265
Mof_W 	W 	0.9619	0.62405	0.669	1.294
Mof_W 	W 	0.66302	0.4863	0.80107	1.289
Mof_W 	W 	0.78374	0.46844	0.69151	1.31
Mof_W 	W 	0.99623	0.78807	0.75423	1.241
Mof_W 	W 	0.81404	0.79022	0.68044	1.268
Mof_W 	W 	0.63483	0.35983	0.95659	1.389
Mof_W 	W 	0.48135	0.14105	0.12885	1.302
Mof_W 	W 	0.46072	0.01882	0.0211	1.236
Mof_W 	W 	0.62651	0.9796	0.10452	1.241
Mof_W 	W 	0.62405	0.0381	0.919	1.305
Mof_W 	W 	0.4863	0.33698	0.05107	1.216
Mof_W 	W 	0.46844	0.21626	0.94151	1.323
Mof_W 	W 	0.78807	0.00377	0.00423	1.166
Mof_W 	W 	0.79022	0.18596	0.93044	1.272
Mof_W 	W 	0.36517	0.64017	0.45659	1.328
Mof_W 	W 	0.51865	0.85895	0.62885	1.307
Mof_W 	W 	0.53928	0.98118	0.5211	1.315
Mof_W 	W 	0.37349	0.0204	0.60452	1.252
Mof_W 	W 	0.37595	0.9619	0.419	1.303
Mof_W 	W 	0.5137	0.66302	0.55107	1.289
Mof_W 	W 	0.53156	0.78374	0.44151	1.311
Mof_W 	W 	0.21193	0.99623	0.50423	1.253
Mof_W 	W 	0.20978	0.81404	0.43044	1.269
Mof_C 	C 	0.6029	0.1962	0.3407	-0.044
Mof_C 	C 	0.6146	0.1742	0.3911	-0.015
Mof_C 	C 	0.6922	0.1619	0.4101	-0.008
Mof_C 	C 	0.7651	0.1732	0.3801	-0.074
Mof_C 	C 	0.7568	0.1947	0.3298	0.021
Mof_C 	C 	0.675	0.2048	0.3092	-0.05
Mof_C 	C 	0.5142	0.2097	0.3193	0.377
Mof_C 	C 	0.6629	0.2252	0.2542	0.328
Mof_C 	C 	0.8536	0.1626	0.4029	0.424
Mof_C 	C 	0.3971	0.8038	0.8407	-0.046
Mof_C 	C 	0.3854	0.8258	0.8911	-0.008
Mof_C 	C 	0.3078	0.8381	0.9101	-0.013
Mof_C 	C 	0.2349	0.8268	0.8801	-0.066
Mof_C 	C 	0.2432	0.8053	0.8298	0.018
Mof_C 	C 	0.325	0.7952	0.8092	-0.047
Mof_C 	C 	0.4858	0.7903	0.8193	0.378
Mof_C 	C 	0.3371	0.7748	0.7542	0.327
Mof_C 	C 	0.1464	0.8374	0.9029	0.423
Mof_C 	C 	0.8038	0.6029	0.0907	-0.076
Mof_C 	C 	0.8258	0.6146	0.1411	0.011
Mof_C 	C 	0.8381	0.6922	0.1601	-0.034
Mof_C 	C 	0.8268	0.7651	0.1301	-0.055
Mof_C 	C 	0.8053	0.7568	0.0798	-0.016
Mof_C 	C 	0.7952	0.675	0.0592	-0.005
Mof_C 	C 	0.7903	0.5142	0.0693	0.384
Mof_C 	C 	0.7748	0.6629	0.0042	0.186
Mof_C 	C 	0.8374	0.8536	0.1529	0.416
Mof_C 	C 	0.1962	0.3971	0.5907	-0.044
Mof_C 	C 	0.1742	0.3854	0.6411	-0.014
Mof_C 	C 	0.1619	0.3078	0.6601	-0.008
Mof_C 	C 	0.1732	0.2349	0.6301	-0.073
Mof_C 	C 	0.1947	0.2432	0.5798	0.021
Mof_C 	C 	0.2048	0.325	0.5592	-0.049
Mof_C 	C 	0.2097	0.4858	0.5693	0.377
Mof_C 	C 	0.2252	0.3371	0.5042	0.328
Mof_C 	C 	0.1626	0.1464	0.6529	0.425
Mof_O 	O 	0.2353	0.1629	0.2361	-0.57
Mof_O 	O 	0.3227	0.1618	0.3225	-0.698
Mof_O 	O 	0.3642	0.2873	0.2561	-0.626
Mof_O 	O 	0.0693	0.168	0.3044	-0.585
Mof_O 	O 	0.1704	0.1675	0.3879	-0.681
Mof_O 	O 	0.3139	0.291	0.403	-0.698
Mof_O 	O 	0.3538	0.4223	0.3421	-0.572
Mof_O 	O 	0.0553	0.2989	0.3826	-0.594
Mof_O 	O 	0.5742	0.2003	0.15	-0.619
Mof_O 	O 	0.2095	0.2967	0.3191	-0.598
Mof_O 	O 	0.4908	0.1605	0.2844	-0.412
Mof_O 	O 	0.4711	0.2651	0.3414	-0.409
Mof_O 	O 	0.6147	0.2894	0.2428	-0.38
Mof_O 	O 	0.7045	0.1772	0.2243	-0.415
Mof_O 	O 	0.9169	0.1621	0.3717	-0.423
Mof_O 	O 	0.8595	0.1511	0.4493	-0.505
Mof_O 	O 	0.4552	0.3448	0.1742	-0.5
Mof_O 	O 	0.29	0.5765	0.2418	-0.432
Mof_O 	O 	0.1109	0.2899	0.1418	-0.432
Mof_O 	O 	0.2729	0.2943	0.1745	-0.477
Mof_O 	O 	0.9527	0.6222	0.2542	-0.362
Mof_O 	O 	0.2131	0.1399	0.1326	-0.326
Mof_O 	O 	0.0722	0.5848	0.3294	-0.431
Mof_O 	O 	0.2365	0.5491	0.3355	-0.471
Mof_O 	O 	0.9169	0.1446	0.2517	-0.362
Mof_O 	O 	0.1064	0.4216	0.3088	-0.433
Mof_O 	O 	0.0755	0.163	0.2024	-0.437
Mof_O 	O 	0.8869	0.3609	0.3879	-0.376
Mof_O 	O 	0.0357	0.4658	0.3962	-0.471
Mof_O 	O 	0.1217	0.5647	0.2349	-0.463
Mof_O 	O 	0.4085	0.1505	0.1785	-0.501
Mof_O 	O 	0.2383	0.4178	0.2567	-0.44
Mof_O 	O 	0.9669	0.291	0.1979	-0.469
Mof_O 	O 	0.0003	0.4554	0.219	-0.479
Mof_O 	O 	0.3085	0.4604	0.1686	-0.438
Mof_O 	O 	0.1369	0.4513	0.1649	-0.482
Mof_O 	O 	0.98	0.4078	0.1177	-0.418
Mof_O 	O 	0.1195	0.3119	0.24	-0.439
Mof_O 	O 	0.4118	0.5883	0.3201	-0.334
Mof_O 	O 	0.9628	0.3039	0.2969	-0.477
Mof_O 	O 	0.4023	0.4531	0.2494	-0.46
Mof_O 	O 	0.9451	0.4733	0.3122	-0.442
Mof_O 	O 	0.2165	0.6118	0.1476	-0.37
Mof_O 	O 	0.3779	0.0226	0.251	-0.254
Mof_O 	O 	0.1927	0.0214	0.3116	-0.237
Mof_O 	O 	0.0438	0.0284	0.3905	-0.225
Mof_O 	O 	0.0231	0.1822	0.4622	-0.282
Mof_O 	O 	0.6003	0.457	0.1882	-0.236
Mof_O 	O 	0.7647	0.8371	0.7361	-0.57
Mof_O 	O 	0.6773	0.8382	0.8225	-0.698
Mof_O 	O 	0.6358	0.7127	0.7561	-0.627
Mof_O 	O 	0.9307	0.832	0.8044	-0.584
Mof_O 	O 	0.8296	0.8325	0.8879	-0.681
Mof_O 	O 	0.6861	0.709	0.903	-0.698
Mof_O 	O 	0.6462	0.5777	0.8421	-0.572
Mof_O 	O 	0.9447	0.7011	0.8826	-0.599
Mof_O 	O 	0.4258	0.7997	0.65	-0.621
Mof_O 	O 	0.7905	0.7033	0.8191	-0.599
Mof_O 	O 	0.5092	0.8395	0.7844	-0.412
Mof_O 	O 	0.5289	0.7349	0.8414	-0.407
Mof_O 	O 	0.3853	0.7106	0.7428	-0.38
Mof_O 	O 	0.2955	0.8228	0.7243	-0.416
Mof_O 	O 	0.0831	0.8379	0.8717	-0.416
Mof_O 	O 	0.1405	0.8489	0.9493	-0.491
Mof_O 	O 	0.5448	0.6552	0.6742	-0.501
Mof_O 	O 	0.71	0.4235	0.7418	-0.431
Mof_O 	O 	0.8891	0.7101	0.6418	-0.429
Mof_O 	O 	0.7271	0.7057	0.6745	-0.475
Mof_O 	O 	0.0473	0.3778	0.7542	-0.35
Mof_O 	O 	0.7869	0.8601	0.6326	-0.321
Mof_O 	O 	0.9278	0.4152	0.8294	-0.431
Mof_O 	O 	0.7635	0.4509	0.8355	-0.472
Mof_O 	O 	0.0831	0.8554	0.7517	-0.352
Mof_O 	O 	0.8936	0.5784	0.8088	-0.436
Mof_O 	O 	0.9245	0.837	0.7024	-0.437
Mof_O 	O 	0.1131	0.6391	0.8879	-0.369
Mof_O 	O 	0.9643	0.5342	0.8962	-0.47
Mof_O 	O 	0.8783	0.4353	0.7349	-0.461
Mof_O 	O 	0.5915	0.8495	0.6785	-0.502
Mof_O 	O 	0.7617	0.5822	0.7567	-0.44
Mof_O 	O 	0.0331	0.709	0.6979	-0.456
Mof_O 	O 	0.9997	0.5446	0.719	-0.481
Mof_O 	O 	0.6915	0.5396	0.6686	-0.435
Mof_O 	O 	0.8631	0.5487	0.6649	-0.48
Mof_O 	O 	0.02	0.5922	0.6177	-0.406
Mof_O 	O 	0.8805	0.6881	0.74	-0.438
Mof_O 	O 	0.5882	0.4117	0.8201	-0.333
Mof_O 	O 	0.0372	0.6961	0.7969	-0.471
Mof_O 	O 	0.5977	0.5469	0.7494	-0.459
Mof_O 	O 	0.0549	0.5267	0.8122	-0.434
Mof_O 	O 	0.7835	0.3882	0.6476	-0.365
Mof_O 	O 	0.6221	0.9774	0.751	-0.255
Mof_O 	O 	0.8073	0.9786	0.8116	-0.239
Mof_O 	O 	0.9562	0.9716	0.8905	-0.223
Mof_O 	O 	0.9769	0.8178	0.9622	-0.26
Mof_O 	O 	0.3997	0.543	0.6882	-0.233
Mof_O 	O 	0.8371	0.2353	0.9861	-0.532
Mof_O 	O 	0.8382	0.3227	0.0725	-0.703
Mof_O 	O 	0.7127	0.3642	0.0061	-0.672
Mof_O 	O 	0.832	0.0693	0.0544	-0.583
Mof_O 	O 	0.8325	0.1704	0.1379	-0.681
Mof_O 	O 	0.709	0.3139	0.153	-0.698
Mof_O 	O 	0.5777	0.3538	0.0921	-0.568
Mof_O 	O 	0.7011	0.0553	0.1326	-0.595
Mof_O 	O 	0.7997	0.5742	0.9	-0.615
Mof_O 	O 	0.7033	0.2095	0.0691	-0.599
Mof_O 	O 	0.8395	0.4908	0.0344	-0.43
Mof_O 	O 	0.7349	0.4711	0.0914	-0.417
Mof_O 	O 	0.7106	0.6147	0.9928	-0.301
Mof_O 	O 	0.8228	0.7045	0.9743	-0.332
Mof_O 	O 	0.8379	0.9169	0.1217	-0.42
Mof_O 	O 	0.8489	0.8595	0.1993	-0.503
Mof_O 	O 	0.6552	0.4552	0.9242	-0.505
Mof_O 	O 	0.4235	0.29	0.9918	-0.393
Mof_O 	O 	0.7101	0.1109	0.8918	-0.428
Mof_O 	O 	0.7057	0.2729	0.9245	-0.472
Mof_O 	O 	0.3778	0.9527	0.0042	-0.377
Mof_O 	O 	0.8601	0.2131	0.8826	-0.318
Mof_O 	O 	0.4152	0.0722	0.0794	-0.43
Mof_O 	O 	0.4509	0.2365	0.0855	-0.471
Mof_O 	O 	0.8554	0.9169	0.0017	-0.375
Mof_O 	O 	0.5784	0.1064	0.0588	-0.434
Mof_O 	O 	0.837	0.0755	0.9524	-0.404
Mof_O 	O 	0.6391	0.8869	0.1379	-0.379
Mof_O 	O 	0.5342	0.0357	0.1462	-0.473
Mof_O 	O 	0.4353	0.1217	0.9849	-0.418
Mof_O 	O 	0.8495	0.4085	0.9285	-0.481
Mof_O 	O 	0.5822	0.2383	0.0067	-0.471
Mof_O 	O 	0.709	0.9669	0.9479	-0.435
Mof_O 	O 	0.5446	0.0003	0.969	-0.44
Mof_O 	O 	0.5396	0.3085	0.9186	-0.438
Mof_O 	O 	0.5487	0.1369	0.9149	-0.477
Mof_O 	O 	0.5922	0.98	0.8677	-0.412
Mof_O 	O 	0.6881	0.1195	0.99	-0.389
Mof_O 	O 	0.4117	0.4118	0.0701	-0.341
Mof_O 	O 	0.6961	0.9628	0.0469	-0.478
Mof_O 	O 	0.5469	0.4023	0.9994	-0.423
Mof_O 	O 	0.5267	0.9451	0.0622	-0.44
Mof_O 	O 	0.3882	0.2165	0.8976	-0.362
Mof_O 	O 	0.9774	0.3779	0.001	-0.288
Mof_O 	O 	0.9786	0.1927	0.0616	-0.254
Mof_O 	O 	0.9716	0.0438	0.1405	-0.232
Mof_O 	O 	0.8178	0.0231	0.2122	-0.285
Mof_O 	O 	0.543	0.6003	0.9382	-0.223
Mof_O 	O 	0.1629	0.7647	0.4861	-0.57
Mof_O 	O 	0.1618	0.6773	0.5725	-0.698
Mof_O 	O 	0.2873	0.6358	0.5061	-0.627
Mof_O 	O 	0.168	0.9307	0.5544	-0.584
Mof_O 	O 	0.1675	0.8296	0.6379	-0.681
Mof_O 	O 	0.291	0.6861	0.653	-0.698
Mof_O 	O 	0.4223	0.6462	0.5921	-0.572
Mof_O 	O 	0.2989	0.9447	0.6326	-0.599
Mof_O 	O 	0.2003	0.4258	0.4	-0.621
Mof_O 	O 	0.2967	0.7905	0.5691	-0.598
Mof_O 	O 	0.1605	0.5092	0.5344	-0.411
Mof_O 	O 	0.2651	0.5289	0.5914	-0.409
Mof_O 	O 	0.2894	0.3853	0.4928	-0.38
Mof_O 	O 	0.1772	0.2955	0.4743	-0.415
Mof_O 	O 	0.1621	0.0831	0.6217	-0.42
Mof_O 	O 	0.1511	0.1405	0.6993	-0.504
Mof_O 	O 	0.3448	0.5448	0.4242	-0.5
Mof_O 	O 	0.5765	0.71	0.4918	-0.431
Mof_O 	O 	0.2899	0.8891	0.3918	-0.429
Mof_O 	O 	0.2943	0.7271	0.4245	-0.475
Mof_O 	O 	0.6222	0.0473	0.5042	-0.356
Mof_O 	O 	0.1399	0.7869	0.3826	-0.32
Mof_O 	O 	0.5848	0.9278	0.5794	-0.432
Mof_O 	O 	0.5491	0.7635	0.5855	-0.471
Mof_O 	O 	0.1446	0.0831	0.5017	-0.356
Mof_O 	O 	0.4216	0.8936	0.5588	-0.434
Mof_O 	O 	0.163	0.9245	0.4524	-0.436
Mof_O 	O 	0.3609	0.1131	0.6379	-0.378
Mof_O 	O 	0.4658	0.9643	0.6462	-0.477
Mof_O 	O 	0.5647	0.8783	0.4849	-0.462
Mof_O 	O 	0.1505	0.5915	0.4285	-0.501
Mof_O 	O 	0.4178	0.7617	0.5067	-0.44
Mof_O 	O 	0.291	0.0331	0.4479	-0.461
Mof_O 	O 	0.4554	0.9997	0.469	-0.48
Mof_O 	O 	0.4604	0.6915	0.4186	-0.435
Mof_O 	O 	0.4513	0.8631	0.4149	-0.481
Mof_O 	O 	0.4078	0.02	0.3677	-0.411
Mof_O 	O 	0.3119	0.8805	0.49	-0.439
Mof_O 	O 	0.5883	0.5882	0.5701	-0.333
Mof_O 	O 	0.3039	0.0372	0.5469	-0.473
Mof_O 	O 	0.4531	0.5977	0.4994	-0.459
Mof_O 	O 	0.4733	0.0549	0.5622	-0.437
Mof_O 	O 	0.6118	0.7835	0.3976	-0.365
Mof_O 	O 	0.0226	0.6221	0.501	-0.251
Mof_O 	O 	0.0214	0.8073	0.5616	-0.236
Mof_O 	O 	0.0284	0.9562	0.6405	-0.225
Mof_O 	O 	0.1822	0.9769	0.7122	-0.286
Mof_O 	O 	0.457	0.3997	0.4382	-0.234
Mof_H 	H 	0.6735	0.0214	0.255	0.308
Mof_H 	H 	0.6058	0.984	0.217	0.314
Mof_H 	H 	0.5995	0.0802	0.2344	0.316
Mof_H 	H 	0.5262	0.0409	0.3074	-0.049
Mof_H 	H 	0.5671	0.8635	0.2977	0.097
Mof_H 	H 	0.4796	0.899	0.3179	0.132
Mof_H 	H 	0.4196	0.8448	0.2445	0.18
Mof_H 	H 	0.462	0.9124	0.2158	0.178
Mof_H 	H 	0.5028	0.8288	0.2213	0.169
Mof_H 	H 	0.6804	0.9812	0.3015	0.156
Mof_H 	H 	0.6296	0.9637	0.3464	0.168
Mof_H 	H 	0.634	0.9004	0.3061	0.168
Mof_C 	C 	0.6143	0.0229	0.2447	-0.867
Mof_C 	C 	0.557	0.996	0.289	0.355
Mof_C 	C 	0.52	0.903	0.2903	-0.228
Mof_N 	N 	0.47	0.868	0.2365	-0.351
Mof_N 	N 	0.633	0.956	0.313	-0.408
Mof_H 	H 	0.3265	0.9786	0.755	0.316
Mof_H 	H 	0.3942	0.016	0.717	0.326
Mof_H 	H 	0.4005	0.9198	0.7344	0.325
Mof_H 	H 	0.4738	0.9591	0.8074	-0.056
Mof_H 	H 	0.4329	0.1365	0.7977	0.099
Mof_H 	H 	0.5204	0.101	0.8179	0.135
Mof_H 	H 	0.5804	0.1552	0.7445	0.181
Mof_H 	H 	0.538	0.0876	0.7158	0.179
Mof_H 	H 	0.4972	0.1712	0.7213	0.17
Mof_H 	H 	0.3196	0.0188	0.8015	0.159
Mof_H 	H 	0.3704	0.0363	0.8464	0.172
Mof_H 	H 	0.366	0.0996	0.8061	0.17
Mof_C 	C 	0.3857	0.9771	0.7447	-0.9
Mof_C 	C 	0.443	0.004	0.789	0.374
Mof_C 	C 	0.48	0.097	0.7903	-0.236
Mof_N 	N 	0.53	0.132	0.7365	-0.352
Mof_N 	N 	0.367	0.044	0.813	-0.413
Mof_H 	H 	0.9786	0.6735	0.005	0.134
Mof_H 	H 	0.016	0.6058	0.967	0.202
Mof_H 	H 	0.9198	0.5995	0.9844	0.205
Mof_H 	H 	0.9591	0.5262	0.0574	0.001
Mof_H 	H 	0.1365	0.5671	0.0477	0.073
Mof_H 	H 	0.101	0.4796	0.0679	0.114
Mof_H 	H 	0.1552	0.4196	0.9945	0.204
Mof_H 	H 	0.0876	0.462	0.9658	0.199
Mof_H 	H 	0.1712	0.5028	0.9713	0.185
Mof_H 	H 	0.0188	0.6804	0.0515	0.156
Mof_H 	H 	0.0363	0.6296	0.0964	0.166
Mof_H 	H 	0.0996	0.634	0.0561	0.158
Mof_C 	C 	0.9771	0.6143	0.9947	-0.437
Mof_C 	C 	0.004	0.557	0.039	0.183
Mof_C 	C 	0.097	0.52	0.0403	-0.186
Mof_N 	N 	0.132	0.47	0.9865	-0.355
Mof_N 	N 	0.044	0.633	0.063	-0.386
Mof_H 	H 	0.0214	0.3265	0.505	0.294
Mof_H 	H 	0.984	0.3942	0.467	0.296
Mof_H 	H 	0.0802	0.4005	0.4844	0.301
Mof_H 	H 	0.0409	0.4738	0.5574	-0.037
Mof_H 	H 	0.8635	0.4329	0.5477	0.093
Mof_H 	H 	0.899	0.5204	0.5679	0.127
Mof_H 	H 	0.8448	0.5804	0.4945	0.18
Mof_H 	H 	0.9124	0.538	0.4658	0.178
Mof_H 	H 	0.8288	0.4972	0.4713	0.17
Mof_H 	H 	0.9812	0.3196	0.5515	0.154
Mof_H 	H 	0.9637	0.3704	0.5964	0.166
Mof_H 	H 	0.9004	0.366	0.5561	0.168
Mof_C 	C 	0.0229	0.3857	0.4947	-0.815
Mof_C 	C 	0.996	0.443	0.539	0.326
Mof_C 	C 	0.903	0.48	0.5403	-0.216
Mof_N 	N 	0.868	0.53	0.4865	-0.353
Mof_N 	N 	0.956	0.367	0.563	-0.404
_end
