data_functionalizedCrystal
_audit_creation_method	'EQeq! by Chris Wilmer'
_symmetry_space_group_name_H-M	'P1'
_symmetry_Int_Tables_number	1
_symmetry_cell_setting	triclinic
loop_
_symmetry_equiv_pos_as_xyz
  x,y,z
_cell_length_a	9.6691
_cell_length_b	17.4598
_cell_length_c	20.4487
_cell_angle_alpha	90
_cell_angle_beta	94.891
_cell_angle_gamma	90
loop_
_atom_site_label
_atom_site_type_symbol
_atom_site_fract_x
_atom_site_fract_y
_atom_site_fract_z
_atom_site_charge
Mof_Cu	Cu	0.3	0.50752	0.52443	0.908
Mof_Cu	Cu	0.99985	0.47758	0.42703	0.924
Mof_O 	O 	0.3135	0.903	0.08153	-0.457
Mof_O 	O 	0.1087	0.9016	0.12555	-0.442
Mof_O 	O 	0.0481	0.5562	0.3293	-0.356
Mof_O 	O 	0.8771	0.5644	0.39258	-0.459
Mof_O 	O 	0.1213	0.5394	0.48474	-0.703
Mof_H 	H 	0.124	0.582	0.465	0.264
Mof_N 	N 	0.2779	0.411	0.46916	-0.188
Mof_N 	N 	0.1506	0.3971	0.43645	-0.184
Mof_N 	N 	0.2845	0.3003	0.4201	-0.113
Mof_N 	N 	0.4589	0.0364	0.08032	-0.189
Mof_N 	N 	0.5803	0.0643	0.0582	-0.16
Mof_N 	N 	0.583	0.0827	0.164	-0.107
Mof_C 	C 	0.3565	0.3523	0.4582	0.091
Mof_H 	H 	0.4488	0.3471	0.4744	0.002
Mof_C 	C 	0.157	0.3308	0.4086	0.087
Mof_H 	H 	0.0835	0.3074	0.3841	0.013
Mof_C 	C 	0.3332	0.2271	0.3952	-0.188
Mof_H 	H 	0.2573	0.1906	0.3932	0.084
Mof_H 	H 	0.4065	0.2074	0.426	0.081
Mof_C 	C 	0.3868	0.2329	0.3284	0.187
Mof_C 	C 	0.3554	0.2926	0.2855	-0.243
Mof_H 	H 	0.2981	0.3321	0.2973	0.124
Mof_C 	C 	0.4093	0.2938	0.2247	0.14
Mof_H 	H 	0.3869	0.3338	0.1957	-0.027
Mof_C 	C 	0.4961	0.2358	0.2071	-0.247
Mof_H 	H 	0.534	0.2376	0.1668	0.117
Mof_C 	C 	0.5267	0.1749	0.2493	0.196
Mof_C 	C 	0.4721	0.1738	0.3092	-0.275
Mof_H 	H 	0.4924	0.1328	0.3375	0.113
Mof_C 	C 	0.6229	0.1112	0.231	-0.204
Mof_H 	H 	0.7175	0.1301	0.2335	0.107
Mof_H 	H 	0.6193	0.0694	0.2621	0.093
Mof_C 	C 	0.4626	0.0477	0.1433	0.092
Mof_H 	H 	0.3933	0.0338	0.1698	-0
Mof_C 	C 	0.6517	0.0924	0.1099	0.08
Mof_H 	H 	0.738	0.1158	0.1094	-0.002
Mof_C 	C 	0.2273	0.8753	0.1176	0.478
Mof_C 	C 	0.2753	0.8031	0.1532	-0.494
Mof_H 	H 	0.3546	0.8157	0.1836	0.187
Mof_H 	H 	0.3069	0.7674	0.1213	0.179
Mof_C 	C 	0.1683	0.763	0.191	0.186
Mof_C 	C 	0.1408	0.7877	0.2512	-0.114
Mof_H 	H 	0.188	0.8298	0.2699	0.072
Mof_C 	C 	0.0413	0.75	0.2857	-0.121
Mof_H 	H 	0.0239	0.768	0.327	0.068
Mof_C 	C 	0.9706	0.6892	0.2612	0.182
Mof_C 	C 	0.9993	0.6644	0.2005	-0.104
Mof_H 	H 	0.9521	0.6221	0.1822	0.065
Mof_C 	C 	0.0973	0.7007	0.1653	-0.125
Mof_H 	H 	0.1147	0.6825	0.124	0.065
Mof_C 	C 	0.8688	0.6448	0.2991	-0.484
Mof_H 	H 	0.8191	0.6804	0.325	0.181
Mof_H 	H 	0.8014	0.62	0.2681	0.178
Mof_C 	C 	0.9372	0.5854	0.3436	0.447
Mof_Cu	Cu	0.7	0.00752	0.97557	0.903
Mof_Cu	Cu	0.00015	0.97758	0.07297	0.918
Mof_O 	O 	0.6865	0.403	0.41847	-0.456
Mof_O 	O 	0.8913	0.4016	0.37445	-0.44
Mof_O 	O 	0.9519	0.0562	0.1707	-0.351
Mof_O 	O 	0.1229	0.0644	0.10742	-0.455
Mof_O 	O 	0.8787	0.0394	0.01526	-0.697
Mof_H 	H 	0.876	0.082	0.035	0.264
Mof_N 	N 	0.7221	0.911	0.03084	-0.19
Mof_N 	N 	0.8494	0.8971	0.06355	-0.184
Mof_N 	N 	0.7155	0.8003	0.0799	-0.113
Mof_N 	N 	0.5411	0.5364	0.41968	-0.191
Mof_N 	N 	0.4197	0.5643	0.4418	-0.162
Mof_N 	N 	0.417	0.5827	0.336	-0.107
Mof_C 	C 	0.6435	0.8523	0.0418	0.09
Mof_H 	H 	0.5512	0.8471	0.0256	0.001
Mof_C 	C 	0.843	0.8308	0.0914	0.086
Mof_H 	H 	0.9165	0.8074	0.1159	0.014
Mof_C 	C 	0.6668	0.7271	0.1048	-0.188
Mof_H 	H 	0.7427	0.6906	0.1068	0.084
Mof_H 	H 	0.5935	0.7074	0.074	0.081
Mof_C 	C 	0.6132	0.7329	0.1716	0.186
Mof_C 	C 	0.6446	0.7926	0.2145	-0.243
Mof_H 	H 	0.7019	0.8321	0.2027	0.124
Mof_C 	C 	0.5907	0.7938	0.2753	0.14
Mof_H 	H 	0.6131	0.8338	0.3043	-0.027
Mof_C 	C 	0.5039	0.7358	0.2929	-0.247
Mof_H 	H 	0.466	0.7376	0.3332	0.117
Mof_C 	C 	0.4733	0.6749	0.2507	0.195
Mof_C 	C 	0.5279	0.6738	0.1908	-0.275
Mof_H 	H 	0.5076	0.6328	0.1625	0.112
Mof_C 	C 	0.3771	0.6112	0.269	-0.204
Mof_H 	H 	0.2825	0.6301	0.2665	0.106
Mof_H 	H 	0.3807	0.5694	0.2379	0.092
Mof_C 	C 	0.5374	0.5477	0.3567	0.091
Mof_H 	H 	0.6067	0.5338	0.3302	-0.001
Mof_C 	C 	0.3483	0.5924	0.3901	0.079
Mof_H 	H 	0.262	0.6158	0.3906	-0.003
Mof_C 	C 	0.7727	0.3753	0.3824	0.478
Mof_C 	C 	0.7247	0.3031	0.3468	-0.494
Mof_H 	H 	0.6454	0.3157	0.3164	0.187
Mof_H 	H 	0.6931	0.2674	0.3787	0.179
Mof_C 	C 	0.8317	0.263	0.309	0.187
Mof_C 	C 	0.8592	0.2877	0.2488	-0.115
Mof_H 	H 	0.812	0.3298	0.2301	0.073
Mof_C 	C 	0.9587	0.25	0.2143	-0.115
Mof_H 	H 	0.9761	0.268	0.173	0.068
Mof_C 	C 	0.0294	0.1892	0.2388	0.177
Mof_C 	C 	0.0007	0.1644	0.2995	-0.106
Mof_H 	H 	0.0479	0.1221	0.3178	0.066
Mof_C 	C 	0.9027	0.2007	0.3347	-0.122
Mof_H 	H 	0.8853	0.1825	0.376	0.066
Mof_C 	C 	0.1312	0.1448	0.2009	-0.48
Mof_H 	H 	0.1809	0.1804	0.175	0.179
Mof_H 	H 	0.1986	0.12	0.2319	0.177
Mof_C 	C 	0.0628	0.0854	0.1564	0.443
Mof_Cu	Cu	0.7	0.49248	0.47557	0.907
Mof_Cu	Cu	0.00015	0.52242	0.57297	0.923
Mof_O 	O 	0.6865	0.097	0.91847	-0.458
Mof_O 	O 	0.8913	0.0984	0.87445	-0.443
Mof_O 	O 	0.9519	0.4438	0.6707	-0.356
Mof_O 	O 	0.1229	0.4356	0.60742	-0.459
Mof_O 	O 	0.8787	0.4606	0.51526	-0.703
Mof_H 	H 	0.876	0.418	0.535	0.264
Mof_N 	N 	0.7221	0.589	0.53084	-0.188
Mof_N 	N 	0.8494	0.6029	0.56355	-0.184
Mof_N 	N 	0.7155	0.6997	0.5799	-0.113
Mof_N 	N 	0.5411	0.9636	0.91968	-0.189
Mof_N 	N 	0.4197	0.9357	0.9418	-0.16
Mof_N 	N 	0.417	0.9173	0.836	-0.107
Mof_C 	C 	0.6435	0.6477	0.5418	0.091
Mof_H 	H 	0.5512	0.6529	0.5256	0.002
Mof_C 	C 	0.843	0.6692	0.5914	0.087
Mof_H 	H 	0.9165	0.6926	0.6159	0.013
Mof_C 	C 	0.6668	0.7729	0.6048	-0.188
Mof_H 	H 	0.7427	0.8094	0.6068	0.084
Mof_H 	H 	0.5935	0.7926	0.574	0.081
Mof_C 	C 	0.6132	0.7671	0.6716	0.187
Mof_C 	C 	0.6446	0.7074	0.7145	-0.243
Mof_H 	H 	0.7019	0.6679	0.7027	0.124
Mof_C 	C 	0.5907	0.7062	0.7753	0.14
Mof_H 	H 	0.6131	0.6662	0.8043	-0.027
Mof_C 	C 	0.5039	0.7642	0.7929	-0.247
Mof_H 	H 	0.466	0.7624	0.8332	0.117
Mof_C 	C 	0.4733	0.8251	0.7507	0.196
Mof_C 	C 	0.5279	0.8262	0.6908	-0.275
Mof_H 	H 	0.5076	0.8672	0.6625	0.113
Mof_C 	C 	0.3771	0.8888	0.769	-0.204
Mof_H 	H 	0.2825	0.8699	0.7665	0.107
Mof_H 	H 	0.3807	0.9306	0.7379	0.093
Mof_C 	C 	0.5374	0.9523	0.8567	0.092
Mof_H 	H 	0.6067	0.9662	0.8302	-0
Mof_C 	C 	0.3483	0.9076	0.8901	0.08
Mof_H 	H 	0.262	0.8842	0.8906	-0.002
Mof_C 	C 	0.7727	0.1247	0.8824	0.478
Mof_C 	C 	0.7247	0.1969	0.8468	-0.494
Mof_H 	H 	0.6454	0.1843	0.8164	0.187
Mof_H 	H 	0.6931	0.2326	0.8787	0.179
Mof_C 	C 	0.8317	0.237	0.809	0.186
Mof_C 	C 	0.8592	0.2123	0.7488	-0.114
Mof_H 	H 	0.812	0.1702	0.7301	0.072
Mof_C 	C 	0.9587	0.25	0.7143	-0.121
Mof_H 	H 	0.9761	0.232	0.673	0.068
Mof_C 	C 	0.0294	0.3108	0.7388	0.182
Mof_C 	C 	0.0007	0.3356	0.7995	-0.104
Mof_H 	H 	0.0479	0.3779	0.8178	0.065
Mof_C 	C 	0.9027	0.2993	0.8347	-0.125
Mof_H 	H 	0.8853	0.3175	0.876	0.065
Mof_C 	C 	0.1312	0.3552	0.7009	-0.484
Mof_H 	H 	0.1809	0.3196	0.675	0.181
Mof_H 	H 	0.1986	0.38	0.7319	0.178
Mof_C 	C 	0.0628	0.4146	0.6564	0.447
Mof_Cu	Cu	0.3	0.99248	0.02443	0.903
Mof_Cu	Cu	0.99985	0.02242	0.92703	0.918
Mof_O 	O 	0.3135	0.597	0.58153	-0.456
Mof_O 	O 	0.1087	0.5984	0.62555	-0.44
Mof_O 	O 	0.0481	0.9438	0.8293	-0.351
Mof_O 	O 	0.8771	0.9356	0.89258	-0.455
Mof_O 	O 	0.1213	0.9606	0.98474	-0.697
Mof_H 	H 	0.124	0.918	0.965	0.264
Mof_N 	N 	0.2779	0.089	0.96916	-0.19
Mof_N 	N 	0.1506	0.1029	0.93645	-0.184
Mof_N 	N 	0.2845	0.1997	0.9201	-0.113
Mof_N 	N 	0.4589	0.4636	0.58032	-0.191
Mof_N 	N 	0.5803	0.4357	0.5582	-0.162
Mof_N 	N 	0.583	0.4173	0.664	-0.107
Mof_C 	C 	0.3565	0.1477	0.9582	0.09
Mof_H 	H 	0.4488	0.1529	0.9744	0.001
Mof_C 	C 	0.157	0.1692	0.9086	0.086
Mof_H 	H 	0.0835	0.1926	0.8841	0.014
Mof_C 	C 	0.3332	0.2729	0.8952	-0.188
Mof_H 	H 	0.2573	0.3094	0.8932	0.084
Mof_H 	H 	0.4065	0.2926	0.926	0.081
Mof_C 	C 	0.3868	0.2671	0.8284	0.186
Mof_C 	C 	0.3554	0.2074	0.7855	-0.243
Mof_H 	H 	0.2981	0.1679	0.7973	0.124
Mof_C 	C 	0.4093	0.2062	0.7247	0.14
Mof_H 	H 	0.3869	0.1662	0.6957	-0.027
Mof_C 	C 	0.4961	0.2642	0.7071	-0.247
Mof_H 	H 	0.534	0.2624	0.6668	0.117
Mof_C 	C 	0.5267	0.3251	0.7493	0.195
Mof_C 	C 	0.4721	0.3262	0.8092	-0.275
Mof_H 	H 	0.4924	0.3672	0.8375	0.112
Mof_C 	C 	0.6229	0.3888	0.731	-0.204
Mof_H 	H 	0.7175	0.3699	0.7335	0.106
Mof_H 	H 	0.6193	0.4306	0.7621	0.092
Mof_C 	C 	0.4626	0.4523	0.6433	0.091
Mof_H 	H 	0.3933	0.4662	0.6698	-0.001
Mof_C 	C 	0.6517	0.4076	0.6099	0.079
Mof_H 	H 	0.738	0.3842	0.6094	-0.003
Mof_C 	C 	0.2273	0.6247	0.6176	0.478
Mof_C 	C 	0.2753	0.6969	0.6532	-0.494
Mof_H 	H 	0.3546	0.6843	0.6836	0.187
Mof_H 	H 	0.3069	0.7326	0.6213	0.179
Mof_C 	C 	0.1683	0.737	0.691	0.187
Mof_C 	C 	0.1408	0.7123	0.7512	-0.115
Mof_H 	H 	0.188	0.6702	0.7699	0.073
Mof_C 	C 	0.0413	0.75	0.7857	-0.115
Mof_H 	H 	0.0239	0.732	0.827	0.068
Mof_C 	C 	0.9706	0.8108	0.7612	0.177
Mof_C 	C 	0.9993	0.8356	0.7005	-0.106
Mof_H 	H 	0.9521	0.8779	0.6822	0.066
Mof_C 	C 	0.0973	0.7993	0.6653	-0.122
Mof_H 	H 	0.1147	0.8175	0.624	0.066
Mof_C 	C 	0.8688	0.8552	0.7991	-0.48
Mof_H 	H 	0.8191	0.8196	0.825	0.179
Mof_H 	H 	0.8014	0.88	0.7681	0.177
Mof_C 	C 	0.9372	0.9146	0.8436	0.443
_end
