data_functionalizedCrystal
_audit_creation_method	'EQeq! by Chris Wilmer'
_symmetry_space_group_name_H-M	'P1'
_symmetry_Int_Tables_number	1
_symmetry_cell_setting	triclinic
loop_
_symmetry_equiv_pos_as_xyz
  x,y,z
_cell_length_a	11.072
_cell_length_b	12.676
_cell_length_c	16.022
_cell_angle_alpha	100.291
_cell_angle_beta	105.884
_cell_angle_gamma	95.927
loop_
_atom_site_label
_atom_site_type_symbol
_atom_site_fract_x
_atom_site_fract_y
_atom_site_fract_z
_atom_site_charge
Mof_Eu	Eu	0.00183	0.75874	0.38251	1.928
Mof_Eu	Eu	0.44208	0.25877	0.87204	1.938
Mof_O 	O 	0.0889	0.1205	0.1003	-0.262
Mof_O 	O 	0.9045	0.9245	0.3296	-0.759
Mof_O 	O 	0.1123	0.9367	0.3762	-0.745
Mof_O 	O 	0.0069	0.2977	0.4746	-0.485
Mof_O 	O 	0.0119	0.1233	0.4795	-0.891
Mof_O 	O 	0.6253	0.1814	0.8295	-0.48
Mof_O 	O 	0.6531	0.2438	0.9715	-0.677
Mof_O 	O 	0.2307	0.2768	0.8733	-0.723
Mof_O 	O 	0.055	0.2835	0.7701	-0.643
Mof_O 	O 	0.6357	0.6156	0.6099	-0.269
Mof_O 	O 	0.4038	0.4376	0.8285	-0.713
Mof_O 	O 	0.6039	0.4176	0.8701	-0.702
Mof_O 	O 	0.5361	0.6236	0.9827	-0.876
Mof_O 	O 	0.5774	0.7986	0.9911	-0.496
Mof_O 	O 	0.2208	0.7768	0.4877	-0.712
Mof_O 	O 	0.2022	0.7246	0.3462	-0.471
Mof_O 	O 	0.7856	0.712	0.3644	-0.614
Mof_O 	O 	0.6272	0.7767	0.2837	-0.685
Mof_C 	C 	0.0606	0.1411	0.1795	0.188
Mof_C 	C 	0.0464	0.0562	0.2198	-0.148
Mof_H 	H 	0.0466	0.9858	0.1908	0.082
Mof_C 	C 	0.0318	0.0757	0.3043	-0.069
Mof_C 	C 	0.0284	0.1775	0.3471	-0.189
Mof_C 	C 	0.0365	0.2636	0.3044	0.062
Mof_H 	H 	0.0293	0.3327	0.3322	-0.038
Mof_C 	C 	0.0553	0.2475	0.2194	-0.21
Mof_H 	H 	0.0638	0.3049	0.1914	0.031
Mof_C 	C 	0.0166	0.975	0.3409	0.375
Mof_C 	C 	0.0133	0.2017	0.4384	0.346
Mof_C 	C 	0.0262	0.1621	0.0286	0.131
Mof_C 	C 	0.8973	0.1668	0.0081	-0.111
Mof_H 	H 	0.8522	0.1498	0.0464	0.027
Mof_C 	C 	0.8354	0.1972	0.9301	-0.157
Mof_C 	C 	0.9047	0.2274	0.8744	0.03
Mof_H 	H 	0.8641	0.2471	0.8218	-0.013
Mof_C 	C 	0.0348	0.2273	0.8992	-0.215
Mof_C 	C 	0.0958	0.1941	0.9773	-0.093
Mof_H 	H 	0.1832	0.1941	0.9935	0.04
Mof_C 	C 	0.6954	0.2054	0.9086	0.343
Mof_C 	C 	0.1127	0.2639	0.8429	0.453
Mof_C 	C 	0.6083	0.64	0.6906	0.202
Mof_C 	C 	0.5745	0.5536	0.7246	-0.172
Mof_H 	H 	0.5642	0.483	0.6921	0.092
Mof_C 	C 	0.5558	0.5724	0.8079	-0.055
Mof_C 	C 	0.5698	0.6795	0.8566	-0.225
Mof_C 	C 	0.6037	0.7645	0.8197	0.101
Mof_H 	H 	0.6158	0.8352	0.8523	-0.024
Mof_C 	C 	0.6205	0.7484	0.7357	-0.238
Mof_H 	H 	0.6388	0.8064	0.7105	0.08
Mof_C 	C 	0.5243	0.4724	0.8397	0.36
Mof_C 	C 	0.5603	0.7004	0.9472	0.403
Mof_C 	C 	0.5799	0.6609	0.5409	0.112
Mof_C 	C 	0.4576	0.6849	0.5233	-0.074
Mof_H 	H 	0.4119	0.6773	0.5633	0.025
Mof_C 	C 	0.4025	0.7201	0.4465	-0.15
Mof_C 	C 	0.4723	0.7363	0.3888	0.071
Mof_H 	H 	0.4359	0.7609	0.3378	-0.033
Mof_C 	C 	0.5963	0.716	0.4072	-0.25
Mof_C 	C 	0.6507	0.6764	0.4822	-0.05
Mof_H 	H 	0.733	0.6603	0.4933	0.027
Mof_C 	C 	0.2681	0.7419	0.4278	0.366
Mof_C 	C 	0.6756	0.738	0.3475	0.373
Mof_K 	K 	0.2316	0.009	0.5578	3.208
Mof_K 	K 	0.7177	0.478	0.0551	2.746
Mof_O 	O 	0.444	0.998	0.496	-0.427
Mof_Eu	Eu	0.99817	0.24126	0.61749	1.929
Mof_Eu	Eu	0.55792	0.74123	0.12796	1.939
Mof_O 	O 	0.9111	0.8795	0.8997	-0.261
Mof_O 	O 	0.0955	0.0755	0.6704	-0.758
Mof_O 	O 	0.8877	0.0633	0.6238	-0.744
Mof_O 	O 	0.9931	0.7023	0.5254	-0.484
Mof_O 	O 	0.9881	0.8767	0.5205	-0.89
Mof_O 	O 	0.3747	0.8186	0.1705	-0.479
Mof_O 	O 	0.3469	0.7562	0.0285	-0.677
Mof_O 	O 	0.7693	0.7232	0.1267	-0.723
Mof_O 	O 	0.945	0.7165	0.2299	-0.643
Mof_O 	O 	0.3643	0.3844	0.3901	-0.269
Mof_O 	O 	0.5962	0.5624	0.1715	-0.713
Mof_O 	O 	0.3961	0.5824	0.1299	-0.702
Mof_O 	O 	0.4639	0.3764	0.0173	-0.876
Mof_O 	O 	0.4226	0.2014	0.0089	-0.496
Mof_O 	O 	0.7792	0.2232	0.5123	-0.712
Mof_O 	O 	0.7978	0.2754	0.6538	-0.471
Mof_O 	O 	0.2144	0.288	0.6356	-0.614
Mof_O 	O 	0.3728	0.2233	0.7163	-0.685
Mof_C 	C 	0.9394	0.8589	0.8205	0.188
Mof_C 	C 	0.9536	0.9438	0.7802	-0.148
Mof_H 	H 	0.9534	0.0142	0.8092	0.082
Mof_C 	C 	0.9682	0.9243	0.6957	-0.069
Mof_C 	C 	0.9716	0.8225	0.6529	-0.189
Mof_C 	C 	0.9635	0.7364	0.6956	0.062
Mof_H 	H 	0.9707	0.6673	0.6678	-0.038
Mof_C 	C 	0.9447	0.7525	0.7806	-0.21
Mof_H 	H 	0.9362	0.6951	0.8086	0.031
Mof_C 	C 	0.9834	0.025	0.6591	0.375
Mof_C 	C 	0.9867	0.7983	0.5616	0.346
Mof_C 	C 	0.9738	0.8379	0.9714	0.131
Mof_C 	C 	0.1027	0.8332	0.9919	-0.111
Mof_H 	H 	0.1478	0.8502	0.9536	0.027
Mof_C 	C 	0.1646	0.8028	0.0699	-0.157
Mof_C 	C 	0.0953	0.7726	0.1256	0.03
Mof_H 	H 	0.1359	0.7529	0.1782	-0.013
Mof_C 	C 	0.9652	0.7727	0.1008	-0.215
Mof_C 	C 	0.9042	0.8059	0.0227	-0.093
Mof_H 	H 	0.8168	0.8059	0.0065	0.04
Mof_C 	C 	0.3046	0.7946	0.0914	0.343
Mof_C 	C 	0.8873	0.7361	0.1571	0.453
Mof_C 	C 	0.3917	0.36	0.3094	0.202
Mof_C 	C 	0.4255	0.4464	0.2754	-0.172
Mof_H 	H 	0.4358	0.517	0.3079	0.092
Mof_C 	C 	0.4442	0.4276	0.1921	-0.055
Mof_C 	C 	0.4302	0.3205	0.1434	-0.225
Mof_C 	C 	0.3963	0.2355	0.1803	0.101
Mof_H 	H 	0.3842	0.1648	0.1477	-0.024
Mof_C 	C 	0.3795	0.2516	0.2643	-0.238
Mof_H 	H 	0.3612	0.1936	0.2895	0.08
Mof_C 	C 	0.4757	0.5276	0.1603	0.36
Mof_C 	C 	0.4397	0.2996	0.0528	0.403
Mof_C 	C 	0.4201	0.3391	0.4591	0.112
Mof_C 	C 	0.5424	0.3151	0.4767	-0.074
Mof_H 	H 	0.5881	0.3227	0.4367	0.025
Mof_C 	C 	0.5975	0.2799	0.5535	-0.15
Mof_C 	C 	0.5277	0.2637	0.6112	0.071
Mof_H 	H 	0.5641	0.2391	0.6622	-0.033
Mof_C 	C 	0.4037	0.284	0.5928	-0.25
Mof_C 	C 	0.3493	0.3236	0.5178	-0.05
Mof_H 	H 	0.267	0.3397	0.5067	0.027
Mof_C 	C 	0.7319	0.2581	0.5722	0.366
Mof_C 	C 	0.3244	0.262	0.6525	0.373
Mof_K 	K 	0.7684	0.991	0.4422	3.208
Mof_K 	K 	0.2823	0.522	0.9449	2.746
Mof_O 	O 	0.556	0.002	0.504	-0.427
_end
