data_functionalizedCrystal
_audit_creation_method	'EQeq! by Chris Wilmer'
_symmetry_space_group_name_H-M	'P1'
_symmetry_Int_Tables_number	1
_symmetry_cell_setting	triclinic
loop_
_symmetry_equiv_pos_as_xyz
  x,y,z
_cell_length_a	21.21
_cell_length_b	36.41
_cell_length_c	19.419
_cell_angle_alpha	90
_cell_angle_beta	94.425
_cell_angle_gamma	90
loop_
_atom_site_label
_atom_site_type_symbol
_atom_site_fract_x
_atom_site_fract_y
_atom_site_fract_z
_atom_site_charge
Mof_C 	C 	0.7602	0.5492	0.7232	0.249
Mof_H 	H 	0.7906	0.5551	0.7586	-0.041
Mof_C 	C 	0.252	0.2081	0.0078	-0.261
Mof_H 	H 	0.2186	0.2211	0.0244	0.155
Mof_C 	C 	0.2287	0.1865	0.1494	0.141
Mof_C 	C 	0.2619	0.20756	0.9385	0.162
Mof_H 	H 	0.2347	0.2213	0.9088	-0.028
Mof_C 	C 	0.3439	0.1703	0.0264	-0.268
Mof_H 	H 	0.3737	0.158	0.0554	0.127
Mof_C 	C 	0.2942	0.18827	0.0519	0.245
Mof_C 	C 	0.3479	0.17116	0.9573	0.156
Mof_H 	H 	0.3812	0.1585	0.9398	-0.021
Mof_C 	C 	0.0986	0.21174	0.4802	0.321
Mof_C 	C 	0.0422	0.23407	0.4898	-0.122
Mof_C 	C 	0.0465	0.27185	0.5006	0.058
Mof_H 	H 	0.086	0.2831	0.5029	0.033
Mof_C 	C 	0.9338	0.2769	0.5058	0.095
Mof_C 	C 	0.9941	0.29261	0.5078	-0.148
Mof_H 	H 	0.9984	0.3178	0.5141	0.085
Mof_C 	C 	0.3796	0.22678	0.5475	-0.209
Mof_C 	C 	0.325	0.20291	0.5525	0.465
Mof_C 	C 	0.4613	0.2656	0.6012	-0.198
Mof_H 	H 	0.4807	0.276	0.6411	0.103
Mof_C 	C 	0.1686	0.16967	0.3196	0.086
Mof_H 	H 	0.1347	0.1576	0.3371	0.002
Mof_C 	C 	0.1732	0.16967	0.2498	-0.123
Mof_H 	H 	0.1423	0.1583	0.2207	0.09
Mof_C 	C 	0.5399	0.29786	0.5345	-0.093
Mof_C 	C 	0.454	0.25809	0.4796	-0.202
Mof_H 	H 	0.4681	0.2635	0.4366	0.107
Mof_C 	C 	0.4098	0.24295	0.6061	0.123
Mof_H 	H 	0.395	0.2384	0.6491	0.005
Mof_C 	C 	0.9833	0.21828	0.4847	0.054
Mof_H 	H 	0.9791	0.1934	0.4744	0.026
Mof_C 	C 	0.4025	0.2349	0.4835	0.126
Mof_H 	H 	0.3831	0.2247	0.4434	-0.005
Mof_C 	C 	0.9291	0.2393	0.495	-0.141
Mof_H 	H 	0.8899	0.2279	0.4944	0.08
Mof_C 	C 	0.4846	0.27315	0.5375	0.144
Mof_C 	C 	0.6496	0.34031	0.5295	0.155
Mof_C 	C 	0.224	0.18666	0.2229	0.044
Mof_C 	C 	0.2584	0.20362	0.3376	0.085
Mof_H 	H 	0.288	0.2153	0.368	-0.005
Mof_C 	C 	0.2661	0.20506	0.2684	-0.135
Mof_H 	H 	0.2993	0.2183	0.2521	0.086
Mof_C 	C 	0.8706	0.33511	0.4909	0.028
Mof_H 	H 	0.9046	0.3464	0.4719	0.021
Mof_C 	C 	0.7598	0.44152	0.6349	0.11
Mof_H 	H 	0.7917	0.4478	0.6683	-0.012
Mof_C 	C 	0.765	0.33918	0.5275	0.145
Mof_C 	C 	0.7158	0.50485	0.6421	0.266
Mof_C 	C 	0.5827	0.29213	0.4839	0.05
Mof_H 	H 	0.5743	0.2738	0.4511	0.016
Mof_C 	C 	0.8771	0.29888	0.5131	-0.068
Mof_C 	C 	0.5518	0.32614	0.5772	0.053
Mof_H 	H 	0.5225	0.3318	0.6087	0.008
Mof_C 	C 	0.7124	0.39568	0.5575	0.186
Mof_C 	C 	0.6369	0.31288	0.4813	-0.172
Mof_H 	H 	0.6646	0.3084	0.4474	0.094
Mof_C 	C 	0.7159	0.46694	0.6132	-0.167
Mof_C 	C 	0.7175	0.57407	0.7026	-0.319
Mof_C 	C 	0.7577	0.40591	0.6074	-0.22
Mof_H 	H 	0.7879	0.3889	0.6236	0.111
Mof_C 	C 	0.7194	0.6118	0.7347	0.487
Mof_C 	C 	0.8148	0.35527	0.4959	-0.157
Mof_H 	H 	0.8111	0.379	0.4784	0.09
Mof_C 	C 	0.607	0.34811	0.5768	-0.176
Mof_H 	H 	0.6141	0.3673	0.6079	0.094
Mof_C 	C 	0.771	0.30386	0.552	-0.167
Mof_H 	H 	0.738	0.2933	0.574	0.092
Mof_C 	C 	0.6681	0.42174	0.5342	-0.216
Mof_H 	H 	0.6368	0.4155	0.5	0.109
Mof_C 	C 	0.825	0.28403	0.5447	0.032
Mof_H 	H 	0.8274	0.26	0.5609	0.017
Mof_C 	C 	0.6699	0.45656	0.5607	0.107
Mof_H 	H 	0.6402	0.4737	0.5437	-0.014
Mof_C 	C 	0.6779	0.53087	0.6207	-0.347
Mof_H 	H 	0.6486	0.526	0.5837	0.15
Mof_C 	C 	0.6783	0.56557	0.6499	0.27
Mof_H 	H 	0.6501	0.5832	0.6315	-0.048
Mof_C 	C 	0.7612	0.5147	0.694	-0.313
Mof_H 	H 	0.7924	0.498	0.7091	0.141
Mof_N 	N 	0.2852	0.18729	0.1237	-0.247
Mof_H 	H 	0.3183	0.1872	0.1522	0.133
Mof_N 	N 	0.30715	0.18896	0.91151	-0.286
Mof_N 	N 	0.21022	0.18612	0.36321	-0.249
Mof_N 	N 	0.70859	0.35972	0.5308	-0.188
Mof_O 	O 	0.09209	0.17962	0.45544	-0.349
Mof_O 	O 	0.15239	0.22491	0.49492	-0.427
Mof_O 	O 	0.1697	0.18412	0.1065	-0.189
Mof_O 	O 	0.31352	0.19172	0.60925	-0.53
Mof_O 	O 	0.29187	0.19528	0.49628	-0.502
Mof_O 	O 	0.75731	0.6166	0.78648	-0.508
Mof_O 	O 	0.68073	0.63398	0.7094	-0.533
Mof_Zn	Zn	0.20285	0.18027	0.46871	1.221
Mof_Zn	Zn	0.25375	0.1533	0.63754	1.214
Mof_C 	C 	0.7031	0.29031	0.8232	0.054
Mof_H 	H 	0.7039	0.2682	0.8473	0.01
Mof_C 	C 	0.03	0.27518	0.748	0.127
Mof_C 	C 	0.1339	0.23035	0.7375	-0.172
Mof_C 	C 	0.0608	0.25897	0.8061	-0.181
Mof_H 	H 	0.0456	0.263	0.8492	0.101
Mof_C 	C 	0.4218	0.21375	0.8001	0.317
Mof_C 	C 	0.1022	0.24486	0.6794	0.114
Mof_H 	H 	0.115	0.2389	0.636	0.018
Mof_C 	C 	0.1916	0.20561	0.7312	0.448
Mof_C 	C 	0.4787	0.23629	0.7946	-0.13
Mof_C 	C 	0.113	0.23719	0.8015	0.109
Mof_H 	H 	0.134	0.2272	0.841	0.006
Mof_C 	C 	0.4752	0.27426	0.7839	0.054
Mof_H 	H 	0.4358	0.2855	0.7783	0.019
Mof_C 	C 	0.0522	0.26786	0.6844	-0.181
Mof_H 	H 	0.0329	0.2787	0.6448	0.104
Mof_C 	C 	0.9752	0.29966	0.7551	-0.073
Mof_C 	C 	0.6484	0.30151	0.7897	-0.086
Mof_C 	C 	0.5298	0.29558	0.7815	-0.15
Mof_H 	H 	0.5267	0.3207	0.7735	0.08
Mof_C 	C 	0.8716	0.3431	0.7749	0.135
Mof_C 	C 	0.8173	0.39937	0.8166	0.155
Mof_C 	C 	0.5894	0.27874	0.7911	0.102
Mof_C 	C 	0.6479	0.33315	0.7546	0.056
Mof_H 	H 	0.6105	0.3411	0.7311	0.007
Mof_C 	C 	0.844	0.57032	0.9002	0.116
Mof_H 	H 	0.8578	0.5902	0.8753	0.003
Mof_C 	C 	0.818	0.57736	0.96	-0.201
Mof_C 	C 	0.8686	0.45745	0.8328	0.045
Mof_H 	H 	0.9013	0.4732	0.8236	0.014
Mof_C 	C 	0.9252	0.30064	0.7078	0.035
Mof_H 	H 	0.9263	0.2863	0.6683	0.021
Mof_C 	C 	0.9744	0.32219	0.8137	0.025
Mof_H 	H 	0.0091	0.3226	0.846	0.035
Mof_C 	C 	0.7565	0.34249	0.7844	0.16
Mof_C 	C 	0.7025	0.35448	0.7526	-0.188
Mof_H 	H 	0.7011	0.3768	0.7293	0.1
Mof_C 	C 	0.922	0.34388	0.8235	-0.154
Mof_H 	H 	0.9212	0.3587	0.8624	0.091
Mof_C 	C 	0.8651	0.42332	0.8019	-0.172
Mof_H 	H 	0.8946	0.4165	0.7713	0.094
Mof_C 	C 	0.8515	0.53605	0.874	-0.183
Mof_H 	H 	0.8734	0.5324	0.8349	0.097
Mof_C 	C 	0.5385	0.22072	0.8015	0.065
Mof_H 	H 	0.5418	0.1954	0.8078	0.022
Mof_C 	C 	0.8719	0.32219	0.7153	-0.155
Mof_H 	H 	0.8381	0.3225	0.6819	0.09
Mof_C 	C 	0.807	0.61511	0.9839	0.367
Mof_C 	C 	0.5924	0.24068	0.7997	-0.156
Mof_H 	H 	0.6314	0.229	0.8041	0.084
Mof_C 	C 	0.7979	0.54875	0.995	0.116
Mof_H 	H 	0.781	0.5531	0.037	0.002
Mof_C 	C 	0.8248	0.50612	0.9085	0.125
Mof_C 	C 	0.8242	0.46869	0.8772	-0.085
Mof_C 	C 	0.7768	0.44457	0.8894	0.049
Mof_H 	H 	0.746	0.4518	0.9182	0.012
Mof_C 	C 	0.8009	0.51213	0.9717	-0.186
Mof_H 	H 	0.7874	0.4927	0.998	0.097
Mof_C 	C 	0.7733	0.40985	0.8604	-0.175
Mof_H 	H 	0.7411	0.3938	0.8705	0.095
Mof_C 	C 	0.7577	0.31042	0.8228	-0.177
Mof_H 	H 	0.7946	0.3027	0.8477	0.096
Mof_N 	N 	0.81396	0.36425	0.7842	-0.178
Mof_O 	O 	0.36816	0.2272	0.78071	-0.449
Mof_O 	O 	0.22725	0.20162	0.78311	-0.513
Mof_O 	O 	0.42656	0.18184	0.82351	-0.35
Mof_O 	O 	0.19784	0.1916	0.67207	-0.474
Mof_O 	O 	0.79916	0.62168	0.04469	-0.418
Mof_O 	O 	0.80997	0.64196	0.94075	-0.546
Mof_Zn	Zn	0.31476	0.1866	0.80838	1.225
Mof_C 	C 	0.2398	0.0492	0.7768	0.247
Mof_H 	H 	0.2094	0.0551	0.7414	-0.041
Mof_C 	C 	0.748	0.7081	0.4922	-0.256
Mof_H 	H 	0.7814	0.7211	0.4756	0.153
Mof_C 	C 	0.7713	0.6865	0.3506	0.14
Mof_C 	C 	0.7381	0.70756	0.5615	0.156
Mof_H 	H 	0.7653	0.7213	0.5912	-0.028
Mof_C 	C 	0.6561	0.6703	0.4736	-0.263
Mof_H 	H 	0.6263	0.658	0.4446	0.124
Mof_C 	C 	0.7058	0.68827	0.4481	0.241
Mof_C 	C 	0.6521	0.67116	0.5427	0.15
Mof_H 	H 	0.6188	0.6585	0.5602	-0.021
Mof_C 	C 	0.9014	0.71174	0.0198	0.321
Mof_C 	C 	0.9578	0.73407	0.0102	-0.127
Mof_C 	C 	0.9535	0.77185	0.9994	0.062
Mof_H 	H 	0.914	0.7831	0.9971	0.031
Mof_C 	C 	0.0662	0.7769	0.9942	0.099
Mof_C 	C 	0.0059	0.79261	0.9922	-0.151
Mof_H 	H 	0.0016	0.8178	0.9859	0.087
Mof_C 	C 	0.6204	0.72678	0.9525	-0.208
Mof_C 	C 	0.675	0.70291	0.9475	0.467
Mof_C 	C 	0.5387	0.7656	0.8988	-0.199
Mof_H 	H 	0.5193	0.776	0.8589	0.103
Mof_C 	C 	0.8314	0.66967	0.1804	0.086
Mof_H 	H 	0.8653	0.6576	0.1629	0.002
Mof_C 	C 	0.8268	0.66967	0.2502	-0.123
Mof_H 	H 	0.8577	0.6583	0.2793	0.09
Mof_C 	C 	0.4601	0.79786	0.9655	-0.092
Mof_C 	C 	0.546	0.75809	0.0204	-0.204
Mof_H 	H 	0.5319	0.7635	0.0634	0.108
Mof_C 	C 	0.5902	0.74295	0.8939	0.124
Mof_H 	H 	0.605	0.7384	0.8509	0.005
Mof_C 	C 	0.0167	0.71828	0.0153	0.057
Mof_H 	H 	0.0209	0.6934	0.0256	0.025
Mof_C 	C 	0.5975	0.7349	0.0165	0.125
Mof_H 	H 	0.6169	0.7247	0.0566	-0.004
Mof_C 	C 	0.0709	0.7393	0.005	-0.147
Mof_H 	H 	0.1101	0.7279	0.0056	0.081
Mof_C 	C 	0.5154	0.77315	0.9625	0.146
Mof_C 	C 	0.3504	0.84031	0.9705	0.158
Mof_C 	C 	0.776	0.68666	0.2771	0.044
Mof_C 	C 	0.7416	0.70362	0.1624	0.085
Mof_H 	H 	0.712	0.7153	0.132	-0.006
Mof_C 	C 	0.7339	0.70506	0.2316	-0.135
Mof_H 	H 	0.7007	0.7183	0.2479	0.086
Mof_C 	C 	0.1294	0.83511	0.0091	0.027
Mof_H 	H 	0.0954	0.8464	0.0281	0.021
Mof_C 	C 	0.2402	0.94152	0.8651	0.108
Mof_H 	H 	0.2083	0.9478	0.8317	-0.011
Mof_C 	C 	0.235	0.83918	0.9725	0.148
Mof_C 	C 	0.2842	0.00485	0.8579	0.264
Mof_C 	C 	0.4173	0.79213	0.0161	0.049
Mof_H 	H 	0.4257	0.7738	0.0489	0.016
Mof_C 	C 	0.1229	0.79888	0.9869	-0.068
Mof_C 	C 	0.4482	0.82614	0.9228	0.054
Mof_H 	H 	0.4775	0.8318	0.8913	0.008
Mof_C 	C 	0.2876	0.89568	0.9425	0.184
Mof_C 	C 	0.3631	0.81288	0.0187	-0.174
Mof_H 	H 	0.3354	0.8084	0.0526	0.094
Mof_C 	C 	0.2841	0.96694	0.8868	-0.164
Mof_C 	C 	0.2825	0.07407	0.7974	-0.318
Mof_C 	C 	0.2423	0.90591	0.8926	-0.218
Mof_H 	H 	0.2121	0.8889	0.8764	0.11
Mof_C 	C 	0.2806	0.1118	0.7653	0.487
Mof_C 	C 	0.1852	0.85527	0.0041	-0.16
Mof_H 	H 	0.1889	0.879	0.0216	0.09
Mof_C 	C 	0.393	0.84811	0.9232	-0.177
Mof_H 	H 	0.3859	0.8673	0.8921	0.094
Mof_C 	C 	0.229	0.80386	0.948	-0.168
Mof_H 	H 	0.262	0.7933	0.926	0.093
Mof_C 	C 	0.3319	0.92174	0.9658	-0.21
Mof_H 	H 	0.3632	0.9155	-0	0.106
Mof_C 	C 	0.175	0.78403	0.9553	0.033
Mof_H 	H 	0.1726	0.76	0.9391	0.017
Mof_C 	C 	0.3301	0.95656	0.9393	0.103
Mof_H 	H 	0.3598	0.9737	0.9563	-0.012
Mof_C 	C 	0.3221	0.03087	0.8793	-0.346
Mof_H 	H 	0.3514	0.026	0.9163	0.15
Mof_C 	C 	0.3217	0.06557	0.8501	0.268
Mof_H 	H 	0.3499	0.0832	0.8685	-0.048
Mof_C 	C 	0.2388	0.0147	0.806	-0.311
Mof_H 	H 	0.2076	0.998	0.7909	0.141
Mof_N 	N 	0.7148	0.68729	0.3763	-0.247
Mof_H 	H 	0.6817	0.6872	0.3478	0.133
Mof_N 	N 	0.69285	0.68896	0.58849	-0.285
Mof_N 	N 	0.78978	0.68612	0.13679	-0.249
Mof_N 	N 	0.29141	0.85972	0.9692	-0.188
Mof_O 	O 	0.90791	0.67962	0.04456	-0.35
Mof_O 	O 	0.84761	0.72491	0.00508	-0.428
Mof_O 	O 	0.8303	0.68412	0.3935	-0.188
Mof_O 	O 	0.68648	0.69172	0.89075	-0.531
Mof_O 	O 	0.70813	0.69528	0.00372	-0.503
Mof_O 	O 	0.24269	0.1166	0.71352	-0.508
Mof_O 	O 	0.31927	0.13398	0.7906	-0.533
Mof_Zn	Zn	0.79715	0.68027	0.03129	1.221
Mof_Zn	Zn	0.74625	0.6533	0.86246	1.214
Mof_C 	C 	0.2969	0.79031	0.6768	0.054
Mof_H 	H 	0.2961	0.7682	0.6527	0.01
Mof_C 	C 	0.97	0.77518	0.752	0.127
Mof_C 	C 	0.8661	0.73035	0.7625	-0.172
Mof_C 	C 	0.9392	0.75897	0.6939	-0.18
Mof_H 	H 	0.9544	0.763	0.6508	0.1
Mof_C 	C 	0.5782	0.71375	0.6999	0.318
Mof_C 	C 	0.8978	0.74486	0.8206	0.114
Mof_H 	H 	0.885	0.7389	0.864	0.018
Mof_C 	C 	0.8084	0.70561	0.7688	0.448
Mof_C 	C 	0.5213	0.73629	0.7054	-0.13
Mof_C 	C 	0.887	0.73719	0.6985	0.109
Mof_H 	H 	0.866	0.7272	0.659	0.006
Mof_C 	C 	0.5248	0.77426	0.7161	0.054
Mof_H 	H 	0.5642	0.7855	0.7217	0.019
Mof_C 	C 	0.9478	0.76786	0.8156	-0.18
Mof_H 	H 	0.9671	0.7787	0.8552	0.104
Mof_C 	C 	0.0248	0.79966	0.7449	-0.072
Mof_C 	C 	0.3516	0.80151	0.7103	-0.086
Mof_C 	C 	0.4702	0.79558	0.7185	-0.15
Mof_H 	H 	0.4733	0.8207	0.7265	0.08
Mof_C 	C 	0.1284	0.8431	0.7251	0.135
Mof_C 	C 	0.1827	0.89937	0.6834	0.155
Mof_C 	C 	0.4106	0.77874	0.7089	0.102
Mof_C 	C 	0.3521	0.83315	0.7454	0.056
Mof_H 	H 	0.3895	0.8411	0.7689	0.007
Mof_C 	C 	0.156	0.07032	0.5998	0.112
Mof_H 	H 	0.1422	0.0902	0.6247	0.005
Mof_C 	C 	0.182	0.07736	0.54	-0.197
Mof_C 	C 	0.1314	0.95745	0.6672	0.044
Mof_H 	H 	0.0987	0.9732	0.6764	0.014
Mof_C 	C 	0.0748	0.80064	0.7922	0.035
Mof_H 	H 	0.0737	0.7863	0.8317	0.021
Mof_C 	C 	0.0256	0.82219	0.6863	0.026
Mof_H 	H 	0.9909	0.8226	0.654	0.034
Mof_C 	C 	0.2435	0.84249	0.7156	0.16
Mof_C 	C 	0.2975	0.85448	0.7474	-0.188
Mof_H 	H 	0.2989	0.8768	0.7707	0.1
Mof_C 	C 	0.078	0.84388	0.6765	-0.154
Mof_H 	H 	0.0788	0.8587	0.6376	0.091
Mof_C 	C 	0.1349	0.92332	0.6981	-0.172
Mof_H 	H 	0.1054	0.9165	0.7287	0.094
Mof_C 	C 	0.1485	0.03605	0.626	-0.18
Mof_H 	H 	0.1266	0.0324	0.6651	0.096
Mof_C 	C 	0.4615	0.72072	0.6985	0.065
Mof_H 	H 	0.4582	0.6954	0.6922	0.022
Mof_C 	C 	0.1281	0.82219	0.7847	-0.155
Mof_H 	H 	0.1619	0.8225	0.8181	0.09
Mof_C 	C 	0.193	0.11511	0.5161	0.363
Mof_C 	C 	0.4076	0.74068	0.7003	-0.156
Mof_H 	H 	0.3686	0.729	0.6959	0.084
Mof_C 	C 	0.2021	0.04875	0.505	0.109
Mof_H 	H 	0.219	0.0531	0.463	0.005
Mof_C 	C 	0.1752	0.00612	0.5915	0.122
Mof_C 	C 	0.1758	0.96869	0.6228	-0.084
Mof_C 	C 	0.2232	0.94457	0.6106	0.048
Mof_H 	H 	0.254	0.9518	0.5818	0.012
Mof_C 	C 	0.1991	0.01213	0.5283	-0.182
Mof_H 	H 	0.2126	0.9927	0.502	0.095
Mof_C 	C 	0.2267	0.90985	0.6396	-0.175
Mof_H 	H 	0.2589	0.8938	0.6295	0.095
Mof_C 	C 	0.2423	0.81042	0.6772	-0.177
Mof_H 	H 	0.2054	0.8027	0.6523	0.096
Mof_N 	N 	0.18604	0.86425	0.7158	-0.178
Mof_O 	O 	0.63184	0.7272	0.71929	-0.449
Mof_O 	O 	0.77275	0.70162	0.71689	-0.513
Mof_O 	O 	0.57344	0.68184	0.67649	-0.35
Mof_O 	O 	0.80216	0.6916	0.82793	-0.473
Mof_O 	O 	0.20084	0.12168	0.45531	-0.416
Mof_O 	O 	0.19003	0.14196	0.55925	-0.545
Mof_Zn	Zn	0.68524	0.6866	0.69162	1.225
Mof_C 	C 	0.2398	0.4508	0.2768	0.248
Mof_H 	H 	0.2094	0.4449	0.2414	-0.042
Mof_C 	C 	0.748	0.7919	0.9922	-0.252
Mof_H 	H 	0.7814	0.7789	0.9756	0.151
Mof_C 	C 	0.7713	0.8135	0.8506	0.14
Mof_C 	C 	0.7381	0.79244	0.0615	0.152
Mof_H 	H 	0.7653	0.7787	0.0912	-0.027
Mof_C 	C 	0.6561	0.8297	0.9736	-0.258
Mof_H 	H 	0.6263	0.842	0.9446	0.123
Mof_C 	C 	0.7058	0.81173	0.9481	0.238
Mof_C 	C 	0.6521	0.82884	0.0427	0.146
Mof_H 	H 	0.6188	0.8415	0.0602	-0.02
Mof_C 	C 	0.9014	0.78826	0.5198	0.32
Mof_C 	C 	0.9578	0.76593	0.5102	-0.123
Mof_C 	C 	0.9535	0.72815	0.4994	0.057
Mof_H 	H 	0.914	0.7169	0.4971	0.033
Mof_C 	C 	0.0662	0.7231	0.4942	0.095
Mof_C 	C 	0.0059	0.70739	0.4922	-0.147
Mof_H 	H 	0.0016	0.6822	0.4859	0.085
Mof_C 	C 	0.6204	0.77322	0.4525	-0.209
Mof_C 	C 	0.675	0.79709	0.4475	0.465
Mof_C 	C 	0.5387	0.7344	0.3988	-0.198
Mof_H 	H 	0.5193	0.724	0.3589	0.103
Mof_C 	C 	0.8314	0.83033	0.6804	0.086
Mof_H 	H 	0.8653	0.8424	0.6629	0.002
Mof_C 	C 	0.8268	0.83033	0.7502	-0.123
Mof_H 	H 	0.8577	0.8417	0.7793	0.09
Mof_C 	C 	0.4601	0.70214	0.4655	-0.093
Mof_C 	C 	0.546	0.74191	0.5204	-0.202
Mof_H 	H 	0.5319	0.7365	0.5634	0.107
Mof_C 	C 	0.5902	0.75705	0.3939	0.123
Mof_H 	H 	0.605	0.7616	0.3509	0.005
Mof_C 	C 	0.0167	0.78172	0.5153	0.054
Mof_H 	H 	0.0209	0.8066	0.5256	0.026
Mof_C 	C 	0.5975	0.7651	0.5165	0.126
Mof_H 	H 	0.6169	0.7753	0.5566	-0.005
Mof_C 	C 	0.0709	0.7607	0.505	-0.141
Mof_H 	H 	0.1101	0.7721	0.5056	0.08
Mof_C 	C 	0.5154	0.72685	0.4625	0.144
Mof_C 	C 	0.3504	0.65969	0.4705	0.155
Mof_C 	C 	0.776	0.81334	0.7771	0.044
Mof_C 	C 	0.7416	0.79638	0.6624	0.085
Mof_H 	H 	0.712	0.7847	0.632	-0.006
Mof_C 	C 	0.7339	0.79494	0.7316	-0.135
Mof_H 	H 	0.7007	0.7817	0.7479	0.086
Mof_C 	C 	0.1294	0.66489	0.5091	0.028
Mof_H 	H 	0.0954	0.6536	0.5281	0.021
Mof_C 	C 	0.2402	0.55848	0.3651	0.11
Mof_H 	H 	0.2083	0.5522	0.3317	-0.012
Mof_C 	C 	0.235	0.66082	0.4725	0.145
Mof_C 	C 	0.2842	0.49515	0.3579	0.266
Mof_C 	C 	0.4173	0.70787	0.5161	0.05
Mof_H 	H 	0.4257	0.7262	0.5489	0.016
Mof_C 	C 	0.1229	0.70112	0.4869	-0.068
Mof_C 	C 	0.4482	0.67386	0.4228	0.053
Mof_H 	H 	0.4775	0.6682	0.3913	0.008
Mof_C 	C 	0.2876	0.60432	0.4425	0.186
Mof_C 	C 	0.3631	0.68712	0.5187	-0.172
Mof_H 	H 	0.3354	0.6916	0.5526	0.094
Mof_C 	C 	0.2841	0.53306	0.3868	-0.167
Mof_C 	C 	0.2825	0.42593	0.2974	-0.319
Mof_C 	C 	0.2423	0.59409	0.3926	-0.22
Mof_H 	H 	0.2121	0.6111	0.3764	0.111
Mof_C 	C 	0.2806	0.3882	0.2653	0.487
Mof_C 	C 	0.1852	0.64473	0.5041	-0.157
Mof_H 	H 	0.1889	0.621	0.5216	0.09
Mof_C 	C 	0.393	0.65189	0.4232	-0.176
Mof_H 	H 	0.3859	0.6327	0.3921	0.094
Mof_C 	C 	0.229	0.69614	0.448	-0.167
Mof_H 	H 	0.262	0.7067	0.426	0.092
Mof_C 	C 	0.3319	0.57826	0.4658	-0.217
Mof_H 	H 	0.3632	0.5845	0.5	0.109
Mof_C 	C 	0.175	0.71597	0.4553	0.032
Mof_H 	H 	0.1726	0.74	0.4391	0.017
Mof_C 	C 	0.3301	0.54344	0.4393	0.107
Mof_H 	H 	0.3598	0.5263	0.4563	-0.014
Mof_C 	C 	0.3221	0.46913	0.3793	-0.348
Mof_H 	H 	0.3514	0.474	0.4163	0.15
Mof_C 	C 	0.3217	0.43443	0.3501	0.27
Mof_H 	H 	0.3499	0.4168	0.3685	-0.049
Mof_C 	C 	0.2388	0.4853	0.306	-0.313
Mof_H 	H 	0.2076	0.502	0.2909	0.141
Mof_N 	N 	0.7148	0.81271	0.8763	-0.246
Mof_H 	H 	0.6817	0.8128	0.8478	0.133
Mof_N 	N 	0.69285	0.81104	0.08849	-0.283
Mof_N 	N 	0.78978	0.81388	0.63679	-0.249
Mof_N 	N 	0.29141	0.64028	0.4692	-0.188
Mof_O 	O 	0.90791	0.82038	0.54456	-0.349
Mof_O 	O 	0.84761	0.77509	0.50508	-0.427
Mof_O 	O 	0.8303	0.81588	0.8935	-0.188
Mof_O 	O 	0.68648	0.80828	0.39075	-0.53
Mof_O 	O 	0.70813	0.80472	0.50372	-0.502
Mof_O 	O 	0.24269	0.3834	0.21352	-0.508
Mof_O 	O 	0.31927	0.36602	0.2906	-0.533
Mof_Zn	Zn	0.79715	0.81973	0.53129	1.221
Mof_Zn	Zn	0.74625	0.8467	0.36246	1.214
Mof_C 	C 	0.2969	0.70969	0.1768	0.054
Mof_H 	H 	0.2961	0.7318	0.1527	0.01
Mof_C 	C 	0.97	0.72482	0.252	0.127
Mof_C 	C 	0.8661	0.76965	0.2625	-0.172
Mof_C 	C 	0.9392	0.74103	0.1939	-0.181
Mof_H 	H 	0.9544	0.737	0.1508	0.1
Mof_C 	C 	0.5782	0.78625	0.1999	0.318
Mof_C 	C 	0.8978	0.75514	0.3206	0.114
Mof_H 	H 	0.885	0.7611	0.364	0.018
Mof_C 	C 	0.8084	0.79439	0.2688	0.448
Mof_C 	C 	0.5213	0.76371	0.2054	-0.13
Mof_C 	C 	0.887	0.76281	0.1985	0.109
Mof_H 	H 	0.866	0.7728	0.159	0.006
Mof_C 	C 	0.5248	0.72574	0.2161	0.054
Mof_H 	H 	0.5642	0.7145	0.2217	0.019
Mof_C 	C 	0.9478	0.73214	0.3156	-0.181
Mof_H 	H 	0.9671	0.7213	0.3552	0.104
Mof_C 	C 	0.0248	0.70034	0.2449	-0.073
Mof_C 	C 	0.3516	0.69849	0.2103	-0.086
Mof_C 	C 	0.4702	0.70442	0.2185	-0.15
Mof_H 	H 	0.4733	0.6793	0.2265	0.08
Mof_C 	C 	0.1284	0.6569	0.2251	0.135
Mof_C 	C 	0.1827	0.60063	0.1834	0.154
Mof_C 	C 	0.4106	0.72126	0.2089	0.102
Mof_C 	C 	0.3521	0.66685	0.2454	0.056
Mof_H 	H 	0.3895	0.6589	0.2689	0.007
Mof_C 	C 	0.156	0.42968	0.0998	0.108
Mof_H 	H 	0.1422	0.4098	0.1247	0.006
Mof_C 	C 	0.182	0.42264	0.04	-0.191
Mof_C 	C 	0.1314	0.54255	0.1672	0.043
Mof_H 	H 	0.0987	0.5268	0.1764	0.014
Mof_C 	C 	0.0748	0.69936	0.2922	0.035
Mof_H 	H 	0.0737	0.7137	0.3317	0.021
Mof_C 	C 	0.0256	0.67781	0.1863	0.025
Mof_H 	H 	0.9909	0.6774	0.154	0.035
Mof_C 	C 	0.2435	0.65751	0.2156	0.16
Mof_C 	C 	0.2975	0.64552	0.2474	-0.188
Mof_H 	H 	0.2989	0.6232	0.2707	0.1
Mof_C 	C 	0.078	0.65612	0.1765	-0.154
Mof_H 	H 	0.0788	0.6413	0.1376	0.091
Mof_C 	C 	0.1349	0.57668	0.1981	-0.171
Mof_H 	H 	0.1054	0.5835	0.2287	0.094
Mof_C 	C 	0.1485	0.46395	0.126	-0.176
Mof_H 	H 	0.1266	0.4676	0.1651	0.095
Mof_C 	C 	0.4615	0.77928	0.1985	0.065
Mof_H 	H 	0.4582	0.8046	0.1922	0.021
Mof_C 	C 	0.1281	0.67781	0.2847	-0.155
Mof_H 	H 	0.1619	0.6775	0.3181	0.09
Mof_C 	C 	0.193	0.38489	0.0161	0.359
Mof_C 	C 	0.4076	0.75932	0.2003	-0.156
Mof_H 	H 	0.3686	0.771	0.1959	0.084
Mof_C 	C 	0.2021	0.45125	0.005	0.1
Mof_H 	H 	0.219	0.4469	0.963	0.009
Mof_C 	C 	0.1752	0.49388	0.0915	0.118
Mof_C 	C 	0.1758	0.53131	0.1228	-0.082
Mof_C 	C 	0.2232	0.55543	0.1106	0.047
Mof_H 	H 	0.254	0.5482	0.0818	0.012
Mof_C 	C 	0.1991	0.48787	0.0283	-0.177
Mof_H 	H 	0.2126	0.5073	0.002	0.092
Mof_C 	C 	0.2267	0.59015	0.1396	-0.174
Mof_H 	H 	0.2589	0.6062	0.1295	0.095
Mof_C 	C 	0.2423	0.68958	0.1772	-0.177
Mof_H 	H 	0.2054	0.6973	0.1523	0.096
Mof_N 	N 	0.18604	0.63575	0.2158	-0.177
Mof_O 	O 	0.63184	0.7728	0.21929	-0.449
Mof_O 	O 	0.77275	0.79838	0.21689	-0.513
Mof_O 	O 	0.57344	0.81816	0.17649	-0.35
Mof_O 	O 	0.80216	0.8084	0.32793	-0.474
Mof_O 	O 	0.20084	0.37832	0.95531	-0.414
Mof_O 	O 	0.19003	0.35804	0.05925	-0.545
Mof_Zn	Zn	0.68524	0.8134	0.19162	1.225
Mof_C 	C 	0.7602	0.9508	0.2232	0.248
Mof_H 	H 	0.7906	0.9449	0.2586	-0.042
Mof_C 	C 	0.252	0.2919	0.5078	-0.256
Mof_H 	H 	0.2186	0.2789	0.5244	0.153
Mof_C 	C 	0.2287	0.3135	0.6494	0.14
Mof_C 	C 	0.2619	0.29244	0.4385	0.156
Mof_H 	H 	0.2347	0.2787	0.4088	-0.028
Mof_C 	C 	0.3439	0.3297	0.5264	-0.263
Mof_H 	H 	0.3737	0.342	0.5554	0.124
Mof_C 	C 	0.2942	0.31173	0.5519	0.241
Mof_C 	C 	0.3479	0.32884	0.4573	0.15
Mof_H 	H 	0.3812	0.3415	0.4398	-0.021
Mof_C 	C 	0.0986	0.28826	0.9802	0.317
Mof_C 	C 	0.0422	0.26593	0.9898	-0.116
Mof_C 	C 	0.0465	0.22815	0.0006	0.049
Mof_H 	H 	0.086	0.2169	0.0029	0.035
Mof_C 	C 	0.9338	0.2231	0.0058	0.089
Mof_C 	C 	0.9941	0.20739	0.0078	-0.141
Mof_H 	H 	0.9984	0.1822	0.0141	0.083
Mof_C 	C 	0.3796	0.27322	0.0475	-0.21
Mof_C 	C 	0.325	0.29709	0.0525	0.463
Mof_C 	C 	0.4613	0.2344	0.1012	-0.198
Mof_H 	H 	0.4807	0.224	0.1411	0.103
Mof_C 	C 	0.1686	0.33033	0.8196	0.086
Mof_H 	H 	0.1347	0.3424	0.8371	0.002
Mof_C 	C 	0.1732	0.33033	0.7498	-0.123
Mof_H 	H 	0.1423	0.3417	0.7207	0.09
Mof_C 	C 	0.5399	0.20214	0.0345	-0.094
Mof_C 	C 	0.454	0.24191	0.9796	-0.2
Mof_H 	H 	0.4681	0.2365	0.9366	0.107
Mof_C 	C 	0.4098	0.25705	0.1061	0.123
Mof_H 	H 	0.395	0.2616	0.1491	0.005
Mof_C 	C 	0.9833	0.28172	0.9847	0.047
Mof_H 	H 	0.9791	0.3066	0.9744	0.028
Mof_C 	C 	0.4025	0.2651	0.9835	0.127
Mof_H 	H 	0.3831	0.2753	0.9434	-0.005
Mof_C 	C 	0.9291	0.2607	0.995	-0.134
Mof_H 	H 	0.8899	0.2721	0.9944	0.078
Mof_C 	C 	0.4846	0.22685	0.0375	0.142
Mof_C 	C 	0.6496	0.15969	0.0295	0.153
Mof_C 	C 	0.224	0.31334	0.7229	0.044
Mof_C 	C 	0.2584	0.29638	0.8376	0.085
Mof_H 	H 	0.288	0.2847	0.868	-0.005
Mof_C 	C 	0.2661	0.29494	0.7684	-0.135
Mof_H 	H 	0.2993	0.2817	0.7521	0.086
Mof_C 	C 	0.8706	0.16489	0.9909	0.027
Mof_H 	H 	0.9046	0.1536	0.9719	0.022
Mof_C 	C 	0.7598	0.05848	0.1349	0.11
Mof_H 	H 	0.7917	0.0522	0.1683	-0.012
Mof_C 	C 	0.765	0.16082	0.0275	0.142
Mof_C 	C 	0.7158	0.99515	0.1421	0.266
Mof_C 	C 	0.5827	0.20787	0.9839	0.051
Mof_H 	H 	0.5743	0.2262	0.9511	0.016
Mof_C 	C 	0.8771	0.20112	0.0131	-0.066
Mof_C 	C 	0.5518	0.17386	0.0772	0.053
Mof_H 	H 	0.5225	0.1682	0.1087	0.008
Mof_C 	C 	0.7124	0.10432	0.0575	0.186
Mof_C 	C 	0.6369	0.18712	0.9813	-0.169
Mof_H 	H 	0.6646	0.1916	0.9474	0.094
Mof_C 	C 	0.7159	0.03306	0.1132	-0.167
Mof_C 	C 	0.7175	0.92593	0.2026	-0.319
Mof_C 	C 	0.7577	0.09409	0.1074	-0.22
Mof_H 	H 	0.7879	0.1111	0.1236	0.111
Mof_C 	C 	0.7194	0.8882	0.2347	0.487
Mof_C 	C 	0.8148	0.14473	0.9959	-0.154
Mof_H 	H 	0.8111	0.121	0.9784	0.089
Mof_C 	C 	0.607	0.15189	0.0768	-0.175
Mof_H 	H 	0.6141	0.1327	0.1079	0.094
Mof_C 	C 	0.771	0.19614	0.052	-0.165
Mof_H 	H 	0.738	0.2067	0.074	0.091
Mof_C 	C 	0.6681	0.07826	0.0342	-0.216
Mof_H 	H 	0.6368	0.0845	-0	0.109
Mof_C 	C 	0.825	0.21597	0.0447	0.029
Mof_H 	H 	0.8274	0.24	0.0609	0.018
Mof_C 	C 	0.6699	0.04344	0.0607	0.106
Mof_H 	H 	0.6402	0.0263	0.0437	-0.014
Mof_C 	C 	0.6779	0.96913	0.1207	-0.347
Mof_H 	H 	0.6486	0.974	0.0837	0.15
Mof_C 	C 	0.6783	0.93443	0.1499	0.27
Mof_H 	H 	0.6501	0.9168	0.1315	-0.049
Mof_C 	C 	0.7612	0.9853	0.194	-0.313
Mof_H 	H 	0.7924	0.002	0.2091	0.141
Mof_N 	N 	0.2852	0.31271	0.6237	-0.247
Mof_H 	H 	0.3183	0.3128	0.6522	0.133
Mof_N 	N 	0.30715	0.31104	0.41151	-0.285
Mof_N 	N 	0.21022	0.31388	0.86321	-0.249
Mof_N 	N 	0.70859	0.14028	0.0308	-0.187
Mof_O 	O 	0.09209	0.32038	0.95544	-0.348
Mof_O 	O 	0.15239	0.27509	0.99492	-0.425
Mof_O 	O 	0.1697	0.31588	0.6065	-0.188
Mof_O 	O 	0.31352	0.30828	0.10925	-0.53
Mof_O 	O 	0.29187	0.30472	0.99628	-0.5
Mof_O 	O 	0.75731	0.8834	0.28648	-0.508
Mof_O 	O 	0.68073	0.86602	0.2094	-0.533
Mof_Zn	Zn	0.20285	0.31973	0.96871	1.221
Mof_Zn	Zn	0.25375	0.3467	0.13754	1.214
Mof_C 	C 	0.7031	0.20969	0.3232	0.054
Mof_H 	H 	0.7039	0.2318	0.3473	0.01
Mof_C 	C 	0.03	0.22482	0.248	0.127
Mof_C 	C 	0.1339	0.26965	0.2375	-0.172
Mof_C 	C 	0.0608	0.24103	0.3061	-0.181
Mof_H 	H 	0.0456	0.237	0.3492	0.1
Mof_C 	C 	0.4218	0.28625	0.3001	0.318
Mof_C 	C 	0.1022	0.25514	0.1794	0.115
Mof_H 	H 	0.115	0.2611	0.136	0.018
Mof_C 	C 	0.1916	0.29439	0.2312	0.448
Mof_C 	C 	0.4787	0.26371	0.2946	-0.13
Mof_C 	C 	0.113	0.26281	0.3015	0.109
Mof_H 	H 	0.134	0.2728	0.341	0.006
Mof_C 	C 	0.4752	0.22574	0.2839	0.054
Mof_H 	H 	0.4358	0.2145	0.2783	0.019
Mof_C 	C 	0.0522	0.23214	0.1844	-0.181
Mof_H 	H 	0.0329	0.2213	0.1448	0.104
Mof_C 	C 	0.9752	0.20034	0.2551	-0.073
Mof_C 	C 	0.6484	0.19849	0.2897	-0.086
Mof_C 	C 	0.5298	0.20442	0.2815	-0.15
Mof_H 	H 	0.5267	0.1793	0.2735	0.08
Mof_C 	C 	0.8716	0.1569	0.2749	0.135
Mof_C 	C 	0.8173	0.10063	0.3166	0.154
Mof_C 	C 	0.5894	0.22126	0.2911	0.102
Mof_C 	C 	0.6479	0.16685	0.2546	0.056
Mof_H 	H 	0.6105	0.1589	0.2311	0.007
Mof_C 	C 	0.844	0.92968	0.4002	0.112
Mof_H 	H 	0.8578	0.9098	0.3753	0.004
Mof_C 	C 	0.818	0.92264	0.46	-0.197
Mof_C 	C 	0.8686	0.04255	0.3328	0.044
Mof_H 	H 	0.9013	0.0268	0.3236	0.014
Mof_C 	C 	0.9252	0.19936	0.2078	0.035
Mof_H 	H 	0.9263	0.2137	0.1683	0.021
Mof_C 	C 	0.9744	0.17781	0.3137	0.026
Mof_H 	H 	0.0091	0.1774	0.346	0.034
Mof_C 	C 	0.7565	0.15751	0.2844	0.16
Mof_C 	C 	0.7025	0.14552	0.2526	-0.188
Mof_H 	H 	0.7011	0.1232	0.2293	0.1
Mof_C 	C 	0.922	0.15612	0.3235	-0.154
Mof_H 	H 	0.9212	0.1413	0.3624	0.091
Mof_C 	C 	0.8651	0.07668	0.3019	-0.171
Mof_H 	H 	0.8946	0.0835	0.2713	0.094
Mof_C 	C 	0.8515	0.96395	0.374	-0.18
Mof_H 	H 	0.8734	0.9676	0.3349	0.096
Mof_C 	C 	0.5385	0.27928	0.3015	0.065
Mof_H 	H 	0.5418	0.3046	0.3078	0.021
Mof_C 	C 	0.8719	0.17781	0.2153	-0.155
Mof_H 	H 	0.8381	0.1775	0.1819	0.09
Mof_C 	C 	0.807	0.88489	0.4839	0.363
Mof_C 	C 	0.5924	0.25932	0.2997	-0.156
Mof_H 	H 	0.6314	0.271	0.3041	0.084
Mof_C 	C 	0.7979	0.95125	0.495	0.109
Mof_H 	H 	0.781	0.9469	0.537	0.005
Mof_C 	C 	0.8248	0.99388	0.4085	0.122
Mof_C 	C 	0.8242	0.03131	0.3772	-0.083
Mof_C 	C 	0.7768	0.05543	0.3894	0.048
Mof_H 	H 	0.746	0.0482	0.4182	0.012
Mof_C 	C 	0.8009	0.98787	0.4717	-0.182
Mof_H 	H 	0.7874	0.0073	0.498	0.095
Mof_C 	C 	0.7733	0.09015	0.3604	-0.175
Mof_H 	H 	0.7411	0.1062	0.3705	0.095
Mof_C 	C 	0.7577	0.18958	0.3228	-0.177
Mof_H 	H 	0.7946	0.1973	0.3477	0.096
Mof_N 	N 	0.81396	0.13575	0.2842	-0.178
Mof_O 	O 	0.36816	0.2728	0.28071	-0.449
Mof_O 	O 	0.22725	0.29838	0.28311	-0.513
Mof_O 	O 	0.42656	0.31816	0.32351	-0.35
Mof_O 	O 	0.19784	0.3084	0.17207	-0.474
Mof_O 	O 	0.79916	0.87832	0.54469	-0.416
Mof_O 	O 	0.80997	0.85804	0.44075	-0.545
Mof_Zn	Zn	0.31476	0.3134	0.30838	1.225
_end
