data_functionalizedCrystal
_audit_creation_method	'EQeq! by Chris Wilmer'
_symmetry_space_group_name_H-M	'P1'
_symmetry_Int_Tables_number	1
_symmetry_cell_setting	triclinic
loop_
_symmetry_equiv_pos_as_xyz
  x,y,z
_cell_length_a	5.5871
_cell_length_b	25.9462
_cell_length_c	17.4983
_cell_angle_alpha	90
_cell_angle_beta	96.031
_cell_angle_gamma	90
loop_
_atom_site_label
_atom_site_type_symbol
_atom_site_fract_x
_atom_site_fract_y
_atom_site_fract_z
_atom_site_charge
Mof_Zn	Zn	0.89206	0.47323	0.42807	1.214
Mof_O 	O 	0.713	0.54098	0.41684	-0.461
Mof_O 	O 	0.8299	0.57555	0.53239	-0.451
Mof_O 	O 	0.2642	0.55616	0.48002	-0.466
Mof_O 	O 	0.1466	0.51183	0.37262	-0.435
Mof_O 	O 	0.6855	0.81304	0.34467	-0.22
Mof_O 	O 	0.9938	0.7574	0.2113	-0.212
Mof_N 	N 	0.2338	0.92238	0.15426	-0.267
Mof_N 	N 	0.343	0.78447	0.2776	-0.192
Mof_C 	C 	0.4278	0.8931	0.1459	0.128
Mof_H 	H 	0.5346	0.9033	0.1115	0
Mof_C 	C 	0.4723	0.84804	0.1875	-0.224
Mof_H 	H 	0.6066	0.828	0.1808	0.14
Mof_C 	C 	0.3144	0.83331	0.2389	0.233
Mof_C 	C 	0.122	0.8645	0.2503	-0.228
Mof_H 	H 	0.0184	0.8562	0.2867	0.142
Mof_C 	C 	0.0871	0.90847	0.2063	0.128
Mof_H 	H 	0.9558	0.9294	0.213	-0.004
Mof_C 	C 	0.5455	0.77753	0.3301	0.213
Mof_C 	C 	0.5737	0.72632	0.3674	-0.029
Mof_C 	C 	0.4083	0.68654	0.3465	-0.005
Mof_C 	C 	0.2088	0.69565	0.2915	-0.025
Mof_C 	C 	0.1674	0.74703	0.2564	0.2
Mof_C 	C 	0.7639	0.71831	0.4215	-0.055
Mof_H 	H 	0.8704	0.7451	0.4355	0.074
Mof_C 	C 	0.7991	0.66982	0.456	0.02
Mof_H 	H 	0.9284	0.6648	0.4932	0.046
Mof_C 	C 	0.6448	0.62939	0.4356	-0.113
Mof_C 	C 	0.4385	0.63706	0.3819	0.094
Mof_C 	C 	0.2597	0.59885	0.3615	-0.113
Mof_C 	C 	0.0768	0.60826	0.3052	0.019
Mof_H 	H 	0.9679	0.5821	0.2902	0.047
Mof_C 	C 	0.0502	0.65699	0.2692	-0.069
Mof_H 	H 	0.9254	0.6627	0.2307	0.08
Mof_C 	C 	0.7297	0.57693	0.465	0.4
Mof_C 	C 	0.2301	0.5509	0.4084	0.389
Mof_Zn	Zn	0.10794	0.97323	0.07193	1.213
Mof_O 	O 	0.287	0.04098	0.08316	-0.461
Mof_O 	O 	0.1701	0.07555	0.96761	-0.452
Mof_O 	O 	0.7358	0.05616	0.01998	-0.464
Mof_O 	O 	0.8534	0.01183	0.12738	-0.434
Mof_O 	O 	0.3145	0.31304	0.15533	-0.221
Mof_O 	O 	0.0062	0.2574	0.2887	-0.213
Mof_N 	N 	0.7662	0.42238	0.34574	-0.267
Mof_N 	N 	0.657	0.28447	0.2224	-0.192
Mof_C 	C 	0.5722	0.3931	0.3541	0.129
Mof_H 	H 	0.4654	0.4033	0.3885	0.001
Mof_C 	C 	0.5277	0.34804	0.3125	-0.225
Mof_H 	H 	0.3934	0.328	0.3192	0.14
Mof_C 	C 	0.6856	0.33331	0.2611	0.234
Mof_C 	C 	0.878	0.3645	0.2497	-0.23
Mof_H 	H 	0.9816	0.3562	0.2133	0.144
Mof_C 	C 	0.9129	0.40847	0.2937	0.132
Mof_H 	H 	0.0442	0.4294	0.287	-0.007
Mof_C 	C 	0.4545	0.27753	0.1699	0.213
Mof_C 	C 	0.4263	0.22632	0.1326	-0.029
Mof_C 	C 	0.5917	0.18654	0.1535	-0.004
Mof_C 	C 	0.7912	0.19565	0.2085	-0.026
Mof_C 	C 	0.8326	0.24703	0.2436	0.202
Mof_C 	C 	0.2361	0.21831	0.0785	-0.055
Mof_H 	H 	0.1296	0.2451	0.0645	0.074
Mof_C 	C 	0.2009	0.16982	0.044	0.019
Mof_H 	H 	0.0716	0.1648	0.0068	0.046
Mof_C 	C 	0.3552	0.12939	0.0644	-0.113
Mof_C 	C 	0.5615	0.13706	0.1181	0.094
Mof_C 	C 	0.7403	0.09885	0.1385	-0.113
Mof_C 	C 	0.9232	0.10826	0.1948	0.02
Mof_H 	H 	0.0321	0.0821	0.2098	0.046
Mof_C 	C 	0.9498	0.15699	0.2308	-0.067
Mof_H 	H 	0.0746	0.1627	0.2693	0.079
Mof_C 	C 	0.2703	0.07693	0.035	0.4
Mof_C 	C 	0.7699	0.0509	0.0916	0.389
Mof_Zn	Zn	0.10794	0.52677	0.57193	1.214
Mof_O 	O 	0.287	0.45902	0.58316	-0.461
Mof_O 	O 	0.1701	0.42445	0.46761	-0.451
Mof_O 	O 	0.7358	0.44384	0.51998	-0.466
Mof_O 	O 	0.8534	0.48817	0.62738	-0.435
Mof_O 	O 	0.3145	0.18696	0.65533	-0.22
Mof_O 	O 	0.0062	0.2426	0.7887	-0.212
Mof_N 	N 	0.7662	0.07762	0.84574	-0.267
Mof_N 	N 	0.657	0.21553	0.7224	-0.192
Mof_C 	C 	0.5722	0.1069	0.8541	0.128
Mof_H 	H 	0.4654	0.0967	0.8885	0
Mof_C 	C 	0.5277	0.15196	0.8125	-0.224
Mof_H 	H 	0.3934	0.172	0.8192	0.14
Mof_C 	C 	0.6856	0.16669	0.7611	0.233
Mof_C 	C 	0.878	0.1355	0.7497	-0.228
Mof_H 	H 	0.9816	0.1438	0.7133	0.142
Mof_C 	C 	0.9129	0.09153	0.7937	0.128
Mof_H 	H 	0.0442	0.0706	0.787	-0.004
Mof_C 	C 	0.4545	0.22247	0.6699	0.213
Mof_C 	C 	0.4263	0.27368	0.6326	-0.029
Mof_C 	C 	0.5917	0.31346	0.6535	-0.005
Mof_C 	C 	0.7912	0.30435	0.7085	-0.025
Mof_C 	C 	0.8326	0.25297	0.7436	0.2
Mof_C 	C 	0.2361	0.28169	0.5785	-0.055
Mof_H 	H 	0.1296	0.2549	0.5645	0.074
Mof_C 	C 	0.2009	0.33018	0.544	0.02
Mof_H 	H 	0.0716	0.3352	0.5068	0.046
Mof_C 	C 	0.3552	0.37061	0.5644	-0.113
Mof_C 	C 	0.5615	0.36294	0.6181	0.094
Mof_C 	C 	0.7403	0.40115	0.6385	-0.113
Mof_C 	C 	0.9232	0.39174	0.6948	0.019
Mof_H 	H 	0.0321	0.4179	0.7098	0.047
Mof_C 	C 	0.9498	0.34301	0.7308	-0.069
Mof_H 	H 	0.0746	0.3373	0.7693	0.08
Mof_C 	C 	0.2703	0.42307	0.535	0.4
Mof_C 	C 	0.7699	0.4491	0.5916	0.389
Mof_Zn	Zn	0.89206	0.02677	0.92807	1.213
Mof_O 	O 	0.713	0.95902	0.91684	-0.461
Mof_O 	O 	0.8299	0.92445	0.03239	-0.452
Mof_O 	O 	0.2642	0.94384	0.98002	-0.464
Mof_O 	O 	0.1466	0.98817	0.87262	-0.434
Mof_O 	O 	0.6855	0.68696	0.84467	-0.221
Mof_O 	O 	0.9938	0.7426	0.7113	-0.213
Mof_N 	N 	0.2338	0.57762	0.65426	-0.267
Mof_N 	N 	0.343	0.71553	0.7776	-0.192
Mof_C 	C 	0.4278	0.6069	0.6459	0.129
Mof_H 	H 	0.5346	0.5967	0.6115	0.001
Mof_C 	C 	0.4723	0.65196	0.6875	-0.225
Mof_H 	H 	0.6066	0.672	0.6808	0.14
Mof_C 	C 	0.3144	0.66669	0.7389	0.234
Mof_C 	C 	0.122	0.6355	0.7503	-0.23
Mof_H 	H 	0.0184	0.6438	0.7867	0.144
Mof_C 	C 	0.0871	0.59153	0.7063	0.132
Mof_H 	H 	0.9558	0.5706	0.713	-0.007
Mof_C 	C 	0.5455	0.72247	0.8301	0.213
Mof_C 	C 	0.5737	0.77368	0.8674	-0.029
Mof_C 	C 	0.4083	0.81346	0.8465	-0.004
Mof_C 	C 	0.2088	0.80435	0.7915	-0.026
Mof_C 	C 	0.1674	0.75297	0.7564	0.202
Mof_C 	C 	0.7639	0.78169	0.9215	-0.055
Mof_H 	H 	0.8704	0.7549	0.9355	0.074
Mof_C 	C 	0.7991	0.83018	0.956	0.019
Mof_H 	H 	0.9284	0.8352	0.9932	0.046
Mof_C 	C 	0.6448	0.87061	0.9356	-0.113
Mof_C 	C 	0.4385	0.86294	0.8819	0.094
Mof_C 	C 	0.2597	0.90115	0.8615	-0.113
Mof_C 	C 	0.0768	0.89174	0.8052	0.02
Mof_H 	H 	0.9679	0.9179	0.7902	0.046
Mof_C 	C 	0.0502	0.84301	0.7692	-0.067
Mof_H 	H 	0.9254	0.8373	0.7307	0.079
Mof_C 	C 	0.7297	0.92307	0.965	0.4
Mof_C 	C 	0.2301	0.9491	0.9084	0.389
_end
