data_functionalizedCrystal
_audit_creation_method	'EQeq! by Chris Wilmer'
_symmetry_space_group_name_H-M	'P1'
_symmetry_Int_Tables_number	1
_symmetry_cell_setting	triclinic
loop_
_symmetry_equiv_pos_as_xyz
  x,y,z
_cell_length_a	11.6635
_cell_length_b	21.3807
_cell_length_c	21.3807
_cell_angle_alpha	63.2305
_cell_angle_beta	79.5232
_cell_angle_gamma	100.477
loop_
_atom_site_label
_atom_site_type_symbol
_atom_site_fract_x
_atom_site_fract_y
_atom_site_fract_z
_atom_site_charge
Mof_Nd	Nd	0.44474	0.39054	0.07967	2.271
Mof_Nd	Nd	0.52441	0.07967	0.52979	2.271
Mof_Nd	Nd	0.0542	0.52979	0.39054	2.27
Mof_Nd	Nd	0.55527	0.60947	0.92032	2.269
Mof_Nd	Nd	0.47559	0.92033	0.47021	2.27
Mof_Nd	Nd	0.9458	0.47021	0.60947	2.269
Mof_H 	H 	0.79	0.502	0.988	-0.093
Mof_H 	H 	0.778	0.988	0.51	-0.093
Mof_H 	H 	0.288	0.51	0.502	-0.093
Mof_H 	H 	0.21	0.498	0.012	-0.093
Mof_H 	H 	0.222	0.012	0.49	-0.093
Mof_H 	H 	0.712	0.49	0.498	-0.093
Mof_C 	C 	0.4766	0.4581	0.8958	0.527
Mof_C 	C 	0.4677	0.4437	0.8328	-0.181
Mof_C 	C 	0.572	0.4417	0.7909	0.129
Mof_C 	C 	0.5708	0.4395	0.7269	-0.131
Mof_C 	C 	0.6943	0.4465	0.6787	0.368
Mof_C 	C 	0.4669	0.4381	0.7063	0.082
Mof_C 	C 	0.3566	0.4375	0.7483	0.009
Mof_C 	C 	0.3639	0.4402	0.8116	0.09
Mof_C 	C 	0.7325	0.5259	0.9621	0.525
Mof_C 	C 	0.3724	0.8958	0.6461	0.527
Mof_C 	C 	0.3005	0.8328	0.7235	-0.181
Mof_C 	C 	0.3629	0.7909	0.7674	0.129
Mof_C 	C 	0.2977	0.7269	0.8336	-0.13
Mof_C 	C 	0.373	0.6787	0.8748	0.368
Mof_C 	C 	0.1732	0.7063	0.8556	0.082
Mof_C 	C 	0.1049	0.7483	0.8142	0.009
Mof_C 	C 	0.1755	0.8116	0.7482	0.09
Mof_C 	C 	0.6946	0.9621	0.512	0.525
Mof_C 	C 	0.0185	0.6461	0.4581	0.527
Mof_C 	C 	0.024	0.7235	0.4437	-0.181
Mof_C 	C 	0.1303	0.7674	0.4417	0.129
Mof_C 	C 	0.1313	0.8336	0.4395	-0.131
Mof_C 	C 	0.2478	0.8748	0.4465	0.368
Mof_C 	C 	0.0288	0.8556	0.4381	0.082
Mof_C 	C 	0.9191	0.8142	0.4375	0.009
Mof_C 	C 	0.9237	0.7482	0.4402	0.09
Mof_C 	C 	0.2066	0.512	0.5259	0.525
Mof_C 	C 	0.5234	0.5419	0.1042	0.527
Mof_C 	C 	0.5323	0.5563	0.1672	-0.181
Mof_C 	C 	0.428	0.5583	0.2091	0.129
Mof_C 	C 	0.4292	0.5605	0.2731	-0.131
Mof_C 	C 	0.3057	0.5535	0.3213	0.368
Mof_C 	C 	0.5331	0.5619	0.2937	0.082
Mof_C 	C 	0.6434	0.5625	0.2517	0.009
Mof_C 	C 	0.6361	0.5598	0.1884	0.09
Mof_C 	C 	0.2675	0.4741	0.0379	0.525
Mof_C 	C 	0.6276	0.1042	0.3539	0.527
Mof_C 	C 	0.6995	0.1672	0.2765	-0.181
Mof_C 	C 	0.6371	0.2091	0.2326	0.129
Mof_C 	C 	0.7023	0.2731	0.1664	-0.13
Mof_C 	C 	0.627	0.3213	0.1252	0.368
Mof_C 	C 	0.8268	0.2937	0.1444	0.082
Mof_C 	C 	0.8951	0.2517	0.1858	0.009
Mof_C 	C 	0.8245	0.1884	0.2518	0.09
Mof_C 	C 	0.3054	0.0379	0.488	0.525
Mof_C 	C 	0.9815	0.3539	0.5419	0.527
Mof_C 	C 	0.976	0.2765	0.5563	-0.181
Mof_C 	C 	0.8697	0.2326	0.5583	0.129
Mof_C 	C 	0.8687	0.1664	0.5605	-0.131
Mof_C 	C 	0.7522	0.1252	0.5535	0.368
Mof_C 	C 	0.9712	0.1444	0.5619	0.082
Mof_C 	C 	0.0809	0.1858	0.5625	0.009
Mof_C 	C 	0.0763	0.2518	0.5598	0.09
Mof_C 	C 	0.7934	0.488	0.4741	0.525
Mof_I 	I 	0.72448	0.43476	0.8301	-0.18
Mof_I 	I 	0.46823	0.43764	0.60823	-0.063
Mof_I 	I 	0.20569	0.43789	0.87922	-0.097
Mof_I 	I 	0.55458	0.8301	0.73514	-0.18
Mof_I 	I 	0.07646	0.60823	0.95413	-0.062
Mof_I 	I 	0.08491	0.87922	0.68289	-0.097
Mof_I 	I 	0.28972	0.73514	0.43476	-0.18
Mof_I 	I 	0.03059	0.95413	0.43764	-0.063
Mof_I 	I 	0.7678	0.68289	0.43789	-0.097
Mof_I 	I 	0.27552	0.56524	0.1699	-0.18
Mof_I 	I 	0.53177	0.56236	0.39177	-0.063
Mof_I 	I 	0.79431	0.56211	0.12078	-0.097
Mof_I 	I 	0.44542	0.1699	0.26486	-0.18
Mof_I 	I 	0.92354	0.39177	0.04587	-0.062
Mof_I 	I 	0.91509	0.12078	0.31711	-0.097
Mof_I 	I 	0.71028	0.26486	0.56524	-0.18
Mof_I 	I 	0.96941	0.04587	0.56236	-0.063
Mof_I 	I 	0.2322	0.31711	0.56211	-0.097
Mof_N 	N 	0.2539	0.4358	0.7271	-0.092
Mof_N 	N 	0.981	0.7271	0.8371	-0.093
Mof_N 	N 	0.8181	0.8371	0.4358	-0.092
Mof_N 	N 	0.7461	0.5642	0.2729	-0.092
Mof_N 	N 	0.019	0.2729	0.1629	-0.093
Mof_N 	N 	0.1819	0.1629	0.5642	-0.092
Mof_O 	O 	0.44221	0.40388	0.95975	-0.542
Mof_O 	O 	0.52183	0.52467	0.87438	-0.547
Mof_O 	O 	0.7165	0.3904	0.6835	-0.431
Mof_O 	O 	0.7645	0.5083	0.6385	-0.473
Mof_O 	O 	0.623	0.49192	0.99262	-0.672
Mof_O 	O 	0.7695	0.5937	0.918	-0.499
Mof_O 	O 	0.40196	0.95975	0.63637	-0.542
Mof_O 	O 	0.39621	0.87438	0.60095	-0.547
Mof_O 	O 	0.4	0.6835	0.9261	-0.431
Mof_O 	O 	0.403	0.6385	0.8532	-0.473
Mof_O 	O 	0.61562	0.99262	0.51546	-0.672
Mof_O 	O 	0.6875	0.918	0.4883	-0.498
Mof_O 	O 	0.03833	0.63637	0.40388	-0.542
Mof_O 	O 	0.99716	0.60095	0.52467	-0.547
Mof_O 	O 	0.3261	0.9261	0.3904	-0.431
Mof_O 	O 	0.2562	0.8532	0.5083	-0.473
Mof_O 	O 	0.13108	0.51546	0.49192	-0.672
Mof_O 	O 	0.1758	0.4883	0.5937	-0.498
Mof_O 	O 	0.55779	0.59612	0.04025	-0.542
Mof_O 	O 	0.47817	0.47533	0.12562	-0.547
Mof_O 	O 	0.2835	0.6096	0.3165	-0.431
Mof_O 	O 	0.2355	0.4917	0.3615	-0.473
Mof_O 	O 	0.377	0.50808	0.00738	-0.672
Mof_O 	O 	0.2305	0.4063	0.082	-0.499
Mof_O 	O 	0.59804	0.04025	0.36363	-0.542
Mof_O 	O 	0.60379	0.12562	0.39905	-0.547
Mof_O 	O 	0.6	0.3165	0.0739	-0.431
Mof_O 	O 	0.597	0.3615	0.1468	-0.473
Mof_O 	O 	0.38438	0.00738	0.48454	-0.672
Mof_O 	O 	0.3125	0.082	0.5117	-0.498
Mof_O 	O 	0.96167	0.36363	0.59612	-0.542
Mof_O 	O 	0.00284	0.39905	0.47533	-0.547
Mof_O 	O 	0.6739	0.0739	0.6096	-0.431
Mof_O 	O 	0.7438	0.1468	0.4917	-0.473
Mof_O 	O 	0.86892	0.48454	0.50808	-0.672
Mof_O 	O 	0.8242	0.5117	0.4063	-0.498
_end
