data_functionalizedCrystal
_audit_creation_method	'EQeq! by Chris Wilmer'
_symmetry_space_group_name_H-M	'P1'
_symmetry_Int_Tables_number	1
_symmetry_cell_setting	triclinic
loop_
_symmetry_equiv_pos_as_xyz
  x,y,z
_cell_length_a	7.8224
_cell_length_b	10.6257
_cell_length_c	13.1557
_cell_angle_alpha	94.72
_cell_angle_beta	92.336
_cell_angle_gamma	110.181
loop_
_atom_site_label
_atom_site_type_symbol
_atom_site_fract_x
_atom_site_fract_y
_atom_site_fract_z
_atom_site_charge
Mof_In	In	0.47591	0.75318	0.74624	3.036
Mof_In	In	0.51272	0.77883	0.24906	3.198
Mof_P 	P 	0.8059	0.0717	0.7832	0.677
Mof_H 	H 	0.936	0.092	0.744	-0.087
Mof_P 	P 	0.8457	0.099	0.2243	0.104
Mof_H 	H 	0.9568	0.1217	0.2669	0.067
Mof_P 	P 	0.577	0.7365	0.4997	0.732
Mof_H 	H 	0.7	0.804	0.533	-0.141
Mof_P 	P 	0.5753	0.808	0.0027	-2.106
Mof_H 	H 	0.5754	0.8984	0.0147	0.886
Mof_O 	O 	0.8574	0.0835	0.8955	-0.756
Mof_O 	O 	0.7755	0.8147	0.0065	-0.492
Mof_O 	O 	0.4748	0.7278	0.0876	-0.582
Mof_O 	O 	0.7313	0.1818	0.7566	-0.7
Mof_O 	O 	0.7264	0.9591	0.2481	-0.657
Mof_O 	O 	0.6992	0.6651	0.2519	-0.561
Mof_O 	O 	0.5343	0.8085	0.4114	-0.669
Mof_O 	O 	0.4403	0.7226	0.5819	-0.666
Mof_O 	O 	0.6872	0.9354	0.7394	-0.687
Mof_O 	O 	0.3378	0.3625	0.26	-0.635
Mof_O 	O 	0.4706	0.747	0.9047	-0.792
Mof_O 	O 	0.706	0.4604	0.2614	-0.51
Mof_O 	O 	0.3275	0.5692	0.2546	-0.591
Mof_O 	O 	0.5867	0.5988	0.4631	-0.554
Mof_H 	H 	0.6139	0.5647	0.512	0.319
Mof_O 	O 	0.9011	0.1036	0.1174	-0.573
Mof_O 	O 	0.7661	0.2042	0.2554	-0.639
Mof_C 	C 	0.6278	0.5425	0.2569	0.343
Mof_C 	C 	0.4134	0.4849	0.2573	0.278
Mof_P 	P 	0.7538	0.0706	0.1791	0.623
Mof_H 	H 	0.6442	0.0469	0.1349	-0.321
Mof_P 	P 	0.586	0.7283	0.9945	2.845
Mof_H 	H 	0.5864	0.6381	0.9818	-1.081
Mof_In	In	0.52409	0.24682	0.25376	3.104
Mof_In	In	0.48728	0.22117	0.75094	3.028
Mof_P 	P 	0.1941	0.9283	0.2168	0.944
Mof_H 	H 	0.064	0.908	0.256	-0.223
Mof_P 	P 	0.1543	0.901	0.7757	0.244
Mof_H 	H 	0.0432	0.8783	0.7331	-0.063
Mof_P 	P 	0.423	0.2635	0.5003	0.748
Mof_H 	H 	0.3	0.196	0.467	-0.257
Mof_P 	P 	0.4247	0.192	0.9973	3.238
Mof_H 	H 	0.4246	0.1016	0.9853	-1.32
Mof_O 	O 	0.1426	0.9165	0.1045	-0.618
Mof_O 	O 	0.2245	0.1853	0.9935	-0.923
Mof_O 	O 	0.5252	0.2722	0.9124	-0.821
Mof_O 	O 	0.2687	0.8182	0.2434	-0.746
Mof_O 	O 	0.2736	0.0409	0.7519	-0.962
Mof_O 	O 	0.3008	0.3349	0.7481	-0.675
Mof_O 	O 	0.4657	0.1915	0.5886	-0.715
Mof_O 	O 	0.5597	0.2774	0.4181	-0.673
Mof_O 	O 	0.3128	0.0646	0.2606	-0.969
Mof_O 	O 	0.6622	0.6375	0.74	-0.568
Mof_O 	O 	0.5294	0.253	0.0953	-0.72
Mof_O 	O 	0.294	0.5396	0.7386	-0.642
Mof_O 	O 	0.6725	0.4308	0.7454	-0.514
Mof_O 	O 	0.4133	0.4012	0.5369	-0.571
Mof_H 	H 	0.3861	0.4353	0.488	0.284
Mof_O 	O 	0.0989	0.8964	0.8826	-0.866
Mof_O 	O 	0.2339	0.7958	0.7446	-0.733
Mof_C 	C 	0.3722	0.4575	0.7431	0.355
Mof_C 	C 	0.5866	0.5151	0.7427	0.245
Mof_P 	P 	0.2462	0.9294	0.8209	0.783
Mof_H 	H 	0.3558	0.9531	0.8651	-0.285
Mof_P 	P 	0.414	0.2717	0.0055	-2.253
Mof_H 	H 	0.4136	0.3619	0.0182	0.971
Mof_In	In	-0	0	-0	2.865
_end
