data_functionalizedCrystal
_audit_creation_method	'EQeq! by Chris Wilmer'
_symmetry_space_group_name_H-M	'P1'
_symmetry_Int_Tables_number	1
_symmetry_cell_setting	triclinic
loop_
_symmetry_equiv_pos_as_xyz
  x,y,z
_cell_length_a	19.807
_cell_length_b	27.714
_cell_length_c	27.847
_cell_angle_alpha	90
_cell_angle_beta	90
_cell_angle_gamma	90
loop_
_atom_site_label
_atom_site_type_symbol
_atom_site_fract_x
_atom_site_fract_y
_atom_site_fract_z
_atom_site_charge
Mof_Zn	Zn	0.31144	0.94237	0.61801	1.213
Mof_Zn	Zn	0.18856	0.55763	0.11801	1.209
Mof_Zn	Zn	0.31144	0.05763	0.61801	1.209
Mof_Zn	Zn	0.18856	0.44237	0.11801	1.21
Mof_Zn	Zn	0.19959	0	0.56206	1.208
Mof_Zn	Zn	0.19876	-6.60563e-33	0.67577	1.209
Mof_Zn	Zn	0.30041	0.5	0.06206	1.211
Mof_Zn	Zn	0.30124	0.5	0.17577	1.213
Mof_H 	H 	0.3581	0.8515	0.499	0.016
Mof_H 	H 	0.3637	0.7956	0.4365	0.083
Mof_H 	H 	0.1947	0.8476	0.3831	0.088
Mof_H 	H 	0.1883	0.9061	0.4437	0.025
Mof_H 	H 	0.1899	0.7359	0.2683	0.086
Mof_H 	H 	0.1773	0.6712	0.2154	0.015
Mof_H 	H 	0.3373	0.6086	0.2722	0.014
Mof_H 	H 	0.3476	0.6725	0.3261	0.082
Mof_H 	H 	0.642	0.0734	0.6218	0.08
Mof_H 	H 	0.5246	0.0723	0.6221	0.023
Mof_H 	H 	0.1419	0.6485	0.999	0.015
Mof_H 	H 	0.1363	0.7044	0.9365	0.085
Mof_H 	H 	0.3053	0.6524	0.8831	0.086
Mof_H 	H 	0.3117	0.5939	0.9437	0.018
Mof_H 	H 	0.3101	0.7641	0.7683	0.085
Mof_H 	H 	0.3227	0.8288	0.7154	0.016
Mof_H 	H 	0.1627	0.8914	0.7722	0.019
Mof_H 	H 	0.1524	0.8275	0.8261	0.083
Mof_H 	H 	0.858	0.4266	0.1218	0.084
Mof_H 	H 	0.9754	0.4277	0.1221	0.022
Mof_H 	H 	0.3581	0.1485	0.499	0.014
Mof_H 	H 	0.3637	0.2044	0.4365	0.084
Mof_H 	H 	0.1947	0.1524	0.3831	0.085
Mof_H 	H 	0.1883	0.0939	0.4437	0.018
Mof_H 	H 	0.1899	0.2641	0.2683	0.084
Mof_H 	H 	0.1773	0.3288	0.2154	0.014
Mof_H 	H 	0.3373	0.3914	0.2722	0.014
Mof_H 	H 	0.3476	0.3275	0.3261	0.081
Mof_H 	H 	0.642	0.9266	0.6218	0.079
Mof_H 	H 	0.5246	0.9277	0.6221	0.02
Mof_H 	H 	0.1419	0.3515	0.999	0.014
Mof_H 	H 	0.1363	0.2956	0.9365	0.083
Mof_H 	H 	0.3053	0.3476	0.8831	0.085
Mof_H 	H 	0.3117	0.4061	0.9437	0.018
Mof_H 	H 	0.3101	0.2359	0.7683	0.084
Mof_H 	H 	0.3227	0.1712	0.7154	0.014
Mof_H 	H 	0.1627	0.1086	0.7722	0.012
Mof_H 	H 	0.1524	0.1725	0.8261	0.08
Mof_H 	H 	0.858	0.5734	0.1218	0.084
Mof_H 	H 	0.9754	0.5723	0.1221	0.023
Mof_H 	H 	0.9916	0	0.6835	0.02
Mof_H 	H 	0.8736	0	0.6876	0.075
Mof_H 	H 	0.8684	0	0.5434	0.085
Mof_H 	H 	0.985	-6.60563e-33	0.5414	0.02
Mof_H 	H 	0.5084	0.5	0.1835	0.023
Mof_H 	H 	0.6264	0.5	0.1876	0.077
Mof_H 	H 	0.6316	0.5	0.0434	0.087
Mof_H 	H 	0.515	0.5	0.0414	0.023
Mof_C 	C 	0.266	0.9173	0.5206	0.435
Mof_C 	C 	0.2709	0.8823	0.4798	-0.164
Mof_C 	C 	0.323	0.8508	0.4758	0.085
Mof_C 	C 	0.3263	0.817	0.4382	-0.153
Mof_C 	C 	0.2763	0.8145	0.4036	0.111
Mof_C 	C 	0.2287	0.8475	0.4072	-0.155
Mof_C 	C 	0.2235	0.8828	0.4439	0.083
Mof_C 	C 	0.2764	0.7796	0.369	-0.044
Mof_C 	C 	0.2754	0.7491	0.3388	-0.032
Mof_C 	C 	0.27	0.7117	0.302	0.106
Mof_C 	C 	0.2215	0.7102	0.2695	-0.16
Mof_C 	C 	0.2146	0.6722	0.2368	0.089
Mof_C 	C 	0.2602	0.638	0.236	-0.154
Mof_C 	C 	0.3078	0.6356	0.2702	0.078
Mof_C 	C 	0.3128	0.6734	0.3026	-0.151
Mof_C 	C 	0.2542	0.5935	0.2042	0.374
Mof_C 	C 	0.6183	0.0436	0.6218	-0.13
Mof_C 	C 	0.5487	0.0427	0.6228	0.064
Mof_C 	C 	0.234	0.5827	0.0206	0.437
Mof_C 	C 	0.2291	0.6177	0.9798	-0.169
Mof_C 	C 	0.177	0.6492	0.9758	0.088
Mof_C 	C 	0.1737	0.683	0.9382	-0.157
Mof_C 	C 	0.2237	0.6855	0.9036	0.114
Mof_C 	C 	0.2713	0.6525	0.9072	-0.16
Mof_C 	C 	0.2765	0.6172	0.9439	0.086
Mof_C 	C 	0.2236	0.7204	0.869	-0.047
Mof_C 	C 	0.2246	0.7509	0.8388	-0.03
Mof_C 	C 	0.23	0.7883	0.802	0.104
Mof_C 	C 	0.2785	0.7898	0.7695	-0.157
Mof_C 	C 	0.2854	0.8278	0.7368	0.086
Mof_C 	C 	0.2398	0.862	0.736	-0.149
Mof_C 	C 	0.1922	0.8644	0.7702	0.076
Mof_C 	C 	0.1872	0.8266	0.8026	-0.148
Mof_C 	C 	0.2458	0.9065	0.7042	0.373
Mof_C 	C 	0.8817	0.4564	0.1218	-0.139
Mof_C 	C 	0.9513	0.4573	0.1228	0.068
Mof_C 	C 	0.266	0.0827	0.5206	0.437
Mof_C 	C 	0.2709	0.1177	0.4798	-0.17
Mof_C 	C 	0.323	0.1492	0.4758	0.087
Mof_C 	C 	0.3263	0.183	0.4382	-0.157
Mof_C 	C 	0.2763	0.1855	0.4036	0.113
Mof_C 	C 	0.2287	0.1525	0.4072	-0.16
Mof_C 	C 	0.2235	0.1172	0.4439	0.085
Mof_C 	C 	0.2764	0.2204	0.369	-0.047
Mof_C 	C 	0.2754	0.2509	0.3388	-0.032
Mof_C 	C 	0.27	0.2883	0.302	0.104
Mof_C 	C 	0.2215	0.2898	0.2695	-0.159
Mof_C 	C 	0.2146	0.3278	0.2368	0.088
Mof_C 	C 	0.2602	0.362	0.236	-0.154
Mof_C 	C 	0.3078	0.3644	0.2702	0.077
Mof_C 	C 	0.3128	0.3266	0.3026	-0.151
Mof_C 	C 	0.2542	0.4065	0.2042	0.373
Mof_C 	C 	0.6183	0.9564	0.6218	-0.11
Mof_C 	C 	0.5487	0.9573	0.6228	0.085
Mof_C 	C 	0.234	0.4173	0.0206	0.437
Mof_C 	C 	0.2291	0.3823	0.9798	-0.169
Mof_C 	C 	0.177	0.3508	0.9758	0.087
Mof_C 	C 	0.1737	0.317	0.9382	-0.156
Mof_C 	C 	0.2237	0.3145	0.9036	0.112
Mof_C 	C 	0.2713	0.3475	0.9072	-0.159
Mof_C 	C 	0.2765	0.3828	0.9439	0.085
Mof_C 	C 	0.2236	0.2796	0.869	-0.047
Mof_C 	C 	0.2246	0.2491	0.8388	-0.033
Mof_C 	C 	0.23	0.2117	0.802	0.105
Mof_C 	C 	0.2785	0.2102	0.7695	-0.16
Mof_C 	C 	0.2854	0.1722	0.7368	0.088
Mof_C 	C 	0.2398	0.138	0.736	-0.155
Mof_C 	C 	0.1922	0.1356	0.7702	0.078
Mof_C 	C 	0.1872	0.1734	0.8026	-0.152
Mof_C 	C 	0.2458	0.0935	0.7042	0.373
Mof_C 	C 	0.8817	0.5436	0.1218	-0.139
Mof_C 	C 	0.9513	0.5427	0.1228	0.068
Mof_C 	C 	0.0755	0	0.6115	0.389
Mof_C 	C 	0.9976	0	0.6112	-0.143
Mof_C 	C 	0.9657	-6.60563e-33	0.6548	0.062
Mof_C 	C 	0.8955	0	0.6573	-0.139
Mof_C 	C 	0.8572	0	0.6149	0.09
Mof_C 	C 	0.8926	6.60563e-33	0.5728	-0.146
Mof_C 	C 	0.9624	0	0.5715	0.078
Mof_C 	C 	0.7849	0	0.6156	-0.041
Mof_C 	C 	0.7253	0	0.6184	-0.024
Mof_C 	C 	0.653	0	0.6208	0.059
Mof_C 	C 	0.513	0	0.6248	-0.156
Mof_C 	C 	0.4354	0	0.6236	0.387
Mof_C 	C 	0.4245	0.5	0.1115	0.389
Mof_C 	C 	0.5024	0.5	0.1112	-0.139
Mof_C 	C 	0.5343	0.5	0.1548	0.061
Mof_C 	C 	0.6045	0.5	0.1573	-0.134
Mof_C 	C 	0.6428	0.5	0.1149	0.088
Mof_C 	C 	0.6074	0.5	0.0728	-0.141
Mof_C 	C 	0.5376	0.5	0.0715	0.077
Mof_C 	C 	0.7151	0.5	0.1156	-0.03
Mof_C 	C 	0.7747	0.5	0.1184	-0.029
Mof_C 	C 	0.847	0.5	0.1208	0.09
Mof_C 	C 	0.987	0.5	0.1248	-0.14
Mof_C 	C 	0.0646	0.5	0.1236	0.412
Mof_O 	O 	0.31011	0.91543	0.55187	-0.513
Mof_O 	O 	0.2176	0.94576	0.519	-0.501
Mof_O 	O 	0.2052	0.5999	0.1705	-0.492
Mof_O 	O 	0.2966	0.5618	0.2041	-0.54
Mof_O 	O 	0.40759	0.04037	0.62312	-0.5
Mof_O 	O 	0.18989	0.58457	0.05187	-0.518
Mof_O 	O 	0.2824	0.55424	0.019	-0.515
Mof_O 	O 	0.2948	0.9001	0.6705	-0.489
Mof_O 	O 	0.2034	0.9382	0.7041	-0.529
Mof_O 	O 	0.09241	0.45963	0.12312	-0.503
Mof_O 	O 	0.31011	0.08457	0.55187	-0.52
Mof_O 	O 	0.2176	0.05424	0.519	-0.517
Mof_O 	O 	0.2052	0.4001	0.1705	-0.493
Mof_O 	O 	0.2966	0.4382	0.2041	-0.54
Mof_O 	O 	0.40759	0.95963	0.62312	-0.481
Mof_O 	O 	0.18989	0.41543	0.05187	-0.519
Mof_O 	O 	0.2824	0.44576	0.019	-0.515
Mof_O 	O 	0.2948	0.0999	0.6705	-0.494
Mof_O 	O 	0.2034	0.0618	0.7041	-0.543
Mof_O 	O 	0.09241	0.54037	0.12312	-0.503
Mof_O 	O 	0.25593	0	0.6183	-0.973
Mof_O 	O 	0.1041	0	0.65226	-0.501
Mof_O 	O 	0.1022	0	0.57093	-0.503
Mof_O 	O 	0.24407	0.5	0.1183	-0.963
Mof_O 	O 	0.3959	0.5	0.15226	-0.495
Mof_O 	O 	0.3978	0.5	0.07093	-0.498
Mof_Zn	Zn	0.68856	0.94237	0.38199	1.214
Mof_Zn	Zn	0.81144	0.55763	0.88199	1.21
Mof_Zn	Zn	0.68856	0.05763	0.38199	1.209
Mof_Zn	Zn	0.81144	0.44237	0.88199	1.21
Mof_Zn	Zn	0.80041	0	0.43794	1.208
Mof_Zn	Zn	0.80124	0	0.32423	1.209
Mof_Zn	Zn	0.69959	0.5	0.93794	1.211
Mof_Zn	Zn	0.69876	0.5	0.82423	1.213
Mof_H 	H 	0.6419	0.8515	0.501	0.016
Mof_H 	H 	0.6363	0.7956	0.5635	0.083
Mof_H 	H 	0.8053	0.8476	0.6169	0.088
Mof_H 	H 	0.8117	0.9061	0.5563	0.025
Mof_H 	H 	0.8101	0.7359	0.7317	0.086
Mof_H 	H 	0.8227	0.6712	0.7846	0.015
Mof_H 	H 	0.6627	0.6086	0.7278	0.014
Mof_H 	H 	0.6524	0.6725	0.6739	0.082
Mof_H 	H 	0.358	0.0734	0.3782	0.08
Mof_H 	H 	0.4754	0.0723	0.3779	0.023
Mof_H 	H 	0.8581	0.6485	0.001	0.015
Mof_H 	H 	0.8637	0.7044	0.0635	0.085
Mof_H 	H 	0.6947	0.6524	0.1169	0.086
Mof_H 	H 	0.6883	0.5939	0.0563	0.018
Mof_H 	H 	0.6899	0.7641	0.2317	0.085
Mof_H 	H 	0.6773	0.8288	0.2846	0.016
Mof_H 	H 	0.8373	0.8914	0.2278	0.019
Mof_H 	H 	0.8476	0.8275	0.1739	0.083
Mof_H 	H 	0.142	0.4266	0.8782	0.084
Mof_H 	H 	0.0246	0.4277	0.8779	0.022
Mof_H 	H 	0.6419	0.1485	0.501	0.014
Mof_H 	H 	0.6363	0.2044	0.5635	0.084
Mof_H 	H 	0.8053	0.1524	0.6169	0.085
Mof_H 	H 	0.8117	0.0939	0.5563	0.018
Mof_H 	H 	0.8101	0.2641	0.7317	0.084
Mof_H 	H 	0.8227	0.3288	0.7846	0.014
Mof_H 	H 	0.6627	0.3914	0.7278	0.014
Mof_H 	H 	0.6524	0.3275	0.6739	0.081
Mof_H 	H 	0.358	0.9266	0.3782	0.079
Mof_H 	H 	0.4754	0.9277	0.3779	0.02
Mof_H 	H 	0.8581	0.3515	0.001	0.014
Mof_H 	H 	0.8637	0.2956	0.0635	0.083
Mof_H 	H 	0.6947	0.3476	0.1169	0.085
Mof_H 	H 	0.6883	0.4061	0.0563	0.018
Mof_H 	H 	0.6899	0.2359	0.2317	0.084
Mof_H 	H 	0.6773	0.1712	0.2846	0.014
Mof_H 	H 	0.8373	0.1086	0.2278	0.012
Mof_H 	H 	0.8476	0.1725	0.1739	0.08
Mof_H 	H 	0.142	0.5734	0.8782	0.084
Mof_H 	H 	0.0246	0.5723	0.8779	0.023
Mof_H 	H 	0.0084	0	0.3165	0.02
Mof_H 	H 	0.1264	0	0.3124	0.075
Mof_H 	H 	0.1316	-3.30281e-33	0.4566	0.085
Mof_H 	H 	0.015	3.30281e-33	0.4586	0.02
Mof_H 	H 	0.4916	0.5	0.8165	0.023
Mof_H 	H 	0.3736	0.5	0.8124	0.077
Mof_H 	H 	0.3684	0.5	0.9566	0.087
Mof_H 	H 	0.485	0.5	0.9586	0.023
Mof_C 	C 	0.734	0.9173	0.4794	0.435
Mof_C 	C 	0.7291	0.8823	0.5202	-0.164
Mof_C 	C 	0.677	0.8508	0.5242	0.085
Mof_C 	C 	0.6737	0.817	0.5618	-0.153
Mof_C 	C 	0.7237	0.8145	0.5964	0.111
Mof_C 	C 	0.7713	0.8475	0.5928	-0.155
Mof_C 	C 	0.7765	0.8828	0.5561	0.083
Mof_C 	C 	0.7236	0.7796	0.631	-0.044
Mof_C 	C 	0.7246	0.7491	0.6612	-0.032
Mof_C 	C 	0.73	0.7117	0.698	0.106
Mof_C 	C 	0.7785	0.7102	0.7305	-0.16
Mof_C 	C 	0.7854	0.6722	0.7632	0.089
Mof_C 	C 	0.7398	0.638	0.764	-0.154
Mof_C 	C 	0.6922	0.6356	0.7298	0.078
Mof_C 	C 	0.6872	0.6734	0.6974	-0.151
Mof_C 	C 	0.7458	0.5935	0.7958	0.374
Mof_C 	C 	0.3817	0.0436	0.3782	-0.13
Mof_C 	C 	0.4513	0.0427	0.3772	0.064
Mof_C 	C 	0.766	0.5827	0.9794	0.437
Mof_C 	C 	0.7709	0.6177	0.0202	-0.169
Mof_C 	C 	0.823	0.6492	0.0242	0.088
Mof_C 	C 	0.8263	0.683	0.0618	-0.157
Mof_C 	C 	0.7763	0.6855	0.0964	0.114
Mof_C 	C 	0.7287	0.6525	0.0928	-0.16
Mof_C 	C 	0.7235	0.6172	0.0561	0.086
Mof_C 	C 	0.7764	0.7204	0.131	-0.047
Mof_C 	C 	0.7754	0.7509	0.1612	-0.03
Mof_C 	C 	0.77	0.7883	0.198	0.104
Mof_C 	C 	0.7215	0.7898	0.2305	-0.157
Mof_C 	C 	0.7146	0.8278	0.2632	0.086
Mof_C 	C 	0.7602	0.862	0.264	-0.149
Mof_C 	C 	0.8078	0.8644	0.2298	0.076
Mof_C 	C 	0.8128	0.8266	0.1974	-0.148
Mof_C 	C 	0.7542	0.9065	0.2958	0.373
Mof_C 	C 	0.1183	0.4564	0.8782	-0.139
Mof_C 	C 	0.0487	0.4573	0.8772	0.068
Mof_C 	C 	0.734	0.0827	0.4794	0.437
Mof_C 	C 	0.7291	0.1177	0.5202	-0.17
Mof_C 	C 	0.677	0.1492	0.5242	0.087
Mof_C 	C 	0.6737	0.183	0.5618	-0.157
Mof_C 	C 	0.7237	0.1855	0.5964	0.113
Mof_C 	C 	0.7713	0.1525	0.5928	-0.16
Mof_C 	C 	0.7765	0.1172	0.5561	0.085
Mof_C 	C 	0.7236	0.2204	0.631	-0.047
Mof_C 	C 	0.7246	0.2509	0.6612	-0.032
Mof_C 	C 	0.73	0.2883	0.698	0.104
Mof_C 	C 	0.7785	0.2898	0.7305	-0.159
Mof_C 	C 	0.7854	0.3278	0.7632	0.088
Mof_C 	C 	0.7398	0.362	0.764	-0.154
Mof_C 	C 	0.6922	0.3644	0.7298	0.077
Mof_C 	C 	0.6872	0.3266	0.6974	-0.151
Mof_C 	C 	0.7458	0.4065	0.7958	0.373
Mof_C 	C 	0.3817	0.9564	0.3782	-0.11
Mof_C 	C 	0.4513	0.9573	0.3772	0.085
Mof_C 	C 	0.766	0.4173	0.9794	0.437
Mof_C 	C 	0.7709	0.3823	0.0202	-0.169
Mof_C 	C 	0.823	0.3508	0.0242	0.087
Mof_C 	C 	0.8263	0.317	0.0618	-0.156
Mof_C 	C 	0.7763	0.3145	0.0964	0.112
Mof_C 	C 	0.7287	0.3475	0.0928	-0.159
Mof_C 	C 	0.7235	0.3828	0.0561	0.085
Mof_C 	C 	0.7764	0.2796	0.131	-0.047
Mof_C 	C 	0.7754	0.2491	0.1612	-0.033
Mof_C 	C 	0.77	0.2117	0.198	0.105
Mof_C 	C 	0.7215	0.2102	0.2305	-0.16
Mof_C 	C 	0.7146	0.1722	0.2632	0.088
Mof_C 	C 	0.7602	0.138	0.264	-0.155
Mof_C 	C 	0.8078	0.1356	0.2298	0.078
Mof_C 	C 	0.8128	0.1734	0.1974	-0.152
Mof_C 	C 	0.7542	0.0935	0.2958	0.373
Mof_C 	C 	0.1183	0.5436	0.8782	-0.139
Mof_C 	C 	0.0487	0.5427	0.8772	0.068
Mof_C 	C 	0.9245	-3.30281e-33	0.3885	0.389
Mof_C 	C 	0.0024	0	0.3888	-0.143
Mof_C 	C 	0.0343	0	0.3452	0.062
Mof_C 	C 	0.1045	0	0.3427	-0.139
Mof_C 	C 	0.1428	-3.30281e-33	0.3851	0.09
Mof_C 	C 	0.1074	0	0.4272	-0.146
Mof_C 	C 	0.0376	0	0.4285	0.078
Mof_C 	C 	0.2151	-3.30281e-33	0.3844	-0.041
Mof_C 	C 	0.2747	-3.30281e-33	0.3816	-0.024
Mof_C 	C 	0.347	0	0.3792	0.059
Mof_C 	C 	0.487	0	0.3752	-0.156
Mof_C 	C 	0.5646	0	0.3764	0.387
Mof_C 	C 	0.5755	0.5	0.8885	0.389
Mof_C 	C 	0.4976	0.5	0.8888	-0.139
Mof_C 	C 	0.4657	0.5	0.8452	0.061
Mof_C 	C 	0.3955	0.5	0.8427	-0.134
Mof_C 	C 	0.3572	0.5	0.8851	0.088
Mof_C 	C 	0.3926	0.5	0.9272	-0.141
Mof_C 	C 	0.4624	0.5	0.9285	0.077
Mof_C 	C 	0.2849	0.5	0.8844	-0.03
Mof_C 	C 	0.2253	0.5	0.8816	-0.029
Mof_C 	C 	0.153	0.5	0.8792	0.09
Mof_C 	C 	0.013	0.5	0.8752	-0.14
Mof_C 	C 	0.9354	0.5	0.8764	0.412
Mof_O 	O 	0.68989	0.91543	0.44813	-0.513
Mof_O 	O 	0.7824	0.94576	0.481	-0.501
Mof_O 	O 	0.7948	0.5999	0.8295	-0.492
Mof_O 	O 	0.7034	0.5618	0.7959	-0.54
Mof_O 	O 	0.59241	0.04037	0.37688	-0.5
Mof_O 	O 	0.81011	0.58457	0.94813	-0.518
Mof_O 	O 	0.7176	0.55424	0.981	-0.515
Mof_O 	O 	0.7052	0.9001	0.3295	-0.489
Mof_O 	O 	0.7966	0.9382	0.2959	-0.529
Mof_O 	O 	0.90759	0.45963	0.87688	-0.503
Mof_O 	O 	0.68989	0.08457	0.44813	-0.52
Mof_O 	O 	0.7824	0.05424	0.481	-0.517
Mof_O 	O 	0.7948	0.4001	0.8295	-0.493
Mof_O 	O 	0.7034	0.4382	0.7959	-0.54
Mof_O 	O 	0.59241	0.95963	0.37688	-0.481
Mof_O 	O 	0.81011	0.41543	0.94813	-0.519
Mof_O 	O 	0.7176	0.44576	0.981	-0.515
Mof_O 	O 	0.7052	0.0999	0.3295	-0.494
Mof_O 	O 	0.7966	0.0618	0.2959	-0.543
Mof_O 	O 	0.90759	0.54037	0.87688	-0.503
Mof_O 	O 	0.74407	0	0.3817	-0.973
Mof_O 	O 	0.8959	0	0.34774	-0.501
Mof_O 	O 	0.8978	3.30281e-33	0.42907	-0.503
Mof_O 	O 	0.75593	0.5	0.8817	-0.963
Mof_O 	O 	0.6041	0.5	0.84774	-0.495
Mof_O 	O 	0.6022	0.5	0.92907	-0.498
_end
