data_functionalizedCrystal
_audit_creation_method	'EQeq! by Chris Wilmer'
_symmetry_space_group_name_H-M	'P1'
_symmetry_Int_Tables_number	1
_symmetry_cell_setting	triclinic
loop_
_symmetry_equiv_pos_as_xyz
  x,y,z
_cell_length_a	62.8399
_cell_length_b	62.8399
_cell_length_c	62.8399
_cell_angle_alpha	60
_cell_angle_beta	60
_cell_angle_gamma	60
loop_
_atom_site_label
_atom_site_type_symbol
_atom_site_fract_x
_atom_site_fract_y
_atom_site_fract_z
_atom_site_charge
Mof_Cr	Cr	0.11423	0.28384	0.6577	2.408
Mof_Cr	Cr	0.30656	0.35963	0.53034	2.513
Mof_C 	C 	0.4224	0.46092	0.54723	0.032
Mof_C 	C 	0.36102	0.39955	0.51247	0.016
Mof_C 	C 	0.37603	0.41455	0.50403	0.021
Mof_C 	C 	0.31679	0.40521	0.42746	0.017
Mof_C 	C 	0.31227	0.3822	0.47489	0.661
Mof_C 	C 	0.31089	0.40641	0.45167	-0.19
Mof_C 	C 	0.30458	0.43068	0.45304	0.016
Mof_C 	C 	0.18594	0.20837	0.64843	0.01
Mof_C 	C 	0.15936	0.25305	0.62501	0.618
Mof_C 	C 	0.18218	0.22795	0.62494	-0.172
Mof_C 	C 	0.20145	0.2239	0.60143	0.01
Mof_C 	C 	0.16297	0.26799	0.70516	0.012
Mof_C 	C 	0.14404	0.29961	0.66831	0.631
Mof_C 	C 	0.1587	0.2924	0.6853	-0.177
Mof_C 	C 	0.17681	0.26152	0.72083	0.011
Mof_C 	C 	0.2031	0.27199	0.73261	0.624
Mof_C 	C 	0.18675	0.27927	0.71726	-0.174
Mof_C 	C 	0.16851	0.31016	0.6819	0.013
Mof_C 	C 	0.18222	0.30374	0.69757	0.011
Mof_C 	C 	0.28425	0.32264	0.62099	0.004
Mof_C 	C 	0.2752	0.31363	0.64841	0.034
Mof_C 	C 	0.32224	0.24194	0.53632	0.02
Mof_C 	C 	0.34166	0.27304	0.5283	0.672
Mof_C 	C 	0.33972	0.24672	0.53987	-0.197
Mof_C 	C 	0.31889	0.2175	0.54938	0.016
Mof_C 	C 	0.07796	0.33257	0.66808	0.668
Mof_C 	C 	0.33299	0.19747	0.56615	-0.194
Mof_C 	C 	0.35438	0.22638	0.55592	0.019
Mof_C 	C 	0.35111	0.20213	0.56881	0.02
Mof_O 	O 	0.42559	0.46103	0.50214	-0.829
Mof_O 	O 	0.33327	0.36883	0.52525	-0.804
Mof_O 	O 	0.40801	0.44352	0.48477	-0.821
Mof_O 	O 	0.30637	0.3837	0.49673	-0.792
Mof_O 	O 	0.36082	0.31969	0.47176	-0.81
Mof_O 	O 	0.14341	0.25626	0.64681	-0.76
Mof_O 	O 	0.09285	0.28098	0.6467	-0.756
Mof_O 	O 	0.13396	0.2839	0.67277	-0.76
Mof_O 	O 	0.14205	0.32149	0.65	-0.788
Mof_O 	O 	0.20797	0.24927	0.7494	-0.757
Mof_O 	O 	0.21218	0.28867	0.72771	-0.771
Mof_O 	O 	0.30379	0.33926	0.56556	-0.785
Mof_O 	O 	0.25801	0.29346	0.70249	-0.781
Mof_O 	O 	0.33112	0.29016	0.51111	-0.815
Mof_O 	O 	0.27746	0.35332	0.53657	-0.805
Mof_O 	O 	0.0841	0.30855	0.67227	-0.775
Mof_O 	O 	0.15737	0.33907	0.59943	-0.833
Mof_H 	H 	0.40729	0.47622	0.53902	0.014
Mof_H 	H 	0.34037	0.40917	0.51532	0.018
Mof_H 	H 	0.36649	0.43529	0.50073	0.017
Mof_H 	H 	0.32174	0.38695	0.42554	0.018
Mof_H 	H 	0.29999	0.43236	0.47131	0.018
Mof_H 	H 	0.17176	0.21061	0.66698	0.02
Mof_H 	H 	0.1995	0.23842	0.5829	0.019
Mof_H 	H 	0.15579	0.25374	0.70849	0.019
Mof_H 	H 	0.17998	0.24241	0.73557	0.02
Mof_H 	H 	0.16567	0.32917	0.66698	0.018
Mof_H 	H 	0.18961	0.31797	0.69394	0.02
Mof_H 	H 	0.27242	0.34107	0.6109	0.021
Mof_H 	H 	0.25665	0.32549	0.65835	0.014
Mof_H 	H 	0.31059	0.2573	0.52408	0.019
Mof_H 	H 	0.30483	0.21452	0.5469	0.019
Mof_H 	H 	0.36814	0.22928	0.55895	0.015
Mof_H 	H 	0.3626	0.18711	0.58131	0.015
Mof_Cr	Cr	0.28384	0.11423	0.94423	2.409
Mof_Cr	Cr	0.35963	0.30656	0.80348	2.514
Mof_C 	C 	0.46092	0.4224	0.56944	0.032
Mof_C 	C 	0.39955	0.36102	0.72696	0.016
Mof_C 	C 	0.41455	0.37603	0.70539	0.021
Mof_C 	C 	0.40521	0.31679	0.85054	0.017
Mof_C 	C 	0.3822	0.31227	0.83063	0.661
Mof_C 	C 	0.40641	0.31089	0.83104	-0.19
Mof_C 	C 	0.43068	0.30458	0.8117	0.016
Mof_C 	C 	0.20837	0.18594	0.95726	0.01
Mof_C 	C 	0.25305	0.15936	0.96258	0.618
Mof_C 	C 	0.22795	0.18218	0.96494	-0.172
Mof_C 	C 	0.2239	0.20145	0.97322	0.01
Mof_C 	C 	0.26799	0.16297	0.86389	0.012
Mof_C 	C 	0.29961	0.14404	0.88804	0.631
Mof_C 	C 	0.2924	0.1587	0.8636	-0.177
Mof_C 	C 	0.26152	0.17681	0.84085	0.011
Mof_C 	C 	0.27199	0.2031	0.7923	0.624
Mof_C 	C 	0.27927	0.18675	0.81672	-0.174
Mof_C 	C 	0.31016	0.16851	0.83943	0.013
Mof_C 	C 	0.30374	0.18222	0.81647	0.011
Mof_C 	C 	0.32264	0.28425	0.77212	0.004
Mof_C 	C 	0.31363	0.2752	0.76276	0.034
Mof_C 	C 	0.24194	0.32224	0.8995	0.019
Mof_C 	C 	0.27304	0.34166	0.857	0.67
Mof_C 	C 	0.24672	0.33972	0.87369	-0.196
Mof_C 	C 	0.2175	0.31889	0.91423	0.016
Mof_C 	C 	0.33257	0.07796	0.92138	0.667
Mof_C 	C 	0.19747	0.33299	0.90339	-0.195
Mof_C 	C 	0.22638	0.35438	0.86331	0.018
Mof_C 	C 	0.20213	0.35111	0.87794	0.021
Mof_O 	O 	0.46103	0.42559	0.61124	-0.829
Mof_O 	O 	0.36883	0.33327	0.77265	-0.804
Mof_O 	O 	0.44352	0.40801	0.6637	-0.821
Mof_O 	O 	0.3837	0.30637	0.8132	-0.793
Mof_O 	O 	0.31969	0.36082	0.84773	-0.81
Mof_O 	O 	0.25626	0.14341	0.95352	-0.76
Mof_O 	O 	0.28098	0.09285	0.97946	-0.756
Mof_O 	O 	0.2839	0.13396	0.90937	-0.76
Mof_O 	O 	0.32149	0.14205	0.88647	-0.788
Mof_O 	O 	0.24927	0.20797	0.79336	-0.756
Mof_O 	O 	0.28867	0.21218	0.77143	-0.77
Mof_O 	O 	0.33926	0.30379	0.7914	-0.783
Mof_O 	O 	0.29346	0.25801	0.74604	-0.78
Mof_O 	O 	0.29016	0.33112	0.86762	-0.814
Mof_O 	O 	0.35332	0.27746	0.83264	-0.804
Mof_O 	O 	0.30855	0.0841	0.93508	-0.774
Mof_O 	O 	0.33907	0.15737	0.90414	-0.832
Mof_H 	H 	0.47622	0.40729	0.57747	0.015
Mof_H 	H 	0.40917	0.34037	0.73515	0.019
Mof_H 	H 	0.43529	0.36649	0.69749	0.018
Mof_H 	H 	0.38695	0.32174	0.86577	0.019
Mof_H 	H 	0.43236	0.29999	0.79634	0.019
Mof_H 	H 	0.21061	0.17176	0.95064	0.021
Mof_H 	H 	0.23842	0.1995	0.97918	0.021
Mof_H 	H 	0.25374	0.15579	0.88199	0.02
Mof_H 	H 	0.24241	0.17998	0.84203	0.021
Mof_H 	H 	0.32917	0.16567	0.83819	0.019
Mof_H 	H 	0.31797	0.18961	0.79849	0.021
Mof_H 	H 	0.34107	0.27242	0.77561	0.022
Mof_H 	H 	0.32549	0.25665	0.75951	0.015
Mof_H 	H 	0.2573	0.31059	0.90802	0.02
Mof_H 	H 	0.21452	0.30483	0.93376	0.02
Mof_H 	H 	0.22928	0.36814	0.84363	0.016
Mof_H 	H 	0.18711	0.3626	0.86898	0.016
Mof_Cr	Cr	0.6577	0.94423	0.11423	2.409
Mof_Cr	Cr	0.53034	0.80348	0.30656	2.515
Mof_C 	C 	0.54723	0.56944	0.4224	0.033
Mof_C 	C 	0.51247	0.72696	0.36102	0.017
Mof_C 	C 	0.50403	0.70539	0.37603	0.022
Mof_C 	C 	0.42746	0.85054	0.31679	0.018
Mof_C 	C 	0.47489	0.83063	0.31227	0.662
Mof_C 	C 	0.45167	0.83104	0.31089	-0.19
Mof_C 	C 	0.45304	0.8117	0.30458	0.017
Mof_C 	C 	0.64843	0.95726	0.18594	0.011
Mof_C 	C 	0.62501	0.96258	0.15936	0.619
Mof_C 	C 	0.62494	0.96494	0.18218	-0.171
Mof_C 	C 	0.60143	0.97322	0.20145	0.011
Mof_C 	C 	0.70516	0.86389	0.16297	0.013
Mof_C 	C 	0.66831	0.88804	0.14404	0.632
Mof_C 	C 	0.6853	0.8636	0.1587	-0.176
Mof_C 	C 	0.72083	0.84085	0.17681	0.011
Mof_C 	C 	0.73261	0.7923	0.2031	0.624
Mof_C 	C 	0.71726	0.81672	0.18675	-0.173
Mof_C 	C 	0.6819	0.83943	0.16851	0.014
Mof_C 	C 	0.69757	0.81647	0.18222	0.011
Mof_C 	C 	0.62099	0.77212	0.28425	0.005
Mof_C 	C 	0.64841	0.76276	0.2752	0.035
Mof_C 	C 	0.53632	0.8995	0.32224	0.021
Mof_C 	C 	0.5283	0.857	0.34166	0.672
Mof_C 	C 	0.53987	0.87369	0.33972	-0.196
Mof_C 	C 	0.54938	0.91423	0.31889	0.017
Mof_C 	C 	0.66808	0.92138	0.07796	0.668
Mof_C 	C 	0.56615	0.90339	0.33299	-0.193
Mof_C 	C 	0.55592	0.86331	0.35438	0.02
Mof_C 	C 	0.56881	0.87794	0.35111	0.021
Mof_O 	O 	0.50214	0.61124	0.42559	-0.828
Mof_O 	O 	0.52525	0.77265	0.33327	-0.803
Mof_O 	O 	0.48477	0.6637	0.40801	-0.82
Mof_O 	O 	0.49673	0.8132	0.30637	-0.792
Mof_O 	O 	0.47176	0.84773	0.36082	-0.809
Mof_O 	O 	0.64681	0.95352	0.14341	-0.759
Mof_O 	O 	0.6467	0.97946	0.09285	-0.756
Mof_O 	O 	0.67277	0.90937	0.13396	-0.759
Mof_O 	O 	0.65	0.88647	0.14205	-0.787
Mof_O 	O 	0.7494	0.79336	0.20797	-0.756
Mof_O 	O 	0.72771	0.77143	0.21218	-0.77
Mof_O 	O 	0.56556	0.7914	0.30379	-0.784
Mof_O 	O 	0.70249	0.74604	0.25801	-0.78
Mof_O 	O 	0.51111	0.86762	0.33112	-0.813
Mof_O 	O 	0.53657	0.83264	0.27746	-0.804
Mof_O 	O 	0.67227	0.93508	0.0841	-0.774
Mof_O 	O 	0.59943	0.90414	0.15737	-0.832
Mof_H 	H 	0.53902	0.57747	0.40729	0.015
Mof_H 	H 	0.51532	0.73515	0.34037	0.019
Mof_H 	H 	0.50073	0.69749	0.36649	0.018
Mof_H 	H 	0.42554	0.86577	0.32174	0.019
Mof_H 	H 	0.47131	0.79634	0.29999	0.019
Mof_H 	H 	0.66698	0.95064	0.17176	0.021
Mof_H 	H 	0.5829	0.97918	0.1995	0.021
Mof_H 	H 	0.70849	0.88199	0.15579	0.02
Mof_H 	H 	0.73557	0.84203	0.17998	0.021
Mof_H 	H 	0.66698	0.83819	0.16567	0.019
Mof_H 	H 	0.69394	0.79849	0.18961	0.021
Mof_H 	H 	0.6109	0.77561	0.27242	0.021
Mof_H 	H 	0.65835	0.75951	0.25665	0.015
Mof_H 	H 	0.52408	0.90802	0.31059	0.02
Mof_H 	H 	0.5469	0.93376	0.30483	0.02
Mof_H 	H 	0.55895	0.84363	0.36814	0.016
Mof_H 	H 	0.58131	0.86898	0.3626	0.016
Mof_Cr	Cr	0.94423	0.6577	0.28384	2.41
Mof_Cr	Cr	0.80348	0.53034	0.35963	2.514
Mof_C 	C 	0.56944	0.54723	0.46092	0.033
Mof_C 	C 	0.72696	0.51247	0.39955	0.017
Mof_C 	C 	0.70539	0.50403	0.41455	0.022
Mof_C 	C 	0.85054	0.42746	0.40521	0.018
Mof_C 	C 	0.83063	0.47489	0.3822	0.662
Mof_C 	C 	0.83104	0.45167	0.40641	-0.189
Mof_C 	C 	0.8117	0.45304	0.43068	0.017
Mof_C 	C 	0.95726	0.64843	0.20837	0.012
Mof_C 	C 	0.96258	0.62501	0.25305	0.62
Mof_C 	C 	0.96494	0.62494	0.22795	-0.171
Mof_C 	C 	0.97322	0.60143	0.2239	0.011
Mof_C 	C 	0.86389	0.70516	0.26799	0.013
Mof_C 	C 	0.88804	0.66831	0.29961	0.632
Mof_C 	C 	0.8636	0.6853	0.2924	-0.176
Mof_C 	C 	0.84085	0.72083	0.26152	0.011
Mof_C 	C 	0.7923	0.73261	0.27199	0.624
Mof_C 	C 	0.81672	0.71726	0.27927	-0.173
Mof_C 	C 	0.83943	0.6819	0.31016	0.014
Mof_C 	C 	0.81647	0.69757	0.30374	0.012
Mof_C 	C 	0.77212	0.62099	0.32264	0.005
Mof_C 	C 	0.76276	0.64841	0.31363	0.035
Mof_C 	C 	0.8995	0.53632	0.24194	0.02
Mof_C 	C 	0.857	0.5283	0.27304	0.671
Mof_C 	C 	0.87369	0.53987	0.24672	-0.195
Mof_C 	C 	0.91423	0.54938	0.2175	0.017
Mof_C 	C 	0.92138	0.66808	0.33257	0.669
Mof_C 	C 	0.90339	0.56615	0.19747	-0.194
Mof_C 	C 	0.86331	0.55592	0.22638	0.019
Mof_C 	C 	0.87794	0.56881	0.20213	0.022
Mof_O 	O 	0.61124	0.50214	0.46103	-0.829
Mof_O 	O 	0.77265	0.52525	0.36883	-0.803
Mof_O 	O 	0.6637	0.48477	0.44352	-0.82
Mof_O 	O 	0.8132	0.49673	0.3837	-0.792
Mof_O 	O 	0.84773	0.47176	0.31969	-0.809
Mof_O 	O 	0.95352	0.64681	0.25626	-0.759
Mof_O 	O 	0.97946	0.6467	0.28098	-0.756
Mof_O 	O 	0.90937	0.67277	0.2839	-0.759
Mof_O 	O 	0.88647	0.65	0.32149	-0.788
Mof_O 	O 	0.79336	0.7494	0.24927	-0.756
Mof_O 	O 	0.77143	0.72771	0.28867	-0.77
Mof_O 	O 	0.7914	0.56556	0.33926	-0.783
Mof_O 	O 	0.74604	0.70249	0.29346	-0.78
Mof_O 	O 	0.86762	0.51111	0.29016	-0.813
Mof_O 	O 	0.83264	0.53657	0.35332	-0.805
Mof_O 	O 	0.93508	0.67227	0.30855	-0.774
Mof_O 	O 	0.90414	0.59943	0.33907	-0.832
Mof_H 	H 	0.57747	0.53902	0.47622	0.015
Mof_H 	H 	0.73515	0.51532	0.40917	0.019
Mof_H 	H 	0.69749	0.50073	0.43529	0.018
Mof_H 	H 	0.86577	0.42554	0.38695	0.019
Mof_H 	H 	0.79634	0.47131	0.43236	0.019
Mof_H 	H 	0.95064	0.66698	0.21061	0.021
Mof_H 	H 	0.97918	0.5829	0.23842	0.02
Mof_H 	H 	0.88199	0.70849	0.25374	0.02
Mof_H 	H 	0.84203	0.73557	0.24241	0.021
Mof_H 	H 	0.83819	0.66698	0.32917	0.019
Mof_H 	H 	0.79849	0.69394	0.31797	0.021
Mof_H 	H 	0.77561	0.6109	0.34107	0.022
Mof_H 	H 	0.75951	0.65835	0.32549	0.015
Mof_H 	H 	0.90802	0.52408	0.2573	0.02
Mof_H 	H 	0.93376	0.5469	0.21452	0.02
Mof_H 	H 	0.84363	0.55895	0.22928	0.016
Mof_H 	H 	0.86898	0.58131	0.18711	0.016
Mof_Cr	Cr	0.6577	0.11423	0.28384	2.409
Mof_Cr	Cr	0.53034	0.30656	0.35963	2.514
Mof_C 	C 	0.54723	0.4224	0.46092	0.033
Mof_C 	C 	0.51247	0.36102	0.39955	0.017
Mof_C 	C 	0.50403	0.37603	0.41455	0.022
Mof_C 	C 	0.42746	0.31679	0.40521	0.018
Mof_C 	C 	0.47489	0.31227	0.3822	0.662
Mof_C 	C 	0.45167	0.31089	0.40641	-0.189
Mof_C 	C 	0.45304	0.30458	0.43068	0.017
Mof_C 	C 	0.64843	0.18594	0.20837	0.011
Mof_C 	C 	0.62501	0.15936	0.25305	0.619
Mof_C 	C 	0.62494	0.18218	0.22795	-0.171
Mof_C 	C 	0.60143	0.20145	0.2239	0.011
Mof_C 	C 	0.70516	0.16297	0.26799	0.013
Mof_C 	C 	0.66831	0.14404	0.29961	0.632
Mof_C 	C 	0.6853	0.1587	0.2924	-0.176
Mof_C 	C 	0.72083	0.17681	0.26152	0.012
Mof_C 	C 	0.73261	0.2031	0.27199	0.625
Mof_C 	C 	0.71726	0.18675	0.27927	-0.173
Mof_C 	C 	0.6819	0.16851	0.31016	0.014
Mof_C 	C 	0.69757	0.18222	0.30374	0.012
Mof_C 	C 	0.62099	0.28425	0.32264	0.005
Mof_C 	C 	0.64841	0.2752	0.31363	0.035
Mof_C 	C 	0.53632	0.32224	0.24194	0.021
Mof_C 	C 	0.5283	0.34166	0.27304	0.673
Mof_C 	C 	0.53987	0.33972	0.24672	-0.196
Mof_C 	C 	0.54938	0.31889	0.2175	0.017
Mof_C 	C 	0.66808	0.07796	0.33257	0.669
Mof_C 	C 	0.56615	0.33299	0.19747	-0.193
Mof_C 	C 	0.55592	0.35438	0.22638	0.02
Mof_C 	C 	0.56881	0.35111	0.20213	0.021
Mof_O 	O 	0.50214	0.42559	0.46103	-0.828
Mof_O 	O 	0.52525	0.33327	0.36883	-0.803
Mof_O 	O 	0.48477	0.40801	0.44352	-0.82
Mof_O 	O 	0.49673	0.30637	0.3837	-0.791
Mof_O 	O 	0.47176	0.36082	0.31969	-0.809
Mof_O 	O 	0.64681	0.14341	0.25626	-0.759
Mof_O 	O 	0.6467	0.09285	0.28098	-0.755
Mof_O 	O 	0.67277	0.13396	0.2839	-0.759
Mof_O 	O 	0.65	0.14205	0.32149	-0.787
Mof_O 	O 	0.7494	0.20797	0.24927	-0.756
Mof_O 	O 	0.72771	0.21218	0.28867	-0.77
Mof_O 	O 	0.56556	0.30379	0.33926	-0.784
Mof_O 	O 	0.70249	0.25801	0.29346	-0.78
Mof_O 	O 	0.51111	0.33112	0.29016	-0.814
Mof_O 	O 	0.53657	0.27746	0.35332	-0.804
Mof_O 	O 	0.67227	0.0841	0.30855	-0.774
Mof_O 	O 	0.59943	0.15737	0.33907	-0.832
Mof_H 	H 	0.53902	0.40729	0.47622	0.015
Mof_H 	H 	0.51532	0.34037	0.40917	0.019
Mof_H 	H 	0.50073	0.36649	0.43529	0.018
Mof_H 	H 	0.42554	0.32174	0.38695	0.019
Mof_H 	H 	0.47131	0.29999	0.43236	0.019
Mof_H 	H 	0.66698	0.17176	0.21061	0.021
Mof_H 	H 	0.5829	0.1995	0.23842	0.02
Mof_H 	H 	0.70849	0.15579	0.25374	0.02
Mof_H 	H 	0.73557	0.17998	0.24241	0.021
Mof_H 	H 	0.66698	0.16567	0.32917	0.019
Mof_H 	H 	0.69394	0.18961	0.31797	0.021
Mof_H 	H 	0.6109	0.27242	0.34107	0.022
Mof_H 	H 	0.65835	0.25665	0.32549	0.015
Mof_H 	H 	0.52408	0.31059	0.2573	0.02
Mof_H 	H 	0.5469	0.30483	0.21452	0.02
Mof_H 	H 	0.55895	0.36814	0.22928	0.016
Mof_H 	H 	0.58131	0.3626	0.18711	0.016
Mof_Cr	Cr	0.94423	0.28384	0.11423	2.41
Mof_Cr	Cr	0.80348	0.35963	0.30656	2.515
Mof_C 	C 	0.56944	0.46092	0.4224	0.033
Mof_C 	C 	0.72696	0.39955	0.36102	0.017
Mof_C 	C 	0.70539	0.41455	0.37603	0.022
Mof_C 	C 	0.85054	0.40521	0.31679	0.018
Mof_C 	C 	0.83063	0.3822	0.31227	0.662
Mof_C 	C 	0.83104	0.40641	0.31089	-0.189
Mof_C 	C 	0.8117	0.43068	0.30458	0.017
Mof_C 	C 	0.95726	0.20837	0.18594	0.011
Mof_C 	C 	0.96258	0.25305	0.15936	0.619
Mof_C 	C 	0.96494	0.22795	0.18218	-0.171
Mof_C 	C 	0.97322	0.2239	0.20145	0.011
Mof_C 	C 	0.86389	0.26799	0.16297	0.013
Mof_C 	C 	0.88804	0.29961	0.14404	0.632
Mof_C 	C 	0.8636	0.2924	0.1587	-0.176
Mof_C 	C 	0.84085	0.26152	0.17681	0.012
Mof_C 	C 	0.7923	0.27199	0.2031	0.625
Mof_C 	C 	0.81672	0.27927	0.18675	-0.173
Mof_C 	C 	0.83943	0.31016	0.16851	0.014
Mof_C 	C 	0.81647	0.30374	0.18222	0.012
Mof_C 	C 	0.77212	0.32264	0.28425	0.005
Mof_C 	C 	0.76276	0.31363	0.2752	0.035
Mof_C 	C 	0.8995	0.24194	0.32224	0.02
Mof_C 	C 	0.857	0.27304	0.34166	0.671
Mof_C 	C 	0.87369	0.24672	0.33972	-0.195
Mof_C 	C 	0.91423	0.2175	0.31889	0.017
Mof_C 	C 	0.92138	0.33257	0.07796	0.668
Mof_C 	C 	0.90339	0.19747	0.33299	-0.194
Mof_C 	C 	0.86331	0.22638	0.35438	0.019
Mof_C 	C 	0.87794	0.20213	0.35111	0.022
Mof_O 	O 	0.61124	0.46103	0.42559	-0.828
Mof_O 	O 	0.77265	0.36883	0.33327	-0.803
Mof_O 	O 	0.6637	0.44352	0.40801	-0.82
Mof_O 	O 	0.8132	0.3837	0.30637	-0.792
Mof_O 	O 	0.84773	0.31969	0.36082	-0.809
Mof_O 	O 	0.95352	0.25626	0.14341	-0.759
Mof_O 	O 	0.97946	0.28098	0.09285	-0.755
Mof_O 	O 	0.90937	0.2839	0.13396	-0.759
Mof_O 	O 	0.88647	0.32149	0.14205	-0.787
Mof_O 	O 	0.79336	0.24927	0.20797	-0.756
Mof_O 	O 	0.77143	0.28867	0.21218	-0.77
Mof_O 	O 	0.7914	0.33926	0.30379	-0.783
Mof_O 	O 	0.74604	0.29346	0.25801	-0.78
Mof_O 	O 	0.86762	0.29016	0.33112	-0.814
Mof_O 	O 	0.83264	0.35332	0.27746	-0.804
Mof_O 	O 	0.93508	0.30855	0.0841	-0.774
Mof_O 	O 	0.90414	0.33907	0.15737	-0.832
Mof_H 	H 	0.57747	0.47622	0.40729	0.015
Mof_H 	H 	0.73515	0.40917	0.34037	0.019
Mof_H 	H 	0.69749	0.43529	0.36649	0.018
Mof_H 	H 	0.86577	0.38695	0.32174	0.019
Mof_H 	H 	0.79634	0.43236	0.29999	0.019
Mof_H 	H 	0.95064	0.21061	0.17176	0.021
Mof_H 	H 	0.97918	0.23842	0.1995	0.021
Mof_H 	H 	0.88199	0.25374	0.15579	0.02
Mof_H 	H 	0.84203	0.24241	0.17998	0.021
Mof_H 	H 	0.83819	0.32917	0.16567	0.019
Mof_H 	H 	0.79849	0.31797	0.18961	0.021
Mof_H 	H 	0.77561	0.34107	0.27242	0.022
Mof_H 	H 	0.75951	0.32549	0.25665	0.015
Mof_H 	H 	0.90802	0.2573	0.31059	0.02
Mof_H 	H 	0.93376	0.21452	0.30483	0.02
Mof_H 	H 	0.84363	0.22928	0.36814	0.016
Mof_H 	H 	0.86898	0.18711	0.3626	0.016
Mof_Cr	Cr	0.11423	0.6577	0.94423	2.409
Mof_Cr	Cr	0.30656	0.53034	0.80348	2.515
Mof_C 	C 	0.4224	0.54723	0.56944	0.033
Mof_C 	C 	0.36102	0.51247	0.72696	0.017
Mof_C 	C 	0.37603	0.50403	0.70539	0.022
Mof_C 	C 	0.31679	0.42746	0.85054	0.018
Mof_C 	C 	0.31227	0.47489	0.83063	0.662
Mof_C 	C 	0.31089	0.45167	0.83104	-0.19
Mof_C 	C 	0.30458	0.45304	0.8117	0.017
Mof_C 	C 	0.18594	0.64843	0.95726	0.011
Mof_C 	C 	0.15936	0.62501	0.96258	0.619
Mof_C 	C 	0.18218	0.62494	0.96494	-0.171
Mof_C 	C 	0.20145	0.60143	0.97322	0.011
Mof_C 	C 	0.16297	0.70516	0.86389	0.013
Mof_C 	C 	0.14404	0.66831	0.88804	0.632
Mof_C 	C 	0.1587	0.6853	0.8636	-0.176
Mof_C 	C 	0.17681	0.72083	0.84085	0.011
Mof_C 	C 	0.2031	0.73261	0.7923	0.624
Mof_C 	C 	0.18675	0.71726	0.81672	-0.173
Mof_C 	C 	0.16851	0.6819	0.83943	0.014
Mof_C 	C 	0.18222	0.69757	0.81647	0.011
Mof_C 	C 	0.28425	0.62099	0.77212	0.005
Mof_C 	C 	0.2752	0.64841	0.76276	0.035
Mof_C 	C 	0.32224	0.53632	0.8995	0.021
Mof_C 	C 	0.34166	0.5283	0.857	0.672
Mof_C 	C 	0.33972	0.53987	0.87369	-0.196
Mof_C 	C 	0.31889	0.54938	0.91423	0.017
Mof_C 	C 	0.07796	0.66808	0.92138	0.668
Mof_C 	C 	0.33299	0.56615	0.90339	-0.193
Mof_C 	C 	0.35438	0.55592	0.86331	0.02
Mof_C 	C 	0.35111	0.56881	0.87794	0.021
Mof_O 	O 	0.42559	0.50214	0.61124	-0.828
Mof_O 	O 	0.33327	0.52525	0.77265	-0.803
Mof_O 	O 	0.40801	0.48477	0.6637	-0.82
Mof_O 	O 	0.30637	0.49673	0.8132	-0.792
Mof_O 	O 	0.36082	0.47176	0.84773	-0.809
Mof_O 	O 	0.14341	0.64681	0.95352	-0.759
Mof_O 	O 	0.09285	0.6467	0.97946	-0.756
Mof_O 	O 	0.13396	0.67277	0.90937	-0.759
Mof_O 	O 	0.14205	0.65	0.88647	-0.787
Mof_O 	O 	0.20797	0.7494	0.79336	-0.756
Mof_O 	O 	0.21218	0.72771	0.77143	-0.77
Mof_O 	O 	0.30379	0.56556	0.7914	-0.784
Mof_O 	O 	0.25801	0.70249	0.74604	-0.78
Mof_O 	O 	0.33112	0.51111	0.86762	-0.813
Mof_O 	O 	0.27746	0.53657	0.83264	-0.804
Mof_O 	O 	0.0841	0.67227	0.93508	-0.774
Mof_O 	O 	0.15737	0.59943	0.90414	-0.832
Mof_H 	H 	0.40729	0.53902	0.57747	0.015
Mof_H 	H 	0.34037	0.51532	0.73515	0.019
Mof_H 	H 	0.36649	0.50073	0.69749	0.018
Mof_H 	H 	0.32174	0.42554	0.86577	0.019
Mof_H 	H 	0.29999	0.47131	0.79634	0.019
Mof_H 	H 	0.17176	0.66698	0.95064	0.021
Mof_H 	H 	0.1995	0.5829	0.97918	0.021
Mof_H 	H 	0.15579	0.70849	0.88199	0.02
Mof_H 	H 	0.17998	0.73557	0.84203	0.021
Mof_H 	H 	0.16567	0.66698	0.83819	0.019
Mof_H 	H 	0.18961	0.69394	0.79849	0.021
Mof_H 	H 	0.27242	0.6109	0.77561	0.021
Mof_H 	H 	0.25665	0.65835	0.75951	0.015
Mof_H 	H 	0.31059	0.52408	0.90802	0.02
Mof_H 	H 	0.30483	0.5469	0.93376	0.02
Mof_H 	H 	0.36814	0.55895	0.84363	0.016
Mof_H 	H 	0.3626	0.58131	0.86898	0.016
Mof_Cr	Cr	0.28384	0.94423	0.6577	2.41
Mof_Cr	Cr	0.35963	0.80348	0.53034	2.514
Mof_C 	C 	0.46092	0.56944	0.54723	0.033
Mof_C 	C 	0.39955	0.72696	0.51247	0.017
Mof_C 	C 	0.41455	0.70539	0.50403	0.022
Mof_C 	C 	0.40521	0.85054	0.42746	0.018
Mof_C 	C 	0.3822	0.83063	0.47489	0.662
Mof_C 	C 	0.40641	0.83104	0.45167	-0.189
Mof_C 	C 	0.43068	0.8117	0.45304	0.017
Mof_C 	C 	0.20837	0.95726	0.64843	0.012
Mof_C 	C 	0.25305	0.96258	0.62501	0.62
Mof_C 	C 	0.22795	0.96494	0.62494	-0.171
Mof_C 	C 	0.2239	0.97322	0.60143	0.011
Mof_C 	C 	0.26799	0.86389	0.70516	0.013
Mof_C 	C 	0.29961	0.88804	0.66831	0.632
Mof_C 	C 	0.2924	0.8636	0.6853	-0.176
Mof_C 	C 	0.26152	0.84085	0.72083	0.011
Mof_C 	C 	0.27199	0.7923	0.73261	0.624
Mof_C 	C 	0.27927	0.81672	0.71726	-0.173
Mof_C 	C 	0.31016	0.83943	0.6819	0.014
Mof_C 	C 	0.30374	0.81647	0.69757	0.012
Mof_C 	C 	0.32264	0.77212	0.62099	0.005
Mof_C 	C 	0.31363	0.76276	0.64841	0.035
Mof_C 	C 	0.24194	0.8995	0.53632	0.02
Mof_C 	C 	0.27304	0.857	0.5283	0.671
Mof_C 	C 	0.24672	0.87369	0.53987	-0.195
Mof_C 	C 	0.2175	0.91423	0.54938	0.017
Mof_C 	C 	0.33257	0.92138	0.66808	0.669
Mof_C 	C 	0.19747	0.90339	0.56615	-0.194
Mof_C 	C 	0.22638	0.86331	0.55592	0.019
Mof_C 	C 	0.20213	0.87794	0.56881	0.022
Mof_O 	O 	0.46103	0.61124	0.50214	-0.829
Mof_O 	O 	0.36883	0.77265	0.52525	-0.803
Mof_O 	O 	0.44352	0.6637	0.48477	-0.82
Mof_O 	O 	0.3837	0.8132	0.49673	-0.792
Mof_O 	O 	0.31969	0.84773	0.47176	-0.809
Mof_O 	O 	0.25626	0.95352	0.64681	-0.759
Mof_O 	O 	0.28098	0.97946	0.6467	-0.756
Mof_O 	O 	0.2839	0.90937	0.67277	-0.759
Mof_O 	O 	0.32149	0.88647	0.65	-0.788
Mof_O 	O 	0.24927	0.79336	0.7494	-0.756
Mof_O 	O 	0.28867	0.77143	0.72771	-0.77
Mof_O 	O 	0.33926	0.7914	0.56556	-0.783
Mof_O 	O 	0.29346	0.74604	0.70249	-0.78
Mof_O 	O 	0.29016	0.86762	0.51111	-0.813
Mof_O 	O 	0.35332	0.83264	0.53657	-0.805
Mof_O 	O 	0.30855	0.93508	0.67227	-0.774
Mof_O 	O 	0.33907	0.90414	0.59943	-0.832
Mof_H 	H 	0.47622	0.57747	0.53902	0.015
Mof_H 	H 	0.40917	0.73515	0.51532	0.019
Mof_H 	H 	0.43529	0.69749	0.50073	0.018
Mof_H 	H 	0.38695	0.86577	0.42554	0.019
Mof_H 	H 	0.43236	0.79634	0.47131	0.019
Mof_H 	H 	0.21061	0.95064	0.66698	0.021
Mof_H 	H 	0.23842	0.97918	0.5829	0.02
Mof_H 	H 	0.25374	0.88199	0.70849	0.02
Mof_H 	H 	0.24241	0.84203	0.73557	0.021
Mof_H 	H 	0.32917	0.83819	0.66698	0.019
Mof_H 	H 	0.31797	0.79849	0.69394	0.021
Mof_H 	H 	0.34107	0.77561	0.6109	0.022
Mof_H 	H 	0.32549	0.75951	0.65835	0.015
Mof_H 	H 	0.2573	0.90802	0.52408	0.02
Mof_H 	H 	0.21452	0.93376	0.5469	0.02
Mof_H 	H 	0.22928	0.84363	0.55895	0.016
Mof_H 	H 	0.18711	0.86898	0.58131	0.016
Mof_Cr	Cr	0.28384	0.6577	0.11423	2.409
Mof_Cr	Cr	0.35963	0.53034	0.30656	2.514
Mof_C 	C 	0.46092	0.54723	0.4224	0.033
Mof_C 	C 	0.39955	0.51247	0.36102	0.017
Mof_C 	C 	0.41455	0.50403	0.37603	0.022
Mof_C 	C 	0.40521	0.42746	0.31679	0.018
Mof_C 	C 	0.3822	0.47489	0.31227	0.662
Mof_C 	C 	0.40641	0.45167	0.31089	-0.189
Mof_C 	C 	0.43068	0.45304	0.30458	0.017
Mof_C 	C 	0.20837	0.64843	0.18594	0.011
Mof_C 	C 	0.25305	0.62501	0.15936	0.619
Mof_C 	C 	0.22795	0.62494	0.18218	-0.171
Mof_C 	C 	0.2239	0.60143	0.20145	0.011
Mof_C 	C 	0.26799	0.70516	0.16297	0.013
Mof_C 	C 	0.29961	0.66831	0.14404	0.632
Mof_C 	C 	0.2924	0.6853	0.1587	-0.176
Mof_C 	C 	0.26152	0.72083	0.17681	0.012
Mof_C 	C 	0.27199	0.73261	0.2031	0.625
Mof_C 	C 	0.27927	0.71726	0.18675	-0.173
Mof_C 	C 	0.31016	0.6819	0.16851	0.014
Mof_C 	C 	0.30374	0.69757	0.18222	0.012
Mof_C 	C 	0.32264	0.62099	0.28425	0.005
Mof_C 	C 	0.31363	0.64841	0.2752	0.035
Mof_C 	C 	0.24194	0.53632	0.32224	0.021
Mof_C 	C 	0.27304	0.5283	0.34166	0.673
Mof_C 	C 	0.24672	0.53987	0.33972	-0.196
Mof_C 	C 	0.2175	0.54938	0.31889	0.017
Mof_C 	C 	0.33257	0.66808	0.07796	0.669
Mof_C 	C 	0.19747	0.56615	0.33299	-0.193
Mof_C 	C 	0.22638	0.55592	0.35438	0.02
Mof_C 	C 	0.20213	0.56881	0.35111	0.021
Mof_O 	O 	0.46103	0.50214	0.42559	-0.828
Mof_O 	O 	0.36883	0.52525	0.33327	-0.803
Mof_O 	O 	0.44352	0.48477	0.40801	-0.82
Mof_O 	O 	0.3837	0.49673	0.30637	-0.791
Mof_O 	O 	0.31969	0.47176	0.36082	-0.809
Mof_O 	O 	0.25626	0.64681	0.14341	-0.759
Mof_O 	O 	0.28098	0.6467	0.09285	-0.755
Mof_O 	O 	0.2839	0.67277	0.13396	-0.759
Mof_O 	O 	0.32149	0.65	0.14205	-0.787
Mof_O 	O 	0.24927	0.7494	0.20797	-0.756
Mof_O 	O 	0.28867	0.72771	0.21218	-0.77
Mof_O 	O 	0.33926	0.56556	0.30379	-0.784
Mof_O 	O 	0.29346	0.70249	0.25801	-0.78
Mof_O 	O 	0.29016	0.51111	0.33112	-0.814
Mof_O 	O 	0.35332	0.53657	0.27746	-0.804
Mof_O 	O 	0.30855	0.67227	0.0841	-0.774
Mof_O 	O 	0.33907	0.59943	0.15737	-0.832
Mof_H 	H 	0.47622	0.53902	0.40729	0.015
Mof_H 	H 	0.40917	0.51532	0.34037	0.019
Mof_H 	H 	0.43529	0.50073	0.36649	0.018
Mof_H 	H 	0.38695	0.42554	0.32174	0.019
Mof_H 	H 	0.43236	0.47131	0.29999	0.019
Mof_H 	H 	0.21061	0.66698	0.17176	0.021
Mof_H 	H 	0.23842	0.5829	0.1995	0.02
Mof_H 	H 	0.25374	0.70849	0.15579	0.02
Mof_H 	H 	0.24241	0.73557	0.17998	0.021
Mof_H 	H 	0.32917	0.66698	0.16567	0.019
Mof_H 	H 	0.31797	0.69394	0.18961	0.021
Mof_H 	H 	0.34107	0.6109	0.27242	0.022
Mof_H 	H 	0.32549	0.65835	0.25665	0.015
Mof_H 	H 	0.2573	0.52408	0.31059	0.02
Mof_H 	H 	0.21452	0.5469	0.30483	0.02
Mof_H 	H 	0.22928	0.55895	0.36814	0.016
Mof_H 	H 	0.18711	0.58131	0.3626	0.016
Mof_Cr	Cr	0.11423	0.94423	0.28384	2.41
Mof_Cr	Cr	0.30656	0.80348	0.35963	2.515
Mof_C 	C 	0.4224	0.56944	0.46092	0.033
Mof_C 	C 	0.36102	0.72696	0.39955	0.017
Mof_C 	C 	0.37603	0.70539	0.41455	0.022
Mof_C 	C 	0.31679	0.85054	0.40521	0.018
Mof_C 	C 	0.31227	0.83063	0.3822	0.662
Mof_C 	C 	0.31089	0.83104	0.40641	-0.189
Mof_C 	C 	0.30458	0.8117	0.43068	0.017
Mof_C 	C 	0.18594	0.95726	0.20837	0.011
Mof_C 	C 	0.15936	0.96258	0.25305	0.619
Mof_C 	C 	0.18218	0.96494	0.22795	-0.171
Mof_C 	C 	0.20145	0.97322	0.2239	0.011
Mof_C 	C 	0.16297	0.86389	0.26799	0.013
Mof_C 	C 	0.14404	0.88804	0.29961	0.632
Mof_C 	C 	0.1587	0.8636	0.2924	-0.176
Mof_C 	C 	0.17681	0.84085	0.26152	0.012
Mof_C 	C 	0.2031	0.7923	0.27199	0.625
Mof_C 	C 	0.18675	0.81672	0.27927	-0.173
Mof_C 	C 	0.16851	0.83943	0.31016	0.014
Mof_C 	C 	0.18222	0.81647	0.30374	0.012
Mof_C 	C 	0.28425	0.77212	0.32264	0.005
Mof_C 	C 	0.2752	0.76276	0.31363	0.035
Mof_C 	C 	0.32224	0.8995	0.24194	0.02
Mof_C 	C 	0.34166	0.857	0.27304	0.671
Mof_C 	C 	0.33972	0.87369	0.24672	-0.195
Mof_C 	C 	0.31889	0.91423	0.2175	0.017
Mof_C 	C 	0.07796	0.92138	0.33257	0.668
Mof_C 	C 	0.33299	0.90339	0.19747	-0.194
Mof_C 	C 	0.35438	0.86331	0.22638	0.019
Mof_C 	C 	0.35111	0.87794	0.20213	0.022
Mof_O 	O 	0.42559	0.61124	0.46103	-0.828
Mof_O 	O 	0.33327	0.77265	0.36883	-0.803
Mof_O 	O 	0.40801	0.6637	0.44352	-0.82
Mof_O 	O 	0.30637	0.8132	0.3837	-0.792
Mof_O 	O 	0.36082	0.84773	0.31969	-0.809
Mof_O 	O 	0.14341	0.95352	0.25626	-0.759
Mof_O 	O 	0.09285	0.97946	0.28098	-0.755
Mof_O 	O 	0.13396	0.90937	0.2839	-0.759
Mof_O 	O 	0.14205	0.88647	0.32149	-0.787
Mof_O 	O 	0.20797	0.79336	0.24927	-0.756
Mof_O 	O 	0.21218	0.77143	0.28867	-0.77
Mof_O 	O 	0.30379	0.7914	0.33926	-0.783
Mof_O 	O 	0.25801	0.74604	0.29346	-0.78
Mof_O 	O 	0.33112	0.86762	0.29016	-0.814
Mof_O 	O 	0.27746	0.83264	0.35332	-0.804
Mof_O 	O 	0.0841	0.93508	0.30855	-0.774
Mof_O 	O 	0.15737	0.90414	0.33907	-0.832
Mof_H 	H 	0.40729	0.57747	0.47622	0.015
Mof_H 	H 	0.34037	0.73515	0.40917	0.019
Mof_H 	H 	0.36649	0.69749	0.43529	0.018
Mof_H 	H 	0.32174	0.86577	0.38695	0.019
Mof_H 	H 	0.29999	0.79634	0.43236	0.019
Mof_H 	H 	0.17176	0.95064	0.21061	0.021
Mof_H 	H 	0.1995	0.97918	0.23842	0.021
Mof_H 	H 	0.15579	0.88199	0.25374	0.02
Mof_H 	H 	0.17998	0.84203	0.24241	0.021
Mof_H 	H 	0.16567	0.83819	0.32917	0.019
Mof_H 	H 	0.18961	0.79849	0.31797	0.021
Mof_H 	H 	0.27242	0.77561	0.34107	0.022
Mof_H 	H 	0.25665	0.75951	0.32549	0.015
Mof_H 	H 	0.31059	0.90802	0.2573	0.02
Mof_H 	H 	0.30483	0.93376	0.21452	0.02
Mof_H 	H 	0.36814	0.84363	0.22928	0.016
Mof_H 	H 	0.3626	0.86898	0.18711	0.016
Mof_Cr	Cr	0.94423	0.11423	0.6577	2.409
Mof_Cr	Cr	0.80348	0.30656	0.53034	2.515
Mof_C 	C 	0.56944	0.4224	0.54723	0.033
Mof_C 	C 	0.72696	0.36102	0.51247	0.017
Mof_C 	C 	0.70539	0.37603	0.50403	0.022
Mof_C 	C 	0.85054	0.31679	0.42746	0.018
Mof_C 	C 	0.83063	0.31227	0.47489	0.662
Mof_C 	C 	0.83104	0.31089	0.45167	-0.19
Mof_C 	C 	0.8117	0.30458	0.45304	0.017
Mof_C 	C 	0.95726	0.18594	0.64843	0.011
Mof_C 	C 	0.96258	0.15936	0.62501	0.619
Mof_C 	C 	0.96494	0.18218	0.62494	-0.171
Mof_C 	C 	0.97322	0.20145	0.60143	0.011
Mof_C 	C 	0.86389	0.16297	0.70516	0.013
Mof_C 	C 	0.88804	0.14404	0.66831	0.632
Mof_C 	C 	0.8636	0.1587	0.6853	-0.176
Mof_C 	C 	0.84085	0.17681	0.72083	0.011
Mof_C 	C 	0.7923	0.2031	0.73261	0.624
Mof_C 	C 	0.81672	0.18675	0.71726	-0.173
Mof_C 	C 	0.83943	0.16851	0.6819	0.014
Mof_C 	C 	0.81647	0.18222	0.69757	0.011
Mof_C 	C 	0.77212	0.28425	0.62099	0.005
Mof_C 	C 	0.76276	0.2752	0.64841	0.035
Mof_C 	C 	0.8995	0.32224	0.53632	0.021
Mof_C 	C 	0.857	0.34166	0.5283	0.672
Mof_C 	C 	0.87369	0.33972	0.53987	-0.196
Mof_C 	C 	0.91423	0.31889	0.54938	0.017
Mof_C 	C 	0.92138	0.07796	0.66808	0.668
Mof_C 	C 	0.90339	0.33299	0.56615	-0.193
Mof_C 	C 	0.86331	0.35438	0.55592	0.02
Mof_C 	C 	0.87794	0.35111	0.56881	0.021
Mof_O 	O 	0.61124	0.42559	0.50214	-0.828
Mof_O 	O 	0.77265	0.33327	0.52525	-0.803
Mof_O 	O 	0.6637	0.40801	0.48477	-0.82
Mof_O 	O 	0.8132	0.30637	0.49673	-0.792
Mof_O 	O 	0.84773	0.36082	0.47176	-0.809
Mof_O 	O 	0.95352	0.14341	0.64681	-0.759
Mof_O 	O 	0.97946	0.09285	0.6467	-0.756
Mof_O 	O 	0.90937	0.13396	0.67277	-0.759
Mof_O 	O 	0.88647	0.14205	0.65	-0.787
Mof_O 	O 	0.79336	0.20797	0.7494	-0.756
Mof_O 	O 	0.77143	0.21218	0.72771	-0.77
Mof_O 	O 	0.7914	0.30379	0.56556	-0.784
Mof_O 	O 	0.74604	0.25801	0.70249	-0.78
Mof_O 	O 	0.86762	0.33112	0.51111	-0.813
Mof_O 	O 	0.83264	0.27746	0.53657	-0.804
Mof_O 	O 	0.93508	0.0841	0.67227	-0.774
Mof_O 	O 	0.90414	0.15737	0.59943	-0.832
Mof_H 	H 	0.57747	0.40729	0.53902	0.015
Mof_H 	H 	0.73515	0.34037	0.51532	0.019
Mof_H 	H 	0.69749	0.36649	0.50073	0.018
Mof_H 	H 	0.86577	0.32174	0.42554	0.019
Mof_H 	H 	0.79634	0.29999	0.47131	0.019
Mof_H 	H 	0.95064	0.17176	0.66698	0.021
Mof_H 	H 	0.97918	0.1995	0.5829	0.021
Mof_H 	H 	0.88199	0.15579	0.70849	0.02
Mof_H 	H 	0.84203	0.17998	0.73557	0.021
Mof_H 	H 	0.83819	0.16567	0.66698	0.019
Mof_H 	H 	0.79849	0.18961	0.69394	0.021
Mof_H 	H 	0.77561	0.27242	0.6109	0.021
Mof_H 	H 	0.75951	0.25665	0.65835	0.015
Mof_H 	H 	0.90802	0.31059	0.52408	0.02
Mof_H 	H 	0.93376	0.30483	0.5469	0.02
Mof_H 	H 	0.84363	0.36814	0.55895	0.016
Mof_H 	H 	0.86898	0.3626	0.58131	0.016
Mof_Cr	Cr	0.6577	0.28384	0.94423	2.41
Mof_Cr	Cr	0.53034	0.35963	0.80348	2.514
Mof_C 	C 	0.54723	0.46092	0.56944	0.033
Mof_C 	C 	0.51247	0.39955	0.72696	0.017
Mof_C 	C 	0.50403	0.41455	0.70539	0.022
Mof_C 	C 	0.42746	0.40521	0.85054	0.018
Mof_C 	C 	0.47489	0.3822	0.83063	0.662
Mof_C 	C 	0.45167	0.40641	0.83104	-0.189
Mof_C 	C 	0.45304	0.43068	0.8117	0.017
Mof_C 	C 	0.64843	0.20837	0.95726	0.012
Mof_C 	C 	0.62501	0.25305	0.96258	0.62
Mof_C 	C 	0.62494	0.22795	0.96494	-0.171
Mof_C 	C 	0.60143	0.2239	0.97322	0.011
Mof_C 	C 	0.70516	0.26799	0.86389	0.013
Mof_C 	C 	0.66831	0.29961	0.88804	0.632
Mof_C 	C 	0.6853	0.2924	0.8636	-0.176
Mof_C 	C 	0.72083	0.26152	0.84085	0.011
Mof_C 	C 	0.73261	0.27199	0.7923	0.624
Mof_C 	C 	0.71726	0.27927	0.81672	-0.173
Mof_C 	C 	0.6819	0.31016	0.83943	0.014
Mof_C 	C 	0.69757	0.30374	0.81647	0.012
Mof_C 	C 	0.62099	0.32264	0.77212	0.005
Mof_C 	C 	0.64841	0.31363	0.76276	0.035
Mof_C 	C 	0.53632	0.24194	0.8995	0.02
Mof_C 	C 	0.5283	0.27304	0.857	0.671
Mof_C 	C 	0.53987	0.24672	0.87369	-0.195
Mof_C 	C 	0.54938	0.2175	0.91423	0.017
Mof_C 	C 	0.66808	0.33257	0.92138	0.669
Mof_C 	C 	0.56615	0.19747	0.90339	-0.194
Mof_C 	C 	0.55592	0.22638	0.86331	0.019
Mof_C 	C 	0.56881	0.20213	0.87794	0.022
Mof_O 	O 	0.50214	0.46103	0.61124	-0.829
Mof_O 	O 	0.52525	0.36883	0.77265	-0.803
Mof_O 	O 	0.48477	0.44352	0.6637	-0.82
Mof_O 	O 	0.49673	0.3837	0.8132	-0.792
Mof_O 	O 	0.47176	0.31969	0.84773	-0.809
Mof_O 	O 	0.64681	0.25626	0.95352	-0.759
Mof_O 	O 	0.6467	0.28098	0.97946	-0.756
Mof_O 	O 	0.67277	0.2839	0.90937	-0.759
Mof_O 	O 	0.65	0.32149	0.88647	-0.788
Mof_O 	O 	0.7494	0.24927	0.79336	-0.756
Mof_O 	O 	0.72771	0.28867	0.77143	-0.77
Mof_O 	O 	0.56556	0.33926	0.7914	-0.783
Mof_O 	O 	0.70249	0.29346	0.74604	-0.78
Mof_O 	O 	0.51111	0.29016	0.86762	-0.813
Mof_O 	O 	0.53657	0.35332	0.83264	-0.805
Mof_O 	O 	0.67227	0.30855	0.93508	-0.774
Mof_O 	O 	0.59943	0.33907	0.90414	-0.832
Mof_H 	H 	0.53902	0.47622	0.57747	0.015
Mof_H 	H 	0.51532	0.40917	0.73515	0.019
Mof_H 	H 	0.50073	0.43529	0.69749	0.018
Mof_H 	H 	0.42554	0.38695	0.86577	0.019
Mof_H 	H 	0.47131	0.43236	0.79634	0.019
Mof_H 	H 	0.66698	0.21061	0.95064	0.021
Mof_H 	H 	0.5829	0.23842	0.97918	0.02
Mof_H 	H 	0.70849	0.25374	0.88199	0.02
Mof_H 	H 	0.73557	0.24241	0.84203	0.021
Mof_H 	H 	0.66698	0.32917	0.83819	0.019
Mof_H 	H 	0.69394	0.31797	0.79849	0.021
Mof_H 	H 	0.6109	0.34107	0.77561	0.022
Mof_H 	H 	0.65835	0.32549	0.75951	0.015
Mof_H 	H 	0.52408	0.2573	0.90802	0.02
Mof_H 	H 	0.5469	0.21452	0.93376	0.02
Mof_H 	H 	0.55895	0.22928	0.84363	0.016
Mof_H 	H 	0.58131	0.18711	0.86898	0.016
Mof_Cr	Cr	0.13577	0.96616	0.30577	2.41
Mof_Cr	Cr	0.94344	0.89037	0.44652	2.515
Mof_C 	C 	0.8276	0.78908	0.68056	0.033
Mof_C 	C 	0.88898	0.85045	0.52304	0.017
Mof_C 	C 	0.87397	0.83545	0.54461	0.022
Mof_C 	C 	0.93321	0.84479	0.39946	0.018
Mof_C 	C 	0.93773	0.8678	0.41937	0.662
Mof_C 	C 	0.93911	0.84359	0.41896	-0.189
Mof_C 	C 	0.94542	0.81932	0.4383	0.017
Mof_C 	C 	0.06406	0.04163	0.29274	0.011
Mof_C 	C 	0.09064	0.99695	0.28742	0.619
Mof_C 	C 	0.06782	0.02205	0.28506	-0.171
Mof_C 	C 	0.04855	0.0261	0.27678	0.011
Mof_C 	C 	0.08703	0.98201	0.38611	0.013
Mof_C 	C 	0.10596	0.95039	0.36196	0.632
Mof_C 	C 	0.0913	0.9576	0.3864	-0.175
Mof_C 	C 	0.07319	0.98848	0.40915	0.012
Mof_C 	C 	0.0469	0.97801	0.4577	0.625
Mof_C 	C 	0.06325	0.97073	0.43328	-0.173
Mof_C 	C 	0.08149	0.93984	0.41057	0.014
Mof_C 	C 	0.06778	0.94626	0.43353	0.012
Mof_C 	C 	0.96575	0.92736	0.47788	0.005
Mof_C 	C 	0.9748	0.93637	0.48724	0.035
Mof_C 	C 	0.92776	0.00806	0.3505	0.02
Mof_C 	C 	0.90834	0.97696	0.393	0.672
Mof_C 	C 	0.91028	0.00328	0.37631	-0.196
Mof_C 	C 	0.93111	0.0325	0.33577	0.017
Mof_C 	C 	0.17204	0.91743	0.32862	0.668
Mof_C 	C 	0.91701	0.05253	0.34661	-0.194
Mof_C 	C 	0.89562	0.02362	0.38669	0.019
Mof_C 	C 	0.89889	0.04787	0.37206	0.022
Mof_O 	O 	0.82441	0.78897	0.63876	-0.828
Mof_O 	O 	0.91673	0.88117	0.47735	-0.803
Mof_O 	O 	0.84199	0.80648	0.5863	-0.82
Mof_O 	O 	0.94363	0.8663	0.4368	-0.792
Mof_O 	O 	0.88918	0.93031	0.40227	-0.809
Mof_O 	O 	0.10659	0.99374	0.29648	-0.759
Mof_O 	O 	0.15715	0.96902	0.27054	-0.755
Mof_O 	O 	0.11604	0.9661	0.34063	-0.759
Mof_O 	O 	0.10795	0.92851	0.36353	-0.787
Mof_O 	O 	0.04203	0.00073	0.45664	-0.756
Mof_O 	O 	0.03782	0.96133	0.47857	-0.77
Mof_O 	O 	0.94621	0.91074	0.4586	-0.783
Mof_O 	O 	0.99199	0.95654	0.50396	-0.779
Mof_O 	O 	0.91888	0.95984	0.38238	-0.814
Mof_O 	O 	0.97254	0.89668	0.41736	-0.804
Mof_O 	O 	0.1659	0.94145	0.31492	-0.774
Mof_O 	O 	0.09263	0.91093	0.34586	-0.832
Mof_H 	H 	0.84271	0.77378	0.67253	0.015
Mof_H 	H 	0.90963	0.84083	0.51485	0.019
Mof_H 	H 	0.88351	0.81471	0.55251	0.018
Mof_H 	H 	0.92826	0.86305	0.38423	0.019
Mof_H 	H 	0.95001	0.81764	0.45366	0.019
Mof_H 	H 	0.07824	0.03939	0.29936	0.021
Mof_H 	H 	0.0505	0.01158	0.27082	0.02
Mof_H 	H 	0.09421	0.99626	0.36801	0.02
Mof_H 	H 	0.07002	0.00759	0.40797	0.02
Mof_H 	H 	0.08433	0.92083	0.41181	0.019
Mof_H 	H 	0.06039	0.93203	0.45151	0.021
Mof_H 	H 	0.97758	0.90893	0.47439	0.022
Mof_H 	H 	0.99335	0.92451	0.49049	0.015
Mof_H 	H 	0.93941	0.9927	0.34198	0.021
Mof_H 	H 	0.94517	0.03548	0.31624	0.02
Mof_H 	H 	0.88186	0.02072	0.40637	0.016
Mof_H 	H 	0.8874	0.06289	0.38102	0.016
Mof_Cr	Cr	0.96616	0.13577	0.5923	2.409
Mof_Cr	Cr	0.89037	0.94344	0.71966	2.514
Mof_C 	C 	0.78908	0.8276	0.70277	0.033
Mof_C 	C 	0.85045	0.88898	0.73753	0.017
Mof_C 	C 	0.83545	0.87397	0.74597	0.022
Mof_C 	C 	0.84479	0.93321	0.82254	0.018
Mof_C 	C 	0.8678	0.93773	0.77511	0.662
Mof_C 	C 	0.84359	0.93911	0.79833	-0.189
Mof_C 	C 	0.81932	0.94542	0.79696	0.017
Mof_C 	C 	0.04163	0.06406	0.60157	0.011
Mof_C 	C 	0.99695	0.09064	0.62499	0.62
Mof_C 	C 	0.02205	0.06782	0.62506	-0.172
Mof_C 	C 	0.0261	0.04855	0.64857	0.011
Mof_C 	C 	0.98201	0.08703	0.54484	0.012
Mof_C 	C 	0.95039	0.10596	0.58169	0.632
Mof_C 	C 	0.9576	0.0913	0.5647	-0.175
Mof_C 	C 	0.98848	0.07319	0.52917	0.012
Mof_C 	C 	0.97801	0.0469	0.51739	0.625
Mof_C 	C 	0.97073	0.06325	0.53274	-0.173
Mof_C 	C 	0.93984	0.08149	0.5681	0.014
Mof_C 	C 	0.94626	0.06778	0.55243	0.012
Mof_C 	C 	0.92736	0.96575	0.62901	0.005
Mof_C 	C 	0.93637	0.9748	0.60159	0.035
Mof_C 	C 	0.00806	0.92776	0.71368	0.02
Mof_C 	C 	0.97696	0.90834	0.7217	0.673
Mof_C 	C 	0.00328	0.91028	0.71013	-0.196
Mof_C 	C 	0.0325	0.93111	0.70062	0.017
Mof_C 	C 	0.91743	0.17204	0.58192	0.669
Mof_C 	C 	0.05253	0.91701	0.68385	-0.193
Mof_C 	C 	0.02362	0.89562	0.69408	0.02
Mof_C 	C 	0.04787	0.89889	0.68119	0.021
Mof_O 	O 	0.78897	0.82441	0.74786	-0.828
Mof_O 	O 	0.88117	0.91673	0.72475	-0.803
Mof_O 	O 	0.80648	0.84199	0.76523	-0.82
Mof_O 	O 	0.8663	0.94363	0.75327	-0.791
Mof_O 	O 	0.93031	0.88918	0.77824	-0.809
Mof_O 	O 	0.99374	0.10659	0.60319	-0.759
Mof_O 	O 	0.96902	0.15715	0.6033	-0.755
Mof_O 	O 	0.9661	0.11604	0.57723	-0.759
Mof_O 	O 	0.92851	0.10795	0.6	-0.787
Mof_O 	O 	0.00073	0.04203	0.5006	-0.756
Mof_O 	O 	0.96133	0.03782	0.52229	-0.77
Mof_O 	O 	0.91074	0.94621	0.68444	-0.784
Mof_O 	O 	0.95654	0.99199	0.54751	-0.779
Mof_O 	O 	0.95984	0.91888	0.73889	-0.814
Mof_O 	O 	0.89668	0.97254	0.71343	-0.804
Mof_O 	O 	0.94145	0.1659	0.57773	-0.774
Mof_O 	O 	0.91093	0.09263	0.65057	-0.832
Mof_H 	H 	0.77378	0.84271	0.71098	0.015
Mof_H 	H 	0.84083	0.90963	0.73468	0.019
Mof_H 	H 	0.81471	0.88351	0.74927	0.018
Mof_H 	H 	0.86305	0.92826	0.82446	0.019
Mof_H 	H 	0.81764	0.95001	0.77869	0.019
Mof_H 	H 	0.03939	0.07824	0.58302	0.021
Mof_H 	H 	0.01158	0.0505	0.6671	0.02
Mof_H 	H 	0.99626	0.09421	0.54151	0.02
Mof_H 	H 	0.00759	0.07002	0.51443	0.02
Mof_H 	H 	0.92083	0.08433	0.58302	0.019
Mof_H 	H 	0.93203	0.06039	0.55606	0.021
Mof_H 	H 	0.90893	0.97758	0.6391	0.022
Mof_H 	H 	0.92451	0.99335	0.59165	0.015
Mof_H 	H 	0.9927	0.93941	0.72592	0.02
Mof_H 	H 	0.03548	0.94517	0.7031	0.02
Mof_H 	H 	0.02072	0.88186	0.69105	0.016
Mof_H 	H 	0.06289	0.8874	0.66869	0.016
Mof_Cr	Cr	0.5923	0.30577	0.96616	2.41
Mof_Cr	Cr	0.71966	0.44652	0.89037	2.514
Mof_C 	C 	0.70277	0.68056	0.78908	0.033
Mof_C 	C 	0.73753	0.52304	0.85045	0.017
Mof_C 	C 	0.74597	0.54461	0.83545	0.022
Mof_C 	C 	0.82254	0.39946	0.84479	0.018
Mof_C 	C 	0.77511	0.41937	0.8678	0.662
Mof_C 	C 	0.79833	0.41896	0.84359	-0.189
Mof_C 	C 	0.79696	0.4383	0.81932	0.017
Mof_C 	C 	0.60157	0.29274	0.04163	0.012
Mof_C 	C 	0.62499	0.28742	0.99695	0.62
Mof_C 	C 	0.62506	0.28506	0.02205	-0.172
Mof_C 	C 	0.64857	0.27678	0.0261	0.011
Mof_C 	C 	0.54484	0.38611	0.98201	0.013
Mof_C 	C 	0.58169	0.36196	0.95039	0.632
Mof_C 	C 	0.5647	0.3864	0.9576	-0.176
Mof_C 	C 	0.52917	0.40915	0.98848	0.012
Mof_C 	C 	0.51739	0.4577	0.97801	0.625
Mof_C 	C 	0.53274	0.43328	0.97073	-0.173
Mof_C 	C 	0.5681	0.41057	0.93984	0.014
Mof_C 	C 	0.55243	0.43353	0.94626	0.012
Mof_C 	C 	0.62901	0.47788	0.92736	0.005
Mof_C 	C 	0.60159	0.48724	0.93637	0.035
Mof_C 	C 	0.71368	0.3505	0.00806	0.02
Mof_C 	C 	0.7217	0.393	0.97696	0.672
Mof_C 	C 	0.71013	0.37631	0.00328	-0.196
Mof_C 	C 	0.70062	0.33577	0.0325	0.017
Mof_C 	C 	0.58192	0.32862	0.91743	0.669
Mof_C 	C 	0.68385	0.34661	0.05253	-0.194
Mof_C 	C 	0.69408	0.38669	0.02362	0.019
Mof_C 	C 	0.68119	0.37206	0.04787	0.021
Mof_O 	O 	0.74786	0.63876	0.78897	-0.829
Mof_O 	O 	0.72475	0.47735	0.88117	-0.803
Mof_O 	O 	0.76523	0.5863	0.80648	-0.82
Mof_O 	O 	0.75327	0.4368	0.8663	-0.792
Mof_O 	O 	0.77824	0.40227	0.93031	-0.809
Mof_O 	O 	0.60319	0.29648	0.99374	-0.759
Mof_O 	O 	0.6033	0.27054	0.96902	-0.756
Mof_O 	O 	0.57723	0.34063	0.9661	-0.759
Mof_O 	O 	0.6	0.36353	0.92851	-0.788
Mof_O 	O 	0.5006	0.45664	0.00073	-0.756
Mof_O 	O 	0.52229	0.47857	0.96133	-0.77
Mof_O 	O 	0.68444	0.4586	0.91074	-0.783
Mof_O 	O 	0.54751	0.50396	0.95654	-0.78
Mof_O 	O 	0.73889	0.38238	0.95984	-0.813
Mof_O 	O 	0.71343	0.41736	0.89668	-0.805
Mof_O 	O 	0.57773	0.31492	0.94145	-0.774
Mof_O 	O 	0.65057	0.34586	0.91093	-0.832
Mof_H 	H 	0.71098	0.67253	0.77378	0.015
Mof_H 	H 	0.73468	0.51485	0.84083	0.019
Mof_H 	H 	0.74927	0.55251	0.81471	0.018
Mof_H 	H 	0.82446	0.38423	0.86305	0.019
Mof_H 	H 	0.77869	0.45366	0.81764	0.019
Mof_H 	H 	0.58302	0.29936	0.03939	0.021
Mof_H 	H 	0.6671	0.27082	0.01158	0.02
Mof_H 	H 	0.54151	0.36801	0.99626	0.02
Mof_H 	H 	0.51443	0.40797	0.00759	0.02
Mof_H 	H 	0.58302	0.41181	0.92083	0.019
Mof_H 	H 	0.55606	0.45151	0.93203	0.021
Mof_H 	H 	0.6391	0.47439	0.90893	0.022
Mof_H 	H 	0.59165	0.49049	0.92451	0.015
Mof_H 	H 	0.72592	0.34198	0.9927	0.021
Mof_H 	H 	0.7031	0.31624	0.03548	0.02
Mof_H 	H 	0.69105	0.40637	0.02072	0.016
Mof_H 	H 	0.66869	0.38102	0.06289	0.016
Mof_Cr	Cr	0.30577	0.5923	0.13577	2.409
Mof_Cr	Cr	0.44652	0.71966	0.94344	2.515
Mof_C 	C 	0.68056	0.70277	0.8276	0.033
Mof_C 	C 	0.52304	0.73753	0.88898	0.017
Mof_C 	C 	0.54461	0.74597	0.87397	0.022
Mof_C 	C 	0.39946	0.82254	0.93321	0.018
Mof_C 	C 	0.41937	0.77511	0.93773	0.662
Mof_C 	C 	0.41896	0.79833	0.93911	-0.19
Mof_C 	C 	0.4383	0.79696	0.94542	0.017
Mof_C 	C 	0.29274	0.60157	0.06406	0.011
Mof_C 	C 	0.28742	0.62499	0.09064	0.619
Mof_C 	C 	0.28506	0.62506	0.06782	-0.171
Mof_C 	C 	0.27678	0.64857	0.04855	0.011
Mof_C 	C 	0.38611	0.54484	0.08703	0.013
Mof_C 	C 	0.36196	0.58169	0.10596	0.632
Mof_C 	C 	0.3864	0.5647	0.0913	-0.176
Mof_C 	C 	0.40915	0.52917	0.07319	0.011
Mof_C 	C 	0.4577	0.51739	0.0469	0.624
Mof_C 	C 	0.43328	0.53274	0.06325	-0.173
Mof_C 	C 	0.41057	0.5681	0.08149	0.014
Mof_C 	C 	0.43353	0.55243	0.06778	0.011
Mof_C 	C 	0.47788	0.62901	0.96575	0.005
Mof_C 	C 	0.48724	0.60159	0.9748	0.035
Mof_C 	C 	0.3505	0.71368	0.92776	0.021
Mof_C 	C 	0.393	0.7217	0.90834	0.672
Mof_C 	C 	0.37631	0.71013	0.91028	-0.196
Mof_C 	C 	0.33577	0.70062	0.93111	0.017
Mof_C 	C 	0.32862	0.58192	0.17204	0.668
Mof_C 	C 	0.34661	0.68385	0.91701	-0.193
Mof_C 	C 	0.38669	0.69408	0.89562	0.02
Mof_C 	C 	0.37206	0.68119	0.89889	0.021
Mof_O 	O 	0.63876	0.74786	0.82441	-0.828
Mof_O 	O 	0.47735	0.72475	0.91673	-0.803
Mof_O 	O 	0.5863	0.76523	0.84199	-0.82
Mof_O 	O 	0.4368	0.75327	0.94363	-0.792
Mof_O 	O 	0.40227	0.77824	0.88918	-0.809
Mof_O 	O 	0.29648	0.60319	0.10659	-0.759
Mof_O 	O 	0.27054	0.6033	0.15715	-0.756
Mof_O 	O 	0.34063	0.57723	0.11604	-0.759
Mof_O 	O 	0.36353	0.6	0.10795	-0.787
Mof_O 	O 	0.45664	0.5006	0.04203	-0.756
Mof_O 	O 	0.47857	0.52229	0.03782	-0.769
Mof_O 	O 	0.4586	0.68444	0.94621	-0.784
Mof_O 	O 	0.50396	0.54751	0.99199	-0.779
Mof_O 	O 	0.38238	0.73889	0.91888	-0.813
Mof_O 	O 	0.41736	0.71343	0.97254	-0.804
Mof_O 	O 	0.31492	0.57773	0.1659	-0.774
Mof_O 	O 	0.34586	0.65057	0.09263	-0.832
Mof_H 	H 	0.67253	0.71098	0.84271	0.015
Mof_H 	H 	0.51485	0.73468	0.90963	0.019
Mof_H 	H 	0.55251	0.74927	0.88351	0.018
Mof_H 	H 	0.38423	0.82446	0.92826	0.019
Mof_H 	H 	0.45366	0.77869	0.95001	0.019
Mof_H 	H 	0.29936	0.58302	0.07824	0.021
Mof_H 	H 	0.27082	0.6671	0.0505	0.021
Mof_H 	H 	0.36801	0.54151	0.09421	0.02
Mof_H 	H 	0.40797	0.51443	0.07002	0.021
Mof_H 	H 	0.41181	0.58302	0.08433	0.019
Mof_H 	H 	0.45151	0.55606	0.06039	0.021
Mof_H 	H 	0.47439	0.6391	0.97758	0.022
Mof_H 	H 	0.49049	0.59165	0.99335	0.015
Mof_H 	H 	0.34198	0.72592	0.93941	0.02
Mof_H 	H 	0.31624	0.7031	0.94517	0.02
Mof_H 	H 	0.40637	0.69105	0.88186	0.016
Mof_H 	H 	0.38102	0.66869	0.8874	0.016
Mof_Cr	Cr	0.5923	0.13577	0.30577	2.409
Mof_Cr	Cr	0.71966	0.94344	0.44652	2.515
Mof_C 	C 	0.70277	0.8276	0.68056	0.033
Mof_C 	C 	0.73753	0.88898	0.52304	0.017
Mof_C 	C 	0.74597	0.87397	0.54461	0.022
Mof_C 	C 	0.82254	0.93321	0.39946	0.018
Mof_C 	C 	0.77511	0.93773	0.41937	0.662
Mof_C 	C 	0.79833	0.93911	0.41896	-0.19
Mof_C 	C 	0.79696	0.94542	0.4383	0.017
Mof_C 	C 	0.60157	0.06406	0.29274	0.011
Mof_C 	C 	0.62499	0.09064	0.28742	0.619
Mof_C 	C 	0.62506	0.06782	0.28506	-0.171
Mof_C 	C 	0.64857	0.04855	0.27678	0.011
Mof_C 	C 	0.54484	0.08703	0.38611	0.013
Mof_C 	C 	0.58169	0.10596	0.36196	0.632
Mof_C 	C 	0.5647	0.0913	0.3864	-0.176
Mof_C 	C 	0.52917	0.07319	0.40915	0.011
Mof_C 	C 	0.51739	0.0469	0.4577	0.624
Mof_C 	C 	0.53274	0.06325	0.43328	-0.173
Mof_C 	C 	0.5681	0.08149	0.41057	0.014
Mof_C 	C 	0.55243	0.06778	0.43353	0.011
Mof_C 	C 	0.62901	0.96575	0.47788	0.005
Mof_C 	C 	0.60159	0.9748	0.48724	0.035
Mof_C 	C 	0.71368	0.92776	0.3505	0.021
Mof_C 	C 	0.7217	0.90834	0.393	0.672
Mof_C 	C 	0.71013	0.91028	0.37631	-0.196
Mof_C 	C 	0.70062	0.93111	0.33577	0.017
Mof_C 	C 	0.58192	0.17204	0.32862	0.668
Mof_C 	C 	0.68385	0.91701	0.34661	-0.193
Mof_C 	C 	0.69408	0.89562	0.38669	0.02
Mof_C 	C 	0.68119	0.89889	0.37206	0.021
Mof_O 	O 	0.74786	0.82441	0.63876	-0.828
Mof_O 	O 	0.72475	0.91673	0.47735	-0.803
Mof_O 	O 	0.76523	0.84199	0.5863	-0.82
Mof_O 	O 	0.75327	0.94363	0.4368	-0.792
Mof_O 	O 	0.77824	0.88918	0.40227	-0.809
Mof_O 	O 	0.60319	0.10659	0.29648	-0.759
Mof_O 	O 	0.6033	0.15715	0.27054	-0.756
Mof_O 	O 	0.57723	0.11604	0.34063	-0.759
Mof_O 	O 	0.6	0.10795	0.36353	-0.787
Mof_O 	O 	0.5006	0.04203	0.45664	-0.756
Mof_O 	O 	0.52229	0.03782	0.47857	-0.769
Mof_O 	O 	0.68444	0.94621	0.4586	-0.784
Mof_O 	O 	0.54751	0.99199	0.50396	-0.779
Mof_O 	O 	0.73889	0.91888	0.38238	-0.813
Mof_O 	O 	0.71343	0.97254	0.41736	-0.804
Mof_O 	O 	0.57773	0.1659	0.31492	-0.774
Mof_O 	O 	0.65057	0.09263	0.34586	-0.832
Mof_H 	H 	0.71098	0.84271	0.67253	0.015
Mof_H 	H 	0.73468	0.90963	0.51485	0.019
Mof_H 	H 	0.74927	0.88351	0.55251	0.018
Mof_H 	H 	0.82446	0.92826	0.38423	0.019
Mof_H 	H 	0.77869	0.95001	0.45366	0.019
Mof_H 	H 	0.58302	0.07824	0.29936	0.021
Mof_H 	H 	0.6671	0.0505	0.27082	0.021
Mof_H 	H 	0.54151	0.09421	0.36801	0.02
Mof_H 	H 	0.51443	0.07002	0.40797	0.021
Mof_H 	H 	0.58302	0.08433	0.41181	0.019
Mof_H 	H 	0.55606	0.06039	0.45151	0.021
Mof_H 	H 	0.6391	0.97758	0.47439	0.022
Mof_H 	H 	0.59165	0.99335	0.49049	0.015
Mof_H 	H 	0.72592	0.93941	0.34198	0.02
Mof_H 	H 	0.7031	0.94517	0.31624	0.02
Mof_H 	H 	0.69105	0.88186	0.40637	0.016
Mof_H 	H 	0.66869	0.8874	0.38102	0.016
Mof_Cr	Cr	0.30577	0.96616	0.5923	2.41
Mof_Cr	Cr	0.44652	0.89037	0.71966	2.514
Mof_C 	C 	0.68056	0.78908	0.70277	0.033
Mof_C 	C 	0.52304	0.85045	0.73753	0.017
Mof_C 	C 	0.54461	0.83545	0.74597	0.022
Mof_C 	C 	0.39946	0.84479	0.82254	0.018
Mof_C 	C 	0.41937	0.8678	0.77511	0.662
Mof_C 	C 	0.41896	0.84359	0.79833	-0.189
Mof_C 	C 	0.4383	0.81932	0.79696	0.017
Mof_C 	C 	0.29274	0.04163	0.60157	0.012
Mof_C 	C 	0.28742	0.99695	0.62499	0.62
Mof_C 	C 	0.28506	0.02205	0.62506	-0.172
Mof_C 	C 	0.27678	0.0261	0.64857	0.011
Mof_C 	C 	0.38611	0.98201	0.54484	0.013
Mof_C 	C 	0.36196	0.95039	0.58169	0.632
Mof_C 	C 	0.3864	0.9576	0.5647	-0.176
Mof_C 	C 	0.40915	0.98848	0.52917	0.012
Mof_C 	C 	0.4577	0.97801	0.51739	0.625
Mof_C 	C 	0.43328	0.97073	0.53274	-0.173
Mof_C 	C 	0.41057	0.93984	0.5681	0.014
Mof_C 	C 	0.43353	0.94626	0.55243	0.012
Mof_C 	C 	0.47788	0.92736	0.62901	0.005
Mof_C 	C 	0.48724	0.93637	0.60159	0.035
Mof_C 	C 	0.3505	0.00806	0.71368	0.02
Mof_C 	C 	0.393	0.97696	0.7217	0.672
Mof_C 	C 	0.37631	0.00328	0.71013	-0.196
Mof_C 	C 	0.33577	0.0325	0.70062	0.017
Mof_C 	C 	0.32862	0.91743	0.58192	0.669
Mof_C 	C 	0.34661	0.05253	0.68385	-0.194
Mof_C 	C 	0.38669	0.02362	0.69408	0.019
Mof_C 	C 	0.37206	0.04787	0.68119	0.021
Mof_O 	O 	0.63876	0.78897	0.74786	-0.829
Mof_O 	O 	0.47735	0.88117	0.72475	-0.803
Mof_O 	O 	0.5863	0.80648	0.76523	-0.82
Mof_O 	O 	0.4368	0.8663	0.75327	-0.792
Mof_O 	O 	0.40227	0.93031	0.77824	-0.809
Mof_O 	O 	0.29648	0.99374	0.60319	-0.759
Mof_O 	O 	0.27054	0.96902	0.6033	-0.756
Mof_O 	O 	0.34063	0.9661	0.57723	-0.759
Mof_O 	O 	0.36353	0.92851	0.6	-0.788
Mof_O 	O 	0.45664	0.00073	0.5006	-0.756
Mof_O 	O 	0.47857	0.96133	0.52229	-0.77
Mof_O 	O 	0.4586	0.91074	0.68444	-0.783
Mof_O 	O 	0.50396	0.95654	0.54751	-0.78
Mof_O 	O 	0.38238	0.95984	0.73889	-0.813
Mof_O 	O 	0.41736	0.89668	0.71343	-0.805
Mof_O 	O 	0.31492	0.94145	0.57773	-0.774
Mof_O 	O 	0.34586	0.91093	0.65057	-0.832
Mof_H 	H 	0.67253	0.77378	0.71098	0.015
Mof_H 	H 	0.51485	0.84083	0.73468	0.019
Mof_H 	H 	0.55251	0.81471	0.74927	0.018
Mof_H 	H 	0.38423	0.86305	0.82446	0.019
Mof_H 	H 	0.45366	0.81764	0.77869	0.019
Mof_H 	H 	0.29936	0.03939	0.58302	0.021
Mof_H 	H 	0.27082	0.01158	0.6671	0.02
Mof_H 	H 	0.36801	0.99626	0.54151	0.02
Mof_H 	H 	0.40797	0.00759	0.51443	0.02
Mof_H 	H 	0.41181	0.92083	0.58302	0.019
Mof_H 	H 	0.45151	0.93203	0.55606	0.021
Mof_H 	H 	0.47439	0.90893	0.6391	0.022
Mof_H 	H 	0.49049	0.92451	0.59165	0.015
Mof_H 	H 	0.34198	0.9927	0.72592	0.021
Mof_H 	H 	0.31624	0.03548	0.7031	0.02
Mof_H 	H 	0.40637	0.02072	0.69105	0.016
Mof_H 	H 	0.38102	0.06289	0.66869	0.016
Mof_Cr	Cr	0.13577	0.5923	0.96616	2.409
Mof_Cr	Cr	0.94344	0.71966	0.89037	2.514
Mof_C 	C 	0.8276	0.70277	0.78908	0.033
Mof_C 	C 	0.88898	0.73753	0.85045	0.017
Mof_C 	C 	0.87397	0.74597	0.83545	0.022
Mof_C 	C 	0.93321	0.82254	0.84479	0.018
Mof_C 	C 	0.93773	0.77511	0.8678	0.662
Mof_C 	C 	0.93911	0.79833	0.84359	-0.189
Mof_C 	C 	0.94542	0.79696	0.81932	0.017
Mof_C 	C 	0.06406	0.60157	0.04163	0.011
Mof_C 	C 	0.09064	0.62499	0.99695	0.62
Mof_C 	C 	0.06782	0.62506	0.02205	-0.172
Mof_C 	C 	0.04855	0.64857	0.0261	0.011
Mof_C 	C 	0.08703	0.54484	0.98201	0.012
Mof_C 	C 	0.10596	0.58169	0.95039	0.632
Mof_C 	C 	0.0913	0.5647	0.9576	-0.175
Mof_C 	C 	0.07319	0.52917	0.98848	0.012
Mof_C 	C 	0.0469	0.51739	0.97801	0.625
Mof_C 	C 	0.06325	0.53274	0.97073	-0.173
Mof_C 	C 	0.08149	0.5681	0.93984	0.014
Mof_C 	C 	0.06778	0.55243	0.94626	0.012
Mof_C 	C 	0.96575	0.62901	0.92736	0.005
Mof_C 	C 	0.9748	0.60159	0.93637	0.035
Mof_C 	C 	0.92776	0.71368	0.00806	0.02
Mof_C 	C 	0.90834	0.7217	0.97696	0.673
Mof_C 	C 	0.91028	0.71013	0.00328	-0.196
Mof_C 	C 	0.93111	0.70062	0.0325	0.017
Mof_C 	C 	0.17204	0.58192	0.91743	0.669
Mof_C 	C 	0.91701	0.68385	0.05253	-0.193
Mof_C 	C 	0.89562	0.69408	0.02362	0.02
Mof_C 	C 	0.89889	0.68119	0.04787	0.021
Mof_O 	O 	0.82441	0.74786	0.78897	-0.828
Mof_O 	O 	0.91673	0.72475	0.88117	-0.803
Mof_O 	O 	0.84199	0.76523	0.80648	-0.82
Mof_O 	O 	0.94363	0.75327	0.8663	-0.791
Mof_O 	O 	0.88918	0.77824	0.93031	-0.809
Mof_O 	O 	0.10659	0.60319	0.99374	-0.759
Mof_O 	O 	0.15715	0.6033	0.96902	-0.755
Mof_O 	O 	0.11604	0.57723	0.9661	-0.759
Mof_O 	O 	0.10795	0.6	0.92851	-0.787
Mof_O 	O 	0.04203	0.5006	0.00073	-0.756
Mof_O 	O 	0.03782	0.52229	0.96133	-0.77
Mof_O 	O 	0.94621	0.68444	0.91074	-0.784
Mof_O 	O 	0.99199	0.54751	0.95654	-0.779
Mof_O 	O 	0.91888	0.73889	0.95984	-0.814
Mof_O 	O 	0.97254	0.71343	0.89668	-0.804
Mof_O 	O 	0.1659	0.57773	0.94145	-0.774
Mof_O 	O 	0.09263	0.65057	0.91093	-0.832
Mof_H 	H 	0.84271	0.71098	0.77378	0.015
Mof_H 	H 	0.90963	0.73468	0.84083	0.019
Mof_H 	H 	0.88351	0.74927	0.81471	0.018
Mof_H 	H 	0.92826	0.82446	0.86305	0.019
Mof_H 	H 	0.95001	0.77869	0.81764	0.019
Mof_H 	H 	0.07824	0.58302	0.03939	0.021
Mof_H 	H 	0.0505	0.6671	0.01158	0.02
Mof_H 	H 	0.09421	0.54151	0.99626	0.02
Mof_H 	H 	0.07002	0.51443	0.00759	0.02
Mof_H 	H 	0.08433	0.58302	0.92083	0.019
Mof_H 	H 	0.06039	0.55606	0.93203	0.021
Mof_H 	H 	0.97758	0.6391	0.90893	0.022
Mof_H 	H 	0.99335	0.59165	0.92451	0.015
Mof_H 	H 	0.93941	0.72592	0.9927	0.02
Mof_H 	H 	0.94517	0.7031	0.03548	0.02
Mof_H 	H 	0.88186	0.69105	0.02072	0.016
Mof_H 	H 	0.8874	0.66869	0.06289	0.016
Mof_Cr	Cr	0.96616	0.30577	0.13577	2.41
Mof_Cr	Cr	0.89037	0.44652	0.94344	2.515
Mof_C 	C 	0.78908	0.68056	0.8276	0.033
Mof_C 	C 	0.85045	0.52304	0.88898	0.017
Mof_C 	C 	0.83545	0.54461	0.87397	0.022
Mof_C 	C 	0.84479	0.39946	0.93321	0.018
Mof_C 	C 	0.8678	0.41937	0.93773	0.662
Mof_C 	C 	0.84359	0.41896	0.93911	-0.189
Mof_C 	C 	0.81932	0.4383	0.94542	0.017
Mof_C 	C 	0.04163	0.29274	0.06406	0.011
Mof_C 	C 	0.99695	0.28742	0.09064	0.619
Mof_C 	C 	0.02205	0.28506	0.06782	-0.171
Mof_C 	C 	0.0261	0.27678	0.04855	0.011
Mof_C 	C 	0.98201	0.38611	0.08703	0.013
Mof_C 	C 	0.95039	0.36196	0.10596	0.632
Mof_C 	C 	0.9576	0.3864	0.0913	-0.175
Mof_C 	C 	0.98848	0.40915	0.07319	0.012
Mof_C 	C 	0.97801	0.4577	0.0469	0.625
Mof_C 	C 	0.97073	0.43328	0.06325	-0.173
Mof_C 	C 	0.93984	0.41057	0.08149	0.014
Mof_C 	C 	0.94626	0.43353	0.06778	0.012
Mof_C 	C 	0.92736	0.47788	0.96575	0.005
Mof_C 	C 	0.93637	0.48724	0.9748	0.035
Mof_C 	C 	0.00806	0.3505	0.92776	0.02
Mof_C 	C 	0.97696	0.393	0.90834	0.672
Mof_C 	C 	0.00328	0.37631	0.91028	-0.196
Mof_C 	C 	0.0325	0.33577	0.93111	0.017
Mof_C 	C 	0.91743	0.32862	0.17204	0.668
Mof_C 	C 	0.05253	0.34661	0.91701	-0.194
Mof_C 	C 	0.02362	0.38669	0.89562	0.019
Mof_C 	C 	0.04787	0.37206	0.89889	0.022
Mof_O 	O 	0.78897	0.63876	0.82441	-0.828
Mof_O 	O 	0.88117	0.47735	0.91673	-0.803
Mof_O 	O 	0.80648	0.5863	0.84199	-0.82
Mof_O 	O 	0.8663	0.4368	0.94363	-0.792
Mof_O 	O 	0.93031	0.40227	0.88918	-0.809
Mof_O 	O 	0.99374	0.29648	0.10659	-0.759
Mof_O 	O 	0.96902	0.27054	0.15715	-0.755
Mof_O 	O 	0.9661	0.34063	0.11604	-0.759
Mof_O 	O 	0.92851	0.36353	0.10795	-0.787
Mof_O 	O 	0.00073	0.45664	0.04203	-0.756
Mof_O 	O 	0.96133	0.47857	0.03782	-0.77
Mof_O 	O 	0.91074	0.4586	0.94621	-0.783
Mof_O 	O 	0.95654	0.50396	0.99199	-0.779
Mof_O 	O 	0.95984	0.38238	0.91888	-0.814
Mof_O 	O 	0.89668	0.41736	0.97254	-0.804
Mof_O 	O 	0.94145	0.31492	0.1659	-0.774
Mof_O 	O 	0.91093	0.34586	0.09263	-0.832
Mof_H 	H 	0.77378	0.67253	0.84271	0.015
Mof_H 	H 	0.84083	0.51485	0.90963	0.019
Mof_H 	H 	0.81471	0.55251	0.88351	0.018
Mof_H 	H 	0.86305	0.38423	0.92826	0.019
Mof_H 	H 	0.81764	0.45366	0.95001	0.019
Mof_H 	H 	0.03939	0.29936	0.07824	0.021
Mof_H 	H 	0.01158	0.27082	0.0505	0.02
Mof_H 	H 	0.99626	0.36801	0.09421	0.02
Mof_H 	H 	0.00759	0.40797	0.07002	0.02
Mof_H 	H 	0.92083	0.41181	0.08433	0.019
Mof_H 	H 	0.93203	0.45151	0.06039	0.021
Mof_H 	H 	0.90893	0.47439	0.97758	0.022
Mof_H 	H 	0.92451	0.49049	0.99335	0.015
Mof_H 	H 	0.9927	0.34198	0.93941	0.021
Mof_H 	H 	0.03548	0.31624	0.94517	0.02
Mof_H 	H 	0.02072	0.40637	0.88186	0.016
Mof_H 	H 	0.06289	0.38102	0.8874	0.016
Mof_Cr	Cr	0.96616	0.5923	0.30577	2.41
Mof_Cr	Cr	0.89037	0.71966	0.44652	2.514
Mof_C 	C 	0.78908	0.70277	0.68056	0.033
Mof_C 	C 	0.85045	0.73753	0.52304	0.017
Mof_C 	C 	0.83545	0.74597	0.54461	0.022
Mof_C 	C 	0.84479	0.82254	0.39946	0.018
Mof_C 	C 	0.8678	0.77511	0.41937	0.662
Mof_C 	C 	0.84359	0.79833	0.41896	-0.189
Mof_C 	C 	0.81932	0.79696	0.4383	0.017
Mof_C 	C 	0.04163	0.60157	0.29274	0.012
Mof_C 	C 	0.99695	0.62499	0.28742	0.62
Mof_C 	C 	0.02205	0.62506	0.28506	-0.172
Mof_C 	C 	0.0261	0.64857	0.27678	0.011
Mof_C 	C 	0.98201	0.54484	0.38611	0.013
Mof_C 	C 	0.95039	0.58169	0.36196	0.632
Mof_C 	C 	0.9576	0.5647	0.3864	-0.176
Mof_C 	C 	0.98848	0.52917	0.40915	0.012
Mof_C 	C 	0.97801	0.51739	0.4577	0.625
Mof_C 	C 	0.97073	0.53274	0.43328	-0.173
Mof_C 	C 	0.93984	0.5681	0.41057	0.014
Mof_C 	C 	0.94626	0.55243	0.43353	0.012
Mof_C 	C 	0.92736	0.62901	0.47788	0.005
Mof_C 	C 	0.93637	0.60159	0.48724	0.035
Mof_C 	C 	0.00806	0.71368	0.3505	0.02
Mof_C 	C 	0.97696	0.7217	0.393	0.672
Mof_C 	C 	0.00328	0.71013	0.37631	-0.196
Mof_C 	C 	0.0325	0.70062	0.33577	0.017
Mof_C 	C 	0.91743	0.58192	0.32862	0.669
Mof_C 	C 	0.05253	0.68385	0.34661	-0.194
Mof_C 	C 	0.02362	0.69408	0.38669	0.019
Mof_C 	C 	0.04787	0.68119	0.37206	0.021
Mof_O 	O 	0.78897	0.74786	0.63876	-0.829
Mof_O 	O 	0.88117	0.72475	0.47735	-0.803
Mof_O 	O 	0.80648	0.76523	0.5863	-0.82
Mof_O 	O 	0.8663	0.75327	0.4368	-0.792
Mof_O 	O 	0.93031	0.77824	0.40227	-0.809
Mof_O 	O 	0.99374	0.60319	0.29648	-0.759
Mof_O 	O 	0.96902	0.6033	0.27054	-0.756
Mof_O 	O 	0.9661	0.57723	0.34063	-0.759
Mof_O 	O 	0.92851	0.6	0.36353	-0.788
Mof_O 	O 	0.00073	0.5006	0.45664	-0.756
Mof_O 	O 	0.96133	0.52229	0.47857	-0.77
Mof_O 	O 	0.91074	0.68444	0.4586	-0.783
Mof_O 	O 	0.95654	0.54751	0.50396	-0.78
Mof_O 	O 	0.95984	0.73889	0.38238	-0.813
Mof_O 	O 	0.89668	0.71343	0.41736	-0.805
Mof_O 	O 	0.94145	0.57773	0.31492	-0.774
Mof_O 	O 	0.91093	0.65057	0.34586	-0.832
Mof_H 	H 	0.77378	0.71098	0.67253	0.015
Mof_H 	H 	0.84083	0.73468	0.51485	0.019
Mof_H 	H 	0.81471	0.74927	0.55251	0.018
Mof_H 	H 	0.86305	0.82446	0.38423	0.019
Mof_H 	H 	0.81764	0.77869	0.45366	0.019
Mof_H 	H 	0.03939	0.58302	0.29936	0.021
Mof_H 	H 	0.01158	0.6671	0.27082	0.02
Mof_H 	H 	0.99626	0.54151	0.36801	0.02
Mof_H 	H 	0.00759	0.51443	0.40797	0.02
Mof_H 	H 	0.92083	0.58302	0.41181	0.019
Mof_H 	H 	0.93203	0.55606	0.45151	0.021
Mof_H 	H 	0.90893	0.6391	0.47439	0.022
Mof_H 	H 	0.92451	0.59165	0.49049	0.015
Mof_H 	H 	0.9927	0.72592	0.34198	0.021
Mof_H 	H 	0.03548	0.7031	0.31624	0.02
Mof_H 	H 	0.02072	0.69105	0.40637	0.016
Mof_H 	H 	0.06289	0.66869	0.38102	0.016
Mof_Cr	Cr	0.13577	0.30577	0.5923	2.409
Mof_Cr	Cr	0.94344	0.44652	0.71966	2.515
Mof_C 	C 	0.8276	0.68056	0.70277	0.033
Mof_C 	C 	0.88898	0.52304	0.73753	0.017
Mof_C 	C 	0.87397	0.54461	0.74597	0.022
Mof_C 	C 	0.93321	0.39946	0.82254	0.018
Mof_C 	C 	0.93773	0.41937	0.77511	0.662
Mof_C 	C 	0.93911	0.41896	0.79833	-0.19
Mof_C 	C 	0.94542	0.4383	0.79696	0.017
Mof_C 	C 	0.06406	0.29274	0.60157	0.011
Mof_C 	C 	0.09064	0.28742	0.62499	0.619
Mof_C 	C 	0.06782	0.28506	0.62506	-0.171
Mof_C 	C 	0.04855	0.27678	0.64857	0.011
Mof_C 	C 	0.08703	0.38611	0.54484	0.013
Mof_C 	C 	0.10596	0.36196	0.58169	0.632
Mof_C 	C 	0.0913	0.3864	0.5647	-0.176
Mof_C 	C 	0.07319	0.40915	0.52917	0.011
Mof_C 	C 	0.0469	0.4577	0.51739	0.624
Mof_C 	C 	0.06325	0.43328	0.53274	-0.173
Mof_C 	C 	0.08149	0.41057	0.5681	0.014
Mof_C 	C 	0.06778	0.43353	0.55243	0.011
Mof_C 	C 	0.96575	0.47788	0.62901	0.005
Mof_C 	C 	0.9748	0.48724	0.60159	0.035
Mof_C 	C 	0.92776	0.3505	0.71368	0.021
Mof_C 	C 	0.90834	0.393	0.7217	0.672
Mof_C 	C 	0.91028	0.37631	0.71013	-0.196
Mof_C 	C 	0.93111	0.33577	0.70062	0.017
Mof_C 	C 	0.17204	0.32862	0.58192	0.668
Mof_C 	C 	0.91701	0.34661	0.68385	-0.193
Mof_C 	C 	0.89562	0.38669	0.69408	0.02
Mof_C 	C 	0.89889	0.37206	0.68119	0.021
Mof_O 	O 	0.82441	0.63876	0.74786	-0.828
Mof_O 	O 	0.91673	0.47735	0.72475	-0.803
Mof_O 	O 	0.84199	0.5863	0.76523	-0.82
Mof_O 	O 	0.94363	0.4368	0.75327	-0.792
Mof_O 	O 	0.88918	0.40227	0.77824	-0.809
Mof_O 	O 	0.10659	0.29648	0.60319	-0.759
Mof_O 	O 	0.15715	0.27054	0.6033	-0.756
Mof_O 	O 	0.11604	0.34063	0.57723	-0.759
Mof_O 	O 	0.10795	0.36353	0.6	-0.787
Mof_O 	O 	0.04203	0.45664	0.5006	-0.756
Mof_O 	O 	0.03782	0.47857	0.52229	-0.769
Mof_O 	O 	0.94621	0.4586	0.68444	-0.784
Mof_O 	O 	0.99199	0.50396	0.54751	-0.779
Mof_O 	O 	0.91888	0.38238	0.73889	-0.813
Mof_O 	O 	0.97254	0.41736	0.71343	-0.804
Mof_O 	O 	0.1659	0.31492	0.57773	-0.774
Mof_O 	O 	0.09263	0.34586	0.65057	-0.832
Mof_H 	H 	0.84271	0.67253	0.71098	0.015
Mof_H 	H 	0.90963	0.51485	0.73468	0.019
Mof_H 	H 	0.88351	0.55251	0.74927	0.018
Mof_H 	H 	0.92826	0.38423	0.82446	0.019
Mof_H 	H 	0.95001	0.45366	0.77869	0.019
Mof_H 	H 	0.07824	0.29936	0.58302	0.021
Mof_H 	H 	0.0505	0.27082	0.6671	0.021
Mof_H 	H 	0.09421	0.36801	0.54151	0.02
Mof_H 	H 	0.07002	0.40797	0.51443	0.021
Mof_H 	H 	0.08433	0.41181	0.58302	0.019
Mof_H 	H 	0.06039	0.45151	0.55606	0.021
Mof_H 	H 	0.97758	0.47439	0.6391	0.022
Mof_H 	H 	0.99335	0.49049	0.59165	0.015
Mof_H 	H 	0.93941	0.34198	0.72592	0.02
Mof_H 	H 	0.94517	0.31624	0.7031	0.02
Mof_H 	H 	0.88186	0.40637	0.69105	0.016
Mof_H 	H 	0.8874	0.38102	0.66869	0.016
Mof_Cr	Cr	0.30577	0.13577	0.96616	2.41
Mof_Cr	Cr	0.44652	0.94344	0.89037	2.515
Mof_C 	C 	0.68056	0.8276	0.78908	0.033
Mof_C 	C 	0.52304	0.88898	0.85045	0.017
Mof_C 	C 	0.54461	0.87397	0.83545	0.022
Mof_C 	C 	0.39946	0.93321	0.84479	0.018
Mof_C 	C 	0.41937	0.93773	0.8678	0.662
Mof_C 	C 	0.41896	0.93911	0.84359	-0.189
Mof_C 	C 	0.4383	0.94542	0.81932	0.017
Mof_C 	C 	0.29274	0.06406	0.04163	0.011
Mof_C 	C 	0.28742	0.09064	0.99695	0.619
Mof_C 	C 	0.28506	0.06782	0.02205	-0.171
Mof_C 	C 	0.27678	0.04855	0.0261	0.011
Mof_C 	C 	0.38611	0.08703	0.98201	0.013
Mof_C 	C 	0.36196	0.10596	0.95039	0.632
Mof_C 	C 	0.3864	0.0913	0.9576	-0.175
Mof_C 	C 	0.40915	0.07319	0.98848	0.012
Mof_C 	C 	0.4577	0.0469	0.97801	0.625
Mof_C 	C 	0.43328	0.06325	0.97073	-0.173
Mof_C 	C 	0.41057	0.08149	0.93984	0.014
Mof_C 	C 	0.43353	0.06778	0.94626	0.012
Mof_C 	C 	0.47788	0.96575	0.92736	0.005
Mof_C 	C 	0.48724	0.9748	0.93637	0.035
Mof_C 	C 	0.3505	0.92776	0.00806	0.02
Mof_C 	C 	0.393	0.90834	0.97696	0.672
Mof_C 	C 	0.37631	0.91028	0.00328	-0.196
Mof_C 	C 	0.33577	0.93111	0.0325	0.017
Mof_C 	C 	0.32862	0.17204	0.91743	0.668
Mof_C 	C 	0.34661	0.91701	0.05253	-0.194
Mof_C 	C 	0.38669	0.89562	0.02362	0.019
Mof_C 	C 	0.37206	0.89889	0.04787	0.022
Mof_O 	O 	0.63876	0.82441	0.78897	-0.828
Mof_O 	O 	0.47735	0.91673	0.88117	-0.803
Mof_O 	O 	0.5863	0.84199	0.80648	-0.82
Mof_O 	O 	0.4368	0.94363	0.8663	-0.792
Mof_O 	O 	0.40227	0.88918	0.93031	-0.809
Mof_O 	O 	0.29648	0.10659	0.99374	-0.759
Mof_O 	O 	0.27054	0.15715	0.96902	-0.755
Mof_O 	O 	0.34063	0.11604	0.9661	-0.759
Mof_O 	O 	0.36353	0.10795	0.92851	-0.787
Mof_O 	O 	0.45664	0.04203	0.00073	-0.756
Mof_O 	O 	0.47857	0.03782	0.96133	-0.77
Mof_O 	O 	0.4586	0.94621	0.91074	-0.783
Mof_O 	O 	0.50396	0.99199	0.95654	-0.779
Mof_O 	O 	0.38238	0.91888	0.95984	-0.814
Mof_O 	O 	0.41736	0.97254	0.89668	-0.804
Mof_O 	O 	0.31492	0.1659	0.94145	-0.774
Mof_O 	O 	0.34586	0.09263	0.91093	-0.832
Mof_H 	H 	0.67253	0.84271	0.77378	0.015
Mof_H 	H 	0.51485	0.90963	0.84083	0.019
Mof_H 	H 	0.55251	0.88351	0.81471	0.018
Mof_H 	H 	0.38423	0.92826	0.86305	0.019
Mof_H 	H 	0.45366	0.95001	0.81764	0.019
Mof_H 	H 	0.29936	0.07824	0.03939	0.021
Mof_H 	H 	0.27082	0.0505	0.01158	0.02
Mof_H 	H 	0.36801	0.09421	0.99626	0.02
Mof_H 	H 	0.40797	0.07002	0.00759	0.02
Mof_H 	H 	0.41181	0.08433	0.92083	0.019
Mof_H 	H 	0.45151	0.06039	0.93203	0.021
Mof_H 	H 	0.47439	0.97758	0.90893	0.022
Mof_H 	H 	0.49049	0.99335	0.92451	0.015
Mof_H 	H 	0.34198	0.93941	0.9927	0.021
Mof_H 	H 	0.31624	0.94517	0.03548	0.02
Mof_H 	H 	0.40637	0.88186	0.02072	0.016
Mof_H 	H 	0.38102	0.8874	0.06289	0.016
Mof_Cr	Cr	0.5923	0.96616	0.13577	2.409
Mof_Cr	Cr	0.71966	0.89037	0.94344	2.514
Mof_C 	C 	0.70277	0.78908	0.8276	0.033
Mof_C 	C 	0.73753	0.85045	0.88898	0.017
Mof_C 	C 	0.74597	0.83545	0.87397	0.022
Mof_C 	C 	0.82254	0.84479	0.93321	0.018
Mof_C 	C 	0.77511	0.8678	0.93773	0.662
Mof_C 	C 	0.79833	0.84359	0.93911	-0.189
Mof_C 	C 	0.79696	0.81932	0.94542	0.017
Mof_C 	C 	0.60157	0.04163	0.06406	0.011
Mof_C 	C 	0.62499	0.99695	0.09064	0.62
Mof_C 	C 	0.62506	0.02205	0.06782	-0.172
Mof_C 	C 	0.64857	0.0261	0.04855	0.011
Mof_C 	C 	0.54484	0.98201	0.08703	0.012
Mof_C 	C 	0.58169	0.95039	0.10596	0.632
Mof_C 	C 	0.5647	0.9576	0.0913	-0.175
Mof_C 	C 	0.52917	0.98848	0.07319	0.012
Mof_C 	C 	0.51739	0.97801	0.0469	0.625
Mof_C 	C 	0.53274	0.97073	0.06325	-0.173
Mof_C 	C 	0.5681	0.93984	0.08149	0.014
Mof_C 	C 	0.55243	0.94626	0.06778	0.012
Mof_C 	C 	0.62901	0.92736	0.96575	0.005
Mof_C 	C 	0.60159	0.93637	0.9748	0.035
Mof_C 	C 	0.71368	0.00806	0.92776	0.02
Mof_C 	C 	0.7217	0.97696	0.90834	0.673
Mof_C 	C 	0.71013	0.00328	0.91028	-0.196
Mof_C 	C 	0.70062	0.0325	0.93111	0.017
Mof_C 	C 	0.58192	0.91743	0.17204	0.669
Mof_C 	C 	0.68385	0.05253	0.91701	-0.193
Mof_C 	C 	0.69408	0.02362	0.89562	0.02
Mof_C 	C 	0.68119	0.04787	0.89889	0.021
Mof_O 	O 	0.74786	0.78897	0.82441	-0.828
Mof_O 	O 	0.72475	0.88117	0.91673	-0.803
Mof_O 	O 	0.76523	0.80648	0.84199	-0.82
Mof_O 	O 	0.75327	0.8663	0.94363	-0.791
Mof_O 	O 	0.77824	0.93031	0.88918	-0.809
Mof_O 	O 	0.60319	0.99374	0.10659	-0.759
Mof_O 	O 	0.6033	0.96902	0.15715	-0.755
Mof_O 	O 	0.57723	0.9661	0.11604	-0.759
Mof_O 	O 	0.6	0.92851	0.10795	-0.787
Mof_O 	O 	0.5006	0.00073	0.04203	-0.756
Mof_O 	O 	0.52229	0.96133	0.03782	-0.77
Mof_O 	O 	0.68444	0.91074	0.94621	-0.784
Mof_O 	O 	0.54751	0.95654	0.99199	-0.779
Mof_O 	O 	0.73889	0.95984	0.91888	-0.814
Mof_O 	O 	0.71343	0.89668	0.97254	-0.804
Mof_O 	O 	0.57773	0.94145	0.1659	-0.774
Mof_O 	O 	0.65057	0.91093	0.09263	-0.832
Mof_H 	H 	0.71098	0.77378	0.84271	0.015
Mof_H 	H 	0.73468	0.84083	0.90963	0.019
Mof_H 	H 	0.74927	0.81471	0.88351	0.018
Mof_H 	H 	0.82446	0.86305	0.92826	0.019
Mof_H 	H 	0.77869	0.81764	0.95001	0.019
Mof_H 	H 	0.58302	0.03939	0.07824	0.021
Mof_H 	H 	0.6671	0.01158	0.0505	0.02
Mof_H 	H 	0.54151	0.99626	0.09421	0.02
Mof_H 	H 	0.51443	0.00759	0.07002	0.02
Mof_H 	H 	0.58302	0.92083	0.08433	0.019
Mof_H 	H 	0.55606	0.93203	0.06039	0.021
Mof_H 	H 	0.6391	0.90893	0.97758	0.022
Mof_H 	H 	0.59165	0.92451	0.99335	0.015
Mof_H 	H 	0.72592	0.9927	0.93941	0.02
Mof_H 	H 	0.7031	0.03548	0.94517	0.02
Mof_H 	H 	0.69105	0.02072	0.88186	0.016
Mof_H 	H 	0.66869	0.06289	0.8874	0.016
Mof_Cr	Cr	0.13577	0.96616	0.5923	2.409
Mof_Cr	Cr	0.94344	0.89037	0.71966	2.514
Mof_C 	C 	0.8276	0.78908	0.70277	0.033
Mof_C 	C 	0.88898	0.85045	0.73753	0.017
Mof_C 	C 	0.87397	0.83545	0.74597	0.022
Mof_C 	C 	0.93321	0.84479	0.82254	0.018
Mof_C 	C 	0.93773	0.8678	0.77511	0.662
Mof_C 	C 	0.93911	0.84359	0.79833	-0.189
Mof_C 	C 	0.94542	0.81932	0.79696	0.017
Mof_C 	C 	0.06406	0.04163	0.60157	0.011
Mof_C 	C 	0.09064	0.99695	0.62499	0.62
Mof_C 	C 	0.06782	0.02205	0.62506	-0.172
Mof_C 	C 	0.04855	0.0261	0.64857	0.011
Mof_C 	C 	0.08703	0.98201	0.54484	0.012
Mof_C 	C 	0.10596	0.95039	0.58169	0.632
Mof_C 	C 	0.0913	0.9576	0.5647	-0.175
Mof_C 	C 	0.07319	0.98848	0.52917	0.012
Mof_C 	C 	0.0469	0.97801	0.51739	0.625
Mof_C 	C 	0.06325	0.97073	0.53274	-0.173
Mof_C 	C 	0.08149	0.93984	0.5681	0.014
Mof_C 	C 	0.06778	0.94626	0.55243	0.012
Mof_C 	C 	0.96575	0.92736	0.62901	0.005
Mof_C 	C 	0.9748	0.93637	0.60159	0.035
Mof_C 	C 	0.92776	0.00806	0.71368	0.02
Mof_C 	C 	0.90834	0.97696	0.7217	0.673
Mof_C 	C 	0.91028	0.00328	0.71013	-0.196
Mof_C 	C 	0.93111	0.0325	0.70062	0.017
Mof_C 	C 	0.17204	0.91743	0.58192	0.669
Mof_C 	C 	0.91701	0.05253	0.68385	-0.193
Mof_C 	C 	0.89562	0.02362	0.69408	0.02
Mof_C 	C 	0.89889	0.04787	0.68119	0.021
Mof_O 	O 	0.82441	0.78897	0.74786	-0.828
Mof_O 	O 	0.91673	0.88117	0.72475	-0.803
Mof_O 	O 	0.84199	0.80648	0.76523	-0.82
Mof_O 	O 	0.94363	0.8663	0.75327	-0.791
Mof_O 	O 	0.88918	0.93031	0.77824	-0.809
Mof_O 	O 	0.10659	0.99374	0.60319	-0.759
Mof_O 	O 	0.15715	0.96902	0.6033	-0.755
Mof_O 	O 	0.11604	0.9661	0.57723	-0.759
Mof_O 	O 	0.10795	0.92851	0.6	-0.787
Mof_O 	O 	0.04203	0.00073	0.5006	-0.756
Mof_O 	O 	0.03782	0.96133	0.52229	-0.77
Mof_O 	O 	0.94621	0.91074	0.68444	-0.784
Mof_O 	O 	0.99199	0.95654	0.54751	-0.779
Mof_O 	O 	0.91888	0.95984	0.73889	-0.814
Mof_O 	O 	0.97254	0.89668	0.71343	-0.804
Mof_O 	O 	0.1659	0.94145	0.57773	-0.774
Mof_O 	O 	0.09263	0.91093	0.65057	-0.832
Mof_H 	H 	0.84271	0.77378	0.71098	0.015
Mof_H 	H 	0.90963	0.84083	0.73468	0.019
Mof_H 	H 	0.88351	0.81471	0.74927	0.018
Mof_H 	H 	0.92826	0.86305	0.82446	0.019
Mof_H 	H 	0.95001	0.81764	0.77869	0.019
Mof_H 	H 	0.07824	0.03939	0.58302	0.021
Mof_H 	H 	0.0505	0.01158	0.6671	0.02
Mof_H 	H 	0.09421	0.99626	0.54151	0.02
Mof_H 	H 	0.07002	0.00759	0.51443	0.02
Mof_H 	H 	0.08433	0.92083	0.58302	0.019
Mof_H 	H 	0.06039	0.93203	0.55606	0.021
Mof_H 	H 	0.97758	0.90893	0.6391	0.022
Mof_H 	H 	0.99335	0.92451	0.59165	0.015
Mof_H 	H 	0.93941	0.9927	0.72592	0.02
Mof_H 	H 	0.94517	0.03548	0.7031	0.02
Mof_H 	H 	0.88186	0.02072	0.69105	0.016
Mof_H 	H 	0.8874	0.06289	0.66869	0.016
Mof_Cr	Cr	0.96616	0.13577	0.30577	2.41
Mof_Cr	Cr	0.89037	0.94344	0.44652	2.515
Mof_C 	C 	0.78908	0.8276	0.68056	0.033
Mof_C 	C 	0.85045	0.88898	0.52304	0.017
Mof_C 	C 	0.83545	0.87397	0.54461	0.022
Mof_C 	C 	0.84479	0.93321	0.39946	0.018
Mof_C 	C 	0.8678	0.93773	0.41937	0.662
Mof_C 	C 	0.84359	0.93911	0.41896	-0.189
Mof_C 	C 	0.81932	0.94542	0.4383	0.017
Mof_C 	C 	0.04163	0.06406	0.29274	0.011
Mof_C 	C 	0.99695	0.09064	0.28742	0.619
Mof_C 	C 	0.02205	0.06782	0.28506	-0.171
Mof_C 	C 	0.0261	0.04855	0.27678	0.011
Mof_C 	C 	0.98201	0.08703	0.38611	0.013
Mof_C 	C 	0.95039	0.10596	0.36196	0.632
Mof_C 	C 	0.9576	0.0913	0.3864	-0.175
Mof_C 	C 	0.98848	0.07319	0.40915	0.012
Mof_C 	C 	0.97801	0.0469	0.4577	0.625
Mof_C 	C 	0.97073	0.06325	0.43328	-0.173
Mof_C 	C 	0.93984	0.08149	0.41057	0.014
Mof_C 	C 	0.94626	0.06778	0.43353	0.012
Mof_C 	C 	0.92736	0.96575	0.47788	0.005
Mof_C 	C 	0.93637	0.9748	0.48724	0.035
Mof_C 	C 	0.00806	0.92776	0.3505	0.02
Mof_C 	C 	0.97696	0.90834	0.393	0.672
Mof_C 	C 	0.00328	0.91028	0.37631	-0.196
Mof_C 	C 	0.0325	0.93111	0.33577	0.017
Mof_C 	C 	0.91743	0.17204	0.32862	0.668
Mof_C 	C 	0.05253	0.91701	0.34661	-0.194
Mof_C 	C 	0.02362	0.89562	0.38669	0.019
Mof_C 	C 	0.04787	0.89889	0.37206	0.022
Mof_O 	O 	0.78897	0.82441	0.63876	-0.828
Mof_O 	O 	0.88117	0.91673	0.47735	-0.803
Mof_O 	O 	0.80648	0.84199	0.5863	-0.82
Mof_O 	O 	0.8663	0.94363	0.4368	-0.792
Mof_O 	O 	0.93031	0.88918	0.40227	-0.809
Mof_O 	O 	0.99374	0.10659	0.29648	-0.759
Mof_O 	O 	0.96902	0.15715	0.27054	-0.755
Mof_O 	O 	0.9661	0.11604	0.34063	-0.759
Mof_O 	O 	0.92851	0.10795	0.36353	-0.787
Mof_O 	O 	0.00073	0.04203	0.45664	-0.756
Mof_O 	O 	0.96133	0.03782	0.47857	-0.77
Mof_O 	O 	0.91074	0.94621	0.4586	-0.783
Mof_O 	O 	0.95654	0.99199	0.50396	-0.779
Mof_O 	O 	0.95984	0.91888	0.38238	-0.814
Mof_O 	O 	0.89668	0.97254	0.41736	-0.804
Mof_O 	O 	0.94145	0.1659	0.31492	-0.774
Mof_O 	O 	0.91093	0.09263	0.34586	-0.832
Mof_H 	H 	0.77378	0.84271	0.67253	0.015
Mof_H 	H 	0.84083	0.90963	0.51485	0.019
Mof_H 	H 	0.81471	0.88351	0.55251	0.018
Mof_H 	H 	0.86305	0.92826	0.38423	0.019
Mof_H 	H 	0.81764	0.95001	0.45366	0.019
Mof_H 	H 	0.03939	0.07824	0.29936	0.021
Mof_H 	H 	0.01158	0.0505	0.27082	0.02
Mof_H 	H 	0.99626	0.09421	0.36801	0.02
Mof_H 	H 	0.00759	0.07002	0.40797	0.02
Mof_H 	H 	0.92083	0.08433	0.41181	0.019
Mof_H 	H 	0.93203	0.06039	0.45151	0.021
Mof_H 	H 	0.90893	0.97758	0.47439	0.022
Mof_H 	H 	0.92451	0.99335	0.49049	0.015
Mof_H 	H 	0.9927	0.93941	0.34198	0.021
Mof_H 	H 	0.03548	0.94517	0.31624	0.02
Mof_H 	H 	0.02072	0.88186	0.40637	0.016
Mof_H 	H 	0.06289	0.8874	0.38102	0.016
Mof_Cr	Cr	0.5923	0.30577	0.13577	2.409
Mof_Cr	Cr	0.71966	0.44652	0.94344	2.515
Mof_C 	C 	0.70277	0.68056	0.8276	0.033
Mof_C 	C 	0.73753	0.52304	0.88898	0.017
Mof_C 	C 	0.74597	0.54461	0.87397	0.022
Mof_C 	C 	0.82254	0.39946	0.93321	0.018
Mof_C 	C 	0.77511	0.41937	0.93773	0.662
Mof_C 	C 	0.79833	0.41896	0.93911	-0.19
Mof_C 	C 	0.79696	0.4383	0.94542	0.017
Mof_C 	C 	0.60157	0.29274	0.06406	0.011
Mof_C 	C 	0.62499	0.28742	0.09064	0.619
Mof_C 	C 	0.62506	0.28506	0.06782	-0.171
Mof_C 	C 	0.64857	0.27678	0.04855	0.011
Mof_C 	C 	0.54484	0.38611	0.08703	0.013
Mof_C 	C 	0.58169	0.36196	0.10596	0.632
Mof_C 	C 	0.5647	0.3864	0.0913	-0.176
Mof_C 	C 	0.52917	0.40915	0.07319	0.011
Mof_C 	C 	0.51739	0.4577	0.0469	0.624
Mof_C 	C 	0.53274	0.43328	0.06325	-0.173
Mof_C 	C 	0.5681	0.41057	0.08149	0.014
Mof_C 	C 	0.55243	0.43353	0.06778	0.011
Mof_C 	C 	0.62901	0.47788	0.96575	0.005
Mof_C 	C 	0.60159	0.48724	0.9748	0.035
Mof_C 	C 	0.71368	0.3505	0.92776	0.021
Mof_C 	C 	0.7217	0.393	0.90834	0.672
Mof_C 	C 	0.71013	0.37631	0.91028	-0.196
Mof_C 	C 	0.70062	0.33577	0.93111	0.017
Mof_C 	C 	0.58192	0.32862	0.17204	0.668
Mof_C 	C 	0.68385	0.34661	0.91701	-0.193
Mof_C 	C 	0.69408	0.38669	0.89562	0.02
Mof_C 	C 	0.68119	0.37206	0.89889	0.021
Mof_O 	O 	0.74786	0.63876	0.82441	-0.828
Mof_O 	O 	0.72475	0.47735	0.91673	-0.803
Mof_O 	O 	0.76523	0.5863	0.84199	-0.82
Mof_O 	O 	0.75327	0.4368	0.94363	-0.792
Mof_O 	O 	0.77824	0.40227	0.88918	-0.809
Mof_O 	O 	0.60319	0.29648	0.10659	-0.759
Mof_O 	O 	0.6033	0.27054	0.15715	-0.756
Mof_O 	O 	0.57723	0.34063	0.11604	-0.759
Mof_O 	O 	0.6	0.36353	0.10795	-0.787
Mof_O 	O 	0.5006	0.45664	0.04203	-0.756
Mof_O 	O 	0.52229	0.47857	0.03782	-0.769
Mof_O 	O 	0.68444	0.4586	0.94621	-0.784
Mof_O 	O 	0.54751	0.50396	0.99199	-0.779
Mof_O 	O 	0.73889	0.38238	0.91888	-0.813
Mof_O 	O 	0.71343	0.41736	0.97254	-0.804
Mof_O 	O 	0.57773	0.31492	0.1659	-0.774
Mof_O 	O 	0.65057	0.34586	0.09263	-0.832
Mof_H 	H 	0.71098	0.67253	0.84271	0.015
Mof_H 	H 	0.73468	0.51485	0.90963	0.019
Mof_H 	H 	0.74927	0.55251	0.88351	0.018
Mof_H 	H 	0.82446	0.38423	0.92826	0.019
Mof_H 	H 	0.77869	0.45366	0.95001	0.019
Mof_H 	H 	0.58302	0.29936	0.07824	0.021
Mof_H 	H 	0.6671	0.27082	0.0505	0.021
Mof_H 	H 	0.54151	0.36801	0.09421	0.02
Mof_H 	H 	0.51443	0.40797	0.07002	0.021
Mof_H 	H 	0.58302	0.41181	0.08433	0.019
Mof_H 	H 	0.55606	0.45151	0.06039	0.021
Mof_H 	H 	0.6391	0.47439	0.97758	0.022
Mof_H 	H 	0.59165	0.49049	0.99335	0.015
Mof_H 	H 	0.72592	0.34198	0.93941	0.02
Mof_H 	H 	0.7031	0.31624	0.94517	0.02
Mof_H 	H 	0.69105	0.40637	0.88186	0.016
Mof_H 	H 	0.66869	0.38102	0.8874	0.016
Mof_Cr	Cr	0.30577	0.5923	0.96616	2.41
Mof_Cr	Cr	0.44652	0.71966	0.89037	2.514
Mof_C 	C 	0.68056	0.70277	0.78908	0.033
Mof_C 	C 	0.52304	0.73753	0.85045	0.017
Mof_C 	C 	0.54461	0.74597	0.83545	0.022
Mof_C 	C 	0.39946	0.82254	0.84479	0.018
Mof_C 	C 	0.41937	0.77511	0.8678	0.662
Mof_C 	C 	0.41896	0.79833	0.84359	-0.189
Mof_C 	C 	0.4383	0.79696	0.81932	0.017
Mof_C 	C 	0.29274	0.60157	0.04163	0.012
Mof_C 	C 	0.28742	0.62499	0.99695	0.62
Mof_C 	C 	0.28506	0.62506	0.02205	-0.172
Mof_C 	C 	0.27678	0.64857	0.0261	0.011
Mof_C 	C 	0.38611	0.54484	0.98201	0.013
Mof_C 	C 	0.36196	0.58169	0.95039	0.632
Mof_C 	C 	0.3864	0.5647	0.9576	-0.176
Mof_C 	C 	0.40915	0.52917	0.98848	0.012
Mof_C 	C 	0.4577	0.51739	0.97801	0.625
Mof_C 	C 	0.43328	0.53274	0.97073	-0.173
Mof_C 	C 	0.41057	0.5681	0.93984	0.014
Mof_C 	C 	0.43353	0.55243	0.94626	0.012
Mof_C 	C 	0.47788	0.62901	0.92736	0.005
Mof_C 	C 	0.48724	0.60159	0.93637	0.035
Mof_C 	C 	0.3505	0.71368	0.00806	0.02
Mof_C 	C 	0.393	0.7217	0.97696	0.672
Mof_C 	C 	0.37631	0.71013	0.00328	-0.196
Mof_C 	C 	0.33577	0.70062	0.0325	0.017
Mof_C 	C 	0.32862	0.58192	0.91743	0.669
Mof_C 	C 	0.34661	0.68385	0.05253	-0.194
Mof_C 	C 	0.38669	0.69408	0.02362	0.019
Mof_C 	C 	0.37206	0.68119	0.04787	0.021
Mof_O 	O 	0.63876	0.74786	0.78897	-0.829
Mof_O 	O 	0.47735	0.72475	0.88117	-0.803
Mof_O 	O 	0.5863	0.76523	0.80648	-0.82
Mof_O 	O 	0.4368	0.75327	0.8663	-0.792
Mof_O 	O 	0.40227	0.77824	0.93031	-0.809
Mof_O 	O 	0.29648	0.60319	0.99374	-0.759
Mof_O 	O 	0.27054	0.6033	0.96902	-0.756
Mof_O 	O 	0.34063	0.57723	0.9661	-0.759
Mof_O 	O 	0.36353	0.6	0.92851	-0.788
Mof_O 	O 	0.45664	0.5006	0.00073	-0.756
Mof_O 	O 	0.47857	0.52229	0.96133	-0.77
Mof_O 	O 	0.4586	0.68444	0.91074	-0.783
Mof_O 	O 	0.50396	0.54751	0.95654	-0.78
Mof_O 	O 	0.38238	0.73889	0.95984	-0.813
Mof_O 	O 	0.41736	0.71343	0.89668	-0.805
Mof_O 	O 	0.31492	0.57773	0.94145	-0.774
Mof_O 	O 	0.34586	0.65057	0.91093	-0.832
Mof_H 	H 	0.67253	0.71098	0.77378	0.015
Mof_H 	H 	0.51485	0.73468	0.84083	0.019
Mof_H 	H 	0.55251	0.74927	0.81471	0.018
Mof_H 	H 	0.38423	0.82446	0.86305	0.019
Mof_H 	H 	0.45366	0.77869	0.81764	0.019
Mof_H 	H 	0.29936	0.58302	0.03939	0.021
Mof_H 	H 	0.27082	0.6671	0.01158	0.02
Mof_H 	H 	0.36801	0.54151	0.99626	0.02
Mof_H 	H 	0.40797	0.51443	0.00759	0.02
Mof_H 	H 	0.41181	0.58302	0.92083	0.019
Mof_H 	H 	0.45151	0.55606	0.93203	0.021
Mof_H 	H 	0.47439	0.6391	0.90893	0.022
Mof_H 	H 	0.49049	0.59165	0.92451	0.015
Mof_H 	H 	0.34198	0.72592	0.9927	0.021
Mof_H 	H 	0.31624	0.7031	0.03548	0.02
Mof_H 	H 	0.40637	0.69105	0.02072	0.016
Mof_H 	H 	0.38102	0.66869	0.06289	0.016
Mof_Cr	Cr	0.5923	0.13577	0.96616	2.409
Mof_Cr	Cr	0.71966	0.94344	0.89037	2.514
Mof_C 	C 	0.70277	0.8276	0.78908	0.033
Mof_C 	C 	0.73753	0.88898	0.85045	0.017
Mof_C 	C 	0.74597	0.87397	0.83545	0.022
Mof_C 	C 	0.82254	0.93321	0.84479	0.018
Mof_C 	C 	0.77511	0.93773	0.8678	0.662
Mof_C 	C 	0.79833	0.93911	0.84359	-0.189
Mof_C 	C 	0.79696	0.94542	0.81932	0.017
Mof_C 	C 	0.60157	0.06406	0.04163	0.011
Mof_C 	C 	0.62499	0.09064	0.99695	0.62
Mof_C 	C 	0.62506	0.06782	0.02205	-0.172
Mof_C 	C 	0.64857	0.04855	0.0261	0.011
Mof_C 	C 	0.54484	0.08703	0.98201	0.012
Mof_C 	C 	0.58169	0.10596	0.95039	0.632
Mof_C 	C 	0.5647	0.0913	0.9576	-0.175
Mof_C 	C 	0.52917	0.07319	0.98848	0.012
Mof_C 	C 	0.51739	0.0469	0.97801	0.625
Mof_C 	C 	0.53274	0.06325	0.97073	-0.173
Mof_C 	C 	0.5681	0.08149	0.93984	0.014
Mof_C 	C 	0.55243	0.06778	0.94626	0.012
Mof_C 	C 	0.62901	0.96575	0.92736	0.005
Mof_C 	C 	0.60159	0.9748	0.93637	0.035
Mof_C 	C 	0.71368	0.92776	0.00806	0.02
Mof_C 	C 	0.7217	0.90834	0.97696	0.673
Mof_C 	C 	0.71013	0.91028	0.00328	-0.196
Mof_C 	C 	0.70062	0.93111	0.0325	0.017
Mof_C 	C 	0.58192	0.17204	0.91743	0.669
Mof_C 	C 	0.68385	0.91701	0.05253	-0.193
Mof_C 	C 	0.69408	0.89562	0.02362	0.02
Mof_C 	C 	0.68119	0.89889	0.04787	0.021
Mof_O 	O 	0.74786	0.82441	0.78897	-0.828
Mof_O 	O 	0.72475	0.91673	0.88117	-0.803
Mof_O 	O 	0.76523	0.84199	0.80648	-0.82
Mof_O 	O 	0.75327	0.94363	0.8663	-0.791
Mof_O 	O 	0.77824	0.88918	0.93031	-0.809
Mof_O 	O 	0.60319	0.10659	0.99374	-0.759
Mof_O 	O 	0.6033	0.15715	0.96902	-0.755
Mof_O 	O 	0.57723	0.11604	0.9661	-0.759
Mof_O 	O 	0.6	0.10795	0.92851	-0.787
Mof_O 	O 	0.5006	0.04203	0.00073	-0.756
Mof_O 	O 	0.52229	0.03782	0.96133	-0.77
Mof_O 	O 	0.68444	0.94621	0.91074	-0.784
Mof_O 	O 	0.54751	0.99199	0.95654	-0.779
Mof_O 	O 	0.73889	0.91888	0.95984	-0.814
Mof_O 	O 	0.71343	0.97254	0.89668	-0.804
Mof_O 	O 	0.57773	0.1659	0.94145	-0.774
Mof_O 	O 	0.65057	0.09263	0.91093	-0.832
Mof_H 	H 	0.71098	0.84271	0.77378	0.015
Mof_H 	H 	0.73468	0.90963	0.84083	0.019
Mof_H 	H 	0.74927	0.88351	0.81471	0.018
Mof_H 	H 	0.82446	0.92826	0.86305	0.019
Mof_H 	H 	0.77869	0.95001	0.81764	0.019
Mof_H 	H 	0.58302	0.07824	0.03939	0.021
Mof_H 	H 	0.6671	0.0505	0.01158	0.02
Mof_H 	H 	0.54151	0.09421	0.99626	0.02
Mof_H 	H 	0.51443	0.07002	0.00759	0.02
Mof_H 	H 	0.58302	0.08433	0.92083	0.019
Mof_H 	H 	0.55606	0.06039	0.93203	0.021
Mof_H 	H 	0.6391	0.97758	0.90893	0.022
Mof_H 	H 	0.59165	0.99335	0.92451	0.015
Mof_H 	H 	0.72592	0.93941	0.9927	0.02
Mof_H 	H 	0.7031	0.94517	0.03548	0.02
Mof_H 	H 	0.69105	0.88186	0.02072	0.016
Mof_H 	H 	0.66869	0.8874	0.06289	0.016
Mof_Cr	Cr	0.30577	0.96616	0.13577	2.41
Mof_Cr	Cr	0.44652	0.89037	0.94344	2.515
Mof_C 	C 	0.68056	0.78908	0.8276	0.033
Mof_C 	C 	0.52304	0.85045	0.88898	0.017
Mof_C 	C 	0.54461	0.83545	0.87397	0.022
Mof_C 	C 	0.39946	0.84479	0.93321	0.018
Mof_C 	C 	0.41937	0.8678	0.93773	0.662
Mof_C 	C 	0.41896	0.84359	0.93911	-0.189
Mof_C 	C 	0.4383	0.81932	0.94542	0.017
Mof_C 	C 	0.29274	0.04163	0.06406	0.011
Mof_C 	C 	0.28742	0.99695	0.09064	0.619
Mof_C 	C 	0.28506	0.02205	0.06782	-0.171
Mof_C 	C 	0.27678	0.0261	0.04855	0.011
Mof_C 	C 	0.38611	0.98201	0.08703	0.013
Mof_C 	C 	0.36196	0.95039	0.10596	0.632
Mof_C 	C 	0.3864	0.9576	0.0913	-0.175
Mof_C 	C 	0.40915	0.98848	0.07319	0.012
Mof_C 	C 	0.4577	0.97801	0.0469	0.625
Mof_C 	C 	0.43328	0.97073	0.06325	-0.173
Mof_C 	C 	0.41057	0.93984	0.08149	0.014
Mof_C 	C 	0.43353	0.94626	0.06778	0.012
Mof_C 	C 	0.47788	0.92736	0.96575	0.005
Mof_C 	C 	0.48724	0.93637	0.9748	0.035
Mof_C 	C 	0.3505	0.00806	0.92776	0.02
Mof_C 	C 	0.393	0.97696	0.90834	0.672
Mof_C 	C 	0.37631	0.00328	0.91028	-0.196
Mof_C 	C 	0.33577	0.0325	0.93111	0.017
Mof_C 	C 	0.32862	0.91743	0.17204	0.668
Mof_C 	C 	0.34661	0.05253	0.91701	-0.194
Mof_C 	C 	0.38669	0.02362	0.89562	0.019
Mof_C 	C 	0.37206	0.04787	0.89889	0.022
Mof_O 	O 	0.63876	0.78897	0.82441	-0.828
Mof_O 	O 	0.47735	0.88117	0.91673	-0.803
Mof_O 	O 	0.5863	0.80648	0.84199	-0.82
Mof_O 	O 	0.4368	0.8663	0.94363	-0.792
Mof_O 	O 	0.40227	0.93031	0.88918	-0.809
Mof_O 	O 	0.29648	0.99374	0.10659	-0.759
Mof_O 	O 	0.27054	0.96902	0.15715	-0.755
Mof_O 	O 	0.34063	0.9661	0.11604	-0.759
Mof_O 	O 	0.36353	0.92851	0.10795	-0.787
Mof_O 	O 	0.45664	0.00073	0.04203	-0.756
Mof_O 	O 	0.47857	0.96133	0.03782	-0.77
Mof_O 	O 	0.4586	0.91074	0.94621	-0.783
Mof_O 	O 	0.50396	0.95654	0.99199	-0.779
Mof_O 	O 	0.38238	0.95984	0.91888	-0.814
Mof_O 	O 	0.41736	0.89668	0.97254	-0.804
Mof_O 	O 	0.31492	0.94145	0.1659	-0.774
Mof_O 	O 	0.34586	0.91093	0.09263	-0.832
Mof_H 	H 	0.67253	0.77378	0.84271	0.015
Mof_H 	H 	0.51485	0.84083	0.90963	0.019
Mof_H 	H 	0.55251	0.81471	0.88351	0.018
Mof_H 	H 	0.38423	0.86305	0.92826	0.019
Mof_H 	H 	0.45366	0.81764	0.95001	0.019
Mof_H 	H 	0.29936	0.03939	0.07824	0.021
Mof_H 	H 	0.27082	0.01158	0.0505	0.02
Mof_H 	H 	0.36801	0.99626	0.09421	0.02
Mof_H 	H 	0.40797	0.00759	0.07002	0.02
Mof_H 	H 	0.41181	0.92083	0.08433	0.019
Mof_H 	H 	0.45151	0.93203	0.06039	0.021
Mof_H 	H 	0.47439	0.90893	0.97758	0.022
Mof_H 	H 	0.49049	0.92451	0.99335	0.015
Mof_H 	H 	0.34198	0.9927	0.93941	0.021
Mof_H 	H 	0.31624	0.03548	0.94517	0.02
Mof_H 	H 	0.40637	0.02072	0.88186	0.016
Mof_H 	H 	0.38102	0.06289	0.8874	0.016
Mof_Cr	Cr	0.13577	0.5923	0.30577	2.409
Mof_Cr	Cr	0.94344	0.71966	0.44652	2.515
Mof_C 	C 	0.8276	0.70277	0.68056	0.033
Mof_C 	C 	0.88898	0.73753	0.52304	0.017
Mof_C 	C 	0.87397	0.74597	0.54461	0.022
Mof_C 	C 	0.93321	0.82254	0.39946	0.018
Mof_C 	C 	0.93773	0.77511	0.41937	0.662
Mof_C 	C 	0.93911	0.79833	0.41896	-0.19
Mof_C 	C 	0.94542	0.79696	0.4383	0.017
Mof_C 	C 	0.06406	0.60157	0.29274	0.011
Mof_C 	C 	0.09064	0.62499	0.28742	0.619
Mof_C 	C 	0.06782	0.62506	0.28506	-0.171
Mof_C 	C 	0.04855	0.64857	0.27678	0.011
Mof_C 	C 	0.08703	0.54484	0.38611	0.013
Mof_C 	C 	0.10596	0.58169	0.36196	0.632
Mof_C 	C 	0.0913	0.5647	0.3864	-0.176
Mof_C 	C 	0.07319	0.52917	0.40915	0.011
Mof_C 	C 	0.0469	0.51739	0.4577	0.624
Mof_C 	C 	0.06325	0.53274	0.43328	-0.173
Mof_C 	C 	0.08149	0.5681	0.41057	0.014
Mof_C 	C 	0.06778	0.55243	0.43353	0.011
Mof_C 	C 	0.96575	0.62901	0.47788	0.005
Mof_C 	C 	0.9748	0.60159	0.48724	0.035
Mof_C 	C 	0.92776	0.71368	0.3505	0.021
Mof_C 	C 	0.90834	0.7217	0.393	0.672
Mof_C 	C 	0.91028	0.71013	0.37631	-0.196
Mof_C 	C 	0.93111	0.70062	0.33577	0.017
Mof_C 	C 	0.17204	0.58192	0.32862	0.668
Mof_C 	C 	0.91701	0.68385	0.34661	-0.193
Mof_C 	C 	0.89562	0.69408	0.38669	0.02
Mof_C 	C 	0.89889	0.68119	0.37206	0.021
Mof_O 	O 	0.82441	0.74786	0.63876	-0.828
Mof_O 	O 	0.91673	0.72475	0.47735	-0.803
Mof_O 	O 	0.84199	0.76523	0.5863	-0.82
Mof_O 	O 	0.94363	0.75327	0.4368	-0.792
Mof_O 	O 	0.88918	0.77824	0.40227	-0.809
Mof_O 	O 	0.10659	0.60319	0.29648	-0.759
Mof_O 	O 	0.15715	0.6033	0.27054	-0.756
Mof_O 	O 	0.11604	0.57723	0.34063	-0.759
Mof_O 	O 	0.10795	0.6	0.36353	-0.787
Mof_O 	O 	0.04203	0.5006	0.45664	-0.756
Mof_O 	O 	0.03782	0.52229	0.47857	-0.769
Mof_O 	O 	0.94621	0.68444	0.4586	-0.784
Mof_O 	O 	0.99199	0.54751	0.50396	-0.779
Mof_O 	O 	0.91888	0.73889	0.38238	-0.813
Mof_O 	O 	0.97254	0.71343	0.41736	-0.804
Mof_O 	O 	0.1659	0.57773	0.31492	-0.774
Mof_O 	O 	0.09263	0.65057	0.34586	-0.832
Mof_H 	H 	0.84271	0.71098	0.67253	0.015
Mof_H 	H 	0.90963	0.73468	0.51485	0.019
Mof_H 	H 	0.88351	0.74927	0.55251	0.018
Mof_H 	H 	0.92826	0.82446	0.38423	0.019
Mof_H 	H 	0.95001	0.77869	0.45366	0.019
Mof_H 	H 	0.07824	0.58302	0.29936	0.021
Mof_H 	H 	0.0505	0.6671	0.27082	0.021
Mof_H 	H 	0.09421	0.54151	0.36801	0.02
Mof_H 	H 	0.07002	0.51443	0.40797	0.021
Mof_H 	H 	0.08433	0.58302	0.41181	0.019
Mof_H 	H 	0.06039	0.55606	0.45151	0.021
Mof_H 	H 	0.97758	0.6391	0.47439	0.022
Mof_H 	H 	0.99335	0.59165	0.49049	0.015
Mof_H 	H 	0.93941	0.72592	0.34198	0.02
Mof_H 	H 	0.94517	0.7031	0.31624	0.02
Mof_H 	H 	0.88186	0.69105	0.40637	0.016
Mof_H 	H 	0.8874	0.66869	0.38102	0.016
Mof_Cr	Cr	0.96616	0.30577	0.5923	2.41
Mof_Cr	Cr	0.89037	0.44652	0.71966	2.514
Mof_C 	C 	0.78908	0.68056	0.70277	0.033
Mof_C 	C 	0.85045	0.52304	0.73753	0.017
Mof_C 	C 	0.83545	0.54461	0.74597	0.022
Mof_C 	C 	0.84479	0.39946	0.82254	0.018
Mof_C 	C 	0.8678	0.41937	0.77511	0.662
Mof_C 	C 	0.84359	0.41896	0.79833	-0.189
Mof_C 	C 	0.81932	0.4383	0.79696	0.017
Mof_C 	C 	0.04163	0.29274	0.60157	0.012
Mof_C 	C 	0.99695	0.28742	0.62499	0.62
Mof_C 	C 	0.02205	0.28506	0.62506	-0.172
Mof_C 	C 	0.0261	0.27678	0.64857	0.011
Mof_C 	C 	0.98201	0.38611	0.54484	0.013
Mof_C 	C 	0.95039	0.36196	0.58169	0.632
Mof_C 	C 	0.9576	0.3864	0.5647	-0.176
Mof_C 	C 	0.98848	0.40915	0.52917	0.012
Mof_C 	C 	0.97801	0.4577	0.51739	0.625
Mof_C 	C 	0.97073	0.43328	0.53274	-0.173
Mof_C 	C 	0.93984	0.41057	0.5681	0.014
Mof_C 	C 	0.94626	0.43353	0.55243	0.012
Mof_C 	C 	0.92736	0.47788	0.62901	0.005
Mof_C 	C 	0.93637	0.48724	0.60159	0.035
Mof_C 	C 	0.00806	0.3505	0.71368	0.02
Mof_C 	C 	0.97696	0.393	0.7217	0.672
Mof_C 	C 	0.00328	0.37631	0.71013	-0.196
Mof_C 	C 	0.0325	0.33577	0.70062	0.017
Mof_C 	C 	0.91743	0.32862	0.58192	0.669
Mof_C 	C 	0.05253	0.34661	0.68385	-0.194
Mof_C 	C 	0.02362	0.38669	0.69408	0.019
Mof_C 	C 	0.04787	0.37206	0.68119	0.021
Mof_O 	O 	0.78897	0.63876	0.74786	-0.829
Mof_O 	O 	0.88117	0.47735	0.72475	-0.803
Mof_O 	O 	0.80648	0.5863	0.76523	-0.82
Mof_O 	O 	0.8663	0.4368	0.75327	-0.792
Mof_O 	O 	0.93031	0.40227	0.77824	-0.809
Mof_O 	O 	0.99374	0.29648	0.60319	-0.759
Mof_O 	O 	0.96902	0.27054	0.6033	-0.756
Mof_O 	O 	0.9661	0.34063	0.57723	-0.759
Mof_O 	O 	0.92851	0.36353	0.6	-0.788
Mof_O 	O 	0.00073	0.45664	0.5006	-0.756
Mof_O 	O 	0.96133	0.47857	0.52229	-0.77
Mof_O 	O 	0.91074	0.4586	0.68444	-0.783
Mof_O 	O 	0.95654	0.50396	0.54751	-0.78
Mof_O 	O 	0.95984	0.38238	0.73889	-0.813
Mof_O 	O 	0.89668	0.41736	0.71343	-0.805
Mof_O 	O 	0.94145	0.31492	0.57773	-0.774
Mof_O 	O 	0.91093	0.34586	0.65057	-0.832
Mof_H 	H 	0.77378	0.67253	0.71098	0.015
Mof_H 	H 	0.84083	0.51485	0.73468	0.019
Mof_H 	H 	0.81471	0.55251	0.74927	0.018
Mof_H 	H 	0.86305	0.38423	0.82446	0.019
Mof_H 	H 	0.81764	0.45366	0.77869	0.019
Mof_H 	H 	0.03939	0.29936	0.58302	0.021
Mof_H 	H 	0.01158	0.27082	0.6671	0.02
Mof_H 	H 	0.99626	0.36801	0.54151	0.02
Mof_H 	H 	0.00759	0.40797	0.51443	0.02
Mof_H 	H 	0.92083	0.41181	0.58302	0.019
Mof_H 	H 	0.93203	0.45151	0.55606	0.021
Mof_H 	H 	0.90893	0.47439	0.6391	0.022
Mof_H 	H 	0.92451	0.49049	0.59165	0.015
Mof_H 	H 	0.9927	0.34198	0.72592	0.021
Mof_H 	H 	0.03548	0.31624	0.7031	0.02
Mof_H 	H 	0.02072	0.40637	0.69105	0.016
Mof_H 	H 	0.06289	0.38102	0.66869	0.016
Mof_Cr	Cr	0.96616	0.5923	0.13577	2.409
Mof_Cr	Cr	0.89037	0.71966	0.94344	2.514
Mof_C 	C 	0.78908	0.70277	0.8276	0.033
Mof_C 	C 	0.85045	0.73753	0.88898	0.017
Mof_C 	C 	0.83545	0.74597	0.87397	0.022
Mof_C 	C 	0.84479	0.82254	0.93321	0.018
Mof_C 	C 	0.8678	0.77511	0.93773	0.662
Mof_C 	C 	0.84359	0.79833	0.93911	-0.189
Mof_C 	C 	0.81932	0.79696	0.94542	0.017
Mof_C 	C 	0.04163	0.60157	0.06406	0.011
Mof_C 	C 	0.99695	0.62499	0.09064	0.62
Mof_C 	C 	0.02205	0.62506	0.06782	-0.172
Mof_C 	C 	0.0261	0.64857	0.04855	0.011
Mof_C 	C 	0.98201	0.54484	0.08703	0.012
Mof_C 	C 	0.95039	0.58169	0.10596	0.632
Mof_C 	C 	0.9576	0.5647	0.0913	-0.175
Mof_C 	C 	0.98848	0.52917	0.07319	0.012
Mof_C 	C 	0.97801	0.51739	0.0469	0.625
Mof_C 	C 	0.97073	0.53274	0.06325	-0.173
Mof_C 	C 	0.93984	0.5681	0.08149	0.014
Mof_C 	C 	0.94626	0.55243	0.06778	0.012
Mof_C 	C 	0.92736	0.62901	0.96575	0.005
Mof_C 	C 	0.93637	0.60159	0.9748	0.035
Mof_C 	C 	0.00806	0.71368	0.92776	0.02
Mof_C 	C 	0.97696	0.7217	0.90834	0.673
Mof_C 	C 	0.00328	0.71013	0.91028	-0.196
Mof_C 	C 	0.0325	0.70062	0.93111	0.017
Mof_C 	C 	0.91743	0.58192	0.17204	0.669
Mof_C 	C 	0.05253	0.68385	0.91701	-0.193
Mof_C 	C 	0.02362	0.69408	0.89562	0.02
Mof_C 	C 	0.04787	0.68119	0.89889	0.021
Mof_O 	O 	0.78897	0.74786	0.82441	-0.828
Mof_O 	O 	0.88117	0.72475	0.91673	-0.803
Mof_O 	O 	0.80648	0.76523	0.84199	-0.82
Mof_O 	O 	0.8663	0.75327	0.94363	-0.791
Mof_O 	O 	0.93031	0.77824	0.88918	-0.809
Mof_O 	O 	0.99374	0.60319	0.10659	-0.759
Mof_O 	O 	0.96902	0.6033	0.15715	-0.755
Mof_O 	O 	0.9661	0.57723	0.11604	-0.759
Mof_O 	O 	0.92851	0.6	0.10795	-0.787
Mof_O 	O 	0.00073	0.5006	0.04203	-0.756
Mof_O 	O 	0.96133	0.52229	0.03782	-0.77
Mof_O 	O 	0.91074	0.68444	0.94621	-0.784
Mof_O 	O 	0.95654	0.54751	0.99199	-0.779
Mof_O 	O 	0.95984	0.73889	0.91888	-0.814
Mof_O 	O 	0.89668	0.71343	0.97254	-0.804
Mof_O 	O 	0.94145	0.57773	0.1659	-0.774
Mof_O 	O 	0.91093	0.65057	0.09263	-0.832
Mof_H 	H 	0.77378	0.71098	0.84271	0.015
Mof_H 	H 	0.84083	0.73468	0.90963	0.019
Mof_H 	H 	0.81471	0.74927	0.88351	0.018
Mof_H 	H 	0.86305	0.82446	0.92826	0.019
Mof_H 	H 	0.81764	0.77869	0.95001	0.019
Mof_H 	H 	0.03939	0.58302	0.07824	0.021
Mof_H 	H 	0.01158	0.6671	0.0505	0.02
Mof_H 	H 	0.99626	0.54151	0.09421	0.02
Mof_H 	H 	0.00759	0.51443	0.07002	0.02
Mof_H 	H 	0.92083	0.58302	0.08433	0.019
Mof_H 	H 	0.93203	0.55606	0.06039	0.021
Mof_H 	H 	0.90893	0.6391	0.97758	0.022
Mof_H 	H 	0.92451	0.59165	0.99335	0.015
Mof_H 	H 	0.9927	0.72592	0.93941	0.02
Mof_H 	H 	0.03548	0.7031	0.94517	0.02
Mof_H 	H 	0.02072	0.69105	0.88186	0.016
Mof_H 	H 	0.06289	0.66869	0.8874	0.016
Mof_Cr	Cr	0.13577	0.30577	0.96616	2.41
Mof_Cr	Cr	0.94344	0.44652	0.89037	2.515
Mof_C 	C 	0.8276	0.68056	0.78908	0.033
Mof_C 	C 	0.88898	0.52304	0.85045	0.017
Mof_C 	C 	0.87397	0.54461	0.83545	0.022
Mof_C 	C 	0.93321	0.39946	0.84479	0.018
Mof_C 	C 	0.93773	0.41937	0.8678	0.662
Mof_C 	C 	0.93911	0.41896	0.84359	-0.189
Mof_C 	C 	0.94542	0.4383	0.81932	0.017
Mof_C 	C 	0.06406	0.29274	0.04163	0.011
Mof_C 	C 	0.09064	0.28742	0.99695	0.619
Mof_C 	C 	0.06782	0.28506	0.02205	-0.171
Mof_C 	C 	0.04855	0.27678	0.0261	0.011
Mof_C 	C 	0.08703	0.38611	0.98201	0.013
Mof_C 	C 	0.10596	0.36196	0.95039	0.632
Mof_C 	C 	0.0913	0.3864	0.9576	-0.175
Mof_C 	C 	0.07319	0.40915	0.98848	0.012
Mof_C 	C 	0.0469	0.4577	0.97801	0.625
Mof_C 	C 	0.06325	0.43328	0.97073	-0.173
Mof_C 	C 	0.08149	0.41057	0.93984	0.014
Mof_C 	C 	0.06778	0.43353	0.94626	0.012
Mof_C 	C 	0.96575	0.47788	0.92736	0.005
Mof_C 	C 	0.9748	0.48724	0.93637	0.035
Mof_C 	C 	0.92776	0.3505	0.00806	0.02
Mof_C 	C 	0.90834	0.393	0.97696	0.672
Mof_C 	C 	0.91028	0.37631	0.00328	-0.196
Mof_C 	C 	0.93111	0.33577	0.0325	0.017
Mof_C 	C 	0.17204	0.32862	0.91743	0.668
Mof_C 	C 	0.91701	0.34661	0.05253	-0.194
Mof_C 	C 	0.89562	0.38669	0.02362	0.019
Mof_C 	C 	0.89889	0.37206	0.04787	0.022
Mof_O 	O 	0.82441	0.63876	0.78897	-0.828
Mof_O 	O 	0.91673	0.47735	0.88117	-0.803
Mof_O 	O 	0.84199	0.5863	0.80648	-0.82
Mof_O 	O 	0.94363	0.4368	0.8663	-0.792
Mof_O 	O 	0.88918	0.40227	0.93031	-0.809
Mof_O 	O 	0.10659	0.29648	0.99374	-0.759
Mof_O 	O 	0.15715	0.27054	0.96902	-0.755
Mof_O 	O 	0.11604	0.34063	0.9661	-0.759
Mof_O 	O 	0.10795	0.36353	0.92851	-0.787
Mof_O 	O 	0.04203	0.45664	0.00073	-0.756
Mof_O 	O 	0.03782	0.47857	0.96133	-0.77
Mof_O 	O 	0.94621	0.4586	0.91074	-0.783
Mof_O 	O 	0.99199	0.50396	0.95654	-0.779
Mof_O 	O 	0.91888	0.38238	0.95984	-0.814
Mof_O 	O 	0.97254	0.41736	0.89668	-0.804
Mof_O 	O 	0.1659	0.31492	0.94145	-0.774
Mof_O 	O 	0.09263	0.34586	0.91093	-0.832
Mof_H 	H 	0.84271	0.67253	0.77378	0.015
Mof_H 	H 	0.90963	0.51485	0.84083	0.019
Mof_H 	H 	0.88351	0.55251	0.81471	0.018
Mof_H 	H 	0.92826	0.38423	0.86305	0.019
Mof_H 	H 	0.95001	0.45366	0.81764	0.019
Mof_H 	H 	0.07824	0.29936	0.03939	0.021
Mof_H 	H 	0.0505	0.27082	0.01158	0.02
Mof_H 	H 	0.09421	0.36801	0.99626	0.02
Mof_H 	H 	0.07002	0.40797	0.00759	0.02
Mof_H 	H 	0.08433	0.41181	0.92083	0.019
Mof_H 	H 	0.06039	0.45151	0.93203	0.021
Mof_H 	H 	0.97758	0.47439	0.90893	0.022
Mof_H 	H 	0.99335	0.49049	0.92451	0.015
Mof_H 	H 	0.93941	0.34198	0.9927	0.021
Mof_H 	H 	0.94517	0.31624	0.03548	0.02
Mof_H 	H 	0.88186	0.40637	0.02072	0.016
Mof_H 	H 	0.8874	0.38102	0.06289	0.016
Mof_Cr	Cr	0.30577	0.13577	0.5923	2.409
Mof_Cr	Cr	0.44652	0.94344	0.71966	2.515
Mof_C 	C 	0.68056	0.8276	0.70277	0.033
Mof_C 	C 	0.52304	0.88898	0.73753	0.017
Mof_C 	C 	0.54461	0.87397	0.74597	0.022
Mof_C 	C 	0.39946	0.93321	0.82254	0.018
Mof_C 	C 	0.41937	0.93773	0.77511	0.662
Mof_C 	C 	0.41896	0.93911	0.79833	-0.19
Mof_C 	C 	0.4383	0.94542	0.79696	0.017
Mof_C 	C 	0.29274	0.06406	0.60157	0.011
Mof_C 	C 	0.28742	0.09064	0.62499	0.619
Mof_C 	C 	0.28506	0.06782	0.62506	-0.171
Mof_C 	C 	0.27678	0.04855	0.64857	0.011
Mof_C 	C 	0.38611	0.08703	0.54484	0.013
Mof_C 	C 	0.36196	0.10596	0.58169	0.632
Mof_C 	C 	0.3864	0.0913	0.5647	-0.176
Mof_C 	C 	0.40915	0.07319	0.52917	0.011
Mof_C 	C 	0.4577	0.0469	0.51739	0.624
Mof_C 	C 	0.43328	0.06325	0.53274	-0.173
Mof_C 	C 	0.41057	0.08149	0.5681	0.014
Mof_C 	C 	0.43353	0.06778	0.55243	0.011
Mof_C 	C 	0.47788	0.96575	0.62901	0.005
Mof_C 	C 	0.48724	0.9748	0.60159	0.035
Mof_C 	C 	0.3505	0.92776	0.71368	0.021
Mof_C 	C 	0.393	0.90834	0.7217	0.672
Mof_C 	C 	0.37631	0.91028	0.71013	-0.196
Mof_C 	C 	0.33577	0.93111	0.70062	0.017
Mof_C 	C 	0.32862	0.17204	0.58192	0.668
Mof_C 	C 	0.34661	0.91701	0.68385	-0.193
Mof_C 	C 	0.38669	0.89562	0.69408	0.02
Mof_C 	C 	0.37206	0.89889	0.68119	0.021
Mof_O 	O 	0.63876	0.82441	0.74786	-0.828
Mof_O 	O 	0.47735	0.91673	0.72475	-0.803
Mof_O 	O 	0.5863	0.84199	0.76523	-0.82
Mof_O 	O 	0.4368	0.94363	0.75327	-0.792
Mof_O 	O 	0.40227	0.88918	0.77824	-0.809
Mof_O 	O 	0.29648	0.10659	0.60319	-0.759
Mof_O 	O 	0.27054	0.15715	0.6033	-0.756
Mof_O 	O 	0.34063	0.11604	0.57723	-0.759
Mof_O 	O 	0.36353	0.10795	0.6	-0.787
Mof_O 	O 	0.45664	0.04203	0.5006	-0.756
Mof_O 	O 	0.47857	0.03782	0.52229	-0.769
Mof_O 	O 	0.4586	0.94621	0.68444	-0.784
Mof_O 	O 	0.50396	0.99199	0.54751	-0.779
Mof_O 	O 	0.38238	0.91888	0.73889	-0.813
Mof_O 	O 	0.41736	0.97254	0.71343	-0.804
Mof_O 	O 	0.31492	0.1659	0.57773	-0.774
Mof_O 	O 	0.34586	0.09263	0.65057	-0.832
Mof_H 	H 	0.67253	0.84271	0.71098	0.015
Mof_H 	H 	0.51485	0.90963	0.73468	0.019
Mof_H 	H 	0.55251	0.88351	0.74927	0.018
Mof_H 	H 	0.38423	0.92826	0.82446	0.019
Mof_H 	H 	0.45366	0.95001	0.77869	0.019
Mof_H 	H 	0.29936	0.07824	0.58302	0.021
Mof_H 	H 	0.27082	0.0505	0.6671	0.021
Mof_H 	H 	0.36801	0.09421	0.54151	0.02
Mof_H 	H 	0.40797	0.07002	0.51443	0.021
Mof_H 	H 	0.41181	0.08433	0.58302	0.019
Mof_H 	H 	0.45151	0.06039	0.55606	0.021
Mof_H 	H 	0.47439	0.97758	0.6391	0.022
Mof_H 	H 	0.49049	0.99335	0.59165	0.015
Mof_H 	H 	0.34198	0.93941	0.72592	0.02
Mof_H 	H 	0.31624	0.94517	0.7031	0.02
Mof_H 	H 	0.40637	0.88186	0.69105	0.016
Mof_H 	H 	0.38102	0.8874	0.66869	0.016
Mof_Cr	Cr	0.5923	0.96616	0.30577	2.41
Mof_Cr	Cr	0.71966	0.89037	0.44652	2.514
Mof_C 	C 	0.70277	0.78908	0.68056	0.033
Mof_C 	C 	0.73753	0.85045	0.52304	0.017
Mof_C 	C 	0.74597	0.83545	0.54461	0.022
Mof_C 	C 	0.82254	0.84479	0.39946	0.018
Mof_C 	C 	0.77511	0.8678	0.41937	0.662
Mof_C 	C 	0.79833	0.84359	0.41896	-0.189
Mof_C 	C 	0.79696	0.81932	0.4383	0.017
Mof_C 	C 	0.60157	0.04163	0.29274	0.012
Mof_C 	C 	0.62499	0.99695	0.28742	0.62
Mof_C 	C 	0.62506	0.02205	0.28506	-0.172
Mof_C 	C 	0.64857	0.0261	0.27678	0.011
Mof_C 	C 	0.54484	0.98201	0.38611	0.013
Mof_C 	C 	0.58169	0.95039	0.36196	0.632
Mof_C 	C 	0.5647	0.9576	0.3864	-0.176
Mof_C 	C 	0.52917	0.98848	0.40915	0.012
Mof_C 	C 	0.51739	0.97801	0.4577	0.625
Mof_C 	C 	0.53274	0.97073	0.43328	-0.173
Mof_C 	C 	0.5681	0.93984	0.41057	0.014
Mof_C 	C 	0.55243	0.94626	0.43353	0.012
Mof_C 	C 	0.62901	0.92736	0.47788	0.005
Mof_C 	C 	0.60159	0.93637	0.48724	0.035
Mof_C 	C 	0.71368	0.00806	0.3505	0.02
Mof_C 	C 	0.7217	0.97696	0.393	0.672
Mof_C 	C 	0.71013	0.00328	0.37631	-0.196
Mof_C 	C 	0.70062	0.0325	0.33577	0.017
Mof_C 	C 	0.58192	0.91743	0.32862	0.669
Mof_C 	C 	0.68385	0.05253	0.34661	-0.194
Mof_C 	C 	0.69408	0.02362	0.38669	0.019
Mof_C 	C 	0.68119	0.04787	0.37206	0.021
Mof_O 	O 	0.74786	0.78897	0.63876	-0.829
Mof_O 	O 	0.72475	0.88117	0.47735	-0.803
Mof_O 	O 	0.76523	0.80648	0.5863	-0.82
Mof_O 	O 	0.75327	0.8663	0.4368	-0.792
Mof_O 	O 	0.77824	0.93031	0.40227	-0.809
Mof_O 	O 	0.60319	0.99374	0.29648	-0.759
Mof_O 	O 	0.6033	0.96902	0.27054	-0.756
Mof_O 	O 	0.57723	0.9661	0.34063	-0.759
Mof_O 	O 	0.6	0.92851	0.36353	-0.788
Mof_O 	O 	0.5006	0.00073	0.45664	-0.756
Mof_O 	O 	0.52229	0.96133	0.47857	-0.77
Mof_O 	O 	0.68444	0.91074	0.4586	-0.783
Mof_O 	O 	0.54751	0.95654	0.50396	-0.78
Mof_O 	O 	0.73889	0.95984	0.38238	-0.813
Mof_O 	O 	0.71343	0.89668	0.41736	-0.805
Mof_O 	O 	0.57773	0.94145	0.31492	-0.774
Mof_O 	O 	0.65057	0.91093	0.34586	-0.832
Mof_H 	H 	0.71098	0.77378	0.67253	0.015
Mof_H 	H 	0.73468	0.84083	0.51485	0.019
Mof_H 	H 	0.74927	0.81471	0.55251	0.018
Mof_H 	H 	0.82446	0.86305	0.38423	0.019
Mof_H 	H 	0.77869	0.81764	0.45366	0.019
Mof_H 	H 	0.58302	0.03939	0.29936	0.021
Mof_H 	H 	0.6671	0.01158	0.27082	0.02
Mof_H 	H 	0.54151	0.99626	0.36801	0.02
Mof_H 	H 	0.51443	0.00759	0.40797	0.02
Mof_H 	H 	0.58302	0.92083	0.41181	0.019
Mof_H 	H 	0.55606	0.93203	0.45151	0.021
Mof_H 	H 	0.6391	0.90893	0.47439	0.022
Mof_H 	H 	0.59165	0.92451	0.49049	0.015
Mof_H 	H 	0.72592	0.9927	0.34198	0.021
Mof_H 	H 	0.7031	0.03548	0.31624	0.02
Mof_H 	H 	0.69105	0.02072	0.40637	0.016
Mof_H 	H 	0.66869	0.06289	0.38102	0.016
Mof_Cr	Cr	0.11423	0.28384	0.94423	2.41
Mof_Cr	Cr	0.30656	0.35963	0.80348	2.515
Mof_C 	C 	0.4224	0.46092	0.56944	0.033
Mof_C 	C 	0.36102	0.39955	0.72696	0.017
Mof_C 	C 	0.37603	0.41455	0.70539	0.022
Mof_C 	C 	0.31679	0.40521	0.85054	0.018
Mof_C 	C 	0.31227	0.3822	0.83063	0.662
Mof_C 	C 	0.31089	0.40641	0.83104	-0.189
Mof_C 	C 	0.30458	0.43068	0.8117	0.017
Mof_C 	C 	0.18594	0.20837	0.95726	0.011
Mof_C 	C 	0.15936	0.25305	0.96258	0.619
Mof_C 	C 	0.18218	0.22795	0.96494	-0.171
Mof_C 	C 	0.20145	0.2239	0.97322	0.011
Mof_C 	C 	0.16297	0.26799	0.86389	0.013
Mof_C 	C 	0.14404	0.29961	0.88804	0.632
Mof_C 	C 	0.1587	0.2924	0.8636	-0.176
Mof_C 	C 	0.17681	0.26152	0.84085	0.012
Mof_C 	C 	0.2031	0.27199	0.7923	0.625
Mof_C 	C 	0.18675	0.27927	0.81672	-0.173
Mof_C 	C 	0.16851	0.31016	0.83943	0.014
Mof_C 	C 	0.18222	0.30374	0.81647	0.012
Mof_C 	C 	0.28425	0.32264	0.77212	0.005
Mof_C 	C 	0.2752	0.31363	0.76276	0.035
Mof_C 	C 	0.32224	0.24194	0.8995	0.02
Mof_C 	C 	0.34166	0.27304	0.857	0.671
Mof_C 	C 	0.33972	0.24672	0.87369	-0.195
Mof_C 	C 	0.31889	0.2175	0.91423	0.017
Mof_C 	C 	0.07796	0.33257	0.92138	0.668
Mof_C 	C 	0.33299	0.19747	0.90339	-0.194
Mof_C 	C 	0.35438	0.22638	0.86331	0.019
Mof_C 	C 	0.35111	0.20213	0.87794	0.022
Mof_O 	O 	0.42559	0.46103	0.61124	-0.828
Mof_O 	O 	0.33327	0.36883	0.77265	-0.803
Mof_O 	O 	0.40801	0.44352	0.6637	-0.82
Mof_O 	O 	0.30637	0.3837	0.8132	-0.792
Mof_O 	O 	0.36082	0.31969	0.84773	-0.809
Mof_O 	O 	0.14341	0.25626	0.95352	-0.759
Mof_O 	O 	0.09285	0.28098	0.97946	-0.755
Mof_O 	O 	0.13396	0.2839	0.90937	-0.759
Mof_O 	O 	0.14205	0.32149	0.88647	-0.787
Mof_O 	O 	0.20797	0.24927	0.79336	-0.756
Mof_O 	O 	0.21218	0.28867	0.77143	-0.77
Mof_O 	O 	0.30379	0.33926	0.7914	-0.783
Mof_O 	O 	0.25801	0.29346	0.74604	-0.78
Mof_O 	O 	0.33112	0.29016	0.86762	-0.814
Mof_O 	O 	0.27746	0.35332	0.83264	-0.804
Mof_O 	O 	0.0841	0.30855	0.93508	-0.774
Mof_O 	O 	0.15737	0.33907	0.90414	-0.832
Mof_H 	H 	0.40729	0.47622	0.57747	0.015
Mof_H 	H 	0.34037	0.40917	0.73515	0.019
Mof_H 	H 	0.36649	0.43529	0.69749	0.018
Mof_H 	H 	0.32174	0.38695	0.86577	0.019
Mof_H 	H 	0.29999	0.43236	0.79634	0.019
Mof_H 	H 	0.17176	0.21061	0.95064	0.021
Mof_H 	H 	0.1995	0.23842	0.97918	0.021
Mof_H 	H 	0.15579	0.25374	0.88199	0.02
Mof_H 	H 	0.17998	0.24241	0.84203	0.021
Mof_H 	H 	0.16567	0.32917	0.83819	0.019
Mof_H 	H 	0.18961	0.31797	0.79849	0.021
Mof_H 	H 	0.27242	0.34107	0.77561	0.022
Mof_H 	H 	0.25665	0.32549	0.75951	0.015
Mof_H 	H 	0.31059	0.2573	0.90802	0.02
Mof_H 	H 	0.30483	0.21452	0.93376	0.02
Mof_H 	H 	0.36814	0.22928	0.84363	0.016
Mof_H 	H 	0.3626	0.18711	0.86898	0.016
Mof_Cr	Cr	0.28384	0.11423	0.6577	2.409
Mof_Cr	Cr	0.35963	0.30656	0.53034	2.514
Mof_C 	C 	0.46092	0.4224	0.54723	0.033
Mof_C 	C 	0.39955	0.36102	0.51247	0.017
Mof_C 	C 	0.41455	0.37603	0.50403	0.022
Mof_C 	C 	0.40521	0.31679	0.42746	0.018
Mof_C 	C 	0.3822	0.31227	0.47489	0.662
Mof_C 	C 	0.40641	0.31089	0.45167	-0.189
Mof_C 	C 	0.43068	0.30458	0.45304	0.017
Mof_C 	C 	0.20837	0.18594	0.64843	0.011
Mof_C 	C 	0.25305	0.15936	0.62501	0.619
Mof_C 	C 	0.22795	0.18218	0.62494	-0.171
Mof_C 	C 	0.2239	0.20145	0.60143	0.011
Mof_C 	C 	0.26799	0.16297	0.70516	0.013
Mof_C 	C 	0.29961	0.14404	0.66831	0.632
Mof_C 	C 	0.2924	0.1587	0.6853	-0.176
Mof_C 	C 	0.26152	0.17681	0.72083	0.012
Mof_C 	C 	0.27199	0.2031	0.73261	0.625
Mof_C 	C 	0.27927	0.18675	0.71726	-0.173
Mof_C 	C 	0.31016	0.16851	0.6819	0.014
Mof_C 	C 	0.30374	0.18222	0.69757	0.012
Mof_C 	C 	0.32264	0.28425	0.62099	0.005
Mof_C 	C 	0.31363	0.2752	0.64841	0.035
Mof_C 	C 	0.24194	0.32224	0.53632	0.021
Mof_C 	C 	0.27304	0.34166	0.5283	0.673
Mof_C 	C 	0.24672	0.33972	0.53987	-0.196
Mof_C 	C 	0.2175	0.31889	0.54938	0.017
Mof_C 	C 	0.33257	0.07796	0.66808	0.669
Mof_C 	C 	0.19747	0.33299	0.56615	-0.193
Mof_C 	C 	0.22638	0.35438	0.55592	0.02
Mof_C 	C 	0.20213	0.35111	0.56881	0.021
Mof_O 	O 	0.46103	0.42559	0.50214	-0.828
Mof_O 	O 	0.36883	0.33327	0.52525	-0.803
Mof_O 	O 	0.44352	0.40801	0.48477	-0.82
Mof_O 	O 	0.3837	0.30637	0.49673	-0.791
Mof_O 	O 	0.31969	0.36082	0.47176	-0.809
Mof_O 	O 	0.25626	0.14341	0.64681	-0.759
Mof_O 	O 	0.28098	0.09285	0.6467	-0.755
Mof_O 	O 	0.2839	0.13396	0.67277	-0.759
Mof_O 	O 	0.32149	0.14205	0.65	-0.787
Mof_O 	O 	0.24927	0.20797	0.7494	-0.756
Mof_O 	O 	0.28867	0.21218	0.72771	-0.77
Mof_O 	O 	0.33926	0.30379	0.56556	-0.784
Mof_O 	O 	0.29346	0.25801	0.70249	-0.78
Mof_O 	O 	0.29016	0.33112	0.51111	-0.814
Mof_O 	O 	0.35332	0.27746	0.53657	-0.804
Mof_O 	O 	0.30855	0.0841	0.67227	-0.774
Mof_O 	O 	0.33907	0.15737	0.59943	-0.832
Mof_H 	H 	0.47622	0.40729	0.53902	0.015
Mof_H 	H 	0.40917	0.34037	0.51532	0.019
Mof_H 	H 	0.43529	0.36649	0.50073	0.018
Mof_H 	H 	0.38695	0.32174	0.42554	0.019
Mof_H 	H 	0.43236	0.29999	0.47131	0.019
Mof_H 	H 	0.21061	0.17176	0.66698	0.021
Mof_H 	H 	0.23842	0.1995	0.5829	0.02
Mof_H 	H 	0.25374	0.15579	0.70849	0.02
Mof_H 	H 	0.24241	0.17998	0.73557	0.021
Mof_H 	H 	0.32917	0.16567	0.66698	0.019
Mof_H 	H 	0.31797	0.18961	0.69394	0.021
Mof_H 	H 	0.34107	0.27242	0.6109	0.022
Mof_H 	H 	0.32549	0.25665	0.65835	0.015
Mof_H 	H 	0.2573	0.31059	0.52408	0.02
Mof_H 	H 	0.21452	0.30483	0.5469	0.02
Mof_H 	H 	0.22928	0.36814	0.55895	0.016
Mof_H 	H 	0.18711	0.3626	0.58131	0.016
Mof_Cr	Cr	0.6577	0.94423	0.28384	2.41
Mof_Cr	Cr	0.53034	0.80348	0.35963	2.514
Mof_C 	C 	0.54723	0.56944	0.46092	0.033
Mof_C 	C 	0.51247	0.72696	0.39955	0.017
Mof_C 	C 	0.50403	0.70539	0.41455	0.022
Mof_C 	C 	0.42746	0.85054	0.40521	0.018
Mof_C 	C 	0.47489	0.83063	0.3822	0.662
Mof_C 	C 	0.45167	0.83104	0.40641	-0.189
Mof_C 	C 	0.45304	0.8117	0.43068	0.017
Mof_C 	C 	0.64843	0.95726	0.20837	0.012
Mof_C 	C 	0.62501	0.96258	0.25305	0.62
Mof_C 	C 	0.62494	0.96494	0.22795	-0.171
Mof_C 	C 	0.60143	0.97322	0.2239	0.011
Mof_C 	C 	0.70516	0.86389	0.26799	0.013
Mof_C 	C 	0.66831	0.88804	0.29961	0.632
Mof_C 	C 	0.6853	0.8636	0.2924	-0.176
Mof_C 	C 	0.72083	0.84085	0.26152	0.011
Mof_C 	C 	0.73261	0.7923	0.27199	0.624
Mof_C 	C 	0.71726	0.81672	0.27927	-0.173
Mof_C 	C 	0.6819	0.83943	0.31016	0.014
Mof_C 	C 	0.69757	0.81647	0.30374	0.012
Mof_C 	C 	0.62099	0.77212	0.32264	0.005
Mof_C 	C 	0.64841	0.76276	0.31363	0.035
Mof_C 	C 	0.53632	0.8995	0.24194	0.02
Mof_C 	C 	0.5283	0.857	0.27304	0.671
Mof_C 	C 	0.53987	0.87369	0.24672	-0.195
Mof_C 	C 	0.54938	0.91423	0.2175	0.017
Mof_C 	C 	0.66808	0.92138	0.33257	0.669
Mof_C 	C 	0.56615	0.90339	0.19747	-0.194
Mof_C 	C 	0.55592	0.86331	0.22638	0.019
Mof_C 	C 	0.56881	0.87794	0.20213	0.022
Mof_O 	O 	0.50214	0.61124	0.46103	-0.829
Mof_O 	O 	0.52525	0.77265	0.36883	-0.803
Mof_O 	O 	0.48477	0.6637	0.44352	-0.82
Mof_O 	O 	0.49673	0.8132	0.3837	-0.792
Mof_O 	O 	0.47176	0.84773	0.31969	-0.809
Mof_O 	O 	0.64681	0.95352	0.25626	-0.759
Mof_O 	O 	0.6467	0.97946	0.28098	-0.756
Mof_O 	O 	0.67277	0.90937	0.2839	-0.759
Mof_O 	O 	0.65	0.88647	0.32149	-0.788
Mof_O 	O 	0.7494	0.79336	0.24927	-0.756
Mof_O 	O 	0.72771	0.77143	0.28867	-0.77
Mof_O 	O 	0.56556	0.7914	0.33926	-0.783
Mof_O 	O 	0.70249	0.74604	0.29346	-0.78
Mof_O 	O 	0.51111	0.86762	0.29016	-0.813
Mof_O 	O 	0.53657	0.83264	0.35332	-0.805
Mof_O 	O 	0.67227	0.93508	0.30855	-0.774
Mof_O 	O 	0.59943	0.90414	0.33907	-0.832
Mof_H 	H 	0.53902	0.57747	0.47622	0.015
Mof_H 	H 	0.51532	0.73515	0.40917	0.019
Mof_H 	H 	0.50073	0.69749	0.43529	0.018
Mof_H 	H 	0.42554	0.86577	0.38695	0.019
Mof_H 	H 	0.47131	0.79634	0.43236	0.019
Mof_H 	H 	0.66698	0.95064	0.21061	0.021
Mof_H 	H 	0.5829	0.97918	0.23842	0.02
Mof_H 	H 	0.70849	0.88199	0.25374	0.02
Mof_H 	H 	0.73557	0.84203	0.24241	0.021
Mof_H 	H 	0.66698	0.83819	0.32917	0.019
Mof_H 	H 	0.69394	0.79849	0.31797	0.021
Mof_H 	H 	0.6109	0.77561	0.34107	0.022
Mof_H 	H 	0.65835	0.75951	0.32549	0.015
Mof_H 	H 	0.52408	0.90802	0.2573	0.02
Mof_H 	H 	0.5469	0.93376	0.21452	0.02
Mof_H 	H 	0.55895	0.84363	0.22928	0.016
Mof_H 	H 	0.58131	0.86898	0.18711	0.016
Mof_Cr	Cr	0.94423	0.6577	0.11423	2.409
Mof_Cr	Cr	0.80348	0.53034	0.30656	2.515
Mof_C 	C 	0.56944	0.54723	0.4224	0.033
Mof_C 	C 	0.72696	0.51247	0.36102	0.017
Mof_C 	C 	0.70539	0.50403	0.37603	0.022
Mof_C 	C 	0.85054	0.42746	0.31679	0.018
Mof_C 	C 	0.83063	0.47489	0.31227	0.662
Mof_C 	C 	0.83104	0.45167	0.31089	-0.19
Mof_C 	C 	0.8117	0.45304	0.30458	0.017
Mof_C 	C 	0.95726	0.64843	0.18594	0.011
Mof_C 	C 	0.96258	0.62501	0.15936	0.619
Mof_C 	C 	0.96494	0.62494	0.18218	-0.171
Mof_C 	C 	0.97322	0.60143	0.20145	0.011
Mof_C 	C 	0.86389	0.70516	0.16297	0.013
Mof_C 	C 	0.88804	0.66831	0.14404	0.632
Mof_C 	C 	0.8636	0.6853	0.1587	-0.176
Mof_C 	C 	0.84085	0.72083	0.17681	0.011
Mof_C 	C 	0.7923	0.73261	0.2031	0.624
Mof_C 	C 	0.81672	0.71726	0.18675	-0.173
Mof_C 	C 	0.83943	0.6819	0.16851	0.014
Mof_C 	C 	0.81647	0.69757	0.18222	0.011
Mof_C 	C 	0.77212	0.62099	0.28425	0.005
Mof_C 	C 	0.76276	0.64841	0.2752	0.035
Mof_C 	C 	0.8995	0.53632	0.32224	0.021
Mof_C 	C 	0.857	0.5283	0.34166	0.672
Mof_C 	C 	0.87369	0.53987	0.33972	-0.196
Mof_C 	C 	0.91423	0.54938	0.31889	0.017
Mof_C 	C 	0.92138	0.66808	0.07796	0.668
Mof_C 	C 	0.90339	0.56615	0.33299	-0.193
Mof_C 	C 	0.86331	0.55592	0.35438	0.02
Mof_C 	C 	0.87794	0.56881	0.35111	0.021
Mof_O 	O 	0.61124	0.50214	0.42559	-0.828
Mof_O 	O 	0.77265	0.52525	0.33327	-0.803
Mof_O 	O 	0.6637	0.48477	0.40801	-0.82
Mof_O 	O 	0.8132	0.49673	0.30637	-0.792
Mof_O 	O 	0.84773	0.47176	0.36082	-0.809
Mof_O 	O 	0.95352	0.64681	0.14341	-0.759
Mof_O 	O 	0.97946	0.6467	0.09285	-0.756
Mof_O 	O 	0.90937	0.67277	0.13396	-0.759
Mof_O 	O 	0.88647	0.65	0.14205	-0.787
Mof_O 	O 	0.79336	0.7494	0.20797	-0.756
Mof_O 	O 	0.77143	0.72771	0.21218	-0.77
Mof_O 	O 	0.7914	0.56556	0.30379	-0.784
Mof_O 	O 	0.74604	0.70249	0.25801	-0.78
Mof_O 	O 	0.86762	0.51111	0.33112	-0.813
Mof_O 	O 	0.83264	0.53657	0.27746	-0.804
Mof_O 	O 	0.93508	0.67227	0.0841	-0.774
Mof_O 	O 	0.90414	0.59943	0.15737	-0.832
Mof_H 	H 	0.57747	0.53902	0.40729	0.015
Mof_H 	H 	0.73515	0.51532	0.34037	0.019
Mof_H 	H 	0.69749	0.50073	0.36649	0.018
Mof_H 	H 	0.86577	0.42554	0.32174	0.019
Mof_H 	H 	0.79634	0.47131	0.29999	0.019
Mof_H 	H 	0.95064	0.66698	0.17176	0.021
Mof_H 	H 	0.97918	0.5829	0.1995	0.021
Mof_H 	H 	0.88199	0.70849	0.15579	0.02
Mof_H 	H 	0.84203	0.73557	0.17998	0.021
Mof_H 	H 	0.83819	0.66698	0.16567	0.019
Mof_H 	H 	0.79849	0.69394	0.18961	0.021
Mof_H 	H 	0.77561	0.6109	0.27242	0.021
Mof_H 	H 	0.75951	0.65835	0.25665	0.015
Mof_H 	H 	0.90802	0.52408	0.31059	0.02
Mof_H 	H 	0.93376	0.5469	0.30483	0.02
Mof_H 	H 	0.84363	0.55895	0.36814	0.016
Mof_H 	H 	0.86898	0.58131	0.3626	0.016
Mof_Cr	Cr	0.6577	0.11423	0.94423	2.409
Mof_Cr	Cr	0.53034	0.30656	0.80348	2.515
Mof_C 	C 	0.54723	0.4224	0.56944	0.033
Mof_C 	C 	0.51247	0.36102	0.72696	0.017
Mof_C 	C 	0.50403	0.37603	0.70539	0.022
Mof_C 	C 	0.42746	0.31679	0.85054	0.018
Mof_C 	C 	0.47489	0.31227	0.83063	0.662
Mof_C 	C 	0.45167	0.31089	0.83104	-0.19
Mof_C 	C 	0.45304	0.30458	0.8117	0.017
Mof_C 	C 	0.64843	0.18594	0.95726	0.011
Mof_C 	C 	0.62501	0.15936	0.96258	0.619
Mof_C 	C 	0.62494	0.18218	0.96494	-0.171
Mof_C 	C 	0.60143	0.20145	0.97322	0.011
Mof_C 	C 	0.70516	0.16297	0.86389	0.013
Mof_C 	C 	0.66831	0.14404	0.88804	0.632
Mof_C 	C 	0.6853	0.1587	0.8636	-0.176
Mof_C 	C 	0.72083	0.17681	0.84085	0.011
Mof_C 	C 	0.73261	0.2031	0.7923	0.624
Mof_C 	C 	0.71726	0.18675	0.81672	-0.173
Mof_C 	C 	0.6819	0.16851	0.83943	0.014
Mof_C 	C 	0.69757	0.18222	0.81647	0.011
Mof_C 	C 	0.62099	0.28425	0.77212	0.005
Mof_C 	C 	0.64841	0.2752	0.76276	0.035
Mof_C 	C 	0.53632	0.32224	0.8995	0.021
Mof_C 	C 	0.5283	0.34166	0.857	0.672
Mof_C 	C 	0.53987	0.33972	0.87369	-0.196
Mof_C 	C 	0.54938	0.31889	0.91423	0.017
Mof_C 	C 	0.66808	0.07796	0.92138	0.668
Mof_C 	C 	0.56615	0.33299	0.90339	-0.193
Mof_C 	C 	0.55592	0.35438	0.86331	0.02
Mof_C 	C 	0.56881	0.35111	0.87794	0.021
Mof_O 	O 	0.50214	0.42559	0.61124	-0.828
Mof_O 	O 	0.52525	0.33327	0.77265	-0.803
Mof_O 	O 	0.48477	0.40801	0.6637	-0.82
Mof_O 	O 	0.49673	0.30637	0.8132	-0.792
Mof_O 	O 	0.47176	0.36082	0.84773	-0.809
Mof_O 	O 	0.64681	0.14341	0.95352	-0.759
Mof_O 	O 	0.6467	0.09285	0.97946	-0.756
Mof_O 	O 	0.67277	0.13396	0.90937	-0.759
Mof_O 	O 	0.65	0.14205	0.88647	-0.787
Mof_O 	O 	0.7494	0.20797	0.79336	-0.756
Mof_O 	O 	0.72771	0.21218	0.77143	-0.77
Mof_O 	O 	0.56556	0.30379	0.7914	-0.784
Mof_O 	O 	0.70249	0.25801	0.74604	-0.78
Mof_O 	O 	0.51111	0.33112	0.86762	-0.813
Mof_O 	O 	0.53657	0.27746	0.83264	-0.804
Mof_O 	O 	0.67227	0.0841	0.93508	-0.774
Mof_O 	O 	0.59943	0.15737	0.90414	-0.832
Mof_H 	H 	0.53902	0.40729	0.57747	0.015
Mof_H 	H 	0.51532	0.34037	0.73515	0.019
Mof_H 	H 	0.50073	0.36649	0.69749	0.018
Mof_H 	H 	0.42554	0.32174	0.86577	0.019
Mof_H 	H 	0.47131	0.29999	0.79634	0.019
Mof_H 	H 	0.66698	0.17176	0.95064	0.021
Mof_H 	H 	0.5829	0.1995	0.97918	0.021
Mof_H 	H 	0.70849	0.15579	0.88199	0.02
Mof_H 	H 	0.73557	0.17998	0.84203	0.021
Mof_H 	H 	0.66698	0.16567	0.83819	0.019
Mof_H 	H 	0.69394	0.18961	0.79849	0.021
Mof_H 	H 	0.6109	0.27242	0.77561	0.021
Mof_H 	H 	0.65835	0.25665	0.75951	0.015
Mof_H 	H 	0.52408	0.31059	0.90802	0.02
Mof_H 	H 	0.5469	0.30483	0.93376	0.02
Mof_H 	H 	0.55895	0.36814	0.84363	0.016
Mof_H 	H 	0.58131	0.3626	0.86898	0.016
Mof_Cr	Cr	0.94423	0.28384	0.6577	2.41
Mof_Cr	Cr	0.80348	0.35963	0.53034	2.514
Mof_C 	C 	0.56944	0.46092	0.54723	0.033
Mof_C 	C 	0.72696	0.39955	0.51247	0.017
Mof_C 	C 	0.70539	0.41455	0.50403	0.022
Mof_C 	C 	0.85054	0.40521	0.42746	0.018
Mof_C 	C 	0.83063	0.3822	0.47489	0.662
Mof_C 	C 	0.83104	0.40641	0.45167	-0.189
Mof_C 	C 	0.8117	0.43068	0.45304	0.017
Mof_C 	C 	0.95726	0.20837	0.64843	0.012
Mof_C 	C 	0.96258	0.25305	0.62501	0.62
Mof_C 	C 	0.96494	0.22795	0.62494	-0.171
Mof_C 	C 	0.97322	0.2239	0.60143	0.011
Mof_C 	C 	0.86389	0.26799	0.70516	0.013
Mof_C 	C 	0.88804	0.29961	0.66831	0.632
Mof_C 	C 	0.8636	0.2924	0.6853	-0.176
Mof_C 	C 	0.84085	0.26152	0.72083	0.011
Mof_C 	C 	0.7923	0.27199	0.73261	0.624
Mof_C 	C 	0.81672	0.27927	0.71726	-0.173
Mof_C 	C 	0.83943	0.31016	0.6819	0.014
Mof_C 	C 	0.81647	0.30374	0.69757	0.012
Mof_C 	C 	0.77212	0.32264	0.62099	0.005
Mof_C 	C 	0.76276	0.31363	0.64841	0.035
Mof_C 	C 	0.8995	0.24194	0.53632	0.02
Mof_C 	C 	0.857	0.27304	0.5283	0.671
Mof_C 	C 	0.87369	0.24672	0.53987	-0.195
Mof_C 	C 	0.91423	0.2175	0.54938	0.017
Mof_C 	C 	0.92138	0.33257	0.66808	0.669
Mof_C 	C 	0.90339	0.19747	0.56615	-0.194
Mof_C 	C 	0.86331	0.22638	0.55592	0.019
Mof_C 	C 	0.87794	0.20213	0.56881	0.022
Mof_O 	O 	0.61124	0.46103	0.50214	-0.829
Mof_O 	O 	0.77265	0.36883	0.52525	-0.803
Mof_O 	O 	0.6637	0.44352	0.48477	-0.82
Mof_O 	O 	0.8132	0.3837	0.49673	-0.792
Mof_O 	O 	0.84773	0.31969	0.47176	-0.809
Mof_O 	O 	0.95352	0.25626	0.64681	-0.759
Mof_O 	O 	0.97946	0.28098	0.6467	-0.756
Mof_O 	O 	0.90937	0.2839	0.67277	-0.759
Mof_O 	O 	0.88647	0.32149	0.65	-0.788
Mof_O 	O 	0.79336	0.24927	0.7494	-0.756
Mof_O 	O 	0.77143	0.28867	0.72771	-0.77
Mof_O 	O 	0.7914	0.33926	0.56556	-0.783
Mof_O 	O 	0.74604	0.29346	0.70249	-0.78
Mof_O 	O 	0.86762	0.29016	0.51111	-0.813
Mof_O 	O 	0.83264	0.35332	0.53657	-0.805
Mof_O 	O 	0.93508	0.30855	0.67227	-0.774
Mof_O 	O 	0.90414	0.33907	0.59943	-0.832
Mof_H 	H 	0.57747	0.47622	0.53902	0.015
Mof_H 	H 	0.73515	0.40917	0.51532	0.019
Mof_H 	H 	0.69749	0.43529	0.50073	0.018
Mof_H 	H 	0.86577	0.38695	0.42554	0.019
Mof_H 	H 	0.79634	0.43236	0.47131	0.019
Mof_H 	H 	0.95064	0.21061	0.66698	0.021
Mof_H 	H 	0.97918	0.23842	0.5829	0.02
Mof_H 	H 	0.88199	0.25374	0.70849	0.02
Mof_H 	H 	0.84203	0.24241	0.73557	0.021
Mof_H 	H 	0.83819	0.32917	0.66698	0.019
Mof_H 	H 	0.79849	0.31797	0.69394	0.021
Mof_H 	H 	0.77561	0.34107	0.6109	0.022
Mof_H 	H 	0.75951	0.32549	0.65835	0.015
Mof_H 	H 	0.90802	0.2573	0.52408	0.02
Mof_H 	H 	0.93376	0.21452	0.5469	0.02
Mof_H 	H 	0.84363	0.22928	0.55895	0.016
Mof_H 	H 	0.86898	0.18711	0.58131	0.016
Mof_Cr	Cr	0.11423	0.6577	0.28384	2.409
Mof_Cr	Cr	0.30656	0.53034	0.35963	2.514
Mof_C 	C 	0.4224	0.54723	0.46092	0.033
Mof_C 	C 	0.36102	0.51247	0.39955	0.017
Mof_C 	C 	0.37603	0.50403	0.41455	0.022
Mof_C 	C 	0.31679	0.42746	0.40521	0.018
Mof_C 	C 	0.31227	0.47489	0.3822	0.662
Mof_C 	C 	0.31089	0.45167	0.40641	-0.189
Mof_C 	C 	0.30458	0.45304	0.43068	0.017
Mof_C 	C 	0.18594	0.64843	0.20837	0.011
Mof_C 	C 	0.15936	0.62501	0.25305	0.619
Mof_C 	C 	0.18218	0.62494	0.22795	-0.171
Mof_C 	C 	0.20145	0.60143	0.2239	0.011
Mof_C 	C 	0.16297	0.70516	0.26799	0.013
Mof_C 	C 	0.14404	0.66831	0.29961	0.632
Mof_C 	C 	0.1587	0.6853	0.2924	-0.176
Mof_C 	C 	0.17681	0.72083	0.26152	0.012
Mof_C 	C 	0.2031	0.73261	0.27199	0.625
Mof_C 	C 	0.18675	0.71726	0.27927	-0.173
Mof_C 	C 	0.16851	0.6819	0.31016	0.014
Mof_C 	C 	0.18222	0.69757	0.30374	0.012
Mof_C 	C 	0.28425	0.62099	0.32264	0.005
Mof_C 	C 	0.2752	0.64841	0.31363	0.035
Mof_C 	C 	0.32224	0.53632	0.24194	0.021
Mof_C 	C 	0.34166	0.5283	0.27304	0.673
Mof_C 	C 	0.33972	0.53987	0.24672	-0.196
Mof_C 	C 	0.31889	0.54938	0.2175	0.017
Mof_C 	C 	0.07796	0.66808	0.33257	0.669
Mof_C 	C 	0.33299	0.56615	0.19747	-0.193
Mof_C 	C 	0.35438	0.55592	0.22638	0.02
Mof_C 	C 	0.35111	0.56881	0.20213	0.021
Mof_O 	O 	0.42559	0.50214	0.46103	-0.828
Mof_O 	O 	0.33327	0.52525	0.36883	-0.803
Mof_O 	O 	0.40801	0.48477	0.44352	-0.82
Mof_O 	O 	0.30637	0.49673	0.3837	-0.791
Mof_O 	O 	0.36082	0.47176	0.31969	-0.809
Mof_O 	O 	0.14341	0.64681	0.25626	-0.759
Mof_O 	O 	0.09285	0.6467	0.28098	-0.755
Mof_O 	O 	0.13396	0.67277	0.2839	-0.759
Mof_O 	O 	0.14205	0.65	0.32149	-0.787
Mof_O 	O 	0.20797	0.7494	0.24927	-0.756
Mof_O 	O 	0.21218	0.72771	0.28867	-0.77
Mof_O 	O 	0.30379	0.56556	0.33926	-0.784
Mof_O 	O 	0.25801	0.70249	0.29346	-0.78
Mof_O 	O 	0.33112	0.51111	0.29016	-0.814
Mof_O 	O 	0.27746	0.53657	0.35332	-0.804
Mof_O 	O 	0.0841	0.67227	0.30855	-0.774
Mof_O 	O 	0.15737	0.59943	0.33907	-0.832
Mof_H 	H 	0.40729	0.53902	0.47622	0.015
Mof_H 	H 	0.34037	0.51532	0.40917	0.019
Mof_H 	H 	0.36649	0.50073	0.43529	0.018
Mof_H 	H 	0.32174	0.42554	0.38695	0.019
Mof_H 	H 	0.29999	0.47131	0.43236	0.019
Mof_H 	H 	0.17176	0.66698	0.21061	0.021
Mof_H 	H 	0.1995	0.5829	0.23842	0.02
Mof_H 	H 	0.15579	0.70849	0.25374	0.02
Mof_H 	H 	0.17998	0.73557	0.24241	0.021
Mof_H 	H 	0.16567	0.66698	0.32917	0.019
Mof_H 	H 	0.18961	0.69394	0.31797	0.021
Mof_H 	H 	0.27242	0.6109	0.34107	0.022
Mof_H 	H 	0.25665	0.65835	0.32549	0.015
Mof_H 	H 	0.31059	0.52408	0.2573	0.02
Mof_H 	H 	0.30483	0.5469	0.21452	0.02
Mof_H 	H 	0.36814	0.55895	0.22928	0.016
Mof_H 	H 	0.3626	0.58131	0.18711	0.016
Mof_Cr	Cr	0.28384	0.94423	0.11423	2.41
Mof_Cr	Cr	0.35963	0.80348	0.30656	2.515
Mof_C 	C 	0.46092	0.56944	0.4224	0.033
Mof_C 	C 	0.39955	0.72696	0.36102	0.017
Mof_C 	C 	0.41455	0.70539	0.37603	0.022
Mof_C 	C 	0.40521	0.85054	0.31679	0.018
Mof_C 	C 	0.3822	0.83063	0.31227	0.662
Mof_C 	C 	0.40641	0.83104	0.31089	-0.189
Mof_C 	C 	0.43068	0.8117	0.30458	0.017
Mof_C 	C 	0.20837	0.95726	0.18594	0.011
Mof_C 	C 	0.25305	0.96258	0.15936	0.619
Mof_C 	C 	0.22795	0.96494	0.18218	-0.171
Mof_C 	C 	0.2239	0.97322	0.20145	0.011
Mof_C 	C 	0.26799	0.86389	0.16297	0.013
Mof_C 	C 	0.29961	0.88804	0.14404	0.632
Mof_C 	C 	0.2924	0.8636	0.1587	-0.176
Mof_C 	C 	0.26152	0.84085	0.17681	0.012
Mof_C 	C 	0.27199	0.7923	0.2031	0.625
Mof_C 	C 	0.27927	0.81672	0.18675	-0.173
Mof_C 	C 	0.31016	0.83943	0.16851	0.014
Mof_C 	C 	0.30374	0.81647	0.18222	0.012
Mof_C 	C 	0.32264	0.77212	0.28425	0.005
Mof_C 	C 	0.31363	0.76276	0.2752	0.035
Mof_C 	C 	0.24194	0.8995	0.32224	0.02
Mof_C 	C 	0.27304	0.857	0.34166	0.671
Mof_C 	C 	0.24672	0.87369	0.33972	-0.195
Mof_C 	C 	0.2175	0.91423	0.31889	0.017
Mof_C 	C 	0.33257	0.92138	0.07796	0.668
Mof_C 	C 	0.19747	0.90339	0.33299	-0.194
Mof_C 	C 	0.22638	0.86331	0.35438	0.019
Mof_C 	C 	0.20213	0.87794	0.35111	0.022
Mof_O 	O 	0.46103	0.61124	0.42559	-0.828
Mof_O 	O 	0.36883	0.77265	0.33327	-0.803
Mof_O 	O 	0.44352	0.6637	0.40801	-0.82
Mof_O 	O 	0.3837	0.8132	0.30637	-0.792
Mof_O 	O 	0.31969	0.84773	0.36082	-0.809
Mof_O 	O 	0.25626	0.95352	0.14341	-0.759
Mof_O 	O 	0.28098	0.97946	0.09285	-0.755
Mof_O 	O 	0.2839	0.90937	0.13396	-0.759
Mof_O 	O 	0.32149	0.88647	0.14205	-0.787
Mof_O 	O 	0.24927	0.79336	0.20797	-0.756
Mof_O 	O 	0.28867	0.77143	0.21218	-0.77
Mof_O 	O 	0.33926	0.7914	0.30379	-0.783
Mof_O 	O 	0.29346	0.74604	0.25801	-0.78
Mof_O 	O 	0.29016	0.86762	0.33112	-0.814
Mof_O 	O 	0.35332	0.83264	0.27746	-0.804
Mof_O 	O 	0.30855	0.93508	0.0841	-0.774
Mof_O 	O 	0.33907	0.90414	0.15737	-0.832
Mof_H 	H 	0.47622	0.57747	0.40729	0.015
Mof_H 	H 	0.40917	0.73515	0.34037	0.019
Mof_H 	H 	0.43529	0.69749	0.36649	0.018
Mof_H 	H 	0.38695	0.86577	0.32174	0.019
Mof_H 	H 	0.43236	0.79634	0.29999	0.019
Mof_H 	H 	0.21061	0.95064	0.17176	0.021
Mof_H 	H 	0.23842	0.97918	0.1995	0.021
Mof_H 	H 	0.25374	0.88199	0.15579	0.02
Mof_H 	H 	0.24241	0.84203	0.17998	0.021
Mof_H 	H 	0.32917	0.83819	0.16567	0.019
Mof_H 	H 	0.31797	0.79849	0.18961	0.021
Mof_H 	H 	0.34107	0.77561	0.27242	0.022
Mof_H 	H 	0.32549	0.75951	0.25665	0.015
Mof_H 	H 	0.2573	0.90802	0.31059	0.02
Mof_H 	H 	0.21452	0.93376	0.30483	0.02
Mof_H 	H 	0.22928	0.84363	0.36814	0.016
Mof_H 	H 	0.18711	0.86898	0.3626	0.016
Mof_Cr	Cr	0.28384	0.6577	0.94423	2.41
Mof_Cr	Cr	0.35963	0.53034	0.80348	2.514
Mof_C 	C 	0.46092	0.54723	0.56944	0.033
Mof_C 	C 	0.39955	0.51247	0.72696	0.017
Mof_C 	C 	0.41455	0.50403	0.70539	0.022
Mof_C 	C 	0.40521	0.42746	0.85054	0.018
Mof_C 	C 	0.3822	0.47489	0.83063	0.662
Mof_C 	C 	0.40641	0.45167	0.83104	-0.189
Mof_C 	C 	0.43068	0.45304	0.8117	0.017
Mof_C 	C 	0.20837	0.64843	0.95726	0.012
Mof_C 	C 	0.25305	0.62501	0.96258	0.62
Mof_C 	C 	0.22795	0.62494	0.96494	-0.171
Mof_C 	C 	0.2239	0.60143	0.97322	0.011
Mof_C 	C 	0.26799	0.70516	0.86389	0.013
Mof_C 	C 	0.29961	0.66831	0.88804	0.632
Mof_C 	C 	0.2924	0.6853	0.8636	-0.176
Mof_C 	C 	0.26152	0.72083	0.84085	0.011
Mof_C 	C 	0.27199	0.73261	0.7923	0.624
Mof_C 	C 	0.27927	0.71726	0.81672	-0.173
Mof_C 	C 	0.31016	0.6819	0.83943	0.014
Mof_C 	C 	0.30374	0.69757	0.81647	0.012
Mof_C 	C 	0.32264	0.62099	0.77212	0.005
Mof_C 	C 	0.31363	0.64841	0.76276	0.035
Mof_C 	C 	0.24194	0.53632	0.8995	0.02
Mof_C 	C 	0.27304	0.5283	0.857	0.671
Mof_C 	C 	0.24672	0.53987	0.87369	-0.195
Mof_C 	C 	0.2175	0.54938	0.91423	0.017
Mof_C 	C 	0.33257	0.66808	0.92138	0.669
Mof_C 	C 	0.19747	0.56615	0.90339	-0.194
Mof_C 	C 	0.22638	0.55592	0.86331	0.019
Mof_C 	C 	0.20213	0.56881	0.87794	0.022
Mof_O 	O 	0.46103	0.50214	0.61124	-0.829
Mof_O 	O 	0.36883	0.52525	0.77265	-0.803
Mof_O 	O 	0.44352	0.48477	0.6637	-0.82
Mof_O 	O 	0.3837	0.49673	0.8132	-0.792
Mof_O 	O 	0.31969	0.47176	0.84773	-0.809
Mof_O 	O 	0.25626	0.64681	0.95352	-0.759
Mof_O 	O 	0.28098	0.6467	0.97946	-0.756
Mof_O 	O 	0.2839	0.67277	0.90937	-0.759
Mof_O 	O 	0.32149	0.65	0.88647	-0.788
Mof_O 	O 	0.24927	0.7494	0.79336	-0.756
Mof_O 	O 	0.28867	0.72771	0.77143	-0.77
Mof_O 	O 	0.33926	0.56556	0.7914	-0.783
Mof_O 	O 	0.29346	0.70249	0.74604	-0.78
Mof_O 	O 	0.29016	0.51111	0.86762	-0.813
Mof_O 	O 	0.35332	0.53657	0.83264	-0.805
Mof_O 	O 	0.30855	0.67227	0.93508	-0.774
Mof_O 	O 	0.33907	0.59943	0.90414	-0.832
Mof_H 	H 	0.47622	0.53902	0.57747	0.015
Mof_H 	H 	0.40917	0.51532	0.73515	0.019
Mof_H 	H 	0.43529	0.50073	0.69749	0.018
Mof_H 	H 	0.38695	0.42554	0.86577	0.019
Mof_H 	H 	0.43236	0.47131	0.79634	0.019
Mof_H 	H 	0.21061	0.66698	0.95064	0.021
Mof_H 	H 	0.23842	0.5829	0.97918	0.02
Mof_H 	H 	0.25374	0.70849	0.88199	0.02
Mof_H 	H 	0.24241	0.73557	0.84203	0.021
Mof_H 	H 	0.32917	0.66698	0.83819	0.019
Mof_H 	H 	0.31797	0.69394	0.79849	0.021
Mof_H 	H 	0.34107	0.6109	0.77561	0.022
Mof_H 	H 	0.32549	0.65835	0.75951	0.015
Mof_H 	H 	0.2573	0.52408	0.90802	0.02
Mof_H 	H 	0.21452	0.5469	0.93376	0.02
Mof_H 	H 	0.22928	0.55895	0.84363	0.016
Mof_H 	H 	0.18711	0.58131	0.86898	0.016
Mof_Cr	Cr	0.11423	0.94423	0.6577	2.409
Mof_Cr	Cr	0.30656	0.80348	0.53034	2.515
Mof_C 	C 	0.4224	0.56944	0.54723	0.033
Mof_C 	C 	0.36102	0.72696	0.51247	0.017
Mof_C 	C 	0.37603	0.70539	0.50403	0.022
Mof_C 	C 	0.31679	0.85054	0.42746	0.018
Mof_C 	C 	0.31227	0.83063	0.47489	0.662
Mof_C 	C 	0.31089	0.83104	0.45167	-0.19
Mof_C 	C 	0.30458	0.8117	0.45304	0.017
Mof_C 	C 	0.18594	0.95726	0.64843	0.011
Mof_C 	C 	0.15936	0.96258	0.62501	0.619
Mof_C 	C 	0.18218	0.96494	0.62494	-0.171
Mof_C 	C 	0.20145	0.97322	0.60143	0.011
Mof_C 	C 	0.16297	0.86389	0.70516	0.013
Mof_C 	C 	0.14404	0.88804	0.66831	0.632
Mof_C 	C 	0.1587	0.8636	0.6853	-0.176
Mof_C 	C 	0.17681	0.84085	0.72083	0.011
Mof_C 	C 	0.2031	0.7923	0.73261	0.624
Mof_C 	C 	0.18675	0.81672	0.71726	-0.173
Mof_C 	C 	0.16851	0.83943	0.6819	0.014
Mof_C 	C 	0.18222	0.81647	0.69757	0.011
Mof_C 	C 	0.28425	0.77212	0.62099	0.005
Mof_C 	C 	0.2752	0.76276	0.64841	0.035
Mof_C 	C 	0.32224	0.8995	0.53632	0.021
Mof_C 	C 	0.34166	0.857	0.5283	0.672
Mof_C 	C 	0.33972	0.87369	0.53987	-0.196
Mof_C 	C 	0.31889	0.91423	0.54938	0.017
Mof_C 	C 	0.07796	0.92138	0.66808	0.668
Mof_C 	C 	0.33299	0.90339	0.56615	-0.193
Mof_C 	C 	0.35438	0.86331	0.55592	0.02
Mof_C 	C 	0.35111	0.87794	0.56881	0.021
Mof_O 	O 	0.42559	0.61124	0.50214	-0.828
Mof_O 	O 	0.33327	0.77265	0.52525	-0.803
Mof_O 	O 	0.40801	0.6637	0.48477	-0.82
Mof_O 	O 	0.30637	0.8132	0.49673	-0.792
Mof_O 	O 	0.36082	0.84773	0.47176	-0.809
Mof_O 	O 	0.14341	0.95352	0.64681	-0.759
Mof_O 	O 	0.09285	0.97946	0.6467	-0.756
Mof_O 	O 	0.13396	0.90937	0.67277	-0.759
Mof_O 	O 	0.14205	0.88647	0.65	-0.787
Mof_O 	O 	0.20797	0.79336	0.7494	-0.756
Mof_O 	O 	0.21218	0.77143	0.72771	-0.77
Mof_O 	O 	0.30379	0.7914	0.56556	-0.784
Mof_O 	O 	0.25801	0.74604	0.70249	-0.78
Mof_O 	O 	0.33112	0.86762	0.51111	-0.813
Mof_O 	O 	0.27746	0.83264	0.53657	-0.804
Mof_O 	O 	0.0841	0.93508	0.67227	-0.774
Mof_O 	O 	0.15737	0.90414	0.59943	-0.832
Mof_H 	H 	0.40729	0.57747	0.53902	0.015
Mof_H 	H 	0.34037	0.73515	0.51532	0.019
Mof_H 	H 	0.36649	0.69749	0.50073	0.018
Mof_H 	H 	0.32174	0.86577	0.42554	0.019
Mof_H 	H 	0.29999	0.79634	0.47131	0.019
Mof_H 	H 	0.17176	0.95064	0.66698	0.021
Mof_H 	H 	0.1995	0.97918	0.5829	0.021
Mof_H 	H 	0.15579	0.88199	0.70849	0.02
Mof_H 	H 	0.17998	0.84203	0.73557	0.021
Mof_H 	H 	0.16567	0.83819	0.66698	0.019
Mof_H 	H 	0.18961	0.79849	0.69394	0.021
Mof_H 	H 	0.27242	0.77561	0.6109	0.021
Mof_H 	H 	0.25665	0.75951	0.65835	0.015
Mof_H 	H 	0.31059	0.90802	0.52408	0.02
Mof_H 	H 	0.30483	0.93376	0.5469	0.02
Mof_H 	H 	0.36814	0.84363	0.55895	0.016
Mof_H 	H 	0.3626	0.86898	0.58131	0.016
Mof_Cr	Cr	0.94423	0.11423	0.28384	2.41
Mof_Cr	Cr	0.80348	0.30656	0.35963	2.515
Mof_C 	C 	0.56944	0.4224	0.46092	0.033
Mof_C 	C 	0.72696	0.36102	0.39955	0.017
Mof_C 	C 	0.70539	0.37603	0.41455	0.022
Mof_C 	C 	0.85054	0.31679	0.40521	0.018
Mof_C 	C 	0.83063	0.31227	0.3822	0.662
Mof_C 	C 	0.83104	0.31089	0.40641	-0.189
Mof_C 	C 	0.8117	0.30458	0.43068	0.017
Mof_C 	C 	0.95726	0.18594	0.20837	0.011
Mof_C 	C 	0.96258	0.15936	0.25305	0.619
Mof_C 	C 	0.96494	0.18218	0.22795	-0.171
Mof_C 	C 	0.97322	0.20145	0.2239	0.011
Mof_C 	C 	0.86389	0.16297	0.26799	0.013
Mof_C 	C 	0.88804	0.14404	0.29961	0.632
Mof_C 	C 	0.8636	0.1587	0.2924	-0.176
Mof_C 	C 	0.84085	0.17681	0.26152	0.012
Mof_C 	C 	0.7923	0.2031	0.27199	0.625
Mof_C 	C 	0.81672	0.18675	0.27927	-0.173
Mof_C 	C 	0.83943	0.16851	0.31016	0.014
Mof_C 	C 	0.81647	0.18222	0.30374	0.012
Mof_C 	C 	0.77212	0.28425	0.32264	0.005
Mof_C 	C 	0.76276	0.2752	0.31363	0.035
Mof_C 	C 	0.8995	0.32224	0.24194	0.02
Mof_C 	C 	0.857	0.34166	0.27304	0.671
Mof_C 	C 	0.87369	0.33972	0.24672	-0.195
Mof_C 	C 	0.91423	0.31889	0.2175	0.017
Mof_C 	C 	0.92138	0.07796	0.33257	0.668
Mof_C 	C 	0.90339	0.33299	0.19747	-0.194
Mof_C 	C 	0.86331	0.35438	0.22638	0.019
Mof_C 	C 	0.87794	0.35111	0.20213	0.022
Mof_O 	O 	0.61124	0.42559	0.46103	-0.828
Mof_O 	O 	0.77265	0.33327	0.36883	-0.803
Mof_O 	O 	0.6637	0.40801	0.44352	-0.82
Mof_O 	O 	0.8132	0.30637	0.3837	-0.792
Mof_O 	O 	0.84773	0.36082	0.31969	-0.809
Mof_O 	O 	0.95352	0.14341	0.25626	-0.759
Mof_O 	O 	0.97946	0.09285	0.28098	-0.755
Mof_O 	O 	0.90937	0.13396	0.2839	-0.759
Mof_O 	O 	0.88647	0.14205	0.32149	-0.787
Mof_O 	O 	0.79336	0.20797	0.24927	-0.756
Mof_O 	O 	0.77143	0.21218	0.28867	-0.77
Mof_O 	O 	0.7914	0.30379	0.33926	-0.783
Mof_O 	O 	0.74604	0.25801	0.29346	-0.78
Mof_O 	O 	0.86762	0.33112	0.29016	-0.814
Mof_O 	O 	0.83264	0.27746	0.35332	-0.804
Mof_O 	O 	0.93508	0.0841	0.30855	-0.774
Mof_O 	O 	0.90414	0.15737	0.33907	-0.832
Mof_H 	H 	0.57747	0.40729	0.47622	0.015
Mof_H 	H 	0.73515	0.34037	0.40917	0.019
Mof_H 	H 	0.69749	0.36649	0.43529	0.018
Mof_H 	H 	0.86577	0.32174	0.38695	0.019
Mof_H 	H 	0.79634	0.29999	0.43236	0.019
Mof_H 	H 	0.95064	0.17176	0.21061	0.021
Mof_H 	H 	0.97918	0.1995	0.23842	0.021
Mof_H 	H 	0.88199	0.15579	0.25374	0.02
Mof_H 	H 	0.84203	0.17998	0.24241	0.021
Mof_H 	H 	0.83819	0.16567	0.32917	0.019
Mof_H 	H 	0.79849	0.18961	0.31797	0.021
Mof_H 	H 	0.77561	0.27242	0.34107	0.022
Mof_H 	H 	0.75951	0.25665	0.32549	0.015
Mof_H 	H 	0.90802	0.31059	0.2573	0.02
Mof_H 	H 	0.93376	0.30483	0.21452	0.02
Mof_H 	H 	0.84363	0.36814	0.22928	0.016
Mof_H 	H 	0.86898	0.3626	0.18711	0.016
Mof_Cr	Cr	0.6577	0.28384	0.11423	2.409
Mof_Cr	Cr	0.53034	0.35963	0.30656	2.514
Mof_C 	C 	0.54723	0.46092	0.4224	0.033
Mof_C 	C 	0.51247	0.39955	0.36102	0.017
Mof_C 	C 	0.50403	0.41455	0.37603	0.022
Mof_C 	C 	0.42746	0.40521	0.31679	0.018
Mof_C 	C 	0.47489	0.3822	0.31227	0.662
Mof_C 	C 	0.45167	0.40641	0.31089	-0.189
Mof_C 	C 	0.45304	0.43068	0.30458	0.017
Mof_C 	C 	0.64843	0.20837	0.18594	0.011
Mof_C 	C 	0.62501	0.25305	0.15936	0.619
Mof_C 	C 	0.62494	0.22795	0.18218	-0.171
Mof_C 	C 	0.60143	0.2239	0.20145	0.011
Mof_C 	C 	0.70516	0.26799	0.16297	0.013
Mof_C 	C 	0.66831	0.29961	0.14404	0.632
Mof_C 	C 	0.6853	0.2924	0.1587	-0.176
Mof_C 	C 	0.72083	0.26152	0.17681	0.012
Mof_C 	C 	0.73261	0.27199	0.2031	0.625
Mof_C 	C 	0.71726	0.27927	0.18675	-0.173
Mof_C 	C 	0.6819	0.31016	0.16851	0.014
Mof_C 	C 	0.69757	0.30374	0.18222	0.012
Mof_C 	C 	0.62099	0.32264	0.28425	0.005
Mof_C 	C 	0.64841	0.31363	0.2752	0.035
Mof_C 	C 	0.53632	0.24194	0.32224	0.021
Mof_C 	C 	0.5283	0.27304	0.34166	0.673
Mof_C 	C 	0.53987	0.24672	0.33972	-0.196
Mof_C 	C 	0.54938	0.2175	0.31889	0.017
Mof_C 	C 	0.66808	0.33257	0.07796	0.669
Mof_C 	C 	0.56615	0.19747	0.33299	-0.193
Mof_C 	C 	0.55592	0.22638	0.35438	0.02
Mof_C 	C 	0.56881	0.20213	0.35111	0.021
Mof_O 	O 	0.50214	0.46103	0.42559	-0.828
Mof_O 	O 	0.52525	0.36883	0.33327	-0.803
Mof_O 	O 	0.48477	0.44352	0.40801	-0.82
Mof_O 	O 	0.49673	0.3837	0.30637	-0.791
Mof_O 	O 	0.47176	0.31969	0.36082	-0.809
Mof_O 	O 	0.64681	0.25626	0.14341	-0.759
Mof_O 	O 	0.6467	0.28098	0.09285	-0.755
Mof_O 	O 	0.67277	0.2839	0.13396	-0.759
Mof_O 	O 	0.65	0.32149	0.14205	-0.787
Mof_O 	O 	0.7494	0.24927	0.20797	-0.756
Mof_O 	O 	0.72771	0.28867	0.21218	-0.77
Mof_O 	O 	0.56556	0.33926	0.30379	-0.784
Mof_O 	O 	0.70249	0.29346	0.25801	-0.78
Mof_O 	O 	0.51111	0.29016	0.33112	-0.814
Mof_O 	O 	0.53657	0.35332	0.27746	-0.804
Mof_O 	O 	0.67227	0.30855	0.0841	-0.774
Mof_O 	O 	0.59943	0.33907	0.15737	-0.832
Mof_H 	H 	0.53902	0.47622	0.40729	0.015
Mof_H 	H 	0.51532	0.40917	0.34037	0.019
Mof_H 	H 	0.50073	0.43529	0.36649	0.018
Mof_H 	H 	0.42554	0.38695	0.32174	0.019
Mof_H 	H 	0.47131	0.43236	0.29999	0.019
Mof_H 	H 	0.66698	0.21061	0.17176	0.021
Mof_H 	H 	0.5829	0.23842	0.1995	0.02
Mof_H 	H 	0.70849	0.25374	0.15579	0.02
Mof_H 	H 	0.73557	0.24241	0.17998	0.021
Mof_H 	H 	0.66698	0.32917	0.16567	0.019
Mof_H 	H 	0.69394	0.31797	0.18961	0.021
Mof_H 	H 	0.6109	0.34107	0.27242	0.022
Mof_H 	H 	0.65835	0.32549	0.25665	0.015
Mof_H 	H 	0.52408	0.2573	0.31059	0.02
Mof_H 	H 	0.5469	0.21452	0.30483	0.02
Mof_H 	H 	0.55895	0.22928	0.36814	0.016
Mof_H 	H 	0.58131	0.18711	0.3626	0.016
Mof_Cr	Cr	0.4188	0.47185	0.47185	2.593
Mof_Cr	Cr	0.47185	0.4188	0.6375	2.592
Mof_Cr	Cr	0.47185	0.6375	0.4188	2.592
Mof_Cr	Cr	0.6375	0.47185	0.47185	2.593
Mof_Cr	Cr	0.47185	0.4188	0.47185	2.593
Mof_Cr	Cr	0.6375	0.47185	0.4188	2.592
Mof_Cr	Cr	0.4188	0.47185	0.6375	2.592
Mof_Cr	Cr	0.47185	0.6375	0.47185	2.593
Mof_Cr	Cr	0.47185	0.47185	0.4188	2.593
Mof_Cr	Cr	0.4188	0.6375	0.47185	2.592
Mof_Cr	Cr	0.6375	0.4188	0.47185	2.592
Mof_Cr	Cr	0.47185	0.47185	0.6375	2.593
Mof_Cr	Cr	0.8312	0.77815	0.6125	2.592
Mof_Cr	Cr	0.77815	0.8312	0.77815	2.593
Mof_Cr	Cr	0.77815	0.6125	0.77815	2.593
Mof_Cr	Cr	0.6125	0.77815	0.8312	2.592
Mof_Cr	Cr	0.77815	0.8312	0.6125	2.592
Mof_Cr	Cr	0.6125	0.77815	0.77815	2.593
Mof_Cr	Cr	0.8312	0.77815	0.77815	2.593
Mof_Cr	Cr	0.77815	0.6125	0.8312	2.592
Mof_Cr	Cr	0.77815	0.77815	0.6125	2.593
Mof_Cr	Cr	0.8312	0.6125	0.77815	2.592
Mof_Cr	Cr	0.6125	0.8312	0.77815	2.592
Mof_Cr	Cr	0.77815	0.77815	0.8312	2.593
Mof_Cr	Cr	0.125	0.34065	0.625	2.577
Mof_O 	O 	0.125	0.31008	0.625	-1.227
Mof_Cr	Cr	0.34065	0.125	0.90935	2.578
Mof_O 	O 	0.31008	0.125	0.93992	-1.228
Mof_Cr	Cr	0.625	0.90935	0.125	2.577
Mof_O 	O 	0.625	0.93992	0.125	-1.228
Mof_Cr	Cr	0.90935	0.625	0.34065	2.579
Mof_O 	O 	0.93992	0.625	0.31008	-1.228
Mof_Cr	Cr	0.625	0.125	0.34065	2.577
Mof_O 	O 	0.625	0.125	0.31008	-1.227
Mof_Cr	Cr	0.90935	0.34065	0.125	2.578
Mof_O 	O 	0.93992	0.31008	0.125	-1.228
Mof_Cr	Cr	0.125	0.625	0.90935	2.577
Mof_O 	O 	0.125	0.625	0.93992	-1.228
Mof_Cr	Cr	0.34065	0.90935	0.625	2.579
Mof_O 	O 	0.31008	0.93992	0.625	-1.228
Mof_Cr	Cr	0.34065	0.625	0.125	2.577
Mof_O 	O 	0.31008	0.625	0.125	-1.227
Mof_Cr	Cr	0.125	0.90935	0.34065	2.578
Mof_O 	O 	0.125	0.93992	0.31008	-1.228
Mof_Cr	Cr	0.90935	0.125	0.625	2.577
Mof_O 	O 	0.93992	0.125	0.625	-1.228
Mof_Cr	Cr	0.625	0.34065	0.90935	2.579
Mof_O 	O 	0.625	0.31008	0.93992	-1.228
Mof_Cr	Cr	0.125	0.90935	0.625	2.577
Mof_O 	O 	0.125	0.93992	0.625	-1.228
Mof_Cr	Cr	0.90935	0.125	0.34065	2.578
Mof_O 	O 	0.93992	0.125	0.31008	-1.228
Mof_Cr	Cr	0.625	0.34065	0.125	2.577
Mof_O 	O 	0.625	0.31008	0.125	-1.227
Mof_Cr	Cr	0.34065	0.625	0.90935	2.579
Mof_O 	O 	0.31008	0.625	0.93992	-1.228
Mof_Cr	Cr	0.625	0.125	0.90935	2.577
Mof_O 	O 	0.625	0.125	0.93992	-1.228
Mof_Cr	Cr	0.34065	0.90935	0.125	2.578
Mof_O 	O 	0.31008	0.93992	0.125	-1.228
Mof_Cr	Cr	0.125	0.625	0.34065	2.577
Mof_O 	O 	0.125	0.625	0.31008	-1.227
Mof_Cr	Cr	0.90935	0.34065	0.625	2.579
Mof_O 	O 	0.93992	0.31008	0.625	-1.228
Mof_Cr	Cr	0.90935	0.625	0.125	2.577
Mof_O 	O 	0.93992	0.625	0.125	-1.228
Mof_Cr	Cr	0.125	0.34065	0.90935	2.578
Mof_O 	O 	0.125	0.31008	0.93992	-1.228
Mof_Cr	Cr	0.34065	0.125	0.625	2.577
Mof_O 	O 	0.31008	0.125	0.625	-1.227
Mof_Cr	Cr	0.625	0.90935	0.34065	2.579
Mof_O 	O 	0.625	0.93992	0.31008	-1.228
Mof_Cr	Cr	0.22983	0.22983	0.77017	2.396
Mof_O 	O 	0.25157	0.25157	0.74843	-1.217
Mof_Cr	Cr	0.77017	0.77017	0.22983	2.396
Mof_O 	O 	0.74843	0.74843	0.25157	-1.217
Mof_Cr	Cr	0.77017	0.22983	0.22983	2.396
Mof_O 	O 	0.74843	0.25157	0.25157	-1.217
Mof_Cr	Cr	0.22983	0.77017	0.77017	2.396
Mof_O 	O 	0.25157	0.74843	0.74843	-1.217
Mof_Cr	Cr	0.22983	0.77017	0.22983	2.396
Mof_O 	O 	0.25157	0.74843	0.25157	-1.217
Mof_Cr	Cr	0.77017	0.22983	0.77017	2.396
Mof_O 	O 	0.74843	0.25157	0.74843	-1.217
Mof_Cr	Cr	0.02017	0.02017	0.47983	2.396
Mof_O 	O 	0.99843	0.99843	0.50157	-1.216
Mof_Cr	Cr	0.47983	0.47983	0.02017	2.396
Mof_O 	O 	0.50157	0.50157	0.99843	-1.216
Mof_Cr	Cr	0.47983	0.02017	0.47983	2.396
Mof_O 	O 	0.50157	0.99843	0.50157	-1.216
Mof_Cr	Cr	0.02017	0.47983	0.02017	2.396
Mof_O 	O 	0.99843	0.50157	0.99843	-1.216
Mof_Cr	Cr	0.02017	0.47983	0.47983	2.396
Mof_O 	O 	0.99843	0.50157	0.50157	-1.216
Mof_Cr	Cr	0.47983	0.02017	0.02017	2.396
Mof_O 	O 	0.50157	0.99843	0.99843	-1.216
Mof_Cr	Cr	0.23592	0.28896	0.73756	2.45
Mof_Cr	Cr	0.28896	0.23592	0.73756	2.45
Mof_Cr	Cr	0.73756	0.73756	0.23592	2.45
Mof_Cr	Cr	0.73756	0.73756	0.28896	2.451
Mof_Cr	Cr	0.73756	0.23592	0.28896	2.45
Mof_Cr	Cr	0.73756	0.28896	0.23592	2.45
Mof_Cr	Cr	0.23592	0.73756	0.73756	2.45
Mof_Cr	Cr	0.28896	0.73756	0.73756	2.451
Mof_Cr	Cr	0.28896	0.73756	0.23592	2.45
Mof_Cr	Cr	0.23592	0.73756	0.28896	2.45
Mof_Cr	Cr	0.73756	0.23592	0.73756	2.45
Mof_Cr	Cr	0.73756	0.28896	0.73756	2.451
Mof_Cr	Cr	0.01408	0.96104	0.51244	2.449
Mof_Cr	Cr	0.96104	0.01408	0.51244	2.449
Mof_Cr	Cr	0.51244	0.51244	0.96104	2.451
Mof_Cr	Cr	0.51244	0.51244	0.01408	2.449
Mof_Cr	Cr	0.51244	0.01408	0.51244	2.449
Mof_Cr	Cr	0.51244	0.96104	0.51244	2.451
Mof_Cr	Cr	0.01408	0.51244	0.96104	2.449
Mof_Cr	Cr	0.96104	0.51244	0.01408	2.449
Mof_Cr	Cr	0.96104	0.51244	0.51244	2.451
Mof_Cr	Cr	0.01408	0.51244	0.51244	2.449
Mof_Cr	Cr	0.51244	0.01408	0.96104	2.449
Mof_Cr	Cr	0.51244	0.96104	0.01408	2.449
Mof_Cr	Cr	0.32574	0.32574	0.49285	2.567
Mof_C 	C 	0.35723	0.35723	0.52298	0.665
Mof_C 	C 	0.37266	0.37266	0.51646	-0.192
Mof_C 	C 	0.41918	0.41918	0.48908	0.681
Mof_C 	C 	0.40303	0.40303	0.49938	-0.199
Mof_C 	C 	0.31762	0.31762	0.5775	0.642
Mof_C 	C 	0.30807	0.30807	0.6068	-0.173
Mof_C 	C 	0.28	0.28	0.69049	0.667
Mof_C 	C 	0.28965	0.28965	0.66272	-0.222
Mof_O 	O 	0.33063	0.33063	0.51787	-1.254
Mof_Cr	Cr	0.32574	0.32574	0.85566	2.566
Mof_C 	C 	0.35723	0.35723	0.76256	0.665
Mof_C 	C 	0.37266	0.37266	0.73822	-0.192
Mof_C 	C 	0.41918	0.41918	0.67257	0.681
Mof_C 	C 	0.40303	0.40303	0.69455	-0.199
Mof_C 	C 	0.31762	0.31762	0.78725	0.641
Mof_C 	C 	0.30807	0.30807	0.77705	-0.173
Mof_C 	C 	0.28	0.28	0.74951	0.667
Mof_C 	C 	0.28965	0.28965	0.75798	-0.222
Mof_O 	O 	0.33063	0.33063	0.82086	-1.255
Mof_Cr	Cr	0.49285	0.85566	0.32574	2.565
Mof_C 	C 	0.52298	0.76256	0.35723	0.665
Mof_C 	C 	0.51646	0.73822	0.37266	-0.192
Mof_C 	C 	0.48908	0.67257	0.41918	0.681
Mof_C 	C 	0.49938	0.69455	0.40303	-0.2
Mof_C 	C 	0.5775	0.78725	0.31762	0.642
Mof_C 	C 	0.6068	0.77705	0.30807	-0.174
Mof_C 	C 	0.69049	0.74951	0.28	0.667
Mof_C 	C 	0.66272	0.75798	0.28965	-0.222
Mof_O 	O 	0.51787	0.82086	0.33063	-1.255
Mof_Cr	Cr	0.85566	0.49285	0.32574	2.565
Mof_C 	C 	0.76256	0.52298	0.35723	0.665
Mof_C 	C 	0.73822	0.51646	0.37266	-0.192
Mof_C 	C 	0.67257	0.48908	0.41918	0.681
Mof_C 	C 	0.69455	0.49938	0.40303	-0.2
Mof_C 	C 	0.78725	0.5775	0.31762	0.642
Mof_C 	C 	0.77705	0.6068	0.30807	-0.174
Mof_C 	C 	0.74951	0.69049	0.28	0.667
Mof_C 	C 	0.75798	0.66272	0.28965	-0.222
Mof_O 	O 	0.82086	0.51787	0.33063	-1.255
Mof_Cr	Cr	0.49285	0.32574	0.32574	2.567
Mof_C 	C 	0.52298	0.35723	0.35723	0.665
Mof_C 	C 	0.51646	0.37266	0.37266	-0.192
Mof_C 	C 	0.48908	0.41918	0.41918	0.681
Mof_C 	C 	0.49938	0.40303	0.40303	-0.199
Mof_C 	C 	0.5775	0.31762	0.31762	0.642
Mof_C 	C 	0.6068	0.30807	0.30807	-0.173
Mof_C 	C 	0.69049	0.28	0.28	0.667
Mof_C 	C 	0.66272	0.28965	0.28965	-0.222
Mof_O 	O 	0.51787	0.33063	0.33063	-1.254
Mof_Cr	Cr	0.85566	0.32574	0.32574	2.566
Mof_C 	C 	0.76256	0.35723	0.35723	0.665
Mof_C 	C 	0.73822	0.37266	0.37266	-0.192
Mof_C 	C 	0.67257	0.41918	0.41918	0.681
Mof_C 	C 	0.69455	0.40303	0.40303	-0.199
Mof_C 	C 	0.78725	0.31762	0.31762	0.641
Mof_C 	C 	0.77705	0.30807	0.30807	-0.173
Mof_C 	C 	0.74951	0.28	0.28	0.667
Mof_C 	C 	0.75798	0.28965	0.28965	-0.222
Mof_O 	O 	0.82086	0.33063	0.33063	-1.255
Mof_Cr	Cr	0.32574	0.49285	0.85566	2.565
Mof_C 	C 	0.35723	0.52298	0.76256	0.665
Mof_C 	C 	0.37266	0.51646	0.73822	-0.192
Mof_C 	C 	0.41918	0.48908	0.67257	0.681
Mof_C 	C 	0.40303	0.49938	0.69455	-0.2
Mof_C 	C 	0.31762	0.5775	0.78725	0.642
Mof_C 	C 	0.30807	0.6068	0.77705	-0.174
Mof_C 	C 	0.28	0.69049	0.74951	0.667
Mof_C 	C 	0.28965	0.66272	0.75798	-0.222
Mof_O 	O 	0.33063	0.51787	0.82086	-1.255
Mof_Cr	Cr	0.32574	0.85566	0.49285	2.565
Mof_C 	C 	0.35723	0.76256	0.52298	0.665
Mof_C 	C 	0.37266	0.73822	0.51646	-0.192
Mof_C 	C 	0.41918	0.67257	0.48908	0.681
Mof_C 	C 	0.40303	0.69455	0.49938	-0.2
Mof_C 	C 	0.31762	0.78725	0.5775	0.642
Mof_C 	C 	0.30807	0.77705	0.6068	-0.174
Mof_C 	C 	0.28	0.74951	0.69049	0.667
Mof_C 	C 	0.28965	0.75798	0.66272	-0.222
Mof_O 	O 	0.33063	0.82086	0.51787	-1.255
Mof_Cr	Cr	0.32574	0.49285	0.32574	2.567
Mof_C 	C 	0.35723	0.52298	0.35723	0.665
Mof_C 	C 	0.37266	0.51646	0.37266	-0.192
Mof_C 	C 	0.41918	0.48908	0.41918	0.681
Mof_C 	C 	0.40303	0.49938	0.40303	-0.199
Mof_C 	C 	0.31762	0.5775	0.31762	0.642
Mof_C 	C 	0.30807	0.6068	0.30807	-0.173
Mof_C 	C 	0.28	0.69049	0.28	0.667
Mof_C 	C 	0.28965	0.66272	0.28965	-0.222
Mof_O 	O 	0.33063	0.51787	0.33063	-1.254
Mof_Cr	Cr	0.32574	0.85566	0.32574	2.566
Mof_C 	C 	0.35723	0.76256	0.35723	0.665
Mof_C 	C 	0.37266	0.73822	0.37266	-0.192
Mof_C 	C 	0.41918	0.67257	0.41918	0.681
Mof_C 	C 	0.40303	0.69455	0.40303	-0.199
Mof_C 	C 	0.31762	0.78725	0.31762	0.641
Mof_C 	C 	0.30807	0.77705	0.30807	-0.173
Mof_C 	C 	0.28	0.74951	0.28	0.667
Mof_C 	C 	0.28965	0.75798	0.28965	-0.222
Mof_O 	O 	0.33063	0.82086	0.33063	-1.255
Mof_Cr	Cr	0.85566	0.32574	0.49285	2.565
Mof_C 	C 	0.76256	0.35723	0.52298	0.665
Mof_C 	C 	0.73822	0.37266	0.51646	-0.192
Mof_C 	C 	0.67257	0.41918	0.48908	0.681
Mof_C 	C 	0.69455	0.40303	0.49938	-0.2
Mof_C 	C 	0.78725	0.31762	0.5775	0.642
Mof_C 	C 	0.77705	0.30807	0.6068	-0.174
Mof_C 	C 	0.74951	0.28	0.69049	0.667
Mof_C 	C 	0.75798	0.28965	0.66272	-0.222
Mof_O 	O 	0.82086	0.33063	0.51787	-1.255
Mof_Cr	Cr	0.49285	0.32574	0.85566	2.565
Mof_C 	C 	0.52298	0.35723	0.76256	0.665
Mof_C 	C 	0.51646	0.37266	0.73822	-0.192
Mof_C 	C 	0.48908	0.41918	0.67257	0.681
Mof_C 	C 	0.49938	0.40303	0.69455	-0.2
Mof_C 	C 	0.5775	0.31762	0.78725	0.642
Mof_C 	C 	0.6068	0.30807	0.77705	-0.174
Mof_C 	C 	0.69049	0.28	0.74951	0.667
Mof_C 	C 	0.66272	0.28965	0.75798	-0.222
Mof_O 	O 	0.51787	0.33063	0.82086	-1.255
Mof_Cr	Cr	0.92426	0.92426	0.39434	2.566
Mof_C 	C 	0.89277	0.89277	0.48744	0.665
Mof_C 	C 	0.87734	0.87734	0.51178	-0.192
Mof_C 	C 	0.83082	0.83082	0.57743	0.681
Mof_C 	C 	0.84697	0.84697	0.55545	-0.199
Mof_C 	C 	0.93238	0.93238	0.46275	0.641
Mof_C 	C 	0.94193	0.94193	0.47295	-0.173
Mof_C 	C 	0.97	0.97	0.50049	0.666
Mof_C 	C 	0.96035	0.96035	0.49202	-0.222
Mof_O 	O 	0.91937	0.91937	0.42914	-1.255
Mof_Cr	Cr	0.92426	0.92426	0.75715	2.567
Mof_C 	C 	0.89277	0.89277	0.72702	0.665
Mof_C 	C 	0.87734	0.87734	0.73354	-0.192
Mof_C 	C 	0.83082	0.83082	0.76092	0.681
Mof_C 	C 	0.84697	0.84697	0.75062	-0.199
Mof_C 	C 	0.93238	0.93238	0.6725	0.642
Mof_C 	C 	0.94193	0.94193	0.6432	-0.173
Mof_C 	C 	0.97	0.97	0.55951	0.666
Mof_C 	C 	0.96035	0.96035	0.58728	-0.222
Mof_O 	O 	0.91937	0.91937	0.73213	-1.254
Mof_Cr	Cr	0.75715	0.39434	0.92426	2.565
Mof_C 	C 	0.72702	0.48744	0.89277	0.665
Mof_C 	C 	0.73354	0.51178	0.87734	-0.192
Mof_C 	C 	0.76092	0.57743	0.83082	0.681
Mof_C 	C 	0.75062	0.55545	0.84697	-0.2
Mof_C 	C 	0.6725	0.46275	0.93238	0.642
Mof_C 	C 	0.6432	0.47295	0.94193	-0.174
Mof_C 	C 	0.55951	0.50049	0.97	0.667
Mof_C 	C 	0.58728	0.49202	0.96035	-0.222
Mof_O 	O 	0.73213	0.42914	0.91937	-1.255
Mof_Cr	Cr	0.39434	0.75715	0.92426	2.565
Mof_C 	C 	0.48744	0.72702	0.89277	0.665
Mof_C 	C 	0.51178	0.73354	0.87734	-0.192
Mof_C 	C 	0.57743	0.76092	0.83082	0.681
Mof_C 	C 	0.55545	0.75062	0.84697	-0.2
Mof_C 	C 	0.46275	0.6725	0.93238	0.642
Mof_C 	C 	0.47295	0.6432	0.94193	-0.174
Mof_C 	C 	0.50049	0.55951	0.97	0.667
Mof_C 	C 	0.49202	0.58728	0.96035	-0.222
Mof_O 	O 	0.42914	0.73213	0.91937	-1.255
Mof_Cr	Cr	0.75715	0.92426	0.39434	2.565
Mof_C 	C 	0.72702	0.89277	0.48744	0.665
Mof_C 	C 	0.73354	0.87734	0.51178	-0.192
Mof_C 	C 	0.76092	0.83082	0.57743	0.681
Mof_C 	C 	0.75062	0.84697	0.55545	-0.2
Mof_C 	C 	0.6725	0.93238	0.46275	0.642
Mof_C 	C 	0.6432	0.94193	0.47295	-0.174
Mof_C 	C 	0.55951	0.97	0.50049	0.667
Mof_C 	C 	0.58728	0.96035	0.49202	-0.222
Mof_O 	O 	0.73213	0.91937	0.42914	-1.255
Mof_Cr	Cr	0.39434	0.92426	0.75715	2.565
Mof_C 	C 	0.48744	0.89277	0.72702	0.665
Mof_C 	C 	0.51178	0.87734	0.73354	-0.192
Mof_C 	C 	0.57743	0.83082	0.76092	0.681
Mof_C 	C 	0.55545	0.84697	0.75062	-0.2
Mof_C 	C 	0.46275	0.93238	0.6725	0.642
Mof_C 	C 	0.47295	0.94193	0.6432	-0.174
Mof_C 	C 	0.50049	0.97	0.55951	0.667
Mof_C 	C 	0.49202	0.96035	0.58728	-0.222
Mof_O 	O 	0.42914	0.91937	0.73213	-1.255
Mof_Cr	Cr	0.92426	0.75715	0.92426	2.567
Mof_C 	C 	0.89277	0.72702	0.89277	0.665
Mof_C 	C 	0.87734	0.73354	0.87734	-0.192
Mof_C 	C 	0.83082	0.76092	0.83082	0.681
Mof_C 	C 	0.84697	0.75062	0.84697	-0.199
Mof_C 	C 	0.93238	0.6725	0.93238	0.642
Mof_C 	C 	0.94193	0.6432	0.94193	-0.173
Mof_C 	C 	0.97	0.55951	0.97	0.666
Mof_C 	C 	0.96035	0.58728	0.96035	-0.222
Mof_O 	O 	0.91937	0.73213	0.91937	-1.254
Mof_Cr	Cr	0.92426	0.39434	0.92426	2.566
Mof_C 	C 	0.89277	0.48744	0.89277	0.665
Mof_C 	C 	0.87734	0.51178	0.87734	-0.192
Mof_C 	C 	0.83082	0.57743	0.83082	0.681
Mof_C 	C 	0.84697	0.55545	0.84697	-0.199
Mof_C 	C 	0.93238	0.46275	0.93238	0.641
Mof_C 	C 	0.94193	0.47295	0.94193	-0.173
Mof_C 	C 	0.97	0.50049	0.97	0.666
Mof_C 	C 	0.96035	0.49202	0.96035	-0.222
Mof_O 	O 	0.91937	0.42914	0.91937	-1.255
Mof_Cr	Cr	0.92426	0.75715	0.39434	2.565
Mof_C 	C 	0.89277	0.72702	0.48744	0.665
Mof_C 	C 	0.87734	0.73354	0.51178	-0.192
Mof_C 	C 	0.83082	0.76092	0.57743	0.681
Mof_C 	C 	0.84697	0.75062	0.55545	-0.2
Mof_C 	C 	0.93238	0.6725	0.46275	0.642
Mof_C 	C 	0.94193	0.6432	0.47295	-0.174
Mof_C 	C 	0.97	0.55951	0.50049	0.667
Mof_C 	C 	0.96035	0.58728	0.49202	-0.222
Mof_O 	O 	0.91937	0.73213	0.42914	-1.255
Mof_Cr	Cr	0.92426	0.39434	0.75715	2.565
Mof_C 	C 	0.89277	0.48744	0.72702	0.665
Mof_C 	C 	0.87734	0.51178	0.73354	-0.192
Mof_C 	C 	0.83082	0.57743	0.76092	0.681
Mof_C 	C 	0.84697	0.55545	0.75062	-0.2
Mof_C 	C 	0.93238	0.46275	0.6725	0.642
Mof_C 	C 	0.94193	0.47295	0.6432	-0.174
Mof_C 	C 	0.97	0.50049	0.55951	0.667
Mof_C 	C 	0.96035	0.49202	0.58728	-0.222
Mof_O 	O 	0.91937	0.42914	0.73213	-1.255
Mof_Cr	Cr	0.39434	0.92426	0.92426	2.566
Mof_C 	C 	0.48744	0.89277	0.89277	0.665
Mof_C 	C 	0.51178	0.87734	0.87734	-0.192
Mof_C 	C 	0.57743	0.83082	0.83082	0.681
Mof_C 	C 	0.55545	0.84697	0.84697	-0.199
Mof_C 	C 	0.46275	0.93238	0.93238	0.641
Mof_C 	C 	0.47295	0.94193	0.94193	-0.173
Mof_C 	C 	0.50049	0.97	0.97	0.666
Mof_C 	C 	0.49202	0.96035	0.96035	-0.222
Mof_O 	O 	0.42914	0.91937	0.91937	-1.255
Mof_Cr	Cr	0.75715	0.92426	0.92426	2.567
Mof_C 	C 	0.72702	0.89277	0.89277	0.665
Mof_C 	C 	0.73354	0.87734	0.87734	-0.192
Mof_C 	C 	0.76092	0.83082	0.83082	0.681
Mof_C 	C 	0.75062	0.84697	0.84697	-0.199
Mof_C 	C 	0.6725	0.93238	0.93238	0.642
Mof_C 	C 	0.6432	0.94193	0.94193	-0.173
Mof_C 	C 	0.55951	0.97	0.97	0.666
Mof_C 	C 	0.58728	0.96035	0.96035	-0.222
Mof_O 	O 	0.73213	0.91937	0.91937	-1.254
Mof_C 	C 	0.4428	0.4428	0.51229	0.715
Mof_C 	C 	0.44188	0.44188	0.53555	-0.239
Mof_C 	C 	0.4428	0.4428	0.60211	0.715
Mof_C 	C 	0.44188	0.44188	0.58069	-0.239
Mof_C 	C 	0.51229	0.60211	0.4428	0.715
Mof_C 	C 	0.53555	0.58069	0.44188	-0.239
Mof_C 	C 	0.60211	0.51229	0.4428	0.715
Mof_C 	C 	0.58069	0.53555	0.44188	-0.239
Mof_C 	C 	0.51229	0.4428	0.4428	0.715
Mof_C 	C 	0.53555	0.44188	0.44188	-0.239
Mof_C 	C 	0.60211	0.4428	0.4428	0.715
Mof_C 	C 	0.58069	0.44188	0.44188	-0.239
Mof_C 	C 	0.4428	0.51229	0.60211	0.715
Mof_C 	C 	0.44188	0.53555	0.58069	-0.239
Mof_C 	C 	0.4428	0.60211	0.51229	0.715
Mof_C 	C 	0.44188	0.58069	0.53555	-0.239
Mof_C 	C 	0.4428	0.51229	0.4428	0.715
Mof_C 	C 	0.44188	0.53555	0.44188	-0.239
Mof_C 	C 	0.4428	0.60211	0.4428	0.715
Mof_C 	C 	0.44188	0.58069	0.44188	-0.239
Mof_C 	C 	0.60211	0.4428	0.51229	0.715
Mof_C 	C 	0.58069	0.44188	0.53555	-0.239
Mof_C 	C 	0.51229	0.4428	0.60211	0.715
Mof_C 	C 	0.53555	0.44188	0.58069	-0.239
Mof_C 	C 	0.8072	0.8072	0.64789	0.715
Mof_C 	C 	0.80812	0.80812	0.66931	-0.239
Mof_C 	C 	0.8072	0.8072	0.73771	0.715
Mof_C 	C 	0.80812	0.80812	0.71445	-0.239
Mof_C 	C 	0.73771	0.64789	0.8072	0.715
Mof_C 	C 	0.71445	0.66931	0.80812	-0.239
Mof_C 	C 	0.64789	0.73771	0.8072	0.715
Mof_C 	C 	0.66931	0.71445	0.80812	-0.239
Mof_C 	C 	0.73771	0.8072	0.64789	0.715
Mof_C 	C 	0.71445	0.80812	0.66931	-0.239
Mof_C 	C 	0.64789	0.8072	0.73771	0.715
Mof_C 	C 	0.66931	0.80812	0.71445	-0.239
Mof_C 	C 	0.8072	0.73771	0.8072	0.715
Mof_C 	C 	0.80812	0.71445	0.80812	-0.239
Mof_C 	C 	0.8072	0.64789	0.8072	0.715
Mof_C 	C 	0.80812	0.66931	0.80812	-0.239
Mof_C 	C 	0.8072	0.73771	0.64789	0.715
Mof_C 	C 	0.80812	0.71445	0.66931	-0.239
Mof_C 	C 	0.8072	0.64789	0.73771	0.715
Mof_C 	C 	0.80812	0.66931	0.71445	-0.239
Mof_C 	C 	0.64789	0.8072	0.8072	0.715
Mof_C 	C 	0.66931	0.80812	0.80812	-0.239
Mof_C 	C 	0.73771	0.8072	0.8072	0.715
Mof_C 	C 	0.71445	0.80812	0.80812	-0.239
Mof_O 	O 	0.45414	0.45414	0.45414	-1.281
Mof_O 	O 	0.45414	0.45414	0.63759	-1.281
Mof_O 	O 	0.45414	0.63759	0.45414	-1.281
Mof_O 	O 	0.63759	0.45414	0.45414	-1.281
Mof_O 	O 	0.79586	0.79586	0.61241	-1.281
Mof_O 	O 	0.79586	0.79586	0.79586	-1.281
Mof_O 	O 	0.79586	0.61241	0.79586	-1.281
Mof_O 	O 	0.61241	0.79586	0.79586	-1.281
_end
