data_functionalizedCrystal
_audit_creation_method	'EQeq! by Chris Wilmer'
_symmetry_space_group_name_H-M	'P1'
_symmetry_Int_Tables_number	1
_symmetry_cell_setting	triclinic
loop_
_symmetry_equiv_pos_as_xyz
  x,y,z
_cell_length_a	12.9376
_cell_length_b	12.9376
_cell_length_c	14.1621
_cell_angle_alpha	85.0581
_cell_angle_beta	85.0581
_cell_angle_gamma	89.5963
loop_
_atom_site_label
_atom_site_type_symbol
_atom_site_fract_x
_atom_site_fract_y
_atom_site_fract_z
_atom_site_charge
Mof_Zn	Zn	0.01724	0.18736	0.33517	1.207
Mof_Zn	Zn	0.16584	0.16584	0.50514	1.186
Mof_Zn	Zn	0.98276	0.81264	0.66483	1.225
Mof_Zn	Zn	0.18736	0.01724	0.33517	1.207
Mof_Zn	Zn	0.83416	0.83416	0.49486	1.205
Mof_Zn	Zn	-1.74587e-18	-6.03977e-18	0.5	1.172
Mof_Zn	Zn	0.81264	0.98276	0.66483	1.224
Mof_C 	C 	0.5429	0.0679	0.3206	-0.035
Mof_C 	C 	0.0679	0.5429	0.3206	-0.035
Mof_C 	C 	0.8974	0.2978	0.6084	-0.137
Mof_C 	C 	0.6422	0.1396	0.4669	0.011
Mof_C 	C 	0.9159	0.0475	0.9598	-0.107
Mof_C 	C 	0.6311	0.9001	0.5969	0.379
Mof_C 	C 	0.0999	0.3689	0.4031	0.376
Mof_C 	C 	0.5356	0.142	0.4708	-0.013
Mof_C 	C 	0.8962	0.5154	0.6022	-0.064
Mof_C 	C 	0.142	0.5356	0.4708	-0.013
Mof_C 	C 	0.8182	0.1018	0.3924	0.43
Mof_C 	C 	0.9307	0.3517	0.682	0.113
Mof_C 	C 	0.7022	0.1026	0.3916	-0.143
Mof_C 	C 	0.858	0.4644	0.5292	-0.006
Mof_C 	C 	0.0698	0.0698	0.171	0.416
Mof_C 	C 	0.1396	0.6422	0.4669	0.011
Mof_C 	C 	0.0693	0.6483	0.318	0.102
Mof_C 	C 	0.1818	0.8982	0.6076	0.431
Mof_C 	C 	0.3578	0.8604	0.5331	0.024
Mof_C 	C 	0.1026	0.7022	0.3916	-0.143
Mof_C 	C 	0.4644	0.858	0.5292	-0.006
Mof_C 	C 	0.8604	0.3578	0.5331	0.024
Mof_C 	C 	0.9321	0.4571	0.6794	-0.031
Mof_C 	C 	0.0374	0.0374	0.0804	-0.273
Mof_C 	C 	0.1038	0.4846	0.3978	-0.081
Mof_C 	C 	0.5154	0.8962	0.6022	-0.064
Mof_C 	C 	0.6483	0.0693	0.318	0.102
Mof_C 	C 	0.3517	0.9307	0.682	0.113
Mof_C 	C 	0.9525	0.0841	0.0402	0.162
Mof_C 	C 	0.9001	0.6311	0.5969	0.379
Mof_C 	C 	0.9302	0.9302	0.829	0.324
Mof_C 	C 	0.8982	0.1818	0.6076	0.431
Mof_C 	C 	0.3689	0.0999	0.4031	0.376
Mof_C 	C 	0.4571	0.9321	0.6794	-0.031
Mof_C 	C 	0.4846	0.1038	0.3978	-0.081
Mof_C 	C 	0.1018	0.8182	0.3924	0.43
Mof_C 	C 	0.9626	0.9626	0.9196	0.077
Mof_C 	C 	0.0475	0.9159	0.9598	-0.107
Mof_C 	C 	0.0841	0.9525	0.0402	0.162
Mof_C 	C 	0.2978	0.8974	0.6084	-0.137
Mof_N 	N 	0.7068	0.035	0.2344	-0.011
Mof_N 	N 	0.2932	0.965	0.7656	-0.011
Mof_N 	N 	0.965	0.2932	0.7656	-0.011
Mof_N 	N 	0.035	0.7068	0.2344	-0.011
Mof_O 	O 	0.85913	0.02093	0.4238	-0.557
Mof_O 	O 	0.13603	0.81351	0.6342	-0.482
Mof_O 	O 	0.9796	0.8546	0.7937	-0.442
Mof_O 	O 	0.09276	0.09276	0.4163	-0.955
Mof_O 	O 	0.18649	0.86397	0.3658	-0.444
Mof_O 	O 	0.85297	0.68101	0.5348	-0.48
Mof_O 	O 	0.31899	0.14703	0.4652	-0.503
Mof_O 	O 	0.81351	0.13603	0.6342	-0.482
Mof_O 	O 	0.2019	0.9629	0.7743	-0.121
Mof_O 	O 	0.97907	0.14087	0.5762	-0.541
Mof_O 	O 	0.0204	0.1454	0.2063	-0.513
Mof_O 	O 	0.95294	0.66792	0.6588	-0.472
Mof_O 	O 	0.66	0.0096	0.171	-0.125
Mof_O 	O 	0.68101	0.85297	0.5348	-0.48
Mof_O 	O 	0.33208	0.04706	0.3412	-0.501
Mof_O 	O 	0.66792	0.95294	0.6588	-0.472
Mof_O 	O 	0.04706	0.33208	0.3412	-0.501
Mof_O 	O 	0.8546	0.9796	0.7937	-0.442
Mof_O 	O 	0.0096	0.66	0.171	-0.125
Mof_O 	O 	0.14087	0.97907	0.5762	-0.541
Mof_O 	O 	0.1454	0.0204	0.2063	-0.513
Mof_O 	O 	0.34	0.9904	0.829	-0.098
Mof_O 	O 	0.9629	0.2019	0.7743	-0.121
Mof_O 	O 	0.86397	0.18649	0.3658	-0.444
Mof_O 	O 	0.7981	0.0371	0.2257	-0.117
Mof_O 	O 	0.02093	0.85913	0.4238	-0.557
Mof_O 	O 	0.90724	0.90724	0.5837	-0.899
Mof_O 	O 	0.14703	0.31899	0.4652	-0.503
Mof_O 	O 	0.0371	0.7981	0.2257	-0.117
Mof_O 	O 	0.9904	0.34	0.829	-0.098
Mof_H 	H 	0.50341	0.0374	0.25964	0.066
Mof_H 	H 	0.0374	0.50341	0.25964	0.066
Mof_H 	H 	0.68394	0.16878	0.52714	0.034
Mof_H 	H 	0.84722	0.08712	0.92644	0.084
Mof_H 	H 	0.48908	0.17503	0.53336	0.04
Mof_H 	H 	0.17503	0.48908	0.53336	0.04
Mof_H 	H 	0.82502	0.51118	0.46675	0.056
Mof_H 	H 	0.16878	0.68394	0.52714	0.034
Mof_H 	H 	0.31606	0.83122	0.47286	0.043
Mof_H 	H 	0.51092	0.82497	0.46664	0.056
Mof_H 	H 	0.83049	0.31915	0.4714	0.043
Mof_H 	H 	0.96242	0.49747	0.73993	0.082
Mof_H 	H 	0.91288	0.15278	0.07356	0.044
Mof_H 	H 	0.49659	0.9626	0.74036	0.082
Mof_H 	H 	0.08752	0.84719	0.92684	0.084
Mof_H 	H 	0.15281	0.91248	0.07316	0.044
_end
