data_functionalizedCrystal
_audit_creation_method	'EQeq! by Chris Wilmer'
_symmetry_space_group_name_H-M	'P1'
_symmetry_Int_Tables_number	1
_symmetry_cell_setting	triclinic
loop_
_symmetry_equiv_pos_as_xyz
  x,y,z
_cell_length_a	9.8214
_cell_length_b	13.1994
_cell_length_c	16.6115
_cell_angle_alpha	81.3527
_cell_angle_beta	72.8053
_cell_angle_gamma	68.1586
loop_
_atom_site_label
_atom_site_type_symbol
_atom_site_fract_x
_atom_site_fract_y
_atom_site_fract_z
_atom_site_charge
Mof_Nd	Nd	0.62844	0.384	0.5735	2.445
Mof_Nd	Nd	0.58594	0.116	0.9265	2.413
Mof_Nd	Nd	0.37156	0.616	0.4265	2.445
Mof_Nd	Nd	0.41406	0.884	0.0735	2.413
Mof_Zn	Zn	0.2501	0.10961	0.31669	1.199
Mof_Zn	Zn	0.1808	0.1604	0.54452	1.159
Mof_Zn	Zn	0.6764	0.39039	0.18331	1.199
Mof_Zn	Zn	0.88572	0.3396	0.95548	1.156
Mof_Zn	Zn	0.7499	0.89039	0.68331	1.199
Mof_Zn	Zn	0.8192	0.8396	0.45548	1.159
Mof_Zn	Zn	0.3236	0.60961	0.81669	1.199
Mof_Zn	Zn	0.11428	0.6604	0.04452	1.156
Mof_H 	H 	0.0248	0.1864	0.1838	-0.046
Mof_H 	H 	0.413	0.9323	0.6305	-0.046
Mof_H 	H 	0.395	0.3136	0.3162	-0.048
Mof_H 	H 	0.9758	0.5677	0.8695	-0.047
Mof_H 	H 	0.9752	0.8136	0.8162	-0.046
Mof_H 	H 	0.587	0.0677	0.3695	-0.046
Mof_H 	H 	0.605	0.6864	0.6838	-0.048
Mof_H 	H 	0.0242	0.4323	0.1305	-0.047
Mof_C 	C 	0.9799	0.27	0.437	0.425
Mof_C 	C 	0.9382	0.273	0.358	-0.083
Mof_C 	C 	0.812	0.3327	0.3277	-0.075
Mof_C 	C 	0.6681	0.4235	0.3579	0.391
Mof_C 	C 	0.9776	0.2229	0.2339	0.114
Mof_C 	C 	0.734	0.1027	0.5929	0.384
Mof_C 	C 	0.5981	0.0835	0.5889	-0.089
Mof_C 	C 	0.4722	0.1438	0.5598	-0.078
Mof_C 	C 	0.4195	0.2538	0.5192	0.393
Mof_C 	C 	0.4514	0.9889	0.6127	0.101
Mof_C 	C 	0.6869	0.23	0.063	0.425
Mof_C 	C 	0.5692	0.227	0.142	-0.081
Mof_C 	C 	0.4724	0.1673	0.1723	-0.073
Mof_C 	C 	0.4495	0.0765	0.1421	0.389
Mof_C 	C 	0.4344	0.2771	0.2661	0.115
Mof_C 	C 	0.4296	0.3973	0.9071	0.382
Mof_C 	C 	0.2705	0.4165	0.9111	-0.086
Mof_C 	C 	0.1758	0.3562	0.9402	-0.077
Mof_C 	C 	0.1925	0.2462	0.9808	0.385
Mof_C 	C 	0.053	0.5111	0.8873	0.101
Mof_C 	C 	0.0201	0.73	0.563	0.425
Mof_C 	C 	0.0618	0.727	0.642	-0.083
Mof_C 	C 	0.188	0.6673	0.6723	-0.075
Mof_C 	C 	0.3319	0.5765	0.6421	0.391
Mof_C 	C 	0.0224	0.7771	0.7661	0.114
Mof_C 	C 	0.266	0.8973	0.4071	0.384
Mof_C 	C 	0.4019	0.9165	0.4111	-0.089
Mof_C 	C 	0.5278	0.8562	0.4402	-0.078
Mof_C 	C 	0.5805	0.7462	0.4808	0.393
Mof_C 	C 	0.5486	0.0111	0.3873	0.101
Mof_C 	C 	0.3131	0.77	0.937	0.425
Mof_C 	C 	0.4308	0.773	0.858	-0.081
Mof_C 	C 	0.5276	0.8327	0.8277	-0.073
Mof_C 	C 	0.5505	0.9235	0.8579	0.389
Mof_C 	C 	0.5656	0.7229	0.7339	0.115
Mof_C 	C 	0.5704	0.6027	0.0929	0.382
Mof_C 	C 	0.7295	0.5835	0.0889	-0.086
Mof_C 	C 	0.8242	0.6438	0.0598	-0.077
Mof_C 	C 	0.8075	0.7538	0.0192	0.385
Mof_C 	C 	0.947	0.4889	0.1127	0.101
Mof_C 	C 	0.5301	0.25	0.75	0.271
Mof_C 	C 	0.6877	0.25	0.75	0.279
Mof_C 	C 	0.4699	0.75	0.25	0.271
Mof_C 	C 	0.3123	0.75	0.25	0.279
Mof_N 	N 	0.83931	0.29868	0.2485	-0.249
Mof_N 	N 	0.04251	0.20398	0.2968	-0.248
Mof_N 	N 	0.38019	0.08262	0.5748	-0.278
Mof_N 	N 	0.58387	0.98536	0.6221	-0.254
Mof_N 	N 	0.38649	0.20132	0.2515	-0.249
Mof_N 	N 	0.54329	0.29602	0.2032	-0.249
Mof_N 	N 	0.03761	0.41738	0.9252	-0.278
Mof_N 	N 	0.19133	0.51464	0.8779	-0.256
Mof_N 	N 	0.16069	0.70132	0.7515	-0.249
Mof_N 	N 	0.95749	0.79602	0.7032	-0.248
Mof_N 	N 	0.61981	0.91738	0.4252	-0.278
Mof_N 	N 	0.41613	0.01464	0.3779	-0.254
Mof_N 	N 	0.61351	0.79868	0.7485	-0.249
Mof_N 	N 	0.45671	0.70398	0.7968	-0.249
Mof_N 	N 	0.96239	0.58262	0.0748	-0.278
Mof_N 	N 	0.80867	0.48536	0.1221	-0.256
Mof_O 	O 	0.89694	0.3334	0.49392	-0.582
Mof_O 	O 	0.10855	0.1977	0.4406	-0.615
Mof_O 	O 	0.63382	0.46436	0.4288	-0.675
Mof_O 	O 	0.58082	0.46161	0.30995	-0.564
Mof_O 	O 	0.82047	0.02866	0.6308	-0.465
Mof_O 	O 	0.75809	0.18852	0.5613	-0.532
Mof_O 	O 	0.49027	0.31806	0.5082	-0.552
Mof_O 	O 	0.29715	0.2785	0.4978	-0.468
Mof_O 	O 	0.47408	0.30408	0.69176	-0.475
Mof_O 	O 	0.74197	0.31156	0.6955	-0.511
Mof_O 	O 	0.72426	0.1666	0.00608	-0.573
Mof_O 	O 	0.74685	0.3023	0.0594	-0.615
Mof_O 	O 	0.52698	0.03564	0.0712	-0.664
Mof_O 	O 	0.35238	0.03839	0.19005	-0.558
Mof_O 	O 	0.47993	0.47134	0.8692	-0.462
Mof_O 	O 	0.50791	0.31148	0.9387	-0.53
Mof_O 	O 	0.31653	0.18194	0.9918	-0.551
Mof_O 	O 	0.07345	0.2215	0.0022	-0.46
Mof_O 	O 	0.46992	0.19592	0.80824	-0.474
Mof_O 	O 	0.74903	0.18844	0.8045	-0.51
Mof_O 	O 	0.10306	0.6666	0.50608	-0.582
Mof_O 	O 	0.89145	0.8023	0.5594	-0.615
Mof_O 	O 	0.36618	0.53564	0.5712	-0.675
Mof_O 	O 	0.41918	0.53839	0.69005	-0.564
Mof_O 	O 	0.17953	0.97134	0.3692	-0.465
Mof_O 	O 	0.24191	0.81148	0.4387	-0.532
Mof_O 	O 	0.50973	0.68194	0.4918	-0.552
Mof_O 	O 	0.70285	0.7215	0.5022	-0.468
Mof_O 	O 	0.52592	0.69592	0.30824	-0.475
Mof_O 	O 	0.25803	0.68844	0.3045	-0.511
Mof_O 	O 	0.27574	0.8334	0.99392	-0.573
Mof_O 	O 	0.25315	0.6977	0.9406	-0.615
Mof_O 	O 	0.47302	0.96436	0.9288	-0.664
Mof_O 	O 	0.64762	0.96161	0.80995	-0.558
Mof_O 	O 	0.52007	0.52866	0.1308	-0.462
Mof_O 	O 	0.49209	0.68852	0.0613	-0.53
Mof_O 	O 	0.68347	0.81806	0.0082	-0.551
Mof_O 	O 	0.92655	0.7785	0.9978	-0.46
Mof_O 	O 	0.53008	0.80408	0.19176	-0.474
Mof_O 	O 	0.25097	0.81156	0.1955	-0.51
_end
