data_functionalizedCrystal
_audit_creation_method	'EQeq! by Chris Wilmer'
_symmetry_space_group_name_H-M	'P1'
_symmetry_Int_Tables_number	1
_symmetry_cell_setting	triclinic
loop_
_symmetry_equiv_pos_as_xyz
  x,y,z
_cell_length_a	17.669
_cell_length_b	8.537
_cell_length_c	10.252
_cell_angle_alpha	90
_cell_angle_beta	103.42
_cell_angle_gamma	90
loop_
_atom_site_label
_atom_site_type_symbol
_atom_site_fract_x
_atom_site_fract_y
_atom_site_fract_z
_atom_site_charge
Mof_P 	P 	0.2906	0.6021	0.8852	1.148
Mof_Al	Al	0.3292	0.3506	0.6832	5.861
Mof_O 	O 	0.3018	0.4495	0.8121	-1.64
Mof_O 	O 	0.2061	0.6576	0.8222	-1.612
Mof_O 	O 	0.4293	0.344	0.7159	-1.65
Mof_O 	O 	0.3486	0.7268	0.8817	-0.609
Mof_O 	O 	0.2905	0.5508	0.0316	-1.61
Mof_O 	O 	0.4951	0.1316	0.868	-0.43
Mof_P 	P 	0.7906	0.1021	0.8852	1.147
Mof_Al	Al	0.8292	0.8506	0.6832	5.854
Mof_O 	O 	0.8018	0.9495	0.8121	-1.627
Mof_O 	O 	0.7061	0.1576	0.8222	-1.618
Mof_O 	O 	0.9293	0.844	0.7159	-1.563
Mof_O 	O 	0.8486	0.2268	0.8817	-0.589
Mof_O 	O 	0.7905	0.0508	0.0316	-1.599
Mof_O 	O 	0.9951	0.6316	0.868	-0.313
Mof_P 	P 	0.7094	0.6021	0.6148	1.157
Mof_Al	Al	0.6708	0.3506	0.8168	5.872
Mof_O 	O 	0.6982	0.4495	0.6879	-1.636
Mof_O 	O 	0.7939	0.6576	0.6778	-1.605
Mof_O 	O 	0.5707	0.344	0.7841	-1.654
Mof_O 	O 	0.6514	0.7268	0.6183	-0.61
Mof_O 	O 	0.7095	0.5508	0.4684	-1.614
Mof_O 	O 	0.5049	0.1316	0.632	-0.426
Mof_P 	P 	0.2094	0.1021	0.6148	1.151
Mof_Al	Al	0.1708	0.8506	0.8168	5.809
Mof_O 	O 	0.1982	0.9495	0.6879	-1.631
Mof_O 	O 	0.2939	0.1576	0.6778	-1.616
Mof_O 	O 	0.0707	0.844	0.7841	-1.648
Mof_O 	O 	0.1514	0.2268	0.6183	-0.63
Mof_O 	O 	0.2095	0.0508	0.4684	-1.61
Mof_O 	O 	0.0049	0.6316	0.632	-0.461
Mof_P 	P 	0.7094	0.3979	0.1148	1.163
Mof_Al	Al	0.6708	0.6494	0.3168	5.88
Mof_O 	O 	0.6982	0.5505	0.1879	-1.637
Mof_O 	O 	0.7939	0.3424	0.1778	-1.605
Mof_O 	O 	0.5707	0.656	0.2841	-1.653
Mof_O 	O 	0.6514	0.2732	0.1183	-0.607
Mof_O 	O 	0.7095	0.4492	0.9684	-1.62
Mof_O 	O 	0.5049	0.8684	0.132	-0.424
Mof_P 	P 	0.2094	0.8979	0.1148	1.155
Mof_Al	Al	0.1708	0.1494	0.3168	5.816
Mof_O 	O 	0.1982	0.0505	0.1879	-1.63
Mof_O 	O 	0.2939	0.8424	0.1778	-1.615
Mof_O 	O 	0.0707	0.156	0.2841	-1.647
Mof_O 	O 	0.1514	0.7732	0.1183	-0.627
Mof_O 	O 	0.2095	0.9492	0.9684	-1.613
Mof_O 	O 	0.0049	0.3684	0.132	-0.457
Mof_P 	P 	0.2906	0.3979	0.3852	1.155
Mof_Al	Al	0.3292	0.6494	0.1832	5.868
Mof_O 	O 	0.3018	0.5505	0.3121	-1.64
Mof_O 	O 	0.2061	0.3424	0.3222	-1.612
Mof_O 	O 	0.4293	0.656	0.2159	-1.65
Mof_O 	O 	0.3486	0.2732	0.3817	-0.607
Mof_O 	O 	0.2905	0.4492	0.5316	-1.616
Mof_O 	O 	0.4951	0.8684	0.368	-0.425
Mof_P 	P 	0.7906	0.8979	0.3852	1.156
Mof_Al	Al	0.8292	0.1494	0.1832	5.862
Mof_O 	O 	0.8018	0.0505	0.3121	-1.629
Mof_O 	O 	0.7061	0.8424	0.3222	-1.618
Mof_O 	O 	0.9293	0.156	0.2159	-1.564
Mof_O 	O 	0.8486	0.7732	0.3817	-0.586
Mof_O 	O 	0.7905	0.9492	0.5316	-1.606
Mof_O 	O 	0.9951	0.3684	0.368	-0.31
Mof_P 	P 	0.5	0.2333	0.75	1.064
Mof_P 	P 	2.0103e-33	0.7333	0.75	0.907
Mof_P 	P 	0.5	0.7667	0.25	1.065
Mof_P 	P 	6.701e-34	0.2667	0.25	0.909
_end
