data_functionalizedCrystal
_audit_creation_method	'EQeq! by Chris Wilmer'
_symmetry_space_group_name_H-M	'P1'
_symmetry_Int_Tables_number	1
_symmetry_cell_setting	triclinic
loop_
_symmetry_equiv_pos_as_xyz
  x,y,z
_cell_length_a	11.4998
_cell_length_b	15.8354
_cell_length_c	17.5204
_cell_angle_alpha	90
_cell_angle_beta	90
_cell_angle_gamma	90
loop_
_atom_site_label
_atom_site_type_symbol
_atom_site_fract_x
_atom_site_fract_y
_atom_site_fract_z
_atom_site_charge
Mof_Zn	Zn	1.9005e-33	0.89205	0.3327	1.16
Mof_Zn	Zn	-3.00033e-33	0.39205	0.1673	1.155
Mof_Zn	Zn	-4.27154e-32	0.60795	0.8327	1.157
Mof_Zn	Zn	-0	0	-0	1.108
Mof_Zn	Zn	-1.29678e-32	0.5	0.5	1.119
Mof_Zn	Zn	3.81186e-33	0.10795	0.6673	1.152
Mof_Fe	Fe	1.0148e-32	0.19827	0.39143	0.554
Mof_Fe	Fe	-9.26983e-33	0.69827	0.10857	0.562
Mof_Fe	Fe	-4.43564e-33	0.80173	0.60857	0.557
Mof_Fe	Fe	2.09162e-32	0.30173	0.89143	0.55
Mof_H 	H 	0.4122	0.162	0.773	0.079
Mof_H 	H 	0.5878	0.338	0.273	0.075
Mof_H 	H 	0.21	0.9684	0.4158	-0.014
Mof_H 	H 	0.2111	0.9361	0.0939	-0.035
Mof_H 	H 	0.7889	0.4361	0.4061	0.003
Mof_H 	H 	0.21	0.5316	0.9158	-0.016
Mof_H 	H 	0.79	0.9684	0.4158	0.022
Mof_H 	H 	0.5878	0.662	0.727	0.078
Mof_H 	H 	0.7864	0.3318	0.2671	0.02
Mof_H 	H 	0.7889	0.5639	0.5939	0.002
Mof_H 	H 	0.4122	0.838	0.227	0.079
Mof_H 	H 	0.4092	0.5648	0.5974	0.079
Mof_H 	H 	0.7864	0.8318	0.2329	0.02
Mof_H 	H 	0.5908	0.0648	0.9026	0.067
Mof_H 	H 	0.5908	0.9352	0.0974	0.068
Mof_H 	H 	0.7864	0.1682	0.7671	0.02
Mof_H 	H 	0.4122	0.662	0.727	0.08
Mof_H 	H 	0.7889	0.9361	0.0939	0.003
Mof_H 	H 	0.5924	0.9791	0.4149	0.085
Mof_H 	H 	0.21	0.4684	0.0842	-0.026
Mof_H 	H 	0.2111	0.0639	0.9061	-0.037
Mof_H 	H 	0.2111	0.4361	0.4061	-0.035
Mof_H 	H 	0.21	0.0316	0.5842	-0.028
Mof_H 	H 	0.5908	0.4352	0.4026	0.077
Mof_H 	H 	0.5924	0.4791	0.0851	0.075
Mof_H 	H 	0.79	0.5316	0.9158	0.02
Mof_H 	H 	0.4076	0.0209	0.5851	0.075
Mof_H 	H 	0.2136	0.1682	0.7671	-0.014
Mof_H 	H 	0.2136	0.6682	0.7329	-0.013
Mof_H 	H 	0.2136	0.8318	0.2329	-0.014
Mof_H 	H 	0.5908	0.5648	0.5974	0.077
Mof_H 	H 	0.5924	0.5209	0.9149	0.084
Mof_H 	H 	0.4076	0.4791	0.0851	0.077
Mof_H 	H 	0.79	0.0316	0.5842	0.01
Mof_H 	H 	0.5878	0.162	0.773	0.077
Mof_H 	H 	0.4076	0.9791	0.4149	0.087
Mof_H 	H 	0.79	0.4684	0.0842	0.012
Mof_H 	H 	0.2111	0.5639	0.5939	-0.035
Mof_H 	H 	0.5924	0.0209	0.5851	0.073
Mof_H 	H 	0.2136	0.3318	0.2671	-0.015
Mof_H 	H 	0.4092	0.0648	0.9026	0.07
Mof_H 	H 	0.4122	0.338	0.273	0.077
Mof_H 	H 	0.5878	0.838	0.227	0.077
Mof_H 	H 	0.4092	0.4352	0.4026	0.079
Mof_H 	H 	0.4076	0.5209	0.9149	0.086
Mof_H 	H 	0.7889	0.0639	0.9061	0.001
Mof_H 	H 	0.4092	0.9352	0.0974	0.07
Mof_H 	H 	0.7864	0.6682	0.7329	0.02
Mof_C 	C 	0.5643	0.5	0.5	0.055
Mof_C 	C 	0.6296	0.4476	0.1227	-0.129
Mof_C 	C 	0.3732	0.8647	0.2667	-0.141
Mof_C 	C 	0.4348	0.9076	0.3217	0.066
Mof_C 	C 	0.6268	0.8647	0.2667	-0.127
Mof_C 	C 	1.89322e-33	0.6528	0.0068	-0.147
Mof_C 	C 	0.2532	0.8615	0.2706	0.074
Mof_C 	C 	0.17	0.302	0.8936	-0.088
Mof_C 	C 	-4.67539e-33	0.6899	0.5666	-0.125
Mof_C 	C 	0.6286	0.0382	0.9428	-0.094
Mof_C 	C 	0.2509	0.0588	0.6229	0.087
Mof_C 	C 	0.2514	0.037	0.9452	0.09
Mof_C 	C 	-1.30067e-32	0.1528	0.4932	-0.121
Mof_C 	C 	0.3732	0.3647	0.2333	-0.142
Mof_C 	C 	0.3714	0.0382	0.9428	-0.11
Mof_C 	C 	0.2532	0.1385	0.7294	0.071
Mof_C 	C 	0.7486	0.537	0.5548	0.085
Mof_C 	C 	0.6268	0.1353	0.7333	-0.128
Mof_C 	C 	0.7491	0.4412	0.1229	0.088
Mof_C 	C 	0.6268	0.6353	0.7667	-0.127
Mof_C 	C 	0.4357	0.5	0.5	0.064
Mof_C 	C 	0.3704	0.4476	0.1227	-0.145
Mof_C 	C 	0.2532	0.3615	0.2294	0.07
Mof_C 	C 	0.2514	0.463	0.4452	0.082
Mof_C 	C 	0.17	0.198	0.3936	-0.094
Mof_C 	C 	0.5643	0	-0	0.005
Mof_C 	C 	0.83	0.802	0.6064	0.026
Mof_C 	C 	0.6296	0.5524	0.8773	-0.127
Mof_C 	C 	0.3704	0.0524	0.6227	-0.145
Mof_C 	C 	4.84351e-33	0.4136	0.8479	-0.121
Mof_C 	C 	0.4348	0.0924	0.6783	0.062
Mof_C 	C 	0.4348	0.4076	0.1783	0.062
Mof_C 	C 	-1.09992e-32	0.5864	0.1521	-0.127
Mof_C 	C 	0.4357	0	-0	0.012
Mof_C 	C 	0.7491	0.5588	0.8771	0.093
Mof_C 	C 	2.47574e-33	0.3101	0.4334	-0.125
Mof_C 	C 	0.7491	0.0588	0.6229	0.088
Mof_C 	C 	0.7486	0.463	0.4452	0.085
Mof_C 	C 	0.4348	0.5924	0.8217	0.066
Mof_C 	C 	0.7486	0.963	0.0548	0.092
Mof_C 	C 	0.7468	0.6385	0.7706	0.079
Mof_C 	C 	0.17	0.802	0.6064	-0.087
Mof_C 	C 	0.7491	0.9412	0.3771	0.093
Mof_C 	C 	0.3714	0.9618	0.0572	-0.108
Mof_C 	C 	0.3732	0.6353	0.7667	-0.14
Mof_C 	C 	0.3704	0.9476	0.3773	-0.142
Mof_C 	C 	-5.92468e-33	0.0864	0.3479	-0.132
Mof_C 	C 	-5.01699e-33	0.8472	0.5068	-0.113
Mof_C 	C 	-1.12867e-32	0.2457	0.7943	-0.122
Mof_C 	C 	0.6286	0.4618	0.4428	-0.129
Mof_C 	C 	0.2514	0.537	0.5548	0.082
Mof_C 	C 	0.7468	0.3615	0.2294	0.074
Mof_C 	C 	0.7486	0.037	0.9452	0.09
Mof_C 	C 	0.6296	0.9476	0.3773	-0.127
Mof_C 	C 	0.6286	0.5382	0.5572	-0.129
Mof_C 	C 	0.6296	0.0524	0.6227	-0.129
Mof_C 	C 	0.2509	0.5588	0.8771	0.092
Mof_C 	C 	5.67351e-33	0.3472	0.9932	-0.085
Mof_C 	C 	0.5652	0.0924	0.6783	0.055
Mof_C 	C 	0.5652	0.9076	0.3217	0.059
Mof_C 	C 	0.83	0.198	0.3936	0.022
Mof_C 	C 	0.3714	0.5382	0.5572	-0.145
Mof_C 	C 	0.7468	0.1385	0.7294	0.075
Mof_C 	C 	0.5652	0.4076	0.1783	0.054
Mof_C 	C 	0.2514	0.963	0.0548	0.092
Mof_C 	C 	0.5652	0.5924	0.8217	0.059
Mof_C 	C 	0.2509	0.4412	0.1229	0.087
Mof_C 	C 	0.17	0.698	0.1064	-0.094
Mof_C 	C 	5.33192e-33	0.1899	0.9334	-0.121
Mof_C 	C 	-6.73698e-33	0.7543	0.2057	-0.123
Mof_C 	C 	0.2532	0.6385	0.7706	0.075
Mof_C 	C 	0.2509	0.9412	0.3771	0.092
Mof_C 	C 	-4.18699e-33	0.9136	0.6521	-0.115
Mof_C 	C 	0.3704	0.5524	0.8773	-0.142
Mof_C 	C 	-2.27486e-33	0.2543	0.2943	-0.127
Mof_C 	C 	0.3732	0.1353	0.7333	-0.142
Mof_C 	C 	0.7468	0.8615	0.2706	0.078
Mof_C 	C 	4.03121e-33	0.7457	0.7057	-0.119
Mof_C 	C 	0.6286	0.9618	0.0572	-0.092
Mof_C 	C 	0.83	0.698	0.1064	0.022
Mof_C 	C 	0.3714	0.4618	0.4428	-0.145
Mof_C 	C 	-3.57556e-33	0.8101	0.0666	-0.127
Mof_C 	C 	0.6268	0.3647	0.2333	-0.127
Mof_C 	C 	0.83	0.302	0.8936	0.026
Mof_N 	N 	-1.11222e-32	0.4808	0.8231	-0.27
Mof_N 	N 	0.8093	0.60127	0.82561	-0.212
Mof_N 	N 	0.7295	0.3029	0.8969	-0.093
Mof_N 	N 	0.2705	0.8029	0.6031	-0.081
Mof_N 	N 	0.2705	0.3029	0.8969	-0.082
Mof_N 	N 	-1.00224e-32	0.0192	0.3231	-0.282
Mof_N 	N 	-1.28355e-32	0.5192	0.1769	-0.271
Mof_N 	N 	2.53572e-33	0.8684	0.4439	-0.273
Mof_N 	N 	0.8097	0.5	0.5	-0.233
Mof_N 	N 	0.8093	0.39873	0.17439	-0.213
Mof_N 	N 	-2.58104e-33	0.2959	0.2407	-0.283
Mof_N 	N 	0.1907	0.10127	0.67439	-0.262
Mof_N 	N 	0.7295	0.8029	0.6031	-0.091
Mof_N 	N 	-7.1616e-33	0.8784	0.0448	-0.274
Mof_N 	N 	-6.60255e-33	0.3684	0.0561	-0.299
Mof_N 	N 	0.1907	0.39873	0.17439	-0.26
Mof_N 	N 	-6.4308e-33	0.7959	0.2593	-0.28
Mof_N 	N 	0.7295	0.1971	0.3969	-0.099
Mof_N 	N 	0.2705	0.6971	0.1031	-0.086
Mof_N 	N 	-2.11358e-32	0.3784	0.4552	-0.279
Mof_N 	N 	-1.19573e-32	0.9808	0.6769	-0.257
Mof_N 	N 	0.1903	0.5	0.5	-0.281
Mof_N 	N 	0.8097	0	-0	-0.26
Mof_N 	N 	-2.62562e-32	0.6316	0.9439	-0.252
Mof_N 	N 	-2.0624e-32	0.6216	0.5448	-0.279
Mof_N 	N 	-3.68087e-33	0.2041	0.7407	-0.282
Mof_N 	N 	0.7295	0.6971	0.1031	-0.097
Mof_N 	N 	0.8093	0.89873	0.32561	-0.211
Mof_N 	N 	0.1907	0.60127	0.82561	-0.258
Mof_N 	N 	-3.57462e-33	0.7041	0.7593	-0.279
Mof_N 	N 	0.2705	0.1971	0.3969	-0.088
Mof_N 	N 	0.8093	0.10127	0.67439	-0.215
Mof_N 	N 	-1.26474e-32	0.1316	0.5561	-0.278
Mof_N 	N 	0.1903	0	-0	-0.31
Mof_N 	N 	-1.03676e-32	0.1216	0.9552	-0.273
Mof_N 	N 	0.1907	0.89873	0.32561	-0.257
_end
