data_functionalizedCrystal
_audit_creation_method	'EQeq! by Chris Wilmer'
_symmetry_space_group_name_H-M	'P1'
_symmetry_Int_Tables_number	1
_symmetry_cell_setting	triclinic
loop_
_symmetry_equiv_pos_as_xyz
  x,y,z
_cell_length_a	11.2547
_cell_length_b	17.5664
_cell_length_c	16.8496
_cell_angle_alpha	90
_cell_angle_beta	93.473
_cell_angle_gamma	90
loop_
_atom_site_label
_atom_site_type_symbol
_atom_site_fract_x
_atom_site_fract_y
_atom_site_fract_z
_atom_site_charge
Mof_C 	C 	0.6296	0.862	0.3591	0.519
Mof_C 	C 	0.5737	0.9334	0.3302	-0.155
Mof_C 	C 	0.5819	0.9672	0.2579	-0.008
Mof_H 	H 	0.619	0.9452	0.2158	0.043
Mof_C 	C 	0.5269	0.0401	0.2546	0.034
Mof_H 	H 	0.5253	0.0712	0.2099	-0.002
Mof_C 	C 	0.4773	0.0595	0.3226	-0.178
Mof_C 	C 	0.4204	0.133	0.343	0.521
Mof_C 	C 	0.8869	0.8694	0.4755	0.521
Mof_C 	C 	0.9493	0.9422	0.4696	-0.169
Mof_C 	C 	0.0053	0.9698	0.4077	0.013
Mof_H 	H 	0.0092	0.9439	0.3597	0.031
Mof_C 	C 	0.058	0.0421	0.4224	0.009
Mof_H 	H 	0.1017	0.0683	0.3861	0.027
Mof_C 	C 	0.0367	0.0682	0.496	-0.166
Mof_C 	C 	0.0772	0.1418	0.5309	0.514
Mof_C 	C 	0.5757	0.8758	0.677	0.582
Mof_C 	C 	0.5301	0.9526	0.6518	-0.19
Mof_C 	C 	0.5546	0.9905	0.5856	0.028
Mof_H 	H 	0.6086	0.9733	0.5499	0.018
Mof_C 	C 	0.4897	0.0591	0.5756	-0.005
Mof_H 	H 	0.4938	0.091	0.5318	0.008
Mof_C 	C 	0.4209	0.0729	0.6373	-0.143
Mof_C 	C 	0.3389	0.138	0.6488	0.448
Mof_C 	C 	0.819	0.6337	0.8533	0.471
Mof_C 	C 	0.8988	0.567	0.8621	-0.161
Mof_C 	C 	0.9769	0.5498	0.9251	0.013
Mof_H 	H 	0.9902	0.5809	0.9695	0
Mof_C 	C 	0.0335	0.481	0.9151	0.009
Mof_H 	H 	0.0893	0.4614	0.9527	0.025
Mof_C 	C 	0.0013	0.4444	0.8462	-0.175
Mof_C 	C 	0.0463	0.3671	0.8231	0.575
Mof_C 	C 	0.5847	0.6339	0.9815	0.508
Mof_C 	C 	0.5411	0.56	0.0109	-0.154
Mof_C 	C 	0.5674	0.527	0.082	0.001
Mof_H 	H 	0.6168	0.5492	0.1218	0.042
Mof_C 	C 	0.5124	0.4548	0.0901	0.015
Mof_H 	H 	0.5235	0.4235	0.1345	0.007
Mof_C 	C 	0.4415	0.4376	0.0248	-0.159
Mof_C 	C 	0.3689	0.3672	0.0114	0.485
Mof_C 	C 	0.9421	0.6275	0.1696	0.525
Mof_C 	C 	0.0014	0.5537	0.1835	-0.172
Mof_C 	C 	0.0696	0.5335	0.2509	0.018
Mof_H 	H 	0.079	0.5641	0.2959	0.026
Mof_C 	C 	0.123	0.4622	0.2443	-0.002
Mof_H 	H 	0.1716	0.4397	0.2843	0.034
Mof_C 	C 	0.095	0.4294	0.1714	-0.151
Mof_C 	C 	0.14	0.3567	0.1397	0.481
Mof_O 	O 	0.6807	0.8251	0.3072	-0.592
Mof_O 	O 	0.6255	0.8462	0.431	-0.563
Mof_O 	O 	0.444	0.1877	0.2965	-0.647
Mof_O 	O 	0.3628	0.1381	0.4021	-0.579
Mof_O 	O 	0.8926	0.8241	0.4166	-0.654
Mof_O 	O 	0.8356	0.8558	0.5373	-0.555
Mof_O 	O 	0.1342	0.1841	0.4848	-0.593
Mof_O 	O 	0.0557	0.1574	0.6009	-0.584
Mof_O 	O 	0.6265	0.8394	0.6266	-0.64
Mof_O 	O 	0.5615	0.8555	0.7459	-0.609
Mof_O 	O 	0.3204	0.1851	0.5935	-0.633
Mof_O 	O 	0.29	0.1421	0.7133	-0.518
Mof_O 	O 	0.7612	0.6442	0.7883	-0.52
Mof_O 	O 	0.8117	0.6779	0.9119	-0.667
Mof_O 	O 	0.0521	0.351	0.7508	-0.586
Mof_O 	O 	0.0745	0.3259	0.8793	-0.653
Mof_O 	O 	0.6439	0.6745	0.0311	-0.545
Mof_O 	O 	0.5608	0.6502	0.9099	-0.593
Mof_O 	O 	0.3711	0.3178	0.0654	-0.678
Mof_O 	O 	0.309	0.3601	0.9472	-0.494
Mof_O 	O 	0.8843	0.6379	0.1032	-0.571
Mof_O 	O 	0.953	0.6762	0.2236	-0.632
Mof_O 	O 	0.1197	0.3426	0.0677	-0.556
Mof_O 	O 	0.2013	0.315	0.1897	-0.562
Mof_O 	O 	0.2766	0.2492	0.83	-0.398
Mof_S 	S 	0.4943	0.98911	0.392	0.074
Mof_S 	S 	0.9572	0.0051	0.54777	0.084
Mof_S 	S 	0.4331	0.00234	0.7072	0.08
Mof_S 	S 	0.8989	0.49765	0.78948	0.078
Mof_S 	S 	0.4432	0.50615	0.95282	0.075
Mof_S 	S 	0.0041	0.48578	0.11203	0.076
Mof_Eu	Eu	0.30455	0.25448	0.46661	2.273
Mof_Eu	Eu	0.15232	0.24679	0.68949	2.565
Mof_Eu	Eu	0.17831	0.2491	0.96952	2.394
Mof_Eu	Eu	0.37964	0.24515	0.17997	2.363
Mof_C 	C 	0.3704	0.362	0.6409	0.518
Mof_C 	C 	0.4263	0.4334	0.6698	-0.155
Mof_C 	C 	0.4181	0.4672	0.7421	-0.008
Mof_H 	H 	0.381	0.4452	0.7842	0.043
Mof_C 	C 	0.4731	0.5401	0.7454	0.034
Mof_H 	H 	0.4747	0.5712	0.7901	-0.002
Mof_C 	C 	0.5227	0.5595	0.6774	-0.178
Mof_C 	C 	0.5796	0.633	0.657	0.521
Mof_C 	C 	0.1131	0.3694	0.5245	0.522
Mof_C 	C 	0.0507	0.4422	0.5304	-0.171
Mof_C 	C 	0.9947	0.4698	0.5923	0.013
Mof_H 	H 	0.9908	0.4439	0.6403	0.031
Mof_C 	C 	0.942	0.5421	0.5776	0.01
Mof_H 	H 	0.8983	0.5683	0.6139	0.027
Mof_C 	C 	0.9633	0.5682	0.504	-0.167
Mof_C 	C 	0.9228	0.6418	0.4691	0.514
Mof_C 	C 	0.4243	0.3758	0.323	0.582
Mof_C 	C 	0.4699	0.4526	0.3482	-0.191
Mof_C 	C 	0.4454	0.4905	0.4144	0.027
Mof_H 	H 	0.3914	0.4733	0.4501	0.018
Mof_C 	C 	0.5103	0.5591	0.4244	-0.004
Mof_H 	H 	0.5062	0.591	0.4682	0.007
Mof_C 	C 	0.5791	0.5729	0.3627	-0.144
Mof_C 	C 	0.6611	0.638	0.3512	0.448
Mof_C 	C 	0.181	0.1337	0.1467	0.471
Mof_C 	C 	0.1012	0.067	0.1379	-0.161
Mof_C 	C 	0.0231	0.0498	0.0749	0.014
Mof_H 	H 	0.0098	0.0809	0.0305	0
Mof_C 	C 	0.9665	0.981	0.0849	0.007
Mof_H 	H 	0.9107	0.9614	0.0473	0.025
Mof_C 	C 	0.9987	0.9444	0.1538	-0.175
Mof_C 	C 	0.9537	0.8671	0.1769	0.575
Mof_C 	C 	0.4153	0.1339	0.0185	0.509
Mof_C 	C 	0.4589	0.06	0.9891	-0.155
Mof_C 	C 	0.4326	0.027	0.918	-0.001
Mof_H 	H 	0.3832	0.0492	0.8782	0.043
Mof_C 	C 	0.4876	0.9548	0.9099	0.018
Mof_H 	H 	0.4765	0.9235	0.8655	0.006
Mof_C 	C 	0.5585	0.9376	0.9752	-0.159
Mof_C 	C 	0.6311	0.8672	0.9886	0.486
Mof_C 	C 	0.0579	0.1275	0.8304	0.526
Mof_C 	C 	0.9986	0.0537	0.8165	-0.173
Mof_C 	C 	0.9304	0.0335	0.7491	0.015
Mof_H 	H 	0.921	0.0641	0.7041	0.027
Mof_C 	C 	0.877	0.9622	0.7557	0.001
Mof_H 	H 	0.8284	0.9397	0.7157	0.033
Mof_C 	C 	0.905	0.9294	0.8286	-0.152
Mof_C 	C 	0.86	0.8567	0.8603	0.481
Mof_O 	O 	0.3193	0.3251	0.6928	-0.592
Mof_O 	O 	0.3745	0.3462	0.569	-0.563
Mof_O 	O 	0.556	0.6877	0.7035	-0.647
Mof_O 	O 	0.6372	0.6381	0.5979	-0.579
Mof_O 	O 	0.1074	0.3241	0.5834	-0.654
Mof_O 	O 	0.1644	0.3558	0.4627	-0.555
Mof_O 	O 	0.8658	0.6841	0.5152	-0.593
Mof_O 	O 	0.9443	0.6574	0.3991	-0.585
Mof_O 	O 	0.3735	0.3394	0.3734	-0.64
Mof_O 	O 	0.4385	0.3555	0.2541	-0.61
Mof_O 	O 	0.6796	0.6851	0.4065	-0.633
Mof_O 	O 	0.71	0.6421	0.2867	-0.518
Mof_O 	O 	0.2388	0.1442	0.2117	-0.52
Mof_O 	O 	0.1883	0.1779	0.0881	-0.667
Mof_O 	O 	0.9479	0.851	0.2492	-0.586
Mof_O 	O 	0.9255	0.8259	0.1207	-0.653
Mof_O 	O 	0.3561	0.1745	0.9689	-0.546
Mof_O 	O 	0.4392	0.1502	0.0901	-0.593
Mof_O 	O 	0.6289	0.8178	0.9346	-0.678
Mof_O 	O 	0.691	0.8601	0.0528	-0.495
Mof_O 	O 	0.1157	0.1379	0.8968	-0.571
Mof_O 	O 	0.047	0.1762	0.7764	-0.632
Mof_O 	O 	0.8803	0.8426	0.9323	-0.556
Mof_O 	O 	0.7987	0.815	0.8103	-0.562
Mof_O 	O 	0.7234	0.7492	0.17	-0.398
Mof_S 	S 	0.5057	0.48911	0.608	0.074
Mof_S 	S 	0.0428	0.5051	0.45223	0.087
Mof_S 	S 	0.5669	0.50234	0.2928	0.082
Mof_S 	S 	0.1011	0.99765	0.21052	0.077
Mof_S 	S 	0.5568	0.00615	0.04718	0.076
Mof_S 	S 	0.9959	0.98578	0.88797	0.078
Mof_Eu	Eu	0.69545	0.75448	0.53339	2.273
Mof_Eu	Eu	0.84768	0.74679	0.31051	2.565
Mof_Eu	Eu	0.82169	0.7491	0.03048	2.394
Mof_Eu	Eu	0.62036	0.74515	0.82003	2.363
_end
