data_functionalizedCrystal
_audit_creation_method	'EQeq! by Chris Wilmer'
_symmetry_space_group_name_H-M	'P1'
_symmetry_Int_Tables_number	1
_symmetry_cell_setting	triclinic
loop_
_symmetry_equiv_pos_as_xyz
  x,y,z
_cell_length_a	30.88
_cell_length_b	30.88
_cell_length_c	33.781
_cell_angle_alpha	90
_cell_angle_beta	90
_cell_angle_gamma	90
loop_
_atom_site_label
_atom_site_type_symbol
_atom_site_fract_x
_atom_site_fract_y
_atom_site_fract_z
_atom_site_charge
Mof_Zn	Zn	0.29172	0.15594	0.21571	1.173
Mof_Zn	Zn	0.47942	0.18601	0.2245	1.17
Mof_Zn	Zn	0.38369	0.24752	0.08733	1.191
Mof_N 	N 	0.3473	0.1694	0.244	-0.272
Mof_N 	N 	0.4205	0.1787	0.2504	-0.263
Mof_C 	C 	0.3899	0.1646	0.2266	-0.005
Mof_C 	C 	0.3581	0.1904	0.2802	0.036
Mof_C 	C 	0.3274	0.2057	0.3123	-0.046
Mof_C 	C 	0.421	0.2157	0.3192	-0.041
Mof_C 	C 	0.4035	0.1967	0.2886	0.018
Mof_N 	N 	0.4713	0.2207	0.1742	-0.277
Mof_N 	N 	0.4342	0.2463	0.1236	-0.266
Mof_C 	C 	0.4401	0.2142	0.149	0.036
Mof_C 	C 	0.4887	0.261	0.1673	0.047
Mof_C 	C 	0.5207	0.2857	0.1834	-0.057
Mof_C 	C 	0.5269	0.3323	0.169	0.01
Mof_C 	C 	0.499	0.355	0.138	0.004
Mof_C 	C 	0.4764	0.3262	0.1203	-0.029
Mof_C 	C 	0.4661	0.2838	0.1345	0.012
Mof_C 	C 	0.56	0.3588	0.1873	-0.007
Mof_C 	C 	0.5164	0.3983	0.1214	-0.005
Mof_N 	N 	0.3414	0.2043	0.1118	-0.255
Mof_N 	N 	0.3051	0.1706	0.1593	-0.281
Mof_C 	C 	0.3294	0.2057	0.1494	0.031
Mof_C 	C 	0.3387	0.16	0.0958	0.021
Mof_C 	C 	0.3478	0.1443	0.06	-0.055
Mof_C 	C 	0.332	0.099	0.049	0.001
Mof_C 	C 	0.3098	0.0804	0.0849	-0.002
Mof_C 	C 	0.2955	0.0983	0.1205	-0.036
Mof_C 	C 	0.3124	0.1391	0.1268	0.002
Mof_C 	C 	0.2998	0.1743	0.0916	-0.002
Mof_C 	C 	0.2847	0.1697	0.0531	-0.014
Mof_C 	C 	0.247	0.1458	0.0457	-0.001
Mof_C 	C 	0.2253	0.1264	0.077	0.008
Mof_C 	C 	0.2404	0.131	0.115	-0.038
Mof_C 	C 	0.279	0.166	0.13	0.046
Mof_N 	N 	0.241	0.1885	0.2352	-0.273
Mof_C 	C 	0.2177	0.1818	0.2729	0.031
Mof_C 	C 	0.2231	0.1573	0.3058	-0.052
Mof_C 	C 	0.1981	0.1641	0.3363	0.013
Mof_C 	C 	0.2048	0.1376	0.372	-0.01
Mof_N 	N 	0.4048	0.2313	0.033	-0.272
Mof_C 	C 	0.44	0.2078	0.0235	0.073
Mof_C 	C 	0.472	0.1906	0.041	-0.062
Mof_C 	C 	0.5005	0.168	0.022	0.014
Mof_C 	C 	0.537	0.1459	0.0433	-0.014
Mof_C 	C 	0.464	0.2362	0.029	-0.038
Mof_N 	N 	0.4977	0.126	0.2135	-0.286
Mof_N 	N 	0.5037	0.0532	0.2207	-0.305
Mof_C 	C 	0.4851	0.0874	0.2315	0.042
Mof_C 	C 	0.5302	0.1133	0.1888	0.018
Mof_C 	C 	0.5563	0.1353	0.1624	-0.063
Mof_C 	C 	0.5857	0.1133	0.142	0.004
Mof_C 	C 	0.59	0.066	0.1442	0.011
Mof_C 	C 	0.5592	0.0461	0.1742	-0.097
Mof_C 	C 	0.5318	0.0669	0.1937	0.074
Mof_C 	C 	0.6236	0.041	0.1198	-0.025
Mof_N 	N 	0.3526	0.2997	0.0719	-0.268
Mof_C 	C 	0.3662	0.332	0.045	-0.051
Mof_C 	C 	0.4033	0.3364	0.0209	-0.006
Mof_C 	C 	0.448	0.3802	0.9724	-0.008
Mof_N 	N 	0.3584	0.3088	0.1068	-0.274
Mof_C 	C 	0.3524	0.3194	0.1461	0.024
Mof_C 	C 	0.3717	0.3117	0.1864	-0.043
Mof_C 	C 	0.3544	0.3137	0.2182	0
Mof_C 	C 	0.3735	0.3054	0.256	-0.022
Mof_N 	N 	0.5268	0.2099	0.2588	-0.278
Mof_N 	N 	0.5937	0.2209	0.2764	-0.289
Mof_C 	C 	0.5662	0.1947	0.2595	0.045
Mof_C 	C 	0.5273	0.2508	0.274	0.024
Mof_C 	C 	0.57	0.2546	0.2866	0.065
Mof_C 	C 	0.587	0.2952	0.2952	-0.057
Mof_C 	C 	0.5614	0.332	0.2912	0.014
Mof_C 	C 	0.5187	0.3281	0.2786	0.01
Mof_C 	C 	0.5017	0.2875	0.27	-0.05
Mof_C 	C 	0.572	0.3818	0.2991	-0.005
Mof_C 	C 	0.4898	0.3717	0.274	-0.004
Mof_C 	C 	0.592	0.29	0.3305	-0.018
Mof_C 	C 	0.531	0.3201	0.3306	-0.003
Mof_C 	C 	0.4901	0.2807	0.3041	-0.005
Mof_Zn	Zn	0.70828	0.84406	0.21571	1.174
Mof_Zn	Zn	0.52058	0.81399	0.2245	1.171
Mof_Zn	Zn	0.61631	0.75248	0.08733	1.192
Mof_N 	N 	0.6527	0.8306	0.244	-0.27
Mof_N 	N 	0.5795	0.8213	0.2504	-0.262
Mof_C 	C 	0.6101	0.8354	0.2266	-0.003
Mof_C 	C 	0.6419	0.8096	0.2802	0.037
Mof_C 	C 	0.6726	0.7943	0.3123	-0.045
Mof_C 	C 	0.579	0.7843	0.3192	-0.04
Mof_C 	C 	0.5965	0.8033	0.2886	0.019
Mof_N 	N 	0.5287	0.7793	0.1742	-0.276
Mof_N 	N 	0.5658	0.7537	0.1236	-0.265
Mof_C 	C 	0.5599	0.7858	0.149	0.037
Mof_C 	C 	0.5113	0.739	0.1673	0.048
Mof_C 	C 	0.4793	0.7143	0.1834	-0.056
Mof_C 	C 	0.4731	0.6677	0.169	0.011
Mof_C 	C 	0.501	0.645	0.138	0.005
Mof_C 	C 	0.5236	0.6738	0.1203	-0.028
Mof_C 	C 	0.5339	0.7162	0.1345	0.013
Mof_C 	C 	0.44	0.6412	0.1873	-0.006
Mof_C 	C 	0.4836	0.6017	0.1214	-0.004
Mof_N 	N 	0.6586	0.7957	0.1118	-0.254
Mof_N 	N 	0.6949	0.8294	0.1593	-0.28
Mof_C 	C 	0.6706	0.7943	0.1494	0.032
Mof_C 	C 	0.6613	0.84	0.0958	0.023
Mof_C 	C 	0.6522	0.8557	0.06	-0.054
Mof_C 	C 	0.668	0.901	0.049	0.004
Mof_C 	C 	0.6902	0.9196	0.0849	0.002
Mof_C 	C 	0.7045	0.9017	0.1205	-0.035
Mof_C 	C 	0.6876	0.8609	0.1268	0.002
Mof_C 	C 	0.7002	0.8257	0.0916	-0.002
Mof_C 	C 	0.7153	0.8303	0.0531	-0.014
Mof_C 	C 	0.753	0.8542	0.0457	-0.002
Mof_C 	C 	0.7747	0.8736	0.077	0.01
Mof_C 	C 	0.7596	0.869	0.115	-0.038
Mof_C 	C 	0.721	0.834	0.13	0.046
Mof_N 	N 	0.759	0.8115	0.2352	-0.273
Mof_C 	C 	0.7823	0.8182	0.2729	0.031
Mof_C 	C 	0.7769	0.8427	0.3058	-0.052
Mof_C 	C 	0.8019	0.8359	0.3363	0.013
Mof_C 	C 	0.7952	0.8624	0.372	-0.008
Mof_N 	N 	0.5952	0.7687	0.033	-0.272
Mof_C 	C 	0.56	0.7922	0.0235	0.074
Mof_C 	C 	0.528	0.8094	0.041	-0.061
Mof_C 	C 	0.4995	0.832	0.022	0.014
Mof_C 	C 	0.463	0.8541	0.0433	-0.012
Mof_C 	C 	0.536	0.7638	0.029	-0.039
Mof_N 	N 	0.5023	0.874	0.2135	-0.286
Mof_N 	N 	0.4963	0.9468	0.2207	-0.302
Mof_C 	C 	0.5149	0.9126	0.2315	0.044
Mof_C 	C 	0.4698	0.8867	0.1888	0.019
Mof_C 	C 	0.4437	0.8647	0.1624	-0.064
Mof_C 	C 	0.4143	0.8867	0.142	0.005
Mof_C 	C 	0.41	0.934	0.1442	0.01
Mof_C 	C 	0.4408	0.9539	0.1742	-0.091
Mof_C 	C 	0.4682	0.9331	0.1937	0.073
Mof_C 	C 	0.3764	0.959	0.1198	-0.018
Mof_N 	N 	0.6474	0.7003	0.0719	-0.268
Mof_C 	C 	0.6338	0.668	0.045	-0.051
Mof_C 	C 	0.5967	0.6636	0.0209	-0.006
Mof_C 	C 	0.552	0.6198	0.9724	-0.008
Mof_N 	N 	0.6416	0.6912	0.1068	-0.274
Mof_C 	C 	0.6476	0.6806	0.1461	0.024
Mof_C 	C 	0.6283	0.6883	0.1864	-0.043
Mof_C 	C 	0.6456	0.6863	0.2182	0
Mof_C 	C 	0.6265	0.6946	0.256	-0.022
Mof_N 	N 	0.4732	0.7901	0.2588	-0.278
Mof_N 	N 	0.4063	0.7791	0.2764	-0.289
Mof_C 	C 	0.4338	0.8053	0.2595	0.045
Mof_C 	C 	0.4727	0.7492	0.274	0.024
Mof_C 	C 	0.43	0.7454	0.2866	0.065
Mof_C 	C 	0.413	0.7048	0.2952	-0.057
Mof_C 	C 	0.4386	0.668	0.2912	0.014
Mof_C 	C 	0.4813	0.6719	0.2786	0.01
Mof_C 	C 	0.4983	0.7125	0.27	-0.05
Mof_C 	C 	0.428	0.6182	0.2991	-0.005
Mof_C 	C 	0.5102	0.6283	0.274	-0.004
Mof_C 	C 	0.408	0.71	0.3305	-0.018
Mof_C 	C 	0.469	0.6799	0.3306	-0.003
Mof_C 	C 	0.5099	0.7193	0.3041	-0.005
Mof_Zn	Zn	0.34406	0.79172	0.71571	1.174
Mof_Zn	Zn	0.31399	0.97942	0.7245	1.172
Mof_Zn	Zn	0.25248	0.88369	0.58733	1.192
Mof_N 	N 	0.3306	0.8473	0.744	-0.27
Mof_N 	N 	0.3213	0.9205	0.7504	-0.261
Mof_C 	C 	0.3354	0.8899	0.7266	-0.004
Mof_C 	C 	0.3096	0.8581	0.7802	0.037
Mof_C 	C 	0.2943	0.8274	0.8123	-0.045
Mof_C 	C 	0.2843	0.921	0.8192	-0.038
Mof_C 	C 	0.3033	0.9035	0.7886	0.019
Mof_N 	N 	0.2793	0.9713	0.6742	-0.276
Mof_N 	N 	0.2537	0.9342	0.6236	-0.265
Mof_C 	C 	0.2858	0.9401	0.649	0.038
Mof_C 	C 	0.239	0.9887	0.6673	0.057
Mof_C 	C 	0.2143	0.0207	0.6834	-0.063
Mof_C 	C 	0.1677	0.0269	0.669	0.004
Mof_C 	C 	0.145	0.999	0.638	0.019
Mof_C 	C 	0.1738	0.9764	0.6203	-0.03
Mof_C 	C 	0.2162	0.9661	0.6345	0.014
Mof_C 	C 	0.1412	0.06	0.6873	-0.006
Mof_C 	C 	0.1017	0.0164	0.6214	-0.015
Mof_N 	N 	0.2957	0.8414	0.6118	-0.254
Mof_N 	N 	0.3294	0.8051	0.6593	-0.28
Mof_C 	C 	0.2943	0.8294	0.6494	0.032
Mof_C 	C 	0.34	0.8387	0.5958	0.022
Mof_C 	C 	0.3557	0.8478	0.56	-0.054
Mof_C 	C 	0.401	0.832	0.549	0.004
Mof_C 	C 	0.4196	0.8098	0.5849	0.001
Mof_C 	C 	0.4017	0.7955	0.6205	-0.035
Mof_C 	C 	0.3609	0.8124	0.6268	0.002
Mof_C 	C 	0.3257	0.7998	0.5916	-0.002
Mof_C 	C 	0.3303	0.7847	0.5531	-0.013
Mof_C 	C 	0.3542	0.747	0.5457	-0.002
Mof_C 	C 	0.3736	0.7253	0.577	0.009
Mof_C 	C 	0.369	0.7404	0.615	-0.038
Mof_C 	C 	0.334	0.779	0.63	0.046
Mof_N 	N 	0.3115	0.741	0.7352	-0.273
Mof_C 	C 	0.3182	0.7177	0.7729	0.031
Mof_C 	C 	0.3427	0.7231	0.8058	-0.052
Mof_C 	C 	0.3359	0.6981	0.8363	0.013
Mof_C 	C 	0.3624	0.7048	0.872	-0.009
Mof_N 	N 	0.2687	0.9048	0.533	-0.272
Mof_C 	C 	0.2922	0.94	0.5235	0.072
Mof_C 	C 	0.3094	0.972	0.541	-0.051
Mof_C 	C 	0.332	0.0005	0.522	0.006
Mof_C 	C 	0.3541	0.037	0.5433	-0.014
Mof_C 	C 	0.2638	0.964	0.529	-0.037
Mof_N 	N 	0.374	0.9977	0.7135	-0.282
Mof_N 	N 	0.4468	0.0037	0.7207	-0.31
Mof_C 	C 	0.4126	0.9851	0.7315	0.051
Mof_C 	C 	0.3867	0.0302	0.6888	0.011
Mof_C 	C 	0.3647	0.0563	0.6624	-0.063
Mof_C 	C 	0.3867	0.0857	0.642	0.004
Mof_C 	C 	0.434	0.09	0.6442	0.011
Mof_C 	C 	0.4539	0.0592	0.6742	-0.096
Mof_C 	C 	0.4331	0.0318	0.6937	0.074
Mof_C 	C 	0.459	0.1236	0.6198	-0.022
Mof_N 	N 	0.2003	0.8526	0.5719	-0.267
Mof_C 	C 	0.168	0.8662	0.545	-0.051
Mof_C 	C 	0.1636	0.9033	0.5209	-0.005
Mof_C 	C 	0.1198	0.948	0.4724	-0.007
Mof_N 	N 	0.1912	0.8584	0.6068	-0.274
Mof_C 	C 	0.1806	0.8524	0.6461	0.024
Mof_C 	C 	0.1883	0.8717	0.6864	-0.042
Mof_C 	C 	0.1863	0.8544	0.7182	0
Mof_C 	C 	0.1946	0.8735	0.756	-0.021
Mof_N 	N 	0.2901	0.0268	0.7588	-0.28
Mof_N 	N 	0.2791	0.0937	0.7764	-0.289
Mof_C 	C 	0.3053	0.0662	0.7595	0.044
Mof_C 	C 	0.2492	0.0273	0.774	0.023
Mof_C 	C 	0.2454	0.07	0.7866	0.065
Mof_C 	C 	0.2048	0.087	0.7952	-0.058
Mof_C 	C 	0.168	0.0614	0.7912	0.017
Mof_C 	C 	0.1719	0.0187	0.7786	0.005
Mof_C 	C 	0.2125	0.0017	0.77	-0.062
Mof_C 	C 	0.1182	0.072	0.7991	-0.008
Mof_C 	C 	0.1283	0.9898	0.774	0.003
Mof_C 	C 	0.21	0.092	0.8305	-0.018
Mof_C 	C 	0.1799	0.031	0.8306	-0.009
Mof_C 	C 	0.2193	0.9901	0.8041	0.01
Mof_Zn	Zn	0.65594	0.20828	0.71571	1.174
Mof_Zn	Zn	0.68601	0.02058	0.7245	1.169
Mof_Zn	Zn	0.74752	0.11631	0.58733	1.192
Mof_N 	N 	0.6694	0.1527	0.744	-0.27
Mof_N 	N 	0.6787	0.0795	0.7504	-0.262
Mof_C 	C 	0.6646	0.1101	0.7266	-0.004
Mof_C 	C 	0.6904	0.1419	0.7802	0.037
Mof_C 	C 	0.7057	0.1726	0.8123	-0.045
Mof_C 	C 	0.7157	0.079	0.8192	-0.041
Mof_C 	C 	0.6967	0.0965	0.7886	0.019
Mof_N 	N 	0.7207	0.0287	0.6742	-0.276
Mof_N 	N 	0.7463	0.0658	0.6236	-0.265
Mof_C 	C 	0.7142	0.0599	0.649	0.036
Mof_C 	C 	0.761	0.0113	0.6673	0.039
Mof_C 	C 	0.7857	0.9793	0.6834	-0.049
Mof_C 	C 	0.8323	0.9731	0.669	0.019
Mof_C 	C 	0.855	0.001	0.638	-0.01
Mof_C 	C 	0.8262	0.0236	0.6203	-0.025
Mof_C 	C 	0.7838	0.0339	0.6345	0.012
Mof_C 	C 	0.8588	0.94	0.6873	-0.006
Mof_C 	C 	0.8983	0.9836	0.6214	0.009
Mof_N 	N 	0.7043	0.1586	0.6118	-0.254
Mof_N 	N 	0.6706	0.1949	0.6593	-0.28
Mof_C 	C 	0.7057	0.1706	0.6494	0.032
Mof_C 	C 	0.66	0.1613	0.5958	0.022
Mof_C 	C 	0.6443	0.1522	0.56	-0.055
Mof_C 	C 	0.599	0.168	0.549	0.003
Mof_C 	C 	0.5804	0.1902	0.5849	0
Mof_C 	C 	0.5983	0.2045	0.6205	-0.036
Mof_C 	C 	0.6391	0.1876	0.6268	0.002
Mof_C 	C 	0.6743	0.2002	0.5916	-0.002
Mof_C 	C 	0.6697	0.2153	0.5531	-0.013
Mof_C 	C 	0.6458	0.253	0.5457	-0.002
Mof_C 	C 	0.6264	0.2747	0.577	0.009
Mof_C 	C 	0.631	0.2596	0.615	-0.038
Mof_C 	C 	0.666	0.221	0.63	0.046
Mof_N 	N 	0.6885	0.259	0.7352	-0.273
Mof_C 	C 	0.6818	0.2823	0.7729	0.031
Mof_C 	C 	0.6573	0.2769	0.8058	-0.052
Mof_C 	C 	0.6641	0.3019	0.8363	0.013
Mof_C 	C 	0.6376	0.2952	0.872	-0.009
Mof_N 	N 	0.7313	0.0952	0.533	-0.273
Mof_C 	C 	0.7078	0.06	0.5235	0.077
Mof_C 	C 	0.6906	0.028	0.541	-0.073
Mof_C 	C 	0.668	0.9995	0.522	0.024
Mof_C 	C 	0.6459	0.963	0.5433	-0.012
Mof_C 	C 	0.7362	0.036	0.529	-0.04
Mof_N 	N 	0.626	0.0023	0.7135	-0.29
Mof_N 	N 	0.5532	0.9963	0.7207	-0.297
Mof_C 	C 	0.5874	0.0149	0.7315	0.035
Mof_C 	C 	0.6133	0.9698	0.6888	0.026
Mof_C 	C 	0.6353	0.9437	0.6624	-0.064
Mof_C 	C 	0.6133	0.9143	0.642	0.006
Mof_C 	C 	0.566	0.91	0.6442	0.011
Mof_C 	C 	0.5461	0.9408	0.6742	-0.092
Mof_C 	C 	0.5669	0.9682	0.6937	0.072
Mof_C 	C 	0.541	0.8764	0.6198	-0.02
Mof_N 	N 	0.7997	0.1474	0.5719	-0.268
Mof_C 	C 	0.832	0.1338	0.545	-0.05
Mof_C 	C 	0.8364	0.0967	0.5209	-0.006
Mof_C 	C 	0.8802	0.052	0.4724	-0.01
Mof_N 	N 	0.8088	0.1416	0.6068	-0.274
Mof_C 	C 	0.8194	0.1476	0.6461	0.024
Mof_C 	C 	0.8117	0.1283	0.6864	-0.043
Mof_C 	C 	0.8137	0.1456	0.7182	0.001
Mof_C 	C 	0.8054	0.1265	0.756	-0.022
Mof_N 	N 	0.7099	0.9732	0.7588	-0.275
Mof_N 	N 	0.7209	0.9063	0.7764	-0.289
Mof_C 	C 	0.6947	0.9338	0.7595	0.047
Mof_C 	C 	0.7508	0.9727	0.774	0.025
Mof_C 	C 	0.7546	0.93	0.7866	0.065
Mof_C 	C 	0.7952	0.913	0.7952	-0.057
Mof_C 	C 	0.832	0.9386	0.7912	0.012
Mof_C 	C 	0.8281	0.9813	0.7786	0.014
Mof_C 	C 	0.7875	0.9983	0.77	-0.037
Mof_C 	C 	0.8818	0.928	0.7991	-0.001
Mof_C 	C 	0.8717	0.0102	0.774	-0.012
Mof_C 	C 	0.79	0.908	0.8305	-0.017
Mof_C 	C 	0.8201	0.969	0.8306	0.004
Mof_C 	C 	0.7807	0.0099	0.8041	-0.021
Mof_Zn	Zn	0.20828	0.65594	0.28429	1.174
Mof_Zn	Zn	0.02058	0.68601	0.2755	1.169
Mof_Zn	Zn	0.11631	0.74752	0.41267	1.192
Mof_N 	N 	0.1527	0.6694	0.256	-0.27
Mof_N 	N 	0.0795	0.6787	0.2496	-0.262
Mof_C 	C 	0.1101	0.6646	0.2734	-0.004
Mof_C 	C 	0.1419	0.6904	0.2198	0.037
Mof_C 	C 	0.1726	0.7057	0.1877	-0.045
Mof_C 	C 	0.079	0.7157	0.1808	-0.041
Mof_C 	C 	0.0965	0.6967	0.2114	0.019
Mof_N 	N 	0.0287	0.7207	0.3258	-0.276
Mof_N 	N 	0.0658	0.7463	0.3764	-0.265
Mof_C 	C 	0.0599	0.7142	0.351	0.036
Mof_C 	C 	0.0113	0.761	0.3327	0.039
Mof_C 	C 	0.9793	0.7857	0.3166	-0.049
Mof_C 	C 	0.9731	0.8323	0.331	0.019
Mof_C 	C 	0.001	0.855	0.362	-0.01
Mof_C 	C 	0.0236	0.8262	0.3797	-0.025
Mof_C 	C 	0.0339	0.7838	0.3655	0.012
Mof_C 	C 	0.94	0.8588	0.3127	-0.006
Mof_C 	C 	0.9836	0.8983	0.3786	0.009
Mof_N 	N 	0.1586	0.7043	0.3882	-0.254
Mof_N 	N 	0.1949	0.6706	0.3407	-0.28
Mof_C 	C 	0.1706	0.7057	0.3506	0.032
Mof_C 	C 	0.1613	0.66	0.4042	0.022
Mof_C 	C 	0.1522	0.6443	0.44	-0.055
Mof_C 	C 	0.168	0.599	0.451	0.003
Mof_C 	C 	0.1902	0.5804	0.4151	0
Mof_C 	C 	0.2045	0.5983	0.3795	-0.036
Mof_C 	C 	0.1876	0.6391	0.3732	0.002
Mof_C 	C 	0.2002	0.6743	0.4084	-0.002
Mof_C 	C 	0.2153	0.6697	0.4469	-0.013
Mof_C 	C 	0.253	0.6458	0.4543	-0.002
Mof_C 	C 	0.2747	0.6264	0.423	0.009
Mof_C 	C 	0.2596	0.631	0.385	-0.038
Mof_C 	C 	0.221	0.666	0.37	0.046
Mof_N 	N 	0.259	0.6885	0.2648	-0.273
Mof_C 	C 	0.2823	0.6818	0.2271	0.031
Mof_C 	C 	0.2769	0.6573	0.1942	-0.052
Mof_C 	C 	0.3019	0.6641	0.1637	0.013
Mof_C 	C 	0.2952	0.6376	0.128	-0.009
Mof_N 	N 	0.0952	0.7313	0.467	-0.273
Mof_C 	C 	0.06	0.7078	0.4765	0.077
Mof_C 	C 	0.028	0.6906	0.459	-0.073
Mof_C 	C 	0.9995	0.668	0.478	0.024
Mof_C 	C 	0.963	0.6459	0.4567	-0.012
Mof_C 	C 	0.036	0.7362	0.471	-0.04
Mof_N 	N 	0.0023	0.626	0.2865	-0.29
Mof_N 	N 	0.9963	0.5532	0.2793	-0.297
Mof_C 	C 	0.0149	0.5874	0.2685	0.035
Mof_C 	C 	0.9698	0.6133	0.3112	0.026
Mof_C 	C 	0.9437	0.6353	0.3376	-0.064
Mof_C 	C 	0.9143	0.6133	0.358	0.006
Mof_C 	C 	0.91	0.566	0.3558	0.011
Mof_C 	C 	0.9408	0.5461	0.3258	-0.092
Mof_C 	C 	0.9682	0.5669	0.3063	0.072
Mof_C 	C 	0.8764	0.541	0.3802	-0.02
Mof_N 	N 	0.1474	0.7997	0.4281	-0.268
Mof_C 	C 	0.1338	0.832	0.455	-0.05
Mof_C 	C 	0.0967	0.8364	0.4791	-0.006
Mof_C 	C 	0.052	0.8802	0.5276	-0.01
Mof_N 	N 	0.1416	0.8088	0.3932	-0.274
Mof_C 	C 	0.1476	0.8194	0.3539	0.024
Mof_C 	C 	0.1283	0.8117	0.3136	-0.043
Mof_C 	C 	0.1456	0.8137	0.2818	0.001
Mof_C 	C 	0.1265	0.8054	0.244	-0.022
Mof_N 	N 	0.9732	0.7099	0.2412	-0.275
Mof_N 	N 	0.9063	0.7209	0.2236	-0.289
Mof_C 	C 	0.9338	0.6947	0.2405	0.047
Mof_C 	C 	0.9727	0.7508	0.226	0.025
Mof_C 	C 	0.93	0.7546	0.2134	0.065
Mof_C 	C 	0.913	0.7952	0.2048	-0.057
Mof_C 	C 	0.9386	0.832	0.2088	0.012
Mof_C 	C 	0.9813	0.8281	0.2214	0.014
Mof_C 	C 	0.9983	0.7875	0.23	-0.037
Mof_C 	C 	0.928	0.8818	0.2009	-0.001
Mof_C 	C 	0.0102	0.8717	0.226	-0.012
Mof_C 	C 	0.908	0.79	0.1695	-0.017
Mof_C 	C 	0.969	0.8201	0.1694	0.004
Mof_C 	C 	0.0099	0.7807	0.1959	-0.021
Mof_Zn	Zn	0.79172	0.34406	0.28429	1.174
Mof_Zn	Zn	0.97942	0.31399	0.2755	1.172
Mof_Zn	Zn	0.88369	0.25248	0.41267	1.192
Mof_N 	N 	0.8473	0.3306	0.256	-0.27
Mof_N 	N 	0.9205	0.3213	0.2496	-0.261
Mof_C 	C 	0.8899	0.3354	0.2734	-0.004
Mof_C 	C 	0.8581	0.3096	0.2198	0.037
Mof_C 	C 	0.8274	0.2943	0.1877	-0.045
Mof_C 	C 	0.921	0.2843	0.1808	-0.039
Mof_C 	C 	0.9035	0.3033	0.2114	0.019
Mof_N 	N 	0.9713	0.2793	0.3258	-0.276
Mof_N 	N 	0.9342	0.2537	0.3764	-0.265
Mof_C 	C 	0.9401	0.2858	0.351	0.038
Mof_C 	C 	0.9887	0.239	0.3327	0.057
Mof_C 	C 	0.0207	0.2143	0.3166	-0.063
Mof_C 	C 	0.0269	0.1677	0.331	0.004
Mof_C 	C 	0.999	0.145	0.362	0.019
Mof_C 	C 	0.9764	0.1738	0.3797	-0.03
Mof_C 	C 	0.9661	0.2162	0.3655	0.014
Mof_C 	C 	0.06	0.1412	0.3127	-0.006
Mof_C 	C 	0.0164	0.1017	0.3786	-0.015
Mof_N 	N 	0.8414	0.2957	0.3882	-0.254
Mof_N 	N 	0.8051	0.3294	0.3407	-0.28
Mof_C 	C 	0.8294	0.2943	0.3506	0.032
Mof_C 	C 	0.8387	0.34	0.4042	0.022
Mof_C 	C 	0.8478	0.3557	0.44	-0.054
Mof_C 	C 	0.832	0.401	0.451	0.004
Mof_C 	C 	0.8098	0.4196	0.4151	0.001
Mof_C 	C 	0.7955	0.4017	0.3795	-0.035
Mof_C 	C 	0.8124	0.3609	0.3732	0.002
Mof_C 	C 	0.7998	0.3257	0.4084	-0.002
Mof_C 	C 	0.7847	0.3303	0.4469	-0.013
Mof_C 	C 	0.747	0.3542	0.4543	-0.002
Mof_C 	C 	0.7253	0.3736	0.423	0.009
Mof_C 	C 	0.7404	0.369	0.385	-0.038
Mof_C 	C 	0.779	0.334	0.37	0.046
Mof_N 	N 	0.741	0.3115	0.2648	-0.273
Mof_C 	C 	0.7177	0.3182	0.2271	0.031
Mof_C 	C 	0.7231	0.3427	0.1942	-0.052
Mof_C 	C 	0.6981	0.3359	0.1637	0.013
Mof_C 	C 	0.7048	0.3624	0.128	-0.009
Mof_N 	N 	0.9048	0.2687	0.467	-0.272
Mof_C 	C 	0.94	0.2922	0.4765	0.072
Mof_C 	C 	0.972	0.3094	0.459	-0.051
Mof_C 	C 	0.0005	0.332	0.478	0.006
Mof_C 	C 	0.037	0.3541	0.4567	-0.014
Mof_C 	C 	0.964	0.2638	0.471	-0.037
Mof_N 	N 	0.9977	0.374	0.2865	-0.282
Mof_N 	N 	0.0037	0.4468	0.2793	-0.31
Mof_C 	C 	0.9851	0.4126	0.2685	0.051
Mof_C 	C 	0.0302	0.3867	0.3112	0.011
Mof_C 	C 	0.0563	0.3647	0.3376	-0.063
Mof_C 	C 	0.0857	0.3867	0.358	0.004
Mof_C 	C 	0.09	0.434	0.3558	0.011
Mof_C 	C 	0.0592	0.4539	0.3258	-0.096
Mof_C 	C 	0.0318	0.4331	0.3063	0.074
Mof_C 	C 	0.1236	0.459	0.3802	-0.022
Mof_N 	N 	0.8526	0.2003	0.4281	-0.267
Mof_C 	C 	0.8662	0.168	0.455	-0.051
Mof_C 	C 	0.9033	0.1636	0.4791	-0.005
Mof_C 	C 	0.948	0.1198	0.5276	-0.007
Mof_N 	N 	0.8584	0.1912	0.3932	-0.274
Mof_C 	C 	0.8524	0.1806	0.3539	0.024
Mof_C 	C 	0.8717	0.1883	0.3136	-0.042
Mof_C 	C 	0.8544	0.1863	0.2818	0
Mof_C 	C 	0.8735	0.1946	0.244	-0.021
Mof_N 	N 	0.0268	0.2901	0.2412	-0.28
Mof_N 	N 	0.0937	0.2791	0.2236	-0.289
Mof_C 	C 	0.0662	0.3053	0.2405	0.044
Mof_C 	C 	0.0273	0.2492	0.226	0.023
Mof_C 	C 	0.07	0.2454	0.2134	0.065
Mof_C 	C 	0.087	0.2048	0.2048	-0.058
Mof_C 	C 	0.0614	0.168	0.2088	0.017
Mof_C 	C 	0.0187	0.1719	0.2214	0.006
Mof_C 	C 	0.0017	0.2125	0.23	-0.062
Mof_C 	C 	0.072	0.1182	0.2009	-0.008
Mof_C 	C 	0.9898	0.1283	0.226	0.003
Mof_C 	C 	0.092	0.21	0.1695	-0.018
Mof_C 	C 	0.031	0.1799	0.1694	-0.009
Mof_C 	C 	0.9901	0.2193	0.1959	0.01
Mof_Zn	Zn	0.15594	0.29172	0.78429	1.174
Mof_Zn	Zn	0.18601	0.47942	0.7755	1.171
Mof_Zn	Zn	0.24752	0.38369	0.91267	1.192
Mof_N 	N 	0.1694	0.3473	0.756	-0.271
Mof_N 	N 	0.1787	0.4205	0.7496	-0.262
Mof_C 	C 	0.1646	0.3899	0.7734	-0.004
Mof_C 	C 	0.1904	0.3581	0.7198	0.037
Mof_C 	C 	0.2057	0.3274	0.6877	-0.045
Mof_C 	C 	0.2157	0.421	0.6808	-0.04
Mof_C 	C 	0.1967	0.4035	0.7114	0.019
Mof_N 	N 	0.2207	0.4713	0.8258	-0.276
Mof_N 	N 	0.2463	0.4342	0.8764	-0.265
Mof_C 	C 	0.2142	0.4401	0.851	0.037
Mof_C 	C 	0.261	0.4887	0.8327	0.048
Mof_C 	C 	0.2857	0.5207	0.8166	-0.056
Mof_C 	C 	0.3323	0.5269	0.831	0.011
Mof_C 	C 	0.355	0.499	0.862	0.004
Mof_C 	C 	0.3262	0.4764	0.8797	-0.028
Mof_C 	C 	0.2838	0.4661	0.8655	0.013
Mof_C 	C 	0.3588	0.56	0.8127	-0.006
Mof_C 	C 	0.3983	0.5164	0.8786	-0.004
Mof_N 	N 	0.2043	0.3414	0.8882	-0.254
Mof_N 	N 	0.1706	0.3051	0.8407	-0.28
Mof_C 	C 	0.2057	0.3294	0.8506	0.032
Mof_C 	C 	0.16	0.3387	0.9042	0.022
Mof_C 	C 	0.1443	0.3478	0.94	-0.054
Mof_C 	C 	0.099	0.332	0.951	0.002
Mof_C 	C 	0.0804	0.3098	0.9151	-0.001
Mof_C 	C 	0.0983	0.2955	0.8795	-0.036
Mof_C 	C 	0.1391	0.3124	0.8732	0.002
Mof_C 	C 	0.1743	0.2998	0.9084	-0.002
Mof_C 	C 	0.1697	0.2847	0.9469	-0.013
Mof_C 	C 	0.1458	0.247	0.9543	-0.001
Mof_C 	C 	0.1264	0.2253	0.923	0.008
Mof_C 	C 	0.131	0.2404	0.885	-0.038
Mof_C 	C 	0.166	0.279	0.87	0.046
Mof_N 	N 	0.1885	0.241	0.7648	-0.273
Mof_C 	C 	0.1818	0.2177	0.7271	0.031
Mof_C 	C 	0.1573	0.2231	0.6942	-0.052
Mof_C 	C 	0.1641	0.1981	0.6637	0.013
Mof_C 	C 	0.1376	0.2048	0.628	-0.01
Mof_N 	N 	0.2313	0.4048	0.967	-0.272
Mof_C 	C 	0.2078	0.44	0.9765	0.075
Mof_C 	C 	0.1906	0.472	0.959	-0.063
Mof_C 	C 	0.168	0.5005	0.978	0.016
Mof_C 	C 	0.1459	0.537	0.9567	-0.014
Mof_C 	C 	0.2362	0.464	0.971	-0.038
Mof_N 	N 	0.126	0.4977	0.7865	-0.286
Mof_N 	N 	0.0532	0.5037	0.7793	-0.305
Mof_C 	C 	0.0874	0.4851	0.7685	0.042
Mof_C 	C 	0.1133	0.5302	0.8112	0.018
Mof_C 	C 	0.1353	0.5563	0.8376	-0.063
Mof_C 	C 	0.1133	0.5857	0.858	0.004
Mof_C 	C 	0.066	0.59	0.8558	0.011
Mof_C 	C 	0.0461	0.5592	0.8258	-0.097
Mof_C 	C 	0.0669	0.5318	0.8063	0.074
Mof_C 	C 	0.041	0.6236	0.8802	-0.025
Mof_N 	N 	0.2997	0.3526	0.9281	-0.267
Mof_C 	C 	0.332	0.3662	0.955	-0.051
Mof_C 	C 	0.3364	0.4033	0.9791	-0.005
Mof_C 	C 	0.3802	0.448	0.0276	-0.009
Mof_N 	N 	0.3088	0.3584	0.8932	-0.274
Mof_C 	C 	0.3194	0.3524	0.8539	0.024
Mof_C 	C 	0.3117	0.3717	0.8136	-0.043
Mof_C 	C 	0.3137	0.3544	0.7818	0
Mof_C 	C 	0.3054	0.3735	0.744	-0.022
Mof_N 	N 	0.2099	0.5268	0.7412	-0.278
Mof_N 	N 	0.2209	0.5937	0.7236	-0.289
Mof_C 	C 	0.1947	0.5662	0.7405	0.045
Mof_C 	C 	0.2508	0.5273	0.726	0.024
Mof_C 	C 	0.2546	0.57	0.7134	0.065
Mof_C 	C 	0.2952	0.587	0.7048	-0.057
Mof_C 	C 	0.332	0.5614	0.7088	0.014
Mof_C 	C 	0.3281	0.5187	0.7214	0.01
Mof_C 	C 	0.2875	0.5017	0.73	-0.05
Mof_C 	C 	0.3818	0.572	0.7009	-0.005
Mof_C 	C 	0.3717	0.4898	0.726	-0.004
Mof_C 	C 	0.29	0.592	0.6695	-0.018
Mof_C 	C 	0.3201	0.531	0.6694	-0.003
Mof_C 	C 	0.2807	0.4901	0.6959	-0.005
Mof_Zn	Zn	0.84406	0.70828	0.78429	1.174
Mof_Zn	Zn	0.81399	0.52058	0.7755	1.171
Mof_Zn	Zn	0.75248	0.61631	0.91267	1.192
Mof_N 	N 	0.8306	0.6527	0.756	-0.27
Mof_N 	N 	0.8213	0.5795	0.7496	-0.262
Mof_C 	C 	0.8354	0.6101	0.7734	-0.003
Mof_C 	C 	0.8096	0.6419	0.7198	0.037
Mof_C 	C 	0.7943	0.6726	0.6877	-0.045
Mof_C 	C 	0.7843	0.579	0.6808	-0.04
Mof_C 	C 	0.8033	0.5965	0.7114	0.019
Mof_N 	N 	0.7793	0.5287	0.8258	-0.276
Mof_N 	N 	0.7537	0.5658	0.8764	-0.265
Mof_C 	C 	0.7858	0.5599	0.851	0.037
Mof_C 	C 	0.739	0.5113	0.8327	0.048
Mof_C 	C 	0.7143	0.4793	0.8166	-0.056
Mof_C 	C 	0.6677	0.4731	0.831	0.011
Mof_C 	C 	0.645	0.501	0.862	0.004
Mof_C 	C 	0.6738	0.5236	0.8797	-0.028
Mof_C 	C 	0.7162	0.5339	0.8655	0.013
Mof_C 	C 	0.6412	0.44	0.8127	-0.006
Mof_C 	C 	0.6017	0.4836	0.8786	-0.004
Mof_N 	N 	0.7957	0.6586	0.8882	-0.254
Mof_N 	N 	0.8294	0.6949	0.8407	-0.28
Mof_C 	C 	0.7943	0.6706	0.8506	0.032
Mof_C 	C 	0.84	0.6613	0.9042	0.023
Mof_C 	C 	0.8557	0.6522	0.94	-0.054
Mof_C 	C 	0.901	0.668	0.951	0.005
Mof_C 	C 	0.9196	0.6902	0.9151	0.002
Mof_C 	C 	0.9017	0.7045	0.8795	-0.035
Mof_C 	C 	0.8609	0.6876	0.8732	0.002
Mof_C 	C 	0.8257	0.7002	0.9084	-0.002
Mof_C 	C 	0.8303	0.7153	0.9469	-0.013
Mof_C 	C 	0.8542	0.753	0.9543	-0.001
Mof_C 	C 	0.8736	0.7747	0.923	0.01
Mof_C 	C 	0.869	0.7596	0.885	-0.038
Mof_C 	C 	0.834	0.721	0.87	0.046
Mof_N 	N 	0.8115	0.759	0.7648	-0.273
Mof_C 	C 	0.8182	0.7823	0.7271	0.031
Mof_C 	C 	0.8427	0.7769	0.6942	-0.052
Mof_C 	C 	0.8359	0.8019	0.6637	0.013
Mof_C 	C 	0.8624	0.7952	0.628	-0.008
Mof_N 	N 	0.7687	0.5952	0.967	-0.272
Mof_C 	C 	0.7922	0.56	0.9765	0.075
Mof_C 	C 	0.8094	0.528	0.959	-0.062
Mof_C 	C 	0.832	0.4995	0.978	0.016
Mof_C 	C 	0.8541	0.463	0.9567	-0.012
Mof_C 	C 	0.7638	0.536	0.971	-0.038
Mof_N 	N 	0.874	0.5023	0.7865	-0.286
Mof_N 	N 	0.9468	0.4963	0.7793	-0.302
Mof_C 	C 	0.9126	0.5149	0.7685	0.044
Mof_C 	C 	0.8867	0.4698	0.8112	0.019
Mof_C 	C 	0.8647	0.4437	0.8376	-0.064
Mof_C 	C 	0.8867	0.4143	0.858	0.006
Mof_C 	C 	0.934	0.41	0.8558	0.01
Mof_C 	C 	0.9539	0.4408	0.8258	-0.091
Mof_C 	C 	0.9331	0.4682	0.8063	0.073
Mof_C 	C 	0.959	0.3764	0.8802	-0.018
Mof_N 	N 	0.7003	0.6474	0.9281	-0.267
Mof_C 	C 	0.668	0.6338	0.955	-0.051
Mof_C 	C 	0.6636	0.5967	0.9791	-0.005
Mof_C 	C 	0.6198	0.552	0.0276	-0.009
Mof_N 	N 	0.6912	0.6416	0.8932	-0.274
Mof_C 	C 	0.6806	0.6476	0.8539	0.024
Mof_C 	C 	0.6883	0.6283	0.8136	-0.043
Mof_C 	C 	0.6863	0.6456	0.7818	0
Mof_C 	C 	0.6946	0.6265	0.744	-0.022
Mof_N 	N 	0.7901	0.4732	0.7412	-0.278
Mof_N 	N 	0.7791	0.4063	0.7236	-0.289
Mof_C 	C 	0.8053	0.4338	0.7405	0.045
Mof_C 	C 	0.7492	0.4727	0.726	0.024
Mof_C 	C 	0.7454	0.43	0.7134	0.065
Mof_C 	C 	0.7048	0.413	0.7048	-0.057
Mof_C 	C 	0.668	0.4386	0.7088	0.014
Mof_C 	C 	0.6719	0.4813	0.7214	0.01
Mof_C 	C 	0.7125	0.4983	0.73	-0.05
Mof_C 	C 	0.6182	0.428	0.7009	-0.005
Mof_C 	C 	0.6283	0.5102	0.726	-0.004
Mof_C 	C 	0.71	0.408	0.6695	-0.018
Mof_C 	C 	0.6799	0.469	0.6694	-0.003
Mof_C 	C 	0.7193	0.5099	0.6959	-0.005
Mof_Zn	Zn	0.70828	0.84406	0.78429	1.174
Mof_Zn	Zn	0.52058	0.81399	0.7755	1.171
Mof_Zn	Zn	0.61631	0.75248	0.91267	1.192
Mof_N 	N 	0.6527	0.8306	0.756	-0.27
Mof_N 	N 	0.5795	0.8213	0.7496	-0.262
Mof_C 	C 	0.6101	0.8354	0.7734	-0.003
Mof_C 	C 	0.6419	0.8096	0.7198	0.037
Mof_C 	C 	0.6726	0.7943	0.6877	-0.045
Mof_C 	C 	0.579	0.7843	0.6808	-0.04
Mof_C 	C 	0.5965	0.8033	0.7114	0.019
Mof_N 	N 	0.5287	0.7793	0.8258	-0.276
Mof_N 	N 	0.5658	0.7537	0.8764	-0.265
Mof_C 	C 	0.5599	0.7858	0.851	0.037
Mof_C 	C 	0.5113	0.739	0.8327	0.048
Mof_C 	C 	0.4793	0.7143	0.8166	-0.056
Mof_C 	C 	0.4731	0.6677	0.831	0.011
Mof_C 	C 	0.501	0.645	0.862	0.004
Mof_C 	C 	0.5236	0.6738	0.8797	-0.028
Mof_C 	C 	0.5339	0.7162	0.8655	0.013
Mof_C 	C 	0.44	0.6412	0.8127	-0.006
Mof_C 	C 	0.4836	0.6017	0.8786	-0.004
Mof_N 	N 	0.6586	0.7957	0.8882	-0.254
Mof_N 	N 	0.6949	0.8294	0.8407	-0.28
Mof_C 	C 	0.6706	0.7943	0.8506	0.032
Mof_C 	C 	0.6613	0.84	0.9042	0.023
Mof_C 	C 	0.6522	0.8557	0.94	-0.054
Mof_C 	C 	0.668	0.901	0.951	0.005
Mof_C 	C 	0.6902	0.9196	0.9151	0.002
Mof_C 	C 	0.7045	0.9017	0.8795	-0.035
Mof_C 	C 	0.6876	0.8609	0.8732	0.002
Mof_C 	C 	0.7002	0.8257	0.9084	-0.002
Mof_C 	C 	0.7153	0.8303	0.9469	-0.013
Mof_C 	C 	0.753	0.8542	0.9543	-0.001
Mof_C 	C 	0.7747	0.8736	0.923	0.01
Mof_C 	C 	0.7596	0.869	0.885	-0.038
Mof_C 	C 	0.721	0.834	0.87	0.046
Mof_N 	N 	0.759	0.8115	0.7648	-0.273
Mof_C 	C 	0.7823	0.8182	0.7271	0.031
Mof_C 	C 	0.7769	0.8427	0.6942	-0.052
Mof_C 	C 	0.8019	0.8359	0.6637	0.013
Mof_C 	C 	0.7952	0.8624	0.628	-0.008
Mof_N 	N 	0.5952	0.7687	0.967	-0.272
Mof_C 	C 	0.56	0.7922	0.9765	0.075
Mof_C 	C 	0.528	0.8094	0.959	-0.062
Mof_C 	C 	0.4995	0.832	0.978	0.016
Mof_C 	C 	0.463	0.8541	0.9567	-0.012
Mof_C 	C 	0.536	0.7638	0.971	-0.038
Mof_N 	N 	0.5023	0.874	0.7865	-0.286
Mof_N 	N 	0.4963	0.9468	0.7793	-0.302
Mof_C 	C 	0.5149	0.9126	0.7685	0.044
Mof_C 	C 	0.4698	0.8867	0.8112	0.019
Mof_C 	C 	0.4437	0.8647	0.8376	-0.064
Mof_C 	C 	0.4143	0.8867	0.858	0.006
Mof_C 	C 	0.41	0.934	0.8558	0.01
Mof_C 	C 	0.4408	0.9539	0.8258	-0.091
Mof_C 	C 	0.4682	0.9331	0.8063	0.073
Mof_C 	C 	0.3764	0.959	0.8802	-0.018
Mof_N 	N 	0.6474	0.7003	0.9281	-0.267
Mof_C 	C 	0.6338	0.668	0.955	-0.051
Mof_C 	C 	0.5967	0.6636	0.9791	-0.005
Mof_C 	C 	0.552	0.6198	0.0276	-0.009
Mof_N 	N 	0.6416	0.6912	0.8932	-0.274
Mof_C 	C 	0.6476	0.6806	0.8539	0.024
Mof_C 	C 	0.6283	0.6883	0.8136	-0.043
Mof_C 	C 	0.6456	0.6863	0.7818	0
Mof_C 	C 	0.6265	0.6946	0.744	-0.022
Mof_N 	N 	0.4732	0.7901	0.7412	-0.278
Mof_N 	N 	0.4063	0.7791	0.7236	-0.289
Mof_C 	C 	0.4338	0.8053	0.7405	0.045
Mof_C 	C 	0.4727	0.7492	0.726	0.024
Mof_C 	C 	0.43	0.7454	0.7134	0.065
Mof_C 	C 	0.413	0.7048	0.7048	-0.057
Mof_C 	C 	0.4386	0.668	0.7088	0.014
Mof_C 	C 	0.4813	0.6719	0.7214	0.01
Mof_C 	C 	0.4983	0.7125	0.73	-0.05
Mof_C 	C 	0.428	0.6182	0.7009	-0.005
Mof_C 	C 	0.5102	0.6283	0.726	-0.004
Mof_C 	C 	0.408	0.71	0.6695	-0.018
Mof_C 	C 	0.469	0.6799	0.6694	-0.003
Mof_C 	C 	0.5099	0.7193	0.6959	-0.005
Mof_Zn	Zn	0.29172	0.15594	0.78429	1.174
Mof_Zn	Zn	0.47942	0.18601	0.7755	1.171
Mof_Zn	Zn	0.38369	0.24752	0.91267	1.192
Mof_N 	N 	0.3473	0.1694	0.756	-0.271
Mof_N 	N 	0.4205	0.1787	0.7496	-0.262
Mof_C 	C 	0.3899	0.1646	0.7734	-0.004
Mof_C 	C 	0.3581	0.1904	0.7198	0.037
Mof_C 	C 	0.3274	0.2057	0.6877	-0.045
Mof_C 	C 	0.421	0.2157	0.6808	-0.04
Mof_C 	C 	0.4035	0.1967	0.7114	0.019
Mof_N 	N 	0.4713	0.2207	0.8258	-0.276
Mof_N 	N 	0.4342	0.2463	0.8764	-0.265
Mof_C 	C 	0.4401	0.2142	0.851	0.037
Mof_C 	C 	0.4887	0.261	0.8327	0.048
Mof_C 	C 	0.5207	0.2857	0.8166	-0.056
Mof_C 	C 	0.5269	0.3323	0.831	0.011
Mof_C 	C 	0.499	0.355	0.862	0.004
Mof_C 	C 	0.4764	0.3262	0.8797	-0.028
Mof_C 	C 	0.4661	0.2838	0.8655	0.013
Mof_C 	C 	0.56	0.3588	0.8127	-0.006
Mof_C 	C 	0.5164	0.3983	0.8786	-0.004
Mof_N 	N 	0.3414	0.2043	0.8882	-0.254
Mof_N 	N 	0.3051	0.1706	0.8407	-0.28
Mof_C 	C 	0.3294	0.2057	0.8506	0.032
Mof_C 	C 	0.3387	0.16	0.9042	0.022
Mof_C 	C 	0.3478	0.1443	0.94	-0.054
Mof_C 	C 	0.332	0.099	0.951	0.002
Mof_C 	C 	0.3098	0.0804	0.9151	-0.001
Mof_C 	C 	0.2955	0.0983	0.8795	-0.036
Mof_C 	C 	0.3124	0.1391	0.8732	0.002
Mof_C 	C 	0.2998	0.1743	0.9084	-0.002
Mof_C 	C 	0.2847	0.1697	0.9469	-0.013
Mof_C 	C 	0.247	0.1458	0.9543	-0.001
Mof_C 	C 	0.2253	0.1264	0.923	0.008
Mof_C 	C 	0.2404	0.131	0.885	-0.038
Mof_C 	C 	0.279	0.166	0.87	0.046
Mof_N 	N 	0.241	0.1885	0.7648	-0.273
Mof_C 	C 	0.2177	0.1818	0.7271	0.031
Mof_C 	C 	0.2231	0.1573	0.6942	-0.052
Mof_C 	C 	0.1981	0.1641	0.6637	0.013
Mof_C 	C 	0.2048	0.1376	0.628	-0.01
Mof_N 	N 	0.4048	0.2313	0.967	-0.272
Mof_C 	C 	0.44	0.2078	0.9765	0.075
Mof_C 	C 	0.472	0.1906	0.959	-0.063
Mof_C 	C 	0.5005	0.168	0.978	0.016
Mof_C 	C 	0.537	0.1459	0.9567	-0.014
Mof_C 	C 	0.464	0.2362	0.971	-0.038
Mof_N 	N 	0.4977	0.126	0.7865	-0.286
Mof_N 	N 	0.5037	0.0532	0.7793	-0.305
Mof_C 	C 	0.4851	0.0874	0.7685	0.042
Mof_C 	C 	0.5302	0.1133	0.8112	0.018
Mof_C 	C 	0.5563	0.1353	0.8376	-0.063
Mof_C 	C 	0.5857	0.1133	0.858	0.004
Mof_C 	C 	0.59	0.066	0.8558	0.011
Mof_C 	C 	0.5592	0.0461	0.8258	-0.097
Mof_C 	C 	0.5318	0.0669	0.8063	0.074
Mof_C 	C 	0.6236	0.041	0.8802	-0.025
Mof_N 	N 	0.3526	0.2997	0.9281	-0.267
Mof_C 	C 	0.3662	0.332	0.955	-0.051
Mof_C 	C 	0.4033	0.3364	0.9791	-0.005
Mof_C 	C 	0.448	0.3802	0.0276	-0.009
Mof_N 	N 	0.3584	0.3088	0.8932	-0.274
Mof_C 	C 	0.3524	0.3194	0.8539	0.024
Mof_C 	C 	0.3717	0.3117	0.8136	-0.043
Mof_C 	C 	0.3544	0.3137	0.7818	0
Mof_C 	C 	0.3735	0.3054	0.744	-0.022
Mof_N 	N 	0.5268	0.2099	0.7412	-0.278
Mof_N 	N 	0.5937	0.2209	0.7236	-0.289
Mof_C 	C 	0.5662	0.1947	0.7405	0.045
Mof_C 	C 	0.5273	0.2508	0.726	0.024
Mof_C 	C 	0.57	0.2546	0.7134	0.065
Mof_C 	C 	0.587	0.2952	0.7048	-0.057
Mof_C 	C 	0.5614	0.332	0.7088	0.014
Mof_C 	C 	0.5187	0.3281	0.7214	0.01
Mof_C 	C 	0.5017	0.2875	0.73	-0.05
Mof_C 	C 	0.572	0.3818	0.7009	-0.005
Mof_C 	C 	0.4898	0.3717	0.726	-0.004
Mof_C 	C 	0.592	0.29	0.6695	-0.018
Mof_C 	C 	0.531	0.3201	0.6694	-0.003
Mof_C 	C 	0.4901	0.2807	0.6959	-0.005
Mof_Zn	Zn	0.65594	0.20828	0.28429	1.174
Mof_Zn	Zn	0.68601	0.02058	0.2755	1.169
Mof_Zn	Zn	0.74752	0.11631	0.41267	1.192
Mof_N 	N 	0.6694	0.1527	0.256	-0.27
Mof_N 	N 	0.6787	0.0795	0.2496	-0.262
Mof_C 	C 	0.6646	0.1101	0.2734	-0.004
Mof_C 	C 	0.6904	0.1419	0.2198	0.037
Mof_C 	C 	0.7057	0.1726	0.1877	-0.045
Mof_C 	C 	0.7157	0.079	0.1808	-0.041
Mof_C 	C 	0.6967	0.0965	0.2114	0.019
Mof_N 	N 	0.7207	0.0287	0.3258	-0.276
Mof_N 	N 	0.7463	0.0658	0.3764	-0.265
Mof_C 	C 	0.7142	0.0599	0.351	0.036
Mof_C 	C 	0.761	0.0113	0.3327	0.039
Mof_C 	C 	0.7857	0.9793	0.3166	-0.049
Mof_C 	C 	0.8323	0.9731	0.331	0.019
Mof_C 	C 	0.855	0.001	0.362	-0.01
Mof_C 	C 	0.8262	0.0236	0.3797	-0.025
Mof_C 	C 	0.7838	0.0339	0.3655	0.012
Mof_C 	C 	0.8588	0.94	0.3127	-0.006
Mof_C 	C 	0.8983	0.9836	0.3786	0.009
Mof_N 	N 	0.7043	0.1586	0.3882	-0.254
Mof_N 	N 	0.6706	0.1949	0.3407	-0.28
Mof_C 	C 	0.7057	0.1706	0.3506	0.032
Mof_C 	C 	0.66	0.1613	0.4042	0.022
Mof_C 	C 	0.6443	0.1522	0.44	-0.055
Mof_C 	C 	0.599	0.168	0.451	0.003
Mof_C 	C 	0.5804	0.1902	0.4151	0
Mof_C 	C 	0.5983	0.2045	0.3795	-0.036
Mof_C 	C 	0.6391	0.1876	0.3732	0.002
Mof_C 	C 	0.6743	0.2002	0.4084	-0.002
Mof_C 	C 	0.6697	0.2153	0.4469	-0.013
Mof_C 	C 	0.6458	0.253	0.4543	-0.002
Mof_C 	C 	0.6264	0.2747	0.423	0.009
Mof_C 	C 	0.631	0.2596	0.385	-0.038
Mof_C 	C 	0.666	0.221	0.37	0.046
Mof_N 	N 	0.6885	0.259	0.2648	-0.273
Mof_C 	C 	0.6818	0.2823	0.2271	0.031
Mof_C 	C 	0.6573	0.2769	0.1942	-0.052
Mof_C 	C 	0.6641	0.3019	0.1637	0.013
Mof_C 	C 	0.6376	0.2952	0.128	-0.009
Mof_N 	N 	0.7313	0.0952	0.467	-0.273
Mof_C 	C 	0.7078	0.06	0.4765	0.077
Mof_C 	C 	0.6906	0.028	0.459	-0.073
Mof_C 	C 	0.668	0.9995	0.478	0.024
Mof_C 	C 	0.6459	0.963	0.4567	-0.012
Mof_C 	C 	0.7362	0.036	0.471	-0.04
Mof_N 	N 	0.626	0.0023	0.2865	-0.29
Mof_N 	N 	0.5532	0.9963	0.2793	-0.297
Mof_C 	C 	0.5874	0.0149	0.2685	0.035
Mof_C 	C 	0.6133	0.9698	0.3112	0.026
Mof_C 	C 	0.6353	0.9437	0.3376	-0.064
Mof_C 	C 	0.6133	0.9143	0.358	0.006
Mof_C 	C 	0.566	0.91	0.3558	0.011
Mof_C 	C 	0.5461	0.9408	0.3258	-0.092
Mof_C 	C 	0.5669	0.9682	0.3063	0.072
Mof_C 	C 	0.541	0.8764	0.3802	-0.02
Mof_N 	N 	0.7997	0.1474	0.4281	-0.268
Mof_C 	C 	0.832	0.1338	0.455	-0.05
Mof_C 	C 	0.8364	0.0967	0.4791	-0.006
Mof_C 	C 	0.8802	0.052	0.5276	-0.01
Mof_N 	N 	0.8088	0.1416	0.3932	-0.274
Mof_C 	C 	0.8194	0.1476	0.3539	0.024
Mof_C 	C 	0.8117	0.1283	0.3136	-0.043
Mof_C 	C 	0.8137	0.1456	0.2818	0.001
Mof_C 	C 	0.8054	0.1265	0.244	-0.022
Mof_N 	N 	0.7099	0.9732	0.2412	-0.275
Mof_N 	N 	0.7209	0.9063	0.2236	-0.289
Mof_C 	C 	0.6947	0.9338	0.2405	0.047
Mof_C 	C 	0.7508	0.9727	0.226	0.025
Mof_C 	C 	0.7546	0.93	0.2134	0.065
Mof_C 	C 	0.7952	0.913	0.2048	-0.057
Mof_C 	C 	0.832	0.9386	0.2088	0.012
Mof_C 	C 	0.8281	0.9813	0.2214	0.014
Mof_C 	C 	0.7875	0.9983	0.23	-0.037
Mof_C 	C 	0.8818	0.928	0.2009	-0.001
Mof_C 	C 	0.8717	0.0102	0.226	-0.012
Mof_C 	C 	0.79	0.908	0.1695	-0.017
Mof_C 	C 	0.8201	0.969	0.1694	0.004
Mof_C 	C 	0.7807	0.0099	0.1959	-0.021
Mof_Zn	Zn	0.34406	0.79172	0.28429	1.174
Mof_Zn	Zn	0.31399	0.97942	0.2755	1.172
Mof_Zn	Zn	0.25248	0.88369	0.41267	1.192
Mof_N 	N 	0.3306	0.8473	0.256	-0.27
Mof_N 	N 	0.3213	0.9205	0.2496	-0.261
Mof_C 	C 	0.3354	0.8899	0.2734	-0.004
Mof_C 	C 	0.3096	0.8581	0.2198	0.037
Mof_C 	C 	0.2943	0.8274	0.1877	-0.045
Mof_C 	C 	0.2843	0.921	0.1808	-0.039
Mof_C 	C 	0.3033	0.9035	0.2114	0.019
Mof_N 	N 	0.2793	0.9713	0.3258	-0.276
Mof_N 	N 	0.2537	0.9342	0.3764	-0.265
Mof_C 	C 	0.2858	0.9401	0.351	0.038
Mof_C 	C 	0.239	0.9887	0.3327	0.057
Mof_C 	C 	0.2143	0.0207	0.3166	-0.063
Mof_C 	C 	0.1677	0.0269	0.331	0.004
Mof_C 	C 	0.145	0.999	0.362	0.019
Mof_C 	C 	0.1738	0.9764	0.3797	-0.03
Mof_C 	C 	0.2162	0.9661	0.3655	0.014
Mof_C 	C 	0.1412	0.06	0.3127	-0.006
Mof_C 	C 	0.1017	0.0164	0.3786	-0.015
Mof_N 	N 	0.2957	0.8414	0.3882	-0.254
Mof_N 	N 	0.3294	0.8051	0.3407	-0.28
Mof_C 	C 	0.2943	0.8294	0.3506	0.032
Mof_C 	C 	0.34	0.8387	0.4042	0.022
Mof_C 	C 	0.3557	0.8478	0.44	-0.054
Mof_C 	C 	0.401	0.832	0.451	0.004
Mof_C 	C 	0.4196	0.8098	0.4151	0.001
Mof_C 	C 	0.4017	0.7955	0.3795	-0.035
Mof_C 	C 	0.3609	0.8124	0.3732	0.002
Mof_C 	C 	0.3257	0.7998	0.4084	-0.002
Mof_C 	C 	0.3303	0.7847	0.4469	-0.013
Mof_C 	C 	0.3542	0.747	0.4543	-0.002
Mof_C 	C 	0.3736	0.7253	0.423	0.009
Mof_C 	C 	0.369	0.7404	0.385	-0.038
Mof_C 	C 	0.334	0.779	0.37	0.046
Mof_N 	N 	0.3115	0.741	0.2648	-0.273
Mof_C 	C 	0.3182	0.7177	0.2271	0.031
Mof_C 	C 	0.3427	0.7231	0.1942	-0.052
Mof_C 	C 	0.3359	0.6981	0.1637	0.013
Mof_C 	C 	0.3624	0.7048	0.128	-0.009
Mof_N 	N 	0.2687	0.9048	0.467	-0.272
Mof_C 	C 	0.2922	0.94	0.4765	0.072
Mof_C 	C 	0.3094	0.972	0.459	-0.051
Mof_C 	C 	0.332	0.0005	0.478	0.006
Mof_C 	C 	0.3541	0.037	0.4567	-0.014
Mof_C 	C 	0.2638	0.964	0.471	-0.037
Mof_N 	N 	0.374	0.9977	0.2865	-0.282
Mof_N 	N 	0.4468	0.0037	0.2793	-0.31
Mof_C 	C 	0.4126	0.9851	0.2685	0.051
Mof_C 	C 	0.3867	0.0302	0.3112	0.011
Mof_C 	C 	0.3647	0.0563	0.3376	-0.063
Mof_C 	C 	0.3867	0.0857	0.358	0.004
Mof_C 	C 	0.434	0.09	0.3558	0.011
Mof_C 	C 	0.4539	0.0592	0.3258	-0.096
Mof_C 	C 	0.4331	0.0318	0.3063	0.074
Mof_C 	C 	0.459	0.1236	0.3802	-0.022
Mof_N 	N 	0.2003	0.8526	0.4281	-0.267
Mof_C 	C 	0.168	0.8662	0.455	-0.051
Mof_C 	C 	0.1636	0.9033	0.4791	-0.005
Mof_C 	C 	0.1198	0.948	0.5276	-0.007
Mof_N 	N 	0.1912	0.8584	0.3932	-0.274
Mof_C 	C 	0.1806	0.8524	0.3539	0.024
Mof_C 	C 	0.1883	0.8717	0.3136	-0.042
Mof_C 	C 	0.1863	0.8544	0.2818	0
Mof_C 	C 	0.1946	0.8735	0.244	-0.021
Mof_N 	N 	0.2901	0.0268	0.2412	-0.28
Mof_N 	N 	0.2791	0.0937	0.2236	-0.289
Mof_C 	C 	0.3053	0.0662	0.2405	0.044
Mof_C 	C 	0.2492	0.0273	0.226	0.023
Mof_C 	C 	0.2454	0.07	0.2134	0.065
Mof_C 	C 	0.2048	0.087	0.2048	-0.058
Mof_C 	C 	0.168	0.0614	0.2088	0.017
Mof_C 	C 	0.1719	0.0187	0.2214	0.006
Mof_C 	C 	0.2125	0.0017	0.23	-0.062
Mof_C 	C 	0.1182	0.072	0.2009	-0.008
Mof_C 	C 	0.1283	0.9898	0.226	0.003
Mof_C 	C 	0.21	0.092	0.1695	-0.018
Mof_C 	C 	0.1799	0.031	0.1694	-0.009
Mof_C 	C 	0.2193	0.9901	0.1959	0.01
Mof_Zn	Zn	0.79172	0.34406	0.71571	1.174
Mof_Zn	Zn	0.97942	0.31399	0.7245	1.172
Mof_Zn	Zn	0.88369	0.25248	0.58733	1.192
Mof_N 	N 	0.8473	0.3306	0.744	-0.27
Mof_N 	N 	0.9205	0.3213	0.7504	-0.261
Mof_C 	C 	0.8899	0.3354	0.7266	-0.004
Mof_C 	C 	0.8581	0.3096	0.7802	0.037
Mof_C 	C 	0.8274	0.2943	0.8123	-0.045
Mof_C 	C 	0.921	0.2843	0.8192	-0.038
Mof_C 	C 	0.9035	0.3033	0.7886	0.019
Mof_N 	N 	0.9713	0.2793	0.6742	-0.276
Mof_N 	N 	0.9342	0.2537	0.6236	-0.265
Mof_C 	C 	0.9401	0.2858	0.649	0.038
Mof_C 	C 	0.9887	0.239	0.6673	0.057
Mof_C 	C 	0.0207	0.2143	0.6834	-0.063
Mof_C 	C 	0.0269	0.1677	0.669	0.004
Mof_C 	C 	0.999	0.145	0.638	0.019
Mof_C 	C 	0.9764	0.1738	0.6203	-0.03
Mof_C 	C 	0.9661	0.2162	0.6345	0.014
Mof_C 	C 	0.06	0.1412	0.6873	-0.006
Mof_C 	C 	0.0164	0.1017	0.6214	-0.015
Mof_N 	N 	0.8414	0.2957	0.6118	-0.254
Mof_N 	N 	0.8051	0.3294	0.6593	-0.28
Mof_C 	C 	0.8294	0.2943	0.6494	0.032
Mof_C 	C 	0.8387	0.34	0.5958	0.022
Mof_C 	C 	0.8478	0.3557	0.56	-0.054
Mof_C 	C 	0.832	0.401	0.549	0.004
Mof_C 	C 	0.8098	0.4196	0.5849	0.001
Mof_C 	C 	0.7955	0.4017	0.6205	-0.035
Mof_C 	C 	0.8124	0.3609	0.6268	0.002
Mof_C 	C 	0.7998	0.3257	0.5916	-0.002
Mof_C 	C 	0.7847	0.3303	0.5531	-0.013
Mof_C 	C 	0.747	0.3542	0.5457	-0.002
Mof_C 	C 	0.7253	0.3736	0.577	0.009
Mof_C 	C 	0.7404	0.369	0.615	-0.038
Mof_C 	C 	0.779	0.334	0.63	0.046
Mof_N 	N 	0.741	0.3115	0.7352	-0.273
Mof_C 	C 	0.7177	0.3182	0.7729	0.031
Mof_C 	C 	0.7231	0.3427	0.8058	-0.052
Mof_C 	C 	0.6981	0.3359	0.8363	0.013
Mof_C 	C 	0.7048	0.3624	0.872	-0.009
Mof_N 	N 	0.9048	0.2687	0.533	-0.272
Mof_C 	C 	0.94	0.2922	0.5235	0.072
Mof_C 	C 	0.972	0.3094	0.541	-0.051
Mof_C 	C 	0.0005	0.332	0.522	0.006
Mof_C 	C 	0.037	0.3541	0.5433	-0.014
Mof_C 	C 	0.964	0.2638	0.529	-0.037
Mof_N 	N 	0.9977	0.374	0.7135	-0.282
Mof_N 	N 	0.0037	0.4468	0.7207	-0.31
Mof_C 	C 	0.9851	0.4126	0.7315	0.051
Mof_C 	C 	0.0302	0.3867	0.6888	0.011
Mof_C 	C 	0.0563	0.3647	0.6624	-0.063
Mof_C 	C 	0.0857	0.3867	0.642	0.004
Mof_C 	C 	0.09	0.434	0.6442	0.011
Mof_C 	C 	0.0592	0.4539	0.6742	-0.096
Mof_C 	C 	0.0318	0.4331	0.6937	0.074
Mof_C 	C 	0.1236	0.459	0.6198	-0.022
Mof_N 	N 	0.8526	0.2003	0.5719	-0.267
Mof_C 	C 	0.8662	0.168	0.545	-0.051
Mof_C 	C 	0.9033	0.1636	0.5209	-0.005
Mof_C 	C 	0.948	0.1198	0.4724	-0.007
Mof_N 	N 	0.8584	0.1912	0.6068	-0.274
Mof_C 	C 	0.8524	0.1806	0.6461	0.024
Mof_C 	C 	0.8717	0.1883	0.6864	-0.042
Mof_C 	C 	0.8544	0.1863	0.7182	0
Mof_C 	C 	0.8735	0.1946	0.756	-0.021
Mof_N 	N 	0.0268	0.2901	0.7588	-0.28
Mof_N 	N 	0.0937	0.2791	0.7764	-0.289
Mof_C 	C 	0.0662	0.3053	0.7595	0.044
Mof_C 	C 	0.0273	0.2492	0.774	0.023
Mof_C 	C 	0.07	0.2454	0.7866	0.065
Mof_C 	C 	0.087	0.2048	0.7952	-0.058
Mof_C 	C 	0.0614	0.168	0.7912	0.017
Mof_C 	C 	0.0187	0.1719	0.7786	0.005
Mof_C 	C 	0.0017	0.2125	0.77	-0.062
Mof_C 	C 	0.072	0.1182	0.7991	-0.008
Mof_C 	C 	0.9898	0.1283	0.774	0.003
Mof_C 	C 	0.092	0.21	0.8305	-0.018
Mof_C 	C 	0.031	0.1799	0.8306	-0.009
Mof_C 	C 	0.9901	0.2193	0.8041	0.01
Mof_Zn	Zn	0.20828	0.65594	0.71571	1.174
Mof_Zn	Zn	0.02058	0.68601	0.7245	1.169
Mof_Zn	Zn	0.11631	0.74752	0.58733	1.192
Mof_N 	N 	0.1527	0.6694	0.744	-0.27
Mof_N 	N 	0.0795	0.6787	0.7504	-0.262
Mof_C 	C 	0.1101	0.6646	0.7266	-0.004
Mof_C 	C 	0.1419	0.6904	0.7802	0.037
Mof_C 	C 	0.1726	0.7057	0.8123	-0.045
Mof_C 	C 	0.079	0.7157	0.8192	-0.041
Mof_C 	C 	0.0965	0.6967	0.7886	0.019
Mof_N 	N 	0.0287	0.7207	0.6742	-0.276
Mof_N 	N 	0.0658	0.7463	0.6236	-0.265
Mof_C 	C 	0.0599	0.7142	0.649	0.036
Mof_C 	C 	0.0113	0.761	0.6673	0.039
Mof_C 	C 	0.9793	0.7857	0.6834	-0.049
Mof_C 	C 	0.9731	0.8323	0.669	0.019
Mof_C 	C 	0.001	0.855	0.638	-0.01
Mof_C 	C 	0.0236	0.8262	0.6203	-0.025
Mof_C 	C 	0.0339	0.7838	0.6345	0.012
Mof_C 	C 	0.94	0.8588	0.6873	-0.006
Mof_C 	C 	0.9836	0.8983	0.6214	0.009
Mof_N 	N 	0.1586	0.7043	0.6118	-0.254
Mof_N 	N 	0.1949	0.6706	0.6593	-0.28
Mof_C 	C 	0.1706	0.7057	0.6494	0.032
Mof_C 	C 	0.1613	0.66	0.5958	0.022
Mof_C 	C 	0.1522	0.6443	0.56	-0.055
Mof_C 	C 	0.168	0.599	0.549	0.003
Mof_C 	C 	0.1902	0.5804	0.5849	0
Mof_C 	C 	0.2045	0.5983	0.6205	-0.036
Mof_C 	C 	0.1876	0.6391	0.6268	0.002
Mof_C 	C 	0.2002	0.6743	0.5916	-0.002
Mof_C 	C 	0.2153	0.6697	0.5531	-0.013
Mof_C 	C 	0.253	0.6458	0.5457	-0.002
Mof_C 	C 	0.2747	0.6264	0.577	0.009
Mof_C 	C 	0.2596	0.631	0.615	-0.038
Mof_C 	C 	0.221	0.666	0.63	0.046
Mof_N 	N 	0.259	0.6885	0.7352	-0.273
Mof_C 	C 	0.2823	0.6818	0.7729	0.031
Mof_C 	C 	0.2769	0.6573	0.8058	-0.052
Mof_C 	C 	0.3019	0.6641	0.8363	0.013
Mof_C 	C 	0.2952	0.6376	0.872	-0.009
Mof_N 	N 	0.0952	0.7313	0.533	-0.273
Mof_C 	C 	0.06	0.7078	0.5235	0.077
Mof_C 	C 	0.028	0.6906	0.541	-0.073
Mof_C 	C 	0.9995	0.668	0.522	0.024
Mof_C 	C 	0.963	0.6459	0.5433	-0.012
Mof_C 	C 	0.036	0.7362	0.529	-0.04
Mof_N 	N 	0.0023	0.626	0.7135	-0.29
Mof_N 	N 	0.9963	0.5532	0.7207	-0.297
Mof_C 	C 	0.0149	0.5874	0.7315	0.035
Mof_C 	C 	0.9698	0.6133	0.6888	0.026
Mof_C 	C 	0.9437	0.6353	0.6624	-0.064
Mof_C 	C 	0.9143	0.6133	0.642	0.006
Mof_C 	C 	0.91	0.566	0.6442	0.011
Mof_C 	C 	0.9408	0.5461	0.6742	-0.092
Mof_C 	C 	0.9682	0.5669	0.6937	0.072
Mof_C 	C 	0.8764	0.541	0.6198	-0.02
Mof_N 	N 	0.1474	0.7997	0.5719	-0.268
Mof_C 	C 	0.1338	0.832	0.545	-0.05
Mof_C 	C 	0.0967	0.8364	0.5209	-0.006
Mof_C 	C 	0.052	0.8802	0.4724	-0.01
Mof_N 	N 	0.1416	0.8088	0.6068	-0.274
Mof_C 	C 	0.1476	0.8194	0.6461	0.024
Mof_C 	C 	0.1283	0.8117	0.6864	-0.043
Mof_C 	C 	0.1456	0.8137	0.7182	0.001
Mof_C 	C 	0.1265	0.8054	0.756	-0.022
Mof_N 	N 	0.9732	0.7099	0.7588	-0.275
Mof_N 	N 	0.9063	0.7209	0.7764	-0.289
Mof_C 	C 	0.9338	0.6947	0.7595	0.047
Mof_C 	C 	0.9727	0.7508	0.774	0.025
Mof_C 	C 	0.93	0.7546	0.7866	0.065
Mof_C 	C 	0.913	0.7952	0.7952	-0.057
Mof_C 	C 	0.9386	0.832	0.7912	0.012
Mof_C 	C 	0.9813	0.8281	0.7786	0.014
Mof_C 	C 	0.9983	0.7875	0.77	-0.037
Mof_C 	C 	0.928	0.8818	0.7991	-0.001
Mof_C 	C 	0.0102	0.8717	0.774	-0.012
Mof_C 	C 	0.908	0.79	0.8305	-0.017
Mof_C 	C 	0.969	0.8201	0.8306	0.004
Mof_C 	C 	0.0099	0.7807	0.8041	-0.021
Mof_Zn	Zn	0.84406	0.70828	0.21571	1.174
Mof_Zn	Zn	0.81399	0.52058	0.2245	1.171
Mof_Zn	Zn	0.75248	0.61631	0.08733	1.192
Mof_N 	N 	0.8306	0.6527	0.244	-0.27
Mof_N 	N 	0.8213	0.5795	0.2504	-0.262
Mof_C 	C 	0.8354	0.6101	0.2266	-0.003
Mof_C 	C 	0.8096	0.6419	0.2802	0.037
Mof_C 	C 	0.7943	0.6726	0.3123	-0.045
Mof_C 	C 	0.7843	0.579	0.3192	-0.04
Mof_C 	C 	0.8033	0.5965	0.2886	0.019
Mof_N 	N 	0.7793	0.5287	0.1742	-0.276
Mof_N 	N 	0.7537	0.5658	0.1236	-0.265
Mof_C 	C 	0.7858	0.5599	0.149	0.037
Mof_C 	C 	0.739	0.5113	0.1673	0.048
Mof_C 	C 	0.7143	0.4793	0.1834	-0.056
Mof_C 	C 	0.6677	0.4731	0.169	0.011
Mof_C 	C 	0.645	0.501	0.138	0.005
Mof_C 	C 	0.6738	0.5236	0.1203	-0.028
Mof_C 	C 	0.7162	0.5339	0.1345	0.013
Mof_C 	C 	0.6412	0.44	0.1873	-0.006
Mof_C 	C 	0.6017	0.4836	0.1214	-0.004
Mof_N 	N 	0.7957	0.6586	0.1118	-0.254
Mof_N 	N 	0.8294	0.6949	0.1593	-0.28
Mof_C 	C 	0.7943	0.6706	0.1494	0.032
Mof_C 	C 	0.84	0.6613	0.0958	0.023
Mof_C 	C 	0.8557	0.6522	0.06	-0.054
Mof_C 	C 	0.901	0.668	0.049	0.004
Mof_C 	C 	0.9196	0.6902	0.0849	0.002
Mof_C 	C 	0.9017	0.7045	0.1205	-0.035
Mof_C 	C 	0.8609	0.6876	0.1268	0.002
Mof_C 	C 	0.8257	0.7002	0.0916	-0.002
Mof_C 	C 	0.8303	0.7153	0.0531	-0.014
Mof_C 	C 	0.8542	0.753	0.0457	-0.002
Mof_C 	C 	0.8736	0.7747	0.077	0.01
Mof_C 	C 	0.869	0.7596	0.115	-0.038
Mof_C 	C 	0.834	0.721	0.13	0.046
Mof_N 	N 	0.8115	0.759	0.2352	-0.273
Mof_C 	C 	0.8182	0.7823	0.2729	0.031
Mof_C 	C 	0.8427	0.7769	0.3058	-0.052
Mof_C 	C 	0.8359	0.8019	0.3363	0.013
Mof_C 	C 	0.8624	0.7952	0.372	-0.008
Mof_N 	N 	0.7687	0.5952	0.033	-0.272
Mof_C 	C 	0.7922	0.56	0.0235	0.074
Mof_C 	C 	0.8094	0.528	0.041	-0.061
Mof_C 	C 	0.832	0.4995	0.022	0.014
Mof_C 	C 	0.8541	0.463	0.0433	-0.012
Mof_C 	C 	0.7638	0.536	0.029	-0.039
Mof_N 	N 	0.874	0.5023	0.2135	-0.286
Mof_N 	N 	0.9468	0.4963	0.2207	-0.302
Mof_C 	C 	0.9126	0.5149	0.2315	0.044
Mof_C 	C 	0.8867	0.4698	0.1888	0.019
Mof_C 	C 	0.8647	0.4437	0.1624	-0.064
Mof_C 	C 	0.8867	0.4143	0.142	0.005
Mof_C 	C 	0.934	0.41	0.1442	0.01
Mof_C 	C 	0.9539	0.4408	0.1742	-0.091
Mof_C 	C 	0.9331	0.4682	0.1937	0.073
Mof_C 	C 	0.959	0.3764	0.1198	-0.018
Mof_N 	N 	0.7003	0.6474	0.0719	-0.268
Mof_C 	C 	0.668	0.6338	0.045	-0.051
Mof_C 	C 	0.6636	0.5967	0.0209	-0.006
Mof_C 	C 	0.6198	0.552	0.9724	-0.008
Mof_N 	N 	0.6912	0.6416	0.1068	-0.274
Mof_C 	C 	0.6806	0.6476	0.1461	0.024
Mof_C 	C 	0.6883	0.6283	0.1864	-0.043
Mof_C 	C 	0.6863	0.6456	0.2182	0
Mof_C 	C 	0.6946	0.6265	0.256	-0.022
Mof_N 	N 	0.7901	0.4732	0.2588	-0.278
Mof_N 	N 	0.7791	0.4063	0.2764	-0.289
Mof_C 	C 	0.8053	0.4338	0.2595	0.045
Mof_C 	C 	0.7492	0.4727	0.274	0.024
Mof_C 	C 	0.7454	0.43	0.2866	0.065
Mof_C 	C 	0.7048	0.413	0.2952	-0.057
Mof_C 	C 	0.668	0.4386	0.2912	0.014
Mof_C 	C 	0.6719	0.4813	0.2786	0.01
Mof_C 	C 	0.7125	0.4983	0.27	-0.05
Mof_C 	C 	0.6182	0.428	0.2991	-0.005
Mof_C 	C 	0.6283	0.5102	0.274	-0.004
Mof_C 	C 	0.71	0.408	0.3305	-0.018
Mof_C 	C 	0.6799	0.469	0.3306	-0.003
Mof_C 	C 	0.7193	0.5099	0.3041	-0.005
Mof_Zn	Zn	0.15594	0.29172	0.21571	1.174
Mof_Zn	Zn	0.18601	0.47942	0.2245	1.171
Mof_Zn	Zn	0.24752	0.38369	0.08733	1.192
Mof_N 	N 	0.1694	0.3473	0.244	-0.271
Mof_N 	N 	0.1787	0.4205	0.2504	-0.262
Mof_C 	C 	0.1646	0.3899	0.2266	-0.004
Mof_C 	C 	0.1904	0.3581	0.2802	0.037
Mof_C 	C 	0.2057	0.3274	0.3123	-0.045
Mof_C 	C 	0.2157	0.421	0.3192	-0.04
Mof_C 	C 	0.1967	0.4035	0.2886	0.019
Mof_N 	N 	0.2207	0.4713	0.1742	-0.276
Mof_N 	N 	0.2463	0.4342	0.1236	-0.265
Mof_C 	C 	0.2142	0.4401	0.149	0.037
Mof_C 	C 	0.261	0.4887	0.1673	0.048
Mof_C 	C 	0.2857	0.5207	0.1834	-0.056
Mof_C 	C 	0.3323	0.5269	0.169	0.011
Mof_C 	C 	0.355	0.499	0.138	0.005
Mof_C 	C 	0.3262	0.4764	0.1203	-0.028
Mof_C 	C 	0.2838	0.4661	0.1345	0.013
Mof_C 	C 	0.3588	0.56	0.1873	-0.006
Mof_C 	C 	0.3983	0.5164	0.1214	-0.004
Mof_N 	N 	0.2043	0.3414	0.1118	-0.254
Mof_N 	N 	0.1706	0.3051	0.1593	-0.28
Mof_C 	C 	0.2057	0.3294	0.1494	0.032
Mof_C 	C 	0.16	0.3387	0.0958	0.022
Mof_C 	C 	0.1443	0.3478	0.06	-0.054
Mof_C 	C 	0.099	0.332	0.049	0.002
Mof_C 	C 	0.0804	0.3098	0.0849	-0.001
Mof_C 	C 	0.0983	0.2955	0.1205	-0.036
Mof_C 	C 	0.1391	0.3124	0.1268	0.002
Mof_C 	C 	0.1743	0.2998	0.0916	-0.002
Mof_C 	C 	0.1697	0.2847	0.0531	-0.014
Mof_C 	C 	0.1458	0.247	0.0457	-0.001
Mof_C 	C 	0.1264	0.2253	0.077	0.008
Mof_C 	C 	0.131	0.2404	0.115	-0.038
Mof_C 	C 	0.166	0.279	0.13	0.046
Mof_N 	N 	0.1885	0.241	0.2352	-0.273
Mof_C 	C 	0.1818	0.2177	0.2729	0.031
Mof_C 	C 	0.1573	0.2231	0.3058	-0.052
Mof_C 	C 	0.1641	0.1981	0.3363	0.013
Mof_C 	C 	0.1376	0.2048	0.372	-0.01
Mof_N 	N 	0.2313	0.4048	0.033	-0.272
Mof_C 	C 	0.2078	0.44	0.0235	0.073
Mof_C 	C 	0.1906	0.472	0.041	-0.062
Mof_C 	C 	0.168	0.5005	0.022	0.014
Mof_C 	C 	0.1459	0.537	0.0433	-0.014
Mof_C 	C 	0.2362	0.464	0.029	-0.038
Mof_N 	N 	0.126	0.4977	0.2135	-0.286
Mof_N 	N 	0.0532	0.5037	0.2207	-0.305
Mof_C 	C 	0.0874	0.4851	0.2315	0.042
Mof_C 	C 	0.1133	0.5302	0.1888	0.018
Mof_C 	C 	0.1353	0.5563	0.1624	-0.063
Mof_C 	C 	0.1133	0.5857	0.142	0.004
Mof_C 	C 	0.066	0.59	0.1442	0.011
Mof_C 	C 	0.0461	0.5592	0.1742	-0.097
Mof_C 	C 	0.0669	0.5318	0.1937	0.074
Mof_C 	C 	0.041	0.6236	0.1198	-0.025
Mof_N 	N 	0.2997	0.3526	0.0719	-0.268
Mof_C 	C 	0.332	0.3662	0.045	-0.051
Mof_C 	C 	0.3364	0.4033	0.0209	-0.006
Mof_C 	C 	0.3802	0.448	0.9724	-0.008
Mof_N 	N 	0.3088	0.3584	0.1068	-0.274
Mof_C 	C 	0.3194	0.3524	0.1461	0.024
Mof_C 	C 	0.3117	0.3717	0.1864	-0.043
Mof_C 	C 	0.3137	0.3544	0.2182	0
Mof_C 	C 	0.3054	0.3735	0.256	-0.022
Mof_N 	N 	0.2099	0.5268	0.2588	-0.278
Mof_N 	N 	0.2209	0.5937	0.2764	-0.289
Mof_C 	C 	0.1947	0.5662	0.2595	0.045
Mof_C 	C 	0.2508	0.5273	0.274	0.024
Mof_C 	C 	0.2546	0.57	0.2866	0.065
Mof_C 	C 	0.2952	0.587	0.2952	-0.057
Mof_C 	C 	0.332	0.5614	0.2912	0.014
Mof_C 	C 	0.3281	0.5187	0.2786	0.01
Mof_C 	C 	0.2875	0.5017	0.27	-0.05
Mof_C 	C 	0.3818	0.572	0.2991	-0.005
Mof_C 	C 	0.3717	0.4898	0.274	-0.004
Mof_C 	C 	0.29	0.592	0.3305	-0.018
Mof_C 	C 	0.3201	0.531	0.3306	-0.003
Mof_C 	C 	0.2807	0.4901	0.3041	-0.005
Mof_Zn	Zn	0.5	0	0.25	1.183
Mof_Zn	Zn	0.5	6.26922e-33	0.75	1.183
Mof_Zn	Zn	4.16002e-33	0.5	0.25	1.183
Mof_Zn	Zn	3.07623e-33	0.5	0.75	1.183
Mof_C 	C 	0.2398	0.1349	-0	-0.005
Mof_C 	C 	0.3816	0.2386	-0	0.062
Mof_C 	C 	0.4078	0.3753	-0	0.005
Mof_C 	C 	0.7602	0.8651	-0	-0.003
Mof_C 	C 	0.6184	0.7614	-0	0.062
Mof_C 	C 	0.5922	0.6247	-0	0.005
Mof_C 	C 	0.3651	0.7398	0.5	-0.003
Mof_C 	C 	0.2614	0.8816	0.5	0.063
Mof_C 	C 	0.1247	0.9078	0.5	0.004
Mof_C 	C 	0.6349	0.2602	0.5	-0.003
Mof_C 	C 	0.7386	0.1184	0.5	0.063
Mof_C 	C 	0.8753	0.0922	0.5	0.007
Mof_C 	C 	0.2602	0.6349	0.5	-0.003
Mof_C 	C 	0.1184	0.7386	0.5	0.063
Mof_C 	C 	0.0922	0.8753	0.5	0.007
Mof_C 	C 	0.7398	0.3651	0.5	-0.003
Mof_C 	C 	0.8816	0.2614	0.5	0.063
Mof_C 	C 	0.9078	0.1247	0.5	0.004
Mof_C 	C 	0.1349	0.2398	-0	-0.005
Mof_C 	C 	0.2386	0.3816	-0	0.062
Mof_C 	C 	0.3753	0.4078	-0	0.005
Mof_C 	C 	0.8651	0.7602	-0	-0.003
Mof_C 	C 	0.7614	0.6184	-0	0.062
Mof_C 	C 	0.6247	0.5922	-0	0.005
Mof_C 	C 	0.2235	0.2235	0.2156	0.019
Mof_C 	C 	0.3126	0.3126	0.0874	-0.479
Mof_C 	C 	0.3317	0.3317	0.0865	0.833
Mof_C 	C 	0.7765	0.7765	0.2156	0.019
Mof_C 	C 	0.6874	0.6874	0.0874	-0.479
Mof_C 	C 	0.6683	0.6683	0.0865	0.833
Mof_C 	C 	0.2765	0.7235	0.7156	0.019
Mof_C 	C 	0.1874	0.8126	0.5874	-0.479
Mof_C 	C 	0.1683	0.8317	0.5865	0.833
Mof_C 	C 	0.7235	0.2765	0.7156	0.019
Mof_C 	C 	0.8126	0.1874	0.5874	-0.479
Mof_C 	C 	0.8317	0.1683	0.5865	0.833
Mof_C 	C 	0.2765	0.7235	0.2844	0.019
Mof_C 	C 	0.1874	0.8126	0.4126	-0.479
Mof_C 	C 	0.1683	0.8317	0.4135	0.833
Mof_C 	C 	0.7235	0.2765	0.2844	0.019
Mof_C 	C 	0.8126	0.1874	0.4126	-0.479
Mof_C 	C 	0.8317	0.1683	0.4135	0.833
Mof_C 	C 	0.2235	0.2235	0.7844	0.019
Mof_C 	C 	0.3126	0.3126	0.9126	-0.479
Mof_C 	C 	0.3317	0.3317	0.9135	0.833
Mof_C 	C 	0.7765	0.7765	0.7844	0.019
Mof_C 	C 	0.6874	0.6874	0.9126	-0.479
Mof_C 	C 	0.6683	0.6683	0.9135	0.833
_end
