data_functionalizedCrystal
_audit_creation_method	'EQeq! by Chris Wilmer'
_symmetry_space_group_name_H-M	'P1'
_symmetry_Int_Tables_number	1
_symmetry_cell_setting	triclinic
loop_
_symmetry_equiv_pos_as_xyz
  x,y,z
_cell_length_a	29.0553
_cell_length_b	14.1152
_cell_length_c	13.4991
_cell_angle_alpha	90
_cell_angle_beta	97.912
_cell_angle_gamma	90
loop_
_atom_site_label
_atom_site_type_symbol
_atom_site_fract_x
_atom_site_fract_y
_atom_site_fract_z
_atom_site_charge
Mof_Eu	Eu	0.18434	0.70591	0.4613	2.113
Mof_C 	C 	0.0984	0.7522	0.526	0.336
Mof_C 	C 	0.054	0.7768	0.5652	-0.118
Mof_C 	C 	0.0382	0.8704	0.5643	0.055
Mof_H 	H 	0.0569	0.9183	0.5446	0.023
Mof_C 	C 	0.9971	0.8931	0.5908	-0.135
Mof_H 	H 	0.9868	0.9555	0.5866	0.083
Mof_C 	C 	0.9695	0.822	0.6251	0.077
Mof_C 	C 	0.9846	0.7325	0.6289	-0.135
Mof_H 	H 	0.9665	0.6856	0.6526	0.072
Mof_C 	C 	0.0275	0.7072	0.5978	0.046
Mof_H 	H 	0.0374	0.6444	0.5996	0.018
Mof_C 	C 	0.9218	0.8392	0.6508	0.019
Mof_C 	C 	0.7537	0.0796	0.5748	0.45
Mof_C 	C 	0.7838	0.0082	0.6284	-0.165
Mof_C 	C 	0.8304	0.0002	0.6185	-0.01
Mof_H 	H 	0.8433	0.0425	0.5773	0.036
Mof_C 	C 	0.8578	0.9323	0.6672	0.037
Mof_C 	C 	0.8397	0.8744	0.7394	-0.009
Mof_H 	H 	0.8587	0.8314	0.778	0.051
Mof_C 	C 	0.7938	0.8835	0.7506	-0.151
Mof_C 	C 	0.7655	0.9497	0.6966	0.079
Mof_H 	H 	0.7345	0.9552	0.7057	0.007
Mof_C 	C 	0.7738	0.8234	0.8272	0.476
Mof_N 	N 	0.9047	0.922	0.6471	-0.119
Mof_O 	O 	0.1136	0.6689	0.5411	-0.447
Mof_O 	O 	0.1202	0.8137	0.486	-0.465
Mof_O 	O 	0.7107	0.0648	0.5536	-0.502
Mof_O 	O 	0.7712	0.1556	0.5455	-0.627
Mof_O 	O 	0.7327	0.8409	0.8428	-0.568
Mof_O 	O 	0.8003	0.7616	0.8729	-0.517
Mof_Eu	Eu	0.68434	0.20591	0.4613	2.111
Mof_C 	C 	0.5984	0.2522	0.526	0.335
Mof_C 	C 	0.554	0.2768	0.5652	-0.12
Mof_C 	C 	0.5382	0.3704	0.5643	0.055
Mof_H 	H 	0.5569	0.4183	0.5446	0.022
Mof_C 	C 	0.4971	0.3931	0.5908	-0.136
Mof_H 	H 	0.4868	0.4555	0.5866	0.083
Mof_C 	C 	0.4695	0.322	0.6251	0.076
Mof_C 	C 	0.4846	0.2325	0.6289	-0.136
Mof_H 	H 	0.4665	0.1856	0.6526	0.071
Mof_C 	C 	0.5275	0.2072	0.5978	0.045
Mof_H 	H 	0.5374	0.1444	0.5996	0.016
Mof_C 	C 	0.4218	0.3392	0.6508	0.019
Mof_C 	C 	0.2537	0.5796	0.5748	0.45
Mof_C 	C 	0.2838	0.5082	0.6284	-0.166
Mof_C 	C 	0.3304	0.5002	0.6185	-0.011
Mof_H 	H 	0.3433	0.5425	0.5773	0.036
Mof_C 	C 	0.3578	0.4323	0.6672	0.038
Mof_C 	C 	0.3397	0.3744	0.7394	-0.009
Mof_H 	H 	0.3587	0.3314	0.778	0.051
Mof_C 	C 	0.2938	0.3835	0.7506	-0.151
Mof_C 	C 	0.2655	0.4497	0.6966	0.081
Mof_H 	H 	0.2345	0.4552	0.7057	0.007
Mof_C 	C 	0.2738	0.3234	0.8272	0.476
Mof_N 	N 	0.4047	0.422	0.6471	-0.119
Mof_O 	O 	0.6136	0.1689	0.5411	-0.447
Mof_O 	O 	0.6202	0.3137	0.486	-0.466
Mof_O 	O 	0.2107	0.5648	0.5536	-0.502
Mof_O 	O 	0.2712	0.6556	0.5455	-0.627
Mof_O 	O 	0.2327	0.3409	0.8428	-0.568
Mof_O 	O 	0.3003	0.2616	0.8729	-0.515
Mof_Eu	Eu	0.81566	0.70591	0.0387	2.114
Mof_C 	C 	0.9016	0.7522	0.974	0.333
Mof_C 	C 	0.946	0.7768	0.9348	-0.12
Mof_C 	C 	0.9618	0.8704	0.9357	0.056
Mof_H 	H 	0.9431	0.9183	0.9554	0.021
Mof_C 	C 	0.0029	0.8931	0.9092	-0.137
Mof_H 	H 	0.0132	0.9555	0.9134	0.082
Mof_C 	C 	0.0305	0.822	0.8749	0.076
Mof_C 	C 	0.0154	0.7325	0.8711	-0.137
Mof_H 	H 	0.0335	0.6856	0.8474	0.071
Mof_C 	C 	0.9725	0.7072	0.9022	0.046
Mof_H 	H 	0.9626	0.6444	0.9004	0.016
Mof_C 	C 	0.0782	0.8392	0.8492	0.018
Mof_C 	C 	0.2463	0.0796	0.9252	0.45
Mof_C 	C 	0.2162	0.0082	0.8716	-0.164
Mof_C 	C 	0.1696	0.0002	0.8815	-0.008
Mof_H 	H 	0.1567	0.0425	0.9227	0.036
Mof_C 	C 	0.1422	0.9323	0.8328	0.035
Mof_C 	C 	0.1603	0.8744	0.7606	-0.009
Mof_H 	H 	0.1413	0.8314	0.722	0.051
Mof_C 	C 	0.2062	0.8835	0.7494	-0.151
Mof_C 	C 	0.2345	0.9497	0.8034	0.078
Mof_H 	H 	0.2655	0.9552	0.7943	0.007
Mof_C 	C 	0.2262	0.8234	0.6728	0.476
Mof_N 	N 	0.0953	0.922	0.8529	-0.119
Mof_O 	O 	0.8864	0.6689	0.9589	-0.447
Mof_O 	O 	0.8798	0.8137	0.014	-0.464
Mof_O 	O 	0.2893	0.0648	0.9464	-0.501
Mof_O 	O 	0.2288	0.1556	0.9545	-0.626
Mof_O 	O 	0.2673	0.8409	0.6572	-0.568
Mof_O 	O 	0.1997	0.7616	0.6271	-0.516
Mof_Eu	Eu	0.31566	0.20591	0.0387	2.107
Mof_C 	C 	0.4016	0.2522	0.974	0.336
Mof_C 	C 	0.446	0.2768	0.9348	-0.12
Mof_C 	C 	0.4618	0.3704	0.9357	0.055
Mof_H 	H 	0.4431	0.4183	0.9554	0.022
Mof_C 	C 	0.5029	0.3931	0.9092	-0.136
Mof_H 	H 	0.5132	0.4555	0.9134	0.083
Mof_C 	C 	0.5305	0.322	0.8749	0.076
Mof_C 	C 	0.5154	0.2325	0.8711	-0.136
Mof_H 	H 	0.5335	0.1856	0.8474	0.071
Mof_C 	C 	0.4725	0.2072	0.9022	0.046
Mof_H 	H 	0.4626	0.1444	0.9004	0.017
Mof_C 	C 	0.5782	0.3392	0.8492	0.019
Mof_C 	C 	0.7463	0.5796	0.9252	0.45
Mof_C 	C 	0.7162	0.5082	0.8716	-0.166
Mof_C 	C 	0.6696	0.5002	0.8815	-0.011
Mof_H 	H 	0.6567	0.5425	0.9227	0.036
Mof_C 	C 	0.6422	0.4323	0.8328	0.038
Mof_C 	C 	0.6603	0.3744	0.7606	-0.009
Mof_H 	H 	0.6413	0.3314	0.722	0.051
Mof_C 	C 	0.7062	0.3835	0.7494	-0.151
Mof_C 	C 	0.7345	0.4497	0.8034	0.081
Mof_H 	H 	0.7655	0.4552	0.7943	0.007
Mof_C 	C 	0.7262	0.3234	0.6728	0.477
Mof_N 	N 	0.5953	0.422	0.8529	-0.119
Mof_O 	O 	0.3864	0.1689	0.9589	-0.446
Mof_O 	O 	0.3798	0.3137	0.014	-0.466
Mof_O 	O 	0.7893	0.5648	0.9464	-0.503
Mof_O 	O 	0.7288	0.6556	0.9545	-0.627
Mof_O 	O 	0.7673	0.3409	0.6572	-0.568
Mof_O 	O 	0.6997	0.2616	0.6271	-0.516
Mof_Eu	Eu	0.81566	0.29409	0.5387	2.112
Mof_C 	C 	0.9016	0.2478	0.474	0.335
Mof_C 	C 	0.946	0.2232	0.4348	-0.119
Mof_C 	C 	0.9618	0.1296	0.4357	0.054
Mof_H 	H 	0.9431	0.0817	0.4554	0.022
Mof_C 	C 	0.0029	0.1069	0.4092	-0.136
Mof_H 	H 	0.0132	0.0445	0.4134	0.082
Mof_C 	C 	0.0305	0.178	0.3749	0.076
Mof_C 	C 	0.0154	0.2675	0.3711	-0.136
Mof_H 	H 	0.0335	0.3144	0.3474	0.071
Mof_C 	C 	0.9725	0.2928	0.4022	0.045
Mof_H 	H 	0.9626	0.3556	0.4004	0.017
Mof_C 	C 	0.0782	0.1608	0.3492	0.019
Mof_C 	C 	0.2463	0.9204	0.4252	0.45
Mof_C 	C 	0.2162	0.9918	0.3716	-0.165
Mof_C 	C 	0.1696	0.9998	0.3815	-0.01
Mof_H 	H 	0.1567	0.9575	0.4227	0.036
Mof_C 	C 	0.1422	0.0677	0.3328	0.037
Mof_C 	C 	0.1603	0.1256	0.2606	-0.009
Mof_H 	H 	0.1413	0.1686	0.222	0.051
Mof_C 	C 	0.2062	0.1165	0.2494	-0.151
Mof_C 	C 	0.2345	0.0503	0.3034	0.079
Mof_H 	H 	0.2655	0.0448	0.2943	0.007
Mof_C 	C 	0.2262	0.1766	0.1728	0.476
Mof_N 	N 	0.0953	0.078	0.3529	-0.119
Mof_O 	O 	0.8864	0.3311	0.4589	-0.447
Mof_O 	O 	0.8798	0.1863	0.514	-0.465
Mof_O 	O 	0.2893	0.9352	0.4464	-0.502
Mof_O 	O 	0.2288	0.8444	0.4545	-0.627
Mof_O 	O 	0.2673	0.1591	0.1572	-0.568
Mof_O 	O 	0.1997	0.2384	0.1271	-0.517
Mof_Eu	Eu	0.31566	0.79409	0.5387	2.111
Mof_C 	C 	0.4016	0.7478	0.474	0.335
Mof_C 	C 	0.446	0.7232	0.4348	-0.12
Mof_C 	C 	0.4618	0.6296	0.4357	0.055
Mof_H 	H 	0.4431	0.5817	0.4554	0.022
Mof_C 	C 	0.5029	0.6069	0.4092	-0.136
Mof_H 	H 	0.5132	0.5445	0.4134	0.083
Mof_C 	C 	0.5305	0.678	0.3749	0.076
Mof_C 	C 	0.5154	0.7675	0.3711	-0.136
Mof_H 	H 	0.5335	0.8144	0.3474	0.071
Mof_C 	C 	0.4725	0.7928	0.4022	0.045
Mof_H 	H 	0.4626	0.8556	0.4004	0.016
Mof_C 	C 	0.5782	0.6608	0.3492	0.019
Mof_C 	C 	0.7463	0.4204	0.4252	0.45
Mof_C 	C 	0.7162	0.4918	0.3716	-0.166
Mof_C 	C 	0.6696	0.4998	0.3815	-0.011
Mof_H 	H 	0.6567	0.4575	0.4227	0.036
Mof_C 	C 	0.6422	0.5677	0.3328	0.038
Mof_C 	C 	0.6603	0.6256	0.2606	-0.009
Mof_H 	H 	0.6413	0.6686	0.222	0.051
Mof_C 	C 	0.7062	0.6165	0.2494	-0.151
Mof_C 	C 	0.7345	0.5503	0.3034	0.081
Mof_H 	H 	0.7655	0.5448	0.2943	0.007
Mof_C 	C 	0.7262	0.6766	0.1728	0.476
Mof_N 	N 	0.5953	0.578	0.3529	-0.119
Mof_O 	O 	0.3864	0.8311	0.4589	-0.447
Mof_O 	O 	0.3798	0.6863	0.514	-0.466
Mof_O 	O 	0.7893	0.4352	0.4464	-0.502
Mof_O 	O 	0.7288	0.3444	0.4545	-0.627
Mof_O 	O 	0.7673	0.6591	0.1572	-0.568
Mof_O 	O 	0.6997	0.7384	0.1271	-0.515
Mof_Eu	Eu	0.18434	0.29409	0.9613	2.114
Mof_C 	C 	0.0984	0.2478	0.026	0.333
Mof_C 	C 	0.054	0.2232	0.0652	-0.12
Mof_C 	C 	0.0382	0.1296	0.0643	0.056
Mof_H 	H 	0.0569	0.0817	0.0446	0.021
Mof_C 	C 	0.9971	0.1069	0.0908	-0.137
Mof_H 	H 	0.9868	0.0445	0.0866	0.082
Mof_C 	C 	0.9695	0.178	0.1251	0.076
Mof_C 	C 	0.9846	0.2675	0.1289	-0.137
Mof_H 	H 	0.9665	0.3144	0.1526	0.071
Mof_C 	C 	0.0275	0.2928	0.0978	0.046
Mof_H 	H 	0.0374	0.3556	0.0996	0.016
Mof_C 	C 	0.9218	0.1608	0.1508	0.018
Mof_C 	C 	0.7537	0.9204	0.0748	0.45
Mof_C 	C 	0.7838	0.9918	0.1284	-0.164
Mof_C 	C 	0.8304	0.9998	0.1185	-0.008
Mof_H 	H 	0.8433	0.9575	0.0773	0.036
Mof_C 	C 	0.8578	0.0677	0.1672	0.035
Mof_C 	C 	0.8397	0.1256	0.2394	-0.009
Mof_H 	H 	0.8587	0.1686	0.278	0.051
Mof_C 	C 	0.7938	0.1165	0.2506	-0.151
Mof_C 	C 	0.7655	0.0503	0.1966	0.078
Mof_H 	H 	0.7345	0.0448	0.2057	0.007
Mof_C 	C 	0.7738	0.1766	0.3272	0.476
Mof_N 	N 	0.9047	0.078	0.1471	-0.119
Mof_O 	O 	0.1136	0.3311	0.0411	-0.447
Mof_O 	O 	0.1202	0.1863	0.986	-0.464
Mof_O 	O 	0.7107	0.9352	0.0536	-0.501
Mof_O 	O 	0.7712	0.8444	0.0455	-0.626
Mof_O 	O 	0.7327	0.1591	0.3428	-0.568
Mof_O 	O 	0.8003	0.2384	0.3729	-0.516
Mof_Eu	Eu	0.68434	0.79409	0.9613	2.107
Mof_C 	C 	0.5984	0.7478	0.026	0.336
Mof_C 	C 	0.554	0.7232	0.0652	-0.12
Mof_C 	C 	0.5382	0.6296	0.0643	0.055
Mof_H 	H 	0.5569	0.5817	0.0446	0.022
Mof_C 	C 	0.4971	0.6069	0.0908	-0.136
Mof_H 	H 	0.4868	0.5445	0.0866	0.083
Mof_C 	C 	0.4695	0.678	0.1251	0.076
Mof_C 	C 	0.4846	0.7675	0.1289	-0.136
Mof_H 	H 	0.4665	0.8144	0.1526	0.071
Mof_C 	C 	0.5275	0.7928	0.0978	0.046
Mof_H 	H 	0.5374	0.8556	0.0996	0.017
Mof_C 	C 	0.4218	0.6608	0.1508	0.019
Mof_C 	C 	0.2537	0.4204	0.0748	0.45
Mof_C 	C 	0.2838	0.4918	0.1284	-0.166
Mof_C 	C 	0.3304	0.4998	0.1185	-0.011
Mof_H 	H 	0.3433	0.4575	0.0773	0.036
Mof_C 	C 	0.3578	0.5677	0.1672	0.038
Mof_C 	C 	0.3397	0.6256	0.2394	-0.009
Mof_H 	H 	0.3587	0.6686	0.278	0.051
Mof_C 	C 	0.2938	0.6165	0.2506	-0.151
Mof_C 	C 	0.2655	0.5503	0.1966	0.081
Mof_H 	H 	0.2345	0.5448	0.2057	0.007
Mof_C 	C 	0.2738	0.6766	0.3272	0.477
Mof_N 	N 	0.4047	0.578	0.1471	-0.119
Mof_O 	O 	0.6136	0.8311	0.0411	-0.446
Mof_O 	O 	0.6202	0.6863	0.986	-0.466
Mof_O 	O 	0.2107	0.4352	0.0536	-0.503
Mof_O 	O 	0.2712	0.3444	0.0455	-0.627
Mof_O 	O 	0.2327	0.6591	0.3428	-0.568
Mof_O 	O 	0.3003	0.7384	0.3729	-0.516
_end
