data_functionalizedCrystal
_audit_creation_method	'EQeq! by Chris Wilmer'
_symmetry_space_group_name_H-M	'P1'
_symmetry_Int_Tables_number	1
_symmetry_cell_setting	triclinic
loop_
_symmetry_equiv_pos_as_xyz
  x,y,z
_cell_length_a	28.471
_cell_length_b	28.471
_cell_length_c	28.471
_cell_angle_alpha	90
_cell_angle_beta	90
_cell_angle_gamma	90
loop_
_atom_site_label
_atom_site_type_symbol
_atom_site_fract_x
_atom_site_fract_y
_atom_site_fract_z
_atom_site_charge
Mof_Ni	Ni	0.3473	0.6189	0.899	0.546
Mof_O 	O 	0.3907	0.5884	0.9453	-0.419
Mof_O 	O 	0.457	0.6296	0.9473	-0.253
Mof_C 	C 	0.4298	0.598	0.9627	0.347
Mof_C 	C 	0.4442	0.5694	0.0035	-0.133
Mof_C 	C 	0.4837	0.5816	0.0301	0.063
Mof_O 	O 	0.3648	0.5773	0.8418	-0.688
Mof_O 	O 	0.4038	0.6586	0.874	0.447
Mof_C 	C 	0.4102	0.5879	0.8256	-0.082
Mof_C 	C 	0.4206	0.6417	0.8303	-0.06
Mof_C 	C 	0.4207	0.5652	0.7827	0.087
Mof_C 	C 	0.4668	0.6576	0.8213	0.26
Mof_N 	N 	0.3331	0.6652	0.9544	-0.232
Mof_C 	C 	0.3296	0.6518	0.9983	0.102
Mof_C 	C 	0.3177	0.6857	0.0343	-0.048
Mof_C 	C 	0.3099	0.732	0.0257	0.009
Mof_C 	C 	0.3142	0.7444	0.9857	-0.184
Mof_C 	C 	0.3251	0.718	0.949	0.109
Mof_N 	N 	0.3318	0.683	0.952	-0.065
Mof_C 	C 	0.3239	0.6692	0.9966	0.184
Mof_C 	C 	0.313	0.7073	0.0294	-0.169
Mof_C 	C 	0.3082	0.7495	0.0171	0.187
Mof_C 	C 	0.3177	0.7575	0.969	-0.096
Mof_C 	C 	0.3299	0.7201	0.9354	0.143
Mof_H 	H 	0.498	0.61	0.02	0.032
Mof_H 	H 	0.431	0.573	0.848	0.028
Mof_H 	H 	0.422	0.603	0.796	-0.11
Mof_H 	H 	0.445	0.592	0.844	0.016
Mof_H 	H 	0.412	0.533	0.785	0.09
Mof_H 	H 	0.454	0.568	0.776	0.006
Mof_H 	H 	0.403	0.58	0.758	-0.002
Mof_H 	H 	0.401	0.657	0.807	0.028
Mof_H 	H 	0.413	0.579	0.793	0.046
Mof_H 	H 	0.433	0.57	0.843	0.01
Mof_H 	H 	0.468	0.691	0.826	-0.182
Mof_H 	H 	0.475	0.65	0.79	-0.047
Mof_H 	H 	0.488	0.643	0.843	-0.023
Mof_H 	H 	0.335	0.62	0.007	0.161
Mof_H 	H 	0.315	0.675	0.066	-0.001
Mof_H 	H 	0.301	0.754	0.05	0
Mof_H 	H 	0.309	0.777	0.98	0.121
Mof_H 	H 	0.328	0.732	0.919	-0.224
Mof_H 	H 	0.325	0.637	0.006	-0.239
Mof_H 	H 	0.309	0.7	0.062	0.103
Mof_H 	H 	0.299	0.774	0.038	-0.012
Mof_H 	H 	0.316	0.789	0.958	0.024
Mof_H 	H 	0.336	0.726	0.903	0.166
Mof_Ni	Ni	0.1527	0.3811	0.399	0.546
Mof_O 	O 	0.1093	0.4116	0.4453	-0.419
Mof_O 	O 	0.043	0.3704	0.4473	-0.253
Mof_C 	C 	0.0702	0.402	0.4627	0.347
Mof_C 	C 	0.0558	0.4306	0.5035	-0.133
Mof_C 	C 	0.0163	0.4184	0.5301	0.063
Mof_O 	O 	0.1352	0.4227	0.3418	-0.688
Mof_O 	O 	0.0962	0.3414	0.374	0.447
Mof_C 	C 	0.0898	0.4121	0.3256	-0.082
Mof_C 	C 	0.0794	0.3583	0.3303	-0.06
Mof_C 	C 	0.0793	0.4348	0.2827	0.087
Mof_C 	C 	0.0332	0.3424	0.3213	0.26
Mof_N 	N 	0.1669	0.3348	0.4544	-0.232
Mof_C 	C 	0.1704	0.3482	0.4983	0.102
Mof_C 	C 	0.1823	0.3143	0.5343	-0.048
Mof_C 	C 	0.1901	0.268	0.5257	0.009
Mof_C 	C 	0.1858	0.2556	0.4857	-0.184
Mof_C 	C 	0.1749	0.282	0.449	0.109
Mof_N 	N 	0.1682	0.317	0.452	-0.065
Mof_C 	C 	0.1761	0.3308	0.4966	0.184
Mof_C 	C 	0.187	0.2927	0.5294	-0.169
Mof_C 	C 	0.1918	0.2505	0.5171	0.187
Mof_C 	C 	0.1823	0.2425	0.469	-0.096
Mof_C 	C 	0.1701	0.2799	0.4354	0.143
Mof_H 	H 	0.002	0.39	0.52	0.032
Mof_H 	H 	0.069	0.427	0.348	0.028
Mof_H 	H 	0.078	0.397	0.296	-0.11
Mof_H 	H 	0.055	0.408	0.344	0.016
Mof_H 	H 	0.088	0.467	0.285	0.09
Mof_H 	H 	0.046	0.432	0.276	0.006
Mof_H 	H 	0.097	0.42	0.258	-0.002
Mof_H 	H 	0.099	0.343	0.307	0.028
Mof_H 	H 	0.087	0.421	0.293	0.046
Mof_H 	H 	0.067	0.43	0.343	0.01
Mof_H 	H 	0.032	0.309	0.326	-0.182
Mof_H 	H 	0.025	0.35	0.29	-0.047
Mof_H 	H 	0.012	0.357	0.343	-0.023
Mof_H 	H 	0.165	0.38	0.507	0.161
Mof_H 	H 	0.185	0.325	0.566	-0.001
Mof_H 	H 	0.199	0.246	0.55	0
Mof_H 	H 	0.191	0.223	0.48	0.121
Mof_H 	H 	0.172	0.268	0.419	-0.224
Mof_H 	H 	0.175	0.363	0.506	-0.24
Mof_H 	H 	0.191	0.3	0.562	0.102
Mof_H 	H 	0.201	0.226	0.538	-0.013
Mof_H 	H 	0.184	0.211	0.458	0.023
Mof_H 	H 	0.164	0.274	0.403	0.165
Mof_Ni	Ni	0.6527	0.1189	0.601	0.545
Mof_O 	O 	0.6093	0.0884	0.5547	-0.42
Mof_O 	O 	0.543	0.1296	0.5527	-0.254
Mof_C 	C 	0.5702	0.098	0.5373	0.346
Mof_C 	C 	0.5558	0.0694	0.4965	-0.134
Mof_C 	C 	0.5163	0.0816	0.4699	0.062
Mof_O 	O 	0.6352	0.0773	0.6582	-0.689
Mof_O 	O 	0.5962	0.1586	0.626	0.446
Mof_C 	C 	0.5898	0.0879	0.6744	-0.083
Mof_C 	C 	0.5794	0.1417	0.6697	-0.061
Mof_C 	C 	0.5793	0.0652	0.7173	0.086
Mof_C 	C 	0.5332	0.1576	0.6787	0.259
Mof_N 	N 	0.6669	0.1652	0.5456	-0.233
Mof_C 	C 	0.6704	0.1518	0.5017	0.101
Mof_C 	C 	0.6823	0.1857	0.4657	-0.049
Mof_C 	C 	0.6901	0.232	0.4743	0.008
Mof_C 	C 	0.6858	0.2444	0.5143	-0.185
Mof_C 	C 	0.6749	0.218	0.551	0.108
Mof_N 	N 	0.6682	0.183	0.548	-0.066
Mof_C 	C 	0.6761	0.1692	0.5034	0.183
Mof_C 	C 	0.687	0.2073	0.4706	-0.17
Mof_C 	C 	0.6918	0.2495	0.4829	0.186
Mof_C 	C 	0.6823	0.2575	0.531	-0.097
Mof_C 	C 	0.6701	0.2201	0.5646	0.142
Mof_H 	H 	0.502	0.11	0.48	0.031
Mof_H 	H 	0.569	0.073	0.652	0.027
Mof_H 	H 	0.578	0.103	0.704	-0.111
Mof_H 	H 	0.555	0.092	0.656	0.015
Mof_H 	H 	0.588	0.033	0.715	0.089
Mof_H 	H 	0.546	0.068	0.724	0.005
Mof_H 	H 	0.597	0.08	0.742	-0.003
Mof_H 	H 	0.599	0.157	0.693	0.027
Mof_H 	H 	0.587	0.079	0.707	0.045
Mof_H 	H 	0.567	0.07	0.657	0.009
Mof_H 	H 	0.532	0.191	0.674	-0.183
Mof_H 	H 	0.525	0.15	0.71	-0.048
Mof_H 	H 	0.512	0.143	0.657	-0.024
Mof_H 	H 	0.665	0.12	0.493	0.16
Mof_H 	H 	0.685	0.175	0.434	-0.002
Mof_H 	H 	0.699	0.254	0.45	-0.001
Mof_H 	H 	0.691	0.277	0.52	0.12
Mof_H 	H 	0.672	0.232	0.581	-0.225
Mof_H 	H 	0.675	0.137	0.494	-0.241
Mof_H 	H 	0.691	0.2	0.438	0.102
Mof_H 	H 	0.701	0.274	0.462	-0.013
Mof_H 	H 	0.684	0.289	0.542	0.023
Mof_H 	H 	0.664	0.226	0.597	0.165
Mof_Ni	Ni	0.8473	0.8811	0.101	0.545
Mof_O 	O 	0.8907	0.9116	0.0547	-0.42
Mof_O 	O 	0.957	0.8704	0.0527	-0.254
Mof_C 	C 	0.9298	0.902	0.0373	0.346
Mof_C 	C 	0.9442	0.9306	0.9965	-0.134
Mof_C 	C 	0.9837	0.9184	0.9699	0.062
Mof_O 	O 	0.8648	0.9227	0.1582	-0.689
Mof_O 	O 	0.9038	0.8414	0.126	0.446
Mof_C 	C 	0.9102	0.9121	0.1744	-0.083
Mof_C 	C 	0.9206	0.8583	0.1697	-0.061
Mof_C 	C 	0.9207	0.9348	0.2173	0.086
Mof_C 	C 	0.9668	0.8424	0.1787	0.259
Mof_N 	N 	0.8331	0.8348	0.0456	-0.233
Mof_C 	C 	0.8296	0.8482	0.0017	0.101
Mof_C 	C 	0.8177	0.8143	0.9657	-0.049
Mof_C 	C 	0.8099	0.768	0.9743	0.008
Mof_C 	C 	0.8142	0.7556	0.0143	-0.185
Mof_C 	C 	0.8251	0.782	0.051	0.108
Mof_N 	N 	0.8318	0.817	0.048	-0.066
Mof_C 	C 	0.8239	0.8308	0.0034	0.183
Mof_C 	C 	0.813	0.7927	0.9706	-0.17
Mof_C 	C 	0.8082	0.7505	0.9829	0.186
Mof_C 	C 	0.8177	0.7425	0.031	-0.097
Mof_C 	C 	0.8299	0.7799	0.0646	0.142
Mof_H 	H 	0.998	0.89	0.98	0.031
Mof_H 	H 	0.931	0.927	0.152	0.027
Mof_H 	H 	0.922	0.897	0.204	-0.111
Mof_H 	H 	0.945	0.908	0.156	0.015
Mof_H 	H 	0.912	0.967	0.215	0.089
Mof_H 	H 	0.954	0.932	0.224	0.005
Mof_H 	H 	0.903	0.92	0.242	-0.003
Mof_H 	H 	0.901	0.843	0.193	0.027
Mof_H 	H 	0.913	0.921	0.207	0.045
Mof_H 	H 	0.933	0.93	0.157	0.009
Mof_H 	H 	0.968	0.809	0.174	-0.183
Mof_H 	H 	0.975	0.85	0.21	-0.048
Mof_H 	H 	0.988	0.857	0.157	-0.024
Mof_H 	H 	0.835	0.88	0.993	0.16
Mof_H 	H 	0.815	0.825	0.934	-0.002
Mof_H 	H 	0.801	0.746	0.95	-0.001
Mof_H 	H 	0.809	0.723	0.02	0.12
Mof_H 	H 	0.828	0.768	0.081	-0.225
Mof_H 	H 	0.825	0.863	0.994	-0.241
Mof_H 	H 	0.809	0.8	0.938	0.102
Mof_H 	H 	0.799	0.726	0.962	-0.013
Mof_H 	H 	0.816	0.711	0.042	0.023
Mof_H 	H 	0.836	0.774	0.097	0.165
Mof_Ni	Ni	0.899	0.3473	0.6189	0.545
Mof_O 	O 	0.9453	0.3907	0.5884	-0.42
Mof_O 	O 	0.9473	0.457	0.6296	-0.254
Mof_C 	C 	0.9627	0.4298	0.598	0.346
Mof_C 	C 	0.0035	0.4442	0.5694	-0.134
Mof_C 	C 	0.0301	0.4837	0.5816	0.062
Mof_O 	O 	0.8418	0.3648	0.5773	-0.689
Mof_O 	O 	0.874	0.4038	0.6586	0.446
Mof_C 	C 	0.8256	0.4102	0.5879	-0.083
Mof_C 	C 	0.8303	0.4206	0.6417	-0.061
Mof_C 	C 	0.7827	0.4207	0.5652	0.086
Mof_C 	C 	0.8213	0.4668	0.6576	0.259
Mof_N 	N 	0.9544	0.3331	0.6652	-0.233
Mof_C 	C 	0.9983	0.3296	0.6518	0.101
Mof_C 	C 	0.0343	0.3177	0.6857	-0.049
Mof_C 	C 	0.0257	0.3099	0.732	0.008
Mof_C 	C 	0.9857	0.3142	0.7444	-0.185
Mof_C 	C 	0.949	0.3251	0.718	0.108
Mof_N 	N 	0.952	0.3318	0.683	-0.066
Mof_C 	C 	0.9966	0.3239	0.6692	0.183
Mof_C 	C 	0.0294	0.313	0.7073	-0.17
Mof_C 	C 	0.0171	0.3082	0.7495	0.186
Mof_C 	C 	0.969	0.3177	0.7575	-0.097
Mof_C 	C 	0.9354	0.3299	0.7201	0.142
Mof_H 	H 	0.02	0.498	0.61	0.031
Mof_H 	H 	0.848	0.431	0.573	0.027
Mof_H 	H 	0.796	0.422	0.603	-0.111
Mof_H 	H 	0.844	0.445	0.592	0.015
Mof_H 	H 	0.785	0.412	0.533	0.089
Mof_H 	H 	0.776	0.454	0.568	0.005
Mof_H 	H 	0.758	0.403	0.58	-0.003
Mof_H 	H 	0.807	0.401	0.657	0.027
Mof_H 	H 	0.793	0.413	0.579	0.045
Mof_H 	H 	0.843	0.433	0.57	0.009
Mof_H 	H 	0.826	0.468	0.691	-0.183
Mof_H 	H 	0.79	0.475	0.65	-0.048
Mof_H 	H 	0.843	0.488	0.643	-0.024
Mof_H 	H 	0.007	0.335	0.62	0.16
Mof_H 	H 	0.066	0.315	0.675	-0.002
Mof_H 	H 	0.05	0.301	0.754	-0.001
Mof_H 	H 	0.98	0.309	0.777	0.12
Mof_H 	H 	0.919	0.328	0.732	-0.225
Mof_H 	H 	0.006	0.325	0.637	-0.24
Mof_H 	H 	0.062	0.309	0.7	0.102
Mof_H 	H 	0.038	0.299	0.774	-0.013
Mof_H 	H 	0.958	0.316	0.789	0.023
Mof_H 	H 	0.903	0.336	0.726	0.165
Mof_Ni	Ni	0.399	0.1527	0.3811	0.545
Mof_O 	O 	0.4453	0.1093	0.4116	-0.42
Mof_O 	O 	0.4473	0.043	0.3704	-0.254
Mof_C 	C 	0.4627	0.0702	0.402	0.346
Mof_C 	C 	0.5035	0.0558	0.4306	-0.134
Mof_C 	C 	0.5301	0.0163	0.4184	0.062
Mof_O 	O 	0.3418	0.1352	0.4227	-0.689
Mof_O 	O 	0.374	0.0962	0.3414	0.446
Mof_C 	C 	0.3256	0.0898	0.4121	-0.083
Mof_C 	C 	0.3303	0.0794	0.3583	-0.061
Mof_C 	C 	0.2827	0.0793	0.4348	0.086
Mof_C 	C 	0.3213	0.0332	0.3424	0.259
Mof_N 	N 	0.4544	0.1669	0.3348	-0.233
Mof_C 	C 	0.4983	0.1704	0.3482	0.101
Mof_C 	C 	0.5343	0.1823	0.3143	-0.049
Mof_C 	C 	0.5257	0.1901	0.268	0.008
Mof_C 	C 	0.4857	0.1858	0.2556	-0.185
Mof_C 	C 	0.449	0.1749	0.282	0.108
Mof_N 	N 	0.452	0.1682	0.317	-0.066
Mof_C 	C 	0.4966	0.1761	0.3308	0.183
Mof_C 	C 	0.5294	0.187	0.2927	-0.17
Mof_C 	C 	0.5171	0.1918	0.2505	0.186
Mof_C 	C 	0.469	0.1823	0.2425	-0.097
Mof_C 	C 	0.4354	0.1701	0.2799	0.142
Mof_H 	H 	0.52	0.002	0.39	0.031
Mof_H 	H 	0.348	0.069	0.427	0.027
Mof_H 	H 	0.296	0.078	0.397	-0.111
Mof_H 	H 	0.344	0.055	0.408	0.015
Mof_H 	H 	0.285	0.088	0.467	0.089
Mof_H 	H 	0.276	0.046	0.432	0.005
Mof_H 	H 	0.258	0.097	0.42	-0.003
Mof_H 	H 	0.307	0.099	0.343	0.027
Mof_H 	H 	0.293	0.087	0.421	0.045
Mof_H 	H 	0.343	0.067	0.43	0.009
Mof_H 	H 	0.326	0.032	0.309	-0.183
Mof_H 	H 	0.29	0.025	0.35	-0.048
Mof_H 	H 	0.343	0.012	0.357	-0.024
Mof_H 	H 	0.507	0.165	0.38	0.16
Mof_H 	H 	0.566	0.185	0.325	-0.002
Mof_H 	H 	0.55	0.199	0.246	-0.001
Mof_H 	H 	0.48	0.191	0.223	0.12
Mof_H 	H 	0.419	0.172	0.268	-0.225
Mof_H 	H 	0.506	0.175	0.363	-0.241
Mof_H 	H 	0.562	0.191	0.3	0.102
Mof_H 	H 	0.538	0.201	0.226	-0.013
Mof_H 	H 	0.458	0.184	0.211	0.023
Mof_H 	H 	0.403	0.164	0.274	0.165
Mof_Ni	Ni	0.601	0.6527	0.1189	0.545
Mof_O 	O 	0.5547	0.6093	0.0884	-0.42
Mof_O 	O 	0.5527	0.543	0.1296	-0.254
Mof_C 	C 	0.5373	0.5702	0.098	0.346
Mof_C 	C 	0.4965	0.5558	0.0694	-0.134
Mof_C 	C 	0.4699	0.5163	0.0816	0.062
Mof_O 	O 	0.6582	0.6352	0.0773	-0.689
Mof_O 	O 	0.626	0.5962	0.1586	0.446
Mof_C 	C 	0.6744	0.5898	0.0879	-0.083
Mof_C 	C 	0.6697	0.5794	0.1417	-0.061
Mof_C 	C 	0.7173	0.5793	0.0652	0.086
Mof_C 	C 	0.6787	0.5332	0.1576	0.259
Mof_N 	N 	0.5456	0.6669	0.1652	-0.233
Mof_C 	C 	0.5017	0.6704	0.1518	0.101
Mof_C 	C 	0.4657	0.6823	0.1857	-0.049
Mof_C 	C 	0.4743	0.6901	0.232	0.008
Mof_C 	C 	0.5143	0.6858	0.2444	-0.185
Mof_C 	C 	0.551	0.6749	0.218	0.108
Mof_N 	N 	0.548	0.6682	0.183	-0.066
Mof_C 	C 	0.5034	0.6761	0.1692	0.183
Mof_C 	C 	0.4706	0.687	0.2073	-0.17
Mof_C 	C 	0.4829	0.6918	0.2495	0.186
Mof_C 	C 	0.531	0.6823	0.2575	-0.097
Mof_C 	C 	0.5646	0.6701	0.2201	0.142
Mof_H 	H 	0.48	0.502	0.11	0.031
Mof_H 	H 	0.652	0.569	0.073	0.027
Mof_H 	H 	0.704	0.578	0.103	-0.111
Mof_H 	H 	0.656	0.555	0.092	0.015
Mof_H 	H 	0.715	0.588	0.033	0.089
Mof_H 	H 	0.724	0.546	0.068	0.005
Mof_H 	H 	0.742	0.597	0.08	-0.003
Mof_H 	H 	0.693	0.599	0.157	0.027
Mof_H 	H 	0.707	0.587	0.079	0.045
Mof_H 	H 	0.657	0.567	0.07	0.009
Mof_H 	H 	0.674	0.532	0.191	-0.183
Mof_H 	H 	0.71	0.525	0.15	-0.048
Mof_H 	H 	0.657	0.512	0.143	-0.024
Mof_H 	H 	0.493	0.665	0.12	0.16
Mof_H 	H 	0.434	0.685	0.175	-0.002
Mof_H 	H 	0.45	0.699	0.254	-0.001
Mof_H 	H 	0.52	0.691	0.277	0.12
Mof_H 	H 	0.581	0.672	0.232	-0.225
Mof_H 	H 	0.494	0.675	0.137	-0.241
Mof_H 	H 	0.438	0.691	0.2	0.102
Mof_H 	H 	0.462	0.701	0.274	-0.013
Mof_H 	H 	0.542	0.684	0.289	0.023
Mof_H 	H 	0.597	0.664	0.226	0.165
Mof_Ni	Ni	0.101	0.8473	0.8811	0.545
Mof_O 	O 	0.0547	0.8907	0.9116	-0.42
Mof_O 	O 	0.0527	0.957	0.8704	-0.254
Mof_C 	C 	0.0373	0.9298	0.902	0.346
Mof_C 	C 	0.9965	0.9442	0.9306	-0.134
Mof_C 	C 	0.9699	0.9837	0.9184	0.062
Mof_O 	O 	0.1582	0.8648	0.9227	-0.689
Mof_O 	O 	0.126	0.9038	0.8414	0.446
Mof_C 	C 	0.1744	0.9102	0.9121	-0.083
Mof_C 	C 	0.1697	0.9206	0.8583	-0.061
Mof_C 	C 	0.2173	0.9207	0.9348	0.086
Mof_C 	C 	0.1787	0.9668	0.8424	0.259
Mof_N 	N 	0.0456	0.8331	0.8348	-0.233
Mof_C 	C 	0.0017	0.8296	0.8482	0.101
Mof_C 	C 	0.9657	0.8177	0.8143	-0.049
Mof_C 	C 	0.9743	0.8099	0.768	0.008
Mof_C 	C 	0.0143	0.8142	0.7556	-0.185
Mof_C 	C 	0.051	0.8251	0.782	0.108
Mof_N 	N 	0.048	0.8318	0.817	-0.066
Mof_C 	C 	0.0034	0.8239	0.8308	0.183
Mof_C 	C 	0.9706	0.813	0.7927	-0.17
Mof_C 	C 	0.9829	0.8082	0.7505	0.186
Mof_C 	C 	0.031	0.8177	0.7425	-0.097
Mof_C 	C 	0.0646	0.8299	0.7799	0.142
Mof_H 	H 	0.98	0.998	0.89	0.031
Mof_H 	H 	0.152	0.931	0.927	0.027
Mof_H 	H 	0.204	0.922	0.897	-0.111
Mof_H 	H 	0.156	0.945	0.908	0.015
Mof_H 	H 	0.215	0.912	0.967	0.089
Mof_H 	H 	0.224	0.954	0.932	0.005
Mof_H 	H 	0.242	0.903	0.92	-0.003
Mof_H 	H 	0.193	0.901	0.843	0.027
Mof_H 	H 	0.207	0.913	0.921	0.045
Mof_H 	H 	0.157	0.933	0.93	0.009
Mof_H 	H 	0.174	0.968	0.809	-0.183
Mof_H 	H 	0.21	0.975	0.85	-0.048
Mof_H 	H 	0.157	0.988	0.857	-0.024
Mof_H 	H 	0.993	0.835	0.88	0.16
Mof_H 	H 	0.934	0.815	0.825	-0.002
Mof_H 	H 	0.95	0.801	0.746	-0.001
Mof_H 	H 	0.02	0.809	0.723	0.12
Mof_H 	H 	0.081	0.828	0.768	-0.225
Mof_H 	H 	0.994	0.825	0.863	-0.241
Mof_H 	H 	0.938	0.809	0.8	0.102
Mof_H 	H 	0.962	0.799	0.726	-0.013
Mof_H 	H 	0.042	0.816	0.711	0.023
Mof_H 	H 	0.097	0.836	0.774	0.165
Mof_Ni	Ni	0.6189	0.899	0.3473	0.545
Mof_O 	O 	0.5884	0.9453	0.3907	-0.42
Mof_O 	O 	0.6296	0.9473	0.457	-0.254
Mof_C 	C 	0.598	0.9627	0.4298	0.346
Mof_C 	C 	0.5694	0.0035	0.4442	-0.134
Mof_C 	C 	0.5816	0.0301	0.4837	0.062
Mof_O 	O 	0.5773	0.8418	0.3648	-0.689
Mof_O 	O 	0.6586	0.874	0.4038	0.446
Mof_C 	C 	0.5879	0.8256	0.4102	-0.083
Mof_C 	C 	0.6417	0.8303	0.4206	-0.061
Mof_C 	C 	0.5652	0.7827	0.4207	0.086
Mof_C 	C 	0.6576	0.8213	0.4668	0.259
Mof_N 	N 	0.6652	0.9544	0.3331	-0.233
Mof_C 	C 	0.6518	0.9983	0.3296	0.101
Mof_C 	C 	0.6857	0.0343	0.3177	-0.049
Mof_C 	C 	0.732	0.0257	0.3099	0.008
Mof_C 	C 	0.7444	0.9857	0.3142	-0.185
Mof_C 	C 	0.718	0.949	0.3251	0.108
Mof_N 	N 	0.683	0.952	0.3318	-0.066
Mof_C 	C 	0.6692	0.9966	0.3239	0.183
Mof_C 	C 	0.7073	0.0294	0.313	-0.17
Mof_C 	C 	0.7495	0.0171	0.3082	0.186
Mof_C 	C 	0.7575	0.969	0.3177	-0.097
Mof_C 	C 	0.7201	0.9354	0.3299	0.142
Mof_H 	H 	0.61	0.02	0.498	0.031
Mof_H 	H 	0.573	0.848	0.431	0.027
Mof_H 	H 	0.603	0.796	0.422	-0.111
Mof_H 	H 	0.592	0.844	0.445	0.015
Mof_H 	H 	0.533	0.785	0.412	0.089
Mof_H 	H 	0.568	0.776	0.454	0.005
Mof_H 	H 	0.58	0.758	0.403	-0.003
Mof_H 	H 	0.657	0.807	0.401	0.027
Mof_H 	H 	0.579	0.793	0.413	0.045
Mof_H 	H 	0.57	0.843	0.433	0.009
Mof_H 	H 	0.691	0.826	0.468	-0.183
Mof_H 	H 	0.65	0.79	0.475	-0.048
Mof_H 	H 	0.643	0.843	0.488	-0.024
Mof_H 	H 	0.62	0.007	0.335	0.16
Mof_H 	H 	0.675	0.066	0.315	-0.002
Mof_H 	H 	0.754	0.05	0.301	-0.001
Mof_H 	H 	0.777	0.98	0.309	0.12
Mof_H 	H 	0.732	0.919	0.328	-0.225
Mof_H 	H 	0.637	0.006	0.325	-0.24
Mof_H 	H 	0.7	0.062	0.309	0.102
Mof_H 	H 	0.774	0.038	0.299	-0.013
Mof_H 	H 	0.789	0.958	0.316	0.023
Mof_H 	H 	0.726	0.903	0.336	0.165
Mof_Ni	Ni	0.3811	0.399	0.1527	0.545
Mof_O 	O 	0.4116	0.4453	0.1093	-0.42
Mof_O 	O 	0.3704	0.4473	0.043	-0.254
Mof_C 	C 	0.402	0.4627	0.0702	0.346
Mof_C 	C 	0.4306	0.5035	0.0558	-0.134
Mof_C 	C 	0.4184	0.5301	0.0163	0.062
Mof_O 	O 	0.4227	0.3418	0.1352	-0.689
Mof_O 	O 	0.3414	0.374	0.0962	0.446
Mof_C 	C 	0.4121	0.3256	0.0898	-0.083
Mof_C 	C 	0.3583	0.3303	0.0794	-0.061
Mof_C 	C 	0.4348	0.2827	0.0793	0.086
Mof_C 	C 	0.3424	0.3213	0.0332	0.259
Mof_N 	N 	0.3348	0.4544	0.1669	-0.233
Mof_C 	C 	0.3482	0.4983	0.1704	0.101
Mof_C 	C 	0.3143	0.5343	0.1823	-0.049
Mof_C 	C 	0.268	0.5257	0.1901	0.008
Mof_C 	C 	0.2556	0.4857	0.1858	-0.185
Mof_C 	C 	0.282	0.449	0.1749	0.108
Mof_N 	N 	0.317	0.452	0.1682	-0.066
Mof_C 	C 	0.3308	0.4966	0.1761	0.183
Mof_C 	C 	0.2927	0.5294	0.187	-0.17
Mof_C 	C 	0.2505	0.5171	0.1918	0.186
Mof_C 	C 	0.2425	0.469	0.1823	-0.097
Mof_C 	C 	0.2799	0.4354	0.1701	0.142
Mof_H 	H 	0.39	0.52	0.002	0.031
Mof_H 	H 	0.427	0.348	0.069	0.027
Mof_H 	H 	0.397	0.296	0.078	-0.111
Mof_H 	H 	0.408	0.344	0.055	0.015
Mof_H 	H 	0.467	0.285	0.088	0.089
Mof_H 	H 	0.432	0.276	0.046	0.005
Mof_H 	H 	0.42	0.258	0.097	-0.003
Mof_H 	H 	0.343	0.307	0.099	0.027
Mof_H 	H 	0.421	0.293	0.087	0.045
Mof_H 	H 	0.43	0.343	0.067	0.009
Mof_H 	H 	0.309	0.326	0.032	-0.183
Mof_H 	H 	0.35	0.29	0.025	-0.048
Mof_H 	H 	0.357	0.343	0.012	-0.024
Mof_H 	H 	0.38	0.507	0.165	0.16
Mof_H 	H 	0.325	0.566	0.185	-0.002
Mof_H 	H 	0.246	0.55	0.199	-0.001
Mof_H 	H 	0.223	0.48	0.191	0.12
Mof_H 	H 	0.268	0.419	0.172	-0.225
Mof_H 	H 	0.363	0.506	0.175	-0.241
Mof_H 	H 	0.3	0.562	0.191	0.102
Mof_H 	H 	0.226	0.538	0.201	-0.013
Mof_H 	H 	0.211	0.458	0.184	0.023
Mof_H 	H 	0.274	0.403	0.164	0.165
Mof_Ni	Ni	0.1189	0.601	0.6527	0.545
Mof_O 	O 	0.0884	0.5547	0.6093	-0.42
Mof_O 	O 	0.1296	0.5527	0.543	-0.254
Mof_C 	C 	0.098	0.5373	0.5702	0.346
Mof_C 	C 	0.0694	0.4965	0.5558	-0.134
Mof_C 	C 	0.0816	0.4699	0.5163	0.062
Mof_O 	O 	0.0773	0.6582	0.6352	-0.689
Mof_O 	O 	0.1586	0.626	0.5962	0.446
Mof_C 	C 	0.0879	0.6744	0.5898	-0.083
Mof_C 	C 	0.1417	0.6697	0.5794	-0.061
Mof_C 	C 	0.0652	0.7173	0.5793	0.086
Mof_C 	C 	0.1576	0.6787	0.5332	0.259
Mof_N 	N 	0.1652	0.5456	0.6669	-0.233
Mof_C 	C 	0.1518	0.5017	0.6704	0.101
Mof_C 	C 	0.1857	0.4657	0.6823	-0.049
Mof_C 	C 	0.232	0.4743	0.6901	0.008
Mof_C 	C 	0.2444	0.5143	0.6858	-0.185
Mof_C 	C 	0.218	0.551	0.6749	0.108
Mof_N 	N 	0.183	0.548	0.6682	-0.066
Mof_C 	C 	0.1692	0.5034	0.6761	0.183
Mof_C 	C 	0.2073	0.4706	0.687	-0.17
Mof_C 	C 	0.2495	0.4829	0.6918	0.186
Mof_C 	C 	0.2575	0.531	0.6823	-0.097
Mof_C 	C 	0.2201	0.5646	0.6701	0.142
Mof_H 	H 	0.11	0.48	0.502	0.031
Mof_H 	H 	0.073	0.652	0.569	0.027
Mof_H 	H 	0.103	0.704	0.578	-0.111
Mof_H 	H 	0.092	0.656	0.555	0.015
Mof_H 	H 	0.033	0.715	0.588	0.089
Mof_H 	H 	0.068	0.724	0.546	0.005
Mof_H 	H 	0.08	0.742	0.597	-0.003
Mof_H 	H 	0.157	0.693	0.599	0.027
Mof_H 	H 	0.079	0.707	0.587	0.045
Mof_H 	H 	0.07	0.657	0.567	0.009
Mof_H 	H 	0.191	0.674	0.532	-0.183
Mof_H 	H 	0.15	0.71	0.525	-0.048
Mof_H 	H 	0.143	0.657	0.512	-0.024
Mof_H 	H 	0.12	0.493	0.665	0.16
Mof_H 	H 	0.175	0.434	0.685	-0.002
Mof_H 	H 	0.254	0.45	0.699	-0.001
Mof_H 	H 	0.277	0.52	0.691	0.12
Mof_H 	H 	0.232	0.581	0.672	-0.225
Mof_H 	H 	0.137	0.494	0.675	-0.241
Mof_H 	H 	0.2	0.438	0.691	0.102
Mof_H 	H 	0.274	0.462	0.701	-0.013
Mof_H 	H 	0.289	0.542	0.684	0.023
Mof_H 	H 	0.226	0.597	0.664	0.165
Mof_Ni	Ni	0.8811	0.101	0.8473	0.545
Mof_O 	O 	0.9116	0.0547	0.8907	-0.42
Mof_O 	O 	0.8704	0.0527	0.957	-0.254
Mof_C 	C 	0.902	0.0373	0.9298	0.346
Mof_C 	C 	0.9306	0.9965	0.9442	-0.134
Mof_C 	C 	0.9184	0.9699	0.9837	0.062
Mof_O 	O 	0.9227	0.1582	0.8648	-0.689
Mof_O 	O 	0.8414	0.126	0.9038	0.446
Mof_C 	C 	0.9121	0.1744	0.9102	-0.083
Mof_C 	C 	0.8583	0.1697	0.9206	-0.061
Mof_C 	C 	0.9348	0.2173	0.9207	0.086
Mof_C 	C 	0.8424	0.1787	0.9668	0.259
Mof_N 	N 	0.8348	0.0456	0.8331	-0.233
Mof_C 	C 	0.8482	0.0017	0.8296	0.101
Mof_C 	C 	0.8143	0.9657	0.8177	-0.049
Mof_C 	C 	0.768	0.9743	0.8099	0.008
Mof_C 	C 	0.7556	0.0143	0.8142	-0.185
Mof_C 	C 	0.782	0.051	0.8251	0.108
Mof_N 	N 	0.817	0.048	0.8318	-0.066
Mof_C 	C 	0.8308	0.0034	0.8239	0.183
Mof_C 	C 	0.7927	0.9706	0.813	-0.17
Mof_C 	C 	0.7505	0.9829	0.8082	0.186
Mof_C 	C 	0.7425	0.031	0.8177	-0.097
Mof_C 	C 	0.7799	0.0646	0.8299	0.142
Mof_H 	H 	0.89	0.98	0.998	0.031
Mof_H 	H 	0.927	0.152	0.931	0.027
Mof_H 	H 	0.897	0.204	0.922	-0.111
Mof_H 	H 	0.908	0.156	0.945	0.015
Mof_H 	H 	0.967	0.215	0.912	0.089
Mof_H 	H 	0.932	0.224	0.954	0.005
Mof_H 	H 	0.92	0.242	0.903	-0.003
Mof_H 	H 	0.843	0.193	0.901	0.027
Mof_H 	H 	0.921	0.207	0.913	0.045
Mof_H 	H 	0.93	0.157	0.933	0.009
Mof_H 	H 	0.809	0.174	0.968	-0.183
Mof_H 	H 	0.85	0.21	0.975	-0.048
Mof_H 	H 	0.857	0.157	0.988	-0.024
Mof_H 	H 	0.88	0.993	0.835	0.16
Mof_H 	H 	0.825	0.934	0.815	-0.002
Mof_H 	H 	0.746	0.95	0.801	-0.001
Mof_H 	H 	0.723	0.02	0.809	0.12
Mof_H 	H 	0.768	0.081	0.828	-0.225
Mof_H 	H 	0.863	0.994	0.825	-0.241
Mof_H 	H 	0.8	0.938	0.809	0.102
Mof_H 	H 	0.726	0.962	0.799	-0.013
Mof_H 	H 	0.711	0.042	0.816	0.023
Mof_H 	H 	0.774	0.097	0.836	0.165
Mof_Ni	Ni	0.8689	0.0973	0.851	0.545
Mof_O 	O 	0.8384	0.1407	0.8047	-0.42
Mof_O 	O 	0.8796	0.207	0.8027	-0.254
Mof_C 	C 	0.848	0.1798	0.7873	0.346
Mof_C 	C 	0.8194	0.1942	0.7465	-0.134
Mof_C 	C 	0.8316	0.2337	0.7199	0.062
Mof_O 	O 	0.8273	0.1148	0.9082	-0.689
Mof_O 	O 	0.9086	0.1538	0.876	0.446
Mof_C 	C 	0.8379	0.1602	0.9244	-0.083
Mof_C 	C 	0.8917	0.1706	0.9197	-0.061
Mof_C 	C 	0.8152	0.1707	0.9673	0.086
Mof_C 	C 	0.9076	0.2168	0.9287	0.259
Mof_N 	N 	0.9152	0.0831	0.7956	-0.233
Mof_C 	C 	0.9018	0.0796	0.7517	0.101
Mof_C 	C 	0.9357	0.0677	0.7157	-0.049
Mof_C 	C 	0.982	0.0599	0.7243	0.008
Mof_C 	C 	0.9944	0.0642	0.7643	-0.185
Mof_C 	C 	0.968	0.0751	0.801	0.108
Mof_N 	N 	0.933	0.0818	0.798	-0.066
Mof_C 	C 	0.9192	0.0739	0.7534	0.183
Mof_C 	C 	0.9573	0.063	0.7206	-0.17
Mof_C 	C 	0.9995	0.0582	0.7329	0.186
Mof_C 	C 	0.0075	0.0677	0.781	-0.097
Mof_C 	C 	0.9701	0.0799	0.8146	0.142
Mof_H 	H 	0.86	0.248	0.73	0.031
Mof_H 	H 	0.823	0.181	0.902	0.027
Mof_H 	H 	0.853	0.172	0.954	-0.111
Mof_H 	H 	0.842	0.195	0.906	0.015
Mof_H 	H 	0.783	0.162	0.965	0.089
Mof_H 	H 	0.818	0.204	0.974	0.005
Mof_H 	H 	0.83	0.153	0.992	-0.003
Mof_H 	H 	0.907	0.151	0.943	0.027
Mof_H 	H 	0.829	0.163	0.957	0.045
Mof_H 	H 	0.82	0.183	0.907	0.009
Mof_H 	H 	0.941	0.218	0.924	-0.183
Mof_H 	H 	0.9	0.225	0.96	-0.048
Mof_H 	H 	0.893	0.238	0.907	-0.024
Mof_H 	H 	0.87	0.085	0.743	0.16
Mof_H 	H 	0.925	0.065	0.684	-0.002
Mof_H 	H 	0.004	0.051	0.7	-0.001
Mof_H 	H 	0.027	0.059	0.77	0.12
Mof_H 	H 	0.982	0.078	0.831	-0.225
Mof_H 	H 	0.887	0.075	0.744	-0.241
Mof_H 	H 	0.95	0.059	0.688	0.102
Mof_H 	H 	0.024	0.049	0.712	-0.013
Mof_H 	H 	0.039	0.066	0.792	0.023
Mof_H 	H 	0.976	0.086	0.847	0.165
Mof_Ni	Ni	0.6311	0.9027	0.351	0.545
Mof_O 	O 	0.6616	0.8593	0.3047	-0.42
Mof_O 	O 	0.6204	0.793	0.3027	-0.254
Mof_C 	C 	0.652	0.8202	0.2873	0.346
Mof_C 	C 	0.6806	0.8058	0.2465	-0.134
Mof_C 	C 	0.6684	0.7663	0.2199	0.062
Mof_O 	O 	0.6727	0.8852	0.4082	-0.689
Mof_O 	O 	0.5914	0.8462	0.376	0.446
Mof_C 	C 	0.6621	0.8398	0.4244	-0.083
Mof_C 	C 	0.6083	0.8294	0.4197	-0.061
Mof_C 	C 	0.6848	0.8293	0.4673	0.086
Mof_C 	C 	0.5924	0.7832	0.4287	0.259
Mof_N 	N 	0.5848	0.9169	0.2956	-0.233
Mof_C 	C 	0.5982	0.9204	0.2517	0.101
Mof_C 	C 	0.5643	0.9323	0.2157	-0.049
Mof_C 	C 	0.518	0.9401	0.2243	0.008
Mof_C 	C 	0.5056	0.9358	0.2643	-0.185
Mof_C 	C 	0.532	0.9249	0.301	0.108
Mof_N 	N 	0.567	0.9182	0.298	-0.066
Mof_C 	C 	0.5808	0.9261	0.2534	0.183
Mof_C 	C 	0.5427	0.937	0.2206	-0.17
Mof_C 	C 	0.5005	0.9418	0.2329	0.186
Mof_C 	C 	0.4925	0.9323	0.281	-0.097
Mof_C 	C 	0.5299	0.9201	0.3146	0.142
Mof_H 	H 	0.64	0.752	0.23	0.031
Mof_H 	H 	0.677	0.819	0.402	0.027
Mof_H 	H 	0.647	0.828	0.454	-0.111
Mof_H 	H 	0.658	0.805	0.406	0.015
Mof_H 	H 	0.717	0.838	0.465	0.089
Mof_H 	H 	0.682	0.796	0.474	0.005
Mof_H 	H 	0.67	0.847	0.492	-0.003
Mof_H 	H 	0.593	0.849	0.443	0.027
Mof_H 	H 	0.671	0.837	0.457	0.045
Mof_H 	H 	0.68	0.817	0.407	0.009
Mof_H 	H 	0.559	0.782	0.424	-0.183
Mof_H 	H 	0.6	0.775	0.46	-0.048
Mof_H 	H 	0.607	0.762	0.407	-0.024
Mof_H 	H 	0.63	0.915	0.243	0.16
Mof_H 	H 	0.575	0.935	0.184	-0.002
Mof_H 	H 	0.496	0.949	0.2	-0.001
Mof_H 	H 	0.473	0.941	0.27	0.12
Mof_H 	H 	0.518	0.922	0.331	-0.225
Mof_H 	H 	0.613	0.925	0.244	-0.241
Mof_H 	H 	0.55	0.941	0.188	0.102
Mof_H 	H 	0.476	0.951	0.212	-0.013
Mof_H 	H 	0.461	0.934	0.292	0.023
Mof_H 	H 	0.524	0.914	0.347	0.165
Mof_Ni	Ni	0.3689	0.4027	0.149	0.545
Mof_O 	O 	0.3384	0.3593	0.1953	-0.42
Mof_O 	O 	0.3796	0.293	0.1973	-0.254
Mof_C 	C 	0.348	0.3202	0.2127	0.346
Mof_C 	C 	0.3194	0.3058	0.2535	-0.134
Mof_C 	C 	0.3316	0.2663	0.2801	0.062
Mof_O 	O 	0.3273	0.3852	0.0918	-0.689
Mof_O 	O 	0.4086	0.3462	0.124	0.446
Mof_C 	C 	0.3379	0.3398	0.0756	-0.083
Mof_C 	C 	0.3917	0.3294	0.0803	-0.061
Mof_C 	C 	0.3152	0.3293	0.0327	0.086
Mof_C 	C 	0.4076	0.2832	0.0713	0.259
Mof_N 	N 	0.4152	0.4169	0.2044	-0.233
Mof_C 	C 	0.4018	0.4204	0.2483	0.101
Mof_C 	C 	0.4357	0.4323	0.2843	-0.049
Mof_C 	C 	0.482	0.4401	0.2757	0.008
Mof_C 	C 	0.4944	0.4358	0.2357	-0.185
Mof_C 	C 	0.468	0.4249	0.199	0.108
Mof_N 	N 	0.433	0.4182	0.202	-0.066
Mof_C 	C 	0.4192	0.4261	0.2466	0.183
Mof_C 	C 	0.4573	0.437	0.2794	-0.17
Mof_C 	C 	0.4995	0.4418	0.2671	0.186
Mof_C 	C 	0.5075	0.4323	0.219	-0.097
Mof_C 	C 	0.4701	0.4201	0.1854	0.142
Mof_H 	H 	0.36	0.252	0.27	0.031
Mof_H 	H 	0.323	0.319	0.098	0.027
Mof_H 	H 	0.353	0.328	0.046	-0.111
Mof_H 	H 	0.342	0.305	0.094	0.015
Mof_H 	H 	0.283	0.338	0.035	0.089
Mof_H 	H 	0.318	0.296	0.026	0.005
Mof_H 	H 	0.33	0.347	0.008	-0.003
Mof_H 	H 	0.407	0.349	0.057	0.027
Mof_H 	H 	0.329	0.337	0.043	0.045
Mof_H 	H 	0.32	0.317	0.093	0.009
Mof_H 	H 	0.441	0.282	0.076	-0.183
Mof_H 	H 	0.4	0.275	0.04	-0.048
Mof_H 	H 	0.393	0.262	0.093	-0.024
Mof_H 	H 	0.37	0.415	0.257	0.16
Mof_H 	H 	0.425	0.435	0.316	-0.002
Mof_H 	H 	0.504	0.449	0.3	-0.001
Mof_H 	H 	0.527	0.441	0.23	0.12
Mof_H 	H 	0.482	0.422	0.169	-0.225
Mof_H 	H 	0.387	0.425	0.256	-0.241
Mof_H 	H 	0.45	0.441	0.312	0.102
Mof_H 	H 	0.524	0.451	0.288	-0.013
Mof_H 	H 	0.539	0.434	0.208	0.023
Mof_H 	H 	0.476	0.414	0.153	0.165
Mof_Ni	Ni	0.1311	0.5973	0.649	0.545
Mof_O 	O 	0.1616	0.6407	0.6953	-0.42
Mof_O 	O 	0.1204	0.707	0.6973	-0.254
Mof_C 	C 	0.152	0.6798	0.7127	0.346
Mof_C 	C 	0.1806	0.6942	0.7535	-0.134
Mof_C 	C 	0.1684	0.7337	0.7801	0.062
Mof_O 	O 	0.1727	0.6148	0.5918	-0.689
Mof_O 	O 	0.0914	0.6538	0.624	0.446
Mof_C 	C 	0.1621	0.6602	0.5756	-0.083
Mof_C 	C 	0.1083	0.6706	0.5803	-0.061
Mof_C 	C 	0.1848	0.6707	0.5327	0.086
Mof_C 	C 	0.0924	0.7168	0.5713	0.259
Mof_N 	N 	0.0848	0.5831	0.7044	-0.233
Mof_C 	C 	0.0982	0.5796	0.7483	0.101
Mof_C 	C 	0.0643	0.5677	0.7843	-0.049
Mof_C 	C 	0.018	0.5599	0.7757	0.008
Mof_C 	C 	0.0056	0.5642	0.7357	-0.185
Mof_C 	C 	0.032	0.5751	0.699	0.108
Mof_N 	N 	0.067	0.5818	0.702	-0.066
Mof_C 	C 	0.0808	0.5739	0.7466	0.183
Mof_C 	C 	0.0427	0.563	0.7794	-0.17
Mof_C 	C 	0.0005	0.5582	0.7671	0.186
Mof_C 	C 	0.9925	0.5677	0.719	-0.097
Mof_C 	C 	0.0299	0.5799	0.6854	0.142
Mof_H 	H 	0.14	0.748	0.77	0.031
Mof_H 	H 	0.177	0.681	0.598	0.027
Mof_H 	H 	0.147	0.672	0.546	-0.111
Mof_H 	H 	0.158	0.695	0.594	0.015
Mof_H 	H 	0.217	0.662	0.535	0.089
Mof_H 	H 	0.182	0.704	0.526	0.005
Mof_H 	H 	0.17	0.653	0.508	-0.003
Mof_H 	H 	0.093	0.651	0.557	0.027
Mof_H 	H 	0.171	0.663	0.543	0.045
Mof_H 	H 	0.18	0.683	0.593	0.009
Mof_H 	H 	0.059	0.718	0.576	-0.183
Mof_H 	H 	0.1	0.725	0.54	-0.048
Mof_H 	H 	0.107	0.738	0.593	-0.024
Mof_H 	H 	0.13	0.585	0.757	0.16
Mof_H 	H 	0.075	0.565	0.816	-0.002
Mof_H 	H 	0.996	0.551	0.8	-0.001
Mof_H 	H 	0.973	0.559	0.73	0.12
Mof_H 	H 	0.018	0.578	0.669	-0.225
Mof_H 	H 	0.113	0.575	0.756	-0.241
Mof_H 	H 	0.05	0.559	0.812	0.102
Mof_H 	H 	0.976	0.549	0.788	-0.013
Mof_H 	H 	0.961	0.566	0.708	0.023
Mof_H 	H 	0.024	0.586	0.653	0.165
Mof_Ni	Ni	0.5973	0.649	0.1311	0.545
Mof_O 	O 	0.6407	0.6953	0.1616	-0.42
Mof_O 	O 	0.707	0.6973	0.1204	-0.254
Mof_C 	C 	0.6798	0.7127	0.152	0.346
Mof_C 	C 	0.6942	0.7535	0.1806	-0.134
Mof_C 	C 	0.7337	0.7801	0.1684	0.062
Mof_O 	O 	0.6148	0.5918	0.1727	-0.689
Mof_O 	O 	0.6538	0.624	0.0914	0.446
Mof_C 	C 	0.6602	0.5756	0.1621	-0.083
Mof_C 	C 	0.6706	0.5803	0.1083	-0.061
Mof_C 	C 	0.6707	0.5327	0.1848	0.086
Mof_C 	C 	0.7168	0.5713	0.0924	0.259
Mof_N 	N 	0.5831	0.7044	0.0848	-0.233
Mof_C 	C 	0.5796	0.7483	0.0982	0.101
Mof_C 	C 	0.5677	0.7843	0.0643	-0.049
Mof_C 	C 	0.5599	0.7757	0.018	0.008
Mof_C 	C 	0.5642	0.7357	0.0056	-0.185
Mof_C 	C 	0.5751	0.699	0.032	0.108
Mof_N 	N 	0.5818	0.702	0.067	-0.066
Mof_C 	C 	0.5739	0.7466	0.0808	0.183
Mof_C 	C 	0.563	0.7794	0.0427	-0.17
Mof_C 	C 	0.5582	0.7671	0.0005	0.186
Mof_C 	C 	0.5677	0.719	0.9925	-0.097
Mof_C 	C 	0.5799	0.6854	0.0299	0.142
Mof_H 	H 	0.748	0.77	0.14	0.031
Mof_H 	H 	0.681	0.598	0.177	0.027
Mof_H 	H 	0.672	0.546	0.147	-0.111
Mof_H 	H 	0.695	0.594	0.158	0.015
Mof_H 	H 	0.662	0.535	0.217	0.089
Mof_H 	H 	0.704	0.526	0.182	0.005
Mof_H 	H 	0.653	0.508	0.17	-0.003
Mof_H 	H 	0.651	0.557	0.093	0.027
Mof_H 	H 	0.663	0.543	0.171	0.045
Mof_H 	H 	0.683	0.593	0.18	0.009
Mof_H 	H 	0.718	0.576	0.059	-0.183
Mof_H 	H 	0.725	0.54	0.1	-0.048
Mof_H 	H 	0.738	0.593	0.107	-0.024
Mof_H 	H 	0.585	0.757	0.13	0.16
Mof_H 	H 	0.565	0.816	0.075	-0.002
Mof_H 	H 	0.551	0.8	0.996	-0.001
Mof_H 	H 	0.559	0.73	0.973	0.12
Mof_H 	H 	0.578	0.669	0.018	-0.225
Mof_H 	H 	0.575	0.756	0.113	-0.241
Mof_H 	H 	0.559	0.812	0.05	0.102
Mof_H 	H 	0.549	0.788	0.976	-0.013
Mof_H 	H 	0.566	0.708	0.961	0.023
Mof_H 	H 	0.586	0.653	0.024	0.165
Mof_Ni	Ni	0.4027	0.149	0.3689	0.545
Mof_O 	O 	0.3593	0.1953	0.3384	-0.42
Mof_O 	O 	0.293	0.1973	0.3796	-0.254
Mof_C 	C 	0.3202	0.2127	0.348	0.346
Mof_C 	C 	0.3058	0.2535	0.3194	-0.134
Mof_C 	C 	0.2663	0.2801	0.3316	0.062
Mof_O 	O 	0.3852	0.0918	0.3273	-0.689
Mof_O 	O 	0.3462	0.124	0.4086	0.446
Mof_C 	C 	0.3398	0.0756	0.3379	-0.083
Mof_C 	C 	0.3294	0.0803	0.3917	-0.061
Mof_C 	C 	0.3293	0.0327	0.3152	0.086
Mof_C 	C 	0.2832	0.0713	0.4076	0.259
Mof_N 	N 	0.4169	0.2044	0.4152	-0.233
Mof_C 	C 	0.4204	0.2483	0.4018	0.101
Mof_C 	C 	0.4323	0.2843	0.4357	-0.049
Mof_C 	C 	0.4401	0.2757	0.482	0.008
Mof_C 	C 	0.4358	0.2357	0.4944	-0.185
Mof_C 	C 	0.4249	0.199	0.468	0.108
Mof_N 	N 	0.4182	0.202	0.433	-0.066
Mof_C 	C 	0.4261	0.2466	0.4192	0.183
Mof_C 	C 	0.437	0.2794	0.4573	-0.17
Mof_C 	C 	0.4418	0.2671	0.4995	0.186
Mof_C 	C 	0.4323	0.219	0.5075	-0.097
Mof_C 	C 	0.4201	0.1854	0.4701	0.142
Mof_H 	H 	0.252	0.27	0.36	0.031
Mof_H 	H 	0.319	0.098	0.323	0.027
Mof_H 	H 	0.328	0.046	0.353	-0.111
Mof_H 	H 	0.305	0.094	0.342	0.015
Mof_H 	H 	0.338	0.035	0.283	0.089
Mof_H 	H 	0.296	0.026	0.318	0.005
Mof_H 	H 	0.347	0.008	0.33	-0.003
Mof_H 	H 	0.349	0.057	0.407	0.027
Mof_H 	H 	0.337	0.043	0.329	0.045
Mof_H 	H 	0.317	0.093	0.32	0.009
Mof_H 	H 	0.282	0.076	0.441	-0.183
Mof_H 	H 	0.275	0.04	0.4	-0.048
Mof_H 	H 	0.262	0.093	0.393	-0.024
Mof_H 	H 	0.415	0.257	0.37	0.16
Mof_H 	H 	0.435	0.316	0.425	-0.002
Mof_H 	H 	0.449	0.3	0.504	-0.001
Mof_H 	H 	0.441	0.23	0.527	0.12
Mof_H 	H 	0.422	0.169	0.482	-0.225
Mof_H 	H 	0.425	0.256	0.387	-0.241
Mof_H 	H 	0.441	0.312	0.45	0.102
Mof_H 	H 	0.451	0.288	0.524	-0.013
Mof_H 	H 	0.434	0.208	0.539	0.023
Mof_H 	H 	0.414	0.153	0.476	0.165
Mof_Ni	Ni	0.9027	0.351	0.6311	0.545
Mof_O 	O 	0.8593	0.3047	0.6616	-0.42
Mof_O 	O 	0.793	0.3027	0.6204	-0.254
Mof_C 	C 	0.8202	0.2873	0.652	0.346
Mof_C 	C 	0.8058	0.2465	0.6806	-0.134
Mof_C 	C 	0.7663	0.2199	0.6684	0.062
Mof_O 	O 	0.8852	0.4082	0.6727	-0.689
Mof_O 	O 	0.8462	0.376	0.5914	0.446
Mof_C 	C 	0.8398	0.4244	0.6621	-0.083
Mof_C 	C 	0.8294	0.4197	0.6083	-0.061
Mof_C 	C 	0.8293	0.4673	0.6848	0.086
Mof_C 	C 	0.7832	0.4287	0.5924	0.259
Mof_N 	N 	0.9169	0.2956	0.5848	-0.233
Mof_C 	C 	0.9204	0.2517	0.5982	0.101
Mof_C 	C 	0.9323	0.2157	0.5643	-0.049
Mof_C 	C 	0.9401	0.2243	0.518	0.008
Mof_C 	C 	0.9358	0.2643	0.5056	-0.185
Mof_C 	C 	0.9249	0.301	0.532	0.108
Mof_N 	N 	0.9182	0.298	0.567	-0.066
Mof_C 	C 	0.9261	0.2534	0.5808	0.183
Mof_C 	C 	0.937	0.2206	0.5427	-0.17
Mof_C 	C 	0.9418	0.2329	0.5005	0.186
Mof_C 	C 	0.9323	0.281	0.4925	-0.097
Mof_C 	C 	0.9201	0.3146	0.5299	0.142
Mof_H 	H 	0.752	0.23	0.64	0.031
Mof_H 	H 	0.819	0.402	0.677	0.027
Mof_H 	H 	0.828	0.454	0.647	-0.111
Mof_H 	H 	0.805	0.406	0.658	0.015
Mof_H 	H 	0.838	0.465	0.717	0.089
Mof_H 	H 	0.796	0.474	0.682	0.005
Mof_H 	H 	0.847	0.492	0.67	-0.003
Mof_H 	H 	0.849	0.443	0.593	0.027
Mof_H 	H 	0.837	0.457	0.671	0.045
Mof_H 	H 	0.817	0.407	0.68	0.009
Mof_H 	H 	0.782	0.424	0.559	-0.183
Mof_H 	H 	0.775	0.46	0.6	-0.048
Mof_H 	H 	0.762	0.407	0.607	-0.024
Mof_H 	H 	0.915	0.243	0.63	0.16
Mof_H 	H 	0.935	0.184	0.575	-0.002
Mof_H 	H 	0.949	0.2	0.496	-0.001
Mof_H 	H 	0.941	0.27	0.473	0.12
Mof_H 	H 	0.922	0.331	0.518	-0.225
Mof_H 	H 	0.925	0.244	0.613	-0.241
Mof_H 	H 	0.941	0.188	0.55	0.102
Mof_H 	H 	0.951	0.212	0.476	-0.013
Mof_H 	H 	0.934	0.292	0.461	0.023
Mof_H 	H 	0.914	0.347	0.524	0.165
Mof_Ni	Ni	0.0973	0.851	0.8689	0.545
Mof_O 	O 	0.1407	0.8047	0.8384	-0.42
Mof_O 	O 	0.207	0.8027	0.8796	-0.254
Mof_C 	C 	0.1798	0.7873	0.848	0.346
Mof_C 	C 	0.1942	0.7465	0.8194	-0.134
Mof_C 	C 	0.2337	0.7199	0.8316	0.062
Mof_O 	O 	0.1148	0.9082	0.8273	-0.689
Mof_O 	O 	0.1538	0.876	0.9086	0.446
Mof_C 	C 	0.1602	0.9244	0.8379	-0.083
Mof_C 	C 	0.1706	0.9197	0.8917	-0.061
Mof_C 	C 	0.1707	0.9673	0.8152	0.086
Mof_C 	C 	0.2168	0.9287	0.9076	0.259
Mof_N 	N 	0.0831	0.7956	0.9152	-0.233
Mof_C 	C 	0.0796	0.7517	0.9018	0.101
Mof_C 	C 	0.0677	0.7157	0.9357	-0.049
Mof_C 	C 	0.0599	0.7243	0.982	0.008
Mof_C 	C 	0.0642	0.7643	0.9944	-0.185
Mof_C 	C 	0.0751	0.801	0.968	0.108
Mof_N 	N 	0.0818	0.798	0.933	-0.066
Mof_C 	C 	0.0739	0.7534	0.9192	0.183
Mof_C 	C 	0.063	0.7206	0.9573	-0.17
Mof_C 	C 	0.0582	0.7329	0.9995	0.186
Mof_C 	C 	0.0677	0.781	0.0075	-0.097
Mof_C 	C 	0.0799	0.8146	0.9701	0.142
Mof_H 	H 	0.248	0.73	0.86	0.031
Mof_H 	H 	0.181	0.902	0.823	0.027
Mof_H 	H 	0.172	0.954	0.853	-0.111
Mof_H 	H 	0.195	0.906	0.842	0.015
Mof_H 	H 	0.162	0.965	0.783	0.089
Mof_H 	H 	0.204	0.974	0.818	0.005
Mof_H 	H 	0.153	0.992	0.83	-0.003
Mof_H 	H 	0.151	0.943	0.907	0.027
Mof_H 	H 	0.163	0.957	0.829	0.045
Mof_H 	H 	0.183	0.907	0.82	0.009
Mof_H 	H 	0.218	0.924	0.941	-0.183
Mof_H 	H 	0.225	0.96	0.9	-0.048
Mof_H 	H 	0.238	0.907	0.893	-0.024
Mof_H 	H 	0.085	0.743	0.87	0.16
Mof_H 	H 	0.065	0.684	0.925	-0.002
Mof_H 	H 	0.051	0.7	0.004	-0.001
Mof_H 	H 	0.059	0.77	0.027	0.12
Mof_H 	H 	0.078	0.831	0.982	-0.225
Mof_H 	H 	0.075	0.744	0.887	-0.241
Mof_H 	H 	0.059	0.688	0.95	0.102
Mof_H 	H 	0.049	0.712	0.024	-0.013
Mof_H 	H 	0.066	0.792	0.039	0.023
Mof_H 	H 	0.086	0.847	0.976	0.165
Mof_Ni	Ni	0.149	0.3689	0.4027	0.545
Mof_O 	O 	0.1953	0.3384	0.3593	-0.42
Mof_O 	O 	0.1973	0.3796	0.293	-0.254
Mof_C 	C 	0.2127	0.348	0.3202	0.346
Mof_C 	C 	0.2535	0.3194	0.3058	-0.134
Mof_C 	C 	0.2801	0.3316	0.2663	0.062
Mof_O 	O 	0.0918	0.3273	0.3852	-0.689
Mof_O 	O 	0.124	0.4086	0.3462	0.446
Mof_C 	C 	0.0756	0.3379	0.3398	-0.083
Mof_C 	C 	0.0803	0.3917	0.3294	-0.061
Mof_C 	C 	0.0327	0.3152	0.3293	0.086
Mof_C 	C 	0.0713	0.4076	0.2832	0.259
Mof_N 	N 	0.2044	0.4152	0.4169	-0.233
Mof_C 	C 	0.2483	0.4018	0.4204	0.101
Mof_C 	C 	0.2843	0.4357	0.4323	-0.049
Mof_C 	C 	0.2757	0.482	0.4401	0.008
Mof_C 	C 	0.2357	0.4944	0.4358	-0.185
Mof_C 	C 	0.199	0.468	0.4249	0.108
Mof_N 	N 	0.202	0.433	0.4182	-0.066
Mof_C 	C 	0.2466	0.4192	0.4261	0.183
Mof_C 	C 	0.2794	0.4573	0.437	-0.17
Mof_C 	C 	0.2671	0.4995	0.4418	0.186
Mof_C 	C 	0.219	0.5075	0.4323	-0.097
Mof_C 	C 	0.1854	0.4701	0.4201	0.142
Mof_H 	H 	0.27	0.36	0.252	0.031
Mof_H 	H 	0.098	0.323	0.319	0.027
Mof_H 	H 	0.046	0.353	0.328	-0.111
Mof_H 	H 	0.094	0.342	0.305	0.015
Mof_H 	H 	0.035	0.283	0.338	0.089
Mof_H 	H 	0.026	0.318	0.296	0.005
Mof_H 	H 	0.008	0.33	0.347	-0.003
Mof_H 	H 	0.057	0.407	0.349	0.027
Mof_H 	H 	0.043	0.329	0.337	0.045
Mof_H 	H 	0.093	0.32	0.317	0.009
Mof_H 	H 	0.076	0.441	0.282	-0.183
Mof_H 	H 	0.04	0.4	0.275	-0.048
Mof_H 	H 	0.093	0.393	0.262	-0.024
Mof_H 	H 	0.257	0.37	0.415	0.16
Mof_H 	H 	0.316	0.425	0.435	-0.002
Mof_H 	H 	0.3	0.504	0.449	-0.001
Mof_H 	H 	0.23	0.527	0.441	0.12
Mof_H 	H 	0.169	0.482	0.422	-0.225
Mof_H 	H 	0.256	0.387	0.425	-0.241
Mof_H 	H 	0.312	0.45	0.441	0.102
Mof_H 	H 	0.288	0.524	0.451	-0.013
Mof_H 	H 	0.208	0.539	0.434	0.023
Mof_H 	H 	0.153	0.476	0.414	0.165
Mof_Ni	Ni	0.649	0.1311	0.5973	0.545
Mof_O 	O 	0.6953	0.1616	0.6407	-0.42
Mof_O 	O 	0.6973	0.1204	0.707	-0.254
Mof_C 	C 	0.7127	0.152	0.6798	0.346
Mof_C 	C 	0.7535	0.1806	0.6942	-0.134
Mof_C 	C 	0.7801	0.1684	0.7337	0.062
Mof_O 	O 	0.5918	0.1727	0.6148	-0.689
Mof_O 	O 	0.624	0.0914	0.6538	0.446
Mof_C 	C 	0.5756	0.1621	0.6602	-0.083
Mof_C 	C 	0.5803	0.1083	0.6706	-0.061
Mof_C 	C 	0.5327	0.1848	0.6707	0.086
Mof_C 	C 	0.5713	0.0924	0.7168	0.259
Mof_N 	N 	0.7044	0.0848	0.5831	-0.233
Mof_C 	C 	0.7483	0.0982	0.5796	0.101
Mof_C 	C 	0.7843	0.0643	0.5677	-0.049
Mof_C 	C 	0.7757	0.018	0.5599	0.008
Mof_C 	C 	0.7357	0.0056	0.5642	-0.185
Mof_C 	C 	0.699	0.032	0.5751	0.108
Mof_N 	N 	0.702	0.067	0.5818	-0.066
Mof_C 	C 	0.7466	0.0808	0.5739	0.183
Mof_C 	C 	0.7794	0.0427	0.563	-0.17
Mof_C 	C 	0.7671	0.0005	0.5582	0.186
Mof_C 	C 	0.719	0.9925	0.5677	-0.097
Mof_C 	C 	0.6854	0.0299	0.5799	0.142
Mof_H 	H 	0.77	0.14	0.748	0.031
Mof_H 	H 	0.598	0.177	0.681	0.027
Mof_H 	H 	0.546	0.147	0.672	-0.111
Mof_H 	H 	0.594	0.158	0.695	0.015
Mof_H 	H 	0.535	0.217	0.662	0.089
Mof_H 	H 	0.526	0.182	0.704	0.005
Mof_H 	H 	0.508	0.17	0.653	-0.003
Mof_H 	H 	0.557	0.093	0.651	0.027
Mof_H 	H 	0.543	0.171	0.663	0.045
Mof_H 	H 	0.593	0.18	0.683	0.009
Mof_H 	H 	0.576	0.059	0.718	-0.183
Mof_H 	H 	0.54	0.1	0.725	-0.048
Mof_H 	H 	0.593	0.107	0.738	-0.024
Mof_H 	H 	0.757	0.13	0.585	0.16
Mof_H 	H 	0.816	0.075	0.565	-0.002
Mof_H 	H 	0.8	0.996	0.551	-0.001
Mof_H 	H 	0.73	0.973	0.559	0.12
Mof_H 	H 	0.669	0.018	0.578	-0.225
Mof_H 	H 	0.756	0.113	0.575	-0.241
Mof_H 	H 	0.812	0.05	0.559	0.102
Mof_H 	H 	0.788	0.976	0.549	-0.013
Mof_H 	H 	0.708	0.961	0.566	0.023
Mof_H 	H 	0.653	0.024	0.586	0.165
Mof_Ni	Ni	0.851	0.8689	0.0973	0.545
Mof_O 	O 	0.8047	0.8384	0.1407	-0.42
Mof_O 	O 	0.8027	0.8796	0.207	-0.254
Mof_C 	C 	0.7873	0.848	0.1798	0.346
Mof_C 	C 	0.7465	0.8194	0.1942	-0.134
Mof_C 	C 	0.7199	0.8316	0.2337	0.062
Mof_O 	O 	0.9082	0.8273	0.1148	-0.689
Mof_O 	O 	0.876	0.9086	0.1538	0.446
Mof_C 	C 	0.9244	0.8379	0.1602	-0.083
Mof_C 	C 	0.9197	0.8917	0.1706	-0.061
Mof_C 	C 	0.9673	0.8152	0.1707	0.086
Mof_C 	C 	0.9287	0.9076	0.2168	0.259
Mof_N 	N 	0.7956	0.9152	0.0831	-0.233
Mof_C 	C 	0.7517	0.9018	0.0796	0.101
Mof_C 	C 	0.7157	0.9357	0.0677	-0.049
Mof_C 	C 	0.7243	0.982	0.0599	0.008
Mof_C 	C 	0.7643	0.9944	0.0642	-0.185
Mof_C 	C 	0.801	0.968	0.0751	0.108
Mof_N 	N 	0.798	0.933	0.0818	-0.066
Mof_C 	C 	0.7534	0.9192	0.0739	0.183
Mof_C 	C 	0.7206	0.9573	0.063	-0.17
Mof_C 	C 	0.7329	0.9995	0.0582	0.186
Mof_C 	C 	0.781	0.0075	0.0677	-0.097
Mof_C 	C 	0.8146	0.9701	0.0799	0.142
Mof_H 	H 	0.73	0.86	0.248	0.031
Mof_H 	H 	0.902	0.823	0.181	0.027
Mof_H 	H 	0.954	0.853	0.172	-0.111
Mof_H 	H 	0.906	0.842	0.195	0.015
Mof_H 	H 	0.965	0.783	0.162	0.089
Mof_H 	H 	0.974	0.818	0.204	0.005
Mof_H 	H 	0.992	0.83	0.153	-0.003
Mof_H 	H 	0.943	0.907	0.151	0.027
Mof_H 	H 	0.957	0.829	0.163	0.045
Mof_H 	H 	0.907	0.82	0.183	0.009
Mof_H 	H 	0.924	0.941	0.218	-0.183
Mof_H 	H 	0.96	0.9	0.225	-0.048
Mof_H 	H 	0.907	0.893	0.238	-0.024
Mof_H 	H 	0.743	0.87	0.085	0.16
Mof_H 	H 	0.684	0.925	0.065	-0.002
Mof_H 	H 	0.7	0.004	0.051	-0.001
Mof_H 	H 	0.77	0.027	0.059	0.12
Mof_H 	H 	0.831	0.982	0.078	-0.225
Mof_H 	H 	0.744	0.887	0.075	-0.241
Mof_H 	H 	0.688	0.95	0.059	0.102
Mof_H 	H 	0.712	0.024	0.049	-0.013
Mof_H 	H 	0.792	0.039	0.066	0.023
Mof_H 	H 	0.847	0.976	0.086	0.165
Mof_Ni	Ni	0.351	0.6311	0.9027	0.545
Mof_O 	O 	0.3047	0.6616	0.8593	-0.42
Mof_O 	O 	0.3027	0.6204	0.793	-0.254
Mof_C 	C 	0.2873	0.652	0.8202	0.346
Mof_C 	C 	0.2465	0.6806	0.8058	-0.134
Mof_C 	C 	0.2199	0.6684	0.7663	0.062
Mof_O 	O 	0.4082	0.6727	0.8852	-0.689
Mof_O 	O 	0.376	0.5914	0.8462	0.446
Mof_C 	C 	0.4244	0.6621	0.8398	-0.083
Mof_C 	C 	0.4197	0.6083	0.8294	-0.061
Mof_C 	C 	0.4673	0.6848	0.8293	0.086
Mof_C 	C 	0.4287	0.5924	0.7832	0.259
Mof_N 	N 	0.2956	0.5848	0.9169	-0.233
Mof_C 	C 	0.2517	0.5982	0.9204	0.101
Mof_C 	C 	0.2157	0.5643	0.9323	-0.049
Mof_C 	C 	0.2243	0.518	0.9401	0.008
Mof_C 	C 	0.2643	0.5056	0.9358	-0.185
Mof_C 	C 	0.301	0.532	0.9249	0.108
Mof_N 	N 	0.298	0.567	0.9182	-0.066
Mof_C 	C 	0.2534	0.5808	0.9261	0.183
Mof_C 	C 	0.2206	0.5427	0.937	-0.17
Mof_C 	C 	0.2329	0.5005	0.9418	0.186
Mof_C 	C 	0.281	0.4925	0.9323	-0.097
Mof_C 	C 	0.3146	0.5299	0.9201	0.142
Mof_H 	H 	0.23	0.64	0.752	0.031
Mof_H 	H 	0.402	0.677	0.819	0.027
Mof_H 	H 	0.454	0.647	0.828	-0.111
Mof_H 	H 	0.406	0.658	0.805	0.015
Mof_H 	H 	0.465	0.717	0.838	0.089
Mof_H 	H 	0.474	0.682	0.796	0.005
Mof_H 	H 	0.492	0.67	0.847	-0.003
Mof_H 	H 	0.443	0.593	0.849	0.027
Mof_H 	H 	0.457	0.671	0.837	0.045
Mof_H 	H 	0.407	0.68	0.817	0.009
Mof_H 	H 	0.424	0.559	0.782	-0.183
Mof_H 	H 	0.46	0.6	0.775	-0.048
Mof_H 	H 	0.407	0.607	0.762	-0.024
Mof_H 	H 	0.243	0.63	0.915	0.16
Mof_H 	H 	0.184	0.575	0.935	-0.002
Mof_H 	H 	0.2	0.496	0.949	-0.001
Mof_H 	H 	0.27	0.473	0.941	0.12
Mof_H 	H 	0.331	0.518	0.922	-0.225
Mof_H 	H 	0.244	0.613	0.925	-0.241
Mof_H 	H 	0.188	0.55	0.941	0.102
Mof_H 	H 	0.212	0.476	0.951	-0.013
Mof_H 	H 	0.292	0.461	0.934	0.023
Mof_H 	H 	0.347	0.524	0.914	0.165
Mof_Ni	Ni	0.8473	0.1189	0.399	0.545
Mof_O 	O 	0.8907	0.0884	0.4453	-0.42
Mof_O 	O 	0.957	0.1296	0.4473	-0.254
Mof_C 	C 	0.9298	0.098	0.4627	0.346
Mof_C 	C 	0.9442	0.0694	0.5035	-0.134
Mof_C 	C 	0.9837	0.0816	0.5301	0.062
Mof_O 	O 	0.8648	0.0773	0.3418	-0.689
Mof_O 	O 	0.9038	0.1586	0.374	0.446
Mof_C 	C 	0.9102	0.0879	0.3256	-0.083
Mof_C 	C 	0.9206	0.1417	0.3303	-0.061
Mof_C 	C 	0.9207	0.0652	0.2827	0.086
Mof_C 	C 	0.9668	0.1576	0.3213	0.259
Mof_N 	N 	0.8331	0.1652	0.4544	-0.233
Mof_C 	C 	0.8296	0.1518	0.4983	0.101
Mof_C 	C 	0.8177	0.1857	0.5343	-0.049
Mof_C 	C 	0.8099	0.232	0.5257	0.008
Mof_C 	C 	0.8142	0.2444	0.4857	-0.185
Mof_C 	C 	0.8251	0.218	0.449	0.108
Mof_N 	N 	0.8318	0.183	0.452	-0.066
Mof_C 	C 	0.8239	0.1692	0.4966	0.183
Mof_C 	C 	0.813	0.2073	0.5294	-0.17
Mof_C 	C 	0.8082	0.2495	0.5171	0.186
Mof_C 	C 	0.8177	0.2575	0.469	-0.097
Mof_C 	C 	0.8299	0.2201	0.4354	0.142
Mof_H 	H 	0.998	0.11	0.52	0.031
Mof_H 	H 	0.931	0.073	0.348	0.027
Mof_H 	H 	0.922	0.103	0.296	-0.111
Mof_H 	H 	0.945	0.092	0.344	0.015
Mof_H 	H 	0.912	0.033	0.285	0.089
Mof_H 	H 	0.954	0.068	0.276	0.005
Mof_H 	H 	0.903	0.08	0.258	-0.003
Mof_H 	H 	0.901	0.157	0.307	0.027
Mof_H 	H 	0.913	0.079	0.293	0.045
Mof_H 	H 	0.933	0.07	0.343	0.009
Mof_H 	H 	0.968	0.191	0.326	-0.183
Mof_H 	H 	0.975	0.15	0.29	-0.048
Mof_H 	H 	0.988	0.143	0.343	-0.024
Mof_H 	H 	0.835	0.12	0.507	0.16
Mof_H 	H 	0.815	0.175	0.566	-0.002
Mof_H 	H 	0.801	0.254	0.55	-0.001
Mof_H 	H 	0.809	0.277	0.48	0.12
Mof_H 	H 	0.828	0.232	0.419	-0.225
Mof_H 	H 	0.825	0.137	0.506	-0.241
Mof_H 	H 	0.809	0.2	0.562	0.102
Mof_H 	H 	0.799	0.274	0.538	-0.013
Mof_H 	H 	0.816	0.289	0.458	0.023
Mof_H 	H 	0.836	0.226	0.403	0.165
Mof_Ni	Ni	0.6527	0.8811	0.899	0.545
Mof_O 	O 	0.6093	0.9116	0.9453	-0.42
Mof_O 	O 	0.543	0.8704	0.9473	-0.254
Mof_C 	C 	0.5702	0.902	0.9627	0.346
Mof_C 	C 	0.5558	0.9306	0.0035	-0.134
Mof_C 	C 	0.5163	0.9184	0.0301	0.062
Mof_O 	O 	0.6352	0.9227	0.8418	-0.689
Mof_O 	O 	0.5962	0.8414	0.874	0.446
Mof_C 	C 	0.5898	0.9121	0.8256	-0.083
Mof_C 	C 	0.5794	0.8583	0.8303	-0.061
Mof_C 	C 	0.5793	0.9348	0.7827	0.086
Mof_C 	C 	0.5332	0.8424	0.8213	0.259
Mof_N 	N 	0.6669	0.8348	0.9544	-0.233
Mof_C 	C 	0.6704	0.8482	0.9983	0.101
Mof_C 	C 	0.6823	0.8143	0.0343	-0.049
Mof_C 	C 	0.6901	0.768	0.0257	0.008
Mof_C 	C 	0.6858	0.7556	0.9857	-0.185
Mof_C 	C 	0.6749	0.782	0.949	0.108
Mof_N 	N 	0.6682	0.817	0.952	-0.066
Mof_C 	C 	0.6761	0.8308	0.9966	0.183
Mof_C 	C 	0.687	0.7927	0.0294	-0.17
Mof_C 	C 	0.6918	0.7505	0.0171	0.186
Mof_C 	C 	0.6823	0.7425	0.969	-0.097
Mof_C 	C 	0.6701	0.7799	0.9354	0.142
Mof_H 	H 	0.502	0.89	0.02	0.031
Mof_H 	H 	0.569	0.927	0.848	0.027
Mof_H 	H 	0.578	0.897	0.796	-0.111
Mof_H 	H 	0.555	0.908	0.844	0.015
Mof_H 	H 	0.588	0.967	0.785	0.089
Mof_H 	H 	0.546	0.932	0.776	0.005
Mof_H 	H 	0.597	0.92	0.758	-0.003
Mof_H 	H 	0.599	0.843	0.807	0.027
Mof_H 	H 	0.587	0.921	0.793	0.045
Mof_H 	H 	0.567	0.93	0.843	0.009
Mof_H 	H 	0.532	0.809	0.826	-0.183
Mof_H 	H 	0.525	0.85	0.79	-0.048
Mof_H 	H 	0.512	0.857	0.843	-0.024
Mof_H 	H 	0.665	0.88	0.007	0.16
Mof_H 	H 	0.685	0.825	0.066	-0.002
Mof_H 	H 	0.699	0.746	0.05	-0.001
Mof_H 	H 	0.691	0.723	0.98	0.12
Mof_H 	H 	0.672	0.768	0.919	-0.225
Mof_H 	H 	0.675	0.863	0.006	-0.24
Mof_H 	H 	0.691	0.8	0.062	0.102
Mof_H 	H 	0.701	0.726	0.038	-0.013
Mof_H 	H 	0.684	0.711	0.958	0.023
Mof_H 	H 	0.664	0.774	0.903	0.165
Mof_Ni	Ni	0.1527	0.6189	0.101	0.545
Mof_O 	O 	0.1093	0.5884	0.0547	-0.42
Mof_O 	O 	0.043	0.6296	0.0527	-0.254
Mof_C 	C 	0.0702	0.598	0.0373	0.346
Mof_C 	C 	0.0558	0.5694	0.9965	-0.134
Mof_C 	C 	0.0163	0.5816	0.9699	0.062
Mof_O 	O 	0.1352	0.5773	0.1582	-0.689
Mof_O 	O 	0.0962	0.6586	0.126	0.446
Mof_C 	C 	0.0898	0.5879	0.1744	-0.083
Mof_C 	C 	0.0794	0.6417	0.1697	-0.061
Mof_C 	C 	0.0793	0.5652	0.2173	0.086
Mof_C 	C 	0.0332	0.6576	0.1787	0.259
Mof_N 	N 	0.1669	0.6652	0.0456	-0.233
Mof_C 	C 	0.1704	0.6518	0.0017	0.101
Mof_C 	C 	0.1823	0.6857	0.9657	-0.049
Mof_C 	C 	0.1901	0.732	0.9743	0.008
Mof_C 	C 	0.1858	0.7444	0.0143	-0.185
Mof_C 	C 	0.1749	0.718	0.051	0.108
Mof_N 	N 	0.1682	0.683	0.048	-0.066
Mof_C 	C 	0.1761	0.6692	0.0034	0.183
Mof_C 	C 	0.187	0.7073	0.9706	-0.17
Mof_C 	C 	0.1918	0.7495	0.9829	0.186
Mof_C 	C 	0.1823	0.7575	0.031	-0.097
Mof_C 	C 	0.1701	0.7201	0.0646	0.142
Mof_H 	H 	0.002	0.61	0.98	0.031
Mof_H 	H 	0.069	0.573	0.152	0.027
Mof_H 	H 	0.078	0.603	0.204	-0.111
Mof_H 	H 	0.055	0.592	0.156	0.015
Mof_H 	H 	0.088	0.533	0.215	0.089
Mof_H 	H 	0.046	0.568	0.224	0.005
Mof_H 	H 	0.097	0.58	0.242	-0.003
Mof_H 	H 	0.099	0.657	0.193	0.027
Mof_H 	H 	0.087	0.579	0.207	0.045
Mof_H 	H 	0.067	0.57	0.157	0.009
Mof_H 	H 	0.032	0.691	0.174	-0.183
Mof_H 	H 	0.025	0.65	0.21	-0.048
Mof_H 	H 	0.012	0.643	0.157	-0.024
Mof_H 	H 	0.165	0.62	0.993	0.16
Mof_H 	H 	0.185	0.675	0.934	-0.002
Mof_H 	H 	0.199	0.754	0.95	-0.001
Mof_H 	H 	0.191	0.777	0.02	0.12
Mof_H 	H 	0.172	0.732	0.081	-0.225
Mof_H 	H 	0.175	0.637	0.994	-0.241
Mof_H 	H 	0.191	0.7	0.938	0.102
Mof_H 	H 	0.201	0.774	0.962	-0.013
Mof_H 	H 	0.184	0.789	0.042	0.023
Mof_H 	H 	0.164	0.726	0.097	0.165
Mof_Ni	Ni	0.3473	0.3811	0.601	0.545
Mof_O 	O 	0.3907	0.4116	0.5547	-0.42
Mof_O 	O 	0.457	0.3704	0.5527	-0.254
Mof_C 	C 	0.4298	0.402	0.5373	0.346
Mof_C 	C 	0.4442	0.4306	0.4965	-0.134
Mof_C 	C 	0.4837	0.4184	0.4699	0.062
Mof_O 	O 	0.3648	0.4227	0.6582	-0.689
Mof_O 	O 	0.4038	0.3414	0.626	0.446
Mof_C 	C 	0.4102	0.4121	0.6744	-0.083
Mof_C 	C 	0.4206	0.3583	0.6697	-0.061
Mof_C 	C 	0.4207	0.4348	0.7173	0.086
Mof_C 	C 	0.4668	0.3424	0.6787	0.259
Mof_N 	N 	0.3331	0.3348	0.5456	-0.233
Mof_C 	C 	0.3296	0.3482	0.5017	0.101
Mof_C 	C 	0.3177	0.3143	0.4657	-0.049
Mof_C 	C 	0.3099	0.268	0.4743	0.008
Mof_C 	C 	0.3142	0.2556	0.5143	-0.185
Mof_C 	C 	0.3251	0.282	0.551	0.108
Mof_N 	N 	0.3318	0.317	0.548	-0.066
Mof_C 	C 	0.3239	0.3308	0.5034	0.183
Mof_C 	C 	0.313	0.2927	0.4706	-0.17
Mof_C 	C 	0.3082	0.2505	0.4829	0.186
Mof_C 	C 	0.3177	0.2425	0.531	-0.097
Mof_C 	C 	0.3299	0.2799	0.5646	0.142
Mof_H 	H 	0.498	0.39	0.48	0.031
Mof_H 	H 	0.431	0.427	0.652	0.027
Mof_H 	H 	0.422	0.397	0.704	-0.111
Mof_H 	H 	0.445	0.408	0.656	0.015
Mof_H 	H 	0.412	0.467	0.715	0.089
Mof_H 	H 	0.454	0.432	0.724	0.005
Mof_H 	H 	0.403	0.42	0.742	-0.003
Mof_H 	H 	0.401	0.343	0.693	0.027
Mof_H 	H 	0.413	0.421	0.707	0.045
Mof_H 	H 	0.433	0.43	0.657	0.009
Mof_H 	H 	0.468	0.309	0.674	-0.183
Mof_H 	H 	0.475	0.35	0.71	-0.048
Mof_H 	H 	0.488	0.357	0.657	-0.024
Mof_H 	H 	0.335	0.38	0.493	0.16
Mof_H 	H 	0.315	0.325	0.434	-0.002
Mof_H 	H 	0.301	0.246	0.45	-0.001
Mof_H 	H 	0.309	0.223	0.52	0.12
Mof_H 	H 	0.328	0.268	0.581	-0.225
Mof_H 	H 	0.325	0.363	0.494	-0.241
Mof_H 	H 	0.309	0.3	0.438	0.102
Mof_H 	H 	0.299	0.226	0.462	-0.013
Mof_H 	H 	0.316	0.211	0.542	0.023
Mof_H 	H 	0.336	0.274	0.597	0.165
Mof_Ni	Ni	0.399	0.8473	0.1189	0.545
Mof_O 	O 	0.4453	0.8907	0.0884	-0.42
Mof_O 	O 	0.4473	0.957	0.1296	-0.254
Mof_C 	C 	0.4627	0.9298	0.098	0.346
Mof_C 	C 	0.5035	0.9442	0.0694	-0.134
Mof_C 	C 	0.5301	0.9837	0.0816	0.062
Mof_O 	O 	0.3418	0.8648	0.0773	-0.689
Mof_O 	O 	0.374	0.9038	0.1586	0.446
Mof_C 	C 	0.3256	0.9102	0.0879	-0.083
Mof_C 	C 	0.3303	0.9206	0.1417	-0.061
Mof_C 	C 	0.2827	0.9207	0.0652	0.086
Mof_C 	C 	0.3213	0.9668	0.1576	0.259
Mof_N 	N 	0.4544	0.8331	0.1652	-0.233
Mof_C 	C 	0.4983	0.8296	0.1518	0.101
Mof_C 	C 	0.5343	0.8177	0.1857	-0.049
Mof_C 	C 	0.5257	0.8099	0.232	0.008
Mof_C 	C 	0.4857	0.8142	0.2444	-0.185
Mof_C 	C 	0.449	0.8251	0.218	0.108
Mof_N 	N 	0.452	0.8318	0.183	-0.066
Mof_C 	C 	0.4966	0.8239	0.1692	0.183
Mof_C 	C 	0.5294	0.813	0.2073	-0.17
Mof_C 	C 	0.5171	0.8082	0.2495	0.186
Mof_C 	C 	0.469	0.8177	0.2575	-0.097
Mof_C 	C 	0.4354	0.8299	0.2201	0.142
Mof_H 	H 	0.52	0.998	0.11	0.031
Mof_H 	H 	0.348	0.931	0.073	0.027
Mof_H 	H 	0.296	0.922	0.103	-0.111
Mof_H 	H 	0.344	0.945	0.092	0.015
Mof_H 	H 	0.285	0.912	0.033	0.089
Mof_H 	H 	0.276	0.954	0.068	0.005
Mof_H 	H 	0.258	0.903	0.08	-0.003
Mof_H 	H 	0.307	0.901	0.157	0.027
Mof_H 	H 	0.293	0.913	0.079	0.045
Mof_H 	H 	0.343	0.933	0.07	0.009
Mof_H 	H 	0.326	0.968	0.191	-0.183
Mof_H 	H 	0.29	0.975	0.15	-0.048
Mof_H 	H 	0.343	0.988	0.143	-0.024
Mof_H 	H 	0.507	0.835	0.12	0.16
Mof_H 	H 	0.566	0.815	0.175	-0.002
Mof_H 	H 	0.55	0.801	0.254	-0.001
Mof_H 	H 	0.48	0.809	0.277	0.12
Mof_H 	H 	0.419	0.828	0.232	-0.225
Mof_H 	H 	0.506	0.825	0.137	-0.241
Mof_H 	H 	0.562	0.809	0.2	0.102
Mof_H 	H 	0.538	0.799	0.274	-0.013
Mof_H 	H 	0.458	0.816	0.289	0.023
Mof_H 	H 	0.403	0.836	0.226	0.165
Mof_Ni	Ni	0.899	0.6527	0.8811	0.545
Mof_O 	O 	0.9453	0.6093	0.9116	-0.42
Mof_O 	O 	0.9473	0.543	0.8704	-0.254
Mof_C 	C 	0.9627	0.5702	0.902	0.346
Mof_C 	C 	0.0035	0.5558	0.9306	-0.134
Mof_C 	C 	0.0301	0.5163	0.9184	0.062
Mof_O 	O 	0.8418	0.6352	0.9227	-0.689
Mof_O 	O 	0.874	0.5962	0.8414	0.446
Mof_C 	C 	0.8256	0.5898	0.9121	-0.083
Mof_C 	C 	0.8303	0.5794	0.8583	-0.061
Mof_C 	C 	0.7827	0.5793	0.9348	0.086
Mof_C 	C 	0.8213	0.5332	0.8424	0.259
Mof_N 	N 	0.9544	0.6669	0.8348	-0.233
Mof_C 	C 	0.9983	0.6704	0.8482	0.101
Mof_C 	C 	0.0343	0.6823	0.8143	-0.049
Mof_C 	C 	0.0257	0.6901	0.768	0.008
Mof_C 	C 	0.9857	0.6858	0.7556	-0.185
Mof_C 	C 	0.949	0.6749	0.782	0.108
Mof_N 	N 	0.952	0.6682	0.817	-0.066
Mof_C 	C 	0.9966	0.6761	0.8308	0.183
Mof_C 	C 	0.0294	0.687	0.7927	-0.17
Mof_C 	C 	0.0171	0.6918	0.7505	0.186
Mof_C 	C 	0.969	0.6823	0.7425	-0.097
Mof_C 	C 	0.9354	0.6701	0.7799	0.142
Mof_H 	H 	0.02	0.502	0.89	0.031
Mof_H 	H 	0.848	0.569	0.927	0.027
Mof_H 	H 	0.796	0.578	0.897	-0.111
Mof_H 	H 	0.844	0.555	0.908	0.015
Mof_H 	H 	0.785	0.588	0.967	0.089
Mof_H 	H 	0.776	0.546	0.932	0.005
Mof_H 	H 	0.758	0.597	0.92	-0.003
Mof_H 	H 	0.807	0.599	0.843	0.027
Mof_H 	H 	0.793	0.587	0.921	0.045
Mof_H 	H 	0.843	0.567	0.93	0.009
Mof_H 	H 	0.826	0.532	0.809	-0.183
Mof_H 	H 	0.79	0.525	0.85	-0.048
Mof_H 	H 	0.843	0.512	0.857	-0.024
Mof_H 	H 	0.007	0.665	0.88	0.16
Mof_H 	H 	0.066	0.685	0.825	-0.002
Mof_H 	H 	0.05	0.699	0.746	-0.001
Mof_H 	H 	0.98	0.691	0.723	0.12
Mof_H 	H 	0.919	0.672	0.768	-0.225
Mof_H 	H 	0.006	0.675	0.863	-0.24
Mof_H 	H 	0.062	0.691	0.8	0.102
Mof_H 	H 	0.038	0.701	0.726	-0.013
Mof_H 	H 	0.958	0.684	0.711	0.023
Mof_H 	H 	0.903	0.664	0.774	0.165
Mof_Ni	Ni	0.101	0.1527	0.6189	0.545
Mof_O 	O 	0.0547	0.1093	0.5884	-0.42
Mof_O 	O 	0.0527	0.043	0.6296	-0.254
Mof_C 	C 	0.0373	0.0702	0.598	0.346
Mof_C 	C 	0.9965	0.0558	0.5694	-0.134
Mof_C 	C 	0.9699	0.0163	0.5816	0.062
Mof_O 	O 	0.1582	0.1352	0.5773	-0.689
Mof_O 	O 	0.126	0.0962	0.6586	0.446
Mof_C 	C 	0.1744	0.0898	0.5879	-0.083
Mof_C 	C 	0.1697	0.0794	0.6417	-0.061
Mof_C 	C 	0.2173	0.0793	0.5652	0.086
Mof_C 	C 	0.1787	0.0332	0.6576	0.259
Mof_N 	N 	0.0456	0.1669	0.6652	-0.233
Mof_C 	C 	0.0017	0.1704	0.6518	0.101
Mof_C 	C 	0.9657	0.1823	0.6857	-0.049
Mof_C 	C 	0.9743	0.1901	0.732	0.008
Mof_C 	C 	0.0143	0.1858	0.7444	-0.185
Mof_C 	C 	0.051	0.1749	0.718	0.108
Mof_N 	N 	0.048	0.1682	0.683	-0.066
Mof_C 	C 	0.0034	0.1761	0.6692	0.183
Mof_C 	C 	0.9706	0.187	0.7073	-0.17
Mof_C 	C 	0.9829	0.1918	0.7495	0.186
Mof_C 	C 	0.031	0.1823	0.7575	-0.097
Mof_C 	C 	0.0646	0.1701	0.7201	0.142
Mof_H 	H 	0.98	0.002	0.61	0.031
Mof_H 	H 	0.152	0.069	0.573	0.027
Mof_H 	H 	0.204	0.078	0.603	-0.111
Mof_H 	H 	0.156	0.055	0.592	0.015
Mof_H 	H 	0.215	0.088	0.533	0.089
Mof_H 	H 	0.224	0.046	0.568	0.005
Mof_H 	H 	0.242	0.097	0.58	-0.003
Mof_H 	H 	0.193	0.099	0.657	0.027
Mof_H 	H 	0.207	0.087	0.579	0.045
Mof_H 	H 	0.157	0.067	0.57	0.009
Mof_H 	H 	0.174	0.032	0.691	-0.183
Mof_H 	H 	0.21	0.025	0.65	-0.048
Mof_H 	H 	0.157	0.012	0.643	-0.024
Mof_H 	H 	0.993	0.165	0.62	0.16
Mof_H 	H 	0.934	0.185	0.675	-0.002
Mof_H 	H 	0.95	0.199	0.754	-0.001
Mof_H 	H 	0.02	0.191	0.777	0.12
Mof_H 	H 	0.081	0.172	0.732	-0.225
Mof_H 	H 	0.994	0.175	0.637	-0.241
Mof_H 	H 	0.938	0.191	0.7	0.102
Mof_H 	H 	0.962	0.201	0.774	-0.013
Mof_H 	H 	0.042	0.184	0.789	0.023
Mof_H 	H 	0.097	0.164	0.726	0.165
Mof_Ni	Ni	0.601	0.3473	0.3811	0.545
Mof_O 	O 	0.5547	0.3907	0.4116	-0.42
Mof_O 	O 	0.5527	0.457	0.3704	-0.254
Mof_C 	C 	0.5373	0.4298	0.402	0.346
Mof_C 	C 	0.4965	0.4442	0.4306	-0.134
Mof_C 	C 	0.4699	0.4837	0.4184	0.062
Mof_O 	O 	0.6582	0.3648	0.4227	-0.689
Mof_O 	O 	0.626	0.4038	0.3414	0.446
Mof_C 	C 	0.6744	0.4102	0.4121	-0.083
Mof_C 	C 	0.6697	0.4206	0.3583	-0.061
Mof_C 	C 	0.7173	0.4207	0.4348	0.086
Mof_C 	C 	0.6787	0.4668	0.3424	0.259
Mof_N 	N 	0.5456	0.3331	0.3348	-0.233
Mof_C 	C 	0.5017	0.3296	0.3482	0.101
Mof_C 	C 	0.4657	0.3177	0.3143	-0.049
Mof_C 	C 	0.4743	0.3099	0.268	0.008
Mof_C 	C 	0.5143	0.3142	0.2556	-0.185
Mof_C 	C 	0.551	0.3251	0.282	0.108
Mof_N 	N 	0.548	0.3318	0.317	-0.066
Mof_C 	C 	0.5034	0.3239	0.3308	0.183
Mof_C 	C 	0.4706	0.313	0.2927	-0.17
Mof_C 	C 	0.4829	0.3082	0.2505	0.186
Mof_C 	C 	0.531	0.3177	0.2425	-0.097
Mof_C 	C 	0.5646	0.3299	0.2799	0.142
Mof_H 	H 	0.48	0.498	0.39	0.031
Mof_H 	H 	0.652	0.431	0.427	0.027
Mof_H 	H 	0.704	0.422	0.397	-0.111
Mof_H 	H 	0.656	0.445	0.408	0.015
Mof_H 	H 	0.715	0.412	0.467	0.089
Mof_H 	H 	0.724	0.454	0.432	0.005
Mof_H 	H 	0.742	0.403	0.42	-0.003
Mof_H 	H 	0.693	0.401	0.343	0.027
Mof_H 	H 	0.707	0.413	0.421	0.045
Mof_H 	H 	0.657	0.433	0.43	0.009
Mof_H 	H 	0.674	0.468	0.309	-0.183
Mof_H 	H 	0.71	0.475	0.35	-0.048
Mof_H 	H 	0.657	0.488	0.357	-0.024
Mof_H 	H 	0.493	0.335	0.38	0.16
Mof_H 	H 	0.434	0.315	0.325	-0.002
Mof_H 	H 	0.45	0.301	0.246	-0.001
Mof_H 	H 	0.52	0.309	0.223	0.12
Mof_H 	H 	0.581	0.328	0.268	-0.225
Mof_H 	H 	0.494	0.325	0.363	-0.241
Mof_H 	H 	0.438	0.309	0.3	0.102
Mof_H 	H 	0.462	0.299	0.226	-0.013
Mof_H 	H 	0.542	0.316	0.211	0.023
Mof_H 	H 	0.597	0.336	0.274	0.165
Mof_Ni	Ni	0.1189	0.399	0.8473	0.545
Mof_O 	O 	0.0884	0.4453	0.8907	-0.42
Mof_O 	O 	0.1296	0.4473	0.957	-0.254
Mof_C 	C 	0.098	0.4627	0.9298	0.346
Mof_C 	C 	0.0694	0.5035	0.9442	-0.134
Mof_C 	C 	0.0816	0.5301	0.9837	0.062
Mof_O 	O 	0.0773	0.3418	0.8648	-0.689
Mof_O 	O 	0.1586	0.374	0.9038	0.446
Mof_C 	C 	0.0879	0.3256	0.9102	-0.083
Mof_C 	C 	0.1417	0.3303	0.9206	-0.061
Mof_C 	C 	0.0652	0.2827	0.9207	0.086
Mof_C 	C 	0.1576	0.3213	0.9668	0.259
Mof_N 	N 	0.1652	0.4544	0.8331	-0.233
Mof_C 	C 	0.1518	0.4983	0.8296	0.101
Mof_C 	C 	0.1857	0.5343	0.8177	-0.049
Mof_C 	C 	0.232	0.5257	0.8099	0.008
Mof_C 	C 	0.2444	0.4857	0.8142	-0.185
Mof_C 	C 	0.218	0.449	0.8251	0.108
Mof_N 	N 	0.183	0.452	0.8318	-0.066
Mof_C 	C 	0.1692	0.4966	0.8239	0.183
Mof_C 	C 	0.2073	0.5294	0.813	-0.17
Mof_C 	C 	0.2495	0.5171	0.8082	0.186
Mof_C 	C 	0.2575	0.469	0.8177	-0.097
Mof_C 	C 	0.2201	0.4354	0.8299	0.142
Mof_H 	H 	0.11	0.52	0.998	0.031
Mof_H 	H 	0.073	0.348	0.931	0.027
Mof_H 	H 	0.103	0.296	0.922	-0.111
Mof_H 	H 	0.092	0.344	0.945	0.015
Mof_H 	H 	0.033	0.285	0.912	0.089
Mof_H 	H 	0.068	0.276	0.954	0.005
Mof_H 	H 	0.08	0.258	0.903	-0.003
Mof_H 	H 	0.157	0.307	0.901	0.027
Mof_H 	H 	0.079	0.293	0.913	0.045
Mof_H 	H 	0.07	0.343	0.933	0.009
Mof_H 	H 	0.191	0.326	0.968	-0.183
Mof_H 	H 	0.15	0.29	0.975	-0.048
Mof_H 	H 	0.143	0.343	0.988	-0.024
Mof_H 	H 	0.12	0.507	0.835	0.16
Mof_H 	H 	0.175	0.566	0.815	-0.002
Mof_H 	H 	0.254	0.55	0.801	-0.001
Mof_H 	H 	0.277	0.48	0.809	0.12
Mof_H 	H 	0.232	0.419	0.828	-0.225
Mof_H 	H 	0.137	0.506	0.825	-0.241
Mof_H 	H 	0.2	0.562	0.809	0.102
Mof_H 	H 	0.274	0.538	0.799	-0.013
Mof_H 	H 	0.289	0.458	0.816	0.023
Mof_H 	H 	0.226	0.403	0.836	0.165
Mof_Ni	Ni	0.8811	0.899	0.6527	0.545
Mof_O 	O 	0.9116	0.9453	0.6093	-0.42
Mof_O 	O 	0.8704	0.9473	0.543	-0.254
Mof_C 	C 	0.902	0.9627	0.5702	0.346
Mof_C 	C 	0.9306	0.0035	0.5558	-0.134
Mof_C 	C 	0.9184	0.0301	0.5163	0.062
Mof_O 	O 	0.9227	0.8418	0.6352	-0.689
Mof_O 	O 	0.8414	0.874	0.5962	0.446
Mof_C 	C 	0.9121	0.8256	0.5898	-0.083
Mof_C 	C 	0.8583	0.8303	0.5794	-0.061
Mof_C 	C 	0.9348	0.7827	0.5793	0.086
Mof_C 	C 	0.8424	0.8213	0.5332	0.259
Mof_N 	N 	0.8348	0.9544	0.6669	-0.233
Mof_C 	C 	0.8482	0.9983	0.6704	0.101
Mof_C 	C 	0.8143	0.0343	0.6823	-0.049
Mof_C 	C 	0.768	0.0257	0.6901	0.008
Mof_C 	C 	0.7556	0.9857	0.6858	-0.185
Mof_C 	C 	0.782	0.949	0.6749	0.108
Mof_N 	N 	0.817	0.952	0.6682	-0.066
Mof_C 	C 	0.8308	0.9966	0.6761	0.183
Mof_C 	C 	0.7927	0.0294	0.687	-0.17
Mof_C 	C 	0.7505	0.0171	0.6918	0.186
Mof_C 	C 	0.7425	0.969	0.6823	-0.097
Mof_C 	C 	0.7799	0.9354	0.6701	0.142
Mof_H 	H 	0.89	0.02	0.502	0.031
Mof_H 	H 	0.927	0.848	0.569	0.027
Mof_H 	H 	0.897	0.796	0.578	-0.111
Mof_H 	H 	0.908	0.844	0.555	0.015
Mof_H 	H 	0.967	0.785	0.588	0.089
Mof_H 	H 	0.932	0.776	0.546	0.005
Mof_H 	H 	0.92	0.758	0.597	-0.003
Mof_H 	H 	0.843	0.807	0.599	0.027
Mof_H 	H 	0.921	0.793	0.587	0.045
Mof_H 	H 	0.93	0.843	0.567	0.009
Mof_H 	H 	0.809	0.826	0.532	-0.183
Mof_H 	H 	0.85	0.79	0.525	-0.048
Mof_H 	H 	0.857	0.843	0.512	-0.024
Mof_H 	H 	0.88	0.007	0.665	0.16
Mof_H 	H 	0.825	0.066	0.685	-0.002
Mof_H 	H 	0.746	0.05	0.699	-0.001
Mof_H 	H 	0.723	0.98	0.691	0.12
Mof_H 	H 	0.768	0.919	0.672	-0.225
Mof_H 	H 	0.863	0.006	0.675	-0.24
Mof_H 	H 	0.8	0.062	0.691	0.102
Mof_H 	H 	0.726	0.038	0.701	-0.013
Mof_H 	H 	0.711	0.958	0.684	0.023
Mof_H 	H 	0.774	0.903	0.664	0.165
Mof_Ni	Ni	0.6189	0.101	0.1527	0.545
Mof_O 	O 	0.5884	0.0547	0.1093	-0.42
Mof_O 	O 	0.6296	0.0527	0.043	-0.254
Mof_C 	C 	0.598	0.0373	0.0702	0.346
Mof_C 	C 	0.5694	0.9965	0.0558	-0.134
Mof_C 	C 	0.5816	0.9699	0.0163	0.062
Mof_O 	O 	0.5773	0.1582	0.1352	-0.689
Mof_O 	O 	0.6586	0.126	0.0962	0.446
Mof_C 	C 	0.5879	0.1744	0.0898	-0.083
Mof_C 	C 	0.6417	0.1697	0.0794	-0.061
Mof_C 	C 	0.5652	0.2173	0.0793	0.086
Mof_C 	C 	0.6576	0.1787	0.0332	0.259
Mof_N 	N 	0.6652	0.0456	0.1669	-0.233
Mof_C 	C 	0.6518	0.0017	0.1704	0.101
Mof_C 	C 	0.6857	0.9657	0.1823	-0.049
Mof_C 	C 	0.732	0.9743	0.1901	0.008
Mof_C 	C 	0.7444	0.0143	0.1858	-0.185
Mof_C 	C 	0.718	0.051	0.1749	0.108
Mof_N 	N 	0.683	0.048	0.1682	-0.066
Mof_C 	C 	0.6692	0.0034	0.1761	0.183
Mof_C 	C 	0.7073	0.9706	0.187	-0.17
Mof_C 	C 	0.7495	0.9829	0.1918	0.186
Mof_C 	C 	0.7575	0.031	0.1823	-0.097
Mof_C 	C 	0.7201	0.0646	0.1701	0.142
Mof_H 	H 	0.61	0.98	0.002	0.031
Mof_H 	H 	0.573	0.152	0.069	0.027
Mof_H 	H 	0.603	0.204	0.078	-0.111
Mof_H 	H 	0.592	0.156	0.055	0.015
Mof_H 	H 	0.533	0.215	0.088	0.089
Mof_H 	H 	0.568	0.224	0.046	0.005
Mof_H 	H 	0.58	0.242	0.097	-0.003
Mof_H 	H 	0.657	0.193	0.099	0.027
Mof_H 	H 	0.579	0.207	0.087	0.045
Mof_H 	H 	0.57	0.157	0.067	0.009
Mof_H 	H 	0.691	0.174	0.032	-0.183
Mof_H 	H 	0.65	0.21	0.025	-0.048
Mof_H 	H 	0.643	0.157	0.012	-0.024
Mof_H 	H 	0.62	0.993	0.165	0.16
Mof_H 	H 	0.675	0.934	0.185	-0.002
Mof_H 	H 	0.754	0.95	0.199	-0.001
Mof_H 	H 	0.777	0.02	0.191	0.12
Mof_H 	H 	0.732	0.081	0.172	-0.225
Mof_H 	H 	0.637	0.994	0.175	-0.241
Mof_H 	H 	0.7	0.938	0.191	0.102
Mof_H 	H 	0.774	0.962	0.201	-0.013
Mof_H 	H 	0.789	0.042	0.184	0.023
Mof_H 	H 	0.726	0.097	0.164	0.165
Mof_Ni	Ni	0.3811	0.601	0.3473	0.545
Mof_O 	O 	0.4116	0.5547	0.3907	-0.42
Mof_O 	O 	0.3704	0.5527	0.457	-0.254
Mof_C 	C 	0.402	0.5373	0.4298	0.346
Mof_C 	C 	0.4306	0.4965	0.4442	-0.134
Mof_C 	C 	0.4184	0.4699	0.4837	0.062
Mof_O 	O 	0.4227	0.6582	0.3648	-0.689
Mof_O 	O 	0.3414	0.626	0.4038	0.446
Mof_C 	C 	0.4121	0.6744	0.4102	-0.083
Mof_C 	C 	0.3583	0.6697	0.4206	-0.061
Mof_C 	C 	0.4348	0.7173	0.4207	0.086
Mof_C 	C 	0.3424	0.6787	0.4668	0.259
Mof_N 	N 	0.3348	0.5456	0.3331	-0.233
Mof_C 	C 	0.3482	0.5017	0.3296	0.101
Mof_C 	C 	0.3143	0.4657	0.3177	-0.049
Mof_C 	C 	0.268	0.4743	0.3099	0.008
Mof_C 	C 	0.2556	0.5143	0.3142	-0.185
Mof_C 	C 	0.282	0.551	0.3251	0.108
Mof_N 	N 	0.317	0.548	0.3318	-0.066
Mof_C 	C 	0.3308	0.5034	0.3239	0.183
Mof_C 	C 	0.2927	0.4706	0.313	-0.17
Mof_C 	C 	0.2505	0.4829	0.3082	0.186
Mof_C 	C 	0.2425	0.531	0.3177	-0.097
Mof_C 	C 	0.2799	0.5646	0.3299	0.142
Mof_H 	H 	0.39	0.48	0.498	0.031
Mof_H 	H 	0.427	0.652	0.431	0.027
Mof_H 	H 	0.397	0.704	0.422	-0.111
Mof_H 	H 	0.408	0.656	0.445	0.015
Mof_H 	H 	0.467	0.715	0.412	0.089
Mof_H 	H 	0.432	0.724	0.454	0.005
Mof_H 	H 	0.42	0.742	0.403	-0.003
Mof_H 	H 	0.343	0.693	0.401	0.027
Mof_H 	H 	0.421	0.707	0.413	0.045
Mof_H 	H 	0.43	0.657	0.433	0.009
Mof_H 	H 	0.309	0.674	0.468	-0.183
Mof_H 	H 	0.35	0.71	0.475	-0.048
Mof_H 	H 	0.357	0.657	0.488	-0.024
Mof_H 	H 	0.38	0.493	0.335	0.16
Mof_H 	H 	0.325	0.434	0.315	-0.002
Mof_H 	H 	0.246	0.45	0.301	-0.001
Mof_H 	H 	0.223	0.52	0.309	0.12
Mof_H 	H 	0.268	0.581	0.328	-0.225
Mof_H 	H 	0.363	0.494	0.325	-0.241
Mof_H 	H 	0.3	0.438	0.309	0.102
Mof_H 	H 	0.226	0.462	0.299	-0.013
Mof_H 	H 	0.211	0.542	0.316	0.023
Mof_H 	H 	0.274	0.597	0.336	0.165
Mof_Ni	Ni	0.3689	0.5973	0.351	0.545
Mof_O 	O 	0.3384	0.6407	0.3047	-0.42
Mof_O 	O 	0.3796	0.707	0.3027	-0.254
Mof_C 	C 	0.348	0.6798	0.2873	0.346
Mof_C 	C 	0.3194	0.6942	0.2465	-0.134
Mof_C 	C 	0.3316	0.7337	0.2199	0.062
Mof_O 	O 	0.3273	0.6148	0.4082	-0.689
Mof_O 	O 	0.4086	0.6538	0.376	0.446
Mof_C 	C 	0.3379	0.6602	0.4244	-0.083
Mof_C 	C 	0.3917	0.6706	0.4197	-0.061
Mof_C 	C 	0.3152	0.6707	0.4673	0.086
Mof_C 	C 	0.4076	0.7168	0.4287	0.259
Mof_N 	N 	0.4152	0.5831	0.2956	-0.233
Mof_C 	C 	0.4018	0.5796	0.2517	0.101
Mof_C 	C 	0.4357	0.5677	0.2157	-0.049
Mof_C 	C 	0.482	0.5599	0.2243	0.008
Mof_C 	C 	0.4944	0.5642	0.2643	-0.185
Mof_C 	C 	0.468	0.5751	0.301	0.108
Mof_N 	N 	0.433	0.5818	0.298	-0.066
Mof_C 	C 	0.4192	0.5739	0.2534	0.183
Mof_C 	C 	0.4573	0.563	0.2206	-0.17
Mof_C 	C 	0.4995	0.5582	0.2329	0.186
Mof_C 	C 	0.5075	0.5677	0.281	-0.097
Mof_C 	C 	0.4701	0.5799	0.3146	0.142
Mof_H 	H 	0.36	0.748	0.23	0.031
Mof_H 	H 	0.323	0.681	0.402	0.027
Mof_H 	H 	0.353	0.672	0.454	-0.111
Mof_H 	H 	0.342	0.695	0.406	0.015
Mof_H 	H 	0.283	0.662	0.465	0.089
Mof_H 	H 	0.318	0.704	0.474	0.005
Mof_H 	H 	0.33	0.653	0.492	-0.003
Mof_H 	H 	0.407	0.651	0.443	0.027
Mof_H 	H 	0.329	0.663	0.457	0.045
Mof_H 	H 	0.32	0.683	0.407	0.009
Mof_H 	H 	0.441	0.718	0.424	-0.183
Mof_H 	H 	0.4	0.725	0.46	-0.048
Mof_H 	H 	0.393	0.738	0.407	-0.024
Mof_H 	H 	0.37	0.585	0.243	0.16
Mof_H 	H 	0.425	0.565	0.184	-0.002
Mof_H 	H 	0.504	0.551	0.2	-0.001
Mof_H 	H 	0.527	0.559	0.27	0.12
Mof_H 	H 	0.482	0.578	0.331	-0.225
Mof_H 	H 	0.387	0.575	0.244	-0.241
Mof_H 	H 	0.45	0.559	0.188	0.102
Mof_H 	H 	0.524	0.549	0.212	-0.013
Mof_H 	H 	0.539	0.566	0.292	0.023
Mof_H 	H 	0.476	0.586	0.347	0.165
Mof_Ni	Ni	0.1311	0.4027	0.851	0.545
Mof_O 	O 	0.1616	0.3593	0.8047	-0.42
Mof_O 	O 	0.1204	0.293	0.8027	-0.254
Mof_C 	C 	0.152	0.3202	0.7873	0.346
Mof_C 	C 	0.1806	0.3058	0.7465	-0.134
Mof_C 	C 	0.1684	0.2663	0.7199	0.062
Mof_O 	O 	0.1727	0.3852	0.9082	-0.689
Mof_O 	O 	0.0914	0.3462	0.876	0.446
Mof_C 	C 	0.1621	0.3398	0.9244	-0.083
Mof_C 	C 	0.1083	0.3294	0.9197	-0.061
Mof_C 	C 	0.1848	0.3293	0.9673	0.086
Mof_C 	C 	0.0924	0.2832	0.9287	0.259
Mof_N 	N 	0.0848	0.4169	0.7956	-0.233
Mof_C 	C 	0.0982	0.4204	0.7517	0.101
Mof_C 	C 	0.0643	0.4323	0.7157	-0.049
Mof_C 	C 	0.018	0.4401	0.7243	0.008
Mof_C 	C 	0.0056	0.4358	0.7643	-0.185
Mof_C 	C 	0.032	0.4249	0.801	0.108
Mof_N 	N 	0.067	0.4182	0.798	-0.066
Mof_C 	C 	0.0808	0.4261	0.7534	0.183
Mof_C 	C 	0.0427	0.437	0.7206	-0.17
Mof_C 	C 	0.0005	0.4418	0.7329	0.186
Mof_C 	C 	0.9925	0.4323	0.781	-0.097
Mof_C 	C 	0.0299	0.4201	0.8146	0.142
Mof_H 	H 	0.14	0.252	0.73	0.031
Mof_H 	H 	0.177	0.319	0.902	0.027
Mof_H 	H 	0.147	0.328	0.954	-0.111
Mof_H 	H 	0.158	0.305	0.906	0.015
Mof_H 	H 	0.217	0.338	0.965	0.089
Mof_H 	H 	0.182	0.296	0.974	0.005
Mof_H 	H 	0.17	0.347	0.992	-0.003
Mof_H 	H 	0.093	0.349	0.943	0.027
Mof_H 	H 	0.171	0.337	0.957	0.045
Mof_H 	H 	0.18	0.317	0.907	0.009
Mof_H 	H 	0.059	0.282	0.924	-0.183
Mof_H 	H 	0.1	0.275	0.96	-0.048
Mof_H 	H 	0.107	0.262	0.907	-0.024
Mof_H 	H 	0.13	0.415	0.743	0.16
Mof_H 	H 	0.075	0.435	0.684	-0.002
Mof_H 	H 	0.996	0.449	0.7	-0.001
Mof_H 	H 	0.973	0.441	0.77	0.12
Mof_H 	H 	0.018	0.422	0.831	-0.225
Mof_H 	H 	0.113	0.425	0.744	-0.241
Mof_H 	H 	0.05	0.441	0.688	0.102
Mof_H 	H 	0.976	0.451	0.712	-0.013
Mof_H 	H 	0.961	0.434	0.792	0.023
Mof_H 	H 	0.024	0.414	0.847	0.165
Mof_Ni	Ni	0.8689	0.9027	0.649	0.545
Mof_O 	O 	0.8384	0.8593	0.6953	-0.42
Mof_O 	O 	0.8796	0.793	0.6973	-0.254
Mof_C 	C 	0.848	0.8202	0.7127	0.346
Mof_C 	C 	0.8194	0.8058	0.7535	-0.134
Mof_C 	C 	0.8316	0.7663	0.7801	0.062
Mof_O 	O 	0.8273	0.8852	0.5918	-0.689
Mof_O 	O 	0.9086	0.8462	0.624	0.446
Mof_C 	C 	0.8379	0.8398	0.5756	-0.083
Mof_C 	C 	0.8917	0.8294	0.5803	-0.061
Mof_C 	C 	0.8152	0.8293	0.5327	0.086
Mof_C 	C 	0.9076	0.7832	0.5713	0.259
Mof_N 	N 	0.9152	0.9169	0.7044	-0.233
Mof_C 	C 	0.9018	0.9204	0.7483	0.101
Mof_C 	C 	0.9357	0.9323	0.7843	-0.049
Mof_C 	C 	0.982	0.9401	0.7757	0.008
Mof_C 	C 	0.9944	0.9358	0.7357	-0.185
Mof_C 	C 	0.968	0.9249	0.699	0.108
Mof_N 	N 	0.933	0.9182	0.702	-0.066
Mof_C 	C 	0.9192	0.9261	0.7466	0.183
Mof_C 	C 	0.9573	0.937	0.7794	-0.17
Mof_C 	C 	0.9995	0.9418	0.7671	0.186
Mof_C 	C 	0.0075	0.9323	0.719	-0.097
Mof_C 	C 	0.9701	0.9201	0.6854	0.142
Mof_H 	H 	0.86	0.752	0.77	0.031
Mof_H 	H 	0.823	0.819	0.598	0.027
Mof_H 	H 	0.853	0.828	0.546	-0.111
Mof_H 	H 	0.842	0.805	0.594	0.015
Mof_H 	H 	0.783	0.838	0.535	0.089
Mof_H 	H 	0.818	0.796	0.526	0.005
Mof_H 	H 	0.83	0.847	0.508	-0.003
Mof_H 	H 	0.907	0.849	0.557	0.027
Mof_H 	H 	0.829	0.837	0.543	0.045
Mof_H 	H 	0.82	0.817	0.593	0.009
Mof_H 	H 	0.941	0.782	0.576	-0.183
Mof_H 	H 	0.9	0.775	0.54	-0.048
Mof_H 	H 	0.893	0.762	0.593	-0.024
Mof_H 	H 	0.87	0.915	0.757	0.16
Mof_H 	H 	0.925	0.935	0.816	-0.002
Mof_H 	H 	0.004	0.949	0.8	-0.001
Mof_H 	H 	0.027	0.941	0.73	0.12
Mof_H 	H 	0.982	0.922	0.669	-0.225
Mof_H 	H 	0.887	0.925	0.756	-0.241
Mof_H 	H 	0.95	0.941	0.812	0.102
Mof_H 	H 	0.024	0.951	0.788	-0.013
Mof_H 	H 	0.039	0.934	0.708	0.023
Mof_H 	H 	0.976	0.914	0.653	0.165
Mof_Ni	Ni	0.6311	0.0973	0.149	0.545
Mof_O 	O 	0.6616	0.1407	0.1953	-0.42
Mof_O 	O 	0.6204	0.207	0.1973	-0.254
Mof_C 	C 	0.652	0.1798	0.2127	0.346
Mof_C 	C 	0.6806	0.1942	0.2535	-0.134
Mof_C 	C 	0.6684	0.2337	0.2801	0.062
Mof_O 	O 	0.6727	0.1148	0.0918	-0.689
Mof_O 	O 	0.5914	0.1538	0.124	0.446
Mof_C 	C 	0.6621	0.1602	0.0756	-0.083
Mof_C 	C 	0.6083	0.1706	0.0803	-0.061
Mof_C 	C 	0.6848	0.1707	0.0327	0.086
Mof_C 	C 	0.5924	0.2168	0.0713	0.259
Mof_N 	N 	0.5848	0.0831	0.2044	-0.233
Mof_C 	C 	0.5982	0.0796	0.2483	0.101
Mof_C 	C 	0.5643	0.0677	0.2843	-0.049
Mof_C 	C 	0.518	0.0599	0.2757	0.008
Mof_C 	C 	0.5056	0.0642	0.2357	-0.185
Mof_C 	C 	0.532	0.0751	0.199	0.108
Mof_N 	N 	0.567	0.0818	0.202	-0.066
Mof_C 	C 	0.5808	0.0739	0.2466	0.183
Mof_C 	C 	0.5427	0.063	0.2794	-0.17
Mof_C 	C 	0.5005	0.0582	0.2671	0.186
Mof_C 	C 	0.4925	0.0677	0.219	-0.097
Mof_C 	C 	0.5299	0.0799	0.1854	0.142
Mof_H 	H 	0.64	0.248	0.27	0.031
Mof_H 	H 	0.677	0.181	0.098	0.027
Mof_H 	H 	0.647	0.172	0.046	-0.111
Mof_H 	H 	0.658	0.195	0.094	0.015
Mof_H 	H 	0.717	0.162	0.035	0.089
Mof_H 	H 	0.682	0.204	0.026	0.005
Mof_H 	H 	0.67	0.153	0.008	-0.003
Mof_H 	H 	0.593	0.151	0.057	0.027
Mof_H 	H 	0.671	0.163	0.043	0.045
Mof_H 	H 	0.68	0.183	0.093	0.009
Mof_H 	H 	0.559	0.218	0.076	-0.183
Mof_H 	H 	0.6	0.225	0.04	-0.048
Mof_H 	H 	0.607	0.238	0.093	-0.024
Mof_H 	H 	0.63	0.085	0.257	0.16
Mof_H 	H 	0.575	0.065	0.316	-0.002
Mof_H 	H 	0.496	0.051	0.3	-0.001
Mof_H 	H 	0.473	0.059	0.23	0.12
Mof_H 	H 	0.518	0.078	0.169	-0.225
Mof_H 	H 	0.613	0.075	0.256	-0.241
Mof_H 	H 	0.55	0.059	0.312	0.102
Mof_H 	H 	0.476	0.049	0.288	-0.013
Mof_H 	H 	0.461	0.066	0.208	0.023
Mof_H 	H 	0.524	0.086	0.153	0.165
Mof_Ni	Ni	0.0973	0.149	0.6311	0.545
Mof_O 	O 	0.1407	0.1953	0.6616	-0.42
Mof_O 	O 	0.207	0.1973	0.6204	-0.254
Mof_C 	C 	0.1798	0.2127	0.652	0.346
Mof_C 	C 	0.1942	0.2535	0.6806	-0.134
Mof_C 	C 	0.2337	0.2801	0.6684	0.062
Mof_O 	O 	0.1148	0.0918	0.6727	-0.689
Mof_O 	O 	0.1538	0.124	0.5914	0.446
Mof_C 	C 	0.1602	0.0756	0.6621	-0.083
Mof_C 	C 	0.1706	0.0803	0.6083	-0.061
Mof_C 	C 	0.1707	0.0327	0.6848	0.086
Mof_C 	C 	0.2168	0.0713	0.5924	0.259
Mof_N 	N 	0.0831	0.2044	0.5848	-0.233
Mof_C 	C 	0.0796	0.2483	0.5982	0.101
Mof_C 	C 	0.0677	0.2843	0.5643	-0.049
Mof_C 	C 	0.0599	0.2757	0.518	0.008
Mof_C 	C 	0.0642	0.2357	0.5056	-0.185
Mof_C 	C 	0.0751	0.199	0.532	0.108
Mof_N 	N 	0.0818	0.202	0.567	-0.066
Mof_C 	C 	0.0739	0.2466	0.5808	0.183
Mof_C 	C 	0.063	0.2794	0.5427	-0.17
Mof_C 	C 	0.0582	0.2671	0.5005	0.186
Mof_C 	C 	0.0677	0.219	0.4925	-0.097
Mof_C 	C 	0.0799	0.1854	0.5299	0.142
Mof_H 	H 	0.248	0.27	0.64	0.031
Mof_H 	H 	0.181	0.098	0.677	0.027
Mof_H 	H 	0.172	0.046	0.647	-0.111
Mof_H 	H 	0.195	0.094	0.658	0.015
Mof_H 	H 	0.162	0.035	0.717	0.089
Mof_H 	H 	0.204	0.026	0.682	0.005
Mof_H 	H 	0.153	0.008	0.67	-0.003
Mof_H 	H 	0.151	0.057	0.593	0.027
Mof_H 	H 	0.163	0.043	0.671	0.045
Mof_H 	H 	0.183	0.093	0.68	0.009
Mof_H 	H 	0.218	0.076	0.559	-0.183
Mof_H 	H 	0.225	0.04	0.6	-0.048
Mof_H 	H 	0.238	0.093	0.607	-0.024
Mof_H 	H 	0.085	0.257	0.63	0.16
Mof_H 	H 	0.065	0.316	0.575	-0.002
Mof_H 	H 	0.051	0.3	0.496	-0.001
Mof_H 	H 	0.059	0.23	0.473	0.12
Mof_H 	H 	0.078	0.169	0.518	-0.225
Mof_H 	H 	0.075	0.256	0.613	-0.241
Mof_H 	H 	0.059	0.312	0.55	0.102
Mof_H 	H 	0.049	0.288	0.476	-0.013
Mof_H 	H 	0.066	0.208	0.461	0.023
Mof_H 	H 	0.086	0.153	0.524	0.165
Mof_Ni	Ni	0.9027	0.649	0.8689	0.545
Mof_O 	O 	0.8593	0.6953	0.8384	-0.42
Mof_O 	O 	0.793	0.6973	0.8796	-0.254
Mof_C 	C 	0.8202	0.7127	0.848	0.346
Mof_C 	C 	0.8058	0.7535	0.8194	-0.134
Mof_C 	C 	0.7663	0.7801	0.8316	0.062
Mof_O 	O 	0.8852	0.5918	0.8273	-0.689
Mof_O 	O 	0.8462	0.624	0.9086	0.446
Mof_C 	C 	0.8398	0.5756	0.8379	-0.083
Mof_C 	C 	0.8294	0.5803	0.8917	-0.061
Mof_C 	C 	0.8293	0.5327	0.8152	0.086
Mof_C 	C 	0.7832	0.5713	0.9076	0.259
Mof_N 	N 	0.9169	0.7044	0.9152	-0.233
Mof_C 	C 	0.9204	0.7483	0.9018	0.101
Mof_C 	C 	0.9323	0.7843	0.9357	-0.049
Mof_C 	C 	0.9401	0.7757	0.982	0.008
Mof_C 	C 	0.9358	0.7357	0.9944	-0.185
Mof_C 	C 	0.9249	0.699	0.968	0.108
Mof_N 	N 	0.9182	0.702	0.933	-0.066
Mof_C 	C 	0.9261	0.7466	0.9192	0.183
Mof_C 	C 	0.937	0.7794	0.9573	-0.17
Mof_C 	C 	0.9418	0.7671	0.9995	0.186
Mof_C 	C 	0.9323	0.719	0.0075	-0.097
Mof_C 	C 	0.9201	0.6854	0.9701	0.142
Mof_H 	H 	0.752	0.77	0.86	0.031
Mof_H 	H 	0.819	0.598	0.823	0.027
Mof_H 	H 	0.828	0.546	0.853	-0.111
Mof_H 	H 	0.805	0.594	0.842	0.015
Mof_H 	H 	0.838	0.535	0.783	0.089
Mof_H 	H 	0.796	0.526	0.818	0.005
Mof_H 	H 	0.847	0.508	0.83	-0.003
Mof_H 	H 	0.849	0.557	0.907	0.027
Mof_H 	H 	0.837	0.543	0.829	0.045
Mof_H 	H 	0.817	0.593	0.82	0.009
Mof_H 	H 	0.782	0.576	0.941	-0.183
Mof_H 	H 	0.775	0.54	0.9	-0.048
Mof_H 	H 	0.762	0.593	0.893	-0.024
Mof_H 	H 	0.915	0.757	0.87	0.16
Mof_H 	H 	0.935	0.816	0.925	-0.002
Mof_H 	H 	0.949	0.8	0.004	-0.001
Mof_H 	H 	0.941	0.73	0.027	0.12
Mof_H 	H 	0.922	0.669	0.982	-0.225
Mof_H 	H 	0.925	0.756	0.887	-0.241
Mof_H 	H 	0.941	0.812	0.95	0.102
Mof_H 	H 	0.951	0.788	0.024	-0.013
Mof_H 	H 	0.934	0.708	0.039	0.023
Mof_H 	H 	0.914	0.653	0.976	0.165
Mof_Ni	Ni	0.4027	0.851	0.1311	0.545
Mof_O 	O 	0.3593	0.8047	0.1616	-0.42
Mof_O 	O 	0.293	0.8027	0.1204	-0.254
Mof_C 	C 	0.3202	0.7873	0.152	0.346
Mof_C 	C 	0.3058	0.7465	0.1806	-0.134
Mof_C 	C 	0.2663	0.7199	0.1684	0.062
Mof_O 	O 	0.3852	0.9082	0.1727	-0.689
Mof_O 	O 	0.3462	0.876	0.0914	0.446
Mof_C 	C 	0.3398	0.9244	0.1621	-0.083
Mof_C 	C 	0.3294	0.9197	0.1083	-0.061
Mof_C 	C 	0.3293	0.9673	0.1848	0.086
Mof_C 	C 	0.2832	0.9287	0.0924	0.259
Mof_N 	N 	0.4169	0.7956	0.0848	-0.233
Mof_C 	C 	0.4204	0.7517	0.0982	0.101
Mof_C 	C 	0.4323	0.7157	0.0643	-0.049
Mof_C 	C 	0.4401	0.7243	0.018	0.008
Mof_C 	C 	0.4358	0.7643	0.0056	-0.185
Mof_C 	C 	0.4249	0.801	0.032	0.108
Mof_N 	N 	0.4182	0.798	0.067	-0.066
Mof_C 	C 	0.4261	0.7534	0.0808	0.183
Mof_C 	C 	0.437	0.7206	0.0427	-0.17
Mof_C 	C 	0.4418	0.7329	0.0005	0.186
Mof_C 	C 	0.4323	0.781	0.9925	-0.097
Mof_C 	C 	0.4201	0.8146	0.0299	0.142
Mof_H 	H 	0.252	0.73	0.14	0.031
Mof_H 	H 	0.319	0.902	0.177	0.027
Mof_H 	H 	0.328	0.954	0.147	-0.111
Mof_H 	H 	0.305	0.906	0.158	0.015
Mof_H 	H 	0.338	0.965	0.217	0.089
Mof_H 	H 	0.296	0.974	0.182	0.005
Mof_H 	H 	0.347	0.992	0.17	-0.003
Mof_H 	H 	0.349	0.943	0.093	0.027
Mof_H 	H 	0.337	0.957	0.171	0.045
Mof_H 	H 	0.317	0.907	0.18	0.009
Mof_H 	H 	0.282	0.924	0.059	-0.183
Mof_H 	H 	0.275	0.96	0.1	-0.048
Mof_H 	H 	0.262	0.907	0.107	-0.024
Mof_H 	H 	0.415	0.743	0.13	0.16
Mof_H 	H 	0.435	0.684	0.075	-0.002
Mof_H 	H 	0.449	0.7	0.996	-0.001
Mof_H 	H 	0.441	0.77	0.973	0.12
Mof_H 	H 	0.422	0.831	0.018	-0.225
Mof_H 	H 	0.425	0.744	0.113	-0.241
Mof_H 	H 	0.441	0.688	0.05	0.102
Mof_H 	H 	0.451	0.712	0.976	-0.013
Mof_H 	H 	0.434	0.792	0.961	0.023
Mof_H 	H 	0.414	0.847	0.024	0.165
Mof_Ni	Ni	0.5973	0.351	0.3689	0.545
Mof_O 	O 	0.6407	0.3047	0.3384	-0.42
Mof_O 	O 	0.707	0.3027	0.3796	-0.254
Mof_C 	C 	0.6798	0.2873	0.348	0.346
Mof_C 	C 	0.6942	0.2465	0.3194	-0.134
Mof_C 	C 	0.7337	0.2199	0.3316	0.062
Mof_O 	O 	0.6148	0.4082	0.3273	-0.689
Mof_O 	O 	0.6538	0.376	0.4086	0.446
Mof_C 	C 	0.6602	0.4244	0.3379	-0.083
Mof_C 	C 	0.6706	0.4197	0.3917	-0.061
Mof_C 	C 	0.6707	0.4673	0.3152	0.086
Mof_C 	C 	0.7168	0.4287	0.4076	0.259
Mof_N 	N 	0.5831	0.2956	0.4152	-0.233
Mof_C 	C 	0.5796	0.2517	0.4018	0.101
Mof_C 	C 	0.5677	0.2157	0.4357	-0.049
Mof_C 	C 	0.5599	0.2243	0.482	0.008
Mof_C 	C 	0.5642	0.2643	0.4944	-0.185
Mof_C 	C 	0.5751	0.301	0.468	0.108
Mof_N 	N 	0.5818	0.298	0.433	-0.066
Mof_C 	C 	0.5739	0.2534	0.4192	0.183
Mof_C 	C 	0.563	0.2206	0.4573	-0.17
Mof_C 	C 	0.5582	0.2329	0.4995	0.186
Mof_C 	C 	0.5677	0.281	0.5075	-0.097
Mof_C 	C 	0.5799	0.3146	0.4701	0.142
Mof_H 	H 	0.748	0.23	0.36	0.031
Mof_H 	H 	0.681	0.402	0.323	0.027
Mof_H 	H 	0.672	0.454	0.353	-0.111
Mof_H 	H 	0.695	0.406	0.342	0.015
Mof_H 	H 	0.662	0.465	0.283	0.089
Mof_H 	H 	0.704	0.474	0.318	0.005
Mof_H 	H 	0.653	0.492	0.33	-0.003
Mof_H 	H 	0.651	0.443	0.407	0.027
Mof_H 	H 	0.663	0.457	0.329	0.045
Mof_H 	H 	0.683	0.407	0.32	0.009
Mof_H 	H 	0.718	0.424	0.441	-0.183
Mof_H 	H 	0.725	0.46	0.4	-0.048
Mof_H 	H 	0.738	0.407	0.393	-0.024
Mof_H 	H 	0.585	0.243	0.37	0.16
Mof_H 	H 	0.565	0.184	0.425	-0.002
Mof_H 	H 	0.551	0.2	0.504	-0.001
Mof_H 	H 	0.559	0.27	0.527	0.12
Mof_H 	H 	0.578	0.331	0.482	-0.225
Mof_H 	H 	0.575	0.244	0.387	-0.241
Mof_H 	H 	0.559	0.188	0.45	0.102
Mof_H 	H 	0.549	0.212	0.524	-0.013
Mof_H 	H 	0.566	0.292	0.539	0.023
Mof_H 	H 	0.586	0.347	0.476	0.165
Mof_Ni	Ni	0.649	0.8689	0.9027	0.545
Mof_O 	O 	0.6953	0.8384	0.8593	-0.42
Mof_O 	O 	0.6973	0.8796	0.793	-0.254
Mof_C 	C 	0.7127	0.848	0.8202	0.346
Mof_C 	C 	0.7535	0.8194	0.8058	-0.134
Mof_C 	C 	0.7801	0.8316	0.7663	0.062
Mof_O 	O 	0.5918	0.8273	0.8852	-0.689
Mof_O 	O 	0.624	0.9086	0.8462	0.446
Mof_C 	C 	0.5756	0.8379	0.8398	-0.083
Mof_C 	C 	0.5803	0.8917	0.8294	-0.061
Mof_C 	C 	0.5327	0.8152	0.8293	0.086
Mof_C 	C 	0.5713	0.9076	0.7832	0.259
Mof_N 	N 	0.7044	0.9152	0.9169	-0.233
Mof_C 	C 	0.7483	0.9018	0.9204	0.101
Mof_C 	C 	0.7843	0.9357	0.9323	-0.049
Mof_C 	C 	0.7757	0.982	0.9401	0.008
Mof_C 	C 	0.7357	0.9944	0.9358	-0.185
Mof_C 	C 	0.699	0.968	0.9249	0.108
Mof_N 	N 	0.702	0.933	0.9182	-0.066
Mof_C 	C 	0.7466	0.9192	0.9261	0.183
Mof_C 	C 	0.7794	0.9573	0.937	-0.17
Mof_C 	C 	0.7671	0.9995	0.9418	0.186
Mof_C 	C 	0.719	0.0075	0.9323	-0.097
Mof_C 	C 	0.6854	0.9701	0.9201	0.142
Mof_H 	H 	0.77	0.86	0.752	0.031
Mof_H 	H 	0.598	0.823	0.819	0.027
Mof_H 	H 	0.546	0.853	0.828	-0.111
Mof_H 	H 	0.594	0.842	0.805	0.015
Mof_H 	H 	0.535	0.783	0.838	0.089
Mof_H 	H 	0.526	0.818	0.796	0.005
Mof_H 	H 	0.508	0.83	0.847	-0.003
Mof_H 	H 	0.557	0.907	0.849	0.027
Mof_H 	H 	0.543	0.829	0.837	0.045
Mof_H 	H 	0.593	0.82	0.817	0.009
Mof_H 	H 	0.576	0.941	0.782	-0.183
Mof_H 	H 	0.54	0.9	0.775	-0.048
Mof_H 	H 	0.593	0.893	0.762	-0.024
Mof_H 	H 	0.757	0.87	0.915	0.16
Mof_H 	H 	0.816	0.925	0.935	-0.002
Mof_H 	H 	0.8	0.004	0.949	-0.001
Mof_H 	H 	0.73	0.027	0.941	0.12
Mof_H 	H 	0.669	0.982	0.922	-0.225
Mof_H 	H 	0.756	0.887	0.925	-0.241
Mof_H 	H 	0.812	0.95	0.941	0.102
Mof_H 	H 	0.788	0.024	0.951	-0.013
Mof_H 	H 	0.708	0.039	0.934	0.023
Mof_H 	H 	0.653	0.976	0.914	0.165
Mof_Ni	Ni	0.149	0.6311	0.0973	0.545
Mof_O 	O 	0.1953	0.6616	0.1407	-0.42
Mof_O 	O 	0.1973	0.6204	0.207	-0.254
Mof_C 	C 	0.2127	0.652	0.1798	0.346
Mof_C 	C 	0.2535	0.6806	0.1942	-0.134
Mof_C 	C 	0.2801	0.6684	0.2337	0.062
Mof_O 	O 	0.0918	0.6727	0.1148	-0.689
Mof_O 	O 	0.124	0.5914	0.1538	0.446
Mof_C 	C 	0.0756	0.6621	0.1602	-0.083
Mof_C 	C 	0.0803	0.6083	0.1706	-0.061
Mof_C 	C 	0.0327	0.6848	0.1707	0.086
Mof_C 	C 	0.0713	0.5924	0.2168	0.259
Mof_N 	N 	0.2044	0.5848	0.0831	-0.233
Mof_C 	C 	0.2483	0.5982	0.0796	0.101
Mof_C 	C 	0.2843	0.5643	0.0677	-0.049
Mof_C 	C 	0.2757	0.518	0.0599	0.008
Mof_C 	C 	0.2357	0.5056	0.0642	-0.185
Mof_C 	C 	0.199	0.532	0.0751	0.108
Mof_N 	N 	0.202	0.567	0.0818	-0.066
Mof_C 	C 	0.2466	0.5808	0.0739	0.183
Mof_C 	C 	0.2794	0.5427	0.063	-0.17
Mof_C 	C 	0.2671	0.5005	0.0582	0.186
Mof_C 	C 	0.219	0.4925	0.0677	-0.097
Mof_C 	C 	0.1854	0.5299	0.0799	0.142
Mof_H 	H 	0.27	0.64	0.248	0.031
Mof_H 	H 	0.098	0.677	0.181	0.027
Mof_H 	H 	0.046	0.647	0.172	-0.111
Mof_H 	H 	0.094	0.658	0.195	0.015
Mof_H 	H 	0.035	0.717	0.162	0.089
Mof_H 	H 	0.026	0.682	0.204	0.005
Mof_H 	H 	0.008	0.67	0.153	-0.003
Mof_H 	H 	0.057	0.593	0.151	0.027
Mof_H 	H 	0.043	0.671	0.163	0.045
Mof_H 	H 	0.093	0.68	0.183	0.009
Mof_H 	H 	0.076	0.559	0.218	-0.183
Mof_H 	H 	0.04	0.6	0.225	-0.048
Mof_H 	H 	0.093	0.607	0.238	-0.024
Mof_H 	H 	0.257	0.63	0.085	0.16
Mof_H 	H 	0.316	0.575	0.065	-0.002
Mof_H 	H 	0.3	0.496	0.051	-0.001
Mof_H 	H 	0.23	0.473	0.059	0.12
Mof_H 	H 	0.169	0.518	0.078	-0.225
Mof_H 	H 	0.256	0.613	0.075	-0.241
Mof_H 	H 	0.312	0.55	0.059	0.102
Mof_H 	H 	0.288	0.476	0.049	-0.013
Mof_H 	H 	0.208	0.461	0.066	0.023
Mof_H 	H 	0.153	0.524	0.086	0.165
Mof_Ni	Ni	0.351	0.3689	0.5973	0.545
Mof_O 	O 	0.3047	0.3384	0.6407	-0.42
Mof_O 	O 	0.3027	0.3796	0.707	-0.254
Mof_C 	C 	0.2873	0.348	0.6798	0.346
Mof_C 	C 	0.2465	0.3194	0.6942	-0.134
Mof_C 	C 	0.2199	0.3316	0.7337	0.062
Mof_O 	O 	0.4082	0.3273	0.6148	-0.689
Mof_O 	O 	0.376	0.4086	0.6538	0.446
Mof_C 	C 	0.4244	0.3379	0.6602	-0.083
Mof_C 	C 	0.4197	0.3917	0.6706	-0.061
Mof_C 	C 	0.4673	0.3152	0.6707	0.086
Mof_C 	C 	0.4287	0.4076	0.7168	0.259
Mof_N 	N 	0.2956	0.4152	0.5831	-0.233
Mof_C 	C 	0.2517	0.4018	0.5796	0.101
Mof_C 	C 	0.2157	0.4357	0.5677	-0.049
Mof_C 	C 	0.2243	0.482	0.5599	0.008
Mof_C 	C 	0.2643	0.4944	0.5642	-0.185
Mof_C 	C 	0.301	0.468	0.5751	0.108
Mof_N 	N 	0.298	0.433	0.5818	-0.066
Mof_C 	C 	0.2534	0.4192	0.5739	0.183
Mof_C 	C 	0.2206	0.4573	0.563	-0.17
Mof_C 	C 	0.2329	0.4995	0.5582	0.186
Mof_C 	C 	0.281	0.5075	0.5677	-0.097
Mof_C 	C 	0.3146	0.4701	0.5799	0.142
Mof_H 	H 	0.23	0.36	0.748	0.031
Mof_H 	H 	0.402	0.323	0.681	0.027
Mof_H 	H 	0.454	0.353	0.672	-0.111
Mof_H 	H 	0.406	0.342	0.695	0.015
Mof_H 	H 	0.465	0.283	0.662	0.089
Mof_H 	H 	0.474	0.318	0.704	0.005
Mof_H 	H 	0.492	0.33	0.653	-0.003
Mof_H 	H 	0.443	0.407	0.651	0.027
Mof_H 	H 	0.457	0.329	0.663	0.045
Mof_H 	H 	0.407	0.32	0.683	0.009
Mof_H 	H 	0.424	0.441	0.718	-0.183
Mof_H 	H 	0.46	0.4	0.725	-0.048
Mof_H 	H 	0.407	0.393	0.738	-0.024
Mof_H 	H 	0.243	0.37	0.585	0.16
Mof_H 	H 	0.184	0.425	0.565	-0.002
Mof_H 	H 	0.2	0.504	0.551	-0.001
Mof_H 	H 	0.27	0.527	0.559	0.12
Mof_H 	H 	0.331	0.482	0.578	-0.225
Mof_H 	H 	0.244	0.387	0.575	-0.241
Mof_H 	H 	0.188	0.45	0.559	0.102
Mof_H 	H 	0.212	0.524	0.549	-0.013
Mof_H 	H 	0.292	0.539	0.566	0.023
Mof_H 	H 	0.347	0.476	0.586	0.165
Mof_Ni	Ni	0.851	0.1311	0.4027	0.545
Mof_O 	O 	0.8047	0.1616	0.3593	-0.42
Mof_O 	O 	0.8027	0.1204	0.293	-0.254
Mof_C 	C 	0.7873	0.152	0.3202	0.346
Mof_C 	C 	0.7465	0.1806	0.3058	-0.134
Mof_C 	C 	0.7199	0.1684	0.2663	0.062
Mof_O 	O 	0.9082	0.1727	0.3852	-0.689
Mof_O 	O 	0.876	0.0914	0.3462	0.446
Mof_C 	C 	0.9244	0.1621	0.3398	-0.083
Mof_C 	C 	0.9197	0.1083	0.3294	-0.061
Mof_C 	C 	0.9673	0.1848	0.3293	0.086
Mof_C 	C 	0.9287	0.0924	0.2832	0.259
Mof_N 	N 	0.7956	0.0848	0.4169	-0.233
Mof_C 	C 	0.7517	0.0982	0.4204	0.101
Mof_C 	C 	0.7157	0.0643	0.4323	-0.049
Mof_C 	C 	0.7243	0.018	0.4401	0.008
Mof_C 	C 	0.7643	0.0056	0.4358	-0.185
Mof_C 	C 	0.801	0.032	0.4249	0.108
Mof_N 	N 	0.798	0.067	0.4182	-0.066
Mof_C 	C 	0.7534	0.0808	0.4261	0.183
Mof_C 	C 	0.7206	0.0427	0.437	-0.17
Mof_C 	C 	0.7329	0.0005	0.4418	0.186
Mof_C 	C 	0.781	0.9925	0.4323	-0.097
Mof_C 	C 	0.8146	0.0299	0.4201	0.142
Mof_H 	H 	0.73	0.14	0.252	0.031
Mof_H 	H 	0.902	0.177	0.319	0.027
Mof_H 	H 	0.954	0.147	0.328	-0.111
Mof_H 	H 	0.906	0.158	0.305	0.015
Mof_H 	H 	0.965	0.217	0.338	0.089
Mof_H 	H 	0.974	0.182	0.296	0.005
Mof_H 	H 	0.992	0.17	0.347	-0.003
Mof_H 	H 	0.943	0.093	0.349	0.027
Mof_H 	H 	0.957	0.171	0.337	0.045
Mof_H 	H 	0.907	0.18	0.317	0.009
Mof_H 	H 	0.924	0.059	0.282	-0.183
Mof_H 	H 	0.96	0.1	0.275	-0.048
Mof_H 	H 	0.907	0.107	0.262	-0.024
Mof_H 	H 	0.743	0.13	0.415	0.16
Mof_H 	H 	0.684	0.075	0.435	-0.002
Mof_H 	H 	0.7	0.996	0.449	-0.001
Mof_H 	H 	0.77	0.973	0.441	0.12
Mof_H 	H 	0.831	0.018	0.422	-0.225
Mof_H 	H 	0.744	0.113	0.425	-0.241
Mof_H 	H 	0.688	0.05	0.441	0.102
Mof_H 	H 	0.712	0.976	0.451	-0.013
Mof_H 	H 	0.792	0.961	0.434	0.023
Mof_H 	H 	0.847	0.024	0.414	0.165
_end
