data_functionalizedCrystal
_audit_creation_method	'EQeq! by Chris Wilmer'
_symmetry_space_group_name_H-M	'P1'
_symmetry_Int_Tables_number	1
_symmetry_cell_setting	triclinic
loop_
_symmetry_equiv_pos_as_xyz
  x,y,z
_cell_length_a	13.5097
_cell_length_b	14.5685
_cell_length_c	16.2487
_cell_angle_alpha	116.634
_cell_angle_beta	99.0357
_cell_angle_gamma	90
loop_
_atom_site_label
_atom_site_type_symbol
_atom_site_fract_x
_atom_site_fract_y
_atom_site_fract_z
_atom_site_charge
Mof_Ce	Ce	0.95721	0.89535	0.36264	2.267
Mof_Ce	Ce	0.54279	0.53271	0.63736	2.305
Mof_Ce	Ce	0.04279	0.10465	0.63736	2.266
Mof_Ce	Ce	0.45721	0.46729	0.36264	2.304
Mof_H 	H 	0.0681	0.6842	0.0586	0.013
Mof_H 	H 	0.1174	0.6426	0.9164	0.065
Mof_H 	H 	0.1092	0.9386	0.967	0.08
Mof_H 	H 	0.0555	0.9775	0.1094	0.027
Mof_H 	H 	0.2684	0.6773	0.7076	0.045
Mof_H 	H 	0.0759	0.8775	0.6786	0.031
Mof_H 	H 	0.1958	0.6799	0.4588	0.005
Mof_H 	H 	0.151	0.682	0.816	0.025
Mof_H 	H 	0.4319	0.6256	0.9414	0.016
Mof_H 	H 	0.3826	0.7262	0.0836	0.063
Mof_H 	H 	0.3908	0.9716	0.033	0.076
Mof_H 	H 	0.4445	0.8681	0.8906	0.027
Mof_H 	H 	0.2316	0.9697	0.2924	0.054
Mof_H 	H 	0.4241	0.1989	0.3214	0.028
Mof_H 	H 	0.3042	0.2211	0.5412	0.007
Mof_H 	H 	0.349	0.866	0.184	0.024
Mof_H 	H 	0.9319	0.3158	0.9414	0.013
Mof_H 	H 	0.8826	0.3574	0.0836	0.065
Mof_H 	H 	0.8908	0.0614	0.033	0.08
Mof_H 	H 	0.9445	0.0225	0.8906	0.027
Mof_H 	H 	0.7316	0.3227	0.2924	0.045
Mof_H 	H 	0.9241	0.1225	0.3214	0.031
Mof_H 	H 	0.8042	0.3201	0.5412	0.005
Mof_H 	H 	0.849	0.318	0.184	0.025
Mof_H 	H 	0.5681	0.3744	0.0586	0.016
Mof_H 	H 	0.6174	0.2738	0.9164	0.063
Mof_H 	H 	0.6092	0.0284	0.967	0.076
Mof_H 	H 	0.5555	0.1319	0.1094	0.027
Mof_H 	H 	0.7684	0.0303	0.7076	0.054
Mof_H 	H 	0.5759	0.8011	0.6786	0.028
Mof_H 	H 	0.6958	0.7789	0.4588	0.007
Mof_H 	H 	0.651	0.134	0.816	0.024
Mof_C 	C 	0.0192	0.8609	0.188	0.356
Mof_C 	C 	0.0541	0.8345	0.0966	-0.123
Mof_C 	C 	0.0746	0.7352	0.0398	0.049
Mof_C 	C 	0.1049	0.7101	0.9544	-0.141
Mof_C 	C 	0.1164	0.7847	0.9266	0.072
Mof_C 	C 	0.0996	0.8871	0.9846	-0.126
Mof_C 	C 	0.0675	0.9101	0.0704	0.045
Mof_C 	C 	0.1456	0.7568	0.8344	-0.006
Mof_C 	C 	0.3166	0.5878	0.539	0.477
Mof_C 	C 	0.2446	0.6673	0.5772	-0.159
Mof_C 	C 	0.2328	0.7038	0.6704	-0.009
Mof_C 	C 	0.1673	0.7804	0.7074	0.035
Mof_C 	C 	0.1163	0.8238	0.6526	-0.019
Mof_C 	C 	0.127	0.7858	0.5594	-0.149
Mof_C 	C 	0.1902	0.7065	0.5216	0.072
Mof_C 	C 	0.071	0.8276	0.4984	0.417
Mof_C 	C 	0.4808	0.6729	0.812	0.338
Mof_C 	C 	0.4459	0.7379	0.9034	-0.115
Mof_C 	C 	0.4254	0.6954	0.9602	0.039
Mof_C 	C 	0.3951	0.7557	0.0456	-0.133
Mof_C 	C 	0.3836	0.8581	0.0734	0.066
Mof_C 	C 	0.4004	0.9025	0.0154	-0.12
Mof_C 	C 	0.4325	0.8397	0.9296	0.037
Mof_C 	C 	0.3544	0.9224	0.1656	-0.002
Mof_C 	C 	0.1834	0.0488	0.461	0.462
Mof_C 	C 	0.2554	0.0901	0.4228	-0.15
Mof_C 	C 	0.2672	0.0334	0.3296	-0.025
Mof_C 	C 	0.3327	0.073	0.2926	0.039
Mof_C 	C 	0.3837	0.1712	0.3474	-0.022
Mof_C 	C 	0.373	0.2264	0.4406	-0.148
Mof_C 	C 	0.3098	0.1849	0.4784	0.067
Mof_C 	C 	0.429	0.3292	0.5016	0.419
Mof_C 	C 	0.9808	0.1391	0.812	0.356
Mof_C 	C 	0.9459	0.1655	0.9034	-0.123
Mof_C 	C 	0.9254	0.2648	0.9602	0.049
Mof_C 	C 	0.8951	0.2899	0.0456	-0.141
Mof_C 	C 	0.8836	0.2153	0.0734	0.072
Mof_C 	C 	0.9004	0.1129	0.0154	-0.126
Mof_C 	C 	0.9325	0.0899	0.9296	0.045
Mof_C 	C 	0.8544	0.2432	0.1656	-0.006
Mof_C 	C 	0.6834	0.4122	0.461	0.477
Mof_C 	C 	0.7554	0.3327	0.4228	-0.159
Mof_C 	C 	0.7672	0.2962	0.3296	-0.009
Mof_C 	C 	0.8327	0.2196	0.2926	0.035
Mof_C 	C 	0.8837	0.1762	0.3474	-0.019
Mof_C 	C 	0.873	0.2142	0.4406	-0.149
Mof_C 	C 	0.8098	0.2935	0.4784	0.072
Mof_C 	C 	0.929	0.1724	0.5016	0.417
Mof_C 	C 	0.5192	0.3271	0.188	0.338
Mof_C 	C 	0.5541	0.2621	0.0966	-0.115
Mof_C 	C 	0.5746	0.3046	0.0398	0.039
Mof_C 	C 	0.6049	0.2443	0.9544	-0.133
Mof_C 	C 	0.6164	0.1419	0.9266	0.066
Mof_C 	C 	0.5996	0.0975	0.9846	-0.12
Mof_C 	C 	0.5675	0.1603	0.0704	0.037
Mof_C 	C 	0.6456	0.0776	0.8344	-0.002
Mof_C 	C 	0.8166	0.9512	0.539	0.462
Mof_C 	C 	0.7446	0.9099	0.5772	-0.15
Mof_C 	C 	0.7328	0.9666	0.6704	-0.025
Mof_C 	C 	0.6673	0.927	0.7074	0.039
Mof_C 	C 	0.6163	0.8288	0.6526	-0.022
Mof_C 	C 	0.627	0.7736	0.5594	-0.148
Mof_C 	C 	0.6902	0.8151	0.5216	0.067
Mof_C 	C 	0.571	0.6708	0.4984	0.419
Mof_N 	N 	0.1501	0.8193	0.8016	-0.116
Mof_N 	N 	0.3499	0.0177	0.1984	-0.119
Mof_N 	N 	0.8499	0.1807	0.1984	-0.116
Mof_N 	N 	0.6501	0.9823	0.8016	-0.119
Mof_O 	O 	0.9982	0.94963	0.23746	-0.472
Mof_O 	O 	0.0122	0.78867	0.20974	-0.503
Mof_O 	O 	0.3256	0.5537	0.4542	-0.587
Mof_O 	O 	0.3655	0.55798	0.59496	-0.535
Mof_O 	O 	0.0547	0.77368	0.41116	-0.501
Mof_O 	O 	0.0372	0.91687	0.53674	-0.641
Mof_O 	O 	0.5018	0.71217	0.76254	-0.458
Mof_O 	O 	0.4878	0.57893	0.79026	-0.505
Mof_O 	O 	0.1744	0.0995	0.5458	-0.581
Mof_O 	O 	0.1345	0.96302	0.40504	-0.521
Mof_O 	O 	0.4453	0.36252	0.58884	-0.508
Mof_O 	O 	0.4628	0.38013	0.46326	-0.653
Mof_O 	O 	0.0018	0.05037	0.76254	-0.472
Mof_O 	O 	0.9878	0.21133	0.79026	-0.503
Mof_O 	O 	0.6744	0.4463	0.5458	-0.587
Mof_O 	O 	0.6345	0.44202	0.40504	-0.535
Mof_O 	O 	0.9453	0.22632	0.58884	-0.501
Mof_O 	O 	0.9628	0.08313	0.46326	-0.641
Mof_O 	O 	0.4982	0.28783	0.23746	-0.458
Mof_O 	O 	0.5122	0.42107	0.20974	-0.505
Mof_O 	O 	0.8256	0.9005	0.4542	-0.581
Mof_O 	O 	0.8655	0.03698	0.59496	-0.521
Mof_O 	O 	0.5547	0.63748	0.41116	-0.508
Mof_O 	O 	0.5372	0.61987	0.53674	-0.653
_end
