data_functionalizedCrystal
_audit_creation_method	'EQeq! by Chris Wilmer'
_symmetry_space_group_name_H-M	'P1'
_symmetry_Int_Tables_number	1
_symmetry_cell_setting	triclinic
loop_
_symmetry_equiv_pos_as_xyz
  x,y,z
_cell_length_a	19.2347
_cell_length_b	13.2563
_cell_length_c	16.7559
_cell_angle_alpha	90
_cell_angle_beta	123.909
_cell_angle_gamma	90
loop_
_atom_site_label
_atom_site_type_symbol
_atom_site_fract_x
_atom_site_fract_y
_atom_site_fract_z
_atom_site_charge
Mof_Ce	Ce	0.22168	0.42268	0.26802	1.905
Mof_O 	O 	0.26909	0.25668	0.2356	-0.511
Mof_O 	O 	0.24354	0.09614	0.1889	-0.587
Mof_O 	O 	0.8684	0.1174	0.93041	-0.48
Mof_O 	O 	0.86056	0.275	0.9721	-0.552
Mof_H 	H 	0.8101	0.2657	0.9343	0.323
Mof_O 	O 	0.20838	0.2705	0.3604	-0.466
Mof_O 	O 	0.18045	0.1158	0.3847	-0.32
Mof_N 	N 	0.10629	0.2993	0.1371	-0.202
Mof_N 	N 	0.02321	0.2998	0.0812	-0.13
Mof_H 	H 	0.9928	0.3519	0.0716	0.073
Mof_N 	N 	0.042	0.3238	0.277	-0.129
Mof_H 	H 	0.0736	0.3763	0.2971	0.023
Mof_C 	C 	0.1292	0.2052	0.1322	-0.115
Mof_C 	C 	0.0599	0.1445	0.0729	0.033
Mof_H 	H 	0.0592	0.0768	0.058	0.006
Mof_C 	C 	0.9922	0.2083	0.041	-0.075
Mof_C 	C 	0.2207	0.1836	0.1902	0.446
Mof_C 	C 	0.9012	0.1947	0.9755	0.437
Mof_C 	C 	0.1582	0.2019	0.3511	0.363
Mof_C 	C 	0.0684	0.2278	0.2941	-0.051
Mof_Ce	Ce	0.72168	0.92268	0.26802	1.9
Mof_O 	O 	0.76909	0.75668	0.2356	-0.513
Mof_O 	O 	0.74354	0.59614	0.1889	-0.591
Mof_O 	O 	0.3684	0.6174	0.93041	-0.482
Mof_O 	O 	0.36056	0.775	0.9721	-0.552
Mof_H 	H 	0.3101	0.7657	0.9343	0.323
Mof_O 	O 	0.70838	0.7705	0.3604	-0.466
Mof_O 	O 	0.68045	0.6158	0.3847	-0.32
Mof_N 	N 	0.60629	0.7993	0.1371	-0.202
Mof_N 	N 	0.52321	0.7998	0.0812	-0.127
Mof_H 	H 	0.4928	0.8519	0.0716	0.07
Mof_N 	N 	0.542	0.8238	0.277	-0.128
Mof_H 	H 	0.5736	0.8763	0.2971	0.023
Mof_C 	C 	0.6292	0.7052	0.1322	-0.118
Mof_C 	C 	0.5599	0.6445	0.0729	0.039
Mof_H 	H 	0.5592	0.5768	0.058	0.002
Mof_C 	C 	0.4922	0.7083	0.041	-0.085
Mof_C 	C 	0.7207	0.6836	0.1902	0.447
Mof_C 	C 	0.4012	0.6947	0.9755	0.445
Mof_C 	C 	0.6582	0.7019	0.3511	0.363
Mof_C 	C 	0.5684	0.7278	0.2941	-0.052
Mof_Ce	Ce	0.77832	0.42268	0.23198	1.906
Mof_O 	O 	0.73091	0.25668	0.2644	-0.512
Mof_O 	O 	0.75646	0.09614	0.3111	-0.588
Mof_O 	O 	0.1316	0.1174	0.56959	-0.482
Mof_O 	O 	0.13944	0.275	0.5279	-0.554
Mof_H 	H 	0.1899	0.2657	0.5657	0.323
Mof_O 	O 	0.79162	0.2705	0.1396	-0.466
Mof_O 	O 	0.81955	0.1158	0.1153	-0.318
Mof_N 	N 	0.89371	0.2993	0.3629	-0.202
Mof_N 	N 	0.97679	0.2998	0.4188	-0.124
Mof_H 	H 	0.0072	0.3519	0.4284	0.069
Mof_N 	N 	0.958	0.3238	0.223	-0.128
Mof_H 	H 	0.9264	0.3763	0.2029	0.023
Mof_C 	C 	0.8708	0.2052	0.3678	-0.118
Mof_C 	C 	0.9401	0.1445	0.4271	0.043
Mof_H 	H 	0.9408	0.0768	0.442	0.002
Mof_C 	C 	0.0078	0.2083	0.459	-0.087
Mof_C 	C 	0.7793	0.1836	0.3098	0.447
Mof_C 	C 	0.0988	0.1947	0.5245	0.444
Mof_C 	C 	0.8418	0.2019	0.1489	0.362
Mof_C 	C 	0.9316	0.2278	0.2059	-0.049
Mof_Ce	Ce	0.27832	0.92268	0.23198	1.902
Mof_O 	O 	0.23091	0.75668	0.2644	-0.512
Mof_O 	O 	0.25646	0.59614	0.3111	-0.59
Mof_O 	O 	0.6316	0.6174	0.56959	-0.481
Mof_O 	O 	0.63944	0.775	0.5279	-0.553
Mof_H 	H 	0.6899	0.7657	0.5657	0.323
Mof_O 	O 	0.29162	0.7705	0.1396	-0.467
Mof_O 	O 	0.31955	0.6158	0.1153	-0.321
Mof_N 	N 	0.39371	0.7993	0.3629	-0.201
Mof_N 	N 	0.47679	0.7998	0.4188	-0.128
Mof_H 	H 	0.5072	0.8519	0.4284	0.072
Mof_N 	N 	0.458	0.8238	0.223	-0.128
Mof_H 	H 	0.4264	0.8763	0.2029	0.023
Mof_C 	C 	0.3708	0.7052	0.3678	-0.117
Mof_C 	C 	0.4401	0.6445	0.4271	0.038
Mof_H 	H 	0.4408	0.5768	0.442	0.003
Mof_C 	C 	0.5078	0.7083	0.459	-0.082
Mof_C 	C 	0.2793	0.6836	0.3098	0.447
Mof_C 	C 	0.5988	0.6947	0.5245	0.442
Mof_C 	C 	0.3418	0.7019	0.1489	0.363
Mof_C 	C 	0.4316	0.7278	0.2059	-0.052
Mof_Ce	Ce	0.77832	0.57732	0.73198	1.906
Mof_O 	O 	0.73091	0.74332	0.7644	-0.512
Mof_O 	O 	0.75646	0.90386	0.8111	-0.588
Mof_O 	O 	0.1316	0.8826	0.06959	-0.482
Mof_O 	O 	0.13944	0.725	0.0279	-0.554
Mof_H 	H 	0.1899	0.7343	0.0657	0.323
Mof_O 	O 	0.79162	0.7295	0.6396	-0.466
Mof_O 	O 	0.81955	0.8842	0.6153	-0.319
Mof_N 	N 	0.89371	0.7007	0.8629	-0.202
Mof_N 	N 	0.97679	0.7002	0.9188	-0.126
Mof_H 	H 	0.0072	0.6481	0.9284	0.07
Mof_N 	N 	0.958	0.6762	0.723	-0.128
Mof_H 	H 	0.9264	0.6237	0.7029	0.023
Mof_C 	C 	0.8708	0.7948	0.8678	-0.117
Mof_C 	C 	0.9401	0.8555	0.9271	0.039
Mof_H 	H 	0.9408	0.9232	0.942	0.004
Mof_C 	C 	0.0078	0.7917	0.959	-0.082
Mof_C 	C 	0.7793	0.8164	0.8098	0.447
Mof_C 	C 	0.0988	0.8053	0.0245	0.439
Mof_C 	C 	0.8418	0.7981	0.6489	0.363
Mof_C 	C 	0.9316	0.7722	0.7059	-0.05
Mof_Ce	Ce	0.27832	0.07732	0.73198	1.9
Mof_O 	O 	0.23091	0.24332	0.7644	-0.513
Mof_O 	O 	0.25646	0.40386	0.8111	-0.591
Mof_O 	O 	0.6316	0.3826	0.06959	-0.482
Mof_O 	O 	0.63944	0.225	0.0279	-0.552
Mof_H 	H 	0.6899	0.2343	0.0657	0.323
Mof_O 	O 	0.29162	0.2295	0.6396	-0.466
Mof_O 	O 	0.31955	0.3842	0.6153	-0.32
Mof_N 	N 	0.39371	0.2007	0.8629	-0.202
Mof_N 	N 	0.47679	0.2002	0.9188	-0.127
Mof_H 	H 	0.5072	0.1481	0.9284	0.07
Mof_N 	N 	0.458	0.1762	0.723	-0.128
Mof_H 	H 	0.4264	0.1237	0.7029	0.023
Mof_C 	C 	0.3708	0.2948	0.8678	-0.118
Mof_C 	C 	0.4401	0.3555	0.9271	0.039
Mof_H 	H 	0.4408	0.4232	0.942	0.002
Mof_C 	C 	0.5078	0.2917	0.959	-0.085
Mof_C 	C 	0.2793	0.3164	0.8098	0.447
Mof_C 	C 	0.5988	0.3053	0.0245	0.445
Mof_C 	C 	0.3418	0.2981	0.6489	0.363
Mof_C 	C 	0.4316	0.2722	0.7059	-0.052
Mof_Ce	Ce	0.22168	0.57732	0.76802	1.904
Mof_O 	O 	0.26909	0.74332	0.7356	-0.512
Mof_O 	O 	0.24354	0.90386	0.6889	-0.588
Mof_O 	O 	0.8684	0.8826	0.43041	-0.481
Mof_O 	O 	0.86056	0.725	0.4721	-0.553
Mof_H 	H 	0.8101	0.7343	0.4343	0.323
Mof_O 	O 	0.20838	0.7295	0.8604	-0.466
Mof_O 	O 	0.18045	0.8842	0.8847	-0.318
Mof_N 	N 	0.10629	0.7007	0.6371	-0.202
Mof_N 	N 	0.02321	0.7002	0.5812	-0.129
Mof_H 	H 	0.9928	0.6481	0.5716	0.072
Mof_N 	N 	0.042	0.6762	0.777	-0.129
Mof_H 	H 	0.0736	0.6237	0.7971	0.023
Mof_C 	C 	0.1292	0.7948	0.6322	-0.116
Mof_C 	C 	0.0599	0.8555	0.5729	0.036
Mof_H 	H 	0.0592	0.9232	0.558	0.004
Mof_C 	C 	0.9922	0.7917	0.541	-0.081
Mof_C 	C 	0.2207	0.8164	0.6902	0.447
Mof_C 	C 	0.9012	0.8053	0.4755	0.442
Mof_C 	C 	0.1582	0.7981	0.8511	0.363
Mof_C 	C 	0.0684	0.7722	0.7941	-0.051
Mof_Ce	Ce	0.72168	0.07732	0.76802	1.902
Mof_O 	O 	0.76909	0.24332	0.7356	-0.512
Mof_O 	O 	0.74354	0.40386	0.6889	-0.59
Mof_O 	O 	0.3684	0.3826	0.43041	-0.481
Mof_O 	O 	0.36056	0.225	0.4721	-0.553
Mof_H 	H 	0.3101	0.2343	0.4343	0.323
Mof_O 	O 	0.70838	0.2295	0.8604	-0.467
Mof_O 	O 	0.68045	0.3842	0.8847	-0.321
Mof_N 	N 	0.60629	0.2007	0.6371	-0.201
Mof_N 	N 	0.52321	0.2002	0.5812	-0.128
Mof_H 	H 	0.4928	0.1481	0.5716	0.072
Mof_N 	N 	0.542	0.1762	0.777	-0.128
Mof_H 	H 	0.5736	0.1237	0.7971	0.023
Mof_C 	C 	0.6292	0.2948	0.6322	-0.117
Mof_C 	C 	0.5599	0.3555	0.5729	0.038
Mof_H 	H 	0.5592	0.4232	0.558	0.003
Mof_C 	C 	0.4922	0.2917	0.541	-0.082
Mof_C 	C 	0.7207	0.3164	0.6902	0.447
Mof_C 	C 	0.4012	0.3053	0.4755	0.442
Mof_C 	C 	0.6582	0.2981	0.8511	0.363
Mof_C 	C 	0.5684	0.2722	0.7941	-0.052
Mof_C 	C 	1.27209e-33	0.1646	0.25	0.008
Mof_H 	H 	1.27209e-33	0.0944	0.25	0.022
Mof_C 	C 	0.5	0.6646	0.25	0.012
Mof_H 	H 	0.5	0.5944	0.25	0.021
Mof_C 	C 	-6.41248e-17	0.8354	0.75	0.01
Mof_H 	H 	-6.41248e-17	0.9056	0.75	0.022
Mof_C 	C 	0.5	0.3354	0.75	0.012
Mof_H 	H 	0.5	0.4056	0.75	0.021
_end
