data_functionalizedCrystal
_audit_creation_method	'EQeq! by Chris Wilmer'
_symmetry_space_group_name_H-M	'P1'
_symmetry_Int_Tables_number	1
_symmetry_cell_setting	triclinic
loop_
_symmetry_equiv_pos_as_xyz
  x,y,z
_cell_length_a	11.2276
_cell_length_b	32.867
_cell_length_c	32.867
_cell_angle_alpha	88.3282
_cell_angle_beta	80.1655
_cell_angle_gamma	80.1656
loop_
_atom_site_label
_atom_site_type_symbol
_atom_site_fract_x
_atom_site_fract_y
_atom_site_fract_z
_atom_site_charge
Mof_Nd	Nd	0.81681	0.97073	0.17109	2.144
Mof_Nd	Nd	0.31759	0.97373	0.17318	2.204
Mof_Nd	Nd	0.45863	0.52927	0.32891	2.144
Mof_Nd	Nd	0.96449	0.52627	0.32682	2.2
Mof_Nd	Nd	0.9879	0.82891	0.47073	2.136
Mof_Nd	Nd	0.49076	0.82682	0.47374	2.203
Mof_Nd	Nd	0.78754	0.67109	0.02927	2.144
Mof_Nd	Nd	0.29132	0.67318	0.02626	2.204
Mof_Nd	Nd	0.18319	0.02927	0.82891	2.144
Mof_Nd	Nd	0.68241	0.02627	0.82682	2.204
Mof_Nd	Nd	0.54137	0.47073	0.67109	2.143
Mof_Nd	Nd	0.03551	0.47373	0.67318	2.199
Mof_Nd	Nd	0.0121	0.17109	0.52927	2.135
Mof_Nd	Nd	0.50924	0.17318	0.52626	2.202
Mof_Nd	Nd	0.21246	0.32891	0.97073	2.143
Mof_Nd	Nd	0.70868	0.32682	0.97374	2.203
Mof_Co	Co	0.67461	0.03689	0.37083	1.118
Mof_Co	Co	0.58233	0.46311	0.12917	1.118
Mof_Co	Co	0.04544	0.62917	0.53689	1.118
Mof_Co	Co	0.7115	0.87083	0.96311	1.118
Mof_Co	Co	0.32539	0.96311	0.62917	1.118
Mof_Co	Co	0.41767	0.53689	0.87083	1.118
Mof_Co	Co	0.95456	0.37083	0.46311	1.118
Mof_Co	Co	0.2885	0.12917	0.03689	1.118
Mof_H 	H 	0.3721	0.9566	0.2902	-0.017
Mof_H 	H 	0.6983	0.0261	0.0383	0.005
Mof_H 	H 	0.3185	0.963	0.3618	0.091
Mof_H 	H 	0.6535	0.0279	0.9717	0.086
Mof_H 	H 	0.424	0.0006	0.396	-0.021
Mof_H 	H 	0.6359	0.9672	0.9418	-0.026
Mof_H 	H 	0.6645	0.1253	0.2197	0.03
Mof_H 	H 	0.8439	0.0872	0.3118	-0.001
Mof_H 	H 	0.5498	0.8411	0.1321	0.021
Mof_H 	H 	0.7576	0.7977	0.0263	-0.025
Mof_H 	H 	0.8225	0.1293	0.2557	0.089
Mof_H 	H 	0.9508	0.0186	0.061	-0.017
Mof_H 	H 	0.1016	0.9567	0.3129	-0.004
Mof_H 	H 	0.6636	0.786	0.093	0.085
Mof_H 	H 	0.9362	0.0635	0.0055	0.093
Mof_H 	H 	0.0104	0.9247	0.3717	0.108
Mof_H 	H 	0.0566	0.1149	0.9975	-0.016
Mof_H 	H 	0.9572	0.8645	0.3635	-0.022
Mof_H 	H 	0.1644	0.1266	0.211	0.03
Mof_H 	H 	0.4125	0.1396	0.1124	-0.004
Mof_H 	H 	0.1207	0.8436	0.1348	0.025
Mof_H 	H 	0.2766	0.7591	0.2059	0.019
Mof_H 	H 	0.3474	0.148	0.1812	0.091
Mof_H 	H 	0.2622	0.7829	0.1403	0.089
Mof_H 	H 	0.1189	0.5434	0.2098	-0.016
Mof_H 	H 	0.2627	0.4739	0.4617	0.006
Mof_H 	H 	0.1433	0.537	0.1382	0.091
Mof_H 	H 	0.1531	0.4721	0.5283	0.086
Mof_H 	H 	0.3206	0.4994	0.104	-0.021
Mof_H 	H 	0.0449	0.5328	0.5582	-0.026
Mof_H 	H 	0.5095	0.3747	0.2803	0.03
Mof_H 	H 	0.7429	0.4128	0.1882	-0
Mof_H 	H 	0.023	0.6589	0.3679	0.022
Mof_H 	H 	0.0816	0.7023	0.4737	-0.025
Mof_H 	H 	0.7075	0.3707	0.2443	0.089
Mof_H 	H 	0.5304	0.4814	0.439	-0.017
Mof_H 	H 	0.8712	0.5433	0.1871	-0.006
Mof_H 	H 	0.0426	0.714	0.407	0.086
Mof_H 	H 	0.5052	0.4365	0.4945	0.094
Mof_H 	H 	0.8068	0.5753	0.1283	0.111
Mof_H 	H 	0.669	0.3851	0.5025	-0.016
Mof_H 	H 	0.6852	0.6355	0.1365	-0.025
Mof_H 	H 	0.002	0.3734	0.289	0.031
Mof_H 	H 	0.1645	0.3604	0.3876	-0.003
Mof_H 	H 	0.5991	0.6564	0.3652	0.024
Mof_H 	H 	0.7416	0.7409	0.2941	0.018
Mof_H 	H 	0.1766	0.352	0.3188	0.091
Mof_H 	H 	0.6854	0.7171	0.3597	0.089
Mof_H 	H 	0.6623	0.7098	0.4566	-0.017
Mof_H 	H 	0.7366	0.9617	0.5261	0.006
Mof_H 	H 	0.6803	0.6382	0.463	0.091
Mof_H 	H 	0.6252	0.0283	0.5279	0.086
Mof_H 	H 	0.82	0.604	0.5006	-0.021
Mof_H 	H 	0.5777	0.0582	0.4672	-0.026
Mof_H 	H 	0.8842	0.7803	0.6253	0.031
Mof_H 	H 	0.1557	0.6882	0.5872	0
Mof_H 	H 	0.6819	0.8679	0.3411	0.021
Mof_H 	H 	0.7839	0.9737	0.2977	-0.025
Mof_H 	H 	0.0782	0.7443	0.6293	0.088
Mof_H 	H 	0.0118	0.939	0.5186	-0.017
Mof_H 	H 	0.4145	0.6871	0.4567	-0.006
Mof_H 	H 	0.7566	0.907	0.286	0.085
Mof_H 	H 	0.9417	0.9945	0.5635	0.094
Mof_H 	H 	0.3821	0.6283	0.4247	0.111
Mof_H 	H 	0.0541	0.0025	0.6149	-0.017
Mof_H 	H 	0.3207	0.6365	0.3645	-0.025
Mof_H 	H 	0.3754	0.789	0.6266	0.03
Mof_H 	H 	0.5249	0.8876	0.6396	-0.004
Mof_H 	H 	0.2555	0.8652	0.3436	0.024
Mof_H 	H 	0.4825	0.7941	0.2591	0.018
Mof_H 	H 	0.5286	0.8188	0.648	0.091
Mof_H 	H 	0.4025	0.8597	0.2829	0.09
Mof_H 	H 	0.3287	0.7902	0.0434	-0.017
Mof_H 	H 	0.7244	0.5383	0.9739	0.006
Mof_H 	H 	0.2815	0.8618	0.037	0.091
Mof_H 	H 	0.6814	0.4717	0.9721	0.086
Mof_H 	H 	0.4246	0.896	0.9994	-0.021
Mof_H 	H 	0.6031	0.4418	0.0328	-0.026
Mof_H 	H 	0.7898	0.7197	0.8747	0.03
Mof_H 	H 	0.9311	0.8118	0.9128	-0.001
Mof_H 	H 	0.3909	0.6321	0.1589	0.022
Mof_H 	H 	0.5553	0.5263	0.2023	-0.025
Mof_H 	H 	0.9518	0.7557	0.8707	0.089
Mof_H 	H 	0.9694	0.561	0.9814	-0.019
Mof_H 	H 	0.0583	0.8129	0.0433	-0.007
Mof_H 	H 	0.4496	0.593	0.214	0.085
Mof_H 	H 	0.9997	0.5055	0.9365	0.096
Mof_H 	H 	0.9351	0.8717	0.0753	0.112
Mof_H 	H 	0.1715	0.4975	0.8851	-0.017
Mof_H 	H 	0.8217	0.8635	0.1355	-0.025
Mof_H 	H 	0.291	0.711	0.8734	0.03
Mof_H 	H 	0.5521	0.6124	0.8604	-0.004
Mof_H 	H 	0.9643	0.6348	0.1564	0.025
Mof_H 	H 	0.0357	0.7059	0.2409	0.019
Mof_H 	H 	0.4954	0.6812	0.852	0.091
Mof_H 	H 	0.0451	0.6403	0.2171	0.089
Mof_H 	H 	0.6279	0.0434	0.7098	-0.017
Mof_H 	H 	0.3017	0.9739	0.9617	0.005
Mof_H 	H 	0.6815	0.037	0.6382	0.091
Mof_H 	H 	0.3465	0.9721	0.0283	0.086
Mof_H 	H 	0.576	0.9994	0.604	-0.021
Mof_H 	H 	0.3641	0.0328	0.0582	-0.026
Mof_H 	H 	0.3355	0.8747	0.7803	0.03
Mof_H 	H 	0.1561	0.9128	0.6882	-0.001
Mof_H 	H 	0.4502	0.1589	0.8679	0.021
Mof_H 	H 	0.2424	0.2023	0.9737	-0.025
Mof_H 	H 	0.1775	0.8707	0.7443	0.089
Mof_H 	H 	0.0492	0.9814	0.939	-0.017
Mof_H 	H 	0.8984	0.0433	0.6871	-0.004
Mof_H 	H 	0.3364	0.214	0.907	0.085
Mof_H 	H 	0.0638	0.9365	0.9945	0.093
Mof_H 	H 	0.9896	0.0753	0.6283	0.108
Mof_H 	H 	0.9434	0.8851	0.0025	-0.016
Mof_H 	H 	0.0428	0.1355	0.6365	-0.022
Mof_H 	H 	0.8356	0.8734	0.789	0.03
Mof_H 	H 	0.5875	0.8604	0.8876	-0.004
Mof_H 	H 	0.8793	0.1564	0.8652	0.025
Mof_H 	H 	0.7234	0.2409	0.7941	0.019
Mof_H 	H 	0.6526	0.852	0.8188	0.091
Mof_H 	H 	0.7378	0.2171	0.8597	0.089
Mof_H 	H 	0.8811	0.4566	0.7902	-0.016
Mof_H 	H 	0.7373	0.5261	0.5383	0.006
Mof_H 	H 	0.8567	0.463	0.8618	0.091
Mof_H 	H 	0.8469	0.5279	0.4717	0.086
Mof_H 	H 	0.6794	0.5006	0.896	-0.021
Mof_H 	H 	0.9551	0.4672	0.4418	-0.026
Mof_H 	H 	0.4905	0.6253	0.7197	0.03
Mof_H 	H 	0.2571	0.5872	0.8118	-0
Mof_H 	H 	0.977	0.3411	0.6321	0.022
Mof_H 	H 	0.9184	0.2977	0.5263	-0.025
Mof_H 	H 	0.2925	0.6293	0.7557	0.089
Mof_H 	H 	0.4696	0.5186	0.561	-0.017
Mof_H 	H 	0.1288	0.4567	0.8129	-0.006
Mof_H 	H 	0.9574	0.286	0.593	0.086
Mof_H 	H 	0.4948	0.5635	0.5055	0.094
Mof_H 	H 	0.1932	0.4247	0.8717	0.111
Mof_H 	H 	0.331	0.6149	0.4975	-0.016
Mof_H 	H 	0.3148	0.3645	0.8635	-0.025
Mof_H 	H 	0.998	0.6266	0.711	0.031
Mof_H 	H 	0.8355	0.6396	0.6124	-0.003
Mof_H 	H 	0.4009	0.3436	0.6348	0.024
Mof_H 	H 	0.2584	0.2591	0.7059	0.018
Mof_H 	H 	0.8234	0.648	0.6812	0.091
Mof_H 	H 	0.3146	0.2829	0.6403	0.089
Mof_H 	H 	0.3377	0.2902	0.5434	-0.017
Mof_H 	H 	0.2634	0.0383	0.4739	0.006
Mof_H 	H 	0.3197	0.3618	0.537	0.091
Mof_H 	H 	0.3748	0.9717	0.4721	0.086
Mof_H 	H 	0.18	0.396	0.4994	-0.021
Mof_H 	H 	0.4223	0.9418	0.5328	-0.026
Mof_H 	H 	0.1158	0.2197	0.3747	0.031
Mof_H 	H 	0.8443	0.3118	0.4128	0
Mof_H 	H 	0.3181	0.1321	0.6589	0.021
Mof_H 	H 	0.2161	0.0263	0.7023	-0.025
Mof_H 	H 	0.9218	0.2557	0.3707	0.088
Mof_H 	H 	0.9882	0.061	0.4814	-0.017
Mof_H 	H 	0.5855	0.3129	0.5433	-0.006
Mof_H 	H 	0.2434	0.093	0.714	0.085
Mof_H 	H 	0.0583	0.0055	0.4365	0.094
Mof_H 	H 	0.6179	0.3717	0.5753	0.111
Mof_H 	H 	0.9459	0.9975	0.3851	-0.017
Mof_H 	H 	0.6793	0.3635	0.6355	-0.025
Mof_H 	H 	0.6246	0.211	0.3734	0.03
Mof_H 	H 	0.4751	0.1124	0.3604	-0.004
Mof_H 	H 	0.7445	0.1348	0.6564	0.024
Mof_H 	H 	0.5175	0.2059	0.7409	0.018
Mof_H 	H 	0.4714	0.1812	0.352	0.091
Mof_H 	H 	0.5975	0.1403	0.7171	0.09
Mof_H 	H 	0.6713	0.2098	0.9566	-0.017
Mof_H 	H 	0.2756	0.4617	0.0261	0.006
Mof_H 	H 	0.7185	0.1382	0.963	0.091
Mof_H 	H 	0.3186	0.5283	0.0279	0.086
Mof_H 	H 	0.5754	0.104	0.0006	-0.021
Mof_H 	H 	0.3969	0.5582	0.9672	-0.026
Mof_H 	H 	0.2102	0.2803	0.1253	0.03
Mof_H 	H 	0.0689	0.1882	0.0872	-0.001
Mof_H 	H 	0.6091	0.3679	0.8411	0.022
Mof_H 	H 	0.4447	0.4737	0.7977	-0.025
Mof_H 	H 	0.0482	0.2443	0.1293	0.089
Mof_H 	H 	0.0306	0.439	0.0186	-0.019
Mof_H 	H 	0.9417	0.1871	0.9567	-0.007
Mof_H 	H 	0.5504	0.407	0.786	0.085
Mof_H 	H 	0.0003	0.4945	0.0635	0.096
Mof_H 	H 	0.0649	0.1283	0.9247	0.112
Mof_H 	H 	0.8285	0.5025	0.1149	-0.017
Mof_H 	H 	0.1783	0.1365	0.8645	-0.025
Mof_H 	H 	0.709	0.289	0.1266	0.03
Mof_H 	H 	0.4479	0.3876	0.1396	-0.004
Mof_H 	H 	0.0357	0.3652	0.8436	0.025
Mof_H 	H 	0.9643	0.2941	0.7591	0.019
Mof_H 	H 	0.5046	0.3188	0.148	0.091
Mof_H 	H 	0.9549	0.3597	0.7829	0.089
Mof_C 	C 	0.53616	0.98895	0.23733	0.555
Mof_C 	C 	0.72841	0.96403	0.09135	0.33
Mof_C 	C 	0.49003	0.99707	0.28307	-0.213
Mof_C 	C 	0.68671	0.96577	0.04941	-0.11
Mof_C 	C 	0.4076	0.9741	0.3045	0.124
Mof_C 	C 	0.53588	0.0247	0.30554	0.096
Mof_C 	C 	0.68403	0.00235	0.02659	0.06
Mof_C 	C 	0.66291	0.93123	0.03035	0.062
Mof_C 	C 	0.3777	0.977	0.3472	-0.186
Mof_C 	C 	0.61489	0.05554	0.28788	0.046
Mof_C 	C 	0.66024	0.00334	0.98658	-0.148
Mof_C 	C 	0.6539	0.89081	0.05079	0.055
Mof_C 	C 	0.4372	0.0009	0.3673	0.106
Mof_C 	C 	0.59599	0.08072	0.2537	-0.104
Mof_C 	C 	0.07146	0.01768	0.1228	0.549
Mof_C 	C 	0.18587	0.92876	0.2383	0.347
Mof_C 	C 	0.5024	0.9198	0.1144	0.323
Mof_C 	C 	0.64669	0.96698	0.96924	0.099
Mof_C 	C 	0.58851	0.88574	0.09004	-0.119
Mof_C 	C 	0.67458	0.10813	0.24231	0.042
Mof_C 	C 	0.49354	0.07869	0.22923	0.308
Mof_C 	C 	0.78119	0.08549	0.29713	0.072
Mof_C 	C 	0.05505	0.04903	0.08907	-0.22
Mof_C 	C 	0.11381	0.90902	0.27376	-0.136
Mof_C 	C 	0.59204	0.84545	0.10587	0.054
Mof_C 	C 	0.7159	0.82006	0.04274	0.093
Mof_C 	C 	0.76883	0.11081	0.26373	-0.123
Mof_C 	C 	0.11097	0.0838	0.08526	0.099
Mof_C 	C 	0.9906	0.0413	0.0587	0.128
Mof_C 	C 	0.0826	0.8701	0.2711	0.094
Mof_C 	C 	0.0836	0.9303	0.3113	0.084
Mof_C 	C 	0.65783	0.81271	0.08243	-0.14
Mof_C 	C 	0.17365	0.10012	0.11678	0.042
Mof_C 	C 	0.9845	0.0672	0.025	-0.179
Mof_C 	C 	0.1198	0.8452	0.233	0.084
Mof_C 	C 	0.0272	0.9121	0.3459	-0.178
Mof_C 	C 	0.12836	0.10455	0.15833	-0.108
Mof_C 	C 	0.0535	0.0988	0.0212	0.101
Mof_C 	C 	0.9887	0.8978	0.1914	0.342
Mof_C 	C 	0.0851	0.8585	0.1963	-0.113
Mof_C 	C 	0.9986	0.8759	0.3403	0.122
Mof_C 	C 	0.00964	0.09017	0.17835	0.307
Mof_C 	C 	0.19345	0.123	0.1829	0.039
Mof_C 	C 	0.33984	0.13082	0.1243	0.075
Mof_C 	C 	0.1393	0.8346	0.1604	0.05
Mof_C 	C 	0.2323	0.7853	0.2027	0.084
Mof_C 	C 	0.30198	0.13604	0.1652	-0.131
Mof_C 	C 	0.2197	0.7979	0.1635	-0.131
Mof_C 	C 	0.26244	0.51105	0.26267	0.554
Mof_C 	C 	0.28379	0.53597	0.40865	0.33
Mof_C 	C 	0.27017	0.50293	0.21693	-0.212
Mof_C 	C 	0.20189	0.53423	0.45059	-0.11
Mof_C 	C 	0.1862	0.5259	0.1955	0.124
Mof_C 	C 	0.36612	0.4753	0.19446	0.095
Mof_C 	C 	0.21297	0.49765	0.47341	0.059
Mof_C 	C 	0.12449	0.56877	0.46965	0.062
Mof_C 	C 	0.2019	0.523	0.1528	-0.185
Mof_C 	C 	0.45831	0.44446	0.21212	0.047
Mof_C 	C 	0.15016	0.49666	0.51342	-0.147
Mof_C 	C 	0.0955	0.60919	0.44921	0.056
Mof_C 	C 	0.3054	0.4991	0.1327	0.106
Mof_C 	C 	0.43041	0.41928	0.2463	-0.104
Mof_C 	C 	0.71194	0.48232	0.3772	0.547
Mof_C 	C 	0.85293	0.57124	0.2617	0.348
Mof_C 	C 	0.0366	0.5802	0.3856	0.326
Mof_C 	C 	0.08291	0.53302	0.53076	0.099
Mof_C 	C 	0.06429	0.61426	0.40996	-0.119
Mof_C 	C 	0.52502	0.39187	0.25769	0.042
Mof_C 	C 	0.30146	0.42131	0.27077	0.308
Mof_C 	C 	0.66381	0.41451	0.20287	0.072
Mof_C 	C 	0.69315	0.45097	0.41093	-0.22
Mof_C 	C 	0.79659	0.59098	0.22624	-0.139
Mof_C 	C 	0.04336	0.65455	0.39413	0.055
Mof_C 	C 	0.0787	0.67994	0.45726	0.093
Mof_C 	C 	0.64337	0.38919	0.23627	-0.123
Mof_C 	C 	0.78003	0.4162	0.41474	0.1
Mof_C 	C 	0.5906	0.4587	0.4413	0.129
Mof_C 	C 	0.7238	0.6299	0.2289	0.095
Mof_C 	C 	0.8252	0.5697	0.1887	0.09
Mof_C 	C 	0.05297	0.68729	0.41757	-0.14
Mof_C 	C 	0.89055	0.39988	0.38322	0.042
Mof_C 	C 	0.5767	0.4328	0.475	-0.181
Mof_C 	C 	0.698	0.6548	0.267	0.083
Mof_C 	C 	0.7852	0.5879	0.1541	-0.19
Mof_C 	C 	0.89124	0.39545	0.34167	-0.107
Mof_C 	C 	0.6735	0.4012	0.4788	0.103
Mof_C 	C 	0.5779	0.6022	0.3086	0.345
Mof_C 	C 	0.6399	0.6415	0.3037	-0.116
Mof_C 	C 	0.7148	0.6241	0.1597	0.134
Mof_C 	C 	0.77816	0.40983	0.32165	0.307
Mof_C 	C 	0.99935	0.377	0.3171	0.037
Mof_C 	C 	0.09496	0.36918	0.3757	0.074
Mof_C 	C 	0.6343	0.6654	0.3396	0.051
Mof_C 	C 	0.7203	0.7147	0.2973	0.084
Mof_C 	C 	0.10322	0.36396	0.3348	-0.129
Mof_C 	C 	0.6811	0.7021	0.3365	-0.133
Mof_C 	C 	0.77349	0.76267	0.48895	0.554
Mof_C 	C 	0.81976	0.90865	0.46403	0.33
Mof_C 	C 	0.7731	0.71693	0.49707	-0.213
Mof_C 	C 	0.73612	0.95059	0.46577	-0.11
Mof_C 	C 	0.7121	0.6955	0.4741	0.124
Mof_C 	C 	0.84142	0.69446	0.5247	0.096
Mof_C 	C 	0.71062	0.97341	0.50235	0.059
Mof_C 	C 	0.69326	0.96965	0.43123	0.061
Mof_C 	C 	0.7249	0.6528	0.477	-0.186
Mof_C 	C 	0.90277	0.71212	0.55554	0.044
Mof_C 	C 	0.64682	0.01342	0.50334	-0.147
Mof_C 	C 	0.70469	0.94921	0.39081	0.055
Mof_C 	C 	0.8045	0.6327	0.5009	0.106
Mof_C 	C 	0.84969	0.7463	0.58072	-0.102
Mof_C 	C 	0.19426	0.8772	0.51768	0.547
Mof_C 	C 	0.42417	0.7617	0.42876	0.348
Mof_C 	C 	0.6168	0.8856	0.4198	0.323
Mof_C 	C 	0.61593	0.03076	0.46698	0.099
Mof_C 	C 	0.67855	0.90996	0.38574	-0.119
Mof_C 	C 	0.91689	0.75769	0.60813	0.038
Mof_C 	C 	0.72277	0.77077	0.57869	0.307
Mof_C 	C 	0.07832	0.70287	0.58549	0.07
Mof_C 	C 	0.14412	0.91093	0.54903	-0.22
Mof_C 	C 	0.38757	0.72624	0.40902	-0.139
Mof_C 	C 	0.69791	0.89413	0.34545	0.054
Mof_C 	C 	0.75864	0.95726	0.32006	0.092
Mof_C 	C 	0.03256	0.73627	0.61081	-0.119
Mof_C 	C 	0.19623	0.91474	0.5838	0.1
Mof_C 	C 	0.0493	0.9413	0.5413	0.129
Mof_C 	C 	0.3537	0.7289	0.3701	0.095
Mof_C 	C 	0.3949	0.6887	0.4303	0.09
Mof_C 	C 	0.74026	0.91757	0.31271	-0.14
Mof_C 	C 	0.29043	0.88322	0.60012	0.042
Mof_C 	C 	0.0095	0.975	0.5672	-0.182
Mof_C 	C 	0.3528	0.767	0.3452	0.084
Mof_C 	C 	0.3731	0.6541	0.4121	-0.19
Mof_C 	C 	0.28669	0.84167	0.60455	-0.108
Mof_C 	C 	0.0747	0.9788	0.5988	0.104
Mof_C 	C 	0.1801	0.8086	0.3978	0.345
Mof_C 	C 	0.2814	0.8037	0.3585	-0.116
Mof_C 	C 	0.3389	0.6597	0.3759	0.134
Mof_C 	C 	0.18799	0.82165	0.59017	0.308
Mof_C 	C 	0.37635	0.8171	0.623	0.039
Mof_C 	C 	0.46414	0.8757	0.63082	0.075
Mof_C 	C 	0.2997	0.8396	0.3346	0.051
Mof_C 	C 	0.435	0.7973	0.2853	0.084
Mof_C 	C 	0.46718	0.8348	0.63604	-0.131
Mof_C 	C 	0.3832	0.8365	0.2979	-0.132
Mof_C 	C 	0.52511	0.73733	0.01105	0.555
Mof_C 	C 	0.69244	0.59135	0.03597	0.33
Mof_C 	C 	0.4871	0.78307	0.00293	-0.213
Mof_C 	C 	0.65248	0.54941	0.03423	-0.11
Mof_C 	C 	0.3817	0.8045	0.0259	0.124
Mof_C 	C 	0.56058	0.80554	0.9753	0.096
Mof_C 	C 	0.68638	0.52659	0.99765	0.059
Mof_C 	C 	0.59414	0.53035	0.06877	0.062
Mof_C 	C 	0.3547	0.8472	0.023	-0.186
Mof_C 	C 	0.67043	0.78788	0.94446	0.046
Mof_C 	C 	0.66358	0.48658	0.99666	-0.147
Mof_C 	C 	0.54471	0.55079	0.10919	0.055
Mof_C 	C 	0.4381	0.8673	0.9991	0.107
Mof_C 	C 	0.67671	0.7537	0.91928	-0.104
Mof_C 	C 	0.08914	0.6228	0.98232	0.55
Mof_C 	C 	0.11463	0.7383	0.07124	0.347
Mof_C 	C 	0.4222	0.6144	0.0802	0.323
Mof_C 	C 	0.61367	0.46924	0.03302	0.099
Mof_C 	C 	0.47425	0.59004	0.11426	-0.119
Mof_C 	C 	0.78271	0.74231	0.89187	0.042
Mof_C 	C 	0.57223	0.72923	0.92131	0.308
Mof_C 	C 	0.86668	0.79713	0.91451	0.072
Mof_C 	C 	0.10408	0.58907	0.95097	-0.221
Mof_C 	C 	0.02283	0.77376	0.09098	-0.137
Mof_C 	C 	0.43749	0.60587	0.15455	0.054
Mof_C 	C 	0.53596	0.54274	0.17994	0.093
Mof_C 	C 	0.87964	0.76373	0.88919	-0.123
Mof_C 	C 	0.19477	0.58526	0.9162	0.1
Mof_C 	C 	0.0319	0.5587	0.9587	0.132
Mof_C 	C 	0.9527	0.7711	0.1299	0.093
Mof_C 	C 	0.0139	0.8113	0.0697	0.093
Mof_C 	C 	0.47054	0.58243	0.18729	-0.14
Mof_C 	C 	0.27377	0.61678	0.89988	0.042
Mof_C 	C 	0.0517	0.525	0.9328	-0.184
Mof_C 	C 	0.965	0.733	0.1548	0.083
Mof_C 	C 	0.9393	0.8459	0.0879	-0.194
Mof_C 	C 	0.23291	0.65833	0.89545	-0.108
Mof_C 	C 	0.1523	0.5212	0.9012	0.104
Mof_C 	C 	0.8865	0.6914	0.1022	0.345
Mof_C 	C 	0.9436	0.6963	0.1415	-0.115
Mof_C 	C 	0.8745	0.8403	0.1241	0.135
Mof_C 	C 	0.09981	0.67835	0.90983	0.308
Mof_C 	C 	0.31645	0.6829	0.877	0.039
Mof_C 	C 	0.47066	0.6243	0.86918	0.075
Mof_C 	C 	0.9739	0.6604	0.1654	0.045
Mof_C 	C 	0.0176	0.7027	0.2147	0.086
Mof_C 	C 	0.43802	0.6652	0.86396	-0.131
Mof_C 	C 	0.0176	0.6635	0.2021	-0.127
Mof_C 	C 	0.46384	0.01105	0.76267	0.555
Mof_C 	C 	0.27159	0.03597	0.90865	0.33
Mof_C 	C 	0.50997	0.00293	0.71693	-0.213
Mof_C 	C 	0.31329	0.03423	0.95059	-0.11
Mof_C 	C 	0.5924	0.0259	0.6955	0.124
Mof_C 	C 	0.46412	0.9753	0.69446	0.096
Mof_C 	C 	0.31597	0.99765	0.97341	0.06
Mof_C 	C 	0.33709	0.06877	0.96965	0.062
Mof_C 	C 	0.6223	0.023	0.6528	-0.186
Mof_C 	C 	0.38511	0.94446	0.71212	0.046
Mof_C 	C 	0.33976	0.99666	0.01342	-0.148
Mof_C 	C 	0.3461	0.10919	0.94921	0.055
Mof_C 	C 	0.5628	0.9991	0.6327	0.106
Mof_C 	C 	0.40401	0.91928	0.7463	-0.104
Mof_C 	C 	0.92854	0.98232	0.8772	0.549
Mof_C 	C 	0.81413	0.07124	0.7617	0.347
Mof_C 	C 	0.4976	0.0802	0.8856	0.323
Mof_C 	C 	0.35331	0.03302	0.03076	0.099
Mof_C 	C 	0.41149	0.11426	0.90996	-0.119
Mof_C 	C 	0.32542	0.89187	0.75769	0.042
Mof_C 	C 	0.50646	0.92131	0.77077	0.308
Mof_C 	C 	0.21881	0.91451	0.70287	0.072
Mof_C 	C 	0.94495	0.95097	0.91093	-0.22
Mof_C 	C 	0.88619	0.09098	0.72624	-0.136
Mof_C 	C 	0.40796	0.15455	0.89413	0.054
Mof_C 	C 	0.2841	0.17994	0.95726	0.093
Mof_C 	C 	0.23117	0.88919	0.73627	-0.123
Mof_C 	C 	0.88903	0.9162	0.91474	0.099
Mof_C 	C 	0.0094	0.9587	0.9413	0.128
Mof_C 	C 	0.9174	0.1299	0.7289	0.094
Mof_C 	C 	0.9164	0.0697	0.6887	0.084
Mof_C 	C 	0.34217	0.18729	0.91757	-0.14
Mof_C 	C 	0.82635	0.89988	0.88322	0.042
Mof_C 	C 	0.0155	0.9328	0.975	-0.179
Mof_C 	C 	0.8802	0.1548	0.767	0.084
Mof_C 	C 	0.9728	0.0879	0.6541	-0.178
Mof_C 	C 	0.87164	0.89545	0.84167	-0.108
Mof_C 	C 	0.9465	0.9012	0.9788	0.101
Mof_C 	C 	0.0113	0.1022	0.8086	0.342
Mof_C 	C 	0.9149	0.1415	0.8037	-0.113
Mof_C 	C 	0.0014	0.1241	0.6597	0.122
Mof_C 	C 	0.99036	0.90983	0.82165	0.307
Mof_C 	C 	0.80655	0.877	0.8171	0.039
Mof_C 	C 	0.66016	0.86918	0.8757	0.075
Mof_C 	C 	0.8607	0.1654	0.8396	0.05
Mof_C 	C 	0.7677	0.2147	0.7973	0.084
Mof_C 	C 	0.69802	0.86396	0.8348	-0.131
Mof_C 	C 	0.7803	0.2021	0.8365	-0.131
Mof_C 	C 	0.73756	0.48895	0.73733	0.554
Mof_C 	C 	0.71621	0.46403	0.59135	0.33
Mof_C 	C 	0.72983	0.49707	0.78307	-0.212
Mof_C 	C 	0.79811	0.46577	0.54941	-0.11
Mof_C 	C 	0.8138	0.4741	0.8045	0.124
Mof_C 	C 	0.63388	0.5247	0.80554	0.095
Mof_C 	C 	0.78703	0.50235	0.52659	0.059
Mof_C 	C 	0.87551	0.43123	0.53035	0.062
Mof_C 	C 	0.7981	0.477	0.8472	-0.185
Mof_C 	C 	0.54169	0.55554	0.78788	0.047
Mof_C 	C 	0.84984	0.50334	0.48658	-0.147
Mof_C 	C 	0.9045	0.39081	0.55079	0.056
Mof_C 	C 	0.6946	0.5009	0.8673	0.106
Mof_C 	C 	0.56959	0.58072	0.7537	-0.104
Mof_C 	C 	0.28806	0.51768	0.6228	0.547
Mof_C 	C 	0.14707	0.42876	0.7383	0.348
Mof_C 	C 	0.9634	0.4198	0.6144	0.326
Mof_C 	C 	0.91709	0.46698	0.46924	0.099
Mof_C 	C 	0.93571	0.38574	0.59004	-0.119
Mof_C 	C 	0.47498	0.60813	0.74231	0.042
Mof_C 	C 	0.69854	0.57869	0.72923	0.308
Mof_C 	C 	0.33619	0.58549	0.79713	0.072
Mof_C 	C 	0.30685	0.54903	0.58907	-0.22
Mof_C 	C 	0.20341	0.40902	0.77376	-0.139
Mof_C 	C 	0.95664	0.34545	0.60587	0.055
Mof_C 	C 	0.9213	0.32006	0.54274	0.093
Mof_C 	C 	0.35663	0.61081	0.76373	-0.123
Mof_C 	C 	0.21997	0.5838	0.58526	0.1
Mof_C 	C 	0.4094	0.5413	0.5587	0.129
Mof_C 	C 	0.2762	0.3701	0.7711	0.095
Mof_C 	C 	0.1748	0.4303	0.8113	0.09
Mof_C 	C 	0.94703	0.31271	0.58243	-0.14
Mof_C 	C 	0.10945	0.60012	0.61678	0.042
Mof_C 	C 	0.4233	0.5672	0.525	-0.181
Mof_C 	C 	0.302	0.3452	0.733	0.083
Mof_C 	C 	0.2148	0.4121	0.8459	-0.19
Mof_C 	C 	0.10876	0.60455	0.65833	-0.107
Mof_C 	C 	0.3265	0.5988	0.5212	0.103
Mof_C 	C 	0.4221	0.3978	0.6914	0.345
Mof_C 	C 	0.3601	0.3585	0.6963	-0.116
Mof_C 	C 	0.2852	0.3759	0.8403	0.134
Mof_C 	C 	0.22184	0.59017	0.67835	0.307
Mof_C 	C 	0.00065	0.623	0.6829	0.037
Mof_C 	C 	0.90504	0.63082	0.6243	0.074
Mof_C 	C 	0.3657	0.3346	0.6604	0.051
Mof_C 	C 	0.2797	0.2853	0.7027	0.084
Mof_C 	C 	0.89678	0.63604	0.6652	-0.129
Mof_C 	C 	0.3189	0.2979	0.6635	-0.133
Mof_C 	C 	0.22651	0.23733	0.51105	0.554
Mof_C 	C 	0.18024	0.09135	0.53597	0.33
Mof_C 	C 	0.2269	0.28307	0.50293	-0.213
Mof_C 	C 	0.26388	0.04941	0.53423	-0.11
Mof_C 	C 	0.2879	0.3045	0.5259	0.124
Mof_C 	C 	0.15858	0.30554	0.4753	0.096
Mof_C 	C 	0.28938	0.02659	0.49765	0.059
Mof_C 	C 	0.30674	0.03035	0.56877	0.061
Mof_C 	C 	0.2751	0.3472	0.523	-0.186
Mof_C 	C 	0.09723	0.28788	0.44446	0.044
Mof_C 	C 	0.35318	0.98658	0.49666	-0.147
Mof_C 	C 	0.29531	0.05079	0.60919	0.055
Mof_C 	C 	0.1955	0.3673	0.4991	0.106
Mof_C 	C 	0.15031	0.2537	0.41928	-0.102
Mof_C 	C 	0.80574	0.1228	0.48232	0.547
Mof_C 	C 	0.57583	0.2383	0.57124	0.348
Mof_C 	C 	0.3832	0.1144	0.5802	0.323
Mof_C 	C 	0.38407	0.96924	0.53302	0.099
Mof_C 	C 	0.32145	0.09004	0.61426	-0.119
Mof_C 	C 	0.08311	0.24231	0.39187	0.038
Mof_C 	C 	0.27723	0.22923	0.42131	0.307
Mof_C 	C 	0.92168	0.29713	0.41451	0.07
Mof_C 	C 	0.85588	0.08907	0.45097	-0.22
Mof_C 	C 	0.61243	0.27376	0.59098	-0.139
Mof_C 	C 	0.30209	0.10587	0.65455	0.054
Mof_C 	C 	0.24136	0.04274	0.67994	0.092
Mof_C 	C 	0.96744	0.26373	0.38919	-0.119
Mof_C 	C 	0.80377	0.08526	0.4162	0.1
Mof_C 	C 	0.9507	0.0587	0.4587	0.129
Mof_C 	C 	0.6463	0.2711	0.6299	0.095
Mof_C 	C 	0.6051	0.3113	0.5697	0.09
Mof_C 	C 	0.25974	0.08243	0.68729	-0.14
Mof_C 	C 	0.70957	0.11678	0.39988	0.042
Mof_C 	C 	0.9905	0.025	0.4328	-0.182
Mof_C 	C 	0.6472	0.233	0.6548	0.084
Mof_C 	C 	0.6269	0.3459	0.5879	-0.19
Mof_C 	C 	0.71331	0.15833	0.39545	-0.108
Mof_C 	C 	0.9253	0.0212	0.4012	0.104
Mof_C 	C 	0.8199	0.1914	0.6022	0.345
Mof_C 	C 	0.7186	0.1963	0.6415	-0.116
Mof_C 	C 	0.6611	0.3403	0.6241	0.134
Mof_C 	C 	0.81201	0.17835	0.40983	0.308
Mof_C 	C 	0.62365	0.1829	0.377	0.039
Mof_C 	C 	0.53586	0.1243	0.36918	0.075
Mof_C 	C 	0.7003	0.1604	0.6654	0.051
Mof_C 	C 	0.565	0.2027	0.7147	0.084
Mof_C 	C 	0.53282	0.1652	0.36396	-0.131
Mof_C 	C 	0.6168	0.1635	0.7021	-0.132
Mof_C 	C 	0.47489	0.26267	0.98895	0.555
Mof_C 	C 	0.30756	0.40865	0.96403	0.33
Mof_C 	C 	0.5129	0.21693	0.99707	-0.213
Mof_C 	C 	0.34752	0.45059	0.96577	-0.11
Mof_C 	C 	0.6183	0.1955	0.9741	0.124
Mof_C 	C 	0.43942	0.19446	0.0247	0.096
Mof_C 	C 	0.31362	0.47341	0.00235	0.059
Mof_C 	C 	0.40586	0.46965	0.93123	0.062
Mof_C 	C 	0.6453	0.1528	0.977	-0.186
Mof_C 	C 	0.32957	0.21212	0.05554	0.046
Mof_C 	C 	0.33642	0.51342	0.00334	-0.147
Mof_C 	C 	0.45529	0.44921	0.89081	0.055
Mof_C 	C 	0.5619	0.1327	0.0009	0.107
Mof_C 	C 	0.32329	0.2463	0.08072	-0.104
Mof_C 	C 	0.91086	0.3772	0.01768	0.55
Mof_C 	C 	0.88537	0.2617	0.92876	0.347
Mof_C 	C 	0.5778	0.3856	0.9198	0.323
Mof_C 	C 	0.38633	0.53076	0.96698	0.099
Mof_C 	C 	0.52575	0.40996	0.88574	-0.119
Mof_C 	C 	0.21729	0.25769	0.10813	0.042
Mof_C 	C 	0.42777	0.27077	0.07869	0.308
Mof_C 	C 	0.13332	0.20287	0.08549	0.072
Mof_C 	C 	0.89592	0.41093	0.04903	-0.221
Mof_C 	C 	0.97717	0.22624	0.90902	-0.137
Mof_C 	C 	0.56251	0.39413	0.84545	0.054
Mof_C 	C 	0.46404	0.45726	0.82006	0.093
Mof_C 	C 	0.12036	0.23627	0.11081	-0.123
Mof_C 	C 	0.80523	0.41474	0.0838	0.1
Mof_C 	C 	0.9681	0.4413	0.0413	0.132
Mof_C 	C 	0.0473	0.2289	0.8701	0.093
Mof_C 	C 	0.9861	0.1887	0.9303	0.093
Mof_C 	C 	0.52946	0.41757	0.81271	-0.14
Mof_C 	C 	0.72623	0.38322	0.10012	0.042
Mof_C 	C 	0.9483	0.475	0.0672	-0.184
Mof_C 	C 	0.035	0.267	0.8452	0.083
Mof_C 	C 	0.0607	0.1541	0.9121	-0.194
Mof_C 	C 	0.76709	0.34167	0.10455	-0.108
Mof_C 	C 	0.8477	0.4788	0.0988	0.104
Mof_C 	C 	0.1135	0.3086	0.8978	0.345
Mof_C 	C 	0.0564	0.3037	0.8585	-0.115
Mof_C 	C 	0.1255	0.1597	0.8759	0.135
Mof_C 	C 	0.90019	0.32165	0.09017	0.308
Mof_C 	C 	0.68355	0.3171	0.123	0.039
Mof_C 	C 	0.52934	0.3757	0.13082	0.075
Mof_C 	C 	0.0261	0.3396	0.8346	0.045
Mof_C 	C 	0.9824	0.2973	0.7853	0.086
Mof_C 	C 	0.56198	0.3348	0.13604	-0.131
Mof_C 	C 	0.9824	0.3365	0.7979	-0.127
Mof_N 	N 	0.51406	0.02485	0.34743	-0.245
Mof_N 	N 	0.64847	0.93153	0.99033	-0.241
Mof_N 	N 	0.70553	0.05819	0.30935	-0.243
Mof_N 	N 	0.71377	0.85794	0.02732	-0.241
Mof_N 	N 	0.72171	0.88631	0.90027	-0.248
Mof_N 	N 	0.88425	0.89291	0.94939	-0.246
Mof_N 	N 	0.0209	0.85252	0.30488	-0.13
Mof_N 	N 	0.1863	0.8074	0.2368	-0.121
Mof_N 	N 	0.38634	0.47515	0.15257	-0.245
Mof_N 	N 	0.07033	0.56847	0.50967	-0.24
Mof_N 	N 	0.57307	0.44181	0.19065	-0.243
Mof_N 	N 	0.09903	0.64206	0.47268	-0.241
Mof_N 	N 	0.00829	0.61369	0.59973	-0.247
Mof_N 	N 	0.22655	0.60709	0.55061	-0.246
Mof_N 	N 	0.6783	0.64748	0.19512	-0.134
Mof_N 	N 	0.7305	0.6926	0.2632	-0.122
Mof_N 	N 	0.86149	0.65257	0.52485	-0.245
Mof_N 	N 	0.6388	0.00967	0.43153	-0.24
Mof_N 	N 	0.01488	0.69065	0.55819	-0.241
Mof_N 	N 	0.74109	0.97268	0.35794	-0.242
Mof_N 	N 	0.62198	0.09973	0.38631	-0.248
Mof_N 	N 	0.83364	0.05061	0.39291	-0.246
Mof_N 	N 	0.32578	0.69512	0.35252	-0.134
Mof_N 	N 	0.4231	0.7632	0.3074	-0.122
Mof_N 	N 	0.53891	0.84743	0.97515	-0.245
Mof_N 	N 	0.58	0.49033	0.06847	-0.241
Mof_N 	N 	0.76372	0.80935	0.94181	-0.243
Mof_N 	N 	0.57171	0.52732	0.14206	-0.241
Mof_N 	N 	0.60802	0.40027	0.11369	-0.248
Mof_N 	N 	0.77716	0.44939	0.10709	-0.247
Mof_N 	N 	0.87342	0.80488	0.14748	-0.134
Mof_N 	N 	0.9937	0.7368	0.1926	-0.124
Mof_N 	N 	0.48594	0.97515	0.65257	-0.245
Mof_N 	N 	0.35153	0.06847	0.00967	-0.241
Mof_N 	N 	0.29447	0.94181	0.69065	-0.243
Mof_N 	N 	0.28623	0.14206	0.97268	-0.241
Mof_N 	N 	0.27829	0.11369	0.09973	-0.248
Mof_N 	N 	0.11575	0.10709	0.05061	-0.246
Mof_N 	N 	0.9791	0.14748	0.69512	-0.13
Mof_N 	N 	0.8137	0.1926	0.7632	-0.121
Mof_N 	N 	0.61366	0.52485	0.84743	-0.245
Mof_N 	N 	0.92967	0.43153	0.49033	-0.24
Mof_N 	N 	0.42693	0.55819	0.80935	-0.243
Mof_N 	N 	0.90097	0.35794	0.52732	-0.241
Mof_N 	N 	0.99171	0.38631	0.40027	-0.247
Mof_N 	N 	0.77345	0.39291	0.44939	-0.246
Mof_N 	N 	0.3217	0.35252	0.80488	-0.134
Mof_N 	N 	0.2695	0.3074	0.7368	-0.122
Mof_N 	N 	0.13851	0.34743	0.47515	-0.245
Mof_N 	N 	0.3612	0.99033	0.56847	-0.24
Mof_N 	N 	0.98512	0.30935	0.44181	-0.241
Mof_N 	N 	0.25891	0.02732	0.64206	-0.242
Mof_N 	N 	0.37802	0.90027	0.61369	-0.248
Mof_N 	N 	0.16636	0.94939	0.60709	-0.246
Mof_N 	N 	0.67422	0.30488	0.64748	-0.134
Mof_N 	N 	0.5769	0.2368	0.6926	-0.122
Mof_N 	N 	0.46109	0.15257	0.02485	-0.245
Mof_N 	N 	0.42	0.50967	0.93153	-0.241
Mof_N 	N 	0.23628	0.19065	0.05819	-0.243
Mof_N 	N 	0.42829	0.47268	0.85794	-0.241
Mof_N 	N 	0.39198	0.59973	0.88631	-0.248
Mof_N 	N 	0.22284	0.55061	0.89291	-0.247
Mof_N 	N 	0.12658	0.19512	0.85252	-0.134
Mof_N 	N 	0.0063	0.2632	0.8074	-0.124
Mof_O 	O 	0.64547	0.99309	0.22497	-0.597
Mof_O 	O 	0.66324	0.98575	0.12057	-0.474
Mof_O 	O 	0.83072	0.94309	0.09407	-0.407
Mof_O 	O 	0.98874	0.99578	0.13234	-0.587
Mof_O 	O 	0.99396	0.91234	0.15654	-0.471
Mof_O 	O 	0.90624	0.91063	0.22109	-0.425
Mof_O 	O 	0.46469	0.97737	0.21685	-0.605
Mof_O 	O 	0.16923	0.01424	0.1373	-0.604
Mof_O 	O 	0.13188	0.96023	0.22161	-0.497
Mof_O 	O 	0.29521	0.9146	0.22638	-0.429
Mof_O 	O 	0.44479	0.94878	0.09664	-0.416
Mof_O 	O 	0.48597	0.91617	0.15369	-0.476
Mof_O 	O 	0.38712	0.07846	0.2493	-0.264
Mof_O 	O 	0.52325	0.07715	0.19095	-0.289
Mof_O 	O 	0.01324	0.07047	0.21145	-0.288
Mof_O 	O 	0.91805	0.0993	0.1608	-0.265
Mof_O 	O 	0.36353	0.50691	0.27503	-0.597
Mof_O 	O 	0.26956	0.51425	0.37943	-0.474
Mof_O 	O 	0.36788	0.55691	0.40593	-0.407
Mof_O 	O 	0.61686	0.50422	0.36766	-0.586
Mof_O 	O 	0.56284	0.58766	0.34346	-0.471
Mof_O 	O 	0.53796	0.58937	0.27891	-0.425
Mof_O 	O 	0.15891	0.52263	0.28315	-0.603
Mof_O 	O 	0.82077	0.48576	0.3627	-0.603
Mof_O 	O 	0.81372	0.53977	0.27839	-0.497
Mof_O 	O 	0.93619	0.5854	0.27362	-0.431
Mof_O 	O 	0.99021	0.55122	0.40336	-0.418
Mof_O 	O 	0.05583	0.58383	0.34631	-0.475
Mof_O 	O 	0.21488	0.42154	0.2507	-0.263
Mof_O 	O 	0.29135	0.42285	0.30905	-0.289
Mof_O 	O 	0.79516	0.42953	0.28855	-0.287
Mof_O 	O 	0.67815	0.4007	0.3392	-0.265
Mof_O 	O 	0.87044	0.77503	0.49309	-0.597
Mof_O 	O 	0.78381	0.87943	0.48575	-0.474
Mof_O 	O 	0.92479	0.90593	0.44309	-0.407
Mof_O 	O 	0.12108	0.86766	0.49578	-0.584
Mof_O 	O 	0.1505	0.84346	0.41234	-0.469
Mof_O 	O 	0.12733	0.77891	0.41063	-0.424
Mof_O 	O 	0.68154	0.78315	0.47737	-0.604
Mof_O 	O 	0.30653	0.8627	0.51424	-0.604
Mof_O 	O 	0.35349	0.77839	0.46023	-0.497
Mof_O 	O 	0.52159	0.77362	0.4146	-0.43
Mof_O 	O 	0.54143	0.90336	0.44878	-0.416
Mof_O 	O 	0.63966	0.84631	0.41617	-0.476
Mof_O 	O 	0.63642	0.7507	0.57846	-0.263
Mof_O 	O 	0.7142	0.80905	0.57715	-0.289
Mof_O 	O 	0.22469	0.78855	0.57047	-0.287
Mof_O 	O 	0.07885	0.8392	0.5993	-0.265
Mof_O 	O 	0.63856	0.72497	0.00691	-0.597
Mof_O 	O 	0.64899	0.62057	0.01425	-0.474
Mof_O 	O 	0.77381	0.59407	0.05691	-0.407
Mof_O 	O 	0.98452	0.63234	0.00422	-0.587
Mof_O 	O 	0.9063	0.65654	0.08766	-0.471
Mof_O 	O 	0.81687	0.72109	0.08937	-0.425
Mof_O 	O 	0.44206	0.71685	0.02263	-0.605
Mof_O 	O 	0.18347	0.6373	0.98576	-0.604
Mof_O 	O 	0.09211	0.72161	0.03977	-0.497
Mof_O 	O 	0.20981	0.72638	0.0854	-0.429
Mof_O 	O 	0.39357	0.59664	0.05122	-0.416
Mof_O 	O 	0.40214	0.65369	0.08383	-0.476
Mof_O 	O 	0.46558	0.7493	0.92154	-0.264
Mof_O 	O 	0.6004	0.69095	0.92285	-0.289
Mof_O 	O 	0.08371	0.71145	0.92953	-0.287
Mof_O 	O 	0.01735	0.6608	0.9007	-0.265
Mof_O 	O 	0.35453	0.00691	0.77503	-0.597
Mof_O 	O 	0.33676	0.01425	0.87943	-0.474
Mof_O 	O 	0.16928	0.05691	0.90593	-0.407
Mof_O 	O 	0.01126	0.00422	0.86766	-0.587
Mof_O 	O 	0.00604	0.08766	0.84346	-0.471
Mof_O 	O 	0.09376	0.08937	0.77891	-0.425
Mof_O 	O 	0.53531	0.02263	0.78315	-0.605
Mof_O 	O 	0.83077	0.98576	0.8627	-0.604
Mof_O 	O 	0.86812	0.03977	0.77839	-0.497
Mof_O 	O 	0.70479	0.0854	0.77362	-0.429
Mof_O 	O 	0.55521	0.05122	0.90336	-0.416
Mof_O 	O 	0.51403	0.08383	0.84631	-0.476
Mof_O 	O 	0.61288	0.92154	0.7507	-0.264
Mof_O 	O 	0.47675	0.92285	0.80905	-0.289
Mof_O 	O 	0.98676	0.92953	0.78855	-0.288
Mof_O 	O 	0.08195	0.9007	0.8392	-0.265
Mof_O 	O 	0.63647	0.49309	0.72497	-0.597
Mof_O 	O 	0.73044	0.48575	0.62057	-0.474
Mof_O 	O 	0.63212	0.44309	0.59407	-0.407
Mof_O 	O 	0.38314	0.49578	0.63234	-0.586
Mof_O 	O 	0.43716	0.41234	0.65654	-0.471
Mof_O 	O 	0.46204	0.41063	0.72109	-0.425
Mof_O 	O 	0.84109	0.47737	0.71685	-0.603
Mof_O 	O 	0.17923	0.51424	0.6373	-0.603
Mof_O 	O 	0.18628	0.46023	0.72161	-0.497
Mof_O 	O 	0.06381	0.4146	0.72638	-0.431
Mof_O 	O 	0.00979	0.44878	0.59664	-0.418
Mof_O 	O 	0.94417	0.41617	0.65369	-0.475
Mof_O 	O 	0.78512	0.57846	0.7493	-0.263
Mof_O 	O 	0.70865	0.57715	0.69095	-0.289
Mof_O 	O 	0.20484	0.57047	0.71145	-0.287
Mof_O 	O 	0.32185	0.5993	0.6608	-0.265
Mof_O 	O 	0.12956	0.22497	0.50691	-0.597
Mof_O 	O 	0.21619	0.12057	0.51425	-0.474
Mof_O 	O 	0.07521	0.09407	0.55691	-0.407
Mof_O 	O 	0.87892	0.13234	0.50422	-0.584
Mof_O 	O 	0.8495	0.15654	0.58766	-0.469
Mof_O 	O 	0.87267	0.22109	0.58937	-0.424
Mof_O 	O 	0.31846	0.21685	0.52263	-0.604
Mof_O 	O 	0.69347	0.1373	0.48576	-0.604
Mof_O 	O 	0.64651	0.22161	0.53977	-0.497
Mof_O 	O 	0.47841	0.22638	0.5854	-0.43
Mof_O 	O 	0.45857	0.09664	0.55122	-0.416
Mof_O 	O 	0.36034	0.15369	0.58383	-0.476
Mof_O 	O 	0.36358	0.2493	0.42154	-0.263
Mof_O 	O 	0.2858	0.19095	0.42285	-0.289
Mof_O 	O 	0.77531	0.21145	0.42953	-0.287
Mof_O 	O 	0.92115	0.1608	0.4007	-0.265
Mof_O 	O 	0.36144	0.27503	0.99309	-0.597
Mof_O 	O 	0.35101	0.37943	0.98575	-0.474
Mof_O 	O 	0.22619	0.40593	0.94309	-0.407
Mof_O 	O 	0.01548	0.36766	0.99578	-0.587
Mof_O 	O 	0.0937	0.34346	0.91234	-0.471
Mof_O 	O 	0.18313	0.27891	0.91063	-0.425
Mof_O 	O 	0.55794	0.28315	0.97737	-0.605
Mof_O 	O 	0.81653	0.3627	0.01424	-0.604
Mof_O 	O 	0.90789	0.27839	0.96023	-0.497
Mof_O 	O 	0.79019	0.27362	0.9146	-0.429
Mof_O 	O 	0.60643	0.40336	0.94878	-0.416
Mof_O 	O 	0.59786	0.34631	0.91617	-0.476
Mof_O 	O 	0.53442	0.2507	0.07846	-0.264
Mof_O 	O 	0.3996	0.30905	0.07715	-0.289
Mof_O 	O 	0.91629	0.28855	0.07047	-0.287
Mof_O 	O 	0.98265	0.3392	0.0993	-0.265
_end
