data_functionalizedCrystal
_audit_creation_method	'EQeq! by Chris Wilmer'
_symmetry_space_group_name_H-M	'P1'
_symmetry_Int_Tables_number	1
_symmetry_cell_setting	triclinic
loop_
_symmetry_equiv_pos_as_xyz
  x,y,z
_cell_length_a	24.0967
_cell_length_b	18.4666
_cell_length_c	37.614
_cell_angle_alpha	90
_cell_angle_beta	94.2641
_cell_angle_gamma	90
loop_
_atom_site_label
_atom_site_type_symbol
_atom_site_fract_x
_atom_site_fract_y
_atom_site_fract_z
_atom_site_charge
Mof_Zn	Zn	0.60131	0.368	0.67627	1.216
Mof_Zn	Zn	0.59171	0.36853	0.59736	1.218
Mof_O 	O 	0.14739	0.9509	0.60581	-0.46
Mof_O 	O 	0.65652	0.2999	0.60734	-0.463
Mof_O 	O 	0.53844	0.28528	0.60461	-0.45
Mof_O 	O 	0.02976	0.93558	0.61128	-0.469
Mof_O 	O 	0.16534	0.9327	0.66438	-0.47
Mof_O 	O 	0.53423	0.30402	0.66362	-0.467
Mof_O 	O 	0.04774	0.95463	0.66997	-0.454
Mof_O 	O 	0.65247	0.28318	0.66629	-0.456
Mof_N 	N 	0.1068	0.13054	0.22981	-0.253
Mof_N 	N 	0.52419	0.38115	0.4932	-0.145
Mof_N 	N 	0.57516	0.38053	0.54454	-0.245
Mof_N 	N 	0.35271	0.3288	0.35194	-0.052
Mof_N 	N 	0.3067	0.2985	0.33492	-0.091
Mof_N 	N 	0.31398	0.2642	0.3924	-0.132
Mof_C 	C 	0.93034	0.0091	0.61083	0.037
Mof_H 	H 	0.937	0.98	0.5914	0.027
Mof_C 	C 	0.22545	0.0088	0.63475	-0.123
Mof_C 	C 	0.01933	0.96297	0.64039	0.377
Mof_N 	N 	0.13085	0.1412	0.28694	-0.16
Mof_C 	C 	0.96863	0.0109	0.64023	-0.124
Mof_C 	C 	0.23572	0.0487	0.60527	0.052
Mof_H 	H 	0.2107	0.0471	0.5852	0.028
Mof_C 	C 	0.17531	0.96057	0.63494	0.389
Mof_C 	C 	0.26276	0.0119	0.66476	0.049
Mof_H 	H 	0.2556	0.9854	0.685	0.029
Mof_C 	C 	0.32169	0.0948	0.63449	0.045
Mof_C 	C 	0.67298	0.2724	0.63685	0.388
Mof_C 	C 	0.48118	0.3632	0.46638	0.139
Mof_C 	C 	0.51763	0.275	0.63431	0.381
Mof_C 	C 	0.35584	0.307	0.38631	0.11
Mof_C 	C 	0.56602	0.4308	0.49052	0.006
Mof_H 	H 	0.572	0.4594	0.4708	0.03
Mof_C 	C 	0.31031	0.0537	0.66485	-0.108
Mof_H 	H 	0.335	0.0549	0.685	0.07
Mof_C 	C 	0.59691	0.4301	0.52219	0.005
Mof_H 	H 	0.628	0.4588	0.5279	0.029
Mof_C 	C 	0.1598	0.1623	0.31994	0.197
Mof_C 	C 	0.72298	0.2233	0.63703	-0.117
Mof_C 	C 	0.46457	0.4144	0.44085	-0.146
Mof_H 	H 	0.4804	0.4604	0.4414	0.093
Mof_C 	C 	0.40023	0.329	0.41318	-0.052
Mof_C 	C 	0.3729	0.1394	0.6347	0.047
Mof_C 	C 	0.42378	0.3956	0.41433	0.022
Mof_H 	H 	0.4124	0.4295	0.397	0.034
Mof_C 	C 	0.28332	0.0915	0.60505	-0.108
Mof_H 	H 	0.2895	0.1185	0.5848	0.07
Mof_C 	C 	0.88183	0.0506	0.61013	-0.109
Mof_H 	H 	0.8563	0.0489	0.5904	0.068
Mof_C 	C 	0.46849	0.2261	0.63441	-0.122
Mof_C 	C 	0.7486	0.2095	0.60607	0.047
Mof_H 	H 	0.7334	0.2284	0.5846	0.03
Mof_C 	C 	0.28479	0.2599	0.35992	0.067
Mof_C 	C 	0.8717	0.0947	0.63898	0.04
Mof_C 	C 	0.44532	0.1956	0.60292	0.047
Mof_H 	H 	0.4617	0.2043	0.5817	0.028
Mof_C 	C 	0.82012	0.1393	0.63852	0.047
Mof_C 	C 	0.53115	0.3528	0.52621	0.1
Mof_H 	H 	0.5079	0.3179	0.5351	-0.005
Mof_C 	C 	0.1599	0.1579	0.38288	0.174
Mof_H 	H 	0.1439	0.1444	0.4036	-0.03
Mof_C 	C 	0.44363	0.2115	0.66605	0.05
Mof_H 	H 	0.4592	0.2303	0.6874	0.028
Mof_C 	C 	0.3984	0.1525	0.60265	-0.112
Mof_H 	H 	0.3836	0.1321	0.5814	0.069
Mof_C 	C 	0.14088	0.1588	0.25431	0.134
Mof_H 	H 	0.1701	0.189	0.2491	-0.02
Mof_C 	C 	0.20806	0.2013	0.32157	-0.218
Mof_H 	H 	0.2238	0.2156	0.3008	0.115
Mof_C 	C 	0.233	0.2189	0.35455	0.122
Mof_C 	C 	0.95918	0.0543	0.66917	0.036
Mof_H 	H 	0.9849	0.0554	0.6889	0.022
Mof_C 	C 	0.7964	0.1681	0.6065	-0.113
Mof_H 	H 	0.8129	0.1593	0.5854	0.071
Mof_C 	C 	0.4576	0.2957	0.46614	-0.15
Mof_H 	H 	0.4692	0.2617	0.4833	0.087
Mof_C 	C 	0.4164	0.2789	0.44	0.025
Mof_H 	H 	0.3991	0.2339	0.4402	0.029
Mof_C 	C 	0.1363	0.1403	0.35104	-0.245
Mof_H 	H 	0.1038	0.1129	0.3494	0.125
Mof_C 	C 	0.91127	0.0962	0.66874	-0.11
Mof_H 	H 	0.9051	0.1255	0.6882	0.066
Mof_C 	C 	0.39667	0.1698	0.66598	-0.112
Mof_H 	H 	0.3804	0.1617	0.6873	0.072
Mof_C 	C 	0.7937	0.1523	0.66964	-0.111
Mof_H 	H 	0.8085	0.133	0.6911	0.069
Mof_C 	C 	0.2067	0.1951	0.3842	-0.212
Mof_H 	H 	0.2235	0.2064	0.4066	0.111
Mof_C 	C 	0.7458	0.1936	0.66913	0.043
Mof_H 	H 	0.7287	0.2017	0.6901	0.03
Mof_C 	C 	0.0884	0.0671	0.2477	-0.035
Mof_H 	H 	0.0683	0.0292	0.2367	0.038
Mof_C 	C 	0.1045	0.0705	0.2829	0.018
Mof_H 	H 	0.0999	0.0358	0.3004	0.027
Mof_C 	C 	0.3906	0.3723	0.33187	-0.376
Mof_H 	H 	0.3776	0.4214	0.3304	0.158
Mof_H 	H 	0.3919	0.3528	0.3083	0.152
Mof_H 	H 	0.4273	0.3712	0.3438	0.15
Mof_C 	C 	0.0561	0.1254	0.2474	0.018
Mof_H 	H 	0.0211	0.1166	0.2361	0.014
Mof_C 	C 	0.0669	0.1353	0.2824	-0.04
Mof_H 	H 	0.0418	0.138	0.3	0.052
Mof_Zn	Zn	0.10131	0.868	0.67627	1.215
Mof_Zn	Zn	0.09171	0.86853	0.59736	1.217
Mof_O 	O 	0.64739	0.4509	0.60581	-0.46
Mof_O 	O 	0.15652	0.7999	0.60734	-0.463
Mof_O 	O 	0.03844	0.78528	0.60461	-0.45
Mof_O 	O 	0.52976	0.43558	0.61128	-0.469
Mof_O 	O 	0.66534	0.4327	0.66438	-0.47
Mof_O 	O 	0.03423	0.80402	0.66362	-0.467
Mof_O 	O 	0.54774	0.45463	0.66997	-0.454
Mof_O 	O 	0.15247	0.78318	0.66629	-0.456
Mof_N 	N 	0.6068	0.63054	0.22981	-0.253
Mof_N 	N 	0.02419	0.88115	0.4932	-0.145
Mof_N 	N 	0.07516	0.88053	0.54454	-0.245
Mof_N 	N 	0.85271	0.8288	0.35194	-0.052
Mof_N 	N 	0.8067	0.7985	0.33492	-0.091
Mof_N 	N 	0.81398	0.7642	0.3924	-0.132
Mof_C 	C 	0.43034	0.5091	0.61083	0.037
Mof_H 	H 	0.437	0.48	0.5914	0.028
Mof_C 	C 	0.72545	0.5088	0.63475	-0.123
Mof_C 	C 	0.51933	0.46297	0.64039	0.377
Mof_N 	N 	0.63085	0.6412	0.28694	-0.16
Mof_C 	C 	0.46863	0.5109	0.64023	-0.124
Mof_C 	C 	0.73572	0.5487	0.60527	0.052
Mof_H 	H 	0.7107	0.5471	0.5852	0.028
Mof_C 	C 	0.67531	0.46057	0.63494	0.389
Mof_C 	C 	0.76276	0.5119	0.66476	0.049
Mof_H 	H 	0.7556	0.4854	0.685	0.029
Mof_C 	C 	0.82169	0.5948	0.63449	0.045
Mof_C 	C 	0.17298	0.7724	0.63685	0.388
Mof_C 	C 	0.98118	0.8632	0.46638	0.139
Mof_C 	C 	0.01763	0.775	0.63431	0.381
Mof_C 	C 	0.85584	0.807	0.38631	0.11
Mof_C 	C 	0.06602	0.9308	0.49052	0.006
Mof_H 	H 	0.072	0.9594	0.4708	0.03
Mof_C 	C 	0.81031	0.5537	0.66485	-0.108
Mof_H 	H 	0.835	0.5549	0.685	0.07
Mof_C 	C 	0.09691	0.9301	0.52219	0.005
Mof_H 	H 	0.128	0.9588	0.5279	0.029
Mof_C 	C 	0.6598	0.6623	0.31994	0.197
Mof_C 	C 	0.22298	0.7233	0.63703	-0.117
Mof_C 	C 	0.96457	0.9144	0.44085	-0.146
Mof_H 	H 	0.9804	0.9604	0.4414	0.093
Mof_C 	C 	0.90023	0.829	0.41318	-0.052
Mof_C 	C 	0.8729	0.6394	0.6347	0.047
Mof_C 	C 	0.92378	0.8956	0.41433	0.022
Mof_H 	H 	0.9124	0.9295	0.397	0.034
Mof_C 	C 	0.78332	0.5915	0.60505	-0.108
Mof_H 	H 	0.7895	0.6185	0.5848	0.07
Mof_C 	C 	0.38183	0.5506	0.61013	-0.109
Mof_H 	H 	0.3563	0.5489	0.5904	0.068
Mof_C 	C 	0.96849	0.7261	0.63441	-0.122
Mof_C 	C 	0.2486	0.7095	0.60607	0.047
Mof_H 	H 	0.2334	0.7284	0.5846	0.03
Mof_C 	C 	0.78479	0.7599	0.35992	0.067
Mof_C 	C 	0.3717	0.5947	0.63898	0.04
Mof_C 	C 	0.94532	0.6956	0.60292	0.047
Mof_H 	H 	0.9617	0.7043	0.5817	0.028
Mof_C 	C 	0.32012	0.6393	0.63852	0.047
Mof_C 	C 	0.03115	0.8528	0.52621	0.1
Mof_H 	H 	0.0079	0.8179	0.5351	-0.005
Mof_C 	C 	0.6599	0.6579	0.38288	0.174
Mof_H 	H 	0.6439	0.6444	0.4036	-0.03
Mof_C 	C 	0.94363	0.7115	0.66605	0.05
Mof_H 	H 	0.9592	0.7303	0.6874	0.028
Mof_C 	C 	0.8984	0.6525	0.60265	-0.112
Mof_H 	H 	0.8836	0.6321	0.5814	0.069
Mof_C 	C 	0.64088	0.6588	0.25431	0.134
Mof_H 	H 	0.6701	0.689	0.2491	-0.02
Mof_C 	C 	0.70806	0.7013	0.32157	-0.218
Mof_H 	H 	0.7238	0.7156	0.3008	0.115
Mof_C 	C 	0.733	0.7189	0.35455	0.122
Mof_C 	C 	0.45918	0.5543	0.66917	0.036
Mof_H 	H 	0.4849	0.5554	0.6889	0.022
Mof_C 	C 	0.2964	0.6681	0.6065	-0.113
Mof_H 	H 	0.3129	0.6593	0.5854	0.071
Mof_C 	C 	0.9576	0.7957	0.46614	-0.15
Mof_H 	H 	0.9692	0.7617	0.4833	0.087
Mof_C 	C 	0.9164	0.7789	0.44	0.025
Mof_H 	H 	0.8991	0.7339	0.4402	0.029
Mof_C 	C 	0.6363	0.6403	0.35104	-0.245
Mof_H 	H 	0.6038	0.6129	0.3494	0.125
Mof_C 	C 	0.41127	0.5962	0.66874	-0.11
Mof_H 	H 	0.4051	0.6255	0.6882	0.066
Mof_C 	C 	0.89667	0.6698	0.66598	-0.112
Mof_H 	H 	0.8804	0.6617	0.6873	0.072
Mof_C 	C 	0.2937	0.6523	0.66964	-0.111
Mof_H 	H 	0.3085	0.633	0.6911	0.069
Mof_C 	C 	0.7067	0.6951	0.3842	-0.212
Mof_H 	H 	0.7235	0.7064	0.4066	0.111
Mof_C 	C 	0.2458	0.6936	0.66913	0.043
Mof_H 	H 	0.2287	0.7017	0.6901	0.03
Mof_C 	C 	0.5884	0.5671	0.2477	-0.035
Mof_H 	H 	0.5683	0.5292	0.2367	0.038
Mof_C 	C 	0.6045	0.5705	0.2829	0.018
Mof_H 	H 	0.5999	0.5358	0.3004	0.027
Mof_C 	C 	0.8906	0.8723	0.33187	-0.376
Mof_H 	H 	0.8776	0.9214	0.3304	0.158
Mof_H 	H 	0.8919	0.8528	0.3083	0.152
Mof_H 	H 	0.9273	0.8712	0.3438	0.15
Mof_C 	C 	0.5561	0.6254	0.2474	0.018
Mof_H 	H 	0.5211	0.6166	0.2361	0.014
Mof_C 	C 	0.5669	0.6353	0.2824	-0.04
Mof_H 	H 	0.5418	0.638	0.3	0.052
Mof_Zn	Zn	0.60131	0.632	0.17627	1.215
Mof_Zn	Zn	0.59171	0.63147	0.09736	1.217
Mof_O 	O 	0.14739	0.0491	0.10581	-0.46
Mof_O 	O 	0.65652	0.7001	0.10734	-0.463
Mof_O 	O 	0.53844	0.71472	0.10461	-0.45
Mof_O 	O 	0.02976	0.06442	0.11128	-0.469
Mof_O 	O 	0.16534	0.0673	0.16438	-0.47
Mof_O 	O 	0.53423	0.69598	0.16362	-0.467
Mof_O 	O 	0.04774	0.04537	0.16997	-0.454
Mof_O 	O 	0.65247	0.71682	0.16629	-0.456
Mof_N 	N 	0.1068	0.86946	0.72981	-0.253
Mof_N 	N 	0.52419	0.61885	0.9932	-0.145
Mof_N 	N 	0.57516	0.61947	0.04454	-0.245
Mof_N 	N 	0.35271	0.6712	0.85194	-0.052
Mof_N 	N 	0.3067	0.7015	0.83492	-0.091
Mof_N 	N 	0.31398	0.7358	0.8924	-0.132
Mof_C 	C 	0.93034	0.9909	0.11083	0.037
Mof_H 	H 	0.937	0.02	0.0914	0.027
Mof_C 	C 	0.22545	0.9912	0.13475	-0.123
Mof_C 	C 	0.01933	0.03703	0.14039	0.376
Mof_N 	N 	0.13085	0.8588	0.78694	-0.16
Mof_C 	C 	0.96863	0.9891	0.14023	-0.124
Mof_C 	C 	0.23572	0.9513	0.10527	0.052
Mof_H 	H 	0.2107	0.9529	0.0852	0.028
Mof_C 	C 	0.17531	0.03943	0.13494	0.389
Mof_C 	C 	0.26276	0.9881	0.16476	0.049
Mof_H 	H 	0.2556	0.0146	0.185	0.029
Mof_C 	C 	0.32169	0.9052	0.13449	0.045
Mof_C 	C 	0.67298	0.7276	0.13685	0.388
Mof_C 	C 	0.48118	0.6368	0.96638	0.139
Mof_C 	C 	0.51763	0.725	0.13431	0.381
Mof_C 	C 	0.35584	0.693	0.88631	0.11
Mof_C 	C 	0.56602	0.5692	0.99052	0.006
Mof_H 	H 	0.572	0.5406	0.9708	0.03
Mof_C 	C 	0.31031	0.9463	0.16485	-0.109
Mof_H 	H 	0.335	0.9451	0.185	0.07
Mof_C 	C 	0.59691	0.5699	0.02219	0.005
Mof_H 	H 	0.628	0.5412	0.0279	0.029
Mof_C 	C 	0.1598	0.8377	0.81994	0.197
Mof_C 	C 	0.72298	0.7767	0.13703	-0.117
Mof_C 	C 	0.46457	0.5856	0.94085	-0.146
Mof_H 	H 	0.4804	0.5396	0.9414	0.093
Mof_C 	C 	0.40023	0.671	0.91318	-0.052
Mof_C 	C 	0.3729	0.8606	0.1347	0.047
Mof_C 	C 	0.42378	0.6044	0.91433	0.022
Mof_H 	H 	0.4124	0.5705	0.897	0.034
Mof_C 	C 	0.28332	0.9085	0.10505	-0.108
Mof_H 	H 	0.2895	0.8815	0.0848	0.07
Mof_C 	C 	0.88183	0.9494	0.11013	-0.109
Mof_H 	H 	0.8563	0.9511	0.0904	0.068
Mof_C 	C 	0.46849	0.7739	0.13441	-0.122
Mof_C 	C 	0.7486	0.7905	0.10607	0.047
Mof_H 	H 	0.7334	0.7716	0.0846	0.03
Mof_C 	C 	0.28479	0.7401	0.85992	0.067
Mof_C 	C 	0.8717	0.9053	0.13898	0.04
Mof_C 	C 	0.44532	0.8044	0.10292	0.047
Mof_H 	H 	0.4617	0.7957	0.0817	0.028
Mof_C 	C 	0.82012	0.8607	0.13852	0.047
Mof_C 	C 	0.53115	0.6472	0.02621	0.1
Mof_H 	H 	0.5079	0.6821	0.0351	-0.005
Mof_C 	C 	0.1599	0.8421	0.88288	0.174
Mof_H 	H 	0.1439	0.8556	0.9036	-0.03
Mof_C 	C 	0.44363	0.7885	0.16605	0.05
Mof_H 	H 	0.4592	0.7697	0.1874	0.028
Mof_C 	C 	0.3984	0.8475	0.10265	-0.112
Mof_H 	H 	0.3836	0.8679	0.0814	0.069
Mof_C 	C 	0.14088	0.8412	0.75431	0.134
Mof_H 	H 	0.1701	0.811	0.7491	-0.02
Mof_C 	C 	0.20806	0.7987	0.82157	-0.218
Mof_H 	H 	0.2238	0.7844	0.8008	0.115
Mof_C 	C 	0.233	0.7811	0.85455	0.122
Mof_C 	C 	0.95918	0.9457	0.16917	0.036
Mof_H 	H 	0.9849	0.9446	0.1889	0.022
Mof_C 	C 	0.7964	0.8319	0.1065	-0.113
Mof_H 	H 	0.8129	0.8407	0.0854	0.071
Mof_C 	C 	0.4576	0.7043	0.96614	-0.15
Mof_H 	H 	0.4692	0.7383	0.9833	0.087
Mof_C 	C 	0.4164	0.7211	0.94	0.025
Mof_H 	H 	0.3991	0.7661	0.9402	0.029
Mof_C 	C 	0.1363	0.8597	0.85104	-0.245
Mof_H 	H 	0.1038	0.8871	0.8494	0.125
Mof_C 	C 	0.91127	0.9038	0.16874	-0.11
Mof_H 	H 	0.9051	0.8745	0.1882	0.066
Mof_C 	C 	0.39667	0.8302	0.16598	-0.112
Mof_H 	H 	0.3804	0.8383	0.1873	0.072
Mof_C 	C 	0.7937	0.8477	0.16964	-0.111
Mof_H 	H 	0.8085	0.867	0.1911	0.069
Mof_C 	C 	0.2067	0.8049	0.8842	-0.212
Mof_H 	H 	0.2235	0.7936	0.9066	0.111
Mof_C 	C 	0.7458	0.8064	0.16913	0.043
Mof_H 	H 	0.7287	0.7983	0.1901	0.03
Mof_C 	C 	0.0884	0.9329	0.7477	-0.035
Mof_H 	H 	0.0683	0.9708	0.7367	0.038
Mof_C 	C 	0.1045	0.9295	0.7829	0.018
Mof_H 	H 	0.0999	0.9642	0.8004	0.027
Mof_C 	C 	0.3906	0.6277	0.83187	-0.376
Mof_H 	H 	0.3776	0.5786	0.8304	0.158
Mof_H 	H 	0.3919	0.6472	0.8083	0.152
Mof_H 	H 	0.4273	0.6288	0.8438	0.15
Mof_C 	C 	0.0561	0.8746	0.7474	0.018
Mof_H 	H 	0.0211	0.8834	0.7361	0.014
Mof_C 	C 	0.0669	0.8647	0.7824	-0.04
Mof_H 	H 	0.0418	0.862	0.8	0.052
Mof_Zn	Zn	0.10131	0.132	0.17627	1.215
Mof_Zn	Zn	0.09171	0.13147	0.09736	1.217
Mof_O 	O 	0.64739	0.5491	0.10581	-0.46
Mof_O 	O 	0.15652	0.2001	0.10734	-0.463
Mof_O 	O 	0.03844	0.21472	0.10461	-0.45
Mof_O 	O 	0.52976	0.56442	0.11128	-0.469
Mof_O 	O 	0.66534	0.5673	0.16438	-0.47
Mof_O 	O 	0.03423	0.19598	0.16362	-0.467
Mof_O 	O 	0.54774	0.54537	0.16997	-0.454
Mof_O 	O 	0.15247	0.21682	0.16629	-0.456
Mof_N 	N 	0.6068	0.36946	0.72981	-0.253
Mof_N 	N 	0.02419	0.11885	0.9932	-0.145
Mof_N 	N 	0.07516	0.11947	0.04454	-0.245
Mof_N 	N 	0.85271	0.1712	0.85194	-0.052
Mof_N 	N 	0.8067	0.2015	0.83492	-0.091
Mof_N 	N 	0.81398	0.2358	0.8924	-0.132
Mof_C 	C 	0.43034	0.4909	0.11083	0.037
Mof_H 	H 	0.437	0.52	0.0914	0.028
Mof_C 	C 	0.72545	0.4912	0.13475	-0.123
Mof_C 	C 	0.51933	0.53703	0.14039	0.377
Mof_N 	N 	0.63085	0.3588	0.78694	-0.16
Mof_C 	C 	0.46863	0.4891	0.14023	-0.124
Mof_C 	C 	0.73572	0.4513	0.10527	0.052
Mof_H 	H 	0.7107	0.4529	0.0852	0.028
Mof_C 	C 	0.67531	0.53943	0.13494	0.389
Mof_C 	C 	0.76276	0.4881	0.16476	0.049
Mof_H 	H 	0.7556	0.5146	0.185	0.029
Mof_C 	C 	0.82169	0.4052	0.13449	0.045
Mof_C 	C 	0.17298	0.2276	0.13685	0.388
Mof_C 	C 	0.98118	0.1368	0.96638	0.139
Mof_C 	C 	0.01763	0.225	0.13431	0.38
Mof_C 	C 	0.85584	0.193	0.88631	0.11
Mof_C 	C 	0.06602	0.0692	0.99052	0.006
Mof_H 	H 	0.072	0.0406	0.9708	0.03
Mof_C 	C 	0.81031	0.4463	0.16485	-0.108
Mof_H 	H 	0.835	0.4451	0.185	0.07
Mof_C 	C 	0.09691	0.0699	0.02219	0.005
Mof_H 	H 	0.128	0.0412	0.0279	0.029
Mof_C 	C 	0.6598	0.3377	0.81994	0.197
Mof_C 	C 	0.22298	0.2767	0.13703	-0.117
Mof_C 	C 	0.96457	0.0856	0.94085	-0.146
Mof_H 	H 	0.9804	0.0396	0.9414	0.093
Mof_C 	C 	0.90023	0.171	0.91318	-0.052
Mof_C 	C 	0.8729	0.3606	0.1347	0.047
Mof_C 	C 	0.92378	0.1044	0.91433	0.022
Mof_H 	H 	0.9124	0.0705	0.897	0.034
Mof_C 	C 	0.78332	0.4085	0.10505	-0.108
Mof_H 	H 	0.7895	0.3815	0.0848	0.07
Mof_C 	C 	0.38183	0.4494	0.11013	-0.109
Mof_H 	H 	0.3563	0.4511	0.0904	0.068
Mof_C 	C 	0.96849	0.2739	0.13441	-0.122
Mof_C 	C 	0.2486	0.2905	0.10607	0.047
Mof_H 	H 	0.2334	0.2716	0.0846	0.03
Mof_C 	C 	0.78479	0.2401	0.85992	0.067
Mof_C 	C 	0.3717	0.4053	0.13898	0.04
Mof_C 	C 	0.94532	0.3044	0.10292	0.047
Mof_H 	H 	0.9617	0.2957	0.0817	0.028
Mof_C 	C 	0.32012	0.3607	0.13852	0.047
Mof_C 	C 	0.03115	0.1472	0.02621	0.1
Mof_H 	H 	0.0079	0.1821	0.0351	-0.005
Mof_C 	C 	0.6599	0.3421	0.88288	0.174
Mof_H 	H 	0.6439	0.3556	0.9036	-0.03
Mof_C 	C 	0.94363	0.2885	0.16605	0.05
Mof_H 	H 	0.9592	0.2697	0.1874	0.028
Mof_C 	C 	0.8984	0.3475	0.10265	-0.112
Mof_H 	H 	0.8836	0.3679	0.0814	0.069
Mof_C 	C 	0.64088	0.3412	0.75431	0.134
Mof_H 	H 	0.6701	0.311	0.7491	-0.02
Mof_C 	C 	0.70806	0.2987	0.82157	-0.218
Mof_H 	H 	0.7238	0.2844	0.8008	0.115
Mof_C 	C 	0.733	0.2811	0.85455	0.122
Mof_C 	C 	0.45918	0.4457	0.16917	0.036
Mof_H 	H 	0.4849	0.4446	0.1889	0.022
Mof_C 	C 	0.2964	0.3319	0.1065	-0.113
Mof_H 	H 	0.3129	0.3407	0.0854	0.071
Mof_C 	C 	0.9576	0.2043	0.96614	-0.15
Mof_H 	H 	0.9692	0.2383	0.9833	0.087
Mof_C 	C 	0.9164	0.2211	0.94	0.025
Mof_H 	H 	0.8991	0.2661	0.9402	0.029
Mof_C 	C 	0.6363	0.3597	0.85104	-0.245
Mof_H 	H 	0.6038	0.3871	0.8494	0.125
Mof_C 	C 	0.41127	0.4038	0.16874	-0.11
Mof_H 	H 	0.4051	0.3745	0.1882	0.066
Mof_C 	C 	0.89667	0.3302	0.16598	-0.112
Mof_H 	H 	0.8804	0.3383	0.1873	0.072
Mof_C 	C 	0.2937	0.3477	0.16964	-0.111
Mof_H 	H 	0.3085	0.367	0.1911	0.069
Mof_C 	C 	0.7067	0.3049	0.8842	-0.212
Mof_H 	H 	0.7235	0.2936	0.9066	0.111
Mof_C 	C 	0.2458	0.3064	0.16913	0.043
Mof_H 	H 	0.2287	0.2983	0.1901	0.03
Mof_C 	C 	0.5884	0.4329	0.7477	-0.035
Mof_H 	H 	0.5683	0.4708	0.7367	0.038
Mof_C 	C 	0.6045	0.4295	0.7829	0.018
Mof_H 	H 	0.5999	0.4642	0.8004	0.027
Mof_C 	C 	0.8906	0.1277	0.83187	-0.376
Mof_H 	H 	0.8776	0.0786	0.8304	0.158
Mof_H 	H 	0.8919	0.1472	0.8083	0.152
Mof_H 	H 	0.9273	0.1288	0.8438	0.15
Mof_C 	C 	0.5561	0.3746	0.7474	0.018
Mof_H 	H 	0.5211	0.3834	0.7361	0.014
Mof_C 	C 	0.5669	0.3647	0.7824	-0.04
Mof_H 	H 	0.5418	0.362	0.8	0.052
Mof_Zn	Zn	0.39869	0.368	0.82373	1.215
Mof_Zn	Zn	0.40829	0.36853	0.90264	1.217
Mof_O 	O 	0.85261	0.9509	0.89419	-0.46
Mof_O 	O 	0.34348	0.2999	0.89266	-0.463
Mof_O 	O 	0.46156	0.28528	0.89539	-0.45
Mof_O 	O 	0.97024	0.93558	0.88872	-0.469
Mof_O 	O 	0.83466	0.9327	0.83562	-0.47
Mof_O 	O 	0.46577	0.30402	0.83638	-0.467
Mof_O 	O 	0.95226	0.95463	0.83003	-0.454
Mof_O 	O 	0.34753	0.28318	0.83371	-0.456
Mof_N 	N 	0.8932	0.13054	0.27019	-0.253
Mof_N 	N 	0.47581	0.38115	0.0068	-0.145
Mof_N 	N 	0.42484	0.38053	0.95546	-0.245
Mof_N 	N 	0.64729	0.3288	0.14806	-0.052
Mof_N 	N 	0.6933	0.2985	0.16508	-0.091
Mof_N 	N 	0.68602	0.2642	0.1076	-0.132
Mof_C 	C 	0.06966	0.0091	0.88917	0.037
Mof_H 	H 	0.063	0.98	0.9086	0.027
Mof_C 	C 	0.77455	0.0088	0.86525	-0.123
Mof_C 	C 	0.98067	0.96297	0.85961	0.376
Mof_N 	N 	0.86915	0.1412	0.21306	-0.16
Mof_C 	C 	0.03137	0.0109	0.85977	-0.124
Mof_C 	C 	0.76428	0.0487	0.89473	0.052
Mof_H 	H 	0.7893	0.0471	0.9148	0.028
Mof_C 	C 	0.82469	0.96057	0.86506	0.389
Mof_C 	C 	0.73724	0.0119	0.83524	0.049
Mof_H 	H 	0.7444	0.9854	0.815	0.029
Mof_C 	C 	0.67831	0.0948	0.86551	0.045
Mof_C 	C 	0.32702	0.2724	0.86315	0.388
Mof_C 	C 	0.51882	0.3632	0.03362	0.139
Mof_C 	C 	0.48237	0.275	0.86569	0.381
Mof_C 	C 	0.64416	0.307	0.11369	0.11
Mof_C 	C 	0.43398	0.4308	0.00948	0.006
Mof_H 	H 	0.428	0.4594	0.0292	0.03
Mof_C 	C 	0.68969	0.0537	0.83515	-0.109
Mof_H 	H 	0.665	0.0549	0.815	0.07
Mof_C 	C 	0.40309	0.4301	0.97781	0.005
Mof_H 	H 	0.372	0.4588	0.9721	0.029
Mof_C 	C 	0.8402	0.1623	0.18006	0.197
Mof_C 	C 	0.27702	0.2233	0.86297	-0.117
Mof_C 	C 	0.53543	0.4144	0.05915	-0.146
Mof_H 	H 	0.5196	0.4604	0.0586	0.093
Mof_C 	C 	0.59977	0.329	0.08682	-0.052
Mof_C 	C 	0.6271	0.1394	0.8653	0.047
Mof_C 	C 	0.57622	0.3956	0.08567	0.022
Mof_H 	H 	0.5876	0.4295	0.103	0.034
Mof_C 	C 	0.71668	0.0915	0.89495	-0.108
Mof_H 	H 	0.7105	0.1185	0.9152	0.07
Mof_C 	C 	0.11817	0.0506	0.88987	-0.109
Mof_H 	H 	0.1437	0.0489	0.9096	0.068
Mof_C 	C 	0.53151	0.2261	0.86559	-0.122
Mof_C 	C 	0.2514	0.2095	0.89393	0.047
Mof_H 	H 	0.2666	0.2284	0.9154	0.03
Mof_C 	C 	0.71521	0.2599	0.14008	0.067
Mof_C 	C 	0.1283	0.0947	0.86102	0.04
Mof_C 	C 	0.55468	0.1956	0.89708	0.047
Mof_H 	H 	0.5383	0.2043	0.9183	0.028
Mof_C 	C 	0.17988	0.1393	0.86148	0.047
Mof_C 	C 	0.46885	0.3528	0.97379	0.1
Mof_H 	H 	0.4921	0.3179	0.9649	-0.005
Mof_C 	C 	0.8401	0.1579	0.11712	0.174
Mof_H 	H 	0.8561	0.1444	0.0964	-0.03
Mof_C 	C 	0.55637	0.2115	0.83395	0.05
Mof_H 	H 	0.5408	0.2303	0.8126	0.028
Mof_C 	C 	0.6016	0.1525	0.89735	-0.112
Mof_H 	H 	0.6164	0.1321	0.9186	0.069
Mof_C 	C 	0.85912	0.1588	0.24569	0.134
Mof_H 	H 	0.8299	0.189	0.2509	-0.02
Mof_C 	C 	0.79194	0.2013	0.17843	-0.218
Mof_H 	H 	0.7762	0.2156	0.1992	0.115
Mof_C 	C 	0.767	0.2189	0.14545	0.122
Mof_C 	C 	0.04082	0.0543	0.83083	0.036
Mof_H 	H 	0.0151	0.0554	0.8111	0.022
Mof_C 	C 	0.2036	0.1681	0.8935	-0.113
Mof_H 	H 	0.1871	0.1593	0.9146	0.071
Mof_C 	C 	0.5424	0.2957	0.03386	-0.15
Mof_H 	H 	0.5308	0.2617	0.0167	0.087
Mof_C 	C 	0.5836	0.2789	0.06	0.025
Mof_H 	H 	0.6009	0.2339	0.0598	0.029
Mof_C 	C 	0.8637	0.1403	0.14896	-0.245
Mof_H 	H 	0.8962	0.1129	0.1506	0.125
Mof_C 	C 	0.08873	0.0962	0.83126	-0.11
Mof_H 	H 	0.0949	0.1255	0.8118	0.066
Mof_C 	C 	0.60333	0.1698	0.83402	-0.112
Mof_H 	H 	0.6196	0.1617	0.8127	0.072
Mof_C 	C 	0.2063	0.1523	0.83036	-0.111
Mof_H 	H 	0.1915	0.133	0.8089	0.069
Mof_C 	C 	0.7933	0.1951	0.1158	-0.212
Mof_H 	H 	0.7765	0.2064	0.0934	0.111
Mof_C 	C 	0.2542	0.1936	0.83087	0.043
Mof_H 	H 	0.2713	0.2017	0.8099	0.03
Mof_C 	C 	0.9116	0.0671	0.2523	-0.035
Mof_H 	H 	0.9317	0.0292	0.2633	0.038
Mof_C 	C 	0.8955	0.0705	0.2171	0.018
Mof_H 	H 	0.9001	0.0358	0.1996	0.027
Mof_C 	C 	0.6094	0.3723	0.16813	-0.376
Mof_H 	H 	0.6224	0.4214	0.1696	0.158
Mof_H 	H 	0.6081	0.3528	0.1917	0.152
Mof_H 	H 	0.5727	0.3712	0.1562	0.15
Mof_C 	C 	0.9439	0.1254	0.2526	0.018
Mof_H 	H 	0.9789	0.1166	0.2639	0.014
Mof_C 	C 	0.9331	0.1353	0.2176	-0.04
Mof_H 	H 	0.9582	0.138	0.2	0.052
Mof_Zn	Zn	0.89869	0.868	0.82373	1.215
Mof_Zn	Zn	0.90829	0.86853	0.90264	1.217
Mof_O 	O 	0.35261	0.4509	0.89419	-0.46
Mof_O 	O 	0.84348	0.7999	0.89266	-0.463
Mof_O 	O 	0.96156	0.78528	0.89539	-0.45
Mof_O 	O 	0.47024	0.43558	0.88872	-0.469
Mof_O 	O 	0.33466	0.4327	0.83562	-0.47
Mof_O 	O 	0.96577	0.80402	0.83638	-0.467
Mof_O 	O 	0.45226	0.45463	0.83003	-0.454
Mof_O 	O 	0.84753	0.78318	0.83371	-0.456
Mof_N 	N 	0.3932	0.63054	0.27019	-0.253
Mof_N 	N 	0.97581	0.88115	0.0068	-0.145
Mof_N 	N 	0.92484	0.88053	0.95546	-0.245
Mof_N 	N 	0.14729	0.8288	0.14806	-0.052
Mof_N 	N 	0.1933	0.7985	0.16508	-0.091
Mof_N 	N 	0.18602	0.7642	0.1076	-0.132
Mof_C 	C 	0.56966	0.5091	0.88917	0.037
Mof_H 	H 	0.563	0.48	0.9086	0.028
Mof_C 	C 	0.27455	0.5088	0.86525	-0.123
Mof_C 	C 	0.48067	0.46297	0.85961	0.377
Mof_N 	N 	0.36915	0.6412	0.21306	-0.16
Mof_C 	C 	0.53137	0.5109	0.85977	-0.124
Mof_C 	C 	0.26428	0.5487	0.89473	0.052
Mof_H 	H 	0.2893	0.5471	0.9148	0.028
Mof_C 	C 	0.32469	0.46057	0.86506	0.389
Mof_C 	C 	0.23724	0.5119	0.83524	0.049
Mof_H 	H 	0.2444	0.4854	0.815	0.029
Mof_C 	C 	0.17831	0.5948	0.86551	0.045
Mof_C 	C 	0.82702	0.7724	0.86315	0.388
Mof_C 	C 	0.01882	0.8632	0.03362	0.139
Mof_C 	C 	0.98237	0.775	0.86569	0.38
Mof_C 	C 	0.14416	0.807	0.11369	0.11
Mof_C 	C 	0.93398	0.9308	0.00948	0.006
Mof_H 	H 	0.928	0.9594	0.0292	0.03
Mof_C 	C 	0.18969	0.5537	0.83515	-0.108
Mof_H 	H 	0.165	0.5549	0.815	0.07
Mof_C 	C 	0.90309	0.9301	0.97781	0.005
Mof_H 	H 	0.872	0.9588	0.9721	0.029
Mof_C 	C 	0.3402	0.6623	0.18006	0.197
Mof_C 	C 	0.77702	0.7233	0.86297	-0.117
Mof_C 	C 	0.03543	0.9144	0.05915	-0.146
Mof_H 	H 	0.0196	0.9604	0.0586	0.093
Mof_C 	C 	0.09977	0.829	0.08682	-0.052
Mof_C 	C 	0.1271	0.6394	0.8653	0.047
Mof_C 	C 	0.07622	0.8956	0.08567	0.022
Mof_H 	H 	0.0876	0.9295	0.103	0.034
Mof_C 	C 	0.21668	0.5915	0.89495	-0.108
Mof_H 	H 	0.2105	0.6185	0.9152	0.07
Mof_C 	C 	0.61817	0.5506	0.88987	-0.109
Mof_H 	H 	0.6437	0.5489	0.9096	0.068
Mof_C 	C 	0.03151	0.7261	0.86559	-0.122
Mof_C 	C 	0.7514	0.7095	0.89393	0.047
Mof_H 	H 	0.7666	0.7284	0.9154	0.03
Mof_C 	C 	0.21521	0.7599	0.14008	0.067
Mof_C 	C 	0.6283	0.5947	0.86102	0.04
Mof_C 	C 	0.05468	0.6956	0.89708	0.047
Mof_H 	H 	0.0383	0.7043	0.9183	0.028
Mof_C 	C 	0.67988	0.6393	0.86148	0.047
Mof_C 	C 	0.96885	0.8528	0.97379	0.1
Mof_H 	H 	0.9921	0.8179	0.9649	-0.005
Mof_C 	C 	0.3401	0.6579	0.11712	0.174
Mof_H 	H 	0.3561	0.6444	0.0964	-0.03
Mof_C 	C 	0.05637	0.7115	0.83395	0.05
Mof_H 	H 	0.0408	0.7303	0.8126	0.028
Mof_C 	C 	0.1016	0.6525	0.89735	-0.112
Mof_H 	H 	0.1164	0.6321	0.9186	0.069
Mof_C 	C 	0.35912	0.6588	0.24569	0.134
Mof_H 	H 	0.3299	0.689	0.2509	-0.02
Mof_C 	C 	0.29194	0.7013	0.17843	-0.218
Mof_H 	H 	0.2762	0.7156	0.1992	0.115
Mof_C 	C 	0.267	0.7189	0.14545	0.122
Mof_C 	C 	0.54082	0.5543	0.83083	0.036
Mof_H 	H 	0.5151	0.5554	0.8111	0.022
Mof_C 	C 	0.7036	0.6681	0.8935	-0.113
Mof_H 	H 	0.6871	0.6593	0.9146	0.071
Mof_C 	C 	0.0424	0.7957	0.03386	-0.15
Mof_H 	H 	0.0308	0.7617	0.0167	0.087
Mof_C 	C 	0.0836	0.7789	0.06	0.025
Mof_H 	H 	0.1009	0.7339	0.0598	0.029
Mof_C 	C 	0.3637	0.6403	0.14896	-0.245
Mof_H 	H 	0.3962	0.6129	0.1506	0.125
Mof_C 	C 	0.58873	0.5962	0.83126	-0.11
Mof_H 	H 	0.5949	0.6255	0.8118	0.066
Mof_C 	C 	0.10333	0.6698	0.83402	-0.112
Mof_H 	H 	0.1196	0.6617	0.8127	0.072
Mof_C 	C 	0.7063	0.6523	0.83036	-0.111
Mof_H 	H 	0.6915	0.633	0.8089	0.069
Mof_C 	C 	0.2933	0.6951	0.1158	-0.212
Mof_H 	H 	0.2765	0.7064	0.0934	0.111
Mof_C 	C 	0.7542	0.6936	0.83087	0.043
Mof_H 	H 	0.7713	0.7017	0.8099	0.03
Mof_C 	C 	0.4116	0.5671	0.2523	-0.035
Mof_H 	H 	0.4317	0.5292	0.2633	0.038
Mof_C 	C 	0.3955	0.5705	0.2171	0.018
Mof_H 	H 	0.4001	0.5358	0.1996	0.027
Mof_C 	C 	0.1094	0.8723	0.16813	-0.376
Mof_H 	H 	0.1224	0.9214	0.1696	0.158
Mof_H 	H 	0.1081	0.8528	0.1917	0.152
Mof_H 	H 	0.0727	0.8712	0.1562	0.15
Mof_C 	C 	0.4439	0.6254	0.2526	0.018
Mof_H 	H 	0.4789	0.6166	0.2639	0.014
Mof_C 	C 	0.4331	0.6353	0.2176	-0.04
Mof_H 	H 	0.4582	0.638	0.2	0.052
Mof_Zn	Zn	0.39869	0.632	0.32373	1.215
Mof_Zn	Zn	0.40829	0.63147	0.40264	1.217
Mof_O 	O 	0.85261	0.0491	0.39419	-0.46
Mof_O 	O 	0.34348	0.7001	0.39266	-0.463
Mof_O 	O 	0.46156	0.71472	0.39539	-0.45
Mof_O 	O 	0.97024	0.06442	0.38872	-0.469
Mof_O 	O 	0.83466	0.0673	0.33562	-0.47
Mof_O 	O 	0.46577	0.69598	0.33638	-0.467
Mof_O 	O 	0.95226	0.04537	0.33003	-0.454
Mof_O 	O 	0.34753	0.71682	0.33371	-0.456
Mof_N 	N 	0.8932	0.86946	0.77019	-0.253
Mof_N 	N 	0.47581	0.61885	0.5068	-0.145
Mof_N 	N 	0.42484	0.61947	0.45546	-0.245
Mof_N 	N 	0.64729	0.6712	0.64806	-0.052
Mof_N 	N 	0.6933	0.7015	0.66508	-0.091
Mof_N 	N 	0.68602	0.7358	0.6076	-0.132
Mof_C 	C 	0.06966	0.9909	0.38917	0.037
Mof_H 	H 	0.063	0.02	0.4086	0.027
Mof_C 	C 	0.77455	0.9912	0.36525	-0.123
Mof_C 	C 	0.98067	0.03703	0.35961	0.377
Mof_N 	N 	0.86915	0.8588	0.71306	-0.16
Mof_C 	C 	0.03137	0.9891	0.35977	-0.124
Mof_C 	C 	0.76428	0.9513	0.39473	0.052
Mof_H 	H 	0.7893	0.9529	0.4148	0.028
Mof_C 	C 	0.82469	0.03943	0.36506	0.389
Mof_C 	C 	0.73724	0.9881	0.33524	0.049
Mof_H 	H 	0.7444	0.0146	0.315	0.029
Mof_C 	C 	0.67831	0.9052	0.36551	0.045
Mof_C 	C 	0.32702	0.7276	0.36315	0.388
Mof_C 	C 	0.51882	0.6368	0.53362	0.139
Mof_C 	C 	0.48237	0.725	0.36569	0.381
Mof_C 	C 	0.64416	0.693	0.61369	0.11
Mof_C 	C 	0.43398	0.5692	0.50948	0.006
Mof_H 	H 	0.428	0.5406	0.5292	0.03
Mof_C 	C 	0.68969	0.9463	0.33515	-0.108
Mof_H 	H 	0.665	0.9451	0.315	0.07
Mof_C 	C 	0.40309	0.5699	0.47781	0.005
Mof_H 	H 	0.372	0.5412	0.4721	0.029
Mof_C 	C 	0.8402	0.8377	0.68006	0.197
Mof_C 	C 	0.27702	0.7767	0.36297	-0.117
Mof_C 	C 	0.53543	0.5856	0.55915	-0.146
Mof_H 	H 	0.5196	0.5396	0.5586	0.093
Mof_C 	C 	0.59977	0.671	0.58682	-0.052
Mof_C 	C 	0.6271	0.8606	0.3653	0.047
Mof_C 	C 	0.57622	0.6044	0.58567	0.022
Mof_H 	H 	0.5876	0.5705	0.603	0.034
Mof_C 	C 	0.71668	0.9085	0.39495	-0.108
Mof_H 	H 	0.7105	0.8815	0.4152	0.07
Mof_C 	C 	0.11817	0.9494	0.38987	-0.109
Mof_H 	H 	0.1437	0.9511	0.4096	0.068
Mof_C 	C 	0.53151	0.7739	0.36559	-0.122
Mof_C 	C 	0.2514	0.7905	0.39393	0.047
Mof_H 	H 	0.2666	0.7716	0.4154	0.03
Mof_C 	C 	0.71521	0.7401	0.64008	0.067
Mof_C 	C 	0.1283	0.9053	0.36102	0.04
Mof_C 	C 	0.55468	0.8044	0.39708	0.047
Mof_H 	H 	0.5383	0.7957	0.4183	0.028
Mof_C 	C 	0.17988	0.8607	0.36148	0.047
Mof_C 	C 	0.46885	0.6472	0.47379	0.1
Mof_H 	H 	0.4921	0.6821	0.4649	-0.005
Mof_C 	C 	0.8401	0.8421	0.61712	0.174
Mof_H 	H 	0.8561	0.8556	0.5964	-0.03
Mof_C 	C 	0.55637	0.7885	0.33395	0.05
Mof_H 	H 	0.5408	0.7697	0.3126	0.028
Mof_C 	C 	0.6016	0.8475	0.39735	-0.112
Mof_H 	H 	0.6164	0.8679	0.4186	0.069
Mof_C 	C 	0.85912	0.8412	0.74569	0.134
Mof_H 	H 	0.8299	0.811	0.7509	-0.02
Mof_C 	C 	0.79194	0.7987	0.67843	-0.218
Mof_H 	H 	0.7762	0.7844	0.6992	0.115
Mof_C 	C 	0.767	0.7811	0.64545	0.122
Mof_C 	C 	0.04082	0.9457	0.33083	0.036
Mof_H 	H 	0.0151	0.9446	0.3111	0.022
Mof_C 	C 	0.2036	0.8319	0.3935	-0.113
Mof_H 	H 	0.1871	0.8407	0.4146	0.071
Mof_C 	C 	0.5424	0.7043	0.53386	-0.15
Mof_H 	H 	0.5308	0.7383	0.5167	0.087
Mof_C 	C 	0.5836	0.7211	0.56	0.025
Mof_H 	H 	0.6009	0.7661	0.5598	0.029
Mof_C 	C 	0.8637	0.8597	0.64896	-0.245
Mof_H 	H 	0.8962	0.8871	0.6506	0.125
Mof_C 	C 	0.08873	0.9038	0.33126	-0.11
Mof_H 	H 	0.0949	0.8745	0.3118	0.066
Mof_C 	C 	0.60333	0.8302	0.33402	-0.112
Mof_H 	H 	0.6196	0.8383	0.3127	0.072
Mof_C 	C 	0.2063	0.8477	0.33036	-0.111
Mof_H 	H 	0.1915	0.867	0.3089	0.069
Mof_C 	C 	0.7933	0.8049	0.6158	-0.212
Mof_H 	H 	0.7765	0.7936	0.5934	0.111
Mof_C 	C 	0.2542	0.8064	0.33087	0.043
Mof_H 	H 	0.2713	0.7983	0.3099	0.03
Mof_C 	C 	0.9116	0.9329	0.7523	-0.035
Mof_H 	H 	0.9317	0.9708	0.7633	0.038
Mof_C 	C 	0.8955	0.9295	0.7171	0.018
Mof_H 	H 	0.9001	0.9642	0.6996	0.027
Mof_C 	C 	0.6094	0.6277	0.66813	-0.376
Mof_H 	H 	0.6224	0.5786	0.6696	0.158
Mof_H 	H 	0.6081	0.6472	0.6917	0.152
Mof_H 	H 	0.5727	0.6288	0.6562	0.15
Mof_C 	C 	0.9439	0.8746	0.7526	0.018
Mof_H 	H 	0.9789	0.8834	0.7639	0.014
Mof_C 	C 	0.9331	0.8647	0.7176	-0.04
Mof_H 	H 	0.9582	0.862	0.7	0.052
Mof_Zn	Zn	0.89869	0.132	0.32373	1.215
Mof_Zn	Zn	0.90829	0.13147	0.40264	1.217
Mof_O 	O 	0.35261	0.5491	0.39419	-0.46
Mof_O 	O 	0.84348	0.2001	0.39266	-0.463
Mof_O 	O 	0.96156	0.21472	0.39539	-0.45
Mof_O 	O 	0.47024	0.56442	0.38872	-0.469
Mof_O 	O 	0.33466	0.5673	0.33562	-0.47
Mof_O 	O 	0.96577	0.19598	0.33638	-0.467
Mof_O 	O 	0.45226	0.54537	0.33003	-0.454
Mof_O 	O 	0.84753	0.21682	0.33371	-0.456
Mof_N 	N 	0.3932	0.36946	0.77019	-0.253
Mof_N 	N 	0.97581	0.11885	0.5068	-0.145
Mof_N 	N 	0.92484	0.11947	0.45546	-0.245
Mof_N 	N 	0.14729	0.1712	0.64806	-0.052
Mof_N 	N 	0.1933	0.2015	0.66508	-0.091
Mof_N 	N 	0.18602	0.2358	0.6076	-0.132
Mof_C 	C 	0.56966	0.4909	0.38917	0.037
Mof_H 	H 	0.563	0.52	0.4086	0.028
Mof_C 	C 	0.27455	0.4912	0.36525	-0.123
Mof_C 	C 	0.48067	0.53703	0.35961	0.377
Mof_N 	N 	0.36915	0.3588	0.71306	-0.16
Mof_C 	C 	0.53137	0.4891	0.35977	-0.124
Mof_C 	C 	0.26428	0.4513	0.39473	0.052
Mof_H 	H 	0.2893	0.4529	0.4148	0.028
Mof_C 	C 	0.32469	0.53943	0.36506	0.389
Mof_C 	C 	0.23724	0.4881	0.33524	0.049
Mof_H 	H 	0.2444	0.5146	0.315	0.029
Mof_C 	C 	0.17831	0.4052	0.36551	0.045
Mof_C 	C 	0.82702	0.2276	0.36315	0.388
Mof_C 	C 	0.01882	0.1368	0.53362	0.139
Mof_C 	C 	0.98237	0.225	0.36569	0.381
Mof_C 	C 	0.14416	0.193	0.61369	0.11
Mof_C 	C 	0.93398	0.0692	0.50948	0.006
Mof_H 	H 	0.928	0.0406	0.5292	0.03
Mof_C 	C 	0.18969	0.4463	0.33515	-0.108
Mof_H 	H 	0.165	0.4451	0.315	0.07
Mof_C 	C 	0.90309	0.0699	0.47781	0.005
Mof_H 	H 	0.872	0.0412	0.4721	0.029
Mof_C 	C 	0.3402	0.3377	0.68006	0.197
Mof_C 	C 	0.77702	0.2767	0.36297	-0.117
Mof_C 	C 	0.03543	0.0856	0.55915	-0.146
Mof_H 	H 	0.0196	0.0396	0.5586	0.093
Mof_C 	C 	0.09977	0.171	0.58682	-0.052
Mof_C 	C 	0.1271	0.3606	0.3653	0.047
Mof_C 	C 	0.07622	0.1044	0.58567	0.022
Mof_H 	H 	0.0876	0.0705	0.603	0.034
Mof_C 	C 	0.21668	0.4085	0.39495	-0.108
Mof_H 	H 	0.2105	0.3815	0.4152	0.07
Mof_C 	C 	0.61817	0.4494	0.38987	-0.109
Mof_H 	H 	0.6437	0.4511	0.4096	0.068
Mof_C 	C 	0.03151	0.2739	0.36559	-0.122
Mof_C 	C 	0.7514	0.2905	0.39393	0.047
Mof_H 	H 	0.7666	0.2716	0.4154	0.03
Mof_C 	C 	0.21521	0.2401	0.64008	0.067
Mof_C 	C 	0.6283	0.4053	0.36102	0.04
Mof_C 	C 	0.05468	0.3044	0.39708	0.047
Mof_H 	H 	0.0383	0.2957	0.4183	0.028
Mof_C 	C 	0.67988	0.3607	0.36148	0.047
Mof_C 	C 	0.96885	0.1472	0.47379	0.1
Mof_H 	H 	0.9921	0.1821	0.4649	-0.005
Mof_C 	C 	0.3401	0.3421	0.61712	0.174
Mof_H 	H 	0.3561	0.3556	0.5964	-0.03
Mof_C 	C 	0.05637	0.2885	0.33395	0.05
Mof_H 	H 	0.0408	0.2697	0.3126	0.028
Mof_C 	C 	0.1016	0.3475	0.39735	-0.112
Mof_H 	H 	0.1164	0.3679	0.4186	0.069
Mof_C 	C 	0.35912	0.3412	0.74569	0.134
Mof_H 	H 	0.3299	0.311	0.7509	-0.02
Mof_C 	C 	0.29194	0.2987	0.67843	-0.218
Mof_H 	H 	0.2762	0.2844	0.6992	0.115
Mof_C 	C 	0.267	0.2811	0.64545	0.122
Mof_C 	C 	0.54082	0.4457	0.33083	0.036
Mof_H 	H 	0.5151	0.4446	0.3111	0.022
Mof_C 	C 	0.7036	0.3319	0.3935	-0.113
Mof_H 	H 	0.6871	0.3407	0.4146	0.071
Mof_C 	C 	0.0424	0.2043	0.53386	-0.15
Mof_H 	H 	0.0308	0.2383	0.5167	0.087
Mof_C 	C 	0.0836	0.2211	0.56	0.025
Mof_H 	H 	0.1009	0.2661	0.5598	0.029
Mof_C 	C 	0.3637	0.3597	0.64896	-0.245
Mof_H 	H 	0.3962	0.3871	0.6506	0.125
Mof_C 	C 	0.58873	0.4038	0.33126	-0.11
Mof_H 	H 	0.5949	0.3745	0.3118	0.066
Mof_C 	C 	0.10333	0.3302	0.33402	-0.112
Mof_H 	H 	0.1196	0.3383	0.3127	0.072
Mof_C 	C 	0.7063	0.3477	0.33036	-0.111
Mof_H 	H 	0.6915	0.367	0.3089	0.069
Mof_C 	C 	0.2933	0.3049	0.6158	-0.212
Mof_H 	H 	0.2765	0.2936	0.5934	0.111
Mof_C 	C 	0.7542	0.3064	0.33087	0.043
Mof_H 	H 	0.7713	0.2983	0.3099	0.03
Mof_C 	C 	0.4116	0.4329	0.7523	-0.035
Mof_H 	H 	0.4317	0.4708	0.7633	0.038
Mof_C 	C 	0.3955	0.4295	0.7171	0.018
Mof_H 	H 	0.4001	0.4642	0.6996	0.027
Mof_C 	C 	0.1094	0.1277	0.66813	-0.376
Mof_H 	H 	0.1224	0.0786	0.6696	0.158
Mof_H 	H 	0.1081	0.1472	0.6917	0.152
Mof_H 	H 	0.0727	0.1288	0.6562	0.15
Mof_C 	C 	0.4439	0.3746	0.7526	0.018
Mof_H 	H 	0.4789	0.3834	0.7639	0.014
Mof_C 	C 	0.4331	0.3647	0.7176	-0.04
Mof_H 	H 	0.4582	0.362	0.7	0.052
_end
