data_functionalizedCrystal
_audit_creation_method	'EQeq! by Chris Wilmer'
_symmetry_space_group_name_H-M	'P1'
_symmetry_Int_Tables_number	1
_symmetry_cell_setting	triclinic
loop_
_symmetry_equiv_pos_as_xyz
  x,y,z
_cell_length_a	9.6355
_cell_length_b	13.9967
_cell_length_c	14.174
_cell_angle_alpha	90
_cell_angle_beta	96.174
_cell_angle_gamma	90
loop_
_atom_site_label
_atom_site_type_symbol
_atom_site_fract_x
_atom_site_fract_y
_atom_site_fract_z
_atom_site_charge
Mof_Mn	Mn	0.6468	0.7854	0.0067	0.632
Mof_Mn	Mn	0.163	0.8836	0.3394	0.653
Mof_Mn	Mn	0.3532	0.2854	0.4933	0.632
Mof_Mn	Mn	0.837	0.3836	0.1606	0.653
Mof_Mn	Mn	0.3532	0.2146	0.9933	0.631
Mof_Mn	Mn	0.837	0.1164	0.6606	0.652
Mof_Mn	Mn	0.6468	0.7146	0.5067	0.631
Mof_Mn	Mn	0.163	0.6164	0.8394	0.652
Mof_Nb	Nb	0.3387	0.9505	0.7061	1.065
Mof_Nb	Nb	0.6613	0.4505	0.7939	1.066
Mof_Nb	Nb	0.6613	0.0495	0.2939	1.065
Mof_Nb	Nb	0.3387	0.5495	0.2061	1.066
Mof_C 	C 	0.4741	0.8754	0.8219	-0.122
Mof_C 	C 	0.2552	0.905	0.5594	-0.14
Mof_C 	C 	0.117	0.9991	0.7126	-0.145
Mof_C 	C 	0.4855	0.6492	0.141	-0.119
Mof_C 	C 	0.5571	0.0082	0.7096	-0.123
Mof_C 	C 	0.6676	0.9472	0.1724	-0.136
Mof_C 	C 	0.6811	0.5865	0.8773	-0.142
Mof_C 	C 	0.2347	0.8206	0.7594	-0.139
Mof_C 	C 	0.5259	0.3754	0.6781	-0.122
Mof_C 	C 	0.7448	0.405	0.9406	-0.139
Mof_C 	C 	0.883	0.4991	0.7874	-0.142
Mof_C 	C 	0.5145	0.1492	0.359	-0.119
Mof_C 	C 	0.4429	0.5082	0.7904	-0.123
Mof_C 	C 	0.3324	0.4472	0.3276	-0.137
Mof_C 	C 	0.3189	0.0865	0.6227	-0.142
Mof_C 	C 	0.7653	0.3206	0.7406	-0.139
Mof_C 	C 	0.5259	0.1246	0.1781	-0.122
Mof_C 	C 	0.7448	0.095	0.4406	-0.14
Mof_C 	C 	0.883	0.0009	0.2874	-0.145
Mof_C 	C 	0.5145	0.3508	0.859	-0.119
Mof_C 	C 	0.4429	0.9918	0.2904	-0.123
Mof_C 	C 	0.3324	0.0528	0.8276	-0.136
Mof_C 	C 	0.3189	0.4135	0.1227	-0.142
Mof_C 	C 	0.7653	0.1794	0.2406	-0.139
Mof_C 	C 	0.4741	0.6246	0.3219	-0.122
Mof_C 	C 	0.2552	0.595	0.0594	-0.139
Mof_C 	C 	0.117	0.5009	0.2126	-0.142
Mof_C 	C 	0.4855	0.8508	0.641	-0.119
Mof_C 	C 	0.5571	0.4918	0.2096	-0.123
Mof_C 	C 	0.6676	0.5528	0.6724	-0.137
Mof_C 	C 	0.6811	0.9135	0.3773	-0.142
Mof_C 	C 	0.2347	0.6794	0.2594	-0.139
Mof_N 	N 	0.214	0.8853	0.4832	-0.17
Mof_N 	N 	0.5419	0.839	0.8824	-0.163
Mof_N 	N 	0.005	0.0262	0.7147	-0.16
Mof_N 	N 	0.5619	0.6971	0.1063	-0.157
Mof_N 	N 	0.6657	0.0402	0.7047	-0.159
Mof_N 	N 	0.6702	0.8965	0.1096	-0.16
Mof_N 	N 	0.6906	0.6547	0.9219	-0.146
Mof_N 	N 	0.1888	0.753	0.7891	-0.169
Mof_N 	N 	0.786	0.3853	0.0168	-0.17
Mof_N 	N 	0.4581	0.339	0.6176	-0.163
Mof_N 	N 	0.995	0.5262	0.7853	-0.162
Mof_N 	N 	0.4381	0.1971	0.3937	-0.157
Mof_N 	N 	0.3343	0.5402	0.7953	-0.159
Mof_N 	N 	0.3298	0.3965	0.3904	-0.16
Mof_N 	N 	0.3094	0.1547	0.5781	-0.146
Mof_N 	N 	0.8112	0.253	0.7109	-0.169
Mof_N 	N 	0.786	0.1147	0.5168	-0.17
Mof_N 	N 	0.4581	0.161	0.1176	-0.163
Mof_N 	N 	0.995	0.9738	0.2853	-0.16
Mof_N 	N 	0.4381	0.3029	0.8937	-0.157
Mof_N 	N 	0.3343	0.9598	0.2953	-0.159
Mof_N 	N 	0.3298	0.1035	0.8904	-0.16
Mof_N 	N 	0.3094	0.3453	0.0781	-0.146
Mof_N 	N 	0.8112	0.247	0.2109	-0.169
Mof_N 	N 	0.214	0.6147	0.9832	-0.17
Mof_N 	N 	0.5419	0.661	0.3824	-0.163
Mof_N 	N 	0.005	0.4738	0.2147	-0.162
Mof_N 	N 	0.5619	0.8029	0.6063	-0.157
Mof_N 	N 	0.6657	0.4598	0.2047	-0.159
Mof_N 	N 	0.6702	0.6035	0.6096	-0.16
Mof_N 	N 	0.6906	0.8453	0.4219	-0.146
Mof_N 	N 	0.1888	0.747	0.2891	-0.169
_end
