data_functionalizedCrystal
_audit_creation_method	'EQeq! by Chris Wilmer'
_symmetry_space_group_name_H-M	'P1'
_symmetry_Int_Tables_number	1
_symmetry_cell_setting	triclinic
loop_
_symmetry_equiv_pos_as_xyz
  x,y,z
_cell_length_a	18.1266
_cell_length_b	13.3611
_cell_length_c	8.5791
_cell_angle_alpha	90
_cell_angle_beta	90
_cell_angle_gamma	90
loop_
_atom_site_label
_atom_site_type_symbol
_atom_site_fract_x
_atom_site_fract_y
_atom_site_fract_z
_atom_site_charge
Mof_Er	Er	0.60093	0.37468	0.253	2.396
Mof_Er	Er	0.39368	0.12462	0.75275	2.348
Mof_O 	O 	0.5631	0.2992	0.4794	-0.594
Mof_O 	O 	0.4947	0.2101	0.6442	-0.605
Mof_O 	O 	0.6484	0.2045	0.2479	-0.53
Mof_O 	O 	0.6481	0.0405	0.2919	-0.491
Mof_O 	O 	0.7001	0.3858	0.4208	-0.672
Mof_O 	O 	0.7921	0.3826	0.5697	-0.663
Mof_O 	O 	0.7037	0.3652	0.0859	-0.571
Mof_O 	O 	0.7941	0.3695	0.9221	-0.568
Mof_O 	O 	0.6478	0.5405	0.2484	-0.471
Mof_O 	O 	0.648	0.7058	0.209	-0.538
Mof_O 	O 	0.503	0.4701	0.3304	-0.549
Mof_O 	O 	0.4357	0.5491	0.5072	-0.547
Mof_O 	O 	0.5045	0.2805	0.144	-0.59
Mof_O 	O 	0.427	0.2098	0.974	-0.537
Mof_O 	O 	0.4971	0.0375	0.8435	-0.539
Mof_O 	O 	0.5706	0.9666	0.017	-0.539
Mof_C 	C 	0.5086	0.2484	0.5228	0.788
Mof_H 	H 	0.4728	0.2391	0.4465	-0.237
Mof_C 	C 	0.6172	0.1294	0.265	0.664
Mof_H 	H 	0.566	0.1314	0.2583	-0.204
Mof_C 	C 	0.7356	0.3561	0.5266	1.039
Mof_H 	H 	0.7147	0.3038	0.5829	-0.289
Mof_C 	C 	0.7324	0.3947	0.967	0.81
Mof_H 	H 	0.706	0.4394	0.9054	-0.216
Mof_C 	C 	0.6171	0.63	0.2127	0.65
Mof_H 	H 	0.567	0.6306	0.1892	-0.201
Mof_C 	C 	0.4903	0.5081	0.4692	0.673
Mof_H 	H 	0.5274	0.5022	0.5434	-0.203
Mof_C 	C 	0.4894	0.2463	0.0213	0.705
Mof_H 	H 	0.5275	0.2455	0.9486	-0.207
Mof_C 	C 	0.5127	0.9999	0.9776	0.71
Mof_H 	H 	0.475	0.9988	0.051	-0.22
Mof_Er	Er	0.39907	0.62532	0.753	2.392
Mof_Er	Er	0.60632	0.87538	0.25275	2.34
Mof_O 	O 	0.4369	0.7008	0.9794	-0.58
Mof_O 	O 	0.5053	0.7899	0.1442	-0.597
Mof_O 	O 	0.3516	0.7955	0.7479	-0.529
Mof_O 	O 	0.3519	0.9595	0.7919	-0.492
Mof_O 	O 	0.2999	0.6142	0.9208	-0.666
Mof_O 	O 	0.2079	0.6174	0.0697	-0.66
Mof_O 	O 	0.2963	0.6348	0.5859	-0.561
Mof_O 	O 	0.2059	0.6305	0.4221	-0.566
Mof_O 	O 	0.3522	0.4595	0.7484	-0.47
Mof_O 	O 	0.352	0.2942	0.709	-0.537
Mof_O 	O 	0.497	0.5299	0.8304	-0.554
Mof_O 	O 	0.5643	0.4509	0.0072	-0.561
Mof_O 	O 	0.4955	0.7195	0.644	-0.595
Mof_O 	O 	0.573	0.7902	0.474	-0.544
Mof_O 	O 	0.5029	0.9625	0.3435	-0.53
Mof_O 	O 	0.4294	0.0334	0.517	-0.519
Mof_C 	C 	0.4914	0.7516	0.0228	0.754
Mof_H 	H 	0.5272	0.7609	0.9465	-0.22
Mof_C 	C 	0.3828	0.8706	0.765	0.665
Mof_H 	H 	0.434	0.8686	0.7583	-0.204
Mof_C 	C 	0.2644	0.6439	0.0266	1.028
Mof_H 	H 	0.2853	0.6962	0.0829	-0.287
Mof_C 	C 	0.2676	0.6053	0.467	0.793
Mof_H 	H 	0.294	0.5606	0.4054	-0.213
Mof_C 	C 	0.3829	0.37	0.7127	0.651
Mof_H 	H 	0.433	0.3694	0.6892	-0.2
Mof_C 	C 	0.5097	0.4919	0.9692	0.702
Mof_H 	H 	0.4726	0.4978	0.0434	-0.218
Mof_C 	C 	0.5106	0.7537	0.5213	0.724
Mof_H 	H 	0.4725	0.7545	0.4486	-0.217
Mof_C 	C 	0.4873	0.0001	0.4776	0.67
Mof_H 	H 	0.525	0.0012	0.551	-0.199
Mof_Er	Er	0.10093	0.12532	0.253	2.386
Mof_Er	Er	0.89368	0.37538	0.75275	2.346
Mof_O 	O 	0.0631	0.2008	0.4794	-0.59
Mof_O 	O 	0.9947	0.2899	0.6442	-0.596
Mof_O 	O 	0.1484	0.2955	0.2479	-0.529
Mof_O 	O 	0.1481	0.4595	0.2919	-0.494
Mof_O 	O 	0.2001	0.1142	0.4208	-0.672
Mof_O 	O 	0.2921	0.1174	0.5697	-0.663
Mof_O 	O 	0.2037	0.1348	0.0859	-0.562
Mof_O 	O 	0.2941	0.1305	0.9221	-0.567
Mof_O 	O 	0.1478	0.9595	0.2484	-0.47
Mof_O 	O 	0.148	0.7942	0.209	-0.536
Mof_O 	O 	0.003	0.0299	0.3304	-0.547
Mof_O 	O 	0.9357	0.9509	0.5072	-0.545
Mof_O 	O 	0.0045	0.2195	0.144	-0.588
Mof_O 	O 	0.927	0.2902	0.974	-0.531
Mof_O 	O 	0.9971	0.4625	0.8435	-0.522
Mof_O 	O 	0.0706	0.5334	0.017	-0.518
Mof_C 	C 	0.0086	0.2516	0.5228	0.766
Mof_H 	H 	0.9728	0.2609	0.4465	-0.228
Mof_C 	C 	0.1172	0.3706	0.265	0.663
Mof_H 	H 	0.066	0.3686	0.2583	-0.204
Mof_C 	C 	0.2356	0.1439	0.5266	1.038
Mof_H 	H 	0.2147	0.1962	0.5829	-0.29
Mof_C 	C 	0.2324	0.1053	0.967	0.795
Mof_H 	H 	0.206	0.0606	0.9054	-0.215
Mof_C 	C 	0.1171	0.87	0.2127	0.649
Mof_H 	H 	0.067	0.8694	0.1892	-0.199
Mof_C 	C 	0.9903	0.9919	0.4692	0.662
Mof_H 	H 	0.0274	0.9978	0.5434	-0.198
Mof_C 	C 	0.9894	0.2537	0.0213	0.7
Mof_H 	H 	0.0275	0.2545	0.9486	-0.211
Mof_C 	C 	0.0127	0.5001	0.9776	0.665
Mof_H 	H 	0.975	0.5012	0.051	-0.204
Mof_Er	Er	0.89907	0.87468	0.753	2.382
Mof_Er	Er	0.10632	0.62462	0.25275	2.34
Mof_O 	O 	0.9369	0.7992	0.9794	-0.568
Mof_O 	O 	0.0053	0.7101	0.1442	-0.585
Mof_O 	O 	0.8516	0.7045	0.7479	-0.527
Mof_O 	O 	0.8519	0.5405	0.7919	-0.492
Mof_O 	O 	0.7999	0.8858	0.9208	-0.655
Mof_O 	O 	0.7079	0.8826	0.0697	-0.656
Mof_O 	O 	0.7963	0.8652	0.5859	-0.56
Mof_O 	O 	0.7059	0.8695	0.4221	-0.566
Mof_O 	O 	0.8522	0.0405	0.7484	-0.466
Mof_O 	O 	0.852	0.2058	0.709	-0.535
Mof_O 	O 	0.997	0.9701	0.8304	-0.537
Mof_O 	O 	0.0643	0.0491	0.0072	-0.538
Mof_O 	O 	0.9955	0.7805	0.644	-0.594
Mof_O 	O 	0.073	0.7098	0.474	-0.545
Mof_O 	O 	0.0029	0.5375	0.3435	-0.531
Mof_O 	O 	0.9294	0.4666	0.517	-0.52
Mof_C 	C 	0.9914	0.7484	0.0228	0.727
Mof_H 	H 	0.0272	0.7391	0.9465	-0.214
Mof_C 	C 	0.8828	0.6294	0.765	0.664
Mof_H 	H 	0.934	0.6314	0.7583	-0.202
Mof_C 	C 	0.7644	0.8561	0.0266	1.008
Mof_H 	H 	0.7853	0.8038	0.0829	-0.283
Mof_C 	C 	0.7676	0.8947	0.467	0.793
Mof_H 	H 	0.794	0.9394	0.4054	-0.215
Mof_C 	C 	0.8829	0.13	0.7127	0.65
Mof_H 	H 	0.933	0.1306	0.6892	-0.197
Mof_C 	C 	0.0097	0.0081	0.9692	0.647
Mof_H 	H 	0.9726	0.0022	0.0434	-0.194
Mof_C 	C 	0.0106	0.7463	0.5213	0.724
Mof_H 	H 	0.9725	0.7455	0.4486	-0.218
Mof_C 	C 	0.9873	0.4999	0.4776	0.673
Mof_H 	H 	0.025	0.4988	0.551	-0.203
_end
