data_functionalizedCrystal
_audit_creation_method	'EQeq! by Chris Wilmer'
_symmetry_space_group_name_H-M	'P1'
_symmetry_Int_Tables_number	1
_symmetry_cell_setting	triclinic
loop_
_symmetry_equiv_pos_as_xyz
  x,y,z
_cell_length_a	18.2874
_cell_length_b	18.2874
_cell_length_c	19.8488
_cell_angle_alpha	90
_cell_angle_beta	90
_cell_angle_gamma	120
loop_
_atom_site_label
_atom_site_type_symbol
_atom_site_fract_x
_atom_site_fract_y
_atom_site_fract_z
_atom_site_charge
Mof_Eu	Eu	0.41688	0.50759	0.556	2.566
Mof_O 	O 	0.31572	0.36343	0.51937	-0.566
Mof_O 	O 	0.33016	0.57419	0.70344	-0.6
Mof_O 	O 	0.3775	0.4901	0.66758	-0.646
Mof_C 	C 	0.3512	0.5196	0.71301	0.6
Mof_C 	C 	0.4097	0.5296	0.90101	0.574
Mof_C 	C 	0.3465	0.4833	0.78126	-0.425
Mof_H 	H 	0.3741	0.4492	0.7837	0.164
Mof_C 	C 	0.3542	0.5311	0.84641	-0.404
Mof_H 	H 	0.355	0.5848	0.8409	0.139
Mof_C 	C 	0.3662	0.3539	0.48255	0.466
Mof_C 	C 	0.3374	0.2661	0.4537	-0.131
Mof_H 	H 	0.2828	0.2225	0.4715	0.045
Mof_C 	C 	0.2714	0.4526	0.82834	0.768
Mof_C 	C 	0.1995	0.4668	0.8119	-1.335
Mof_H 	H 	0.2203	0.5188	0.7875	0.428
Mof_H 	H 	0.1731	0.4697	0.8528	0.407
Mof_H 	H 	0.1589	0.421	0.7847	0.391
Mof_C 	C 	0.2438	0.3701	0.8642	-1.286
Mof_H 	H 	0.2029	0.3243	0.8372	0.372
Mof_H 	H 	0.219	0.3704	0.9068	0.389
Mof_H 	H 	0.2918	0.3631	0.8715	0.4
Mof_C 	C 	0.3919	0.2302	0.4244	-0.125
Mof_H 	H 	0.3646	0.1686	0.4275	-0.018
Mof_O 	O 	0.53699	0.34987	0.40864	-0.727
Mof_O 	O 	0.51801	0.22684	0.43797	-0.727
Mof_C 	C 	0.4873	0.274	0.42652	0.556
Mof_C 	C 	0.2727	0.1903	0.3394	-0.943
Mof_H 	H 	0.2555	0.1375	0.3616	0.336
Mof_H 	H 	0.2893	0.1877	0.294	0.252
Mof_H 	H 	0.2265	0.2012	0.3389	0.272
Mof_O 	O 	0.43802	0.41615	0.46835	-0.744
Mof_O 	O 	0.42652	0.58007	0.95033	-0.622
Mof_O 	O 	0.43484	0.47741	0.89508	-0.642
Mof_C 	C 	0.346	0.2601	0.3766	0.137
Mof_C 	C 	0.3907	0.3386	0.3325	-0.245
Mof_H 	H 	0.3563	0.3645	0.3288	-0.025
Mof_H 	H 	0.3998	0.323	0.2885	-0.018
Mof_H 	H 	0.444	0.3779	0.3524	0.008
Mof_C 	C 	0.3324	0.2372	0.3907	0.324
Mof_C 	C 	0.3616	0.3031	0.3374	-0.484
Mof_H 	H 	0.3795	0.3571	0.3577	0.276
Mof_H 	H 	0.3162	0.2898	0.3066	0.176
Mof_H 	H 	0.4081	0.3049	0.3134	0.222
Mof_C 	C 	0.3398	0.2699	0.4594	-0.135
Mof_H 	H 	0.2941	0.2282	0.4878	0.032
Mof_C 	C 	0.3961	0.2355	0.4354	-0.186
Mof_H 	H 	0.3737	0.1781	0.4529	0.107
Mof_C 	C 	0.2557	0.1584	0.3684	-0.034
Mof_H 	H 	0.2117	0.1706	0.3579	-0.003
Mof_H 	H 	0.2372	0.1172	0.4038	-0.104
Mof_H 	H 	0.2689	0.1367	0.329	0.022
Mof_Eu	Eu	0.49241	0.90929	0.556	2.565
Mof_O 	O 	0.63657	0.95229	0.51937	-0.566
Mof_O 	O 	0.42581	0.75597	0.70344	-0.601
Mof_O 	O 	0.5099	0.8874	0.66758	-0.647
Mof_C 	C 	0.4804	0.8316	0.71301	0.6
Mof_C 	C 	0.4704	0.8801	0.90101	0.573
Mof_C 	C 	0.5167	0.8632	0.78126	-0.425
Mof_H 	H 	0.5508	0.9249	0.7837	0.165
Mof_C 	C 	0.4689	0.8231	0.84641	-0.403
Mof_H 	H 	0.4152	0.7702	0.8409	0.139
Mof_C 	C 	0.6461	0.0123	0.48255	0.466
Mof_C 	C 	0.7339	0.0713	0.4537	-0.131
Mof_H 	H 	0.7775	0.0603	0.4715	0.045
Mof_C 	C 	0.5474	0.8188	0.82834	0.768
Mof_C 	C 	0.5332	0.7327	0.8119	-1.335
Mof_H 	H 	0.4812	0.7015	0.7875	0.428
Mof_H 	H 	0.5303	0.7034	0.8528	0.407
Mof_H 	H 	0.579	0.7379	0.7847	0.391
Mof_C 	C 	0.6299	0.8737	0.8642	-1.287
Mof_H 	H 	0.6757	0.8786	0.8372	0.373
Mof_H 	H 	0.6296	0.8486	0.9068	0.39
Mof_H 	H 	0.6369	0.9287	0.8715	0.401
Mof_C 	C 	0.7698	0.1617	0.4244	-0.125
Mof_H 	H 	0.8314	0.196	0.4275	-0.018
Mof_O 	O 	0.65013	0.18712	0.40864	-0.728
Mof_O 	O 	0.77316	0.29117	0.43797	-0.727
Mof_C 	C 	0.726	0.2133	0.42652	0.556
Mof_C 	C 	0.8097	0.0824	0.3394	-0.944
Mof_H 	H 	0.8625	0.118	0.3616	0.337
Mof_H 	H 	0.8123	0.1016	0.294	0.253
Mof_H 	H 	0.7988	0.0253	0.3389	0.273
Mof_O 	O 	0.58385	0.02187	0.46835	-0.744
Mof_O 	O 	0.41993	0.84645	0.95033	-0.62
Mof_O 	O 	0.52259	0.95743	0.89508	-0.639
Mof_C 	C 	0.7399	0.0859	0.3766	0.137
Mof_C 	C 	0.6614	0.0521	0.3325	-0.246
Mof_H 	H 	0.6355	0.9918	0.3288	-0.027
Mof_H 	H 	0.677	0.0768	0.2885	-0.018
Mof_H 	H 	0.6221	0.0661	0.3524	0.008
Mof_C 	C 	0.7628	0.0952	0.3907	0.324
Mof_C 	C 	0.6969	0.0585	0.3374	-0.484
Mof_H 	H 	0.6429	0.0224	0.3577	0.278
Mof_H 	H 	0.7102	0.0264	0.3066	0.177
Mof_H 	H 	0.6951	0.1032	0.3134	0.222
Mof_C 	C 	0.7301	0.0699	0.4594	-0.135
Mof_H 	H 	0.7718	0.0659	0.4878	0.032
Mof_C 	C 	0.7645	0.1606	0.4354	-0.186
Mof_H 	H 	0.8219	0.1956	0.4529	0.107
Mof_C 	C 	0.8416	0.0973	0.3684	-0.034
Mof_H 	H 	0.8294	0.0411	0.3579	-0.002
Mof_H 	H 	0.8828	0.12	0.4038	-0.104
Mof_H 	H 	0.8633	0.1322	0.329	0.022
Mof_Eu	Eu	0.09071	0.58312	0.556	2.565
Mof_O 	O 	0.04771	0.68428	0.51937	-0.567
Mof_O 	O 	0.24403	0.66984	0.70344	-0.602
Mof_O 	O 	0.1126	0.6225	0.66758	-0.647
Mof_C 	C 	0.1684	0.6488	0.71301	0.601
Mof_C 	C 	0.1199	0.5903	0.90101	0.574
Mof_C 	C 	0.1368	0.6535	0.78126	-0.426
Mof_H 	H 	0.0751	0.6259	0.7837	0.165
Mof_C 	C 	0.1769	0.6458	0.84641	-0.404
Mof_H 	H 	0.2298	0.645	0.8409	0.139
Mof_C 	C 	0.9877	0.6338	0.48255	0.466
Mof_C 	C 	0.9287	0.6626	0.4537	-0.131
Mof_H 	H 	0.9397	0.7172	0.4715	0.045
Mof_C 	C 	0.1812	0.7286	0.82834	0.77
Mof_C 	C 	0.2673	0.8005	0.8119	-1.338
Mof_H 	H 	0.2985	0.7797	0.7875	0.429
Mof_H 	H 	0.2966	0.8269	0.8528	0.408
Mof_H 	H 	0.2621	0.8411	0.7847	0.392
Mof_C 	C 	0.1263	0.7562	0.8642	-1.291
Mof_H 	H 	0.1214	0.7971	0.8372	0.375
Mof_H 	H 	0.1514	0.781	0.9068	0.392
Mof_H 	H 	0.0713	0.7082	0.8715	0.403
Mof_C 	C 	0.8383	0.6081	0.4244	-0.125
Mof_H 	H 	0.804	0.6354	0.4275	-0.018
Mof_O 	O 	0.81288	0.46301	0.40864	-0.727
Mof_O 	O 	0.70883	0.48199	0.43797	-0.726
Mof_C 	C 	0.7867	0.5127	0.42652	0.556
Mof_C 	C 	0.9176	0.7273	0.3394	-0.944
Mof_H 	H 	0.882	0.7445	0.3616	0.337
Mof_H 	H 	0.8984	0.7107	0.294	0.253
Mof_H 	H 	0.9747	0.7735	0.3389	0.273
Mof_O 	O 	0.97813	0.56198	0.46835	-0.744
Mof_O 	O 	0.15355	0.57348	0.95033	-0.62
Mof_O 	O 	0.04257	0.56516	0.89508	-0.639
Mof_C 	C 	0.9141	0.654	0.3766	0.137
Mof_C 	C 	0.9479	0.6093	0.3325	-0.246
Mof_H 	H 	0.0082	0.6437	0.3288	-0.027
Mof_H 	H 	0.9232	0.6002	0.2885	-0.018
Mof_H 	H 	0.9339	0.556	0.3524	0.008
Mof_C 	C 	0.9048	0.6676	0.3907	0.324
Mof_C 	C 	0.9415	0.6384	0.3374	-0.484
Mof_H 	H 	0.9776	0.6205	0.3577	0.278
Mof_H 	H 	0.9736	0.6838	0.3066	0.177
Mof_H 	H 	0.8968	0.5919	0.3134	0.222
Mof_C 	C 	0.9301	0.6602	0.4594	-0.135
Mof_H 	H 	0.9341	0.7059	0.4878	0.032
Mof_C 	C 	0.8394	0.6039	0.4354	-0.186
Mof_H 	H 	0.8044	0.6263	0.4529	0.107
Mof_C 	C 	0.9027	0.7443	0.3684	-0.034
Mof_H 	H 	0.9589	0.7883	0.3579	-0.003
Mof_H 	H 	0.88	0.7628	0.4038	-0.104
Mof_H 	H 	0.8678	0.7311	0.329	0.022
Mof_Eu	Eu	0.50759	0.41688	0.944	2.564
Mof_O 	O 	0.36343	0.31572	0.98063	-0.566
Mof_O 	O 	0.57419	0.33016	0.79656	-0.601
Mof_O 	O 	0.4901	0.3775	0.83242	-0.647
Mof_C 	C 	0.5196	0.3512	0.78699	0.6
Mof_C 	C 	0.5296	0.4097	0.59899	0.574
Mof_C 	C 	0.4833	0.3465	0.71874	-0.424
Mof_H 	H 	0.4492	0.3741	0.7163	0.164
Mof_C 	C 	0.5311	0.3542	0.65359	-0.404
Mof_H 	H 	0.5848	0.355	0.6591	0.139
Mof_C 	C 	0.3539	0.3662	0.01745	0.466
Mof_C 	C 	0.2661	0.3374	0.0463	-0.131
Mof_H 	H 	0.2225	0.2828	0.0285	0.045
Mof_C 	C 	0.4526	0.2714	0.67166	0.766
Mof_C 	C 	0.4668	0.1995	0.6881	-1.333
Mof_H 	H 	0.5188	0.2203	0.7125	0.428
Mof_H 	H 	0.4697	0.1731	0.6472	0.406
Mof_H 	H 	0.421	0.1589	0.7153	0.39
Mof_C 	C 	0.3701	0.2438	0.6358	-1.283
Mof_H 	H 	0.3243	0.2029	0.6628	0.371
Mof_H 	H 	0.3704	0.219	0.5932	0.388
Mof_H 	H 	0.3631	0.2918	0.6285	0.399
Mof_C 	C 	0.2302	0.3919	0.0756	-0.125
Mof_H 	H 	0.1686	0.3646	0.0725	-0.018
Mof_O 	O 	0.34987	0.53699	0.09136	-0.727
Mof_O 	O 	0.22684	0.51801	0.06203	-0.726
Mof_C 	C 	0.274	0.4873	0.07348	0.556
Mof_C 	C 	0.1903	0.2727	0.1606	-0.942
Mof_H 	H 	0.1375	0.2555	0.1384	0.336
Mof_H 	H 	0.1877	0.2893	0.206	0.252
Mof_H 	H 	0.2012	0.2265	0.1611	0.272
Mof_O 	O 	0.41615	0.43802	0.03165	-0.744
Mof_O 	O 	0.58007	0.42652	0.54967	-0.623
Mof_O 	O 	0.47741	0.43484	0.60492	-0.642
Mof_C 	C 	0.2601	0.346	0.1234	0.137
Mof_C 	C 	0.3386	0.3907	0.1675	-0.245
Mof_H 	H 	0.3645	0.3563	0.1712	-0.025
Mof_H 	H 	0.323	0.3998	0.2115	-0.018
Mof_H 	H 	0.3779	0.444	0.1476	0.008
Mof_C 	C 	0.2372	0.3324	0.1093	0.324
Mof_C 	C 	0.3031	0.3616	0.1626	-0.484
Mof_H 	H 	0.3571	0.3795	0.1423	0.276
Mof_H 	H 	0.2898	0.3162	0.1934	0.176
Mof_H 	H 	0.3049	0.4081	0.1866	0.222
Mof_C 	C 	0.2699	0.3398	0.0406	-0.135
Mof_H 	H 	0.2282	0.2941	0.0122	0.032
Mof_C 	C 	0.2355	0.3961	0.0646	-0.186
Mof_H 	H 	0.1781	0.3737	0.0471	0.107
Mof_C 	C 	0.1584	0.2557	0.1316	-0.034
Mof_H 	H 	0.1706	0.2117	0.1421	-0.002
Mof_H 	H 	0.1172	0.2372	0.0962	-0.104
Mof_H 	H 	0.1367	0.2689	0.171	0.022
Mof_Eu	Eu	0.90929	0.49241	0.944	2.559
Mof_O 	O 	0.95229	0.63657	0.98063	-0.565
Mof_O 	O 	0.75597	0.42581	0.79656	-0.601
Mof_O 	O 	0.8874	0.5099	0.83242	-0.647
Mof_C 	C 	0.8316	0.4804	0.78699	0.6
Mof_C 	C 	0.8801	0.4704	0.59899	0.574
Mof_C 	C 	0.8632	0.5167	0.71874	-0.424
Mof_H 	H 	0.9249	0.5508	0.7163	0.164
Mof_C 	C 	0.8231	0.4689	0.65359	-0.404
Mof_H 	H 	0.7702	0.4152	0.6591	0.139
Mof_C 	C 	0.0123	0.6461	0.01745	0.463
Mof_C 	C 	0.0713	0.7339	0.0463	-0.131
Mof_H 	H 	0.0603	0.7775	0.0285	0.043
Mof_C 	C 	0.8188	0.5474	0.67166	0.766
Mof_C 	C 	0.7327	0.5332	0.6881	-1.333
Mof_H 	H 	0.7015	0.4812	0.7125	0.428
Mof_H 	H 	0.7034	0.5303	0.6472	0.406
Mof_H 	H 	0.7379	0.579	0.7153	0.39
Mof_C 	C 	0.8737	0.6299	0.6358	-1.283
Mof_H 	H 	0.8786	0.6757	0.6628	0.371
Mof_H 	H 	0.8486	0.6296	0.5932	0.388
Mof_H 	H 	0.9287	0.6369	0.6285	0.399
Mof_C 	C 	0.1617	0.7698	0.0756	-0.125
Mof_H 	H 	0.196	0.8314	0.0725	-0.017
Mof_O 	O 	0.18712	0.65013	0.09136	-0.727
Mof_O 	O 	0.29117	0.77316	0.06203	-0.726
Mof_C 	C 	0.2133	0.726	0.07348	0.555
Mof_C 	C 	0.0824	0.8097	0.1606	-0.94
Mof_H 	H 	0.118	0.8625	0.1384	0.335
Mof_H 	H 	0.1016	0.8123	0.206	0.251
Mof_H 	H 	0.0253	0.7988	0.1611	0.271
Mof_O 	O 	0.02187	0.58385	0.03165	-0.744
Mof_O 	O 	0.84645	0.41993	0.54967	-0.623
Mof_O 	O 	0.95743	0.52259	0.60492	-0.643
Mof_C 	C 	0.0859	0.7399	0.1234	0.136
Mof_C 	C 	0.0521	0.6614	0.1675	-0.243
Mof_H 	H 	0.9918	0.6355	0.1712	-0.022
Mof_H 	H 	0.0768	0.677	0.2115	-0.019
Mof_H 	H 	0.0661	0.6221	0.1476	0.008
Mof_C 	C 	0.0952	0.7628	0.1093	0.324
Mof_C 	C 	0.0585	0.6969	0.1626	-0.483
Mof_H 	H 	0.0224	0.6429	0.1423	0.272
Mof_H 	H 	0.0264	0.7102	0.1934	0.175
Mof_H 	H 	0.1032	0.6951	0.1866	0.222
Mof_C 	C 	0.0699	0.7301	0.0406	-0.134
Mof_H 	H 	0.0659	0.7718	0.0122	0.033
Mof_C 	C 	0.1606	0.7645	0.0646	-0.186
Mof_H 	H 	0.1956	0.8219	0.0471	0.106
Mof_C 	C 	0.0973	0.8416	0.1316	-0.034
Mof_H 	H 	0.0411	0.8294	0.1421	-0.003
Mof_H 	H 	0.12	0.8828	0.0962	-0.104
Mof_H 	H 	0.1322	0.8633	0.171	0.021
Mof_Eu	Eu	0.58312	0.09071	0.944	2.558
Mof_O 	O 	0.68428	0.04771	0.98063	-0.568
Mof_O 	O 	0.66984	0.24403	0.79656	-0.601
Mof_O 	O 	0.6225	0.1126	0.83242	-0.647
Mof_C 	C 	0.6488	0.1684	0.78699	0.6
Mof_C 	C 	0.5903	0.1199	0.59899	0.574
Mof_C 	C 	0.6535	0.1368	0.71874	-0.424
Mof_H 	H 	0.6259	0.0751	0.7163	0.163
Mof_C 	C 	0.6458	0.1769	0.65359	-0.404
Mof_H 	H 	0.645	0.2298	0.6591	0.139
Mof_C 	C 	0.6338	0.9877	0.01745	0.466
Mof_C 	C 	0.6626	0.9287	0.0463	-0.131
Mof_H 	H 	0.7172	0.9397	0.0285	0.045
Mof_C 	C 	0.7286	0.1812	0.67166	0.766
Mof_C 	C 	0.8005	0.2673	0.6881	-1.332
Mof_H 	H 	0.7797	0.2985	0.7125	0.427
Mof_H 	H 	0.8269	0.2966	0.6472	0.406
Mof_H 	H 	0.8411	0.2621	0.7153	0.39
Mof_C 	C 	0.7562	0.1263	0.6358	-1.282
Mof_H 	H 	0.7971	0.1214	0.6628	0.371
Mof_H 	H 	0.781	0.1514	0.5932	0.388
Mof_H 	H 	0.7082	0.0713	0.6285	0.399
Mof_C 	C 	0.6081	0.8383	0.0756	-0.125
Mof_H 	H 	0.6354	0.804	0.0725	-0.017
Mof_O 	O 	0.46301	0.81288	0.09136	-0.727
Mof_O 	O 	0.48199	0.70883	0.06203	-0.727
Mof_C 	C 	0.5127	0.7867	0.07348	0.556
Mof_C 	C 	0.7273	0.9176	0.1606	-0.942
Mof_H 	H 	0.7445	0.882	0.1384	0.335
Mof_H 	H 	0.7107	0.8984	0.206	0.252
Mof_H 	H 	0.7735	0.9747	0.1611	0.271
Mof_O 	O 	0.56198	0.97813	0.03165	-0.744
Mof_O 	O 	0.57348	0.15355	0.54967	-0.623
Mof_O 	O 	0.56516	0.04257	0.60492	-0.643
Mof_C 	C 	0.654	0.9141	0.1234	0.137
Mof_C 	C 	0.6093	0.9479	0.1675	-0.243
Mof_H 	H 	0.6437	0.0082	0.1712	-0.022
Mof_H 	H 	0.6002	0.9232	0.2115	-0.019
Mof_H 	H 	0.556	0.9339	0.1476	0.008
Mof_C 	C 	0.6676	0.9048	0.1093	0.324
Mof_C 	C 	0.6384	0.9415	0.1626	-0.484
Mof_H 	H 	0.6205	0.9776	0.1423	0.272
Mof_H 	H 	0.6838	0.9736	0.1934	0.175
Mof_H 	H 	0.5919	0.8968	0.1866	0.222
Mof_C 	C 	0.6602	0.9301	0.0406	-0.135
Mof_H 	H 	0.7059	0.9341	0.0122	0.032
Mof_C 	C 	0.6039	0.8394	0.0646	-0.186
Mof_H 	H 	0.6263	0.8044	0.0471	0.107
Mof_C 	C 	0.7443	0.9027	0.1316	-0.034
Mof_H 	H 	0.7883	0.9589	0.1421	-0.002
Mof_H 	H 	0.7628	0.88	0.0962	-0.103
Mof_H 	H 	0.7311	0.8678	0.171	0.022
Mof_Eu	Eu	0.58312	0.49241	0.444	2.565
Mof_O 	O 	0.68428	0.63657	0.48063	-0.567
Mof_O 	O 	0.66984	0.42581	0.29656	-0.601
Mof_O 	O 	0.6225	0.5099	0.33242	-0.647
Mof_C 	C 	0.6488	0.4804	0.28699	0.6
Mof_C 	C 	0.5903	0.4704	0.09899	0.574
Mof_C 	C 	0.6535	0.5167	0.21874	-0.425
Mof_H 	H 	0.6259	0.5508	0.2163	0.164
Mof_C 	C 	0.6458	0.4689	0.15359	-0.404
Mof_H 	H 	0.645	0.4152	0.1591	0.139
Mof_C 	C 	0.6338	0.6461	0.51745	0.466
Mof_C 	C 	0.6626	0.7339	0.5463	-0.131
Mof_H 	H 	0.7172	0.7775	0.5285	0.045
Mof_C 	C 	0.7286	0.5474	0.17166	0.768
Mof_C 	C 	0.8005	0.5332	0.1881	-1.335
Mof_H 	H 	0.7797	0.4812	0.2125	0.428
Mof_H 	H 	0.8269	0.5303	0.1472	0.407
Mof_H 	H 	0.8411	0.579	0.2153	0.391
Mof_C 	C 	0.7562	0.6299	0.1358	-1.286
Mof_H 	H 	0.7971	0.6757	0.1628	0.372
Mof_H 	H 	0.781	0.6296	0.0932	0.389
Mof_H 	H 	0.7082	0.6369	0.1285	0.4
Mof_C 	C 	0.6081	0.7698	0.5756	-0.125
Mof_H 	H 	0.6354	0.8314	0.5725	-0.018
Mof_O 	O 	0.46301	0.65013	0.59136	-0.727
Mof_O 	O 	0.48199	0.77316	0.56203	-0.727
Mof_C 	C 	0.5127	0.726	0.57348	0.556
Mof_C 	C 	0.7273	0.8097	0.6606	-0.943
Mof_H 	H 	0.7445	0.8625	0.6384	0.336
Mof_H 	H 	0.7107	0.8123	0.706	0.252
Mof_H 	H 	0.7735	0.7988	0.6611	0.272
Mof_O 	O 	0.56198	0.58385	0.53165	-0.744
Mof_O 	O 	0.57348	0.41993	0.04967	-0.622
Mof_O 	O 	0.56516	0.52259	0.10492	-0.642
Mof_C 	C 	0.654	0.7399	0.6234	0.137
Mof_C 	C 	0.6093	0.6614	0.6675	-0.245
Mof_H 	H 	0.6437	0.6355	0.6712	-0.025
Mof_H 	H 	0.6002	0.677	0.7115	-0.018
Mof_H 	H 	0.556	0.6221	0.6476	0.008
Mof_C 	C 	0.6676	0.7628	0.6093	0.324
Mof_C 	C 	0.6384	0.6969	0.6626	-0.484
Mof_H 	H 	0.6205	0.6429	0.6423	0.276
Mof_H 	H 	0.6838	0.7102	0.6934	0.176
Mof_H 	H 	0.5919	0.6951	0.6866	0.222
Mof_C 	C 	0.6602	0.7301	0.5406	-0.135
Mof_H 	H 	0.7059	0.7718	0.5122	0.032
Mof_C 	C 	0.6039	0.7645	0.5646	-0.186
Mof_H 	H 	0.6263	0.8219	0.5471	0.107
Mof_C 	C 	0.7443	0.8416	0.6316	-0.034
Mof_H 	H 	0.7883	0.8294	0.6421	-0.003
Mof_H 	H 	0.7628	0.8828	0.5962	-0.104
Mof_H 	H 	0.7311	0.8633	0.671	0.022
Mof_Eu	Eu	0.50759	0.09071	0.444	2.565
Mof_O 	O 	0.36343	0.04771	0.48063	-0.566
Mof_O 	O 	0.57419	0.24403	0.29656	-0.601
Mof_O 	O 	0.4901	0.1126	0.33242	-0.647
Mof_C 	C 	0.5196	0.1684	0.28699	0.6
Mof_C 	C 	0.5296	0.1199	0.09899	0.573
Mof_C 	C 	0.4833	0.1368	0.21874	-0.425
Mof_H 	H 	0.4492	0.0751	0.2163	0.165
Mof_C 	C 	0.5311	0.1769	0.15359	-0.403
Mof_H 	H 	0.5848	0.2298	0.1591	0.139
Mof_C 	C 	0.3539	0.9877	0.51745	0.466
Mof_C 	C 	0.2661	0.9287	0.5463	-0.131
Mof_H 	H 	0.2225	0.9397	0.5285	0.045
Mof_C 	C 	0.4526	0.1812	0.17166	0.768
Mof_C 	C 	0.4668	0.2673	0.1881	-1.335
Mof_H 	H 	0.5188	0.2985	0.2125	0.428
Mof_H 	H 	0.4697	0.2966	0.1472	0.407
Mof_H 	H 	0.421	0.2621	0.2153	0.391
Mof_C 	C 	0.3701	0.1263	0.1358	-1.287
Mof_H 	H 	0.3243	0.1214	0.1628	0.373
Mof_H 	H 	0.3704	0.1514	0.0932	0.39
Mof_H 	H 	0.3631	0.0713	0.1285	0.401
Mof_C 	C 	0.2302	0.8383	0.5756	-0.125
Mof_H 	H 	0.1686	0.804	0.5725	-0.018
Mof_O 	O 	0.34987	0.81288	0.59136	-0.728
Mof_O 	O 	0.22684	0.70883	0.56203	-0.727
Mof_C 	C 	0.274	0.7867	0.57348	0.556
Mof_C 	C 	0.1903	0.9176	0.6606	-0.944
Mof_H 	H 	0.1375	0.882	0.6384	0.337
Mof_H 	H 	0.1877	0.8984	0.706	0.253
Mof_H 	H 	0.2012	0.9747	0.6611	0.273
Mof_O 	O 	0.41615	0.97813	0.53165	-0.744
Mof_O 	O 	0.58007	0.15355	0.04967	-0.62
Mof_O 	O 	0.47741	0.04257	0.10492	-0.639
Mof_C 	C 	0.2601	0.9141	0.6234	0.137
Mof_C 	C 	0.3386	0.9479	0.6675	-0.246
Mof_H 	H 	0.3645	0.0082	0.6712	-0.027
Mof_H 	H 	0.323	0.9232	0.7115	-0.018
Mof_H 	H 	0.3779	0.9339	0.6476	0.008
Mof_C 	C 	0.2372	0.9048	0.6093	0.324
Mof_C 	C 	0.3031	0.9415	0.6626	-0.484
Mof_H 	H 	0.3571	0.9776	0.6423	0.278
Mof_H 	H 	0.2898	0.9736	0.6934	0.177
Mof_H 	H 	0.3049	0.8968	0.6866	0.222
Mof_C 	C 	0.2699	0.9301	0.5406	-0.135
Mof_H 	H 	0.2282	0.9341	0.5122	0.032
Mof_C 	C 	0.2355	0.8394	0.5646	-0.186
Mof_H 	H 	0.1781	0.8044	0.5471	0.107
Mof_C 	C 	0.1584	0.9027	0.6316	-0.034
Mof_H 	H 	0.1706	0.9589	0.6421	-0.002
Mof_H 	H 	0.1172	0.88	0.5962	-0.104
Mof_H 	H 	0.1367	0.8678	0.671	0.022
Mof_Eu	Eu	0.90929	0.41688	0.444	2.565
Mof_O 	O 	0.95229	0.31572	0.48063	-0.567
Mof_O 	O 	0.75597	0.33016	0.29656	-0.602
Mof_O 	O 	0.8874	0.3775	0.33242	-0.647
Mof_C 	C 	0.8316	0.3512	0.28699	0.601
Mof_C 	C 	0.8801	0.4097	0.09899	0.574
Mof_C 	C 	0.8632	0.3465	0.21874	-0.426
Mof_H 	H 	0.9249	0.3741	0.2163	0.165
Mof_C 	C 	0.8231	0.3542	0.15359	-0.404
Mof_H 	H 	0.7702	0.355	0.1591	0.139
Mof_C 	C 	0.0123	0.3662	0.51745	0.466
Mof_C 	C 	0.0713	0.3374	0.5463	-0.131
Mof_H 	H 	0.0603	0.2828	0.5285	0.045
Mof_C 	C 	0.8188	0.2714	0.17166	0.77
Mof_C 	C 	0.7327	0.1995	0.1881	-1.338
Mof_H 	H 	0.7015	0.2203	0.2125	0.429
Mof_H 	H 	0.7034	0.1731	0.1472	0.408
Mof_H 	H 	0.7379	0.1589	0.2153	0.392
Mof_C 	C 	0.8737	0.2438	0.1358	-1.291
Mof_H 	H 	0.8786	0.2029	0.1628	0.375
Mof_H 	H 	0.8486	0.219	0.0932	0.392
Mof_H 	H 	0.9287	0.2918	0.1285	0.403
Mof_C 	C 	0.1617	0.3919	0.5756	-0.125
Mof_H 	H 	0.196	0.3646	0.5725	-0.018
Mof_O 	O 	0.18712	0.53699	0.59136	-0.727
Mof_O 	O 	0.29117	0.51801	0.56203	-0.726
Mof_C 	C 	0.2133	0.4873	0.57348	0.556
Mof_C 	C 	0.0824	0.2727	0.6606	-0.944
Mof_H 	H 	0.118	0.2555	0.6384	0.337
Mof_H 	H 	0.1016	0.2893	0.706	0.253
Mof_H 	H 	0.0253	0.2265	0.6611	0.273
Mof_O 	O 	0.02187	0.43802	0.53165	-0.744
Mof_O 	O 	0.84645	0.42652	0.04967	-0.62
Mof_O 	O 	0.95743	0.43484	0.10492	-0.639
Mof_C 	C 	0.0859	0.346	0.6234	0.137
Mof_C 	C 	0.0521	0.3907	0.6675	-0.246
Mof_H 	H 	0.9918	0.3563	0.6712	-0.027
Mof_H 	H 	0.0768	0.3998	0.7115	-0.018
Mof_H 	H 	0.0661	0.444	0.6476	0.008
Mof_C 	C 	0.0952	0.3324	0.6093	0.324
Mof_C 	C 	0.0585	0.3616	0.6626	-0.484
Mof_H 	H 	0.0224	0.3795	0.6423	0.278
Mof_H 	H 	0.0264	0.3162	0.6934	0.177
Mof_H 	H 	0.1032	0.4081	0.6866	0.222
Mof_C 	C 	0.0699	0.3398	0.5406	-0.135
Mof_H 	H 	0.0659	0.2941	0.5122	0.032
Mof_C 	C 	0.1606	0.3961	0.5646	-0.186
Mof_H 	H 	0.1956	0.3737	0.5471	0.107
Mof_C 	C 	0.0973	0.2557	0.6316	-0.034
Mof_H 	H 	0.0411	0.2117	0.6421	-0.003
Mof_H 	H 	0.12	0.2372	0.5962	-0.104
Mof_H 	H 	0.1322	0.2689	0.671	0.022
Mof_Eu	Eu	0.49241	0.58312	0.056	2.564
Mof_O 	O 	0.63657	0.68428	0.01937	-0.566
Mof_O 	O 	0.42581	0.66984	0.20344	-0.601
Mof_O 	O 	0.5099	0.6225	0.16758	-0.647
Mof_C 	C 	0.4804	0.6488	0.21301	0.6
Mof_C 	C 	0.4704	0.5903	0.40101	0.574
Mof_C 	C 	0.5167	0.6535	0.28126	-0.424
Mof_H 	H 	0.5508	0.6259	0.2837	0.164
Mof_C 	C 	0.4689	0.6458	0.34641	-0.404
Mof_H 	H 	0.4152	0.645	0.3409	0.139
Mof_C 	C 	0.6461	0.6338	0.98255	0.466
Mof_C 	C 	0.7339	0.6626	0.9537	-0.131
Mof_H 	H 	0.7775	0.7172	0.9715	0.045
Mof_C 	C 	0.5474	0.7286	0.32834	0.766
Mof_C 	C 	0.5332	0.8005	0.3119	-1.333
Mof_H 	H 	0.4812	0.7797	0.2875	0.428
Mof_H 	H 	0.5303	0.8269	0.3528	0.406
Mof_H 	H 	0.579	0.8411	0.2847	0.39
Mof_C 	C 	0.6299	0.7562	0.3642	-1.283
Mof_H 	H 	0.6757	0.7971	0.3372	0.371
Mof_H 	H 	0.6296	0.781	0.4068	0.388
Mof_H 	H 	0.6369	0.7082	0.3715	0.399
Mof_C 	C 	0.7698	0.6081	0.9244	-0.125
Mof_H 	H 	0.8314	0.6354	0.9275	-0.018
Mof_O 	O 	0.65013	0.46301	0.90864	-0.727
Mof_O 	O 	0.77316	0.48199	0.93797	-0.726
Mof_C 	C 	0.726	0.5127	0.92652	0.556
Mof_C 	C 	0.8097	0.7273	0.8394	-0.942
Mof_H 	H 	0.8625	0.7445	0.8616	0.336
Mof_H 	H 	0.8123	0.7107	0.794	0.252
Mof_H 	H 	0.7988	0.7735	0.8389	0.272
Mof_O 	O 	0.58385	0.56198	0.96835	-0.744
Mof_O 	O 	0.41993	0.57348	0.45033	-0.623
Mof_O 	O 	0.52259	0.56516	0.39508	-0.642
Mof_C 	C 	0.7399	0.654	0.8766	0.137
Mof_C 	C 	0.6614	0.6093	0.8325	-0.245
Mof_H 	H 	0.6355	0.6437	0.8288	-0.025
Mof_H 	H 	0.677	0.6002	0.7885	-0.018
Mof_H 	H 	0.6221	0.556	0.8524	0.008
Mof_C 	C 	0.7628	0.6676	0.8907	0.324
Mof_C 	C 	0.6969	0.6384	0.8374	-0.484
Mof_H 	H 	0.6429	0.6205	0.8577	0.276
Mof_H 	H 	0.7102	0.6838	0.8066	0.176
Mof_H 	H 	0.6951	0.5919	0.8134	0.222
Mof_C 	C 	0.7301	0.6602	0.9594	-0.135
Mof_H 	H 	0.7718	0.7059	0.9878	0.032
Mof_C 	C 	0.7645	0.6039	0.9354	-0.186
Mof_H 	H 	0.8219	0.6263	0.9529	0.107
Mof_C 	C 	0.8416	0.7443	0.8684	-0.034
Mof_H 	H 	0.8294	0.7883	0.8579	-0.002
Mof_H 	H 	0.8828	0.7628	0.9038	-0.104
Mof_H 	H 	0.8633	0.7311	0.829	0.022
Mof_Eu	Eu	0.09071	0.50759	0.056	2.559
Mof_O 	O 	0.04771	0.36343	0.01937	-0.565
Mof_O 	O 	0.24403	0.57419	0.20344	-0.601
Mof_O 	O 	0.1126	0.4901	0.16758	-0.647
Mof_C 	C 	0.1684	0.5196	0.21301	0.6
Mof_C 	C 	0.1199	0.5296	0.40101	0.574
Mof_C 	C 	0.1368	0.4833	0.28126	-0.424
Mof_H 	H 	0.0751	0.4492	0.2837	0.164
Mof_C 	C 	0.1769	0.5311	0.34641	-0.404
Mof_H 	H 	0.2298	0.5848	0.3409	0.139
Mof_C 	C 	0.9877	0.3539	0.98255	0.463
Mof_C 	C 	0.9287	0.2661	0.9537	-0.131
Mof_H 	H 	0.9397	0.2225	0.9715	0.043
Mof_C 	C 	0.1812	0.4526	0.32834	0.766
Mof_C 	C 	0.2673	0.4668	0.3119	-1.333
Mof_H 	H 	0.2985	0.5188	0.2875	0.428
Mof_H 	H 	0.2966	0.4697	0.3528	0.406
Mof_H 	H 	0.2621	0.421	0.2847	0.39
Mof_C 	C 	0.1263	0.3701	0.3642	-1.283
Mof_H 	H 	0.1214	0.3243	0.3372	0.371
Mof_H 	H 	0.1514	0.3704	0.4068	0.388
Mof_H 	H 	0.0713	0.3631	0.3715	0.399
Mof_C 	C 	0.8383	0.2302	0.9244	-0.125
Mof_H 	H 	0.804	0.1686	0.9275	-0.017
Mof_O 	O 	0.81288	0.34987	0.90864	-0.727
Mof_O 	O 	0.70883	0.22684	0.93797	-0.726
Mof_C 	C 	0.7867	0.274	0.92652	0.555
Mof_C 	C 	0.9176	0.1903	0.8394	-0.94
Mof_H 	H 	0.882	0.1375	0.8616	0.335
Mof_H 	H 	0.8984	0.1877	0.794	0.251
Mof_H 	H 	0.9747	0.2012	0.8389	0.271
Mof_O 	O 	0.97813	0.41615	0.96835	-0.744
Mof_O 	O 	0.15355	0.58007	0.45033	-0.623
Mof_O 	O 	0.04257	0.47741	0.39508	-0.643
Mof_C 	C 	0.9141	0.2601	0.8766	0.136
Mof_C 	C 	0.9479	0.3386	0.8325	-0.243
Mof_H 	H 	0.0082	0.3645	0.8288	-0.022
Mof_H 	H 	0.9232	0.323	0.7885	-0.019
Mof_H 	H 	0.9339	0.3779	0.8524	0.008
Mof_C 	C 	0.9048	0.2372	0.8907	0.324
Mof_C 	C 	0.9415	0.3031	0.8374	-0.483
Mof_H 	H 	0.9776	0.3571	0.8577	0.272
Mof_H 	H 	0.9736	0.2898	0.8066	0.175
Mof_H 	H 	0.8968	0.3049	0.8134	0.222
Mof_C 	C 	0.9301	0.2699	0.9594	-0.134
Mof_H 	H 	0.9341	0.2282	0.9878	0.033
Mof_C 	C 	0.8394	0.2355	0.9354	-0.186
Mof_H 	H 	0.8044	0.1781	0.9529	0.106
Mof_C 	C 	0.9027	0.1584	0.8684	-0.034
Mof_H 	H 	0.9589	0.1706	0.8579	-0.003
Mof_H 	H 	0.88	0.1172	0.9038	-0.104
Mof_H 	H 	0.8678	0.1367	0.829	0.021
Mof_Eu	Eu	0.41688	0.90929	0.056	2.558
Mof_O 	O 	0.31572	0.95229	0.01937	-0.568
Mof_O 	O 	0.33016	0.75597	0.20344	-0.601
Mof_O 	O 	0.3775	0.8874	0.16758	-0.647
Mof_C 	C 	0.3512	0.8316	0.21301	0.6
Mof_C 	C 	0.4097	0.8801	0.40101	0.574
Mof_C 	C 	0.3465	0.8632	0.28126	-0.424
Mof_H 	H 	0.3741	0.9249	0.2837	0.163
Mof_C 	C 	0.3542	0.8231	0.34641	-0.404
Mof_H 	H 	0.355	0.7702	0.3409	0.139
Mof_C 	C 	0.3662	0.0123	0.98255	0.466
Mof_C 	C 	0.3374	0.0713	0.9537	-0.131
Mof_H 	H 	0.2828	0.0603	0.9715	0.045
Mof_C 	C 	0.2714	0.8188	0.32834	0.766
Mof_C 	C 	0.1995	0.7327	0.3119	-1.332
Mof_H 	H 	0.2203	0.7015	0.2875	0.427
Mof_H 	H 	0.1731	0.7034	0.3528	0.406
Mof_H 	H 	0.1589	0.7379	0.2847	0.39
Mof_C 	C 	0.2438	0.8737	0.3642	-1.282
Mof_H 	H 	0.2029	0.8786	0.3372	0.371
Mof_H 	H 	0.219	0.8486	0.4068	0.388
Mof_H 	H 	0.2918	0.9287	0.3715	0.399
Mof_C 	C 	0.3919	0.1617	0.9244	-0.125
Mof_H 	H 	0.3646	0.196	0.9275	-0.017
Mof_O 	O 	0.53699	0.18712	0.90864	-0.727
Mof_O 	O 	0.51801	0.29117	0.93797	-0.727
Mof_C 	C 	0.4873	0.2133	0.92652	0.556
Mof_C 	C 	0.2727	0.0824	0.8394	-0.942
Mof_H 	H 	0.2555	0.118	0.8616	0.335
Mof_H 	H 	0.2893	0.1016	0.794	0.252
Mof_H 	H 	0.2265	0.0253	0.8389	0.271
Mof_O 	O 	0.43802	0.02187	0.96835	-0.744
Mof_O 	O 	0.42652	0.84645	0.45033	-0.623
Mof_O 	O 	0.43484	0.95743	0.39508	-0.643
Mof_C 	C 	0.346	0.0859	0.8766	0.137
Mof_C 	C 	0.3907	0.0521	0.8325	-0.243
Mof_H 	H 	0.3563	0.9918	0.8288	-0.022
Mof_H 	H 	0.3998	0.0768	0.7885	-0.019
Mof_H 	H 	0.444	0.0661	0.8524	0.008
Mof_C 	C 	0.3324	0.0952	0.8907	0.324
Mof_C 	C 	0.3616	0.0585	0.8374	-0.484
Mof_H 	H 	0.3795	0.0224	0.8577	0.272
Mof_H 	H 	0.3162	0.0264	0.8066	0.175
Mof_H 	H 	0.4081	0.1032	0.8134	0.222
Mof_C 	C 	0.3398	0.0699	0.9594	-0.135
Mof_H 	H 	0.2941	0.0659	0.9878	0.032
Mof_C 	C 	0.3961	0.1606	0.9354	-0.186
Mof_H 	H 	0.3737	0.1956	0.9529	0.107
Mof_C 	C 	0.2557	0.0973	0.8684	-0.034
Mof_H 	H 	0.2117	0.0411	0.8579	-0.002
Mof_H 	H 	0.2372	0.12	0.9038	-0.103
Mof_H 	H 	0.2689	0.1322	0.829	0.022
Mof_Eu	Eu	0.33333	0.66667	0.6185	2.247
Mof_Eu	Eu	0.66667	0.33333	0.8815	2.247
Mof_Eu	Eu	0.66667	0.33333	0.3815	2.247
Mof_Eu	Eu	0.33333	0.66667	0.1185	2.247
_end
