data_functionalizedCrystal
_audit_creation_method	'EQeq! by Chris Wilmer'
_symmetry_space_group_name_H-M	'P1'
_symmetry_Int_Tables_number	1
_symmetry_cell_setting	triclinic
loop_
_symmetry_equiv_pos_as_xyz
  x,y,z
_cell_length_a	16.9133
_cell_length_b	28.74
_cell_length_c	29.9404
_cell_angle_alpha	118.682
_cell_angle_beta	97.4262
_cell_angle_gamma	90
loop_
_atom_site_label
_atom_site_type_symbol
_atom_site_fract_x
_atom_site_fract_y
_atom_site_fract_z
_atom_site_charge
Mof_Ce	Ce	0.88153	0.28606	0.00546	2.738
Mof_Ce	Ce	0.11847	0.71394	0.99454	2.596
Mof_Ce	Ce	0.54046	0.72916	0.50032	2.758
Mof_Ce	Ce	0.04046	0.77116	0.50032	2.757
Mof_Ce	Ce	0.61927	0.77593	0.9994	2.651
Mof_Ce	Ce	0.76294	0.79579	0.5017	2.72
Mof_Ce	Ce	0.38153	0.7194	0.00546	2.761
Mof_Ce	Ce	0.45954	0.27084	0.49968	2.759
Mof_Ce	Ce	0.26294	0.70591	0.5017	2.72
Mof_Ce	Ce	0.11927	0.22347	0.9994	2.636
Mof_Ce	Ce	0.95954	0.22884	0.49968	2.756
Mof_Ce	Ce	0.38073	0.22407	0.0006	2.793
Mof_Ce	Ce	0.73706	0.29409	0.4983	2.72
Mof_Ce	Ce	0.88073	0.77653	0.0006	2.78
Mof_Ce	Ce	0.23706	0.20421	0.4983	2.72
Mof_Ce	Ce	0.61847	0.2806	0.99454	2.62
Mof_H 	H 	0.8155	0.403	0.618	-0.036
Mof_H 	H 	0.6432	0.6404	0.8784	-0.004
Mof_H 	H 	0.8043	0.0487	0.7644	0.1
Mof_H 	H 	0.7564	0.2102	0.0252	0.112
Mof_H 	H 	0.0468	0.3951	0.657	-0.006
Mof_H 	H 	0.3824	0.5364	0.7904	0.095
Mof_H 	H 	0.4675	0.7277	0.1248	-0.045
Mof_H 	H 	0.8772	0.1146	0.3892	-0.062
Mof_H 	H 	0.4654	0.0512	0.8702	-0.006
Mof_H 	H 	0.3534	0.0197	0.7936	0.096
Mof_H 	H 	0.322	0.7417	0.3788	0.009
Mof_H 	H 	0.8409	0.5574	0.3042	0.086
Mof_H 	H 	0.1006	0.7882	0.3644	0
Mof_H 	H 	0.1235	0.9664	0.685	0.098
Mof_H 	H 	0.8447	0.7804	0.8742	-0.013
Mof_H 	H 	0.5151	0.8035	0.7588	0.096
Mof_H 	H 	0.6553	0.9062	0.1258	-0.009
Mof_H 	H 	0.1432	0.238	0.8784	-0.004
Mof_H 	H 	0.5468	0.2619	0.657	-0.006
Mof_H 	H 	0.0325	0.6029	0.8752	-0.048
Mof_H 	H 	0.4592	0.7312	0.2618	0.1
Mof_H 	H 	0.9723	0.8974	0.1106	-0.055
Mof_H 	H 	0.6218	0.7154	0.8206	0.008
Mof_H 	H 	0.9592	0.5306	0.2618	0.098
Mof_H 	H 	0.8351	0.7727	0.2014	0.093
Mof_H 	H 	0.3782	0.2846	0.1794	0.008
Mof_H 	H 	0.6975	0.7785	0.1642	-0.009
Mof_H 	H 	0.2564	0.815	0.0252	0.113
Mof_H 	H 	0.9532	0.6049	0.343	-0.006
Mof_H 	H 	0.3155	0.215	0.618	-0.037
Mof_H 	H 	0.8693	0.4061	0.1814	0.011
Mof_H 	H 	0.7516	0.6784	0.9798	0.089
Mof_H 	H 	0.6483	0.1222	0.3414	0.007
Mof_H 	H 	0.8045	0.5433	0.754	0.099
Mof_H 	H 	0.3447	0.0938	0.8742	-0.013
Mof_H 	H 	0.1394	0.7237	0.8684	0.005
Mof_H 	H 	0.6228	0.7254	0.6108	-0.062
Mof_H 	H 	0.0151	0.9553	0.7588	0.093
Mof_H 	H 	0.5031	0.5736	0.2668	0.1
Mof_H 	H 	0.3025	0.2215	0.8358	-0.009
Mof_H 	H 	0.9894	0.7915	0.7226	0.095
Mof_H 	H 	0.4849	0.1965	0.2412	0.097
Mof_H 	H 	0.0408	0.4694	0.7382	0.097
Mof_H 	H 	0.8824	0.254	0.7904	0.095
Mof_H 	H 	0.8782	0.8948	0.1794	0.008
Mof_H 	H 	0.9917	0.7167	0.3522	-0.02
Mof_H 	H 	0.2957	0.5504	0.3406	-0.011
Mof_H 	H 	0.0292	0.6658	0.1206	-0.001
Mof_H 	H 	0.4708	0.5452	0.8794	-0.009
Mof_H 	H 	0.9756	0.1155	0.3234	-0.007
Mof_H 	H 	0.0346	0.181	0.1298	0.003
Mof_H 	H 	0.6591	0.2532	0.6958	0.086
Mof_H 	H 	0.5244	0.7921	0.6766	-0.005
Mof_H 	H 	0.198	0.6966	0.6496	0.001
Mof_H 	H 	0.8994	0.2118	0.6356	-0
Mof_H 	H 	0.3625	0.6025	0.8722	-0.005
Mof_H 	H 	0.802	0.3034	0.3504	0.001
Mof_H 	H 	0.6375	0.3975	0.1278	-0.002
Mof_H 	H 	0.2516	0.3014	0.9798	0.086
Mof_H 	H 	0.9654	0.819	0.8702	-0
Mof_H 	H 	0.4756	0.2079	0.3234	-0.005
Mof_H 	H 	0.3409	0.7468	0.3042	0.086
Mof_H 	H 	0.6845	0.785	0.382	-0.037
Mof_H 	H 	0.5106	0.0689	0.2774	0.091
Mof_H 	H 	0.4942	0.1356	0.36	0.014
Mof_H 	H 	0.178	0.3629	0.6212	0.009
Mof_H 	H 	0.1553	0.2196	0.1258	-0.008
Mof_H 	H 	0.1307	0.5939	0.8186	0.01
Mof_H 	H 	0.7957	0.7902	0.3406	-0.011
Mof_H 	H 	0.6563	0.0773	0.787	0.089
Mof_H 	H 	0.678	0.2583	0.6212	0.009
Mof_H 	H 	0.6466	0.9803	0.2064	0.097
Mof_H 	H 	0.1563	0.7097	0.787	0.088
Mof_H 	H 	0.1957	0.9513	0.2356	0.102
Mof_H 	H 	0.3606	0.8553	0.1316	0.004
Mof_H 	H 	0.3081	0.7103	0.8392	-0.005
Mof_H 	H 	0.6734	0.3055	0.3796	-0.032
Mof_H 	H 	0.4723	0.2132	0.1106	-0.052
Mof_H 	H 	0.1375	0.7303	0.1278	-0.001
Mof_H 	H 	0.6176	0.4636	0.2096	0.094
Mof_H 	H 	0.7436	0.185	0.9748	0.095
Mof_H 	H 	0.3266	0.6945	0.6204	-0.032
Mof_H 	H 	0.0106	0.2085	0.2774	0.096
Mof_H 	H 	0.4969	0.4264	0.7332	0.099
Mof_H 	H 	0.6957	0.2843	0.2356	0.101
Mof_H 	H 	0.1591	0.4426	0.6958	0.086
Mof_H 	H 	0.3772	0.2746	0.3892	-0.062
Mof_H 	H 	0.6307	0.2247	0.8186	0.011
Mof_H 	H 	0.2436	0.7898	0.9748	0.092
Mof_H 	H 	0.5346	0.9488	0.1298	-0.002
Mof_H 	H 	0.3765	0.2814	0.315	0.099
Mof_H 	H 	0.8625	0.2697	0.8722	-0.004
Mof_H 	H 	0.3437	0.9227	0.213	0.09
Mof_H 	H 	0.1228	0.8854	0.6108	-0.063
Mof_H 	H 	0.9675	0.3971	0.1248	-0.05
Mof_H 	H 	0.1218	0.1052	0.8206	0.007
Mof_H 	H 	0.3693	0.7753	0.1814	0.012
Mof_H 	H 	0.1483	0.2192	0.3414	0.007
Mof_H 	H 	0.8517	0.7808	0.6586	0.007
Mof_H 	H 	0.6394	0.1447	0.8684	0.004
Mof_H 	H 	0.1649	0.2273	0.7986	0.093
Mof_H 	H 	0.9969	0.3068	0.7332	0.101
Mof_H 	H 	0.9708	0.3342	0.8794	-0.005
Mof_H 	H 	0.8025	0.6143	0.8358	-0.009
Mof_H 	H 	0.698	0.953	0.6496	0.002
Mof_H 	H 	0.7484	0.6986	0.0202	0.112
Mof_H 	H 	0.822	0.6371	0.3788	0.009
Mof_H 	H 	0.3568	0.3596	0.1216	-0.004
Mof_H 	H 	0.8606	0.2763	0.1316	0.005
Mof_H 	H 	0.6235	0.7186	0.685	0.099
Mof_H 	H 	0.4532	0.7381	0.343	-0.006
Mof_H 	H 	0.8534	0.7739	0.7936	0.097
Mof_H 	H 	0.5408	0.2688	0.7382	0.099
Mof_H 	H 	0.0244	0.8845	0.6766	-0.007
Mof_H 	H 	0.5277	0.7868	0.8894	-0.051
Mof_H 	H 	0.3045	0.2107	0.754	0.098
Mof_H 	H 	0.1466	0.2261	0.2064	0.096
Mof_H 	H 	0.9849	0.0447	0.2412	0.092
Mof_H 	H 	0.1975	0.3857	0.1642	-0.009
Mof_H 	H 	0.3043	0.7157	0.7644	0.1
Mof_H 	H 	0.1955	0.4567	0.246	0.099
Mof_H 	H 	0.2043	0.2098	0.6594	-0.011
Mof_H 	H 	0.5083	0.3645	0.6478	-0.019
Mof_H 	H 	0.5058	0.8644	0.64	0.014
Mof_H 	H 	0.6649	0.5713	0.7986	0.094
Mof_H 	H 	0.3517	0.8778	0.6586	0.007
Mof_H 	H 	0.0058	0.7756	0.64	0.012
Mof_H 	H 	0.8437	0.2903	0.213	0.088
Mof_H 	H 	0.302	0.047	0.3504	0.001
Mof_H 	H 	0.0277	0.1026	0.8894	-0.054
Mof_H 	H 	0.0083	0.2833	0.6478	-0.019
Mof_H 	H 	0.2484	0.3216	0.0202	0.114
Mof_H 	H 	0.0031	0.6932	0.2668	0.102
Mof_H 	H 	0.5292	0.4548	0.1206	-0.005
Mof_H 	H 	0.1176	0.746	0.2096	0.095
Mof_H 	H 	0.1845	0.597	0.382	-0.036
Mof_H 	H 	0.3351	0.4287	0.2014	0.094
Mof_H 	H 	0.8081	0.1289	0.8392	-0.005
Mof_H 	H 	0.9942	0.2244	0.36	0.011
Mof_H 	H 	0.5325	0.2723	0.8752	-0.044
Mof_H 	H 	0.6919	0.2897	0.1608	-0.005
Mof_H 	H 	0.8765	0.0336	0.315	0.097
Mof_H 	H 	0.7043	0.4496	0.6594	-0.011
Mof_H 	H 	0.1919	0.8711	0.1608	-0.006
Mof_H 	H 	0.3994	0.4238	0.6356	-0
Mof_H 	H 	0.8568	0.762	0.1216	-0.003
Mof_H 	H 	0.1734	0.0741	0.3796	-0.032
Mof_H 	H 	0.6006	0.5762	0.3644	-0
Mof_H 	H 	0.8266	0.9259	0.6204	-0.032
Mof_H 	H 	0.4917	0.6355	0.3522	-0.019
Mof_H 	H 	0.6955	0.7893	0.246	0.099
Mof_H 	H 	0.4894	0.9311	0.7226	0.092
Mof_C 	C 	0.8457	0.2837	0.3358	0.125
Mof_C 	C 	0.8051	0.7631	0.8	-0.163
Mof_C 	C 	0.5823	0.2481	0.266	0.09
Mof_C 	C 	0.1705	0.9476	0.679	-0.197
Mof_C 	C 	0.9861	0.5906	0.85	0.157
Mof_C 	C 	0.6113	0.6077	0.863	0.128
Mof_C 	C 	0.7389	0.744	0.7628	0.082
Mof_C 	C 	0.0828	0.7524	0.7316	0.088
Mof_C 	C 	0.042	0.7628	0.6578	0.105
Mof_C 	C 	0.2431	0.60286	0.85292	-0.207
Mof_C 	C 	0.3457	0.0521	0.3358	0.124
Mof_C 	C 	0.4268	0.97615	0.2165	0.083
Mof_C 	C 	0.4155	0.752	0.7832	0.089
Mof_C 	C 	0.763	0.12804	0.37208	-0.236
Mof_C 	C 	0.1113	0.2553	0.863	0.125
Mof_C 	C 	0.8038	0.7682	0.664	0.133
Mof_C 	C 	0.0741	0.1017	0.3596	-0.251
Mof_C 	C 	0.7813	0.8501	0.0926	0.508
Mof_C 	C 	0.5483	0.10527	0.87714	-0.208
Mof_C 	C 	0.4172	0.0208	0.2684	0.084
Mof_C 	C 	0.2709	0.4759	0.709	0.086
Mof_C 	C 	0.1069	0.7403	0.8526	0.103
Mof_C 	C 	0.5773	0.25767	0.08214	0.519
Mof_C 	C 	0.9172	0.2476	0.2684	0.089
Mof_C 	C 	0.8001	0.7666	0.8476	0.122
Mof_C 	C 	0.1181	0.7329	0.805	-0.148
Mof_C 	C 	0.7391	0.76313	0.58186	0.49
Mof_C 	C 	0.1698	0.7495	0.2026	-0.153
Mof_C 	C 	0.4955	0.2559	0.7122	-0.182
Mof_C 	C 	0.1697	0.8995	0.6354	0.156
Mof_C 	C 	0.4477	0.39826	0.11272	-0.23
Mof_C 	C 	0.2813	0.2425	0.0926	0.507
Mof_C 	C 	0.2737	0.73785	0.0945	0.486
Mof_C 	C 	0.5784	0.7592	0.2302	0.088
Mof_C 	C 	0.0738	0.5196	0.2808	0.101
Mof_C 	C 	0.4074	0.5243	0.2566	0.089
Mof_C 	C 	0.6475	0.2736	0.166	0.142
Mof_C 	C 	0.7569	0.39714	0.14708	-0.202
Mof_C 	C 	0.458	0.105	0.3422	0.101
Mof_C 	C 	0.3887	0.3923	0.137	0.128
Mof_C 	C 	0.5139	0.7406	0.15	0.154
Mof_C 	C 	0.1094	0.246	0.646	-0.27
Mof_C 	C 	0.2091	0.4374	0.6834	-0.15
Mof_C 	C 	0.2187	0.1499	0.9074	0.514
Mof_C 	C 	0.4517	0.89473	0.12286	-0.206
Mof_C 	C 	0.3302	0.5469	0.7974	-0.156
Mof_C 	C 	0.3508	0.2242	0.7794	-0.175
Mof_C 	C 	0.0773	0.82447	0.08214	0.519
Mof_C 	C 	0.0045	0.5437	0.2878	-0.178
Mof_C 	C 	0.4861	0.2594	0.85	0.151
Mof_C 	C 	0.4184	0.4805	0.2048	0.091
Mof_C 	C 	0.8887	0.7447	0.137	0.125
Mof_C 	C 	0.6543	0.9479	0.6642	0.124
Mof_C 	C 	0.6076	0.9012	0.6354	-0.213
Mof_C 	C 	0.3295	0.2686	0.321	-0.197
Mof_C 	C 	0.3906	0.6	0.354	-0.27
Mof_C 	C 	0.3506	0.4264	0.649	0.115
Mof_C 	C 	0.5786	0.75836	0.08972	0.53
Mof_C 	C 	0.93	0.3902	0.6292	-0.255
Mof_C 	C 	0.8819	0.2671	0.195	-0.147
Mof_C 	C 	0.7198	0.2487	0.639	0.108
Mof_C 	C 	0.081	0.3815	0.14	-0.252
Mof_C 	C 	0.7382	0.745	0.7132	0.101
Mof_C 	C 	0.4259	0.7421	0.6404	-0.251
Mof_C 	C 	0.737	0.75596	0.62792	-0.237
Mof_C 	C 	0.4216	0.2408	0.7698	0.087
Mof_C 	C 	0.4614	0.5687	0.2828	-0.177
Mof_C 	C 	0.2609	0.23687	0.41814	0.49
Mof_C 	C 	0.1076	0.7342	0.6354	-0.214
Mof_C 	C 	0.4262	0.2388	0.7192	0.102
Mof_C 	C 	0.8181	0.4197	0.187	0.11
Mof_C 	C 	0.7187	0.7575	0.9074	0.513
Mof_C 	C 	0.5045	0.7441	0.2878	-0.182
Mof_C 	C 	0.8931	0.2597	0.1474	0.103
Mof_C 	C 	0.5386	0.4313	0.7172	-0.177
Mof_C 	C 	0.3181	0.7673	0.187	0.11
Mof_C 	C 	0.2569	0.74994	0.14708	-0.201
Mof_C 	C 	0.7802	0.6097	0.361	0.108
Mof_C 	C 	0.9614	0.7141	0.2828	-0.182
Mof_C 	C 	0.8525	0.1076	0.834	0.14
Mof_C 	C 	0.2382	0.9682	0.7132	0.1
Mof_C 	C 	0.4177	0.7519	0.734	0.089
Mof_C 	C 	0.6612	0.445	0.6746	0.144
Mof_C 	C 	0.8511	0.5982	0.8264	0.146
Mof_C 	C 	0.1184	0.2281	0.5904	0.649
Mof_C 	C 	0.1543	0.7163	0.6642	0.125
Mof_C 	C 	0.2909	0.754	0.3166	-0.15
Mof_C 	C 	0.7648	0.2372	0.7596	0.079
Mof_C 	C 	0.0483	0.77187	0.87714	-0.204
Mof_C 	C 	0.9259	0.8983	0.6404	-0.252
Mof_C 	C 	0.0057	0.79695	0.8533	0.105
Mof_C 	C 	0.5816	0.5195	0.7952	0.091
Mof_C 	C 	0.6497	0.2708	0.21	-0.177
Mof_C 	C 	0.6252	0.5665	0.816	-0.169
Mof_C 	C 	0.6343	0.2831	0.3512	0.157
Mof_C 	C 	0.8508	0.5552	0.7794	-0.176
Mof_C 	C 	0.7609	0.18127	0.41814	0.489
Mof_C 	C 	0.7709	0.2331	0.709	0.086
Mof_C 	C 	0.6698	0.4531	0.2026	-0.154
Mof_C 	C 	0.57	0.761	0.3708	-0.255
Mof_C 	C 	0.8295	0.0524	0.321	-0.195
Mof_C 	C 	0.4332	0.73116	0.58732	0.545
Mof_C 	C 	0.6949	0.9631	0.2	-0.161
Mof_C 	C 	0.3632	0.2255	0.6422	0.158
Mof_C 	C 	0.7611	0.9812	0.2372	0.085
Mof_C 	C 	0.2648	0.5224	0.7596	0.079
Mof_C 	C 	0.2263	0.64335	0.9055	0.492
Mof_C 	C 	0.6693	0.72882	0.81564	0.123
Mof_C 	C 	0.1475	0.8924	0.166	0.143
Mof_C 	C 	0.1949	0.2369	0.2	-0.159
Mof_C 	C 	0.5523	0.60174	0.88728	-0.233
Mof_C 	C 	0.1343	0.0681	0.3512	0.157
Mof_C 	C 	0.5738	0.7612	0.2808	0.102
Mof_C 	C 	0.0317	0.77683	0.92786	0.508
Mof_C 	C 	0.9332	0.85616	0.58732	0.545
Mof_C 	C 	0.419	0.2415	0.86	-0.249
Mof_C 	C 	0.4329	0.2381	0.5792	0.554
Mof_C 	C 	0.6494	0.5736	0.351	0.116
Mof_C 	C 	0.4214	0.24164	0.91028	0.527
Mof_C 	C 	0.6181	0.0721	0.805	-0.15
Mof_C 	C 	0.982	0.9074	0.6814	0.136
Mof_C 	C 	0.6812	0.4133	0.1548	0.11
Mof_C 	C 	0.6819	0.2327	0.813	0.111
Mof_C 	C 	0.9943	0.20305	0.1467	0.103
Mof_C 	C 	0.1612	0.2296	0.6746	0.144
Mof_C 	C 	0.0111	0.31177	0.86294	0.114
Mof_C 	C 	0.3525	0.7264	0.834	0.14
Mof_C 	C 	0.7909	0.5626	0.3166	-0.15
Mof_C 	C 	0.9184	0.7243	0.2048	0.089
Mof_C 	C 	0.1913	0.76075	0.4255	0.554
Mof_C 	C 	0.1812	0.7415	0.1548	0.11
Mof_C 	C 	0.5224	0.2197	0.2702	-0.173
Mof_C 	C 	0.9535	0.7268	0.3328	0.16
Mof_C 	C 	0.0139	0.4094	0.15	0.16
Mof_C 	C 	0.8303	0.1005	0.3646	0.155
Mof_C 	C 	0.0321	0.7717	0.7066	-0.157
Mof_C 	C 	0.0845	0.9688	0.2168	0.092
Mof_C 	C 	0.8657	0.9319	0.6488	0.157
Mof_C 	C 	0.3001	0.081	0.8476	0.122
Mof_C 	C 	0.7926	0.237	0.622	-0.213
Mof_C 	C 	0.9776	0.9495	0.7298	-0.169
Mof_C 	C 	0.1497	0.9392	0.21	-0.178
Mof_C 	C 	0.6705	0.7314	0.679	-0.197
Mof_C 	C 	0.542	0.895	0.6578	0.102
Mof_C 	C 	0.4978	0.2535	0.6648	0.135
Mof_C 	C 	0.8302	0.2505	0.7974	-0.156
Mof_C 	C 	0.7302	0.74969	0.85538	-0.221
Mof_C 	C 	0.3819	0.9279	0.195	-0.151
Mof_C 	C 	0.4889	0.44883	0.13706	0.121
Mof_C 	C 	0.5317	0.15103	0.92786	0.516
Mof_C 	C 	0.6697	0.7359	0.6354	0.156
Mof_C 	C 	0.2611	0.256	0.2372	0.082
Mof_C 	C 	0.9477	0.71446	0.11272	-0.226
Mof_C 	C 	0.7074	0.615	0.378	-0.213
Mof_C 	C 	0.5828	0.9792	0.7316	0.087
Mof_C 	C 	0.2389	0.0188	0.7628	0.082
Mof_C 	C 	0.6492	0.7758	0.2206	-0.175
Mof_C 	C 	0.2391	0.81873	0.58186	0.49
Mof_C 	C 	0.9955	0.4563	0.7122	-0.178
Mof_C 	C 	0.9679	0.2283	0.2934	-0.158
Mof_C 	C 	0.5321	0.9349	0.7066	-0.151
Mof_C 	C 	0.967	0.71119	0.06378	0.554
Mof_C 	C 	0.3303	0.2641	0.3646	0.156
Mof_C 	C 	0.7618	0.0318	0.2868	0.097
Mof_C 	C 	0.5732	0.02385	0.7835	0.08
Mof_C 	C 	0.4776	0.7803	0.7298	-0.173
Mof_C 	C 	0.1693	0.08682	0.81564	0.123
Mof_C 	C 	0.6184	0.3623	0.5904	0.649
Mof_C 	C 	0.9188	0.12416	0.87072	-0.249
Mof_C 	C 	0.3038	0.8958	0.664	0.133
Mof_C 	C 	0.7291	0.5241	0.291	0.087
Mof_C 	C 	0.8503	0.0608	0.79	-0.176
Mof_C 	C 	0.8188	0.2585	0.8452	0.113
Mof_C 	C 	0.1489	0.4018	0.1736	0.148
Mof_C 	C 	0.9155	0.0312	0.7832	0.088
Mof_C 	C 	0.3748	0.4335	0.184	-0.168
Mof_C 	C 	0.43	0.239	0.6292	-0.255
Mof_C 	C 	0.1494	0.7774	0.351	0.116
Mof_C 	C 	0.6489	0.7718	0.1736	0.146
Mof_C 	C 	0.2291	0.7669	0.291	0.087
Mof_C 	C 	0.4679	0.0651	0.2934	-0.149
Mof_C 	C 	0.1962	0.2318	0.336	0.133
Mof_C 	C 	0.7431	0.25006	0.85292	-0.206
Mof_C 	C 	0.8816	0.7719	0.4096	0.65
Mof_C 	C 	0.4188	0.74656	0.87072	-0.248
Mof_C 	C 	0.5926	0.4757	0.7434	0.089
Mof_C 	C 	0.9683	0.22317	0.07214	0.507
Mof_C 	C 	0.6962	0.1042	0.336	0.132
Mof_C 	C 	0.0386	0.2859	0.7172	-0.18
Mof_C 	C 	0.0022	0.5887	0.3352	0.136
Mof_C 	C 	0.9074	0.7323	0.2566	0.091
Mof_C 	C 	0.0465	0.2732	0.6672	0.159
Mof_C 	C 	0.1368	0.5833	0.3578	0.158
Mof_C 	C 	0.6368	0.7745	0.3578	0.158
Mof_C 	C 	0.9517	0.22813	0.12286	-0.201
Mof_C 	C 	0.5177	0.22796	0.13652	0.154
Mof_C 	C 	0.0784	0.471	0.2302	0.089
Mof_C 	C 	0.7698	0.89431	0.14462	-0.216
Mof_C 	C 	0.0668	0.14384	0.41268	0.545
Mof_C 	C 	0.2802	0.7513	0.361	0.108
Mof_C 	C 	0.9823	0.09144	0.86348	0.155
Mof_C 	C 	0.0786	0.33136	0.08972	0.53
Mof_C 	C 	0.3051	0.0369	0.8	-0.163
Mof_C 	C 	0.0926	0.2677	0.7434	0.09
Mof_C 	C 	0.8087	0.23925	0.5745	0.554
Mof_C 	C 	0.1999	0.2334	0.1524	0.118
Mof_C 	C 	0.4535	0.606	0.3328	0.158
Mof_C 	C 	0.6999	0.919	0.1524	0.119
Mof_C 	C 	0.6094	0.4	0.646	-0.269
Mof_C 	C 	0.0523	0.28554	0.88728	-0.229
Mof_C 	C 	0.9262	0.4804	0.7192	0.101
Mof_C 	C 	0.919	0.6185	0.86	-0.251
Mof_C 	C 	0.467	0.35259	0.06378	0.562
Mof_C 	C 	0.018	0.0926	0.3186	0.135
Mof_C 	C 	0.9889	0.68823	0.13706	0.113
Mof_C 	C 	0.4943	0.94365	0.1467	0.114
Mof_C 	C 	0.8388	0.7704	0.3254	0.145
Mof_C 	C 	0.3924	0.0988	0.3646	-0.213
Mof_C 	C 	0.7091	0.246	0.6834	-0.15
Mof_C 	C 	0.0812	0.87584	0.12928	-0.251
Mof_C 	C 	0.8632	0.4167	0.6422	0.158
Mof_C 	C 	0.2698	0.25031	0.14462	-0.215
Mof_C 	C 	0.9227	0.17553	0.91786	0.515
Mof_C 	C 	0.482	0.774	0.6814	0.134
Mof_C 	C 	0.0671	0.6589	0.4208	0.554
Mof_C 	C 	0.8748	0.7505	0.184	-0.166
Mof_C 	C 	0.8786	0.2764	0.4164	0.53
Mof_C 	C 	0.5111	0.55117	0.86294	0.121
Mof_C 	C 	0.5668	0.26884	0.41268	0.545
Mof_C 	C 	0.3188	0.5867	0.8452	0.113
Mof_C 	C 	0.2074	0.763	0.378	-0.213
Mof_C 	C 	0.4823	0.77204	0.86348	0.151
Mof_C 	C 	0.0732	0.75965	0.7835	0.079
Mof_C 	C 	0.9216	0.529	0.7698	0.088
Mof_C 	C 	0.6069	0.1123	0.8526	0.107
Mof_C 	C 	0.3388	0.555	0.3254	0.144
Mof_C 	C 	0.581	0.7585	0.14	-0.25
Mof_C 	C 	0.0823	0.0179	0.266	0.086
Mof_C 	C 	0.7263	0.26215	0.9055	0.492
Mof_C 	C 	0.3931	0.8877	0.1474	0.108
Mof_C 	C 	0.5671	0.7619	0.4208	0.554
Mof_C 	C 	0.958	0.2372	0.3422	0.106
Mof_C 	C 	0.4683	0.84897	0.07214	0.516
Mof_C 	C 	0.9329	0.3411	0.5792	0.554
Mof_C 	C 	0.3307	0.27118	0.18436	0.121
Mof_C 	C 	0.9177	0.9821	0.734	0.089
Mof_C 	C 	0.2926	0.385	0.622	-0.213
Mof_C 	C 	0.8906	0.754	0.354	-0.271
Mof_C 	C 	0.033	0.28881	0.93622	0.555
Mof_C 	C 	0.2352	0.7628	0.2404	0.079
Mof_C 	C 	0.5022	0.7465	0.3352	0.136
Mof_C 	C 	0.1819	0.5803	0.813	0.111
Mof_C 	C 	0.5057	0.05635	0.8533	0.113
Mof_C 	C 	0.2198	0.3903	0.639	0.108
Mof_C 	C 	0.8506	0.2226	0.649	0.115
Mof_C 	C 	0.2302	0.10569	0.85538	-0.221
Mof_C 	C 	0.7737	0.35665	0.0945	0.487
Mof_C 	C 	0.518	0.226	0.3186	0.134
Mof_C 	C 	0.3657	0.7169	0.6488	0.157
Mof_C 	C 	0.1492	0.4448	0.2206	-0.176
Mof_C 	C 	0.2618	0.255	0.2868	0.101
Mof_C 	C 	0.8307	0.91318	0.18436	0.122
Mof_C 	C 	0.3087	0.33525	0.5745	0.554
Mof_C 	C 	0.263	0.24404	0.37208	-0.237
Mof_C 	C 	0.6214	0.86	0.5836	0.529
Mof_C 	C 	0.5465	0.394	0.6672	0.157
Mof_C 	C 	0.5741	0.2579	0.3596	-0.251
Mof_C 	C 	0.0177	0.90856	0.13652	0.159
Mof_C 	C 	0.3786	0.14	0.4164	0.529
Mof_C 	C 	0.7352	0.4776	0.2404	0.079
Mof_C 	C 	0.3511	0.2282	0.8264	0.145
Mof_C 	C 	0.533	0.64741	0.93622	0.562
Mof_C 	C 	0.4227	0.74233	0.91786	0.515
Mof_C 	C 	0.9214	0.66864	0.91028	0.526
Mof_C 	C 	0.1252	0.2495	0.816	-0.167
Mof_C 	C 	0.5845	0.248	0.2168	0.09
Mof_C 	C 	0.0224	0.0505	0.2702	-0.167
Mof_C 	C 	0.3503	0.7292	0.79	-0.176
Mof_C 	C 	0.0816	0.2757	0.7952	0.089
Mof_C 	C 	0.1214	0.7236	0.5836	0.53
Mof_C 	C 	0.5812	0.25344	0.12928	-0.249
Mof_C 	C 	0.237	0.87196	0.62792	-0.237
Mof_C 	C 	0.9978	0.4113	0.6648	0.135
Mof_C 	C 	0.07	0.6098	0.3708	-0.255
Mof_C 	C 	0.8924	0.2658	0.3646	-0.215
Mof_C 	C 	0.3816	0.6377	0.4096	0.649
Mof_C 	C 	0.6913	0.66475	0.4255	0.554
Mof_C 	C 	0.9268	0.24035	0.2165	0.079
Mof_N 	N 	0.3456	0.51729	0.27718	-0.15
Mof_N 	N 	0.0175	0.79215	0.8075	-0.142
Mof_N 	N 	0.9825	0.20785	0.1925	-0.141
Mof_N 	N 	0.52	0.2239	0.1794	-0.153
Mof_N 	N 	0.1582	0.777	0.3062	-0.142
Mof_N 	N 	0.1443	0.72397	0.71094	-0.144
Mof_N 	N 	0.8099	0.4604	0.234	-0.139
Mof_N 	N 	0.5252	0.51092	0.81784	-0.149
Mof_N 	N 	0.1948	0.2364	0.2938	-0.149
Mof_N 	N 	0.6582	0.5292	0.3062	-0.142
Mof_N 	N 	0.1544	0.24011	0.72282	-0.15
Mof_N 	N 	0.3557	0.01303	0.28906	-0.144
Mof_N 	N 	0.5133	0.741	0.1952	-0.154
Mof_N 	N 	0.3593	0.722	0.6942	-0.154
Mof_N 	N 	0.4825	0.98465	0.1925	-0.142
Mof_N 	N 	0.6544	0.48271	0.72282	-0.15
Mof_N 	N 	0.6407	0.278	0.3058	-0.154
Mof_N 	N 	0.6716	0.72591	0.76942	-0.144
Mof_N 	N 	0.8593	0.9722	0.6942	-0.153
Mof_N 	N 	0.98	0.0445	0.8206	-0.154
Mof_N 	N 	0.5175	0.01535	0.8075	-0.143
Mof_N 	N 	0.8456	0.75989	0.27718	-0.15
Mof_N 	N 	0.6443	0.98697	0.71094	-0.144
Mof_N 	N 	0.1901	0.5396	0.766	-0.139
Mof_N 	N 	0.8557	0.27603	0.28906	-0.144
Mof_N 	N 	0.0133	0.4542	0.1952	-0.154
Mof_N 	N 	0.4867	0.259	0.8048	-0.154
Mof_N 	N 	0.02	0.9555	0.1794	-0.153
Mof_N 	N 	0.6901	0.2264	0.766	-0.139
Mof_N 	N 	0.0252	0.30692	0.81784	-0.148
Mof_N 	N 	0.6948	0.0574	0.2938	-0.15
Mof_N 	N 	0.9748	0.69308	0.18216	-0.147
Mof_N 	N 	0.8052	0.7636	0.7062	-0.15
Mof_N 	N 	0.1407	0.0278	0.3058	-0.153
Mof_N 	N 	0.8418	0.223	0.6938	-0.142
Mof_N 	N 	0.9867	0.5458	0.8048	-0.154
Mof_N 	N 	0.3284	0.27409	0.23058	-0.143
Mof_N 	N 	0.3418	0.4708	0.6938	-0.142
Mof_N 	N 	0.3052	0.9426	0.7062	-0.15
Mof_N 	N 	0.4748	0.48908	0.18216	-0.148
Mof_N 	N 	0.48	0.7761	0.8206	-0.153
Mof_N 	N 	0.3603	0.2261	0.6868	-0.159
Mof_N 	N 	0.1397	0.5393	0.3132	-0.158
Mof_N 	N 	0.1716	0.04351	0.76942	-0.144
Mof_N 	N 	0.3099	0.7736	0.234	-0.139
Mof_N 	N 	0.8284	0.95649	0.23058	-0.144
Mof_N 	N 	0.8603	0.4607	0.6868	-0.158
Mof_N 	N 	0.6397	0.7739	0.3132	-0.159
Mof_O 	O 	0.3832	0.70053	0.55066	-0.695
Mof_O 	O 	0.4628	0.64731	0.94602	-0.606
Mof_O 	O 	0.6292	0.77446	0.45192	-0.744
Mof_O 	O 	0.8039	0.78327	0.57894	-0.524
Mof_O 	O 	0.86	0.20092	0.92464	-0.571
Mof_O 	O 	0.436	0.17321	0.44402	-0.587
Mof_O 	O 	0.7233	0.34806	0.05532	-0.643
Mof_O 	O 	0.9612	0.78895	0.9399	-0.57
Mof_O 	O 	0.5036	0.74512	0.42624	-0.572
Mof_O 	O 	0.8832	0.85013	0.55066	-0.695
Mof_O 	O 	0.4867	0.75598	0.95016	-0.692
Mof_O 	O 	0.1868	0.22298	0.57836	-0.652
Mof_O 	O 	0.4939	0.755	0.5834	-0.591
Mof_O 	O 	0.1961	0.21673	0.42106	-0.524
Mof_O 	O 	0.2233	0.70726	0.05532	-0.639
Mof_O 	O 	0.0372	0.70129	0.05398	-0.574
Mof_O 	O 	0.8589	0.69193	0.91906	-0.587
Mof_O 	O 	0.3708	0.22554	0.54808	-0.744
Mof_O 	O 	0.9939	0.8284	0.5834	-0.59
Mof_O 	O 	0.8447	0.82741	0.08962	-0.586
Mof_O 	O 	0.8779	0.22965	0.5635	-0.618
Mof_O 	O 	0.9628	0.29871	0.94602	-0.599
Mof_O 	O 	0.3221	0.24906	0.45132	-0.724
Mof_O 	O 	0.6411	0.77287	0.08094	-0.569
Mof_O 	O 	0.1779	0.79774	0.54868	-0.724
Mof_O 	O 	0.36	0.72372	0.92464	-0.575
Mof_O 	O 	0.3779	0.33385	0.5635	-0.618
Mof_O 	O 	0.1612	0.66459	0.90798	-0.575
Mof_O 	O 	0.2276	0.21437	0.05554	-0.665
Mof_O 	O 	0.5872	0.1848	0.9548	-0.604
Mof_O 	O 	0.8132	0.77702	0.42164	-0.652
Mof_O 	O 	0.8221	0.20226	0.45132	-0.724
Mof_O 	O 	0.1168	0.14987	0.44934	-0.695
Mof_O 	O 	0.4612	0.15095	0.9399	-0.576
Mof_O 	O 	0.1888	0.70826	0.57052	-0.597
Mof_O 	O 	0.0061	0.1716	0.4166	-0.589
Mof_O 	O 	0.588	0.68134	0.96248	-0.635
Mof_O 	O 	0.8112	0.29174	0.42948	-0.597
Mof_O 	O 	0.4128	0.8152	0.0452	-0.604
Mof_O 	O 	0.9422	0.77956	0.43892	-0.706
Mof_O 	O 	0.7724	0.78563	0.94446	-0.694
Mof_O 	O 	0.0142	0.31457	0.05774	-0.674
Mof_O 	O 	0.5142	0.74317	0.05774	-0.679
Mof_O 	O 	0.0578	0.22044	0.56108	-0.705
Mof_O 	O 	0.3447	0.26221	0.08962	-0.587
Mof_O 	O 	0.412	0.31866	0.03752	-0.635
Mof_O 	O 	0.5133	0.24402	0.04984	-0.691
Mof_O 	O 	0.75	0.7244	-0	-0.584
Mof_O 	O 	0.4964	0.25488	0.57376	-0.572
Mof_O 	O 	0.6168	0.29947	0.44934	-0.695
Mof_O 	O 	0.8388	0.33541	0.09202	-0.583
Mof_O 	O 	0.2767	0.65194	0.94468	-0.67
Mof_O 	O 	0.2476	0.748	0.4474	-0.607
Mof_O 	O 	0.5388	0.84905	0.0601	-0.551
Mof_O 	O 	0.0133	0.80582	0.04984	-0.686
Mof_O 	O 	0.64	0.27628	0.07536	-0.554
Mof_O 	O 	0.25	0.7677	-0	-0.582
Mof_O 	O 	0.9858	0.68543	0.94226	-0.676
Mof_O 	O 	0.9964	0.31888	0.57376	-0.572
Mof_O 	O 	0.5578	0.34064	0.56108	-0.706
Mof_O 	O 	0.4858	0.25683	0.94226	-0.681
Mof_O 	O 	0.5372	0.35269	0.05398	-0.581
Mof_O 	O 	0.5997	0.23051	0.49642	-0.428
Mof_O 	O 	0.75	0.2323	-0	-0.587
Mof_O 	O 	0.912	0.71886	0.03752	-0.633
Mof_O 	O 	0.14	0.79908	0.07536	-0.551
Mof_O 	O 	0.1553	0.17259	0.91038	-0.579
Mof_O 	O 	0.2524	0.3006	0.5526	-0.607
Mof_O 	O 	0.8708	0.32254	0.54808	-0.744
Mof_O 	O 	0.6888	0.86226	0.57052	-0.597
Mof_O 	O 	0.0036	0.68112	0.42624	-0.572
Mof_O 	O 	0.9128	0.23	0.0452	-0.602
Mof_O 	O 	0.3388	0.75661	0.09202	-0.584
Mof_O 	O 	0.7476	0.6994	0.4474	-0.607
Mof_O 	O 	0.1411	0.30807	0.08094	-0.567
Mof_O 	O 	0.3132	0.64462	0.42164	-0.652
Mof_O 	O 	0.6868	0.35538	0.57836	-0.652
Mof_O 	O 	0.1221	0.77035	0.4365	-0.618
Mof_O 	O 	0.1292	0.67746	0.45192	-0.744
Mof_O 	O 	0.088	0.28114	0.96248	-0.633
Mof_O 	O 	0.25	0.2756	-0	-0.581
Mof_O 	O 	0.936	0.27081	0.44402	-0.588
Mof_O 	O 	0.6612	0.24339	0.90798	-0.575
Mof_O 	O 	0.0997	0.26591	0.49642	-0.428
Mof_O 	O 	0.064	0.72919	0.55598	-0.588
Mof_O 	O 	0.7767	0.29274	0.94468	-0.666
Mof_O 	O 	0.4003	0.76949	0.50358	-0.428
Mof_O 	O 	0.7276	0.84117	0.05554	-0.668
Mof_O 	O 	0.3039	0.79567	0.57894	-0.524
Mof_O 	O 	0.6221	0.66615	0.4365	-0.618
Mof_O 	O 	0.3589	0.22713	0.91906	-0.59
Mof_O 	O 	0.6779	0.75094	0.54868	-0.724
Mof_O 	O 	0.9867	0.19418	0.95016	-0.687
Mof_O 	O 	0.564	0.82679	0.55598	-0.587
Mof_O 	O 	0.6961	0.20433	0.42106	-0.524
Mof_O 	O 	0.6553	0.73779	0.91038	-0.579
Mof_O 	O 	0.3112	0.13774	0.42948	-0.597
Mof_O 	O 	0.4422	0.65936	0.43892	-0.706
Mof_O 	O 	0.2724	0.15883	0.94446	-0.696
Mof_O 	O 	0.9003	0.73409	0.50358	-0.428
Mof_O 	O 	0.0872	0.77	0.9548	-0.601
Mof_O 	O 	0.0388	0.21105	0.0601	-0.545
Mof_O 	O 	0.7524	0.252	0.5526	-0.607
Mof_O 	O 	0.5061	0.245	0.4166	-0.591
_end
