data_functionalizedCrystal
_audit_creation_method	'EQeq! by Chris Wilmer'
_symmetry_space_group_name_H-M	'P1'
_symmetry_Int_Tables_number	1
_symmetry_cell_setting	triclinic
loop_
_symmetry_equiv_pos_as_xyz
  x,y,z
_cell_length_a	34.814
_cell_length_b	14.9103
_cell_length_c	30.057
_cell_angle_alpha	90
_cell_angle_beta	101.5
_cell_angle_gamma	90
loop_
_atom_site_label
_atom_site_type_symbol
_atom_site_fract_x
_atom_site_fract_y
_atom_site_fract_z
_atom_site_charge
Mof_Zn	Zn	0.12962	0.10469	0.80386	1.153
Mof_Zn	Zn	0.91995	0.83147	0.65813	1.162
Mof_Zn	Zn	0.82627	0.06432	0.47708	1.149
Mof_Zn	Zn	0.62889	0.8055	0.30203	1.167
Mof_Zn	Zn	0.42184	0.07343	0.16046	1.157
Mof_I 	I 	0.6152	0.95102	0.3363	-0.354
Mof_I 	I 	0.65229	0.78309	0.22902	-0.371
Mof_I 	I 	0.38533	0.96113	0.19928	-0.336
Mof_I 	I 	0.47535	0.04686	0.11605	-0.4
Mof_Zn	Zn	0.329	0.8411	0.9814	0.613
Mof_I 	I 	0.37311	0.8652	0.05787	-0.22
Mof_I 	I 	0.2675	0.9309	0.9528	-0.062
Mof_I 	I 	0.11079	0.96276	0.84079	-0.349
Mof_I 	I 	0.15283	0.1127	0.7299	-0.143
Mof_I 	I 	0.97386	0.8574	0.61373	-0.207
Mof_I 	I 	0.8832	0.9436	0.6976	-0.172
Mof_I 	I 	0.87154	0.0475	0.5578	-0.367
Mof_I 	I 	0.7668	0.9726	0.4518	-0.025
Mof_N 	N 	0.3174	0.7056	0.9768	-0.28
Mof_C 	C 	0.2857	0.6702	0.9464	0.036
Mof_H 	H 	0.268	0.7097	0.9276	-0.008
Mof_C 	C 	0.2793	0.5784	0.9427	-0.094
Mof_H 	H 	0.2585	0.5558	0.92	0.069
Mof_C 	C 	0.3032	0.5185	0.9721	0.038
Mof_C 	C 	0.3356	0.5584	0.0025	-0.113
Mof_H 	H 	0.3537	0.5215	0.0222	0.08
Mof_C 	C 	0.3405	0.6494	0.0033	0.076
Mof_H 	H 	0.362	0.6736	0.0244	-0.016
Mof_N 	N 	0.1714	0.1691	0.8518	-0.269
Mof_C 	C 	0.1792	0.2586	0.8469	0.05
Mof_H 	H 	0.1647	0.2902	0.8216	0.009
Mof_C 	C 	0.207	0.3034	0.8769	-0.102
Mof_H 	H 	0.2102	0.3663	0.874	0.077
Mof_C 	C 	0.2312	0.2558	0.9124	0.027
Mof_C 	C 	0.2225	0.1636	0.9162	-0.11
Mof_H 	H 	0.2374	0.1292	0.9402	0.076
Mof_C 	C 	0.1928	0.123	0.886	0.054
Mof_H 	H 	0.1874	0.0613	0.8895	-0.014
Mof_N 	N 	0.3812	0.1467	0.1149	-0.281
Mof_C 	C 	0.3873	0.2288	0.1069	0.101
Mof_H 	H 	0.4077	0.2596	0.1269	-0.014
Mof_C 	C 	0.3655	0.276	0.0699	-0.148
Mof_H 	H 	0.3732	0.335	0.0635	0.1
Mof_C 	C 	0.3351	0.24	0.0446	0.078
Mof_C 	C 	0.3276	0.1523	0.0521	-0.134
Mof_H 	H 	0.3074	0.1217	0.0318	0.068
Mof_C 	C 	0.3494	0.1069	0.0895	0.058
Mof_H 	H 	0.3418	0.0485	0.0971	-0.024
Mof_C 	C 	0.2982	0.4206	0.9727	0.116
Mof_N 	N 	0.2677	0.3888	0.9395	-0.142
Mof_C 	C 	0.2617	0.3008	0.9447	0.087
Mof_N 	N 	0.282	0.2502	0.978	-0.144
Mof_C 	C 	0.3112	0.2914	0.0065	0.091
Mof_N 	N 	0.3209	0.3768	0.0017	-0.142
Mof_N 	N 	0.0823	0.1901	0.8005	-0.277
Mof_C 	C 	0.065	0.2347	0.7641	0.094
Mof_H 	H 	0.0745	0.2271	0.7368	-0.011
Mof_C 	C 	0.0345	0.2909	0.7638	-0.14
Mof_H 	H 	0.0243	0.3261	0.7378	0.087
Mof_C 	C 	0.0186	0.2958	0.8023	0.067
Mof_C 	C 	0.0329	0.2484	0.8401	-0.13
Mof_H 	H 	0.0212	0.2496	0.8661	0.083
Mof_C 	C 	0.0663	0.1971	0.838	0.065
Mof_H 	H 	0.0785	0.1654	0.8645	-0.02
Mof_N 	N 	0.938	0.729	0.704	-0.264
Mof_C 	C 	0.9142	0.7105	0.7348	0.04
Mof_H 	H 	0.8941	0.752	0.7376	-0.003
Mof_C 	C 	0.9184	0.6341	0.7616	-0.091
Mof_H 	H 	0.902	0.6239	0.7828	0.074
Mof_C 	C 	0.9482	0.5707	0.7564	0.037
Mof_C 	C 	0.9734	0.5937	0.7268	-0.102
Mof_H 	H 	0.9947	0.5556	0.7244	0.066
Mof_C 	C 	0.967	0.6728	0.7008	0.062
Mof_H 	H 	0.9839	0.6864	0.6804	-0.005
Mof_N 	N 	0.8624	0.3569	0.9313	-0.296
Mof_C 	C 	0.8535	0.4152	0.8982	0.099
Mof_H 	H 	0.8297	0.4476	0.8958	-0.031
Mof_C 	C 	0.8752	0.4322	0.8679	-0.142
Mof_H 	H 	0.8667	0.4744	0.8444	0.092
Mof_C 	C 	0.9116	0.3867	0.8708	0.084
Mof_C 	C 	0.919	0.324	0.9028	-0.151
Mof_H 	H 	0.9419	0.2882	0.9056	0.091
Mof_C 	C 	0.8936	0.3104	0.9322	0.111
Mof_H 	H 	0.8996	0.2641	0.9542	-0.033
Mof_C 	C 	0.9848	0.3624	0.8057	0.083
Mof_N 	N 	0.9817	0.4318	0.7767	-0.15
Mof_C 	C 	0.9531	0.4845	0.7834	0.093
Mof_N 	N 	0.929	0.4775	0.8132	-0.134
Mof_C 	C 	0.9359	0.4022	0.839	0.09
Mof_N 	N 	0.9628	0.3414	0.8362	-0.136
Mof_N 	N 	0.8788	0.7613	0.6122	-0.274
Mof_C 	C 	0.8505	0.7991	0.5839	0.084
Mof_H 	H 	0.8471	0.862	0.5868	-0.012
Mof_C 	C 	0.8249	0.7555	0.5503	-0.127
Mof_H 	H 	0.8028	0.7861	0.5334	0.077
Mof_C 	C 	0.8315	0.6657	0.5412	0.054
Mof_C 	C 	0.861	0.6242	0.573	-0.116
Mof_H 	H 	0.8652	0.5614	0.571	0.092
Mof_C 	C 	0.8832	0.6709	0.6056	0.069
Mof_H 	H 	0.9034	0.6402	0.6257	0.003
Mof_N 	N 	0.6693	0.7391	0.3503	-0.278
Mof_C 	C 	0.6905	0.7788	0.3869	0.083
Mof_H 	H 	0.6856	0.8404	0.3916	-0.002
Mof_C 	C 	0.7187	0.7375	0.4178	-0.14
Mof_H 	H 	0.733	0.7696	0.4431	0.093
Mof_C 	C 	0.7262	0.6499	0.4118	0.063
Mof_C 	C 	0.7046	0.6084	0.3747	-0.138
Mof_H 	H 	0.7094	0.547	0.3692	0.089
Mof_C 	C 	0.6766	0.6533	0.3459	0.092
Mof_H 	H 	0.6614	0.6216	0.3211	-0.009
Mof_N 	N 	0.8144	0.2015	0.4706	-0.286
Mof_C 	C 	0.8389	0.2555	0.4979	0.069
Mof_H 	H 	0.8607	0.2318	0.5188	-0.017
Mof_C 	C 	0.8319	0.3484	0.4952	-0.139
Mof_H 	H 	0.8491	0.3872	0.515	0.089
Mof_C 	C 	0.8029	0.3829	0.4668	0.084
Mof_C 	C 	0.7773	0.3265	0.4394	-0.154
Mof_H 	H 	0.7553	0.3488	0.4185	0.087
Mof_C 	C 	0.7853	0.2345	0.4437	0.109
Mof_H 	H 	0.7677	0.1945	0.4253	-0.032
Mof_C 	C 	0.808	0.6149	0.5049	0.101
Mof_N 	N 	0.7786	0.6561	0.4777	-0.143
Mof_C 	C 	0.7588	0.6053	0.4443	0.08
Mof_N 	N 	0.7653	0.5185	0.4375	-0.14
Mof_C 	C 	0.7945	0.4832	0.4668	0.09
Mof_N 	N 	0.8172	0.5285	0.5022	-0.132
Mof_N 	N 	0.5802	0.7265	0.3001	-0.272
Mof_C 	C 	0.5663	0.6703	0.265	0.061
Mof_H 	H 	0.5783	0.6716	0.2392	0
Mof_C 	C 	0.5356	0.6112	0.2648	-0.105
Mof_H 	H 	0.5268	0.5738	0.2392	0.072
Mof_C 	C 	0.5179	0.6068	0.3016	0.032
Mof_C 	C 	0.5347	0.665	0.3373	-0.111
Mof_H 	H 	0.5251	0.6617	0.3646	0.081
Mof_C 	C 	0.564	0.725	0.3353	0.078
Mof_H 	H 	0.5722	0.7662	0.3596	-0.016
Mof_N 	N 	0.4393	0.175	0.2076	-0.283
Mof_C 	C 	0.4653	0.2395	0.2002	0.079
Mof_H 	H 	0.4797	0.229	0.177	-0.012
Mof_C 	C 	0.4717	0.316	0.2233	-0.139
Mof_H 	H 	0.4893	0.3599	0.2161	0.081
Mof_C 	C 	0.4522	0.3286	0.2576	0.067
Mof_C 	C 	0.4276	0.2631	0.2678	-0.152
Mof_H 	H 	0.4147	0.2697	0.2926	0.088
Mof_C 	C 	0.4223	0.1899	0.2417	0.1
Mof_H 	H 	0.4047	0.1454	0.2485	-0.031
Mof_N 	N 	0.3602	0.5458	0.4302	-0.278
Mof_C 	C 	0.3926	0.5954	0.4318	0.076
Mof_H 	H 	0.3981	0.641	0.4543	-0.018
Mof_C 	C 	0.4178	0.5851	0.4039	-0.114
Mof_H 	H 	0.4401	0.6228	0.4063	0.082
Mof_C 	C 	0.4103	0.5147	0.3695	0.053
Mof_C 	C 	0.3792	0.4622	0.3681	-0.101
Mof_H 	H 	0.3747	0.4128	0.3478	0.073
Mof_C 	C 	0.3516	0.4819	0.3988	0.05
Mof_H 	H 	0.3279	0.4489	0.396	-0.007
Mof_C 	C 	0.4868	0.5465	0.3042	0.105
Mof_N 	N 	0.4817	0.4775	0.2774	-0.152
Mof_C 	C 	0.4548	0.4128	0.2836	0.084
Mof_N 	N 	0.433	0.4273	0.3125	-0.143
Mof_C 	C 	0.4374	0.5012	0.3364	0.104
Mof_N 	N 	0.4662	0.5617	0.3346	-0.141
Mof_Zn	Zn	0.3196	0.844	0.9724	0.612
Mof_I 	I 	0.3646	0.8714	0.057	-0.118
Mof_I 	I 	0.2592	0.925	0.9446	-0.287
Mof_I 	I 	0.1204	0.9753	0.8356	0.008
Mof_I 	I 	0.1511	0.142	0.7299	-0.218
Mof_I 	I 	0.8643	0.0319	0.5479	-0.052
Mof_I 	I 	0.8866	0.9472	0.6958	-0.128
Mof_I 	I 	0.9726	0.85	0.6178	-0.095
Mof_I 	I 	0.7585	0.9837	0.4382	-0.271
Mof_Zn	Zn	0.62962	0.60469	0.80386	1.162
Mof_Zn	Zn	0.41995	0.33147	0.65813	1.161
Mof_Zn	Zn	0.32627	0.56432	0.47708	1.157
Mof_Zn	Zn	0.12889	0.3055	0.30203	1.167
Mof_Zn	Zn	0.92184	0.57343	0.16046	1.165
Mof_I 	I 	0.1152	0.45102	0.3363	-0.391
Mof_I 	I 	0.15229	0.28309	0.22902	-0.385
Mof_I 	I 	0.88533	0.46113	0.19928	-0.38
Mof_I 	I 	0.97535	0.54686	0.11605	-0.353
Mof_Zn	Zn	0.829	0.3411	0.9814	0.611
Mof_I 	I 	0.87311	0.3652	0.05787	-0.231
Mof_I 	I 	0.7675	0.4309	0.9528	-0.076
Mof_I 	I 	0.61079	0.46276	0.84079	-0.38
Mof_I 	I 	0.65283	0.6127	0.7299	-0.14
Mof_I 	I 	0.47386	0.3574	0.61373	-0.219
Mof_I 	I 	0.3832	0.4436	0.6976	-0.193
Mof_I 	I 	0.37154	0.5475	0.5578	-0.344
Mof_I 	I 	0.2668	0.4726	0.4518	-0.047
Mof_N 	N 	0.8174	0.2056	0.9768	-0.274
Mof_C 	C 	0.7857	0.1702	0.9464	0.018
Mof_H 	H 	0.768	0.2097	0.9276	-0.004
Mof_C 	C 	0.7793	0.0784	0.9427	-0.065
Mof_H 	H 	0.7585	0.0558	0.92	0.047
Mof_C 	C 	0.8032	0.0185	0.9721	-0.028
Mof_C 	C 	0.8356	0.0584	0.0025	-0.084
Mof_H 	H 	0.8537	0.0215	0.0222	0.056
Mof_C 	C 	0.8405	0.1494	0.0033	0.056
Mof_H 	H 	0.862	0.1736	0.0244	-0.013
Mof_N 	N 	0.6714	0.6691	0.8518	-0.265
Mof_C 	C 	0.6792	0.7586	0.8469	0.055
Mof_H 	H 	0.6647	0.7902	0.8216	0.01
Mof_C 	C 	0.707	0.8034	0.8769	-0.103
Mof_H 	H 	0.7102	0.8663	0.874	0.085
Mof_C 	C 	0.7312	0.7558	0.9124	0.033
Mof_C 	C 	0.7225	0.6636	0.9162	-0.109
Mof_H 	H 	0.7374	0.6292	0.9402	0.084
Mof_C 	C 	0.6928	0.623	0.886	0.058
Mof_H 	H 	0.6874	0.5613	0.8895	-0.001
Mof_N 	N 	0.8812	0.6467	0.1149	-0.277
Mof_C 	C 	0.8873	0.7288	0.1069	0.106
Mof_H 	H 	0.9077	0.7596	0.1269	-0.013
Mof_C 	C 	0.8655	0.776	0.0699	-0.149
Mof_H 	H 	0.8732	0.835	0.0635	0.108
Mof_C 	C 	0.8351	0.74	0.0446	0.083
Mof_C 	C 	0.8276	0.6523	0.0521	-0.132
Mof_H 	H 	0.8074	0.6217	0.0318	0.075
Mof_C 	C 	0.8494	0.6069	0.0895	0.063
Mof_H 	H 	0.8418	0.5485	0.0971	-0.01
Mof_C 	C 	0.7982	0.9206	0.9727	0.168
Mof_N 	N 	0.7677	0.8888	0.9395	-0.14
Mof_C 	C 	0.7617	0.8008	0.9447	0.089
Mof_N 	N 	0.782	0.7502	0.978	-0.143
Mof_C 	C 	0.8112	0.7914	0.0065	0.095
Mof_N 	N 	0.8209	0.8768	0.0017	-0.144
Mof_N 	N 	0.5823	0.6901	0.8005	-0.275
Mof_C 	C 	0.565	0.7347	0.7641	0.097
Mof_H 	H 	0.5745	0.7271	0.7368	-0.01
Mof_C 	C 	0.5345	0.7909	0.7638	-0.142
Mof_H 	H 	0.5243	0.8261	0.7378	0.092
Mof_C 	C 	0.5186	0.7958	0.8023	0.071
Mof_C 	C 	0.5329	0.7484	0.8401	-0.129
Mof_H 	H 	0.5212	0.7496	0.8661	0.088
Mof_C 	C 	0.5663	0.6971	0.838	0.069
Mof_H 	H 	0.5785	0.6654	0.8645	-0.014
Mof_N 	N 	0.438	0.229	0.704	-0.26
Mof_C 	C 	0.4142	0.2105	0.7348	0.023
Mof_H 	H 	0.3941	0.252	0.7376	-0.003
Mof_C 	C 	0.4184	0.1341	0.7616	-0.069
Mof_H 	H 	0.402	0.1239	0.7828	0.052
Mof_C 	C 	0.4482	0.0707	0.7564	-0.023
Mof_C 	C 	0.4734	0.0937	0.7268	-0.078
Mof_H 	H 	0.4947	0.0556	0.7244	0.044
Mof_C 	C 	0.467	0.1728	0.7008	0.044
Mof_H 	H 	0.4839	0.1864	0.6804	-0.004
Mof_N 	N 	0.3624	0.8569	0.9313	-0.295
Mof_C 	C 	0.3535	0.9152	0.8982	0.105
Mof_H 	H 	0.3297	0.9476	0.8958	-0.025
Mof_C 	C 	0.3752	0.9322	0.8679	-0.142
Mof_H 	H 	0.3667	0.9744	0.8444	0.101
Mof_C 	C 	0.4116	0.8867	0.8708	0.091
Mof_C 	C 	0.419	0.824	0.9028	-0.151
Mof_H 	H 	0.4419	0.7882	0.9056	0.096
Mof_C 	C 	0.3936	0.8104	0.9322	0.116
Mof_H 	H 	0.3996	0.7641	0.9542	-0.03
Mof_C 	C 	0.4848	0.8624	0.8057	0.087
Mof_N 	N 	0.4817	0.9318	0.7767	-0.149
Mof_C 	C 	0.4531	0.9845	0.7834	0.142
Mof_N 	N 	0.429	0.9775	0.8132	-0.131
Mof_C 	C 	0.4359	0.9022	0.839	0.094
Mof_N 	N 	0.4628	0.8414	0.8362	-0.134
Mof_N 	N 	0.3788	0.2613	0.6122	-0.276
Mof_C 	C 	0.3505	0.2991	0.5839	0.082
Mof_H 	H 	0.3471	0.362	0.5868	-0.022
Mof_C 	C 	0.3249	0.2555	0.5503	-0.131
Mof_H 	H 	0.3028	0.2861	0.5334	0.074
Mof_C 	C 	0.3315	0.1657	0.5412	0.048
Mof_C 	C 	0.361	0.1242	0.573	-0.117
Mof_H 	H 	0.3652	0.0614	0.571	0.079
Mof_C 	C 	0.3832	0.1709	0.6056	0.063
Mof_H 	H 	0.4034	0.1402	0.6257	-0.004
Mof_N 	N 	0.1693	0.2391	0.3503	-0.279
Mof_C 	C 	0.1905	0.2788	0.3869	0.081
Mof_H 	H 	0.1856	0.3404	0.3916	-0.004
Mof_C 	C 	0.2187	0.2375	0.4178	-0.14
Mof_H 	H 	0.233	0.2696	0.4431	0.091
Mof_C 	C 	0.2262	0.1499	0.4118	0.058
Mof_C 	C 	0.2046	0.1084	0.3747	-0.139
Mof_H 	H 	0.2094	0.047	0.3692	0.078
Mof_C 	C 	0.1766	0.1533	0.3459	0.089
Mof_H 	H 	0.1614	0.1216	0.3211	-0.016
Mof_N 	N 	0.3144	0.7015	0.4706	-0.28
Mof_C 	C 	0.3389	0.7555	0.4979	0.064
Mof_H 	H 	0.3607	0.7318	0.5188	-0.013
Mof_C 	C 	0.3319	0.8484	0.4952	-0.123
Mof_H 	H 	0.3491	0.8872	0.515	0.092
Mof_C 	C 	0.3029	0.8829	0.4668	0.065
Mof_C 	C 	0.2773	0.8265	0.4394	-0.138
Mof_H 	H 	0.2553	0.8488	0.4185	0.09
Mof_C 	C 	0.2853	0.7345	0.4437	0.103
Mof_H 	H 	0.2677	0.6945	0.4253	-0.022
Mof_C 	C 	0.308	0.1149	0.5049	0.096
Mof_N 	N 	0.2786	0.1561	0.4777	-0.147
Mof_C 	C 	0.2588	0.1053	0.4443	0.076
Mof_N 	N 	0.2653	0.0185	0.4375	-0.177
Mof_C 	C 	0.2945	0.9832	0.4668	0.163
Mof_N 	N 	0.3172	0.0285	0.5022	-0.168
Mof_N 	N 	0.0802	0.2265	0.3001	-0.274
Mof_C 	C 	0.0663	0.1703	0.265	0.061
Mof_H 	H 	0.0783	0.1716	0.2392	-0.005
Mof_C 	C 	0.0356	0.1112	0.2648	-0.118
Mof_H 	H 	0.0268	0.0738	0.2392	0.065
Mof_C 	C 	0.0179	0.1068	0.3016	0.043
Mof_C 	C 	0.0347	0.165	0.3373	-0.122
Mof_H 	H 	0.0251	0.1617	0.3646	0.08
Mof_C 	C 	0.064	0.225	0.3353	0.08
Mof_H 	H 	0.0722	0.2662	0.3596	-0.019
Mof_N 	N 	0.9393	0.675	0.2076	-0.279
Mof_C 	C 	0.9653	0.7395	0.2002	0.081
Mof_H 	H 	0.9797	0.729	0.177	-0.01
Mof_C 	C 	0.9717	0.816	0.2233	-0.141
Mof_H 	H 	0.9893	0.8599	0.2161	0.088
Mof_C 	C 	0.9522	0.8286	0.2576	0.071
Mof_C 	C 	0.9276	0.7631	0.2678	-0.151
Mof_H 	H 	0.9147	0.7697	0.2926	0.093
Mof_C 	C 	0.9223	0.6899	0.2417	0.101
Mof_H 	H 	0.9047	0.6454	0.2485	-0.02
Mof_N 	N 	0.8602	0.0458	0.4302	-0.3
Mof_C 	C 	0.8926	0.0954	0.4318	0.059
Mof_H 	H 	0.8981	0.141	0.4543	-0.017
Mof_C 	C 	0.9178	0.0851	0.4039	-0.099
Mof_H 	H 	0.9401	0.1228	0.4063	0.073
Mof_C 	C 	0.9103	0.0147	0.3695	-0.002
Mof_C 	C 	0.8792	0.9622	0.3681	-0.039
Mof_H 	H 	0.8747	0.9128	0.3478	0.062
Mof_C 	C 	0.8516	0.9819	0.3988	0.08
Mof_H 	H 	0.8279	0.9489	0.396	-0.008
Mof_C 	C 	0.9868	0.0465	0.3042	0.059
Mof_N 	N 	0.9817	0.9775	0.2774	-0.12
Mof_C 	C 	0.9548	0.9128	0.2836	0.087
Mof_N 	N 	0.933	0.9273	0.3125	-0.118
Mof_C 	C 	0.9374	0.0012	0.3364	0.074
Mof_N 	N 	0.9662	0.0617	0.3346	-0.133
Mof_Zn	Zn	0.8196	0.344	0.9724	0.613
Mof_I 	I 	0.8646	0.3714	0.057	-0.129
Mof_I 	I 	0.7592	0.425	0.9446	-0.302
Mof_I 	I 	0.6204	0.4753	0.8356	-0.005
Mof_I 	I 	0.6511	0.642	0.7299	-0.194
Mof_I 	I 	0.3643	0.5319	0.5479	-0.042
Mof_I 	I 	0.3866	0.4472	0.6958	-0.147
Mof_I 	I 	0.4726	0.35	0.6178	-0.113
Mof_I 	I 	0.2585	0.4837	0.4382	-0.291
Mof_Zn	Zn	0.87038	0.10469	0.19614	1.154
Mof_Zn	Zn	0.08005	0.83147	0.34187	1.163
Mof_Zn	Zn	0.17373	0.06432	0.52292	1.149
Mof_Zn	Zn	0.37111	0.8055	0.69797	1.167
Mof_Zn	Zn	0.57816	0.07343	0.83954	1.157
Mof_I 	I 	0.3848	0.95102	0.6637	-0.354
Mof_I 	I 	0.34771	0.78309	0.77098	-0.371
Mof_I 	I 	0.61467	0.96113	0.80072	-0.336
Mof_I 	I 	0.52465	0.04686	0.88395	-0.4
Mof_Zn	Zn	0.671	0.8411	0.0186	0.613
Mof_I 	I 	0.62689	0.8652	0.94213	-0.22
Mof_I 	I 	0.7325	0.9309	0.0472	-0.062
Mof_I 	I 	0.88921	0.96276	0.15921	-0.349
Mof_I 	I 	0.84717	0.1127	0.2701	-0.143
Mof_I 	I 	0.02614	0.8574	0.38627	-0.207
Mof_I 	I 	0.1168	0.9436	0.3024	-0.172
Mof_I 	I 	0.12846	0.0475	0.4422	-0.367
Mof_I 	I 	0.2332	0.9726	0.5482	-0.025
Mof_N 	N 	0.6826	0.7056	0.0232	-0.28
Mof_C 	C 	0.7143	0.6702	0.0536	0.036
Mof_H 	H 	0.732	0.7097	0.0724	-0.008
Mof_C 	C 	0.7207	0.5784	0.0573	-0.094
Mof_H 	H 	0.7415	0.5558	0.08	0.069
Mof_C 	C 	0.6968	0.5185	0.0279	0.038
Mof_C 	C 	0.6644	0.5584	0.9975	-0.113
Mof_H 	H 	0.6463	0.5215	0.9778	0.08
Mof_C 	C 	0.6595	0.6494	0.9967	0.076
Mof_H 	H 	0.638	0.6736	0.9756	-0.016
Mof_N 	N 	0.8286	0.1691	0.1482	-0.269
Mof_C 	C 	0.8208	0.2586	0.1531	0.05
Mof_H 	H 	0.8353	0.2902	0.1784	0.009
Mof_C 	C 	0.793	0.3034	0.1231	-0.102
Mof_H 	H 	0.7898	0.3663	0.126	0.077
Mof_C 	C 	0.7688	0.2558	0.0876	0.027
Mof_C 	C 	0.7775	0.1636	0.0838	-0.11
Mof_H 	H 	0.7626	0.1292	0.0598	0.076
Mof_C 	C 	0.8072	0.123	0.114	0.054
Mof_H 	H 	0.8126	0.0613	0.1105	-0.014
Mof_N 	N 	0.6188	0.1467	0.8851	-0.281
Mof_C 	C 	0.6127	0.2288	0.8931	0.101
Mof_H 	H 	0.5923	0.2596	0.8731	-0.014
Mof_C 	C 	0.6345	0.276	0.9301	-0.148
Mof_H 	H 	0.6268	0.335	0.9365	0.1
Mof_C 	C 	0.6649	0.24	0.9554	0.078
Mof_C 	C 	0.6724	0.1523	0.9479	-0.134
Mof_H 	H 	0.6926	0.1217	0.9682	0.068
Mof_C 	C 	0.6506	0.1069	0.9105	0.058
Mof_H 	H 	0.6582	0.0485	0.9029	-0.024
Mof_C 	C 	0.7018	0.4206	0.0273	0.116
Mof_N 	N 	0.7323	0.3888	0.0605	-0.142
Mof_C 	C 	0.7383	0.3008	0.0553	0.087
Mof_N 	N 	0.718	0.2502	0.022	-0.144
Mof_C 	C 	0.6888	0.2914	0.9935	0.091
Mof_N 	N 	0.6791	0.3768	0.9983	-0.142
Mof_N 	N 	0.9177	0.1901	0.1995	-0.277
Mof_C 	C 	0.935	0.2347	0.2359	0.094
Mof_H 	H 	0.9255	0.2271	0.2632	-0.011
Mof_C 	C 	0.9655	0.2909	0.2362	-0.14
Mof_H 	H 	0.9757	0.3261	0.2622	0.087
Mof_C 	C 	0.9814	0.2958	0.1977	0.067
Mof_C 	C 	0.9671	0.2484	0.1599	-0.13
Mof_H 	H 	0.9788	0.2496	0.1339	0.083
Mof_C 	C 	0.9337	0.1971	0.162	0.065
Mof_H 	H 	0.9215	0.1654	0.1355	-0.02
Mof_N 	N 	0.062	0.729	0.296	-0.264
Mof_C 	C 	0.0858	0.7105	0.2652	0.04
Mof_H 	H 	0.1059	0.752	0.2624	-0.003
Mof_C 	C 	0.0816	0.6341	0.2384	-0.091
Mof_H 	H 	0.098	0.6239	0.2172	0.074
Mof_C 	C 	0.0518	0.5707	0.2436	0.037
Mof_C 	C 	0.0266	0.5937	0.2732	-0.102
Mof_H 	H 	0.0053	0.5556	0.2756	0.066
Mof_C 	C 	0.033	0.6728	0.2992	0.062
Mof_H 	H 	0.0161	0.6864	0.3196	-0.005
Mof_N 	N 	0.1376	0.3569	0.0687	-0.296
Mof_C 	C 	0.1465	0.4152	0.1018	0.099
Mof_H 	H 	0.1703	0.4476	0.1042	-0.031
Mof_C 	C 	0.1248	0.4322	0.1321	-0.142
Mof_H 	H 	0.1333	0.4744	0.1556	0.092
Mof_C 	C 	0.0884	0.3867	0.1292	0.084
Mof_C 	C 	0.081	0.324	0.0972	-0.151
Mof_H 	H 	0.0581	0.2882	0.0944	0.091
Mof_C 	C 	0.1064	0.3104	0.0678	0.111
Mof_H 	H 	0.1004	0.2641	0.0458	-0.033
Mof_C 	C 	0.0152	0.3624	0.1943	0.083
Mof_N 	N 	0.0183	0.4318	0.2233	-0.15
Mof_C 	C 	0.0469	0.4845	0.2166	0.093
Mof_N 	N 	0.071	0.4775	0.1868	-0.134
Mof_C 	C 	0.0641	0.4022	0.161	0.09
Mof_N 	N 	0.0372	0.3414	0.1638	-0.136
Mof_N 	N 	0.1212	0.7613	0.3878	-0.274
Mof_C 	C 	0.1495	0.7991	0.4161	0.084
Mof_H 	H 	0.1529	0.862	0.4132	-0.012
Mof_C 	C 	0.1751	0.7555	0.4497	-0.127
Mof_H 	H 	0.1972	0.7861	0.4666	0.077
Mof_C 	C 	0.1685	0.6657	0.4588	0.054
Mof_C 	C 	0.139	0.6242	0.427	-0.116
Mof_H 	H 	0.1348	0.5614	0.429	0.092
Mof_C 	C 	0.1168	0.6709	0.3944	0.069
Mof_H 	H 	0.0966	0.6402	0.3743	0.003
Mof_N 	N 	0.3307	0.7391	0.6497	-0.278
Mof_C 	C 	0.3095	0.7788	0.6131	0.083
Mof_H 	H 	0.3144	0.8404	0.6084	-0.002
Mof_C 	C 	0.2813	0.7375	0.5822	-0.14
Mof_H 	H 	0.267	0.7696	0.5569	0.093
Mof_C 	C 	0.2738	0.6499	0.5882	0.063
Mof_C 	C 	0.2954	0.6084	0.6253	-0.138
Mof_H 	H 	0.2906	0.547	0.6308	0.089
Mof_C 	C 	0.3234	0.6533	0.6541	0.092
Mof_H 	H 	0.3386	0.6216	0.6789	-0.009
Mof_N 	N 	0.1856	0.2015	0.5294	-0.286
Mof_C 	C 	0.1611	0.2555	0.5021	0.069
Mof_H 	H 	0.1393	0.2318	0.4812	-0.017
Mof_C 	C 	0.1681	0.3484	0.5048	-0.139
Mof_H 	H 	0.1509	0.3872	0.485	0.089
Mof_C 	C 	0.1971	0.3829	0.5332	0.084
Mof_C 	C 	0.2227	0.3265	0.5606	-0.154
Mof_H 	H 	0.2447	0.3488	0.5815	0.087
Mof_C 	C 	0.2147	0.2345	0.5563	0.109
Mof_H 	H 	0.2323	0.1945	0.5747	-0.032
Mof_C 	C 	0.192	0.6149	0.4951	0.101
Mof_N 	N 	0.2214	0.6561	0.5223	-0.143
Mof_C 	C 	0.2412	0.6053	0.5557	0.08
Mof_N 	N 	0.2347	0.5185	0.5625	-0.14
Mof_C 	C 	0.2055	0.4832	0.5332	0.09
Mof_N 	N 	0.1828	0.5285	0.4978	-0.132
Mof_N 	N 	0.4198	0.7265	0.6999	-0.272
Mof_C 	C 	0.4337	0.6703	0.735	0.061
Mof_H 	H 	0.4217	0.6716	0.7608	0
Mof_C 	C 	0.4644	0.6112	0.7352	-0.105
Mof_H 	H 	0.4732	0.5738	0.7608	0.072
Mof_C 	C 	0.4821	0.6068	0.6984	0.032
Mof_C 	C 	0.4653	0.665	0.6627	-0.111
Mof_H 	H 	0.4749	0.6617	0.6354	0.081
Mof_C 	C 	0.436	0.725	0.6647	0.078
Mof_H 	H 	0.4278	0.7662	0.6404	-0.016
Mof_N 	N 	0.5607	0.175	0.7924	-0.283
Mof_C 	C 	0.5347	0.2395	0.7998	0.079
Mof_H 	H 	0.5203	0.229	0.823	-0.012
Mof_C 	C 	0.5283	0.316	0.7767	-0.139
Mof_H 	H 	0.5107	0.3599	0.7839	0.081
Mof_C 	C 	0.5478	0.3286	0.7424	0.067
Mof_C 	C 	0.5724	0.2631	0.7322	-0.152
Mof_H 	H 	0.5853	0.2697	0.7074	0.088
Mof_C 	C 	0.5777	0.1899	0.7583	0.1
Mof_H 	H 	0.5953	0.1454	0.7515	-0.031
Mof_N 	N 	0.6398	0.5458	0.5698	-0.278
Mof_C 	C 	0.6074	0.5954	0.5682	0.076
Mof_H 	H 	0.6019	0.641	0.5457	-0.018
Mof_C 	C 	0.5822	0.5851	0.5961	-0.114
Mof_H 	H 	0.5599	0.6228	0.5937	0.082
Mof_C 	C 	0.5897	0.5147	0.6305	0.053
Mof_C 	C 	0.6208	0.4622	0.6319	-0.101
Mof_H 	H 	0.6253	0.4128	0.6522	0.073
Mof_C 	C 	0.6484	0.4819	0.6012	0.05
Mof_H 	H 	0.6721	0.4489	0.604	-0.007
Mof_C 	C 	0.5132	0.5465	0.6958	0.105
Mof_N 	N 	0.5183	0.4775	0.7226	-0.152
Mof_C 	C 	0.5452	0.4128	0.7164	0.084
Mof_N 	N 	0.567	0.4273	0.6875	-0.143
Mof_C 	C 	0.5626	0.5012	0.6636	0.104
Mof_N 	N 	0.5338	0.5617	0.6654	-0.141
Mof_Zn	Zn	0.6804	0.844	0.0276	0.612
Mof_I 	I 	0.6354	0.8714	0.943	-0.118
Mof_I 	I 	0.7408	0.925	0.0554	-0.287
Mof_I 	I 	0.8796	0.9753	0.1644	0.008
Mof_I 	I 	0.8489	0.142	0.2701	-0.218
Mof_I 	I 	0.1357	0.0319	0.4521	-0.052
Mof_I 	I 	0.1134	0.9472	0.3042	-0.128
Mof_I 	I 	0.0274	0.85	0.3822	-0.095
Mof_I 	I 	0.2415	0.9837	0.5618	-0.271
Mof_Zn	Zn	0.37038	0.60469	0.19614	1.162
Mof_Zn	Zn	0.58005	0.33147	0.34187	1.161
Mof_Zn	Zn	0.67373	0.56432	0.52292	1.157
Mof_Zn	Zn	0.87111	0.3055	0.69797	1.167
Mof_Zn	Zn	0.07816	0.57343	0.83954	1.165
Mof_I 	I 	0.8848	0.45102	0.6637	-0.391
Mof_I 	I 	0.84771	0.28309	0.77098	-0.385
Mof_I 	I 	0.11467	0.46113	0.80072	-0.38
Mof_I 	I 	0.02465	0.54686	0.88395	-0.353
Mof_Zn	Zn	0.171	0.3411	0.0186	0.611
Mof_I 	I 	0.12689	0.3652	0.94213	-0.231
Mof_I 	I 	0.2325	0.4309	0.0472	-0.076
Mof_I 	I 	0.38921	0.46276	0.15921	-0.38
Mof_I 	I 	0.34717	0.6127	0.2701	-0.14
Mof_I 	I 	0.52614	0.3574	0.38627	-0.219
Mof_I 	I 	0.6168	0.4436	0.3024	-0.193
Mof_I 	I 	0.62846	0.5475	0.4422	-0.344
Mof_I 	I 	0.7332	0.4726	0.5482	-0.047
Mof_N 	N 	0.1826	0.2056	0.0232	-0.274
Mof_C 	C 	0.2143	0.1702	0.0536	0.018
Mof_H 	H 	0.232	0.2097	0.0724	-0.004
Mof_C 	C 	0.2207	0.0784	0.0573	-0.065
Mof_H 	H 	0.2415	0.0558	0.08	0.047
Mof_C 	C 	0.1968	0.0185	0.0279	-0.028
Mof_C 	C 	0.1644	0.0584	0.9975	-0.084
Mof_H 	H 	0.1463	0.0215	0.9778	0.056
Mof_C 	C 	0.1595	0.1494	0.9967	0.056
Mof_H 	H 	0.138	0.1736	0.9756	-0.013
Mof_N 	N 	0.3286	0.6691	0.1482	-0.265
Mof_C 	C 	0.3208	0.7586	0.1531	0.055
Mof_H 	H 	0.3353	0.7902	0.1784	0.01
Mof_C 	C 	0.293	0.8034	0.1231	-0.103
Mof_H 	H 	0.2898	0.8663	0.126	0.085
Mof_C 	C 	0.2688	0.7558	0.0876	0.033
Mof_C 	C 	0.2775	0.6636	0.0838	-0.109
Mof_H 	H 	0.2626	0.6292	0.0598	0.084
Mof_C 	C 	0.3072	0.623	0.114	0.058
Mof_H 	H 	0.3126	0.5613	0.1105	-0.001
Mof_N 	N 	0.1188	0.6467	0.8851	-0.277
Mof_C 	C 	0.1127	0.7288	0.8931	0.106
Mof_H 	H 	0.0923	0.7596	0.8731	-0.013
Mof_C 	C 	0.1345	0.776	0.9301	-0.149
Mof_H 	H 	0.1268	0.835	0.9365	0.108
Mof_C 	C 	0.1649	0.74	0.9554	0.083
Mof_C 	C 	0.1724	0.6523	0.9479	-0.132
Mof_H 	H 	0.1926	0.6217	0.9682	0.075
Mof_C 	C 	0.1506	0.6069	0.9105	0.063
Mof_H 	H 	0.1582	0.5485	0.9029	-0.01
Mof_C 	C 	0.2018	0.9206	0.0273	0.168
Mof_N 	N 	0.2323	0.8888	0.0605	-0.14
Mof_C 	C 	0.2383	0.8008	0.0553	0.089
Mof_N 	N 	0.218	0.7502	0.022	-0.143
Mof_C 	C 	0.1888	0.7914	0.9935	0.095
Mof_N 	N 	0.1791	0.8768	0.9983	-0.144
Mof_N 	N 	0.4177	0.6901	0.1995	-0.275
Mof_C 	C 	0.435	0.7347	0.2359	0.097
Mof_H 	H 	0.4255	0.7271	0.2632	-0.01
Mof_C 	C 	0.4655	0.7909	0.2362	-0.142
Mof_H 	H 	0.4757	0.8261	0.2622	0.092
Mof_C 	C 	0.4814	0.7958	0.1977	0.071
Mof_C 	C 	0.4671	0.7484	0.1599	-0.129
Mof_H 	H 	0.4788	0.7496	0.1339	0.088
Mof_C 	C 	0.4337	0.6971	0.162	0.069
Mof_H 	H 	0.4215	0.6654	0.1355	-0.014
Mof_N 	N 	0.562	0.229	0.296	-0.26
Mof_C 	C 	0.5858	0.2105	0.2652	0.023
Mof_H 	H 	0.6059	0.252	0.2624	-0.003
Mof_C 	C 	0.5816	0.1341	0.2384	-0.069
Mof_H 	H 	0.598	0.1239	0.2172	0.052
Mof_C 	C 	0.5518	0.0707	0.2436	-0.023
Mof_C 	C 	0.5266	0.0937	0.2732	-0.078
Mof_H 	H 	0.5053	0.0556	0.2756	0.044
Mof_C 	C 	0.533	0.1728	0.2992	0.044
Mof_H 	H 	0.5161	0.1864	0.3196	-0.004
Mof_N 	N 	0.6376	0.8569	0.0687	-0.295
Mof_C 	C 	0.6465	0.9152	0.1018	0.105
Mof_H 	H 	0.6703	0.9476	0.1042	-0.025
Mof_C 	C 	0.6248	0.9322	0.1321	-0.142
Mof_H 	H 	0.6333	0.9744	0.1556	0.101
Mof_C 	C 	0.5884	0.8867	0.1292	0.091
Mof_C 	C 	0.581	0.824	0.0972	-0.151
Mof_H 	H 	0.5581	0.7882	0.0944	0.096
Mof_C 	C 	0.6064	0.8104	0.0678	0.116
Mof_H 	H 	0.6004	0.7641	0.0458	-0.03
Mof_C 	C 	0.5152	0.8624	0.1943	0.087
Mof_N 	N 	0.5183	0.9318	0.2233	-0.149
Mof_C 	C 	0.5469	0.9845	0.2166	0.142
Mof_N 	N 	0.571	0.9775	0.1868	-0.131
Mof_C 	C 	0.5641	0.9022	0.161	0.094
Mof_N 	N 	0.5372	0.8414	0.1638	-0.134
Mof_N 	N 	0.6212	0.2613	0.3878	-0.276
Mof_C 	C 	0.6495	0.2991	0.4161	0.082
Mof_H 	H 	0.6529	0.362	0.4132	-0.022
Mof_C 	C 	0.6751	0.2555	0.4497	-0.131
Mof_H 	H 	0.6972	0.2861	0.4666	0.074
Mof_C 	C 	0.6685	0.1657	0.4588	0.048
Mof_C 	C 	0.639	0.1242	0.427	-0.117
Mof_H 	H 	0.6348	0.0614	0.429	0.079
Mof_C 	C 	0.6168	0.1709	0.3944	0.063
Mof_H 	H 	0.5966	0.1402	0.3743	-0.004
Mof_N 	N 	0.8307	0.2391	0.6497	-0.279
Mof_C 	C 	0.8095	0.2788	0.6131	0.081
Mof_H 	H 	0.8144	0.3404	0.6084	-0.004
Mof_C 	C 	0.7813	0.2375	0.5822	-0.14
Mof_H 	H 	0.767	0.2696	0.5569	0.091
Mof_C 	C 	0.7738	0.1499	0.5882	0.058
Mof_C 	C 	0.7954	0.1084	0.6253	-0.139
Mof_H 	H 	0.7906	0.047	0.6308	0.078
Mof_C 	C 	0.8234	0.1533	0.6541	0.089
Mof_H 	H 	0.8386	0.1216	0.6789	-0.016
Mof_N 	N 	0.6856	0.7015	0.5294	-0.28
Mof_C 	C 	0.6611	0.7555	0.5021	0.064
Mof_H 	H 	0.6393	0.7318	0.4812	-0.013
Mof_C 	C 	0.6681	0.8484	0.5048	-0.123
Mof_H 	H 	0.6509	0.8872	0.485	0.092
Mof_C 	C 	0.6971	0.8829	0.5332	0.065
Mof_C 	C 	0.7227	0.8265	0.5606	-0.138
Mof_H 	H 	0.7447	0.8488	0.5815	0.09
Mof_C 	C 	0.7147	0.7345	0.5563	0.103
Mof_H 	H 	0.7323	0.6945	0.5747	-0.022
Mof_C 	C 	0.692	0.1149	0.4951	0.096
Mof_N 	N 	0.7214	0.1561	0.5223	-0.147
Mof_C 	C 	0.7412	0.1053	0.5557	0.076
Mof_N 	N 	0.7347	0.0185	0.5625	-0.177
Mof_C 	C 	0.7055	0.9832	0.5332	0.163
Mof_N 	N 	0.6828	0.0285	0.4978	-0.168
Mof_N 	N 	0.9198	0.2265	0.6999	-0.274
Mof_C 	C 	0.9337	0.1703	0.735	0.061
Mof_H 	H 	0.9217	0.1716	0.7608	-0.005
Mof_C 	C 	0.9644	0.1112	0.7352	-0.118
Mof_H 	H 	0.9732	0.0738	0.7608	0.065
Mof_C 	C 	0.9821	0.1068	0.6984	0.043
Mof_C 	C 	0.9653	0.165	0.6627	-0.122
Mof_H 	H 	0.9749	0.1617	0.6354	0.08
Mof_C 	C 	0.936	0.225	0.6647	0.08
Mof_H 	H 	0.9278	0.2662	0.6404	-0.019
Mof_N 	N 	0.0607	0.675	0.7924	-0.279
Mof_C 	C 	0.0347	0.7395	0.7998	0.081
Mof_H 	H 	0.0203	0.729	0.823	-0.01
Mof_C 	C 	0.0283	0.816	0.7767	-0.141
Mof_H 	H 	0.0107	0.8599	0.7839	0.088
Mof_C 	C 	0.0478	0.8286	0.7424	0.071
Mof_C 	C 	0.0724	0.7631	0.7322	-0.151
Mof_H 	H 	0.0853	0.7697	0.7074	0.093
Mof_C 	C 	0.0777	0.6899	0.7583	0.101
Mof_H 	H 	0.0953	0.6454	0.7515	-0.02
Mof_N 	N 	0.1398	0.0458	0.5698	-0.3
Mof_C 	C 	0.1074	0.0954	0.5682	0.059
Mof_H 	H 	0.1019	0.141	0.5457	-0.017
Mof_C 	C 	0.0822	0.0851	0.5961	-0.099
Mof_H 	H 	0.0599	0.1228	0.5937	0.073
Mof_C 	C 	0.0897	0.0147	0.6305	-0.002
Mof_C 	C 	0.1208	0.9622	0.6319	-0.039
Mof_H 	H 	0.1253	0.9128	0.6522	0.062
Mof_C 	C 	0.1484	0.9819	0.6012	0.08
Mof_H 	H 	0.1721	0.9489	0.604	-0.008
Mof_C 	C 	0.0132	0.0465	0.6958	0.059
Mof_N 	N 	0.0183	0.9775	0.7226	-0.12
Mof_C 	C 	0.0452	0.9128	0.7164	0.087
Mof_N 	N 	0.067	0.9273	0.6875	-0.118
Mof_C 	C 	0.0626	0.0012	0.6636	0.074
Mof_N 	N 	0.0338	0.0617	0.6654	-0.133
Mof_Zn	Zn	0.1804	0.344	0.0276	0.613
Mof_I 	I 	0.1354	0.3714	0.943	-0.129
Mof_I 	I 	0.2408	0.425	0.0554	-0.302
Mof_I 	I 	0.3796	0.4753	0.1644	-0.005
Mof_I 	I 	0.3489	0.642	0.2701	-0.194
Mof_I 	I 	0.6357	0.5319	0.4521	-0.042
Mof_I 	I 	0.6134	0.4472	0.3042	-0.147
Mof_I 	I 	0.5274	0.35	0.3822	-0.113
Mof_I 	I 	0.7415	0.4837	0.5618	-0.291
_end
