data_functionalizedCrystal
_audit_creation_method	'EQeq! by Chris Wilmer'
_symmetry_space_group_name_H-M	'P1'
_symmetry_Int_Tables_number	1
_symmetry_cell_setting	triclinic
loop_
_symmetry_equiv_pos_as_xyz
  x,y,z
_cell_length_a	15.849
_cell_length_b	10.271
_cell_length_c	21.178
_cell_angle_alpha	90
_cell_angle_beta	108.936
_cell_angle_gamma	90
loop_
_atom_site_label
_atom_site_type_symbol
_atom_site_fract_x
_atom_site_fract_y
_atom_site_fract_z
_atom_site_charge
Mof_Eu	Eu	0.39256	0.54097	0.53338	2.426
Mof_O 	O 	0.3898	0.6609	0.4353	-0.53
Mof_C 	C 	0.4156	0.6318	0.3863	0.454
Mof_C 	C 	0.3544	0.6604	0.315	-0.099
Mof_C 	C 	0.3718	0.6	0.2614	0.014
Mof_H 	H 	0.4193	0.5427	0.2685	0.048
Mof_C 	C 	0.3167	0.6277	0.1979	-0.046
Mof_C 	C 	0.2482	0.7156	0.1868	-0.063
Mof_H 	H 	0.2127	0.733	0.1431	0.067
Mof_C 	C 	0.2298	0.7814	0.2409	0.059
Mof_C 	C 	0.2851	0.7469	0.3063	-0.04
Mof_H 	H 	0.2744	0.7829	0.3432	0.059
Mof_C 	C 	0.3362	0.5651	0.139	0.309
Mof_C 	C 	0.1108	0.9176	0.1647	-0.182
Mof_H 	H 	0.1487	0.9122	0.1368	0.088
Mof_H 	H 	0.097	0.0089	0.168	0.086
Mof_C 	C 	0.0269	0.8482	0.1307	0.131
Mof_C 	C 	0.0033	0.7311	0.1532	-0.17
Mof_H 	H 	0.0411	0.694	0.1922	0.098
Mof_C 	C 	0.9237	0.668	0.1183	0.064
Mof_H 	H 	0.9103	0.5886	0.1339	0.022
Mof_C 	C 	0.8636	0.7214	0.0603	-0.119
Mof_C 	C 	0.8835	0.8436	0.0394	0.059
Mof_H 	H 	0.8425	0.8845	0.0031	0.024
Mof_C 	C 	0.9645	0.9043	0.0727	-0.167
Mof_H 	H 	0.9781	0.9832	0.0567	0.084
Mof_C 	C 	0.7805	0.6558	0.0238	0.315
Mof_C 	C 	0.1487	0.9411	0.2872	-0.207
Mof_H 	H 	0.1465	0.8785	0.3209	0.099
Mof_H 	H 	0.0913	0.9846	0.2717	0.093
Mof_C 	C 	0.2205	0.0422	0.3196	0.194
Mof_C 	C 	0.2181	0.1087	0.3746	-0.252
Mof_H 	H 	0.1718	0.0925	0.3915	0.118
Mof_C 	C 	0.2821	0.1991	0.4059	0.17
Mof_H 	H 	0.2762	0.2463	0.4417	-0.029
Mof_C 	C 	0.3557	0.2213	0.3848	-0.223
Mof_C 	C 	0.3561	0.1563	0.3251	0.145
Mof_H 	H 	0.4012	0.1728	0.307	-0.001
Mof_C 	C 	0.2896	0.0696	0.2948	-0.23
Mof_H 	H 	0.2908	0.0276	0.2562	0.124
Mof_C 	C 	0.4341	0.3048	0.4213	0.495
Mof_N 	N 	0.1619	0.8711	0.2315	-0.075
Mof_O 	O 	0.369	0.4562	0.145	-0.425
Mof_O 	O 	0.3164	0.6288	0.0833	-0.415
Mof_O 	O 	0.7663	0.5386	0.0398	-0.434
Mof_O 	O 	0.7196	0.7145	0.9771	-0.43
Mof_O 	O 	0.4235	0.3842	0.4643	-0.643
Mof_O 	O 	0.5069	0.2902	0.4099	-0.523
Mof_O 	O 	0.491	0.5803	0.3915	-0.541
Mof_Eu	Eu	0.60744	0.54097	0.96662	2.426
Mof_O 	O 	0.6102	0.6609	0.0647	-0.53
Mof_C 	C 	0.5844	0.6318	0.1137	0.454
Mof_C 	C 	0.6456	0.6604	0.185	-0.099
Mof_C 	C 	0.6282	0.6	0.2386	0.014
Mof_H 	H 	0.5807	0.5427	0.2315	0.048
Mof_C 	C 	0.6833	0.6277	0.3021	-0.046
Mof_C 	C 	0.7518	0.7156	0.3132	-0.063
Mof_H 	H 	0.7873	0.733	0.3569	0.067
Mof_C 	C 	0.7702	0.7814	0.2591	0.059
Mof_C 	C 	0.7149	0.7469	0.1937	-0.04
Mof_H 	H 	0.7256	0.7829	0.1568	0.059
Mof_C 	C 	0.6638	0.5651	0.361	0.309
Mof_C 	C 	0.8892	0.9176	0.3353	-0.183
Mof_H 	H 	0.8513	0.9122	0.3632	0.089
Mof_H 	H 	0.903	0.0089	0.332	0.087
Mof_C 	C 	0.9731	0.8482	0.3693	0.133
Mof_C 	C 	0.9967	0.7311	0.3468	-0.168
Mof_H 	H 	0.9589	0.694	0.3078	0.097
Mof_C 	C 	0.0763	0.668	0.3817	0.062
Mof_H 	H 	0.0897	0.5886	0.3661	0.022
Mof_C 	C 	0.1364	0.7214	0.4397	-0.119
Mof_C 	C 	0.1165	0.8436	0.4606	0.059
Mof_H 	H 	0.1575	0.8845	0.4969	0.023
Mof_C 	C 	0.0355	0.9043	0.4273	-0.17
Mof_H 	H 	0.0219	0.9832	0.4433	0.084
Mof_C 	C 	0.2195	0.6558	0.4762	0.313
Mof_C 	C 	0.8513	0.9411	0.2128	-0.207
Mof_H 	H 	0.8535	0.8785	0.1791	0.099
Mof_H 	H 	0.9087	0.9846	0.2283	0.093
Mof_C 	C 	0.7795	0.0422	0.1804	0.194
Mof_C 	C 	0.7819	0.1087	0.1254	-0.252
Mof_H 	H 	0.8282	0.0925	0.1085	0.118
Mof_C 	C 	0.7179	0.1991	0.0941	0.17
Mof_H 	H 	0.7238	0.2463	0.0583	-0.029
Mof_C 	C 	0.6443	0.2213	0.1152	-0.223
Mof_C 	C 	0.6439	0.1563	0.1749	0.145
Mof_H 	H 	0.5988	0.1728	0.193	-0
Mof_C 	C 	0.7104	0.0696	0.2052	-0.23
Mof_H 	H 	0.7092	0.0276	0.2438	0.124
Mof_C 	C 	0.5659	0.3048	0.0787	0.495
Mof_N 	N 	0.8381	0.8711	0.2685	-0.075
Mof_O 	O 	0.631	0.4562	0.355	-0.425
Mof_O 	O 	0.6836	0.6288	0.4167	-0.415
Mof_O 	O 	0.2337	0.5386	0.4602	-0.434
Mof_O 	O 	0.2804	0.7145	0.5229	-0.429
Mof_O 	O 	0.5765	0.3842	0.0357	-0.643
Mof_O 	O 	0.4931	0.2902	0.0901	-0.523
Mof_O 	O 	0.509	0.5803	0.1085	-0.541
Mof_Eu	Eu	0.60744	0.45903	0.46662	2.426
Mof_O 	O 	0.6102	0.3391	0.5647	-0.53
Mof_C 	C 	0.5844	0.3682	0.6137	0.454
Mof_C 	C 	0.6456	0.3396	0.685	-0.099
Mof_C 	C 	0.6282	0.4	0.7386	0.014
Mof_H 	H 	0.5807	0.4573	0.7315	0.048
Mof_C 	C 	0.6833	0.3723	0.8021	-0.046
Mof_C 	C 	0.7518	0.2844	0.8132	-0.063
Mof_H 	H 	0.7873	0.267	0.8569	0.067
Mof_C 	C 	0.7702	0.2186	0.7591	0.059
Mof_C 	C 	0.7149	0.2531	0.6937	-0.04
Mof_H 	H 	0.7256	0.2171	0.6568	0.059
Mof_C 	C 	0.6638	0.4349	0.861	0.309
Mof_C 	C 	0.8892	0.0824	0.8353	-0.182
Mof_H 	H 	0.8513	0.0878	0.8632	0.088
Mof_H 	H 	0.903	0.9911	0.832	0.086
Mof_C 	C 	0.9731	0.1518	0.8693	0.131
Mof_C 	C 	0.9967	0.2689	0.8468	-0.17
Mof_H 	H 	0.9589	0.306	0.8078	0.098
Mof_C 	C 	0.0763	0.332	0.8817	0.064
Mof_H 	H 	0.0897	0.4114	0.8661	0.022
Mof_C 	C 	0.1364	0.2786	0.9397	-0.119
Mof_C 	C 	0.1165	0.1564	0.9606	0.059
Mof_H 	H 	0.1575	0.1155	0.9969	0.024
Mof_C 	C 	0.0355	0.0957	0.9273	-0.167
Mof_H 	H 	0.0219	0.0168	0.9433	0.084
Mof_C 	C 	0.2195	0.3442	0.9762	0.315
Mof_C 	C 	0.8513	0.0589	0.7128	-0.207
Mof_H 	H 	0.8535	0.1215	0.6791	0.099
Mof_H 	H 	0.9087	0.0154	0.7283	0.093
Mof_C 	C 	0.7795	0.9578	0.6804	0.194
Mof_C 	C 	0.7819	0.8913	0.6254	-0.252
Mof_H 	H 	0.8282	0.9075	0.6085	0.118
Mof_C 	C 	0.7179	0.8009	0.5941	0.17
Mof_H 	H 	0.7238	0.7537	0.5583	-0.029
Mof_C 	C 	0.6443	0.7787	0.6152	-0.223
Mof_C 	C 	0.6439	0.8437	0.6749	0.145
Mof_H 	H 	0.5988	0.8272	0.693	-0.001
Mof_C 	C 	0.7104	0.9304	0.7052	-0.23
Mof_H 	H 	0.7092	0.9724	0.7438	0.124
Mof_C 	C 	0.5659	0.6952	0.5787	0.495
Mof_N 	N 	0.8381	0.1289	0.7685	-0.075
Mof_O 	O 	0.631	0.5438	0.855	-0.425
Mof_O 	O 	0.6836	0.3712	0.9167	-0.415
Mof_O 	O 	0.2337	0.4614	0.9602	-0.434
Mof_O 	O 	0.2804	0.2855	0.0229	-0.43
Mof_O 	O 	0.5765	0.6158	0.5357	-0.643
Mof_O 	O 	0.4931	0.7098	0.5901	-0.523
Mof_O 	O 	0.509	0.4197	0.6085	-0.541
Mof_Eu	Eu	0.39256	0.45903	0.03338	2.426
Mof_O 	O 	0.3898	0.3391	0.9353	-0.53
Mof_C 	C 	0.4156	0.3682	0.8863	0.454
Mof_C 	C 	0.3544	0.3396	0.815	-0.099
Mof_C 	C 	0.3718	0.4	0.7614	0.014
Mof_H 	H 	0.4193	0.4573	0.7685	0.048
Mof_C 	C 	0.3167	0.3723	0.6979	-0.046
Mof_C 	C 	0.2482	0.2844	0.6868	-0.063
Mof_H 	H 	0.2127	0.267	0.6431	0.067
Mof_C 	C 	0.2298	0.2186	0.7409	0.059
Mof_C 	C 	0.2851	0.2531	0.8063	-0.04
Mof_H 	H 	0.2744	0.2171	0.8432	0.059
Mof_C 	C 	0.3362	0.4349	0.639	0.309
Mof_C 	C 	0.1108	0.0824	0.6647	-0.183
Mof_H 	H 	0.1487	0.0878	0.6368	0.089
Mof_H 	H 	0.097	0.9911	0.668	0.087
Mof_C 	C 	0.0269	0.1518	0.6307	0.133
Mof_C 	C 	0.0033	0.2689	0.6532	-0.168
Mof_H 	H 	0.0411	0.306	0.6922	0.097
Mof_C 	C 	0.9237	0.332	0.6183	0.062
Mof_H 	H 	0.9103	0.4114	0.6339	0.022
Mof_C 	C 	0.8636	0.2786	0.5603	-0.119
Mof_C 	C 	0.8835	0.1564	0.5394	0.059
Mof_H 	H 	0.8425	0.1155	0.5031	0.023
Mof_C 	C 	0.9645	0.0957	0.5727	-0.17
Mof_H 	H 	0.9781	0.0168	0.5567	0.084
Mof_C 	C 	0.7805	0.3442	0.5238	0.313
Mof_C 	C 	0.1487	0.0589	0.7872	-0.207
Mof_H 	H 	0.1465	0.1215	0.8209	0.099
Mof_H 	H 	0.0913	0.0154	0.7717	0.093
Mof_C 	C 	0.2205	0.9578	0.8196	0.194
Mof_C 	C 	0.2181	0.8913	0.8746	-0.252
Mof_H 	H 	0.1718	0.9075	0.8915	0.118
Mof_C 	C 	0.2821	0.8009	0.9059	0.17
Mof_H 	H 	0.2762	0.7537	0.9417	-0.029
Mof_C 	C 	0.3557	0.7787	0.8848	-0.223
Mof_C 	C 	0.3561	0.8437	0.8251	0.145
Mof_H 	H 	0.4012	0.8272	0.807	-0
Mof_C 	C 	0.2896	0.9304	0.7948	-0.23
Mof_H 	H 	0.2908	0.9724	0.7562	0.124
Mof_C 	C 	0.4341	0.6952	0.9213	0.495
Mof_N 	N 	0.1619	0.1289	0.7315	-0.075
Mof_O 	O 	0.369	0.5438	0.645	-0.425
Mof_O 	O 	0.3164	0.3712	0.5833	-0.415
Mof_O 	O 	0.7663	0.4614	0.5398	-0.434
Mof_O 	O 	0.7196	0.2855	0.4771	-0.429
Mof_O 	O 	0.4235	0.6158	0.9643	-0.643
Mof_O 	O 	0.5069	0.7098	0.9099	-0.523
Mof_O 	O 	0.491	0.4197	0.8915	-0.541
_end
