data_functionalizedCrystal
_audit_creation_method	'EQeq! by Chris Wilmer'
_symmetry_space_group_name_H-M	'P1'
_symmetry_Int_Tables_number	1
_symmetry_cell_setting	triclinic
loop_
_symmetry_equiv_pos_as_xyz
  x,y,z
_cell_length_a	12.0576
_cell_length_b	17.8073
_cell_length_c	9.7855
_cell_angle_alpha	90
_cell_angle_beta	95.306
_cell_angle_gamma	90
loop_
_atom_site_label
_atom_site_type_symbol
_atom_site_fract_x
_atom_site_fract_y
_atom_site_fract_z
_atom_site_charge
Mof_Cu	Cu	0.00329	0.6251	0.62345	0.817
Mof_Cu	Cu	0.39469	0.65285	0.83165	0.817
Mof_N 	N 	0.97889	0.71731	0.51245	-0.231
Mof_N 	N 	0.99831	0.52923	0.5264	-0.288
Mof_N 	N 	0.23882	0.63516	0.77464	-0.204
Mof_C 	C 	0.9548	0.76851	0.4447	-0.302
Mof_C 	C 	0.00169	0.47077	0.4736	-0.145
Mof_C 	C 	0.14506	0.63147	0.75403	-0.301
Mof_Cu	Cu	0.50329	0.1251	0.62345	0.783
Mof_Cu	Cu	0.89469	0.15285	0.83165	0.797
Mof_N 	N 	0.47889	0.21731	0.51245	-0.215
Mof_N 	N 	0.49831	0.02923	0.5264	-0.225
Mof_N 	N 	0.73882	0.13516	0.77464	-0.21
Mof_C 	C 	0.4548	0.26851	0.4447	-0.276
Mof_C 	C 	0.50169	0.97077	0.4736	-0.236
Mof_C 	C 	0.64506	0.13147	0.75403	-0.335
Mof_Cu	Cu	0.99671	0.6251	0.87655	0.75
Mof_Cu	Cu	0.60531	0.65285	0.66835	0.813
Mof_N 	N 	0.02111	0.71731	0.98755	-0.196
Mof_N 	N 	0.00169	0.52923	0.9736	-0.161
Mof_N 	N 	0.76118	0.63516	0.72536	-0.201
Mof_C 	C 	0.0452	0.76851	0.0553	-0.257
Mof_C 	C 	0.99831	0.47077	0.0264	-0.315
Mof_C 	C 	0.85494	0.63147	0.74597	-0.357
Mof_Cu	Cu	0.49671	0.1251	0.87655	0.783
Mof_Cu	Cu	0.10531	0.15285	0.66835	0.822
Mof_N 	N 	0.52111	0.21731	0.98755	-0.217
Mof_N 	N 	0.50169	0.02923	0.9736	-0.228
Mof_N 	N 	0.26118	0.13516	0.72536	-0.199
Mof_C 	C 	0.5452	0.26851	0.0553	-0.273
Mof_C 	C 	0.49831	0.97077	0.0264	-0.232
Mof_C 	C 	0.35494	0.13147	0.74597	-0.326
Mof_Cu	Cu	0.99671	0.3749	0.37655	0.749
Mof_Cu	Cu	0.60531	0.34715	0.16835	0.814
Mof_N 	N 	0.02111	0.28269	0.48755	-0.198
Mof_N 	N 	0.76118	0.36484	0.22536	-0.2
Mof_C 	C 	0.0452	0.23149	0.5553	-0.255
Mof_C 	C 	0.85494	0.36853	0.24597	-0.355
Mof_Cu	Cu	0.49671	0.8749	0.37655	0.784
Mof_Cu	Cu	0.10531	0.84715	0.16835	0.822
Mof_N 	N 	0.52111	0.78269	0.48755	-0.213
Mof_N 	N 	0.26118	0.86484	0.22536	-0.198
Mof_C 	C 	0.5452	0.73149	0.5553	-0.278
Mof_C 	C 	0.35494	0.86853	0.24597	-0.326
Mof_Cu	Cu	0.00329	0.3749	0.12345	0.818
Mof_Cu	Cu	0.39469	0.34715	0.33165	0.817
Mof_N 	N 	0.97889	0.28269	0.01245	-0.222
Mof_N 	N 	0.23882	0.36484	0.27464	-0.203
Mof_C 	C 	0.9548	0.23149	0.9447	-0.312
Mof_C 	C 	0.14506	0.36853	0.25403	-0.303
Mof_Cu	Cu	0.50329	0.8749	0.12345	0.784
Mof_Cu	Cu	0.89469	0.84715	0.33165	0.799
Mof_N 	N 	0.47889	0.78269	0.01245	-0.212
Mof_N 	N 	0.73882	0.86484	0.27464	-0.209
Mof_C 	C 	0.4548	0.73149	0.9447	-0.279
Mof_C 	C 	0.64506	0.86853	0.25403	-0.333
Mof_Cl	Cl	0.5	0.55648	0.75	-0.706
Mof_Cl	Cl	1.35854e-17	0.05648	0.75	-0.666
Mof_Cl	Cl	0.5	0.44352	0.25	-0.704
Mof_Cl	Cl	3.39636e-18	0.94352	0.25	-0.667
_end
