data_functionalizedCrystal
_audit_creation_method	'EQeq! by Chris Wilmer'
_symmetry_space_group_name_H-M	'P1'
_symmetry_Int_Tables_number	1
_symmetry_cell_setting	triclinic
loop_
_symmetry_equiv_pos_as_xyz
  x,y,z
_cell_length_a	14.014
_cell_length_b	26.963
_cell_length_c	7.576
_cell_angle_alpha	90
_cell_angle_beta	90
_cell_angle_gamma	91.74
loop_
_atom_site_label
_atom_site_type_symbol
_atom_site_fract_x
_atom_site_fract_y
_atom_site_fract_z
_atom_site_charge
Mof_Cd	Cd	0.27484	0.13543	0.88105	0.361
Mof_N 	N 	0.2544	0.0796	0.099	-0.079
Mof_N 	N 	0.2491	0.078	0.6554	-0.076
Mof_N 	N 	0.3259	0.1999	0.0899	-0.065
Mof_N 	N 	0.1233	0.168	0.8714	-0.076
Mof_N 	N 	0.3176	0.1926	0.6525	-0.113
Mof_N 	N 	0.441	0.1257	0.837	-0.128
Mof_C 	C 	0.2521	0.0493	0.2023	-0.26
Mof_C 	C 	0.2494	0.0486	0.5496	-0.261
Mof_C 	C 	0.3918	0.2188	0.153	-0.22
Mof_C 	C 	0.0754	0.1983	0.8259	-0.249
Mof_C 	C 	0.4193	0.1911	0.627	-0.022
Mof_C 	C 	0.4742	0.1574	0.695	0.038
Mof_C 	C 	0.5794	0.1574	0.656	-0.032
Mof_Cd	Cd	0.27484	0.63543	0.38105	0.368
Mof_N 	N 	0.2544	0.5796	0.599	-0.079
Mof_N 	N 	0.2491	0.578	0.1554	-0.075
Mof_N 	N 	0.3259	0.6999	0.5899	-0.065
Mof_N 	N 	0.1233	0.668	0.3714	-0.074
Mof_N 	N 	0.3176	0.6926	0.1525	-0.112
Mof_N 	N 	0.441	0.6257	0.337	-0.124
Mof_C 	C 	0.2521	0.5493	0.7023	-0.24
Mof_C 	C 	0.2494	0.5486	0.0496	-0.239
Mof_C 	C 	0.3918	0.7188	0.653	-0.22
Mof_C 	C 	0.0754	0.6983	0.3259	-0.247
Mof_C 	C 	0.4193	0.6911	0.127	-0.022
Mof_C 	C 	0.4742	0.6574	0.195	0.04
Mof_C 	C 	0.5794	0.6574	0.156	-0.03
Mof_Cd	Cd	0.22516	0.86457	0.88105	0.373
Mof_N 	N 	0.2456	0.9204	0.099	-0.081
Mof_N 	N 	0.2509	0.922	0.6554	-0.076
Mof_N 	N 	0.1741	0.8001	0.0899	-0.063
Mof_N 	N 	0.3767	0.832	0.8714	-0.07
Mof_N 	N 	0.1824	0.8074	0.6525	-0.115
Mof_N 	N 	0.059	0.8743	0.837	-0.131
Mof_C 	C 	0.2479	0.9507	0.2023	-0.205
Mof_C 	C 	0.2506	0.9514	0.5496	-0.205
Mof_C 	C 	0.1082	0.7812	0.153	-0.241
Mof_C 	C 	0.4246	0.8017	0.8259	-0.216
Mof_C 	C 	0.0807	0.8089	0.627	-0.024
Mof_C 	C 	0.0258	0.8426	0.695	-0.033
Mof_C 	C 	0.9206	0.8426	0.656	0.045
Mof_Cd	Cd	0.22516	0.36457	0.38105	0.367
Mof_N 	N 	0.2456	0.4204	0.599	-0.079
Mof_N 	N 	0.2509	0.422	0.1554	-0.074
Mof_N 	N 	0.1741	0.3001	0.5899	-0.063
Mof_N 	N 	0.3767	0.332	0.3714	-0.071
Mof_N 	N 	0.1824	0.3074	0.1525	-0.115
Mof_N 	N 	0.059	0.3743	0.337	-0.135
Mof_C 	C 	0.2479	0.4507	0.7023	-0.241
Mof_C 	C 	0.2506	0.4514	0.0496	-0.239
Mof_C 	C 	0.1082	0.2812	0.653	-0.243
Mof_C 	C 	0.4246	0.3017	0.3259	-0.217
Mof_C 	C 	0.0807	0.3089	0.127	-0.023
Mof_C 	C 	0.0258	0.3426	0.195	-0.032
Mof_C 	C 	0.9206	0.3426	0.156	0.039
Mof_Cd	Cd	0.72516	0.86457	0.11895	0.383
Mof_N 	N 	0.7456	0.9204	0.901	-0.077
Mof_N 	N 	0.7509	0.922	0.3446	-0.073
Mof_N 	N 	0.6741	0.8001	0.9101	-0.064
Mof_N 	N 	0.8767	0.832	0.1286	-0.072
Mof_N 	N 	0.6824	0.8074	0.3475	-0.112
Mof_N 	N 	0.559	0.8743	0.163	-0.121
Mof_C 	C 	0.7479	0.9507	0.7977	-0.191
Mof_C 	C 	0.7506	0.9514	0.4504	-0.191
Mof_C 	C 	0.6082	0.7812	0.847	-0.219
Mof_C 	C 	0.9246	0.8017	0.1741	-0.169
Mof_C 	C 	0.5807	0.8089	0.373	-0.022
Mof_C 	C 	0.5258	0.8426	0.305	0.041
Mof_C 	C 	0.4206	0.8426	0.344	-0.027
Mof_Cd	Cd	0.72516	0.36457	0.61895	0.378
Mof_N 	N 	0.7456	0.4204	0.401	-0.075
Mof_N 	N 	0.7509	0.422	0.8446	-0.071
Mof_N 	N 	0.6741	0.3001	0.4101	-0.064
Mof_N 	N 	0.8767	0.332	0.6286	-0.073
Mof_N 	N 	0.6824	0.3074	0.8475	-0.112
Mof_N 	N 	0.559	0.3743	0.663	-0.125
Mof_C 	C 	0.7479	0.4507	0.2977	-0.226
Mof_C 	C 	0.7506	0.4514	0.9504	-0.225
Mof_C 	C 	0.6082	0.2812	0.347	-0.219
Mof_C 	C 	0.9246	0.3017	0.6741	-0.167
Mof_C 	C 	0.5807	0.3089	0.873	-0.022
Mof_C 	C 	0.5258	0.3426	0.805	0.04
Mof_C 	C 	0.4206	0.3426	0.844	-0.031
Mof_Cd	Cd	0.77484	0.13543	0.11895	0.373
Mof_N 	N 	0.7544	0.0796	0.901	-0.075
Mof_N 	N 	0.7491	0.078	0.3446	-0.073
Mof_N 	N 	0.8259	0.1999	0.9101	-0.07
Mof_N 	N 	0.6233	0.168	0.1286	-0.073
Mof_N 	N 	0.8176	0.1926	0.3475	-0.11
Mof_N 	N 	0.941	0.1257	0.163	-0.118
Mof_C 	C 	0.7521	0.0493	0.7977	-0.245
Mof_C 	C 	0.7494	0.0486	0.4504	-0.247
Mof_C 	C 	0.8918	0.2188	0.847	-0.178
Mof_C 	C 	0.5754	0.1983	0.1741	-0.218
Mof_C 	C 	0.9193	0.1911	0.373	-0.017
Mof_C 	C 	0.9742	0.1574	0.305	0.111
Mof_C 	C 	0.0794	0.1574	0.344	-0.101
Mof_Cd	Cd	0.77484	0.63543	0.61895	0.379
Mof_N 	N 	0.7544	0.5796	0.401	-0.075
Mof_N 	N 	0.7491	0.578	0.8446	-0.072
Mof_N 	N 	0.8259	0.6999	0.4101	-0.071
Mof_N 	N 	0.6233	0.668	0.6286	-0.072
Mof_N 	N 	0.8176	0.6926	0.8475	-0.11
Mof_N 	N 	0.941	0.6257	0.663	-0.114
Mof_C 	C 	0.7521	0.5493	0.2977	-0.225
Mof_C 	C 	0.7494	0.5486	0.9504	-0.225
Mof_C 	C 	0.8918	0.7188	0.347	-0.179
Mof_C 	C 	0.5754	0.6983	0.6741	-0.217
Mof_C 	C 	0.9193	0.6911	0.873	-0.017
Mof_C 	C 	0.9742	0.6574	0.805	0.114
Mof_C 	C 	0.0794	0.6574	0.844	-0.101
Mof_Ni	Ni	0.25	0	0.3744	1.036
Mof_Ni	Ni	0.25	0.5	0.8744	1.059
Mof_Ni	Ni	0.75	0	0.6256	1.04
Mof_Ni	Ni	0.75	0.5	0.1256	1.063
Mof_Ni	Ni	0.5	0.25	0.25	1.067
Mof_Ni	Ni	1.39826e-18	0.75	0.25	1.035
Mof_Ni	Ni	0.5	0.75	0.75	1.067
Mof_Ni	Ni	1.71153e-18	0.25	0.75	1.034
_end
