data_functionalizedCrystal
_audit_creation_method	'EQeq! by Chris Wilmer'
_symmetry_space_group_name_H-M	'P1'
_symmetry_Int_Tables_number	1
_symmetry_cell_setting	triclinic
loop_
_symmetry_equiv_pos_as_xyz
  x,y,z
_cell_length_a	6.991
_cell_length_b	10.031
_cell_length_c	16.238
_cell_angle_alpha	90
_cell_angle_beta	98.5
_cell_angle_gamma	90
loop_
_atom_site_label
_atom_site_type_symbol
_atom_site_fract_x
_atom_site_fract_y
_atom_site_fract_z
_atom_site_charge
Mof_Co	Co	0.15296	0.63614	0.2926	1.151
Mof_O 	O 	0.2217	0.4449	0.2528	-0.454
Mof_O 	O 	0.1231	0.2337	0.2469	-0.482
Mof_O 	O 	0.9811	0.6674	0.1792	-0.43
Mof_O 	O 	0.7189	0.5972	0.0991	-0.49
Mof_O 	O 	0.0218	0.7721	0.3625	-0.519
Mof_O 	O 	0.8524	0.7848	0.4663	-0.406
Mof_N 	N 	0.8993	0.5242	0.3156	-0.05
Mof_C 	C 	0.9618	0.3848	0.3251	-0.23
Mof_C 	C 	0.1139	0.3523	0.2697	0.362
Mof_C 	C 	0.7519	0.5406	0.2415	-0.498
Mof_C 	C 	0.8242	0.6041	0.1673	0.498
Mof_C 	C 	0.837	0.5807	0.3909	-0.409
Mof_C 	C 	0.9084	0.7235	0.4071	0.463
Mof_H 	H 	0.021	0.37	0.384	0.05
Mof_H 	H 	0.854	0.325	0.316	0.124
Mof_H 	H 	0.702	0.458	0.225	0.2
Mof_H 	H 	0.645	0.588	0.255	0.195
Mof_H 	H 	0.703	0.581	0.391	0.156
Mof_H 	H 	0.886	0.527	0.439	0.142
Mof_Co	Co	0.34704	0.13614	0.2074	1.146
Mof_O 	O 	0.2783	0.9449	0.2472	-0.435
Mof_O 	O 	0.3769	0.7337	0.2531	-0.469
Mof_O 	O 	0.5189	0.1674	0.3208	-0.463
Mof_O 	O 	0.7811	0.0972	0.4009	-0.48
Mof_O 	O 	0.4782	0.2721	0.1375	-0.491
Mof_O 	O 	0.6476	0.2848	0.0337	-0.451
Mof_N 	N 	0.6007	0.0242	0.1844	-0.059
Mof_C 	C 	0.5382	0.8848	0.1749	-0.321
Mof_C 	C 	0.3861	0.8523	0.2303	0.416
Mof_C 	C 	0.7481	0.0406	0.2585	-0.662
Mof_C 	C 	0.6758	0.1041	0.3327	0.534
Mof_C 	C 	0.663	0.0807	0.1091	-0.376
Mof_C 	C 	0.5916	0.2235	0.0929	0.397
Mof_H 	H 	0.479	0.87	0.116	0.099
Mof_H 	H 	0.646	0.825	0.184	0.147
Mof_H 	H 	0.798	0.958	0.275	0.296
Mof_H 	H 	0.855	0.088	0.245	0.251
Mof_H 	H 	0.797	0.081	0.109	0.134
Mof_H 	H 	0.614	0.027	0.061	0.075
Mof_Co	Co	0.84704	0.36386	0.7074	1.179
Mof_O 	O 	0.7783	0.5551	0.7472	-0.459
Mof_O 	O 	0.8769	0.7663	0.7531	-0.458
Mof_O 	O 	0.0189	0.3326	0.8208	-0.462
Mof_O 	O 	0.2811	0.4028	0.9009	-0.445
Mof_O 	O 	0.9782	0.2279	0.6375	-0.427
Mof_O 	O 	0.1476	0.2152	0.5337	-0.42
Mof_N 	N 	0.1007	0.4758	0.6844	-0.04
Mof_C 	C 	0.0382	0.6152	0.6749	-0.516
Mof_C 	C 	0.8861	0.6477	0.7303	0.499
Mof_C 	C 	0.2481	0.4594	0.7585	-0.517
Mof_C 	C 	0.1758	0.3959	0.8327	0.493
Mof_C 	C 	0.163	0.4193	0.6091	-0.377
Mof_C 	C 	0.0916	0.2765	0.5929	0.348
Mof_H 	H 	0.979	0.63	0.616	0.19
Mof_H 	H 	0.146	0.675	0.684	0.196
Mof_H 	H 	0.298	0.542	0.775	0.208
Mof_H 	H 	0.355	0.412	0.745	0.204
Mof_H 	H 	0.297	0.419	0.609	0.146
Mof_H 	H 	0.114	0.473	0.561	0.107
Mof_Co	Co	0.65296	0.86386	0.7926	1.182
Mof_O 	O 	0.7217	0.0551	0.7528	-0.476
Mof_O 	O 	0.6231	0.2663	0.7469	-0.468
Mof_O 	O 	0.4811	0.8326	0.6792	-0.426
Mof_O 	O 	0.2189	0.9028	0.5991	-0.441
Mof_O 	O 	0.5218	0.7279	0.8625	-0.464
Mof_O 	O 	0.3524	0.7152	0.9663	-0.379
Mof_N 	N 	0.3993	0.9758	0.8156	-0.031
Mof_C 	C 	0.4618	0.1152	0.8251	-0.445
Mof_C 	C 	0.6139	0.1477	0.7697	0.454
Mof_C 	C 	0.2519	0.9594	0.7415	-0.333
Mof_C 	C 	0.3242	0.8959	0.6673	0.448
Mof_C 	C 	0.337	0.9193	0.8909	-0.416
Mof_C 	C 	0.4084	0.7765	0.9071	0.422
Mof_H 	H 	0.521	0.13	0.884	0.151
Mof_H 	H 	0.354	0.175	0.816	0.177
Mof_H 	H 	0.202	0.042	0.725	0.102
Mof_H 	H 	0.145	0.912	0.755	0.147
Mof_H 	H 	0.203	0.919	0.891	0.173
Mof_H 	H 	0.386	0.973	0.939	0.175
Mof_Ca	Ca	4.99798e-33	0	0.5	1.158
Mof_Ca	Ca	0.5	0.5	-0	1.18
_end
