data_functionalizedCrystal
_audit_creation_method	'EQeq! by Chris Wilmer'
_symmetry_space_group_name_H-M	'P1'
_symmetry_Int_Tables_number	1
_symmetry_cell_setting	triclinic
loop_
_symmetry_equiv_pos_as_xyz
  x,y,z
_cell_length_a	10.3322
_cell_length_b	10.3322
_cell_length_c	18.981
_cell_angle_alpha	81.09
_cell_angle_beta	81.09
_cell_angle_gamma	82.4101
loop_
_atom_site_label
_atom_site_type_symbol
_atom_site_fract_x
_atom_site_fract_y
_atom_site_fract_z
_atom_site_charge
Mof_Ca	Ca	0.07677	0.85235	0.06595	1.333
Mof_Ca	Ca	0.14765	0.92323	0.43405	1.338
Mof_Ca	Ca	0.92323	0.14765	0.93405	1.333
Mof_Ca	Ca	0.85235	0.07677	0.56595	1.338
Mof_Ca	Ca	0.19807	0.80193	0.25	1.517
Mof_Ca	Ca	0.80193	0.19807	0.75	1.517
Mof_H 	H 	0.6359	0.8189	0.2286	-0.007
Mof_H 	H 	0.5599	0.8839	0.4348	0.017
Mof_H 	H 	0.3802	0.1316	0.1548	0.233
Mof_H 	H 	0.5269	0.0805	0.1287	0.221
Mof_H 	H 	0.4461	0.0001	0.1938	0.237
Mof_H 	H 	0.9199	0.9273	0.322	-0.023
Mof_H 	H 	0.5062	0.7796	0.1347	0.244
Mof_H 	H 	0.5961	0.8631	0.0755	0.234
Mof_H 	H 	0.5002	0.7762	0.053	0.221
Mof_H 	H 	0.1811	0.3641	0.2714	-0.007
Mof_H 	H 	0.1161	0.4401	0.0652	0.016
Mof_H 	H 	0.8684	0.6198	0.3452	0.233
Mof_H 	H 	0.9195	0.4731	0.3713	0.221
Mof_H 	H 	0.9999	0.5539	0.3062	0.237
Mof_H 	H 	0.0727	0.0801	0.178	-0.023
Mof_H 	H 	0.2204	0.4938	0.3653	0.244
Mof_H 	H 	0.1369	0.4039	0.4245	0.235
Mof_H 	H 	0.2238	0.4998	0.447	0.221
Mof_H 	H 	0.3641	0.1811	0.7714	-0.007
Mof_H 	H 	0.4401	0.1161	0.5652	0.017
Mof_H 	H 	0.6198	0.8684	0.8452	0.233
Mof_H 	H 	0.4731	0.9195	0.8713	0.221
Mof_H 	H 	0.5539	0.9999	0.8062	0.237
Mof_H 	H 	0.0801	0.0727	0.678	-0.023
Mof_H 	H 	0.4938	0.2204	0.8653	0.244
Mof_H 	H 	0.4039	0.1369	0.9245	0.234
Mof_H 	H 	0.4998	0.2238	0.947	0.221
Mof_H 	H 	0.8189	0.6359	0.7286	-0.007
Mof_H 	H 	0.8839	0.5599	0.9348	0.016
Mof_H 	H 	0.1316	0.3802	0.6548	0.233
Mof_H 	H 	0.0805	0.5269	0.6287	0.221
Mof_H 	H 	0.0001	0.4461	0.6938	0.237
Mof_H 	H 	0.9273	0.9199	0.822	-0.023
Mof_H 	H 	0.7796	0.5062	0.6347	0.244
Mof_H 	H 	0.8631	0.5961	0.5755	0.235
Mof_H 	H 	0.7762	0.5002	0.553	0.221
Mof_C 	C 	0.8844	0.871	0.1935	0.413
Mof_C 	C 	0.664	0.8424	0.2687	0.106
Mof_C 	C 	0.4364	0.8142	0.3354	0.423
Mof_C 	C 	0.7485	0.9101	0.3887	-0.186
Mof_C 	C 	0.577	0.844	0.3319	-0.195
Mof_C 	C 	0.7917	0.8745	0.2632	-0.207
Mof_C 	C 	0.6182	0.88	0.3924	0.091
Mof_C 	C 	0.4412	0.0546	0.1482	-0.717
Mof_C 	C 	0.834	0.9072	0.3244	0.111
Mof_C 	C 	0.7933	0.9489	0.4539	0.382
Mof_C 	C 	0.5115	0.8307	0.0877	-0.736
Mof_C 	C 	0.129	0.1156	0.3065	0.412
Mof_C 	C 	0.1576	0.336	0.2313	0.105
Mof_C 	C 	0.1858	0.5636	0.1646	0.423
Mof_C 	C 	0.0899	0.2515	0.1113	-0.185
Mof_C 	C 	0.156	0.423	0.1681	-0.195
Mof_C 	C 	0.1255	0.2083	0.2368	-0.206
Mof_C 	C 	0.12	0.3818	0.1076	0.091
Mof_C 	C 	0.9454	0.5588	0.3518	-0.72
Mof_C 	C 	0.0928	0.166	0.1756	0.111
Mof_C 	C 	0.0511	0.2067	0.0461	0.379
Mof_C 	C 	0.1693	0.4885	0.4123	-0.737
Mof_C 	C 	0.1156	0.129	0.8065	0.413
Mof_C 	C 	0.336	0.1576	0.7313	0.106
Mof_C 	C 	0.5636	0.1858	0.6646	0.423
Mof_C 	C 	0.2515	0.0899	0.6113	-0.186
Mof_C 	C 	0.423	0.156	0.6681	-0.195
Mof_C 	C 	0.2083	0.1255	0.7368	-0.207
Mof_C 	C 	0.3818	0.12	0.6076	0.091
Mof_C 	C 	0.5588	0.9454	0.8518	-0.717
Mof_C 	C 	0.166	0.0928	0.6756	0.111
Mof_C 	C 	0.2067	0.0511	0.5461	0.382
Mof_C 	C 	0.4885	0.1693	0.9123	-0.736
Mof_C 	C 	0.871	0.8844	0.6935	0.412
Mof_C 	C 	0.8424	0.664	0.7687	0.105
Mof_C 	C 	0.8142	0.4364	0.8354	0.423
Mof_C 	C 	0.9101	0.7485	0.8887	-0.185
Mof_C 	C 	0.844	0.577	0.8319	-0.195
Mof_C 	C 	0.8745	0.7917	0.7632	-0.206
Mof_C 	C 	0.88	0.6182	0.8924	0.091
Mof_C 	C 	0.0546	0.4412	0.6482	-0.72
Mof_C 	C 	0.9072	0.834	0.8244	0.111
Mof_C 	C 	0.9489	0.7933	0.9539	0.379
Mof_C 	C 	0.8307	0.5115	0.5877	-0.737
Mof_S 	S 	0.3867	0.96456	0.08782	0.359
Mof_S 	S 	0.03544	0.6133	0.41218	0.361
Mof_S 	S 	0.6133	0.03544	0.91218	0.359
Mof_S 	S 	0.96456	0.3867	0.58782	0.361
Mof_O 	O 	0.007	0.8494	0.19698	-0.56
Mof_O 	O 	0.9151	0.9529	0.45426	-0.519
Mof_O 	O 	0.265	0.9046	0.12915	-0.482
Mof_O 	O 	0.3588	0.8234	0.3921	-0.464
Mof_O 	O 	0.7084	0.9778	0.505	-0.402
Mof_O 	O 	0.84	0.8874	0.13441	-0.403
Mof_O 	O 	0.4076	0.7826	0.2782	-0.485
Mof_O 	O 	0.1506	0.993	0.30302	-0.559
Mof_O 	O 	0.0471	0.0849	0.04574	-0.517
Mof_O 	O 	0.0954	0.735	0.37085	-0.482
Mof_O 	O 	0.1766	0.6412	0.1079	-0.464
Mof_O 	O 	0.0222	0.2916	0.995	-0.399
Mof_O 	O 	0.1126	0.16	0.36559	-0.404
Mof_O 	O 	0.2174	0.5924	0.2218	-0.485
Mof_O 	O 	0.993	0.1506	0.80302	-0.56
Mof_O 	O 	0.0849	0.0471	0.54574	-0.519
Mof_O 	O 	0.735	0.0954	0.87085	-0.482
Mof_O 	O 	0.6412	0.1766	0.6079	-0.464
Mof_O 	O 	0.2916	0.0222	0.495	-0.402
Mof_O 	O 	0.16	0.1126	0.86559	-0.403
Mof_O 	O 	0.5924	0.2174	0.7218	-0.485
Mof_O 	O 	0.8494	0.007	0.69698	-0.559
Mof_O 	O 	0.9529	0.9151	0.95426	-0.517
Mof_O 	O 	0.9046	0.265	0.62915	-0.482
Mof_O 	O 	0.8234	0.3588	0.8921	-0.464
Mof_O 	O 	0.9778	0.7084	0.005	-0.399
Mof_O 	O 	0.8874	0.84	0.63441	-0.404
Mof_O 	O 	0.7826	0.4076	0.7782	-0.485
_end
