data_functionalizedCrystal
_audit_creation_method	'EQeq! by Chris Wilmer'
_symmetry_space_group_name_H-M	'P1'
_symmetry_Int_Tables_number	1
_symmetry_cell_setting	triclinic
loop_
_symmetry_equiv_pos_as_xyz
  x,y,z
_cell_length_a	35.7192
_cell_length_b	35.7192
_cell_length_c	17.1093
_cell_angle_alpha	90
_cell_angle_beta	90
_cell_angle_gamma	120
loop_
_atom_site_label
_atom_site_type_symbol
_atom_site_fract_x
_atom_site_fract_y
_atom_site_fract_z
_atom_site_charge
Mof_O 	O 	0.89862	0.17842	0.12148	-0.411
Mof_O 	O 	0.88887	0.18833	0.2481	-0.408
Mof_C 	C 	0.91126	0.18853	0.1897	0.368
Mof_C 	C 	0.95754	0.20207	0.2076	-0.128
Mof_C 	C 	0.98526	0.20454	0.1489	0.068
Mof_C 	C 	0.97327	0.21343	0.2826	0.063
Mof_H 	H 	0.9749	0.1966	0.0969	0.025
Mof_C 	C 	0.02851	0.21885	0.1664	-0.148
Mof_C 	C 	0.01662	0.2282	0.2991	-0.143
Mof_H 	H 	0.9543	0.2112	0.3235	0.025
Mof_C 	C 	0.04469	0.2316	0.2383	0.111
Mof_H 	H 	0.0471	0.2196	0.126	0.093
Mof_H 	H 	0.0272	0.2359	0.3511	0.079
Mof_C 	C 	0.09167	0.25087	0.2572	-0.07
Mof_C 	C 	0.11236	0.2909	0.2945	-0.043
Mof_H 	H 	0.0961	0.3046	0.3066	0.044
Mof_H 	H 	0.0543	0.1538	0.2888	0.044
Mof_O 	O 	0.56529	0.51175	0.45481	-0.411
Mof_O 	O 	0.55554	0.52166	0.58143	-0.408
Mof_C 	C 	0.57793	0.52186	0.52303	0.368
Mof_C 	C 	0.62421	0.5354	0.54093	-0.128
Mof_C 	C 	0.65193	0.53787	0.48223	0.068
Mof_C 	C 	0.63994	0.54676	0.61593	0.063
Mof_H 	H 	0.64157	0.52993	0.43023	0.025
Mof_C 	C 	0.69518	0.55218	0.49973	-0.148
Mof_C 	C 	0.68329	0.56153	0.63243	-0.143
Mof_H 	H 	0.62097	0.54453	0.65683	0.025
Mof_C 	C 	0.71136	0.56493	0.57163	0.111
Mof_H 	H 	0.71377	0.55293	0.45933	0.093
Mof_H 	H 	0.69387	0.56923	0.68443	0.079
Mof_C 	C 	0.75834	0.5842	0.59053	-0.07
Mof_C 	C 	0.77903	0.62423	0.62783	-0.043
Mof_H 	H 	0.76277	0.63793	0.63993	0.044
Mof_H 	H 	0.72097	0.48713	0.62213	0.044
Mof_O 	O 	0.23195	0.84509	0.78815	-0.411
Mof_O 	O 	0.2222	0.855	0.91477	-0.408
Mof_C 	C 	0.24459	0.8552	0.85637	0.368
Mof_C 	C 	0.29087	0.86874	0.87427	-0.128
Mof_C 	C 	0.31859	0.87121	0.81557	0.068
Mof_C 	C 	0.3066	0.8801	0.94927	0.063
Mof_H 	H 	0.30823	0.86327	0.76357	0.025
Mof_C 	C 	0.36184	0.88552	0.83307	-0.148
Mof_C 	C 	0.34995	0.89487	0.96577	-0.143
Mof_H 	H 	0.28763	0.87787	0.99017	0.025
Mof_C 	C 	0.37802	0.89827	0.90497	0.111
Mof_H 	H 	0.38043	0.88627	0.79267	0.093
Mof_H 	H 	0.36053	0.90257	0.01777	0.079
Mof_C 	C 	0.425	0.91754	0.92387	-0.07
Mof_C 	C 	0.44569	0.95757	0.96117	-0.043
Mof_H 	H 	0.42943	0.97127	0.97327	0.044
Mof_H 	H 	0.38763	0.82047	0.95547	0.045
Mof_O 	O 	0.82158	0.7202	0.12148	-0.41
Mof_O 	O 	0.81167	0.70054	0.2481	-0.407
Mof_C 	C 	0.81147	0.72273	0.1897	0.369
Mof_C 	C 	0.79793	0.75547	0.2076	-0.127
Mof_C 	C 	0.79546	0.78072	0.1489	0.069
Mof_C 	C 	0.78657	0.75984	0.2826	0.064
Mof_H 	H 	0.8034	0.7783	0.0969	0.026
Mof_C 	C 	0.78115	0.80966	0.1664	-0.147
Mof_C 	C 	0.7718	0.78842	0.2991	-0.142
Mof_H 	H 	0.7888	0.7431	0.3235	0.026
Mof_C 	C 	0.7684	0.81309	0.2383	0.112
Mof_H 	H 	0.7804	0.8275	0.126	0.094
Mof_H 	H 	0.7641	0.7913	0.3511	0.08
Mof_C 	C 	0.74913	0.8408	0.2572	-0.069
Mof_C 	C 	0.7091	0.82146	0.2945	-0.042
Mof_H 	H 	0.6954	0.7915	0.3066	0.045
Mof_H 	H 	0.8462	0.9005	0.2888	0.045
Mof_O 	O 	0.48825	0.05353	0.45481	-0.41
Mof_O 	O 	0.47834	0.03387	0.58143	-0.407
Mof_C 	C 	0.47814	0.05606	0.52303	0.369
Mof_C 	C 	0.4646	0.0888	0.54093	-0.127
Mof_C 	C 	0.46213	0.11405	0.48223	0.069
Mof_C 	C 	0.45324	0.09317	0.61593	0.064
Mof_H 	H 	0.47007	0.11163	0.43023	0.026
Mof_C 	C 	0.44782	0.14299	0.49973	-0.147
Mof_C 	C 	0.43847	0.12175	0.63243	-0.142
Mof_H 	H 	0.45547	0.07643	0.65683	0.026
Mof_C 	C 	0.43507	0.14642	0.57163	0.112
Mof_H 	H 	0.44707	0.16083	0.45933	0.094
Mof_H 	H 	0.43077	0.12463	0.68443	0.08
Mof_C 	C 	0.4158	0.17413	0.59053	-0.069
Mof_C 	C 	0.37577	0.15479	0.62783	-0.042
Mof_H 	H 	0.36207	0.12483	0.63993	0.045
Mof_H 	H 	0.51287	0.23383	0.62213	0.045
Mof_O 	O 	0.15491	0.38687	0.78815	-0.41
Mof_O 	O 	0.145	0.36721	0.91477	-0.407
Mof_C 	C 	0.1448	0.3894	0.85637	0.369
Mof_C 	C 	0.13126	0.42214	0.87427	-0.127
Mof_C 	C 	0.12879	0.44739	0.81557	0.069
Mof_C 	C 	0.1199	0.42651	0.94927	0.064
Mof_H 	H 	0.13673	0.44497	0.76357	0.026
Mof_C 	C 	0.11448	0.47633	0.83307	-0.147
Mof_C 	C 	0.10513	0.45509	0.96577	-0.142
Mof_H 	H 	0.12213	0.40977	0.99017	0.026
Mof_C 	C 	0.10173	0.47976	0.90497	0.112
Mof_H 	H 	0.11373	0.49417	0.79267	0.094
Mof_H 	H 	0.09743	0.45797	0.01777	0.08
Mof_C 	C 	0.08246	0.50747	0.92387	-0.069
Mof_C 	C 	0.04243	0.48813	0.96117	-0.042
Mof_H 	H 	0.02873	0.45817	0.97327	0.045
Mof_H 	H 	0.17953	0.56717	0.95547	0.045
Mof_O 	O 	0.2798	0.10138	0.12148	-0.41
Mof_O 	O 	0.29946	0.11113	0.2481	-0.407
Mof_C 	C 	0.27727	0.08874	0.1897	0.369
Mof_C 	C 	0.24453	0.04246	0.2076	-0.127
Mof_C 	C 	0.21928	0.01474	0.1489	0.069
Mof_C 	C 	0.24016	0.02673	0.2826	0.064
Mof_H 	H 	0.2217	0.0251	0.0969	0.026
Mof_C 	C 	0.19034	0.97149	0.1664	-0.147
Mof_C 	C 	0.21158	0.98338	0.2991	-0.142
Mof_H 	H 	0.2569	0.0457	0.3235	0.026
Mof_C 	C 	0.18691	0.95531	0.2383	0.112
Mof_H 	H 	0.1725	0.9529	0.126	0.094
Mof_H 	H 	0.2087	0.9728	0.3511	0.08
Mof_C 	C 	0.1592	0.90833	0.2572	-0.069
Mof_C 	C 	0.17854	0.88764	0.2945	-0.042
Mof_H 	H 	0.2085	0.9039	0.3066	0.045
Mof_H 	H 	0.0995	0.9457	0.2888	0.045
Mof_O 	O 	0.94647	0.43471	0.45481	-0.41
Mof_O 	O 	0.96613	0.44446	0.58143	-0.407
Mof_C 	C 	0.94394	0.42207	0.52303	0.369
Mof_C 	C 	0.9112	0.37579	0.54093	-0.127
Mof_C 	C 	0.88595	0.34807	0.48223	0.069
Mof_C 	C 	0.90683	0.36006	0.61593	0.064
Mof_H 	H 	0.88837	0.35843	0.43023	0.026
Mof_C 	C 	0.85701	0.30482	0.49973	-0.147
Mof_C 	C 	0.87825	0.31671	0.63243	-0.142
Mof_H 	H 	0.92357	0.37903	0.65683	0.026
Mof_C 	C 	0.85358	0.28864	0.57163	0.112
Mof_H 	H 	0.83917	0.28623	0.45933	0.094
Mof_H 	H 	0.87537	0.30613	0.68443	0.08
Mof_C 	C 	0.82587	0.24166	0.59053	-0.069
Mof_C 	C 	0.84521	0.22097	0.62783	-0.042
Mof_H 	H 	0.87517	0.23723	0.63993	0.045
Mof_H 	H 	0.76617	0.27903	0.62213	0.044
Mof_O 	O 	0.61313	0.76805	0.78815	-0.41
Mof_O 	O 	0.63279	0.7778	0.91477	-0.407
Mof_C 	C 	0.6106	0.75541	0.85637	0.369
Mof_C 	C 	0.57786	0.70913	0.87427	-0.127
Mof_C 	C 	0.55261	0.68141	0.81557	0.069
Mof_C 	C 	0.57349	0.6934	0.94927	0.064
Mof_H 	H 	0.55503	0.69177	0.76357	0.026
Mof_C 	C 	0.52367	0.63816	0.83307	-0.147
Mof_C 	C 	0.54491	0.65005	0.96577	-0.142
Mof_H 	H 	0.59023	0.71237	0.99017	0.026
Mof_C 	C 	0.52024	0.62198	0.90497	0.112
Mof_H 	H 	0.50583	0.61957	0.79267	0.094
Mof_H 	H 	0.54203	0.63947	0.01777	0.08
Mof_C 	C 	0.49253	0.575	0.92387	-0.069
Mof_C 	C 	0.51187	0.55431	0.96117	-0.042
Mof_H 	H 	0.54183	0.57057	0.97327	0.045
Mof_H 	H 	0.43283	0.61237	0.95547	0.045
Mof_O 	O 	0.17842	0.89862	0.87852	-0.41
Mof_O 	O 	0.18833	0.88887	0.7519	-0.407
Mof_C 	C 	0.18853	0.91126	0.8103	0.369
Mof_C 	C 	0.20207	0.95754	0.7924	-0.127
Mof_C 	C 	0.20454	0.98526	0.8511	0.069
Mof_C 	C 	0.21343	0.97327	0.7174	0.064
Mof_H 	H 	0.1966	0.9749	0.9031	0.026
Mof_C 	C 	0.21885	0.02851	0.8336	-0.147
Mof_C 	C 	0.2282	0.01662	0.7009	-0.142
Mof_H 	H 	0.2112	0.9543	0.6765	0.026
Mof_C 	C 	0.2316	0.04469	0.7617	0.112
Mof_H 	H 	0.2196	0.0471	0.874	0.094
Mof_H 	H 	0.2359	0.0272	0.6489	0.08
Mof_C 	C 	0.25087	0.09167	0.7428	-0.069
Mof_C 	C 	0.2909	0.11236	0.7055	-0.042
Mof_H 	H 	0.3046	0.0961	0.6934	0.045
Mof_H 	H 	0.1538	0.0543	0.7112	0.045
Mof_O 	O 	0.84509	0.23195	0.21185	-0.41
Mof_O 	O 	0.855	0.2222	0.08523	-0.407
Mof_C 	C 	0.8552	0.24459	0.14363	0.369
Mof_C 	C 	0.86874	0.29087	0.12573	-0.127
Mof_C 	C 	0.87121	0.31859	0.18443	0.069
Mof_C 	C 	0.8801	0.3066	0.05073	0.064
Mof_H 	H 	0.86327	0.30823	0.23643	0.026
Mof_C 	C 	0.88552	0.36184	0.16693	-0.147
Mof_C 	C 	0.89487	0.34995	0.03423	-0.142
Mof_H 	H 	0.87787	0.28763	0.00983	0.026
Mof_C 	C 	0.89827	0.37802	0.09503	0.112
Mof_H 	H 	0.88627	0.38043	0.20733	0.094
Mof_H 	H 	0.90257	0.36053	0.98223	0.08
Mof_C 	C 	0.91754	0.425	0.07613	-0.069
Mof_C 	C 	0.95757	0.44569	0.03883	-0.042
Mof_H 	H 	0.97127	0.42943	0.02673	0.045
Mof_H 	H 	0.82047	0.38763	0.04453	0.045
Mof_O 	O 	0.51175	0.56529	0.54519	-0.41
Mof_O 	O 	0.52166	0.55554	0.41857	-0.407
Mof_C 	C 	0.52186	0.57793	0.47697	0.369
Mof_C 	C 	0.5354	0.62421	0.45907	-0.127
Mof_C 	C 	0.53787	0.65193	0.51777	0.069
Mof_C 	C 	0.54676	0.63994	0.38407	0.064
Mof_H 	H 	0.52993	0.64157	0.56977	0.026
Mof_C 	C 	0.55218	0.69518	0.50027	-0.147
Mof_C 	C 	0.56153	0.68329	0.36757	-0.142
Mof_H 	H 	0.54453	0.62097	0.34317	0.026
Mof_C 	C 	0.56493	0.71136	0.42837	0.112
Mof_H 	H 	0.55293	0.71377	0.54067	0.094
Mof_H 	H 	0.56923	0.69387	0.31557	0.08
Mof_C 	C 	0.5842	0.75834	0.40947	-0.069
Mof_C 	C 	0.62423	0.77903	0.37217	-0.042
Mof_H 	H 	0.63793	0.76277	0.36007	0.045
Mof_H 	H 	0.48713	0.72097	0.37787	0.045
Mof_O 	O 	0.7202	0.82158	0.87852	-0.41
Mof_O 	O 	0.70054	0.81167	0.7519	-0.407
Mof_C 	C 	0.72273	0.81147	0.8103	0.369
Mof_C 	C 	0.75547	0.79793	0.7924	-0.127
Mof_C 	C 	0.78072	0.79546	0.8511	0.069
Mof_C 	C 	0.75984	0.78657	0.7174	0.064
Mof_H 	H 	0.7783	0.8034	0.9031	0.026
Mof_C 	C 	0.80966	0.78115	0.8336	-0.147
Mof_C 	C 	0.78842	0.7718	0.7009	-0.142
Mof_H 	H 	0.7431	0.7888	0.6765	0.026
Mof_C 	C 	0.81309	0.7684	0.7617	0.112
Mof_H 	H 	0.8275	0.7804	0.874	0.094
Mof_H 	H 	0.7913	0.7641	0.6489	0.08
Mof_C 	C 	0.8408	0.74913	0.7428	-0.069
Mof_C 	C 	0.82146	0.7091	0.7055	-0.042
Mof_H 	H 	0.7915	0.6954	0.6934	0.045
Mof_H 	H 	0.9005	0.8462	0.7112	0.045
Mof_O 	O 	0.38687	0.15491	0.21185	-0.41
Mof_O 	O 	0.36721	0.145	0.08523	-0.407
Mof_C 	C 	0.3894	0.1448	0.14363	0.369
Mof_C 	C 	0.42214	0.13126	0.12573	-0.127
Mof_C 	C 	0.44739	0.12879	0.18443	0.069
Mof_C 	C 	0.42651	0.1199	0.05073	0.064
Mof_H 	H 	0.44497	0.13673	0.23643	0.026
Mof_C 	C 	0.47633	0.11448	0.16693	-0.147
Mof_C 	C 	0.45509	0.10513	0.03423	-0.142
Mof_H 	H 	0.40977	0.12213	0.00983	0.026
Mof_C 	C 	0.47976	0.10173	0.09503	0.112
Mof_H 	H 	0.49417	0.11373	0.20733	0.094
Mof_H 	H 	0.45797	0.09743	0.98223	0.08
Mof_C 	C 	0.50747	0.08246	0.07613	-0.069
Mof_C 	C 	0.48813	0.04243	0.03883	-0.042
Mof_H 	H 	0.45817	0.02873	0.02673	0.045
Mof_H 	H 	0.56717	0.17953	0.04453	0.045
Mof_O 	O 	0.05353	0.48825	0.54519	-0.41
Mof_O 	O 	0.03387	0.47834	0.41857	-0.407
Mof_C 	C 	0.05606	0.47814	0.47697	0.369
Mof_C 	C 	0.0888	0.4646	0.45907	-0.127
Mof_C 	C 	0.11405	0.46213	0.51777	0.069
Mof_C 	C 	0.09317	0.45324	0.38407	0.064
Mof_H 	H 	0.11163	0.47007	0.56977	0.026
Mof_C 	C 	0.14299	0.44782	0.50027	-0.147
Mof_C 	C 	0.12175	0.43847	0.36757	-0.142
Mof_H 	H 	0.07643	0.45547	0.34317	0.026
Mof_C 	C 	0.14642	0.43507	0.42837	0.112
Mof_H 	H 	0.16083	0.44707	0.54067	0.094
Mof_H 	H 	0.12463	0.43077	0.31557	0.08
Mof_C 	C 	0.17413	0.4158	0.40947	-0.069
Mof_C 	C 	0.15479	0.37577	0.37217	-0.042
Mof_H 	H 	0.12483	0.36207	0.36007	0.045
Mof_H 	H 	0.23383	0.51287	0.37787	0.045
Mof_O 	O 	0.10138	0.2798	0.87852	-0.41
Mof_O 	O 	0.11113	0.29946	0.7519	-0.407
Mof_C 	C 	0.08874	0.27727	0.8103	0.369
Mof_C 	C 	0.04246	0.24453	0.7924	-0.127
Mof_C 	C 	0.01474	0.21928	0.8511	0.069
Mof_C 	C 	0.02673	0.24016	0.7174	0.064
Mof_H 	H 	0.0251	0.2217	0.9031	0.026
Mof_C 	C 	0.97149	0.19034	0.8336	-0.147
Mof_C 	C 	0.98338	0.21158	0.7009	-0.142
Mof_H 	H 	0.0457	0.2569	0.6765	0.026
Mof_C 	C 	0.95531	0.18691	0.7617	0.112
Mof_H 	H 	0.9529	0.1725	0.874	0.094
Mof_H 	H 	0.9728	0.2087	0.6489	0.08
Mof_C 	C 	0.90833	0.1592	0.7428	-0.069
Mof_C 	C 	0.88764	0.17854	0.7055	-0.042
Mof_H 	H 	0.9039	0.2085	0.6934	0.045
Mof_H 	H 	0.9457	0.0995	0.7112	0.045
Mof_O 	O 	0.76805	0.61313	0.21185	-0.41
Mof_O 	O 	0.7778	0.63279	0.08523	-0.407
Mof_C 	C 	0.75541	0.6106	0.14363	0.369
Mof_C 	C 	0.70913	0.57786	0.12573	-0.127
Mof_C 	C 	0.68141	0.55261	0.18443	0.069
Mof_C 	C 	0.6934	0.57349	0.05073	0.064
Mof_H 	H 	0.69177	0.55503	0.23643	0.026
Mof_C 	C 	0.63816	0.52367	0.16693	-0.147
Mof_C 	C 	0.65005	0.54491	0.03423	-0.142
Mof_H 	H 	0.71237	0.59023	0.00983	0.026
Mof_C 	C 	0.62198	0.52024	0.09503	0.112
Mof_H 	H 	0.61957	0.50583	0.20733	0.094
Mof_H 	H 	0.63947	0.54203	0.98223	0.08
Mof_C 	C 	0.575	0.49253	0.07613	-0.069
Mof_C 	C 	0.55431	0.51187	0.03883	-0.042
Mof_H 	H 	0.57057	0.54183	0.02673	0.045
Mof_H 	H 	0.61237	0.43283	0.04453	0.045
Mof_O 	O 	0.43471	0.94647	0.54519	-0.41
Mof_O 	O 	0.44446	0.96613	0.41857	-0.407
Mof_C 	C 	0.42207	0.94394	0.47697	0.369
Mof_C 	C 	0.37579	0.9112	0.45907	-0.127
Mof_C 	C 	0.34807	0.88595	0.51777	0.069
Mof_C 	C 	0.36006	0.90683	0.38407	0.064
Mof_H 	H 	0.35843	0.88837	0.56977	0.026
Mof_C 	C 	0.30482	0.85701	0.50027	-0.147
Mof_C 	C 	0.31671	0.87825	0.36757	-0.142
Mof_H 	H 	0.37903	0.92357	0.34317	0.026
Mof_C 	C 	0.28864	0.85358	0.42837	0.112
Mof_H 	H 	0.28623	0.83917	0.54067	0.094
Mof_H 	H 	0.30613	0.87537	0.31557	0.08
Mof_C 	C 	0.24166	0.82587	0.40947	-0.069
Mof_C 	C 	0.22097	0.84521	0.37217	-0.042
Mof_H 	H 	0.23723	0.87517	0.36007	0.045
Mof_H 	H 	0.27903	0.76617	0.37787	0.044
Mof_O 	O 	0.10138	0.82158	0.87852	-0.41
Mof_O 	O 	0.11113	0.81167	0.7519	-0.407
Mof_C 	C 	0.08874	0.81147	0.8103	0.369
Mof_C 	C 	0.04246	0.79793	0.7924	-0.127
Mof_C 	C 	0.01474	0.79546	0.8511	0.069
Mof_C 	C 	0.02673	0.78657	0.7174	0.064
Mof_H 	H 	0.0251	0.8034	0.9031	0.026
Mof_C 	C 	0.97149	0.78115	0.8336	-0.147
Mof_C 	C 	0.98338	0.7718	0.7009	-0.142
Mof_H 	H 	0.0457	0.7888	0.6765	0.026
Mof_C 	C 	0.95531	0.7684	0.7617	0.112
Mof_H 	H 	0.9529	0.7804	0.874	0.094
Mof_H 	H 	0.9728	0.7641	0.6489	0.08
Mof_C 	C 	0.90833	0.74913	0.7428	-0.069
Mof_C 	C 	0.88764	0.7091	0.7055	-0.042
Mof_H 	H 	0.9039	0.6954	0.6934	0.045
Mof_H 	H 	0.9457	0.8462	0.7112	0.045
Mof_O 	O 	0.76805	0.15491	0.21185	-0.41
Mof_O 	O 	0.7778	0.145	0.08523	-0.407
Mof_C 	C 	0.75541	0.1448	0.14363	0.369
Mof_C 	C 	0.70913	0.13126	0.12573	-0.127
Mof_C 	C 	0.68141	0.12879	0.18443	0.069
Mof_C 	C 	0.6934	0.1199	0.05073	0.064
Mof_H 	H 	0.69177	0.13673	0.23643	0.026
Mof_C 	C 	0.63816	0.11448	0.16693	-0.147
Mof_C 	C 	0.65005	0.10513	0.03423	-0.142
Mof_H 	H 	0.71237	0.12213	0.00983	0.026
Mof_C 	C 	0.62198	0.10173	0.09503	0.112
Mof_H 	H 	0.61957	0.11373	0.20733	0.094
Mof_H 	H 	0.63947	0.09743	0.98223	0.08
Mof_C 	C 	0.575	0.08246	0.07613	-0.069
Mof_C 	C 	0.55431	0.04243	0.03883	-0.042
Mof_H 	H 	0.57057	0.02873	0.02673	0.045
Mof_H 	H 	0.61237	0.17953	0.04453	0.045
Mof_O 	O 	0.43471	0.48825	0.54519	-0.41
Mof_O 	O 	0.44446	0.47834	0.41857	-0.407
Mof_C 	C 	0.42207	0.47814	0.47697	0.369
Mof_C 	C 	0.37579	0.4646	0.45907	-0.127
Mof_C 	C 	0.34807	0.46213	0.51777	0.069
Mof_C 	C 	0.36006	0.45324	0.38407	0.064
Mof_H 	H 	0.35843	0.47007	0.56977	0.026
Mof_C 	C 	0.30482	0.44782	0.50027	-0.147
Mof_C 	C 	0.31671	0.43847	0.36757	-0.142
Mof_H 	H 	0.37903	0.45547	0.34317	0.026
Mof_C 	C 	0.28864	0.43507	0.42837	0.112
Mof_H 	H 	0.28623	0.44707	0.54067	0.094
Mof_H 	H 	0.30613	0.43077	0.31557	0.08
Mof_C 	C 	0.24166	0.4158	0.40947	-0.069
Mof_C 	C 	0.22097	0.37577	0.37217	-0.042
Mof_H 	H 	0.23723	0.36207	0.36007	0.045
Mof_H 	H 	0.27903	0.51287	0.37787	0.045
Mof_O 	O 	0.17842	0.2798	0.87852	-0.41
Mof_O 	O 	0.18833	0.29946	0.7519	-0.407
Mof_C 	C 	0.18853	0.27727	0.8103	0.369
Mof_C 	C 	0.20207	0.24453	0.7924	-0.127
Mof_C 	C 	0.20454	0.21928	0.8511	0.069
Mof_C 	C 	0.21343	0.24016	0.7174	0.064
Mof_H 	H 	0.1966	0.2217	0.9031	0.026
Mof_C 	C 	0.21885	0.19034	0.8336	-0.147
Mof_C 	C 	0.2282	0.21158	0.7009	-0.142
Mof_H 	H 	0.2112	0.2569	0.6765	0.026
Mof_C 	C 	0.2316	0.18691	0.7617	0.112
Mof_H 	H 	0.2196	0.1725	0.874	0.094
Mof_H 	H 	0.2359	0.2087	0.6489	0.08
Mof_C 	C 	0.25087	0.1592	0.7428	-0.069
Mof_C 	C 	0.2909	0.17854	0.7055	-0.042
Mof_H 	H 	0.3046	0.2085	0.6934	0.045
Mof_H 	H 	0.1538	0.0995	0.7112	0.045
Mof_O 	O 	0.84509	0.61313	0.21185	-0.41
Mof_O 	O 	0.855	0.63279	0.08523	-0.407
Mof_C 	C 	0.8552	0.6106	0.14363	0.369
Mof_C 	C 	0.86874	0.57786	0.12573	-0.127
Mof_C 	C 	0.87121	0.55261	0.18443	0.069
Mof_C 	C 	0.8801	0.57349	0.05073	0.064
Mof_H 	H 	0.86327	0.55503	0.23643	0.026
Mof_C 	C 	0.88552	0.52367	0.16693	-0.147
Mof_C 	C 	0.89487	0.54491	0.03423	-0.142
Mof_H 	H 	0.87787	0.59023	0.00983	0.026
Mof_C 	C 	0.89827	0.52024	0.09503	0.112
Mof_H 	H 	0.88627	0.50583	0.20733	0.094
Mof_H 	H 	0.90257	0.54203	0.98223	0.08
Mof_C 	C 	0.91754	0.49253	0.07613	-0.069
Mof_C 	C 	0.95757	0.51187	0.03883	-0.042
Mof_H 	H 	0.97127	0.54183	0.02673	0.045
Mof_H 	H 	0.82047	0.43283	0.04453	0.045
Mof_O 	O 	0.51175	0.94647	0.54519	-0.41
Mof_O 	O 	0.52166	0.96613	0.41857	-0.407
Mof_C 	C 	0.52186	0.94394	0.47697	0.369
Mof_C 	C 	0.5354	0.9112	0.45907	-0.127
Mof_C 	C 	0.53787	0.88595	0.51777	0.069
Mof_C 	C 	0.54676	0.90683	0.38407	0.064
Mof_H 	H 	0.52993	0.88837	0.56977	0.026
Mof_C 	C 	0.55218	0.85701	0.50027	-0.147
Mof_C 	C 	0.56153	0.87825	0.36757	-0.142
Mof_H 	H 	0.54453	0.92357	0.34317	0.026
Mof_C 	C 	0.56493	0.85358	0.42837	0.112
Mof_H 	H 	0.55293	0.83917	0.54067	0.094
Mof_H 	H 	0.56923	0.87537	0.31557	0.08
Mof_C 	C 	0.5842	0.82587	0.40947	-0.069
Mof_C 	C 	0.62423	0.84521	0.37217	-0.042
Mof_H 	H 	0.63793	0.87517	0.36007	0.045
Mof_H 	H 	0.48713	0.76617	0.37787	0.045
Mof_O 	O 	0.7202	0.89862	0.87852	-0.41
Mof_O 	O 	0.70054	0.88887	0.7519	-0.407
Mof_C 	C 	0.72273	0.91126	0.8103	0.369
Mof_C 	C 	0.75547	0.95754	0.7924	-0.127
Mof_C 	C 	0.78072	0.98526	0.8511	0.069
Mof_C 	C 	0.75984	0.97327	0.7174	0.064
Mof_H 	H 	0.7783	0.9749	0.9031	0.026
Mof_C 	C 	0.80966	0.02851	0.8336	-0.147
Mof_C 	C 	0.78842	0.01662	0.7009	-0.142
Mof_H 	H 	0.7431	0.9543	0.6765	0.026
Mof_C 	C 	0.81309	0.04469	0.7617	0.112
Mof_H 	H 	0.8275	0.0471	0.874	0.094
Mof_H 	H 	0.7913	0.0272	0.6489	0.08
Mof_C 	C 	0.8408	0.09167	0.7428	-0.069
Mof_C 	C 	0.82146	0.11236	0.7055	-0.042
Mof_H 	H 	0.7915	0.0961	0.6934	0.045
Mof_H 	H 	0.9005	0.0543	0.7112	0.045
Mof_O 	O 	0.38687	0.23195	0.21185	-0.41
Mof_O 	O 	0.36721	0.2222	0.08523	-0.407
Mof_C 	C 	0.3894	0.24459	0.14363	0.369
Mof_C 	C 	0.42214	0.29087	0.12573	-0.127
Mof_C 	C 	0.44739	0.31859	0.18443	0.069
Mof_C 	C 	0.42651	0.3066	0.05073	0.064
Mof_H 	H 	0.44497	0.30823	0.23643	0.026
Mof_C 	C 	0.47633	0.36184	0.16693	-0.147
Mof_C 	C 	0.45509	0.34995	0.03423	-0.142
Mof_H 	H 	0.40977	0.28763	0.00983	0.026
Mof_C 	C 	0.47976	0.37802	0.09503	0.112
Mof_H 	H 	0.49417	0.38043	0.20733	0.094
Mof_H 	H 	0.45797	0.36053	0.98223	0.08
Mof_C 	C 	0.50747	0.425	0.07613	-0.069
Mof_C 	C 	0.48813	0.44569	0.03883	-0.042
Mof_H 	H 	0.45817	0.42943	0.02673	0.045
Mof_H 	H 	0.56717	0.38763	0.04453	0.045
Mof_O 	O 	0.05353	0.56529	0.54519	-0.41
Mof_O 	O 	0.03387	0.55554	0.41857	-0.407
Mof_C 	C 	0.05606	0.57793	0.47697	0.369
Mof_C 	C 	0.0888	0.62421	0.45907	-0.127
Mof_C 	C 	0.11405	0.65193	0.51777	0.069
Mof_C 	C 	0.09317	0.63994	0.38407	0.064
Mof_H 	H 	0.11163	0.64157	0.56977	0.026
Mof_C 	C 	0.14299	0.69518	0.50027	-0.147
Mof_C 	C 	0.12175	0.68329	0.36757	-0.142
Mof_H 	H 	0.07643	0.62097	0.34317	0.026
Mof_C 	C 	0.14642	0.71136	0.42837	0.112
Mof_H 	H 	0.16083	0.71377	0.54067	0.094
Mof_H 	H 	0.12463	0.69387	0.31557	0.08
Mof_C 	C 	0.17413	0.75834	0.40947	-0.069
Mof_C 	C 	0.15479	0.77903	0.37217	-0.042
Mof_H 	H 	0.12483	0.76277	0.36007	0.045
Mof_H 	H 	0.23383	0.72097	0.37787	0.044
Mof_O 	O 	0.82158	0.10138	0.12148	-0.41
Mof_O 	O 	0.81167	0.11113	0.2481	-0.407
Mof_C 	C 	0.81147	0.08874	0.1897	0.369
Mof_C 	C 	0.79793	0.04246	0.2076	-0.127
Mof_C 	C 	0.79546	0.01474	0.1489	0.069
Mof_C 	C 	0.78657	0.02673	0.2826	0.064
Mof_H 	H 	0.8034	0.0251	0.0969	0.026
Mof_C 	C 	0.78115	0.97149	0.1664	-0.147
Mof_C 	C 	0.7718	0.98338	0.2991	-0.142
Mof_H 	H 	0.7888	0.0457	0.3235	0.026
Mof_C 	C 	0.7684	0.95531	0.2383	0.112
Mof_H 	H 	0.7804	0.9529	0.126	0.094
Mof_H 	H 	0.7641	0.9728	0.3511	0.08
Mof_C 	C 	0.74913	0.90833	0.2572	-0.069
Mof_C 	C 	0.7091	0.88764	0.2945	-0.042
Mof_H 	H 	0.6954	0.9039	0.3066	0.045
Mof_H 	H 	0.8462	0.9457	0.2888	0.045
Mof_O 	O 	0.48825	0.43471	0.45481	-0.41
Mof_O 	O 	0.47834	0.44446	0.58143	-0.407
Mof_C 	C 	0.47814	0.42207	0.52303	0.369
Mof_C 	C 	0.4646	0.37579	0.54093	-0.127
Mof_C 	C 	0.46213	0.34807	0.48223	0.069
Mof_C 	C 	0.45324	0.36006	0.61593	0.064
Mof_H 	H 	0.47007	0.35843	0.43023	0.026
Mof_C 	C 	0.44782	0.30482	0.49973	-0.147
Mof_C 	C 	0.43847	0.31671	0.63243	-0.142
Mof_H 	H 	0.45547	0.37903	0.65683	0.026
Mof_C 	C 	0.43507	0.28864	0.57163	0.112
Mof_H 	H 	0.44707	0.28623	0.45933	0.094
Mof_H 	H 	0.43077	0.30613	0.68443	0.08
Mof_C 	C 	0.4158	0.24166	0.59053	-0.069
Mof_C 	C 	0.37577	0.22097	0.62783	-0.042
Mof_H 	H 	0.36207	0.23723	0.63993	0.045
Mof_H 	H 	0.51287	0.27903	0.62213	0.045
Mof_O 	O 	0.15491	0.76805	0.78815	-0.41
Mof_O 	O 	0.145	0.7778	0.91477	-0.407
Mof_C 	C 	0.1448	0.75541	0.85637	0.369
Mof_C 	C 	0.13126	0.70913	0.87427	-0.127
Mof_C 	C 	0.12879	0.68141	0.81557	0.069
Mof_C 	C 	0.1199	0.6934	0.94927	0.064
Mof_H 	H 	0.13673	0.69177	0.76357	0.026
Mof_C 	C 	0.11448	0.63816	0.83307	-0.147
Mof_C 	C 	0.10513	0.65005	0.96577	-0.142
Mof_H 	H 	0.12213	0.71237	0.99017	0.026
Mof_C 	C 	0.10173	0.62198	0.90497	0.112
Mof_H 	H 	0.11373	0.61957	0.79267	0.094
Mof_H 	H 	0.09743	0.63947	0.01777	0.08
Mof_C 	C 	0.08246	0.575	0.92387	-0.069
Mof_C 	C 	0.04243	0.55431	0.96117	-0.042
Mof_H 	H 	0.02873	0.57057	0.97327	0.045
Mof_H 	H 	0.17953	0.61237	0.95547	0.045
Mof_O 	O 	0.2798	0.17842	0.12148	-0.41
Mof_O 	O 	0.29946	0.18833	0.2481	-0.407
Mof_C 	C 	0.27727	0.18853	0.1897	0.369
Mof_C 	C 	0.24453	0.20207	0.2076	-0.127
Mof_C 	C 	0.21928	0.20454	0.1489	0.069
Mof_C 	C 	0.24016	0.21343	0.2826	0.064
Mof_H 	H 	0.2217	0.1966	0.0969	0.026
Mof_C 	C 	0.19034	0.21885	0.1664	-0.147
Mof_C 	C 	0.21158	0.2282	0.2991	-0.142
Mof_H 	H 	0.2569	0.2112	0.3235	0.026
Mof_C 	C 	0.18691	0.2316	0.2383	0.112
Mof_H 	H 	0.1725	0.2196	0.126	0.094
Mof_H 	H 	0.2087	0.2359	0.3511	0.08
Mof_C 	C 	0.1592	0.25087	0.2572	-0.069
Mof_C 	C 	0.17854	0.2909	0.2945	-0.042
Mof_H 	H 	0.2085	0.3046	0.3066	0.045
Mof_H 	H 	0.0995	0.1538	0.2888	0.045
Mof_O 	O 	0.94647	0.51175	0.45481	-0.41
Mof_O 	O 	0.96613	0.52166	0.58143	-0.407
Mof_C 	C 	0.94394	0.52186	0.52303	0.369
Mof_C 	C 	0.9112	0.5354	0.54093	-0.127
Mof_C 	C 	0.88595	0.53787	0.48223	0.069
Mof_C 	C 	0.90683	0.54676	0.61593	0.064
Mof_H 	H 	0.88837	0.52993	0.43023	0.026
Mof_C 	C 	0.85701	0.55218	0.49973	-0.147
Mof_C 	C 	0.87825	0.56153	0.63243	-0.142
Mof_H 	H 	0.92357	0.54453	0.65683	0.026
Mof_C 	C 	0.85358	0.56493	0.57163	0.112
Mof_H 	H 	0.83917	0.55293	0.45933	0.094
Mof_H 	H 	0.87537	0.56923	0.68443	0.08
Mof_C 	C 	0.82587	0.5842	0.59053	-0.069
Mof_C 	C 	0.84521	0.62423	0.62783	-0.042
Mof_H 	H 	0.87517	0.63793	0.63993	0.045
Mof_H 	H 	0.76617	0.48713	0.62213	0.045
Mof_O 	O 	0.61313	0.84509	0.78815	-0.41
Mof_O 	O 	0.63279	0.855	0.91477	-0.407
Mof_C 	C 	0.6106	0.8552	0.85637	0.369
Mof_C 	C 	0.57786	0.86874	0.87427	-0.127
Mof_C 	C 	0.55261	0.87121	0.81557	0.069
Mof_C 	C 	0.57349	0.8801	0.94927	0.064
Mof_H 	H 	0.55503	0.86327	0.76357	0.026
Mof_C 	C 	0.52367	0.88552	0.83307	-0.147
Mof_C 	C 	0.54491	0.89487	0.96577	-0.142
Mof_H 	H 	0.59023	0.87787	0.99017	0.026
Mof_C 	C 	0.52024	0.89827	0.90497	0.112
Mof_H 	H 	0.50583	0.88627	0.79267	0.094
Mof_H 	H 	0.54203	0.90257	0.01777	0.08
Mof_C 	C 	0.49253	0.91754	0.92387	-0.069
Mof_C 	C 	0.51187	0.95757	0.96117	-0.042
Mof_H 	H 	0.54183	0.97127	0.97327	0.045
Mof_H 	H 	0.43283	0.82047	0.95547	0.045
Mof_O 	O 	0.89862	0.7202	0.12148	-0.41
Mof_O 	O 	0.88887	0.70054	0.2481	-0.407
Mof_C 	C 	0.91126	0.72273	0.1897	0.369
Mof_C 	C 	0.95754	0.75547	0.2076	-0.127
Mof_C 	C 	0.98526	0.78072	0.1489	0.069
Mof_C 	C 	0.97327	0.75984	0.2826	0.064
Mof_H 	H 	0.9749	0.7783	0.0969	0.026
Mof_C 	C 	0.02851	0.80966	0.1664	-0.147
Mof_C 	C 	0.01662	0.78842	0.2991	-0.142
Mof_H 	H 	0.9543	0.7431	0.3235	0.026
Mof_C 	C 	0.04469	0.81309	0.2383	0.112
Mof_H 	H 	0.0471	0.8275	0.126	0.094
Mof_H 	H 	0.0272	0.7913	0.3511	0.08
Mof_C 	C 	0.09167	0.8408	0.2572	-0.069
Mof_C 	C 	0.11236	0.82146	0.2945	-0.042
Mof_H 	H 	0.0961	0.7915	0.3066	0.045
Mof_H 	H 	0.0543	0.9005	0.2888	0.045
Mof_O 	O 	0.56529	0.05353	0.45481	-0.41
Mof_O 	O 	0.55554	0.03387	0.58143	-0.407
Mof_C 	C 	0.57793	0.05606	0.52303	0.369
Mof_C 	C 	0.62421	0.0888	0.54093	-0.127
Mof_C 	C 	0.65193	0.11405	0.48223	0.069
Mof_C 	C 	0.63994	0.09317	0.61593	0.064
Mof_H 	H 	0.64157	0.11163	0.43023	0.026
Mof_C 	C 	0.69518	0.14299	0.49973	-0.147
Mof_C 	C 	0.68329	0.12175	0.63243	-0.142
Mof_H 	H 	0.62097	0.07643	0.65683	0.026
Mof_C 	C 	0.71136	0.14642	0.57163	0.112
Mof_H 	H 	0.71377	0.16083	0.45933	0.094
Mof_H 	H 	0.69387	0.12463	0.68443	0.08
Mof_C 	C 	0.75834	0.17413	0.59053	-0.069
Mof_C 	C 	0.77903	0.15479	0.62783	-0.042
Mof_H 	H 	0.76277	0.12483	0.63993	0.045
Mof_H 	H 	0.72097	0.23383	0.62213	0.044
Mof_O 	O 	0.23195	0.38687	0.78815	-0.41
Mof_O 	O 	0.2222	0.36721	0.91477	-0.407
Mof_C 	C 	0.24459	0.3894	0.85637	0.369
Mof_C 	C 	0.29087	0.42214	0.87427	-0.127
Mof_C 	C 	0.31859	0.44739	0.81557	0.069
Mof_C 	C 	0.3066	0.42651	0.94927	0.064
Mof_H 	H 	0.30823	0.44497	0.76357	0.026
Mof_C 	C 	0.36184	0.47633	0.83307	-0.147
Mof_C 	C 	0.34995	0.45509	0.96577	-0.142
Mof_H 	H 	0.28763	0.40977	0.99017	0.026
Mof_C 	C 	0.37802	0.47976	0.90497	0.112
Mof_H 	H 	0.38043	0.49417	0.79267	0.094
Mof_H 	H 	0.36053	0.45797	0.01777	0.08
Mof_C 	C 	0.425	0.50747	0.92387	-0.069
Mof_C 	C 	0.44569	0.48813	0.96117	-0.042
Mof_H 	H 	0.42943	0.45817	0.97327	0.045
Mof_H 	H 	0.38763	0.56717	0.95547	0.045
Mof_Cu	Cu	0.83892	0.16108	0.09233	0.903
Mof_Cu	Cu	0.50559	0.49441	0.42566	0.903
Mof_Cu	Cu	0.17225	0.82775	0.759	0.903
Mof_Cu	Cu	0.83892	0.67784	0.09233	0.903
Mof_Cu	Cu	0.50559	0.01117	0.42566	0.903
Mof_Cu	Cu	0.17225	0.34451	0.759	0.903
Mof_Cu	Cu	0.32216	0.16108	0.09233	0.903
Mof_Cu	Cu	0.98883	0.49441	0.42566	0.903
Mof_Cu	Cu	0.65549	0.82775	0.759	0.903
Mof_Cu	Cu	0.16108	0.83892	0.90767	0.903
Mof_Cu	Cu	0.82775	0.17225	0.241	0.903
Mof_Cu	Cu	0.49441	0.50559	0.57434	0.903
Mof_Cu	Cu	0.67784	0.83892	0.90767	0.903
Mof_Cu	Cu	0.34451	0.17225	0.241	0.903
Mof_Cu	Cu	0.01117	0.50559	0.57434	0.903
Mof_Cu	Cu	0.16108	0.32216	0.90767	0.903
Mof_Cu	Cu	0.82775	0.65549	0.241	0.903
Mof_Cu	Cu	0.49441	0.98883	0.57434	0.903
Mof_C 	C 	0.11543	0.23086	0.2389	0.134
Mof_C 	C 	0.15578	0.31156	0.3147	0.006
Mof_O 	O 	0.09596	0.19193	0.2012	-0.201
Mof_C 	C 	0.07695	0.1539	0.2553	-0.011
Mof_C 	C 	0.7821	0.56419	0.57223	0.134
Mof_C 	C 	0.82245	0.64489	0.64803	0.006
Mof_O 	O 	0.76263	0.52526	0.53453	-0.201
Mof_C 	C 	0.74362	0.48723	0.58863	-0.011
Mof_C 	C 	0.44876	0.89753	0.90557	0.134
Mof_C 	C 	0.48911	0.97823	0.98137	0.006
Mof_O 	O 	0.4293	0.8586	0.86787	-0.201
Mof_C 	C 	0.41028	0.82057	0.92197	-0.011
Mof_C 	C 	0.76914	0.88457	0.2389	0.134
Mof_C 	C 	0.68844	0.84422	0.3147	0.006
Mof_O 	O 	0.80807	0.90404	0.2012	-0.201
Mof_C 	C 	0.8461	0.92305	0.2553	-0.011
Mof_C 	C 	0.43581	0.2179	0.57223	0.134
Mof_C 	C 	0.35511	0.17755	0.64803	0.006
Mof_O 	O 	0.47474	0.23737	0.53453	-0.201
Mof_C 	C 	0.51277	0.25638	0.58863	-0.011
Mof_C 	C 	0.10247	0.55124	0.90557	0.134
Mof_C 	C 	0.02177	0.51089	0.98137	0.006
Mof_O 	O 	0.1414	0.5707	0.86787	-0.201
Mof_C 	C 	0.17943	0.58972	0.92197	-0.011
Mof_C 	C 	0.11543	0.88457	0.2389	0.134
Mof_C 	C 	0.15578	0.84422	0.3147	0.006
Mof_O 	O 	0.09596	0.90404	0.2012	-0.201
Mof_C 	C 	0.07695	0.92305	0.2553	-0.011
Mof_C 	C 	0.7821	0.2179	0.57223	0.134
Mof_C 	C 	0.82245	0.17755	0.64803	0.006
Mof_O 	O 	0.76263	0.23737	0.53453	-0.201
Mof_C 	C 	0.74362	0.25638	0.58863	-0.011
Mof_C 	C 	0.44876	0.55124	0.90557	0.134
Mof_C 	C 	0.48911	0.51089	0.98137	0.006
Mof_O 	O 	0.4293	0.5707	0.86787	-0.201
Mof_C 	C 	0.41028	0.58972	0.92197	-0.011
Mof_C 	C 	0.23086	0.11543	0.7611	0.134
Mof_C 	C 	0.31156	0.15578	0.6853	0.006
Mof_O 	O 	0.19193	0.09596	0.7988	-0.201
Mof_C 	C 	0.1539	0.07695	0.7447	-0.011
Mof_C 	C 	0.89753	0.44876	0.09443	0.134
Mof_C 	C 	0.97823	0.48911	0.01863	0.006
Mof_O 	O 	0.8586	0.4293	0.13213	-0.201
Mof_C 	C 	0.82057	0.41028	0.07803	-0.011
Mof_C 	C 	0.56419	0.7821	0.42777	0.134
Mof_C 	C 	0.64489	0.82245	0.35197	0.006
Mof_O 	O 	0.52526	0.76263	0.46547	-0.201
Mof_C 	C 	0.48723	0.74362	0.41137	-0.011
Mof_C 	C 	0.88457	0.76914	0.7611	0.134
Mof_C 	C 	0.84422	0.68844	0.6853	0.006
Mof_O 	O 	0.90403	0.80807	0.7988	-0.201
Mof_C 	C 	0.92305	0.8461	0.7447	-0.011
Mof_C 	C 	0.55124	0.10247	0.09443	0.134
Mof_C 	C 	0.51089	0.02177	0.01863	0.006
Mof_O 	O 	0.5707	0.1414	0.13213	-0.201
Mof_C 	C 	0.58972	0.17943	0.07803	-0.011
Mof_C 	C 	0.2179	0.43581	0.42777	0.134
Mof_C 	C 	0.17755	0.35511	0.35197	0.006
Mof_O 	O 	0.23737	0.47474	0.46547	-0.201
Mof_C 	C 	0.25638	0.51277	0.41137	-0.011
Mof_C 	C 	0.88457	0.11543	0.7611	0.134
Mof_C 	C 	0.84422	0.15578	0.6853	0.006
Mof_O 	O 	0.90404	0.09596	0.7988	-0.201
Mof_C 	C 	0.92305	0.07695	0.7447	-0.011
Mof_C 	C 	0.55124	0.44876	0.09443	0.134
Mof_C 	C 	0.51089	0.48911	0.01863	0.006
Mof_O 	O 	0.5707	0.4293	0.13213	-0.201
Mof_C 	C 	0.58972	0.41028	0.07803	-0.011
Mof_C 	C 	0.2179	0.7821	0.42777	0.134
Mof_C 	C 	0.17755	0.82245	0.35197	0.006
Mof_O 	O 	0.23737	0.76263	0.46547	-0.201
Mof_C 	C 	0.25638	0.74362	0.41137	-0.011
_end
