data_functionalizedCrystal
_audit_creation_method	'EQeq! by Chris Wilmer'
_symmetry_space_group_name_H-M	'P1'
_symmetry_Int_Tables_number	1
_symmetry_cell_setting	triclinic
loop_
_symmetry_equiv_pos_as_xyz
  x,y,z
_cell_length_a	18.902
_cell_length_b	30.464
_cell_length_c	31.004
_cell_angle_alpha	90
_cell_angle_beta	90
_cell_angle_gamma	90
loop_
_atom_site_label
_atom_site_type_symbol
_atom_site_fract_x
_atom_site_fract_y
_atom_site_fract_z
_atom_site_charge
Mof_Zn	Zn	0.77172	0.03115	0.5228	1.195
Mof_Zn	Zn	0.84944	0.94588	0.50661	1.19
Mof_Zn	Zn	0.24479	0.00016	0.96021	1.191
Mof_Zn	Zn	0.34739	0.79933	0.73712	1.209
Mof_Zn	Zn	0.32512	0.00388	0.04468	1.191
Mof_Zn	Zn	0.25318	0.79423	0.64294	1.205
Mof_Zn	Zn	0.30068	0.70856	0.285	1.192
Mof_Zn	Zn	0.3287	0.74406	0.18045	1.233
Mof_Zn	Zn	0.33359	0.7057	0.67847	1.15
Mof_Zn	Zn	0.27172	0.96885	0.4772	1.194
Mof_Zn	Zn	0.34944	0.05412	0.49339	1.189
Mof_Zn	Zn	0.74479	0.99984	0.03979	1.19
Mof_Zn	Zn	0.84739	0.20067	0.26288	1.208
Mof_Zn	Zn	0.82512	0.99612	0.95532	1.19
Mof_Zn	Zn	0.75318	0.20577	0.35706	1.204
Mof_Zn	Zn	0.80068	0.29144	0.715	1.19
Mof_Zn	Zn	0.8287	0.25594	0.81955	1.232
Mof_Zn	Zn	0.83359	0.2943	0.32153	1.149
Mof_Zn	Zn	0.77172	0.53115	0.9772	1.194
Mof_Zn	Zn	0.84944	0.44588	0.99339	1.189
Mof_Zn	Zn	0.24479	0.50016	0.53979	1.19
Mof_Zn	Zn	0.34739	0.29933	0.76288	1.208
Mof_Zn	Zn	0.32512	0.50388	0.45532	1.19
Mof_Zn	Zn	0.25318	0.29423	0.85706	1.204
Mof_Zn	Zn	0.30068	0.20856	0.215	1.191
Mof_Zn	Zn	0.3287	0.24406	0.31955	1.232
Mof_Zn	Zn	0.33359	0.2057	0.82153	1.15
Mof_Zn	Zn	0.27172	0.46885	0.0228	1.194
Mof_Zn	Zn	0.34944	0.55412	0.00661	1.189
Mof_Zn	Zn	0.74479	0.49984	0.46021	1.19
Mof_Zn	Zn	0.84739	0.70067	0.23712	1.208
Mof_Zn	Zn	0.82512	0.49612	0.54468	1.19
Mof_Zn	Zn	0.75318	0.70577	0.14294	1.204
Mof_Zn	Zn	0.80068	0.79144	0.785	1.19
Mof_Zn	Zn	0.8287	0.75594	0.68045	1.232
Mof_Zn	Zn	0.83359	0.7943	0.17847	1.149
Mof_H 	H 	0.4238	0.9995	0.8786	0.08
Mof_H 	H 	0.6383	0.0013	0.8737	0.08
Mof_H 	H 	0.537	0.9873	0.9883	0.054
Mof_H 	H 	0.6225	0.0277	0.8102	0.066
Mof_H 	H 	0.6073	0.9784	0.7982	0.064
Mof_H 	H 	0.6624	0.0425	0.7328	0.061
Mof_H 	H 	0.6164	0.0235	0.6947	0.061
Mof_H 	H 	0.4661	0.9887	0.7557	0.054
Mof_H 	H 	0.5251	0.9597	0.7338	0.059
Mof_H 	H 	0.4317	0.0246	0.6231	0.084
Mof_H 	H 	0.3086	0.9194	0.6039	0.045
Mof_H 	H 	0.4209	0.9277	0.7132	0.072
Mof_H 	H 	0.7242	0.9096	0.7473	0.09
Mof_H 	H 	0.8214	0.8928	0.6357	0.063
Mof_H 	H 	0.7095	0.0014	0.6563	0.094
Mof_H 	H 	0.5649	0.9928	0.4851	0.061
Mof_H 	H 	0.4476	0.8888	0.4445	0.092
Mof_H 	H 	0.6531	0.8729	0.4681	0.09
Mof_H 	H 	0.6314	0.801	0.434	0.057
Mof_H 	H 	0.6052	0.8008	0.4822	0.054
Mof_H 	H 	0.6498	0.7161	0.4339	0.043
Mof_H 	H 	0.59	0.6875	0.4556	0.044
Mof_H 	H 	0.459	0.7716	0.4699	0.048
Mof_H 	H 	0.5095	0.7519	0.5053	0.054
Mof_H 	H 	0.399	0.6349	0.4684	0.082
Mof_H 	H 	0.2641	0.6465	0.5661	0.041
Mof_H 	H 	0.3848	0.7504	0.5277	0.079
Mof_H 	H 	0.4709	0.1457	0.7606	0.057
Mof_H 	H 	0.5688	0.2617	0.7439	0.042
Mof_H 	H 	0.6844	0.1507	0.7716	0.081
Mof_H 	H 	0.5237	0.0755	0.7219	0.059
Mof_H 	H 	0.49	0.068	0.7678	0.056
Mof_H 	H 	0.6769	0.6436	0.4769	0.087
Mof_H 	H 	0.8155	0.6282	0.5764	0.063
Mof_H 	H 	0.7101	0.7419	0.5602	0.099
Mof_H 	H 	0.5597	0.735	0.2083	0.045
Mof_H 	H 	0.6805	0.7391	0.3137	0.076
Mof_H 	H 	0.4687	0.7544	0.3248	0.062
Mof_H 	H 	0.4965	0.7732	0.3933	0.048
Mof_H 	H 	0.5042	0.7218	0.3963	0.04
Mof_H 	H 	0.9238	0.0005	0.1214	0.08
Mof_H 	H 	0.1383	0.9987	0.1263	0.081
Mof_H 	H 	0.037	0.0127	0.0117	0.054
Mof_H 	H 	0.1225	0.9723	0.1898	0.064
Mof_H 	H 	0.1073	0.0216	0.2018	0.062
Mof_H 	H 	0.1624	0.9575	0.2672	0.06
Mof_H 	H 	0.1164	0.9765	0.3053	0.06
Mof_H 	H 	0.9661	0.0113	0.2443	0.045
Mof_H 	H 	0.0251	0.0403	0.2662	0.055
Mof_H 	H 	0.9317	0.9754	0.3769	0.084
Mof_H 	H 	0.8086	0.0806	0.3961	0.045
Mof_H 	H 	0.9209	0.0723	0.2868	0.072
Mof_H 	H 	0.2242	0.0904	0.2527	0.091
Mof_H 	H 	0.3214	0.1072	0.3643	0.064
Mof_H 	H 	0.2095	0.9986	0.3437	0.095
Mof_H 	H 	0.0649	0.0072	0.5149	0.06
Mof_H 	H 	0.9476	0.1112	0.5555	0.093
Mof_H 	H 	0.1531	0.1271	0.5319	0.09
Mof_H 	H 	0.1314	0.199	0.566	0.058
Mof_H 	H 	0.1052	0.1992	0.5178	0.055
Mof_H 	H 	0.1498	0.2839	0.5661	0.044
Mof_H 	H 	0.09	0.3125	0.5444	0.047
Mof_H 	H 	0.959	0.2284	0.5301	0.053
Mof_H 	H 	0.0095	0.2481	0.4947	0.063
Mof_H 	H 	0.899	0.3651	0.5316	0.08
Mof_H 	H 	0.7641	0.3535	0.4339	0.04
Mof_H 	H 	0.8848	0.2496	0.4723	0.077
Mof_H 	H 	0.9709	0.8543	0.2394	0.05
Mof_H 	H 	0.0688	0.7383	0.2561	0.043
Mof_H 	H 	0.1844	0.8493	0.2284	0.081
Mof_H 	H 	0.0237	0.9245	0.2781	0.056
Mof_H 	H 	0.99	0.932	0.2322	0.048
Mof_H 	H 	0.1769	0.3564	0.5231	0.087
Mof_H 	H 	0.3155	0.3718	0.4236	0.063
Mof_H 	H 	0.2101	0.2581	0.4398	0.099
Mof_H 	H 	0.0597	0.265	0.7917	0.046
Mof_H 	H 	0.1805	0.2609	0.6863	0.076
Mof_H 	H 	0.9687	0.2456	0.6752	0.056
Mof_H 	H 	0.9965	0.2268	0.6067	0.043
Mof_H 	H 	0.0042	0.2782	0.6037	0.04
Mof_H 	H 	0.4238	0.4995	0.6214	0.079
Mof_H 	H 	0.6383	0.5013	0.6263	0.08
Mof_H 	H 	0.537	0.4873	0.5117	0.054
Mof_H 	H 	0.6225	0.5277	0.6898	0.066
Mof_H 	H 	0.6073	0.4784	0.7018	0.063
Mof_H 	H 	0.6624	0.5425	0.7672	0.061
Mof_H 	H 	0.6164	0.5235	0.8053	0.061
Mof_H 	H 	0.4661	0.4887	0.7443	0.054
Mof_H 	H 	0.5251	0.4597	0.7662	0.059
Mof_H 	H 	0.4317	0.5246	0.8769	0.085
Mof_H 	H 	0.3086	0.4194	0.8961	0.045
Mof_H 	H 	0.4209	0.4277	0.7868	0.072
Mof_H 	H 	0.7242	0.4096	0.7527	0.09
Mof_H 	H 	0.8214	0.3928	0.8643	0.063
Mof_H 	H 	0.7095	0.5014	0.8437	0.094
Mof_H 	H 	0.5649	0.4928	0.0149	0.061
Mof_H 	H 	0.4476	0.3888	0.0555	0.092
Mof_H 	H 	0.6531	0.3729	0.0319	0.09
Mof_H 	H 	0.6314	0.301	0.066	0.057
Mof_H 	H 	0.6052	0.3008	0.0178	0.054
Mof_H 	H 	0.6498	0.2161	0.0661	0.043
Mof_H 	H 	0.59	0.1875	0.0444	0.045
Mof_H 	H 	0.459	0.2716	0.0301	0.049
Mof_H 	H 	0.5095	0.2519	0.9947	0.054
Mof_H 	H 	0.399	0.1349	0.0316	0.082
Mof_H 	H 	0.2641	0.1465	0.9339	0.041
Mof_H 	H 	0.3848	0.2504	0.9723	0.079
Mof_H 	H 	0.4709	0.6457	0.7394	0.057
Mof_H 	H 	0.5688	0.7617	0.7561	0.042
Mof_H 	H 	0.6844	0.6507	0.7284	0.081
Mof_H 	H 	0.5237	0.5755	0.7781	0.059
Mof_H 	H 	0.49	0.568	0.7322	0.056
Mof_H 	H 	0.6769	0.1436	0.0231	0.087
Mof_H 	H 	0.8155	0.1282	0.9236	0.063
Mof_H 	H 	0.7101	0.2419	0.9398	0.099
Mof_H 	H 	0.5597	0.235	0.2917	0.045
Mof_H 	H 	0.6805	0.2391	0.1863	0.076
Mof_H 	H 	0.4687	0.2544	0.1752	0.062
Mof_H 	H 	0.4965	0.2732	0.1067	0.048
Mof_H 	H 	0.5042	0.2218	0.1037	0.04
Mof_H 	H 	0.9238	0.5005	0.3786	0.081
Mof_H 	H 	0.1383	0.4987	0.3737	0.081
Mof_H 	H 	0.037	0.5127	0.4883	0.053
Mof_H 	H 	0.1225	0.4723	0.3102	0.065
Mof_H 	H 	0.1073	0.5216	0.2982	0.062
Mof_H 	H 	0.1624	0.4575	0.2328	0.06
Mof_H 	H 	0.1164	0.4765	0.1947	0.06
Mof_H 	H 	0.9661	0.5113	0.2557	0.045
Mof_H 	H 	0.0251	0.5403	0.2338	0.054
Mof_H 	H 	0.9317	0.4754	0.1231	0.084
Mof_H 	H 	0.8086	0.5806	0.1039	0.045
Mof_H 	H 	0.9209	0.5723	0.2132	0.072
Mof_H 	H 	0.2242	0.5904	0.2473	0.091
Mof_H 	H 	0.3214	0.6072	0.1357	0.064
Mof_H 	H 	0.2095	0.4986	0.1563	0.095
Mof_H 	H 	0.0649	0.5072	0.9851	0.06
Mof_H 	H 	0.9476	0.6112	0.9445	0.094
Mof_H 	H 	0.1531	0.6271	0.9681	0.09
Mof_H 	H 	0.1314	0.699	0.934	0.058
Mof_H 	H 	0.1052	0.6992	0.9822	0.056
Mof_H 	H 	0.1498	0.7839	0.9339	0.044
Mof_H 	H 	0.09	0.8125	0.9556	0.047
Mof_H 	H 	0.959	0.7284	0.9699	0.053
Mof_H 	H 	0.0095	0.7481	0.0053	0.064
Mof_H 	H 	0.899	0.8651	0.9684	0.08
Mof_H 	H 	0.7641	0.8535	0.0661	0.04
Mof_H 	H 	0.8848	0.7496	0.0277	0.077
Mof_H 	H 	0.9709	0.3543	0.2606	0.051
Mof_H 	H 	0.0688	0.2383	0.2439	0.043
Mof_H 	H 	0.1844	0.3493	0.2716	0.081
Mof_H 	H 	0.0237	0.4245	0.2219	0.056
Mof_H 	H 	0.99	0.432	0.2678	0.048
Mof_H 	H 	0.1769	0.8564	0.9769	0.088
Mof_H 	H 	0.3155	0.8718	0.0764	0.064
Mof_H 	H 	0.2101	0.7581	0.0602	0.099
Mof_H 	H 	0.0597	0.765	0.7083	0.047
Mof_H 	H 	0.1805	0.7609	0.8137	0.076
Mof_H 	H 	0.9687	0.7456	0.8248	0.055
Mof_H 	H 	0.9965	0.7268	0.8933	0.042
Mof_H 	H 	0.0042	0.7782	0.8963	0.04
Mof_C 	C 	0.4024	0.9922	0.9618	0.381
Mof_C 	C 	0.7649	0.5828	0.5114	0.354
Mof_C 	C 	0.67	0.9874	0.9561	0.358
Mof_C 	C 	0.4698	0.993	0.9367	-0.059
Mof_C 	C 	0.4671	0.9973	0.8927	-0.099
Mof_C 	C 	0.5299	0.9985	0.8698	0.147
Mof_C 	C 	0.5971	0.9971	0.8896	-0.102
Mof_C 	C 	0.5995	0.9892	0.9337	-0.049
Mof_C 	C 	0.5355	0.9894	0.9584	-0.009
Mof_C 	C 	0.5873	0.0077	0.7988	-0.052
Mof_C 	C 	0.5644	0.022	0.7526	0.068
Mof_C 	C 	0.6288	0.0199	0.7248	-0.049
Mof_C 	C 	0.5061	0.9892	0.7361	-0.038
Mof_C 	C 	0.435	0.9806	0.6727	0.148
Mof_C 	C 	0.4143	0.9976	0.6323	-0.095
Mof_C 	C 	0.3674	0.9739	0.6057	-0.058
Mof_C 	C 	0.3409	0.9348	0.6207	0.008
Mof_C 	C 	0.3614	0.9178	0.6607	-0.079
Mof_C 	C 	0.4075	0.9395	0.6867	-0.09
Mof_C 	C 	0.3341	0.8752	0.6753	0.382
Mof_C 	C 	0.7071	0.9562	0.7032	0.181
Mof_C 	C 	0.7343	0.9186	0.7193	-0.137
Mof_C 	C 	0.776	0.895	0.6937	-0.022
Mof_C 	C 	0.7922	0.9096	0.6533	-0.039
Mof_C 	C 	0.7662	0.9488	0.6382	-0.02
Mof_C 	C 	0.7249	0.9737	0.6645	-0.141
Mof_C 	C 	0.8018	0.8503	0.7085	0.324
Mof_C 	C 	0.7852	0.9652	0.5929	0.356
Mof_C 	C 	0.4286	0.9729	0.4684	0.342
Mof_C 	C 	0.3448	0.9944	0.5638	0.363
Mof_C 	C 	0.6909	0.9557	0.4914	0.368
Mof_C 	C 	0.6205	0.9363	0.4786	-0.037
Mof_C 	C 	0.5612	0.9633	0.478	-0.024
Mof_C 	C 	0.4943	0.9448	0.4661	-0.032
Mof_C 	C 	0.4904	0.9006	0.4537	-0.121
Mof_C 	C 	0.55	0.8746	0.4552	0.176
Mof_C 	C 	0.6137	0.8911	0.4673	-0.128
Mof_C 	C 	0.5902	0.7979	0.4524	-0.022
Mof_C 	C 	0.5558	0.7538	0.4454	0.033
Mof_C 	C 	0.6126	0.7161	0.4555	0.003
Mof_C 	C 	0.4936	0.7489	0.4757	-0.022
Mof_C 	C 	0.4043	0.6934	0.4955	0.151
Mof_C 	C 	0.3795	0.6519	0.4903	-0.109
Mof_C 	C 	0.327	0.6332	0.5155	-0.059
Mof_C 	C 	0.2979	0.6585	0.5477	-0.018
Mof_C 	C 	0.3199	0.7036	0.5528	-0.07
Mof_C 	C 	0.3719	0.721	0.5257	-0.112
Mof_C 	C 	0.3029	0.5874	0.51	0.353
Mof_C 	C 	0.2915	0.7313	0.5892	0.34
Mof_C 	C 	0.4374	0.2279	0.7524	0.377
Mof_C 	C 	0.5126	0.1617	0.7592	-0.098
Mof_C 	C 	0.5098	0.206	0.7531	-0.083
Mof_C 	C 	0.5714	0.232	0.7506	0.01
Mof_C 	C 	0.6377	0.2113	0.7584	-0.086
Mof_C 	C 	0.7051	0.2371	0.7601	0.419
Mof_C 	C 	0.6414	0.1643	0.7656	-0.09
Mof_C 	C 	0.579	0.1398	0.7635	0.145
Mof_C 	C 	0.5336	0.0668	0.7514	-0.048
Mof_C 	C 	0.69	0.6978	0.5136	0.177
Mof_C 	C 	0.7013	0.6554	0.5002	-0.128
Mof_C 	C 	0.7531	0.6298	0.524	-0.039
Mof_C 	C 	0.7853	0.6461	0.5604	-0.027
Mof_C 	C 	0.7726	0.6907	0.5741	-0.025
Mof_C 	C 	0.7226	0.714	0.5507	-0.125
Mof_C 	C 	0.8062	0.7077	0.6122	0.279
Mof_C 	C 	0.4318	0.7454	0.2433	0.368
Mof_C 	C 	0.5642	0.7387	0.2379	0.003
Mof_C 	C 	0.6298	0.7387	0.2567	-0.079
Mof_C 	C 	0.6935	0.7288	0.2307	0.352
Mof_C 	C 	0.6362	0.7412	0.3007	-0.088
Mof_C 	C 	0.5746	0.7471	0.3263	0.141
Mof_C 	C 	0.5088	0.7495	0.3081	-0.103
Mof_C 	C 	0.5291	0.7495	0.3997	-0.011
Mof_C 	C 	0.5045	0.7444	0.2634	-0.072
Mof_C 	C 	0.9024	0.0078	0.0382	0.381
Mof_C 	C 	0.2649	0.4172	0.4886	0.354
Mof_C 	C 	0.17	0.0126	0.0439	0.358
Mof_C 	C 	0.9698	0.007	0.0633	-0.063
Mof_C 	C 	0.9671	0.0027	0.1073	-0.104
Mof_C 	C 	0.0299	0.0015	0.1302	0.152
Mof_C 	C 	0.0971	0.0029	0.1104	-0.104
Mof_C 	C 	0.0995	0.0108	0.0663	-0.049
Mof_C 	C 	0.0355	0.0106	0.0416	-0.004
Mof_C 	C 	0.0873	0.9923	0.2012	-0.046
Mof_C 	C 	0.0644	0.978	0.2474	0.059
Mof_C 	C 	0.1288	0.9801	0.2752	-0.044
Mof_C 	C 	0.0061	0.0108	0.2639	-0.019
Mof_C 	C 	0.935	0.0194	0.3273	0.15
Mof_C 	C 	0.9143	0.0024	0.3677	-0.096
Mof_C 	C 	0.8674	0.0261	0.3943	-0.058
Mof_C 	C 	0.8409	0.0652	0.3793	0.008
Mof_C 	C 	0.8614	0.0822	0.3393	-0.079
Mof_C 	C 	0.9075	0.0605	0.3133	-0.091
Mof_C 	C 	0.8341	0.1248	0.3247	0.382
Mof_C 	C 	0.2071	0.0438	0.2968	0.183
Mof_C 	C 	0.2343	0.0814	0.2807	-0.138
Mof_C 	C 	0.276	0.105	0.3063	-0.021
Mof_C 	C 	0.2922	0.0904	0.3467	-0.04
Mof_C 	C 	0.2662	0.0512	0.3618	-0.018
Mof_C 	C 	0.2249	0.0263	0.3355	-0.143
Mof_C 	C 	0.3018	0.1497	0.2915	0.324
Mof_C 	C 	0.2852	0.0348	0.4071	0.355
Mof_C 	C 	0.9286	0.0271	0.5316	0.343
Mof_C 	C 	0.8448	0.0056	0.4362	0.363
Mof_C 	C 	0.1909	0.0443	0.5086	0.368
Mof_C 	C 	0.1205	0.0637	0.5214	-0.038
Mof_C 	C 	0.0612	0.0367	0.522	-0.018
Mof_C 	C 	0.9943	0.0552	0.5339	-0.036
Mof_C 	C 	0.9904	0.0994	0.5463	-0.127
Mof_C 	C 	0.05	0.1254	0.5448	0.182
Mof_C 	C 	0.1137	0.1089	0.5327	-0.129
Mof_C 	C 	0.0902	0.2021	0.5476	-0.026
Mof_C 	C 	0.0558	0.2462	0.5546	0.04
Mof_C 	C 	0.1126	0.2839	0.5445	-0
Mof_C 	C 	0.9936	0.2511	0.5243	-0.041
Mof_C 	C 	0.9043	0.3066	0.5045	0.148
Mof_C 	C 	0.8795	0.3481	0.5097	-0.108
Mof_C 	C 	0.827	0.3668	0.4845	-0.06
Mof_C 	C 	0.7979	0.3415	0.4523	-0.017
Mof_C 	C 	0.8199	0.2964	0.4472	-0.071
Mof_C 	C 	0.8719	0.279	0.4743	-0.111
Mof_C 	C 	0.8029	0.4126	0.49	0.354
Mof_C 	C 	0.7915	0.2687	0.4108	0.34
Mof_C 	C 	0.9374	0.7721	0.2476	0.374
Mof_C 	C 	0.0126	0.8383	0.2408	-0.088
Mof_C 	C 	0.0098	0.794	0.2469	-0.081
Mof_C 	C 	0.0714	0.768	0.2494	0.01
Mof_C 	C 	0.1377	0.7887	0.2416	-0.086
Mof_C 	C 	0.2051	0.7629	0.2399	0.419
Mof_C 	C 	0.1414	0.8357	0.2344	-0.088
Mof_C 	C 	0.079	0.8602	0.2365	0.143
Mof_C 	C 	0.0336	0.9332	0.2486	-0.032
Mof_C 	C 	0.19	0.3022	0.4864	0.177
Mof_C 	C 	0.2013	0.3446	0.4998	-0.128
Mof_C 	C 	0.2531	0.3702	0.476	-0.038
Mof_C 	C 	0.2853	0.3539	0.4396	-0.027
Mof_C 	C 	0.2726	0.3093	0.4259	-0.025
Mof_C 	C 	0.2226	0.286	0.4493	-0.125
Mof_C 	C 	0.3062	0.2923	0.3878	0.279
Mof_C 	C 	0.9318	0.2546	0.7567	0.364
Mof_C 	C 	0.0642	0.2613	0.7621	0.003
Mof_C 	C 	0.1298	0.2613	0.7433	-0.079
Mof_C 	C 	0.1935	0.2712	0.7693	0.352
Mof_C 	C 	0.1362	0.2588	0.6993	-0.087
Mof_C 	C 	0.0746	0.2529	0.6737	0.139
Mof_C 	C 	0.0088	0.2505	0.6919	-0.094
Mof_C 	C 	0.0291	0.2505	0.6003	-0.005
Mof_C 	C 	0.0045	0.2556	0.7366	-0.07
Mof_C 	C 	0.4024	0.4922	0.5382	0.38
Mof_C 	C 	0.7649	0.0828	0.9886	0.354
Mof_C 	C 	0.67	0.4874	0.5439	0.358
Mof_C 	C 	0.4698	0.493	0.5633	-0.059
Mof_C 	C 	0.4671	0.4973	0.6073	-0.099
Mof_C 	C 	0.5299	0.4985	0.6302	0.147
Mof_C 	C 	0.5971	0.4971	0.6104	-0.102
Mof_C 	C 	0.5995	0.4892	0.5663	-0.049
Mof_C 	C 	0.5355	0.4894	0.5416	-0.009
Mof_C 	C 	0.5873	0.5077	0.7012	-0.052
Mof_C 	C 	0.5644	0.522	0.7474	0.068
Mof_C 	C 	0.6288	0.5199	0.7752	-0.049
Mof_C 	C 	0.5061	0.4892	0.7639	-0.038
Mof_C 	C 	0.435	0.4806	0.8273	0.148
Mof_C 	C 	0.4143	0.4976	0.8677	-0.095
Mof_C 	C 	0.3674	0.4739	0.8943	-0.058
Mof_C 	C 	0.3409	0.4348	0.8793	0.008
Mof_C 	C 	0.3614	0.4178	0.8393	-0.079
Mof_C 	C 	0.4075	0.4395	0.8133	-0.09
Mof_C 	C 	0.3341	0.3752	0.8247	0.382
Mof_C 	C 	0.7071	0.4562	0.7968	0.181
Mof_C 	C 	0.7343	0.4186	0.7807	-0.137
Mof_C 	C 	0.776	0.395	0.8063	-0.022
Mof_C 	C 	0.7922	0.4096	0.8467	-0.039
Mof_C 	C 	0.7662	0.4488	0.8618	-0.02
Mof_C 	C 	0.7249	0.4737	0.8355	-0.141
Mof_C 	C 	0.8018	0.3503	0.7915	0.324
Mof_C 	C 	0.7852	0.4652	0.9071	0.356
Mof_C 	C 	0.4286	0.4729	0.0316	0.342
Mof_C 	C 	0.3448	0.4944	0.9362	0.363
Mof_C 	C 	0.6909	0.4557	0.0086	0.367
Mof_C 	C 	0.6205	0.4363	0.0214	-0.037
Mof_C 	C 	0.5612	0.4633	0.022	-0.024
Mof_C 	C 	0.4943	0.4448	0.0339	-0.032
Mof_C 	C 	0.4904	0.4006	0.0463	-0.121
Mof_C 	C 	0.55	0.3746	0.0448	0.176
Mof_C 	C 	0.6137	0.3911	0.0327	-0.128
Mof_C 	C 	0.5902	0.2979	0.0476	-0.022
Mof_C 	C 	0.5558	0.2538	0.0546	0.033
Mof_C 	C 	0.6126	0.2161	0.0445	0.003
Mof_C 	C 	0.4936	0.2489	0.0243	-0.022
Mof_C 	C 	0.4043	0.1934	0.0045	0.151
Mof_C 	C 	0.3795	0.1519	0.0097	-0.109
Mof_C 	C 	0.327	0.1332	0.9845	-0.059
Mof_C 	C 	0.2979	0.1585	0.9523	-0.018
Mof_C 	C 	0.3199	0.2036	0.9472	-0.07
Mof_C 	C 	0.3719	0.221	0.9743	-0.112
Mof_C 	C 	0.3029	0.0874	0.99	0.353
Mof_C 	C 	0.2915	0.2313	0.9108	0.34
Mof_C 	C 	0.4374	0.7279	0.7476	0.377
Mof_C 	C 	0.5126	0.6617	0.7408	-0.098
Mof_C 	C 	0.5098	0.706	0.7469	-0.083
Mof_C 	C 	0.5714	0.732	0.7494	0.01
Mof_C 	C 	0.6377	0.7113	0.7416	-0.086
Mof_C 	C 	0.7051	0.7371	0.7399	0.419
Mof_C 	C 	0.6414	0.6643	0.7344	-0.09
Mof_C 	C 	0.579	0.6398	0.7365	0.145
Mof_C 	C 	0.5336	0.5668	0.7486	-0.048
Mof_C 	C 	0.69	0.1978	0.9864	0.177
Mof_C 	C 	0.7013	0.1554	0.9998	-0.128
Mof_C 	C 	0.7531	0.1298	0.976	-0.039
Mof_C 	C 	0.7853	0.1461	0.9396	-0.027
Mof_C 	C 	0.7726	0.1907	0.9259	-0.025
Mof_C 	C 	0.7226	0.214	0.9493	-0.125
Mof_C 	C 	0.8062	0.2077	0.8878	0.279
Mof_C 	C 	0.4318	0.2454	0.2567	0.368
Mof_C 	C 	0.5642	0.2387	0.2621	0.003
Mof_C 	C 	0.6298	0.2387	0.2433	-0.079
Mof_C 	C 	0.6935	0.2288	0.2693	0.352
Mof_C 	C 	0.6362	0.2412	0.1993	-0.089
Mof_C 	C 	0.5746	0.2471	0.1737	0.141
Mof_C 	C 	0.5088	0.2495	0.1919	-0.103
Mof_C 	C 	0.5291	0.2495	0.1003	-0.011
Mof_C 	C 	0.5045	0.2444	0.2366	-0.072
Mof_C 	C 	0.9024	0.5078	0.4618	0.381
Mof_C 	C 	0.2649	0.9172	0.0114	0.353
Mof_C 	C 	0.17	0.5126	0.4561	0.358
Mof_C 	C 	0.9698	0.507	0.4367	-0.063
Mof_C 	C 	0.9671	0.5027	0.3927	-0.105
Mof_C 	C 	0.0299	0.5015	0.3698	0.153
Mof_C 	C 	0.0971	0.5029	0.3896	-0.103
Mof_C 	C 	0.0995	0.5108	0.4337	-0.05
Mof_C 	C 	0.0355	0.5106	0.4584	-0.003
Mof_C 	C 	0.0873	0.4923	0.2988	-0.047
Mof_C 	C 	0.0644	0.478	0.2526	0.059
Mof_C 	C 	0.1288	0.4801	0.2248	-0.044
Mof_C 	C 	0.0061	0.5108	0.2361	-0.018
Mof_C 	C 	0.935	0.5194	0.1727	0.15
Mof_C 	C 	0.9143	0.5024	0.1323	-0.096
Mof_C 	C 	0.8674	0.5261	0.1057	-0.058
Mof_C 	C 	0.8409	0.5652	0.1207	0.007
Mof_C 	C 	0.8614	0.5822	0.1607	-0.079
Mof_C 	C 	0.9075	0.5605	0.1867	-0.091
Mof_C 	C 	0.8341	0.6248	0.1753	0.382
Mof_C 	C 	0.2071	0.5438	0.2032	0.183
Mof_C 	C 	0.2343	0.5814	0.2193	-0.138
Mof_C 	C 	0.276	0.605	0.1937	-0.021
Mof_C 	C 	0.2922	0.5904	0.1533	-0.039
Mof_C 	C 	0.2662	0.5512	0.1382	-0.019
Mof_C 	C 	0.2249	0.5263	0.1645	-0.141
Mof_C 	C 	0.3018	0.6497	0.2085	0.324
Mof_C 	C 	0.2852	0.5348	0.0929	0.356
Mof_C 	C 	0.9286	0.5271	0.9684	0.343
Mof_C 	C 	0.8448	0.5056	0.0638	0.362
Mof_C 	C 	0.1909	0.5443	0.9914	0.368
Mof_C 	C 	0.1205	0.5637	0.9786	-0.038
Mof_C 	C 	0.0612	0.5367	0.978	-0.017
Mof_C 	C 	0.9943	0.5552	0.9661	-0.037
Mof_C 	C 	0.9904	0.5994	0.9537	-0.128
Mof_C 	C 	0.05	0.6254	0.9552	0.183
Mof_C 	C 	0.1137	0.6089	0.9673	-0.129
Mof_C 	C 	0.0902	0.7021	0.9524	-0.026
Mof_C 	C 	0.0558	0.7462	0.9454	0.041
Mof_C 	C 	0.1126	0.7839	0.9555	-0
Mof_C 	C 	0.9936	0.7511	0.9757	-0.042
Mof_C 	C 	0.9043	0.8066	0.9955	0.148
Mof_C 	C 	0.8795	0.8481	0.9903	-0.107
Mof_C 	C 	0.827	0.8668	0.0155	-0.061
Mof_C 	C 	0.7979	0.8415	0.0477	-0.017
Mof_C 	C 	0.8199	0.7964	0.0528	-0.072
Mof_C 	C 	0.8719	0.779	0.0257	-0.111
Mof_C 	C 	0.8029	0.9126	0.01	0.353
Mof_C 	C 	0.7915	0.7687	0.0892	0.34
Mof_C 	C 	0.9374	0.2721	0.2524	0.374
Mof_C 	C 	0.0126	0.3383	0.2592	-0.089
Mof_C 	C 	0.0098	0.294	0.2531	-0.082
Mof_C 	C 	0.0714	0.268	0.2506	0.01
Mof_C 	C 	0.1377	0.2887	0.2584	-0.086
Mof_C 	C 	0.2051	0.2629	0.2601	0.419
Mof_C 	C 	0.1414	0.3357	0.2656	-0.089
Mof_C 	C 	0.079	0.3602	0.2635	0.143
Mof_C 	C 	0.0336	0.4332	0.2514	-0.033
Mof_C 	C 	0.19	0.8022	0.0136	0.177
Mof_C 	C 	0.2013	0.8446	0.0002	-0.129
Mof_C 	C 	0.2531	0.8702	0.024	-0.038
Mof_C 	C 	0.2853	0.8539	0.0604	-0.027
Mof_C 	C 	0.2726	0.8093	0.0741	-0.025
Mof_C 	C 	0.2226	0.786	0.0507	-0.125
Mof_C 	C 	0.3062	0.7923	0.1122	0.279
Mof_C 	C 	0.9318	0.7546	0.7433	0.364
Mof_C 	C 	0.0642	0.7613	0.7379	0.004
Mof_C 	C 	0.1298	0.7613	0.7567	-0.079
Mof_C 	C 	0.1935	0.7712	0.7307	0.353
Mof_C 	C 	0.1362	0.7588	0.8007	-0.087
Mof_C 	C 	0.0746	0.7529	0.8263	0.138
Mof_C 	C 	0.0088	0.7505	0.8081	-0.093
Mof_C 	C 	0.0291	0.7505	0.8997	-0.005
Mof_C 	C 	0.0045	0.7556	0.7634	-0.07
Mof_O 	O 	0.4093	0.99433	0.00264	-0.462
Mof_O 	O 	0.3465	0.99129	0.94101	-0.49
Mof_O 	O 	0.723	0.98908	0.93289	-0.472
Mof_O 	O 	0.667	0.98727	0.99825	-0.474
Mof_O 	O 	0.8046	0.5615	0.53819	-0.462
Mof_O 	O 	0.7362	0.56667	0.47883	-0.452
Mof_O 	O 	0.355	0.85922	0.71095	-0.483
Mof_O 	O 	0.2875	0.85626	0.65194	-0.48
Mof_O 	O 	0.263	0.71217	0.61983	-0.508
Mof_O 	O 	0.2923	0.7712	0.58515	-0.459
Mof_O 	O 	0.385	0.2051	0.76011	-0.513
Mof_O 	O 	0.4359	0.2684	0.74716	-0.49
Mof_O 	O 	0.2712	0.5673	0.53868	-0.46
Mof_O 	O 	0.3265	0.56835	0.4744	-0.458
Mof_O 	O 	0.3804	0.74595	0.26848	-0.537
Mof_O 	O 	0.4276	0.74768	0.20232	-0.457
Mof_O 	O 	0.7516	0.72248	0.25162	-0.509
Mof_O 	O 	0.6885	0.72479	0.1898	-0.511
Mof_O 	O 	0.8413	0.6844	0.6381	-0.31
Mof_O 	O 	0.801	0.7492	0.61989	-0.413
Mof_O 	O 	0.8053	0.8447	0.7521	-0.484
Mof_O 	O 	0.8141	0.81996	0.68227	-0.465
Mof_O 	O 	0.7582	0.00116	0.58139	-0.464
Mof_O 	O 	0.8242	0.94004	0.57099	-0.468
Mof_O 	O 	0.6894	0.99605	0.50041	-0.476
Mof_O 	O 	0.7439	0.93079	0.49193	-0.462
Mof_O 	O 	0.371	0.95237	0.45991	-0.465
Mof_O 	O 	0.4352	0.01317	0.47794	-0.447
Mof_O 	O 	0.3103	0.96608	0.5394	-0.46
Mof_O 	O 	0.3629	0.03159	0.55468	-0.473
Mof_O 	O 	0.5875	0.096	0.77065	-0.208
Mof_O 	O 	0.4617	0.70603	0.46951	-0.217
Mof_O 	O 	0.6402	0.72592	0.49623	-0.224
Mof_O 	O 	0.5381	0.83158	0.44204	-0.216
Mof_O 	O 	0.5882	0.75117	0.37091	-0.21
Mof_O 	O 	0.6584	0.9758	0.7326	-0.213
Mof_O 	O 	0.4847	0.00531	0.69392	-0.211
Mof_O 	O 	0.5213	0.00868	0.82579	-0.205
Mof_O 	O 	0.7504	0.22708	0.78817	-0.493
Mof_O 	O 	0.7135	0.2654	0.7323	-0.538
Mof_O 	O 	0.3437	0.77021	0.67483	-0.653
Mof_O 	O 	0.9093	0.00567	0.99736	-0.463
Mof_O 	O 	0.8465	0.00871	0.05899	-0.49
Mof_O 	O 	0.223	0.01092	0.06711	-0.471
Mof_O 	O 	0.167	0.01273	0.00175	-0.474
Mof_O 	O 	0.3046	0.4385	0.46181	-0.462
Mof_O 	O 	0.2362	0.43333	0.52117	-0.452
Mof_O 	O 	0.855	0.14078	0.28905	-0.484
Mof_O 	O 	0.7875	0.14374	0.34806	-0.48
Mof_O 	O 	0.763	0.28783	0.38017	-0.509
Mof_O 	O 	0.7923	0.2288	0.41485	-0.46
Mof_O 	O 	0.885	0.7949	0.23989	-0.513
Mof_O 	O 	0.9359	0.7316	0.25284	-0.491
Mof_O 	O 	0.7712	0.4327	0.46132	-0.461
Mof_O 	O 	0.8265	0.43165	0.5256	-0.458
Mof_O 	O 	0.8804	0.25405	0.73152	-0.537
Mof_O 	O 	0.9276	0.25232	0.79768	-0.457
Mof_O 	O 	0.2516	0.27752	0.74838	-0.508
Mof_O 	O 	0.1885	0.27521	0.8102	-0.511
Mof_O 	O 	0.3413	0.3156	0.3619	-0.309
Mof_O 	O 	0.301	0.2508	0.38011	-0.412
Mof_O 	O 	0.3053	0.1553	0.2479	-0.483
Mof_O 	O 	0.3141	0.18004	0.31773	-0.465
Mof_O 	O 	0.2582	0.99884	0.41861	-0.463
Mof_O 	O 	0.3242	0.05996	0.42901	-0.467
Mof_O 	O 	0.1894	0.00395	0.49959	-0.476
Mof_O 	O 	0.2439	0.06921	0.50807	-0.462
Mof_O 	O 	0.871	0.04763	0.54009	-0.466
Mof_O 	O 	0.9352	0.98683	0.52206	-0.449
Mof_O 	O 	0.8103	0.03392	0.4606	-0.46
Mof_O 	O 	0.8629	0.96841	0.44532	-0.474
Mof_O 	O 	0.0875	0.904	0.22935	-0.209
Mof_O 	O 	0.9617	0.29397	0.53049	-0.215
Mof_O 	O 	0.1402	0.27408	0.50377	-0.223
Mof_O 	O 	0.0381	0.16842	0.55796	-0.215
Mof_O 	O 	0.0882	0.24883	0.62909	-0.21
Mof_O 	O 	0.1584	0.0242	0.2674	-0.214
Mof_O 	O 	0.9847	0.99469	0.30608	-0.219
Mof_O 	O 	0.0213	0.99132	0.17421	-0.204
Mof_O 	O 	0.2504	0.77292	0.21183	-0.493
Mof_O 	O 	0.2135	0.7346	0.2677	-0.537
Mof_O 	O 	0.8437	0.22979	0.32517	-0.654
Mof_O 	O 	0.4093	0.49433	0.49736	-0.461
Mof_O 	O 	0.3465	0.49129	0.55899	-0.49
Mof_O 	O 	0.723	0.48908	0.56711	-0.472
Mof_O 	O 	0.667	0.48727	0.50175	-0.474
Mof_O 	O 	0.8046	0.0615	0.96181	-0.462
Mof_O 	O 	0.7362	0.06667	0.02117	-0.452
Mof_O 	O 	0.355	0.35922	0.78905	-0.483
Mof_O 	O 	0.2875	0.35626	0.84806	-0.48
Mof_O 	O 	0.263	0.21217	0.88017	-0.508
Mof_O 	O 	0.2923	0.2712	0.91485	-0.459
Mof_O 	O 	0.385	0.7051	0.73989	-0.513
Mof_O 	O 	0.4359	0.7684	0.75284	-0.49
Mof_O 	O 	0.2712	0.0673	0.96132	-0.46
Mof_O 	O 	0.3265	0.06835	0.0256	-0.458
Mof_O 	O 	0.3804	0.24595	0.23152	-0.537
Mof_O 	O 	0.4276	0.24768	0.29768	-0.457
Mof_O 	O 	0.7516	0.22248	0.24838	-0.509
Mof_O 	O 	0.6885	0.22479	0.3102	-0.511
Mof_O 	O 	0.8413	0.1844	0.8619	-0.31
Mof_O 	O 	0.801	0.2492	0.88011	-0.413
Mof_O 	O 	0.8053	0.3447	0.7479	-0.484
Mof_O 	O 	0.8141	0.31996	0.81773	-0.465
Mof_O 	O 	0.7582	0.50116	0.91861	-0.464
Mof_O 	O 	0.8242	0.44004	0.92901	-0.468
Mof_O 	O 	0.6894	0.49605	0.99959	-0.476
Mof_O 	O 	0.7439	0.43079	0.00807	-0.462
Mof_O 	O 	0.371	0.45237	0.04009	-0.465
Mof_O 	O 	0.4352	0.51317	0.02206	-0.447
Mof_O 	O 	0.3103	0.46608	0.9606	-0.46
Mof_O 	O 	0.3629	0.53159	0.94532	-0.473
Mof_O 	O 	0.5875	0.596	0.72935	-0.208
Mof_O 	O 	0.4617	0.20603	0.03049	-0.217
Mof_O 	O 	0.6402	0.22592	0.00377	-0.224
Mof_O 	O 	0.5381	0.33158	0.05796	-0.216
Mof_O 	O 	0.5882	0.25117	0.12909	-0.21
Mof_O 	O 	0.6584	0.4758	0.7674	-0.213
Mof_O 	O 	0.4847	0.50531	0.80608	-0.211
Mof_O 	O 	0.5213	0.50868	0.67421	-0.205
Mof_O 	O 	0.7504	0.72708	0.71183	-0.493
Mof_O 	O 	0.7135	0.7654	0.7677	-0.538
Mof_O 	O 	0.3437	0.27021	0.82517	-0.653
Mof_O 	O 	0.9093	0.50567	0.50264	-0.463
Mof_O 	O 	0.8465	0.50871	0.44101	-0.49
Mof_O 	O 	0.223	0.51092	0.43289	-0.471
Mof_O 	O 	0.167	0.51273	0.49825	-0.474
Mof_O 	O 	0.3046	0.9385	0.03819	-0.462
Mof_O 	O 	0.2362	0.93333	0.97883	-0.451
Mof_O 	O 	0.855	0.64078	0.21095	-0.484
Mof_O 	O 	0.7875	0.64374	0.15194	-0.48
Mof_O 	O 	0.763	0.78783	0.11983	-0.509
Mof_O 	O 	0.7923	0.7288	0.08515	-0.46
Mof_O 	O 	0.885	0.2949	0.26011	-0.513
Mof_O 	O 	0.9359	0.2316	0.24716	-0.491
Mof_O 	O 	0.7712	0.9327	0.03868	-0.461
Mof_O 	O 	0.8265	0.93165	0.9744	-0.458
Mof_O 	O 	0.8804	0.75405	0.76848	-0.537
Mof_O 	O 	0.9276	0.75232	0.70232	-0.457
Mof_O 	O 	0.2516	0.77752	0.75162	-0.508
Mof_O 	O 	0.1885	0.77521	0.6898	-0.511
Mof_O 	O 	0.3413	0.8156	0.1381	-0.309
Mof_O 	O 	0.301	0.7508	0.11989	-0.412
Mof_O 	O 	0.3053	0.6553	0.2521	-0.483
Mof_O 	O 	0.3141	0.68004	0.18227	-0.465
Mof_O 	O 	0.2582	0.49884	0.08139	-0.463
Mof_O 	O 	0.3242	0.55996	0.07099	-0.467
Mof_O 	O 	0.1894	0.50395	0.00041	-0.476
Mof_O 	O 	0.2439	0.56921	0.99193	-0.462
Mof_O 	O 	0.871	0.54763	0.95991	-0.466
Mof_O 	O 	0.9352	0.48683	0.97794	-0.448
Mof_O 	O 	0.8103	0.53392	0.0394	-0.46
Mof_O 	O 	0.8629	0.46841	0.05468	-0.474
Mof_O 	O 	0.0875	0.404	0.27065	-0.209
Mof_O 	O 	0.9617	0.79397	0.96951	-0.215
Mof_O 	O 	0.1402	0.77408	0.99623	-0.222
Mof_O 	O 	0.0381	0.66842	0.94204	-0.215
Mof_O 	O 	0.0882	0.74883	0.87091	-0.21
Mof_O 	O 	0.1584	0.5242	0.2326	-0.213
Mof_O 	O 	0.9847	0.49469	0.19392	-0.219
Mof_O 	O 	0.0213	0.49132	0.32579	-0.204
Mof_O 	O 	0.2504	0.27292	0.28817	-0.493
Mof_O 	O 	0.2135	0.2346	0.2323	-0.537
Mof_O 	O 	0.8437	0.72979	0.17483	-0.654
_end
