data_functionalizedCrystal
_audit_creation_method	'EQeq! by Chris Wilmer'
_symmetry_space_group_name_H-M	'P1'
_symmetry_Int_Tables_number	1
_symmetry_cell_setting	triclinic
loop_
_symmetry_equiv_pos_as_xyz
  x,y,z
_cell_length_a	15.9453
_cell_length_b	17.4202
_cell_length_c	11.0792
_cell_angle_alpha	90
_cell_angle_beta	123.926
_cell_angle_gamma	90
loop_
_atom_site_label
_atom_site_type_symbol
_atom_site_fract_x
_atom_site_fract_y
_atom_site_fract_z
_atom_site_charge
Mof_O 	O 	0.2586	0.0085	0.1465	-1.581
Mof_O 	O 	0.2876	0.04561	0.907	-1.545
Mof_O 	O 	0.2661	0.1799	0.0725	-1.595
Mof_C 	C 	0.1889	0.0279	0.1859	0.305
Mof_C 	C 	0.3033	0.9343	0.2052	0.322
Mof_C 	C 	0.2429	0.9715	0.8484	0.367
Mof_C 	C 	0.357	0.0649	0.8674	0.309
Mof_C 	C 	0.3207	0.2477	0.1511	0.352
Mof_C 	C 	0.1685	0.1995	0.9473	0.386
Mof_Li	Li	0.3289	0.0799	0.0995	6.634
Mof_H 	H 	0.1591	0.079	0.1464	-0.171
Mof_H 	H 	0.1333	0.9898	0.1436	-0.031
Mof_H 	H 	0.2499	0.8945	0.163	-0.069
Mof_H 	H 	0.3517	0.9217	0.1789	-0.289
Mof_H 	H 	0.1946	0.9589	0.8749	-0.173
Mof_H 	H 	0.2963	0.9317	0.8904	-0.242
Mof_H 	H 	0.4126	0.0269	0.9097	-0.252
Mof_H 	H 	0.3868	0.1161	0.907	-0.269
Mof_H 	H 	0.3884	0.2333	0.236	-0.25
Mof_H 	H 	0.2841	0.2745	0.1874	-0.143
Mof_H 	H 	0.1281	0.2251	0.9785	-0.119
Mof_H 	H 	0.1324	0.1522	0.8937	-0.2
Mof_O 	O 	0.7586	0.5085	0.1465	-1.434
Mof_O 	O 	0.7876	0.54561	0.907	-1.422
Mof_O 	O 	0.7661	0.6799	0.0725	-1.442
Mof_C 	C 	0.6889	0.5279	0.1859	0.293
Mof_C 	C 	0.8033	0.4343	0.2052	0.266
Mof_C 	C 	0.7429	0.4715	0.8484	0.342
Mof_C 	C 	0.857	0.5649	0.8674	0.332
Mof_C 	C 	0.8207	0.7477	0.1511	0.294
Mof_C 	C 	0.6685	0.6995	0.9473	0.334
Mof_Li	Li	0.8289	0.5799	0.0995	5.801
Mof_H 	H 	0.6591	0.579	0.1464	-0.186
Mof_H 	H 	0.6333	0.4898	0.1436	-0.077
Mof_H 	H 	0.7499	0.3945	0.163	-0.08
Mof_H 	H 	0.8517	0.4217	0.1789	-0.303
Mof_H 	H 	0.6946	0.4589	0.8749	-0.175
Mof_H 	H 	0.7963	0.4317	0.8904	-0.244
Mof_H 	H 	0.9126	0.5269	0.9097	-0.321
Mof_H 	H 	0.8868	0.6161	0.907	-0.31
Mof_H 	H 	0.8884	0.7333	0.236	-0.288
Mof_H 	H 	0.7841	0.7745	0.1874	-0.148
Mof_H 	H 	0.6281	0.7251	0.9785	-0.145
Mof_H 	H 	0.6324	0.6522	0.8937	-0.211
Mof_O 	O 	0.7414	0.0085	0.3535	-1.62
Mof_O 	O 	0.7124	0.04561	0.593	-1.575
Mof_O 	O 	0.7339	0.1799	0.4275	-1.611
Mof_C 	C 	0.8111	0.0279	0.3141	0.375
Mof_C 	C 	0.6967	0.9343	0.2948	0.357
Mof_C 	C 	0.7571	0.9715	0.6516	0.363
Mof_C 	C 	0.643	0.0649	0.6326	0.307
Mof_C 	C 	0.6793	0.2477	0.3489	0.38
Mof_C 	C 	0.8315	0.1995	0.5527	0.428
Mof_Li	Li	0.6711	0.0799	0.4005	6.662
Mof_H 	H 	0.8409	0.079	0.3536	-0.256
Mof_H 	H 	0.8667	0.9898	0.3564	-0.144
Mof_H 	H 	0.7501	0.8945	0.337	-0.114
Mof_H 	H 	0.6483	0.9217	0.3211	-0.304
Mof_H 	H 	0.8054	0.9589	0.6251	-0.226
Mof_H 	H 	0.7037	0.9317	0.6096	-0.25
Mof_H 	H 	0.5874	0.0269	0.5903	-0.258
Mof_H 	H 	0.6132	0.1161	0.593	-0.278
Mof_H 	H 	0.6116	0.2333	0.264	-0.262
Mof_H 	H 	0.7159	0.2745	0.3126	-0.159
Mof_H 	H 	0.8719	0.2251	0.5215	-0.218
Mof_H 	H 	0.8676	0.1522	0.6063	-0.301
Mof_O 	O 	0.2414	0.5085	0.3535	-1.585
Mof_O 	O 	0.2124	0.54561	0.593	-1.543
Mof_O 	O 	0.2339	0.6799	0.4275	-1.573
Mof_C 	C 	0.3111	0.5279	0.3141	0.357
Mof_C 	C 	0.1967	0.4343	0.2948	0.343
Mof_C 	C 	0.2571	0.4715	0.6516	0.35
Mof_C 	C 	0.143	0.5649	0.6326	0.268
Mof_C 	C 	0.1793	0.7477	0.3489	0.337
Mof_C 	C 	0.3315	0.6995	0.5527	0.376
Mof_Li	Li	0.1711	0.5799	0.4005	6.614
Mof_H 	H 	0.3409	0.579	0.3536	-0.211
Mof_H 	H 	0.3667	0.4898	0.3564	-0.093
Mof_H 	H 	0.2501	0.3945	0.337	-0.084
Mof_H 	H 	0.1483	0.4217	0.3211	-0.262
Mof_H 	H 	0.3054	0.4589	0.6251	-0.19
Mof_H 	H 	0.2037	0.4317	0.6096	-0.219
Mof_H 	H 	0.0874	0.5269	0.5903	-0.191
Mof_H 	H 	0.1132	0.6161	0.593	-0.226
Mof_H 	H 	0.1116	0.7333	0.264	-0.199
Mof_H 	H 	0.2159	0.7745	0.3126	-0.129
Mof_H 	H 	0.3719	0.7251	0.5215	-0.161
Mof_H 	H 	0.3676	0.6522	0.6063	-0.242
Mof_O 	O 	0.7414	0.9915	0.8535	-1.626
Mof_O 	O 	0.7124	0.95439	0.093	-1.586
Mof_O 	O 	0.7339	0.8201	0.9275	-1.607
Mof_C 	C 	0.8111	0.9721	0.8141	0.375
Mof_C 	C 	0.6967	0.0657	0.7948	0.357
Mof_C 	C 	0.7571	0.0285	0.1516	0.36
Mof_C 	C 	0.643	0.9351	0.1326	0.312
Mof_C 	C 	0.6793	0.7523	0.8489	0.372
Mof_C 	C 	0.8315	0.8005	0.0527	0.411
Mof_Li	Li	0.6711	0.9201	0.9005	6.717
Mof_H 	H 	0.8409	0.921	0.8536	-0.251
Mof_H 	H 	0.8667	0.0102	0.8564	-0.138
Mof_H 	H 	0.7501	0.1055	0.837	-0.108
Mof_H 	H 	0.6483	0.0783	0.8211	-0.299
Mof_H 	H 	0.8054	0.0411	0.1251	-0.237
Mof_H 	H 	0.7037	0.0683	0.1096	-0.257
Mof_H 	H 	0.5874	0.9731	0.0903	-0.261
Mof_H 	H 	0.6132	0.8839	0.093	-0.284
Mof_H 	H 	0.6116	0.7667	0.764	-0.258
Mof_H 	H 	0.7159	0.7255	0.8126	-0.151
Mof_H 	H 	0.8719	0.7749	0.0215	-0.217
Mof_H 	H 	0.8676	0.8478	0.1063	-0.301
Mof_O 	O 	0.2414	0.4915	0.8535	-1.596
Mof_O 	O 	0.2124	0.45439	0.093	-1.566
Mof_O 	O 	0.2339	0.3201	0.9275	-1.569
Mof_C 	C 	0.3111	0.4721	0.8141	0.363
Mof_C 	C 	0.1967	0.5657	0.7948	0.351
Mof_C 	C 	0.2571	0.5285	0.1516	0.362
Mof_C 	C 	0.143	0.4351	0.1326	0.281
Mof_C 	C 	0.1793	0.2523	0.8489	0.329
Mof_C 	C 	0.3315	0.3005	0.0527	0.355
Mof_Li	Li	0.1711	0.4201	0.9005	6.679
Mof_H 	H 	0.3409	0.421	0.8536	-0.21
Mof_H 	H 	0.3667	0.5102	0.8564	-0.091
Mof_H 	H 	0.2501	0.6055	0.837	-0.084
Mof_H 	H 	0.1483	0.5783	0.8211	-0.264
Mof_H 	H 	0.3054	0.5411	0.1251	-0.198
Mof_H 	H 	0.2037	0.5683	0.1096	-0.226
Mof_H 	H 	0.0874	0.4731	0.0903	-0.199
Mof_H 	H 	0.1132	0.3839	0.093	-0.237
Mof_H 	H 	0.1116	0.2667	0.764	-0.197
Mof_H 	H 	0.2159	0.2255	0.8126	-0.122
Mof_H 	H 	0.3719	0.2749	0.0215	-0.162
Mof_H 	H 	0.3676	0.3478	0.1063	-0.242
Mof_O 	O 	0.2586	0.9915	0.6465	-1.599
Mof_O 	O 	0.2876	0.95439	0.407	-1.585
Mof_O 	O 	0.2661	0.8201	0.5725	-1.595
Mof_C 	C 	0.1889	0.9721	0.6859	0.317
Mof_C 	C 	0.3033	0.0657	0.7052	0.337
Mof_C 	C 	0.2429	0.0285	0.3484	0.396
Mof_C 	C 	0.357	0.9351	0.3674	0.331
Mof_C 	C 	0.3207	0.7523	0.6511	0.348
Mof_C 	C 	0.1685	0.8005	0.4473	0.365
Mof_Li	Li	0.3289	0.9201	0.5995	6.734
Mof_H 	H 	0.1591	0.921	0.6464	-0.171
Mof_H 	H 	0.1333	0.0102	0.6436	-0.029
Mof_H 	H 	0.2499	0.1055	0.663	-0.07
Mof_H 	H 	0.3517	0.0783	0.6789	-0.292
Mof_H 	H 	0.1946	0.0411	0.3749	-0.181
Mof_H 	H 	0.2963	0.0683	0.3904	-0.249
Mof_H 	H 	0.4126	0.9731	0.4097	-0.266
Mof_H 	H 	0.3868	0.8839	0.407	-0.285
Mof_H 	H 	0.3884	0.7667	0.736	-0.249
Mof_H 	H 	0.2841	0.7255	0.6874	-0.137
Mof_H 	H 	0.1281	0.7749	0.4785	-0.118
Mof_H 	H 	0.1324	0.8478	0.3937	-0.201
Mof_O 	O 	0.7586	0.4915	0.6465	-1.452
Mof_O 	O 	0.7876	0.45439	0.407	-1.457
Mof_O 	O 	0.7661	0.3201	0.5725	-1.447
Mof_C 	C 	0.6889	0.4721	0.6859	0.305
Mof_C 	C 	0.8033	0.5657	0.7052	0.276
Mof_C 	C 	0.7429	0.5285	0.3484	0.361
Mof_C 	C 	0.857	0.4351	0.3674	0.349
Mof_C 	C 	0.8207	0.2523	0.6511	0.29
Mof_C 	C 	0.6685	0.3005	0.4473	0.316
Mof_Li	Li	0.8289	0.4201	0.5995	5.906
Mof_H 	H 	0.6591	0.421	0.6464	-0.187
Mof_H 	H 	0.6333	0.5102	0.6436	-0.076
Mof_H 	H 	0.7499	0.6055	0.663	-0.078
Mof_H 	H 	0.8517	0.5783	0.6789	-0.301
Mof_H 	H 	0.6946	0.5411	0.3749	-0.189
Mof_H 	H 	0.7963	0.5683	0.3904	-0.256
Mof_H 	H 	0.9126	0.4731	0.4097	-0.334
Mof_H 	H 	0.8868	0.3839	0.407	-0.326
Mof_H 	H 	0.8884	0.2667	0.736	-0.285
Mof_H 	H 	0.7841	0.2255	0.6874	-0.142
Mof_H 	H 	0.6281	0.2749	0.4785	-0.144
Mof_H 	H 	0.6324	0.3478	0.3937	-0.212
Mof_Cl	Cl	0.5	0.08867	0.25	-3.047
Mof_Cl	Cl	1.0148e-33	0.58867	0.25	-2.655
Mof_Cl	Cl	0.5	0.91133	0.75	-3.069
Mof_Cl	Cl	-4.45209e-17	0.41133	0.75	-2.682
_end
