data_functionalizedCrystal
_audit_creation_method	'EQeq! by Chris Wilmer'
_symmetry_space_group_name_H-M	'P1'
_symmetry_Int_Tables_number	1
_symmetry_cell_setting	triclinic
loop_
_symmetry_equiv_pos_as_xyz
  x,y,z
_cell_length_a	8.741
_cell_length_b	14.796
_cell_length_c	19.34
_cell_angle_alpha	90
_cell_angle_beta	90
_cell_angle_gamma	90
loop_
_atom_site_label
_atom_site_type_symbol
_atom_site_fract_x
_atom_site_fract_y
_atom_site_fract_z
_atom_site_charge
Mof_Zn	Zn	0.36854	0.04448	0.9267	1.212
Mof_Zn	Zn	0.13146	0.95552	0.4267	1.213
Mof_Zn	Zn	0.63146	0.54448	0.5733	1.213
Mof_Zn	Zn	0.86854	0.45552	0.0733	1.212
Mof_H 	H 	0.6963	0.8659	0.5004	0.107
Mof_H 	H 	0.1557	0.0288	0.6913	0.13
Mof_H 	H 	0.7373	0.7121	0.4995	-0.008
Mof_H 	H 	0.8327	0.1166	0.5802	0.177
Mof_H 	H 	0.7781	0.0216	0.606	0.18
Mof_H 	H 	0.1588	0.0493	0.8083	-0.035
Mof_H 	H 	0.3743	0.8269	0.6442	0.118
Mof_H 	H 	0.4185	0.6779	0.6387	-0.033
Mof_H 	H 	0.5899	0.986	0.8198	-0.028
Mof_H 	H 	0.6057	0.9654	0.7023	0.116
Mof_H 	H 	0.295	0.999	0.595	0.163
Mof_H 	H 	0.689	0.074	0.467	0.005
Mof_H 	H 	0.8037	0.1341	0.0004	0.107
Mof_H 	H 	0.3443	0.9712	0.1913	0.13
Mof_H 	H 	0.7627	0.2879	0.9995	-0.008
Mof_H 	H 	0.6673	0.8834	0.0802	0.175
Mof_H 	H 	0.7219	0.9784	0.106	0.178
Mof_H 	H 	0.3412	0.9507	0.3083	-0.035
Mof_H 	H 	0.1257	0.1731	0.1442	0.117
Mof_H 	H 	0.0815	0.3221	0.1387	-0.033
Mof_H 	H 	0.9101	0.014	0.3198	-0.028
Mof_H 	H 	0.8943	0.0346	0.2023	0.116
Mof_H 	H 	0.205	0.001	0.095	0.163
Mof_H 	H 	0.811	0.926	0.967	0.009
Mof_H 	H 	0.3037	0.3659	0.9996	0.105
Mof_H 	H 	0.8443	0.5288	0.8087	0.129
Mof_H 	H 	0.2627	0.2121	0.0005	-0.005
Mof_H 	H 	0.1673	0.6166	0.9198	0.176
Mof_H 	H 	0.2219	0.5216	0.894	0.179
Mof_H 	H 	0.8412	0.5493	0.6917	-0.034
Mof_H 	H 	0.6257	0.3269	0.8558	0.117
Mof_H 	H 	0.5815	0.1779	0.8613	-0.033
Mof_H 	H 	0.4101	0.486	0.6802	-0.027
Mof_H 	H 	0.3943	0.4654	0.7977	0.114
Mof_H 	H 	0.705	0.499	0.905	0.163
Mof_H 	H 	0.311	0.574	0.033	0.006
Mof_H 	H 	0.1963	0.6341	0.4996	0.107
Mof_H 	H 	0.6557	0.4712	0.3087	0.129
Mof_H 	H 	0.2373	0.7879	0.5005	-0.008
Mof_H 	H 	0.3327	0.3834	0.4198	0.177
Mof_H 	H 	0.2781	0.4784	0.394	0.181
Mof_H 	H 	0.6588	0.4507	0.1917	-0.034
Mof_H 	H 	0.8743	0.6731	0.3558	0.118
Mof_H 	H 	0.9185	0.8221	0.3613	-0.033
Mof_H 	H 	0.0899	0.514	0.1802	-0.027
Mof_H 	H 	0.1057	0.5346	0.2977	0.115
Mof_H 	H 	0.795	0.501	0.405	0.163
Mof_H 	H 	0.189	0.426	0.533	0.004
Mof_C 	C 	0.6824	0.0584	0.5167	0.161
Mof_C 	C 	0.3825	0.9979	0.6825	0.216
Mof_C 	C 	0.5516	0.0152	0.521	-0.111
Mof_C 	C 	0.5317	0.8653	0.5733	0.185
Mof_C 	C 	0.6395	0.8287	0.5294	-0.202
Mof_C 	C 	0.2458	0.0209	0.7161	-0.247
Mof_C 	C 	0.6628	0.7352	0.529	0.108
Mof_C 	C 	0.8093	0.0555	0.5655	-0.47
Mof_C 	C 	0.9519	0.0133	0.536	0.44
Mof_C 	C 	0.2486	0.0314	0.7865	0.144
Mof_C 	C 	0.4489	0.8051	0.6143	-0.212
Mof_C 	C 	0.4765	0.7157	0.6106	0.115
Mof_C 	C 	0.5026	0.9945	0.7931	0.125
Mof_C 	C 	0.5139	0.9828	0.7227	-0.228
Mof_C 	C 	0.4329	0.0182	0.4647	0.35
Mof_C 	C 	0.8176	0.9416	0.0167	0.154
Mof_C 	C 	0.1175	0.0021	0.1825	0.217
Mof_C 	C 	0.9484	0.9848	0.021	-0.113
Mof_C 	C 	0.9683	0.1347	0.0733	0.183
Mof_C 	C 	0.8605	0.1713	0.0294	-0.201
Mof_C 	C 	0.2542	0.9791	0.2161	-0.248
Mof_C 	C 	0.8372	0.2648	0.029	0.107
Mof_C 	C 	0.6907	0.9445	0.0655	-0.464
Mof_C 	C 	0.5481	0.9867	0.036	0.434
Mof_C 	C 	0.2514	0.9686	0.2865	0.144
Mof_C 	C 	0.0511	0.1949	0.1143	-0.21
Mof_C 	C 	0.0235	0.2843	0.1106	0.116
Mof_C 	C 	0.9974	0.0055	0.2931	0.124
Mof_C 	C 	0.9861	0.0172	0.2227	-0.229
Mof_C 	C 	0.0671	0.9818	0.9647	0.354
Mof_C 	C 	0.3176	0.5584	0.9833	0.158
Mof_C 	C 	0.6175	0.4979	0.8175	0.213
Mof_C 	C 	0.4484	0.5152	0.979	-0.11
Mof_C 	C 	0.4683	0.3653	0.9267	0.184
Mof_C 	C 	0.3605	0.3287	0.9706	-0.199
Mof_C 	C 	0.7542	0.5209	0.7839	-0.244
Mof_C 	C 	0.3372	0.2352	0.971	0.103
Mof_C 	C 	0.1907	0.5555	0.9345	-0.466
Mof_C 	C 	0.0481	0.5133	0.964	0.435
Mof_C 	C 	0.7514	0.5314	0.7135	0.143
Mof_C 	C 	0.5511	0.3051	0.8857	-0.211
Mof_C 	C 	0.5235	0.2157	0.8894	0.115
Mof_C 	C 	0.4974	0.4945	0.7069	0.122
Mof_C 	C 	0.4861	0.4828	0.7773	-0.226
Mof_C 	C 	0.5671	0.5182	0.0353	0.35
Mof_C 	C 	0.1824	0.4416	0.4833	0.161
Mof_C 	C 	0.8825	0.5021	0.3175	0.212
Mof_C 	C 	0.0516	0.4848	0.479	-0.111
Mof_C 	C 	0.0317	0.6347	0.4267	0.185
Mof_C 	C 	0.1395	0.6713	0.4706	-0.202
Mof_C 	C 	0.7458	0.4791	0.2839	-0.244
Mof_C 	C 	0.1628	0.7648	0.471	0.108
Mof_C 	C 	0.3093	0.4445	0.4345	-0.47
Mof_C 	C 	0.4519	0.4867	0.464	0.441
Mof_C 	C 	0.7486	0.4686	0.2135	0.142
Mof_C 	C 	0.9489	0.6949	0.3857	-0.212
Mof_C 	C 	0.9765	0.7843	0.3894	0.115
Mof_C 	C 	0.0026	0.5055	0.2069	0.123
Mof_C 	C 	0.0139	0.5172	0.2773	-0.226
Mof_C 	C 	0.9329	0.4818	0.5353	0.351
Mof_N 	N 	0.3794	0.9885	0.6126	-0.212
Mof_N 	N 	0.5116	0.9572	0.5783	-0.085
Mof_N 	N 	0.5841	0.6764	0.5686	-0.285
Mof_N 	N 	0.3717	0.0176	0.8255	-0.299
Mof_N 	N 	0.1206	0.0115	0.1126	-0.212
Mof_N 	N 	0.9884	0.0428	0.0783	-0.084
Mof_N 	N 	0.9159	0.3236	0.0686	-0.286
Mof_N 	N 	0.1283	0.9824	0.3255	-0.298
Mof_N 	N 	0.6206	0.4885	0.8874	-0.212
Mof_N 	N 	0.4884	0.4572	0.9217	-0.085
Mof_N 	N 	0.4159	0.1764	0.9314	-0.284
Mof_N 	N 	0.6283	0.5176	0.6745	-0.298
Mof_N 	N 	0.8794	0.5115	0.3874	-0.212
Mof_N 	N 	0.0116	0.5428	0.4217	-0.085
Mof_N 	N 	0.0841	0.8236	0.4314	-0.285
Mof_N 	N 	0.8717	0.4824	0.1745	-0.298
Mof_O 	O 	0.9677	0.0235	0.4703	-0.487
Mof_O 	O 	0.0451	0.9734	0.5728	-0.352
Mof_O 	O 	0.4444	0.0713	0.415	-0.295
Mof_O 	O 	0.3257	0.9604	0.4725	-0.462
Mof_O 	O 	0.5323	0.9765	0.9703	-0.483
Mof_O 	O 	0.4549	0.0266	0.0728	-0.348
Mof_O 	O 	0.0556	0.9287	0.915	-0.296
Mof_O 	O 	0.1743	0.0396	0.9725	-0.466
Mof_O 	O 	0.0323	0.5235	0.0297	-0.484
Mof_O 	O 	0.9549	0.4734	0.9272	-0.349
Mof_O 	O 	0.5556	0.5713	0.085	-0.295
Mof_O 	O 	0.6743	0.4604	0.0275	-0.463
Mof_O 	O 	0.4677	0.4765	0.5297	-0.487
Mof_O 	O 	0.5451	0.5266	0.4272	-0.352
Mof_O 	O 	0.9444	0.4287	0.585	-0.295
Mof_O 	O 	0.8257	0.5396	0.5275	-0.463
_end
