data_functionalizedCrystal
_audit_creation_method	'EQeq! by Chris Wilmer'
_symmetry_space_group_name_H-M	'P1'
_symmetry_Int_Tables_number	1
_symmetry_cell_setting	triclinic
loop_
_symmetry_equiv_pos_as_xyz
  x,y,z
_cell_length_a	11.9669
_cell_length_b	11.9669
_cell_length_c	19.0262
_cell_angle_alpha	102.448
_cell_angle_beta	102.448
_cell_angle_gamma	91.7087
loop_
_atom_site_label
_atom_site_type_symbol
_atom_site_fract_x
_atom_site_fract_y
_atom_site_fract_z
_atom_site_charge
Mof_Cd	Cd	0.97261	0.77207	0.4436	0.461
Mof_Cd	Cd	0.77207	0.97261	0.9436	0.459
Mof_H 	H 	0.8824	0.9012	0.2047	0.085
Mof_H 	H 	0.6586	0.1412	0.1664	0.106
Mof_H 	H 	0.7207	0.0529	0.3643	0.122
Mof_H 	H 	0.7148	0.7942	0.4667	0.006
Mof_H 	H 	0.5418	0.6966	0.4487	0.115
Mof_H 	H 	0.4205	0.5187	0.4187	0.123
Mof_H 	H 	0.4861	0.4035	0.4105	0.124
Mof_H 	H 	0.3981	0.5045	0.2892	-0.002
Mof_H 	H 	0.4548	0.3842	0.283	-0.005
Mof_H 	H 	0.2967	0.3117	0.3303	0.131
Mof_H 	H 	0.2549	0.3373	0.2498	0.132
Mof_H 	H 	0.1646	0.5172	0.2438	0.121
Mof_H 	H 	0.0485	0.6565	0.289	0.013
Mof_H 	H 	0.1001	0.5445	0.4732	0.002
Mof_H 	H 	0.2156	0.4148	0.4288	0.119
Mof_H 	H 	0.6712	0.4114	0.3555	0.116
Mof_H 	H 	0.8394	0.5216	0.3727	-0.014
Mof_H 	H 	0.1287	0.9605	0.5116	0.248
Mof_H 	H 	0.5771	0.2179	0.2558	0.229
Mof_H 	H 	0.9012	0.8824	0.7047	0.086
Mof_H 	H 	0.1412	0.6586	0.6664	0.107
Mof_H 	H 	0.0529	0.7207	0.8643	0.123
Mof_H 	H 	0.7942	0.7148	0.9667	0.006
Mof_H 	H 	0.6966	0.5418	0.9487	0.115
Mof_H 	H 	0.5187	0.4205	0.9187	0.123
Mof_H 	H 	0.4035	0.4861	0.9105	0.124
Mof_H 	H 	0.5045	0.3981	0.7892	-0.002
Mof_H 	H 	0.3842	0.4548	0.783	-0.005
Mof_H 	H 	0.3117	0.2967	0.8303	0.131
Mof_H 	H 	0.3373	0.2549	0.7498	0.132
Mof_H 	H 	0.5172	0.1646	0.7438	0.121
Mof_H 	H 	0.6565	0.0485	0.789	0.013
Mof_H 	H 	0.5445	0.1001	0.9732	0.004
Mof_H 	H 	0.4148	0.2156	0.9288	0.12
Mof_H 	H 	0.4114	0.6712	0.8555	0.116
Mof_H 	H 	0.5216	0.8394	0.8727	-0.014
Mof_H 	H 	0.9605	0.1287	0.0116	0.243
Mof_H 	H 	0.2179	0.5771	0.7558	0.229
Mof_C 	C 	0.8757	0.9023	0.3442	0.267
Mof_C 	C 	0.7834	0.0004	0.0948	0.267
Mof_C 	C 	0.8127	0.9673	0.2927	0.016
Mof_C 	C 	0.8298	0.9532	0.2209	-0.074
Mof_C 	C 	0.7693	0.0155	0.173	0.025
Mof_C 	C 	0.696	0.0954	0.198	-0.195
Mof_C 	C 	0.6773	0.1081	0.2684	0.273
Mof_C 	C 	0.7344	0.0444	0.3161	-0.183
Mof_C 	C 	0.7057	0.7153	0.4424	0.136
Mof_C 	C 	0.6024	0.6568	0.4325	-0.248
Mof_C 	C 	0.5833	0.5433	0.4002	0.211
Mof_C 	C 	0.4703	0.4725	0.3903	-0.319
Mof_C 	C 	0.4082	0.4362	0.3107	0.117
Mof_C 	C 	0.2879	0.3731	0.3025	-0.334
Mof_C 	C 	0.2075	0.4573	0.3318	0.247
Mof_C 	C 	0.1551	0.5245	0.2929	-0.249
Mof_C 	C 	0.084	0.6088	0.3199	0.132
Mof_C 	C 	0.1151	0.5437	0.4261	0.141
Mof_C 	C 	0.1832	0.4658	0.3994	-0.254
Mof_C 	C 	0.6768	0.491	0.3778	-0.236
Mof_C 	C 	0.7769	0.5581	0.3889	0.129
Mof_C 	C 	0.9023	0.8757	0.8442	0.267
Mof_C 	C 	0.0004	0.7834	0.5948	0.27
Mof_C 	C 	0.9673	0.8127	0.7927	0.016
Mof_C 	C 	0.9532	0.8298	0.7209	-0.076
Mof_C 	C 	0.0155	0.7693	0.673	0.027
Mof_C 	C 	0.0954	0.696	0.698	-0.195
Mof_C 	C 	0.1081	0.6773	0.7684	0.273
Mof_C 	C 	0.0444	0.7344	0.8161	-0.183
Mof_C 	C 	0.7153	0.7057	0.9424	0.136
Mof_C 	C 	0.6568	0.6024	0.9325	-0.248
Mof_C 	C 	0.5433	0.5833	0.9002	0.211
Mof_C 	C 	0.4725	0.4703	0.8903	-0.319
Mof_C 	C 	0.4362	0.4082	0.8107	0.117
Mof_C 	C 	0.3731	0.2879	0.8025	-0.334
Mof_C 	C 	0.4573	0.2075	0.8318	0.247
Mof_C 	C 	0.5245	0.1551	0.7929	-0.248
Mof_C 	C 	0.6088	0.084	0.8199	0.132
Mof_C 	C 	0.5437	0.1151	0.9261	0.142
Mof_C 	C 	0.4658	0.1832	0.8994	-0.253
Mof_C 	C 	0.491	0.6768	0.8778	-0.237
Mof_C 	C 	0.5581	0.7769	0.8889	0.129
Mof_N 	N 	0.7941	0.6687	0.4201	-0.175
Mof_N 	N 	0.0662	0.6222	0.388	-0.164
Mof_N 	N 	0.6687	0.7941	0.9201	-0.175
Mof_N 	N 	0.6222	0.0662	0.888	-0.163
Mof_O 	O 	0.8592	0.917	0.4086	-0.274
Mof_O 	O 	0.1331	0.9097	0.4744	-0.324
Mof_O 	O 	0.9443	0.8323	0.3226	-0.246
Mof_O 	O 	0.9304	0.8518	0.5736	-0.241
Mof_O 	O 	0.0532	0.726	0.5529	-0.27
Mof_O 	O 	0.6042	0.1864	0.2905	-0.415
Mof_O 	O 	0.917	0.8592	0.9086	-0.274
Mof_O 	O 	0.9097	0.1331	0.9744	-0.318
Mof_O 	O 	0.8323	0.9443	0.8226	-0.246
Mof_O 	O 	0.8518	0.9304	0.0736	-0.238
Mof_O 	O 	0.726	0.0532	0.0529	-0.271
Mof_O 	O 	0.1864	0.6042	0.7905	-0.415
Mof_Cd	Cd	0.22793	0.02739	0.0564	0.46
Mof_Cd	Cd	0.02739	0.22793	0.5564	0.462
Mof_H 	H 	0.0988	0.1176	0.2953	0.086
Mof_H 	H 	0.8588	0.3414	0.3336	0.107
Mof_H 	H 	0.9471	0.2793	0.1357	0.123
Mof_H 	H 	0.2058	0.2852	0.0333	0.006
Mof_H 	H 	0.3034	0.4582	0.0513	0.115
Mof_H 	H 	0.4813	0.5795	0.0813	0.123
Mof_H 	H 	0.5965	0.5139	0.0895	0.124
Mof_H 	H 	0.4955	0.6019	0.2108	-0.002
Mof_H 	H 	0.6158	0.5452	0.217	-0.005
Mof_H 	H 	0.6883	0.7033	0.1697	0.131
Mof_H 	H 	0.6627	0.7451	0.2502	0.132
Mof_H 	H 	0.4828	0.8354	0.2562	0.121
Mof_H 	H 	0.3435	0.9515	0.211	0.013
Mof_H 	H 	0.4555	0.8999	0.0268	0.004
Mof_H 	H 	0.5852	0.7844	0.0712	0.12
Mof_H 	H 	0.5886	0.3288	0.1445	0.116
Mof_H 	H 	0.4784	0.1606	0.1273	-0.014
Mof_H 	H 	0.0395	0.8713	0.9884	0.243
Mof_H 	H 	0.7821	0.4229	0.2442	0.229
Mof_H 	H 	0.1176	0.0988	0.7953	0.086
Mof_H 	H 	0.3414	0.8588	0.8336	0.107
Mof_H 	H 	0.2793	0.9471	0.6357	0.123
Mof_H 	H 	0.2852	0.2058	0.5333	0.007
Mof_H 	H 	0.4582	0.3034	0.5513	0.115
Mof_H 	H 	0.5795	0.4813	0.5813	0.123
Mof_H 	H 	0.5139	0.5965	0.5895	0.124
Mof_H 	H 	0.6019	0.4955	0.7108	-0.002
Mof_H 	H 	0.5452	0.6158	0.717	-0.005
Mof_H 	H 	0.7033	0.6883	0.6697	0.131
Mof_H 	H 	0.7451	0.6627	0.7502	0.132
Mof_H 	H 	0.8354	0.4828	0.7562	0.121
Mof_H 	H 	0.9515	0.3435	0.711	0.013
Mof_H 	H 	0.8999	0.4555	0.5268	0.002
Mof_H 	H 	0.7844	0.5852	0.5712	0.119
Mof_H 	H 	0.3288	0.5886	0.6445	0.116
Mof_H 	H 	0.1606	0.4784	0.6273	-0.014
Mof_H 	H 	0.8713	0.0395	0.4884	0.248
Mof_H 	H 	0.4229	0.7821	0.7442	0.229
Mof_C 	C 	0.0977	0.1243	0.1558	0.267
Mof_C 	C 	0.9996	0.2166	0.4052	0.27
Mof_C 	C 	0.0327	0.1873	0.2073	0.016
Mof_C 	C 	0.0468	0.1702	0.2791	-0.076
Mof_C 	C 	0.9845	0.2307	0.327	0.027
Mof_C 	C 	0.9046	0.304	0.302	-0.195
Mof_C 	C 	0.8919	0.3227	0.2316	0.273
Mof_C 	C 	0.9556	0.2656	0.1839	-0.183
Mof_C 	C 	0.2847	0.2943	0.0576	0.136
Mof_C 	C 	0.3432	0.3976	0.0675	-0.248
Mof_C 	C 	0.4567	0.4167	0.0998	0.211
Mof_C 	C 	0.5275	0.5297	0.1097	-0.319
Mof_C 	C 	0.5638	0.5918	0.1893	0.117
Mof_C 	C 	0.6269	0.7121	0.1975	-0.334
Mof_C 	C 	0.5427	0.7925	0.1682	0.247
Mof_C 	C 	0.4755	0.8449	0.2071	-0.248
Mof_C 	C 	0.3912	0.916	0.1801	0.132
Mof_C 	C 	0.4563	0.8849	0.0739	0.142
Mof_C 	C 	0.5342	0.8168	0.1006	-0.253
Mof_C 	C 	0.509	0.3232	0.1222	-0.237
Mof_C 	C 	0.4419	0.2231	0.1111	0.129
Mof_C 	C 	0.1243	0.0977	0.6558	0.267
Mof_C 	C 	0.2166	0.9996	0.9052	0.267
Mof_C 	C 	0.1873	0.0327	0.7073	0.016
Mof_C 	C 	0.1702	0.0468	0.7791	-0.074
Mof_C 	C 	0.2307	0.9845	0.827	0.025
Mof_C 	C 	0.304	0.9046	0.802	-0.195
Mof_C 	C 	0.3227	0.8919	0.7316	0.273
Mof_C 	C 	0.2656	0.9556	0.6839	-0.183
Mof_C 	C 	0.2943	0.2847	0.5576	0.136
Mof_C 	C 	0.3976	0.3432	0.5675	-0.248
Mof_C 	C 	0.4167	0.4567	0.5998	0.211
Mof_C 	C 	0.5297	0.5275	0.6097	-0.319
Mof_C 	C 	0.5918	0.5638	0.6893	0.117
Mof_C 	C 	0.7121	0.6269	0.6975	-0.334
Mof_C 	C 	0.7925	0.5427	0.6682	0.247
Mof_C 	C 	0.8449	0.4755	0.7071	-0.249
Mof_C 	C 	0.916	0.3912	0.6801	0.132
Mof_C 	C 	0.8849	0.4563	0.5739	0.141
Mof_C 	C 	0.8168	0.5342	0.6006	-0.254
Mof_C 	C 	0.3232	0.509	0.6222	-0.236
Mof_C 	C 	0.2231	0.4419	0.6111	0.129
Mof_N 	N 	0.3313	0.2059	0.0799	-0.175
Mof_N 	N 	0.3778	0.9338	0.112	-0.163
Mof_N 	N 	0.2059	0.3313	0.5799	-0.175
Mof_N 	N 	0.9338	0.3778	0.612	-0.164
Mof_O 	O 	0.083	0.1408	0.0914	-0.274
Mof_O 	O 	0.0903	0.8669	0.0256	-0.318
Mof_O 	O 	0.1677	0.0557	0.1774	-0.246
Mof_O 	O 	0.1482	0.0696	0.9264	-0.238
Mof_O 	O 	0.274	0.9468	0.9471	-0.271
Mof_O 	O 	0.8136	0.3958	0.2095	-0.415
Mof_O 	O 	0.1408	0.083	0.5914	-0.274
Mof_O 	O 	0.8669	0.0903	0.5256	-0.324
Mof_O 	O 	0.0557	0.1677	0.6774	-0.246
Mof_O 	O 	0.0696	0.1482	0.4264	-0.241
Mof_O 	O 	0.9468	0.274	0.4471	-0.27
Mof_O 	O 	0.3958	0.8136	0.7095	-0.415
_end
