data_functionalizedCrystal
_audit_creation_method	'EQeq! by Chris Wilmer'
_symmetry_space_group_name_H-M	'P1'
_symmetry_Int_Tables_number	1
_symmetry_cell_setting	triclinic
loop_
_symmetry_equiv_pos_as_xyz
  x,y,z
_cell_length_a	22.9437
_cell_length_b	22.9437
_cell_length_c	15.747
_cell_angle_alpha	90
_cell_angle_beta	90
_cell_angle_gamma	120
loop_
_atom_site_label
_atom_site_type_symbol
_atom_site_fract_x
_atom_site_fract_y
_atom_site_fract_z
_atom_site_charge
Mof_C 	C 	0.3294	0.0288	0.1756	0.091
Mof_H 	H 	0.3333	0.071	0.1714	-0.043
Mof_C 	C 	0.3367	0.9456	0.2234	0.044
Mof_C 	C 	0.3476	0.9006	0.2714	-0.108
Mof_H 	H 	0.3675	0.9117	0.3249	0.044
Mof_C 	C 	0.327	0.8394	0.2345	-0.019
Mof_H 	H 	0.3346	0.8085	0.2635	0.03
Mof_C 	C 	0.3926	0.2006	0.3394	0.106
Mof_H 	H 	0.3659	0.1891	0.3878	-0.046
Mof_C 	C 	0.4522	0.1957	0.2377	0.043
Mof_C 	C 	0.487	0.1794	0.18	-0.107
Mof_H 	H 	0.4863	0.1385	0.1829	0.036
Mof_C 	C 	0.5228	0.2258	0.1181	-0.024
Mof_H 	H 	0.5476	0.2167	0.0789	0.032
Mof_C 	C 	0.4524	0.2567	0.2328	0.037
Mof_C 	C 	0.4887	0.3038	0.1702	-0.103
Mof_H 	H 	0.4899	0.3448	0.1672	0.036
Mof_C 	C 	0.5226	0.2864	0.1129	-0.027
Mof_H 	H 	0.5463	0.3162	0.0692	0.032
Mof_C 	C 	0.304	0.9277	0.1454	0.042
Mof_C 	C 	0.2837	0.8652	0.1106	-0.104
Mof_H 	H 	0.2628	0.8533	0.0578	0.041
Mof_C 	C 	0.2952	0.8209	0.1564	-0.028
Mof_H 	H 	0.2816	0.7783	0.1348	0.033
Mof_Co	Co	0.39885	0.07006	0.34075	1.106
Mof_N 	N 	0.3526	0.0112	0.2427	-0.282
Mof_N 	N 	0.4124	0.1597	0.3063	-0.281
Mof_N 	N 	0.4129	0.2583	0.2999	-0.281
Mof_N 	N 	0.3004	0.9825	0.1149	-0.283
Mof_C 	C 	0.99607	0.36213	0.50893	0.086
Mof_H 	H 	0.99997	0.40433	0.50473	-0.043
Mof_C 	C 	0.00337	0.27893	0.55673	0.044
Mof_C 	C 	0.01427	0.23393	0.60473	-0.107
Mof_H 	H 	0.03417	0.24503	0.65823	0.043
Mof_C 	C 	0.99367	0.17273	0.56783	-0.024
Mof_H 	H 	0.00127	0.14183	0.59683	0.03
Mof_C 	C 	0.05927	0.53393	0.67273	0.105
Mof_H 	H 	0.03257	0.52243	0.72113	-0.047
Mof_C 	C 	0.11887	0.52903	0.57103	0.041
Mof_C 	C 	0.15367	0.51273	0.51333	-0.108
Mof_H 	H 	0.15297	0.47183	0.51623	0.034
Mof_C 	C 	0.18947	0.55913	0.45143	-0.025
Mof_H 	H 	0.21427	0.55003	0.41223	0.03
Mof_C 	C 	0.11907	0.59003	0.56613	0.036
Mof_C 	C 	0.15537	0.63713	0.50353	-0.105
Mof_H 	H 	0.15657	0.67813	0.50053	0.036
Mof_C 	C 	0.18927	0.61973	0.44623	-0.027
Mof_H 	H 	0.21297	0.64953	0.40253	0.031
Mof_C 	C 	0.97067	0.26103	0.47873	0.043
Mof_C 	C 	0.95037	0.19853	0.44393	-0.106
Mof_H 	H 	0.92947	0.18663	0.39113	0.042
Mof_C 	C 	0.96187	0.15423	0.48973	-0.026
Mof_H 	H 	0.94827	0.11163	0.46813	0.032
Mof_Co	Co	0.06552	0.40339	0.67408	1.106
Mof_N 	N 	0.01927	0.34453	0.57603	-0.282
Mof_N 	N 	0.07907	0.49303	0.63963	-0.281
Mof_N 	N 	0.07957	0.59163	0.63323	-0.281
Mof_N 	N 	0.96707	0.31583	0.44823	-0.281
Mof_C 	C 	0.66273	0.69547	0.84227	0.086
Mof_H 	H 	0.66663	0.73767	0.83807	-0.043
Mof_C 	C 	0.67003	0.61227	0.89007	0.046
Mof_C 	C 	0.68093	0.56727	0.93807	-0.11
Mof_H 	H 	0.70083	0.57837	0.99157	0.044
Mof_C 	C 	0.66033	0.50607	0.90117	-0.019
Mof_H 	H 	0.66793	0.47517	0.93017	0.028
Mof_C 	C 	0.72593	0.86727	0.00607	0.103
Mof_H 	H 	0.69923	0.85577	0.05447	-0.047
Mof_C 	C 	0.78553	0.86237	0.90437	0.044
Mof_C 	C 	0.82033	0.84607	0.84667	-0.111
Mof_H 	H 	0.81963	0.80517	0.84957	0.035
Mof_C 	C 	0.85613	0.89247	0.78477	-0.021
Mof_H 	H 	0.88093	0.88337	0.74557	0.029
Mof_C 	C 	0.78573	0.92337	0.89947	0.033
Mof_C 	C 	0.82203	0.97047	0.83687	-0.096
Mof_H 	H 	0.82323	0.01147	0.83387	0.031
Mof_C 	C 	0.85593	0.95307	0.77957	-0.033
Mof_H 	H 	0.87963	0.98287	0.73587	0.034
Mof_C 	C 	0.63733	0.59437	0.81207	0.042
Mof_C 	C 	0.61703	0.53187	0.77727	-0.104
Mof_H 	H 	0.59613	0.51997	0.72447	0.041
Mof_C 	C 	0.62853	0.48757	0.82307	-0.029
Mof_H 	H 	0.61493	0.44497	0.80147	0.034
Mof_Co	Co	0.73218	0.73673	0.00742	1.106
Mof_N 	N 	0.68593	0.67787	0.90937	-0.283
Mof_N 	N 	0.74573	0.82637	0.97297	-0.28
Mof_N 	N 	0.74623	0.92497	0.96657	-0.279
Mof_N 	N 	0.63373	0.64917	0.78157	-0.281
Mof_C 	C 	0.9712	0.3006	0.1756	0.09
Mof_H 	H 	0.929	0.2623	0.1714	-0.043
Mof_C 	C 	0.0544	0.3911	0.2234	0.043
Mof_C 	C 	0.0994	0.447	0.2714	-0.109
Mof_H 	H 	0.0883	0.4558	0.3249	0.043
Mof_C 	C 	0.1606	0.4876	0.2345	-0.02
Mof_H 	H 	0.1915	0.5261	0.2635	0.029
Mof_C 	C 	0.7994	0.192	0.3394	0.105
Mof_H 	H 	0.8109	0.1768	0.3878	-0.047
Mof_C 	C 	0.8043	0.2565	0.2377	0.042
Mof_C 	C 	0.8206	0.3076	0.18	-0.107
Mof_H 	H 	0.8615	0.3478	0.1829	0.035
Mof_C 	C 	0.7742	0.297	0.1181	-0.025
Mof_H 	H 	0.7833	0.3309	0.0789	0.031
Mof_C 	C 	0.7433	0.1957	0.2328	0.036
Mof_C 	C 	0.6962	0.1849	0.1702	-0.104
Mof_H 	H 	0.6552	0.1451	0.1672	0.037
Mof_C 	C 	0.7136	0.2362	0.1129	-0.027
Mof_H 	H 	0.6838	0.2301	0.0692	0.032
Mof_C 	C 	0.0723	0.3763	0.1454	0.042
Mof_C 	C 	0.1348	0.4185	0.1106	-0.105
Mof_H 	H 	0.1467	0.4095	0.0578	0.041
Mof_C 	C 	0.1791	0.4743	0.1564	-0.028
Mof_H 	H 	0.2217	0.5033	0.1348	0.033
Mof_Co	Co	0.92994	0.32879	0.34075	1.106
Mof_N 	N 	0.9888	0.3414	0.2427	-0.282
Mof_N 	N 	0.8403	0.2527	0.3063	-0.281
Mof_N 	N 	0.7417	0.1546	0.2999	-0.281
Mof_N 	N 	0.0175	0.3179	0.1149	-0.283
Mof_C 	C 	0.63787	0.63393	0.50893	0.086
Mof_H 	H 	0.59567	0.59563	0.50473	-0.043
Mof_C 	C 	0.72107	0.72443	0.55673	0.045
Mof_C 	C 	0.76607	0.78033	0.60473	-0.11
Mof_H 	H 	0.75497	0.78913	0.65823	0.044
Mof_C 	C 	0.82727	0.82093	0.56783	-0.019
Mof_H 	H 	0.85817	0.85943	0.59683	0.028
Mof_C 	C 	0.46607	0.52533	0.67273	0.105
Mof_H 	H 	0.47757	0.51013	0.72113	-0.047
Mof_C 	C 	0.47097	0.58983	0.57103	0.041
Mof_C 	C 	0.48727	0.64093	0.51333	-0.108
Mof_H 	H 	0.52817	0.68113	0.51623	0.034
Mof_C 	C 	0.44087	0.63033	0.45143	-0.025
Mof_H 	H 	0.44997	0.66423	0.41223	0.031
Mof_C 	C 	0.40997	0.52903	0.56613	0.036
Mof_C 	C 	0.36287	0.51823	0.50353	-0.105
Mof_H 	H 	0.32187	0.47843	0.50053	0.036
Mof_C 	C 	0.38027	0.56953	0.44623	-0.027
Mof_H 	H 	0.35047	0.56343	0.40253	0.031
Mof_C 	C 	0.73897	0.70963	0.47873	0.042
Mof_C 	C 	0.80147	0.75183	0.44393	-0.104
Mof_H 	H 	0.81337	0.74283	0.39113	0.041
Mof_C 	C 	0.84577	0.80763	0.48973	-0.029
Mof_H 	H 	0.88837	0.83663	0.46813	0.033
Mof_Co	Co	0.59661	0.66212	0.67408	1.106
Mof_N 	N 	0.65547	0.67473	0.57603	-0.283
Mof_N 	N 	0.50697	0.58603	0.63963	-0.281
Mof_N 	N 	0.40837	0.48793	0.63323	-0.281
Mof_N 	N 	0.68417	0.65123	0.44823	-0.281
Mof_C 	C 	0.30453	0.96727	0.84227	0.09
Mof_H 	H 	0.26233	0.92897	0.83807	-0.043
Mof_C 	C 	0.38773	0.05777	0.89007	0.046
Mof_C 	C 	0.43273	0.11367	0.93807	-0.111
Mof_H 	H 	0.42163	0.12247	0.99157	0.044
Mof_C 	C 	0.49393	0.15427	0.90117	-0.018
Mof_H 	H 	0.52483	0.19277	0.93017	0.028
Mof_C 	C 	0.13273	0.85867	0.00607	0.094
Mof_H 	H 	0.14423	0.84347	0.05447	-0.044
Mof_C 	C 	0.13763	0.92317	0.90437	0.041
Mof_C 	C 	0.15393	0.97427	0.84667	-0.102
Mof_H 	H 	0.19483	0.01447	0.84957	0.031
Mof_C 	C 	0.10753	0.96367	0.78477	-0.027
Mof_H 	H 	0.11663	0.99757	0.74557	0.032
Mof_C 	C 	0.07663	0.86237	0.89947	0.036
Mof_C 	C 	0.02953	0.85157	0.83687	-0.099
Mof_H 	H 	0.98853	0.81177	0.83387	0.033
Mof_C 	C 	0.04693	0.90287	0.77957	-0.029
Mof_H 	H 	0.01713	0.89677	0.73587	0.032
Mof_C 	C 	0.40563	0.04297	0.81207	0.039
Mof_C 	C 	0.46813	0.08517	0.77727	-0.102
Mof_H 	H 	0.48003	0.07617	0.72447	0.041
Mof_C 	C 	0.51243	0.14097	0.82307	-0.03
Mof_H 	H 	0.55503	0.16997	0.80147	0.034
Mof_Co	Co	0.26327	0.99546	0.00742	1.104
Mof_N 	N 	0.32213	0.00807	0.90937	-0.284
Mof_N 	N 	0.17363	0.91937	0.97297	-0.276
Mof_N 	N 	0.07503	0.82127	0.96657	-0.276
Mof_N 	N 	0.35083	0.98457	0.78157	-0.28
Mof_C 	C 	0.6994	0.6706	0.1756	0.086
Mof_H 	H 	0.7377	0.6667	0.1714	-0.043
Mof_C 	C 	0.6089	0.6633	0.2234	0.045
Mof_C 	C 	0.553	0.6524	0.2714	-0.11
Mof_H 	H 	0.5442	0.6325	0.3249	0.044
Mof_C 	C 	0.5124	0.673	0.2345	-0.019
Mof_H 	H 	0.4739	0.6654	0.2635	0.028
Mof_C 	C 	0.808	0.6074	0.3394	0.105
Mof_H 	H 	0.8232	0.6341	0.3878	-0.047
Mof_C 	C 	0.7435	0.5478	0.2377	0.041
Mof_C 	C 	0.6924	0.513	0.18	-0.108
Mof_H 	H 	0.6522	0.5137	0.1829	0.034
Mof_C 	C 	0.703	0.4772	0.1181	-0.025
Mof_H 	H 	0.6691	0.4524	0.0789	0.031
Mof_C 	C 	0.8043	0.5476	0.2328	0.036
Mof_C 	C 	0.8151	0.5113	0.1702	-0.104
Mof_H 	H 	0.8549	0.5101	0.1672	0.037
Mof_C 	C 	0.7638	0.4774	0.1129	-0.027
Mof_H 	H 	0.7699	0.4537	0.0692	0.032
Mof_C 	C 	0.6237	0.696	0.1454	0.042
Mof_C 	C 	0.5815	0.7163	0.1106	-0.104
Mof_H 	H 	0.5905	0.7372	0.0578	0.041
Mof_C 	C 	0.5257	0.7048	0.1564	-0.029
Mof_H 	H 	0.4967	0.7184	0.1348	0.033
Mof_Co	Co	0.67121	0.60115	0.34075	1.106
Mof_N 	N 	0.6586	0.6474	0.2427	-0.283
Mof_N 	N 	0.7473	0.5876	0.3063	-0.281
Mof_N 	N 	0.8454	0.5871	0.2999	-0.281
Mof_N 	N 	0.6821	0.6996	0.1149	-0.281
Mof_C 	C 	0.36607	0.00393	0.50893	0.086
Mof_H 	H 	0.40437	3e-05	0.50473	-0.043
Mof_C 	C 	0.27557	0.99663	0.55673	0.044
Mof_C 	C 	0.21967	0.98573	0.60473	-0.107
Mof_H 	H 	0.21087	0.96583	0.65823	0.043
Mof_C 	C 	0.17907	0.00633	0.56783	-0.024
Mof_H 	H 	0.14057	0.99873	0.59683	0.03
Mof_C 	C 	0.47467	0.94073	0.67273	0.105
Mof_H 	H 	0.48987	0.96743	0.72113	-0.047
Mof_C 	C 	0.41017	0.88113	0.57103	0.041
Mof_C 	C 	0.35907	0.84633	0.51333	-0.108
Mof_H 	H 	0.31887	0.84703	0.51623	0.034
Mof_C 	C 	0.36967	0.81053	0.45143	-0.025
Mof_H 	H 	0.33577	0.78573	0.41223	0.03
Mof_C 	C 	0.47097	0.88093	0.56613	0.036
Mof_C 	C 	0.48177	0.84463	0.50353	-0.105
Mof_H 	H 	0.52157	0.84343	0.50053	0.036
Mof_C 	C 	0.43047	0.81073	0.44623	-0.027
Mof_H 	H 	0.43657	0.78703	0.40253	0.031
Mof_C 	C 	0.29037	0.02933	0.47873	0.043
Mof_C 	C 	0.24817	0.04963	0.44393	-0.106
Mof_H 	H 	0.25717	0.07053	0.39113	0.042
Mof_C 	C 	0.19237	0.03813	0.48973	-0.025
Mof_H 	H 	0.16337	0.05173	0.46813	0.032
Mof_Co	Co	0.33788	0.93448	0.67408	1.106
Mof_N 	N 	0.32527	0.98073	0.57603	-0.282
Mof_N 	N 	0.41397	0.92093	0.63963	-0.281
Mof_N 	N 	0.51207	0.92043	0.63323	-0.281
Mof_N 	N 	0.34877	0.03293	0.44823	-0.281
Mof_C 	C 	0.03273	0.33727	0.84227	0.09
Mof_H 	H 	0.07103	0.33337	0.83807	-0.044
Mof_C 	C 	0.94223	0.32997	0.89007	0.046
Mof_C 	C 	0.88633	0.31907	0.93807	-0.111
Mof_H 	H 	0.87753	0.29917	0.99157	0.043
Mof_C 	C 	0.84573	0.33967	0.90117	-0.019
Mof_H 	H 	0.80723	0.33207	0.93017	0.027
Mof_C 	C 	0.14133	0.27407	0.00607	0.103
Mof_H 	H 	0.15653	0.30077	0.05447	-0.047
Mof_C 	C 	0.07683	0.21447	0.90437	0.038
Mof_C 	C 	0.02573	0.17967	0.84667	-0.099
Mof_H 	H 	0.98553	0.18037	0.84957	0.029
Mof_C 	C 	0.03633	0.14387	0.78477	-0.031
Mof_H 	H 	0.00243	0.11907	0.74557	0.033
Mof_C 	C 	0.13763	0.21427	0.89947	0.038
Mof_C 	C 	0.14843	0.17797	0.83687	-0.108
Mof_H 	H 	0.18823	0.17677	0.83387	0.037
Mof_C 	C 	0.09713	0.14407	0.77957	-0.023
Mof_H 	H 	0.10323	0.12037	0.73587	0.03
Mof_C 	C 	0.95703	0.36267	0.81207	0.04
Mof_C 	C 	0.91483	0.38297	0.77727	-0.102
Mof_H 	H 	0.92383	0.40387	0.72447	0.041
Mof_C 	C 	0.85903	0.37147	0.82307	-0.03
Mof_H 	H 	0.83003	0.38507	0.80147	0.034
Mof_Co	Co	0.00454	0.26782	0.00742	1.106
Mof_N 	N 	0.99193	0.31407	0.90937	-0.285
Mof_N 	N 	0.08063	0.25427	0.97297	-0.279
Mof_N 	N 	0.17873	0.25377	0.96657	-0.281
Mof_N 	N 	0.01543	0.36627	0.78157	-0.28
Mof_C 	C 	0.6706	0.9712	0.8244	0.09
Mof_H 	H 	0.6667	0.929	0.8286	-0.044
Mof_C 	C 	0.6633	0.0544	0.7766	0.043
Mof_C 	C 	0.6524	0.0994	0.7286	-0.109
Mof_H 	H 	0.6325	0.0883	0.6751	0.043
Mof_C 	C 	0.673	0.1606	0.7655	-0.02
Mof_H 	H 	0.6654	0.1915	0.7365	0.029
Mof_C 	C 	0.6074	0.7994	0.6606	0.105
Mof_H 	H 	0.6341	0.8109	0.6122	-0.047
Mof_C 	C 	0.5478	0.8043	0.7623	0.042
Mof_C 	C 	0.513	0.8206	0.82	-0.108
Mof_H 	H 	0.5137	0.8615	0.8171	0.035
Mof_C 	C 	0.4772	0.7742	0.8819	-0.025
Mof_H 	H 	0.4524	0.7833	0.9211	0.031
Mof_C 	C 	0.5476	0.7433	0.7672	0.036
Mof_C 	C 	0.5113	0.6962	0.8298	-0.104
Mof_H 	H 	0.5101	0.6552	0.8328	0.036
Mof_C 	C 	0.4774	0.7136	0.8871	-0.027
Mof_H 	H 	0.4537	0.6838	0.9308	0.032
Mof_C 	C 	0.696	0.0723	0.8546	0.042
Mof_C 	C 	0.7163	0.1348	0.8894	-0.104
Mof_H 	H 	0.7372	0.1467	0.9422	0.041
Mof_C 	C 	0.7048	0.1791	0.8436	-0.028
Mof_H 	H 	0.7184	0.2217	0.8652	0.033
Mof_Co	Co	0.60115	0.92994	0.65925	1.106
Mof_N 	N 	0.6474	0.9888	0.7573	-0.282
Mof_N 	N 	0.5876	0.8403	0.6937	-0.281
Mof_N 	N 	0.5871	0.7417	0.7001	-0.281
Mof_N 	N 	0.6996	0.0175	0.8851	-0.283
Mof_C 	C 	0.33727	0.30453	0.15773	0.086
Mof_H 	H 	0.33337	0.26233	0.16193	-0.043
Mof_C 	C 	0.32997	0.38773	0.10993	0.046
Mof_C 	C 	0.31907	0.43273	0.06193	-0.11
Mof_H 	H 	0.29917	0.42163	0.00843	0.044
Mof_C 	C 	0.33967	0.49393	0.09883	-0.019
Mof_H 	H 	0.33207	0.52483	0.06983	0.028
Mof_C 	C 	0.27407	0.13273	0.99393	0.103
Mof_H 	H 	0.30077	0.14423	0.94553	-0.047
Mof_C 	C 	0.21447	0.13763	0.09563	0.044
Mof_C 	C 	0.17967	0.15393	0.15333	-0.111
Mof_H 	H 	0.18037	0.19483	0.15043	0.035
Mof_C 	C 	0.14387	0.10753	0.21523	-0.021
Mof_H 	H 	0.11907	0.11663	0.25443	0.029
Mof_C 	C 	0.21427	0.07663	0.10053	0.033
Mof_C 	C 	0.17797	0.02953	0.16313	-0.096
Mof_H 	H 	0.17677	0.98853	0.16613	0.031
Mof_C 	C 	0.14407	0.04693	0.22043	-0.033
Mof_H 	H 	0.12037	0.01713	0.26413	0.034
Mof_C 	C 	0.36267	0.40563	0.18793	0.042
Mof_C 	C 	0.38297	0.46813	0.22273	-0.104
Mof_H 	H 	0.40387	0.48003	0.27553	0.041
Mof_C 	C 	0.37147	0.51243	0.17693	-0.029
Mof_H 	H 	0.38507	0.55503	0.19853	0.034
Mof_Co	Co	0.26782	0.26327	0.99258	1.106
Mof_N 	N 	0.31407	0.32213	0.09063	-0.283
Mof_N 	N 	0.25427	0.17363	0.02703	-0.28
Mof_N 	N 	0.25377	0.07503	0.03343	-0.279
Mof_N 	N 	0.36627	0.35083	0.21843	-0.281
Mof_C 	C 	0.00393	0.63787	0.49107	0.086
Mof_H 	H 	3e-05	0.59567	0.49527	-0.043
Mof_C 	C 	0.99663	0.72107	0.44327	0.044
Mof_C 	C 	0.98573	0.76607	0.39527	-0.107
Mof_H 	H 	0.96583	0.75497	0.34177	0.043
Mof_C 	C 	0.00633	0.82727	0.43217	-0.024
Mof_H 	H 	0.99873	0.85817	0.40317	0.03
Mof_C 	C 	0.94073	0.46607	0.32727	0.105
Mof_H 	H 	0.96743	0.47757	0.27887	-0.047
Mof_C 	C 	0.88113	0.47097	0.42897	0.041
Mof_C 	C 	0.84633	0.48727	0.48667	-0.108
Mof_H 	H 	0.84703	0.52817	0.48377	0.034
Mof_C 	C 	0.81053	0.44087	0.54857	-0.025
Mof_H 	H 	0.78573	0.44997	0.58777	0.03
Mof_C 	C 	0.88093	0.40997	0.43387	0.036
Mof_C 	C 	0.84463	0.36287	0.49647	-0.105
Mof_H 	H 	0.84343	0.32187	0.49947	0.036
Mof_C 	C 	0.81073	0.38027	0.55377	-0.027
Mof_H 	H 	0.78703	0.35047	0.59747	0.031
Mof_C 	C 	0.02933	0.73897	0.52127	0.043
Mof_C 	C 	0.04963	0.80147	0.55607	-0.106
Mof_H 	H 	0.07053	0.81337	0.60887	0.042
Mof_C 	C 	0.03813	0.84577	0.51027	-0.026
Mof_H 	H 	0.05173	0.88837	0.53187	0.032
Mof_Co	Co	0.93448	0.59661	0.32592	1.106
Mof_N 	N 	0.98073	0.65547	0.42397	-0.282
Mof_N 	N 	0.92093	0.50697	0.36037	-0.281
Mof_N 	N 	0.92043	0.40837	0.36677	-0.281
Mof_N 	N 	0.03293	0.68417	0.55177	-0.281
Mof_C 	C 	0.0288	0.6994	0.8244	0.09
Mof_H 	H 	0.071	0.7377	0.8286	-0.043
Mof_C 	C 	0.9456	0.6089	0.7766	0.043
Mof_C 	C 	0.9006	0.553	0.7286	-0.109
Mof_H 	H 	0.9117	0.5442	0.6751	0.043
Mof_C 	C 	0.8394	0.5124	0.7655	-0.02
Mof_H 	H 	0.8085	0.4739	0.7365	0.029
Mof_C 	C 	0.2006	0.808	0.6606	0.105
Mof_H 	H 	0.1891	0.8232	0.6122	-0.047
Mof_C 	C 	0.1957	0.7435	0.7623	0.042
Mof_C 	C 	0.1794	0.6924	0.82	-0.107
Mof_H 	H 	0.1385	0.6522	0.8171	0.035
Mof_C 	C 	0.2258	0.703	0.8819	-0.025
Mof_H 	H 	0.2167	0.6691	0.9211	0.031
Mof_C 	C 	0.2567	0.8043	0.7672	0.036
Mof_C 	C 	0.3038	0.8151	0.8298	-0.104
Mof_H 	H 	0.3448	0.8549	0.8328	0.037
Mof_C 	C 	0.2864	0.7638	0.8871	-0.027
Mof_H 	H 	0.3162	0.7699	0.9308	0.032
Mof_C 	C 	0.9277	0.6237	0.8546	0.042
Mof_C 	C 	0.8652	0.5815	0.8894	-0.105
Mof_H 	H 	0.8533	0.5905	0.9422	0.041
Mof_C 	C 	0.8209	0.5257	0.8436	-0.028
Mof_H 	H 	0.7783	0.4967	0.8652	0.033
Mof_Co	Co	0.07006	0.67121	0.65925	1.106
Mof_N 	N 	0.0112	0.6586	0.7573	-0.282
Mof_N 	N 	0.1597	0.7473	0.6937	-0.281
Mof_N 	N 	0.2583	0.8454	0.7001	-0.281
Mof_N 	N 	0.9825	0.6821	0.8851	-0.283
Mof_C 	C 	0.69547	0.03273	0.15773	0.09
Mof_H 	H 	0.73767	0.07103	0.16193	-0.043
Mof_C 	C 	0.61227	0.94223	0.10993	0.046
Mof_C 	C 	0.56727	0.88633	0.06193	-0.111
Mof_H 	H 	0.57837	0.87753	0.00843	0.044
Mof_C 	C 	0.50607	0.84573	0.09883	-0.018
Mof_H 	H 	0.47517	0.80723	0.06983	0.028
Mof_C 	C 	0.86727	0.14133	0.99393	0.094
Mof_H 	H 	0.85577	0.15653	0.94553	-0.044
Mof_C 	C 	0.86237	0.07683	0.09563	0.041
Mof_C 	C 	0.84607	0.02573	0.15333	-0.102
Mof_H 	H 	0.80517	0.98553	0.15043	0.031
Mof_C 	C 	0.89247	0.03633	0.21523	-0.027
Mof_H 	H 	0.88337	0.00243	0.25443	0.032
Mof_C 	C 	0.92337	0.13763	0.10053	0.036
Mof_C 	C 	0.97047	0.14843	0.16313	-0.099
Mof_H 	H 	0.01147	0.18823	0.16613	0.033
Mof_C 	C 	0.95307	0.09713	0.22043	-0.029
Mof_H 	H 	0.98287	0.10323	0.26413	0.032
Mof_C 	C 	0.59437	0.95703	0.18793	0.039
Mof_C 	C 	0.53187	0.91483	0.22273	-0.102
Mof_H 	H 	0.51997	0.92383	0.27553	0.041
Mof_C 	C 	0.48757	0.85903	0.17693	-0.03
Mof_H 	H 	0.44497	0.83003	0.19853	0.034
Mof_Co	Co	0.73673	0.00454	0.99258	1.104
Mof_N 	N 	0.67787	0.99193	0.09063	-0.284
Mof_N 	N 	0.82637	0.08063	0.02703	-0.276
Mof_N 	N 	0.92497	0.17873	0.03343	-0.276
Mof_N 	N 	0.64917	0.01543	0.21843	-0.28
Mof_C 	C 	0.36213	0.36607	0.49107	0.086
Mof_H 	H 	0.40433	0.40437	0.49527	-0.043
Mof_C 	C 	0.27893	0.27557	0.44327	0.045
Mof_C 	C 	0.23393	0.21967	0.39527	-0.11
Mof_H 	H 	0.24503	0.21087	0.34177	0.044
Mof_C 	C 	0.17273	0.17907	0.43217	-0.019
Mof_H 	H 	0.14183	0.14057	0.40317	0.028
Mof_C 	C 	0.53393	0.47467	0.32727	0.105
Mof_H 	H 	0.52243	0.48987	0.27887	-0.047
Mof_C 	C 	0.52903	0.41017	0.42897	0.041
Mof_C 	C 	0.51273	0.35907	0.48667	-0.108
Mof_H 	H 	0.47183	0.31887	0.48377	0.034
Mof_C 	C 	0.55913	0.36967	0.54857	-0.025
Mof_H 	H 	0.55003	0.33577	0.58777	0.031
Mof_C 	C 	0.59003	0.47097	0.43387	0.036
Mof_C 	C 	0.63713	0.48177	0.49647	-0.105
Mof_H 	H 	0.67813	0.52157	0.49947	0.036
Mof_C 	C 	0.61973	0.43047	0.55377	-0.027
Mof_H 	H 	0.64953	0.43657	0.59747	0.031
Mof_C 	C 	0.26103	0.29037	0.52127	0.042
Mof_C 	C 	0.19853	0.24817	0.55607	-0.104
Mof_H 	H 	0.18663	0.25717	0.60887	0.041
Mof_C 	C 	0.15423	0.19237	0.51027	-0.029
Mof_H 	H 	0.11163	0.16337	0.53187	0.033
Mof_Co	Co	0.40339	0.33788	0.32592	1.106
Mof_N 	N 	0.34453	0.32527	0.42397	-0.283
Mof_N 	N 	0.49303	0.41397	0.36037	-0.281
Mof_N 	N 	0.59163	0.51207	0.36677	-0.281
Mof_N 	N 	0.31583	0.34877	0.55177	-0.281
Mof_C 	C 	0.3006	0.3294	0.8244	0.086
Mof_H 	H 	0.2623	0.3333	0.8286	-0.043
Mof_C 	C 	0.3911	0.3367	0.7766	0.045
Mof_C 	C 	0.447	0.3476	0.7286	-0.11
Mof_H 	H 	0.4558	0.3675	0.6751	0.044
Mof_C 	C 	0.4876	0.327	0.7655	-0.019
Mof_H 	H 	0.5261	0.3346	0.7365	0.028
Mof_C 	C 	0.192	0.3926	0.6606	0.105
Mof_H 	H 	0.1768	0.3659	0.6122	-0.047
Mof_C 	C 	0.2565	0.4522	0.7623	0.041
Mof_C 	C 	0.3076	0.487	0.82	-0.108
Mof_H 	H 	0.3478	0.4863	0.8171	0.034
Mof_C 	C 	0.297	0.5228	0.8819	-0.025
Mof_H 	H 	0.3309	0.5476	0.9211	0.031
Mof_C 	C 	0.1957	0.4524	0.7672	0.036
Mof_C 	C 	0.1849	0.4887	0.8298	-0.104
Mof_H 	H 	0.1451	0.4899	0.8328	0.037
Mof_C 	C 	0.2362	0.5226	0.8871	-0.027
Mof_H 	H 	0.2301	0.5463	0.9308	0.032
Mof_C 	C 	0.3763	0.304	0.8546	0.042
Mof_C 	C 	0.4185	0.2837	0.8894	-0.104
Mof_H 	H 	0.4095	0.2628	0.9422	0.041
Mof_C 	C 	0.4743	0.2952	0.8436	-0.029
Mof_H 	H 	0.5033	0.2816	0.8652	0.033
Mof_Co	Co	0.32879	0.39885	0.65925	1.106
Mof_N 	N 	0.3414	0.3526	0.7573	-0.283
Mof_N 	N 	0.2527	0.4124	0.6937	-0.281
Mof_N 	N 	0.1546	0.4129	0.7001	-0.281
Mof_N 	N 	0.3179	0.3004	0.8851	-0.281
Mof_C 	C 	0.96727	0.66273	0.15773	0.09
Mof_H 	H 	0.92897	0.66663	0.16193	-0.044
Mof_C 	C 	0.05777	0.67003	0.10993	0.046
Mof_C 	C 	0.11367	0.68093	0.06193	-0.111
Mof_H 	H 	0.12247	0.70083	0.00843	0.043
Mof_C 	C 	0.15427	0.66033	0.09883	-0.019
Mof_H 	H 	0.19277	0.66793	0.06983	0.027
Mof_C 	C 	0.85867	0.72593	0.99393	0.103
Mof_H 	H 	0.84347	0.69923	0.94553	-0.047
Mof_C 	C 	0.92317	0.78553	0.09563	0.038
Mof_C 	C 	0.97427	0.82033	0.15333	-0.099
Mof_H 	H 	0.01447	0.81963	0.15043	0.029
Mof_C 	C 	0.96367	0.85613	0.21523	-0.031
Mof_H 	H 	0.99757	0.88093	0.25443	0.033
Mof_C 	C 	0.86237	0.78573	0.10053	0.038
Mof_C 	C 	0.85157	0.82203	0.16313	-0.108
Mof_H 	H 	0.81177	0.82323	0.16613	0.037
Mof_C 	C 	0.90287	0.85593	0.22043	-0.023
Mof_H 	H 	0.89677	0.87963	0.26413	0.03
Mof_C 	C 	0.04297	0.63733	0.18793	0.04
Mof_C 	C 	0.08517	0.61703	0.22273	-0.102
Mof_H 	H 	0.07617	0.59613	0.27553	0.041
Mof_C 	C 	0.14097	0.62853	0.17693	-0.03
Mof_H 	H 	0.16997	0.61493	0.19853	0.034
Mof_Co	Co	0.99546	0.73218	0.99258	1.106
Mof_N 	N 	0.00807	0.68593	0.09063	-0.285
Mof_N 	N 	0.91937	0.74573	0.02703	-0.279
Mof_N 	N 	0.82127	0.74623	0.03343	-0.281
Mof_N 	N 	0.98457	0.63373	0.21843	-0.28
Mof_C 	C 	0.63393	0.99607	0.49107	0.086
Mof_H 	H 	0.59563	0.99997	0.49527	-0.043
Mof_C 	C 	0.72443	0.00337	0.44327	0.044
Mof_C 	C 	0.78033	0.01427	0.39527	-0.107
Mof_H 	H 	0.78913	0.03417	0.34177	0.043
Mof_C 	C 	0.82093	0.99367	0.43217	-0.024
Mof_H 	H 	0.85943	0.00127	0.40317	0.03
Mof_C 	C 	0.52533	0.05927	0.32727	0.105
Mof_H 	H 	0.51013	0.03257	0.27887	-0.047
Mof_C 	C 	0.58983	0.11887	0.42897	0.041
Mof_C 	C 	0.64093	0.15367	0.48667	-0.108
Mof_H 	H 	0.68113	0.15297	0.48377	0.034
Mof_C 	C 	0.63033	0.18947	0.54857	-0.025
Mof_H 	H 	0.66423	0.21427	0.58777	0.03
Mof_C 	C 	0.52903	0.11907	0.43387	0.036
Mof_C 	C 	0.51823	0.15537	0.49647	-0.105
Mof_H 	H 	0.47843	0.15657	0.49947	0.036
Mof_C 	C 	0.56953	0.18927	0.55377	-0.027
Mof_H 	H 	0.56343	0.21297	0.59747	0.031
Mof_C 	C 	0.70963	0.97067	0.52127	0.043
Mof_C 	C 	0.75183	0.95037	0.55607	-0.106
Mof_H 	H 	0.74283	0.92947	0.60887	0.042
Mof_C 	C 	0.80763	0.96187	0.51027	-0.025
Mof_H 	H 	0.83663	0.94827	0.53187	0.032
Mof_Co	Co	0.66212	0.06552	0.32592	1.106
Mof_N 	N 	0.67473	0.01927	0.42397	-0.282
Mof_N 	N 	0.58603	0.07907	0.36037	-0.281
Mof_N 	N 	0.48793	0.07957	0.36677	-0.281
Mof_N 	N 	0.65123	0.96707	0.55177	-0.281
_end
