data_functionalizedCrystal
_audit_creation_method	'EQeq! by Chris Wilmer'
_symmetry_space_group_name_H-M	'P1'
_symmetry_Int_Tables_number	1
_symmetry_cell_setting	triclinic
loop_
_symmetry_equiv_pos_as_xyz
  x,y,z
_cell_length_a	15.97
_cell_length_b	28.166
_cell_length_c	23.583
_cell_angle_alpha	90
_cell_angle_beta	108.092
_cell_angle_gamma	90
loop_
_atom_site_label
_atom_site_type_symbol
_atom_site_fract_x
_atom_site_fract_y
_atom_site_fract_z
_atom_site_charge
Mof_C 	C 	0.3318	0.031	0.769	0.485
Mof_C 	C 	0.3692	0.9927	0.7399	-0.327
Mof_C 	C 	0.3804	0.9467	0.7631	0.282
Mof_H 	H 	0.3688	0.9402	0.7986	-0.053
Mof_C 	C 	0.3891	0.001	0.6893	0.307
Mof_H 	H 	0.3846	0.0318	0.6746	-0.072
Mof_C 	C 	0.4084	0.9111	0.7338	-0.419
Mof_H 	H 	0.4181	0.8807	0.75	0.191
Mof_C 	C 	0.4158	0.9655	0.6585	-0.42
Mof_H 	H 	0.4292	0.9721	0.6236	0.187
Mof_C 	C 	0.4221	0.9207	0.6804	0.407
Mof_C 	C 	0.4366	0.8381	0.6585	0.451
Mof_C 	C 	0.3547	0.82	0.6518	-0.485
Mof_H 	H 	0.3052	0.8393	0.6396	0.203
Mof_C 	C 	0.5091	0.8092	0.6749	-0.476
Mof_H 	H 	0.5646	0.8215	0.6786	0.214
Mof_C 	C 	0.3468	0.773	0.6633	0.373
Mof_H 	H 	0.2912	0.7605	0.6586	-0.09
Mof_C 	C 	0.4993	0.7621	0.686	0.378
Mof_H 	H 	0.5484	0.7423	0.6967	-0.09
Mof_C 	C 	0.4188	0.7439	0.6815	-0.425
Mof_C 	C 	0.4088	0.6934	0.6986	0.625
Mof_C 	C 	0.2961	0.2063	0.7388	0.487
Mof_C 	C 	0.2295	0.243	0.7107	-0.3
Mof_C 	C 	0.256	0.2901	0.7148	0.23
Mof_H 	H 	0.3145	0.2979	0.7342	-0.035
Mof_C 	C 	0.1429	0.2311	0.6806	0.272
Mof_H 	H 	0.1254	0.1995	0.6778	-0.084
Mof_C 	C 	0.1948	0.3259	0.6896	-0.354
Mof_H 	H 	0.2111	0.3577	0.6923	0.168
Mof_C 	C 	0.0828	0.266	0.655	-0.398
Mof_H 	H 	0.0249	0.2581	0.6341	0.161
Mof_C 	C 	0.1089	0.3119	0.6604	0.37
Mof_C 	C 	0.0075	0.355	0.5809	0.375
Mof_C 	C 	0.9395	0.3876	0.5682	-0.36
Mof_H 	H 	0.9265	0.4041	0.5986	0.171
Mof_C 	C 	0.0315	0.3334	0.5353	-0.376
Mof_H 	H 	0.0793	0.3128	0.5442	0.167
Mof_C 	C 	0.8919	0.3951	0.51	0.244
Mof_H 	H 	0.844	0.4156	0.5009	-0.036
Mof_C 	C 	0.9838	0.3427	0.4768	0.261
Mof_H 	H 	0.9998	0.3284	0.4462	-0.044
Mof_C 	C 	0.9139	0.3725	0.4636	-0.291
Mof_C 	C 	0.8543	0.3796	0.4017	0.479
Mof_C 	C 	0.4135	0.1167	0.6357	0.498
Mof_C 	C 	0.3264	0.1061	0.5909	-0.309
Mof_C 	C 	0.2505	0.1219	0.6006	0.253
Mof_H 	H 	0.2543	0.1382	0.6356	-0.048
Mof_C 	C 	0.3194	0.0814	0.5395	0.257
Mof_H 	H 	0.3701	0.0704	0.5325	-0.048
Mof_C 	C 	0.1679	0.114	0.5589	-0.359
Mof_H 	H 	0.1172	0.1252	0.5657	0.169
Mof_C 	C 	0.2379	0.0726	0.4977	-0.385
Mof_H 	H 	0.2345	0.0556	0.4633	0.173
Mof_C 	C 	0.1626	0.0891	0.5073	0.375
Mof_C 	C 	0.0486	0.0448	0.4364	0.417
Mof_C 	C 	0.9793	0.0514	0.3841	-0.419
Mof_H 	H 	0.9602	0.0817	0.3707	0.19
Mof_C 	C 	0.0797	0.0011	0.4548	-0.439
Mof_H 	H 	0.1262	0.997	0.4898	0.187
Mof_C 	C 	0.9395	0.0118	0.3525	0.322
Mof_H 	H 	0.8911	0.0158	0.3186	-0.073
Mof_C 	C 	0.04	0.9616	0.4197	0.334
Mof_H 	H 	0.0625	0.9315	0.4312	-0.101
Mof_C 	C 	0.9697	0.9666	0.3697	-0.401
Mof_C 	C 	0.9295	0.9257	0.3324	0.603
Mof_C 	C 	0.7723	0.2198	0.6841	0.598
Mof_C 	C 	0.7576	0.2711	0.6679	-0.374
Mof_C 	C 	0.6727	0.2879	0.6393	0.305
Mof_H 	H 	0.6254	0.2669	0.6305	-0.093
Mof_C 	C 	0.8267	0.3027	0.6787	0.301
Mof_H 	H 	0.8841	0.2918	0.6953	-0.066
Mof_C 	C 	0.6577	0.3348	0.6238	-0.407
Mof_H 	H 	0.6008	0.3453	0.6041	0.193
Mof_C 	C 	0.8122	0.3501	0.6652	-0.412
Mof_H 	H 	0.8594	0.3711	0.6747	0.178
Mof_C 	C 	0.7277	0.3669	0.6375	0.389
Mof_C 	C 	0.7633	0.4494	0.6383	0.37
Mof_C 	C 	0.7757	0.4786	0.5954	-0.354
Mof_H 	H 	0.7485	0.472	0.5552	0.167
Mof_C 	C 	0.7981	0.4598	0.6974	-0.37
Mof_H 	H 	0.7864	0.4405	0.726	0.166
Mof_C 	C 	0.8294	0.5181	0.6123	0.22
Mof_H 	H 	0.8397	0.5374	0.5831	-0.031
Mof_C 	C 	0.8512	0.4995	0.7144	0.23
Mof_H 	H 	0.8761	0.5064	0.7547	-0.041
Mof_C 	C 	0.8678	0.5293	0.6719	-0.26
Mof_C 	C 	0.9288	0.5709	0.6889	0.449
Mof_C 	C 	0.7396	0.0578	0.6633	0.629
Mof_C 	C 	0.7285	0.0058	0.6541	-0.389
Mof_C 	C 	0.6447	0.9866	0.6365	0.328
Mof_H 	H 	0.5958	0.0061	0.6307	-0.076
Mof_C 	C 	0.8011	0.9761	0.6636	0.323
Mof_H 	H 	0.8574	0.9891	0.6747	-0.073
Mof_C 	C 	0.6343	0.9386	0.6277	-0.437
Mof_H 	H 	0.5779	0.9258	0.6147	0.206
Mof_C 	C 	0.7909	0.928	0.6569	-0.437
Mof_H 	H 	0.8398	0.9082	0.6649	0.187
Mof_C 	C 	0.706	0.9092	0.6378	0.415
Mof_C 	C 	0.7526	0.8269	0.6405	0.437
Mof_C 	C 	0.781	0.8127	0.6978	-0.447
Mof_H 	H 	0.7641	0.8286	0.727	0.192
Mof_C 	C 	0.7811	0.8068	0.5982	-0.445
Mof_H 	H 	0.7636	0.8187	0.5595	0.2
Mof_C 	C 	0.8368	0.7729	0.7121	0.318
Mof_H 	H 	0.8559	0.762	0.7513	-0.088
Mof_C 	C 	0.8368	0.7682	0.6133	0.315
Mof_H 	H 	0.8568	0.7541	0.5842	-0.062
Mof_C 	C 	0.8635	0.7501	0.6699	-0.352
Mof_C 	C 	0.9232	0.7085	0.6855	0.51
Mof_C 	C 	0.7962	0.1296	0.8085	0.633
Mof_C 	C 	0.8346	0.1242	0.8752	-0.353
Mof_C 	C 	0.781	0.1326	0.9123	0.283
Mof_H 	H 	0.7224	0.1415	0.8958	-0.056
Mof_C 	C 	0.9195	0.1101	0.9008	0.311
Mof_H 	H 	0.9554	0.1039	0.8772	-0.071
Mof_C 	C 	0.9531	0.1048	0.9642	-0.445
Mof_H 	H 	0.0105	0.0942	0.9815	0.201
Mof_C 	C 	0.8183	0.1271	0.9747	-0.425
Mof_H 	H 	0.7839	0.132	0.9995	0.189
Mof_C 	C 	0.9041	0.1148	0.9983	0.452
Mof_C 	C 	0.9475	0.0707	0.0906	0.418
Mof_C 	C 	0.8867	0.035	0.0706	-0.437
Mof_H 	H 	0.8434	0.0374	0.0337	0.188
Mof_C 	C 	0.0106	0.0677	0.1449	-0.428
Mof_H 	H 	0.0483	0.0931	0.1595	0.196
Mof_C 	C 	0.0179	0.0269	0.1777	0.333
Mof_H 	H 	0.0646	0.0234	0.2127	-0.074
Mof_C 	C 	0.8912	0.9959	0.1061	0.337
Mof_H 	H 	0.849	0.9721	0.0938	-0.071
Mof_C 	C 	0.957	0.9913	0.1593	-0.389
Mof_C 	C 	0.9603	0.9495	0.1986	0.615
Mof_Dy	Dy	0.22134	0.10491	0.79003	2.25
Mof_Dy	Dy	0.44	0.14055	0.7816	2.15
Mof_Dy	Dy	0.6067	0.14227	0.69583	2.063
Mof_Dy	Dy	0.91402	0.13029	0.70754	2.258
Mof_O 	O 	0.2826	0.02235	0.7996	-0.459
Mof_O 	O 	0.3474	0.07418	0.7581	-0.654
Mof_O 	O 	0.4481	0.88562	0.6473	-0.378
Mof_O 	O 	0.4767	0.67167	0.727	-0.623
Mof_O 	O 	0.3322	0.6756	0.6852	-0.576
Mof_O 	O 	0.2749	0.16224	0.7378	-0.63
Mof_O 	O 	0.3751	0.21765	0.761	-0.487
Mof_O 	O 	0.0504	0.3494	0.64	-0.357
Mof_O 	O 	0.8722	0.36181	0.357	-0.627
Mof_O 	O 	0.7854	0.40427	0.3935	-0.497
Mof_O 	O 	0.4154	0.14127	0.6811	-0.604
Mof_O 	O 	0.4832	0.10283	0.6264	-0.512
Mof_O 	O 	0.0796	0.0864	0.4669	-0.362
Mof_O 	O 	0.976	0.8897	0.334	-0.622
Mof_O 	O 	0.8508	0.9285	0.3002	-0.584
Mof_O 	O 	0.7061	0.1947	0.6807	-0.627
Mof_O 	O 	0.8502	0.20454	0.6997	-0.598
Mof_O 	O 	0.7055	0.41215	0.6174	-0.356
Mof_O 	O 	0.948	0.58809	0.7416	-0.594
Mof_O 	O 	0.9615	0.58662	0.6515	-0.484
Mof_O 	O 	0.6768	0.07979	0.6732	-0.609
Mof_O 	O 	0.8085	0.07741	0.6602	-0.634
Mof_O 	O 	0.6877	0.86223	0.6238	-0.375
Mof_O 	O 	0.9431	0.69098	0.73763	-0.649
Mof_O 	O 	0.9574	0.69285	0.6484	-0.474
Mof_O 	O 	0.8482	0.1269	0.7795	-0.613
Mof_O 	O 	0.716	0.13739	0.7883	-0.563
Mof_O 	O 	0.9443	0.1133	0.0587	-0.381
Mof_O 	O 	0.8919	0.92464	0.1868	-0.623
Mof_O 	O 	0.0284	0.94085	0.2407	-0.554
Mof_C 	C 	0.1682	0.531	0.731	0.486
Mof_C 	C 	0.1308	0.4927	0.7601	-0.325
Mof_C 	C 	0.1196	0.4467	0.7369	0.282
Mof_H 	H 	0.1312	0.4402	0.7014	-0.051
Mof_C 	C 	0.1109	0.501	0.8107	0.307
Mof_H 	H 	0.1154	0.5318	0.8254	-0.071
Mof_C 	C 	0.0916	0.4111	0.7662	-0.417
Mof_H 	H 	0.0819	0.3807	0.75	0.192
Mof_C 	C 	0.0842	0.4655	0.8415	-0.418
Mof_H 	H 	0.0708	0.4721	0.8764	0.188
Mof_C 	C 	0.0779	0.4207	0.8196	0.407
Mof_C 	C 	0.0634	0.3381	0.8415	0.452
Mof_C 	C 	0.1453	0.32	0.8482	-0.484
Mof_H 	H 	0.1948	0.3393	0.8604	0.204
Mof_C 	C 	0.9909	0.3092	0.8251	-0.476
Mof_H 	H 	0.9354	0.3215	0.8214	0.215
Mof_C 	C 	0.1532	0.273	0.8367	0.374
Mof_H 	H 	0.2088	0.2605	0.8414	-0.09
Mof_C 	C 	0.0007	0.2621	0.814	0.379
Mof_H 	H 	0.9516	0.2423	0.8033	-0.089
Mof_C 	C 	0.0812	0.2439	0.8185	-0.424
Mof_C 	C 	0.0912	0.1934	0.8014	0.626
Mof_C 	C 	0.2039	0.7063	0.7612	0.487
Mof_C 	C 	0.2705	0.743	0.7893	-0.3
Mof_C 	C 	0.244	0.7901	0.7852	0.23
Mof_H 	H 	0.1855	0.7979	0.7658	-0.035
Mof_C 	C 	0.3571	0.7311	0.8194	0.272
Mof_H 	H 	0.3746	0.6995	0.8222	-0.084
Mof_C 	C 	0.3052	0.8259	0.8104	-0.354
Mof_H 	H 	0.2889	0.8577	0.8077	0.168
Mof_C 	C 	0.4172	0.766	0.845	-0.398
Mof_H 	H 	0.4751	0.7581	0.8659	0.161
Mof_C 	C 	0.3911	0.8119	0.8396	0.37
Mof_C 	C 	0.4925	0.855	0.9191	0.375
Mof_C 	C 	0.5605	0.8876	0.9318	-0.36
Mof_H 	H 	0.5735	0.9041	0.9014	0.171
Mof_C 	C 	0.4685	0.8334	0.9647	-0.377
Mof_H 	H 	0.4207	0.8128	0.9558	0.167
Mof_C 	C 	0.6081	0.8951	0.99	0.245
Mof_H 	H 	0.656	0.9156	0.9991	-0.036
Mof_C 	C 	0.5162	0.8427	0.0232	0.262
Mof_H 	H 	0.5002	0.8284	0.0538	-0.044
Mof_C 	C 	0.5861	0.8725	0.0364	-0.292
Mof_C 	C 	0.6457	0.8796	0.0983	0.479
Mof_C 	C 	0.0865	0.6167	0.8643	0.498
Mof_C 	C 	0.1736	0.6061	0.9091	-0.308
Mof_C 	C 	0.2495	0.6219	0.8994	0.253
Mof_H 	H 	0.2457	0.6382	0.8644	-0.047
Mof_C 	C 	0.1806	0.5814	0.9605	0.256
Mof_H 	H 	0.1299	0.5704	0.9675	-0.048
Mof_C 	C 	0.3321	0.614	0.9411	-0.358
Mof_H 	H 	0.3828	0.6252	0.9343	0.168
Mof_C 	C 	0.2621	0.5726	0.0023	-0.384
Mof_H 	H 	0.2655	0.5556	0.0367	0.172
Mof_C 	C 	0.3374	0.5891	0.9927	0.374
Mof_C 	C 	0.4514	0.5448	0.0636	0.419
Mof_C 	C 	0.5207	0.5514	0.1159	-0.421
Mof_H 	H 	0.5398	0.5817	0.1293	0.19
Mof_C 	C 	0.4203	0.5011	0.0452	-0.443
Mof_H 	H 	0.3738	0.497	0.0102	0.189
Mof_C 	C 	0.5605	0.5118	0.1475	0.325
Mof_H 	H 	0.6089	0.5158	0.1814	-0.074
Mof_C 	C 	0.46	0.4616	0.0803	0.338
Mof_H 	H 	0.4375	0.4315	0.0688	-0.102
Mof_C 	C 	0.5303	0.4666	0.1303	-0.404
Mof_C 	C 	0.5705	0.4257	0.1676	0.605
Mof_C 	C 	0.7277	0.7198	0.8159	0.599
Mof_C 	C 	0.7424	0.7711	0.8321	-0.374
Mof_C 	C 	0.8273	0.7879	0.8607	0.305
Mof_H 	H 	0.8746	0.7669	0.8695	-0.093
Mof_C 	C 	0.6733	0.8027	0.8213	0.301
Mof_H 	H 	0.6159	0.7918	0.8047	-0.066
Mof_C 	C 	0.8423	0.8348	0.8762	-0.407
Mof_H 	H 	0.8992	0.8453	0.8959	0.193
Mof_C 	C 	0.6878	0.8501	0.8348	-0.412
Mof_H 	H 	0.6406	0.8711	0.8253	0.178
Mof_C 	C 	0.7723	0.8669	0.8625	0.389
Mof_C 	C 	0.7367	0.9494	0.8617	0.37
Mof_C 	C 	0.7243	0.9786	0.9046	-0.353
Mof_H 	H 	0.7515	0.972	0.9448	0.167
Mof_C 	C 	0.7019	0.9598	0.8026	-0.37
Mof_H 	H 	0.7136	0.9405	0.774	0.166
Mof_C 	C 	0.6706	0.0181	0.8877	0.219
Mof_H 	H 	0.6603	0.0374	0.9169	-0.031
Mof_C 	C 	0.6488	0.9995	0.7856	0.231
Mof_H 	H 	0.6239	0.0064	0.7453	-0.041
Mof_C 	C 	0.6322	0.0293	0.8281	-0.26
Mof_C 	C 	0.5712	0.0709	0.8111	0.449
Mof_C 	C 	0.7604	0.5578	0.8367	0.628
Mof_C 	C 	0.7715	0.5058	0.8459	-0.387
Mof_C 	C 	0.8553	0.4866	0.8635	0.326
Mof_H 	H 	0.9042	0.5061	0.8693	-0.075
Mof_C 	C 	0.6989	0.4761	0.8364	0.321
Mof_H 	H 	0.6426	0.4891	0.8253	-0.072
Mof_C 	C 	0.8657	0.4386	0.8723	-0.435
Mof_H 	H 	0.9221	0.4258	0.8853	0.205
Mof_C 	C 	0.7091	0.428	0.8431	-0.436
Mof_H 	H 	0.6602	0.4082	0.8351	0.187
Mof_C 	C 	0.794	0.4092	0.8622	0.415
Mof_C 	C 	0.7474	0.3269	0.8595	0.437
Mof_C 	C 	0.719	0.3127	0.8022	-0.447
Mof_H 	H 	0.7359	0.3286	0.773	0.192
Mof_C 	C 	0.7189	0.3068	0.9018	-0.445
Mof_H 	H 	0.7364	0.3187	0.9405	0.2
Mof_C 	C 	0.6632	0.2729	0.7879	0.318
Mof_H 	H 	0.6441	0.262	0.7487	-0.088
Mof_C 	C 	0.6632	0.2682	0.8867	0.315
Mof_H 	H 	0.6432	0.2541	0.9158	-0.062
Mof_C 	C 	0.6365	0.2501	0.8301	-0.352
Mof_C 	C 	0.5768	0.2085	0.8145	0.51
Mof_C 	C 	0.7038	0.6296	0.6915	0.633
Mof_C 	C 	0.6654	0.6242	0.6248	-0.353
Mof_C 	C 	0.719	0.6326	0.5877	0.283
Mof_H 	H 	0.7776	0.6415	0.6042	-0.055
Mof_C 	C 	0.5805	0.6101	0.5992	0.311
Mof_H 	H 	0.5446	0.6039	0.6228	-0.071
Mof_C 	C 	0.5469	0.6048	0.5358	-0.445
Mof_H 	H 	0.4895	0.5942	0.5185	0.201
Mof_C 	C 	0.6817	0.6271	0.5253	-0.425
Mof_H 	H 	0.7161	0.632	0.5005	0.189
Mof_C 	C 	0.5959	0.6148	0.5017	0.451
Mof_C 	C 	0.5525	0.5707	0.4094	0.419
Mof_C 	C 	0.6133	0.535	0.4294	-0.437
Mof_H 	H 	0.6566	0.5374	0.4663	0.188
Mof_C 	C 	0.4894	0.5677	0.3551	-0.429
Mof_H 	H 	0.4517	0.5931	0.3405	0.196
Mof_C 	C 	0.4821	0.5269	0.3223	0.332
Mof_H 	H 	0.4354	0.5234	0.2873	-0.074
Mof_C 	C 	0.6088	0.4959	0.3939	0.337
Mof_H 	H 	0.651	0.4721	0.4062	-0.071
Mof_C 	C 	0.543	0.4913	0.3407	-0.388
Mof_C 	C 	0.5397	0.4495	0.3014	0.615
Mof_Dy	Dy	0.27866	0.60491	0.70997	2.25
Mof_Dy	Dy	0.06	0.64055	0.7184	2.149
Mof_Dy	Dy	0.8933	0.64227	0.80417	2.063
Mof_Dy	Dy	0.58598	0.63029	0.79246	2.259
Mof_O 	O 	0.2174	0.52235	0.7004	-0.459
Mof_O 	O 	0.1526	0.57418	0.7419	-0.654
Mof_O 	O 	0.0519	0.38562	0.8527	-0.378
Mof_O 	O 	0.0233	0.17167	0.773	-0.623
Mof_O 	O 	0.1678	0.1756	0.8148	-0.576
Mof_O 	O 	0.2251	0.66224	0.7622	-0.63
Mof_O 	O 	0.1249	0.71765	0.739	-0.487
Mof_O 	O 	0.4496	0.8494	0.86	-0.357
Mof_O 	O 	0.6278	0.86181	0.143	-0.627
Mof_O 	O 	0.7146	0.90427	0.1065	-0.497
Mof_O 	O 	0.0846	0.64127	0.8189	-0.605
Mof_O 	O 	0.0168	0.60283	0.8736	-0.513
Mof_O 	O 	0.4204	0.5864	0.0331	-0.363
Mof_O 	O 	0.524	0.3897	0.166	-0.623
Mof_O 	O 	0.6492	0.4285	0.1998	-0.585
Mof_O 	O 	0.7939	0.6947	0.8193	-0.627
Mof_O 	O 	0.6498	0.70454	0.8003	-0.598
Mof_O 	O 	0.7945	0.91215	0.8826	-0.356
Mof_O 	O 	0.552	0.08809	0.7584	-0.594
Mof_O 	O 	0.5385	0.08662	0.8485	-0.484
Mof_O 	O 	0.8232	0.57979	0.8268	-0.609
Mof_O 	O 	0.6915	0.57741	0.8398	-0.633
Mof_O 	O 	0.8123	0.36223	0.8762	-0.375
Mof_O 	O 	0.5569	0.19098	0.76237	-0.649
Mof_O 	O 	0.5426	0.19285	0.8516	-0.474
Mof_O 	O 	0.6518	0.6269	0.7205	-0.613
Mof_O 	O 	0.784	0.63739	0.7117	-0.563
Mof_O 	O 	0.5557	0.6133	0.4413	-0.38
Mof_O 	O 	0.6081	0.42464	0.3132	-0.623
Mof_O 	O 	0.4716	0.44085	0.2593	-0.554
Mof_C 	C 	0.6682	0.969	0.231	0.486
Mof_C 	C 	0.6308	0.0073	0.2601	-0.326
Mof_C 	C 	0.6196	0.0533	0.2369	0.283
Mof_H 	H 	0.6312	0.0598	0.2014	-0.052
Mof_C 	C 	0.6109	0.999	0.3107	0.308
Mof_H 	H 	0.6154	0.9682	0.3254	-0.071
Mof_C 	C 	0.5916	0.0889	0.2662	-0.418
Mof_H 	H 	0.5819	0.1193	0.25	0.192
Mof_C 	C 	0.5842	0.0345	0.3415	-0.419
Mof_H 	H 	0.5708	0.0279	0.3764	0.188
Mof_C 	C 	0.5779	0.0793	0.3196	0.408
Mof_C 	C 	0.5634	0.1619	0.3415	0.452
Mof_C 	C 	0.6453	0.18	0.3482	-0.484
Mof_H 	H 	0.6948	0.1607	0.3604	0.204
Mof_C 	C 	0.4909	0.1908	0.3251	-0.475
Mof_H 	H 	0.4354	0.1785	0.3214	0.215
Mof_C 	C 	0.6532	0.227	0.3367	0.374
Mof_H 	H 	0.7088	0.2395	0.3414	-0.089
Mof_C 	C 	0.5007	0.2379	0.314	0.379
Mof_H 	H 	0.4516	0.2577	0.3033	-0.089
Mof_C 	C 	0.5812	0.2561	0.3185	-0.424
Mof_C 	C 	0.5912	0.3066	0.3014	0.626
Mof_C 	C 	0.7039	0.7937	0.2612	0.487
Mof_C 	C 	0.7705	0.757	0.2893	-0.3
Mof_C 	C 	0.744	0.7099	0.2852	0.23
Mof_H 	H 	0.6855	0.7021	0.2658	-0.035
Mof_C 	C 	0.8571	0.7689	0.3194	0.272
Mof_H 	H 	0.8746	0.8005	0.3222	-0.084
Mof_C 	C 	0.8052	0.6741	0.3104	-0.354
Mof_H 	H 	0.7889	0.6423	0.3077	0.168
Mof_C 	C 	0.9172	0.734	0.345	-0.398
Mof_H 	H 	0.9751	0.7419	0.3659	0.161
Mof_C 	C 	0.8911	0.6881	0.3396	0.37
Mof_C 	C 	0.9925	0.645	0.4191	0.375
Mof_C 	C 	0.0605	0.6124	0.4318	-0.36
Mof_H 	H 	0.0735	0.5959	0.4014	0.171
Mof_C 	C 	0.9685	0.6666	0.4647	-0.376
Mof_H 	H 	0.9207	0.6872	0.4558	0.167
Mof_C 	C 	0.1081	0.6049	0.49	0.244
Mof_H 	H 	0.156	0.5844	0.4991	-0.036
Mof_C 	C 	0.0162	0.6573	0.5232	0.261
Mof_H 	H 	0.0002	0.6716	0.5538	-0.044
Mof_C 	C 	0.0861	0.6275	0.5364	-0.291
Mof_C 	C 	0.1457	0.6204	0.5983	0.479
Mof_C 	C 	0.5865	0.8833	0.3643	0.498
Mof_C 	C 	0.6736	0.8939	0.4091	-0.309
Mof_C 	C 	0.7495	0.8781	0.3994	0.253
Mof_H 	H 	0.7457	0.8618	0.3644	-0.048
Mof_C 	C 	0.6806	0.9186	0.4605	0.257
Mof_H 	H 	0.6299	0.9296	0.4675	-0.048
Mof_C 	C 	0.8321	0.886	0.4411	-0.359
Mof_H 	H 	0.8828	0.8748	0.4343	0.169
Mof_C 	C 	0.7621	0.9274	0.5023	-0.385
Mof_H 	H 	0.7655	0.9444	0.5367	0.173
Mof_C 	C 	0.8374	0.9109	0.4927	0.375
Mof_C 	C 	0.9514	0.9552	0.5636	0.417
Mof_C 	C 	0.0207	0.9486	0.6159	-0.419
Mof_H 	H 	0.0398	0.9183	0.6293	0.19
Mof_C 	C 	0.9203	0.9989	0.5452	-0.439
Mof_H 	H 	0.8738	0.003	0.5102	0.187
Mof_C 	C 	0.0605	0.9882	0.6475	0.322
Mof_H 	H 	0.1089	0.9842	0.6814	-0.073
Mof_C 	C 	0.96	0.0384	0.5803	0.334
Mof_H 	H 	0.9375	0.0685	0.5688	-0.101
Mof_C 	C 	0.0303	0.0334	0.6303	-0.401
Mof_C 	C 	0.0705	0.0743	0.6676	0.603
Mof_C 	C 	0.2277	0.7802	0.3159	0.598
Mof_C 	C 	0.2424	0.7289	0.3321	-0.374
Mof_C 	C 	0.3273	0.7121	0.3607	0.305
Mof_H 	H 	0.3746	0.7331	0.3695	-0.093
Mof_C 	C 	0.1733	0.6973	0.3213	0.301
Mof_H 	H 	0.1159	0.7082	0.3047	-0.066
Mof_C 	C 	0.3423	0.6652	0.3762	-0.407
Mof_H 	H 	0.3992	0.6547	0.3959	0.193
Mof_C 	C 	0.1878	0.6499	0.3348	-0.412
Mof_H 	H 	0.1406	0.6289	0.3253	0.178
Mof_C 	C 	0.2723	0.6331	0.3625	0.389
Mof_C 	C 	0.2367	0.5506	0.3617	0.37
Mof_C 	C 	0.2243	0.5214	0.4046	-0.354
Mof_H 	H 	0.2515	0.528	0.4448	0.167
Mof_C 	C 	0.2019	0.5402	0.3026	-0.37
Mof_H 	H 	0.2136	0.5595	0.274	0.166
Mof_C 	C 	0.1706	0.4819	0.3877	0.22
Mof_H 	H 	0.1603	0.4626	0.4169	-0.031
Mof_C 	C 	0.1488	0.5005	0.2856	0.23
Mof_H 	H 	0.1239	0.4936	0.2453	-0.041
Mof_C 	C 	0.1322	0.4707	0.3281	-0.26
Mof_C 	C 	0.0712	0.4291	0.3111	0.449
Mof_C 	C 	0.2604	0.9422	0.3367	0.629
Mof_C 	C 	0.2715	0.9942	0.3459	-0.389
Mof_C 	C 	0.3553	0.0134	0.3635	0.328
Mof_H 	H 	0.4042	0.9939	0.3693	-0.076
Mof_C 	C 	0.1989	0.0239	0.3364	0.323
Mof_H 	H 	0.1426	0.0109	0.3253	-0.073
Mof_C 	C 	0.3657	0.0614	0.3723	-0.437
Mof_H 	H 	0.4221	0.0742	0.3853	0.206
Mof_C 	C 	0.2091	0.072	0.3431	-0.437
Mof_H 	H 	0.1602	0.0918	0.3351	0.187
Mof_C 	C 	0.294	0.0908	0.3622	0.415
Mof_C 	C 	0.2474	0.1731	0.3595	0.437
Mof_C 	C 	0.219	0.1873	0.3022	-0.447
Mof_H 	H 	0.2359	0.1714	0.273	0.192
Mof_C 	C 	0.2189	0.1932	0.4018	-0.445
Mof_H 	H 	0.2364	0.1813	0.4405	0.2
Mof_C 	C 	0.1632	0.2271	0.2879	0.318
Mof_H 	H 	0.1441	0.238	0.2487	-0.088
Mof_C 	C 	0.1632	0.2318	0.3867	0.315
Mof_H 	H 	0.1432	0.2459	0.4158	-0.062
Mof_C 	C 	0.1365	0.2499	0.3301	-0.352
Mof_C 	C 	0.0768	0.2915	0.3145	0.51
Mof_C 	C 	0.2038	0.8704	0.1915	0.633
Mof_C 	C 	0.1654	0.8758	0.1248	-0.353
Mof_C 	C 	0.219	0.8674	0.0877	0.283
Mof_H 	H 	0.2776	0.8585	0.1042	-0.056
Mof_C 	C 	0.0805	0.8899	0.0992	0.311
Mof_H 	H 	0.0446	0.8961	0.1228	-0.071
Mof_C 	C 	0.0469	0.8952	0.0358	-0.445
Mof_H 	H 	0.9895	0.9058	0.0185	0.201
Mof_C 	C 	0.1817	0.8729	0.0253	-0.425
Mof_H 	H 	0.2161	0.868	0.0005	0.189
Mof_C 	C 	0.0959	0.8852	0.0017	0.452
Mof_C 	C 	0.0525	0.9293	0.9094	0.418
Mof_C 	C 	0.1133	0.965	0.9294	-0.437
Mof_H 	H 	0.1566	0.9626	0.9663	0.188
Mof_C 	C 	0.9894	0.9323	0.8551	-0.428
Mof_H 	H 	0.9517	0.9069	0.8405	0.196
Mof_C 	C 	0.9821	0.9731	0.8223	0.333
Mof_H 	H 	0.9354	0.9766	0.7873	-0.074
Mof_C 	C 	0.1088	0.0041	0.8939	0.337
Mof_H 	H 	0.151	0.0279	0.9062	-0.071
Mof_C 	C 	0.043	0.0087	0.8407	-0.389
Mof_C 	C 	0.0397	0.0505	0.8014	0.615
Mof_Dy	Dy	0.77866	0.89509	0.20997	2.25
Mof_Dy	Dy	0.56	0.85945	0.2184	2.15
Mof_Dy	Dy	0.3933	0.85773	0.30417	2.063
Mof_Dy	Dy	0.08598	0.86971	0.29246	2.258
Mof_O 	O 	0.7174	0.97765	0.2004	-0.459
Mof_O 	O 	0.6526	0.92582	0.2419	-0.654
Mof_O 	O 	0.5519	0.11438	0.3527	-0.378
Mof_O 	O 	0.5233	0.32833	0.273	-0.623
Mof_O 	O 	0.6678	0.3244	0.3148	-0.576
Mof_O 	O 	0.7251	0.83776	0.2622	-0.63
Mof_O 	O 	0.6249	0.78235	0.239	-0.487
Mof_O 	O 	0.9496	0.6506	0.36	-0.357
Mof_O 	O 	0.1278	0.63819	0.643	-0.627
Mof_O 	O 	0.2146	0.59573	0.6065	-0.497
Mof_O 	O 	0.5846	0.85873	0.3189	-0.604
Mof_O 	O 	0.5168	0.89717	0.3736	-0.512
Mof_O 	O 	0.9204	0.9136	0.5331	-0.362
Mof_O 	O 	0.024	0.1103	0.666	-0.622
Mof_O 	O 	0.1492	0.0715	0.6998	-0.584
Mof_O 	O 	0.2939	0.8053	0.3193	-0.627
Mof_O 	O 	0.1498	0.79546	0.3003	-0.598
Mof_O 	O 	0.2945	0.58785	0.3826	-0.356
Mof_O 	O 	0.052	0.41191	0.2584	-0.594
Mof_O 	O 	0.0385	0.41338	0.3485	-0.484
Mof_O 	O 	0.3232	0.92021	0.3268	-0.609
Mof_O 	O 	0.1915	0.92259	0.3398	-0.634
Mof_O 	O 	0.3123	0.13777	0.3762	-0.375
Mof_O 	O 	0.0569	0.30902	0.26237	-0.649
Mof_O 	O 	0.0426	0.30715	0.3516	-0.474
Mof_O 	O 	0.1518	0.8731	0.2205	-0.613
Mof_O 	O 	0.284	0.86261	0.2117	-0.563
Mof_O 	O 	0.0557	0.8867	0.9413	-0.381
Mof_O 	O 	0.1081	0.07536	0.8132	-0.623
Mof_O 	O 	0.9716	0.05915	0.7593	-0.554
Mof_C 	C 	0.8318	0.469	0.269	0.486
Mof_C 	C 	0.8692	0.5073	0.2399	-0.325
Mof_C 	C 	0.8804	0.5533	0.2631	0.282
Mof_H 	H 	0.8688	0.5598	0.2986	-0.051
Mof_C 	C 	0.8891	0.499	0.1893	0.307
Mof_H 	H 	0.8846	0.4682	0.1746	-0.071
Mof_C 	C 	0.9084	0.5889	0.2338	-0.417
Mof_H 	H 	0.9181	0.6193	0.25	0.192
Mof_C 	C 	0.9158	0.5345	0.1585	-0.418
Mof_H 	H 	0.9292	0.5279	0.1236	0.188
Mof_C 	C 	0.9221	0.5793	0.1804	0.407
Mof_C 	C 	0.9366	0.6619	0.1585	0.452
Mof_C 	C 	0.8547	0.68	0.1518	-0.484
Mof_H 	H 	0.8052	0.6607	0.1396	0.204
Mof_C 	C 	0.0091	0.6908	0.1749	-0.476
Mof_H 	H 	0.0646	0.6785	0.1786	0.215
Mof_C 	C 	0.8468	0.727	0.1633	0.374
Mof_H 	H 	0.7912	0.7395	0.1586	-0.09
Mof_C 	C 	0.9993	0.7379	0.186	0.379
Mof_H 	H 	0.0484	0.7577	0.1967	-0.089
Mof_C 	C 	0.9188	0.7561	0.1815	-0.424
Mof_C 	C 	0.9088	0.8066	0.1986	0.626
Mof_C 	C 	0.7961	0.2937	0.2388	0.487
Mof_C 	C 	0.7295	0.257	0.2107	-0.3
Mof_C 	C 	0.756	0.2099	0.2148	0.23
Mof_H 	H 	0.8145	0.2021	0.2342	-0.035
Mof_C 	C 	0.6429	0.2689	0.1806	0.272
Mof_H 	H 	0.6254	0.3005	0.1778	-0.084
Mof_C 	C 	0.6948	0.1741	0.1896	-0.354
Mof_H 	H 	0.7111	0.1423	0.1923	0.168
Mof_C 	C 	0.5828	0.234	0.155	-0.398
Mof_H 	H 	0.5249	0.2419	0.1341	0.161
Mof_C 	C 	0.6089	0.1881	0.1604	0.37
Mof_C 	C 	0.5075	0.145	0.0809	0.375
Mof_C 	C 	0.4395	0.1124	0.0682	-0.36
Mof_H 	H 	0.4265	0.0959	0.0986	0.171
Mof_C 	C 	0.5315	0.1666	0.0353	-0.377
Mof_H 	H 	0.5793	0.1872	0.0442	0.167
Mof_C 	C 	0.3919	0.1049	0.01	0.245
Mof_H 	H 	0.344	0.0844	0.0009	-0.036
Mof_C 	C 	0.4838	0.1573	0.9768	0.262
Mof_H 	H 	0.4998	0.1716	0.9462	-0.044
Mof_C 	C 	0.4139	0.1275	0.9636	-0.292
Mof_C 	C 	0.3543	0.1204	0.9017	0.479
Mof_C 	C 	0.9135	0.3833	0.1357	0.498
Mof_C 	C 	0.8264	0.3939	0.0909	-0.308
Mof_C 	C 	0.7505	0.3781	0.1006	0.253
Mof_H 	H 	0.7543	0.3618	0.1356	-0.047
Mof_C 	C 	0.8194	0.4186	0.0395	0.256
Mof_H 	H 	0.8701	0.4296	0.0325	-0.048
Mof_C 	C 	0.6679	0.386	0.0589	-0.358
Mof_H 	H 	0.6172	0.3748	0.0657	0.168
Mof_C 	C 	0.7379	0.4274	0.9977	-0.384
Mof_H 	H 	0.7345	0.4444	0.9633	0.172
Mof_C 	C 	0.6626	0.4109	0.0073	0.374
Mof_C 	C 	0.5486	0.4552	0.9364	0.419
Mof_C 	C 	0.4793	0.4486	0.8841	-0.421
Mof_H 	H 	0.4602	0.4183	0.8707	0.19
Mof_C 	C 	0.5797	0.4989	0.9548	-0.443
Mof_H 	H 	0.6262	0.503	0.9898	0.189
Mof_C 	C 	0.4395	0.4882	0.8525	0.325
Mof_H 	H 	0.3911	0.4842	0.8186	-0.074
Mof_C 	C 	0.54	0.5384	0.9197	0.338
Mof_H 	H 	0.5625	0.5685	0.9312	-0.102
Mof_C 	C 	0.4697	0.5334	0.8697	-0.404
Mof_C 	C 	0.4295	0.5743	0.8324	0.605
Mof_C 	C 	0.2723	0.2802	0.1841	0.599
Mof_C 	C 	0.2576	0.2289	0.1679	-0.374
Mof_C 	C 	0.1727	0.2121	0.1393	0.305
Mof_H 	H 	0.1254	0.2331	0.1305	-0.093
Mof_C 	C 	0.3267	0.1973	0.1787	0.301
Mof_H 	H 	0.3841	0.2082	0.1953	-0.066
Mof_C 	C 	0.1577	0.1652	0.1238	-0.407
Mof_H 	H 	0.1008	0.1547	0.1041	0.193
Mof_C 	C 	0.3122	0.1499	0.1652	-0.412
Mof_H 	H 	0.3594	0.1289	0.1747	0.178
Mof_C 	C 	0.2277	0.1331	0.1375	0.389
Mof_C 	C 	0.2633	0.0506	0.1383	0.37
Mof_C 	C 	0.2757	0.0214	0.0954	-0.353
Mof_H 	H 	0.2485	0.028	0.0552	0.167
Mof_C 	C 	0.2981	0.0402	0.1974	-0.37
Mof_H 	H 	0.2864	0.0595	0.226	0.166
Mof_C 	C 	0.3294	0.9819	0.1123	0.219
Mof_H 	H 	0.3397	0.9626	0.0831	-0.031
Mof_C 	C 	0.3512	0.0005	0.2144	0.231
Mof_H 	H 	0.3761	0.9936	0.2547	-0.041
Mof_C 	C 	0.3678	0.9707	0.1719	-0.26
Mof_C 	C 	0.4288	0.9291	0.1889	0.449
Mof_C 	C 	0.2396	0.4422	0.1633	0.628
Mof_C 	C 	0.2285	0.4942	0.1541	-0.387
Mof_C 	C 	0.1447	0.5134	0.1365	0.326
Mof_H 	H 	0.0958	0.4939	0.1307	-0.075
Mof_C 	C 	0.3011	0.5239	0.1636	0.321
Mof_H 	H 	0.3574	0.5109	0.1747	-0.072
Mof_C 	C 	0.1343	0.5614	0.1277	-0.435
Mof_H 	H 	0.0779	0.5742	0.1147	0.205
Mof_C 	C 	0.2909	0.572	0.1569	-0.436
Mof_H 	H 	0.3398	0.5918	0.1649	0.187
Mof_C 	C 	0.206	0.5908	0.1378	0.415
Mof_C 	C 	0.2526	0.6731	0.1405	0.437
Mof_C 	C 	0.281	0.6873	0.1978	-0.447
Mof_H 	H 	0.2641	0.6714	0.227	0.192
Mof_C 	C 	0.2811	0.6932	0.0982	-0.445
Mof_H 	H 	0.2636	0.6813	0.0595	0.2
Mof_C 	C 	0.3368	0.7271	0.2121	0.318
Mof_H 	H 	0.3559	0.738	0.2513	-0.088
Mof_C 	C 	0.3368	0.7318	0.1133	0.315
Mof_H 	H 	0.3568	0.7459	0.0842	-0.062
Mof_C 	C 	0.3635	0.7499	0.1699	-0.352
Mof_C 	C 	0.4232	0.7915	0.1855	0.51
Mof_C 	C 	0.2962	0.3704	0.3085	0.633
Mof_C 	C 	0.3346	0.3758	0.3752	-0.353
Mof_C 	C 	0.281	0.3674	0.4123	0.283
Mof_H 	H 	0.2224	0.3585	0.3958	-0.055
Mof_C 	C 	0.4195	0.3899	0.4008	0.311
Mof_H 	H 	0.4554	0.3961	0.3772	-0.071
Mof_C 	C 	0.4531	0.3952	0.4642	-0.445
Mof_H 	H 	0.5105	0.4058	0.4815	0.201
Mof_C 	C 	0.3183	0.3729	0.4747	-0.425
Mof_H 	H 	0.2839	0.368	0.4995	0.189
Mof_C 	C 	0.4041	0.3852	0.4983	0.451
Mof_C 	C 	0.4475	0.4293	0.5906	0.419
Mof_C 	C 	0.3867	0.465	0.5706	-0.437
Mof_H 	H 	0.3434	0.4626	0.5337	0.188
Mof_C 	C 	0.5106	0.4323	0.6449	-0.429
Mof_H 	H 	0.5483	0.4069	0.6595	0.196
Mof_C 	C 	0.5179	0.4731	0.6777	0.332
Mof_H 	H 	0.5646	0.4766	0.7127	-0.074
Mof_C 	C 	0.3912	0.5041	0.6061	0.337
Mof_H 	H 	0.349	0.5279	0.5938	-0.071
Mof_C 	C 	0.457	0.5087	0.6593	-0.388
Mof_C 	C 	0.4603	0.5505	0.6986	0.615
Mof_Dy	Dy	0.72134	0.39509	0.29003	2.25
Mof_Dy	Dy	0.94	0.35945	0.2816	2.149
Mof_Dy	Dy	0.1067	0.35773	0.19583	2.063
Mof_Dy	Dy	0.41402	0.36971	0.20754	2.259
Mof_O 	O 	0.7826	0.47765	0.2996	-0.459
Mof_O 	O 	0.8474	0.42582	0.2581	-0.654
Mof_O 	O 	0.9481	0.61438	0.1473	-0.378
Mof_O 	O 	0.9767	0.82833	0.227	-0.623
Mof_O 	O 	0.8322	0.8244	0.1852	-0.576
Mof_O 	O 	0.7749	0.33776	0.2378	-0.63
Mof_O 	O 	0.8751	0.28235	0.261	-0.487
Mof_O 	O 	0.5504	0.1506	0.14	-0.357
Mof_O 	O 	0.3722	0.13819	0.857	-0.627
Mof_O 	O 	0.2854	0.09573	0.8935	-0.497
Mof_O 	O 	0.9154	0.35873	0.1811	-0.605
Mof_O 	O 	0.9832	0.39717	0.1264	-0.513
Mof_O 	O 	0.5796	0.4136	0.9669	-0.363
Mof_O 	O 	0.476	0.6103	0.834	-0.623
Mof_O 	O 	0.3508	0.5715	0.8002	-0.585
Mof_O 	O 	0.2061	0.3053	0.1807	-0.627
Mof_O 	O 	0.3502	0.29546	0.1997	-0.598
Mof_O 	O 	0.2055	0.08785	0.1174	-0.356
Mof_O 	O 	0.448	0.91191	0.2416	-0.594
Mof_O 	O 	0.4615	0.91338	0.1515	-0.484
Mof_O 	O 	0.1768	0.42021	0.1732	-0.609
Mof_O 	O 	0.3085	0.42259	0.1602	-0.633
Mof_O 	O 	0.1877	0.63777	0.1238	-0.375
Mof_O 	O 	0.4431	0.80902	0.23763	-0.649
Mof_O 	O 	0.4574	0.80715	0.1484	-0.474
Mof_O 	O 	0.3482	0.3731	0.2795	-0.613
Mof_O 	O 	0.216	0.36261	0.2883	-0.563
Mof_O 	O 	0.4443	0.3867	0.5587	-0.38
Mof_O 	O 	0.3919	0.57536	0.6868	-0.623
Mof_O 	O 	0.5284	0.55915	0.7407	-0.554
_end
