data_functionalizedCrystal
_audit_creation_method	'EQeq! by Chris Wilmer'
_symmetry_space_group_name_H-M	'P1'
_symmetry_Int_Tables_number	1
_symmetry_cell_setting	triclinic
loop_
_symmetry_equiv_pos_as_xyz
  x,y,z
_cell_length_a	9.349
_cell_length_b	10.441
_cell_length_c	12.177
_cell_angle_alpha	109.956
_cell_angle_beta	103.388
_cell_angle_gamma	90.275
loop_
_atom_site_label
_atom_site_type_symbol
_atom_site_fract_x
_atom_site_fract_y
_atom_site_fract_z
_atom_site_charge
Mof_Zn	Zn	0.26055	0.07308	0.48656	1.223
Mof_Zn	Zn	0.73945	0.92692	0.51344	1.223
Mof_Zn	Zn	0.5	0.5	0.5	1.176
Mof_H 	H 	0.4445	0.0827	0.1732	0.028
Mof_H 	H 	0.6092	0.0677	0.0549	0.06
Mof_H 	H 	0.8596	0.1178	0.142	0.037
Mof_H 	H 	0.11	0.1765	0.676	0.008
Mof_H 	H 	0.1538	0.2744	0.8821	0.076
Mof_H 	H 	0.5876	0.2872	0.9015	0.078
Mof_H 	H 	0.5326	0.1912	0.6953	0.005
Mof_H 	H 	0.1987	0.317	0.0644	0.079
Mof_H 	H 	0.2491	0.3912	0.269	0.003
Mof_H 	H 	0.6622	0.4839	0.2969	-0.014
Mof_H 	H 	0.6237	0.4041	0.0915	0.081
Mof_H 	H 	0.5555	0.9173	0.8268	0.028
Mof_H 	H 	0.3908	0.9323	0.9451	0.06
Mof_H 	H 	0.1404	0.8822	0.858	0.037
Mof_H 	H 	0.89	0.8235	0.324	0.008
Mof_H 	H 	0.8462	0.7256	0.1179	0.076
Mof_H 	H 	0.4124	0.7128	0.0985	0.078
Mof_H 	H 	0.4674	0.8088	0.3047	0.005
Mof_H 	H 	0.8013	0.683	0.9356	0.079
Mof_H 	H 	0.7509	0.6088	0.731	0.003
Mof_H 	H 	0.3378	0.5161	0.7031	-0.014
Mof_H 	H 	0.3763	0.5959	0.9085	0.081
Mof_C 	C 	0.84695	0.15978	0.31503	-0.066
Mof_C 	C 	0.7484	0.17321	0.38808	-0.047
Mof_C 	C 	0.59679	0.14923	0.33424	-0.117
Mof_C 	C 	0.54498	0.10495	0.20894	0.027
Mof_C 	C 	0.64398	0.09435	0.13816	-0.084
Mof_C 	C 	0.79405	0.12297	0.19006	0.006
Mof_C 	C 	0.01164	0.17676	0.36615	0.34
Mof_C 	C 	0.80479	0.2136	0.5232	0.326
Mof_C 	C 	0.48786	0.17313	0.41128	0.376
Mof_C 	C 	0.207	0.1986	0.72206	0.068
Mof_C 	C 	0.2327	0.2575	0.84622	-0.12
Mof_C 	C 	0.37729	0.29137	0.91741	0.049
Mof_C 	C 	0.4895	0.26535	0.85783	-0.125
Mof_C 	C 	0.45572	0.20698	0.73361	0.078
Mof_C 	C 	0.40738	0.34913	0.05144	0.058
Mof_C 	C 	0.2949	0.3486	0.10963	-0.131
Mof_C 	C 	0.3261	0.3945	0.23326	0.076
Mof_C 	C 	0.5679	0.44782	0.24977	0.083
Mof_C 	C 	0.5449	0.40068	0.12524	-0.135
Mof_C 	C 	0.15305	0.84022	0.68497	-0.066
Mof_C 	C 	0.2516	0.82679	0.61192	-0.047
Mof_C 	C 	0.40321	0.85077	0.66576	-0.117
Mof_C 	C 	0.45502	0.89505	0.79106	0.027
Mof_C 	C 	0.35602	0.90565	0.86184	-0.084
Mof_C 	C 	0.20595	0.87703	0.80994	0.006
Mof_C 	C 	0.98836	0.82324	0.63385	0.34
Mof_C 	C 	0.19521	0.7864	0.4768	0.326
Mof_C 	C 	0.51214	0.82687	0.58872	0.376
Mof_C 	C 	0.793	0.8014	0.27794	0.068
Mof_C 	C 	0.7673	0.7425	0.15378	-0.12
Mof_C 	C 	0.62271	0.70863	0.08259	0.049
Mof_C 	C 	0.5105	0.73465	0.14217	-0.125
Mof_C 	C 	0.54428	0.79302	0.26639	0.078
Mof_C 	C 	0.59262	0.65087	0.94856	0.058
Mof_C 	C 	0.7051	0.6514	0.89037	-0.131
Mof_C 	C 	0.6739	0.6055	0.76674	0.076
Mof_C 	C 	0.4321	0.55218	0.75023	0.083
Mof_C 	C 	0.4551	0.59932	0.87476	-0.135
Mof_N 	N 	0.31648	0.17215	0.66585	-0.267
Mof_N 	N 	0.46049	0.4439	0.30562	-0.25
Mof_N 	N 	0.68352	0.82785	0.33415	-0.267
Mof_N 	N 	0.53951	0.5561	0.69438	-0.25
Mof_O 	O 	0.05698	0.11285	0.43758	-0.455
Mof_O 	O 	0.09017	0.24499	0.33352	-0.3
Mof_O 	O 	0.87232	0.32819	0.58156	-0.258
Mof_O 	O 	0.77689	0.1291	0.57069	-0.425
Mof_O 	O 	0.48617	0.28799	0.48733	-0.481
Mof_O 	O 	0.40121	0.06933	0.3919	-0.478
Mof_O 	O 	0.94302	0.88715	0.56242	-0.455
Mof_O 	O 	0.90983	0.75501	0.66648	-0.3
Mof_O 	O 	0.12768	0.67181	0.41844	-0.258
Mof_O 	O 	0.22311	0.8709	0.42931	-0.425
Mof_O 	O 	0.51383	0.71201	0.51267	-0.481
Mof_O 	O 	0.59879	0.93067	0.6081	-0.478
_end
