data_functionalizedCrystal
_audit_creation_method	'EQeq! by Chris Wilmer'
_symmetry_space_group_name_H-M	'P1'
_symmetry_Int_Tables_number	1
_symmetry_cell_setting	triclinic
loop_
_symmetry_equiv_pos_as_xyz
  x,y,z
_cell_length_a	12.8259
_cell_length_b	12.8259
_cell_length_c	12.8259
_cell_angle_alpha	90
_cell_angle_beta	90
_cell_angle_gamma	90
loop_
_atom_site_label
_atom_site_type_symbol
_atom_site_fract_x
_atom_site_fract_y
_atom_site_fract_z
_atom_site_charge
Mof_N 	N 	0.64298	0.93825	0.95534	-0.011
Mof_N 	N 	0.72564	0.98011	0.96431	0.095
Mof_N 	N 	0.80746	0.01774	0.97076	-0.165
Mof_N 	N 	0.85702	0.06175	0.45534	-0.076
Mof_N 	N 	0.77436	0.01989	0.46431	-0.118
Mof_N 	N 	0.69254	0.98226	0.47076	-0.109
Mof_N 	N 	0.35702	0.43825	0.54466	-0.147
Mof_N 	N 	0.27436	0.48011	0.53569	-0.033
Mof_N 	N 	0.19254	0.51774	0.52924	-0.253
Mof_N 	N 	0.14298	0.56175	0.04466	-0.169
Mof_N 	N 	0.22564	0.51989	0.03569	-0.051
Mof_N 	N 	0.30746	0.48226	0.02924	-0.275
Mof_N 	N 	0.95534	0.64298	0.93825	-0.01
Mof_N 	N 	0.96431	0.72564	0.98011	0.096
Mof_N 	N 	0.97076	0.80746	0.01774	-0.164
Mof_N 	N 	0.45534	0.85702	0.06175	-0.076
Mof_N 	N 	0.46431	0.77436	0.01989	-0.118
Mof_N 	N 	0.47076	0.69254	0.98226	-0.109
Mof_N 	N 	0.54466	0.35702	0.43825	-0.147
Mof_N 	N 	0.53569	0.27436	0.48011	-0.033
Mof_N 	N 	0.52924	0.19254	0.51774	-0.253
Mof_N 	N 	0.04466	0.14298	0.56175	-0.169
Mof_N 	N 	0.03569	0.22564	0.51989	-0.051
Mof_N 	N 	0.02924	0.30746	0.48226	-0.275
Mof_N 	N 	0.93825	0.95534	0.64298	-0.01
Mof_N 	N 	0.98011	0.96431	0.72564	0.096
Mof_N 	N 	0.01774	0.97076	0.80746	-0.164
Mof_N 	N 	0.06175	0.45534	0.85702	-0.076
Mof_N 	N 	0.01989	0.46431	0.77436	-0.118
Mof_N 	N 	0.98226	0.47076	0.69254	-0.109
Mof_N 	N 	0.43825	0.54466	0.35702	-0.147
Mof_N 	N 	0.48011	0.53569	0.27436	-0.033
Mof_N 	N 	0.51774	0.52924	0.19254	-0.253
Mof_N 	N 	0.56175	0.04466	0.14298	-0.169
Mof_N 	N 	0.51989	0.03569	0.22564	-0.051
Mof_N 	N 	0.48226	0.02924	0.30746	-0.275
Mof_N 	N 	0.35702	0.06175	0.04466	-0.159
Mof_N 	N 	0.27436	0.01989	0.03569	-0.15
Mof_N 	N 	0.19254	0.98226	0.02924	-0.089
Mof_N 	N 	0.14298	0.93825	0.54466	-0.1
Mof_N 	N 	0.22564	0.98011	0.53569	0.072
Mof_N 	N 	0.30746	0.01774	0.52924	-0.339
Mof_N 	N 	0.64298	0.56175	0.45534	-0.135
Mof_N 	N 	0.72564	0.51989	0.46431	-0.025
Mof_N 	N 	0.80746	0.48226	0.47076	-0.202
Mof_N 	N 	0.85702	0.43825	0.95534	-0.007
Mof_N 	N 	0.77436	0.48011	0.96431	0.002
Mof_N 	N 	0.69254	0.51774	0.97076	-0.172
Mof_N 	N 	0.04466	0.35702	0.06175	-0.159
Mof_N 	N 	0.03569	0.27436	0.01989	-0.15
Mof_N 	N 	0.02924	0.19254	0.98226	-0.089
Mof_N 	N 	0.54466	0.14298	0.93825	-0.1
Mof_N 	N 	0.53569	0.22564	0.98011	0.072
Mof_N 	N 	0.52924	0.30746	0.01774	-0.339
Mof_N 	N 	0.45534	0.64298	0.56175	-0.135
Mof_N 	N 	0.46431	0.72564	0.51989	-0.025
Mof_N 	N 	0.47076	0.80746	0.48226	-0.202
Mof_N 	N 	0.95534	0.85702	0.43825	-0.007
Mof_N 	N 	0.96431	0.77436	0.48011	0.002
Mof_N 	N 	0.97076	0.69254	0.51774	-0.172
Mof_N 	N 	0.06175	0.04466	0.35702	-0.159
Mof_N 	N 	0.01989	0.03569	0.27436	-0.15
Mof_N 	N 	0.98226	0.02924	0.19254	-0.089
Mof_N 	N 	0.93825	0.54466	0.14298	-0.1
Mof_N 	N 	0.98011	0.53569	0.22564	0.072
Mof_N 	N 	0.01774	0.52924	0.30746	-0.339
Mof_N 	N 	0.56175	0.45534	0.64298	-0.135
Mof_N 	N 	0.51989	0.46431	0.72564	-0.025
Mof_N 	N 	0.48226	0.47076	0.80746	-0.202
Mof_N 	N 	0.43825	0.95534	0.85702	-0.007
Mof_N 	N 	0.48011	0.96431	0.77436	0.002
Mof_N 	N 	0.51774	0.97076	0.69254	-0.172
Mof_Fe	Fe	0.5	0	-0	0.325
Mof_Fe	Fe	1.8747e-33	0	0.5	0.325
Mof_Fe	Fe	0.5	0.5	0.5	0.714
Mof_Fe	Fe	-0	0.5	-0	0.325
Mof_Na	Na	-0	0	-0	0.879
Mof_Na	Na	0.5	0	0.5	1.758
Mof_Na	Na	1.8747e-33	0.5	0.5	1.758
Mof_Na	Na	0.5	0.5	-0	1.758
_end
