data_functionalizedCrystal
_audit_creation_method	'EQeq! by Chris Wilmer'
_symmetry_space_group_name_H-M	'P1'
_symmetry_Int_Tables_number	1
_symmetry_cell_setting	triclinic
loop_
_symmetry_equiv_pos_as_xyz
  x,y,z
_cell_length_a	17.098
_cell_length_b	26.435
_cell_length_c	12.838
_cell_angle_alpha	90
_cell_angle_beta	129.166
_cell_angle_gamma	90
loop_
_atom_site_label
_atom_site_type_symbol
_atom_site_fract_x
_atom_site_fract_y
_atom_site_fract_z
_atom_site_charge
Mof_O 	O 	0.1794	0.8179	0.4082	-0.171
Mof_O 	O 	0.0165	0.7619	0.0802	-0.187
Mof_N 	N 	0.3582	0.9859	0.6052	-0.217
Mof_N 	N 	0.0107	0.5879	0.8966	-0.228
Mof_C 	C 	0.3532	0.9505	0.5273	0.109
Mof_H 	H 	0.409	0.9458	0.5315	-0.022
Mof_C 	C 	0.2681	0.92	0.4392	-0.201
Mof_H 	H 	0.2683	0.8957	0.387	0.108
Mof_C 	C 	0.1852	0.9263	0.4307	0.149
Mof_C 	C 	0.1901	0.9644	0.5092	-0.211
Mof_H 	H 	0.1341	0.9711	0.5034	0.097
Mof_C 	C 	0.2756	0.9921	0.5942	0.117
Mof_H 	H 	0.2767	0.0166	0.6472	-0.03
Mof_C 	C 	0.0909	0.8973	0.3347	-0.102
Mof_C 	C 	0.09	0.8446	0.3315	0.13
Mof_C 	C 	0.0089	0.7352	0.1632	0.145
Mof_C 	C 	0.1166	0.7633	0.1202	-0.209
Mof_H 	H 	0.163	0.7766	0.2096	0.103
Mof_H 	H 	0.1165	0.7845	0.0594	0.094
Mof_H 	H 	0.1368	0.7297	0.1181	0.094
Mof_C 	C 	0.2188	0.8091	0.5433	-0.231
Mof_H 	H 	0.2346	0.8408	0.589	0.103
Mof_H 	H 	0.2788	0.7889	0.5889	0.113
Mof_H 	H 	0.1694	0.7915	0.5429	0.109
Mof_C 	C 	0.0755	0.5812	0.0282	0.128
Mof_H 	H 	0.1203	0.5542	0.0624	-0.031
Mof_C 	C 	0.0788	0.6118	0.1141	-0.221
Mof_H 	H 	0.1273	0.606	0.2059	0.1
Mof_C 	C 	0.0129	0.6516	0.0717	0.132
Mof_C 	C 	0.9469	0.6601	0.9311	-0.181
Mof_H 	H 	0.903	0.6876	0.8946	0.103
Mof_C 	C 	0.9486	0.6277	0.85	0.13
Mof_H 	H 	0.9044	0.6334	0.7578	-0.026
Mof_C 	C 	0.0079	0.6821	0.1633	-0.116
Mof_O 	O 	0.6794	0.3179	0.4082	-0.167
Mof_O 	O 	0.5165	0.2619	0.0802	-0.179
Mof_N 	N 	0.8582	0.4859	0.6052	-0.208
Mof_N 	N 	0.5107	0.0879	0.8966	-0.222
Mof_C 	C 	0.8532	0.4505	0.5273	0.11
Mof_H 	H 	0.909	0.4458	0.5315	-0.014
Mof_C 	C 	0.7681	0.42	0.4392	-0.201
Mof_H 	H 	0.7683	0.3957	0.387	0.11
Mof_C 	C 	0.6852	0.4263	0.4307	0.154
Mof_C 	C 	0.6901	0.4644	0.5092	-0.212
Mof_H 	H 	0.6341	0.4711	0.5034	0.101
Mof_C 	C 	0.7756	0.4921	0.5942	0.119
Mof_H 	H 	0.7767	0.5166	0.6472	-0.026
Mof_C 	C 	0.5909	0.3973	0.3347	-0.109
Mof_C 	C 	0.59	0.3446	0.3315	0.132
Mof_C 	C 	0.5089	0.2352	0.1632	0.152
Mof_C 	C 	0.6166	0.2633	0.1202	-0.22
Mof_H 	H 	0.663	0.2766	0.2096	0.107
Mof_H 	H 	0.6165	0.2845	0.0594	0.101
Mof_H 	H 	0.6368	0.2297	0.1181	0.1
Mof_C 	C 	0.7188	0.3091	0.5433	-0.241
Mof_H 	H 	0.7346	0.3408	0.589	0.108
Mof_H 	H 	0.7788	0.2889	0.5889	0.119
Mof_H 	H 	0.6694	0.2915	0.5429	0.116
Mof_C 	C 	0.5755	0.0812	0.0282	0.144
Mof_H 	H 	0.6203	0.0542	0.0624	-0.035
Mof_C 	C 	0.5788	0.1118	0.1141	-0.238
Mof_H 	H 	0.6273	0.106	0.2059	0.107
Mof_C 	C 	0.5129	0.1516	0.0717	0.169
Mof_C 	C 	0.4469	0.1601	0.9311	-0.217
Mof_H 	H 	0.403	0.1876	0.8946	0.109
Mof_C 	C 	0.4486	0.1277	0.85	0.123
Mof_H 	H 	0.4044	0.1334	0.7578	-0.03
Mof_C 	C 	0.5079	0.1821	0.1633	-0.134
Mof_O 	O 	0.8206	0.8179	0.0918	-0.165
Mof_O 	O 	0.9835	0.7619	0.4198	-0.173
Mof_N 	N 	0.6418	0.9859	0.8948	-0.215
Mof_N 	N 	0.9893	0.5879	0.6034	-0.201
Mof_C 	C 	0.6468	0.9505	0.9727	0.104
Mof_H 	H 	0.591	0.9458	0.9685	-0.021
Mof_C 	C 	0.7319	0.92	0.0608	-0.195
Mof_H 	H 	0.7317	0.8957	0.113	0.107
Mof_C 	C 	0.8148	0.9263	0.0693	0.152
Mof_C 	C 	0.8099	0.9644	0.9908	-0.214
Mof_H 	H 	0.8659	0.9711	0.9966	0.106
Mof_C 	C 	0.7244	0.9921	0.9058	0.12
Mof_H 	H 	0.7233	0.0166	0.8528	-0.028
Mof_C 	C 	0.9091	0.8973	0.1653	-0.085
Mof_C 	C 	0.91	0.8446	0.1685	0.146
Mof_C 	C 	0.9911	0.7352	0.3368	0.167
Mof_C 	C 	0.8834	0.7633	0.3798	-0.222
Mof_H 	H 	0.837	0.7766	0.2904	0.108
Mof_H 	H 	0.8835	0.7845	0.4406	0.104
Mof_H 	H 	0.8632	0.7297	0.3819	0.1
Mof_C 	C 	0.7812	0.8091	0.9567	-0.25
Mof_H 	H 	0.7654	0.8408	0.911	0.11
Mof_H 	H 	0.7212	0.7889	0.9111	0.119
Mof_H 	H 	0.8306	0.7915	0.9571	0.123
Mof_C 	C 	0.9245	0.5812	0.4718	0.143
Mof_H 	H 	0.8797	0.5542	0.4376	-0.032
Mof_C 	C 	0.9212	0.6118	0.3859	-0.234
Mof_H 	H 	0.8727	0.606	0.2941	0.108
Mof_C 	C 	0.9871	0.6516	0.4283	0.181
Mof_C 	C 	0.0531	0.6601	0.5689	-0.23
Mof_H 	H 	0.097	0.6876	0.6054	0.109
Mof_C 	C 	0.0514	0.6277	0.65	0.103
Mof_H 	H 	0.0956	0.6334	0.7422	-0.025
Mof_C 	C 	0.9921	0.6821	0.3367	-0.108
Mof_O 	O 	0.3206	0.3179	0.0918	-0.167
Mof_O 	O 	0.4835	0.2619	0.4198	-0.181
Mof_N 	N 	0.1418	0.4859	0.8948	-0.215
Mof_N 	N 	0.4893	0.0879	0.6034	-0.218
Mof_C 	C 	0.1468	0.4505	0.9727	0.106
Mof_H 	H 	0.091	0.4458	0.9685	-0.026
Mof_C 	C 	0.2319	0.42	0.0608	-0.202
Mof_H 	H 	0.2317	0.3957	0.113	0.108
Mof_C 	C 	0.3148	0.4263	0.0693	0.159
Mof_C 	C 	0.3099	0.4644	0.9908	-0.219
Mof_H 	H 	0.3659	0.4711	0.9966	0.102
Mof_C 	C 	0.2244	0.4921	0.9058	0.12
Mof_H 	H 	0.2233	0.5166	0.8528	-0.03
Mof_C 	C 	0.4091	0.3973	0.1653	-0.111
Mof_C 	C 	0.41	0.3446	0.1685	0.132
Mof_C 	C 	0.4911	0.2352	0.3368	0.151
Mof_C 	C 	0.3834	0.2633	0.3798	-0.212
Mof_H 	H 	0.337	0.2766	0.2904	0.103
Mof_H 	H 	0.3835	0.2845	0.4406	0.097
Mof_H 	H 	0.3632	0.2297	0.3819	0.095
Mof_C 	C 	0.2812	0.3091	0.9567	-0.243
Mof_H 	H 	0.2654	0.3408	0.911	0.107
Mof_H 	H 	0.2212	0.2889	0.9111	0.116
Mof_H 	H 	0.3306	0.2915	0.9571	0.116
Mof_C 	C 	0.4245	0.0812	0.4718	0.136
Mof_H 	H 	0.3797	0.0542	0.4376	-0.035
Mof_C 	C 	0.4212	0.1118	0.3859	-0.233
Mof_H 	H 	0.3727	0.106	0.2941	0.105
Mof_C 	C 	0.4871	0.1516	0.4283	0.162
Mof_C 	C 	0.5531	0.1601	0.5689	-0.208
Mof_H 	H 	0.597	0.1876	0.6054	0.107
Mof_C 	C 	0.5514	0.1277	0.65	0.119
Mof_H 	H 	0.5956	0.1334	0.7422	-0.028
Mof_C 	C 	0.4921	0.1821	0.3367	-0.132
Mof_Ag	Ag	0.5	0.03243	0.75	0.624
Mof_Ag	Ag	3.44493e-33	0.53243	0.75	0.588
Mof_C 	C 	1.14831e-33	0.9224	0.25	-0.011
Mof_H 	H 	-2.52701e-17	0.9576	0.25	0.025
Mof_C 	C 	1.14831e-33	0.8173	0.25	-0.061
Mof_C 	C 	1.14831e-33	0.7605	0.25	-0.086
Mof_C 	C 	1.14831e-33	0.6584	0.25	0.011
Mof_H 	H 	1.14831e-33	0.6232	0.25	0.016
Mof_C 	C 	0.5	0.4224	0.25	0.025
Mof_H 	H 	0.5	0.4576	0.25	0.02
Mof_C 	C 	0.5	0.3173	0.25	-0.044
Mof_C 	C 	0.5	0.2605	0.25	-0.069
Mof_C 	C 	0.5	0.1584	0.25	0.053
Mof_H 	H 	0.5	0.1232	0.25	0.009
Mof_O 	O 	0.8206	0.1821	0.5918	-0.168
Mof_O 	O 	0.9835	0.2381	0.9198	-0.174
Mof_N 	N 	0.6418	0.0141	0.3948	-0.215
Mof_N 	N 	0.9893	0.4121	0.1034	-0.196
Mof_C 	C 	0.6468	0.0495	0.4727	0.109
Mof_H 	H 	0.591	0.0542	0.4685	-0.022
Mof_C 	C 	0.7319	0.08	0.5608	-0.199
Mof_H 	H 	0.7317	0.1043	0.613	0.108
Mof_C 	C 	0.8148	0.0737	0.5693	0.149
Mof_C 	C 	0.8099	0.0356	0.4908	-0.209
Mof_H 	H 	0.8659	0.0289	0.4966	0.105
Mof_C 	C 	0.7244	0.0079	0.4058	0.118
Mof_H 	H 	0.7233	0.9834	0.3528	-0.027
Mof_C 	C 	0.9091	0.1027	0.6653	-0.085
Mof_C 	C 	0.91	0.1554	0.6685	0.146
Mof_C 	C 	0.9911	0.2648	0.8368	0.164
Mof_C 	C 	0.8834	0.2367	0.8798	-0.22
Mof_H 	H 	0.837	0.2234	0.7904	0.107
Mof_H 	H 	0.8835	0.2155	0.9406	0.103
Mof_H 	H 	0.8632	0.2703	0.8819	0.099
Mof_C 	C 	0.7812	0.1909	0.4567	-0.243
Mof_H 	H 	0.7654	0.1592	0.411	0.109
Mof_H 	H 	0.7212	0.2111	0.4111	0.118
Mof_H 	H 	0.8306	0.2085	0.4571	0.122
Mof_C 	C 	0.9245	0.4188	0.9718	0.133
Mof_H 	H 	0.8797	0.4458	0.9376	-0.03
Mof_C 	C 	0.9212	0.3882	0.8859	-0.226
Mof_H 	H 	0.8727	0.394	0.7941	0.105
Mof_C 	C 	0.9871	0.3484	0.9283	0.17
Mof_C 	C 	0.0531	0.3399	0.0689	-0.219
Mof_H 	H 	0.097	0.3124	0.1054	0.106
Mof_C 	C 	0.0514	0.3723	0.15	0.098
Mof_H 	H 	0.0956	0.3666	0.2422	-0.023
Mof_C 	C 	0.9921	0.3179	0.8367	-0.104
Mof_O 	O 	0.3206	0.6821	0.5918	-0.17
Mof_O 	O 	0.4835	0.7381	0.9198	-0.182
Mof_N 	N 	0.1418	0.5141	0.3948	-0.215
Mof_N 	N 	0.4893	0.9121	0.1034	-0.215
Mof_C 	C 	0.1468	0.5495	0.4727	0.111
Mof_H 	H 	0.091	0.5542	0.4685	-0.027
Mof_C 	C 	0.2319	0.58	0.5608	-0.206
Mof_H 	H 	0.2317	0.6043	0.613	0.109
Mof_C 	C 	0.3148	0.5737	0.5693	0.156
Mof_C 	C 	0.3099	0.5356	0.4908	-0.215
Mof_H 	H 	0.3659	0.5289	0.4966	0.102
Mof_C 	C 	0.2244	0.5079	0.4058	0.119
Mof_H 	H 	0.2233	0.4834	0.3528	-0.029
Mof_C 	C 	0.4091	0.6027	0.6653	-0.111
Mof_C 	C 	0.41	0.6554	0.6685	0.133
Mof_C 	C 	0.4911	0.7648	0.8368	0.149
Mof_C 	C 	0.3834	0.7367	0.8798	-0.21
Mof_H 	H 	0.337	0.7234	0.7904	0.102
Mof_H 	H 	0.3835	0.7155	0.9406	0.096
Mof_H 	H 	0.3632	0.7703	0.8819	0.094
Mof_C 	C 	0.2812	0.6909	0.4567	-0.237
Mof_H 	H 	0.2654	0.6592	0.411	0.106
Mof_H 	H 	0.2212	0.7111	0.4111	0.115
Mof_H 	H 	0.3306	0.7085	0.4571	0.115
Mof_C 	C 	0.4245	0.9188	0.9718	0.128
Mof_H 	H 	0.3797	0.9458	0.9376	-0.033
Mof_C 	C 	0.4212	0.8882	0.8859	-0.226
Mof_H 	H 	0.3727	0.894	0.7941	0.102
Mof_C 	C 	0.4871	0.8484	0.9283	0.153
Mof_C 	C 	0.5531	0.8399	0.0689	-0.199
Mof_H 	H 	0.597	0.8124	0.1054	0.105
Mof_C 	C 	0.5514	0.8723	0.15	0.115
Mof_H 	H 	0.5956	0.8666	0.2422	-0.026
Mof_C 	C 	0.4921	0.8179	0.8367	-0.128
Mof_O 	O 	0.1794	0.1821	0.9082	-0.173
Mof_O 	O 	0.0165	0.2381	0.5802	-0.187
Mof_N 	N 	0.3582	0.0141	0.1052	-0.216
Mof_N 	N 	0.0107	0.4121	0.3966	-0.224
Mof_C 	C 	0.3532	0.0495	0.0273	0.114
Mof_H 	H 	0.409	0.0542	0.0315	-0.023
Mof_C 	C 	0.2681	0.08	0.9392	-0.206
Mof_H 	H 	0.2683	0.1043	0.887	0.109
Mof_C 	C 	0.1852	0.0737	0.9307	0.146
Mof_C 	C 	0.1901	0.0356	0.0092	-0.206
Mof_H 	H 	0.1341	0.0289	0.0034	0.097
Mof_C 	C 	0.2756	0.0079	0.0942	0.116
Mof_H 	H 	0.2767	0.9834	0.1472	-0.029
Mof_C 	C 	0.0909	0.1027	0.8347	-0.102
Mof_C 	C 	0.09	0.1554	0.8315	0.13
Mof_C 	C 	0.0089	0.2648	0.6632	0.142
Mof_C 	C 	0.1166	0.2367	0.6202	-0.207
Mof_H 	H 	0.163	0.2234	0.7096	0.102
Mof_H 	H 	0.1165	0.2155	0.5594	0.093
Mof_H 	H 	0.1368	0.2703	0.6181	0.093
Mof_C 	C 	0.2188	0.1909	0.0433	-0.225
Mof_H 	H 	0.2346	0.1592	0.089	0.102
Mof_H 	H 	0.2788	0.2111	0.0889	0.112
Mof_H 	H 	0.1694	0.2085	0.0429	0.109
Mof_C 	C 	0.0755	0.4188	0.5282	0.12
Mof_H 	H 	0.1203	0.4458	0.5624	-0.029
Mof_C 	C 	0.0788	0.3882	0.6141	-0.214
Mof_H 	H 	0.1273	0.394	0.7059	0.097
Mof_C 	C 	0.0129	0.3484	0.5717	0.123
Mof_C 	C 	0.9469	0.3399	0.4311	-0.171
Mof_H 	H 	0.903	0.3124	0.3946	0.101
Mof_C 	C 	0.9486	0.3723	0.35	0.127
Mof_H 	H 	0.9044	0.3666	0.2578	-0.024
Mof_C 	C 	0.0079	0.3179	0.6633	-0.112
Mof_O 	O 	0.6794	0.6821	0.9082	-0.17
Mof_O 	O 	0.5165	0.7381	0.5802	-0.18
Mof_N 	N 	0.8582	0.5141	0.1052	-0.208
Mof_N 	N 	0.5107	0.9121	0.3966	-0.218
Mof_C 	C 	0.8532	0.5495	0.0273	0.116
Mof_H 	H 	0.909	0.5542	0.0315	-0.014
Mof_C 	C 	0.7681	0.58	0.9392	-0.206
Mof_H 	H 	0.7683	0.6043	0.887	0.111
Mof_C 	C 	0.6852	0.5737	0.9307	0.151
Mof_C 	C 	0.6901	0.5356	0.0092	-0.207
Mof_H 	H 	0.6341	0.5289	0.0034	0.101
Mof_C 	C 	0.7756	0.5079	0.0942	0.117
Mof_H 	H 	0.7767	0.4834	0.1472	-0.025
Mof_C 	C 	0.5909	0.6027	0.8347	-0.11
Mof_C 	C 	0.59	0.6554	0.8315	0.132
Mof_C 	C 	0.5089	0.7648	0.6632	0.149
Mof_C 	C 	0.6166	0.7367	0.6202	-0.218
Mof_H 	H 	0.663	0.7234	0.7096	0.106
Mof_H 	H 	0.6165	0.7155	0.5594	0.1
Mof_H 	H 	0.6368	0.7703	0.6181	0.098
Mof_C 	C 	0.7188	0.6909	0.0433	-0.234
Mof_H 	H 	0.7346	0.6592	0.089	0.107
Mof_H 	H 	0.7788	0.7111	0.0889	0.117
Mof_H 	H 	0.6694	0.7085	0.0429	0.116
Mof_C 	C 	0.5755	0.9188	0.5282	0.135
Mof_H 	H 	0.6203	0.9458	0.5624	-0.033
Mof_C 	C 	0.5788	0.8882	0.6141	-0.231
Mof_H 	H 	0.6273	0.894	0.7059	0.105
Mof_C 	C 	0.5129	0.8484	0.5717	0.161
Mof_C 	C 	0.4469	0.8399	0.4311	-0.207
Mof_H 	H 	0.403	0.8124	0.3946	0.107
Mof_C 	C 	0.4486	0.8723	0.35	0.119
Mof_H 	H 	0.4044	0.8666	0.2578	-0.028
Mof_C 	C 	0.5079	0.8179	0.6633	-0.13
Mof_Ag	Ag	0.5	0.96757	0.25	0.626
Mof_Ag	Ag	1.14831e-33	0.46757	0.25	0.589
Mof_C 	C 	3.44493e-33	0.0776	0.75	-0.011
Mof_H 	H 	3.44493e-33	0.0424	0.75	0.024
Mof_C 	C 	3.44493e-33	0.1827	0.75	-0.062
Mof_C 	C 	3.44493e-33	0.2395	0.75	-0.084
Mof_C 	C 	3.44493e-33	0.3416	0.75	0.007
Mof_H 	H 	3.44493e-33	0.3768	0.75	0.017
Mof_C 	C 	0.5	0.5776	0.75	0.024
Mof_H 	H 	0.5	0.5424	0.75	0.02
Mof_C 	C 	0.5	0.6827	0.75	-0.045
Mof_C 	C 	0.5	0.7395	0.75	-0.068
Mof_C 	C 	0.5	0.8416	0.75	0.048
Mof_H 	H 	0.5	0.8768	0.75	0.01
_end
