data_functionalizedCrystal
_audit_creation_method	'EQeq! by Chris Wilmer'
_symmetry_space_group_name_H-M	'P1'
_symmetry_Int_Tables_number	1
_symmetry_cell_setting	triclinic
loop_
_symmetry_equiv_pos_as_xyz
  x,y,z
_cell_length_a	16.082
_cell_length_b	17.074
_cell_length_c	27.878
_cell_angle_alpha	92.586
_cell_angle_beta	105.969
_cell_angle_gamma	117
loop_
_atom_site_label
_atom_site_type_symbol
_atom_site_fract_x
_atom_site_fract_y
_atom_site_fract_z
_atom_site_charge
Mof_Zn	Zn	0.71009	0.76501	0.19283	1.156
Mof_Zn	Zn	0.47203	0.21738	0.7981	1.205
Mof_Zn	Zn	0.647	0.22469	0.75652	1.227
Mof_Zn	Zn	0.353	0.77531	0.24348	1.227
Mof_Zn	Zn	0.42563	0.06922	0.68908	1.203
Mof_Zn	Zn	0.28991	0.23499	0.80717	1.156
Mof_Zn	Zn	0.58449	0.63793	0.26396	1.229
Mof_Zn	Zn	0.41551	0.36207	0.73604	1.229
Mof_Zn	Zn	0.57437	0.93078	0.31092	1.202
Mof_Zn	Zn	0.52797	0.78262	0.2019	1.204
Mof_Co	Co	0.25804	0.25439	0.38569	1.172
Mof_Co	Co	0.74196	0.74561	0.61431	1.172
Mof_Co	Co	0.87649	0.33952	0.12167	1.174
Mof_Co	Co	0.12351	0.66048	0.87833	1.174
Mof_H 	H 	0.1628	0.0064	0.3079	0.091
Mof_H 	H 	0.4059	0.4443	0.5028	0.11
Mof_H 	H 	0.6423	0.9981	0.0019	0.035
Mof_H 	H 	0.1859	0.3743	0.3026	0.095
Mof_H 	H 	0.2628	0.7835	0.7935	0.109
Mof_H 	H 	0.8616	0.1684	0.3269	0.025
Mof_H 	H 	0.5557	0.4144	0.3448	0.073
Mof_H 	H 	0.6468	0.4769	0.5547	0.108
Mof_H 	H 	0.9203	0.7337	0.5039	0.078
Mof_H 	H 	0.4113	0.4432	0.5876	0.021
Mof_H 	H 	0.1384	0.8316	0.6731	0.025
Mof_H 	H 	0.2225	0.9285	0.2726	0.011
Mof_H 	H 	0.4053	0.2064	0.4939	0.105
Mof_H 	H 	0.9461	0.3889	0.9968	0.119
Mof_H 	H 	0.7416	0.354	0.2121	0.117
Mof_H 	H 	0.9804	0.7462	0.676	0.113
Mof_H 	H 	0.0825	0.4683	0.0815	0.113
Mof_H 	H 	0.7161	0.581	0.7816	-0.003
Mof_H 	H 	0.7281	0.4482	0.0845	0.111
Mof_H 	H 	0.0721	0.5578	0.278	0.075
Mof_H 	H 	0.1116	0.0541	0.6813	-0.003
Mof_H 	H 	0.342	0.9364	0.7892	0.004
Mof_H 	H 	0.4443	0.5856	0.6552	0.073
Mof_H 	H 	0.8651	0.3232	0.911	0.008
Mof_H 	H 	0.8372	0.9936	0.6921	0.091
Mof_H 	H 	0.0196	0.2538	0.324	0.113
Mof_H 	H 	0.0473	0.0279	0.3148	0.092
Mof_H 	H 	0.0536	0.1297	0.5188	0.026
Mof_H 	H 	0.3763	0.652	0.4134	0.02
Mof_H 	H 	0.8884	0.9459	0.3187	-0.003
Mof_H 	H 	0.2202	0.5064	0.271	0.019
Mof_H 	H 	0.5727	0.0752	0.0344	0.062
Mof_H 	H 	0.4972	0.8857	0.6471	0.01
Mof_H 	H 	0.5941	0.5557	0.4972	0.11
Mof_H 	H 	0.7775	0.0715	0.7274	0.011
Mof_H 	H 	0.4273	0.9248	0.9656	0.062
Mof_H 	H 	0.6237	0.348	0.5866	0.02
Mof_H 	H 	0.3204	0.4556	0.8862	-0.018
Mof_H 	H 	0.9527	0.9721	0.6852	0.092
Mof_H 	H 	0.1178	0.9591	0.8112	-0.001
Mof_H 	H 	0.0362	0.8085	0.8143	0.122
Mof_H 	H 	0.5806	0.7883	0.4209	-0.002
Mof_H 	H 	0.3577	0.0019	0.9981	0.035
Mof_H 	H 	0.5947	0.7936	0.5061	0.105
Mof_H 	H 	0.8141	0.6257	0.6974	0.095
Mof_H 	H 	0.8941	0.9574	0.517	0.072
Mof_H 	H 	0.7084	0.4571	0.2462	-0.003
Mof_H 	H 	0.9464	0.8703	0.4812	0.026
Mof_H 	H 	0.3078	0.2786	0.2241	0.068
Mof_H 	H 	0.6841	0.3233	0.0166	0.105
Mof_H 	H 	0.1075	0.6791	0.2373	0.022
Mof_H 	H 	0.1059	0.0426	0.483	0.072
Mof_H 	H 	0.9279	0.4422	0.722	0.075
Mof_H 	H 	0.1834	0.9293	0.9786	0.067
Mof_H 	H 	0.5028	0.1143	0.3529	0.01
Mof_H 	H 	0.4431	0.1872	0.3951	0.1
Mof_H 	H 	0.2584	0.646	0.7879	0.117
Mof_H 	H 	0.2839	0.419	0.2184	-0.003
Mof_H 	H 	0.8925	0.3209	0.7627	0.022
Mof_H 	H 	0.6057	0.2555	0.9306	-0.026
Mof_H 	H 	0.5887	0.5568	0.4124	0.021
Mof_H 	H 	0.2719	0.5518	0.9155	0.111
Mof_H 	H 	0.7372	0.2165	0.2065	0.109
Mof_H 	H 	0.963	0.3392	0.8497	0.07
Mof_H 	H 	0.7473	0.4299	0.8828	-0.003
Mof_H 	H 	0.6796	0.5444	0.1138	-0.018
Mof_H 	H 	0.9175	0.5317	0.9185	0.113
Mof_H 	H 	0.1176	0.3187	0.185	0.121
Mof_H 	H 	0.1349	0.6768	0.089	0.008
Mof_H 	H 	0.5224	0.6339	0.7428	0.04
Mof_H 	H 	0.8166	0.0707	0.0214	0.067
Mof_H 	H 	0.9638	0.1915	0.1857	0.122
Mof_H 	H 	0.5569	0.8128	0.6049	0.1
Mof_H 	H 	0.4776	0.3661	0.2572	0.04
Mof_H 	H 	0.037	0.6608	0.1503	0.07
Mof_H 	H 	0.6922	0.7214	0.7759	0.068
Mof_H 	H 	0.8822	0.0409	0.1888	-0.001
Mof_H 	H 	0.7798	0.4936	0.729	0.019
Mof_H 	H 	0.2527	0.5701	0.1172	-0.003
Mof_H 	H 	0.3532	0.5231	0.4453	0.108
Mof_H 	H 	0.2916	0.5429	0.7538	-0.003
Mof_H 	H 	0.3943	0.7445	0.0694	-0.026
Mof_H 	H 	0.3159	0.6767	0.9834	0.105
Mof_H 	H 	0.0797	0.2663	0.4961	0.078
Mof_H 	H 	0.8824	0.6813	0.815	0.121
Mof_H 	H 	0.0539	0.6111	0.0032	0.119
Mof_H 	H 	0.4194	0.2117	0.5791	-0.002
Mof_H 	H 	0.658	0.0636	0.2108	0.004
Mof_C 	C 	0.6602	0.7047	0.7401	-0.064
Mof_C 	C 	0.6718	0.242	0.096	0.16
Mof_C 	C 	0.4398	0.3481	0.2795	0.007
Mof_C 	C 	0.2575	0.4337	0.3769	0.165
Mof_C 	C 	0.8551	0.6296	0.8291	-0.232
Mof_C 	C 	0.1195	0.0998	0.475	-0.093
Mof_C 	C 	0.8279	0.3212	0.9326	0.137
Mof_C 	C 	0.4082	0.2558	0.5129	-0.201
Mof_C 	C 	0.0841	0.9913	0.6799	0.104
Mof_C 	C 	0.272	0.6076	0.8085	-0.242
Mof_C 	C 	0.5857	0.742	0.4369	0.116
Mof_C 	C 	0.7289	0.3842	0.1433	0.22
Mof_C 	C 	0.0995	0.8594	0.6749	0.1
Mof_C 	C 	0.4024	0.9562	0.2864	0.386
Mof_C 	C 	0.7831	0.9086	0.582	0.152
Mof_C 	C 	0.0493	0.7575	0.9195	0.16
Mof_C 	C 	0.7182	0.4464	0.1165	-0.237
Mof_C 	C 	0.877	0.5419	0.8904	-0.225
Mof_C 	C 	0.2377	0.9619	0.802	-0.202
Mof_C 	C 	0.3282	0.758	0.904	0.16
Mof_C 	C 	0.1432	0.7835	0.8052	0.189
Mof_C 	C 	0.5693	0.6545	0.6368	0.023
Mof_C 	C 	0.663	0.5766	0.2036	0.422
Mof_C 	C 	0.3252	0.6767	0.3202	0.378
Mof_C 	C 	0.9899	0.9431	0.6823	-0.19
Mof_C 	C 	0.8614	0.049	0.3246	-0.149
Mof_C 	C 	0.4108	0.3954	0.5685	0.108
Mof_C 	C 	0.2846	0.266	0.292	0.014
Mof_C 	C 	0.2753	0.7236	0.0871	-0.21
Mof_C 	C 	0.2449	0.5092	0.3065	0.096
Mof_C 	C 	0.8214	0.6549	0.5712	0.153
Mof_C 	C 	0.1386	0.951	0.6754	-0.149
Mof_C 	C 	0.0495	0.1484	0.3194	0.161
Mof_C 	C 	0.7164	0.4921	0.8277	-0.21
Mof_C 	C 	0.4133	0.3263	0.5904	-0.162
Mof_C 	C 	0.6424	0.1019	0.0426	-0.066
Mof_C 	C 	0.6884	0.5112	0.1841	-0.216
Mof_C 	C 	0.7755	0.4811	0.8684	0.147
Mof_C 	C 	0.3386	0.5953	0.3908	0.102
Mof_C 	C 	0.6748	0.3233	0.6798	0.378
Mof_C 	C 	0.0465	0.6236	0.7726	0.161
Mof_C 	C 	0.2917	0.546	0.788	0.157
Mof_C 	C 	0.3284	0.7625	0.1404	0.41
Mof_C 	C 	0.5892	0.6046	0.4315	0.108
Mof_C 	C 	0.8974	0.7688	0.5178	-0.087
Mof_C 	C 	0.7682	0.9739	0.6809	-0.178
Mof_C 	C 	0.337	0.4234	0.7964	0.422
Mof_C 	C 	0.2245	0.5189	0.1316	0.147
Mof_C 	C 	0.5867	0.6737	0.4096	-0.162
Mof_C 	C 	0.5602	0.6519	0.7205	0.007
Mof_C 	C 	0.2785	0.6762	0.0046	-0.222
Mof_C 	C 	0.1779	0.2101	0.2811	0.156
Mof_C 	C 	0.6614	0.4047	0.6092	0.102
Mof_C 	C 	0.0462	0.5492	0.242	-0.079
Mof_C 	C 	0.2434	0.0044	0.676	0.349
Mof_C 	C 	0.123	0.4581	0.1096	-0.225
Mof_C 	C 	0.1721	0.6788	0.0674	0.137
Mof_C 	C 	0.8245	0.3667	0.0143	0.183
Mof_C 	C 	0.0875	0.1508	0.4951	0.028
Mof_C 	C 	0.5665	0.909	0.6551	0.1
Mof_C 	C 	0.6778	0.4809	0.5897	-0.171
Mof_C 	C 	0.4073	0.3959	0.5178	-0.199
Mof_C 	C 	0.9008	0.1656	0.1901	-0.227
Mof_C 	C 	0.297	0.8148	0.9257	0.023
Mof_C 	C 	0.7107	0.9399	0.1991	0.426
Mof_C 	C 	0.9505	0.8516	0.6806	0.161
Mof_C 	C 	0.7195	0.0897	0.2047	0.134
Mof_C 	C 	0.4143	0.258	0.5631	0.116
Mof_C 	C 	0.3222	0.5191	0.4103	-0.171
Mof_C 	C 	0.9535	0.3764	0.2274	0.161
Mof_C 	C 	0.1239	0.6373	0.0167	-0.215
Mof_C 	C 	0.4673	0.3607	0.4199	0.166
Mof_C 	C 	0.026	0.6105	0.1662	-0.084
Mof_C 	C 	0.7083	0.454	0.212	0.157
Mof_C 	C 	0.5327	0.6393	0.5801	0.166
Mof_C 	C 	0.7857	0.0991	0.0339	-0.066
Mof_C 	C 	0.2805	0.9103	0.7953	0.134
Mof_C 	C 	0.6324	0.9865	0.6921	-0.159
Mof_C 	C 	0.5927	0.6041	0.4822	-0.199
Mof_C 	C 	0.2143	0.9009	0.9661	-0.066
Mof_C 	C 	0.8568	0.2165	0.1948	0.189
Mof_C 	C 	0.7566	0.9956	0.324	0.349
Mof_C 	C 	0.9507	0.2425	0.0805	0.16
Mof_C 	C 	0.4863	0.3754	0.3311	-0.07
Mof_C 	C 	0.9125	0.8492	0.5049	0.028
Mof_C 	C 	0.3026	0.5922	0.3402	-0.149
Mof_C 	C 	0.7154	0.734	0.708	0.014
Mof_C 	C 	0.7023	0.8982	0.6403	0.169
Mof_C 	C 	0.9159	0.0087	0.3201	0.104
Mof_C 	C 	0.6716	0.2375	0.8596	0.41
Mof_C 	C 	0.3398	0.2953	0.2599	-0.064
Mof_C 	C 	0.7425	0.5663	0.6231	0.165
Mof_C 	C 	0.3067	0.4936	0.8653	0.143
Mof_C 	C 	0.3576	0.8981	0.9574	-0.066
Mof_C 	C 	0.9867	0.4636	0.2111	0.03
Mof_C 	C 	0.2169	0.0914	0.418	0.152
Mof_C 	C 	0.0068	0.8088	0.677	-0.184
Mof_C 	C 	0.2893	0.0601	0.8009	0.426
Mof_C 	C 	0.9694	0.5234	0.1384	0.03
Mof_C 	C 	0.5797	0.6733	0.3543	0.376
Mof_C 	C 	0.5939	0.6735	0.5105	0.178
Mof_C 	C 	0.0101	0.0569	0.3177	-0.19
Mof_C 	C 	0.2318	0.0261	0.3191	-0.178
Mof_C 	C 	0.2239	0.4307	0.3255	-0.18
Mof_C 	C 	0.7215	0.3238	0.9954	-0.222
Mof_C 	C 	0.1755	0.6333	0.9857	0.183
Mof_C 	C 	0.728	0.3924	0.1915	-0.242
Mof_C 	C 	0.3167	0.9436	0.9774	-0.001
Mof_C 	C 	0.7571	0.5697	0.8089	0.153
Mof_C 	C 	0.7665	0.1803	0.2026	-0.209
Mof_C 	C 	0.8288	0.8666	0.5566	0.043
Mof_C 	C 	0.0845	0.3835	0.1302	0.205
Mof_C 	C 	0.1712	0.1334	0.4434	0.043
Mof_C 	C 	0.8468	0.7407	0.5522	0.04
Mof_C 	C 	0.1479	0.9233	0.8081	0.151
Mof_C 	C 	0.8805	0.9002	0.525	-0.093
Mof_C 	C 	0.4335	0.091	0.3449	0.1
Mof_C 	C 	0.8422	0.1866	0.0647	0.024
Mof_C 	C 	0.1026	0.2312	0.4822	-0.087
Mof_C 	C 	0.1532	0.2593	0.4478	0.04
Mof_C 	C 	0.6024	0.8658	0.6299	-0.189
Mof_C 	C 	0.7623	0.0381	0.198	-0.202
Mof_C 	C 	0.4061	0.3265	0.4895	0.178
Mof_C 	C 	0.3897	0.5775	0.1957	0.44
Mof_C 	C 	0.4203	0.3267	0.6457	0.376
Mof_C 	C 	0.0992	0.8344	0.8099	-0.227
Mof_C 	C 	0.9932	0.1912	0.323	-0.184
Mof_C 	C 	0.065	0.6201	0.2175	0.019
Mof_C 	C 	0.974	0.3895	0.8338	-0.084
Mof_C 	C 	0.0306	0.4766	0.8616	0.03
Mof_C 	C 	0.2678	0.9826	0.2968	0.108
Mof_C 	C 	0.4307	0.3455	0.3632	0.023
Mof_C 	C 	0.2836	0.5079	0.1723	-0.21
Mof_C 	C 	0.8221	0.7899	0.7189	0.156
Mof_C 	C 	0.6757	0.2819	0.9443	0.146
Mof_C 	C 	0.5918	0.7442	0.4871	-0.201
Mof_C 	C 	0.8761	0.3627	0.9833	-0.215
Mof_C 	C 	0.3976	0.1342	0.3701	-0.189
Mof_C 	C 	0.5137	0.6246	0.6689	-0.07
Mof_C 	C 	0.3243	0.7181	0.0557	0.146
Mof_C 	C 	0.9155	0.6165	0.8698	0.205
Mof_C 	C 	0.1786	0.3451	0.4288	0.153
Mof_C 	C 	0.7551	0.4908	0.6935	0.096
Mof_C 	C 	0.2429	0.4303	0.1911	0.153
Mof_C 	C 	0.9538	0.4508	0.758	-0.079
Mof_C 	C 	0.0812	0.5049	0.9193	0.164
Mof_C 	C 	0.6103	0.4225	0.8043	0.44
Mof_C 	C 	0.6974	0.4078	0.6598	-0.149
Mof_C 	C 	0.1449	0.3704	0.1709	-0.232
Mof_C 	C 	0.6833	0.0564	0.0226	-0.001
Mof_C 	C 	0.2818	0.5536	0.8835	-0.237
Mof_C 	C 	0.7761	0.5693	0.6745	-0.18
Mof_C 	C 	0.7322	0.0174	0.7032	0.108
Mof_C 	C 	0.9005	0.1406	0.3251	0.1
Mof_C 	C 	0.935	0.3799	0.7825	0.019
Mof_C 	C 	0.2977	0.1018	0.3597	0.169
Mof_C 	C 	0.7247	0.2764	0.9129	-0.21
Mof_C 	C 	0.9188	0.4951	0.0807	0.164
Mof_C 	C 	0.8521	0.0767	0.1919	0.151
Mof_C 	C 	0.5976	0.0438	0.7136	0.386
Mof_C 	C 	0.703	0.1852	0.0743	0.023
Mof_C 	C 	0.0133	0.5364	0.7889	0.03
Mof_C 	C 	0.1578	0.8134	0.9353	0.024
Mof_C 	C 	0.3676	0.0135	0.3079	-0.159
Mof_C 	C 	0.3116	0.4888	0.8159	-0.216
Mof_C 	C 	0.2335	0.8197	0.7974	-0.209
Mof_C 	C 	0.2711	0.6158	0.8567	0.22
Mof_C 	C 	0.6933	0.5064	0.1347	0.143
Mof_N 	N 	0.7707	0.6462	0.6029	-0.276
Mof_N 	N 	0.1851	0.21	0.4298	-0.257
Mof_N 	N 	0.8149	0.79	0.5702	-0.257
Mof_N 	N 	0.0984	0.6916	0.8116	-0.287
Mof_N 	N 	0.8749	0.4077	0.068	-0.29
Mof_N 	N 	0.1251	0.5923	0.932	-0.29
Mof_N 	N 	0.849	0.7989	0.678	-0.285
Mof_N 	N 	0.2606	0.1409	0.3882	-0.281
Mof_N 	N 	0.151	0.2011	0.322	-0.285
Mof_N 	N 	0.333	0.2942	0.3433	-0.254
Mof_N 	N 	0.0469	0.5453	0.8385	-0.256
Mof_N 	N 	0.2517	0.6783	0.8784	-0.294
Mof_N 	N 	0.3904	0.3202	0.4376	-0.284
Mof_N 	N 	0.7394	0.8591	0.6118	-0.281
Mof_N 	N 	0.2015	0.7752	0.9176	-0.255
Mof_N 	N 	0.6096	0.6798	0.5624	-0.284
Mof_N 	N 	0.9016	0.3084	0.1884	-0.287
Mof_N 	N 	0.9823	0.3215	0.1091	-0.284
Mof_N 	N 	0.9531	0.4547	0.1615	-0.256
Mof_N 	N 	0.0177	0.6785	0.8909	-0.284
Mof_N 	N 	0.2293	0.3538	0.3971	-0.276
Mof_N 	N 	0.7483	0.3217	0.1216	-0.294
Mof_N 	N 	0.7985	0.2248	0.0824	-0.255
Mof_N 	N 	0.667	0.7058	0.6567	-0.254
Mof_O 	O 	0.4564	0.2859	0.6696	-0.359
Mof_O 	O 	0.0269	0.629	0.7265	-0.206
Mof_O 	O 	0.2767	0.0865	0.6754	-0.358
Mof_O 	O 	0.3477	0.4265	0.7531	-0.474
Mof_O 	O 	0.9731	0.371	0.2735	-0.206
Mof_O 	O 	0.2781	0.7444	0.1711	-0.461
Mof_O 	O 	0.4949	0.993	0.2926	-0.482
Mof_O 	O 	0.5051	0.007	0.7074	-0.482
Mof_O 	O 	0.4143	0.6536	0.1862	-0.533
Mof_O 	O 	0.3375	0.8763	0.2658	-0.488
Mof_O 	O 	0.789	0.9821	0.5729	-0.207
Mof_O 	O 	0.4457	0.5996	0.5541	-0.216
Mof_O 	O 	0.579	0.1898	0.8436	-0.476
Mof_O 	O 	0.5436	0.7141	0.3304	-0.359
Mof_O 	O 	0.497	0.8134	0.2674	-0.667
Mof_O 	O 	0.211	0.0179	0.4271	-0.207
Mof_O 	O 	0.5839	0.2175	0.0914	-0.21
Mof_O 	O 	0.2935	0.9672	0.6767	-0.457
Mof_O 	O 	0.7219	0.2556	0.8289	-0.461
Mof_O 	O 	0.5857	0.3464	0.8138	-0.533
Mof_O 	O 	0.2461	0.1031	0.8055	-0.531
Mof_O 	O 	0.6488	0.6276	0.1762	-0.554
Mof_O 	O 	0.6107	0.628	0.3358	-0.445
Mof_O 	O 	0.624	0.9074	0.2038	-0.506
Mof_O 	O 	0.6315	0.2512	0.6498	-0.323
Mof_O 	O 	0.4161	0.7825	0.9086	-0.21
Mof_O 	O 	0.9931	0.7823	0.9307	-0.199
Mof_O 	O 	0.3615	0.2449	0.755	-0.676
Mof_O 	O 	0.0069	0.2177	0.0693	-0.199
Mof_O 	O 	0.376	0.0926	0.7962	-0.506
Mof_O 	O 	0.421	0.8102	0.1564	-0.476
Mof_O 	O 	0.4466	0.5525	0.2238	-0.482
Mof_O 	O 	0.7065	0.0328	0.3233	-0.457
Mof_O 	O 	0.0754	0.4471	0.9461	-0.219
Mof_O 	O 	0.6625	0.1237	0.7342	-0.488
Mof_O 	O 	0.5534	0.4475	0.7762	-0.482
Mof_O 	O 	0.6385	0.7551	0.245	-0.676
Mof_O 	O 	0.3685	0.7488	0.3502	-0.323
Mof_O 	O 	0.5543	0.4004	0.4459	-0.216
Mof_O 	O 	0.503	0.1866	0.7326	-0.667
Mof_O 	O 	0.9246	0.5529	0.0539	-0.219
Mof_O 	O 	0.7004	0.3318	0.7277	-0.454
Mof_O 	O 	0.7233	0.9135	0.3246	-0.358
Mof_O 	O 	0.88	0.8247	0.7649	-0.211
Mof_O 	O 	0.2996	0.6682	0.2723	-0.454
Mof_O 	O 	0.1497	0.3979	0.4412	-0.19
Mof_O 	O 	0.12	0.1753	0.2351	-0.211
Mof_O 	O 	0.7539	0.8969	0.1945	-0.531
Mof_O 	O 	0.6523	0.5735	0.2469	-0.474
Mof_O 	O 	0.3512	0.3724	0.8238	-0.554
Mof_O 	O 	0.3893	0.372	0.6642	-0.445
Mof_O 	O 	0.8503	0.6021	0.5588	-0.19
_end
