data_functionalizedCrystal
_audit_creation_method	'EQeq! by Chris Wilmer'
_symmetry_space_group_name_H-M	'P1'
_symmetry_Int_Tables_number	1
_symmetry_cell_setting	triclinic
loop_
_symmetry_equiv_pos_as_xyz
  x,y,z
_cell_length_a	17.16
_cell_length_b	17.16
_cell_length_c	17.16
_cell_angle_alpha	90
_cell_angle_beta	90
_cell_angle_gamma	90
loop_
_atom_site_label
_atom_site_type_symbol
_atom_site_fract_x
_atom_site_fract_y
_atom_site_fract_z
_atom_site_charge
Mof_N 	N 	0.6785	0.2169	0.0182	-0.39
Mof_C 	C 	0.8021	0.355	0.9431	0.177
Mof_C 	C 	0.699	0.326	0.9381	0.176
Mof_C 	C 	0.633	0.2766	0.904	-0.618
Mof_H 	H 	0.7637	0.3007	0.0452	0.361
Mof_H 	H 	0.6878	0.3884	0.932	0.193
Mof_H 	H 	0.7535	0.3124	0.9075	0.101
Mof_H 	H 	0.6351	0.273	0.8405	0.162
Mof_H 	H 	0.5767	0.3013	0.921	0.045
Mof_H 	H 	0.8347	0.4092	0.95	-0.004
Mof_H 	H 	0.8379	0.3129	0.9111	-0.027
Mof_H 	H 	0.6597	0.1935	0.0712	0.053
Mof_N 	N 	0.3215	0.7831	0.0182	-0.39
Mof_C 	C 	0.1979	0.645	0.9431	0.177
Mof_C 	C 	0.301	0.674	0.9381	0.176
Mof_C 	C 	0.367	0.7234	0.904	-0.618
Mof_H 	H 	0.2363	0.6993	0.0452	0.361
Mof_H 	H 	0.3122	0.6116	0.932	0.193
Mof_H 	H 	0.2465	0.6876	0.9075	0.101
Mof_H 	H 	0.3649	0.727	0.8405	0.162
Mof_H 	H 	0.4233	0.6987	0.921	0.045
Mof_H 	H 	0.1653	0.5908	0.95	-0.004
Mof_H 	H 	0.1621	0.6871	0.9111	-0.027
Mof_H 	H 	0.3403	0.8065	0.0712	0.053
Mof_N 	N 	0.3215	0.2169	0.9818	-0.39
Mof_C 	C 	0.1979	0.355	0.0569	0.177
Mof_C 	C 	0.301	0.326	0.0619	0.176
Mof_C 	C 	0.367	0.2766	0.096	-0.618
Mof_H 	H 	0.2363	0.3007	0.9548	0.361
Mof_H 	H 	0.3122	0.3884	0.068	0.193
Mof_H 	H 	0.2465	0.3124	0.0925	0.101
Mof_H 	H 	0.3649	0.273	0.1595	0.162
Mof_H 	H 	0.4233	0.3013	0.079	0.045
Mof_H 	H 	0.1653	0.4092	0.05	-0.004
Mof_H 	H 	0.1621	0.3129	0.0889	-0.027
Mof_H 	H 	0.3403	0.1935	0.9288	0.053
Mof_N 	N 	0.6785	0.7831	0.9818	-0.39
Mof_C 	C 	0.8021	0.645	0.0569	0.177
Mof_C 	C 	0.699	0.674	0.0619	0.176
Mof_C 	C 	0.633	0.7234	0.096	-0.618
Mof_H 	H 	0.7637	0.6993	0.9548	0.361
Mof_H 	H 	0.6878	0.6116	0.068	0.193
Mof_H 	H 	0.7535	0.6876	0.0925	0.1
Mof_H 	H 	0.6351	0.727	0.1595	0.161
Mof_H 	H 	0.5767	0.6987	0.079	0.044
Mof_H 	H 	0.8347	0.5908	0.05	-0.005
Mof_H 	H 	0.8379	0.6871	0.0889	-0.028
Mof_H 	H 	0.6597	0.8065	0.9288	0.052
Mof_N 	N 	0.0182	0.6785	0.2169	-0.391
Mof_C 	C 	0.9431	0.8021	0.355	0.176
Mof_C 	C 	0.9381	0.699	0.326	0.175
Mof_C 	C 	0.904	0.633	0.2766	-0.619
Mof_H 	H 	0.0452	0.7637	0.3007	0.36
Mof_H 	H 	0.932	0.6878	0.3884	0.192
Mof_H 	H 	0.9075	0.7535	0.3124	0.1
Mof_H 	H 	0.8405	0.6351	0.273	0.161
Mof_H 	H 	0.921	0.5767	0.3013	0.044
Mof_H 	H 	0.95	0.8347	0.4092	-0.005
Mof_H 	H 	0.9111	0.8379	0.3129	-0.028
Mof_H 	H 	0.0712	0.6597	0.1935	0.052
Mof_N 	N 	0.0182	0.3215	0.7831	-0.391
Mof_C 	C 	0.9431	0.1979	0.645	0.176
Mof_C 	C 	0.9381	0.301	0.674	0.175
Mof_C 	C 	0.904	0.367	0.7234	-0.619
Mof_H 	H 	0.0452	0.2363	0.6993	0.36
Mof_H 	H 	0.932	0.3122	0.6116	0.192
Mof_H 	H 	0.9075	0.2465	0.6876	0.1
Mof_H 	H 	0.8405	0.3649	0.727	0.161
Mof_H 	H 	0.921	0.4233	0.6987	0.044
Mof_H 	H 	0.95	0.1653	0.5908	-0.005
Mof_H 	H 	0.9111	0.1621	0.6871	-0.028
Mof_H 	H 	0.0712	0.3403	0.8065	0.052
Mof_N 	N 	0.9818	0.3215	0.2169	-0.391
Mof_C 	C 	0.0569	0.1979	0.355	0.176
Mof_C 	C 	0.0619	0.301	0.326	0.175
Mof_C 	C 	0.096	0.367	0.2766	-0.619
Mof_H 	H 	0.9548	0.2363	0.3007	0.36
Mof_H 	H 	0.068	0.3122	0.3884	0.192
Mof_H 	H 	0.0925	0.2465	0.3124	0.1
Mof_H 	H 	0.1595	0.3649	0.273	0.161
Mof_H 	H 	0.079	0.4233	0.3013	0.044
Mof_H 	H 	0.05	0.1653	0.4092	-0.005
Mof_H 	H 	0.0889	0.1621	0.3129	-0.028
Mof_H 	H 	0.9288	0.3403	0.1935	0.052
Mof_N 	N 	0.9818	0.6785	0.7831	-0.391
Mof_C 	C 	0.0569	0.8021	0.645	0.176
Mof_C 	C 	0.0619	0.699	0.674	0.175
Mof_C 	C 	0.096	0.633	0.7234	-0.619
Mof_H 	H 	0.9548	0.7637	0.6993	0.36
Mof_H 	H 	0.068	0.6878	0.6116	0.192
Mof_H 	H 	0.0925	0.7535	0.6876	0.1
Mof_H 	H 	0.1595	0.6351	0.727	0.161
Mof_H 	H 	0.079	0.5767	0.6987	0.044
Mof_H 	H 	0.05	0.8347	0.5908	-0.005
Mof_H 	H 	0.0889	0.8379	0.6871	-0.028
Mof_H 	H 	0.9288	0.6597	0.8065	0.052
Mof_N 	N 	0.2169	0.0182	0.6785	-0.391
Mof_C 	C 	0.355	0.9431	0.8021	0.176
Mof_C 	C 	0.326	0.9381	0.699	0.175
Mof_C 	C 	0.2766	0.904	0.633	-0.619
Mof_H 	H 	0.3007	0.0452	0.7637	0.36
Mof_H 	H 	0.3884	0.932	0.6878	0.192
Mof_H 	H 	0.3124	0.9075	0.7535	0.1
Mof_H 	H 	0.273	0.8405	0.6351	0.161
Mof_H 	H 	0.3013	0.921	0.5767	0.044
Mof_H 	H 	0.4092	0.95	0.8347	-0.005
Mof_H 	H 	0.3129	0.9111	0.8379	-0.028
Mof_H 	H 	0.1935	0.0712	0.6597	0.052
Mof_N 	N 	0.7831	0.0182	0.3215	-0.391
Mof_C 	C 	0.645	0.9431	0.1979	0.176
Mof_C 	C 	0.674	0.9381	0.301	0.175
Mof_C 	C 	0.7234	0.904	0.367	-0.619
Mof_H 	H 	0.6993	0.0452	0.2363	0.36
Mof_H 	H 	0.6116	0.932	0.3122	0.192
Mof_H 	H 	0.6876	0.9075	0.2465	0.1
Mof_H 	H 	0.727	0.8405	0.3649	0.161
Mof_H 	H 	0.6987	0.921	0.4233	0.044
Mof_H 	H 	0.5908	0.95	0.1653	-0.005
Mof_H 	H 	0.6871	0.9111	0.1621	-0.028
Mof_H 	H 	0.8065	0.0712	0.3403	0.052
Mof_N 	N 	0.2169	0.9818	0.3215	-0.391
Mof_C 	C 	0.355	0.0569	0.1979	0.176
Mof_C 	C 	0.326	0.0619	0.301	0.175
Mof_C 	C 	0.2766	0.096	0.367	-0.619
Mof_H 	H 	0.3007	0.9548	0.2363	0.36
Mof_H 	H 	0.3884	0.068	0.3122	0.192
Mof_H 	H 	0.3124	0.0925	0.2465	0.1
Mof_H 	H 	0.273	0.1595	0.3649	0.161
Mof_H 	H 	0.3013	0.079	0.4233	0.044
Mof_H 	H 	0.4092	0.05	0.1653	-0.005
Mof_H 	H 	0.3129	0.0889	0.1621	-0.028
Mof_H 	H 	0.1935	0.9288	0.3403	0.052
Mof_N 	N 	0.7831	0.9818	0.6785	-0.391
Mof_C 	C 	0.645	0.0569	0.8021	0.176
Mof_C 	C 	0.674	0.0619	0.699	0.175
Mof_C 	C 	0.7234	0.096	0.633	-0.619
Mof_H 	H 	0.6993	0.9548	0.7637	0.36
Mof_H 	H 	0.6116	0.068	0.6878	0.192
Mof_H 	H 	0.6876	0.0925	0.7535	0.1
Mof_H 	H 	0.727	0.1595	0.6351	0.161
Mof_H 	H 	0.6987	0.079	0.5767	0.044
Mof_H 	H 	0.5908	0.05	0.8347	-0.005
Mof_H 	H 	0.6871	0.0889	0.8379	-0.028
Mof_H 	H 	0.8065	0.9288	0.6597	0.052
Mof_N 	N 	0.2169	0.6785	0.0182	-0.391
Mof_C 	C 	0.355	0.8021	0.9431	0.176
Mof_C 	C 	0.326	0.699	0.9381	0.175
Mof_C 	C 	0.2766	0.633	0.904	-0.619
Mof_H 	H 	0.3007	0.7637	0.0452	0.36
Mof_H 	H 	0.3884	0.6878	0.932	0.192
Mof_H 	H 	0.3124	0.7535	0.9075	0.1
Mof_H 	H 	0.273	0.6351	0.8405	0.161
Mof_H 	H 	0.3013	0.5767	0.921	0.044
Mof_H 	H 	0.4092	0.8347	0.95	-0.005
Mof_H 	H 	0.3129	0.8379	0.9111	-0.028
Mof_H 	H 	0.1935	0.6597	0.0712	0.052
Mof_N 	N 	0.7831	0.3215	0.0182	-0.391
Mof_C 	C 	0.645	0.1979	0.9431	0.176
Mof_C 	C 	0.674	0.301	0.9381	0.175
Mof_C 	C 	0.7234	0.367	0.904	-0.619
Mof_H 	H 	0.6993	0.2363	0.0452	0.36
Mof_H 	H 	0.6116	0.3122	0.932	0.192
Mof_H 	H 	0.6876	0.2465	0.9075	0.1
Mof_H 	H 	0.727	0.3649	0.8405	0.161
Mof_H 	H 	0.6987	0.4233	0.921	0.044
Mof_H 	H 	0.5908	0.1653	0.95	-0.005
Mof_H 	H 	0.6871	0.1621	0.9111	-0.028
Mof_H 	H 	0.8065	0.3403	0.0712	0.052
Mof_N 	N 	0.2169	0.3215	0.9818	-0.391
Mof_C 	C 	0.355	0.1979	0.0569	0.176
Mof_C 	C 	0.326	0.301	0.0619	0.175
Mof_C 	C 	0.2766	0.367	0.096	-0.619
Mof_H 	H 	0.3007	0.2363	0.9548	0.36
Mof_H 	H 	0.3884	0.3122	0.068	0.192
Mof_H 	H 	0.3124	0.2465	0.0925	0.1
Mof_H 	H 	0.273	0.3649	0.1595	0.161
Mof_H 	H 	0.3013	0.4233	0.079	0.044
Mof_H 	H 	0.4092	0.1653	0.05	-0.005
Mof_H 	H 	0.3129	0.1621	0.0889	-0.028
Mof_H 	H 	0.1935	0.3403	0.9288	0.052
Mof_N 	N 	0.7831	0.6785	0.9818	-0.391
Mof_C 	C 	0.645	0.8021	0.0569	0.176
Mof_C 	C 	0.674	0.699	0.0619	0.175
Mof_C 	C 	0.7234	0.633	0.096	-0.619
Mof_H 	H 	0.6993	0.7637	0.9548	0.36
Mof_H 	H 	0.6116	0.6878	0.068	0.192
Mof_H 	H 	0.6876	0.7535	0.0925	0.1
Mof_H 	H 	0.727	0.6351	0.1595	0.161
Mof_H 	H 	0.6987	0.5767	0.079	0.044
Mof_H 	H 	0.5908	0.8347	0.05	-0.005
Mof_H 	H 	0.6871	0.8379	0.0889	-0.028
Mof_H 	H 	0.8065	0.6597	0.9288	0.052
Mof_N 	N 	0.6785	0.0182	0.2169	-0.391
Mof_C 	C 	0.8021	0.9431	0.355	0.176
Mof_C 	C 	0.699	0.9381	0.326	0.175
Mof_C 	C 	0.633	0.904	0.2766	-0.619
Mof_H 	H 	0.7637	0.0452	0.3007	0.36
Mof_H 	H 	0.6878	0.932	0.3884	0.192
Mof_H 	H 	0.7535	0.9075	0.3124	0.1
Mof_H 	H 	0.6351	0.8405	0.273	0.161
Mof_H 	H 	0.5767	0.921	0.3013	0.044
Mof_H 	H 	0.8347	0.95	0.4092	-0.005
Mof_H 	H 	0.8379	0.9111	0.3129	-0.028
Mof_H 	H 	0.6597	0.0712	0.1935	0.052
Mof_N 	N 	0.3215	0.0182	0.7831	-0.391
Mof_C 	C 	0.1979	0.9431	0.645	0.176
Mof_C 	C 	0.301	0.9381	0.674	0.175
Mof_C 	C 	0.367	0.904	0.7234	-0.619
Mof_H 	H 	0.2363	0.0452	0.6993	0.36
Mof_H 	H 	0.3122	0.932	0.6116	0.192
Mof_H 	H 	0.2465	0.9075	0.6876	0.1
Mof_H 	H 	0.3649	0.8405	0.727	0.161
Mof_H 	H 	0.4233	0.921	0.6987	0.044
Mof_H 	H 	0.1653	0.95	0.5908	-0.005
Mof_H 	H 	0.1621	0.9111	0.6871	-0.028
Mof_H 	H 	0.3403	0.0712	0.8065	0.052
Mof_N 	N 	0.3215	0.9818	0.2169	-0.391
Mof_C 	C 	0.1979	0.0569	0.355	0.176
Mof_C 	C 	0.301	0.0619	0.326	0.175
Mof_C 	C 	0.367	0.096	0.2766	-0.619
Mof_H 	H 	0.2363	0.9548	0.3007	0.36
Mof_H 	H 	0.3122	0.068	0.3884	0.192
Mof_H 	H 	0.2465	0.0925	0.3124	0.1
Mof_H 	H 	0.3649	0.1595	0.273	0.161
Mof_H 	H 	0.4233	0.079	0.3013	0.044
Mof_H 	H 	0.1653	0.05	0.4092	-0.005
Mof_H 	H 	0.1621	0.0889	0.3129	-0.028
Mof_H 	H 	0.3403	0.9288	0.1935	0.052
Mof_N 	N 	0.6785	0.9818	0.7831	-0.391
Mof_C 	C 	0.8021	0.0569	0.645	0.176
Mof_C 	C 	0.699	0.0619	0.674	0.175
Mof_C 	C 	0.633	0.096	0.7234	-0.619
Mof_H 	H 	0.7637	0.9548	0.6993	0.36
Mof_H 	H 	0.6878	0.068	0.6116	0.192
Mof_H 	H 	0.7535	0.0925	0.6876	0.1
Mof_H 	H 	0.6351	0.1595	0.727	0.161
Mof_H 	H 	0.5767	0.079	0.6987	0.044
Mof_H 	H 	0.8347	0.05	0.5908	-0.005
Mof_H 	H 	0.8379	0.0889	0.6871	-0.028
Mof_H 	H 	0.6597	0.9288	0.8065	0.052
Mof_N 	N 	0.0182	0.2169	0.6785	-0.391
Mof_C 	C 	0.9431	0.355	0.8021	0.176
Mof_C 	C 	0.9381	0.326	0.699	0.175
Mof_C 	C 	0.904	0.2766	0.633	-0.619
Mof_H 	H 	0.0452	0.3007	0.7637	0.36
Mof_H 	H 	0.932	0.3884	0.6878	0.192
Mof_H 	H 	0.9075	0.3124	0.7535	0.1
Mof_H 	H 	0.8405	0.273	0.6351	0.161
Mof_H 	H 	0.921	0.3013	0.5767	0.044
Mof_H 	H 	0.95	0.4092	0.8347	-0.005
Mof_H 	H 	0.9111	0.3129	0.8379	-0.028
Mof_H 	H 	0.0712	0.1935	0.6597	0.052
Mof_N 	N 	0.0182	0.7831	0.3215	-0.391
Mof_C 	C 	0.9431	0.645	0.1979	0.176
Mof_C 	C 	0.9381	0.674	0.301	0.175
Mof_C 	C 	0.904	0.7234	0.367	-0.619
Mof_H 	H 	0.0452	0.6993	0.2363	0.36
Mof_H 	H 	0.932	0.6116	0.3122	0.192
Mof_H 	H 	0.9075	0.6876	0.2465	0.1
Mof_H 	H 	0.8405	0.727	0.3649	0.161
Mof_H 	H 	0.921	0.6987	0.4233	0.044
Mof_H 	H 	0.95	0.5908	0.1653	-0.005
Mof_H 	H 	0.9111	0.6871	0.1621	-0.028
Mof_H 	H 	0.0712	0.8065	0.3403	0.052
Mof_N 	N 	0.9818	0.2169	0.3215	-0.391
Mof_C 	C 	0.0569	0.355	0.1979	0.176
Mof_C 	C 	0.0619	0.326	0.301	0.175
Mof_C 	C 	0.096	0.2766	0.367	-0.619
Mof_H 	H 	0.9548	0.3007	0.2363	0.36
Mof_H 	H 	0.068	0.3884	0.3122	0.192
Mof_H 	H 	0.0925	0.3124	0.2465	0.1
Mof_H 	H 	0.1595	0.273	0.3649	0.161
Mof_H 	H 	0.079	0.3013	0.4233	0.044
Mof_H 	H 	0.05	0.4092	0.1653	-0.005
Mof_H 	H 	0.0889	0.3129	0.1621	-0.028
Mof_H 	H 	0.9288	0.1935	0.3403	0.052
Mof_N 	N 	0.9818	0.7831	0.6785	-0.391
Mof_C 	C 	0.0569	0.645	0.8021	0.176
Mof_C 	C 	0.0619	0.674	0.699	0.175
Mof_C 	C 	0.096	0.7234	0.633	-0.619
Mof_H 	H 	0.9548	0.6993	0.7637	0.36
Mof_H 	H 	0.068	0.6116	0.6878	0.192
Mof_H 	H 	0.0925	0.6876	0.7535	0.1
Mof_H 	H 	0.1595	0.727	0.6351	0.161
Mof_H 	H 	0.079	0.6987	0.5767	0.044
Mof_H 	H 	0.05	0.5908	0.8347	-0.005
Mof_H 	H 	0.0889	0.6871	0.8379	-0.028
Mof_H 	H 	0.9288	0.8065	0.6597	0.052
Mof_Zn	Zn	0.5646	0.4354	0.4354	1.232
Mof_Zn	Zn	0.4354	0.5646	0.4354	1.232
Mof_Zn	Zn	0.4354	0.4354	0.5646	1.232
Mof_Zn	Zn	0.5646	0.5646	0.5646	1.232
Mof_O 	O 	0.5	0.5	0.5	-0.95
Mof_O 	O 	0.5483	0.4517	0.3325	-0.45
Mof_C 	C 	0.5496	0.4504	0.1654	-1.6
Mof_C 	C 	0.5494	0.4506	0.084	0.978
Mof_N 	N 	0.6	0.4	0.0461	0.003
Mof_C 	C 	0.704	0.296	0.0227	-0.393
Mof_C 	C 	0.65	0.35	0.0751	0.222
Mof_O 	O 	0.65	0.35	0.1462	-0.278
Mof_H 	H 	0.57305	0.42695	0.194	0.842
Mof_H 	H 	0.5827	0.4173	0.0582	-0.354
Mof_H 	H 	0.595	0.405	0.9978	0.053
Mof_O 	O 	0.4517	0.5483	0.3325	-0.45
Mof_C 	C 	0.4504	0.5496	0.1654	-1.6
Mof_C 	C 	0.4506	0.5494	0.084	0.978
Mof_N 	N 	0.4	0.6	0.0461	0.003
Mof_C 	C 	0.296	0.704	0.0227	-0.393
Mof_C 	C 	0.35	0.65	0.0751	0.222
Mof_O 	O 	0.35	0.65	0.1462	-0.278
Mof_H 	H 	0.42695	0.57305	0.194	0.842
Mof_H 	H 	0.4173	0.5827	0.0582	-0.354
Mof_H 	H 	0.405	0.595	0.9978	0.053
Mof_O 	O 	0.4517	0.4517	0.6675	-0.45
Mof_C 	C 	0.4504	0.4504	0.8346	-1.6
Mof_C 	C 	0.4506	0.4506	0.916	0.978
Mof_N 	N 	0.4	0.4	0.9539	0.003
Mof_C 	C 	0.296	0.296	0.9773	-0.393
Mof_C 	C 	0.35	0.35	0.9249	0.222
Mof_O 	O 	0.35	0.35	0.8538	-0.278
Mof_H 	H 	0.42695	0.42695	0.806	0.842
Mof_H 	H 	0.4173	0.4173	0.9418	-0.354
Mof_H 	H 	0.405	0.405	0.0022	0.053
Mof_O 	O 	0.5483	0.5483	0.6675	-0.45
Mof_C 	C 	0.5496	0.5496	0.8346	-1.6
Mof_C 	C 	0.5494	0.5494	0.916	0.978
Mof_N 	N 	0.6	0.6	0.9539	0.003
Mof_C 	C 	0.704	0.704	0.9773	-0.393
Mof_C 	C 	0.65	0.65	0.9249	0.222
Mof_O 	O 	0.65	0.65	0.8538	-0.278
Mof_H 	H 	0.57305	0.57305	0.806	0.842
Mof_H 	H 	0.5827	0.5827	0.9418	-0.354
Mof_H 	H 	0.595	0.595	0.0022	0.053
Mof_O 	O 	0.3325	0.5483	0.4517	-0.45
Mof_C 	C 	0.1654	0.5496	0.4504	-1.6
Mof_C 	C 	0.084	0.5494	0.4506	0.978
Mof_N 	N 	0.0461	0.6	0.4	0.003
Mof_C 	C 	0.0227	0.704	0.296	-0.393
Mof_C 	C 	0.0751	0.65	0.35	0.222
Mof_O 	O 	0.1462	0.65	0.35	-0.278
Mof_H 	H 	0.194	0.57305	0.42695	0.842
Mof_H 	H 	0.0582	0.5827	0.4173	-0.354
Mof_H 	H 	0.9978	0.595	0.405	0.053
Mof_O 	O 	0.3325	0.4517	0.5483	-0.45
Mof_C 	C 	0.1654	0.4504	0.5496	-1.6
Mof_C 	C 	0.084	0.4506	0.5494	0.978
Mof_N 	N 	0.0461	0.4	0.6	0.003
Mof_C 	C 	0.0227	0.296	0.704	-0.393
Mof_C 	C 	0.0751	0.35	0.65	0.222
Mof_O 	O 	0.1462	0.35	0.65	-0.278
Mof_H 	H 	0.194	0.42695	0.57305	0.842
Mof_H 	H 	0.0582	0.4173	0.5827	-0.354
Mof_H 	H 	0.9978	0.405	0.595	0.053
Mof_O 	O 	0.6675	0.4517	0.4517	-0.45
Mof_C 	C 	0.8346	0.4504	0.4504	-1.6
Mof_C 	C 	0.916	0.4506	0.4506	0.978
Mof_N 	N 	0.9539	0.4	0.4	0.003
Mof_C 	C 	0.9773	0.296	0.296	-0.393
Mof_C 	C 	0.9249	0.35	0.35	0.222
Mof_O 	O 	0.8538	0.35	0.35	-0.278
Mof_H 	H 	0.806	0.42695	0.42695	0.842
Mof_H 	H 	0.9418	0.4173	0.4173	-0.354
Mof_H 	H 	0.0022	0.405	0.405	0.053
Mof_O 	O 	0.6675	0.5483	0.5483	-0.45
Mof_C 	C 	0.8346	0.5496	0.5496	-1.6
Mof_C 	C 	0.916	0.5494	0.5494	0.978
Mof_N 	N 	0.9539	0.6	0.6	0.003
Mof_C 	C 	0.9773	0.704	0.704	-0.393
Mof_C 	C 	0.9249	0.65	0.65	0.222
Mof_O 	O 	0.8538	0.65	0.65	-0.278
Mof_H 	H 	0.806	0.57305	0.57305	0.842
Mof_H 	H 	0.9418	0.5827	0.5827	-0.354
Mof_H 	H 	0.0022	0.595	0.595	0.053
Mof_O 	O 	0.4517	0.3325	0.5483	-0.45
Mof_C 	C 	0.4504	0.1654	0.5496	-1.6
Mof_C 	C 	0.4506	0.084	0.5494	0.978
Mof_N 	N 	0.4	0.0461	0.6	0.003
Mof_C 	C 	0.296	0.0227	0.704	-0.393
Mof_C 	C 	0.35	0.0751	0.65	0.222
Mof_O 	O 	0.35	0.1462	0.65	-0.278
Mof_H 	H 	0.42695	0.194	0.57305	0.842
Mof_H 	H 	0.4173	0.0582	0.5827	-0.354
Mof_H 	H 	0.405	0.9978	0.595	0.053
Mof_O 	O 	0.5483	0.3325	0.4517	-0.45
Mof_C 	C 	0.5496	0.1654	0.4504	-1.6
Mof_C 	C 	0.5494	0.084	0.4506	0.978
Mof_N 	N 	0.6	0.0461	0.4	0.003
Mof_C 	C 	0.704	0.0227	0.296	-0.393
Mof_C 	C 	0.65	0.0751	0.35	0.222
Mof_O 	O 	0.65	0.1462	0.35	-0.278
Mof_H 	H 	0.57305	0.194	0.42695	0.842
Mof_H 	H 	0.5827	0.0582	0.4173	-0.354
Mof_H 	H 	0.595	0.9978	0.405	0.053
Mof_O 	O 	0.4517	0.6675	0.4517	-0.45
Mof_C 	C 	0.4504	0.8346	0.4504	-1.6
Mof_C 	C 	0.4506	0.916	0.4506	0.978
Mof_N 	N 	0.4	0.9539	0.4	0.003
Mof_C 	C 	0.296	0.9773	0.296	-0.393
Mof_C 	C 	0.35	0.9249	0.35	0.222
Mof_O 	O 	0.35	0.8538	0.35	-0.278
Mof_H 	H 	0.42695	0.806	0.42695	0.842
Mof_H 	H 	0.4173	0.9418	0.4173	-0.354
Mof_H 	H 	0.405	0.0022	0.405	0.053
Mof_O 	O 	0.5483	0.6675	0.5483	-0.45
Mof_C 	C 	0.5496	0.8346	0.5496	-1.6
Mof_C 	C 	0.5494	0.916	0.5494	0.978
Mof_N 	N 	0.6	0.9539	0.6	0.003
Mof_C 	C 	0.704	0.9773	0.704	-0.393
Mof_C 	C 	0.65	0.9249	0.65	0.222
Mof_O 	O 	0.65	0.8538	0.65	-0.278
Mof_H 	H 	0.57305	0.806	0.57305	0.842
Mof_H 	H 	0.5827	0.9418	0.5827	-0.354
Mof_H 	H 	0.595	0.0022	0.595	0.053
Mof_C 	C 	0.5	0.5	0.298	-0.013
Mof_C 	C 	0.5	0.5	0.2057	0.946
Mof_C 	C 	0.5	0.5	0.0431	-0.517
Mof_C 	C 	0.5	0.5	0.702	-0.013
Mof_C 	C 	0.5	0.5	0.7943	0.946
Mof_C 	C 	0.5	0.5	0.9569	-0.517
Mof_C 	C 	0.298	0.5	0.5	-0.013
Mof_C 	C 	0.2057	0.5	0.5	0.946
Mof_C 	C 	0.0431	0.5	0.5	-0.517
Mof_C 	C 	0.702	0.5	0.5	-0.013
Mof_C 	C 	0.7943	0.5	0.5	0.946
Mof_C 	C 	0.9569	0.5	0.5	-0.517
Mof_C 	C 	0.5	0.298	0.5	-0.013
Mof_C 	C 	0.5	0.2057	0.5	0.946
Mof_C 	C 	0.5	0.0431	0.5	-0.517
Mof_C 	C 	0.5	0.702	0.5	-0.013
Mof_C 	C 	0.5	0.7943	0.5	0.946
Mof_C 	C 	0.5	0.9569	0.5	-0.517
_end
