data_functionalizedCrystal
_audit_creation_method	'EQeq! by Chris Wilmer'
_symmetry_space_group_name_H-M	'P1'
_symmetry_Int_Tables_number	1
_symmetry_cell_setting	triclinic
loop_
_symmetry_equiv_pos_as_xyz
  x,y,z
_cell_length_a	33.97
_cell_length_b	33.97
_cell_length_c	33.97
_cell_angle_alpha	90
_cell_angle_beta	90
_cell_angle_gamma	90
loop_
_atom_site_label
_atom_site_type_symbol
_atom_site_fract_x
_atom_site_fract_y
_atom_site_fract_z
_atom_site_charge
Mof_Cu	Cu	-5.15174e-33	0.4611	-0	0.893
Mof_Cu	Cu	0.5	0.5	0.78218	0.905
Mof_Cu	Cu	0.78218	0.5	0.5	0.905
Mof_Cu	Cu	0.5	0.5	0.29502	0.903
Mof_Cu	Cu	0.21782	0.5	0.5	0.904
Mof_Cu	Cu	0.5	0.5	0.21782	0.904
Mof_Cu	Cu	-3.42289e-33	-5.15174e-33	0.4611	0.892
Mof_Cu	Cu	0.70498	0.5	0.5	0.903
Mof_Cu	Cu	0.5	0.70498	0.5	0.903
Mof_Cu	Cu	0.29502	0.5	0.5	0.903
Mof_Cu	Cu	0.5	0.21782	0.5	0.904
Mof_Cu	Cu	-5.15174e-33	0.5389	-0	0.892
Mof_Cu	Cu	-3.13119e-33	-1.03035e-32	0.5389	0.892
Mof_Cu	Cu	0.4611	0	-0	0.892
Mof_Cu	Cu	0.5	0.5	0.70498	0.903
Mof_Cu	Cu	0.5	0.78218	0.5	0.904
Mof_Cu	Cu	0.5	0.29502	0.5	0.903
Mof_Cu	Cu	0.5389	0	-0	0.892
Mof_H 	H 	0.8054	0.5	0.692	0.086
Mof_H 	H 	0.1946	0.5	0.308	0.084
Mof_H 	H 	0.1946	0.692	0.5	0.085
Mof_H 	H 	0.1554	0.5498	0.7997	0.028
Mof_H 	H 	0.4408	0.0884	0.0884	0.028
Mof_H 	H 	0.4502	0.1554	0.7997	0.027
Mof_H 	H 	0.205	0.2477	0.5499	0.063
Mof_H 	H 	0.9116	0.9116	0.5592	0.033
Mof_H 	H 	0.5	0.6244	0.8034	0.027
Mof_H 	H 	0.5499	0.205	0.2477	0.063
Mof_H 	H 	0.8446	0.5498	0.7997	0.029
Mof_H 	H 	0.2477	0.5499	0.205	0.063
Mof_H 	H 	0.9116	0.4408	0.9116	0.033
Mof_H 	H 	0.6849	0.3743	0.5	0.049
Mof_H 	H 	0.795	0.7523	0.5499	0.064
Mof_H 	H 	0.8034	0.6244	0.5	0.027
Mof_H 	H 	0.795	0.5499	0.2477	0.063
Mof_H 	H 	0.7997	0.8446	0.5498	0.029
Mof_H 	H 	0.1966	0.3756	0.5	0.026
Mof_H 	H 	0.5	0.308	0.1946	0.084
Mof_H 	H 	0.8632	0.4417	0.8632	0.073
Mof_H 	H 	0.5499	0.7523	0.795	0.064
Mof_H 	H 	0.795	0.2477	0.5499	0.063
Mof_H 	H 	0.6257	0.6849	0.5	0.049
Mof_H 	H 	0.5	0.8034	0.3756	0.027
Mof_H 	H 	0.4501	0.2477	0.205	0.063
Mof_H 	H 	0.7997	0.1554	0.4502	0.027
Mof_H 	H 	0.1554	0.4502	0.7997	0.027
Mof_H 	H 	0.9116	0.0884	0.4408	0.03
Mof_H 	H 	0.1946	0.5	0.692	0.085
Mof_H 	H 	0.5	0.1966	0.3756	0.026
Mof_H 	H 	0.6257	0.5	0.6849	0.049
Mof_H 	H 	0.6244	0.5	0.8034	0.027
Mof_H 	H 	0.4408	0.0884	0.9116	0.03
Mof_H 	H 	0.5	0.6244	0.1966	0.026
Mof_H 	H 	0.5	0.3756	0.8034	0.027
Mof_H 	H 	0.0884	0.9116	0.5592	0.031
Mof_H 	H 	0.1368	0.1368	0.5583	0.072
Mof_H 	H 	0.5583	0.1368	0.1368	0.072
Mof_H 	H 	0.8446	0.5498	0.2003	0.028
Mof_H 	H 	0.1554	0.7997	0.4502	0.027
Mof_H 	H 	0.4501	0.7523	0.795	0.064
Mof_H 	H 	0.5592	0.9116	0.9116	0.033
Mof_H 	H 	0.5592	0.0884	0.9116	0.031
Mof_H 	H 	0.4501	0.795	0.7523	0.064
Mof_H 	H 	0.5	0.692	0.1946	0.085
Mof_H 	H 	0.5498	0.7997	0.8446	0.029
Mof_H 	H 	0.2003	0.1554	0.5498	0.027
Mof_H 	H 	0.3151	0.3743	0.5	0.049
Mof_H 	H 	0.5	0.3743	0.6849	0.049
Mof_H 	H 	0.2477	0.205	0.4501	0.063
Mof_H 	H 	0.1554	0.4502	0.2003	0.027
Mof_H 	H 	0.795	0.7523	0.4501	0.064
Mof_H 	H 	0.2003	0.4502	0.8446	0.028
Mof_H 	H 	0.7997	0.5498	0.1554	0.028
Mof_H 	H 	0.1966	0.5	0.3756	0.026
Mof_H 	H 	0.9116	0.5592	0.0884	0.031
Mof_H 	H 	0.1368	0.8632	0.4417	0.072
Mof_H 	H 	0.205	0.5499	0.7523	0.063
Mof_H 	H 	0.1554	0.7997	0.5498	0.028
Mof_H 	H 	0.7523	0.4501	0.205	0.063
Mof_H 	H 	0.5	0.3151	0.6257	0.049
Mof_H 	H 	0.308	0.8054	0.5	0.085
Mof_H 	H 	0.5499	0.2477	0.205	0.063
Mof_H 	H 	0.6257	0.3151	0.5	0.049
Mof_H 	H 	0.1554	0.2003	0.4502	0.027
Mof_H 	H 	0.8446	0.4502	0.2003	0.028
Mof_H 	H 	0.7523	0.5499	0.205	0.063
Mof_H 	H 	0.2003	0.8446	0.4502	0.028
Mof_H 	H 	0.2477	0.4501	0.205	0.063
Mof_H 	H 	0.205	0.7523	0.5499	0.063
Mof_H 	H 	0.8632	0.4417	0.1368	0.072
Mof_H 	H 	0.8054	0.308	0.5	0.085
Mof_H 	H 	0.4417	0.1368	0.1368	0.072
Mof_H 	H 	0.4501	0.2477	0.795	0.063
Mof_H 	H 	0.5499	0.795	0.7523	0.064
Mof_H 	H 	0.692	0.1946	0.5	0.085
Mof_H 	H 	0.4502	0.7997	0.1554	0.027
Mof_H 	H 	0.6244	0.1966	0.5	0.026
Mof_H 	H 	0.9116	0.0884	0.5592	0.031
Mof_H 	H 	0.5	0.8054	0.308	0.085
Mof_H 	H 	0.7523	0.5499	0.795	0.064
Mof_H 	H 	0.3151	0.5	0.6257	0.049
Mof_H 	H 	0.1368	0.1368	0.4417	0.072
Mof_H 	H 	0.4501	0.205	0.7523	0.063
Mof_H 	H 	0.5498	0.2003	0.1554	0.027
Mof_H 	H 	0.3743	0.3151	0.5	0.049
Mof_H 	H 	0.7997	0.5498	0.8446	0.029
Mof_H 	H 	0.5	0.6257	0.6849	0.049
Mof_H 	H 	0.0884	0.5592	0.0884	0.028
Mof_H 	H 	0.7997	0.4502	0.8446	0.029
Mof_H 	H 	0.1368	0.4417	0.1368	0.072
Mof_H 	H 	0.205	0.7523	0.4501	0.063
Mof_H 	H 	0.2477	0.795	0.5499	0.063
Mof_H 	H 	0.5	0.3756	0.1966	0.026
Mof_H 	H 	0.3756	0.1966	0.5	0.026
Mof_H 	H 	0.7523	0.4501	0.795	0.064
Mof_H 	H 	0.4502	0.7997	0.8446	0.029
Mof_H 	H 	0.1966	0.6244	0.5	0.026
Mof_H 	H 	0.5583	0.8632	0.1368	0.072
Mof_H 	H 	0.5	0.1946	0.692	0.085
Mof_H 	H 	0.692	0.8054	0.5	0.086
Mof_H 	H 	0.7523	0.205	0.5499	0.063
Mof_H 	H 	0.8632	0.5583	0.1368	0.072
Mof_H 	H 	0.4417	0.8632	0.1368	0.072
Mof_H 	H 	0.5	0.308	0.8054	0.085
Mof_H 	H 	0.7997	0.4502	0.1554	0.027
Mof_H 	H 	0.6244	0.8034	0.5	0.027
Mof_H 	H 	0.2003	0.5498	0.1554	0.027
Mof_H 	H 	0.795	0.4501	0.2477	0.063
Mof_H 	H 	0.3151	0.6257	0.5	0.049
Mof_H 	H 	0.5	0.1946	0.308	0.084
Mof_H 	H 	0.0884	0.4408	0.0884	0.028
Mof_H 	H 	0.8446	0.2003	0.4502	0.028
Mof_H 	H 	0.5498	0.2003	0.8446	0.028
Mof_H 	H 	0.8632	0.1368	0.5583	0.072
Mof_H 	H 	0.9116	0.4408	0.0884	0.03
Mof_H 	H 	0.8054	0.5	0.308	0.085
Mof_H 	H 	0.2477	0.795	0.4501	0.063
Mof_H 	H 	0.4502	0.8446	0.7997	0.029
Mof_H 	H 	0.692	0.5	0.8054	0.086
Mof_H 	H 	0.2003	0.5498	0.8446	0.028
Mof_H 	H 	0.2477	0.205	0.5499	0.063
Mof_H 	H 	0.5498	0.1554	0.7997	0.028
Mof_H 	H 	0.1368	0.8632	0.5583	0.072
Mof_H 	H 	0.1554	0.5498	0.2003	0.027
Mof_H 	H 	0.8632	0.5583	0.8632	0.073
Mof_H 	H 	0.3743	0.6849	0.5	0.049
Mof_H 	H 	0.308	0.5	0.1946	0.084
Mof_H 	H 	0.5498	0.1554	0.2003	0.027
Mof_H 	H 	0.5	0.6849	0.6257	0.049
Mof_H 	H 	0.4502	0.8446	0.2003	0.028
Mof_H 	H 	0.6257	0.5	0.3151	0.049
Mof_H 	H 	0.3756	0.8034	0.5	0.027
Mof_H 	H 	0.8034	0.5	0.6244	0.027
Mof_H 	H 	0.4502	0.1554	0.2003	0.027
Mof_H 	H 	0.5	0.3743	0.3151	0.049
Mof_H 	H 	0.205	0.5499	0.2477	0.063
Mof_H 	H 	0.8446	0.7997	0.5498	0.029
Mof_H 	H 	0.692	0.5	0.1946	0.085
Mof_H 	H 	0.2477	0.4501	0.795	0.063
Mof_H 	H 	0.8446	0.7997	0.4502	0.029
Mof_H 	H 	0.205	0.2477	0.4501	0.063
Mof_H 	H 	0.5499	0.205	0.7523	0.063
Mof_H 	H 	0.8632	0.8632	0.5583	0.073
Mof_H 	H 	0.5	0.8034	0.6244	0.027
Mof_H 	H 	0.1368	0.5583	0.1368	0.072
Mof_H 	H 	0.6244	0.5	0.1966	0.026
Mof_H 	H 	0.5498	0.7997	0.1554	0.028
Mof_H 	H 	0.5592	0.0884	0.0884	0.028
Mof_H 	H 	0.5499	0.2477	0.795	0.063
Mof_H 	H 	0.5583	0.1368	0.8632	0.072
Mof_H 	H 	0.795	0.2477	0.4501	0.063
Mof_H 	H 	0.5	0.692	0.8054	0.086
Mof_H 	H 	0.8034	0.3756	0.5	0.027
Mof_H 	H 	0.8632	0.8632	0.4417	0.073
Mof_H 	H 	0.5	0.1966	0.6244	0.026
Mof_H 	H 	0.4408	0.9116	0.9116	0.033
Mof_H 	H 	0.1554	0.2003	0.5498	0.027
Mof_H 	H 	0.4502	0.2003	0.1554	0.027
Mof_H 	H 	0.2003	0.8446	0.5498	0.028
Mof_H 	H 	0.7997	0.1554	0.5498	0.028
Mof_H 	H 	0.0884	0.4408	0.9116	0.03
Mof_H 	H 	0.4501	0.205	0.2477	0.063
Mof_H 	H 	0.308	0.5	0.8054	0.085
Mof_H 	H 	0.5583	0.8632	0.8632	0.073
Mof_H 	H 	0.5498	0.8446	0.7997	0.029
Mof_H 	H 	0.8446	0.4502	0.7997	0.029
Mof_H 	H 	0.4408	0.9116	0.0884	0.03
Mof_H 	H 	0.5	0.6849	0.3743	0.049
Mof_H 	H 	0.308	0.1946	0.5	0.084
Mof_H 	H 	0.1368	0.4417	0.8632	0.072
Mof_H 	H 	0.7523	0.795	0.5499	0.064
Mof_H 	H 	0.3743	0.5	0.6849	0.049
Mof_H 	H 	0.205	0.4501	0.2477	0.063
Mof_H 	H 	0.205	0.4501	0.7523	0.063
Mof_H 	H 	0.1368	0.5583	0.8632	0.072
Mof_H 	H 	0.0884	0.5592	0.9116	0.031
Mof_H 	H 	0.6849	0.5	0.3743	0.049
Mof_H 	H 	0.8632	0.1368	0.4417	0.072
Mof_H 	H 	0.6849	0.5	0.6257	0.049
Mof_H 	H 	0.4501	0.7523	0.205	0.063
Mof_H 	H 	0.2003	0.1554	0.4502	0.027
Mof_H 	H 	0.4501	0.795	0.2477	0.063
Mof_H 	H 	0.5592	0.9116	0.0884	0.031
Mof_H 	H 	0.3151	0.5	0.3743	0.049
Mof_H 	H 	0.4417	0.8632	0.8632	0.073
Mof_H 	H 	0.1946	0.308	0.5	0.084
Mof_H 	H 	0.795	0.4501	0.7523	0.064
Mof_H 	H 	0.7523	0.205	0.4501	0.063
Mof_H 	H 	0.3743	0.5	0.3151	0.049
Mof_H 	H 	0.3756	0.5	0.1966	0.026
Mof_H 	H 	0.8054	0.692	0.5	0.086
Mof_H 	H 	0.8446	0.2003	0.5498	0.028
Mof_H 	H 	0.9116	0.9116	0.4408	0.033
Mof_H 	H 	0.5499	0.7523	0.205	0.063
Mof_H 	H 	0.5	0.3151	0.3743	0.049
Mof_H 	H 	0.0884	0.0884	0.4408	0.028
Mof_H 	H 	0.5	0.6257	0.3151	0.049
Mof_H 	H 	0.0884	0.0884	0.5592	0.028
Mof_H 	H 	0.5	0.8054	0.692	0.086
Mof_H 	H 	0.7997	0.8446	0.4502	0.029
Mof_H 	H 	0.4502	0.2003	0.8446	0.028
Mof_H 	H 	0.1966	0.5	0.6244	0.026
Mof_H 	H 	0.7523	0.795	0.4501	0.064
Mof_H 	H 	0.2477	0.5499	0.795	0.063
Mof_H 	H 	0.2003	0.4502	0.1554	0.027
Mof_H 	H 	0.0884	0.9116	0.4408	0.03
Mof_H 	H 	0.5499	0.795	0.2477	0.063
Mof_H 	H 	0.795	0.5499	0.7523	0.064
Mof_H 	H 	0.5498	0.8446	0.2003	0.028
Mof_H 	H 	0.8034	0.5	0.3756	0.027
Mof_H 	H 	0.3756	0.5	0.8034	0.027
Mof_H 	H 	0.4417	0.1368	0.8632	0.072
Mof_H 	H 	0.9116	0.5592	0.9116	0.033
Mof_H 	H 	0.6849	0.6257	0.5	0.049
Mof_C 	C 	0.23042	0.76958	0.5	0.16
Mof_C 	C 	0.52962	0.22935	0.79632	-0.092
Mof_C 	C 	0.78139	0.5	0.67879	-0.152
Mof_C 	C 	0.52977	0.79934	0.82588	-0.004
Mof_C 	C 	0.78139	0.32121	0.5	-0.152
Mof_C 	C 	0.17412	0.79934	0.47023	-0.004
Mof_C 	C 	0.67879	0.78139	0.5	-0.152
Mof_C 	C 	0.76958	0.5	0.76958	0.16
Mof_C 	C 	0.52962	0.77065	0.20368	-0.092
Mof_C 	C 	0.5	0.22005	0.63859	0.054
Mof_C 	C 	0.25621	0.5	0.57439	0.362
Mof_C 	C 	0.23042	0.23042	0.5	0.161
Mof_C 	C 	0.52977	0.82588	0.20066	-0.004
Mof_C 	C 	0.94784	0.94784	0.5	0.345
Mof_C 	C 	0.87291	0.53461	0.12709	-0.127
Mof_C 	C 	0.22005	0.5	0.36141	0.054
Mof_C 	C 	0.17273	0.82727	0.5	-0.039
Mof_C 	C 	0.74381	0.61808	0.5	-0.105
Mof_C 	C 	0.20066	0.17412	0.52977	-0.003
Mof_C 	C 	0.5	0.29117	0.36101	0.001
Mof_C 	C 	0.5	0.05216	0.05216	0.346
Mof_C 	C 	0.77065	0.47038	0.79632	-0.092
Mof_C 	C 	0.12709	0.53461	0.12709	-0.129
Mof_C 	C 	0.47023	0.79934	0.17412	-0.004
Mof_C 	C 	0.20066	0.47023	0.17412	-0.003
Mof_C 	C 	0.36101	0.5	0.29117	0.001
Mof_C 	C 	0.52962	0.20368	0.22935	-0.092
Mof_C 	C 	0.38192	0.5	0.25619	-0.106
Mof_C 	C 	0.47023	0.17412	0.20066	-0.003
Mof_C 	C 	0.85836	0.5	0.14164	0.077
Mof_C 	C 	0.05216	0.5	0.94784	0.345
Mof_C 	C 	0.77065	0.79632	0.47038	-0.092
Mof_C 	C 	0.5	0.22005	0.36141	0.054
Mof_C 	C 	0.79934	0.17412	0.52977	-0.004
Mof_C 	C 	0.29117	0.5	0.36101	0.001
Mof_C 	C 	0.5	0.29047	0.67954	-0.029
Mof_C 	C 	0.5	0.25361	0.69929	0.108
Mof_C 	C 	0.5	0.36141	0.77995	0.054
Mof_C 	C 	0.63899	0.29117	0.5	0.001
Mof_C 	C 	0.79934	0.82588	0.47023	-0.004
Mof_C 	C 	0.17273	0.5	0.82727	-0.039
Mof_C 	C 	0.78139	0.5	0.32121	-0.152
Mof_C 	C 	0.09793	0.09793	0.46456	0.043
Mof_C 	C 	0.5	0.82727	0.82727	-0.038
Mof_C 	C 	0.94784	0.05216	0.5	0.345
Mof_C 	C 	0.20368	0.22935	0.47038	-0.092
Mof_C 	C 	0.38192	0.25619	0.5	-0.106
Mof_C 	C 	0.5	0.25621	0.42561	0.362
Mof_C 	C 	0.77065	0.52962	0.79632	-0.092
Mof_C 	C 	0.22935	0.52962	0.79632	-0.092
Mof_C 	C 	0.63899	0.70883	0.5	0.001
Mof_C 	C 	0.22935	0.20368	0.47038	-0.092
Mof_C 	C 	0.61808	0.74381	0.5	-0.105
Mof_C 	C 	0.22005	0.63859	0.5	0.054
Mof_C 	C 	0.42561	0.74379	0.5	0.362
Mof_C 	C 	0.23042	0.5	0.76958	0.16
Mof_C 	C 	0.79632	0.22935	0.52962	-0.092
Mof_C 	C 	0.5	0.70883	0.63899	0.001
Mof_C 	C 	0.5	0.74639	0.69929	0.108
Mof_C 	C 	0.5	0.36101	0.29117	0.001
Mof_C 	C 	0.74379	0.42561	0.5	0.362
Mof_C 	C 	0.52977	0.17412	0.20066	-0.003
Mof_C 	C 	0.05216	0.94784	0.5	0.345
Mof_C 	C 	0.5	0.08375	0.91625	-0.103
Mof_C 	C 	0.12709	0.53461	0.87291	-0.127
Mof_C 	C 	0.32046	0.5	0.29047	-0.029
Mof_C 	C 	0.25619	0.38192	0.5	-0.106
Mof_C 	C 	0.14164	0.85836	0.5	0.077
Mof_C 	C 	0.67954	0.70953	0.5	-0.028
Mof_C 	C 	0.5	0.25621	0.57439	0.362
Mof_C 	C 	0.20368	0.47038	0.77065	-0.092
Mof_C 	C 	0.5	0.32121	0.78139	-0.152
Mof_C 	C 	0.36141	0.77995	0.5	0.054
Mof_C 	C 	0.90207	0.46456	0.09793	0.042
Mof_C 	C 	0.53544	0.90207	0.90207	0.041
Mof_C 	C 	0.69929	0.74639	0.5	0.108
Mof_C 	C 	0.5	0.74381	0.38192	-0.105
Mof_C 	C 	0.82727	0.17273	0.5	-0.039
Mof_C 	C 	0.22935	0.20368	0.52962	-0.092
Mof_C 	C 	0.17412	0.47023	0.20066	-0.003
Mof_C 	C 	0.5	0.21861	0.67879	-0.152
Mof_C 	C 	0.70883	0.36101	0.5	0.001
Mof_C 	C 	0.36141	0.5	0.77995	0.054
Mof_C 	C 	0.29117	0.5	0.63899	0.001
Mof_C 	C 	0.74639	0.69929	0.5	0.108
Mof_C 	C 	0.25361	0.5	0.30071	0.107
Mof_C 	C 	0.5	0.36141	0.22005	0.054
Mof_C 	C 	0.25619	0.61808	0.5	-0.106
Mof_C 	C 	0.63859	0.77995	0.5	0.054
Mof_C 	C 	0.91625	0.5	0.91625	-0.1
Mof_C 	C 	0.53544	0.09793	0.90207	0.042
Mof_C 	C 	0.22935	0.52962	0.20368	-0.092
Mof_C 	C 	0.5	0.57439	0.25621	0.362
Mof_C 	C 	0.09793	0.46456	0.09793	0.043
Mof_C 	C 	0.20066	0.17412	0.47023	-0.003
Mof_C 	C 	0.32121	0.21861	0.5	-0.152
Mof_C 	C 	0.09793	0.90207	0.46456	0.042
Mof_C 	C 	0.46456	0.09793	0.90207	0.042
Mof_C 	C 	0.57439	0.5	0.74379	0.362
Mof_C 	C 	0.5	0.23042	0.23042	0.161
Mof_C 	C 	0.67879	0.21861	0.5	-0.152
Mof_C 	C 	0.5	0.82727	0.17273	-0.039
Mof_C 	C 	0.52962	0.79632	0.22935	-0.092
Mof_C 	C 	0.82588	0.20066	0.47023	-0.004
Mof_C 	C 	0.5	0.94784	0.05216	0.345
Mof_C 	C 	0.82727	0.82727	0.5	-0.038
Mof_C 	C 	0.47038	0.77065	0.20368	-0.092
Mof_C 	C 	0.90207	0.53544	0.90207	0.041
Mof_C 	C 	0.79632	0.47038	0.22935	-0.092
Mof_C 	C 	0.77065	0.20368	0.52962	-0.092
Mof_C 	C 	0.5	0.67879	0.21861	-0.152
Mof_C 	C 	0.82588	0.79934	0.47023	-0.004
Mof_C 	C 	0.5	0.70883	0.36101	0.001
Mof_C 	C 	0.17412	0.52977	0.20066	-0.003
Mof_C 	C 	0.5	0.67879	0.78139	-0.152
Mof_C 	C 	0.09793	0.09793	0.53544	0.043
Mof_C 	C 	0.77065	0.52962	0.20368	-0.092
Mof_C 	C 	0.46539	0.87291	0.12709	-0.127
Mof_C 	C 	0.5	0.30071	0.25361	0.107
Mof_C 	C 	0.47023	0.20066	0.82588	-0.004
Mof_C 	C 	0.74379	0.57439	0.5	0.362
Mof_C 	C 	0.87291	0.46539	0.12709	-0.127
Mof_C 	C 	0.82588	0.52977	0.79934	-0.004
Mof_C 	C 	0.79632	0.77065	0.47038	-0.092
Mof_C 	C 	0.77065	0.47038	0.20368	-0.092
Mof_C 	C 	0.52977	0.20066	0.82588	-0.004
Mof_C 	C 	0.77065	0.20368	0.47038	-0.092
Mof_C 	C 	0.5	0.63899	0.70883	0.001
Mof_C 	C 	0.20368	0.52962	0.22935	-0.092
Mof_C 	C 	0.94784	0.5	0.05216	0.345
Mof_C 	C 	0.32121	0.5	0.21861	-0.152
Mof_C 	C 	0.32121	0.78139	0.5	-0.152
Mof_C 	C 	0.5	0.38192	0.74381	-0.105
Mof_C 	C 	0.87291	0.87291	0.46539	-0.125
Mof_C 	C 	0.36101	0.70883	0.5	0.001
Mof_C 	C 	0.67954	0.29047	0.5	-0.029
Mof_C 	C 	0.90207	0.90207	0.53544	0.041
Mof_C 	C 	0.5	0.63859	0.77995	0.054
Mof_C 	C 	0.5	0.70953	0.67954	-0.028
Mof_C 	C 	0.47023	0.17412	0.79934	-0.004
Mof_C 	C 	0.5	0.67954	0.70953	-0.028
Mof_C 	C 	0.5	0.67954	0.29047	-0.029
Mof_C 	C 	0.79632	0.77065	0.52962	-0.092
Mof_C 	C 	0.82588	0.52977	0.20066	-0.004
Mof_C 	C 	0.79934	0.52977	0.17412	-0.004
Mof_C 	C 	0.25361	0.5	0.69929	0.108
Mof_C 	C 	0.5	0.57439	0.74379	0.362
Mof_C 	C 	0.29117	0.36101	0.5	0.001
Mof_C 	C 	0.61808	0.5	0.25619	-0.106
Mof_C 	C 	0.12709	0.12709	0.46539	-0.129
Mof_C 	C 	0.53544	0.90207	0.09793	0.042
Mof_C 	C 	0.47038	0.79632	0.77065	-0.092
Mof_C 	C 	0.5	0.78139	0.67879	-0.152
Mof_C 	C 	0.5	0.85836	0.14164	0.077
Mof_C 	C 	0.25621	0.42561	0.5	0.362
Mof_C 	C 	0.23042	0.5	0.23042	0.161
Mof_C 	C 	0.20066	0.82588	0.47023	-0.004
Mof_C 	C 	0.53461	0.12709	0.87291	-0.127
Mof_C 	C 	0.17412	0.52977	0.79934	-0.004
Mof_C 	C 	0.36101	0.5	0.70883	0.001
Mof_C 	C 	0.69929	0.25361	0.5	0.108
Mof_C 	C 	0.5	0.91625	0.08375	-0.103
Mof_C 	C 	0.42561	0.25621	0.5	0.362
Mof_C 	C 	0.47023	0.79934	0.82588	-0.004
Mof_C 	C 	0.79632	0.52962	0.22935	-0.092
Mof_C 	C 	0.20368	0.77065	0.47038	-0.092
Mof_C 	C 	0.47038	0.20368	0.22935	-0.092
Mof_C 	C 	0.20066	0.47023	0.82588	-0.004
Mof_C 	C 	0.87291	0.53461	0.87291	-0.125
Mof_C 	C 	0.79934	0.47023	0.17412	-0.004
Mof_C 	C 	0.91625	0.08375	0.5	-0.103
Mof_C 	C 	0.67954	0.5	0.70953	-0.028
Mof_C 	C 	0.47023	0.82588	0.20066	-0.004
Mof_C 	C 	0.5	0.29047	0.32046	-0.029
Mof_C 	C 	0.5	0.74381	0.61808	-0.105
Mof_C 	C 	0.42561	0.5	0.25621	0.362
Mof_C 	C 	0.47038	0.20368	0.77065	-0.092
Mof_C 	C 	0.12709	0.87291	0.53461	-0.127
Mof_C 	C 	0.12709	0.46539	0.87291	-0.127
Mof_C 	C 	0.5	0.25619	0.61808	-0.106
Mof_C 	C 	0.20368	0.52962	0.77065	-0.092
Mof_C 	C 	0.32046	0.5	0.70953	-0.029
Mof_C 	C 	0.77995	0.63859	0.5	0.054
Mof_C 	C 	0.29117	0.63899	0.5	0.001
Mof_C 	C 	0.70883	0.5	0.63899	0.001
Mof_C 	C 	0.22935	0.79632	0.47038	-0.092
Mof_C 	C 	0.08375	0.5	0.08375	-0.107
Mof_C 	C 	0.5	0.36101	0.70883	0.001
Mof_C 	C 	0.25621	0.57439	0.5	0.362
Mof_C 	C 	0.21861	0.67879	0.5	-0.152
Mof_C 	C 	0.52977	0.20066	0.17412	-0.003
Mof_C 	C 	0.67879	0.5	0.21861	-0.152
Mof_C 	C 	0.5	0.14164	0.85836	0.077
Mof_C 	C 	0.91625	0.5	0.08375	-0.103
Mof_C 	C 	0.17412	0.20066	0.52977	-0.003
Mof_C 	C 	0.67954	0.5	0.29047	-0.029
Mof_C 	C 	0.5	0.42561	0.25621	0.362
Mof_C 	C 	0.53461	0.87291	0.12709	-0.127
Mof_C 	C 	0.74381	0.38192	0.5	-0.105
Mof_C 	C 	0.21861	0.5	0.67879	-0.152
Mof_C 	C 	0.67879	0.5	0.78139	-0.152
Mof_C 	C 	0.5	0.29117	0.63899	0.001
Mof_C 	C 	0.5	0.69929	0.74639	0.108
Mof_C 	C 	0.52962	0.77065	0.79632	-0.092
Mof_C 	C 	0.5	0.74379	0.57439	0.362
Mof_C 	C 	0.74381	0.5	0.38192	-0.105
Mof_C 	C 	0.52962	0.20368	0.77065	-0.092
Mof_C 	C 	0.5	0.76958	0.23042	0.16
Mof_C 	C 	0.36141	0.22005	0.5	0.054
Mof_C 	C 	0.46539	0.12709	0.87291	-0.127
Mof_C 	C 	0.5	0.23042	0.76958	0.16
Mof_C 	C 	0.77995	0.5	0.36141	0.054
Mof_C 	C 	0.5	0.14164	0.14164	0.078
Mof_C 	C 	0.05216	0.5	0.05216	0.346
Mof_C 	C 	0.21861	0.5	0.32121	-0.152
Mof_C 	C 	0.63899	0.5	0.70883	0.001
Mof_C 	C 	0.5	0.61808	0.74381	-0.105
Mof_C 	C 	0.52977	0.17412	0.79934	-0.004
Mof_C 	C 	0.29047	0.5	0.67954	-0.029
Mof_C 	C 	0.5	0.08375	0.08375	-0.107
Mof_C 	C 	0.57439	0.5	0.25621	0.362
Mof_C 	C 	0.52962	0.22935	0.20368	-0.092
Mof_C 	C 	0.90207	0.90207	0.46456	0.041
Mof_C 	C 	0.82727	0.5	0.17273	-0.039
Mof_C 	C 	0.09793	0.90207	0.53544	0.042
Mof_C 	C 	0.82588	0.20066	0.52977	-0.004
Mof_C 	C 	0.79934	0.47023	0.82588	-0.004
Mof_C 	C 	0.47038	0.22935	0.20368	-0.092
Mof_C 	C 	0.17412	0.20066	0.47023	-0.003
Mof_C 	C 	0.57439	0.25621	0.5	0.362
Mof_C 	C 	0.79934	0.52977	0.82588	-0.004
Mof_C 	C 	0.47023	0.82588	0.79934	-0.004
Mof_C 	C 	0.5	0.94784	0.94784	0.345
Mof_C 	C 	0.38192	0.74381	0.5	-0.105
Mof_C 	C 	0.5	0.91625	0.91625	-0.1
Mof_C 	C 	0.5	0.30071	0.74639	0.108
Mof_C 	C 	0.63859	0.22005	0.5	0.054
Mof_C 	C 	0.82588	0.47023	0.79934	-0.004
Mof_C 	C 	0.70953	0.32046	0.5	-0.029
Mof_C 	C 	0.42561	0.5	0.74379	0.362
Mof_C 	C 	0.76958	0.23042	0.5	0.16
Mof_C 	C 	0.5	0.42561	0.74379	0.362
Mof_C 	C 	0.5	0.74379	0.42561	0.362
Mof_C 	C 	0.74379	0.5	0.57439	0.362
Mof_C 	C 	0.47038	0.79632	0.22935	-0.092
Mof_C 	C 	0.46539	0.12709	0.12709	-0.129
Mof_C 	C 	0.53461	0.87291	0.87291	-0.125
Mof_C 	C 	0.77995	0.5	0.63859	0.054
Mof_C 	C 	0.5	0.63899	0.29117	0.001
Mof_C 	C 	0.5	0.25619	0.38192	-0.106
Mof_C 	C 	0.5	0.78139	0.32121	-0.152
Mof_C 	C 	0.70883	0.5	0.36101	0.001
Mof_C 	C 	0.08375	0.91625	0.5	-0.103
Mof_C 	C 	0.5	0.17273	0.17273	-0.04
Mof_C 	C 	0.74379	0.5	0.42561	0.362
Mof_C 	C 	0.76958	0.76958	0.5	0.16
Mof_C 	C 	0.91625	0.91625	0.5	-0.1
Mof_C 	C 	0.30071	0.5	0.74639	0.108
Mof_C 	C 	0.08375	0.5	0.91625	-0.103
Mof_C 	C 	0.20066	0.52977	0.82588	-0.004
Mof_C 	C 	0.22935	0.47038	0.20368	-0.092
Mof_C 	C 	0.70953	0.5	0.67954	-0.028
Mof_C 	C 	0.47023	0.20066	0.17412	-0.003
Mof_C 	C 	0.38192	0.5	0.74381	-0.105
Mof_C 	C 	0.29047	0.67954	0.5	-0.029
Mof_C 	C 	0.5	0.85836	0.85836	0.076
Mof_C 	C 	0.46456	0.09793	0.09793	0.043
Mof_C 	C 	0.52977	0.82588	0.79934	-0.004
Mof_C 	C 	0.46456	0.90207	0.90207	0.041
Mof_C 	C 	0.74639	0.5	0.69929	0.108
Mof_C 	C 	0.87291	0.46539	0.87291	-0.125
Mof_C 	C 	0.90207	0.09793	0.53544	0.042
Mof_C 	C 	0.20066	0.82588	0.52977	-0.004
Mof_C 	C 	0.5	0.38192	0.25619	-0.106
Mof_C 	C 	0.20368	0.47038	0.22935	-0.092
Mof_C 	C 	0.46456	0.90207	0.09793	0.042
Mof_C 	C 	0.61808	0.25619	0.5	-0.106
Mof_C 	C 	0.46539	0.87291	0.87291	-0.125
Mof_C 	C 	0.63899	0.5	0.29117	0.001
Mof_C 	C 	0.85836	0.14164	0.5	0.077
Mof_C 	C 	0.22005	0.5	0.63859	0.054
Mof_C 	C 	0.82727	0.5	0.82727	-0.038
Mof_C 	C 	0.85836	0.85836	0.5	0.076
Mof_C 	C 	0.5	0.32121	0.21861	-0.152
Mof_C 	C 	0.36141	0.5	0.22005	0.054
Mof_C 	C 	0.78139	0.67879	0.5	-0.152
Mof_C 	C 	0.90207	0.53544	0.09793	0.042
Mof_C 	C 	0.5	0.05216	0.94784	0.345
Mof_C 	C 	0.5	0.76958	0.76958	0.16
Mof_C 	C 	0.63859	0.5	0.77995	0.054
Mof_C 	C 	0.5	0.70953	0.32046	-0.029
Mof_C 	C 	0.90207	0.09793	0.46456	0.042
Mof_C 	C 	0.36101	0.29117	0.5	0.001
Mof_C 	C 	0.53461	0.12709	0.12709	-0.129
Mof_C 	C 	0.25361	0.30071	0.5	0.107
Mof_C 	C 	0.53544	0.09793	0.09793	0.043
Mof_C 	C 	0.30071	0.74639	0.5	0.108
Mof_C 	C 	0.17412	0.47023	0.79934	-0.004
Mof_C 	C 	0.25619	0.5	0.61808	-0.106
Mof_C 	C 	0.20368	0.22935	0.52962	-0.092
Mof_C 	C 	0.79934	0.17412	0.47023	-0.004
Mof_C 	C 	0.09793	0.53544	0.90207	0.042
Mof_C 	C 	0.76958	0.5	0.23042	0.16
Mof_C 	C 	0.17273	0.5	0.17273	-0.04
Mof_C 	C 	0.87291	0.12709	0.46539	-0.127
Mof_C 	C 	0.32046	0.70953	0.5	-0.029
Mof_C 	C 	0.82588	0.79934	0.52977	-0.004
Mof_C 	C 	0.22935	0.79632	0.52962	-0.092
Mof_C 	C 	0.22935	0.47038	0.79632	-0.092
Mof_C 	C 	0.5	0.32046	0.29047	-0.029
Mof_C 	C 	0.77065	0.79632	0.52962	-0.092
Mof_C 	C 	0.5	0.74639	0.30071	0.108
Mof_C 	C 	0.79632	0.22935	0.47038	-0.092
Mof_C 	C 	0.70883	0.63899	0.5	0.001
Mof_C 	C 	0.5	0.32046	0.70953	-0.029
Mof_C 	C 	0.32046	0.29047	0.5	-0.029
Mof_C 	C 	0.47038	0.22935	0.79632	-0.092
Mof_C 	C 	0.63859	0.5	0.22005	0.054
Mof_C 	C 	0.87291	0.12709	0.53461	-0.127
Mof_C 	C 	0.17273	0.17273	0.5	-0.04
Mof_C 	C 	0.20368	0.77065	0.52962	-0.092
Mof_C 	C 	0.79632	0.52962	0.77065	-0.092
Mof_C 	C 	0.29047	0.32046	0.5	-0.029
Mof_C 	C 	0.74381	0.5	0.61808	-0.105
Mof_C 	C 	0.12709	0.12709	0.53461	-0.129
Mof_C 	C 	0.90207	0.46456	0.90207	0.041
Mof_C 	C 	0.32121	0.5	0.78139	-0.152
Mof_C 	C 	0.17412	0.79934	0.52977	-0.004
Mof_C 	C 	0.57439	0.74379	0.5	0.362
Mof_C 	C 	0.79632	0.47038	0.77065	-0.092
Mof_C 	C 	0.5	0.77995	0.36141	0.054
Mof_C 	C 	0.52977	0.79934	0.17412	-0.004
Mof_C 	C 	0.70953	0.5	0.32046	-0.029
Mof_C 	C 	0.5	0.69929	0.25361	0.108
Mof_C 	C 	0.12709	0.87291	0.46539	-0.127
Mof_C 	C 	0.09793	0.46456	0.90207	0.042
Mof_C 	C 	0.85836	0.5	0.85836	0.076
Mof_C 	C 	0.09793	0.53544	0.09793	0.043
Mof_C 	C 	0.5	0.21861	0.32121	-0.152
Mof_C 	C 	0.29047	0.5	0.32046	-0.029
Mof_C 	C 	0.5	0.61808	0.25619	-0.106
Mof_C 	C 	0.08375	0.08375	0.5	-0.107
Mof_C 	C 	0.69929	0.5	0.25361	0.108
Mof_C 	C 	0.74639	0.5	0.30071	0.108
Mof_C 	C 	0.14164	0.5	0.14164	0.078
Mof_C 	C 	0.5	0.17273	0.82727	-0.039
Mof_C 	C 	0.14164	0.5	0.85836	0.077
Mof_C 	C 	0.30071	0.5	0.25361	0.107
Mof_C 	C 	0.12709	0.46539	0.12709	-0.129
Mof_C 	C 	0.5	0.77995	0.63859	0.054
Mof_C 	C 	0.87291	0.87291	0.53461	-0.125
Mof_C 	C 	0.22005	0.36141	0.5	0.054
Mof_C 	C 	0.69929	0.5	0.74639	0.108
Mof_C 	C 	0.21861	0.32121	0.5	-0.152
Mof_C 	C 	0.94784	0.5	0.94784	0.345
Mof_C 	C 	0.77995	0.36141	0.5	0.054
Mof_C 	C 	0.25361	0.69929	0.5	0.108
Mof_C 	C 	0.82588	0.47023	0.20066	-0.004
Mof_C 	C 	0.20066	0.52977	0.17412	-0.003
Mof_C 	C 	0.25619	0.5	0.38192	-0.106
Mof_C 	C 	0.30071	0.25361	0.5	0.107
Mof_C 	C 	0.05216	0.05216	0.5	0.346
Mof_C 	C 	0.79934	0.82588	0.52977	-0.004
Mof_C 	C 	0.74639	0.30071	0.5	0.108
Mof_C 	C 	0.70953	0.67954	0.5	-0.028
Mof_C 	C 	0.5	0.25361	0.30071	0.107
Mof_C 	C 	0.25621	0.5	0.42561	0.362
Mof_C 	C 	0.52962	0.79632	0.77065	-0.092
Mof_C 	C 	0.47038	0.77065	0.79632	-0.092
Mof_C 	C 	0.5	0.63859	0.22005	0.054
Mof_C 	C 	0.14164	0.14164	0.5	0.078
Mof_C 	C 	0.61808	0.5	0.74381	-0.105
Mof_N 	N 	0.73948	0.5	0.26052	-0.171
Mof_N 	N 	0.5	0.26052	0.26052	-0.171
Mof_N 	N 	0.26052	0.5	0.26052	-0.171
Mof_N 	N 	0.73948	0.73948	0.5	-0.17
Mof_N 	N 	0.26052	0.26052	0.5	-0.171
Mof_N 	N 	0.5	0.73948	0.26052	-0.171
Mof_N 	N 	0.26052	0.5	0.73948	-0.171
Mof_N 	N 	0.26052	0.73948	0.5	-0.171
Mof_N 	N 	0.5	0.26052	0.73948	-0.171
Mof_N 	N 	0.73948	0.5	0.73948	-0.17
Mof_N 	N 	0.5	0.73948	0.73948	-0.17
Mof_N 	N 	0.73948	0.26052	0.5	-0.171
Mof_O 	O 	0.44266	0.77665	0.5	-0.409
Mof_O 	O 	0.5	0.28931	0.4426	-0.406
Mof_O 	O 	0.53355	0.95935	0.04065	-0.401
Mof_O 	O 	0.71069	0.4426	0.5	-0.406
Mof_O 	O 	0.46645	0.04065	0.04065	-0.409
Mof_O 	O 	0.46645	0.95935	0.04065	-0.402
Mof_O 	O 	0.46645	0.04065	0.95935	-0.402
Mof_O 	O 	0.95935	0.46645	0.95935	-0.395
Mof_O 	O 	0.55734	0.22335	0.5	-0.41
Mof_O 	O 	0.5574	0.71069	0.5	-0.406
Mof_O 	O 	0.95935	0.95935	0.53355	-0.395
Mof_O 	O 	0.04065	0.95935	0.53355	-0.401
Mof_O 	O 	0.55734	0.5	0.22335	-0.41
Mof_O 	O 	0.53355	0.04065	0.04065	-0.408
Mof_O 	O 	0.04065	0.53355	0.04065	-0.408
Mof_O 	O 	0.71069	0.5	0.4426	-0.406
Mof_O 	O 	0.95935	0.04065	0.53355	-0.401
Mof_O 	O 	0.22335	0.5	0.55734	-0.41
Mof_O 	O 	0.28931	0.4426	0.5	-0.406
Mof_O 	O 	0.77665	0.5	0.44266	-0.409
Mof_O 	O 	0.5	0.55734	0.22335	-0.41
Mof_O 	O 	0.22335	0.5	0.44266	-0.41
Mof_O 	O 	0.5	0.71069	0.5574	-0.406
Mof_O 	O 	0.44266	0.22335	0.5	-0.41
Mof_O 	O 	0.5574	0.28931	0.5	-0.406
Mof_O 	O 	0.04065	0.46645	0.04065	-0.409
Mof_O 	O 	0.28931	0.5	0.4426	-0.406
Mof_O 	O 	0.5	0.5574	0.71069	-0.406
Mof_O 	O 	0.44266	0.5	0.77665	-0.409
Mof_O 	O 	0.95935	0.53355	0.95935	-0.395
Mof_O 	O 	0.4426	0.71069	0.5	-0.406
Mof_O 	O 	0.95935	0.04065	0.46645	-0.402
Mof_O 	O 	0.28931	0.5574	0.5	-0.406
Mof_O 	O 	0.55734	0.77665	0.5	-0.409
Mof_O 	O 	0.95935	0.46645	0.04065	-0.402
Mof_O 	O 	0.77665	0.5	0.55734	-0.409
Mof_O 	O 	0.04065	0.95935	0.46645	-0.402
Mof_O 	O 	0.5	0.44266	0.77665	-0.409
Mof_O 	O 	0.71069	0.5574	0.5	-0.406
Mof_O 	O 	0.04065	0.04065	0.53355	-0.408
Mof_O 	O 	0.53355	0.95935	0.95935	-0.395
Mof_O 	O 	0.5	0.77665	0.44266	-0.409
Mof_O 	O 	0.5	0.4426	0.28931	-0.406
Mof_O 	O 	0.46645	0.95935	0.95935	-0.395
Mof_O 	O 	0.55734	0.5	0.77665	-0.409
Mof_O 	O 	0.5	0.28931	0.5574	-0.406
Mof_O 	O 	0.5	0.77665	0.55734	-0.409
Mof_O 	O 	0.4426	0.5	0.71069	-0.406
Mof_O 	O 	0.04065	0.04065	0.46645	-0.409
Mof_O 	O 	0.5	0.5574	0.28931	-0.406
Mof_O 	O 	0.22335	0.55734	0.5	-0.41
Mof_O 	O 	0.5	0.4426	0.71069	-0.406
Mof_O 	O 	0.28931	0.5	0.5574	-0.406
Mof_O 	O 	0.77665	0.55734	0.5	-0.409
Mof_O 	O 	0.95935	0.53355	0.04065	-0.401
Mof_O 	O 	0.5	0.55734	0.77665	-0.409
Mof_O 	O 	0.5574	0.5	0.71069	-0.406
Mof_O 	O 	0.04065	0.46645	0.95935	-0.402
Mof_O 	O 	0.5	0.71069	0.4426	-0.406
Mof_O 	O 	0.44266	0.5	0.22335	-0.41
Mof_O 	O 	0.71069	0.5	0.5574	-0.406
Mof_O 	O 	0.4426	0.28931	0.5	-0.406
Mof_O 	O 	0.53355	0.04065	0.95935	-0.401
Mof_O 	O 	0.95935	0.95935	0.46645	-0.395
Mof_O 	O 	0.4426	0.5	0.28931	-0.406
Mof_O 	O 	0.5	0.22335	0.55734	-0.41
Mof_O 	O 	0.5574	0.5	0.28931	-0.406
Mof_O 	O 	0.04065	0.53355	0.95935	-0.401
Mof_O 	O 	0.77665	0.44266	0.5	-0.409
Mof_O 	O 	0.5	0.44266	0.22335	-0.41
Mof_O 	O 	0.5	0.22335	0.44266	-0.41
Mof_O 	O 	0.22335	0.44266	0.5	-0.41
_end
