data_functionalizedCrystal
_audit_creation_method	'EQeq! by Chris Wilmer'
_symmetry_space_group_name_H-M	'P1'
_symmetry_Int_Tables_number	1
_symmetry_cell_setting	triclinic
loop_
_symmetry_equiv_pos_as_xyz
  x,y,z
_cell_length_a	12.6947
_cell_length_b	12.6947
_cell_length_c	17.833
_cell_angle_alpha	90
_cell_angle_beta	90
_cell_angle_gamma	120
loop_
_atom_site_label
_atom_site_type_symbol
_atom_site_fract_x
_atom_site_fract_y
_atom_site_fract_z
_atom_site_charge
Mof_O 	O 	0.9388	0.3491	0.0843	-0.3
Mof_O 	O 	0.8197	0.3887	0.1556	-0.476
Mof_C 	C 	0.872	0.3315	0.1403	0.401
Mof_C 	C 	0.823	0.201	0.1786	-0.101
Mof_H 	H 	0.7574	0.1371	0.1497	0.066
Mof_H 	H 	0.8874	0.1823	0.1853	0.072
Mof_C 	C 	0.897	0.277	0.2085	-0.068
Mof_H 	H 	0.9189	0.2163	0.1942	0.008
Mof_H 	H 	0.9625	0.3391	0.2385	0.058
Mof_O 	O 	0.6509	0.5897	0.0843	-0.312
Mof_O 	O 	0.6113	0.431	0.1556	-0.481
Mof_C 	C 	0.6685	0.5405	0.1403	0.404
Mof_C 	C 	0.799	0.622	0.1786	-0.08
Mof_H 	H 	0.8629	0.6203	0.1497	0.076
Mof_H 	H 	0.8177	0.7051	0.1853	0.05
Mof_C 	C 	0.723	0.62	0.2085	-0.088
Mof_H 	H 	0.7837	0.7026	0.1942	0.032
Mof_H 	H 	0.6609	0.6234	0.2385	0.042
Mof_O 	O 	0.4103	0.0612	0.0843	-0.323
Mof_O 	O 	0.569	0.1803	0.1556	-0.482
Mof_C 	C 	0.4595	0.128	0.1403	0.396
Mof_C 	C 	0.378	0.177	0.1786	-0.072
Mof_H 	H 	0.3797	0.2426	0.1497	0.063
Mof_H 	H 	0.2949	0.1126	0.1853	0.033
Mof_C 	C 	0.38	0.103	0.2085	-0.08
Mof_H 	H 	0.2974	0.0811	0.1942	0.031
Mof_H 	H 	0.3766	0.0375	0.2385	0.018
Mof_O 	O 	0.0612	0.6509	0.0843	-0.321
Mof_O 	O 	0.1803	0.6113	0.1556	-0.483
Mof_C 	C 	0.128	0.6685	0.1403	0.399
Mof_C 	C 	0.177	0.799	0.1786	-0.067
Mof_H 	H 	0.2426	0.8629	0.1497	0.07
Mof_H 	H 	0.1126	0.8177	0.1853	0.031
Mof_C 	C 	0.103	0.723	0.2085	-0.089
Mof_H 	H 	0.0811	0.7837	0.1942	0.04
Mof_H 	H 	0.0375	0.6609	0.2385	0.021
Mof_O 	O 	0.3491	0.4103	0.0843	-0.318
Mof_O 	O 	0.3887	0.569	0.1556	-0.48
Mof_C 	C 	0.3315	0.4595	0.1403	0.399
Mof_C 	C 	0.201	0.378	0.1786	-0.088
Mof_H 	H 	0.1371	0.3797	0.1497	0.061
Mof_H 	H 	0.1823	0.2949	0.1853	0.053
Mof_C 	C 	0.277	0.38	0.2085	-0.07
Mof_H 	H 	0.2163	0.2974	0.1942	0.015
Mof_H 	H 	0.3391	0.3766	0.2385	0.037
Mof_O 	O 	0.5897	0.9388	0.0843	-0.297
Mof_O 	O 	0.431	0.8197	0.1556	-0.476
Mof_C 	C 	0.5405	0.872	0.1403	0.404
Mof_C 	C 	0.622	0.823	0.1786	-0.096
Mof_H 	H 	0.6203	0.7574	0.1497	0.073
Mof_H 	H 	0.7051	0.8874	0.1853	0.071
Mof_C 	C 	0.62	0.897	0.2085	-0.077
Mof_H 	H 	0.7026	0.9189	0.1942	0.016
Mof_H 	H 	0.6234	0.9625	0.2385	0.061
Mof_O 	O 	0.3491	0.9388	0.4157	-0.289
Mof_O 	O 	0.3887	0.8197	0.3444	-0.472
Mof_C 	C 	0.3315	0.872	0.3597	0.402
Mof_C 	C 	0.201	0.823	0.3214	-0.098
Mof_H 	H 	0.1371	0.7574	0.3503	0.07
Mof_H 	H 	0.1823	0.8874	0.3147	0.073
Mof_C 	C 	0.277	0.897	0.2915	-0.07
Mof_H 	H 	0.2163	0.9189	0.3058	0.009
Mof_H 	H 	0.3391	0.9625	0.2615	0.06
Mof_O 	O 	0.5897	0.6509	0.4157	-0.302
Mof_O 	O 	0.431	0.6113	0.3444	-0.478
Mof_C 	C 	0.5405	0.6685	0.3597	0.404
Mof_C 	C 	0.622	0.799	0.3214	-0.077
Mof_H 	H 	0.6203	0.8629	0.3503	0.079
Mof_H 	H 	0.7051	0.8177	0.3147	0.051
Mof_C 	C 	0.62	0.723	0.2915	-0.09
Mof_H 	H 	0.7026	0.7837	0.3058	0.034
Mof_H 	H 	0.6234	0.6609	0.2615	0.043
Mof_O 	O 	0.0612	0.4103	0.4157	-0.313
Mof_O 	O 	0.1803	0.569	0.3444	-0.479
Mof_C 	C 	0.128	0.4595	0.3597	0.396
Mof_C 	C 	0.177	0.378	0.3214	-0.069
Mof_H 	H 	0.2426	0.3797	0.3503	0.066
Mof_H 	H 	0.1126	0.2949	0.3147	0.034
Mof_C 	C 	0.103	0.38	0.2915	-0.083
Mof_H 	H 	0.0811	0.2974	0.3058	0.032
Mof_H 	H 	0.0375	0.3766	0.2615	0.019
Mof_O 	O 	0.6509	0.0612	0.4157	-0.31
Mof_O 	O 	0.6113	0.1803	0.3444	-0.48
Mof_C 	C 	0.6685	0.128	0.3597	0.399
Mof_C 	C 	0.799	0.177	0.3214	-0.065
Mof_H 	H 	0.8629	0.2426	0.3503	0.073
Mof_H 	H 	0.8177	0.1126	0.3147	0.032
Mof_C 	C 	0.723	0.103	0.2915	-0.092
Mof_H 	H 	0.7837	0.0811	0.3058	0.041
Mof_H 	H 	0.6609	0.0375	0.2615	0.022
Mof_O 	O 	0.4103	0.3491	0.4157	-0.307
Mof_O 	O 	0.569	0.3887	0.3444	-0.477
Mof_C 	C 	0.4595	0.3315	0.3597	0.399
Mof_C 	C 	0.378	0.201	0.3214	-0.086
Mof_H 	H 	0.3797	0.1371	0.3503	0.064
Mof_H 	H 	0.2949	0.1823	0.3147	0.055
Mof_C 	C 	0.38	0.277	0.2915	-0.072
Mof_H 	H 	0.2974	0.2163	0.3058	0.016
Mof_H 	H 	0.3766	0.3391	0.2615	0.038
Mof_O 	O 	0.9388	0.5897	0.4157	-0.286
Mof_O 	O 	0.8197	0.431	0.3444	-0.473
Mof_C 	C 	0.872	0.5405	0.3597	0.404
Mof_C 	C 	0.823	0.622	0.3214	-0.093
Mof_H 	H 	0.7574	0.6203	0.3503	0.077
Mof_H 	H 	0.8874	0.7051	0.3147	0.072
Mof_C 	C 	0.897	0.62	0.2915	-0.079
Mof_H 	H 	0.9189	0.7026	0.3058	0.017
Mof_H 	H 	0.9625	0.6234	0.2615	0.062
Mof_O 	O 	0.0612	0.6509	0.9157	-0.278
Mof_O 	O 	0.1803	0.6113	0.8444	-0.469
Mof_C 	C 	0.128	0.6685	0.8597	0.395
Mof_C 	C 	0.177	0.799	0.8214	-0.061
Mof_H 	H 	0.2426	0.8629	0.8503	0.078
Mof_H 	H 	0.1126	0.8177	0.8147	0.032
Mof_C 	C 	0.103	0.723	0.7915	-0.093
Mof_H 	H 	0.0811	0.7837	0.8058	0.044
Mof_H 	H 	0.0375	0.6609	0.7615	0.023
Mof_O 	O 	0.3491	0.4103	0.9157	-0.274
Mof_O 	O 	0.3887	0.569	0.8444	-0.467
Mof_C 	C 	0.3315	0.4595	0.8597	0.395
Mof_C 	C 	0.201	0.378	0.8214	-0.081
Mof_H 	H 	0.1371	0.3797	0.8503	0.07
Mof_H 	H 	0.1823	0.2949	0.8147	0.054
Mof_C 	C 	0.277	0.38	0.7915	-0.074
Mof_H 	H 	0.2163	0.2974	0.8058	0.019
Mof_H 	H 	0.3391	0.3766	0.7615	0.039
Mof_O 	O 	0.5897	0.9388	0.9157	-0.255
Mof_O 	O 	0.431	0.8197	0.8444	-0.463
Mof_C 	C 	0.5405	0.872	0.8597	0.4
Mof_C 	C 	0.622	0.823	0.8214	-0.089
Mof_H 	H 	0.6203	0.7574	0.8503	0.082
Mof_H 	H 	0.7051	0.8874	0.8147	0.071
Mof_C 	C 	0.62	0.897	0.7915	-0.081
Mof_H 	H 	0.7026	0.9189	0.8058	0.021
Mof_H 	H 	0.6234	0.9625	0.7615	0.062
Mof_O 	O 	0.9388	0.3491	0.9157	-0.257
Mof_O 	O 	0.8197	0.3887	0.8444	-0.462
Mof_C 	C 	0.872	0.3315	0.8597	0.398
Mof_C 	C 	0.823	0.201	0.8214	-0.093
Mof_H 	H 	0.7574	0.1371	0.8503	0.075
Mof_H 	H 	0.8874	0.1823	0.8147	0.073
Mof_C 	C 	0.897	0.277	0.7915	-0.072
Mof_H 	H 	0.9189	0.2163	0.8058	0.012
Mof_H 	H 	0.9625	0.3391	0.7615	0.06
Mof_O 	O 	0.6509	0.5897	0.9157	-0.269
Mof_O 	O 	0.6113	0.431	0.8444	-0.468
Mof_C 	C 	0.6685	0.5405	0.8597	0.4
Mof_C 	C 	0.799	0.622	0.8214	-0.073
Mof_H 	H 	0.8629	0.6203	0.8503	0.084
Mof_H 	H 	0.8177	0.7051	0.8147	0.051
Mof_C 	C 	0.723	0.62	0.7915	-0.091
Mof_H 	H 	0.7837	0.7026	0.8058	0.037
Mof_H 	H 	0.6609	0.6234	0.7615	0.044
Mof_O 	O 	0.4103	0.0612	0.9157	-0.28
Mof_O 	O 	0.569	0.1803	0.8444	-0.469
Mof_C 	C 	0.4595	0.128	0.8597	0.392
Mof_C 	C 	0.378	0.177	0.8214	-0.065
Mof_H 	H 	0.3797	0.2426	0.8503	0.071
Mof_H 	H 	0.2949	0.1126	0.8147	0.034
Mof_C 	C 	0.38	0.103	0.7915	-0.084
Mof_H 	H 	0.2974	0.0811	0.8058	0.035
Mof_H 	H 	0.3766	0.0375	0.7615	0.02
Mof_O 	O 	0.6509	0.0612	0.5843	-0.31
Mof_O 	O 	0.6113	0.1803	0.6556	-0.48
Mof_C 	C 	0.6685	0.128	0.6403	0.399
Mof_C 	C 	0.799	0.177	0.6786	-0.065
Mof_H 	H 	0.8629	0.2426	0.6497	0.073
Mof_H 	H 	0.8177	0.1126	0.6853	0.032
Mof_C 	C 	0.723	0.103	0.7085	-0.091
Mof_H 	H 	0.7837	0.0811	0.6942	0.042
Mof_H 	H 	0.6609	0.0375	0.7385	0.022
Mof_O 	O 	0.4103	0.3491	0.5843	-0.307
Mof_O 	O 	0.569	0.3887	0.6556	-0.477
Mof_C 	C 	0.4595	0.3315	0.6403	0.399
Mof_C 	C 	0.378	0.201	0.6786	-0.086
Mof_H 	H 	0.3797	0.1371	0.6497	0.064
Mof_H 	H 	0.2949	0.1823	0.6853	0.054
Mof_C 	C 	0.38	0.277	0.7085	-0.072
Mof_H 	H 	0.2974	0.2163	0.6942	0.017
Mof_H 	H 	0.3766	0.3391	0.7385	0.038
Mof_O 	O 	0.9388	0.5897	0.5843	-0.286
Mof_O 	O 	0.8197	0.431	0.6556	-0.473
Mof_C 	C 	0.872	0.5405	0.6403	0.404
Mof_C 	C 	0.823	0.622	0.6786	-0.093
Mof_H 	H 	0.7574	0.6203	0.6497	0.076
Mof_H 	H 	0.8874	0.7051	0.6853	0.071
Mof_C 	C 	0.897	0.62	0.7085	-0.079
Mof_H 	H 	0.9189	0.7026	0.6942	0.018
Mof_H 	H 	0.9625	0.6234	0.7385	0.061
Mof_O 	O 	0.3491	0.9388	0.5843	-0.289
Mof_O 	O 	0.3887	0.8197	0.6556	-0.473
Mof_C 	C 	0.3315	0.872	0.6403	0.402
Mof_C 	C 	0.201	0.823	0.6786	-0.097
Mof_H 	H 	0.1371	0.7574	0.6497	0.07
Mof_H 	H 	0.1823	0.8874	0.6853	0.073
Mof_C 	C 	0.277	0.897	0.7085	-0.07
Mof_H 	H 	0.2163	0.9189	0.6942	0.01
Mof_H 	H 	0.3391	0.9625	0.7385	0.059
Mof_O 	O 	0.5897	0.6509	0.5843	-0.302
Mof_O 	O 	0.431	0.6113	0.6556	-0.478
Mof_C 	C 	0.5405	0.6685	0.6403	0.404
Mof_C 	C 	0.622	0.799	0.6786	-0.077
Mof_H 	H 	0.6203	0.8629	0.6497	0.079
Mof_H 	H 	0.7051	0.8177	0.6853	0.051
Mof_C 	C 	0.62	0.723	0.7085	-0.09
Mof_H 	H 	0.7026	0.7837	0.6942	0.034
Mof_H 	H 	0.6234	0.6609	0.7385	0.043
Mof_O 	O 	0.0612	0.4103	0.5843	-0.313
Mof_O 	O 	0.1803	0.569	0.6556	-0.479
Mof_C 	C 	0.128	0.4595	0.6403	0.396
Mof_C 	C 	0.177	0.378	0.6786	-0.069
Mof_H 	H 	0.2426	0.3797	0.6497	0.066
Mof_H 	H 	0.1126	0.2949	0.6853	0.034
Mof_C 	C 	0.103	0.38	0.7085	-0.082
Mof_H 	H 	0.0811	0.2974	0.6942	0.033
Mof_H 	H 	0.0375	0.3766	0.7385	0.019
Mof_Tb	Tb	0.66667	0.33333	0.25	2.27
Mof_Tb	Tb	0.33333	0.66667	0.25	2.27
Mof_Tb	Tb	0.33333	0.66667	0.75	2.272
Mof_Tb	Tb	0.66667	0.33333	0.75	2.272
Mof_Cd	Cd	-0	0.5	-0	0.403
Mof_Cd	Cd	0.5	0.5	-0	0.433
Mof_Cd	Cd	0.5	0	-0	0.403
Mof_Cd	Cd	0.5	0	0.5	0.463
Mof_Cd	Cd	0.5	0.5	0.5	0.493
Mof_Cd	Cd	-4.03384e-17	0.5	0.5	0.463
Mof_O 	O 	0.7797	0.2203	0.25	-0.294
Mof_O 	O 	0.7797	0.5594	0.25	-0.29
Mof_O 	O 	0.4406	0.2203	0.25	-0.297
Mof_O 	O 	0.2203	0.7797	0.25	-0.294
Mof_O 	O 	0.2203	0.4406	0.25	-0.297
Mof_O 	O 	0.5594	0.7797	0.25	-0.29
Mof_O 	O 	0.2203	0.7797	0.75	-0.295
Mof_O 	O 	0.2203	0.4406	0.75	-0.298
Mof_O 	O 	0.5594	0.7797	0.75	-0.291
Mof_O 	O 	0.7797	0.2203	0.75	-0.294
Mof_O 	O 	0.7797	0.5594	0.75	-0.291
Mof_O 	O 	0.4406	0.2203	0.75	-0.298
_end
