data_functionalizedCrystal
_audit_creation_method	'EQeq! by Chris Wilmer'
_symmetry_space_group_name_H-M	'P1'
_symmetry_Int_Tables_number	1
_symmetry_cell_setting	triclinic
loop_
_symmetry_equiv_pos_as_xyz
  x,y,z
_cell_length_a	13.1852
_cell_length_b	20.0198
_cell_length_c	20.0198
_cell_angle_alpha	103.232
_cell_angle_beta	107.664
_cell_angle_gamma	72.3361
loop_
_atom_site_label
_atom_site_type_symbol
_atom_site_fract_x
_atom_site_fract_y
_atom_site_fract_z
_atom_site_charge
Mof_Co	Co	0.43693	0.81803	0.69267	1.18
Mof_Co	Co	0.06741	0.27567	0.72433	1.158
Mof_Co	Co	0.43693	0.30733	0.18197	1.18
Mof_Co	Co	0.56307	0.69267	0.81803	1.18
Mof_Co	Co	0.32246	0.29254	0.70746	1.108
Mof_Co	Co	-0	0	-0	1.115
Mof_Co	Co	0.56307	0.18197	0.30733	1.18
Mof_Co	Co	0.93259	0.72433	0.27567	1.172
Mof_Co	Co	0.67754	0.70746	0.29254	1.109
Mof_H 	H 	0.5121	0.3227	0.0583	0.035
Mof_H 	H 	0.5438	0.6825	0.0637	0.08
Mof_H 	H 	0.3529	0.8218	0.952	0.08
Mof_H 	H 	0.2242	0.9343	0.6823	-0.006
Mof_H 	H 	0.9684	0.0344	0.1508	0.019
Mof_H 	H 	0.7467	0.4589	0.3489	0.079
Mof_H 	H 	0.807	0.196	0.5608	0.073
Mof_H 	H 	0.8392	0.945	0.312	0.048
Mof_H 	H 	0.7709	0.015	0.8864	-0.002
Mof_H 	H 	0.4879	0.0583	0.3227	0.035
Mof_H 	H 	0.334	0.8289	0.5343	0.008
Mof_H 	H 	0.7709	0.1136	0.985	0.066
Mof_H 	H 	0.8512	0.2614	0.7386	-0.009
Mof_H 	H 	0.2424	0.7502	0.6574	0.024
Mof_H 	H 	0.6471	0.952	0.8218	0.083
Mof_H 	H 	0.5556	0.6089	0.1881	0.001
Mof_H 	H 	0.5174	0.4946	0.168	0.063
Mof_H 	H 	0.334	0.4657	0.1711	0.005
Mof_H 	H 	0.5438	0.9363	0.3175	0.042
Mof_H 	H 	0.6471	0.1782	0.048	0.045
Mof_H 	H 	0.9117	0.8883	0.1117	0.051
Mof_H 	H 	0.5121	0.9417	0.6773	0.001
Mof_H 	H 	0.1016	0.7206	0.5668	0.075
Mof_H 	H 	0.8392	0.688	0.055	0.087
Mof_H 	H 	0.206	0.4394	0.6554	-0.007
Mof_H 	H 	0.794	0.5606	0.3446	-0.003
Mof_H 	H 	0.7758	0.6823	0.9343	0.001
Mof_H 	H 	0.2533	0.5411	0.6511	0.075
Mof_H 	H 	0.1545	0.2179	0.0939	0.054
Mof_H 	H 	0.4562	0.3175	0.9363	0.044
Mof_H 	H 	0.8984	0.5668	0.7206	0.082
Mof_H 	H 	0.5174	0.832	0.5054	0.068
Mof_H 	H 	0.7576	0.2498	0.3426	0.029
Mof_H 	H 	0.794	0.6554	0.4394	-0.003
Mof_H 	H 	0.2291	0.8864	0.015	0
Mof_H 	H 	0.0316	0.9656	0.8492	0.011
Mof_H 	H 	0.7576	0.6574	0.7502	0.029
Mof_H 	H 	0.4826	0.168	0.4946	0.063
Mof_H 	H 	0.8549	0.8272	0.1728	0.027
Mof_H 	H 	0.9684	0.8492	0.9656	0.024
Mof_H 	H 	0.666	0.5343	0.8289	0.01
Mof_H 	H 	0.1608	0.055	0.688	0.083
Mof_H 	H 	0.1545	0.9061	0.7821	0.069
Mof_H 	H 	0.2242	0.3177	0.0657	0.03
Mof_H 	H 	0.2291	0.985	0.1136	0.074
Mof_H 	H 	0.2533	0.3489	0.4589	0.074
Mof_H 	H 	0.8455	0.7821	0.9061	0.073
Mof_H 	H 	0.5556	0.8119	0.3911	0.005
Mof_H 	H 	0.7467	0.6511	0.5411	0.08
Mof_H 	H 	0.8455	0.0939	0.2179	0.059
Mof_H 	H 	0.2214	0.7949	0.2051	0.053
Mof_H 	H 	0.807	0.4392	0.804	0.076
Mof_H 	H 	0.0883	0.1117	0.8883	0.085
Mof_H 	H 	0.4826	0.5054	0.832	0.068
Mof_H 	H 	0.1608	0.312	0.945	0.043
Mof_H 	H 	0.4562	0.0637	0.6825	0.084
Mof_H 	H 	0.4444	0.3911	0.8119	0.005
Mof_H 	H 	0.4879	0.6773	0.9417	0.003
Mof_H 	H 	0.0316	0.1508	0.0344	0.003
Mof_H 	H 	0.7786	0.2051	0.7949	0.085
Mof_H 	H 	0.193	0.804	0.4392	0.077
Mof_H 	H 	0.1488	0.7386	0.2614	0.021
Mof_H 	H 	0.4444	0.1881	0.6089	0.001
Mof_H 	H 	0.1016	0.4332	0.2794	0.073
Mof_H 	H 	0.2424	0.3426	0.2498	0.024
Mof_H 	H 	0.193	0.5608	0.196	0.073
Mof_H 	H 	0.1451	0.1728	0.8272	0.007
Mof_H 	H 	0.666	0.1711	0.4657	0.008
Mof_H 	H 	0.8984	0.2794	0.4332	0.081
Mof_H 	H 	0.3529	0.048	0.1782	0.04
Mof_H 	H 	0.7758	0.0657	0.3177	0.035
Mof_H 	H 	0.206	0.3446	0.5606	-0.007
Mof_C 	C 	0.0984	0.12898	0.06262	0.032
Mof_C 	C 	0.2335	0.3872	0.239	0.063
Mof_C 	C 	0.4319	0.2085	0.5089	-0.066
Mof_C 	C 	0.5596	0.67965	0.96515	0.105
Mof_C 	C 	0.3554	0.81763	0.81997	0.367
Mof_C 	C 	0.7665	0.6128	0.761	0.062
Mof_C 	C 	0.2862	0.8068	0.5414	0.067
Mof_C 	C 	0.3554	0.18003	0.18237	0.38
Mof_C 	C 	0.2332	0.03319	0.68621	-0.135
Mof_C 	C 	0.8851	0.1128	0.8872	0.312
Mof_C 	C 	0.7359	0.84576	0.30484	0.423
Mof_C 	C 	0.2018	0.79152	0.48288	-0.087
Mof_C 	C 	0.4404	0.32035	0.03485	-0.009
Mof_C 	C 	0.7065	0.487	0.3138	-0.078
Mof_C 	C 	0.6982	0.68705	0.07315	-0.01
Mof_C 	C 	0.8543	0.1969	0.8031	-0.129
Mof_C 	C 	0.5943	0.7787	0.4217	0.04
Mof_C 	C 	0.2714	0.31729	0.03911	-0.021
Mof_C 	C 	0.2131	0.03251	0.10929	-0.05
Mof_C 	C 	0.2886	0.85204	0.92976	-0.079
Mof_C 	C 	0.2711	0.85721	0.86159	-0.031
Mof_C 	C 	0.1457	0.8031	0.1969	-0.042
Mof_C 	C 	0.9262	0.1512	0.8488	0.031
Mof_C 	C 	0.8518	0.2572	0.4416	-0.068
Mof_C 	C 	0.4057	0.4217	0.7787	0.039
Mof_C 	C 	0.2886	0.07024	0.14796	-0.005
Mof_C 	C 	0.7982	0.20848	0.51712	-0.075
Mof_C 	C 	0.8518	0.5584	0.7428	-0.069
Mof_C 	C 	0.8287	0.82972	0.90128	-0.068
Mof_C 	C 	0.4319	0.4911	0.7915	-0.065
Mof_C 	C 	0.5681	0.7915	0.4911	-0.065
Mof_C 	C 	0.8287	0.09872	0.17028	-0.046
Mof_C 	C 	0.7286	0.68271	0.96089	0.098
Mof_C 	C 	0.5901	0.3988	0.2514	0.373
Mof_C 	C 	0.8671	0.2424	0.5074	-0.023
Mof_C 	C 	0.7869	0.10929	0.03251	-0.032
Mof_C 	C 	0.4076	0.0386	0.683	-0.135
Mof_C 	C 	0.1329	0.5074	0.2424	-0.009
Mof_C 	C 	0.2713	0.4478	0.686	0.075
Mof_C 	C 	0.4404	0.96515	0.67965	0.115
Mof_C 	C 	0.7289	0.86159	0.85721	-0.028
Mof_C 	C 	0.2641	0.30484	0.84576	0.422
Mof_C 	C 	0.3766	0.5324	0.7402	-0.033
Mof_C 	C 	0.5681	0.5089	0.2085	-0.065
Mof_C 	C 	0.9003	0.2306	0.7694	0.133
Mof_C 	C 	0.3018	0.07315	0.68705	-0.006
Mof_C 	C 	0.4057	0.2213	0.5783	0.037
Mof_C 	C 	0.5901	0.7486	0.6012	0.373
Mof_C 	C 	0.0997	0.7694	0.2306	0.025
Mof_C 	C 	0.2935	0.513	0.6862	-0.079
Mof_C 	C 	0.7359	0.69516	0.15424	0.389
Mof_C 	C 	0.0416	0.7377	0.4301	0.306
Mof_C 	C 	0.2862	0.4586	0.1932	0.064
Mof_C 	C 	0.6982	0.92685	0.31295	-0.098
Mof_C 	C 	0.7665	0.239	0.3872	0.06
Mof_C 	C 	0.9299	0.8208	0.1792	0.028
Mof_C 	C 	0.5924	0.9614	0.317	0.019
Mof_C 	C 	0.7286	0.03911	0.31729	-0.025
Mof_C 	C 	0.4099	0.2514	0.3988	0.372
Mof_C 	C 	0.2335	0.761	0.6128	0.065
Mof_C 	C 	0.6234	0.7402	0.5324	-0.031
Mof_C 	C 	0.6446	0.81997	0.81763	0.368
Mof_C 	C 	0.4076	0.317	0.9614	0.011
Mof_C 	C 	0.2018	0.51712	0.20848	-0.088
Mof_C 	C 	0.7668	0.68621	0.03319	-0.121
Mof_C 	C 	0.7287	0.686	0.4478	0.077
Mof_C 	C 	0.1713	0.90128	0.82972	-0.07
Mof_C 	C 	0.5943	0.5783	0.2213	0.039
Mof_C 	C 	0.0984	0.93738	0.87102	0.055
Mof_C 	C 	0.0701	0.1792	0.8208	0.079
Mof_C 	C 	0.9584	0.4301	0.7377	0.369
Mof_C 	C 	0.7869	0.96749	0.89071	0.09
Mof_C 	C 	0.9632	0.858	0.142	-0.011
Mof_C 	C 	0.9016	0.06262	0.12898	0.037
Mof_C 	C 	0.6446	0.18237	0.18003	0.379
Mof_C 	C 	0.1149	0.8872	0.1128	0.348
Mof_C 	C 	0.2935	0.3138	0.487	-0.079
Mof_C 	C 	0.0368	0.142	0.858	-0.14
Mof_C 	C 	0.9016	0.87102	0.93738	0.059
Mof_C 	C 	0.5924	0.683	0.0386	-0.123
Mof_C 	C 	0.7668	0.96681	0.31379	0.025
Mof_C 	C 	0.0416	0.5699	0.2623	0.304
Mof_C 	C 	0.7114	0.92976	0.85204	-0.081
Mof_C 	C 	0.2714	0.96089	0.68271	0.108
Mof_C 	C 	0.2711	0.13841	0.14279	-0.076
Mof_C 	C 	0.2713	0.314	0.5522	0.074
Mof_C 	C 	0.8671	0.4926	0.7576	-0.02
Mof_C 	C 	0.7287	0.5522	0.314	0.076
Mof_C 	C 	0.3018	0.31295	0.92685	-0.097
Mof_C 	C 	0.6234	0.4676	0.2598	-0.033
Mof_C 	C 	0.7982	0.48288	0.79152	-0.075
Mof_C 	C 	0.2332	0.31379	0.96681	0.018
Mof_C 	C 	0.7289	0.14279	0.13841	-0.069
Mof_C 	C 	0.5596	0.03485	0.32035	-0.015
Mof_C 	C 	0.7114	0.14796	0.07024	-0.012
Mof_C 	C 	0.0738	0.8488	0.1512	-0.086
Mof_C 	C 	0.2131	0.89071	0.96749	0.081
Mof_C 	C 	0.3766	0.2598	0.4676	-0.035
Mof_C 	C 	0.1482	0.7428	0.5584	-0.083
Mof_C 	C 	0.9584	0.2623	0.5699	0.37
Mof_C 	C 	0.7138	0.1932	0.4586	0.061
Mof_C 	C 	0.4099	0.6012	0.7486	0.372
Mof_C 	C 	0.1713	0.17028	0.09872	-0.047
Mof_C 	C 	0.7065	0.6862	0.513	-0.078
Mof_C 	C 	0.1329	0.7576	0.4926	-0.007
Mof_C 	C 	0.1482	0.4416	0.2572	-0.083
Mof_C 	C 	0.2641	0.15424	0.69516	0.386
Mof_C 	C 	0.7138	0.5414	0.8068	0.063
Mof_N 	N 	0.9991	0.77669	0.22331	-0.184
Mof_N 	N 	0.6692	0.6002	0.2768	-0.247
Mof_N 	N 	0.6254	0.67971	0.92781	-0.227
Mof_N 	N 	0.3038	0.39432	0.20712	-0.215
Mof_N 	N 	0.6692	0.7232	0.3998	-0.246
Mof_N 	N 	0.6254	0.07219	0.32029	-0.189
Mof_N 	N 	0.3308	0.2768	0.6002	-0.247
Mof_N 	N 	0.3038	0.79288	0.60568	-0.215
Mof_N 	N 	0.0009	0.22331	0.77669	-0.242
Mof_N 	N 	0.3746	0.92781	0.67971	-0.231
Mof_N 	N 	0.3308	0.3998	0.7232	-0.247
Mof_N 	N 	0.1167	0.93464	0.93888	-0.215
Mof_N 	N 	0.8833	0.93888	0.93464	-0.208
Mof_N 	N 	0.6962	0.60568	0.79288	-0.213
Mof_N 	N 	0.1167	0.06112	0.06536	-0.21
Mof_N 	N 	0.6962	0.20712	0.39432	-0.213
Mof_N 	N 	0.8833	0.06536	0.06112	-0.202
Mof_N 	N 	0.3746	0.32029	0.07219	-0.191
Mof_O 	O 	0.336	0.83362	0.75874	-0.423
Mof_O 	O 	0.9559	0.07201	0.92799	-0.39
Mof_O 	O 	0.5	0.70856	0.70856	-0.362
Mof_O 	O 	0.5287	0.79999	0.61961	-0.432
Mof_O 	O 	0.5287	0.38039	0.20001	-0.434
Mof_O 	O 	0.6246	0.69273	0.62907	-0.262
Mof_O 	O 	0.8311	0.82099	0.29837	-0.461
Mof_O 	O 	0.6713	0.69396	0.18646	-0.471
Mof_O 	O 	0.9562	0.37172	0.7445	-0.407
Mof_O 	O 	0.9562	0.2555	0.62828	-0.409
Mof_O 	O 	0.6246	0.37093	0.30727	-0.262
Mof_O 	O 	0.0438	0.7445	0.37172	-0.412
Mof_O 	O 	0.3287	0.30604	0.81354	-0.48
Mof_O 	O 	0.3754	0.62907	0.69273	-0.263
Mof_O 	O 	0.664	0.75874	0.83362	-0.422
Mof_O 	O 	0.5	0.29144	0.29144	-0.362
Mof_O 	O 	0.4363	0.1514	0.22604	-0.43
Mof_O 	O 	0.336	0.24126	0.16638	-0.429
Mof_O 	O 	0.0255	0.2859	0.5555	-0.325
Mof_O 	O 	0.1689	0.17901	0.70163	-0.462
Mof_O 	O 	0.0441	0.92799	0.07201	-0.424
Mof_O 	O 	0.5637	0.8486	0.77396	-0.421
Mof_O 	O 	0.0255	0.4445	0.7141	-0.323
Mof_O 	O 	0.8311	0.70163	0.17901	-0.454
Mof_O 	O 	0.9745	0.5555	0.2859	-0.268
Mof_O 	O 	0.7846	0.12297	0.87703	-0.267
Mof_O 	O 	0.4363	0.77396	0.8486	-0.422
Mof_O 	O 	0.4713	0.61961	0.79999	-0.432
Mof_O 	O 	0.664	0.16638	0.24126	-0.428
Mof_O 	O 	0.5637	0.22604	0.1514	-0.429
Mof_O 	O 	0.1689	0.29837	0.82099	-0.468
Mof_O 	O 	0.0438	0.62828	0.2555	-0.414
Mof_O 	O 	0.4713	0.20001	0.38039	-0.435
Mof_O 	O 	0.3287	0.18646	0.69396	-0.472
Mof_O 	O 	0.6713	0.81354	0.30604	-0.479
Mof_O 	O 	0.9745	0.7141	0.4445	-0.267
Mof_O 	O 	0.3754	0.30727	0.37093	-0.264
Mof_O 	O 	0.2154	0.87703	0.12297	-0.28
_end
