data_functionalizedCrystal
_audit_creation_method	'EQeq! by Chris Wilmer'
_symmetry_space_group_name_H-M	'P1'
_symmetry_Int_Tables_number	1
_symmetry_cell_setting	triclinic
loop_
_symmetry_equiv_pos_as_xyz
  x,y,z
_cell_length_a	18.633
_cell_length_b	20.399
_cell_length_c	20.852
_cell_angle_alpha	90
_cell_angle_beta	90
_cell_angle_gamma	90
loop_
_atom_site_label
_atom_site_type_symbol
_atom_site_fract_x
_atom_site_fract_y
_atom_site_fract_z
_atom_site_charge
Mof_Cd	Cd	0.82775	0.87196	0.38654	0.513
Mof_Cd	Cd	0.68851	0.16329	0.36463	0.488
Mof_Cd	Cd	0.75538	0.03662	0.4617	0.486
Mof_Cd	Cd	0.19579	0.08593	0.11856	0.426
Mof_O 	O 	0.67677	0.04346	0.3729	-0.255
Mof_O 	O 	0.5766	0.09896	0.3707	-0.241
Mof_O 	O 	0.16496	0.49108	0.11468	-0.269
Mof_O 	O 	0.0662	0.43427	0.116	-0.253
Mof_O 	O 	0.8294	0.89327	0.2635	-0.218
Mof_O 	O 	0.855	0.7987	0.30693	-0.249
Mof_O 	O 	0.70915	0.877	0.3734	-0.256
Mof_O 	O 	0.7007	0.93835	0.46129	-0.271
Mof_O 	O 	0.8051	0.9021	0.0278	-0.278
Mof_O 	O 	0.8453	0.8186	0.9673	-0.267
Mof_O 	O 	0.679	0.4939	0.9608	-0.27
Mof_O 	O 	0.7895	0.4634	0.9509	-0.252
Mof_O 	O 	0.2053	0.8429	0.4476	-0.264
Mof_O 	O 	0.1262	0.8945	0.3867	-0.442
Mof_H 	H 	0.097	0.8739	0.4107	0.271
Mof_O 	O 	0.3069	0.0586	0.196	-0.238
Mof_O 	O 	0.3257	0.6424	0.2557	-0.23
Mof_O 	O 	0.6979	0.6836	0.2047	-0.246
Mof_O 	O 	0.6135	0.6389	0.1429	-0.448
Mof_H 	H 	0.586	0.6604	0.1677	0.275
Mof_O 	O 	0.1905	0.6332	0.1872	-0.237
Mof_O 	O 	0.3596	0.71309	0.54672	-0.256
Mof_O 	O 	0.3527	0.6212	0.496	-0.247
Mof_O 	O 	0.3804	0.7225	0.2074	-0.258
Mof_O 	O 	0.2	0.6276	0.0843	-0.288
Mof_O 	O 	0.2	0.0185	0.2003	-0.276
Mof_C 	C 	0.5542	0.8683	0.3968	-0.04
Mof_H 	H 	0.5748	0.8283	0.4076	0.07
Mof_C 	C 	0.567	0.9839	0.3811	-0.028
Mof_C 	C 	0.4933	0.9863	0.3661	-0.047
Mof_H 	H 	0.4727	0.0264	0.3559	0.082
Mof_C 	C 	0.4502	0.93	0.3662	0.009
Mof_C 	C 	0.4812	0.8704	0.3821	-0
Mof_C 	C 	0.6079	0.0465	0.3755	0.293
Mof_C 	C 	0.4413	0.807	0.3811	0.035
Mof_C 	C 	0.4209	0.781	0.3224	-0.055
Mof_H 	H 	0.4316	0.8031	0.2846	0.078
Mof_C 	C 	0.3836	0.7202	0.3204	-0.033
Mof_C 	C 	0.3677	0.6876	0.3769	-0.013
Mof_H 	H 	0.3442	0.6474	0.3757	0.076
Mof_C 	C 	0.4236	0.7741	0.4379	-0.054
Mof_H 	H 	0.4365	0.7918	0.4773	0.071
Mof_C 	C 	0.0973	0.4877	0.1143	0.299
Mof_C 	C 	0.8501	0.8345	0.2586	0.29
Mof_C 	C 	0.8668	0.8067	0.1957	-0.034
Mof_C 	C 	0.8431	0.8377	0.1393	-0.011
Mof_H 	H 	0.8164	0.8761	0.1422	0.076
Mof_C 	C 	0.9078	0.7497	0.19	-0.052
Mof_H 	H 	0.9257	0.7296	0.2268	0.074
Mof_C 	C 	0.9222	0.7222	0.1297	0.032
Mof_C 	C 	0.8975	0.7535	0.0754	-0.05
Mof_H 	H 	0.9069	0.7352	0.0354	0.076
Mof_C 	C 	0.9657	0.6601	0.125	-0.003
Mof_C 	C 	0.9355	0.5991	0.109	0.012
Mof_C 	C 	0.9794	0.5455	0.1076	-0.05
Mof_H 	H 	0.9591	0.5046	0.0997	0.082
Mof_C 	C 	0.859	0.8114	0.079	-0.037
Mof_C 	C 	0.8346	0.8473	0.0201	0.313
Mof_C 	C 	0.8047	0.6207	0.1325	-0.037
Mof_H 	H 	0.8182	0.6476	0.1665	0.068
Mof_C 	C 	0.7324	0.6118	0.1194	-0.06
Mof_C 	C 	0.7121	0.5725	0.0676	0.005
Mof_H 	H 	0.6638	0.5678	0.0577	0.071
Mof_C 	C 	0.7634	0.5404	0.0307	-0.051
Mof_C 	C 	0.8357	0.5507	0.0446	-0.039
Mof_H 	H 	0.8703	0.5307	0.0191	0.073
Mof_C 	C 	0.3727	0.9372	0.3484	0.027
Mof_C 	C 	0.3197	0.9063	0.3846	-0.037
Mof_H 	H 	0.3318	0.8818	0.4206	0.067
Mof_C 	C 	0.2473	0.9128	0.3656	-0.062
Mof_C 	C 	0.2295	0.9506	0.3135	0.004
Mof_H 	H 	0.1816	0.9554	0.3018	0.074
Mof_C 	C 	0.2822	0.9814	0.2785	-0.045
Mof_C 	C 	0.6764	0.914	0.4118	0.315
Mof_C 	C 	0.3536	0.9748	0.2969	-0.045
Mof_H 	H 	0.389	0.9964	0.2737	0.075
Mof_C 	C 	0.0391	0.6648	0.135	-0.035
Mof_H 	H 	0.0589	0.7051	0.1461	0.064
Mof_C 	C 	0.0838	0.6107	0.1286	-0.035
Mof_C 	C 	0.0543	0.5497	0.1174	-0.028
Mof_C 	C 	0.8577	0.5904	0.0959	0.022
Mof_C 	C 	0.7427	0.4962	0.9764	0.316
Mof_C 	C 	0.1909	0.8788	0.404	0.373
Mof_C 	C 	0.5967	0.9236	0.3959	-0.023
Mof_C 	C 	0.3867	0.7149	0.4354	-0.034
Mof_C 	C 	0.2615	0.023	0.2214	0.31
Mof_C 	C 	0.3624	0.6926	0.2569	0.298
Mof_C 	C 	0.365	0.6812	0.4957	0.296
Mof_C 	C 	0.6784	0.6473	0.1596	0.362
Mof_C 	C 	0.1632	0.6228	0.1353	0.309
Mof_Cd	Cd	0.67225	0.12804	0.88654	0.512
Mof_Cd	Cd	0.81149	0.83671	0.86463	0.487
Mof_Cd	Cd	0.74462	0.96338	0.9617	0.485
Mof_Cd	Cd	0.30421	0.91407	0.61856	0.425
Mof_O 	O 	0.82323	0.95654	0.8729	-0.256
Mof_O 	O 	0.9234	0.90104	0.8707	-0.242
Mof_O 	O 	0.33504	0.50892	0.61468	-0.27
Mof_O 	O 	0.4338	0.56573	0.616	-0.254
Mof_O 	O 	0.6706	0.10673	0.7635	-0.219
Mof_O 	O 	0.645	0.2013	0.80693	-0.25
Mof_O 	O 	0.79085	0.123	0.8734	-0.256
Mof_O 	O 	0.7993	0.06165	0.96129	-0.271
Mof_O 	O 	0.6949	0.0979	0.5278	-0.278
Mof_O 	O 	0.6547	0.1814	0.4673	-0.267
Mof_O 	O 	0.821	0.5061	0.4608	-0.27
Mof_O 	O 	0.7105	0.5366	0.4509	-0.252
Mof_O 	O 	0.2947	0.1571	0.9476	-0.264
Mof_O 	O 	0.3738	0.1055	0.8867	-0.442
Mof_H 	H 	0.403	0.1261	0.9107	0.271
Mof_O 	O 	0.1931	0.9414	0.696	-0.238
Mof_O 	O 	0.1743	0.3576	0.7557	-0.23
Mof_O 	O 	0.8021	0.3164	0.7047	-0.246
Mof_O 	O 	0.8865	0.3611	0.6429	-0.448
Mof_H 	H 	0.914	0.3396	0.6677	0.275
Mof_O 	O 	0.3095	0.3668	0.6872	-0.237
Mof_O 	O 	0.1404	0.28691	0.04672	-0.256
Mof_O 	O 	0.1473	0.3788	0.996	-0.247
Mof_O 	O 	0.1196	0.2775	0.7074	-0.258
Mof_O 	O 	0.3	0.3724	0.5843	-0.288
Mof_O 	O 	0.3	0.9815	0.7003	-0.276
Mof_C 	C 	0.9458	0.1317	0.8968	-0.039
Mof_H 	H 	0.9252	0.1717	0.9076	0.07
Mof_C 	C 	0.933	0.0161	0.8811	-0.027
Mof_C 	C 	0.0067	0.0137	0.8661	-0.048
Mof_H 	H 	0.0273	0.9736	0.8559	0.082
Mof_C 	C 	0.0498	0.07	0.8662	0.01
Mof_C 	C 	0.0188	0.1296	0.8821	-0.001
Mof_C 	C 	0.8921	0.9535	0.8755	0.293
Mof_C 	C 	0.0587	0.193	0.8811	0.035
Mof_C 	C 	0.0791	0.219	0.8224	-0.055
Mof_H 	H 	0.0684	0.1969	0.7846	0.078
Mof_C 	C 	0.1164	0.2798	0.8204	-0.033
Mof_C 	C 	0.1323	0.3124	0.8769	-0.013
Mof_H 	H 	0.1558	0.3526	0.8757	0.076
Mof_C 	C 	0.0764	0.2259	0.9379	-0.054
Mof_H 	H 	0.0635	0.2082	0.9773	0.072
Mof_C 	C 	0.4027	0.5123	0.6143	0.299
Mof_C 	C 	0.6499	0.1655	0.7586	0.29
Mof_C 	C 	0.6332	0.1933	0.6957	-0.034
Mof_C 	C 	0.6569	0.1623	0.6393	-0.011
Mof_H 	H 	0.6836	0.1239	0.6422	0.076
Mof_C 	C 	0.5922	0.2503	0.69	-0.052
Mof_H 	H 	0.5743	0.2704	0.7268	0.074
Mof_C 	C 	0.5778	0.2778	0.6297	0.032
Mof_C 	C 	0.6025	0.2465	0.5754	-0.05
Mof_H 	H 	0.5931	0.2648	0.5354	0.076
Mof_C 	C 	0.5343	0.3399	0.625	-0.002
Mof_C 	C 	0.5645	0.4009	0.609	0.011
Mof_C 	C 	0.5206	0.4545	0.6076	-0.049
Mof_H 	H 	0.5409	0.4954	0.5997	0.082
Mof_C 	C 	0.641	0.1886	0.579	-0.037
Mof_C 	C 	0.6654	0.1527	0.5201	0.313
Mof_C 	C 	0.6953	0.3793	0.6325	-0.037
Mof_H 	H 	0.6818	0.3524	0.6665	0.068
Mof_C 	C 	0.7676	0.3882	0.6194	-0.06
Mof_C 	C 	0.7879	0.4275	0.5676	0.005
Mof_H 	H 	0.8362	0.4322	0.5577	0.071
Mof_C 	C 	0.7366	0.4596	0.5307	-0.05
Mof_C 	C 	0.6643	0.4493	0.5446	-0.039
Mof_H 	H 	0.6297	0.4693	0.5191	0.073
Mof_C 	C 	0.1273	0.0628	0.8484	0.026
Mof_C 	C 	0.1803	0.0937	0.8846	-0.037
Mof_H 	H 	0.1682	0.1182	0.9206	0.067
Mof_C 	C 	0.2527	0.0872	0.8656	-0.062
Mof_C 	C 	0.2705	0.0494	0.8135	0.005
Mof_H 	H 	0.3184	0.0446	0.8018	0.073
Mof_C 	C 	0.2178	0.0186	0.7785	-0.046
Mof_C 	C 	0.8236	0.086	0.9118	0.315
Mof_C 	C 	0.1464	0.0252	0.7969	-0.045
Mof_H 	H 	0.111	0.0036	0.7737	0.074
Mof_C 	C 	0.4609	0.3352	0.635	-0.036
Mof_H 	H 	0.4411	0.2949	0.6461	0.064
Mof_C 	C 	0.4162	0.3893	0.6286	-0.035
Mof_C 	C 	0.4457	0.4503	0.6174	-0.029
Mof_C 	C 	0.6423	0.4096	0.5959	0.023
Mof_C 	C 	0.7573	0.5038	0.4764	0.316
Mof_C 	C 	0.3091	0.1212	0.904	0.373
Mof_C 	C 	0.9033	0.0764	0.8959	-0.024
Mof_C 	C 	0.1133	0.2851	0.9354	-0.034
Mof_C 	C 	0.2385	0.977	0.7214	0.311
Mof_C 	C 	0.1376	0.3074	0.7569	0.298
Mof_C 	C 	0.135	0.3188	0.9957	0.296
Mof_C 	C 	0.8216	0.3527	0.6596	0.362
Mof_C 	C 	0.3368	0.3772	0.6353	0.309
Mof_Cd	Cd	0.17225	0.37196	0.11346	0.512
Mof_Cd	Cd	0.31149	0.66329	0.13537	0.487
Mof_Cd	Cd	0.24462	0.53662	0.0383	0.485
Mof_Cd	Cd	0.80421	0.58593	0.38144	0.425
Mof_O 	O 	0.32323	0.54346	0.1271	-0.256
Mof_O 	O 	0.4234	0.59896	0.1293	-0.242
Mof_O 	O 	0.83504	0.99108	0.38532	-0.27
Mof_O 	O 	0.9338	0.93427	0.384	-0.254
Mof_O 	O 	0.1706	0.39327	0.2365	-0.219
Mof_O 	O 	0.145	0.2987	0.19307	-0.25
Mof_O 	O 	0.29085	0.377	0.1266	-0.256
Mof_O 	O 	0.2993	0.43835	0.03871	-0.272
Mof_O 	O 	0.1949	0.4021	0.4722	-0.278
Mof_O 	O 	0.1547	0.3186	0.5327	-0.267
Mof_O 	O 	0.321	0.9939	0.5392	-0.27
Mof_O 	O 	0.2105	0.9634	0.5491	-0.252
Mof_O 	O 	0.7947	0.3429	0.0524	-0.264
Mof_O 	O 	0.8738	0.3945	0.1133	-0.442
Mof_H 	H 	0.903	0.3739	0.0893	0.27
Mof_O 	O 	0.6931	0.5586	0.304	-0.238
Mof_O 	O 	0.6743	0.1424	0.2443	-0.23
Mof_O 	O 	0.3021	0.1836	0.2953	-0.246
Mof_O 	O 	0.3865	0.1389	0.3571	-0.448
Mof_H 	H 	0.414	0.1604	0.3323	0.275
Mof_O 	O 	0.8095	0.1332	0.3128	-0.237
Mof_O 	O 	0.6404	0.21309	0.95328	-0.255
Mof_O 	O 	0.6473	0.1212	0.004	-0.247
Mof_O 	O 	0.6196	0.2225	0.2926	-0.258
Mof_O 	O 	0.8	0.1276	0.4157	-0.288
Mof_O 	O 	0.8	0.5185	0.2997	-0.276
Mof_C 	C 	0.4458	0.3683	0.1032	-0.04
Mof_H 	H 	0.4252	0.3283	0.0924	0.07
Mof_C 	C 	0.433	0.4839	0.1189	-0.028
Mof_C 	C 	0.5067	0.4863	0.1339	-0.048
Mof_H 	H 	0.5273	0.5264	0.1441	0.083
Mof_C 	C 	0.5498	0.43	0.1338	0.009
Mof_C 	C 	0.5188	0.3704	0.1179	-0.001
Mof_C 	C 	0.3921	0.5465	0.1245	0.293
Mof_C 	C 	0.5587	0.307	0.1189	0.035
Mof_C 	C 	0.5791	0.281	0.1776	-0.055
Mof_H 	H 	0.5684	0.3031	0.2154	0.078
Mof_C 	C 	0.6164	0.2202	0.1796	-0.033
Mof_C 	C 	0.6323	0.1876	0.1231	-0.013
Mof_H 	H 	0.6558	0.1474	0.1243	0.076
Mof_C 	C 	0.5764	0.2741	0.0621	-0.054
Mof_H 	H 	0.5635	0.2918	0.0227	0.071
Mof_C 	C 	0.9027	0.9877	0.3857	0.299
Mof_C 	C 	0.1499	0.3345	0.2414	0.291
Mof_C 	C 	0.1332	0.3067	0.3043	-0.034
Mof_C 	C 	0.1569	0.3377	0.3607	-0.011
Mof_H 	H 	0.1836	0.3761	0.3578	0.076
Mof_C 	C 	0.0922	0.2497	0.31	-0.052
Mof_H 	H 	0.0743	0.2296	0.2732	0.073
Mof_C 	C 	0.0778	0.2222	0.3703	0.031
Mof_C 	C 	0.1025	0.2535	0.4246	-0.05
Mof_H 	H 	0.0931	0.2352	0.4646	0.076
Mof_C 	C 	0.0343	0.1601	0.375	-0.002
Mof_C 	C 	0.0645	0.0991	0.391	0.011
Mof_C 	C 	0.0206	0.0455	0.3924	-0.049
Mof_H 	H 	0.0409	0.0046	0.4003	0.082
Mof_C 	C 	0.141	0.3114	0.421	-0.037
Mof_C 	C 	0.1654	0.3473	0.4799	0.313
Mof_C 	C 	0.1953	0.1207	0.3675	-0.037
Mof_H 	H 	0.1818	0.1476	0.3335	0.068
Mof_C 	C 	0.2676	0.1118	0.3806	-0.06
Mof_C 	C 	0.2879	0.0725	0.4324	0.005
Mof_H 	H 	0.3362	0.0678	0.4423	0.071
Mof_C 	C 	0.2366	0.0404	0.4693	-0.05
Mof_C 	C 	0.1643	0.0507	0.4554	-0.039
Mof_H 	H 	0.1297	0.0307	0.4809	0.073
Mof_C 	C 	0.6273	0.4372	0.1516	0.026
Mof_C 	C 	0.6803	0.4063	0.1154	-0.037
Mof_H 	H 	0.6682	0.3818	0.0794	0.067
Mof_C 	C 	0.7527	0.4128	0.1344	-0.062
Mof_C 	C 	0.7705	0.4506	0.1865	0.005
Mof_H 	H 	0.8184	0.4554	0.1982	0.073
Mof_C 	C 	0.7178	0.4814	0.2215	-0.046
Mof_C 	C 	0.3236	0.414	0.0882	0.315
Mof_C 	C 	0.6464	0.4748	0.2031	-0.045
Mof_H 	H 	0.611	0.4964	0.2263	0.074
Mof_C 	C 	0.9609	0.1648	0.365	-0.037
Mof_H 	H 	0.9411	0.2051	0.3539	0.064
Mof_C 	C 	0.9162	0.1107	0.3714	-0.034
Mof_C 	C 	0.9457	0.0497	0.3826	-0.03
Mof_C 	C 	0.1423	0.0904	0.4041	0.023
Mof_C 	C 	0.2573	0.9962	0.5236	0.316
Mof_C 	C 	0.8091	0.3788	0.096	0.373
Mof_C 	C 	0.4033	0.4236	0.1041	-0.024
Mof_C 	C 	0.6133	0.2149	0.0646	-0.034
Mof_C 	C 	0.7385	0.523	0.2786	0.311
Mof_C 	C 	0.6376	0.1926	0.2431	0.298
Mof_C 	C 	0.635	0.1812	0.0043	0.296
Mof_C 	C 	0.3216	0.1473	0.3404	0.362
Mof_C 	C 	0.8368	0.1228	0.3647	0.309
Mof_Cd	Cd	0.32775	0.62804	0.61346	0.512
Mof_Cd	Cd	0.18851	0.33671	0.63537	0.487
Mof_Cd	Cd	0.25538	0.46338	0.5383	0.485
Mof_Cd	Cd	0.69579	0.41407	0.88144	0.425
Mof_O 	O 	0.17677	0.45654	0.6271	-0.256
Mof_O 	O 	0.0766	0.40104	0.6293	-0.242
Mof_O 	O 	0.66496	0.00892	0.88532	-0.27
Mof_O 	O 	0.5662	0.06573	0.884	-0.254
Mof_O 	O 	0.3294	0.60673	0.7365	-0.219
Mof_O 	O 	0.355	0.7013	0.69307	-0.25
Mof_O 	O 	0.20915	0.623	0.6266	-0.256
Mof_O 	O 	0.2007	0.56165	0.53871	-0.272
Mof_O 	O 	0.3051	0.5979	0.9722	-0.278
Mof_O 	O 	0.3453	0.6814	0.0327	-0.267
Mof_O 	O 	0.179	0.0061	0.0392	-0.27
Mof_O 	O 	0.2895	0.0366	0.0491	-0.252
Mof_O 	O 	0.7053	0.6571	0.5524	-0.264
Mof_O 	O 	0.6262	0.6055	0.6133	-0.442
Mof_H 	H 	0.597	0.6261	0.5893	0.271
Mof_O 	O 	0.8069	0.4414	0.804	-0.238
Mof_O 	O 	0.8257	0.8576	0.7443	-0.23
Mof_O 	O 	0.1979	0.8164	0.7953	-0.246
Mof_O 	O 	0.1135	0.8611	0.8571	-0.448
Mof_H 	H 	0.086	0.8396	0.8323	0.275
Mof_O 	O 	0.6905	0.8668	0.8128	-0.237
Mof_O 	O 	0.8596	0.78691	0.45328	-0.256
Mof_O 	O 	0.8527	0.8788	0.504	-0.247
Mof_O 	O 	0.8804	0.7775	0.7926	-0.258
Mof_O 	O 	0.7	0.8724	0.9157	-0.288
Mof_O 	O 	0.7	0.4815	0.7997	-0.276
Mof_C 	C 	0.0542	0.6317	0.6032	-0.04
Mof_H 	H 	0.0748	0.6717	0.5924	0.07
Mof_C 	C 	0.067	0.5161	0.6189	-0.028
Mof_C 	C 	0.9933	0.5137	0.6339	-0.047
Mof_H 	H 	0.9727	0.4736	0.6441	0.083
Mof_C 	C 	0.9502	0.57	0.6338	0.009
Mof_C 	C 	0.9812	0.6296	0.6179	-0
Mof_C 	C 	0.1079	0.4535	0.6245	0.293
Mof_C 	C 	0.9413	0.693	0.6189	0.035
Mof_C 	C 	0.9209	0.719	0.6776	-0.055
Mof_H 	H 	0.9316	0.6969	0.7154	0.078
Mof_C 	C 	0.8836	0.7798	0.6796	-0.033
Mof_C 	C 	0.8677	0.8124	0.6231	-0.013
Mof_H 	H 	0.8442	0.8526	0.6243	0.076
Mof_C 	C 	0.9236	0.7259	0.5621	-0.054
Mof_H 	H 	0.9365	0.7082	0.5227	0.071
Mof_C 	C 	0.5973	0.0123	0.8857	0.299
Mof_C 	C 	0.3501	0.6655	0.7414	0.29
Mof_C 	C 	0.3668	0.6933	0.8043	-0.034
Mof_C 	C 	0.3431	0.6623	0.8607	-0.011
Mof_H 	H 	0.3164	0.6239	0.8578	0.076
Mof_C 	C 	0.4078	0.7503	0.81	-0.052
Mof_H 	H 	0.4257	0.7704	0.7732	0.073
Mof_C 	C 	0.4222	0.7778	0.8703	0.032
Mof_C 	C 	0.3975	0.7465	0.9246	-0.05
Mof_H 	H 	0.4069	0.7648	0.9646	0.076
Mof_C 	C 	0.4657	0.8399	0.875	-0.002
Mof_C 	C 	0.4355	0.9009	0.891	0.011
Mof_C 	C 	0.4794	0.9545	0.8924	-0.049
Mof_H 	H 	0.4591	0.9954	0.9003	0.082
Mof_C 	C 	0.359	0.6886	0.921	-0.037
Mof_C 	C 	0.3346	0.6527	0.9799	0.313
Mof_C 	C 	0.3047	0.8793	0.8675	-0.037
Mof_H 	H 	0.3182	0.8524	0.8335	0.068
Mof_C 	C 	0.2324	0.8882	0.8806	-0.06
Mof_C 	C 	0.2121	0.9275	0.9324	0.005
Mof_H 	H 	0.1638	0.9322	0.9423	0.071
Mof_C 	C 	0.2634	0.9596	0.9693	-0.05
Mof_C 	C 	0.3357	0.9493	0.9554	-0.039
Mof_H 	H 	0.3703	0.9693	0.9809	0.073
Mof_C 	C 	0.8727	0.5628	0.6516	0.026
Mof_C 	C 	0.8197	0.5937	0.6154	-0.037
Mof_H 	H 	0.8318	0.6182	0.5794	0.067
Mof_C 	C 	0.7473	0.5872	0.6344	-0.062
Mof_C 	C 	0.7295	0.5494	0.6865	0.005
Mof_H 	H 	0.6816	0.5446	0.6982	0.073
Mof_C 	C 	0.7822	0.5186	0.7215	-0.046
Mof_C 	C 	0.1764	0.586	0.5882	0.315
Mof_C 	C 	0.8536	0.5252	0.7031	-0.045
Mof_H 	H 	0.889	0.5036	0.7263	0.074
Mof_C 	C 	0.5391	0.8352	0.865	-0.036
Mof_H 	H 	0.5589	0.7949	0.8539	0.064
Mof_C 	C 	0.5838	0.8893	0.8714	-0.034
Mof_C 	C 	0.5543	0.9503	0.8826	-0.029
Mof_C 	C 	0.3577	0.9096	0.9041	0.023
Mof_C 	C 	0.2427	0.0038	0.0236	0.316
Mof_C 	C 	0.6909	0.6212	0.596	0.373
Mof_C 	C 	0.0967	0.5764	0.6041	-0.023
Mof_C 	C 	0.8867	0.7851	0.5646	-0.034
Mof_C 	C 	0.7615	0.477	0.7786	0.311
Mof_C 	C 	0.8624	0.8074	0.7431	0.299
Mof_C 	C 	0.865	0.8188	0.5043	0.296
Mof_C 	C 	0.1784	0.8527	0.8404	0.362
Mof_C 	C 	0.6632	0.8772	0.8647	0.309
_end
