data_functionalizedCrystal
_audit_creation_method	'EQeq! by Chris Wilmer'
_symmetry_space_group_name_H-M	'P1'
_symmetry_Int_Tables_number	1
_symmetry_cell_setting	triclinic
loop_
_symmetry_equiv_pos_as_xyz
  x,y,z
_cell_length_a	15.7211
_cell_length_b	15.7211
_cell_length_c	15.7211
_cell_angle_alpha	70.1062
_cell_angle_beta	71.3706
_cell_angle_gamma	109.894
loop_
_atom_site_label
_atom_site_type_symbol
_atom_site_fract_x
_atom_site_fract_y
_atom_site_fract_z
_atom_site_charge
Mof_Cu	Cu	0.90079	0.0494	0.53577	0.886
Mof_Cu	Cu	0.96423	0.56344	0.58517	0.887
Mof_Cu	Cu	0.35139	0.93656	0.59921	0.887
Mof_Cu	Cu	0.91483	0.4506	0.14861	0.886
Mof_Cu	Cu	0.08517	0.5494	0.85139	0.886
Mof_Cu	Cu	0.64861	0.06344	0.40079	0.887
Mof_Cu	Cu	0.03577	0.43656	0.41483	0.887
Mof_Cu	Cu	0.09921	0.9506	0.46423	0.886
Mof_H 	H 	0.7147	0.3944	0.1183	0.016
Mof_H 	H 	0.3817	0.167	0.5127	0.016
Mof_H 	H 	0.9873	0.1056	0.6797	0.012
Mof_H 	H 	0.6183	0.833	0.4873	0.016
Mof_H 	H 	0.2773	0.5655	0.0518	0.047
Mof_H 	H 	0.2118	0.8291	0.2227	0.048
Mof_H 	H 	0.0127	0.8944	0.3203	0.012
Mof_H 	H 	0.8203	0.333	0.7853	0.015
Mof_H 	H 	0.4482	0.6709	0.6173	0.048
Mof_H 	H 	0.2853	0.6056	0.8817	0.016
Mof_H 	H 	0.1173	0.0655	0.7118	0.05
Mof_H 	H 	0.7227	0.4345	0.9482	0.047
Mof_H 	H 	0.8827	0.9345	0.2882	0.05
Mof_H 	H 	0.1797	0.667	0.2147	0.015
Mof_H 	H 	0.5518	0.3291	0.3827	0.048
Mof_H 	H 	0.7882	0.1709	0.7773	0.048
Mof_C 	C 	0.2799	0.7236	0.6903	0.315
Mof_C 	C 	0.0923	0.0543	0.6682	-0.059
Mof_C 	C 	0.1903	0.9702	0.5861	0.311
Mof_C 	C 	0.556	0.8304	0.5204	0.025
Mof_C 	C 	0.6078	0.2254	0.3812	-0.045
Mof_C 	C 	0.8934	0.2746	0.6176	-0.045
Mof_C 	C 	0.444	0.1696	0.4796	0.025
Mof_C 	C 	0.7775	0.4457	0.962	-0.054
Mof_C 	C 	0.9077	0.9457	0.3318	-0.059
Mof_C 	C 	0.8508	0.3304	0.7256	0.025
Mof_C 	C 	0.9796	0.9236	0.3508	0.031
Mof_C 	C 	0.1188	0.011	0.6066	-0.042
Mof_C 	C 	0.2225	0.5543	0.038	-0.054
Mof_C 	C 	0.1066	0.7254	0.3824	-0.045
Mof_C 	C 	0.1176	0.511	0.1078	-0.046
Mof_C 	C 	0.1682	0.7605	0.2775	-0.055
Mof_C 	C 	0.538	0.2605	0.4077	-0.055
Mof_C 	C 	0.9139	0.2236	0.5563	0.315
Mof_C 	C 	0.0861	0.7764	0.4437	0.315
Mof_C 	C 	0.462	0.7395	0.5923	-0.055
Mof_C 	C 	0.8097	0.0298	0.4139	0.311
Mof_C 	C 	0.0204	0.0764	0.6492	0.031
Mof_C 	C 	0.9437	0.5298	0.7799	0.316
Mof_C 	C 	0.8318	0.2395	0.7225	-0.055
Mof_C 	C 	0.2256	0.5764	0.944	0.024
Mof_C 	C 	0.7744	0.4236	0.056	0.024
Mof_C 	C 	0.8824	0.489	0.8922	-0.046
Mof_C 	C 	0.7201	0.2764	0.3097	0.315
Mof_C 	C 	0.8812	0.989	0.3934	-0.042
Mof_C 	C 	0.0563	0.4702	0.2201	0.316
Mof_C 	C 	0.3922	0.7746	0.6188	-0.045
Mof_C 	C 	0.1492	0.6696	0.2744	0.025
Mof_N 	N 	0.1294	0.5496	0.9552	-0.195
Mof_N 	N 	0.5563	0.119	0.4349	-0.192
Mof_N 	N 	0.0539	0.619	0.4373	-0.192
Mof_N 	N 	0.0048	0.0496	0.5798	-0.195
Mof_N 	N 	0.9373	0.4912	0.9437	-0.192
Mof_N 	N 	0.5448	0.9154	0.5048	-0.195
Mof_N 	N 	0.0651	0.0088	0.5539	-0.192
Mof_N 	N 	0.9952	0.9504	0.4202	-0.195
Mof_N 	N 	0.8706	0.4504	0.0448	-0.195
Mof_N 	N 	0.0798	0.5846	0.3706	-0.195
Mof_N 	N 	0.0627	0.5088	0.0563	-0.192
Mof_N 	N 	0.4552	0.0846	0.4952	-0.195
Mof_N 	N 	0.9349	0.9912	0.4461	-0.192
Mof_N 	N 	0.9461	0.381	0.5627	-0.192
Mof_N 	N 	0.9202	0.4154	0.6294	-0.195
Mof_N 	N 	0.4437	0.881	0.5651	-0.192
Mof_O 	O 	0.24227	0.9717	0.63253	-0.398
Mof_O 	O 	0.80446	0.0599	0.47864	-0.404
Mof_O 	O 	0.10423	0.4717	0.27057	-0.398
Mof_O 	O 	0.75773	0.0283	0.36747	-0.398
Mof_O 	O 	0.02136	0.7169	0.53854	-0.405
Mof_O 	O 	0.19554	0.9401	0.52136	-0.404
Mof_O 	O 	0.96146	0.4401	0.25544	-0.405
Mof_O 	O 	0.13253	0.8748	0.39577	-0.398
Mof_O 	O 	0.24456	0.7831	0.69554	-0.405
Mof_O 	O 	0.03854	0.5599	0.74456	-0.405
Mof_O 	O 	0.75544	0.2169	0.30446	-0.405
Mof_O 	O 	0.97864	0.2831	0.46146	-0.405
Mof_O 	O 	0.77057	0.3748	0.25773	-0.398
Mof_O 	O 	0.22943	0.6252	0.74227	-0.398
Mof_O 	O 	0.89577	0.5283	0.72943	-0.398
Mof_O 	O 	0.86747	0.1252	0.60423	-0.398
_end
