data_functionalizedCrystal
_audit_creation_method	'EQeq! by Chris Wilmer'
_symmetry_space_group_name_H-M	'P1'
_symmetry_Int_Tables_number	1
_symmetry_cell_setting	triclinic
loop_
_symmetry_equiv_pos_as_xyz
  x,y,z
_cell_length_a	25.1335
_cell_length_b	25.1335
_cell_length_c	9.7454
_cell_angle_alpha	90
_cell_angle_beta	90
_cell_angle_gamma	90
loop_
_atom_site_label
_atom_site_type_symbol
_atom_site_fract_x
_atom_site_fract_y
_atom_site_fract_z
_atom_site_charge
Mof_In	In	0.70316	0.35607	0.69672	2.687
Mof_O 	O 	0.74059	0.38163	0.492	-0.451
Mof_O 	O 	0.81463	0.41697	0.4045	-0.514
Mof_O 	O 	0.78095	0.3921	0.7442	-0.518
Mof_O 	O 	0.84779	0.44036	0.6583	-0.405
Mof_O 	O 	0.73437	0.28084	0.5963	-0.485
Mof_O 	O 	0.76872	0.20055	0.6355	-0.464
Mof_O 	O 	0.64038	0.33544	0.5389	-0.449
Mof_O 	O 	0.55309	0.32806	0.5055	-0.146
Mof_O 	O 	0.62885	0.32812	0.8042	-0.473
Mof_O 	O 	0.5414	0.33075	0.7886	-0.161
Mof_C 	C 	0.78539	0.40324	0.5016	0.298
Mof_C 	C 	0.80659	0.41323	0.6476	0.275
Mof_C 	C 	0.75117	0.24477	0.6724	0.29
Mof_C 	C 	0.59266	0.3314	0.5798	0.258
Mof_C 	C 	0.58556	0.33006	0.7366	0.258
Mof_In	In	0.20316	0.85607	0.19672	2.688
Mof_O 	O 	0.24059	0.88163	0.992	-0.454
Mof_O 	O 	0.31463	0.91697	0.9045	-0.516
Mof_O 	O 	0.28095	0.8921	0.2442	-0.518
Mof_O 	O 	0.34779	0.94036	0.1583	-0.404
Mof_O 	O 	0.23437	0.78084	0.0963	-0.484
Mof_O 	O 	0.26872	0.70055	0.1355	-0.464
Mof_O 	O 	0.14038	0.83544	0.0389	-0.449
Mof_O 	O 	0.05309	0.82806	0.0055	-0.145
Mof_O 	O 	0.12885	0.82812	0.3042	-0.473
Mof_O 	O 	0.0414	0.83075	0.2886	-0.161
Mof_C 	C 	0.28539	0.90324	0.0016	0.303
Mof_C 	C 	0.30659	0.91323	0.1476	0.274
Mof_C 	C 	0.25117	0.74477	0.1724	0.289
Mof_C 	C 	0.09266	0.8314	0.0798	0.258
Mof_C 	C 	0.08556	0.83006	0.2366	0.258
Mof_In	In	0.79684	0.64393	0.19672	2.687
Mof_O 	O 	0.75941	0.61837	0.992	-0.452
Mof_O 	O 	0.68537	0.58303	0.9045	-0.515
Mof_O 	O 	0.71905	0.6079	0.2442	-0.518
Mof_O 	O 	0.65221	0.55964	0.1583	-0.404
Mof_O 	O 	0.76563	0.71916	0.0963	-0.484
Mof_O 	O 	0.73128	0.79945	0.1355	-0.464
Mof_O 	O 	0.85962	0.66456	0.0389	-0.449
Mof_O 	O 	0.94691	0.67194	0.0055	-0.146
Mof_O 	O 	0.87115	0.67188	0.3042	-0.473
Mof_O 	O 	0.9586	0.66925	0.2886	-0.161
Mof_C 	C 	0.71461	0.59676	0.0016	0.3
Mof_C 	C 	0.69341	0.58677	0.1476	0.274
Mof_C 	C 	0.74883	0.75523	0.1724	0.289
Mof_C 	C 	0.90734	0.6686	0.0798	0.258
Mof_C 	C 	0.91444	0.66994	0.2366	0.258
Mof_In	In	0.29684	0.14393	0.69672	2.687
Mof_O 	O 	0.25941	0.11837	0.492	-0.451
Mof_O 	O 	0.18537	0.08303	0.4045	-0.514
Mof_O 	O 	0.21905	0.1079	0.7442	-0.518
Mof_O 	O 	0.15221	0.05964	0.6583	-0.405
Mof_O 	O 	0.26563	0.21916	0.5963	-0.485
Mof_O 	O 	0.23128	0.29945	0.6355	-0.464
Mof_O 	O 	0.35962	0.16456	0.5389	-0.449
Mof_O 	O 	0.44691	0.17194	0.5055	-0.146
Mof_O 	O 	0.37115	0.17188	0.8042	-0.473
Mof_O 	O 	0.4586	0.16925	0.7886	-0.16
Mof_C 	C 	0.21461	0.09676	0.5016	0.298
Mof_C 	C 	0.19341	0.08677	0.6476	0.275
Mof_C 	C 	0.24883	0.25523	0.6724	0.29
Mof_C 	C 	0.40734	0.1686	0.5798	0.258
Mof_C 	C 	0.41444	0.16994	0.7366	0.258
Mof_In	In	0.39393	0.95316	0.94672	2.682
Mof_O 	O 	0.36837	0.99059	0.742	-0.451
Mof_O 	O 	0.33303	0.06463	0.6545	-0.514
Mof_O 	O 	0.3579	0.03095	0.9942	-0.517
Mof_O 	O 	0.30964	0.09779	0.9083	-0.404
Mof_O 	O 	0.46916	0.98437	0.8463	-0.485
Mof_O 	O 	0.54945	0.01872	0.8855	-0.464
Mof_O 	O 	0.41456	0.89038	0.7889	-0.449
Mof_O 	O 	0.42194	0.80309	0.7555	-0.146
Mof_O 	O 	0.42188	0.87885	0.0542	-0.47
Mof_O 	O 	0.41925	0.7914	0.0386	-0.158
Mof_C 	C 	0.34676	0.03539	0.7516	0.299
Mof_C 	C 	0.33677	0.05659	0.8976	0.274
Mof_C 	C 	0.50523	0.00117	0.9224	0.291
Mof_C 	C 	0.4186	0.84266	0.8298	0.259
Mof_C 	C 	0.41994	0.83556	0.9866	0.253
Mof_In	In	0.89393	0.45316	0.44672	2.687
Mof_O 	O 	0.86837	0.49059	0.242	-0.451
Mof_O 	O 	0.83303	0.56463	0.1545	-0.514
Mof_O 	O 	0.8579	0.53095	0.4942	-0.518
Mof_O 	O 	0.80964	0.59779	0.4083	-0.405
Mof_O 	O 	0.96916	0.48437	0.3463	-0.485
Mof_O 	O 	0.04945	0.51872	0.3855	-0.464
Mof_O 	O 	0.91456	0.39038	0.2889	-0.449
Mof_O 	O 	0.92194	0.30309	0.2555	-0.146
Mof_O 	O 	0.92188	0.37885	0.5542	-0.473
Mof_O 	O 	0.91925	0.2914	0.5386	-0.161
Mof_C 	C 	0.84676	0.53539	0.2516	0.298
Mof_C 	C 	0.83677	0.55659	0.3976	0.275
Mof_C 	C 	0.00523	0.50117	0.4224	0.289
Mof_C 	C 	0.9186	0.34266	0.3298	0.258
Mof_C 	C 	0.91994	0.33556	0.4866	0.258
Mof_In	In	0.10607	0.04684	0.44672	2.686
Mof_O 	O 	0.13163	0.00941	0.242	-0.452
Mof_O 	O 	0.16697	0.93537	0.1545	-0.514
Mof_O 	O 	0.1421	0.96905	0.4942	-0.518
Mof_O 	O 	0.19036	0.90221	0.4083	-0.405
Mof_O 	O 	0.03084	0.01563	0.3463	-0.485
Mof_O 	O 	0.95055	0.98128	0.3855	-0.464
Mof_O 	O 	0.08544	0.10962	0.2889	-0.45
Mof_O 	O 	0.07806	0.19691	0.2555	-0.146
Mof_O 	O 	0.07812	0.12115	0.5542	-0.473
Mof_O 	O 	0.08075	0.2086	0.5386	-0.161
Mof_C 	C 	0.15324	0.96461	0.2516	0.3
Mof_C 	C 	0.16323	0.94341	0.3976	0.274
Mof_C 	C 	0.99477	0.99883	0.4224	0.29
Mof_C 	C 	0.0814	0.15734	0.3298	0.258
Mof_C 	C 	0.08006	0.16444	0.4866	0.258
Mof_In	In	0.60607	0.54684	0.94672	2.686
Mof_O 	O 	0.63163	0.50941	0.742	-0.451
Mof_O 	O 	0.66697	0.43537	0.6545	-0.514
Mof_O 	O 	0.6421	0.46905	0.9942	-0.518
Mof_O 	O 	0.69036	0.40221	0.9083	-0.405
Mof_O 	O 	0.53084	0.51563	0.8463	-0.485
Mof_O 	O 	0.45055	0.48128	0.8855	-0.464
Mof_O 	O 	0.58544	0.60962	0.7889	-0.449
Mof_O 	O 	0.57806	0.69691	0.7555	-0.146
Mof_O 	O 	0.57812	0.62115	0.0542	-0.471
Mof_O 	O 	0.58075	0.7086	0.0386	-0.159
Mof_C 	C 	0.65324	0.46461	0.7516	0.298
Mof_C 	C 	0.66323	0.44341	0.8976	0.275
Mof_C 	C 	0.49477	0.49883	0.9224	0.29
Mof_C 	C 	0.5814	0.65734	0.8298	0.259
Mof_C 	C 	0.58006	0.66444	0.9866	0.254
Mof_In	In	0.29684	0.64393	0.30328	2.687
Mof_O 	O 	0.25941	0.61837	0.508	-0.451
Mof_O 	O 	0.18537	0.58303	0.5955	-0.514
Mof_O 	O 	0.21905	0.6079	0.2558	-0.518
Mof_O 	O 	0.15221	0.55964	0.3417	-0.405
Mof_O 	O 	0.26563	0.71916	0.4037	-0.485
Mof_O 	O 	0.23128	0.79945	0.3645	-0.464
Mof_O 	O 	0.35962	0.66456	0.4611	-0.449
Mof_O 	O 	0.44691	0.67194	0.4945	-0.146
Mof_O 	O 	0.37115	0.67188	0.1958	-0.473
Mof_O 	O 	0.4586	0.66925	0.2114	-0.161
Mof_C 	C 	0.21461	0.59676	0.4984	0.298
Mof_C 	C 	0.19341	0.58677	0.3524	0.275
Mof_C 	C 	0.24883	0.75523	0.3276	0.29
Mof_C 	C 	0.40734	0.6686	0.4202	0.258
Mof_C 	C 	0.41444	0.66994	0.2634	0.258
Mof_In	In	0.79684	0.14393	0.80328	2.688
Mof_O 	O 	0.75941	0.11837	0.008	-0.454
Mof_O 	O 	0.68537	0.08303	0.0955	-0.516
Mof_O 	O 	0.71905	0.1079	0.7558	-0.518
Mof_O 	O 	0.65221	0.05964	0.8417	-0.404
Mof_O 	O 	0.76563	0.21916	0.9037	-0.484
Mof_O 	O 	0.73128	0.29945	0.8645	-0.464
Mof_O 	O 	0.85962	0.16456	0.9611	-0.449
Mof_O 	O 	0.94691	0.17194	0.9945	-0.145
Mof_O 	O 	0.87115	0.17188	0.6958	-0.473
Mof_O 	O 	0.9586	0.16925	0.7114	-0.161
Mof_C 	C 	0.71461	0.09676	0.9984	0.303
Mof_C 	C 	0.69341	0.08677	0.8524	0.274
Mof_C 	C 	0.74883	0.25523	0.8276	0.289
Mof_C 	C 	0.90734	0.1686	0.9202	0.258
Mof_C 	C 	0.91444	0.16994	0.7634	0.258
Mof_In	In	0.20316	0.35607	0.80328	2.687
Mof_O 	O 	0.24059	0.38163	0.008	-0.452
Mof_O 	O 	0.31463	0.41697	0.0955	-0.515
Mof_O 	O 	0.28095	0.3921	0.7558	-0.518
Mof_O 	O 	0.34779	0.44036	0.8417	-0.404
Mof_O 	O 	0.23437	0.28084	0.9037	-0.484
Mof_O 	O 	0.26872	0.20055	0.8645	-0.464
Mof_O 	O 	0.14038	0.33544	0.9611	-0.449
Mof_O 	O 	0.05309	0.32806	0.9945	-0.146
Mof_O 	O 	0.12885	0.32812	0.6958	-0.473
Mof_O 	O 	0.0414	0.33075	0.7114	-0.161
Mof_C 	C 	0.28539	0.40324	0.9984	0.3
Mof_C 	C 	0.30659	0.41323	0.8524	0.274
Mof_C 	C 	0.25117	0.24477	0.8276	0.289
Mof_C 	C 	0.09266	0.3314	0.9202	0.258
Mof_C 	C 	0.08556	0.33006	0.7634	0.258
Mof_In	In	0.70316	0.85607	0.30328	2.687
Mof_O 	O 	0.74059	0.88163	0.508	-0.451
Mof_O 	O 	0.81463	0.91697	0.5955	-0.514
Mof_O 	O 	0.78095	0.8921	0.2558	-0.518
Mof_O 	O 	0.84779	0.94036	0.3417	-0.405
Mof_O 	O 	0.73437	0.78084	0.4037	-0.485
Mof_O 	O 	0.76872	0.70055	0.3645	-0.464
Mof_O 	O 	0.64038	0.83544	0.4611	-0.449
Mof_O 	O 	0.55309	0.82806	0.4945	-0.146
Mof_O 	O 	0.62885	0.82812	0.1958	-0.473
Mof_O 	O 	0.5414	0.83075	0.2114	-0.16
Mof_C 	C 	0.78539	0.90324	0.4984	0.298
Mof_C 	C 	0.80659	0.91323	0.3524	0.275
Mof_C 	C 	0.75117	0.74477	0.3276	0.29
Mof_C 	C 	0.59266	0.8314	0.4202	0.258
Mof_C 	C 	0.58556	0.83006	0.2634	0.258
Mof_In	In	0.60607	0.04684	0.05328	2.682
Mof_O 	O 	0.63163	0.00941	0.258	-0.451
Mof_O 	O 	0.66697	0.93537	0.3455	-0.514
Mof_O 	O 	0.6421	0.96905	0.0058	-0.517
Mof_O 	O 	0.69036	0.90221	0.0917	-0.404
Mof_O 	O 	0.53084	0.01563	0.1537	-0.485
Mof_O 	O 	0.45055	0.98128	0.1145	-0.464
Mof_O 	O 	0.58544	0.10962	0.2111	-0.449
Mof_O 	O 	0.57806	0.19691	0.2445	-0.146
Mof_O 	O 	0.57812	0.12115	0.9458	-0.47
Mof_O 	O 	0.58075	0.2086	0.9614	-0.158
Mof_C 	C 	0.65324	0.96461	0.2484	0.299
Mof_C 	C 	0.66323	0.94341	0.1024	0.274
Mof_C 	C 	0.49477	0.99883	0.0776	0.291
Mof_C 	C 	0.5814	0.15734	0.1702	0.259
Mof_C 	C 	0.58006	0.16444	0.0134	0.253
Mof_In	In	0.10607	0.54684	0.55328	2.687
Mof_O 	O 	0.13163	0.50941	0.758	-0.451
Mof_O 	O 	0.16697	0.43537	0.8455	-0.514
Mof_O 	O 	0.1421	0.46905	0.5058	-0.518
Mof_O 	O 	0.19036	0.40221	0.5917	-0.405
Mof_O 	O 	0.03084	0.51563	0.6537	-0.485
Mof_O 	O 	0.95055	0.48128	0.6145	-0.464
Mof_O 	O 	0.08544	0.60962	0.7111	-0.449
Mof_O 	O 	0.07806	0.69691	0.7445	-0.146
Mof_O 	O 	0.07812	0.62115	0.4458	-0.473
Mof_O 	O 	0.08075	0.7086	0.4614	-0.161
Mof_C 	C 	0.15324	0.46461	0.7484	0.298
Mof_C 	C 	0.16323	0.44341	0.6024	0.275
Mof_C 	C 	0.99477	0.49883	0.5776	0.289
Mof_C 	C 	0.0814	0.65734	0.6702	0.258
Mof_C 	C 	0.08006	0.66444	0.5134	0.258
Mof_In	In	0.89393	0.95316	0.55328	2.686
Mof_O 	O 	0.86837	0.99059	0.758	-0.452
Mof_O 	O 	0.83303	0.06463	0.8455	-0.514
Mof_O 	O 	0.8579	0.03095	0.5058	-0.518
Mof_O 	O 	0.80964	0.09779	0.5917	-0.405
Mof_O 	O 	0.96916	0.98437	0.6537	-0.485
Mof_O 	O 	0.04945	0.01872	0.6145	-0.464
Mof_O 	O 	0.91456	0.89038	0.7111	-0.45
Mof_O 	O 	0.92194	0.80309	0.7445	-0.146
Mof_O 	O 	0.92188	0.87885	0.4458	-0.473
Mof_O 	O 	0.91925	0.7914	0.4614	-0.161
Mof_C 	C 	0.84676	0.03539	0.7484	0.3
Mof_C 	C 	0.83677	0.05659	0.6024	0.274
Mof_C 	C 	0.00523	0.00117	0.5776	0.29
Mof_C 	C 	0.9186	0.84266	0.6702	0.258
Mof_C 	C 	0.91994	0.83556	0.5134	0.258
Mof_In	In	0.39393	0.45316	0.05328	2.686
Mof_O 	O 	0.36837	0.49059	0.258	-0.451
Mof_O 	O 	0.33303	0.56463	0.3455	-0.514
Mof_O 	O 	0.3579	0.53095	0.0058	-0.518
Mof_O 	O 	0.30964	0.59779	0.0917	-0.405
Mof_O 	O 	0.46916	0.48437	0.1537	-0.485
Mof_O 	O 	0.54945	0.51872	0.1145	-0.464
Mof_O 	O 	0.41456	0.39038	0.2111	-0.449
Mof_O 	O 	0.42194	0.30309	0.2445	-0.146
Mof_O 	O 	0.42188	0.37885	0.9458	-0.471
Mof_O 	O 	0.41925	0.2914	0.9614	-0.159
Mof_C 	C 	0.34676	0.53539	0.2484	0.298
Mof_C 	C 	0.33677	0.55659	0.1024	0.275
Mof_C 	C 	0.50523	0.50117	0.0776	0.29
Mof_C 	C 	0.4186	0.34266	0.1702	0.259
Mof_C 	C 	0.41994	0.33556	0.0134	0.254
_end
