data_functionalizedCrystal
_audit_creation_method	'EQeq! by Chris Wilmer'
_symmetry_space_group_name_H-M	'P1'
_symmetry_Int_Tables_number	1
_symmetry_cell_setting	triclinic
loop_
_symmetry_equiv_pos_as_xyz
  x,y,z
_cell_length_a	27.8114
_cell_length_b	27.8114
_cell_length_c	3.6899
_cell_angle_alpha	90
_cell_angle_beta	90
_cell_angle_gamma	90
loop_
_atom_site_label
_atom_site_type_symbol
_atom_site_fract_x
_atom_site_fract_y
_atom_site_fract_z
_atom_site_charge
Mof_Zn	Zn	0.28362	0.21399	0.8644	1.201
Mof_N 	N 	0.2599	0.145	0.804	-0.277
Mof_C 	C 	0.2801	0.108	0.958	0.109
Mof_H 	H 	0.31	0.1094	0.0717	0.004
Mof_N 	N 	0.2533	0.0673	0.938	-0.17
Mof_C 	C 	0.2145	0.1292	0.6621	0.033
Mof_O 	O 	0.2762	0.8587	0.6	-0.534
Mof_C 	C 	0.1783	0.1527	0.476	-0.122
Mof_H 	H 	0.1811	0.1852	0.4203	0.047
Mof_O 	O 	0.342	0.866	0.283	-0.251
Mof_C 	C 	0.1379	0.1269	0.374	0.047
Mof_C 	C 	0.1012	0.149	0.184	-0.088
Mof_H 	H 	0.1041	0.1814	0.1257	0.072
Mof_C 	C 	0.0601	0.1244	0.077	-0.025
Mof_H 	H 	0.0355	0.1396	0.9503	0.031
Mof_C 	C 	0.0577	0.0759	0.17	-0.026
Mof_H 	H 	0.0307	0.0582	0.1037	0.032
Mof_C 	C 	0.0945	0.0534	0.359	-0.09
Mof_H 	H 	0.0918	0.0209	0.414	0.058
Mof_C 	C 	0.1355	0.0786	0.4667	0.05
Mof_C 	C 	0.1714	0.0545	0.652	-0.139
Mof_H 	H 	0.1688	0.0219	0.7043	0.077
Mof_C 	C 	0.2115	0.0807	0.758	0.091
Mof_C 	C 	0.2451	0.9446	0.305	0.146
Mof_H 	H 	0.2217	0.9233	0.3872	-0.009
Mof_C 	C 	0.2932	0.9311	0.306	-0.21
Mof_C 	C 	0.3281	0.963	0.184	0.167
Mof_H 	H 	0.3603	0.9539	0.1842	0.006
Mof_C 	C 	0.315	0.0084	0.061	-0.242
Mof_H 	H 	0.3383	0.0297	0.9793	0.137
Mof_C 	C 	0.2668	0.0219	0.0605	0.21
Mof_C 	C 	0.2319	0.99	0.183	-0.228
Mof_H 	H 	0.1997	0.9991	0.1823	0.111
Mof_C 	C 	0.3026	0.8808	0.446	0.558
Mof_O 	O 	0.2857	0.2466	0.381	-0.741
Mof_H 	H 	0.3085	0.2345	0.2582	0.159
Mof_O 	O 	0.3441	0.8765	0.612	-0.208
Mof_Zn	Zn	0.71638	0.78601	0.8644	1.202
Mof_N 	N 	0.7401	0.855	0.804	-0.276
Mof_C 	C 	0.7199	0.892	0.958	0.11
Mof_H 	H 	0.69	0.8906	0.0717	0.005
Mof_N 	N 	0.7467	0.9327	0.938	-0.169
Mof_C 	C 	0.7855	0.8708	0.6621	0.034
Mof_O 	O 	0.7238	0.1413	0.6	-0.533
Mof_C 	C 	0.8217	0.8473	0.476	-0.121
Mof_H 	H 	0.8189	0.8148	0.4203	0.047
Mof_O 	O 	0.658	0.134	0.283	-0.251
Mof_C 	C 	0.8621	0.8731	0.374	0.047
Mof_C 	C 	0.8988	0.851	0.184	-0.088
Mof_H 	H 	0.8959	0.8186	0.1257	0.072
Mof_C 	C 	0.9399	0.8756	0.077	-0.025
Mof_H 	H 	0.9645	0.8604	0.9503	0.031
Mof_C 	C 	0.9423	0.9241	0.17	-0.026
Mof_H 	H 	0.9693	0.9418	0.1037	0.032
Mof_C 	C 	0.9055	0.9466	0.359	-0.09
Mof_H 	H 	0.9082	0.9791	0.414	0.058
Mof_C 	C 	0.8645	0.9214	0.4667	0.05
Mof_C 	C 	0.8286	0.9455	0.652	-0.139
Mof_H 	H 	0.8312	0.9781	0.7043	0.077
Mof_C 	C 	0.7885	0.9193	0.758	0.091
Mof_C 	C 	0.7549	0.0554	0.305	0.146
Mof_H 	H 	0.7783	0.0767	0.3872	-0.009
Mof_C 	C 	0.7068	0.0689	0.306	-0.21
Mof_C 	C 	0.6719	0.037	0.184	0.167
Mof_H 	H 	0.6397	0.0461	0.1842	0.006
Mof_C 	C 	0.685	0.9916	0.061	-0.242
Mof_H 	H 	0.6617	0.9703	0.9793	0.137
Mof_C 	C 	0.7332	0.9781	0.0605	0.21
Mof_C 	C 	0.7681	0.01	0.183	-0.228
Mof_H 	H 	0.8003	0.0009	0.1823	0.111
Mof_C 	C 	0.6974	0.1192	0.446	0.558
Mof_O 	O 	0.7143	0.7534	0.381	-0.741
Mof_H 	H 	0.6915	0.7655	0.2582	0.159
Mof_O 	O 	0.6559	0.1235	0.612	-0.208
Mof_Zn	Zn	0.71399	0.21638	0.6356	1.199
Mof_N 	N 	0.645	0.2401	0.696	-0.274
Mof_C 	C 	0.608	0.2199	0.542	0.097
Mof_H 	H 	0.6094	0.19	0.4283	0.014
Mof_N 	N 	0.5673	0.2467	0.562	-0.168
Mof_C 	C 	0.6292	0.2855	0.8379	0.024
Mof_O 	O 	0.3587	0.2238	0.9	-0.515
Mof_C 	C 	0.6527	0.3217	0.024	-0.109
Mof_H 	H 	0.6852	0.3189	0.0797	0.046
Mof_O 	O 	0.366	0.158	0.217	-0.253
Mof_C 	C 	0.6269	0.3621	0.126	0.042
Mof_C 	C 	0.649	0.3988	0.316	-0.084
Mof_H 	H 	0.6814	0.3959	0.3743	0.072
Mof_C 	C 	0.6244	0.4399	0.423	-0.026
Mof_H 	H 	0.6396	0.4645	0.5497	0.031
Mof_C 	C 	0.5759	0.4423	0.33	-0.024
Mof_H 	H 	0.5582	0.4693	0.3963	0.032
Mof_C 	C 	0.5534	0.4055	0.141	-0.093
Mof_H 	H 	0.5209	0.4082	0.086	0.059
Mof_C 	C 	0.5786	0.3645	0.0333	0.056
Mof_C 	C 	0.5545	0.3286	0.848	-0.145
Mof_H 	H 	0.5219	0.3312	0.7957	0.08
Mof_C 	C 	0.5807	0.2885	0.742	0.096
Mof_C 	C 	0.4446	0.2549	0.195	0.138
Mof_H 	H 	0.4233	0.2783	0.1128	-0.009
Mof_C 	C 	0.4311	0.2068	0.194	-0.2
Mof_C 	C 	0.463	0.1719	0.316	0.156
Mof_H 	H 	0.4539	0.1397	0.3158	0.01
Mof_C 	C 	0.5084	0.185	0.439	-0.23
Mof_H 	H 	0.5297	0.1617	0.5207	0.131
Mof_C 	C 	0.5219	0.2332	0.4395	0.207
Mof_C 	C 	0.49	0.2681	0.317	-0.223
Mof_H 	H 	0.4991	0.3003	0.3177	0.109
Mof_C 	C 	0.3808	0.1974	0.054	0.531
Mof_O 	O 	0.7466	0.2143	0.119	-0.736
Mof_H 	H 	0.7345	0.1915	0.2418	0.161
Mof_O 	O 	0.3765	0.1559	0.888	-0.194
Mof_Zn	Zn	0.28601	0.78362	0.6356	1.199
Mof_N 	N 	0.355	0.7599	0.696	-0.274
Mof_C 	C 	0.392	0.7801	0.542	0.097
Mof_H 	H 	0.3906	0.81	0.4283	0.014
Mof_N 	N 	0.4327	0.7533	0.562	-0.168
Mof_C 	C 	0.3708	0.7145	0.8379	0.024
Mof_O 	O 	0.6413	0.7762	0.9	-0.515
Mof_C 	C 	0.3473	0.6783	0.024	-0.109
Mof_H 	H 	0.3148	0.6811	0.0797	0.046
Mof_O 	O 	0.634	0.842	0.217	-0.253
Mof_C 	C 	0.3731	0.6379	0.126	0.042
Mof_C 	C 	0.351	0.6012	0.316	-0.084
Mof_H 	H 	0.3186	0.6041	0.3743	0.072
Mof_C 	C 	0.3756	0.5601	0.423	-0.026
Mof_H 	H 	0.3604	0.5355	0.5497	0.031
Mof_C 	C 	0.4241	0.5577	0.33	-0.024
Mof_H 	H 	0.4418	0.5307	0.3963	0.032
Mof_C 	C 	0.4466	0.5945	0.141	-0.093
Mof_H 	H 	0.4791	0.5918	0.086	0.059
Mof_C 	C 	0.4214	0.6355	0.0333	0.056
Mof_C 	C 	0.4455	0.6714	0.848	-0.145
Mof_H 	H 	0.4781	0.6688	0.7957	0.08
Mof_C 	C 	0.4193	0.7115	0.742	0.096
Mof_C 	C 	0.5554	0.7451	0.195	0.138
Mof_H 	H 	0.5767	0.7217	0.1128	-0.009
Mof_C 	C 	0.5689	0.7932	0.194	-0.2
Mof_C 	C 	0.537	0.8281	0.316	0.156
Mof_H 	H 	0.5461	0.8603	0.3158	0.01
Mof_C 	C 	0.4916	0.815	0.439	-0.23
Mof_H 	H 	0.4703	0.8383	0.5207	0.131
Mof_C 	C 	0.4781	0.7668	0.4395	0.207
Mof_C 	C 	0.51	0.7319	0.317	-0.223
Mof_H 	H 	0.5009	0.6997	0.3177	0.109
Mof_C 	C 	0.6192	0.8026	0.054	0.531
Mof_O 	O 	0.2534	0.7857	0.119	-0.736
Mof_H 	H 	0.2655	0.8085	0.2418	0.161
Mof_O 	O 	0.6235	0.8441	0.888	-0.194
Mof_Zn	Zn	0.78362	0.71399	0.3644	1.199
Mof_N 	N 	0.7599	0.645	0.304	-0.274
Mof_C 	C 	0.7801	0.608	0.458	0.097
Mof_H 	H 	0.81	0.6094	0.5717	0.014
Mof_N 	N 	0.7533	0.5673	0.438	-0.168
Mof_C 	C 	0.7145	0.6292	0.1621	0.024
Mof_O 	O 	0.7762	0.3587	0.1	-0.515
Mof_C 	C 	0.6783	0.6527	0.976	-0.109
Mof_H 	H 	0.6811	0.6852	0.9203	0.046
Mof_O 	O 	0.842	0.366	0.783	-0.253
Mof_C 	C 	0.6379	0.6269	0.874	0.042
Mof_C 	C 	0.6012	0.649	0.684	-0.084
Mof_H 	H 	0.6041	0.6814	0.6257	0.072
Mof_C 	C 	0.5601	0.6244	0.577	-0.026
Mof_H 	H 	0.5355	0.6396	0.4503	0.031
Mof_C 	C 	0.5577	0.5759	0.67	-0.024
Mof_H 	H 	0.5307	0.5582	0.6037	0.032
Mof_C 	C 	0.5945	0.5534	0.859	-0.093
Mof_H 	H 	0.5918	0.5209	0.914	0.059
Mof_C 	C 	0.6355	0.5786	0.9667	0.056
Mof_C 	C 	0.6714	0.5545	0.152	-0.145
Mof_H 	H 	0.6688	0.5219	0.2043	0.08
Mof_C 	C 	0.7115	0.5807	0.258	0.096
Mof_C 	C 	0.7451	0.4446	0.805	0.138
Mof_H 	H 	0.7217	0.4233	0.8872	-0.009
Mof_C 	C 	0.7932	0.4311	0.806	-0.2
Mof_C 	C 	0.8281	0.463	0.684	0.156
Mof_H 	H 	0.8603	0.4539	0.6842	0.01
Mof_C 	C 	0.815	0.5084	0.561	-0.23
Mof_H 	H 	0.8383	0.5297	0.4793	0.131
Mof_C 	C 	0.7668	0.5219	0.5605	0.207
Mof_C 	C 	0.7319	0.49	0.683	-0.223
Mof_H 	H 	0.6997	0.4991	0.6823	0.109
Mof_C 	C 	0.8026	0.3808	0.946	0.531
Mof_O 	O 	0.7857	0.7466	0.881	-0.736
Mof_H 	H 	0.8085	0.7345	0.7582	0.161
Mof_O 	O 	0.8441	0.3765	0.112	-0.194
Mof_Zn	Zn	0.21638	0.28601	0.3644	1.199
Mof_N 	N 	0.2401	0.355	0.304	-0.274
Mof_C 	C 	0.2199	0.392	0.458	0.097
Mof_H 	H 	0.19	0.3906	0.5717	0.014
Mof_N 	N 	0.2467	0.4327	0.438	-0.168
Mof_C 	C 	0.2855	0.3708	0.1621	0.024
Mof_O 	O 	0.2238	0.6413	0.1	-0.515
Mof_C 	C 	0.3217	0.3473	0.976	-0.109
Mof_H 	H 	0.3189	0.3148	0.9203	0.046
Mof_O 	O 	0.158	0.634	0.783	-0.253
Mof_C 	C 	0.3621	0.3731	0.874	0.042
Mof_C 	C 	0.3988	0.351	0.684	-0.084
Mof_H 	H 	0.3959	0.3186	0.6257	0.072
Mof_C 	C 	0.4399	0.3756	0.577	-0.026
Mof_H 	H 	0.4645	0.3604	0.4503	0.031
Mof_C 	C 	0.4423	0.4241	0.67	-0.024
Mof_H 	H 	0.4693	0.4418	0.6037	0.032
Mof_C 	C 	0.4055	0.4466	0.859	-0.093
Mof_H 	H 	0.4082	0.4791	0.914	0.059
Mof_C 	C 	0.3645	0.4214	0.9667	0.056
Mof_C 	C 	0.3286	0.4455	0.152	-0.145
Mof_H 	H 	0.3312	0.4781	0.2043	0.08
Mof_C 	C 	0.2885	0.4193	0.258	0.096
Mof_C 	C 	0.2549	0.5554	0.805	0.138
Mof_H 	H 	0.2783	0.5767	0.8872	-0.009
Mof_C 	C 	0.2068	0.5689	0.806	-0.2
Mof_C 	C 	0.1719	0.537	0.684	0.156
Mof_H 	H 	0.1397	0.5461	0.6842	0.01
Mof_C 	C 	0.185	0.4916	0.561	-0.23
Mof_H 	H 	0.1617	0.4703	0.4793	0.131
Mof_C 	C 	0.2332	0.4781	0.5605	0.207
Mof_C 	C 	0.2681	0.51	0.683	-0.223
Mof_H 	H 	0.3003	0.5009	0.6823	0.109
Mof_C 	C 	0.1974	0.6192	0.946	0.531
Mof_O 	O 	0.2143	0.2534	0.881	-0.736
Mof_H 	H 	0.1915	0.2655	0.7582	0.161
Mof_O 	O 	0.1559	0.6235	0.112	-0.194
Mof_Zn	Zn	0.21399	0.71638	0.1356	1.202
Mof_N 	N 	0.145	0.7401	0.196	-0.276
Mof_C 	C 	0.108	0.7199	0.042	0.11
Mof_H 	H 	0.1094	0.69	0.9283	0.005
Mof_N 	N 	0.0673	0.7467	0.062	-0.169
Mof_C 	C 	0.1292	0.7855	0.3379	0.034
Mof_O 	O 	0.8587	0.7238	0.4	-0.533
Mof_C 	C 	0.1527	0.8217	0.524	-0.121
Mof_H 	H 	0.1852	0.8189	0.5797	0.047
Mof_O 	O 	0.866	0.658	0.717	-0.251
Mof_C 	C 	0.1269	0.8621	0.626	0.047
Mof_C 	C 	0.149	0.8988	0.816	-0.088
Mof_H 	H 	0.1814	0.8959	0.8743	0.072
Mof_C 	C 	0.1244	0.9399	0.923	-0.025
Mof_H 	H 	0.1396	0.9645	0.0497	0.031
Mof_C 	C 	0.0759	0.9423	0.83	-0.026
Mof_H 	H 	0.0582	0.9693	0.8963	0.032
Mof_C 	C 	0.0534	0.9055	0.641	-0.09
Mof_H 	H 	0.0209	0.9082	0.586	0.058
Mof_C 	C 	0.0786	0.8645	0.5333	0.05
Mof_C 	C 	0.0545	0.8286	0.348	-0.139
Mof_H 	H 	0.0219	0.8312	0.2957	0.077
Mof_C 	C 	0.0807	0.7885	0.242	0.091
Mof_C 	C 	0.9446	0.7549	0.695	0.146
Mof_H 	H 	0.9233	0.7783	0.6128	-0.009
Mof_C 	C 	0.9311	0.7068	0.694	-0.21
Mof_C 	C 	0.963	0.6719	0.816	0.167
Mof_H 	H 	0.9539	0.6397	0.8158	0.006
Mof_C 	C 	0.0084	0.685	0.939	-0.242
Mof_H 	H 	0.0297	0.6617	0.0207	0.137
Mof_C 	C 	0.0219	0.7332	0.9395	0.21
Mof_C 	C 	0.99	0.7681	0.817	-0.228
Mof_H 	H 	0.9991	0.8003	0.8177	0.111
Mof_C 	C 	0.8808	0.6974	0.554	0.558
Mof_O 	O 	0.2466	0.7143	0.619	-0.741
Mof_H 	H 	0.2345	0.6915	0.7418	0.159
Mof_O 	O 	0.8765	0.6559	0.388	-0.208
Mof_Zn	Zn	0.78601	0.28362	0.1356	1.202
Mof_N 	N 	0.855	0.2599	0.196	-0.276
Mof_C 	C 	0.892	0.2801	0.042	0.11
Mof_H 	H 	0.8906	0.31	0.9283	0.005
Mof_N 	N 	0.9327	0.2533	0.062	-0.169
Mof_C 	C 	0.8708	0.2145	0.3379	0.034
Mof_O 	O 	0.1413	0.2762	0.4	-0.533
Mof_C 	C 	0.8473	0.1783	0.524	-0.121
Mof_H 	H 	0.8148	0.1811	0.5797	0.047
Mof_O 	O 	0.134	0.342	0.717	-0.251
Mof_C 	C 	0.8731	0.1379	0.626	0.047
Mof_C 	C 	0.851	0.1012	0.816	-0.088
Mof_H 	H 	0.8186	0.1041	0.8743	0.072
Mof_C 	C 	0.8756	0.0601	0.923	-0.025
Mof_H 	H 	0.8604	0.0355	0.0497	0.031
Mof_C 	C 	0.9241	0.0577	0.83	-0.026
Mof_H 	H 	0.9418	0.0307	0.8963	0.032
Mof_C 	C 	0.9466	0.0945	0.641	-0.09
Mof_H 	H 	0.9791	0.0918	0.586	0.058
Mof_C 	C 	0.9214	0.1355	0.5333	0.05
Mof_C 	C 	0.9455	0.1714	0.348	-0.139
Mof_H 	H 	0.9781	0.1688	0.2957	0.077
Mof_C 	C 	0.9193	0.2115	0.242	0.091
Mof_C 	C 	0.0554	0.2451	0.695	0.146
Mof_H 	H 	0.0767	0.2217	0.6128	-0.009
Mof_C 	C 	0.0689	0.2932	0.694	-0.21
Mof_C 	C 	0.037	0.3281	0.816	0.167
Mof_H 	H 	0.0461	0.3603	0.8158	0.006
Mof_C 	C 	0.9916	0.315	0.939	-0.242
Mof_H 	H 	0.9703	0.3383	0.0207	0.137
Mof_C 	C 	0.9781	0.2668	0.9395	0.21
Mof_C 	C 	0.01	0.2319	0.817	-0.228
Mof_H 	H 	0.0009	0.1997	0.8177	0.111
Mof_C 	C 	0.1192	0.3026	0.554	0.558
Mof_O 	O 	0.7534	0.2857	0.619	-0.741
Mof_H 	H 	0.7655	0.3085	0.7418	0.159
Mof_O 	O 	0.1235	0.3441	0.388	-0.208
_end
