data_functionalizedCrystal
_audit_creation_method	'EQeq! by Chris Wilmer'
_symmetry_space_group_name_H-M	'P1'
_symmetry_Int_Tables_number	1
_symmetry_cell_setting	triclinic
loop_
_symmetry_equiv_pos_as_xyz
  x,y,z
_cell_length_a	13.1451
_cell_length_b	31.9683
_cell_length_c	38.8933
_cell_angle_alpha	90
_cell_angle_beta	90
_cell_angle_gamma	90
loop_
_atom_site_label
_atom_site_type_symbol
_atom_site_fract_x
_atom_site_fract_y
_atom_site_fract_z
_atom_site_charge
Mof_Zn	Zn	0.40127	0.40996	0.92564	1.234
Mof_Zn	Zn	0.58418	0.34137	0.92783	1.185
Mof_C 	C 	0.0121	0.1385	0.7313	-0.022
Mof_C 	C 	0.9193	0.1492	0.7166	0.18
Mof_C 	C 	0.8762	0.1237	0.6916	-0.266
Mof_H 	H 	0.8141	0.1309	0.6818	0.068
Mof_C 	C 	0.9259	0.0874	0.6813	-0.022
Mof_C 	C 	0.0187	0.0767	0.696	0.029
Mof_C 	C 	0.0618	0.1022	0.721	0
Mof_C 	C 	0.1564	0.0921	0.7348	-0.055
Mof_H 	H 	0.1828	0.1086	0.7524	0.052
Mof_C 	C 	0.2137	0.0574	0.723	-0.06
Mof_H 	H 	0.2768	0.0512	0.7325	0.048
Mof_C 	C 	0.1718	0.0315	0.6955	0.006
Mof_C 	C 	0.0758	0.0421	0.6833	-0.098
Mof_H 	H 	0.0475	0.0258	0.666	0.073
Mof_C 	C 	0.0516	0.1674	0.76165	-0.115
Mof_C 	C 	0.1038	0.2033	0.75183	0.247
Mof_C 	C 	0.1507	0.2281	0.77653	-0.225
Mof_H 	H 	0.1857	0.2521	0.77	0.094
Mof_C 	C 	0.1454	0.217	0.81105	0.052
Mof_C 	C 	0.0932	0.1811	0.82086	-0.06
Mof_C 	C 	0.0463	0.15631	0.79617	0.116
Mof_C 	C 	0.9938	0.1213	0.8075	-0.162
Mof_H 	H 	0.9644	0.104	0.7911	0.082
Mof_C 	C 	0.9828	0.111	0.8404	-0.004
Mof_H 	H 	0.9463	0.0871	0.8462	0.023
Mof_C 	C 	0.0261	0.1361	0.8668	-0.048
Mof_C 	C 	0.0819	0.171	0.8562	-0.017
Mof_H 	H 	0.1125	0.1879	0.8727	0.032
Mof_C 	C 	0.2059	0.244	0.83514	0.058
Mof_C 	C 	0.1771	0.2854	0.83999	-0.139
Mof_H 	H 	0.1194	0.2958	0.8291	0.091
Mof_C 	C 	0.2347	0.31132	0.8611	0.072
Mof_H 	H 	0.2154	0.339	0.8643	0.019
Mof_C 	C 	0.321	0.2958	0.87734	-0.163
Mof_C 	C 	0.3498	0.2544	0.87249	0.057
Mof_H 	H 	0.4075	0.244	0.8834	0.002
Mof_C 	C 	0.2923	0.22848	0.8514	-0.147
Mof_H 	H 	0.3115	0.2008	0.8481	0.072
Mof_O 	O 	0.4755	0.312	0.9058	-0.529
Mof_O 	O 	0.3467	0.3585	0.9058	-0.501
Mof_C 	C 	0.0134	0.1275	0.90392	0.189
Mof_C 	C 	0.094	0.135	0.92618	-0.251
Mof_H 	H 	0.156	0.1444	0.9176	0.093
Mof_C 	C 	0.0822	0.1285	0.96128	0.205
Mof_H 	H 	0.1361	0.1336	0.9762	-0.056
Mof_C 	C 	0.9896	0.1145	0.97414	-0.3
Mof_C 	C 	0.9089	0.1069	0.95188	0.19
Mof_H 	H 	0.847	0.0975	0.9605	-0.021
Mof_C 	C 	0.9208	0.1134	0.91677	-0.277
Mof_H 	H 	0.8668	0.1084	0.9019	0.135
Mof_O 	O 	0.0467	0.1292	0.0304	-0.547
Mof_O 	O 	0.9094	0.0936	0.0243	-0.563
Mof_C 	C 	0.8752	0.0594	0.6552	0.037
Mof_C 	C 	0.855	0.0739	0.6222	-0.134
Mof_H 	H 	0.8751	0.1007	0.6159	0.015
Mof_C 	C 	0.8048	0.0484	0.5988	0.039
Mof_H 	H 	0.7913	0.0582	0.5767	0.005
Mof_C 	C 	0.7748	0.0084	0.6083	-0.136
Mof_C 	C 	0.7949	0.9938	0.6412	0.046
Mof_H 	H 	0.7749	0.967	0.6476	0.024
Mof_C 	C 	0.8451	0.0193	0.6647	-0.124
Mof_H 	H 	0.8586	0.0096	0.6868	0.068
Mof_O 	O 	0.3598	0.8788	0.6074	-0.525
Mof_O 	O 	0.4798	0.9264	0.6027	-0.552
Mof_C 	C 	0.2331	0.9988	0.6788	0.069
Mof_C 	C 	0.1919	0.9603	0.6698	-0.139
Mof_H 	H 	0.1278	0.9527	0.6778	0.087
Mof_C 	C 	0.2465	0.9331	0.6489	0.067
Mof_H 	H 	0.2189	0.9073	0.6429	0.02
Mof_C 	C 	0.3422	0.9444	0.637	-0.152
Mof_C 	C 	0.3834	0.9829	0.646	0.064
Mof_H 	H 	0.4475	0.9905	0.638	0.013
Mof_C 	C 	0.3288	0.0101	0.6669	-0.141
Mof_H 	H 	0.3564	0.0359	0.6729	0.068
Mof_C 	C 	0.7217	0.9811	0.5828	0.395
Mof_C 	C 	0.4014	0.9145	0.6125	0.465
Mof_C 	C 	0.3851	0.3247	0.8969	0.409
Mof_C 	C 	0.9733	0.1102	0.0114	0.505
Mof_O 	O 	0.7231	0.9918	0.5517	-0.292
Mof_O 	O 	0.6977	0.9474	0.5931	-0.484
Mof_O 	O 	0.874	0.188	0.7232	-0.399
Mof_O 	O 	0.1072	0.2169	0.718	-0.511
Mof_Ti	Ti	0.1833	0.2681	0.6971	0.571
Mof_O 	O 	-1.74459e-32	0.295	0.655	-1.832
Mof_C 	C 	0.0903	0.2941	0.638	1.614
Mof_H 	H 	0.121	0.2677	0.6456	-0.93
Mof_C 	C 	0.1646	0.3273	0.6511	-2.079
Mof_H 	H 	0.1978	0.3172	0.6715	0.582
Mof_H 	H 	0.1281	0.3525	0.6564	0.686
Mof_H 	H 	0.2146	0.3329	0.6337	0.604
Mof_C 	C 	0.0841	0.2892	0.5988	-2.252
Mof_H 	H 	0.1129	0.2628	0.5923	0.657
Mof_H 	H 	0.1212	0.3115	0.588	0.649
Mof_H 	H 	0.0142	0.2903	0.5917	0.6
Mof_O 	O 	0.1355	0.2628	0.65	0.295
Mof_C 	C 	0.1645	0.2255	0.6364	1.108
Mof_H 	H 	0.2169	0.2157	0.6524	-0.35
Mof_C 	C 	0.2222	0.2306	0.6025	-1.353
Mof_H 	H 	0.1776	0.2421	0.5854	0.253
Mof_H 	H 	0.2465	0.2038	0.5949	0.393
Mof_H 	H 	0.2791	0.249	0.6059	0.385
Mof_C 	C 	0.0846	0.1905	0.6373	-2.697
Mof_H 	H 	0.0956	0.1734	0.6572	0.969
Mof_H 	H 	0.0906	0.1737	0.6169	0.752
Mof_H 	H 	0.0179	0.2027	0.6382	1.909
Mof_Zn	Zn	0.90127	0.90996	0.42564	1.23
Mof_Zn	Zn	0.08418	0.84137	0.42783	1.191
Mof_C 	C 	0.5121	0.6385	0.2313	-0.084
Mof_C 	C 	0.4193	0.6492	0.2166	0.244
Mof_C 	C 	0.3762	0.6237	0.1916	-0.319
Mof_H 	H 	0.3141	0.6309	0.1818	0.086
Mof_C 	C 	0.4259	0.5874	0.1813	0.046
Mof_C 	C 	0.5187	0.5767	0.196	-0.042
Mof_C 	C 	0.5618	0.6022	0.221	0.047
Mof_C 	C 	0.6564	0.5921	0.2348	-0.09
Mof_H 	H 	0.6828	0.6086	0.2524	0.063
Mof_C 	C 	0.7137	0.5574	0.223	-0.036
Mof_H 	H 	0.7768	0.5512	0.2325	0.037
Mof_C 	C 	0.6718	0.5315	0.1955	-0.02
Mof_C 	C 	0.5758	0.5421	0.1833	-0.061
Mof_H 	H 	0.5475	0.5258	0.166	0.051
Mof_C 	C 	0.5516	0.6674	0.26165	-0.085
Mof_C 	C 	0.6038	0.7033	0.25183	0.226
Mof_C 	C 	0.6507	0.7281	0.27653	-0.21
Mof_H 	H 	0.6857	0.7521	0.27	0.085
Mof_C 	C 	0.6454	0.717	0.31105	0.032
Mof_C 	C 	0.5932	0.6811	0.32086	-0.035
Mof_C 	C 	0.5463	0.65631	0.29617	0.058
Mof_C 	C 	0.4938	0.6213	0.3075	-0.1
Mof_H 	H 	0.4644	0.604	0.2911	0.07
Mof_C 	C 	0.4828	0.611	0.3404	-0.014
Mof_H 	H 	0.4463	0.5871	0.3462	0.034
Mof_C 	C 	0.5261	0.6361	0.3668	-0.036
Mof_C 	C 	0.5819	0.671	0.3562	-0.044
Mof_H 	H 	0.6125	0.6879	0.3727	0.039
Mof_C 	C 	0.7059	0.744	0.33514	0.065
Mof_C 	C 	0.6771	0.7854	0.33999	-0.148
Mof_H 	H 	0.6194	0.7958	0.3291	0.087
Mof_C 	C 	0.7347	0.81132	0.3611	0.075
Mof_H 	H 	0.7154	0.839	0.3643	0.015
Mof_C 	C 	0.821	0.7958	0.37734	-0.172
Mof_C 	C 	0.8498	0.7544	0.37249	0.062
Mof_H 	H 	0.9075	0.744	0.3834	-0.007
Mof_C 	C 	0.7923	0.72848	0.3514	-0.156
Mof_H 	H 	0.8115	0.7008	0.3481	0.072
Mof_O 	O 	0.9755	0.812	0.4058	-0.545
Mof_O 	O 	0.8467	0.8585	0.4058	-0.507
Mof_C 	C 	0.5134	0.6275	0.40392	0.112
Mof_C 	C 	0.594	0.635	0.42618	-0.185
Mof_H 	H 	0.656	0.6444	0.4176	0.069
Mof_C 	C 	0.5822	0.6285	0.46128	0.116
Mof_H 	H 	0.6361	0.6336	0.4762	-0.031
Mof_C 	C 	0.4896	0.6145	0.47414	-0.229
Mof_C 	C 	0.4089	0.6069	0.45188	0.126
Mof_H 	H 	0.347	0.5975	0.4605	0.003
Mof_C 	C 	0.4208	0.6134	0.41677	-0.187
Mof_H 	H 	0.3668	0.6084	0.4019	0.107
Mof_O 	O 	0.5467	0.6292	0.5304	-0.566
Mof_O 	O 	0.4094	0.5936	0.5243	-0.559
Mof_C 	C 	0.3752	0.5594	0.1552	0.013
Mof_C 	C 	0.355	0.5739	0.1222	-0.111
Mof_H 	H 	0.3751	0.6007	0.1159	0.009
Mof_C 	C 	0.3048	0.5484	0.0988	0.026
Mof_H 	H 	0.2913	0.5582	0.0767	0.013
Mof_C 	C 	0.2748	0.5084	0.1083	-0.121
Mof_C 	C 	0.2949	0.4938	0.1412	0.034
Mof_H 	H 	0.2749	0.467	0.1476	0.032
Mof_C 	C 	0.3451	0.5193	0.1647	-0.1
Mof_H 	H 	0.3586	0.5096	0.1868	0.066
Mof_O 	O 	0.8598	0.3788	0.1074	-0.531
Mof_O 	O 	0.9798	0.4264	0.1027	-0.566
Mof_C 	C 	0.7331	0.4988	0.1788	0.079
Mof_C 	C 	0.6919	0.4603	0.1698	-0.148
Mof_H 	H 	0.6278	0.4527	0.1778	0.084
Mof_C 	C 	0.7465	0.4331	0.1489	0.071
Mof_H 	H 	0.7189	0.4073	0.1429	0.017
Mof_C 	C 	0.8422	0.4444	0.137	-0.16
Mof_C 	C 	0.8834	0.4829	0.146	0.07
Mof_H 	H 	0.9475	0.4905	0.138	0.005
Mof_C 	C 	0.8288	0.5101	0.1669	-0.151
Mof_H 	H 	0.8564	0.5359	0.1729	0.068
Mof_C 	C 	0.2217	0.4811	0.0828	0.392
Mof_C 	C 	0.9014	0.4145	0.1125	0.468
Mof_C 	C 	0.8851	0.8247	0.3969	0.411
Mof_C 	C 	0.4733	0.6102	0.5114	0.507
Mof_O 	O 	0.2231	0.4918	0.0517	-0.287
Mof_O 	O 	0.1977	0.4474	0.0931	-0.478
Mof_O 	O 	0.374	0.688	0.2232	-0.407
Mof_O 	O 	0.6072	0.7169	0.218	-0.508
Mof_Ti	Ti	0.6833	0.7681	0.1971	0.567
Mof_O 	O 	0.5	0.795	0.155	-1.951
Mof_C 	C 	0.5903	0.7941	0.138	1.584
Mof_H 	H 	0.621	0.7677	0.1456	-0.916
Mof_C 	C 	0.6646	0.8273	0.1511	-2.045
Mof_H 	H 	0.6978	0.8172	0.1715	0.573
Mof_H 	H 	0.6281	0.8525	0.1564	0.673
Mof_H 	H 	0.7146	0.8329	0.1337	0.592
Mof_C 	C 	0.5841	0.7892	0.0988	-2.238
Mof_H 	H 	0.6129	0.7628	0.0923	0.651
Mof_H 	H 	0.6212	0.8115	0.088	0.641
Mof_H 	H 	0.5142	0.7903	0.0917	0.576
Mof_O 	O 	0.6355	0.7628	0.15	0.298
Mof_C 	C 	0.6645	0.7255	0.1364	1.06
Mof_H 	H 	0.7169	0.7157	0.1524	-0.337
Mof_C 	C 	0.7222	0.7306	0.1025	-1.294
Mof_H 	H 	0.6776	0.7421	0.0854	0.232
Mof_H 	H 	0.7465	0.7038	0.0949	0.371
Mof_H 	H 	0.7791	0.749	0.1059	0.364
Mof_C 	C 	0.5846	0.6905	0.1373	-2.611
Mof_H 	H 	0.5956	0.6734	0.1572	0.939
Mof_H 	H 	0.5906	0.6737	0.1169	0.717
Mof_H 	H 	0.5179	0.7027	0.1382	1.871
Mof_Zn	Zn	0.09873	0.59004	0.42564	1.239
Mof_Zn	Zn	0.91582	0.65863	0.42783	1.182
Mof_C 	C 	0.4879	0.8615	0.2313	-0.083
Mof_C 	C 	0.5807	0.8508	0.2166	0.241
Mof_C 	C 	0.6238	0.8763	0.1916	-0.316
Mof_H 	H 	0.6859	0.8691	0.1818	0.081
Mof_C 	C 	0.5741	0.9126	0.1813	0.043
Mof_C 	C 	0.4813	0.9233	0.196	-0.04
Mof_C 	C 	0.4382	0.8978	0.221	0.045
Mof_C 	C 	0.3436	0.9079	0.2348	-0.087
Mof_H 	H 	0.3172	0.8914	0.2524	0.064
Mof_C 	C 	0.2863	0.9426	0.223	-0.038
Mof_H 	H 	0.2232	0.9488	0.2325	0.042
Mof_C 	C 	0.3282	0.9685	0.1955	-0.016
Mof_C 	C 	0.4242	0.9579	0.1833	-0.063
Mof_H 	H 	0.4525	0.9742	0.166	0.052
Mof_C 	C 	0.4484	0.8326	0.26165	-0.086
Mof_C 	C 	0.3962	0.7967	0.25183	0.229
Mof_C 	C 	0.3493	0.7719	0.27653	-0.211
Mof_H 	H 	0.3143	0.7479	0.27	0.089
Mof_C 	C 	0.3546	0.783	0.31105	0.036
Mof_C 	C 	0.4068	0.8189	0.32086	-0.036
Mof_C 	C 	0.4537	0.84369	0.29617	0.059
Mof_C 	C 	0.5062	0.8787	0.3075	-0.101
Mof_H 	H 	0.5356	0.896	0.2911	0.069
Mof_C 	C 	0.5172	0.889	0.3404	-0.014
Mof_H 	H 	0.5537	0.9129	0.3462	0.033
Mof_C 	C 	0.4739	0.8639	0.3668	-0.036
Mof_C 	C 	0.4181	0.829	0.3562	-0.043
Mof_H 	H 	0.3875	0.8121	0.3727	0.039
Mof_C 	C 	0.2941	0.756	0.33514	0.061
Mof_C 	C 	0.3229	0.7146	0.33999	-0.141
Mof_H 	H 	0.3806	0.7042	0.3291	0.085
Mof_C 	C 	0.2653	0.68868	0.3611	0.07
Mof_H 	H 	0.2846	0.661	0.3643	0.018
Mof_C 	C 	0.179	0.7042	0.37734	-0.16
Mof_C 	C 	0.1502	0.7456	0.37249	0.056
Mof_H 	H 	0.0925	0.756	0.3834	0.009
Mof_C 	C 	0.2077	0.77152	0.3514	-0.146
Mof_H 	H 	0.1885	0.7992	0.3481	0.075
Mof_O 	O 	0.0245	0.688	0.4058	-0.514
Mof_O 	O 	0.1533	0.6415	0.4058	-0.497
Mof_C 	C 	0.4866	0.8725	0.40392	0.111
Mof_C 	C 	0.406	0.865	0.42618	-0.184
Mof_H 	H 	0.344	0.8556	0.4176	0.07
Mof_C 	C 	0.4178	0.8715	0.46128	0.116
Mof_H 	H 	0.3639	0.8664	0.4762	-0.028
Mof_C 	C 	0.5104	0.8855	0.47414	-0.227
Mof_C 	C 	0.5911	0.8931	0.45188	0.124
Mof_H 	H 	0.653	0.9025	0.4605	0.003
Mof_C 	C 	0.5792	0.8866	0.41677	-0.186
Mof_H 	H 	0.6332	0.8916	0.4019	0.107
Mof_O 	O 	0.4533	0.8708	0.5304	-0.564
Mof_O 	O 	0.5906	0.9064	0.5243	-0.558
Mof_C 	C 	0.6248	0.9406	0.1552	0.014
Mof_C 	C 	0.645	0.9261	0.1222	-0.115
Mof_H 	H 	0.6249	0.8993	0.1159	0.01
Mof_C 	C 	0.6952	0.9516	0.0988	0.027
Mof_H 	H 	0.7087	0.9418	0.0767	0.009
Mof_C 	C 	0.7252	0.9916	0.1083	-0.127
Mof_C 	C 	0.7051	0.0062	0.1412	0.035
Mof_H 	H 	0.7251	0.033	0.1476	0.027
Mof_C 	C 	0.6549	0.9807	0.1647	-0.104
Mof_H 	H 	0.6414	0.9904	0.1868	0.064
Mof_O 	O 	0.1402	0.1212	0.1074	-0.52
Mof_O 	O 	0.0202	0.0736	0.1027	-0.538
Mof_C 	C 	0.2669	0.0012	0.1788	0.077
Mof_C 	C 	0.3081	0.0397	0.1698	-0.142
Mof_H 	H 	0.3722	0.0473	0.1778	0.082
Mof_C 	C 	0.2535	0.0669	0.1489	0.067
Mof_H 	H 	0.2811	0.0927	0.1429	0.02
Mof_C 	C 	0.1578	0.0556	0.137	-0.149
Mof_C 	C 	0.1166	0.0171	0.146	0.066
Mof_H 	H 	0.0525	0.0095	0.138	0.018
Mof_C 	C 	0.1712	0.9899	0.1669	-0.143
Mof_H 	H 	0.1436	0.9641	0.1729	0.073
Mof_C 	C 	0.7783	0.0189	0.0828	0.39
Mof_C 	C 	0.0986	0.0855	0.1125	0.463
Mof_C 	C 	0.1149	0.6753	0.3969	0.408
Mof_C 	C 	0.5267	0.8898	0.5114	0.507
Mof_O 	O 	0.7769	0.0082	0.0517	-0.293
Mof_O 	O 	0.8023	0.0526	0.0931	-0.487
Mof_O 	O 	0.626	0.812	0.2232	-0.407
Mof_O 	O 	0.3928	0.7831	0.218	-0.508
Mof_Ti	Ti	0.3167	0.7319	0.1971	0.577
Mof_O 	O 	0.5	0.705	0.155	-1.949
Mof_C 	C 	0.4097	0.7059	0.138	1.594
Mof_H 	H 	0.379	0.7323	0.1456	-0.921
Mof_C 	C 	0.3354	0.6727	0.1511	-2.062
Mof_H 	H 	0.3022	0.6828	0.1715	0.58
Mof_H 	H 	0.3719	0.6475	0.1564	0.678
Mof_H 	H 	0.2854	0.6671	0.1337	0.602
Mof_C 	C 	0.4159	0.7108	0.0988	-2.245
Mof_H 	H 	0.3871	0.7372	0.0923	0.652
Mof_H 	H 	0.3788	0.6885	0.088	0.644
Mof_H 	H 	0.4858	0.7097	0.0917	0.578
Mof_O 	O 	0.3645	0.7372	0.15	0.298
Mof_C 	C 	0.3355	0.7745	0.1364	1.077
Mof_H 	H 	0.2831	0.7843	0.1524	-0.339
Mof_C 	C 	0.2778	0.7694	0.1025	-1.325
Mof_H 	H 	0.3224	0.7579	0.0854	0.243
Mof_H 	H 	0.2535	0.7962	0.0949	0.386
Mof_H 	H 	0.2209	0.751	0.1059	0.38
Mof_C 	C 	0.4154	0.8095	0.1373	-2.636
Mof_H 	H 	0.4044	0.8266	0.1572	0.948
Mof_H 	H 	0.4094	0.8263	0.1169	0.726
Mof_H 	H 	0.4821	0.7973	0.1382	1.882
Mof_Zn	Zn	0.59873	0.09004	0.92564	1.235
Mof_Zn	Zn	0.41582	0.15863	0.92783	1.186
Mof_C 	C 	0.9879	0.3615	0.7313	-0.145
Mof_C 	C 	0.0807	0.3508	0.7166	0.299
Mof_C 	C 	0.1238	0.3763	0.6916	-0.367
Mof_H 	H 	0.1859	0.3691	0.6818	0.099
Mof_C 	C 	0.0741	0.4126	0.6813	0.109
Mof_C 	C 	0.9813	0.4233	0.696	-0.11
Mof_C 	C 	0.9382	0.3978	0.721	0.092
Mof_C 	C 	0.8436	0.4079	0.7348	-0.122
Mof_H 	H 	0.8172	0.3914	0.7524	0.075
Mof_C 	C 	0.7863	0.4426	0.723	-0.014
Mof_H 	H 	0.7232	0.4488	0.7325	0.031
Mof_C 	C 	0.8282	0.4685	0.6955	-0.042
Mof_C 	C 	0.9242	0.4579	0.6833	-0.025
Mof_H 	H 	0.9525	0.4742	0.666	0.03
Mof_C 	C 	0.9484	0.3326	0.76165	-0.06
Mof_C 	C 	0.8962	0.2967	0.75183	0.211
Mof_C 	C 	0.8493	0.2719	0.77653	-0.199
Mof_H 	H 	0.8143	0.2479	0.77	0.082
Mof_C 	C 	0.8546	0.283	0.81105	0.017
Mof_C 	C 	0.9068	0.3189	0.82086	-0.012
Mof_C 	C 	0.9537	0.34369	0.79617	0.002
Mof_C 	C 	0.0062	0.3787	0.8075	-0.04
Mof_H 	H 	0.0356	0.396	0.7911	0.058
Mof_C 	C 	0.0172	0.389	0.8404	-0.022
Mof_H 	H 	0.0537	0.4129	0.8462	0.044
Mof_C 	C 	0.9739	0.3639	0.8668	-0.025
Mof_C 	C 	0.9181	0.329	0.8562	-0.069
Mof_H 	H 	0.8875	0.3121	0.8727	0.046
Mof_C 	C 	0.7941	0.256	0.83514	0.068
Mof_C 	C 	0.8229	0.2146	0.83999	-0.148
Mof_H 	H 	0.8806	0.2042	0.8291	0.081
Mof_C 	C 	0.7653	0.18868	0.8611	0.073
Mof_H 	H 	0.7846	0.161	0.8643	0.014
Mof_C 	C 	0.679	0.2042	0.87734	-0.168
Mof_C 	C 	0.6502	0.2456	0.87249	0.061
Mof_H 	H 	0.5925	0.256	0.8834	-0
Mof_C 	C 	0.7077	0.27152	0.8514	-0.155
Mof_H 	H 	0.6885	0.2992	0.8481	0.075
Mof_O 	O 	0.5245	0.188	0.9058	-0.529
Mof_O 	O 	0.6533	0.1415	0.9058	-0.503
Mof_C 	C 	0.9866	0.3725	0.90392	0.035
Mof_C 	C 	0.906	0.365	0.92618	-0.119
Mof_H 	H 	0.844	0.3556	0.9176	0.045
Mof_C 	C 	0.9178	0.3715	0.96128	0.028
Mof_H 	H 	0.8639	0.3664	0.9762	-0.003
Mof_C 	C 	0.0104	0.3855	0.97414	-0.157
Mof_C 	C 	0.0911	0.3931	0.95188	0.06
Mof_H 	H 	0.153	0.4025	0.9605	0.026
Mof_C 	C 	0.0792	0.3866	0.91677	-0.097
Mof_H 	H 	0.1332	0.3916	0.9019	0.079
Mof_O 	O 	0.9533	0.3708	0.0304	-0.584
Mof_O 	O 	0.0906	0.4064	0.0243	-0.553
Mof_C 	C 	0.1248	0.4406	0.6552	-0.009
Mof_C 	C 	0.145	0.4261	0.6222	-0.093
Mof_H 	H 	0.1249	0.3993	0.6159	0.006
Mof_C 	C 	0.1952	0.4516	0.5988	0.015
Mof_H 	H 	0.2087	0.4418	0.5767	0.017
Mof_C 	C 	0.2252	0.4916	0.6083	-0.113
Mof_C 	C 	0.2051	0.5062	0.6412	0.023
Mof_H 	H 	0.2251	0.533	0.6476	0.035
Mof_C 	C 	0.1549	0.4807	0.6647	-0.081
Mof_H 	H 	0.1414	0.4904	0.6868	0.063
Mof_O 	O 	0.6402	0.6212	0.6074	-0.525
Mof_O 	O 	0.5202	0.5736	0.6027	-0.553
Mof_C 	C 	0.7669	0.5012	0.6788	0.087
Mof_C 	C 	0.8081	0.5397	0.6698	-0.151
Mof_H 	H 	0.8722	0.5473	0.6778	0.08
Mof_C 	C 	0.7535	0.5669	0.6489	0.07
Mof_H 	H 	0.7811	0.5927	0.6429	0.017
Mof_C 	C 	0.6578	0.5556	0.637	-0.158
Mof_C 	C 	0.6166	0.5171	0.646	0.071
Mof_H 	H 	0.5525	0.5095	0.638	0.01
Mof_C 	C 	0.6712	0.4899	0.6669	-0.154
Mof_H 	H 	0.6436	0.4641	0.6729	0.073
Mof_C 	C 	0.2783	0.5189	0.5828	0.387
Mof_C 	C 	0.5986	0.5855	0.6125	0.466
Mof_C 	C 	0.6149	0.1753	0.8969	0.41
Mof_C 	C 	0.0267	0.3898	0.0114	0.509
Mof_O 	O 	0.2769	0.5082	0.5517	-0.288
Mof_O 	O 	0.3023	0.5526	0.5931	-0.481
Mof_O 	O 	0.126	0.312	0.7232	-0.416
Mof_O 	O 	0.8928	0.2831	0.718	-0.515
Mof_Ti	Ti	0.8167	0.2319	0.6971	0.563
Mof_O 	O 	-1.74459e-32	0.205	0.655	-1.93
Mof_C 	C 	0.9097	0.2059	0.638	1.499
Mof_H 	H 	0.879	0.2323	0.6456	-0.894
Mof_C 	C 	0.8354	0.1727	0.6511	-1.966
Mof_H 	H 	0.8022	0.1828	0.6715	0.551
Mof_H 	H 	0.8719	0.1475	0.6564	0.644
Mof_H 	H 	0.7854	0.1671	0.6337	0.573
Mof_C 	C 	0.9159	0.2108	0.5988	-2.154
Mof_H 	H 	0.8871	0.2372	0.5923	0.628
Mof_H 	H 	0.8788	0.1885	0.588	0.615
Mof_H 	H 	0.9858	0.2097	0.5917	0.538
Mof_O 	O 	0.8645	0.2372	0.65	0.308
Mof_C 	C 	0.8355	0.2745	0.6364	0.946
Mof_H 	H 	0.7831	0.2843	0.6524	-0.302
Mof_C 	C 	0.7778	0.2694	0.6025	-1.187
Mof_H 	H 	0.8224	0.2579	0.5854	0.203
Mof_H 	H 	0.7535	0.2962	0.5949	0.34
Mof_H 	H 	0.7209	0.251	0.6059	0.336
Mof_C 	C 	0.9154	0.3095	0.6373	-2.374
Mof_H 	H 	0.9044	0.3266	0.6572	0.852
Mof_H 	H 	0.9094	0.3263	0.6169	0.642
Mof_H 	H 	0.9821	0.2973	0.6382	1.702
Mof_Zn	Zn	0.59873	0.90996	0.57436	1.235
Mof_Zn	Zn	0.41582	0.84137	0.57217	1.186
Mof_C 	C 	0.9879	0.6385	0.7687	-0.145
Mof_C 	C 	0.0807	0.6492	0.7834	0.299
Mof_C 	C 	0.1238	0.6237	0.8084	-0.367
Mof_H 	H 	0.1859	0.6309	0.8182	0.099
Mof_C 	C 	0.0741	0.5874	0.8187	0.109
Mof_C 	C 	0.9813	0.5767	0.804	-0.11
Mof_C 	C 	0.9382	0.6022	0.779	0.092
Mof_C 	C 	0.8436	0.5921	0.7652	-0.122
Mof_H 	H 	0.8172	0.6086	0.7476	0.075
Mof_C 	C 	0.7863	0.5574	0.777	-0.014
Mof_H 	H 	0.7232	0.5512	0.7675	0.031
Mof_C 	C 	0.8282	0.5315	0.8045	-0.042
Mof_C 	C 	0.9242	0.5421	0.8167	-0.025
Mof_H 	H 	0.9525	0.5258	0.834	0.03
Mof_C 	C 	0.9484	0.6674	0.73835	-0.06
Mof_C 	C 	0.8962	0.7033	0.74817	0.211
Mof_C 	C 	0.8493	0.7281	0.72347	-0.199
Mof_H 	H 	0.8143	0.7521	0.73	0.082
Mof_C 	C 	0.8546	0.717	0.68895	0.017
Mof_C 	C 	0.9068	0.6811	0.67914	-0.012
Mof_C 	C 	0.9537	0.65631	0.70383	0.002
Mof_C 	C 	0.0062	0.6213	0.6925	-0.04
Mof_H 	H 	0.0356	0.604	0.7089	0.058
Mof_C 	C 	0.0172	0.611	0.6596	-0.022
Mof_H 	H 	0.0537	0.5871	0.6538	0.044
Mof_C 	C 	0.9739	0.6361	0.6332	-0.025
Mof_C 	C 	0.9181	0.671	0.6438	-0.069
Mof_H 	H 	0.8875	0.6879	0.6273	0.046
Mof_C 	C 	0.7941	0.744	0.66486	0.068
Mof_C 	C 	0.8229	0.7854	0.66001	-0.148
Mof_H 	H 	0.8806	0.7958	0.6709	0.081
Mof_C 	C 	0.7653	0.81132	0.6389	0.073
Mof_H 	H 	0.7846	0.839	0.6357	0.014
Mof_C 	C 	0.679	0.7958	0.62266	-0.168
Mof_C 	C 	0.6502	0.7544	0.62751	0.061
Mof_H 	H 	0.5925	0.744	0.6166	-0
Mof_C 	C 	0.7077	0.72848	0.6486	-0.155
Mof_H 	H 	0.6885	0.7008	0.6519	0.075
Mof_O 	O 	0.5245	0.812	0.5942	-0.529
Mof_O 	O 	0.6533	0.8585	0.5942	-0.503
Mof_C 	C 	0.9866	0.6275	0.59608	0.036
Mof_C 	C 	0.906	0.635	0.57382	-0.119
Mof_H 	H 	0.844	0.6444	0.5824	0.045
Mof_C 	C 	0.9178	0.6285	0.53872	0.028
Mof_H 	H 	0.8639	0.6336	0.5238	-0.003
Mof_C 	C 	0.0104	0.6145	0.52586	-0.157
Mof_C 	C 	0.0911	0.6069	0.54812	0.061
Mof_H 	H 	0.153	0.5975	0.5395	0.026
Mof_C 	C 	0.0792	0.6134	0.58323	-0.097
Mof_H 	H 	0.1332	0.6084	0.5981	0.079
Mof_O 	O 	0.9533	0.6292	0.4696	-0.584
Mof_O 	O 	0.0906	0.5936	0.4757	-0.553
Mof_C 	C 	0.1248	0.5594	0.8448	-0.009
Mof_C 	C 	0.145	0.5739	0.8778	-0.093
Mof_H 	H 	0.1249	0.6007	0.8841	0.006
Mof_C 	C 	0.1952	0.5484	0.9012	0.015
Mof_H 	H 	0.2087	0.5582	0.9233	0.017
Mof_C 	C 	0.2252	0.5084	0.8917	-0.113
Mof_C 	C 	0.2051	0.4938	0.8588	0.023
Mof_H 	H 	0.2251	0.467	0.8524	0.035
Mof_C 	C 	0.1549	0.5193	0.8353	-0.081
Mof_H 	H 	0.1414	0.5096	0.8132	0.063
Mof_O 	O 	0.6402	0.3788	0.8926	-0.525
Mof_O 	O 	0.5202	0.4264	0.8973	-0.553
Mof_C 	C 	0.7669	0.4988	0.8212	0.087
Mof_C 	C 	0.8081	0.4603	0.8302	-0.151
Mof_H 	H 	0.8722	0.4527	0.8222	0.08
Mof_C 	C 	0.7535	0.4331	0.8511	0.07
Mof_H 	H 	0.7811	0.4073	0.8571	0.017
Mof_C 	C 	0.6578	0.4444	0.863	-0.158
Mof_C 	C 	0.6166	0.4829	0.854	0.071
Mof_H 	H 	0.5525	0.4905	0.862	0.01
Mof_C 	C 	0.6712	0.5101	0.8331	-0.154
Mof_H 	H 	0.6436	0.5359	0.8271	0.073
Mof_C 	C 	0.2783	0.4811	0.9172	0.387
Mof_C 	C 	0.5986	0.4145	0.8875	0.466
Mof_C 	C 	0.6149	0.8247	0.6031	0.41
Mof_C 	C 	0.0267	0.6102	0.4886	0.509
Mof_O 	O 	0.2769	0.4918	0.9483	-0.288
Mof_O 	O 	0.3023	0.4474	0.9069	-0.481
Mof_O 	O 	0.126	0.688	0.7768	-0.416
Mof_O 	O 	0.8928	0.7169	0.782	-0.515
Mof_Ti	Ti	0.8167	0.7681	0.8029	0.563
Mof_O 	O 	-1.53381e-32	0.795	0.845	-1.93
Mof_C 	C 	0.9097	0.7941	0.862	1.499
Mof_H 	H 	0.879	0.7677	0.8544	-0.894
Mof_C 	C 	0.8354	0.8273	0.8489	-1.966
Mof_H 	H 	0.8022	0.8172	0.8285	0.551
Mof_H 	H 	0.8719	0.8525	0.8436	0.644
Mof_H 	H 	0.7854	0.8329	0.8663	0.573
Mof_C 	C 	0.9159	0.7892	0.9012	-2.154
Mof_H 	H 	0.8871	0.7628	0.9077	0.628
Mof_H 	H 	0.8788	0.8115	0.912	0.615
Mof_H 	H 	0.9858	0.7903	0.9083	0.538
Mof_O 	O 	0.8645	0.7628	0.85	0.308
Mof_C 	C 	0.8355	0.7255	0.8636	0.946
Mof_H 	H 	0.7831	0.7157	0.8476	-0.302
Mof_C 	C 	0.7778	0.7306	0.8975	-1.187
Mof_H 	H 	0.8224	0.7421	0.9146	0.203
Mof_H 	H 	0.7535	0.7038	0.9051	0.34
Mof_H 	H 	0.7209	0.749	0.8941	0.336
Mof_C 	C 	0.9154	0.6905	0.8627	-2.374
Mof_H 	H 	0.9044	0.6734	0.8428	0.852
Mof_H 	H 	0.9094	0.6737	0.8831	0.642
Mof_H 	H 	0.9821	0.7027	0.8618	1.702
Mof_Zn	Zn	0.09873	0.40996	0.07436	1.239
Mof_Zn	Zn	0.91582	0.34137	0.07217	1.182
Mof_C 	C 	0.4879	0.1385	0.2687	-0.083
Mof_C 	C 	0.5807	0.1492	0.2834	0.241
Mof_C 	C 	0.6238	0.1237	0.3084	-0.316
Mof_H 	H 	0.6859	0.1309	0.3182	0.081
Mof_C 	C 	0.5741	0.0874	0.3187	0.043
Mof_C 	C 	0.4813	0.0767	0.304	-0.04
Mof_C 	C 	0.4382	0.1022	0.279	0.045
Mof_C 	C 	0.3436	0.0921	0.2652	-0.087
Mof_H 	H 	0.3172	0.1086	0.2476	0.064
Mof_C 	C 	0.2863	0.0574	0.277	-0.038
Mof_H 	H 	0.2232	0.0512	0.2675	0.042
Mof_C 	C 	0.3282	0.0315	0.3045	-0.016
Mof_C 	C 	0.4242	0.0421	0.3167	-0.063
Mof_H 	H 	0.4525	0.0258	0.334	0.052
Mof_C 	C 	0.4484	0.1674	0.23835	-0.086
Mof_C 	C 	0.3962	0.2033	0.24817	0.229
Mof_C 	C 	0.3493	0.2281	0.22347	-0.211
Mof_H 	H 	0.3143	0.2521	0.23	0.089
Mof_C 	C 	0.3546	0.217	0.18895	0.036
Mof_C 	C 	0.4068	0.1811	0.17914	-0.036
Mof_C 	C 	0.4537	0.15631	0.20383	0.059
Mof_C 	C 	0.5062	0.1213	0.1925	-0.101
Mof_H 	H 	0.5356	0.104	0.2089	0.069
Mof_C 	C 	0.5172	0.111	0.1596	-0.014
Mof_H 	H 	0.5537	0.0871	0.1538	0.033
Mof_C 	C 	0.4739	0.1361	0.1332	-0.036
Mof_C 	C 	0.4181	0.171	0.1438	-0.043
Mof_H 	H 	0.3875	0.1879	0.1273	0.039
Mof_C 	C 	0.2941	0.244	0.16486	0.061
Mof_C 	C 	0.3229	0.2854	0.16001	-0.141
Mof_H 	H 	0.3806	0.2958	0.1709	0.085
Mof_C 	C 	0.2653	0.31132	0.1389	0.07
Mof_H 	H 	0.2846	0.339	0.1357	0.018
Mof_C 	C 	0.179	0.2958	0.12266	-0.16
Mof_C 	C 	0.1502	0.2544	0.12751	0.056
Mof_H 	H 	0.0925	0.244	0.1166	0.009
Mof_C 	C 	0.2077	0.22848	0.1486	-0.146
Mof_H 	H 	0.1885	0.2008	0.1519	0.075
Mof_O 	O 	0.0245	0.312	0.0942	-0.514
Mof_O 	O 	0.1533	0.3585	0.0942	-0.497
Mof_C 	C 	0.4866	0.1275	0.09608	0.111
Mof_C 	C 	0.406	0.135	0.07382	-0.184
Mof_H 	H 	0.344	0.1444	0.0824	0.07
Mof_C 	C 	0.4178	0.1285	0.03872	0.116
Mof_H 	H 	0.3639	0.1336	0.0238	-0.028
Mof_C 	C 	0.5104	0.1145	0.02586	-0.227
Mof_C 	C 	0.5911	0.1069	0.04812	0.124
Mof_H 	H 	0.653	0.0975	0.0395	0.003
Mof_C 	C 	0.5792	0.1134	0.08323	-0.186
Mof_H 	H 	0.6332	0.1084	0.0981	0.107
Mof_O 	O 	0.4533	0.1292	0.9696	-0.564
Mof_O 	O 	0.5906	0.0936	0.9757	-0.558
Mof_C 	C 	0.6248	0.0594	0.3448	0.014
Mof_C 	C 	0.645	0.0739	0.3778	-0.115
Mof_H 	H 	0.6249	0.1007	0.3841	0.01
Mof_C 	C 	0.6952	0.0484	0.4012	0.027
Mof_H 	H 	0.7087	0.0582	0.4233	0.009
Mof_C 	C 	0.7252	0.0084	0.3917	-0.127
Mof_C 	C 	0.7051	0.9938	0.3588	0.035
Mof_H 	H 	0.7251	0.967	0.3524	0.027
Mof_C 	C 	0.6549	0.0193	0.3353	-0.104
Mof_H 	H 	0.6414	0.0096	0.3132	0.064
Mof_O 	O 	0.1402	0.8788	0.3926	-0.52
Mof_O 	O 	0.0202	0.9264	0.3973	-0.538
Mof_C 	C 	0.2669	0.9988	0.3212	0.077
Mof_C 	C 	0.3081	0.9603	0.3302	-0.142
Mof_H 	H 	0.3722	0.9527	0.3222	0.082
Mof_C 	C 	0.2535	0.9331	0.3511	0.067
Mof_H 	H 	0.2811	0.9073	0.3571	0.02
Mof_C 	C 	0.1578	0.9444	0.363	-0.149
Mof_C 	C 	0.1166	0.9829	0.354	0.066
Mof_H 	H 	0.0525	0.9905	0.362	0.018
Mof_C 	C 	0.1712	0.0101	0.3331	-0.143
Mof_H 	H 	0.1436	0.0359	0.3271	0.073
Mof_C 	C 	0.7783	0.9811	0.4172	0.39
Mof_C 	C 	0.0986	0.9145	0.3875	0.463
Mof_C 	C 	0.1149	0.3247	0.1031	0.408
Mof_C 	C 	0.5267	0.1102	0.9886	0.507
Mof_O 	O 	0.7769	0.9918	0.4483	-0.293
Mof_O 	O 	0.8023	0.9474	0.4069	-0.487
Mof_O 	O 	0.626	0.188	0.2768	-0.407
Mof_O 	O 	0.3928	0.2169	0.282	-0.508
Mof_Ti	Ti	0.3167	0.2681	0.3029	0.577
Mof_O 	O 	0.5	0.295	0.345	-1.949
Mof_C 	C 	0.4097	0.2941	0.362	1.594
Mof_H 	H 	0.379	0.2677	0.3544	-0.921
Mof_C 	C 	0.3354	0.3273	0.3489	-2.062
Mof_H 	H 	0.3022	0.3172	0.3285	0.58
Mof_H 	H 	0.3719	0.3525	0.3436	0.678
Mof_H 	H 	0.2854	0.3329	0.3663	0.602
Mof_C 	C 	0.4159	0.2892	0.4012	-2.245
Mof_H 	H 	0.3871	0.2628	0.4077	0.652
Mof_H 	H 	0.3788	0.3115	0.412	0.644
Mof_H 	H 	0.4858	0.2903	0.4083	0.578
Mof_O 	O 	0.3645	0.2628	0.35	0.298
Mof_C 	C 	0.3355	0.2255	0.3636	1.077
Mof_H 	H 	0.2831	0.2157	0.3476	-0.339
Mof_C 	C 	0.2778	0.2306	0.3975	-1.325
Mof_H 	H 	0.3224	0.2421	0.4146	0.243
Mof_H 	H 	0.2535	0.2038	0.4051	0.386
Mof_H 	H 	0.2209	0.249	0.3941	0.38
Mof_C 	C 	0.4154	0.1905	0.3627	-2.636
Mof_H 	H 	0.4044	0.1734	0.3428	0.948
Mof_H 	H 	0.4094	0.1737	0.3831	0.726
Mof_H 	H 	0.4821	0.2027	0.3618	1.882
Mof_Zn	Zn	0.90127	0.09004	0.07436	1.23
Mof_Zn	Zn	0.08418	0.15863	0.07217	1.191
Mof_C 	C 	0.5121	0.3615	0.2687	-0.084
Mof_C 	C 	0.4193	0.3508	0.2834	0.244
Mof_C 	C 	0.3762	0.3763	0.3084	-0.319
Mof_H 	H 	0.3141	0.3691	0.3182	0.086
Mof_C 	C 	0.4259	0.4126	0.3187	0.046
Mof_C 	C 	0.5187	0.4233	0.304	-0.042
Mof_C 	C 	0.5618	0.3978	0.279	0.047
Mof_C 	C 	0.6564	0.4079	0.2652	-0.09
Mof_H 	H 	0.6828	0.3914	0.2476	0.063
Mof_C 	C 	0.7137	0.4426	0.277	-0.036
Mof_H 	H 	0.7768	0.4488	0.2675	0.037
Mof_C 	C 	0.6718	0.4685	0.3045	-0.02
Mof_C 	C 	0.5758	0.4579	0.3167	-0.061
Mof_H 	H 	0.5475	0.4742	0.334	0.051
Mof_C 	C 	0.5516	0.3326	0.23835	-0.085
Mof_C 	C 	0.6038	0.2967	0.24817	0.226
Mof_C 	C 	0.6507	0.2719	0.22347	-0.21
Mof_H 	H 	0.6857	0.2479	0.23	0.085
Mof_C 	C 	0.6454	0.283	0.18895	0.032
Mof_C 	C 	0.5932	0.3189	0.17914	-0.035
Mof_C 	C 	0.5463	0.34369	0.20383	0.058
Mof_C 	C 	0.4938	0.3787	0.1925	-0.1
Mof_H 	H 	0.4644	0.396	0.2089	0.07
Mof_C 	C 	0.4828	0.389	0.1596	-0.014
Mof_H 	H 	0.4463	0.4129	0.1538	0.034
Mof_C 	C 	0.5261	0.3639	0.1332	-0.036
Mof_C 	C 	0.5819	0.329	0.1438	-0.044
Mof_H 	H 	0.6125	0.3121	0.1273	0.039
Mof_C 	C 	0.7059	0.256	0.16486	0.065
Mof_C 	C 	0.6771	0.2146	0.16001	-0.148
Mof_H 	H 	0.6194	0.2042	0.1709	0.087
Mof_C 	C 	0.7347	0.18868	0.1389	0.075
Mof_H 	H 	0.7154	0.161	0.1357	0.015
Mof_C 	C 	0.821	0.2042	0.12266	-0.172
Mof_C 	C 	0.8498	0.2456	0.12751	0.062
Mof_H 	H 	0.9075	0.256	0.1166	-0.007
Mof_C 	C 	0.7923	0.27152	0.1486	-0.156
Mof_H 	H 	0.8115	0.2992	0.1519	0.072
Mof_O 	O 	0.9755	0.188	0.0942	-0.545
Mof_O 	O 	0.8467	0.1415	0.0942	-0.507
Mof_C 	C 	0.5134	0.3725	0.09608	0.112
Mof_C 	C 	0.594	0.365	0.07382	-0.185
Mof_H 	H 	0.656	0.3556	0.0824	0.069
Mof_C 	C 	0.5822	0.3715	0.03872	0.116
Mof_H 	H 	0.6361	0.3664	0.0238	-0.031
Mof_C 	C 	0.4896	0.3855	0.02586	-0.229
Mof_C 	C 	0.4089	0.3931	0.04812	0.126
Mof_H 	H 	0.347	0.4025	0.0395	0.003
Mof_C 	C 	0.4208	0.3866	0.08323	-0.187
Mof_H 	H 	0.3668	0.3916	0.0981	0.107
Mof_O 	O 	0.5467	0.3708	0.9696	-0.566
Mof_O 	O 	0.4094	0.4064	0.9757	-0.559
Mof_C 	C 	0.3752	0.4406	0.3448	0.013
Mof_C 	C 	0.355	0.4261	0.3778	-0.111
Mof_H 	H 	0.3751	0.3993	0.3841	0.009
Mof_C 	C 	0.3048	0.4516	0.4012	0.026
Mof_H 	H 	0.2913	0.4418	0.4233	0.013
Mof_C 	C 	0.2748	0.4916	0.3917	-0.121
Mof_C 	C 	0.2949	0.5062	0.3588	0.034
Mof_H 	H 	0.2749	0.533	0.3524	0.032
Mof_C 	C 	0.3451	0.4807	0.3353	-0.099
Mof_H 	H 	0.3586	0.4904	0.3132	0.066
Mof_O 	O 	0.8598	0.6212	0.3926	-0.531
Mof_O 	O 	0.9798	0.5736	0.3973	-0.566
Mof_C 	C 	0.7331	0.5012	0.3212	0.079
Mof_C 	C 	0.6919	0.5397	0.3302	-0.148
Mof_H 	H 	0.6278	0.5473	0.3222	0.084
Mof_C 	C 	0.7465	0.5669	0.3511	0.071
Mof_H 	H 	0.7189	0.5927	0.3571	0.017
Mof_C 	C 	0.8422	0.5556	0.363	-0.16
Mof_C 	C 	0.8834	0.5171	0.354	0.07
Mof_H 	H 	0.9475	0.5095	0.362	0.005
Mof_C 	C 	0.8288	0.4899	0.3331	-0.151
Mof_H 	H 	0.8564	0.4641	0.3271	0.068
Mof_C 	C 	0.2217	0.5189	0.4172	0.392
Mof_C 	C 	0.9014	0.5855	0.3875	0.468
Mof_C 	C 	0.8851	0.1753	0.1031	0.411
Mof_C 	C 	0.4733	0.3898	0.9886	0.507
Mof_O 	O 	0.2231	0.5082	0.4483	-0.287
Mof_O 	O 	0.1977	0.5526	0.4069	-0.478
Mof_O 	O 	0.374	0.312	0.2768	-0.407
Mof_O 	O 	0.6072	0.2831	0.282	-0.508
Mof_Ti	Ti	0.6833	0.2319	0.3029	0.567
Mof_O 	O 	0.5	0.205	0.345	-1.951
Mof_C 	C 	0.5903	0.2059	0.362	1.584
Mof_H 	H 	0.621	0.2323	0.3544	-0.916
Mof_C 	C 	0.6646	0.1727	0.3489	-2.045
Mof_H 	H 	0.6978	0.1828	0.3285	0.573
Mof_H 	H 	0.6281	0.1475	0.3436	0.673
Mof_H 	H 	0.7146	0.1671	0.3663	0.592
Mof_C 	C 	0.5841	0.2108	0.4012	-2.238
Mof_H 	H 	0.6129	0.2372	0.4077	0.651
Mof_H 	H 	0.6212	0.1885	0.412	0.641
Mof_H 	H 	0.5142	0.2097	0.4083	0.576
Mof_O 	O 	0.6355	0.2372	0.35	0.298
Mof_C 	C 	0.6645	0.2745	0.3636	1.06
Mof_H 	H 	0.7169	0.2843	0.3476	-0.337
Mof_C 	C 	0.7222	0.2694	0.3975	-1.294
Mof_H 	H 	0.6776	0.2579	0.4146	0.232
Mof_H 	H 	0.7465	0.2962	0.4051	0.371
Mof_H 	H 	0.7791	0.251	0.3941	0.364
Mof_C 	C 	0.5846	0.3095	0.3627	-2.611
Mof_H 	H 	0.5956	0.3266	0.3428	0.939
Mof_H 	H 	0.5906	0.3263	0.3831	0.717
Mof_H 	H 	0.5179	0.2973	0.3618	1.871
Mof_Zn	Zn	0.40127	0.59004	0.57436	1.235
Mof_Zn	Zn	0.58418	0.65863	0.57217	1.186
Mof_C 	C 	0.0121	0.8615	0.7687	-0.021
Mof_C 	C 	0.9193	0.8508	0.7834	0.181
Mof_C 	C 	0.8762	0.8763	0.8084	-0.265
Mof_H 	H 	0.8141	0.8691	0.8182	0.068
Mof_C 	C 	0.9259	0.9126	0.8187	-0.022
Mof_C 	C 	0.0187	0.9233	0.804	0.029
Mof_C 	C 	0.0618	0.8978	0.779	0
Mof_C 	C 	0.1564	0.9079	0.7652	-0.055
Mof_H 	H 	0.1828	0.8914	0.7476	0.052
Mof_C 	C 	0.2137	0.9426	0.777	-0.06
Mof_H 	H 	0.2768	0.9488	0.7675	0.048
Mof_C 	C 	0.1718	0.9685	0.8045	0.006
Mof_C 	C 	0.0758	0.9579	0.8167	-0.098
Mof_H 	H 	0.0475	0.9742	0.834	0.073
Mof_C 	C 	0.0516	0.8326	0.73835	-0.115
Mof_C 	C 	0.1038	0.7967	0.74817	0.247
Mof_C 	C 	0.1507	0.7719	0.72347	-0.225
Mof_H 	H 	0.1857	0.7479	0.73	0.094
Mof_C 	C 	0.1454	0.783	0.68895	0.052
Mof_C 	C 	0.0932	0.8189	0.67914	-0.06
Mof_C 	C 	0.0463	0.84369	0.70383	0.116
Mof_C 	C 	0.9938	0.8787	0.6925	-0.162
Mof_H 	H 	0.9644	0.896	0.7089	0.082
Mof_C 	C 	0.9828	0.889	0.6596	-0.004
Mof_H 	H 	0.9463	0.9129	0.6538	0.023
Mof_C 	C 	0.0261	0.8639	0.6332	-0.048
Mof_C 	C 	0.0819	0.829	0.6438	-0.017
Mof_H 	H 	0.1125	0.8121	0.6273	0.032
Mof_C 	C 	0.2059	0.756	0.66486	0.058
Mof_C 	C 	0.1771	0.7146	0.66001	-0.139
Mof_H 	H 	0.1194	0.7042	0.6709	0.091
Mof_C 	C 	0.2347	0.68868	0.6389	0.072
Mof_H 	H 	0.2154	0.661	0.6357	0.019
Mof_C 	C 	0.321	0.7042	0.62266	-0.163
Mof_C 	C 	0.3498	0.7456	0.62751	0.057
Mof_H 	H 	0.4075	0.756	0.6166	0.002
Mof_C 	C 	0.2923	0.77152	0.6486	-0.147
Mof_H 	H 	0.3115	0.7992	0.6519	0.072
Mof_O 	O 	0.4755	0.688	0.5942	-0.529
Mof_O 	O 	0.3467	0.6415	0.5942	-0.501
Mof_C 	C 	0.0134	0.8725	0.59608	0.189
Mof_C 	C 	0.094	0.865	0.57382	-0.251
Mof_H 	H 	0.156	0.8556	0.5824	0.093
Mof_C 	C 	0.0822	0.8715	0.53872	0.204
Mof_H 	H 	0.1361	0.8664	0.5238	-0.056
Mof_C 	C 	0.9896	0.8855	0.52586	-0.299
Mof_C 	C 	0.9089	0.8931	0.54812	0.19
Mof_H 	H 	0.847	0.9025	0.5395	-0.021
Mof_C 	C 	0.9208	0.8866	0.58323	-0.277
Mof_H 	H 	0.8668	0.8916	0.5981	0.135
Mof_O 	O 	0.0467	0.8708	0.4696	-0.546
Mof_O 	O 	0.9094	0.9064	0.4757	-0.563
Mof_C 	C 	0.8752	0.9406	0.8448	0.037
Mof_C 	C 	0.855	0.9261	0.8778	-0.134
Mof_H 	H 	0.8751	0.8993	0.8841	0.015
Mof_C 	C 	0.8048	0.9516	0.9012	0.039
Mof_H 	H 	0.7913	0.9418	0.9233	0.005
Mof_C 	C 	0.7748	0.9916	0.8917	-0.135
Mof_C 	C 	0.7949	0.0062	0.8588	0.046
Mof_H 	H 	0.7749	0.033	0.8524	0.024
Mof_C 	C 	0.8451	0.9807	0.8353	-0.124
Mof_H 	H 	0.8586	0.9904	0.8132	0.068
Mof_O 	O 	0.3598	0.1212	0.8926	-0.525
Mof_O 	O 	0.4798	0.0736	0.8973	-0.552
Mof_C 	C 	0.2331	0.0012	0.8212	0.069
Mof_C 	C 	0.1919	0.0397	0.8302	-0.139
Mof_H 	H 	0.1278	0.0473	0.8222	0.087
Mof_C 	C 	0.2465	0.0669	0.8511	0.067
Mof_H 	H 	0.2189	0.0927	0.8571	0.02
Mof_C 	C 	0.3422	0.0556	0.863	-0.152
Mof_C 	C 	0.3834	0.0171	0.854	0.064
Mof_H 	H 	0.4475	0.0095	0.862	0.013
Mof_C 	C 	0.3288	0.9899	0.8331	-0.141
Mof_H 	H 	0.3564	0.9641	0.8271	0.068
Mof_C 	C 	0.7217	0.0189	0.9172	0.395
Mof_C 	C 	0.4014	0.0855	0.8875	0.465
Mof_C 	C 	0.3851	0.6753	0.6031	0.409
Mof_C 	C 	0.9733	0.8898	0.4886	0.505
Mof_O 	O 	0.7231	0.0082	0.9483	-0.292
Mof_O 	O 	0.6977	0.0526	0.9069	-0.484
Mof_O 	O 	0.874	0.812	0.7768	-0.399
Mof_O 	O 	0.1072	0.7831	0.782	-0.511
Mof_Ti	Ti	0.1833	0.7319	0.8029	0.571
Mof_O 	O 	9.37409e-33	0.705	0.845	-1.832
Mof_C 	C 	0.0903	0.7059	0.862	1.614
Mof_H 	H 	0.121	0.7323	0.8544	-0.93
Mof_C 	C 	0.1646	0.6727	0.8489	-2.079
Mof_H 	H 	0.1978	0.6828	0.8285	0.582
Mof_H 	H 	0.1281	0.6475	0.8436	0.686
Mof_H 	H 	0.2146	0.6671	0.8663	0.604
Mof_C 	C 	0.0841	0.7108	0.9012	-2.252
Mof_H 	H 	0.1129	0.7372	0.9077	0.657
Mof_H 	H 	0.1212	0.6885	0.912	0.649
Mof_H 	H 	0.0142	0.7097	0.9083	0.6
Mof_O 	O 	0.1355	0.7372	0.85	0.295
Mof_C 	C 	0.1645	0.7745	0.8636	1.108
Mof_H 	H 	0.2169	0.7843	0.8476	-0.35
Mof_C 	C 	0.2222	0.7694	0.8975	-1.353
Mof_H 	H 	0.1776	0.7579	0.9146	0.253
Mof_H 	H 	0.2465	0.7962	0.9051	0.393
Mof_H 	H 	0.2791	0.751	0.8941	0.385
Mof_C 	C 	0.0846	0.8095	0.8627	-2.697
Mof_H 	H 	0.0956	0.8266	0.8428	0.969
Mof_H 	H 	0.0906	0.8263	0.8831	0.752
Mof_H 	H 	0.0179	0.7973	0.8618	1.909
Mof_Ti	Ti	7.66457e-33	0.25	0.6909	1.662
Mof_Ti	Ti	0.5	0.75	0.1909	1.649
Mof_Ti	Ti	-1.57364e-32	0.75	0.8091	1.662
Mof_Ti	Ti	0.5	0.25	0.3091	1.649
_end
