data_functionalizedCrystal
_audit_creation_method	'EQeq! by Chris Wilmer'
_symmetry_space_group_name_H-M	'P1'
_symmetry_Int_Tables_number	1
_symmetry_cell_setting	triclinic
loop_
_symmetry_equiv_pos_as_xyz
  x,y,z
_cell_length_a	10.3131
_cell_length_b	10.3131
_cell_length_c	14.495
_cell_angle_alpha	90
_cell_angle_beta	90
_cell_angle_gamma	90
loop_
_atom_site_label
_atom_site_type_symbol
_atom_site_fract_x
_atom_site_fract_y
_atom_site_fract_z
_atom_site_charge
Mof_Dy	Dy	0.64911	0.64911	0.875	2.292
Mof_Dy	Dy	0.35089	0.35089	0.375	2.266
Mof_Dy	Dy	0.35089	0.64911	0.125	2.237
Mof_Dy	Dy	0.64911	0.35089	0.625	2.269
Mof_H 	H 	0.5827	0.0605	0.8747	-0.055
Mof_H 	H 	0.4173	0.9395	0.3747	-0.052
Mof_H 	H 	0.9395	0.5827	0.1247	-0.055
Mof_H 	H 	0.0605	0.4173	0.6247	-0.051
Mof_H 	H 	0.4173	0.0605	0.1253	-0.051
Mof_H 	H 	0.5827	0.9395	0.6253	-0.051
Mof_H 	H 	0.0605	0.5827	0.8753	-0.046
Mof_H 	H 	0.9395	0.4173	0.3753	-0.052
Mof_H 	H 	0.5	0.3981	-0	-0.075
Mof_H 	H 	0.5	0.6019	0.5	-0.078
Mof_H 	H 	0.6019	0.5	0.25	-0.078
Mof_H 	H 	0.3981	0.5	0.75	-0.078
Mof_C 	C 	0.548	0.1056	0.9244	0.268
Mof_C 	C 	0.5445	0.239	0.9227	-0.313
Mof_C 	C 	0.5897	0.3162	0.84	0.61
Mof_C 	C 	0.452	0.8944	0.4244	0.251
Mof_C 	C 	0.4555	0.761	0.4227	-0.335
Mof_C 	C 	0.4103	0.6838	0.34	0.612
Mof_C 	C 	0.8944	0.548	0.1744	0.251
Mof_C 	C 	0.761	0.5445	0.1727	-0.338
Mof_C 	C 	0.6838	0.5897	0.09	0.615
Mof_C 	C 	0.1056	0.452	0.6744	0.25
Mof_C 	C 	0.239	0.4555	0.6727	-0.334
Mof_C 	C 	0.3162	0.4103	0.59	0.613
Mof_C 	C 	0.452	0.1056	0.0756	0.247
Mof_C 	C 	0.4555	0.239	0.0773	-0.329
Mof_C 	C 	0.4103	0.3162	0.16	0.608
Mof_C 	C 	0.548	0.8944	0.5756	0.251
Mof_C 	C 	0.5445	0.761	0.5773	-0.336
Mof_C 	C 	0.5897	0.6838	0.66	0.614
Mof_C 	C 	0.1056	0.548	0.8256	0.249
Mof_C 	C 	0.239	0.5445	0.8273	-0.331
Mof_C 	C 	0.3162	0.5897	0.91	0.612
Mof_C 	C 	0.8944	0.452	0.3256	0.251
Mof_C 	C 	0.761	0.4555	0.3273	-0.336
Mof_C 	C 	0.6838	0.4103	0.41	0.613
Mof_C 	C 	0.5	0.8925	-0	0.55
Mof_C 	C 	0.5	0.0377	-0	-0.343
Mof_C 	C 	0.5	0.3079	-0	0.226
Mof_C 	C 	0.5	0.1075	0.5	0.577
Mof_C 	C 	0.5	0.9623	0.5	-0.329
Mof_C 	C 	0.5	0.6921	0.5	0.259
Mof_C 	C 	0.1075	0.5	0.25	0.574
Mof_C 	C 	0.9623	0.5	0.25	-0.328
Mof_C 	C 	0.6921	0.5	0.25	0.259
Mof_C 	C 	0.8925	0.5	0.75	0.577
Mof_C 	C 	0.0377	0.5	0.75	-0.325
Mof_C 	C 	0.3079	0.5	0.75	0.258
Mof_O 	O 	0.5713	0.8353	0.9411	-0.575
Mof_O 	O 	0.5972	0.2572	0.7652	-0.601
Mof_O 	O 	0.6124	0.431	0.8503	-0.621
Mof_O 	O 	0.4287	0.1647	0.4411	-0.598
Mof_O 	O 	0.4028	0.7428	0.2652	-0.6
Mof_O 	O 	0.3876	0.569	0.3503	-0.624
Mof_O 	O 	0.1647	0.5713	0.1911	-0.598
Mof_O 	O 	0.7428	0.5972	0.0152	-0.617
Mof_O 	O 	0.569	0.6124	0.1003	-0.627
Mof_O 	O 	0.8353	0.4287	0.6911	-0.598
Mof_O 	O 	0.2572	0.4028	0.5152	-0.602
Mof_O 	O 	0.431	0.3876	0.6003	-0.625
Mof_O 	O 	0.4287	0.8353	0.0589	-0.595
Mof_O 	O 	0.4028	0.2572	0.2348	-0.602
Mof_O 	O 	0.3876	0.431	0.1497	-0.623
Mof_O 	O 	0.5713	0.1647	0.5589	-0.598
Mof_O 	O 	0.5972	0.7428	0.7348	-0.604
Mof_O 	O 	0.6124	0.569	0.6497	-0.626
Mof_O 	O 	0.8353	0.5713	0.8089	-0.597
Mof_O 	O 	0.2572	0.5972	0.9848	-0.584
Mof_O 	O 	0.431	0.6124	0.8997	-0.619
Mof_O 	O 	0.1647	0.4287	0.3089	-0.598
Mof_O 	O 	0.7428	0.4028	0.4848	-0.603
Mof_O 	O 	0.569	0.3876	0.3997	-0.625
_end
