data_functionalizedCrystal
_audit_creation_method	'EQeq! by Chris Wilmer'
_symmetry_space_group_name_H-M	'P1'
_symmetry_Int_Tables_number	1
_symmetry_cell_setting	triclinic
loop_
_symmetry_equiv_pos_as_xyz
  x,y,z
_cell_length_a	31.8903
_cell_length_b	31.8903
_cell_length_c	17.1915
_cell_angle_alpha	90
_cell_angle_beta	90
_cell_angle_gamma	120
loop_
_atom_site_label
_atom_site_type_symbol
_atom_site_fract_x
_atom_site_fract_y
_atom_site_fract_z
_atom_site_charge
Mof_In	In	0.56038	0.49244	0.14792	3.069
Mof_O 	O 	0.1652	0.4892	0.6543	-0.702
Mof_O 	O 	0.5593	0.4325	0.0953	-0.803
Mof_O 	O 	0.6036	0.4065	0.1584	-0.71
Mof_O 	O 	0.4472	0.9975	0.6838	-0.81
Mof_O 	O 	0.0942	0.4636	0.5922	-0.738
Mof_O 	O 	0.5247	0.4958	0.0439	-0.665
Mof_O 	O 	0.4874	0.451	0.1853	-0.786
Mof_C 	C 	0.2555	0.4276	0.3206	-0.1
Mof_H 	H 	0.2713	0.4282	0.3671	0.057
Mof_C 	C 	0.5714	0.3027	0.8211	-0.017
Mof_C 	C 	0.4943	0.0999	0.6821	0.122
Mof_H 	H 	0.4875	0.0823	0.6354	-0.008
Mof_C 	C 	0.2107	0.4271	0.3213	0.012
Mof_C 	C 	0.5576	0.3606	0.8956	-0.23
Mof_H 	H 	0.5444	0.3656	0.85	0.11
Mof_C 	C 	0.1912	0.4335	0.3954	0.089
Mof_C 	C 	0.1389	0.4151	0.4056	-0.168
Mof_H 	H 	0.117	0.3962	0.3664	0.082
Mof_C 	C 	0.2195	0.459	0.4527	-0.175
Mof_H 	H 	0.2529	0.4707	0.4473	0.089
Mof_C 	C 	0.1219	0.4257	0.4738	0.133
Mof_H 	H 	0.0886	0.4141	0.4798	-0.011
Mof_C 	C 	0.5793	0.4071	0.1009	0.614
Mof_C 	C 	0.1362	0.4691	0.5974	0.577
Mof_C 	C 	0.5763	0.378	0.0284	-0.283
Mof_C 	C 	0.5921	0.3214	0.9619	-0.201
Mof_H 	H 	0.603	0.299	0.9628	0.097
Mof_C 	C 	0.1525	0.4519	0.5302	-0.248
Mof_C 	C 	0.2036	0.4701	0.5219	0.113
Mof_H 	H 	0.2255	0.4888	0.5612	-0.021
Mof_C 	C 	0.5577	0.2541	0.8224	-0.057
Mof_H 	H 	0.5526	0.2375	0.8697	0.049
Mof_C 	C 	0.5746	0.329	0.8933	0.131
Mof_C 	C 	0.5591	0.3856	0.9615	0.188
Mof_H 	H 	0.5481	0.408	0.96	-0.024
Mof_C 	C 	0.5163	0.1496	0.6785	-0.172
Mof_H 	H 	0.5215	0.1658	0.6308	0.088
Mof_C 	C 	0.5941	0.3457	0.0294	0.135
Mof_H 	H 	0.6072	0.3407	0.0752	-0.035
Mof_C 	C 	0.355	0.449	0.315	-0.273
Mof_H 	H 	0.3435	0.4589	0.3575	0.112
Mof_C 	C 	0.402	0.455	0.322	0.022
Mof_H 	H 	0.4221	0.4682	0.3658	0.031
Mof_C 	C 	0.34	0.419	0.189	0.164
Mof_H 	H 	0.3203	0.4051	0.1455	-0.03
Mof_C 	C 	0.392	0.429	0.31	0.055
Mof_In	In	0.50756	0.06794	0.14792	3.069
Mof_O 	O 	0.5108	0.676	0.6543	-0.702
Mof_O 	O 	0.5675	0.1268	0.0953	-0.803
Mof_O 	O 	0.5935	0.1971	0.1584	-0.71
Mof_O 	O 	0.0025	0.4497	0.6838	-0.828
Mof_O 	O 	0.5364	0.6306	0.5922	-0.737
Mof_O 	O 	0.5042	0.0289	0.0439	-0.665
Mof_O 	O 	0.549	0.0364	0.1853	-0.786
Mof_C 	C 	0.5724	0.8279	0.3206	-0.101
Mof_H 	H 	0.5718	0.8431	0.3671	0.058
Mof_C 	C 	0.6973	0.2687	0.8211	-0.018
Mof_C 	C 	0.9001	0.3944	0.6821	0.129
Mof_H 	H 	0.9177	0.4052	0.6354	-0.009
Mof_C 	C 	0.5729	0.7836	0.3213	0.013
Mof_C 	C 	0.6394	0.197	0.8956	-0.23
Mof_H 	H 	0.6344	0.1788	0.85	0.11
Mof_C 	C 	0.5665	0.7577	0.3954	0.089
Mof_C 	C 	0.5849	0.7238	0.4056	-0.167
Mof_H 	H 	0.6038	0.7208	0.3664	0.083
Mof_C 	C 	0.541	0.7605	0.4527	-0.175
Mof_H 	H 	0.5293	0.7822	0.4473	0.089
Mof_C 	C 	0.5743	0.6962	0.4738	0.134
Mof_H 	H 	0.5859	0.6745	0.4798	-0.01
Mof_C 	C 	0.5929	0.1722	0.1009	0.614
Mof_C 	C 	0.5309	0.6671	0.5974	0.577
Mof_C 	C 	0.622	0.1983	0.0284	-0.282
Mof_C 	C 	0.6786	0.2707	0.9619	-0.201
Mof_H 	H 	0.701	0.304	0.9628	0.097
Mof_C 	C 	0.5481	0.7006	0.5302	-0.247
Mof_C 	C 	0.5299	0.7335	0.5219	0.113
Mof_H 	H 	0.5112	0.7367	0.5612	-0.02
Mof_C 	C 	0.7459	0.3036	0.8224	-0.057
Mof_H 	H 	0.7625	0.3151	0.8697	0.049
Mof_C 	C 	0.671	0.2456	0.8933	0.131
Mof_C 	C 	0.6144	0.1735	0.9615	0.188
Mof_H 	H 	0.592	0.1401	0.96	-0.024
Mof_C 	C 	0.8504	0.3667	0.6785	-0.177
Mof_H 	H 	0.8342	0.3557	0.6308	0.09
Mof_C 	C 	0.6543	0.2484	0.0294	0.135
Mof_H 	H 	0.6593	0.2665	0.0752	-0.035
Mof_C 	C 	0.551	0.906	0.315	-0.275
Mof_H 	H 	0.5411	0.8846	0.3575	0.113
Mof_C 	C 	0.545	0.947	0.322	0.019
Mof_H 	H 	0.5318	0.9539	0.3658	0.033
Mof_C 	C 	0.581	0.921	0.189	0.168
Mof_H 	H 	0.5949	0.9152	0.1455	-0.03
Mof_C 	C 	0.571	0.963	0.31	0.057
Mof_In	In	0.93206	0.43962	0.14792	3.068
Mof_O 	O 	0.324	0.8348	0.6543	-0.702
Mof_O 	O 	0.8732	0.4407	0.0953	-0.802
Mof_O 	O 	0.8029	0.3964	0.1584	-0.71
Mof_O 	O 	0.5503	0.5528	0.6838	-0.82
Mof_O 	O 	0.3694	0.9058	0.5922	-0.736
Mof_O 	O 	0.9711	0.4753	0.0439	-0.658
Mof_O 	O 	0.9636	0.5126	0.1853	-0.785
Mof_C 	C 	0.1721	0.7445	0.3206	-0.1
Mof_H 	H 	0.1569	0.7287	0.3671	0.057
Mof_C 	C 	0.7313	0.4286	0.8211	-0.018
Mof_C 	C 	0.6056	0.5057	0.6821	0.126
Mof_H 	H 	0.5948	0.5125	0.6354	-0.009
Mof_C 	C 	0.2164	0.7893	0.3213	0.013
Mof_C 	C 	0.803	0.4424	0.8956	-0.229
Mof_H 	H 	0.8212	0.4556	0.85	0.11
Mof_C 	C 	0.2423	0.8088	0.3954	0.089
Mof_C 	C 	0.2762	0.8611	0.4056	-0.167
Mof_H 	H 	0.2792	0.883	0.3664	0.083
Mof_C 	C 	0.2395	0.7805	0.4527	-0.175
Mof_H 	H 	0.2178	0.7471	0.4473	0.088
Mof_C 	C 	0.3038	0.8781	0.4738	0.133
Mof_H 	H 	0.3255	0.9114	0.4798	-0.009
Mof_C 	C 	0.8278	0.4207	0.1009	0.614
Mof_C 	C 	0.3329	0.8638	0.5974	0.577
Mof_C 	C 	0.8017	0.4237	0.0284	-0.282
Mof_C 	C 	0.7293	0.4079	0.9619	-0.201
Mof_H 	H 	0.696	0.397	0.9628	0.097
Mof_C 	C 	0.2994	0.8475	0.5302	-0.247
Mof_C 	C 	0.2665	0.7964	0.5219	0.113
Mof_H 	H 	0.2633	0.7745	0.5612	-0.021
Mof_C 	C 	0.6964	0.4423	0.8224	-0.057
Mof_H 	H 	0.6849	0.4474	0.8697	0.049
Mof_C 	C 	0.7544	0.4254	0.8933	0.131
Mof_C 	C 	0.8265	0.4409	0.9615	0.187
Mof_H 	H 	0.8599	0.4519	0.96	-0.023
Mof_C 	C 	0.6333	0.4837	0.6785	-0.175
Mof_H 	H 	0.6443	0.4785	0.6308	0.089
Mof_C 	C 	0.7516	0.4059	0.0294	0.135
Mof_H 	H 	0.7335	0.3928	0.0752	-0.035
Mof_C 	C 	0.094	0.645	0.315	-0.273
Mof_H 	H 	0.1154	0.6565	0.3575	0.112
Mof_C 	C 	0.053	0.598	0.322	0.023
Mof_H 	H 	0.0461	0.5779	0.3658	0.029
Mof_C 	C 	0.079	0.66	0.189	0.163
Mof_H 	H 	0.0848	0.6797	0.1455	-0.03
Mof_C 	C 	0.037	0.608	0.31	0.056
Mof_In	In	0.56038	0.49244	0.35208	3.072
Mof_O 	O 	0.1652	0.4892	0.8457	-0.701
Mof_O 	O 	0.5593	0.4325	0.4047	-0.8
Mof_O 	O 	0.6036	0.4065	0.3416	-0.709
Mof_O 	O 	0.4472	0.9975	0.8162	-0.809
Mof_O 	O 	0.0942	0.4636	0.9078	-0.734
Mof_O 	O 	0.5247	0.4958	0.4561	-0.665
Mof_O 	O 	0.4874	0.451	0.3147	-0.785
Mof_C 	C 	0.2555	0.4276	0.1794	-0.1
Mof_H 	H 	0.2713	0.4282	0.1329	0.056
Mof_C 	C 	0.5714	0.3027	0.6789	-0.019
Mof_C 	C 	0.4943	0.0999	0.8179	0.122
Mof_H 	H 	0.4875	0.0823	0.8646	-0.007
Mof_C 	C 	0.2107	0.4271	0.1787	0.011
Mof_C 	C 	0.5576	0.3606	0.6044	-0.227
Mof_H 	H 	0.5444	0.3656	0.65	0.109
Mof_C 	C 	0.1912	0.4335	0.1046	0.092
Mof_C 	C 	0.1389	0.4151	0.0944	-0.164
Mof_H 	H 	0.117	0.3962	0.1336	0.08
Mof_C 	C 	0.2195	0.459	0.0473	-0.192
Mof_H 	H 	0.2529	0.4707	0.0527	0.092
Mof_C 	C 	0.1219	0.4257	0.0262	0.116
Mof_H 	H 	0.0886	0.4141	0.0202	-0.009
Mof_C 	C 	0.5793	0.4071	0.3991	0.612
Mof_C 	C 	0.1362	0.4691	0.9026	0.574
Mof_C 	C 	0.5763	0.378	0.4716	-0.272
Mof_C 	C 	0.5921	0.3214	0.5381	-0.217
Mof_H 	H 	0.603	0.299	0.5372	0.1
Mof_C 	C 	0.1525	0.4519	0.9698	-0.235
Mof_C 	C 	0.2036	0.4701	0.9781	0.127
Mof_H 	H 	0.2255	0.4888	0.9388	-0.023
Mof_C 	C 	0.5577	0.2541	0.6776	-0.057
Mof_H 	H 	0.5526	0.2375	0.6303	0.048
Mof_C 	C 	0.5746	0.329	0.6067	0.134
Mof_C 	C 	0.5591	0.3856	0.5385	0.173
Mof_H 	H 	0.5481	0.408	0.54	-0.022
Mof_C 	C 	0.5163	0.1496	0.8215	-0.172
Mof_H 	H 	0.5215	0.1658	0.8692	0.09
Mof_C 	C 	0.5941	0.3457	0.4706	0.148
Mof_H 	H 	0.6072	0.3407	0.4248	-0.038
Mof_C 	C 	0.355	0.449	0.185	-0.269
Mof_H 	H 	0.3435	0.4589	0.1425	0.11
Mof_C 	C 	0.402	0.455	0.178	0.024
Mof_H 	H 	0.4221	0.4682	0.1342	0.029
Mof_C 	C 	0.34	0.419	0.311	0.169
Mof_H 	H 	0.3203	0.4051	0.3545	-0.03
Mof_C 	C 	0.392	0.429	0.19	0.053
Mof_In	In	0.50756	0.06794	0.35208	3.071
Mof_O 	O 	0.5108	0.676	0.8457	-0.701
Mof_O 	O 	0.5675	0.1268	0.4047	-0.8
Mof_O 	O 	0.5935	0.1971	0.3416	-0.709
Mof_O 	O 	0.0025	0.4497	0.8162	-0.827
Mof_O 	O 	0.5364	0.6306	0.9078	-0.733
Mof_O 	O 	0.5042	0.0289	0.4561	-0.665
Mof_O 	O 	0.549	0.0364	0.3147	-0.786
Mof_C 	C 	0.5724	0.8279	0.1794	-0.1
Mof_H 	H 	0.5718	0.8431	0.1329	0.057
Mof_C 	C 	0.6973	0.2687	0.6789	-0.019
Mof_C 	C 	0.9001	0.3944	0.8179	0.129
Mof_H 	H 	0.9177	0.4052	0.8646	-0.007
Mof_C 	C 	0.5729	0.7836	0.1787	0.012
Mof_C 	C 	0.6394	0.197	0.6044	-0.227
Mof_H 	H 	0.6344	0.1788	0.65	0.109
Mof_C 	C 	0.5665	0.7577	0.1046	0.093
Mof_C 	C 	0.5849	0.7238	0.0944	-0.164
Mof_H 	H 	0.6038	0.7208	0.1336	0.081
Mof_C 	C 	0.541	0.7605	0.0473	-0.191
Mof_H 	H 	0.5293	0.7822	0.0527	0.092
Mof_C 	C 	0.5743	0.6962	0.0262	0.117
Mof_H 	H 	0.5859	0.6745	0.0202	-0.007
Mof_C 	C 	0.5929	0.1722	0.3991	0.612
Mof_C 	C 	0.5309	0.6671	0.9026	0.574
Mof_C 	C 	0.622	0.1983	0.4716	-0.272
Mof_C 	C 	0.6786	0.2707	0.5381	-0.217
Mof_H 	H 	0.701	0.304	0.5372	0.1
Mof_C 	C 	0.5481	0.7006	0.9698	-0.235
Mof_C 	C 	0.5299	0.7335	0.9781	0.127
Mof_H 	H 	0.5112	0.7367	0.9388	-0.023
Mof_C 	C 	0.7459	0.3036	0.6776	-0.056
Mof_H 	H 	0.7625	0.3151	0.6303	0.048
Mof_C 	C 	0.671	0.2456	0.6067	0.134
Mof_C 	C 	0.6144	0.1735	0.5385	0.173
Mof_H 	H 	0.592	0.1401	0.54	-0.022
Mof_C 	C 	0.8504	0.3667	0.8215	-0.177
Mof_H 	H 	0.8342	0.3557	0.8692	0.091
Mof_C 	C 	0.6543	0.2484	0.4706	0.149
Mof_H 	H 	0.6593	0.2665	0.4248	-0.038
Mof_C 	C 	0.551	0.906	0.185	-0.271
Mof_H 	H 	0.5411	0.8846	0.1425	0.111
Mof_C 	C 	0.545	0.947	0.178	0.022
Mof_H 	H 	0.5318	0.9539	0.1342	0.031
Mof_C 	C 	0.581	0.921	0.311	0.172
Mof_H 	H 	0.5949	0.9152	0.3545	-0.03
Mof_C 	C 	0.571	0.963	0.19	0.054
Mof_In	In	0.93206	0.43962	0.35208	3.07
Mof_O 	O 	0.324	0.8348	0.8457	-0.701
Mof_O 	O 	0.8732	0.4407	0.4047	-0.799
Mof_O 	O 	0.8029	0.3964	0.3416	-0.709
Mof_O 	O 	0.5503	0.5528	0.8162	-0.819
Mof_O 	O 	0.3694	0.9058	0.9078	-0.732
Mof_O 	O 	0.9711	0.4753	0.4561	-0.659
Mof_O 	O 	0.9636	0.5126	0.3147	-0.785
Mof_C 	C 	0.1721	0.7445	0.1794	-0.099
Mof_H 	H 	0.1569	0.7287	0.1329	0.056
Mof_C 	C 	0.7313	0.4286	0.6789	-0.019
Mof_C 	C 	0.6056	0.5057	0.8179	0.126
Mof_H 	H 	0.5948	0.5125	0.8646	-0.007
Mof_C 	C 	0.2164	0.7893	0.1787	0.011
Mof_C 	C 	0.803	0.4424	0.6044	-0.227
Mof_H 	H 	0.8212	0.4556	0.65	0.109
Mof_C 	C 	0.2423	0.8088	0.1046	0.092
Mof_C 	C 	0.2762	0.8611	0.0944	-0.164
Mof_H 	H 	0.2792	0.883	0.1336	0.081
Mof_C 	C 	0.2395	0.7805	0.0473	-0.192
Mof_H 	H 	0.2178	0.7471	0.0527	0.092
Mof_C 	C 	0.3038	0.8781	0.0262	0.115
Mof_H 	H 	0.3255	0.9114	0.0202	-0.006
Mof_C 	C 	0.8278	0.4207	0.3991	0.612
Mof_C 	C 	0.3329	0.8638	0.9026	0.574
Mof_C 	C 	0.8017	0.4237	0.4716	-0.272
Mof_C 	C 	0.7293	0.4079	0.5381	-0.217
Mof_H 	H 	0.696	0.397	0.5372	0.1
Mof_C 	C 	0.2994	0.8475	0.9698	-0.234
Mof_C 	C 	0.2665	0.7964	0.9781	0.127
Mof_H 	H 	0.2633	0.7745	0.9388	-0.023
Mof_C 	C 	0.6964	0.4423	0.6776	-0.056
Mof_H 	H 	0.6849	0.4474	0.6303	0.048
Mof_C 	C 	0.7544	0.4254	0.6067	0.134
Mof_C 	C 	0.8265	0.4409	0.5385	0.172
Mof_H 	H 	0.8599	0.4519	0.54	-0.022
Mof_C 	C 	0.6333	0.4837	0.8215	-0.175
Mof_H 	H 	0.6443	0.4785	0.8692	0.09
Mof_C 	C 	0.7516	0.4059	0.4706	0.148
Mof_H 	H 	0.7335	0.3928	0.4248	-0.038
Mof_C 	C 	0.094	0.645	0.185	-0.268
Mof_H 	H 	0.1154	0.6565	0.1425	0.109
Mof_C 	C 	0.053	0.598	0.178	0.025
Mof_H 	H 	0.0461	0.5779	0.1342	0.026
Mof_C 	C 	0.079	0.66	0.311	0.167
Mof_H 	H 	0.0848	0.6797	0.3545	-0.03
Mof_C 	C 	0.037	0.608	0.19	0.053
Mof_In	In	0.49244	0.56038	0.85208	3.072
Mof_O 	O 	0.4892	0.1652	0.3457	-0.702
Mof_O 	O 	0.4325	0.5593	0.9047	-0.797
Mof_O 	O 	0.4065	0.6036	0.8416	-0.709
Mof_O 	O 	0.9975	0.4472	0.3162	-0.81
Mof_O 	O 	0.4636	0.0942	0.4078	-0.738
Mof_O 	O 	0.4958	0.5247	0.9561	-0.655
Mof_O 	O 	0.451	0.4874	0.8147	-0.785
Mof_C 	C 	0.4276	0.2555	0.6794	-0.102
Mof_H 	H 	0.4282	0.2713	0.6329	0.058
Mof_C 	C 	0.3027	0.5714	0.1789	-0.022
Mof_C 	C 	0.0999	0.4943	0.3179	0.123
Mof_H 	H 	0.0823	0.4875	0.3646	-0.009
Mof_C 	C 	0.4271	0.2107	0.6787	0.014
Mof_C 	C 	0.3606	0.5576	0.1044	-0.224
Mof_H 	H 	0.3656	0.5444	0.15	0.107
Mof_C 	C 	0.4335	0.1912	0.6046	0.088
Mof_C 	C 	0.4151	0.1389	0.5944	-0.167
Mof_H 	H 	0.3962	0.117	0.6336	0.082
Mof_C 	C 	0.459	0.2195	0.5473	-0.175
Mof_H 	H 	0.4707	0.2529	0.5527	0.088
Mof_C 	C 	0.4257	0.1219	0.5262	0.133
Mof_H 	H 	0.4141	0.0886	0.5202	-0.011
Mof_C 	C 	0.4071	0.5793	0.8991	0.611
Mof_C 	C 	0.4691	0.1362	0.4026	0.577
Mof_C 	C 	0.378	0.5763	0.9716	-0.262
Mof_C 	C 	0.3214	0.5921	0.0381	-0.235
Mof_H 	H 	0.299	0.603	0.0372	0.103
Mof_C 	C 	0.4519	0.1525	0.4698	-0.248
Mof_C 	C 	0.4701	0.2036	0.4781	0.113
Mof_H 	H 	0.4888	0.2255	0.4388	-0.021
Mof_C 	C 	0.2541	0.5577	0.1776	-0.054
Mof_H 	H 	0.2375	0.5526	0.1303	0.046
Mof_C 	C 	0.329	0.5746	0.1067	0.138
Mof_C 	C 	0.3856	0.5591	0.0385	0.157
Mof_H 	H 	0.408	0.5481	0.04	-0.02
Mof_C 	C 	0.1496	0.5163	0.3215	-0.173
Mof_H 	H 	0.1658	0.5215	0.3692	0.089
Mof_C 	C 	0.3457	0.5941	0.9706	0.164
Mof_H 	H 	0.3407	0.6072	0.9248	-0.041
Mof_C 	C 	0.449	0.355	0.685	-0.273
Mof_H 	H 	0.4589	0.3435	0.6425	0.112
Mof_C 	C 	0.455	0.402	0.678	0.023
Mof_H 	H 	0.4682	0.4221	0.6342	0.031
Mof_C 	C 	0.419	0.34	0.811	0.173
Mof_H 	H 	0.4051	0.3203	0.8545	-0.03
Mof_C 	C 	0.429	0.392	0.69	0.055
Mof_In	In	0.06794	0.50756	0.85208	3.072
Mof_O 	O 	0.676	0.5108	0.3457	-0.702
Mof_O 	O 	0.1268	0.5675	0.9047	-0.797
Mof_O 	O 	0.1971	0.5935	0.8416	-0.708
Mof_O 	O 	0.4497	0.0025	0.3162	-0.829
Mof_O 	O 	0.6306	0.5364	0.4078	-0.737
Mof_O 	O 	0.0289	0.5042	0.9561	-0.653
Mof_O 	O 	0.0364	0.549	0.8147	-0.785
Mof_C 	C 	0.8279	0.5724	0.6794	-0.102
Mof_H 	H 	0.8431	0.5718	0.6329	0.059
Mof_C 	C 	0.2687	0.6973	0.1789	-0.023
Mof_C 	C 	0.3944	0.9001	0.3179	0.13
Mof_H 	H 	0.4052	0.9177	0.3646	-0.009
Mof_C 	C 	0.7836	0.5729	0.6787	0.015
Mof_C 	C 	0.197	0.6394	0.1044	-0.224
Mof_H 	H 	0.1788	0.6344	0.15	0.107
Mof_C 	C 	0.7577	0.5665	0.6046	0.088
Mof_C 	C 	0.7238	0.5849	0.5944	-0.167
Mof_H 	H 	0.7208	0.6038	0.6336	0.083
Mof_C 	C 	0.7605	0.541	0.5473	-0.174
Mof_H 	H 	0.7822	0.5293	0.5527	0.088
Mof_C 	C 	0.6962	0.5743	0.5262	0.133
Mof_H 	H 	0.6745	0.5859	0.5202	-0.009
Mof_C 	C 	0.1722	0.5929	0.8991	0.61
Mof_C 	C 	0.6671	0.5309	0.4026	0.577
Mof_C 	C 	0.1983	0.622	0.9716	-0.261
Mof_C 	C 	0.2707	0.6786	0.0381	-0.235
Mof_H 	H 	0.304	0.701	0.0372	0.103
Mof_C 	C 	0.7006	0.5481	0.4698	-0.247
Mof_C 	C 	0.7335	0.5299	0.4781	0.113
Mof_H 	H 	0.7367	0.5112	0.4388	-0.021
Mof_C 	C 	0.3036	0.7459	0.1776	-0.053
Mof_H 	H 	0.3151	0.7625	0.1303	0.046
Mof_C 	C 	0.2456	0.671	0.1067	0.138
Mof_C 	C 	0.1735	0.6144	0.0385	0.156
Mof_H 	H 	0.1401	0.592	0.04	-0.02
Mof_C 	C 	0.3667	0.8504	0.3215	-0.177
Mof_H 	H 	0.3557	0.8342	0.3692	0.09
Mof_C 	C 	0.2484	0.6543	0.9706	0.164
Mof_H 	H 	0.2665	0.6593	0.9248	-0.041
Mof_C 	C 	0.906	0.551	0.685	-0.276
Mof_H 	H 	0.8846	0.5411	0.6425	0.113
Mof_C 	C 	0.947	0.545	0.678	0.02
Mof_H 	H 	0.9539	0.5318	0.6342	0.033
Mof_C 	C 	0.921	0.581	0.811	0.176
Mof_H 	H 	0.9152	0.5949	0.8545	-0.03
Mof_C 	C 	0.963	0.571	0.69	0.057
Mof_In	In	0.43962	0.93206	0.85208	3.071
Mof_O 	O 	0.8348	0.324	0.3457	-0.702
Mof_O 	O 	0.4407	0.8732	0.9047	-0.797
Mof_O 	O 	0.3964	0.8029	0.8416	-0.708
Mof_O 	O 	0.5528	0.5503	0.3162	-0.82
Mof_O 	O 	0.9058	0.3694	0.4078	-0.736
Mof_O 	O 	0.4753	0.9711	0.9561	-0.648
Mof_O 	O 	0.5126	0.9636	0.8147	-0.784
Mof_C 	C 	0.7445	0.1721	0.6794	-0.102
Mof_H 	H 	0.7287	0.1569	0.6329	0.058
Mof_C 	C 	0.4286	0.7313	0.1789	-0.022
Mof_C 	C 	0.5057	0.6056	0.3179	0.127
Mof_H 	H 	0.5125	0.5948	0.3646	-0.009
Mof_C 	C 	0.7893	0.2164	0.6787	0.015
Mof_C 	C 	0.4424	0.803	0.1044	-0.224
Mof_H 	H 	0.4556	0.8212	0.15	0.107
Mof_C 	C 	0.8088	0.2423	0.6046	0.088
Mof_C 	C 	0.8611	0.2762	0.5944	-0.167
Mof_H 	H 	0.883	0.2792	0.6336	0.083
Mof_C 	C 	0.7805	0.2395	0.5473	-0.174
Mof_H 	H 	0.7471	0.2178	0.5527	0.088
Mof_C 	C 	0.8781	0.3038	0.5262	0.133
Mof_H 	H 	0.9114	0.3255	0.5202	-0.009
Mof_C 	C 	0.4207	0.8278	0.8991	0.61
Mof_C 	C 	0.8638	0.3329	0.4026	0.577
Mof_C 	C 	0.4237	0.8017	0.9716	-0.261
Mof_C 	C 	0.4079	0.7293	0.0381	-0.235
Mof_H 	H 	0.397	0.696	0.0372	0.103
Mof_C 	C 	0.8475	0.2994	0.4698	-0.247
Mof_C 	C 	0.7964	0.2665	0.4781	0.113
Mof_H 	H 	0.7745	0.2633	0.4388	-0.021
Mof_C 	C 	0.4423	0.6964	0.1776	-0.054
Mof_H 	H 	0.4474	0.6849	0.1303	0.046
Mof_C 	C 	0.4254	0.7544	0.1067	0.137
Mof_C 	C 	0.4409	0.8265	0.0385	0.156
Mof_H 	H 	0.4519	0.8599	0.04	-0.02
Mof_C 	C 	0.4837	0.6333	0.3215	-0.176
Mof_H 	H 	0.4785	0.6443	0.3692	0.089
Mof_C 	C 	0.4059	0.7516	0.9706	0.163
Mof_H 	H 	0.3928	0.7335	0.9248	-0.041
Mof_C 	C 	0.645	0.094	0.685	-0.273
Mof_H 	H 	0.6565	0.1154	0.6425	0.112
Mof_C 	C 	0.598	0.053	0.678	0.024
Mof_H 	H 	0.5779	0.0461	0.6342	0.028
Mof_C 	C 	0.66	0.079	0.811	0.171
Mof_H 	H 	0.6797	0.0848	0.8545	-0.03
Mof_C 	C 	0.608	0.037	0.69	0.055
Mof_In	In	0.49244	0.56038	0.64792	3.072
Mof_O 	O 	0.4892	0.1652	0.1543	-0.703
Mof_O 	O 	0.4325	0.5593	0.5953	-0.8
Mof_O 	O 	0.4065	0.6036	0.6584	-0.709
Mof_O 	O 	0.9975	0.4472	0.1838	-0.81
Mof_O 	O 	0.4636	0.0942	0.0922	-0.741
Mof_O 	O 	0.4958	0.5247	0.5439	-0.665
Mof_O 	O 	0.451	0.4874	0.6853	-0.785
Mof_C 	C 	0.4276	0.2555	0.8206	-0.103
Mof_H 	H 	0.4282	0.2713	0.8671	0.059
Mof_C 	C 	0.3027	0.5714	0.3211	-0.021
Mof_C 	C 	0.0999	0.4943	0.1821	0.123
Mof_H 	H 	0.0823	0.4875	0.1354	-0.01
Mof_C 	C 	0.4271	0.2107	0.8213	0.016
Mof_C 	C 	0.3606	0.5576	0.3956	-0.227
Mof_H 	H 	0.3656	0.5444	0.35	0.109
Mof_C 	C 	0.4335	0.1912	0.8954	0.085
Mof_C 	C 	0.4151	0.1389	0.9056	-0.17
Mof_H 	H 	0.3962	0.117	0.8664	0.083
Mof_C 	C 	0.459	0.2195	0.9527	-0.159
Mof_H 	H 	0.4707	0.2529	0.9473	0.085
Mof_C 	C 	0.4257	0.1219	0.9738	0.149
Mof_H 	H 	0.4141	0.0886	0.9798	-0.012
Mof_C 	C 	0.4071	0.5793	0.6009	0.612
Mof_C 	C 	0.4691	0.1362	0.0974	0.579
Mof_C 	C 	0.378	0.5763	0.5284	-0.272
Mof_C 	C 	0.3214	0.5921	0.4619	-0.217
Mof_H 	H 	0.299	0.603	0.4628	0.1
Mof_C 	C 	0.4519	0.1525	0.0302	-0.259
Mof_C 	C 	0.4701	0.2036	0.0219	0.099
Mof_H 	H 	0.4888	0.2255	0.0612	-0.018
Mof_C 	C 	0.2541	0.5577	0.3224	-0.055
Mof_H 	H 	0.2375	0.5526	0.3697	0.048
Mof_C 	C 	0.329	0.5746	0.3933	0.135
Mof_C 	C 	0.3856	0.5591	0.4615	0.173
Mof_H 	H 	0.408	0.5481	0.46	-0.022
Mof_C 	C 	0.1496	0.5163	0.1785	-0.173
Mof_H 	H 	0.1658	0.5215	0.1308	0.087
Mof_C 	C 	0.3457	0.5941	0.5294	0.149
Mof_H 	H 	0.3407	0.6072	0.5752	-0.038
Mof_C 	C 	0.449	0.355	0.815	-0.277
Mof_H 	H 	0.4589	0.3435	0.8575	0.114
Mof_C 	C 	0.455	0.402	0.822	0.021
Mof_H 	H 	0.4682	0.4221	0.8658	0.033
Mof_C 	C 	0.419	0.34	0.689	0.169
Mof_H 	H 	0.4051	0.3203	0.6455	-0.03
Mof_C 	C 	0.429	0.392	0.81	0.058
Mof_In	In	0.06794	0.50756	0.64792	3.072
Mof_O 	O 	0.676	0.5108	0.1543	-0.703
Mof_O 	O 	0.1268	0.5675	0.5953	-0.8
Mof_O 	O 	0.1971	0.5935	0.6584	-0.709
Mof_O 	O 	0.4497	0.0025	0.1838	-0.829
Mof_O 	O 	0.6306	0.5364	0.0922	-0.74
Mof_O 	O 	0.0289	0.5042	0.5439	-0.665
Mof_O 	O 	0.0364	0.549	0.6853	-0.786
Mof_C 	C 	0.8279	0.5724	0.8206	-0.103
Mof_H 	H 	0.8431	0.5718	0.8671	0.06
Mof_C 	C 	0.2687	0.6973	0.3211	-0.021
Mof_C 	C 	0.3944	0.9001	0.1821	0.13
Mof_H 	H 	0.4052	0.9177	0.1354	-0.01
Mof_C 	C 	0.7836	0.5729	0.8213	0.017
Mof_C 	C 	0.197	0.6394	0.3956	-0.228
Mof_H 	H 	0.1788	0.6344	0.35	0.109
Mof_C 	C 	0.7577	0.5665	0.8954	0.085
Mof_C 	C 	0.7238	0.5849	0.9056	-0.169
Mof_H 	H 	0.7208	0.6038	0.8664	0.085
Mof_C 	C 	0.7605	0.541	0.9527	-0.158
Mof_H 	H 	0.7822	0.5293	0.9473	0.085
Mof_C 	C 	0.6962	0.5743	0.9738	0.149
Mof_H 	H 	0.6745	0.5859	0.9798	-0.011
Mof_C 	C 	0.1722	0.5929	0.6009	0.612
Mof_C 	C 	0.6671	0.5309	0.0974	0.579
Mof_C 	C 	0.1983	0.622	0.5284	-0.273
Mof_C 	C 	0.2707	0.6786	0.4619	-0.218
Mof_H 	H 	0.304	0.701	0.4628	0.1
Mof_C 	C 	0.7006	0.5481	0.0302	-0.259
Mof_C 	C 	0.7335	0.5299	0.0219	0.1
Mof_H 	H 	0.7367	0.5112	0.0612	-0.018
Mof_C 	C 	0.3036	0.7459	0.3224	-0.054
Mof_H 	H 	0.3151	0.7625	0.3697	0.047
Mof_C 	C 	0.2456	0.671	0.3933	0.135
Mof_C 	C 	0.1735	0.6144	0.4615	0.173
Mof_H 	H 	0.1401	0.592	0.46	-0.022
Mof_C 	C 	0.3667	0.8504	0.1785	-0.177
Mof_H 	H 	0.3557	0.8342	0.1308	0.089
Mof_C 	C 	0.2484	0.6543	0.5294	0.149
Mof_H 	H 	0.2665	0.6593	0.5752	-0.038
Mof_C 	C 	0.906	0.551	0.815	-0.279
Mof_H 	H 	0.8846	0.5411	0.8575	0.115
Mof_C 	C 	0.947	0.545	0.822	0.019
Mof_H 	H 	0.9539	0.5318	0.8658	0.035
Mof_C 	C 	0.921	0.581	0.689	0.173
Mof_H 	H 	0.9152	0.5949	0.6455	-0.03
Mof_C 	C 	0.963	0.571	0.81	0.059
Mof_In	In	0.43962	0.93206	0.64792	3.071
Mof_O 	O 	0.8348	0.324	0.1543	-0.703
Mof_O 	O 	0.4407	0.8732	0.5953	-0.8
Mof_O 	O 	0.3964	0.8029	0.6584	-0.709
Mof_O 	O 	0.5528	0.5503	0.1838	-0.82
Mof_O 	O 	0.9058	0.3694	0.0922	-0.739
Mof_O 	O 	0.4753	0.9711	0.5439	-0.659
Mof_O 	O 	0.5126	0.9636	0.6853	-0.785
Mof_C 	C 	0.7445	0.1721	0.8206	-0.103
Mof_H 	H 	0.7287	0.1569	0.8671	0.059
Mof_C 	C 	0.4286	0.7313	0.3211	-0.021
Mof_C 	C 	0.5057	0.6056	0.1821	0.127
Mof_H 	H 	0.5125	0.5948	0.1354	-0.01
Mof_C 	C 	0.7893	0.2164	0.8213	0.016
Mof_C 	C 	0.4424	0.803	0.3956	-0.227
Mof_H 	H 	0.4556	0.8212	0.35	0.109
Mof_C 	C 	0.8088	0.2423	0.8954	0.085
Mof_C 	C 	0.8611	0.2762	0.9056	-0.169
Mof_H 	H 	0.883	0.2792	0.8664	0.084
Mof_C 	C 	0.7805	0.2395	0.9527	-0.159
Mof_H 	H 	0.7471	0.2178	0.9473	0.085
Mof_C 	C 	0.8781	0.3038	0.9738	0.148
Mof_H 	H 	0.9114	0.3255	0.9798	-0.01
Mof_C 	C 	0.4207	0.8278	0.6009	0.612
Mof_C 	C 	0.8638	0.3329	0.0974	0.579
Mof_C 	C 	0.4237	0.8017	0.5284	-0.272
Mof_C 	C 	0.4079	0.7293	0.4619	-0.217
Mof_H 	H 	0.397	0.696	0.4628	0.1
Mof_C 	C 	0.8475	0.2994	0.0302	-0.257
Mof_C 	C 	0.7964	0.2665	0.0219	0.1
Mof_H 	H 	0.7745	0.2633	0.0612	-0.018
Mof_C 	C 	0.4423	0.6964	0.3224	-0.055
Mof_H 	H 	0.4474	0.6849	0.3697	0.047
Mof_C 	C 	0.4254	0.7544	0.3933	0.135
Mof_C 	C 	0.4409	0.8265	0.4615	0.173
Mof_H 	H 	0.4519	0.8599	0.46	-0.022
Mof_C 	C 	0.4837	0.6333	0.1785	-0.176
Mof_H 	H 	0.4785	0.6443	0.1308	0.088
Mof_C 	C 	0.4059	0.7516	0.5294	0.149
Mof_H 	H 	0.3928	0.7335	0.5752	-0.038
Mof_C 	C 	0.645	0.094	0.815	-0.277
Mof_H 	H 	0.6565	0.1154	0.8575	0.113
Mof_C 	C 	0.598	0.053	0.822	0.022
Mof_H 	H 	0.5779	0.0461	0.8658	0.03
Mof_C 	C 	0.66	0.079	0.689	0.168
Mof_H 	H 	0.6797	0.0848	0.6455	-0.03
Mof_C 	C 	0.608	0.037	0.81	0.058
Mof_In	In	0.63708	0.46141	0.25	2.392
Mof_O 	O 	0.5892	0.4847	0.25	-1.469
Mof_C 	C 	0.2745	0.4272	0.25	0.047
Mof_C 	C 	0.3253	0.4304	0.25	-0.007
Mof_C 	C 	0.1884	0.4271	0.25	-0.08
Mof_H 	H 	0.1589	0.427	0.25	0.058
Mof_C 	C 	0.4692	0.4483	0.25	0.63
Mof_C 	C 	0.4145	0.4369	0.25	-0.202
Mof_In	In	0.53859	0.17567	0.25	2.391
Mof_O 	O 	0.5153	0.1045	0.25	-1.469
Mof_C 	C 	0.5728	0.8473	0.25	0.049
Mof_C 	C 	0.5696	0.8949	0.25	-0.008
Mof_C 	C 	0.5729	0.7613	0.25	-0.08
Mof_H 	H 	0.573	0.7319	0.25	0.058
Mof_C 	C 	0.5517	0.0209	0.25	0.624
Mof_C 	C 	0.5631	0.9776	0.25	-0.196
Mof_In	In	0.82433	0.36292	0.25	2.392
Mof_O 	O 	0.8955	0.4108	0.25	-1.468
Mof_C 	C 	0.1527	0.7255	0.25	0.047
Mof_C 	C 	0.1051	0.6747	0.25	-0.006
Mof_C 	C 	0.2387	0.8116	0.25	-0.08
Mof_H 	H 	0.2681	0.8411	0.25	0.058
Mof_C 	C 	0.9791	0.5308	0.25	0.637
Mof_C 	C 	0.0224	0.5855	0.25	-0.209
Mof_In	In	0.46141	0.63708	0.75	2.394
Mof_O 	O 	0.4847	0.5892	0.75	-1.469
Mof_C 	C 	0.4272	0.2745	0.75	0.05
Mof_C 	C 	0.4304	0.3253	0.75	-0.008
Mof_C 	C 	0.4271	0.1884	0.75	-0.082
Mof_H 	H 	0.427	0.1589	0.75	0.059
Mof_C 	C 	0.4483	0.4692	0.75	0.63
Mof_C 	C 	0.4369	0.4145	0.75	-0.203
Mof_In	In	0.17567	0.53859	0.75	2.394
Mof_O 	O 	0.1045	0.5153	0.75	-1.469
Mof_C 	C 	0.8473	0.5728	0.75	0.051
Mof_C 	C 	0.8949	0.5696	0.75	-0.009
Mof_C 	C 	0.7613	0.5729	0.75	-0.083
Mof_H 	H 	0.7319	0.573	0.75	0.06
Mof_C 	C 	0.0209	0.5517	0.75	0.624
Mof_C 	C 	0.9776	0.5631	0.75	-0.197
Mof_In	In	0.36292	0.82433	0.75	2.394
Mof_O 	O 	0.4108	0.8955	0.75	-1.469
Mof_C 	C 	0.7255	0.1527	0.75	0.05
Mof_C 	C 	0.6747	0.1051	0.75	-0.007
Mof_C 	C 	0.8116	0.2387	0.75	-0.082
Mof_H 	H 	0.8411	0.2681	0.75	0.06
Mof_C 	C 	0.5308	0.9791	0.75	0.637
Mof_C 	C 	0.5855	0.0224	0.75	-0.209
Mof_C 	C 	0.5767	0.325	0.75	-0.049
Mof_H 	H 	0.5845	0.3576	0.75	0.048
Mof_C 	C 	0.5514	0.2302	0.75	0
Mof_C 	C 	0.5308	0.1754	0.75	0.086
Mof_C 	C 	0.4821	0.0753	0.75	-0.218
Mof_C 	C 	0.4523	0.0173	0.75	0.593
Mof_C 	C 	0.675	0.2517	0.75	-0.048
Mof_H 	H 	0.6424	0.2269	0.75	0.048
Mof_C 	C 	0.7698	0.3212	0.75	-0.001
Mof_C 	C 	0.8246	0.3554	0.75	0.089
Mof_C 	C 	0.9247	0.4068	0.75	-0.226
Mof_C 	C 	0.9827	0.435	0.75	0.626
Mof_C 	C 	0.7483	0.4233	0.75	-0.048
Mof_H 	H 	0.7731	0.4155	0.75	0.048
Mof_C 	C 	0.6788	0.4486	0.75	-0
Mof_C 	C 	0.6446	0.4692	0.75	0.088
Mof_C 	C 	0.5932	0.5179	0.75	-0.222
Mof_C 	C 	0.565	0.5477	0.75	0.611
Mof_C 	C 	0.325	0.5767	0.25	-0.046
Mof_H 	H 	0.3576	0.5845	0.25	0.047
Mof_C 	C 	0.2302	0.5514	0.25	-0.001
Mof_C 	C 	0.1754	0.5308	0.25	0.087
Mof_C 	C 	0.0753	0.4821	0.25	-0.219
Mof_C 	C 	0.0173	0.4523	0.25	0.593
Mof_C 	C 	0.2517	0.675	0.25	-0.045
Mof_H 	H 	0.2269	0.6424	0.25	0.047
Mof_C 	C 	0.3212	0.7698	0.25	-0.003
Mof_C 	C 	0.3554	0.8246	0.25	0.09
Mof_C 	C 	0.4068	0.9247	0.25	-0.227
Mof_C 	C 	0.435	0.9827	0.25	0.626
Mof_C 	C 	0.4233	0.7483	0.25	-0.046
Mof_H 	H 	0.4155	0.7731	0.25	0.047
Mof_C 	C 	0.4486	0.6788	0.25	-0.002
Mof_C 	C 	0.4692	0.6446	0.25	0.089
Mof_C 	C 	0.5179	0.5932	0.25	-0.223
Mof_C 	C 	0.5477	0.565	0.25	0.611
Mof_C 	C 	0.5336	0.5336	-0	0.61
Mof_H 	H 	0.563	0.563	-0	-0.221
Mof_C 	C 	0.4664	0	-0	0.6
Mof_H 	H 	0.437	0	-0	-0.22
Mof_C 	C 	-3.00337e-17	0.4664	-0	0.598
Mof_H 	H 	-6.00674e-17	0.437	-0	-0.22
Mof_C 	C 	0.5336	0.5336	0.5	0.625
Mof_H 	H 	0.563	0.563	0.5	-0.223
Mof_C 	C 	0.4664	0	0.5	0.615
Mof_H 	H 	0.437	0	0.5	-0.222
Mof_C 	C 	2.70581e-17	0.4664	0.5	0.615
Mof_H 	H 	-3.30093e-17	0.437	0.5	-0.222
_end
