data_functionalizedCrystal
_audit_creation_method	'EQeq! by Chris Wilmer'
_symmetry_space_group_name_H-M	'P1'
_symmetry_Int_Tables_number	1
_symmetry_cell_setting	triclinic
loop_
_symmetry_equiv_pos_as_xyz
  x,y,z
_cell_length_a	19.953
_cell_length_b	9.495
_cell_length_c	25.805
_cell_angle_alpha	90
_cell_angle_beta	91.915
_cell_angle_gamma	90
loop_
_atom_site_label
_atom_site_type_symbol
_atom_site_fract_x
_atom_site_fract_y
_atom_site_fract_z
_atom_site_charge
Mof_Zn	Zn	0.08473	0.45196	0.47275	1.231
Mof_O 	O 	0.98763	0.4274	0.44848	-0.473
Mof_O 	O 	0.3816	0.956	0.09849	-0.46
Mof_O 	O 	0.92117	0.7024	0.47769	-0.507
Mof_O 	O 	0.90482	0.3574	0.49685	-0.457
Mof_O 	O 	0.84362	0.8531	0.49971	-0.504
Mof_O 	O 	0.2927	0.9117	0.04968	-0.529
Mof_C 	C 	0.9209	0.0776	0.46773	0.069
Mof_H 	H 	0.8874	0.0976	0.4908	0.036
Mof_C 	C 	0.9338	0.9397	0.45401	-0.131
Mof_C 	C 	0.9813	0.9095	0.41852	0.018
Mof_H 	H 	0.9895	0.8162	0.4097	0.037
Mof_C 	C 	0.0181	0.0182	0.39525	-0.04
Mof_C 	C 	0.0041	0.1573	0.41155	0.016
Mof_H 	H 	0.0275	0.2318	0.3973	0.027
Mof_C 	C 	0.9578	0.185	0.44719	-0.131
Mof_C 	C 	0.0683	0.9904	0.356	0.064
Mof_C 	C 	0.0604	0.8817	0.3203	-0.097
Mof_H 	H 	0.0252	0.8186	0.3236	0.068
Mof_C 	C 	0.1035	0.8647	0.28	-0.001
Mof_H 	H 	0.0964	0.7911	0.2567	0.03
Mof_C 	C 	0.1571	0.955	0.2737	-0.045
Mof_C 	C 	0.166	0.0633	0.3106	-0.007
Mof_H 	H 	0.2019	0.125	0.3078	0.032
Mof_C 	C 	0.1231	0.0797	0.3504	-0.095
Mof_H 	H 	0.1307	0.1518	0.3743	0.059
Mof_C 	C 	0.1997	0.9466	0.2286	0.117
Mof_C 	C 	0.1733	0.8986	0.1815	-0.183
Mof_H 	H 	0.1291	0.8679	0.1788	0.096
Mof_C 	C 	0.2129	0.8966	0.1386	0.113
Mof_H 	H 	0.1938	0.8685	0.1069	-0.022
Mof_C 	C 	0.2796	0.9346	0.1409	-0.197
Mof_C 	C 	0.3053	0.9824	0.1875	0.116
Mof_H 	H 	0.3499	0.0112	0.1902	0.005
Mof_C 	C 	0.2662	0.9885	0.2305	-0.178
Mof_H 	H 	0.285	0.0218	0.2616	0.092
Mof_C 	C 	0.8945	0.8218	0.47917	0.436
Mof_C 	C 	0.949	0.334	0.46505	0.377
Mof_C 	C 	0.3197	0.9327	0.0939	0.397
Mof_Zn	Zn	0.58473	0.95196	0.47275	1.232
Mof_O 	O 	0.48763	0.9274	0.44848	-0.47
Mof_O 	O 	0.8816	0.456	0.09849	-0.462
Mof_O 	O 	0.42117	0.2024	0.47769	-0.507
Mof_O 	O 	0.40482	0.8574	0.49685	-0.456
Mof_O 	O 	0.34362	0.3531	0.49971	-0.504
Mof_O 	O 	0.7927	0.4117	0.04968	-0.53
Mof_C 	C 	0.4209	0.5776	0.46773	0.069
Mof_H 	H 	0.3874	0.5976	0.4908	0.036
Mof_C 	C 	0.4338	0.4397	0.45401	-0.131
Mof_C 	C 	0.4813	0.4095	0.41852	0.017
Mof_H 	H 	0.4895	0.3162	0.4097	0.038
Mof_C 	C 	0.5181	0.5182	0.39525	-0.037
Mof_C 	C 	0.5041	0.6573	0.41155	0.011
Mof_H 	H 	0.5275	0.7318	0.3973	0.028
Mof_C 	C 	0.4578	0.685	0.44719	-0.126
Mof_C 	C 	0.5683	0.4904	0.356	0.059
Mof_C 	C 	0.5604	0.3817	0.3203	-0.096
Mof_H 	H 	0.5252	0.3186	0.3236	0.066
Mof_C 	C 	0.6035	0.3647	0.28	-0.001
Mof_H 	H 	0.5964	0.2911	0.2567	0.03
Mof_C 	C 	0.6571	0.455	0.2737	-0.047
Mof_C 	C 	0.666	0.5633	0.3106	-0.006
Mof_H 	H 	0.7019	0.625	0.3078	0.032
Mof_C 	C 	0.6231	0.5797	0.3504	-0.092
Mof_H 	H 	0.6307	0.6518	0.3743	0.058
Mof_C 	C 	0.6997	0.4466	0.2286	0.118
Mof_C 	C 	0.6733	0.3986	0.1815	-0.184
Mof_H 	H 	0.6291	0.3679	0.1788	0.095
Mof_C 	C 	0.7129	0.3966	0.1386	0.113
Mof_H 	H 	0.6938	0.3685	0.1069	-0.022
Mof_C 	C 	0.7796	0.4346	0.1409	-0.197
Mof_C 	C 	0.8053	0.4824	0.1875	0.115
Mof_H 	H 	0.8499	0.5112	0.1902	0.006
Mof_C 	C 	0.7662	0.4885	0.2305	-0.181
Mof_H 	H 	0.785	0.5218	0.2616	0.094
Mof_C 	C 	0.3945	0.3218	0.47917	0.436
Mof_C 	C 	0.449	0.834	0.46505	0.376
Mof_C 	C 	0.8197	0.4327	0.0939	0.397
Mof_Zn	Zn	0.91527	0.45196	0.02725	1.217
Mof_O 	O 	0.01237	0.4274	0.05152	-0.481
Mof_O 	O 	0.6184	0.956	0.40151	-0.453
Mof_O 	O 	0.07883	0.7024	0.02231	-0.526
Mof_O 	O 	0.09518	0.3574	0.00315	-0.479
Mof_O 	O 	0.15638	0.8531	0.00029	-0.522
Mof_O 	O 	0.7073	0.9117	0.45032	-0.514
Mof_C 	C 	0.0791	0.0776	0.03227	0.07
Mof_H 	H 	0.1126	0.0976	0.0092	0.026
Mof_C 	C 	0.0662	0.9397	0.04599	-0.144
Mof_C 	C 	0.0187	0.9095	0.08148	0.027
Mof_H 	H 	0.0105	0.8162	0.0903	0.032
Mof_C 	C 	0.9819	0.0182	0.10475	-0.053
Mof_C 	C 	0.9959	0.1573	0.08845	0.008
Mof_H 	H 	0.9725	0.2318	0.1027	0.025
Mof_C 	C 	0.0422	0.185	0.05281	-0.134
Mof_C 	C 	0.9317	0.9904	0.144	0.062
Mof_C 	C 	0.9396	0.8817	0.1797	-0.099
Mof_H 	H 	0.9748	0.8186	0.1764	0.065
Mof_C 	C 	0.8965	0.8647	0.22	-0.002
Mof_H 	H 	0.9036	0.7911	0.2433	0.029
Mof_C 	C 	0.8429	0.955	0.2263	-0.045
Mof_C 	C 	0.834	0.0633	0.1894	-0.009
Mof_H 	H 	0.7981	0.125	0.1922	0.032
Mof_C 	C 	0.8769	0.0797	0.1496	-0.097
Mof_H 	H 	0.8693	0.1518	0.1257	0.055
Mof_C 	C 	0.8003	0.9466	0.2714	0.115
Mof_C 	C 	0.8267	0.8986	0.3185	-0.181
Mof_H 	H 	0.8709	0.8679	0.3212	0.094
Mof_C 	C 	0.7871	0.8966	0.3614	0.111
Mof_H 	H 	0.8062	0.8685	0.3931	-0.02
Mof_C 	C 	0.7204	0.9346	0.3591	-0.193
Mof_C 	C 	0.6947	0.9824	0.3125	0.114
Mof_H 	H 	0.6501	0.0112	0.3098	0.007
Mof_C 	C 	0.7338	0.9885	0.2695	-0.175
Mof_H 	H 	0.715	0.0218	0.2384	0.091
Mof_C 	C 	0.1055	0.8218	0.02083	0.439
Mof_C 	C 	0.051	0.334	0.03495	0.376
Mof_C 	C 	0.6803	0.9327	0.4061	0.396
Mof_Zn	Zn	0.41527	0.95196	0.02725	1.219
Mof_O 	O 	0.51237	0.9274	0.05152	-0.483
Mof_O 	O 	0.1184	0.456	0.40151	-0.453
Mof_O 	O 	0.57883	0.2024	0.02231	-0.528
Mof_O 	O 	0.59518	0.8574	0.00315	-0.481
Mof_O 	O 	0.65638	0.3531	0.00029	-0.523
Mof_O 	O 	0.2073	0.4117	0.45032	-0.514
Mof_C 	C 	0.5791	0.5776	0.03227	0.073
Mof_H 	H 	0.6126	0.5976	0.0092	0.024
Mof_C 	C 	0.5662	0.4397	0.04599	-0.145
Mof_C 	C 	0.5187	0.4095	0.08148	0.019
Mof_H 	H 	0.5105	0.3162	0.0903	0.033
Mof_C 	C 	0.4819	0.5182	0.10475	-0.045
Mof_C 	C 	0.4959	0.6573	0.08845	0.013
Mof_H 	H 	0.4725	0.7318	0.1027	0.025
Mof_C 	C 	0.5422	0.685	0.05281	-0.139
Mof_C 	C 	0.4317	0.4904	0.144	0.057
Mof_C 	C 	0.4396	0.3817	0.1797	-0.096
Mof_H 	H 	0.4748	0.3186	0.1764	0.065
Mof_C 	C 	0.3965	0.3647	0.22	-0.003
Mof_H 	H 	0.4036	0.2911	0.2433	0.03
Mof_C 	C 	0.3429	0.455	0.2263	-0.046
Mof_C 	C 	0.334	0.5633	0.1894	-0.008
Mof_H 	H 	0.2981	0.625	0.1922	0.032
Mof_C 	C 	0.3769	0.5797	0.1496	-0.093
Mof_H 	H 	0.3693	0.6518	0.1257	0.054
Mof_C 	C 	0.3003	0.4466	0.2714	0.116
Mof_C 	C 	0.3267	0.3986	0.3185	-0.182
Mof_H 	H 	0.3709	0.3679	0.3212	0.095
Mof_C 	C 	0.2871	0.3966	0.3614	0.111
Mof_H 	H 	0.3062	0.3685	0.3931	-0.02
Mof_C 	C 	0.2204	0.4346	0.3591	-0.193
Mof_C 	C 	0.1947	0.4824	0.3125	0.112
Mof_H 	H 	0.1501	0.5112	0.3098	0.009
Mof_C 	C 	0.2338	0.4885	0.2695	-0.178
Mof_H 	H 	0.215	0.5218	0.2384	0.093
Mof_C 	C 	0.6055	0.3218	0.02083	0.439
Mof_C 	C 	0.551	0.834	0.03495	0.378
Mof_C 	C 	0.1803	0.4327	0.4061	0.395
Mof_Zn	Zn	0.91527	0.54804	0.52725	1.232
Mof_O 	O 	0.01237	0.5726	0.55152	-0.47
Mof_O 	O 	0.6184	0.044	0.90151	-0.446
Mof_O 	O 	0.07883	0.2976	0.52231	-0.506
Mof_O 	O 	0.09518	0.6426	0.50315	-0.456
Mof_O 	O 	0.15638	0.1469	0.50029	-0.504
Mof_O 	O 	0.7073	0.0883	0.95032	-0.494
Mof_C 	C 	0.0791	0.9224	0.53227	0.069
Mof_H 	H 	0.1126	0.9024	0.5092	0.037
Mof_C 	C 	0.0662	0.0603	0.54599	-0.131
Mof_C 	C 	0.0187	0.0905	0.58148	0.018
Mof_H 	H 	0.0105	0.1838	0.5903	0.038
Mof_C 	C 	0.9819	0.9818	0.60475	-0.036
Mof_C 	C 	0.9959	0.8427	0.58845	0.007
Mof_H 	H 	0.9725	0.7682	0.6027	0.029
Mof_C 	C 	0.0422	0.815	0.55281	-0.123
Mof_C 	C 	0.9317	0.0096	0.644	0.056
Mof_C 	C 	0.9396	0.1183	0.6797	-0.094
Mof_H 	H 	0.9748	0.1814	0.6764	0.065
Mof_C 	C 	0.8965	0.1353	0.72	-0.004
Mof_H 	H 	0.9036	0.2089	0.7433	0.031
Mof_C 	C 	0.8429	0.045	0.7263	-0.045
Mof_C 	C 	0.834	0.9367	0.6894	-0.009
Mof_H 	H 	0.7981	0.875	0.6922	0.033
Mof_C 	C 	0.8769	0.9203	0.6496	-0.09
Mof_H 	H 	0.8693	0.8482	0.6257	0.057
Mof_C 	C 	0.8003	0.0534	0.7714	0.114
Mof_C 	C 	0.8267	0.1014	0.8185	-0.179
Mof_H 	H 	0.8709	0.1321	0.8212	0.094
Mof_C 	C 	0.7871	0.1034	0.8614	0.109
Mof_H 	H 	0.8062	0.1315	0.8931	-0.017
Mof_C 	C 	0.7204	0.0654	0.8591	-0.187
Mof_C 	C 	0.6947	0.0176	0.8125	0.108
Mof_H 	H 	0.6501	0.9888	0.8098	0.011
Mof_C 	C 	0.7338	0.0115	0.7695	-0.176
Mof_H 	H 	0.715	0.9782	0.7384	0.093
Mof_C 	C 	0.1055	0.1782	0.52083	0.436
Mof_C 	C 	0.051	0.666	0.53495	0.376
Mof_C 	C 	0.6803	0.0673	0.9061	0.392
Mof_Zn	Zn	0.41527	0.04804	0.52725	1.232
Mof_O 	O 	0.51237	0.0726	0.55152	-0.471
Mof_O 	O 	0.1184	0.544	0.90151	-0.447
Mof_O 	O 	0.57883	0.7976	0.52231	-0.506
Mof_O 	O 	0.59518	0.1426	0.50315	-0.457
Mof_O 	O 	0.65638	0.6469	0.50029	-0.504
Mof_O 	O 	0.2073	0.5883	0.95032	-0.495
Mof_C 	C 	0.5791	0.4224	0.53227	0.069
Mof_H 	H 	0.6126	0.4024	0.5092	0.036
Mof_C 	C 	0.5662	0.5603	0.54599	-0.131
Mof_C 	C 	0.5187	0.5905	0.58148	0.017
Mof_H 	H 	0.5105	0.6838	0.5903	0.038
Mof_C 	C 	0.4819	0.4818	0.60475	-0.037
Mof_C 	C 	0.4959	0.3427	0.58845	0.011
Mof_H 	H 	0.4725	0.2682	0.6027	0.028
Mof_C 	C 	0.5422	0.315	0.55281	-0.126
Mof_C 	C 	0.4317	0.5096	0.644	0.058
Mof_C 	C 	0.4396	0.6183	0.6797	-0.095
Mof_H 	H 	0.4748	0.6814	0.6764	0.066
Mof_C 	C 	0.3965	0.6353	0.72	-0.003
Mof_H 	H 	0.4036	0.7089	0.7433	0.031
Mof_C 	C 	0.3429	0.545	0.7263	-0.045
Mof_C 	C 	0.334	0.4367	0.6894	-0.008
Mof_H 	H 	0.2981	0.375	0.6922	0.033
Mof_C 	C 	0.3769	0.4203	0.6496	-0.091
Mof_H 	H 	0.3693	0.3482	0.6257	0.057
Mof_C 	C 	0.3003	0.5534	0.7714	0.115
Mof_C 	C 	0.3267	0.6014	0.8185	-0.179
Mof_H 	H 	0.3709	0.6321	0.8212	0.094
Mof_C 	C 	0.2871	0.6034	0.8614	0.109
Mof_H 	H 	0.3062	0.6315	0.8931	-0.017
Mof_C 	C 	0.2204	0.5654	0.8591	-0.188
Mof_C 	C 	0.1947	0.5176	0.8125	0.109
Mof_H 	H 	0.1501	0.4888	0.8098	0.01
Mof_C 	C 	0.2338	0.5115	0.7695	-0.176
Mof_H 	H 	0.215	0.4782	0.7384	0.093
Mof_C 	C 	0.6055	0.6782	0.52083	0.436
Mof_C 	C 	0.551	0.166	0.53495	0.376
Mof_C 	C 	0.1803	0.5673	0.9061	0.393
Mof_Zn	Zn	0.08473	0.54804	0.97275	1.245
Mof_O 	O 	0.98763	0.5726	0.94848	-0.459
Mof_O 	O 	0.3816	0.044	0.59849	-0.454
Mof_O 	O 	0.92117	0.2976	0.97769	-0.484
Mof_O 	O 	0.90482	0.6426	0.99685	-0.431
Mof_O 	O 	0.84362	0.1469	0.99971	-0.478
Mof_O 	O 	0.2927	0.0883	0.54968	-0.515
Mof_C 	C 	0.9209	0.9224	0.96773	0.064
Mof_H 	H 	0.8874	0.9024	0.9908	0.049
Mof_C 	C 	0.9338	0.0603	0.95401	-0.117
Mof_C 	C 	0.9813	0.0905	0.91852	0.013
Mof_H 	H 	0.9895	0.1838	0.9097	0.043
Mof_C 	C 	0.0181	0.9818	0.89525	-0.027
Mof_C 	C 	0.0041	0.8427	0.91155	0.007
Mof_H 	H 	0.0275	0.7682	0.8973	0.032
Mof_C 	C 	0.9578	0.815	0.94719	-0.112
Mof_C 	C 	0.0683	0.0096	0.856	0.058
Mof_C 	C 	0.0604	0.1183	0.8203	-0.093
Mof_H 	H 	0.0252	0.1814	0.8236	0.066
Mof_C 	C 	0.1035	0.1353	0.78	-0.002
Mof_H 	H 	0.0964	0.2089	0.7567	0.03
Mof_C 	C 	0.1571	0.045	0.7737	-0.046
Mof_C 	C 	0.166	0.9367	0.8106	-0.006
Mof_H 	H 	0.2019	0.875	0.8078	0.033
Mof_C 	C 	0.1231	0.9203	0.8504	-0.089
Mof_H 	H 	0.1307	0.8482	0.8743	0.061
Mof_C 	C 	0.1997	0.0534	0.7286	0.117
Mof_C 	C 	0.1733	0.1014	0.6815	-0.182
Mof_H 	H 	0.1291	0.1321	0.6788	0.095
Mof_C 	C 	0.2129	0.1034	0.6386	0.112
Mof_H 	H 	0.1938	0.1315	0.6069	-0.02
Mof_C 	C 	0.2796	0.0654	0.6409	-0.193
Mof_C 	C 	0.3053	0.0176	0.6875	0.112
Mof_H 	H 	0.3499	0.9888	0.6902	0.009
Mof_C 	C 	0.2662	0.0115	0.7305	-0.179
Mof_H 	H 	0.285	0.9782	0.7616	0.094
Mof_C 	C 	0.8945	0.1782	0.97917	0.431
Mof_C 	C 	0.949	0.666	0.96505	0.374
Mof_C 	C 	0.3197	0.0673	0.5939	0.395
Mof_Zn	Zn	0.58473	0.04804	0.97275	1.246
Mof_O 	O 	0.48763	0.0726	0.94848	-0.459
Mof_O 	O 	0.8816	0.544	0.59849	-0.454
Mof_O 	O 	0.42117	0.7976	0.97769	-0.484
Mof_O 	O 	0.40482	0.1426	0.99685	-0.432
Mof_O 	O 	0.34362	0.6469	0.99971	-0.479
Mof_O 	O 	0.7927	0.5883	0.54968	-0.515
Mof_C 	C 	0.4209	0.4224	0.96773	0.064
Mof_H 	H 	0.3874	0.4024	0.9908	0.048
Mof_C 	C 	0.4338	0.5603	0.95401	-0.116
Mof_C 	C 	0.4813	0.5905	0.91852	0.015
Mof_H 	H 	0.4895	0.6838	0.9097	0.043
Mof_C 	C 	0.5181	0.4818	0.89525	-0.029
Mof_C 	C 	0.5041	0.3427	0.91155	0.009
Mof_H 	H 	0.5275	0.2682	0.8973	0.031
Mof_C 	C 	0.4578	0.315	0.94719	-0.112
Mof_C 	C 	0.5683	0.5096	0.856	0.061
Mof_C 	C 	0.5604	0.6183	0.8203	-0.095
Mof_H 	H 	0.5252	0.6814	0.8236	0.066
Mof_C 	C 	0.6035	0.6353	0.78	-0.001
Mof_H 	H 	0.5964	0.7089	0.7567	0.03
Mof_C 	C 	0.6571	0.545	0.7737	-0.046
Mof_C 	C 	0.666	0.4367	0.8106	-0.006
Mof_H 	H 	0.7019	0.375	0.8078	0.033
Mof_C 	C 	0.6231	0.4203	0.8504	-0.091
Mof_H 	H 	0.6307	0.3482	0.8743	0.062
Mof_C 	C 	0.6997	0.5534	0.7286	0.117
Mof_C 	C 	0.6733	0.6014	0.6815	-0.183
Mof_H 	H 	0.6291	0.6321	0.6788	0.095
Mof_C 	C 	0.7129	0.6034	0.6386	0.112
Mof_H 	H 	0.6938	0.6315	0.6069	-0.02
Mof_C 	C 	0.7796	0.5654	0.6409	-0.194
Mof_C 	C 	0.8053	0.5176	0.6875	0.113
Mof_H 	H 	0.8499	0.4888	0.6902	0.008
Mof_C 	C 	0.7662	0.5115	0.7305	-0.179
Mof_H 	H 	0.785	0.4782	0.7616	0.094
Mof_C 	C 	0.3945	0.6782	0.97917	0.432
Mof_C 	C 	0.449	0.166	0.96505	0.375
Mof_C 	C 	0.8197	0.5673	0.5939	0.396
Mof_Zn	Zn	0.75	0.75	0.5	1.191
Mof_Zn	Zn	0.25	0.75	-0	1.178
Mof_Zn	Zn	0.25	0.25	0.5	1.191
Mof_Zn	Zn	0.75	0.25	-0	1.177
_end
