data_functionalizedCrystal
_audit_creation_method	'EQeq! by Chris Wilmer'
_symmetry_space_group_name_H-M	'P1'
_symmetry_Int_Tables_number	1
_symmetry_cell_setting	triclinic
loop_
_symmetry_equiv_pos_as_xyz
  x,y,z
_cell_length_a	41.557
_cell_length_b	41.557
_cell_length_c	41.6393
_cell_angle_alpha	119.935
_cell_angle_beta	119.935
_cell_angle_gamma	90
loop_
_atom_site_label
_atom_site_type_symbol
_atom_site_fract_x
_atom_site_fract_y
_atom_site_fract_z
_atom_site_charge
Mof_Cu	Cu	0.17397	0.20526	0.18904	0.901
Mof_Cu	Cu	0.23179	0.27287	0.25218	0.903
Mof_Cu	Cu	0.89829	0.61974	0.30248	0.82
Mof_Cu	Cu	0.31387	0.61534	0.2156	0.816
Mof_Cu	Cu	0.37499	0.60356	0.29766	0.821
Mof_Cu	Cu	0.01507	0.98378	0.18904	0.901
Mof_Cu	Cu	0.02039	0.97931	0.25218	0.903
Mof_Cu	Cu	0.40419	0.68274	0.30248	0.82
Mof_Cu	Cu	0.90173	0.60026	0.2156	0.815
Mof_Cu	Cu	0.92267	0.6941	0.29766	0.821
Mof_Cu	Cu	0.20526	0.01507	0.18904	0.902
Mof_Cu	Cu	0.27287	0.02039	0.25218	0.903
Mof_Cu	Cu	0.61974	0.40419	0.30248	0.82
Mof_Cu	Cu	0.61534	0.90173	0.2156	0.815
Mof_Cu	Cu	0.60356	0.92267	0.29766	0.821
Mof_Cu	Cu	0.98378	0.17397	0.18904	0.901
Mof_Cu	Cu	0.97931	0.23179	0.25218	0.902
Mof_Cu	Cu	0.68274	0.89829	0.30248	0.82
Mof_Cu	Cu	0.60026	0.31387	0.2156	0.816
Mof_Cu	Cu	0.6941	0.37499	0.29766	0.821
Mof_Cu	Cu	0.82603	0.79474	0.81096	0.902
Mof_Cu	Cu	0.76821	0.72713	0.74782	0.903
Mof_Cu	Cu	0.10171	0.38026	0.69752	0.82
Mof_Cu	Cu	0.68613	0.38466	0.7844	0.817
Mof_Cu	Cu	0.62501	0.39644	0.70234	0.821
Mof_Cu	Cu	0.98493	0.01622	0.81096	0.901
Mof_Cu	Cu	0.97961	0.02069	0.74782	0.902
Mof_Cu	Cu	0.59581	0.31726	0.69752	0.82
Mof_Cu	Cu	0.09827	0.39974	0.7844	0.817
Mof_Cu	Cu	0.07733	0.3059	0.70234	0.821
Mof_Cu	Cu	0.79474	0.98493	0.81096	0.901
Mof_Cu	Cu	0.72713	0.97961	0.74782	0.901
Mof_Cu	Cu	0.38026	0.59581	0.69752	0.82
Mof_Cu	Cu	0.38466	0.09827	0.7844	0.817
Mof_Cu	Cu	0.39644	0.07733	0.70234	0.821
Mof_Cu	Cu	0.01622	0.82603	0.81096	0.901
Mof_Cu	Cu	0.02069	0.76821	0.74782	0.902
Mof_Cu	Cu	0.31726	0.10171	0.69752	0.82
Mof_Cu	Cu	0.39974	0.68613	0.7844	0.817
Mof_Cu	Cu	0.3059	0.62501	0.70234	0.821
Mof_Cu	Cu	0.97006	0.19065	-0	0.907
Mof_Cu	Cu	0.95997	0.25326	-0	0.893
Mof_Cu	Cu	0.02994	0.80935	-0	0.908
Mof_Cu	Cu	0.04003	0.74674	-0	0.893
Mof_Cu	Cu	0.19065	0.02994	-0	0.908
Mof_Cu	Cu	0.25326	0.04003	-0	0.893
Mof_Cu	Cu	0.80935	0.97006	-0	0.907
Mof_Cu	Cu	0.74674	0.95997	-0	0.892
Mof_H 	H 	0.3095	0.2417	0.341	0.111
Mof_H 	H 	0.226	0.1349	0.2342	0.073
Mof_H 	H 	0.3239	0.1448	0.34	0.083
Mof_H 	H 	0.4349	0.321	0.4692	0.046
Mof_H 	H 	0.4933	0.3494	0.5412	0.045
Mof_H 	H 	0.4575	0.262	0.5458	0.048
Mof_H 	H 	0.3991	0.2336	0.4738	0.029
Mof_H 	H 	0.0894	0.2384	0.1096	0.069
Mof_H 	H 	0.1869	0.3331	0.19	0.081
Mof_H 	H 	0.083	0.3283	0.0954	0.105
Mof_H 	H 	0.2257	0.4309	0.2122	0.026
Mof_H 	H 	0.2702	0.4854	0.2358	0.048
Mof_H 	H 	0.1822	0.4943	0.1394	0.045
Mof_H 	H 	0.1379	0.4399	0.116	0.047
Mof_H 	H 	0.9646	0.2163	0.1094	0.069
Mof_H 	H 	0.9434	0.2998	0.1956	0.106
Mof_H 	H 	0.9332	0.3032	0.0954	0.077
Mof_H 	H 	0.9093	0.4131	0.2508	0.048
Mof_H 	H 	0.9027	0.4749	0.2704	0.042
Mof_H 	H 	0.9233	0.4679	0.182	0.044
Mof_H 	H 	0.93	0.4061	0.1626	0.027
Mof_H 	H 	0.3666	0.2063	0.403	0.124
Mof_H 	H 	0.1792	0.3865	0.187	0.123
Mof_H 	H 	0.9199	0.3478	0.1422	0.119
Mof_H 	H 	0.0315	0.0993	0.341	0.111
Mof_H 	H 	0.0082	0.0993	0.2342	0.073
Mof_H 	H 	0.0161	0.1952	0.34	0.084
Mof_H 	H 	0.0343	0.1482	0.4692	0.047
Mof_H 	H 	0.0479	0.1918	0.5412	0.045
Mof_H 	H 	0.0883	0.2838	0.5458	0.048
Mof_H 	H 	0.0747	0.2402	0.4738	0.029
Mof_H 	H 	0.0202	0.8712	0.1096	0.069
Mof_H 	H 	0.0031	0.8569	0.19	0.081
Mof_H 	H 	0.0124	0.7671	0.0954	0.105
Mof_H 	H 	0.9865	0.7813	0.2122	0.026
Mof_H 	H 	0.9656	0.7504	0.2358	0.048
Mof_H 	H 	0.9572	0.6451	0.1394	0.044
Mof_H 	H 	0.9781	0.6761	0.116	0.047
Mof_H 	H 	0.1448	0.8931	0.1094	0.069
Mof_H 	H 	0.2522	0.8958	0.1956	0.105
Mof_H 	H 	0.1622	0.7922	0.0954	0.077
Mof_H 	H 	0.3415	0.8377	0.2508	0.048
Mof_H 	H 	0.3677	0.7955	0.2704	0.042
Mof_H 	H 	0.2587	0.7141	0.182	0.044
Mof_H 	H 	0.2326	0.7565	0.1626	0.028
Mof_H 	H 	0.0364	0.1967	0.403	0.124
Mof_H 	H 	0.0078	0.8005	0.187	0.123
Mof_H 	H 	0.2223	0.7944	0.1422	0.119
Mof_H 	H 	0.2417	0.0315	0.341	0.111
Mof_H 	H 	0.1349	0.0082	0.2342	0.073
Mof_H 	H 	0.1448	0.0161	0.34	0.084
Mof_H 	H 	0.321	0.0343	0.4692	0.047
Mof_H 	H 	0.3494	0.0479	0.5412	0.045
Mof_H 	H 	0.262	0.0883	0.5458	0.048
Mof_H 	H 	0.2336	0.0747	0.4738	0.029
Mof_H 	H 	0.2384	0.0202	0.1096	0.069
Mof_H 	H 	0.3331	0.0031	0.19	0.081
Mof_H 	H 	0.3283	0.0124	0.0954	0.105
Mof_H 	H 	0.4309	0.9865	0.2122	0.026
Mof_H 	H 	0.4854	0.9656	0.2358	0.048
Mof_H 	H 	0.4943	0.9572	0.1394	0.044
Mof_H 	H 	0.4399	0.9781	0.116	0.047
Mof_H 	H 	0.2163	0.1448	0.1094	0.069
Mof_H 	H 	0.2998	0.2522	0.1956	0.106
Mof_H 	H 	0.3032	0.1622	0.0954	0.077
Mof_H 	H 	0.4131	0.3415	0.2508	0.048
Mof_H 	H 	0.4749	0.3677	0.2704	0.042
Mof_H 	H 	0.4679	0.2587	0.182	0.044
Mof_H 	H 	0.4061	0.2326	0.1626	0.028
Mof_H 	H 	0.2063	0.0364	0.403	0.124
Mof_H 	H 	0.3865	0.0078	0.187	0.123
Mof_H 	H 	0.3478	0.2223	0.1422	0.119
Mof_H 	H 	0.0993	0.3095	0.341	0.111
Mof_H 	H 	0.0993	0.226	0.2342	0.073
Mof_H 	H 	0.1952	0.3239	0.34	0.083
Mof_H 	H 	0.1482	0.4349	0.4692	0.047
Mof_H 	H 	0.1918	0.4933	0.5412	0.045
Mof_H 	H 	0.2838	0.4575	0.5458	0.048
Mof_H 	H 	0.2402	0.3991	0.4738	0.029
Mof_H 	H 	0.8712	0.0894	0.1096	0.069
Mof_H 	H 	0.8569	0.1869	0.19	0.081
Mof_H 	H 	0.7671	0.083	0.0954	0.105
Mof_H 	H 	0.7813	0.2257	0.2122	0.026
Mof_H 	H 	0.7504	0.2702	0.2358	0.048
Mof_H 	H 	0.6451	0.1822	0.1394	0.045
Mof_H 	H 	0.6761	0.1379	0.116	0.047
Mof_H 	H 	0.8931	0.9646	0.1094	0.069
Mof_H 	H 	0.8958	0.9434	0.1956	0.105
Mof_H 	H 	0.7922	0.9332	0.0954	0.077
Mof_H 	H 	0.8377	0.9093	0.2508	0.048
Mof_H 	H 	0.7955	0.9027	0.2704	0.042
Mof_H 	H 	0.7141	0.9233	0.182	0.044
Mof_H 	H 	0.7565	0.93	0.1626	0.027
Mof_H 	H 	0.1967	0.3666	0.403	0.124
Mof_H 	H 	0.8005	0.1792	0.187	0.123
Mof_H 	H 	0.7944	0.9199	0.1422	0.119
Mof_H 	H 	0.6905	0.7583	0.659	0.111
Mof_H 	H 	0.774	0.8651	0.7658	0.074
Mof_H 	H 	0.6761	0.8552	0.66	0.083
Mof_H 	H 	0.5651	0.679	0.5308	0.046
Mof_H 	H 	0.5067	0.6506	0.4588	0.045
Mof_H 	H 	0.5425	0.738	0.4542	0.047
Mof_H 	H 	0.6009	0.7664	0.5262	0.028
Mof_H 	H 	0.9106	0.7616	0.8904	0.073
Mof_H 	H 	0.8131	0.6669	0.81	0.083
Mof_H 	H 	0.917	0.6717	0.9046	0.11
Mof_H 	H 	0.7743	0.5691	0.7878	0.027
Mof_H 	H 	0.7298	0.5146	0.7642	0.049
Mof_H 	H 	0.8178	0.5057	0.8606	0.049
Mof_H 	H 	0.8621	0.5601	0.884	0.052
Mof_H 	H 	0.0354	0.7837	0.8906	0.074
Mof_H 	H 	0.0566	0.7002	0.8044	0.107
Mof_H 	H 	0.0668	0.6968	0.9046	0.083
Mof_H 	H 	0.0907	0.5869	0.7492	0.049
Mof_H 	H 	0.0973	0.5251	0.7296	0.043
Mof_H 	H 	0.0767	0.5321	0.818	0.047
Mof_H 	H 	0.07	0.5939	0.8374	0.03
Mof_H 	H 	0.6334	0.7937	0.597	0.124
Mof_H 	H 	0.8208	0.6135	0.813	0.124
Mof_H 	H 	0.0801	0.6522	0.8578	0.122
Mof_H 	H 	0.9685	0.9007	0.659	0.11
Mof_H 	H 	0.9918	0.9007	0.7658	0.073
Mof_H 	H 	0.9839	0.8048	0.66	0.083
Mof_H 	H 	0.9657	0.8518	0.5308	0.046
Mof_H 	H 	0.9521	0.8082	0.4588	0.044
Mof_H 	H 	0.9117	0.7162	0.4542	0.047
Mof_H 	H 	0.9253	0.7598	0.5262	0.028
Mof_H 	H 	0.9798	0.1288	0.8904	0.073
Mof_H 	H 	0.9969	0.1431	0.81	0.083
Mof_H 	H 	0.9876	0.2329	0.9046	0.11
Mof_H 	H 	0.0135	0.2187	0.7878	0.027
Mof_H 	H 	0.0344	0.2496	0.7642	0.049
Mof_H 	H 	0.0428	0.3549	0.8606	0.049
Mof_H 	H 	0.0219	0.3239	0.884	0.052
Mof_H 	H 	0.8552	0.1069	0.8906	0.074
Mof_H 	H 	0.7478	0.1042	0.8044	0.107
Mof_H 	H 	0.8378	0.2078	0.9046	0.083
Mof_H 	H 	0.6585	0.1623	0.7492	0.049
Mof_H 	H 	0.6323	0.2045	0.7296	0.043
Mof_H 	H 	0.7413	0.2859	0.818	0.047
Mof_H 	H 	0.7674	0.2435	0.8374	0.03
Mof_H 	H 	0.9636	0.8033	0.597	0.123
Mof_H 	H 	0.9922	0.1995	0.813	0.123
Mof_H 	H 	0.7777	0.2056	0.8578	0.122
Mof_H 	H 	0.7583	0.9685	0.659	0.11
Mof_H 	H 	0.8651	0.9918	0.7658	0.073
Mof_H 	H 	0.8552	0.9839	0.66	0.083
Mof_H 	H 	0.679	0.9657	0.5308	0.046
Mof_H 	H 	0.6506	0.9521	0.4588	0.044
Mof_H 	H 	0.738	0.9117	0.4542	0.047
Mof_H 	H 	0.7664	0.9253	0.5262	0.028
Mof_H 	H 	0.7616	0.9798	0.8904	0.073
Mof_H 	H 	0.6669	0.9969	0.81	0.083
Mof_H 	H 	0.6717	0.9876	0.9046	0.11
Mof_H 	H 	0.5691	0.0135	0.7878	0.027
Mof_H 	H 	0.5146	0.0344	0.7642	0.049
Mof_H 	H 	0.5057	0.0428	0.8606	0.049
Mof_H 	H 	0.5601	0.0219	0.884	0.052
Mof_H 	H 	0.7837	0.8552	0.8906	0.073
Mof_H 	H 	0.7002	0.7478	0.8044	0.107
Mof_H 	H 	0.6968	0.8378	0.9046	0.083
Mof_H 	H 	0.5869	0.6585	0.7492	0.049
Mof_H 	H 	0.5251	0.6323	0.7296	0.043
Mof_H 	H 	0.5321	0.7413	0.818	0.047
Mof_H 	H 	0.5939	0.7674	0.8374	0.03
Mof_H 	H 	0.7937	0.9636	0.597	0.123
Mof_H 	H 	0.6135	0.9922	0.813	0.123
Mof_H 	H 	0.6522	0.7777	0.8578	0.122
Mof_H 	H 	0.9007	0.6905	0.659	0.111
Mof_H 	H 	0.9007	0.774	0.7658	0.074
Mof_H 	H 	0.8048	0.6761	0.66	0.083
Mof_H 	H 	0.8518	0.5651	0.5308	0.046
Mof_H 	H 	0.8082	0.5067	0.4588	0.045
Mof_H 	H 	0.7162	0.5425	0.4542	0.047
Mof_H 	H 	0.7598	0.6009	0.5262	0.028
Mof_H 	H 	0.1288	0.9106	0.8904	0.073
Mof_H 	H 	0.1431	0.8131	0.81	0.083
Mof_H 	H 	0.2329	0.917	0.9046	0.11
Mof_H 	H 	0.2187	0.7743	0.7878	0.027
Mof_H 	H 	0.2496	0.7298	0.7642	0.049
Mof_H 	H 	0.3549	0.8178	0.8606	0.049
Mof_H 	H 	0.3239	0.8621	0.884	0.052
Mof_H 	H 	0.1069	0.0354	0.8906	0.074
Mof_H 	H 	0.1042	0.0566	0.8044	0.107
Mof_H 	H 	0.2078	0.0668	0.9046	0.083
Mof_H 	H 	0.1623	0.0907	0.7492	0.049
Mof_H 	H 	0.2045	0.0973	0.7296	0.043
Mof_H 	H 	0.2859	0.0767	0.818	0.047
Mof_H 	H 	0.2435	0.07	0.8374	0.03
Mof_H 	H 	0.8033	0.6334	0.597	0.124
Mof_H 	H 	0.1995	0.8208	0.813	0.124
Mof_H 	H 	0.2056	0.0801	0.8578	0.122
Mof_C 	C 	0.26049	0.08926	0.25978	0.335
Mof_C 	C 	0.24028	0.2099	0.26184	0.317
Mof_C 	C 	0.30011	0.21411	0.32636	-0.111
Mof_C 	C 	0.26418	0.19099	0.28426	-0.018
Mof_C 	C 	0.25048	0.15065	0.2629	-0.03
Mof_C 	C 	0.27271	0.13343	0.28364	-0.02
Mof_C 	C 	0.30864	0.15655	0.32574	-0.111
Mof_C 	C 	0.32233	0.19689	0.3471	0.146
Mof_C 	C 	0.37552	0.25859	0.41838	0.216
Mof_C 	C 	0.41157	0.27468	0.46476	-0.056
Mof_C 	C 	0.43953	0.30907	0.48478	-0.016
Mof_C 	C 	0.47419	0.32592	0.52754	-0.061
Mof_C 	C 	0.48089	0.30839	0.5503	-0.003
Mof_C 	C 	0.45294	0.274	0.53028	-0.063
Mof_C 	C 	0.41827	0.25714	0.48752	-0.016
Mof_C 	C 	0.5166	0.32391	0.59502	0.095
Mof_C 	C 	0.16584	0.26693	0.17914	0.33
Mof_C 	C 	0.03671	0.25877	0.05966	0.325
Mof_C 	C 	0.10168	0.26334	0.11852	-0.025
Mof_C 	C 	0.14156	0.28305	0.15316	-0.024
Mof_C 	C 	0.15959	0.3196	0.16626	-0.109
Mof_C 	C 	0.13775	0.33646	0.14474	0.141
Mof_C 	C 	0.09789	0.31676	0.11012	-0.105
Mof_C 	C 	0.07985	0.2802	0.097	-0.026
Mof_C 	C 	0.14647	0.39522	0.14372	0.219
Mof_C 	C 	0.1776	0.43027	0.16184	-0.057
Mof_C 	C 	0.2169	0.44378	0.19742	-0.014
Mof_C 	C 	0.24329	0.47615	0.2114	-0.066
Mof_C 	C 	0.23038	0.495	0.1898	0
Mof_C 	C 	0.19111	0.48149	0.15422	-0.064
Mof_C 	C 	0.1647	0.44912	0.14024	-0.016
Mof_C 	C 	0.2618	0.52822	0.20764	0.087
Mof_C 	C 	0.96534	0.23669	0.1818	0.319
Mof_C 	C 	0.95652	0.24462	0.06104	0.344
Mof_C 	C 	0.95743	0.23931	0.1191	-0.022
Mof_C 	C 	0.95527	0.25519	0.15602	-0.022
Mof_C 	C 	0.94487	0.28894	0.17032	-0.107
Mof_C 	C 	0.93663	0.30681	0.1477	0.14
Mof_C 	C 	0.93878	0.29093	0.11078	-0.105
Mof_C 	C 	0.94918	0.25718	0.09648	-0.034
Mof_C 	C 	0.92357	0.36399	0.19448	0.206
Mof_C 	C 	0.92029	0.40378	0.20486	-0.051
Mof_C 	C 	0.91219	0.42422	0.2369	-0.023
Mof_C 	C 	0.90824	0.46094	0.24848	-0.056
Mof_C 	C 	0.91231	0.47721	0.22802	-0.01
Mof_C 	C 	0.92039	0.45669	0.19598	-0.058
Mof_C 	C 	0.92442	0.42004	0.1844	-0.023
Mof_C 	C 	0.90816	0.51426	0.23732	0.096
Mof_C 	C 	0.99929	0.17052	0.25978	0.333
Mof_C 	C 	0.02156	0.05194	0.26184	0.317
Mof_C 	C 	0.02625	0.11225	0.32636	-0.112
Mof_C 	C 	0.02008	0.09327	0.28426	-0.017
Mof_C 	C 	0.01242	0.11225	0.2629	-0.031
Mof_C 	C 	0.01093	0.15021	0.28364	-0.018
Mof_C 	C 	0.0171	0.16919	0.32574	-0.112
Mof_C 	C 	0.02477	0.15021	0.3471	0.146
Mof_C 	C 	0.04286	0.15979	0.41838	0.216
Mof_C 	C 	0.05319	0.19008	0.46476	-0.056
Mof_C 	C 	0.04525	0.17571	0.48478	-0.016
Mof_C 	C 	0.05335	0.20162	0.52754	-0.061
Mof_C 	C 	0.06941	0.24191	0.5503	-0.003
Mof_C 	C 	0.07734	0.25628	0.53028	-0.063
Mof_C 	C 	0.06925	0.23038	0.48752	-0.016
Mof_C 	C 	0.07842	0.27111	0.59502	0.095
Mof_C 	C 	0.0133	0.91221	0.17914	0.33
Mof_C 	C 	0.02295	0.80089	0.05966	0.325
Mof_C 	C 	0.01684	0.85518	0.11852	-0.025
Mof_C 	C 	0.0116	0.87011	0.15316	-0.024
Mof_C 	C 	0.00667	0.84666	0.16626	-0.108
Mof_C 	C 	0.00699	0.80828	0.14474	0.141
Mof_C 	C 	0.01223	0.79336	0.11012	-0.104
Mof_C 	C 	0.01715	0.8168	0.097	-0.027
Mof_C 	C 	0.99725	0.7485	0.14372	0.216
Mof_C 	C 	0.98424	0.73157	0.16184	-0.057
Mof_C 	C 	0.98052	0.75364	0.19742	-0.015
Mof_C 	C 	0.96811	0.73525	0.2114	-0.065
Mof_C 	C 	0.95942	0.6948	0.1898	-0
Mof_C 	C 	0.96311	0.67273	0.15422	-0.064
Mof_C 	C 	0.97554	0.69112	0.14024	-0.016
Mof_C 	C 	0.94584	0.67942	0.20764	0.087
Mof_C 	C 	0.21646	0.94511	0.1818	0.32
Mof_C 	C 	0.10452	0.81642	0.06104	0.344
Mof_C 	C 	0.16167	0.87979	0.1191	-0.022
Mof_C 	C 	0.20075	0.90083	0.15602	-0.022
Mof_C 	C 	0.22545	0.88138	0.17032	-0.107
Mof_C 	C 	0.21107	0.84089	0.1477	0.141
Mof_C 	C 	0.172	0.81985	0.11078	-0.105
Mof_C 	C 	0.1473	0.8393	0.09648	-0.034
Mof_C 	C 	0.27091	0.83049	0.19448	0.206
Mof_C 	C 	0.28457	0.80108	0.20486	-0.051
Mof_C 	C 	0.32471	0.81268	0.2369	-0.023
Mof_C 	C 	0.34024	0.78754	0.24848	-0.056
Mof_C 	C 	0.31571	0.75081	0.22802	-0.01
Mof_C 	C 	0.27559	0.73929	0.19598	-0.058
Mof_C 	C 	0.25998	0.76436	0.1844	-0.023
Mof_C 	C 	0.32916	0.72306	0.23732	0.096
Mof_C 	C 	0.08926	0.99929	0.25978	0.333
Mof_C 	C 	0.2099	0.02156	0.26184	0.317
Mof_C 	C 	0.21411	0.02625	0.32636	-0.112
Mof_C 	C 	0.19099	0.02008	0.28426	-0.017
Mof_C 	C 	0.15065	0.01242	0.2629	-0.031
Mof_C 	C 	0.13343	0.01093	0.28364	-0.018
Mof_C 	C 	0.15655	0.0171	0.32574	-0.112
Mof_C 	C 	0.19689	0.02477	0.3471	0.146
Mof_C 	C 	0.25859	0.04286	0.41838	0.216
Mof_C 	C 	0.27468	0.05319	0.46476	-0.056
Mof_C 	C 	0.30907	0.04525	0.48478	-0.016
Mof_C 	C 	0.32592	0.05335	0.52754	-0.061
Mof_C 	C 	0.30839	0.06941	0.5503	-0.003
Mof_C 	C 	0.274	0.07734	0.53028	-0.063
Mof_C 	C 	0.25714	0.06925	0.48752	-0.016
Mof_C 	C 	0.32391	0.07842	0.59502	0.095
Mof_C 	C 	0.26693	0.0133	0.17914	0.33
Mof_C 	C 	0.25877	0.02295	0.05966	0.325
Mof_C 	C 	0.26334	0.01684	0.11852	-0.025
Mof_C 	C 	0.28305	0.0116	0.15316	-0.024
Mof_C 	C 	0.3196	0.00667	0.16626	-0.108
Mof_C 	C 	0.33646	0.00699	0.14474	0.141
Mof_C 	C 	0.31676	0.01223	0.11012	-0.105
Mof_C 	C 	0.2802	0.01715	0.097	-0.027
Mof_C 	C 	0.39522	0.99725	0.14372	0.216
Mof_C 	C 	0.43027	0.98424	0.16184	-0.057
Mof_C 	C 	0.44378	0.98052	0.19742	-0.015
Mof_C 	C 	0.47615	0.96811	0.2114	-0.065
Mof_C 	C 	0.495	0.95942	0.1898	-0
Mof_C 	C 	0.48149	0.96311	0.15422	-0.064
Mof_C 	C 	0.44912	0.97554	0.14024	-0.017
Mof_C 	C 	0.52822	0.94584	0.20764	0.087
Mof_C 	C 	0.23669	0.21646	0.1818	0.319
Mof_C 	C 	0.24462	0.10452	0.06104	0.344
Mof_C 	C 	0.23931	0.16167	0.1191	-0.022
Mof_C 	C 	0.25519	0.20075	0.15602	-0.021
Mof_C 	C 	0.28894	0.22545	0.17032	-0.107
Mof_C 	C 	0.30681	0.21107	0.1477	0.141
Mof_C 	C 	0.29093	0.172	0.11078	-0.105
Mof_C 	C 	0.25718	0.1473	0.09648	-0.034
Mof_C 	C 	0.36399	0.27091	0.19448	0.206
Mof_C 	C 	0.40378	0.28457	0.20486	-0.051
Mof_C 	C 	0.42422	0.32471	0.2369	-0.023
Mof_C 	C 	0.46094	0.34024	0.24848	-0.056
Mof_C 	C 	0.47721	0.31571	0.22802	-0.01
Mof_C 	C 	0.45669	0.27559	0.19598	-0.058
Mof_C 	C 	0.42004	0.25998	0.1844	-0.023
Mof_C 	C 	0.51426	0.32916	0.23732	0.096
Mof_C 	C 	0.17052	0.26049	0.25978	0.335
Mof_C 	C 	0.05194	0.24028	0.26184	0.317
Mof_C 	C 	0.11225	0.30011	0.32636	-0.111
Mof_C 	C 	0.09327	0.26418	0.28426	-0.018
Mof_C 	C 	0.11225	0.25048	0.2629	-0.03
Mof_C 	C 	0.15021	0.27271	0.28364	-0.02
Mof_C 	C 	0.16919	0.30864	0.32574	-0.111
Mof_C 	C 	0.15021	0.32233	0.3471	0.146
Mof_C 	C 	0.15979	0.37552	0.41838	0.216
Mof_C 	C 	0.19008	0.41157	0.46476	-0.056
Mof_C 	C 	0.17571	0.43953	0.48478	-0.016
Mof_C 	C 	0.20162	0.47419	0.52754	-0.061
Mof_C 	C 	0.24191	0.48089	0.5503	-0.003
Mof_C 	C 	0.25628	0.45294	0.53028	-0.063
Mof_C 	C 	0.23038	0.41827	0.48752	-0.016
Mof_C 	C 	0.27111	0.5166	0.59502	0.095
Mof_C 	C 	0.91221	0.16584	0.17914	0.33
Mof_C 	C 	0.80089	0.03671	0.05966	0.325
Mof_C 	C 	0.85518	0.10168	0.11852	-0.025
Mof_C 	C 	0.87011	0.14156	0.15316	-0.024
Mof_C 	C 	0.84666	0.15959	0.16626	-0.108
Mof_C 	C 	0.80828	0.13775	0.14474	0.141
Mof_C 	C 	0.79336	0.09789	0.11012	-0.105
Mof_C 	C 	0.8168	0.07985	0.097	-0.027
Mof_C 	C 	0.7485	0.14647	0.14372	0.219
Mof_C 	C 	0.73157	0.1776	0.16184	-0.057
Mof_C 	C 	0.75364	0.2169	0.19742	-0.014
Mof_C 	C 	0.73525	0.24329	0.2114	-0.066
Mof_C 	C 	0.6948	0.23038	0.1898	0
Mof_C 	C 	0.67273	0.19111	0.15422	-0.064
Mof_C 	C 	0.69112	0.1647	0.14024	-0.016
Mof_C 	C 	0.67942	0.2618	0.20764	0.087
Mof_C 	C 	0.94511	0.96534	0.1818	0.319
Mof_C 	C 	0.81642	0.95652	0.06104	0.344
Mof_C 	C 	0.87979	0.95743	0.1191	-0.022
Mof_C 	C 	0.90083	0.95527	0.15602	-0.022
Mof_C 	C 	0.88138	0.94487	0.17032	-0.107
Mof_C 	C 	0.84089	0.93663	0.1477	0.14
Mof_C 	C 	0.81985	0.93878	0.11078	-0.105
Mof_C 	C 	0.8393	0.94918	0.09648	-0.035
Mof_C 	C 	0.83049	0.92357	0.19448	0.206
Mof_C 	C 	0.80108	0.92029	0.20486	-0.051
Mof_C 	C 	0.81268	0.91219	0.2369	-0.023
Mof_C 	C 	0.78754	0.90824	0.24848	-0.056
Mof_C 	C 	0.75081	0.91231	0.22802	-0.01
Mof_C 	C 	0.73929	0.92039	0.19598	-0.058
Mof_C 	C 	0.76436	0.92442	0.1844	-0.023
Mof_C 	C 	0.72306	0.90816	0.23732	0.096
Mof_C 	C 	0.73951	0.91074	0.74022	0.334
Mof_C 	C 	0.75972	0.7901	0.73816	0.317
Mof_C 	C 	0.69989	0.78589	0.67364	-0.112
Mof_C 	C 	0.73582	0.80901	0.71574	-0.017
Mof_C 	C 	0.74952	0.84935	0.7371	-0.03
Mof_C 	C 	0.72729	0.86657	0.71636	-0.019
Mof_C 	C 	0.69136	0.84345	0.67426	-0.111
Mof_C 	C 	0.67767	0.80311	0.6529	0.146
Mof_C 	C 	0.62448	0.74141	0.58162	0.216
Mof_C 	C 	0.58843	0.72532	0.53524	-0.056
Mof_C 	C 	0.56047	0.69093	0.51522	-0.016
Mof_C 	C 	0.52581	0.67408	0.47246	-0.061
Mof_C 	C 	0.51911	0.69161	0.4497	-0.004
Mof_C 	C 	0.54706	0.726	0.46972	-0.063
Mof_C 	C 	0.58173	0.74286	0.51248	-0.017
Mof_C 	C 	0.4834	0.67609	0.40498	0.095
Mof_C 	C 	0.83416	0.73307	0.82086	0.329
Mof_C 	C 	0.96329	0.74123	0.94034	0.322
Mof_C 	C 	0.89832	0.73666	0.88148	-0.027
Mof_C 	C 	0.85844	0.71695	0.84684	-0.02
Mof_C 	C 	0.84041	0.6804	0.83374	-0.11
Mof_C 	C 	0.86225	0.66354	0.85526	0.145
Mof_C 	C 	0.90211	0.68324	0.88988	-0.107
Mof_C 	C 	0.92015	0.7198	0.903	-0.02
Mof_C 	C 	0.85353	0.60478	0.85628	0.22
Mof_C 	C 	0.8224	0.56973	0.83816	-0.055
Mof_C 	C 	0.7831	0.55622	0.80258	-0.014
Mof_C 	C 	0.75671	0.52385	0.7886	-0.064
Mof_C 	C 	0.76962	0.505	0.8102	0.002
Mof_C 	C 	0.80889	0.51851	0.84578	-0.062
Mof_C 	C 	0.8353	0.55088	0.85976	-0.015
Mof_C 	C 	0.7382	0.47178	0.79236	0.089
Mof_C 	C 	0.03466	0.76331	0.8182	0.318
Mof_C 	C 	0.04348	0.75538	0.93896	0.34
Mof_C 	C 	0.04257	0.76069	0.8809	-0.025
Mof_C 	C 	0.04473	0.74481	0.84398	-0.017
Mof_C 	C 	0.05513	0.71106	0.82968	-0.11
Mof_C 	C 	0.06337	0.69319	0.8523	0.146
Mof_C 	C 	0.06122	0.70907	0.88922	-0.108
Mof_C 	C 	0.05082	0.74282	0.90352	-0.025
Mof_C 	C 	0.07643	0.63601	0.80552	0.208
Mof_C 	C 	0.07971	0.59622	0.79514	-0.05
Mof_C 	C 	0.08781	0.57578	0.7631	-0.022
Mof_C 	C 	0.09176	0.53906	0.75152	-0.056
Mof_C 	C 	0.08769	0.52279	0.77198	-0.009
Mof_C 	C 	0.07961	0.54331	0.80402	-0.057
Mof_C 	C 	0.07558	0.57996	0.8156	-0.021
Mof_C 	C 	0.09184	0.48574	0.76268	0.098
Mof_C 	C 	0.00071	0.82948	0.74022	0.335
Mof_C 	C 	0.97844	0.94806	0.73816	0.317
Mof_C 	C 	0.97375	0.88775	0.67364	-0.111
Mof_C 	C 	0.97992	0.90673	0.71574	-0.018
Mof_C 	C 	0.98758	0.88775	0.7371	-0.029
Mof_C 	C 	0.98907	0.84979	0.71636	-0.021
Mof_C 	C 	0.9829	0.83081	0.67426	-0.111
Mof_C 	C 	0.97523	0.84979	0.6529	0.145
Mof_C 	C 	0.95714	0.84021	0.58162	0.216
Mof_C 	C 	0.94681	0.80992	0.53524	-0.056
Mof_C 	C 	0.95475	0.82429	0.51522	-0.017
Mof_C 	C 	0.94665	0.79838	0.47246	-0.061
Mof_C 	C 	0.93059	0.75809	0.4497	-0.004
Mof_C 	C 	0.92266	0.74372	0.46972	-0.063
Mof_C 	C 	0.93075	0.76962	0.51248	-0.017
Mof_C 	C 	0.92158	0.72889	0.40498	0.095
Mof_C 	C 	0.9867	0.08779	0.82086	0.329
Mof_C 	C 	0.97705	0.19911	0.94034	0.322
Mof_C 	C 	0.98316	0.14482	0.88148	-0.027
Mof_C 	C 	0.9884	0.12989	0.84684	-0.02
Mof_C 	C 	0.99333	0.15334	0.83374	-0.11
Mof_C 	C 	0.99301	0.19172	0.85526	0.145
Mof_C 	C 	0.98777	0.20664	0.88988	-0.107
Mof_C 	C 	0.98285	0.1832	0.903	-0.02
Mof_C 	C 	0.00275	0.2515	0.85628	0.223
Mof_C 	C 	0.01576	0.26843	0.83816	-0.055
Mof_C 	C 	0.01948	0.24636	0.80258	-0.013
Mof_C 	C 	0.03189	0.26475	0.7886	-0.065
Mof_C 	C 	0.04058	0.3052	0.8102	0.002
Mof_C 	C 	0.03689	0.32727	0.84578	-0.062
Mof_C 	C 	0.02446	0.30888	0.85976	-0.014
Mof_C 	C 	0.05416	0.32058	0.79236	0.089
Mof_C 	C 	0.78354	0.05489	0.8182	0.318
Mof_C 	C 	0.89548	0.18358	0.93896	0.34
Mof_C 	C 	0.83833	0.12021	0.8809	-0.025
Mof_C 	C 	0.79925	0.09917	0.84398	-0.016
Mof_C 	C 	0.77455	0.11862	0.82968	-0.11
Mof_C 	C 	0.78893	0.15911	0.8523	0.146
Mof_C 	C 	0.828	0.18015	0.88922	-0.108
Mof_C 	C 	0.8527	0.1607	0.90352	-0.025
Mof_C 	C 	0.72909	0.16951	0.80552	0.208
Mof_C 	C 	0.71543	0.19892	0.79514	-0.05
Mof_C 	C 	0.67529	0.18732	0.7631	-0.022
Mof_C 	C 	0.65976	0.21246	0.75152	-0.056
Mof_C 	C 	0.68429	0.24919	0.77198	-0.009
Mof_C 	C 	0.72441	0.26071	0.80402	-0.057
Mof_C 	C 	0.74002	0.23564	0.8156	-0.021
Mof_C 	C 	0.67084	0.27694	0.76268	0.098
Mof_C 	C 	0.91074	0.00071	0.74022	0.335
Mof_C 	C 	0.7901	0.97844	0.73816	0.317
Mof_C 	C 	0.78589	0.97375	0.67364	-0.111
Mof_C 	C 	0.80901	0.97992	0.71574	-0.018
Mof_C 	C 	0.84935	0.98758	0.7371	-0.03
Mof_C 	C 	0.86657	0.98907	0.71636	-0.021
Mof_C 	C 	0.84345	0.9829	0.67426	-0.111
Mof_C 	C 	0.80311	0.97523	0.6529	0.145
Mof_C 	C 	0.74141	0.95714	0.58162	0.216
Mof_C 	C 	0.72532	0.94681	0.53524	-0.056
Mof_C 	C 	0.69093	0.95475	0.51522	-0.017
Mof_C 	C 	0.67408	0.94665	0.47246	-0.061
Mof_C 	C 	0.69161	0.93059	0.4497	-0.004
Mof_C 	C 	0.726	0.92266	0.46972	-0.063
Mof_C 	C 	0.74286	0.93075	0.51248	-0.017
Mof_C 	C 	0.67609	0.92158	0.40498	0.095
Mof_C 	C 	0.73307	0.9867	0.82086	0.329
Mof_C 	C 	0.74123	0.97705	0.94034	0.322
Mof_C 	C 	0.73666	0.98316	0.88148	-0.027
Mof_C 	C 	0.71695	0.9884	0.84684	-0.02
Mof_C 	C 	0.6804	0.99333	0.83374	-0.11
Mof_C 	C 	0.66354	0.99301	0.85526	0.145
Mof_C 	C 	0.68324	0.98777	0.88988	-0.107
Mof_C 	C 	0.7198	0.98285	0.903	-0.02
Mof_C 	C 	0.60478	0.00275	0.85628	0.222
Mof_C 	C 	0.56973	0.01576	0.83816	-0.055
Mof_C 	C 	0.55622	0.01948	0.80258	-0.013
Mof_C 	C 	0.52385	0.03189	0.7886	-0.065
Mof_C 	C 	0.505	0.04058	0.8102	0.002
Mof_C 	C 	0.51851	0.03689	0.84578	-0.062
Mof_C 	C 	0.55088	0.02446	0.85976	-0.014
Mof_C 	C 	0.47178	0.05416	0.79236	0.089
Mof_C 	C 	0.76331	0.78354	0.8182	0.318
Mof_C 	C 	0.75538	0.89548	0.93896	0.34
Mof_C 	C 	0.76069	0.83833	0.8809	-0.025
Mof_C 	C 	0.74481	0.79925	0.84398	-0.017
Mof_C 	C 	0.71106	0.77455	0.82968	-0.11
Mof_C 	C 	0.69319	0.78893	0.8523	0.146
Mof_C 	C 	0.70907	0.828	0.88922	-0.108
Mof_C 	C 	0.74282	0.8527	0.90352	-0.026
Mof_C 	C 	0.63601	0.72909	0.80552	0.208
Mof_C 	C 	0.59622	0.71543	0.79514	-0.05
Mof_C 	C 	0.57578	0.67529	0.7631	-0.022
Mof_C 	C 	0.53906	0.65976	0.75152	-0.056
Mof_C 	C 	0.52279	0.68429	0.77198	-0.009
Mof_C 	C 	0.54331	0.72441	0.80402	-0.057
Mof_C 	C 	0.57996	0.74002	0.8156	-0.021
Mof_C 	C 	0.48574	0.67084	0.76268	0.098
Mof_C 	C 	0.82948	0.73951	0.74022	0.334
Mof_C 	C 	0.94806	0.75972	0.73816	0.317
Mof_C 	C 	0.88775	0.69989	0.67364	-0.112
Mof_C 	C 	0.90673	0.73582	0.71574	-0.018
Mof_C 	C 	0.88775	0.74952	0.7371	-0.03
Mof_C 	C 	0.84979	0.72729	0.71636	-0.019
Mof_C 	C 	0.83081	0.69136	0.67426	-0.111
Mof_C 	C 	0.84979	0.67767	0.6529	0.146
Mof_C 	C 	0.84021	0.62448	0.58162	0.216
Mof_C 	C 	0.80992	0.58843	0.53524	-0.056
Mof_C 	C 	0.82429	0.56047	0.51522	-0.016
Mof_C 	C 	0.79838	0.52581	0.47246	-0.061
Mof_C 	C 	0.75809	0.51911	0.4497	-0.004
Mof_C 	C 	0.74372	0.54706	0.46972	-0.063
Mof_C 	C 	0.76962	0.58173	0.51248	-0.017
Mof_C 	C 	0.72889	0.4834	0.40498	0.095
Mof_C 	C 	0.08779	0.83416	0.82086	0.329
Mof_C 	C 	0.19911	0.96329	0.94034	0.322
Mof_C 	C 	0.14482	0.89832	0.88148	-0.027
Mof_C 	C 	0.12989	0.85844	0.84684	-0.02
Mof_C 	C 	0.15334	0.84041	0.83374	-0.11
Mof_C 	C 	0.19172	0.86225	0.85526	0.145
Mof_C 	C 	0.20664	0.90211	0.88988	-0.107
Mof_C 	C 	0.1832	0.92015	0.903	-0.02
Mof_C 	C 	0.2515	0.85353	0.85628	0.22
Mof_C 	C 	0.26843	0.8224	0.83816	-0.055
Mof_C 	C 	0.24636	0.7831	0.80258	-0.014
Mof_C 	C 	0.26475	0.75671	0.7886	-0.064
Mof_C 	C 	0.3052	0.76962	0.8102	0.002
Mof_C 	C 	0.32727	0.80889	0.84578	-0.062
Mof_C 	C 	0.30888	0.8353	0.85976	-0.015
Mof_C 	C 	0.32058	0.7382	0.79236	0.089
Mof_C 	C 	0.05489	0.03466	0.8182	0.318
Mof_C 	C 	0.18358	0.04348	0.93896	0.34
Mof_C 	C 	0.12021	0.04257	0.8809	-0.025
Mof_C 	C 	0.09917	0.04473	0.84398	-0.016
Mof_C 	C 	0.11862	0.05513	0.82968	-0.11
Mof_C 	C 	0.15911	0.06337	0.8523	0.146
Mof_C 	C 	0.18015	0.06122	0.88922	-0.108
Mof_C 	C 	0.1607	0.05082	0.90352	-0.025
Mof_C 	C 	0.16951	0.07643	0.80552	0.208
Mof_C 	C 	0.19892	0.07971	0.79514	-0.05
Mof_C 	C 	0.18732	0.08781	0.7631	-0.022
Mof_C 	C 	0.21246	0.09176	0.75152	-0.056
Mof_C 	C 	0.24919	0.08769	0.77198	-0.009
Mof_C 	C 	0.26071	0.07961	0.80402	-0.057
Mof_C 	C 	0.23564	0.07558	0.8156	-0.021
Mof_C 	C 	0.27694	0.09184	0.76268	0.098
Mof_N 	N 	0.54397	0.35897	0.62394	-0.124
Mof_N 	N 	0.57042	0.35982	0.65944	-0.192
Mof_N 	N 	0.5593	0.3252	0.6522	-0.192
Mof_N 	N 	0.52517	0.30127	0.61174	-0.116
Mof_N 	N 	0.29761	0.54441	0.24902	-0.114
Mof_N 	N 	0.31883	0.57353	0.25486	-0.188
Mof_N 	N 	0.297	0.57465	0.2186	-0.197
Mof_N 	N 	0.26232	0.54752	0.18964	-0.121
Mof_N 	N 	0.3563	0.21936	0.39124	-0.237
Mof_N 	N 	0.15634	0.37423	0.16056	-0.24
Mof_N 	N 	0.92615	0.34058	0.16062	-0.237
Mof_N 	N 	0.90195	0.56935	0.2639	-0.186
Mof_N 	N 	0.90387	0.54047	0.26934	-0.124
Mof_N 	N 	0.90826	0.52776	0.21332	-0.115
Mof_N 	N 	0.9043	0.5626	0.2304	-0.194
Mof_N 	N 	0.07997	0.26497	0.62394	-0.124
Mof_N 	N 	0.08902	0.29962	0.65944	-0.192
Mof_N 	N 	0.0929	0.327	0.6522	-0.192
Mof_N 	N 	0.08657	0.31047	0.61174	-0.116
Mof_N 	N 	0.95141	0.70461	0.24902	-0.115
Mof_N 	N 	0.93603	0.68133	0.25486	-0.189
Mof_N 	N 	0.9216	0.64395	0.2186	-0.197
Mof_N 	N 	0.92732	0.64212	0.18964	-0.121
Mof_N 	N 	0.03494	0.17188	0.39124	-0.237
Mof_N 	N 	0.00422	0.78633	0.16056	-0.238
Mof_N 	N 	0.23447	0.82004	0.16062	-0.237
Mof_N 	N 	0.36195	0.69455	0.2639	-0.186
Mof_N 	N 	0.36547	0.72887	0.26934	-0.124
Mof_N 	N 	0.30506	0.68556	0.21332	-0.115
Mof_N 	N 	0.3261	0.6678	0.2304	-0.193
Mof_N 	N 	0.35897	0.07997	0.62394	-0.124
Mof_N 	N 	0.35982	0.08902	0.65944	-0.192
Mof_N 	N 	0.3252	0.0929	0.6522	-0.192
Mof_N 	N 	0.30127	0.08657	0.61174	-0.116
Mof_N 	N 	0.54441	0.95141	0.24902	-0.115
Mof_N 	N 	0.57353	0.93603	0.25486	-0.189
Mof_N 	N 	0.57465	0.9216	0.2186	-0.197
Mof_N 	N 	0.54752	0.92732	0.18964	-0.121
Mof_N 	N 	0.21936	0.03494	0.39124	-0.237
Mof_N 	N 	0.37423	0.00422	0.16056	-0.238
Mof_N 	N 	0.34058	0.23447	0.16062	-0.237
Mof_N 	N 	0.56935	0.36195	0.2639	-0.186
Mof_N 	N 	0.54047	0.36547	0.26934	-0.124
Mof_N 	N 	0.52776	0.30506	0.21332	-0.115
Mof_N 	N 	0.5626	0.3261	0.2304	-0.193
Mof_N 	N 	0.26497	0.54397	0.62394	-0.124
Mof_N 	N 	0.29962	0.57042	0.65944	-0.192
Mof_N 	N 	0.327	0.5593	0.6522	-0.192
Mof_N 	N 	0.31047	0.52517	0.61174	-0.116
Mof_N 	N 	0.70461	0.29761	0.24902	-0.114
Mof_N 	N 	0.68133	0.31883	0.25486	-0.188
Mof_N 	N 	0.64395	0.297	0.2186	-0.197
Mof_N 	N 	0.64212	0.26232	0.18964	-0.121
Mof_N 	N 	0.17188	0.3563	0.39124	-0.237
Mof_N 	N 	0.78633	0.15634	0.16056	-0.24
Mof_N 	N 	0.82004	0.92615	0.16062	-0.237
Mof_N 	N 	0.69455	0.90195	0.2639	-0.186
Mof_N 	N 	0.72887	0.90387	0.26934	-0.124
Mof_N 	N 	0.68556	0.90826	0.21332	-0.115
Mof_N 	N 	0.6678	0.9043	0.2304	-0.194
Mof_N 	N 	0.45603	0.64103	0.37606	-0.124
Mof_N 	N 	0.42958	0.64018	0.34056	-0.193
Mof_N 	N 	0.4407	0.6748	0.3478	-0.193
Mof_N 	N 	0.47483	0.69873	0.38826	-0.117
Mof_N 	N 	0.70239	0.45559	0.75098	-0.114
Mof_N 	N 	0.68117	0.42647	0.74514	-0.188
Mof_N 	N 	0.703	0.42535	0.7814	-0.195
Mof_N 	N 	0.73768	0.45248	0.81036	-0.118
Mof_N 	N 	0.6437	0.78064	0.60876	-0.237
Mof_N 	N 	0.84366	0.62577	0.83944	-0.239
Mof_N 	N 	0.07385	0.65942	0.83938	-0.238
Mof_N 	N 	0.09805	0.43065	0.7361	-0.185
Mof_N 	N 	0.09613	0.45953	0.73066	-0.123
Mof_N 	N 	0.09174	0.47224	0.78668	-0.113
Mof_N 	N 	0.0957	0.4374	0.7696	-0.192
Mof_N 	N 	0.92003	0.73503	0.37606	-0.125
Mof_N 	N 	0.91098	0.70038	0.34056	-0.193
Mof_N 	N 	0.9071	0.673	0.3478	-0.193
Mof_N 	N 	0.91343	0.68953	0.38826	-0.117
Mof_N 	N 	0.04859	0.29539	0.75098	-0.114
Mof_N 	N 	0.06397	0.31867	0.74514	-0.188
Mof_N 	N 	0.0784	0.35605	0.7814	-0.195
Mof_N 	N 	0.07268	0.35788	0.81036	-0.118
Mof_N 	N 	0.96506	0.82812	0.60876	-0.237
Mof_N 	N 	0.99578	0.21367	0.83944	-0.24
Mof_N 	N 	0.76553	0.17996	0.83938	-0.238
Mof_N 	N 	0.63805	0.30545	0.7361	-0.185
Mof_N 	N 	0.63453	0.27113	0.73066	-0.123
Mof_N 	N 	0.69494	0.31444	0.78668	-0.113
Mof_N 	N 	0.6739	0.3322	0.7696	-0.192
Mof_N 	N 	0.64103	0.92003	0.37606	-0.125
Mof_N 	N 	0.64018	0.91098	0.34056	-0.193
Mof_N 	N 	0.6748	0.9071	0.3478	-0.193
Mof_N 	N 	0.69873	0.91343	0.38826	-0.117
Mof_N 	N 	0.45559	0.04859	0.75098	-0.114
Mof_N 	N 	0.42647	0.06397	0.74514	-0.188
Mof_N 	N 	0.42535	0.0784	0.7814	-0.195
Mof_N 	N 	0.45248	0.07268	0.81036	-0.118
Mof_N 	N 	0.78064	0.96506	0.60876	-0.237
Mof_N 	N 	0.62577	0.99578	0.83944	-0.24
Mof_N 	N 	0.65942	0.76553	0.83938	-0.238
Mof_N 	N 	0.43065	0.63805	0.7361	-0.185
Mof_N 	N 	0.45953	0.63453	0.73066	-0.123
Mof_N 	N 	0.47224	0.69494	0.78668	-0.113
Mof_N 	N 	0.4374	0.6739	0.7696	-0.192
Mof_N 	N 	0.73503	0.45603	0.37606	-0.125
Mof_N 	N 	0.70038	0.42958	0.34056	-0.193
Mof_N 	N 	0.673	0.4407	0.3478	-0.193
Mof_N 	N 	0.68953	0.47483	0.38826	-0.117
Mof_N 	N 	0.29539	0.70239	0.75098	-0.114
Mof_N 	N 	0.31867	0.68117	0.74514	-0.188
Mof_N 	N 	0.35605	0.703	0.7814	-0.195
Mof_N 	N 	0.35788	0.73768	0.81036	-0.118
Mof_N 	N 	0.82812	0.6437	0.60876	-0.237
Mof_N 	N 	0.21367	0.84366	0.83944	-0.239
Mof_N 	N 	0.17996	0.07385	0.83938	-0.238
Mof_N 	N 	0.30545	0.09805	0.7361	-0.185
Mof_N 	N 	0.27113	0.09613	0.73066	-0.123
Mof_N 	N 	0.31444	0.09174	0.78668	-0.113
Mof_N 	N 	0.3322	0.0957	0.7696	-0.192
Mof_O 	O 	0.20678	0.18747	0.22528	-0.401
Mof_O 	O 	0.2554	0.24674	0.28324	-0.385
Mof_O 	O 	0.22633	0.07258	0.22568	-0.405
Mof_O 	O 	0.28508	0.07655	0.27978	-0.402
Mof_O 	O 	0.36445	0.28051	0.4061	-0.229
Mof_O 	O 	0.19972	0.29029	0.21534	-0.404
Mof_O 	O 	0.14848	0.2321	0.16048	-0.403
Mof_O 	O 	0.02361	0.2224	0.04286	-0.405
Mof_O 	O 	0.01793	0.27748	0.04522	-0.391
Mof_O 	O 	0.11175	0.38655	0.1129	-0.229
Mof_O 	O 	0.96579	0.25356	0.21668	-0.4
Mof_O 	O 	0.9661	0.20211	0.1595	-0.389
Mof_O 	O 	0.96105	0.21194	0.04652	-0.416
Mof_O 	O 	0.95132	0.26517	0.04574	-0.419
Mof_O 	O 	0.92366	0.35322	0.2184	-0.222
Mof_O 	O 	0.91852	0.64002	0.27984	-0.594
Mof_O 	O 	0.0185	0.03781	0.22528	-0.4
Mof_O 	O 	0.02784	0.0365	0.28324	-0.384
Mof_O 	O 	0.99935	0.1531	0.22568	-0.405
Mof_O 	O 	0.9947	0.20323	0.27978	-0.403
Mof_O 	O 	0.04165	0.12559	0.4061	-0.229
Mof_O 	O 	0.01562	0.92505	0.21534	-0.404
Mof_O 	O 	0.012	0.92838	0.16048	-0.403
Mof_O 	O 	0.01925	0.82046	0.04286	-0.406
Mof_O 	O 	0.02729	0.76774	0.04522	-0.392
Mof_O 	O 	0.00115	0.72635	0.1129	-0.228
Mof_O 	O 	0.25089	0.96312	0.21668	-0.401
Mof_O 	O 	0.1934	0.95739	0.1595	-0.39
Mof_O 	O 	0.08547	0.83458	0.04652	-0.416
Mof_O 	O 	0.09442	0.78057	0.04574	-0.418
Mof_O 	O 	0.29474	0.86518	0.2184	-0.222
Mof_O 	O 	0.36132	0.63982	0.27984	-0.594
Mof_O 	O 	0.18747	0.0185	0.22528	-0.4
Mof_O 	O 	0.24674	0.02784	0.28324	-0.385
Mof_O 	O 	0.07258	0.99935	0.22568	-0.405
Mof_O 	O 	0.07655	0.9947	0.27978	-0.403
Mof_O 	O 	0.28051	0.04165	0.4061	-0.229
Mof_O 	O 	0.29029	0.01562	0.21534	-0.404
Mof_O 	O 	0.2321	0.012	0.16048	-0.403
Mof_O 	O 	0.2224	0.01925	0.04286	-0.405
Mof_O 	O 	0.27748	0.02729	0.04522	-0.391
Mof_O 	O 	0.38655	0.00115	0.1129	-0.227
Mof_O 	O 	0.25356	0.25089	0.21668	-0.4
Mof_O 	O 	0.20211	0.1934	0.1595	-0.389
Mof_O 	O 	0.21194	0.08547	0.04652	-0.415
Mof_O 	O 	0.26517	0.09442	0.04574	-0.418
Mof_O 	O 	0.35322	0.29474	0.2184	-0.222
Mof_O 	O 	0.64002	0.36132	0.27984	-0.594
Mof_O 	O 	0.03781	0.20678	0.22528	-0.4
Mof_O 	O 	0.0365	0.2554	0.28324	-0.384
Mof_O 	O 	0.1531	0.22633	0.22568	-0.405
Mof_O 	O 	0.20323	0.28508	0.27978	-0.402
Mof_O 	O 	0.12559	0.36445	0.4061	-0.229
Mof_O 	O 	0.92505	0.19972	0.21534	-0.405
Mof_O 	O 	0.92838	0.14848	0.16048	-0.403
Mof_O 	O 	0.82046	0.02361	0.04286	-0.405
Mof_O 	O 	0.76774	0.01793	0.04522	-0.391
Mof_O 	O 	0.72635	0.11175	0.1129	-0.229
Mof_O 	O 	0.96312	0.96579	0.21668	-0.401
Mof_O 	O 	0.95739	0.9661	0.1595	-0.39
Mof_O 	O 	0.83458	0.96105	0.04652	-0.416
Mof_O 	O 	0.78057	0.95132	0.04574	-0.419
Mof_O 	O 	0.86518	0.92366	0.2184	-0.222
Mof_O 	O 	0.63982	0.91852	0.27984	-0.594
Mof_O 	O 	0.79322	0.81253	0.77472	-0.4
Mof_O 	O 	0.7446	0.75326	0.71676	-0.385
Mof_O 	O 	0.77367	0.92742	0.77432	-0.404
Mof_O 	O 	0.71492	0.92345	0.72022	-0.402
Mof_O 	O 	0.63555	0.71949	0.5939	-0.23
Mof_O 	O 	0.80028	0.70971	0.78466	-0.403
Mof_O 	O 	0.85152	0.7679	0.83952	-0.4
Mof_O 	O 	0.97639	0.7776	0.95714	-0.39
Mof_O 	O 	0.98207	0.72252	0.95478	-0.377
Mof_O 	O 	0.88825	0.61345	0.8871	-0.223
Mof_O 	O 	0.03421	0.74644	0.78332	-0.398
Mof_O 	O 	0.0339	0.79789	0.8405	-0.385
Mof_O 	O 	0.03895	0.78806	0.95348	-0.4
Mof_O 	O 	0.04868	0.73483	0.95426	-0.402
Mof_O 	O 	0.07634	0.64678	0.7816	-0.22
Mof_O 	O 	0.08148	0.35998	0.72016	-0.593
Mof_O 	O 	0.9815	0.96219	0.77472	-0.4
Mof_O 	O 	0.97216	0.9635	0.71676	-0.386
Mof_O 	O 	0.00065	0.8469	0.77432	-0.403
Mof_O 	O 	0.0053	0.79677	0.72022	-0.402
Mof_O 	O 	0.95835	0.87441	0.5939	-0.23
Mof_O 	O 	0.98438	0.07495	0.78466	-0.404
Mof_O 	O 	0.988	0.07162	0.83952	-0.4
Mof_O 	O 	0.98075	0.17954	0.95714	-0.389
Mof_O 	O 	0.97271	0.23226	0.95478	-0.376
Mof_O 	O 	0.99885	0.27365	0.8871	-0.224
Mof_O 	O 	0.74911	0.03688	0.78332	-0.398
Mof_O 	O 	0.8066	0.04261	0.8405	-0.385
Mof_O 	O 	0.91453	0.16542	0.95348	-0.4
Mof_O 	O 	0.90558	0.21943	0.95426	-0.402
Mof_O 	O 	0.70526	0.13482	0.7816	-0.22
Mof_O 	O 	0.63868	0.36018	0.72016	-0.593
Mof_O 	O 	0.81253	0.9815	0.77472	-0.4
Mof_O 	O 	0.75326	0.97216	0.71676	-0.385
Mof_O 	O 	0.92742	0.00065	0.77432	-0.403
Mof_O 	O 	0.92345	0.0053	0.72022	-0.402
Mof_O 	O 	0.71949	0.95835	0.5939	-0.23
Mof_O 	O 	0.70971	0.98438	0.78466	-0.404
Mof_O 	O 	0.7679	0.988	0.83952	-0.4
Mof_O 	O 	0.7776	0.98075	0.95714	-0.389
Mof_O 	O 	0.72252	0.97271	0.95478	-0.376
Mof_O 	O 	0.61345	0.99885	0.8871	-0.224
Mof_O 	O 	0.74644	0.74911	0.78332	-0.399
Mof_O 	O 	0.79789	0.8066	0.8405	-0.386
Mof_O 	O 	0.78806	0.91453	0.95348	-0.4
Mof_O 	O 	0.73483	0.90558	0.95426	-0.402
Mof_O 	O 	0.64678	0.70526	0.7816	-0.22
Mof_O 	O 	0.35998	0.63868	0.72016	-0.593
Mof_O 	O 	0.96219	0.79322	0.77472	-0.4
Mof_O 	O 	0.9635	0.7446	0.71676	-0.386
Mof_O 	O 	0.8469	0.77367	0.77432	-0.404
Mof_O 	O 	0.79677	0.71492	0.72022	-0.402
Mof_O 	O 	0.87441	0.63555	0.5939	-0.23
Mof_O 	O 	0.07495	0.80028	0.78466	-0.403
Mof_O 	O 	0.07162	0.85152	0.83952	-0.4
Mof_O 	O 	0.17954	0.97639	0.95714	-0.39
Mof_O 	O 	0.23226	0.98207	0.95478	-0.377
Mof_O 	O 	0.27365	0.88825	0.8871	-0.223
Mof_O 	O 	0.03688	0.03421	0.78332	-0.398
Mof_O 	O 	0.04261	0.0339	0.8405	-0.385
Mof_O 	O 	0.16542	0.03895	0.95348	-0.4
Mof_O 	O 	0.21943	0.04868	0.95426	-0.402
Mof_O 	O 	0.13482	0.07634	0.7816	-0.22
Mof_O 	O 	0.36018	0.08148	0.72016	-0.593
_end
