data_functionalizedCrystal
_audit_creation_method	'EQeq! by Chris Wilmer'
_symmetry_space_group_name_H-M	'P1'
_symmetry_Int_Tables_number	1
_symmetry_cell_setting	triclinic
loop_
_symmetry_equiv_pos_as_xyz
  x,y,z
_cell_length_a	14.549
_cell_length_b	14.549
_cell_length_c	17.767
_cell_angle_alpha	90
_cell_angle_beta	90
_cell_angle_gamma	120
loop_
_atom_site_label
_atom_site_type_symbol
_atom_site_fract_x
_atom_site_fract_y
_atom_site_fract_z
_atom_site_charge
Mof_C 	C 	0.43237	0.40312	0.96662	0.196
Mof_O 	O 	0.65002	0.50236	0.83489	-0.556
Mof_O 	O 	0.3571	0.3069	0.943	-0.35
Mof_H 	H 	0.3776	0.2909	0.9035	0.241
Mof_C 	C 	0.59688	0.02925	0.96662	0.195
Mof_O 	O 	0.49764	0.14766	0.83489	-0.557
Mof_O 	O 	0.6931	0.0502	0.943	-0.35
Mof_H 	H 	0.7091	0.0867	0.9035	0.241
Mof_C 	C 	0.97075	0.56763	0.96662	0.195
Mof_O 	O 	0.85234	0.34998	0.83489	-0.557
Mof_O 	O 	0.9498	0.6429	0.943	-0.35
Mof_H 	H 	0.9133	0.6224	0.9035	0.241
Mof_C 	C 	0.56763	0.59688	0.46662	0.195
Mof_O 	O 	0.34998	0.49764	0.33489	-0.557
Mof_O 	O 	0.6429	0.6931	0.443	-0.35
Mof_H 	H 	0.6224	0.7091	0.4035	0.241
Mof_C 	C 	0.40312	0.97075	0.46662	0.195
Mof_O 	O 	0.50236	0.85234	0.33489	-0.557
Mof_O 	O 	0.3069	0.9498	0.443	-0.35
Mof_H 	H 	0.2909	0.9133	0.4035	0.241
Mof_C 	C 	0.02925	0.43237	0.46662	0.195
Mof_O 	O 	0.14766	0.65002	0.33489	-0.557
Mof_O 	O 	0.0502	0.3571	0.443	-0.35
Mof_H 	H 	0.0867	0.3776	0.4035	0.241
Mof_C 	C 	0.40312	0.43237	0.03338	0.195
Mof_O 	O 	0.50236	0.65002	0.16511	-0.557
Mof_O 	O 	0.3069	0.3571	0.057	-0.35
Mof_H 	H 	0.2909	0.3776	0.0965	0.241
Mof_C 	C 	0.02925	0.59688	0.03338	0.195
Mof_O 	O 	0.14766	0.49764	0.16511	-0.557
Mof_O 	O 	0.0502	0.6931	0.057	-0.35
Mof_H 	H 	0.0867	0.7091	0.0965	0.241
Mof_C 	C 	0.56763	0.97075	0.03338	0.195
Mof_O 	O 	0.34998	0.85234	0.16511	-0.557
Mof_O 	O 	0.6429	0.9498	0.057	-0.35
Mof_H 	H 	0.6224	0.9133	0.0965	0.241
Mof_C 	C 	0.59688	0.56763	0.53338	0.195
Mof_O 	O 	0.49764	0.34998	0.66511	-0.557
Mof_O 	O 	0.6931	0.6429	0.557	-0.35
Mof_H 	H 	0.7091	0.6224	0.5965	0.241
Mof_C 	C 	0.97075	0.40312	0.53338	0.195
Mof_O 	O 	0.85234	0.50236	0.66511	-0.557
Mof_O 	O 	0.9498	0.3069	0.557	-0.35
Mof_H 	H 	0.9133	0.2909	0.5965	0.241
Mof_C 	C 	0.43237	0.02925	0.53338	0.195
Mof_O 	O 	0.65002	0.14766	0.66511	-0.557
Mof_O 	O 	0.3571	0.0502	0.557	-0.35
Mof_H 	H 	0.3776	0.0867	0.5965	0.241
Mof_C 	C 	0.56763	0.59688	0.03338	0.195
Mof_O 	O 	0.34998	0.49764	0.16511	-0.557
Mof_O 	O 	0.6429	0.6931	0.057	-0.35
Mof_H 	H 	0.6224	0.7091	0.0965	0.241
Mof_C 	C 	0.40312	0.97075	0.03338	0.195
Mof_O 	O 	0.50236	0.85234	0.16511	-0.557
Mof_O 	O 	0.3069	0.9498	0.057	-0.35
Mof_H 	H 	0.2909	0.9133	0.0965	0.241
Mof_C 	C 	0.02925	0.43237	0.03338	0.195
Mof_O 	O 	0.14766	0.65002	0.16511	-0.557
Mof_O 	O 	0.0502	0.3571	0.057	-0.35
Mof_H 	H 	0.0867	0.3776	0.0965	0.241
Mof_C 	C 	0.43237	0.40312	0.53338	0.195
Mof_O 	O 	0.65002	0.50236	0.66511	-0.557
Mof_O 	O 	0.3571	0.3069	0.557	-0.35
Mof_H 	H 	0.3776	0.2909	0.5965	0.241
Mof_C 	C 	0.59688	0.02925	0.53338	0.195
Mof_O 	O 	0.49764	0.14766	0.66511	-0.557
Mof_O 	O 	0.6931	0.0502	0.557	-0.35
Mof_H 	H 	0.7091	0.0867	0.5965	0.241
Mof_C 	C 	0.97075	0.56763	0.53338	0.195
Mof_O 	O 	0.85234	0.34998	0.66511	-0.557
Mof_O 	O 	0.9498	0.6429	0.557	-0.35
Mof_H 	H 	0.9133	0.6224	0.5965	0.241
Mof_C 	C 	0.59688	0.56763	0.96662	0.195
Mof_O 	O 	0.49764	0.34998	0.83489	-0.557
Mof_O 	O 	0.6931	0.6429	0.943	-0.35
Mof_H 	H 	0.7091	0.6224	0.9035	0.241
Mof_C 	C 	0.97075	0.40312	0.96662	0.195
Mof_O 	O 	0.85234	0.50236	0.83489	-0.557
Mof_O 	O 	0.9498	0.3069	0.943	-0.35
Mof_H 	H 	0.9133	0.2909	0.9035	0.241
Mof_C 	C 	0.43237	0.02925	0.96662	0.195
Mof_O 	O 	0.65002	0.14766	0.83489	-0.557
Mof_O 	O 	0.3571	0.0502	0.943	-0.35
Mof_H 	H 	0.3776	0.0867	0.9035	0.241
Mof_C 	C 	0.40312	0.43237	0.46662	0.195
Mof_O 	O 	0.50236	0.65002	0.33489	-0.557
Mof_O 	O 	0.3069	0.3571	0.443	-0.35
Mof_H 	H 	0.2909	0.3776	0.4035	0.241
Mof_C 	C 	0.02925	0.59688	0.46662	0.195
Mof_O 	O 	0.14766	0.49764	0.33489	-0.557
Mof_O 	O 	0.0502	0.6931	0.443	-0.35
Mof_H 	H 	0.0867	0.7091	0.4035	0.241
Mof_C 	C 	0.56763	0.97075	0.46662	0.195
Mof_O 	O 	0.34998	0.85234	0.33489	-0.557
Mof_O 	O 	0.6429	0.9498	0.443	-0.35
Mof_H 	H 	0.6224	0.9133	0.4035	0.241
Mof_C 	C 	0.56113	0.43887	0.86292	0.547
Mof_C 	C 	0.52964	0.47036	0.93334	-0.277
Mof_C 	C 	0.56113	0.12226	0.86292	0.547
Mof_C 	C 	0.52964	0.05928	0.93334	-0.277
Mof_C 	C 	0.87774	0.43887	0.86292	0.547
Mof_C 	C 	0.94072	0.47036	0.93334	-0.277
Mof_C 	C 	0.43887	0.56113	0.36292	0.548
Mof_C 	C 	0.47036	0.52964	0.43334	-0.277
Mof_C 	C 	0.43887	0.87774	0.36292	0.547
Mof_C 	C 	0.47036	0.94072	0.43334	-0.277
Mof_C 	C 	0.12226	0.56113	0.36292	0.547
Mof_C 	C 	0.05928	0.52964	0.43334	-0.277
Mof_C 	C 	0.43887	0.56113	0.13708	0.547
Mof_C 	C 	0.47036	0.52964	0.06666	-0.277
Mof_C 	C 	0.12226	0.56113	0.13708	0.547
Mof_C 	C 	0.05928	0.52964	0.06666	-0.277
Mof_C 	C 	0.43887	0.87774	0.13708	0.547
Mof_C 	C 	0.47036	0.94072	0.06666	-0.277
Mof_C 	C 	0.56113	0.43887	0.63708	0.548
Mof_C 	C 	0.52964	0.47036	0.56666	-0.277
Mof_C 	C 	0.87774	0.43887	0.63708	0.547
Mof_C 	C 	0.94072	0.47036	0.56666	-0.277
Mof_C 	C 	0.56113	0.12226	0.63708	0.547
Mof_C 	C 	0.52964	0.05928	0.56666	-0.277
Mof_O 	O 	0.66667	0.33333	0.75	-0.83
Mof_O 	O 	0.33333	0.66667	0.25	-0.83
Mof_Sc	Sc	0.74682	0.49365	0.75	1.62
Mof_Sc	Sc	0.50635	0.25318	0.75	1.62
Mof_Sc	Sc	0.74682	0.25318	0.75	1.62
Mof_Sc	Sc	0.25318	0.50635	0.25	1.62
Mof_Sc	Sc	0.49365	0.74682	0.25	1.62
Mof_Sc	Sc	0.25318	0.74682	0.25	1.62
_end
