data_functionalizedCrystal
_audit_creation_method	'EQeq! by Chris Wilmer'
_symmetry_space_group_name_H-M	'P1'
_symmetry_Int_Tables_number	1
_symmetry_cell_setting	triclinic
loop_
_symmetry_equiv_pos_as_xyz
  x,y,z
_cell_length_a	16
_cell_length_b	19.198
_cell_length_c	21.411
_cell_angle_alpha	90
_cell_angle_beta	90
_cell_angle_gamma	99.861
loop_
_atom_site_label
_atom_site_type_symbol
_atom_site_fract_x
_atom_site_fract_y
_atom_site_fract_z
_atom_site_charge
Mof_Cu	Cu	0.63877	0.97809	0.35095	0.928
Mof_Cu	Cu	0.51047	0.90416	0.22795	0.872
Mof_Cu	Cu	0.68744	0.8706	0.26157	0.896
Mof_Cu	Cu	0.81268	0.91464	0.3741	0.899
Mof_Cu	Cu	0.36123	0.52191	0.85095	0.928
Mof_Cu	Cu	0.48953	0.59584	0.72795	0.872
Mof_Cu	Cu	0.31256	0.6294	0.76157	0.896
Mof_Cu	Cu	0.18732	0.58536	0.8741	0.899
Mof_Cu	Cu	0.36123	0.02191	0.64905	0.928
Mof_Cu	Cu	0.48953	0.09584	0.77206	0.873
Mof_Cu	Cu	0.31256	0.1294	0.73843	0.897
Mof_Cu	Cu	0.18732	0.08536	0.6259	0.9
Mof_Cu	Cu	0.63877	0.47809	0.14905	0.929
Mof_Cu	Cu	0.51047	0.40416	0.27206	0.873
Mof_Cu	Cu	0.68744	0.3706	0.23843	0.897
Mof_Cu	Cu	0.81268	0.41464	0.1259	0.9
Mof_H 	H 	0.1226	0.0368	0.3376	0.132
Mof_H 	H 	0.0484	0.1678	0.1287	0.136
Mof_H 	H 	0.1773	0.0344	0.4359	0.07
Mof_H 	H 	0.31	0.9883	0.2879	0.077
Mof_H 	H 	0.4102	0.9877	0.4605	0.063
Mof_H 	H 	0.9577	0.2502	0.1586	0.073
Mof_H 	H 	0.3195	0.035	0.1371	0.13
Mof_H 	H 	0.9478	0.0619	0.2429	0.086
Mof_H 	H 	0.2012	0.1264	0.0377	0.131
Mof_H 	H 	0.2334	0.1453	0.9341	-0.004
Mof_H 	H 	0.4439	0.0631	0.9557	-0.017
Mof_H 	H 	0.4074	0.0364	0.0576	0.108
Mof_H 	H 	0.7639	0.1757	0.2735	0.06
Mof_H 	H 	0.8774	0.4632	0.8376	0.132
Mof_H 	H 	0.9516	0.3322	0.6287	0.136
Mof_H 	H 	0.8227	0.4656	0.9359	0.07
Mof_H 	H 	0.69	0.5117	0.7879	0.077
Mof_H 	H 	0.5898	0.5123	0.9605	0.063
Mof_H 	H 	0.0423	0.2498	0.6586	0.074
Mof_H 	H 	0.6805	0.465	0.6371	0.13
Mof_H 	H 	0.0522	0.4381	0.7429	0.086
Mof_H 	H 	0.7988	0.3736	0.5377	0.131
Mof_H 	H 	0.7666	0.3547	0.4341	-0.004
Mof_H 	H 	0.5561	0.4369	0.4557	-0.018
Mof_H 	H 	0.5926	0.4636	0.5576	0.109
Mof_H 	H 	0.2361	0.3243	0.7735	0.06
Mof_H 	H 	0.8774	0.9632	0.6624	0.132
Mof_H 	H 	0.9516	0.8322	0.8713	0.136
Mof_H 	H 	0.8227	0.9656	0.5641	0.07
Mof_H 	H 	0.69	0.0117	0.7121	0.077
Mof_H 	H 	0.5898	0.0123	0.5395	0.063
Mof_H 	H 	0.0423	0.7498	0.8414	0.073
Mof_H 	H 	0.6805	0.965	0.8629	0.13
Mof_H 	H 	0.0522	0.9381	0.7571	0.086
Mof_H 	H 	0.7988	0.8736	0.9623	0.131
Mof_H 	H 	0.7666	0.8547	0.0659	-0.004
Mof_H 	H 	0.5561	0.9369	0.0443	-0.017
Mof_H 	H 	0.5926	0.9636	0.9424	0.108
Mof_H 	H 	0.2361	0.8243	0.7265	0.06
Mof_H 	H 	0.1226	0.5368	0.1624	0.132
Mof_H 	H 	0.0484	0.6678	0.3713	0.136
Mof_H 	H 	0.1773	0.5344	0.0641	0.07
Mof_H 	H 	0.31	0.4883	0.2121	0.077
Mof_H 	H 	0.4102	0.4877	0.0395	0.063
Mof_H 	H 	0.9577	0.7502	0.3414	0.074
Mof_H 	H 	0.3195	0.535	0.3629	0.13
Mof_H 	H 	0.9478	0.5619	0.2571	0.086
Mof_H 	H 	0.2012	0.6264	0.4623	0.131
Mof_H 	H 	0.2334	0.6453	0.5659	-0.004
Mof_H 	H 	0.4439	0.5631	0.5443	-0.018
Mof_H 	H 	0.4074	0.5364	0.4424	0.109
Mof_H 	H 	0.7639	0.6757	0.2265	0.06
Mof_C 	C 	0.96619	0.1547	0.19743	0.125
Mof_C 	C 	0.22688	0.02303	0.4192	-0.097
Mof_C 	C 	0.16908	0.0587	0.25783	0.197
Mof_C 	C 	0.10449	0.11361	0.18447	0.198
Mof_C 	C 	0.306	0.99586	0.33067	-0.089
Mof_C 	C 	0.29119	0.01065	0.45907	-0.05
Mof_C 	C 	0.23521	0.01877	0.35506	0.121
Mof_C 	C 	0.22192	0.07141	0.16122	0.198
Mof_C 	C 	0.36534	0.99317	0.43439	-0.007
Mof_C 	C 	0.93094	0.21547	0.18559	-0.095
Mof_C 	C 	0.2998	0.07782	0.05846	0.224
Mof_C 	C 	0.92448	0.10232	0.23549	-0.099
Mof_C 	C 	0.2491	0.1119	0.02107	-0.247
Mof_C 	C 	0.28289	0.01975	0.5286	0.351
Mof_C 	C 	0.2694	0.1242	0.9592	0.148
Mof_C 	C 	0.34219	0.10604	0.9332	-0.203
Mof_C 	C 	0.3938	0.0744	0.97158	0.148
Mof_C 	C 	0.3631	0.11628	0.86554	0.412
Mof_C 	C 	0.3726	0.0593	0.033	-0.25
Mof_C 	C 	0.85473	0.22302	0.21507	-0.053
Mof_C 	C 	0.84736	0.1094	0.26314	-0.043
Mof_C 	C 	0.7983	0.04826	0.29893	0.324
Mof_C 	C 	0.81409	0.17022	0.25368	-0.013
Mof_C 	C 	0.8171	0.28894	0.20363	0.366
Mof_C 	C 	0.37167	0.98408	0.37063	-0.064
Mof_C 	C 	0.45031	0.96336	0.34258	0.381
Mof_C 	C 	0.03381	0.3453	0.69743	0.126
Mof_C 	C 	0.77312	0.47697	0.9192	-0.097
Mof_C 	C 	0.83092	0.4413	0.75783	0.197
Mof_C 	C 	0.89551	0.38639	0.68447	0.197
Mof_C 	C 	0.694	0.50414	0.83067	-0.089
Mof_C 	C 	0.70881	0.48935	0.95907	-0.05
Mof_C 	C 	0.76479	0.48123	0.85506	0.12
Mof_C 	C 	0.77808	0.42859	0.66122	0.198
Mof_C 	C 	0.63466	0.50683	0.93439	-0.006
Mof_C 	C 	0.06906	0.28453	0.68559	-0.095
Mof_C 	C 	0.7002	0.42218	0.55846	0.225
Mof_C 	C 	0.07552	0.39768	0.73549	-0.1
Mof_C 	C 	0.7509	0.3881	0.52107	-0.25
Mof_C 	C 	0.71711	0.48025	0.0286	0.351
Mof_C 	C 	0.7306	0.3758	0.4592	0.151
Mof_C 	C 	0.65781	0.39396	0.4332	-0.204
Mof_C 	C 	0.6062	0.4256	0.47158	0.151
Mof_C 	C 	0.6369	0.38372	0.36554	0.413
Mof_C 	C 	0.6274	0.4407	0.533	-0.252
Mof_C 	C 	0.14527	0.27698	0.71507	-0.053
Mof_C 	C 	0.15264	0.3906	0.76314	-0.043
Mof_C 	C 	0.2017	0.45174	0.79893	0.324
Mof_C 	C 	0.18591	0.32978	0.75368	-0.013
Mof_C 	C 	0.1829	0.21106	0.70363	0.366
Mof_C 	C 	0.62833	0.51592	0.87063	-0.064
Mof_C 	C 	0.54969	0.53664	0.84258	0.382
Mof_C 	C 	0.03381	0.8453	0.80257	0.125
Mof_C 	C 	0.77312	0.97697	0.5808	-0.097
Mof_C 	C 	0.83092	0.9413	0.74217	0.197
Mof_C 	C 	0.89551	0.88639	0.81553	0.198
Mof_C 	C 	0.694	0.00414	0.66933	-0.089
Mof_C 	C 	0.70881	0.98935	0.54093	-0.05
Mof_C 	C 	0.76479	0.98123	0.64494	0.121
Mof_C 	C 	0.77808	0.92859	0.83878	0.198
Mof_C 	C 	0.63466	0.00683	0.56561	-0.007
Mof_C 	C 	0.06906	0.78453	0.81441	-0.095
Mof_C 	C 	0.7002	0.92218	0.94154	0.224
Mof_C 	C 	0.07552	0.89768	0.76451	-0.099
Mof_C 	C 	0.7509	0.8881	0.97893	-0.247
Mof_C 	C 	0.71711	0.98025	0.4714	0.351
Mof_C 	C 	0.7306	0.8758	0.0408	0.148
Mof_C 	C 	0.65781	0.89396	0.0668	-0.203
Mof_C 	C 	0.6062	0.9256	0.02842	0.148
Mof_C 	C 	0.6369	0.88372	0.13446	0.412
Mof_C 	C 	0.6274	0.9407	0.967	-0.25
Mof_C 	C 	0.14527	0.77698	0.78493	-0.053
Mof_C 	C 	0.15264	0.8906	0.73686	-0.043
Mof_C 	C 	0.2017	0.95174	0.70107	0.324
Mof_C 	C 	0.18591	0.82978	0.74632	-0.013
Mof_C 	C 	0.1829	0.71106	0.79637	0.366
Mof_C 	C 	0.62833	0.01592	0.62937	-0.064
Mof_C 	C 	0.54969	0.03664	0.65742	0.381
Mof_C 	C 	0.96619	0.6547	0.30257	0.126
Mof_C 	C 	0.22688	0.52303	0.0808	-0.097
Mof_C 	C 	0.16908	0.5587	0.24217	0.197
Mof_C 	C 	0.10449	0.61361	0.31553	0.197
Mof_C 	C 	0.306	0.49586	0.16933	-0.089
Mof_C 	C 	0.29119	0.51065	0.04093	-0.05
Mof_C 	C 	0.23521	0.51877	0.14494	0.12
Mof_C 	C 	0.22192	0.57141	0.33878	0.198
Mof_C 	C 	0.36534	0.49317	0.06561	-0.006
Mof_C 	C 	0.93094	0.71547	0.31441	-0.095
Mof_C 	C 	0.2998	0.57782	0.44154	0.225
Mof_C 	C 	0.92448	0.60232	0.26451	-0.1
Mof_C 	C 	0.2491	0.6119	0.47893	-0.25
Mof_C 	C 	0.28289	0.51975	0.9714	0.351
Mof_C 	C 	0.2694	0.6242	0.5408	0.151
Mof_C 	C 	0.34219	0.60604	0.5668	-0.204
Mof_C 	C 	0.3938	0.5744	0.52842	0.151
Mof_C 	C 	0.3631	0.61628	0.63446	0.412
Mof_C 	C 	0.3726	0.5593	0.467	-0.252
Mof_C 	C 	0.85473	0.72302	0.28493	-0.053
Mof_C 	C 	0.84736	0.6094	0.23686	-0.043
Mof_C 	C 	0.7983	0.54826	0.20107	0.324
Mof_C 	C 	0.81409	0.67022	0.24632	-0.013
Mof_C 	C 	0.8171	0.78894	0.29637	0.366
Mof_C 	C 	0.37167	0.48408	0.12937	-0.064
Mof_C 	C 	0.45031	0.46336	0.15742	0.382
Mof_N 	N 	0.22968	0.04607	0.21895	-0.181
Mof_N 	N 	0.16315	0.1076	0.14115	-0.18
Mof_N 	N 	0.10333	0.09085	0.24352	-0.176
Mof_N 	N 	0.17005	0.03819	0.31831	-0.236
Mof_N 	N 	0.04169	0.14798	0.16476	-0.236
Mof_N 	N 	0.28386	0.05884	0.12114	-0.254
Mof_N 	N 	0.77032	0.45393	0.71895	-0.181
Mof_N 	N 	0.83685	0.3924	0.64115	-0.18
Mof_N 	N 	0.89667	0.40915	0.74352	-0.176
Mof_N 	N 	0.82995	0.46181	0.81831	-0.236
Mof_N 	N 	0.95831	0.35202	0.66476	-0.236
Mof_N 	N 	0.71614	0.44116	0.62114	-0.255
Mof_N 	N 	0.77032	0.95393	0.78105	-0.181
Mof_N 	N 	0.83685	0.8924	0.85885	-0.18
Mof_N 	N 	0.89667	0.90915	0.75648	-0.176
Mof_N 	N 	0.82995	0.96181	0.68169	-0.236
Mof_N 	N 	0.95831	0.85202	0.83524	-0.236
Mof_N 	N 	0.71614	0.94116	0.87886	-0.254
Mof_N 	N 	0.22968	0.54607	0.28105	-0.181
Mof_N 	N 	0.16315	0.6076	0.35885	-0.18
Mof_N 	N 	0.10333	0.59085	0.25648	-0.176
Mof_N 	N 	0.17005	0.53819	0.18169	-0.236
Mof_N 	N 	0.04169	0.64798	0.33524	-0.236
Mof_N 	N 	0.28386	0.55884	0.37886	-0.255
Mof_O 	O 	0.34396	0.00677	0.56138	-0.391
Mof_O 	O 	0.21645	0.03892	0.54815	-0.422
Mof_O 	O 	0.3066	0.12967	0.82885	-0.422
Mof_O 	O 	0.43745	0.11054	0.85062	-0.467
Mof_O 	O 	0.73082	0.05865	0.32534	-0.381
Mof_O 	O 	0.82429	0.99021	0.2975	-0.407
Mof_O 	O 	0.75753	0.29789	0.23931	-0.414
Mof_O 	O 	0.84787	0.32863	0.16085	-0.429
Mof_O 	O 	0.69554	0.88508	0.35149	-0.522
Mof_O 	O 	0.61935	0.94951	0.26313	-0.533
Mof_O 	O 	0.51773	0.97962	0.37095	-0.41
Mof_O 	O 	0.43957	0.93004	0.29234	-0.464
Mof_O 	O 	0.65604	0.49323	0.06138	-0.391
Mof_O 	O 	0.78355	0.46108	0.04815	-0.422
Mof_O 	O 	0.6934	0.37033	0.32885	-0.422
Mof_O 	O 	0.56255	0.38946	0.35062	-0.467
Mof_O 	O 	0.26918	0.44135	0.82534	-0.382
Mof_O 	O 	0.17571	0.50979	0.7975	-0.407
Mof_O 	O 	0.24247	0.20211	0.73931	-0.414
Mof_O 	O 	0.15213	0.17137	0.66085	-0.429
Mof_O 	O 	0.30446	0.61492	0.85149	-0.522
Mof_O 	O 	0.38065	0.55049	0.76313	-0.533
Mof_O 	O 	0.48227	0.52038	0.87095	-0.41
Mof_O 	O 	0.56043	0.56996	0.79234	-0.464
Mof_O 	O 	0.65604	0.99323	0.43862	-0.391
Mof_O 	O 	0.78355	0.96108	0.45185	-0.422
Mof_O 	O 	0.6934	0.87033	0.17115	-0.422
Mof_O 	O 	0.56255	0.88946	0.14938	-0.467
Mof_O 	O 	0.26918	0.94135	0.67466	-0.381
Mof_O 	O 	0.17571	0.00979	0.7025	-0.407
Mof_O 	O 	0.24247	0.70211	0.76069	-0.414
Mof_O 	O 	0.15213	0.67137	0.83915	-0.429
Mof_O 	O 	0.30446	0.11492	0.64851	-0.522
Mof_O 	O 	0.38065	0.05049	0.73687	-0.533
Mof_O 	O 	0.48227	0.02038	0.62905	-0.41
Mof_O 	O 	0.56043	0.06996	0.70766	-0.464
Mof_O 	O 	0.34396	0.50677	0.93862	-0.391
Mof_O 	O 	0.21645	0.53892	0.95185	-0.422
Mof_O 	O 	0.3066	0.62967	0.67115	-0.422
Mof_O 	O 	0.43745	0.61054	0.64938	-0.467
Mof_O 	O 	0.73082	0.55865	0.17466	-0.382
Mof_O 	O 	0.82429	0.49021	0.2025	-0.407
Mof_O 	O 	0.75753	0.79789	0.26069	-0.414
Mof_O 	O 	0.84787	0.82863	0.33915	-0.429
Mof_O 	O 	0.69554	0.38508	0.14851	-0.522
Mof_O 	O 	0.61935	0.44951	0.23687	-0.533
Mof_O 	O 	0.51773	0.47962	0.12905	-0.41
Mof_O 	O 	0.43957	0.43004	0.20766	-0.464
_end
