data_functionalizedCrystal
_audit_creation_method	'EQeq! by Chris Wilmer'
_symmetry_space_group_name_H-M	'P1'
_symmetry_Int_Tables_number	1
_symmetry_cell_setting	triclinic
loop_
_symmetry_equiv_pos_as_xyz
  x,y,z
_cell_length_a	15.5285
_cell_length_b	15.5285
_cell_length_c	15.5285
_cell_angle_alpha	60
_cell_angle_beta	60
_cell_angle_gamma	60
loop_
_atom_site_label
_atom_site_type_symbol
_atom_site_fract_x
_atom_site_fract_y
_atom_site_fract_z
_atom_site_charge
Mof_Th	Th	0.87144	0.87144	0.12856	0.045
Mof_Th	Th	0.12856	0.87144	0.12856	0.031
Mof_Th	Th	0.12856	0.12856	0.87144	0.031
Mof_Th	Th	0.12856	0.87144	0.87144	0.045
Mof_Th	Th	0.87144	0.12856	0.12856	0.031
Mof_Th	Th	0.87144	0.12856	0.87144	0.045
Mof_H 	H 	0.575	0.425	0.1274	0.068
Mof_H 	H 	0.575	0.8726	0.425	0.063
Mof_H 	H 	0.8726	0.425	0.575	0.063
Mof_H 	H 	0.1274	0.8726	0.575	0.06
Mof_H 	H 	0.8726	0.425	0.1274	0.059
Mof_H 	H 	0.8726	0.575	0.1274	0.06
Mof_H 	H 	0.575	0.425	0.8726	0.063
Mof_H 	H 	0.575	0.1274	0.425	0.068
Mof_H 	H 	0.425	0.8726	0.1274	0.059
Mof_H 	H 	0.425	0.575	0.1274	0.068
Mof_H 	H 	0.8726	0.1274	0.425	0.059
Mof_H 	H 	0.425	0.575	0.8726	0.063
Mof_H 	H 	0.1274	0.8726	0.425	0.059
Mof_H 	H 	0.8726	0.575	0.425	0.063
Mof_H 	H 	0.1274	0.575	0.425	0.068
Mof_H 	H 	0.1274	0.425	0.575	0.068
Mof_H 	H 	0.425	0.1274	0.575	0.068
Mof_H 	H 	0.8726	0.1274	0.575	0.06
Mof_H 	H 	0.575	0.1274	0.8726	0.06
Mof_H 	H 	0.575	0.8726	0.1274	0.06
Mof_H 	H 	0.1274	0.575	0.8726	0.06
Mof_H 	H 	0.425	0.8726	0.575	0.063
Mof_H 	H 	0.425	0.1274	0.8726	0.059
Mof_H 	H 	0.1274	0.425	0.8726	0.059
Mof_C 	C 	-0	0	0.41	-0.102
Mof_C 	C 	0.0753	0.9247	0.5453	0.019
Mof_C 	C 	0.0753	0.5453	0.4547	-0.022
Mof_C 	C 	1.07344e-17	0	0.3138	0.187
Mof_C 	C 	0.9247	0.5453	0.0753	0.019
Mof_C 	C 	0.5453	0.4547	0.9247	0.016
Mof_C 	C 	0.4547	0.5453	0.9247	0.016
Mof_C 	C 	0.4547	0.0753	0.9247	0.02
Mof_C 	C 	0.6862	0.3138	-0	0.227
Mof_C 	C 	0.0753	0.4547	0.5453	-0.022
Mof_C 	C 	0.59	0.41	-0	-0.062
Mof_C 	C 	0.5453	0.0753	0.4547	-0.022
Mof_C 	C 	0.9247	0.5453	0.4547	0.016
Mof_C 	C 	0.9247	0.4547	0.0753	0.02
Mof_C 	C 	5.36719e-17	0.6862	0.3138	0.227
Mof_C 	C 	0.3138	0.6862	-0	0.227
Mof_C 	C 	0.59	0	-0	-0.1
Mof_C 	C 	0.4547	0.9247	0.0753	0.02
Mof_C 	C 	0.59	0	0.41	-0.062
Mof_C 	C 	-0	0.59	0.41	-0.062
Mof_C 	C 	0.4547	0.9247	0.5453	0.016
Mof_C 	C 	0.5453	0.0753	0.9247	0.019
Mof_C 	C 	0.41	0	-0	-0.102
Mof_C 	C 	2.14687e-17	0.41	0.59	-0.062
Mof_C 	C 	-0	0.6862	-0	0.189
Mof_C 	C 	-4.29375e-17	0.41	-0	-0.102
Mof_C 	C 	0.0753	0.9247	0.4547	0.02
Mof_C 	C 	0.9247	0.4547	0.5453	0.016
Mof_C 	C 	0.3138	0	0.6862	0.227
Mof_C 	C 	0.5453	0.4547	0.0753	-0.022
Mof_C 	C 	0.9247	0.0753	0.4547	0.02
Mof_C 	C 	-0	0.3138	0.6862	0.227
Mof_C 	C 	0.41	0.59	-0	-0.062
Mof_C 	C 	0.5453	0.9247	0.0753	0.019
Mof_C 	C 	0.0753	0.5453	0.9247	0.019
Mof_C 	C 	-0	0	0.6862	0.189
Mof_C 	C 	0.5453	0.9247	0.4547	0.016
Mof_C 	C 	0.3138	0	-0	0.187
Mof_C 	C 	-2.14687e-17	-4.29375e-17	0.59	-0.1
Mof_C 	C 	0.4547	0.5453	0.0753	-0.022
Mof_C 	C 	-0	0.3138	-0	0.187
Mof_C 	C 	0.9247	0.0753	0.5453	0.019
Mof_C 	C 	0.6862	0	-0	0.189
Mof_C 	C 	0.41	-4.29375e-17	0.59	-0.062
Mof_C 	C 	0.0753	0.4547	0.9247	0.02
Mof_C 	C 	0.6862	0	0.3138	0.227
Mof_C 	C 	-4.29375e-17	0.59	-0	-0.1
Mof_C 	C 	0.4547	0.0753	0.5453	-0.022
Mof_O 	O 	0.8146	0.0618	0.0618	-0.059
Mof_O 	O 	0.7236	0.9272	0.0728	-0.126
Mof_O 	O 	0.7236	0.2764	0.9272	-0.129
Mof_O 	O 	0.9382	0.9382	0.9382	0.036
Mof_O 	O 	0.0728	0.9272	0.7236	-0.126
Mof_O 	O 	0.2764	0.7236	0.9272	-0.129
Mof_O 	O 	0.2764	0.9272	0.0728	-0.127
Mof_O 	O 	0.0618	0.8146	0.0618	-0.059
Mof_O 	O 	0.9272	0.2764	0.0728	-0.127
Mof_O 	O 	0.0728	0.2764	0.7236	-0.163
Mof_O 	O 	0.1854	0.9382	0.9382	0.018
Mof_O 	O 	0.7236	0.0728	0.9272	-0.126
Mof_O 	O 	0.7236	0.0728	0.2764	-0.163
Mof_O 	O 	0.0618	0.0618	0.0618	-0.081
Mof_O 	O 	0.2764	0.0728	0.7236	-0.163
Mof_O 	O 	0.0728	0.9272	0.2764	-0.127
Mof_O 	O 	0.9382	0.9382	0.1854	0.018
Mof_O 	O 	0.9272	0.7236	0.2764	-0.129
Mof_O 	O 	0.0618	0.0618	0.8146	-0.059
Mof_O 	O 	0.9272	0.0728	0.7236	-0.126
Mof_O 	O 	0.7236	0.2764	0.0728	-0.163
Mof_O 	O 	0.0728	0.2764	0.9272	-0.127
Mof_O 	O 	0.2764	0.0728	0.9272	-0.127
Mof_O 	O 	0.9272	0.7236	0.0728	-0.126
Mof_O 	O 	0.9272	0.2764	0.7236	-0.129
Mof_O 	O 	0.9382	0.1854	0.9382	0.018
Mof_O 	O 	0.9272	0.0728	0.2764	-0.127
Mof_O 	O 	0.2764	0.9272	0.7236	-0.129
Mof_O 	O 	0.2764	0.7236	0.0728	-0.163
Mof_O 	O 	0.7236	0.9272	0.2764	-0.129
Mof_O 	O 	0.0728	0.7236	0.2764	-0.163
Mof_O 	O 	0.0728	0.7236	0.9272	-0.126
_end
