data_functionalizedCrystal
_audit_creation_method	'EQeq! by Chris Wilmer'
_symmetry_space_group_name_H-M	'P1'
_symmetry_Int_Tables_number	1
_symmetry_cell_setting	triclinic
loop_
_symmetry_equiv_pos_as_xyz
  x,y,z
_cell_length_a	18.9056
_cell_length_b	18.9056
_cell_length_c	18.9056
_cell_angle_alpha	90
_cell_angle_beta	90
_cell_angle_gamma	90
loop_
_atom_site_label
_atom_site_type_symbol
_atom_site_fract_x
_atom_site_fract_y
_atom_site_fract_z
_atom_site_charge
Mof_P 	P 	0.07081	0.55166	0.66723	1.541
Mof_Al	Al	0.95436	0.43172	0.66597	5.176
Mof_O 	O 	0.9997	0.5143	0.6602	-1.717
Mof_O 	O 	0.0644	0.6211	0.6295	-1.605
Mof_O 	O 	0.0866	0.5665	0.7445	-1.609
Mof_O 	O 	0.1294	0.5079	0.6367	-1.751
Mof_P 	P 	0.42919	0.94834	0.66723	1.555
Mof_Al	Al	0.54564	0.06828	0.66597	5.132
Mof_O 	O 	0.5003	0.9857	0.6602	-1.715
Mof_O 	O 	0.4356	0.8789	0.6295	-1.612
Mof_O 	O 	0.4134	0.9335	0.7445	-1.63
Mof_O 	O 	0.3706	0.9921	0.6367	-1.755
Mof_P 	P 	0.42919	0.55166	0.83277	1.554
Mof_Al	Al	0.54564	0.43172	0.83403	5.174
Mof_O 	O 	0.5003	0.5143	0.8398	-1.73
Mof_O 	O 	0.4356	0.6211	0.8705	-1.612
Mof_O 	O 	0.4134	0.5665	0.7555	-1.629
Mof_O 	O 	0.3706	0.5079	0.8633	-1.746
Mof_P 	P 	0.07081	0.94834	0.83277	1.468
Mof_Al	Al	0.95436	0.06828	0.83403	4.95
Mof_O 	O 	0.9997	0.9857	0.8398	-1.601
Mof_O 	O 	0.0644	0.8789	0.8705	-1.563
Mof_O 	O 	0.0866	0.9335	0.7555	-1.579
Mof_O 	O 	0.1294	0.9921	0.8633	-1.691
Mof_P 	P 	0.66723	0.07081	0.55166	1.54
Mof_Al	Al	0.66597	0.95436	0.43172	5.175
Mof_O 	O 	0.6602	0.9997	0.5143	-1.718
Mof_O 	O 	0.6295	0.0644	0.6211	-1.606
Mof_O 	O 	0.7445	0.0866	0.5665	-1.61
Mof_O 	O 	0.6367	0.1294	0.5079	-1.752
Mof_P 	P 	0.66723	0.42919	0.94834	1.555
Mof_Al	Al	0.66597	0.54564	0.06828	5.132
Mof_O 	O 	0.6602	0.5003	0.9857	-1.715
Mof_O 	O 	0.6295	0.4356	0.8789	-1.612
Mof_O 	O 	0.7445	0.4134	0.9335	-1.63
Mof_O 	O 	0.6367	0.3706	0.9921	-1.755
Mof_P 	P 	0.83277	0.42919	0.55166	1.554
Mof_Al	Al	0.83403	0.54564	0.43172	5.174
Mof_O 	O 	0.8398	0.5003	0.5143	-1.73
Mof_O 	O 	0.8705	0.4356	0.6211	-1.612
Mof_O 	O 	0.7555	0.4134	0.5665	-1.629
Mof_O 	O 	0.8633	0.3706	0.5079	-1.746
Mof_P 	P 	0.83277	0.07081	0.94834	1.468
Mof_Al	Al	0.83403	0.95436	0.06828	4.95
Mof_O 	O 	0.8398	0.9997	0.9857	-1.601
Mof_O 	O 	0.8705	0.0644	0.8789	-1.563
Mof_O 	O 	0.7555	0.0866	0.9335	-1.579
Mof_O 	O 	0.8633	0.1294	0.9921	-1.691
Mof_P 	P 	0.55166	0.66723	0.07081	1.54
Mof_Al	Al	0.43172	0.66597	0.95436	5.175
Mof_O 	O 	0.5143	0.6602	0.9997	-1.718
Mof_O 	O 	0.6211	0.6295	0.0644	-1.606
Mof_O 	O 	0.5665	0.7445	0.0866	-1.61
Mof_O 	O 	0.5079	0.6367	0.1294	-1.752
Mof_P 	P 	0.94834	0.66723	0.42919	1.555
Mof_Al	Al	0.06828	0.66597	0.54564	5.132
Mof_O 	O 	0.9857	0.6602	0.5003	-1.715
Mof_O 	O 	0.8789	0.6295	0.4356	-1.612
Mof_O 	O 	0.9335	0.7445	0.4134	-1.63
Mof_O 	O 	0.9921	0.6367	0.3706	-1.755
Mof_P 	P 	0.55166	0.83277	0.42919	1.554
Mof_Al	Al	0.43172	0.83403	0.54564	5.174
Mof_O 	O 	0.5143	0.8398	0.5003	-1.73
Mof_O 	O 	0.6211	0.8705	0.4356	-1.612
Mof_O 	O 	0.5665	0.7555	0.4134	-1.629
Mof_O 	O 	0.5079	0.8633	0.3706	-1.746
Mof_P 	P 	0.94834	0.83277	0.07081	1.468
Mof_Al	Al	0.06828	0.83403	0.95436	4.95
Mof_O 	O 	0.9857	0.8398	0.9997	-1.601
Mof_O 	O 	0.8789	0.8705	0.0644	-1.563
Mof_O 	O 	0.9335	0.7555	0.0866	-1.579
Mof_O 	O 	0.9921	0.8633	0.1294	-1.691
Mof_P 	P 	0.55166	0.07081	0.83277	1.521
Mof_Al	Al	0.43172	0.95436	0.83403	5.202
Mof_O 	O 	0.5143	0.9997	0.8398	-1.708
Mof_O 	O 	0.6211	0.0644	0.8705	-1.575
Mof_O 	O 	0.5665	0.0866	0.7555	-1.618
Mof_O 	O 	0.5079	0.1294	0.8633	-1.731
Mof_P 	P 	0.94834	0.42919	0.83277	1.541
Mof_Al	Al	0.06828	0.54564	0.83403	5.079
Mof_O 	O 	0.9857	0.5003	0.8398	-1.692
Mof_O 	O 	0.8789	0.4356	0.8705	-1.61
Mof_O 	O 	0.9335	0.4134	0.7555	-1.623
Mof_O 	O 	0.9921	0.3706	0.8633	-1.698
Mof_P 	P 	0.55166	0.42919	0.66723	1.556
Mof_Al	Al	0.43172	0.54564	0.66597	5.179
Mof_O 	O 	0.5143	0.5003	0.6602	-1.732
Mof_O 	O 	0.6211	0.4356	0.6295	-1.614
Mof_O 	O 	0.5665	0.4134	0.7445	-1.628
Mof_O 	O 	0.5079	0.3706	0.6367	-1.755
Mof_P 	P 	0.94834	0.07081	0.66723	1.498
Mof_Al	Al	0.06828	0.95436	0.66597	4.969
Mof_O 	O 	0.9857	0.9997	0.6602	-1.631
Mof_O 	O 	0.8789	0.0644	0.6295	-1.594
Mof_O 	O 	0.9335	0.0866	0.7445	-1.578
Mof_O 	O 	0.9921	0.1294	0.6367	-1.758
Mof_P 	P 	0.07081	0.66723	0.94834	1.498
Mof_Al	Al	0.95436	0.66597	0.06828	4.969
Mof_O 	O 	0.9997	0.6602	0.9857	-1.631
Mof_O 	O 	0.0644	0.6295	0.8789	-1.594
Mof_O 	O 	0.0866	0.7445	0.9335	-1.578
Mof_O 	O 	0.1294	0.6367	0.9921	-1.758
Mof_P 	P 	0.42919	0.66723	0.55166	1.556
Mof_Al	Al	0.54564	0.66597	0.43172	5.179
Mof_O 	O 	0.5003	0.6602	0.5143	-1.732
Mof_O 	O 	0.4356	0.6295	0.6211	-1.614
Mof_O 	O 	0.4134	0.7445	0.5665	-1.628
Mof_O 	O 	0.3706	0.6367	0.5079	-1.755
Mof_P 	P 	0.42919	0.83277	0.94834	1.541
Mof_Al	Al	0.54564	0.83403	0.06828	5.079
Mof_O 	O 	0.5003	0.8398	0.9857	-1.692
Mof_O 	O 	0.4356	0.8705	0.8789	-1.61
Mof_O 	O 	0.4134	0.7555	0.9335	-1.623
Mof_O 	O 	0.3706	0.8633	0.9921	-1.698
Mof_P 	P 	0.07081	0.83277	0.55166	1.521
Mof_Al	Al	0.95436	0.83403	0.43172	5.202
Mof_O 	O 	0.9997	0.8398	0.5143	-1.708
Mof_O 	O 	0.0644	0.8705	0.6211	-1.575
Mof_O 	O 	0.0866	0.7555	0.5665	-1.618
Mof_O 	O 	0.1294	0.8633	0.5079	-1.731
Mof_P 	P 	0.66723	0.55166	0.42919	1.556
Mof_Al	Al	0.66597	0.43172	0.54564	5.179
Mof_O 	O 	0.6602	0.5143	0.5003	-1.732
Mof_O 	O 	0.6295	0.6211	0.4356	-1.614
Mof_O 	O 	0.7445	0.5665	0.4134	-1.628
Mof_O 	O 	0.6367	0.5079	0.3706	-1.755
Mof_P 	P 	0.66723	0.94834	0.07081	1.498
Mof_Al	Al	0.66597	0.06828	0.95436	4.969
Mof_O 	O 	0.6602	0.9857	0.9997	-1.631
Mof_O 	O 	0.6295	0.8789	0.0644	-1.594
Mof_O 	O 	0.7445	0.9335	0.0866	-1.578
Mof_O 	O 	0.6367	0.9921	0.1294	-1.758
Mof_P 	P 	0.83277	0.55166	0.07081	1.521
Mof_Al	Al	0.83403	0.43172	0.95436	5.202
Mof_O 	O 	0.8398	0.5143	0.9997	-1.708
Mof_O 	O 	0.8705	0.6211	0.0644	-1.575
Mof_O 	O 	0.7555	0.5665	0.0866	-1.618
Mof_O 	O 	0.8633	0.5079	0.1294	-1.731
Mof_P 	P 	0.83277	0.94834	0.42919	1.541
Mof_Al	Al	0.83403	0.06828	0.54564	5.079
Mof_O 	O 	0.8398	0.9857	0.5003	-1.692
Mof_O 	O 	0.8705	0.8789	0.4356	-1.61
Mof_O 	O 	0.7555	0.9335	0.4134	-1.623
Mof_O 	O 	0.8633	0.9921	0.3706	-1.698
Mof_P 	P 	0.92919	0.44834	0.33277	1.54
Mof_Al	Al	0.04564	0.56828	0.33403	5.175
Mof_O 	O 	0.0003	0.4857	0.3398	-1.718
Mof_O 	O 	0.9356	0.3789	0.3705	-1.606
Mof_O 	O 	0.9134	0.4335	0.2555	-1.61
Mof_O 	O 	0.8706	0.4921	0.3633	-1.752
Mof_P 	P 	0.57081	0.05166	0.33277	1.555
Mof_Al	Al	0.45436	0.93172	0.33403	5.132
Mof_O 	O 	0.4997	0.0143	0.3398	-1.715
Mof_O 	O 	0.5644	0.1211	0.3705	-1.612
Mof_O 	O 	0.5866	0.0665	0.2555	-1.63
Mof_O 	O 	0.6294	0.0079	0.3633	-1.755
Mof_P 	P 	0.57081	0.44834	0.16723	1.554
Mof_Al	Al	0.45436	0.56828	0.16597	5.174
Mof_O 	O 	0.4997	0.4857	0.1602	-1.73
Mof_O 	O 	0.5644	0.3789	0.1295	-1.612
Mof_O 	O 	0.5866	0.4335	0.2445	-1.629
Mof_O 	O 	0.6294	0.4921	0.1367	-1.746
Mof_P 	P 	0.92919	0.05166	0.16723	1.468
Mof_Al	Al	0.04564	0.93172	0.16597	4.95
Mof_O 	O 	0.0003	0.0143	0.1602	-1.601
Mof_O 	O 	0.9356	0.1211	0.1295	-1.563
Mof_O 	O 	0.9134	0.0665	0.2445	-1.579
Mof_O 	O 	0.8706	0.0079	0.1367	-1.691
Mof_P 	P 	0.33277	0.92919	0.44834	1.54
Mof_Al	Al	0.33403	0.04564	0.56828	5.175
Mof_O 	O 	0.3398	0.0003	0.4857	-1.718
Mof_O 	O 	0.3705	0.9356	0.3789	-1.606
Mof_O 	O 	0.2555	0.9134	0.4335	-1.61
Mof_O 	O 	0.3633	0.8706	0.4921	-1.752
Mof_P 	P 	0.33277	0.57081	0.05166	1.555
Mof_Al	Al	0.33403	0.45436	0.93172	5.132
Mof_O 	O 	0.3398	0.4997	0.0143	-1.715
Mof_O 	O 	0.3705	0.5644	0.1211	-1.612
Mof_O 	O 	0.2555	0.5866	0.0665	-1.63
Mof_O 	O 	0.3633	0.6294	0.0079	-1.755
Mof_P 	P 	0.16723	0.57081	0.44834	1.554
Mof_Al	Al	0.16597	0.45436	0.56828	5.174
Mof_O 	O 	0.1602	0.4997	0.4857	-1.73
Mof_O 	O 	0.1295	0.5644	0.3789	-1.612
Mof_O 	O 	0.2445	0.5866	0.4335	-1.629
Mof_O 	O 	0.1367	0.6294	0.4921	-1.746
Mof_P 	P 	0.16723	0.92919	0.05166	1.468
Mof_Al	Al	0.16597	0.04564	0.93172	4.95
Mof_O 	O 	0.1602	0.0003	0.0143	-1.601
Mof_O 	O 	0.1295	0.9356	0.1211	-1.563
Mof_O 	O 	0.2445	0.9134	0.0665	-1.579
Mof_O 	O 	0.1367	0.8706	0.0079	-1.691
Mof_P 	P 	0.44834	0.33277	0.92919	1.54
Mof_Al	Al	0.56828	0.33403	0.04564	5.175
Mof_O 	O 	0.4857	0.3398	0.0003	-1.718
Mof_O 	O 	0.3789	0.3705	0.9356	-1.606
Mof_O 	O 	0.4335	0.2555	0.9134	-1.61
Mof_O 	O 	0.4921	0.3633	0.8706	-1.752
Mof_P 	P 	0.05166	0.33277	0.57081	1.555
Mof_Al	Al	0.93172	0.33403	0.45436	5.132
Mof_O 	O 	0.0143	0.3398	0.4997	-1.715
Mof_O 	O 	0.1211	0.3705	0.5644	-1.612
Mof_O 	O 	0.0665	0.2555	0.5866	-1.63
Mof_O 	O 	0.0079	0.3633	0.6294	-1.755
Mof_P 	P 	0.44834	0.16723	0.57081	1.554
Mof_Al	Al	0.56828	0.16597	0.45436	5.174
Mof_O 	O 	0.4857	0.1602	0.4997	-1.73
Mof_O 	O 	0.3789	0.1295	0.5644	-1.612
Mof_O 	O 	0.4335	0.2445	0.5866	-1.629
Mof_O 	O 	0.4921	0.1367	0.6294	-1.746
Mof_P 	P 	0.05166	0.16723	0.92919	1.468
Mof_Al	Al	0.93172	0.16597	0.04564	4.95
Mof_O 	O 	0.0143	0.1602	0.0003	-1.601
Mof_O 	O 	0.1211	0.1295	0.9356	-1.563
Mof_O 	O 	0.0665	0.2445	0.9134	-1.579
Mof_O 	O 	0.0079	0.1367	0.8706	-1.691
Mof_P 	P 	0.44834	0.92919	0.16723	1.521
Mof_Al	Al	0.56828	0.04564	0.16597	5.202
Mof_O 	O 	0.4857	0.0003	0.1602	-1.708
Mof_O 	O 	0.3789	0.9356	0.1295	-1.575
Mof_O 	O 	0.4335	0.9134	0.2445	-1.618
Mof_O 	O 	0.4921	0.8706	0.1367	-1.731
Mof_P 	P 	0.05166	0.57081	0.16723	1.541
Mof_Al	Al	0.93172	0.45436	0.16597	5.079
Mof_O 	O 	0.0143	0.4997	0.1602	-1.692
Mof_O 	O 	0.1211	0.5644	0.1295	-1.61
Mof_O 	O 	0.0665	0.5866	0.2445	-1.623
Mof_O 	O 	0.0079	0.6294	0.1367	-1.698
Mof_P 	P 	0.44834	0.57081	0.33277	1.556
Mof_Al	Al	0.56828	0.45436	0.33403	5.179
Mof_O 	O 	0.4857	0.4997	0.3398	-1.732
Mof_O 	O 	0.3789	0.5644	0.3705	-1.614
Mof_O 	O 	0.4335	0.5866	0.2555	-1.628
Mof_O 	O 	0.4921	0.6294	0.3633	-1.755
Mof_P 	P 	0.05166	0.92919	0.33277	1.498
Mof_Al	Al	0.93172	0.04564	0.33403	4.969
Mof_O 	O 	0.0143	0.0003	0.3398	-1.631
Mof_O 	O 	0.1211	0.9356	0.3705	-1.594
Mof_O 	O 	0.0665	0.9134	0.2555	-1.578
Mof_O 	O 	0.0079	0.8706	0.3633	-1.758
Mof_P 	P 	0.92919	0.33277	0.05166	1.498
Mof_Al	Al	0.04564	0.33403	0.93172	4.969
Mof_O 	O 	0.0003	0.3398	0.0143	-1.631
Mof_O 	O 	0.9356	0.3705	0.1211	-1.594
Mof_O 	O 	0.9134	0.2555	0.0665	-1.578
Mof_O 	O 	0.8706	0.3633	0.0079	-1.758
Mof_P 	P 	0.57081	0.33277	0.44834	1.556
Mof_Al	Al	0.45436	0.33403	0.56828	5.179
Mof_O 	O 	0.4997	0.3398	0.4857	-1.732
Mof_O 	O 	0.5644	0.3705	0.3789	-1.614
Mof_O 	O 	0.5866	0.2555	0.4335	-1.628
Mof_O 	O 	0.6294	0.3633	0.4921	-1.755
Mof_P 	P 	0.57081	0.16723	0.05166	1.541
Mof_Al	Al	0.45436	0.16597	0.93172	5.079
Mof_O 	O 	0.4997	0.1602	0.0143	-1.692
Mof_O 	O 	0.5644	0.1295	0.1211	-1.61
Mof_O 	O 	0.5866	0.2445	0.0665	-1.623
Mof_O 	O 	0.6294	0.1367	0.0079	-1.698
Mof_P 	P 	0.92919	0.16723	0.44834	1.521
Mof_Al	Al	0.04564	0.16597	0.56828	5.202
Mof_O 	O 	0.0003	0.1602	0.4857	-1.708
Mof_O 	O 	0.9356	0.1295	0.3789	-1.575
Mof_O 	O 	0.9134	0.2445	0.4335	-1.618
Mof_O 	O 	0.8706	0.1367	0.4921	-1.731
Mof_P 	P 	0.33277	0.44834	0.57081	1.556
Mof_Al	Al	0.33403	0.56828	0.45436	5.179
Mof_O 	O 	0.3398	0.4857	0.4997	-1.732
Mof_O 	O 	0.3705	0.3789	0.5644	-1.614
Mof_O 	O 	0.2555	0.4335	0.5866	-1.628
Mof_O 	O 	0.3633	0.4921	0.6294	-1.755
Mof_P 	P 	0.33277	0.05166	0.92919	1.498
Mof_Al	Al	0.33403	0.93172	0.04564	4.969
Mof_O 	O 	0.3398	0.0143	0.0003	-1.631
Mof_O 	O 	0.3705	0.1211	0.9356	-1.594
Mof_O 	O 	0.2555	0.0665	0.9134	-1.578
Mof_O 	O 	0.3633	0.0079	0.8706	-1.758
Mof_P 	P 	0.16723	0.44834	0.92919	1.521
Mof_Al	Al	0.16597	0.56828	0.04564	5.202
Mof_O 	O 	0.1602	0.4857	0.0003	-1.708
Mof_O 	O 	0.1295	0.3789	0.9356	-1.575
Mof_O 	O 	0.2445	0.4335	0.9134	-1.618
Mof_O 	O 	0.1367	0.4921	0.8706	-1.731
Mof_P 	P 	0.16723	0.05166	0.57081	1.541
Mof_Al	Al	0.16597	0.93172	0.45436	5.079
Mof_O 	O 	0.1602	0.0143	0.4997	-1.692
Mof_O 	O 	0.1295	0.1211	0.5644	-1.61
Mof_O 	O 	0.2445	0.0665	0.5866	-1.623
Mof_O 	O 	0.1367	0.0079	0.6294	-1.698
_end
