data_functionalizedCrystal
_audit_creation_method	'EQeq! by Chris Wilmer'
_symmetry_space_group_name_H-M	'P1'
_symmetry_Int_Tables_number	1
_symmetry_cell_setting	triclinic
loop_
_symmetry_equiv_pos_as_xyz
  x,y,z
_cell_length_a	16.3307
_cell_length_b	29.0681
_cell_length_c	9.2803
_cell_angle_alpha	90
_cell_angle_beta	96.324
_cell_angle_gamma	90
loop_
_atom_site_label
_atom_site_type_symbol
_atom_site_fract_x
_atom_site_fract_y
_atom_site_fract_z
_atom_site_charge
Mof_Zn	Zn	0.99208	0.23065	0.57077	1.234
Mof_C 	C 	0.0308	0.38894	0.639	0.014
Mof_O 	O 	0.01239	0.29361	0.6341	-0.51
Mof_O 	O 	0.61488	0.7096	0.8808	-0.485
Mof_C 	C 	0.9265	0.53637	0.7569	0.124
Mof_O 	O 	0.57748	0.68845	0.6518	-0.493
Mof_C 	C 	0.6268	0.68867	0.7657	0.412
Mof_C 	C 	0.9264	0.58439	0.7565	-0.105
Mof_C 	C 	0.8481	0.61032	0.7612	0.129
Mof_C 	C 	0.0309	0.43626	0.6394	-0.058
Mof_C 	C 	0.7035	0.66102	0.766	-0.155
Mof_C 	C 	0.7828	0.60432	0.6553	-0.122
Mof_C 	C 	0.7121	0.63026	0.6556	0.07
Mof_C 	C 	0.7676	0.66606	0.8749	0.088
Mof_H 	H 	0.7624	0.6864	0.9507	0.015
Mof_C 	C 	0.8391	0.64119	0.8722	-0.176
Mof_H 	H 	0.8819	0.6451	0.9458	0.103
Mof_C 	C 	0.1136	0.2232	0.2032	-0.554
Mof_C 	C 	0.1411	0.1893	0.273	0.372
Mof_C 	C 	0.1111	0.2255	0.345	-0.704
Mof_H 	H 	0.051	0.3753	0.566	0.038
Mof_H 	H 	0.667	0.6233	0.589	0.023
Mof_H 	H 	0.789	0.576	0.581	0.072
Mof_H 	H 	0.055	0.457	0.535	0.049
Mof_N 	N 	0.0264	0.2283	0.3718	-0.169
Mof_N 	N 	0.9633	0.22867	0.3609	-0.167
Mof_C 	C 	0.1001	0.2444	0.2778	0.923
Mof_N 	N 	0.8523	0.5137	0.7648	-0.113
Mof_Zn	Zn	0.49208	0.73065	0.57077	1.23
Mof_C 	C 	0.5308	0.88894	0.639	0.013
Mof_O 	O 	0.51239	0.79361	0.6341	-0.508
Mof_O 	O 	0.11488	0.2096	0.8808	-0.489
Mof_C 	C 	0.4265	0.03637	0.7569	0.112
Mof_O 	O 	0.07748	0.18845	0.6518	-0.499
Mof_C 	C 	0.1268	0.18867	0.7657	0.413
Mof_C 	C 	0.4264	0.08439	0.7565	-0.122
Mof_C 	C 	0.3481	0.11032	0.7612	0.132
Mof_C 	C 	0.5309	0.93626	0.6394	-0.056
Mof_C 	C 	0.2035	0.16102	0.766	-0.159
Mof_C 	C 	0.2828	0.10432	0.6553	-0.126
Mof_C 	C 	0.2121	0.13026	0.6556	0.072
Mof_C 	C 	0.2676	0.16606	0.8749	0.088
Mof_H 	H 	0.2624	0.1864	0.9507	0.013
Mof_C 	C 	0.3391	0.14119	0.8722	-0.181
Mof_H 	H 	0.3819	0.1451	0.9458	0.099
Mof_C 	C 	0.6136	0.7232	0.2032	-0.544
Mof_C 	C 	0.6411	0.6893	0.273	0.368
Mof_C 	C 	0.6111	0.7255	0.345	-0.69
Mof_H 	H 	0.551	0.8753	0.566	0.04
Mof_H 	H 	0.167	0.1233	0.589	0.021
Mof_H 	H 	0.289	0.076	0.581	0.072
Mof_H 	H 	0.555	0.957	0.535	0.05
Mof_N 	N 	0.5264	0.7283	0.3718	-0.163
Mof_N 	N 	0.4633	0.72867	0.3609	-0.17
Mof_C 	C 	0.6001	0.7444	0.2778	0.904
Mof_N 	N 	0.3523	0.0137	0.7648	-0.114
Mof_Zn	Zn	0.00792	0.23065	0.92923	1.223
Mof_C 	C 	0.9692	0.38894	0.861	0.033
Mof_O 	O 	0.98761	0.29361	0.8659	-0.489
Mof_O 	O 	0.38512	0.7096	0.6192	-0.485
Mof_C 	C 	0.0735	0.53637	0.7431	0.111
Mof_O 	O 	0.42252	0.68845	0.8482	-0.493
Mof_C 	C 	0.3732	0.68867	0.7343	0.411
Mof_C 	C 	0.0736	0.58439	0.7435	-0.118
Mof_C 	C 	0.1519	0.61032	0.7388	0.128
Mof_C 	C 	0.9691	0.43626	0.8606	-0.044
Mof_C 	C 	0.2965	0.66102	0.734	-0.155
Mof_C 	C 	0.2172	0.60432	0.8447	-0.123
Mof_C 	C 	0.2879	0.63026	0.8444	0.069
Mof_C 	C 	0.2324	0.66606	0.6251	0.085
Mof_H 	H 	0.2376	0.6864	0.5493	0.015
Mof_C 	C 	0.1609	0.64119	0.6278	-0.177
Mof_H 	H 	0.1181	0.6451	0.5542	0.096
Mof_C 	C 	0.8864	0.2232	0.2968	-0.437
Mof_C 	C 	0.8589	0.1893	0.227	0.298
Mof_C 	C 	0.8889	0.2255	0.155	-0.56
Mof_H 	H 	0.949	0.3753	0.934	0.037
Mof_H 	H 	0.333	0.6233	0.911	0.023
Mof_H 	H 	0.211	0.576	0.919	0.071
Mof_H 	H 	0.945	0.457	0.965	0.053
Mof_N 	N 	0.9736	0.2283	0.1282	-0.159
Mof_N 	N 	0.0367	0.22867	0.1391	-0.175
Mof_C 	C 	0.8999	0.2444	0.2222	0.737
Mof_N 	N 	0.1477	0.5137	0.7352	-0.113
Mof_Zn	Zn	0.50792	0.73065	0.92923	1.23
Mof_C 	C 	0.4692	0.88894	0.861	0.013
Mof_O 	O 	0.48761	0.79361	0.8659	-0.509
Mof_O 	O 	0.88512	0.2096	0.6192	-0.483
Mof_C 	C 	0.5735	0.03637	0.7431	0.112
Mof_O 	O 	0.92252	0.18845	0.8482	-0.488
Mof_C 	C 	0.8732	0.18867	0.7343	0.412
Mof_C 	C 	0.5736	0.08439	0.7435	-0.121
Mof_C 	C 	0.6519	0.11032	0.7388	0.131
Mof_C 	C 	0.4691	0.93626	0.8606	-0.057
Mof_C 	C 	0.7965	0.16102	0.734	-0.155
Mof_C 	C 	0.7172	0.10432	0.8447	-0.123
Mof_C 	C 	0.7879	0.13026	0.8444	0.07
Mof_C 	C 	0.7324	0.16606	0.6251	0.087
Mof_H 	H 	0.7376	0.1864	0.5493	0.015
Mof_C 	C 	0.6609	0.14119	0.6278	-0.179
Mof_H 	H 	0.6181	0.1451	0.5542	0.099
Mof_C 	C 	0.3864	0.7232	0.2968	-0.546
Mof_C 	C 	0.3589	0.6893	0.227	0.369
Mof_C 	C 	0.3889	0.7255	0.155	-0.691
Mof_H 	H 	0.449	0.8753	0.934	0.039
Mof_H 	H 	0.833	0.1233	0.911	0.026
Mof_H 	H 	0.711	0.076	0.919	0.073
Mof_H 	H 	0.445	0.957	0.965	0.049
Mof_N 	N 	0.4736	0.7283	0.1282	-0.163
Mof_N 	N 	0.5367	0.72867	0.1391	-0.17
Mof_C 	C 	0.3999	0.7444	0.2222	0.907
Mof_N 	N 	0.6477	0.0137	0.7352	-0.112
Mof_C 	C 	1.29822e-17	0.60789	0.75	0.109
Mof_C 	C 	1.29822e-17	0.3138	0.75	0.391
Mof_C 	C 	6.49109e-18	0.46119	0.75	0.055
Mof_C 	C 	1.29822e-17	0.36446	0.75	-0.137
Mof_C 	C 	6.49109e-18	0.51185	0.75	-0.107
Mof_N 	N 	6.49109e-18	0.6537	0.75	-0.152
Mof_C 	C 	0.5	0.10789	0.75	0.129
Mof_C 	C 	0.5	0.8138	0.75	0.408
Mof_C 	C 	0.5	0.96119	0.75	0.068
Mof_C 	C 	0.5	0.86446	0.75	-0.121
Mof_C 	C 	0.5	0.01185	0.75	-0.094
Mof_N 	N 	0.5	0.1537	0.75	-0.152
Mof_C 	C 	5.91345e-34	0.23061	0.25	0.12
Mof_C 	C 	0.5	0.73061	0.25	0.118
Mof_Zn	Zn	0.00792	0.76935	0.42923	1.224
Mof_C 	C 	0.9692	0.61106	0.361	0.029
Mof_O 	O 	0.98761	0.70639	0.3659	-0.491
Mof_O 	O 	0.38512	0.2904	0.1192	-0.485
Mof_C 	C 	0.0735	0.46363	0.2431	0.112
Mof_O 	O 	0.42252	0.31155	0.3482	-0.493
Mof_C 	C 	0.3732	0.31133	0.2343	0.411
Mof_C 	C 	0.0736	0.41561	0.2435	-0.118
Mof_C 	C 	0.1519	0.38968	0.2388	0.128
Mof_C 	C 	0.9691	0.56374	0.3606	-0.045
Mof_C 	C 	0.2965	0.33898	0.234	-0.155
Mof_C 	C 	0.2172	0.39568	0.3447	-0.123
Mof_C 	C 	0.2879	0.36974	0.3444	0.069
Mof_C 	C 	0.2324	0.33394	0.1251	0.085
Mof_H 	H 	0.2376	0.3136	0.0493	0.015
Mof_C 	C 	0.1609	0.35881	0.1278	-0.178
Mof_H 	H 	0.1181	0.3549	0.0542	0.097
Mof_C 	C 	0.8864	0.7768	0.7968	-0.421
Mof_C 	C 	0.8589	0.8107	0.727	0.287
Mof_C 	C 	0.8889	0.7745	0.655	-0.539
Mof_H 	H 	0.949	0.6247	0.434	0.038
Mof_H 	H 	0.333	0.3767	0.411	0.024
Mof_H 	H 	0.211	0.424	0.419	0.072
Mof_H 	H 	0.945	0.543	0.465	0.053
Mof_N 	N 	0.9736	0.7717	0.6282	-0.159
Mof_N 	N 	0.0367	0.77133	0.6391	-0.177
Mof_C 	C 	0.8999	0.7556	0.7222	0.71
Mof_N 	N 	0.1477	0.4863	0.2352	-0.113
Mof_Zn	Zn	0.50792	0.26935	0.42923	1.23
Mof_C 	C 	0.4692	0.11106	0.361	0.013
Mof_O 	O 	0.48761	0.20639	0.3659	-0.508
Mof_O 	O 	0.88512	0.7904	0.1192	-0.484
Mof_C 	C 	0.5735	0.96363	0.2431	0.113
Mof_O 	O 	0.92252	0.81155	0.3482	-0.489
Mof_C 	C 	0.8732	0.81133	0.2343	0.412
Mof_C 	C 	0.5736	0.91561	0.2435	-0.121
Mof_C 	C 	0.6519	0.88968	0.2388	0.131
Mof_C 	C 	0.4691	0.06374	0.3606	-0.056
Mof_C 	C 	0.7965	0.83898	0.234	-0.155
Mof_C 	C 	0.7172	0.89568	0.3447	-0.123
Mof_C 	C 	0.7879	0.86974	0.3444	0.07
Mof_C 	C 	0.7324	0.83394	0.1251	0.087
Mof_H 	H 	0.7376	0.8136	0.0493	0.014
Mof_C 	C 	0.6609	0.85881	0.1278	-0.179
Mof_H 	H 	0.6181	0.8549	0.0542	0.099
Mof_C 	C 	0.3864	0.2768	0.7968	-0.546
Mof_C 	C 	0.3589	0.3107	0.727	0.368
Mof_C 	C 	0.3889	0.2745	0.655	-0.691
Mof_H 	H 	0.449	0.1247	0.434	0.04
Mof_H 	H 	0.833	0.8767	0.411	0.026
Mof_H 	H 	0.711	0.924	0.419	0.073
Mof_H 	H 	0.445	0.043	0.465	0.05
Mof_N 	N 	0.4736	0.2717	0.6282	-0.163
Mof_N 	N 	0.5367	0.27133	0.6391	-0.17
Mof_C 	C 	0.3999	0.2556	0.7222	0.907
Mof_N 	N 	0.6477	0.9863	0.2352	-0.112
Mof_Zn	Zn	0.99208	0.76935	0.07077	1.234
Mof_C 	C 	0.0308	0.61106	0.139	0.014
Mof_O 	O 	0.01239	0.70639	0.1341	-0.509
Mof_O 	O 	0.61488	0.2904	0.3808	-0.485
Mof_C 	C 	0.9265	0.46363	0.2569	0.122
Mof_O 	O 	0.57748	0.31155	0.1518	-0.492
Mof_C 	C 	0.6268	0.31133	0.2657	0.412
Mof_C 	C 	0.9264	0.41561	0.2565	-0.108
Mof_C 	C 	0.8481	0.38968	0.2612	0.13
Mof_C 	C 	0.0309	0.56374	0.1394	-0.057
Mof_C 	C 	0.7035	0.33898	0.266	-0.155
Mof_C 	C 	0.7828	0.39568	0.1553	-0.122
Mof_C 	C 	0.7121	0.36974	0.1556	0.07
Mof_C 	C 	0.7676	0.33394	0.3749	0.088
Mof_H 	H 	0.7624	0.3136	0.4507	0.015
Mof_C 	C 	0.8391	0.35881	0.3722	-0.177
Mof_H 	H 	0.8819	0.3549	0.4458	0.103
Mof_C 	C 	0.1136	0.7768	0.7032	-0.553
Mof_C 	C 	0.1411	0.8107	0.773	0.37
Mof_C 	C 	0.1111	0.7745	0.845	-0.703
Mof_H 	H 	0.051	0.6247	0.066	0.039
Mof_H 	H 	0.667	0.3767	0.089	0.023
Mof_H 	H 	0.789	0.424	0.081	0.072
Mof_H 	H 	0.055	0.543	0.035	0.049
Mof_N 	N 	0.0264	0.7717	0.8718	-0.17
Mof_N 	N 	0.9633	0.77133	0.8609	-0.166
Mof_C 	C 	0.1001	0.7556	0.7778	0.921
Mof_N 	N 	0.8523	0.4863	0.2648	-0.113
Mof_Zn	Zn	0.49208	0.26935	0.07077	1.23
Mof_C 	C 	0.5308	0.11106	0.139	0.013
Mof_O 	O 	0.51239	0.20639	0.1341	-0.508
Mof_O 	O 	0.11488	0.7904	0.3808	-0.488
Mof_C 	C 	0.4265	0.96363	0.2569	0.112
Mof_O 	O 	0.07748	0.81155	0.1518	-0.497
Mof_C 	C 	0.1268	0.81133	0.2657	0.412
Mof_C 	C 	0.4264	0.91561	0.2565	-0.122
Mof_C 	C 	0.3481	0.88968	0.2612	0.131
Mof_C 	C 	0.5309	0.06374	0.1394	-0.056
Mof_C 	C 	0.2035	0.83898	0.266	-0.158
Mof_C 	C 	0.2828	0.89568	0.1553	-0.125
Mof_C 	C 	0.2121	0.86974	0.1556	0.072
Mof_C 	C 	0.2676	0.83394	0.3749	0.088
Mof_H 	H 	0.2624	0.8136	0.4507	0.014
Mof_C 	C 	0.3391	0.85881	0.3722	-0.181
Mof_H 	H 	0.3819	0.8549	0.4458	0.099
Mof_C 	C 	0.6136	0.2768	0.7032	-0.544
Mof_C 	C 	0.6411	0.3107	0.773	0.368
Mof_C 	C 	0.6111	0.2745	0.845	-0.689
Mof_H 	H 	0.551	0.1247	0.066	0.04
Mof_H 	H 	0.167	0.8767	0.089	0.022
Mof_H 	H 	0.289	0.924	0.081	0.072
Mof_H 	H 	0.555	0.043	0.035	0.05
Mof_N 	N 	0.5264	0.2717	0.8718	-0.163
Mof_N 	N 	0.4633	0.27133	0.8609	-0.17
Mof_C 	C 	0.6001	0.2556	0.7778	0.904
Mof_N 	N 	0.3523	0.9863	0.2648	-0.113
Mof_C 	C 	3.24554e-18	0.39211	0.25	0.113
Mof_C 	C 	3.24554e-18	0.6862	0.25	0.393
Mof_C 	C 	5.91345e-34	0.53881	0.25	0.057
Mof_C 	C 	3.24554e-18	0.63554	0.25	-0.133
Mof_C 	C 	3.24554e-18	0.48815	0.25	-0.105
Mof_N 	N 	5.91345e-34	0.3463	0.25	-0.152
Mof_C 	C 	0.5	0.89211	0.25	0.129
Mof_C 	C 	0.5	0.1862	0.25	0.407
Mof_C 	C 	0.5	0.03881	0.25	0.068
Mof_C 	C 	0.5	0.13554	0.25	-0.121
Mof_C 	C 	0.5	0.98815	0.25	-0.094
Mof_N 	N 	0.5	0.8463	0.25	-0.152
Mof_C 	C 	6.49109e-18	0.76939	0.75	0.12
Mof_C 	C 	0.5	0.26939	0.75	0.119
_end
