data_functionalizedCrystal
_audit_creation_method	'EQeq! by Chris Wilmer'
_symmetry_space_group_name_H-M	'P1'
_symmetry_Int_Tables_number	1
_symmetry_cell_setting	triclinic
loop_
_symmetry_equiv_pos_as_xyz
  x,y,z
_cell_length_a	10.3187
_cell_length_b	13.6651
_cell_length_c	16.1419
_cell_angle_alpha	102.047
_cell_angle_beta	108.58
_cell_angle_gamma	99.147
loop_
_atom_site_label
_atom_site_type_symbol
_atom_site_fract_x
_atom_site_fract_y
_atom_site_fract_z
_atom_site_charge
Mof_Zn	Zn	0.7133	0.25236	0.23993	1.208
Mof_Zn	Zn	0.5248	0.2068	0.87462	1.183
Mof_P 	P 	0.4631	0.24439	0.05976	0.642
Mof_P 	P 	0.6201	0.01914	0.17377	0.52
Mof_O 	O 	0.3493	0.3086	0.0395	-0.816
Mof_H 	H 	0.3605	0.3592	0.0574	0.542
Mof_O 	O 	0.5532	0.2847	0.1603	-0.495
Mof_O 	O 	0.3811	0.1329	0.0331	-0.295
Mof_O 	O 	0.5529	0.2601	0.0023	-0.501
Mof_O 	O 	0.6861	0.0269	0.0999	-0.254
Mof_O 	O 	0.4618	0.0199	0.1342	-0.427
Mof_H 	H 	0.4368	0.0646	0.0976	0.239
Mof_O 	O 	0.6243	0.9185	0.1979	-0.457
Mof_O 	O 	0.7026	0.1141	0.2536	-0.453
Mof_N 	N 	0.8795	0.3039	0.2083	-0.274
Mof_N 	N 	0.0153	0.4116	0.1676	-0.129
Mof_N 	N 	0.7227	0.1969	0.8893	-0.276
Mof_N 	N 	0.934	0.1705	0.955	-0.127
Mof_N 	N 	0.7429	0.3461	0.3618	-0.271
Mof_N 	N 	0.7341	0.4784	0.4651	-0.128
Mof_C 	C 	0.8865	0.3814	0.1728	0.084
Mof_H 	H 	0.8108	0.4129	0.153	-0.019
Mof_C 	C 	0.0481	0.4937	0.1244	-0.04
Mof_H 	H 	0.1515	0.5216	0.1477	0.028
Mof_H 	H 	0.0054	0.5507	0.1421	0.04
Mof_C 	C 	0.9942	0.4552	0.021	-0.098
Mof_H 	H 	0.8946	0.4161	0.998	0.046
Mof_H 	H 	0.0498	0.4078	0.0027	0.057
Mof_C 	C 	0.0966	0.3488	0.2028	0.044
Mof_C 	C 	0.0123	0.2809	0.2283	0.053
Mof_C 	C 	0.0599	0.2027	0.2636	-0.11
Mof_H 	H 	0.001	0.1554	0.2798	0.062
Mof_C 	C 	0.1962	0.1973	0.2741	-0.013
Mof_H 	H 	0.2324	0.1455	0.2984	0.034
Mof_C 	C 	0.2831	0.267	0.2494	-0.038
Mof_H 	H 	0.3761	0.2606	0.2565	0.04
Mof_C 	C 	0.2354	0.345	0.2147	-0.071
Mof_H 	H 	0.2947	0.3935	0.1998	0.045
Mof_C 	C 	0.8062	0.1725	0.9579	0.095
Mof_H 	H 	0.7784	0.1575	0.0055	0.002
Mof_C 	C 	0.0511	0.1487	0.0216	-0.05
Mof_H 	H 	0.0409	0.1657	0.0816	0.059
Mof_H 	H 	0.1403	0.194	0.0273	0.086
Mof_C 	C 	0.0603	0.037	0.9974	-0.098
Mof_H 	H 	0.0611	0.0178	0.935	0.081
Mof_H 	H 	0.1502	0.0304	0.0395	0.086
Mof_C 	C 	0.9354	0.1959	0.8763	0.07
Mof_C 	C 	0.0403	0.2074	0.8399	-0.105
Mof_H 	H 	0.1304	0.1958	0.868	0.079
Mof_C 	C 	0.0053	0.2368	0.7602	-0.01
Mof_H 	H 	0.0743	0.247	0.7334	0.021
Mof_C 	C 	0.8716	0.252	0.7174	-0.042
Mof_H 	H 	0.8519	0.2705	0.6619	0.043
Mof_C 	C 	0.7677	0.2408	0.7543	-0.086
Mof_H 	H 	0.6776	0.252	0.7259	0.021
Mof_C 	C 	0.8019	0.212	0.8353	0.028
Mof_C 	C 	0.6797	0.4208	0.3767	0.084
Mof_H 	H 	0.6046	0.4331	0.331	-0.016
Mof_C 	C 	0.6861	0.5661	0.5051	-0.037
Mof_H 	H 	0.6516	0.6029	0.4589	0.034
Mof_H 	H 	0.7667	0.6148	0.5567	0.041
Mof_C 	C 	0.5684	0.5312	0.5386	-0.096
Mof_H 	H 	0.6001	0.4888	0.5804	0.056
Mof_H 	H 	0.5501	0.5927	0.5735	0.056
Mof_C 	C 	0.8413	0.4377	0.5102	0.058
Mof_C 	C 	0.9368	0.4686	0.6001	-0.089
Mof_H 	H 	0.932	0.5249	0.644	0.059
Mof_C 	C 	0.0385	0.4137	0.6222	-0.027
Mof_H 	H 	0.106	0.4332	0.6825	0.024
Mof_C 	C 	0.044	0.3306	0.558	-0.019
Mof_H 	H 	0.1152	0.2946	0.5757	0.025
Mof_C 	C 	0.9478	0.2983	0.4683	-0.101
Mof_H 	H 	0.9513	0.2409	0.4249	0.049
Mof_C 	C 	0.8468	0.3543	0.4458	0.046
Mof_Zn	Zn	0.2867	0.74764	0.76007	1.207
Mof_Zn	Zn	0.4752	0.7932	0.12538	1.182
Mof_P 	P 	0.5369	0.75561	0.94024	0.641
Mof_P 	P 	0.3799	0.98086	0.82623	0.519
Mof_O 	O 	0.6507	0.6914	0.9605	-0.816
Mof_H 	H 	0.6395	0.6408	0.9426	0.542
Mof_O 	O 	0.4468	0.7153	0.8397	-0.495
Mof_O 	O 	0.6189	0.8671	0.9669	-0.295
Mof_O 	O 	0.4471	0.7399	0.9977	-0.501
Mof_O 	O 	0.3139	0.9731	0.9001	-0.254
Mof_O 	O 	0.5382	0.9801	0.8658	-0.427
Mof_H 	H 	0.5632	0.9354	0.9024	0.239
Mof_O 	O 	0.3757	0.0815	0.8021	-0.457
Mof_O 	O 	0.2974	0.8859	0.7464	-0.453
Mof_N 	N 	0.1205	0.6961	0.7917	-0.274
Mof_N 	N 	0.9847	0.5884	0.8324	-0.129
Mof_N 	N 	0.2773	0.8031	0.1107	-0.276
Mof_N 	N 	0.066	0.8295	0.045	-0.127
Mof_N 	N 	0.2571	0.6539	0.6382	-0.271
Mof_N 	N 	0.2659	0.5216	0.5349	-0.128
Mof_C 	C 	0.1135	0.6186	0.8272	0.084
Mof_H 	H 	0.1892	0.5871	0.847	-0.019
Mof_C 	C 	0.9519	0.5063	0.8756	-0.04
Mof_H 	H 	0.8485	0.4784	0.8523	0.028
Mof_H 	H 	0.9946	0.4493	0.8579	0.04
Mof_C 	C 	0.0058	0.5448	0.979	-0.098
Mof_H 	H 	0.1054	0.5839	0.002	0.046
Mof_H 	H 	0.9502	0.5922	0.9973	0.057
Mof_C 	C 	0.9034	0.6512	0.7972	0.044
Mof_C 	C 	0.9877	0.7191	0.7717	0.053
Mof_C 	C 	0.9401	0.7973	0.7364	-0.11
Mof_H 	H 	0.999	0.8446	0.7202	0.062
Mof_C 	C 	0.8038	0.8027	0.7259	-0.013
Mof_H 	H 	0.7676	0.8545	0.7016	0.034
Mof_C 	C 	0.7169	0.733	0.7506	-0.038
Mof_H 	H 	0.6239	0.7394	0.7435	0.04
Mof_C 	C 	0.7646	0.655	0.7853	-0.071
Mof_H 	H 	0.7053	0.6065	0.8002	0.045
Mof_C 	C 	0.1938	0.8275	0.0421	0.095
Mof_H 	H 	0.2216	0.8425	0.9945	0.002
Mof_C 	C 	0.9489	0.8513	0.9784	-0.05
Mof_H 	H 	0.9591	0.8343	0.9184	0.059
Mof_H 	H 	0.8597	0.806	0.9727	0.086
Mof_C 	C 	0.9397	0.963	0.0026	-0.098
Mof_H 	H 	0.9389	0.9822	0.065	0.081
Mof_H 	H 	0.8498	0.9696	0.9605	0.086
Mof_C 	C 	0.0646	0.8041	0.1237	0.07
Mof_C 	C 	0.9597	0.7926	0.1601	-0.105
Mof_H 	H 	0.8696	0.8042	0.132	0.079
Mof_C 	C 	0.9947	0.7632	0.2398	-0.01
Mof_H 	H 	0.9257	0.753	0.2666	0.021
Mof_C 	C 	0.1284	0.748	0.2826	-0.042
Mof_H 	H 	0.1481	0.7295	0.3381	0.043
Mof_C 	C 	0.2323	0.7592	0.2457	-0.086
Mof_H 	H 	0.3224	0.748	0.2741	0.021
Mof_C 	C 	0.1981	0.788	0.1647	0.028
Mof_C 	C 	0.3203	0.5792	0.6233	0.084
Mof_H 	H 	0.3954	0.5669	0.669	-0.016
Mof_C 	C 	0.3139	0.4339	0.4949	-0.037
Mof_H 	H 	0.3484	0.3971	0.5411	0.034
Mof_H 	H 	0.2333	0.3852	0.4433	0.041
Mof_C 	C 	0.4316	0.4688	0.4614	-0.096
Mof_H 	H 	0.3999	0.5112	0.4196	0.056
Mof_H 	H 	0.4499	0.4073	0.4265	0.056
Mof_C 	C 	0.1587	0.5623	0.4898	0.058
Mof_C 	C 	0.0632	0.5314	0.3999	-0.089
Mof_H 	H 	0.068	0.4751	0.356	0.059
Mof_C 	C 	0.9615	0.5863	0.3778	-0.027
Mof_H 	H 	0.894	0.5668	0.3175	0.024
Mof_C 	C 	0.956	0.6694	0.442	-0.019
Mof_H 	H 	0.8848	0.7054	0.4243	0.025
Mof_C 	C 	0.0522	0.7017	0.5317	-0.101
Mof_H 	H 	0.0487	0.7591	0.5751	0.049
Mof_C 	C 	0.1532	0.6457	0.5542	0.046
_end
