data_functionalizedCrystal
_audit_creation_method	'EQeq! by Chris Wilmer'
_symmetry_space_group_name_H-M	'P1'
_symmetry_Int_Tables_number	1
_symmetry_cell_setting	triclinic
loop_
_symmetry_equiv_pos_as_xyz
  x,y,z
_cell_length_a	11.09
_cell_length_b	11.32
_cell_length_c	16.243
_cell_angle_alpha	74.94
_cell_angle_beta	82.76
_cell_angle_gamma	75.06
loop_
_atom_site_label
_atom_site_type_symbol
_atom_site_fract_x
_atom_site_fract_y
_atom_site_fract_z
_atom_site_charge
Mof_O 	O 	0.3521	0.4338	0.0073	-0.619
Mof_O 	O 	0.5212	0.4223	0.9164	-0.619
Mof_O 	O 	0.9251	0.5014	0.7617	-0.644
Mof_O 	O 	0.9309	0.48	0.8991	-0.525
Mof_C 	C 	0.1239	0.4365	0.8164	-0.172
Mof_O 	O 	0.8592	0.7884	0.7273	-0.582
Mof_O 	O 	0.7236	0.7045	0.8243	-0.62
Mof_C 	C 	0.7781	0.7907	0.7874	0.535
Mof_C 	C 	0.7341	0.9128	0.8174	-0.179
Mof_C 	C 	0.7771	0.0195	0.7711	0.092
Mof_H 	H 	0.8312	0.0155	0.7228	-0.001
Mof_C 	C 	0.6539	0.917	0.888	0.015
Mof_H 	H 	0.6251	0.8462	0.917	0.038
Mof_O 	O 	0.2976	0.3342	0.3543	-0.634
Mof_O 	O 	0.436	0.4034	0.2508	-0.542
Mof_C 	C 	0.4036	0.361	0.3279	0.49
Mof_C 	C 	0.4074	0.4243	0.9348	0.553
Mof_Nd	Nd	0.08707	0.34091	0.37296	2.067
Mof_Nd	Nd	0.70867	0.49371	0.86533	2.594
Mof_O 	O 	0.8867	0.3829	0.4575	-0.541
Mof_O 	O 	0.8767	0.3175	0.3466	-0.464
Mof_O 	O 	0.7423	0.3457	0.7835	-0.611
Mof_N 	N 	0.3611	0.3603	0.646	-0.092
Mof_O 	O 	0.8576	0.2417	0.6901	-0.342
Mof_C 	C 	0.7857	0.2464	0.7548	0.445
Mof_C 	C 	0.8253	0.3455	0.4143	0.364
Mof_N 	N 	0.4774	0.3501	0.6296	-0.082
Mof_C 	C 	0.4872	0.3451	0.398	-0.17
Mof_C 	C 	0.1994	0.439	0.8813	0.097
Mof_H 	H 	0.1625	0.4552	0.9332	-0.003
Mof_C 	C 	0.6128	0.3436	0.3763	0.07
Mof_H 	H 	0.6438	0.3455	0.3201	0.022
Mof_N 	N 	0.5244	0.0458	0.9846	-0.087
Mof_C 	C 	0.44	0.3441	0.4807	0.016
Mof_H 	H 	0.3559	0.3453	0.4954	-0.002
Mof_C 	C 	0.6583	0.1347	0.87	0.017
Mof_H 	H 	0.6324	0.2092	0.8882	0.005
Mof_C 	C 	0.5192	0.3411	0.5434	0.038
Mof_C 	C 	0.6146	0.0284	0.9171	0.02
Mof_C 	C 	0.6942	0.3394	0.4375	-0.116
Mof_C 	C 	0.3158	0.3802	0.7284	0.018
Mof_C 	C 	0.3887	0.3882	0.7922	0.035
Mof_H 	H 	0.4753	0.3742	0.7839	0.03
Mof_C 	C 	0.6452	0.3402	0.5227	-0.033
Mof_H 	H 	0.6964	0.3401	0.5639	0.054
Mof_C 	C 	0.3289	0.4165	0.8655	-0.193
Mof_C 	C 	0.7375	0.1315	0.7986	-0.172
Mof_C 	C 	0.1879	0.404	0.7407	0.021
Mof_H 	H 	0.1416	0.3987	0.6984	-0.013
Mof_C 	C 	0.9874	0.477	0.8288	0.42
Mof_O 	O 	0.6479	0.5662	0.9927	-0.618
Mof_O 	O 	0.4788	0.5777	0.0836	-0.618
Mof_O 	O 	0.0749	0.4986	0.2383	-0.643
Mof_O 	O 	0.0691	0.52	0.1009	-0.524
Mof_C 	C 	0.8761	0.5635	0.1836	-0.172
Mof_O 	O 	0.1408	0.2116	0.2727	-0.582
Mof_O 	O 	0.2764	0.2955	0.1757	-0.62
Mof_C 	C 	0.2219	0.2093	0.2126	0.535
Mof_C 	C 	0.2659	0.0872	0.1826	-0.179
Mof_C 	C 	0.2229	0.9805	0.2289	0.092
Mof_H 	H 	0.1688	0.9845	0.2772	-0.001
Mof_C 	C 	0.3461	0.083	0.112	0.015
Mof_H 	H 	0.3749	0.1538	0.083	0.038
Mof_O 	O 	0.7024	0.6658	0.6457	-0.634
Mof_O 	O 	0.564	0.5966	0.7492	-0.542
Mof_C 	C 	0.5964	0.639	0.6721	0.49
Mof_C 	C 	0.5926	0.5757	0.0652	0.553
Mof_Nd	Nd	0.91293	0.65909	0.62704	2.067
Mof_Nd	Nd	0.29133	0.50629	0.13467	2.594
Mof_O 	O 	0.1133	0.6171	0.5425	-0.541
Mof_O 	O 	0.1233	0.6825	0.6534	-0.464
Mof_O 	O 	0.2577	0.6543	0.2165	-0.611
Mof_N 	N 	0.6389	0.6397	0.354	-0.092
Mof_O 	O 	0.1424	0.7583	0.3099	-0.342
Mof_C 	C 	0.2143	0.7536	0.2452	0.445
Mof_C 	C 	0.1747	0.6545	0.5857	0.364
Mof_N 	N 	0.5226	0.6499	0.3704	-0.082
Mof_C 	C 	0.5128	0.6549	0.602	-0.17
Mof_C 	C 	0.8006	0.561	0.1187	0.097
Mof_H 	H 	0.8375	0.5448	0.0668	-0.003
Mof_C 	C 	0.3872	0.6564	0.6237	0.07
Mof_H 	H 	0.3562	0.6545	0.6799	0.022
Mof_N 	N 	0.4756	0.9542	0.0154	-0.087
Mof_C 	C 	0.56	0.6559	0.5193	0.016
Mof_H 	H 	0.6441	0.6547	0.5046	-0.002
Mof_C 	C 	0.3417	0.8653	0.13	0.017
Mof_H 	H 	0.3676	0.7908	0.1118	0.005
Mof_C 	C 	0.4808	0.6589	0.4566	0.038
Mof_C 	C 	0.3854	0.9716	0.0829	0.02
Mof_C 	C 	0.3058	0.6606	0.5625	-0.116
Mof_C 	C 	0.6842	0.6198	0.2716	0.018
Mof_C 	C 	0.6113	0.6118	0.2078	0.035
Mof_H 	H 	0.5247	0.6258	0.2161	0.03
Mof_C 	C 	0.3548	0.6598	0.4773	-0.033
Mof_H 	H 	0.3036	0.6599	0.4361	0.054
Mof_C 	C 	0.6711	0.5835	0.1345	-0.193
Mof_C 	C 	0.2625	0.8685	0.2014	-0.172
Mof_C 	C 	0.8121	0.596	0.2593	0.021
Mof_H 	H 	0.8584	0.6013	0.3016	-0.013
Mof_C 	C 	0.0126	0.523	0.1712	0.42
_end
