data_functionalizedCrystal
_audit_creation_method	'EQeq! by Chris Wilmer'
_symmetry_space_group_name_H-M	'P1'
_symmetry_Int_Tables_number	1
_symmetry_cell_setting	triclinic
loop_
_symmetry_equiv_pos_as_xyz
  x,y,z
_cell_length_a	10.2
_cell_length_b	10.2
_cell_length_c	14.4386
_cell_angle_alpha	90
_cell_angle_beta	90
_cell_angle_gamma	90
loop_
_atom_site_label
_atom_site_type_symbol
_atom_site_fract_x
_atom_site_fract_y
_atom_site_fract_z
_atom_site_charge
Mof_O 	O 	0.335	0.9265	0.1919	-0.535
Mof_O 	O 	0.9352	0.8852	0.1001	-0.549
Mof_O 	O 	0.7601	0.9039	0.0128	-0.559
Mof_C 	C 	0.8189	0.9115	0.0898	0.564
Mof_C 	C 	0.7406	0.9584	0.1727	-0.262
Mof_C 	C 	0.6057	0.9573	0.1727	0.252
Mof_H 	H 	0.5593	0.9272	0.1198	-0.039
Mof_O 	O 	0.665	0.0735	0.6919	-0.569
Mof_O 	O 	0.0648	0.1148	0.6001	-0.603
Mof_O 	O 	0.2399	0.0961	0.5128	-0.561
Mof_C 	C 	0.1811	0.0885	0.5898	0.566
Mof_C 	C 	0.2594	0.0416	0.6727	-0.31
Mof_C 	C 	0.3943	0.0427	0.6727	0.228
Mof_H 	H 	0.4407	0.0728	0.6198	-0.038
Mof_O 	O 	0.0735	0.335	0.4419	-0.56
Mof_O 	O 	0.1148	0.9352	0.3501	-0.557
Mof_O 	O 	0.0961	0.7601	0.2628	-0.557
Mof_C 	C 	0.0885	0.8189	0.3398	0.557
Mof_C 	C 	0.0416	0.7406	0.4227	-0.29
Mof_C 	C 	0.0427	0.6057	0.4227	0.217
Mof_H 	H 	0.0728	0.5593	0.3698	-0.033
Mof_O 	O 	0.9265	0.665	0.9419	-0.535
Mof_O 	O 	0.8852	0.0648	0.8501	-0.596
Mof_O 	O 	0.9039	0.2399	0.7628	-0.555
Mof_C 	C 	0.9115	0.1811	0.8398	0.572
Mof_C 	C 	0.9584	0.2594	0.9227	-0.274
Mof_C 	C 	0.9573	0.3943	0.9227	0.272
Mof_H 	H 	0.9272	0.4407	0.8698	-0.044
Mof_O 	O 	0.665	0.9265	0.8081	-0.542
Mof_O 	O 	0.0648	0.8852	0.8999	-0.587
Mof_O 	O 	0.2399	0.9039	0.9872	-0.542
Mof_C 	C 	0.1811	0.9115	0.9102	0.572
Mof_C 	C 	0.2594	0.9584	0.8273	-0.279
Mof_C 	C 	0.3943	0.9573	0.8273	0.262
Mof_H 	H 	0.4407	0.9272	0.8802	-0.039
Mof_O 	O 	0.335	0.0735	0.3081	-0.559
Mof_O 	O 	0.9352	0.1148	0.3999	-0.558
Mof_O 	O 	0.7601	0.0961	0.4872	-0.558
Mof_C 	C 	0.8189	0.0885	0.4102	0.557
Mof_C 	C 	0.7406	0.0416	0.3273	-0.29
Mof_C 	C 	0.6057	0.0427	0.3273	0.217
Mof_H 	H 	0.5593	0.0728	0.3802	-0.033
Mof_O 	O 	0.9265	0.335	0.5581	-0.537
Mof_O 	O 	0.8852	0.9352	0.6499	-0.549
Mof_O 	O 	0.9039	0.7601	0.7372	-0.554
Mof_C 	C 	0.9115	0.8189	0.6602	0.564
Mof_C 	C 	0.9584	0.7406	0.5773	-0.265
Mof_C 	C 	0.9573	0.6057	0.5773	0.248
Mof_H 	H 	0.9272	0.5593	0.6302	-0.036
Mof_O 	O 	0.0735	0.665	0.0581	-0.568
Mof_O 	O 	0.1148	0.0648	0.1499	-0.605
Mof_O 	O 	0.0961	0.2399	0.2372	-0.561
Mof_C 	C 	0.0885	0.1811	0.1602	0.565
Mof_C 	C 	0.0416	0.2594	0.0773	-0.31
Mof_C 	C 	0.0427	0.3943	0.0773	0.228
Mof_H 	H 	0.0728	0.4407	0.1302	-0.039
Mof_Tm	Tm	0.14978	0.85022	0.125	2.045
Mof_Tm	Tm	0.85022	0.14978	0.625	2.062
Mof_Tm	Tm	0.14978	0.14978	0.375	2.007
Mof_Tm	Tm	0.85022	0.85022	0.875	2.129
Mof_C 	C 	0.5375	0	0.25	-0.325
Mof_C 	C 	0.8082	0	0.25	0.185
Mof_H 	H 	0.9013	0	0.25	-0.041
Mof_C 	C 	0.3898	0	0.25	0.535
Mof_C 	C 	0.4625	0	0.75	-0.336
Mof_C 	C 	0.1918	0	0.75	0.198
Mof_H 	H 	0.0987	0	0.75	-0.067
Mof_C 	C 	0.6102	0	0.75	0.544
Mof_C 	C 	-5.74851e-33	0.5375	0.5	-0.321
Mof_C 	C 	1.1056e-32	0.8082	0.5	0.19
Mof_H 	H 	2.65373e-33	0.9013	0.5	-0.042
Mof_C 	C 	-5.74851e-33	0.3898	0.5	0.539
Mof_C 	C 	-4.20112e-33	0.4625	-0	-0.348
Mof_C 	C 	-2.10056e-33	0.1918	-0	0.182
Mof_H 	H 	-1.05028e-33	0.0987	-0	-0.07
Mof_C 	C 	-4.20112e-33	0.6102	-0	0.53
_end
