data_functionalizedCrystal
_audit_creation_method	'EQeq! by Chris Wilmer'
_symmetry_space_group_name_H-M	'P1'
_symmetry_Int_Tables_number	1
_symmetry_cell_setting	triclinic
loop_
_symmetry_equiv_pos_as_xyz
  x,y,z
_cell_length_a	8.7982
_cell_length_b	11.8876
_cell_length_c	12.6446
_cell_angle_alpha	95.219
_cell_angle_beta	106.752
_cell_angle_gamma	96.98
loop_
_atom_site_label
_atom_site_type_symbol
_atom_site_fract_x
_atom_site_fract_y
_atom_site_fract_z
_atom_site_charge
Mof_U 	U 	0.15561	0.0944	0.24609	-0.007
Mof_C 	C 	0.1205	0.2793	0.6569	0.354
Mof_C 	C 	0.091	0.3915	0.6589	-0.38
Mof_H 	H 	0.0701	0.4255	0.5921	0.173
Mof_C 	C 	0.0914	0.4548	0.7573	0.359
Mof_C 	C 	0.1225	0.4048	0.8552	-0.387
Mof_H 	H 	0.1238	0.4476	0.9227	0.189
Mof_C 	C 	0.152	0.2919	0.8546	0.353
Mof_C 	C 	0.1499	0.2295	0.7556	-0.376
Mof_H 	H 	0.1685	0.1525	0.7549	0.18
Mof_C 	C 	0.1242	0.2123	0.5505	-0.435
Mof_H 	H 	0.0584	0.244	0.4859	0.172
Mof_H 	H 	0.0761	0.1317	0.5467	0.165
Mof_C 	C 	0.055	0.5754	0.7577	-0.439
Mof_H 	H 	0.0924	0.6106	0.6998	0.169
Mof_H 	H 	0.117	0.6198	0.8307	0.187
Mof_C 	C 	0.1723	0.2354	0.9593	-0.437
Mof_H 	H 	0.2253	0.2929	0.0256	0.184
Mof_H 	H 	0.2414	0.1755	0.9593	0.179
Mof_O 	O 	0.4047	0.3408	0.5652	-0.185
Mof_O 	O 	0.3229	0.1517	0.434	-0.2
Mof_O 	O 	0.4207	0.1588	0.6416	-0.331
Mof_H 	H 	0.407	0.0785	0.625	0.193
Mof_O 	O 	0.8243	0.7081	0.7196	-0.197
Mof_O 	O 	0.7454	0.5022	0.631	-0.199
Mof_O 	O 	0.8075	0.5485	0.8384	-0.352
Mof_H 	H 	0.702	0.511	0.826	0.196
Mof_O 	O 	0.8696	0.2686	0.9521	-0.34
Mof_H 	H 	0.817	0.278	0.8779	0.201
Mof_O 	O 	0.909	0.0778	0.8701	-0.203
Mof_O 	O 	0.9929	0.1393	0.0798	-0.183
Mof_P 	P 	0.324	0.21704	0.5422	0.462
Mof_P 	P 	0.84662	0.58652	0.73305	0.466
Mof_P 	P 	0.97965	0.17263	0.96548	0.466
Mof_U 	U 	0.84439	0.9056	0.75391	-0.006
Mof_C 	C 	0.8795	0.7207	0.3431	0.355
Mof_C 	C 	0.909	0.6085	0.3411	-0.379
Mof_H 	H 	0.9299	0.5745	0.4079	0.173
Mof_C 	C 	0.9086	0.5452	0.2427	0.359
Mof_C 	C 	0.8775	0.5952	0.1448	-0.387
Mof_H 	H 	0.8762	0.5524	0.0773	0.189
Mof_C 	C 	0.848	0.7081	0.1454	0.353
Mof_C 	C 	0.8501	0.7705	0.2444	-0.376
Mof_H 	H 	0.8315	0.8475	0.2451	0.18
Mof_C 	C 	0.8758	0.7877	0.4495	-0.435
Mof_H 	H 	0.9416	0.756	0.5141	0.172
Mof_H 	H 	0.9239	0.8683	0.4533	0.165
Mof_C 	C 	0.945	0.4246	0.2423	-0.439
Mof_H 	H 	0.9076	0.3894	0.3002	0.169
Mof_H 	H 	0.883	0.3802	0.1693	0.187
Mof_C 	C 	0.8277	0.7646	0.0407	-0.437
Mof_H 	H 	0.7747	0.7071	0.9744	0.184
Mof_H 	H 	0.7586	0.8245	0.0407	0.179
Mof_O 	O 	0.5953	0.6592	0.4348	-0.185
Mof_O 	O 	0.6771	0.8483	0.566	-0.2
Mof_O 	O 	0.5793	0.8412	0.3584	-0.331
Mof_H 	H 	0.593	0.9215	0.375	0.193
Mof_O 	O 	0.1757	0.2919	0.2804	-0.197
Mof_O 	O 	0.2546	0.4978	0.369	-0.199
Mof_O 	O 	0.1925	0.4515	0.1616	-0.352
Mof_H 	H 	0.298	0.489	0.174	0.196
Mof_O 	O 	0.1304	0.7314	0.0479	-0.34
Mof_H 	H 	0.183	0.722	0.1221	0.201
Mof_O 	O 	0.091	0.9222	0.1299	-0.203
Mof_O 	O 	0.0071	0.8607	0.9202	-0.183
Mof_P 	P 	0.676	0.78296	0.4578	0.462
Mof_P 	P 	0.15338	0.41348	0.26695	0.466
Mof_P 	P 	0.02035	0.82737	0.03452	0.466
Mof_U 	U 	0.5	0.5	0.5	0.003
_end
