data_functionalizedCrystal
_audit_creation_method	'EQeq! by Chris Wilmer'
_symmetry_space_group_name_H-M	'P1'
_symmetry_Int_Tables_number	1
_symmetry_cell_setting	triclinic
loop_
_symmetry_equiv_pos_as_xyz
  x,y,z
_cell_length_a	21.624
_cell_length_b	21.624
_cell_length_c	24.5388
_cell_angle_alpha	116.143
_cell_angle_beta	116.143
_cell_angle_gamma	90
loop_
_atom_site_label
_atom_site_type_symbol
_atom_site_fract_x
_atom_site_fract_y
_atom_site_fract_z
_atom_site_charge
Mof_Zn	Zn	0.88637	0.6846	0.82685	1.212
Mof_Zn	Zn	0.44048	0.14225	0.82685	1.212
Mof_Zn	Zn	0.6846	0.44048	0.32685	1.212
Mof_Zn	Zn	0.14225	0.88637	0.32685	1.212
Mof_Zn	Zn	0.05952	0.8154	0.17315	1.212
Mof_Zn	Zn	0.61363	0.35775	0.17315	1.212
Mof_Zn	Zn	0.35775	0.05952	0.67315	1.212
Mof_Zn	Zn	0.8154	0.61363	0.67315	1.212
Mof_Zn	Zn	0.11363	0.3154	0.17315	1.212
Mof_Zn	Zn	0.55952	0.85775	0.17315	1.212
Mof_Zn	Zn	0.3154	0.55952	0.67315	1.212
Mof_Zn	Zn	0.85775	0.11363	0.67315	1.212
Mof_Zn	Zn	0.94048	0.1846	0.82685	1.212
Mof_Zn	Zn	0.38637	0.64225	0.82685	1.212
Mof_Zn	Zn	0.64225	0.94048	0.32685	1.212
Mof_Zn	Zn	0.1846	0.38637	0.32685	1.212
Mof_H 	H 	0.9622	0.8281	0.9566	0.026
Mof_H 	H 	0.0234	0.7872	0.9536	0.026
Mof_H 	H 	0.85	0.6915	0.9366	0.033
Mof_H 	H 	0.86	0.7718	0.9514	0.033
Mof_H 	H 	0.0095	0.6649	0.9326	0.036
Mof_H 	H 	0.943	0.6289	0.9304	0.041
Mof_H 	H 	0.9894	0.5652	0.6554	0.065
Mof_H 	H 	0.112	0.7049	0.9102	0.181
Mof_H 	H 	0.0892	0.7611	0.8836	0.183
Mof_H 	H 	0.1707	0.7577	0.9176	0.168
Mof_H 	H 	0.2137	0.6846	0.8468	0.067
Mof_H 	H 	0.0889	0.5409	0.5906	0.181
Mof_H 	H 	0.1143	0.487	0.6196	0.186
Mof_H 	H 	0.0324	0.4888	0.5864	0.169
Mof_H 	H 	0.4944	0.1285	0.9566	0.025
Mof_H 	H 	0.4302	0.1664	0.9536	0.026
Mof_H 	H 	0.5866	0.2451	0.9366	0.032
Mof_H 	H 	0.5914	0.1796	0.9514	0.033
Mof_H 	H 	0.4231	0.2677	0.9326	0.037
Mof_H 	H 	0.4874	0.3015	0.9304	0.041
Mof_H 	H 	0.166	0.0902	0.6554	0.064
Mof_H 	H 	0.2982	0.2053	0.9102	0.181
Mof_H 	H 	0.2944	0.1225	0.8836	0.183
Mof_H 	H 	0.2469	0.1599	0.9176	0.169
Mof_H 	H 	0.1331	0.1622	0.8468	0.067
Mof_H 	H 	0.0017	0.0497	0.5906	0.18
Mof_H 	H 	0.0053	0.1326	0.6196	0.185
Mof_H 	H 	0.054	0.0976	0.5864	0.169
Mof_H 	H 	0.8281	0.4944	0.4566	0.025
Mof_H 	H 	0.7872	0.4302	0.4536	0.026
Mof_H 	H 	0.6915	0.5866	0.4366	0.032
Mof_H 	H 	0.7718	0.5914	0.4514	0.033
Mof_H 	H 	0.6649	0.4231	0.4326	0.037
Mof_H 	H 	0.6289	0.4874	0.4304	0.041
Mof_H 	H 	0.5652	0.166	0.1554	0.065
Mof_H 	H 	0.7049	0.2982	0.4102	0.181
Mof_H 	H 	0.7611	0.2944	0.3836	0.183
Mof_H 	H 	0.7577	0.2469	0.4176	0.169
Mof_H 	H 	0.6846	0.1331	0.3468	0.067
Mof_H 	H 	0.5409	0.0017	0.0906	0.181
Mof_H 	H 	0.487	0.0053	0.1196	0.185
Mof_H 	H 	0.4888	0.054	0.0864	0.169
Mof_H 	H 	0.1285	0.9622	0.4566	0.025
Mof_H 	H 	0.1664	0.0234	0.4536	0.026
Mof_H 	H 	0.2451	0.85	0.4366	0.032
Mof_H 	H 	0.1796	0.86	0.4514	0.033
Mof_H 	H 	0.2677	0.0095	0.4326	0.037
Mof_H 	H 	0.3015	0.943	0.4304	0.041
Mof_H 	H 	0.0902	0.9894	0.1554	0.066
Mof_H 	H 	0.2053	0.112	0.4102	0.181
Mof_H 	H 	0.1225	0.0892	0.3836	0.183
Mof_H 	H 	0.1599	0.1707	0.4176	0.169
Mof_H 	H 	0.1622	0.2137	0.3468	0.067
Mof_H 	H 	0.0497	0.0889	0.0906	0.181
Mof_H 	H 	0.1326	0.1143	0.1196	0.186
Mof_H 	H 	0.0976	0.0324	0.0864	0.17
Mof_H 	H 	0.0056	0.6719	0.0434	0.026
Mof_H 	H 	0.0698	0.7128	0.0464	0.027
Mof_H 	H 	0.9134	0.8085	0.0634	0.033
Mof_H 	H 	0.9086	0.7282	0.0486	0.033
Mof_H 	H 	0.0769	0.8351	0.0674	0.037
Mof_H 	H 	0.0126	0.8711	0.0696	0.042
Mof_H 	H 	0.334	0.9348	0.3446	0.065
Mof_H 	H 	0.2018	0.7951	0.0898	0.182
Mof_H 	H 	0.2056	0.7389	0.1164	0.184
Mof_H 	H 	0.2531	0.7423	0.0824	0.169
Mof_H 	H 	0.3669	0.8154	0.1532	0.067
Mof_H 	H 	0.4983	0.9591	0.4094	0.181
Mof_H 	H 	0.4947	0.013	0.3804	0.185
Mof_H 	H 	0.446	0.0112	0.4136	0.169
Mof_H 	H 	0.5378	0.3715	0.0434	0.025
Mof_H 	H 	0.4766	0.3336	0.0464	0.026
Mof_H 	H 	0.65	0.2549	0.0634	0.032
Mof_H 	H 	0.64	0.3204	0.0486	0.033
Mof_H 	H 	0.4905	0.2323	0.0674	0.037
Mof_H 	H 	0.557	0.1985	0.0696	0.041
Mof_H 	H 	0.5106	0.4098	0.3446	0.065
Mof_H 	H 	0.388	0.2947	0.0898	0.182
Mof_H 	H 	0.4108	0.3775	0.1164	0.183
Mof_H 	H 	0.3293	0.3401	0.0824	0.169
Mof_H 	H 	0.2863	0.3378	0.1532	0.067
Mof_H 	H 	0.4111	0.4503	0.4094	0.181
Mof_H 	H 	0.3857	0.3674	0.3804	0.186
Mof_H 	H 	0.4676	0.4024	0.4136	0.169
Mof_H 	H 	0.3715	0.0056	0.5434	0.025
Mof_H 	H 	0.3336	0.0698	0.5464	0.026
Mof_H 	H 	0.2549	0.9134	0.5634	0.032
Mof_H 	H 	0.3204	0.9086	0.5486	0.033
Mof_H 	H 	0.2323	0.0769	0.5674	0.037
Mof_H 	H 	0.1985	0.0126	0.5696	0.041
Mof_H 	H 	0.4098	0.334	0.8446	0.065
Mof_H 	H 	0.2947	0.2018	0.5898	0.181
Mof_H 	H 	0.3775	0.2056	0.6164	0.183
Mof_H 	H 	0.3401	0.2531	0.5824	0.169
Mof_H 	H 	0.3378	0.3669	0.6532	0.067
Mof_H 	H 	0.4503	0.4983	0.9094	0.181
Mof_H 	H 	0.3674	0.4947	0.8804	0.186
Mof_H 	H 	0.4024	0.446	0.9136	0.17
Mof_H 	H 	0.6719	0.5378	0.5434	0.025
Mof_H 	H 	0.7128	0.4766	0.5464	0.026
Mof_H 	H 	0.8085	0.65	0.5634	0.032
Mof_H 	H 	0.7282	0.64	0.5486	0.033
Mof_H 	H 	0.8351	0.4905	0.5674	0.037
Mof_H 	H 	0.8711	0.557	0.5696	0.041
Mof_H 	H 	0.9348	0.5106	0.8446	0.064
Mof_H 	H 	0.7951	0.388	0.5898	0.182
Mof_H 	H 	0.7389	0.4108	0.6164	0.183
Mof_H 	H 	0.7423	0.3293	0.5824	0.169
Mof_H 	H 	0.8154	0.2863	0.6532	0.067
Mof_H 	H 	0.9591	0.4111	0.9094	0.178
Mof_H 	H 	0.013	0.3857	0.8804	0.182
Mof_H 	H 	0.0112	0.4676	0.9136	0.166
Mof_H 	H 	0.0378	0.1719	0.0434	0.025
Mof_H 	H 	0.9766	0.2128	0.0464	0.025
Mof_H 	H 	0.15	0.3085	0.0634	0.032
Mof_H 	H 	0.14	0.2282	0.0486	0.032
Mof_H 	H 	0.9905	0.3351	0.0674	0.036
Mof_H 	H 	0.057	0.3711	0.0696	0.041
Mof_H 	H 	0.0106	0.4348	0.3446	0.065
Mof_H 	H 	0.888	0.2951	0.0898	0.181
Mof_H 	H 	0.9108	0.2389	0.1164	0.183
Mof_H 	H 	0.8293	0.2423	0.0824	0.168
Mof_H 	H 	0.7863	0.3154	0.1532	0.067
Mof_H 	H 	0.9111	0.4591	0.4094	0.181
Mof_H 	H 	0.8857	0.513	0.3804	0.186
Mof_H 	H 	0.9676	0.5112	0.4136	0.169
Mof_H 	H 	0.5056	0.8715	0.0434	0.025
Mof_H 	H 	0.5698	0.8336	0.0464	0.026
Mof_H 	H 	0.4134	0.7549	0.0634	0.032
Mof_H 	H 	0.4086	0.8204	0.0486	0.033
Mof_H 	H 	0.5769	0.7323	0.0674	0.037
Mof_H 	H 	0.5126	0.6985	0.0696	0.041
Mof_H 	H 	0.834	0.9098	0.3446	0.064
Mof_H 	H 	0.7018	0.7947	0.0898	0.181
Mof_H 	H 	0.7056	0.8775	0.1164	0.183
Mof_H 	H 	0.7531	0.8401	0.0824	0.169
Mof_H 	H 	0.8669	0.8378	0.1532	0.067
Mof_H 	H 	0.9983	0.9503	0.4094	0.18
Mof_H 	H 	0.9947	0.8674	0.3804	0.185
Mof_H 	H 	0.946	0.9024	0.4136	0.169
Mof_H 	H 	0.1719	0.5056	0.5434	0.025
Mof_H 	H 	0.2128	0.5698	0.5464	0.026
Mof_H 	H 	0.3085	0.4134	0.5634	0.032
Mof_H 	H 	0.2282	0.4086	0.5486	0.033
Mof_H 	H 	0.3351	0.5769	0.5674	0.037
Mof_H 	H 	0.3711	0.5126	0.5696	0.041
Mof_H 	H 	0.4348	0.834	0.8446	0.065
Mof_H 	H 	0.2951	0.7018	0.5898	0.181
Mof_H 	H 	0.2389	0.7056	0.6164	0.183
Mof_H 	H 	0.2423	0.7531	0.5824	0.169
Mof_H 	H 	0.3154	0.8669	0.6532	0.067
Mof_H 	H 	0.4591	0.9983	0.9094	0.181
Mof_H 	H 	0.513	0.9947	0.8804	0.185
Mof_H 	H 	0.5112	0.946	0.9136	0.169
Mof_H 	H 	0.8715	0.0378	0.5434	0.025
Mof_H 	H 	0.8336	0.9766	0.5464	0.026
Mof_H 	H 	0.7549	0.15	0.5634	0.032
Mof_H 	H 	0.8204	0.14	0.5486	0.033
Mof_H 	H 	0.7323	0.9905	0.5674	0.037
Mof_H 	H 	0.6985	0.057	0.5696	0.041
Mof_H 	H 	0.9098	0.0106	0.8446	0.066
Mof_H 	H 	0.7947	0.888	0.5898	0.181
Mof_H 	H 	0.8775	0.9108	0.6164	0.183
Mof_H 	H 	0.8401	0.8293	0.5824	0.169
Mof_H 	H 	0.8378	0.7863	0.6532	0.067
Mof_H 	H 	0.9503	0.9111	0.9094	0.181
Mof_H 	H 	0.8674	0.8857	0.8804	0.186
Mof_H 	H 	0.9024	0.9676	0.9136	0.17
Mof_H 	H 	0.9944	0.3281	0.9566	0.026
Mof_H 	H 	0.9302	0.2872	0.9536	0.027
Mof_H 	H 	0.0866	0.1915	0.9366	0.033
Mof_H 	H 	0.0914	0.2718	0.9514	0.033
Mof_H 	H 	0.9231	0.1649	0.9326	0.037
Mof_H 	H 	0.9874	0.1289	0.9304	0.042
Mof_H 	H 	0.666	0.0652	0.6554	0.065
Mof_H 	H 	0.7982	0.2049	0.9102	0.182
Mof_H 	H 	0.7944	0.2611	0.8836	0.184
Mof_H 	H 	0.7469	0.2577	0.9176	0.169
Mof_H 	H 	0.6331	0.1846	0.8468	0.067
Mof_H 	H 	0.5017	0.0409	0.5906	0.181
Mof_H 	H 	0.5053	0.987	0.6196	0.185
Mof_H 	H 	0.554	0.9888	0.5864	0.169
Mof_H 	H 	0.4622	0.6285	0.9566	0.025
Mof_H 	H 	0.5234	0.6664	0.9536	0.026
Mof_H 	H 	0.35	0.7451	0.9366	0.032
Mof_H 	H 	0.36	0.6796	0.9514	0.033
Mof_H 	H 	0.5095	0.7677	0.9326	0.037
Mof_H 	H 	0.443	0.8015	0.9304	0.041
Mof_H 	H 	0.4894	0.5902	0.6554	0.065
Mof_H 	H 	0.612	0.7053	0.9102	0.182
Mof_H 	H 	0.5892	0.6225	0.8836	0.183
Mof_H 	H 	0.6707	0.6599	0.9176	0.169
Mof_H 	H 	0.7137	0.6622	0.8468	0.067
Mof_H 	H 	0.5889	0.5497	0.5906	0.181
Mof_H 	H 	0.6143	0.6326	0.6196	0.186
Mof_H 	H 	0.5324	0.5976	0.5864	0.169
Mof_H 	H 	0.6285	0.9944	0.4566	0.025
Mof_H 	H 	0.6664	0.9302	0.4536	0.026
Mof_H 	H 	0.7451	0.0866	0.4366	0.032
Mof_H 	H 	0.6796	0.0914	0.4514	0.033
Mof_H 	H 	0.7677	0.9231	0.4326	0.037
Mof_H 	H 	0.8015	0.9874	0.4304	0.041
Mof_H 	H 	0.5902	0.666	0.1554	0.065
Mof_H 	H 	0.7053	0.7982	0.4102	0.181
Mof_H 	H 	0.6225	0.7944	0.3836	0.183
Mof_H 	H 	0.6599	0.7469	0.4176	0.169
Mof_H 	H 	0.6622	0.6331	0.3468	0.067
Mof_H 	H 	0.5497	0.5017	0.0906	0.181
Mof_H 	H 	0.6326	0.5053	0.1196	0.186
Mof_H 	H 	0.5976	0.554	0.0864	0.17
Mof_H 	H 	0.3281	0.4622	0.4566	0.025
Mof_H 	H 	0.2872	0.5234	0.4536	0.026
Mof_H 	H 	0.1915	0.35	0.4366	0.032
Mof_H 	H 	0.2718	0.36	0.4514	0.033
Mof_H 	H 	0.1649	0.5095	0.4326	0.037
Mof_H 	H 	0.1289	0.443	0.4304	0.041
Mof_H 	H 	0.0652	0.4894	0.1554	0.064
Mof_H 	H 	0.2049	0.612	0.4102	0.182
Mof_H 	H 	0.2611	0.5892	0.3836	0.183
Mof_H 	H 	0.2577	0.6707	0.4176	0.169
Mof_H 	H 	0.1846	0.7137	0.3468	0.067
Mof_H 	H 	0.0409	0.5889	0.0906	0.178
Mof_H 	H 	0.987	0.6143	0.1196	0.182
Mof_H 	H 	0.9888	0.5324	0.0864	0.166
Mof_C 	C 	0.98758	0.79437	0.96926	-0.05
Mof_C 	C 	0.8855	0.73659	0.96076	-0.053
Mof_C 	C 	0.97643	0.67446	0.95162	-0.066
Mof_C 	C 	0.97351	0.64934	0.75966	0.379
Mof_C 	C 	0.04163	0.63909	0.75774	-0.122
Mof_C 	C 	0.03558	0.58939	0.69436	-0.093
Mof_C 	C 	0.10959	0.67578	0.81726	0.179
Mof_C 	C 	0.1214	0.72959	0.88844	-0.531
Mof_C 	C 	0.22999	0.60074	0.74256	0.38
Mof_C 	C 	0.16161	0.61047	0.74418	-0.123
Mof_C 	C 	0.16754	0.66021	0.8079	-0.095
Mof_C 	C 	0.09401	0.57335	0.6853	0.178
Mof_C 	C 	0.08131	0.51757	0.61418	-0.535
Mof_C 	C 	0.48168	0.17489	0.96926	-0.051
Mof_C 	C 	0.57526	0.22417	0.96076	-0.054
Mof_C 	C 	0.47519	0.27716	0.95162	-0.067
Mof_C 	C 	0.28615	0.11032	0.75966	0.378
Mof_C 	C 	0.21611	0.11865	0.75774	-0.122
Mof_C 	C 	0.15878	0.10497	0.69436	-0.092
Mof_C 	C 	0.20767	0.14148	0.81726	0.179
Mof_C 	C 	0.26704	0.15885	0.88844	-0.532
Mof_C 	C 	0.01257	0.14182	0.74256	0.379
Mof_C 	C 	0.08257	0.13371	0.74418	-0.123
Mof_C 	C 	0.14036	0.14769	0.8079	-0.095
Mof_C 	C 	0.09129	0.11195	0.6853	0.177
Mof_C 	C 	0.03287	0.09661	0.61418	-0.534
Mof_C 	C 	0.79437	0.48168	0.46926	-0.051
Mof_C 	C 	0.73659	0.57526	0.46076	-0.054
Mof_C 	C 	0.67446	0.47519	0.45162	-0.068
Mof_C 	C 	0.64934	0.28615	0.25966	0.378
Mof_C 	C 	0.63909	0.21611	0.25774	-0.122
Mof_C 	C 	0.58939	0.15878	0.19436	-0.092
Mof_C 	C 	0.67578	0.20767	0.31726	0.179
Mof_C 	C 	0.72959	0.26704	0.38844	-0.532
Mof_C 	C 	0.60074	0.01257	0.24256	0.38
Mof_C 	C 	0.61047	0.08257	0.24418	-0.123
Mof_C 	C 	0.66021	0.14036	0.3079	-0.095
Mof_C 	C 	0.57335	0.09129	0.1853	0.178
Mof_C 	C 	0.51757	0.03287	0.11418	-0.534
Mof_C 	C 	0.17489	0.98758	0.46926	-0.05
Mof_C 	C 	0.22417	0.8855	0.46076	-0.054
Mof_C 	C 	0.27716	0.97643	0.45162	-0.067
Mof_C 	C 	0.11032	0.97351	0.25966	0.379
Mof_C 	C 	0.11865	0.04163	0.25774	-0.122
Mof_C 	C 	0.10497	0.03558	0.19436	-0.094
Mof_C 	C 	0.14148	0.10959	0.31726	0.179
Mof_C 	C 	0.15885	0.1214	0.38844	-0.532
Mof_C 	C 	0.14182	0.22999	0.24256	0.38
Mof_C 	C 	0.13371	0.16161	0.24418	-0.123
Mof_C 	C 	0.14769	0.16754	0.3079	-0.094
Mof_C 	C 	0.11195	0.09401	0.1853	0.178
Mof_C 	C 	0.09661	0.08131	0.11418	-0.535
Mof_C 	C 	0.01832	0.70563	0.03074	-0.052
Mof_C 	C 	0.92474	0.76341	0.03924	-0.057
Mof_C 	C 	0.02481	0.82554	0.04838	-0.068
Mof_C 	C 	0.21385	0.85066	0.24034	0.378
Mof_C 	C 	0.28389	0.86091	0.24226	-0.122
Mof_C 	C 	0.34122	0.91061	0.30564	-0.092
Mof_C 	C 	0.29233	0.82422	0.18274	0.179
Mof_C 	C 	0.23296	0.77041	0.11156	-0.533
Mof_C 	C 	0.48743	0.89926	0.25744	0.38
Mof_C 	C 	0.41743	0.88953	0.25582	-0.123
Mof_C 	C 	0.35964	0.83979	0.1921	-0.095
Mof_C 	C 	0.40871	0.92665	0.3147	0.177
Mof_C 	C 	0.46713	0.98243	0.38582	-0.533
Mof_C 	C 	0.51242	0.32511	0.03074	-0.052
Mof_C 	C 	0.6145	0.27583	0.03924	-0.055
Mof_C 	C 	0.52357	0.22284	0.04838	-0.068
Mof_C 	C 	0.52649	0.38968	0.24034	0.378
Mof_C 	C 	0.45837	0.38135	0.24226	-0.122
Mof_C 	C 	0.46442	0.39503	0.30564	-0.092
Mof_C 	C 	0.39041	0.35852	0.18274	0.179
Mof_C 	C 	0.3786	0.34115	0.11156	-0.532
Mof_C 	C 	0.27001	0.35818	0.25744	0.38
Mof_C 	C 	0.33839	0.36629	0.25582	-0.123
Mof_C 	C 	0.33246	0.35231	0.1921	-0.095
Mof_C 	C 	0.40599	0.38805	0.3147	0.178
Mof_C 	C 	0.41869	0.40339	0.38582	-0.534
Mof_C 	C 	0.32511	0.01832	0.53074	-0.052
Mof_C 	C 	0.27583	0.92474	0.53924	-0.054
Mof_C 	C 	0.22284	0.02481	0.54838	-0.068
Mof_C 	C 	0.38968	0.21385	0.74034	0.378
Mof_C 	C 	0.38135	0.28389	0.74226	-0.122
Mof_C 	C 	0.39503	0.34122	0.80564	-0.092
Mof_C 	C 	0.35852	0.29233	0.68274	0.179
Mof_C 	C 	0.34115	0.23296	0.61156	-0.532
Mof_C 	C 	0.35818	0.48743	0.75744	0.38
Mof_C 	C 	0.36629	0.41743	0.75582	-0.123
Mof_C 	C 	0.35231	0.35964	0.6921	-0.095
Mof_C 	C 	0.38805	0.40871	0.8147	0.178
Mof_C 	C 	0.40339	0.46713	0.88582	-0.534
Mof_C 	C 	0.70563	0.51242	0.53074	-0.051
Mof_C 	C 	0.76341	0.6145	0.53924	-0.054
Mof_C 	C 	0.82554	0.52357	0.54838	-0.068
Mof_C 	C 	0.85066	0.52649	0.74034	0.379
Mof_C 	C 	0.86091	0.45837	0.74226	-0.123
Mof_C 	C 	0.91061	0.46442	0.80564	-0.09
Mof_C 	C 	0.82422	0.39041	0.68274	0.18
Mof_C 	C 	0.77041	0.3786	0.61156	-0.533
Mof_C 	C 	0.89926	0.27001	0.75744	0.38
Mof_C 	C 	0.88953	0.33839	0.75582	-0.121
Mof_C 	C 	0.83979	0.33246	0.6921	-0.096
Mof_C 	C 	0.92665	0.40599	0.8147	0.175
Mof_C 	C 	0.98243	0.41869	0.88582	-0.525
Mof_C 	C 	0.01242	0.20563	0.03074	-0.05
Mof_C 	C 	0.1145	0.26341	0.03924	-0.053
Mof_C 	C 	0.02357	0.32554	0.04838	-0.066
Mof_C 	C 	0.02649	0.35066	0.24034	0.379
Mof_C 	C 	0.95837	0.36091	0.24226	-0.122
Mof_C 	C 	0.96442	0.41061	0.30564	-0.093
Mof_C 	C 	0.89041	0.32422	0.18274	0.179
Mof_C 	C 	0.8786	0.27041	0.11156	-0.531
Mof_C 	C 	0.77001	0.39926	0.25744	0.38
Mof_C 	C 	0.83839	0.38953	0.25582	-0.123
Mof_C 	C 	0.83246	0.33979	0.1921	-0.095
Mof_C 	C 	0.90599	0.42665	0.3147	0.178
Mof_C 	C 	0.91869	0.48243	0.38582	-0.535
Mof_C 	C 	0.51832	0.82511	0.03074	-0.051
Mof_C 	C 	0.42474	0.77583	0.03924	-0.054
Mof_C 	C 	0.52481	0.72284	0.04838	-0.067
Mof_C 	C 	0.71385	0.88968	0.24034	0.378
Mof_C 	C 	0.78389	0.88135	0.24226	-0.122
Mof_C 	C 	0.84122	0.89503	0.30564	-0.092
Mof_C 	C 	0.79233	0.85852	0.18274	0.179
Mof_C 	C 	0.73296	0.84115	0.11156	-0.532
Mof_C 	C 	0.98743	0.85818	0.25744	0.379
Mof_C 	C 	0.91743	0.86629	0.25582	-0.123
Mof_C 	C 	0.85964	0.85231	0.1921	-0.095
Mof_C 	C 	0.90871	0.88805	0.3147	0.177
Mof_C 	C 	0.96713	0.90339	0.38582	-0.534
Mof_C 	C 	0.20563	0.51832	0.53074	-0.051
Mof_C 	C 	0.26341	0.42474	0.53924	-0.054
Mof_C 	C 	0.32554	0.52481	0.54838	-0.068
Mof_C 	C 	0.35066	0.71385	0.74034	0.378
Mof_C 	C 	0.36091	0.78389	0.74226	-0.122
Mof_C 	C 	0.41061	0.84122	0.80564	-0.092
Mof_C 	C 	0.32422	0.79233	0.68274	0.179
Mof_C 	C 	0.27041	0.73296	0.61156	-0.532
Mof_C 	C 	0.39926	0.98743	0.75744	0.38
Mof_C 	C 	0.38953	0.91743	0.75582	-0.123
Mof_C 	C 	0.33979	0.85964	0.6921	-0.095
Mof_C 	C 	0.42665	0.90871	0.8147	0.178
Mof_C 	C 	0.48243	0.96713	0.88582	-0.534
Mof_C 	C 	0.82511	0.01242	0.53074	-0.05
Mof_C 	C 	0.77583	0.1145	0.53924	-0.054
Mof_C 	C 	0.72284	0.02357	0.54838	-0.067
Mof_C 	C 	0.88968	0.02649	0.74034	0.379
Mof_C 	C 	0.88135	0.95837	0.74226	-0.122
Mof_C 	C 	0.89503	0.96442	0.80564	-0.094
Mof_C 	C 	0.85852	0.89041	0.68274	0.179
Mof_C 	C 	0.84115	0.8786	0.61156	-0.532
Mof_C 	C 	0.85818	0.77001	0.75744	0.38
Mof_C 	C 	0.86629	0.83839	0.75582	-0.123
Mof_C 	C 	0.85231	0.83246	0.6921	-0.094
Mof_C 	C 	0.88805	0.90599	0.8147	0.178
Mof_C 	C 	0.90339	0.91869	0.88582	-0.535
Mof_C 	C 	0.98168	0.29437	0.96926	-0.052
Mof_C 	C 	0.07526	0.23659	0.96076	-0.057
Mof_C 	C 	0.97519	0.17446	0.95162	-0.068
Mof_C 	C 	0.78615	0.14934	0.75966	0.378
Mof_C 	C 	0.71611	0.13909	0.75774	-0.122
Mof_C 	C 	0.65878	0.08939	0.69436	-0.092
Mof_C 	C 	0.70767	0.17578	0.81726	0.179
Mof_C 	C 	0.76704	0.22959	0.88844	-0.533
Mof_C 	C 	0.51257	0.10074	0.74256	0.38
Mof_C 	C 	0.58257	0.11047	0.74418	-0.123
Mof_C 	C 	0.64036	0.16021	0.8079	-0.095
Mof_C 	C 	0.59129	0.07335	0.6853	0.177
Mof_C 	C 	0.53287	0.01757	0.61418	-0.533
Mof_C 	C 	0.48758	0.67489	0.96926	-0.052
Mof_C 	C 	0.3855	0.72417	0.96076	-0.055
Mof_C 	C 	0.47643	0.77716	0.95162	-0.068
Mof_C 	C 	0.47351	0.61032	0.75966	0.378
Mof_C 	C 	0.54163	0.61865	0.75774	-0.122
Mof_C 	C 	0.53558	0.60497	0.69436	-0.092
Mof_C 	C 	0.60959	0.64148	0.81726	0.179
Mof_C 	C 	0.6214	0.65885	0.88844	-0.532
Mof_C 	C 	0.72999	0.64182	0.74256	0.38
Mof_C 	C 	0.66161	0.63371	0.74418	-0.123
Mof_C 	C 	0.66754	0.64769	0.8079	-0.095
Mof_C 	C 	0.59401	0.61195	0.6853	0.178
Mof_C 	C 	0.58131	0.59661	0.61418	-0.534
Mof_C 	C 	0.67489	0.98168	0.46926	-0.052
Mof_C 	C 	0.72417	0.07526	0.46076	-0.054
Mof_C 	C 	0.77716	0.97519	0.45162	-0.068
Mof_C 	C 	0.61032	0.78615	0.25966	0.378
Mof_C 	C 	0.61865	0.71611	0.25774	-0.122
Mof_C 	C 	0.60497	0.65878	0.19436	-0.092
Mof_C 	C 	0.64148	0.70767	0.31726	0.179
Mof_C 	C 	0.65885	0.76704	0.38844	-0.532
Mof_C 	C 	0.64182	0.51257	0.24256	0.38
Mof_C 	C 	0.63371	0.58257	0.24418	-0.123
Mof_C 	C 	0.64769	0.64036	0.3079	-0.095
Mof_C 	C 	0.61195	0.59129	0.1853	0.178
Mof_C 	C 	0.59661	0.53287	0.11418	-0.534
Mof_C 	C 	0.29437	0.48758	0.46926	-0.051
Mof_C 	C 	0.23659	0.3855	0.46076	-0.054
Mof_C 	C 	0.17446	0.47643	0.45162	-0.068
Mof_C 	C 	0.14934	0.47351	0.25966	0.379
Mof_C 	C 	0.13909	0.54163	0.25774	-0.123
Mof_C 	C 	0.08939	0.53558	0.19436	-0.09
Mof_C 	C 	0.17578	0.60959	0.31726	0.18
Mof_C 	C 	0.22959	0.6214	0.38844	-0.533
Mof_C 	C 	0.10074	0.72999	0.24256	0.38
Mof_C 	C 	0.11047	0.66161	0.24418	-0.121
Mof_C 	C 	0.16021	0.66754	0.3079	-0.096
Mof_C 	C 	0.07335	0.59401	0.1853	0.175
Mof_C 	C 	0.01757	0.58131	0.11418	-0.525
Mof_N 	N 	0.93586	0.72489	0.93316	-0.197
Mof_N 	N 	0.4973	0.20827	0.93316	-0.196
Mof_N 	N 	0.72489	0.4973	0.43316	-0.196
Mof_N 	N 	0.20827	0.93586	0.43316	-0.197
Mof_N 	N 	0.0027	0.77511	0.06684	-0.196
Mof_N 	N 	0.56414	0.29173	0.06684	-0.196
Mof_N 	N 	0.29173	0.0027	0.56684	-0.196
Mof_N 	N 	0.77511	0.56414	0.56684	-0.196
Mof_N 	N 	0.06414	0.27511	0.06684	-0.197
Mof_N 	N 	0.5027	0.79173	0.06684	-0.196
Mof_N 	N 	0.27511	0.5027	0.56684	-0.196
Mof_N 	N 	0.79173	0.06414	0.56684	-0.197
Mof_N 	N 	0.9973	0.22489	0.93316	-0.196
Mof_N 	N 	0.43586	0.70827	0.93316	-0.196
Mof_N 	N 	0.70827	0.9973	0.43316	-0.196
Mof_N 	N 	0.22489	0.43586	0.43316	-0.196
Mof_O 	O 	0.9733	0.6628	0.81528	-0.461
Mof_O 	O 	0.2297	0.58261	0.68592	-0.467
Mof_O 	O 	0.92142	0.64248	0.70484	-0.461
Mof_O 	O 	0.28344	0.61339	0.79968	-0.466
Mof_O 	O 	0.34198	0.15248	0.81528	-0.461
Mof_O 	O 	0.95622	0.10331	0.68592	-0.466
Mof_O 	O 	0.28342	0.06236	0.70484	-0.461
Mof_O 	O 	0.01624	0.18629	0.79968	-0.466
Mof_O 	O 	0.6628	0.34198	0.31528	-0.461
Mof_O 	O 	0.58261	0.95622	0.18592	-0.466
Mof_O 	O 	0.64248	0.28342	0.20484	-0.461
Mof_O 	O 	0.61339	0.01624	0.29968	-0.466
Mof_O 	O 	0.15248	0.9733	0.31528	-0.461
Mof_O 	O 	0.10331	0.2297	0.18592	-0.467
Mof_O 	O 	0.06236	0.92142	0.20484	-0.46
Mof_O 	O 	0.18629	0.28344	0.29968	-0.466
Mof_O 	O 	0.15802	0.8372	0.18472	-0.461
Mof_O 	O 	0.54378	0.91739	0.31408	-0.467
Mof_O 	O 	0.21658	0.85752	0.29516	-0.461
Mof_O 	O 	0.48376	0.88661	0.20032	-0.466
Mof_O 	O 	0.5267	0.34752	0.18472	-0.461
Mof_O 	O 	0.2703	0.39669	0.31408	-0.467
Mof_O 	O 	0.57858	0.43764	0.29516	-0.461
Mof_O 	O 	0.21656	0.31371	0.20032	-0.466
Mof_O 	O 	0.34752	0.15802	0.68472	-0.461
Mof_O 	O 	0.39669	0.54378	0.81408	-0.467
Mof_O 	O 	0.43764	0.21658	0.79516	-0.461
Mof_O 	O 	0.31371	0.48376	0.70032	-0.466
Mof_O 	O 	0.8372	0.5267	0.68472	-0.461
Mof_O 	O 	0.91739	0.2703	0.81408	-0.466
Mof_O 	O 	0.85752	0.57858	0.79516	-0.461
Mof_O 	O 	0.88661	0.21656	0.70032	-0.466
Mof_O 	O 	0.0267	0.3372	0.18472	-0.461
Mof_O 	O 	0.7703	0.41739	0.31408	-0.467
Mof_O 	O 	0.07858	0.35752	0.29516	-0.461
Mof_O 	O 	0.71656	0.38661	0.20032	-0.466
Mof_O 	O 	0.65802	0.84752	0.18472	-0.461
Mof_O 	O 	0.04378	0.89669	0.31408	-0.466
Mof_O 	O 	0.71658	0.93764	0.29516	-0.461
Mof_O 	O 	0.98376	0.81371	0.20032	-0.466
Mof_O 	O 	0.3372	0.65802	0.68472	-0.461
Mof_O 	O 	0.41739	0.04378	0.81408	-0.466
Mof_O 	O 	0.35752	0.71658	0.79516	-0.461
Mof_O 	O 	0.38661	0.98376	0.70032	-0.466
Mof_O 	O 	0.84752	0.0267	0.68472	-0.461
Mof_O 	O 	0.89669	0.7703	0.81408	-0.467
Mof_O 	O 	0.93764	0.07858	0.79516	-0.46
Mof_O 	O 	0.81371	0.71656	0.70032	-0.466
Mof_O 	O 	0.84198	0.1628	0.81528	-0.461
Mof_O 	O 	0.45622	0.08261	0.68592	-0.467
Mof_O 	O 	0.78342	0.14248	0.70484	-0.461
Mof_O 	O 	0.51624	0.11339	0.79968	-0.466
Mof_O 	O 	0.4733	0.65248	0.81528	-0.461
Mof_O 	O 	0.7297	0.60331	0.68592	-0.467
Mof_O 	O 	0.42142	0.56236	0.70484	-0.461
Mof_O 	O 	0.78344	0.68629	0.79968	-0.466
Mof_O 	O 	0.65248	0.84198	0.31528	-0.461
Mof_O 	O 	0.60331	0.45622	0.18592	-0.467
Mof_O 	O 	0.56236	0.78342	0.20484	-0.461
Mof_O 	O 	0.68629	0.51624	0.29968	-0.466
Mof_O 	O 	0.1628	0.4733	0.31528	-0.461
Mof_O 	O 	0.08261	0.7297	0.18592	-0.466
Mof_O 	O 	0.14248	0.42142	0.20484	-0.461
Mof_O 	O 	0.11339	0.78344	0.29968	-0.466
_end
