data_functionalizedCrystal
_audit_creation_method	'EQeq! by Chris Wilmer'
_symmetry_space_group_name_H-M	'P1'
_symmetry_Int_Tables_number	1
_symmetry_cell_setting	triclinic
loop_
_symmetry_equiv_pos_as_xyz
  x,y,z
_cell_length_a	9.239
_cell_length_b	13.5278
_cell_length_c	14.6379
_cell_angle_alpha	90
_cell_angle_beta	90.354
_cell_angle_gamma	90
loop_
_atom_site_label
_atom_site_type_symbol
_atom_site_fract_x
_atom_site_fract_y
_atom_site_fract_z
_atom_site_charge
Mof_Eu	Eu	0.75117	0.5031	0.59265	2.469
Mof_C 	C 	0.9917	0.3946	0.8361	-0.054
Mof_C 	C 	0.964	0.3006	0.8715	0.029
Mof_H 	H 	0.8923	0.2594	0.8444	0.037
Mof_C 	C 	0.0436	0.2678	0.9478	-0.145
Mof_C 	C 	0.144	0.3321	0.989	-0.058
Mof_H 	H 	0.1992	0.3096	0.0399	0.065
Mof_C 	C 	0.1645	0.4277	0.9573	0.097
Mof_C 	C 	0.0911	0.4568	0.8789	-0.091
Mof_H 	H 	0.1091	0.5204	0.8539	0.079
Mof_C 	C 	0.2618	0.4968	0.0087	-0.273
Mof_C 	C 	0.3455	0.5714	0.9543	0.091
Mof_C 	C 	0.3658	0.6665	0.9875	-0.045
Mof_H 	H 	0.3169	0.6861	0.0414	0.057
Mof_C 	C 	0.4557	0.7338	0.9441	-0.136
Mof_C 	C 	0.5271	0.7047	0.8646	0.024
Mof_H 	H 	0.5922	0.7489	0.8356	0.04
Mof_C 	C 	0.5033	0.6109	0.8278	-0.053
Mof_C 	C 	0.4109	0.5456	0.8726	-0.088
Mof_H 	H 	0.3924	0.4824	0.8467	0.077
Mof_C 	C 	0.9128	0.4325	0.7526	0.302
Mof_C 	C 	0.0235	0.1653	0.9862	0.552
Mof_C 	C 	0.4752	0.8346	0.9842	0.511
Mof_C 	C 	0.5829	0.5748	0.7445	0.295
Mof_O 	O 	0.9706	0.5024	0.7073	-0.392
Mof_O 	O 	0.7931	0.3956	0.7306	-0.425
Mof_O 	O 	0.9165	0.1171	0.9621	-0.626
Mof_O 	O 	0.1191	0.1348	0.0402	-0.586
Mof_O 	O 	0.4006	0.8571	0.0539	-0.551
Mof_O 	O 	0.564	0.8923	0.9488	-0.593
Mof_O 	O 	0.7051	0.6127	0.7263	-0.423
Mof_O 	O 	0.5256	0.508	0.6959	-0.412
Mof_H 	H 	0.21	0.533	0.055	0.119
Mof_H 	H 	0.326	0.456	0.045	0.118
Mof_Eu	Eu	0.74883	0.0031	0.90735	2.449
Mof_C 	C 	0.5083	0.8946	0.6639	-0.063
Mof_C 	C 	0.536	0.8006	0.6285	0.037
Mof_H 	H 	0.6077	0.7594	0.6556	0.036
Mof_C 	C 	0.4564	0.7678	0.5522	-0.154
Mof_C 	C 	0.356	0.8321	0.511	-0.038
Mof_H 	H 	0.3008	0.8096	0.4601	0.055
Mof_C 	C 	0.3355	0.9277	0.5427	0.091
Mof_C 	C 	0.4089	0.9568	0.6211	-0.077
Mof_H 	H 	0.3909	0.0204	0.6461	0.074
Mof_C 	C 	0.2382	0.9968	0.4913	-0.28
Mof_C 	C 	0.1545	0.0714	0.5457	0.099
Mof_C 	C 	0.1342	0.1665	0.5125	-0.054
Mof_H 	H 	0.1831	0.1861	0.4586	0.061
Mof_C 	C 	0.0443	0.2338	0.5559	-0.132
Mof_C 	C 	0.9729	0.2047	0.6354	0.02
Mof_H 	H 	0.9078	0.2489	0.6644	0.041
Mof_C 	C 	0.9967	0.1109	0.6722	-0.051
Mof_C 	C 	0.0891	0.0456	0.6274	-0.094
Mof_H 	H 	0.1076	0.9824	0.6533	0.08
Mof_C 	C 	0.5872	0.9325	0.7474	0.311
Mof_C 	C 	0.4765	0.6653	0.5138	0.576
Mof_C 	C 	0.0248	0.3346	0.5158	0.503
Mof_C 	C 	0.9171	0.0748	0.7555	0.294
Mof_O 	O 	0.5294	0.0024	0.7927	-0.396
Mof_O 	O 	0.7069	0.8956	0.7694	-0.423
Mof_O 	O 	0.5835	0.6171	0.5379	-0.635
Mof_O 	O 	0.3809	0.6348	0.4598	-0.605
Mof_O 	O 	0.0994	0.3571	0.4461	-0.547
Mof_O 	O 	0.936	0.3923	0.5512	-0.599
Mof_O 	O 	0.7949	0.1127	0.7737	-0.422
Mof_O 	O 	0.9744	0.008	0.8041	-0.412
Mof_H 	H 	0.29	0.033	0.445	0.122
Mof_H 	H 	0.174	0.956	0.455	0.119
Mof_Eu	Eu	0.24883	0.4969	0.40735	2.47
Mof_C 	C 	0.0083	0.6054	0.1639	-0.053
Mof_C 	C 	0.036	0.6994	0.1285	0.03
Mof_H 	H 	0.1077	0.7406	0.1556	0.038
Mof_C 	C 	0.9564	0.7322	0.0522	-0.144
Mof_C 	C 	0.856	0.6679	0.011	-0.057
Mof_H 	H 	0.8008	0.6904	0.9601	0.065
Mof_C 	C 	0.8355	0.5723	0.0427	0.097
Mof_C 	C 	0.9089	0.5432	0.1211	-0.091
Mof_H 	H 	0.8909	0.4796	0.1461	0.079
Mof_C 	C 	0.7382	0.5032	0.9913	-0.273
Mof_C 	C 	0.6545	0.4286	0.0457	0.091
Mof_C 	C 	0.6342	0.3335	0.0125	-0.045
Mof_H 	H 	0.6831	0.3139	0.9586	0.057
Mof_C 	C 	0.5443	0.2662	0.0559	-0.136
Mof_C 	C 	0.4729	0.2953	0.1354	0.024
Mof_H 	H 	0.4078	0.2511	0.1644	0.04
Mof_C 	C 	0.4967	0.3891	0.1722	-0.053
Mof_C 	C 	0.5891	0.4544	0.1274	-0.088
Mof_H 	H 	0.6076	0.5176	0.1533	0.077
Mof_C 	C 	0.0872	0.5675	0.2474	0.302
Mof_C 	C 	0.9765	0.8347	0.0138	0.552
Mof_C 	C 	0.5248	0.1654	0.0158	0.511
Mof_C 	C 	0.4171	0.4252	0.2555	0.295
Mof_O 	O 	0.0294	0.4976	0.2927	-0.392
Mof_O 	O 	0.2069	0.6044	0.2694	-0.425
Mof_O 	O 	0.0835	0.8829	0.0379	-0.626
Mof_O 	O 	0.8809	0.8652	0.9598	-0.586
Mof_O 	O 	0.5994	0.1429	0.9461	-0.551
Mof_O 	O 	0.436	0.1077	0.0512	-0.593
Mof_O 	O 	0.2949	0.3873	0.2737	-0.423
Mof_O 	O 	0.4744	0.492	0.3041	-0.412
Mof_H 	H 	0.79	0.467	0.945	0.119
Mof_H 	H 	0.674	0.544	0.955	0.118
Mof_Eu	Eu	0.25117	0.9969	0.09265	2.449
Mof_C 	C 	0.4917	0.1054	0.3361	-0.063
Mof_C 	C 	0.464	0.1994	0.3715	0.037
Mof_H 	H 	0.3923	0.2406	0.3444	0.036
Mof_C 	C 	0.5436	0.2322	0.4478	-0.154
Mof_C 	C 	0.644	0.1679	0.489	-0.038
Mof_H 	H 	0.6992	0.1904	0.5399	0.055
Mof_C 	C 	0.6645	0.0723	0.4573	0.091
Mof_C 	C 	0.5911	0.0432	0.3789	-0.077
Mof_H 	H 	0.6091	0.9796	0.3539	0.074
Mof_C 	C 	0.7618	0.0032	0.5087	-0.28
Mof_C 	C 	0.8455	0.9286	0.4543	0.099
Mof_C 	C 	0.8658	0.8335	0.4875	-0.054
Mof_H 	H 	0.8169	0.8139	0.5414	0.061
Mof_C 	C 	0.9557	0.7662	0.4441	-0.132
Mof_C 	C 	0.0271	0.7953	0.3646	0.02
Mof_H 	H 	0.0922	0.7511	0.3356	0.041
Mof_C 	C 	0.0033	0.8891	0.3278	-0.051
Mof_C 	C 	0.9109	0.9544	0.3726	-0.094
Mof_H 	H 	0.8924	0.0176	0.3467	0.08
Mof_C 	C 	0.4128	0.0675	0.2526	0.311
Mof_C 	C 	0.5235	0.3347	0.4862	0.576
Mof_C 	C 	0.9752	0.6654	0.4842	0.503
Mof_C 	C 	0.0829	0.9252	0.2445	0.294
Mof_O 	O 	0.4706	0.9976	0.2073	-0.396
Mof_O 	O 	0.2931	0.1044	0.2306	-0.423
Mof_O 	O 	0.4165	0.3829	0.4621	-0.635
Mof_O 	O 	0.6191	0.3652	0.5402	-0.605
Mof_O 	O 	0.9006	0.6429	0.5539	-0.547
Mof_O 	O 	0.064	0.6077	0.4488	-0.599
Mof_O 	O 	0.2051	0.8873	0.2263	-0.422
Mof_O 	O 	0.0256	0.992	0.1959	-0.412
Mof_H 	H 	0.71	0.967	0.555	0.122
Mof_H 	H 	0.826	0.044	0.545	0.119
_end
