data_functionalizedCrystal
_audit_creation_method	'EQeq! by Chris Wilmer'
_symmetry_space_group_name_H-M	'P1'
_symmetry_Int_Tables_number	1
_symmetry_cell_setting	triclinic
loop_
_symmetry_equiv_pos_as_xyz
  x,y,z
_cell_length_a	13.668
_cell_length_b	17.525
_cell_length_c	19.059
_cell_angle_alpha	90
_cell_angle_beta	90
_cell_angle_gamma	90
loop_
_atom_site_label
_atom_site_type_symbol
_atom_site_fract_x
_atom_site_fract_y
_atom_site_fract_z
_atom_site_charge
Mof_Cu	Cu	0.43001	0.13977	0.60977	0.9
Mof_O 	O 	0.52401	0.11773	0.6853	-0.357
Mof_O 	O 	0.5621	0.9957	0.6638	-0.177
Mof_O 	O 	0.56942	0.04848	0.92371	-0.387
Mof_O 	O 	0.4902	0.01612	0.82526	-0.269
Mof_O 	O 	0.33732	0.31384	0.04337	-0.38
Mof_O 	O 	0.3164	0.21848	0.11941	-0.283
Mof_O 	O 	0.2527	0.02286	0.99433	-0.256
Mof_O 	O 	0.3697	0.11169	0.99723	-0.274
Mof_N 	N 	0.8196	0.10564	0.82728	-0.206
Mof_N 	N 	0.0434	0.18052	0.94702	-0.208
Mof_C 	C 	0.7356	0.08211	0.85602	0.069
Mof_H 	H 	0.7328	0.0776	0.9046	0.03
Mof_C 	C 	0.6525	0.06405	0.81799	-0.089
Mof_C 	C 	0.5618	0.0404	0.85782	0.345
Mof_C 	C 	0.6576	0.06804	0.74465	0.026
Mof_C 	C 	0.5723	0.0568	0.69495	0.244
Mof_C 	C 	0.7466	0.0896	0.71525	-0.089
Mof_H 	H 	0.7532	0.0912	0.6667	0.082
Mof_C 	C 	0.825	0.1087	0.75688	0.072
Mof_H 	H 	0.8832	0.124	0.7359	0.04
Mof_C 	C 	0.1187	0.1325	0.95771	0.042
Mof_H 	H 	0.1136	0.0832	0.9399	0.016
Mof_C 	C 	0.2036	0.1517	0.99374	-0.017
Mof_C 	C 	0.2831	0.0912	0.99696	0.3
Mof_C 	C 	0.211	0.2258	0.02048	-0.046
Mof_C 	C 	0.2966	0.2524	0.06544	0.31
Mof_C 	C 	0.1328	0.2752	0.00949	-0.111
Mof_H 	H 	0.1358	0.3249	0.0264	0.076
Mof_C 	C 	0.05111	0.25105	0.97374	0.056
Mof_H 	H 	0.9993	0.2849	0.9679	0.065
Mof_Cu	Cu	0.06999	0.86023	0.10977	0.891
Mof_O 	O 	0.97599	0.88227	0.1853	-0.368
Mof_O 	O 	0.9379	0.0043	0.1638	-0.307
Mof_O 	O 	0.93058	0.95152	0.42371	-0.369
Mof_O 	O 	0.0098	0.98388	0.32526	-0.286
Mof_O 	O 	0.16268	0.68616	0.54337	-0.372
Mof_O 	O 	0.1836	0.78152	0.61941	-0.258
Mof_O 	O 	0.2473	0.97714	0.49433	-0.228
Mof_O 	O 	0.1303	0.88831	0.49723	-0.288
Mof_N 	N 	0.6804	0.89436	0.32728	-0.202
Mof_N 	N 	0.4566	0.81948	0.44702	-0.204
Mof_C 	C 	0.7644	0.91789	0.35602	0.071
Mof_H 	H 	0.7672	0.9224	0.4046	0.039
Mof_C 	C 	0.8475	0.93595	0.31799	-0.073
Mof_C 	C 	0.9382	0.9596	0.35782	0.389
Mof_C 	C 	0.8424	0.93196	0.24465	0.002
Mof_C 	C 	0.9277	0.9432	0.19495	0.38
Mof_C 	C 	0.7534	0.9104	0.21525	-0.065
Mof_H 	H 	0.7468	0.9088	0.1667	0.078
Mof_C 	C 	0.675	0.8913	0.25688	0.069
Mof_H 	H 	0.6168	0.876	0.2359	0.034
Mof_C 	C 	0.3813	0.8675	0.45771	0.054
Mof_H 	H 	0.3864	0.9168	0.4399	0.031
Mof_C 	C 	0.2964	0.8483	0.49374	-0.067
Mof_C 	C 	0.2169	0.9088	0.49696	0.311
Mof_C 	C 	0.289	0.7742	0.52048	0.011
Mof_C 	C 	0.2034	0.7476	0.56544	0.299
Mof_C 	C 	0.3672	0.7248	0.50949	-0.085
Mof_H 	H 	0.3642	0.6751	0.5264	0.083
Mof_C 	C 	0.44889	0.74895	0.47374	0.069
Mof_H 	H 	0.5007	0.7151	0.4679	0.024
Mof_Cu	Cu	0.56999	0.63977	0.89023	0.907
Mof_O 	O 	0.47599	0.61773	0.8147	-0.369
Mof_O 	O 	0.4379	0.4957	0.8362	-0.241
Mof_O 	O 	0.43058	0.54848	0.57629	-0.395
Mof_O 	O 	0.5098	0.51612	0.67474	-0.257
Mof_O 	O 	0.66268	0.81384	0.45663	-0.356
Mof_O 	O 	0.6836	0.71848	0.38059	-0.258
Mof_O 	O 	0.7473	0.52286	0.50567	-0.25
Mof_O 	O 	0.6303	0.61169	0.50277	-0.295
Mof_N 	N 	0.1804	0.60564	0.67272	-0.21
Mof_N 	N 	0.9566	0.68052	0.55298	-0.212
Mof_C 	C 	0.2644	0.58211	0.64398	0.067
Mof_H 	H 	0.2672	0.5776	0.5954	0.029
Mof_C 	C 	0.3475	0.56405	0.68201	-0.078
Mof_C 	C 	0.4382	0.5404	0.64218	0.345
Mof_C 	C 	0.3424	0.56804	0.75535	0.011
Mof_C 	C 	0.4277	0.5568	0.80505	0.311
Mof_C 	C 	0.2534	0.5896	0.78475	-0.076
Mof_H 	H 	0.2468	0.5912	0.8333	0.08
Mof_C 	C 	0.175	0.6087	0.74312	0.07
Mof_H 	H 	0.1168	0.624	0.7641	0.027
Mof_C 	C 	0.8813	0.6325	0.54229	0.068
Mof_H 	H 	0.8864	0.5832	0.5601	0.021
Mof_C 	C 	0.7964	0.6517	0.50626	-0.083
Mof_C 	C 	0.7169	0.5912	0.50304	0.317
Mof_C 	C 	0.789	0.7258	0.47952	0.037
Mof_C 	C 	0.7034	0.7524	0.43456	0.289
Mof_C 	C 	0.8672	0.7752	0.49051	-0.135
Mof_H 	H 	0.8642	0.8249	0.4736	0.11
Mof_C 	C 	0.94889	0.75105	0.52626	0.164
Mof_H 	H 	0.0007	0.7849	0.5321	-0.032
Mof_Cu	Cu	0.93001	0.36023	0.39023	0.918
Mof_O 	O 	0.02401	0.38227	0.3147	-0.397
Mof_O 	O 	0.0621	0.5043	0.3362	-0.265
Mof_O 	O 	0.06942	0.45152	0.07629	-0.403
Mof_O 	O 	0.9902	0.48388	0.17474	-0.212
Mof_O 	O 	0.83732	0.18616	0.95663	-0.352
Mof_O 	O 	0.8164	0.28152	0.88059	-0.247
Mof_O 	O 	0.7527	0.47714	0.00567	-0.27
Mof_O 	O 	0.8697	0.38831	0.00277	-0.305
Mof_N 	N 	0.3196	0.39436	0.17272	-0.206
Mof_N 	N 	0.5434	0.31948	0.05298	-0.203
Mof_C 	C 	0.2356	0.41789	0.14398	0.058
Mof_H 	H 	0.2328	0.4224	0.0954	0.026
Mof_C 	C 	0.1525	0.43595	0.18201	-0.067
Mof_C 	C 	0.0618	0.4596	0.14218	0.289
Mof_C 	C 	0.1576	0.43196	0.25535	-0.006
Mof_C 	C 	0.0723	0.4432	0.30505	0.316
Mof_C 	C 	0.2466	0.4104	0.28475	-0.069
Mof_H 	H 	0.2532	0.4088	0.3333	0.075
Mof_C 	C 	0.325	0.3913	0.24312	0.061
Mof_H 	H 	0.3832	0.376	0.2641	0.034
Mof_C 	C 	0.6187	0.3675	0.04229	0.063
Mof_H 	H 	0.6136	0.4168	0.0601	0.014
Mof_C 	C 	0.7036	0.3483	0.00626	-0.12
Mof_C 	C 	0.7831	0.4088	0.00304	0.322
Mof_C 	C 	0.711	0.2742	0.97952	0.046
Mof_C 	C 	0.7966	0.2476	0.93456	0.294
Mof_C 	C 	0.6328	0.2248	0.99051	-0.025
Mof_H 	H 	0.6358	0.1751	0.9736	0.069
Mof_C 	C 	0.55111	0.24895	0.02626	-0
Mof_H 	H 	0.4993	0.2151	0.0321	0.03
Mof_Cu	Cu	0.56999	0.86023	0.39023	0.909
Mof_O 	O 	0.47599	0.88227	0.3147	-0.388
Mof_O 	O 	0.4379	0.0043	0.3362	-0.319
Mof_O 	O 	0.43058	0.95152	0.07629	-0.384
Mof_O 	O 	0.5098	0.98388	0.17474	-0.243
Mof_O 	O 	0.66268	0.68616	0.95663	-0.35
Mof_O 	O 	0.6836	0.78152	0.88059	-0.24
Mof_O 	O 	0.7473	0.97714	0.00567	-0.245
Mof_O 	O 	0.6303	0.88831	0.00277	-0.304
Mof_N 	N 	0.1804	0.89436	0.17272	-0.206
Mof_N 	N 	0.9566	0.81948	0.05298	-0.208
Mof_C 	C 	0.2644	0.91789	0.14398	0.063
Mof_H 	H 	0.2672	0.9224	0.0954	0.032
Mof_C 	C 	0.3475	0.93595	0.18201	-0.064
Mof_C 	C 	0.4382	0.9596	0.14218	0.339
Mof_C 	C 	0.3424	0.93196	0.25535	-0.01
Mof_C 	C 	0.4277	0.9432	0.30505	0.383
Mof_C 	C 	0.2534	0.9104	0.28475	-0.06
Mof_H 	H 	0.2468	0.9088	0.3333	0.075
Mof_C 	C 	0.175	0.8913	0.24312	0.064
Mof_H 	H 	0.1168	0.876	0.2641	0.027
Mof_C 	C 	0.8813	0.8675	0.04229	0.073
Mof_H 	H 	0.8864	0.9168	0.0601	0.025
Mof_C 	C 	0.7964	0.8483	0.00626	-0.125
Mof_C 	C 	0.7169	0.9088	0.00304	0.324
Mof_C 	C 	0.789	0.7742	0.97952	0.071
Mof_C 	C 	0.7034	0.7476	0.93456	0.285
Mof_C 	C 	0.8672	0.7248	0.99051	-0.084
Mof_H 	H 	0.8642	0.6751	0.9736	0.098
Mof_C 	C 	0.94889	0.74895	0.02626	0.109
Mof_H 	H 	0.0007	0.7151	0.0321	-0.031
Mof_Cu	Cu	0.93001	0.13977	0.89023	0.915
Mof_O 	O 	0.02401	0.11773	0.8147	-0.376
Mof_O 	O 	0.0621	0.9957	0.8362	-0.187
Mof_O 	O 	0.06942	0.04848	0.57629	-0.404
Mof_O 	O 	0.9902	0.01612	0.67474	-0.227
Mof_O 	O 	0.83732	0.31384	0.45663	-0.358
Mof_O 	O 	0.8164	0.21848	0.38059	-0.264
Mof_O 	O 	0.7527	0.02286	0.50567	-0.274
Mof_O 	O 	0.8697	0.11169	0.50277	-0.292
Mof_N 	N 	0.3196	0.10564	0.67272	-0.21
Mof_N 	N 	0.5434	0.18052	0.55298	-0.209
Mof_C 	C 	0.2356	0.08211	0.64398	0.062
Mof_H 	H 	0.2328	0.0776	0.5954	0.023
Mof_C 	C 	0.1525	0.06405	0.68201	-0.081
Mof_C 	C 	0.0618	0.0404	0.64218	0.296
Mof_C 	C 	0.1576	0.06804	0.75535	0.015
Mof_C 	C 	0.0723	0.0568	0.80505	0.246
Mof_C 	C 	0.2466	0.0896	0.78475	-0.085
Mof_H 	H 	0.2532	0.0912	0.8333	0.08
Mof_C 	C 	0.325	0.1087	0.74312	0.067
Mof_H 	H 	0.3832	0.124	0.7641	0.034
Mof_C 	C 	0.6187	0.1325	0.54229	0.059
Mof_H 	H 	0.6136	0.0832	0.5601	0.01
Mof_C 	C 	0.7036	0.1517	0.50626	-0.078
Mof_C 	C 	0.7831	0.0912	0.50304	0.314
Mof_C 	C 	0.711	0.2258	0.47952	0.014
Mof_C 	C 	0.7966	0.2524	0.43456	0.297
Mof_C 	C 	0.6328	0.2752	0.49051	-0.089
Mof_H 	H 	0.6358	0.3249	0.4736	0.084
Mof_C 	C 	0.55111	0.25105	0.52626	0.069
Mof_H 	H 	0.4993	0.2849	0.5321	0.023
Mof_Cu	Cu	0.43001	0.36023	0.10977	0.901
Mof_O 	O 	0.52401	0.38227	0.1853	-0.377
Mof_O 	O 	0.5621	0.5043	0.1638	-0.255
Mof_O 	O 	0.56942	0.45152	0.42371	-0.395
Mof_O 	O 	0.4902	0.48388	0.32526	-0.26
Mof_O 	O 	0.33732	0.18616	0.54337	-0.373
Mof_O 	O 	0.3164	0.28152	0.61941	-0.264
Mof_O 	O 	0.2527	0.47714	0.49433	-0.255
Mof_O 	O 	0.3697	0.38831	0.49723	-0.294
Mof_N 	N 	0.8196	0.39436	0.32728	-0.202
Mof_N 	N 	0.0434	0.31948	0.44702	-0.201
Mof_C 	C 	0.7356	0.41789	0.35602	0.066
Mof_H 	H 	0.7328	0.4224	0.4046	0.032
Mof_C 	C 	0.6525	0.43595	0.31799	-0.077
Mof_C 	C 	0.5618	0.4596	0.35782	0.343
Mof_C 	C 	0.6576	0.43196	0.24465	0.006
Mof_C 	C 	0.5723	0.4432	0.19495	0.315
Mof_C 	C 	0.7466	0.4104	0.21525	-0.073
Mof_H 	H 	0.7532	0.4088	0.1667	0.078
Mof_C 	C 	0.825	0.3913	0.25688	0.066
Mof_H 	H 	0.8832	0.376	0.2359	0.041
Mof_C 	C 	0.1187	0.3675	0.45771	0.045
Mof_H 	H 	0.1136	0.4168	0.4399	0.019
Mof_C 	C 	0.2036	0.3483	0.49374	-0.063
Mof_C 	C 	0.2831	0.4088	0.49696	0.309
Mof_C 	C 	0.211	0.2742	0.52048	-0.013
Mof_C 	C 	0.2966	0.2476	0.56544	0.307
Mof_C 	C 	0.1328	0.2248	0.50949	-0.037
Mof_H 	H 	0.1358	0.1751	0.5264	0.057
Mof_C 	C 	0.05111	0.24895	0.47374	-0.029
Mof_H 	H 	0.9993	0.2151	0.4679	0.081
Mof_Cu	Cu	0.06999	0.63977	0.60977	0.89
Mof_O 	O 	0.97599	0.61773	0.6853	-0.35
Mof_O 	O 	0.9379	0.4957	0.6638	-0.232
Mof_O 	O 	0.93058	0.54848	0.92371	-0.372
Mof_O 	O 	0.0098	0.51612	0.82526	-0.295
Mof_O 	O 	0.16268	0.81384	0.04337	-0.379
Mof_O 	O 	0.1836	0.71848	0.11941	-0.277
Mof_O 	O 	0.2473	0.52286	0.99433	-0.23
Mof_O 	O 	0.1303	0.61169	0.99723	-0.272
Mof_N 	N 	0.6804	0.60564	0.82728	-0.206
Mof_N 	N 	0.4566	0.68052	0.94702	-0.21
Mof_C 	C 	0.7644	0.58211	0.85602	0.074
Mof_H 	H 	0.7672	0.5776	0.9046	0.036
Mof_C 	C 	0.8475	0.56405	0.81799	-0.085
Mof_C 	C 	0.9382	0.5404	0.85782	0.389
Mof_C 	C 	0.8424	0.56804	0.74465	0.021
Mof_C 	C 	0.9277	0.5568	0.69495	0.31
Mof_C 	C 	0.7534	0.5896	0.71525	-0.08
Mof_H 	H 	0.7468	0.5912	0.6667	0.082
Mof_C 	C 	0.675	0.6087	0.75688	0.074
Mof_H 	H 	0.6168	0.624	0.7359	0.034
Mof_C 	C 	0.3813	0.6325	0.95771	0.049
Mof_H 	H 	0.3864	0.5832	0.9399	0.028
Mof_C 	C 	0.2964	0.6517	0.99374	-0.021
Mof_C 	C 	0.2169	0.5912	0.99696	0.302
Mof_C 	C 	0.289	0.7258	0.02048	-0.025
Mof_C 	C 	0.2034	0.7524	0.06544	0.303
Mof_C 	C 	0.3672	0.7752	0.00949	-0.147
Mof_H 	H 	0.3642	0.8249	0.0264	0.099
Mof_C 	C 	0.44889	0.75105	0.97374	0.138
Mof_H 	H 	0.5007	0.7849	0.9679	0.017
Mof_Cu	Cu	0.5	0	-0	0.859
Mof_Cu	Cu	-8.44491e-33	-5.52952e-33	0.5	0.862
Mof_Cu	Cu	0.5	0.5	0.5	0.9
Mof_Cu	Cu	-0	0.5	-0	0.865
_end
