data_functionalizedCrystal
_audit_creation_method	'EQeq! by Chris Wilmer'
_symmetry_space_group_name_H-M	'P1'
_symmetry_Int_Tables_number	1
_symmetry_cell_setting	triclinic
loop_
_symmetry_equiv_pos_as_xyz
  x,y,z
_cell_length_a	11.038
_cell_length_b	11.249
_cell_length_c	16.132
_cell_angle_alpha	75.24
_cell_angle_beta	82.8
_cell_angle_gamma	75.26
loop_
_atom_site_label
_atom_site_type_symbol
_atom_site_fract_x
_atom_site_fract_y
_atom_site_fract_z
_atom_site_charge
Mof_O 	O 	0.7585	0.1533	0.2176	-0.592
Mof_C 	C 	0.7162	0.25	0.2461	0.462
Mof_C 	C 	0.7622	0.3659	0.2	-0.176
Mof_N 	N 	0.975	0.4551	0.0146	-0.085
Mof_O 	O 	0.8516	0.932	0.0076	-0.573
Mof_C 	C 	0.9049	0.925	0.9348	0.531
Mof_O 	O 	0.0207	0.9241	0.9154	-0.587
Mof_O 	O 	0.4247	0.0053	0.7587	-0.606
Mof_O 	O 	0.429	0.9811	0.8978	-0.496
Mof_C 	C 	0.4864	0.9779	0.8259	0.404
Mof_C 	C 	0.6256	0.9389	0.8165	-0.167
Mof_C 	C 	0.6983	0.9404	0.8812	0.102
Mof_H 	H 	0.65986	0.95777	0.93284	-0.003
Mof_C 	C 	0.8301	0.9156	0.8675	-0.201
Mof_O 	O 	0.388	0.8814	0.4598	-0.499
Mof_O 	O 	0.3794	0.815	0.3435	-0.431
Mof_C 	C 	0.3273	0.8438	0.4121	0.303
Mof_C 	C 	0.1948	0.8373	0.4379	-0.08
Mof_C 	C 	0.1467	0.8369	0.521	-0.05
Mof_H 	H 	0.19905	0.83568	0.56229	0.062
Mof_C 	C 	0.1172	0.8399	0.3766	0.039
Mof_H 	H 	0.15014	0.83853	0.32078	0.034
Mof_Sm	Sm	0.58754	0.83987	0.3734	1.963
Mof_Sm	Sm	0.79283	0.00495	0.13442	2.38
Mof_O 	O 	0.9352	0.9028	0.2509	-0.512
Mof_O 	O 	0.6409	0.7129	0.2735	-0.558
Mof_O 	O 	0.7759	0.7951	0.1747	-0.584
Mof_N 	N 	0.9784	0.8481	0.6304	-0.082
Mof_O 	O 	0.6418	0.2545	0.3105	-0.342
Mof_C 	C 	0.7661	0.5855	0.185	-0.182
Mof_O 	O 	0.7971	0.8327	0.354	-0.618
Mof_N 	N 	0.862	0.8593	0.6454	-0.089
Mof_C 	C 	0.7249	0.7074	0.2129	0.528
Mof_C 	C 	0.9402	0.8433	0.4808	-0
Mof_H 	H 	0.85548	0.84565	0.49492	0.007
Mof_C 	C 	0.8452	0.3618	0.1295	0.017
Mof_H 	H 	0.87254	0.28764	0.11016	0.01
Mof_C 	C 	0.7218	0.4796	0.2281	0.098
Mof_H 	H 	0.66524	0.48368	0.27574	-0.001
Mof_C 	C 	0.991	0.8444	0.3971	-0.14
Mof_C 	C 	0.814	0.8796	0.7285	0.017
Mof_C 	C 	0.901	0.8606	0.3279	0.488
Mof_C 	C 	0.0209	0.8384	0.5438	0.045
Mof_C 	C 	0.6853	0.9057	0.7416	0.023
Mof_H 	H 	0.63731	0.90107	0.69955	-0.01
Mof_C 	C 	0.8891	0.4701	0.0864	0.025
Mof_C 	C 	0.8487	0.5801	0.1125	0.011
Mof_H 	H 	0.87597	0.65169	0.08207	0.045
Mof_C 	C 	0.8874	0.888	0.7918	0.037
Mof_H 	H 	0.97409	0.87494	0.78217	0.033
Mof_O 	O 	0.2415	0.8467	0.7824	-0.592
Mof_C 	C 	0.2838	0.75	0.7539	0.462
Mof_C 	C 	0.2378	0.6341	0.8	-0.176
Mof_N 	N 	0.025	0.5449	0.9854	-0.085
Mof_O 	O 	0.1484	0.068	0.9924	-0.573
Mof_C 	C 	0.0951	0.075	0.0652	0.531
Mof_O 	O 	0.9793	0.0759	0.0846	-0.587
Mof_O 	O 	0.5753	0.9947	0.2413	-0.606
Mof_O 	O 	0.571	0.0189	0.1022	-0.496
Mof_C 	C 	0.5136	0.0221	0.1741	0.404
Mof_C 	C 	0.3744	0.0611	0.1835	-0.167
Mof_C 	C 	0.3017	0.0596	0.1188	0.102
Mof_H 	H 	0.34014	0.04223	0.06716	-0.003
Mof_C 	C 	0.1699	0.0844	0.1325	-0.201
Mof_O 	O 	0.612	0.1186	0.5402	-0.499
Mof_O 	O 	0.6206	0.185	0.6565	-0.431
Mof_C 	C 	0.6727	0.1562	0.5879	0.303
Mof_C 	C 	0.8052	0.1627	0.5621	-0.08
Mof_C 	C 	0.8533	0.1631	0.479	-0.05
Mof_H 	H 	0.80095	0.16432	0.43771	0.062
Mof_C 	C 	0.8828	0.1601	0.6234	0.039
Mof_H 	H 	0.84986	0.16147	0.67922	0.034
Mof_Sm	Sm	0.41246	0.16013	0.6266	1.963
Mof_Sm	Sm	0.20717	0.99505	0.86558	2.38
Mof_O 	O 	0.0648	0.0972	0.7491	-0.512
Mof_O 	O 	0.3591	0.2871	0.7265	-0.558
Mof_O 	O 	0.2241	0.2049	0.8253	-0.584
Mof_N 	N 	0.0216	0.1519	0.3696	-0.082
Mof_O 	O 	0.3582	0.7455	0.6895	-0.342
Mof_C 	C 	0.2339	0.4145	0.815	-0.182
Mof_O 	O 	0.2029	0.1673	0.646	-0.618
Mof_N 	N 	0.138	0.1407	0.3546	-0.089
Mof_C 	C 	0.2751	0.2926	0.7871	0.528
Mof_C 	C 	0.0598	0.1567	0.5192	-0
Mof_H 	H 	0.14452	0.15435	0.50508	0.007
Mof_C 	C 	0.1548	0.6382	0.8705	0.017
Mof_H 	H 	0.12746	0.71236	0.88984	0.01
Mof_C 	C 	0.2782	0.5204	0.7719	0.098
Mof_H 	H 	0.33476	0.51632	0.72426	-0.001
Mof_C 	C 	0.009	0.1556	0.6029	-0.14
Mof_C 	C 	0.186	0.1204	0.2715	0.017
Mof_C 	C 	0.099	0.1394	0.6721	0.488
Mof_C 	C 	0.9791	0.1616	0.4562	0.045
Mof_C 	C 	0.3147	0.0943	0.2584	0.023
Mof_H 	H 	0.36269	0.09893	0.30045	-0.01
Mof_C 	C 	0.1109	0.5299	0.9136	0.025
Mof_C 	C 	0.1513	0.4199	0.8875	0.011
Mof_H 	H 	0.12403	0.34831	0.91793	0.045
Mof_C 	C 	0.1126	0.112	0.2082	0.037
Mof_H 	H 	0.02591	0.12506	0.21783	0.033
_end
