data_functionalizedCrystal
_audit_creation_method	'EQeq! by Chris Wilmer'
_symmetry_space_group_name_H-M	'P1'
_symmetry_Int_Tables_number	1
_symmetry_cell_setting	triclinic
loop_
_symmetry_equiv_pos_as_xyz
  x,y,z
_cell_length_a	13.1696
_cell_length_b	13.1696
_cell_length_c	14.7973
_cell_angle_alpha	90
_cell_angle_beta	90
_cell_angle_gamma	120
loop_
_atom_site_label
_atom_site_type_symbol
_atom_site_fract_x
_atom_site_fract_y
_atom_site_fract_z
_atom_site_charge
Mof_O 	O 	0.8822	0.4901	0.6478	-0.495
Mof_O 	O 	0.7623	0.5651	0.6527	-0.509
Mof_C 	C 	0.9276	0.7591	0.5543	0.133
Mof_H 	H 	0.875	0.7681	0.5905	-0.018
Mof_C 	C 	0.9278	0.6542	0.5587	-0.118
Mof_C 	C 	0.8485	0.5601	0.626	0.449
Mof_O 	O 	0.5099	0.3921	0.6478	-0.515
Mof_O 	O 	0.4349	0.1972	0.6527	-0.528
Mof_C 	C 	0.2409	0.1685	0.5543	0.099
Mof_H 	H 	0.2319	0.1069	0.5905	-0.041
Mof_C 	C 	0.3458	0.2736	0.5587	-0.191
Mof_C 	C 	0.4399	0.2884	0.626	0.465
Mof_O 	O 	0.6079	0.1178	0.6478	-0.52
Mof_O 	O 	0.8028	0.2377	0.6527	-0.508
Mof_C 	C 	0.8315	0.0724	0.5543	0.081
Mof_H 	H 	0.8931	0.125	0.5905	-0.007
Mof_C 	C 	0.7264	0.0722	0.5587	-0.156
Mof_C 	C 	0.7116	0.1515	0.626	0.453
Mof_O 	O 	0.8822	0.4901	0.8522	-0.492
Mof_O 	O 	0.7623	0.5651	0.8473	-0.507
Mof_C 	C 	0.9276	0.7591	0.9457	0.136
Mof_H 	H 	0.875	0.7681	0.9095	-0.018
Mof_C 	C 	0.9278	0.6542	0.9413	-0.109
Mof_C 	C 	0.8485	0.5601	0.874	0.447
Mof_O 	O 	0.5099	0.3921	0.8522	-0.512
Mof_O 	O 	0.4349	0.1972	0.8473	-0.526
Mof_C 	C 	0.2409	0.1685	0.9457	0.106
Mof_H 	H 	0.2319	0.1069	0.9095	-0.041
Mof_C 	C 	0.3458	0.2736	0.9413	-0.18
Mof_C 	C 	0.4399	0.2884	0.874	0.463
Mof_O 	O 	0.6079	0.1178	0.8522	-0.518
Mof_O 	O 	0.8028	0.2377	0.8473	-0.507
Mof_C 	C 	0.8315	0.0724	0.9457	0.086
Mof_H 	H 	0.8931	0.125	0.9095	-0.008
Mof_C 	C 	0.7264	0.0722	0.9413	-0.145
Mof_C 	C 	0.7116	0.1515	0.874	0.45
Mof_O 	O 	0.4901	0.8822	0.3522	-0.494
Mof_O 	O 	0.5651	0.7623	0.3473	-0.509
Mof_C 	C 	0.7591	0.9276	0.4457	0.134
Mof_H 	H 	0.7681	0.875	0.4095	-0.018
Mof_C 	C 	0.6542	0.9278	0.4413	-0.116
Mof_C 	C 	0.5601	0.8485	0.374	0.449
Mof_O 	O 	0.3921	0.5099	0.3522	-0.515
Mof_O 	O 	0.1972	0.4349	0.3473	-0.528
Mof_C 	C 	0.1685	0.2409	0.4457	0.099
Mof_H 	H 	0.1069	0.2319	0.4095	-0.041
Mof_C 	C 	0.2736	0.3458	0.4413	-0.191
Mof_C 	C 	0.2884	0.4399	0.374	0.466
Mof_O 	O 	0.1178	0.6079	0.3522	-0.521
Mof_O 	O 	0.2377	0.8028	0.3473	-0.508
Mof_C 	C 	0.0724	0.8315	0.4457	0.082
Mof_H 	H 	0.125	0.8931	0.4095	-0.007
Mof_C 	C 	0.0722	0.7264	0.4413	-0.157
Mof_C 	C 	0.1515	0.7116	0.374	0.453
Mof_O 	O 	0.4901	0.8822	0.1478	-0.494
Mof_O 	O 	0.5651	0.7623	0.1527	-0.509
Mof_C 	C 	0.7591	0.9276	0.0543	0.13
Mof_H 	H 	0.7681	0.875	0.0905	-0.018
Mof_C 	C 	0.6542	0.9278	0.0587	-0.111
Mof_C 	C 	0.5601	0.8485	0.126	0.447
Mof_O 	O 	0.3921	0.5099	0.1478	-0.515
Mof_O 	O 	0.1972	0.4349	0.1527	-0.528
Mof_C 	C 	0.1685	0.2409	0.0543	0.095
Mof_H 	H 	0.1069	0.2319	0.0905	-0.041
Mof_C 	C 	0.2736	0.3458	0.0587	-0.187
Mof_C 	C 	0.2884	0.4399	0.126	0.464
Mof_O 	O 	0.1178	0.6079	0.1478	-0.521
Mof_O 	O 	0.2377	0.8028	0.1527	-0.509
Mof_C 	C 	0.0724	0.8315	0.0543	0.079
Mof_H 	H 	0.125	0.8931	0.0905	-0.007
Mof_C 	C 	0.0722	0.7264	0.0587	-0.154
Mof_C 	C 	0.1515	0.7116	0.126	0.451
Mof_Cu	Cu	-0	0	0.5	0.788
Mof_Cu	Cu	-0	0	-0	0.786
Mof_Mg	Mg	0.834	0.36465	0.75	1.472
Mof_Mg	Mg	0.63535	0.46935	0.75	1.471
Mof_Mg	Mg	0.53065	0.166	0.75	1.47
Mof_Mg	Mg	0.36465	0.834	0.25	1.472
Mof_Mg	Mg	0.46935	0.63535	0.25	1.471
Mof_Mg	Mg	0.166	0.53065	0.25	1.47
Mof_O 	O 	0.66667	0.33333	0.75	-0.754
Mof_O 	O 	0.33333	0.66667	0.25	-0.754
Mof_N 	N 	3.35011e-17	0.849	0.5	-0.273
Mof_C 	C 	3.35011e-17	0.6368	0.5	0.03
Mof_H 	H 	3.35011e-17	0.5662	0.5	0.023
Mof_N 	N 	0.151	0.151	0.5	-0.28
Mof_C 	C 	0.3632	0.3632	0.5	0.116
Mof_H 	H 	0.4338	0.4338	0.5	0.012
Mof_N 	N 	0.849	0	0.5	-0.275
Mof_C 	C 	0.6368	0	0.5	0.027
Mof_H 	H 	0.5662	0	0.5	0.024
Mof_N 	N 	5.11507e-17	0.849	-0	-0.277
Mof_C 	C 	-0	0.6368	-0	0.018
Mof_H 	H 	-0	0.5662	-0	0.025
Mof_N 	N 	0.151	0.151	-0	-0.285
Mof_C 	C 	0.3632	0.3632	-0	0.101
Mof_H 	H 	0.4338	0.4338	-0	0.014
Mof_N 	N 	0.849	0	-0	-0.279
Mof_C 	C 	0.6368	0	-0	0.012
Mof_H 	H 	0.5662	0	-0	0.026
_end
