data_functionalizedCrystal
_audit_creation_method	'EQeq! by Chris Wilmer'
_symmetry_space_group_name_H-M	'P1'
_symmetry_Int_Tables_number	1
_symmetry_cell_setting	triclinic
loop_
_symmetry_equiv_pos_as_xyz
  x,y,z
_cell_length_a	15.8633
_cell_length_b	15.8633
_cell_length_c	21.586
_cell_angle_alpha	90
_cell_angle_beta	90
_cell_angle_gamma	90
loop_
_atom_site_label
_atom_site_type_symbol
_atom_site_fract_x
_atom_site_fract_y
_atom_site_fract_z
_atom_site_charge
Mof_Cd	Cd	0.44095	0.55905	0.25	0.384
Mof_Cd	Cd	0.55905	0.44095	0.75	0.384
Mof_Cd	Cd	0.94095	0.94095	0.5	0.383
Mof_Cd	Cd	0.05905	0.05905	-0	0.38
Mof_H 	H 	0.3896	0.5374	0.098	0.015
Mof_H 	H 	0.2859	0.5859	0.0324	0.074
Mof_H 	H 	0.2606	0.7881	0.145	0.071
Mof_H 	H 	0.3592	0.7304	0.2092	0.007
Mof_H 	H 	0.2	0.6491	0.9685	0.06
Mof_H 	H 	0.0859	0.6982	0.9143	0.042
Mof_H 	H 	0.993	0.7969	0.9575	0.076
Mof_H 	H 	0.1398	0.8032	0.1115	0.055
Mof_H 	H 	0.8807	0.0459	0.21	0.064
Mof_H 	H 	0.7689	0.0645	0.2796	0.051
Mof_H 	H 	0.6637	0.9636	0.2875	0.058
Mof_H 	H 	0.7763	0.8254	0.1546	0.083
Mof_H 	H 	0.6012	0.8477	0.3148	0.074
Mof_H 	H 	0.5069	0.7382	0.3242	0.008
Mof_H 	H 	0.56	0.6576	0.157	0.015
Mof_H 	H 	0.6551	0.7654	0.1421	0.095
Mof_H 	H 	0.971	0.7425	0.1446	0.119
Mof_H 	H 	0.9135	0.7401	0.0978	0.144
Mof_H 	H 	0.6104	0.4626	0.598	0.016
Mof_H 	H 	0.7141	0.4141	0.5324	0.074
Mof_H 	H 	0.7394	0.2119	0.645	0.07
Mof_H 	H 	0.6408	0.2696	0.7092	0.008
Mof_H 	H 	0.8	0.3509	0.4685	0.063
Mof_H 	H 	0.9141	0.3018	0.4143	0.038
Mof_H 	H 	0.007	0.2031	0.4575	0.081
Mof_H 	H 	0.8602	0.1968	0.6115	0.057
Mof_H 	H 	0.1193	0.9541	0.71	0.064
Mof_H 	H 	0.2311	0.9355	0.7796	0.051
Mof_H 	H 	0.3363	0.0364	0.7875	0.058
Mof_H 	H 	0.2237	0.1746	0.6546	0.083
Mof_H 	H 	0.3988	0.1523	0.8148	0.075
Mof_H 	H 	0.4931	0.2618	0.8242	0.008
Mof_H 	H 	0.44	0.3424	0.657	0.015
Mof_H 	H 	0.3449	0.2346	0.6421	0.095
Mof_H 	H 	0.029	0.2575	0.6446	0.119
Mof_H 	H 	0.0865	0.2599	0.5978	0.145
Mof_H 	H 	0.9626	0.8896	0.348	0.016
Mof_H 	H 	0.9141	0.7859	0.2824	0.074
Mof_H 	H 	0.7119	0.7606	0.395	0.07
Mof_H 	H 	0.7696	0.8592	0.4592	0.008
Mof_H 	H 	0.8509	0.7	0.2185	0.063
Mof_H 	H 	0.8018	0.5859	0.1643	0.038
Mof_H 	H 	0.7031	0.493	0.2075	0.082
Mof_H 	H 	0.6968	0.6398	0.3615	0.057
Mof_H 	H 	0.4541	0.3807	0.46	0.064
Mof_H 	H 	0.4355	0.2689	0.5296	0.051
Mof_H 	H 	0.5364	0.1637	0.5375	0.058
Mof_H 	H 	0.6746	0.2763	0.4046	0.083
Mof_H 	H 	0.6523	0.1012	0.5648	0.074
Mof_H 	H 	0.7618	0.0069	0.5742	0.009
Mof_H 	H 	0.8424	0.06	0.407	0.015
Mof_H 	H 	0.7346	0.1551	0.3921	0.095
Mof_H 	H 	0.7575	0.471	0.3946	0.119
Mof_H 	H 	0.7599	0.4135	0.3478	0.145
Mof_H 	H 	0.0374	0.1104	0.848	0.016
Mof_H 	H 	0.0859	0.2141	0.7824	0.074
Mof_H 	H 	0.2881	0.2394	0.895	0.07
Mof_H 	H 	0.2304	0.1408	0.9592	0.009
Mof_H 	H 	0.1491	0.3	0.7185	0.063
Mof_H 	H 	0.1982	0.4141	0.6643	0.038
Mof_H 	H 	0.2969	0.507	0.7075	0.082
Mof_H 	H 	0.3032	0.3602	0.8615	0.058
Mof_H 	H 	0.5459	0.6193	0.96	0.063
Mof_H 	H 	0.5645	0.7311	0.0296	0.052
Mof_H 	H 	0.4636	0.8363	0.0375	0.058
Mof_H 	H 	0.3254	0.7237	0.9046	0.083
Mof_H 	H 	0.3477	0.8988	0.0648	0.075
Mof_H 	H 	0.2382	0.9931	0.0742	0.009
Mof_H 	H 	0.1576	0.94	0.907	0.015
Mof_H 	H 	0.2654	0.8449	0.8921	0.096
Mof_H 	H 	0.2425	0.529	0.8946	0.12
Mof_H 	H 	0.2401	0.5865	0.8478	0.145
Mof_H 	H 	0.1104	0.0374	0.152	0.015
Mof_H 	H 	0.2141	0.0859	0.2176	0.074
Mof_H 	H 	0.2394	0.2881	0.105	0.07
Mof_H 	H 	0.1408	0.2304	0.0408	0.007
Mof_H 	H 	0.3	0.1491	0.2815	0.063
Mof_H 	H 	0.4141	0.1982	0.3357	0.038
Mof_H 	H 	0.507	0.2969	0.2925	0.082
Mof_H 	H 	0.3602	0.3032	0.1385	0.057
Mof_H 	H 	0.6193	0.5459	0.04	0.065
Mof_H 	H 	0.7311	0.5645	0.9704	0.05
Mof_H 	H 	0.8363	0.4636	0.9625	0.058
Mof_H 	H 	0.7237	0.3254	0.0954	0.084
Mof_H 	H 	0.8988	0.3477	0.9352	0.074
Mof_H 	H 	0.9931	0.2382	0.9258	0.008
Mof_H 	H 	0.94	0.1576	0.093	0.015
Mof_H 	H 	0.8449	0.2654	0.1079	0.095
Mof_H 	H 	0.529	0.2425	0.1054	0.119
Mof_H 	H 	0.5865	0.2401	0.1522	0.145
Mof_H 	H 	0.8896	0.9626	0.652	0.015
Mof_H 	H 	0.7859	0.9141	0.7176	0.074
Mof_H 	H 	0.7606	0.7119	0.605	0.07
Mof_H 	H 	0.8592	0.7696	0.5408	0.008
Mof_H 	H 	0.7	0.8509	0.7815	0.063
Mof_H 	H 	0.5859	0.8018	0.8357	0.038
Mof_H 	H 	0.493	0.7031	0.7925	0.082
Mof_H 	H 	0.6398	0.6968	0.6385	0.057
Mof_H 	H 	0.3807	0.4541	0.54	0.064
Mof_H 	H 	0.2689	0.4355	0.4704	0.051
Mof_H 	H 	0.1637	0.5364	0.4625	0.058
Mof_H 	H 	0.2763	0.6746	0.5954	0.083
Mof_H 	H 	0.1012	0.6523	0.4352	0.074
Mof_H 	H 	0.0069	0.7618	0.4258	0.008
Mof_H 	H 	0.06	0.8424	0.593	0.015
Mof_H 	H 	0.1551	0.7346	0.6079	0.095
Mof_H 	H 	0.471	0.7575	0.6054	0.119
Mof_H 	H 	0.4135	0.7599	0.6522	0.145
Mof_H 	H 	0.5374	0.3896	0.902	0.016
Mof_H 	H 	0.5859	0.2859	0.9676	0.074
Mof_H 	H 	0.7881	0.2606	0.855	0.07
Mof_H 	H 	0.7304	0.3592	0.7908	0.008
Mof_H 	H 	0.6491	0.2	0.0315	0.065
Mof_H 	H 	0.6982	0.0859	0.0857	0.036
Mof_H 	H 	0.7969	0.993	0.0425	0.083
Mof_H 	H 	0.8032	0.1398	0.8885	0.059
Mof_H 	H 	0.0459	0.8807	0.79	0.064
Mof_H 	H 	0.0645	0.7689	0.7204	0.051
Mof_H 	H 	0.9636	0.6637	0.7125	0.058
Mof_H 	H 	0.8254	0.7763	0.8454	0.083
Mof_H 	H 	0.8477	0.6012	0.6852	0.074
Mof_H 	H 	0.7382	0.5069	0.6758	0.008
Mof_H 	H 	0.6576	0.56	0.843	0.015
Mof_H 	H 	0.7654	0.6551	0.8579	0.095
Mof_H 	H 	0.7425	0.971	0.8554	0.119
Mof_H 	H 	0.7401	0.9135	0.9022	0.145
Mof_H 	H 	0.4626	0.6104	0.402	0.016
Mof_H 	H 	0.4141	0.7141	0.4676	0.074
Mof_H 	H 	0.2119	0.7394	0.355	0.07
Mof_H 	H 	0.2696	0.6408	0.2908	0.008
Mof_H 	H 	0.3509	0.8	0.5315	0.063
Mof_H 	H 	0.3018	0.9141	0.5857	0.038
Mof_H 	H 	0.2031	0.007	0.5425	0.081
Mof_H 	H 	0.1968	0.8602	0.3885	0.057
Mof_H 	H 	0.9541	0.1193	0.29	0.064
Mof_H 	H 	0.9355	0.2311	0.2204	0.051
Mof_H 	H 	0.0364	0.3363	0.2125	0.058
Mof_H 	H 	0.1746	0.2237	0.3454	0.083
Mof_H 	H 	0.1523	0.3988	0.1852	0.074
Mof_H 	H 	0.2618	0.4931	0.1758	0.008
Mof_H 	H 	0.3424	0.44	0.343	0.015
Mof_H 	H 	0.2346	0.3449	0.3579	0.095
Mof_H 	H 	0.2575	0.029	0.3554	0.119
Mof_H 	H 	0.2599	0.0865	0.4022	0.145
Mof_C 	C 	0.3602	0.5873	0.109	0.07
Mof_C 	C 	0.2986	0.6162	0.0692	-0.128
Mof_C 	C 	0.2551	0.6902	0.0831	0.065
Mof_C 	C 	0.2834	0.7342	0.1356	-0.132
Mof_C 	C 	0.3433	0.6998	0.1732	0.073
Mof_C 	C 	0.1828	0.721	0.0462	0.011
Mof_C 	C 	0.1645	0.6904	0.9867	-0.068
Mof_C 	C 	0.0962	0.7193	0.9548	-0.002
Mof_C 	C 	0.0414	0.7786	0.9797	-0.062
Mof_C 	C 	0.06	0.8104	0.0386	0.013
Mof_C 	C 	0.1289	0.7815	0.0713	-0.075
Mof_C 	C 	0.0038	0.8727	0.0694	0.099
Mof_C 	C 	0.9092	0.9239	0.132	0.1
Mof_C 	C 	0.8388	0.9325	0.1765	0.026
Mof_C 	C 	0.8373	0.0048	0.2132	-0.07
Mof_C 	C 	0.7711	0.0155	0.2543	0.001
Mof_C 	C 	0.7084	0.9554	0.2589	-0.069
Mof_C 	C 	0.7093	0.8835	0.2226	0.02
Mof_C 	C 	0.7752	0.8736	0.1807	-0.082
Mof_C 	C 	0.6425	0.818	0.2281	0.073
Mof_C 	C 	0.5948	0.8088	0.2817	-0.134
Mof_C 	C 	0.5383	0.7433	0.2869	0.076
Mof_C 	C 	0.569	0.6965	0.1897	0.083
Mof_C 	C 	0.6265	0.7605	0.1806	-0.138
Mof_C 	C 	0.6398	0.4127	0.609	0.069
Mof_C 	C 	0.7014	0.3838	0.5692	-0.125
Mof_C 	C 	0.7449	0.3098	0.5831	0.061
Mof_C 	C 	0.7166	0.2658	0.6356	-0.129
Mof_C 	C 	0.6567	0.3002	0.6732	0.071
Mof_C 	C 	0.8172	0.279	0.5462	0.021
Mof_C 	C 	0.8355	0.3096	0.4867	-0.08
Mof_C 	C 	0.9038	0.2807	0.4548	0.009
Mof_C 	C 	0.9586	0.2214	0.4797	-0.076
Mof_C 	C 	0.94	0.1896	0.5386	0.023
Mof_C 	C 	0.8711	0.2185	0.5713	-0.083
Mof_C 	C 	0.9962	0.1273	0.5694	0.097
Mof_C 	C 	0.0908	0.0761	0.632	0.1
Mof_C 	C 	0.1612	0.0675	0.6765	0.027
Mof_C 	C 	0.1627	0.9952	0.7132	-0.07
Mof_C 	C 	0.2289	0.9845	0.7543	-0
Mof_C 	C 	0.2916	0.0446	0.7589	-0.068
Mof_C 	C 	0.2907	0.1165	0.7226	0.02
Mof_C 	C 	0.2248	0.1264	0.6807	-0.082
Mof_C 	C 	0.3575	0.182	0.7281	0.073
Mof_C 	C 	0.4052	0.1912	0.7817	-0.134
Mof_C 	C 	0.4617	0.2567	0.7869	0.076
Mof_C 	C 	0.431	0.3035	0.6897	0.083
Mof_C 	C 	0.3735	0.2395	0.6806	-0.138
Mof_C 	C 	0.9127	0.8602	0.359	0.069
Mof_C 	C 	0.8838	0.7986	0.3192	-0.125
Mof_C 	C 	0.8098	0.7551	0.3331	0.061
Mof_C 	C 	0.7658	0.7834	0.3856	-0.129
Mof_C 	C 	0.8002	0.8433	0.4232	0.071
Mof_C 	C 	0.779	0.6828	0.2962	0.022
Mof_C 	C 	0.8096	0.6645	0.2367	-0.081
Mof_C 	C 	0.7807	0.5962	0.2048	0.011
Mof_C 	C 	0.7214	0.5414	0.2297	-0.078
Mof_C 	C 	0.6896	0.56	0.2886	0.024
Mof_C 	C 	0.7185	0.6289	0.3213	-0.084
Mof_C 	C 	0.6273	0.5038	0.3194	0.096
Mof_C 	C 	0.5761	0.4092	0.382	0.1
Mof_C 	C 	0.5675	0.3388	0.4265	0.027
Mof_C 	C 	0.4952	0.3373	0.4632	-0.071
Mof_C 	C 	0.4845	0.2711	0.5043	-0
Mof_C 	C 	0.5446	0.2084	0.5089	-0.068
Mof_C 	C 	0.6165	0.2093	0.4726	0.02
Mof_C 	C 	0.6264	0.2752	0.4307	-0.082
Mof_C 	C 	0.682	0.1425	0.4781	0.073
Mof_C 	C 	0.6912	0.0948	0.5317	-0.134
Mof_C 	C 	0.7567	0.0383	0.5369	0.076
Mof_C 	C 	0.8035	0.069	0.4397	0.083
Mof_C 	C 	0.7395	0.1265	0.4306	-0.138
Mof_C 	C 	0.0873	0.1398	0.859	0.069
Mof_C 	C 	0.1162	0.2014	0.8192	-0.125
Mof_C 	C 	0.1902	0.2449	0.8331	0.061
Mof_C 	C 	0.2342	0.2166	0.8856	-0.129
Mof_C 	C 	0.1998	0.1567	0.9232	0.071
Mof_C 	C 	0.221	0.3172	0.7962	0.022
Mof_C 	C 	0.1904	0.3355	0.7367	-0.081
Mof_C 	C 	0.2193	0.4038	0.7048	0.011
Mof_C 	C 	0.2786	0.4586	0.7297	-0.078
Mof_C 	C 	0.3104	0.44	0.7886	0.024
Mof_C 	C 	0.2815	0.3711	0.8213	-0.084
Mof_C 	C 	0.3727	0.4962	0.8194	0.096
Mof_C 	C 	0.4239	0.5908	0.882	0.101
Mof_C 	C 	0.4325	0.6612	0.9265	0.026
Mof_C 	C 	0.5048	0.6627	0.9632	-0.066
Mof_C 	C 	0.5155	0.7289	0.0043	-0.004
Mof_C 	C 	0.4554	0.7916	0.0089	-0.07
Mof_C 	C 	0.3835	0.7907	0.9726	0.021
Mof_C 	C 	0.3736	0.7248	0.9307	-0.082
Mof_C 	C 	0.318	0.8575	0.9781	0.076
Mof_C 	C 	0.3088	0.9052	0.0317	-0.137
Mof_C 	C 	0.2433	0.9617	0.0369	0.074
Mof_C 	C 	0.1965	0.931	0.9397	0.084
Mof_C 	C 	0.2605	0.8735	0.9306	-0.139
Mof_C 	C 	0.1398	0.0873	0.141	0.068
Mof_C 	C 	0.2014	0.1162	0.1808	-0.125
Mof_C 	C 	0.2449	0.1902	0.1669	0.061
Mof_C 	C 	0.2166	0.2342	0.1144	-0.129
Mof_C 	C 	0.1567	0.1998	0.0768	0.071
Mof_C 	C 	0.3172	0.221	0.2038	0.022
Mof_C 	C 	0.3355	0.1904	0.2633	-0.081
Mof_C 	C 	0.4038	0.2193	0.2952	0.01
Mof_C 	C 	0.4586	0.2786	0.2703	-0.078
Mof_C 	C 	0.44	0.3104	0.2114	0.024
Mof_C 	C 	0.3711	0.2815	0.1787	-0.083
Mof_C 	C 	0.4962	0.3727	0.1806	0.096
Mof_C 	C 	0.5908	0.4239	0.118	0.099
Mof_C 	C 	0.6612	0.4325	0.0735	0.028
Mof_C 	C 	0.6627	0.5048	0.0368	-0.075
Mof_C 	C 	0.7289	0.5155	0.9957	0.004
Mof_C 	C 	0.7916	0.4554	0.9911	-0.068
Mof_C 	C 	0.7907	0.3835	0.0274	0.019
Mof_C 	C 	0.7248	0.3736	0.0693	-0.083
Mof_C 	C 	0.8575	0.318	0.0219	0.071
Mof_C 	C 	0.9052	0.3088	0.9683	-0.132
Mof_C 	C 	0.9617	0.2433	0.9631	0.077
Mof_C 	C 	0.931	0.1965	0.0603	0.082
Mof_C 	C 	0.8735	0.2605	0.0694	-0.137
Mof_C 	C 	0.8602	0.9127	0.641	0.069
Mof_C 	C 	0.7986	0.8838	0.6808	-0.125
Mof_C 	C 	0.7551	0.8098	0.6669	0.061
Mof_C 	C 	0.7834	0.7658	0.6144	-0.129
Mof_C 	C 	0.8433	0.8002	0.5768	0.071
Mof_C 	C 	0.6828	0.779	0.7038	0.022
Mof_C 	C 	0.6645	0.8096	0.7633	-0.081
Mof_C 	C 	0.5962	0.7807	0.7952	0.01
Mof_C 	C 	0.5414	0.7214	0.7703	-0.078
Mof_C 	C 	0.56	0.6896	0.7114	0.024
Mof_C 	C 	0.6289	0.7185	0.6787	-0.083
Mof_C 	C 	0.5038	0.6273	0.6806	0.096
Mof_C 	C 	0.4092	0.5761	0.618	0.1
Mof_C 	C 	0.3388	0.5675	0.5735	0.027
Mof_C 	C 	0.3373	0.4952	0.5368	-0.071
Mof_C 	C 	0.2711	0.4845	0.4957	-0
Mof_C 	C 	0.2084	0.5446	0.4911	-0.068
Mof_C 	C 	0.2093	0.6165	0.5274	0.02
Mof_C 	C 	0.2752	0.6264	0.5693	-0.082
Mof_C 	C 	0.1425	0.682	0.5219	0.073
Mof_C 	C 	0.0948	0.6912	0.4683	-0.134
Mof_C 	C 	0.0383	0.7567	0.4631	0.076
Mof_C 	C 	0.069	0.8035	0.5603	0.083
Mof_C 	C 	0.1265	0.7395	0.5694	-0.138
Mof_C 	C 	0.5873	0.3602	0.891	0.068
Mof_C 	C 	0.6162	0.2986	0.9308	-0.124
Mof_C 	C 	0.6902	0.2551	0.9169	0.059
Mof_C 	C 	0.7342	0.2834	0.8644	-0.128
Mof_C 	C 	0.6998	0.3433	0.8268	0.071
Mof_C 	C 	0.721	0.1828	0.9538	0.028
Mof_C 	C 	0.6904	0.1645	0.0133	-0.088
Mof_C 	C 	0.7193	0.0962	0.0452	0.016
Mof_C 	C 	0.7786	0.0414	0.0203	-0.083
Mof_C 	C 	0.8104	0.06	0.9614	0.03
Mof_C 	C 	0.7815	0.1289	0.9287	-0.088
Mof_C 	C 	0.8727	0.0038	0.9306	0.096
Mof_C 	C 	0.9239	0.9092	0.868	0.1
Mof_C 	C 	0.9325	0.8388	0.8235	0.026
Mof_C 	C 	0.0048	0.8373	0.7868	-0.069
Mof_C 	C 	0.0155	0.7711	0.7457	0.001
Mof_C 	C 	0.9554	0.7084	0.7411	-0.07
Mof_C 	C 	0.8835	0.7093	0.7774	0.02
Mof_C 	C 	0.8736	0.7752	0.8193	-0.082
Mof_C 	C 	0.818	0.6425	0.7719	0.073
Mof_C 	C 	0.8088	0.5948	0.7183	-0.134
Mof_C 	C 	0.7433	0.5383	0.7131	0.076
Mof_C 	C 	0.6965	0.569	0.8103	0.083
Mof_C 	C 	0.7605	0.6265	0.8194	-0.138
Mof_C 	C 	0.4127	0.6398	0.391	0.069
Mof_C 	C 	0.3838	0.7014	0.4308	-0.125
Mof_C 	C 	0.3098	0.7449	0.4169	0.061
Mof_C 	C 	0.2658	0.7166	0.3644	-0.129
Mof_C 	C 	0.3002	0.6567	0.3268	0.071
Mof_C 	C 	0.279	0.8172	0.4538	0.021
Mof_C 	C 	0.3096	0.8355	0.5133	-0.08
Mof_C 	C 	0.2807	0.9038	0.5452	0.01
Mof_C 	C 	0.2214	0.9586	0.5203	-0.077
Mof_C 	C 	0.1896	0.94	0.4614	0.024
Mof_C 	C 	0.2185	0.8711	0.4287	-0.083
Mof_C 	C 	0.1273	0.9962	0.4306	0.097
Mof_C 	C 	0.0761	0.0908	0.368	0.1
Mof_C 	C 	0.0675	0.1612	0.3235	0.026
Mof_C 	C 	0.9952	0.1627	0.2868	-0.069
Mof_C 	C 	0.9845	0.2289	0.2457	0.001
Mof_C 	C 	0.0446	0.2916	0.2411	-0.07
Mof_C 	C 	0.1165	0.2907	0.2774	0.02
Mof_C 	C 	0.1264	0.2248	0.3193	-0.082
Mof_C 	C 	0.182	0.3575	0.2719	0.073
Mof_C 	C 	0.1912	0.4052	0.2183	-0.134
Mof_C 	C 	0.2567	0.4617	0.2131	0.076
Mof_C 	C 	0.3035	0.431	0.3103	0.083
Mof_C 	C 	0.2395	0.3735	0.3194	-0.138
Mof_N 	N 	0.3812	0.6257	0.1625	-0.151
Mof_N 	N 	0.0064	0.9559	0.0655	-0.115
Mof_N 	N 	0.9458	0.9883	0.1045	-0.1
Mof_N 	N 	0.944	0.8509	0.1112	-0.101
Mof_N 	N 	0.9256	0.7691	0.1317	-0.225
Mof_N 	N 	0.5254	0.6863	0.2421	-0.151
Mof_N 	N 	0.6188	0.3743	0.6625	-0.151
Mof_N 	N 	0.9936	0.0441	0.5655	-0.114
Mof_N 	N 	0.0542	0.0117	0.6045	-0.1
Mof_N 	N 	0.056	0.1491	0.6112	-0.101
Mof_N 	N 	0.0744	0.2309	0.6317	-0.225
Mof_N 	N 	0.4746	0.3137	0.7421	-0.151
Mof_N 	N 	0.8743	0.8812	0.4125	-0.151
Mof_N 	N 	0.5441	0.5064	0.3155	-0.114
Mof_N 	N 	0.5117	0.4458	0.3545	-0.1
Mof_N 	N 	0.6491	0.444	0.3612	-0.1
Mof_N 	N 	0.7309	0.4256	0.3817	-0.225
Mof_N 	N 	0.8137	0.0254	0.4921	-0.151
Mof_N 	N 	0.1257	0.1188	0.9125	-0.15
Mof_N 	N 	0.4559	0.4936	0.8155	-0.114
Mof_N 	N 	0.4883	0.5542	0.8545	-0.1
Mof_N 	N 	0.3509	0.556	0.8612	-0.1
Mof_N 	N 	0.2691	0.5744	0.8817	-0.225
Mof_N 	N 	0.1863	0.9746	0.9921	-0.149
Mof_N 	N 	0.1188	0.1257	0.0875	-0.151
Mof_N 	N 	0.4936	0.4559	0.1845	-0.114
Mof_N 	N 	0.5542	0.4883	0.1455	-0.1
Mof_N 	N 	0.556	0.3509	0.1388	-0.1
Mof_N 	N 	0.5744	0.2691	0.1183	-0.225
Mof_N 	N 	0.9746	0.1863	0.0079	-0.152
Mof_N 	N 	0.8812	0.8743	0.5875	-0.151
Mof_N 	N 	0.5064	0.5441	0.6845	-0.114
Mof_N 	N 	0.4458	0.5117	0.6455	-0.1
Mof_N 	N 	0.444	0.6491	0.6388	-0.1
Mof_N 	N 	0.4256	0.7309	0.6183	-0.225
Mof_N 	N 	0.0254	0.8137	0.5079	-0.151
Mof_N 	N 	0.6257	0.3812	0.8375	-0.151
Mof_N 	N 	0.9559	0.0064	0.9345	-0.113
Mof_N 	N 	0.9883	0.9458	0.8955	-0.101
Mof_N 	N 	0.8509	0.944	0.8888	-0.1
Mof_N 	N 	0.7691	0.9256	0.8683	-0.225
Mof_N 	N 	0.6863	0.5254	0.7579	-0.151
Mof_N 	N 	0.3743	0.6188	0.3375	-0.151
Mof_N 	N 	0.0441	0.9936	0.4345	-0.114
Mof_N 	N 	0.0117	0.0542	0.3955	-0.1
Mof_N 	N 	0.1491	0.056	0.3888	-0.1
Mof_N 	N 	0.2309	0.0744	0.3683	-0.225
Mof_N 	N 	0.3137	0.4746	0.2579	-0.151
Mof_Cl	Cl	0.76888	0.76888	-0	-0.221
Mof_O 	O 	0.7448	0.7275	0.0522	-0.037
Mof_O 	O 	0.7059	0.8417	0.0223	-0.068
Mof_O 	O 	0.7275	0.7448	0.9478	-0.035
Mof_O 	O 	0.8417	0.7059	0.9777	-0.066
Mof_Cl	Cl	0.23112	0.23112	0.5	-0.218
Mof_O 	O 	0.2552	0.2725	0.5522	-0.037
Mof_O 	O 	0.2941	0.1583	0.5223	-0.068
Mof_O 	O 	0.2725	0.2552	0.4478	-0.037
Mof_O 	O 	0.1583	0.2941	0.4777	-0.068
Mof_Cl	Cl	0.73112	0.26888	0.25	-0.218
Mof_O 	O 	0.7725	0.2448	0.3022	-0.037
Mof_O 	O 	0.6583	0.2059	0.2723	-0.068
Mof_O 	O 	0.7552	0.2275	0.1978	-0.037
Mof_O 	O 	0.7941	0.3417	0.2277	-0.068
Mof_Cl	Cl	0.26888	0.73112	0.75	-0.218
Mof_O 	O 	0.2275	0.7552	0.8022	-0.037
Mof_O 	O 	0.3417	0.7941	0.7723	-0.068
Mof_O 	O 	0.2448	0.7725	0.6978	-0.037
Mof_O 	O 	0.2059	0.6583	0.7277	-0.068
_end
