data_functionalizedCrystal
_audit_creation_method	'EQeq! by Chris Wilmer'
_symmetry_space_group_name_H-M	'P1'
_symmetry_Int_Tables_number	1
_symmetry_cell_setting	triclinic
loop_
_symmetry_equiv_pos_as_xyz
  x,y,z
_cell_length_a	14.916
_cell_length_b	17.266
_cell_length_c	17.266
_cell_angle_alpha	90
_cell_angle_beta	90
_cell_angle_gamma	90
loop_
_atom_site_label
_atom_site_type_symbol
_atom_site_fract_x
_atom_site_fract_y
_atom_site_fract_z
_atom_site_charge
Mof_Mn	Mn	0.75	0.74278	0.75722	0.867
Mof_Mn	Mn	0.75	0.25722	0.24278	0.87
Mof_Mn	Mn	0.25	0.75722	0.25722	0.868
Mof_Mn	Mn	0.25	0.24278	0.74278	0.869
Mof_V 	V 	0.87422	0.87836	0.89065	1.799
Mof_V 	V 	0.77231	0.93766	0.06998	1.783
Mof_V 	V 	0.91366	0.81906	0.05098	1.806
Mof_V 	V 	0.08505	0.81392	0.96987	1.784
Mof_V 	V 	0.87422	0.12164	0.10935	1.804
Mof_V 	V 	0.77231	0.06234	0.93002	1.783
Mof_V 	V 	0.91366	0.18094	0.94902	1.779
Mof_V 	V 	0.08505	0.18608	0.03013	1.816
Mof_V 	V 	0.12578	0.89065	0.12164	1.802
Mof_V 	V 	0.22769	0.06998	0.06234	1.812
Mof_V 	V 	0.08634	0.05098	0.18094	1.816
Mof_V 	V 	0.91495	0.96987	0.18608	1.778
Mof_V 	V 	0.12578	0.10935	0.87836	1.802
Mof_V 	V 	0.22769	0.93002	0.93766	1.76
Mof_V 	V 	0.08634	0.94902	0.81906	1.784
Mof_V 	V 	0.91495	0.03013	0.81392	1.806
Mof_V 	V 	0.37422	0.37836	0.60935	1.805
Mof_V 	V 	0.27231	0.43766	0.43002	1.795
Mof_V 	V 	0.41366	0.31906	0.44902	1.798
Mof_V 	V 	0.58505	0.31392	0.53013	1.798
Mof_V 	V 	0.37422	0.62164	0.39065	1.805
Mof_V 	V 	0.27231	0.56234	0.56998	1.795
Mof_V 	V 	0.41366	0.68094	0.55098	1.798
Mof_V 	V 	0.58505	0.68608	0.46987	1.798
Mof_V 	V 	0.62578	0.39065	0.37836	1.805
Mof_V 	V 	0.72769	0.56998	0.43766	1.794
Mof_V 	V 	0.58634	0.55098	0.31906	1.798
Mof_V 	V 	0.41495	0.46987	0.31392	1.798
Mof_V 	V 	0.62578	0.60935	0.62164	1.805
Mof_V 	V 	0.72769	0.43002	0.56234	1.794
Mof_V 	V 	0.58634	0.44902	0.68094	1.798
Mof_V 	V 	0.41495	0.53013	0.68608	1.798
Mof_H 	H 	0.7617	0.7459	0.5776	-0.025
Mof_H 	H 	0.8577	0.7574	0.4762	0.1
Mof_H 	H 	0.9421	0.8163	0.7232	-0.027
Mof_H 	H 	0.0454	0.8299	0.6243	0.126
Mof_H 	H 	0.2401	0.7602	0.4374	-0.011
Mof_H 	H 	0.1385	0.7608	0.5386	0.091
Mof_H 	H 	0.0541	0.8288	0.2932	-0.005
Mof_H 	H 	0.9497	0.8306	0.3892	0.069
Mof_H 	H 	0.7617	0.2541	0.4224	-0.025
Mof_H 	H 	0.8577	0.2426	0.5238	0.103
Mof_H 	H 	0.9421	0.1837	0.2768	-0.029
Mof_H 	H 	0.0454	0.1701	0.3757	0.139
Mof_H 	H 	0.2401	0.2398	0.5626	-0.009
Mof_H 	H 	0.1385	0.2392	0.4614	0.094
Mof_H 	H 	0.0541	0.1712	0.7068	-0.002
Mof_H 	H 	0.9497	0.1694	0.6108	0.074
Mof_H 	H 	0.2383	0.5776	0.2541	-0.021
Mof_H 	H 	0.1423	0.4762	0.2426	0.102
Mof_H 	H 	0.0579	0.7232	0.1837	-0.008
Mof_H 	H 	0.9546	0.6243	0.1701	0.083
Mof_H 	H 	0.7599	0.4374	0.2398	-0.012
Mof_H 	H 	0.8615	0.5386	0.2392	0.094
Mof_H 	H 	0.9459	0.2932	0.1712	-0.026
Mof_H 	H 	0.0503	0.3892	0.1694	0.131
Mof_H 	H 	0.2383	0.4224	0.7459	-0.022
Mof_H 	H 	0.1423	0.5238	0.7574	0.1
Mof_H 	H 	0.0579	0.2768	0.8163	-0.009
Mof_H 	H 	0.9546	0.3757	0.8299	0.077
Mof_H 	H 	0.7599	0.5626	0.7602	-0.013
Mof_H 	H 	0.8615	0.4614	0.7608	0.091
Mof_H 	H 	0.9459	0.7068	0.8288	-0.024
Mof_H 	H 	0.0503	0.6108	0.8306	0.119
Mof_H 	H 	0.2617	0.2459	0.9224	-0.058
Mof_H 	H 	0.3577	0.2574	0.0238	0.187
Mof_H 	H 	0.4421	0.3163	0.7768	-0.023
Mof_H 	H 	0.5454	0.3299	0.8757	0.106
Mof_H 	H 	0.7401	0.2602	0.0626	0.02
Mof_H 	H 	0.6385	0.2608	0.9614	0.01
Mof_H 	H 	0.5541	0.3288	0.2068	-0.01
Mof_H 	H 	0.4497	0.3306	0.1108	0.099
Mof_H 	H 	0.2617	0.7541	0.0776	0.009
Mof_H 	H 	0.3577	0.7426	0.9762	0.021
Mof_H 	H 	0.4421	0.6837	0.2232	-0.014
Mof_H 	H 	0.5454	0.6701	0.1243	0.107
Mof_H 	H 	0.7401	0.7398	0.9374	-0.04
Mof_H 	H 	0.6385	0.7392	0.0386	0.167
Mof_H 	H 	0.5541	0.6712	0.7932	-0.018
Mof_H 	H 	0.4497	0.6694	0.8892	0.097
Mof_H 	H 	0.7383	0.0776	0.2459	0.011
Mof_H 	H 	0.6423	0.9762	0.2574	0.017
Mof_H 	H 	0.5579	0.2232	0.3163	-0.014
Mof_H 	H 	0.4546	0.1243	0.3299	0.107
Mof_H 	H 	0.2599	0.9374	0.2602	-0.043
Mof_H 	H 	0.3615	0.0386	0.2608	0.177
Mof_H 	H 	0.4459	0.7932	0.3288	-0.019
Mof_H 	H 	0.5503	0.8892	0.3306	0.098
Mof_H 	H 	0.7383	0.9224	0.7541	-0.055
Mof_H 	H 	0.6423	0.0238	0.7426	0.177
Mof_H 	H 	0.5579	0.7768	0.6837	-0.022
Mof_H 	H 	0.4546	0.8757	0.6701	0.105
Mof_H 	H 	0.2599	0.0626	0.7398	0.019
Mof_H 	H 	0.3615	0.9614	0.7392	0.013
Mof_H 	H 	0.4459	0.2068	0.6712	-0.01
Mof_H 	H 	0.5503	0.1108	0.6694	0.099
Mof_C 	C 	0.82	0.7624	0.5874	0.119
Mof_C 	C 	0.8772	0.7689	0.5261	-0.171
Mof_C 	C 	0.9254	0.8036	0.6729	0.121
Mof_C 	C 	0.9881	0.8117	0.6134	-0.201
Mof_C 	C 	0.1808	0.7736	0.4275	0.087
Mof_C 	C 	0.12	0.7744	0.489	-0.137
Mof_C 	C 	0.0711	0.8139	0.3428	0.079
Mof_C 	C 	0.0082	0.8158	0.4003	-0.107
Mof_C 	C 	0.0321	0.7955	0.4754	0.061
Mof_C 	C 	0.9652	0.7929	0.5389	0.086
Mof_C 	C 	0.82	0.2376	0.4126	0.126
Mof_C 	C 	0.8772	0.2311	0.4739	-0.171
Mof_C 	C 	0.9254	0.1964	0.3271	0.134
Mof_C 	C 	0.9881	0.1883	0.3866	-0.209
Mof_C 	C 	0.1808	0.2264	0.5725	0.093
Mof_C 	C 	0.12	0.2256	0.511	-0.134
Mof_C 	C 	0.0711	0.1861	0.6572	0.085
Mof_C 	C 	0.0082	0.1842	0.5997	-0.101
Mof_C 	C 	0.0321	0.2045	0.5246	0.067
Mof_C 	C 	0.9652	0.2071	0.4611	0.095
Mof_C 	C 	0.18	0.5874	0.2376	0.118
Mof_C 	C 	0.1228	0.5261	0.2311	-0.156
Mof_C 	C 	0.0746	0.6729	0.1964	0.094
Mof_C 	C 	0.0119	0.6134	0.1883	-0.115
Mof_C 	C 	0.8192	0.4275	0.2264	0.1
Mof_C 	C 	0.88	0.489	0.2256	-0.149
Mof_C 	C 	0.9289	0.3428	0.1861	0.128
Mof_C 	C 	0.9918	0.4003	0.1842	-0.198
Mof_C 	C 	0.9679	0.4754	0.2045	0.078
Mof_C 	C 	0.0348	0.5389	0.2071	0.084
Mof_C 	C 	0.18	0.4126	0.7624	0.112
Mof_C 	C 	0.1228	0.4739	0.7689	-0.159
Mof_C 	C 	0.0746	0.3271	0.8036	0.087
Mof_C 	C 	0.0119	0.3866	0.8117	-0.121
Mof_C 	C 	0.8192	0.5725	0.7736	0.093
Mof_C 	C 	0.88	0.511	0.7744	-0.149
Mof_C 	C 	0.9289	0.6572	0.8139	0.116
Mof_C 	C 	0.9918	0.5997	0.8158	-0.19
Mof_C 	C 	0.9679	0.5246	0.7955	0.069
Mof_C 	C 	0.0348	0.4611	0.7929	0.078
Mof_C 	C 	0.32	0.2624	0.9126	0.185
Mof_C 	C 	0.3772	0.2689	0.9739	-0.308
Mof_C 	C 	0.4254	0.3036	0.8271	0.12
Mof_C 	C 	0.4881	0.3117	0.8866	-0.181
Mof_C 	C 	0.6808	0.2736	0.0725	0.037
Mof_C 	C 	0.62	0.2744	0.011	-0.006
Mof_C 	C 	0.5711	0.3139	0.1572	0.093
Mof_C 	C 	0.5082	0.3158	0.0997	-0.129
Mof_C 	C 	0.5321	0.2955	0.0246	0.057
Mof_C 	C 	0.4652	0.2929	0.9611	0.1
Mof_C 	C 	0.32	0.7376	0.0874	0.056
Mof_C 	C 	0.3772	0.7311	0.0261	-0.033
Mof_C 	C 	0.4254	0.6964	0.1729	0.098
Mof_C 	C 	0.4881	0.6883	0.1134	-0.144
Mof_C 	C 	0.6808	0.7264	0.9275	0.143
Mof_C 	C 	0.62	0.7256	0.989	-0.269
Mof_C 	C 	0.5711	0.6861	0.8428	0.109
Mof_C 	C 	0.5082	0.6842	0.9003	-0.167
Mof_C 	C 	0.5321	0.7045	0.9754	0.077
Mof_C 	C 	0.4652	0.7071	0.0389	0.073
Mof_C 	C 	0.68	0.0874	0.2624	0.055
Mof_C 	C 	0.6228	0.0261	0.2689	-0.023
Mof_C 	C 	0.5746	0.1729	0.3036	0.099
Mof_C 	C 	0.5119	0.1134	0.3117	-0.142
Mof_C 	C 	0.3192	0.9275	0.2736	0.152
Mof_C 	C 	0.38	0.989	0.2744	-0.281
Mof_C 	C 	0.4289	0.8428	0.3139	0.112
Mof_C 	C 	0.4918	0.9003	0.3158	-0.169
Mof_C 	C 	0.4679	0.9754	0.2955	0.082
Mof_C 	C 	0.5348	0.0389	0.2929	0.073
Mof_C 	C 	0.68	0.9126	0.7376	0.175
Mof_C 	C 	0.6228	0.9739	0.7311	-0.295
Mof_C 	C 	0.5746	0.8271	0.6964	0.117
Mof_C 	C 	0.5119	0.8866	0.6883	-0.179
Mof_C 	C 	0.3192	0.0725	0.7264	0.038
Mof_C 	C 	0.38	0.011	0.7256	-0.015
Mof_C 	C 	0.4289	0.1572	0.6861	0.092
Mof_C 	C 	0.4918	0.0997	0.6842	-0.131
Mof_C 	C 	0.4679	0.0246	0.7045	0.056
Mof_C 	C 	0.5348	0.9611	0.7071	0.095
Mof_N 	N 	0.8423	0.7781	0.6599	-0.207
Mof_N 	N 	0.1569	0.7915	0.3545	-0.19
Mof_N 	N 	0.8423	0.2219	0.3401	-0.207
Mof_N 	N 	0.1569	0.2085	0.6455	-0.188
Mof_N 	N 	0.1577	0.6599	0.2219	-0.198
Mof_N 	N 	0.8431	0.3545	0.2085	-0.198
Mof_N 	N 	0.1577	0.3401	0.7781	-0.199
Mof_N 	N 	0.8431	0.6455	0.7915	-0.198
Mof_N 	N 	0.3423	0.2781	0.8401	-0.218
Mof_N 	N 	0.6569	0.2915	0.1455	-0.18
Mof_N 	N 	0.3423	0.7219	0.1599	-0.189
Mof_N 	N 	0.6569	0.7085	0.8545	-0.206
Mof_N 	N 	0.6577	0.1599	0.2781	-0.187
Mof_N 	N 	0.3431	0.8545	0.2915	-0.207
Mof_N 	N 	0.6577	0.8401	0.7219	-0.217
Mof_N 	N 	0.3431	0.1455	0.7085	-0.181
Mof_O 	O 	0.8194	0.8176	0.8348	-0.645
Mof_O 	O 	0.8211	0.8716	0.993	-0.98
Mof_O 	O 	0.9626	0.8166	0.9446	-0.939
Mof_O 	O 	0.6869	0.9001	0.1138	-0.552
Mof_O 	O 	0.8214	0.9791	0.8736	-0.982
Mof_O 	O 	0.88	0.8815	0.1327	-0.906
Mof_O 	O 	0.9637	0.9247	0.8239	-0.941
Mof_O 	O 	0.8774	0.734	0.0715	-0.543
Mof_O 	O 	0.1194	0.7267	0.9608	-0.58
Mof_O 	O 	0.8194	0.1824	0.1652	-0.639
Mof_O 	O 	0.8211	0.1284	0.007	-0.901
Mof_O 	O 	0.9626	0.1834	0.0554	-0.901
Mof_O 	O 	0.6869	0.0999	0.8862	-0.551
Mof_O 	O 	0.8214	0.0209	0.1264	-0.904
Mof_O 	O 	0.88	0.1185	0.8673	-0.905
Mof_O 	O 	0.9637	0.0753	0.1761	-0.904
Mof_O 	O 	0.8774	0.266	0.9285	-0.583
Mof_O 	O 	0.1194	0.2733	0.0392	-0.532
Mof_O 	O 	0.1806	0.8348	0.1824	-0.642
Mof_O 	O 	0.1789	0.993	0.1284	-0.972
Mof_O 	O 	0.0374	0.9446	0.1834	-0.923
Mof_O 	O 	0.3131	0.1138	0.0999	-0.525
Mof_O 	O 	0.1786	0.8736	0.0209	-0.918
Mof_O 	O 	0.12	0.1327	0.1185	-0.88
Mof_O 	O 	0.0363	0.8239	0.0753	-0.891
Mof_O 	O 	0.1226	0.0715	0.266	-0.532
Mof_O 	O 	0.8806	0.9608	0.2733	-0.589
Mof_O 	O 	0.1806	0.1652	0.8176	-0.642
Mof_O 	O 	0.1789	0.007	0.8716	-0.915
Mof_O 	O 	0.0374	0.0554	0.8166	-0.888
Mof_O 	O 	0.3131	0.8862	0.9001	-0.574
Mof_O 	O 	0.1786	0.1264	0.9791	-0.974
Mof_O 	O 	0.12	0.8673	0.8815	-0.909
Mof_O 	O 	0.0363	0.1761	0.9247	-0.925
Mof_O 	O 	0.1226	0.9285	0.734	-0.575
Mof_O 	O 	0.8806	0.0392	0.7267	-0.543
Mof_O 	O 	0.3194	0.3176	0.6652	-0.641
Mof_O 	O 	0.3211	0.3716	0.507	-0.932
Mof_O 	O 	0.4626	0.3166	0.5554	-0.907
Mof_O 	O 	0.1869	0.4001	0.3862	-0.54
Mof_O 	O 	0.3214	0.4791	0.6264	-0.935
Mof_O 	O 	0.38	0.3815	0.3673	-0.895
Mof_O 	O 	0.4637	0.4247	0.6761	-0.911
Mof_O 	O 	0.3774	0.234	0.4285	-0.553
Mof_O 	O 	0.6194	0.2267	0.5392	-0.556
Mof_O 	O 	0.3194	0.6824	0.3348	-0.641
Mof_O 	O 	0.3211	0.6284	0.493	-0.932
Mof_O 	O 	0.4626	0.6834	0.4446	-0.909
Mof_O 	O 	0.1869	0.5999	0.6138	-0.542
Mof_O 	O 	0.3214	0.5209	0.3736	-0.935
Mof_O 	O 	0.38	0.6185	0.6327	-0.896
Mof_O 	O 	0.4637	0.5753	0.3239	-0.91
Mof_O 	O 	0.3774	0.766	0.5715	-0.563
Mof_O 	O 	0.6194	0.7733	0.4608	-0.566
Mof_O 	O 	0.6806	0.3348	0.3176	-0.642
Mof_O 	O 	0.6789	0.493	0.3716	-0.933
Mof_O 	O 	0.5374	0.4446	0.3166	-0.907
Mof_O 	O 	0.8131	0.6138	0.4001	-0.548
Mof_O 	O 	0.6786	0.3736	0.4791	-0.935
Mof_O 	O 	0.62	0.6327	0.3815	-0.896
Mof_O 	O 	0.5363	0.3239	0.4247	-0.91
Mof_O 	O 	0.6226	0.5715	0.234	-0.554
Mof_O 	O 	0.3806	0.4608	0.2267	-0.555
Mof_O 	O 	0.6806	0.6652	0.6824	-0.642
Mof_O 	O 	0.6789	0.507	0.6284	-0.933
Mof_O 	O 	0.5374	0.5554	0.6834	-0.909
Mof_O 	O 	0.8131	0.3862	0.5999	-0.548
Mof_O 	O 	0.6786	0.6264	0.5209	-0.936
Mof_O 	O 	0.62	0.3673	0.6185	-0.896
Mof_O 	O 	0.5363	0.6761	0.5753	-0.911
Mof_O 	O 	0.6226	0.4285	0.766	-0.563
Mof_O 	O 	0.3806	0.5392	0.7733	-0.566
Mof_O 	O 	0.7183	0	-0	-0.681
Mof_O 	O 	0.2817	0	-0	-0.679
Mof_O 	O 	0.2183	0.5	0.5	-0.744
Mof_O 	O 	0.7817	0.5	0.5	-0.748
Mof_Cl	Cl	-0	0	-0	-0.95
Mof_Cl	Cl	0.5	0.5	0.5	-1.054
_end
