data_functionalizedCrystal
_audit_creation_method	'EQeq! by Chris Wilmer'
_symmetry_space_group_name_H-M	'P1'
_symmetry_Int_Tables_number	1
_symmetry_cell_setting	triclinic
loop_
_symmetry_equiv_pos_as_xyz
  x,y,z
_cell_length_a	8.7544
_cell_length_b	10.0037
_cell_length_c	11.7895
_cell_angle_alpha	74.695
_cell_angle_beta	69.848
_cell_angle_gamma	86.182
loop_
_atom_site_label
_atom_site_type_symbol
_atom_site_fract_x
_atom_site_fract_y
_atom_site_fract_z
_atom_site_charge
Mof_La	La	0.25466	0.52247	0.48761	1.977
Mof_La	La	0.74534	0.47753	0.51239	1.977
Mof_H 	H 	0.7667	0.7004	0.1364	0.123
Mof_H 	H 	0.7938	0.5406	0.1625	0.136
Mof_H 	H 	0.6265	0.6907	0.0052	0.027
Mof_H 	H 	0.6271	0.5284	0.0413	0.023
Mof_H 	H 	0.913	0.5396	0.9403	0.021
Mof_H 	H 	0.9046	0.7015	0.8978	0.024
Mof_H 	H 	0.7565	0.6862	0.7748	0.116
Mof_H 	H 	0.7368	0.5254	0.8278	0.135
Mof_H 	H 	0.2756	0.033	0.3995	0.109
Mof_H 	H 	0.2402	0.0199	0.2812	0.115
Mof_H 	H 	0.0218	0.1218	0.4017	0.023
Mof_H 	H 	0.9646	0.9785	0.3977	0.023
Mof_H 	H 	0.2333	0.2996	0.8636	0.123
Mof_H 	H 	0.2062	0.4594	0.8375	0.136
Mof_H 	H 	0.3735	0.3093	0.9948	0.027
Mof_H 	H 	0.3729	0.4716	0.9587	0.023
Mof_H 	H 	0.087	0.4604	0.0597	0.021
Mof_H 	H 	0.0954	0.2985	0.1022	0.024
Mof_H 	H 	0.2435	0.3138	0.2252	0.116
Mof_H 	H 	0.2632	0.4746	0.1722	0.135
Mof_H 	H 	0.7244	0.967	0.6005	0.109
Mof_H 	H 	0.7598	0.9801	0.7188	0.115
Mof_H 	H 	0.9782	0.8782	0.5983	0.023
Mof_H 	H 	0.0354	0.0215	0.6023	0.023
Mof_C 	C 	0.5659	0.5881	0.261	0.455
Mof_C 	C 	0.7173	0.6119	0.1475	-0.389
Mof_C 	C 	0.6902	0.6112	0.0268	-0
Mof_C 	C 	0.8451	0.6152	0.9174	0.001
Mof_C 	C 	0.8116	0.6035	0.8031	-0.384
Mof_C 	C 	0.956	0.5855	0.6945	0.443
Mof_C 	C 	0.2361	0.8322	0.4046	0.397
Mof_C 	C 	0.2075	0.986	0.3714	-0.329
Mof_C 	C 	0.032	0.0223	0.4288	-0.012
Mof_C 	C 	0.4341	0.4119	0.739	0.455
Mof_C 	C 	0.2827	0.3881	0.8525	-0.389
Mof_C 	C 	0.3098	0.3888	0.9732	-0
Mof_C 	C 	0.1549	0.3848	0.0826	0.001
Mof_C 	C 	0.1884	0.3965	0.1969	-0.384
Mof_C 	C 	0.044	0.4145	0.3055	0.443
Mof_C 	C 	0.7639	0.1678	0.5954	0.397
Mof_C 	C 	0.7925	0.014	0.6286	-0.329
Mof_C 	C 	0.968	0.9777	0.5712	-0.012
Mof_O 	O 	0.4272	0.6074	0.2505	-0.458
Mof_O 	O 	0.5773	0.5461	0.37	-0.631
Mof_O 	O 	0.0986	0.6178	0.6831	-0.453
Mof_O 	O 	0.9332	0.5357	0.61178	-0.612
Mof_O 	O 	0.1373	0.7498	0.3995	-0.453
Mof_O 	O 	0.3568	0.7855	0.4376	-0.427
Mof_O 	O 	0.5728	0.3926	0.7495	-0.458
Mof_O 	O 	0.4227	0.4539	0.63	-0.631
Mof_O 	O 	0.9014	0.3822	0.3169	-0.453
Mof_O 	O 	0.0668	0.4643	0.38822	-0.612
Mof_O 	O 	0.8627	0.2502	0.6005	-0.453
Mof_O 	O 	0.6432	0.2145	0.5624	-0.427
_end
