data_functionalizedCrystal
_audit_creation_method	'EQeq! by Chris Wilmer'
_symmetry_space_group_name_H-M	'P1'
_symmetry_Int_Tables_number	1
_symmetry_cell_setting	triclinic
loop_
_symmetry_equiv_pos_as_xyz
  x,y,z
_cell_length_a	16.006
_cell_length_b	9.873
_cell_length_c	15.198
_cell_angle_alpha	90
_cell_angle_beta	90
_cell_angle_gamma	90
loop_
_atom_site_label
_atom_site_type_symbol
_atom_site_fract_x
_atom_site_fract_y
_atom_site_fract_z
_atom_site_charge
Mof_P 	P 	0.12932	0.53362	0.39234	0.572
Mof_O 	O 	0.08651	0.5808	0.30974	-0.453
Mof_O 	O 	0.20872	0.6091	0.41074	-0.418
Mof_O 	O 	0.07137	0.5422	0.47268	-0.343
Mof_O 	O 	0.1485	0.3785	0.38318	-0.402
Mof_H 	H 	0.157	0.354	0.3268	0.239
Mof_P 	P 	0.12932	0.03362	0.89234	0.496
Mof_O 	O 	0.08651	0.0808	0.80974	-0.494
Mof_O 	O 	0.20872	0.1091	0.91074	-0.463
Mof_O 	O 	0.07137	0.0422	0.97268	-0.387
Mof_O 	O 	0.1485	0.8785	0.88318	-0.328
Mof_H 	H 	0.157	0.854	0.8268	0.24
Mof_P 	P 	0.62932	0.53362	0.89234	0.579
Mof_O 	O 	0.58651	0.5808	0.80974	-0.423
Mof_O 	O 	0.70872	0.6091	0.91074	-0.431
Mof_O 	O 	0.57137	0.5422	0.97268	-0.364
Mof_O 	O 	0.6485	0.3785	0.88318	-0.399
Mof_H 	H 	0.657	0.354	0.8268	0.245
Mof_P 	P 	0.62932	0.03362	0.39234	0.502
Mof_O 	O 	0.58651	0.0808	0.30974	-0.447
Mof_O 	O 	0.70872	0.1091	0.41074	-0.424
Mof_O 	O 	0.57137	0.0422	0.47268	-0.335
Mof_O 	O 	0.6485	0.8785	0.38318	-0.291
Mof_H 	H 	0.657	0.854	0.3268	0.243
Mof_P 	P 	0.87068	0.46638	0.39234	0.569
Mof_O 	O 	0.91349	0.4192	0.30974	-0.375
Mof_O 	O 	0.79128	0.3909	0.41074	-0.413
Mof_O 	O 	0.92863	0.4578	0.47268	-0.242
Mof_O 	O 	0.8515	0.6215	0.38318	-0.337
Mof_H 	H 	0.843	0.646	0.3268	0.249
Mof_P 	P 	0.87068	0.96638	0.89234	0.633
Mof_O 	O 	0.91349	0.9192	0.80974	-0.336
Mof_O 	O 	0.79128	0.8909	0.91074	-0.42
Mof_O 	O 	0.92863	0.9578	0.97268	-0.218
Mof_O 	O 	0.8515	0.1215	0.88318	-0.437
Mof_H 	H 	0.843	0.146	0.8268	0.251
Mof_P 	P 	0.37068	0.46638	0.89234	0.577
Mof_O 	O 	0.41349	0.4192	0.80974	-0.445
Mof_O 	O 	0.29128	0.3909	0.91074	-0.454
Mof_O 	O 	0.42863	0.4578	0.97268	-0.366
Mof_O 	O 	0.3515	0.6215	0.88318	-0.383
Mof_H 	H 	0.343	0.646	0.8268	0.246
Mof_P 	P 	0.37068	0.96638	0.39234	0.644
Mof_O 	O 	0.41349	0.9192	0.30974	-0.386
Mof_O 	O 	0.29128	0.8909	0.41074	-0.406
Mof_O 	O 	0.42863	0.9578	0.47268	-0.261
Mof_O 	O 	0.3515	0.1215	0.38318	-0.45
Mof_H 	H 	0.343	0.146	0.3268	0.247
Mof_P 	P 	0.37932	0.71638	0.64234	0.578
Mof_O 	O 	0.33651	0.6692	0.55974	-0.432
Mof_O 	O 	0.45872	0.6409	0.66074	-0.412
Mof_O 	O 	0.32137	0.7078	0.72268	-0.326
Mof_O 	O 	0.3985	0.8715	0.63318	-0.349
Mof_H 	H 	0.407	0.896	0.5768	0.253
Mof_P 	P 	0.37932	0.21638	0.14234	0.58
Mof_O 	O 	0.33651	0.1692	0.05974	-0.41
Mof_O 	O 	0.45872	0.1409	0.16074	-0.433
Mof_O 	O 	0.32137	0.2078	0.22268	-0.34
Mof_O 	O 	0.3985	0.3715	0.13318	-0.369
Mof_H 	H 	0.407	0.396	0.0768	0.278
Mof_P 	P 	0.87932	0.71638	0.14234	0.58
Mof_O 	O 	0.83651	0.6692	0.05974	-0.373
Mof_O 	O 	0.95872	0.6409	0.16074	-0.327
Mof_O 	O 	0.82137	0.7078	0.22268	-0.306
Mof_O 	O 	0.8985	0.8715	0.13318	-0.316
Mof_H 	H 	0.907	0.896	0.0768	0.297
Mof_P 	P 	0.87932	0.21638	0.64234	0.575
Mof_O 	O 	0.83651	0.1692	0.55974	-0.436
Mof_O 	O 	0.95872	0.1409	0.66074	-0.378
Mof_O 	O 	0.82137	0.2078	0.72268	-0.334
Mof_O 	O 	0.8985	0.3715	0.63318	-0.347
Mof_H 	H 	0.907	0.396	0.5768	0.254
Mof_P 	P 	0.12068	0.78362	0.64234	0.578
Mof_O 	O 	0.16349	0.8308	0.55974	-0.42
Mof_O 	O 	0.04128	0.8591	0.66074	-0.426
Mof_O 	O 	0.17863	0.7922	0.72268	-0.321
Mof_O 	O 	0.1015	0.6285	0.63318	-0.401
Mof_H 	H 	0.093	0.604	0.5768	0.237
Mof_P 	P 	0.12068	0.28362	0.14234	0.581
Mof_O 	O 	0.16349	0.3308	0.05974	-0.399
Mof_O 	O 	0.04128	0.3591	0.16074	-0.461
Mof_O 	O 	0.17863	0.2922	0.22268	-0.338
Mof_O 	O 	0.1015	0.1285	0.13318	-0.42
Mof_H 	H 	0.093	0.104	0.0768	0.264
Mof_P 	P 	0.62068	0.78362	0.14234	0.582
Mof_O 	O 	0.66349	0.8308	0.05974	-0.363
Mof_O 	O 	0.54128	0.8591	0.16074	-0.36
Mof_O 	O 	0.67863	0.7922	0.22268	-0.305
Mof_O 	O 	0.6015	0.6285	0.13318	-0.37
Mof_H 	H 	0.593	0.604	0.0768	0.279
Mof_P 	P 	0.62068	0.28362	0.64234	0.578
Mof_O 	O 	0.66349	0.3308	0.55974	-0.427
Mof_O 	O 	0.54128	0.3591	0.66074	-0.427
Mof_O 	O 	0.67863	0.2922	0.72268	-0.334
Mof_O 	O 	0.6015	0.1285	0.63318	-0.401
Mof_H 	H 	0.593	0.104	0.5768	0.238
Mof_Zn	Zn	8.43073e-34	0.5	0.23681	1.208
Mof_H 	H 	-1.92805e-32	0.5	0.489	0.129
Mof_Zn	Zn	-2.63222e-33	1.05107e-32	0.73681	1.172
Mof_H 	H 	-6.98974e-33	0	0.989	0.055
Mof_Zn	Zn	0.5	0.5	0.73681	1.247
Mof_H 	H 	0.5	0.5	0.989	0.194
Mof_Zn	Zn	0.5	2.62768e-33	0.23681	1.215
Mof_H 	H 	0.5	-5.25535e-33	0.489	0.143
Mof_Zn	Zn	0.25	0.75	0.48681	1.248
Mof_H 	H 	0.25	0.75	0.739	0.209
Mof_Zn	Zn	0.25	0.25	0.98681	1.216
Mof_H 	H 	0.25	0.25	0.239	0.205
Mof_Zn	Zn	0.75	0.75	0.98681	1.222
Mof_H 	H 	0.75	0.75	0.239	0.215
Mof_Zn	Zn	0.75	0.25	0.48681	1.246
Mof_H 	H 	0.75	0.25	0.739	0.204
_end
