data_functionalizedCrystal
_audit_creation_method	'EQeq! by Chris Wilmer'
_symmetry_space_group_name_H-M	'P1'
_symmetry_Int_Tables_number	1
_symmetry_cell_setting	triclinic
loop_
_symmetry_equiv_pos_as_xyz
  x,y,z
_cell_length_a	16.139
_cell_length_b	16.139
_cell_length_c	18.247
_cell_angle_alpha	90
_cell_angle_beta	90
_cell_angle_gamma	90
loop_
_atom_site_label
_atom_site_type_symbol
_atom_site_fract_x
_atom_site_fract_y
_atom_site_fract_z
_atom_site_charge
Mof_C 	C 	0.1346	0.3679	0.7348	0.26
Mof_C 	C 	0.1123	0.3908	0.6554	0.225
Mof_O 	O 	0.6878	0.8154	0.2475	-0.449
Mof_O 	O 	0.056	0.4454	0.6509	-0.726
Mof_O 	O 	0.0923	0.4084	0.7816	-0.751
Mof_O 	O 	0.1483	0.3568	0.6037	-0.391
Mof_C 	C 	0.6346	0.8679	0.2348	0.301
Mof_C 	C 	0.6123	0.8908	0.1554	0.237
Mof_O 	O 	0.1878	0.3154	0.7475	-0.486
Mof_O 	O 	0.556	0.9454	0.1509	-0.402
Mof_O 	O 	0.5923	0.9084	0.2816	-0.533
Mof_O 	O 	0.6483	0.8568	0.1037	-0.336
Mof_C 	C 	0.3654	0.1321	0.2348	0.258
Mof_C 	C 	0.3877	0.1092	0.1554	0.234
Mof_O 	O 	0.8122	0.6846	0.7475	-0.456
Mof_O 	O 	0.444	0.0546	0.1509	-0.747
Mof_O 	O 	0.4077	0.0916	0.2816	-0.754
Mof_O 	O 	0.3517	0.1432	0.1037	-0.425
Mof_C 	C 	0.8654	0.6321	0.7348	0.309
Mof_C 	C 	0.8877	0.6092	0.6554	0.235
Mof_O 	O 	0.3122	0.1846	0.2475	-0.474
Mof_O 	O 	0.944	0.5546	0.6509	-0.384
Mof_O 	O 	0.9077	0.5916	0.7816	-0.528
Mof_O 	O 	0.8517	0.6432	0.6037	-0.31
Mof_C 	C 	0.6321	0.6346	0.9848	0.452
Mof_C 	C 	0.6092	0.6123	0.9054	0.209
Mof_O 	O 	0.1846	0.1878	0.4975	-0.498
Mof_O 	O 	0.5546	0.556	0.9009	-0.531
Mof_O 	O 	0.5916	0.5923	0.0316	-0.794
Mof_O 	O 	0.6432	0.6483	0.8537	-0.358
Mof_C 	C 	0.1321	0.1346	0.4848	0.241
Mof_C 	C 	0.1092	0.1123	0.4054	0.229
Mof_O 	O 	0.6846	0.6878	0.9975	-0.441
Mof_O 	O 	0.0546	0.056	0.4009	-0.892
Mof_O 	O 	0.0916	0.0923	0.5316	-0.861
Mof_O 	O 	0.1432	0.1483	0.3537	-0.449
Mof_C 	C 	0.8679	0.8654	0.4848	0.326
Mof_C 	C 	0.8908	0.8877	0.4054	0.232
Mof_O 	O 	0.3154	0.3122	0.9975	-0.431
Mof_O 	O 	0.9454	0.944	0.4009	-0.212
Mof_O 	O 	0.9084	0.9077	0.5316	-0.423
Mof_O 	O 	0.8568	0.8517	0.3537	-0.253
Mof_C 	C 	0.3679	0.3654	0.9848	0.451
Mof_C 	C 	0.3908	0.3877	0.9054	0.197
Mof_O 	O 	0.8154	0.8122	0.4975	-0.436
Mof_O 	O 	0.4454	0.444	0.9009	-0.529
Mof_O 	O 	0.4084	0.4077	0.0316	-0.8
Mof_O 	O 	0.3568	0.3517	0.8537	-0.33
Mof_C 	C 	0.3654	0.3679	0.5152	0.281
Mof_C 	C 	0.3877	0.3908	0.5946	0.226
Mof_O 	O 	0.8122	0.8154	0.0025	-0.469
Mof_O 	O 	0.444	0.4454	0.5991	-0.56
Mof_O 	O 	0.4077	0.4084	0.4684	-0.653
Mof_O 	O 	0.3517	0.3568	0.6463	-0.337
Mof_C 	C 	0.8654	0.8679	0.0152	0.17
Mof_C 	C 	0.8877	0.8908	0.0946	0.258
Mof_O 	O 	0.3122	0.3154	0.5025	-0.464
Mof_O 	O 	0.944	0.9454	0.0991	-0.237
Mof_O 	O 	0.9077	0.9084	0.9684	-0.288
Mof_O 	O 	0.8517	0.8568	0.1463	-0.259
Mof_C 	C 	0.1346	0.1321	0.0152	0.069
Mof_C 	C 	0.1123	0.1092	0.0946	0.259
Mof_O 	O 	0.6878	0.6846	0.5025	-0.47
Mof_O 	O 	0.056	0.0546	0.0991	-0.917
Mof_O 	O 	0.0923	0.0916	0.9684	-0.702
Mof_O 	O 	0.1483	0.1432	0.1463	-0.456
Mof_C 	C 	0.6346	0.6321	0.5152	0.288
Mof_C 	C 	0.6123	0.6092	0.5946	0.238
Mof_O 	O 	0.1878	0.1846	0.0025	-0.528
Mof_O 	O 	0.556	0.5546	0.5991	-0.562
Mof_O 	O 	0.5923	0.5916	0.4684	-0.65
Mof_O 	O 	0.6483	0.6432	0.6463	-0.365
Mof_C 	C 	0.8679	0.6346	0.2652	0.304
Mof_C 	C 	0.8908	0.6123	0.3446	0.233
Mof_O 	O 	0.3154	0.1878	0.7525	-0.488
Mof_O 	O 	0.9454	0.556	0.3491	-0.382
Mof_O 	O 	0.9084	0.5923	0.2184	-0.54
Mof_O 	O 	0.8568	0.6483	0.3963	-0.306
Mof_C 	C 	0.3679	0.1346	0.7652	0.265
Mof_C 	C 	0.3908	0.1123	0.8446	0.222
Mof_O 	O 	0.8154	0.6878	0.2525	-0.45
Mof_O 	O 	0.4454	0.056	0.8491	-0.703
Mof_O 	O 	0.4084	0.0923	0.7184	-0.759
Mof_O 	O 	0.3568	0.1483	0.8963	-0.359
Mof_C 	C 	0.6321	0.8654	0.7652	0.312
Mof_C 	C 	0.6092	0.8877	0.8446	0.232
Mof_O 	O 	0.1846	0.3122	0.2525	-0.476
Mof_O 	O 	0.5546	0.944	0.8491	-0.366
Mof_O 	O 	0.5916	0.9077	0.7184	-0.533
Mof_O 	O 	0.6432	0.8517	0.8963	-0.283
Mof_C 	C 	0.1321	0.3654	0.2652	0.261
Mof_C 	C 	0.1092	0.3877	0.3446	0.23
Mof_O 	O 	0.6846	0.8122	0.7525	-0.458
Mof_O 	O 	0.0546	0.444	0.3491	-0.727
Mof_O 	O 	0.0916	0.4077	0.2184	-0.761
Mof_O 	O 	0.1432	0.3517	0.3963	-0.395
Mof_C 	C 	0.8654	0.1321	0.5152	0.285
Mof_C 	C 	0.8877	0.1092	0.5946	0.234
Mof_O 	O 	0.3122	0.6846	0.0025	-0.498
Mof_O 	O 	0.944	0.0546	0.5991	-0.544
Mof_O 	O 	0.9077	0.0916	0.4684	-0.629
Mof_O 	O 	0.8517	0.1432	0.6463	-0.352
Mof_C 	C 	0.3654	0.6321	0.0152	0.118
Mof_C 	C 	0.3877	0.6092	0.0946	0.262
Mof_O 	O 	0.8122	0.1846	0.5025	-0.464
Mof_O 	O 	0.444	0.5546	0.0991	-0.588
Mof_O 	O 	0.4077	0.5916	0.9684	-0.501
Mof_O 	O 	0.3517	0.6432	0.1463	-0.359
Mof_C 	C 	0.6346	0.3679	0.0152	0.116
Mof_C 	C 	0.6123	0.3908	0.0946	0.26
Mof_O 	O 	0.1878	0.8154	0.5025	-0.468
Mof_O 	O 	0.556	0.4454	0.0991	-0.587
Mof_O 	O 	0.5923	0.4084	0.9684	-0.501
Mof_O 	O 	0.6483	0.3568	0.1463	-0.356
Mof_C 	C 	0.1346	0.8679	0.5152	0.282
Mof_C 	C 	0.1123	0.8908	0.5946	0.23
Mof_O 	O 	0.6878	0.3154	0.0025	-0.498
Mof_O 	O 	0.056	0.9454	0.5991	-0.543
Mof_O 	O 	0.0923	0.9084	0.4684	-0.635
Mof_O 	O 	0.1483	0.8568	0.6463	-0.347
Mof_C 	C 	0.3679	0.8654	0.2652	0.303
Mof_C 	C 	0.3908	0.8877	0.3446	0.231
Mof_O 	O 	0.8154	0.3122	0.7525	-0.456
Mof_O 	O 	0.4454	0.944	0.3491	-0.381
Mof_O 	O 	0.4084	0.9077	0.2184	-0.536
Mof_O 	O 	0.3568	0.8517	0.3963	-0.294
Mof_C 	C 	0.8679	0.3654	0.7652	0.308
Mof_C 	C 	0.8908	0.3877	0.8446	0.225
Mof_O 	O 	0.3154	0.8122	0.2525	-0.445
Mof_O 	O 	0.9454	0.444	0.8491	-0.364
Mof_O 	O 	0.9084	0.4077	0.7184	-0.536
Mof_O 	O 	0.8568	0.3517	0.8963	-0.265
Mof_C 	C 	0.1321	0.6346	0.7652	0.269
Mof_C 	C 	0.1092	0.6123	0.8446	0.23
Mof_O 	O 	0.6846	0.1878	0.2525	-0.481
Mof_O 	O 	0.0546	0.556	0.8491	-0.704
Mof_O 	O 	0.0916	0.5923	0.7184	-0.753
Mof_O 	O 	0.1432	0.6483	0.8963	-0.376
Mof_C 	C 	0.6321	0.1346	0.2652	0.263
Mof_C 	C 	0.6092	0.1123	0.3446	0.234
Mof_O 	O 	0.1846	0.6878	0.7525	-0.489
Mof_O 	O 	0.5546	0.056	0.3491	-0.727
Mof_O 	O 	0.5916	0.0923	0.2184	-0.762
Mof_O 	O 	0.6432	0.1483	0.3963	-0.407
Mof_C 	C 	0.6346	0.1321	0.7348	0.266
Mof_C 	C 	0.6123	0.1092	0.6554	0.234
Mof_O 	O 	0.1878	0.6846	0.2475	-0.479
Mof_O 	O 	0.556	0.0546	0.6509	-0.726
Mof_O 	O 	0.5923	0.0916	0.7816	-0.746
Mof_O 	O 	0.6483	0.1432	0.6037	-0.408
Mof_C 	C 	0.1346	0.6321	0.2348	0.26
Mof_C 	C 	0.1123	0.6092	0.1554	0.238
Mof_O 	O 	0.6878	0.1846	0.7475	-0.487
Mof_O 	O 	0.056	0.5546	0.1509	-0.747
Mof_O 	O 	0.0923	0.5916	0.2816	-0.755
Mof_O 	O 	0.1483	0.6432	0.1037	-0.437
Mof_C 	C 	0.8654	0.3679	0.2348	0.3
Mof_C 	C 	0.8877	0.3908	0.1554	0.235
Mof_O 	O 	0.3122	0.8154	0.7475	-0.454
Mof_O 	O 	0.944	0.4454	0.1509	-0.401
Mof_O 	O 	0.9077	0.4084	0.2816	-0.529
Mof_O 	O 	0.8517	0.3568	0.1037	-0.324
Mof_C 	C 	0.3654	0.8679	0.7348	0.305
Mof_C 	C 	0.3877	0.8908	0.6554	0.229
Mof_O 	O 	0.8122	0.3154	0.2475	-0.443
Mof_O 	O 	0.444	0.9454	0.6509	-0.382
Mof_O 	O 	0.4077	0.9084	0.7816	-0.53
Mof_O 	O 	0.3517	0.8568	0.6037	-0.293
Mof_C 	C 	0.1321	0.8654	0.9848	0.448
Mof_C 	C 	0.1092	0.8877	0.9054	0.206
Mof_O 	O 	0.6846	0.3122	0.4975	-0.467
Mof_O 	O 	0.0546	0.944	0.9009	-0.514
Mof_O 	O 	0.0916	0.9077	0.0316	-0.771
Mof_O 	O 	0.1432	0.8517	0.8537	-0.346
Mof_C 	C 	0.6321	0.3654	0.4848	0.286
Mof_C 	C 	0.6092	0.3877	0.4054	0.233
Mof_O 	O 	0.1846	0.8122	0.9975	-0.433
Mof_O 	O 	0.5546	0.444	0.4009	-0.562
Mof_O 	O 	0.5916	0.4077	0.5316	-0.652
Mof_O 	O 	0.6432	0.3517	0.3537	-0.352
Mof_C 	C 	0.3679	0.6346	0.4848	0.283
Mof_C 	C 	0.3908	0.6123	0.4054	0.231
Mof_O 	O 	0.8154	0.1878	0.9975	-0.436
Mof_O 	O 	0.4454	0.556	0.4009	-0.561
Mof_O 	O 	0.4084	0.5923	0.5316	-0.651
Mof_O 	O 	0.3568	0.6483	0.3537	-0.349
Mof_C 	C 	0.8679	0.1346	0.9848	0.445
Mof_C 	C 	0.8908	0.1123	0.9054	0.201
Mof_O 	O 	0.3154	0.6878	0.4975	-0.467
Mof_O 	O 	0.9454	0.056	0.9009	-0.513
Mof_O 	O 	0.9084	0.0923	0.0316	-0.777
Mof_O 	O 	0.8568	0.1483	0.8537	-0.341
Mof_Sr	Sr	0.7372	0.75	0.375	1.505
Mof_Sr	Sr	0.2372	0.25	0.875	1.346
Mof_Sr	Sr	0.7628	0.75	0.875	1.682
Mof_Sr	Sr	0.2628	0.25	0.375	1.342
Mof_Sr	Sr	0.25	0.2372	0.625	1.249
Mof_Sr	Sr	0.75	0.7372	0.125	1.415
Mof_Sr	Sr	0.25	0.2628	0.125	1.249
Mof_Sr	Sr	0.75	0.7628	0.625	1.596
Mof_Sr	Sr	0.2628	0.75	0.875	1.562
Mof_Sr	Sr	0.7628	0.25	0.375	1.476
Mof_Sr	Sr	0.2372	0.75	0.375	1.379
Mof_Sr	Sr	0.7372	0.25	0.875	1.474
Mof_Sr	Sr	0.75	0.2628	0.625	1.471
Mof_Sr	Sr	0.25	0.7628	0.125	1.385
Mof_Sr	Sr	0.75	0.2372	0.125	1.287
Mof_Sr	Sr	0.25	0.7372	0.625	1.381
Mof_Zr	Zr	1.38021e-32	0.5	0.75	3.152
Mof_Zr	Zr	0.5	0	0.25	3.152
Mof_Zr	Zr	0.5	0.5	-0	3.184
Mof_Zr	Zr	2.11956e-33	0	0.5	3.101
Mof_Zr	Zr	0.5	0.5	0.5	3.203
Mof_Zr	Zr	-0	0	-0	3.083
Mof_Zr	Zr	3.71546e-33	0.5	0.25	3.152
Mof_Zr	Zr	0.5	0	0.75	3.152
_end
