data_functionalizedCrystal
_audit_creation_method	'EQeq! by Chris Wilmer'
_symmetry_space_group_name_H-M	'P1'
_symmetry_Int_Tables_number	1
_symmetry_cell_setting	triclinic
loop_
_symmetry_equiv_pos_as_xyz
  x,y,z
_cell_length_a	26.3368
_cell_length_b	26.3368
_cell_length_c	26.3368
_cell_angle_alpha	90
_cell_angle_beta	90
_cell_angle_gamma	90
loop_
_atom_site_label
_atom_site_type_symbol
_atom_site_fract_x
_atom_site_fract_y
_atom_site_fract_z
_atom_site_charge
Mof_O 	O 	0.75697	0.94765	0.31679	-0.375
Mof_O 	O 	0.75697	0.44765	0.81679	-0.401
Mof_O 	O 	0.25697	0.94765	0.81679	-0.373
Mof_O 	O 	0.25697	0.44765	0.31679	-0.41
Mof_O 	O 	0.24303	0.05235	0.31679	-0.426
Mof_O 	O 	0.24303	0.55235	0.81679	-0.404
Mof_O 	O 	0.74303	0.05235	0.81679	-0.417
Mof_O 	O 	0.74303	0.55235	0.31679	-0.406
Mof_O 	O 	0.24303	0.94765	0.68321	-0.377
Mof_O 	O 	0.24303	0.44765	0.18321	-0.413
Mof_O 	O 	0.74303	0.94765	0.18321	-0.378
Mof_O 	O 	0.74303	0.44765	0.68321	-0.405
Mof_O 	O 	0.75697	0.05235	0.68321	-0.422
Mof_O 	O 	0.75697	0.55235	0.18321	-0.41
Mof_O 	O 	0.25697	0.05235	0.18321	-0.431
Mof_O 	O 	0.25697	0.55235	0.68321	-0.409
Mof_O 	O 	0.31679	0.75697	0.94765	-0.374
Mof_O 	O 	0.31679	0.25697	0.44765	-0.409
Mof_O 	O 	0.81679	0.75697	0.44765	-0.4
Mof_O 	O 	0.81679	0.25697	0.94765	-0.372
Mof_O 	O 	0.31679	0.24303	0.05235	-0.425
Mof_O 	O 	0.31679	0.74303	0.55235	-0.405
Mof_O 	O 	0.81679	0.24303	0.55235	-0.403
Mof_O 	O 	0.81679	0.74303	0.05235	-0.416
Mof_O 	O 	0.68321	0.24303	0.94765	-0.376
Mof_O 	O 	0.68321	0.74303	0.44765	-0.405
Mof_O 	O 	0.18321	0.24303	0.44765	-0.413
Mof_O 	O 	0.18321	0.74303	0.94765	-0.378
Mof_O 	O 	0.68321	0.75697	0.05235	-0.422
Mof_O 	O 	0.68321	0.25697	0.55235	-0.409
Mof_O 	O 	0.18321	0.75697	0.55235	-0.41
Mof_O 	O 	0.18321	0.25697	0.05235	-0.431
Mof_O 	O 	0.94765	0.31679	0.75697	-0.374
Mof_O 	O 	0.94765	0.81679	0.25697	-0.372
Mof_O 	O 	0.44765	0.31679	0.25697	-0.409
Mof_O 	O 	0.44765	0.81679	0.75697	-0.4
Mof_O 	O 	0.05235	0.31679	0.24303	-0.425
Mof_O 	O 	0.05235	0.81679	0.74303	-0.416
Mof_O 	O 	0.55235	0.31679	0.74303	-0.405
Mof_O 	O 	0.55235	0.81679	0.24303	-0.403
Mof_O 	O 	0.94765	0.68321	0.24303	-0.376
Mof_O 	O 	0.94765	0.18321	0.74303	-0.378
Mof_O 	O 	0.44765	0.68321	0.74303	-0.405
Mof_O 	O 	0.44765	0.18321	0.24303	-0.413
Mof_O 	O 	0.05235	0.68321	0.75697	-0.422
Mof_O 	O 	0.05235	0.18321	0.25697	-0.431
Mof_O 	O 	0.55235	0.68321	0.25697	-0.409
Mof_O 	O 	0.55235	0.18321	0.75697	-0.41
Mof_O 	O 	0.94765	0.75697	0.68321	-0.373
Mof_O 	O 	0.94765	0.25697	0.18321	-0.382
Mof_O 	O 	0.44765	0.75697	0.18321	-0.41
Mof_O 	O 	0.44765	0.25697	0.68321	-0.409
Mof_O 	O 	0.05235	0.24303	0.68321	-0.425
Mof_O 	O 	0.05235	0.74303	0.18321	-0.426
Mof_O 	O 	0.55235	0.24303	0.18321	-0.413
Mof_O 	O 	0.55235	0.74303	0.68321	-0.405
Mof_O 	O 	0.94765	0.24303	0.31679	-0.377
Mof_O 	O 	0.94765	0.74303	0.81679	-0.368
Mof_O 	O 	0.44765	0.24303	0.81679	-0.403
Mof_O 	O 	0.44765	0.74303	0.31679	-0.405
Mof_O 	O 	0.05235	0.75697	0.31679	-0.422
Mof_O 	O 	0.05235	0.25697	0.81679	-0.42
Mof_O 	O 	0.55235	0.75697	0.81679	-0.4
Mof_O 	O 	0.55235	0.25697	0.31679	-0.409
Mof_O 	O 	0.75697	0.31679	0.05235	-0.422
Mof_O 	O 	0.75697	0.81679	0.55235	-0.4
Mof_O 	O 	0.25697	0.31679	0.55235	-0.409
Mof_O 	O 	0.25697	0.81679	0.05235	-0.42
Mof_O 	O 	0.24303	0.31679	0.94765	-0.377
Mof_O 	O 	0.24303	0.81679	0.44765	-0.403
Mof_O 	O 	0.74303	0.31679	0.44765	-0.405
Mof_O 	O 	0.74303	0.81679	0.94765	-0.368
Mof_O 	O 	0.24303	0.68321	0.05235	-0.425
Mof_O 	O 	0.24303	0.18321	0.55235	-0.413
Mof_O 	O 	0.74303	0.68321	0.55235	-0.405
Mof_O 	O 	0.74303	0.18321	0.05235	-0.426
Mof_O 	O 	0.75697	0.68321	0.94765	-0.373
Mof_O 	O 	0.75697	0.18321	0.44765	-0.41
Mof_O 	O 	0.25697	0.68321	0.44765	-0.409
Mof_O 	O 	0.25697	0.18321	0.94765	-0.382
Mof_O 	O 	0.31679	0.94765	0.24303	-0.377
Mof_O 	O 	0.31679	0.44765	0.74303	-0.405
Mof_O 	O 	0.81679	0.94765	0.74303	-0.368
Mof_O 	O 	0.81679	0.44765	0.24303	-0.403
Mof_O 	O 	0.31679	0.05235	0.75697	-0.422
Mof_O 	O 	0.31679	0.55235	0.25697	-0.409
Mof_O 	O 	0.81679	0.05235	0.25697	-0.42
Mof_O 	O 	0.81679	0.55235	0.75697	-0.4
Mof_O 	O 	0.68321	0.94765	0.75697	-0.373
Mof_O 	O 	0.68321	0.44765	0.25697	-0.409
Mof_O 	O 	0.18321	0.94765	0.25697	-0.382
Mof_O 	O 	0.18321	0.44765	0.75697	-0.41
Mof_O 	O 	0.68321	0.05235	0.24303	-0.425
Mof_O 	O 	0.68321	0.55235	0.74303	-0.405
Mof_O 	O 	0.18321	0.05235	0.74303	-0.426
Mof_O 	O 	0.18321	0.55235	0.24303	-0.413
Mof_O 	O 	0.24303	0.05235	0.68321	-0.425
Mof_O 	O 	0.24303	0.55235	0.18321	-0.413
Mof_O 	O 	0.74303	0.05235	0.18321	-0.426
Mof_O 	O 	0.74303	0.55235	0.68321	-0.405
Mof_O 	O 	0.75697	0.94765	0.68321	-0.373
Mof_O 	O 	0.75697	0.44765	0.18321	-0.41
Mof_O 	O 	0.25697	0.94765	0.18321	-0.382
Mof_O 	O 	0.25697	0.44765	0.68321	-0.409
Mof_O 	O 	0.75697	0.05235	0.31679	-0.422
Mof_O 	O 	0.75697	0.55235	0.81679	-0.4
Mof_O 	O 	0.25697	0.05235	0.81679	-0.42
Mof_O 	O 	0.25697	0.55235	0.31679	-0.409
Mof_O 	O 	0.24303	0.94765	0.31679	-0.377
Mof_O 	O 	0.24303	0.44765	0.81679	-0.403
Mof_O 	O 	0.74303	0.94765	0.81679	-0.368
Mof_O 	O 	0.74303	0.44765	0.31679	-0.405
Mof_O 	O 	0.68321	0.24303	0.05235	-0.425
Mof_O 	O 	0.68321	0.74303	0.55235	-0.405
Mof_O 	O 	0.18321	0.24303	0.55235	-0.413
Mof_O 	O 	0.18321	0.74303	0.05235	-0.426
Mof_O 	O 	0.68321	0.75697	0.94765	-0.373
Mof_O 	O 	0.68321	0.25697	0.44765	-0.409
Mof_O 	O 	0.18321	0.75697	0.44765	-0.41
Mof_O 	O 	0.18321	0.25697	0.94765	-0.382
Mof_O 	O 	0.31679	0.75697	0.05235	-0.422
Mof_O 	O 	0.31679	0.25697	0.55235	-0.409
Mof_O 	O 	0.81679	0.75697	0.55235	-0.4
Mof_O 	O 	0.81679	0.25697	0.05235	-0.42
Mof_O 	O 	0.31679	0.24303	0.94765	-0.377
Mof_O 	O 	0.31679	0.74303	0.44765	-0.405
Mof_O 	O 	0.81679	0.24303	0.44765	-0.403
Mof_O 	O 	0.81679	0.74303	0.94765	-0.368
Mof_O 	O 	0.05235	0.68321	0.24303	-0.425
Mof_O 	O 	0.05235	0.18321	0.74303	-0.426
Mof_O 	O 	0.55235	0.68321	0.74303	-0.405
Mof_O 	O 	0.55235	0.18321	0.24303	-0.413
Mof_O 	O 	0.94765	0.68321	0.75697	-0.373
Mof_O 	O 	0.94765	0.18321	0.25697	-0.382
Mof_O 	O 	0.44765	0.68321	0.25697	-0.409
Mof_O 	O 	0.44765	0.18321	0.75697	-0.41
Mof_O 	O 	0.05235	0.31679	0.75697	-0.422
Mof_O 	O 	0.05235	0.81679	0.25697	-0.42
Mof_O 	O 	0.55235	0.31679	0.25697	-0.409
Mof_O 	O 	0.55235	0.81679	0.75697	-0.4
Mof_O 	O 	0.94765	0.31679	0.24303	-0.377
Mof_O 	O 	0.94765	0.81679	0.74303	-0.368
Mof_O 	O 	0.44765	0.31679	0.74303	-0.405
Mof_O 	O 	0.44765	0.81679	0.24303	-0.403
Mof_O 	O 	0.05235	0.24303	0.31679	-0.425
Mof_O 	O 	0.05235	0.74303	0.81679	-0.416
Mof_O 	O 	0.55235	0.24303	0.81679	-0.403
Mof_O 	O 	0.55235	0.74303	0.31679	-0.405
Mof_O 	O 	0.94765	0.75697	0.31679	-0.374
Mof_O 	O 	0.94765	0.25697	0.81679	-0.372
Mof_O 	O 	0.44765	0.75697	0.81679	-0.4
Mof_O 	O 	0.44765	0.25697	0.31679	-0.409
Mof_O 	O 	0.05235	0.75697	0.68321	-0.422
Mof_O 	O 	0.05235	0.25697	0.18321	-0.431
Mof_O 	O 	0.55235	0.75697	0.18321	-0.41
Mof_O 	O 	0.55235	0.25697	0.68321	-0.409
Mof_O 	O 	0.94765	0.24303	0.68321	-0.376
Mof_O 	O 	0.94765	0.74303	0.18321	-0.378
Mof_O 	O 	0.44765	0.24303	0.18321	-0.413
Mof_O 	O 	0.44765	0.74303	0.68321	-0.405
Mof_O 	O 	0.24303	0.68321	0.94765	-0.376
Mof_O 	O 	0.24303	0.18321	0.44765	-0.413
Mof_O 	O 	0.74303	0.68321	0.44765	-0.405
Mof_O 	O 	0.74303	0.18321	0.94765	-0.378
Mof_O 	O 	0.75697	0.68321	0.05235	-0.422
Mof_O 	O 	0.75697	0.18321	0.55235	-0.41
Mof_O 	O 	0.25697	0.68321	0.55235	-0.409
Mof_O 	O 	0.25697	0.18321	0.05235	-0.431
Mof_O 	O 	0.75697	0.31679	0.94765	-0.374
Mof_O 	O 	0.75697	0.81679	0.44765	-0.4
Mof_O 	O 	0.25697	0.31679	0.44765	-0.409
Mof_O 	O 	0.25697	0.81679	0.94765	-0.372
Mof_O 	O 	0.24303	0.31679	0.05235	-0.425
Mof_O 	O 	0.24303	0.81679	0.55235	-0.403
Mof_O 	O 	0.74303	0.31679	0.55235	-0.405
Mof_O 	O 	0.74303	0.81679	0.05235	-0.416
Mof_O 	O 	0.68321	0.05235	0.75697	-0.422
Mof_O 	O 	0.68321	0.55235	0.25697	-0.409
Mof_O 	O 	0.18321	0.05235	0.25697	-0.431
Mof_O 	O 	0.18321	0.55235	0.75697	-0.41
Mof_O 	O 	0.68321	0.94765	0.24303	-0.376
Mof_O 	O 	0.68321	0.44765	0.74303	-0.405
Mof_O 	O 	0.18321	0.94765	0.74303	-0.378
Mof_O 	O 	0.18321	0.44765	0.24303	-0.413
Mof_O 	O 	0.31679	0.05235	0.24303	-0.425
Mof_O 	O 	0.31679	0.55235	0.74303	-0.405
Mof_O 	O 	0.81679	0.05235	0.74303	-0.416
Mof_O 	O 	0.81679	0.55235	0.24303	-0.403
Mof_O 	O 	0.31679	0.94765	0.75697	-0.374
Mof_O 	O 	0.31679	0.44765	0.25697	-0.409
Mof_O 	O 	0.81679	0.94765	0.25697	-0.372
Mof_O 	O 	0.81679	0.44765	0.75697	-0.4
Mof_C 	C 	0.8234	0.8889	0.3234	-0.109
Mof_C 	C 	0.7977	0.9314	0.2977	0.37
Mof_C 	C 	0.8234	0.3889	0.8234	-0.114
Mof_C 	C 	0.7977	0.4314	0.7977	0.375
Mof_C 	C 	0.1766	0.1111	0.3234	-0.149
Mof_C 	C 	0.2023	0.0686	0.2977	0.382
Mof_C 	C 	0.1766	0.6111	0.8234	-0.128
Mof_C 	C 	0.2023	0.5686	0.7977	0.378
Mof_C 	C 	0.6766	0.1111	0.8234	-0.132
Mof_C 	C 	0.7023	0.0686	0.7977	0.377
Mof_C 	C 	0.1766	0.8889	0.6766	-0.121
Mof_C 	C 	0.2023	0.9314	0.7023	0.372
Mof_C 	C 	0.1766	0.3889	0.1766	-0.144
Mof_C 	C 	0.2023	0.4314	0.2023	0.381
Mof_C 	C 	0.6766	0.3889	0.6766	-0.128
Mof_C 	C 	0.7023	0.4314	0.7023	0.377
Mof_C 	C 	0.8234	0.1111	0.6766	-0.132
Mof_C 	C 	0.7977	0.0686	0.7023	0.377
Mof_C 	C 	0.8234	0.6111	0.1766	-0.128
Mof_C 	C 	0.7977	0.5686	0.2023	0.378
Mof_C 	C 	0.3234	0.8234	0.8889	-0.109
Mof_C 	C 	0.2977	0.7977	0.9314	0.37
Mof_C 	C 	0.3234	0.3234	0.3889	-0.133
Mof_C 	C 	0.2977	0.2977	0.4314	0.38
Mof_C 	C 	0.8234	0.8234	0.3889	-0.114
Mof_C 	C 	0.7977	0.7977	0.4314	0.375
Mof_C 	C 	0.3234	0.1766	0.1111	-0.149
Mof_C 	C 	0.2977	0.2023	0.0686	0.382
Mof_C 	C 	0.3234	0.6766	0.6111	-0.129
Mof_C 	C 	0.2977	0.7023	0.5686	0.378
Mof_C 	C 	0.8234	0.6766	0.1111	-0.132
Mof_C 	C 	0.7977	0.7023	0.0686	0.377
Mof_C 	C 	0.6766	0.1766	0.8889	-0.121
Mof_C 	C 	0.7023	0.2023	0.9314	0.372
Mof_C 	C 	0.6766	0.6766	0.3889	-0.128
Mof_C 	C 	0.7023	0.7023	0.4314	0.377
Mof_C 	C 	0.6766	0.8234	0.1111	-0.132
Mof_C 	C 	0.7023	0.7977	0.0686	0.377
Mof_C 	C 	0.6766	0.3234	0.6111	-0.129
Mof_C 	C 	0.7023	0.2977	0.5686	0.378
Mof_C 	C 	0.8889	0.3234	0.8234	-0.109
Mof_C 	C 	0.9314	0.2977	0.7977	0.37
Mof_C 	C 	0.3889	0.3234	0.3234	-0.133
Mof_C 	C 	0.4314	0.2977	0.2977	0.38
Mof_C 	C 	0.3889	0.8234	0.8234	-0.114
Mof_C 	C 	0.4314	0.7977	0.7977	0.375
Mof_C 	C 	0.1111	0.3234	0.1766	-0.149
Mof_C 	C 	0.0686	0.2977	0.2023	0.382
Mof_C 	C 	0.1111	0.8234	0.6766	-0.132
Mof_C 	C 	0.0686	0.7977	0.7023	0.377
Mof_C 	C 	0.6111	0.3234	0.6766	-0.129
Mof_C 	C 	0.5686	0.2977	0.7023	0.378
Mof_C 	C 	0.8889	0.6766	0.1766	-0.121
Mof_C 	C 	0.9314	0.7023	0.2023	0.372
Mof_C 	C 	0.3889	0.6766	0.6766	-0.128
Mof_C 	C 	0.4314	0.7023	0.7023	0.377
Mof_C 	C 	0.1111	0.6766	0.8234	-0.132
Mof_C 	C 	0.0686	0.7023	0.7977	0.377
Mof_C 	C 	0.6111	0.6766	0.3234	-0.129
Mof_C 	C 	0.5686	0.7023	0.2977	0.378
Mof_C 	C 	0.8889	0.8234	0.6766	-0.106
Mof_C 	C 	0.9314	0.7977	0.7023	0.369
Mof_C 	C 	0.3889	0.8234	0.1766	-0.129
Mof_C 	C 	0.4314	0.7977	0.2023	0.378
Mof_C 	C 	0.1111	0.1766	0.6766	-0.146
Mof_C 	C 	0.0686	0.2023	0.7023	0.38
Mof_C 	C 	0.6111	0.1766	0.1766	-0.143
Mof_C 	C 	0.5686	0.2023	0.2023	0.381
Mof_C 	C 	0.6111	0.6766	0.6766	-0.127
Mof_C 	C 	0.5686	0.7023	0.7023	0.377
Mof_C 	C 	0.8889	0.1766	0.3234	-0.123
Mof_C 	C 	0.9314	0.2023	0.2977	0.373
Mof_C 	C 	0.8889	0.6766	0.8234	-0.106
Mof_C 	C 	0.9314	0.7023	0.7977	0.369
Mof_C 	C 	0.3889	0.1766	0.8234	-0.129
Mof_C 	C 	0.4314	0.2023	0.7977	0.378
Mof_C 	C 	0.1111	0.8234	0.3234	-0.134
Mof_C 	C 	0.0686	0.7977	0.2977	0.379
Mof_C 	C 	0.6111	0.8234	0.8234	-0.113
Mof_C 	C 	0.5686	0.7977	0.7977	0.375
Mof_C 	C 	0.8234	0.3234	0.1111	-0.134
Mof_C 	C 	0.7977	0.2977	0.0686	0.379
Mof_C 	C 	0.8234	0.8234	0.6111	-0.113
Mof_C 	C 	0.7977	0.7977	0.5686	0.375
Mof_C 	C 	0.1766	0.3234	0.8889	-0.123
Mof_C 	C 	0.2023	0.2977	0.9314	0.373
Mof_C 	C 	0.1766	0.8234	0.3889	-0.129
Mof_C 	C 	0.2023	0.7977	0.4314	0.378
Mof_C 	C 	0.6766	0.8234	0.8889	-0.106
Mof_C 	C 	0.7023	0.7977	0.9314	0.369
Mof_C 	C 	0.1766	0.6766	0.1111	-0.146
Mof_C 	C 	0.2023	0.7023	0.0686	0.38
Mof_C 	C 	0.1766	0.1766	0.6111	-0.143
Mof_C 	C 	0.2023	0.2023	0.5686	0.381
Mof_C 	C 	0.6766	0.6766	0.6111	-0.127
Mof_C 	C 	0.7023	0.7023	0.5686	0.377
Mof_C 	C 	0.8234	0.6766	0.8889	-0.106
Mof_C 	C 	0.7977	0.7023	0.9314	0.369
Mof_C 	C 	0.8234	0.1766	0.3889	-0.129
Mof_C 	C 	0.7977	0.2023	0.4314	0.378
Mof_C 	C 	0.3234	0.8889	0.1766	-0.123
Mof_C 	C 	0.2977	0.9314	0.2023	0.373
Mof_C 	C 	0.3234	0.3889	0.6766	-0.13
Mof_C 	C 	0.2977	0.4314	0.7023	0.379
Mof_C 	C 	0.8234	0.8889	0.6766	-0.106
Mof_C 	C 	0.7977	0.9314	0.7023	0.369
Mof_C 	C 	0.3234	0.1111	0.8234	-0.134
Mof_C 	C 	0.2977	0.0686	0.7977	0.379
Mof_C 	C 	0.3234	0.6111	0.3234	-0.132
Mof_C 	C 	0.2977	0.5686	0.2977	0.38
Mof_C 	C 	0.8234	0.6111	0.8234	-0.113
Mof_C 	C 	0.7977	0.5686	0.7977	0.375
Mof_C 	C 	0.6766	0.8889	0.8234	-0.106
Mof_C 	C 	0.7023	0.9314	0.7977	0.369
Mof_C 	C 	0.6766	0.3889	0.3234	-0.13
Mof_C 	C 	0.7023	0.4314	0.2977	0.379
Mof_C 	C 	0.6766	0.1111	0.1766	-0.146
Mof_C 	C 	0.7023	0.0686	0.2023	0.38
Mof_C 	C 	0.6766	0.6111	0.6766	-0.127
Mof_C 	C 	0.7023	0.5686	0.7023	0.377
Mof_C 	C 	0.1766	0.1111	0.6766	-0.146
Mof_C 	C 	0.2023	0.0686	0.7023	0.38
Mof_C 	C 	0.1766	0.6111	0.1766	-0.143
Mof_C 	C 	0.2023	0.5686	0.2023	0.381
Mof_C 	C 	0.8234	0.3889	0.1766	-0.129
Mof_C 	C 	0.7977	0.4314	0.2023	0.378
Mof_C 	C 	0.8234	0.1111	0.3234	-0.134
Mof_C 	C 	0.7977	0.0686	0.2977	0.379
Mof_C 	C 	0.1766	0.8889	0.3234	-0.123
Mof_C 	C 	0.2023	0.9314	0.2977	0.373
Mof_C 	C 	0.1766	0.3889	0.8234	-0.129
Mof_C 	C 	0.2023	0.4314	0.7977	0.378
Mof_C 	C 	0.6766	0.1766	0.1111	-0.146
Mof_C 	C 	0.7023	0.2023	0.0686	0.38
Mof_C 	C 	0.6766	0.3234	0.3889	-0.13
Mof_C 	C 	0.7023	0.2977	0.4314	0.379
Mof_C 	C 	0.3234	0.8234	0.1111	-0.134
Mof_C 	C 	0.2977	0.7977	0.0686	0.379
Mof_C 	C 	0.3234	0.3234	0.6111	-0.132
Mof_C 	C 	0.2977	0.2977	0.5686	0.38
Mof_C 	C 	0.3234	0.1766	0.8889	-0.123
Mof_C 	C 	0.2977	0.2023	0.9314	0.373
Mof_C 	C 	0.3234	0.6766	0.3889	-0.13
Mof_C 	C 	0.2977	0.7023	0.4314	0.379
Mof_C 	C 	0.1111	0.6766	0.1766	-0.146
Mof_C 	C 	0.0686	0.7023	0.2023	0.38
Mof_C 	C 	0.3889	0.6766	0.3234	-0.13
Mof_C 	C 	0.4314	0.7023	0.2977	0.379
Mof_C 	C 	0.1111	0.3234	0.8234	-0.134
Mof_C 	C 	0.0686	0.2977	0.7977	0.379
Mof_C 	C 	0.6111	0.3234	0.3234	-0.132
Mof_C 	C 	0.5686	0.2977	0.2977	0.38
Mof_C 	C 	0.8889	0.3234	0.1766	-0.123
Mof_C 	C 	0.9314	0.2977	0.2023	0.373
Mof_C 	C 	0.3889	0.3234	0.6766	-0.13
Mof_C 	C 	0.4314	0.2977	0.7023	0.379
Mof_C 	C 	0.1111	0.1766	0.3234	-0.149
Mof_C 	C 	0.0686	0.2023	0.2977	0.382
Mof_C 	C 	0.6111	0.1766	0.8234	-0.128
Mof_C 	C 	0.5686	0.2023	0.7977	0.378
Mof_C 	C 	0.8889	0.8234	0.3234	-0.109
Mof_C 	C 	0.9314	0.7977	0.2977	0.37
Mof_C 	C 	0.6111	0.8234	0.1766	-0.128
Mof_C 	C 	0.5686	0.7977	0.2023	0.378
Mof_C 	C 	0.8889	0.1766	0.6766	-0.121
Mof_C 	C 	0.9314	0.2023	0.7023	0.372
Mof_C 	C 	0.3889	0.1766	0.1766	-0.144
Mof_C 	C 	0.4314	0.2023	0.2023	0.381
Mof_C 	C 	0.1766	0.6766	0.8889	-0.121
Mof_C 	C 	0.2023	0.7023	0.9314	0.372
Mof_C 	C 	0.1766	0.1766	0.3889	-0.144
Mof_C 	C 	0.2023	0.2023	0.4314	0.381
Mof_C 	C 	0.8234	0.1766	0.6111	-0.128
Mof_C 	C 	0.7977	0.2023	0.5686	0.378
Mof_C 	C 	0.8234	0.3234	0.8889	-0.109
Mof_C 	C 	0.7977	0.2977	0.9314	0.37
Mof_C 	C 	0.1766	0.3234	0.1111	-0.149
Mof_C 	C 	0.2023	0.2977	0.0686	0.382
Mof_C 	C 	0.1766	0.8234	0.6111	-0.128
Mof_C 	C 	0.2023	0.7977	0.5686	0.378
Mof_C 	C 	0.6766	0.6111	0.3234	-0.129
Mof_C 	C 	0.7023	0.5686	0.2977	0.378
Mof_C 	C 	0.6766	0.8889	0.1766	-0.121
Mof_C 	C 	0.7023	0.9314	0.2023	0.372
Mof_C 	C 	0.3234	0.1111	0.1766	-0.149
Mof_C 	C 	0.2977	0.0686	0.2023	0.382
Mof_C 	C 	0.3234	0.6111	0.6766	-0.129
Mof_C 	C 	0.2977	0.5686	0.7023	0.378
Mof_C 	C 	0.3234	0.8889	0.8234	-0.109
Mof_C 	C 	0.2977	0.9314	0.7977	0.37
Mof_C 	C 	0.3234	0.3889	0.3234	-0.133
Mof_C 	C 	0.2977	0.4314	0.2977	0.38
Mof_C 	C 	0.8024	0.8672	0.3672	0.063
Mof_H 	H 	0.7741	0.8821	0.3821	0.05
Mof_C 	C 	0.3024	0.8672	0.8672	0.062
Mof_H 	H 	0.2741	0.8821	0.8821	0.055
Mof_C 	C 	0.1976	0.1328	0.3672	0.08
Mof_H 	H 	0.2259	0.1179	0.3821	0.029
Mof_C 	C 	0.1976	0.6328	0.8672	0.069
Mof_H 	H 	0.2259	0.6179	0.8821	0.046
Mof_C 	C 	0.6976	0.1328	0.8672	0.069
Mof_H 	H 	0.7259	0.1179	0.8821	0.043
Mof_C 	C 	0.1976	0.8672	0.6328	0.069
Mof_H 	H 	0.2259	0.8821	0.6179	0.046
Mof_C 	C 	0.6976	0.8672	0.1328	0.069
Mof_H 	H 	0.7259	0.8821	0.1179	0.043
Mof_C 	C 	0.8024	0.1328	0.6328	0.072
Mof_H 	H 	0.7741	0.1179	0.6179	0.035
Mof_C 	C 	0.3024	0.1328	0.1328	0.081
Mof_H 	H 	0.2741	0.1179	0.1179	0.023
Mof_C 	C 	0.3024	0.6328	0.6328	0.072
Mof_H 	H 	0.2741	0.6179	0.6179	0.038
Mof_C 	C 	0.3672	0.8024	0.8672	0.063
Mof_H 	H 	0.3821	0.7741	0.8821	0.05
Mof_C 	C 	0.3672	0.3024	0.3672	0.075
Mof_H 	H 	0.3821	0.2741	0.3821	0.037
Mof_C 	C 	0.8672	0.3024	0.8672	0.062
Mof_H 	H 	0.8821	0.2741	0.8821	0.055
Mof_C 	C 	0.3672	0.1976	0.1328	0.08
Mof_H 	H 	0.3821	0.2259	0.1179	0.029
Mof_C 	C 	0.3672	0.6976	0.6328	0.071
Mof_H 	H 	0.3821	0.7259	0.6179	0.041
Mof_C 	C 	0.8672	0.1976	0.6328	0.069
Mof_H 	H 	0.8821	0.2259	0.6179	0.046
Mof_C 	C 	0.6328	0.1976	0.8672	0.069
Mof_H 	H 	0.6179	0.2259	0.8821	0.046
Mof_C 	C 	0.6328	0.6976	0.3672	0.071
Mof_H 	H 	0.6179	0.7259	0.3821	0.041
Mof_C 	C 	0.6328	0.8024	0.1328	0.072
Mof_H 	H 	0.6179	0.7741	0.1179	0.035
Mof_C 	C 	0.6328	0.3024	0.6328	0.072
Mof_H 	H 	0.6179	0.2741	0.6179	0.038
Mof_C 	C 	0.8672	0.3672	0.8024	0.063
Mof_H 	H 	0.8821	0.3821	0.7741	0.05
Mof_C 	C 	0.8672	0.8672	0.3024	0.062
Mof_H 	H 	0.8821	0.8821	0.2741	0.055
Mof_C 	C 	0.1328	0.3672	0.1976	0.08
Mof_H 	H 	0.1179	0.3821	0.2259	0.029
Mof_C 	C 	0.1328	0.8672	0.6976	0.069
Mof_H 	H 	0.1179	0.8821	0.7259	0.043
Mof_C 	C 	0.6328	0.8672	0.1976	0.069
Mof_H 	H 	0.6179	0.8821	0.2259	0.046
Mof_C 	C 	0.8672	0.6328	0.1976	0.069
Mof_H 	H 	0.8821	0.6179	0.2259	0.046
Mof_C 	C 	0.8672	0.1328	0.6976	0.069
Mof_H 	H 	0.8821	0.1179	0.7259	0.043
Mof_C 	C 	0.1328	0.6328	0.8024	0.072
Mof_H 	H 	0.1179	0.6179	0.7741	0.035
Mof_C 	C 	0.1328	0.1328	0.3024	0.081
Mof_H 	H 	0.1179	0.1179	0.2741	0.023
Mof_C 	C 	0.6328	0.6328	0.3024	0.072
Mof_H 	H 	0.6179	0.6179	0.2741	0.038
Mof_C 	C 	0.8672	0.8024	0.6328	0.062
Mof_H 	H 	0.8821	0.7741	0.6179	0.051
Mof_C 	C 	0.8672	0.3024	0.1328	0.072
Mof_H 	H 	0.8821	0.2741	0.1179	0.039
Mof_C 	C 	0.1328	0.1976	0.6328	0.079
Mof_H 	H 	0.1179	0.2259	0.6179	0.03
Mof_C 	C 	0.1328	0.6976	0.1328	0.079
Mof_H 	H 	0.1179	0.7259	0.1179	0.027
Mof_C 	C 	0.6328	0.6976	0.6328	0.07
Mof_H 	H 	0.6179	0.7259	0.6179	0.042
Mof_C 	C 	0.8672	0.1976	0.3672	0.07
Mof_H 	H 	0.8821	0.2259	0.3821	0.046
Mof_C 	C 	0.8672	0.6976	0.8672	0.059
Mof_H 	H 	0.8821	0.7259	0.8821	0.059
Mof_C 	C 	0.1328	0.8024	0.3672	0.073
Mof_H 	H 	0.1179	0.7741	0.3821	0.034
Mof_C 	C 	0.1328	0.3024	0.8672	0.072
Mof_H 	H 	0.1179	0.2741	0.8821	0.039
Mof_C 	C 	0.6328	0.8024	0.8672	0.062
Mof_H 	H 	0.6179	0.7741	0.8821	0.051
Mof_C 	C 	0.8024	0.3672	0.1328	0.073
Mof_H 	H 	0.7741	0.3821	0.1179	0.034
Mof_C 	C 	0.8024	0.8672	0.6328	0.062
Mof_H 	H 	0.7741	0.8821	0.6179	0.051
Mof_C 	C 	0.3024	0.3672	0.6328	0.074
Mof_H 	H 	0.2741	0.3821	0.6179	0.037
Mof_C 	C 	0.1976	0.3672	0.8672	0.07
Mof_H 	H 	0.2259	0.3821	0.8821	0.046
Mof_C 	C 	0.6976	0.3672	0.3672	0.073
Mof_H 	H 	0.7259	0.3821	0.3821	0.041
Mof_C 	C 	0.6976	0.8672	0.8672	0.059
Mof_H 	H 	0.7259	0.8821	0.8821	0.059
Mof_C 	C 	0.1976	0.6328	0.1328	0.079
Mof_H 	H 	0.2259	0.6179	0.1179	0.03
Mof_C 	C 	0.6976	0.6328	0.6328	0.07
Mof_H 	H 	0.7259	0.6179	0.6179	0.042
Mof_C 	C 	0.8024	0.6328	0.8672	0.062
Mof_H 	H 	0.7741	0.6179	0.8821	0.051
Mof_C 	C 	0.3024	0.6328	0.3672	0.074
Mof_H 	H 	0.2741	0.6179	0.3821	0.037
Mof_C 	C 	0.3672	0.8672	0.1976	0.07
Mof_H 	H 	0.3821	0.8821	0.2259	0.046
Mof_C 	C 	0.3672	0.3672	0.6976	0.073
Mof_H 	H 	0.3821	0.3821	0.7259	0.041
Mof_C 	C 	0.8672	0.8672	0.6976	0.059
Mof_H 	H 	0.8821	0.8821	0.7259	0.059
Mof_C 	C 	0.3672	0.1328	0.8024	0.073
Mof_H 	H 	0.3821	0.1179	0.7741	0.034
Mof_C 	C 	0.3672	0.6328	0.3024	0.074
Mof_H 	H 	0.3821	0.6179	0.2741	0.037
Mof_C 	C 	0.8672	0.6328	0.8024	0.062
Mof_H 	H 	0.8821	0.6179	0.7741	0.051
Mof_C 	C 	0.6328	0.8672	0.8024	0.062
Mof_H 	H 	0.6179	0.8821	0.7741	0.051
Mof_C 	C 	0.6328	0.3672	0.3024	0.074
Mof_H 	H 	0.6179	0.3821	0.2741	0.037
Mof_C 	C 	0.6328	0.1328	0.1976	0.079
Mof_H 	H 	0.6179	0.1179	0.2259	0.03
Mof_C 	C 	0.6328	0.6328	0.6976	0.07
Mof_H 	H 	0.6179	0.6179	0.7259	0.042
Mof_C 	C 	0.1976	0.1328	0.6328	0.079
Mof_H 	H 	0.2259	0.1179	0.6179	0.03
Mof_C 	C 	0.6976	0.1328	0.1328	0.079
Mof_H 	H 	0.7259	0.1179	0.1179	0.027
Mof_C 	C 	0.3024	0.8672	0.1328	0.072
Mof_H 	H 	0.2741	0.8821	0.1179	0.039
Mof_C 	C 	0.8024	0.1328	0.3672	0.073
Mof_H 	H 	0.7741	0.1179	0.3821	0.034
Mof_C 	C 	0.3024	0.1328	0.8672	0.072
Mof_H 	H 	0.2741	0.1179	0.8821	0.039
Mof_C 	C 	0.1976	0.8672	0.3672	0.07
Mof_H 	H 	0.2259	0.8821	0.3821	0.046
Mof_C 	C 	0.6328	0.1976	0.1328	0.079
Mof_H 	H 	0.6179	0.2259	0.1179	0.03
Mof_C 	C 	0.6328	0.3024	0.3672	0.074
Mof_H 	H 	0.6179	0.2741	0.3821	0.037
Mof_C 	C 	0.3672	0.8024	0.1328	0.073
Mof_H 	H 	0.3821	0.7741	0.1179	0.034
Mof_C 	C 	0.3672	0.3024	0.6328	0.074
Mof_H 	H 	0.3821	0.2741	0.6179	0.037
Mof_C 	C 	0.3672	0.1976	0.8672	0.07
Mof_H 	H 	0.3821	0.2259	0.8821	0.046
Mof_C 	C 	0.3672	0.6976	0.3672	0.073
Mof_H 	H 	0.3821	0.7259	0.3821	0.041
Mof_C 	C 	0.1328	0.6328	0.1976	0.079
Mof_H 	H 	0.1179	0.6179	0.2259	0.03
Mof_C 	C 	0.1328	0.1328	0.6976	0.079
Mof_H 	H 	0.1179	0.1179	0.7259	0.027
Mof_C 	C 	0.8672	0.1328	0.3024	0.072
Mof_H 	H 	0.8821	0.1179	0.2741	0.039
Mof_C 	C 	0.1328	0.3672	0.8024	0.073
Mof_H 	H 	0.1179	0.3821	0.7741	0.034
Mof_C 	C 	0.1328	0.8672	0.3024	0.072
Mof_H 	H 	0.1179	0.8821	0.2741	0.039
Mof_C 	C 	0.8672	0.3672	0.1976	0.07
Mof_H 	H 	0.8821	0.3821	0.2259	0.046
Mof_C 	C 	0.1328	0.1976	0.3672	0.08
Mof_H 	H 	0.1179	0.2259	0.3821	0.029
Mof_C 	C 	0.1328	0.6976	0.8672	0.069
Mof_H 	H 	0.1179	0.7259	0.8821	0.043
Mof_C 	C 	0.8672	0.8024	0.3672	0.063
Mof_H 	H 	0.8821	0.7741	0.3821	0.05
Mof_C 	C 	0.1328	0.8024	0.6328	0.072
Mof_H 	H 	0.1179	0.7741	0.6179	0.035
Mof_C 	C 	0.1328	0.3024	0.1328	0.081
Mof_H 	H 	0.1179	0.2741	0.1179	0.023
Mof_C 	C 	0.8672	0.6976	0.1328	0.069
Mof_H 	H 	0.8821	0.7259	0.1179	0.043
Mof_C 	C 	0.6976	0.6328	0.3672	0.071
Mof_H 	H 	0.7259	0.6179	0.3821	0.041
Mof_C 	C 	0.8024	0.6328	0.1328	0.072
Mof_H 	H 	0.7741	0.6179	0.1179	0.035
Mof_C 	C 	0.8024	0.3672	0.8672	0.063
Mof_H 	H 	0.7741	0.3821	0.8821	0.05
Mof_C 	C 	0.3024	0.3672	0.3672	0.075
Mof_H 	H 	0.2741	0.3821	0.3821	0.037
Mof_C 	C 	0.1976	0.3672	0.1328	0.08
Mof_H 	H 	0.2259	0.3821	0.1179	0.029
Mof_C 	C 	0.6976	0.3672	0.6328	0.071
Mof_H 	H 	0.7259	0.3821	0.6179	0.041
Mof_C 	C 	0.6328	0.1328	0.8024	0.072
Mof_H 	H 	0.6179	0.1179	0.7741	0.035
Mof_C 	C 	0.6328	0.3672	0.6976	0.071
Mof_H 	H 	0.6179	0.3821	0.7259	0.041
Mof_C 	C 	0.3672	0.1328	0.1976	0.08
Mof_H 	H 	0.3821	0.1179	0.2259	0.029
Mof_C 	C 	0.3672	0.6328	0.6976	0.071
Mof_H 	H 	0.3821	0.6179	0.7259	0.041
Mof_C 	C 	0.3672	0.8672	0.8024	0.063
Mof_H 	H 	0.3821	0.8821	0.7741	0.05
Mof_C 	C 	0.3672	0.3672	0.3024	0.075
Mof_H 	H 	0.3821	0.3821	0.2741	0.037
Mof_Cu	Cu	0.7146	2.7637e-33	0.2854	0.878
Mof_Cu	Cu	0.7146	0.5	0.7854	0.909
Mof_Cu	Cu	0.2146	0	0.7854	0.878
Mof_Cu	Cu	0.2146	0.5	0.2854	0.905
Mof_Cu	Cu	0.2854	2.7637e-33	0.2854	0.878
Mof_Cu	Cu	0.2854	0.5	0.7854	0.909
Mof_Cu	Cu	0.7854	0	0.7854	0.881
Mof_Cu	Cu	0.7854	0.5	0.2854	0.909
Mof_Cu	Cu	0.2854	5.52741e-33	0.7146	0.878
Mof_Cu	Cu	0.2854	0.5	0.2146	0.905
Mof_Cu	Cu	0.7854	2.7637e-33	0.2146	0.878
Mof_Cu	Cu	0.7854	0.5	0.7146	0.909
Mof_Cu	Cu	0.7146	5.52741e-33	0.7146	0.878
Mof_Cu	Cu	0.7146	0.5	0.2146	0.905
Mof_Cu	Cu	0.2146	2.7637e-33	0.2146	0.875
Mof_Cu	Cu	0.2146	0.5	0.7146	0.905
Mof_Cu	Cu	0.2854	0.7146	-0	0.878
Mof_Cu	Cu	0.2854	0.2146	0.5	0.905
Mof_Cu	Cu	0.7854	0.7146	0.5	0.909
Mof_Cu	Cu	0.7854	0.2146	-0	0.878
Mof_Cu	Cu	0.2854	0.2854	-0	0.878
Mof_Cu	Cu	0.2854	0.7854	0.5	0.909
Mof_Cu	Cu	0.7854	0.2854	0.5	0.909
Mof_Cu	Cu	0.7854	0.7854	-0	0.881
Mof_Cu	Cu	0.7146	0.2854	-0	0.878
Mof_Cu	Cu	0.7146	0.7854	0.5	0.909
Mof_Cu	Cu	0.2146	0.2854	0.5	0.905
Mof_Cu	Cu	0.2146	0.7854	-0	0.878
Mof_Cu	Cu	0.7146	0.7146	-0	0.878
Mof_Cu	Cu	0.7146	0.2146	0.5	0.905
Mof_Cu	Cu	0.2146	0.7146	0.5	0.905
Mof_Cu	Cu	0.2146	0.2146	-0	0.875
Mof_Cu	Cu	8.20673e-33	0.2854	0.7146	0.878
Mof_Cu	Cu	6.33203e-33	0.7854	0.2146	0.878
Mof_Cu	Cu	0.5	0.2854	0.2146	0.905
Mof_Cu	Cu	0.5	0.7854	0.7146	0.909
Mof_Cu	Cu	3.83378e-33	0.2854	0.2854	0.878
Mof_Cu	Cu	2.94478e-33	0.7854	0.7854	0.881
Mof_Cu	Cu	0.5	0.2854	0.7854	0.909
Mof_Cu	Cu	0.5	0.7854	0.2854	0.909
Mof_Cu	Cu	9.36119e-33	0.7146	0.2854	0.878
Mof_Cu	Cu	8.47218e-33	0.2146	0.7854	0.878
Mof_Cu	Cu	0.5	0.7146	0.7854	0.909
Mof_Cu	Cu	0.5	0.2146	0.2854	0.905
Mof_Cu	Cu	1.37341e-32	0.7146	0.7146	0.878
Mof_Cu	Cu	6.33203e-33	0.2146	0.2146	0.875
Mof_Cu	Cu	0.5	0.7146	0.2146	0.905
Mof_Cu	Cu	0.5	0.2146	0.7146	0.905
_end
