data_functionalizedCrystal
_audit_creation_method	'EQeq! by Chris Wilmer'
_symmetry_space_group_name_H-M	'P1'
_symmetry_Int_Tables_number	1
_symmetry_cell_setting	triclinic
loop_
_symmetry_equiv_pos_as_xyz
  x,y,z
_cell_length_a	27.7977
_cell_length_b	27.7977
_cell_length_c	27.7977
_cell_angle_alpha	109.471
_cell_angle_beta	109.471
_cell_angle_gamma	109.471
loop_
_atom_site_label
_atom_site_type_symbol
_atom_site_fract_x
_atom_site_fract_y
_atom_site_fract_z
_atom_site_charge
Mof_Fe	Fe	0.50554	0.78907	0.72389	0.65
Mof_Fe	Fe	0.06518	0.78165	0.27611	0.65
Mof_Fe	Fe	0.93482	0.21093	0.71647	0.65
Mof_Fe	Fe	0.49446	0.21835	0.28353	0.65
Mof_Fe	Fe	0.71647	0.93482	0.21093	0.65
Mof_Fe	Fe	0.28353	0.49446	0.21835	0.65
Mof_Fe	Fe	0.72389	0.50554	0.78907	0.65
Mof_Fe	Fe	0.27611	0.06518	0.78165	0.65
Mof_Fe	Fe	0.78165	0.27611	0.06518	0.65
Mof_Fe	Fe	0.78907	0.72389	0.50554	0.65
Mof_Fe	Fe	0.21835	0.28353	0.49446	0.65
Mof_Fe	Fe	0.21093	0.71647	0.93482	0.65
Mof_H 	H 	0.4944	0.8069	0.6149	0.004
Mof_H 	H 	0.4568	0.7555	0.5165	0.068
Mof_H 	H 	0.3949	0.653	0.4633	0.034
Mof_H 	H 	0.4241	0.6611	0.6194	0.022
Mof_H 	H 	0.2565	0.3705	0.2094	0.006
Mof_H 	H 	0.2501	0.3212	0.2615	0.062
Mof_H 	H 	0.2766	0.3768	0.3626	0.038
Mof_H 	H 	0.3281	0.5224	0.3491	0.022
Mof_H 	H 	0.2616	0.3885	0.4739	0.021
Mof_H 	H 	0.3319	0.5436	0.6173	0.039
Mof_H 	H 	0.2894	0.492	0.658	0.08
Mof_H 	H 	0.249	0.392	0.6114	0.007
Mof_H 	H 	0.522	0.7222	0.795	0.006
Mof_H 	H 	0.5678	0.6715	0.8163	0.072
Mof_H 	H 	0.6223	0.6526	0.7735	0.034
Mof_H 	H 	0.5826	0.7368	0.6884	0.023
Mof_H 	H 	0.5022	0.7121	0.8651	0.066
Mof_H 	H 	0.6004	0.7454	0.9306	0.034
Mof_H 	H 	0.6186	0.7395	0.0195	0.055
Mof_H 	H 	0.5407	0.6901	0.0288	0.03
Mof_H 	H 	0.4458	0.6584	0.9604	0.064
Mof_H 	H 	0.3782	0.6472	0.7848	0.261
Mof_H 	H 	0.3722	0.6284	0.8672	0.037
Mof_H 	H 	0.3894	0.6893	0.8671	0.027
Mof_H 	H 	0.192	0.8795	0.3851	0.005
Mof_H 	H 	0.239	0.9403	0.4835	0.069
Mof_H 	H 	0.1897	0.9316	0.5367	0.035
Mof_H 	H 	0.0417	0.8047	0.3806	0.023
Mof_H 	H 	0.1611	0.0471	0.7906	0.007
Mof_H 	H 	0.0597	0.9886	0.7385	0.063
Mof_H 	H 	0.0142	0.914	0.6374	0.039
Mof_H 	H 	0.1733	0.979	0.6509	0.023
Mof_H 	H 	0.9146	0.7877	0.5261	0.022
Mof_H 	H 	0.9263	0.7146	0.3827	0.04
Mof_H 	H 	0.834	0.6314	0.342	0.081
Mof_H 	H 	0.7806	0.6376	0.3886	0.008
Mof_H 	H 	0.9272	0.727	0.205	0.006
Mof_H 	H 	0.8552	0.7515	0.1837	0.072
Mof_H 	H 	0.8791	0.8488	0.2265	0.034
Mof_H 	H 	0.0484	0.8942	0.3116	0.023
Mof_H 	H 	0.847	0.6371	0.1349	0.066
Mof_H 	H 	0.8148	0.6698	0.0694	0.034
Mof_H 	H 	0.72	0.5991	0.9805	0.055
Mof_H 	H 	0.6613	0.5119	0.9712	0.03
Mof_H 	H 	0.698	0.4854	0.0396	0.064
Mof_H 	H 	0.8624	0.5934	0.2152	0.261
Mof_H 	H 	0.7612	0.505	0.1328	0.037
Mof_H 	H 	0.8222	0.5223	0.1329	0.027
Mof_H 	H 	0.808	0.1931	0.6875	0.005
Mof_H 	H 	0.761	0.2445	0.7013	0.069
Mof_H 	H 	0.8103	0.347	0.7419	0.035
Mof_H 	H 	0.9583	0.3389	0.763	0.023
Mof_H 	H 	0.8389	0.6295	0.886	0.007
Mof_H 	H 	0.9403	0.6788	0.9289	0.063
Mof_H 	H 	0.9858	0.6232	0.8998	0.039
Mof_H 	H 	0.8267	0.4776	0.8057	0.023
Mof_H 	H 	0.0854	0.6115	0.8731	0.022
Mof_H 	H 	0.0737	0.4564	0.7883	0.04
Mof_H 	H 	0.166	0.508	0.7974	0.081
Mof_H 	H 	0.2194	0.608	0.857	0.008
Mof_H 	H 	0.0728	0.2778	0.7998	0.006
Mof_H 	H 	0.1448	0.3285	0.8963	0.072
Mof_H 	H 	0.1209	0.3474	0.9697	0.034
Mof_H 	H 	0.9516	0.2632	0.8458	0.023
Mof_H 	H 	0.153	0.2879	0.7901	0.066
Mof_H 	H 	0.1852	0.2546	0.855	0.034
Mof_H 	H 	0.28	0.2605	0.8791	0.055
Mof_H 	H 	0.3387	0.3099	0.8506	0.03
Mof_H 	H 	0.302	0.3416	0.7874	0.064
Mof_H 	H 	0.1376	0.3528	0.731	0.261
Mof_H 	H 	0.2388	0.3716	0.7438	0.037
Mof_H 	H 	0.1778	0.3107	0.7001	0.027
Mof_H 	H 	0.5056	0.1205	0.3125	0.005
Mof_H 	H 	0.5432	0.0597	0.2987	0.069
Mof_H 	H 	0.6051	0.0684	0.2581	0.035
Mof_H 	H 	0.5759	0.1953	0.237	0.023
Mof_H 	H 	0.7435	0.9529	0.114	0.007
Mof_H 	H 	0.7499	0.0114	0.0711	0.063
Mof_H 	H 	0.7234	0.086	0.1002	0.039
Mof_H 	H 	0.6719	0.021	0.1943	0.023
Mof_H 	H 	0.7384	0.2123	0.1269	0.022
Mof_H 	H 	0.6681	0.2854	0.2117	0.04
Mof_H 	H 	0.7106	0.3686	0.2026	0.081
Mof_H 	H 	0.751	0.3624	0.143	0.008
Mof_H 	H 	0.478	0.273	0.2002	0.006
Mof_H 	H 	0.4322	0.2485	0.1037	0.072
Mof_H 	H 	0.3777	0.1512	0.0303	0.034
Mof_H 	H 	0.4174	0.1058	0.1542	0.023
Mof_H 	H 	0.4978	0.3629	0.2099	0.066
Mof_H 	H 	0.3996	0.3302	0.145	0.034
Mof_H 	H 	0.3814	0.4009	0.1209	0.055
Mof_H 	H 	0.4593	0.4881	0.1494	0.03
Mof_H 	H 	0.5542	0.5146	0.2126	0.064
Mof_H 	H 	0.6218	0.4066	0.269	0.261
Mof_H 	H 	0.6278	0.495	0.2562	0.037
Mof_H 	H 	0.6106	0.4777	0.2999	0.027
Mof_H 	H 	0.6875	0.808	0.1931	0.005
Mof_H 	H 	0.7013	0.761	0.2445	0.069
Mof_H 	H 	0.7419	0.8103	0.347	0.035
Mof_H 	H 	0.763	0.9583	0.3389	0.023
Mof_H 	H 	0.886	0.8389	0.6295	0.007
Mof_H 	H 	0.9289	0.9403	0.6788	0.063
Mof_H 	H 	0.8998	0.9858	0.6232	0.039
Mof_H 	H 	0.8057	0.8267	0.4776	0.023
Mof_H 	H 	0.8731	0.0854	0.6115	0.022
Mof_H 	H 	0.7883	0.0737	0.4564	0.04
Mof_H 	H 	0.7974	0.166	0.508	0.081
Mof_H 	H 	0.857	0.2194	0.608	0.008
Mof_H 	H 	0.7998	0.0728	0.2778	0.006
Mof_H 	H 	0.8963	0.1448	0.3285	0.072
Mof_H 	H 	0.9697	0.1209	0.3474	0.034
Mof_H 	H 	0.8458	0.9516	0.2632	0.023
Mof_H 	H 	0.7901	0.153	0.2879	0.066
Mof_H 	H 	0.855	0.1852	0.2546	0.034
Mof_H 	H 	0.8791	0.28	0.2605	0.055
Mof_H 	H 	0.8506	0.3387	0.3099	0.03
Mof_H 	H 	0.7874	0.302	0.3416	0.064
Mof_H 	H 	0.731	0.1376	0.3528	0.261
Mof_H 	H 	0.7438	0.2388	0.3716	0.037
Mof_H 	H 	0.7001	0.1778	0.3107	0.027
Mof_H 	H 	0.3125	0.5056	0.1205	0.005
Mof_H 	H 	0.2987	0.5432	0.0597	0.069
Mof_H 	H 	0.2581	0.6051	0.0684	0.035
Mof_H 	H 	0.237	0.5759	0.1953	0.023
Mof_H 	H 	0.114	0.7435	0.9529	0.007
Mof_H 	H 	0.0711	0.7499	0.0114	0.063
Mof_H 	H 	0.1002	0.7234	0.086	0.039
Mof_H 	H 	0.1943	0.6719	0.021	0.023
Mof_H 	H 	0.1269	0.7384	0.2123	0.022
Mof_H 	H 	0.2117	0.6681	0.2854	0.04
Mof_H 	H 	0.2026	0.7106	0.3686	0.081
Mof_H 	H 	0.143	0.751	0.3624	0.008
Mof_H 	H 	0.2002	0.478	0.273	0.006
Mof_H 	H 	0.1037	0.4322	0.2485	0.072
Mof_H 	H 	0.0303	0.3777	0.1512	0.034
Mof_H 	H 	0.1542	0.4174	0.1058	0.023
Mof_H 	H 	0.2099	0.4978	0.3629	0.066
Mof_H 	H 	0.145	0.3996	0.3302	0.034
Mof_H 	H 	0.1209	0.3814	0.4009	0.055
Mof_H 	H 	0.1494	0.4593	0.4881	0.03
Mof_H 	H 	0.2126	0.5542	0.5146	0.064
Mof_H 	H 	0.269	0.6218	0.4066	0.261
Mof_H 	H 	0.2562	0.6278	0.495	0.037
Mof_H 	H 	0.2999	0.6106	0.4777	0.027
Mof_H 	H 	0.6149	0.4944	0.8069	0.005
Mof_H 	H 	0.5165	0.4568	0.7555	0.069
Mof_H 	H 	0.4633	0.3949	0.653	0.035
Mof_H 	H 	0.6194	0.4241	0.6611	0.023
Mof_H 	H 	0.2094	0.2565	0.3705	0.007
Mof_H 	H 	0.2615	0.2501	0.3212	0.063
Mof_H 	H 	0.3626	0.2766	0.3768	0.039
Mof_H 	H 	0.3491	0.3281	0.5224	0.023
Mof_H 	H 	0.4739	0.2616	0.3885	0.022
Mof_H 	H 	0.6173	0.3319	0.5436	0.04
Mof_H 	H 	0.658	0.2894	0.492	0.081
Mof_H 	H 	0.6114	0.249	0.392	0.008
Mof_H 	H 	0.795	0.522	0.7222	0.006
Mof_H 	H 	0.8163	0.5678	0.6715	0.072
Mof_H 	H 	0.7735	0.6223	0.6526	0.034
Mof_H 	H 	0.6884	0.5826	0.7368	0.023
Mof_H 	H 	0.8651	0.5022	0.7121	0.066
Mof_H 	H 	0.9306	0.6004	0.7454	0.034
Mof_H 	H 	0.0195	0.6186	0.7395	0.055
Mof_H 	H 	0.0288	0.5407	0.6901	0.03
Mof_H 	H 	0.9604	0.4458	0.6584	0.064
Mof_H 	H 	0.7848	0.3782	0.6472	0.261
Mof_H 	H 	0.8672	0.3722	0.6284	0.037
Mof_H 	H 	0.8671	0.3894	0.6893	0.027
Mof_H 	H 	0.3851	0.192	0.8795	0.005
Mof_H 	H 	0.4835	0.239	0.9403	0.069
Mof_H 	H 	0.5367	0.1897	0.9316	0.035
Mof_H 	H 	0.3806	0.0417	0.8047	0.023
Mof_H 	H 	0.7906	0.1611	0.0471	0.007
Mof_H 	H 	0.7385	0.0597	0.9886	0.063
Mof_H 	H 	0.6374	0.0142	0.914	0.039
Mof_H 	H 	0.6509	0.1733	0.979	0.023
Mof_H 	H 	0.5261	0.9146	0.7877	0.022
Mof_H 	H 	0.3827	0.9263	0.7146	0.04
Mof_H 	H 	0.342	0.834	0.6314	0.081
Mof_H 	H 	0.3886	0.7806	0.6376	0.008
Mof_H 	H 	0.205	0.9272	0.727	0.006
Mof_H 	H 	0.1837	0.8552	0.7515	0.072
Mof_H 	H 	0.2265	0.8791	0.8488	0.034
Mof_H 	H 	0.3116	0.0484	0.8942	0.023
Mof_H 	H 	0.1349	0.847	0.6371	0.066
Mof_H 	H 	0.0694	0.8148	0.6698	0.034
Mof_H 	H 	0.9805	0.72	0.5991	0.055
Mof_H 	H 	0.9712	0.6613	0.5119	0.03
Mof_H 	H 	0.0396	0.698	0.4854	0.064
Mof_H 	H 	0.2152	0.8624	0.5934	0.261
Mof_H 	H 	0.1328	0.7612	0.505	0.037
Mof_H 	H 	0.1329	0.8222	0.5223	0.027
Mof_H 	H 	0.8795	0.3851	0.192	0.005
Mof_H 	H 	0.9403	0.4835	0.239	0.069
Mof_H 	H 	0.9316	0.5367	0.1897	0.035
Mof_H 	H 	0.8047	0.3806	0.0417	0.023
Mof_H 	H 	0.0471	0.7906	0.1611	0.007
Mof_H 	H 	0.9886	0.7385	0.0597	0.063
Mof_H 	H 	0.914	0.6374	0.0142	0.039
Mof_H 	H 	0.979	0.6509	0.1733	0.023
Mof_H 	H 	0.7877	0.5261	0.9146	0.022
Mof_H 	H 	0.7146	0.3827	0.9263	0.04
Mof_H 	H 	0.6314	0.342	0.834	0.081
Mof_H 	H 	0.6376	0.3886	0.7806	0.008
Mof_H 	H 	0.727	0.205	0.9272	0.006
Mof_H 	H 	0.7515	0.1837	0.8552	0.072
Mof_H 	H 	0.8488	0.2265	0.8791	0.034
Mof_H 	H 	0.8942	0.3116	0.0484	0.023
Mof_H 	H 	0.6371	0.1349	0.847	0.066
Mof_H 	H 	0.6698	0.0694	0.8148	0.034
Mof_H 	H 	0.5991	0.9805	0.72	0.055
Mof_H 	H 	0.5119	0.9712	0.6613	0.03
Mof_H 	H 	0.4854	0.0396	0.698	0.064
Mof_H 	H 	0.5934	0.2152	0.8624	0.261
Mof_H 	H 	0.505	0.1328	0.7612	0.037
Mof_H 	H 	0.5223	0.1329	0.8222	0.027
Mof_H 	H 	0.8069	0.6149	0.4944	0.005
Mof_H 	H 	0.7555	0.5165	0.4568	0.069
Mof_H 	H 	0.653	0.4633	0.3949	0.035
Mof_H 	H 	0.6611	0.6194	0.4241	0.023
Mof_H 	H 	0.3705	0.2094	0.2565	0.007
Mof_H 	H 	0.3212	0.2615	0.2501	0.063
Mof_H 	H 	0.3768	0.3626	0.2766	0.039
Mof_H 	H 	0.5224	0.3491	0.3281	0.023
Mof_H 	H 	0.3885	0.4739	0.2616	0.022
Mof_H 	H 	0.5436	0.6173	0.3319	0.04
Mof_H 	H 	0.492	0.658	0.2894	0.081
Mof_H 	H 	0.392	0.6114	0.249	0.008
Mof_H 	H 	0.7222	0.795	0.522	0.006
Mof_H 	H 	0.6715	0.8163	0.5678	0.072
Mof_H 	H 	0.6526	0.7735	0.6223	0.034
Mof_H 	H 	0.7368	0.6884	0.5826	0.023
Mof_H 	H 	0.7121	0.8651	0.5022	0.066
Mof_H 	H 	0.7454	0.9306	0.6004	0.034
Mof_H 	H 	0.7395	0.0195	0.6186	0.055
Mof_H 	H 	0.6901	0.0288	0.5407	0.03
Mof_H 	H 	0.6584	0.9604	0.4458	0.064
Mof_H 	H 	0.6472	0.7848	0.3782	0.261
Mof_H 	H 	0.6284	0.8672	0.3722	0.037
Mof_H 	H 	0.6893	0.8671	0.3894	0.027
Mof_H 	H 	0.1205	0.3125	0.5056	0.005
Mof_H 	H 	0.0597	0.2987	0.5432	0.069
Mof_H 	H 	0.0684	0.2581	0.6051	0.035
Mof_H 	H 	0.1953	0.237	0.5759	0.023
Mof_H 	H 	0.9529	0.114	0.7435	0.007
Mof_H 	H 	0.0114	0.0711	0.7499	0.063
Mof_H 	H 	0.086	0.1002	0.7234	0.039
Mof_H 	H 	0.021	0.1943	0.6719	0.023
Mof_H 	H 	0.2123	0.1269	0.7384	0.022
Mof_H 	H 	0.2854	0.2117	0.6681	0.04
Mof_H 	H 	0.3686	0.2026	0.7106	0.081
Mof_H 	H 	0.3624	0.143	0.751	0.008
Mof_H 	H 	0.273	0.2002	0.478	0.006
Mof_H 	H 	0.2485	0.1037	0.4322	0.072
Mof_H 	H 	0.1512	0.0303	0.3777	0.034
Mof_H 	H 	0.1058	0.1542	0.4174	0.023
Mof_H 	H 	0.3629	0.2099	0.4978	0.066
Mof_H 	H 	0.3302	0.145	0.3996	0.034
Mof_H 	H 	0.4009	0.1209	0.3814	0.055
Mof_H 	H 	0.4881	0.1494	0.4593	0.03
Mof_H 	H 	0.5146	0.2126	0.5542	0.064
Mof_H 	H 	0.4066	0.269	0.6218	0.261
Mof_H 	H 	0.495	0.2562	0.6278	0.037
Mof_H 	H 	0.4777	0.2999	0.6106	0.027
Mof_H 	H 	0.1931	0.6875	0.808	0.005
Mof_H 	H 	0.2445	0.7013	0.761	0.069
Mof_H 	H 	0.347	0.7419	0.8103	0.035
Mof_H 	H 	0.3389	0.763	0.9583	0.023
Mof_H 	H 	0.6295	0.886	0.8389	0.007
Mof_H 	H 	0.6788	0.9289	0.9403	0.063
Mof_H 	H 	0.6232	0.8998	0.9858	0.039
Mof_H 	H 	0.4776	0.8057	0.8267	0.023
Mof_H 	H 	0.6115	0.8731	0.0854	0.022
Mof_H 	H 	0.4564	0.7883	0.0737	0.04
Mof_H 	H 	0.508	0.7974	0.166	0.081
Mof_H 	H 	0.608	0.857	0.2194	0.008
Mof_H 	H 	0.2778	0.7998	0.0728	0.006
Mof_H 	H 	0.3285	0.8963	0.1448	0.072
Mof_H 	H 	0.3474	0.9697	0.1209	0.034
Mof_H 	H 	0.2632	0.8458	0.9516	0.023
Mof_H 	H 	0.2879	0.7901	0.153	0.066
Mof_H 	H 	0.2546	0.855	0.1852	0.034
Mof_H 	H 	0.2605	0.8791	0.28	0.055
Mof_H 	H 	0.3099	0.8506	0.3387	0.03
Mof_H 	H 	0.3416	0.7874	0.302	0.064
Mof_H 	H 	0.3528	0.731	0.1376	0.261
Mof_H 	H 	0.3716	0.7438	0.2388	0.037
Mof_H 	H 	0.3107	0.7001	0.1778	0.027
Mof_C 	C 	0.6195	0.8659	0.7226	0.094
Mof_C 	C 	0.3663	0.581	0.5065	0.131
Mof_C 	C 	0.3222	0.4917	0.4275	0.135
Mof_C 	C 	0.3191	0.4994	0.5089	0.14
Mof_C 	C 	0.4722	0.7651	0.5951	0.068
Mof_C 	C 	0.4487	0.735	0.5367	-0.108
Mof_C 	C 	0.4126	0.6744	0.505	0.012
Mof_C 	C 	0.4033	0.6461	0.5364	-0.056
Mof_C 	C 	0.4308	0.6804	0.5978	0.048
Mof_C 	C 	0.27	0.3927	0.2501	0.07
Mof_C 	C 	0.2644	0.3624	0.28	-0.105
Mof_C 	C 	0.2811	0.3954	0.3401	0.006
Mof_C 	C 	0.3038	0.4548	0.3644	-0.052
Mof_C 	C 	0.3103	0.4808	0.3309	0.043
Mof_C 	C 	0.2701	0.4102	0.5131	0.049
Mof_C 	C 	0.299	0.4706	0.5402	-0.058
Mof_C 	C 	0.3095	0.5018	0.5961	0.018
Mof_C 	C 	0.2871	0.4717	0.6216	-0.113
Mof_C 	C 	0.2617	0.4123	0.5926	0.074
Mof_C 	C 	0.5443	0.7151	0.7768	0.072
Mof_C 	C 	0.5712	0.6847	0.7895	-0.113
Mof_C 	C 	0.6027	0.6732	0.7641	0.023
Mof_C 	C 	0.6067	0.6916	0.7249	-0.06
Mof_C 	C 	0.5791	0.7231	0.7148	0.048
Mof_C 	C 	0.6415	0.6822	0.6971	0.138
Mof_C 	C 	0.3989	0.6922	0.7203	0.119
Mof_C 	C 	0.4633	0.6814	0.9053	0.049
Mof_C 	C 	0.5104	0.7078	0.899	-0.074
Mof_C 	C 	0.5695	0.7289	0.9378	-0.005
Mof_C 	C 	0.5794	0.7235	0.9895	-0.066
Mof_C 	C 	0.5339	0.696	0.9959	0.007
Mof_C 	C 	0.477	0.6764	0.9542	-0.087
Mof_C 	C 	0.3981	0.6566	0.8605	0.031
Mof_C 	C 	0.1433	0.8969	0.2774	0.094
Mof_C 	C 	0.0745	0.8598	0.4935	0.131
Mof_C 	C 	0.0642	0.8947	0.5725	0.135
Mof_C 	C 	0.9905	0.8102	0.4911	0.14
Mof_C 	C 	0.17	0.8771	0.4049	0.068
Mof_C 	C 	0.1983	0.912	0.4633	-0.108
Mof_C 	C 	0.1694	0.9076	0.495	0.012
Mof_C 	C 	0.1097	0.8669	0.4636	-0.056
Mof_C 	C 	0.0826	0.833	0.4022	0.048
Mof_C 	C 	0.1426	0.0199	0.7499	0.07
Mof_C 	C 	0.0824	0.9844	0.72	-0.105
Mof_C 	C 	0.0553	0.941	0.6599	0.006
Mof_C 	C 	0.0904	0.9394	0.6356	-0.052
Mof_C 	C 	0.1499	0.9794	0.6691	0.043
Mof_C 	C 	0.8971	0.757	0.4869	0.049
Mof_C 	C 	0.9304	0.7588	0.4598	-0.058
Mof_C 	C 	0.9057	0.7134	0.4039	0.018
Mof_C 	C 	0.8501	0.6655	0.3784	-0.113
Mof_C 	C 	0.8197	0.6691	0.4074	0.074
Mof_C 	C 	0.9383	0.7675	0.2232	0.072
Mof_C 	C 	0.8952	0.7817	0.2105	-0.113
Mof_C 	C 	0.9091	0.8386	0.2359	0.023
Mof_C 	C 	0.9667	0.8818	0.2751	-0.06
Mof_C 	C 	0.0083	0.8643	0.2852	0.048
Mof_C 	C 	0.9851	0.9444	0.3029	0.138
Mof_C 	C 	0.9719	0.6786	0.2797	0.119
Mof_C 	C 	0.7761	0.558	0.0947	0.049
Mof_C 	C 	0.8088	0.6114	0.101	-0.074
Mof_C 	C 	0.7911	0.6317	0.0622	-0.005
Mof_C 	C 	0.734	0.5899	0.0105	-0.066
Mof_C 	C 	0.7001	0.538	0.0041	0.007
Mof_C 	C 	0.7222	0.5228	0.0458	-0.087
Mof_C 	C 	0.7961	0.5376	0.1395	0.031
Mof_C 	C 	0.8567	0.1341	0.7536	0.094
Mof_C 	C 	0.9255	0.419	0.7853	0.131
Mof_C 	C 	0.9358	0.5083	0.8305	0.135
Mof_C 	C 	0.0095	0.5006	0.8197	0.14
Mof_C 	C 	0.83	0.2349	0.7071	0.068
Mof_C 	C 	0.8017	0.265	0.7137	-0.108
Mof_C 	C 	0.8306	0.3256	0.7382	0.012
Mof_C 	C 	0.8903	0.3539	0.7572	-0.056
Mof_C 	C 	0.9174	0.3196	0.7504	0.048
Mof_C 	C 	0.8574	0.6073	0.8773	0.07
Mof_C 	C 	0.9176	0.6376	0.902	-0.105
Mof_C 	C 	0.9447	0.6046	0.8857	0.006
Mof_C 	C 	0.9096	0.5452	0.849	-0.052
Mof_C 	C 	0.8501	0.5192	0.8295	0.043
Mof_C 	C 	0.1029	0.5898	0.8599	0.049
Mof_C 	C 	0.0696	0.5294	0.8284	-0.058
Mof_C 	C 	0.0943	0.4982	0.8077	0.018
Mof_C 	C 	0.1499	0.5283	0.8154	-0.113
Mof_C 	C 	0.1803	0.5877	0.8494	0.074
Mof_C 	C 	0.0617	0.2849	0.8292	0.072
Mof_C 	C 	0.1048	0.3153	0.8865	-0.113
Mof_C 	C 	0.0909	0.3268	0.9295	0.023
Mof_C 	C 	0.0333	0.3084	0.9151	-0.06
Mof_C 	C 	0.9917	0.2769	0.856	0.048
Mof_C 	C 	0.0149	0.3178	0.9593	0.138
Mof_C 	C 	0.0281	0.3078	0.7067	0.119
Mof_C 	C 	0.2239	0.3186	0.7819	0.049
Mof_C 	C 	0.1912	0.2922	0.8026	-0.074
Mof_C 	C 	0.2089	0.2711	0.8406	-0.005
Mof_C 	C 	0.266	0.2765	0.8559	-0.066
Mof_C 	C 	0.2999	0.304	0.8379	0.007
Mof_C 	C 	0.2778	0.3236	0.8006	-0.087
Mof_C 	C 	0.2039	0.3434	0.7415	0.031
Mof_C 	C 	0.3805	0.1031	0.2464	0.094
Mof_C 	C 	0.6337	0.1402	0.2147	0.131
Mof_C 	C 	0.6778	0.1053	0.1695	0.135
Mof_C 	C 	0.6809	0.1898	0.1803	0.14
Mof_C 	C 	0.5278	0.1229	0.2929	0.068
Mof_C 	C 	0.5513	0.088	0.2863	-0.108
Mof_C 	C 	0.5874	0.0924	0.2618	0.012
Mof_C 	C 	0.5967	0.1331	0.2428	-0.056
Mof_C 	C 	0.5692	0.167	0.2496	0.048
Mof_C 	C 	0.73	0.9801	0.1227	0.07
Mof_C 	C 	0.7356	0.0156	0.098	-0.105
Mof_C 	C 	0.7189	0.059	0.1143	0.006
Mof_C 	C 	0.6962	0.0606	0.151	-0.052
Mof_C 	C 	0.6897	0.0206	0.1705	0.043
Mof_C 	C 	0.7299	0.243	0.1401	0.049
Mof_C 	C 	0.701	0.2412	0.1716	-0.058
Mof_C 	C 	0.6905	0.2866	0.1923	0.018
Mof_C 	C 	0.7129	0.3345	0.1846	-0.113
Mof_C 	C 	0.7383	0.3309	0.1506	0.074
Mof_C 	C 	0.4557	0.2325	0.1708	0.072
Mof_C 	C 	0.4288	0.2183	0.1135	-0.113
Mof_C 	C 	0.3973	0.1614	0.0705	0.023
Mof_C 	C 	0.3933	0.1182	0.0849	-0.06
Mof_C 	C 	0.4209	0.1357	0.144	0.048
Mof_C 	C 	0.3585	0.0556	0.0407	0.138
Mof_C 	C 	0.6011	0.3214	0.2933	0.119
Mof_C 	C 	0.5367	0.442	0.2181	0.049
Mof_C 	C 	0.4896	0.3886	0.1974	-0.074
Mof_C 	C 	0.4305	0.3683	0.1594	-0.005
Mof_C 	C 	0.4206	0.4101	0.1441	-0.066
Mof_C 	C 	0.4661	0.462	0.1621	0.007
Mof_C 	C 	0.523	0.4772	0.1994	-0.087
Mof_C 	C 	0.6019	0.4624	0.2585	0.031
Mof_C 	C 	0.7536	0.8567	0.1341	0.094
Mof_C 	C 	0.7853	0.9255	0.419	0.131
Mof_C 	C 	0.8305	0.9358	0.5083	0.135
Mof_C 	C 	0.8197	0.0095	0.5006	0.14
Mof_C 	C 	0.7071	0.83	0.2349	0.068
Mof_C 	C 	0.7137	0.8017	0.265	-0.108
Mof_C 	C 	0.7382	0.8306	0.3256	0.012
Mof_C 	C 	0.7572	0.8903	0.3539	-0.056
Mof_C 	C 	0.7504	0.9174	0.3196	0.048
Mof_C 	C 	0.8773	0.8574	0.6073	0.07
Mof_C 	C 	0.902	0.9176	0.6376	-0.105
Mof_C 	C 	0.8857	0.9447	0.6046	0.006
Mof_C 	C 	0.849	0.9096	0.5452	-0.052
Mof_C 	C 	0.8295	0.8501	0.5192	0.043
Mof_C 	C 	0.8599	0.1029	0.5898	0.049
Mof_C 	C 	0.8284	0.0696	0.5294	-0.058
Mof_C 	C 	0.8077	0.0943	0.4982	0.018
Mof_C 	C 	0.8154	0.1499	0.5283	-0.113
Mof_C 	C 	0.8494	0.1803	0.5877	0.074
Mof_C 	C 	0.8292	0.0617	0.2849	0.072
Mof_C 	C 	0.8865	0.1048	0.3153	-0.113
Mof_C 	C 	0.9295	0.0909	0.3268	0.023
Mof_C 	C 	0.9151	0.0333	0.3084	-0.06
Mof_C 	C 	0.856	0.9917	0.2769	0.048
Mof_C 	C 	0.9593	0.0149	0.3178	0.138
Mof_C 	C 	0.7067	0.0281	0.3078	0.119
Mof_C 	C 	0.7819	0.2239	0.3186	0.049
Mof_C 	C 	0.8026	0.1912	0.2922	-0.074
Mof_C 	C 	0.8406	0.2089	0.2711	-0.005
Mof_C 	C 	0.8559	0.266	0.2765	-0.066
Mof_C 	C 	0.8379	0.2999	0.304	0.007
Mof_C 	C 	0.8006	0.2778	0.3236	-0.087
Mof_C 	C 	0.7415	0.2039	0.3434	0.031
Mof_C 	C 	0.2464	0.3805	0.1031	0.094
Mof_C 	C 	0.2147	0.6337	0.1402	0.131
Mof_C 	C 	0.1695	0.6778	0.1053	0.135
Mof_C 	C 	0.1803	0.6809	0.1898	0.14
Mof_C 	C 	0.2929	0.5278	0.1229	0.068
Mof_C 	C 	0.2863	0.5513	0.088	-0.108
Mof_C 	C 	0.2618	0.5874	0.0924	0.012
Mof_C 	C 	0.2428	0.5967	0.1331	-0.056
Mof_C 	C 	0.2496	0.5692	0.167	0.048
Mof_C 	C 	0.1227	0.73	0.9801	0.07
Mof_C 	C 	0.098	0.7356	0.0156	-0.105
Mof_C 	C 	0.1143	0.7189	0.059	0.006
Mof_C 	C 	0.151	0.6962	0.0606	-0.052
Mof_C 	C 	0.1705	0.6897	0.0206	0.043
Mof_C 	C 	0.1401	0.7299	0.243	0.049
Mof_C 	C 	0.1716	0.701	0.2412	-0.058
Mof_C 	C 	0.1923	0.6905	0.2866	0.018
Mof_C 	C 	0.1846	0.7129	0.3345	-0.113
Mof_C 	C 	0.1506	0.7383	0.3309	0.074
Mof_C 	C 	0.1708	0.4557	0.2325	0.072
Mof_C 	C 	0.1135	0.4288	0.2183	-0.113
Mof_C 	C 	0.0705	0.3973	0.1614	0.023
Mof_C 	C 	0.0849	0.3933	0.1182	-0.06
Mof_C 	C 	0.144	0.4209	0.1357	0.048
Mof_C 	C 	0.0407	0.3585	0.0556	0.138
Mof_C 	C 	0.2933	0.6011	0.3214	0.119
Mof_C 	C 	0.2181	0.5367	0.442	0.049
Mof_C 	C 	0.1974	0.4896	0.3886	-0.074
Mof_C 	C 	0.1594	0.4305	0.3683	-0.005
Mof_C 	C 	0.1441	0.4206	0.4101	-0.066
Mof_C 	C 	0.1621	0.4661	0.462	0.007
Mof_C 	C 	0.1994	0.523	0.4772	-0.087
Mof_C 	C 	0.2585	0.6019	0.4624	0.031
Mof_C 	C 	0.7226	0.6195	0.8659	0.094
Mof_C 	C 	0.5065	0.3663	0.581	0.131
Mof_C 	C 	0.4275	0.3222	0.4917	0.135
Mof_C 	C 	0.5089	0.3191	0.4994	0.14
Mof_C 	C 	0.5951	0.4722	0.7651	0.068
Mof_C 	C 	0.5367	0.4487	0.735	-0.108
Mof_C 	C 	0.505	0.4126	0.6744	0.012
Mof_C 	C 	0.5364	0.4033	0.6461	-0.056
Mof_C 	C 	0.5978	0.4308	0.6804	0.048
Mof_C 	C 	0.2501	0.27	0.3927	0.07
Mof_C 	C 	0.28	0.2644	0.3624	-0.105
Mof_C 	C 	0.3401	0.2811	0.3954	0.006
Mof_C 	C 	0.3644	0.3038	0.4548	-0.052
Mof_C 	C 	0.3309	0.3103	0.4808	0.043
Mof_C 	C 	0.5131	0.2701	0.4102	0.049
Mof_C 	C 	0.5402	0.299	0.4706	-0.058
Mof_C 	C 	0.5961	0.3095	0.5018	0.018
Mof_C 	C 	0.6216	0.2871	0.4717	-0.113
Mof_C 	C 	0.5926	0.2617	0.4123	0.074
Mof_C 	C 	0.7768	0.5443	0.7151	0.072
Mof_C 	C 	0.7895	0.5712	0.6847	-0.113
Mof_C 	C 	0.7641	0.6027	0.6732	0.023
Mof_C 	C 	0.7249	0.6067	0.6916	-0.06
Mof_C 	C 	0.7148	0.5791	0.7231	0.048
Mof_C 	C 	0.6971	0.6415	0.6822	0.138
Mof_C 	C 	0.7203	0.3989	0.6922	0.119
Mof_C 	C 	0.9053	0.4633	0.6814	0.049
Mof_C 	C 	0.899	0.5104	0.7078	-0.074
Mof_C 	C 	0.9378	0.5695	0.7289	-0.005
Mof_C 	C 	0.9895	0.5794	0.7235	-0.066
Mof_C 	C 	0.9959	0.5339	0.696	0.007
Mof_C 	C 	0.9542	0.477	0.6764	-0.087
Mof_C 	C 	0.8605	0.3981	0.6566	0.031
Mof_C 	C 	0.2774	0.1433	0.8969	0.094
Mof_C 	C 	0.4935	0.0745	0.8598	0.131
Mof_C 	C 	0.5725	0.0642	0.8947	0.135
Mof_C 	C 	0.4911	0.9905	0.8102	0.14
Mof_C 	C 	0.4049	0.17	0.8771	0.068
Mof_C 	C 	0.4633	0.1983	0.912	-0.108
Mof_C 	C 	0.495	0.1694	0.9076	0.012
Mof_C 	C 	0.4636	0.1097	0.8669	-0.056
Mof_C 	C 	0.4022	0.0826	0.833	0.048
Mof_C 	C 	0.7499	0.1426	0.0199	0.07
Mof_C 	C 	0.72	0.0824	0.9844	-0.105
Mof_C 	C 	0.6599	0.0553	0.941	0.006
Mof_C 	C 	0.6356	0.0904	0.9394	-0.052
Mof_C 	C 	0.6691	0.1499	0.9794	0.043
Mof_C 	C 	0.4869	0.8971	0.757	0.049
Mof_C 	C 	0.4598	0.9304	0.7588	-0.058
Mof_C 	C 	0.4039	0.9057	0.7134	0.018
Mof_C 	C 	0.3784	0.8501	0.6655	-0.113
Mof_C 	C 	0.4074	0.8197	0.6691	0.074
Mof_C 	C 	0.2232	0.9383	0.7675	0.072
Mof_C 	C 	0.2105	0.8952	0.7817	-0.113
Mof_C 	C 	0.2359	0.9091	0.8386	0.023
Mof_C 	C 	0.2751	0.9667	0.8818	-0.06
Mof_C 	C 	0.2852	0.0083	0.8643	0.048
Mof_C 	C 	0.3029	0.9851	0.9444	0.138
Mof_C 	C 	0.2797	0.9719	0.6786	0.119
Mof_C 	C 	0.0947	0.7761	0.558	0.049
Mof_C 	C 	0.101	0.8088	0.6114	-0.074
Mof_C 	C 	0.0622	0.7911	0.6317	-0.005
Mof_C 	C 	0.0105	0.734	0.5899	-0.066
Mof_C 	C 	0.0041	0.7001	0.538	0.007
Mof_C 	C 	0.0458	0.7222	0.5228	-0.087
Mof_C 	C 	0.1395	0.7961	0.5376	0.031
Mof_C 	C 	0.8969	0.2774	0.1433	0.094
Mof_C 	C 	0.8598	0.4935	0.0745	0.131
Mof_C 	C 	0.8947	0.5725	0.0642	0.135
Mof_C 	C 	0.8102	0.4911	0.9905	0.14
Mof_C 	C 	0.8771	0.4049	0.17	0.068
Mof_C 	C 	0.912	0.4633	0.1983	-0.108
Mof_C 	C 	0.9076	0.495	0.1694	0.012
Mof_C 	C 	0.8669	0.4636	0.1097	-0.056
Mof_C 	C 	0.833	0.4022	0.0826	0.048
Mof_C 	C 	0.0199	0.7499	0.1426	0.07
Mof_C 	C 	0.9844	0.72	0.0824	-0.105
Mof_C 	C 	0.941	0.6599	0.0553	0.006
Mof_C 	C 	0.9394	0.6356	0.0904	-0.052
Mof_C 	C 	0.9794	0.6691	0.1499	0.043
Mof_C 	C 	0.757	0.4869	0.8971	0.049
Mof_C 	C 	0.7588	0.4598	0.9304	-0.058
Mof_C 	C 	0.7134	0.4039	0.9057	0.018
Mof_C 	C 	0.6655	0.3784	0.8501	-0.113
Mof_C 	C 	0.6691	0.4074	0.8197	0.074
Mof_C 	C 	0.7675	0.2232	0.9383	0.072
Mof_C 	C 	0.7817	0.2105	0.8952	-0.113
Mof_C 	C 	0.8386	0.2359	0.9091	0.023
Mof_C 	C 	0.8818	0.2751	0.9667	-0.06
Mof_C 	C 	0.8643	0.2852	0.0083	0.048
Mof_C 	C 	0.9444	0.3029	0.9851	0.138
Mof_C 	C 	0.6786	0.2797	0.9719	0.119
Mof_C 	C 	0.558	0.0947	0.7761	0.049
Mof_C 	C 	0.6114	0.101	0.8088	-0.074
Mof_C 	C 	0.6317	0.0622	0.7911	-0.005
Mof_C 	C 	0.5899	0.0105	0.734	-0.066
Mof_C 	C 	0.538	0.0041	0.7001	0.007
Mof_C 	C 	0.5228	0.0458	0.7222	-0.087
Mof_C 	C 	0.5376	0.1395	0.7961	0.031
Mof_C 	C 	0.8659	0.7226	0.6195	0.094
Mof_C 	C 	0.581	0.5065	0.3663	0.131
Mof_C 	C 	0.4917	0.4275	0.3222	0.135
Mof_C 	C 	0.4994	0.5089	0.3191	0.14
Mof_C 	C 	0.7651	0.5951	0.4722	0.068
Mof_C 	C 	0.735	0.5367	0.4487	-0.108
Mof_C 	C 	0.6744	0.505	0.4126	0.012
Mof_C 	C 	0.6461	0.5364	0.4033	-0.056
Mof_C 	C 	0.6804	0.5978	0.4308	0.048
Mof_C 	C 	0.3927	0.2501	0.27	0.07
Mof_C 	C 	0.3624	0.28	0.2644	-0.105
Mof_C 	C 	0.3954	0.3401	0.2811	0.006
Mof_C 	C 	0.4548	0.3644	0.3038	-0.052
Mof_C 	C 	0.4808	0.3309	0.3103	0.043
Mof_C 	C 	0.4102	0.5131	0.2701	0.049
Mof_C 	C 	0.4706	0.5402	0.299	-0.058
Mof_C 	C 	0.5018	0.5961	0.3095	0.018
Mof_C 	C 	0.4717	0.6216	0.2871	-0.113
Mof_C 	C 	0.4123	0.5926	0.2617	0.074
Mof_C 	C 	0.7151	0.7768	0.5443	0.072
Mof_C 	C 	0.6847	0.7895	0.5712	-0.113
Mof_C 	C 	0.6732	0.7641	0.6027	0.023
Mof_C 	C 	0.6916	0.7249	0.6067	-0.06
Mof_C 	C 	0.7231	0.7148	0.5791	0.048
Mof_C 	C 	0.6822	0.6971	0.6415	0.138
Mof_C 	C 	0.6922	0.7203	0.3989	0.119
Mof_C 	C 	0.6814	0.9053	0.4633	0.049
Mof_C 	C 	0.7078	0.899	0.5104	-0.074
Mof_C 	C 	0.7289	0.9378	0.5695	-0.005
Mof_C 	C 	0.7235	0.9895	0.5794	-0.066
Mof_C 	C 	0.696	0.9959	0.5339	0.007
Mof_C 	C 	0.6764	0.9542	0.477	-0.087
Mof_C 	C 	0.6566	0.8605	0.3981	0.031
Mof_C 	C 	0.1031	0.2464	0.3805	0.094
Mof_C 	C 	0.1402	0.2147	0.6337	0.131
Mof_C 	C 	0.1053	0.1695	0.6778	0.135
Mof_C 	C 	0.1898	0.1803	0.6809	0.14
Mof_C 	C 	0.1229	0.2929	0.5278	0.068
Mof_C 	C 	0.088	0.2863	0.5513	-0.108
Mof_C 	C 	0.0924	0.2618	0.5874	0.012
Mof_C 	C 	0.1331	0.2428	0.5967	-0.056
Mof_C 	C 	0.167	0.2496	0.5692	0.048
Mof_C 	C 	0.9801	0.1227	0.73	0.07
Mof_C 	C 	0.0156	0.098	0.7356	-0.105
Mof_C 	C 	0.059	0.1143	0.7189	0.006
Mof_C 	C 	0.0606	0.151	0.6962	-0.052
Mof_C 	C 	0.0206	0.1705	0.6897	0.043
Mof_C 	C 	0.243	0.1401	0.7299	0.049
Mof_C 	C 	0.2412	0.1716	0.701	-0.058
Mof_C 	C 	0.2866	0.1923	0.6905	0.018
Mof_C 	C 	0.3345	0.1846	0.7129	-0.113
Mof_C 	C 	0.3309	0.1506	0.7383	0.074
Mof_C 	C 	0.2325	0.1708	0.4557	0.072
Mof_C 	C 	0.2183	0.1135	0.4288	-0.113
Mof_C 	C 	0.1614	0.0705	0.3973	0.023
Mof_C 	C 	0.1182	0.0849	0.3933	-0.06
Mof_C 	C 	0.1357	0.144	0.4209	0.048
Mof_C 	C 	0.0556	0.0407	0.3585	0.138
Mof_C 	C 	0.3214	0.2933	0.6011	0.119
Mof_C 	C 	0.442	0.2181	0.5367	0.049
Mof_C 	C 	0.3886	0.1974	0.4896	-0.074
Mof_C 	C 	0.3683	0.1594	0.4305	-0.005
Mof_C 	C 	0.4101	0.1441	0.4206	-0.066
Mof_C 	C 	0.462	0.1621	0.4661	0.007
Mof_C 	C 	0.4772	0.1994	0.523	-0.087
Mof_C 	C 	0.4624	0.2585	0.6019	0.031
Mof_C 	C 	0.1341	0.7536	0.8567	0.094
Mof_C 	C 	0.419	0.7853	0.9255	0.131
Mof_C 	C 	0.5083	0.8305	0.9358	0.135
Mof_C 	C 	0.5006	0.8197	0.0095	0.14
Mof_C 	C 	0.2349	0.7071	0.83	0.068
Mof_C 	C 	0.265	0.7137	0.8017	-0.108
Mof_C 	C 	0.3256	0.7382	0.8306	0.012
Mof_C 	C 	0.3539	0.7572	0.8903	-0.056
Mof_C 	C 	0.3196	0.7504	0.9174	0.048
Mof_C 	C 	0.6073	0.8773	0.8574	0.07
Mof_C 	C 	0.6376	0.902	0.9176	-0.105
Mof_C 	C 	0.6046	0.8857	0.9447	0.006
Mof_C 	C 	0.5452	0.849	0.9096	-0.052
Mof_C 	C 	0.5192	0.8295	0.8501	0.043
Mof_C 	C 	0.5898	0.8599	0.1029	0.049
Mof_C 	C 	0.5294	0.8284	0.0696	-0.058
Mof_C 	C 	0.4982	0.8077	0.0943	0.018
Mof_C 	C 	0.5283	0.8154	0.1499	-0.113
Mof_C 	C 	0.5877	0.8494	0.1803	0.074
Mof_C 	C 	0.2849	0.8292	0.0617	0.072
Mof_C 	C 	0.3153	0.8865	0.1048	-0.113
Mof_C 	C 	0.3268	0.9295	0.0909	0.023
Mof_C 	C 	0.3084	0.9151	0.0333	-0.06
Mof_C 	C 	0.2769	0.856	0.9917	0.048
Mof_C 	C 	0.3178	0.9593	0.0149	0.138
Mof_C 	C 	0.3078	0.7067	0.0281	0.119
Mof_C 	C 	0.3186	0.7819	0.2239	0.049
Mof_C 	C 	0.2922	0.8026	0.1912	-0.074
Mof_C 	C 	0.2711	0.8406	0.2089	-0.005
Mof_C 	C 	0.2765	0.8559	0.266	-0.066
Mof_C 	C 	0.304	0.8379	0.2999	0.007
Mof_C 	C 	0.3236	0.8006	0.2778	-0.087
Mof_C 	C 	0.3434	0.7415	0.2039	0.031
Mof_S 	S 	0.674	0.8948	0.7136	-0.054
Mof_S 	S 	0.36648	0.64126	0.73598	-0.146
Mof_S 	S 	0.1812	0.9604	0.2864	-0.054
Mof_S 	S 	0.90528	0.6305	0.26402	-0.146
Mof_S 	S 	0.8188	0.1052	0.7792	-0.054
Mof_S 	S 	0.09472	0.35874	0.72522	-0.146
Mof_S 	S 	0.326	0.0396	0.2208	-0.054
Mof_S 	S 	0.63352	0.3695	0.27478	-0.146
Mof_S 	S 	0.7792	0.8188	0.1052	-0.054
Mof_S 	S 	0.72522	0.09472	0.35874	-0.146
Mof_S 	S 	0.2208	0.326	0.0396	-0.054
Mof_S 	S 	0.27478	0.63352	0.3695	-0.146
Mof_S 	S 	0.7136	0.674	0.8948	-0.054
Mof_S 	S 	0.73598	0.36648	0.64126	-0.146
Mof_S 	S 	0.2864	0.1812	0.9604	-0.054
Mof_S 	S 	0.26402	0.90528	0.6305	-0.146
Mof_S 	S 	0.9604	0.2864	0.1812	-0.054
Mof_S 	S 	0.6305	0.26402	0.90528	-0.146
Mof_S 	S 	0.8948	0.7136	0.674	-0.054
Mof_S 	S 	0.64126	0.73598	0.36648	-0.146
Mof_S 	S 	0.0396	0.2208	0.326	-0.054
Mof_S 	S 	0.3695	0.27478	0.63352	-0.146
Mof_S 	S 	0.1052	0.7792	0.8188	-0.054
Mof_S 	S 	0.35874	0.72522	0.09472	-0.146
Mof_N 	N 	0.5796	0.8472	0.7284	-0.198
Mof_N 	N 	0.4658	0.73855	0.62735	-0.176
Mof_N 	N 	0.3499	0.5583	0.5382	-0.151
Mof_N 	N 	0.3537	0.5514	0.4517	-0.151
Mof_N 	N 	0.3065	0.4653	0.455	-0.154
Mof_N 	N 	0.2926	0.4499	0.2737	-0.172
Mof_N 	N 	0.2532	0.3802	0.539	-0.175
Mof_N 	N 	0.5473	0.7362	0.7397	-0.173
Mof_N 	N 	0.6476	0.7063	0.6641	-0.151
Mof_N 	N 	0.4319	0.7292	0.7185	-0.202
Mof_N 	N 	0.1188	0.8512	0.2716	-0.198
Mof_N 	N 	0.1112	0.83845	0.37265	-0.176
Mof_N 	N 	0.0201	0.8117	0.4618	-0.151
Mof_N 	N 	0.0997	0.902	0.5483	-0.151
Mof_N 	N 	0.0103	0.8515	0.545	-0.154
Mof_N 	N 	0.1762	0.0189	0.7263	-0.172
Mof_N 	N 	0.8412	0.7142	0.461	-0.175
Mof_N 	N 	0.9965	0.8076	0.2603	-0.173
Mof_N 	N 	0.0422	0.9835	0.3359	-0.151
Mof_N 	N 	0.0107	0.7134	0.2815	-0.202
Mof_N 	N 	0.8812	0.1528	0.7324	-0.198
Mof_N 	N 	0.8888	0.26145	0.72725	-0.176
Mof_N 	N 	0.9799	0.4417	0.7916	-0.151
Mof_N 	N 	0.9003	0.4486	0.8023	-0.151
Mof_N 	N 	0.9897	0.5347	0.8412	-0.154
Mof_N 	N 	0.8238	0.5501	0.8427	-0.172
Mof_N 	N 	0.1588	0.6198	0.873	-0.175
Mof_N 	N 	0.0035	0.2638	0.8111	-0.173
Mof_N 	N 	0.9578	0.2937	0.9413	-0.151
Mof_N 	N 	0.9893	0.2708	0.7027	-0.202
Mof_N 	N 	0.4204	0.1488	0.2676	-0.198
Mof_N 	N 	0.5342	0.16155	0.27275	-0.176
Mof_N 	N 	0.6501	0.1883	0.2084	-0.151
Mof_N 	N 	0.6463	0.098	0.1977	-0.151
Mof_N 	N 	0.6935	0.1485	0.1588	-0.154
Mof_N 	N 	0.7074	0.9811	0.1573	-0.172
Mof_N 	N 	0.7468	0.2858	0.127	-0.175
Mof_N 	N 	0.4527	0.1924	0.1889	-0.173
Mof_N 	N 	0.3524	0.0165	0.0587	-0.151
Mof_N 	N 	0.5681	0.2866	0.2973	-0.202
Mof_N 	N 	0.7324	0.8812	0.1528	-0.198
Mof_N 	N 	0.72725	0.8888	0.26145	-0.176
Mof_N 	N 	0.7916	0.9799	0.4417	-0.151
Mof_N 	N 	0.8023	0.9003	0.4486	-0.151
Mof_N 	N 	0.8412	0.9897	0.5347	-0.154
Mof_N 	N 	0.8427	0.8238	0.5501	-0.172
Mof_N 	N 	0.873	0.1588	0.6198	-0.175
Mof_N 	N 	0.8111	0.0035	0.2638	-0.173
Mof_N 	N 	0.9413	0.9578	0.2937	-0.151
Mof_N 	N 	0.7027	0.9893	0.2708	-0.202
Mof_N 	N 	0.2676	0.4204	0.1488	-0.198
Mof_N 	N 	0.27275	0.5342	0.16155	-0.176
Mof_N 	N 	0.2084	0.6501	0.1883	-0.151
Mof_N 	N 	0.1977	0.6463	0.098	-0.151
Mof_N 	N 	0.1588	0.6935	0.1485	-0.154
Mof_N 	N 	0.1573	0.7074	0.9811	-0.172
Mof_N 	N 	0.127	0.7468	0.2858	-0.175
Mof_N 	N 	0.1889	0.4527	0.1924	-0.173
Mof_N 	N 	0.0587	0.3524	0.0165	-0.151
Mof_N 	N 	0.2973	0.5681	0.2866	-0.202
Mof_N 	N 	0.7284	0.5796	0.8472	-0.198
Mof_N 	N 	0.62735	0.4658	0.73855	-0.176
Mof_N 	N 	0.5382	0.3499	0.5583	-0.151
Mof_N 	N 	0.4517	0.3537	0.5514	-0.151
Mof_N 	N 	0.455	0.3065	0.4653	-0.154
Mof_N 	N 	0.2737	0.2926	0.4499	-0.172
Mof_N 	N 	0.539	0.2532	0.3802	-0.175
Mof_N 	N 	0.7397	0.5473	0.7362	-0.173
Mof_N 	N 	0.6641	0.6476	0.7063	-0.151
Mof_N 	N 	0.7185	0.4319	0.7292	-0.202
Mof_N 	N 	0.2716	0.1188	0.8512	-0.198
Mof_N 	N 	0.37265	0.1112	0.83845	-0.176
Mof_N 	N 	0.4618	0.0201	0.8117	-0.151
Mof_N 	N 	0.5483	0.0997	0.902	-0.151
Mof_N 	N 	0.545	0.0103	0.8515	-0.154
Mof_N 	N 	0.7263	0.1762	0.0189	-0.172
Mof_N 	N 	0.461	0.8412	0.7142	-0.175
Mof_N 	N 	0.2603	0.9965	0.8076	-0.173
Mof_N 	N 	0.3359	0.0422	0.9835	-0.151
Mof_N 	N 	0.2815	0.0107	0.7134	-0.202
Mof_N 	N 	0.8512	0.2716	0.1188	-0.198
Mof_N 	N 	0.83845	0.37265	0.1112	-0.176
Mof_N 	N 	0.8117	0.4618	0.0201	-0.151
Mof_N 	N 	0.902	0.5483	0.0997	-0.151
Mof_N 	N 	0.8515	0.545	0.0103	-0.154
Mof_N 	N 	0.0189	0.7263	0.1762	-0.172
Mof_N 	N 	0.7142	0.461	0.8412	-0.175
Mof_N 	N 	0.8076	0.2603	0.9965	-0.173
Mof_N 	N 	0.9835	0.3359	0.0422	-0.151
Mof_N 	N 	0.7134	0.2815	0.0107	-0.202
Mof_N 	N 	0.8472	0.7284	0.5796	-0.198
Mof_N 	N 	0.73855	0.62735	0.4658	-0.176
Mof_N 	N 	0.5583	0.5382	0.3499	-0.151
Mof_N 	N 	0.5514	0.4517	0.3537	-0.151
Mof_N 	N 	0.4653	0.455	0.3065	-0.154
Mof_N 	N 	0.4499	0.2737	0.2926	-0.172
Mof_N 	N 	0.3802	0.539	0.2532	-0.175
Mof_N 	N 	0.7362	0.7397	0.5473	-0.173
Mof_N 	N 	0.7063	0.6641	0.6476	-0.151
Mof_N 	N 	0.7292	0.7185	0.4319	-0.202
Mof_N 	N 	0.1488	0.2676	0.4204	-0.198
Mof_N 	N 	0.16155	0.27275	0.5342	-0.176
Mof_N 	N 	0.1883	0.2084	0.6501	-0.151
Mof_N 	N 	0.098	0.1977	0.6463	-0.151
Mof_N 	N 	0.1485	0.1588	0.6935	-0.154
Mof_N 	N 	0.9811	0.1573	0.7074	-0.172
Mof_N 	N 	0.2858	0.127	0.7468	-0.175
Mof_N 	N 	0.1924	0.1889	0.4527	-0.173
Mof_N 	N 	0.0165	0.0587	0.3524	-0.151
Mof_N 	N 	0.2866	0.2973	0.5681	-0.202
Mof_N 	N 	0.1528	0.7324	0.8812	-0.198
Mof_N 	N 	0.26145	0.72725	0.8888	-0.176
Mof_N 	N 	0.4417	0.7916	0.9799	-0.151
Mof_N 	N 	0.4486	0.8023	0.9003	-0.151
Mof_N 	N 	0.5347	0.8412	0.9897	-0.154
Mof_N 	N 	0.5501	0.8427	0.8238	-0.172
Mof_N 	N 	0.6198	0.873	0.1588	-0.175
Mof_N 	N 	0.2638	0.8111	0.0035	-0.173
Mof_N 	N 	0.2937	0.9413	0.9578	-0.151
Mof_N 	N 	0.2708	0.7027	0.9893	-0.202
Mof_O 	O 	0.385	0.6275	0.8007	-0.348
Mof_O 	O 	0.8268	0.5843	0.1993	-0.348
Mof_O 	O 	0.1732	0.3725	0.7575	-0.348
Mof_O 	O 	0.615	0.4157	0.2425	-0.348
Mof_O 	O 	0.7575	0.1732	0.3725	-0.348
Mof_O 	O 	0.2425	0.615	0.4157	-0.348
Mof_O 	O 	0.8007	0.385	0.6275	-0.348
Mof_O 	O 	0.1993	0.8268	0.5843	-0.348
Mof_O 	O 	0.5843	0.1993	0.8268	-0.348
Mof_O 	O 	0.6275	0.8007	0.385	-0.348
Mof_O 	O 	0.4157	0.2425	0.615	-0.348
Mof_O 	O 	0.3725	0.7575	0.1732	-0.348
_end
