data_functionalizedCrystal
_audit_creation_method	'EQeq! by Chris Wilmer'
_symmetry_space_group_name_H-M	'P1'
_symmetry_Int_Tables_number	1
_symmetry_cell_setting	triclinic
loop_
_symmetry_equiv_pos_as_xyz
  x,y,z
_cell_length_a	20.5227
_cell_length_b	20.5227
_cell_length_c	20.5227
_cell_angle_alpha	107.119
_cell_angle_beta	107.119
_cell_angle_gamma	107.119
loop_
_atom_site_label
_atom_site_type_symbol
_atom_site_fract_x
_atom_site_fract_y
_atom_site_fract_z
_atom_site_charge
Mof_Fe	Fe	0.52411	0.42511	0.97585	0.968
Mof_Fe	Fe	0.97585	0.52411	0.42511	0.968
Mof_Fe	Fe	0.37121	0.37121	0.82457	1.003
Mof_Fe	Fe	0.42511	0.97585	0.52411	0.967
Mof_Fe	Fe	0.82457	0.37121	0.37121	1.002
Mof_Fe	Fe	0.42511	0.52411	0.97585	0.967
Mof_Fe	Fe	0.52411	0.97585	0.42511	0.967
Mof_Fe	Fe	0.37121	0.82457	0.37121	1.002
Mof_Fe	Fe	0.97585	0.42511	0.52411	0.967
Mof_H 	H 	0.9999	0.4113	0.1065	0.072
Mof_H 	H 	0.9874	0.4638	0.2162	0.011
Mof_H 	H 	0.4638	0.9874	0.2162	0.011
Mof_H 	H 	0.6102	0.7328	0.0809	0.033
Mof_H 	H 	0.4909	0.3686	0.2639	0.066
Mof_H 	H 	0.1632	0.822	0.2643	0.02
Mof_H 	H 	0.4145	0.7326	0.7924	0.066
Mof_H 	H 	0.2119	0.8348	0.0522	0.085
Mof_H 	H 	0.1727	0.5222	0.4	0.034
Mof_H 	H 	0.7924	0.4145	0.7326	0.066
Mof_H 	H 	0.32665	0.32665	0.4494	0.062
Mof_H 	H 	0.3581	0.5485	0.6072	0.071
Mof_H 	H 	0.822	0.2643	0.1632	0.02
Mof_H 	H 	0.8348	0.0522	0.2119	0.085
Mof_H 	H 	0.1467	0.7199	0.8429	0.063
Mof_H 	H 	0.3686	0.2639	0.4909	0.066
Mof_H 	H 	0.0522	0.2119	0.8348	0.085
Mof_H 	H 	0.2029	0.8119	0.9344	0.055
Mof_H 	H 	0.4762	0.3512	0.6762	0.021
Mof_H 	H 	0.0809	0.6102	0.7328	0.033
Mof_H 	H 	0.2643	0.822	0.1632	0.02
Mof_H 	H 	0.4909	0.2639	0.3686	0.066
Mof_H 	H 	0.6102	0.0809	0.7328	0.033
Mof_H 	H 	0.3581	0.6072	0.5485	0.071
Mof_H 	H 	0.1632	0.2643	0.822	0.02
Mof_H 	H 	0.6762	0.4762	0.3512	0.021
Mof_H 	H 	0.5485	0.3581	0.6072	0.071
Mof_H 	H 	0.4	0.5222	0.1727	0.034
Mof_H 	H 	0.7326	0.7924	0.4145	0.066
Mof_H 	H 	0.86	0.66	0.4054	0.018
Mof_H 	H 	0.66	0.4054	0.86	0.018
Mof_H 	H 	0.4762	0.6762	0.3512	0.021
Mof_H 	H 	0.1065	0.9999	0.4113	0.072
Mof_H 	H 	0.6072	0.5485	0.3581	0.071
Mof_H 	H 	0.1727	0.4	0.5222	0.034
Mof_H 	H 	0.2639	0.4909	0.3686	0.066
Mof_H 	H 	0.7328	0.0809	0.6102	0.033
Mof_H 	H 	0.3491	0.0309	0.0309	0.128
Mof_H 	H 	0.0809	0.7328	0.6102	0.033
Mof_H 	H 	0.4113	0.9999	0.1065	0.072
Mof_H 	H 	0.7199	0.8429	0.1467	0.063
Mof_H 	H 	0.7924	0.7326	0.4145	0.066
Mof_H 	H 	0.9344	0.8119	0.2029	0.055
Mof_H 	H 	0.66	0.86	0.4054	0.018
Mof_H 	H 	0.8429	0.1467	0.7199	0.063
Mof_H 	H 	0.0309	0.0309	0.3491	0.128
Mof_H 	H 	0.9344	0.2029	0.8119	0.055
Mof_H 	H 	0.3512	0.6762	0.4762	0.021
Mof_H 	H 	0.86	0.4054	0.66	0.018
Mof_H 	H 	0.822	0.1632	0.2643	0.02
Mof_H 	H 	0.4054	0.86	0.66	0.018
Mof_H 	H 	0.2162	0.9874	0.4638	0.011
Mof_H 	H 	0.0522	0.8348	0.2119	0.085
Mof_H 	H 	0.7328	0.6102	0.0809	0.033
Mof_H 	H 	0.0309	0.3491	0.0309	0.128
Mof_H 	H 	0.7199	0.1467	0.8429	0.063
Mof_H 	H 	0.6072	0.3581	0.5485	0.071
Mof_H 	H 	0.8119	0.2029	0.9344	0.055
Mof_H 	H 	0.4494	0.32665	0.32665	0.062
Mof_H 	H 	0.3686	0.4909	0.2639	0.066
Mof_H 	H 	0.3512	0.4762	0.6762	0.021
Mof_H 	H 	0.1065	0.4113	0.9999	0.072
Mof_H 	H 	0.6762	0.3512	0.4762	0.021
Mof_H 	H 	0.5222	0.4	0.1727	0.034
Mof_H 	H 	0.4113	0.1065	0.9999	0.072
Mof_H 	H 	0.8429	0.7199	0.1467	0.063
Mof_H 	H 	0.8119	0.9344	0.2029	0.055
Mof_H 	H 	0.7326	0.4145	0.7924	0.066
Mof_H 	H 	0.9874	0.2162	0.4638	0.011
Mof_H 	H 	0.4638	0.2162	0.9874	0.011
Mof_H 	H 	0.4	0.1727	0.5222	0.034
Mof_H 	H 	0.9999	0.1065	0.4113	0.072
Mof_H 	H 	0.5222	0.1727	0.4	0.034
Mof_H 	H 	0.32665	0.4494	0.32665	0.062
Mof_H 	H 	0.2643	0.1632	0.822	0.02
Mof_H 	H 	0.1467	0.8429	0.7199	0.063
Mof_H 	H 	0.2119	0.0522	0.8348	0.085
Mof_H 	H 	0.2162	0.4638	0.9874	0.011
Mof_H 	H 	0.5485	0.6072	0.3581	0.071
Mof_H 	H 	0.2639	0.3686	0.4909	0.066
Mof_H 	H 	0.8348	0.2119	0.0522	0.085
Mof_H 	H 	0.4054	0.66	0.86	0.018
Mof_H 	H 	0.2029	0.9344	0.8119	0.055
Mof_H 	H 	0.4145	0.7924	0.7326	0.066
Mof_C 	C 	0.31893	0.39196	0.39196	0.039
Mof_C 	C 	0.396	0.6374	0.8086	0.071
Mof_C 	C 	0.86577	0.08553	0.2631	-0.136
Mof_C 	C 	0.6605	0.6605	0.0738	-0.126
Mof_C 	C 	0.3062	0.9183	0.0679	0.083
Mof_C 	C 	0.2805	0.9936	0.9202	0.026
Mof_C 	C 	0.8195	0.518	0.3845	0.447
Mof_C 	C 	0.9183	0.3062	0.0679	0.083
Mof_C 	C 	0.5714	0.6587	0.3683	-0.119
Mof_C 	C 	0.4015	0.7687	0.6805	-0.121
Mof_C 	C 	0.0951	0.4702	0.4702	0.4
Mof_C 	C 	0.518	0.3845	0.8195	0.447
Mof_C 	C 	0.6374	0.396	0.8086	0.071
Mof_C 	C 	0.7687	0.6805	0.4015	-0.121
Mof_C 	C 	0.2686	0.4001	0.8952	0.469
Mof_C 	C 	0.3683	0.5714	0.6587	-0.119
Mof_C 	C 	0.377	0.7747	0.561	-0.165
Mof_C 	C 	0.3813	0.9636	0.1179	-0.139
Mof_C 	C 	0.4001	0.2686	0.8952	0.469
Mof_C 	C 	0.08553	0.86577	0.2631	-0.136
Mof_C 	C 	0.48751	0.41503	0.18816	0.048
Mof_C 	C 	0.2631	0.86577	0.08553	-0.136
Mof_C 	C 	0.34329	0.41625	0.34329	-0.097
Mof_C 	C 	0.1831	0.9565	0.4126	0.089
Mof_C 	C 	0.6474	0.3878	0.6931	0.051
Mof_C 	C 	0.0679	0.9183	0.3062	0.083
Mof_C 	C 	0.2227	0.8582	0.931	-0.098
Mof_C 	C 	0.24253	0.46915	0.39642	-0.106
Mof_C 	C 	0.4554	0.15651	0.4554	-0.128
Mof_C 	C 	0.6805	0.7687	0.4015	-0.121
Mof_C 	C 	0.1518	0.2942	0.8581	0.087
Mof_C 	C 	0.0941	0.73023	0.65747	0.047
Mof_C 	C 	0.1936	0.86355	0.86355	0.036
Mof_C 	C 	0.79205	0.153	0.79205	0.044
Mof_C 	C 	0.4554	0.4554	0.15651	-0.128
Mof_C 	C 	0.1332	0.72251	0.79559	-0.104
Mof_C 	C 	0.72251	0.79559	0.1332	-0.104
Mof_C 	C 	0.8952	0.4001	0.2686	0.469
Mof_C 	C 	0.8195	0.3845	0.518	0.447
Mof_C 	C 	0.7747	0.561	0.377	-0.165
Mof_C 	C 	0.931	0.8582	0.2227	-0.098
Mof_C 	C 	0.3096	0.98825	0.98825	-0.181
Mof_C 	C 	0.41625	0.34329	0.34329	-0.097
Mof_C 	C 	0.8581	0.2942	0.1518	0.087
Mof_C 	C 	0.1332	0.79559	0.72251	-0.104
Mof_C 	C 	0.79559	0.72251	0.1332	-0.104
Mof_C 	C 	0.48751	0.18816	0.41503	0.048
Mof_C 	C 	0.9936	0.2805	0.9202	0.026
Mof_C 	C 	0.4015	0.6805	0.7687	-0.121
Mof_C 	C 	0.46915	0.24253	0.39642	-0.106
Mof_C 	C 	0.7747	0.377	0.561	-0.165
Mof_C 	C 	0.0679	0.3062	0.9183	0.083
Mof_C 	C 	0.98825	0.3096	0.98825	-0.181
Mof_C 	C 	0.5714	0.3683	0.6587	-0.119
Mof_C 	C 	0.3845	0.8195	0.518	0.447
Mof_C 	C 	0.6931	0.3878	0.6474	0.051
Mof_C 	C 	0.9636	0.1179	0.3813	-0.139
Mof_C 	C 	0.18816	0.48751	0.41503	0.048
Mof_C 	C 	0.9202	0.2805	0.9936	0.026
Mof_C 	C 	0.1831	0.4126	0.9565	0.089
Mof_C 	C 	0.9202	0.9936	0.2805	0.026
Mof_C 	C 	0.15651	0.4554	0.4554	-0.128
Mof_C 	C 	0.65747	0.0941	0.73023	0.047
Mof_C 	C 	0.6997	0.5282	0.3636	0.069
Mof_C 	C 	0.3636	0.6997	0.5282	0.069
Mof_C 	C 	0.46915	0.39642	0.24253	-0.106
Mof_C 	C 	0.3062	0.0679	0.9183	0.083
Mof_C 	C 	0.7687	0.4015	0.6805	-0.121
Mof_C 	C 	0.0738	0.6605	0.6605	-0.126
Mof_C 	C 	0.65747	0.73023	0.0941	0.047
Mof_C 	C 	0.72251	0.1332	0.79559	-0.104
Mof_C 	C 	0.0332	0.5893	0.5893	0.427
Mof_C 	C 	0.20045	0.90335	0.3689	-0.185
Mof_C 	C 	0.561	0.7747	0.377	-0.165
Mof_C 	C 	0.9183	0.0679	0.3062	0.083
Mof_C 	C 	0.3878	0.6474	0.6931	0.051
Mof_C 	C 	0.8952	0.2686	0.4001	0.469
Mof_C 	C 	0.34329	0.34329	0.41625	-0.097
Mof_C 	C 	0.9565	0.4126	0.1831	0.089
Mof_C 	C 	0.1179	0.3813	0.9636	-0.139
Mof_C 	C 	0.377	0.561	0.7747	-0.165
Mof_C 	C 	0.6374	0.8086	0.396	0.071
Mof_C 	C 	0.3636	0.5282	0.6997	0.069
Mof_C 	C 	0.2686	0.8952	0.4001	0.469
Mof_C 	C 	0.561	0.377	0.7747	-0.165
Mof_C 	C 	0.3689	0.90335	0.20045	-0.185
Mof_C 	C 	0.73023	0.0941	0.65747	0.047
Mof_C 	C 	0.3683	0.6587	0.5714	-0.119
Mof_C 	C 	0.6931	0.6474	0.3878	0.051
Mof_C 	C 	0.8086	0.396	0.6374	0.071
Mof_C 	C 	0.518	0.8195	0.3845	0.447
Mof_C 	C 	0.26544	0.41878	0.41878	0.045
Mof_C 	C 	0.41503	0.48751	0.18816	0.048
Mof_C 	C 	0.6605	0.0738	0.6605	-0.126
Mof_C 	C 	0.3878	0.6931	0.6474	0.051
Mof_C 	C 	0.08553	0.2631	0.86577	-0.136
Mof_C 	C 	0.3689	0.20045	0.90335	-0.185
Mof_C 	C 	0.8582	0.2227	0.931	-0.098
Mof_C 	C 	0.18816	0.41503	0.48751	0.048
Mof_C 	C 	0.2942	0.1518	0.8581	0.087
Mof_C 	C 	0.73023	0.65747	0.0941	0.047
Mof_C 	C 	0.931	0.2227	0.8582	-0.098
Mof_C 	C 	0.6474	0.6931	0.3878	0.051
Mof_C 	C 	0.6587	0.3683	0.5714	-0.119
Mof_C 	C 	0.4126	0.1831	0.9565	0.089
Mof_C 	C 	0.2805	0.9202	0.9936	0.026
Mof_C 	C 	0.1518	0.8581	0.2942	0.087
Mof_C 	C 	0.39196	0.31893	0.39196	0.039
Mof_C 	C 	0.39642	0.24253	0.46915	-0.106
Mof_C 	C 	0.41503	0.18816	0.48751	0.048
Mof_C 	C 	0.90335	0.3689	0.20045	-0.185
Mof_C 	C 	0.8581	0.1518	0.2942	0.087
Mof_C 	C 	0.41878	0.26544	0.41878	0.045
Mof_C 	C 	0.9565	0.1831	0.4126	0.089
Mof_C 	C 	0.9636	0.3813	0.1179	-0.139
Mof_C 	C 	0.24253	0.39642	0.46915	-0.106
Mof_C 	C 	0.86355	0.86355	0.1936	0.036
Mof_C 	C 	0.4702	0.0951	0.4702	0.4
Mof_C 	C 	0.2631	0.08553	0.86577	-0.136
Mof_C 	C 	0.41878	0.41878	0.26544	0.045
Mof_C 	C 	0.79559	0.1332	0.72251	-0.104
Mof_C 	C 	0.6997	0.3636	0.5282	0.069
Mof_C 	C 	0.39642	0.46915	0.24253	-0.106
Mof_C 	C 	0.4001	0.8952	0.2686	0.469
Mof_C 	C 	0.4126	0.9565	0.1831	0.089
Mof_C 	C 	0.8086	0.6374	0.396	0.071
Mof_C 	C 	0.86577	0.2631	0.08553	-0.136
Mof_C 	C 	0.1179	0.9636	0.3813	-0.139
Mof_C 	C 	0.5893	0.0332	0.5893	0.427
Mof_C 	C 	0.6805	0.4015	0.7687	-0.121
Mof_C 	C 	0.79205	0.79205	0.153	0.044
Mof_C 	C 	0.3813	0.1179	0.9636	-0.139
Mof_C 	C 	0.5893	0.5893	0.0332	0.427
Mof_C 	C 	0.98825	0.98825	0.3096	-0.181
Mof_C 	C 	0.153	0.79205	0.79205	0.044
Mof_C 	C 	0.2942	0.8581	0.1518	0.087
Mof_C 	C 	0.20045	0.3689	0.90335	-0.185
Mof_C 	C 	0.396	0.8086	0.6374	0.071
Mof_C 	C 	0.2227	0.931	0.8582	-0.098
Mof_C 	C 	0.0941	0.65747	0.73023	0.047
Mof_C 	C 	0.9936	0.9202	0.2805	0.026
Mof_C 	C 	0.5282	0.6997	0.3636	0.069
Mof_C 	C 	0.86355	0.1936	0.86355	0.036
Mof_C 	C 	0.8582	0.931	0.2227	-0.098
Mof_C 	C 	0.6587	0.5714	0.3683	-0.119
Mof_C 	C 	0.4702	0.4702	0.0951	0.4
Mof_C 	C 	0.3845	0.518	0.8195	0.447
Mof_C 	C 	0.90335	0.20045	0.3689	-0.185
Mof_C 	C 	0.39196	0.39196	0.31893	0.039
Mof_C 	C 	0.5282	0.3636	0.6997	0.069
Mof_O 	O 	0.59751	0.0167	0.52979	-0.399
Mof_O 	O 	0.40398	0.55412	0.8908	-0.402
Mof_O 	O 	0.27937	0.36105	0.84359	-0.416
Mof_O 	O 	0.46301	0.94223	0.31406	-0.421
Mof_O 	O 	0.40398	0.8908	0.55412	-0.402
Mof_O 	O 	0.92608	0.43921	0.43921	-0.548
Mof_O 	O 	0.94223	0.46301	0.31406	-0.421
Mof_O 	O 	0.45232	0.78969	0.36779	-0.428
Mof_O 	O 	0.59751	0.52979	0.0167	-0.399
Mof_O 	O 	0.94223	0.31406	0.46301	-0.421
Mof_O 	O 	0.06921	0.44094	0.50885	-0.382
Mof_O 	O 	0.27937	0.84359	0.36105	-0.416
Mof_O 	O 	0.36105	0.84359	0.27937	-0.416
Mof_O 	O 	0.06921	0.50885	0.44094	-0.382
Mof_O 	O 	0.78969	0.36779	0.45232	-0.428
Mof_O 	O 	0.43921	0.43921	0.92608	-0.548
Mof_O 	O 	0.50885	0.06921	0.44094	-0.382
Mof_O 	O 	0.8908	0.55412	0.40398	-0.402
Mof_O 	O 	0.50885	0.44094	0.06921	-0.382
Mof_O 	O 	0.46301	0.31406	0.94223	-0.421
Mof_O 	O 	0.84359	0.36105	0.27937	-0.416
Mof_O 	O 	0.36779	0.78969	0.45232	-0.428
Mof_O 	O 	0.44094	0.06921	0.50885	-0.382
Mof_O 	O 	0.55412	0.40398	0.8908	-0.402
Mof_O 	O 	0.78969	0.45232	0.36779	-0.428
Mof_O 	O 	0.84359	0.27937	0.36105	-0.416
Mof_O 	O 	0.8908	0.40398	0.55412	-0.402
Mof_O 	O 	0.45232	0.36779	0.78969	-0.428
Mof_O 	O 	0.44094	0.50885	0.06921	-0.382
Mof_O 	O 	0.52979	0.0167	0.59751	-0.399
Mof_O 	O 	0.55412	0.8908	0.40398	-0.402
Mof_O 	O 	0.36779	0.45232	0.78969	-0.428
Mof_O 	O 	0.36105	0.27937	0.84359	-0.416
Mof_O 	O 	0.0167	0.59751	0.52979	-0.399
Mof_O 	O 	0.52979	0.59751	0.0167	-0.399
Mof_O 	O 	0.31406	0.46301	0.94223	-0.421
Mof_O 	O 	0.43921	0.92608	0.43921	-0.548
Mof_O 	O 	0.31406	0.94223	0.46301	-0.421
Mof_O 	O 	0.0167	0.52979	0.59751	-0.399
_end
