data_functionalizedCrystal
_audit_creation_method	'EQeq! by Chris Wilmer'
_symmetry_space_group_name_H-M	'P1'
_symmetry_Int_Tables_number	1
_symmetry_cell_setting	triclinic
loop_
_symmetry_equiv_pos_as_xyz
  x,y,z
_cell_length_a	13.2501
_cell_length_b	13.2501
_cell_length_c	18.4989
_cell_angle_alpha	92.5559
_cell_angle_beta	92.5559
_cell_angle_gamma	112.732
loop_
_atom_site_label
_atom_site_type_symbol
_atom_site_fract_x
_atom_site_fract_y
_atom_site_fract_z
_atom_site_charge
Mof_Mn	Mn	0.78757	0.70699	0.30304	0.498
Mof_Mn	Mn	0.29301	0.21243	0.19696	0.473
Mof_Mn	Mn	0.21243	0.29301	0.69696	0.479
Mof_Mn	Mn	0.70699	0.78757	0.80304	0.504
Mof_Mn	Mn	0.5	0	-0	0.452
Mof_Mn	Mn	5.47348e-17	0.5	0.5	0.471
Mof_W 	W 	0.96509	0.55047	0.08918	0.313
Mof_W 	W 	0.07931	0.43035	0.05098	0.258
Mof_W 	W 	0.12851	0.62889	0.0012	0.273
Mof_W 	W 	0.44953	0.03491	0.41082	0.272
Mof_W 	W 	0.56965	0.92069	0.44902	0.322
Mof_W 	W 	0.37111	0.87149	0.4988	0.298
Mof_W 	W 	0.03491	0.44953	0.91082	0.277
Mof_W 	W 	0.92069	0.56965	0.94902	0.338
Mof_W 	W 	0.87149	0.37111	0.9988	0.318
Mof_W 	W 	0.55047	0.96509	0.58918	0.318
Mof_W 	W 	0.43035	0.07931	0.55098	0.276
Mof_W 	W 	0.62889	0.12851	0.5012	0.291
Mof_C 	C 	0.9179	0.6113	0.1879	-0.021
Mof_C 	C 	0.17	0.3474	0.1041	-0.038
Mof_C 	C 	0.2765	0.7763	0.0031	-0.024
Mof_C 	C 	0.3887	0.0821	0.3121	-0.032
Mof_C 	C 	0.6526	0.83	0.3959	-0.027
Mof_C 	C 	0.2237	0.7235	0.4969	-0.026
Mof_C 	C 	0.0821	0.3887	0.8121	-0.031
Mof_C 	C 	0.83	0.6526	0.8959	-0.024
Mof_C 	C 	0.7235	0.2237	0.9969	-0.022
Mof_C 	C 	0.6113	0.9179	0.6879	-0.021
Mof_C 	C 	0.3474	0.17	0.6041	-0.035
Mof_C 	C 	0.7763	0.2765	0.5031	-0.021
Mof_S 	S 	0.1587	0.6003	0.12997	-0.234
Mof_S 	S 	0.22278	0.50842	0.96591	-0.22
Mof_S 	S 	0.92268	0.36432	0.12767	-0.238
Mof_S 	S 	0.01355	0.72905	0.03523	-0.264
Mof_S 	S 	0.3997	0.8413	0.37003	-0.225
Mof_S 	S 	0.49158	0.77722	0.53409	-0.246
Mof_S 	S 	0.63568	0.07732	0.37233	-0.248
Mof_S 	S 	0.27095	0.98645	0.46477	-0.221
Mof_S 	S 	0.8413	0.3997	0.87003	-0.227
Mof_S 	S 	0.77722	0.49158	0.03409	-0.264
Mof_S 	S 	0.07732	0.63568	0.87233	-0.239
Mof_S 	S 	0.98645	0.27095	0.96477	-0.213
Mof_S 	S 	0.6003	0.1587	0.62997	-0.237
Mof_S 	S 	0.50842	0.22278	0.46591	-0.239
Mof_S 	S 	0.36432	0.92268	0.62767	-0.23
Mof_S 	S 	0.72905	0.01355	0.53523	-0.258
Mof_N 	N 	0.8821	0.6423	0.2357	-0.192
Mof_N 	N 	0.2194	0.3022	0.1338	-0.195
Mof_N 	N 	0.3545	0.8543	0.0059	-0.19
Mof_N 	N 	0.3577	0.1179	0.2643	-0.196
Mof_N 	N 	0.6978	0.7806	0.3662	-0.19
Mof_N 	N 	0.1457	0.6455	0.4941	-0.196
Mof_N 	N 	0.1179	0.3577	0.7643	-0.195
Mof_N 	N 	0.7806	0.6978	0.8662	-0.189
Mof_N 	N 	0.6455	0.1457	0.9941	-0.189
Mof_N 	N 	0.6423	0.8821	0.7357	-0.191
Mof_N 	N 	0.3022	0.2194	0.6338	-0.193
Mof_N 	N 	0.8543	0.3545	0.5059	-0.19
_end
