data_functionalizedCrystal
_audit_creation_method	'EQeq! by Chris Wilmer'
_symmetry_space_group_name_H-M	'P1'
_symmetry_Int_Tables_number	1
_symmetry_cell_setting	triclinic
loop_
_symmetry_equiv_pos_as_xyz
  x,y,z
_cell_length_a	12.5035
_cell_length_b	18.1874
_cell_length_c	5.82
_cell_angle_alpha	90
_cell_angle_beta	101.923
_cell_angle_gamma	90
loop_
_atom_site_label
_atom_site_type_symbol
_atom_site_fract_x
_atom_site_fract_y
_atom_site_fract_z
_atom_site_charge
Mof_La	La	0.6695	0.25	0.3763	1.951
Mof_P 	P 	0.4652	0.0889	0.18	0.412
Mof_P 	P 	0.7479	0.1126	0.914	0.435
Mof_O 	O 	0.4299	0.0892	0.914	-0.197
Mof_O 	O 	0.4996	0.1682	0.259	-0.387
Mof_O 	O 	0.5493	0.0301	0.278	-0.189
Mof_O 	O 	0.873	0.1066	0.931	-0.24
Mof_O 	O 	0.6951	0.163	0.71	-0.447
Mof_O 	O 	0.7185	0.1341	0.151	-0.392
Mof_C 	C 	0.3484	0.0732	0.319	0.024
Mof_C 	C 	0.6909	0.0229	0.833	0.023
Mof_N 	N 	0.2429	0.032	0.287	-0.093
Mof_C 	C 	0.1529	0.0878	0.274	0.054
Mof_C 	C 	0.1237	0.0992	0.51	0.005
Mof_C 	C 	0.0166	0.0652	0.524	0.008
Mof_P 	P 	0.5532	0.8986	0.797	0.394
Mof_P 	P 	0.2068	0.8804	0.073	0.438
Mof_O 	O 	0.5674	0.8659	0.045	-0.226
Mof_O 	O 	0.4831	0.8486	0.602	-0.354
Mof_O 	O 	0.5078	0.9759	0.767	-0.182
Mof_O 	O 	0.082	0.868	0.041	-0.233
Mof_O 	O 	0.268	0.8468	0.306	-0.409
Mof_O 	O 	0.2484	0.8487	0.86	-0.411
Mof_C 	C 	0.6885	0.8943	0.721	0.015
Mof_C 	C 	0.2312	0.9783	0.087	0.001
Mof_N 	N 	0.6997	0.9715	0.636	-0.09
Mof_C 	C 	0.7907	0.9863	0.51	0.064
Mof_C 	C 	0.903	0.9627	0.643	0.009
Mof_C 	C 	0.999	0.9849	0.541	0.016
Mof_La	La	0.3305	0.75	0.6237	1.95
Mof_P 	P 	0.5348	0.5889	0.82	0.412
Mof_P 	P 	0.2521	0.6126	0.086	0.435
Mof_O 	O 	0.5701	0.5892	0.086	-0.198
Mof_O 	O 	0.5004	0.6682	0.741	-0.387
Mof_O 	O 	0.4507	0.5301	0.722	-0.19
Mof_O 	O 	0.127	0.6066	0.069	-0.241
Mof_O 	O 	0.3049	0.663	0.29	-0.447
Mof_O 	O 	0.2815	0.6341	0.849	-0.392
Mof_C 	C 	0.6516	0.5732	0.681	0.024
Mof_C 	C 	0.3091	0.5229	0.167	0.021
Mof_N 	N 	0.7571	0.532	0.713	-0.093
Mof_C 	C 	0.8471	0.5878	0.726	0.054
Mof_C 	C 	0.8763	0.5992	0.49	0.005
Mof_C 	C 	0.9834	0.5652	0.476	0.007
Mof_P 	P 	0.4468	0.3986	0.203	0.395
Mof_P 	P 	0.7932	0.3804	0.927	0.437
Mof_O 	O 	0.4326	0.3659	0.955	-0.226
Mof_O 	O 	0.5169	0.3486	0.398	-0.354
Mof_O 	O 	0.4922	0.4759	0.233	-0.181
Mof_O 	O 	0.918	0.368	0.959	-0.232
Mof_O 	O 	0.732	0.3468	0.694	-0.409
Mof_O 	O 	0.7516	0.3487	0.14	-0.41
Mof_C 	C 	0.3115	0.3943	0.279	0.015
Mof_C 	C 	0.7688	0.4783	0.913	0.003
Mof_N 	N 	0.3003	0.4715	0.364	-0.089
Mof_C 	C 	0.2093	0.4863	0.49	0.065
Mof_C 	C 	0.097	0.4627	0.357	0.009
Mof_C 	C 	0.001	0.4849	0.459	0.018
_end
