data_functionalizedCrystal
_audit_creation_method	'EQeq! by Chris Wilmer'
_symmetry_space_group_name_H-M	'P1'
_symmetry_Int_Tables_number	1
_symmetry_cell_setting	triclinic
loop_
_symmetry_equiv_pos_as_xyz
  x,y,z
_cell_length_a	12.1799
_cell_length_b	16.9836
_cell_length_c	25.7802
_cell_angle_alpha	102.109
_cell_angle_beta	90
_cell_angle_gamma	90
loop_
_atom_site_label
_atom_site_type_symbol
_atom_site_fract_x
_atom_site_fract_y
_atom_site_fract_z
_atom_site_charge
Mof_Nd	Nd	0.47639	0.48566	0.41848	2.152
Mof_Nd	Nd	0.99845	0.96057	0.41749	2.138
Mof_Nd	Nd	0.47639	0.01434	0.08152	2.148
Mof_Nd	Nd	0.99845	0.53943	0.08251	2.155
Mof_Nd	Nd	0.52361	0.51434	0.58152	2.152
Mof_Nd	Nd	0.00155	0.03943	0.58251	2.138
Mof_Nd	Nd	0.52361	0.98566	0.91848	2.148
Mof_Nd	Nd	0.00155	0.46057	0.91749	2.155
Mof_H 	H 	0.7147	0.67	0.5792	-0.049
Mof_H 	H 	0.825	0.794	0.5946	0.014
Mof_H 	H 	0.4897	0.5808	0.239	0.026
Mof_H 	H 	0.6	0.5886	0.1615	0.043
Mof_H 	H 	0.2683	0.7442	0.6024	0.027
Mof_H 	H 	0.1732	0.8647	0.5893	0.027
Mof_H 	H 	0.7147	0.83	0.9208	-0.049
Mof_H 	H 	0.825	0.706	0.9054	0.014
Mof_H 	H 	0.4897	0.9192	0.261	0.026
Mof_H 	H 	0.6	0.9114	0.3385	0.044
Mof_H 	H 	0.2683	0.7558	0.8976	0.028
Mof_H 	H 	0.1732	0.6353	0.9107	0.025
Mof_H 	H 	0.2853	0.33	0.4208	-0.049
Mof_H 	H 	0.175	0.206	0.4054	0.014
Mof_H 	H 	0.5103	0.4192	0.761	0.026
Mof_H 	H 	0.4	0.4114	0.8385	0.043
Mof_H 	H 	0.7317	0.2558	0.3976	0.027
Mof_H 	H 	0.8268	0.1353	0.4107	0.027
Mof_H 	H 	0.2853	0.17	0.0792	-0.049
Mof_H 	H 	0.175	0.294	0.0946	0.014
Mof_H 	H 	0.5103	0.0808	0.739	0.026
Mof_H 	H 	0.4	0.0886	0.6615	0.044
Mof_H 	H 	0.7317	0.2442	0.1024	0.028
Mof_H 	H 	0.8268	0.3647	0.0893	0.025
Mof_C 	C 	0.72	0.6643	0.4996	-0.175
Mof_C 	C 	0.74	0.6939	0.5522	0.025
Mof_C 	C 	0.8051	0.7654	0.5611	-0.004
Mof_C 	C 	0.8341	0.7866	0.5159	-0.173
Mof_C 	C 	0.6503	0.5957	0.4754	0.459
Mof_C 	C 	0.8973	0.8585	0.5112	0.53
Mof_C 	C 	0.6067	0.5161	0.2653	-0.103
Mof_C 	C 	0.5587	0.5573	0.2326	-0.008
Mof_C 	C 	0.6221	0.562	0.1878	-0.03
Mof_C 	C 	0.7202	0.5229	0.1876	-0.091
Mof_C 	C 	0.5631	0.5004	0.3156	0.349
Mof_C 	C 	0.8107	0.5208	0.1494	0.315
Mof_C 	C 	0.3148	0.718	0.5252	-0.156
Mof_C 	C 	0.2652	0.7599	0.57	0.005
Mof_C 	C 	0.209	0.8289	0.5624	0
Mof_C 	C 	0.2134	0.8371	0.5108	-0.137
Mof_C 	C 	0.3812	0.643	0.5173	0.494
Mof_C 	C 	0.16	0.8977	0.4852	0.446
Mof_C 	C 	0.72	0.8357	0.0004	-0.175
Mof_C 	C 	0.74	0.8061	0.9478	0.025
Mof_C 	C 	0.8051	0.7346	0.9389	-0.004
Mof_C 	C 	0.8341	0.7134	0.9841	-0.174
Mof_C 	C 	0.6503	0.9043	0.0246	0.46
Mof_C 	C 	0.8973	0.6415	0.9888	0.532
Mof_C 	C 	0.6067	0.9839	0.2347	-0.105
Mof_C 	C 	0.5587	0.9427	0.2674	-0.006
Mof_C 	C 	0.6221	0.938	0.3122	-0.031
Mof_C 	C 	0.7202	0.9771	0.3124	-0.092
Mof_C 	C 	0.5631	0.9996	0.1844	0.349
Mof_C 	C 	0.8107	0.9792	0.3506	0.308
Mof_C 	C 	0.3148	0.782	0.9748	-0.157
Mof_C 	C 	0.2652	0.7401	0.93	0.003
Mof_C 	C 	0.209	0.6711	0.9376	0.003
Mof_C 	C 	0.2134	0.6629	0.9892	-0.143
Mof_C 	C 	0.3812	0.857	0.9827	0.492
Mof_C 	C 	0.16	0.6023	0.0148	0.452
Mof_C 	C 	0.28	0.3357	0.5004	-0.175
Mof_C 	C 	0.26	0.3061	0.4478	0.025
Mof_C 	C 	0.1949	0.2346	0.4389	-0.004
Mof_C 	C 	0.1659	0.2134	0.4841	-0.173
Mof_C 	C 	0.3497	0.4043	0.5246	0.459
Mof_C 	C 	0.1027	0.1415	0.4888	0.53
Mof_C 	C 	0.3933	0.4839	0.7347	-0.103
Mof_C 	C 	0.4413	0.4427	0.7674	-0.008
Mof_C 	C 	0.3779	0.438	0.8122	-0.03
Mof_C 	C 	0.2798	0.4771	0.8124	-0.091
Mof_C 	C 	0.4369	0.4996	0.6844	0.349
Mof_C 	C 	0.1893	0.4792	0.8506	0.315
Mof_C 	C 	0.6852	0.282	0.4748	-0.156
Mof_C 	C 	0.7348	0.2401	0.43	0.005
Mof_C 	C 	0.791	0.1711	0.4376	0
Mof_C 	C 	0.7866	0.1629	0.4892	-0.137
Mof_C 	C 	0.6188	0.357	0.4827	0.494
Mof_C 	C 	0.84	0.1023	0.5148	0.446
Mof_C 	C 	0.28	0.1643	0.9996	-0.175
Mof_C 	C 	0.26	0.1939	0.0522	0.025
Mof_C 	C 	0.1949	0.2654	0.0611	-0.004
Mof_C 	C 	0.1659	0.2866	0.0159	-0.174
Mof_C 	C 	0.3497	0.0957	0.9754	0.46
Mof_C 	C 	0.1027	0.3585	0.0112	0.532
Mof_C 	C 	0.3933	0.0161	0.7653	-0.105
Mof_C 	C 	0.4413	0.0573	0.7326	-0.006
Mof_C 	C 	0.3779	0.062	0.6878	-0.031
Mof_C 	C 	0.2798	0.0229	0.6876	-0.092
Mof_C 	C 	0.4369	0.0004	0.8156	0.349
Mof_C 	C 	0.1893	0.0208	0.6494	0.308
Mof_C 	C 	0.6852	0.218	0.0252	-0.157
Mof_C 	C 	0.7348	0.2599	0.07	0.003
Mof_C 	C 	0.791	0.3289	0.0624	0.003
Mof_C 	C 	0.7866	0.3371	0.0108	-0.143
Mof_C 	C 	0.6188	0.143	0.0173	0.492
Mof_C 	C 	0.84	0.3977	0.9852	0.452
Mof_S 	S 	0.7822	0.72186	0.46236	0.086
Mof_S 	S 	0.7324	0.48023	0.24149	0.042
Mof_S 	S 	0.2894	0.7616	0.47207	0.06
Mof_S 	S 	0.7822	0.77814	0.03764	0.085
Mof_S 	S 	0.7324	0.01977	0.25851	0.046
Mof_S 	S 	0.2894	0.7384	0.02793	0.063
Mof_S 	S 	0.2178	0.27814	0.53764	0.086
Mof_S 	S 	0.2676	0.51977	0.75851	0.042
Mof_S 	S 	0.7106	0.2384	0.52793	0.06
Mof_S 	S 	0.2178	0.22186	0.96236	0.085
Mof_S 	S 	0.2676	0.98023	0.74149	0.046
Mof_S 	S 	0.7106	0.2616	0.97207	0.063
Mof_O 	O 	0.6085	0.5532	0.5056	-0.639
Mof_O 	O 	0.6335	0.5828	0.4276	-0.479
Mof_O 	O 	0.9235	0.8634	0.465	-0.562
Mof_O 	O 	0.919	0.9072	0.5527	-0.578
Mof_O 	O 	0.6106	0.4524	0.338	-0.434
Mof_O 	O 	0.4777	0.5368	0.3345	-0.491
Mof_O 	O 	0.7989	0.5598	0.1126	-0.432
Mof_O 	O 	0.8962	0.4825	0.1533	-0.472
Mof_O 	O 	0.4095	0.6132	0.4711	-0.559
Mof_O 	O 	0.4	0.6155	0.558	-0.547
Mof_O 	O 	0.1651	0.8867	0.436	-0.535
Mof_O 	O 	0.1128	0.9574	0.5135	-0.589
Mof_O 	O 	0.6085	0.9468	0.9944	-0.64
Mof_O 	O 	0.6335	0.9172	0.0724	-0.479
Mof_O 	O 	0.9235	0.6366	0.035	-0.564
Mof_O 	O 	0.919	0.5928	0.9473	-0.578
Mof_O 	O 	0.6106	0.0476	0.162	-0.433
Mof_O 	O 	0.4777	0.9632	0.1655	-0.49
Mof_O 	O 	0.7989	0.9402	0.3874	-0.43
Mof_O 	O 	0.8962	0.0175	0.3467	-0.464
Mof_O 	O 	0.4095	0.8868	0.0289	-0.556
Mof_O 	O 	0.4	0.8845	0.942	-0.545
Mof_O 	O 	0.1651	0.6133	0.064	-0.54
Mof_O 	O 	0.1128	0.5426	0.9865	-0.598
Mof_O 	O 	0.3915	0.4468	0.4944	-0.639
Mof_O 	O 	0.3665	0.4172	0.5724	-0.479
Mof_O 	O 	0.0765	0.1366	0.535	-0.562
Mof_O 	O 	0.081	0.0928	0.4473	-0.578
Mof_O 	O 	0.3894	0.5476	0.662	-0.434
Mof_O 	O 	0.5223	0.4632	0.6655	-0.491
Mof_O 	O 	0.2011	0.4402	0.8874	-0.432
Mof_O 	O 	0.1038	0.5175	0.8467	-0.472
Mof_O 	O 	0.5905	0.3868	0.5289	-0.559
Mof_O 	O 	0.6	0.3845	0.442	-0.547
Mof_O 	O 	0.8349	0.1133	0.564	-0.535
Mof_O 	O 	0.8872	0.0426	0.4865	-0.589
Mof_O 	O 	0.3915	0.0532	0.0056	-0.64
Mof_O 	O 	0.3665	0.0828	0.9276	-0.479
Mof_O 	O 	0.0765	0.3634	0.965	-0.564
Mof_O 	O 	0.081	0.4072	0.0527	-0.578
Mof_O 	O 	0.3894	0.9524	0.838	-0.433
Mof_O 	O 	0.5223	0.0368	0.8345	-0.49
Mof_O 	O 	0.2011	0.0598	0.6126	-0.43
Mof_O 	O 	0.1038	0.9825	0.6533	-0.464
Mof_O 	O 	0.5905	0.1132	0.9711	-0.556
Mof_O 	O 	0.6	0.1155	0.058	-0.545
Mof_O 	O 	0.8349	0.3867	0.936	-0.54
Mof_O 	O 	0.8872	0.4574	0.0135	-0.598
_end
