data_functionalizedCrystal
_audit_creation_method	'EQeq! by Chris Wilmer'
_symmetry_space_group_name_H-M	'P1'
_symmetry_Int_Tables_number	1
_symmetry_cell_setting	triclinic
loop_
_symmetry_equiv_pos_as_xyz
  x,y,z
_cell_length_a	18.656
_cell_length_b	18.656
_cell_length_c	9.378
_cell_angle_alpha	90
_cell_angle_beta	90
_cell_angle_gamma	90
loop_
_atom_site_label
_atom_site_type_symbol
_atom_site_fract_x
_atom_site_fract_y
_atom_site_fract_z
_atom_site_charge
Mof_P 	P 	0.06709	0.83381	0.09038	1.989
Mof_O 	O 	0.9976	0.8425	0.0038	-2.325
Mof_O 	O 	0.057	0.8706	0.2344	-2.301
Mof_O 	O 	0.1307	0.8662	0.01	-2.456
Mof_O 	O 	0.0828	0.7554	0.1186	-2.337
Mof_Al	Al	0.95449	0.83422	0.8414	7.144
Mof_P 	P 	0.83429	0.95085	0.8397	1.847
Mof_O 	O 	0.8725	0.8771	0.8438	-2.202
Mof_O 	O 	0.8422	0.9857	0.9885	-2.454
Mof_O 	O 	0.7548	0.9385	0.803	-2.183
Mof_O 	O 	0.8664	0.9993	0.7209	-2.365
Mof_Al	Al	0.16654	0.93612	0.9144	7.623
Mof_P 	P 	0.05613	0.93438	0.66366	1.941
Mof_O 	O 	0.1251	0.94	0.7517	-2.37
Mof_O 	O 	0.0162	0.0057	0.6769	-2.371
Mof_O 	O 	0.0098	0.8714	0.7115	-2.319
Mof_O 	O 	0.0778	0.9218	0.5077	-2.256
Mof_Al	Al	0.06386	0.94801	0.3345	7.369
Mof_P 	P 	0.43291	0.66619	0.09038	2.052
Mof_O 	O 	0.5024	0.6575	0.0038	-2.392
Mof_O 	O 	0.443	0.6294	0.2344	-2.366
Mof_O 	O 	0.3693	0.6338	0.01	-2.499
Mof_O 	O 	0.4172	0.7446	0.1186	-2.372
Mof_Al	Al	0.54551	0.66578	0.8414	7.2
Mof_P 	P 	0.66571	0.54915	0.8397	1.872
Mof_O 	O 	0.6275	0.6229	0.8438	-2.222
Mof_O 	O 	0.6578	0.5143	0.9885	-2.499
Mof_O 	O 	0.7452	0.5615	0.803	-2.197
Mof_O 	O 	0.6336	0.5007	0.7209	-2.452
Mof_Al	Al	0.33346	0.56388	0.9144	7.77
Mof_P 	P 	0.44387	0.56562	0.66366	2.012
Mof_O 	O 	0.3749	0.56	0.7517	-2.406
Mof_O 	O 	0.4838	0.4943	0.6769	-2.495
Mof_O 	O 	0.4902	0.6286	0.7115	-2.335
Mof_O 	O 	0.4222	0.5782	0.5077	-2.324
Mof_Al	Al	0.43614	0.55199	0.3345	7.663
Mof_P 	P 	0.66619	0.06709	0.09038	2.018
Mof_O 	O 	0.6575	0.9976	0.0038	-2.348
Mof_O 	O 	0.6294	0.057	0.2344	-2.358
Mof_O 	O 	0.6338	0.1307	0.01	-2.505
Mof_O 	O 	0.7446	0.0828	0.1186	-2.332
Mof_Al	Al	0.66578	0.95449	0.8414	7.138
Mof_P 	P 	0.54915	0.83429	0.8397	1.871
Mof_O 	O 	0.6229	0.8725	0.8438	-2.209
Mof_O 	O 	0.5143	0.8422	0.9885	-2.509
Mof_O 	O 	0.5615	0.7548	0.803	-2.203
Mof_O 	O 	0.5007	0.8664	0.7209	-2.443
Mof_Al	Al	0.56388	0.16654	0.9144	7.806
Mof_P 	P 	0.56562	0.05613	0.66366	2.007
Mof_O 	O 	0.56	0.1251	0.7517	-2.411
Mof_O 	O 	0.4943	0.0162	0.6769	-2.479
Mof_O 	O 	0.6286	0.0098	0.7115	-2.321
Mof_O 	O 	0.5782	0.0778	0.5077	-2.315
Mof_Al	Al	0.55199	0.06386	0.3345	7.624
Mof_P 	P 	0.83381	0.43291	0.09038	2.041
Mof_O 	O 	0.8425	0.5024	0.0038	-2.378
Mof_O 	O 	0.8706	0.443	0.2344	-2.357
Mof_O 	O 	0.8662	0.3693	0.01	-2.467
Mof_O 	O 	0.7554	0.4172	0.1186	-2.363
Mof_Al	Al	0.83422	0.54551	0.8414	7.168
Mof_P 	P 	0.95085	0.66571	0.8397	1.863
Mof_O 	O 	0.8771	0.6275	0.8438	-2.214
Mof_O 	O 	0.9857	0.6578	0.9885	-2.473
Mof_O 	O 	0.9385	0.7452	0.803	-2.185
Mof_O 	O 	0.9993	0.6336	0.7209	-2.441
Mof_Al	Al	0.93612	0.33346	0.9144	7.658
Mof_P 	P 	0.93438	0.44387	0.66366	1.997
Mof_O 	O 	0.94	0.3749	0.7517	-2.383
Mof_O 	O 	0.0057	0.4838	0.6769	-2.478
Mof_O 	O 	0.8714	0.4902	0.7115	-2.325
Mof_O 	O 	0.9218	0.4222	0.5077	-2.317
Mof_Al	Al	0.94801	0.43614	0.3345	7.64
Mof_P 	P 	0.93291	0.16619	0.90962	1.988
Mof_O 	O 	0.0024	0.1575	0.9962	-2.326
Mof_O 	O 	0.943	0.1294	0.7656	-2.301
Mof_O 	O 	0.8693	0.1338	0.99	-2.456
Mof_O 	O 	0.9172	0.2446	0.8814	-2.337
Mof_Al	Al	0.04551	0.16578	0.1586	7.144
Mof_P 	P 	0.16571	0.04915	0.1603	1.847
Mof_O 	O 	0.1275	0.1229	0.1562	-2.202
Mof_O 	O 	0.1578	0.0143	0.0115	-2.454
Mof_O 	O 	0.2452	0.0615	0.197	-2.183
Mof_O 	O 	0.1336	0.0007	0.2791	-2.365
Mof_Al	Al	0.83346	0.06388	0.0856	7.623
Mof_P 	P 	0.94387	0.06562	0.33634	1.941
Mof_O 	O 	0.8749	0.06	0.2483	-2.37
Mof_O 	O 	0.9838	0.9943	0.3231	-2.371
Mof_O 	O 	0.9902	0.1286	0.2885	-2.319
Mof_O 	O 	0.9222	0.0782	0.4923	-2.256
Mof_Al	Al	0.93614	0.05199	0.6655	7.369
Mof_P 	P 	0.56709	0.33381	0.90962	2.052
Mof_O 	O 	0.4976	0.3425	0.9962	-2.392
Mof_O 	O 	0.557	0.3706	0.7656	-2.366
Mof_O 	O 	0.6307	0.3662	0.99	-2.499
Mof_O 	O 	0.5828	0.2554	0.8814	-2.372
Mof_Al	Al	0.45449	0.33422	0.1586	7.2
Mof_P 	P 	0.33429	0.45085	0.1603	1.872
Mof_O 	O 	0.3725	0.3771	0.1562	-2.222
Mof_O 	O 	0.3422	0.4857	0.0115	-2.499
Mof_O 	O 	0.2548	0.4385	0.197	-2.197
Mof_O 	O 	0.3664	0.4993	0.2791	-2.452
Mof_Al	Al	0.66654	0.43612	0.0856	7.77
Mof_P 	P 	0.55613	0.43438	0.33634	2.012
Mof_O 	O 	0.6251	0.44	0.2483	-2.406
Mof_O 	O 	0.5162	0.5057	0.3231	-2.495
Mof_O 	O 	0.5098	0.3714	0.2885	-2.335
Mof_O 	O 	0.5778	0.4218	0.4923	-2.324
Mof_Al	Al	0.56386	0.44801	0.6655	7.663
Mof_P 	P 	0.33381	0.93291	0.90962	2.018
Mof_O 	O 	0.3425	0.0024	0.9962	-2.348
Mof_O 	O 	0.3706	0.943	0.7656	-2.358
Mof_O 	O 	0.3662	0.8693	0.99	-2.505
Mof_O 	O 	0.2554	0.9172	0.8814	-2.332
Mof_Al	Al	0.33422	0.04551	0.1586	7.138
Mof_P 	P 	0.45085	0.16571	0.1603	1.871
Mof_O 	O 	0.3771	0.1275	0.1562	-2.209
Mof_O 	O 	0.4857	0.1578	0.0115	-2.509
Mof_O 	O 	0.4385	0.2452	0.197	-2.203
Mof_O 	O 	0.4993	0.1336	0.2791	-2.443
Mof_Al	Al	0.43612	0.83346	0.0856	7.806
Mof_P 	P 	0.43438	0.94387	0.33634	2.007
Mof_O 	O 	0.44	0.8749	0.2483	-2.411
Mof_O 	O 	0.5057	0.9838	0.3231	-2.479
Mof_O 	O 	0.3714	0.9902	0.2885	-2.321
Mof_O 	O 	0.4218	0.9222	0.4923	-2.315
Mof_Al	Al	0.44801	0.93614	0.6655	7.624
Mof_P 	P 	0.16619	0.56709	0.90962	2.041
Mof_O 	O 	0.1575	0.4976	0.9962	-2.378
Mof_O 	O 	0.1294	0.557	0.7656	-2.357
Mof_O 	O 	0.1338	0.6307	0.99	-2.467
Mof_O 	O 	0.2446	0.5828	0.8814	-2.363
Mof_Al	Al	0.16578	0.45449	0.1586	7.168
Mof_P 	P 	0.04915	0.33429	0.1603	1.863
Mof_O 	O 	0.1229	0.3725	0.1562	-2.214
Mof_O 	O 	0.0143	0.3422	0.0115	-2.473
Mof_O 	O 	0.0615	0.2548	0.197	-2.185
Mof_O 	O 	0.0007	0.3664	0.2791	-2.441
Mof_Al	Al	0.06388	0.66654	0.0856	7.658
Mof_P 	P 	0.06562	0.55613	0.33634	1.997
Mof_O 	O 	0.06	0.6251	0.2483	-2.383
Mof_O 	O 	0.9943	0.5162	0.3231	-2.478
Mof_O 	O 	0.1286	0.5098	0.2885	-2.325
Mof_O 	O 	0.0782	0.5778	0.4923	-2.317
Mof_Al	Al	0.05199	0.56386	0.6655	7.64
_end
