data_functionalizedCrystal
_audit_creation_method	'EQeq! by Chris Wilmer'
_symmetry_space_group_name_H-M	'P1'
_symmetry_Int_Tables_number	1
_symmetry_cell_setting	triclinic
loop_
_symmetry_equiv_pos_as_xyz
  x,y,z
_cell_length_a	16.7936
_cell_length_b	9.5858
_cell_length_c	22.5827
_cell_angle_alpha	90
_cell_angle_beta	104.216
_cell_angle_gamma	90
loop_
_atom_site_label
_atom_site_type_symbol
_atom_site_fract_x
_atom_site_fract_y
_atom_site_fract_z
_atom_site_charge
Mof_S 	S 	0.86993	0.47847	0.01512	1.149
Mof_S 	S 	0.65781	0.03346	0.10686	0.713
Mof_S 	S 	0.87609	0.99663	0.99853	1.372
Mof_S 	S 	0.79962	0.29525	0.28044	0.911
Mof_S 	S 	0.48903	0.53579	0.24093	0.689
Mof_S 	S 	0.67868	0.51341	0.11587	0.826
Mof_S 	S 	0.58764	0.74917	0.92797	0.69
Mof_S 	S 	0.91001	0.83357	0.17018	0.829
Mof_O 	O 	0.8344	0.3798	0.0494	-0.647
Mof_O 	O 	0.8147	0.5982	0.00157	-0.621
Mof_O 	O 	0.9506	0.5214	0.05003	-0.701
Mof_O 	O 	0.8747	0.4153	0.95676	-0.612
Mof_O 	O 	0.6997	0.1051	0.16393	-0.552
Mof_O 	O 	0.6592	0.8818	0.11597	-0.467
Mof_O 	O 	0.7077	0.0624	0.06174	-0.544
Mof_O 	O 	0.5752	0.0892	0.08691	-0.381
Mof_O 	O 	0.797	0.9235	0.98333	-0.666
Mof_O 	O 	0.8898	0.0646	0.94528	-0.659
Mof_O 	O 	0.9356	0.922	0.0381	-0.528
Mof_O 	O 	0.939	0.8719	0.0031	-0.318
Mof_O 	O 	0.8944	0.0644	0.0556	-0.428
Mof_O 	O 	0.8583	0.1284	0.0324	-0.369
Mof_O 	O 	0.829	0.2452	0.34375	-0.53
Mof_O 	O 	0.8366	0.205	0.24077	-0.599
Mof_O 	O 	0.8258	0.4394	0.2747	-0.363
Mof_O 	O 	0.7102	0.2855	0.26274	-0.514
Mof_O 	O 	0.4515	0.4623	0.18415	-0.378
Mof_O 	O 	0.5588	0.0189	0.21305	-0.416
Mof_O 	O 	0.5716	0.477	0.2629	-0.388
Mof_O 	O 	0.5091	0.1893	0.26952	-0.398
Mof_O 	O 	0.703	0.3665	0.1148	-0.59
Mof_O 	O 	0.6188	0.5182	0.15279	-0.469
Mof_O 	O 	0.6437	0.5643	0.05375	-0.478
Mof_O 	O 	0.7493	0.604	0.14145	-0.497
Mof_O 	O 	0.6027	0.8448	0.98068	-0.443
Mof_O 	O 	0.5166	0.6588	0.92488	-0.418
Mof_O 	O 	0.5714	0.8278	0.87003	-0.396
Mof_O 	O 	0.6644	0.667	0.93614	-0.374
Mof_O 	O 	0.8505	0.9486	0.1554	-0.589
Mof_O 	O 	0.9048	0.768	0.2262	-0.367
Mof_O 	O 	0.8885	0.7337	0.11813	-0.656
Mof_O 	O 	0.9942	0.881	0.17192	-0.536
Mof_La	La	0.57434	0.27607	0.18145	2.369
Mof_La	La	0.73871	0.7701	0.04769	2.511
Mof_La	La	0.03128	0.73901	0.08382	2.496
Mof_La	La	0.82877	0.20478	0.12947	2.346
Mof_S 	S 	0.13007	0.97847	0.48488	1.121
Mof_S 	S 	0.34219	0.53346	0.39314	0.72
Mof_S 	S 	0.12391	0.49663	0.50147	1.371
Mof_S 	S 	0.20038	0.79525	0.21956	0.909
Mof_S 	S 	0.51097	0.03579	0.25907	0.684
Mof_S 	S 	0.32132	0.01341	0.38413	0.829
Mof_S 	S 	0.41236	0.24917	0.57203	0.689
Mof_S 	S 	0.08999	0.33357	0.32982	0.829
Mof_O 	O 	0.1656	0.8798	0.4506	-0.645
Mof_O 	O 	0.1853	0.0982	0.49843	-0.612
Mof_O 	O 	0.0494	0.0214	0.44997	-0.693
Mof_O 	O 	0.1253	0.9153	0.54324	-0.608
Mof_O 	O 	0.3003	0.6051	0.33607	-0.552
Mof_O 	O 	0.3408	0.3818	0.38403	-0.471
Mof_O 	O 	0.2923	0.5624	0.43826	-0.543
Mof_O 	O 	0.4248	0.5892	0.41309	-0.382
Mof_O 	O 	0.203	0.4235	0.51667	-0.664
Mof_O 	O 	0.1102	0.5646	0.55472	-0.653
Mof_O 	O 	0.0644	0.422	0.4619	-0.537
Mof_O 	O 	0.061	0.3719	0.4969	-0.322
Mof_O 	O 	0.1056	0.5644	0.4444	-0.42
Mof_O 	O 	0.1417	0.6284	0.4676	-0.373
Mof_O 	O 	0.171	0.7452	0.15625	-0.528
Mof_O 	O 	0.1634	0.705	0.25923	-0.598
Mof_O 	O 	0.1742	0.9394	0.2253	-0.367
Mof_O 	O 	0.2898	0.7855	0.23726	-0.513
Mof_O 	O 	0.5485	0.9623	0.31585	-0.375
Mof_O 	O 	0.4412	0.5189	0.28695	-0.415
Mof_O 	O 	0.4284	0.977	0.2371	-0.387
Mof_O 	O 	0.4909	0.6893	0.23048	-0.398
Mof_O 	O 	0.297	0.8665	0.3852	-0.593
Mof_O 	O 	0.3812	0.0182	0.34721	-0.47
Mof_O 	O 	0.3563	0.0643	0.44625	-0.478
Mof_O 	O 	0.2507	0.104	0.35855	-0.496
Mof_O 	O 	0.3973	0.3448	0.51932	-0.441
Mof_O 	O 	0.4834	0.1588	0.57512	-0.417
Mof_O 	O 	0.4286	0.3278	0.62997	-0.396
Mof_O 	O 	0.3356	0.167	0.56386	-0.371
Mof_O 	O 	0.1495	0.4486	0.3446	-0.594
Mof_O 	O 	0.0952	0.268	0.2738	-0.369
Mof_O 	O 	0.1115	0.2337	0.38187	-0.656
Mof_O 	O 	0.0058	0.381	0.32808	-0.545
Mof_La	La	0.42566	0.77607	0.31855	2.368
Mof_La	La	0.26129	0.2701	0.45231	2.5
Mof_La	La	0.96872	0.23901	0.41618	2.509
Mof_La	La	0.17123	0.70478	0.37053	2.348
Mof_S 	S 	0.13007	0.52153	0.98488	1.148
Mof_S 	S 	0.34219	0.96654	0.89314	0.712
Mof_S 	S 	0.12391	0.00337	0.00147	1.371
Mof_S 	S 	0.20038	0.70475	0.71956	0.91
Mof_S 	S 	0.51097	0.46421	0.75907	0.688
Mof_S 	S 	0.32132	0.48659	0.88413	0.825
Mof_S 	S 	0.41236	0.25083	0.07203	0.689
Mof_S 	S 	0.08999	0.16643	0.82982	0.828
Mof_O 	O 	0.1656	0.6202	0.9506	-0.647
Mof_O 	O 	0.1853	0.4018	0.99843	-0.621
Mof_O 	O 	0.0494	0.4786	0.94997	-0.701
Mof_O 	O 	0.1253	0.5847	0.04324	-0.612
Mof_O 	O 	0.3003	0.8949	0.83607	-0.552
Mof_O 	O 	0.3408	0.1182	0.88403	-0.467
Mof_O 	O 	0.2923	0.9376	0.93826	-0.544
Mof_O 	O 	0.4248	0.9108	0.91309	-0.381
Mof_O 	O 	0.203	0.0765	0.01667	-0.666
Mof_O 	O 	0.1102	0.9354	0.05472	-0.659
Mof_O 	O 	0.0644	0.078	0.9619	-0.528
Mof_O 	O 	0.061	0.1281	0.9969	-0.318
Mof_O 	O 	0.1056	0.9356	0.9444	-0.428
Mof_O 	O 	0.1417	0.8716	0.9676	-0.369
Mof_O 	O 	0.171	0.7548	0.65625	-0.53
Mof_O 	O 	0.1634	0.795	0.75923	-0.599
Mof_O 	O 	0.1742	0.5606	0.7253	-0.363
Mof_O 	O 	0.2898	0.7145	0.73726	-0.514
Mof_O 	O 	0.5485	0.5377	0.81585	-0.378
Mof_O 	O 	0.4412	0.9811	0.78695	-0.416
Mof_O 	O 	0.4284	0.523	0.7371	-0.388
Mof_O 	O 	0.4909	0.8107	0.73048	-0.398
Mof_O 	O 	0.297	0.6335	0.8852	-0.59
Mof_O 	O 	0.3812	0.4818	0.84721	-0.469
Mof_O 	O 	0.3563	0.4357	0.94625	-0.478
Mof_O 	O 	0.2507	0.396	0.85855	-0.497
Mof_O 	O 	0.3973	0.1552	0.01932	-0.443
Mof_O 	O 	0.4834	0.3412	0.07512	-0.418
Mof_O 	O 	0.4286	0.1722	0.12997	-0.396
Mof_O 	O 	0.3356	0.333	0.06386	-0.374
Mof_O 	O 	0.1495	0.0514	0.8446	-0.589
Mof_O 	O 	0.0952	0.232	0.7738	-0.367
Mof_O 	O 	0.1115	0.2663	0.88187	-0.656
Mof_O 	O 	0.0058	0.119	0.82808	-0.536
Mof_La	La	0.42566	0.72393	0.81855	2.369
Mof_La	La	0.26129	0.2299	0.95231	2.511
Mof_La	La	0.96872	0.26099	0.91618	2.496
Mof_La	La	0.17123	0.79522	0.87053	2.346
Mof_S 	S 	0.86993	0.02153	0.51512	1.121
Mof_S 	S 	0.65781	0.46654	0.60686	0.72
Mof_S 	S 	0.87609	0.50337	0.49853	1.371
Mof_S 	S 	0.79962	0.20475	0.78044	0.909
Mof_S 	S 	0.48903	0.96421	0.74093	0.684
Mof_S 	S 	0.67868	0.98659	0.61587	0.829
Mof_S 	S 	0.58764	0.75083	0.42797	0.689
Mof_S 	S 	0.91001	0.66643	0.67018	0.829
Mof_O 	O 	0.8344	0.1202	0.5494	-0.645
Mof_O 	O 	0.8147	0.9018	0.50157	-0.612
Mof_O 	O 	0.9506	0.9786	0.55003	-0.693
Mof_O 	O 	0.8747	0.0847	0.45676	-0.608
Mof_O 	O 	0.6997	0.3949	0.66393	-0.552
Mof_O 	O 	0.6592	0.6182	0.61597	-0.471
Mof_O 	O 	0.7077	0.4376	0.56174	-0.543
Mof_O 	O 	0.5752	0.4108	0.58691	-0.382
Mof_O 	O 	0.797	0.5765	0.48333	-0.664
Mof_O 	O 	0.8898	0.4354	0.44528	-0.653
Mof_O 	O 	0.9356	0.578	0.5381	-0.537
Mof_O 	O 	0.939	0.6281	0.5031	-0.322
Mof_O 	O 	0.8944	0.4356	0.5556	-0.42
Mof_O 	O 	0.8583	0.3716	0.5324	-0.373
Mof_O 	O 	0.829	0.2548	0.84375	-0.528
Mof_O 	O 	0.8366	0.295	0.74077	-0.598
Mof_O 	O 	0.8258	0.0606	0.7747	-0.367
Mof_O 	O 	0.7102	0.2145	0.76274	-0.513
Mof_O 	O 	0.4515	0.0377	0.68415	-0.375
Mof_O 	O 	0.5588	0.4811	0.71305	-0.415
Mof_O 	O 	0.5716	0.023	0.7629	-0.387
Mof_O 	O 	0.5091	0.3107	0.76952	-0.398
Mof_O 	O 	0.703	0.1335	0.6148	-0.593
Mof_O 	O 	0.6188	0.9818	0.65279	-0.47
Mof_O 	O 	0.6437	0.9357	0.55375	-0.478
Mof_O 	O 	0.7493	0.896	0.64145	-0.496
Mof_O 	O 	0.6027	0.6552	0.48068	-0.441
Mof_O 	O 	0.5166	0.8412	0.42488	-0.417
Mof_O 	O 	0.5714	0.6722	0.37003	-0.396
Mof_O 	O 	0.6644	0.833	0.43614	-0.371
Mof_O 	O 	0.8505	0.5514	0.6554	-0.594
Mof_O 	O 	0.9048	0.732	0.7262	-0.369
Mof_O 	O 	0.8885	0.7663	0.61813	-0.656
Mof_O 	O 	0.9942	0.619	0.67192	-0.545
Mof_La	La	0.57434	0.22393	0.68145	2.368
Mof_La	La	0.73871	0.7299	0.54769	2.5
Mof_La	La	0.03128	0.76099	0.58382	2.509
Mof_La	La	0.82877	0.29522	0.62947	2.348
_end
