data_functionalizedCrystal
_audit_creation_method	'EQeq! by Chris Wilmer'
_symmetry_space_group_name_H-M	'P1'
_symmetry_Int_Tables_number	1
_symmetry_cell_setting	triclinic
loop_
_symmetry_equiv_pos_as_xyz
  x,y,z
_cell_length_a	19.1147
_cell_length_b	19.1147
_cell_length_c	21.1495
_cell_angle_alpha	90
_cell_angle_beta	90
_cell_angle_gamma	90
loop_
_atom_site_label
_atom_site_type_symbol
_atom_site_fract_x
_atom_site_fract_y
_atom_site_fract_z
_atom_site_charge
Mof_S 	S 	0.65403	0.92683	0.16741	0.554
Mof_N 	N 	0.4568	0.1158	0.3017	-0.226
Mof_C 	C 	0.6267	0.7198	0.1402	0.056
Mof_C 	C 	0.6484	0.7836	0.1646	-0.06
Mof_H 	H 	0.6782	0.7849	0.2006	0.077
Mof_C 	C 	0.6263	0.846	0.1364	-0.049
Mof_C 	C 	0.582	0.8447	0.0845	-0.053
Mof_H 	H 	0.5663	0.8873	0.0664	0.068
Mof_C 	C 	0.561	0.7823	0.0594	0.052
Mof_C 	C 	0.5831	0.72	0.0869	0.061
Mof_C 	C 	0.414	0.1171	0.3519	0.07
Mof_H 	H 	0.3997	0.0738	0.3698	-0.009
Mof_C 	C 	0.3895	0.1788	0.3791	-0.089
Mof_H 	H 	0.3589	0.1772	0.4144	0.057
Mof_C 	C 	0.4098	0.2403	0.355	-0.026
Mof_H 	H 	0.3936	0.2828	0.3732	0.042
Mof_C 	C 	0.4547	0.2418	0.3029	0.003
Mof_C 	C 	0.479	0.3073	0.2754	-0.053
Mof_H 	H 	0.465	0.3505	0.2937	0.05
Mof_C 	C 	0.4766	0.1781	0.2765	0.037
Mof_O 	O 	0.5611	0.6572	0.06306	-0.136
Mof_O 	O 	0.691	0.9628	0.1163	-0.19
Mof_O 	O 	0.5894	0.965	0.18248	-0.446
Mof_O 	O 	0.6957	0.9125	0.2225	-0.217
Mof_S 	S 	0.34597	0.07317	0.16741	0.576
Mof_N 	N 	0.5432	0.8842	0.3017	-0.203
Mof_C 	C 	0.3733	0.2802	0.1402	0.04
Mof_C 	C 	0.3516	0.2164	0.1646	-0.045
Mof_H 	H 	0.3218	0.2151	0.2006	0.062
Mof_C 	C 	0.3737	0.154	0.1364	-0.078
Mof_C 	C 	0.418	0.1553	0.0845	-0.032
Mof_H 	H 	0.4337	0.1127	0.0664	0.039
Mof_C 	C 	0.439	0.2177	0.0594	0.03
Mof_C 	C 	0.4169	0.28	0.0869	0.071
Mof_C 	C 	0.586	0.8829	0.3519	0.068
Mof_H 	H 	0.6003	0.9262	0.3698	0.056
Mof_C 	C 	0.6105	0.8212	0.3791	-0.073
Mof_H 	H 	0.6411	0.8228	0.4144	0.078
Mof_C 	C 	0.5902	0.7597	0.355	-0.027
Mof_H 	H 	0.6064	0.7172	0.3732	0.047
Mof_C 	C 	0.5453	0.7582	0.3029	0.006
Mof_C 	C 	0.521	0.6927	0.2754	-0.053
Mof_H 	H 	0.535	0.6495	0.2937	0.051
Mof_C 	C 	0.5234	0.8219	0.2765	0.038
Mof_O 	O 	0.4389	0.3428	0.06306	-0.138
Mof_O 	O 	0.309	0.0372	0.1163	-0.283
Mof_O 	O 	0.4106	0.035	0.18248	-0.538
Mof_O 	O 	0.3043	0.0875	0.2225	-0.287
Mof_S 	S 	0.07317	0.65403	0.66741	0.573
Mof_N 	N 	0.8842	0.4568	0.8017	-0.203
Mof_C 	C 	0.2802	0.6267	0.6402	0.045
Mof_C 	C 	0.2164	0.6484	0.6646	-0.047
Mof_H 	H 	0.2151	0.6782	0.7006	0.068
Mof_C 	C 	0.154	0.6263	0.6364	-0.072
Mof_C 	C 	0.1553	0.582	0.5845	-0.033
Mof_H 	H 	0.1127	0.5663	0.5664	0.04
Mof_C 	C 	0.2177	0.561	0.5594	0.032
Mof_C 	C 	0.28	0.5831	0.5869	0.07
Mof_C 	C 	0.8829	0.414	0.8519	0.065
Mof_H 	H 	0.9262	0.3997	0.8698	0.054
Mof_C 	C 	0.8212	0.3895	0.8791	-0.073
Mof_H 	H 	0.8228	0.3589	0.9144	0.071
Mof_C 	C 	0.7597	0.4098	0.855	-0.03
Mof_H 	H 	0.7172	0.3936	0.8732	0.046
Mof_C 	C 	0.7582	0.4547	0.8029	0.006
Mof_C 	C 	0.6927	0.479	0.7754	-0.054
Mof_H 	H 	0.6495	0.465	0.7937	0.051
Mof_C 	C 	0.8219	0.4766	0.7765	0.037
Mof_O 	O 	0.3428	0.5611	0.56306	-0.138
Mof_O 	O 	0.0372	0.691	0.6163	-0.267
Mof_O 	O 	0.035	0.5894	0.68248	-0.537
Mof_O 	O 	0.0875	0.6957	0.7225	-0.273
Mof_S 	S 	0.92683	0.34597	0.66741	0.557
Mof_N 	N 	0.1158	0.5432	0.8017	-0.226
Mof_C 	C 	0.7198	0.3733	0.6402	0.051
Mof_C 	C 	0.7836	0.3516	0.6646	-0.058
Mof_H 	H 	0.7849	0.3218	0.7006	0.072
Mof_C 	C 	0.846	0.3737	0.6364	-0.054
Mof_C 	C 	0.8447	0.418	0.5845	-0.051
Mof_H 	H 	0.8873	0.4337	0.5664	0.067
Mof_C 	C 	0.7823	0.439	0.5594	0.049
Mof_C 	C 	0.72	0.4169	0.5869	0.062
Mof_C 	C 	0.1171	0.586	0.8519	0.073
Mof_H 	H 	0.0738	0.6003	0.8698	-0.007
Mof_C 	C 	0.1788	0.6105	0.8791	-0.089
Mof_H 	H 	0.1772	0.6411	0.9144	0.065
Mof_C 	C 	0.2403	0.5902	0.855	-0.023
Mof_H 	H 	0.2828	0.6064	0.8732	0.043
Mof_C 	C 	0.2418	0.5453	0.8029	0.002
Mof_C 	C 	0.3073	0.521	0.7754	-0.052
Mof_H 	H 	0.3505	0.535	0.7937	0.05
Mof_C 	C 	0.1781	0.5234	0.7765	0.038
Mof_O 	O 	0.6572	0.4389	0.56306	-0.136
Mof_O 	O 	0.9628	0.309	0.6163	-0.205
Mof_O 	O 	0.965	0.4106	0.68248	-0.447
Mof_O 	O 	0.9125	0.3043	0.7225	-0.232
Mof_S 	S 	0.34597	0.92683	0.33259	0.557
Mof_N 	N 	0.5432	0.1158	0.1983	-0.226
Mof_C 	C 	0.3733	0.7198	0.3598	0.051
Mof_C 	C 	0.3516	0.7836	0.3354	-0.058
Mof_H 	H 	0.3218	0.7849	0.2994	0.072
Mof_C 	C 	0.3737	0.846	0.3636	-0.054
Mof_C 	C 	0.418	0.8447	0.4155	-0.051
Mof_H 	H 	0.4337	0.8873	0.4336	0.067
Mof_C 	C 	0.439	0.7823	0.4406	0.049
Mof_C 	C 	0.4169	0.72	0.4131	0.062
Mof_C 	C 	0.586	0.1171	0.1481	0.073
Mof_H 	H 	0.6003	0.0738	0.1302	-0.007
Mof_C 	C 	0.6105	0.1788	0.1209	-0.09
Mof_H 	H 	0.6411	0.1772	0.0856	0.064
Mof_C 	C 	0.5902	0.2403	0.145	-0.023
Mof_H 	H 	0.6064	0.2828	0.1268	0.043
Mof_C 	C 	0.5453	0.2418	0.1971	0.002
Mof_C 	C 	0.521	0.3073	0.2246	-0.052
Mof_H 	H 	0.535	0.3505	0.2063	0.05
Mof_C 	C 	0.5234	0.1781	0.2235	0.038
Mof_O 	O 	0.4389	0.6572	0.43694	-0.136
Mof_O 	O 	0.309	0.9628	0.3837	-0.205
Mof_O 	O 	0.4106	0.965	0.31752	-0.447
Mof_O 	O 	0.3043	0.9125	0.2775	-0.232
Mof_S 	S 	0.65403	0.07317	0.33259	0.573
Mof_N 	N 	0.4568	0.8842	0.1983	-0.203
Mof_C 	C 	0.6267	0.2802	0.3598	0.045
Mof_C 	C 	0.6484	0.2164	0.3354	-0.047
Mof_H 	H 	0.6782	0.2151	0.2994	0.068
Mof_C 	C 	0.6263	0.154	0.3636	-0.072
Mof_C 	C 	0.582	0.1553	0.4155	-0.033
Mof_H 	H 	0.5663	0.1127	0.4336	0.04
Mof_C 	C 	0.561	0.2177	0.4406	0.032
Mof_C 	C 	0.5831	0.28	0.4131	0.07
Mof_C 	C 	0.414	0.8829	0.1481	0.065
Mof_H 	H 	0.3997	0.9262	0.1302	0.054
Mof_C 	C 	0.3895	0.8212	0.1209	-0.073
Mof_H 	H 	0.3589	0.8228	0.0856	0.071
Mof_C 	C 	0.4098	0.7597	0.145	-0.03
Mof_H 	H 	0.3936	0.7172	0.1268	0.046
Mof_C 	C 	0.4547	0.7582	0.1971	0.006
Mof_C 	C 	0.479	0.6927	0.2246	-0.054
Mof_H 	H 	0.465	0.6495	0.2063	0.051
Mof_C 	C 	0.4766	0.8219	0.2235	0.037
Mof_O 	O 	0.5611	0.3428	0.43694	-0.138
Mof_O 	O 	0.691	0.0372	0.3837	-0.267
Mof_O 	O 	0.5894	0.035	0.31752	-0.537
Mof_O 	O 	0.6957	0.0875	0.2775	-0.273
Mof_S 	S 	0.92683	0.65403	0.83259	0.554
Mof_N 	N 	0.1158	0.4568	0.6983	-0.226
Mof_C 	C 	0.7198	0.6267	0.8598	0.057
Mof_C 	C 	0.7836	0.6484	0.8354	-0.061
Mof_H 	H 	0.7849	0.6782	0.7994	0.077
Mof_C 	C 	0.846	0.6263	0.8636	-0.048
Mof_C 	C 	0.8447	0.582	0.9155	-0.054
Mof_H 	H 	0.8873	0.5663	0.9336	0.069
Mof_C 	C 	0.7823	0.561	0.9406	0.053
Mof_C 	C 	0.72	0.5831	0.9131	0.061
Mof_C 	C 	0.1171	0.414	0.6481	0.07
Mof_H 	H 	0.0738	0.3997	0.6302	-0.009
Mof_C 	C 	0.1788	0.3895	0.6209	-0.089
Mof_H 	H 	0.1772	0.3589	0.5856	0.057
Mof_C 	C 	0.2403	0.4098	0.645	-0.026
Mof_H 	H 	0.2828	0.3936	0.6268	0.042
Mof_C 	C 	0.2418	0.4547	0.6971	0.003
Mof_C 	C 	0.3073	0.479	0.7246	-0.053
Mof_H 	H 	0.3505	0.465	0.7063	0.05
Mof_C 	C 	0.1781	0.4766	0.7235	0.037
Mof_O 	O 	0.6572	0.5611	0.93694	-0.135
Mof_O 	O 	0.9628	0.691	0.8837	-0.189
Mof_O 	O 	0.965	0.5894	0.81752	-0.446
Mof_O 	O 	0.9125	0.6957	0.7775	-0.217
Mof_S 	S 	0.07317	0.34597	0.83259	0.576
Mof_N 	N 	0.8842	0.5432	0.6983	-0.203
Mof_C 	C 	0.2802	0.3733	0.8598	0.041
Mof_C 	C 	0.2164	0.3516	0.8354	-0.045
Mof_H 	H 	0.2151	0.3218	0.7994	0.062
Mof_C 	C 	0.154	0.3737	0.8636	-0.077
Mof_C 	C 	0.1553	0.418	0.9155	-0.032
Mof_H 	H 	0.1127	0.4337	0.9336	0.039
Mof_C 	C 	0.2177	0.439	0.9406	0.031
Mof_C 	C 	0.28	0.4169	0.9131	0.071
Mof_C 	C 	0.8829	0.586	0.6481	0.068
Mof_H 	H 	0.9262	0.6003	0.6302	0.056
Mof_C 	C 	0.8212	0.6105	0.6209	-0.073
Mof_H 	H 	0.8228	0.6411	0.5856	0.078
Mof_C 	C 	0.7597	0.5902	0.645	-0.027
Mof_H 	H 	0.7172	0.6064	0.6268	0.047
Mof_C 	C 	0.7582	0.5453	0.6971	0.006
Mof_C 	C 	0.6927	0.521	0.7246	-0.053
Mof_H 	H 	0.6495	0.535	0.7063	0.051
Mof_C 	C 	0.8219	0.5234	0.7235	0.038
Mof_O 	O 	0.3428	0.4389	0.93694	-0.138
Mof_O 	O 	0.0372	0.309	0.8837	-0.282
Mof_O 	O 	0.035	0.4106	0.81752	-0.538
Mof_O 	O 	0.0875	0.3043	0.7775	-0.287
Mof_S 	S 	0.34597	0.07317	0.83259	0.576
Mof_N 	N 	0.5432	0.8842	0.6983	-0.203
Mof_C 	C 	0.3733	0.2802	0.8598	0.041
Mof_C 	C 	0.3516	0.2164	0.8354	-0.045
Mof_H 	H 	0.3218	0.2151	0.7994	0.062
Mof_C 	C 	0.3737	0.154	0.8636	-0.077
Mof_C 	C 	0.418	0.1553	0.9155	-0.032
Mof_H 	H 	0.4337	0.1127	0.9336	0.039
Mof_C 	C 	0.439	0.2177	0.9406	0.031
Mof_C 	C 	0.4169	0.28	0.9131	0.071
Mof_C 	C 	0.586	0.8829	0.6481	0.068
Mof_H 	H 	0.6003	0.9262	0.6302	0.056
Mof_C 	C 	0.6105	0.8212	0.6209	-0.073
Mof_H 	H 	0.6411	0.8228	0.5856	0.078
Mof_C 	C 	0.5902	0.7597	0.645	-0.027
Mof_H 	H 	0.6064	0.7172	0.6268	0.047
Mof_C 	C 	0.5453	0.7582	0.6971	0.006
Mof_C 	C 	0.521	0.6927	0.7246	-0.053
Mof_H 	H 	0.535	0.6495	0.7063	0.051
Mof_C 	C 	0.5234	0.8219	0.7235	0.038
Mof_O 	O 	0.4389	0.3428	0.93694	-0.138
Mof_O 	O 	0.309	0.0372	0.8837	-0.282
Mof_O 	O 	0.4106	0.035	0.81752	-0.538
Mof_O 	O 	0.3043	0.0875	0.7775	-0.287
Mof_S 	S 	0.65403	0.92683	0.83259	0.554
Mof_N 	N 	0.4568	0.1158	0.6983	-0.226
Mof_C 	C 	0.6267	0.7198	0.8598	0.057
Mof_C 	C 	0.6484	0.7836	0.8354	-0.061
Mof_H 	H 	0.6782	0.7849	0.7994	0.077
Mof_C 	C 	0.6263	0.846	0.8636	-0.048
Mof_C 	C 	0.582	0.8447	0.9155	-0.054
Mof_H 	H 	0.5663	0.8873	0.9336	0.069
Mof_C 	C 	0.561	0.7823	0.9406	0.053
Mof_C 	C 	0.5831	0.72	0.9131	0.061
Mof_C 	C 	0.414	0.1171	0.6481	0.07
Mof_H 	H 	0.3997	0.0738	0.6302	-0.009
Mof_C 	C 	0.3895	0.1788	0.6209	-0.089
Mof_H 	H 	0.3589	0.1772	0.5856	0.057
Mof_C 	C 	0.4098	0.2403	0.645	-0.026
Mof_H 	H 	0.3936	0.2828	0.6268	0.042
Mof_C 	C 	0.4547	0.2418	0.6971	0.003
Mof_C 	C 	0.479	0.3073	0.7246	-0.053
Mof_H 	H 	0.465	0.3505	0.7063	0.05
Mof_C 	C 	0.4766	0.1781	0.7235	0.037
Mof_O 	O 	0.5611	0.6572	0.93694	-0.135
Mof_O 	O 	0.691	0.9628	0.8837	-0.189
Mof_O 	O 	0.5894	0.965	0.81752	-0.446
Mof_O 	O 	0.6957	0.9125	0.7775	-0.217
Mof_S 	S 	0.92683	0.34597	0.33259	0.557
Mof_N 	N 	0.1158	0.5432	0.1983	-0.226
Mof_C 	C 	0.7198	0.3733	0.3598	0.051
Mof_C 	C 	0.7836	0.3516	0.3354	-0.058
Mof_H 	H 	0.7849	0.3218	0.2994	0.072
Mof_C 	C 	0.846	0.3737	0.3636	-0.054
Mof_C 	C 	0.8447	0.418	0.4155	-0.051
Mof_H 	H 	0.8873	0.4337	0.4336	0.067
Mof_C 	C 	0.7823	0.439	0.4406	0.049
Mof_C 	C 	0.72	0.4169	0.4131	0.062
Mof_C 	C 	0.1171	0.586	0.1481	0.073
Mof_H 	H 	0.0738	0.6003	0.1302	-0.007
Mof_C 	C 	0.1788	0.6105	0.1209	-0.09
Mof_H 	H 	0.1772	0.6411	0.0856	0.064
Mof_C 	C 	0.2403	0.5902	0.145	-0.023
Mof_H 	H 	0.2828	0.6064	0.1268	0.043
Mof_C 	C 	0.2418	0.5453	0.1971	0.002
Mof_C 	C 	0.3073	0.521	0.2246	-0.052
Mof_H 	H 	0.3505	0.535	0.2063	0.05
Mof_C 	C 	0.1781	0.5234	0.2235	0.038
Mof_O 	O 	0.6572	0.4389	0.43694	-0.136
Mof_O 	O 	0.9628	0.309	0.3837	-0.205
Mof_O 	O 	0.965	0.4106	0.31752	-0.447
Mof_O 	O 	0.9125	0.3043	0.2775	-0.232
Mof_S 	S 	0.07317	0.65403	0.33259	0.573
Mof_N 	N 	0.8842	0.4568	0.1983	-0.203
Mof_C 	C 	0.2802	0.6267	0.3598	0.045
Mof_C 	C 	0.2164	0.6484	0.3354	-0.047
Mof_H 	H 	0.2151	0.6782	0.2994	0.068
Mof_C 	C 	0.154	0.6263	0.3636	-0.072
Mof_C 	C 	0.1553	0.582	0.4155	-0.033
Mof_H 	H 	0.1127	0.5663	0.4336	0.04
Mof_C 	C 	0.2177	0.561	0.4406	0.032
Mof_C 	C 	0.28	0.5831	0.4131	0.07
Mof_C 	C 	0.8829	0.414	0.1481	0.065
Mof_H 	H 	0.9262	0.3997	0.1302	0.054
Mof_C 	C 	0.8212	0.3895	0.1209	-0.073
Mof_H 	H 	0.8228	0.3589	0.0856	0.071
Mof_C 	C 	0.7597	0.4098	0.145	-0.03
Mof_H 	H 	0.7172	0.3936	0.1268	0.046
Mof_C 	C 	0.7582	0.4547	0.1971	0.006
Mof_C 	C 	0.6927	0.479	0.2246	-0.054
Mof_H 	H 	0.6495	0.465	0.2063	0.051
Mof_C 	C 	0.8219	0.4766	0.2235	0.037
Mof_O 	O 	0.3428	0.5611	0.43694	-0.138
Mof_O 	O 	0.0372	0.691	0.3837	-0.267
Mof_O 	O 	0.035	0.5894	0.31752	-0.537
Mof_O 	O 	0.0875	0.6957	0.2775	-0.273
Mof_S 	S 	0.65403	0.07317	0.66741	0.573
Mof_N 	N 	0.4568	0.8842	0.8017	-0.203
Mof_C 	C 	0.6267	0.2802	0.6402	0.045
Mof_C 	C 	0.6484	0.2164	0.6646	-0.047
Mof_H 	H 	0.6782	0.2151	0.7006	0.068
Mof_C 	C 	0.6263	0.154	0.6364	-0.072
Mof_C 	C 	0.582	0.1553	0.5845	-0.033
Mof_H 	H 	0.5663	0.1127	0.5664	0.04
Mof_C 	C 	0.561	0.2177	0.5594	0.032
Mof_C 	C 	0.5831	0.28	0.5869	0.07
Mof_C 	C 	0.414	0.8829	0.8519	0.065
Mof_H 	H 	0.3997	0.9262	0.8698	0.054
Mof_C 	C 	0.3895	0.8212	0.8791	-0.073
Mof_H 	H 	0.3589	0.8228	0.9144	0.071
Mof_C 	C 	0.4098	0.7597	0.855	-0.03
Mof_H 	H 	0.3936	0.7172	0.8732	0.046
Mof_C 	C 	0.4547	0.7582	0.8029	0.006
Mof_C 	C 	0.479	0.6927	0.7754	-0.054
Mof_H 	H 	0.465	0.6495	0.7937	0.051
Mof_C 	C 	0.4766	0.8219	0.7765	0.037
Mof_O 	O 	0.5611	0.3428	0.56306	-0.138
Mof_O 	O 	0.691	0.0372	0.6163	-0.267
Mof_O 	O 	0.5894	0.035	0.68248	-0.537
Mof_O 	O 	0.6957	0.0875	0.7225	-0.273
Mof_S 	S 	0.34597	0.92683	0.66741	0.557
Mof_N 	N 	0.5432	0.1158	0.8017	-0.226
Mof_C 	C 	0.3733	0.7198	0.6402	0.051
Mof_C 	C 	0.3516	0.7836	0.6646	-0.058
Mof_H 	H 	0.3218	0.7849	0.7006	0.072
Mof_C 	C 	0.3737	0.846	0.6364	-0.054
Mof_C 	C 	0.418	0.8447	0.5845	-0.051
Mof_H 	H 	0.4337	0.8873	0.5664	0.067
Mof_C 	C 	0.439	0.7823	0.5594	0.049
Mof_C 	C 	0.4169	0.72	0.5869	0.062
Mof_C 	C 	0.586	0.1171	0.8519	0.073
Mof_H 	H 	0.6003	0.0738	0.8698	-0.007
Mof_C 	C 	0.6105	0.1788	0.8791	-0.089
Mof_H 	H 	0.6411	0.1772	0.9144	0.065
Mof_C 	C 	0.5902	0.2403	0.855	-0.023
Mof_H 	H 	0.6064	0.2828	0.8732	0.043
Mof_C 	C 	0.5453	0.2418	0.8029	0.002
Mof_C 	C 	0.521	0.3073	0.7754	-0.052
Mof_H 	H 	0.535	0.3505	0.7937	0.05
Mof_C 	C 	0.5234	0.1781	0.7765	0.038
Mof_O 	O 	0.4389	0.6572	0.56306	-0.136
Mof_O 	O 	0.309	0.9628	0.6163	-0.205
Mof_O 	O 	0.4106	0.965	0.68248	-0.447
Mof_O 	O 	0.3043	0.9125	0.7225	-0.232
Mof_S 	S 	0.07317	0.34597	0.16741	0.576
Mof_N 	N 	0.8842	0.5432	0.3017	-0.203
Mof_C 	C 	0.2802	0.3733	0.1402	0.04
Mof_C 	C 	0.2164	0.3516	0.1646	-0.045
Mof_H 	H 	0.2151	0.3218	0.2006	0.062
Mof_C 	C 	0.154	0.3737	0.1364	-0.078
Mof_C 	C 	0.1553	0.418	0.0845	-0.032
Mof_H 	H 	0.1127	0.4337	0.0664	0.039
Mof_C 	C 	0.2177	0.439	0.0594	0.03
Mof_C 	C 	0.28	0.4169	0.0869	0.071
Mof_C 	C 	0.8829	0.586	0.3519	0.068
Mof_H 	H 	0.9262	0.6003	0.3698	0.056
Mof_C 	C 	0.8212	0.6105	0.3791	-0.073
Mof_H 	H 	0.8228	0.6411	0.4144	0.078
Mof_C 	C 	0.7597	0.5902	0.355	-0.027
Mof_H 	H 	0.7172	0.6064	0.3732	0.047
Mof_C 	C 	0.7582	0.5453	0.3029	0.006
Mof_C 	C 	0.6927	0.521	0.2754	-0.053
Mof_H 	H 	0.6495	0.535	0.2937	0.051
Mof_C 	C 	0.8219	0.5234	0.2765	0.038
Mof_O 	O 	0.3428	0.4389	0.06306	-0.138
Mof_O 	O 	0.0372	0.309	0.1163	-0.283
Mof_O 	O 	0.035	0.4106	0.18248	-0.538
Mof_O 	O 	0.0875	0.3043	0.2225	-0.287
Mof_S 	S 	0.92683	0.65403	0.16741	0.554
Mof_N 	N 	0.1158	0.4568	0.3017	-0.226
Mof_C 	C 	0.7198	0.6267	0.1402	0.056
Mof_C 	C 	0.7836	0.6484	0.1646	-0.06
Mof_H 	H 	0.7849	0.6782	0.2006	0.077
Mof_C 	C 	0.846	0.6263	0.1364	-0.049
Mof_C 	C 	0.8447	0.582	0.0845	-0.053
Mof_H 	H 	0.8873	0.5663	0.0664	0.068
Mof_C 	C 	0.7823	0.561	0.0594	0.052
Mof_C 	C 	0.72	0.5831	0.0869	0.061
Mof_C 	C 	0.1171	0.414	0.3519	0.07
Mof_H 	H 	0.0738	0.3997	0.3698	-0.009
Mof_C 	C 	0.1788	0.3895	0.3791	-0.089
Mof_H 	H 	0.1772	0.3589	0.4144	0.057
Mof_C 	C 	0.2403	0.4098	0.355	-0.026
Mof_H 	H 	0.2828	0.3936	0.3732	0.042
Mof_C 	C 	0.2418	0.4547	0.3029	0.003
Mof_C 	C 	0.3073	0.479	0.2754	-0.053
Mof_H 	H 	0.3505	0.465	0.2937	0.05
Mof_C 	C 	0.1781	0.4766	0.2765	0.037
Mof_O 	O 	0.6572	0.5611	0.06306	-0.136
Mof_O 	O 	0.9628	0.691	0.1163	-0.19
Mof_O 	O 	0.965	0.5894	0.18248	-0.446
Mof_O 	O 	0.9125	0.6957	0.2225	-0.217
Mof_Eu	Eu	0.5	3.26675e-33	0.25	1.999
Mof_Eu	Eu	9.64489e-33	0.5	0.75	1.999
Mof_Eu	Eu	0.5	6.53349e-33	0.75	1.999
Mof_Eu	Eu	1.41041e-32	0.5	0.25	1.999
Mof_C 	C 	0.6525	0.6525	0.1694	-0.187
Mof_H 	H 	0.6161	0.6161	0.1644	0.108
Mof_H 	H 	0.6599	0.6599	0.2153	0.087
Mof_C 	C 	0.3475	0.3475	0.1694	-0.174
Mof_H 	H 	0.3839	0.3839	0.1644	0.104
Mof_H 	H 	0.3401	0.3401	0.2153	0.081
Mof_C 	C 	0.3475	0.6525	0.6694	-0.181
Mof_H 	H 	0.3839	0.6161	0.6644	0.106
Mof_H 	H 	0.3401	0.6599	0.7153	0.084
Mof_C 	C 	0.6525	0.3475	0.6694	-0.181
Mof_H 	H 	0.6161	0.3839	0.6644	0.106
Mof_H 	H 	0.6599	0.3401	0.7153	0.084
Mof_C 	C 	0.3475	0.6525	0.3306	-0.181
Mof_H 	H 	0.3839	0.6161	0.3356	0.106
Mof_H 	H 	0.3401	0.6599	0.2847	0.084
Mof_C 	C 	0.6525	0.3475	0.3306	-0.181
Mof_H 	H 	0.6161	0.3839	0.3356	0.106
Mof_H 	H 	0.6599	0.3401	0.2847	0.084
Mof_C 	C 	0.6525	0.6525	0.8306	-0.188
Mof_H 	H 	0.6161	0.6161	0.8356	0.108
Mof_H 	H 	0.6599	0.6599	0.7847	0.087
Mof_C 	C 	0.3475	0.3475	0.8306	-0.174
Mof_H 	H 	0.3839	0.3839	0.8356	0.104
Mof_H 	H 	0.3401	0.3401	0.7847	0.082
Mof_C 	C 	0.5152	0.7827	-0	-0.185
Mof_H 	H 	0.4845	0.741	-0	0.108
Mof_H 	H 	0.4852	0.8249	-0	0.088
Mof_C 	C 	0.4848	0.2173	-0	-0.163
Mof_H 	H 	0.5155	0.259	-0	0.101
Mof_H 	H 	0.5148	0.1751	-0	0.072
Mof_C 	C 	0.2173	0.5152	0.5	-0.163
Mof_H 	H 	0.259	0.4845	0.5	0.1
Mof_H 	H 	0.1751	0.4852	0.5	0.071
Mof_C 	C 	0.7827	0.4848	0.5	-0.183
Mof_H 	H 	0.741	0.5155	0.5	0.108
Mof_H 	H 	0.8249	0.5148	0.5	0.089
Mof_C 	C 	0.4848	0.7827	0.5	-0.183
Mof_H 	H 	0.5155	0.741	0.5	0.108
Mof_H 	H 	0.5148	0.8249	0.5	0.089
Mof_C 	C 	0.5152	0.2173	0.5	-0.163
Mof_H 	H 	0.4845	0.259	0.5	0.1
Mof_H 	H 	0.4852	0.1751	0.5	0.071
Mof_C 	C 	0.7827	0.5152	-0	-0.185
Mof_H 	H 	0.741	0.4845	-0	0.108
Mof_H 	H 	0.8249	0.4852	-0	0.088
Mof_C 	C 	0.2173	0.4848	-0	-0.163
Mof_H 	H 	0.259	0.5155	-0	0.101
Mof_H 	H 	0.1751	0.5148	-0	0.072
_end
