data_functionalizedCrystal
_audit_creation_method	'EQeq! by Chris Wilmer'
_symmetry_space_group_name_H-M	'P1'
_symmetry_Int_Tables_number	1
_symmetry_cell_setting	triclinic
loop_
_symmetry_equiv_pos_as_xyz
  x,y,z
_cell_length_a	6.8091
_cell_length_b	16.4128
_cell_length_c	13.5674
_cell_angle_alpha	90
_cell_angle_beta	90
_cell_angle_gamma	90
loop_
_atom_site_label
_atom_site_type_symbol
_atom_site_fract_x
_atom_site_fract_y
_atom_site_fract_z
_atom_site_charge
Mof_O 	O 	0.3118	0.1632	0.6555	-0.515
Mof_O 	O 	0.6415	0.1626	0.6665	-0.501
Mof_C 	C 	0.3225	0.0329	0.5261	-0.011
Mof_H 	H 	0.2015	0.0554	0.5425	0.056
Mof_C 	C 	0.6675	0.0323	0.5369	-0.007
Mof_H 	H 	0.783	0.0548	0.5611	0.057
Mof_C 	C 	0.4911	0.0649	0.565	-0.084
Mof_C 	C 	0.4781	0.1366	0.6333	0.423
Mof_O 	O 	0.1882	0.8368	0.1555	-0.516
Mof_O 	O 	0.8585	0.8374	0.1665	-0.502
Mof_C 	C 	0.1775	0.9671	0.0261	-0.011
Mof_H 	H 	0.2985	0.9446	0.0425	0.056
Mof_C 	C 	0.8325	0.9677	0.0369	-0.007
Mof_H 	H 	0.717	0.9452	0.0611	0.057
Mof_C 	C 	0.0089	0.9351	0.065	-0.085
Mof_C 	C 	0.0219	0.8634	0.1333	0.424
Mof_O 	O 	0.6882	0.6632	0.3445	-0.516
Mof_O 	O 	0.3585	0.6626	0.3335	-0.502
Mof_C 	C 	0.6775	0.5329	0.4739	-0.011
Mof_H 	H 	0.7985	0.5554	0.4575	0.056
Mof_C 	C 	0.3325	0.5323	0.4631	-0.008
Mof_H 	H 	0.217	0.5548	0.4389	0.057
Mof_C 	C 	0.5089	0.5649	0.435	-0.084
Mof_C 	C 	0.5219	0.6366	0.3667	0.423
Mof_O 	O 	0.8118	0.3368	0.8445	-0.516
Mof_O 	O 	0.1415	0.3374	0.8335	-0.502
Mof_C 	C 	0.8225	0.4671	0.9739	-0.011
Mof_H 	H 	0.7015	0.4446	0.9575	0.056
Mof_C 	C 	0.1675	0.4677	0.9631	-0.006
Mof_H 	H 	0.283	0.4452	0.9389	0.057
Mof_C 	C 	0.9911	0.4351	0.935	-0.085
Mof_C 	C 	0.9781	0.3634	0.8667	0.423
Mof_O 	O 	0.6882	0.8368	0.3445	-0.516
Mof_O 	O 	0.3585	0.8374	0.3335	-0.502
Mof_C 	C 	0.6775	0.9671	0.4739	-0.011
Mof_H 	H 	0.7985	0.9446	0.4575	0.056
Mof_C 	C 	0.3325	0.9677	0.4631	-0.007
Mof_H 	H 	0.217	0.9452	0.4389	0.057
Mof_C 	C 	0.5089	0.9351	0.435	-0.084
Mof_C 	C 	0.5219	0.8634	0.3667	0.423
Mof_O 	O 	0.8118	0.1632	0.8445	-0.516
Mof_O 	O 	0.1415	0.1626	0.8335	-0.502
Mof_C 	C 	0.8225	0.0329	0.9739	-0.011
Mof_H 	H 	0.7015	0.0554	0.9575	0.056
Mof_C 	C 	0.1675	0.0323	0.9631	-0.007
Mof_H 	H 	0.283	0.0548	0.9389	0.057
Mof_C 	C 	0.9911	0.0649	0.935	-0.085
Mof_C 	C 	0.9781	0.1366	0.8667	0.424
Mof_O 	O 	0.3118	0.3368	0.6555	-0.516
Mof_O 	O 	0.6415	0.3374	0.6665	-0.502
Mof_C 	C 	0.3225	0.4671	0.5261	-0.011
Mof_H 	H 	0.2015	0.4446	0.5425	0.056
Mof_C 	C 	0.6675	0.4677	0.5369	-0.008
Mof_H 	H 	0.783	0.4452	0.5611	0.057
Mof_C 	C 	0.4911	0.4351	0.565	-0.084
Mof_C 	C 	0.4781	0.3634	0.6333	0.423
Mof_O 	O 	0.1882	0.6632	0.1555	-0.516
Mof_O 	O 	0.8585	0.6626	0.1665	-0.502
Mof_C 	C 	0.1775	0.5329	0.0261	-0.011
Mof_H 	H 	0.2985	0.5554	0.0425	0.056
Mof_C 	C 	0.8325	0.5323	0.0369	-0.006
Mof_H 	H 	0.717	0.5548	0.0611	0.057
Mof_C 	C 	0.0089	0.5649	0.065	-0.085
Mof_C 	C 	0.0219	0.6366	0.1333	0.423
Mof_O 	O 	0.4751	0.25	0.8084	-0.666
Mof_V 	V 	0.2002	0.25	0.73916	1.834
Mof_O 	O 	0.0249	0.75	0.3084	-0.666
Mof_V 	V 	0.2998	0.75	0.23916	1.834
Mof_O 	O 	0.5249	0.75	0.1916	-0.666
Mof_V 	V 	0.7998	0.75	0.26084	1.834
Mof_O 	O 	0.9751	0.25	0.6916	-0.666
Mof_V 	V 	0.7002	0.25	0.76084	1.834
_end
