data_functionalizedCrystal
_audit_creation_method	'EQeq! by Chris Wilmer'
_symmetry_space_group_name_H-M	'P1'
_symmetry_Int_Tables_number	1
_symmetry_cell_setting	triclinic
loop_
_symmetry_equiv_pos_as_xyz
  x,y,z
_cell_length_a	7.297
_cell_length_b	7.297
_cell_length_c	8.179
_cell_angle_alpha	90
_cell_angle_beta	90
_cell_angle_gamma	120
loop_
_atom_site_label
_atom_site_type_symbol
_atom_site_fract_x
_atom_site_fract_y
_atom_site_fract_z
_atom_site_charge
Mof_O 	O 	0.89071	0.30745	0.89455	-0.24
Mof_O 	O 	0.69255	0.58326	0.89455	-0.259
Mof_O 	O 	0.41674	0.10929	0.89455	-0.27
Mof_O 	O 	0.10929	0.69255	0.39455	-0.346
Mof_O 	O 	0.30745	0.41674	0.39455	-0.376
Mof_O 	O 	0.58326	0.89071	0.39455	-0.294
Mof_O 	O 	0.30745	0.89071	0.10545	-0.286
Mof_O 	O 	0.58326	0.69255	0.10545	-0.327
Mof_O 	O 	0.10929	0.41674	0.10545	-0.347
Mof_O 	O 	0.69255	0.10929	0.60545	-0.341
Mof_O 	O 	0.41674	0.30745	0.60545	-0.37
Mof_O 	O 	0.89071	0.58326	0.60545	-0.305
Mof_Co	Co	0.66667	0.33333	0.75	1.202
Mof_Co	Co	0.33333	0.66667	0.25	1.199
Mof_C 	C 	-3.76791e-17	0.4393	-0	0.199
Mof_H 	H 	-0	0.587	-0	-0.032
Mof_C 	C 	0.5607	0.5607	-0	0.253
Mof_H 	H 	0.413	0.413	-0	-0.042
Mof_C 	C 	0.4393	0	-0	0.168
Mof_H 	H 	0.587	0	-0	-0.032
Mof_C 	C 	6.72464e-18	0.5607	0.5	0.307
Mof_H 	H 	6.72464e-18	0.413	0.5	-0.041
Mof_C 	C 	0.4393	0.4393	0.5	0.37
Mof_H 	H 	0.587	0.587	0.5	-0.032
Mof_C 	C 	0.5607	0	0.5	0.281
Mof_H 	H 	0.413	0	0.5	-0.039
_end
