data_functionalizedCrystal
_audit_creation_method	'EQeq! by Chris Wilmer'
_symmetry_space_group_name_H-M	'P1'
_symmetry_Int_Tables_number	1
_symmetry_cell_setting	triclinic
loop_
_symmetry_equiv_pos_as_xyz
  x,y,z
_cell_length_a	7.4942
_cell_length_b	7.7257
_cell_length_c	17.852
_cell_angle_alpha	90
_cell_angle_beta	97.74
_cell_angle_gamma	90
loop_
_atom_site_label
_atom_site_type_symbol
_atom_site_fract_x
_atom_site_fract_y
_atom_site_fract_z
_atom_site_charge
Mof_Co	Co	0.12893	0.05357	0.36354	1.186
Mof_Co	Co	0.78476	0.8052	0.30831	1.188
Mof_P 	P 	0.9466	0.4237	0.31096	0.553
Mof_O 	O 	0.9082	0.9543	0.4074	-0.46
Mof_O 	O 	0.0736	0.308	0.3624	-0.39
Mof_O 	O 	0.012	0.44	0.2331	-0.544
Mof_O 	O 	0.3017	0.8477	0.3834	-0.334
Mof_O 	O 	0.3513	0.1344	0.3015	-0.405
Mof_O 	O 	0.7959	0.9044	0.5158	-0.312
Mof_O 	O 	0.5582	0.7403	0.3566	-0.306
Mof_O 	O 	0.923	0.5987	0.3453	-0.388
Mof_O 	O 	0.6134	0.02	0.2767	-0.355
Mof_O 	O 	0.7512	0.339	0.2997	-0.446
Mof_H 	H 	0.7562	0.2424	0.281	0.273
Mof_C 	C 	0.9141	0.9574	0.4786	0.256
Mof_C 	C 	0.4407	0.8561	0.3524	0.223
Mof_C 	C 	0.4705	0.019	0.3053	0.262
Mof_Co	Co	0.87107	0.55357	0.13646	1.185
Mof_Co	Co	0.21524	0.3052	0.19169	1.187
Mof_P 	P 	0.0534	0.9237	0.18904	0.551
Mof_O 	O 	0.0918	0.4543	0.0926	-0.461
Mof_O 	O 	0.9264	0.808	0.1376	-0.389
Mof_O 	O 	0.988	0.94	0.2669	-0.542
Mof_O 	O 	0.6983	0.3477	0.1166	-0.334
Mof_O 	O 	0.6487	0.6344	0.1985	-0.405
Mof_O 	O 	0.2041	0.4044	0.9842	-0.312
Mof_O 	O 	0.4418	0.2403	0.1434	-0.306
Mof_O 	O 	0.077	0.0987	0.1547	-0.387
Mof_O 	O 	0.3866	0.52	0.2233	-0.355
Mof_O 	O 	0.2488	0.839	0.2003	-0.445
Mof_H 	H 	0.2438	0.7424	0.219	0.273
Mof_C 	C 	0.0859	0.4574	0.0214	0.255
Mof_C 	C 	0.5593	0.3561	0.1476	0.223
Mof_C 	C 	0.5295	0.519	0.1947	0.262
Mof_Co	Co	0.87107	0.94643	0.63646	1.185
Mof_Co	Co	0.21524	0.1948	0.69169	1.187
Mof_P 	P 	0.0534	0.5763	0.68904	0.553
Mof_O 	O 	0.0918	0.0457	0.5926	-0.46
Mof_O 	O 	0.9264	0.692	0.6376	-0.39
Mof_O 	O 	0.988	0.56	0.7669	-0.544
Mof_O 	O 	0.6983	0.1523	0.6166	-0.334
Mof_O 	O 	0.6487	0.8656	0.6985	-0.405
Mof_O 	O 	0.2041	0.0956	0.4842	-0.312
Mof_O 	O 	0.4418	0.2597	0.6434	-0.306
Mof_O 	O 	0.077	0.4013	0.6547	-0.388
Mof_O 	O 	0.3866	0.98	0.7233	-0.355
Mof_O 	O 	0.2488	0.661	0.7003	-0.446
Mof_H 	H 	0.2438	0.7576	0.719	0.273
Mof_C 	C 	0.0859	0.0426	0.5214	0.256
Mof_C 	C 	0.5593	0.1439	0.6476	0.223
Mof_C 	C 	0.5295	0.981	0.6947	0.262
Mof_Co	Co	0.12893	0.44643	0.86354	1.185
Mof_Co	Co	0.78476	0.6948	0.80831	1.187
Mof_P 	P 	0.9466	0.0763	0.81096	0.551
Mof_O 	O 	0.9082	0.5457	0.9074	-0.461
Mof_O 	O 	0.0736	0.192	0.8624	-0.389
Mof_O 	O 	0.012	0.06	0.7331	-0.542
Mof_O 	O 	0.3017	0.6523	0.8834	-0.334
Mof_O 	O 	0.3513	0.3656	0.8015	-0.405
Mof_O 	O 	0.7959	0.5956	0.0158	-0.312
Mof_O 	O 	0.5582	0.7597	0.8566	-0.306
Mof_O 	O 	0.923	0.9013	0.8453	-0.387
Mof_O 	O 	0.6134	0.48	0.7767	-0.355
Mof_O 	O 	0.7512	0.161	0.7997	-0.445
Mof_H 	H 	0.7562	0.2576	0.781	0.273
Mof_C 	C 	0.9141	0.5426	0.9786	0.255
Mof_C 	C 	0.4407	0.6439	0.8524	0.223
Mof_C 	C 	0.4705	0.481	0.8053	0.262
_end
