data_functionalizedCrystal
_audit_creation_method	'EQeq! by Chris Wilmer'
_symmetry_space_group_name_H-M	'P1'
_symmetry_Int_Tables_number	1
_symmetry_cell_setting	triclinic
loop_
_symmetry_equiv_pos_as_xyz
  x,y,z
_cell_length_a	7.6819
_cell_length_b	8.8715
_cell_length_c	10.3205
_cell_angle_alpha	105.852
_cell_angle_beta	93.055
_cell_angle_gamma	105.705
loop_
_atom_site_label
_atom_site_type_symbol
_atom_site_fract_x
_atom_site_fract_y
_atom_site_fract_z
_atom_site_charge
Mof_Cd	Cd	0.84092	0.61598	0.66792	0.477
Mof_Cd	Cd	0.15908	0.38402	0.33208	0.475
Mof_Cd	Cd	0.5	0	0.5	0.365
Mof_H 	H 	0.1252	0.4247	0.8645	0.06
Mof_H 	H 	0.5305	0.7769	0.1388	0.065
Mof_H 	H 	0.6349	0.8901	0.9672	0.07
Mof_H 	H 	0.8748	0.5753	0.1355	0.063
Mof_H 	H 	0.4695	0.2231	0.8612	0.053
Mof_H 	H 	0.3651	0.1099	0.0328	0.044
Mof_C 	C 	0.4442	0.7223	0.8124	-0.025
Mof_C 	C 	0.2906	0.5856	0.7827	-0.042
Mof_C 	C 	0.2299	0.5179	0.885	-0.001
Mof_C 	C 	0.3217	0.586	0.017	-0.048
Mof_C 	C 	0.4709	0.727	0.0479	-0.001
Mof_C 	C 	0.5326	0.7946	0.946	-0.034
Mof_C 	C 	0.5154	0.8	0.7049	0.308
Mof_C 	C 	0.1941	0.5021	0.6402	0.295
Mof_C 	C 	0.2622	0.5053	0.1237	0.287
Mof_C 	C 	0.5558	0.2777	0.1876	-0.042
Mof_C 	C 	0.7094	0.4144	0.2173	-0.042
Mof_C 	C 	0.7701	0.4821	0.115	0.004
Mof_C 	C 	0.6783	0.414	0.983	-0.058
Mof_C 	C 	0.5291	0.273	0.9521	-0.024
Mof_C 	C 	0.4674	0.2054	0.054	-0.023
Mof_C 	C 	0.4846	0.2	0.2951	0.313
Mof_C 	C 	0.8059	0.4979	0.3598	0.294
Mof_C 	C 	0.7378	0.4947	0.8763	0.284
Mof_O 	O 	0.6672	0.7941	0.67056	-0.258
Mof_O 	O 	0.4168	0.8726	0.65947	-0.248
Mof_O 	O 	0.2926	0.4962	0.54644	-0.248
Mof_O 	O 	0.0231	0.44	0.62302	-0.264
Mof_O 	O 	0.1307	0.3762	0.09533	-0.26
Mof_O 	O 	0.3462	0.5695	0.24416	-0.246
Mof_O 	O 	0.3328	0.2059	0.32944	-0.278
Mof_O 	O 	0.5832	0.1274	0.34053	-0.287
Mof_O 	O 	0.7074	0.5038	0.45356	-0.248
Mof_O 	O 	0.9769	0.56	0.37698	-0.265
Mof_O 	O 	0.8693	0.6238	0.90467	-0.258
Mof_O 	O 	0.6538	0.4305	0.75584	-0.257
_end
