data_functionalizedCrystal
_audit_creation_method	'EQeq! by Chris Wilmer'
_symmetry_space_group_name_H-M	'P1'
_symmetry_Int_Tables_number	1
_symmetry_cell_setting	triclinic
loop_
_symmetry_equiv_pos_as_xyz
  x,y,z
_cell_length_a	15.3092
_cell_length_b	15.3092
_cell_length_c	15.346
_cell_angle_alpha	90
_cell_angle_beta	90
_cell_angle_gamma	120
loop_
_atom_site_label
_atom_site_type_symbol
_atom_site_fract_x
_atom_site_fract_y
_atom_site_fract_z
_atom_site_charge
Mof_Sm	Sm	0.33333	0.66666	0.75	2.329
Mof_Sm	Sm	0.66667	0.33334	0.75	2.329
Mof_Sm	Sm	0.66667	0.33334	0.25	2.304
Mof_Sm	Sm	0.33333	0.66666	0.25	2.303
Mof_Co	Co	0.5	0.5	0.5	1.164
Mof_Co	Co	1.16182e-17	0.5	0.5	1.127
Mof_Co	Co	0.5	-8.10438e-33	0.5	1.127
Mof_Co	Co	-0	0.5	-0	1.061
Mof_Co	Co	0.5	0.5	-0	1.098
Mof_Co	Co	0.5	0	-0	1.061
Mof_H 	H 	0.2336	0.2871	0.6553	0.039
Mof_H 	H 	0.0535	0.7664	0.6553	0.031
Mof_H 	H 	0.7129	0.9465	0.6553	0.071
Mof_H 	H 	0.7664	0.7129	0.6553	0.055
Mof_H 	H 	0.9465	0.2336	0.6553	0.063
Mof_H 	H 	0.2871	0.0535	0.6553	0.023
Mof_H 	H 	0.9465	0.7129	0.8447	0.091
Mof_H 	H 	0.2871	0.2336	0.8447	0.06
Mof_H 	H 	0.7664	0.0535	0.8447	0.052
Mof_H 	H 	0.0535	0.2871	0.8447	0.045
Mof_H 	H 	0.7129	0.7664	0.8447	0.076
Mof_H 	H 	0.2336	0.9465	0.8447	0.083
Mof_H 	H 	0.7664	0.7129	0.3447	0.052
Mof_H 	H 	0.9465	0.2336	0.3447	0.06
Mof_H 	H 	0.2871	0.0535	0.3447	0.02
Mof_H 	H 	0.2336	0.2871	0.3447	0.035
Mof_H 	H 	0.0535	0.7664	0.3447	0.028
Mof_H 	H 	0.7129	0.9465	0.3447	0.068
Mof_H 	H 	0.0535	0.2871	0.1553	0.001
Mof_H 	H 	0.7129	0.7664	0.1553	0.033
Mof_H 	H 	0.2336	0.9465	0.1553	0.042
Mof_H 	H 	0.9465	0.7129	0.1553	0.049
Mof_H 	H 	0.2871	0.2336	0.1553	0.016
Mof_H 	H 	0.7664	0.0535	0.1553	0.009
Mof_H 	H 	0.10015	0.2003	0.75	0.019
Mof_H 	H 	0.10015	0.89985	0.75	0.045
Mof_H 	H 	0.7997	0.89985	0.75	0.071
Mof_H 	H 	0.89985	0.7997	0.75	0.071
Mof_H 	H 	0.89985	0.10015	0.75	0.044
Mof_H 	H 	0.2003	0.10015	0.75	0.019
Mof_H 	H 	0.89985	0.7997	0.25	0.066
Mof_H 	H 	0.89985	0.10015	0.25	0.04
Mof_H 	H 	0.2003	0.10015	0.25	0.013
Mof_H 	H 	0.10015	0.2003	0.25	0.013
Mof_H 	H 	0.10015	0.89985	0.25	0.04
Mof_H 	H 	0.7997	0.89985	0.25	0.066
Mof_C 	C 	0.3541	0.49	0.6384	0.375
Mof_C 	C 	0.2648	0.4248	0.6964	-0.042
Mof_C 	C 	0.2145	0.3214	0.6939	-0.029
Mof_C 	C 	0.1359	0.6459	0.6384	0.378
Mof_C 	C 	0.16	0.7352	0.6964	-0.043
Mof_C 	C 	0.1069	0.7855	0.6939	-0.024
Mof_C 	C 	0.51	0.8641	0.6384	0.372
Mof_C 	C 	0.5752	0.84	0.6964	-0.022
Mof_C 	C 	0.6786	0.8931	0.6939	-0.019
Mof_C 	C 	0.6459	0.51	0.6384	0.377
Mof_C 	C 	0.7352	0.5752	0.6964	-0.031
Mof_C 	C 	0.7855	0.6786	0.6939	-0.018
Mof_C 	C 	0.8641	0.3541	0.6384	0.371
Mof_C 	C 	0.84	0.2648	0.6964	-0.028
Mof_C 	C 	0.8931	0.2145	0.6939	-0.024
Mof_C 	C 	0.49	0.1359	0.6384	0.377
Mof_C 	C 	0.4248	0.16	0.6964	-0.048
Mof_C 	C 	0.3214	0.1069	0.6939	-0.029
Mof_C 	C 	0.8641	0.51	0.8616	0.367
Mof_C 	C 	0.84	0.5752	0.8036	-0.008
Mof_C 	C 	0.8931	0.6786	0.8061	-0.02
Mof_C 	C 	0.49	0.3541	0.8616	0.369
Mof_C 	C 	0.4248	0.2648	0.8036	-0.027
Mof_C 	C 	0.3214	0.2145	0.8061	-0.031
Mof_C 	C 	0.6459	0.1359	0.8616	0.372
Mof_C 	C 	0.7352	0.16	0.8036	-0.028
Mof_C 	C 	0.7855	0.1069	0.8061	-0.026
Mof_C 	C 	0.1359	0.49	0.8616	0.371
Mof_C 	C 	0.16	0.4248	0.8036	-0.034
Mof_C 	C 	0.1069	0.3214	0.8061	-0.031
Mof_C 	C 	0.51	0.6459	0.8616	0.372
Mof_C 	C 	0.5752	0.7352	0.8036	-0.016
Mof_C 	C 	0.6786	0.7855	0.8061	-0.02
Mof_C 	C 	0.3541	0.8641	0.8616	0.366
Mof_C 	C 	0.2648	0.84	0.8036	-0.013
Mof_C 	C 	0.2145	0.8931	0.8061	-0.026
Mof_C 	C 	0.6459	0.51	0.3616	0.379
Mof_C 	C 	0.7352	0.5752	0.3036	-0.038
Mof_C 	C 	0.7855	0.6786	0.3061	-0.009
Mof_C 	C 	0.8641	0.3541	0.3616	0.372
Mof_C 	C 	0.84	0.2648	0.3036	-0.035
Mof_C 	C 	0.8931	0.2145	0.3061	-0.015
Mof_C 	C 	0.49	0.1359	0.3616	0.378
Mof_C 	C 	0.4248	0.16	0.3036	-0.057
Mof_C 	C 	0.3214	0.1069	0.3061	-0.02
Mof_C 	C 	0.3541	0.49	0.3616	0.376
Mof_C 	C 	0.2648	0.4248	0.3036	-0.05
Mof_C 	C 	0.2145	0.3214	0.3061	-0.02
Mof_C 	C 	0.1359	0.6459	0.3616	0.379
Mof_C 	C 	0.16	0.7352	0.3036	-0.051
Mof_C 	C 	0.1069	0.7855	0.3061	-0.015
Mof_C 	C 	0.51	0.8641	0.3616	0.373
Mof_C 	C 	0.5752	0.84	0.3036	-0.03
Mof_C 	C 	0.6786	0.8931	0.3061	-0.009
Mof_C 	C 	0.1359	0.49	0.1384	0.378
Mof_C 	C 	0.16	0.4248	0.1964	-0.068
Mof_C 	C 	0.1069	0.3214	0.1939	-0.02
Mof_C 	C 	0.51	0.6459	0.1384	0.378
Mof_C 	C 	0.5752	0.7352	0.1964	-0.05
Mof_C 	C 	0.6786	0.7855	0.1939	-0.008
Mof_C 	C 	0.3541	0.8641	0.1384	0.372
Mof_C 	C 	0.2648	0.84	0.1964	-0.047
Mof_C 	C 	0.2145	0.8931	0.1939	-0.014
Mof_C 	C 	0.8641	0.51	0.1384	0.373
Mof_C 	C 	0.84	0.5752	0.1964	-0.041
Mof_C 	C 	0.8931	0.6786	0.1939	-0.009
Mof_C 	C 	0.49	0.3541	0.1384	0.376
Mof_C 	C 	0.4248	0.2648	0.1964	-0.061
Mof_C 	C 	0.3214	0.2145	0.1939	-0.019
Mof_C 	C 	0.6459	0.1359	0.1384	0.379
Mof_C 	C 	0.7352	0.16	0.1964	-0.062
Mof_C 	C 	0.7855	0.1069	0.1939	-0.014
Mof_C 	C 	0.1349	0.2698	0.75	-0.049
Mof_C 	C 	0.1349	0.8651	0.75	-0.039
Mof_C 	C 	0.7302	0.8651	0.75	-0.029
Mof_C 	C 	0.8651	0.7302	0.75	-0.029
Mof_C 	C 	0.8651	0.1349	0.75	-0.039
Mof_C 	C 	0.2698	0.1349	0.75	-0.049
Mof_C 	C 	0.8651	0.7302	0.25	-0.052
Mof_C 	C 	0.8651	0.1349	0.25	-0.062
Mof_C 	C 	0.2698	0.1349	0.25	-0.073
Mof_C 	C 	0.1349	0.2698	0.25	-0.073
Mof_C 	C 	0.1349	0.8651	0.25	-0.062
Mof_C 	C 	0.7302	0.8651	0.25	-0.052
Mof_N 	N 	0.2379	0.4758	0.75	-0.213
Mof_N 	N 	0.2379	0.7621	0.75	-0.213
Mof_N 	N 	0.5242	0.7621	0.75	-0.213
Mof_N 	N 	0.7621	0.5242	0.75	-0.213
Mof_N 	N 	0.7621	0.2379	0.75	-0.213
Mof_N 	N 	0.4758	0.2379	0.75	-0.213
Mof_N 	N 	0.7621	0.5242	0.25	-0.209
Mof_N 	N 	0.7621	0.2379	0.25	-0.209
Mof_N 	N 	0.4758	0.2379	0.25	-0.209
Mof_N 	N 	0.2379	0.4758	0.25	-0.209
Mof_N 	N 	0.2379	0.7621	0.25	-0.209
Mof_N 	N 	0.5242	0.7621	0.25	-0.208
Mof_O 	O 	0.3877	0.5846	0.6426	-0.498
Mof_O 	O 	0.387	0.4463	0.5931	-0.436
Mof_O 	O 	0.1969	0.6123	0.6426	-0.506
Mof_O 	O 	0.0593	0.613	0.5931	-0.457
Mof_O 	O 	0.4154	0.8031	0.6426	-0.485
Mof_O 	O 	0.5537	0.9407	0.5931	-0.391
Mof_O 	O 	0.6123	0.4154	0.6426	-0.497
Mof_O 	O 	0.613	0.5537	0.5931	-0.43
Mof_O 	O 	0.8031	0.3877	0.6426	-0.485
Mof_O 	O 	0.9407	0.387	0.5931	-0.394
Mof_O 	O 	0.5846	0.1969	0.6426	-0.507
Mof_O 	O 	0.4463	0.0593	0.5931	-0.46
Mof_O 	O 	0.8031	0.4154	0.8574	-0.454
Mof_O 	O 	0.9407	0.5537	0.9069	-0.329
Mof_O 	O 	0.5846	0.3877	0.8574	-0.467
Mof_O 	O 	0.4463	0.387	0.9069	-0.371
Mof_O 	O 	0.6123	0.1969	0.8574	-0.474
Mof_O 	O 	0.613	0.0593	0.9069	-0.393
Mof_O 	O 	0.1969	0.5846	0.8574	-0.476
Mof_O 	O 	0.0593	0.4463	0.9069	-0.396
Mof_O 	O 	0.4154	0.6123	0.8574	-0.465
Mof_O 	O 	0.5537	0.613	0.9069	-0.366
Mof_O 	O 	0.3877	0.8031	0.8574	-0.454
Mof_O 	O 	0.387	0.9407	0.9069	-0.332
Mof_O 	O 	0.6123	0.4154	0.3574	-0.494
Mof_O 	O 	0.613	0.5537	0.4069	-0.43
Mof_O 	O 	0.8031	0.3877	0.3574	-0.483
Mof_O 	O 	0.9407	0.387	0.4069	-0.394
Mof_O 	O 	0.5846	0.1969	0.3574	-0.505
Mof_O 	O 	0.4463	0.0593	0.4069	-0.461
Mof_O 	O 	0.3877	0.5846	0.3574	-0.496
Mof_O 	O 	0.387	0.4463	0.4069	-0.436
Mof_O 	O 	0.1969	0.6123	0.3574	-0.504
Mof_O 	O 	0.0593	0.613	0.4069	-0.458
Mof_O 	O 	0.4154	0.8031	0.3574	-0.482
Mof_O 	O 	0.5537	0.9407	0.4069	-0.391
Mof_O 	O 	0.1969	0.5846	0.1426	-0.528
Mof_O 	O 	0.0593	0.4463	0.0931	-0.498
Mof_O 	O 	0.4154	0.6123	0.1426	-0.518
Mof_O 	O 	0.5537	0.613	0.0931	-0.467
Mof_O 	O 	0.3877	0.8031	0.1426	-0.506
Mof_O 	O 	0.387	0.9407	0.0931	-0.431
Mof_O 	O 	0.8031	0.4154	0.1426	-0.505
Mof_O 	O 	0.9407	0.5537	0.0931	-0.428
Mof_O 	O 	0.5846	0.3877	0.1426	-0.52
Mof_O 	O 	0.4463	0.387	0.0931	-0.474
Mof_O 	O 	0.6123	0.1969	0.1426	-0.527
Mof_O 	O 	0.613	0.0593	0.0931	-0.495
_end
