data_functionalizedCrystal
_audit_creation_method	'EQeq! by Chris Wilmer'
_symmetry_space_group_name_H-M	'P1'
_symmetry_Int_Tables_number	1
_symmetry_cell_setting	triclinic
loop_
_symmetry_equiv_pos_as_xyz
  x,y,z
_cell_length_a	16.9981
_cell_length_b	16.9981
_cell_length_c	17.12
_cell_angle_alpha	95.4935
_cell_angle_beta	95.4935
_cell_angle_gamma	95.768
loop_
_atom_site_label
_atom_site_type_symbol
_atom_site_fract_x
_atom_site_fract_y
_atom_site_fract_z
_atom_site_charge
Mof_Zn	Zn	0.90334	0.78615	0.67814	1.247
Mof_Zn	Zn	0.78515	0.9026	0.67592	1.246
Mof_Zn	Zn	0.91548	0.91865	0.81228	1.24
Mof_Zn	Zn	0.78356	0.78465	0.79549	1.247
Mof_H 	H 	0.13111	0.8122	0.62825	0.034
Mof_H 	H 	0.27401	0.8114	0.62538	0.048
Mof_H 	H 	0.31414	0.9255	0.86398	0.047
Mof_H 	H 	0.16976	0.9277	0.86668	0.035
Mof_H 	H 	0.39769	0.90895	0.62943	0.047
Mof_H 	H 	0.53925	0.89649	0.62344	0.033
Mof_H 	H 	0.55067	0.80076	0.84835	0.033
Mof_H 	H 	0.40906	0.8144	0.85462	0.048
Mof_H 	H 	0.79928	0.95256	0.29976	0.049
Mof_H 	H 	0.79	0.94875	0.44128	0.031
Mof_H 	H 	0.81268	0.13162	0.62498	0.033
Mof_H 	H 	0.81189	0.27463	0.62169	0.047
Mof_H 	H 	0.90503	0.3139	0.86726	0.048
Mof_H 	H 	0.90689	0.16972	0.87051	0.03
Mof_H 	H 	0.90956	0.39845	0.63345	0.048
Mof_H 	H 	0.90068	0.54065	0.62751	0.033
Mof_H 	H 	0.7871	0.55075	0.84272	0.033
Mof_H 	H 	0.79698	0.40863	0.84892	0.047
Mof_H 	H 	0.90603	0.73267	0.291	0.049
Mof_H 	H 	0.89792	0.72924	0.43287	0.033
Mof_C 	C 	0.05093	0.86412	0.74956	0.403
Mof_C 	C 	0.13878	0.8693	0.74805	-0.122
Mof_C 	C 	0.17017	0.8376	0.68017	0.032
Mof_C 	C 	0.25218	0.83745	0.67824	-0.07
Mof_C 	C 	0.30534	0.86789	0.74453	0.023
Mof_C 	C 	0.27444	0.90089	0.81225	-0.07
Mof_C 	C 	0.19197	0.90248	0.81368	0.03
Mof_C 	C 	0.39232	0.86302	0.74268	0.023
Mof_C 	C 	0.43053	0.88524	0.67754	-0.07
Mof_C 	C 	0.51159	0.878	0.67411	0.031
Mof_C 	C 	0.5563	0.84693	0.73507	-0.123
Mof_C 	C 	0.5179	0.82415	0.80002	0.03
Mof_C 	C 	0.43705	0.83277	0.80409	-0.07
Mof_C 	C 	0.64323	0.84244	0.73289	0.401
Mof_C 	C 	0.82093	0.90348	0.3282	-0.071
Mof_C 	C 	0.81502	0.9009	0.40921	0.03
Mof_C 	C 	0.85605	0.0515	0.7493	0.406
Mof_C 	C 	0.85929	0.13916	0.74825	-0.128
Mof_C 	C 	0.83325	0.1706	0.67838	0.033
Mof_C 	C 	0.83321	0.2526	0.67625	-0.071
Mof_C 	C 	0.85805	0.30549	0.74423	0.024
Mof_C 	C 	0.88487	0.27441	0.81413	-0.071
Mof_C 	C 	0.88631	0.19207	0.81591	0.031
Mof_C 	C 	0.85428	0.39247	0.74185	0.024
Mof_C 	C 	0.88257	0.43114	0.67934	-0.07
Mof_C 	C 	0.87746	0.51255	0.67597	0.032
Mof_C 	C 	0.84262	0.55706	0.7343	-0.125
Mof_C 	C 	0.81364	0.51815	0.79645	0.031
Mof_C 	C 	0.82001	0.43698	0.80051	-0.07
Mof_C 	C 	0.8402	0.64422	0.73262	0.404
Mof_C 	C 	0.83237	0.78029	0.0625	0.03
Mof_C 	C 	0.83171	0.77718	0.14403	-0.069
Mof_C 	C 	0.88697	0.91482	0.16721	-0.069
Mof_C 	C 	0.88944	0.91763	0.0856	0.032
Mof_C 	C 	0.88019	0.77988	0.32318	-0.069
Mof_C 	C 	0.87562	0.77804	0.40451	0.03
Mof_C 	C 	0.85763	0.85334	0.94477	0.399
Mof_C 	C 	0.86083	0.85062	0.03201	-0.12
Mof_C 	C 	0.85788	0.84481	0.19741	0.025
Mof_C 	C 	0.85323	0.84281	0.28404	0.024
Mof_C 	C 	0.8426	0.83832	0.44865	-0.123
Mof_C 	C 	0.84047	0.83812	0.53578	0.402
Mof_O 	O 	0.01982	0.90964	0.7987	-0.514
Mof_O 	O 	0.00794	0.81304	0.70026	-0.529
Mof_O 	O 	0.67931	0.79881	0.77763	-0.523
Mof_O 	O 	0.88573	0.68196	0.69075	-0.527
Mof_O 	O 	0.88417	0.79506	0.57364	-0.525
Mof_O 	O 	0.90007	0.02156	0.80054	-0.522
Mof_O 	O 	0.80896	0.00751	0.69721	-0.528
Mof_O 	O 	0.79459	0.68031	0.7749	-0.525
Mof_O 	O 	0.68079	0.88441	0.68782	-0.526
Mof_O 	O 	0.79697	0.88284	0.57192	-0.524
Mof_O 	O 	0.84718	0.84827	0.7408	-1.02
Mof_O 	O 	0.90384	0.90376	0.9154	-0.518
Mof_O 	O 	0.80771	0.80401	0.90039	-0.528
Mof_Zn	Zn	0.21385	0.09666	0.32186	1.248
Mof_Zn	Zn	0.0974	0.21485	0.32408	1.247
Mof_Zn	Zn	0.08135	0.08452	0.18772	1.241
Mof_Zn	Zn	0.21535	0.21644	0.20451	1.248
Mof_H 	H 	0.1878	0.86889	0.37175	0.034
Mof_H 	H 	0.1886	0.72599	0.37462	0.048
Mof_H 	H 	0.0745	0.68586	0.13602	0.047
Mof_H 	H 	0.0723	0.83024	0.13332	0.035
Mof_H 	H 	0.09105	0.60231	0.37057	0.047
Mof_H 	H 	0.10351	0.46075	0.37656	0.033
Mof_H 	H 	0.19924	0.44933	0.15165	0.033
Mof_H 	H 	0.1856	0.59094	0.14538	0.048
Mof_H 	H 	0.04744	0.20072	0.70024	0.049
Mof_H 	H 	0.05125	0.21	0.55872	0.031
Mof_H 	H 	0.86838	0.18732	0.37502	0.033
Mof_H 	H 	0.72537	0.18811	0.37831	0.047
Mof_H 	H 	0.6861	0.09497	0.13274	0.048
Mof_H 	H 	0.83028	0.09311	0.12949	0.03
Mof_H 	H 	0.60155	0.09044	0.36655	0.048
Mof_H 	H 	0.45935	0.09932	0.37249	0.033
Mof_H 	H 	0.44925	0.2129	0.15728	0.033
Mof_H 	H 	0.59137	0.20302	0.15108	0.047
Mof_H 	H 	0.26733	0.09397	0.709	0.049
Mof_H 	H 	0.27076	0.10208	0.56713	0.033
Mof_C 	C 	0.13588	0.94907	0.25044	0.403
Mof_C 	C 	0.1307	0.86122	0.25195	-0.122
Mof_C 	C 	0.1624	0.82983	0.31983	0.032
Mof_C 	C 	0.16255	0.74782	0.32176	-0.07
Mof_C 	C 	0.13211	0.69466	0.25547	0.023
Mof_C 	C 	0.09911	0.72556	0.18775	-0.07
Mof_C 	C 	0.09752	0.80803	0.18632	0.03
Mof_C 	C 	0.13698	0.60768	0.25732	0.023
Mof_C 	C 	0.11476	0.56947	0.32246	-0.07
Mof_C 	C 	0.122	0.48841	0.32589	0.031
Mof_C 	C 	0.15307	0.4437	0.26493	-0.123
Mof_C 	C 	0.17585	0.4821	0.19998	0.03
Mof_C 	C 	0.16723	0.56295	0.19591	-0.07
Mof_C 	C 	0.15756	0.35677	0.26711	0.401
Mof_C 	C 	0.09652	0.17907	0.6718	-0.071
Mof_C 	C 	0.0991	0.18498	0.59079	0.03
Mof_C 	C 	0.9485	0.14395	0.2507	0.406
Mof_C 	C 	0.86084	0.14071	0.25175	-0.128
Mof_C 	C 	0.8294	0.16675	0.32162	0.033
Mof_C 	C 	0.7474	0.16679	0.32375	-0.071
Mof_C 	C 	0.69451	0.14195	0.25577	0.024
Mof_C 	C 	0.72559	0.11513	0.18587	-0.071
Mof_C 	C 	0.80793	0.11369	0.18409	0.031
Mof_C 	C 	0.60753	0.14572	0.25815	0.024
Mof_C 	C 	0.56886	0.11743	0.32066	-0.07
Mof_C 	C 	0.48745	0.12254	0.32403	0.032
Mof_C 	C 	0.44294	0.15738	0.2657	-0.125
Mof_C 	C 	0.48185	0.18636	0.20355	0.031
Mof_C 	C 	0.56302	0.17999	0.19949	-0.07
Mof_C 	C 	0.35578	0.1598	0.26738	0.404
Mof_C 	C 	0.21971	0.16763	0.9375	0.03
Mof_C 	C 	0.22282	0.16829	0.85597	-0.069
Mof_C 	C 	0.08518	0.11303	0.83279	-0.069
Mof_C 	C 	0.08237	0.11056	0.9144	0.032
Mof_C 	C 	0.22012	0.11981	0.67682	-0.069
Mof_C 	C 	0.22196	0.12438	0.59549	0.03
Mof_C 	C 	0.14666	0.14237	0.05523	0.399
Mof_C 	C 	0.14938	0.13917	0.96799	-0.12
Mof_C 	C 	0.15519	0.14212	0.80259	0.025
Mof_C 	C 	0.15719	0.14677	0.71596	0.024
Mof_C 	C 	0.16168	0.1574	0.55135	-0.123
Mof_C 	C 	0.16188	0.15953	0.46422	0.402
Mof_O 	O 	0.09036	0.98018	0.2013	-0.514
Mof_O 	O 	0.18696	0.99206	0.29974	-0.529
Mof_O 	O 	0.20119	0.32069	0.22237	-0.523
Mof_O 	O 	0.31804	0.11427	0.30925	-0.527
Mof_O 	O 	0.20494	0.11583	0.42636	-0.525
Mof_O 	O 	0.97844	0.09993	0.19946	-0.522
Mof_O 	O 	0.99249	0.19104	0.30279	-0.528
Mof_O 	O 	0.31969	0.20541	0.2251	-0.525
Mof_O 	O 	0.11559	0.31921	0.31218	-0.526
Mof_O 	O 	0.11716	0.20303	0.42808	-0.524
Mof_O 	O 	0.15173	0.15282	0.2592	-1.02
Mof_O 	O 	0.09624	0.09616	0.0846	-0.518
Mof_O 	O 	0.19599	0.19229	0.09961	-0.528
Mof_H 	H 	0.81035	0.72734	0.0231	0.033
Mof_H 	H 	0.8087	0.72235	0.16528	0.048
Mof_H 	H 	0.90792	0.96714	0.20737	0.056
Mof_H 	H 	0.91182	0.97269	0.06436	0.035
Mof_H 	H 	0.27266	0.18965	0.9769	0.033
Mof_H 	H 	0.27765	0.1913	0.83472	0.048
Mof_H 	H 	0.03286	0.09208	0.79263	0.056
Mof_H 	H 	0.02731	0.08818	0.93564	0.035
_end
