data_functionalizedCrystal
_audit_creation_method	'EQeq! by Chris Wilmer'
_symmetry_space_group_name_H-M	'P1'
_symmetry_Int_Tables_number	1
_symmetry_cell_setting	triclinic
loop_
_symmetry_equiv_pos_as_xyz
  x,y,z
_cell_length_a	25.098
_cell_length_b	25.098
_cell_length_c	28.4464
_cell_angle_alpha	90
_cell_angle_beta	90
_cell_angle_gamma	120
loop_
_atom_site_label
_atom_site_type_symbol
_atom_site_fract_x
_atom_site_fract_y
_atom_site_fract_z
_atom_site_charge
Mof_O 	O 	0.69687	0.16153	0.07891	-0.496
Mof_O 	O 	0.63641	0.19327	0.05136	-0.472
Mof_C 	C 	0.66075	0.18251	0.08539	0.33
Mof_C 	C 	0.6465	0.1934	0.13425	-0.079
Mof_C 	C 	0.6733	0.1814	0.17242	0.02
Mof_H 	H 	0.7024	0.1693	0.1676	0.045
Mof_C 	C 	0.6064	0.2148	0.1419	0.024
Mof_H 	H 	0.5899	0.225	0.1165	0.047
Mof_C 	C 	0.6563	0.1874	0.21798	-0.098
Mof_H 	H 	0.6737	0.1785	0.2435	0.07
Mof_C 	C 	0.5904	0.2213	0.18737	-0.098
Mof_H 	H 	0.5632	0.2358	0.1921	0.071
Mof_C 	C 	0.6142	0.2065	0.22557	0.042
Mof_O 	O 	0.83847	0.53534	0.07891	-0.497
Mof_O 	O 	0.80673	0.44314	0.05136	-0.473
Mof_C 	C 	0.81749	0.47824	0.08539	0.329
Mof_C 	C 	0.8066	0.4531	0.13425	-0.08
Mof_C 	C 	0.8186	0.4919	0.17242	0.019
Mof_H 	H 	0.8307	0.5331	0.1676	0.044
Mof_C 	C 	0.7852	0.3916	0.1419	0.023
Mof_H 	H 	0.775	0.3649	0.1165	0.046
Mof_C 	C 	0.8126	0.4689	0.21798	-0.099
Mof_H 	H 	0.8215	0.4952	0.2435	0.069
Mof_C 	C 	0.7787	0.3691	0.18737	-0.099
Mof_H 	H 	0.7642	0.3274	0.1921	0.07
Mof_C 	C 	0.7935	0.4077	0.22557	0.042
Mof_O 	O 	0.46466	0.30313	0.07891	-0.497
Mof_O 	O 	0.55686	0.36359	0.05136	-0.473
Mof_C 	C 	0.52176	0.33925	0.08539	0.329
Mof_C 	C 	0.5469	0.3535	0.13425	-0.08
Mof_C 	C 	0.5081	0.3267	0.17242	0.019
Mof_H 	H 	0.4669	0.2976	0.1676	0.044
Mof_C 	C 	0.6084	0.3936	0.1419	0.023
Mof_H 	H 	0.6351	0.4101	0.1165	0.046
Mof_C 	C 	0.5311	0.3437	0.21798	-0.099
Mof_H 	H 	0.5048	0.3263	0.2435	0.069
Mof_C 	C 	0.6309	0.4096	0.18737	-0.099
Mof_H 	H 	0.6726	0.4368	0.1921	0.07
Mof_C 	C 	0.5923	0.3858	0.22557	0.042
Mof_O 	O 	0.30313	0.83847	0.07891	-0.497
Mof_O 	O 	0.36359	0.80673	0.05136	-0.473
Mof_C 	C 	0.33925	0.81749	0.08539	0.329
Mof_C 	C 	0.3535	0.8066	0.13425	-0.08
Mof_C 	C 	0.3267	0.8186	0.17242	0.019
Mof_H 	H 	0.2976	0.8307	0.1676	0.044
Mof_C 	C 	0.3936	0.7852	0.1419	0.023
Mof_H 	H 	0.4101	0.775	0.1165	0.046
Mof_C 	C 	0.3437	0.8126	0.21798	-0.099
Mof_H 	H 	0.3263	0.8215	0.2435	0.069
Mof_C 	C 	0.4096	0.7787	0.18737	-0.099
Mof_H 	H 	0.4368	0.7642	0.1921	0.07
Mof_C 	C 	0.3858	0.7935	0.22557	0.042
Mof_O 	O 	0.16153	0.46466	0.07891	-0.497
Mof_O 	O 	0.19327	0.55686	0.05136	-0.473
Mof_C 	C 	0.18251	0.52176	0.08539	0.329
Mof_C 	C 	0.1934	0.5469	0.13425	-0.08
Mof_C 	C 	0.1814	0.5081	0.17242	0.019
Mof_H 	H 	0.1693	0.4669	0.1676	0.044
Mof_C 	C 	0.2148	0.6084	0.1419	0.023
Mof_H 	H 	0.225	0.6351	0.1165	0.046
Mof_C 	C 	0.1874	0.5311	0.21798	-0.099
Mof_H 	H 	0.1785	0.5048	0.2435	0.069
Mof_C 	C 	0.2213	0.6309	0.18737	-0.099
Mof_H 	H 	0.2358	0.6726	0.1921	0.07
Mof_C 	C 	0.2065	0.5923	0.22557	0.042
Mof_O 	O 	0.53534	0.69687	0.07891	-0.497
Mof_O 	O 	0.44314	0.63641	0.05136	-0.473
Mof_C 	C 	0.47824	0.66075	0.08539	0.329
Mof_C 	C 	0.4531	0.6465	0.13425	-0.08
Mof_C 	C 	0.4919	0.6733	0.17242	0.019
Mof_H 	H 	0.5331	0.7024	0.1676	0.044
Mof_C 	C 	0.3916	0.6064	0.1419	0.023
Mof_H 	H 	0.3649	0.5899	0.1165	0.046
Mof_C 	C 	0.4689	0.6563	0.21798	-0.099
Mof_H 	H 	0.4952	0.6737	0.2435	0.069
Mof_C 	C 	0.3691	0.5904	0.18737	-0.099
Mof_H 	H 	0.3274	0.5632	0.1921	0.07
Mof_C 	C 	0.4077	0.6142	0.22557	0.042
Mof_O 	O 	0.16153	0.69687	0.42109	-0.507
Mof_O 	O 	0.19327	0.63641	0.44864	-0.474
Mof_C 	C 	0.18251	0.66075	0.41461	0.327
Mof_C 	C 	0.1934	0.6465	0.36575	-0.078
Mof_C 	C 	0.1814	0.6733	0.32758	0.017
Mof_H 	H 	0.1693	0.7024	0.3324	0.045
Mof_C 	C 	0.2148	0.6064	0.3581	0.021
Mof_H 	H 	0.225	0.5899	0.3835	0.048
Mof_C 	C 	0.1874	0.6563	0.28202	-0.097
Mof_H 	H 	0.1785	0.6737	0.2565	0.069
Mof_C 	C 	0.2213	0.5904	0.31263	-0.097
Mof_H 	H 	0.2358	0.5632	0.3079	0.07
Mof_C 	C 	0.2065	0.6142	0.27443	0.04
Mof_O 	O 	0.53534	0.83847	0.42109	-0.507
Mof_O 	O 	0.44314	0.80673	0.44864	-0.474
Mof_C 	C 	0.47824	0.81749	0.41461	0.327
Mof_C 	C 	0.4531	0.8066	0.36575	-0.078
Mof_C 	C 	0.4919	0.8186	0.32758	0.017
Mof_H 	H 	0.5331	0.8307	0.3324	0.045
Mof_C 	C 	0.3916	0.7852	0.3581	0.021
Mof_H 	H 	0.3649	0.775	0.3835	0.048
Mof_C 	C 	0.4689	0.8126	0.28202	-0.097
Mof_H 	H 	0.4952	0.8215	0.2565	0.069
Mof_C 	C 	0.3691	0.7787	0.31263	-0.097
Mof_H 	H 	0.3274	0.7642	0.3079	0.07
Mof_C 	C 	0.4077	0.7935	0.27443	0.04
Mof_O 	O 	0.30313	0.46466	0.42109	-0.507
Mof_O 	O 	0.36359	0.55686	0.44864	-0.474
Mof_C 	C 	0.33925	0.52176	0.41461	0.327
Mof_C 	C 	0.3535	0.5469	0.36575	-0.078
Mof_C 	C 	0.3267	0.5081	0.32758	0.017
Mof_H 	H 	0.2976	0.4669	0.3324	0.045
Mof_C 	C 	0.3936	0.6084	0.3581	0.021
Mof_H 	H 	0.4101	0.6351	0.3835	0.048
Mof_C 	C 	0.3437	0.5311	0.28202	-0.097
Mof_H 	H 	0.3263	0.5048	0.2565	0.069
Mof_C 	C 	0.4096	0.6309	0.31263	-0.097
Mof_H 	H 	0.4368	0.6726	0.3079	0.07
Mof_C 	C 	0.3858	0.5923	0.27443	0.04
Mof_O 	O 	0.83847	0.30313	0.42109	-0.507
Mof_O 	O 	0.80673	0.36359	0.44864	-0.474
Mof_C 	C 	0.81749	0.33925	0.41461	0.327
Mof_C 	C 	0.8066	0.3535	0.36575	-0.078
Mof_C 	C 	0.8186	0.3267	0.32758	0.017
Mof_H 	H 	0.8307	0.2976	0.3324	0.045
Mof_C 	C 	0.7852	0.3936	0.3581	0.021
Mof_H 	H 	0.775	0.4101	0.3835	0.048
Mof_C 	C 	0.8126	0.3437	0.28202	-0.097
Mof_H 	H 	0.8215	0.3263	0.2565	0.069
Mof_C 	C 	0.7787	0.4096	0.31263	-0.097
Mof_H 	H 	0.7642	0.4368	0.3079	0.07
Mof_C 	C 	0.7935	0.3858	0.27443	0.04
Mof_O 	O 	0.46466	0.16153	0.42109	-0.507
Mof_O 	O 	0.55686	0.19327	0.44864	-0.474
Mof_C 	C 	0.52176	0.18251	0.41461	0.327
Mof_C 	C 	0.5469	0.1934	0.36575	-0.078
Mof_C 	C 	0.5081	0.1814	0.32758	0.017
Mof_H 	H 	0.4669	0.1693	0.3324	0.045
Mof_C 	C 	0.6084	0.2148	0.3581	0.021
Mof_H 	H 	0.6351	0.225	0.3835	0.048
Mof_C 	C 	0.5311	0.1874	0.28202	-0.097
Mof_H 	H 	0.5048	0.1785	0.2565	0.069
Mof_C 	C 	0.6309	0.2213	0.31263	-0.097
Mof_H 	H 	0.6726	0.2358	0.3079	0.07
Mof_C 	C 	0.5923	0.2065	0.27443	0.04
Mof_O 	O 	0.69687	0.53534	0.42109	-0.507
Mof_O 	O 	0.63641	0.44314	0.44864	-0.474
Mof_C 	C 	0.66075	0.47824	0.41461	0.327
Mof_C 	C 	0.6465	0.4531	0.36575	-0.078
Mof_C 	C 	0.6733	0.4919	0.32758	0.017
Mof_H 	H 	0.7024	0.5331	0.3324	0.045
Mof_C 	C 	0.6064	0.3916	0.3581	0.021
Mof_H 	H 	0.5899	0.3649	0.3835	0.048
Mof_C 	C 	0.6563	0.4689	0.28202	-0.097
Mof_H 	H 	0.6737	0.4952	0.2565	0.069
Mof_C 	C 	0.5904	0.3691	0.31263	-0.097
Mof_H 	H 	0.5632	0.3274	0.3079	0.07
Mof_C 	C 	0.6142	0.4077	0.27443	0.04
Mof_O 	O 	0.30313	0.83847	0.92109	-0.459
Mof_O 	O 	0.36359	0.80673	0.94864	-0.422
Mof_C 	C 	0.33925	0.81749	0.91461	0.317
Mof_C 	C 	0.3535	0.8066	0.86575	-0.058
Mof_C 	C 	0.3267	0.8186	0.82758	0.007
Mof_H 	H 	0.2976	0.8307	0.8324	0.056
Mof_C 	C 	0.3936	0.7852	0.8581	0.009
Mof_H 	H 	0.4101	0.775	0.8835	0.062
Mof_C 	C 	0.3437	0.8126	0.78202	-0.085
Mof_H 	H 	0.3263	0.8215	0.7565	0.067
Mof_C 	C 	0.4096	0.7787	0.81263	-0.084
Mof_H 	H 	0.4368	0.7642	0.8079	0.068
Mof_C 	C 	0.3858	0.7935	0.77443	0.033
Mof_O 	O 	0.16153	0.46466	0.92109	-0.459
Mof_O 	O 	0.19327	0.55686	0.94864	-0.421
Mof_C 	C 	0.18251	0.52176	0.91461	0.317
Mof_C 	C 	0.1934	0.5469	0.86575	-0.058
Mof_C 	C 	0.1814	0.5081	0.82758	0.007
Mof_H 	H 	0.1693	0.4669	0.8324	0.056
Mof_C 	C 	0.2148	0.6084	0.8581	0.009
Mof_H 	H 	0.225	0.6351	0.8835	0.062
Mof_C 	C 	0.1874	0.5311	0.78202	-0.085
Mof_H 	H 	0.1785	0.5048	0.7565	0.067
Mof_C 	C 	0.2213	0.6309	0.81263	-0.084
Mof_H 	H 	0.2358	0.6726	0.8079	0.068
Mof_C 	C 	0.2065	0.5923	0.77443	0.033
Mof_O 	O 	0.53534	0.69687	0.92109	-0.459
Mof_O 	O 	0.44314	0.63641	0.94864	-0.421
Mof_C 	C 	0.47824	0.66075	0.91461	0.317
Mof_C 	C 	0.4531	0.6465	0.86575	-0.057
Mof_C 	C 	0.4919	0.6733	0.82758	0.007
Mof_H 	H 	0.5331	0.7024	0.8324	0.056
Mof_C 	C 	0.3916	0.6064	0.8581	0.009
Mof_H 	H 	0.3649	0.5899	0.8835	0.062
Mof_C 	C 	0.4689	0.6563	0.78202	-0.085
Mof_H 	H 	0.4952	0.6737	0.7565	0.067
Mof_C 	C 	0.3691	0.5904	0.81263	-0.083
Mof_H 	H 	0.3274	0.5632	0.8079	0.068
Mof_C 	C 	0.4077	0.6142	0.77443	0.033
Mof_O 	O 	0.69687	0.16153	0.92109	-0.459
Mof_O 	O 	0.63641	0.19327	0.94864	-0.422
Mof_C 	C 	0.66075	0.18251	0.91461	0.317
Mof_C 	C 	0.6465	0.1934	0.86575	-0.058
Mof_C 	C 	0.6733	0.1814	0.82758	0.007
Mof_H 	H 	0.7024	0.1693	0.8324	0.056
Mof_C 	C 	0.6064	0.2148	0.8581	0.009
Mof_H 	H 	0.5899	0.225	0.8835	0.062
Mof_C 	C 	0.6563	0.1874	0.78202	-0.085
Mof_H 	H 	0.6737	0.1785	0.7565	0.067
Mof_C 	C 	0.5904	0.2213	0.81263	-0.084
Mof_H 	H 	0.5632	0.2358	0.8079	0.068
Mof_C 	C 	0.6142	0.2065	0.77443	0.033
Mof_O 	O 	0.83847	0.53534	0.92109	-0.459
Mof_O 	O 	0.80673	0.44314	0.94864	-0.421
Mof_C 	C 	0.81749	0.47824	0.91461	0.317
Mof_C 	C 	0.8066	0.4531	0.86575	-0.058
Mof_C 	C 	0.8186	0.4919	0.82758	0.007
Mof_H 	H 	0.8307	0.5331	0.8324	0.056
Mof_C 	C 	0.7852	0.3916	0.8581	0.009
Mof_H 	H 	0.775	0.3649	0.8835	0.062
Mof_C 	C 	0.8126	0.4689	0.78202	-0.085
Mof_H 	H 	0.8215	0.4952	0.7565	0.067
Mof_C 	C 	0.7787	0.3691	0.81263	-0.084
Mof_H 	H 	0.7642	0.3274	0.8079	0.068
Mof_C 	C 	0.7935	0.4077	0.77443	0.033
Mof_O 	O 	0.46466	0.30313	0.92109	-0.459
Mof_O 	O 	0.55686	0.36359	0.94864	-0.421
Mof_C 	C 	0.52176	0.33925	0.91461	0.317
Mof_C 	C 	0.5469	0.3535	0.86575	-0.057
Mof_C 	C 	0.5081	0.3267	0.82758	0.007
Mof_H 	H 	0.4669	0.2976	0.8324	0.056
Mof_C 	C 	0.6084	0.3936	0.8581	0.009
Mof_H 	H 	0.6351	0.4101	0.8835	0.062
Mof_C 	C 	0.5311	0.3437	0.78202	-0.085
Mof_H 	H 	0.5048	0.3263	0.7565	0.067
Mof_C 	C 	0.6309	0.4096	0.81263	-0.083
Mof_H 	H 	0.6726	0.4368	0.8079	0.068
Mof_C 	C 	0.5923	0.3858	0.77443	0.033
Mof_O 	O 	0.83847	0.30313	0.57891	-0.506
Mof_O 	O 	0.80673	0.36359	0.55136	-0.474
Mof_C 	C 	0.81749	0.33925	0.58539	0.328
Mof_C 	C 	0.8066	0.3535	0.63425	-0.08
Mof_C 	C 	0.8186	0.3267	0.67242	0.021
Mof_H 	H 	0.8307	0.2976	0.6676	0.046
Mof_C 	C 	0.7852	0.3936	0.6419	0.024
Mof_H 	H 	0.775	0.4101	0.6165	0.047
Mof_C 	C 	0.8126	0.3437	0.71798	-0.102
Mof_H 	H 	0.8215	0.3263	0.7435	0.074
Mof_C 	C 	0.7787	0.4096	0.68737	-0.101
Mof_H 	H 	0.7642	0.4368	0.6921	0.072
Mof_C 	C 	0.7935	0.3858	0.72557	0.047
Mof_O 	O 	0.46466	0.16153	0.57891	-0.506
Mof_O 	O 	0.55686	0.19327	0.55136	-0.474
Mof_C 	C 	0.52176	0.18251	0.58539	0.328
Mof_C 	C 	0.5469	0.1934	0.63425	-0.08
Mof_C 	C 	0.5081	0.1814	0.67242	0.021
Mof_H 	H 	0.4669	0.1693	0.6676	0.046
Mof_C 	C 	0.6084	0.2148	0.6419	0.024
Mof_H 	H 	0.6351	0.225	0.6165	0.047
Mof_C 	C 	0.5311	0.1874	0.71798	-0.102
Mof_H 	H 	0.5048	0.1785	0.7435	0.074
Mof_C 	C 	0.6309	0.2213	0.68737	-0.101
Mof_H 	H 	0.6726	0.2358	0.6921	0.072
Mof_C 	C 	0.5923	0.2065	0.72557	0.047
Mof_O 	O 	0.69687	0.53534	0.57891	-0.506
Mof_O 	O 	0.63641	0.44314	0.55136	-0.474
Mof_C 	C 	0.66075	0.47824	0.58539	0.328
Mof_C 	C 	0.6465	0.4531	0.63425	-0.08
Mof_C 	C 	0.6733	0.4919	0.67242	0.021
Mof_H 	H 	0.7024	0.5331	0.6676	0.046
Mof_C 	C 	0.6064	0.3916	0.6419	0.025
Mof_H 	H 	0.5899	0.3649	0.6165	0.047
Mof_C 	C 	0.6563	0.4689	0.71798	-0.102
Mof_H 	H 	0.6737	0.4952	0.7435	0.074
Mof_C 	C 	0.5904	0.3691	0.68737	-0.101
Mof_H 	H 	0.5632	0.3274	0.6921	0.072
Mof_C 	C 	0.6142	0.4077	0.72557	0.047
Mof_O 	O 	0.16153	0.69687	0.57891	-0.506
Mof_O 	O 	0.19327	0.63641	0.55136	-0.474
Mof_C 	C 	0.18251	0.66075	0.58539	0.328
Mof_C 	C 	0.1934	0.6465	0.63425	-0.08
Mof_C 	C 	0.1814	0.6733	0.67242	0.021
Mof_H 	H 	0.1693	0.7024	0.6676	0.046
Mof_C 	C 	0.2148	0.6064	0.6419	0.024
Mof_H 	H 	0.225	0.5899	0.6165	0.047
Mof_C 	C 	0.1874	0.6563	0.71798	-0.102
Mof_H 	H 	0.1785	0.6737	0.7435	0.074
Mof_C 	C 	0.2213	0.5904	0.68737	-0.101
Mof_H 	H 	0.2358	0.5632	0.6921	0.072
Mof_C 	C 	0.2065	0.6142	0.72557	0.047
Mof_O 	O 	0.53534	0.83847	0.57891	-0.506
Mof_O 	O 	0.44314	0.80673	0.55136	-0.474
Mof_C 	C 	0.47824	0.81749	0.58539	0.328
Mof_C 	C 	0.4531	0.8066	0.63425	-0.08
Mof_C 	C 	0.4919	0.8186	0.67242	0.021
Mof_H 	H 	0.5331	0.8307	0.6676	0.046
Mof_C 	C 	0.3916	0.7852	0.6419	0.024
Mof_H 	H 	0.3649	0.775	0.6165	0.047
Mof_C 	C 	0.4689	0.8126	0.71798	-0.102
Mof_H 	H 	0.4952	0.8215	0.7435	0.074
Mof_C 	C 	0.3691	0.7787	0.68737	-0.101
Mof_H 	H 	0.3274	0.7642	0.6921	0.072
Mof_C 	C 	0.4077	0.7935	0.72557	0.047
Mof_O 	O 	0.30313	0.46466	0.57891	-0.506
Mof_O 	O 	0.36359	0.55686	0.55136	-0.474
Mof_C 	C 	0.33925	0.52176	0.58539	0.328
Mof_C 	C 	0.3535	0.5469	0.63425	-0.08
Mof_C 	C 	0.3267	0.5081	0.67242	0.021
Mof_H 	H 	0.2976	0.4669	0.6676	0.046
Mof_C 	C 	0.3936	0.6084	0.6419	0.025
Mof_H 	H 	0.4101	0.6351	0.6165	0.047
Mof_C 	C 	0.3437	0.5311	0.71798	-0.102
Mof_H 	H 	0.3263	0.5048	0.7435	0.074
Mof_C 	C 	0.4096	0.6309	0.68737	-0.101
Mof_H 	H 	0.4368	0.6726	0.6921	0.072
Mof_C 	C 	0.3858	0.5923	0.72557	0.047
Mof_In	In	0.68785	0.16294	-0	2.407
Mof_S 	S 	0.92813	0.30318	-0	0.076
Mof_O 	O 	0.06868	0.38132	-0	-0.463
Mof_O 	O 	0.79306	0.20203	-0	-0.481
Mof_O 	O 	0.07237	0.47008	-0	-0.538
Mof_C 	C 	0.801	0.2554	-0	0.333
Mof_O 	O 	0.75612	0.26424	-0	-0.512
Mof_C 	C 	0.8634	0.3097	-0	-0.087
Mof_C 	C 	0.9745	0.381	-0	-0.084
Mof_C 	C 	0.0416	0.412	-0	0.331
Mof_C 	C 	0.8775	0.3691	-0	-0.003
Mof_H 	H 	0.8481	0.3814	-0	0.053
Mof_C 	C 	0.9397	0.4094	-0	-0.025
Mof_H 	H 	0.9568	0.4519	-0	0.064
Mof_In	In	0.83706	0.52491	-0	2.407
Mof_S 	S 	0.69682	0.62495	-0	0.076
Mof_O 	O 	0.61868	0.68736	-0	-0.463
Mof_O 	O 	0.79797	0.59103	-0	-0.481
Mof_O 	O 	0.52992	0.60229	-0	-0.539
Mof_C 	C 	0.7446	0.5456	-0	0.333
Mof_O 	O 	0.73576	0.49188	-0	-0.512
Mof_C 	C 	0.6903	0.5537	-0	-0.087
Mof_C 	C 	0.619	0.5935	-0	-0.084
Mof_C 	C 	0.588	0.6296	-0	0.331
Mof_C 	C 	0.6309	0.5084	-0	-0.003
Mof_H 	H 	0.6186	0.4667	-0	0.053
Mof_C 	C 	0.5906	0.5303	-0	-0.025
Mof_H 	H 	0.5481	0.5049	-0	0.064
Mof_In	In	0.47509	0.31215	-0	2.406
Mof_S 	S 	0.37505	0.07187	-0	0.076
Mof_O 	O 	0.31264	0.93132	-0	-0.463
Mof_O 	O 	0.40897	0.20694	-0	-0.481
Mof_O 	O 	0.39771	0.92763	-0	-0.538
Mof_C 	C 	0.4544	0.199	-0	0.333
Mof_O 	O 	0.50812	0.24388	-0	-0.512
Mof_C 	C 	0.4463	0.1366	-0	-0.087
Mof_C 	C 	0.4065	0.0255	-0	-0.084
Mof_C 	C 	0.3704	0.9584	-0	0.331
Mof_C 	C 	0.4916	0.1225	-0	-0.003
Mof_H 	H 	0.5333	0.1519	-0	0.053
Mof_C 	C 	0.4697	0.0603	-0	-0.025
Mof_H 	H 	0.4951	0.0432	-0	0.064
Mof_In	In	0.31215	0.83706	-0	2.407
Mof_S 	S 	0.07187	0.69682	-0	0.076
Mof_O 	O 	0.93132	0.61868	-0	-0.463
Mof_O 	O 	0.20694	0.79797	-0	-0.481
Mof_O 	O 	0.92763	0.52992	-0	-0.538
Mof_C 	C 	0.199	0.7446	-0	0.333
Mof_O 	O 	0.24388	0.73576	-0	-0.512
Mof_C 	C 	0.1366	0.6903	-0	-0.087
Mof_C 	C 	0.0255	0.619	-0	-0.084
Mof_C 	C 	0.9584	0.588	-0	0.331
Mof_C 	C 	0.1225	0.6309	-0	-0.003
Mof_H 	H 	0.1519	0.6186	-0	0.053
Mof_C 	C 	0.0603	0.5906	-0	-0.025
Mof_H 	H 	0.0432	0.5481	-0	0.064
Mof_In	In	0.16294	0.47509	-0	2.407
Mof_S 	S 	0.30318	0.37505	-0	0.076
Mof_O 	O 	0.38132	0.31264	-0	-0.463
Mof_O 	O 	0.20203	0.40897	-0	-0.481
Mof_O 	O 	0.47008	0.39771	-0	-0.539
Mof_C 	C 	0.2554	0.4544	-0	0.333
Mof_O 	O 	0.26424	0.50812	-0	-0.512
Mof_C 	C 	0.3097	0.4463	-0	-0.087
Mof_C 	C 	0.381	0.4065	-0	-0.084
Mof_C 	C 	0.412	0.3704	-0	0.331
Mof_C 	C 	0.3691	0.4916	-0	-0.003
Mof_H 	H 	0.3814	0.5333	-0	0.053
Mof_C 	C 	0.4094	0.4697	-0	-0.025
Mof_H 	H 	0.4519	0.4951	-0	0.064
Mof_In	In	0.52491	0.68785	-0	2.406
Mof_S 	S 	0.62495	0.92813	-0	0.076
Mof_O 	O 	0.68736	0.06868	-0	-0.463
Mof_O 	O 	0.59103	0.79306	-0	-0.481
Mof_O 	O 	0.60229	0.07237	-0	-0.538
Mof_C 	C 	0.5456	0.801	-0	0.333
Mof_O 	O 	0.49188	0.75612	-0	-0.512
Mof_C 	C 	0.5537	0.8634	-0	-0.087
Mof_C 	C 	0.5935	0.9745	-0	-0.084
Mof_C 	C 	0.6296	0.0416	-0	0.331
Mof_C 	C 	0.5084	0.8775	-0	-0.003
Mof_H 	H 	0.4667	0.8481	-0	0.053
Mof_C 	C 	0.5303	0.9397	-0	-0.025
Mof_H 	H 	0.5049	0.9568	-0	0.064
Mof_In	In	0.16294	0.68785	0.5	2.508
Mof_S 	S 	0.30318	0.92813	0.5	0.093
Mof_O 	O 	0.38132	0.06868	0.5	-0.461
Mof_O 	O 	0.20203	0.79306	0.5	-0.478
Mof_O 	O 	0.47008	0.07237	0.5	-0.538
Mof_C 	C 	0.2554	0.801	0.5	0.336
Mof_O 	O 	0.26424	0.75612	0.5	-0.504
Mof_C 	C 	0.3097	0.8634	0.5	-0.08
Mof_C 	C 	0.381	0.9745	0.5	-0.082
Mof_C 	C 	0.412	0.0416	0.5	0.336
Mof_C 	C 	0.3691	0.8775	0.5	-0.002
Mof_H 	H 	0.3814	0.8481	0.5	0.063
Mof_C 	C 	0.4094	0.9397	0.5	-0.017
Mof_H 	H 	0.4519	0.9568	0.5	0.067
Mof_In	In	0.52491	0.83706	0.5	2.508
Mof_S 	S 	0.62495	0.69682	0.5	0.093
Mof_O 	O 	0.68736	0.61868	0.5	-0.461
Mof_O 	O 	0.59103	0.79797	0.5	-0.478
Mof_O 	O 	0.60229	0.52992	0.5	-0.538
Mof_C 	C 	0.5456	0.7446	0.5	0.336
Mof_O 	O 	0.49188	0.73576	0.5	-0.504
Mof_C 	C 	0.5537	0.6903	0.5	-0.08
Mof_C 	C 	0.5935	0.619	0.5	-0.082
Mof_C 	C 	0.6296	0.588	0.5	0.336
Mof_C 	C 	0.5084	0.6309	0.5	-0.002
Mof_H 	H 	0.4667	0.6186	0.5	0.063
Mof_C 	C 	0.5303	0.5906	0.5	-0.017
Mof_H 	H 	0.5049	0.5481	0.5	0.067
Mof_In	In	0.31215	0.47509	0.5	2.508
Mof_S 	S 	0.07187	0.37505	0.5	0.093
Mof_O 	O 	0.93132	0.31264	0.5	-0.461
Mof_O 	O 	0.20694	0.40897	0.5	-0.478
Mof_O 	O 	0.92763	0.39771	0.5	-0.538
Mof_C 	C 	0.199	0.4544	0.5	0.336
Mof_O 	O 	0.24388	0.50812	0.5	-0.504
Mof_C 	C 	0.1366	0.4463	0.5	-0.08
Mof_C 	C 	0.0255	0.4065	0.5	-0.082
Mof_C 	C 	0.9584	0.3704	0.5	0.336
Mof_C 	C 	0.1225	0.4916	0.5	-0.002
Mof_H 	H 	0.1519	0.5333	0.5	0.063
Mof_C 	C 	0.0603	0.4697	0.5	-0.017
Mof_H 	H 	0.0432	0.4951	0.5	0.067
Mof_In	In	0.83706	0.31215	0.5	2.508
Mof_S 	S 	0.69682	0.07187	0.5	0.093
Mof_O 	O 	0.61868	0.93132	0.5	-0.461
Mof_O 	O 	0.79797	0.20694	0.5	-0.478
Mof_O 	O 	0.52992	0.92763	0.5	-0.538
Mof_C 	C 	0.7446	0.199	0.5	0.336
Mof_O 	O 	0.73576	0.24388	0.5	-0.504
Mof_C 	C 	0.6903	0.1366	0.5	-0.08
Mof_C 	C 	0.619	0.0255	0.5	-0.082
Mof_C 	C 	0.588	0.9584	0.5	0.336
Mof_C 	C 	0.6309	0.1225	0.5	-0.002
Mof_H 	H 	0.6186	0.1519	0.5	0.063
Mof_C 	C 	0.5906	0.0603	0.5	-0.017
Mof_H 	H 	0.5481	0.0432	0.5	0.067
Mof_In	In	0.47509	0.16294	0.5	2.508
Mof_S 	S 	0.37505	0.30318	0.5	0.093
Mof_O 	O 	0.31264	0.38132	0.5	-0.461
Mof_O 	O 	0.40897	0.20203	0.5	-0.478
Mof_O 	O 	0.39771	0.47008	0.5	-0.538
Mof_C 	C 	0.4544	0.2554	0.5	0.336
Mof_O 	O 	0.50812	0.26424	0.5	-0.504
Mof_C 	C 	0.4463	0.3097	0.5	-0.08
Mof_C 	C 	0.4065	0.381	0.5	-0.082
Mof_C 	C 	0.3704	0.412	0.5	0.336
Mof_C 	C 	0.4916	0.3691	0.5	-0.002
Mof_H 	H 	0.5333	0.3814	0.5	0.063
Mof_C 	C 	0.4697	0.4094	0.5	-0.017
Mof_H 	H 	0.4951	0.4519	0.5	0.067
Mof_In	In	0.68785	0.52491	0.5	2.508
Mof_S 	S 	0.92813	0.62495	0.5	0.093
Mof_O 	O 	0.06868	0.68736	0.5	-0.461
Mof_O 	O 	0.79306	0.59103	0.5	-0.478
Mof_O 	O 	0.07237	0.60229	0.5	-0.538
Mof_C 	C 	0.801	0.5456	0.5	0.336
Mof_O 	O 	0.75612	0.49188	0.5	-0.504
Mof_C 	C 	0.8634	0.5537	0.5	-0.08
Mof_C 	C 	0.9745	0.5935	0.5	-0.082
Mof_C 	C 	0.0416	0.6296	0.5	0.336
Mof_C 	C 	0.8775	0.5084	0.5	-0.002
Mof_H 	H 	0.8481	0.4667	0.5	0.063
Mof_C 	C 	0.9397	0.5303	0.5	-0.017
Mof_H 	H 	0.9568	0.5049	0.5	0.067
_end
