data_functionalizedCrystal
_audit_creation_method	'EQeq! by Chris Wilmer'
_symmetry_space_group_name_H-M	'P1'
_symmetry_Int_Tables_number	1
_symmetry_cell_setting	triclinic
loop_
_symmetry_equiv_pos_as_xyz
  x,y,z
_cell_length_a	9.4044
_cell_length_b	13.1257
_cell_length_c	19.8899
_cell_angle_alpha	109.266
_cell_angle_beta	102.466
_cell_angle_gamma	90
loop_
_atom_site_label
_atom_site_type_symbol
_atom_site_fract_x
_atom_site_fract_y
_atom_site_fract_z
_atom_site_charge
Mof_Co	Co	0.17572	0.1429	0.72502	1.113
Mof_Co	Co	0.32428	0.41788	0.27498	1.114
Mof_Co	Co	0.82428	0.8571	0.27498	1.113
Mof_Co	Co	0.67572	0.58212	0.72502	1.114
Mof_H 	H 	0.8593	0.1754	0.7424	-0.029
Mof_H 	H 	0.6235	0.1322	0.6758	0.106
Mof_H 	H 	0.7798	0.9795	0.4978	0.101
Mof_H 	H 	0.0103	0.0268	0.5696	-0.011
Mof_H 	H 	0.1504	0.2303	0.887	-0.045
Mof_H 	H 	0.0876	0.1739	0.9746	0.082
Mof_H 	H 	0.0213	0.8723	0.8318	0.102
Mof_H 	H 	0.0786	0.9373	0.7468	0.001
Mof_H 	H 	0.4468	0.0437	0.5618	0.068
Mof_H 	H 	0.9809	0.8969	0.9508	0.051
Mof_H 	H 	0.4415	0.3097	0.5816	0.118
Mof_H 	H 	0.1606	0.212	0.5208	0.032
Mof_H 	H 	0.0598	0.2122	0.3946	0.118
Mof_H 	H 	0.3459	0.2978	0.453	0.037
Mof_H 	H 	0.6407	0.433	0.2576	-0.028
Mof_H 	H 	0.8765	0.4564	0.3242	0.107
Mof_H 	H 	0.7202	0.4817	0.5022	0.102
Mof_H 	H 	0.4897	0.4572	0.4304	-0.006
Mof_H 	H 	0.3496	0.3433	0.113	-0.046
Mof_H 	H 	0.4124	0.1993	0.0254	0.086
Mof_H 	H 	0.4787	0.0405	0.1682	0.105
Mof_H 	H 	0.4214	0.1905	0.2532	-0
Mof_H 	H 	0.0532	0.4819	0.4382	0.069
Mof_H 	H 	0.5191	0.9461	0.0492	0.053
Mof_H 	H 	0.0585	0.7281	0.4184	0.119
Mof_H 	H 	0.3394	0.6912	0.4792	0.032
Mof_H 	H 	0.4402	0.8176	0.6054	0.119
Mof_H 	H 	0.1541	0.8448	0.547	0.038
Mof_H 	H 	0.1407	0.8246	0.2576	-0.028
Mof_H 	H 	0.3765	0.8678	0.3242	0.107
Mof_H 	H 	0.2202	0.0205	0.5022	0.101
Mof_H 	H 	0.9897	0.9732	0.4304	-0.011
Mof_H 	H 	0.8496	0.7697	0.113	-0.045
Mof_H 	H 	0.9124	0.8261	0.0254	0.082
Mof_H 	H 	0.9787	0.1277	0.1682	0.102
Mof_H 	H 	0.9214	0.0627	0.2532	0.001
Mof_H 	H 	0.5532	0.9563	0.4382	0.068
Mof_H 	H 	0.0191	0.1031	0.0492	0.051
Mof_H 	H 	0.5585	0.6903	0.4184	0.118
Mof_H 	H 	0.8394	0.788	0.4792	0.032
Mof_H 	H 	0.9402	0.7878	0.6054	0.118
Mof_H 	H 	0.6541	0.7022	0.547	0.037
Mof_H 	H 	0.3593	0.567	0.7424	-0.028
Mof_H 	H 	0.1235	0.5436	0.6758	0.107
Mof_H 	H 	0.2798	0.5183	0.4978	0.102
Mof_H 	H 	0.5103	0.5428	0.5696	-0.006
Mof_H 	H 	0.6504	0.6567	0.887	-0.046
Mof_H 	H 	0.5876	0.8007	0.9746	0.086
Mof_H 	H 	0.5213	0.9595	0.8318	0.105
Mof_H 	H 	0.5786	0.8095	0.7468	-0
Mof_H 	H 	0.9468	0.5181	0.5618	0.069
Mof_H 	H 	0.4809	0.0539	0.9508	0.053
Mof_H 	H 	0.9415	0.2719	0.5816	0.119
Mof_H 	H 	0.6606	0.3088	0.5208	0.032
Mof_H 	H 	0.5598	0.1824	0.3946	0.119
Mof_H 	H 	0.8459	0.1552	0.453	0.038
Mof_C 	C 	0.8424	0.13534	0.69228	0.109
Mof_C 	C 	0.7008	0.10973	0.65266	-0.18
Mof_C 	C 	0.6712	0.0504	0.57814	0.134
Mof_C 	C 	0.7931	0.01966	0.54772	-0.18
Mof_C 	C 	0.9306	0.04846	0.59112	0.114
Mof_C 	C 	0.1226	0.15651	0.87522	0.093
Mof_C 	C 	0.0857	0.12323	0.92826	-0.176
Mof_C 	C 	0.0459	0.01562	0.91364	0.112
Mof_C 	C 	0.046	0.94665	0.8445	-0.17
Mof_C 	C 	0.0819	0.98616	0.79392	0.104
Mof_C 	C 	0.5208	0.02434	0.53588	-0.087
Mof_C 	C 	0.0041	0.97208	0.96656	-0.077
Mof_C 	C 	0.3392	0.25281	0.64806	0.377
Mof_C 	C 	0.3538	0.27492	0.58112	-0.224
Mof_C 	C 	0.2473	0.24738	0.52052	0.028
Mof_C 	C 	0.1565	0.28292	0.33284	0.373
Mof_C 	C 	0.1468	0.24897	0.39614	-0.215
Mof_C 	C 	0.2562	0.26828	0.4546	0.021
Mof_C 	C 	0.6576	0.44306	0.30772	0.109
Mof_C 	C 	0.7992	0.45707	0.34734	-0.18
Mof_C 	C 	0.8288	0.47226	0.42186	0.134
Mof_C 	C 	0.7069	0.47194	0.45228	-0.181
Mof_C 	C 	0.5694	0.45734	0.40888	0.108
Mof_C 	C 	0.3774	0.28129	0.12478	0.099
Mof_C 	C 	0.4143	0.19497	0.07174	-0.184
Mof_C 	C 	0.4541	0.10198	0.08636	0.129
Mof_C 	C 	0.454	0.10215	0.1555	-0.183
Mof_C 	C 	0.4181	0.19224	0.20608	0.106
Mof_C 	C 	0.9792	0.48846	0.46412	-0.087
Mof_C 	C 	0.4959	0.00552	0.03344	-0.085
Mof_C 	C 	0.1608	0.60475	0.35194	0.377
Mof_C 	C 	0.1462	0.6938	0.41888	-0.224
Mof_C 	C 	0.2527	0.72686	0.47948	0.029
Mof_C 	C 	0.3435	0.95008	0.66716	0.373
Mof_C 	C 	0.3532	0.85283	0.60386	-0.214
Mof_C 	C 	0.2438	0.81368	0.5454	0.022
Mof_C 	C 	0.1576	0.86466	0.30772	0.109
Mof_C 	C 	0.2992	0.89027	0.34734	-0.18
Mof_C 	C 	0.3288	0.9496	0.42186	0.134
Mof_C 	C 	0.2069	0.98034	0.45228	-0.18
Mof_C 	C 	0.0694	0.95154	0.40888	0.114
Mof_C 	C 	0.8774	0.84349	0.12478	0.093
Mof_C 	C 	0.9143	0.87677	0.07174	-0.176
Mof_C 	C 	0.9541	0.98438	0.08636	0.112
Mof_C 	C 	0.954	0.05335	0.1555	-0.17
Mof_C 	C 	0.9181	0.01384	0.20608	0.104
Mof_C 	C 	0.4792	0.97566	0.46412	-0.087
Mof_C 	C 	0.9959	0.02792	0.03344	-0.077
Mof_C 	C 	0.6608	0.74719	0.35194	0.377
Mof_C 	C 	0.6462	0.72508	0.41888	-0.224
Mof_C 	C 	0.7527	0.75262	0.47948	0.028
Mof_C 	C 	0.8435	0.71708	0.66716	0.373
Mof_C 	C 	0.8532	0.75103	0.60386	-0.215
Mof_C 	C 	0.7438	0.73172	0.5454	0.021
Mof_C 	C 	0.3424	0.55694	0.69228	0.109
Mof_C 	C 	0.2008	0.54293	0.65266	-0.18
Mof_C 	C 	0.1712	0.52774	0.57814	0.134
Mof_C 	C 	0.2931	0.52806	0.54772	-0.181
Mof_C 	C 	0.4306	0.54266	0.59112	0.108
Mof_C 	C 	0.6226	0.71871	0.87522	0.099
Mof_C 	C 	0.5857	0.80503	0.92826	-0.184
Mof_C 	C 	0.5459	0.89802	0.91364	0.129
Mof_C 	C 	0.546	0.89785	0.8445	-0.183
Mof_C 	C 	0.5819	0.80776	0.79392	0.106
Mof_C 	C 	0.0208	0.51154	0.53588	-0.087
Mof_C 	C 	0.5041	0.99448	0.96656	-0.085
Mof_C 	C 	0.8392	0.39525	0.64806	0.377
Mof_C 	C 	0.8538	0.3062	0.58112	-0.224
Mof_C 	C 	0.7473	0.27314	0.52052	0.029
Mof_C 	C 	0.6565	0.04992	0.33284	0.373
Mof_C 	C 	0.6468	0.14717	0.39614	-0.214
Mof_C 	C 	0.7562	0.18632	0.4546	0.022
Mof_N 	N 	0.9582	0.10592	0.66276	-0.25
Mof_N 	N 	0.1211	0.09006	0.8081	-0.266
Mof_N 	N 	0.5418	0.44316	0.33724	-0.25
Mof_N 	N 	0.3789	0.28196	0.1919	-0.265
Mof_N 	N 	0.0418	0.89408	0.33724	-0.25
Mof_N 	N 	0.8789	0.90994	0.1919	-0.266
Mof_N 	N 	0.4582	0.55684	0.66276	-0.25
Mof_N 	N 	0.6211	0.71804	0.8081	-0.265
Mof_O 	O 	0.2312	0.19241	0.64374	-0.435
Mof_O 	O 	0.4385	0.29466	0.7052	-0.328
Mof_O 	O 	0.2794	0.32141	0.33264	-0.424
Mof_O 	O 	0.0402	0.2751	0.28526	-0.306
Mof_O 	O 	0.2688	0.54867	0.35626	-0.434
Mof_O 	O 	0.0615	0.58946	0.2948	-0.327
Mof_O 	O 	0.2206	0.98877	0.66736	-0.423
Mof_O 	O 	0.4598	0.98984	0.71474	-0.305
Mof_O 	O 	0.7688	0.80759	0.35626	-0.435
Mof_O 	O 	0.5615	0.70534	0.2948	-0.328
Mof_O 	O 	0.7206	0.67859	0.66736	-0.424
Mof_O 	O 	0.9598	0.7249	0.71474	-0.306
Mof_O 	O 	0.7312	0.45133	0.64374	-0.434
Mof_O 	O 	0.9385	0.41054	0.7052	-0.327
Mof_O 	O 	0.7794	0.01123	0.33264	-0.423
Mof_O 	O 	0.5402	0.01016	0.28526	-0.305
_end
