data_functionalizedCrystal
_audit_creation_method	'EQeq! by Chris Wilmer'
_symmetry_space_group_name_H-M	'P1'
_symmetry_Int_Tables_number	1
_symmetry_cell_setting	triclinic
loop_
_symmetry_equiv_pos_as_xyz
  x,y,z
_cell_length_a	20.6571
_cell_length_b	20.6571
_cell_length_c	17.84
_cell_angle_alpha	90
_cell_angle_beta	90
_cell_angle_gamma	90
loop_
_atom_site_label
_atom_site_type_symbol
_atom_site_fract_x
_atom_site_fract_y
_atom_site_fract_z
_atom_site_charge
Mof_Zn	Zn	0.24525	0.37745	-0	1.201
Mof_O 	O 	0.2604	0.3364	0.1607	-0.474
Mof_O 	O 	0.3113	0.3238	0.0514	-0.504
Mof_O 	O 	0.559	0.1671	0.1369	-0.462
Mof_O 	O 	0.5393	0.2463	0.0529	-0.491
Mof_O 	O 	0.4478	0.189	0.3836	-0.295
Mof_O 	O 	0.3713	0.2648	0.3935	-0.437
Mof_C 	C 	0.3625	0.2836	0.1586	-0.145
Mof_C 	C 	0.4162	0.2646	0.1189	0.085
Mof_C 	C 	0.4668	0.2323	0.1536	-0.14
Mof_C 	C 	0.4636	0.2188	0.2307	0.061
Mof_C 	C 	0.4105	0.2402	0.2717	-0.104
Mof_C 	C 	0.3602	0.2723	0.2376	0.063
Mof_C 	C 	0.3061	0.3164	0.1216	0.401
Mof_C 	C 	0.5271	0.2118	0.1123	0.4
Mof_C 	C 	0.4111	0.2285	0.356	0.322
Mof_H 	H 	0.4184	0.2744	0.0668	0.015
Mof_H 	H 	0.4965	0.1933	0.2545	0.036
Mof_H 	H 	0.3239	0.287	0.2661	0.038
Mof_Zn	Zn	0.74525	0.87745	0.5	1.23
Mof_O 	O 	0.7604	0.8364	0.6607	-0.463
Mof_O 	O 	0.8113	0.8238	0.5514	-0.466
Mof_O 	O 	0.059	0.6671	0.6369	-0.445
Mof_O 	O 	0.0393	0.7463	0.5529	-0.452
Mof_O 	O 	0.9478	0.689	0.8836	-0.234
Mof_O 	O 	0.8713	0.7648	0.8935	-0.365
Mof_C 	C 	0.8625	0.7836	0.6586	-0.117
Mof_C 	C 	0.9162	0.7646	0.6189	0.068
Mof_C 	C 	0.9668	0.7323	0.6536	-0.112
Mof_C 	C 	0.9636	0.7188	0.7307	0.045
Mof_C 	C 	0.9105	0.7402	0.7717	-0.074
Mof_C 	C 	0.8602	0.7723	0.7376	0.045
Mof_C 	C 	0.8061	0.8164	0.6216	0.389
Mof_C 	C 	0.0271	0.7118	0.6123	0.393
Mof_C 	C 	0.9111	0.7285	0.856	0.307
Mof_H 	H 	0.9184	0.7744	0.5668	0.044
Mof_H 	H 	0.9965	0.6933	0.7545	0.053
Mof_H 	H 	0.8239	0.787	0.7661	0.055
Mof_Zn	Zn	0.75475	0.62255	-0	1.2
Mof_O 	O 	0.7396	0.6636	0.1607	-0.475
Mof_O 	O 	0.6887	0.6762	0.0514	-0.505
Mof_O 	O 	0.441	0.8329	0.1369	-0.463
Mof_O 	O 	0.4607	0.7537	0.0529	-0.491
Mof_O 	O 	0.5522	0.811	0.3836	-0.295
Mof_O 	O 	0.6287	0.7352	0.3935	-0.437
Mof_C 	C 	0.6375	0.7164	0.1586	-0.145
Mof_C 	C 	0.5838	0.7354	0.1189	0.085
Mof_C 	C 	0.5332	0.7677	0.1536	-0.14
Mof_C 	C 	0.5364	0.7812	0.2307	0.061
Mof_C 	C 	0.5895	0.7598	0.2717	-0.104
Mof_C 	C 	0.6398	0.7277	0.2376	0.063
Mof_C 	C 	0.6939	0.6836	0.1216	0.401
Mof_C 	C 	0.4729	0.7882	0.1123	0.4
Mof_C 	C 	0.5889	0.7715	0.356	0.322
Mof_H 	H 	0.5816	0.7256	0.0668	0.015
Mof_H 	H 	0.5035	0.8067	0.2545	0.036
Mof_H 	H 	0.6761	0.713	0.2661	0.038
Mof_Zn	Zn	0.25475	0.12255	0.5	1.23
Mof_O 	O 	0.2396	0.1636	0.6607	-0.463
Mof_O 	O 	0.1887	0.1762	0.5514	-0.466
Mof_O 	O 	0.941	0.3329	0.6369	-0.445
Mof_O 	O 	0.9607	0.2537	0.5529	-0.452
Mof_O 	O 	0.0522	0.311	0.8836	-0.234
Mof_O 	O 	0.1287	0.2352	0.8935	-0.365
Mof_C 	C 	0.1375	0.2164	0.6586	-0.117
Mof_C 	C 	0.0838	0.2354	0.6189	0.068
Mof_C 	C 	0.0332	0.2677	0.6536	-0.112
Mof_C 	C 	0.0364	0.2812	0.7307	0.045
Mof_C 	C 	0.0895	0.2598	0.7717	-0.074
Mof_C 	C 	0.1398	0.2277	0.7376	0.045
Mof_C 	C 	0.1939	0.1836	0.6216	0.389
Mof_C 	C 	0.9729	0.2882	0.6123	0.393
Mof_C 	C 	0.0889	0.2715	0.856	0.307
Mof_H 	H 	0.0816	0.2256	0.5668	0.044
Mof_H 	H 	0.0035	0.3067	0.7545	0.053
Mof_H 	H 	0.1761	0.213	0.7661	0.055
Mof_Zn	Zn	0.62255	0.24525	-0	1.2
Mof_O 	O 	0.6636	0.2604	0.1607	-0.475
Mof_O 	O 	0.6762	0.3113	0.0514	-0.505
Mof_O 	O 	0.8329	0.559	0.1369	-0.463
Mof_O 	O 	0.7537	0.5393	0.0529	-0.491
Mof_O 	O 	0.811	0.4478	0.3836	-0.295
Mof_O 	O 	0.7352	0.3713	0.3935	-0.437
Mof_C 	C 	0.7164	0.3625	0.1586	-0.145
Mof_C 	C 	0.7354	0.4162	0.1189	0.085
Mof_C 	C 	0.7677	0.4668	0.1536	-0.14
Mof_C 	C 	0.7812	0.4636	0.2307	0.061
Mof_C 	C 	0.7598	0.4105	0.2717	-0.104
Mof_C 	C 	0.7277	0.3602	0.2376	0.063
Mof_C 	C 	0.6836	0.3061	0.1216	0.401
Mof_C 	C 	0.7882	0.5271	0.1123	0.4
Mof_C 	C 	0.7715	0.4111	0.356	0.322
Mof_H 	H 	0.7256	0.4184	0.0668	0.015
Mof_H 	H 	0.8067	0.4965	0.2545	0.036
Mof_H 	H 	0.713	0.3239	0.2661	0.038
Mof_Zn	Zn	0.12255	0.74525	0.5	1.23
Mof_O 	O 	0.1636	0.7604	0.6607	-0.463
Mof_O 	O 	0.1762	0.8113	0.5514	-0.466
Mof_O 	O 	0.3329	0.059	0.6369	-0.445
Mof_O 	O 	0.2537	0.0393	0.5529	-0.452
Mof_O 	O 	0.311	0.9478	0.8836	-0.234
Mof_O 	O 	0.2352	0.8713	0.8935	-0.365
Mof_C 	C 	0.2164	0.8625	0.6586	-0.117
Mof_C 	C 	0.2354	0.9162	0.6189	0.068
Mof_C 	C 	0.2677	0.9668	0.6536	-0.112
Mof_C 	C 	0.2812	0.9636	0.7307	0.045
Mof_C 	C 	0.2598	0.9105	0.7717	-0.074
Mof_C 	C 	0.2277	0.8602	0.7376	0.045
Mof_C 	C 	0.1836	0.8061	0.6216	0.389
Mof_C 	C 	0.2882	0.0271	0.6123	0.393
Mof_C 	C 	0.2715	0.9111	0.856	0.307
Mof_H 	H 	0.2256	0.9184	0.5668	0.044
Mof_H 	H 	0.3067	0.9965	0.7545	0.053
Mof_H 	H 	0.213	0.8239	0.7661	0.055
Mof_Zn	Zn	0.37745	0.75475	-0	1.2
Mof_O 	O 	0.3364	0.7396	0.1607	-0.475
Mof_O 	O 	0.3238	0.6887	0.0514	-0.505
Mof_O 	O 	0.1671	0.441	0.1369	-0.463
Mof_O 	O 	0.2463	0.4607	0.0529	-0.491
Mof_O 	O 	0.189	0.5522	0.3836	-0.295
Mof_O 	O 	0.2648	0.6287	0.3935	-0.437
Mof_C 	C 	0.2836	0.6375	0.1586	-0.145
Mof_C 	C 	0.2646	0.5838	0.1189	0.085
Mof_C 	C 	0.2323	0.5332	0.1536	-0.14
Mof_C 	C 	0.2188	0.5364	0.2307	0.061
Mof_C 	C 	0.2402	0.5895	0.2717	-0.104
Mof_C 	C 	0.2723	0.6398	0.2376	0.063
Mof_C 	C 	0.3164	0.6939	0.1216	0.401
Mof_C 	C 	0.2118	0.4729	0.1123	0.4
Mof_C 	C 	0.2285	0.5889	0.356	0.322
Mof_H 	H 	0.2744	0.5816	0.0668	0.015
Mof_H 	H 	0.1933	0.5035	0.2545	0.036
Mof_H 	H 	0.287	0.6761	0.2661	0.038
Mof_Zn	Zn	0.87745	0.25475	0.5	1.23
Mof_O 	O 	0.8364	0.2396	0.6607	-0.463
Mof_O 	O 	0.8238	0.1887	0.5514	-0.466
Mof_O 	O 	0.6671	0.941	0.6369	-0.445
Mof_O 	O 	0.7463	0.9607	0.5529	-0.452
Mof_O 	O 	0.689	0.0522	0.8836	-0.234
Mof_O 	O 	0.7648	0.1287	0.8935	-0.365
Mof_C 	C 	0.7836	0.1375	0.6586	-0.117
Mof_C 	C 	0.7646	0.0838	0.6189	0.068
Mof_C 	C 	0.7323	0.0332	0.6536	-0.112
Mof_C 	C 	0.7188	0.0364	0.7307	0.045
Mof_C 	C 	0.7402	0.0895	0.7717	-0.074
Mof_C 	C 	0.7723	0.1398	0.7376	0.045
Mof_C 	C 	0.8164	0.1939	0.6216	0.389
Mof_C 	C 	0.7118	0.9729	0.6123	0.393
Mof_C 	C 	0.7285	0.0889	0.856	0.307
Mof_H 	H 	0.7744	0.0816	0.5668	0.044
Mof_H 	H 	0.6933	0.0035	0.7545	0.053
Mof_H 	H 	0.787	0.1761	0.7661	0.055
Mof_Zn	Zn	0.24525	0.62255	0.5	1.23
Mof_O 	O 	0.2604	0.6636	0.6607	-0.463
Mof_O 	O 	0.3113	0.6762	0.5514	-0.466
Mof_O 	O 	0.559	0.8329	0.6369	-0.445
Mof_O 	O 	0.5393	0.7537	0.5529	-0.452
Mof_O 	O 	0.4478	0.811	0.8836	-0.234
Mof_O 	O 	0.3713	0.7352	0.8935	-0.364
Mof_C 	C 	0.3625	0.7164	0.6586	-0.117
Mof_C 	C 	0.4162	0.7354	0.6189	0.068
Mof_C 	C 	0.4668	0.7677	0.6536	-0.112
Mof_C 	C 	0.4636	0.7812	0.7307	0.045
Mof_C 	C 	0.4105	0.7598	0.7717	-0.074
Mof_C 	C 	0.3602	0.7277	0.7376	0.045
Mof_C 	C 	0.3061	0.6836	0.6216	0.389
Mof_C 	C 	0.5271	0.7882	0.6123	0.393
Mof_C 	C 	0.4111	0.7715	0.856	0.307
Mof_H 	H 	0.4184	0.7256	0.5668	0.044
Mof_H 	H 	0.4965	0.8067	0.7545	0.053
Mof_H 	H 	0.3239	0.713	0.7661	0.055
Mof_Zn	Zn	0.74525	0.12255	-0	1.2
Mof_O 	O 	0.7604	0.1636	0.1607	-0.475
Mof_O 	O 	0.8113	0.1762	0.0514	-0.505
Mof_O 	O 	0.059	0.3329	0.1369	-0.463
Mof_O 	O 	0.0393	0.2537	0.0529	-0.491
Mof_O 	O 	0.9478	0.311	0.3836	-0.295
Mof_O 	O 	0.8713	0.2352	0.3935	-0.437
Mof_C 	C 	0.8625	0.2164	0.1586	-0.145
Mof_C 	C 	0.9162	0.2354	0.1189	0.085
Mof_C 	C 	0.9668	0.2677	0.1536	-0.14
Mof_C 	C 	0.9636	0.2812	0.2307	0.061
Mof_C 	C 	0.9105	0.2598	0.2717	-0.104
Mof_C 	C 	0.8602	0.2277	0.2376	0.063
Mof_C 	C 	0.8061	0.1836	0.1216	0.401
Mof_C 	C 	0.0271	0.2882	0.1123	0.4
Mof_C 	C 	0.9111	0.2715	0.356	0.322
Mof_H 	H 	0.9184	0.2256	0.0668	0.015
Mof_H 	H 	0.9965	0.3067	0.2545	0.036
Mof_H 	H 	0.8239	0.213	0.2661	0.038
Mof_Zn	Zn	0.75475	0.37745	0.5	1.23
Mof_O 	O 	0.7396	0.3364	0.6607	-0.463
Mof_O 	O 	0.6887	0.3238	0.5514	-0.466
Mof_O 	O 	0.441	0.1671	0.6369	-0.445
Mof_O 	O 	0.4607	0.2463	0.5529	-0.452
Mof_O 	O 	0.5522	0.189	0.8836	-0.234
Mof_O 	O 	0.6287	0.2648	0.8935	-0.364
Mof_C 	C 	0.6375	0.2836	0.6586	-0.117
Mof_C 	C 	0.5838	0.2646	0.6189	0.068
Mof_C 	C 	0.5332	0.2323	0.6536	-0.112
Mof_C 	C 	0.5364	0.2188	0.7307	0.045
Mof_C 	C 	0.5895	0.2402	0.7717	-0.074
Mof_C 	C 	0.6398	0.2723	0.7376	0.045
Mof_C 	C 	0.6939	0.3164	0.6216	0.389
Mof_C 	C 	0.4729	0.2118	0.6123	0.393
Mof_C 	C 	0.5889	0.2285	0.856	0.307
Mof_H 	H 	0.5816	0.2744	0.5668	0.044
Mof_H 	H 	0.5035	0.1933	0.7545	0.053
Mof_H 	H 	0.6761	0.287	0.7661	0.055
Mof_Zn	Zn	0.25475	0.87745	-0	1.2
Mof_O 	O 	0.2396	0.8364	0.1607	-0.475
Mof_O 	O 	0.1887	0.8238	0.0514	-0.505
Mof_O 	O 	0.941	0.6671	0.1369	-0.463
Mof_O 	O 	0.9607	0.7463	0.0529	-0.491
Mof_O 	O 	0.0522	0.689	0.3836	-0.295
Mof_O 	O 	0.1287	0.7648	0.3935	-0.437
Mof_C 	C 	0.1375	0.7836	0.1586	-0.145
Mof_C 	C 	0.0838	0.7646	0.1189	0.085
Mof_C 	C 	0.0332	0.7323	0.1536	-0.14
Mof_C 	C 	0.0364	0.7188	0.2307	0.061
Mof_C 	C 	0.0895	0.7402	0.2717	-0.104
Mof_C 	C 	0.1398	0.7723	0.2376	0.063
Mof_C 	C 	0.1939	0.8164	0.1216	0.401
Mof_C 	C 	0.9729	0.7118	0.1123	0.4
Mof_C 	C 	0.0889	0.7285	0.356	0.322
Mof_H 	H 	0.0816	0.7744	0.0668	0.015
Mof_H 	H 	0.0035	0.6933	0.2545	0.036
Mof_H 	H 	0.1761	0.787	0.2661	0.038
Mof_Zn	Zn	0.62255	0.75475	0.5	1.23
Mof_O 	O 	0.6636	0.7396	0.6607	-0.463
Mof_O 	O 	0.6762	0.6887	0.5514	-0.466
Mof_O 	O 	0.8329	0.441	0.6369	-0.445
Mof_O 	O 	0.7537	0.4607	0.5529	-0.452
Mof_O 	O 	0.811	0.5522	0.8836	-0.234
Mof_O 	O 	0.7352	0.6287	0.8935	-0.364
Mof_C 	C 	0.7164	0.6375	0.6586	-0.117
Mof_C 	C 	0.7354	0.5838	0.6189	0.068
Mof_C 	C 	0.7677	0.5332	0.6536	-0.112
Mof_C 	C 	0.7812	0.5364	0.7307	0.045
Mof_C 	C 	0.7598	0.5895	0.7717	-0.074
Mof_C 	C 	0.7277	0.6398	0.7376	0.045
Mof_C 	C 	0.6836	0.6939	0.6216	0.389
Mof_C 	C 	0.7882	0.4729	0.6123	0.393
Mof_C 	C 	0.7715	0.5889	0.856	0.307
Mof_H 	H 	0.7256	0.5816	0.5668	0.044
Mof_H 	H 	0.8067	0.5035	0.7545	0.053
Mof_H 	H 	0.713	0.6761	0.7661	0.055
Mof_Zn	Zn	0.12255	0.25475	-0	1.2
Mof_O 	O 	0.1636	0.2396	0.1607	-0.475
Mof_O 	O 	0.1762	0.1887	0.0514	-0.505
Mof_O 	O 	0.3329	0.941	0.1369	-0.463
Mof_O 	O 	0.2537	0.9607	0.0529	-0.491
Mof_O 	O 	0.311	0.0522	0.3836	-0.295
Mof_O 	O 	0.2352	0.1287	0.3935	-0.437
Mof_C 	C 	0.2164	0.1375	0.1586	-0.145
Mof_C 	C 	0.2354	0.0838	0.1189	0.085
Mof_C 	C 	0.2677	0.0332	0.1536	-0.14
Mof_C 	C 	0.2812	0.0364	0.2307	0.061
Mof_C 	C 	0.2598	0.0895	0.2717	-0.104
Mof_C 	C 	0.2277	0.1398	0.2376	0.063
Mof_C 	C 	0.1836	0.1939	0.1216	0.401
Mof_C 	C 	0.2882	0.9729	0.1123	0.4
Mof_C 	C 	0.2715	0.0889	0.356	0.322
Mof_H 	H 	0.2256	0.0816	0.0668	0.015
Mof_H 	H 	0.3067	0.0035	0.2545	0.036
Mof_H 	H 	0.213	0.1761	0.2661	0.038
Mof_Zn	Zn	0.37745	0.24525	0.5	1.23
Mof_O 	O 	0.3364	0.2604	0.6607	-0.463
Mof_O 	O 	0.3238	0.3113	0.5514	-0.466
Mof_O 	O 	0.1671	0.559	0.6369	-0.445
Mof_O 	O 	0.2463	0.5393	0.5529	-0.452
Mof_O 	O 	0.189	0.4478	0.8836	-0.234
Mof_O 	O 	0.2648	0.3713	0.8935	-0.364
Mof_C 	C 	0.2836	0.3625	0.6586	-0.117
Mof_C 	C 	0.2646	0.4162	0.6189	0.068
Mof_C 	C 	0.2323	0.4668	0.6536	-0.112
Mof_C 	C 	0.2188	0.4636	0.7307	0.045
Mof_C 	C 	0.2402	0.4105	0.7717	-0.074
Mof_C 	C 	0.2723	0.3602	0.7376	0.045
Mof_C 	C 	0.3164	0.3061	0.6216	0.389
Mof_C 	C 	0.2118	0.5271	0.6123	0.393
Mof_C 	C 	0.2285	0.4111	0.856	0.307
Mof_H 	H 	0.2744	0.4184	0.5668	0.044
Mof_H 	H 	0.1933	0.4965	0.7545	0.053
Mof_H 	H 	0.287	0.3239	0.7661	0.055
Mof_Zn	Zn	0.87745	0.74525	-0	1.2
Mof_O 	O 	0.8364	0.7604	0.1607	-0.475
Mof_O 	O 	0.8238	0.8113	0.0514	-0.505
Mof_O 	O 	0.6671	0.059	0.1369	-0.463
Mof_O 	O 	0.7463	0.0393	0.0529	-0.491
Mof_O 	O 	0.689	0.9478	0.3836	-0.295
Mof_O 	O 	0.7648	0.8713	0.3935	-0.437
Mof_C 	C 	0.7836	0.8625	0.1586	-0.145
Mof_C 	C 	0.7646	0.9162	0.1189	0.085
Mof_C 	C 	0.7323	0.9668	0.1536	-0.14
Mof_C 	C 	0.7188	0.9636	0.2307	0.061
Mof_C 	C 	0.7402	0.9105	0.2717	-0.104
Mof_C 	C 	0.7723	0.8602	0.2376	0.063
Mof_C 	C 	0.8164	0.8061	0.1216	0.401
Mof_C 	C 	0.7118	0.0271	0.1123	0.4
Mof_C 	C 	0.7285	0.9111	0.356	0.322
Mof_H 	H 	0.7744	0.9184	0.0668	0.015
Mof_H 	H 	0.6933	0.9965	0.2545	0.036
Mof_H 	H 	0.787	0.8239	0.2661	0.038
Mof_Zn	Zn	0.15971	0.34029	0.14506	1.216
Mof_O 	O 	0.1623	0.3377	0.027	-0.708
Mof_Zn	Zn	0.84029	0.65971	0.14506	1.216
Mof_O 	O 	0.8377	0.6623	0.027	-0.708
Mof_Zn	Zn	0.34029	0.15971	0.64506	1.218
Mof_O 	O 	0.3377	0.1623	0.527	-0.662
Mof_Zn	Zn	0.65971	0.15971	0.14506	1.216
Mof_O 	O 	0.6623	0.1623	0.027	-0.708
Mof_Zn	Zn	0.34029	0.84029	0.14506	1.216
Mof_O 	O 	0.3377	0.8377	0.027	-0.708
Mof_Zn	Zn	0.15971	0.65971	0.64506	1.218
Mof_O 	O 	0.1623	0.6623	0.527	-0.662
Mof_Zn	Zn	0.84029	0.34029	0.64506	1.218
Mof_O 	O 	0.8377	0.3377	0.527	-0.662
Mof_Zn	Zn	0.65971	0.84029	0.64506	1.218
Mof_O 	O 	0.6623	0.8377	0.527	-0.662
_end
