data_functionalizedCrystal
_audit_creation_method	'EQeq! by Chris Wilmer'
_symmetry_space_group_name_H-M	'P1'
_symmetry_Int_Tables_number	1
_symmetry_cell_setting	triclinic
loop_
_symmetry_equiv_pos_as_xyz
  x,y,z
_cell_length_a	16.7942
_cell_length_b	16.7942
_cell_length_c	16.7942
_cell_angle_alpha	90
_cell_angle_beta	90
_cell_angle_gamma	90
loop_
_atom_site_label
_atom_site_type_symbol
_atom_site_fract_x
_atom_site_fract_y
_atom_site_fract_z
_atom_site_charge
Mof_O 	O 	0.01649	0.59188	0.30536	-0.854
Mof_O 	O 	0.51649	0.09188	0.80536	-0.754
Mof_O 	O 	0.98351	0.40812	0.30536	-0.488
Mof_O 	O 	0.48351	0.90812	0.80536	-0.499
Mof_O 	O 	0.98351	0.59188	0.69464	-0.471
Mof_O 	O 	0.48351	0.09188	0.19464	-0.768
Mof_O 	O 	0.01649	0.40812	0.69464	-0.87
Mof_O 	O 	0.51649	0.90812	0.19464	-0.516
Mof_O 	O 	0.30536	0.01649	0.59188	-0.855
Mof_O 	O 	0.80536	0.51649	0.09188	-0.755
Mof_O 	O 	0.30536	0.98351	0.40812	-0.489
Mof_O 	O 	0.80536	0.48351	0.90812	-0.5
Mof_O 	O 	0.69464	0.98351	0.59188	-0.472
Mof_O 	O 	0.19464	0.48351	0.09188	-0.769
Mof_O 	O 	0.69464	0.01649	0.40812	-0.87
Mof_O 	O 	0.19464	0.51649	0.90812	-0.516
Mof_O 	O 	0.59188	0.30536	0.01649	-0.855
Mof_O 	O 	0.09188	0.80536	0.51649	-0.755
Mof_O 	O 	0.40812	0.30536	0.98351	-0.489
Mof_O 	O 	0.90812	0.80536	0.48351	-0.5
Mof_O 	O 	0.59188	0.69464	0.98351	-0.472
Mof_O 	O 	0.09188	0.19464	0.48351	-0.769
Mof_O 	O 	0.40812	0.69464	0.01649	-0.87
Mof_O 	O 	0.90812	0.19464	0.51649	-0.516
Mof_O 	O 	0.59188	0.01649	0.30536	-0.855
Mof_O 	O 	0.09188	0.51649	0.80536	-0.755
Mof_O 	O 	0.40812	0.98351	0.30536	-0.489
Mof_O 	O 	0.90812	0.48351	0.80536	-0.5
Mof_O 	O 	0.59188	0.98351	0.69464	-0.472
Mof_O 	O 	0.09188	0.48351	0.19464	-0.769
Mof_O 	O 	0.40812	0.01649	0.69464	-0.87
Mof_O 	O 	0.90812	0.51649	0.19464	-0.516
Mof_O 	O 	0.01649	0.30536	0.59188	-0.855
Mof_O 	O 	0.51649	0.80536	0.09188	-0.755
Mof_O 	O 	0.98351	0.30536	0.40812	-0.489
Mof_O 	O 	0.48351	0.80536	0.90812	-0.5
Mof_O 	O 	0.98351	0.69464	0.59188	-0.472
Mof_O 	O 	0.48351	0.19464	0.09188	-0.769
Mof_O 	O 	0.01649	0.69464	0.40812	-0.87
Mof_O 	O 	0.51649	0.19464	0.90812	-0.516
Mof_O 	O 	0.30536	0.59188	0.01649	-0.855
Mof_O 	O 	0.80536	0.09188	0.51649	-0.755
Mof_O 	O 	0.30536	0.40812	0.98351	-0.489
Mof_O 	O 	0.80536	0.90812	0.48351	-0.5
Mof_O 	O 	0.69464	0.59188	0.98351	-0.472
Mof_O 	O 	0.19464	0.09188	0.48351	-0.769
Mof_O 	O 	0.69464	0.40812	0.01649	-0.87
Mof_O 	O 	0.19464	0.90812	0.51649	-0.516
Mof_Al	Al	1.25334e-32	0.5	0.5	2.756
Mof_Al	Al	0.5	0	-0	0.415
Mof_Al	Al	0.5	5.32933e-33	0.5	2.756
Mof_Al	Al	5.32933e-33	0.5	-0	0.415
Mof_Al	Al	0.5	0.5	-0	2.756
Mof_Al	Al	7.20403e-33	5.32933e-33	0.5	0.415
Mof_Al	Al	9.3735e-34	0.5	0.25	2.037
Mof_Al	Al	1.88e-32	0.5	0.75	2.156
Mof_Al	Al	0.5	2.66466e-33	0.25	2.037
Mof_Al	Al	0.25	5.32933e-33	0.5	2.037
Mof_Al	Al	0.75	5.32933e-33	0.5	2.156
Mof_Al	Al	0.25	0.5	-0	2.037
Mof_Al	Al	0.5	0.25	-0	2.037
Mof_Al	Al	0.5	0.75	-0	2.156
Mof_Al	Al	1.8747e-33	0.25	0.5	2.037
Mof_Al	Al	0.5	0	0.75	2.156
Mof_Al	Al	1.78627e-32	0.75	0.5	2.156
Mof_Al	Al	0.75	0.5	-0	2.156
Mof_P 	P 	0.06445	0.62254	0.37746	0.775
Mof_O 	O 	0.14866	0.64454	0.35546	-0.289
Mof_O 	O 	0.06471	0.55784	0.44216	-1.036
Mof_P 	P 	0.56445	0.12254	0.87746	0.662
Mof_O 	O 	0.64866	0.14454	0.85546	-0.207
Mof_O 	O 	0.56471	0.05784	0.94216	-0.324
Mof_P 	P 	0.93555	0.37746	0.37746	0.757
Mof_O 	O 	0.85134	0.35546	0.35546	-0.239
Mof_O 	O 	0.93529	0.44216	0.44216	-0.741
Mof_P 	P 	0.43555	0.87746	0.87746	0.669
Mof_O 	O 	0.35134	0.85546	0.85546	-0.098
Mof_O 	O 	0.43529	0.94216	0.94216	-0.009
Mof_P 	P 	0.93555	0.62254	0.62254	0.77
Mof_O 	O 	0.85134	0.64454	0.64454	-0.18
Mof_O 	O 	0.93529	0.55784	0.55784	-0.744
Mof_P 	P 	0.43555	0.12254	0.12254	0.656
Mof_O 	O 	0.35134	0.14454	0.14454	-0.426
Mof_O 	O 	0.43529	0.05784	0.05784	-0.684
Mof_P 	P 	0.06445	0.37746	0.62254	0.775
Mof_O 	O 	0.14866	0.35546	0.64454	-0.289
Mof_O 	O 	0.06471	0.44216	0.55784	-1.036
Mof_P 	P 	0.56445	0.87746	0.12254	0.662
Mof_O 	O 	0.64866	0.85546	0.14454	-0.207
Mof_O 	O 	0.56471	0.94216	0.05784	-0.324
Mof_P 	P 	0.37746	0.06445	0.62254	0.775
Mof_O 	O 	0.35546	0.14866	0.64454	-0.289
Mof_O 	O 	0.44216	0.06471	0.55784	-1.036
Mof_P 	P 	0.87746	0.56445	0.12254	0.662
Mof_O 	O 	0.85546	0.64866	0.14454	-0.207
Mof_O 	O 	0.94216	0.56471	0.05784	-0.324
Mof_P 	P 	0.37746	0.93555	0.37746	0.757
Mof_O 	O 	0.35546	0.85134	0.35546	-0.239
Mof_O 	O 	0.44216	0.93529	0.44216	-0.741
Mof_P 	P 	0.87746	0.43555	0.87746	0.669
Mof_O 	O 	0.85546	0.35134	0.85546	-0.098
Mof_O 	O 	0.94216	0.43529	0.94216	-0.009
Mof_P 	P 	0.62254	0.93555	0.62254	0.77
Mof_O 	O 	0.64454	0.85134	0.64454	-0.18
Mof_O 	O 	0.55784	0.93529	0.55784	-0.744
Mof_P 	P 	0.12254	0.43555	0.12254	0.656
Mof_O 	O 	0.14454	0.35134	0.14454	-0.426
Mof_O 	O 	0.05784	0.43529	0.05784	-0.684
Mof_P 	P 	0.62254	0.06445	0.37746	0.775
Mof_O 	O 	0.64454	0.14866	0.35546	-0.289
Mof_O 	O 	0.55784	0.06471	0.44216	-1.036
Mof_P 	P 	0.12254	0.56445	0.87746	0.662
Mof_O 	O 	0.14454	0.64866	0.85546	-0.207
Mof_O 	O 	0.05784	0.56471	0.94216	-0.324
Mof_P 	P 	0.62254	0.37746	0.06445	0.775
Mof_O 	O 	0.64454	0.35546	0.14866	-0.289
Mof_O 	O 	0.55784	0.44216	0.06471	-1.036
Mof_P 	P 	0.12254	0.87746	0.56445	0.662
Mof_O 	O 	0.14454	0.85546	0.64866	-0.207
Mof_O 	O 	0.05784	0.94216	0.56471	-0.324
Mof_P 	P 	0.37746	0.37746	0.93555	0.757
Mof_O 	O 	0.35546	0.35546	0.85134	-0.239
Mof_O 	O 	0.44216	0.44216	0.93529	-0.741
Mof_P 	P 	0.87746	0.87746	0.43555	0.669
Mof_O 	O 	0.85546	0.85546	0.35134	-0.098
Mof_O 	O 	0.94216	0.94216	0.43529	-0.009
Mof_P 	P 	0.62254	0.62254	0.93555	0.77
Mof_O 	O 	0.64454	0.64454	0.85134	-0.18
Mof_O 	O 	0.55784	0.55784	0.93529	-0.744
Mof_P 	P 	0.12254	0.12254	0.43555	0.656
Mof_O 	O 	0.14454	0.14454	0.35134	-0.426
Mof_O 	O 	0.05784	0.05784	0.43529	-0.684
Mof_P 	P 	0.37746	0.62254	0.06445	0.775
Mof_O 	O 	0.35546	0.64454	0.14866	-0.289
Mof_O 	O 	0.44216	0.55784	0.06471	-1.036
Mof_P 	P 	0.87746	0.12254	0.56445	0.662
Mof_O 	O 	0.85546	0.14454	0.64866	-0.207
Mof_O 	O 	0.94216	0.05784	0.56471	-0.324
_end
