data_functionalizedCrystal
_audit_creation_method	'EQeq! by Chris Wilmer'
_symmetry_space_group_name_H-M	'P1'
_symmetry_Int_Tables_number	1
_symmetry_cell_setting	triclinic
loop_
_symmetry_equiv_pos_as_xyz
  x,y,z
_cell_length_a	6.9314
_cell_length_b	12.382
_cell_length_c	27.738
_cell_angle_alpha	96.641
_cell_angle_beta	91.231
_cell_angle_gamma	104.221
loop_
_atom_site_label
_atom_site_type_symbol
_atom_site_fract_x
_atom_site_fract_y
_atom_site_fract_z
_atom_site_charge
Mof_Zn	Zn	0.29653	0.42769	0.49637	1.203
Mof_Zn	Zn	0.0111	0.63517	0.99101	1.199
Mof_Zn	Zn	0.70347	0.57231	0.50363	1.203
Mof_Zn	Zn	0.9889	0.36483	0.00899	1.199
Mof_H 	H 	0.9539	0.3843	0.6024	-0.015
Mof_H 	H 	0.0401	0.2757	0.6588	0.129
Mof_H 	H 	0.4608	0.1095	0.6602	0.141
Mof_H 	H 	0.3776	0.2139	0.6033	-0.018
Mof_H 	H 	0.0914	0.1399	0.6982	0.036
Mof_H 	H 	0.0136	0.212	0.742	0.043
Mof_H 	H 	0.9105	0.9181	0.6956	0.035
Mof_H 	H 	0.9799	0.8754	0.7439	0.044
Mof_H 	H 	0.5381	0.9383	0.68	0.143
Mof_H 	H 	0.6228	0.8083	0.6228	-0.017
Mof_H 	H 	0.0498	0.6291	0.6086	-0.017
Mof_H 	H 	0.9631	0.7607	0.6645	0.131
Mof_H 	H 	0.2963	0.1203	0.7722	0.038
Mof_H 	H 	0.1985	0.0308	0.808	0.042
Mof_H 	H 	0.1249	0.3552	0.8773	0.131
Mof_H 	H 	0.3824	0.4766	0.9275	0.004
Mof_H 	H 	0.7428	0.2714	0.8931	-0.015
Mof_H 	H 	0.4893	0.1521	0.8408	0.117
Mof_H 	H 	0.6853	0.9808	0.7588	0.036
Mof_H 	H 	0.7743	0.0867	0.7991	0.046
Mof_H 	H 	0.447	0.9355	0.8075	0.116
Mof_H 	H 	0.1975	0.8385	0.8531	0.004
Mof_H 	H 	0.6048	0.7142	0.9204	0.012
Mof_H 	H 	0.8492	0.8054	0.8728	0.14
Mof_H 	H 	0.0461	0.6157	0.3976	-0.015
Mof_H 	H 	0.9599	0.7243	0.3412	0.129
Mof_H 	H 	0.5392	0.8905	0.3398	0.141
Mof_H 	H 	0.6224	0.7861	0.3967	-0.018
Mof_H 	H 	0.9086	0.8601	0.3018	0.036
Mof_H 	H 	0.9864	0.788	0.258	0.043
Mof_H 	H 	0.0895	0.0819	0.3044	0.035
Mof_H 	H 	0.0201	0.1246	0.2561	0.044
Mof_H 	H 	0.4619	0.0617	0.32	0.143
Mof_H 	H 	0.3772	0.1917	0.3772	-0.017
Mof_H 	H 	0.9502	0.3709	0.3914	-0.017
Mof_H 	H 	0.0369	0.2393	0.3355	0.131
Mof_H 	H 	0.7037	0.8797	0.2278	0.038
Mof_H 	H 	0.8015	0.9692	0.192	0.042
Mof_H 	H 	0.8751	0.6448	0.1227	0.131
Mof_H 	H 	0.6176	0.5234	0.0725	0.004
Mof_H 	H 	0.2572	0.7286	0.1069	-0.015
Mof_H 	H 	0.5107	0.8479	0.1592	0.117
Mof_H 	H 	0.3147	0.0192	0.2412	0.036
Mof_H 	H 	0.2257	0.9133	0.2009	0.046
Mof_H 	H 	0.553	0.0645	0.1925	0.116
Mof_H 	H 	0.8025	0.1615	0.1469	0.004
Mof_H 	H 	0.3952	0.2858	0.0796	0.012
Mof_H 	H 	0.1508	0.1946	0.1272	0.14
Mof_C 	C 	0.6018	0.3784	0.5606	0.47
Mof_C 	C 	0.6569	0.3099	0.5966	-0.238
Mof_C 	C 	0.8533	0.3275	0.6138	0.169
Mof_C 	C 	0.905	0.2635	0.6477	-0.277
Mof_C 	C 	0.76	0.1829	0.6647	0.287
Mof_C 	C 	0.5617	0.1651	0.6481	-0.28
Mof_C 	C 	0.5127	0.2272	0.6146	0.182
Mof_C 	C 	0.9867	0.1377	0.722	0.02
Mof_C 	C 	0.9881	0.0473	0.754	0.008
Mof_C 	C 	0.0086	0.9377	0.7237	0.019
Mof_C 	C 	0.2395	0.8636	0.6763	0.286
Mof_C 	C 	0.4379	0.8762	0.6647	-0.279
Mof_C 	C 	0.4878	0.7983	0.6311	0.179
Mof_C 	C 	0.3476	0.7067	0.6093	-0.231
Mof_C 	C 	0.1491	0.693	0.6227	0.168
Mof_C 	C 	0.0975	0.7709	0.6558	-0.282
Mof_C 	C 	0.4022	0.6259	0.5704	0.467
Mof_C 	C 	0.176	0.0916	0.7901	0.019
Mof_C 	C 	0.2904	0.2465	0.8528	0.267
Mof_C 	C 	0.2522	0.3398	0.8797	-0.26
Mof_C 	C 	0.4045	0.4102	0.9103	0.137
Mof_C 	C 	0.584	0.3866	0.9161	-0.189
Mof_C 	C 	0.6177	0.289	0.8895	0.129
Mof_C 	C 	0.4683	0.2186	0.8582	-0.252
Mof_C 	C 	0.755	0.4627	0.9473	0.378
Mof_C 	C 	0.8008	0.018	0.7815	0.019
Mof_C 	C 	0.6711	0.8844	0.838	0.258
Mof_C 	C 	0.479	0.8915	0.8309	-0.243
Mof_C 	C 	0.3311	0.8339	0.8581	0.122
Mof_C 	C 	0.3764	0.77	0.8925	-0.163
Mof_C 	C 	0.5724	0.7596	0.8977	0.122
Mof_C 	C 	0.7176	0.8147	0.87	-0.239
Mof_C 	C 	0.2222	0.7185	0.9258	0.335
Mof_C 	C 	0.3982	0.6216	0.4394	0.47
Mof_C 	C 	0.3431	0.6901	0.4034	-0.238
Mof_C 	C 	0.1467	0.6725	0.3862	0.169
Mof_C 	C 	0.095	0.7365	0.3523	-0.277
Mof_C 	C 	0.24	0.8171	0.3353	0.287
Mof_C 	C 	0.4383	0.8349	0.3519	-0.28
Mof_C 	C 	0.4873	0.7728	0.3854	0.182
Mof_C 	C 	0.0133	0.8623	0.278	0.02
Mof_C 	C 	0.0119	0.9527	0.246	0.008
Mof_C 	C 	0.9914	0.0623	0.2763	0.019
Mof_C 	C 	0.7605	0.1364	0.3237	0.286
Mof_C 	C 	0.5621	0.1238	0.3353	-0.279
Mof_C 	C 	0.5122	0.2017	0.3689	0.179
Mof_C 	C 	0.6524	0.2933	0.3907	-0.231
Mof_C 	C 	0.8509	0.307	0.3773	0.168
Mof_C 	C 	0.9025	0.2291	0.3442	-0.282
Mof_C 	C 	0.5978	0.3741	0.4296	0.467
Mof_C 	C 	0.824	0.9084	0.2099	0.019
Mof_C 	C 	0.7096	0.7535	0.1472	0.267
Mof_C 	C 	0.7478	0.6602	0.1203	-0.26
Mof_C 	C 	0.5955	0.5898	0.0897	0.137
Mof_C 	C 	0.416	0.6134	0.0839	-0.189
Mof_C 	C 	0.3823	0.711	0.1105	0.129
Mof_C 	C 	0.5317	0.7814	0.1418	-0.252
Mof_C 	C 	0.245	0.5373	0.0527	0.378
Mof_C 	C 	0.1992	0.982	0.2185	0.019
Mof_C 	C 	0.3289	0.1156	0.162	0.258
Mof_C 	C 	0.521	0.1085	0.1691	-0.243
Mof_C 	C 	0.6689	0.1661	0.1419	0.122
Mof_C 	C 	0.6236	0.23	0.1075	-0.163
Mof_C 	C 	0.4276	0.2404	0.1023	0.122
Mof_C 	C 	0.2824	0.1853	0.13	-0.239
Mof_C 	C 	0.7778	0.2815	0.0742	0.335
Mof_O 	O 	0.4261	0.3537	0.5444	-0.503
Mof_O 	O 	0.7326	0.4568	0.5481	-0.501
Mof_O 	O 	0.7938	0.1127	0.6972	-0.256
Mof_O 	O 	0.2043	0.9517	0.7068	-0.256
Mof_O 	O 	0.272	0.546	0.5525	-0.505
Mof_O 	O 	0.5807	0.65	0.5582	-0.497
Mof_O 	O 	0.1338	0.1808	0.8232	-0.242
Mof_O 	O 	0.7317	0.553	0.9674	-0.46
Mof_O 	O 	0.9194	0.4333	0.9507	-0.534
Mof_O 	O 	0.8323	0.9431	0.8154	-0.239
Mof_O 	O 	0.0457	0.7168	0.9179	-0.38
Mof_O 	O 	0.2783	0.6772	0.9621	-0.443
Mof_O 	O 	0.5739	0.6463	0.4556	-0.503
Mof_O 	O 	0.2674	0.5432	0.4519	-0.501
Mof_O 	O 	0.2062	0.8873	0.3028	-0.256
Mof_O 	O 	0.7957	0.0483	0.2932	-0.256
Mof_O 	O 	0.728	0.454	0.4475	-0.505
Mof_O 	O 	0.4193	0.35	0.4418	-0.497
Mof_O 	O 	0.8662	0.8192	0.1768	-0.242
Mof_O 	O 	0.2683	0.447	0.0326	-0.46
Mof_O 	O 	0.0806	0.5667	0.0493	-0.534
Mof_O 	O 	0.1677	0.0569	0.1846	-0.239
Mof_O 	O 	0.9543	0.2832	0.0821	-0.38
Mof_O 	O 	0.7217	0.3228	0.0379	-0.443
_end
