data_functionalizedCrystal
_audit_creation_method	'EQeq! by Chris Wilmer'
_symmetry_space_group_name_H-M	'P1'
_symmetry_Int_Tables_number	1
_symmetry_cell_setting	triclinic
loop_
_symmetry_equiv_pos_as_xyz
  x,y,z
_cell_length_a	17.573
_cell_length_b	16.528
_cell_length_c	17.595
_cell_angle_alpha	90
_cell_angle_beta	90
_cell_angle_gamma	90
loop_
_atom_site_label
_atom_site_type_symbol
_atom_site_fract_x
_atom_site_fract_y
_atom_site_fract_z
_atom_site_charge
Mof_N 	N 	0.3346	0.6655	0.3879	-0.161
Mof_N 	N 	0.1658	0.5893	0.1794	-0.165
Mof_N 	N 	0.1101	0.8255	0.3354	-0.163
Mof_C 	C 	0.267	0.6789	0.3443	0.225
Mof_C 	C 	0.1589	0.7576	0.3169	0.225
Mof_C 	C 	0.2231	0.7446	0.3605	-0.29
Mof_H 	H 	0.2359	0.7796	0.3998	0.138
Mof_N 	N 	0.0492	0.9171	0.402	-0.143
Mof_C 	C 	0.0925	0.8528	0.4046	0.105
Mof_H 	H 	0.1091	0.8289	0.4494	-0.006
Mof_C 	C 	0.1846	0.6417	0.2414	0.221
Mof_C 	C 	0.1394	0.708	0.2569	-0.284
Mof_H 	H 	0.0967	0.719	0.2274	0.13
Mof_C 	C 	0.2497	0.6268	0.2837	-0.276
Mof_H 	H 	0.2811	0.5832	0.2722	0.13
Mof_C 	C 	0.1035	0.5919	0.1367	0.103
Mof_H 	H 	0.0644	0.6289	0.1442	-0.012
Mof_C 	C 	0.3644	0.5939	0.4084	0.099
Mof_H 	H 	0.3438	0.5439	0.3959	-0.001
Mof_C 	C 	0.0772	0.8772	0.2843	0.009
Mof_H 	H 	0.0801	0.8743	0.2316	0.023
Mof_C 	C 	0.3828	0.7248	0.4155	0.006
Mof_H 	H 	0.3772	0.7804	0.4098	0.029
Mof_C 	C 	0.0393	0.9333	0.3258	-0.003
Mof_H 	H 	0.0111	0.976	0.306	0.033
Mof_C 	C 	0.2089	0.5266	0.1509	0.007
Mof_H 	H 	0.256	0.5093	0.1686	0.023
Mof_N 	N 	0.1026	0.537	0.083	-0.15
Mof_C 	C 	0.1694	0.4957	0.093	-0.005
Mof_H 	H 	0.1851	0.452	0.0635	0.028
Mof_N 	N 	0.4272	0.6043	0.4488	-0.145
Mof_C 	C 	0.4388	0.6866	0.4518	0.001
Mof_H 	H 	0.4796	0.7118	0.4756	0.032
Mof_N 	N 	0.1654	0.3345	0.8879	-0.16
Mof_N 	N 	0.3342	0.4107	0.6794	-0.164
Mof_N 	N 	0.3899	0.1745	0.8354	-0.161
Mof_C 	C 	0.233	0.3211	0.8443	0.227
Mof_C 	C 	0.3411	0.2424	0.8169	0.228
Mof_C 	C 	0.2769	0.2554	0.8605	-0.291
Mof_H 	H 	0.2641	0.2204	0.8998	0.139
Mof_N 	N 	0.4508	0.0829	0.902	-0.14
Mof_C 	C 	0.4075	0.1472	0.9046	0.106
Mof_H 	H 	0.3909	0.1711	0.9494	0.002
Mof_C 	C 	0.3154	0.3583	0.7414	0.225
Mof_C 	C 	0.3606	0.292	0.7569	-0.285
Mof_H 	H 	0.4033	0.281	0.7274	0.135
Mof_C 	C 	0.2503	0.3732	0.7837	-0.277
Mof_H 	H 	0.2189	0.4168	0.7722	0.131
Mof_C 	C 	0.3965	0.4081	0.6367	0.108
Mof_H 	H 	0.4356	0.3711	0.6442	-0.007
Mof_C 	C 	0.1356	0.4061	0.9084	0.1
Mof_H 	H 	0.1562	0.4561	0.8959	0.002
Mof_C 	C 	0.4228	0.1228	0.7843	0.009
Mof_H 	H 	0.4199	0.1257	0.7316	0.024
Mof_C 	C 	0.1172	0.2752	0.9155	0.007
Mof_H 	H 	0.1228	0.2196	0.9098	0.025
Mof_C 	C 	0.4607	0.0667	0.8258	-0.004
Mof_H 	H 	0.4889	0.024	0.806	0.031
Mof_C 	C 	0.2911	0.4734	0.6509	0.011
Mof_H 	H 	0.244	0.4907	0.6686	0.024
Mof_N 	N 	0.3974	0.463	0.583	-0.145
Mof_C 	C 	0.3306	0.5043	0.593	-0.002
Mof_H 	H 	0.3149	0.548	0.5635	0.035
Mof_N 	N 	0.0728	0.3957	0.9488	-0.14
Mof_C 	C 	0.0612	0.3134	0.9518	-0.001
Mof_H 	H 	0.0204	0.2882	0.9756	0.03
Mof_N 	N 	0.6654	0.1655	0.1121	-0.161
Mof_N 	N 	0.8342	0.0893	0.3206	-0.158
Mof_N 	N 	0.8899	0.3255	0.1646	-0.162
Mof_C 	C 	0.733	0.1789	0.1557	0.223
Mof_C 	C 	0.8411	0.2576	0.1831	0.226
Mof_C 	C 	0.7769	0.2446	0.1395	-0.289
Mof_H 	H 	0.7641	0.2796	0.1002	0.134
Mof_N 	N 	0.9508	0.4171	0.098	-0.14
Mof_C 	C 	0.9075	0.3528	0.0954	0.107
Mof_H 	H 	0.8909	0.3289	0.0506	-0.008
Mof_C 	C 	0.8154	0.1417	0.2586	0.223
Mof_C 	C 	0.8606	0.208	0.2431	-0.284
Mof_H 	H 	0.9033	0.219	0.2726	0.137
Mof_C 	C 	0.7503	0.1268	0.2163	-0.275
Mof_H 	H 	0.7189	0.0832	0.2278	0.129
Mof_C 	C 	0.8965	0.0919	0.3633	0.107
Mof_H 	H 	0.9356	0.1289	0.3558	-0
Mof_C 	C 	0.6356	0.0939	0.0916	0.095
Mof_H 	H 	0.6562	0.0439	0.1041	-0.005
Mof_C 	C 	0.9228	0.3772	0.2157	0.012
Mof_H 	H 	0.9199	0.3743	0.2684	0.028
Mof_C 	C 	0.6172	0.2248	0.0845	0.004
Mof_H 	H 	0.6228	0.2804	0.0902	0.025
Mof_C 	C 	0.9607	0.4333	0.1742	-0.001
Mof_H 	H 	0.9889	0.476	0.194	0.042
Mof_C 	C 	0.7911	0.0266	0.3491	-0.025
Mof_H 	H 	0.744	0.0093	0.3314	0.033
Mof_N 	N 	0.8974	0.037	0.417	-0.151
Mof_C 	C 	0.8306	0.9957	0.407	0.046
Mof_H 	H 	0.8149	0.952	0.4365	0.024
Mof_N 	N 	0.5728	0.1043	0.0512	-0.148
Mof_C 	C 	0.5612	0.1866	0.0482	-0.002
Mof_H 	H 	0.5204	0.2118	0.0244	0.025
Mof_N 	N 	0.8346	0.8345	0.6121	-0.16
Mof_N 	N 	0.6658	0.9107	0.8206	-0.168
Mof_N 	N 	0.6101	0.6745	0.6646	-0.162
Mof_C 	C 	0.767	0.8211	0.6557	0.232
Mof_C 	C 	0.6589	0.7424	0.6831	0.231
Mof_C 	C 	0.7231	0.7554	0.6395	-0.292
Mof_H 	H 	0.7359	0.7204	0.6002	0.14
Mof_N 	N 	0.5492	0.5829	0.598	-0.145
Mof_C 	C 	0.5925	0.6472	0.5954	0.107
Mof_H 	H 	0.6091	0.6711	0.5506	-0.004
Mof_C 	C 	0.6846	0.8583	0.7586	0.231
Mof_C 	C 	0.6394	0.792	0.7431	-0.287
Mof_H 	H 	0.5967	0.781	0.7726	0.137
Mof_C 	C 	0.7497	0.8732	0.7163	-0.28
Mof_H 	H 	0.7811	0.9168	0.7278	0.137
Mof_C 	C 	0.6035	0.9081	0.8633	0.113
Mof_H 	H 	0.5644	0.8711	0.8558	-0.005
Mof_C 	C 	0.8644	0.9061	0.5916	0.102
Mof_H 	H 	0.8438	0.9561	0.6041	0.004
Mof_C 	C 	0.5772	0.6228	0.7157	0.01
Mof_H 	H 	0.5801	0.6257	0.7684	0.028
Mof_C 	C 	0.8828	0.7752	0.5845	0.011
Mof_H 	H 	0.8772	0.7196	0.5902	0.03
Mof_C 	C 	0.5393	0.5667	0.6742	-0.002
Mof_H 	H 	0.5111	0.524	0.694	0.035
Mof_C 	C 	0.7089	0.9734	0.8491	0.051
Mof_H 	H 	0.756	0.9907	0.8314	0.018
Mof_N 	N 	0.6026	0.963	0.917	-0.123
Mof_C 	C 	0.6694	0.0043	0.907	-0.046
Mof_H 	H 	0.6851	0.048	0.9365	0.056
Mof_N 	N 	0.9272	0.8957	0.5512	-0.135
Mof_C 	C 	0.9388	0.8134	0.5482	0.003
Mof_H 	H 	0.9796	0.7882	0.5244	0.04
Mof_N 	N 	0.6654	0.3345	0.6121	-0.16
Mof_N 	N 	0.8342	0.4107	0.8206	-0.163
Mof_N 	N 	0.8899	0.1745	0.6646	-0.161
Mof_C 	C 	0.733	0.3211	0.6557	0.228
Mof_C 	C 	0.8411	0.2424	0.6831	0.23
Mof_C 	C 	0.7769	0.2554	0.6395	-0.291
Mof_H 	H 	0.7641	0.2204	0.6002	0.137
Mof_N 	N 	0.9508	0.0829	0.598	-0.14
Mof_C 	C 	0.9075	0.1472	0.5954	0.108
Mof_H 	H 	0.8909	0.1711	0.5506	-0.002
Mof_C 	C 	0.8154	0.3583	0.7586	0.229
Mof_C 	C 	0.8606	0.292	0.7431	-0.286
Mof_H 	H 	0.9033	0.281	0.7726	0.139
Mof_C 	C 	0.7503	0.3732	0.7163	-0.278
Mof_H 	H 	0.7189	0.4168	0.7278	0.134
Mof_C 	C 	0.8965	0.4081	0.8633	0.112
Mof_H 	H 	0.9356	0.3711	0.8558	0.001
Mof_C 	C 	0.6356	0.4061	0.5916	0.099
Mof_H 	H 	0.6562	0.4561	0.6041	-0
Mof_C 	C 	0.9228	0.1228	0.7157	0.011
Mof_H 	H 	0.9199	0.1257	0.7684	0.028
Mof_C 	C 	0.6172	0.2752	0.5845	0.007
Mof_H 	H 	0.6228	0.2196	0.5902	0.026
Mof_C 	C 	0.9607	0.0667	0.6742	-0.002
Mof_H 	H 	0.9889	0.024	0.694	0.038
Mof_C 	C 	0.7911	0.4734	0.8491	0.015
Mof_H 	H 	0.744	0.4907	0.8314	0.026
Mof_N 	N 	0.8974	0.463	0.917	-0.132
Mof_C 	C 	0.8306	0.5043	0.907	0.002
Mof_H 	H 	0.8149	0.548	0.9365	0.044
Mof_N 	N 	0.5728	0.3957	0.5512	-0.145
Mof_C 	C 	0.5612	0.3134	0.5482	-0
Mof_H 	H 	0.5204	0.2882	0.5244	0.03
Mof_N 	N 	0.8346	0.6655	0.1121	-0.16
Mof_N 	N 	0.6658	0.5893	0.3206	-0.163
Mof_N 	N 	0.6101	0.8255	0.1646	-0.162
Mof_C 	C 	0.767	0.6789	0.1557	0.226
Mof_C 	C 	0.6589	0.7576	0.1831	0.227
Mof_C 	C 	0.7231	0.7446	0.1395	-0.29
Mof_H 	H 	0.7359	0.7796	0.1002	0.137
Mof_N 	N 	0.5492	0.9171	0.098	-0.143
Mof_C 	C 	0.5925	0.8528	0.0954	0.106
Mof_H 	H 	0.6091	0.8289	0.0506	-0.009
Mof_C 	C 	0.6846	0.6417	0.2586	0.225
Mof_C 	C 	0.6394	0.708	0.2431	-0.285
Mof_H 	H 	0.5967	0.719	0.2726	0.135
Mof_C 	C 	0.7497	0.6268	0.2163	-0.277
Mof_H 	H 	0.7811	0.5832	0.2278	0.133
Mof_C 	C 	0.6035	0.5919	0.3633	0.108
Mof_H 	H 	0.5644	0.6289	0.3558	-0.007
Mof_C 	C 	0.8644	0.5939	0.0916	0.098
Mof_H 	H 	0.8438	0.5439	0.1041	-0.001
Mof_C 	C 	0.5772	0.8772	0.2157	0.011
Mof_H 	H 	0.5801	0.8743	0.2684	0.027
Mof_C 	C 	0.8828	0.7248	0.0845	0.007
Mof_H 	H 	0.8772	0.7804	0.0902	0.03
Mof_C 	C 	0.5393	0.9333	0.1742	-0.001
Mof_H 	H 	0.5111	0.976	0.194	0.04
Mof_C 	C 	0.7089	0.5266	0.3491	0.011
Mof_H 	H 	0.756	0.5093	0.3314	0.026
Mof_N 	N 	0.6026	0.537	0.417	-0.145
Mof_C 	C 	0.6694	0.4957	0.407	-0.001
Mof_H 	H 	0.6851	0.452	0.4365	0.036
Mof_N 	N 	0.9272	0.6043	0.0512	-0.14
Mof_C 	C 	0.9388	0.6866	0.0482	0.001
Mof_H 	H 	0.9796	0.7118	0.0244	0.034
Mof_N 	N 	0.3346	0.8345	0.8879	-0.16
Mof_N 	N 	0.1658	0.9107	0.6794	-0.169
Mof_N 	N 	0.1101	0.6745	0.8354	-0.162
Mof_C 	C 	0.267	0.8211	0.8443	0.231
Mof_C 	C 	0.1589	0.7424	0.8169	0.229
Mof_C 	C 	0.2231	0.7554	0.8605	-0.292
Mof_H 	H 	0.2359	0.7204	0.8998	0.142
Mof_N 	N 	0.0492	0.5829	0.902	-0.141
Mof_C 	C 	0.0925	0.6472	0.9046	0.106
Mof_H 	H 	0.1091	0.6711	0.9494	0.001
Mof_C 	C 	0.1846	0.8583	0.7414	0.228
Mof_C 	C 	0.1394	0.792	0.7569	-0.286
Mof_H 	H 	0.0967	0.781	0.7274	0.133
Mof_C 	C 	0.2497	0.8732	0.7837	-0.279
Mof_H 	H 	0.2811	0.9168	0.7722	0.135
Mof_C 	C 	0.1035	0.9081	0.6367	0.109
Mof_H 	H 	0.0644	0.8711	0.6442	-0.011
Mof_C 	C 	0.3644	0.9061	0.9084	0.103
Mof_H 	H 	0.3438	0.9561	0.8959	0.006
Mof_C 	C 	0.0772	0.6228	0.7843	0.009
Mof_H 	H 	0.0801	0.6257	0.7316	0.023
Mof_C 	C 	0.3828	0.7752	0.9155	0.01
Mof_H 	H 	0.3772	0.7196	0.9098	0.03
Mof_C 	C 	0.0393	0.5667	0.8258	-0.004
Mof_H 	H 	0.0111	0.524	0.806	0.029
Mof_C 	C 	0.2089	0.9734	0.6509	0.05
Mof_H 	H 	0.256	0.9907	0.6686	0.015
Mof_N 	N 	0.1026	0.963	0.583	-0.131
Mof_C 	C 	0.1694	0.0043	0.593	-0.052
Mof_H 	H 	0.1851	0.048	0.5635	0.049
Mof_N 	N 	0.4272	0.8957	0.9488	-0.134
Mof_C 	C 	0.4388	0.8134	0.9518	0.002
Mof_H 	H 	0.4796	0.7882	0.9756	0.039
Mof_N 	N 	0.1654	0.1655	0.3879	-0.161
Mof_N 	N 	0.3342	0.0893	0.1794	-0.158
Mof_N 	N 	0.3899	0.3255	0.3354	-0.162
Mof_C 	C 	0.233	0.1789	0.3443	0.222
Mof_C 	C 	0.3411	0.2576	0.3169	0.224
Mof_C 	C 	0.2769	0.2446	0.3605	-0.289
Mof_H 	H 	0.2641	0.2796	0.3998	0.136
Mof_N 	N 	0.4508	0.4171	0.402	-0.145
Mof_C 	C 	0.4075	0.3528	0.4046	0.106
Mof_H 	H 	0.3909	0.3289	0.4494	-0.005
Mof_C 	C 	0.3154	0.1417	0.2414	0.218
Mof_C 	C 	0.3606	0.208	0.2569	-0.283
Mof_H 	H 	0.4033	0.219	0.2274	0.132
Mof_C 	C 	0.2503	0.1268	0.2837	-0.275
Mof_H 	H 	0.2189	0.0832	0.2722	0.127
Mof_C 	C 	0.3965	0.0919	0.1367	0.102
Mof_H 	H 	0.4356	0.1289	0.1442	-0.007
Mof_C 	C 	0.1356	0.0939	0.4084	0.096
Mof_H 	H 	0.1562	0.0439	0.3959	-0.004
Mof_C 	C 	0.4228	0.3772	0.2843	0.009
Mof_H 	H 	0.4199	0.3743	0.2316	0.024
Mof_C 	C 	0.1172	0.2248	0.4155	0.003
Mof_H 	H 	0.1228	0.2804	0.4098	0.025
Mof_C 	C 	0.4607	0.4333	0.3258	-0.003
Mof_H 	H 	0.4889	0.476	0.306	0.034
Mof_C 	C 	0.2911	0.0266	0.1509	-0.031
Mof_H 	H 	0.244	0.0093	0.1686	0.031
Mof_N 	N 	0.3974	0.037	0.083	-0.161
Mof_C 	C 	0.3306	0.9957	0.093	0.046
Mof_H 	H 	0.3149	0.952	0.0635	0.015
Mof_N 	N 	0.0728	0.1043	0.4488	-0.148
Mof_C 	C 	0.0612	0.1866	0.4518	-0.003
Mof_H 	H 	0.0204	0.2118	0.4756	0.024
Mof_Cd	Cd	-3.06259e-33	-4.93964e-33	0.5	0.338
Mof_Cd	Cd	0.5	0	-0	0.339
Mof_Cd	Cd	-4.93964e-33	0.5	-0	0.33
Mof_Cd	Cd	0.5	0.5	0.5	0.375
_end
