data_functionalizedCrystal
_audit_creation_method	'EQeq! by Chris Wilmer'
_symmetry_space_group_name_H-M	'P1'
_symmetry_Int_Tables_number	1
_symmetry_cell_setting	triclinic
loop_
_symmetry_equiv_pos_as_xyz
  x,y,z
_cell_length_a	7.6892
_cell_length_b	7.7385
_cell_length_c	13.0205
_cell_angle_alpha	90
_cell_angle_beta	90
_cell_angle_gamma	90
loop_
_atom_site_label
_atom_site_type_symbol
_atom_site_fract_x
_atom_site_fract_y
_atom_site_fract_z
_atom_site_charge
Mof_Zn	Zn	0.55141	0.49392	0.08401	1.251
Mof_C 	C 	0.4251	0.2261	0.23711	0.435
Mof_H 	H 	0.5329	0.1755	0.2251	-0.092
Mof_C 	C 	0.294	0.7709	0.02716	0.485
Mof_H 	H 	0.3573	0.7766	0.9664	-0.106
Mof_C 	C 	0.313	0.2685	0.9637	0.452
Mof_H 	H 	0.2461	0.2773	0.023	-0.101
Mof_O 	O 	0.39013	0.36258	0.19	-0.376
Mof_O 	O 	0.32545	0.15285	0.29924	-0.359
Mof_O 	O 	0.3433	0.6662	0.09153	-0.408
Mof_O 	O 	0.16726	0.87029	0.03528	-0.401
Mof_O 	O 	0.45045	0.3508	0.9608	-0.387
Mof_O 	O 	0.25623	0.1733	0.89259	-0.391
Mof_Zn	Zn	0.94859	0.50608	0.58401	1.252
Mof_C 	C 	0.0749	0.7739	0.73711	0.445
Mof_H 	H 	0.9671	0.8245	0.7251	-0.099
Mof_C 	C 	0.206	0.2291	0.52716	0.491
Mof_H 	H 	0.1427	0.2234	0.4664	-0.109
Mof_C 	C 	0.187	0.7315	0.4637	0.457
Mof_H 	H 	0.2539	0.7227	0.523	-0.104
Mof_O 	O 	0.10987	0.63742	0.69	-0.378
Mof_O 	O 	0.17455	0.84715	0.79924	-0.361
Mof_O 	O 	0.1567	0.3338	0.59153	-0.41
Mof_O 	O 	0.33274	0.12971	0.53528	-0.403
Mof_O 	O 	0.04955	0.6492	0.4608	-0.387
Mof_O 	O 	0.24377	0.8267	0.39259	-0.391
Mof_Zn	Zn	0.44859	0.99392	0.41599	1.252
Mof_C 	C 	0.5749	0.7261	0.26289	0.437
Mof_H 	H 	0.4671	0.6755	0.2749	-0.093
Mof_C 	C 	0.706	0.2709	0.47284	0.492
Mof_H 	H 	0.6427	0.2766	0.5336	-0.109
Mof_C 	C 	0.687	0.7685	0.5363	0.457
Mof_H 	H 	0.7539	0.7773	0.477	-0.106
Mof_O 	O 	0.60987	0.86258	0.31	-0.379
Mof_O 	O 	0.67455	0.65285	0.20076	-0.362
Mof_O 	O 	0.6567	0.1662	0.40847	-0.408
Mof_O 	O 	0.83274	0.37029	0.46472	-0.404
Mof_O 	O 	0.54955	0.8508	0.5392	-0.389
Mof_O 	O 	0.74377	0.6733	0.60741	-0.392
Mof_Zn	Zn	0.05141	0.00608	0.91599	1.251
Mof_C 	C 	0.9251	0.2739	0.76289	0.439
Mof_H 	H 	0.0329	0.3245	0.7749	-0.094
Mof_C 	C 	0.794	0.7291	0.97284	0.505
Mof_H 	H 	0.8573	0.7234	0.0336	-0.119
Mof_C 	C 	0.813	0.2315	0.0363	0.455
Mof_H 	H 	0.7461	0.2227	0.977	-0.103
Mof_O 	O 	0.89013	0.13742	0.81	-0.375
Mof_O 	O 	0.82545	0.34715	0.70076	-0.361
Mof_O 	O 	0.8433	0.8338	0.90847	-0.414
Mof_O 	O 	0.66726	0.62971	0.96472	-0.407
Mof_O 	O 	0.95045	0.1492	0.0392	-0.387
Mof_O 	O 	0.75623	0.3267	0.10741	-0.391
_end
