data_functionalizedCrystal
_audit_creation_method	'EQeq! by Chris Wilmer'
_symmetry_space_group_name_H-M	'P1'
_symmetry_Int_Tables_number	1
_symmetry_cell_setting	triclinic
loop_
_symmetry_equiv_pos_as_xyz
  x,y,z
_cell_length_a	14.944
_cell_length_b	16.94
_cell_length_c	10.384
_cell_angle_alpha	90
_cell_angle_beta	123.74
_cell_angle_gamma	90
loop_
_atom_site_label
_atom_site_type_symbol
_atom_site_fract_x
_atom_site_fract_y
_atom_site_fract_z
_atom_site_charge
Mof_Co	Co	0.1547	0.4518	0.67146	1.127
Mof_O 	O 	0.14317	0.49604	0.8527	-0.444
Mof_N 	N 	0.9909	0.47405	0.4898	-0.256
Mof_N 	N 	0.1994	0.57668	0.687	-0.202
Mof_O 	O 	0.18549	0.40247	0.5145	-0.423
Mof_N 	N 	0.1115	0.33807	0.7028	-0.263
Mof_C 	C 	0.1742	0.56537	0.8982	0.334
Mof_C 	C 	0.934	0.5375	0.4799	0.154
Mof_C 	C 	0.9406	0.42296	0.3708	0.152
Mof_S 	S 	0.23794	0.63992	0.60764	0.051
Mof_C 	C 	0.2018	0.61408	0.8031	-0.059
Mof_C 	C 	0.831	0.5524	0.3534	-0.271
Mof_H 	H 	0.9652	0.5732	0.5617	-0.017
Mof_C 	C 	0.8387	0.43427	0.2404	-0.276
Mof_H 	H 	0.9769	0.377	0.377	-0.013
Mof_N 	N 	0.2571	0.71612	0.7182	-0.109
Mof_C 	C 	0.2335	0.69454	0.8189	0.027
Mof_H 	H 	0.7949	0.5975	0.3517	0.14
Mof_C 	C 	0.7811	0.50088	0.2295	0.255
Mof_H 	H 	0.8089	0.3975	0.1604	0.145
Mof_C 	C 	0.2416	0.75506	0.9348	0.276
Mof_C 	C 	0.6708	0.5182	0.0852	-0.4
Mof_O 	O 	0.1585	0.79226	0.8941	-0.243
Mof_O 	O 	0.3317	0.76317	0.0572	-0.235
Mof_H 	H 	0.6196	0.5264	0.1136	0.142
Mof_H 	H 	0.6467	0.4733	0.0155	0.149
Mof_C 	C 	0.6749	0.5913	0.0036	0.187
Mof_C 	C 	0.5696	0.6115	0.8532	-0.394
Mof_H 	H 	0.6966	0.6359	0.0734	-0.015
Mof_H 	H 	0.7297	0.5835	0.9821	-0.026
Mof_H 	H 	0.5517	0.5705	0.7774	0.135
Mof_H 	H 	0.5124	0.614	0.8709	0.142
Mof_C 	C 	0.5784	0.68981	0.7915	0.241
Mof_C 	C 	0.5172	0.7554	0.777	-0.258
Mof_C 	C 	0.6534	0.7011	0.7544	-0.254
Mof_H 	H 	0.4639	0.7508	0.7969	0.129
Mof_C 	C 	0.5358	0.8272	0.7333	0.144
Mof_H 	H 	0.6948	0.6588	0.759	0.125
Mof_C 	C 	0.6672	0.77413	0.711	0.139
Mof_H 	H 	0.4939	0.8701	0.7244	-0.023
Mof_H 	H 	0.7177	0.7795	0.6859	-0.012
Mof_Co	Co	0.6547	0.9518	0.67146	1.129
Mof_O 	O 	0.64317	0.99604	0.8527	-0.442
Mof_N 	N 	0.4909	0.97405	0.4898	-0.26
Mof_N 	N 	0.6994	0.07668	0.687	-0.201
Mof_O 	O 	0.68549	0.90247	0.5145	-0.421
Mof_N 	N 	0.6115	0.83807	0.7028	-0.264
Mof_C 	C 	0.6742	0.06537	0.8982	0.335
Mof_C 	C 	0.434	0.0375	0.4799	0.153
Mof_C 	C 	0.4406	0.92296	0.3708	0.151
Mof_S 	S 	0.73794	0.13992	0.60764	0.056
Mof_C 	C 	0.7018	0.11408	0.8031	-0.057
Mof_C 	C 	0.331	0.0524	0.3534	-0.271
Mof_H 	H 	0.4652	0.0732	0.5617	-0.02
Mof_C 	C 	0.3387	0.93427	0.2404	-0.275
Mof_H 	H 	0.4769	0.877	0.377	-0.017
Mof_N 	N 	0.7571	0.21612	0.7182	-0.109
Mof_C 	C 	0.7335	0.19454	0.8189	0.028
Mof_H 	H 	0.2949	0.0975	0.3517	0.139
Mof_C 	C 	0.2811	0.00088	0.2295	0.252
Mof_H 	H 	0.3089	0.8975	0.1604	0.144
Mof_C 	C 	0.7416	0.25506	0.9348	0.275
Mof_C 	C 	0.1708	0.0182	0.0852	-0.396
Mof_O 	O 	0.6585	0.29226	0.8941	-0.24
Mof_O 	O 	0.8317	0.26317	0.0572	-0.233
Mof_H 	H 	0.1196	0.0264	0.1136	0.14
Mof_H 	H 	0.1467	0.9733	0.0155	0.147
Mof_C 	C 	0.1749	0.0913	0.0036	0.18
Mof_C 	C 	0.0696	0.1115	0.8532	-0.39
Mof_H 	H 	0.1966	0.1359	0.0734	-0.013
Mof_H 	H 	0.2297	0.0835	0.9821	-0.023
Mof_H 	H 	0.0517	0.0705	0.7774	0.132
Mof_H 	H 	0.0124	0.114	0.8709	0.138
Mof_C 	C 	0.0784	0.18981	0.7915	0.242
Mof_C 	C 	0.0172	0.2554	0.777	-0.272
Mof_C 	C 	0.1534	0.2011	0.7544	-0.255
Mof_H 	H 	0.9639	0.2508	0.7969	0.141
Mof_C 	C 	0.0358	0.3272	0.7333	0.13
Mof_H 	H 	0.1948	0.1588	0.759	0.125
Mof_C 	C 	0.1672	0.27413	0.711	0.138
Mof_H 	H 	0.9939	0.3701	0.7244	-0.012
Mof_H 	H 	0.2177	0.2795	0.6859	-0.013
Mof_Co	Co	0.1547	0.5482	0.17146	1.127
Mof_O 	O 	0.14317	0.50396	0.3527	-0.445
Mof_N 	N 	0.9909	0.52595	0.9898	-0.255
Mof_N 	N 	0.1994	0.42332	0.187	-0.202
Mof_O 	O 	0.18549	0.59753	0.0145	-0.421
Mof_N 	N 	0.1115	0.66193	0.2028	-0.262
Mof_C 	C 	0.1742	0.43463	0.3982	0.337
Mof_C 	C 	0.934	0.4625	0.9799	0.143
Mof_C 	C 	0.9406	0.57704	0.8708	0.148
Mof_S 	S 	0.23794	0.36008	0.10764	0.053
Mof_C 	C 	0.2018	0.38592	0.3031	-0.059
Mof_C 	C 	0.831	0.4476	0.8534	-0.262
Mof_H 	H 	0.9652	0.4268	0.0617	-0.011
Mof_C 	C 	0.8387	0.56573	0.7404	-0.27
Mof_H 	H 	0.9769	0.623	0.877	-0.013
Mof_N 	N 	0.2571	0.28388	0.2182	-0.109
Mof_C 	C 	0.2335	0.30546	0.3189	0.027
Mof_H 	H 	0.7949	0.4025	0.8517	0.136
Mof_C 	C 	0.7811	0.49912	0.7295	0.245
Mof_H 	H 	0.8089	0.6025	0.6604	0.142
Mof_C 	C 	0.2416	0.24494	0.4348	0.28
Mof_C 	C 	0.6708	0.4818	0.5852	-0.384
Mof_O 	O 	0.1585	0.20774	0.3941	-0.242
Mof_O 	O 	0.3317	0.23683	0.5572	-0.239
Mof_H 	H 	0.6196	0.4736	0.6136	0.137
Mof_H 	H 	0.6467	0.5267	0.5155	0.144
Mof_C 	C 	0.6749	0.4087	0.5036	0.163
Mof_C 	C 	0.5696	0.3885	0.3532	-0.377
Mof_H 	H 	0.6966	0.3641	0.5734	-0.008
Mof_H 	H 	0.7297	0.4165	0.4821	-0.016
Mof_H 	H 	0.5517	0.4295	0.2774	0.131
Mof_H 	H 	0.5124	0.386	0.3709	0.138
Mof_C 	C 	0.5784	0.31019	0.2915	0.234
Mof_C 	C 	0.5172	0.2446	0.277	-0.254
Mof_C 	C 	0.6534	0.2989	0.2544	-0.249
Mof_H 	H 	0.4639	0.2492	0.2969	0.128
Mof_C 	C 	0.5358	0.1728	0.2333	0.142
Mof_H 	H 	0.6948	0.3412	0.259	0.123
Mof_C 	C 	0.6672	0.22587	0.211	0.137
Mof_H 	H 	0.4939	0.1299	0.2244	-0.022
Mof_H 	H 	0.7177	0.2205	0.1859	-0.011
Mof_Co	Co	0.6547	0.0482	0.17146	1.129
Mof_O 	O 	0.64317	0.00396	0.3527	-0.442
Mof_N 	N 	0.4909	0.02595	0.9898	-0.258
Mof_N 	N 	0.6994	0.92332	0.187	-0.201
Mof_O 	O 	0.68549	0.09753	0.0145	-0.418
Mof_N 	N 	0.6115	0.16193	0.2028	-0.263
Mof_C 	C 	0.6742	0.93463	0.3982	0.339
Mof_C 	C 	0.434	0.9625	0.9799	0.142
Mof_C 	C 	0.4406	0.07704	0.8708	0.148
Mof_S 	S 	0.73794	0.86008	0.10764	0.059
Mof_C 	C 	0.7018	0.88592	0.3031	-0.057
Mof_C 	C 	0.331	0.9476	0.8534	-0.262
Mof_H 	H 	0.4652	0.9268	0.0617	-0.014
Mof_C 	C 	0.3387	0.06573	0.7404	-0.27
Mof_H 	H 	0.4769	0.123	0.877	-0.016
Mof_N 	N 	0.7571	0.78388	0.2182	-0.109
Mof_C 	C 	0.7335	0.80546	0.3189	0.029
Mof_H 	H 	0.2949	0.9025	0.8517	0.135
Mof_C 	C 	0.2811	0.99912	0.7295	0.244
Mof_H 	H 	0.3089	0.1025	0.6604	0.142
Mof_C 	C 	0.7416	0.74494	0.4348	0.279
Mof_C 	C 	0.1708	0.9818	0.5852	-0.382
Mof_O 	O 	0.6585	0.70774	0.3941	-0.24
Mof_O 	O 	0.8317	0.73683	0.5572	-0.236
Mof_H 	H 	0.1196	0.9736	0.6136	0.135
Mof_H 	H 	0.1467	0.0267	0.5155	0.142
Mof_C 	C 	0.1749	0.9087	0.5036	0.162
Mof_C 	C 	0.0696	0.8885	0.3532	-0.378
Mof_H 	H 	0.1966	0.8641	0.5734	-0.009
Mof_H 	H 	0.2297	0.9165	0.4821	-0.016
Mof_H 	H 	0.0517	0.9295	0.2774	0.129
Mof_H 	H 	0.0124	0.886	0.3709	0.135
Mof_C 	C 	0.0784	0.81019	0.2915	0.238
Mof_C 	C 	0.0172	0.7446	0.277	-0.27
Mof_C 	C 	0.1534	0.7989	0.2544	-0.252
Mof_H 	H 	0.9639	0.7492	0.2969	0.142
Mof_C 	C 	0.0358	0.6728	0.2333	0.129
Mof_H 	H 	0.1948	0.8412	0.259	0.124
Mof_C 	C 	0.1672	0.72587	0.211	0.137
Mof_H 	H 	0.9939	0.6299	0.2244	-0.01
Mof_H 	H 	0.2177	0.7205	0.1859	-0.012
_end
