data_functionalizedCrystal
_audit_creation_method	'EQeq! by Chris Wilmer'
_symmetry_space_group_name_H-M	'P1'
_symmetry_Int_Tables_number	1
_symmetry_cell_setting	triclinic
loop_
_symmetry_equiv_pos_as_xyz
  x,y,z
_cell_length_a	8.522
_cell_length_b	10.18
_cell_length_c	17.534
_cell_angle_alpha	90
_cell_angle_beta	100.627
_cell_angle_gamma	90
loop_
_atom_site_label
_atom_site_type_symbol
_atom_site_fract_x
_atom_site_fract_y
_atom_site_fract_z
_atom_site_charge
Mof_Cu	Cu	0.01522	0.67292	0.09536	0.916
Mof_Cu	Cu	0.48478	0.17292	0.40464	0.917
Mof_Cu	Cu	0.98478	0.32708	0.90464	0.916
Mof_Cu	Cu	0.51522	0.82708	0.59536	0.917
Mof_H 	H 	0.4327	0.3864	0.0363	0.069
Mof_H 	H 	0.4945	0.2778	0.1562	0.039
Mof_H 	H 	0.1603	0.497	0.2278	0.024
Mof_H 	H 	0.7209	0.7424	0.1403	0.007
Mof_H 	H 	0.4947	0.8678	0.103	0.093
Mof_H 	H 	0.6995	0.0105	0.9323	0.097
Mof_H 	H 	0.9177	0.883	0.9772	0.005
Mof_H 	H 	0.0673	0.8864	0.4637	0.07
Mof_H 	H 	0.0055	0.7778	0.3438	0.038
Mof_H 	H 	0.3397	0.997	0.2722	0.024
Mof_H 	H 	0.7791	0.2424	0.3597	0.007
Mof_H 	H 	0.0053	0.3678	0.397	0.093
Mof_H 	H 	0.8005	0.5105	0.5677	0.101
Mof_H 	H 	0.5823	0.383	0.5228	0.004
Mof_H 	H 	0.5673	0.6136	0.9637	0.069
Mof_H 	H 	0.5055	0.7222	0.8438	0.039
Mof_H 	H 	0.8397	0.503	0.7722	0.024
Mof_H 	H 	0.2791	0.2576	0.8597	0.007
Mof_H 	H 	0.5053	0.1322	0.897	0.093
Mof_H 	H 	0.3005	0.9895	0.0677	0.097
Mof_H 	H 	0.0823	0.117	0.0228	0.005
Mof_H 	H 	0.9327	0.1136	0.5363	0.07
Mof_H 	H 	0.9945	0.2222	0.6562	0.038
Mof_H 	H 	0.6603	0.003	0.7278	0.024
Mof_H 	H 	0.2209	0.7576	0.6403	0.007
Mof_H 	H 	0.9947	0.6322	0.603	0.093
Mof_H 	H 	0.1995	0.4895	0.4323	0.101
Mof_H 	H 	0.4177	0.617	0.4772	0.004
Mof_C 	C 	0.267	0.5046	0.0664	0.035
Mof_C 	C 	0.3802	0.4084	0.0765	-0.094
Mof_C 	C 	0.4169	0.3431	0.1477	0.04
Mof_C 	C 	0.333	0.3792	0.2057	-0.107
Mof_C 	C 	0.3636	0.3166	0.2846	0.325
Mof_C 	C 	0.2188	0.4753	0.1897	0.082
Mof_C 	C 	0.7155	0.7973	0.0975	0.094
Mof_C 	C 	0.5788	0.8733	0.0761	-0.145
Mof_C 	C 	0.5717	0.9579	0.0132	0.065
Mof_C 	C 	0.7005	0.9576	0.9756	-0.145
Mof_C 	C 	0.8306	0.8789	0.0022	0.098
Mof_C 	C 	0.233	0.0046	0.4336	0.038
Mof_C 	C 	0.1198	0.9084	0.4235	-0.096
Mof_C 	C 	0.0831	0.8431	0.3523	0.041
Mof_C 	C 	0.167	0.8792	0.2943	-0.108
Mof_C 	C 	0.1364	0.8166	0.2154	0.325
Mof_C 	C 	0.2812	0.9753	0.3103	0.082
Mof_C 	C 	0.7845	0.2973	0.4025	0.095
Mof_C 	C 	0.9212	0.3733	0.4239	-0.145
Mof_C 	C 	0.9283	0.4579	0.4868	0.068
Mof_C 	C 	0.7995	0.4576	0.5244	-0.152
Mof_C 	C 	0.6694	0.3789	0.4978	0.101
Mof_C 	C 	0.733	0.4954	0.9336	0.035
Mof_C 	C 	0.6198	0.5916	0.9235	-0.094
Mof_C 	C 	0.5831	0.6569	0.8523	0.04
Mof_C 	C 	0.667	0.6208	0.7943	-0.107
Mof_C 	C 	0.6364	0.6834	0.7154	0.325
Mof_C 	C 	0.7812	0.5247	0.8103	0.082
Mof_C 	C 	0.2845	0.2027	0.9025	0.094
Mof_C 	C 	0.4212	0.1267	0.9239	-0.145
Mof_C 	C 	0.4283	0.0421	0.9868	0.065
Mof_C 	C 	0.2995	0.0424	0.0244	-0.145
Mof_C 	C 	0.1694	0.1211	0.9978	0.098
Mof_C 	C 	0.767	0.9954	0.5664	0.038
Mof_C 	C 	0.8802	0.0916	0.5765	-0.096
Mof_C 	C 	0.9169	0.1569	0.6477	0.041
Mof_C 	C 	0.833	0.1208	0.7057	-0.108
Mof_C 	C 	0.8636	0.1834	0.7846	0.325
Mof_C 	C 	0.7188	0.0247	0.6897	0.082
Mof_C 	C 	0.2155	0.7027	0.5975	0.095
Mof_C 	C 	0.0788	0.6267	0.5761	-0.145
Mof_C 	C 	0.0717	0.5421	0.5132	0.068
Mof_C 	C 	0.2005	0.5424	0.4756	-0.152
Mof_C 	C 	0.3306	0.6211	0.5022	0.101
Mof_S 	S 	0.2164	0.59668	0.97645	0.227
Mof_S 	S 	0.2836	0.09668	0.52355	0.225
Mof_S 	S 	0.7836	0.40332	0.02355	0.227
Mof_S 	S 	0.7164	0.90332	0.47645	0.225
Mof_N 	N 	0.8372	0.7981	0.0615	-0.224
Mof_N 	N 	0.1877	0.5395	0.1219	-0.206
Mof_N 	N 	0.6628	0.2981	0.4385	-0.225
Mof_N 	N 	0.3123	0.0395	0.3781	-0.206
Mof_N 	N 	0.1628	0.2019	0.9385	-0.224
Mof_N 	N 	0.8123	0.4605	0.8781	-0.206
Mof_N 	N 	0.3372	0.7019	0.5615	-0.225
Mof_N 	N 	0.6877	0.9605	0.6219	-0.206
Mof_O 	O 	0.4697	0.2248	0.2953	-0.37
Mof_O 	O 	0.2908	0.3535	0.3345	-0.317
Mof_O 	O 	0.1774	0.4919	0.9168	-0.278
Mof_O 	O 	0.0666	0.6655	0.9902	-0.328
Mof_O 	O 	0.0303	0.7248	0.2047	-0.371
Mof_O 	O 	0.2092	0.8535	0.1655	-0.318
Mof_O 	O 	0.3226	0.9919	0.5832	-0.279
Mof_O 	O 	0.4334	0.1655	0.5098	-0.331
Mof_O 	O 	0.5303	0.7752	0.7047	-0.37
Mof_O 	O 	0.7092	0.6465	0.6655	-0.317
Mof_O 	O 	0.8226	0.5081	0.0832	-0.278
Mof_O 	O 	0.9334	0.3345	0.0098	-0.328
Mof_O 	O 	0.9697	0.2752	0.7953	-0.371
Mof_O 	O 	0.7908	0.1465	0.8345	-0.318
Mof_O 	O 	0.6774	0.0081	0.4168	-0.279
Mof_O 	O 	0.5666	0.8345	0.4902	-0.331
_end
