data_functionalizedCrystal
_audit_creation_method	'EQeq! by Chris Wilmer'
_symmetry_space_group_name_H-M	'P1'
_symmetry_Int_Tables_number	1
_symmetry_cell_setting	triclinic
loop_
_symmetry_equiv_pos_as_xyz
  x,y,z
_cell_length_a	28.0942
_cell_length_b	28.0942
_cell_length_c	6.2846
_cell_angle_alpha	90
_cell_angle_beta	90
_cell_angle_gamma	120
loop_
_atom_site_label
_atom_site_type_symbol
_atom_site_fract_x
_atom_site_fract_y
_atom_site_fract_z
_atom_site_charge
Mof_Co	Co	0.3068	0.03248	0.7168	1.125
Mof_P 	P 	0.4224	0.031	0.5705	0.437
Mof_O 	O 	0.4747	0.0825	0.522	-0.264
Mof_O 	O 	0.3896	0.0445	0.7185	-0.518
Mof_O 	O 	0.385	0.0029	0.3842	-0.532
Mof_N 	N 	0.44779	0.9944	0.9557	-0.18
Mof_C 	C 	0.4394	0.9847	0.7173	-0.068
Mof_C 	C 	0.4975	0.0508	0.001	-0.044
Mof_C 	C 	0.4515	0.9497	0.08	0.037
Mof_Co	Co	0.97347	0.36581	0.05013	1.126
Mof_P 	P 	0.08907	0.36433	0.90383	0.437
Mof_O 	O 	0.14137	0.41583	0.85533	-0.264
Mof_O 	O 	0.05627	0.37783	0.05183	-0.517
Mof_O 	O 	0.05167	0.33623	0.71753	-0.531
Mof_N 	N 	0.11446	0.32773	0.28903	-0.179
Mof_C 	C 	0.10607	0.31803	0.05063	-0.066
Mof_C 	C 	0.16417	0.38413	0.33433	-0.042
Mof_C 	C 	0.11817	0.28303	0.41333	0.036
Mof_Co	Co	0.64013	0.69915	0.38347	1.126
Mof_P 	P 	0.75573	0.69767	0.23717	0.438
Mof_O 	O 	0.80803	0.74917	0.18867	-0.264
Mof_O 	O 	0.72293	0.71117	0.38517	-0.517
Mof_O 	O 	0.71833	0.66957	0.05087	-0.532
Mof_N 	N 	0.78112	0.66107	0.62237	-0.179
Mof_C 	C 	0.77273	0.65137	0.38397	-0.067
Mof_C 	C 	0.83083	0.71747	0.66767	-0.042
Mof_C 	C 	0.78483	0.61637	0.74667	0.037
Mof_Co	Co	0.96752	0.27432	0.7168	1.126
Mof_P 	P 	0.969	0.3914	0.5705	0.438
Mof_O 	O 	0.9175	0.3922	0.522	-0.263
Mof_O 	O 	0.9555	0.3451	0.7185	-0.517
Mof_O 	O 	0.9971	0.3821	0.3842	-0.531
Mof_N 	N 	0.0056	0.45339	0.9557	-0.179
Mof_C 	C 	0.0153	0.4547	0.7173	-0.067
Mof_C 	C 	0.9492	0.4467	0.001	-0.043
Mof_C 	C 	0.0503	0.5018	0.08	0.037
Mof_Co	Co	0.63419	0.60765	0.05013	1.126
Mof_P 	P 	0.63567	0.72473	0.90383	0.437
Mof_O 	O 	0.58417	0.72553	0.85533	-0.264
Mof_O 	O 	0.62217	0.67843	0.05183	-0.517
Mof_O 	O 	0.66377	0.71543	0.71753	-0.531
Mof_N 	N 	0.67227	0.78672	0.28903	-0.179
Mof_C 	C 	0.68197	0.78803	0.05063	-0.066
Mof_C 	C 	0.61587	0.78003	0.33433	-0.042
Mof_C 	C 	0.71697	0.83513	0.41333	0.036
Mof_Co	Co	0.30085	0.94099	0.38347	1.126
Mof_P 	P 	0.30233	0.05807	0.23717	0.438
Mof_O 	O 	0.25083	0.05887	0.18867	-0.263
Mof_O 	O 	0.28883	0.01177	0.38517	-0.517
Mof_O 	O 	0.33043	0.04877	0.05087	-0.532
Mof_N 	N 	0.33893	0.12006	0.62237	-0.179
Mof_C 	C 	0.34863	0.12137	0.38397	-0.067
Mof_C 	C 	0.28253	0.11337	0.66767	-0.042
Mof_C 	C 	0.38363	0.16847	0.74667	0.037
Mof_Co	Co	0.72568	0.6932	0.7168	1.126
Mof_P 	P 	0.6086	0.5776	0.5705	0.438
Mof_O 	O 	0.6078	0.5253	0.522	-0.263
Mof_O 	O 	0.6549	0.6104	0.7185	-0.517
Mof_O 	O 	0.6179	0.615	0.3842	-0.531
Mof_N 	N 	0.54661	0.55221	0.9557	-0.179
Mof_C 	C 	0.5453	0.5606	0.7173	-0.067
Mof_C 	C 	0.5533	0.5025	0.001	-0.043
Mof_C 	C 	0.4982	0.5485	0.08	0.037
Mof_Co	Co	0.39235	0.02653	0.05013	1.126
Mof_P 	P 	0.27527	0.91093	0.90383	0.437
Mof_O 	O 	0.27447	0.85863	0.85533	-0.264
Mof_O 	O 	0.32157	0.94373	0.05183	-0.517
Mof_O 	O 	0.28457	0.94833	0.71753	-0.531
Mof_N 	N 	0.21328	0.88554	0.28903	-0.179
Mof_C 	C 	0.21197	0.89393	0.05063	-0.066
Mof_C 	C 	0.21997	0.83583	0.33433	-0.042
Mof_C 	C 	0.16487	0.88183	0.41333	0.036
Mof_Co	Co	0.05901	0.35987	0.38347	1.126
Mof_P 	P 	0.94193	0.24427	0.23717	0.438
Mof_O 	O 	0.94113	0.19197	0.18867	-0.264
Mof_O 	O 	0.98823	0.27707	0.38517	-0.517
Mof_O 	O 	0.95123	0.28167	0.05087	-0.532
Mof_N 	N 	0.87994	0.21888	0.62237	-0.179
Mof_C 	C 	0.87863	0.22727	0.38397	-0.067
Mof_C 	C 	0.88663	0.16917	0.66767	-0.042
Mof_C 	C 	0.83153	0.21517	0.74667	0.037
Mof_Co	Co	0.6932	0.96752	0.2832	1.126
Mof_P 	P 	0.5776	0.969	0.4295	0.438
Mof_O 	O 	0.5253	0.9175	0.478	-0.263
Mof_O 	O 	0.6104	0.9555	0.2815	-0.517
Mof_O 	O 	0.615	0.9971	0.6158	-0.531
Mof_N 	N 	0.55221	0.0056	0.0443	-0.179
Mof_C 	C 	0.5606	0.0153	0.2827	-0.067
Mof_C 	C 	0.5025	0.9492	0.999	-0.043
Mof_C 	C 	0.5485	0.0503	0.92	0.037
Mof_Co	Co	0.35987	0.30085	0.61653	1.126
Mof_P 	P 	0.24427	0.30233	0.76283	0.438
Mof_O 	O 	0.19197	0.25083	0.81133	-0.264
Mof_O 	O 	0.27707	0.28883	0.61483	-0.517
Mof_O 	O 	0.28167	0.33043	0.94913	-0.532
Mof_N 	N 	0.21888	0.33893	0.37763	-0.179
Mof_C 	C 	0.22727	0.34863	0.61603	-0.067
Mof_C 	C 	0.16917	0.28253	0.33233	-0.042
Mof_C 	C 	0.21517	0.38363	0.25333	0.037
Mof_Co	Co	0.02653	0.63419	0.94987	1.126
Mof_P 	P 	0.91093	0.63567	0.09617	0.437
Mof_O 	O 	0.85863	0.58417	0.14467	-0.264
Mof_O 	O 	0.94373	0.62217	0.94817	-0.517
Mof_O 	O 	0.94833	0.66377	0.28247	-0.531
Mof_N 	N 	0.88554	0.67227	0.71097	-0.179
Mof_C 	C 	0.89393	0.68197	0.94937	-0.066
Mof_C 	C 	0.83583	0.61587	0.66567	-0.042
Mof_C 	C 	0.88183	0.71697	0.58667	0.036
Mof_Co	Co	0.03248	0.72568	0.2832	1.126
Mof_P 	P 	0.031	0.6086	0.4295	0.438
Mof_O 	O 	0.0825	0.6078	0.478	-0.263
Mof_O 	O 	0.0445	0.6549	0.2815	-0.517
Mof_O 	O 	0.0029	0.6179	0.6158	-0.531
Mof_N 	N 	0.9944	0.54661	0.0443	-0.179
Mof_C 	C 	0.9847	0.5453	0.2827	-0.067
Mof_C 	C 	0.0508	0.5533	0.999	-0.043
Mof_C 	C 	0.9497	0.4982	0.92	0.037
Mof_Co	Co	0.69915	0.05901	0.61653	1.126
Mof_P 	P 	0.69767	0.94193	0.76283	0.438
Mof_O 	O 	0.74917	0.94113	0.81133	-0.263
Mof_O 	O 	0.71117	0.98823	0.61483	-0.517
Mof_O 	O 	0.66957	0.95123	0.94913	-0.532
Mof_N 	N 	0.66107	0.87994	0.37763	-0.179
Mof_C 	C 	0.65137	0.87863	0.61603	-0.067
Mof_C 	C 	0.71747	0.88663	0.33233	-0.042
Mof_C 	C 	0.61637	0.83153	0.25333	0.037
Mof_Co	Co	0.36581	0.39235	0.94987	1.126
Mof_P 	P 	0.36433	0.27527	0.09617	0.437
Mof_O 	O 	0.41583	0.27447	0.14467	-0.264
Mof_O 	O 	0.37783	0.32157	0.94817	-0.517
Mof_O 	O 	0.33623	0.28457	0.28247	-0.531
Mof_N 	N 	0.32773	0.21328	0.71097	-0.179
Mof_C 	C 	0.31803	0.21197	0.94937	-0.066
Mof_C 	C 	0.38413	0.21997	0.66567	-0.042
Mof_C 	C 	0.28303	0.16487	0.58667	0.036
Mof_Co	Co	0.27432	0.3068	0.2832	1.126
Mof_P 	P 	0.3914	0.4224	0.4295	0.438
Mof_O 	O 	0.3922	0.4747	0.478	-0.263
Mof_O 	O 	0.3451	0.3896	0.2815	-0.517
Mof_O 	O 	0.3821	0.385	0.6158	-0.531
Mof_N 	N 	0.45339	0.44779	0.0443	-0.179
Mof_C 	C 	0.4547	0.4394	0.2827	-0.067
Mof_C 	C 	0.4467	0.4975	0.999	-0.043
Mof_C 	C 	0.5018	0.4515	0.92	0.037
Mof_Co	Co	0.94099	0.64013	0.61653	1.126
Mof_P 	P 	0.05807	0.75573	0.76283	0.438
Mof_O 	O 	0.05887	0.80803	0.81133	-0.264
Mof_O 	O 	0.01177	0.72293	0.61483	-0.517
Mof_O 	O 	0.04877	0.71833	0.94913	-0.532
Mof_N 	N 	0.12006	0.78112	0.37763	-0.179
Mof_C 	C 	0.12137	0.77273	0.61603	-0.067
Mof_C 	C 	0.11337	0.83083	0.33233	-0.042
Mof_C 	C 	0.16847	0.78483	0.25333	0.037
Mof_Co	Co	0.60765	0.97347	0.94987	1.126
Mof_P 	P 	0.72473	0.08907	0.09617	0.437
Mof_O 	O 	0.72553	0.14137	0.14467	-0.264
Mof_O 	O 	0.67843	0.05627	0.94817	-0.517
Mof_O 	O 	0.71543	0.05167	0.28247	-0.531
Mof_N 	N 	0.78672	0.11446	0.71097	-0.179
Mof_C 	C 	0.78803	0.10607	0.94937	-0.066
Mof_C 	C 	0.78003	0.16417	0.66567	-0.042
Mof_C 	C 	0.83513	0.11817	0.58667	0.036
_end
