data_functionalizedCrystal
_audit_creation_method	'EQeq! by Chris Wilmer'
_symmetry_space_group_name_H-M	'P1'
_symmetry_Int_Tables_number	1
_symmetry_cell_setting	triclinic
loop_
_symmetry_equiv_pos_as_xyz
  x,y,z
_cell_length_a	6.997
_cell_length_b	25.4831
_cell_length_c	28.2642
_cell_angle_alpha	90
_cell_angle_beta	92.712
_cell_angle_gamma	90
loop_
_atom_site_label
_atom_site_type_symbol
_atom_site_fract_x
_atom_site_fract_y
_atom_site_fract_z
_atom_site_charge
Mof_Mn	Mn	0.2006	0.93068	0.24834	0.917
Mof_Mn	Mn	0.65369	0.53332	0.73533	0.817
Mof_O 	O 	0.8781	0.5841	0.76825	-0.427
Mof_O 	O 	0.4677	0.89828	0.22233	-0.427
Mof_O 	O 	0.5392	0.47257	0.2063	-0.413
Mof_O 	O 	0.1243	0.6215	0.80406	-0.365
Mof_O 	O 	0.2083	0.8644	0.18867	-0.334
Mof_O 	O 	0.8333	0.01499	0.80837	-0.401
Mof_C 	C 	0.9907	0.7593	0.0416	0.02
Mof_C 	C 	0.0626	0.7862	0.9587	0.027
Mof_O 	O 	0.5427	0.9795	0.8014	-0.398
Mof_C 	C 	0.3554	0.7126	0.9582	0.024
Mof_O 	O 	0.8284	0.5026	0.20308	-0.349
Mof_C 	C 	0.2841	0.6868	0.0422	0.025
Mof_C 	C 	0.0963	0.7536	0.0005	-0.014
Mof_C 	C 	0.3842	0.8682	0.1908	0.364
Mof_C 	C 	0.246	0.7176	0.999	-0.017
Mof_C 	C 	0.7139	0.9796	0.8166	0.403
Mof_C 	C 	0.508	0.6749	0.961	-0.031
Mof_C 	C 	0.9487	0.6121	0.8012	0.38
Mof_C 	C 	0.8312	0.6328	0.8396	-0.16
Mof_C 	C 	0.02	0.7272	0.0823	-0.057
Mof_H 	H 	0.9402	0.7297	0.1076	0.053
Mof_C 	C 	0.3276	0.7437	0.9164	-0.065
Mof_H 	H 	0.4036	0.7399	0.8905	0.059
Mof_C 	C 	0.443	0.6508	0.0382	-0.03
Mof_C 	C 	0.1825	0.6894	0.0832	-0.069
Mof_H 	H 	0.214	0.6688	0.1096	0.058
Mof_C 	C 	0.8045	0.8248	0.1243	-0.167
Mof_H 	H 	0.9374	0.8257	0.1275	0.102
Mof_C 	C 	0.8616	0.8609	0.9204	0.097
Mof_C 	C 	0.622	0.6635	0.9175	0.091
Mof_C 	C 	0.5913	0.5428	0.1536	-0.15
Mof_C 	C 	0.9103	0.8222	0.9617	-0.038
Mof_C 	C 	0.4947	0.6134	0.0808	0.088
Mof_C 	C 	0.9529	0.9311	0.8677	0.098
Mof_H 	H 	0.0482	0.9524	0.8563	-0.003
Mof_C 	C 	0.1663	0.7831	0.9171	-0.066
Mof_H 	H 	0.1365	0.8045	0.8911	0.057
Mof_C 	C 	0.7728	0.9373	0.8512	-0.173
Mof_C 	C 	0.6974	0.8395	0.1634	0.088
Mof_H 	H 	0.7575	0.8476	0.1925	0.007
Mof_C 	C 	0.7189	0.8092	0.0818	0.105
Mof_C 	C 	0.5515	0.6467	0.0003	-0.045
Mof_H 	H 	0.6566	0.6243	0.0012	0.05
Mof_C 	C 	0.5042	0.8413	0.157	-0.167
Mof_C 	C 	0.6538	0.5048	0.1904	0.372
Mof_C 	C 	0.7979	0.8262	0.9992	-0.04
Mof_H 	H 	0.6935	0.8488	0.9979	0.047
Mof_C 	C 	0.5317	0.6476	0.8728	-0.158
Mof_H 	H 	0.3989	0.6475	0.8693	0.102
Mof_C 	C 	0.6369	0.6329	0.8357	0.098
Mof_H 	H 	0.575	0.6228	0.8073	0.011
Mof_C 	C 	0.9224	0.6482	0.8823	0.081
Mof_H 	H 	0.0554	0.6482	0.8851	0.018
Mof_C 	C 	0.6317	0.9047	0.8696	0.096
Mof_H 	H 	0.5056	0.9083	0.8582	0.004
Mof_C 	C 	0.4199	0.8219	0.1143	0.097
Mof_H 	H 	0.2874	0.8185	0.1119	0.009
Mof_C 	C 	0.8382	0.7967	0.0393	-0.038
Mof_C 	C 	0.6782	0.6112	0.0987	-0.149
Mof_H 	H 	0.7684	0.6342	0.0873	0.084
Mof_C 	C 	0.001	0.893	0.9017	-0.161
Mof_H 	H 	0.1282	0.889	0.9121	0.086
Mof_C 	C 	0.3569	0.5799	0.0997	-0.144
Mof_H 	H 	0.2307	0.5817	0.0879	0.082
Mof_C 	C 	0.5192	0.8081	0.077	-0.173
Mof_H 	H 	0.4571	0.7979	0.0487	0.098
Mof_C 	C 	0.8201	0.6635	0.9203	-0.153
Mof_H 	H 	0.8848	0.6739	0.9482	0.09
Mof_C 	C 	0.4065	0.544	0.136	0.073
Mof_H 	H 	0.3153	0.5216	0.1477	0.009
Mof_C 	C 	0.6733	0.8686	0.9031	-0.168
Mof_H 	H 	0.5755	0.8485	0.915	0.09
Mof_C 	C 	0.7332	0.5757	0.1334	0.069
Mof_H 	H 	0.8611	0.573	0.1437	0.017
Mof_Mn	Mn	0.7994	0.43068	0.25166	0.916
Mof_Mn	Mn	0.34631	0.03332	0.76467	0.816
Mof_O 	O 	0.1219	0.0841	0.73175	-0.428
Mof_O 	O 	0.5323	0.39828	0.27767	-0.428
Mof_O 	O 	0.4608	0.97257	0.2937	-0.414
Mof_O 	O 	0.8757	0.1215	0.69594	-0.366
Mof_O 	O 	0.7917	0.3644	0.31133	-0.335
Mof_O 	O 	0.1667	0.51499	0.69163	-0.402
Mof_C 	C 	0.0093	0.2593	0.4584	0.018
Mof_C 	C 	0.9374	0.2862	0.5413	0.026
Mof_O 	O 	0.4573	0.4795	0.6986	-0.399
Mof_C 	C 	0.6446	0.2126	0.5418	0.023
Mof_O 	O 	0.1716	0.0026	0.29692	-0.35
Mof_C 	C 	0.7159	0.1868	0.4578	0.024
Mof_C 	C 	0.9037	0.2536	0.4995	-0.015
Mof_C 	C 	0.6158	0.3682	0.3092	0.363
Mof_C 	C 	0.754	0.2176	0.501	-0.019
Mof_C 	C 	0.2861	0.4796	0.6834	0.403
Mof_C 	C 	0.492	0.1749	0.539	-0.032
Mof_C 	C 	0.0513	0.1121	0.6988	0.379
Mof_C 	C 	0.1688	0.1328	0.6604	-0.159
Mof_C 	C 	0.98	0.2272	0.4177	-0.056
Mof_H 	H 	0.0598	0.2297	0.3924	0.053
Mof_C 	C 	0.6724	0.2437	0.5836	-0.065
Mof_H 	H 	0.5964	0.2399	0.6095	0.059
Mof_C 	C 	0.557	0.1508	0.4618	-0.03
Mof_C 	C 	0.8175	0.1894	0.4168	-0.069
Mof_H 	H 	0.786	0.1688	0.3904	0.058
Mof_C 	C 	0.1955	0.3248	0.3757	-0.167
Mof_H 	H 	0.0626	0.3257	0.3725	0.103
Mof_C 	C 	0.1384	0.3609	0.5796	0.098
Mof_C 	C 	0.378	0.1635	0.5825	0.091
Mof_C 	C 	0.4087	0.0428	0.3464	-0.15
Mof_C 	C 	0.0897	0.3222	0.5383	-0.038
Mof_C 	C 	0.5053	0.1134	0.4192	0.088
Mof_C 	C 	0.0471	0.4311	0.6323	0.1
Mof_H 	H 	0.9518	0.4524	0.6437	-0.003
Mof_C 	C 	0.8337	0.2831	0.5829	-0.066
Mof_H 	H 	0.8635	0.3045	0.6089	0.057
Mof_C 	C 	0.2272	0.4373	0.6488	-0.174
Mof_C 	C 	0.3026	0.3395	0.3366	0.088
Mof_H 	H 	0.2425	0.3476	0.3075	0.007
Mof_C 	C 	0.2811	0.3092	0.4182	0.105
Mof_C 	C 	0.4485	0.1467	0.4997	-0.045
Mof_H 	H 	0.3434	0.1243	0.4988	0.05
Mof_C 	C 	0.4958	0.3413	0.343	-0.167
Mof_C 	C 	0.3462	0.0048	0.3096	0.372
Mof_C 	C 	0.2021	0.3262	0.5008	-0.04
Mof_H 	H 	0.3065	0.3488	0.5021	0.047
Mof_C 	C 	0.4683	0.1476	0.6272	-0.157
Mof_H 	H 	0.6011	0.1475	0.6307	0.102
Mof_C 	C 	0.3631	0.1329	0.6643	0.098
Mof_H 	H 	0.425	0.1228	0.6927	0.011
Mof_C 	C 	0.0776	0.1482	0.6177	0.08
Mof_H 	H 	0.9446	0.1482	0.6149	0.018
Mof_C 	C 	0.3683	0.4047	0.6304	0.097
Mof_H 	H 	0.4944	0.4083	0.6418	0.004
Mof_C 	C 	0.5801	0.3219	0.3857	0.097
Mof_H 	H 	0.7126	0.3185	0.3881	0.009
Mof_C 	C 	0.1618	0.2967	0.4607	-0.037
Mof_C 	C 	0.3218	0.1112	0.4013	-0.149
Mof_H 	H 	0.2316	0.1342	0.4127	0.084
Mof_C 	C 	0.999	0.393	0.5983	-0.163
Mof_H 	H 	0.8718	0.389	0.5879	0.087
Mof_C 	C 	0.6431	0.0799	0.4003	-0.144
Mof_H 	H 	0.7693	0.0817	0.4121	0.082
Mof_C 	C 	0.4808	0.3081	0.423	-0.173
Mof_H 	H 	0.5429	0.2979	0.4513	0.098
Mof_C 	C 	0.1799	0.1635	0.5797	-0.153
Mof_H 	H 	0.1152	0.1739	0.5518	0.09
Mof_C 	C 	0.5935	0.044	0.364	0.073
Mof_H 	H 	0.6847	0.0216	0.3523	0.009
Mof_C 	C 	0.3267	0.3686	0.5969	-0.169
Mof_H 	H 	0.4245	0.3485	0.585	0.09
Mof_C 	C 	0.2668	0.0757	0.3666	0.069
Mof_H 	H 	0.1389	0.073	0.3563	0.017
Mof_Mn	Mn	0.7994	0.06932	0.75166	0.916
Mof_Mn	Mn	0.34631	0.46668	0.26467	0.816
Mof_O 	O 	0.1219	0.4159	0.23175	-0.428
Mof_O 	O 	0.5323	0.10172	0.77767	-0.428
Mof_O 	O 	0.4608	0.52743	0.7937	-0.414
Mof_O 	O 	0.8757	0.3785	0.19594	-0.366
Mof_O 	O 	0.7917	0.1356	0.81133	-0.335
Mof_O 	O 	0.1667	0.98501	0.19163	-0.402
Mof_C 	C 	0.0093	0.2407	0.9584	0.019
Mof_C 	C 	0.9374	0.2138	0.0413	0.026
Mof_O 	O 	0.4573	0.0205	0.1986	-0.399
Mof_C 	C 	0.6446	0.2874	0.0418	0.023
Mof_O 	O 	0.1716	0.4974	0.79692	-0.35
Mof_C 	C 	0.7159	0.3132	0.9578	0.024
Mof_C 	C 	0.9037	0.2464	0.9995	-0.015
Mof_C 	C 	0.6158	0.1318	0.8092	0.363
Mof_C 	C 	0.754	0.2824	0.001	-0.018
Mof_C 	C 	0.2861	0.0204	0.1834	0.402
Mof_C 	C 	0.492	0.3251	0.039	-0.032
Mof_C 	C 	0.0513	0.3879	0.1988	0.379
Mof_C 	C 	0.1688	0.3672	0.1604	-0.16
Mof_C 	C 	0.98	0.2728	0.9177	-0.057
Mof_H 	H 	0.0598	0.2703	0.8924	0.053
Mof_C 	C 	0.6724	0.2563	0.0836	-0.065
Mof_H 	H 	0.5964	0.2601	0.1095	0.059
Mof_C 	C 	0.557	0.3492	0.9618	-0.03
Mof_C 	C 	0.8175	0.3106	0.9168	-0.069
Mof_H 	H 	0.786	0.3312	0.8904	0.058
Mof_C 	C 	0.1955	0.1752	0.8757	-0.167
Mof_H 	H 	0.0626	0.1743	0.8725	0.102
Mof_C 	C 	0.1384	0.1391	0.0796	0.097
Mof_C 	C 	0.378	0.3365	0.0825	0.091
Mof_C 	C 	0.4087	0.4572	0.8464	-0.15
Mof_C 	C 	0.0897	0.1778	0.0383	-0.038
Mof_C 	C 	0.5053	0.3866	0.9192	0.088
Mof_C 	C 	0.0471	0.0689	0.1323	0.098
Mof_H 	H 	0.9518	0.0476	0.1437	-0.003
Mof_C 	C 	0.8337	0.2169	0.0829	-0.066
Mof_H 	H 	0.8635	0.1955	0.1089	0.057
Mof_C 	C 	0.2272	0.0627	0.1488	-0.173
Mof_C 	C 	0.3026	0.1605	0.8366	0.088
Mof_H 	H 	0.2425	0.1524	0.8075	0.007
Mof_C 	C 	0.2811	0.1908	0.9182	0.105
Mof_C 	C 	0.4485	0.3533	0.9997	-0.045
Mof_H 	H 	0.3434	0.3757	0.9988	0.05
Mof_C 	C 	0.4958	0.1587	0.843	-0.167
Mof_C 	C 	0.3462	0.4952	0.8096	0.372
Mof_C 	C 	0.2021	0.1738	0.0008	-0.04
Mof_H 	H 	0.3065	0.1512	0.0021	0.047
Mof_C 	C 	0.4683	0.3524	0.1272	-0.158
Mof_H 	H 	0.6011	0.3525	0.1307	0.102
Mof_C 	C 	0.3631	0.3671	0.1643	0.098
Mof_H 	H 	0.425	0.3772	0.1927	0.011
Mof_C 	C 	0.0776	0.3518	0.1177	0.081
Mof_H 	H 	0.9446	0.3518	0.1149	0.018
Mof_C 	C 	0.3683	0.0953	0.1304	0.096
Mof_H 	H 	0.4944	0.0917	0.1418	0.004
Mof_C 	C 	0.5801	0.1781	0.8857	0.097
Mof_H 	H 	0.7126	0.1815	0.8881	0.009
Mof_C 	C 	0.1618	0.2033	0.9607	-0.038
Mof_C 	C 	0.3218	0.3888	0.9013	-0.149
Mof_H 	H 	0.2316	0.3658	0.9127	0.084
Mof_C 	C 	0.999	0.107	0.0983	-0.161
Mof_H 	H 	0.8718	0.111	0.0879	0.086
Mof_C 	C 	0.6431	0.4201	0.9003	-0.144
Mof_H 	H 	0.7693	0.4183	0.9121	0.082
Mof_C 	C 	0.4808	0.1919	0.923	-0.173
Mof_H 	H 	0.5429	0.2021	0.9513	0.098
Mof_C 	C 	0.1799	0.3365	0.0797	-0.153
Mof_H 	H 	0.1152	0.3261	0.0518	0.09
Mof_C 	C 	0.5935	0.456	0.864	0.073
Mof_H 	H 	0.6847	0.4784	0.8523	0.009
Mof_C 	C 	0.3267	0.1314	0.0969	-0.168
Mof_H 	H 	0.4245	0.1515	0.085	0.09
Mof_C 	C 	0.2668	0.4243	0.8666	0.069
Mof_H 	H 	0.1389	0.427	0.8563	0.017
Mof_Mn	Mn	0.2006	0.56932	0.74834	0.916
Mof_Mn	Mn	0.65369	0.96668	0.23533	0.816
Mof_O 	O 	0.8781	0.9159	0.26825	-0.428
Mof_O 	O 	0.4677	0.60172	0.72233	-0.428
Mof_O 	O 	0.5392	0.02743	0.7063	-0.414
Mof_O 	O 	0.1243	0.8785	0.30406	-0.366
Mof_O 	O 	0.2083	0.6356	0.68867	-0.335
Mof_O 	O 	0.8333	0.48501	0.30837	-0.402
Mof_C 	C 	0.9907	0.7407	0.5416	0.018
Mof_C 	C 	0.0626	0.7138	0.4587	0.026
Mof_O 	O 	0.5427	0.5205	0.3014	-0.399
Mof_C 	C 	0.3554	0.7874	0.4582	0.023
Mof_O 	O 	0.8284	0.9974	0.70308	-0.35
Mof_C 	C 	0.2841	0.8132	0.5422	0.024
Mof_C 	C 	0.0963	0.7464	0.5005	-0.015
Mof_C 	C 	0.3842	0.6318	0.6908	0.363
Mof_C 	C 	0.246	0.7824	0.499	-0.019
Mof_C 	C 	0.7139	0.5204	0.3166	0.403
Mof_C 	C 	0.508	0.8251	0.461	-0.032
Mof_C 	C 	0.9487	0.8879	0.3012	0.379
Mof_C 	C 	0.8312	0.8672	0.3396	-0.159
Mof_C 	C 	0.02	0.7728	0.5823	-0.056
Mof_H 	H 	0.9402	0.7703	0.6076	0.053
Mof_C 	C 	0.3276	0.7563	0.4164	-0.065
Mof_H 	H 	0.4036	0.7601	0.3905	0.059
Mof_C 	C 	0.443	0.8492	0.5382	-0.03
Mof_C 	C 	0.1825	0.8106	0.5832	-0.069
Mof_H 	H 	0.214	0.8312	0.6096	0.058
Mof_C 	C 	0.8045	0.6752	0.6243	-0.167
Mof_H 	H 	0.9374	0.6743	0.6275	0.103
Mof_C 	C 	0.8616	0.6391	0.4204	0.098
Mof_C 	C 	0.622	0.8365	0.4175	0.091
Mof_C 	C 	0.5913	0.9572	0.6536	-0.15
Mof_C 	C 	0.9103	0.6778	0.4617	-0.038
Mof_C 	C 	0.4947	0.8866	0.5808	0.088
Mof_C 	C 	0.9529	0.5689	0.3677	0.1
Mof_H 	H 	0.0482	0.5476	0.3563	-0.003
Mof_C 	C 	0.1663	0.7169	0.4171	-0.066
Mof_H 	H 	0.1365	0.6955	0.3911	0.057
Mof_C 	C 	0.7728	0.5627	0.3512	-0.174
Mof_C 	C 	0.6974	0.6605	0.6634	0.088
Mof_H 	H 	0.7575	0.6524	0.6925	0.007
Mof_C 	C 	0.7189	0.6908	0.5818	0.105
Mof_C 	C 	0.5515	0.8533	0.5003	-0.045
Mof_H 	H 	0.6566	0.8757	0.5012	0.05
Mof_C 	C 	0.5042	0.6587	0.657	-0.167
Mof_C 	C 	0.6538	0.9952	0.6904	0.372
Mof_C 	C 	0.7979	0.6738	0.4992	-0.04
Mof_H 	H 	0.6935	0.6512	0.4979	0.047
Mof_C 	C 	0.5317	0.8524	0.3728	-0.157
Mof_H 	H 	0.3989	0.8525	0.3693	0.102
Mof_C 	C 	0.6369	0.8671	0.3357	0.098
Mof_H 	H 	0.575	0.8772	0.3073	0.011
Mof_C 	C 	0.9224	0.8518	0.3823	0.08
Mof_H 	H 	0.0554	0.8518	0.3851	0.018
Mof_C 	C 	0.6317	0.5953	0.3696	0.097
Mof_H 	H 	0.5056	0.5917	0.3582	0.004
Mof_C 	C 	0.4199	0.6781	0.6143	0.097
Mof_H 	H 	0.2874	0.6815	0.6119	0.009
Mof_C 	C 	0.8382	0.7033	0.5393	-0.037
Mof_C 	C 	0.6782	0.8888	0.5987	-0.149
Mof_H 	H 	0.7684	0.8658	0.5873	0.084
Mof_C 	C 	0.001	0.607	0.4017	-0.163
Mof_H 	H 	0.1282	0.611	0.4121	0.087
Mof_C 	C 	0.3569	0.9201	0.5997	-0.144
Mof_H 	H 	0.2307	0.9183	0.5879	0.082
Mof_C 	C 	0.5192	0.6919	0.577	-0.173
Mof_H 	H 	0.4571	0.7021	0.5487	0.098
Mof_C 	C 	0.8201	0.8365	0.4203	-0.153
Mof_H 	H 	0.8848	0.8261	0.4482	0.09
Mof_C 	C 	0.4065	0.956	0.636	0.073
Mof_H 	H 	0.3153	0.9784	0.6477	0.009
Mof_C 	C 	0.6733	0.6314	0.4031	-0.169
Mof_H 	H 	0.5755	0.6515	0.415	0.09
Mof_C 	C 	0.7332	0.9243	0.6334	0.069
Mof_H 	H 	0.8611	0.927	0.6437	0.017
_end
