data_functionalizedCrystal
_audit_creation_method	'EQeq! by Chris Wilmer'
_symmetry_space_group_name_H-M	'P1'
_symmetry_Int_Tables_number	1
_symmetry_cell_setting	triclinic
loop_
_symmetry_equiv_pos_as_xyz
  x,y,z
_cell_length_a	12.902
_cell_length_b	13.03
_cell_length_c	13.101
_cell_angle_alpha	70.26
_cell_angle_beta	73.03
_cell_angle_gamma	71.98
loop_
_atom_site_label
_atom_site_type_symbol
_atom_site_fract_x
_atom_site_fract_y
_atom_site_fract_z
_atom_site_charge
Mof_Yb	Yb	0.66271	0.65707	0.66437	1.812
Mof_Na	Na	0.6835	0.1518	0.6639	2.531
Mof_Na	Na	0.6784	0.6732	0.1535	1.825
Mof_Na	Na	0.1576	0.6515	0.6789	2.383
Mof_H 	H 	0.7001	0.899	0.2427	-0.099
Mof_H 	H 	0.6629	0.0763	0.271	0.054
Mof_H 	H 	0.6244	0.0904	0.4534	-0.059
Mof_H 	H 	0.0881	0.4417	0.6305	-0.041
Mof_H 	H 	0.0676	0.2602	0.6735	0.055
Mof_H 	H 	0.8896	0.2295	0.7132	-0.09
Mof_H 	H 	0.2399	0.7002	0.8855	-0.106
Mof_H 	H 	0.2696	0.6692	0.0613	0.062
Mof_H 	H 	0.4532	0.6303	0.0842	-0.05
Mof_H 	H 	0.5417	0.3163	0.5048	0.289
Mof_H 	H 	0.7753	0.0232	0.8472	0.411
Mof_H 	H 	0.2885	0.6086	0.4837	0.167
Mof_H 	H 	0.0615	0.4948	0.8741	0.152
Mof_C 	C 	0.6809	0.8159	0.4054	-0.154
Mof_C 	C 	0.684	0.9073	0.3138	0.075
Mof_C 	C 	0.6623	0.0126	0.3309	-0.184
Mof_C 	C 	0.6396	0.0213	0.4394	0.072
Mof_C 	C 	0.6406	0.9235	0.5249	-0.163
Mof_C 	C 	0.6201	0.9236	0.6439	0.501
Mof_C 	C 	0.7077	0.6965	0.3971	0.466
Mof_C 	C 	0.9249	0.5154	0.6441	-0.165
Mof_C 	C 	0.0176	0.4282	0.6462	0.088
Mof_C 	C 	0.0054	0.32	0.672	-0.183
Mof_C 	C 	0.9	0.3015	0.6954	0.071
Mof_C 	C 	0.8107	0.3937	0.6915	-0.164
Mof_C 	C 	0.691	0.3865	0.7172	0.479
Mof_C 	C 	0.9281	0.6358	0.6201	0.521
Mof_C 	C 	0.4022	0.6805	0.809	-0.178
Mof_C 	C 	0.3117	0.6849	0.8967	0.096
Mof_C 	C 	0.3293	0.6662	0.0012	-0.185
Mof_C 	C 	0.4385	0.6428	0.015	0.067
Mof_C 	C 	0.5238	0.6389	0.9225	-0.14
Mof_C 	C 	0.6457	0.6162	0.9278	0.47
Mof_C 	C 	0.3932	0.7065	0.6909	0.474
Mof_N 	N 	0.6595	0.8246	0.5087	-0.154
Mof_N 	N 	0.8238	0.4981	0.666	-0.151
Mof_N 	N 	0.5074	0.6566	0.8229	-0.155
Mof_O 	O 	0.6157	0.8281	0.7139	-0.506
Mof_O 	O 	0.6135	0.0099	0.6676	-0.777
Mof_O 	O 	0.733	0.6795	0.3056	-0.659
Mof_O 	O 	0.704	0.6211	0.4905	-0.468
Mof_O 	O 	0.6198	0.4796	0.7118	-0.5
Mof_O 	O 	0.671	0.2927	0.7448	-0.737
Mof_O 	O 	0.0172	0.659	0.6074	-0.797
Mof_O 	O 	0.8354	0.7063	0.6128	-0.526
Mof_O 	O 	0.7144	0.6047	0.8354	-0.496
Mof_O 	O 	0.6699	0.6098	0.0125	-0.679
Mof_O 	O 	0.2991	0.7335	0.669	-0.757
Mof_O 	O 	0.486	0.7027	0.6203	-0.512
Mof_O 	O 	0.5574	0.2951	0.5747	-0.783
Mof_O 	O 	0.7975	0.0307	0.7869	-1.017
Mof_O 	O 	0.296	0.5714	0.552	-0.685
Mof_O 	O 	0.1381	0.4934	0.8412	-0.8
Mof_Yb	Yb	0.33729	0.34293	0.33563	1.811
Mof_Na	Na	0.3165	0.8482	0.3361	2.53
Mof_Na	Na	0.3216	0.3268	0.8465	1.825
Mof_Na	Na	0.8424	0.3485	0.3211	2.383
Mof_H 	H 	0.9385	0.5052	0.1259	0.152
Mof_H 	H 	0.2999	0.101	0.7573	-0.099
Mof_H 	H 	0.3371	0.9237	0.729	0.054
Mof_H 	H 	0.3756	0.9096	0.5466	-0.059
Mof_H 	H 	0.9119	0.5583	0.3695	-0.041
Mof_H 	H 	0.9324	0.7398	0.3265	0.055
Mof_H 	H 	0.1104	0.7705	0.2868	-0.09
Mof_H 	H 	0.7601	0.2998	0.1145	-0.106
Mof_H 	H 	0.7304	0.3308	0.9387	0.062
Mof_H 	H 	0.5468	0.3697	0.9158	-0.05
Mof_H 	H 	0.4583	0.6837	0.4952	0.289
Mof_H 	H 	0.2247	0.9768	0.1528	0.411
Mof_H 	H 	0.7115	0.3914	0.5163	0.167
Mof_C 	C 	0.3191	0.1841	0.5946	-0.154
Mof_C 	C 	0.316	0.0927	0.6862	0.075
Mof_C 	C 	0.3377	0.9874	0.6691	-0.184
Mof_C 	C 	0.3604	0.9787	0.5606	0.072
Mof_C 	C 	0.3594	0.0765	0.4751	-0.163
Mof_C 	C 	0.3799	0.0764	0.3561	0.501
Mof_C 	C 	0.2923	0.3035	0.6029	0.466
Mof_C 	C 	0.0751	0.4846	0.3559	-0.165
Mof_C 	C 	0.9824	0.5718	0.3538	0.088
Mof_C 	C 	0.9946	0.68	0.328	-0.183
Mof_C 	C 	0.1	0.6985	0.3046	0.071
Mof_C 	C 	0.1893	0.6063	0.3085	-0.164
Mof_C 	C 	0.309	0.6135	0.2828	0.479
Mof_C 	C 	0.0719	0.3642	0.3799	0.521
Mof_C 	C 	0.5978	0.3195	0.191	-0.178
Mof_C 	C 	0.6883	0.3151	0.1033	0.096
Mof_C 	C 	0.6707	0.3338	0.9988	-0.185
Mof_C 	C 	0.5615	0.3572	0.985	0.067
Mof_C 	C 	0.4762	0.3611	0.0775	-0.14
Mof_C 	C 	0.3543	0.3838	0.0722	0.47
Mof_C 	C 	0.6068	0.2935	0.3091	0.474
Mof_N 	N 	0.3405	0.1754	0.4913	-0.154
Mof_N 	N 	0.1762	0.5019	0.334	-0.151
Mof_N 	N 	0.4926	0.3434	0.1771	-0.155
Mof_O 	O 	0.8619	0.5066	0.1588	-0.8
Mof_O 	O 	0.3843	0.1719	0.2861	-0.506
Mof_O 	O 	0.3865	0.9901	0.3324	-0.777
Mof_O 	O 	0.267	0.3205	0.6944	-0.659
Mof_O 	O 	0.296	0.3789	0.5095	-0.468
Mof_O 	O 	0.3802	0.5204	0.2882	-0.5
Mof_O 	O 	0.329	0.7073	0.2552	-0.737
Mof_O 	O 	0.9828	0.341	0.3926	-0.797
Mof_O 	O 	0.1646	0.2937	0.3872	-0.526
Mof_O 	O 	0.2856	0.3953	0.1646	-0.496
Mof_O 	O 	0.3301	0.3902	0.9875	-0.679
Mof_O 	O 	0.7009	0.2665	0.331	-0.757
Mof_O 	O 	0.514	0.2973	0.3797	-0.512
Mof_O 	O 	0.4426	0.7049	0.4253	-0.783
Mof_O 	O 	0.2025	0.9693	0.2131	-1.017
Mof_O 	O 	0.704	0.4286	0.448	-0.685
_end
