data_functionalizedCrystal
_audit_creation_method	'EQeq! by Chris Wilmer'
_symmetry_space_group_name_H-M	'P1'
_symmetry_Int_Tables_number	1
_symmetry_cell_setting	triclinic
loop_
_symmetry_equiv_pos_as_xyz
  x,y,z
_cell_length_a	24.9933
_cell_length_b	28.2078
_cell_length_c	38.8733
_cell_angle_alpha	90
_cell_angle_beta	90
_cell_angle_gamma	90
loop_
_atom_site_label
_atom_site_type_symbol
_atom_site_fract_x
_atom_site_fract_y
_atom_site_fract_z
_atom_site_charge
Mof_O 	O 	0.24053	0.04888	0.20514	-0.424
Mof_O 	O 	0.05462	0.2372	0.20526	-0.421
Mof_C 	C 	0.20037	0.06391	0.21933	0.362
Mof_C 	C 	0.07057	0.20119	0.22065	0.358
Mof_C 	C 	0.11035	0.16998	0.2021	-0.055
Mof_C 	C 	0.1224	0.17995	0.16813	-0.075
Mof_H 	H 	0.1063	0.2053	0.1569	0.074
Mof_C 	C 	0.15892	0.15141	0.15122	0.096
Mof_C 	C 	0.13422	0.13214	0.21838	-0.003
Mof_H 	H 	0.1253	0.1251	0.241	0.058
Mof_C 	C 	0.17109	0.10468	0.2013	-0.05
Mof_C 	C 	0.18388	0.11416	0.16749	-0.076
Mof_H 	H 	0.2089	0.0957	0.1559	0.084
Mof_C 	C 	0.1604	0.1975	0.09587	0.002
Mof_H 	H 	0.145	0.2259	0.1029	0.032
Mof_C 	C 	0.1765	0.18604	0.06351	0.033
Mof_C 	C 	0.1772	0.2135	0.03127	0.062
Mof_N 	N 	0.17096	0.1601	0.11552	-0.094
Mof_N 	N 	0.1953	0.12764	0.09663	-0.048
Mof_N 	N 	0.1966	0.1435	0.06464	-0.081
Mof_O 	O 	0.17916	0.0497	0.24681	-0.417
Mof_O 	O 	0.05519	0.1867	0.24937	-0.419
Mof_C 	C 	0.1697	0.261	0.03141	-0.115
Mof_H 	H 	0.1676	0.2772	0.0522	0.074
Mof_O 	O 	0.24053	0.54888	0.70514	-0.414
Mof_O 	O 	0.05462	0.7372	0.70526	-0.42
Mof_C 	C 	0.20037	0.56391	0.71933	0.36
Mof_C 	C 	0.07057	0.70119	0.72065	0.355
Mof_C 	C 	0.11035	0.66998	0.7021	-0.051
Mof_C 	C 	0.1224	0.67995	0.66813	-0.078
Mof_H 	H 	0.1063	0.7053	0.6569	0.075
Mof_C 	C 	0.15892	0.65141	0.65122	0.1
Mof_C 	C 	0.13422	0.63214	0.71838	-0.007
Mof_H 	H 	0.1253	0.6251	0.741	0.061
Mof_C 	C 	0.17109	0.60468	0.7013	-0.044
Mof_C 	C 	0.18388	0.61416	0.66749	-0.079
Mof_H 	H 	0.2089	0.5957	0.6559	0.09
Mof_C 	C 	0.1604	0.6975	0.59587	0.003
Mof_H 	H 	0.145	0.7259	0.6029	0.033
Mof_C 	C 	0.1765	0.68604	0.56351	0.034
Mof_C 	C 	0.1772	0.7135	0.53127	0.065
Mof_N 	N 	0.17096	0.6601	0.61552	-0.094
Mof_N 	N 	0.1953	0.62764	0.59663	-0.044
Mof_N 	N 	0.1966	0.6435	0.56464	-0.077
Mof_O 	O 	0.17916	0.5497	0.74681	-0.407
Mof_O 	O 	0.05519	0.6867	0.74937	-0.416
Mof_C 	C 	0.1697	0.761	0.53141	-0.116
Mof_H 	H 	0.1676	0.7772	0.5522	0.076
Mof_O 	O 	0.74053	0.04888	0.70514	-0.422
Mof_O 	O 	0.55462	0.2372	0.70526	-0.409
Mof_C 	C 	0.70037	0.06391	0.71933	0.359
Mof_C 	C 	0.57057	0.20119	0.72065	0.355
Mof_C 	C 	0.61035	0.16998	0.7021	-0.046
Mof_C 	C 	0.6224	0.17995	0.66813	-0.079
Mof_H 	H 	0.6063	0.2053	0.6569	0.08
Mof_C 	C 	0.65892	0.15141	0.65122	0.102
Mof_C 	C 	0.63422	0.13214	0.71838	-0.008
Mof_H 	H 	0.6253	0.1251	0.741	0.063
Mof_C 	C 	0.67109	0.10468	0.7013	-0.044
Mof_C 	C 	0.68388	0.11416	0.66749	-0.079
Mof_H 	H 	0.7089	0.0957	0.6559	0.088
Mof_C 	C 	0.6604	0.1975	0.59587	0.004
Mof_H 	H 	0.645	0.2259	0.6029	0.035
Mof_C 	C 	0.6765	0.18604	0.56351	0.036
Mof_C 	C 	0.6772	0.2135	0.53127	0.065
Mof_N 	N 	0.67096	0.1601	0.61552	-0.093
Mof_N 	N 	0.6953	0.12764	0.59663	-0.045
Mof_N 	N 	0.6966	0.1435	0.56464	-0.078
Mof_O 	O 	0.67916	0.0497	0.74681	-0.412
Mof_O 	O 	0.55519	0.1867	0.74937	-0.406
Mof_C 	C 	0.6697	0.261	0.53141	-0.114
Mof_H 	H 	0.6676	0.2772	0.5522	0.077
Mof_O 	O 	0.74053	0.54888	0.20514	-0.411
Mof_O 	O 	0.55462	0.7372	0.20526	-0.407
Mof_C 	C 	0.70037	0.56391	0.21933	0.358
Mof_C 	C 	0.57057	0.70119	0.22065	0.354
Mof_C 	C 	0.61035	0.66998	0.2021	-0.041
Mof_C 	C 	0.6224	0.67995	0.16813	-0.082
Mof_H 	H 	0.6063	0.7053	0.1569	0.082
Mof_C 	C 	0.65892	0.65141	0.15122	0.107
Mof_C 	C 	0.63422	0.63214	0.21838	-0.011
Mof_H 	H 	0.6253	0.6251	0.241	0.066
Mof_C 	C 	0.67109	0.60468	0.2013	-0.037
Mof_C 	C 	0.68388	0.61416	0.16749	-0.082
Mof_H 	H 	0.7089	0.5957	0.1559	0.094
Mof_C 	C 	0.6604	0.6975	0.09587	0.005
Mof_H 	H 	0.645	0.7259	0.1029	0.036
Mof_C 	C 	0.6765	0.68604	0.06351	0.037
Mof_C 	C 	0.6772	0.7135	0.03127	0.067
Mof_N 	N 	0.67096	0.6601	0.11552	-0.093
Mof_N 	N 	0.6953	0.62764	0.09663	-0.041
Mof_N 	N 	0.6966	0.6435	0.06464	-0.075
Mof_O 	O 	0.67916	0.5497	0.24681	-0.402
Mof_O 	O 	0.55519	0.6867	0.24937	-0.403
Mof_C 	C 	0.6697	0.761	0.03141	-0.114
Mof_H 	H 	0.6676	0.7772	0.0522	0.079
Mof_O 	O 	0.75947	0.95112	0.20514	-0.392
Mof_O 	O 	0.94538	0.7628	0.20526	-0.383
Mof_C 	C 	0.79963	0.93609	0.21933	0.352
Mof_C 	C 	0.92943	0.79881	0.22065	0.347
Mof_C 	C 	0.88965	0.83002	0.2021	-0.026
Mof_C 	C 	0.8776	0.82005	0.16813	-0.089
Mof_H 	H 	0.8937	0.7947	0.1569	0.09
Mof_C 	C 	0.84108	0.84859	0.15122	0.118
Mof_C 	C 	0.86578	0.86786	0.21838	-0.02
Mof_H 	H 	0.8747	0.8749	0.241	0.077
Mof_C 	C 	0.82891	0.89532	0.2013	-0.022
Mof_C 	C 	0.81612	0.88584	0.16749	-0.089
Mof_H 	H 	0.7911	0.9043	0.1559	0.101
Mof_C 	C 	0.8396	0.8025	0.09587	0.009
Mof_H 	H 	0.855	0.7741	0.1029	0.039
Mof_C 	C 	0.8235	0.81396	0.06351	0.04
Mof_C 	C 	0.8228	0.7865	0.03127	0.072
Mof_N 	N 	0.82904	0.8399	0.11552	-0.093
Mof_N 	N 	0.8047	0.87236	0.09663	-0.035
Mof_N 	N 	0.8034	0.8565	0.06464	-0.071
Mof_O 	O 	0.82084	0.9503	0.24681	-0.377
Mof_O 	O 	0.94481	0.8133	0.24937	-0.376
Mof_C 	C 	0.8303	0.739	0.03141	-0.114
Mof_H 	H 	0.8324	0.7228	0.0522	0.081
Mof_O 	O 	0.75947	0.45112	0.70514	-0.412
Mof_O 	O 	0.94538	0.2628	0.70526	-0.385
Mof_C 	C 	0.79963	0.43609	0.71933	0.357
Mof_C 	C 	0.92943	0.29881	0.72065	0.349
Mof_C 	C 	0.88965	0.33002	0.7021	-0.031
Mof_C 	C 	0.8776	0.32005	0.66813	-0.085
Mof_H 	H 	0.8937	0.2947	0.6569	0.088
Mof_C 	C 	0.84108	0.34859	0.65122	0.113
Mof_C 	C 	0.86578	0.36786	0.71838	-0.015
Mof_H 	H 	0.8747	0.3749	0.741	0.072
Mof_C 	C 	0.82891	0.39532	0.7013	-0.031
Mof_C 	C 	0.81612	0.38584	0.66749	-0.085
Mof_H 	H 	0.7911	0.4043	0.6559	0.095
Mof_C 	C 	0.8396	0.3025	0.59587	0.008
Mof_H 	H 	0.855	0.2741	0.6029	0.038
Mof_C 	C 	0.8235	0.31396	0.56351	0.039
Mof_C 	C 	0.8228	0.2865	0.53127	0.069
Mof_N 	N 	0.82904	0.3399	0.61552	-0.093
Mof_N 	N 	0.8047	0.37236	0.59663	-0.04
Mof_N 	N 	0.8034	0.3565	0.56464	-0.074
Mof_O 	O 	0.82084	0.4503	0.74681	-0.397
Mof_O 	O 	0.94481	0.3133	0.74937	-0.379
Mof_C 	C 	0.8303	0.239	0.53141	-0.114
Mof_H 	H 	0.8324	0.2228	0.5522	0.079
Mof_O 	O 	0.25947	0.95112	0.70514	-0.395
Mof_O 	O 	0.44538	0.7628	0.70526	-0.407
Mof_C 	C 	0.29963	0.93609	0.71933	0.354
Mof_C 	C 	0.42943	0.79881	0.72065	0.353
Mof_C 	C 	0.38965	0.83002	0.7021	-0.038
Mof_C 	C 	0.3776	0.82005	0.66813	-0.083
Mof_H 	H 	0.3937	0.7947	0.6569	0.083
Mof_C 	C 	0.34108	0.84859	0.65122	0.11
Mof_C 	C 	0.36578	0.86786	0.71838	-0.014
Mof_H 	H 	0.3747	0.8749	0.741	0.07
Mof_C 	C 	0.32891	0.89532	0.7013	-0.03
Mof_C 	C 	0.31612	0.88584	0.66749	-0.085
Mof_H 	H 	0.2911	0.9043	0.6559	0.097
Mof_C 	C 	0.3396	0.8025	0.59587	0.007
Mof_H 	H 	0.355	0.7741	0.6029	0.035
Mof_C 	C 	0.3235	0.81396	0.56351	0.037
Mof_C 	C 	0.3228	0.7865	0.53127	0.069
Mof_N 	N 	0.32904	0.8399	0.61552	-0.093
Mof_N 	N 	0.3047	0.87236	0.59663	-0.039
Mof_N 	N 	0.3034	0.8565	0.56464	-0.073
Mof_O 	O 	0.32084	0.9503	0.74681	-0.382
Mof_O 	O 	0.44481	0.8133	0.74937	-0.4
Mof_C 	C 	0.3303	0.739	0.53141	-0.116
Mof_H 	H 	0.3324	0.7228	0.5522	0.078
Mof_O 	O 	0.25947	0.45112	0.20514	-0.415
Mof_O 	O 	0.44538	0.2628	0.20526	-0.409
Mof_C 	C 	0.29963	0.43609	0.21933	0.359
Mof_C 	C 	0.42943	0.29881	0.22065	0.355
Mof_C 	C 	0.38965	0.33002	0.2021	-0.044
Mof_C 	C 	0.3776	0.32005	0.16813	-0.08
Mof_H 	H 	0.3937	0.2947	0.1569	0.08
Mof_C 	C 	0.34108	0.34859	0.15122	0.104
Mof_C 	C 	0.36578	0.36786	0.21838	-0.009
Mof_H 	H 	0.3747	0.3749	0.241	0.066
Mof_C 	C 	0.32891	0.39532	0.2013	-0.039
Mof_C 	C 	0.31612	0.38584	0.16749	-0.08
Mof_H 	H 	0.2911	0.4043	0.1559	0.09
Mof_C 	C 	0.3396	0.3025	0.09587	0.005
Mof_H 	H 	0.355	0.2741	0.1029	0.034
Mof_C 	C 	0.3235	0.31396	0.06351	0.036
Mof_C 	C 	0.3228	0.2865	0.03127	0.066
Mof_N 	N 	0.32904	0.3399	0.11552	-0.093
Mof_N 	N 	0.3047	0.37236	0.09663	-0.043
Mof_N 	N 	0.3034	0.3565	0.06464	-0.077
Mof_O 	O 	0.32084	0.4503	0.24681	-0.402
Mof_O 	O 	0.44481	0.3133	0.24937	-0.403
Mof_C 	C 	0.3303	0.239	0.03141	-0.115
Mof_H 	H 	0.3324	0.2228	0.0522	0.076
Mof_O 	O 	0.75947	0.04888	0.79486	-0.422
Mof_O 	O 	0.94538	0.2372	0.79474	-0.384
Mof_C 	C 	0.79963	0.06391	0.78067	0.358
Mof_C 	C 	0.92943	0.20119	0.77935	0.35
Mof_C 	C 	0.88965	0.16998	0.7979	-0.035
Mof_C 	C 	0.8776	0.17995	0.83187	-0.083
Mof_H 	H 	0.8937	0.2053	0.8431	0.087
Mof_C 	C 	0.84108	0.15141	0.84878	0.108
Mof_C 	C 	0.86578	0.13214	0.78162	-0.013
Mof_H 	H 	0.8747	0.1251	0.759	0.069
Mof_C 	C 	0.82891	0.10468	0.7987	-0.038
Mof_C 	C 	0.81612	0.11416	0.83251	-0.082
Mof_H 	H 	0.7911	0.0957	0.8441	0.089
Mof_C 	C 	0.8396	0.1975	0.90413	0.006
Mof_H 	H 	0.855	0.2259	0.8971	0.039
Mof_C 	C 	0.8235	0.18604	0.93649	0.039
Mof_C 	C 	0.8228	0.2135	0.96873	0.067
Mof_N 	N 	0.82904	0.1601	0.88448	-0.093
Mof_N 	N 	0.8047	0.12764	0.90337	-0.044
Mof_N 	N 	0.8034	0.1435	0.93536	-0.077
Mof_O 	O 	0.82084	0.0497	0.75319	-0.407
Mof_O 	O 	0.94481	0.1867	0.75063	-0.381
Mof_C 	C 	0.8303	0.261	0.96859	-0.11
Mof_H 	H 	0.8324	0.2772	0.9478	0.08
Mof_O 	O 	0.75947	0.54888	0.29486	-0.412
Mof_O 	O 	0.94538	0.7372	0.29474	-0.383
Mof_C 	C 	0.79963	0.56391	0.28067	0.357
Mof_C 	C 	0.92943	0.70119	0.27935	0.348
Mof_C 	C 	0.88965	0.66998	0.2979	-0.03
Mof_C 	C 	0.8776	0.67995	0.33187	-0.086
Mof_H 	H 	0.8937	0.7053	0.3431	0.089
Mof_C 	C 	0.84108	0.65141	0.34878	0.113
Mof_C 	C 	0.86578	0.63214	0.28162	-0.016
Mof_H 	H 	0.8747	0.6251	0.259	0.072
Mof_C 	C 	0.82891	0.60468	0.2987	-0.031
Mof_C 	C 	0.81612	0.61416	0.33251	-0.085
Mof_H 	H 	0.7911	0.5957	0.3441	0.095
Mof_C 	C 	0.8396	0.6975	0.40413	0.007
Mof_H 	H 	0.855	0.7259	0.3971	0.04
Mof_C 	C 	0.8235	0.68604	0.43649	0.04
Mof_C 	C 	0.8228	0.7135	0.46873	0.069
Mof_N 	N 	0.82904	0.6601	0.38448	-0.093
Mof_N 	N 	0.8047	0.62764	0.40337	-0.04
Mof_N 	N 	0.8034	0.6435	0.43536	-0.074
Mof_O 	O 	0.82084	0.5497	0.25319	-0.397
Mof_O 	O 	0.94481	0.6867	0.25063	-0.379
Mof_C 	C 	0.8303	0.761	0.46859	-0.112
Mof_H 	H 	0.8324	0.7772	0.4478	0.082
Mof_O 	O 	0.25947	0.04888	0.29486	-0.425
Mof_O 	O 	0.44538	0.2372	0.29474	-0.409
Mof_C 	C 	0.29963	0.06391	0.28067	0.361
Mof_C 	C 	0.42943	0.20119	0.27935	0.355
Mof_C 	C 	0.38965	0.16998	0.2979	-0.047
Mof_C 	C 	0.3776	0.17995	0.33187	-0.078
Mof_H 	H 	0.3937	0.2053	0.3431	0.079
Mof_C 	C 	0.34108	0.15141	0.34878	0.1
Mof_C 	C 	0.36578	0.13214	0.28162	-0.007
Mof_H 	H 	0.3747	0.1251	0.259	0.062
Mof_C 	C 	0.32891	0.10468	0.2987	-0.046
Mof_C 	C 	0.31612	0.11416	0.33251	-0.077
Mof_H 	H 	0.2911	0.0957	0.3441	0.084
Mof_C 	C 	0.3396	0.1975	0.40413	0.003
Mof_H 	H 	0.355	0.2259	0.3971	0.036
Mof_C 	C 	0.3235	0.18604	0.43649	0.036
Mof_C 	C 	0.3228	0.2135	0.46873	0.064
Mof_N 	N 	0.32904	0.1601	0.38448	-0.093
Mof_N 	N 	0.3047	0.12764	0.40337	-0.047
Mof_N 	N 	0.3034	0.1435	0.43536	-0.08
Mof_O 	O 	0.32084	0.0497	0.25319	-0.413
Mof_O 	O 	0.44481	0.1867	0.25063	-0.406
Mof_C 	C 	0.3303	0.261	0.46859	-0.113
Mof_H 	H 	0.3324	0.2772	0.4478	0.076
Mof_O 	O 	0.25947	0.54888	0.79486	-0.415
Mof_O 	O 	0.44538	0.7372	0.79474	-0.407
Mof_C 	C 	0.29963	0.56391	0.78067	0.359
Mof_C 	C 	0.42943	0.70119	0.77935	0.354
Mof_C 	C 	0.38965	0.66998	0.7979	-0.042
Mof_C 	C 	0.3776	0.67995	0.83187	-0.081
Mof_H 	H 	0.3937	0.7053	0.8431	0.082
Mof_C 	C 	0.34108	0.65141	0.84878	0.105
Mof_C 	C 	0.36578	0.63214	0.78162	-0.01
Mof_H 	H 	0.3747	0.6251	0.759	0.066
Mof_C 	C 	0.32891	0.60468	0.7987	-0.039
Mof_C 	C 	0.31612	0.61416	0.83251	-0.081
Mof_H 	H 	0.2911	0.5957	0.8441	0.09
Mof_C 	C 	0.3396	0.6975	0.90413	0.005
Mof_H 	H 	0.355	0.7259	0.8971	0.037
Mof_C 	C 	0.3235	0.68604	0.93649	0.037
Mof_C 	C 	0.3228	0.7135	0.96873	0.067
Mof_N 	N 	0.32904	0.6601	0.88448	-0.093
Mof_N 	N 	0.3047	0.62764	0.90337	-0.043
Mof_N 	N 	0.3034	0.6435	0.93536	-0.077
Mof_O 	O 	0.32084	0.5497	0.75319	-0.402
Mof_O 	O 	0.44481	0.6867	0.75063	-0.403
Mof_C 	C 	0.3303	0.761	0.96859	-0.112
Mof_H 	H 	0.3324	0.7772	0.9478	0.078
Mof_O 	O 	0.24053	0.95112	0.79486	-0.394
Mof_O 	O 	0.05462	0.7628	0.79474	-0.42
Mof_C 	C 	0.20037	0.93609	0.78067	0.355
Mof_C 	C 	0.07057	0.79881	0.77935	0.354
Mof_C 	C 	0.11035	0.83002	0.7979	-0.046
Mof_C 	C 	0.1224	0.82005	0.83187	-0.081
Mof_H 	H 	0.1063	0.7947	0.8431	0.076
Mof_C 	C 	0.15892	0.84859	0.84878	0.105
Mof_C 	C 	0.13422	0.86786	0.78162	-0.011
Mof_H 	H 	0.1253	0.8749	0.759	0.065
Mof_C 	C 	0.17109	0.89532	0.7987	-0.035
Mof_C 	C 	0.18388	0.88584	0.83251	-0.083
Mof_H 	H 	0.2089	0.9043	0.8441	0.097
Mof_C 	C 	0.1604	0.8025	0.90413	0.005
Mof_H 	H 	0.145	0.7741	0.8971	0.032
Mof_C 	C 	0.1765	0.81396	0.93649	0.034
Mof_C 	C 	0.1772	0.7865	0.96873	0.068
Mof_N 	N 	0.17096	0.8399	0.88448	-0.094
Mof_N 	N 	0.1953	0.87236	0.90337	-0.039
Mof_N 	N 	0.1966	0.8565	0.93536	-0.074
Mof_O 	O 	0.17916	0.9503	0.75319	-0.386
Mof_O 	O 	0.05519	0.8133	0.75063	-0.413
Mof_C 	C 	0.1697	0.739	0.96859	-0.117
Mof_H 	H 	0.1676	0.7228	0.9478	0.075
Mof_O 	O 	0.24053	0.45112	0.29486	-0.414
Mof_O 	O 	0.05462	0.2628	0.29474	-0.422
Mof_C 	C 	0.20037	0.43609	0.28067	0.36
Mof_C 	C 	0.07057	0.29881	0.27935	0.356
Mof_C 	C 	0.11035	0.33002	0.2979	-0.052
Mof_C 	C 	0.1224	0.32005	0.33187	-0.078
Mof_H 	H 	0.1063	0.2947	0.3431	0.074
Mof_C 	C 	0.15892	0.34859	0.34878	0.099
Mof_C 	C 	0.13422	0.36786	0.28162	-0.007
Mof_H 	H 	0.1253	0.3749	0.259	0.061
Mof_C 	C 	0.17109	0.39532	0.2987	-0.044
Mof_C 	C 	0.18388	0.38584	0.33251	-0.078
Mof_H 	H 	0.2089	0.4043	0.3441	0.09
Mof_C 	C 	0.1604	0.3025	0.40413	0.003
Mof_H 	H 	0.145	0.2741	0.3971	0.031
Mof_C 	C 	0.1765	0.31396	0.43649	0.033
Mof_C 	C 	0.1772	0.2865	0.46873	0.065
Mof_N 	N 	0.17096	0.3399	0.38448	-0.094
Mof_N 	N 	0.1953	0.37236	0.40337	-0.044
Mof_N 	N 	0.1966	0.3565	0.43536	-0.077
Mof_O 	O 	0.17916	0.4503	0.25319	-0.407
Mof_O 	O 	0.05519	0.3133	0.25063	-0.416
Mof_C 	C 	0.1697	0.239	0.46859	-0.118
Mof_H 	H 	0.1676	0.2228	0.4478	0.073
Mof_O 	O 	0.74053	0.95112	0.29486	-0.391
Mof_O 	O 	0.55462	0.7628	0.29474	-0.407
Mof_C 	C 	0.70037	0.93609	0.28067	0.353
Mof_C 	C 	0.57057	0.79881	0.27935	0.353
Mof_C 	C 	0.61035	0.83002	0.2979	-0.037
Mof_C 	C 	0.6224	0.82005	0.33187	-0.085
Mof_H 	H 	0.6063	0.7947	0.3431	0.083
Mof_C 	C 	0.65892	0.84859	0.34878	0.113
Mof_C 	C 	0.63422	0.86786	0.28162	-0.016
Mof_H 	H 	0.6253	0.8749	0.259	0.071
Mof_C 	C 	0.67109	0.89532	0.2987	-0.027
Mof_C 	C 	0.68388	0.88584	0.33251	-0.086
Mof_H 	H 	0.7089	0.9043	0.3441	0.101
Mof_C 	C 	0.6604	0.8025	0.40413	0.008
Mof_H 	H 	0.645	0.7741	0.3971	0.035
Mof_C 	C 	0.6765	0.81396	0.43649	0.037
Mof_C 	C 	0.6772	0.7865	0.46873	0.07
Mof_N 	N 	0.67096	0.8399	0.38448	-0.093
Mof_N 	N 	0.6953	0.87236	0.40337	-0.036
Mof_N 	N 	0.6966	0.8565	0.43536	-0.071
Mof_O 	O 	0.67916	0.9503	0.25319	-0.382
Mof_O 	O 	0.55519	0.8133	0.25063	-0.4
Mof_C 	C 	0.6697	0.739	0.46859	-0.117
Mof_H 	H 	0.6676	0.7228	0.4478	0.078
Mof_O 	O 	0.74053	0.45112	0.79486	-0.411
Mof_O 	O 	0.55462	0.2628	0.79474	-0.409
Mof_C 	C 	0.70037	0.43609	0.78067	0.358
Mof_C 	C 	0.57057	0.29881	0.77935	0.354
Mof_C 	C 	0.61035	0.33002	0.7979	-0.042
Mof_C 	C 	0.6224	0.32005	0.83187	-0.081
Mof_H 	H 	0.6063	0.2947	0.8431	0.081
Mof_C 	C 	0.65892	0.34859	0.84878	0.107
Mof_C 	C 	0.63422	0.36786	0.78162	-0.011
Mof_H 	H 	0.6253	0.3749	0.759	0.066
Mof_C 	C 	0.67109	0.39532	0.7987	-0.037
Mof_C 	C 	0.68388	0.38584	0.83251	-0.082
Mof_H 	H 	0.7089	0.4043	0.8441	0.094
Mof_C 	C 	0.6604	0.3025	0.90413	0.006
Mof_H 	H 	0.645	0.2741	0.8971	0.034
Mof_C 	C 	0.6765	0.31396	0.93649	0.036
Mof_C 	C 	0.6772	0.2865	0.96873	0.068
Mof_N 	N 	0.67096	0.3399	0.88448	-0.093
Mof_N 	N 	0.6953	0.37236	0.90337	-0.041
Mof_N 	N 	0.6966	0.3565	0.93536	-0.074
Mof_O 	O 	0.67916	0.4503	0.75319	-0.402
Mof_O 	O 	0.55519	0.3133	0.75063	-0.403
Mof_C 	C 	0.6697	0.239	0.96859	-0.115
Mof_H 	H 	0.6676	0.2228	0.9478	0.076
Mof_O 	O 	0.75947	0.95112	0.79486	-0.392
Mof_O 	O 	0.94538	0.7628	0.79474	-0.383
Mof_C 	C 	0.79963	0.93609	0.78067	0.352
Mof_C 	C 	0.92943	0.79881	0.77935	0.347
Mof_C 	C 	0.88965	0.83002	0.7979	-0.026
Mof_C 	C 	0.8776	0.82005	0.83187	-0.089
Mof_H 	H 	0.8937	0.7947	0.8431	0.09
Mof_C 	C 	0.84108	0.84859	0.84878	0.119
Mof_C 	C 	0.86578	0.86786	0.78162	-0.02
Mof_H 	H 	0.8747	0.8749	0.759	0.077
Mof_C 	C 	0.82891	0.89532	0.7987	-0.022
Mof_C 	C 	0.81612	0.88584	0.83251	-0.089
Mof_H 	H 	0.7911	0.9043	0.8441	0.101
Mof_C 	C 	0.8396	0.8025	0.90413	0.009
Mof_H 	H 	0.855	0.7741	0.8971	0.039
Mof_C 	C 	0.8235	0.81396	0.93649	0.04
Mof_C 	C 	0.8228	0.7865	0.96873	0.072
Mof_N 	N 	0.82904	0.8399	0.88448	-0.093
Mof_N 	N 	0.8047	0.87236	0.90337	-0.035
Mof_N 	N 	0.8034	0.8565	0.93536	-0.07
Mof_O 	O 	0.82084	0.9503	0.75319	-0.377
Mof_O 	O 	0.94481	0.8133	0.75063	-0.376
Mof_C 	C 	0.8303	0.739	0.96859	-0.113
Mof_H 	H 	0.8324	0.7228	0.9478	0.081
Mof_O 	O 	0.75947	0.45112	0.29486	-0.412
Mof_O 	O 	0.94538	0.2628	0.29474	-0.385
Mof_C 	C 	0.79963	0.43609	0.28067	0.357
Mof_C 	C 	0.92943	0.29881	0.27935	0.349
Mof_C 	C 	0.88965	0.33002	0.2979	-0.031
Mof_C 	C 	0.8776	0.32005	0.33187	-0.085
Mof_H 	H 	0.8937	0.2947	0.3431	0.088
Mof_C 	C 	0.84108	0.34859	0.34878	0.113
Mof_C 	C 	0.86578	0.36786	0.28162	-0.015
Mof_H 	H 	0.8747	0.3749	0.259	0.072
Mof_C 	C 	0.82891	0.39532	0.2987	-0.031
Mof_C 	C 	0.81612	0.38584	0.33251	-0.085
Mof_H 	H 	0.7911	0.4043	0.3441	0.095
Mof_C 	C 	0.8396	0.3025	0.40413	0.008
Mof_H 	H 	0.855	0.2741	0.3971	0.038
Mof_C 	C 	0.8235	0.31396	0.43649	0.039
Mof_C 	C 	0.8228	0.2865	0.46873	0.069
Mof_N 	N 	0.82904	0.3399	0.38448	-0.093
Mof_N 	N 	0.8047	0.37236	0.40337	-0.04
Mof_N 	N 	0.8034	0.3565	0.43536	-0.074
Mof_O 	O 	0.82084	0.4503	0.25319	-0.397
Mof_O 	O 	0.94481	0.3133	0.25063	-0.379
Mof_C 	C 	0.8303	0.239	0.46859	-0.114
Mof_H 	H 	0.8324	0.2228	0.4478	0.079
Mof_O 	O 	0.25947	0.95112	0.29486	-0.395
Mof_O 	O 	0.44538	0.7628	0.29474	-0.407
Mof_C 	C 	0.29963	0.93609	0.28067	0.354
Mof_C 	C 	0.42943	0.79881	0.27935	0.353
Mof_C 	C 	0.38965	0.83002	0.2979	-0.038
Mof_C 	C 	0.3776	0.82005	0.33187	-0.083
Mof_H 	H 	0.3937	0.7947	0.3431	0.083
Mof_C 	C 	0.34108	0.84859	0.34878	0.11
Mof_C 	C 	0.36578	0.86786	0.28162	-0.014
Mof_H 	H 	0.3747	0.8749	0.259	0.07
Mof_C 	C 	0.32891	0.89532	0.2987	-0.03
Mof_C 	C 	0.31612	0.88584	0.33251	-0.085
Mof_H 	H 	0.2911	0.9043	0.3441	0.097
Mof_C 	C 	0.3396	0.8025	0.40413	0.007
Mof_H 	H 	0.355	0.7741	0.3971	0.035
Mof_C 	C 	0.3235	0.81396	0.43649	0.037
Mof_C 	C 	0.3228	0.7865	0.46873	0.069
Mof_N 	N 	0.32904	0.8399	0.38448	-0.093
Mof_N 	N 	0.3047	0.87236	0.40337	-0.039
Mof_N 	N 	0.3034	0.8565	0.43536	-0.073
Mof_O 	O 	0.32084	0.9503	0.25319	-0.382
Mof_O 	O 	0.44481	0.8133	0.25063	-0.4
Mof_C 	C 	0.3303	0.739	0.46859	-0.116
Mof_H 	H 	0.3324	0.7228	0.4478	0.078
Mof_O 	O 	0.25947	0.45112	0.79486	-0.415
Mof_O 	O 	0.44538	0.2628	0.79474	-0.409
Mof_C 	C 	0.29963	0.43609	0.78067	0.359
Mof_C 	C 	0.42943	0.29881	0.77935	0.355
Mof_C 	C 	0.38965	0.33002	0.7979	-0.043
Mof_C 	C 	0.3776	0.32005	0.83187	-0.08
Mof_H 	H 	0.3937	0.2947	0.8431	0.08
Mof_C 	C 	0.34108	0.34859	0.84878	0.104
Mof_C 	C 	0.36578	0.36786	0.78162	-0.009
Mof_H 	H 	0.3747	0.3749	0.759	0.066
Mof_C 	C 	0.32891	0.39532	0.7987	-0.039
Mof_C 	C 	0.31612	0.38584	0.83251	-0.08
Mof_H 	H 	0.2911	0.4043	0.8441	0.09
Mof_C 	C 	0.3396	0.3025	0.90413	0.005
Mof_H 	H 	0.355	0.2741	0.8971	0.034
Mof_C 	C 	0.3235	0.31396	0.93649	0.036
Mof_C 	C 	0.3228	0.2865	0.96873	0.067
Mof_N 	N 	0.32904	0.3399	0.88448	-0.093
Mof_N 	N 	0.3047	0.37236	0.90337	-0.043
Mof_N 	N 	0.3034	0.3565	0.93536	-0.077
Mof_O 	O 	0.32084	0.4503	0.75319	-0.402
Mof_O 	O 	0.44481	0.3133	0.75063	-0.403
Mof_C 	C 	0.3303	0.239	0.96859	-0.114
Mof_H 	H 	0.3324	0.2228	0.9478	0.076
Mof_O 	O 	0.24053	0.04888	0.79486	-0.425
Mof_O 	O 	0.05462	0.2372	0.79474	-0.421
Mof_C 	C 	0.20037	0.06391	0.78067	0.361
Mof_C 	C 	0.07057	0.20119	0.77935	0.357
Mof_C 	C 	0.11035	0.16998	0.7979	-0.056
Mof_C 	C 	0.1224	0.17995	0.83187	-0.076
Mof_H 	H 	0.1063	0.2053	0.8431	0.073
Mof_C 	C 	0.15892	0.15141	0.84878	0.095
Mof_C 	C 	0.13422	0.13214	0.78162	-0.004
Mof_H 	H 	0.1253	0.1251	0.759	0.057
Mof_C 	C 	0.17109	0.10468	0.7987	-0.051
Mof_C 	C 	0.18388	0.11416	0.83251	-0.076
Mof_H 	H 	0.2089	0.0957	0.8441	0.084
Mof_C 	C 	0.1604	0.1975	0.90413	0.002
Mof_H 	H 	0.145	0.2259	0.8971	0.032
Mof_C 	C 	0.1765	0.18604	0.93649	0.033
Mof_C 	C 	0.1772	0.2135	0.96873	0.063
Mof_N 	N 	0.17096	0.1601	0.88448	-0.094
Mof_N 	N 	0.1953	0.12764	0.90337	-0.048
Mof_N 	N 	0.1966	0.1435	0.93536	-0.081
Mof_O 	O 	0.17916	0.0497	0.75319	-0.417
Mof_O 	O 	0.05519	0.1867	0.75063	-0.419
Mof_C 	C 	0.1697	0.261	0.96859	-0.114
Mof_H 	H 	0.1676	0.2772	0.9478	0.074
Mof_O 	O 	0.24053	0.54888	0.29486	-0.414
Mof_O 	O 	0.05462	0.7372	0.29474	-0.42
Mof_C 	C 	0.20037	0.56391	0.28067	0.36
Mof_C 	C 	0.07057	0.70119	0.27935	0.355
Mof_C 	C 	0.11035	0.66998	0.2979	-0.051
Mof_C 	C 	0.1224	0.67995	0.33187	-0.078
Mof_H 	H 	0.1063	0.7053	0.3431	0.075
Mof_C 	C 	0.15892	0.65141	0.34878	0.1
Mof_C 	C 	0.13422	0.63214	0.28162	-0.007
Mof_H 	H 	0.1253	0.6251	0.259	0.061
Mof_C 	C 	0.17109	0.60468	0.2987	-0.044
Mof_C 	C 	0.18388	0.61416	0.33251	-0.079
Mof_H 	H 	0.2089	0.5957	0.3441	0.09
Mof_C 	C 	0.1604	0.6975	0.40413	0.003
Mof_H 	H 	0.145	0.7259	0.3971	0.033
Mof_C 	C 	0.1765	0.68604	0.43649	0.034
Mof_C 	C 	0.1772	0.7135	0.46873	0.065
Mof_N 	N 	0.17096	0.6601	0.38448	-0.094
Mof_N 	N 	0.1953	0.62764	0.40337	-0.044
Mof_N 	N 	0.1966	0.6435	0.43536	-0.077
Mof_O 	O 	0.17916	0.5497	0.25319	-0.407
Mof_O 	O 	0.05519	0.6867	0.25063	-0.416
Mof_C 	C 	0.1697	0.761	0.46859	-0.116
Mof_H 	H 	0.1676	0.7772	0.4478	0.076
Mof_O 	O 	0.74053	0.04888	0.29486	-0.422
Mof_O 	O 	0.55462	0.2372	0.29474	-0.409
Mof_C 	C 	0.70037	0.06391	0.28067	0.359
Mof_C 	C 	0.57057	0.20119	0.27935	0.355
Mof_C 	C 	0.61035	0.16998	0.2979	-0.046
Mof_C 	C 	0.6224	0.17995	0.33187	-0.079
Mof_H 	H 	0.6063	0.2053	0.3431	0.08
Mof_C 	C 	0.65892	0.15141	0.34878	0.102
Mof_C 	C 	0.63422	0.13214	0.28162	-0.008
Mof_H 	H 	0.6253	0.1251	0.259	0.063
Mof_C 	C 	0.67109	0.10468	0.2987	-0.044
Mof_C 	C 	0.68388	0.11416	0.33251	-0.079
Mof_H 	H 	0.7089	0.0957	0.3441	0.088
Mof_C 	C 	0.6604	0.1975	0.40413	0.004
Mof_H 	H 	0.645	0.2259	0.3971	0.035
Mof_C 	C 	0.6765	0.18604	0.43649	0.036
Mof_C 	C 	0.6772	0.2135	0.46873	0.065
Mof_N 	N 	0.67096	0.1601	0.38448	-0.093
Mof_N 	N 	0.6953	0.12764	0.40337	-0.045
Mof_N 	N 	0.6966	0.1435	0.43536	-0.078
Mof_O 	O 	0.67916	0.0497	0.25319	-0.412
Mof_O 	O 	0.55519	0.1867	0.25063	-0.406
Mof_C 	C 	0.6697	0.261	0.46859	-0.114
Mof_H 	H 	0.6676	0.2772	0.4478	0.077
Mof_O 	O 	0.74053	0.54888	0.79486	-0.411
Mof_O 	O 	0.55462	0.7372	0.79474	-0.407
Mof_C 	C 	0.70037	0.56391	0.78067	0.358
Mof_C 	C 	0.57057	0.70119	0.77935	0.354
Mof_C 	C 	0.61035	0.66998	0.7979	-0.041
Mof_C 	C 	0.6224	0.67995	0.83187	-0.082
Mof_H 	H 	0.6063	0.7053	0.8431	0.082
Mof_C 	C 	0.65892	0.65141	0.84878	0.107
Mof_C 	C 	0.63422	0.63214	0.78162	-0.012
Mof_H 	H 	0.6253	0.6251	0.759	0.066
Mof_C 	C 	0.67109	0.60468	0.7987	-0.036
Mof_C 	C 	0.68388	0.61416	0.83251	-0.082
Mof_H 	H 	0.7089	0.5957	0.8441	0.094
Mof_C 	C 	0.6604	0.6975	0.90413	0.006
Mof_H 	H 	0.645	0.7259	0.8971	0.036
Mof_C 	C 	0.6765	0.68604	0.93649	0.037
Mof_C 	C 	0.6772	0.7135	0.96873	0.068
Mof_N 	N 	0.67096	0.6601	0.88448	-0.093
Mof_N 	N 	0.6953	0.62764	0.90337	-0.041
Mof_N 	N 	0.6966	0.6435	0.93536	-0.075
Mof_O 	O 	0.67916	0.5497	0.75319	-0.402
Mof_O 	O 	0.55519	0.6867	0.75063	-0.403
Mof_C 	C 	0.6697	0.761	0.96859	-0.113
Mof_H 	H 	0.6676	0.7772	0.9478	0.079
Mof_O 	O 	0.24053	0.95112	0.20514	-0.394
Mof_O 	O 	0.05462	0.7628	0.20526	-0.42
Mof_C 	C 	0.20037	0.93609	0.21933	0.355
Mof_C 	C 	0.07057	0.79881	0.22065	0.354
Mof_C 	C 	0.11035	0.83002	0.2021	-0.046
Mof_C 	C 	0.1224	0.82005	0.16813	-0.081
Mof_H 	H 	0.1063	0.7947	0.1569	0.076
Mof_C 	C 	0.15892	0.84859	0.15122	0.105
Mof_C 	C 	0.13422	0.86786	0.21838	-0.011
Mof_H 	H 	0.1253	0.8749	0.241	0.065
Mof_C 	C 	0.17109	0.89532	0.2013	-0.035
Mof_C 	C 	0.18388	0.88584	0.16749	-0.083
Mof_H 	H 	0.2089	0.9043	0.1559	0.096
Mof_C 	C 	0.1604	0.8025	0.09587	0.005
Mof_H 	H 	0.145	0.7741	0.1029	0.032
Mof_C 	C 	0.1765	0.81396	0.06351	0.034
Mof_C 	C 	0.1772	0.7865	0.03127	0.067
Mof_N 	N 	0.17096	0.8399	0.11552	-0.094
Mof_N 	N 	0.1953	0.87236	0.09663	-0.04
Mof_N 	N 	0.1966	0.8565	0.06464	-0.074
Mof_O 	O 	0.17916	0.9503	0.24681	-0.387
Mof_O 	O 	0.05519	0.8133	0.24937	-0.413
Mof_C 	C 	0.1697	0.739	0.03141	-0.118
Mof_H 	H 	0.1676	0.7228	0.0522	0.075
Mof_O 	O 	0.24053	0.45112	0.70514	-0.414
Mof_O 	O 	0.05462	0.2628	0.70526	-0.422
Mof_C 	C 	0.20037	0.43609	0.71933	0.36
Mof_C 	C 	0.07057	0.29881	0.72065	0.356
Mof_C 	C 	0.11035	0.33002	0.7021	-0.052
Mof_C 	C 	0.1224	0.32005	0.66813	-0.078
Mof_H 	H 	0.1063	0.2947	0.6569	0.074
Mof_C 	C 	0.15892	0.34859	0.65122	0.099
Mof_C 	C 	0.13422	0.36786	0.71838	-0.007
Mof_H 	H 	0.1253	0.3749	0.741	0.061
Mof_C 	C 	0.17109	0.39532	0.7013	-0.044
Mof_C 	C 	0.18388	0.38584	0.66749	-0.078
Mof_H 	H 	0.2089	0.4043	0.6559	0.09
Mof_C 	C 	0.1604	0.3025	0.59587	0.003
Mof_H 	H 	0.145	0.2741	0.6029	0.031
Mof_C 	C 	0.1765	0.31396	0.56351	0.033
Mof_C 	C 	0.1772	0.2865	0.53127	0.065
Mof_N 	N 	0.17096	0.3399	0.61552	-0.094
Mof_N 	N 	0.1953	0.37236	0.59663	-0.044
Mof_N 	N 	0.1966	0.3565	0.56464	-0.077
Mof_O 	O 	0.17916	0.4503	0.74681	-0.407
Mof_O 	O 	0.05519	0.3133	0.74937	-0.416
Mof_C 	C 	0.1697	0.239	0.53141	-0.118
Mof_H 	H 	0.1676	0.2228	0.5522	0.073
Mof_O 	O 	0.74053	0.95112	0.70514	-0.391
Mof_O 	O 	0.55462	0.7628	0.70526	-0.407
Mof_C 	C 	0.70037	0.93609	0.71933	0.353
Mof_C 	C 	0.57057	0.79881	0.72065	0.353
Mof_C 	C 	0.61035	0.83002	0.7021	-0.037
Mof_C 	C 	0.6224	0.82005	0.66813	-0.085
Mof_H 	H 	0.6063	0.7947	0.6569	0.083
Mof_C 	C 	0.65892	0.84859	0.65122	0.113
Mof_C 	C 	0.63422	0.86786	0.71838	-0.016
Mof_H 	H 	0.6253	0.8749	0.741	0.071
Mof_C 	C 	0.67109	0.89532	0.7013	-0.027
Mof_C 	C 	0.68388	0.88584	0.66749	-0.086
Mof_H 	H 	0.7089	0.9043	0.6559	0.101
Mof_C 	C 	0.6604	0.8025	0.59587	0.008
Mof_H 	H 	0.645	0.7741	0.6029	0.035
Mof_C 	C 	0.6765	0.81396	0.56351	0.037
Mof_C 	C 	0.6772	0.7865	0.53127	0.07
Mof_N 	N 	0.67096	0.8399	0.61552	-0.093
Mof_N 	N 	0.6953	0.87236	0.59663	-0.036
Mof_N 	N 	0.6966	0.8565	0.56464	-0.071
Mof_O 	O 	0.67916	0.9503	0.74681	-0.382
Mof_O 	O 	0.55519	0.8133	0.74937	-0.4
Mof_C 	C 	0.6697	0.739	0.53141	-0.117
Mof_H 	H 	0.6676	0.7228	0.5522	0.078
Mof_O 	O 	0.74053	0.45112	0.20514	-0.411
Mof_O 	O 	0.55462	0.2628	0.20526	-0.409
Mof_C 	C 	0.70037	0.43609	0.21933	0.358
Mof_C 	C 	0.57057	0.29881	0.22065	0.354
Mof_C 	C 	0.61035	0.33002	0.2021	-0.042
Mof_C 	C 	0.6224	0.32005	0.16813	-0.081
Mof_H 	H 	0.6063	0.2947	0.1569	0.081
Mof_C 	C 	0.65892	0.34859	0.15122	0.106
Mof_C 	C 	0.63422	0.36786	0.21838	-0.011
Mof_H 	H 	0.6253	0.3749	0.241	0.066
Mof_C 	C 	0.67109	0.39532	0.2013	-0.037
Mof_C 	C 	0.68388	0.38584	0.16749	-0.082
Mof_H 	H 	0.7089	0.4043	0.1559	0.094
Mof_C 	C 	0.6604	0.3025	0.09587	0.006
Mof_H 	H 	0.645	0.2741	0.1029	0.034
Mof_C 	C 	0.6765	0.31396	0.06351	0.036
Mof_C 	C 	0.6772	0.2865	0.03127	0.068
Mof_N 	N 	0.67096	0.3399	0.11552	-0.093
Mof_N 	N 	0.6953	0.37236	0.09663	-0.041
Mof_N 	N 	0.6966	0.3565	0.06464	-0.075
Mof_O 	O 	0.67916	0.4503	0.24681	-0.402
Mof_O 	O 	0.55519	0.3133	0.24937	-0.403
Mof_C 	C 	0.6697	0.239	0.03141	-0.116
Mof_H 	H 	0.6676	0.2228	0.0522	0.076
Mof_O 	O 	0.75947	0.04888	0.20514	-0.422
Mof_O 	O 	0.94538	0.2372	0.20526	-0.384
Mof_C 	C 	0.79963	0.06391	0.21933	0.358
Mof_C 	C 	0.92943	0.20119	0.22065	0.35
Mof_C 	C 	0.88965	0.16998	0.2021	-0.035
Mof_C 	C 	0.8776	0.17995	0.16813	-0.083
Mof_H 	H 	0.8937	0.2053	0.1569	0.087
Mof_C 	C 	0.84108	0.15141	0.15122	0.108
Mof_C 	C 	0.86578	0.13214	0.21838	-0.013
Mof_H 	H 	0.8747	0.1251	0.241	0.069
Mof_C 	C 	0.82891	0.10468	0.2013	-0.038
Mof_C 	C 	0.81612	0.11416	0.16749	-0.082
Mof_H 	H 	0.7911	0.0957	0.1559	0.089
Mof_C 	C 	0.8396	0.1975	0.09587	0.006
Mof_H 	H 	0.855	0.2259	0.1029	0.039
Mof_C 	C 	0.8235	0.18604	0.06351	0.039
Mof_C 	C 	0.8228	0.2135	0.03127	0.067
Mof_N 	N 	0.82904	0.1601	0.11552	-0.093
Mof_N 	N 	0.8047	0.12764	0.09663	-0.044
Mof_N 	N 	0.8034	0.1435	0.06464	-0.078
Mof_O 	O 	0.82084	0.0497	0.24681	-0.407
Mof_O 	O 	0.94481	0.1867	0.24937	-0.381
Mof_C 	C 	0.8303	0.261	0.03141	-0.111
Mof_H 	H 	0.8324	0.2772	0.0522	0.08
Mof_O 	O 	0.75947	0.54888	0.70514	-0.412
Mof_O 	O 	0.94538	0.7372	0.70526	-0.383
Mof_C 	C 	0.79963	0.56391	0.71933	0.357
Mof_C 	C 	0.92943	0.70119	0.72065	0.348
Mof_C 	C 	0.88965	0.66998	0.7021	-0.03
Mof_C 	C 	0.8776	0.67995	0.66813	-0.086
Mof_H 	H 	0.8937	0.7053	0.6569	0.089
Mof_C 	C 	0.84108	0.65141	0.65122	0.113
Mof_C 	C 	0.86578	0.63214	0.71838	-0.016
Mof_H 	H 	0.8747	0.6251	0.741	0.073
Mof_C 	C 	0.82891	0.60468	0.7013	-0.031
Mof_C 	C 	0.81612	0.61416	0.66749	-0.085
Mof_H 	H 	0.7911	0.5957	0.6559	0.095
Mof_C 	C 	0.8396	0.6975	0.59587	0.007
Mof_H 	H 	0.855	0.7259	0.6029	0.04
Mof_C 	C 	0.8235	0.68604	0.56351	0.04
Mof_C 	C 	0.8228	0.7135	0.53127	0.069
Mof_N 	N 	0.82904	0.6601	0.61552	-0.093
Mof_N 	N 	0.8047	0.62764	0.59663	-0.04
Mof_N 	N 	0.8034	0.6435	0.56464	-0.074
Mof_O 	O 	0.82084	0.5497	0.74681	-0.397
Mof_O 	O 	0.94481	0.6867	0.74937	-0.379
Mof_C 	C 	0.8303	0.761	0.53141	-0.112
Mof_H 	H 	0.8324	0.7772	0.5522	0.082
Mof_O 	O 	0.25947	0.04888	0.70514	-0.425
Mof_O 	O 	0.44538	0.2372	0.70526	-0.409
Mof_C 	C 	0.29963	0.06391	0.71933	0.361
Mof_C 	C 	0.42943	0.20119	0.72065	0.355
Mof_C 	C 	0.38965	0.16998	0.7021	-0.047
Mof_C 	C 	0.3776	0.17995	0.66813	-0.078
Mof_H 	H 	0.3937	0.2053	0.6569	0.079
Mof_C 	C 	0.34108	0.15141	0.65122	0.1
Mof_C 	C 	0.36578	0.13214	0.71838	-0.007
Mof_H 	H 	0.3747	0.1251	0.741	0.062
Mof_C 	C 	0.32891	0.10468	0.7013	-0.046
Mof_C 	C 	0.31612	0.11416	0.66749	-0.077
Mof_H 	H 	0.2911	0.0957	0.6559	0.084
Mof_C 	C 	0.3396	0.1975	0.59587	0.003
Mof_H 	H 	0.355	0.2259	0.6029	0.036
Mof_C 	C 	0.3235	0.18604	0.56351	0.036
Mof_C 	C 	0.3228	0.2135	0.53127	0.064
Mof_N 	N 	0.32904	0.1601	0.61552	-0.093
Mof_N 	N 	0.3047	0.12764	0.59663	-0.047
Mof_N 	N 	0.3034	0.1435	0.56464	-0.08
Mof_O 	O 	0.32084	0.0497	0.74681	-0.413
Mof_O 	O 	0.44481	0.1867	0.74937	-0.406
Mof_C 	C 	0.3303	0.261	0.53141	-0.113
Mof_H 	H 	0.3324	0.2772	0.5522	0.076
Mof_O 	O 	0.25947	0.54888	0.20514	-0.415
Mof_O 	O 	0.44538	0.7372	0.20526	-0.407
Mof_C 	C 	0.29963	0.56391	0.21933	0.359
Mof_C 	C 	0.42943	0.70119	0.22065	0.354
Mof_C 	C 	0.38965	0.66998	0.2021	-0.042
Mof_C 	C 	0.3776	0.67995	0.16813	-0.081
Mof_H 	H 	0.3937	0.7053	0.1569	0.082
Mof_C 	C 	0.34108	0.65141	0.15122	0.105
Mof_C 	C 	0.36578	0.63214	0.21838	-0.01
Mof_H 	H 	0.3747	0.6251	0.241	0.066
Mof_C 	C 	0.32891	0.60468	0.2013	-0.039
Mof_C 	C 	0.31612	0.61416	0.16749	-0.081
Mof_H 	H 	0.2911	0.5957	0.1559	0.09
Mof_C 	C 	0.3396	0.6975	0.09587	0.005
Mof_H 	H 	0.355	0.7259	0.1029	0.037
Mof_C 	C 	0.3235	0.68604	0.06351	0.037
Mof_C 	C 	0.3228	0.7135	0.03127	0.066
Mof_N 	N 	0.32904	0.6601	0.11552	-0.093
Mof_N 	N 	0.3047	0.62764	0.09663	-0.043
Mof_N 	N 	0.3034	0.6435	0.06464	-0.077
Mof_O 	O 	0.32084	0.5497	0.24681	-0.402
Mof_O 	O 	0.44481	0.6867	0.24937	-0.403
Mof_C 	C 	0.3303	0.761	0.03141	-0.113
Mof_H 	H 	0.3324	0.7772	0.0522	0.078
Mof_Cu	Cu	1.30576e-33	0.27981	0.22391	0.882
Mof_Cu	Cu	1.89592e-32	0.77981	0.72391	0.883
Mof_Cu	Cu	0.5	0.27981	0.72391	0.904
Mof_Cu	Cu	0.5	0.77981	0.22391	0.905
Mof_Cu	Cu	8.67455e-33	0.72019	0.22391	0.882
Mof_Cu	Cu	4.22157e-33	0.22019	0.72391	0.881
Mof_Cu	Cu	0.5	0.72019	0.72391	0.904
Mof_Cu	Cu	0.5	0.22019	0.22391	0.903
Mof_Cu	Cu	4.52587e-33	0.27981	0.77609	0.882
Mof_Cu	Cu	5.29445e-33	0.77981	0.27609	0.883
Mof_Cu	Cu	0.5	0.27981	0.27609	0.904
Mof_Cu	Cu	0.5	0.77981	0.77609	0.905
Mof_Cu	Cu	-1.02117e-32	0.72019	0.77609	0.882
Mof_Cu	Cu	-5.75874e-33	0.22019	0.27609	0.881
Mof_Cu	Cu	0.5	0.72019	0.27609	0.904
Mof_Cu	Cu	0.5	0.22019	0.77609	0.903
Mof_Cu	Cu	0.28657	0	0.22531	0.887
Mof_Cu	Cu	0.28657	0.5	0.72531	0.905
Mof_Cu	Cu	0.78657	-7.36879e-33	0.72531	0.888
Mof_Cu	Cu	0.78657	0.5	0.22531	0.907
Mof_Cu	Cu	0.71343	0	0.22531	0.887
Mof_Cu	Cu	0.71343	0.5	0.72531	0.905
Mof_Cu	Cu	0.21343	-7.36879e-33	0.72531	0.885
Mof_Cu	Cu	0.21343	0.5	0.22531	0.904
Mof_Cu	Cu	0.71343	-7.36879e-33	0.77469	0.887
Mof_Cu	Cu	0.71343	0.5	0.27469	0.905
Mof_Cu	Cu	0.21343	-3.68439e-33	0.27469	0.885
Mof_Cu	Cu	0.21343	0.5	0.77469	0.904
Mof_Cu	Cu	0.28657	-7.36879e-33	0.77469	0.887
Mof_Cu	Cu	0.28657	0.5	0.27469	0.905
Mof_Cu	Cu	0.78657	-3.68439e-33	0.27469	0.888
Mof_Cu	Cu	0.78657	0.5	0.77469	0.907
Mof_C 	C 	0.1806	0.1877	-0	-0.12
Mof_H 	H 	0.1849	0.155	-0	0.091
Mof_C 	C 	0.1651	0.2862	-0	0.03
Mof_H 	H 	0.1591	0.3187	-0	0.022
Mof_C 	C 	0.1806	0.6877	0.5	-0.12
Mof_H 	H 	0.1849	0.655	0.5	0.095
Mof_C 	C 	0.1651	0.7862	0.5	0.033
Mof_H 	H 	0.1591	0.8187	0.5	0.026
Mof_C 	C 	0.6806	0.1877	0.5	-0.118
Mof_H 	H 	0.6849	0.155	0.5	0.094
Mof_C 	C 	0.6651	0.2862	0.5	0.034
Mof_H 	H 	0.6591	0.3187	0.5	0.027
Mof_C 	C 	0.6806	0.6877	-0	-0.119
Mof_H 	H 	0.6849	0.655	-0	0.099
Mof_C 	C 	0.6651	0.7862	-0	0.035
Mof_H 	H 	0.6591	0.8187	-0	0.031
Mof_C 	C 	0.8194	0.8123	-0	-0.119
Mof_H 	H 	0.8151	0.845	-0	0.104
Mof_C 	C 	0.8349	0.7138	-0	0.039
Mof_H 	H 	0.8409	0.6813	-0	0.031
Mof_C 	C 	0.8194	0.3123	0.5	-0.117
Mof_H 	H 	0.8151	0.345	0.5	0.1
Mof_C 	C 	0.8349	0.2138	0.5	0.038
Mof_H 	H 	0.8409	0.1813	0.5	0.027
Mof_C 	C 	0.3194	0.8123	0.5	-0.119
Mof_H 	H 	0.3151	0.845	0.5	0.101
Mof_C 	C 	0.3349	0.7138	0.5	0.037
Mof_H 	H 	0.3409	0.6813	0.5	0.026
Mof_C 	C 	0.3194	0.3123	-0	-0.119
Mof_H 	H 	0.3151	0.345	-0	0.097
Mof_C 	C 	0.3349	0.2138	-0	0.034
Mof_H 	H 	0.3409	0.1813	-0	0.023
Mof_C 	C 	0.8194	0.1877	-0	-0.116
Mof_H 	H 	0.8151	0.155	-0	0.096
Mof_C 	C 	0.8349	0.2862	-0	0.036
Mof_H 	H 	0.8409	0.3187	-0	0.032
Mof_C 	C 	0.8194	0.6877	0.5	-0.116
Mof_H 	H 	0.8151	0.655	0.5	0.1
Mof_C 	C 	0.8349	0.7862	0.5	0.038
Mof_H 	H 	0.8409	0.8187	0.5	0.035
Mof_C 	C 	0.3194	0.1877	0.5	-0.117
Mof_H 	H 	0.3151	0.155	0.5	0.092
Mof_C 	C 	0.3349	0.2862	0.5	0.033
Mof_H 	H 	0.3409	0.3187	0.5	0.027
Mof_C 	C 	0.3194	0.6877	-0	-0.118
Mof_H 	H 	0.3151	0.655	-0	0.096
Mof_C 	C 	0.3349	0.7862	-0	0.034
Mof_H 	H 	0.3409	0.8187	-0	0.03
Mof_C 	C 	0.1806	0.8123	-0	-0.122
Mof_H 	H 	0.1849	0.845	-0	0.1
Mof_C 	C 	0.1651	0.7138	-0	0.034
Mof_H 	H 	0.1591	0.6813	-0	0.022
Mof_C 	C 	0.1806	0.3123	0.5	-0.121
Mof_H 	H 	0.1849	0.345	0.5	0.095
Mof_C 	C 	0.1651	0.2138	0.5	0.033
Mof_H 	H 	0.1591	0.1813	0.5	0.018
Mof_C 	C 	0.6806	0.8123	0.5	-0.12
Mof_H 	H 	0.6849	0.845	0.5	0.103
Mof_C 	C 	0.6651	0.7138	0.5	0.038
Mof_H 	H 	0.6591	0.6813	0.5	0.026
Mof_C 	C 	0.6806	0.3123	-0	-0.12
Mof_H 	H 	0.6849	0.345	-0	0.099
Mof_C 	C 	0.6651	0.2138	-0	0.035
Mof_H 	H 	0.6591	0.1813	-0	0.023
_end
