data_functionalizedCrystal
_audit_creation_method	'EQeq! by Chris Wilmer'
_symmetry_space_group_name_H-M	'P1'
_symmetry_Int_Tables_number	1
_symmetry_cell_setting	triclinic
loop_
_symmetry_equiv_pos_as_xyz
  x,y,z
_cell_length_a	12.3804
_cell_length_b	12.3804
_cell_length_c	46.505
_cell_angle_alpha	90
_cell_angle_beta	90
_cell_angle_gamma	90
loop_
_atom_site_label
_atom_site_type_symbol
_atom_site_fract_x
_atom_site_fract_y
_atom_site_fract_z
_atom_site_charge
Mof_N 	N 	0.079	0.8854	0.2818	-0.266
Mof_N 	N 	0.8951	0.9551	0.37659	-0.138
Mof_N 	N 	0.9256	0.1312	0.3577	-0.14
Mof_N 	N 	0.8467	0.1113	0.4044	-0.142
Mof_N 	N 	0.7469	0.7952	0.46777	-0.265
Mof_C 	C 	0.0164	0.8262	0.299	0.061
Mof_C 	C 	0.9635	0.8669	0.3228	-0.116
Mof_C 	C 	0.9778	0.9756	0.3295	0.042
Mof_C 	C 	0.0372	0.0402	0.3111	-0.109
Mof_C 	C 	0.0867	0.9904	0.2876	0.045
Mof_C 	C 	0.9293	0.0238	0.3559	0.1
Mof_C 	C 	0.8801	0.1706	0.382	0.093
Mof_C 	C 	0.8547	0.0054	0.4001	0.101
Mof_C 	C 	0.8206	0.9317	0.4237	0.045
Mof_C 	C 	0.8197	0.82	0.4202	-0.105
Mof_C 	C 	0.7832	0.7528	0.4426	0.049
Mof_C 	C 	0.7474	0.9032	0.4705	0.069
Mof_C 	C 	0.7815	0.9727	0.4501	-0.116
Mof_H 	H 	0.008	0.7504	0.2947	-0.019
Mof_H 	H 	0.9174	0.8221	0.334	0.078
Mof_H 	H 	0.0432	0.1183	0.3145	0.064
Mof_H 	H 	0.128	0.035	0.2746	-0.024
Mof_H 	H 	0.8718	0.2482	0.3836	0.013
Mof_H 	H 	0.843	0.7883	0.4026	0.075
Mof_H 	H 	0.7843	0.6778	0.4397	-0.019
Mof_H 	H 	0.7216	0.9327	0.4883	-0.026
Mof_H 	H 	0.7802	0.0494	0.4533	0.069
Mof_N 	N 	0.921	0.1146	0.7818	-0.265
Mof_N 	N 	0.1049	0.0449	0.87659	-0.137
Mof_N 	N 	0.0744	0.8688	0.8577	-0.139
Mof_N 	N 	0.1533	0.8887	0.9044	-0.141
Mof_N 	N 	0.2531	0.2048	0.96777	-0.264
Mof_C 	C 	0.9836	0.1738	0.799	0.062
Mof_C 	C 	0.0365	0.1331	0.8228	-0.115
Mof_C 	C 	0.0222	0.0244	0.8295	0.043
Mof_C 	C 	0.9628	0.9598	0.8111	-0.108
Mof_C 	C 	0.9133	0.0096	0.7876	0.045
Mof_C 	C 	0.0707	0.9762	0.8559	0.1
Mof_C 	C 	0.1199	0.8294	0.882	0.093
Mof_C 	C 	0.1453	0.9946	0.9001	0.101
Mof_C 	C 	0.1794	0.0683	0.9237	0.045
Mof_C 	C 	0.1803	0.18	0.9202	-0.105
Mof_C 	C 	0.2168	0.2472	0.9426	0.049
Mof_C 	C 	0.2526	0.0968	0.9705	0.069
Mof_C 	C 	0.2185	0.0273	0.9501	-0.115
Mof_H 	H 	0.992	0.2496	0.7947	-0.019
Mof_H 	H 	0.0826	0.1779	0.834	0.078
Mof_H 	H 	0.9568	0.8817	0.8145	0.064
Mof_H 	H 	0.872	0.965	0.7746	-0.024
Mof_H 	H 	0.1282	0.7518	0.8836	0.013
Mof_H 	H 	0.157	0.2117	0.9026	0.075
Mof_H 	H 	0.2157	0.3222	0.9397	-0.018
Mof_H 	H 	0.2784	0.0673	0.9883	-0.025
Mof_H 	H 	0.2198	0.9506	0.9533	0.069
Mof_N 	N 	0.6146	0.579	0.5318	-0.267
Mof_N 	N 	0.5449	0.3951	0.62659	-0.137
Mof_N 	N 	0.3688	0.4256	0.6077	-0.14
Mof_N 	N 	0.3887	0.3467	0.6544	-0.141
Mof_N 	N 	0.7048	0.2469	0.71777	-0.265
Mof_C 	C 	0.6738	0.5164	0.549	0.068
Mof_C 	C 	0.6331	0.4635	0.5728	-0.122
Mof_C 	C 	0.5244	0.4778	0.5795	0.046
Mof_C 	C 	0.4598	0.5372	0.5611	-0.114
Mof_C 	C 	0.5096	0.5867	0.5376	0.054
Mof_C 	C 	0.4762	0.4293	0.6059	0.098
Mof_C 	C 	0.3294	0.3801	0.632	0.093
Mof_C 	C 	0.4946	0.3547	0.6501	0.101
Mof_C 	C 	0.5683	0.3206	0.6737	0.045
Mof_C 	C 	0.68	0.3197	0.6702	-0.105
Mof_C 	C 	0.7472	0.2832	0.6926	0.049
Mof_C 	C 	0.5968	0.2474	0.7205	0.07
Mof_C 	C 	0.5273	0.2815	0.7001	-0.118
Mof_H 	H 	0.7496	0.508	0.5447	-0.02
Mof_H 	H 	0.6779	0.4174	0.584	0.08
Mof_H 	H 	0.3817	0.5432	0.5645	0.066
Mof_H 	H 	0.465	0.628	0.5246	-0.028
Mof_H 	H 	0.2518	0.3718	0.6336	0.012
Mof_H 	H 	0.7117	0.343	0.6526	0.075
Mof_H 	H 	0.8222	0.2843	0.6897	-0.019
Mof_H 	H 	0.5673	0.2216	0.7383	-0.027
Mof_H 	H 	0.4506	0.2802	0.7033	0.07
Mof_N 	N 	0.3854	0.421	0.0318	-0.268
Mof_N 	N 	0.4551	0.6049	0.12659	-0.137
Mof_N 	N 	0.6312	0.5744	0.1077	-0.14
Mof_N 	N 	0.6113	0.6533	0.1544	-0.141
Mof_N 	N 	0.2952	0.7531	0.21777	-0.265
Mof_C 	C 	0.3262	0.4836	0.049	0.068
Mof_C 	C 	0.3669	0.5365	0.0728	-0.122
Mof_C 	C 	0.4756	0.5222	0.0795	0.046
Mof_C 	C 	0.5402	0.4628	0.0611	-0.114
Mof_C 	C 	0.4904	0.4133	0.0376	0.054
Mof_C 	C 	0.5238	0.5707	0.1059	0.098
Mof_C 	C 	0.6706	0.6199	0.132	0.093
Mof_C 	C 	0.5054	0.6453	0.1501	0.101
Mof_C 	C 	0.4317	0.6794	0.1737	0.045
Mof_C 	C 	0.32	0.6803	0.1702	-0.105
Mof_C 	C 	0.2528	0.7168	0.1926	0.049
Mof_C 	C 	0.4032	0.7526	0.2205	0.07
Mof_C 	C 	0.4727	0.7185	0.2001	-0.118
Mof_H 	H 	0.2504	0.492	0.0447	-0.021
Mof_H 	H 	0.3221	0.5826	0.084	0.08
Mof_H 	H 	0.6183	0.4568	0.0645	0.066
Mof_H 	H 	0.535	0.372	0.0246	-0.028
Mof_H 	H 	0.7482	0.6282	0.1336	0.012
Mof_H 	H 	0.2883	0.657	0.1526	0.075
Mof_H 	H 	0.1778	0.7157	0.1897	-0.019
Mof_H 	H 	0.4327	0.7784	0.2383	-0.027
Mof_H 	H 	0.5494	0.7198	0.2033	0.07
Mof_N 	N 	0.421	0.3854	0.9682	-0.267
Mof_N 	N 	0.6049	0.4551	0.87341	-0.137
Mof_N 	N 	0.5744	0.6312	0.8923	-0.14
Mof_N 	N 	0.6533	0.6113	0.8456	-0.141
Mof_N 	N 	0.7531	0.2952	0.78223	-0.265
Mof_C 	C 	0.4836	0.3262	0.951	0.068
Mof_C 	C 	0.5365	0.3669	0.9272	-0.122
Mof_C 	C 	0.5222	0.4756	0.9205	0.046
Mof_C 	C 	0.4628	0.5402	0.9389	-0.114
Mof_C 	C 	0.4133	0.4904	0.9624	0.054
Mof_C 	C 	0.5707	0.5238	0.8941	0.098
Mof_C 	C 	0.6199	0.6706	0.868	0.093
Mof_C 	C 	0.6453	0.5054	0.8499	0.101
Mof_C 	C 	0.6794	0.4317	0.8263	0.045
Mof_C 	C 	0.6803	0.32	0.8298	-0.105
Mof_C 	C 	0.7168	0.2528	0.8074	0.049
Mof_C 	C 	0.7526	0.4032	0.7795	0.07
Mof_C 	C 	0.7185	0.4727	0.7999	-0.118
Mof_H 	H 	0.492	0.2504	0.9553	-0.02
Mof_H 	H 	0.5826	0.3221	0.916	0.08
Mof_H 	H 	0.4568	0.6183	0.9355	0.066
Mof_H 	H 	0.372	0.535	0.9754	-0.027
Mof_H 	H 	0.6282	0.7482	0.8664	0.012
Mof_H 	H 	0.657	0.2883	0.8474	0.075
Mof_H 	H 	0.7157	0.1778	0.8103	-0.019
Mof_H 	H 	0.7784	0.4327	0.7617	-0.027
Mof_H 	H 	0.7198	0.5494	0.7967	0.07
Mof_N 	N 	0.579	0.6146	0.4682	-0.267
Mof_N 	N 	0.3951	0.5449	0.37341	-0.137
Mof_N 	N 	0.4256	0.3688	0.3923	-0.14
Mof_N 	N 	0.3467	0.3887	0.3456	-0.141
Mof_N 	N 	0.2469	0.7048	0.28223	-0.265
Mof_C 	C 	0.5164	0.6738	0.451	0.068
Mof_C 	C 	0.4635	0.6331	0.4272	-0.122
Mof_C 	C 	0.4778	0.5244	0.4205	0.046
Mof_C 	C 	0.5372	0.4598	0.4389	-0.114
Mof_C 	C 	0.5867	0.5096	0.4624	0.054
Mof_C 	C 	0.4293	0.4762	0.3941	0.098
Mof_C 	C 	0.3801	0.3294	0.368	0.093
Mof_C 	C 	0.3547	0.4946	0.3499	0.101
Mof_C 	C 	0.3206	0.5683	0.3263	0.045
Mof_C 	C 	0.3197	0.68	0.3298	-0.105
Mof_C 	C 	0.2832	0.7472	0.3074	0.049
Mof_C 	C 	0.2474	0.5968	0.2795	0.07
Mof_C 	C 	0.2815	0.5273	0.2999	-0.118
Mof_H 	H 	0.508	0.7496	0.4553	-0.02
Mof_H 	H 	0.4174	0.6779	0.416	0.08
Mof_H 	H 	0.5432	0.3817	0.4355	0.066
Mof_H 	H 	0.628	0.465	0.4754	-0.028
Mof_H 	H 	0.3718	0.2518	0.3664	0.012
Mof_H 	H 	0.343	0.7117	0.3474	0.075
Mof_H 	H 	0.2843	0.8222	0.3103	-0.019
Mof_H 	H 	0.2216	0.5673	0.2617	-0.027
Mof_H 	H 	0.2802	0.4506	0.2967	0.07
Mof_N 	N 	0.8854	0.079	0.7182	-0.265
Mof_N 	N 	0.9551	0.8951	0.62341	-0.137
Mof_N 	N 	0.1312	0.9256	0.6423	-0.139
Mof_N 	N 	0.1113	0.8467	0.5956	-0.141
Mof_N 	N 	0.7952	0.7469	0.53223	-0.264
Mof_C 	C 	0.8262	0.0164	0.701	0.062
Mof_C 	C 	0.8669	0.9635	0.6772	-0.115
Mof_C 	C 	0.9756	0.9778	0.6705	0.043
Mof_C 	C 	0.0402	0.0372	0.6889	-0.108
Mof_C 	C 	0.9904	0.0867	0.7124	0.045
Mof_C 	C 	0.0238	0.9293	0.6441	0.1
Mof_C 	C 	0.1706	0.8801	0.618	0.093
Mof_C 	C 	0.0054	0.8547	0.5999	0.101
Mof_C 	C 	0.9317	0.8206	0.5763	0.045
Mof_C 	C 	0.82	0.8197	0.5798	-0.105
Mof_C 	C 	0.7528	0.7832	0.5574	0.049
Mof_C 	C 	0.9032	0.7474	0.5295	0.069
Mof_C 	C 	0.9727	0.7815	0.5499	-0.116
Mof_H 	H 	0.7504	0.008	0.7053	-0.019
Mof_H 	H 	0.8221	0.9174	0.666	0.078
Mof_H 	H 	0.1183	0.0432	0.6855	0.064
Mof_H 	H 	0.035	0.128	0.7254	-0.024
Mof_H 	H 	0.2482	0.8718	0.6164	0.013
Mof_H 	H 	0.7883	0.843	0.5974	0.075
Mof_H 	H 	0.6778	0.7843	0.5603	-0.019
Mof_H 	H 	0.9327	0.7216	0.5117	-0.026
Mof_H 	H 	0.0494	0.7802	0.5467	0.069
Mof_N 	N 	0.1146	0.921	0.2182	-0.265
Mof_N 	N 	0.0449	0.1049	0.12341	-0.137
Mof_N 	N 	0.8688	0.0744	0.1423	-0.139
Mof_N 	N 	0.8887	0.1533	0.0956	-0.141
Mof_N 	N 	0.2048	0.2531	0.03223	-0.265
Mof_C 	C 	0.1738	0.9836	0.201	0.062
Mof_C 	C 	0.1331	0.0365	0.1772	-0.115
Mof_C 	C 	0.0244	0.0222	0.1705	0.043
Mof_C 	C 	0.9598	0.9628	0.1889	-0.108
Mof_C 	C 	0.0096	0.9133	0.2124	0.045
Mof_C 	C 	0.9762	0.0707	0.1441	0.1
Mof_C 	C 	0.8294	0.1199	0.118	0.093
Mof_C 	C 	0.9946	0.1453	0.0999	0.101
Mof_C 	C 	0.0683	0.1794	0.0763	0.044
Mof_C 	C 	0.18	0.1803	0.0798	-0.105
Mof_C 	C 	0.2472	0.2168	0.0574	0.049
Mof_C 	C 	0.0968	0.2526	0.0295	0.068
Mof_C 	C 	0.0273	0.2185	0.0499	-0.116
Mof_H 	H 	0.2496	0.992	0.2053	-0.019
Mof_H 	H 	0.1779	0.0826	0.166	0.078
Mof_H 	H 	0.8817	0.9568	0.1855	0.064
Mof_H 	H 	0.965	0.872	0.2254	-0.024
Mof_H 	H 	0.7518	0.1282	0.1164	0.013
Mof_H 	H 	0.2117	0.157	0.0974	0.075
Mof_H 	H 	0.3222	0.2157	0.0603	-0.019
Mof_H 	H 	0.0673	0.2784	0.0117	-0.027
Mof_H 	H 	0.9506	0.2198	0.0467	0.069
Mof_Zn	Zn	0.18518	0.81482	0.25	1.145
Mof_Zn	Zn	0.81482	0.18518	0.75	1.145
Mof_Zn	Zn	0.68518	0.68518	0.5	1.145
Mof_Zn	Zn	0.31482	0.31482	-0	1.145
Mof_N 	N 	0.8518	0.3466	0.2761	-0.278
Mof_N 	N 	0.0656	0.4484	0.36256	-0.138
Mof_N 	N 	0.0398	0.6196	0.34	-0.145
Mof_N 	N 	0.1221	0.612	0.3859	-0.142
Mof_N 	N 	0.1888	0.3227	0.46064	-0.266
Mof_C 	C 	0.9118	0.2939	0.2953	0.077
Mof_C 	C 	0.9751	0.3433	0.3157	-0.133
Mof_C 	C 	0.9731	0.4542	0.3172	0.06
Mof_C 	C 	0.9119	0.5131	0.2975	-0.133
Mof_C 	C 	0.8507	0.4528	0.2772	0.07
Mof_C 	C 	0.0312	0.5116	0.3412	0.094
Mof_C 	C 	0.0875	0.6616	0.3626	0.105
Mof_C 	C 	0.1092	0.5044	0.3848	0.097
Mof_C 	C 	0.1396	0.4401	0.4105	0.052
Mof_C 	C 	0.1428	0.327	0.4104	-0.12
Mof_C 	C 	0.1668	0.2725	0.4357	0.07
Mof_C 	C 	0.1859	0.4294	0.4601	0.065
Mof_C 	C 	0.1641	0.4931	0.436	-0.122
Mof_H 	H 	0.913	0.2179	0.2942	-0.027
Mof_H 	H 	0.017	0.3032	0.3288	0.084
Mof_H 	H 	0.9106	0.5895	0.2976	0.072
Mof_H 	H 	0.8087	0.4905	0.2633	-0.035
Mof_H 	H 	0.0989	0.7393	0.3624	0.009
Mof_H 	H 	0.1252	0.2878	0.3935	0.08
Mof_H 	H 	0.1682	0.1966	0.4356	-0.018
Mof_H 	H 	0.1958	0.4659	0.4779	-0.026
Mof_H 	H 	0.1664	0.5702	0.4366	0.074
Mof_N 	N 	0.1482	0.6534	0.7761	-0.278
Mof_N 	N 	0.9344	0.5516	0.86256	-0.138
Mof_N 	N 	0.9602	0.3804	0.84	-0.145
Mof_N 	N 	0.8779	0.388	0.8859	-0.142
Mof_N 	N 	0.8112	0.6773	0.96064	-0.265
Mof_C 	C 	0.0882	0.7061	0.7953	0.077
Mof_C 	C 	0.0249	0.6567	0.8157	-0.133
Mof_C 	C 	0.0269	0.5458	0.8172	0.06
Mof_C 	C 	0.0881	0.4869	0.7975	-0.133
Mof_C 	C 	0.1493	0.5472	0.7772	0.07
Mof_C 	C 	0.9688	0.4884	0.8412	0.094
Mof_C 	C 	0.9125	0.3384	0.8626	0.105
Mof_C 	C 	0.8908	0.4956	0.8848	0.097
Mof_C 	C 	0.8604	0.5599	0.9105	0.052
Mof_C 	C 	0.8572	0.673	0.9104	-0.12
Mof_C 	C 	0.8332	0.7275	0.9357	0.07
Mof_C 	C 	0.8141	0.5706	0.9601	0.065
Mof_C 	C 	0.8359	0.5069	0.936	-0.122
Mof_H 	H 	0.087	0.7821	0.7942	-0.027
Mof_H 	H 	0.983	0.6968	0.8288	0.084
Mof_H 	H 	0.0894	0.4105	0.7976	0.072
Mof_H 	H 	0.1913	0.5095	0.7633	-0.035
Mof_H 	H 	0.9011	0.2607	0.8624	0.009
Mof_H 	H 	0.8748	0.7122	0.8935	0.08
Mof_H 	H 	0.8318	0.8034	0.9356	-0.018
Mof_H 	H 	0.8042	0.5341	0.9779	-0.025
Mof_H 	H 	0.8336	0.4298	0.9366	0.075
Mof_N 	N 	0.1534	0.3518	0.5261	-0.278
Mof_N 	N 	0.0516	0.5656	0.61256	-0.137
Mof_N 	N 	0.8804	0.5398	0.59	-0.144
Mof_N 	N 	0.888	0.6221	0.6359	-0.142
Mof_N 	N 	0.1773	0.6888	0.71064	-0.265
Mof_C 	C 	0.2061	0.4118	0.5453	0.079
Mof_C 	C 	0.1567	0.4751	0.5657	-0.137
Mof_C 	C 	0.0458	0.4731	0.5672	0.057
Mof_C 	C 	0.9869	0.4119	0.5475	-0.13
Mof_C 	C 	0.0472	0.3507	0.5272	0.068
Mof_C 	C 	0.9884	0.5312	0.5912	0.096
Mof_C 	C 	0.8384	0.5875	0.6126	0.106
Mof_C 	C 	0.9956	0.6092	0.6348	0.097
Mof_C 	C 	0.0599	0.6396	0.6605	0.052
Mof_C 	C 	0.173	0.6428	0.6604	-0.119
Mof_C 	C 	0.2275	0.6668	0.6857	0.07
Mof_C 	C 	0.0706	0.6859	0.7101	0.065
Mof_C 	C 	0.0069	0.6641	0.686	-0.12
Mof_H 	H 	0.2821	0.413	0.5442	-0.028
Mof_H 	H 	0.1968	0.517	0.5788	0.087
Mof_H 	H 	0.9105	0.4106	0.5476	0.071
Mof_H 	H 	0.0095	0.3087	0.5133	-0.035
Mof_H 	H 	0.7607	0.5989	0.6124	0.01
Mof_H 	H 	0.2122	0.6252	0.6435	0.08
Mof_H 	H 	0.3034	0.6682	0.6856	-0.018
Mof_H 	H 	0.0341	0.6958	0.7279	-0.025
Mof_H 	H 	0.9298	0.6664	0.6866	0.073
Mof_N 	N 	0.8466	0.6482	0.0261	-0.278
Mof_N 	N 	0.9484	0.4344	0.11256	-0.137
Mof_N 	N 	0.1196	0.4602	0.09	-0.144
Mof_N 	N 	0.112	0.3779	0.1359	-0.142
Mof_N 	N 	0.8227	0.3112	0.21064	-0.265
Mof_C 	C 	0.7939	0.5882	0.0453	0.078
Mof_C 	C 	0.8433	0.5249	0.0657	-0.137
Mof_C 	C 	0.9542	0.5269	0.0672	0.057
Mof_C 	C 	0.0131	0.5881	0.0475	-0.13
Mof_C 	C 	0.9528	0.6493	0.0272	0.068
Mof_C 	C 	0.0116	0.4688	0.0912	0.096
Mof_C 	C 	0.1616	0.4125	0.1126	0.106
Mof_C 	C 	0.0044	0.3908	0.1348	0.097
Mof_C 	C 	0.9401	0.3604	0.1605	0.052
Mof_C 	C 	0.827	0.3572	0.1604	-0.119
Mof_C 	C 	0.7725	0.3332	0.1857	0.07
Mof_C 	C 	0.9294	0.3141	0.2101	0.065
Mof_C 	C 	0.9931	0.3359	0.186	-0.12
Mof_H 	H 	0.7179	0.587	0.0442	-0.028
Mof_H 	H 	0.8032	0.483	0.0788	0.087
Mof_H 	H 	0.0895	0.5894	0.0476	0.07
Mof_H 	H 	0.9905	0.6913	0.0133	-0.036
Mof_H 	H 	0.2393	0.4011	0.1124	0.01
Mof_H 	H 	0.7878	0.3748	0.1435	0.08
Mof_H 	H 	0.6966	0.3318	0.1856	-0.018
Mof_H 	H 	0.9659	0.3042	0.2279	-0.025
Mof_H 	H 	0.0702	0.3336	0.1866	0.073
Mof_N 	N 	0.6482	0.8466	0.9739	-0.277
Mof_N 	N 	0.4344	0.9484	0.88744	-0.137
Mof_N 	N 	0.4602	0.1196	0.91	-0.144
Mof_N 	N 	0.3779	0.112	0.8641	-0.142
Mof_N 	N 	0.3112	0.8227	0.78936	-0.265
Mof_C 	C 	0.5882	0.7939	0.9547	0.079
Mof_C 	C 	0.5249	0.8433	0.9343	-0.137
Mof_C 	C 	0.5269	0.9542	0.9328	0.057
Mof_C 	C 	0.5881	0.0131	0.9525	-0.13
Mof_C 	C 	0.6493	0.9528	0.9728	0.068
Mof_C 	C 	0.4688	0.0116	0.9088	0.096
Mof_C 	C 	0.4125	0.1616	0.8874	0.106
Mof_C 	C 	0.3908	0.0044	0.8652	0.097
Mof_C 	C 	0.3604	0.9401	0.8395	0.052
Mof_C 	C 	0.3572	0.827	0.8396	-0.119
Mof_C 	C 	0.3332	0.7725	0.8143	0.07
Mof_C 	C 	0.3141	0.9294	0.7899	0.065
Mof_C 	C 	0.3359	0.9931	0.814	-0.12
Mof_H 	H 	0.587	0.7179	0.9558	-0.028
Mof_H 	H 	0.483	0.8032	0.9212	0.087
Mof_H 	H 	0.5894	0.0895	0.9524	0.071
Mof_H 	H 	0.6913	0.9905	0.9867	-0.035
Mof_H 	H 	0.4011	0.2393	0.8876	0.01
Mof_H 	H 	0.3748	0.7878	0.8565	0.08
Mof_H 	H 	0.3318	0.6966	0.8144	-0.018
Mof_H 	H 	0.3042	0.9659	0.7721	-0.025
Mof_H 	H 	0.3336	0.0702	0.8134	0.073
Mof_N 	N 	0.3518	0.1534	0.4739	-0.278
Mof_N 	N 	0.5656	0.0516	0.38744	-0.137
Mof_N 	N 	0.5398	0.8804	0.41	-0.144
Mof_N 	N 	0.6221	0.888	0.3641	-0.142
Mof_N 	N 	0.6888	0.1773	0.28936	-0.265
Mof_C 	C 	0.4118	0.2061	0.4547	0.079
Mof_C 	C 	0.4751	0.1567	0.4343	-0.137
Mof_C 	C 	0.4731	0.0458	0.4328	0.057
Mof_C 	C 	0.4119	0.9869	0.4525	-0.13
Mof_C 	C 	0.3507	0.0472	0.4728	0.068
Mof_C 	C 	0.5312	0.9884	0.4088	0.096
Mof_C 	C 	0.5875	0.8384	0.3874	0.106
Mof_C 	C 	0.6092	0.9956	0.3652	0.097
Mof_C 	C 	0.6396	0.0599	0.3395	0.052
Mof_C 	C 	0.6428	0.173	0.3396	-0.119
Mof_C 	C 	0.6668	0.2275	0.3143	0.07
Mof_C 	C 	0.6859	0.0706	0.2899	0.065
Mof_C 	C 	0.6641	0.0069	0.314	-0.12
Mof_H 	H 	0.413	0.2821	0.4558	-0.028
Mof_H 	H 	0.517	0.1968	0.4212	0.087
Mof_H 	H 	0.4106	0.9105	0.4524	0.071
Mof_H 	H 	0.3087	0.0095	0.4867	-0.035
Mof_H 	H 	0.5989	0.7607	0.3876	0.01
Mof_H 	H 	0.6252	0.2122	0.3565	0.08
Mof_H 	H 	0.6682	0.3034	0.3144	-0.018
Mof_H 	H 	0.6958	0.0341	0.2721	-0.025
Mof_H 	H 	0.6664	0.9298	0.3134	0.073
Mof_N 	N 	0.3466	0.8518	0.7239	-0.278
Mof_N 	N 	0.4484	0.0656	0.63744	-0.138
Mof_N 	N 	0.6196	0.0398	0.66	-0.145
Mof_N 	N 	0.612	0.1221	0.6141	-0.142
Mof_N 	N 	0.3227	0.1888	0.53936	-0.266
Mof_C 	C 	0.2939	0.9118	0.7047	0.077
Mof_C 	C 	0.3433	0.9751	0.6843	-0.133
Mof_C 	C 	0.4542	0.9731	0.6828	0.06
Mof_C 	C 	0.5131	0.9119	0.7025	-0.133
Mof_C 	C 	0.4528	0.8507	0.7228	0.07
Mof_C 	C 	0.5116	0.0312	0.6588	0.094
Mof_C 	C 	0.6616	0.0875	0.6374	0.105
Mof_C 	C 	0.5044	0.1092	0.6152	0.097
Mof_C 	C 	0.4401	0.1396	0.5895	0.052
Mof_C 	C 	0.327	0.1428	0.5896	-0.12
Mof_C 	C 	0.2725	0.1668	0.5643	0.07
Mof_C 	C 	0.4294	0.1859	0.5399	0.065
Mof_C 	C 	0.4931	0.1641	0.564	-0.122
Mof_H 	H 	0.2179	0.913	0.7058	-0.027
Mof_H 	H 	0.3032	0.017	0.6712	0.084
Mof_H 	H 	0.5895	0.9106	0.7024	0.072
Mof_H 	H 	0.4905	0.8087	0.7367	-0.035
Mof_H 	H 	0.7393	0.0989	0.6376	0.009
Mof_H 	H 	0.2878	0.1252	0.6065	0.08
Mof_H 	H 	0.1966	0.1682	0.5644	-0.018
Mof_H 	H 	0.4659	0.1958	0.5221	-0.026
Mof_H 	H 	0.5702	0.1664	0.5634	0.074
Mof_N 	N 	0.6534	0.1482	0.2239	-0.278
Mof_N 	N 	0.5516	0.9344	0.13744	-0.138
Mof_N 	N 	0.3804	0.9602	0.16	-0.145
Mof_N 	N 	0.388	0.8779	0.1141	-0.142
Mof_N 	N 	0.6773	0.8112	0.03936	-0.266
Mof_C 	C 	0.7061	0.0882	0.2047	0.077
Mof_C 	C 	0.6567	0.0249	0.1843	-0.133
Mof_C 	C 	0.5458	0.0269	0.1828	0.06
Mof_C 	C 	0.4869	0.0881	0.2025	-0.133
Mof_C 	C 	0.5472	0.1493	0.2228	0.07
Mof_C 	C 	0.4884	0.9688	0.1588	0.094
Mof_C 	C 	0.3384	0.9125	0.1374	0.105
Mof_C 	C 	0.4956	0.8908	0.1152	0.097
Mof_C 	C 	0.5599	0.8604	0.0895	0.052
Mof_C 	C 	0.673	0.8572	0.0896	-0.12
Mof_C 	C 	0.7275	0.8332	0.0643	0.07
Mof_C 	C 	0.5706	0.8141	0.0399	0.065
Mof_C 	C 	0.5069	0.8359	0.064	-0.122
Mof_H 	H 	0.7821	0.087	0.2058	-0.027
Mof_H 	H 	0.6968	0.983	0.1712	0.084
Mof_H 	H 	0.4105	0.0894	0.2024	0.072
Mof_H 	H 	0.5095	0.1913	0.2367	-0.035
Mof_H 	H 	0.2607	0.9011	0.1376	0.009
Mof_H 	H 	0.7122	0.8748	0.1065	0.08
Mof_H 	H 	0.8034	0.8318	0.0644	-0.019
Mof_H 	H 	0.5341	0.8042	0.0221	-0.026
Mof_H 	H 	0.4298	0.8336	0.0634	0.074
Mof_Zn	Zn	0.74361	0.25639	0.25	1.147
Mof_Zn	Zn	0.25639	0.74361	0.75	1.147
Mof_Zn	Zn	0.24361	0.24361	0.5	1.147
Mof_Zn	Zn	0.75639	0.75639	-0	1.146
_end
