data_functionalizedCrystal
_audit_creation_method	'EQeq! by Chris Wilmer'
_symmetry_space_group_name_H-M	'P1'
_symmetry_Int_Tables_number	1
_symmetry_cell_setting	triclinic
loop_
_symmetry_equiv_pos_as_xyz
  x,y,z
_cell_length_a	21.4903
_cell_length_b	21.4903
_cell_length_c	21.4903
_cell_angle_alpha	90
_cell_angle_beta	90
_cell_angle_gamma	90
loop_
_atom_site_label
_atom_site_type_symbol
_atom_site_fract_x
_atom_site_fract_y
_atom_site_fract_z
_atom_site_charge
Mof_Zn	Zn	0.44795	0.44795	0.44795	1.151
Mof_Zn	Zn	0.55205	0.55205	0.44795	1.151
Mof_Zn	Zn	0.55205	0.44795	0.55205	1.151
Mof_Zn	Zn	0.44795	0.55205	0.55205	1.151
Mof_Zn	Zn	0.44795	0.44795	0.55205	1.151
Mof_Zn	Zn	0.55205	0.55205	0.55205	1.151
Mof_Zn	Zn	0.44795	0.55205	0.44795	1.151
Mof_Zn	Zn	0.55205	0.44795	0.44795	1.151
Mof_O 	O 	0.5	0.5	0.5	-1.524
Mof_O 	O 	0.4658	0.4658	0.362	-0.614
Mof_C 	C 	0.46012	0.46012	0.2349	0.189
Mof_C 	C 	0.46021	0.46021	0.1699	-0.089
Mof_O 	O 	0.5342	0.5342	0.362	-0.614
Mof_C 	C 	0.53988	0.53988	0.2349	0.19
Mof_C 	C 	0.53979	0.53979	0.1699	-0.088
Mof_O 	O 	0.5342	0.4658	0.638	-0.613
Mof_C 	C 	0.53988	0.46012	0.7651	0.19
Mof_C 	C 	0.53979	0.46021	0.8301	-0.088
Mof_O 	O 	0.4658	0.5342	0.638	-0.613
Mof_C 	C 	0.46012	0.53988	0.7651	0.19
Mof_C 	C 	0.46021	0.53979	0.8301	-0.088
Mof_O 	O 	0.362	0.4658	0.4658	-0.613
Mof_C 	C 	0.2349	0.46012	0.46012	0.19
Mof_C 	C 	0.1699	0.46021	0.46021	-0.088
Mof_O 	O 	0.362	0.5342	0.5342	-0.613
Mof_C 	C 	0.2349	0.53988	0.53988	0.19
Mof_C 	C 	0.1699	0.53979	0.53979	-0.088
Mof_O 	O 	0.638	0.5342	0.4658	-0.613
Mof_C 	C 	0.7651	0.53988	0.46012	0.19
Mof_C 	C 	0.8301	0.53979	0.46021	-0.088
Mof_O 	O 	0.638	0.4658	0.5342	-0.613
Mof_C 	C 	0.7651	0.46012	0.53988	0.19
Mof_C 	C 	0.8301	0.46021	0.53979	-0.088
Mof_O 	O 	0.4658	0.362	0.4658	-0.613
Mof_C 	C 	0.46012	0.2349	0.46012	0.19
Mof_C 	C 	0.46021	0.1699	0.46021	-0.088
Mof_O 	O 	0.5342	0.362	0.5342	-0.613
Mof_C 	C 	0.53988	0.2349	0.53988	0.19
Mof_C 	C 	0.53979	0.1699	0.53979	-0.088
Mof_O 	O 	0.4658	0.638	0.5342	-0.613
Mof_C 	C 	0.46012	0.7651	0.53988	0.19
Mof_C 	C 	0.46021	0.8301	0.53979	-0.088
Mof_O 	O 	0.5342	0.638	0.4658	-0.613
Mof_C 	C 	0.53988	0.7651	0.46012	0.19
Mof_C 	C 	0.53979	0.8301	0.46021	-0.088
Mof_O 	O 	0.4658	0.4658	0.638	-0.613
Mof_C 	C 	0.46012	0.46012	0.7651	0.19
Mof_C 	C 	0.46021	0.46021	0.8301	-0.088
Mof_O 	O 	0.5342	0.5342	0.638	-0.613
Mof_C 	C 	0.53988	0.53988	0.7651	0.19
Mof_C 	C 	0.53979	0.53979	0.8301	-0.088
Mof_O 	O 	0.4658	0.5342	0.362	-0.613
Mof_C 	C 	0.46012	0.53988	0.2349	0.19
Mof_C 	C 	0.46021	0.53979	0.1699	-0.088
Mof_O 	O 	0.5342	0.4658	0.362	-0.613
Mof_C 	C 	0.53988	0.46012	0.2349	0.19
Mof_C 	C 	0.53979	0.46021	0.1699	-0.088
Mof_O 	O 	0.4658	0.362	0.5342	-0.613
Mof_C 	C 	0.46012	0.2349	0.53988	0.19
Mof_C 	C 	0.46021	0.1699	0.53979	-0.088
Mof_O 	O 	0.5342	0.362	0.4658	-0.613
Mof_C 	C 	0.53988	0.2349	0.46012	0.19
Mof_C 	C 	0.53979	0.1699	0.46021	-0.088
Mof_O 	O 	0.5342	0.638	0.5342	-0.613
Mof_C 	C 	0.53988	0.7651	0.53988	0.19
Mof_C 	C 	0.53979	0.8301	0.53979	-0.088
Mof_O 	O 	0.4658	0.638	0.4658	-0.613
Mof_C 	C 	0.46012	0.7651	0.46012	0.19
Mof_C 	C 	0.46021	0.8301	0.46021	-0.088
Mof_O 	O 	0.362	0.4658	0.5342	-0.613
Mof_C 	C 	0.2349	0.46012	0.53988	0.19
Mof_C 	C 	0.1699	0.46021	0.53979	-0.088
Mof_O 	O 	0.362	0.5342	0.4658	-0.613
Mof_C 	C 	0.2349	0.53988	0.46012	0.19
Mof_C 	C 	0.1699	0.53979	0.46021	-0.088
Mof_O 	O 	0.638	0.4658	0.4658	-0.613
Mof_C 	C 	0.7651	0.46012	0.46012	0.19
Mof_C 	C 	0.8301	0.46021	0.46021	-0.088
Mof_O 	O 	0.638	0.5342	0.5342	-0.613
Mof_C 	C 	0.7651	0.53988	0.53988	0.19
Mof_C 	C 	0.8301	0.53979	0.53979	-0.088
Mof_C 	C 	0.5	0.5	0.3309	1.353
Mof_C 	C 	0.5	0.5	0.2667	-0.705
Mof_C 	C 	0.5	0.5	0.1369	0.127
Mof_C 	C 	0.5	0.5	0.0659	-0.039
Mof_C 	C 	0.5	0.5	0.6691	1.353
Mof_C 	C 	0.5	0.5	0.7333	-0.705
Mof_C 	C 	0.5	0.5	0.8631	0.127
Mof_C 	C 	0.5	0.5	0.9341	-0.039
Mof_C 	C 	0.3309	0.5	0.5	1.353
Mof_C 	C 	0.2667	0.5	0.5	-0.705
Mof_C 	C 	0.1369	0.5	0.5	0.127
Mof_C 	C 	0.0659	0.5	0.5	-0.039
Mof_C 	C 	0.6691	0.5	0.5	1.353
Mof_C 	C 	0.7333	0.5	0.5	-0.705
Mof_C 	C 	0.8631	0.5	0.5	0.127
Mof_C 	C 	0.9341	0.5	0.5	-0.039
Mof_C 	C 	0.5	0.3309	0.5	1.353
Mof_C 	C 	0.5	0.2667	0.5	-0.705
Mof_C 	C 	0.5	0.1369	0.5	0.127
Mof_C 	C 	0.5	0.0659	0.5	-0.039
Mof_C 	C 	0.5	0.6691	0.5	1.353
Mof_C 	C 	0.5	0.7333	0.5	-0.705
Mof_C 	C 	0.5	0.8631	0.5	0.127
Mof_C 	C 	0.5	0.9341	0.5	-0.039
Mof_C 	C 	0.4436	0.5	0.0327	0.007
Mof_C 	C 	0.5564	0.5	0.0327	0.007
Mof_C 	C 	0.5564	0.5	0.9673	0.007
Mof_C 	C 	0.4436	0.5	0.9673	0.007
Mof_C 	C 	0.0327	0.4436	0.5	0.007
Mof_C 	C 	0.0327	0.5564	0.5	0.007
Mof_C 	C 	0.9673	0.5564	0.5	0.007
Mof_C 	C 	0.9673	0.4436	0.5	0.007
Mof_C 	C 	0.5	0.0327	0.4436	0.007
Mof_C 	C 	0.5	0.0327	0.5564	0.007
Mof_C 	C 	0.5	0.9673	0.5564	0.007
Mof_C 	C 	0.5	0.9673	0.4436	0.007
Mof_C 	C 	0.5	0.4436	0.9673	0.007
Mof_C 	C 	0.5	0.5564	0.9673	0.007
Mof_C 	C 	0.5	0.5564	0.0327	0.007
Mof_C 	C 	0.5	0.4436	0.0327	0.007
Mof_C 	C 	0.4436	0.0327	0.5	0.007
Mof_C 	C 	0.5564	0.0327	0.5	0.007
Mof_C 	C 	0.5564	0.9673	0.5	0.007
Mof_C 	C 	0.4436	0.9673	0.5	0.007
Mof_C 	C 	0.0327	0.5	0.5564	0.007
Mof_C 	C 	0.0327	0.5	0.4436	0.007
Mof_C 	C 	0.9673	0.5	0.4436	0.007
Mof_C 	C 	0.9673	0.5	0.5564	0.007
_end
