data_functionalizedCrystal
_audit_creation_method	'EQeq! by Chris Wilmer'
_symmetry_space_group_name_H-M	'P1'
_symmetry_Int_Tables_number	1
_symmetry_cell_setting	triclinic
loop_
_symmetry_equiv_pos_as_xyz
  x,y,z
_cell_length_a	10.3547
_cell_length_b	10.5172
_cell_length_c	12.39
_cell_angle_alpha	70.646
_cell_angle_beta	89.451
_cell_angle_gamma	63.849
loop_
_atom_site_label
_atom_site_type_symbol
_atom_site_fract_x
_atom_site_fract_y
_atom_site_fract_z
_atom_site_charge
Mof_Co	Co	-0	0	-0	1.06
Mof_Co	Co	-0	0.5	-0	1.022
Mof_H 	H 	0.3867	0.4629	0.7752	0.127
Mof_H 	H 	0.7173	0.4521	0.0193	-0.167
Mof_H 	H 	0.8415	0.6598	0.7518	0.01
Mof_H 	H 	0.6658	0.6787	0.6294	0.11
Mof_H 	H 	0.5384	0.4635	0.9043	0.174
Mof_H 	H 	0.4011	0.7795	0.334	0.075
Mof_H 	H 	0.2848	0.8937	0.1476	0.002
Mof_H 	H 	0.9892	0.7616	0.2338	0.144
Mof_H 	H 	0.0956	0.6479	0.425	0.014
Mof_H 	H 	0.6891	0.0124	0.3213	0.102
Mof_H 	H 	0.8137	0.9457	0.4984	-0.025
Mof_H 	H 	0.0611	0.13	0.3441	-0.161
Mof_H 	H 	0.6133	0.5371	0.2248	0.121
Mof_H 	H 	0.2827	0.5479	0.9807	0.182
Mof_H 	H 	0.1585	0.3402	0.2482	-0.011
Mof_H 	H 	0.3342	0.3213	0.3706	0.051
Mof_H 	H 	0.4616	0.5365	0.0957	-0.008
Mof_H 	H 	0.5989	0.2205	0.666	0.106
Mof_H 	H 	0.7152	0.1063	0.8524	0.032
Mof_H 	H 	0.0108	0.2384	0.7662	-0.141
Mof_H 	H 	0.9044	0.3521	0.575	0.156
Mof_H 	H 	0.3109	0.9876	0.6787	-0.038
Mof_H 	H 	0.1863	0.0543	0.5016	0.158
Mof_H 	H 	0.9389	0.87	0.6559	0.231
Mof_C 	C 	0.7086	0.496	0.9393	0.38
Mof_C 	C 	0.7812	0.6175	0.7832	0.124
Mof_C 	C 	0.6743	0.6311	0.7089	-0.182
Mof_C 	C 	0.5804	0.5745	0.7517	0.138
Mof_C 	C 	0.5991	0.5043	0.871	-0.283
Mof_C 	C 	0.4675	0.5855	0.6734	0.087
Mof_C 	C 	0.3303	0.6395	0.5235	0.112
Mof_C 	C 	0.2595	0.7049	0.4017	-0
Mof_C 	C 	0.3156	0.7768	0.316	-0.086
Mof_C 	C 	0.2455	0.8445	0.2042	0.041
Mof_C 	C 	0.0717	0.7678	0.2548	-0.151
Mof_C 	C 	0.1353	0.6983	0.3698	-0.007
Mof_C 	C 	0.7318	0.1113	0.1125	0.277
Mof_C 	C 	0.8097	0.0949	0.2229	0.063
Mof_C 	C 	0.7687	0.0306	0.325	-0.206
Mof_C 	C 	0.842	0.9928	0.4318	0.207
Mof_C 	C 	0.9576	0.0238	0.4419	-0.232
Mof_C 	C 	0.9899	0.0999	0.3398	0.348
Mof_C 	C 	0.921	0.1336	0.2309	-0.227
Mof_C 	C 	0.9678	0.2182	0.1277	0.422
Mof_C 	C 	0.2914	0.504	0.0607	-0.231
Mof_C 	C 	0.2188	0.3825	0.2168	0.017
Mof_C 	C 	0.3257	0.3689	0.2911	-0.06
Mof_C 	C 	0.4196	0.4255	0.2483	-0.036
Mof_C 	C 	0.4009	0.4957	0.129	0.053
Mof_C 	C 	0.5325	0.4145	0.3266	0.139
Mof_C 	C 	0.6697	0.3605	0.4765	0.072
Mof_C 	C 	0.7405	0.2951	0.5983	0.135
Mof_C 	C 	0.6844	0.2232	0.684	-0.179
Mof_C 	C 	0.7545	0.1555	0.7958	0.111
Mof_C 	C 	0.9283	0.2322	0.7452	0.317
Mof_C 	C 	0.8647	0.3017	0.6302	-0.262
Mof_C 	C 	0.2682	0.8887	0.8875	0.364
Mof_C 	C 	0.1903	0.9051	0.7771	-0.211
Mof_C 	C 	0.2313	0.9694	0.675	0.266
Mof_C 	C 	0.158	0.0072	0.5682	-0.42
Mof_C 	C 	0.0424	0.9762	0.5581	0.297
Mof_C 	C 	0.0101	0.9001	0.6602	-0.38
Mof_C 	C 	0.079	0.8664	0.7691	0.103
Mof_C 	C 	0.0322	0.7818	0.8723	0.275
Mof_N 	N 	0.3848	0.5178	0.7055	-0.166
Mof_N 	N 	0.296	0.5499	0.6101	-0.094
Mof_N 	N 	0.4364	0.6637	0.5589	-0.128
Mof_N 	N 	0.8034	0.5473	0.8977	-0.245
Mof_N 	N 	0.1229	0.8435	0.1719	-0.193
Mof_N 	N 	0.6152	0.4822	0.2945	-0.176
Mof_N 	N 	0.704	0.4501	0.3899	-0.076
Mof_N 	N 	0.5636	0.3363	0.4411	-0.136
Mof_N 	N 	0.1966	0.4527	0.1023	-0.207
Mof_N 	N 	0.8771	0.1565	0.8281	-0.219
Mof_O 	O 	0.9793	0.33	0.133	-0.413
Mof_O 	O 	0.9941	0.1772	0.0415	-0.448
Mof_O 	O 	0.5962	0.1889	0.0921	-0.282
Mof_O 	O 	0.8042	0.0354	0.0537	-0.413
Mof_O 	O 	0.0207	0.67	0.867	-0.407
Mof_O 	O 	0.0059	0.8228	0.9585	-0.36
Mof_O 	O 	0.4038	0.8111	0.9079	-0.217
Mof_O 	O 	0.1958	0.9646	0.9463	-0.341
_end
