data_functionalizedCrystal
_audit_creation_method	'EQeq! by Chris Wilmer'
_symmetry_space_group_name_H-M	'P1'
_symmetry_Int_Tables_number	1
_symmetry_cell_setting	triclinic
loop_
_symmetry_equiv_pos_as_xyz
  x,y,z
_cell_length_a	6.843
_cell_length_b	10.978
_cell_length_c	12.687
_cell_angle_alpha	90
_cell_angle_beta	90
_cell_angle_gamma	90
loop_
_atom_site_label
_atom_site_type_symbol
_atom_site_fract_x
_atom_site_fract_y
_atom_site_fract_z
_atom_site_charge
Mof_N 	N 	0.984	0.8902	0.7918	-0.18
Mof_N 	N 	0.8652	0.9107	0.5325	-0.158
Mof_C 	C 	0.9865	0.9241	0.7067	0.048
Mof_C 	C 	0.9925	0.9641	0.5984	0.008
Mof_C 	C 	0.8739	0.9478	0.4328	-0.003
Mof_H 	H 	0.781	0.9121	0.3787	0.009
Mof_N 	N 	0.016	0.3902	0.2082	-0.181
Mof_N 	N 	0.1348	0.4107	0.4675	-0.159
Mof_C 	C 	0.0135	0.4241	0.2933	0.048
Mof_C 	C 	0.0075	0.4641	0.4016	0.008
Mof_C 	C 	0.1261	0.4478	0.5672	-0.003
Mof_H 	H 	0.219	0.4121	0.6213	0.009
Mof_N 	N 	0.016	0.1098	0.2082	-0.181
Mof_N 	N 	0.1348	0.0893	0.4675	-0.159
Mof_C 	C 	0.0135	0.0759	0.2933	0.048
Mof_C 	C 	0.0075	0.0359	0.4016	0.008
Mof_C 	C 	0.1261	0.0522	0.5672	-0.003
Mof_H 	H 	0.219	0.0879	0.6213	0.009
Mof_N 	N 	0.984	0.6098	0.7918	-0.181
Mof_N 	N 	0.8652	0.5893	0.5325	-0.159
Mof_C 	C 	0.9865	0.5759	0.7067	0.048
Mof_C 	C 	0.9925	0.5359	0.5984	0.008
Mof_C 	C 	0.8739	0.5522	0.4328	-0.003
Mof_H 	H 	0.781	0.5879	0.3787	0.009
Mof_Ag	Ag	0.87213	0.25	0.08328	0.555
Mof_Ag	Ag	0.12787	0.75	0.91672	0.555
Mof_N 	N 	0.516	0.1098	0.2918	-0.183
Mof_N 	N 	0.6348	0.0893	0.0325	-0.159
Mof_C 	C 	0.5135	0.0759	0.2067	0.047
Mof_C 	C 	0.5075	0.0359	0.0984	0.008
Mof_C 	C 	0.6261	0.0522	0.9328	-0.002
Mof_H 	H 	0.719	0.0879	0.8787	0.009
Mof_N 	N 	0.484	0.6098	0.7082	-0.182
Mof_N 	N 	0.3652	0.5893	0.9675	-0.159
Mof_C 	C 	0.4865	0.5759	0.7933	0.048
Mof_C 	C 	0.4925	0.5359	0.9016	0.007
Mof_C 	C 	0.3739	0.5522	0.0672	-0.001
Mof_H 	H 	0.281	0.5879	0.1213	0.009
Mof_N 	N 	0.484	0.8902	0.7082	-0.183
Mof_N 	N 	0.3652	0.9107	0.9675	-0.159
Mof_C 	C 	0.4865	0.9241	0.7933	0.047
Mof_C 	C 	0.4925	0.9641	0.9016	0.008
Mof_C 	C 	0.3739	0.9478	0.0672	-0.002
Mof_H 	H 	0.281	0.9121	0.1213	0.009
Mof_N 	N 	0.516	0.3902	0.2918	-0.182
Mof_N 	N 	0.6348	0.4107	0.0325	-0.159
Mof_C 	C 	0.5135	0.4241	0.2067	0.048
Mof_C 	C 	0.5075	0.4641	0.0984	0.007
Mof_C 	C 	0.6261	0.4478	0.9328	-0.001
Mof_H 	H 	0.719	0.4121	0.8787	0.009
Mof_Ag	Ag	0.62787	0.75	0.58328	0.558
Mof_Ag	Ag	0.37213	0.25	0.41672	0.558
_end
