data_functionalizedCrystal
_audit_creation_method	'EQeq! by Chris Wilmer'
_symmetry_space_group_name_H-M	'P1'
_symmetry_Int_Tables_number	1
_symmetry_cell_setting	triclinic
loop_
_symmetry_equiv_pos_as_xyz
  x,y,z
_cell_length_a	30.275
_cell_length_b	15.289
_cell_length_c	22.421
_cell_angle_alpha	90
_cell_angle_beta	90
_cell_angle_gamma	90
loop_
_atom_site_label
_atom_site_type_symbol
_atom_site_fract_x
_atom_site_fract_y
_atom_site_fract_z
_atom_site_charge
Mof_Cu	Cu	0.11968	0.70038	0.83243	0.914
Mof_N 	N 	0.11065	0.6898	0.92765	-0.189
Mof_O 	O 	0.07317	0.6141	0.8118	-0.396
Mof_C 	C 	0.05972	0.5971	0.7599	0.336
Mof_Cu	Cu	0.1301	0.69607	0.71461	0.929
Mof_O 	O 	0.07534	0.6275	0.71185	-0.376
Mof_C 	C 	0.02185	0.5338	0.7543	-0.082
Mof_N 	N 	0.18469	0.8439	0.05009	-0.241
Mof_H 	H 	0.1958	0.8308	0.016	0.138
Mof_O 	O 	0.17017	0.78289	0.82881	-0.391
Mof_N 	N 	0.17423	0.0176	0.0095	-0.231
Mof_H 	H 	0.1487	0.0087	0.0253	0.136
Mof_C 	C 	0.98299	0.5405	0.79007	0.041
Mof_O 	O 	0.1841	0.7622	0.73147	-0.401
Mof_N 	N 	0.05899	0.0298	0.90182	-0.121
Mof_C 	C 	0.97643	0.6104	0.8304	-0.077
Mof_H 	H 	0.9983	0.6527	0.8346	0.074
Mof_O 	O 	0.33654	0.10309	0.83102	-0.381
Mof_C 	C 	0.9386	0.6167	0.8633	-0.03
Mof_H 	H 	0.9353	0.6622	0.8905	0.041
Mof_O 	O 	0.33782	0.08704	0.73126	-0.393
Mof_C 	C 	0.90467	0.5547	0.8563	-0.024
Mof_H 	H 	0.8789	0.5597	0.8785	0.034
Mof_O 	O 	0.90444	0.30456	0.78247	-0.394
Mof_C 	C 	0.90943	0.4875	0.8172	-0.083
Mof_H 	H 	0.8865	0.4477	0.8125	0.076
Mof_O 	O 	0.92068	0.2966	0.68513	-0.402
Mof_C 	C 	0.94878	0.4769	0.78342	0.047
Mof_C 	C 	0.95543	0.4066	0.74245	-0.084
Mof_O 	O 	0.13375	0.8072	0.11951	-0.321
Mof_C 	C 	0.92382	0.3301	0.736	0.35
Mof_O 	O 	0.2122	0.0733	0.93166	-0.231
Mof_C 	C 	0.99307	0.4032	0.70814	-0.013
Mof_H 	H 	0.9968	0.3577	0.6811	0.051
Mof_C 	C 	0.02601	0.4674	0.71347	-0.016
Mof_H 	H 	0.0508	0.465	0.6891	0.049
Mof_C 	C 	0.192	0.7954	0.7816	0.347
Mof_C 	C 	0.22971	0.8589	0.78578	-0.092
Mof_C 	C 	0.22149	0.9384	0.8108	-0.005
Mof_H 	H 	0.1939	0.9493	0.8275	0.051
Mof_C 	C 	0.25369	0.0043	0.8119	-0.025
Mof_H 	H 	0.2474	0.0579	0.8296	0.064
Mof_C 	C 	0.29442	0.9897	0.787	-0.08
Mof_C 	C 	0.30537	0.9064	0.7631	0.038
Mof_C 	C 	0.34831	0.8871	0.7408	-0.074
Mof_H 	H 	0.3698	0.9306	0.7403	0.07
Mof_C 	C 	0.35818	0.806	0.7202	-0.03
Mof_H 	H 	0.3864	0.7945	0.7058	0.04
Mof_C 	C 	0.32665	0.7401	0.7206	-0.025
Mof_H 	H 	0.3342	0.6847	0.707	0.036
Mof_C 	C 	0.28467	0.7555	0.7407	-0.083
Mof_H 	H 	0.2638	0.7108	0.7401	0.07
Mof_C 	C 	0.27289	0.8392	0.76231	0.046
Mof_C 	C 	0.32588	0.0653	0.7831	0.337
Mof_C 	C 	0.08723	0.6052	0.0115	-0.126
Mof_H 	H 	0.0723	0.5566	0.0262	0.08
Mof_C 	C 	0.10733	0.6626	0.05	0.051
Mof_H 	H 	0.1057	0.6538	0.091	0.03
Mof_C 	C 	0.12995	0.7335	0.02702	-0.114
Mof_C 	C 	0.12989	0.745	0.9657	0.077
Mof_H 	H 	0.1441	0.7939	0.9502	0.009
Mof_C 	C 	0.15035	0.7977	0.06935	0.266
Mof_C 	C 	0.2047	0.9164	0.08385	0.039
Mof_H 	H 	0.1838	0.9352	0.1147	0.043
Mof_C 	C 	0.24751	0.8872	0.1144	-0.151
Mof_H 	H 	0.2413	0.8392	0.1414	0.084
Mof_H 	H 	0.2683	0.8668	0.0846	0.077
Mof_C 	C 	0.26777	0.9635	0.1492	-0.078
Mof_H 	H 	0.2483	0.9791	0.1818	0.065
Mof_H 	H 	0.2958	0.9451	0.1661	0.048
Mof_C 	C 	0.27522	0.0432	0.11	-0.063
Mof_H 	H 	0.2857	0.0914	0.1344	0.053
Mof_H 	H 	0.2977	0.0301	0.0805	0.052
Mof_C 	C 	0.23288	0.07	0.0787	-0.163
Mof_H 	H 	0.2388	0.1187	0.0521	0.09
Mof_H 	H 	0.2114	0.0891	0.108	0.086
Mof_C 	C 	0.21398	0.9935	0.043	0.051
Mof_H 	H 	0.2365	0.9751	0.0141	0.037
Mof_C 	C 	0.17659	0.0532	0.9549	0.231
Mof_C 	C 	0.13459	0.0661	0.9214	-0.098
Mof_C 	C 	0.09634	0.0195	0.9325	0.065
Mof_H 	H 	0.0967	0.9786	0.9632	0.019
Mof_C 	C 	0.05884	0.0889	0.8584	0.07
Mof_H 	H 	0.0328	0.0977	0.8373	0.027
Mof_C 	C 	0.09523	0.1378	0.8432	-0.116
Mof_H 	H 	0.0939	0.1776	0.8118	0.076
Mof_C 	C 	0.13384	0.1267	0.8753	0.036
Mof_H 	H 	0.1589	0.1593	0.8662	0.033
Mof_C 	C 	0.08941	0.6203	0.9511	0.074
Mof_H 	H 	0.0757	0.581	0.9254	0.017
Mof_Cu	Cu	0.38032	0.29962	0.33243	0.914
Mof_N 	N 	0.38935	0.3102	0.42765	-0.189
Mof_O 	O 	0.42683	0.3859	0.3118	-0.397
Mof_C 	C 	0.44028	0.4029	0.2599	0.336
Mof_Cu	Cu	0.3699	0.30393	0.21461	0.929
Mof_O 	O 	0.42466	0.3725	0.21185	-0.376
Mof_C 	C 	0.47815	0.4662	0.2543	-0.082
Mof_N 	N 	0.31531	0.1561	0.55009	-0.241
Mof_H 	H 	0.3042	0.1692	0.516	0.138
Mof_O 	O 	0.32983	0.21711	0.32881	-0.391
Mof_N 	N 	0.32577	0.9824	0.5095	-0.231
Mof_H 	H 	0.3513	0.9913	0.5253	0.136
Mof_C 	C 	0.51701	0.4595	0.29007	0.041
Mof_O 	O 	0.3159	0.2378	0.23147	-0.401
Mof_N 	N 	0.44101	0.9702	0.40182	-0.121
Mof_C 	C 	0.52357	0.3896	0.3304	-0.077
Mof_H 	H 	0.5017	0.3473	0.3346	0.074
Mof_O 	O 	0.16346	0.89691	0.33102	-0.381
Mof_C 	C 	0.5614	0.3833	0.3633	-0.03
Mof_H 	H 	0.5647	0.3378	0.3905	0.041
Mof_O 	O 	0.16218	0.91296	0.23126	-0.393
Mof_C 	C 	0.59533	0.4453	0.3563	-0.024
Mof_H 	H 	0.6211	0.4403	0.3785	0.034
Mof_O 	O 	0.59556	0.69544	0.28247	-0.394
Mof_C 	C 	0.59057	0.5125	0.3172	-0.083
Mof_H 	H 	0.6135	0.5523	0.3125	0.076
Mof_O 	O 	0.57932	0.7034	0.18513	-0.402
Mof_C 	C 	0.55122	0.5231	0.28342	0.047
Mof_C 	C 	0.54457	0.5934	0.24245	-0.084
Mof_O 	O 	0.36625	0.1928	0.61951	-0.321
Mof_C 	C 	0.57618	0.6699	0.236	0.35
Mof_O 	O 	0.2878	0.9267	0.43166	-0.231
Mof_C 	C 	0.50693	0.5968	0.20814	-0.013
Mof_H 	H 	0.5032	0.6423	0.1811	0.051
Mof_C 	C 	0.47399	0.5326	0.21347	-0.016
Mof_H 	H 	0.4492	0.535	0.1891	0.049
Mof_C 	C 	0.308	0.2046	0.2816	0.347
Mof_C 	C 	0.27029	0.1411	0.28578	-0.091
Mof_C 	C 	0.27851	0.0616	0.3108	-0.006
Mof_H 	H 	0.3061	0.0507	0.3275	0.051
Mof_C 	C 	0.24631	0.9957	0.3119	-0.024
Mof_H 	H 	0.2526	0.9421	0.3296	0.064
Mof_C 	C 	0.20558	0.0103	0.287	-0.081
Mof_C 	C 	0.19463	0.0936	0.2631	0.038
Mof_C 	C 	0.15169	0.1129	0.2408	-0.075
Mof_H 	H 	0.1302	0.0694	0.2403	0.071
Mof_C 	C 	0.14182	0.194	0.2202	-0.03
Mof_H 	H 	0.1136	0.2055	0.2058	0.04
Mof_C 	C 	0.17335	0.2599	0.2206	-0.026
Mof_H 	H 	0.1658	0.3153	0.207	0.036
Mof_C 	C 	0.21533	0.2445	0.2407	-0.082
Mof_H 	H 	0.2362	0.2892	0.2401	0.07
Mof_C 	C 	0.22711	0.1608	0.26231	0.046
Mof_C 	C 	0.17412	0.9347	0.2831	0.337
Mof_C 	C 	0.41277	0.3948	0.5115	-0.126
Mof_H 	H 	0.4277	0.4434	0.5262	0.08
Mof_C 	C 	0.39267	0.3374	0.55	0.051
Mof_H 	H 	0.3943	0.3462	0.591	0.03
Mof_C 	C 	0.37005	0.2665	0.52702	-0.114
Mof_C 	C 	0.37011	0.255	0.4657	0.077
Mof_H 	H 	0.3559	0.2061	0.4502	0.009
Mof_C 	C 	0.34965	0.2023	0.56935	0.266
Mof_C 	C 	0.2953	0.0836	0.58385	0.039
Mof_H 	H 	0.3162	0.0648	0.6147	0.043
Mof_C 	C 	0.25249	0.1128	0.6144	-0.151
Mof_H 	H 	0.2587	0.1608	0.6414	0.084
Mof_H 	H 	0.2317	0.1332	0.5846	0.077
Mof_C 	C 	0.23223	0.0365	0.6492	-0.078
Mof_H 	H 	0.2517	0.0209	0.6818	0.065
Mof_H 	H 	0.2042	0.0549	0.6661	0.048
Mof_C 	C 	0.22478	0.9568	0.61	-0.063
Mof_H 	H 	0.2143	0.9086	0.6344	0.053
Mof_H 	H 	0.2023	0.9699	0.5805	0.051
Mof_C 	C 	0.26712	0.93	0.5787	-0.163
Mof_H 	H 	0.2612	0.8813	0.5521	0.09
Mof_H 	H 	0.2886	0.9109	0.608	0.086
Mof_C 	C 	0.28602	0.0065	0.543	0.051
Mof_H 	H 	0.2635	0.0249	0.5141	0.037
Mof_C 	C 	0.32341	0.9468	0.4549	0.232
Mof_C 	C 	0.36541	0.9339	0.4214	-0.099
Mof_C 	C 	0.40366	0.9805	0.4325	0.066
Mof_H 	H 	0.4033	0.0214	0.4632	0.018
Mof_C 	C 	0.44116	0.9111	0.3584	0.07
Mof_H 	H 	0.4672	0.9023	0.3373	0.027
Mof_C 	C 	0.40477	0.8622	0.3432	-0.117
Mof_H 	H 	0.4061	0.8224	0.3118	0.076
Mof_C 	C 	0.36616	0.8733	0.3753	0.037
Mof_H 	H 	0.3411	0.8407	0.3662	0.033
Mof_C 	C 	0.41059	0.3797	0.4511	0.074
Mof_H 	H 	0.4243	0.419	0.4254	0.017
Mof_Cu	Cu	0.88032	0.20038	0.66757	0.914
Mof_N 	N 	0.88935	0.1898	0.57235	-0.189
Mof_O 	O 	0.92683	0.1141	0.6882	-0.396
Mof_C 	C 	0.94028	0.0971	0.7401	0.336
Mof_Cu	Cu	0.8699	0.19607	0.78539	0.929
Mof_O 	O 	0.92466	0.1275	0.78815	-0.376
Mof_C 	C 	0.97815	0.0338	0.7457	-0.082
Mof_N 	N 	0.81531	0.3439	0.44991	-0.241
Mof_H 	H 	0.8042	0.3308	0.484	0.138
Mof_O 	O 	0.82983	0.28289	0.67119	-0.391
Mof_N 	N 	0.82577	0.5176	0.4905	-0.231
Mof_H 	H 	0.8513	0.5087	0.4747	0.136
Mof_C 	C 	0.01701	0.0405	0.70993	0.041
Mof_O 	O 	0.8159	0.2622	0.76853	-0.401
Mof_N 	N 	0.94101	0.5298	0.59818	-0.121
Mof_C 	C 	0.02357	0.1104	0.6696	-0.077
Mof_H 	H 	0.0017	0.1527	0.6654	0.074
Mof_O 	O 	0.66346	0.60309	0.66898	-0.381
Mof_C 	C 	0.0614	0.1167	0.6367	-0.03
Mof_H 	H 	0.0647	0.1622	0.6095	0.041
Mof_O 	O 	0.66218	0.58704	0.76874	-0.393
Mof_C 	C 	0.09533	0.0547	0.6437	-0.024
Mof_H 	H 	0.1211	0.0597	0.6215	0.034
Mof_O 	O 	0.09556	0.80456	0.71753	-0.394
Mof_C 	C 	0.09057	0.9875	0.6828	-0.083
Mof_H 	H 	0.1135	0.9477	0.6875	0.076
Mof_O 	O 	0.07932	0.7966	0.81487	-0.402
Mof_C 	C 	0.05122	0.9769	0.71658	0.048
Mof_C 	C 	0.04457	0.9066	0.75755	-0.084
Mof_O 	O 	0.86625	0.3072	0.38049	-0.321
Mof_C 	C 	0.07618	0.8301	0.764	0.35
Mof_O 	O 	0.7878	0.5733	0.56834	-0.231
Mof_C 	C 	0.00693	0.9032	0.79186	-0.012
Mof_H 	H 	0.0032	0.8577	0.8189	0.051
Mof_C 	C 	0.97399	0.9674	0.78653	-0.017
Mof_H 	H 	0.9492	0.965	0.8109	0.049
Mof_C 	C 	0.808	0.2954	0.7184	0.347
Mof_C 	C 	0.77029	0.3589	0.71422	-0.091
Mof_C 	C 	0.77851	0.4384	0.6892	-0.006
Mof_H 	H 	0.8061	0.4493	0.6725	0.051
Mof_C 	C 	0.74631	0.5043	0.6881	-0.024
Mof_H 	H 	0.7526	0.5579	0.6704	0.064
Mof_C 	C 	0.70558	0.4897	0.713	-0.081
Mof_C 	C 	0.69463	0.4064	0.7369	0.038
Mof_C 	C 	0.65169	0.3871	0.7592	-0.075
Mof_H 	H 	0.6302	0.4306	0.7597	0.071
Mof_C 	C 	0.64182	0.306	0.7798	-0.03
Mof_H 	H 	0.6136	0.2945	0.7942	0.04
Mof_C 	C 	0.67335	0.2401	0.7794	-0.026
Mof_H 	H 	0.6658	0.1847	0.793	0.036
Mof_C 	C 	0.71533	0.2555	0.7593	-0.082
Mof_H 	H 	0.7362	0.2108	0.7599	0.07
Mof_C 	C 	0.72711	0.3392	0.73769	0.046
Mof_C 	C 	0.67412	0.5653	0.7169	0.337
Mof_C 	C 	0.91277	0.1052	0.4885	-0.126
Mof_H 	H 	0.9277	0.0566	0.4738	0.08
Mof_C 	C 	0.89267	0.1626	0.45	0.051
Mof_H 	H 	0.8943	0.1538	0.409	0.03
Mof_C 	C 	0.87005	0.2335	0.47298	-0.114
Mof_C 	C 	0.87011	0.245	0.5343	0.077
Mof_H 	H 	0.8559	0.2939	0.5498	0.009
Mof_C 	C 	0.84965	0.2977	0.43065	0.266
Mof_C 	C 	0.7953	0.4164	0.41615	0.039
Mof_H 	H 	0.8162	0.4352	0.3853	0.043
Mof_C 	C 	0.75249	0.3872	0.3856	-0.151
Mof_H 	H 	0.7587	0.3392	0.3586	0.084
Mof_H 	H 	0.7317	0.3668	0.4154	0.077
Mof_C 	C 	0.73223	0.4635	0.3508	-0.078
Mof_H 	H 	0.7517	0.4791	0.3182	0.065
Mof_H 	H 	0.7042	0.4451	0.3339	0.048
Mof_C 	C 	0.72478	0.5432	0.39	-0.063
Mof_H 	H 	0.7143	0.5914	0.3656	0.053
Mof_H 	H 	0.7023	0.5301	0.4195	0.051
Mof_C 	C 	0.76712	0.57	0.4213	-0.163
Mof_H 	H 	0.7612	0.6187	0.4479	0.09
Mof_H 	H 	0.7886	0.5891	0.392	0.086
Mof_C 	C 	0.78602	0.4935	0.457	0.051
Mof_H 	H 	0.7635	0.4751	0.4859	0.037
Mof_C 	C 	0.82341	0.5532	0.5451	0.232
Mof_C 	C 	0.86541	0.5661	0.5786	-0.099
Mof_C 	C 	0.90366	0.5195	0.5675	0.066
Mof_H 	H 	0.9033	0.4786	0.5368	0.018
Mof_C 	C 	0.94116	0.5889	0.6416	0.07
Mof_H 	H 	0.9672	0.5977	0.6627	0.027
Mof_C 	C 	0.90477	0.6378	0.6568	-0.117
Mof_H 	H 	0.9061	0.6776	0.6882	0.076
Mof_C 	C 	0.86616	0.6267	0.6247	0.037
Mof_H 	H 	0.8411	0.6593	0.6338	0.033
Mof_C 	C 	0.91059	0.1203	0.5489	0.074
Mof_H 	H 	0.9243	0.081	0.5746	0.017
Mof_Cu	Cu	0.61968	0.79962	0.16757	0.914
Mof_N 	N 	0.61065	0.8102	0.07235	-0.189
Mof_O 	O 	0.57317	0.8859	0.1882	-0.397
Mof_C 	C 	0.55972	0.9029	0.2401	0.336
Mof_Cu	Cu	0.6301	0.80393	0.28539	0.929
Mof_O 	O 	0.57534	0.8725	0.28815	-0.376
Mof_C 	C 	0.52185	0.9662	0.2457	-0.083
Mof_N 	N 	0.68469	0.6561	0.94991	-0.241
Mof_H 	H 	0.6958	0.6692	0.984	0.138
Mof_O 	O 	0.67017	0.71711	0.17119	-0.391
Mof_N 	N 	0.67423	0.4824	0.9905	-0.231
Mof_H 	H 	0.6487	0.4913	0.9747	0.136
Mof_C 	C 	0.48299	0.9595	0.20993	0.041
Mof_O 	O 	0.6841	0.7378	0.26853	-0.401
Mof_N 	N 	0.55899	0.4702	0.09818	-0.121
Mof_C 	C 	0.47643	0.8896	0.1696	-0.077
Mof_H 	H 	0.4983	0.8473	0.1654	0.074
Mof_O 	O 	0.83654	0.39691	0.16898	-0.381
Mof_C 	C 	0.4386	0.8833	0.1367	-0.03
Mof_H 	H 	0.4353	0.8378	0.1095	0.041
Mof_O 	O 	0.83782	0.41296	0.26874	-0.393
Mof_C 	C 	0.40467	0.9453	0.1437	-0.025
Mof_H 	H 	0.3789	0.9403	0.1215	0.035
Mof_O 	O 	0.40444	0.19544	0.21753	-0.394
Mof_C 	C 	0.40943	0.0125	0.1828	-0.083
Mof_H 	H 	0.3865	0.0523	0.1875	0.076
Mof_O 	O 	0.42068	0.2034	0.31487	-0.402
Mof_C 	C 	0.44878	0.0231	0.21658	0.047
Mof_C 	C 	0.45543	0.0934	0.25755	-0.084
Mof_O 	O 	0.63375	0.6928	0.88049	-0.321
Mof_C 	C 	0.42382	0.1699	0.264	0.35
Mof_O 	O 	0.7122	0.4267	0.06834	-0.231
Mof_C 	C 	0.49307	0.0968	0.29186	-0.013
Mof_H 	H 	0.4968	0.1423	0.3189	0.051
Mof_C 	C 	0.52601	0.0326	0.28653	-0.016
Mof_H 	H 	0.5508	0.035	0.3109	0.049
Mof_C 	C 	0.692	0.7046	0.2184	0.347
Mof_C 	C 	0.72971	0.6411	0.21422	-0.091
Mof_C 	C 	0.72149	0.5616	0.1892	-0.006
Mof_H 	H 	0.6939	0.5507	0.1725	0.051
Mof_C 	C 	0.75369	0.4957	0.1881	-0.024
Mof_H 	H 	0.7474	0.4421	0.1704	0.064
Mof_C 	C 	0.79442	0.5103	0.213	-0.081
Mof_C 	C 	0.80537	0.5936	0.2369	0.038
Mof_C 	C 	0.84831	0.6129	0.2592	-0.075
Mof_H 	H 	0.8698	0.5694	0.2597	0.071
Mof_C 	C 	0.85818	0.694	0.2798	-0.03
Mof_H 	H 	0.8864	0.7055	0.2942	0.04
Mof_C 	C 	0.82665	0.7599	0.2794	-0.026
Mof_H 	H 	0.8342	0.8153	0.293	0.036
Mof_C 	C 	0.78467	0.7445	0.2593	-0.082
Mof_H 	H 	0.7638	0.7892	0.2599	0.07
Mof_C 	C 	0.77289	0.6608	0.23769	0.046
Mof_C 	C 	0.82588	0.4347	0.2169	0.337
Mof_C 	C 	0.58723	0.8948	0.9885	-0.125
Mof_H 	H 	0.5723	0.9434	0.9738	0.08
Mof_C 	C 	0.60733	0.8374	0.95	0.051
Mof_H 	H 	0.6057	0.8462	0.909	0.03
Mof_C 	C 	0.62995	0.7665	0.97298	-0.114
Mof_C 	C 	0.62989	0.755	0.0343	0.076
Mof_H 	H 	0.6441	0.7061	0.0498	0.009
Mof_C 	C 	0.65035	0.7023	0.93065	0.266
Mof_C 	C 	0.7047	0.5836	0.91615	0.039
Mof_H 	H 	0.6838	0.5648	0.8853	0.043
Mof_C 	C 	0.74751	0.6128	0.8856	-0.151
Mof_H 	H 	0.7413	0.6608	0.8586	0.084
Mof_H 	H 	0.7683	0.6332	0.9154	0.077
Mof_C 	C 	0.76777	0.5365	0.8508	-0.078
Mof_H 	H 	0.7483	0.5209	0.8182	0.065
Mof_H 	H 	0.7958	0.5549	0.8339	0.048
Mof_C 	C 	0.77522	0.4568	0.89	-0.063
Mof_H 	H 	0.7857	0.4086	0.8656	0.053
Mof_H 	H 	0.7977	0.4699	0.9195	0.051
Mof_C 	C 	0.73288	0.43	0.9213	-0.163
Mof_H 	H 	0.7388	0.3813	0.9479	0.09
Mof_H 	H 	0.7114	0.4109	0.892	0.086
Mof_C 	C 	0.71398	0.5065	0.957	0.051
Mof_H 	H 	0.7365	0.5249	0.9859	0.037
Mof_C 	C 	0.67659	0.4468	0.0451	0.232
Mof_C 	C 	0.63459	0.4339	0.0786	-0.099
Mof_C 	C 	0.59634	0.4805	0.0675	0.066
Mof_H 	H 	0.5967	0.5214	0.0368	0.018
Mof_C 	C 	0.55884	0.4111	0.1416	0.07
Mof_H 	H 	0.5328	0.4023	0.1627	0.027
Mof_C 	C 	0.59523	0.3622	0.1568	-0.117
Mof_H 	H 	0.5939	0.3224	0.1882	0.076
Mof_C 	C 	0.63384	0.3733	0.1247	0.037
Mof_H 	H 	0.6589	0.3407	0.1338	0.033
Mof_C 	C 	0.58941	0.8797	0.0489	0.074
Mof_H 	H 	0.5757	0.919	0.0746	0.018
Mof_Cu	Cu	0.88032	0.29962	0.16757	0.914
Mof_N 	N 	0.88935	0.3102	0.07235	-0.189
Mof_O 	O 	0.92683	0.3859	0.1882	-0.396
Mof_C 	C 	0.94028	0.4029	0.2401	0.336
Mof_Cu	Cu	0.8699	0.30393	0.28539	0.929
Mof_O 	O 	0.92466	0.3725	0.28815	-0.376
Mof_C 	C 	0.97815	0.4662	0.2457	-0.082
Mof_N 	N 	0.81531	0.1561	0.94991	-0.241
Mof_H 	H 	0.8042	0.1692	0.984	0.138
Mof_O 	O 	0.82983	0.21711	0.17119	-0.391
Mof_N 	N 	0.82577	0.9824	0.9905	-0.231
Mof_H 	H 	0.8513	0.9913	0.9747	0.136
Mof_C 	C 	0.01701	0.4595	0.20993	0.041
Mof_O 	O 	0.8159	0.2378	0.26853	-0.401
Mof_N 	N 	0.94101	0.9702	0.09818	-0.121
Mof_C 	C 	0.02357	0.3896	0.1696	-0.077
Mof_H 	H 	0.0017	0.3473	0.1654	0.074
Mof_O 	O 	0.66346	0.89691	0.16898	-0.381
Mof_C 	C 	0.0614	0.3833	0.1367	-0.03
Mof_H 	H 	0.0647	0.3378	0.1095	0.041
Mof_O 	O 	0.66218	0.91296	0.26874	-0.393
Mof_C 	C 	0.09533	0.4453	0.1437	-0.024
Mof_H 	H 	0.1211	0.4403	0.1215	0.034
Mof_O 	O 	0.09556	0.69544	0.21753	-0.394
Mof_C 	C 	0.09057	0.5125	0.1828	-0.083
Mof_H 	H 	0.1135	0.5523	0.1875	0.076
Mof_O 	O 	0.07932	0.7034	0.31487	-0.402
Mof_C 	C 	0.05122	0.5231	0.21658	0.047
Mof_C 	C 	0.04457	0.5934	0.25755	-0.084
Mof_O 	O 	0.86625	0.1928	0.88049	-0.321
Mof_C 	C 	0.07618	0.6699	0.264	0.35
Mof_O 	O 	0.7878	0.9267	0.06834	-0.231
Mof_C 	C 	0.00693	0.5968	0.29186	-0.013
Mof_H 	H 	0.0032	0.6423	0.3189	0.051
Mof_C 	C 	0.97399	0.5326	0.28653	-0.016
Mof_H 	H 	0.9492	0.535	0.3109	0.049
Mof_C 	C 	0.808	0.2046	0.2184	0.347
Mof_C 	C 	0.77029	0.1411	0.21422	-0.092
Mof_C 	C 	0.77851	0.0616	0.1892	-0.005
Mof_H 	H 	0.8061	0.0507	0.1725	0.051
Mof_C 	C 	0.74631	0.9957	0.1881	-0.025
Mof_H 	H 	0.7526	0.9421	0.1704	0.064
Mof_C 	C 	0.70558	0.0103	0.213	-0.08
Mof_C 	C 	0.69463	0.0936	0.2369	0.038
Mof_C 	C 	0.65169	0.1129	0.2592	-0.074
Mof_H 	H 	0.6302	0.0694	0.2597	0.07
Mof_C 	C 	0.64182	0.194	0.2798	-0.03
Mof_H 	H 	0.6136	0.2055	0.2942	0.04
Mof_C 	C 	0.67335	0.2599	0.2794	-0.025
Mof_H 	H 	0.6658	0.3153	0.293	0.036
Mof_C 	C 	0.71533	0.2445	0.2593	-0.083
Mof_H 	H 	0.7362	0.2892	0.2599	0.07
Mof_C 	C 	0.72711	0.1608	0.23769	0.046
Mof_C 	C 	0.67412	0.9347	0.2169	0.337
Mof_C 	C 	0.91277	0.3948	0.9885	-0.126
Mof_H 	H 	0.9277	0.4434	0.9738	0.08
Mof_C 	C 	0.89267	0.3374	0.95	0.051
Mof_H 	H 	0.8943	0.3462	0.909	0.03
Mof_C 	C 	0.87005	0.2665	0.97298	-0.114
Mof_C 	C 	0.87011	0.255	0.0343	0.077
Mof_H 	H 	0.8559	0.2061	0.0498	0.009
Mof_C 	C 	0.84965	0.2023	0.93065	0.266
Mof_C 	C 	0.7953	0.0836	0.91615	0.039
Mof_H 	H 	0.8162	0.0648	0.8853	0.043
Mof_C 	C 	0.75249	0.1128	0.8856	-0.151
Mof_H 	H 	0.7587	0.1608	0.8586	0.084
Mof_H 	H 	0.7317	0.1332	0.9154	0.077
Mof_C 	C 	0.73223	0.0365	0.8508	-0.078
Mof_H 	H 	0.7517	0.0209	0.8182	0.065
Mof_H 	H 	0.7042	0.0549	0.8339	0.048
Mof_C 	C 	0.72478	0.9568	0.89	-0.063
Mof_H 	H 	0.7143	0.9086	0.8656	0.053
Mof_H 	H 	0.7023	0.9699	0.9195	0.052
Mof_C 	C 	0.76712	0.93	0.9213	-0.163
Mof_H 	H 	0.7612	0.8813	0.9479	0.09
Mof_H 	H 	0.7886	0.9109	0.892	0.086
Mof_C 	C 	0.78602	0.0065	0.957	0.051
Mof_H 	H 	0.7635	0.0249	0.9859	0.037
Mof_C 	C 	0.82341	0.9468	0.0451	0.231
Mof_C 	C 	0.86541	0.9339	0.0786	-0.098
Mof_C 	C 	0.90366	0.9805	0.0675	0.065
Mof_H 	H 	0.9033	0.0214	0.0368	0.019
Mof_C 	C 	0.94116	0.9111	0.1416	0.07
Mof_H 	H 	0.9672	0.9023	0.1627	0.027
Mof_C 	C 	0.90477	0.8622	0.1568	-0.116
Mof_H 	H 	0.9061	0.8224	0.1882	0.076
Mof_C 	C 	0.86616	0.8733	0.1247	0.036
Mof_H 	H 	0.8411	0.8407	0.1338	0.033
Mof_C 	C 	0.91059	0.3797	0.0489	0.074
Mof_H 	H 	0.9243	0.419	0.0746	0.017
Mof_Cu	Cu	0.61968	0.70038	0.66757	0.914
Mof_N 	N 	0.61065	0.6898	0.57235	-0.189
Mof_O 	O 	0.57317	0.6141	0.6882	-0.397
Mof_C 	C 	0.55972	0.5971	0.7401	0.336
Mof_Cu	Cu	0.6301	0.69607	0.78539	0.929
Mof_O 	O 	0.57534	0.6275	0.78815	-0.376
Mof_C 	C 	0.52185	0.5338	0.7457	-0.082
Mof_N 	N 	0.68469	0.8439	0.44991	-0.241
Mof_H 	H 	0.6958	0.8308	0.484	0.138
Mof_O 	O 	0.67017	0.78289	0.67119	-0.391
Mof_N 	N 	0.67423	0.0176	0.4905	-0.231
Mof_H 	H 	0.6487	0.0087	0.4747	0.136
Mof_C 	C 	0.48299	0.5405	0.70993	0.041
Mof_O 	O 	0.6841	0.7622	0.76853	-0.401
Mof_N 	N 	0.55899	0.0298	0.59818	-0.121
Mof_C 	C 	0.47643	0.6104	0.6696	-0.077
Mof_H 	H 	0.4983	0.6527	0.6654	0.074
Mof_O 	O 	0.83654	0.10309	0.66898	-0.381
Mof_C 	C 	0.4386	0.6167	0.6367	-0.03
Mof_H 	H 	0.4353	0.6622	0.6095	0.041
Mof_O 	O 	0.83782	0.08704	0.76874	-0.393
Mof_C 	C 	0.40467	0.5547	0.6437	-0.024
Mof_H 	H 	0.3789	0.5597	0.6215	0.034
Mof_O 	O 	0.40444	0.30456	0.71753	-0.394
Mof_C 	C 	0.40943	0.4875	0.6828	-0.083
Mof_H 	H 	0.3865	0.4477	0.6875	0.076
Mof_O 	O 	0.42068	0.2966	0.81487	-0.402
Mof_C 	C 	0.44878	0.4769	0.71658	0.047
Mof_C 	C 	0.45543	0.4066	0.75755	-0.084
Mof_O 	O 	0.63375	0.8072	0.38049	-0.321
Mof_C 	C 	0.42382	0.3301	0.764	0.35
Mof_O 	O 	0.7122	0.0733	0.56834	-0.231
Mof_C 	C 	0.49307	0.4032	0.79186	-0.013
Mof_H 	H 	0.4968	0.3577	0.8189	0.051
Mof_C 	C 	0.52601	0.4674	0.78653	-0.016
Mof_H 	H 	0.5508	0.465	0.8109	0.049
Mof_C 	C 	0.692	0.7954	0.7184	0.347
Mof_C 	C 	0.72971	0.8589	0.71422	-0.091
Mof_C 	C 	0.72149	0.9384	0.6892	-0.006
Mof_H 	H 	0.6939	0.9493	0.6725	0.051
Mof_C 	C 	0.75369	0.0043	0.6881	-0.024
Mof_H 	H 	0.7474	0.0579	0.6704	0.064
Mof_C 	C 	0.79442	0.9897	0.713	-0.081
Mof_C 	C 	0.80537	0.9064	0.7369	0.038
Mof_C 	C 	0.84831	0.8871	0.7592	-0.075
Mof_H 	H 	0.8698	0.9306	0.7597	0.071
Mof_C 	C 	0.85818	0.806	0.7798	-0.03
Mof_H 	H 	0.8864	0.7945	0.7942	0.04
Mof_C 	C 	0.82665	0.7401	0.7794	-0.026
Mof_H 	H 	0.8342	0.6847	0.793	0.036
Mof_C 	C 	0.78467	0.7555	0.7593	-0.082
Mof_H 	H 	0.7638	0.7108	0.7599	0.07
Mof_C 	C 	0.77289	0.8392	0.73769	0.046
Mof_C 	C 	0.82588	0.0653	0.7169	0.337
Mof_C 	C 	0.58723	0.6052	0.4885	-0.126
Mof_H 	H 	0.5723	0.5566	0.4738	0.08
Mof_C 	C 	0.60733	0.6626	0.45	0.051
Mof_H 	H 	0.6057	0.6538	0.409	0.03
Mof_C 	C 	0.62995	0.7335	0.47298	-0.114
Mof_C 	C 	0.62989	0.745	0.5343	0.077
Mof_H 	H 	0.6441	0.7939	0.5498	0.009
Mof_C 	C 	0.65035	0.7977	0.43065	0.266
Mof_C 	C 	0.7047	0.9164	0.41615	0.039
Mof_H 	H 	0.6838	0.9352	0.3853	0.043
Mof_C 	C 	0.74751	0.8872	0.3856	-0.151
Mof_H 	H 	0.7413	0.8392	0.3586	0.084
Mof_H 	H 	0.7683	0.8668	0.4154	0.077
Mof_C 	C 	0.76777	0.9635	0.3508	-0.078
Mof_H 	H 	0.7483	0.9791	0.3182	0.065
Mof_H 	H 	0.7958	0.9451	0.3339	0.048
Mof_C 	C 	0.77522	0.0432	0.39	-0.063
Mof_H 	H 	0.7857	0.0914	0.3656	0.053
Mof_H 	H 	0.7977	0.0301	0.4195	0.051
Mof_C 	C 	0.73288	0.07	0.4213	-0.163
Mof_H 	H 	0.7388	0.1187	0.4479	0.09
Mof_H 	H 	0.7114	0.0891	0.392	0.086
Mof_C 	C 	0.71398	0.9935	0.457	0.051
Mof_H 	H 	0.7365	0.9751	0.4859	0.037
Mof_C 	C 	0.67659	0.0532	0.5451	0.232
Mof_C 	C 	0.63459	0.0661	0.5786	-0.099
Mof_C 	C 	0.59634	0.0195	0.5675	0.066
Mof_H 	H 	0.5967	0.9786	0.5368	0.018
Mof_C 	C 	0.55884	0.0889	0.6416	0.07
Mof_H 	H 	0.5328	0.0977	0.6627	0.027
Mof_C 	C 	0.59523	0.1378	0.6568	-0.117
Mof_H 	H 	0.5939	0.1776	0.6882	0.076
Mof_C 	C 	0.63384	0.1267	0.6247	0.037
Mof_H 	H 	0.6589	0.1593	0.6338	0.033
Mof_C 	C 	0.58941	0.6203	0.5489	0.074
Mof_H 	H 	0.5757	0.581	0.5746	0.017
Mof_Cu	Cu	0.11968	0.79962	0.33243	0.914
Mof_N 	N 	0.11065	0.8102	0.42765	-0.189
Mof_O 	O 	0.07317	0.8859	0.3118	-0.396
Mof_C 	C 	0.05972	0.9029	0.2599	0.336
Mof_Cu	Cu	0.1301	0.80393	0.21461	0.929
Mof_O 	O 	0.07534	0.8725	0.21185	-0.376
Mof_C 	C 	0.02185	0.9662	0.2543	-0.082
Mof_N 	N 	0.18469	0.6561	0.55009	-0.241
Mof_H 	H 	0.1958	0.6692	0.516	0.138
Mof_O 	O 	0.17017	0.71711	0.32881	-0.391
Mof_N 	N 	0.17423	0.4824	0.5095	-0.231
Mof_H 	H 	0.1487	0.4913	0.5253	0.136
Mof_C 	C 	0.98299	0.9595	0.29007	0.041
Mof_O 	O 	0.1841	0.7378	0.23147	-0.401
Mof_N 	N 	0.05899	0.4702	0.40182	-0.121
Mof_C 	C 	0.97643	0.8896	0.3304	-0.077
Mof_H 	H 	0.9983	0.8473	0.3346	0.074
Mof_O 	O 	0.33654	0.39691	0.33102	-0.381
Mof_C 	C 	0.9386	0.8833	0.3633	-0.03
Mof_H 	H 	0.9353	0.8378	0.3905	0.041
Mof_O 	O 	0.33782	0.41296	0.23126	-0.393
Mof_C 	C 	0.90467	0.9453	0.3563	-0.024
Mof_H 	H 	0.8789	0.9403	0.3785	0.034
Mof_O 	O 	0.90444	0.19544	0.28247	-0.394
Mof_C 	C 	0.90943	0.0125	0.3172	-0.083
Mof_H 	H 	0.8865	0.0523	0.3125	0.076
Mof_O 	O 	0.92068	0.2034	0.18513	-0.402
Mof_C 	C 	0.94878	0.0231	0.28342	0.048
Mof_C 	C 	0.95543	0.0934	0.24245	-0.084
Mof_O 	O 	0.13375	0.6928	0.61951	-0.321
Mof_C 	C 	0.92382	0.1699	0.236	0.35
Mof_O 	O 	0.2122	0.4267	0.43166	-0.231
Mof_C 	C 	0.99307	0.0968	0.20814	-0.012
Mof_H 	H 	0.9968	0.1423	0.1811	0.051
Mof_C 	C 	0.02601	0.0326	0.21347	-0.017
Mof_H 	H 	0.0508	0.035	0.1891	0.049
Mof_C 	C 	0.192	0.7046	0.2816	0.347
Mof_C 	C 	0.22971	0.6411	0.28578	-0.091
Mof_C 	C 	0.22149	0.5616	0.3108	-0.006
Mof_H 	H 	0.1939	0.5507	0.3275	0.051
Mof_C 	C 	0.25369	0.4957	0.3119	-0.024
Mof_H 	H 	0.2474	0.4421	0.3296	0.064
Mof_C 	C 	0.29442	0.5103	0.287	-0.081
Mof_C 	C 	0.30537	0.5936	0.2631	0.038
Mof_C 	C 	0.34831	0.6129	0.2408	-0.075
Mof_H 	H 	0.3698	0.5694	0.2403	0.071
Mof_C 	C 	0.35818	0.694	0.2202	-0.03
Mof_H 	H 	0.3864	0.7055	0.2058	0.04
Mof_C 	C 	0.32665	0.7599	0.2206	-0.026
Mof_H 	H 	0.3342	0.8153	0.207	0.036
Mof_C 	C 	0.28467	0.7445	0.2407	-0.082
Mof_H 	H 	0.2638	0.7892	0.2401	0.07
Mof_C 	C 	0.27289	0.6608	0.26231	0.046
Mof_C 	C 	0.32588	0.4347	0.2831	0.337
Mof_C 	C 	0.08723	0.8948	0.5115	-0.126
Mof_H 	H 	0.0723	0.9434	0.5262	0.08
Mof_C 	C 	0.10733	0.8374	0.55	0.051
Mof_H 	H 	0.1057	0.8462	0.591	0.03
Mof_C 	C 	0.12995	0.7665	0.52702	-0.114
Mof_C 	C 	0.12989	0.755	0.4657	0.077
Mof_H 	H 	0.1441	0.7061	0.4502	0.009
Mof_C 	C 	0.15035	0.7023	0.56935	0.266
Mof_C 	C 	0.2047	0.5836	0.58385	0.039
Mof_H 	H 	0.1838	0.5648	0.6147	0.043
Mof_C 	C 	0.24751	0.6128	0.6144	-0.151
Mof_H 	H 	0.2413	0.6608	0.6414	0.084
Mof_H 	H 	0.2683	0.6332	0.5846	0.077
Mof_C 	C 	0.26777	0.5365	0.6492	-0.078
Mof_H 	H 	0.2483	0.5209	0.6818	0.065
Mof_H 	H 	0.2958	0.5549	0.6661	0.048
Mof_C 	C 	0.27522	0.4568	0.61	-0.063
Mof_H 	H 	0.2857	0.4086	0.6344	0.053
Mof_H 	H 	0.2977	0.4699	0.5805	0.051
Mof_C 	C 	0.23288	0.43	0.5787	-0.163
Mof_H 	H 	0.2388	0.3813	0.5521	0.09
Mof_H 	H 	0.2114	0.4109	0.608	0.086
Mof_C 	C 	0.21398	0.5065	0.543	0.051
Mof_H 	H 	0.2365	0.5249	0.5141	0.037
Mof_C 	C 	0.17659	0.4468	0.4549	0.232
Mof_C 	C 	0.13459	0.4339	0.4214	-0.099
Mof_C 	C 	0.09634	0.4805	0.4325	0.066
Mof_H 	H 	0.0967	0.5214	0.4632	0.018
Mof_C 	C 	0.05884	0.4111	0.3584	0.07
Mof_H 	H 	0.0328	0.4023	0.3373	0.027
Mof_C 	C 	0.09523	0.3622	0.3432	-0.117
Mof_H 	H 	0.0939	0.3224	0.3118	0.076
Mof_C 	C 	0.13384	0.3733	0.3753	0.037
Mof_H 	H 	0.1589	0.3407	0.3662	0.033
Mof_C 	C 	0.08941	0.8797	0.4511	0.074
Mof_H 	H 	0.0757	0.919	0.4254	0.017
Mof_Cu	Cu	0.38032	0.20038	0.83243	0.914
Mof_N 	N 	0.38935	0.1898	0.92765	-0.189
Mof_O 	O 	0.42683	0.1141	0.8118	-0.397
Mof_C 	C 	0.44028	0.0971	0.7599	0.336
Mof_Cu	Cu	0.3699	0.19607	0.71461	0.929
Mof_O 	O 	0.42466	0.1275	0.71185	-0.376
Mof_C 	C 	0.47815	0.0338	0.7543	-0.083
Mof_N 	N 	0.31531	0.3439	0.05009	-0.241
Mof_H 	H 	0.3042	0.3308	0.016	0.138
Mof_O 	O 	0.32983	0.28289	0.82881	-0.391
Mof_N 	N 	0.32577	0.5176	0.0095	-0.231
Mof_H 	H 	0.3513	0.5087	0.0253	0.136
Mof_C 	C 	0.51701	0.0405	0.79007	0.041
Mof_O 	O 	0.3159	0.2622	0.73147	-0.401
Mof_N 	N 	0.44101	0.5298	0.90182	-0.121
Mof_C 	C 	0.52357	0.1104	0.8304	-0.077
Mof_H 	H 	0.5017	0.1527	0.8346	0.074
Mof_O 	O 	0.16346	0.60309	0.83102	-0.381
Mof_C 	C 	0.5614	0.1167	0.8633	-0.03
Mof_H 	H 	0.5647	0.1622	0.8905	0.041
Mof_O 	O 	0.16218	0.58704	0.73126	-0.393
Mof_C 	C 	0.59533	0.0547	0.8563	-0.025
Mof_H 	H 	0.6211	0.0597	0.8785	0.035
Mof_O 	O 	0.59556	0.80456	0.78247	-0.394
Mof_C 	C 	0.59057	0.9875	0.8172	-0.083
Mof_H 	H 	0.6135	0.9477	0.8125	0.076
Mof_O 	O 	0.57932	0.7966	0.68513	-0.402
Mof_C 	C 	0.55122	0.9769	0.78342	0.047
Mof_C 	C 	0.54457	0.9066	0.74245	-0.084
Mof_O 	O 	0.36625	0.3072	0.11951	-0.321
Mof_C 	C 	0.57618	0.8301	0.736	0.35
Mof_O 	O 	0.2878	0.5733	0.93166	-0.231
Mof_C 	C 	0.50693	0.9032	0.70814	-0.013
Mof_H 	H 	0.5032	0.8577	0.6811	0.051
Mof_C 	C 	0.47399	0.9674	0.71347	-0.016
Mof_H 	H 	0.4492	0.965	0.6891	0.049
Mof_C 	C 	0.308	0.2954	0.7816	0.347
Mof_C 	C 	0.27029	0.3589	0.78578	-0.091
Mof_C 	C 	0.27851	0.4384	0.8108	-0.006
Mof_H 	H 	0.3061	0.4493	0.8275	0.051
Mof_C 	C 	0.24631	0.5043	0.8119	-0.024
Mof_H 	H 	0.2526	0.5579	0.8296	0.064
Mof_C 	C 	0.20558	0.4897	0.787	-0.081
Mof_C 	C 	0.19463	0.4064	0.7631	0.038
Mof_C 	C 	0.15169	0.3871	0.7408	-0.075
Mof_H 	H 	0.1302	0.4306	0.7403	0.071
Mof_C 	C 	0.14182	0.306	0.7202	-0.03
Mof_H 	H 	0.1136	0.2945	0.7058	0.04
Mof_C 	C 	0.17335	0.2401	0.7206	-0.026
Mof_H 	H 	0.1658	0.1847	0.707	0.036
Mof_C 	C 	0.21533	0.2555	0.7407	-0.082
Mof_H 	H 	0.2362	0.2108	0.7401	0.07
Mof_C 	C 	0.22711	0.3392	0.76231	0.046
Mof_C 	C 	0.17412	0.5653	0.7831	0.337
Mof_C 	C 	0.41277	0.1052	0.0115	-0.125
Mof_H 	H 	0.4277	0.0566	0.0262	0.08
Mof_C 	C 	0.39267	0.1626	0.05	0.051
Mof_H 	H 	0.3943	0.1538	0.091	0.03
Mof_C 	C 	0.37005	0.2335	0.02702	-0.114
Mof_C 	C 	0.37011	0.245	0.9657	0.076
Mof_H 	H 	0.3559	0.2939	0.9502	0.009
Mof_C 	C 	0.34965	0.2977	0.06935	0.266
Mof_C 	C 	0.2953	0.4164	0.08385	0.039
Mof_H 	H 	0.3162	0.4352	0.1147	0.043
Mof_C 	C 	0.25249	0.3872	0.1144	-0.151
Mof_H 	H 	0.2587	0.3392	0.1414	0.084
Mof_H 	H 	0.2317	0.3668	0.0846	0.077
Mof_C 	C 	0.23223	0.4635	0.1492	-0.078
Mof_H 	H 	0.2517	0.4791	0.1818	0.065
Mof_H 	H 	0.2042	0.4451	0.1661	0.048
Mof_C 	C 	0.22478	0.5432	0.11	-0.063
Mof_H 	H 	0.2143	0.5914	0.1344	0.053
Mof_H 	H 	0.2023	0.5301	0.0805	0.051
Mof_C 	C 	0.26712	0.57	0.0787	-0.163
Mof_H 	H 	0.2612	0.6187	0.0521	0.09
Mof_H 	H 	0.2886	0.5891	0.108	0.086
Mof_C 	C 	0.28602	0.4935	0.043	0.051
Mof_H 	H 	0.2635	0.4751	0.0141	0.037
Mof_C 	C 	0.32341	0.5532	0.9549	0.232
Mof_C 	C 	0.36541	0.5661	0.9214	-0.099
Mof_C 	C 	0.40366	0.5195	0.9325	0.066
Mof_H 	H 	0.4033	0.4786	0.9632	0.018
Mof_C 	C 	0.44116	0.5889	0.8584	0.07
Mof_H 	H 	0.4672	0.5977	0.8373	0.027
Mof_C 	C 	0.40477	0.6378	0.8432	-0.117
Mof_H 	H 	0.4061	0.6776	0.8118	0.076
Mof_C 	C 	0.36616	0.6267	0.8753	0.037
Mof_H 	H 	0.3411	0.6593	0.8662	0.033
Mof_C 	C 	0.41059	0.1203	0.9511	0.074
Mof_H 	H 	0.4243	0.081	0.9254	0.018
_end
