data_functionalizedCrystal
_audit_creation_method	'EQeq! by Chris Wilmer'
_symmetry_space_group_name_H-M	'P1'
_symmetry_Int_Tables_number	1
_symmetry_cell_setting	triclinic
loop_
_symmetry_equiv_pos_as_xyz
  x,y,z
_cell_length_a	30.0954
_cell_length_b	15.5048
_cell_length_c	35.4843
_cell_angle_alpha	90
_cell_angle_beta	107.185
_cell_angle_gamma	90
loop_
_atom_site_label
_atom_site_type_symbol
_atom_site_fract_x
_atom_site_fract_y
_atom_site_fract_z
_atom_site_charge
Mof_Ag	Ag	0.76823	0.46331	0.02672	0.626
Mof_Ag	Ag	0.01351	0.21643	0.01019	0.584
Mof_Ag	Ag	0.27057	0.48875	0.27237	0.517
Mof_O 	O 	0.8003	0.6403	0.00977	-0.268
Mof_O 	O 	0.771	0.9782	0.90634	-0.269
Mof_O 	O 	0.91836	0.0392	0.00496	-0.262
Mof_O 	O 	0.0745	0.3471	0.0188	-0.291
Mof_O 	O 	0.2096	0.7317	0.06755	-0.251
Mof_O 	O 	0.2343	0.3398	0.11451	-0.257
Mof_N 	N 	0.8141	0.4184	0.08135	-0.223
Mof_N 	N 	0.8559	0.684	0.06352	-0.236
Mof_H 	H 	0.878	0.7215	0.0741	0.116
Mof_N 	N 	0.7055	0.9404	0.7586	-0.222
Mof_N 	N 	0.7549	0.8399	0.8877	-0.239
Mof_H 	H 	0.7621	0.7857	0.8939	0.153
Mof_N 	N 	0.0621	0.1626	0.06466	-0.22
Mof_N 	N 	0.9494	0.9499	0.05555	-0.237
Mof_H 	H 	0.9489	0.8989	0.0663	0.109
Mof_N 	N 	0.9608	0.2358	0.95235	-0.218
Mof_N 	N 	0.0485	0.4619	0.98007	-0.236
Mof_H 	H 	0.0543	0.5134	0.9721	0.111
Mof_N 	N 	0.2167	0.9815	0.97108	-0.219
Mof_N 	N 	0.1592	0.7268	0.0064	-0.229
Mof_H 	H 	0.141	0.6934	0.9882	0.104
Mof_N 	N 	0.3391	0.4452	0.27185	-0.223
Mof_N 	N 	0.2557	0.4656	0.1461	-0.231
Mof_H 	H 	0.2513	0.5217	0.146	0.117
Mof_C 	C 	0.7987	0.3529	0.0991	0.077
Mof_H 	H 	0.7703	0.3256	0.0854	0.005
Mof_C 	C 	0.8224	0.3236	0.1363	-0.153
Mof_H 	H 	0.8112	0.2756	0.1475	0.073
Mof_C 	C 	0.8624	0.3654	0.1569	0.082
Mof_H 	H 	0.8788	0.3482	0.183	-0.009
Mof_C 	C 	0.8784	0.4322	0.1393	-0.194
Mof_H 	H 	0.9059	0.4619	0.1532	0.086
Mof_C 	C 	0.8541	0.4568	0.1009	0.163
Mof_C 	C 	0.8701	0.5298	0.0802	-0.27
Mof_H 	H 	0.8616	0.5178	0.0515	0.09
Mof_H 	H 	0.9044	0.5352	0.0902	0.097
Mof_C 	C 	0.8476	0.6129	0.0873	0.079
Mof_H 	H 	0.8137	0.6038	0.0813	0.006
Mof_H 	H 	0.8599	0.6285	0.1156	0.001
Mof_C 	C 	0.8307	0.6931	0.0261	0.233
Mof_C 	C 	0.8398	0.7724	0.0049	-0.076
Mof_C 	C 	0.8762	0.8274	0.0213	0.01
Mof_H 	H 	0.8987	0.8119	0.0453	0.004
Mof_C 	C 	0.6714	0.9656	0.7263	0.083
Mof_H 	H 	0.6763	0.0151	0.7122	-0.022
Mof_C 	C 	0.63	0.9219	0.7131	-0.162
Mof_H 	H 	0.6063	0.9415	0.6906	0.074
Mof_C 	C 	0.6235	0.8504	0.7329	0.085
Mof_H 	H 	0.5951	0.819	0.7242	-0.006
Mof_C 	C 	0.6587	0.8231	0.7662	-0.196
Mof_H 	H 	0.6547	0.7729	0.7802	0.092
Mof_C 	C 	0.699	0.8698	0.7784	0.16
Mof_C 	C 	0.7365	0.8458	0.8149	-0.256
Mof_H 	H 	0.7642	0.8823	0.8175	0.074
Mof_H 	H 	0.7456	0.7848	0.8133	0.097
Mof_C 	C 	0.7192	0.8582	0.8508	0.071
Mof_H 	H 	0.7084	0.9184	0.8513	0.018
Mof_H 	H 	0.6923	0.8197	0.8485	0.009
Mof_C 	C 	0.7775	0.9007	0.9126	0.227
Mof_C 	C 	0.8117	0.8707	0.9505	-0.083
Mof_C 	C 	0.8079	0.7933	0.9692	0.009
Mof_H 	H 	0.7831	0.7547	0.9574	0.044
Mof_C 	C 	0.0956	0.2156	0.0866	0.103
Mof_H 	H 	0.0966	0.2737	0.0784	-0.003
Mof_C 	C 	0.1278	0.1884	0.1196	-0.187
Mof_H 	H 	0.1509	0.2273	0.1342	0.089
Mof_C 	C 	0.1275	0.106	0.1322	0.125
Mof_H 	H 	0.1502	0.0864	0.1553	-0.036
Mof_C 	C 	0.0936	0.0516	0.1105	-0.216
Mof_H 	H 	0.0926	0.9934	0.1186	0.098
Mof_C 	C 	0.0609	0.0812	0.0769	0.178
Mof_C 	C 	0.0219	0.024	0.0542	-0.266
Mof_H 	H 	0.0346	0.9667	0.0507	0.101
Mof_H 	H 	0.0077	0.049	0.0277	0.084
Mof_C 	C 	0.9847	0.0131	0.0748	0.073
Mof_H 	H 	0.9996	0.9949	0.1024	0.002
Mof_H 	H 	0.9695	0.0695	0.0754	0.007
Mof_C 	C 	0.9183	0.9697	0.0218	0.219
Mof_C 	C 	0.8804	0.9047	0.0035	-0.084
Mof_C 	C 	0.8474	0.9266	0.9682	0.01
Mof_H 	H 	0.8494	0.9805	0.9561	0.041
Mof_C 	C 	0.9207	0.192	0.9456	0.075
Mof_H 	H 	0.9172	0.1536	0.9654	0.003
Mof_C 	C 	0.8844	0.2	0.9114	-0.153
Mof_H 	H 	0.8571	0.166	0.9071	0.087
Mof_C 	C 	0.8887	0.2575	0.8838	0.087
Mof_H 	H 	0.8639	0.266	0.8603	-0.004
Mof_C 	C 	0.93	0.3042	0.8905	-0.198
Mof_H 	H 	0.9337	0.344	0.8713	0.088
Mof_C 	C 	0.9651	0.2928	0.9246	0.165
Mof_C 	C 	0.0092	0.3449	0.9346	-0.275
Mof_H 	H 	0.0144	0.3674	0.9102	0.098
Mof_H 	H 	0.036	0.3082	0.9483	0.095
Mof_C 	C 	0.0047	0.4198	0.9613	0.084
Mof_H 	H 	0.9827	0.4627	0.9454	-0
Mof_H 	H 	0.9915	0.3978	0.9819	-0.005
Mof_C 	C 	0.0803	0.4224	0.0096	0.23
Mof_C 	C 	0.1235	0.4712	0.0316	-0.083
Mof_C 	C 	0.1306	0.5575	0.025	0.003
Mof_H 	H 	0.1076	0.5886	0.0056	0.007
Mof_C 	C 	0.2109	0.0605	0.9536	0.089
Mof_H 	H 	0.2304	0.1063	0.9666	0.012
Mof_C 	C 	0.179	0.0773	0.9189	-0.151
Mof_H 	H 	0.176	0.1336	0.9079	0.084
Mof_C 	C 	0.1505	0.0109	0.8995	0.083
Mof_H 	H 	0.1277	0.0209	0.8749	-0.008
Mof_C 	C 	0.1558	0.9305	0.9163	-0.184
Mof_H 	H 	0.1364	0.8843	0.9035	0.085
Mof_C 	C 	0.1894	0.9167	0.9521	0.158
Mof_C 	C 	0.1946	0.8279	0.9705	-0.249
Mof_H 	H 	0.2273	0.8189	0.9864	0.074
Mof_H 	H 	0.1867	0.7837	0.9494	0.094
Mof_C 	C 	0.163	0.8177	0.9965	0.05
Mof_H 	H 	0.1757	0.8514	0.0211	0.018
Mof_H 	H 	0.1318	0.8407	0.9826	0.022
Mof_C 	C 	0.1815	0.6915	0.041	0.214
Mof_C 	C 	0.1713	0.5988	0.0465	-0.091
Mof_C 	C 	0.2037	0.553	0.075	0.006
Mof_H 	H 	0.2318	0.5805	0.0895	0.031
Mof_C 	C 	0.3678	0.4079	0.3041	0.089
Mof_H 	H 	0.357	0.3996	0.3264	-0.021
Mof_C 	C 	0.4117	0.3814	0.3063	-0.164
Mof_H 	H 	0.4314	0.3567	0.3298	0.078
Mof_C 	C 	0.427	0.3916	0.2729	0.088
Mof_H 	H 	0.4569	0.3719	0.2729	-0.009
Mof_C 	C 	0.3983	0.4299	0.2405	-0.198
Mof_H 	H 	0.4083	0.4384	0.2178	0.088
Mof_C 	C 	0.3542	0.457	0.2405	0.159
Mof_C 	C 	0.3212	0.4965	0.2042	-0.263
Mof_H 	H 	0.3391	0.5261	0.1886	0.096
Mof_H 	H 	0.3015	0.5399	0.2121	0.07
Mof_C 	C 	0.2906	0.4267	0.1792	0.068
Mof_H 	H 	0.3101	0.3864	0.1693	0.016
Mof_H 	H 	0.2751	0.3935	0.1956	-0.007
Mof_C 	C 	0.2302	0.4186	0.1157	0.226
Mof_C 	C 	0.1964	0.4677	0.083	-0.077
Mof_C 	C 	0.1563	0.4268	0.0604	0.012
Mof_H 	H 	0.1516	0.3675	0.0647	0.046
Mof_Ag	Ag	0.26823	0.96331	0.02672	0.623
Mof_Ag	Ag	0.51351	0.71643	0.01019	0.582
Mof_Ag	Ag	0.77057	0.98875	0.27237	0.515
Mof_O 	O 	0.3003	0.1403	0.00977	-0.269
Mof_O 	O 	0.271	0.4782	0.90634	-0.271
Mof_O 	O 	0.41836	0.5392	0.00496	-0.264
Mof_O 	O 	0.5745	0.8471	0.0188	-0.291
Mof_O 	O 	0.7096	0.2317	0.06755	-0.251
Mof_O 	O 	0.7343	0.8398	0.11451	-0.257
Mof_N 	N 	0.3141	0.9184	0.08135	-0.223
Mof_N 	N 	0.3559	0.184	0.06352	-0.235
Mof_H 	H 	0.378	0.2215	0.0741	0.116
Mof_N 	N 	0.2055	0.4404	0.7586	-0.222
Mof_N 	N 	0.2549	0.3399	0.8877	-0.239
Mof_H 	H 	0.2621	0.2857	0.8939	0.153
Mof_N 	N 	0.5621	0.6626	0.06466	-0.22
Mof_N 	N 	0.4494	0.4499	0.05555	-0.236
Mof_H 	H 	0.4489	0.3989	0.0663	0.109
Mof_N 	N 	0.4608	0.7358	0.95235	-0.218
Mof_N 	N 	0.5485	0.9619	0.98007	-0.235
Mof_H 	H 	0.5543	0.0134	0.9721	0.11
Mof_N 	N 	0.7167	0.4815	0.97108	-0.22
Mof_N 	N 	0.6592	0.2268	0.0064	-0.228
Mof_H 	H 	0.641	0.1934	0.9882	0.103
Mof_N 	N 	0.8391	0.9452	0.27185	-0.223
Mof_N 	N 	0.7557	0.9656	0.1461	-0.232
Mof_H 	H 	0.7513	0.0217	0.146	0.118
Mof_C 	C 	0.2987	0.8529	0.0991	0.077
Mof_H 	H 	0.2703	0.8256	0.0854	0.005
Mof_C 	C 	0.3224	0.8236	0.1363	-0.153
Mof_H 	H 	0.3112	0.7756	0.1475	0.073
Mof_C 	C 	0.3624	0.8654	0.1569	0.082
Mof_H 	H 	0.3788	0.8482	0.183	-0.009
Mof_C 	C 	0.3784	0.9322	0.1393	-0.194
Mof_H 	H 	0.4059	0.9619	0.1532	0.086
Mof_C 	C 	0.3541	0.9568	0.1009	0.162
Mof_C 	C 	0.3701	0.0298	0.0802	-0.269
Mof_H 	H 	0.3616	0.0178	0.0515	0.09
Mof_H 	H 	0.4044	0.0352	0.0902	0.097
Mof_C 	C 	0.3476	0.1129	0.0873	0.078
Mof_H 	H 	0.3137	0.1038	0.0813	0.007
Mof_H 	H 	0.3599	0.1285	0.1156	0.002
Mof_C 	C 	0.3307	0.1931	0.0261	0.232
Mof_C 	C 	0.3398	0.2724	0.0049	-0.075
Mof_C 	C 	0.3762	0.3274	0.0213	0.009
Mof_H 	H 	0.3987	0.3119	0.0453	0.004
Mof_C 	C 	0.1714	0.4656	0.7263	0.082
Mof_H 	H 	0.1763	0.5151	0.7122	-0.022
Mof_C 	C 	0.13	0.4219	0.7131	-0.161
Mof_H 	H 	0.1063	0.4415	0.6906	0.074
Mof_C 	C 	0.1235	0.3504	0.7329	0.085
Mof_H 	H 	0.0951	0.319	0.7242	-0.005
Mof_C 	C 	0.1587	0.3231	0.7662	-0.196
Mof_H 	H 	0.1547	0.2729	0.7802	0.092
Mof_C 	C 	0.199	0.3698	0.7784	0.16
Mof_C 	C 	0.2365	0.3458	0.8149	-0.256
Mof_H 	H 	0.2642	0.3823	0.8175	0.074
Mof_H 	H 	0.2456	0.2848	0.8133	0.097
Mof_C 	C 	0.2192	0.3582	0.8508	0.071
Mof_H 	H 	0.2084	0.4184	0.8513	0.018
Mof_H 	H 	0.1923	0.3197	0.8485	0.009
Mof_C 	C 	0.2775	0.4007	0.9126	0.227
Mof_C 	C 	0.3117	0.3707	0.9505	-0.083
Mof_C 	C 	0.3079	0.2933	0.9692	0.008
Mof_H 	H 	0.2831	0.2547	0.9574	0.044
Mof_C 	C 	0.5956	0.7156	0.0866	0.103
Mof_H 	H 	0.5966	0.7737	0.0784	-0.003
Mof_C 	C 	0.6278	0.6884	0.1196	-0.188
Mof_H 	H 	0.6509	0.7273	0.1342	0.089
Mof_C 	C 	0.6275	0.606	0.1322	0.127
Mof_H 	H 	0.6502	0.5864	0.1553	-0.036
Mof_C 	C 	0.5936	0.5516	0.1105	-0.218
Mof_H 	H 	0.5926	0.4934	0.1186	0.099
Mof_C 	C 	0.5609	0.5812	0.0769	0.179
Mof_C 	C 	0.5219	0.524	0.0542	-0.266
Mof_H 	H 	0.5346	0.4667	0.0507	0.102
Mof_H 	H 	0.5077	0.549	0.0277	0.085
Mof_C 	C 	0.4847	0.5131	0.0748	0.071
Mof_H 	H 	0.4996	0.4949	0.1024	0.003
Mof_H 	H 	0.4695	0.5695	0.0754	0.008
Mof_C 	C 	0.4183	0.4697	0.0218	0.22
Mof_C 	C 	0.3804	0.4047	0.0035	-0.084
Mof_C 	C 	0.3474	0.4266	0.9682	0.008
Mof_H 	H 	0.3494	0.4805	0.9561	0.041
Mof_C 	C 	0.4207	0.692	0.9456	0.075
Mof_H 	H 	0.4172	0.6536	0.9654	0.004
Mof_C 	C 	0.3844	0.7	0.9114	-0.152
Mof_H 	H 	0.3571	0.666	0.9071	0.087
Mof_C 	C 	0.3887	0.7575	0.8838	0.087
Mof_H 	H 	0.3639	0.766	0.8603	-0.004
Mof_C 	C 	0.43	0.8042	0.8905	-0.198
Mof_H 	H 	0.4337	0.844	0.8713	0.088
Mof_C 	C 	0.4651	0.7928	0.9246	0.165
Mof_C 	C 	0.5092	0.8449	0.9346	-0.275
Mof_H 	H 	0.5144	0.8674	0.9102	0.098
Mof_H 	H 	0.536	0.8082	0.9483	0.095
Mof_C 	C 	0.5047	0.9198	0.9613	0.083
Mof_H 	H 	0.4827	0.9627	0.9454	0.001
Mof_H 	H 	0.4915	0.8978	0.9819	-0.005
Mof_C 	C 	0.5803	0.9224	0.0096	0.229
Mof_C 	C 	0.6235	0.9712	0.0316	-0.084
Mof_C 	C 	0.6306	0.0575	0.025	0.005
Mof_H 	H 	0.6076	0.0886	0.0056	0.007
Mof_C 	C 	0.7109	0.5605	0.9536	0.09
Mof_H 	H 	0.7304	0.6063	0.9666	0.012
Mof_C 	C 	0.679	0.5773	0.9189	-0.152
Mof_H 	H 	0.676	0.6336	0.9079	0.084
Mof_C 	C 	0.6505	0.5109	0.8995	0.085
Mof_H 	H 	0.6277	0.5209	0.8749	-0.008
Mof_C 	C 	0.6558	0.4305	0.9163	-0.186
Mof_H 	H 	0.6364	0.3843	0.9035	0.086
Mof_C 	C 	0.6894	0.4167	0.9521	0.158
Mof_C 	C 	0.6946	0.3279	0.9705	-0.247
Mof_H 	H 	0.7273	0.3189	0.9864	0.074
Mof_H 	H 	0.6867	0.2837	0.9494	0.094
Mof_C 	C 	0.663	0.3177	0.9965	0.047
Mof_H 	H 	0.6757	0.3514	0.0211	0.019
Mof_H 	H 	0.6318	0.3407	0.9826	0.022
Mof_C 	C 	0.6815	0.1915	0.041	0.214
Mof_C 	C 	0.6713	0.0988	0.0465	-0.091
Mof_C 	C 	0.7037	0.053	0.075	0.007
Mof_H 	H 	0.7318	0.0805	0.0895	0.03
Mof_C 	C 	0.8678	0.9079	0.3041	0.089
Mof_H 	H 	0.857	0.8996	0.3264	-0.021
Mof_C 	C 	0.9117	0.8814	0.3063	-0.164
Mof_H 	H 	0.9314	0.8567	0.3298	0.078
Mof_C 	C 	0.927	0.8916	0.2729	0.089
Mof_H 	H 	0.9569	0.8719	0.2729	-0.009
Mof_C 	C 	0.8983	0.9299	0.2405	-0.199
Mof_H 	H 	0.9083	0.9384	0.2178	0.089
Mof_C 	C 	0.8542	0.957	0.2405	0.16
Mof_C 	C 	0.8212	0.9965	0.2042	-0.265
Mof_H 	H 	0.8391	0.0261	0.1886	0.098
Mof_H 	H 	0.8015	0.0399	0.2121	0.071
Mof_C 	C 	0.7906	0.9267	0.1792	0.069
Mof_H 	H 	0.8101	0.8864	0.1693	0.015
Mof_H 	H 	0.7751	0.8935	0.1956	-0.007
Mof_C 	C 	0.7302	0.9186	0.1157	0.227
Mof_C 	C 	0.6964	0.9677	0.083	-0.079
Mof_C 	C 	0.6563	0.9268	0.0604	0.013
Mof_H 	H 	0.6516	0.8675	0.0647	0.046
Mof_Ag	Ag	0.76823	0.53669	0.52672	0.625
Mof_Ag	Ag	0.01351	0.78357	0.51019	0.583
Mof_Ag	Ag	0.27057	0.51125	0.77237	0.516
Mof_O 	O 	0.8003	0.3597	0.50977	-0.269
Mof_O 	O 	0.771	0.0218	0.40634	-0.271
Mof_O 	O 	0.91836	0.9608	0.50496	-0.264
Mof_O 	O 	0.0745	0.6529	0.5188	-0.291
Mof_O 	O 	0.2096	0.2683	0.56755	-0.251
Mof_O 	O 	0.2343	0.6602	0.61451	-0.257
Mof_N 	N 	0.8141	0.5816	0.58135	-0.223
Mof_N 	N 	0.8559	0.316	0.56352	-0.236
Mof_H 	H 	0.878	0.2785	0.5741	0.116
Mof_N 	N 	0.7055	0.0596	0.2586	-0.222
Mof_N 	N 	0.7549	0.1601	0.3877	-0.239
Mof_H 	H 	0.7621	0.2143	0.3939	0.153
Mof_N 	N 	0.0621	0.8374	0.56466	-0.22
Mof_N 	N 	0.9494	0.0501	0.55555	-0.236
Mof_H 	H 	0.9489	0.1011	0.5663	0.109
Mof_N 	N 	0.9608	0.7642	0.45235	-0.218
Mof_N 	N 	0.0485	0.5381	0.48007	-0.236
Mof_H 	H 	0.0543	0.4866	0.4721	0.111
Mof_N 	N 	0.2167	0.0185	0.47108	-0.22
Mof_N 	N 	0.1592	0.2732	0.5064	-0.229
Mof_H 	H 	0.141	0.3066	0.4882	0.104
Mof_N 	N 	0.3391	0.5548	0.77185	-0.223
Mof_N 	N 	0.2557	0.5344	0.6461	-0.231
Mof_H 	H 	0.2513	0.4783	0.646	0.117
Mof_C 	C 	0.7987	0.6471	0.5991	0.077
Mof_H 	H 	0.7703	0.6744	0.5854	0.005
Mof_C 	C 	0.8224	0.6764	0.6363	-0.153
Mof_H 	H 	0.8112	0.7244	0.6475	0.073
Mof_C 	C 	0.8624	0.6346	0.6569	0.082
Mof_H 	H 	0.8788	0.6518	0.683	-0.009
Mof_C 	C 	0.8784	0.5678	0.6393	-0.194
Mof_H 	H 	0.9059	0.5381	0.6532	0.086
Mof_C 	C 	0.8541	0.5432	0.6009	0.163
Mof_C 	C 	0.8701	0.4702	0.5802	-0.27
Mof_H 	H 	0.8616	0.4822	0.5515	0.09
Mof_H 	H 	0.9044	0.4648	0.5902	0.097
Mof_C 	C 	0.8476	0.3871	0.5873	0.079
Mof_H 	H 	0.8137	0.3962	0.5813	0.006
Mof_H 	H 	0.8599	0.3715	0.6156	0.001
Mof_C 	C 	0.8307	0.3069	0.5261	0.232
Mof_C 	C 	0.8398	0.2276	0.5049	-0.076
Mof_C 	C 	0.8762	0.1726	0.5213	0.009
Mof_H 	H 	0.8987	0.1881	0.5453	0.004
Mof_C 	C 	0.6714	0.0344	0.2263	0.083
Mof_H 	H 	0.6763	0.9849	0.2122	-0.022
Mof_C 	C 	0.63	0.0781	0.2131	-0.162
Mof_H 	H 	0.6063	0.0585	0.1906	0.074
Mof_C 	C 	0.6235	0.1496	0.2329	0.085
Mof_H 	H 	0.5951	0.181	0.2242	-0.006
Mof_C 	C 	0.6587	0.1769	0.2662	-0.196
Mof_H 	H 	0.6547	0.2271	0.2802	0.092
Mof_C 	C 	0.699	0.1302	0.2784	0.16
Mof_C 	C 	0.7365	0.1542	0.3149	-0.256
Mof_H 	H 	0.7642	0.1177	0.3175	0.074
Mof_H 	H 	0.7456	0.2152	0.3133	0.097
Mof_C 	C 	0.7192	0.1418	0.3508	0.071
Mof_H 	H 	0.7084	0.0816	0.3513	0.018
Mof_H 	H 	0.6923	0.1803	0.3485	0.009
Mof_C 	C 	0.7775	0.0993	0.4126	0.227
Mof_C 	C 	0.8117	0.1293	0.4505	-0.083
Mof_C 	C 	0.8079	0.2067	0.4692	0.008
Mof_H 	H 	0.7831	0.2453	0.4574	0.044
Mof_C 	C 	0.0956	0.7844	0.5866	0.103
Mof_H 	H 	0.0966	0.7263	0.5784	-0.003
Mof_C 	C 	0.1278	0.8116	0.6196	-0.188
Mof_H 	H 	0.1509	0.7727	0.6342	0.089
Mof_C 	C 	0.1275	0.894	0.6322	0.126
Mof_H 	H 	0.1502	0.9136	0.6553	-0.036
Mof_C 	C 	0.0936	0.9484	0.6105	-0.217
Mof_H 	H 	0.0926	0.0066	0.6186	0.099
Mof_C 	C 	0.0609	0.9188	0.5769	0.178
Mof_C 	C 	0.0219	0.976	0.5542	-0.266
Mof_H 	H 	0.0346	0.0333	0.5507	0.101
Mof_H 	H 	0.0077	0.951	0.5277	0.085
Mof_C 	C 	0.9847	0.9869	0.5748	0.072
Mof_H 	H 	0.9996	0.0051	0.6024	0.003
Mof_H 	H 	0.9695	0.9305	0.5754	0.008
Mof_C 	C 	0.9183	0.0303	0.5218	0.22
Mof_C 	C 	0.8804	0.0953	0.5035	-0.084
Mof_C 	C 	0.8474	0.0734	0.4682	0.009
Mof_H 	H 	0.8494	0.0195	0.4561	0.041
Mof_C 	C 	0.9207	0.808	0.4456	0.075
Mof_H 	H 	0.9172	0.8464	0.4654	0.004
Mof_C 	C 	0.8844	0.8	0.4114	-0.152
Mof_H 	H 	0.8571	0.834	0.4071	0.087
Mof_C 	C 	0.8887	0.7425	0.3838	0.087
Mof_H 	H 	0.8639	0.734	0.3603	-0.004
Mof_C 	C 	0.93	0.6958	0.3905	-0.198
Mof_H 	H 	0.9337	0.656	0.3713	0.088
Mof_C 	C 	0.9651	0.7072	0.4246	0.166
Mof_C 	C 	0.0092	0.6551	0.4346	-0.275
Mof_H 	H 	0.0144	0.6326	0.4102	0.098
Mof_H 	H 	0.036	0.6918	0.4483	0.095
Mof_C 	C 	0.0047	0.5802	0.4613	0.083
Mof_H 	H 	0.9827	0.5373	0.4454	0
Mof_H 	H 	0.9915	0.6022	0.4819	-0.005
Mof_C 	C 	0.0803	0.5776	0.5096	0.23
Mof_C 	C 	0.1235	0.5288	0.5316	-0.083
Mof_C 	C 	0.1306	0.4425	0.525	0.003
Mof_H 	H 	0.1076	0.4114	0.5056	0.007
Mof_C 	C 	0.2109	0.9395	0.4536	0.09
Mof_H 	H 	0.2304	0.8937	0.4666	0.012
Mof_C 	C 	0.179	0.9227	0.4189	-0.152
Mof_H 	H 	0.176	0.8664	0.4079	0.084
Mof_C 	C 	0.1505	0.9891	0.3995	0.085
Mof_H 	H 	0.1277	0.9791	0.3749	-0.008
Mof_C 	C 	0.1558	0.0695	0.4163	-0.185
Mof_H 	H 	0.1364	0.1157	0.4035	0.086
Mof_C 	C 	0.1894	0.0833	0.4521	0.158
Mof_C 	C 	0.1946	0.1721	0.4705	-0.248
Mof_H 	H 	0.2273	0.1811	0.4864	0.074
Mof_H 	H 	0.1867	0.2163	0.4494	0.094
Mof_C 	C 	0.163	0.1823	0.4965	0.048
Mof_H 	H 	0.1757	0.1486	0.5211	0.019
Mof_H 	H 	0.1318	0.1593	0.4826	0.022
Mof_C 	C 	0.1815	0.3085	0.541	0.214
Mof_C 	C 	0.1713	0.4012	0.5465	-0.09
Mof_C 	C 	0.2037	0.447	0.575	0.006
Mof_H 	H 	0.2318	0.4195	0.5895	0.031
Mof_C 	C 	0.3678	0.5921	0.8041	0.089
Mof_H 	H 	0.357	0.6004	0.8264	-0.021
Mof_C 	C 	0.4117	0.6186	0.8063	-0.164
Mof_H 	H 	0.4314	0.6433	0.8298	0.078
Mof_C 	C 	0.427	0.6084	0.7729	0.088
Mof_H 	H 	0.4569	0.6281	0.7729	-0.009
Mof_C 	C 	0.3983	0.5701	0.7405	-0.198
Mof_H 	H 	0.4083	0.5616	0.7178	0.088
Mof_C 	C 	0.3542	0.543	0.7405	0.159
Mof_C 	C 	0.3212	0.5035	0.7042	-0.263
Mof_H 	H 	0.3391	0.4739	0.6886	0.096
Mof_H 	H 	0.3015	0.4601	0.7121	0.07
Mof_C 	C 	0.2906	0.5733	0.6792	0.068
Mof_H 	H 	0.3101	0.6136	0.6693	0.016
Mof_H 	H 	0.2751	0.6065	0.6956	-0.007
Mof_C 	C 	0.2302	0.5814	0.6157	0.226
Mof_C 	C 	0.1964	0.5323	0.583	-0.077
Mof_C 	C 	0.1563	0.5732	0.5604	0.012
Mof_H 	H 	0.1516	0.6325	0.5647	0.046
Mof_Ag	Ag	0.26823	0.03669	0.52672	0.625
Mof_Ag	Ag	0.51351	0.28357	0.51019	0.582
Mof_Ag	Ag	0.77057	0.01125	0.77237	0.515
Mof_O 	O 	0.3003	0.8597	0.50977	-0.269
Mof_O 	O 	0.271	0.5218	0.40634	-0.271
Mof_O 	O 	0.41836	0.4608	0.50496	-0.264
Mof_O 	O 	0.5745	0.1529	0.5188	-0.291
Mof_O 	O 	0.7096	0.7683	0.56755	-0.251
Mof_O 	O 	0.7343	0.1602	0.61451	-0.257
Mof_N 	N 	0.3141	0.0816	0.58135	-0.223
Mof_N 	N 	0.3559	0.816	0.56352	-0.236
Mof_H 	H 	0.378	0.7785	0.5741	0.116
Mof_N 	N 	0.2055	0.5596	0.2586	-0.222
Mof_N 	N 	0.2549	0.6601	0.3877	-0.239
Mof_H 	H 	0.2621	0.7143	0.3939	0.153
Mof_N 	N 	0.5621	0.3374	0.56466	-0.22
Mof_N 	N 	0.4494	0.5501	0.55555	-0.236
Mof_H 	H 	0.4489	0.6011	0.5663	0.109
Mof_N 	N 	0.4608	0.2642	0.45235	-0.218
Mof_N 	N 	0.5485	0.0381	0.48007	-0.236
Mof_H 	H 	0.5543	0.9866	0.4721	0.111
Mof_N 	N 	0.7167	0.5185	0.47108	-0.22
Mof_N 	N 	0.6592	0.7732	0.5064	-0.229
Mof_H 	H 	0.641	0.8066	0.4882	0.104
Mof_N 	N 	0.8391	0.0548	0.77185	-0.223
Mof_N 	N 	0.7557	0.0344	0.6461	-0.232
Mof_H 	H 	0.7513	0.9783	0.646	0.117
Mof_C 	C 	0.2987	0.1471	0.5991	0.077
Mof_H 	H 	0.2703	0.1744	0.5854	0.005
Mof_C 	C 	0.3224	0.1764	0.6363	-0.153
Mof_H 	H 	0.3112	0.2244	0.6475	0.073
Mof_C 	C 	0.3624	0.1346	0.6569	0.082
Mof_H 	H 	0.3788	0.1518	0.683	-0.009
Mof_C 	C 	0.3784	0.0678	0.6393	-0.194
Mof_H 	H 	0.4059	0.0381	0.6532	0.086
Mof_C 	C 	0.3541	0.0432	0.6009	0.163
Mof_C 	C 	0.3701	0.9702	0.5802	-0.27
Mof_H 	H 	0.3616	0.9822	0.5515	0.09
Mof_H 	H 	0.4044	0.9648	0.5902	0.097
Mof_C 	C 	0.3476	0.8871	0.5873	0.079
Mof_H 	H 	0.3137	0.8962	0.5813	0.007
Mof_H 	H 	0.3599	0.8715	0.6156	0.002
Mof_C 	C 	0.3307	0.8069	0.5261	0.232
Mof_C 	C 	0.3398	0.7276	0.5049	-0.076
Mof_C 	C 	0.3762	0.6726	0.5213	0.009
Mof_H 	H 	0.3987	0.6881	0.5453	0.004
Mof_C 	C 	0.1714	0.5344	0.2263	0.082
Mof_H 	H 	0.1763	0.4849	0.2122	-0.022
Mof_C 	C 	0.13	0.5781	0.2131	-0.161
Mof_H 	H 	0.1063	0.5585	0.1906	0.074
Mof_C 	C 	0.1235	0.6496	0.2329	0.085
Mof_H 	H 	0.0951	0.681	0.2242	-0.005
Mof_C 	C 	0.1587	0.6769	0.2662	-0.196
Mof_H 	H 	0.1547	0.7271	0.2802	0.092
Mof_C 	C 	0.199	0.6302	0.2784	0.16
Mof_C 	C 	0.2365	0.6542	0.3149	-0.256
Mof_H 	H 	0.2642	0.6177	0.3175	0.074
Mof_H 	H 	0.2456	0.7152	0.3133	0.097
Mof_C 	C 	0.2192	0.6418	0.3508	0.071
Mof_H 	H 	0.2084	0.5816	0.3513	0.018
Mof_H 	H 	0.1923	0.6803	0.3485	0.009
Mof_C 	C 	0.2775	0.5993	0.4126	0.227
Mof_C 	C 	0.3117	0.6293	0.4505	-0.083
Mof_C 	C 	0.3079	0.7067	0.4692	0.008
Mof_H 	H 	0.2831	0.7453	0.4574	0.044
Mof_C 	C 	0.5956	0.2844	0.5866	0.103
Mof_H 	H 	0.5966	0.2263	0.5784	-0.003
Mof_C 	C 	0.6278	0.3116	0.6196	-0.188
Mof_H 	H 	0.6509	0.2727	0.6342	0.089
Mof_C 	C 	0.6275	0.394	0.6322	0.127
Mof_H 	H 	0.6502	0.4136	0.6553	-0.036
Mof_C 	C 	0.5936	0.4484	0.6105	-0.218
Mof_H 	H 	0.5926	0.5066	0.6186	0.099
Mof_C 	C 	0.5609	0.4188	0.5769	0.178
Mof_C 	C 	0.5219	0.476	0.5542	-0.266
Mof_H 	H 	0.5346	0.5333	0.5507	0.102
Mof_H 	H 	0.5077	0.451	0.5277	0.085
Mof_C 	C 	0.4847	0.4869	0.5748	0.071
Mof_H 	H 	0.4996	0.5051	0.6024	0.003
Mof_H 	H 	0.4695	0.4305	0.5754	0.008
Mof_C 	C 	0.4183	0.5303	0.5218	0.22
Mof_C 	C 	0.3804	0.5953	0.5035	-0.084
Mof_C 	C 	0.3474	0.5734	0.4682	0.009
Mof_H 	H 	0.3494	0.5195	0.4561	0.041
Mof_C 	C 	0.4207	0.308	0.4456	0.075
Mof_H 	H 	0.4172	0.3464	0.4654	0.004
Mof_C 	C 	0.3844	0.3	0.4114	-0.152
Mof_H 	H 	0.3571	0.334	0.4071	0.087
Mof_C 	C 	0.3887	0.2425	0.3838	0.087
Mof_H 	H 	0.3639	0.234	0.3603	-0.004
Mof_C 	C 	0.43	0.1958	0.3905	-0.198
Mof_H 	H 	0.4337	0.156	0.3713	0.088
Mof_C 	C 	0.4651	0.2072	0.4246	0.166
Mof_C 	C 	0.5092	0.1551	0.4346	-0.275
Mof_H 	H 	0.5144	0.1326	0.4102	0.098
Mof_H 	H 	0.536	0.1918	0.4483	0.095
Mof_C 	C 	0.5047	0.0802	0.4613	0.083
Mof_H 	H 	0.4827	0.0373	0.4454	0
Mof_H 	H 	0.4915	0.1022	0.4819	-0.005
Mof_C 	C 	0.5803	0.0776	0.5096	0.23
Mof_C 	C 	0.6235	0.0288	0.5316	-0.083
Mof_C 	C 	0.6306	0.9425	0.525	0.003
Mof_H 	H 	0.6076	0.9114	0.5056	0.007
Mof_C 	C 	0.7109	0.4395	0.4536	0.09
Mof_H 	H 	0.7304	0.3937	0.4666	0.012
Mof_C 	C 	0.679	0.4227	0.4189	-0.152
Mof_H 	H 	0.676	0.3664	0.4079	0.084
Mof_C 	C 	0.6505	0.4891	0.3995	0.085
Mof_H 	H 	0.6277	0.4791	0.3749	-0.008
Mof_C 	C 	0.6558	0.5695	0.4163	-0.186
Mof_H 	H 	0.6364	0.6157	0.4035	0.086
Mof_C 	C 	0.6894	0.5833	0.4521	0.158
Mof_C 	C 	0.6946	0.6721	0.4705	-0.248
Mof_H 	H 	0.7273	0.6811	0.4864	0.074
Mof_H 	H 	0.6867	0.7163	0.4494	0.094
Mof_C 	C 	0.663	0.6823	0.4965	0.048
Mof_H 	H 	0.6757	0.6486	0.5211	0.019
Mof_H 	H 	0.6318	0.6593	0.4826	0.022
Mof_C 	C 	0.6815	0.8085	0.541	0.214
Mof_C 	C 	0.6713	0.9012	0.5465	-0.091
Mof_C 	C 	0.7037	0.947	0.575	0.006
Mof_H 	H 	0.7318	0.9195	0.5895	0.031
Mof_C 	C 	0.8678	0.0921	0.8041	0.089
Mof_H 	H 	0.857	0.1004	0.8264	-0.021
Mof_C 	C 	0.9117	0.1186	0.8063	-0.164
Mof_H 	H 	0.9314	0.1433	0.8298	0.078
Mof_C 	C 	0.927	0.1084	0.7729	0.089
Mof_H 	H 	0.9569	0.1281	0.7729	-0.009
Mof_C 	C 	0.8983	0.0701	0.7405	-0.199
Mof_H 	H 	0.9083	0.0616	0.7178	0.089
Mof_C 	C 	0.8542	0.043	0.7405	0.16
Mof_C 	C 	0.8212	0.0035	0.7042	-0.265
Mof_H 	H 	0.8391	0.9739	0.6886	0.097
Mof_H 	H 	0.8015	0.9601	0.7121	0.071
Mof_C 	C 	0.7906	0.0733	0.6792	0.068
Mof_H 	H 	0.8101	0.1136	0.6693	0.015
Mof_H 	H 	0.7751	0.1065	0.6956	-0.007
Mof_C 	C 	0.7302	0.0814	0.6157	0.226
Mof_C 	C 	0.6964	0.0323	0.583	-0.078
Mof_C 	C 	0.6563	0.0732	0.5604	0.012
Mof_H 	H 	0.6516	0.1325	0.5647	0.046
Mof_Ag	Ag	0.23177	0.46331	0.47328	0.625
Mof_Ag	Ag	0.98649	0.21643	0.48981	0.583
Mof_Ag	Ag	0.72943	0.48875	0.22763	0.516
Mof_O 	O 	0.1997	0.6403	0.49023	-0.269
Mof_O 	O 	0.229	0.9782	0.59366	-0.271
Mof_O 	O 	0.08164	0.0392	0.49504	-0.264
Mof_O 	O 	0.9255	0.3471	0.4812	-0.291
Mof_O 	O 	0.7904	0.7317	0.43245	-0.251
Mof_O 	O 	0.7657	0.3398	0.38549	-0.257
Mof_N 	N 	0.1859	0.4184	0.41865	-0.223
Mof_N 	N 	0.1441	0.684	0.43648	-0.236
Mof_H 	H 	0.122	0.7215	0.4259	0.116
Mof_N 	N 	0.2945	0.9404	0.7414	-0.222
Mof_N 	N 	0.2451	0.8399	0.6123	-0.239
Mof_H 	H 	0.2379	0.7857	0.6061	0.153
Mof_N 	N 	0.9379	0.1626	0.43534	-0.22
Mof_N 	N 	0.0506	0.9499	0.44445	-0.236
Mof_H 	H 	0.0511	0.8989	0.4337	0.109
Mof_N 	N 	0.0392	0.2358	0.54765	-0.218
Mof_N 	N 	0.9515	0.4619	0.51993	-0.236
Mof_H 	H 	0.9457	0.5134	0.5279	0.111
Mof_N 	N 	0.7833	0.9815	0.52892	-0.22
Mof_N 	N 	0.8408	0.7268	0.4936	-0.229
Mof_H 	H 	0.859	0.6934	0.5118	0.104
Mof_N 	N 	0.6609	0.4452	0.22815	-0.223
Mof_N 	N 	0.7443	0.4656	0.3539	-0.231
Mof_H 	H 	0.7487	0.5217	0.354	0.117
Mof_C 	C 	0.2013	0.3529	0.4009	0.077
Mof_H 	H 	0.2297	0.3256	0.4146	0.005
Mof_C 	C 	0.1776	0.3236	0.3637	-0.153
Mof_H 	H 	0.1888	0.2756	0.3525	0.073
Mof_C 	C 	0.1376	0.3654	0.3431	0.082
Mof_H 	H 	0.1212	0.3482	0.317	-0.009
Mof_C 	C 	0.1216	0.4322	0.3607	-0.194
Mof_H 	H 	0.0941	0.4619	0.3468	0.086
Mof_C 	C 	0.1459	0.4568	0.3991	0.163
Mof_C 	C 	0.1299	0.5298	0.4198	-0.27
Mof_H 	H 	0.1384	0.5178	0.4485	0.09
Mof_H 	H 	0.0956	0.5352	0.4098	0.097
Mof_C 	C 	0.1524	0.6129	0.4127	0.079
Mof_H 	H 	0.1863	0.6038	0.4187	0.006
Mof_H 	H 	0.1401	0.6285	0.3844	0.001
Mof_C 	C 	0.1693	0.6931	0.4739	0.232
Mof_C 	C 	0.1602	0.7724	0.4951	-0.076
Mof_C 	C 	0.1238	0.8274	0.4787	0.009
Mof_H 	H 	0.1013	0.8119	0.4547	0.004
Mof_C 	C 	0.3286	0.9656	0.7737	0.083
Mof_H 	H 	0.3237	0.0151	0.7878	-0.022
Mof_C 	C 	0.37	0.9219	0.7869	-0.162
Mof_H 	H 	0.3937	0.9415	0.8094	0.074
Mof_C 	C 	0.3765	0.8504	0.7671	0.085
Mof_H 	H 	0.4049	0.819	0.7758	-0.006
Mof_C 	C 	0.3413	0.8231	0.7338	-0.196
Mof_H 	H 	0.3453	0.7729	0.7198	0.092
Mof_C 	C 	0.301	0.8698	0.7216	0.16
Mof_C 	C 	0.2635	0.8458	0.6851	-0.256
Mof_H 	H 	0.2358	0.8823	0.6825	0.074
Mof_H 	H 	0.2544	0.7848	0.6867	0.097
Mof_C 	C 	0.2808	0.8582	0.6492	0.071
Mof_H 	H 	0.2916	0.9184	0.6487	0.018
Mof_H 	H 	0.3077	0.8197	0.6515	0.009
Mof_C 	C 	0.2225	0.9007	0.5874	0.227
Mof_C 	C 	0.1883	0.8707	0.5495	-0.083
Mof_C 	C 	0.1921	0.7933	0.5308	0.008
Mof_H 	H 	0.2169	0.7547	0.5426	0.044
Mof_C 	C 	0.9044	0.2156	0.4134	0.103
Mof_H 	H 	0.9034	0.2737	0.4216	-0.003
Mof_C 	C 	0.8722	0.1884	0.3804	-0.188
Mof_H 	H 	0.8491	0.2273	0.3658	0.089
Mof_C 	C 	0.8725	0.106	0.3678	0.126
Mof_H 	H 	0.8498	0.0864	0.3447	-0.036
Mof_C 	C 	0.9064	0.0516	0.3895	-0.217
Mof_H 	H 	0.9074	0.9934	0.3814	0.099
Mof_C 	C 	0.9391	0.0812	0.4231	0.178
Mof_C 	C 	0.9781	0.024	0.4458	-0.266
Mof_H 	H 	0.9654	0.9667	0.4493	0.101
Mof_H 	H 	0.9923	0.049	0.4723	0.085
Mof_C 	C 	0.0153	0.0131	0.4252	0.072
Mof_H 	H 	0.0004	0.9949	0.3976	0.003
Mof_H 	H 	0.0305	0.0695	0.4246	0.008
Mof_C 	C 	0.0817	0.9697	0.4782	0.22
Mof_C 	C 	0.1196	0.9047	0.4965	-0.084
Mof_C 	C 	0.1526	0.9266	0.5318	0.009
Mof_H 	H 	0.1506	0.9805	0.5439	0.041
Mof_C 	C 	0.0793	0.192	0.5544	0.075
Mof_H 	H 	0.0828	0.1536	0.5346	0.004
Mof_C 	C 	0.1156	0.2	0.5886	-0.152
Mof_H 	H 	0.1429	0.166	0.5929	0.087
Mof_C 	C 	0.1113	0.2575	0.6162	0.087
Mof_H 	H 	0.1361	0.266	0.6397	-0.004
Mof_C 	C 	0.07	0.3042	0.6095	-0.198
Mof_H 	H 	0.0663	0.344	0.6287	0.088
Mof_C 	C 	0.0349	0.2928	0.5754	0.166
Mof_C 	C 	0.9908	0.3449	0.5654	-0.275
Mof_H 	H 	0.9856	0.3674	0.5898	0.098
Mof_H 	H 	0.964	0.3082	0.5517	0.095
Mof_C 	C 	0.9953	0.4198	0.5387	0.083
Mof_H 	H 	0.0173	0.4627	0.5546	0
Mof_H 	H 	0.0085	0.3978	0.5181	-0.005
Mof_C 	C 	0.9197	0.4224	0.4904	0.23
Mof_C 	C 	0.8765	0.4712	0.4684	-0.083
Mof_C 	C 	0.8694	0.5575	0.475	0.003
Mof_H 	H 	0.8924	0.5886	0.4944	0.007
Mof_C 	C 	0.7891	0.0605	0.5464	0.09
Mof_H 	H 	0.7696	0.1063	0.5334	0.012
Mof_C 	C 	0.821	0.0773	0.5811	-0.152
Mof_H 	H 	0.824	0.1336	0.5921	0.084
Mof_C 	C 	0.8495	0.0109	0.6005	0.085
Mof_H 	H 	0.8723	0.0209	0.6251	-0.008
Mof_C 	C 	0.8442	0.9305	0.5837	-0.185
Mof_H 	H 	0.8636	0.8843	0.5965	0.086
Mof_C 	C 	0.8106	0.9167	0.5479	0.158
Mof_C 	C 	0.8054	0.8279	0.5295	-0.248
Mof_H 	H 	0.7727	0.8189	0.5136	0.074
Mof_H 	H 	0.8133	0.7837	0.5506	0.094
Mof_C 	C 	0.837	0.8177	0.5035	0.048
Mof_H 	H 	0.8243	0.8514	0.4789	0.019
Mof_H 	H 	0.8682	0.8407	0.5174	0.022
Mof_C 	C 	0.8185	0.6915	0.459	0.214
Mof_C 	C 	0.8287	0.5988	0.4535	-0.09
Mof_C 	C 	0.7963	0.553	0.425	0.006
Mof_H 	H 	0.7682	0.5805	0.4105	0.031
Mof_C 	C 	0.6322	0.4079	0.1959	0.089
Mof_H 	H 	0.643	0.3996	0.1736	-0.021
Mof_C 	C 	0.5883	0.3814	0.1937	-0.164
Mof_H 	H 	0.5686	0.3567	0.1702	0.078
Mof_C 	C 	0.573	0.3916	0.2271	0.088
Mof_H 	H 	0.5431	0.3719	0.2271	-0.009
Mof_C 	C 	0.6017	0.4299	0.2595	-0.198
Mof_H 	H 	0.5917	0.4384	0.2822	0.088
Mof_C 	C 	0.6458	0.457	0.2595	0.159
Mof_C 	C 	0.6788	0.4965	0.2958	-0.263
Mof_H 	H 	0.6609	0.5261	0.3114	0.096
Mof_H 	H 	0.6985	0.5399	0.2879	0.07
Mof_C 	C 	0.7094	0.4267	0.3208	0.068
Mof_H 	H 	0.6899	0.3864	0.3307	0.016
Mof_H 	H 	0.7249	0.3935	0.3044	-0.007
Mof_C 	C 	0.7698	0.4186	0.3843	0.226
Mof_C 	C 	0.8036	0.4677	0.417	-0.077
Mof_C 	C 	0.8437	0.4268	0.4396	0.012
Mof_H 	H 	0.8484	0.3675	0.4353	0.046
Mof_Ag	Ag	0.73177	0.96331	0.47328	0.625
Mof_Ag	Ag	0.48649	0.71643	0.48981	0.582
Mof_Ag	Ag	0.22943	0.98875	0.22763	0.515
Mof_O 	O 	0.6997	0.1403	0.49023	-0.269
Mof_O 	O 	0.729	0.4782	0.59366	-0.271
Mof_O 	O 	0.58164	0.5392	0.49504	-0.264
Mof_O 	O 	0.4255	0.8471	0.4812	-0.291
Mof_O 	O 	0.2904	0.2317	0.43245	-0.251
Mof_O 	O 	0.2657	0.8398	0.38549	-0.257
Mof_N 	N 	0.6859	0.9184	0.41865	-0.223
Mof_N 	N 	0.6441	0.184	0.43648	-0.236
Mof_H 	H 	0.622	0.2215	0.4259	0.116
Mof_N 	N 	0.7945	0.4404	0.7414	-0.222
Mof_N 	N 	0.7451	0.3399	0.6123	-0.239
Mof_H 	H 	0.7379	0.2857	0.6061	0.153
Mof_N 	N 	0.4379	0.6626	0.43534	-0.22
Mof_N 	N 	0.5506	0.4499	0.44445	-0.236
Mof_H 	H 	0.5511	0.3989	0.4337	0.109
Mof_N 	N 	0.5392	0.7358	0.54765	-0.218
Mof_N 	N 	0.4515	0.9619	0.51993	-0.236
Mof_H 	H 	0.4457	0.0134	0.5279	0.111
Mof_N 	N 	0.2833	0.4815	0.52892	-0.22
Mof_N 	N 	0.3408	0.2268	0.4936	-0.229
Mof_H 	H 	0.359	0.1934	0.5118	0.104
Mof_N 	N 	0.1609	0.9452	0.22815	-0.223
Mof_N 	N 	0.2443	0.9656	0.3539	-0.232
Mof_H 	H 	0.2487	0.0217	0.354	0.117
Mof_C 	C 	0.7013	0.8529	0.4009	0.077
Mof_H 	H 	0.7297	0.8256	0.4146	0.005
Mof_C 	C 	0.6776	0.8236	0.3637	-0.153
Mof_H 	H 	0.6888	0.7756	0.3525	0.073
Mof_C 	C 	0.6376	0.8654	0.3431	0.082
Mof_H 	H 	0.6212	0.8482	0.317	-0.009
Mof_C 	C 	0.6216	0.9322	0.3607	-0.194
Mof_H 	H 	0.5941	0.9619	0.3468	0.086
Mof_C 	C 	0.6459	0.9568	0.3991	0.163
Mof_C 	C 	0.6299	0.0298	0.4198	-0.27
Mof_H 	H 	0.6384	0.0178	0.4485	0.09
Mof_H 	H 	0.5956	0.0352	0.4098	0.097
Mof_C 	C 	0.6524	0.1129	0.4127	0.079
Mof_H 	H 	0.6863	0.1038	0.4187	0.007
Mof_H 	H 	0.6401	0.1285	0.3844	0.002
Mof_C 	C 	0.6693	0.1931	0.4739	0.232
Mof_C 	C 	0.6602	0.2724	0.4951	-0.076
Mof_C 	C 	0.6238	0.3274	0.4787	0.009
Mof_H 	H 	0.6013	0.3119	0.4547	0.004
Mof_C 	C 	0.8286	0.4656	0.7737	0.082
Mof_H 	H 	0.8237	0.5151	0.7878	-0.022
Mof_C 	C 	0.87	0.4219	0.7869	-0.161
Mof_H 	H 	0.8937	0.4415	0.8094	0.074
Mof_C 	C 	0.8765	0.3504	0.7671	0.085
Mof_H 	H 	0.9049	0.319	0.7758	-0.005
Mof_C 	C 	0.8413	0.3231	0.7338	-0.196
Mof_H 	H 	0.8453	0.2729	0.7198	0.092
Mof_C 	C 	0.801	0.3698	0.7216	0.16
Mof_C 	C 	0.7635	0.3458	0.6851	-0.256
Mof_H 	H 	0.7358	0.3823	0.6825	0.074
Mof_H 	H 	0.7544	0.2848	0.6867	0.097
Mof_C 	C 	0.7808	0.3582	0.6492	0.071
Mof_H 	H 	0.7916	0.4184	0.6487	0.018
Mof_H 	H 	0.8077	0.3197	0.6515	0.009
Mof_C 	C 	0.7225	0.4007	0.5874	0.227
Mof_C 	C 	0.6883	0.3707	0.5495	-0.083
Mof_C 	C 	0.6921	0.2933	0.5308	0.008
Mof_H 	H 	0.7169	0.2547	0.5426	0.044
Mof_C 	C 	0.4044	0.7156	0.4134	0.103
Mof_H 	H 	0.4034	0.7737	0.4216	-0.003
Mof_C 	C 	0.3722	0.6884	0.3804	-0.188
Mof_H 	H 	0.3491	0.7273	0.3658	0.089
Mof_C 	C 	0.3725	0.606	0.3678	0.127
Mof_H 	H 	0.3498	0.5864	0.3447	-0.036
Mof_C 	C 	0.4064	0.5516	0.3895	-0.218
Mof_H 	H 	0.4074	0.4934	0.3814	0.099
Mof_C 	C 	0.4391	0.5812	0.4231	0.178
Mof_C 	C 	0.4781	0.524	0.4458	-0.266
Mof_H 	H 	0.4654	0.4667	0.4493	0.102
Mof_H 	H 	0.4923	0.549	0.4723	0.085
Mof_C 	C 	0.5153	0.5131	0.4252	0.071
Mof_H 	H 	0.5004	0.4949	0.3976	0.003
Mof_H 	H 	0.5305	0.5695	0.4246	0.008
Mof_C 	C 	0.5817	0.4697	0.4782	0.22
Mof_C 	C 	0.6196	0.4047	0.4965	-0.084
Mof_C 	C 	0.6526	0.4266	0.5318	0.009
Mof_H 	H 	0.6506	0.4805	0.5439	0.041
Mof_C 	C 	0.5793	0.692	0.5544	0.075
Mof_H 	H 	0.5828	0.6536	0.5346	0.004
Mof_C 	C 	0.6156	0.7	0.5886	-0.152
Mof_H 	H 	0.6429	0.666	0.5929	0.087
Mof_C 	C 	0.6113	0.7575	0.6162	0.087
Mof_H 	H 	0.6361	0.766	0.6397	-0.004
Mof_C 	C 	0.57	0.8042	0.6095	-0.198
Mof_H 	H 	0.5663	0.844	0.6287	0.088
Mof_C 	C 	0.5349	0.7928	0.5754	0.166
Mof_C 	C 	0.4908	0.8449	0.5654	-0.275
Mof_H 	H 	0.4856	0.8674	0.5898	0.098
Mof_H 	H 	0.464	0.8082	0.5517	0.095
Mof_C 	C 	0.4953	0.9198	0.5387	0.083
Mof_H 	H 	0.5173	0.9627	0.5546	0
Mof_H 	H 	0.5085	0.8978	0.5181	-0.005
Mof_C 	C 	0.4197	0.9224	0.4904	0.23
Mof_C 	C 	0.3765	0.9712	0.4684	-0.083
Mof_C 	C 	0.3694	0.0575	0.475	0.003
Mof_H 	H 	0.3924	0.0886	0.4944	0.007
Mof_C 	C 	0.2891	0.5605	0.5464	0.09
Mof_H 	H 	0.2696	0.6063	0.5334	0.012
Mof_C 	C 	0.321	0.5773	0.5811	-0.152
Mof_H 	H 	0.324	0.6336	0.5921	0.084
Mof_C 	C 	0.3495	0.5109	0.6005	0.085
Mof_H 	H 	0.3723	0.5209	0.6251	-0.008
Mof_C 	C 	0.3442	0.4305	0.5837	-0.186
Mof_H 	H 	0.3636	0.3843	0.5965	0.086
Mof_C 	C 	0.3106	0.4167	0.5479	0.158
Mof_C 	C 	0.3054	0.3279	0.5295	-0.248
Mof_H 	H 	0.2727	0.3189	0.5136	0.074
Mof_H 	H 	0.3133	0.2837	0.5506	0.094
Mof_C 	C 	0.337	0.3177	0.5035	0.048
Mof_H 	H 	0.3243	0.3514	0.4789	0.019
Mof_H 	H 	0.3682	0.3407	0.5174	0.022
Mof_C 	C 	0.3185	0.1915	0.459	0.214
Mof_C 	C 	0.3287	0.0988	0.4535	-0.091
Mof_C 	C 	0.2963	0.053	0.425	0.006
Mof_H 	H 	0.2682	0.0805	0.4105	0.031
Mof_C 	C 	0.1322	0.9079	0.1959	0.089
Mof_H 	H 	0.143	0.8996	0.1736	-0.021
Mof_C 	C 	0.0883	0.8814	0.1937	-0.164
Mof_H 	H 	0.0686	0.8567	0.1702	0.078
Mof_C 	C 	0.073	0.8916	0.2271	0.089
Mof_H 	H 	0.0431	0.8719	0.2271	-0.009
Mof_C 	C 	0.1017	0.9299	0.2595	-0.199
Mof_H 	H 	0.0917	0.9384	0.2822	0.089
Mof_C 	C 	0.1458	0.957	0.2595	0.16
Mof_C 	C 	0.1788	0.9965	0.2958	-0.265
Mof_H 	H 	0.1609	0.0261	0.3114	0.097
Mof_H 	H 	0.1985	0.0399	0.2879	0.071
Mof_C 	C 	0.2094	0.9267	0.3208	0.068
Mof_H 	H 	0.1899	0.8864	0.3307	0.015
Mof_H 	H 	0.2249	0.8935	0.3044	-0.007
Mof_C 	C 	0.2698	0.9186	0.3843	0.226
Mof_C 	C 	0.3036	0.9677	0.417	-0.078
Mof_C 	C 	0.3437	0.9268	0.4396	0.012
Mof_H 	H 	0.3484	0.8675	0.4353	0.046
Mof_Ag	Ag	0.23177	0.53669	0.97328	0.625
Mof_Ag	Ag	0.98649	0.78357	0.98981	0.583
Mof_Ag	Ag	0.72943	0.51125	0.72763	0.516
Mof_O 	O 	0.1997	0.3597	0.99023	-0.269
Mof_O 	O 	0.229	0.0218	0.09366	-0.27
Mof_O 	O 	0.08164	0.9608	0.99504	-0.263
Mof_O 	O 	0.9255	0.6529	0.9812	-0.291
Mof_O 	O 	0.7904	0.2683	0.93245	-0.251
Mof_O 	O 	0.7657	0.6602	0.88549	-0.257
Mof_N 	N 	0.1859	0.5816	0.91865	-0.223
Mof_N 	N 	0.1441	0.316	0.93648	-0.236
Mof_H 	H 	0.122	0.2785	0.9259	0.116
Mof_N 	N 	0.2945	0.0596	0.2414	-0.222
Mof_N 	N 	0.2451	0.1601	0.1123	-0.239
Mof_H 	H 	0.2379	0.2143	0.1061	0.153
Mof_N 	N 	0.9379	0.8374	0.93534	-0.22
Mof_N 	N 	0.0506	0.0501	0.94445	-0.237
Mof_H 	H 	0.0511	0.1011	0.9337	0.109
Mof_N 	N 	0.0392	0.7642	0.04765	-0.218
Mof_N 	N 	0.9515	0.5381	0.01993	-0.236
Mof_H 	H 	0.9457	0.4866	0.0279	0.111
Mof_N 	N 	0.7833	0.0185	0.02892	-0.219
Mof_N 	N 	0.8408	0.2732	0.9936	-0.229
Mof_H 	H 	0.859	0.3066	0.0118	0.104
Mof_N 	N 	0.6609	0.5548	0.72815	-0.223
Mof_N 	N 	0.7443	0.5344	0.8539	-0.231
Mof_H 	H 	0.7487	0.4783	0.854	0.117
Mof_C 	C 	0.2013	0.6471	0.9009	0.077
Mof_H 	H 	0.2297	0.6744	0.9146	0.005
Mof_C 	C 	0.1776	0.6764	0.8637	-0.153
Mof_H 	H 	0.1888	0.7244	0.8525	0.073
Mof_C 	C 	0.1376	0.6346	0.8431	0.082
Mof_H 	H 	0.1212	0.6518	0.817	-0.009
Mof_C 	C 	0.1216	0.5678	0.8607	-0.194
Mof_H 	H 	0.0941	0.5381	0.8468	0.086
Mof_C 	C 	0.1459	0.5432	0.8991	0.163
Mof_C 	C 	0.1299	0.4702	0.9198	-0.27
Mof_H 	H 	0.1384	0.4822	0.9485	0.09
Mof_H 	H 	0.0956	0.4648	0.9098	0.097
Mof_C 	C 	0.1524	0.3871	0.9127	0.079
Mof_H 	H 	0.1863	0.3962	0.9187	0.006
Mof_H 	H 	0.1401	0.3715	0.8844	0.001
Mof_C 	C 	0.1693	0.3069	0.9739	0.233
Mof_C 	C 	0.1602	0.2276	0.9951	-0.076
Mof_C 	C 	0.1238	0.1726	0.9787	0.01
Mof_H 	H 	0.1013	0.1881	0.9547	0.004
Mof_C 	C 	0.3286	0.0344	0.2737	0.083
Mof_H 	H 	0.3237	0.9849	0.2878	-0.022
Mof_C 	C 	0.37	0.0781	0.2869	-0.162
Mof_H 	H 	0.3937	0.0585	0.3094	0.074
Mof_C 	C 	0.3765	0.1496	0.2671	0.085
Mof_H 	H 	0.4049	0.181	0.2758	-0.006
Mof_C 	C 	0.3413	0.1769	0.2338	-0.196
Mof_H 	H 	0.3453	0.2271	0.2198	0.092
Mof_C 	C 	0.301	0.1302	0.2216	0.16
Mof_C 	C 	0.2635	0.1542	0.1851	-0.256
Mof_H 	H 	0.2358	0.1177	0.1825	0.074
Mof_H 	H 	0.2544	0.2152	0.1867	0.097
Mof_C 	C 	0.2808	0.1418	0.1492	0.071
Mof_H 	H 	0.2916	0.0816	0.1487	0.018
Mof_H 	H 	0.3077	0.1803	0.1515	0.009
Mof_C 	C 	0.2225	0.0993	0.0874	0.227
Mof_C 	C 	0.1883	0.1293	0.0495	-0.083
Mof_C 	C 	0.1921	0.2067	0.0308	0.009
Mof_H 	H 	0.2169	0.2453	0.0426	0.044
Mof_C 	C 	0.9044	0.7844	0.9134	0.103
Mof_H 	H 	0.9034	0.7263	0.9216	-0.003
Mof_C 	C 	0.8722	0.8116	0.8804	-0.187
Mof_H 	H 	0.8491	0.7727	0.8658	0.089
Mof_C 	C 	0.8725	0.894	0.8678	0.125
Mof_H 	H 	0.8498	0.9136	0.8447	-0.036
Mof_C 	C 	0.9064	0.9484	0.8895	-0.216
Mof_H 	H 	0.9074	0.0066	0.8814	0.098
Mof_C 	C 	0.9391	0.9188	0.9231	0.178
Mof_C 	C 	0.9781	0.976	0.9458	-0.266
Mof_H 	H 	0.9654	0.0333	0.9493	0.101
Mof_H 	H 	0.9923	0.951	0.9723	0.084
Mof_C 	C 	0.0153	0.9869	0.9252	0.073
Mof_H 	H 	0.0004	0.0051	0.8976	0.002
Mof_H 	H 	0.0305	0.9305	0.9246	0.007
Mof_C 	C 	0.0817	0.0303	0.9782	0.219
Mof_C 	C 	0.1196	0.0953	0.9965	-0.084
Mof_C 	C 	0.1526	0.0734	0.0318	0.01
Mof_H 	H 	0.1506	0.0195	0.0439	0.041
Mof_C 	C 	0.0793	0.808	0.0544	0.075
Mof_H 	H 	0.0828	0.8464	0.0346	0.003
Mof_C 	C 	0.1156	0.8	0.0886	-0.153
Mof_H 	H 	0.1429	0.834	0.0929	0.087
Mof_C 	C 	0.1113	0.7425	0.1162	0.087
Mof_H 	H 	0.1361	0.734	0.1397	-0.004
Mof_C 	C 	0.07	0.6958	0.1095	-0.198
Mof_H 	H 	0.0663	0.656	0.1287	0.088
Mof_C 	C 	0.0349	0.7072	0.0754	0.165
Mof_C 	C 	0.9908	0.6551	0.0654	-0.275
Mof_H 	H 	0.9856	0.6326	0.0898	0.098
Mof_H 	H 	0.964	0.6918	0.0517	0.095
Mof_C 	C 	0.9953	0.5802	0.0387	0.084
Mof_H 	H 	0.0173	0.5373	0.0546	-0
Mof_H 	H 	0.0085	0.6022	0.0181	-0.005
Mof_C 	C 	0.9197	0.5776	0.9904	0.23
Mof_C 	C 	0.8765	0.5288	0.9684	-0.083
Mof_C 	C 	0.8694	0.4425	0.975	0.003
Mof_H 	H 	0.8924	0.4114	0.9944	0.007
Mof_C 	C 	0.7891	0.9395	0.0464	0.089
Mof_H 	H 	0.7696	0.8937	0.0334	0.012
Mof_C 	C 	0.821	0.9227	0.0811	-0.151
Mof_H 	H 	0.824	0.8664	0.0921	0.084
Mof_C 	C 	0.8495	0.9891	0.1005	0.083
Mof_H 	H 	0.8723	0.9791	0.1251	-0.008
Mof_C 	C 	0.8442	0.0695	0.0837	-0.184
Mof_H 	H 	0.8636	0.1157	0.0965	0.085
Mof_C 	C 	0.8106	0.0833	0.0479	0.158
Mof_C 	C 	0.8054	0.1721	0.0295	-0.249
Mof_H 	H 	0.7727	0.1811	0.0136	0.074
Mof_H 	H 	0.8133	0.2163	0.0506	0.094
Mof_C 	C 	0.837	0.1823	0.0035	0.05
Mof_H 	H 	0.8243	0.1486	0.9789	0.018
Mof_H 	H 	0.8682	0.1593	0.0174	0.022
Mof_C 	C 	0.8185	0.3085	0.959	0.214
Mof_C 	C 	0.8287	0.4012	0.9535	-0.091
Mof_C 	C 	0.7963	0.447	0.925	0.006
Mof_H 	H 	0.7682	0.4195	0.9105	0.031
Mof_C 	C 	0.6322	0.5921	0.6959	0.089
Mof_H 	H 	0.643	0.6004	0.6736	-0.021
Mof_C 	C 	0.5883	0.6186	0.6937	-0.164
Mof_H 	H 	0.5686	0.6433	0.6702	0.078
Mof_C 	C 	0.573	0.6084	0.7271	0.088
Mof_H 	H 	0.5431	0.6281	0.7271	-0.009
Mof_C 	C 	0.6017	0.5701	0.7595	-0.198
Mof_H 	H 	0.5917	0.5616	0.7822	0.088
Mof_C 	C 	0.6458	0.543	0.7595	0.159
Mof_C 	C 	0.6788	0.5035	0.7958	-0.263
Mof_H 	H 	0.6609	0.4739	0.8114	0.096
Mof_H 	H 	0.6985	0.4601	0.7879	0.07
Mof_C 	C 	0.7094	0.5733	0.8208	0.068
Mof_H 	H 	0.6899	0.6136	0.8307	0.016
Mof_H 	H 	0.7249	0.6065	0.8044	-0.007
Mof_C 	C 	0.7698	0.5814	0.8843	0.226
Mof_C 	C 	0.8036	0.5323	0.917	-0.077
Mof_C 	C 	0.8437	0.5732	0.9396	0.012
Mof_H 	H 	0.8484	0.6325	0.9353	0.046
Mof_Ag	Ag	0.73177	0.03669	0.97328	0.623
Mof_Ag	Ag	0.48649	0.28357	0.98981	0.582
Mof_Ag	Ag	0.22943	0.01125	0.72763	0.515
Mof_O 	O 	0.6997	0.8597	0.99023	-0.269
Mof_O 	O 	0.729	0.5218	0.09366	-0.271
Mof_O 	O 	0.58164	0.4608	0.99504	-0.264
Mof_O 	O 	0.4255	0.1529	0.9812	-0.291
Mof_O 	O 	0.2904	0.7683	0.93245	-0.251
Mof_O 	O 	0.2657	0.1602	0.88549	-0.257
Mof_N 	N 	0.6859	0.0816	0.91865	-0.223
Mof_N 	N 	0.6441	0.816	0.93648	-0.235
Mof_H 	H 	0.622	0.7785	0.9259	0.116
Mof_N 	N 	0.7945	0.5596	0.2414	-0.222
Mof_N 	N 	0.7451	0.6601	0.1123	-0.239
Mof_H 	H 	0.7379	0.7143	0.1061	0.153
Mof_N 	N 	0.4379	0.3374	0.93534	-0.22
Mof_N 	N 	0.5506	0.5501	0.94445	-0.236
Mof_H 	H 	0.5511	0.6011	0.9337	0.109
Mof_N 	N 	0.5392	0.2642	0.04765	-0.218
Mof_N 	N 	0.4515	0.0381	0.01993	-0.235
Mof_H 	H 	0.4457	0.9866	0.0279	0.11
Mof_N 	N 	0.2833	0.5185	0.02892	-0.22
Mof_N 	N 	0.3408	0.7732	0.9936	-0.228
Mof_H 	H 	0.359	0.8066	0.0118	0.103
Mof_N 	N 	0.1609	0.0548	0.72815	-0.223
Mof_N 	N 	0.2443	0.0344	0.8539	-0.232
Mof_H 	H 	0.2487	0.9783	0.854	0.118
Mof_C 	C 	0.7013	0.1471	0.9009	0.077
Mof_H 	H 	0.7297	0.1744	0.9146	0.005
Mof_C 	C 	0.6776	0.1764	0.8637	-0.153
Mof_H 	H 	0.6888	0.2244	0.8525	0.073
Mof_C 	C 	0.6376	0.1346	0.8431	0.082
Mof_H 	H 	0.6212	0.1518	0.817	-0.009
Mof_C 	C 	0.6216	0.0678	0.8607	-0.194
Mof_H 	H 	0.5941	0.0381	0.8468	0.086
Mof_C 	C 	0.6459	0.0432	0.8991	0.162
Mof_C 	C 	0.6299	0.9702	0.9198	-0.269
Mof_H 	H 	0.6384	0.9822	0.9485	0.09
Mof_H 	H 	0.5956	0.9648	0.9098	0.097
Mof_C 	C 	0.6524	0.8871	0.9127	0.078
Mof_H 	H 	0.6863	0.8962	0.9187	0.007
Mof_H 	H 	0.6401	0.8715	0.8844	0.002
Mof_C 	C 	0.6693	0.8069	0.9739	0.232
Mof_C 	C 	0.6602	0.7276	0.9951	-0.075
Mof_C 	C 	0.6238	0.6726	0.9787	0.009
Mof_H 	H 	0.6013	0.6881	0.9547	0.004
Mof_C 	C 	0.8286	0.5344	0.2737	0.082
Mof_H 	H 	0.8237	0.4849	0.2878	-0.022
Mof_C 	C 	0.87	0.5781	0.2869	-0.161
Mof_H 	H 	0.8937	0.5585	0.3094	0.074
Mof_C 	C 	0.8765	0.6496	0.2671	0.085
Mof_H 	H 	0.9049	0.681	0.2758	-0.005
Mof_C 	C 	0.8413	0.6769	0.2338	-0.196
Mof_H 	H 	0.8453	0.7271	0.2198	0.092
Mof_C 	C 	0.801	0.6302	0.2216	0.16
Mof_C 	C 	0.7635	0.6542	0.1851	-0.256
Mof_H 	H 	0.7358	0.6177	0.1825	0.074
Mof_H 	H 	0.7544	0.7152	0.1867	0.097
Mof_C 	C 	0.7808	0.6418	0.1492	0.071
Mof_H 	H 	0.7916	0.5816	0.1487	0.018
Mof_H 	H 	0.8077	0.6803	0.1515	0.009
Mof_C 	C 	0.7225	0.5993	0.0874	0.227
Mof_C 	C 	0.6883	0.6293	0.0495	-0.083
Mof_C 	C 	0.6921	0.7067	0.0308	0.008
Mof_H 	H 	0.7169	0.7453	0.0426	0.044
Mof_C 	C 	0.4044	0.2844	0.9134	0.103
Mof_H 	H 	0.4034	0.2263	0.9216	-0.003
Mof_C 	C 	0.3722	0.3116	0.8804	-0.188
Mof_H 	H 	0.3491	0.2727	0.8658	0.089
Mof_C 	C 	0.3725	0.394	0.8678	0.127
Mof_H 	H 	0.3498	0.4136	0.8447	-0.036
Mof_C 	C 	0.4064	0.4484	0.8895	-0.218
Mof_H 	H 	0.4074	0.5066	0.8814	0.099
Mof_C 	C 	0.4391	0.4188	0.9231	0.179
Mof_C 	C 	0.4781	0.476	0.9458	-0.266
Mof_H 	H 	0.4654	0.5333	0.9493	0.102
Mof_H 	H 	0.4923	0.451	0.9723	0.085
Mof_C 	C 	0.5153	0.4869	0.9252	0.071
Mof_H 	H 	0.5004	0.5051	0.8976	0.003
Mof_H 	H 	0.5305	0.4305	0.9246	0.008
Mof_C 	C 	0.5817	0.5303	0.9782	0.22
Mof_C 	C 	0.6196	0.5953	0.9965	-0.084
Mof_C 	C 	0.6526	0.5734	0.0318	0.008
Mof_H 	H 	0.6506	0.5195	0.0439	0.041
Mof_C 	C 	0.5793	0.308	0.0544	0.075
Mof_H 	H 	0.5828	0.3464	0.0346	0.004
Mof_C 	C 	0.6156	0.3	0.0886	-0.152
Mof_H 	H 	0.6429	0.334	0.0929	0.087
Mof_C 	C 	0.6113	0.2425	0.1162	0.087
Mof_H 	H 	0.6361	0.234	0.1397	-0.004
Mof_C 	C 	0.57	0.1958	0.1095	-0.198
Mof_H 	H 	0.5663	0.156	0.1287	0.088
Mof_C 	C 	0.5349	0.2072	0.0754	0.165
Mof_C 	C 	0.4908	0.1551	0.0654	-0.275
Mof_H 	H 	0.4856	0.1326	0.0898	0.098
Mof_H 	H 	0.464	0.1918	0.0517	0.095
Mof_C 	C 	0.4953	0.0802	0.0387	0.083
Mof_H 	H 	0.5173	0.0373	0.0546	0.001
Mof_H 	H 	0.5085	0.1022	0.0181	-0.005
Mof_C 	C 	0.4197	0.0776	0.9904	0.229
Mof_C 	C 	0.3765	0.0288	0.9684	-0.084
Mof_C 	C 	0.3694	0.9425	0.975	0.005
Mof_H 	H 	0.3924	0.9114	0.9944	0.007
Mof_C 	C 	0.2891	0.4395	0.0464	0.09
Mof_H 	H 	0.2696	0.3937	0.0334	0.012
Mof_C 	C 	0.321	0.4227	0.0811	-0.152
Mof_H 	H 	0.324	0.3664	0.0921	0.084
Mof_C 	C 	0.3495	0.4891	0.1005	0.085
Mof_H 	H 	0.3723	0.4791	0.1251	-0.008
Mof_C 	C 	0.3442	0.5695	0.0837	-0.186
Mof_H 	H 	0.3636	0.6157	0.0965	0.086
Mof_C 	C 	0.3106	0.5833	0.0479	0.158
Mof_C 	C 	0.3054	0.6721	0.0295	-0.247
Mof_H 	H 	0.2727	0.6811	0.0136	0.074
Mof_H 	H 	0.3133	0.7163	0.0506	0.094
Mof_C 	C 	0.337	0.6823	0.0035	0.047
Mof_H 	H 	0.3243	0.6486	0.9789	0.019
Mof_H 	H 	0.3682	0.6593	0.0174	0.022
Mof_C 	C 	0.3185	0.8085	0.959	0.214
Mof_C 	C 	0.3287	0.9012	0.9535	-0.091
Mof_C 	C 	0.2963	0.947	0.925	0.007
Mof_H 	H 	0.2682	0.9195	0.9105	0.03
Mof_C 	C 	0.1322	0.0921	0.6959	0.089
Mof_H 	H 	0.143	0.1004	0.6736	-0.021
Mof_C 	C 	0.0883	0.1186	0.6937	-0.164
Mof_H 	H 	0.0686	0.1433	0.6702	0.078
Mof_C 	C 	0.073	0.1084	0.7271	0.089
Mof_H 	H 	0.0431	0.1281	0.7271	-0.009
Mof_C 	C 	0.1017	0.0701	0.7595	-0.199
Mof_H 	H 	0.0917	0.0616	0.7822	0.089
Mof_C 	C 	0.1458	0.043	0.7595	0.16
Mof_C 	C 	0.1788	0.0035	0.7958	-0.265
Mof_H 	H 	0.1609	0.9739	0.8114	0.098
Mof_H 	H 	0.1985	0.9601	0.7879	0.071
Mof_C 	C 	0.2094	0.0733	0.8208	0.069
Mof_H 	H 	0.1899	0.1136	0.8307	0.015
Mof_H 	H 	0.2249	0.1065	0.8044	-0.007
Mof_C 	C 	0.2698	0.0814	0.8843	0.227
Mof_C 	C 	0.3036	0.0323	0.917	-0.079
Mof_C 	C 	0.3437	0.0732	0.9396	0.013
Mof_H 	H 	0.3484	0.1325	0.9353	0.046
_end
