data_functionalizedCrystal
_audit_creation_method	'EQeq! by Chris Wilmer'
_symmetry_space_group_name_H-M	'P1'
_symmetry_Int_Tables_number	1
_symmetry_cell_setting	triclinic
loop_
_symmetry_equiv_pos_as_xyz
  x,y,z
_cell_length_a	15.749
_cell_length_b	16.425
_cell_length_c	15.725
_cell_angle_alpha	90
_cell_angle_beta	90
_cell_angle_gamma	90
loop_
_atom_site_label
_atom_site_type_symbol
_atom_site_fract_x
_atom_site_fract_y
_atom_site_fract_z
_atom_site_charge
Mof_Zn	Zn	0.3741	0.0366	0.135	1.216
Mof_O 	O 	0.374	0.9131	0.142	-0.474
Mof_O 	O 	0.26	0.542	0.136	-0.373
Mof_O 	O 	0.198	0.663	0.144	-0.331
Mof_O 	O 	0.512	0.903	0.137	-0.509
Mof_O 	O 	0.57	0.599	0.166	-0.179
Mof_N 	N 	0.377	0.04	0.271	-0.232
Mof_N 	N 	0.384	0.044	0.996	-0.253
Mof_C 	C 	0.435	0.781	0.131	-0.093
Mof_C 	C 	0.441	0.873	0.137	0.421
Mof_C 	C 	0.39	0.05	0.818	0.116
Mof_C 	C 	0.369	0.975	0.323	0.103
Mof_H 	H 	0.3666	0.9246	0.2958	0
Mof_C 	C 	0.508	0.736	0.15	-0.056
Mof_H 	H 	0.5553	0.7556	0.1786	0.066
Mof_C 	C 	0.365	0.973	0.407	-0.161
Mof_H 	H 	0.3522	0.9244	0.4346	0.092
Mof_C 	C 	0.265	0.619	0.123	0.228
Mof_C 	C 	0.35	0.66	0.121	-0.023
Mof_C 	C 	0.5	0.65	0.116	0.096
Mof_C 	C 	0.413	0.109	0.875	-0.223
Mof_H 	H 	0.4321	0.1572	0.8516	0.109
Mof_C 	C 	0.389	0.048	0.726	-0.036
Mof_C 	C 	0.422	0.613	0.132	-0.099
Mof_H 	H 	0.4178	0.5589	0.1482	0.102
Mof_C 	C 	0.355	0.743	0.125	-0.016
Mof_H 	H 	0.3058	0.7741	0.123	0.051
Mof_C 	C 	0.392	0.111	0.317	0.069
Mof_H 	H 	0.4008	0.1595	0.2868	0.01
Mof_C 	C 	0.41	0.105	0.956	0.189
Mof_H 	H 	0.4293	0.1499	0.9867	-0.025
Mof_C 	C 	0.364	0.995	0.877	-0.138
Mof_H 	H 	0.3542	0.9453	0.8502	0.078
Mof_C 	C 	0.394	0.114	0.408	-0.139
Mof_H 	H 	0.4031	0.1625	0.4361	0.085
Mof_C 	C 	0.381	0.044	0.454	0.087
Mof_C 	C 	0.696	0.69	0.432	-0.004
Mof_C 	C 	0.69	0.696	0.343	-0.002
Mof_C 	C 	0.778	0.719	0.325	-0.045
Mof_H 	H 	0.7891	0.7181	0.267	0.06
Mof_C 	C 	0.632	0.644	0.491	0.034
Mof_C 	C 	0.856	0.743	0.376	-0.067
Mof_H 	H 	0.9037	0.7667	0.3506	0.061
Mof_C 	C 	0.852	0.727	0.468	0.048
Mof_C 	C 	0.644	0.641	0.304	0.016
Mof_C 	C 	0.648	0.632	0.198	-0.034
Mof_H 	H 	0.6584	0.6851	0.1733	0.057
Mof_H 	H 	0.6954	0.5967	0.1828	0.067
Mof_C 	C 	0.581	0.612	0.431	-0.07
Mof_H 	H 	0.5395	0.5824	0.4594	0.053
Mof_C 	C 	0.565	0.604	0.352	-0.045
Mof_H 	H 	0.5171	0.5814	0.3276	0.058
Mof_C 	C 	0.761	0.714	0.494	-0.026
Mof_C 	C 	0.679	0.674	0.615	-0.061
Mof_H 	H 	0.6807	0.6642	0.6732	0.053
Mof_C 	C 	0.842	0.734	0.62	-0.097
Mof_H 	H 	0.8531	0.7195	0.6759	0.064
Mof_C 	C 	0.92	0.784	0.48	-0.115
Mof_H 	H 	0.9495	0.8182	0.4474	0.077
Mof_C 	C 	0.605	0.636	0.576	-0.077
Mof_H 	H 	0.556	0.6145	0.599	0.055
Mof_C 	C 	0.754	0.723	0.59	0.031
Mof_C 	C 	0.911	0.766	0.568	0.008
Mof_H 	H 	0.9611	0.7755	0.5984	0.028
Mof_C 	C 	0.35	0.992	0.586	-0.061
Mof_H 	H 	0.3288	0.9479	0.5563	0.055
Mof_C 	C 	0.42	0.109	0.688	-0.025
Mof_H 	H 	0.4467	0.1503	0.7182	0.036
Mof_C 	C 	0.351	0.987	0.677	-0.024
Mof_H 	H 	0.3259	0.9422	0.7031	0.037
Mof_C 	C 	0.413	0.113	0.598	-0.055
Mof_H 	H 	0.4339	0.1591	0.5706	0.051
Mof_C 	C 	0.374	0.047	0.545	0.003
Mof_C 	C 	0.345	0.986	0.964	0.097
Mof_H 	H 	0.3121	0.946	0.99	-0.001
Mof_Zn	Zn	0.6259	0.9634	0.135	1.217
Mof_O 	O 	0.626	0.0869	0.142	-0.473
Mof_O 	O 	0.74	0.458	0.136	-0.372
Mof_O 	O 	0.802	0.337	0.144	-0.329
Mof_O 	O 	0.488	0.097	0.137	-0.508
Mof_O 	O 	0.43	0.401	0.166	-0.178
Mof_N 	N 	0.623	0.96	0.271	-0.231
Mof_N 	N 	0.616	0.956	0.996	-0.253
Mof_C 	C 	0.565	0.219	0.131	-0.093
Mof_C 	C 	0.559	0.127	0.137	0.421
Mof_C 	C 	0.61	0.95	0.818	0.117
Mof_C 	C 	0.631	0.025	0.323	0.103
Mof_H 	H 	0.6334	0.0754	0.2958	0
Mof_C 	C 	0.492	0.264	0.15	-0.056
Mof_H 	H 	0.4447	0.2444	0.1786	0.066
Mof_C 	C 	0.635	0.027	0.407	-0.161
Mof_H 	H 	0.6478	0.0756	0.4346	0.092
Mof_C 	C 	0.735	0.381	0.123	0.228
Mof_C 	C 	0.65	0.34	0.121	-0.023
Mof_C 	C 	0.5	0.35	0.116	0.096
Mof_C 	C 	0.587	0.891	0.875	-0.223
Mof_H 	H 	0.5679	0.8428	0.8516	0.11
Mof_C 	C 	0.611	0.952	0.726	-0.036
Mof_C 	C 	0.578	0.387	0.132	-0.099
Mof_H 	H 	0.5822	0.4411	0.1482	0.102
Mof_C 	C 	0.645	0.257	0.125	-0.016
Mof_H 	H 	0.6942	0.2259	0.123	0.051
Mof_C 	C 	0.608	0.889	0.317	0.069
Mof_H 	H 	0.5992	0.8405	0.2868	0.01
Mof_C 	C 	0.59	0.895	0.956	0.189
Mof_H 	H 	0.5707	0.8501	0.9867	-0.026
Mof_C 	C 	0.636	0.005	0.877	-0.138
Mof_H 	H 	0.6458	0.0547	0.8502	0.078
Mof_C 	C 	0.606	0.886	0.408	-0.139
Mof_H 	H 	0.5969	0.8375	0.4361	0.085
Mof_C 	C 	0.619	0.956	0.454	0.087
Mof_C 	C 	0.304	0.31	0.432	-0.004
Mof_C 	C 	0.31	0.304	0.343	-0.002
Mof_C 	C 	0.222	0.281	0.325	-0.046
Mof_H 	H 	0.2109	0.2819	0.267	0.06
Mof_C 	C 	0.368	0.356	0.491	0.035
Mof_C 	C 	0.144	0.257	0.376	-0.067
Mof_H 	H 	0.0963	0.2333	0.3506	0.058
Mof_C 	C 	0.148	0.273	0.468	0.047
Mof_C 	C 	0.356	0.359	0.304	0.016
Mof_C 	C 	0.352	0.368	0.198	-0.034
Mof_H 	H 	0.3416	0.3149	0.1733	0.057
Mof_H 	H 	0.3046	0.4033	0.1828	0.067
Mof_C 	C 	0.419	0.388	0.431	-0.07
Mof_H 	H 	0.4605	0.4176	0.4594	0.053
Mof_C 	C 	0.435	0.396	0.352	-0.045
Mof_H 	H 	0.4829	0.4186	0.3276	0.058
Mof_C 	C 	0.239	0.286	0.494	-0.025
Mof_C 	C 	0.321	0.326	0.615	-0.061
Mof_H 	H 	0.3193	0.3358	0.6732	0.053
Mof_C 	C 	0.158	0.266	0.62	-0.097
Mof_H 	H 	0.1469	0.2805	0.6759	0.062
Mof_C 	C 	0.08	0.216	0.48	-0.116
Mof_H 	H 	0.0505	0.1818	0.4474	0.074
Mof_C 	C 	0.395	0.364	0.576	-0.077
Mof_H 	H 	0.444	0.3855	0.599	0.056
Mof_C 	C 	0.246	0.277	0.59	0.031
Mof_C 	C 	0.089	0.234	0.568	0.008
Mof_H 	H 	0.0389	0.2245	0.5984	0.025
Mof_C 	C 	0.65	0.008	0.586	-0.062
Mof_H 	H 	0.6712	0.0521	0.5563	0.056
Mof_C 	C 	0.58	0.891	0.688	-0.025
Mof_H 	H 	0.5533	0.8497	0.7182	0.036
Mof_C 	C 	0.649	0.013	0.677	-0.024
Mof_H 	H 	0.6741	0.0578	0.7031	0.037
Mof_C 	C 	0.587	0.887	0.598	-0.055
Mof_H 	H 	0.5661	0.8409	0.5706	0.051
Mof_C 	C 	0.626	0.953	0.545	0.003
Mof_C 	C 	0.655	0.014	0.964	0.097
Mof_H 	H 	0.6879	0.054	0.99	-0.001
Mof_Zn	Zn	0.8741	0.4634	0.135	1.217
Mof_O 	O 	0.874	0.5869	0.142	-0.474
Mof_O 	O 	0.76	0.958	0.136	-0.372
Mof_O 	O 	0.698	0.837	0.144	-0.33
Mof_O 	O 	0.012	0.597	0.137	-0.513
Mof_O 	O 	0.07	0.901	0.166	-0.178
Mof_N 	N 	0.877	0.46	0.271	-0.23
Mof_N 	N 	0.884	0.456	0.996	-0.253
Mof_C 	C 	0.935	0.719	0.131	-0.089
Mof_C 	C 	0.941	0.627	0.137	0.427
Mof_C 	C 	0.89	0.45	0.818	0.118
Mof_C 	C 	0.869	0.525	0.323	0.104
Mof_H 	H 	0.8666	0.5754	0.2958	0.001
Mof_C 	C 	0.008	0.764	0.15	-0.06
Mof_H 	H 	0.0553	0.7444	0.1786	0.067
Mof_C 	C 	0.865	0.527	0.407	-0.161
Mof_H 	H 	0.8522	0.5756	0.4346	0.092
Mof_C 	C 	0.765	0.881	0.123	0.229
Mof_C 	C 	0.85	0.84	0.121	-0.024
Mof_C 	C 	1.98573e-33	0.85	0.116	0.092
Mof_C 	C 	0.913	0.391	0.875	-0.224
Mof_H 	H 	0.9321	0.3428	0.8516	0.111
Mof_C 	C 	0.889	0.452	0.726	-0.036
Mof_C 	C 	0.922	0.887	0.132	-0.092
Mof_H 	H 	0.9178	0.9411	0.1482	0.101
Mof_C 	C 	0.855	0.757	0.125	-0.015
Mof_H 	H 	0.8058	0.7259	0.123	0.051
Mof_C 	C 	0.892	0.389	0.317	0.07
Mof_H 	H 	0.9008	0.3405	0.2868	0.01
Mof_C 	C 	0.91	0.395	0.956	0.19
Mof_H 	H 	0.9293	0.3501	0.9867	-0.025
Mof_C 	C 	0.864	0.505	0.877	-0.139
Mof_H 	H 	0.8542	0.5547	0.8502	0.078
Mof_C 	C 	0.894	0.386	0.408	-0.138
Mof_H 	H 	0.9031	0.3375	0.4361	0.086
Mof_C 	C 	0.881	0.456	0.454	0.087
Mof_C 	C 	0.196	0.81	0.432	-0.004
Mof_C 	C 	0.19	0.804	0.343	-0.002
Mof_C 	C 	0.278	0.781	0.325	-0.045
Mof_H 	H 	0.2891	0.7819	0.267	0.06
Mof_C 	C 	0.132	0.856	0.491	0.034
Mof_C 	C 	0.356	0.757	0.376	-0.067
Mof_H 	H 	0.4037	0.7333	0.3506	0.06
Mof_C 	C 	0.352	0.773	0.468	0.048
Mof_C 	C 	0.144	0.859	0.304	0.015
Mof_C 	C 	0.148	0.868	0.198	-0.034
Mof_H 	H 	0.1584	0.8149	0.1733	0.057
Mof_H 	H 	0.1954	0.9033	0.1828	0.067
Mof_C 	C 	0.081	0.888	0.431	-0.07
Mof_H 	H 	0.0395	0.9176	0.4594	0.051
Mof_C 	C 	0.065	0.896	0.352	-0.045
Mof_H 	H 	0.0171	0.9186	0.3276	0.057
Mof_C 	C 	0.261	0.786	0.494	-0.025
Mof_C 	C 	0.179	0.826	0.615	-0.062
Mof_H 	H 	0.1807	0.8358	0.6732	0.053
Mof_C 	C 	0.342	0.766	0.62	-0.097
Mof_H 	H 	0.3531	0.7805	0.6759	0.063
Mof_C 	C 	0.42	0.716	0.48	-0.116
Mof_H 	H 	0.4495	0.6818	0.4474	0.076
Mof_C 	C 	0.105	0.864	0.576	-0.077
Mof_H 	H 	0.056	0.8855	0.599	0.054
Mof_C 	C 	0.254	0.777	0.59	0.031
Mof_C 	C 	0.411	0.734	0.568	0.008
Mof_H 	H 	0.4611	0.7245	0.5984	0.027
Mof_C 	C 	0.85	0.508	0.586	-0.063
Mof_H 	H 	0.8288	0.5521	0.5563	0.056
Mof_C 	C 	0.92	0.391	0.688	-0.024
Mof_H 	H 	0.9467	0.3497	0.7182	0.037
Mof_C 	C 	0.851	0.513	0.677	-0.023
Mof_H 	H 	0.8259	0.5578	0.7031	0.037
Mof_C 	C 	0.913	0.387	0.598	-0.055
Mof_H 	H 	0.9339	0.3409	0.5706	0.052
Mof_C 	C 	0.874	0.453	0.545	0.004
Mof_C 	C 	0.845	0.514	0.964	0.098
Mof_H 	H 	0.8121	0.554	0.99	-0.001
Mof_Zn	Zn	0.1259	0.5366	0.135	1.217
Mof_O 	O 	0.126	0.4131	0.142	-0.473
Mof_O 	O 	0.24	0.042	0.136	-0.373
Mof_O 	O 	0.302	0.163	0.144	-0.33
Mof_O 	O 	0.988	0.403	0.137	-0.503
Mof_O 	O 	0.93	0.099	0.166	-0.172
Mof_N 	N 	0.123	0.54	0.271	-0.231
Mof_N 	N 	0.116	0.544	0.996	-0.253
Mof_C 	C 	0.065	0.281	0.131	-0.103
Mof_C 	C 	0.059	0.373	0.137	0.418
Mof_C 	C 	0.11	0.55	0.818	0.116
Mof_C 	C 	0.131	0.475	0.323	0.102
Mof_H 	H 	0.1334	0.4246	0.2958	0
Mof_C 	C 	0.992	0.236	0.15	-0.038
Mof_H 	H 	0.9447	0.2556	0.1786	0.06
Mof_C 	C 	0.135	0.473	0.407	-0.161
Mof_H 	H 	0.1478	0.4244	0.4346	0.091
Mof_C 	C 	0.235	0.119	0.123	0.23
Mof_C 	C 	0.15	0.16	0.121	-0.029
Mof_C 	C 	-1.1172e-33	0.15	0.116	0.083
Mof_C 	C 	0.087	0.609	0.875	-0.224
Mof_H 	H 	0.0679	0.6572	0.8516	0.109
Mof_C 	C 	0.111	0.548	0.726	-0.037
Mof_C 	C 	0.078	0.113	0.132	-0.091
Mof_H 	H 	0.0822	0.0589	0.1482	0.098
Mof_C 	C 	0.145	0.243	0.125	-0.009
Mof_H 	H 	0.1942	0.2741	0.123	0.049
Mof_C 	C 	0.108	0.611	0.317	0.069
Mof_H 	H 	0.0992	0.6595	0.2868	0.009
Mof_C 	C 	0.09	0.605	0.956	0.188
Mof_H 	H 	0.0707	0.6499	0.9867	-0.026
Mof_C 	C 	0.136	0.495	0.877	-0.139
Mof_H 	H 	0.1458	0.4453	0.8502	0.077
Mof_C 	C 	0.106	0.614	0.408	-0.139
Mof_H 	H 	0.0969	0.6625	0.4361	0.084
Mof_C 	C 	0.119	0.544	0.454	0.086
Mof_C 	C 	0.804	0.19	0.432	-0.004
Mof_C 	C 	0.81	0.196	0.343	-0.002
Mof_C 	C 	0.722	0.219	0.325	-0.045
Mof_H 	H 	0.7109	0.2181	0.267	0.06
Mof_C 	C 	0.868	0.144	0.491	0.035
Mof_C 	C 	0.644	0.243	0.376	-0.067
Mof_H 	H 	0.5963	0.2667	0.3506	0.06
Mof_C 	C 	0.648	0.227	0.468	0.048
Mof_C 	C 	0.856	0.141	0.304	0.017
Mof_C 	C 	0.852	0.132	0.198	-0.036
Mof_H 	H 	0.8416	0.1851	0.1733	0.058
Mof_H 	H 	0.8046	0.0967	0.1828	0.067
Mof_C 	C 	0.919	0.112	0.431	-0.069
Mof_H 	H 	0.9605	0.0824	0.4594	0.054
Mof_C 	C 	0.935	0.104	0.352	-0.044
Mof_H 	H 	0.9829	0.0814	0.3276	0.06
Mof_C 	C 	0.739	0.214	0.494	-0.025
Mof_C 	C 	0.821	0.174	0.615	-0.061
Mof_H 	H 	0.8193	0.1642	0.6732	0.053
Mof_C 	C 	0.658	0.234	0.62	-0.097
Mof_H 	H 	0.6469	0.2195	0.6759	0.063
Mof_C 	C 	0.58	0.284	0.48	-0.116
Mof_H 	H 	0.5505	0.3182	0.4474	0.076
Mof_C 	C 	0.895	0.136	0.576	-0.077
Mof_H 	H 	0.944	0.1145	0.599	0.057
Mof_C 	C 	0.746	0.223	0.59	0.031
Mof_C 	C 	0.589	0.266	0.568	0.008
Mof_H 	H 	0.5389	0.2755	0.5984	0.027
Mof_C 	C 	0.15	0.492	0.586	-0.064
Mof_H 	H 	0.1712	0.4479	0.5563	0.056
Mof_C 	C 	0.08	0.609	0.688	-0.025
Mof_H 	H 	0.0533	0.6503	0.7182	0.035
Mof_C 	C 	0.149	0.487	0.677	-0.024
Mof_H 	H 	0.1741	0.4422	0.7031	0.036
Mof_C 	C 	0.087	0.613	0.598	-0.056
Mof_H 	H 	0.0661	0.6591	0.5706	0.05
Mof_C 	C 	0.126	0.547	0.545	0.004
Mof_C 	C 	0.155	0.486	0.964	0.096
Mof_H 	H 	0.1879	0.446	0.99	-0.001
_end
