data_functionalizedCrystal
_audit_creation_method	'EQeq! by Chris Wilmer'
_symmetry_space_group_name_H-M	'P1'
_symmetry_Int_Tables_number	1
_symmetry_cell_setting	triclinic
loop_
_symmetry_equiv_pos_as_xyz
  x,y,z
_cell_length_a	13.9017
_cell_length_b	13.9017
_cell_length_c	13.9017
_cell_angle_alpha	108.017
_cell_angle_beta	108.017
_cell_angle_gamma	108.017
loop_
_atom_site_label
_atom_site_type_symbol
_atom_site_fract_x
_atom_site_fract_y
_atom_site_fract_z
_atom_site_charge
Mof_Cd	Cd	0.96475	0.47813	0.61612	0.426
Mof_Cd	Cd	0.61612	0.96475	0.47813	0.426
Mof_Cd	Cd	0.47813	0.61612	0.96475	0.426
Mof_Cd	Cd	0.03525	0.52187	0.38388	0.426
Mof_Cd	Cd	0.38388	0.03525	0.52187	0.426
Mof_Cd	Cd	0.52187	0.38388	0.03525	0.426
Mof_H 	H 	0.7114	0.4693	0.4142	0.033
Mof_H 	H 	0.574	0.1436	0.2596	0.029
Mof_H 	H 	0.7252	0.1082	0.385	0.099
Mof_H 	H 	0.8428	0.2035	0.4178	0.115
Mof_H 	H 	0.0231	0.4556	0.8692	0.057
Mof_H 	H 	0.0051	0.3988	0.0049	0.046
Mof_H 	H 	0.877	0.219	0.954	0.037
Mof_H 	H 	0.7602	0.0913	0.7668	0.09
Mof_H 	H 	0.4142	0.7114	0.4693	0.033
Mof_H 	H 	0.2596	0.574	0.1436	0.029
Mof_H 	H 	0.385	0.7252	0.1082	0.099
Mof_H 	H 	0.4178	0.8428	0.2035	0.115
Mof_H 	H 	0.8692	0.0231	0.4556	0.057
Mof_H 	H 	0.0049	0.0051	0.3988	0.046
Mof_H 	H 	0.954	0.877	0.219	0.037
Mof_H 	H 	0.7668	0.7602	0.0913	0.09
Mof_H 	H 	0.4693	0.4142	0.7114	0.033
Mof_H 	H 	0.1436	0.2596	0.574	0.029
Mof_H 	H 	0.1082	0.385	0.7252	0.099
Mof_H 	H 	0.2035	0.4178	0.8428	0.115
Mof_H 	H 	0.4556	0.8692	0.0231	0.057
Mof_H 	H 	0.3988	0.0049	0.0051	0.046
Mof_H 	H 	0.219	0.954	0.877	0.037
Mof_H 	H 	0.0913	0.7668	0.7602	0.09
Mof_H 	H 	0.2886	0.5307	0.5858	0.033
Mof_H 	H 	0.426	0.8564	0.7404	0.029
Mof_H 	H 	0.2748	0.8918	0.615	0.099
Mof_H 	H 	0.1572	0.7965	0.5822	0.115
Mof_H 	H 	0.9769	0.5444	0.1308	0.057
Mof_H 	H 	0.9949	0.6012	0.9951	0.046
Mof_H 	H 	0.123	0.781	0.046	0.037
Mof_H 	H 	0.2398	0.9087	0.2332	0.09
Mof_H 	H 	0.5858	0.2886	0.5307	0.033
Mof_H 	H 	0.7404	0.426	0.8564	0.029
Mof_H 	H 	0.615	0.2748	0.8918	0.099
Mof_H 	H 	0.5822	0.1572	0.7965	0.115
Mof_H 	H 	0.1308	0.9769	0.5444	0.057
Mof_H 	H 	0.9951	0.9949	0.6012	0.046
Mof_H 	H 	0.046	0.123	0.781	0.037
Mof_H 	H 	0.2332	0.2398	0.9087	0.09
Mof_H 	H 	0.5307	0.5858	0.2886	0.033
Mof_H 	H 	0.8564	0.7404	0.426	0.029
Mof_H 	H 	0.8918	0.615	0.2748	0.099
Mof_H 	H 	0.7965	0.5822	0.1572	0.115
Mof_H 	H 	0.5444	0.1308	0.9769	0.057
Mof_H 	H 	0.6012	0.9951	0.9949	0.046
Mof_H 	H 	0.781	0.046	0.123	0.037
Mof_H 	H 	0.9087	0.2332	0.2398	0.09
Mof_C 	C 	0.6993	0.395	0.3953	0.101
Mof_C 	C 	0.6233	0.2189	0.3105	0.089
Mof_C 	C 	0.7765	0.1882	0.4313	-0.183
Mof_C 	C 	0.8114	0.2154	0.5537	0.167
Mof_C 	C 	0.9007	0.3057	0.735	0.045
Mof_C 	C 	0.9707	0.3831	0.8486	-0.078
Mof_C 	C 	0.9597	0.3486	0.9286	-0.037
Mof_C 	C 	0.8819	0.2401	0.8977	-0.005
Mof_C 	C 	0.8125	0.1636	0.7868	-0.108
Mof_C 	C 	0.8228	0.1974	0.7052	0.075
Mof_C 	C 	0.3953	0.6993	0.395	0.101
Mof_C 	C 	0.3105	0.6233	0.2189	0.089
Mof_C 	C 	0.4313	0.7765	0.1882	-0.183
Mof_C 	C 	0.5537	0.8114	0.2154	0.167
Mof_C 	C 	0.735	0.9007	0.3057	0.045
Mof_C 	C 	0.8486	0.9707	0.3831	-0.078
Mof_C 	C 	0.9286	0.9597	0.3486	-0.037
Mof_C 	C 	0.8977	0.8819	0.2401	-0.005
Mof_C 	C 	0.7868	0.8125	0.1636	-0.108
Mof_C 	C 	0.7052	0.8228	0.1974	0.075
Mof_C 	C 	0.395	0.3953	0.6993	0.101
Mof_C 	C 	0.2189	0.3105	0.6233	0.089
Mof_C 	C 	0.1882	0.4313	0.7765	-0.183
Mof_C 	C 	0.2154	0.5537	0.8114	0.167
Mof_C 	C 	0.3057	0.735	0.9007	0.045
Mof_C 	C 	0.3831	0.8486	0.9707	-0.078
Mof_C 	C 	0.3486	0.9286	0.9597	-0.037
Mof_C 	C 	0.2401	0.8977	0.8819	-0.005
Mof_C 	C 	0.1636	0.7868	0.8125	-0.108
Mof_C 	C 	0.1974	0.7052	0.8228	0.075
Mof_C 	C 	0.3007	0.605	0.6047	0.101
Mof_C 	C 	0.3767	0.7811	0.6895	0.089
Mof_C 	C 	0.2235	0.8118	0.5687	-0.183
Mof_C 	C 	0.1886	0.7846	0.4463	0.167
Mof_C 	C 	0.0993	0.6943	0.265	0.045
Mof_C 	C 	0.0293	0.6169	0.1514	-0.078
Mof_C 	C 	0.0403	0.6514	0.0714	-0.037
Mof_C 	C 	0.1181	0.7599	0.1023	-0.005
Mof_C 	C 	0.1875	0.8364	0.2132	-0.108
Mof_C 	C 	0.1772	0.8026	0.2948	0.075
Mof_C 	C 	0.6047	0.3007	0.605	0.101
Mof_C 	C 	0.6895	0.3767	0.7811	0.089
Mof_C 	C 	0.5687	0.2235	0.8118	-0.183
Mof_C 	C 	0.4463	0.1886	0.7846	0.167
Mof_C 	C 	0.265	0.0993	0.6943	0.045
Mof_C 	C 	0.1514	0.0293	0.6169	-0.078
Mof_C 	C 	0.0714	0.0403	0.6514	-0.037
Mof_C 	C 	0.1023	0.1181	0.7599	-0.005
Mof_C 	C 	0.2132	0.1875	0.8364	-0.108
Mof_C 	C 	0.2948	0.1772	0.8026	0.075
Mof_C 	C 	0.605	0.6047	0.3007	0.101
Mof_C 	C 	0.7811	0.6895	0.3767	0.089
Mof_C 	C 	0.8118	0.5687	0.2235	-0.183
Mof_C 	C 	0.7846	0.4463	0.1886	0.167
Mof_C 	C 	0.6943	0.265	0.0993	0.045
Mof_C 	C 	0.6169	0.1514	0.0293	-0.078
Mof_C 	C 	0.6514	0.0714	0.0403	-0.037
Mof_C 	C 	0.7599	0.1023	0.1181	-0.005
Mof_C 	C 	0.8364	0.2132	0.1875	-0.108
Mof_C 	C 	0.8026	0.2948	0.1772	0.075
Mof_N 	N 	0.6056	0.3067	0.3064	-0.124
Mof_N 	N 	0.7728	0.369	0.4537	-0.098
Mof_N 	N 	0.721	0.254	0.3973	-0.064
Mof_N 	N 	0.8929	0.3168	0.6372	-0.16
Mof_N 	N 	0.7651	0.1395	0.5868	-0.165
Mof_N 	N 	0.3064	0.6056	0.3067	-0.124
Mof_N 	N 	0.4537	0.7728	0.369	-0.098
Mof_N 	N 	0.3973	0.721	0.254	-0.064
Mof_N 	N 	0.6372	0.8929	0.3168	-0.16
Mof_N 	N 	0.5868	0.7651	0.1395	-0.165
Mof_N 	N 	0.3067	0.3064	0.6056	-0.124
Mof_N 	N 	0.369	0.4537	0.7728	-0.098
Mof_N 	N 	0.254	0.3973	0.721	-0.064
Mof_N 	N 	0.3168	0.6372	0.8929	-0.16
Mof_N 	N 	0.1395	0.5868	0.7651	-0.165
Mof_N 	N 	0.3944	0.6933	0.6936	-0.124
Mof_N 	N 	0.2272	0.631	0.5463	-0.098
Mof_N 	N 	0.279	0.746	0.6027	-0.064
Mof_N 	N 	0.1071	0.6832	0.3628	-0.16
Mof_N 	N 	0.2349	0.8605	0.4132	-0.165
Mof_N 	N 	0.6936	0.3944	0.6933	-0.124
Mof_N 	N 	0.5463	0.2272	0.631	-0.098
Mof_N 	N 	0.6027	0.279	0.746	-0.064
Mof_N 	N 	0.3628	0.1071	0.6832	-0.16
Mof_N 	N 	0.4132	0.2349	0.8605	-0.165
Mof_N 	N 	0.6933	0.6936	0.3944	-0.124
Mof_N 	N 	0.631	0.5463	0.2272	-0.098
Mof_N 	N 	0.746	0.6027	0.279	-0.064
Mof_N 	N 	0.6832	0.3628	0.1071	-0.16
Mof_N 	N 	0.8605	0.4132	0.2349	-0.165
Mof_Cl	Cl	0.96415	0.61849	0.52538	-0.387
Mof_Cl	Cl	0.52538	0.96415	0.61849	-0.387
Mof_Cl	Cl	0.61849	0.52538	0.96415	-0.387
Mof_Cl	Cl	0.03585	0.38151	0.47462	-0.387
Mof_Cl	Cl	0.47462	0.03585	0.38151	-0.387
Mof_Cl	Cl	0.38151	0.47462	0.03585	-0.387
_end
