data_functionalizedCrystal
_audit_creation_method	'EQeq! by Chris Wilmer'
_symmetry_space_group_name_H-M	'P1'
_symmetry_Int_Tables_number	1
_symmetry_cell_setting	triclinic
loop_
_symmetry_equiv_pos_as_xyz
  x,y,z
_cell_length_a	6.5647
_cell_length_b	16.403
_cell_length_c	13.1762
_cell_angle_alpha	90
_cell_angle_beta	90
_cell_angle_gamma	90
loop_
_atom_site_label
_atom_site_type_symbol
_atom_site_fract_x
_atom_site_fract_y
_atom_site_fract_z
_atom_site_charge
Mof_O 	O 	0.169	0.16786	0.84176	-1.506
Mof_C 	C 	0.8062	0.0305	0.9607	0.026
Mof_O 	O 	0.669	0.66786	0.34176	-1.499
Mof_C 	C 	0.3062	0.5305	0.4607	0.065
Mof_O 	O 	0.831	0.33214	0.84176	-1.525
Mof_C 	C 	0.1938	0.4695	0.9607	0.053
Mof_O 	O 	0.331	0.83214	0.34176	-1.499
Mof_C 	C 	0.6938	0.9695	0.4607	0.046
Mof_O 	O 	0.831	0.66786	0.15824	-1.525
Mof_C 	C 	0.1938	0.5305	0.0393	0.053
Mof_O 	O 	0.331	0.16786	0.65824	-1.499
Mof_C 	C 	0.6938	0.0305	0.5393	0.046
Mof_O 	O 	0.169	0.83214	0.15824	-1.507
Mof_C 	C 	0.8062	0.9695	0.0393	0.025
Mof_O 	O 	0.669	0.33214	0.65824	-1.499
Mof_C 	C 	0.3062	0.4695	0.5393	0.065
Mof_O 	O 	0.831	0.83214	0.15824	-1.525
Mof_C 	C 	0.1938	0.9695	0.0393	0.053
Mof_O 	O 	0.331	0.33214	0.65824	-1.499
Mof_C 	C 	0.6938	0.4695	0.5393	0.046
Mof_O 	O 	0.169	0.66786	0.15824	-1.507
Mof_C 	C 	0.8062	0.5305	0.0393	0.025
Mof_O 	O 	0.669	0.16786	0.65824	-1.499
Mof_C 	C 	0.3062	0.0305	0.5393	0.065
Mof_O 	O 	0.169	0.33214	0.84176	-1.507
Mof_C 	C 	0.8062	0.4695	0.9607	0.025
Mof_O 	O 	0.669	0.83214	0.34176	-1.499
Mof_C 	C 	0.3062	0.9695	0.4607	0.065
Mof_O 	O 	0.831	0.16786	0.84176	-1.525
Mof_C 	C 	0.1938	0.0305	0.9607	0.053
Mof_O 	O 	0.331	0.66786	0.34176	-1.499
Mof_C 	C 	0.6938	0.5305	0.4607	0.046
Mof_Al	Al	0.25	0.25	0.75	6.317
Mof_Al	Al	0.75	0.25	0.75	6.234
Mof_Al	Al	0.75	0.75	0.25	6.234
Mof_Al	Al	0.25	0.75	0.25	6.317
Mof_F 	F 	5.19864e-33	0.25	0.6908	-2.119
Mof_F 	F 	0.5	0.75	0.1908	-2.139
Mof_F 	F 	-1.9913e-32	0.75	0.3092	-2.119
Mof_F 	F 	0.5	0.25	0.8092	-2.139
Mof_C 	C 	7.12141e-33	0.0618	0.9463	-0.235
Mof_C 	C 	-1.12326e-32	0.1379	0.8716	1.118
Mof_C 	C 	0.5	0.5618	0.4463	-0.269
Mof_C 	C 	0.5	0.6379	0.3716	1.079
Mof_C 	C 	2.49133e-32	0.4382	0.9463	-0.234
Mof_C 	C 	6.55925e-33	0.3621	0.8716	1.119
Mof_C 	C 	0.5	0.9382	0.4463	-0.269
Mof_C 	C 	0.5	0.8621	0.3716	1.079
Mof_C 	C 	-4.04385e-33	0.5618	0.0537	-0.234
Mof_C 	C 	-3.48169e-33	0.6379	0.1284	1.119
Mof_C 	C 	0.5	0.0618	0.5537	-0.269
Mof_C 	C 	0.5	0.1379	0.6284	1.079
Mof_C 	C 	-2.18357e-32	0.9382	0.0537	-0.235
Mof_C 	C 	-2.12736e-32	0.8621	0.1284	1.118
Mof_C 	C 	0.5	0.4382	0.5537	-0.269
Mof_C 	C 	0.5	0.3621	0.6284	1.079
_end
