data_functionalizedCrystal
_audit_creation_method	'EQeq! by Chris Wilmer'
_symmetry_space_group_name_H-M	'P1'
_symmetry_Int_Tables_number	1
_symmetry_cell_setting	triclinic
loop_
_symmetry_equiv_pos_as_xyz
  x,y,z
_cell_length_a	23.6965
_cell_length_b	23.6965
_cell_length_c	13.5437
_cell_angle_alpha	90
_cell_angle_beta	90
_cell_angle_gamma	120
loop_
_atom_site_label
_atom_site_type_symbol
_atom_site_fract_x
_atom_site_fract_y
_atom_site_fract_z
_atom_site_charge
Mof_Fe	Fe	0.36123	0.09308	0.11893	1.06
Mof_Ga	Ga	0.3499	0.24363	0.91668	2.872
Mof_P 	P 	0.41936	0.23695	0.12064	0.699
Mof_P 	P 	0.32701	0.98661	0.27598	0.795
Mof_O 	O 	0.3689	0.2118	0.038	-0.842
Mof_O 	O 	0.4234	0.1768	0.1568	-0.447
Mof_O 	O 	0.3916	0.2598	0.2071	-0.984
Mof_O 	O 	0.4847	0.2908	0.0914	-0.304
Mof_O 	O 	0.3762	0.045	0.2127	-0.512
Mof_O 	O 	0.3661	0.9571	0.3228	-0.46
Mof_O 	O 	0.2716	0.9361	0.2156	-0.778
Mof_O 	O 	0.3003	0.0097	0.3593	-0.864
Mof_N 	N 	0.4444	0.2777	0.8694	-0.511
Mof_N 	N 	0.3335	0.1568	0.8527	-0.354
Mof_N 	N 	0.2514	0.1888	0.9426	-0.52
Mof_C 	C 	0.4483	0.2205	0.828	-0.033
Mof_C 	C 	0.3852	0.1744	0.7795	-0.069
Mof_C 	C 	0.2661	0.1236	0.8186	-0.088
Mof_C 	C 	0.2247	0.1208	0.9049	-0.031
Mof_H 	H 	0.4762	0.2913	0.9204	0.121
Mof_H 	H 	0.4576	0.3124	0.825	0.123
Mof_H 	H 	0.2247	0.206	0.9094	0.106
Mof_H 	H 	0.2487	0.183	0.0142	0.097
Mof_H 	H 	0.4512	0.1971	0.8935	0.006
Mof_H 	H 	0.3889	0.1312	0.7634	0.052
Mof_H 	H 	0.3799	0.209	0.7243	0.017
Mof_H 	H 	0.2642	0.1486	0.7513	0.031
Mof_H 	H 	0.2424	0.0756	0.7896	0.051
Mof_H 	H 	0.1746	0.0978	0.8788	0.039
Mof_H 	H 	0.2229	0.0942	0.9732	0.019
Mof_Ga	Ga	0.30544	0.24025	0.2144	3.481
Mof_Fe	Fe	0.0279	0.42641	0.45226	1.053
Mof_Ga	Ga	0.01657	0.57696	0.25001	2.97
Mof_P 	P 	0.08603	0.57028	0.45397	0.7
Mof_P 	P 	0.99368	0.31994	0.60931	0.737
Mof_O 	O 	0.03557	0.54513	0.37133	-0.873
Mof_O 	O 	0.09007	0.51013	0.49013	-0.45
Mof_O 	O 	0.05827	0.59313	0.54043	-0.966
Mof_O 	O 	0.15137	0.62413	0.42473	-0.321
Mof_O 	O 	0.04287	0.37833	0.54603	-0.482
Mof_O 	O 	0.03277	0.29043	0.65613	-0.441
Mof_O 	O 	0.93827	0.26943	0.54893	-0.767
Mof_O 	O 	0.96697	0.34303	0.69263	-0.841
Mof_N 	N 	0.11107	0.61103	0.20273	-0.522
Mof_N 	N 	0.00017	0.49013	0.18603	-0.346
Mof_N 	N 	0.91807	0.52213	0.27593	-0.506
Mof_C 	C 	0.11497	0.55383	0.16133	-0.025
Mof_C 	C 	0.05187	0.50773	0.11283	-0.069
Mof_C 	C 	0.93277	0.45693	0.15193	-0.106
Mof_C 	C 	0.89137	0.45413	0.23823	-0.03
Mof_H 	H 	0.14287	0.62463	0.25373	0.134
Mof_H 	H 	0.12427	0.64573	0.15833	0.128
Mof_H 	H 	0.89137	0.53933	0.24273	0.108
Mof_H 	H 	0.91537	0.51633	0.34753	0.064
Mof_H 	H 	0.11787	0.53043	0.22683	0.012
Mof_H 	H 	0.05557	0.46453	0.09673	0.062
Mof_H 	H 	0.04657	0.54233	0.05763	0.031
Mof_H 	H 	0.93087	0.48193	0.08463	0.042
Mof_H 	H 	0.90907	0.40893	0.12293	0.069
Mof_H 	H 	0.84127	0.43113	0.21213	0.05
Mof_H 	H 	0.88957	0.42753	0.30653	0.037
Mof_Ga	Ga	0.9721	0.57359	0.54774	3.422
Mof_Fe	Fe	0.69456	0.75975	0.7856	1.031
Mof_Ga	Ga	0.68323	0.9103	0.58335	2.939
Mof_P 	P 	0.75269	0.90362	0.78731	0.699
Mof_P 	P 	0.66034	0.65328	0.94265	0.741
Mof_O 	O 	0.70223	0.87847	0.70467	-0.873
Mof_O 	O 	0.75673	0.84347	0.82347	-0.453
Mof_O 	O 	0.72493	0.92647	0.87377	-0.975
Mof_O 	O 	0.81803	0.95747	0.75807	-0.316
Mof_O 	O 	0.70953	0.71167	0.87937	-0.498
Mof_O 	O 	0.69943	0.62377	0.98947	-0.483
Mof_O 	O 	0.60493	0.60277	0.88227	-0.771
Mof_O 	O 	0.63363	0.67637	0.02597	-0.825
Mof_N 	N 	0.77773	0.94437	0.53607	-0.519
Mof_N 	N 	0.66683	0.82347	0.51937	-0.354
Mof_N 	N 	0.58473	0.85547	0.60927	-0.499
Mof_C 	C 	0.78163	0.88717	0.49467	-0.03
Mof_C 	C 	0.71853	0.84107	0.44617	-0.07
Mof_C 	C 	0.59943	0.79027	0.48527	-0.086
Mof_C 	C 	0.55803	0.78747	0.57157	-0.035
Mof_H 	H 	0.80953	0.95797	0.58707	0.136
Mof_H 	H 	0.79093	0.97907	0.49167	0.132
Mof_H 	H 	0.55803	0.87267	0.57607	0.109
Mof_H 	H 	0.58203	0.84967	0.68087	0.066
Mof_H 	H 	0.78453	0.86377	0.56017	0.013
Mof_H 	H 	0.72223	0.79787	0.43007	0.053
Mof_H 	H 	0.71323	0.87567	0.39097	0.018
Mof_H 	H 	0.59753	0.81527	0.41797	0.03
Mof_H 	H 	0.57573	0.74227	0.45627	0.057
Mof_H 	H 	0.50793	0.76447	0.54547	0.047
Mof_H 	H 	0.55623	0.76087	0.63987	0.04
Mof_Ga	Ga	0.63877	0.90692	0.88107	3.414
Mof_Fe	Fe	0.90692	0.26815	0.11893	1.062
Mof_Ga	Ga	0.75637	0.10627	0.91668	2.862
Mof_P 	P 	0.76305	0.18241	0.12064	0.698
Mof_P 	P 	0.01339	0.3404	0.27598	0.794
Mof_O 	O 	0.7882	0.1571	0.038	-0.838
Mof_O 	O 	0.8232	0.2466	0.1568	-0.447
Mof_O 	O 	0.7402	0.1318	0.2071	-0.985
Mof_O 	O 	0.7092	0.1939	0.0914	-0.303
Mof_O 	O 	0.955	0.3312	0.2127	-0.512
Mof_O 	O 	0.0429	0.409	0.3228	-0.46
Mof_O 	O 	0.0639	0.3355	0.2156	-0.779
Mof_O 	O 	0.9903	0.2906	0.3593	-0.864
Mof_N 	N 	0.7223	0.1667	0.8694	-0.51
Mof_N 	N 	0.8432	0.1767	0.8527	-0.353
Mof_N 	N 	0.8112	0.0626	0.9426	-0.522
Mof_C 	C 	0.7795	0.2278	0.828	-0.033
Mof_C 	C 	0.8256	0.2108	0.7795	-0.069
Mof_C 	C 	0.8764	0.1425	0.8186	-0.088
Mof_C 	C 	0.8792	0.1039	0.9049	-0.031
Mof_H 	H 	0.7087	0.1849	0.9204	0.12
Mof_H 	H 	0.6876	0.1452	0.825	0.123
Mof_H 	H 	0.794	0.0187	0.9094	0.097
Mof_H 	H 	0.817	0.0657	0.0142	0.099
Mof_H 	H 	0.8029	0.2541	0.8935	0.006
Mof_H 	H 	0.8688	0.2577	0.7634	0.052
Mof_H 	H 	0.791	0.1709	0.7243	0.017
Mof_H 	H 	0.8514	0.1156	0.7513	0.028
Mof_H 	H 	0.9244	0.1668	0.7896	0.05
Mof_H 	H 	0.9022	0.0768	0.8788	0.032
Mof_H 	H 	0.9058	0.1287	0.9732	0.016
Mof_Ga	Ga	0.75975	0.06518	0.2144	3.476
Mof_Fe	Fe	0.57359	0.60148	0.45226	1.033
Mof_Ga	Ga	0.42304	0.4396	0.25001	2.939
Mof_P 	P 	0.42972	0.51574	0.45397	0.7
Mof_P 	P 	0.68006	0.67373	0.60931	0.766
Mof_O 	O 	0.45487	0.49043	0.37133	-0.875
Mof_O 	O 	0.48987	0.57993	0.49013	-0.45
Mof_O 	O 	0.40687	0.46513	0.54043	-0.985
Mof_O 	O 	0.37587	0.52723	0.42473	-0.32
Mof_O 	O 	0.62167	0.66453	0.54603	-0.496
Mof_O 	O 	0.70957	0.74233	0.65613	-0.458
Mof_O 	O 	0.73057	0.66883	0.54893	-0.769
Mof_O 	O 	0.65697	0.62393	0.69263	-0.845
Mof_N 	N 	0.38897	0.50003	0.20273	-0.519
Mof_N 	N 	0.50987	0.51003	0.18603	-0.353
Mof_N 	N 	0.47787	0.39593	0.27593	-0.5
Mof_C 	C 	0.44617	0.56113	0.16133	-0.025
Mof_C 	C 	0.49227	0.54413	0.11283	-0.069
Mof_C 	C 	0.54307	0.47583	0.15193	-0.09
Mof_C 	C 	0.54587	0.43723	0.23823	-0.032
Mof_H 	H 	0.37537	0.51823	0.25373	0.134
Mof_H 	H 	0.35427	0.47853	0.15833	0.128
Mof_H 	H 	0.46067	0.35203	0.24273	0.109
Mof_H 	H 	0.48367	0.39903	0.34753	0.065
Mof_H 	H 	0.46957	0.58743	0.22683	0.012
Mof_H 	H 	0.53547	0.59103	0.09673	0.059
Mof_H 	H 	0.45767	0.50423	0.05763	0.029
Mof_H 	H 	0.51807	0.44893	0.08463	0.042
Mof_H 	H 	0.59107	0.50013	0.12293	0.066
Mof_H 	H 	0.56887	0.41013	0.21213	0.05
Mof_H 	H 	0.57247	0.46203	0.30653	0.04
Mof_Ga	Ga	0.42641	0.39852	0.54774	3.475
Mof_Fe	Fe	0.24025	0.93482	0.7856	1.035
Mof_Ga	Ga	0.0897	0.77294	0.58335	2.94
Mof_P 	P 	0.09638	0.84908	0.78731	0.699
Mof_P 	P 	0.34672	0.00707	0.94265	0.71
Mof_O 	O 	0.12153	0.82377	0.70467	-0.873
Mof_O 	O 	0.15653	0.91327	0.82347	-0.448
Mof_O 	O 	0.07353	0.79847	0.87377	-0.974
Mof_O 	O 	0.04253	0.86057	0.75807	-0.311
Mof_O 	O 	0.28833	0.99787	0.87937	-0.476
Mof_O 	O 	0.37623	0.07567	0.98947	-0.482
Mof_O 	O 	0.39723	0.00217	0.88227	-0.77
Mof_O 	O 	0.32363	0.95727	0.02597	-0.811
Mof_N 	N 	0.05563	0.83337	0.53607	-0.521
Mof_N 	N 	0.17653	0.84337	0.51937	-0.354
Mof_N 	N 	0.14453	0.72927	0.60927	-0.499
Mof_C 	C 	0.11283	0.89447	0.49467	-0.023
Mof_C 	C 	0.15893	0.87747	0.44617	-0.072
Mof_C 	C 	0.20973	0.80917	0.48527	-0.086
Mof_C 	C 	0.21253	0.77057	0.57157	-0.035
Mof_H 	H 	0.04203	0.85157	0.58707	0.139
Mof_H 	H 	0.02093	0.81187	0.49167	0.133
Mof_H 	H 	0.12733	0.68537	0.57607	0.109
Mof_H 	H 	0.15033	0.73237	0.68087	0.066
Mof_H 	H 	0.13623	0.92077	0.56017	0.016
Mof_H 	H 	0.20213	0.92437	0.43007	0.059
Mof_H 	H 	0.12433	0.83757	0.39097	0.019
Mof_H 	H 	0.18473	0.78227	0.41797	0.03
Mof_H 	H 	0.25773	0.83347	0.45627	0.056
Mof_H 	H 	0.23553	0.74347	0.54547	0.047
Mof_H 	H 	0.23913	0.79537	0.63987	0.04
Mof_Ga	Ga	0.09308	0.73185	0.88107	3.419
Mof_Fe	Fe	0.73185	0.63877	0.11893	1.063
Mof_Ga	Ga	0.89373	0.6501	0.91668	2.867
Mof_P 	P 	0.81759	0.58064	0.12064	0.699
Mof_P 	P 	0.6596	0.67299	0.27598	0.769
Mof_O 	O 	0.8429	0.6311	0.038	-0.841
Mof_O 	O 	0.7534	0.5766	0.1568	-0.448
Mof_O 	O 	0.8682	0.6084	0.2071	-0.985
Mof_O 	O 	0.8061	0.5153	0.0914	-0.304
Mof_O 	O 	0.6688	0.6238	0.2127	-0.498
Mof_O 	O 	0.591	0.6339	0.3228	-0.458
Mof_O 	O 	0.6645	0.7284	0.2156	-0.778
Mof_O 	O 	0.7094	0.6997	0.3593	-0.847
Mof_N 	N 	0.8333	0.5556	0.8694	-0.511
Mof_N 	N 	0.8233	0.6665	0.8527	-0.352
Mof_N 	N 	0.9374	0.7486	0.9426	-0.52
Mof_C 	C 	0.7722	0.5517	0.828	-0.033
Mof_C 	C 	0.7892	0.6148	0.7795	-0.069
Mof_C 	C 	0.8575	0.7339	0.8186	-0.088
Mof_C 	C 	0.8961	0.7753	0.9049	-0.032
Mof_H 	H 	0.8151	0.5238	0.9204	0.12
Mof_H 	H 	0.8548	0.5424	0.825	0.123
Mof_H 	H 	0.9813	0.7753	0.9094	0.098
Mof_H 	H 	0.9343	0.7513	0.0142	0.096
Mof_H 	H 	0.7459	0.5488	0.8935	0.006
Mof_H 	H 	0.7423	0.6111	0.7634	0.053
Mof_H 	H 	0.8291	0.6201	0.7243	0.017
Mof_H 	H 	0.8844	0.7358	0.7513	0.029
Mof_H 	H 	0.8332	0.7576	0.7896	0.056
Mof_H 	H 	0.9232	0.8254	0.8788	0.038
Mof_H 	H 	0.8713	0.7771	0.9732	0.022
Mof_Ga	Ga	0.93482	0.69456	0.2144	3.476
Mof_Fe	Fe	0.39852	0.9721	0.45226	1.053
Mof_Ga	Ga	0.5604	0.98343	0.25001	2.971
Mof_P 	P 	0.48426	0.91397	0.45397	0.7
Mof_P 	P 	0.32627	0.00632	0.60931	0.737
Mof_O 	O 	0.50957	0.96443	0.37133	-0.873
Mof_O 	O 	0.42007	0.90993	0.49013	-0.45
Mof_O 	O 	0.53487	0.94173	0.54043	-0.966
Mof_O 	O 	0.47277	0.84863	0.42473	-0.321
Mof_O 	O 	0.33547	0.95713	0.54603	-0.482
Mof_O 	O 	0.25767	0.96723	0.65613	-0.44
Mof_O 	O 	0.33117	0.06173	0.54893	-0.767
Mof_O 	O 	0.37607	0.03303	0.69263	-0.841
Mof_N 	N 	0.49997	0.88893	0.20273	-0.522
Mof_N 	N 	0.48997	0.99983	0.18603	-0.346
Mof_N 	N 	0.60407	0.08193	0.27593	-0.507
Mof_C 	C 	0.43887	0.88503	0.16133	-0.025
Mof_C 	C 	0.45587	0.94813	0.11283	-0.069
Mof_C 	C 	0.52417	0.06723	0.15193	-0.106
Mof_C 	C 	0.56277	0.10863	0.23823	-0.03
Mof_H 	H 	0.48177	0.85713	0.25373	0.134
Mof_H 	H 	0.52147	0.87573	0.15833	0.128
Mof_H 	H 	0.64797	0.10863	0.24273	0.108
Mof_H 	H 	0.60097	0.08463	0.34753	0.064
Mof_H 	H 	0.41257	0.88213	0.22683	0.012
Mof_H 	H 	0.40897	0.94443	0.09673	0.062
Mof_H 	H 	0.49577	0.95343	0.05763	0.031
Mof_H 	H 	0.55107	0.06913	0.08463	0.042
Mof_H 	H 	0.49987	0.09093	0.12293	0.068
Mof_H 	H 	0.58987	0.15873	0.21213	0.05
Mof_H 	H 	0.53797	0.11043	0.30653	0.037
Mof_Ga	Ga	0.60148	0.0279	0.54774	3.422
Mof_Fe	Fe	0.06518	0.30544	0.7856	1.034
Mof_Ga	Ga	0.22706	0.31677	0.58335	2.936
Mof_P 	P 	0.15092	0.24731	0.78731	0.698
Mof_P 	P 	0.99293	0.33966	0.94265	0.709
Mof_O 	O 	0.17623	0.29777	0.70467	-0.872
Mof_O 	O 	0.08673	0.24327	0.82347	-0.45
Mof_O 	O 	0.20153	0.27507	0.87377	-0.98
Mof_O 	O 	0.13943	0.18197	0.75807	-0.322
Mof_O 	O 	0.00213	0.29047	0.87937	-0.477
Mof_O 	O 	0.92433	0.30057	0.98947	-0.484
Mof_O 	O 	0.99783	0.39507	0.88227	-0.77
Mof_O 	O 	0.04273	0.36637	0.02597	-0.81
Mof_N 	N 	0.16663	0.22227	0.53607	-0.518
Mof_N 	N 	0.15663	0.33317	0.51937	-0.354
Mof_N 	N 	0.27073	0.41527	0.60927	-0.499
Mof_C 	C 	0.10553	0.21837	0.49467	-0.028
Mof_C 	C 	0.12253	0.28147	0.44617	-0.071
Mof_C 	C 	0.19083	0.40057	0.48527	-0.086
Mof_C 	C 	0.22943	0.44197	0.57157	-0.035
Mof_H 	H 	0.14843	0.19047	0.58707	0.133
Mof_H 	H 	0.18813	0.20907	0.49167	0.125
Mof_H 	H 	0.31463	0.44197	0.57607	0.108
Mof_H 	H 	0.26763	0.41797	0.68087	0.066
Mof_H 	H 	0.07923	0.21547	0.56017	0.016
Mof_H 	H 	0.07563	0.27777	0.43007	0.058
Mof_H 	H 	0.16243	0.28677	0.39097	0.017
Mof_H 	H 	0.21773	0.40247	0.41797	0.03
Mof_H 	H 	0.16653	0.42427	0.45627	0.056
Mof_H 	H 	0.25653	0.49207	0.54547	0.047
Mof_H 	H 	0.20463	0.44377	0.63987	0.04
Mof_Ga	Ga	0.26815	0.36123	0.88107	3.4
Mof_Ga	Ga	0.6501	0.75637	0.08332	3.021
Mof_P 	P 	0.58064	0.76305	0.87936	0.697
Mof_P 	P 	0.67299	0.01339	0.72402	0.879
Mof_O 	O 	0.6311	0.7882	0.962	-0.927
Mof_O 	O 	0.5766	0.8232	0.8432	-0.94
Mof_O 	O 	0.6084	0.7402	0.7929	-0.481
Mof_O 	O 	0.5153	0.7092	0.9086	-0.338
Mof_O 	O 	0.6238	0.955	0.7873	-1.008
Mof_O 	O 	0.6339	0.0429	0.6772	-0.966
Mof_O 	O 	0.7284	0.0639	0.7844	-0.81
Mof_O 	O 	0.6997	0.9903	0.6407	-0.92
Mof_N 	N 	0.5556	0.7223	0.1306	-0.528
Mof_N 	N 	0.6665	0.8432	0.1473	-0.377
Mof_N 	N 	0.7486	0.8112	0.0574	-0.474
Mof_C 	C 	0.5517	0.7795	0.172	-0.023
Mof_C 	C 	0.6148	0.8256	0.2205	-0.068
Mof_C 	C 	0.7339	0.8764	0.1814	-0.056
Mof_C 	C 	0.7753	0.8792	0.0951	-0.052
Mof_H 	H 	0.5238	0.7087	0.0796	0.142
Mof_H 	H 	0.5424	0.6876	0.175	0.13
Mof_H 	H 	0.7753	0.794	0.0906	0.124
Mof_H 	H 	0.7513	0.817	0.9858	0.063
Mof_H 	H 	0.5488	0.8029	0.1065	0.001
Mof_H 	H 	0.6111	0.8688	0.2366	0.041
Mof_H 	H 	0.6201	0.791	0.2757	0.02
Mof_H 	H 	0.7358	0.8514	0.2487	0.02
Mof_H 	H 	0.7576	0.9244	0.2104	0.011
Mof_H 	H 	0.8254	0.9022	0.1212	0.053
Mof_H 	H 	0.7771	0.9058	0.0268	0.05
Mof_Ga	Ga	0.31677	0.0897	0.41665	2.958
Mof_P 	P 	0.24731	0.09638	0.21269	0.697
Mof_P 	P 	0.33966	0.34672	0.05735	0.939
Mof_O 	O 	0.29777	0.12153	0.29533	-0.898
Mof_O 	O 	0.24327	0.15653	0.17653	-0.943
Mof_O 	O 	0.27507	0.07353	0.12623	-0.48
Mof_O 	O 	0.18197	0.04253	0.24193	-0.325
Mof_O 	O 	0.29047	0.28833	0.12063	-1.034
Mof_O 	O 	0.30057	0.37623	0.01053	-0.942
Mof_O 	O 	0.39507	0.39723	0.11773	-0.821
Mof_O 	O 	0.36637	0.32363	0.97403	-0.962
Mof_N 	N 	0.22227	0.05563	0.46393	-0.52
Mof_N 	N 	0.33317	0.17653	0.48063	-0.377
Mof_N 	N 	0.41527	0.14453	0.39073	-0.495
Mof_C 	C 	0.21837	0.11283	0.50533	-0.026
Mof_C 	C 	0.28147	0.15893	0.55383	-0.067
Mof_C 	C 	0.40057	0.20973	0.51473	-0.057
Mof_C 	C 	0.44197	0.21253	0.42843	-0.048
Mof_H 	H 	0.19047	0.04203	0.41293	0.128
Mof_H 	H 	0.20907	0.02093	0.50833	0.122
Mof_H 	H 	0.44197	0.12733	0.42393	0.121
Mof_H 	H 	0.41797	0.15033	0.31913	0.094
Mof_H 	H 	0.21547	0.13623	0.43983	-0.005
Mof_H 	H 	0.27777	0.20213	0.56993	0.04
Mof_H 	H 	0.28677	0.12433	0.60903	0.019
Mof_H 	H 	0.40247	0.18473	0.58203	0.021
Mof_H 	H 	0.42427	0.25773	0.54373	0.006
Mof_H 	H 	0.49207	0.23553	0.45453	0.045
Mof_H 	H 	0.44377	0.23913	0.36013	0.031
Mof_Ga	Ga	0.98343	0.42304	0.74999	2.92
Mof_P 	P 	0.91397	0.42972	0.54603	0.695
Mof_P 	P 	0.00632	0.68006	0.39069	0.94
Mof_O 	O 	0.96443	0.45487	0.62867	-0.895
Mof_O 	O 	0.90993	0.48987	0.50987	-0.938
Mof_O 	O 	0.94173	0.40687	0.45957	-0.49
Mof_O 	O 	0.84863	0.37587	0.57527	-0.322
Mof_O 	O 	0.95713	0.62167	0.45397	-1.041
Mof_O 	O 	0.96723	0.70957	0.34387	-0.991
Mof_O 	O 	0.06173	0.73057	0.45107	-0.823
Mof_O 	O 	0.03303	0.65697	0.30737	-0.947
Mof_N 	N 	0.88893	0.38897	0.79727	-0.516
Mof_N 	N 	0.99983	0.50987	0.81397	-0.386
Mof_N 	N 	0.08193	0.47787	0.72407	-0.486
Mof_C 	C 	0.88503	0.44617	0.83867	-0.032
Mof_C 	C 	0.94813	0.49227	0.88717	-0.068
Mof_C 	C 	0.06723	0.54307	0.84807	-0.034
Mof_C 	C 	0.10863	0.54587	0.76177	-0.053
Mof_H 	H 	0.85713	0.37537	0.74627	0.13
Mof_H 	H 	0.87573	0.35427	0.84167	0.125
Mof_H 	H 	0.10863	0.46067	0.75727	0.122
Mof_H 	H 	0.08463	0.48367	0.65247	0.097
Mof_H 	H 	0.88213	0.46957	0.77317	-0.003
Mof_H 	H 	0.94443	0.53547	0.90327	0.03
Mof_H 	H 	0.95343	0.45767	0.94237	0.004
Mof_H 	H 	0.06913	0.51807	0.91537	0.011
Mof_H 	H 	0.09093	0.59107	0.87707	-0.004
Mof_H 	H 	0.15873	0.56887	0.78787	0.043
Mof_H 	H 	0.11043	0.57247	0.69347	0.034
Mof_Ga	Ga	0.24363	0.89373	0.08332	3.015
Mof_P 	P 	0.23695	0.81759	0.87936	0.697
Mof_P 	P 	0.98661	0.6596	0.72402	0.879
Mof_O 	O 	0.2118	0.8429	0.962	-0.923
Mof_O 	O 	0.1768	0.7534	0.8432	-0.941
Mof_O 	O 	0.2598	0.8682	0.7929	-0.479
Mof_O 	O 	0.2908	0.8061	0.9086	-0.337
Mof_O 	O 	0.045	0.6688	0.7873	-1.009
Mof_O 	O 	0.9571	0.591	0.6772	-0.966
Mof_O 	O 	0.9361	0.6645	0.7844	-0.811
Mof_O 	O 	0.0097	0.7094	0.6407	-0.92
Mof_N 	N 	0.2777	0.8333	0.1306	-0.527
Mof_N 	N 	0.1568	0.8233	0.1473	-0.377
Mof_N 	N 	0.1888	0.9374	0.0574	-0.478
Mof_C 	C 	0.2205	0.7722	0.172	-0.023
Mof_C 	C 	0.1744	0.7892	0.2205	-0.068
Mof_C 	C 	0.1236	0.8575	0.1814	-0.056
Mof_C 	C 	0.1208	0.8961	0.0951	-0.051
Mof_H 	H 	0.2913	0.8151	0.0796	0.142
Mof_H 	H 	0.3124	0.8548	0.175	0.13
Mof_H 	H 	0.206	0.9813	0.0906	0.131
Mof_H 	H 	0.183	0.9343	0.9858	0.071
Mof_H 	H 	0.1971	0.7459	0.1065	0.001
Mof_H 	H 	0.1312	0.7423	0.2366	0.041
Mof_H 	H 	0.209	0.8291	0.2757	0.02
Mof_H 	H 	0.1486	0.8844	0.2487	0.023
Mof_H 	H 	0.0756	0.8332	0.2104	0.012
Mof_H 	H 	0.0978	0.9232	0.1212	0.057
Mof_H 	H 	0.0942	0.8713	0.0268	0.049
Mof_Ga	Ga	0.9103	0.22706	0.41665	2.957
Mof_P 	P 	0.90362	0.15092	0.21269	0.697
Mof_P 	P 	0.65328	0.99293	0.05735	0.965
Mof_O 	O 	0.87847	0.17623	0.29533	-0.897
Mof_O 	O 	0.84347	0.08673	0.17653	-0.945
Mof_O 	O 	0.92647	0.20153	0.12623	-0.479
Mof_O 	O 	0.95747	0.13943	0.24193	-0.328
Mof_O 	O 	0.71167	0.00213	0.12063	-1.049
Mof_O 	O 	0.62377	0.92433	0.01053	-0.946
Mof_O 	O 	0.60277	0.99783	0.11773	-0.822
Mof_O 	O 	0.67637	0.04273	0.97403	-0.978
Mof_N 	N 	0.94437	0.16663	0.46393	-0.519
Mof_N 	N 	0.82347	0.15663	0.48063	-0.377
Mof_N 	N 	0.85547	0.27073	0.39073	-0.495
Mof_C 	C 	0.88717	0.10553	0.50533	-0.032
Mof_C 	C 	0.84107	0.12253	0.55383	-0.065
Mof_C 	C 	0.79027	0.19083	0.51473	-0.058
Mof_C 	C 	0.78747	0.22943	0.42843	-0.048
Mof_H 	H 	0.95797	0.14843	0.41293	0.126
Mof_H 	H 	0.97907	0.18813	0.50833	0.121
Mof_H 	H 	0.87267	0.31463	0.42393	0.121
Mof_H 	H 	0.84967	0.26763	0.31913	0.094
Mof_H 	H 	0.86377	0.07923	0.43983	-0.008
Mof_H 	H 	0.79787	0.07563	0.56993	0.034
Mof_H 	H 	0.87567	0.16243	0.60903	0.018
Mof_H 	H 	0.81527	0.21773	0.58203	0.021
Mof_H 	H 	0.74227	0.16653	0.54373	0.007
Mof_H 	H 	0.76447	0.25653	0.45453	0.045
Mof_H 	H 	0.76087	0.20463	0.36013	0.031
Mof_Ga	Ga	0.57696	0.5604	0.74999	2.958
Mof_P 	P 	0.57028	0.48426	0.54603	0.697
Mof_P 	P 	0.31994	0.32627	0.39069	0.914
Mof_O 	O 	0.54513	0.50957	0.62867	-0.896
Mof_O 	O 	0.51013	0.42007	0.50987	-0.946
Mof_O 	O 	0.59313	0.53487	0.45957	-0.481
Mof_O 	O 	0.62413	0.47277	0.57527	-0.322
Mof_O 	O 	0.37833	0.33547	0.45397	-1.036
Mof_O 	O 	0.29043	0.25767	0.34387	-0.976
Mof_O 	O 	0.26943	0.33117	0.45107	-0.823
Mof_O 	O 	0.34303	0.37607	0.30737	-0.943
Mof_N 	N 	0.61103	0.49997	0.79727	-0.52
Mof_N 	N 	0.49013	0.48997	0.81397	-0.378
Mof_N 	N 	0.52213	0.60407	0.72407	-0.495
Mof_C 	C 	0.55383	0.43887	0.83867	-0.032
Mof_C 	C 	0.50773	0.45587	0.88717	-0.068
Mof_C 	C 	0.45693	0.52417	0.84807	-0.054
Mof_C 	C 	0.45413	0.56277	0.76177	-0.05
Mof_H 	H 	0.62463	0.48177	0.74627	0.13
Mof_H 	H 	0.64573	0.52147	0.84167	0.126
Mof_H 	H 	0.53933	0.64797	0.75727	0.12
Mof_H 	H 	0.51633	0.60097	0.65247	0.095
Mof_H 	H 	0.53043	0.41257	0.77317	-0.004
Mof_H 	H 	0.46453	0.40897	0.90327	0.034
Mof_H 	H 	0.54233	0.49577	0.94237	0.008
Mof_H 	H 	0.48193	0.55107	0.91537	0.009
Mof_H 	H 	0.40893	0.49987	0.87707	-0.002
Mof_H 	H 	0.43113	0.58987	0.78787	0.042
Mof_H 	H 	0.42753	0.53797	0.69347	0.03
Mof_Ga	Ga	0.10627	0.3499	0.08332	3.02
Mof_P 	P 	0.18241	0.41936	0.87936	0.697
Mof_P 	P 	0.3404	0.32701	0.72402	0.91
Mof_O 	O 	0.1571	0.3689	0.962	-0.925
Mof_O 	O 	0.2466	0.4234	0.8432	-0.938
Mof_O 	O 	0.1318	0.3916	0.7929	-0.479
Mof_O 	O 	0.1939	0.4847	0.9086	-0.337
Mof_O 	O 	0.3312	0.3762	0.7873	-1.023
Mof_O 	O 	0.409	0.3661	0.6772	-0.975
Mof_O 	O 	0.3355	0.2716	0.7844	-0.811
Mof_O 	O 	0.2906	0.3003	0.6407	-0.941
Mof_N 	N 	0.1667	0.4444	0.1306	-0.528
Mof_N 	N 	0.1767	0.3335	0.1473	-0.378
Mof_N 	N 	0.0626	0.2514	0.0574	-0.475
Mof_C 	C 	0.2278	0.4483	0.172	-0.023
Mof_C 	C 	0.2108	0.3852	0.2205	-0.068
Mof_C 	C 	0.1425	0.2661	0.1814	-0.056
Mof_C 	C 	0.1039	0.2247	0.0951	-0.051
Mof_H 	H 	0.1849	0.4762	0.0796	0.142
Mof_H 	H 	0.1452	0.4576	0.175	0.13
Mof_H 	H 	0.0187	0.2247	0.0906	0.13
Mof_H 	H 	0.0657	0.2487	0.9858	0.066
Mof_H 	H 	0.2541	0.4512	0.1065	0.001
Mof_H 	H 	0.2577	0.3889	0.2366	0.04
Mof_H 	H 	0.1709	0.3799	0.2757	0.02
Mof_H 	H 	0.1156	0.2642	0.2487	0.022
Mof_H 	H 	0.1668	0.2424	0.2104	0.007
Mof_H 	H 	0.0768	0.1746	0.1212	0.053
Mof_H 	H 	0.1287	0.2229	0.0268	0.047
Mof_Ga	Ga	0.77294	0.68323	0.41665	2.961
Mof_P 	P 	0.84908	0.75269	0.21269	0.697
Mof_P 	P 	0.00707	0.66034	0.05735	0.964
Mof_O 	O 	0.82377	0.70223	0.29533	-0.898
Mof_O 	O 	0.91327	0.75673	0.17653	-0.944
Mof_O 	O 	0.79847	0.72493	0.12623	-0.475
Mof_O 	O 	0.86057	0.81803	0.24193	-0.32
Mof_O 	O 	0.99787	0.70953	0.12063	-1.049
Mof_O 	O 	0.07567	0.69943	0.01053	-0.948
Mof_O 	O 	0.00217	0.60493	0.11773	-0.821
Mof_O 	O 	0.95727	0.63363	0.97403	-0.977
Mof_N 	N 	0.83337	0.77773	0.46393	-0.521
Mof_N 	N 	0.84337	0.66683	0.48063	-0.377
Mof_N 	N 	0.72927	0.58473	0.39073	-0.495
Mof_C 	C 	0.89447	0.78163	0.50533	-0.028
Mof_C 	C 	0.87747	0.71853	0.55383	-0.066
Mof_C 	C 	0.80917	0.59943	0.51473	-0.058
Mof_C 	C 	0.77057	0.55803	0.42843	-0.048
Mof_H 	H 	0.85157	0.80953	0.41293	0.131
Mof_H 	H 	0.81187	0.79093	0.50833	0.129
Mof_H 	H 	0.68537	0.55803	0.42393	0.121
Mof_H 	H 	0.73237	0.58203	0.31913	0.094
Mof_H 	H 	0.92077	0.78453	0.43983	-0.008
Mof_H 	H 	0.92437	0.72223	0.56993	0.034
Mof_H 	H 	0.83757	0.71323	0.60903	0.02
Mof_H 	H 	0.78227	0.59753	0.58203	0.021
Mof_H 	H 	0.83347	0.57573	0.54373	0.007
Mof_H 	H 	0.74347	0.50793	0.45453	0.045
Mof_H 	H 	0.79537	0.55623	0.36013	0.03
Mof_Ga	Ga	0.4396	0.01657	0.74999	2.92
Mof_P 	P 	0.51574	0.08603	0.54603	0.695
Mof_P 	P 	0.67373	0.99368	0.39069	0.94
Mof_O 	O 	0.49043	0.03557	0.62867	-0.895
Mof_O 	O 	0.57993	0.09007	0.50987	-0.938
Mof_O 	O 	0.46513	0.05827	0.45957	-0.491
Mof_O 	O 	0.52723	0.15137	0.57527	-0.322
Mof_O 	O 	0.66453	0.04287	0.45397	-1.041
Mof_O 	O 	0.74233	0.03277	0.34387	-0.991
Mof_O 	O 	0.66883	0.93827	0.45107	-0.823
Mof_O 	O 	0.62393	0.96697	0.30737	-0.947
Mof_N 	N 	0.50003	0.11107	0.79727	-0.516
Mof_N 	N 	0.51003	0.00017	0.81397	-0.386
Mof_N 	N 	0.39593	0.91807	0.72407	-0.486
Mof_C 	C 	0.56113	0.11497	0.83867	-0.032
Mof_C 	C 	0.54413	0.05187	0.88717	-0.068
Mof_C 	C 	0.47583	0.93277	0.84807	-0.034
Mof_C 	C 	0.43723	0.89137	0.76177	-0.053
Mof_H 	H 	0.51823	0.14287	0.74627	0.13
Mof_H 	H 	0.47853	0.12427	0.84167	0.125
Mof_H 	H 	0.35203	0.89137	0.75727	0.122
Mof_H 	H 	0.39903	0.91537	0.65247	0.097
Mof_H 	H 	0.58743	0.11787	0.77317	-0.003
Mof_H 	H 	0.59103	0.05557	0.90327	0.03
Mof_H 	H 	0.50423	0.04657	0.94237	0.004
Mof_H 	H 	0.44893	0.93087	0.91537	0.011
Mof_H 	H 	0.50013	0.90907	0.87707	-0.004
Mof_H 	H 	0.41013	0.84127	0.78787	0.043
Mof_H 	H 	0.46203	0.88957	0.69347	0.034
_end
