data_functionalizedCrystal
_audit_creation_method	'EQeq! by Chris Wilmer'
_symmetry_space_group_name_H-M	'P1'
_symmetry_Int_Tables_number	1
_symmetry_cell_setting	triclinic
loop_
_symmetry_equiv_pos_as_xyz
  x,y,z
_cell_length_a	20.9335
_cell_length_b	20.9335
_cell_length_c	20.9335
_cell_angle_alpha	115.808
_cell_angle_beta	115.808
_cell_angle_gamma	115.808
loop_
_atom_site_label
_atom_site_type_symbol
_atom_site_fract_x
_atom_site_fract_y
_atom_site_fract_z
_atom_site_charge
Mof_Cu	Cu	0.59538	0.92375	0.75224	0.91
Mof_Cu	Cu	0.54775	0.01271	0.65121	0.912
Mof_O 	O 	0.4936	0.8814	0.5373	-0.414
Mof_O 	O 	0.5272	0.8279	0.6061	-0.424
Mof_O 	O 	0.7244	0.0585	0.8202	-0.422
Mof_O 	O 	0.7017	0.1047	0.7404	-0.407
Mof_O 	O 	0.5107	0.9659	0.7403	-0.39
Mof_O 	O 	0.4033	0.9138	0.5891	-0.383
Mof_N 	N 	0.4757	0.781	0.6881	-0.206
Mof_N 	N 	0.6817	0.0073	0.9062	-0.208
Mof_N 	N 	0.1448	0.7371	0.5859	-0.211
Mof_C 	C 	0.4176	0.7735	0.7018	0.037
Mof_H 	H 	0.4428	0.8385	0.7522	0.014
Mof_C 	C 	0.3209	0.6731	0.6446	-0.052
Mof_H 	H 	0.2797	0.6697	0.6536	0.059
Mof_C 	C 	0.2867	0.5779	0.5735	-0.053
Mof_C 	C 	0.3502	0.5871	0.564	-0.053
Mof_H 	H 	0.3306	0.5248	0.5193	0.054
Mof_C 	C 	0.4433	0.689	0.6207	0.038
Mof_H 	H 	0.4852	0.6942	0.6121	0.011
Mof_C 	C 	0.4879	0.8166	0.5316	0.37
Mof_C 	C 	0.7046	0.0893	0.9738	0.048
Mof_H 	H 	0.6755	0.1063	0.9468	0.019
Mof_C 	C 	0.917	0.2301	0.8488	-0.062
Mof_H 	H 	0.8718	0.2171	0.7925	0.065
Mof_C 	C 	0.8761	0.1847	0.8714	-0.043
Mof_C 	C 	0.9457	0.2083	0.9566	-0.06
Mof_H 	H 	0.9201	0.1787	0.974	0.061
Mof_C 	C 	0.7236	0.984	0.946	0.036
Mof_H 	H 	0.7057	0.9244	0.898	-0.002
Mof_C 	C 	0.757	0.1092	0.8047	0.352
Mof_C 	C 	0.2505	0.8323	0.6924	0.035
Mof_H 	H 	0.2628	0.8589	0.7509	0.021
Mof_C 	C 	0.3414	0.8917	0.7178	-0.063
Mof_H 	H 	0.4142	0.9568	0.7923	0.06
Mof_C 	C 	0.3233	0.8538	0.632	-0.034
Mof_C 	C 	0.216	0.7578	0.5239	-0.063
Mof_H 	H 	0.2016	0.7307	0.4641	0.066
Mof_C 	C 	0.1298	0.7018	0.5045	0.04
Mof_H 	H 	0.0568	0.6356	0.4303	0.018
Mof_C 	C 	0.4198	0.9157	0.6561	0.309
Mof_Cu	Cu	0.75224	0.59538	0.92375	0.911
Mof_Cu	Cu	0.65121	0.54775	0.01271	0.913
Mof_O 	O 	0.5373	0.4936	0.8814	-0.413
Mof_O 	O 	0.6061	0.5272	0.8279	-0.423
Mof_O 	O 	0.8202	0.7244	0.0585	-0.421
Mof_O 	O 	0.7404	0.7017	0.1047	-0.406
Mof_O 	O 	0.7403	0.5107	0.9659	-0.389
Mof_O 	O 	0.5891	0.4033	0.9138	-0.382
Mof_N 	N 	0.6881	0.4757	0.781	-0.205
Mof_N 	N 	0.9062	0.6817	0.0073	-0.207
Mof_N 	N 	0.5859	0.1448	0.7371	-0.21
Mof_C 	C 	0.7018	0.4176	0.7735	0.038
Mof_H 	H 	0.7522	0.4428	0.8385	0.015
Mof_C 	C 	0.6446	0.3209	0.6731	-0.051
Mof_H 	H 	0.6536	0.2797	0.6697	0.06
Mof_C 	C 	0.5735	0.2867	0.5779	-0.052
Mof_C 	C 	0.564	0.3502	0.5871	-0.052
Mof_H 	H 	0.5193	0.3306	0.5248	0.055
Mof_C 	C 	0.6207	0.4433	0.689	0.038
Mof_H 	H 	0.6121	0.4852	0.6942	0.011
Mof_C 	C 	0.5316	0.4879	0.8166	0.37
Mof_C 	C 	0.9738	0.7046	0.0893	0.048
Mof_H 	H 	0.9468	0.6755	0.1063	0.019
Mof_C 	C 	0.8488	0.917	0.2301	-0.062
Mof_H 	H 	0.7925	0.8718	0.2171	0.065
Mof_C 	C 	0.8714	0.8761	0.1847	-0.043
Mof_C 	C 	0.9566	0.9457	0.2083	-0.06
Mof_H 	H 	0.974	0.9201	0.1787	0.061
Mof_C 	C 	0.946	0.7236	0.984	0.036
Mof_H 	H 	0.898	0.7057	0.9244	-0.002
Mof_C 	C 	0.8047	0.757	0.1092	0.352
Mof_C 	C 	0.6924	0.2505	0.8323	0.035
Mof_H 	H 	0.7509	0.2628	0.8589	0.021
Mof_C 	C 	0.7178	0.3414	0.8917	-0.063
Mof_H 	H 	0.7923	0.4142	0.9568	0.06
Mof_C 	C 	0.632	0.3233	0.8538	-0.034
Mof_C 	C 	0.5239	0.216	0.7578	-0.063
Mof_H 	H 	0.4641	0.2016	0.7307	0.066
Mof_C 	C 	0.5045	0.1298	0.7018	0.04
Mof_H 	H 	0.4303	0.0568	0.6356	0.018
Mof_C 	C 	0.6561	0.4198	0.9157	0.309
Mof_Cu	Cu	0.92375	0.75224	0.59538	0.911
Mof_Cu	Cu	0.01271	0.65121	0.54775	0.913
Mof_O 	O 	0.8814	0.5373	0.4936	-0.413
Mof_O 	O 	0.8279	0.6061	0.5272	-0.423
Mof_O 	O 	0.0585	0.8202	0.7244	-0.421
Mof_O 	O 	0.1047	0.7404	0.7017	-0.406
Mof_O 	O 	0.9659	0.7403	0.5107	-0.389
Mof_O 	O 	0.9138	0.5891	0.4033	-0.382
Mof_N 	N 	0.781	0.6881	0.4757	-0.205
Mof_N 	N 	0.0073	0.9062	0.6817	-0.207
Mof_N 	N 	0.7371	0.5859	0.1448	-0.21
Mof_C 	C 	0.7735	0.7018	0.4176	0.038
Mof_H 	H 	0.8385	0.7522	0.4428	0.015
Mof_C 	C 	0.6731	0.6446	0.3209	-0.051
Mof_H 	H 	0.6697	0.6536	0.2797	0.06
Mof_C 	C 	0.5779	0.5735	0.2867	-0.052
Mof_C 	C 	0.5871	0.564	0.3502	-0.052
Mof_H 	H 	0.5248	0.5193	0.3306	0.055
Mof_C 	C 	0.689	0.6207	0.4433	0.038
Mof_H 	H 	0.6942	0.6121	0.4852	0.011
Mof_C 	C 	0.8166	0.5316	0.4879	0.37
Mof_C 	C 	0.0893	0.9738	0.7046	0.048
Mof_H 	H 	0.1063	0.9468	0.6755	0.019
Mof_C 	C 	0.2301	0.8488	0.917	-0.062
Mof_H 	H 	0.2171	0.7925	0.8718	0.065
Mof_C 	C 	0.1847	0.8714	0.8761	-0.043
Mof_C 	C 	0.2083	0.9566	0.9457	-0.06
Mof_H 	H 	0.1787	0.974	0.9201	0.061
Mof_C 	C 	0.984	0.946	0.7236	0.036
Mof_H 	H 	0.9244	0.898	0.7057	-0.002
Mof_C 	C 	0.1092	0.8047	0.757	0.352
Mof_C 	C 	0.8323	0.6924	0.2505	0.035
Mof_H 	H 	0.8589	0.7509	0.2628	0.021
Mof_C 	C 	0.8917	0.7178	0.3414	-0.063
Mof_H 	H 	0.9568	0.7923	0.4142	0.06
Mof_C 	C 	0.8538	0.632	0.3233	-0.034
Mof_C 	C 	0.7578	0.5239	0.216	-0.063
Mof_H 	H 	0.7307	0.4641	0.2016	0.066
Mof_C 	C 	0.7018	0.5045	0.1298	0.04
Mof_H 	H 	0.6356	0.4303	0.0568	0.018
Mof_C 	C 	0.9157	0.6561	0.4198	0.309
Mof_Cu	Cu	0.40462	0.07625	0.24776	0.911
Mof_Cu	Cu	0.45225	0.98729	0.34879	0.913
Mof_O 	O 	0.5064	0.1186	0.4627	-0.413
Mof_O 	O 	0.4728	0.1721	0.3939	-0.423
Mof_O 	O 	0.2756	0.9415	0.1798	-0.421
Mof_O 	O 	0.2983	0.8953	0.2596	-0.406
Mof_O 	O 	0.4893	0.0341	0.2597	-0.389
Mof_O 	O 	0.5967	0.0862	0.4109	-0.382
Mof_N 	N 	0.5243	0.219	0.3119	-0.205
Mof_N 	N 	0.3183	0.9927	0.0938	-0.207
Mof_N 	N 	0.8552	0.2629	0.4141	-0.21
Mof_C 	C 	0.5824	0.2265	0.2982	0.038
Mof_H 	H 	0.5572	0.1615	0.2478	0.015
Mof_C 	C 	0.6791	0.3269	0.3554	-0.051
Mof_H 	H 	0.7203	0.3303	0.3464	0.06
Mof_C 	C 	0.7133	0.4221	0.4265	-0.052
Mof_C 	C 	0.6498	0.4129	0.436	-0.052
Mof_H 	H 	0.6694	0.4752	0.4807	0.055
Mof_C 	C 	0.5567	0.311	0.3793	0.038
Mof_H 	H 	0.5148	0.3058	0.3879	0.011
Mof_C 	C 	0.5121	0.1834	0.4684	0.37
Mof_C 	C 	0.2954	0.9107	0.0262	0.048
Mof_H 	H 	0.3245	0.8937	0.0532	0.019
Mof_C 	C 	0.083	0.7699	0.1512	-0.062
Mof_H 	H 	0.1282	0.7829	0.2075	0.065
Mof_C 	C 	0.1239	0.8153	0.1286	-0.043
Mof_C 	C 	0.0543	0.7917	0.0434	-0.06
Mof_H 	H 	0.0799	0.8213	0.026	0.061
Mof_C 	C 	0.2764	0.016	0.054	0.036
Mof_H 	H 	0.2943	0.0756	0.102	-0.002
Mof_C 	C 	0.243	0.8908	0.1953	0.352
Mof_C 	C 	0.7495	0.1677	0.3076	0.035
Mof_H 	H 	0.7372	0.1411	0.2491	0.021
Mof_C 	C 	0.6586	0.1083	0.2822	-0.063
Mof_H 	H 	0.5858	0.0432	0.2077	0.06
Mof_C 	C 	0.6767	0.1462	0.368	-0.034
Mof_C 	C 	0.784	0.2422	0.4761	-0.063
Mof_H 	H 	0.7984	0.2693	0.5359	0.066
Mof_C 	C 	0.8702	0.2982	0.4955	0.04
Mof_H 	H 	0.9432	0.3644	0.5697	0.018
Mof_C 	C 	0.5802	0.0843	0.3439	0.309
Mof_Cu	Cu	0.24776	0.40462	0.07625	0.911
Mof_Cu	Cu	0.34879	0.45225	0.98729	0.913
Mof_O 	O 	0.4627	0.5064	0.1186	-0.413
Mof_O 	O 	0.3939	0.4728	0.1721	-0.423
Mof_O 	O 	0.1798	0.2756	0.9415	-0.421
Mof_O 	O 	0.2596	0.2983	0.8953	-0.406
Mof_O 	O 	0.2597	0.4893	0.0341	-0.389
Mof_O 	O 	0.4109	0.5967	0.0862	-0.382
Mof_N 	N 	0.3119	0.5243	0.219	-0.205
Mof_N 	N 	0.0938	0.3183	0.9927	-0.207
Mof_N 	N 	0.4141	0.8552	0.2629	-0.21
Mof_C 	C 	0.2982	0.5824	0.2265	0.038
Mof_H 	H 	0.2478	0.5572	0.1615	0.015
Mof_C 	C 	0.3554	0.6791	0.3269	-0.051
Mof_H 	H 	0.3464	0.7203	0.3303	0.06
Mof_C 	C 	0.4265	0.7133	0.4221	-0.052
Mof_C 	C 	0.436	0.6498	0.4129	-0.052
Mof_H 	H 	0.4807	0.6694	0.4752	0.055
Mof_C 	C 	0.3793	0.5567	0.311	0.038
Mof_H 	H 	0.3879	0.5148	0.3058	0.011
Mof_C 	C 	0.4684	0.5121	0.1834	0.37
Mof_C 	C 	0.0262	0.2954	0.9107	0.048
Mof_H 	H 	0.0532	0.3245	0.8937	0.019
Mof_C 	C 	0.1512	0.083	0.7699	-0.062
Mof_H 	H 	0.2075	0.1282	0.7829	0.065
Mof_C 	C 	0.1286	0.1239	0.8153	-0.043
Mof_C 	C 	0.0434	0.0543	0.7917	-0.06
Mof_H 	H 	0.026	0.0799	0.8213	0.061
Mof_C 	C 	0.054	0.2764	0.016	0.036
Mof_H 	H 	0.102	0.2943	0.0756	-0.002
Mof_C 	C 	0.1953	0.243	0.8908	0.352
Mof_C 	C 	0.3076	0.7495	0.1677	0.035
Mof_H 	H 	0.2491	0.7372	0.1411	0.021
Mof_C 	C 	0.2822	0.6586	0.1083	-0.063
Mof_H 	H 	0.2077	0.5858	0.0432	0.06
Mof_C 	C 	0.368	0.6767	0.1462	-0.034
Mof_C 	C 	0.4761	0.784	0.2422	-0.063
Mof_H 	H 	0.5359	0.7984	0.2693	0.066
Mof_C 	C 	0.4955	0.8702	0.2982	0.04
Mof_H 	H 	0.5697	0.9432	0.3644	0.018
Mof_C 	C 	0.3439	0.5802	0.0843	0.309
Mof_Cu	Cu	0.07625	0.24776	0.40462	0.911
Mof_Cu	Cu	0.98729	0.34879	0.45225	0.913
Mof_O 	O 	0.1186	0.4627	0.5064	-0.413
Mof_O 	O 	0.1721	0.3939	0.4728	-0.423
Mof_O 	O 	0.9415	0.1798	0.2756	-0.421
Mof_O 	O 	0.8953	0.2596	0.2983	-0.406
Mof_O 	O 	0.0341	0.2597	0.4893	-0.389
Mof_O 	O 	0.0862	0.4109	0.5967	-0.382
Mof_N 	N 	0.219	0.3119	0.5243	-0.205
Mof_N 	N 	0.9927	0.0938	0.3183	-0.207
Mof_N 	N 	0.2629	0.4141	0.8552	-0.21
Mof_C 	C 	0.2265	0.2982	0.5824	0.038
Mof_H 	H 	0.1615	0.2478	0.5572	0.015
Mof_C 	C 	0.3269	0.3554	0.6791	-0.051
Mof_H 	H 	0.3303	0.3464	0.7203	0.06
Mof_C 	C 	0.4221	0.4265	0.7133	-0.052
Mof_C 	C 	0.4129	0.436	0.6498	-0.052
Mof_H 	H 	0.4752	0.4807	0.6694	0.055
Mof_C 	C 	0.311	0.3793	0.5567	0.038
Mof_H 	H 	0.3058	0.3879	0.5148	0.011
Mof_C 	C 	0.1834	0.4684	0.5121	0.37
Mof_C 	C 	0.9107	0.0262	0.2954	0.048
Mof_H 	H 	0.8937	0.0532	0.3245	0.019
Mof_C 	C 	0.7699	0.1512	0.083	-0.062
Mof_H 	H 	0.7829	0.2075	0.1282	0.065
Mof_C 	C 	0.8153	0.1286	0.1239	-0.043
Mof_C 	C 	0.7917	0.0434	0.0543	-0.06
Mof_H 	H 	0.8213	0.026	0.0799	0.061
Mof_C 	C 	0.016	0.054	0.2764	0.036
Mof_H 	H 	0.0756	0.102	0.2943	-0.002
Mof_C 	C 	0.8908	0.1953	0.243	0.352
Mof_C 	C 	0.1677	0.3076	0.7495	0.035
Mof_H 	H 	0.1411	0.2491	0.7372	0.021
Mof_C 	C 	0.1083	0.2822	0.6586	-0.063
Mof_H 	H 	0.0432	0.2077	0.5858	0.06
Mof_C 	C 	0.1462	0.368	0.6767	-0.034
Mof_C 	C 	0.2422	0.4761	0.784	-0.063
Mof_H 	H 	0.2693	0.5359	0.7984	0.066
Mof_C 	C 	0.2982	0.4955	0.8702	0.04
Mof_H 	H 	0.3644	0.5697	0.9432	0.018
Mof_C 	C 	0.0843	0.3439	0.5802	0.309
_end
