data_functionalizedCrystal
_audit_creation_method	'EQeq! by Chris Wilmer'
_symmetry_space_group_name_H-M	'P1'
_symmetry_Int_Tables_number	1
_symmetry_cell_setting	triclinic
loop_
_symmetry_equiv_pos_as_xyz
  x,y,z
_cell_length_a	10.5363
_cell_length_b	11.4698
_cell_length_c	13.4114
_cell_angle_alpha	69.028
_cell_angle_beta	78.406
_cell_angle_gamma	63.414
loop_
_atom_site_label
_atom_site_type_symbol
_atom_site_fract_x
_atom_site_fract_y
_atom_site_fract_z
_atom_site_charge
Mof_U 	U 	0.62382	0.71245	0.83696	0.006
Mof_Dy	Dy	0.60033	0.22942	0.7493	1.473
Mof_C 	C 	0.9964	0.3415	0.8538	-0.014
Mof_C 	C 	0.111	0.312	0.9105	-0.029
Mof_H 	H 	0.0958	0.3577	0.9597	0.079
Mof_C 	C 	0.2479	0.2151	0.8947	-0.064
Mof_C 	C 	0.2666	0.1419	0.8237	-0.09
Mof_C 	C 	0.1457	0.1648	0.7751	0.027
Mof_H 	H 	0.1557	0.1096	0.7349	0.041
Mof_C 	C 	0.0155	0.2656	0.7861	-0.073
Mof_C 	C 	0.626	0.9987	0.4515	-0.01
Mof_H 	H 	0.7126	0.998	0.4183	0.055
Mof_C 	C 	0.6186	0.8757	0.506	-0.038
Mof_C 	C 	0.4879	0.8759	0.5571	-0.038
Mof_C 	C 	0.8621	0.463	0.8607	0.274
Mof_C 	C 	0.3623	0.1927	0.9579	0.347
Mof_C 	C 	0.4083	0.041	0.7948	0.387
Mof_C 	C 	0.8964	0.2913	0.725	0.376
Mof_C 	C 	0.468	0.7474	0.6221	0.294
Mof_C 	C 	0.7431	0.7455	0.5084	0.266
Mof_O 	O 	0.8504	0.5353	0.9148	-0.203
Mof_O 	O 	0.7619	0.495	0.8031	-0.193
Mof_O 	O 	0.815	0.2338	0.772	-0.449
Mof_O 	O 	0.8877	0.3623	0.6283	-0.237
Mof_O 	O 	0.417	0.9201	0.82	-0.22
Mof_O 	O 	0.5021	0.0771	0.7519	-0.446
Mof_O 	O 	0.4836	0.1748	0.9167	-0.426
Mof_O 	O 	0.3263	0.1965	0.0524	-0.22
Mof_O 	O 	0.502	0.6951	0.7184	-0.195
Mof_O 	O 	0.4107	0.7015	0.5816	-0.279
Mof_O 	O 	0.733	0.6336	0.5336	-0.204
Mof_O 	O 	0.8661	0.7505	0.4791	-0.195
Mof_U 	U 	0.37618	0.28755	0.16304	0.005
Mof_Dy	Dy	0.39967	0.77058	0.2507	1.472
Mof_C 	C 	0.0036	0.6585	0.1462	-0.015
Mof_C 	C 	0.889	0.688	0.0895	-0.029
Mof_H 	H 	0.9042	0.6423	0.0403	0.078
Mof_C 	C 	0.7521	0.7849	0.1053	-0.064
Mof_C 	C 	0.7334	0.8581	0.1763	-0.09
Mof_C 	C 	0.8543	0.8352	0.2249	0.027
Mof_H 	H 	0.8443	0.8904	0.2651	0.041
Mof_C 	C 	0.9845	0.7344	0.2139	-0.073
Mof_C 	C 	0.374	0.0013	0.5485	-0.01
Mof_H 	H 	0.2874	0.002	0.5817	0.055
Mof_C 	C 	0.3814	0.1243	0.494	-0.038
Mof_C 	C 	0.5121	0.1241	0.4429	-0.038
Mof_C 	C 	0.1379	0.537	0.1393	0.274
Mof_C 	C 	0.6377	0.8073	0.0421	0.347
Mof_C 	C 	0.5917	0.959	0.2052	0.387
Mof_C 	C 	0.1036	0.7087	0.275	0.375
Mof_C 	C 	0.532	0.2526	0.3779	0.294
Mof_C 	C 	0.2569	0.2545	0.4916	0.266
Mof_O 	O 	0.1496	0.4647	0.0852	-0.204
Mof_O 	O 	0.2381	0.505	0.1969	-0.193
Mof_O 	O 	0.185	0.7662	0.228	-0.449
Mof_O 	O 	0.1123	0.6377	0.3717	-0.237
Mof_O 	O 	0.583	0.0799	0.18	-0.22
Mof_O 	O 	0.4979	0.9229	0.2481	-0.446
Mof_O 	O 	0.5164	0.8252	0.0833	-0.426
Mof_O 	O 	0.6737	0.8035	0.9476	-0.22
Mof_O 	O 	0.498	0.3049	0.2816	-0.195
Mof_O 	O 	0.5893	0.2985	0.4184	-0.279
Mof_O 	O 	0.267	0.3664	0.4664	-0.204
Mof_O 	O 	0.1339	0.2495	0.5209	-0.195
Mof_U 	U 	4.20516e-17	0.5	0.5	0.002
_end
