data_functionalizedCrystal
_audit_creation_method	'EQeq! by Chris Wilmer'
_symmetry_space_group_name_H-M	'P1'
_symmetry_Int_Tables_number	1
_symmetry_cell_setting	triclinic
loop_
_symmetry_equiv_pos_as_xyz
  x,y,z
_cell_length_a	16.183
_cell_length_b	28.455
_cell_length_c	17.23
_cell_angle_alpha	90
_cell_angle_beta	90
_cell_angle_gamma	90
loop_
_atom_site_label
_atom_site_type_symbol
_atom_site_fract_x
_atom_site_fract_y
_atom_site_fract_z
_atom_site_charge
Mof_Cd	Cd	0.84582	0.3688	0.02673	0.455
Mof_O 	O 	0.8784	0.36045	0.1637	-0.315
Mof_O 	O 	0.7493	0.36778	0.1288	-0.332
Mof_O 	O 	0.7655	0.39282	0.4467	-0.245
Mof_O 	O 	0.0058	0.63892	0.9849	-0.249
Mof_O 	O 	0.653	0.37333	0.3876	-0.246
Mof_N 	N 	0.8875	0.44589	0.049	-0.16
Mof_N 	N 	0.9188	0.62406	0.0842	-0.202
Mof_H 	H 	0.8709	0.6311	0.1055	0.142
Mof_N 	N 	0.8508	0.78713	0.9868	-0.141
Mof_C 	C 	0.8756	0.5296	0.0347	-0.19
Mof_H 	H 	0.8492	0.5552	0.0094	0.113
Mof_C 	C 	0.9459	0.4539	0.1017	0.093
Mof_H 	H 	0.9717	0.4275	0.1253	0.009
Mof_C 	C 	0.9354	0.5372	0.0897	0.134
Mof_C 	C 	0.8031	0.3619	0.1803	0.42
Mof_C 	C 	0.7758	0.3557	0.264	-0.515
Mof_H 	H 	0.8172	0.3362	0.2915	0.182
Mof_H 	H 	0.7227	0.3384	0.2647	0.184
Mof_C 	C 	0.765	0.4019	0.3081	0.379
Mof_C 	C 	0.8493	0.4254	0.3193	-0.715
Mof_H 	H 	0.8883	0.4027	0.3412	0.247
Mof_H 	H 	0.8436	0.4521	0.3548	0.228
Mof_H 	H 	0.8699	0.4365	0.2691	0.234
Mof_C 	C 	0.8546	0.4834	0.0168	0.102
Mof_H 	H 	0.8134	0.4786	0.9784	-0.008
Mof_C 	C 	0.9709	0.498	0.1238	-0.186
Mof_H 	H 	0.0125	0.5016	0.1623	0.072
Mof_C 	C 	0.9045	0.6962	0.0114	0.008
Mof_C 	C 	0.9654	0.5849	0.1143	-0.116
Mof_H 	H 	0.9644	0.5864	0.1717	0.051
Mof_H 	H 	0.0236	0.5884	0.0976	0.085
Mof_C 	C 	0.9461	0.6499	0.0253	0.209
Mof_C 	C 	0.8687	0.7218	0.0699	-0.092
Mof_H 	H 	0.862	0.7084	0.12	0.062
Mof_C 	C 	0.9095	0.7164	0.9386	-0.091
Mof_H 	H 	0.9313	0.6993	0.8959	0.068
Mof_C 	C 	0.8825	0.7615	0.9295	0.06
Mof_H 	H 	0.8865	0.7753	0.8795	0.021
Mof_C 	C 	0.8425	0.7668	0.0556	0.065
Mof_H 	H 	0.8174	0.784	0.0965	0.016
Mof_C 	C 	0.7055	0.435	0.2644	-0.695
Mof_H 	H 	0.73	0.4438	0.2145	0.232
Mof_H 	H 	0.6959	0.4633	0.2955	0.213
Mof_H 	H 	0.6529	0.4188	0.2555	0.232
Mof_C 	C 	0.7255	0.3884	0.3858	0.139
Mof_Cd	Cd	0.65418	0.8688	0.47327	0.455
Mof_O 	O 	0.6216	0.86045	0.3363	-0.315
Mof_O 	O 	0.7507	0.86778	0.3712	-0.331
Mof_O 	O 	0.7345	0.89282	0.0533	-0.244
Mof_O 	O 	0.4942	0.13892	0.5151	-0.248
Mof_O 	O 	0.847	0.87333	0.1124	-0.245
Mof_N 	N 	0.6125	0.94589	0.451	-0.159
Mof_N 	N 	0.5812	0.12406	0.4158	-0.201
Mof_H 	H 	0.6291	0.1311	0.3945	0.143
Mof_N 	N 	0.6492	0.28713	0.5132	-0.14
Mof_C 	C 	0.6244	0.0296	0.4653	-0.189
Mof_H 	H 	0.6508	0.0552	0.4906	0.114
Mof_C 	C 	0.5541	0.9539	0.3983	0.094
Mof_H 	H 	0.5283	0.9275	0.3747	0.01
Mof_C 	C 	0.5646	0.0372	0.4103	0.135
Mof_C 	C 	0.6969	0.8619	0.3197	0.421
Mof_C 	C 	0.7242	0.8557	0.236	-0.514
Mof_H 	H 	0.6828	0.8362	0.2085	0.183
Mof_H 	H 	0.7773	0.8384	0.2353	0.185
Mof_C 	C 	0.735	0.9019	0.1919	0.38
Mof_C 	C 	0.6507	0.9254	0.1807	-0.714
Mof_H 	H 	0.6117	0.9027	0.1588	0.248
Mof_H 	H 	0.6564	0.9521	0.1452	0.229
Mof_H 	H 	0.6301	0.9365	0.2309	0.235
Mof_C 	C 	0.6454	0.9834	0.4832	0.103
Mof_H 	H 	0.6866	0.9786	0.5216	-0.007
Mof_C 	C 	0.5291	0.998	0.3762	-0.185
Mof_H 	H 	0.4875	0.0016	0.3377	0.073
Mof_C 	C 	0.5955	0.1962	0.4886	0.009
Mof_C 	C 	0.5346	0.0849	0.3857	-0.115
Mof_H 	H 	0.5356	0.0864	0.3283	0.052
Mof_H 	H 	0.4764	0.0884	0.4024	0.086
Mof_C 	C 	0.5539	0.1499	0.4747	0.21
Mof_C 	C 	0.6313	0.2218	0.4301	-0.091
Mof_H 	H 	0.638	0.2084	0.38	0.063
Mof_C 	C 	0.5905	0.2164	0.5614	-0.09
Mof_H 	H 	0.5687	0.1993	0.6041	0.069
Mof_C 	C 	0.6175	0.2615	0.5705	0.061
Mof_H 	H 	0.6135	0.2753	0.6205	0.022
Mof_C 	C 	0.6575	0.2668	0.4444	0.066
Mof_H 	H 	0.6826	0.284	0.4035	0.017
Mof_C 	C 	0.7945	0.935	0.2356	-0.694
Mof_H 	H 	0.77	0.9438	0.2855	0.233
Mof_H 	H 	0.8041	0.9633	0.2045	0.214
Mof_H 	H 	0.8471	0.9188	0.2445	0.233
Mof_C 	C 	0.7745	0.8884	0.1142	0.14
Mof_Cd	Cd	0.84582	0.8688	0.97327	0.456
Mof_O 	O 	0.8784	0.86045	0.8363	-0.314
Mof_O 	O 	0.7493	0.86778	0.8712	-0.331
Mof_O 	O 	0.7655	0.89282	0.5533	-0.244
Mof_O 	O 	0.0058	0.13892	0.0151	-0.248
Mof_O 	O 	0.653	0.87333	0.6124	-0.245
Mof_N 	N 	0.8875	0.94589	0.951	-0.159
Mof_N 	N 	0.9188	0.12406	0.9158	-0.201
Mof_H 	H 	0.8709	0.1311	0.8945	0.143
Mof_N 	N 	0.8508	0.28713	0.0132	-0.14
Mof_C 	C 	0.8756	0.0296	0.9653	-0.189
Mof_H 	H 	0.8492	0.0552	0.9906	0.114
Mof_C 	C 	0.9459	0.9539	0.8983	0.094
Mof_H 	H 	0.9717	0.9275	0.8747	0.01
Mof_C 	C 	0.9354	0.0372	0.9103	0.135
Mof_C 	C 	0.8031	0.8619	0.8197	0.421
Mof_C 	C 	0.7758	0.8557	0.736	-0.514
Mof_H 	H 	0.8172	0.8362	0.7085	0.183
Mof_H 	H 	0.7227	0.8384	0.7353	0.185
Mof_C 	C 	0.765	0.9019	0.6919	0.38
Mof_C 	C 	0.8493	0.9254	0.6807	-0.714
Mof_H 	H 	0.8883	0.9027	0.6588	0.248
Mof_H 	H 	0.8436	0.9521	0.6452	0.229
Mof_H 	H 	0.8699	0.9365	0.7309	0.235
Mof_C 	C 	0.8546	0.9834	0.9832	0.103
Mof_H 	H 	0.8134	0.9786	0.0216	-0.007
Mof_C 	C 	0.9709	0.998	0.8762	-0.185
Mof_H 	H 	0.0125	0.0016	0.8377	0.073
Mof_C 	C 	0.9045	0.1962	0.9886	0.009
Mof_C 	C 	0.9654	0.0849	0.8857	-0.115
Mof_H 	H 	0.9644	0.0864	0.8283	0.052
Mof_H 	H 	0.0236	0.0884	0.9024	0.086
Mof_C 	C 	0.9461	0.1499	0.9747	0.21
Mof_C 	C 	0.8687	0.2218	0.9301	-0.091
Mof_H 	H 	0.862	0.2084	0.88	0.063
Mof_C 	C 	0.9095	0.2164	0.0614	-0.09
Mof_H 	H 	0.9313	0.1993	0.1041	0.069
Mof_C 	C 	0.8825	0.2615	0.0705	0.061
Mof_H 	H 	0.8865	0.2753	0.1205	0.022
Mof_C 	C 	0.8425	0.2668	0.9444	0.066
Mof_H 	H 	0.8174	0.284	0.9035	0.017
Mof_C 	C 	0.7055	0.935	0.7356	-0.694
Mof_H 	H 	0.73	0.9438	0.7855	0.233
Mof_H 	H 	0.6959	0.9633	0.7045	0.214
Mof_H 	H 	0.6529	0.9188	0.7445	0.233
Mof_C 	C 	0.7255	0.8884	0.6142	0.14
Mof_Cd	Cd	0.65418	0.3688	0.52673	0.456
Mof_O 	O 	0.6216	0.36045	0.6637	-0.314
Mof_O 	O 	0.7507	0.36778	0.6288	-0.331
Mof_O 	O 	0.7345	0.39282	0.9467	-0.244
Mof_O 	O 	0.4942	0.63892	0.4849	-0.248
Mof_O 	O 	0.847	0.37333	0.8876	-0.245
Mof_N 	N 	0.6125	0.44589	0.549	-0.159
Mof_N 	N 	0.5812	0.62406	0.5842	-0.201
Mof_H 	H 	0.6291	0.6311	0.6055	0.143
Mof_N 	N 	0.6492	0.78713	0.4868	-0.14
Mof_C 	C 	0.6244	0.5296	0.5347	-0.189
Mof_H 	H 	0.6508	0.5552	0.5094	0.114
Mof_C 	C 	0.5541	0.4539	0.6017	0.094
Mof_H 	H 	0.5283	0.4275	0.6253	0.01
Mof_C 	C 	0.5646	0.5372	0.5897	0.135
Mof_C 	C 	0.6969	0.3619	0.6803	0.421
Mof_C 	C 	0.7242	0.3557	0.764	-0.514
Mof_H 	H 	0.6828	0.3362	0.7915	0.183
Mof_H 	H 	0.7773	0.3384	0.7647	0.185
Mof_C 	C 	0.735	0.4019	0.8081	0.38
Mof_C 	C 	0.6507	0.4254	0.8193	-0.714
Mof_H 	H 	0.6117	0.4027	0.8412	0.248
Mof_H 	H 	0.6564	0.4521	0.8548	0.229
Mof_H 	H 	0.6301	0.4365	0.7691	0.235
Mof_C 	C 	0.6454	0.4834	0.5168	0.103
Mof_H 	H 	0.6866	0.4786	0.4784	-0.007
Mof_C 	C 	0.5291	0.498	0.6238	-0.185
Mof_H 	H 	0.4875	0.5016	0.6623	0.073
Mof_C 	C 	0.5955	0.6962	0.5114	0.009
Mof_C 	C 	0.5346	0.5849	0.6143	-0.115
Mof_H 	H 	0.5356	0.5864	0.6717	0.052
Mof_H 	H 	0.4764	0.5884	0.5976	0.086
Mof_C 	C 	0.5539	0.6499	0.5253	0.21
Mof_C 	C 	0.6313	0.7218	0.5699	-0.091
Mof_H 	H 	0.638	0.7084	0.62	0.063
Mof_C 	C 	0.5905	0.7164	0.4386	-0.09
Mof_H 	H 	0.5687	0.6993	0.3959	0.069
Mof_C 	C 	0.6175	0.7615	0.4295	0.061
Mof_H 	H 	0.6135	0.7753	0.3795	0.022
Mof_C 	C 	0.6575	0.7668	0.5556	0.066
Mof_H 	H 	0.6826	0.784	0.5965	0.017
Mof_C 	C 	0.7945	0.435	0.7644	-0.694
Mof_H 	H 	0.77	0.4438	0.7145	0.233
Mof_H 	H 	0.8041	0.4633	0.7955	0.214
Mof_H 	H 	0.8471	0.4188	0.7555	0.233
Mof_C 	C 	0.7745	0.3884	0.8858	0.14
Mof_Cd	Cd	0.34582	0.8688	0.02673	0.456
Mof_O 	O 	0.3784	0.86045	0.1637	-0.314
Mof_O 	O 	0.2493	0.86778	0.1288	-0.331
Mof_O 	O 	0.2655	0.89282	0.4467	-0.244
Mof_O 	O 	0.5058	0.13892	0.9849	-0.248
Mof_O 	O 	0.153	0.87333	0.3876	-0.245
Mof_N 	N 	0.3875	0.94589	0.049	-0.159
Mof_N 	N 	0.4188	0.12406	0.0842	-0.201
Mof_H 	H 	0.3709	0.1311	0.1055	0.143
Mof_N 	N 	0.3508	0.28713	0.9868	-0.14
Mof_C 	C 	0.3756	0.0296	0.0347	-0.189
Mof_H 	H 	0.3492	0.0552	0.0094	0.114
Mof_C 	C 	0.4459	0.9539	0.1017	0.094
Mof_H 	H 	0.4717	0.9275	0.1253	0.01
Mof_C 	C 	0.4354	0.0372	0.0897	0.135
Mof_C 	C 	0.3031	0.8619	0.1803	0.421
Mof_C 	C 	0.2758	0.8557	0.264	-0.514
Mof_H 	H 	0.3172	0.8362	0.2915	0.183
Mof_H 	H 	0.2227	0.8384	0.2647	0.185
Mof_C 	C 	0.265	0.9019	0.3081	0.38
Mof_C 	C 	0.3493	0.9254	0.3193	-0.714
Mof_H 	H 	0.3883	0.9027	0.3412	0.248
Mof_H 	H 	0.3436	0.9521	0.3548	0.229
Mof_H 	H 	0.3699	0.9365	0.2691	0.235
Mof_C 	C 	0.3546	0.9834	0.0168	0.103
Mof_H 	H 	0.3134	0.9786	0.9784	-0.007
Mof_C 	C 	0.4709	0.998	0.1238	-0.185
Mof_H 	H 	0.5125	0.0016	0.1623	0.073
Mof_C 	C 	0.4045	0.1962	0.0114	0.009
Mof_C 	C 	0.4654	0.0849	0.1143	-0.115
Mof_H 	H 	0.4644	0.0864	0.1717	0.052
Mof_H 	H 	0.5236	0.0884	0.0976	0.086
Mof_C 	C 	0.4461	0.1499	0.0253	0.21
Mof_C 	C 	0.3687	0.2218	0.0699	-0.091
Mof_H 	H 	0.362	0.2084	0.12	0.063
Mof_C 	C 	0.4095	0.2164	0.9386	-0.09
Mof_H 	H 	0.4313	0.1993	0.8959	0.069
Mof_C 	C 	0.3825	0.2615	0.9295	0.061
Mof_H 	H 	0.3865	0.2753	0.8795	0.022
Mof_C 	C 	0.3425	0.2668	0.0556	0.066
Mof_H 	H 	0.3174	0.284	0.0965	0.017
Mof_C 	C 	0.2055	0.935	0.2644	-0.694
Mof_H 	H 	0.23	0.9438	0.2145	0.233
Mof_H 	H 	0.1959	0.9633	0.2955	0.214
Mof_H 	H 	0.1529	0.9188	0.2555	0.233
Mof_C 	C 	0.2255	0.8884	0.3858	0.14
Mof_Cd	Cd	0.15418	0.3688	0.47327	0.456
Mof_O 	O 	0.1216	0.36045	0.3363	-0.314
Mof_O 	O 	0.2507	0.36778	0.3712	-0.331
Mof_O 	O 	0.2345	0.39282	0.0533	-0.244
Mof_O 	O 	0.9942	0.63892	0.5151	-0.248
Mof_O 	O 	0.347	0.37333	0.1124	-0.245
Mof_N 	N 	0.1125	0.44589	0.451	-0.159
Mof_N 	N 	0.0812	0.62406	0.4158	-0.201
Mof_H 	H 	0.1291	0.6311	0.3945	0.143
Mof_N 	N 	0.1492	0.78713	0.5132	-0.14
Mof_C 	C 	0.1244	0.5296	0.4653	-0.189
Mof_H 	H 	0.1508	0.5552	0.4906	0.114
Mof_C 	C 	0.0541	0.4539	0.3983	0.094
Mof_H 	H 	0.0283	0.4275	0.3747	0.01
Mof_C 	C 	0.0646	0.5372	0.4103	0.135
Mof_C 	C 	0.1969	0.3619	0.3197	0.421
Mof_C 	C 	0.2242	0.3557	0.236	-0.514
Mof_H 	H 	0.1828	0.3362	0.2085	0.183
Mof_H 	H 	0.2773	0.3384	0.2353	0.185
Mof_C 	C 	0.235	0.4019	0.1919	0.38
Mof_C 	C 	0.1507	0.4254	0.1807	-0.714
Mof_H 	H 	0.1117	0.4027	0.1588	0.248
Mof_H 	H 	0.1564	0.4521	0.1452	0.229
Mof_H 	H 	0.1301	0.4365	0.2309	0.235
Mof_C 	C 	0.1454	0.4834	0.4832	0.103
Mof_H 	H 	0.1866	0.4786	0.5216	-0.007
Mof_C 	C 	0.0291	0.498	0.3762	-0.185
Mof_H 	H 	0.9875	0.5016	0.3377	0.073
Mof_C 	C 	0.0955	0.6962	0.4886	0.009
Mof_C 	C 	0.0346	0.5849	0.3857	-0.115
Mof_H 	H 	0.0356	0.5864	0.3283	0.052
Mof_H 	H 	0.9764	0.5884	0.4024	0.086
Mof_C 	C 	0.0539	0.6499	0.4747	0.21
Mof_C 	C 	0.1313	0.7218	0.4301	-0.091
Mof_H 	H 	0.138	0.7084	0.38	0.063
Mof_C 	C 	0.0905	0.7164	0.5614	-0.09
Mof_H 	H 	0.0687	0.6993	0.6041	0.069
Mof_C 	C 	0.1175	0.7615	0.5705	0.061
Mof_H 	H 	0.1135	0.7753	0.6205	0.022
Mof_C 	C 	0.1575	0.7668	0.4444	0.066
Mof_H 	H 	0.1826	0.784	0.4035	0.017
Mof_C 	C 	0.2945	0.435	0.2356	-0.694
Mof_H 	H 	0.27	0.4438	0.2855	0.233
Mof_H 	H 	0.3041	0.4633	0.2045	0.214
Mof_H 	H 	0.3471	0.4188	0.2445	0.233
Mof_C 	C 	0.2745	0.3884	0.1142	0.14
Mof_Cd	Cd	0.34582	0.3688	0.97327	0.456
Mof_O 	O 	0.3784	0.36045	0.8363	-0.314
Mof_O 	O 	0.2493	0.36778	0.8712	-0.331
Mof_O 	O 	0.2655	0.39282	0.5533	-0.244
Mof_O 	O 	0.5058	0.63892	0.0151	-0.248
Mof_O 	O 	0.153	0.37333	0.6124	-0.245
Mof_N 	N 	0.3875	0.44589	0.951	-0.159
Mof_N 	N 	0.4188	0.62406	0.9158	-0.201
Mof_H 	H 	0.3709	0.6311	0.8945	0.143
Mof_N 	N 	0.3508	0.78713	0.0132	-0.14
Mof_C 	C 	0.3756	0.5296	0.9653	-0.189
Mof_H 	H 	0.3492	0.5552	0.9906	0.114
Mof_C 	C 	0.4459	0.4539	0.8983	0.094
Mof_H 	H 	0.4717	0.4275	0.8747	0.01
Mof_C 	C 	0.4354	0.5372	0.9103	0.135
Mof_C 	C 	0.3031	0.3619	0.8197	0.421
Mof_C 	C 	0.2758	0.3557	0.736	-0.514
Mof_H 	H 	0.3172	0.3362	0.7085	0.183
Mof_H 	H 	0.2227	0.3384	0.7353	0.185
Mof_C 	C 	0.265	0.4019	0.6919	0.38
Mof_C 	C 	0.3493	0.4254	0.6807	-0.714
Mof_H 	H 	0.3883	0.4027	0.6588	0.248
Mof_H 	H 	0.3436	0.4521	0.6452	0.229
Mof_H 	H 	0.3699	0.4365	0.7309	0.235
Mof_C 	C 	0.3546	0.4834	0.9832	0.103
Mof_H 	H 	0.3134	0.4786	0.0216	-0.007
Mof_C 	C 	0.4709	0.498	0.8762	-0.185
Mof_H 	H 	0.5125	0.5016	0.8377	0.073
Mof_C 	C 	0.4045	0.6962	0.9886	0.009
Mof_C 	C 	0.4654	0.5849	0.8857	-0.115
Mof_H 	H 	0.4644	0.5864	0.8283	0.052
Mof_H 	H 	0.5236	0.5884	0.9024	0.086
Mof_C 	C 	0.4461	0.6499	0.9747	0.21
Mof_C 	C 	0.3687	0.7218	0.9301	-0.091
Mof_H 	H 	0.362	0.7084	0.88	0.063
Mof_C 	C 	0.4095	0.7164	0.0614	-0.09
Mof_H 	H 	0.4313	0.6993	0.1041	0.069
Mof_C 	C 	0.3825	0.7615	0.0705	0.061
Mof_H 	H 	0.3865	0.7753	0.1205	0.022
Mof_C 	C 	0.3425	0.7668	0.9444	0.066
Mof_H 	H 	0.3174	0.784	0.9035	0.017
Mof_C 	C 	0.2055	0.435	0.7356	-0.694
Mof_H 	H 	0.23	0.4438	0.7855	0.233
Mof_H 	H 	0.1959	0.4633	0.7045	0.214
Mof_H 	H 	0.1529	0.4188	0.7445	0.233
Mof_C 	C 	0.2255	0.3884	0.6142	0.14
Mof_Cd	Cd	0.15418	0.8688	0.52673	0.456
Mof_O 	O 	0.1216	0.86045	0.6637	-0.314
Mof_O 	O 	0.2507	0.86778	0.6288	-0.331
Mof_O 	O 	0.2345	0.89282	0.9467	-0.244
Mof_O 	O 	0.9942	0.13892	0.4849	-0.248
Mof_O 	O 	0.347	0.87333	0.8876	-0.245
Mof_N 	N 	0.1125	0.94589	0.549	-0.159
Mof_N 	N 	0.0812	0.12406	0.5842	-0.201
Mof_H 	H 	0.1291	0.1311	0.6055	0.143
Mof_N 	N 	0.1492	0.28713	0.4868	-0.14
Mof_C 	C 	0.1244	0.0296	0.5347	-0.189
Mof_H 	H 	0.1508	0.0552	0.5094	0.114
Mof_C 	C 	0.0541	0.9539	0.6017	0.094
Mof_H 	H 	0.0283	0.9275	0.6253	0.01
Mof_C 	C 	0.0646	0.0372	0.5897	0.135
Mof_C 	C 	0.1969	0.8619	0.6803	0.421
Mof_C 	C 	0.2242	0.8557	0.764	-0.514
Mof_H 	H 	0.1828	0.8362	0.7915	0.183
Mof_H 	H 	0.2773	0.8384	0.7647	0.185
Mof_C 	C 	0.235	0.9019	0.8081	0.38
Mof_C 	C 	0.1507	0.9254	0.8193	-0.714
Mof_H 	H 	0.1117	0.9027	0.8412	0.248
Mof_H 	H 	0.1564	0.9521	0.8548	0.229
Mof_H 	H 	0.1301	0.9365	0.7691	0.235
Mof_C 	C 	0.1454	0.9834	0.5168	0.103
Mof_H 	H 	0.1866	0.9786	0.4784	-0.007
Mof_C 	C 	0.0291	0.998	0.6238	-0.185
Mof_H 	H 	0.9875	0.0016	0.6623	0.073
Mof_C 	C 	0.0955	0.1962	0.5114	0.009
Mof_C 	C 	0.0346	0.0849	0.6143	-0.115
Mof_H 	H 	0.0356	0.0864	0.6717	0.052
Mof_H 	H 	0.9764	0.0884	0.5976	0.086
Mof_C 	C 	0.0539	0.1499	0.5253	0.21
Mof_C 	C 	0.1313	0.2218	0.5699	-0.091
Mof_H 	H 	0.138	0.2084	0.62	0.063
Mof_C 	C 	0.0905	0.2164	0.4386	-0.09
Mof_H 	H 	0.0687	0.1993	0.3959	0.069
Mof_C 	C 	0.1175	0.2615	0.4295	0.061
Mof_H 	H 	0.1135	0.2753	0.3795	0.022
Mof_C 	C 	0.1575	0.2668	0.5556	0.066
Mof_H 	H 	0.1826	0.284	0.5965	0.017
Mof_C 	C 	0.2945	0.935	0.7644	-0.694
Mof_H 	H 	0.27	0.9438	0.7145	0.233
Mof_H 	H 	0.3041	0.9633	0.7955	0.214
Mof_H 	H 	0.3471	0.9188	0.7555	0.233
Mof_C 	C 	0.2745	0.8884	0.8858	0.14
Mof_Cd	Cd	0.65418	0.6312	0.02673	0.456
Mof_O 	O 	0.6216	0.63955	0.1637	-0.314
Mof_O 	O 	0.7507	0.63222	0.1288	-0.331
Mof_O 	O 	0.7345	0.60718	0.4467	-0.244
Mof_O 	O 	0.4942	0.36108	0.9849	-0.248
Mof_O 	O 	0.847	0.62667	0.3876	-0.245
Mof_N 	N 	0.6125	0.55411	0.049	-0.159
Mof_N 	N 	0.5812	0.37594	0.0842	-0.201
Mof_H 	H 	0.6291	0.3689	0.1055	0.143
Mof_N 	N 	0.6492	0.21287	0.9868	-0.14
Mof_C 	C 	0.6244	0.4704	0.0347	-0.189
Mof_H 	H 	0.6508	0.4448	0.0094	0.114
Mof_C 	C 	0.5541	0.5461	0.1017	0.094
Mof_H 	H 	0.5283	0.5725	0.1253	0.01
Mof_C 	C 	0.5646	0.4628	0.0897	0.135
Mof_C 	C 	0.6969	0.6381	0.1803	0.421
Mof_C 	C 	0.7242	0.6443	0.264	-0.514
Mof_H 	H 	0.6828	0.6638	0.2915	0.183
Mof_H 	H 	0.7773	0.6616	0.2647	0.185
Mof_C 	C 	0.735	0.5981	0.3081	0.38
Mof_C 	C 	0.6507	0.5746	0.3193	-0.714
Mof_H 	H 	0.6117	0.5973	0.3412	0.248
Mof_H 	H 	0.6564	0.5479	0.3548	0.229
Mof_H 	H 	0.6301	0.5635	0.2691	0.235
Mof_C 	C 	0.6454	0.5166	0.0168	0.103
Mof_H 	H 	0.6866	0.5214	0.9784	-0.007
Mof_C 	C 	0.5291	0.502	0.1238	-0.185
Mof_H 	H 	0.4875	0.4984	0.1623	0.073
Mof_C 	C 	0.5955	0.3038	0.0114	0.009
Mof_C 	C 	0.5346	0.4151	0.1143	-0.115
Mof_H 	H 	0.5356	0.4136	0.1717	0.052
Mof_H 	H 	0.4764	0.4116	0.0976	0.086
Mof_C 	C 	0.5539	0.3501	0.0253	0.21
Mof_C 	C 	0.6313	0.2782	0.0699	-0.091
Mof_H 	H 	0.638	0.2916	0.12	0.063
Mof_C 	C 	0.5905	0.2836	0.9386	-0.09
Mof_H 	H 	0.5687	0.3007	0.8959	0.069
Mof_C 	C 	0.6175	0.2385	0.9295	0.061
Mof_H 	H 	0.6135	0.2247	0.8795	0.022
Mof_C 	C 	0.6575	0.2332	0.0556	0.066
Mof_H 	H 	0.6826	0.216	0.0965	0.017
Mof_C 	C 	0.7945	0.565	0.2644	-0.694
Mof_H 	H 	0.77	0.5562	0.2145	0.233
Mof_H 	H 	0.8041	0.5367	0.2955	0.214
Mof_H 	H 	0.8471	0.5812	0.2555	0.233
Mof_C 	C 	0.7745	0.6116	0.3858	0.14
Mof_Cd	Cd	0.84582	0.1312	0.47327	0.456
Mof_O 	O 	0.8784	0.13955	0.3363	-0.314
Mof_O 	O 	0.7493	0.13222	0.3712	-0.331
Mof_O 	O 	0.7655	0.10718	0.0533	-0.244
Mof_O 	O 	0.0058	0.86108	0.5151	-0.248
Mof_O 	O 	0.653	0.12667	0.1124	-0.245
Mof_N 	N 	0.8875	0.05411	0.451	-0.159
Mof_N 	N 	0.9188	0.87594	0.4158	-0.201
Mof_H 	H 	0.8709	0.8689	0.3945	0.143
Mof_N 	N 	0.8508	0.71287	0.5132	-0.14
Mof_C 	C 	0.8756	0.9704	0.4653	-0.189
Mof_H 	H 	0.8492	0.9448	0.4906	0.114
Mof_C 	C 	0.9459	0.0461	0.3983	0.094
Mof_H 	H 	0.9717	0.0725	0.3747	0.01
Mof_C 	C 	0.9354	0.9628	0.4103	0.135
Mof_C 	C 	0.8031	0.1381	0.3197	0.421
Mof_C 	C 	0.7758	0.1443	0.236	-0.514
Mof_H 	H 	0.8172	0.1638	0.2085	0.183
Mof_H 	H 	0.7227	0.1616	0.2353	0.185
Mof_C 	C 	0.765	0.0981	0.1919	0.38
Mof_C 	C 	0.8493	0.0746	0.1807	-0.714
Mof_H 	H 	0.8883	0.0973	0.1588	0.248
Mof_H 	H 	0.8436	0.0479	0.1452	0.229
Mof_H 	H 	0.8699	0.0635	0.2309	0.235
Mof_C 	C 	0.8546	0.0166	0.4832	0.103
Mof_H 	H 	0.8134	0.0214	0.5216	-0.007
Mof_C 	C 	0.9709	0.002	0.3762	-0.185
Mof_H 	H 	0.0125	0.9984	0.3377	0.073
Mof_C 	C 	0.9045	0.8038	0.4886	0.009
Mof_C 	C 	0.9654	0.9151	0.3857	-0.115
Mof_H 	H 	0.9644	0.9136	0.3283	0.052
Mof_H 	H 	0.0236	0.9116	0.4024	0.086
Mof_C 	C 	0.9461	0.8501	0.4747	0.21
Mof_C 	C 	0.8687	0.7782	0.4301	-0.091
Mof_H 	H 	0.862	0.7916	0.38	0.063
Mof_C 	C 	0.9095	0.7836	0.5614	-0.09
Mof_H 	H 	0.9313	0.8007	0.6041	0.069
Mof_C 	C 	0.8825	0.7385	0.5705	0.061
Mof_H 	H 	0.8865	0.7247	0.6205	0.022
Mof_C 	C 	0.8425	0.7332	0.4444	0.066
Mof_H 	H 	0.8174	0.716	0.4035	0.017
Mof_C 	C 	0.7055	0.065	0.2356	-0.694
Mof_H 	H 	0.73	0.0562	0.2855	0.233
Mof_H 	H 	0.6959	0.0367	0.2045	0.214
Mof_H 	H 	0.6529	0.0812	0.2445	0.233
Mof_C 	C 	0.7255	0.1116	0.1142	0.14
Mof_Cd	Cd	0.65418	0.1312	0.97327	0.456
Mof_O 	O 	0.6216	0.13955	0.8363	-0.314
Mof_O 	O 	0.7507	0.13222	0.8712	-0.331
Mof_O 	O 	0.7345	0.10718	0.5533	-0.244
Mof_O 	O 	0.4942	0.86108	0.0151	-0.248
Mof_O 	O 	0.847	0.12667	0.6124	-0.245
Mof_N 	N 	0.6125	0.05411	0.951	-0.159
Mof_N 	N 	0.5812	0.87594	0.9158	-0.201
Mof_H 	H 	0.6291	0.8689	0.8945	0.143
Mof_N 	N 	0.6492	0.71287	0.0132	-0.14
Mof_C 	C 	0.6244	0.9704	0.9653	-0.189
Mof_H 	H 	0.6508	0.9448	0.9906	0.114
Mof_C 	C 	0.5541	0.0461	0.8983	0.094
Mof_H 	H 	0.5283	0.0725	0.8747	0.01
Mof_C 	C 	0.5646	0.9628	0.9103	0.135
Mof_C 	C 	0.6969	0.1381	0.8197	0.421
Mof_C 	C 	0.7242	0.1443	0.736	-0.514
Mof_H 	H 	0.6828	0.1638	0.7085	0.183
Mof_H 	H 	0.7773	0.1616	0.7353	0.185
Mof_C 	C 	0.735	0.0981	0.6919	0.38
Mof_C 	C 	0.6507	0.0746	0.6807	-0.714
Mof_H 	H 	0.6117	0.0973	0.6588	0.248
Mof_H 	H 	0.6564	0.0479	0.6452	0.229
Mof_H 	H 	0.6301	0.0635	0.7309	0.235
Mof_C 	C 	0.6454	0.0166	0.9832	0.103
Mof_H 	H 	0.6866	0.0214	0.0216	-0.007
Mof_C 	C 	0.5291	0.002	0.8762	-0.185
Mof_H 	H 	0.4875	0.9984	0.8377	0.073
Mof_C 	C 	0.5955	0.8038	0.9886	0.009
Mof_C 	C 	0.5346	0.9151	0.8857	-0.115
Mof_H 	H 	0.5356	0.9136	0.8283	0.052
Mof_H 	H 	0.4764	0.9116	0.9024	0.086
Mof_C 	C 	0.5539	0.8501	0.9747	0.21
Mof_C 	C 	0.6313	0.7782	0.9301	-0.091
Mof_H 	H 	0.638	0.7916	0.88	0.063
Mof_C 	C 	0.5905	0.7836	0.0614	-0.09
Mof_H 	H 	0.5687	0.8007	0.1041	0.069
Mof_C 	C 	0.6175	0.7385	0.0705	0.061
Mof_H 	H 	0.6135	0.7247	0.1205	0.022
Mof_C 	C 	0.6575	0.7332	0.9444	0.066
Mof_H 	H 	0.6826	0.716	0.9035	0.017
Mof_C 	C 	0.7945	0.065	0.7356	-0.694
Mof_H 	H 	0.77	0.0562	0.7855	0.233
Mof_H 	H 	0.8041	0.0367	0.7045	0.214
Mof_H 	H 	0.8471	0.0812	0.7445	0.233
Mof_C 	C 	0.7745	0.1116	0.6142	0.14
Mof_Cd	Cd	0.84582	0.6312	0.52673	0.456
Mof_O 	O 	0.8784	0.63955	0.6637	-0.314
Mof_O 	O 	0.7493	0.63222	0.6288	-0.331
Mof_O 	O 	0.7655	0.60718	0.9467	-0.244
Mof_O 	O 	0.0058	0.36108	0.4849	-0.248
Mof_O 	O 	0.653	0.62667	0.8876	-0.245
Mof_N 	N 	0.8875	0.55411	0.549	-0.159
Mof_N 	N 	0.9188	0.37594	0.5842	-0.201
Mof_H 	H 	0.8709	0.3689	0.6055	0.143
Mof_N 	N 	0.8508	0.21287	0.4868	-0.14
Mof_C 	C 	0.8756	0.4704	0.5347	-0.189
Mof_H 	H 	0.8492	0.4448	0.5094	0.114
Mof_C 	C 	0.9459	0.5461	0.6017	0.094
Mof_H 	H 	0.9717	0.5725	0.6253	0.01
Mof_C 	C 	0.9354	0.4628	0.5897	0.135
Mof_C 	C 	0.8031	0.6381	0.6803	0.421
Mof_C 	C 	0.7758	0.6443	0.764	-0.514
Mof_H 	H 	0.8172	0.6638	0.7915	0.183
Mof_H 	H 	0.7227	0.6616	0.7647	0.185
Mof_C 	C 	0.765	0.5981	0.8081	0.38
Mof_C 	C 	0.8493	0.5746	0.8193	-0.714
Mof_H 	H 	0.8883	0.5973	0.8412	0.248
Mof_H 	H 	0.8436	0.5479	0.8548	0.229
Mof_H 	H 	0.8699	0.5635	0.7691	0.235
Mof_C 	C 	0.8546	0.5166	0.5168	0.103
Mof_H 	H 	0.8134	0.5214	0.4784	-0.007
Mof_C 	C 	0.9709	0.502	0.6238	-0.185
Mof_H 	H 	0.0125	0.4984	0.6623	0.073
Mof_C 	C 	0.9045	0.3038	0.5114	0.009
Mof_C 	C 	0.9654	0.4151	0.6143	-0.115
Mof_H 	H 	0.9644	0.4136	0.6717	0.052
Mof_H 	H 	0.0236	0.4116	0.5976	0.086
Mof_C 	C 	0.9461	0.3501	0.5253	0.21
Mof_C 	C 	0.8687	0.2782	0.5699	-0.091
Mof_H 	H 	0.862	0.2916	0.62	0.063
Mof_C 	C 	0.9095	0.2836	0.4386	-0.09
Mof_H 	H 	0.9313	0.3007	0.3959	0.069
Mof_C 	C 	0.8825	0.2385	0.4295	0.061
Mof_H 	H 	0.8865	0.2247	0.3795	0.022
Mof_C 	C 	0.8425	0.2332	0.5556	0.066
Mof_H 	H 	0.8174	0.216	0.5965	0.017
Mof_C 	C 	0.7055	0.565	0.7644	-0.694
Mof_H 	H 	0.73	0.5562	0.7145	0.233
Mof_H 	H 	0.6959	0.5367	0.7955	0.214
Mof_H 	H 	0.6529	0.5812	0.7555	0.233
Mof_C 	C 	0.7255	0.6116	0.8858	0.14
Mof_Cd	Cd	0.15418	0.1312	0.02673	0.456
Mof_O 	O 	0.1216	0.13955	0.1637	-0.314
Mof_O 	O 	0.2507	0.13222	0.1288	-0.331
Mof_O 	O 	0.2345	0.10718	0.4467	-0.244
Mof_O 	O 	0.9942	0.86108	0.9849	-0.248
Mof_O 	O 	0.347	0.12667	0.3876	-0.245
Mof_N 	N 	0.1125	0.05411	0.049	-0.159
Mof_N 	N 	0.0812	0.87594	0.0842	-0.201
Mof_H 	H 	0.1291	0.8689	0.1055	0.143
Mof_N 	N 	0.1492	0.71287	0.9868	-0.14
Mof_C 	C 	0.1244	0.9704	0.0347	-0.189
Mof_H 	H 	0.1508	0.9448	0.0094	0.114
Mof_C 	C 	0.0541	0.0461	0.1017	0.094
Mof_H 	H 	0.0283	0.0725	0.1253	0.01
Mof_C 	C 	0.0646	0.9628	0.0897	0.135
Mof_C 	C 	0.1969	0.1381	0.1803	0.421
Mof_C 	C 	0.2242	0.1443	0.264	-0.514
Mof_H 	H 	0.1828	0.1638	0.2915	0.183
Mof_H 	H 	0.2773	0.1616	0.2647	0.185
Mof_C 	C 	0.235	0.0981	0.3081	0.38
Mof_C 	C 	0.1507	0.0746	0.3193	-0.714
Mof_H 	H 	0.1117	0.0973	0.3412	0.248
Mof_H 	H 	0.1564	0.0479	0.3548	0.229
Mof_H 	H 	0.1301	0.0635	0.2691	0.235
Mof_C 	C 	0.1454	0.0166	0.0168	0.103
Mof_H 	H 	0.1866	0.0214	0.9784	-0.007
Mof_C 	C 	0.0291	0.002	0.1238	-0.185
Mof_H 	H 	0.9875	0.9984	0.1623	0.073
Mof_C 	C 	0.0955	0.8038	0.0114	0.009
Mof_C 	C 	0.0346	0.9151	0.1143	-0.115
Mof_H 	H 	0.0356	0.9136	0.1717	0.052
Mof_H 	H 	0.9764	0.9116	0.0976	0.086
Mof_C 	C 	0.0539	0.8501	0.0253	0.21
Mof_C 	C 	0.1313	0.7782	0.0699	-0.091
Mof_H 	H 	0.138	0.7916	0.12	0.063
Mof_C 	C 	0.0905	0.7836	0.9386	-0.09
Mof_H 	H 	0.0687	0.8007	0.8959	0.069
Mof_C 	C 	0.1175	0.7385	0.9295	0.061
Mof_H 	H 	0.1135	0.7247	0.8795	0.022
Mof_C 	C 	0.1575	0.7332	0.0556	0.066
Mof_H 	H 	0.1826	0.716	0.0965	0.017
Mof_C 	C 	0.2945	0.065	0.2644	-0.694
Mof_H 	H 	0.27	0.0562	0.2145	0.233
Mof_H 	H 	0.3041	0.0367	0.2955	0.214
Mof_H 	H 	0.3471	0.0812	0.2555	0.233
Mof_C 	C 	0.2745	0.1116	0.3858	0.14
Mof_Cd	Cd	0.34582	0.6312	0.47327	0.456
Mof_O 	O 	0.3784	0.63955	0.3363	-0.314
Mof_O 	O 	0.2493	0.63222	0.3712	-0.331
Mof_O 	O 	0.2655	0.60718	0.0533	-0.244
Mof_O 	O 	0.5058	0.36108	0.5151	-0.248
Mof_O 	O 	0.153	0.62667	0.1124	-0.245
Mof_N 	N 	0.3875	0.55411	0.451	-0.159
Mof_N 	N 	0.4188	0.37594	0.4158	-0.201
Mof_H 	H 	0.3709	0.3689	0.3945	0.143
Mof_N 	N 	0.3508	0.21287	0.5132	-0.14
Mof_C 	C 	0.3756	0.4704	0.4653	-0.189
Mof_H 	H 	0.3492	0.4448	0.4906	0.114
Mof_C 	C 	0.4459	0.5461	0.3983	0.094
Mof_H 	H 	0.4717	0.5725	0.3747	0.01
Mof_C 	C 	0.4354	0.4628	0.4103	0.135
Mof_C 	C 	0.3031	0.6381	0.3197	0.421
Mof_C 	C 	0.2758	0.6443	0.236	-0.514
Mof_H 	H 	0.3172	0.6638	0.2085	0.183
Mof_H 	H 	0.2227	0.6616	0.2353	0.185
Mof_C 	C 	0.265	0.5981	0.1919	0.38
Mof_C 	C 	0.3493	0.5746	0.1807	-0.714
Mof_H 	H 	0.3883	0.5973	0.1588	0.248
Mof_H 	H 	0.3436	0.5479	0.1452	0.229
Mof_H 	H 	0.3699	0.5635	0.2309	0.235
Mof_C 	C 	0.3546	0.5166	0.4832	0.103
Mof_H 	H 	0.3134	0.5214	0.5216	-0.007
Mof_C 	C 	0.4709	0.502	0.3762	-0.185
Mof_H 	H 	0.5125	0.4984	0.3377	0.073
Mof_C 	C 	0.4045	0.3038	0.4886	0.009
Mof_C 	C 	0.4654	0.4151	0.3857	-0.115
Mof_H 	H 	0.4644	0.4136	0.3283	0.052
Mof_H 	H 	0.5236	0.4116	0.4024	0.086
Mof_C 	C 	0.4461	0.3501	0.4747	0.21
Mof_C 	C 	0.3687	0.2782	0.4301	-0.091
Mof_H 	H 	0.362	0.2916	0.38	0.063
Mof_C 	C 	0.4095	0.2836	0.5614	-0.09
Mof_H 	H 	0.4313	0.3007	0.6041	0.069
Mof_C 	C 	0.3825	0.2385	0.5705	0.061
Mof_H 	H 	0.3865	0.2247	0.6205	0.022
Mof_C 	C 	0.3425	0.2332	0.4444	0.066
Mof_H 	H 	0.3174	0.216	0.4035	0.017
Mof_C 	C 	0.2055	0.565	0.2356	-0.694
Mof_H 	H 	0.23	0.5562	0.2855	0.233
Mof_H 	H 	0.1959	0.5367	0.2045	0.214
Mof_H 	H 	0.1529	0.5812	0.2445	0.233
Mof_C 	C 	0.2255	0.6116	0.1142	0.14
Mof_Cd	Cd	0.15418	0.6312	0.97327	0.456
Mof_O 	O 	0.1216	0.63955	0.8363	-0.314
Mof_O 	O 	0.2507	0.63222	0.8712	-0.331
Mof_O 	O 	0.2345	0.60718	0.5533	-0.244
Mof_O 	O 	0.9942	0.36108	0.0151	-0.248
Mof_O 	O 	0.347	0.62667	0.6124	-0.245
Mof_N 	N 	0.1125	0.55411	0.951	-0.159
Mof_N 	N 	0.0812	0.37594	0.9158	-0.201
Mof_H 	H 	0.1291	0.3689	0.8945	0.143
Mof_N 	N 	0.1492	0.21287	0.0132	-0.14
Mof_C 	C 	0.1244	0.4704	0.9653	-0.189
Mof_H 	H 	0.1508	0.4448	0.9906	0.114
Mof_C 	C 	0.0541	0.5461	0.8983	0.094
Mof_H 	H 	0.0283	0.5725	0.8747	0.01
Mof_C 	C 	0.0646	0.4628	0.9103	0.135
Mof_C 	C 	0.1969	0.6381	0.8197	0.421
Mof_C 	C 	0.2242	0.6443	0.736	-0.514
Mof_H 	H 	0.1828	0.6638	0.7085	0.183
Mof_H 	H 	0.2773	0.6616	0.7353	0.185
Mof_C 	C 	0.235	0.5981	0.6919	0.38
Mof_C 	C 	0.1507	0.5746	0.6807	-0.714
Mof_H 	H 	0.1117	0.5973	0.6588	0.248
Mof_H 	H 	0.1564	0.5479	0.6452	0.229
Mof_H 	H 	0.1301	0.5635	0.7309	0.235
Mof_C 	C 	0.1454	0.5166	0.9832	0.103
Mof_H 	H 	0.1866	0.5214	0.0216	-0.007
Mof_C 	C 	0.0291	0.502	0.8762	-0.185
Mof_H 	H 	0.9875	0.4984	0.8377	0.073
Mof_C 	C 	0.0955	0.3038	0.9886	0.009
Mof_C 	C 	0.0346	0.4151	0.8857	-0.115
Mof_H 	H 	0.0356	0.4136	0.8283	0.052
Mof_H 	H 	0.9764	0.4116	0.9024	0.086
Mof_C 	C 	0.0539	0.3501	0.9747	0.21
Mof_C 	C 	0.1313	0.2782	0.9301	-0.091
Mof_H 	H 	0.138	0.2916	0.88	0.063
Mof_C 	C 	0.0905	0.2836	0.0614	-0.09
Mof_H 	H 	0.0687	0.3007	0.1041	0.069
Mof_C 	C 	0.1175	0.2385	0.0705	0.061
Mof_H 	H 	0.1135	0.2247	0.1205	0.022
Mof_C 	C 	0.1575	0.2332	0.9444	0.066
Mof_H 	H 	0.1826	0.216	0.9035	0.017
Mof_C 	C 	0.2945	0.565	0.7356	-0.694
Mof_H 	H 	0.27	0.5562	0.7855	0.233
Mof_H 	H 	0.3041	0.5367	0.7045	0.214
Mof_H 	H 	0.3471	0.5812	0.7445	0.233
Mof_C 	C 	0.2745	0.6116	0.6142	0.14
Mof_Cd	Cd	0.34582	0.1312	0.52673	0.456
Mof_O 	O 	0.3784	0.13955	0.6637	-0.314
Mof_O 	O 	0.2493	0.13222	0.6288	-0.331
Mof_O 	O 	0.2655	0.10718	0.9467	-0.244
Mof_O 	O 	0.5058	0.86108	0.4849	-0.248
Mof_O 	O 	0.153	0.12667	0.8876	-0.245
Mof_N 	N 	0.3875	0.05411	0.549	-0.159
Mof_N 	N 	0.4188	0.87594	0.5842	-0.201
Mof_H 	H 	0.3709	0.8689	0.6055	0.143
Mof_N 	N 	0.3508	0.71287	0.4868	-0.14
Mof_C 	C 	0.3756	0.9704	0.5347	-0.189
Mof_H 	H 	0.3492	0.9448	0.5094	0.114
Mof_C 	C 	0.4459	0.0461	0.6017	0.094
Mof_H 	H 	0.4717	0.0725	0.6253	0.01
Mof_C 	C 	0.4354	0.9628	0.5897	0.135
Mof_C 	C 	0.3031	0.1381	0.6803	0.421
Mof_C 	C 	0.2758	0.1443	0.764	-0.514
Mof_H 	H 	0.3172	0.1638	0.7915	0.183
Mof_H 	H 	0.2227	0.1616	0.7647	0.185
Mof_C 	C 	0.265	0.0981	0.8081	0.38
Mof_C 	C 	0.3493	0.0746	0.8193	-0.714
Mof_H 	H 	0.3883	0.0973	0.8412	0.248
Mof_H 	H 	0.3436	0.0479	0.8548	0.229
Mof_H 	H 	0.3699	0.0635	0.7691	0.235
Mof_C 	C 	0.3546	0.0166	0.5168	0.103
Mof_H 	H 	0.3134	0.0214	0.4784	-0.007
Mof_C 	C 	0.4709	0.002	0.6238	-0.185
Mof_H 	H 	0.5125	0.9984	0.6623	0.073
Mof_C 	C 	0.4045	0.8038	0.5114	0.009
Mof_C 	C 	0.4654	0.9151	0.6143	-0.115
Mof_H 	H 	0.4644	0.9136	0.6717	0.052
Mof_H 	H 	0.5236	0.9116	0.5976	0.086
Mof_C 	C 	0.4461	0.8501	0.5253	0.21
Mof_C 	C 	0.3687	0.7782	0.5699	-0.091
Mof_H 	H 	0.362	0.7916	0.62	0.063
Mof_C 	C 	0.4095	0.7836	0.4386	-0.09
Mof_H 	H 	0.4313	0.8007	0.3959	0.069
Mof_C 	C 	0.3825	0.7385	0.4295	0.061
Mof_H 	H 	0.3865	0.7247	0.3795	0.022
Mof_C 	C 	0.3425	0.7332	0.5556	0.066
Mof_H 	H 	0.3174	0.716	0.5965	0.017
Mof_C 	C 	0.2055	0.065	0.7644	-0.694
Mof_H 	H 	0.23	0.0562	0.7145	0.233
Mof_H 	H 	0.1959	0.0367	0.7955	0.214
Mof_H 	H 	0.1529	0.0812	0.7555	0.233
Mof_C 	C 	0.2255	0.1116	0.8858	0.14
_end
