data_functionalizedCrystal
_audit_creation_method	'EQeq! by Chris Wilmer'
_symmetry_space_group_name_H-M	'P1'
_symmetry_Int_Tables_number	1
_symmetry_cell_setting	triclinic
loop_
_symmetry_equiv_pos_as_xyz
  x,y,z
_cell_length_a	29.555
_cell_length_b	28.856
_cell_length_c	17.719
_cell_angle_alpha	90
_cell_angle_beta	90
_cell_angle_gamma	90
loop_
_atom_site_label
_atom_site_type_symbol
_atom_site_fract_x
_atom_site_fract_y
_atom_site_fract_z
_atom_site_charge
Mof_Zn	Zn	0.83755	0.7568	0.95392	1.225
Mof_O 	O 	0.82912	0.75689	0.8368	-0.816
Mof_C 	C 	0.8949	0.6719	0.9122	0.325
Mof_Zn	Zn	0.81599	0.82151	0.81071	1.196
Mof_O 	O 	0.8384	0.7503	0.074	0.461
Mof_C 	C 	0.9113	0.6294	0.9535	-1.461
Mof_Zn	Zn	0.87561	0.72392	0.77922	0.883
Mof_N 	N 	0.961	0.7443	0.309	-85.452
Mof_C 	C 	0.9184	0.5878	0.9138	0.383
Mof_H 	H 	0.9137	0.5867	0.8608	-0.753
Mof_C 	C 	0.9321	0.5484	0.9521	-1.867
Mof_Zn	Zn	0.93798	0.43988	0.79534	0.101
Mof_C 	C 	0.9401	0.5037	0.911	0.374
Mof_Zn	Zn	0.96421	0.86499	0.28738	2.526
Mof_C 	C 	0.9382	0.5503	0.0293	0.512
Mof_H 	H 	0.9481	0.5233	0.0551	-1.494
Mof_Zn	Zn	0.94304	0.92624	0.31588	-0.209
Mof_C 	C 	0.9303	0.5909	0.0709	-1.999
Mof_C 	C 	0.9338	0.592	0.1548	0.53
Mof_C 	C 	0.9172	0.6305	0.0308	0.364
Mof_H 	H 	0.9121	0.6587	0.0574	-0.735
Mof_O 	O 	0.88884	0.70699	0.95	-1.305
Mof_C 	C 	0.8793	0.8517	0.9221	0.495
Mof_O 	O 	0.8878	0.66803	0.8415	-1.224
Mof_C 	C 	0.9014	0.8892	0.965	-1.608
Mof_O 	O 	0.93238	0.50228	0.8407	-2.089
Mof_C 	C 	0.9134	0.881	0.0398	0.881
Mof_H 	H 	0.9091	0.8512	0.0614	-1.316
Mof_O 	O 	0.95181	0.46939	0.95	-3.341
Mof_C 	C 	0.932	0.9173	0.0831	-2.772
Mof_O 	O 	0.9315	0.55281	0.1871	-2.101
Mof_C 	C 	0.9429	0.9092	0.1652	1.69
Mof_O 	O 	0.9388	0.62869	0.1875	-3.058
Mof_C 	C 	0.9384	0.9608	0.0506	0.963
Mof_H 	H 	0.9504	0.9855	0.0799	-1.68
Mof_O 	O 	0.88268	0.81115	0.9469	-1.384
Mof_C 	C 	0.9274	0.9681	0.9761	-1.984
Mof_O 	O 	0.85645	0.86374	0.8637	-0.87
Mof_C 	C 	0.9387	0.0139	0.9387	0.578
Mof_O 	O 	0.9459	0.87058	0.1914	-3.946
Mof_C 	C 	0.9093	0.9331	0.9326	0.641
Mof_H 	H 	0.9022	0.9385	0.8811	-0.715
Mof_O 	O 	0.9323	0.9443	0.2113	0.733
Mof_C 	C 	0.7511	0.7037	0.9289	0.35
Mof_O 	O 	0.9524	0.04599	0.9815	-3.48
Mof_C 	C 	0.7087	0.6881	0.9676	-0.083
Mof_O 	O 	0.9346	0.01674	0.8693	-2.471
Mof_C 	C 	0.6707	0.6755	0.9267	0.05
Mof_H 	H 	0.6718	0.6759	0.8731	0.068
Mof_O 	O 	0.78588	0.70871	0.9693	-0.357
Mof_C 	C 	0.6305	0.662	0.9632	-0.046
Mof_O 	O 	0.74949	0.7117	0.8602	-0.24
Mof_C 	C 	0.5905	0.6459	0.9193	0.408
Mof_O 	O 	0.9075	0.8552	0.3503	-10.836
Mof_C 	C 	0.6281	0.6635	0.0412	0.054
Mof_H 	H 	0.6005	0.6569	0.0663	0.049
Mof_O 	O 	0.94702	0.85265	0.4515	-7.572
Mof_C 	C 	0.6672	0.675	0.0831	-0.103
Mof_O 	O 	0.627	0.6858	0.1992	-0.382
Mof_C 	C 	0.6631	0.6757	0.1677	0.359
Mof_O 	O 	0.80103	0.83194	0.705	-0.633
Mof_C 	C 	0.7068	0.687	0.0474	0.062
Mof_H 	H 	0.7329	0.6945	0.0763	0.042
Mof_O 	O 	0.78457	0.80793	0.9685	-0.403
Mof_C 	C 	0.7524	0.8228	0.9273	0.396
Mof_O 	O 	0.75588	0.83272	0.859	-0.46
Mof_C 	C 	0.7073	0.8289	0.9628	-0.136
Mof_O 	O 	0.89808	0.39873	0.8543	-1.492
Mof_C 	C 	0.6725	0.8494	0.9226	0.083
Mof_H 	H 	0.6778	0.8606	0.8729	0.038
Mof_O 	O 	0.05246	0.36942	0.9378	0.493
Mof_C 	C 	0.6295	0.8537	0.9549	-0.142
Mof_O 	O 	0.8897	0.6961	0.6758	-1.939
Mof_C 	C 	0.9088	0.3757	0.912	1.829
Mof_O 	O 	0.8191	0.7123	0.6872	-0.558
Mof_C 	C 	0.6219	0.8379	0.0286	0.084
Mof_H 	H 	0.5925	0.8405	0.0501	0.042
Mof_C 	C 	0.6566	0.8186	0.0703	-0.122
Mof_C 	C 	0.7001	0.8133	0.0359	0.085
Mof_H 	H 	0.7241	0.7991	0.0631	0.026
Mof_C 	C 	0.8519	0.697	0.649	0.772
Mof_C 	C 	0.9762	0.7891	0.2959	347.669
Mof_C 	C 	0.917	0.7294	0.3093	68.836
Mof_N 	N 	0.821	0.6972	0.1688	0.474
Mof_C 	C 	0.8374	0.7093	0.097	-0.366
Mof_C 	C 	0.8021	0.7253	0.2175	1.968
Mof_H 	H 	0.7938	0.7079	0.263	-2.005
Mof_H 	H 	0.7749	0.739	0.1951	-0.744
Mof_H 	H 	0.8235	0.7499	0.2309	-0.086
Mof_C 	C 	0.8171	0.6475	0.1887	-5.046
Mof_H 	H 	0.8321	0.6287	0.15	1.679
Mof_H 	H 	0.785	0.6389	0.1915	1.436
Mof_H 	H 	0.8315	0.642	0.2377	1.183
Mof_O 	O 	0.8991	0.8813	0.3574	3.976
Mof_H 	H 	0.1033	0.7562	0.3093	-26.692
Mof_H 	H 	0.0887	0.7105	0.2643	-14.094
Mof_H 	H 	0.0885	0.7107	0.3546	-22.127
Mof_N 	N 	0.8479	0.732	0.1838	-3.552
Mof_O 	O 	0.8512	0.7653	0.0675	-1.464
Mof_O 	O 	0.958	0.9418	0.1996	-4.154
Mof_C 	C 	0.8315	0.7438	0.1169	0.819
Mof_C 	C 	0.8943	0.7466	0.2034	30.4
Mof_H 	H 	0.9025	0.7341	0.253	-18.951
Mof_H 	H 	0.8958	0.7805	0.2049	-15.027
Mof_H 	H 	0.9155	0.7349	0.1654	-12.882
Mof_C 	C 	0.8252	0.7044	0.2402	-2.677
Mof_H 	H 	0.8455	0.6992	0.283	1.514
Mof_H 	H 	0.8165	0.6745	0.2182	2.272
Mof_H 	H 	0.798	0.7207	0.2575	1.911
Mof_Zn	Zn	0.33755	0.2568	0.95392	1.24
Mof_O 	O 	0.32912	0.25689	0.8368	-0.675
Mof_C 	C 	0.3949	0.1719	0.9122	0.384
Mof_Zn	Zn	0.31599	0.32151	0.81071	1.224
Mof_O 	O 	0.3384	0.2503	0.074	0.81
Mof_C 	C 	0.4113	0.1294	0.9535	-0.124
Mof_Zn	Zn	0.37561	0.22392	0.77922	1.199
Mof_N 	N 	0.461	0.2443	0.309	3.471
Mof_C 	C 	0.4184	0.0878	0.9138	0.057
Mof_H 	H 	0.4137	0.0867	0.8608	0.032
Mof_C 	C 	0.4321	0.0484	0.9521	-0.133
Mof_Zn	Zn	0.43798	0.93988	0.79534	1.228
Mof_C 	C 	0.4401	0.0037	0.911	0.374
Mof_Zn	Zn	0.46421	0.36499	0.28738	0.961
Mof_C 	C 	0.4382	0.0503	0.0293	0.047
Mof_H 	H 	0.4481	0.0233	0.0551	0.032
Mof_Zn	Zn	0.44304	0.42624	0.31588	1.169
Mof_C 	C 	0.4303	0.0909	0.0709	-0.108
Mof_C 	C 	0.4338	0.092	0.1548	0.349
Mof_C 	C 	0.4172	0.1305	0.0308	0.049
Mof_H 	H 	0.4121	0.1587	0.0574	0.051
Mof_O 	O 	0.38884	0.20699	0.95	-0.448
Mof_C 	C 	0.3793	0.3517	0.9221	0.375
Mof_O 	O 	0.3878	0.16803	0.8415	-0.481
Mof_C 	C 	0.4014	0.3892	0.965	-0.118
Mof_O 	O 	0.43238	0.00228	0.8407	-0.479
Mof_C 	C 	0.4134	0.381	0.0398	0.043
Mof_H 	H 	0.4091	0.3512	0.0614	0.087
Mof_O 	O 	0.45181	0.96939	0.95	-0.479
Mof_C 	C 	0.432	0.4173	0.0831	-0.124
Mof_O 	O 	0.4315	0.05281	0.1871	-0.463
Mof_C 	C 	0.4429	0.4092	0.1652	0.438
Mof_O 	O 	0.4388	0.12869	0.1875	-0.297
Mof_C 	C 	0.4384	0.4608	0.0506	0.061
Mof_H 	H 	0.4504	0.4855	0.0799	0.038
Mof_O 	O 	0.38268	0.31115	0.9469	-0.427
Mof_C 	C 	0.4274	0.4681	0.9761	-0.137
Mof_O 	O 	0.35645	0.36374	0.8637	-0.486
Mof_C 	C 	0.4387	0.5139	0.9387	0.403
Mof_O 	O 	0.4459	0.37058	0.1914	-0.566
Mof_C 	C 	0.4093	0.4331	0.9326	0.063
Mof_H 	H 	0.4022	0.4385	0.8811	0.032
Mof_O 	O 	0.4323	0.4443	0.2113	-0.27
Mof_C 	C 	0.2511	0.2037	0.9289	0.44
Mof_O 	O 	0.4524	0.54599	0.9815	-0.462
Mof_C 	C 	0.2087	0.1881	0.9676	-0.381
Mof_O 	O 	0.4346	0.51674	0.8693	-0.493
Mof_C 	C 	0.1707	0.1755	0.9267	0.484
Mof_H 	H 	0.1718	0.1759	0.8731	-0.527
Mof_O 	O 	0.28588	0.20871	0.9693	-0.454
Mof_C 	C 	0.1305	0.162	0.9632	-1.833
Mof_O 	O 	0.24949	0.2117	0.8602	-0.354
Mof_C 	C 	0.0905	0.1459	0.9193	0.629
Mof_O 	O 	0.4075	0.3552	0.3503	0.064
Mof_C 	C 	0.1281	0.1635	0.0412	0.41
Mof_H 	H 	0.1005	0.1569	0.0663	0.186
Mof_O 	O 	0.44702	0.35265	0.4515	-0.359
Mof_C 	C 	0.1672	0.175	0.0831	-0.209
Mof_O 	O 	0.127	0.1858	0.1992	0.237
Mof_C 	C 	0.1631	0.1757	0.1677	0.28
Mof_O 	O 	0.30103	0.33194	0.705	-0.5
Mof_C 	C 	0.2068	0.187	0.0474	0.156
Mof_H 	H 	0.2329	0.1945	0.0763	-0.006
Mof_O 	O 	0.28457	0.30793	0.9685	-0.416
Mof_C 	C 	0.2524	0.3228	0.9273	0.318
Mof_O 	O 	0.25588	0.33272	0.859	-0.43
Mof_C 	C 	0.2073	0.3289	0.9628	0.035
Mof_O 	O 	0.39808	0.89873	0.8543	-0.473
Mof_C 	C 	0.1725	0.3494	0.9226	-0.049
Mof_H 	H 	0.1778	0.3606	0.8729	0.091
Mof_O 	O 	0.55246	0.86942	0.9378	-0.432
Mof_C 	C 	0.1295	0.3537	0.9549	0.625
Mof_O 	O 	0.3897	0.1961	0.6758	-0.443
Mof_C 	C 	0.4088	0.8757	0.912	0.37
Mof_O 	O 	0.3191	0.2123	0.6872	-0.379
Mof_C 	C 	0.1219	0.3379	0.0286	-0.493
Mof_H 	H 	0.0925	0.3405	0.0501	0.675
Mof_C 	C 	0.1566	0.3186	0.0703	0.298
Mof_C 	C 	0.2001	0.3133	0.0359	-0.229
Mof_H 	H 	0.2241	0.2991	0.0631	0.115
Mof_C 	C 	0.3519	0.197	0.649	0.352
Mof_C 	C 	0.4762	0.2891	0.2959	-15.131
Mof_C 	C 	0.417	0.2294	0.3093	-3.285
Mof_N 	N 	0.321	0.1972	0.1688	-0.147
Mof_C 	C 	0.3374	0.2093	0.097	-0.124
Mof_C 	C 	0.3021	0.2253	0.2175	-1.149
Mof_H 	H 	0.2938	0.2079	0.263	1.043
Mof_H 	H 	0.2749	0.239	0.1951	0.464
Mof_H 	H 	0.3235	0.2499	0.2309	0.301
Mof_C 	C 	0.3171	0.1475	0.1887	1.497
Mof_H 	H 	0.3321	0.1287	0.15	-0.439
Mof_H 	H 	0.285	0.1389	0.1915	-0.369
Mof_H 	H 	0.3315	0.142	0.2377	-0.271
Mof_O 	O 	0.3991	0.3813	0.3574	-0.505
Mof_H 	H 	0.6033	0.2562	0.3093	1.245
Mof_H 	H 	0.5887	0.2105	0.2643	0.685
Mof_H 	H 	0.5885	0.2107	0.3546	1.116
Mof_N 	N 	0.3479	0.232	0.1838	-0.025
Mof_O 	O 	0.3512	0.2653	0.0675	-0.968
Mof_O 	O 	0.458	0.4418	0.1996	-0.309
Mof_C 	C 	0.3315	0.2438	0.1169	-0.093
Mof_C 	C 	0.3943	0.2466	0.2034	-1.681
Mof_H 	H 	0.4025	0.2341	0.253	1.001
Mof_H 	H 	0.3958	0.2805	0.2049	0.792
Mof_H 	H 	0.4155	0.2349	0.1654	0.696
Mof_C 	C 	0.3252	0.2044	0.2402	1.908
Mof_H 	H 	0.3455	0.1992	0.283	-0.606
Mof_H 	H 	0.3165	0.1745	0.2182	-0.992
Mof_H 	H 	0.298	0.2207	0.2575	-1.112
Mof_Zn	Zn	0.16245	0.2432	0.45392	1.251
Mof_O 	O 	0.17088	0.24311	0.3368	-0.568
Mof_C 	C 	0.1051	0.3281	0.4122	0.507
Mof_Zn	Zn	0.18401	0.17849	0.31071	1.25
Mof_O 	O 	0.1616	0.2497	0.574	1.45
Mof_C 	C 	0.0887	0.3706	0.4535	0.801
Mof_Zn	Zn	0.12439	0.27608	0.27922	1.425
Mof_N 	N 	0.039	0.2557	0.809	-84.132
Mof_C 	C 	0.0816	0.4122	0.4138	0.01
Mof_H 	H 	0.0863	0.4133	0.3608	0.659
Mof_C 	C 	0.0679	0.4516	0.4521	1.186
Mof_Zn	Zn	0.06202	0.56012	0.29534	1.388
Mof_C 	C 	0.0599	0.4963	0.411	0.674
Mof_Zn	Zn	0.03579	0.13501	0.78738	4.552
Mof_C 	C 	0.0618	0.4497	0.5293	0.046
Mof_H 	H 	0.0519	0.4767	0.5551	1.299
Mof_Zn	Zn	0.05696	0.07376	0.81588	1.1
Mof_C 	C 	0.0697	0.4091	0.5709	1.077
Mof_C 	C 	0.0662	0.408	0.6548	0.563
Mof_C 	C 	0.0828	0.3695	0.5308	-0.063
Mof_H 	H 	0.0879	0.3413	0.5574	0.436
Mof_O 	O 	0.11116	0.29301	0.45	0.007
Mof_C 	C 	0.1207	0.1483	0.4221	0.484
Mof_O 	O 	0.1122	0.33197	0.3415	0.118
Mof_C 	C 	0.0986	0.1108	0.465	0.538
Mof_O 	O 	0.06762	0.49772	0.3407	0.51
Mof_C 	C 	0.0866	0.119	0.5398	0.124
Mof_H 	H 	0.0909	0.1488	0.5614	-0.043
Mof_O 	O 	0.04819	0.53061	0.45	0.999
Mof_C 	C 	0.068	0.0827	0.5831	0.942
Mof_O 	O 	0.0685	0.44719	0.6871	0.489
Mof_C 	C 	0.0571	0.0908	0.6652	0.651
Mof_O 	O 	0.0612	0.37131	0.6875	0.343
Mof_C 	C 	0.0616	0.0392	0.5506	0.158
Mof_H 	H 	0.0496	0.0145	0.5799	1.343
Mof_O 	O 	0.11732	0.18885	0.4469	0.022
Mof_C 	C 	0.0726	0.0319	0.4761	0.97
Mof_O 	O 	0.14355	0.13626	0.3637	-0.23
Mof_C 	C 	0.0613	0.9861	0.4387	0.537
Mof_O 	O 	0.0541	0.12942	0.6914	-0.517
Mof_C 	C 	0.0907	0.0669	0.4326	0.06
Mof_H 	H 	0.0978	0.0615	0.3811	0.496
Mof_O 	O 	0.0677	0.0557	0.7113	-2.468
Mof_C 	C 	0.2489	0.2963	0.4289	0.355
Mof_O 	O 	0.0476	0.95401	0.4815	1.082
Mof_C 	C 	0.2913	0.3119	0.4676	-0.135
Mof_O 	O 	0.0654	0.98326	0.3693	0.379
Mof_C 	C 	0.3293	0.3245	0.4267	0.054
Mof_H 	H 	0.3282	0.3241	0.3731	0.049
Mof_O 	O 	0.21412	0.29129	0.4693	-0.476
Mof_C 	C 	0.3695	0.338	0.4632	-0.075
Mof_O 	O 	0.25051	0.2883	0.3602	-0.289
Mof_C 	C 	0.4095	0.3541	0.4193	0.405
Mof_O 	O 	0.0925	0.1448	0.8503	-10.241
Mof_C 	C 	0.3719	0.3365	0.5412	0.05
Mof_H 	H 	0.3995	0.3431	0.5663	0.042
Mof_O 	O 	0.05298	0.14735	0.9515	-2.718
Mof_C 	C 	0.3328	0.325	0.5831	-0.129
Mof_O 	O 	0.373	0.3142	0.6992	-0.395
Mof_C 	C 	0.3369	0.3243	0.6677	0.352
Mof_O 	O 	0.19897	0.16806	0.205	-0.382
Mof_C 	C 	0.2932	0.313	0.5474	0.053
Mof_H 	H 	0.2671	0.3055	0.5763	0.018
Mof_O 	O 	0.21543	0.19207	0.4685	-0.484
Mof_C 	C 	0.2476	0.1772	0.4273	0.381
Mof_O 	O 	0.24412	0.16728	0.359	-0.492
Mof_C 	C 	0.2927	0.1711	0.4628	-0.171
Mof_O 	O 	0.10192	0.60127	0.3543	-0.431
Mof_C 	C 	0.3275	0.1506	0.4226	0.077
Mof_H 	H 	0.3222	0.1394	0.3729	0.025
Mof_O 	O 	0.94754	0.63058	0.4378	-4.67
Mof_C 	C 	0.3705	0.1463	0.4549	-0.165
Mof_O 	O 	0.1103	0.3039	0.1758	0.405
Mof_C 	C 	0.0912	0.6243	0.412	0.61
Mof_O 	O 	0.1809	0.2877	0.1872	-0.252
Mof_C 	C 	0.3781	0.1621	0.5286	0.077
Mof_H 	H 	0.4075	0.1595	0.5501	0.037
Mof_C 	C 	0.3434	0.1814	0.5703	-0.142
Mof_C 	C 	0.2999	0.1867	0.5359	0.068
Mof_H 	H 	0.2759	0.2009	0.5631	0.01
Mof_C 	C 	0.1481	0.303	0.149	0.01
Mof_C 	C 	0.0238	0.2109	0.7959	363.634
Mof_C 	C 	0.083	0.2706	0.8093	69.446
Mof_N 	N 	0.179	0.3028	0.6688	0.444
Mof_C 	C 	0.1626	0.2907	0.597	-0.18
Mof_C 	C 	0.1979	0.2747	0.7175	1.979
Mof_H 	H 	0.2062	0.2921	0.763	-2.058
Mof_H 	H 	0.2251	0.261	0.6951	-0.743
Mof_H 	H 	0.1765	0.2501	0.7309	-0.124
Mof_C 	C 	0.1829	0.3525	0.6887	-4.634
Mof_H 	H 	0.1679	0.3713	0.65	1.432
Mof_H 	H 	0.215	0.3611	0.6915	1.283
Mof_H 	H 	0.1685	0.358	0.7377	1.069
Mof_O 	O 	0.1009	0.1187	0.8574	4.224
Mof_H 	H 	0.8967	0.2438	0.8093	-26.335
Mof_H 	H 	0.9113	0.2895	0.7643	-14.686
Mof_H 	H 	0.9115	0.2893	0.8546	-22.939
Mof_N 	N 	0.1521	0.268	0.6838	-3.278
Mof_O 	O 	0.1488	0.2347	0.5675	-1.752
Mof_O 	O 	0.042	0.0582	0.6996	3.829
Mof_C 	C 	0.1685	0.2562	0.6169	-0.021
Mof_C 	C 	0.1057	0.2534	0.7034	29.746
Mof_H 	H 	0.0975	0.2659	0.753	-18.983
Mof_H 	H 	0.1042	0.2195	0.7049	-14.596
Mof_H 	H 	0.0845	0.2651	0.6654	-11.204
Mof_C 	C 	0.1748	0.2956	0.7402	-2.638
Mof_H 	H 	0.1545	0.3008	0.783	1.535
Mof_H 	H 	0.1835	0.3255	0.7182	2.145
Mof_H 	H 	0.202	0.2793	0.7575	1.954
Mof_Zn	Zn	0.66245	0.7432	0.45392	1.248
Mof_O 	O 	0.67088	0.74311	0.3368	-0.658
Mof_C 	C 	0.6051	0.8281	0.4122	0.392
Mof_Zn	Zn	0.68401	0.67849	0.31071	1.232
Mof_O 	O 	0.6616	0.7497	0.574	0.863
Mof_C 	C 	0.5887	0.8706	0.4535	-0.121
Mof_Zn	Zn	0.62439	0.77608	0.27922	1.204
Mof_N 	N 	0.539	0.7557	0.809	3.474
Mof_C 	C 	0.5816	0.9122	0.4138	0.07
Mof_H 	H 	0.5863	0.9133	0.3608	0.041
Mof_C 	C 	0.5679	0.9516	0.4521	-0.13
Mof_Zn	Zn	0.56202	0.06012	0.29534	1.232
Mof_C 	C 	0.5599	0.9963	0.411	0.383
Mof_Zn	Zn	0.53579	0.63501	0.78738	0.962
Mof_C 	C 	0.5618	0.9497	0.5293	0.069
Mof_H 	H 	0.5519	0.9767	0.5551	0.036
Mof_Zn	Zn	0.55696	0.57376	0.81588	1.173
Mof_C 	C 	0.5697	0.9091	0.5709	-0.107
Mof_C 	C 	0.5662	0.908	0.6548	0.354
Mof_C 	C 	0.5828	0.8695	0.5308	0.072
Mof_H 	H 	0.5879	0.8413	0.5574	0.052
Mof_O 	O 	0.61116	0.79301	0.45	-0.437
Mof_C 	C 	0.6207	0.6483	0.4221	0.382
Mof_O 	O 	0.6122	0.83197	0.3415	-0.464
Mof_C 	C 	0.5986	0.6108	0.465	-0.111
Mof_O 	O 	0.56762	0.99772	0.3407	-0.463
Mof_C 	C 	0.5866	0.619	0.5398	0.066
Mof_H 	H 	0.5909	0.6488	0.5614	0.093
Mof_O 	O 	0.54819	0.03061	0.45	-0.47
Mof_C 	C 	0.568	0.5827	0.5831	-0.121
Mof_O 	O 	0.5685	0.94719	0.6871	-0.448
Mof_C 	C 	0.5571	0.5908	0.6652	0.446
Mof_O 	O 	0.5612	0.87131	0.6875	-0.292
Mof_C 	C 	0.5616	0.5392	0.5506	0.081
Mof_H 	H 	0.5496	0.5145	0.5799	0.041
Mof_O 	O 	0.61732	0.68885	0.4469	-0.414
Mof_C 	C 	0.5726	0.5319	0.4761	-0.13
Mof_O 	O 	0.64355	0.63626	0.3637	-0.462
Mof_C 	C 	0.5613	0.4861	0.4387	0.411
Mof_O 	O 	0.5541	0.62942	0.6914	-0.559
Mof_C 	C 	0.5907	0.5669	0.4326	0.074
Mof_H 	H 	0.5978	0.5615	0.3811	0.044
Mof_O 	O 	0.5677	0.5557	0.7113	-0.244
Mof_C 	C 	0.7489	0.7963	0.4289	0.645
Mof_O 	O 	0.5476	0.45401	0.4815	-0.453
Mof_C 	C 	0.7913	0.8119	0.4676	-0.937
Mof_O 	O 	0.5654	0.48326	0.3693	-0.48
Mof_C 	C 	0.8293	0.8245	0.4267	1.259
Mof_H 	H 	0.8282	0.8241	0.3731	-0.768
Mof_O 	O 	0.71412	0.79129	0.4693	-0.481
Mof_C 	C 	0.8695	0.838	0.4632	-3.287
Mof_O 	O 	0.75051	0.7883	0.3602	-0.387
Mof_C 	C 	0.9095	0.8541	0.4193	2.01
Mof_O 	O 	0.5925	0.6448	0.8503	0.062
Mof_C 	C 	0.8719	0.8365	0.5412	1.455
Mof_H 	H 	0.8995	0.8431	0.5663	-1.586
Mof_O 	O 	0.55298	0.64735	0.9515	-0.352
Mof_C 	C 	0.8328	0.825	0.5831	-1.303
Mof_O 	O 	0.873	0.8142	0.6992	-1.604
Mof_C 	C 	0.8369	0.8243	0.6677	0.833
Mof_O 	O 	0.69897	0.66806	0.205	-0.474
Mof_C 	C 	0.7932	0.813	0.5474	0.854
Mof_H 	H 	0.7671	0.8055	0.5763	-0.223
Mof_O 	O 	0.71543	0.69207	0.4685	-0.449
Mof_C 	C 	0.7476	0.6772	0.4273	0.552
Mof_O 	O 	0.74412	0.66728	0.359	-0.469
Mof_C 	C 	0.7927	0.6711	0.4628	-0.596
Mof_O 	O 	0.60192	0.10127	0.3543	-0.459
Mof_C 	C 	0.8275	0.6506	0.4226	0.823
Mof_H 	H 	0.8222	0.6394	0.3729	-0.187
Mof_O 	O 	0.44754	0.13058	0.4378	-0.439
Mof_C 	C 	0.8705	0.6463	0.4549	-0.868
Mof_O 	O 	0.6103	0.8039	0.1758	-0.431
Mof_C 	C 	0.5912	0.1243	0.412	0.38
Mof_O 	O 	0.6809	0.7877	0.1872	-0.355
Mof_C 	C 	0.8781	0.6621	0.5286	0.673
Mof_H 	H 	0.9075	0.6595	0.5501	-1.352
Mof_C 	C 	0.8434	0.6814	0.5703	-1.034
Mof_C 	C 	0.7999	0.6867	0.5359	0.539
Mof_H 	H 	0.7759	0.7009	0.5631	-0.134
Mof_C 	C 	0.6481	0.803	0.149	0.358
Mof_C 	C 	0.5238	0.7109	0.7959	-15.128
Mof_C 	C 	0.583	0.7706	0.8093	-3.289
Mof_N 	N 	0.679	0.8028	0.6688	-0.135
Mof_C 	C 	0.6626	0.7907	0.597	-0.095
Mof_C 	C 	0.6979	0.7747	0.7175	-1.174
Mof_H 	H 	0.7062	0.7921	0.763	1.068
Mof_H 	H 	0.7251	0.761	0.6951	0.502
Mof_H 	H 	0.6765	0.7501	0.7309	0.32
Mof_C 	C 	0.6829	0.8525	0.6887	1.48
Mof_H 	H 	0.6679	0.8713	0.65	-0.417
Mof_H 	H 	0.715	0.8611	0.6915	-0.354
Mof_H 	H 	0.6685	0.858	0.7377	-0.259
Mof_O 	O 	0.6009	0.6187	0.8574	-0.482
Mof_H 	H 	0.3967	0.7438	0.8093	1.238
Mof_H 	H 	0.4113	0.7895	0.7643	0.681
Mof_H 	H 	0.4115	0.7893	0.8546	1.111
Mof_N 	N 	0.6521	0.768	0.6838	-0.018
Mof_O 	O 	0.6488	0.7347	0.5675	-0.981
Mof_O 	O 	0.542	0.5582	0.6996	-0.323
Mof_C 	C 	0.6685	0.7562	0.6169	-0.116
Mof_C 	C 	0.6057	0.7534	0.7034	-1.678
Mof_H 	H 	0.5975	0.7659	0.753	1
Mof_H 	H 	0.6042	0.7195	0.7049	0.801
Mof_H 	H 	0.5845	0.7651	0.6654	0.7
Mof_C 	C 	0.6748	0.7956	0.7402	1.912
Mof_H 	H 	0.6545	0.8008	0.783	-0.602
Mof_H 	H 	0.6835	0.8255	0.7182	-0.984
Mof_H 	H 	0.702	0.7793	0.7575	-1.118
Mof_Zn	Zn	0.83755	0.2432	0.45392	1.221
Mof_O 	O 	0.82912	0.24311	0.3368	-0.817
Mof_C 	C 	0.8949	0.3281	0.4122	0.314
Mof_Zn	Zn	0.81599	0.17849	0.31071	1.195
Mof_O 	O 	0.8384	0.2497	0.574	0.436
Mof_C 	C 	0.9113	0.3706	0.4535	-1.45
Mof_Zn	Zn	0.87561	0.27608	0.27922	0.883
Mof_N 	N 	0.961	0.2557	0.809	-85.402
Mof_C 	C 	0.9184	0.4122	0.4138	0.359
Mof_H 	H 	0.9137	0.4133	0.3608	-0.746
Mof_C 	C 	0.9321	0.4516	0.4521	-1.859
Mof_Zn	Zn	0.93798	0.56012	0.29534	0.099
Mof_C 	C 	0.9401	0.4963	0.411	0.364
Mof_Zn	Zn	0.96421	0.13501	0.78738	2.527
Mof_C 	C 	0.9382	0.4497	0.5293	0.446
Mof_H 	H 	0.9481	0.4767	0.5551	-1.501
Mof_Zn	Zn	0.94304	0.07376	0.81588	-0.205
Mof_C 	C 	0.9303	0.4091	0.5709	-1.986
Mof_C 	C 	0.9338	0.408	0.6548	0.514
Mof_C 	C 	0.9172	0.3695	0.5308	0.303
Mof_H 	H 	0.9121	0.3413	0.5574	-0.73
Mof_O 	O 	0.88884	0.29301	0.45	-1.318
Mof_C 	C 	0.8793	0.1483	0.4221	0.493
Mof_O 	O 	0.8878	0.33197	0.3415	-1.223
Mof_C 	C 	0.9014	0.1108	0.465	-1.618
Mof_O 	O 	0.93238	0.49772	0.3407	-2.09
Mof_C 	C 	0.9134	0.119	0.5398	0.848
Mof_H 	H 	0.9091	0.1488	0.5614	-1.32
Mof_O 	O 	0.95181	0.53061	0.45	-3.38
Mof_C 	C 	0.932	0.0827	0.5831	-2.781
Mof_O 	O 	0.9315	0.44719	0.6871	-2.107
Mof_C 	C 	0.9429	0.0908	0.6652	1.683
Mof_O 	O 	0.9388	0.37131	0.6875	-3.064
Mof_C 	C 	0.9384	0.0392	0.5506	0.935
Mof_H 	H 	0.9504	0.0145	0.5799	-1.694
Mof_O 	O 	0.88268	0.18885	0.4469	-1.399
Mof_C 	C 	0.9274	0.0319	0.4761	-2.009
Mof_O 	O 	0.85645	0.13626	0.3637	-0.87
Mof_C 	C 	0.9387	0.9861	0.4387	0.58
Mof_O 	O 	0.9459	0.12942	0.6914	-3.957
Mof_C 	C 	0.9093	0.0669	0.4326	0.638
Mof_H 	H 	0.9022	0.0615	0.3811	-0.716
Mof_O 	O 	0.9323	0.0557	0.7113	0.745
Mof_C 	C 	0.7511	0.2963	0.4289	0.351
Mof_O 	O 	0.9524	0.95401	0.4815	-3.532
Mof_C 	C 	0.7087	0.3119	0.4676	-0.091
Mof_O 	O 	0.9346	0.98326	0.3693	-2.481
Mof_C 	C 	0.6707	0.3245	0.4267	0.052
Mof_H 	H 	0.6718	0.3241	0.3731	0.067
Mof_O 	O 	0.78588	0.29129	0.4693	-0.366
Mof_C 	C 	0.6305	0.338	0.4632	-0.052
Mof_O 	O 	0.74949	0.2883	0.3602	-0.24
Mof_C 	C 	0.5905	0.3541	0.4193	0.408
Mof_O 	O 	0.9075	0.1448	0.8503	-10.828
Mof_C 	C 	0.6281	0.3365	0.5412	0.051
Mof_H 	H 	0.6005	0.3431	0.5663	0.05
Mof_O 	O 	0.94702	0.14735	0.9515	-7.526
Mof_C 	C 	0.6672	0.325	0.5831	-0.103
Mof_O 	O 	0.627	0.3142	0.6992	-0.381
Mof_C 	C 	0.6631	0.3243	0.6677	0.358
Mof_O 	O 	0.80103	0.16806	0.205	-0.632
Mof_C 	C 	0.7068	0.313	0.5474	0.055
Mof_H 	H 	0.7329	0.3055	0.5763	0.042
Mof_O 	O 	0.78457	0.19207	0.4685	-0.413
Mof_C 	C 	0.7524	0.1772	0.4273	0.396
Mof_O 	O 	0.75588	0.16728	0.359	-0.462
Mof_C 	C 	0.7073	0.1711	0.4628	-0.144
Mof_O 	O 	0.89808	0.60127	0.3543	-1.497
Mof_C 	C 	0.6725	0.1506	0.4226	0.084
Mof_H 	H 	0.6778	0.1394	0.3729	0.036
Mof_O 	O 	0.05246	0.63058	0.4378	0.517
Mof_C 	C 	0.6295	0.1463	0.4549	-0.147
Mof_O 	O 	0.8897	0.3039	0.1758	-1.93
Mof_C 	C 	0.9088	0.6243	0.412	1.831
Mof_O 	O 	0.8191	0.2877	0.1872	-0.558
Mof_C 	C 	0.6219	0.1621	0.5286	0.081
Mof_H 	H 	0.5925	0.1595	0.5501	0.044
Mof_C 	C 	0.6566	0.1814	0.5703	-0.121
Mof_C 	C 	0.7001	0.1867	0.5359	0.077
Mof_H 	H 	0.7241	0.2009	0.5631	0.025
Mof_C 	C 	0.8519	0.303	0.149	0.779
Mof_C 	C 	0.9762	0.2109	0.7959	347.492
Mof_C 	C 	0.917	0.2706	0.8093	68.799
Mof_N 	N 	0.821	0.3028	0.6688	0.475
Mof_C 	C 	0.8374	0.2907	0.597	-0.382
Mof_C 	C 	0.8021	0.2747	0.7175	1.976
Mof_H 	H 	0.7938	0.2921	0.763	-2.009
Mof_H 	H 	0.7749	0.261	0.6951	-0.748
Mof_H 	H 	0.8235	0.2501	0.7309	-0.087
Mof_C 	C 	0.8171	0.3525	0.6887	-5.061
Mof_H 	H 	0.8321	0.3713	0.65	1.681
Mof_H 	H 	0.785	0.3611	0.6915	1.439
Mof_H 	H 	0.8315	0.358	0.7377	1.186
Mof_O 	O 	0.8991	0.1187	0.8574	3.976
Mof_H 	H 	0.1033	0.2438	0.8093	-26.68
Mof_H 	H 	0.0887	0.2895	0.7643	-14.087
Mof_H 	H 	0.0885	0.2893	0.8546	-22.119
Mof_N 	N 	0.8479	0.268	0.6838	-3.556
Mof_O 	O 	0.8512	0.2347	0.5675	-1.463
Mof_O 	O 	0.958	0.0582	0.6996	-4.177
Mof_C 	C 	0.8315	0.2562	0.6169	0.844
Mof_C 	C 	0.8943	0.2534	0.7034	30.402
Mof_H 	H 	0.9025	0.2659	0.753	-18.949
Mof_H 	H 	0.8958	0.2195	0.7049	-15.028
Mof_H 	H 	0.9155	0.2651	0.6654	-12.891
Mof_C 	C 	0.8252	0.2956	0.7402	-2.693
Mof_H 	H 	0.8455	0.3008	0.783	1.518
Mof_H 	H 	0.8165	0.3255	0.7182	2.281
Mof_H 	H 	0.798	0.2793	0.7575	1.917
Mof_Zn	Zn	0.33755	0.7432	0.45392	1.241
Mof_O 	O 	0.32912	0.74311	0.3368	-0.675
Mof_C 	C 	0.3949	0.8281	0.4122	0.389
Mof_Zn	Zn	0.31599	0.67849	0.31071	1.224
Mof_O 	O 	0.3384	0.7497	0.574	0.819
Mof_C 	C 	0.4113	0.8706	0.4535	-0.136
Mof_Zn	Zn	0.37561	0.77608	0.27922	1.198
Mof_N 	N 	0.461	0.7557	0.809	3.472
Mof_C 	C 	0.4184	0.9122	0.4138	0.069
Mof_H 	H 	0.4137	0.9133	0.3608	0.028
Mof_C 	C 	0.4321	0.9516	0.4521	-0.145
Mof_Zn	Zn	0.43798	0.06012	0.29534	1.228
Mof_C 	C 	0.4401	0.9963	0.411	0.379
Mof_Zn	Zn	0.46421	0.63501	0.78738	0.961
Mof_C 	C 	0.4382	0.9497	0.5293	0.068
Mof_H 	H 	0.4481	0.9767	0.5551	0.028
Mof_Zn	Zn	0.44304	0.57376	0.81588	1.169
Mof_C 	C 	0.4303	0.9091	0.5709	-0.119
Mof_C 	C 	0.4338	0.908	0.6548	0.354
Mof_C 	C 	0.4172	0.8695	0.5308	0.072
Mof_H 	H 	0.4121	0.8413	0.5574	0.047
Mof_O 	O 	0.38884	0.79301	0.45	-0.448
Mof_C 	C 	0.3793	0.6483	0.4221	0.38
Mof_O 	O 	0.3878	0.83197	0.3415	-0.482
Mof_C 	C 	0.4014	0.6108	0.465	-0.129
Mof_O 	O 	0.43238	0.99772	0.3407	-0.481
Mof_C 	C 	0.4134	0.619	0.5398	0.065
Mof_H 	H 	0.4091	0.6488	0.5614	0.084
Mof_O 	O 	0.45181	0.03061	0.45	-0.479
Mof_C 	C 	0.432	0.5827	0.5831	-0.134
Mof_O 	O 	0.4315	0.94719	0.6871	-0.463
Mof_C 	C 	0.4429	0.5908	0.6652	0.443
Mof_O 	O 	0.4388	0.87131	0.6875	-0.298
Mof_C 	C 	0.4384	0.5392	0.5506	0.081
Mof_H 	H 	0.4504	0.5145	0.5799	0.034
Mof_O 	O 	0.38268	0.68885	0.4469	-0.427
Mof_C 	C 	0.4274	0.5319	0.4761	-0.147
Mof_O 	O 	0.35645	0.63626	0.3637	-0.486
Mof_C 	C 	0.4387	0.4861	0.4387	0.408
Mof_O 	O 	0.4459	0.62942	0.6914	-0.566
Mof_C 	C 	0.4093	0.5669	0.4326	0.074
Mof_H 	H 	0.4022	0.5615	0.3811	0.029
Mof_O 	O 	0.4323	0.5557	0.7113	-0.269
Mof_C 	C 	0.2511	0.7963	0.4289	0.448
Mof_O 	O 	0.4524	0.45401	0.4815	-0.462
Mof_C 	C 	0.2087	0.8119	0.4676	-0.399
Mof_O 	O 	0.4346	0.48326	0.3693	-0.494
Mof_C 	C 	0.1707	0.8245	0.4267	0.503
Mof_H 	H 	0.1718	0.8241	0.3731	-0.533
Mof_O 	O 	0.28588	0.79129	0.4693	-0.452
Mof_C 	C 	0.1305	0.838	0.4632	-1.849
Mof_O 	O 	0.24949	0.7883	0.3602	-0.356
Mof_C 	C 	0.0905	0.8541	0.4193	0.633
Mof_O 	O 	0.4075	0.6448	0.8503	0.067
Mof_C 	C 	0.1281	0.8365	0.5412	0.465
Mof_H 	H 	0.1005	0.8431	0.5663	0.188
Mof_O 	O 	0.44702	0.64735	0.9515	-0.357
Mof_C 	C 	0.1672	0.825	0.5831	-0.23
Mof_O 	O 	0.127	0.8142	0.6992	0.241
Mof_C 	C 	0.1631	0.8243	0.6677	0.29
Mof_O 	O 	0.30103	0.66806	0.205	-0.5
Mof_C 	C 	0.2068	0.813	0.5474	0.202
Mof_H 	H 	0.2329	0.8055	0.5763	-0.016
Mof_O 	O 	0.28457	0.69207	0.4685	-0.413
Mof_C 	C 	0.2524	0.6772	0.4273	0.329
Mof_O 	O 	0.25588	0.66728	0.359	-0.432
Mof_C 	C 	0.2073	0.6711	0.4628	0.01
Mof_O 	O 	0.39808	0.10127	0.3543	-0.475
Mof_C 	C 	0.1725	0.6506	0.4226	-0.024
Mof_H 	H 	0.1778	0.6394	0.3729	0.083
Mof_O 	O 	0.55246	0.13058	0.4378	-0.434
Mof_C 	C 	0.1295	0.6463	0.4549	0.602
Mof_O 	O 	0.3897	0.8039	0.1758	-0.442
Mof_C 	C 	0.4088	0.1243	0.412	0.377
Mof_O 	O 	0.3191	0.7877	0.1872	-0.378
Mof_C 	C 	0.1219	0.6621	0.5286	-0.429
Mof_H 	H 	0.0925	0.6595	0.5501	0.678
Mof_C 	C 	0.1566	0.6814	0.5703	0.276
Mof_C 	C 	0.2001	0.6867	0.5359	-0.174
Mof_H 	H 	0.2241	0.7009	0.5631	0.105
Mof_C 	C 	0.3519	0.803	0.149	0.343
Mof_C 	C 	0.4762	0.7109	0.7959	-15.134
Mof_C 	C 	0.417	0.7706	0.8093	-3.286
Mof_N 	N 	0.321	0.8028	0.6688	-0.148
Mof_C 	C 	0.3374	0.7907	0.597	-0.114
Mof_C 	C 	0.3021	0.7747	0.7175	-1.156
Mof_H 	H 	0.2938	0.7921	0.763	1.048
Mof_H 	H 	0.2749	0.761	0.6951	0.468
Mof_H 	H 	0.3235	0.7501	0.7309	0.303
Mof_C 	C 	0.3171	0.8525	0.6887	1.506
Mof_H 	H 	0.3321	0.8713	0.65	-0.439
Mof_H 	H 	0.285	0.8611	0.6915	-0.369
Mof_H 	H 	0.3315	0.858	0.7377	-0.273
Mof_O 	O 	0.3991	0.6187	0.8574	-0.506
Mof_H 	H 	0.6033	0.7438	0.8093	1.246
Mof_H 	H 	0.5887	0.7895	0.7643	0.685
Mof_H 	H 	0.5885	0.7893	0.8546	1.117
Mof_N 	N 	0.3479	0.768	0.6838	-0.025
Mof_O 	O 	0.3512	0.7347	0.5675	-0.965
Mof_O 	O 	0.458	0.5582	0.6996	-0.311
Mof_C 	C 	0.3315	0.7562	0.6169	-0.102
Mof_C 	C 	0.3943	0.7534	0.7034	-1.682
Mof_H 	H 	0.4025	0.7659	0.753	1.001
Mof_H 	H 	0.3958	0.7195	0.7049	0.793
Mof_H 	H 	0.4155	0.7651	0.6654	0.697
Mof_C 	C 	0.3252	0.7956	0.7402	1.921
Mof_H 	H 	0.3455	0.8008	0.783	-0.61
Mof_H 	H 	0.3165	0.8255	0.7182	-0.998
Mof_H 	H 	0.298	0.7793	0.7575	-1.118
Mof_Zn	Zn	0.16245	0.7568	0.95392	1.25
Mof_O 	O 	0.17088	0.75689	0.8368	-0.568
Mof_C 	C 	0.1051	0.6719	0.9122	0.489
Mof_Zn	Zn	0.18401	0.82151	0.81071	1.25
Mof_O 	O 	0.1616	0.7503	0.074	1.418
Mof_C 	C 	0.0887	0.6294	0.9535	0.836
Mof_Zn	Zn	0.12439	0.72392	0.77922	1.425
Mof_N 	N 	0.039	0.7443	0.309	-84.175
Mof_C 	C 	0.0816	0.5878	0.9138	-0.032
Mof_H 	H 	0.0863	0.5867	0.8608	0.672
Mof_C 	C 	0.0679	0.5484	0.9521	1.218
Mof_Zn	Zn	0.06202	0.43988	0.79534	1.389
Mof_C 	C 	0.0599	0.5037	0.911	0.654
Mof_Zn	Zn	0.03579	0.86499	0.28738	4.552
Mof_C 	C 	0.0618	0.5503	0.0293	-0.049
Mof_H 	H 	0.0519	0.5233	0.0551	1.298
Mof_Zn	Zn	0.05696	0.92624	0.31588	1.099
Mof_C 	C 	0.0697	0.5909	0.0709	1.106
Mof_C 	C 	0.0662	0.592	0.1548	0.54
Mof_C 	C 	0.0828	0.6305	0.0308	-0.153
Mof_H 	H 	0.0879	0.6587	0.0574	0.447
Mof_O 	O 	0.11116	0.70699	0.95	-0
Mof_C 	C 	0.1207	0.8517	0.9221	0.473
Mof_O 	O 	0.1122	0.66803	0.8415	0.122
Mof_C 	C 	0.0986	0.8892	0.965	0.555
Mof_O 	O 	0.06762	0.50228	0.8407	0.514
Mof_C 	C 	0.0866	0.881	0.0398	0.058
Mof_H 	H 	0.0909	0.8512	0.0614	-0.041
Mof_O 	O 	0.04819	0.46939	0.95	0.975
Mof_C 	C 	0.068	0.9173	0.0831	0.952
Mof_O 	O 	0.0685	0.55281	0.1871	0.482
Mof_C 	C 	0.0571	0.9092	0.1652	0.637
Mof_O 	O 	0.0612	0.62869	0.1875	0.336
Mof_C 	C 	0.0616	0.9608	0.0506	0.094
Mof_H 	H 	0.0496	0.9855	0.0799	1.338
Mof_O 	O 	0.11732	0.81115	0.9469	0.012
Mof_C 	C 	0.0726	0.9681	0.9761	0.976
Mof_O 	O 	0.14355	0.86374	0.8637	-0.229
Mof_C 	C 	0.0613	0.0139	0.9387	0.526
Mof_O 	O 	0.0541	0.87058	0.1914	-0.529
Mof_C 	C 	0.0907	0.9331	0.9326	0.035
Mof_H 	H 	0.0978	0.9385	0.8811	0.503
Mof_O 	O 	0.0677	0.9443	0.2113	-2.457
Mof_C 	C 	0.2489	0.7037	0.9289	0.349
Mof_O 	O 	0.0476	0.04599	0.9815	1.048
Mof_C 	C 	0.2913	0.6881	0.9676	-0.119
Mof_O 	O 	0.0654	0.01674	0.8693	0.378
Mof_C 	C 	0.3293	0.6755	0.9267	0.038
Mof_H 	H 	0.3282	0.6759	0.8731	0.054
Mof_O 	O 	0.21412	0.70871	0.9693	-0.479
Mof_C 	C 	0.3695	0.662	0.9632	-0.057
Mof_O 	O 	0.25051	0.7117	0.8602	-0.287
Mof_C 	C 	0.4095	0.6459	0.9193	0.398
Mof_O 	O 	0.0925	0.8552	0.3503	-10.245
Mof_C 	C 	0.3719	0.6635	0.0412	0.017
Mof_H 	H 	0.3995	0.6569	0.0663	0.048
Mof_O 	O 	0.05298	0.85265	0.4515	-2.693
Mof_C 	C 	0.3328	0.675	0.0831	-0.112
Mof_O 	O 	0.373	0.6858	0.1992	-0.394
Mof_C 	C 	0.3369	0.6757	0.1677	0.345
Mof_O 	O 	0.19897	0.83194	0.705	-0.383
Mof_C 	C 	0.2932	0.687	0.0474	0.016
Mof_H 	H 	0.2671	0.6945	0.0763	0.024
Mof_O 	O 	0.21543	0.80793	0.9685	-0.489
Mof_C 	C 	0.2476	0.8228	0.9273	0.373
Mof_O 	O 	0.24412	0.83272	0.859	-0.49
Mof_C 	C 	0.2927	0.8289	0.9628	-0.151
Mof_O 	O 	0.10192	0.39873	0.8543	-0.431
Mof_C 	C 	0.3275	0.8494	0.9226	0.058
Mof_H 	H 	0.3222	0.8606	0.8729	0.031
Mof_O 	O 	0.94754	0.36942	0.9378	-4.63
Mof_C 	C 	0.3705	0.8537	0.9549	-0.144
Mof_O 	O 	0.1103	0.6961	0.6758	0.413
Mof_C 	C 	0.0912	0.3757	0.912	0.604
Mof_O 	O 	0.1809	0.7123	0.6872	-0.253
Mof_C 	C 	0.3781	0.8379	0.0286	0.04
Mof_H 	H 	0.4075	0.8405	0.0501	0.044
Mof_C 	C 	0.3434	0.8186	0.0703	-0.124
Mof_C 	C 	0.2999	0.8133	0.0359	0.028
Mof_H 	H 	0.2759	0.7991	0.0631	0.016
Mof_C 	C 	0.1481	0.697	0.649	0.022
Mof_C 	C 	0.0238	0.7891	0.2959	363.823
Mof_C 	C 	0.083	0.7294	0.3093	69.484
Mof_N 	N 	0.179	0.6972	0.1688	0.446
Mof_C 	C 	0.1626	0.7093	0.097	-0.203
Mof_C 	C 	0.1979	0.7253	0.2175	1.993
Mof_H 	H 	0.2062	0.7079	0.263	-2.067
Mof_H 	H 	0.2251	0.739	0.1951	-0.751
Mof_H 	H 	0.1765	0.7499	0.2309	-0.127
Mof_C 	C 	0.1829	0.6475	0.1887	-4.661
Mof_H 	H 	0.1679	0.6287	0.15	1.437
Mof_H 	H 	0.215	0.6389	0.1915	1.288
Mof_H 	H 	0.1685	0.642	0.2377	1.074
Mof_O 	O 	0.1009	0.8813	0.3574	4.227
Mof_H 	H 	0.8967	0.7562	0.3093	-26.351
Mof_H 	H 	0.9113	0.7105	0.2643	-14.695
Mof_H 	H 	0.9115	0.7107	0.3546	-22.956
Mof_N 	N 	0.1521	0.732	0.1838	-3.286
Mof_O 	O 	0.1488	0.7653	0.0675	-1.754
Mof_O 	O 	0.042	0.9418	0.1996	3.806
Mof_C 	C 	0.1685	0.7438	0.1169	0.012
Mof_C 	C 	0.1057	0.7466	0.2034	29.78
Mof_H 	H 	0.0975	0.7341	0.253	-19.001
Mof_H 	H 	0.1042	0.7805	0.2049	-14.615
Mof_H 	H 	0.0845	0.7349	0.1654	-11.228
Mof_C 	C 	0.1748	0.7044	0.2402	-2.665
Mof_H 	H 	0.1545	0.6992	0.283	1.544
Mof_H 	H 	0.1835	0.6745	0.2182	2.161
Mof_H 	H 	0.202	0.7207	0.2575	1.965
Mof_Zn	Zn	0.66245	0.2568	0.95392	1.249
Mof_O 	O 	0.67088	0.25689	0.8368	-0.658
Mof_C 	C 	0.6051	0.1719	0.9122	0.392
Mof_Zn	Zn	0.68401	0.32151	0.81071	1.232
Mof_O 	O 	0.6616	0.2503	0.074	0.867
Mof_C 	C 	0.5887	0.1294	0.9535	-0.12
Mof_Zn	Zn	0.62439	0.22392	0.77922	1.204
Mof_N 	N 	0.539	0.2443	0.309	3.473
Mof_C 	C 	0.5816	0.0878	0.9138	0.07
Mof_H 	H 	0.5863	0.0867	0.8608	0.041
Mof_C 	C 	0.5679	0.0484	0.9521	-0.128
Mof_Zn	Zn	0.56202	0.93988	0.79534	1.232
Mof_C 	C 	0.5599	0.0037	0.911	0.383
Mof_Zn	Zn	0.53579	0.36499	0.28738	0.962
Mof_C 	C 	0.5618	0.0503	0.0293	0.073
Mof_H 	H 	0.5519	0.0233	0.0551	0.036
Mof_Zn	Zn	0.55696	0.42624	0.31588	1.173
Mof_C 	C 	0.5697	0.0909	0.0709	-0.108
Mof_C 	C 	0.5662	0.092	0.1548	0.355
Mof_C 	C 	0.5828	0.1305	0.0308	0.077
Mof_H 	H 	0.5879	0.1587	0.0574	0.052
Mof_O 	O 	0.61116	0.20699	0.95	-0.435
Mof_C 	C 	0.6207	0.3517	0.9221	0.381
Mof_O 	O 	0.6122	0.16803	0.8415	-0.463
Mof_C 	C 	0.5986	0.3892	0.965	-0.104
Mof_O 	O 	0.56762	0.00228	0.8407	-0.462
Mof_C 	C 	0.5866	0.381	0.0398	0.065
Mof_H 	H 	0.5909	0.3512	0.0614	0.094
Mof_O 	O 	0.54819	0.96939	0.95	-0.467
Mof_C 	C 	0.568	0.4173	0.0831	-0.118
Mof_O 	O 	0.5685	0.05281	0.1871	-0.447
Mof_C 	C 	0.5571	0.4092	0.1652	0.446
Mof_O 	O 	0.5612	0.12869	0.1875	-0.293
Mof_C 	C 	0.5616	0.4608	0.0506	0.077
Mof_H 	H 	0.5496	0.4855	0.0799	0.042
Mof_O 	O 	0.61732	0.31115	0.9469	-0.411
Mof_C 	C 	0.5726	0.4681	0.9761	-0.122
Mof_O 	O 	0.64355	0.36374	0.8637	-0.461
Mof_C 	C 	0.5613	0.5139	0.9387	0.409
Mof_O 	O 	0.5541	0.37058	0.1914	-0.559
Mof_C 	C 	0.5907	0.4331	0.9326	0.071
Mof_H 	H 	0.5978	0.4385	0.8811	0.046
Mof_O 	O 	0.5677	0.4443	0.2113	-0.243
Mof_C 	C 	0.7489	0.2037	0.9289	0.648
Mof_O 	O 	0.5476	0.54599	0.9815	-0.449
Mof_C 	C 	0.7913	0.1881	0.9676	-0.941
Mof_O 	O 	0.5654	0.51674	0.8693	-0.479
Mof_C 	C 	0.8293	0.1755	0.9267	1.266
Mof_H 	H 	0.8282	0.1759	0.8731	-0.77
Mof_O 	O 	0.71412	0.20871	0.9693	-0.476
Mof_C 	C 	0.8695	0.162	0.9632	-3.285
Mof_O 	O 	0.75051	0.2117	0.8602	-0.388
Mof_C 	C 	0.9095	0.1459	0.9193	2.005
Mof_O 	O 	0.5925	0.3552	0.3503	0.062
Mof_C 	C 	0.8719	0.1635	0.0412	1.49
Mof_H 	H 	0.8995	0.1569	0.0663	-1.579
Mof_O 	O 	0.55298	0.35265	0.4515	-0.354
Mof_C 	C 	0.8328	0.175	0.0831	-1.313
Mof_O 	O 	0.873	0.1858	0.1992	-1.599
Mof_C 	C 	0.8369	0.1757	0.1677	0.839
Mof_O 	O 	0.69897	0.33194	0.705	-0.475
Mof_C 	C 	0.7932	0.187	0.0474	0.883
Mof_H 	H 	0.7671	0.1945	0.0763	-0.228
Mof_O 	O 	0.71543	0.30793	0.9685	-0.444
Mof_C 	C 	0.7476	0.3228	0.9273	0.557
Mof_O 	O 	0.74412	0.33272	0.859	-0.47
Mof_C 	C 	0.7927	0.3289	0.9628	-0.604
Mof_O 	O 	0.60192	0.89873	0.8543	-0.458
Mof_C 	C 	0.8275	0.3494	0.9226	0.834
Mof_H 	H 	0.8222	0.3606	0.8729	-0.19
Mof_O 	O 	0.44754	0.86942	0.9378	-0.436
Mof_C 	C 	0.8705	0.3537	0.9549	-0.873
Mof_O 	O 	0.6103	0.1961	0.6758	-0.43
Mof_C 	C 	0.5912	0.8757	0.912	0.38
Mof_O 	O 	0.6809	0.2123	0.6872	-0.355
Mof_C 	C 	0.8781	0.3379	0.0286	0.716
Mof_H 	H 	0.9075	0.3405	0.0501	-1.343
Mof_C 	C 	0.8434	0.3186	0.0703	-1.045
Mof_C 	C 	0.7999	0.3133	0.0359	0.572
Mof_H 	H 	0.7759	0.2991	0.0631	-0.141
Mof_C 	C 	0.6481	0.197	0.649	0.357
Mof_C 	C 	0.5238	0.2891	0.2959	-15.125
Mof_C 	C 	0.583	0.2294	0.3093	-3.288
Mof_N 	N 	0.679	0.1972	0.1688	-0.135
Mof_C 	C 	0.6626	0.2093	0.097	-0.09
Mof_C 	C 	0.6979	0.2253	0.2175	-1.18
Mof_H 	H 	0.7062	0.2079	0.263	1.072
Mof_H 	H 	0.7251	0.239	0.1951	0.505
Mof_H 	H 	0.6765	0.2499	0.2309	0.322
Mof_C 	C 	0.6829	0.1475	0.1887	1.485
Mof_H 	H 	0.6679	0.1287	0.15	-0.417
Mof_H 	H 	0.715	0.1389	0.1915	-0.353
Mof_H 	H 	0.6685	0.142	0.2377	-0.259
Mof_O 	O 	0.6009	0.3813	0.3574	-0.483
Mof_H 	H 	0.3967	0.2562	0.3093	1.238
Mof_H 	H 	0.4113	0.2105	0.2643	0.681
Mof_H 	H 	0.4115	0.2107	0.3546	1.11
Mof_N 	N 	0.6521	0.232	0.1838	-0.018
Mof_O 	O 	0.6488	0.2653	0.0675	-0.979
Mof_O 	O 	0.542	0.4418	0.1996	-0.324
Mof_C 	C 	0.6685	0.2438	0.1169	-0.119
Mof_C 	C 	0.6057	0.2466	0.2034	-1.677
Mof_H 	H 	0.5975	0.2341	0.253	1
Mof_H 	H 	0.6042	0.2805	0.2049	0.801
Mof_H 	H 	0.5845	0.2349	0.1654	0.7
Mof_C 	C 	0.6748	0.2044	0.2402	1.921
Mof_H 	H 	0.6545	0.1992	0.283	-0.604
Mof_H 	H 	0.6835	0.1745	0.2182	-0.989
Mof_H 	H 	0.702	0.2207	0.2575	-1.123
Mof_Zn	Zn	-4.56616e-33	0.4167	0.94125	3.142
Mof_O 	O 	-4.83737e-33	0.4185	0.8206	3.125
Mof_O 	O 	2.45095e-33	0.9103	0.3472	5.038
Mof_Zn	Zn	-2.29838e-33	0.9004	0.46382	3.134
Mof_O 	O 	-2.68416e-33	0.8021	0.2922	-503.618
Mof_C 	C 	9.05154e-33	0.7074	0.311	14.469
Mof_Zn	Zn	0.5	0.9167	0.94125	1.219
Mof_O 	O 	0.5	0.9185	0.8206	-0.63
Mof_O 	O 	0.5	0.4103	0.3472	-1.141
Mof_Zn	Zn	0.5	0.4004	0.46382	1.214
Mof_O 	O 	0.5	0.3021	0.2922	21.136
Mof_C 	C 	0.5	0.2074	0.311	-0.263
Mof_Zn	Zn	7.67383e-33	0.5833	0.44125	3.169
Mof_O 	O 	-9.49826e-34	0.5815	0.3206	3.133
Mof_O 	O 	8.58635e-33	0.0897	0.8472	5.019
Mof_Zn	Zn	2.16654e-33	0.0996	0.96382	3.103
Mof_O 	O 	5.12174e-33	0.1979	0.7922	-503.357
Mof_C 	C 	1.82302e-33	0.2926	0.811	14.453
Mof_Zn	Zn	0.5	0.0833	0.44125	1.219
Mof_O 	O 	0.5	0.0815	0.3206	-0.63
Mof_O 	O 	0.5	0.5897	0.8472	-1.141
Mof_Zn	Zn	0.5	0.5996	0.96382	1.214
Mof_O 	O 	0.5	0.6979	0.7922	21.141
Mof_C 	C 	0.5	0.7926	0.811	-0.263
_end
