data_functionalizedCrystal
_audit_creation_method	'EQeq! by Chris Wilmer'
_symmetry_space_group_name_H-M	'P1'
_symmetry_Int_Tables_number	1
_symmetry_cell_setting	triclinic
loop_
_symmetry_equiv_pos_as_xyz
  x,y,z
_cell_length_a	8.627
_cell_length_b	9.65
_cell_length_c	13.218
_cell_angle_alpha	90
_cell_angle_beta	90
_cell_angle_gamma	95.93
loop_
_atom_site_label
_atom_site_type_symbol
_atom_site_fract_x
_atom_site_fract_y
_atom_site_fract_z
_atom_site_charge
Mof_Ce	Ce	0.45516	0.00433	0.76576	1.975
Mof_Ce	Ce	0.04484	0.49567	0.26576	1.973
Mof_Ce	Ce	0.54484	0.99567	0.23424	1.975
Mof_Ce	Ce	0.95516	0.50433	0.73424	1.973
Mof_C 	C 	0.4099	0.3743	0.9746	-0.116
Mof_C 	C 	0.5275	0.3766	0.0486	-0.059
Mof_C 	C 	0.3813	0.4995	0.9274	-0.057
Mof_C 	C 	0.3067	0.2404	0.9486	0.437
Mof_C 	C 	0.5445	0.2487	0.1099	0.313
Mof_C 	C 	0.2442	0.5043	0.8581	0.304
Mof_C 	C 	0.0901	0.1257	0.4746	-0.112
Mof_C 	C 	0.9725	0.1234	0.5486	-0.063
Mof_C 	C 	0.1187	0.0005	0.4274	-0.052
Mof_C 	C 	0.1933	0.2596	0.4486	0.438
Mof_C 	C 	0.9555	0.2513	0.6099	0.315
Mof_C 	C 	0.2558	0.9957	0.3581	0.299
Mof_C 	C 	0.5901	0.6257	0.0254	-0.116
Mof_C 	C 	0.4725	0.6234	0.9514	-0.059
Mof_C 	C 	0.6187	0.5005	0.0726	-0.057
Mof_C 	C 	0.6933	0.7596	0.0514	0.437
Mof_C 	C 	0.4555	0.7513	0.8901	0.313
Mof_C 	C 	0.7558	0.4957	0.1419	0.304
Mof_C 	C 	0.9099	0.8743	0.5254	-0.112
Mof_C 	C 	0.0275	0.8766	0.4514	-0.063
Mof_C 	C 	0.8813	0.9995	0.5726	-0.052
Mof_C 	C 	0.8067	0.7404	0.5514	0.438
Mof_C 	C 	0.0445	0.7487	0.3901	0.315
Mof_C 	C 	0.7442	0.0043	0.6419	0.299
Mof_O 	O 	0.3565	0.1622	0.8841	-0.571
Mof_O 	O 	0.1778	0.2205	0.9918	-0.357
Mof_O 	O 	0.5501	0.1333	0.0664	-0.451
Mof_O 	O 	0.5476	0.2588	0.2041	-0.48
Mof_O 	O 	0.218	0.4159	0.7893	-0.456
Mof_O 	O 	0.1523	0.5965	0.875	-0.482
Mof_O 	O 	0.1435	0.3378	0.3841	-0.569
Mof_O 	O 	0.3222	0.2795	0.4918	-0.355
Mof_O 	O 	0.9499	0.3667	0.5664	-0.454
Mof_O 	O 	0.9524	0.2412	0.7041	-0.484
Mof_O 	O 	0.282	0.0841	0.2893	-0.453
Mof_O 	O 	0.3477	0.9035	0.375	-0.483
Mof_O 	O 	0.6435	0.8378	0.1159	-0.571
Mof_O 	O 	0.8222	0.7795	0.0082	-0.357
Mof_O 	O 	0.4499	0.8667	0.9336	-0.451
Mof_O 	O 	0.4524	0.7412	0.7959	-0.48
Mof_O 	O 	0.782	0.5841	0.2107	-0.456
Mof_O 	O 	0.8477	0.4035	0.125	-0.482
Mof_O 	O 	0.8565	0.6622	0.6159	-0.569
Mof_O 	O 	0.6778	0.7205	0.5082	-0.355
Mof_O 	O 	0.0501	0.6333	0.4336	-0.454
Mof_O 	O 	0.0476	0.7588	0.2959	-0.484
Mof_O 	O 	0.718	0.9159	0.7107	-0.453
Mof_O 	O 	0.6523	0.0965	0.625	-0.483
_end
