data_functionalizedCrystal
_audit_creation_method	'EQeq! by Chris Wilmer'
_symmetry_space_group_name_H-M	'P1'
_symmetry_Int_Tables_number	1
_symmetry_cell_setting	triclinic
loop_
_symmetry_equiv_pos_as_xyz
  x,y,z
_cell_length_a	22.989
_cell_length_b	22.989
_cell_length_c	15.763
_cell_angle_alpha	90
_cell_angle_beta	90
_cell_angle_gamma	120
loop_
_atom_site_label
_atom_site_type_symbol
_atom_site_fract_x
_atom_site_fract_y
_atom_site_fract_z
_atom_site_charge
Mof_C 	C 	0.6995	0.0285	0.1763	0.088
Mof_H 	H 	0.7382	0.0703	0.172	-0.048
Mof_C 	C 	0.6088	0.9452	0.2264	0.042
Mof_C 	C 	0.5529	0.9014	0.2722	-0.111
Mof_H 	H 	0.5436	0.9131	0.3248	0.041
Mof_C 	C 	0.5117	0.8396	0.237	-0.024
Mof_H 	H 	0.4738	0.8087	0.2667	0.028
Mof_C 	C 	0.5251	0.8215	0.1563	-0.026
Mof_H 	H 	0.496	0.779	0.1345	0.032
Mof_C 	C 	0.6222	0.9274	0.1463	0.044
Mof_C 	C 	0.58	0.8654	0.1101	-0.107
Mof_H 	H 	0.5886	0.8541	0.0567	0.04
Mof_C 	C 	0.8082	0.2012	0.3398	0.12
Mof_H 	H 	0.8244	0.1897	0.3871	-0.055
Mof_C 	C 	0.8034	0.257	0.2361	0.047
Mof_C 	C 	0.814	0.3039	0.1701	-0.115
Mof_H 	H 	0.8544	0.344	0.1658	0.038
Mof_C 	C 	0.7443	0.1972	0.24	0.024
Mof_C 	C 	0.6905	0.1797	0.1802	-0.092
Mof_H 	H 	0.6505	0.1389	0.1832	0.028
Mof_C 	C 	0.7637	0.2886	0.1138	-0.014
Mof_H 	H 	0.7702	0.3194	0.0714	0.028
Mof_C 	C 	0.7017	0.2271	0.1175	-0.04
Mof_H 	H 	0.6683	0.2184	0.078	0.037
Mof_N 	N 	0.6589	0.0113	0.2433	-0.294
Mof_N 	N 	0.748	0.1604	0.3092	-0.295
Mof_N 	N 	0.6812	0.9819	0.1152	-0.296
Mof_N 	N 	0.8445	0.259	0.3006	-0.297
Mof_Zn	Zn	0.6719	0.07047	0.3416	1.174
Mof_C 	C 	0.36617	0.36183	0.50963	0.085
Mof_H 	H 	0.40487	0.40363	0.50533	-0.047
Mof_C 	C 	0.27547	0.27853	0.55973	0.045
Mof_C 	C 	0.21957	0.23473	0.60553	-0.111
Mof_H 	H 	0.21027	0.24643	0.65813	0.042
Mof_C 	C 	0.17837	0.17293	0.57033	-0.022
Mof_H 	H 	0.14047	0.14203	0.60003	0.029
Mof_C 	C 	0.19177	0.15483	0.48963	-0.026
Mof_H 	H 	0.16267	0.11233	0.46783	0.033
Mof_C 	C 	0.28887	0.26073	0.47963	0.043
Mof_C 	C 	0.24667	0.19873	0.44343	-0.106
Mof_H 	H 	0.25527	0.18743	0.39003	0.04
Mof_C 	C 	0.47487	0.53453	0.67313	0.12
Mof_H 	H 	0.49107	0.52303	0.72043	-0.055
Mof_C 	C 	0.47007	0.59033	0.56943	0.047
Mof_C 	C 	0.48067	0.63723	0.50343	-0.116
Mof_H 	H 	0.52107	0.67733	0.49913	0.038
Mof_C 	C 	0.41097	0.53053	0.57333	0.023
Mof_C 	C 	0.35717	0.51303	0.51353	-0.092
Mof_H 	H 	0.31717	0.47223	0.51653	0.028
Mof_C 	C 	0.43037	0.62193	0.44713	-0.014
Mof_H 	H 	0.43687	0.65273	0.40473	0.027
Mof_C 	C 	0.36837	0.56043	0.45083	-0.041
Mof_H 	H 	0.33497	0.55173	0.41133	0.036
Mof_N 	N 	0.32557	0.34463	0.57663	-0.295
Mof_N 	N 	0.41467	0.49373	0.64253	-0.295
Mof_N 	N 	0.34787	0.31523	0.44853	-0.294
Mof_N 	N 	0.51117	0.59233	0.63393	-0.298
Mof_Zn	Zn	0.33857	0.4038	0.67493	1.174
Mof_C 	C 	0.03283	0.69517	0.84297	0.089
Mof_H 	H 	0.07153	0.73697	0.83867	-0.047
Mof_C 	C 	0.94213	0.61187	0.89307	0.046
Mof_C 	C 	0.88623	0.56807	0.93887	-0.112
Mof_H 	H 	0.87693	0.57977	0.99147	0.042
Mof_C 	C 	0.84503	0.50627	0.90367	-0.021
Mof_H 	H 	0.80713	0.47537	0.93337	0.028
Mof_C 	C 	0.85843	0.48817	0.82297	-0.028
Mof_H 	H 	0.82933	0.44567	0.80117	0.033
Mof_C 	C 	0.95553	0.59407	0.81297	0.041
Mof_C 	C 	0.91333	0.53207	0.77677	-0.104
Mof_H 	H 	0.92193	0.52077	0.72337	0.039
Mof_C 	C 	0.14153	0.86787	0.00647	0.108
Mof_H 	H 	0.15773	0.85637	0.05377	-0.051
Mof_C 	C 	0.13673	0.92367	0.90277	0.046
Mof_C 	C 	0.14733	0.97057	0.83677	-0.11
Mof_H 	H 	0.18773	0.01067	0.83247	0.034
Mof_C 	C 	0.07763	0.86387	0.90667	0.023
Mof_C 	C 	0.02383	0.84637	0.84687	-0.087
Mof_H 	H 	0.98383	0.80557	0.84987	0.024
Mof_C 	C 	0.09703	0.95527	0.78047	-0.016
Mof_H 	H 	0.10353	0.98607	0.73807	0.028
Mof_C 	C 	0.03503	0.89377	0.78417	-0.042
Mof_H 	H 	0.00163	0.88507	0.74467	0.037
Mof_N 	N 	0.99223	0.67797	0.90997	-0.297
Mof_N 	N 	0.08133	0.82707	0.97587	-0.29
Mof_N 	N 	0.01453	0.64857	0.78187	-0.293
Mof_N 	N 	0.17783	0.92567	0.96727	-0.292
Mof_Zn	Zn	0.00523	0.73714	0.00827	1.172
Mof_C 	C 	0.9715	0.671	0.1763	0.089
Mof_H 	H 	0.9297	0.6679	0.172	-0.047
Mof_C 	C 	0.0548	0.6636	0.2264	0.043
Mof_C 	C 	0.0986	0.6515	0.2722	-0.11
Mof_H 	H 	0.0869	0.6305	0.3248	0.042
Mof_C 	C 	0.1604	0.6721	0.237	-0.023
Mof_H 	H 	0.1913	0.6651	0.2667	0.029
Mof_C 	C 	0.1785	0.7036	0.1563	-0.026
Mof_H 	H 	0.221	0.717	0.1345	0.032
Mof_C 	C 	0.0726	0.6948	0.1463	0.043
Mof_C 	C 	0.1346	0.7146	0.1101	-0.106
Mof_H 	H 	0.1459	0.7345	0.0567	0.039
Mof_C 	C 	0.7988	0.607	0.3398	0.12
Mof_H 	H 	0.8103	0.6347	0.3871	-0.055
Mof_C 	C 	0.743	0.5464	0.2361	0.047
Mof_C 	C 	0.6961	0.5101	0.1701	-0.115
Mof_H 	H 	0.656	0.5104	0.1658	0.038
Mof_C 	C 	0.8028	0.5471	0.24	0.024
Mof_C 	C 	0.8203	0.5108	0.1802	-0.092
Mof_H 	H 	0.8611	0.5116	0.1832	0.028
Mof_C 	C 	0.7114	0.4751	0.1138	-0.014
Mof_H 	H 	0.6806	0.4508	0.0714	0.027
Mof_C 	C 	0.7729	0.4746	0.1175	-0.04
Mof_H 	H 	0.7816	0.4499	0.078	0.037
Mof_N 	N 	0.9887	0.6476	0.2433	-0.294
Mof_N 	N 	0.8396	0.5876	0.3092	-0.295
Mof_N 	N 	0.0181	0.6993	0.1152	-0.296
Mof_N 	N 	0.741	0.5855	0.3006	-0.297
Mof_Zn	Zn	0.92953	0.60143	0.3416	1.174
Mof_C 	C 	0.63817	0.00433	0.50963	0.085
Mof_H 	H 	0.59637	0.00123	0.50533	-0.047
Mof_C 	C 	0.72147	0.99693	0.55973	0.044
Mof_C 	C 	0.76527	0.98483	0.60553	-0.108
Mof_H 	H 	0.75357	0.96383	0.65813	0.041
Mof_C 	C 	0.82707	0.00543	0.57033	-0.027
Mof_H 	H 	0.85797	0.99843	0.60003	0.031
Mof_C 	C 	0.84517	0.03693	0.48963	-0.023
Mof_H 	H 	0.88767	0.05033	0.46783	0.032
Mof_C 	C 	0.73927	0.02813	0.47963	0.044
Mof_C 	C 	0.80127	0.04793	0.44343	-0.107
Mof_H 	H 	0.81257	0.06783	0.39003	0.041
Mof_C 	C 	0.46547	0.94033	0.67313	0.12
Mof_H 	H 	0.47697	0.96803	0.72043	-0.054
Mof_C 	C 	0.40967	0.87973	0.56943	0.046
Mof_C 	C 	0.36277	0.84343	0.50343	-0.116
Mof_H 	H 	0.32267	0.84373	0.49913	0.038
Mof_C 	C 	0.46947	0.88043	0.57333	0.023
Mof_C 	C 	0.48697	0.84413	0.51353	-0.092
Mof_H 	H 	0.52777	0.84493	0.51653	0.028
Mof_C 	C 	0.37807	0.80843	0.44713	-0.014
Mof_H 	H 	0.34727	0.78413	0.40473	0.027
Mof_C 	C 	0.43957	0.80793	0.45083	-0.041
Mof_H 	H 	0.44827	0.78323	0.41133	0.036
Mof_N 	N 	0.65537	0.98093	0.57663	-0.294
Mof_N 	N 	0.50627	0.92093	0.64253	-0.295
Mof_N 	N 	0.68477	0.03263	0.44853	-0.294
Mof_N 	N 	0.40767	0.91883	0.63393	-0.297
Mof_Zn	Zn	0.5962	0.93476	0.67493	1.174
Mof_C 	C 	0.30483	0.33767	0.84297	0.085
Mof_H 	H 	0.26303	0.33457	0.83867	-0.047
Mof_C 	C 	0.38813	0.33027	0.89307	0.045
Mof_C 	C 	0.43193	0.31817	0.93887	-0.111
Mof_H 	H 	0.42023	0.29717	0.99147	0.042
Mof_C 	C 	0.49373	0.33877	0.90367	-0.022
Mof_H 	H 	0.52463	0.33177	0.93337	0.029
Mof_C 	C 	0.51183	0.37027	0.82297	-0.026
Mof_H 	H 	0.55433	0.38367	0.80117	0.033
Mof_C 	C 	0.40593	0.36147	0.81297	0.043
Mof_C 	C 	0.46793	0.38127	0.77677	-0.106
Mof_H 	H 	0.47923	0.40117	0.72337	0.04
Mof_C 	C 	0.13213	0.27367	0.00647	0.118
Mof_H 	H 	0.14363	0.30137	0.05377	-0.054
Mof_C 	C 	0.07633	0.21307	0.90277	0.044
Mof_C 	C 	0.02943	0.17677	0.83677	-0.107
Mof_H 	H 	0.98933	0.17707	0.83247	0.033
Mof_C 	C 	0.13613	0.21377	0.90667	0.025
Mof_C 	C 	0.15363	0.17747	0.84687	-0.095
Mof_H 	H 	0.19443	0.17827	0.84987	0.029
Mof_C 	C 	0.04473	0.14177	0.78047	-0.02
Mof_H 	H 	0.01393	0.11747	0.73807	0.029
Mof_C 	C 	0.10623	0.14127	0.78417	-0.037
Mof_H 	H 	0.11493	0.11657	0.74467	0.035
Mof_N 	N 	0.32203	0.31427	0.90997	-0.295
Mof_N 	N 	0.17293	0.25427	0.97587	-0.295
Mof_N 	N 	0.35143	0.36597	0.78187	-0.294
Mof_N 	N 	0.07433	0.25217	0.96727	-0.296
Mof_Zn	Zn	0.26286	0.2681	0.00827	1.174
Mof_C 	C 	0.329	0.3005	0.1763	0.085
Mof_H 	H 	0.3321	0.2618	0.172	-0.047
Mof_C 	C 	0.3364	0.3912	0.2264	0.045
Mof_C 	C 	0.3485	0.4471	0.2722	-0.111
Mof_H 	H 	0.3695	0.4564	0.3248	0.042
Mof_C 	C 	0.3279	0.4883	0.237	-0.022
Mof_H 	H 	0.3349	0.5262	0.2667	0.029
Mof_C 	C 	0.2964	0.4749	0.1563	-0.026
Mof_H 	H 	0.283	0.504	0.1345	0.033
Mof_C 	C 	0.3052	0.3778	0.1463	0.043
Mof_C 	C 	0.2854	0.42	0.1101	-0.106
Mof_H 	H 	0.2655	0.4114	0.0567	0.04
Mof_C 	C 	0.393	0.1918	0.3398	0.12
Mof_H 	H 	0.3653	0.1756	0.3871	-0.055
Mof_C 	C 	0.4536	0.1966	0.2361	0.047
Mof_C 	C 	0.4899	0.186	0.1701	-0.115
Mof_H 	H 	0.4896	0.1456	0.1658	0.038
Mof_C 	C 	0.4529	0.2557	0.24	0.023
Mof_C 	C 	0.4892	0.3095	0.1802	-0.092
Mof_H 	H 	0.4884	0.3495	0.1832	0.028
Mof_C 	C 	0.5249	0.2363	0.1138	-0.014
Mof_H 	H 	0.5492	0.2298	0.0714	0.027
Mof_C 	C 	0.5254	0.2983	0.1175	-0.04
Mof_H 	H 	0.5501	0.3317	0.078	0.037
Mof_N 	N 	0.3524	0.3411	0.2433	-0.295
Mof_N 	N 	0.4124	0.252	0.3092	-0.295
Mof_N 	N 	0.3007	0.3188	0.1152	-0.294
Mof_N 	N 	0.4145	0.1555	0.3006	-0.298
Mof_Zn	Zn	0.39857	0.3281	0.3416	1.174
Mof_C 	C 	0.99567	0.63383	0.50963	0.085
Mof_H 	H 	0.99877	0.59513	0.50533	-0.047
Mof_C 	C 	0.00307	0.72453	0.55973	0.044
Mof_C 	C 	0.01517	0.78043	0.60553	-0.107
Mof_H 	H 	0.03617	0.78973	0.65813	0.041
Mof_C 	C 	0.99457	0.82163	0.57033	-0.027
Mof_H 	H 	0.00157	0.85953	0.60003	0.031
Mof_C 	C 	0.96307	0.80823	0.48963	-0.023
Mof_H 	H 	0.94967	0.83733	0.46783	0.032
Mof_C 	C 	0.97187	0.71113	0.47963	0.044
Mof_C 	C 	0.95207	0.75333	0.44343	-0.108
Mof_H 	H 	0.93217	0.74473	0.39003	0.041
Mof_C 	C 	0.05967	0.52513	0.67313	0.12
Mof_H 	H 	0.03197	0.50893	0.72043	-0.054
Mof_C 	C 	0.12027	0.52993	0.56943	0.047
Mof_C 	C 	0.15657	0.51933	0.50343	-0.116
Mof_H 	H 	0.15627	0.47893	0.49913	0.038
Mof_C 	C 	0.11957	0.58903	0.57333	0.023
Mof_C 	C 	0.15587	0.64283	0.51353	-0.092
Mof_H 	H 	0.15507	0.68283	0.51653	0.028
Mof_C 	C 	0.19157	0.56963	0.44713	-0.014
Mof_H 	H 	0.21587	0.56313	0.40473	0.027
Mof_C 	C 	0.19207	0.63163	0.45083	-0.041
Mof_H 	H 	0.21677	0.66503	0.41133	0.036
Mof_N 	N 	0.01907	0.67443	0.57663	-0.294
Mof_N 	N 	0.07907	0.58533	0.64253	-0.295
Mof_N 	N 	0.96737	0.65213	0.44853	-0.294
Mof_N 	N 	0.08117	0.48883	0.63393	-0.297
Mof_Zn	Zn	0.06524	0.66143	0.67493	1.174
Mof_C 	C 	0.66233	0.96717	0.84297	0.089
Mof_H 	H 	0.66543	0.92847	0.83867	-0.048
Mof_C 	C 	0.66973	0.05787	0.89307	0.045
Mof_C 	C 	0.68183	0.11377	0.93887	-0.112
Mof_H 	H 	0.70283	0.12307	0.99147	0.042
Mof_C 	C 	0.66123	0.15497	0.90367	-0.021
Mof_H 	H 	0.66823	0.19287	0.93337	0.028
Mof_C 	C 	0.62973	0.14157	0.82297	-0.027
Mof_H 	H 	0.61633	0.17067	0.80117	0.033
Mof_C 	C 	0.63853	0.04447	0.81297	0.041
Mof_C 	C 	0.61873	0.08667	0.77677	-0.104
Mof_H 	H 	0.59883	0.07807	0.72337	0.039
Mof_C 	C 	0.72633	0.85847	0.00647	0.118
Mof_H 	H 	0.69863	0.84227	0.05377	-0.054
Mof_C 	C 	0.78693	0.86327	0.90277	0.048
Mof_C 	C 	0.82323	0.85267	0.83677	-0.118
Mof_H 	H 	0.82293	0.81227	0.83247	0.039
Mof_C 	C 	0.78623	0.92237	0.90667	0.021
Mof_C 	C 	0.82253	0.97617	0.84687	-0.085
Mof_H 	H 	0.82173	0.01617	0.84987	0.023
Mof_C 	C 	0.85823	0.90297	0.78047	-0.011
Mof_H 	H 	0.88253	0.89647	0.73807	0.025
Mof_C 	C 	0.85873	0.96497	0.78417	-0.046
Mof_H 	H 	0.88343	0.99837	0.74467	0.038
Mof_N 	N 	0.68573	0.00777	0.90997	-0.297
Mof_N 	N 	0.74573	0.91867	0.97587	-0.294
Mof_N 	N 	0.63403	0.98547	0.78187	-0.293
Mof_N 	N 	0.74783	0.82217	0.96727	-0.297
Mof_Zn	Zn	0.7319	0.99477	0.00827	1.174
Mof_C 	C 	0.3005	0.9715	0.8237	0.089
Mof_H 	H 	0.2618	0.9297	0.828	-0.047
Mof_C 	C 	0.3912	0.0548	0.7736	0.043
Mof_C 	C 	0.4471	0.0986	0.7278	-0.11
Mof_H 	H 	0.4564	0.0869	0.6752	0.042
Mof_C 	C 	0.4883	0.1604	0.763	-0.023
Mof_H 	H 	0.5262	0.1913	0.7333	0.029
Mof_C 	C 	0.4749	0.1785	0.8437	-0.025
Mof_H 	H 	0.504	0.221	0.8655	0.032
Mof_C 	C 	0.3778	0.0726	0.8537	0.044
Mof_C 	C 	0.42	0.1346	0.8899	-0.107
Mof_H 	H 	0.4114	0.1459	0.9433	0.04
Mof_C 	C 	0.1918	0.7988	0.6602	0.12
Mof_H 	H 	0.1756	0.8103	0.6129	-0.055
Mof_C 	C 	0.1966	0.743	0.7639	0.047
Mof_C 	C 	0.186	0.6961	0.8299	-0.115
Mof_H 	H 	0.1456	0.656	0.8342	0.038
Mof_C 	C 	0.2557	0.8028	0.76	0.024
Mof_C 	C 	0.3095	0.8203	0.8198	-0.092
Mof_H 	H 	0.3495	0.8611	0.8168	0.028
Mof_C 	C 	0.2363	0.7114	0.8862	-0.014
Mof_H 	H 	0.2298	0.6806	0.9286	0.028
Mof_C 	C 	0.2983	0.7729	0.8825	-0.04
Mof_H 	H 	0.3317	0.7816	0.922	0.037
Mof_N 	N 	0.3411	0.9887	0.7567	-0.294
Mof_N 	N 	0.252	0.8396	0.6908	-0.295
Mof_N 	N 	0.3188	0.0181	0.8848	-0.296
Mof_N 	N 	0.1555	0.741	0.6994	-0.297
Mof_Zn	Zn	0.3281	0.92953	0.6584	1.174
Mof_C 	C 	0.96717	0.30483	0.15703	0.089
Mof_H 	H 	0.92847	0.26303	0.16133	-0.047
Mof_C 	C 	0.05787	0.38813	0.10693	0.046
Mof_C 	C 	0.11377	0.43193	0.06113	-0.112
Mof_H 	H 	0.12307	0.42023	0.00853	0.042
Mof_C 	C 	0.15497	0.49373	0.09633	-0.021
Mof_H 	H 	0.19287	0.52463	0.06663	0.028
Mof_C 	C 	0.14157	0.51183	0.17703	-0.028
Mof_H 	H 	0.17067	0.55433	0.19883	0.033
Mof_C 	C 	0.04447	0.40593	0.18703	0.041
Mof_C 	C 	0.08667	0.46793	0.22323	-0.104
Mof_H 	H 	0.07807	0.47923	0.27663	0.039
Mof_C 	C 	0.85847	0.13213	0.99353	0.108
Mof_H 	H 	0.84227	0.14363	0.94623	-0.051
Mof_C 	C 	0.86327	0.07633	0.09723	0.046
Mof_C 	C 	0.85267	0.02943	0.16323	-0.11
Mof_H 	H 	0.81227	0.98933	0.16753	0.034
Mof_C 	C 	0.92237	0.13613	0.09333	0.023
Mof_C 	C 	0.97617	0.15363	0.15313	-0.087
Mof_H 	H 	0.01617	0.19443	0.15013	0.024
Mof_C 	C 	0.90297	0.04473	0.21953	-0.016
Mof_H 	H 	0.89647	0.01393	0.26193	0.028
Mof_C 	C 	0.96497	0.10623	0.21583	-0.042
Mof_H 	H 	0.99837	0.11493	0.25533	0.037
Mof_N 	N 	0.00777	0.32203	0.09003	-0.297
Mof_N 	N 	0.91867	0.17293	0.02413	-0.29
Mof_N 	N 	0.98547	0.35143	0.21813	-0.293
Mof_N 	N 	0.82217	0.07433	0.03273	-0.292
Mof_Zn	Zn	0.99477	0.26286	0.99173	1.172
Mof_C 	C 	0.63383	0.63817	0.49037	0.085
Mof_H 	H 	0.59513	0.59637	0.49467	-0.047
Mof_C 	C 	0.72453	0.72147	0.44027	0.045
Mof_C 	C 	0.78043	0.76527	0.39447	-0.111
Mof_H 	H 	0.78973	0.75357	0.34187	0.042
Mof_C 	C 	0.82163	0.82707	0.42967	-0.022
Mof_H 	H 	0.85953	0.85797	0.39997	0.029
Mof_C 	C 	0.80823	0.84517	0.51037	-0.026
Mof_H 	H 	0.83733	0.88767	0.53217	0.033
Mof_C 	C 	0.71113	0.73927	0.52037	0.043
Mof_C 	C 	0.75333	0.80127	0.55657	-0.106
Mof_H 	H 	0.74473	0.81257	0.60997	0.04
Mof_C 	C 	0.52513	0.46547	0.32687	0.12
Mof_H 	H 	0.50893	0.47697	0.27957	-0.055
Mof_C 	C 	0.52993	0.40967	0.43057	0.047
Mof_C 	C 	0.51933	0.36277	0.49657	-0.116
Mof_H 	H 	0.47893	0.32267	0.50087	0.038
Mof_C 	C 	0.58903	0.46947	0.42667	0.023
Mof_C 	C 	0.64283	0.48697	0.48647	-0.092
Mof_H 	H 	0.68283	0.52777	0.48347	0.028
Mof_C 	C 	0.56963	0.37807	0.55287	-0.014
Mof_H 	H 	0.56313	0.34727	0.59527	0.027
Mof_C 	C 	0.63163	0.43957	0.54917	-0.041
Mof_H 	H 	0.66503	0.44827	0.58867	0.036
Mof_N 	N 	0.67443	0.65537	0.42337	-0.295
Mof_N 	N 	0.58533	0.50627	0.35747	-0.295
Mof_N 	N 	0.65213	0.68477	0.55147	-0.294
Mof_N 	N 	0.48883	0.40767	0.36607	-0.298
Mof_Zn	Zn	0.66143	0.5962	0.32507	1.174
Mof_C 	C 	0.0285	0.329	0.8237	0.089
Mof_H 	H 	0.0703	0.3321	0.828	-0.047
Mof_C 	C 	0.9452	0.3364	0.7736	0.043
Mof_C 	C 	0.9014	0.3485	0.7278	-0.11
Mof_H 	H 	0.9131	0.3695	0.6752	0.042
Mof_C 	C 	0.8396	0.3279	0.763	-0.023
Mof_H 	H 	0.8087	0.3349	0.7333	0.029
Mof_C 	C 	0.8215	0.2964	0.8437	-0.026
Mof_H 	H 	0.779	0.283	0.8655	0.032
Mof_C 	C 	0.9274	0.3052	0.8537	0.043
Mof_C 	C 	0.8654	0.2854	0.8899	-0.106
Mof_H 	H 	0.8541	0.2655	0.9433	0.039
Mof_C 	C 	0.2012	0.393	0.6602	0.12
Mof_H 	H 	0.1897	0.3653	0.6129	-0.055
Mof_C 	C 	0.257	0.4536	0.7639	0.047
Mof_C 	C 	0.3039	0.4899	0.8299	-0.115
Mof_H 	H 	0.344	0.4896	0.8342	0.038
Mof_C 	C 	0.1972	0.4529	0.76	0.024
Mof_C 	C 	0.1797	0.4892	0.8198	-0.092
Mof_H 	H 	0.1389	0.4884	0.8168	0.028
Mof_C 	C 	0.2886	0.5249	0.8862	-0.014
Mof_H 	H 	0.3194	0.5492	0.9286	0.027
Mof_C 	C 	0.2271	0.5254	0.8825	-0.04
Mof_H 	H 	0.2184	0.5501	0.922	0.037
Mof_N 	N 	0.0113	0.3524	0.7567	-0.294
Mof_N 	N 	0.1604	0.4124	0.6908	-0.295
Mof_N 	N 	0.9819	0.3007	0.8848	-0.296
Mof_N 	N 	0.259	0.4145	0.6994	-0.297
Mof_Zn	Zn	0.07047	0.39857	0.6584	1.174
Mof_C 	C 	0.69517	0.66233	0.15703	0.085
Mof_H 	H 	0.73697	0.66543	0.16133	-0.047
Mof_C 	C 	0.61187	0.66973	0.10693	0.045
Mof_C 	C 	0.56807	0.68183	0.06113	-0.111
Mof_H 	H 	0.57977	0.70283	0.00853	0.042
Mof_C 	C 	0.50627	0.66123	0.09633	-0.022
Mof_H 	H 	0.47537	0.66823	0.06663	0.029
Mof_C 	C 	0.48817	0.62973	0.17703	-0.026
Mof_H 	H 	0.44567	0.61633	0.19883	0.033
Mof_C 	C 	0.59407	0.63853	0.18703	0.043
Mof_C 	C 	0.53207	0.61873	0.22323	-0.106
Mof_H 	H 	0.52077	0.59883	0.27663	0.04
Mof_C 	C 	0.86787	0.72633	0.99353	0.118
Mof_H 	H 	0.85637	0.69863	0.94623	-0.054
Mof_C 	C 	0.92367	0.78693	0.09723	0.044
Mof_C 	C 	0.97057	0.82323	0.16323	-0.107
Mof_H 	H 	0.01067	0.82293	0.16753	0.033
Mof_C 	C 	0.86387	0.78623	0.09333	0.025
Mof_C 	C 	0.84637	0.82253	0.15313	-0.095
Mof_H 	H 	0.80557	0.82173	0.15013	0.029
Mof_C 	C 	0.95527	0.85823	0.21953	-0.02
Mof_H 	H 	0.98607	0.88253	0.26193	0.029
Mof_C 	C 	0.89377	0.85873	0.21583	-0.037
Mof_H 	H 	0.88507	0.88343	0.25533	0.035
Mof_N 	N 	0.67797	0.68573	0.09003	-0.295
Mof_N 	N 	0.82707	0.74573	0.02413	-0.295
Mof_N 	N 	0.64857	0.63403	0.21813	-0.294
Mof_N 	N 	0.92567	0.74783	0.03273	-0.296
Mof_Zn	Zn	0.73714	0.7319	0.99173	1.174
Mof_C 	C 	0.36183	0.99567	0.49037	0.085
Mof_H 	H 	0.40363	0.99877	0.49467	-0.047
Mof_C 	C 	0.27853	0.00307	0.44027	0.044
Mof_C 	C 	0.23473	0.01517	0.39447	-0.108
Mof_H 	H 	0.24643	0.03617	0.34187	0.041
Mof_C 	C 	0.17293	0.99457	0.42967	-0.027
Mof_H 	H 	0.14203	0.00157	0.39997	0.031
Mof_C 	C 	0.15483	0.96307	0.51037	-0.023
Mof_H 	H 	0.11233	0.94967	0.53217	0.032
Mof_C 	C 	0.26073	0.97187	0.52037	0.044
Mof_C 	C 	0.19873	0.95207	0.55657	-0.107
Mof_H 	H 	0.18743	0.93217	0.60997	0.041
Mof_C 	C 	0.53453	0.05967	0.32687	0.12
Mof_H 	H 	0.52303	0.03197	0.27957	-0.054
Mof_C 	C 	0.59033	0.12027	0.43057	0.046
Mof_C 	C 	0.63723	0.15657	0.49657	-0.116
Mof_H 	H 	0.67733	0.15627	0.50087	0.038
Mof_C 	C 	0.53053	0.11957	0.42667	0.023
Mof_C 	C 	0.51303	0.15587	0.48647	-0.092
Mof_H 	H 	0.47223	0.15507	0.48347	0.028
Mof_C 	C 	0.62193	0.19157	0.55287	-0.014
Mof_H 	H 	0.65273	0.21587	0.59527	0.027
Mof_C 	C 	0.56043	0.19207	0.54917	-0.041
Mof_H 	H 	0.55173	0.21677	0.58867	0.036
Mof_N 	N 	0.34463	0.01907	0.42337	-0.294
Mof_N 	N 	0.49373	0.07907	0.35747	-0.295
Mof_N 	N 	0.31523	0.96737	0.55147	-0.294
Mof_N 	N 	0.59233	0.08117	0.36607	-0.297
Mof_Zn	Zn	0.4038	0.06524	0.32507	1.174
Mof_C 	C 	0.671	0.6995	0.8237	0.085
Mof_H 	H 	0.6679	0.7382	0.828	-0.047
Mof_C 	C 	0.6636	0.6088	0.7736	0.045
Mof_C 	C 	0.6515	0.5529	0.7278	-0.111
Mof_H 	H 	0.6305	0.5436	0.6752	0.042
Mof_C 	C 	0.6721	0.5117	0.763	-0.022
Mof_H 	H 	0.6651	0.4738	0.7333	0.029
Mof_C 	C 	0.7036	0.5251	0.8437	-0.026
Mof_H 	H 	0.717	0.496	0.8655	0.033
Mof_C 	C 	0.6948	0.6222	0.8537	0.043
Mof_C 	C 	0.7146	0.58	0.8899	-0.106
Mof_H 	H 	0.7345	0.5886	0.9433	0.04
Mof_C 	C 	0.607	0.8082	0.6602	0.12
Mof_H 	H 	0.6347	0.8244	0.6129	-0.055
Mof_C 	C 	0.5464	0.8034	0.7639	0.047
Mof_C 	C 	0.5101	0.814	0.8299	-0.115
Mof_H 	H 	0.5104	0.8544	0.8342	0.038
Mof_C 	C 	0.5471	0.7443	0.76	0.023
Mof_C 	C 	0.5108	0.6905	0.8198	-0.092
Mof_H 	H 	0.5116	0.6505	0.8168	0.028
Mof_C 	C 	0.4751	0.7637	0.8862	-0.014
Mof_H 	H 	0.4508	0.7702	0.9286	0.027
Mof_C 	C 	0.4746	0.7017	0.8825	-0.04
Mof_H 	H 	0.4499	0.6683	0.922	0.037
Mof_N 	N 	0.6476	0.6589	0.7567	-0.295
Mof_N 	N 	0.5876	0.748	0.6908	-0.295
Mof_N 	N 	0.6993	0.6812	0.8848	-0.294
Mof_N 	N 	0.5855	0.8445	0.6994	-0.298
Mof_Zn	Zn	0.60143	0.6719	0.6584	1.174
Mof_C 	C 	0.33767	0.03283	0.15703	0.089
Mof_H 	H 	0.33457	0.07153	0.16133	-0.048
Mof_C 	C 	0.33027	0.94213	0.10693	0.045
Mof_C 	C 	0.31817	0.88623	0.06113	-0.112
Mof_H 	H 	0.29717	0.87693	0.00853	0.042
Mof_C 	C 	0.33877	0.84503	0.09633	-0.021
Mof_H 	H 	0.33177	0.80713	0.06663	0.028
Mof_C 	C 	0.37027	0.85843	0.17703	-0.027
Mof_H 	H 	0.38367	0.82933	0.19883	0.033
Mof_C 	C 	0.36147	0.95553	0.18703	0.041
Mof_C 	C 	0.38127	0.91333	0.22323	-0.104
Mof_H 	H 	0.40117	0.92193	0.27663	0.039
Mof_C 	C 	0.27367	0.14153	0.99353	0.118
Mof_H 	H 	0.30137	0.15773	0.94623	-0.054
Mof_C 	C 	0.21307	0.13673	0.09723	0.048
Mof_C 	C 	0.17677	0.14733	0.16323	-0.118
Mof_H 	H 	0.17707	0.18773	0.16753	0.039
Mof_C 	C 	0.21377	0.07763	0.09333	0.021
Mof_C 	C 	0.17747	0.02383	0.15313	-0.085
Mof_H 	H 	0.17827	0.98383	0.15013	0.023
Mof_C 	C 	0.14177	0.09703	0.21953	-0.011
Mof_H 	H 	0.11747	0.10353	0.26193	0.025
Mof_C 	C 	0.14127	0.03503	0.21583	-0.046
Mof_H 	H 	0.11657	0.00163	0.25533	0.038
Mof_N 	N 	0.31427	0.99223	0.09003	-0.297
Mof_N 	N 	0.25427	0.08133	0.02413	-0.294
Mof_N 	N 	0.36597	0.01453	0.21813	-0.293
Mof_N 	N 	0.25217	0.17783	0.03273	-0.297
Mof_Zn	Zn	0.2681	0.00523	0.99173	1.174
Mof_C 	C 	0.00433	0.36617	0.49037	0.085
Mof_H 	H 	0.00123	0.40487	0.49467	-0.047
Mof_C 	C 	0.99693	0.27547	0.44027	0.044
Mof_C 	C 	0.98483	0.21957	0.39447	-0.107
Mof_H 	H 	0.96383	0.21027	0.34187	0.041
Mof_C 	C 	0.00543	0.17837	0.42967	-0.027
Mof_H 	H 	0.99843	0.14047	0.39997	0.031
Mof_C 	C 	0.03693	0.19177	0.51037	-0.023
Mof_H 	H 	0.05033	0.16267	0.53217	0.032
Mof_C 	C 	0.02813	0.28887	0.52037	0.044
Mof_C 	C 	0.04793	0.24667	0.55657	-0.108
Mof_H 	H 	0.06783	0.25527	0.60997	0.041
Mof_C 	C 	0.94033	0.47487	0.32687	0.12
Mof_H 	H 	0.96803	0.49107	0.27957	-0.054
Mof_C 	C 	0.87973	0.47007	0.43057	0.047
Mof_C 	C 	0.84343	0.48067	0.49657	-0.116
Mof_H 	H 	0.84373	0.52107	0.50087	0.038
Mof_C 	C 	0.88043	0.41097	0.42667	0.023
Mof_C 	C 	0.84413	0.35717	0.48647	-0.092
Mof_H 	H 	0.84493	0.31717	0.48347	0.028
Mof_C 	C 	0.80843	0.43037	0.55287	-0.014
Mof_H 	H 	0.78413	0.43687	0.59527	0.027
Mof_C 	C 	0.80793	0.36837	0.54917	-0.041
Mof_H 	H 	0.78323	0.33497	0.58867	0.036
Mof_N 	N 	0.98093	0.32557	0.42337	-0.294
Mof_N 	N 	0.92093	0.41467	0.35747	-0.295
Mof_N 	N 	0.03263	0.34787	0.55147	-0.294
Mof_N 	N 	0.91883	0.51117	0.36607	-0.297
Mof_Zn	Zn	0.93476	0.33857	0.32507	1.174
_end
