data_functionalizedCrystal
_audit_creation_method	'EQeq! by Chris Wilmer'
_symmetry_space_group_name_H-M	'P1'
_symmetry_Int_Tables_number	1
_symmetry_cell_setting	triclinic
loop_
_symmetry_equiv_pos_as_xyz
  x,y,z
_cell_length_a	8.885
_cell_length_b	14.231
_cell_length_c	15.049
_cell_angle_alpha	90
_cell_angle_beta	94.957
_cell_angle_gamma	90
loop_
_atom_site_label
_atom_site_type_symbol
_atom_site_fract_x
_atom_site_fract_y
_atom_site_fract_z
_atom_site_charge
Mof_Al	Al	0.32124	0.94097	0.24364	4.946
Mof_Al	Al	0.87886	0.94029	0.09008	4.909
Mof_Al	Al	0.14067	0.57051	0.11507	6.065
Mof_Zn	Zn	0.92411	0.7142	0.83571	1.252
Mof_Al	Al	0.92411	0.7858	0.33571	6.503
Mof_O 	O 	0.9963	0.0379	0.1224	-1.725
Mof_O 	O 	0.2003	0.9607	0.5093	-1.744
Mof_P 	P 	0.09925	0.78182	0.16227	1.676
Mof_O 	O 	0.2013	0.0531	0.0215	-1.63
Mof_O 	O 	0.2654	0.0467	0.1851	-1.594
Mof_P 	P 	0.14955	0.07982	0.11219	1.54
Mof_O 	O 	0.7342	0.0246	0.3009	-1.949
Mof_P 	P 	0.14032	0.9442	0.41283	1.539
Mof_O 	O 	0.146	0.6927	0.1178	-1.838
Mof_O 	O 	0.0457	0.855	0.4086	-2.042
Mof_P 	P 	0.68561	0.93384	0.25361	1.693
Mof_O 	O 	0.7265	0.9363	0.1584	-1.69
Mof_O 	O 	0.0442	0.0264	0.3776	-1.944
Mof_O 	O 	0.2745	0.9344	0.3587	-1.553
Mof_O 	O 	0.987	0.8345	0.0998	-1.671
Mof_O 	O 	0.7647	0.8527	0.3031	-2.092
Mof_O 	O 	0.5191	0.9204	0.2517	-1.591
Mof_O 	O 	0.0282	0.7559	0.2461	-2.1
Mof_O 	O 	0.1386	0.1859	0.1155	-2.014
Mof_O 	O 	0.2389	0.8395	0.1829	-1.603
Mof_Al	Al	0.67876	0.44097	0.25636	5.097
Mof_Al	Al	0.12114	0.44029	0.40992	5.259
Mof_Al	Al	0.85933	0.07051	0.38493	6.127
Mof_Zn	Zn	0.07589	0.2142	0.66429	1.254
Mof_Al	Al	0.07589	0.2858	0.16429	6.5
Mof_O 	O 	0.0037	0.5379	0.3776	-1.842
Mof_O 	O 	0.7997	0.4607	0.9907	-1.722
Mof_P 	P 	0.90075	0.28182	0.33773	1.706
Mof_O 	O 	0.7987	0.5531	0.4785	-1.666
Mof_O 	O 	0.7346	0.5467	0.3149	-1.653
Mof_P 	P 	0.85045	0.57982	0.38781	1.579
Mof_O 	O 	0.2658	0.5246	0.1991	-1.979
Mof_P 	P 	0.85968	0.4442	0.08717	1.547
Mof_O 	O 	0.854	0.1927	0.3822	-1.843
Mof_O 	O 	0.9543	0.355	0.0914	-2.038
Mof_P 	P 	0.31439	0.43384	0.24639	1.746
Mof_O 	O 	0.2735	0.4363	0.3416	-1.75
Mof_O 	O 	0.9558	0.5264	0.1224	-1.95
Mof_O 	O 	0.7255	0.4344	0.1413	-1.579
Mof_O 	O 	0.013	0.3345	0.4002	-1.732
Mof_O 	O 	0.2353	0.3527	0.1969	-2.096
Mof_O 	O 	0.4809	0.4204	0.2483	-1.618
Mof_O 	O 	0.9718	0.2559	0.2539	-2.102
Mof_O 	O 	0.8614	0.6859	0.3845	-2.021
Mof_O 	O 	0.7611	0.3395	0.3171	-1.628
Mof_Al	Al	0.67876	0.05903	0.75636	4.746
Mof_Al	Al	0.12114	0.05971	0.90992	5.081
Mof_Al	Al	0.85933	0.42949	0.88493	5.937
Mof_O 	O 	0.0037	0.9621	0.8776	-1.634
Mof_O 	O 	0.7997	0.0393	0.4907	-1.745
Mof_P 	P 	0.90075	0.21818	0.83773	1.341
Mof_O 	O 	0.7987	0.9469	0.9785	-1.544
Mof_O 	O 	0.7346	0.9533	0.8149	-1.457
Mof_P 	P 	0.85045	0.92018	0.88781	1.206
Mof_O 	O 	0.2658	0.9754	0.6991	-1.841
Mof_P 	P 	0.85968	0.0558	0.58717	1.284
Mof_O 	O 	0.854	0.3073	0.8822	-1.752
Mof_O 	O 	0.9543	0.145	0.5914	-0.816
Mof_P 	P 	0.31439	0.06616	0.74639	1.391
Mof_O 	O 	0.2735	0.0637	0.8416	-1.593
Mof_O 	O 	0.9558	0.9736	0.6224	-1.837
Mof_O 	O 	0.7255	0.0656	0.6413	-1.399
Mof_O 	O 	0.013	0.1655	0.9002	-1.606
Mof_O 	O 	0.2353	0.1473	0.6969	-0.803
Mof_O 	O 	0.4809	0.0796	0.7483	-1.461
Mof_O 	O 	0.9718	0.2441	0.7539	-0.82
Mof_O 	O 	0.8614	0.8141	0.8845	-0.682
Mof_O 	O 	0.7611	0.1605	0.8171	-1.454
Mof_Al	Al	0.32124	0.55903	0.74364	4.743
Mof_Al	Al	0.87886	0.55971	0.59008	5.144
Mof_Al	Al	0.14067	0.92949	0.61507	5.978
Mof_O 	O 	0.9963	0.4621	0.6224	-1.677
Mof_O 	O 	0.2003	0.5393	0.0093	-1.765
Mof_P 	P 	0.09925	0.71818	0.66227	1.35
Mof_O 	O 	0.2013	0.4469	0.5215	-1.642
Mof_O 	O 	0.2654	0.4533	0.6851	-1.459
Mof_P 	P 	0.14955	0.42018	0.61219	1.236
Mof_O 	O 	0.7342	0.4754	0.8009	-1.834
Mof_P 	P 	0.14032	0.5558	0.91283	1.283
Mof_O 	O 	0.146	0.8073	0.6178	-1.761
Mof_O 	O 	0.0457	0.645	0.9086	-0.803
Mof_P 	P 	0.68561	0.56616	0.75361	1.39
Mof_O 	O 	0.7265	0.5637	0.6584	-1.607
Mof_O 	O 	0.0442	0.4736	0.8776	-1.804
Mof_O 	O 	0.2745	0.5656	0.8587	-1.397
Mof_O 	O 	0.987	0.6655	0.5998	-1.626
Mof_O 	O 	0.7647	0.6473	0.8031	-0.803
Mof_O 	O 	0.5191	0.5796	0.7517	-1.461
Mof_O 	O 	0.0282	0.7441	0.7461	-0.816
Mof_O 	O 	0.1386	0.3141	0.6155	-0.694
Mof_O 	O 	0.2389	0.6605	0.6829	-1.456
_end
