data_functionalizedCrystal
_audit_creation_method	'EQeq! by Chris Wilmer'
_symmetry_space_group_name_H-M	'P1'
_symmetry_Int_Tables_number	1
_symmetry_cell_setting	triclinic
loop_
_symmetry_equiv_pos_as_xyz
  x,y,z
_cell_length_a	50.745
_cell_length_b	50.745
_cell_length_c	71.0716
_cell_angle_alpha	69.084
_cell_angle_beta	69.084
_cell_angle_gamma	60
loop_
_atom_site_label
_atom_site_type_symbol
_atom_site_fract_x
_atom_site_fract_y
_atom_site_fract_z
_atom_site_charge
Mof_Zn	Zn	0.4931	0.9711	0.7557	1.245
Mof_Zn	Zn	0.6043	0.0663	0.4111	1.247
Mof_Zn	Zn	0.3484	0.6114	0.9098	1.249
Mof_Zn	Zn	0.4353	0.8813	0.5631	1.257
Mof_Zn	Zn	0.4737	0.0337	0.7269	1.257
Mof_Zn	Zn	0.1041	0.4171	0.9107	1.241
Mof_Zn	Zn	0.8813	0.1203	0.5631	1.258
Mof_Zn	Zn	0.7801	0.4931	0.7557	1.246
Mof_Zn	Zn	0.0287	0.7337	0.7719	1.252
Mof_Zn	Zn	0.0337	0.7657	0.7269	1.258
Mof_Zn	Zn	0.4241	0.8631	0.6117	1.252
Mof_Zn	Zn	0.1304	0.3484	0.9098	1.25
Mof_Zn	Zn	0.008	0.718	0.744	1.255
Mof_Zn	Zn	0.1203	0.4353	0.5631	1.258
Mof_Zn	Zn	0.3823	0.9343	0.0641	1.254
Mof_Zn	Zn	0.4319	0.8959	0.0893	1.242
Mof_Zn	Zn	0.2343	0.5263	0.2731	1.258
Mof_Zn	Zn	0.3634	0.9244	0.1108	1.25
Mof_Zn	Zn	0.992	0.282	0.256	1.255
Mof_Zn	Zn	0.1369	0.8989	0.3883	1.252
Mof_Zn	Zn	0.7657	0.4737	0.7269	1.258
Mof_Zn	Zn	0.9663	0.2343	0.2731	1.258
Mof_Zn	Zn	0.1109	0.8479	0.4093	1.254
Mof_Zn	Zn	0.5069	0.0289	0.2443	1.246
Mof_Zn	Zn	0.6014	0.3634	0.1108	1.25
Mof_Zn	Zn	0.6319	0.1109	0.4093	1.254
Mof_Zn	Zn	0.5759	0.1369	0.3883	1.252
Mof_Zn	Zn	0.6516	0.3886	0.0902	1.25
Mof_Zn	Zn	0.5681	0.1041	0.9107	1.242
Mof_Zn	Zn	0.0817	0.3957	0.5889	1.248
Mof_Zn	Zn	0.5343	0.9713	0.2281	1.252
Mof_Zn	Zn	0.7337	0.4657	0.7719	1.252
Mof_Zn	Zn	0.1187	0.8797	0.4369	1.258
Mof_Zn	Zn	0.8479	0.6319	0.4093	1.254
Mof_Zn	Zn	0.6114	0.1304	0.9098	1.25
Mof_Zn	Zn	0.9337	0.0817	0.5889	1.248
Mof_Zn	Zn	0.718	0.53	0.744	1.255
Mof_Zn	Zn	0.8989	0.5759	0.3883	1.252
Mof_Zn	Zn	0.9343	0.6193	0.0641	1.254
Mof_Zn	Zn	0.1521	0.3681	0.5907	1.254
Mof_Zn	Zn	0.9244	0.6014	0.1108	1.25
Mof_Zn	Zn	0.3807	0.6177	0.9359	1.254
Mof_Zn	Zn	0.53	0.008	0.744	1.255
Mof_Zn	Zn	0.4171	0.5681	0.9107	1.242
Mof_Zn	Zn	0.1011	0.4241	0.6117	1.252
Mof_Zn	Zn	0.6193	0.3823	0.0641	1.254
Mof_Zn	Zn	0.8891	0.1521	0.5907	1.254
Mof_Zn	Zn	0.5263	0.9663	0.2731	1.258
Mof_Zn	Zn	0.5829	0.4319	0.0893	1.242
Mof_Zn	Zn	0.4657	0.0287	0.7719	1.252
Mof_Zn	Zn	0.3986	0.6366	0.8892	1.25
Mof_Zn	Zn	0.0663	0.9183	0.4111	1.248
Mof_Zn	Zn	0.8959	0.5829	0.0893	1.242
Mof_Zn	Zn	0.8797	0.5647	0.4369	1.258
Mof_Zn	Zn	0.6177	0.0657	0.9359	1.254
Mof_Zn	Zn	0.2663	0.5343	0.2281	1.252
Mof_Zn	Zn	0.9713	0.2663	0.2281	1.252
Mof_Zn	Zn	0.0756	0.3986	0.8892	1.25
Mof_Zn	Zn	0.0657	0.3807	0.9359	1.254
Mof_Zn	Zn	0.2199	0.5069	0.2443	1.246
Mof_Zn	Zn	0.0289	0.2199	0.2443	1.246
Mof_Zn	Zn	0.282	0.47	0.256	1.255
Mof_Zn	Zn	0.3957	0.9337	0.5889	1.248
Mof_Zn	Zn	0.8696	0.6516	0.0902	1.25
Mof_Zn	Zn	0.9183	0.6043	0.4111	1.248
Mof_Zn	Zn	0.47	0.992	0.256	1.255
Mof_Zn	Zn	0.6366	0.0756	0.8892	1.25
Mof_Zn	Zn	0.9711	0.7801	0.7557	1.246
Mof_Zn	Zn	0.5647	0.1187	0.4369	1.258
Mof_Zn	Zn	0.8631	0.1011	0.6117	1.252
Mof_Zn	Zn	0.3681	0.8891	0.5907	1.254
Mof_Zn	Zn	0.3886	0.8696	0.0902	1.25
Mof_H 	H 	0.9999	0.3992	0.6321	0.028
Mof_H 	H 	0.2656	0.0521	0.597	0.071
Mof_H 	H 	0.6008	0.0312	0.3679	0.028
Mof_H 	H 	0.978	0.0114	0.4735	0.058
Mof_H 	H 	0.263	0.0645	0.049	0.076
Mof_H 	H 	0.737	0.9355	0.951	0.076
Mof_H 	H 	0.8523	0.2655	0.2182	0.079
Mof_H 	H 	0.4806	0.1901	0.4485	0.022
Mof_H 	H 	0.9534	0.3201	0.3072	0.021
Mof_H 	H 	0.3765	0.737	0.951	0.076
Mof_H 	H 	0.9633	0.4667	0.6759	0.064
Mof_H 	H 	0.8374	0.2389	0.4932	0.076
Mof_H 	H 	0.9773	0.7703	0.8601	0.075
Mof_H 	H 	0.9127	0.9277	0.7053	0.067
Mof_H 	H 	0.6307	0.2175	0.3079	0.08
Mof_H 	H 	0.3045	0.7634	0.7539	0.089
Mof_H 	H 	0.6732	0.4543	0.095	0.023
Mof_H 	H 	0.8929	0.2714	0.3591	0.079
Mof_H 	H 	0.2558	0.244	0.7221	0.085
Mof_H 	H 	0.0451	0.4871	0.8463	0.031
Mof_H 	H 	0.9294	0.3345	0.3393	0.078
Mof_H 	H 	0.359	0.7001	0.8412	0.026
Mof_H 	H 	0.3701	0.356	0.393	0.083
Mof_H 	H 	0.4555	0.8785	0.6534	0.028
Mof_H 	H 	0.9688	0.9999	0.6321	0.028
Mof_H 	H 	0.1623	0.2247	0.9857	0.075
Mof_H 	H 	0.5445	0.1215	0.3466	0.028
Mof_H 	H 	0.0108	0.0811	0.5928	0.029
Mof_H 	H 	0.0156	0.0489	0.3451	0.073
Mof_H 	H 	0.6215	0.0451	0.8463	0.031
Mof_H 	H 	0.0053	0.9779	0.4507	0.032
Mof_H 	H 	0.5364	0.6053	0.8241	0.062
Mof_H 	H 	0.1312	0.7083	0.5728	0.084
Mof_H 	H 	0.2986	0.8136	0.6639	0.081
Mof_H 	H 	0.9912	0.4571	0.0074	0.064
Mof_H 	H 	0.2917	0.4123	0.4272	0.084
Mof_H 	H 	0.2487	0.7614	0.2152	0.087
Mof_H 	H 	0.0366	0.5121	0.9732	0.065
Mof_H 	H 	0.0492	0.6038	0.1117	0.074
Mof_H 	H 	0.2094	0.4337	0.2398	0.03
Mof_H 	H 	0.7647	0.9508	0.8883	0.074
Mof_H 	H 	0.1016	0.1648	0.1603	0.073
Mof_H 	H 	0.356	0.8809	0.393	0.083
Mof_H 	H 	0.3333	0.8279	0.1315	0.027
Mof_H 	H 	0.8063	0.1362	0.6621	0.02
Mof_H 	H 	0.3992	0.9688	0.6321	0.028
Mof_H 	H 	0.4992	0.9166	0.3273	0.021
Mof_H 	H 	0.8367	0.7904	0.7605	0.077
Mof_H 	H 	0.8887	0.2233	0.2794	0.022
Mof_H 	H 	0.336	0.1477	0.7818	0.079
Mof_H 	H 	0.3575	0.8319	0.9561	0.088
Mof_H 	H 	0.5049	0.0591	0.837	0.065
Mof_H 	H 	0.1294	0.6207	0.1066	0.09
Mof_H 	H 	0.9549	0.1722	0.5958	0.025
Mof_H 	H 	0.6077	0.0227	0.1399	0.075
Mof_H 	H 	0.1134	0.2926	0.2569	0.073
Mof_H 	H 	0.6984	0.1931	0.8412	0.078
Mof_H 	H 	0.8866	0.7074	0.7431	0.073
Mof_H 	H 	0.2219	0.7442	0.2779	0.085
Mof_H 	H 	0.9345	0.5211	0.0499	0.032
Mof_H 	H 	0.4951	0.9409	0.163	0.065
Mof_H 	H 	0.2722	0.3223	0.902	0.077
Mof_H 	H 	0.9552	0.0424	0.4929	0.066
Mof_H 	H 	0.9294	0.8776	0.7269	0.033
Mof_H 	H 	0.3962	0.7647	0.8883	0.074
Mof_H 	H 	0.5632	0.7622	0.5488	0.08
Mof_H 	H 	0.8785	0.0126	0.6534	0.028
Mof_H 	H 	0.8069	0.7327	0.1588	0.078
Mof_H 	H 	0.2451	0.583	0.1714	0.029
Mof_H 	H 	0.0655	0.4789	0.9501	0.032
Mof_H 	H 	0.952	0.3512	0.1843	0.033
Mof_H 	H 	0.7001	0.0997	0.8412	0.026
Mof_H 	H 	0.4339	0.9947	0.5493	0.032
Mof_H 	H 	0.5695	0.0352	0.7734	0.03
Mof_H 	H 	0.5714	0.02	0.9843	0.029
Mof_H 	H 	0.2186	0.6575	0.2782	0.076
Mof_H 	H 	0.7814	0.3425	0.7218	0.076
Mof_H 	H 	0.7753	0.3727	0.0143	0.075
Mof_H 	H 	0.0056	0.5968	0.1144	0.026
Mof_H 	H 	0.4193	0.9534	0.3072	0.021
Mof_H 	H 	0.022	0.9886	0.5265	0.058
Mof_H 	H 	0.6608	0.0683	0.0079	0.081
Mof_H 	H 	0.2832	0.0056	0.1144	0.026
Mof_H 	H 	0.6777	0.4965	0.098	0.077
Mof_H 	H 	0.9244	0.5194	0.4843	0.031
Mof_H 	H 	0.6575	0.8457	0.2782	0.076
Mof_H 	H 	0.6585	0.1182	0.4567	0.023
Mof_H 	H 	0.6535	0.0627	0.9791	0.018
Mof_H 	H 	0.5467	0.5156	0.8445	0.06
Mof_H 	H 	0.4243	0.5714	0.9843	0.029
Mof_H 	H 	0.4904	0.1848	0.9062	0.024
Mof_H 	H 	0.6638	0.1243	0.4864	0.075
Mof_H 	H 	0.5234	0.1071	0.6409	0.079
Mof_H 	H 	0.0227	0.2297	0.1399	0.075
Mof_H 	H 	0.5008	0.0834	0.6727	0.021
Mof_H 	H 	0.7775	0.6732	0.095	0.023
Mof_H 	H 	0.7028	0.7495	0.7524	0.101
Mof_H 	H 	0.8957	0.4512	0.3885	0.079
Mof_H 	H 	0.7495	0.7953	0.7524	0.101
Mof_H 	H 	0.9527	0.4283	0.2056	0.068
Mof_H 	H 	0.9791	0.3834	0.9483	0.026
Mof_H 	H 	0.1848	0.4186	0.9062	0.024
Mof_H 	H 	0.4806	0.9281	0.5157	0.031
Mof_H 	H 	0.244	0.7781	0.7221	0.085
Mof_H 	H 	0.7953	0.7028	0.7524	0.101
Mof_H 	H 	0.0424	0.5095	0.4929	0.066
Mof_H 	H 	0.9944	0.4032	0.8856	0.026
Mof_H 	H 	0.6235	0.263	0.049	0.076
Mof_H 	H 	0.2655	0.664	0.2182	0.079
Mof_H 	H 	0.0035	0.8236	0.4003	0.076
Mof_H 	H 	0.1633	0.2096	0.2395	0.077
Mof_H 	H 	0.4437	0.9943	0.663	0.066
Mof_H 	H 	0.2378	0.8742	0.4512	0.08
Mof_H 	H 	0.4139	0.4487	0.9032	0.083
Mof_H 	H 	0.9892	0.9189	0.4072	0.029
Mof_H 	H 	0.8809	0.3701	0.393	0.083
Mof_H 	H 	0.5219	0.9634	0.0268	0.065
Mof_H 	H 	0.4636	0.3947	0.1759	0.062
Mof_H 	H 	0.6315	0.6798	0.1013	0.092
Mof_H 	H 	0.8638	0.6046	0.3379	0.02
Mof_H 	H 	0.9137	0.7931	0.9276	0.086
Mof_H 	H 	0.6166	0.3108	0.0517	0.026
Mof_H 	H 	0.7726	0.0035	0.4003	0.076
Mof_H 	H 	0.9779	0.5661	0.4507	0.032
Mof_H 	H 	0.1787	0.131	0.6042	0.085
Mof_H 	H 	0.5695	0.1626	0.5068	0.076
Mof_H 	H 	0.4032	0.7168	0.8856	0.026
Mof_H 	H 	0.0723	0.5457	0.2947	0.067
Mof_H 	H 	0.7622	0.1258	0.5488	0.08
Mof_H 	H 	0.0209	0.6166	0.0517	0.026
Mof_H 	H 	0.5457	0.2225	0.905	0.023
Mof_H 	H 	0.0112	0.8494	0.6846	0.032
Mof_H 	H 	0.1047	0.7296	0.7809	0.024
Mof_H 	H 	0.6629	0.8866	0.7431	0.073
Mof_H 	H 	0.8494	0.4548	0.6846	0.032
Mof_H 	H 	0.9409	0.401	0.163	0.065
Mof_H 	H 	0.5339	0.0706	0.2731	0.033
Mof_H 	H 	0.4875	0.048	0.8157	0.033
Mof_H 	H 	0.5717	0.5866	0.7944	0.068
Mof_H 	H 	0.2274	0.9965	0.5997	0.076
Mof_H 	H 	0.737	0.3392	0.9921	0.081
Mof_H 	H 	0.8757	0.2745	0.5136	0.075
Mof_H 	H 	0.5733	0.1016	0.1603	0.073
Mof_H 	H 	0.9947	0.0221	0.5493	0.032
Mof_H 	H 	0.9139	0.8213	0.3958	0.085
Mof_H 	H 	0.6299	0.644	0.607	0.083
Mof_H 	H 	0.4683	0.8967	0.133	0.033
Mof_H 	H 	0.4789	0.5055	0.9501	0.032
Mof_H 	H 	0.98	0.5757	0.0157	0.029
Mof_H 	H 	0.9576	0.4905	0.5071	0.066
Mof_H 	H 	0.9648	0.3781	0.2266	0.03
Mof_H 	H 	0.4557	0.0088	0.9926	0.064
Mof_H 	H 	0.1782	0.3045	0.7539	0.089
Mof_H 	H 	0.9373	0.6953	0.0209	0.018
Mof_H 	H 	0.0466	0.6799	0.6928	0.021
Mof_H 	H 	0.0645	0.6235	0.049	0.076
Mof_H 	H 	0.0997	0.359	0.8412	0.026
Mof_H 	H 	0.9995	0.7549	0.8286	0.029
Mof_H 	H 	0.0367	0.5333	0.3241	0.064
Mof_H 	H 	0.796	0.6756	0.3658	0.019
Mof_H 	H 	0.9888	0.1506	0.3154	0.032
Mof_H 	H 	0.5513	0.7658	0.0968	0.083
Mof_H 	H 	0.869	0.9139	0.3958	0.085
Mof_H 	H 	0.0834	0.7431	0.6727	0.021
Mof_H 	H 	0.2683	0.8791	0.1861	0.078
Mof_H 	H 	0.0451	0.8278	0.4042	0.025
Mof_H 	H 	0.8377	0.7753	0.0143	0.075
Mof_H 	H 	0.2239	0.2986	0.6639	0.081
Mof_H 	H 	0.6219	0.5695	0.7734	0.03
Mof_H 	H 	0.2069	0.6344	0.0724	0.086
Mof_H 	H 	0.5757	0.4286	0.0157	0.029
Mof_H 	H 	0.2047	0.2972	0.2476	0.101
Mof_H 	H 	0.5194	0.0719	0.4843	0.031
Mof_H 	H 	0.0683	0.263	0.0079	0.081
Mof_H 	H 	0.756	0.2219	0.2779	0.085
Mof_H 	H 	0.9479	0.9147	0.403	0.071
Mof_H 	H 	0.3016	0.8069	0.1588	0.078
Mof_H 	H 	0.4667	0.8941	0.6759	0.064
Mof_H 	H 	0.3345	0.3968	0.3393	0.078
Mof_H 	H 	0.0005	0.2451	0.1714	0.029
Mof_H 	H 	0.3202	0.4126	0.8987	0.092
Mof_H 	H 	0.2342	0.4139	0.9032	0.083
Mof_H 	H 	0.4123	0.8688	0.4272	0.084
Mof_H 	H 	0.6207	0.1433	0.1066	0.09
Mof_H 	H 	0.3785	0.9549	0.1537	0.031
Mof_H 	H 	0.8136	0.2239	0.6639	0.081
Mof_H 	H 	0.8352	0.4267	0.8397	0.073
Mof_H 	H 	0.82	0.4517	0.8079	0.03
Mof_H 	H 	0.0591	0.599	0.837	0.065
Mof_H 	H 	0.5194	0.8099	0.5515	0.022
Mof_H 	H 	0.7168	0.9944	0.8856	0.026
Mof_H 	H 	0.8545	0.3575	0.9561	0.088
Mof_H 	H 	0.3244	0.8374	0.6342	0.019
Mof_H 	H 	0.3848	0.1047	0.7809	0.024
Mof_H 	H 	0.8439	0.6307	0.3079	0.08
Mof_H 	H 	0.5807	0.0466	0.6928	0.021
Mof_H 	H 	0.02	0.4243	0.9843	0.029
Mof_H 	H 	0.5814	0.5096	0.0938	0.024
Mof_H 	H 	0.5049	0.7831	0.6145	0.021
Mof_H 	H 	0.7296	0.3848	0.7809	0.024
Mof_H 	H 	0.9331	0.7075	0.7425	0.029
Mof_H 	H 	0.1362	0.3954	0.6621	0.02
Mof_H 	H 	0.0473	0.5717	0.7944	0.068
Mof_H 	H 	0.6124	0.8367	0.7605	0.077
Mof_H 	H 	0.3362	0.8757	0.5136	0.075
Mof_H 	H 	0.2096	0.3876	0.2395	0.077
Mof_H 	H 	0.3317	0.8584	0.4557	0.086
Mof_H 	H 	0.4305	0.9648	0.2266	0.03
Mof_H 	H 	0.5333	0.1059	0.3241	0.064
Mof_H 	H 	0.4844	0.9068	0.1555	0.06
Mof_H 	H 	0.4781	0.0366	0.9732	0.065
Mof_H 	H 	0.8706	0.3793	0.8934	0.09
Mof_H 	H 	0.2386	0.2253	0.7848	0.087
Mof_H 	H 	0.4965	0.7278	0.098	0.077
Mof_H 	H 	0.5904	0.0156	0.3451	0.073
Mof_H 	H 	0.7344	0.9479	0.403	0.071
Mof_H 	H 	0.2175	0.8439	0.3079	0.08
Mof_H 	H 	0.7286	0.5234	0.6409	0.079
Mof_H 	H 	0.5429	0.4557	0.9926	0.064
Mof_H 	H 	0.1416	0.6458	0.5443	0.086
Mof_H 	H 	0.7634	0.1782	0.7539	0.089
Mof_H 	H 	0.5121	0.4781	0.9732	0.065
Mof_H 	H 	0.1721	0.2927	0.8685	0.027
Mof_H 	H 	0.0811	0.3153	0.5928	0.029
Mof_H 	H 	0.0932	0.5467	0.8445	0.06
Mof_H 	H 	0.6344	0.0863	0.0724	0.086
Mof_H 	H 	0.1543	0.7814	0.7218	0.076
Mof_H 	H 	0.8688	0.2917	0.4272	0.084
Mof_H 	H 	0.8567	0.8706	0.8934	0.09
Mof_H 	H 	0.0861	0.1787	0.6042	0.085
Mof_H 	H 	0.0342	0.5364	0.8241	0.062
Mof_H 	H 	0.4548	0.0112	0.6846	0.032
Mof_H 	H 	0.1113	0.7767	0.7206	0.022
Mof_H 	H 	0.2673	0.6984	0.8412	0.078
Mof_H 	H 	0.2646	0.8957	0.3885	0.079
Mof_H 	H 	0.2714	0.4766	0.3591	0.079
Mof_H 	H 	0.8433	0.7337	0.0434	0.018
Mof_H 	H 	0.3727	0.8377	0.0143	0.075
Mof_H 	H 	0.0669	0.2925	0.2575	0.029
Mof_H 	H 	0.9886	0.4629	0.5265	0.058
Mof_H 	H 	0.7931	0.3656	0.9276	0.086
Mof_H 	H 	0.6046	0.1937	0.3379	0.02
Mof_H 	H 	0.502	0.4683	0.133	0.033
Mof_H 	H 	0.4766	0.8929	0.3591	0.079
Mof_H 	H 	0.1506	0.5452	0.3154	0.032
Mof_H 	H 	0.3796	0.8433	0.0434	0.018
Mof_H 	H 	0.3268	0.5457	0.905	0.023
Mof_H 	H 	0.3954	0.8063	0.6621	0.02
Mof_H 	H 	0.599	0.5049	0.837	0.065
Mof_H 	H 	0.7781	0.2558	0.7221	0.085
Mof_H 	H 	0.7904	0.6124	0.7605	0.077
Mof_H 	H 	0.4543	0.9127	0.7053	0.067
Mof_H 	H 	0.7014	0.1864	0.3361	0.081
Mof_H 	H 	0.5563	0.0057	0.337	0.066
Mof_H 	H 	0.8152	0.5814	0.0938	0.024
Mof_H 	H 	0.7074	0.6629	0.7431	0.073
Mof_H 	H 	0.1901	0.8808	0.4485	0.022
Mof_H 	H 	0.8279	0.7073	0.1315	0.027
Mof_H 	H 	0.564	0.1564	0.4774	0.023
Mof_H 	H 	0.2745	0.3362	0.5136	0.075
Mof_H 	H 	0.1648	0.5733	0.1603	0.073
Mof_H 	H 	0.9281	0.0756	0.5157	0.031
Mof_H 	H 	0.8022	0.564	0.4774	0.023
Mof_H 	H 	0.1433	0.1294	0.1066	0.09
Mof_H 	H 	0.1567	0.2663	0.9566	0.018
Mof_H 	H 	0.1192	0.5194	0.5515	0.022
Mof_H 	H 	0.6038	0.2353	0.1117	0.074
Mof_H 	H 	0.5371	0.978	0.4735	0.058
Mof_H 	H 	0.9068	0.4533	0.1555	0.06
Mof_H 	H 	0.7658	0.5861	0.0968	0.083
Mof_H 	H 	0.4126	0.3685	0.8987	0.092
Mof_H 	H 	0.9965	0.1764	0.5997	0.076
Mof_H 	H 	0.4879	0.5219	0.0268	0.065
Mof_H 	H 	0.8829	0.7906	0.7602	0.03
Mof_H 	H 	0.8319	0.8545	0.9561	0.088
Mof_H 	H 	0.6953	0.3465	0.0209	0.018
Mof_H 	H 	0.2225	0.3268	0.905	0.023
Mof_H 	H 	0.4951	0.2169	0.3855	0.021
Mof_H 	H 	0.0352	0.6219	0.7734	0.03
Mof_H 	H 	0.6665	0.2683	0.1861	0.078
Mof_H 	H 	0.2233	0.6086	0.2794	0.022
Mof_H 	H 	0.7747	0.2487	0.2152	0.087
Mof_H 	H 	0.6273	0.1623	0.9857	0.075
Mof_H 	H 	0.0706	0.6655	0.6607	0.078
Mof_H 	H 	0.3512	0.5125	0.1843	0.033
Mof_H 	H 	0.641	0.2999	0.1588	0.026
Mof_H 	H 	0.2253	0.7513	0.7848	0.087
Mof_H 	H 	0.2353	0.0492	0.1117	0.074
Mof_H 	H 	0.4543	0.7775	0.095	0.023
Mof_H 	H 	0.7614	0.7747	0.2152	0.087
Mof_H 	H 	0.0719	0.9244	0.4843	0.031
Mof_H 	H 	0.1564	0.8022	0.4774	0.023
Mof_H 	H 	0.583	0.0005	0.1714	0.029
Mof_H 	H 	0.7075	0.6169	0.7425	0.029
Mof_H 	H 	0.3465	0.9373	0.0209	0.018
Mof_H 	H 	0.7229	0.0451	0.4042	0.025
Mof_H 	H 	0.7354	0.1043	0.6115	0.079
Mof_H 	H 	0.0126	0.4555	0.6534	0.028
Mof_H 	H 	0.6425	0.1681	0.0439	0.088
Mof_H 	H 	0.18	0.5483	0.1921	0.03
Mof_H 	H 	0.8099	0.1192	0.5515	0.022
Mof_H 	H 	0.2505	0.2047	0.2476	0.101
Mof_H 	H 	0.6892	0.9791	0.9483	0.026
Mof_H 	H 	0.9147	0.7344	0.403	0.071
Mof_H 	H 	0.4517	0.9204	0.8079	0.03
Mof_H 	H 	0.5156	0.0932	0.8445	0.06
Mof_H 	H 	0.8818	0.2334	0.5433	0.023
Mof_H 	H 	0.3371	0.1134	0.2569	0.073
Mof_H 	H 	0.8742	0.4368	0.4512	0.08
Mof_H 	H 	0.0975	0.5049	0.6145	0.021
Mof_H 	H 	0.7327	0.3016	0.1588	0.078
Mof_H 	H 	0.5457	0.0873	0.2947	0.067
Mof_H 	H 	0.4571	0.5443	0.0074	0.064
Mof_H 	H 	0.6204	0.1567	0.9566	0.018
Mof_H 	H 	0.5095	0.9552	0.4929	0.066
Mof_H 	H 	0.9844	0.9511	0.6549	0.073
Mof_H 	H 	0.6667	0.1721	0.8685	0.027
Mof_H 	H 	0.4267	0.8984	0.8397	0.073
Mof_H 	H 	0.401	0.4951	0.163	0.065
Mof_H 	H 	0.7442	0.756	0.2779	0.085
Mof_H 	H 	0.9189	0.6847	0.4072	0.029
Mof_H 	H 	0.1764	0.2274	0.5997	0.076
Mof_H 	H 	0.2334	0.3415	0.5433	0.023
Mof_H 	H 	0.5035	0.2722	0.902	0.077
Mof_H 	H 	0.3923	0.9773	0.8601	0.075
Mof_H 	H 	0.3968	0.9294	0.3393	0.078
Mof_H 	H 	0.7831	0.0975	0.6145	0.021
Mof_H 	H 	0.2247	0.6273	0.9857	0.075
Mof_H 	H 	0.5211	0.4945	0.0499	0.032
Mof_H 	H 	0.3834	0.6892	0.9483	0.026
Mof_H 	H 	0.3415	0.8818	0.5433	0.023
Mof_H 	H 	0.3781	0.4305	0.2266	0.03
Mof_H 	H 	0.8791	0.6665	0.1861	0.078
Mof_H 	H 	0.6799	0.5807	0.6928	0.021
Mof_H 	H 	0.5874	0.6315	0.1013	0.092
Mof_H 	H 	0.1561	0.3693	0.6921	0.08
Mof_H 	H 	0.4283	0.4134	0.2056	0.068
Mof_H 	H 	0.1224	0.5339	0.2731	0.033
Mof_H 	H 	0.6847	0.9892	0.4072	0.029
Mof_H 	H 	0.9355	0.3765	0.951	0.076
Mof_H 	H 	0.5096	0.8152	0.0938	0.024
Mof_H 	H 	0.3793	0.8567	0.8934	0.09
Mof_H 	H 	0.7666	0.6585	0.4567	0.023
Mof_H 	H 	0.7317	0.1209	0.8139	0.078
Mof_H 	H 	0.5483	0.0796	0.1921	0.03
Mof_H 	H 	0.3201	0.4193	0.3072	0.021
Mof_H 	H 	0.2926	0.3371	0.2569	0.073
Mof_H 	H 	0.4134	0.9527	0.2056	0.068
Mof_H 	H 	0.0627	0.3047	0.9791	0.018
Mof_H 	H 	0.7431	0.5008	0.6727	0.021
Mof_H 	H 	0.8213	0.869	0.3958	0.085
Mof_H 	H 	0.3656	0.9137	0.9276	0.086
Mof_H 	H 	0.5663	0.8829	0.7602	0.03
Mof_H 	H 	0.131	0.0861	0.6042	0.085
Mof_H 	H 	0.0448	0.9576	0.5071	0.066
Mof_H 	H 	0.3153	0.0108	0.5928	0.029
Mof_H 	H 	0.0312	0.0001	0.3679	0.028
Mof_H 	H 	0.101	0.5563	0.337	0.066
Mof_H 	H 	0.4512	0.2646	0.3885	0.079
Mof_H 	H 	0.1171	0.2094	0.2398	0.03
Mof_H 	H 	0.1722	0.2771	0.5958	0.025
Mof_H 	H 	0.7825	0.1561	0.6921	0.08
Mof_H 	H 	0.7703	0.3923	0.8601	0.075
Mof_H 	H 	0.0853	0.2656	0.597	0.071
Mof_H 	H 	0.5488	0.7354	0.6115	0.079
Mof_H 	H 	0.0088	0.5429	0.9926	0.064
Mof_H 	H 	0.9003	0.641	0.1588	0.026
Mof_H 	H 	0.9166	0.2569	0.3273	0.021
Mof_H 	H 	0.7549	0.417	0.8286	0.029
Mof_H 	H 	0.8808	0.4806	0.4485	0.022
Mof_H 	H 	0.3425	0.1543	0.7218	0.076
Mof_H 	H 	0.3947	0.9658	0.1759	0.062
Mof_H 	H 	0.7083	0.5877	0.5728	0.084
Mof_H 	H 	0.8218	0.6955	0.2461	0.089
Mof_H 	H 	0.8236	0.7726	0.4003	0.076
Mof_H 	H 	0.6152	0.8953	0.2191	0.024
Mof_H 	H 	0.5129	0.3785	0.1537	0.031
Mof_H 	H 	0.0863	0.2069	0.0724	0.086
Mof_H 	H 	0.1978	0.436	0.5226	0.023
Mof_H 	H 	0.3047	0.6535	0.9791	0.018
Mof_H 	H 	0.4661	0.9294	0.7269	0.033
Mof_H 	H 	0.9511	0.4096	0.6549	0.073
Mof_H 	H 	0.4871	0.6215	0.8463	0.031
Mof_H 	H 	0.8967	0.502	0.133	0.033
Mof_H 	H 	0.9317	0.737	0.9921	0.081
Mof_H 	H 	0.6955	0.2366	0.2461	0.089
Mof_H 	H 	0.2972	0.2505	0.2476	0.101
Mof_H 	H 	0.644	0.1191	0.607	0.083
Mof_H 	H 	0.8457	0.2186	0.2782	0.076
Mof_H 	H 	0.2169	0.9025	0.3855	0.021
Mof_H 	H 	0.0489	0.5904	0.3451	0.073
Mof_H 	H 	0.2389	0.4305	0.4932	0.076
Mof_H 	H 	0.1182	0.7666	0.4567	0.023
Mof_H 	H 	0.7611	0.5695	0.5068	0.076
Mof_H 	H 	0.8584	0.3542	0.4557	0.086
Mof_H 	H 	0.1937	0.8638	0.3379	0.02
Mof_H 	H 	0.2999	0.9003	0.1588	0.026
Mof_H 	H 	0.6798	0.5874	0.1013	0.092
Mof_H 	H 	0.7073	0.3333	0.1315	0.027
Mof_H 	H 	0.9634	0.4879	0.0268	0.065
Mof_H 	H 	0.4186	0.4904	0.9062	0.024
Mof_H 	H 	0.8953	0.2704	0.2191	0.024
Mof_H 	H 	0.899	0.4437	0.663	0.066
Mof_H 	H 	0.2663	0.6204	0.9566	0.018
Mof_H 	H 	0.3108	0.0209	0.0517	0.026
Mof_H 	H 	0.2925	0.3831	0.2575	0.029
Mof_H 	H 	0.7337	0.3796	0.0434	0.018
Mof_H 	H 	0.1681	0.1455	0.0439	0.088
Mof_H 	H 	0.4533	0.4844	0.1555	0.06
Mof_H 	H 	0.5866	0.0473	0.7944	0.068
Mof_H 	H 	0.8776	0.4661	0.7269	0.033
Mof_H 	H 	0.3223	0.5035	0.902	0.077
Mof_H 	H 	0.3392	0.9317	0.9921	0.081
Mof_H 	H 	0.4945	0.9345	0.0499	0.032
Mof_H 	H 	0.2927	0.6667	0.8685	0.027
Mof_H 	H 	0.7761	0.7014	0.3361	0.081
Mof_H 	H 	0.3685	0.3202	0.8987	0.092
Mof_H 	H 	0.4905	0.0448	0.5071	0.066
Mof_H 	H 	0.7767	0.3914	0.7206	0.022
Mof_H 	H 	0.0873	0.0723	0.2947	0.067
Mof_H 	H 	0.0057	0.101	0.337	0.066
Mof_H 	H 	0.4096	0.9844	0.6549	0.073
Mof_H 	H 	0.5055	0.0655	0.9501	0.032
Mof_H 	H 	0.5125	0.952	0.1843	0.033
Mof_H 	H 	0.1864	0.7761	0.3361	0.081
Mof_H 	H 	0.6683	0.1416	0.5443	0.086
Mof_H 	H 	0.9549	0.5129	0.1537	0.031
Mof_H 	H 	0.6053	0.0342	0.8241	0.062
Mof_H 	H 	0.3542	0.3317	0.4557	0.086
Mof_H 	H 	0.0706	0.1224	0.2731	0.033
Mof_H 	H 	0.7345	0.336	0.7818	0.079
Mof_H 	H 	0.3335	0.7317	0.8139	0.078
Mof_H 	H 	0.0521	0.0853	0.597	0.071
Mof_H 	H 	0.7513	0.2386	0.7848	0.087
Mof_H 	H 	0.3876	0.1633	0.2395	0.077
Mof_H 	H 	0.5452	0.9888	0.3154	0.032
Mof_H 	H 	0.7906	0.5663	0.7602	0.03
Mof_H 	H 	0.498	0.5317	0.867	0.033
Mof_H 	H 	0.0756	0.4806	0.5157	0.031
Mof_H 	H 	0.417	0.9995	0.8286	0.029
Mof_H 	H 	0.3914	0.1113	0.7206	0.022
Mof_H 	H 	0.2569	0.4992	0.3273	0.021
Mof_H 	H 	0.664	0.8523	0.2182	0.079
Mof_H 	H 	0.5443	0.9912	0.0074	0.064
Mof_H 	H 	0.1059	0.0367	0.3241	0.064
Mof_H 	H 	0.6032	0.0706	0.6607	0.078
Mof_H 	H 	0.1191	0.6299	0.607	0.083
Mof_H 	H 	0.1626	0.796	0.3658	0.019
Mof_H 	H 	0.9874	0.5445	0.3466	0.028
Mof_H 	H 	0.7255	0.6638	0.4864	0.075
Mof_H 	H 	0.1258	0.5632	0.5488	0.08
Mof_H 	H 	0.8436	0.1978	0.5226	0.023
Mof_H 	H 	0.4487	0.2342	0.9032	0.083
Mof_H 	H 	0.1477	0.7345	0.7818	0.079
Mof_H 	H 	0.0001	0.6008	0.3679	0.028
Mof_H 	H 	0.1071	0.7286	0.6409	0.079
Mof_H 	H 	0.4305	0.8374	0.4932	0.076
Mof_H 	H 	0.6169	0.9331	0.7425	0.029
Mof_H 	H 	0.1455	0.6425	0.0439	0.088
Mof_H 	H 	0.9943	0.899	0.663	0.066
Mof_H 	H 	0.1931	0.2673	0.8412	0.078
Mof_H 	H 	0.6488	0.4875	0.8157	0.033
Mof_H 	H 	0.204	0.3244	0.6342	0.019
Mof_H 	H 	0.8374	0.204	0.6342	0.019
Mof_H 	H 	0.8984	0.8352	0.8397	0.073
Mof_H 	H 	0.9277	0.4543	0.7053	0.067
Mof_H 	H 	0.048	0.6488	0.8157	0.033
Mof_H 	H 	0.1033	0.498	0.867	0.033
Mof_H 	H 	0.0221	0.4339	0.5493	0.032
Mof_H 	H 	0.263	0.6608	0.0079	0.081
Mof_H 	H 	0.7278	0.6777	0.098	0.077
Mof_H 	H 	0.2366	0.8218	0.2461	0.089
Mof_H 	H 	0.9508	0.3962	0.8883	0.074
Mof_H 	H 	0.1626	0.7611	0.5068	0.076
Mof_H 	H 	0.6655	0.6032	0.6607	0.078
Mof_H 	H 	0.0796	0.18	0.1921	0.03
Mof_H 	H 	0.436	0.8436	0.5226	0.023
Mof_H 	H 	0.2297	0.6077	0.1399	0.075
Mof_H 	H 	0.3831	0.0669	0.2575	0.029
Mof_H 	H 	0.9025	0.4951	0.3855	0.021
Mof_H 	H 	0.5968	0.2832	0.1144	0.026
Mof_H 	H 	0.4337	0.1171	0.2398	0.03
Mof_H 	H 	0.4629	0.022	0.5265	0.058
Mof_H 	H 	0.9658	0.4636	0.1759	0.062
Mof_H 	H 	0.5661	0.0053	0.4507	0.032
Mof_H 	H 	0.0114	0.5371	0.4735	0.058
Mof_H 	H 	0.8278	0.7229	0.4042	0.025
Mof_H 	H 	0.6756	0.1626	0.3658	0.019
Mof_H 	H 	0.5861	0.5513	0.0968	0.083
Mof_H 	H 	0.2771	0.9549	0.5958	0.025
Mof_H 	H 	0.9204	0.82	0.8079	0.03
Mof_H 	H 	0.1243	0.7255	0.4864	0.075
Mof_H 	H 	0.6086	0.8887	0.2794	0.022
Mof_H 	H 	0.4286	0.98	0.0157	0.029
Mof_H 	H 	0.3693	0.7825	0.6921	0.08
Mof_H 	H 	0.5317	0.1033	0.867	0.033
Mof_H 	H 	0.6458	0.6683	0.5443	0.086
Mof_H 	H 	0.8941	0.9633	0.6759	0.064
Mof_H 	H 	0.1215	0.9874	0.3466	0.028
Mof_H 	H 	0.2704	0.6152	0.2191	0.024
Mof_H 	H 	0.1043	0.5488	0.6115	0.079
Mof_H 	H 	0.5877	0.1312	0.5728	0.084
Mof_H 	H 	0.4368	0.2378	0.4512	0.08
Mof_H 	H 	0.1209	0.3335	0.8139	0.078
Mof_C 	C 	0.0209	0.2289	0.1693	0.055
Mof_C 	C 	0.4899	0.9919	0.5073	0.036
Mof_C 	C 	0.5627	0.0377	0.1849	-0.133
Mof_C 	C 	0.8404	0.8964	0.3958	0.098
Mof_C 	C 	0.2778	0.2238	0.2476	0.119
Mof_C 	C 	0.0183	0.1053	0.3241	-0.102
Mof_C 	C 	0.021	0.393	0.915	0.402
Mof_C 	C 	0.3417	0.5007	0.9029	-0.127
Mof_C 	C 	0.394	0.341	0.899	0.126
Mof_C 	C 	0.4875	0.9485	0.0385	0.039
Mof_C 	C 	0.483	0.221	0.399	0.071
Mof_C 	C 	0.1164	0.5254	0.5638	0.073
Mof_C 	C 	0.8267	0.1937	0.6459	0.079
Mof_C 	C 	0.2753	0.9743	0.5961	0.059
Mof_C 	C 	0.607	0.69	0.577	-0.034
Mof_C 	C 	0.66	0.606	0.101	-0.179
Mof_C 	C 	0.4215	0.9255	0.1405	-0.123
Mof_C 	C 	0.2386	0.7566	0.7722	-0.155
Mof_C 	C 	0.8609	0.8579	0.9063	-0.157
Mof_C 	C 	0.8646	0.2106	0.5352	-0.148
Mof_C 	C 	0.8622	0.3482	0.4434	-0.149
Mof_C 	C 	0.9166	0.4656	0.1552	-0.089
Mof_C 	C 	0.5454	0.0414	0.4648	-0.125
Mof_C 	C 	0.4989	0.5999	0.8463	0.038
Mof_C 	C 	0.8556	0.2296	0.2662	-0.13
Mof_C 	C 	0.0606	0.9286	0.4492	0.394
Mof_C 	C 	0.9835	0.8255	0.7215	0.394
Mof_C 	C 	0.2445	0.7945	0.2275	0.1
Mof_C 	C 	0.325	0.719	0.825	-0.129
Mof_C 	C 	0.1967	0.2857	0.7539	-0.155
Mof_C 	C 	0.31	0.874	0.423	-0.034
Mof_C 	C 	0.9938	0.5328	0.4756	-0.091
Mof_C 	C 	0.9002	0.0002	0.6534	0.047
Mof_C 	C 	0.779	0.103	0.601	0.071
Mof_C 	C 	0.0546	0.1326	0.6012	-0.019
Mof_C 	C 	0.057	0.118	0.286	0.038
Mof_C 	C 	0.243	0.25	0.735	-0.152
Mof_C 	C 	0.797	0.191	0.681	0.085
Mof_C 	C 	0.1531	0.3751	0.6627	0.077
Mof_C 	C 	0.0877	0.5457	0.2989	-0.102
Mof_C 	C 	0.7841	0.7231	0.2647	0.101
Mof_C 	C 	0.6386	0.1536	0.0562	-0.156
Mof_C 	C 	0.5219	0.0799	0.6703	0.076
Mof_C 	C 	0.2979	0.0079	0.5943	0.051
Mof_C 	C 	0.7528	0.3928	0.7506	-0.157
Mof_C 	C 	0.6239	0.4519	0.0923	0.421
Mof_C 	C 	0.0527	0.9427	0.4819	0.043
Mof_C 	C 	0.218	0.644	0.019	-0.028
Mof_C 	C 	0.943	0.882	0.714	0.038
Mof_C 	C 	0.2666	0.0526	0.0622	-0.123
Mof_C 	C 	0.021	0.874	0.406	-0.136
Mof_C 	C 	0.6321	0.5291	0.0977	0.079
Mof_C 	C 	0.103	0.517	0.601	0.071
Mof_C 	C 	0.2058	0.3178	0.6636	-0.14
Mof_C 	C 	0.9744	0.5504	0.4618	0.036
Mof_C 	C 	0.5952	0.0342	0.1504	-0.122
Mof_C 	C 	0.5101	0.0081	0.4927	0.036
Mof_C 	C 	0.3067	0.1947	0.2479	-0.043
Mof_C 	C 	0.9866	0.0256	0.5382	0.036
Mof_C 	C 	0.9672	0.5052	0.0244	-0.1
Mof_C 	C 	0.797	0.236	0.247	-0.037
Mof_C 	C 	0.9824	0.3974	0.8988	0.057
Mof_C 	C 	0.2665	0.7555	0.7725	0.1
Mof_C 	C 	0.5125	0.0515	0.9615	0.039
Mof_C 	C 	0.8836	0.4746	0.4362	0.073
Mof_C 	C 	0.5052	0.5032	0.0244	-0.1
Mof_C 	C 	0.2434	0.7674	0.2278	-0.155
Mof_C 	C 	0.116	0.56	0.58	0.085
Mof_C 	C 	0.5352	0.0942	0.6514	-0.138
Mof_C 	C 	0.7656	0.6406	0.4672	0.06
Mof_C 	C 	0.8189	0.2389	0.2473	-0.027
Mof_C 	C 	0.0784	0.9884	0.3598	-0.135
Mof_C 	C 	0.3297	0.1717	0.2479	-0.019
Mof_C 	C 	0.126	0.301	0.594	-0.136
Mof_C 	C 	0.6069	0.1269	0.4483	0.413
Mof_C 	C 	0.6127	0.1237	0.5929	0.092
Mof_C 	C 	0.0379	0.4949	0.5043	-0.104
Mof_C 	C 	0.7737	0.6137	0.7569	-0.123
Mof_C 	C 	0.3837	0.9077	0.8889	-0.038
Mof_C 	C 	0.4746	0.2056	0.4362	0.073
Mof_C 	C 	0.9739	0.3859	0.9363	0.057
Mof_C 	C 	0.7425	0.3475	0.7695	-0.133
Mof_C 	C 	0.7112	0.3522	0.0194	0.083
Mof_C 	C 	0.2758	0.3568	0.2536	-0.117
Mof_C 	C 	0.56	0.744	0.58	0.085
Mof_C 	C 	0.874	0.393	0.423	-0.034
Mof_C 	C 	0.6066	0.3016	0.0832	-0.146
Mof_C 	C 	0.131	0.325	0.825	-0.129
Mof_C 	C 	0.8319	0.6239	0.0923	0.421
Mof_C 	C 	0.4532	0.9112	0.1414	0.034
Mof_C 	C 	0.228	0.757	0.265	-0.152
Mof_C 	C 	0.5076	0.0476	0.8112	0.038
Mof_C 	C 	0.0526	0.6186	0.0622	-0.123
Mof_C 	C 	0.8853	0.2603	0.2311	0.068
Mof_C 	C 	0.4919	0.9899	0.0073	0.04
Mof_C 	C 	0.8688	0.3108	0.4266	-0.146
Mof_C 	C 	0.1443	0.2263	0.2431	-0.123
Mof_C 	C 	0.4993	0.7453	0.0971	-0.127
Mof_C 	C 	0.1343	0.3293	0.8571	-0.144
Mof_C 	C 	0.6394	0.1244	0.5938	-0.145
Mof_C 	C 	0.2056	0.8836	0.4362	0.073
Mof_C 	C 	0.1879	0.6339	0.0733	-0.15
Mof_C 	C 	0.9978	0.9938	0.4756	-0.091
Mof_C 	C 	0.9601	0.3591	0.2077	-0.125
Mof_C 	C 	0.8674	0.7884	0.3988	-0.019
Mof_C 	C 	0.1049	0.1879	0.0733	-0.15
Mof_C 	C 	0.9516	0.4716	0.1672	-0.093
Mof_C 	C 	0.9549	0.2759	0.2943	0.462
Mof_C 	C 	0.4126	0.9196	0.1252	0.386
Mof_C 	C 	0.2263	0.3863	0.2431	-0.123
Mof_C 	C 	0.8033	0.7143	0.2461	-0.155
Mof_C 	C 	0.3422	0.8772	0.1264	0.412
Mof_C 	C 	0.7241	0.5251	0.7057	0.462
Mof_C 	C 	0.5361	0.0061	0.9957	-0.104
Mof_C 	C 	0.7453	0.6583	0.0971	-0.127
Mof_C 	C 	0.5935	0.1145	0.6115	-0.034
Mof_C 	C 	0.8255	0.4695	0.7215	0.394
Mof_C 	C 	0.6163	0.9133	0.7461	0.051
Mof_C 	C 	0.6349	0.1089	0.9653	-0.177
Mof_C 	C 	0.8091	0.1531	0.6627	0.077
Mof_C 	C 	0.3821	0.4441	0.2137	0.042
Mof_C 	C 	0.2491	0.5771	0.2497	0.429
Mof_C 	C 	0.1717	0.2507	0.2479	-0.019
Mof_C 	C 	0.9241	0.2491	0.2497	0.429
Mof_C 	C 	0.3101	0.4311	0.3177	0.072
Mof_C 	C 	0.5227	0.0527	0.4819	0.043
Mof_C 	C 	0.5845	0.1495	0.4795	0.068
Mof_C 	C 	0.104	0.688	0.628	-0.03
Mof_C 	C 	0.0543	0.5803	0.8181	0.046
Mof_C 	C 	0.5772	0.6872	0.1004	-0.045
Mof_C 	C 	0.0414	0.9484	0.4648	-0.125
Mof_C 	C 	0.0321	0.1031	0.5967	-0.117
Mof_C 	C 	0.7853	0.4373	0.8151	-0.133
Mof_C 	C 	0.9123	0.4543	0.7011	-0.102
Mof_C 	C 	0.4384	0.9394	0.5508	0.394
Mof_C 	C 	0.5474	0.0904	0.3328	-0.102
Mof_C 	C 	0.3051	0.1811	0.7527	-0.027
Mof_C 	C 	0.813	0.923	0.397	-0.043
Mof_C 	C 	0.8946	0.6816	0.0512	0.453
Mof_C 	C 	0.979	0.126	0.594	-0.136
Mof_C 	C 	0.0543	0.6033	0.8241	-0.102
Mof_C 	C 	0.7143	0.3013	0.1591	-0.128
Mof_C 	C 	0.1164	0.2404	0.9998	0.087
Mof_C 	C 	0.5374	0.0834	0.8448	-0.089
Mof_C 	C 	0.7222	0.7762	0.7524	0.119
Mof_C 	C 	0.0371	0.9621	0.4957	-0.104
Mof_C 	C 	0.7021	0.9921	0.4057	0.051
Mof_C 	C 	0.7397	0.3767	0.7689	0.068
Mof_C 	C 	0.3293	0.6793	0.8571	-0.144
Mof_C 	C 	0.5387	0.0617	0.6859	-0.166
Mof_C 	C 	0.6604	0.1304	0.5758	0.094
Mof_C 	C 	0.1089	0.5069	0.5833	-0.16
Mof_C 	C 	0.5704	0.4404	0.0508	0.411
Mof_C 	C 	0.8734	0.2344	0.5328	0.06
Mof_C 	C 	0.9743	0.1543	0.5961	0.059
Mof_C 	C 	0.1163	0.2263	0.2431	0.053
Mof_C 	C 	0.3675	0.8585	0.0155	-0.133
Mof_C 	C 	0.5109	0.4919	0.0073	0.04
Mof_C 	C 	0.5477	0.5587	0.8319	0.029
Mof_C 	C 	0.5596	0.0616	0.9492	0.411
Mof_C 	C 	0.6346	0.5546	0.0992	-0.022
Mof_C 	C 	0.0549	0.4989	0.8463	0.038
Mof_C 	C 	0.1405	0.7425	0.7695	-0.133
Mof_C 	C 	0.2238	0.2508	0.2476	0.119
Mof_C 	C 	0.8617	0.7337	0.0329	0.077
Mof_C 	C 	0.7637	0.1967	0.7539	-0.155
Mof_C 	C 	0.6432	0.8862	0.7464	-0.117
Mof_C 	C 	0.9384	0.5704	0.0508	0.411
Mof_C 	C 	0.9817	0.8947	0.6759	-0.102
Mof_C 	C 	0.8189	0.4249	0.8373	-0.119
Mof_C 	C 	0.6072	0.8962	0.2494	-0.157
Mof_C 	C 	0.7143	0.2363	0.2461	-0.155
Mof_C 	C 	0.1436	0.2506	0.2482	0.07
Mof_C 	C 	0.8464	0.8484	0.9438	-0.156
Mof_C 	C 	0.8923	0.3743	0.9231	-0.039
Mof_C 	C 	0.4401	0.9311	0.8187	0.049
Mof_C 	C 	0.5058	0.5468	0.8586	0.034
Mof_C 	C 	0.714	0.267	0.193	-0.027
Mof_C 	C 	0.2362	0.7482	0.2464	0.1
Mof_C 	C 	0.6949	0.8189	0.2473	-0.027
Mof_C 	C 	0.8964	0.8674	0.3958	0.098
Mof_C 	C 	0.3666	0.3396	0.4242	0.094
Mof_C 	C 	0.1138	0.2758	0.2536	-0.117
Mof_C 	C 	0.2404	0.6434	0.9998	0.087
Mof_C 	C 	0.34	0.394	0.899	-0.179
Mof_C 	C 	0.6325	0.1415	0.9845	-0.133
Mof_C 	C 	0.2981	0.7181	0.8247	0.081
Mof_C 	C 	0.5866	0.9126	0.7512	-0.134
Mof_C 	C 	0.2415	0.6325	0.9845	-0.133
Mof_C 	C 	0.3108	0.3938	0.4266	-0.146
Mof_C 	C 	0.8473	0.2373	0.5031	-0.129
Mof_C 	C 	0.6813	0.5823	0.6631	-0.135
Mof_C 	C 	0.0863	0.6213	0.0781	-0.023
Mof_C 	C 	0.6997	0.1187	0.8409	0.061
Mof_C 	C 	0.9899	0.5109	0.0073	0.04
Mof_C 	C 	0.5261	0.2251	0.9047	0.067
Mof_C 	C 	0.606	0.633	0.101	-0.179
Mof_C 	C 	0.3128	0.3648	0.8996	-0.045
Mof_C 	C 	0.9417	0.7497	0.7509	0.396
Mof_C 	C 	0.8756	0.3576	0.4062	-0.145
Mof_C 	C 	0.5125	0.4215	0.1405	-0.123
Mof_C 	C 	0.9621	0.5051	0.4957	-0.104
Mof_C 	C 	0.4523	0.4413	0.1681	0.029
Mof_C 	C 	0.0022	0.0062	0.5244	-0.091
Mof_C 	C 	0.3566	0.8836	0.0002	0.087
Mof_C 	C 	0.4749	0.9549	0.2943	0.462
Mof_C 	C 	0.9096	0.9706	0.6672	-0.102
Mof_C 	C 	0.2582	0.3562	0.5154	-0.125
Mof_C 	C 	0.191	0.331	0.681	0.085
Mof_C 	C 	0.3717	0.8617	0.0329	0.077
Mof_C 	C 	0.5468	0.0888	0.8586	0.034
Mof_C 	C 	0.3568	0.1138	0.2536	-0.117
Mof_C 	C 	0.0888	0.5058	0.8586	0.034
Mof_C 	C 	0.7674	0.7614	0.2278	-0.155
Mof_C 	C 	0.0466	0.0076	0.3592	0.047
Mof_C 	C 	0.6793	0.1343	0.8571	-0.144
Mof_C 	C 	0.9189	0.8189	0.8373	-0.119
Mof_C 	C 	0.3965	0.4675	0.9035	-0.138
Mof_C 	C 	0.1596	0.1036	0.6042	0.098
Mof_C 	C 	0.0081	0.9891	0.4927	0.036
Mof_C 	C 	0.9357	0.8037	0.8529	0.074
Mof_C 	C 	0.7627	0.5877	0.4969	-0.129
Mof_C 	C 	0.2373	0.4123	0.5031	-0.129
Mof_C 	C 	0.6026	0.2786	0.1012	0.057
Mof_C 	C 	0.882	0.461	0.714	0.038
Mof_C 	C 	0.1075	0.5425	0.5995	-0.136
Mof_C 	C 	0.3989	0.4929	0.9053	0.068
Mof_C 	C 	0.9484	0.5454	0.4648	-0.125
Mof_C 	C 	0.6578	0.1228	0.8736	0.412
Mof_C 	C 	0.203	0.764	0.753	-0.037
Mof_C 	C 	0.121	0.551	0.562	-0.137
Mof_C 	C 	0.9914	0.8654	0.6888	0.037
Mof_C 	C 	0.2147	0.5627	0.1849	-0.133
Mof_C 	C 	0.7116	0.6346	0.0992	-0.022
Mof_C 	C 	0.8731	0.1821	0.5517	0.413
Mof_C 	C 	0.8702	0.2582	0.5154	-0.125
Mof_C 	C 	0.8592	0.2992	0.4644	-0.036
Mof_C 	C 	0.2575	0.6525	0.2305	-0.133
Mof_C 	C 	0.7857	0.9137	0.9219	-0.023
Mof_C 	C 	0.9623	0.7853	0.8151	-0.133
Mof_C 	C 	0.821	0.361	0.945	0.099
Mof_C 	C 	0.6011	0.5071	0.0947	0.068
Mof_C 	C 	0.6141	0.2961	0.0637	0.057
Mof_C 	C 	0.5856	0.7146	0.5782	-0.029
Mof_C 	C 	0.3016	0.0086	0.0832	-0.146
Mof_C 	C 	0.58	0.104	0.628	-0.03
Mof_C 	C 	0.2006	0.3126	0.7002	-0.027
Mof_C 	C 	0.1145	0.6805	0.6115	-0.034
Mof_C 	C 	0.8469	0.6249	0.3373	0.077
Mof_C 	C 	0.1372	0.6802	0.5554	0.095
Mof_C 	C 	0.5305	0.0165	0.2785	0.394
Mof_C 	C 	0.6424	0.8564	0.7518	0.07
Mof_C 	C 	0.3843	0.7563	0.9201	0.075
Mof_C 	C 	0.8836	0.7596	0.0002	0.087
Mof_C 	C 	0.5573	0.4483	0.0181	0.055
Mof_C 	C 	0.4144	0.2854	0.4218	-0.029
Mof_C 	C 	0.393	0.31	0.423	-0.034
Mof_C 	C 	0.3475	0.1405	0.7695	-0.133
Mof_C 	C 	0.0432	0.6072	0.0994	-0.121
Mof_C 	C 	0.4739	0.7749	0.0953	0.067
Mof_C 	C 	0.8564	0.7494	0.7518	0.07
Mof_C 	C 	0.2363	0.8033	0.2461	-0.155
Mof_C 	C 	0.8013	0.6273	0.0941	-0.16
Mof_C 	C 	0.6179	0.5559	0.7863	0.042
Mof_C 	C 	0.6336	0.5076	0.8112	0.038
Mof_C 	C 	0.757	0.75	0.265	-0.152
Mof_C 	C 	0.3928	0.1038	0.7506	-0.157
Mof_C 	C 	0.2437	0.0607	0.0799	0.075
Mof_C 	C 	0.4949	0.9629	0.5043	-0.104
Mof_C 	C 	0.2961	0.0261	0.0637	0.057
Mof_C 	C 	0.7555	0.2055	0.7725	0.1
Mof_C 	C 	0.4197	0.4527	0.1819	0.046
Mof_C 	C 	0.2641	0.6521	0.9977	-0.14
Mof_C 	C 	0.2296	0.6486	0.2662	-0.13
Mof_C 	C 	0.4155	0.8505	0.5205	0.068
Mof_C 	C 	0.8577	0.2817	0.4809	-0.025
Mof_C 	C 	0.6062	0.1312	0.5734	-0.146
Mof_C 	C 	0.7319	0.9679	0.4033	-0.117
Mof_C 	C 	0.2389	0.6949	0.2473	-0.027
Mof_C 	C 	0.8121	0.3661	0.9267	-0.15
Mof_C 	C 	0.203	0.809	0.319	0.085
Mof_C 	C 	0.4585	0.9545	0.0355	-0.143
Mof_C 	C 	0.5255	0.4875	0.0385	0.039
Mof_C 	C 	0.9267	0.3187	0.3369	-0.135
Mof_C 	C 	0.5904	0.0484	0.8328	-0.093
Mof_C 	C 	0.312	0.42	0.372	-0.03
Mof_C 	C 	0.2308	0.7638	0.7536	0.1
Mof_C 	C 	0.7411	0.6321	0.0977	0.079
Mof_C 	C 	0.4311	0.9411	0.3177	0.072
Mof_C 	C 	0.7676	0.3806	0.7332	0.071
Mof_C 	C 	0.699	0.021	0.406	-0.136
Mof_C 	C 	0.5425	0.7505	0.5995	-0.136
Mof_C 	C 	0.3576	0.3606	0.4062	-0.145
Mof_C 	C 	0.2819	0.8409	0.1753	0.081
Mof_C 	C 	0.0399	0.6179	0.7863	0.042
Mof_C 	C 	0.3928	0.7498	0.9006	-0.121
Mof_C 	C 	0.3726	0.8946	0.0512	0.453
Mof_C 	C 	0.4527	0.9457	0.1819	0.046
Mof_C 	C 	0.1947	0.2507	0.2479	-0.043
Mof_C 	C 	0.4296	0.5596	0.9492	0.411
Mof_C 	C 	0.2055	0.2665	0.7725	0.1
Mof_C 	C 	0.9112	0.4942	0.1414	0.034
Mof_C 	C 	0.2424	0.0274	0.5988	0.072
Mof_C 	C 	0.4709	0.2589	0.9023	0.079
Mof_C 	C 	0.8121	0.3941	0.8727	-0.022
Mof_C 	C 	0.267	0.826	0.193	-0.027
Mof_C 	C 	0.7242	0.6432	0.7464	-0.117
Mof_C 	C 	0.6398	0.2058	0.3196	-0.138
Mof_C 	C 	0.0015	0.8425	0.4015	-0.126
Mof_C 	C 	0.7418	0.6438	0.4846	-0.125
Mof_C 	C 	0.1536	0.1516	0.0562	-0.156
Mof_C 	C 	0.0257	0.8457	0.4039	0.059
Mof_C 	C 	0.8579	0.3749	0.9063	-0.157
Mof_C 	C 	0.1879	0.6059	0.1273	-0.022
Mof_C 	C 	0.4001	0.9451	0.1537	0.038
Mof_C 	C 	0.9473	0.0573	0.5181	0.043
Mof_C 	C 	0.6137	0.8557	0.7569	-0.123
Mof_C 	C 	0.75	0.228	0.265	-0.152
Mof_C 	C 	0.8009	0.1089	0.5833	-0.16
Mof_C 	C 	0.7866	0.2006	0.7002	-0.027
Mof_C 	C 	0.0061	0.4621	0.9957	-0.104
Mof_C 	C 	0.6434	0.1164	0.9998	0.087
Mof_C 	C 	0.719	0.131	0.825	-0.129
Mof_C 	C 	0.0515	0.4745	0.9615	0.039
Mof_C 	C 	0.462	0.972	0.708	-0.12
Mof_C 	C 	0.9096	0.3036	0.3522	0.088
Mof_C 	C 	0.7719	0.2159	0.7353	0.101
Mof_C 	C 	0.4478	0.9518	0.6816	0.037
Mof_C 	C 	0.3688	0.8398	0.9246	0.102
Mof_C 	C 	0.5183	0.0543	0.8241	-0.102
Mof_C 	C 	0.5481	0.1681	0.9077	0.421
Mof_C 	C 	0.2884	0.3654	0.9008	-0.022
Mof_C 	C 	0.42	0.896	0.372	-0.03
Mof_C 	C 	0.867	0.813	0.397	-0.043
Mof_C 	C 	0.9383	0.4523	0.1681	0.029
Mof_C 	C 	0.2106	0.3896	0.5352	-0.148
Mof_C 	C 	0.1872	0.7942	0.3364	-0.14
Mof_C 	C 	0.4575	0.2495	0.4005	-0.136
Mof_C 	C 	0.8947	0.4477	0.6759	-0.102
Mof_C 	C 	0.2228	0.2788	0.2476	-0.183
Mof_C 	C 	0.5867	0.5667	0.7989	-0.107
Mof_C 	C 	0.9939	0.5379	0.0043	-0.104
Mof_C 	C 	0.69	0.126	0.577	-0.034
Mof_C 	C 	0.2202	0.5952	0.1504	-0.122
Mof_C 	C 	0.3743	0.8103	0.9231	-0.039
Mof_C 	C 	0.766	0.121	0.562	-0.137
Mof_C 	C 	0.0999	0.2979	0.5943	0.051
Mof_C 	C 	0.7337	0.3717	0.0329	0.077
Mof_C 	C 	0.892	0.523	0.414	0.444
Mof_C 	C 	0.2992	0.3772	0.4644	-0.036
Mof_C 	C 	0.394	0.367	0.899	-0.179
Mof_C 	C 	0.6265	0.1115	0.0925	0.1
Mof_C 	C 	0.0828	0.2888	0.9806	0.083
Mof_C 	C 	0.7942	0.1652	0.6804	-0.138
Mof_C 	C 	0.644	0.119	0.019	-0.028
Mof_C 	C 	0.9921	0.9001	0.4057	0.051
Mof_C 	C 	0.5379	0.4639	0.0043	-0.104
Mof_C 	C 	0.2817	0.3797	0.4809	-0.025
Mof_C 	C 	0.633	0.66	0.101	-0.179
Mof_C 	C 	0.6542	0.3422	0.1264	0.412
Mof_C 	C 	0.9457	0.4197	0.1819	0.046
Mof_C 	C 	0.3974	0.7214	0.8988	0.057
Mof_C 	C 	0.1228	0.3458	0.8736	0.412
Mof_C 	C 	0.6213	0.2143	0.0781	-0.023
Mof_C 	C 	0.9196	0.5426	0.1252	0.386
Mof_C 	C 	0.0323	0.6733	0.7791	0.394
Mof_C 	C 	0.5515	0.4585	0.0355	-0.143
Mof_C 	C 	0.4373	0.9623	0.8151	-0.133
Mof_C 	C 	0.5069	0.8009	0.5833	-0.16
Mof_C 	C 	0.7711	0.4191	0.8307	0.055
Mof_C 	C 	0.4123	0.8473	0.5031	-0.129
Mof_C 	C 	0.1332	0.6312	0.0754	0.102
Mof_C 	C 	0.0328	0.4948	0.9756	-0.1
Mof_C 	C 	0.0086	0.6066	0.0832	-0.146
Mof_C 	C 	0.3772	0.8592	0.4644	-0.036
Mof_C 	C 	0.8775	0.8005	0.9645	-0.036
Mof_C 	C 	0.8053	0.7493	0.7521	-0.043
Mof_C 	C 	0.4427	0.5517	0.9819	0.055
Mof_C 	C 	0.44	0.256	0.42	0.085
Mof_C 	C 	0.9393	0.3843	0.9201	0.075
Mof_C 	C 	0.5269	0.0399	0.7923	-0.125
Mof_C 	C 	0.0904	0.0294	0.3328	-0.102
Mof_C 	C 	0.3837	0.0867	0.2539	0.051
Mof_C 	C 	0.879	0.449	0.438	-0.137
Mof_C 	C 	0.1575	0.2455	0.5985	-0.126
Mof_C 	C 	0.0834	0.5344	0.8448	-0.089
Mof_C 	C 	0.9523	0.4133	0.2011	-0.107
Mof_C 	C 	0.6272	0.1372	0.5554	0.095
Mof_C 	C 	0.3462	0.8622	0.4434	-0.149
Mof_C 	C 	0.2508	0.2228	0.2476	-0.183
Mof_C 	C 	0.393	0.671	0.915	0.402
Mof_C 	C 	0.9133	0.7243	0.7461	0.051
Mof_C 	C 	0.9323	0.9123	0.7011	-0.102
Mof_C 	C 	0.1882	0.2762	0.7914	-0.037
Mof_C 	C 	0.6334	0.6604	0.5758	0.094
Mof_C 	C 	0.5284	0.5904	0.8328	-0.093
Mof_C 	C 	0.8585	0.7585	0.0155	-0.133
Mof_C 	C 	0.3407	0.6997	0.8409	0.061
Mof_C 	C 	0.8253	0.7143	0.1591	-0.128
Mof_C 	C 	0.0861	0.2641	0.9977	-0.14
Mof_C 	C 	0.6228	0.1408	0.5356	-0.036
Mof_C 	C 	0.1089	0.2909	0.9653	-0.177
Mof_C 	C 	0.7214	0.9824	0.8988	0.057
Mof_C 	C 	0.5517	0.0237	0.9819	0.055
Mof_C 	C 	0.8378	0.6988	0.1426	0.055
Mof_C 	C 	0.5011	0.4001	0.1537	0.038
Mof_C 	C 	0.1269	0.8179	0.4483	0.413
Mof_C 	C 	0.5457	0.0677	0.2989	-0.102
Mof_C 	C 	0.6033	0.5183	0.8241	-0.102
Mof_C 	C 	0.8674	0.8404	0.3958	0.098
Mof_C 	C 	0.0274	0.1314	0.5988	0.072
Mof_C 	C 	0.7181	0.1591	0.8247	0.081
Mof_C 	C 	0.3735	0.8885	0.9075	0.1
Mof_C 	C 	0.6816	0.3726	0.0512	0.453
Mof_C 	C 	0.2326	0.2386	0.7722	-0.155
Mof_C 	C 	0.1237	0.6707	0.5929	0.092
Mof_C 	C 	0.5751	0.0811	0.1627	-0.119
Mof_C 	C 	0.361	0.873	0.945	0.099
Mof_C 	C 	0.4773	0.8013	0.0941	-0.16
Mof_C 	C 	0.2663	0.6283	0.9671	0.077
Mof_C 	C 	0.0607	0.6157	0.0799	0.075
Mof_C 	C 	0.0134	0.9744	0.4618	0.036
Mof_C 	C 	0.7563	0.9393	0.9201	0.075
Mof_C 	C 	0.4134	0.9534	0.6408	0.047
Mof_C 	C 	0.1346	0.5456	0.3112	0.037
Mof_C 	C 	0.25	0.772	0.735	-0.152
Mof_C 	C 	0.3602	0.7942	0.6804	-0.138
Mof_C 	C 	0.0873	0.9573	0.3751	0.423
Mof_C 	C 	0.9601	0.3821	0.2137	0.042
Mof_C 	C 	0.4847	0.9677	0.2209	0.394
Mof_C 	C 	0.3767	0.1147	0.7689	0.068
Mof_C 	C 	0.8911	0.4931	0.4167	-0.16
Mof_C 	C 	0.6984	0.9914	0.9168	-0.146
Mof_C 	C 	0.9485	0.5255	0.0385	0.039
Mof_C 	C 	0.3396	0.8696	0.4242	0.094
Mof_C 	C 	0.0455	0.4485	0.9645	-0.143
Mof_C 	C 	0.6438	0.1298	0.4846	-0.125
Mof_C 	C 	0.4626	0.9166	0.1552	-0.089
Mof_C 	C 	0.0451	0.7241	0.7057	0.462
Mof_C 	C 	0.9791	0.7711	0.8307	0.055
Mof_C 	C 	0.3458	0.6578	0.8736	0.412
Mof_C 	C 	0.2547	0.3417	0.9029	-0.127
Mof_C 	C 	0.6409	0.5269	0.7923	-0.125
Mof_C 	C 	0.9891	0.5101	0.4927	0.036
Mof_C 	C 	0.7884	0.9454	0.3988	-0.019
Mof_C 	C 	0.7749	0.6559	0.0953	0.067
Mof_C 	C 	0.9255	0.5125	0.1405	-0.123
Mof_C 	C 	0.6312	0.1602	0.0754	0.102
Mof_C 	C 	0.0586	0.0486	0.3322	0.043
Mof_C 	C 	0.8005	0.3575	0.9645	-0.036
Mof_C 	C 	0.7994	0.6874	0.2998	-0.027
Mof_C 	C 	0.6663	0.1733	0.3541	0.079
Mof_C 	C 	0.0079	0.0999	0.5943	0.051
Mof_C 	C 	0.9514	0.4394	0.6678	0.043
Mof_C 	C 	0.1543	0.2753	0.5961	0.059
Mof_C 	C 	0.5654	0.0904	0.6478	0.088
Mof_C 	C 	0.28	0.203	0.753	-0.037
Mof_C 	C 	0.2507	0.3297	0.2479	-0.019
Mof_C 	C 	0.6478	0.0828	0.9806	0.083
Mof_C 	C 	0.7212	0.7492	0.7524	-0.183
Mof_C 	C 	0.5577	0.9417	0.7509	0.396
Mof_C 	C 	0.9414	0.9514	0.6678	0.043
Mof_C 	C 	0.8654	0.4544	0.6888	0.037
Mof_C 	C 	0.1652	0.3602	0.6804	-0.138
Mof_C 	C 	0.0399	0.6409	0.7923	-0.125
Mof_C 	C 	0.551	0.766	0.562	-0.137
Mof_C 	C 	0.1054	0.3184	0.9488	0.453
Mof_C 	C 	0.7493	0.6703	0.7521	-0.019
Mof_C 	C 	0.3814	0.7334	0.9378	-0.123
Mof_C 	C 	0.6243	0.1553	0.3721	0.443
Mof_C 	C 	0.3749	0.8609	0.9063	-0.157
Mof_C 	C 	0.8348	0.6398	0.3196	-0.138
Mof_C 	C 	0.1517	0.3757	0.6279	0.443
Mof_C 	C 	0.6186	0.2666	0.0622	-0.123
Mof_C 	C 	0.4968	0.0328	0.9756	-0.1
Mof_C 	C 	0.3941	0.9211	0.8727	-0.022
Mof_C 	C 	0.9629	0.0379	0.5043	-0.104
Mof_C 	C 	0.5251	0.0451	0.7057	0.462
Mof_C 	C 	0.4228	0.3128	0.8996	-0.045
Mof_C 	C 	0.5522	0.0482	0.3184	0.037
Mof_C 	C 	0.0998	0.9998	0.3466	0.047
Mof_C 	C 	0.6194	0.8814	0.2668	0.071
Mof_C 	C 	0.1408	0.7008	0.5356	-0.036
Mof_C 	C 	0.4065	0.8855	0.3885	-0.034
Mof_C 	C 	0.1266	0.7656	0.4672	0.06
Mof_C 	C 	0.9518	0.9188	0.6816	0.037
Mof_C 	C 	0.7509	0.4229	0.7503	0.429
Mof_C 	C 	0.809	0.669	0.319	0.085
Mof_C 	C 	0.5857	0.8837	0.7569	0.053
Mof_C 	C 	0.3003	0.8813	0.1591	0.061
Mof_C 	C 	0.3195	0.4065	0.3885	-0.034
Mof_C 	C 	0.9534	0.9924	0.6408	0.047
Mof_C 	C 	0.6802	0.6272	0.5554	0.095
Mof_C 	C 	0.897	0.483	0.399	0.071
Mof_C 	C 	0.0874	0.2504	0.2488	-0.134
Mof_C 	C 	0.6352	0.5772	0.1004	-0.045
Mof_C 	C 	0.4177	0.9267	0.3369	-0.135
Mof_C 	C 	0.0101	0.4891	0.9927	0.04
Mof_C 	C 	0.4133	0.4333	0.2011	-0.107
Mof_C 	C 	0.8398	0.8668	0.9246	0.102
Mof_C 	C 	0.4496	0.9866	0.5382	0.036
Mof_C 	C 	0.108	0.477	0.586	0.444
Mof_C 	C 	0.6674	0.0474	0.4078	0.399
Mof_C 	C 	0.7675	0.6035	0.0965	-0.138
Mof_C 	C 	0.8505	0.2135	0.5205	0.068
Mof_C 	C 	0.9137	0.3787	0.9219	-0.023
Mof_C 	C 	0.4546	0.9586	0.5352	-0.125
Mof_C 	C 	0.2455	0.9985	0.5985	-0.126
Mof_C 	C 	0.1963	0.5923	0.1471	0.074
Mof_C 	C 	0.3479	0.9139	0.0023	-0.14
Mof_C 	C 	0.9383	0.2863	0.3141	-0.166
Mof_C 	C 	0.2857	0.7637	0.7539	-0.155
Mof_C 	C 	0.4423	0.0583	0.2491	0.396
Mof_C 	C 	0.4333	0.9523	0.2011	-0.107
Mof_C 	C 	0.8197	0.3837	0.8889	-0.038
Mof_C 	C 	0.2207	0.7927	0.2839	-0.036
Mof_C 	C 	0.3679	0.4709	0.9023	0.079
Mof_C 	C 	0.8684	0.8954	0.3958	-0.148
Mof_C 	C 	0.2495	0.8925	0.4005	-0.136
Mof_C 	C 	0.9586	0.0516	0.5352	-0.125
Mof_C 	C 	0.4454	0.2884	0.9008	-0.022
Mof_C 	C 	0.0086	0.1346	0.3112	0.037
Mof_C 	C 	0.1226	0.3326	0.5922	0.399
Mof_C 	C 	0.2073	0.2973	0.7161	-0.036
Mof_C 	C 	0.0002	0.4462	0.6534	0.047
Mof_C 	C 	0.539	0.057	0.286	0.038
Mof_C 	C 	0.4188	0.9638	0.6546	-0.116
Mof_C 	C 	0.8962	0.2472	0.2494	-0.157
Mof_C 	C 	0.5999	0.0549	0.8463	0.038
Mof_C 	C 	0.3787	0.7857	0.9219	-0.023
Mof_C 	C 	0.9127	0.0427	0.6249	0.423
Mof_C 	C 	0.7638	0.2518	0.7536	0.1
Mof_C 	C 	0.8305	0.3735	0.9075	0.1
Mof_C 	C 	0.5667	0.0477	0.7989	-0.107
Mof_C 	C 	0.7008	0.6228	0.5356	-0.036
Mof_C 	C 	0.7334	0.9474	0.9378	-0.123
Mof_C 	C 	0.6559	0.4739	0.0953	0.067
Mof_C 	C 	0.2786	0.0176	0.1012	0.057
Mof_C 	C 	0.5803	0.0873	0.3751	0.423
Mof_C 	C 	0.8259	0.1669	0.6453	-0.169
Mof_C 	C 	0.9001	0.7021	0.4057	0.051
Mof_C 	C 	0.6072	0.2502	0.0994	-0.121
Mof_C 	C 	0.3591	0.4731	0.2077	-0.125
Mof_C 	C 	0.7146	0.1216	0.5782	-0.029
Mof_C 	C 	0.1937	0.3337	0.6459	0.079
Mof_C 	C 	0.1038	0.7528	0.7506	-0.157
Mof_C 	C 	0.7704	0.3514	0.7338	-0.13
Mof_C 	C 	0.829	0.108	0.586	0.444
Mof_C 	C 	0.5809	0.0209	0.1693	0.055
Mof_C 	C 	0.2769	0.7719	0.7353	0.101
Mof_C 	C 	0.6233	0.8853	0.2311	0.068
Mof_C 	C 	0.1811	0.5751	0.1627	-0.119
Mof_C 	C 	0.4639	0.9939	0.0043	-0.104
Mof_C 	C 	0.7247	0.0257	0.4039	0.059
Mof_C 	C 	0.4675	0.2325	0.9035	-0.138
Mof_C 	C 	0.3036	0.4346	0.3522	0.088
Mof_C 	C 	0.9216	0.0116	0.6402	-0.135
Mof_C 	C 	0.6872	0.6352	0.1004	-0.045
Mof_C 	C 	0.0799	0.7279	0.6703	0.076
Mof_C 	C 	0.873	0.821	0.945	0.099
Mof_C 	C 	0.1591	0.2981	0.8247	0.081
Mof_C 	C 	0.0476	0.6336	0.8112	0.038
Mof_C 	C 	0.8557	0.7737	0.7569	-0.123
Mof_C 	C 	0.1046	0.1596	0.6042	-0.148
Mof_C 	C 	0.5559	0.0399	0.7863	0.042
Mof_C 	C 	0.5538	0.0998	0.3466	0.047
Mof_C 	C 	0.1216	0.5856	0.5782	-0.029
Mof_C 	C 	0.8772	0.6542	0.1264	0.412
Mof_C 	C 	0.6988	0.3208	0.1426	0.055
Mof_C 	C 	0.8763	0.3293	0.4071	0.092
Mof_C 	C 	0.256	0.884	0.42	0.085
Mof_C 	C 	0.688	0.58	0.628	-0.03
Mof_C 	C 	0.0486	0.5606	0.3322	0.043
Mof_C 	C 	0.7894	0.6104	0.4648	-0.148
Mof_C 	C 	0.2759	0.4749	0.2943	0.462
Mof_C 	C 	0.3207	0.8657	0.1429	-0.144
Mof_C 	C 	0.0076	0.5866	0.3592	0.047
Mof_C 	C 	0.5456	0.0086	0.3112	0.037
Mof_C 	C 	0.2502	0.0432	0.0994	-0.121
Mof_C 	C 	0.7039	0.9739	0.9363	0.057
Mof_C 	C 	0.6538	0.1378	0.5566	-0.149
Mof_C 	C 	0.6283	0.1383	0.9671	0.077
Mof_C 	C 	0.7492	0.7222	0.7524	0.119
Mof_C 	C 	0.1741	0.8331	0.3547	-0.169
Mof_C 	C 	0.5812	0.0362	0.3454	-0.116
Mof_C 	C 	0.7798	0.4048	0.8496	-0.122
Mof_C 	C 	0.6273	0.4773	0.0941	-0.16
Mof_C 	C 	0.341	0.366	0.899	0.126
Mof_C 	C 	0.8457	0.2407	0.2479	0.083
Mof_C 	C 	0.5599	0.0689	0.1813	0.049
Mof_C 	C 	0.9573	0.5803	0.3751	0.423
Mof_C 	C 	0.5007	0.2547	0.9029	-0.127
Mof_C 	C 	0.9172	0.7112	0.0194	0.083
Mof_C 	C 	0.7737	0.5857	0.7569	0.053
Mof_C 	C 	0.9924	0.4134	0.6408	0.047
Mof_C 	C 	0.118	0.539	0.286	0.038
Mof_C 	C 	0.4191	0.9791	0.8307	0.055
Mof_C 	C 	0.7692	0.2362	0.2464	0.1
Mof_C 	C 	0.5227	0.1987	0.9059	-0.16
Mof_C 	C 	0.6892	0.6062	0.5734	-0.146
Mof_C 	C 	0.3896	0.8646	0.5352	-0.148
Mof_C 	C 	0.1354	0.7894	0.4648	-0.148
Mof_C 	C 	0.7611	0.3051	0.7527	-0.027
Mof_C 	C 	0.8595	0.2575	0.2305	-0.133
Mof_C 	C 	0.3178	0.8128	0.6636	-0.14
Mof_C 	C 	0.0583	0.2503	0.2491	0.396
Mof_C 	C 	0.3832	0.8562	0.5004	0.077
Mof_C 	C 	0.0474	0.8774	0.4078	0.399
Mof_C 	C 	0.174	0.286	0.807	-0.027
Mof_C 	C 	0.4485	0.5415	0.9645	-0.143
Mof_C 	C 	0.7482	0.7692	0.2464	0.1
Mof_C 	C 	0.3198	0.3728	0.4446	0.095
Mof_C 	C 	0.4538	0.9758	0.7956	0.395
Mof_C 	C 	0.9706	0.4526	0.6672	-0.102
Mof_C 	C 	0.5325	0.7675	0.0965	-0.138
Mof_C 	C 	0.126	0.607	0.577	-0.034
Mof_C 	C 	0.5523	0.0183	0.3241	-0.102
Mof_C 	C 	0.1622	0.3012	0.8574	0.055
Mof_C 	C 	0.8862	0.7242	0.7464	-0.117
Mof_C 	C 	0.2344	0.3594	0.5328	0.06
Mof_C 	C 	0.5606	0.0586	0.3322	0.043
Mof_C 	C 	0.1495	0.7865	0.4795	0.068
Mof_C 	C 	0.5785	0.0745	0.8595	-0.123
Mof_C 	C 	0.2909	0.6349	0.9653	-0.177
Mof_C 	C 	0.0617	0.7137	0.6859	-0.166
Mof_C 	C 	0.7279	0.5219	0.6703	0.076
Mof_C 	C 	0.858	0.462	0.708	-0.12
Mof_C 	C 	0.5473	0.0543	0.8181	0.046
Mof_C 	C 	0.874	0.699	0.406	-0.136
Mof_C 	C 	0.2757	0.3837	0.2539	0.051
Mof_C 	C 	0.764	0.28	0.753	-0.037
Mof_C 	C 	0.3514	0.1444	0.7338	-0.13
Mof_C 	C 	0.5504	0.0134	0.4618	0.036
Mof_C 	C 	0.0733	0.6813	0.6631	-0.135
Mof_C 	C 	0.301	0.979	0.594	-0.136
Mof_C 	C 	0.3931	0.8731	0.5517	0.413
Mof_C 	C 	0.8885	0.8305	0.9075	0.1
Mof_C 	C 	0.4134	0.0874	0.2488	-0.134
Mof_C 	C 	0.9679	0.8969	0.4033	-0.117
Mof_C 	C 	0.1053	0.5523	0.3241	-0.102
Mof_C 	C 	0.9914	0.3934	0.9168	-0.146
Mof_C 	C 	0.8457	0.7247	0.4039	0.059
Mof_C 	C 	0.4613	0.9383	0.3141	-0.166
Mof_C 	C 	0.1602	0.1332	0.0754	0.102
Mof_C 	C 	0.2762	0.7442	0.7914	-0.037
Mof_C 	C 	0.1036	0.1326	0.6042	0.098
Mof_C 	C 	0.4621	0.5361	0.9957	-0.104
Mof_C 	C 	0.1383	0.2663	0.9671	0.077
Mof_C 	C 	0.9545	0.5515	0.0355	-0.143
Mof_C 	C 	0.7596	0.3566	0.0002	0.087
Mof_C 	C 	0.923	0.867	0.397	-0.043
Mof_C 	C 	0.6104	0.1354	0.4648	-0.148
Mof_C 	C 	0.5734	0.0784	0.3598	-0.135
Mof_C 	C 	0.5923	0.0643	0.1471	0.074
Mof_C 	C 	0.9884	0.5734	0.3598	-0.135
Mof_C 	C 	0.9526	0.1226	0.5922	0.399
Mof_C 	C 	0.133	0.187	0.603	-0.043
Mof_C 	C 	0.1596	0.1316	0.6042	-0.148
Mof_C 	C 	0.1991	0.8911	0.4167	-0.16
Mof_C 	C 	0.2973	0.7793	0.7161	-0.036
Mof_C 	C 	0.2251	0.3441	0.9047	0.067
Mof_C 	C 	0.4413	0.9383	0.1681	0.029
Mof_C 	C 	0.3326	0.9526	0.5922	0.399
Mof_C 	C 	0.1298	0.7418	0.4846	-0.125
Mof_C 	C 	0.7359	0.3479	0.0023	-0.14
Mof_C 	C 	0.7748	0.4538	0.7956	0.395
Mof_C 	C 	0.6381	0.1741	0.3547	-0.169
Mof_C 	C 	0.1669	0.3619	0.6453	-0.169
Mof_C 	C 	0.659	0.634	0.101	0.126
Mof_C 	C 	0.8925	0.4575	0.4005	-0.136
Mof_C 	C 	0.8331	0.6381	0.3547	-0.169
Mof_C 	C 	0.4656	0.4626	0.1552	-0.089
Mof_C 	C 	0.2602	0.3832	0.5004	0.077
Mof_C 	C 	0.9126	0.7496	0.7512	-0.134
Mof_C 	C 	0.3208	0.8378	0.1426	0.055
Mof_C 	C 	0.2857	0.6987	0.8409	-0.128
Mof_C 	C 	0.1899	0.5599	0.1813	0.049
Mof_C 	C 	0.234	0.879	0.438	-0.137
Mof_C 	C 	0.7793	0.2073	0.7161	-0.036
Mof_C 	C 	0.8686	0.7576	0.4012	0.072
Mof_C 	C 	0.634	0.606	0.101	0.126
Mof_C 	C 	0.3293	0.3873	0.4071	0.092
Mof_C 	C 	0.6059	0.0789	0.1273	-0.022
Mof_C 	C 	0.0237	0.4427	0.9819	0.055
Mof_C 	C 	0.5823	0.0733	0.6631	-0.135
Mof_C 	C 	0.477	0.829	0.586	0.444
Mof_C 	C 	0.5051	0.0371	0.4957	-0.104
Mof_C 	C 	0.3441	0.5261	0.9047	0.067
Mof_C 	C 	0.0372	0.5812	0.3454	-0.116
Mof_C 	C 	0.8911	0.7091	0.0347	-0.177
Mof_C 	C 	0.7238	0.2558	0.2086	-0.037
Mof_C 	C 	0.7971	0.6011	0.0947	0.068
Mof_C 	C 	0.3482	0.3462	0.4434	-0.149
Mof_C 	C 	0.3562	0.8702	0.5154	-0.125
Mof_C 	C 	0.979	0.607	0.085	0.402
Mof_C 	C 	0.8784	0.4144	0.4218	-0.029
Mof_C 	C 	0.1244	0.6424	0.5938	-0.145
Mof_C 	C 	0.6157	0.2437	0.0799	0.075
Mof_C 	C 	0.5081	0.0101	0.9927	0.04
Mof_C 	C 	0.9758	0.7748	0.7956	0.395
Mof_C 	C 	0.4229	0.0759	0.7503	0.429
Mof_C 	C 	0.7243	0.6163	0.7461	0.051
Mof_C 	C 	0.2325	0.3965	0.9035	-0.138
Mof_C 	C 	0.671	0.021	0.915	0.402
Mof_C 	C 	0.2681	0.0321	0.5967	-0.117
Mof_C 	C 	0.1415	0.2415	0.9845	-0.133
Mof_C 	C 	0.6593	0.3003	0.1591	0.061
Mof_C 	C 	0.6525	0.8595	0.2305	-0.133
Mof_C 	C 	0.5328	0.9978	0.4756	-0.091
Mof_C 	C 	0.449	0.234	0.438	-0.137
Mof_C 	C 	0.0242	0.2252	0.2044	0.395
Mof_C 	C 	0.6203	0.1423	0.5191	-0.025
Mof_C 	C 	0.782	0.356	0.981	-0.028
Mof_C 	C 	0.6964	0.5654	0.6478	0.088
Mof_C 	C 	0.7335	0.2445	0.2275	0.1
Mof_C 	C 	0.1423	0.7183	0.5191	-0.025
Mof_C 	C 	0.9454	0.8674	0.3988	-0.019
Mof_C 	C 	0.5291	0.7411	0.0977	0.079
Mof_C 	C 	0.8425	0.7545	0.4015	-0.126
Mof_C 	C 	0.4672	0.0022	0.5244	-0.091
Mof_C 	C 	0.221	0.897	0.399	0.071
Mof_C 	C 	0.7614	0.2434	0.2278	-0.155
Mof_C 	C 	0.9919	0.0109	0.5073	0.036
Mof_C 	C 	0.8103	0.8923	0.9231	-0.039
Mof_C 	C 	0.6163	0.0923	0.1111	-0.038
Mof_C 	C 	0.6486	0.8556	0.2662	-0.13
Mof_C 	C 	0.4574	0.5874	0.8748	0.386
Mof_C 	C 	0.0261	0.6141	0.0637	0.057
Mof_C 	C 	0.7091	0.3651	0.0347	-0.177
Mof_C 	C 	0.9763	0.5573	0.0181	0.055
Mof_C 	C 	0.9658	0.7798	0.8496	-0.122
Mof_C 	C 	0.4404	0.9384	0.0508	0.411
Mof_C 	C 	0.7942	0.6822	0.3364	-0.14
Mof_C 	C 	0.179	0.639	0.055	0.099
Mof_C 	C 	0.7505	0.1075	0.5995	-0.136
Mof_C 	C 	0.3619	0.8259	0.6453	-0.169
Mof_C 	C 	0.9726	0.8686	0.4012	0.072
Mof_C 	C 	0.8484	0.3614	0.9438	-0.156
Mof_C 	C 	0.4394	0.9414	0.6678	0.043
Mof_C 	C 	0.2589	0.3679	0.9023	0.079
Mof_C 	C 	0.5616	0.0606	0.4492	0.394
Mof_C 	C 	0.7865	0.5845	0.4795	0.068
Mof_C 	C 	0.8628	0.3198	0.4446	0.095
Mof_C 	C 	0.077	0.133	0.603	-0.043
Mof_C 	C 	0.9638	0.9628	0.6546	-0.116
Mof_C 	C 	0.4077	0.9357	0.8529	0.074
Mof_C 	C 	0.9394	0.0714	0.5508	0.394
Mof_C 	C 	0.2504	0.4134	0.2488	-0.134
Mof_C 	C 	0.8813	0.6593	0.1591	0.061
Mof_C 	C 	0.0714	0.4384	0.5508	0.394
Mof_C 	C 	0.6899	0.5689	0.6823	0.072
Mof_C 	C 	0.8483	0.6243	0.3721	0.443
Mof_C 	C 	0.0362	0.0372	0.3454	-0.116
Mof_C 	C 	0.4942	0.4532	0.1414	0.034
Mof_C 	C 	0.1747	0.2857	0.8409	-0.128
Mof_C 	C 	0.0789	0.1879	0.1273	-0.022
Mof_C 	C 	0.881	0.782	0.981	-0.028
Mof_C 	C 	0.9188	0.4478	0.6816	0.037
Mof_C 	C 	0.6425	0.1225	0.0355	-0.036
Mof_C 	C 	0.6274	0.1054	0.9488	0.453
Mof_C 	C 	0.356	0.881	0.981	-0.028
Mof_C 	C 	0.1543	0.7593	0.7521	0.083
Mof_C 	C 	0.3267	0.4847	0.2209	0.394
Mof_C 	C 	0.3873	0.8763	0.4071	0.092
Mof_C 	C 	0.9451	0.5011	0.1537	0.038
Mof_C 	C 	0.1438	0.7398	0.4996	0.077
Mof_C 	C 	0.8657	0.6707	0.1429	-0.144
Mof_C 	C 	0.6707	0.3207	0.1429	-0.144
Mof_C 	C 	0.7494	0.6424	0.7518	0.07
Mof_C 	C 	0.7498	0.9568	0.9006	-0.121
Mof_C 	C 	0.3938	0.8688	0.4266	-0.146
Mof_C 	C 	0.4346	0.9096	0.3522	0.088
Mof_C 	C 	0.2508	0.2778	0.2476	0.119
Mof_C 	C 	0.6518	0.6538	0.5566	-0.149
Mof_C 	C 	0.5071	0.7971	0.0947	0.068
Mof_C 	C 	0.2159	0.2769	0.7353	0.101
Mof_C 	C 	0.7027	0.2207	0.2839	-0.036
Mof_C 	C 	0.3761	0.5481	0.9077	0.421
Mof_C 	C 	0.4249	0.9189	0.8373	-0.119
Mof_C 	C 	0.4773	0.9473	0.5181	0.043
Mof_C 	C 	0.1695	0.6265	0.0925	0.1
Mof_C 	C 	0.6657	0.8457	0.2479	0.083
Mof_C 	C 	0.5032	0.9672	0.0244	-0.1
Mof_C 	C 	0.3648	0.4228	0.8996	-0.045
Mof_C 	C 	0.1316	0.1046	0.6042	-0.148
Mof_C 	C 	0.1897	0.1077	0.0769	-0.039
Mof_C 	C 	0.826	0.714	0.193	-0.027
Mof_C 	C 	0.3664	0.4924	0.1888	0.038
Mof_C 	C 	0.9524	0.3664	0.1888	0.038
Mof_C 	C 	0.675	0.281	0.175	-0.129
Mof_C 	C 	0.8668	0.3688	0.9246	0.102
Mof_C 	C 	0.1553	0.8483	0.3721	0.443
Mof_C 	C 	0.2788	0.2508	0.2476	-0.183
Mof_C 	C 	0.9427	0.5227	0.4819	0.043
Mof_C 	C 	0.4931	0.1991	0.4167	-0.16
Mof_C 	C 	0.1391	0.1421	0.0937	-0.157
Mof_C 	C 	0.331	0.797	0.681	0.085
Mof_C 	C 	0.1186	0.7676	0.7332	0.071
Mof_C 	C 	0.9139	0.7359	0.0023	-0.14
Mof_C 	C 	0.538	0.028	0.292	-0.12
Mof_C 	C 	0.5803	0.5473	0.8181	0.046
Mof_C 	C 	0.6583	0.4993	0.0971	-0.127
Mof_C 	C 	0.6822	0.1872	0.3364	-0.14
Mof_C 	C 	0.4048	0.9658	0.8496	-0.122
Mof_C 	C 	0.0904	0.6964	0.6478	0.088
Mof_C 	C 	0.9411	0.3101	0.3177	0.072
Mof_C 	C 	0.0165	0.1745	0.2785	0.394
Mof_C 	C 	0.1031	0.2681	0.5967	-0.117
Mof_C 	C 	0.3575	0.8775	0.9645	-0.036
Mof_C 	C 	0.6733	0.5153	0.7791	0.394
Mof_C 	C 	0.8562	0.2602	0.5004	0.077
Mof_C 	C 	0.772	0.243	0.735	-0.152
Mof_C 	C 	0.5874	0.0804	0.8748	0.386
Mof_C 	C 	0.7231	0.2281	0.2647	0.101
Mof_C 	C 	0.3728	0.8628	0.4446	0.095
Mof_C 	C 	0.0812	0.5522	0.3184	0.037
Mof_C 	C 	0.3013	0.8253	0.1591	-0.128
Mof_C 	C 	0.744	0.116	0.58	0.085
Mof_C 	C 	0.2863	0.4613	0.3141	-0.166
Mof_C 	C 	0.8951	0.8121	0.9267	-0.15
Mof_C 	C 	0.2518	0.2308	0.7536	0.1
Mof_C 	C 	0.5462	0.0242	0.2044	0.395
Mof_C 	C 	0.1326	0.1596	0.6042	0.098
Mof_C 	C 	0.4266	0.9216	0.6402	-0.135
Mof_C 	C 	0.4197	0.9127	0.6249	0.423
Mof_C 	C 	0.7492	0.7772	0.7524	-0.183
Mof_C 	C 	0.1803	0.6163	0.1111	-0.038
Mof_C 	C 	0.2603	0.6233	0.2311	0.068
Mof_C 	C 	0.5877	0.1527	0.4969	-0.129
Mof_C 	C 	0.0377	0.2147	0.1849	-0.133
Mof_C 	C 	0.1077	0.6257	0.0769	-0.039
Mof_C 	C 	0.1995	0.6425	0.0355	-0.036
Mof_C 	C 	0.9211	0.8121	0.8727	-0.022
Mof_C 	C 	0.4891	0.5081	0.9927	0.04
Mof_C 	C 	0.0942	0.7192	0.6514	-0.138
Mof_C 	C 	0.4519	0.8319	0.0923	0.421
Mof_C 	C 	0.3967	0.4817	0.1759	-0.102
Mof_C 	C 	0.517	0.779	0.601	0.071
Mof_C 	C 	0.7398	0.6168	0.4996	0.077
Mof_C 	C 	0.8696	0.3666	0.4242	0.094
Mof_C 	C 	0.0617	0.5477	0.8319	0.029
Mof_C 	C 	0.236	0.72	0.247	-0.037
Mof_C 	C 	0.7927	0.7027	0.2839	-0.036
Mof_C 	C 	0.6406	0.1266	0.4672	0.06
Mof_C 	C 	0.0689	0.1899	0.1813	0.049
Mof_C 	C 	0.0811	0.1811	0.1627	-0.119
Mof_C 	C 	0.972	0.858	0.708	-0.12
Mof_C 	C 	0.6792	0.1622	0.8574	0.055
Mof_C 	C 	0.7496	0.5866	0.7512	-0.134
Mof_C 	C 	0.329	0.979	0.085	0.402
Mof_C 	C 	0.5771	0.9241	0.2497	0.429
Mof_C 	C 	0.7945	0.7335	0.2275	0.1
Mof_C 	C 	0.3751	0.8091	0.6627	0.077
Mof_C 	C 	0.0427	0.4197	0.6249	0.423
Mof_C 	C 	0.4695	0.9835	0.7215	0.394
Mof_C 	C 	0.187	0.077	0.603	-0.043
Mof_C 	C 	0.0062	0.4672	0.5244	-0.091
Mof_C 	C 	0.2252	0.5462	0.2044	0.395
Mof_C 	C 	0.6257	0.1897	0.0769	-0.039
Mof_C 	C 	0.3126	0.7866	0.7002	-0.027
Mof_C 	C 	0.1421	0.6251	0.0937	-0.157
Mof_C 	C 	0.0573	0.4773	0.5181	0.043
Mof_C 	C 	0.3012	0.6792	0.8574	0.055
Mof_C 	C 	0.6874	0.2134	0.2998	-0.027
Mof_C 	C 	0.0176	0.6026	0.1012	0.057
Mof_C 	C 	0.286	0.733	0.807	-0.027
Mof_C 	C 	0.2558	0.8118	0.2086	-0.037
Mof_C 	C 	0.2506	0.3576	0.2482	0.07
Mof_C 	C 	0.7183	0.6203	0.5191	-0.025
Mof_C 	C 	0.4462	0.9002	0.6534	0.047
Mof_C 	C 	0.281	0.869	0.175	-0.129
Mof_C 	C 	0.0589	0.6899	0.6823	0.072
Mof_C 	C 	0.4924	0.9524	0.1888	0.038
Mof_C 	C 	0.1304	0.6334	0.5758	0.094
Mof_C 	C 	0.9311	0.8101	0.8187	0.049
Mof_C 	C 	0.4875	0.5785	0.8595	-0.123
Mof_C 	C 	0.1745	0.5305	0.2785	0.394
Mof_C 	C 	0.1225	0.1995	0.0355	-0.036
Mof_C 	C 	0.119	0.218	0.019	-0.028
Mof_C 	C 	0.2503	0.4423	0.2491	0.396
Mof_C 	C 	0.7019	0.2819	0.1753	0.081
Mof_C 	C 	0.1147	0.7397	0.7689	0.068
Mof_C 	C 	0.5587	0.0617	0.8319	0.029
Mof_C 	C 	0.8855	0.3195	0.3885	-0.034
Mof_C 	C 	0.7593	0.3343	0.7521	0.083
Mof_C 	C 	0.4526	0.9096	0.6672	-0.102
Mof_C 	C 	0.8283	0.7493	0.7521	-0.019
Mof_C 	C 	0.2134	0.7994	0.2998	-0.027
Mof_C 	C 	0.6707	0.6127	0.5929	0.092
Mof_C 	C 	0.9998	0.5538	0.3466	0.047
Mof_C 	C 	0.9286	0.5616	0.4492	0.394
Mof_C 	C 	0.366	0.394	0.899	0.126
Mof_C 	C 	0.3576	0.1436	0.2482	0.07
Mof_C 	C 	0.606	0.659	0.101	0.126
Mof_C 	C 	0.8774	0.6674	0.4078	0.399
Mof_C 	C 	0.0484	0.5284	0.8328	-0.093
Mof_C 	C 	0.4441	0.9601	0.2137	0.042
Mof_C 	C 	0.2058	0.8348	0.3196	-0.138
Mof_C 	C 	0.2854	0.8784	0.4218	-0.029
Mof_C 	C 	0.171	0.892	0.414	0.444
Mof_C 	C 	0.1987	0.3727	0.9059	-0.16
Mof_C 	C 	0.607	0.329	0.085	0.402
Mof_C 	C 	0.7762	0.7492	0.7524	0.119
Mof_C 	C 	0.461	0.943	0.714	0.038
Mof_C 	C 	0.3337	0.8267	0.6459	0.079
Mof_C 	C 	0.896	0.312	0.372	-0.03
Mof_C 	C 	0.2324	0.6194	0.2668	0.071
Mof_C 	C 	0.4745	0.5125	0.9615	0.039
Mof_C 	C 	0.2116	0.0546	0.6012	-0.019
Mof_C 	C 	0.5254	0.7944	0.5638	0.073
Mof_C 	C 	0.8837	0.7737	0.7569	0.053
Mof_C 	C 	0.6805	0.5935	0.6115	-0.034
Mof_C 	C 	0.0923	0.1803	0.1111	-0.038
Mof_C 	C 	0.7493	0.6933	0.7521	-0.043
Mof_C 	C 	0.6168	0.1438	0.4996	0.077
Mof_C 	C 	0.0867	0.2757	0.2539	0.051
Mof_C 	C 	0.7566	0.2326	0.7722	-0.155
Mof_C 	C 	0.367	0.34	0.899	-0.179
Mof_C 	C 	0.4143	0.1163	0.2431	0.053
Mof_C 	C 	0.1314	0.2424	0.5988	0.072
Mof_C 	C 	0.3187	0.4177	0.3369	-0.135
Mof_C 	C 	0.884	0.44	0.42	0.085
Mof_C 	C 	0.6933	0.8053	0.7521	-0.043
Mof_C 	C 	0.0294	0.5474	0.3328	-0.102
Mof_C 	C 	0.1821	0.3931	0.5517	0.413
Mof_C 	C 	0.127	0.179	0.055	0.099
Mof_C 	C 	0.1326	0.2116	0.6012	-0.019
Mof_C 	C 	0.733	0.174	0.807	-0.027
Mof_C 	C 	0.9628	0.4188	0.6546	-0.116
Mof_C 	C 	0.9677	0.3267	0.2209	0.394
Mof_C 	C 	0.3522	0.9172	0.0194	0.083
Mof_C 	C 	0.0116	0.4266	0.6402	-0.135
Mof_C 	C 	0.0477	0.5867	0.7989	-0.107
Mof_C 	C 	0.9201	0.2721	0.3297	0.076
Mof_C 	C 	0.4096	0.9516	0.1672	-0.093
Mof_C 	C 	0.5866	0.0466	0.3592	0.047
Mof_C 	C 	0.1312	0.6892	0.5734	-0.146
Mof_C 	C 	0.3797	0.8577	0.4809	-0.025
Mof_C 	C 	0.9058	0.2808	0.3486	-0.138
Mof_C 	C 	0.4731	0.9601	0.2077	-0.125
Mof_C 	C 	0.2808	0.4648	0.3486	-0.138
Mof_C 	C 	0.1527	0.7627	0.4969	-0.129
Mof_C 	C 	0.8063	0.6663	0.3541	0.079
Mof_C 	C 	0.3651	0.8911	0.0347	-0.177
Mof_C 	C 	0.2888	0.6478	0.9806	0.083
Mof_C 	C 	0.1378	0.6518	0.5566	-0.149
Mof_C 	C 	0.4544	0.9914	0.6888	0.037
Mof_C 	C 	0.72	0.797	0.247	-0.037
Mof_C 	C 	0.2289	0.5809	0.1693	0.055
Mof_C 	C 	0.2407	0.6657	0.2479	0.083
Mof_C 	C 	0.5426	0.4126	0.1252	0.386
Mof_C 	C 	0.7944	0.1164	0.5638	0.073
Mof_C 	C 	0.3661	0.8951	0.9267	-0.15
Mof_C 	C 	0.7576	0.9726	0.4012	0.072
Mof_C 	C 	0.6249	0.1909	0.3373	0.077
Mof_C 	C 	0.0759	0.7509	0.7503	0.429
Mof_C 	C 	0.1733	0.8063	0.3541	0.079
Mof_C 	C 	0.9474	0.3814	0.9378	-0.123
Mof_C 	C 	0.3614	0.8464	0.9438	-0.156
Mof_C 	C 	0.869	0.675	0.175	-0.129
Mof_C 	C 	0.8118	0.7238	0.2086	-0.037
Mof_C 	C 	0.4483	0.9763	0.0181	0.055
Mof_C 	C 	0.2507	0.3067	0.2479	-0.043
Mof_C 	C 	0.0256	0.4496	0.5382	0.036
Mof_C 	C 	0.8404	0.8684	0.3958	-0.148
Mof_C 	C 	0.7497	0.5577	0.7509	0.396
Mof_C 	C 	0.8101	0.4401	0.8187	0.049
Mof_C 	C 	0.4817	0.9457	0.1759	-0.102
Mof_C 	C 	0.3727	0.5227	0.9059	-0.16
Mof_C 	C 	0.6987	0.1747	0.8409	-0.128
Mof_C 	C 	0.2263	0.4143	0.2431	0.053
Mof_C 	C 	0.0616	0.4296	0.9492	0.411
Mof_C 	C 	0.3863	0.1443	0.2431	-0.123
Mof_C 	C 	0.4477	0.9817	0.6759	-0.102
Mof_C 	C 	0.8409	0.7019	0.1753	0.081
Mof_C 	C 	0.9077	0.8197	0.8889	-0.038
Mof_C 	C 	0.2281	0.7841	0.2647	0.101
Mof_C 	C 	0.1115	0.1695	0.0925	0.1
Mof_C 	C 	0.5153	0.0323	0.7791	0.394
Mof_C 	C 	0.8814	0.2324	0.2668	0.071
Mof_C 	C 	0.0482	0.0812	0.3184	0.037
Mof_C 	C 	0.523	0.171	0.414	0.444
Mof_C 	C 	0.0109	0.4899	0.5073	0.036
Mof_C 	C 	0.4648	0.9058	0.3486	-0.138
Mof_C 	C 	0.0677	0.0877	0.2989	-0.102
Mof_C 	C 	0.2135	0.4155	0.5205	0.068
Mof_C 	C 	0.3594	0.8734	0.5328	0.06
Mof_C 	C 	0.3859	0.7039	0.9363	0.057
Mof_C 	C 	0.142	0.538	0.292	-0.12
Mof_C 	C 	0.1909	0.8469	0.3373	0.077
Mof_C 	C 	0.8447	0.1517	0.6279	0.443
Mof_C 	C 	0.9457	0.3967	0.1759	-0.102
Mof_C 	C 	0.7545	0.0015	0.4015	-0.126
Mof_C 	C 	0.0342	0.2202	0.1504	-0.122
Mof_C 	C 	0.4716	0.4096	0.1672	-0.093
Mof_C 	C 	0.8954	0.8404	0.3958	-0.148
Mof_C 	C 	0.0516	0.4546	0.5352	-0.125
Mof_C 	C 	0.0804	0.4574	0.8748	0.386
Mof_C 	C 	0.3184	0.6274	0.9488	0.453
Mof_C 	C 	0.3757	0.8447	0.6279	0.443
Mof_C 	C 	0.2029	0.3989	0.9053	0.068
Mof_C 	C 	0.669	0.203	0.319	0.085
Mof_C 	C 	0.028	0.142	0.292	-0.12
Mof_C 	C 	0.7772	0.7212	0.7524	-0.183
Mof_C 	C 	0.7585	0.3675	0.0155	-0.133
Mof_C 	C 	0.4948	0.4968	0.9756	-0.1
Mof_C 	C 	0.1444	0.7704	0.7338	-0.13
Mof_C 	C 	0.4929	0.2029	0.9053	0.068
Mof_C 	C 	0.1516	0.6386	0.0562	-0.156
Mof_C 	C 	0.6703	0.8283	0.7521	-0.019
Mof_C 	C 	0.5344	0.5374	0.8448	-0.089
Mof_C 	C 	0.1681	0.3761	0.9077	0.421
Mof_C 	C 	0.7192	0.5352	0.6514	-0.138
Mof_C 	C 	0.5415	0.0455	0.9645	-0.143
Mof_C 	C 	0.0745	0.4875	0.8595	-0.123
Mof_C 	C 	0.2721	0.4781	0.3297	0.076
Mof_C 	C 	0.8179	0.6069	0.4483	0.413
Mof_C 	C 	0.639	0.127	0.055	0.099
Mof_C 	C 	0.5689	0.0589	0.6823	0.072
Mof_C 	C 	0.4543	0.9323	0.7011	-0.102
Mof_C 	C 	0.2143	0.0863	0.0781	-0.023
Mof_C 	C 	0.3606	0.8756	0.4062	-0.145
Mof_C 	C 	0.2472	0.6072	0.2494	-0.157
Mof_C 	C 	0.7137	0.5387	0.6859	-0.166
Mof_C 	C 	0.3806	0.1186	0.7332	0.071
Mof_C 	C 	0.1811	0.7611	0.7527	-0.027
Mof_C 	C 	0.3654	0.4454	0.9008	-0.022
Mof_C 	C 	0.7442	0.1882	0.7914	-0.037
Mof_C 	C 	0.8037	0.4077	0.8529	0.074
Mof_C 	C 	0.9985	0.1575	0.5985	-0.126
Mof_C 	C 	0.6035	0.5325	0.0965	-0.138
Mof_C 	C 	0.6424	0.6394	0.5938	-0.145
Mof_C 	C 	0.9568	0.3928	0.9006	-0.121
Mof_C 	C 	0.8128	0.2058	0.6636	-0.14
Mof_C 	C 	0.4781	0.9201	0.3297	0.076
Mof_C 	C 	0.0643	0.1963	0.1471	0.074
Mof_C 	C 	0.8969	0.7319	0.4033	-0.117
Mof_C 	C 	0.1187	0.3407	0.8409	0.061
Mof_C 	C 	0.5546	0.7116	0.0992	-0.022
Mof_C 	C 	0.3343	0.1543	0.7521	0.083
Mof_C 	C 	0.6251	0.1391	0.0937	-0.157
Mof_C 	C 	0.6339	0.1049	0.0733	-0.15
Mof_C 	C 	0.3934	0.6984	0.9168	-0.146
Mof_C 	C 	0.6521	0.0861	0.9977	-0.14
Mof_O 	O 	0.5321	0.9401	0.7557	-0.518
Mof_O 	O 	0.4079	0.5869	0.9513	-0.521
Mof_O 	O 	0.8184	0.6284	0.4318	-0.529
Mof_O 	O 	0.6169	0.0719	0.8733	-0.495
Mof_O 	O 	0.3428	0.9018	0.1276	-0.528
Mof_O 	O 	0.8446	0.1266	0.6282	-0.559
Mof_O 	O 	0.8863	0.5944	0.4114	-0.92
Mof_O 	O 	0.0653	0.7633	0.7341	-0.541
Mof_O 	O 	0.665	0.36	0.112	-0.539
Mof_O 	O 	0.0494	0.7454	0.7078	-0.569
Mof_O 	O 	0.1816	0.3716	0.5682	-0.529
Mof_O 	O 	0.3912	0.9066	0.0887	-0.986
Mof_O 	O 	0.1641	0.3531	0.9077	-0.531
Mof_O 	O 	0.8842	0.0612	0.6264	-0.517
Mof_O 	O 	0.0206	0.6816	0.7632	-0.505
Mof_O 	O 	0.9039	0.6449	0.4093	-0.533
Mof_O 	O 	0.2546	0.5026	0.2922	-0.569
Mof_O 	O 	0.1266	0.4006	0.6282	-0.559
Mof_O 	O 	0.4661	0.0111	0.7167	-0.532
Mof_O 	O 	0.4506	0.0036	0.7932	-0.51
Mof_O 	O 	0.6088	0.0934	0.9113	-0.986
Mof_O 	O 	0.6284	0.1214	0.4318	-0.529
Mof_O 	O 	0.3782	0.8732	0.0674	-0.54
Mof_O 	O 	0.9706	0.2886	0.2802	-0.578
Mof_O 	O 	0.137	0.335	0.888	-0.539
Mof_O 	O 	0.863	0.665	0.112	-0.539
Mof_O 	O 	0.1554	0.8734	0.3718	-0.559
Mof_O 	O 	0.6515	0.0305	0.9315	-0.519
Mof_O 	O 	0.2504	0.5091	0.2503	-1.015
Mof_O 	O 	0.4801	0.9641	0.7377	-0.503
Mof_O 	O 	0.3831	0.9281	0.1267	-0.495
Mof_O 	O 	0.8181	0.4801	0.7377	-0.503
Mof_O 	O 	0.5026	0.9506	0.2922	-0.569
Mof_O 	O 	0.36	0.863	0.112	-0.539
Mof_O 	O 	0.3351	0.9621	0.1027	-0.531
Mof_O 	O 	0.0098	0.7496	0.7497	-1.015
Mof_O 	O 	0.6449	0.0419	0.4093	-0.533
Mof_O 	O 	0.0379	0.3999	0.8973	-0.531
Mof_O 	O 	0.5994	0.1554	0.3718	-0.559
Mof_O 	O 	0.4502	0.9182	0.0664	-0.514
Mof_O 	O 	0.5199	0.0359	0.2623	-0.503
Mof_O 	O 	0.4131	0.9461	0.0487	-0.521
Mof_O 	O 	0.9334	0.0494	0.6108	-0.533
Mof_O 	O 	0.4679	0.0599	0.2443	-0.518
Mof_O 	O 	0.1148	0.4688	0.5686	-0.54
Mof_O 	O 	0.6135	0.3912	0.0887	-0.986
Mof_O 	O 	0.9063	0.5493	0.1111	-0.514
Mof_O 	O 	0.4373	0.0653	0.7341	-0.541
Mof_O 	O 	0.9643	0.3073	0.2161	-0.512
Mof_O 	O 	0.6135	0.3485	0.0685	-0.519
Mof_O 	O 	0.5974	0.4564	0.0908	-0.538
Mof_O 	O 	0.9683	0.7263	0.7461	-0.513
Mof_O 	O 	0.5494	0.9964	0.2068	-0.51
Mof_O 	O 	0.4348	0.5498	0.9336	-0.514
Mof_O 	O 	0.0497	0.9337	0.4339	-0.523
Mof_O 	O 	0.7526	0.4506	0.7932	-0.51
Mof_O 	O 	0.2125	0.5295	0.2185	-0.51
Mof_O 	O 	0.4056	0.8921	0.5886	-0.92
Mof_O 	O 	0.64	0.137	0.888	-0.539
Mof_O 	O 	0.5666	0.9376	0.2332	-0.556
Mof_O 	O 	0.3188	0.6218	0.9326	-0.54
Mof_O 	O 	0.1636	0.3616	0.6132	-0.549
Mof_O 	O 	0.9068	0.5538	0.4516	-0.526
Mof_O 	O 	0.4173	0.9503	0.5661	-0.523
Mof_O 	O 	0.3865	0.6515	0.9315	-0.519
Mof_O 	O 	0.0494	0.4064	0.6108	-0.533
Mof_O 	O 	0.3744	0.9194	0.0488	-0.553
Mof_O 	O 	0.0305	0.3865	0.9315	-0.519
Mof_O 	O 	0.7875	0.4705	0.7815	-0.51
Mof_O 	O 	0.4334	0.0624	0.7668	-0.556
Mof_O 	O 	0.4688	0.8478	0.5686	-0.54
Mof_O 	O 	0.9066	0.6135	0.0887	-0.986
Mof_O 	O 	0.0395	0.2125	0.2185	-0.51
Mof_O 	O 	0.2474	0.5494	0.2068	-0.51
Mof_O 	O 	0.3722	0.6572	0.8724	-0.528
Mof_O 	O 	0.581	0.126	0.451	-0.547
Mof_O 	O 	0.1014	0.4614	0.6028	-0.563
Mof_O 	O 	0.9337	0.5827	0.4339	-0.523
Mof_O 	O 	0.0934	0.3865	0.9113	-0.986
Mof_O 	O 	0.4064	0.9334	0.6108	-0.533
Mof_O 	O 	0.6256	0.0806	0.9512	-0.553
Mof_O 	O 	0.1522	0.8852	0.4314	-0.54
Mof_O 	O 	0.5827	0.0497	0.4339	-0.523
Mof_O 	O 	0.0612	0.4282	0.6264	-0.517
Mof_O 	O 	0.9605	0.7875	0.7815	-0.51
Mof_O 	O 	0.9695	0.6135	0.0685	-0.519
Mof_O 	O 	0.0539	0.4079	0.9513	-0.521
Mof_O 	O 	0.3999	0.6649	0.8973	-0.531
Mof_O 	O 	0.5593	0.9683	0.7461	-0.513
Mof_O 	O 	0.4909	0.0098	0.7497	-1.015
Mof_O 	O 	0.8061	0.4661	0.7167	-0.532
Mof_O 	O 	0.9503	0.0663	0.5661	-0.523
Mof_O 	O 	0.5627	0.9347	0.2659	-0.541
Mof_O 	O 	0.0878	0.9068	0.4516	-0.526
Mof_O 	O 	0.5667	0.0937	0.8889	-0.514
Mof_O 	O 	0.7496	0.4909	0.7497	-1.015
Mof_O 	O 	0.5652	0.4502	0.0664	-0.514
Mof_O 	O 	0.8852	0.5312	0.4314	-0.54
Mof_O 	O 	0.4606	0.9706	0.2802	-0.578
Mof_O 	O 	0.4006	0.8446	0.6282	-0.559
Mof_O 	O 	0.1819	0.5199	0.2623	-0.503
Mof_O 	O 	0.5312	0.1522	0.4314	-0.54
Mof_O 	O 	0.5944	0.1079	0.4114	-0.92
Mof_O 	O 	0.9256	0.1466	0.5922	-0.528
Mof_O 	O 	0.9506	0.2546	0.2922	-0.569
Mof_O 	O 	0.4564	0.8554	0.0908	-0.538
Mof_O 	O 	0.0036	0.7526	0.7932	-0.51
Mof_O 	O 	0.8986	0.5386	0.3972	-0.563
Mof_O 	O 	0.4877	0.0357	0.7839	-0.512
Mof_O 	O 	0.0111	0.8061	0.7167	-0.532
Mof_O 	O 	0.1079	0.8863	0.4114	-0.92
Mof_O 	O 	0.9182	0.5652	0.0664	-0.514
Mof_O 	O 	0.6927	0.4877	0.7839	-0.512
Mof_O 	O 	0.0357	0.6927	0.7839	-0.512
Mof_O 	O 	0.8786	0.1816	0.5682	-0.529
Mof_O 	O 	0.5936	0.0666	0.3892	-0.533
Mof_O 	O 	0.8478	0.1148	0.5686	-0.54
Mof_O 	O 	0.8734	0.5994	0.3718	-0.559
Mof_O 	O 	0.0666	0.9506	0.3892	-0.533
Mof_O 	O 	0.4654	0.9794	0.2368	-0.505
Mof_O 	O 	0.8921	0.1137	0.5886	-0.92
Mof_O 	O 	0.2737	0.4407	0.2539	-0.513
Mof_O 	O 	0.6812	0.3782	0.0674	-0.54
Mof_O 	O 	0.1158	0.9388	0.3736	-0.517
Mof_O 	O 	0.4249	0.8359	0.0923	-0.531
Mof_O 	O 	0.4379	0.6169	0.8733	-0.495
Mof_O 	O 	0.0961	0.3551	0.5907	-0.533
Mof_O 	O 	0.1446	0.4026	0.9092	-0.538
Mof_O 	O 	0.3616	0.8616	0.6132	-0.549
Mof_O 	O 	0.158	0.419	0.549	-0.547
Mof_O 	O 	0.9018	0.6278	0.1276	-0.528
Mof_O 	O 	0.0818	0.4348	0.9336	-0.514
Mof_O 	O 	0.0982	0.3722	0.8724	-0.528
Mof_O 	O 	0.5921	0.4131	0.0487	-0.521
Mof_O 	O 	0.6816	0.5346	0.7632	-0.505
Mof_O 	O 	0.3426	0.6256	0.9512	-0.553
Mof_O 	O 	0.4614	0.8344	0.6028	-0.563
Mof_O 	O 	0.6574	0.3744	0.0488	-0.553
Mof_O 	O 	0.1268	0.3188	0.9326	-0.54
Mof_O 	O 	0.5339	0.9889	0.2833	-0.532
Mof_O 	O 	0.0663	0.4173	0.5661	-0.523
Mof_O 	O 	0.4026	0.5436	0.9092	-0.538
Mof_O 	O 	0.5123	0.9643	0.2161	-0.512
Mof_O 	O 	0.6278	0.3428	0.1276	-0.528
Mof_O 	O 	0.3716	0.8786	0.5682	-0.529
Mof_O 	O 	0.3073	0.5123	0.2161	-0.512
Mof_O 	O 	0.7454	0.4974	0.7078	-0.569
Mof_O 	O 	0.0744	0.8534	0.4078	-0.528
Mof_O 	O 	0.7114	0.5394	0.7198	-0.578
Mof_O 	O 	0.5718	0.1158	0.3736	-0.517
Mof_O 	O 	0.0719	0.4379	0.8733	-0.495
Mof_O 	O 	0.3865	0.6088	0.9113	-0.986
Mof_O 	O 	0.7374	0.4334	0.7668	-0.556
Mof_O 	O 	0.3551	0.9581	0.5907	-0.533
Mof_O 	O 	0.9388	0.5718	0.3736	-0.517
Mof_O 	O 	0.2886	0.4606	0.2802	-0.578
Mof_O 	O 	0.1466	0.3356	0.5922	-0.528
Mof_O 	O 	0.1384	0.8364	0.3868	-0.549
Mof_O 	O 	0.6218	0.1268	0.9326	-0.54
Mof_O 	O 	0.126	0.842	0.451	-0.547
Mof_O 	O 	0.6649	0.0379	0.8973	-0.531
Mof_O 	O 	0.8616	0.1636	0.6132	-0.549
Mof_O 	O 	0.4333	0.9063	0.1111	-0.514
Mof_O 	O 	0.5436	0.1446	0.9092	-0.538
Mof_O 	O 	0.9641	0.8181	0.7377	-0.503
Mof_O 	O 	0.8732	0.6812	0.0674	-0.54
Mof_O 	O 	0.3356	0.9256	0.5922	-0.528
Mof_O 	O 	0.5386	0.1656	0.3972	-0.563
Mof_O 	O 	0.3531	0.5751	0.9077	-0.531
Mof_O 	O 	0.5869	0.0539	0.9513	-0.521
Mof_O 	O 	0.6384	0.1384	0.3868	-0.549
Mof_O 	O 	0.9621	0.6001	0.1027	-0.531
Mof_O 	O 	0.9889	0.1939	0.2833	-0.532
Mof_O 	O 	0.0359	0.1819	0.2623	-0.503
Mof_O 	O 	0.0317	0.2737	0.2539	-0.513
Mof_O 	O 	0.1137	0.4056	0.5886	-0.92
Mof_O 	O 	0.4705	0.9605	0.7815	-0.51
Mof_O 	O 	0.9506	0.5936	0.3892	-0.533
Mof_O 	O 	0.3184	0.4654	0.2368	-0.505
Mof_O 	O 	0.9581	0.0961	0.5907	-0.533
Mof_O 	O 	0.6001	0.3351	0.1027	-0.531
Mof_O 	O 	0.1214	0.8184	0.4318	-0.529
Mof_O 	O 	0.0419	0.9039	0.4093	-0.533
Mof_O 	O 	0.2279	0.4679	0.2443	-0.518
Mof_O 	O 	0.335	0.64	0.888	-0.539
Mof_O 	O 	0.0294	0.7114	0.7198	-0.578
Mof_O 	O 	0.4507	0.5667	0.8889	-0.514
Mof_O 	O 	0.6572	0.0982	0.8724	-0.528
Mof_O 	O 	0.4974	0.0494	0.7078	-0.569
Mof_O 	O 	0.9461	0.5921	0.0487	-0.521
Mof_O 	O 	0.4407	0.0317	0.2539	-0.513
Mof_O 	O 	0.8359	0.6469	0.0923	-0.531
Mof_O 	O 	0.9902	0.2504	0.2503	-1.015
Mof_O 	O 	0.0937	0.4507	0.8889	-0.514
Mof_O 	O 	0.9794	0.3184	0.2368	-0.505
Mof_O 	O 	0.9401	0.7721	0.7557	-0.518
Mof_O 	O 	0.5621	0.3831	0.1267	-0.495
Mof_O 	O 	0.9376	0.2626	0.2332	-0.556
Mof_O 	O 	0.874	0.158	0.549	-0.547
Mof_O 	O 	0.9281	0.5621	0.1267	-0.495
Mof_O 	O 	0.419	0.874	0.549	-0.547
Mof_O 	O 	0.2367	0.5627	0.2659	-0.541
Mof_O 	O 	0.4282	0.8842	0.6264	-0.517
Mof_O 	O 	0.9122	0.0932	0.5484	-0.526
Mof_O 	O 	0.8554	0.5974	0.0908	-0.538
Mof_O 	O 	0.5538	0.0878	0.4516	-0.526
Mof_O 	O 	0.2626	0.5666	0.2332	-0.556
Mof_O 	O 	0.5493	0.4333	0.1111	-0.514
Mof_O 	O 	0.0599	0.2279	0.2443	-0.518
Mof_O 	O 	0.5091	0.9902	0.2503	-1.015
Mof_O 	O 	0.3485	0.9695	0.0685	-0.519
Mof_O 	O 	0.5346	0.0206	0.7632	-0.505
Mof_O 	O 	0.0932	0.4462	0.5484	-0.526
Mof_O 	O 	0.0624	0.7374	0.7668	-0.556
Mof_O 	O 	0.5295	0.0395	0.2185	-0.51
Mof_O 	O 	0.9194	0.6574	0.0488	-0.553
Mof_O 	O 	0.5498	0.0818	0.9336	-0.514
Mof_O 	O 	0.6469	0.4249	0.0923	-0.531
Mof_O 	O 	0.1656	0.8986	0.3972	-0.563
Mof_O 	O 	0.8364	0.6384	0.3868	-0.549
Mof_O 	O 	0.6644	0.0744	0.4078	-0.528
Mof_O 	O 	0.9964	0.2474	0.2068	-0.51
Mof_O 	O 	0.9347	0.2367	0.2659	-0.541
Mof_O 	O 	0.7263	0.5593	0.7461	-0.513
Mof_O 	O 	0.0806	0.3426	0.9512	-0.553
Mof_O 	O 	0.1939	0.5339	0.2833	-0.532
Mof_O 	O 	0.7633	0.4373	0.7341	-0.541
Mof_O 	O 	0.842	0.581	0.451	-0.547
Mof_O 	O 	0.5394	0.0294	0.7198	-0.578
Mof_O 	O 	0.8344	0.1014	0.6028	-0.563
Mof_O 	O 	0.7721	0.5321	0.7557	-0.518
Mof_O 	O 	0.8534	0.6644	0.4078	-0.528
Mof_O 	O 	0.5751	0.1641	0.9077	-0.531
Mof_O 	O 	0.4462	0.9122	0.5484	-0.526
_end
