data_functionalizedCrystal
_audit_creation_method	'EQeq! by Chris Wilmer'
_symmetry_space_group_name_H-M	'P1'
_symmetry_Int_Tables_number	1
_symmetry_cell_setting	triclinic
loop_
_symmetry_equiv_pos_as_xyz
  x,y,z
_cell_length_a	18.3308
_cell_length_b	22.5675
_cell_length_c	31.7435
_cell_angle_alpha	90
_cell_angle_beta	90
_cell_angle_gamma	90
loop_
_atom_site_label
_atom_site_type_symbol
_atom_site_fract_x
_atom_site_fract_y
_atom_site_fract_z
_atom_site_charge
Mof_N 	N 	0.37271	0.94306	0.32653	-0.262
Mof_O 	O 	0.52045	0.09091	0.21425	-0.212
Mof_O 	O 	0.31438	0.18017	0.26254	-0.224
Mof_N 	N 	0.4074	0.12337	0.23591	-0.137
Mof_C 	C 	0.3171	0.02668	0.29403	-0.232
Mof_H 	H 	0.2807	0.0554	0.2947	0.125
Mof_C 	C 	0.3214	0.98539	0.3255	0.136
Mof_H 	H 	0.2873	0.9868	0.3471	-0.025
Mof_C 	C 	0.4994	0.19186	0.23831	-0.025
Mof_C 	C 	0.3664	0.02589	0.2613	0.202
Mof_C 	C 	0.4816	0.1297	0.22738	0.202
Mof_C 	C 	0.3649	0.0704	0.22606	-0.174
Mof_H 	H 	0.3147	0.0817	0.2205	0.094
Mof_H 	H 	0.3842	0.0522	0.2007	0.099
Mof_C 	C 	0.4364	0.21969	0.25243	-0.025
Mof_C 	C 	0.4199	0.94257	0.29503	0.15
Mof_H 	H 	0.4558	0.9135	0.2949	-0.025
Mof_C 	C 	0.4188	0.9825	0.26245	-0.242
Mof_H 	H 	0.4536	0.9802	0.2412	0.148
Mof_C 	C 	0.5657	0.22182	0.23532	-0.029
Mof_H 	H 	0.6082	0.2037	0.2258	0.08
Mof_C 	C 	0.3774	0.17482	0.25144	0.202
Mof_S 	S 	0.11668	0.8469	0.36694	-0.017
Mof_N 	N 	0.37271	0.44306	0.82653	-0.263
Mof_O 	O 	0.52045	0.59091	0.71425	-0.213
Mof_O 	O 	0.31438	0.68017	0.76254	-0.225
Mof_N 	N 	0.4074	0.62337	0.73591	-0.138
Mof_C 	C 	0.3171	0.52668	0.79403	-0.234
Mof_H 	H 	0.2807	0.5554	0.7947	0.124
Mof_C 	C 	0.3214	0.48539	0.8255	0.135
Mof_H 	H 	0.2873	0.4868	0.8471	-0.026
Mof_C 	C 	0.4994	0.69186	0.73831	-0.026
Mof_C 	C 	0.3664	0.52589	0.7613	0.201
Mof_C 	C 	0.4816	0.6297	0.72738	0.202
Mof_C 	C 	0.3649	0.5704	0.72606	-0.174
Mof_H 	H 	0.3147	0.5817	0.7205	0.094
Mof_H 	H 	0.3842	0.5522	0.7007	0.099
Mof_C 	C 	0.4364	0.71969	0.75243	-0.025
Mof_C 	C 	0.4199	0.44257	0.79503	0.149
Mof_H 	H 	0.4558	0.4135	0.7949	-0.025
Mof_C 	C 	0.4188	0.4825	0.76245	-0.242
Mof_H 	H 	0.4536	0.4802	0.7412	0.148
Mof_C 	C 	0.5657	0.72182	0.73532	-0.029
Mof_H 	H 	0.6082	0.7037	0.7258	0.08
Mof_C 	C 	0.3774	0.67482	0.75144	0.202
Mof_S 	S 	0.11668	0.3469	0.86694	-0.017
Mof_N 	N 	0.87271	0.94306	0.82653	-0.263
Mof_O 	O 	0.02045	0.09091	0.71425	-0.213
Mof_O 	O 	0.81438	0.18017	0.76254	-0.225
Mof_N 	N 	0.9074	0.12337	0.73591	-0.138
Mof_C 	C 	0.8171	0.02668	0.79403	-0.234
Mof_H 	H 	0.7807	0.0554	0.7947	0.124
Mof_C 	C 	0.8214	0.98539	0.8255	0.136
Mof_H 	H 	0.7873	0.9868	0.8471	-0.026
Mof_C 	C 	0.9994	0.19186	0.73831	-0.026
Mof_C 	C 	0.8664	0.02589	0.7613	0.2
Mof_C 	C 	0.9816	0.1297	0.72738	0.202
Mof_C 	C 	0.8649	0.0704	0.72606	-0.174
Mof_H 	H 	0.8147	0.0817	0.7205	0.094
Mof_H 	H 	0.8842	0.0522	0.7007	0.099
Mof_C 	C 	0.9364	0.21969	0.75243	-0.025
Mof_C 	C 	0.9199	0.94257	0.79503	0.149
Mof_H 	H 	0.9558	0.9135	0.7949	-0.025
Mof_C 	C 	0.9188	0.9825	0.76245	-0.241
Mof_H 	H 	0.9536	0.9802	0.7412	0.148
Mof_C 	C 	0.0657	0.22182	0.73532	-0.029
Mof_H 	H 	0.1082	0.2037	0.7258	0.079
Mof_C 	C 	0.8774	0.17482	0.75144	0.202
Mof_S 	S 	0.61668	0.8469	0.86694	-0.017
Mof_N 	N 	0.87271	0.44306	0.32653	-0.263
Mof_O 	O 	0.02045	0.59091	0.21425	-0.213
Mof_O 	O 	0.81438	0.68017	0.26254	-0.225
Mof_N 	N 	0.9074	0.62337	0.23591	-0.138
Mof_C 	C 	0.8171	0.52668	0.29403	-0.234
Mof_H 	H 	0.7807	0.5554	0.2947	0.124
Mof_C 	C 	0.8214	0.48539	0.3255	0.135
Mof_H 	H 	0.7873	0.4868	0.3471	-0.026
Mof_C 	C 	0.9994	0.69186	0.23831	-0.026
Mof_C 	C 	0.8664	0.52589	0.2613	0.201
Mof_C 	C 	0.9816	0.6297	0.22738	0.202
Mof_C 	C 	0.8649	0.5704	0.22606	-0.174
Mof_H 	H 	0.8147	0.5817	0.2205	0.094
Mof_H 	H 	0.8842	0.5522	0.2007	0.099
Mof_C 	C 	0.9364	0.71969	0.25243	-0.025
Mof_C 	C 	0.9199	0.44257	0.29503	0.149
Mof_H 	H 	0.9558	0.4135	0.2949	-0.025
Mof_C 	C 	0.9188	0.4825	0.26245	-0.242
Mof_H 	H 	0.9536	0.4802	0.2412	0.148
Mof_C 	C 	0.0657	0.72182	0.23532	-0.029
Mof_H 	H 	0.1082	0.7037	0.2258	0.08
Mof_C 	C 	0.8774	0.67482	0.25144	0.202
Mof_S 	S 	0.61668	0.3469	0.36694	-0.017
Mof_N 	N 	0.37729	0.80694	0.32653	-0.263
Mof_O 	O 	0.22955	0.65909	0.21425	-0.213
Mof_O 	O 	0.43562	0.56983	0.26254	-0.225
Mof_N 	N 	0.3426	0.62663	0.23591	-0.138
Mof_C 	C 	0.4329	0.72332	0.29403	-0.234
Mof_H 	H 	0.4693	0.6946	0.2947	0.124
Mof_C 	C 	0.4286	0.76461	0.3255	0.135
Mof_H 	H 	0.4627	0.7632	0.3471	-0.026
Mof_C 	C 	0.2506	0.55814	0.23831	-0.026
Mof_C 	C 	0.3836	0.72411	0.2613	0.201
Mof_C 	C 	0.2684	0.6203	0.22738	0.202
Mof_C 	C 	0.3851	0.6796	0.22606	-0.174
Mof_H 	H 	0.4353	0.6683	0.2205	0.094
Mof_H 	H 	0.3658	0.6978	0.2007	0.099
Mof_C 	C 	0.3136	0.53031	0.25243	-0.025
Mof_C 	C 	0.3301	0.80743	0.29503	0.149
Mof_H 	H 	0.2942	0.8365	0.2949	-0.025
Mof_C 	C 	0.3312	0.7675	0.26245	-0.242
Mof_H 	H 	0.2964	0.7698	0.2412	0.148
Mof_C 	C 	0.1843	0.52818	0.23532	-0.029
Mof_H 	H 	0.1418	0.5463	0.2258	0.08
Mof_C 	C 	0.3726	0.57518	0.25144	0.202
Mof_S 	S 	0.63332	0.9031	0.36694	-0.017
Mof_N 	N 	0.37729	0.30694	0.82653	-0.263
Mof_O 	O 	0.22955	0.15909	0.71425	-0.213
Mof_O 	O 	0.43562	0.06983	0.76254	-0.225
Mof_N 	N 	0.3426	0.12663	0.73591	-0.138
Mof_C 	C 	0.4329	0.22332	0.79403	-0.234
Mof_H 	H 	0.4693	0.1946	0.7947	0.124
Mof_C 	C 	0.4286	0.26461	0.8255	0.135
Mof_H 	H 	0.4627	0.2632	0.8471	-0.026
Mof_C 	C 	0.2506	0.05814	0.73831	-0.026
Mof_C 	C 	0.3836	0.22411	0.7613	0.201
Mof_C 	C 	0.2684	0.1203	0.72738	0.202
Mof_C 	C 	0.3851	0.1796	0.72606	-0.174
Mof_H 	H 	0.4353	0.1683	0.7205	0.094
Mof_H 	H 	0.3658	0.1978	0.7007	0.099
Mof_C 	C 	0.3136	0.03031	0.75243	-0.025
Mof_C 	C 	0.3301	0.30743	0.79503	0.149
Mof_H 	H 	0.2942	0.3365	0.7949	-0.025
Mof_C 	C 	0.3312	0.2675	0.76245	-0.242
Mof_H 	H 	0.2964	0.2698	0.7412	0.148
Mof_C 	C 	0.1843	0.02818	0.73532	-0.028
Mof_H 	H 	0.1418	0.0463	0.7258	0.079
Mof_C 	C 	0.3726	0.07518	0.75144	0.202
Mof_S 	S 	0.63332	0.4031	0.86694	-0.017
Mof_N 	N 	0.87729	0.80694	0.82653	-0.263
Mof_O 	O 	0.72955	0.65909	0.71425	-0.213
Mof_O 	O 	0.93562	0.56983	0.76254	-0.225
Mof_N 	N 	0.8426	0.62663	0.73591	-0.138
Mof_C 	C 	0.9329	0.72332	0.79403	-0.234
Mof_H 	H 	0.9693	0.6946	0.7947	0.124
Mof_C 	C 	0.9286	0.76461	0.8255	0.135
Mof_H 	H 	0.9627	0.7632	0.8471	-0.026
Mof_C 	C 	0.7506	0.55814	0.73831	-0.026
Mof_C 	C 	0.8836	0.72411	0.7613	0.201
Mof_C 	C 	0.7684	0.6203	0.72738	0.202
Mof_C 	C 	0.8851	0.6796	0.72606	-0.174
Mof_H 	H 	0.9353	0.6683	0.7205	0.094
Mof_H 	H 	0.8658	0.6978	0.7007	0.099
Mof_C 	C 	0.8136	0.53031	0.75243	-0.025
Mof_C 	C 	0.8301	0.80743	0.79503	0.149
Mof_H 	H 	0.7942	0.8365	0.7949	-0.025
Mof_C 	C 	0.8312	0.7675	0.76245	-0.242
Mof_H 	H 	0.7964	0.7698	0.7412	0.148
Mof_C 	C 	0.6843	0.52818	0.73532	-0.029
Mof_H 	H 	0.6418	0.5463	0.7258	0.08
Mof_C 	C 	0.8726	0.57518	0.75144	0.202
Mof_S 	S 	0.13332	0.9031	0.86694	-0.017
Mof_N 	N 	0.87729	0.30694	0.32653	-0.263
Mof_O 	O 	0.72955	0.15909	0.21425	-0.213
Mof_O 	O 	0.93562	0.06983	0.26254	-0.225
Mof_N 	N 	0.8426	0.12663	0.23591	-0.138
Mof_C 	C 	0.9329	0.22332	0.29403	-0.234
Mof_H 	H 	0.9693	0.1946	0.2947	0.124
Mof_C 	C 	0.9286	0.26461	0.3255	0.135
Mof_H 	H 	0.9627	0.2632	0.3471	-0.026
Mof_C 	C 	0.7506	0.05814	0.23831	-0.026
Mof_C 	C 	0.8836	0.22411	0.2613	0.201
Mof_C 	C 	0.7684	0.1203	0.22738	0.202
Mof_C 	C 	0.8851	0.1796	0.22606	-0.174
Mof_H 	H 	0.9353	0.1683	0.2205	0.094
Mof_H 	H 	0.8658	0.1978	0.2007	0.099
Mof_C 	C 	0.8136	0.03031	0.25243	-0.026
Mof_C 	C 	0.8301	0.30743	0.29503	0.149
Mof_H 	H 	0.7942	0.3365	0.2949	-0.025
Mof_C 	C 	0.8312	0.2675	0.26245	-0.242
Mof_H 	H 	0.7964	0.2698	0.2412	0.148
Mof_C 	C 	0.6843	0.02818	0.23532	-0.029
Mof_H 	H 	0.6418	0.0463	0.2258	0.08
Mof_C 	C 	0.8726	0.07518	0.25144	0.202
Mof_S 	S 	0.13332	0.4031	0.36694	-0.017
Mof_N 	N 	0.37729	0.94306	0.42347	-0.263
Mof_O 	O 	0.22955	0.09091	0.53575	-0.213
Mof_O 	O 	0.43562	0.18017	0.48746	-0.225
Mof_N 	N 	0.3426	0.12337	0.51409	-0.138
Mof_C 	C 	0.4329	0.02668	0.45597	-0.234
Mof_H 	H 	0.4693	0.0554	0.4553	0.124
Mof_C 	C 	0.4286	0.98539	0.4245	0.135
Mof_H 	H 	0.4627	0.9868	0.4029	-0.026
Mof_C 	C 	0.2506	0.19186	0.51169	-0.026
Mof_C 	C 	0.3836	0.02589	0.4887	0.201
Mof_C 	C 	0.2684	0.1297	0.52262	0.202
Mof_C 	C 	0.3851	0.0704	0.52394	-0.174
Mof_H 	H 	0.4353	0.0817	0.5295	0.094
Mof_H 	H 	0.3658	0.0522	0.5493	0.099
Mof_C 	C 	0.3136	0.21969	0.49757	-0.025
Mof_C 	C 	0.3301	0.94257	0.45497	0.149
Mof_H 	H 	0.2942	0.9135	0.4551	-0.025
Mof_C 	C 	0.3312	0.9825	0.48755	-0.242
Mof_H 	H 	0.2964	0.9802	0.5088	0.148
Mof_C 	C 	0.1843	0.22182	0.51468	-0.029
Mof_H 	H 	0.1418	0.2037	0.5242	0.08
Mof_C 	C 	0.3726	0.17482	0.49856	0.202
Mof_S 	S 	0.63332	0.8469	0.38306	-0.017
Mof_N 	N 	0.37729	0.44306	0.92347	-0.263
Mof_O 	O 	0.22955	0.59091	0.03575	-0.213
Mof_O 	O 	0.43562	0.68017	0.98746	-0.225
Mof_N 	N 	0.3426	0.62337	0.01409	-0.138
Mof_C 	C 	0.4329	0.52668	0.95597	-0.234
Mof_H 	H 	0.4693	0.5554	0.9553	0.124
Mof_C 	C 	0.4286	0.48539	0.9245	0.135
Mof_H 	H 	0.4627	0.4868	0.9029	-0.026
Mof_C 	C 	0.2506	0.69186	0.01169	-0.026
Mof_C 	C 	0.3836	0.52589	0.9887	0.201
Mof_C 	C 	0.2684	0.6297	0.02262	0.202
Mof_C 	C 	0.3851	0.5704	0.02394	-0.174
Mof_H 	H 	0.4353	0.5817	0.0295	0.094
Mof_H 	H 	0.3658	0.5522	0.0493	0.099
Mof_C 	C 	0.3136	0.71969	0.99757	-0.026
Mof_C 	C 	0.3301	0.44257	0.95497	0.15
Mof_H 	H 	0.2942	0.4135	0.9551	-0.025
Mof_C 	C 	0.3312	0.4825	0.98755	-0.243
Mof_H 	H 	0.2964	0.4802	0.0088	0.148
Mof_C 	C 	0.1843	0.72182	0.01468	-0.029
Mof_H 	H 	0.1418	0.7037	0.0242	0.08
Mof_C 	C 	0.3726	0.67482	0.99856	0.202
Mof_S 	S 	0.63332	0.3469	0.88306	-0.017
Mof_N 	N 	0.87729	0.94306	0.92347	-0.263
Mof_O 	O 	0.72955	0.09091	0.03575	-0.213
Mof_O 	O 	0.93562	0.18017	0.98746	-0.225
Mof_N 	N 	0.8426	0.12337	0.01409	-0.139
Mof_C 	C 	0.9329	0.02668	0.95597	-0.234
Mof_H 	H 	0.9693	0.0554	0.9553	0.124
Mof_C 	C 	0.9286	0.98539	0.9245	0.136
Mof_H 	H 	0.9627	0.9868	0.9029	-0.026
Mof_C 	C 	0.7506	0.19186	0.01169	-0.026
Mof_C 	C 	0.8836	0.02589	0.9887	0.2
Mof_C 	C 	0.7684	0.1297	0.02262	0.202
Mof_C 	C 	0.8851	0.0704	0.02394	-0.174
Mof_H 	H 	0.9353	0.0817	0.0295	0.094
Mof_H 	H 	0.8658	0.0522	0.0493	0.099
Mof_C 	C 	0.8136	0.21969	0.99757	-0.025
Mof_C 	C 	0.8301	0.94257	0.95497	0.148
Mof_H 	H 	0.7942	0.9135	0.9551	-0.025
Mof_C 	C 	0.8312	0.9825	0.98755	-0.24
Mof_H 	H 	0.7964	0.9802	0.0088	0.147
Mof_C 	C 	0.6843	0.22182	0.01468	-0.029
Mof_H 	H 	0.6418	0.2037	0.0242	0.079
Mof_C 	C 	0.8726	0.17482	0.99856	0.202
Mof_S 	S 	0.13332	0.8469	0.88306	-0.017
Mof_N 	N 	0.87729	0.44306	0.42347	-0.263
Mof_O 	O 	0.72955	0.59091	0.53575	-0.213
Mof_O 	O 	0.93562	0.68017	0.48746	-0.225
Mof_N 	N 	0.8426	0.62337	0.51409	-0.138
Mof_C 	C 	0.9329	0.52668	0.45597	-0.234
Mof_H 	H 	0.9693	0.5554	0.4553	0.124
Mof_C 	C 	0.9286	0.48539	0.4245	0.135
Mof_H 	H 	0.9627	0.4868	0.4029	-0.026
Mof_C 	C 	0.7506	0.69186	0.51169	-0.026
Mof_C 	C 	0.8836	0.52589	0.4887	0.201
Mof_C 	C 	0.7684	0.6297	0.52262	0.202
Mof_C 	C 	0.8851	0.5704	0.52394	-0.174
Mof_H 	H 	0.9353	0.5817	0.5295	0.094
Mof_H 	H 	0.8658	0.5522	0.5493	0.099
Mof_C 	C 	0.8136	0.71969	0.49757	-0.025
Mof_C 	C 	0.8301	0.44257	0.45497	0.149
Mof_H 	H 	0.7942	0.4135	0.4551	-0.025
Mof_C 	C 	0.8312	0.4825	0.48755	-0.242
Mof_H 	H 	0.7964	0.4802	0.5088	0.148
Mof_C 	C 	0.6843	0.72182	0.51468	-0.029
Mof_H 	H 	0.6418	0.7037	0.5242	0.08
Mof_C 	C 	0.8726	0.67482	0.49856	0.202
Mof_S 	S 	0.13332	0.3469	0.38306	-0.017
Mof_N 	N 	0.37271	0.80694	0.42347	-0.263
Mof_O 	O 	0.52045	0.65909	0.53575	-0.213
Mof_O 	O 	0.31438	0.56983	0.48746	-0.225
Mof_N 	N 	0.4074	0.62663	0.51409	-0.138
Mof_C 	C 	0.3171	0.72332	0.45597	-0.234
Mof_H 	H 	0.2807	0.6946	0.4553	0.124
Mof_C 	C 	0.3214	0.76461	0.4245	0.135
Mof_H 	H 	0.2873	0.7632	0.4029	-0.026
Mof_C 	C 	0.4994	0.55814	0.51169	-0.026
Mof_C 	C 	0.3664	0.72411	0.4887	0.201
Mof_C 	C 	0.4816	0.6203	0.52262	0.202
Mof_C 	C 	0.3649	0.6796	0.52394	-0.174
Mof_H 	H 	0.3147	0.6683	0.5295	0.094
Mof_H 	H 	0.3842	0.6978	0.5493	0.099
Mof_C 	C 	0.4364	0.53031	0.49757	-0.025
Mof_C 	C 	0.4199	0.80743	0.45497	0.149
Mof_H 	H 	0.4558	0.8365	0.4551	-0.025
Mof_C 	C 	0.4188	0.7675	0.48755	-0.242
Mof_H 	H 	0.4536	0.7698	0.5088	0.148
Mof_C 	C 	0.5657	0.52818	0.51468	-0.029
Mof_H 	H 	0.6082	0.5463	0.5242	0.08
Mof_C 	C 	0.3774	0.57518	0.49856	0.202
Mof_S 	S 	0.11668	0.9031	0.38306	-0.017
Mof_N 	N 	0.37271	0.30694	0.92347	-0.263
Mof_O 	O 	0.52045	0.15909	0.03575	-0.213
Mof_O 	O 	0.31438	0.06983	0.98746	-0.225
Mof_N 	N 	0.4074	0.12663	0.01409	-0.138
Mof_C 	C 	0.3171	0.22332	0.95597	-0.234
Mof_H 	H 	0.2807	0.1946	0.9553	0.124
Mof_C 	C 	0.3214	0.26461	0.9245	0.135
Mof_H 	H 	0.2873	0.2632	0.9029	-0.026
Mof_C 	C 	0.4994	0.05814	0.01169	-0.026
Mof_C 	C 	0.3664	0.22411	0.9887	0.201
Mof_C 	C 	0.4816	0.1203	0.02262	0.202
Mof_C 	C 	0.3649	0.1796	0.02394	-0.174
Mof_H 	H 	0.3147	0.1683	0.0295	0.094
Mof_H 	H 	0.3842	0.1978	0.0493	0.099
Mof_C 	C 	0.4364	0.03031	0.99757	-0.026
Mof_C 	C 	0.4199	0.30743	0.95497	0.149
Mof_H 	H 	0.4558	0.3365	0.9551	-0.025
Mof_C 	C 	0.4188	0.2675	0.98755	-0.242
Mof_H 	H 	0.4536	0.2698	0.0088	0.148
Mof_C 	C 	0.5657	0.02818	0.01468	-0.028
Mof_H 	H 	0.6082	0.0463	0.0242	0.079
Mof_C 	C 	0.3774	0.07518	0.99856	0.202
Mof_S 	S 	0.11668	0.4031	0.88306	-0.017
Mof_N 	N 	0.87271	0.80694	0.92347	-0.263
Mof_O 	O 	0.02045	0.65909	0.03575	-0.213
Mof_O 	O 	0.81438	0.56983	0.98746	-0.225
Mof_N 	N 	0.9074	0.62663	0.01409	-0.139
Mof_C 	C 	0.8171	0.72332	0.95597	-0.234
Mof_H 	H 	0.7807	0.6946	0.9553	0.124
Mof_C 	C 	0.8214	0.76461	0.9245	0.135
Mof_H 	H 	0.7873	0.7632	0.9029	-0.026
Mof_C 	C 	0.9994	0.55814	0.01169	-0.027
Mof_C 	C 	0.8664	0.72411	0.9887	0.201
Mof_C 	C 	0.9816	0.6203	0.02262	0.202
Mof_C 	C 	0.8649	0.6796	0.02394	-0.175
Mof_H 	H 	0.8147	0.6683	0.0295	0.094
Mof_H 	H 	0.8842	0.6978	0.0493	0.099
Mof_C 	C 	0.9364	0.53031	0.99757	-0.025
Mof_C 	C 	0.9199	0.80743	0.95497	0.149
Mof_H 	H 	0.9558	0.8365	0.9551	-0.025
Mof_C 	C 	0.9188	0.7675	0.98755	-0.241
Mof_H 	H 	0.9536	0.7698	0.0088	0.148
Mof_C 	C 	0.0657	0.52818	0.01468	-0.028
Mof_H 	H 	0.1082	0.5463	0.0242	0.079
Mof_C 	C 	0.8774	0.57518	0.99856	0.202
Mof_S 	S 	0.61668	0.9031	0.88306	-0.017
Mof_N 	N 	0.87271	0.30694	0.42347	-0.263
Mof_O 	O 	0.02045	0.15909	0.53575	-0.213
Mof_O 	O 	0.81438	0.06983	0.48746	-0.225
Mof_N 	N 	0.9074	0.12663	0.51409	-0.138
Mof_C 	C 	0.8171	0.22332	0.45597	-0.234
Mof_H 	H 	0.7807	0.1946	0.4553	0.124
Mof_C 	C 	0.8214	0.26461	0.4245	0.135
Mof_H 	H 	0.7873	0.2632	0.4029	-0.026
Mof_C 	C 	0.9994	0.05814	0.51169	-0.027
Mof_C 	C 	0.8664	0.22411	0.4887	0.201
Mof_C 	C 	0.9816	0.1203	0.52262	0.202
Mof_C 	C 	0.8649	0.1796	0.52394	-0.174
Mof_H 	H 	0.8147	0.1683	0.5295	0.094
Mof_H 	H 	0.8842	0.1978	0.5493	0.099
Mof_C 	C 	0.9364	0.03031	0.49757	-0.026
Mof_C 	C 	0.9199	0.30743	0.45497	0.149
Mof_H 	H 	0.9558	0.3365	0.4551	-0.025
Mof_C 	C 	0.9188	0.2675	0.48755	-0.242
Mof_H 	H 	0.9536	0.2698	0.5088	0.148
Mof_C 	C 	0.0657	0.02818	0.51468	-0.028
Mof_H 	H 	0.1082	0.0463	0.5242	0.079
Mof_C 	C 	0.8774	0.07518	0.49856	0.202
Mof_S 	S 	0.61668	0.4031	0.38306	-0.017
Mof_N 	N 	0.62729	0.05694	0.67347	-0.263
Mof_O 	O 	0.47955	0.90909	0.78575	-0.213
Mof_O 	O 	0.68562	0.81983	0.73746	-0.225
Mof_N 	N 	0.5926	0.87663	0.76409	-0.138
Mof_C 	C 	0.6829	0.97332	0.70597	-0.233
Mof_H 	H 	0.7193	0.9446	0.7053	0.124
Mof_C 	C 	0.6786	0.01461	0.6745	0.135
Mof_H 	H 	0.7127	0.0132	0.6529	-0.026
Mof_C 	C 	0.5006	0.80814	0.76169	-0.026
Mof_C 	C 	0.6336	0.97411	0.7387	0.201
Mof_C 	C 	0.5184	0.8703	0.77262	0.202
Mof_C 	C 	0.6351	0.9296	0.77394	-0.174
Mof_H 	H 	0.6853	0.9183	0.7795	0.094
Mof_H 	H 	0.6158	0.9478	0.7993	0.099
Mof_C 	C 	0.5636	0.78031	0.74757	-0.025
Mof_C 	C 	0.5801	0.05743	0.70497	0.15
Mof_H 	H 	0.5442	0.0865	0.7051	-0.025
Mof_C 	C 	0.5812	0.0175	0.73755	-0.242
Mof_H 	H 	0.5464	0.0198	0.7588	0.148
Mof_C 	C 	0.4343	0.77818	0.76468	-0.029
Mof_H 	H 	0.3918	0.7963	0.7742	0.08
Mof_C 	C 	0.6226	0.82518	0.74856	0.202
Mof_S 	S 	0.88332	0.1531	0.63306	-0.017
Mof_N 	N 	0.62729	0.55694	0.17347	-0.263
Mof_O 	O 	0.47955	0.40909	0.28575	-0.213
Mof_O 	O 	0.68562	0.31983	0.23746	-0.225
Mof_N 	N 	0.5926	0.37663	0.26409	-0.138
Mof_C 	C 	0.6829	0.47332	0.20597	-0.234
Mof_H 	H 	0.7193	0.4446	0.2053	0.124
Mof_C 	C 	0.6786	0.51461	0.1745	0.135
Mof_H 	H 	0.7127	0.5132	0.1529	-0.026
Mof_C 	C 	0.5006	0.30814	0.26169	-0.026
Mof_C 	C 	0.6336	0.47411	0.2387	0.201
Mof_C 	C 	0.5184	0.3703	0.27262	0.202
Mof_C 	C 	0.6351	0.4296	0.27394	-0.174
Mof_H 	H 	0.6853	0.4183	0.2795	0.094
Mof_H 	H 	0.6158	0.4478	0.2993	0.099
Mof_C 	C 	0.5636	0.28031	0.24757	-0.025
Mof_C 	C 	0.5801	0.55743	0.20497	0.149
Mof_H 	H 	0.5442	0.5865	0.2051	-0.025
Mof_C 	C 	0.5812	0.5175	0.23755	-0.242
Mof_H 	H 	0.5464	0.5198	0.2588	0.148
Mof_C 	C 	0.4343	0.27818	0.26468	-0.029
Mof_H 	H 	0.3918	0.2963	0.2742	0.08
Mof_C 	C 	0.6226	0.32518	0.24856	0.202
Mof_S 	S 	0.88332	0.6531	0.13306	-0.017
Mof_N 	N 	0.12729	0.05694	0.17347	-0.263
Mof_O 	O 	0.97955	0.90909	0.28575	-0.213
Mof_O 	O 	0.18562	0.81983	0.23746	-0.225
Mof_N 	N 	0.0926	0.87663	0.26409	-0.138
Mof_C 	C 	0.1829	0.97332	0.20597	-0.234
Mof_H 	H 	0.2193	0.9446	0.2053	0.124
Mof_C 	C 	0.1786	0.01461	0.1745	0.136
Mof_H 	H 	0.2127	0.0132	0.1529	-0.026
Mof_C 	C 	0.0006	0.80814	0.26169	-0.026
Mof_C 	C 	0.1336	0.97411	0.2387	0.2
Mof_C 	C 	0.0184	0.8703	0.27262	0.202
Mof_C 	C 	0.1351	0.9296	0.27394	-0.174
Mof_H 	H 	0.1853	0.9183	0.2795	0.094
Mof_H 	H 	0.1158	0.9478	0.2993	0.099
Mof_C 	C 	0.0636	0.78031	0.24757	-0.025
Mof_C 	C 	0.0801	0.05743	0.20497	0.149
Mof_H 	H 	0.0442	0.0865	0.2051	-0.025
Mof_C 	C 	0.0812	0.0175	0.23755	-0.241
Mof_H 	H 	0.0464	0.0198	0.2588	0.148
Mof_C 	C 	0.9343	0.77818	0.26468	-0.029
Mof_H 	H 	0.8918	0.7963	0.2742	0.079
Mof_C 	C 	0.1226	0.82518	0.24856	0.202
Mof_S 	S 	0.38332	0.1531	0.13306	-0.017
Mof_N 	N 	0.12729	0.55694	0.67347	-0.263
Mof_O 	O 	0.97955	0.40909	0.78575	-0.213
Mof_O 	O 	0.18562	0.31983	0.73746	-0.225
Mof_N 	N 	0.0926	0.37663	0.76409	-0.138
Mof_C 	C 	0.1829	0.47332	0.70597	-0.234
Mof_H 	H 	0.2193	0.4446	0.7053	0.124
Mof_C 	C 	0.1786	0.51461	0.6745	0.135
Mof_H 	H 	0.2127	0.5132	0.6529	-0.026
Mof_C 	C 	0.0006	0.30814	0.76169	-0.026
Mof_C 	C 	0.1336	0.47411	0.7387	0.201
Mof_C 	C 	0.0184	0.3703	0.77262	0.202
Mof_C 	C 	0.1351	0.4296	0.77394	-0.174
Mof_H 	H 	0.1853	0.4183	0.7795	0.094
Mof_H 	H 	0.1158	0.4478	0.7993	0.099
Mof_C 	C 	0.0636	0.28031	0.74757	-0.025
Mof_C 	C 	0.0801	0.55743	0.70497	0.149
Mof_H 	H 	0.0442	0.5865	0.7051	-0.025
Mof_C 	C 	0.0812	0.5175	0.73755	-0.242
Mof_H 	H 	0.0464	0.5198	0.7588	0.148
Mof_C 	C 	0.9343	0.27818	0.76468	-0.029
Mof_H 	H 	0.8918	0.2963	0.7742	0.08
Mof_C 	C 	0.1226	0.32518	0.74856	0.202
Mof_S 	S 	0.38332	0.6531	0.63306	-0.017
Mof_N 	N 	0.62271	0.19306	0.67347	-0.263
Mof_O 	O 	0.77045	0.34091	0.78575	-0.213
Mof_O 	O 	0.56438	0.43017	0.73746	-0.225
Mof_N 	N 	0.6574	0.37337	0.76409	-0.138
Mof_C 	C 	0.5671	0.27668	0.70597	-0.234
Mof_H 	H 	0.5307	0.3054	0.7053	0.124
Mof_C 	C 	0.5714	0.23539	0.6745	0.135
Mof_H 	H 	0.5373	0.2368	0.6529	-0.026
Mof_C 	C 	0.7494	0.44186	0.76169	-0.026
Mof_C 	C 	0.6164	0.27589	0.7387	0.201
Mof_C 	C 	0.7316	0.3797	0.77262	0.202
Mof_C 	C 	0.6149	0.3204	0.77394	-0.174
Mof_H 	H 	0.5647	0.3317	0.7795	0.094
Mof_H 	H 	0.6342	0.3022	0.7993	0.099
Mof_C 	C 	0.6864	0.46969	0.74757	-0.025
Mof_C 	C 	0.6699	0.19257	0.70497	0.149
Mof_H 	H 	0.7058	0.1635	0.7051	-0.025
Mof_C 	C 	0.6688	0.2325	0.73755	-0.242
Mof_H 	H 	0.7036	0.2302	0.7588	0.148
Mof_C 	C 	0.8157	0.47182	0.76468	-0.029
Mof_H 	H 	0.8582	0.4537	0.7742	0.08
Mof_C 	C 	0.6274	0.42482	0.74856	0.202
Mof_S 	S 	0.36668	0.0969	0.63306	-0.017
Mof_N 	N 	0.62271	0.69306	0.17347	-0.263
Mof_O 	O 	0.77045	0.84091	0.28575	-0.213
Mof_O 	O 	0.56438	0.93017	0.23746	-0.225
Mof_N 	N 	0.6574	0.87337	0.26409	-0.138
Mof_C 	C 	0.5671	0.77668	0.20597	-0.234
Mof_H 	H 	0.5307	0.8054	0.2053	0.124
Mof_C 	C 	0.5714	0.73539	0.1745	0.135
Mof_H 	H 	0.5373	0.7368	0.1529	-0.026
Mof_C 	C 	0.7494	0.94186	0.26169	-0.026
Mof_C 	C 	0.6164	0.77589	0.2387	0.201
Mof_C 	C 	0.7316	0.8797	0.27262	0.202
Mof_C 	C 	0.6149	0.8204	0.27394	-0.174
Mof_H 	H 	0.5647	0.8317	0.2795	0.094
Mof_H 	H 	0.6342	0.8022	0.2993	0.099
Mof_C 	C 	0.6864	0.96969	0.24757	-0.025
Mof_C 	C 	0.6699	0.69257	0.20497	0.149
Mof_H 	H 	0.7058	0.6635	0.2051	-0.025
Mof_C 	C 	0.6688	0.7325	0.23755	-0.242
Mof_H 	H 	0.7036	0.7302	0.2588	0.148
Mof_C 	C 	0.8157	0.97182	0.26468	-0.028
Mof_H 	H 	0.8582	0.9537	0.2742	0.079
Mof_C 	C 	0.6274	0.92482	0.24856	0.202
Mof_S 	S 	0.36668	0.5969	0.13306	-0.017
Mof_N 	N 	0.12271	0.19306	0.17347	-0.263
Mof_O 	O 	0.27045	0.34091	0.28575	-0.213
Mof_O 	O 	0.06438	0.43017	0.23746	-0.225
Mof_N 	N 	0.1574	0.37337	0.26409	-0.138
Mof_C 	C 	0.0671	0.27668	0.20597	-0.234
Mof_H 	H 	0.0307	0.3054	0.2053	0.124
Mof_C 	C 	0.0714	0.23539	0.1745	0.135
Mof_H 	H 	0.0373	0.2368	0.1529	-0.026
Mof_C 	C 	0.2494	0.44186	0.26169	-0.026
Mof_C 	C 	0.1164	0.27589	0.2387	0.201
Mof_C 	C 	0.2316	0.3797	0.27262	0.202
Mof_C 	C 	0.1149	0.3204	0.27394	-0.174
Mof_H 	H 	0.0647	0.3317	0.2795	0.094
Mof_H 	H 	0.1342	0.3022	0.2993	0.099
Mof_C 	C 	0.1864	0.46969	0.24757	-0.025
Mof_C 	C 	0.1699	0.19257	0.20497	0.149
Mof_H 	H 	0.2058	0.1635	0.2051	-0.025
Mof_C 	C 	0.1688	0.2325	0.23755	-0.242
Mof_H 	H 	0.2036	0.2302	0.2588	0.148
Mof_C 	C 	0.3157	0.47182	0.26468	-0.029
Mof_H 	H 	0.3582	0.4537	0.2742	0.08
Mof_C 	C 	0.1274	0.42482	0.24856	0.202
Mof_S 	S 	0.86668	0.0969	0.13306	-0.017
Mof_N 	N 	0.12271	0.69306	0.67347	-0.263
Mof_O 	O 	0.27045	0.84091	0.78575	-0.213
Mof_O 	O 	0.06438	0.93017	0.73746	-0.225
Mof_N 	N 	0.1574	0.87337	0.76409	-0.138
Mof_C 	C 	0.0671	0.77668	0.70597	-0.234
Mof_H 	H 	0.0307	0.8054	0.7053	0.124
Mof_C 	C 	0.0714	0.73539	0.6745	0.135
Mof_H 	H 	0.0373	0.7368	0.6529	-0.026
Mof_C 	C 	0.2494	0.94186	0.76169	-0.026
Mof_C 	C 	0.1164	0.77589	0.7387	0.201
Mof_C 	C 	0.2316	0.8797	0.77262	0.202
Mof_C 	C 	0.1149	0.8204	0.77394	-0.174
Mof_H 	H 	0.0647	0.8317	0.7795	0.094
Mof_H 	H 	0.1342	0.8022	0.7993	0.099
Mof_C 	C 	0.1864	0.96969	0.74757	-0.026
Mof_C 	C 	0.1699	0.69257	0.70497	0.149
Mof_H 	H 	0.2058	0.6635	0.7051	-0.025
Mof_C 	C 	0.1688	0.7325	0.73755	-0.242
Mof_H 	H 	0.2036	0.7302	0.7588	0.148
Mof_C 	C 	0.3157	0.97182	0.76468	-0.029
Mof_H 	H 	0.3582	0.9537	0.7742	0.08
Mof_C 	C 	0.1274	0.92482	0.74856	0.202
Mof_S 	S 	0.86668	0.5969	0.63306	-0.017
Mof_N 	N 	0.62271	0.05694	0.57653	-0.263
Mof_O 	O 	0.77045	0.90909	0.46425	-0.213
Mof_O 	O 	0.56438	0.81983	0.51254	-0.225
Mof_N 	N 	0.6574	0.87663	0.48591	-0.138
Mof_C 	C 	0.5671	0.97332	0.54403	-0.234
Mof_H 	H 	0.5307	0.9446	0.5447	0.124
Mof_C 	C 	0.5714	0.01461	0.5755	0.135
Mof_H 	H 	0.5373	0.0132	0.5971	-0.026
Mof_C 	C 	0.7494	0.80814	0.48831	-0.026
Mof_C 	C 	0.6164	0.97411	0.5113	0.201
Mof_C 	C 	0.7316	0.8703	0.47738	0.202
Mof_C 	C 	0.6149	0.9296	0.47606	-0.174
Mof_H 	H 	0.5647	0.9183	0.4705	0.094
Mof_H 	H 	0.6342	0.9478	0.4507	0.099
Mof_C 	C 	0.6864	0.78031	0.50243	-0.025
Mof_C 	C 	0.6699	0.05743	0.54503	0.149
Mof_H 	H 	0.7058	0.0865	0.5449	-0.025
Mof_C 	C 	0.6688	0.0175	0.51245	-0.242
Mof_H 	H 	0.7036	0.0198	0.4912	0.148
Mof_C 	C 	0.8157	0.77818	0.48532	-0.029
Mof_H 	H 	0.8582	0.7963	0.4758	0.08
Mof_C 	C 	0.6274	0.82518	0.50144	0.202
Mof_S 	S 	0.36668	0.1531	0.61694	-0.017
Mof_N 	N 	0.62271	0.55694	0.07653	-0.263
Mof_O 	O 	0.77045	0.40909	0.96425	-0.213
Mof_O 	O 	0.56438	0.31983	0.01254	-0.225
Mof_N 	N 	0.6574	0.37663	0.98591	-0.138
Mof_C 	C 	0.5671	0.47332	0.04403	-0.234
Mof_H 	H 	0.5307	0.4446	0.0447	0.124
Mof_C 	C 	0.5714	0.51461	0.0755	0.135
Mof_H 	H 	0.5373	0.5132	0.0971	-0.026
Mof_C 	C 	0.7494	0.30814	0.98831	-0.026
Mof_C 	C 	0.6164	0.47411	0.0113	0.201
Mof_C 	C 	0.7316	0.3703	0.97738	0.202
Mof_C 	C 	0.6149	0.4296	0.97606	-0.174
Mof_H 	H 	0.5647	0.4183	0.9705	0.094
Mof_H 	H 	0.6342	0.4478	0.9507	0.099
Mof_C 	C 	0.6864	0.28031	0.00243	-0.026
Mof_C 	C 	0.6699	0.55743	0.04503	0.15
Mof_H 	H 	0.7058	0.5865	0.0449	-0.025
Mof_C 	C 	0.6688	0.5175	0.01245	-0.243
Mof_H 	H 	0.7036	0.5198	0.9912	0.148
Mof_C 	C 	0.8157	0.27818	0.98532	-0.029
Mof_H 	H 	0.8582	0.2963	0.9758	0.08
Mof_C 	C 	0.6274	0.32518	0.00144	0.202
Mof_S 	S 	0.36668	0.6531	0.11694	-0.017
Mof_N 	N 	0.12271	0.05694	0.07653	-0.263
Mof_O 	O 	0.27045	0.90909	0.96425	-0.213
Mof_O 	O 	0.06438	0.81983	0.01254	-0.225
Mof_N 	N 	0.1574	0.87663	0.98591	-0.139
Mof_C 	C 	0.0671	0.97332	0.04403	-0.234
Mof_H 	H 	0.0307	0.9446	0.0447	0.124
Mof_C 	C 	0.0714	0.01461	0.0755	0.136
Mof_H 	H 	0.0373	0.0132	0.0971	-0.026
Mof_C 	C 	0.2494	0.80814	0.98831	-0.026
Mof_C 	C 	0.1164	0.97411	0.0113	0.2
Mof_C 	C 	0.2316	0.8703	0.97738	0.202
Mof_C 	C 	0.1149	0.9296	0.97606	-0.174
Mof_H 	H 	0.0647	0.9183	0.9705	0.094
Mof_H 	H 	0.1342	0.9478	0.9507	0.099
Mof_C 	C 	0.1864	0.78031	0.00243	-0.025
Mof_C 	C 	0.1699	0.05743	0.04503	0.148
Mof_H 	H 	0.2058	0.0865	0.0449	-0.025
Mof_C 	C 	0.1688	0.0175	0.01245	-0.24
Mof_H 	H 	0.2036	0.0198	0.9912	0.147
Mof_C 	C 	0.3157	0.77818	0.98532	-0.029
Mof_H 	H 	0.3582	0.7963	0.9758	0.079
Mof_C 	C 	0.1274	0.82518	0.00144	0.202
Mof_S 	S 	0.86668	0.1531	0.11694	-0.017
Mof_N 	N 	0.12271	0.55694	0.57653	-0.263
Mof_O 	O 	0.27045	0.40909	0.46425	-0.213
Mof_O 	O 	0.06438	0.31983	0.51254	-0.225
Mof_N 	N 	0.1574	0.37663	0.48591	-0.138
Mof_C 	C 	0.0671	0.47332	0.54403	-0.234
Mof_H 	H 	0.0307	0.4446	0.5447	0.124
Mof_C 	C 	0.0714	0.51461	0.5755	0.135
Mof_H 	H 	0.0373	0.5132	0.5971	-0.026
Mof_C 	C 	0.2494	0.30814	0.48831	-0.026
Mof_C 	C 	0.1164	0.47411	0.5113	0.201
Mof_C 	C 	0.2316	0.3703	0.47738	0.202
Mof_C 	C 	0.1149	0.4296	0.47606	-0.174
Mof_H 	H 	0.0647	0.4183	0.4705	0.094
Mof_H 	H 	0.1342	0.4478	0.4507	0.099
Mof_C 	C 	0.1864	0.28031	0.50243	-0.025
Mof_C 	C 	0.1699	0.55743	0.54503	0.149
Mof_H 	H 	0.2058	0.5865	0.5449	-0.025
Mof_C 	C 	0.1688	0.5175	0.51245	-0.242
Mof_H 	H 	0.2036	0.5198	0.4912	0.148
Mof_C 	C 	0.3157	0.27818	0.48532	-0.029
Mof_H 	H 	0.3582	0.2963	0.4758	0.08
Mof_C 	C 	0.1274	0.32518	0.50144	0.202
Mof_S 	S 	0.86668	0.6531	0.61694	-0.017
Mof_N 	N 	0.62729	0.19306	0.57653	-0.263
Mof_O 	O 	0.47955	0.34091	0.46425	-0.213
Mof_O 	O 	0.68562	0.43017	0.51254	-0.225
Mof_N 	N 	0.5926	0.37337	0.48591	-0.138
Mof_C 	C 	0.6829	0.27668	0.54403	-0.234
Mof_H 	H 	0.7193	0.3054	0.5447	0.124
Mof_C 	C 	0.6786	0.23539	0.5755	0.135
Mof_H 	H 	0.7127	0.2368	0.5971	-0.026
Mof_C 	C 	0.5006	0.44186	0.48831	-0.026
Mof_C 	C 	0.6336	0.27589	0.5113	0.201
Mof_C 	C 	0.5184	0.3797	0.47738	0.202
Mof_C 	C 	0.6351	0.3204	0.47606	-0.174
Mof_H 	H 	0.6853	0.3317	0.4705	0.094
Mof_H 	H 	0.6158	0.3022	0.4507	0.099
Mof_C 	C 	0.5636	0.46969	0.50243	-0.025
Mof_C 	C 	0.5801	0.19257	0.54503	0.149
Mof_H 	H 	0.5442	0.1635	0.5449	-0.025
Mof_C 	C 	0.5812	0.2325	0.51245	-0.242
Mof_H 	H 	0.5464	0.2302	0.4912	0.148
Mof_C 	C 	0.4343	0.47182	0.48532	-0.029
Mof_H 	H 	0.3918	0.4537	0.4758	0.08
Mof_C 	C 	0.6226	0.42482	0.50144	0.202
Mof_S 	S 	0.88332	0.0969	0.61694	-0.017
Mof_N 	N 	0.62729	0.69306	0.07653	-0.263
Mof_O 	O 	0.47955	0.84091	0.96425	-0.213
Mof_O 	O 	0.68562	0.93017	0.01254	-0.225
Mof_N 	N 	0.5926	0.87337	0.98591	-0.138
Mof_C 	C 	0.6829	0.77668	0.04403	-0.234
Mof_H 	H 	0.7193	0.8054	0.0447	0.124
Mof_C 	C 	0.6786	0.73539	0.0755	0.135
Mof_H 	H 	0.7127	0.7368	0.0971	-0.026
Mof_C 	C 	0.5006	0.94186	0.98831	-0.026
Mof_C 	C 	0.6336	0.77589	0.0113	0.201
Mof_C 	C 	0.5184	0.8797	0.97738	0.202
Mof_C 	C 	0.6351	0.8204	0.97606	-0.174
Mof_H 	H 	0.6853	0.8317	0.9705	0.094
Mof_H 	H 	0.6158	0.8022	0.9507	0.099
Mof_C 	C 	0.5636	0.96969	0.00243	-0.026
Mof_C 	C 	0.5801	0.69257	0.04503	0.149
Mof_H 	H 	0.5442	0.6635	0.0449	-0.025
Mof_C 	C 	0.5812	0.7325	0.01245	-0.242
Mof_H 	H 	0.5464	0.7302	0.9912	0.148
Mof_C 	C 	0.4343	0.97182	0.98532	-0.028
Mof_H 	H 	0.3918	0.9537	0.9758	0.079
Mof_C 	C 	0.6226	0.92482	0.00144	0.202
Mof_S 	S 	0.88332	0.5969	0.11694	-0.017
Mof_N 	N 	0.12729	0.19306	0.07653	-0.263
Mof_O 	O 	0.97955	0.34091	0.96425	-0.213
Mof_O 	O 	0.18562	0.43017	0.01254	-0.225
Mof_N 	N 	0.0926	0.37337	0.98591	-0.139
Mof_C 	C 	0.1829	0.27668	0.04403	-0.234
Mof_H 	H 	0.2193	0.3054	0.0447	0.124
Mof_C 	C 	0.1786	0.23539	0.0755	0.135
Mof_H 	H 	0.2127	0.2368	0.0971	-0.026
Mof_C 	C 	0.0006	0.44186	0.98831	-0.027
Mof_C 	C 	0.1336	0.27589	0.0113	0.201
Mof_C 	C 	0.0184	0.3797	0.97738	0.202
Mof_C 	C 	0.1351	0.3204	0.97606	-0.175
Mof_H 	H 	0.1853	0.3317	0.9705	0.094
Mof_H 	H 	0.1158	0.3022	0.9507	0.099
Mof_C 	C 	0.0636	0.46969	0.00243	-0.025
Mof_C 	C 	0.0801	0.19257	0.04503	0.149
Mof_H 	H 	0.0442	0.1635	0.0449	-0.025
Mof_C 	C 	0.0812	0.2325	0.01245	-0.241
Mof_H 	H 	0.0464	0.2302	0.9912	0.148
Mof_C 	C 	0.9343	0.47182	0.98532	-0.028
Mof_H 	H 	0.8918	0.4537	0.9758	0.079
Mof_C 	C 	0.1226	0.42482	0.00144	0.202
Mof_S 	S 	0.38332	0.0969	0.11694	-0.017
Mof_N 	N 	0.12729	0.69306	0.57653	-0.263
Mof_O 	O 	0.97955	0.84091	0.46425	-0.213
Mof_O 	O 	0.18562	0.93017	0.51254	-0.225
Mof_N 	N 	0.0926	0.87337	0.48591	-0.138
Mof_C 	C 	0.1829	0.77668	0.54403	-0.234
Mof_H 	H 	0.2193	0.8054	0.5447	0.124
Mof_C 	C 	0.1786	0.73539	0.5755	0.135
Mof_H 	H 	0.2127	0.7368	0.5971	-0.026
Mof_C 	C 	0.0006	0.94186	0.48831	-0.027
Mof_C 	C 	0.1336	0.77589	0.5113	0.201
Mof_C 	C 	0.0184	0.8797	0.47738	0.202
Mof_C 	C 	0.1351	0.8204	0.47606	-0.174
Mof_H 	H 	0.1853	0.8317	0.4705	0.094
Mof_H 	H 	0.1158	0.8022	0.4507	0.099
Mof_C 	C 	0.0636	0.96969	0.50243	-0.026
Mof_C 	C 	0.0801	0.69257	0.54503	0.149
Mof_H 	H 	0.0442	0.6635	0.5449	-0.025
Mof_C 	C 	0.0812	0.7325	0.51245	-0.242
Mof_H 	H 	0.0464	0.7302	0.4912	0.148
Mof_C 	C 	0.9343	0.97182	0.48532	-0.028
Mof_H 	H 	0.8918	0.9537	0.4758	0.079
Mof_C 	C 	0.1226	0.92482	0.50144	0.202
Mof_S 	S 	0.38332	0.5969	0.61694	-0.017
Mof_Co	Co	0.375	0.875	0.375	1.124
Mof_Co	Co	0.375	0.375	0.875	1.124
Mof_Co	Co	0.875	0.875	0.875	1.124
Mof_Co	Co	0.875	0.375	0.375	1.124
Mof_Co	Co	0.625	0.125	0.625	1.124
Mof_Co	Co	0.625	0.625	0.125	1.124
Mof_Co	Co	0.125	0.125	0.125	1.124
Mof_Co	Co	0.125	0.625	0.625	1.124
Mof_N 	N 	0.2613	0.875	0.375	-0.266
Mof_C 	C 	0.2006	0.875	0.375	0.11
Mof_N 	N 	0.2613	0.375	0.875	-0.266
Mof_C 	C 	0.2006	0.375	0.875	0.11
Mof_N 	N 	0.7613	0.875	0.875	-0.266
Mof_C 	C 	0.7006	0.875	0.875	0.11
Mof_N 	N 	0.7613	0.375	0.375	-0.266
Mof_C 	C 	0.7006	0.375	0.375	0.11
Mof_N 	N 	0.4887	0.875	0.375	-0.266
Mof_C 	C 	0.5494	0.875	0.375	0.11
Mof_N 	N 	0.4887	0.375	0.875	-0.266
Mof_C 	C 	0.5494	0.375	0.875	0.11
Mof_N 	N 	0.9887	0.875	0.875	-0.265
Mof_C 	C 	0.0494	0.875	0.875	0.11
Mof_N 	N 	0.9887	0.375	0.375	-0.266
Mof_C 	C 	0.0494	0.375	0.375	0.111
Mof_N 	N 	0.7387	0.125	0.625	-0.266
Mof_C 	C 	0.7994	0.125	0.625	0.11
Mof_N 	N 	0.7387	0.625	0.125	-0.266
Mof_C 	C 	0.7994	0.625	0.125	0.11
Mof_N 	N 	0.2387	0.125	0.125	-0.266
Mof_C 	C 	0.2994	0.125	0.125	0.11
Mof_N 	N 	0.2387	0.625	0.625	-0.266
Mof_C 	C 	0.2994	0.625	0.625	0.11
Mof_N 	N 	0.5113	0.125	0.625	-0.266
Mof_C 	C 	0.4506	0.125	0.625	0.11
Mof_N 	N 	0.5113	0.625	0.125	-0.266
Mof_C 	C 	0.4506	0.625	0.125	0.11
Mof_N 	N 	0.0113	0.125	0.125	-0.265
Mof_C 	C 	0.9506	0.125	0.125	0.11
Mof_N 	N 	0.0113	0.625	0.625	-0.266
Mof_C 	C 	0.9506	0.625	0.625	0.111
_end
