data_functionalizedCrystal
_audit_creation_method	'EQeq! by Chris Wilmer'
_symmetry_space_group_name_H-M	'P1'
_symmetry_Int_Tables_number	1
_symmetry_cell_setting	triclinic
loop_
_symmetry_equiv_pos_as_xyz
  x,y,z
_cell_length_a	25.366
_cell_length_b	6.0392
_cell_length_c	12.3195
_cell_angle_alpha	90
_cell_angle_beta	90
_cell_angle_gamma	90
loop_
_atom_site_label
_atom_site_type_symbol
_atom_site_fract_x
_atom_site_fract_y
_atom_site_fract_z
_atom_site_charge
Mof_Cd	Cd	0.37137	0.69971	0.86492	0.435
Mof_C 	C 	0.4603	0.7775	0.0502	0.061
Mof_H 	H 	0.4604	0.917	0.0182	0.021
Mof_C 	C 	0.4997	0.7271	0.1221	-0.088
Mof_H 	H 	0.5259	0.8304	0.1371	0.084
Mof_C 	C 	0.5006	0.5238	0.1722	-0.002
Mof_C 	C 	0.459	0.384	0.151	-0.088
Mof_H 	H 	0.4568	0.2475	0.1856	0.078
Mof_C 	C 	0.4203	0.4489	0.0773	0.065
Mof_H 	H 	0.392	0.3539	0.0656	0.023
Mof_C 	C 	0.5447	0.4517	0.2442	0.276
Mof_C 	C 	0.3331	0.983	0.6562	0.084
Mof_H 	H 	0.3621	0.0678	0.6763	0.023
Mof_C 	C 	0.3003	0.0639	0.5771	-0.115
Mof_H 	H 	0.3077	0.1992	0.5443	0.088
Mof_C 	C 	0.2572	0.9463	0.5466	0.027
Mof_C 	C 	0.2499	0.7416	0.5948	-0.109
Mof_H 	H 	0.2218	0.6516	0.5748	0.094
Mof_C 	C 	0.2853	0.6734	0.6735	0.083
Mof_H 	H 	0.28	0.5356	0.7054	0.022
Mof_C 	C 	0.2173	0.0411	0.4691	0.252
Mof_O 	O 	0.54797	0.2549	0.2707	-0.268
Mof_O 	O 	0.57914	0.5932	0.2713	-0.251
Mof_O 	O 	0.18659	0.912	0.4187	-0.248
Mof_O 	O 	0.21284	0.2457	0.4638	-0.256
Mof_N 	N 	0.42145	0.636	0.0234	-0.142
Mof_N 	N 	0.3256	0.7896	0.7057	-0.147
Mof_Cd	Cd	0.62863	0.30029	0.36492	0.432
Mof_C 	C 	0.5397	0.2225	0.5502	0.061
Mof_H 	H 	0.5396	0.083	0.5182	0.022
Mof_C 	C 	0.5003	0.2729	0.6221	-0.087
Mof_H 	H 	0.4741	0.1696	0.6371	0.084
Mof_C 	C 	0.4994	0.4762	0.6722	-0.001
Mof_C 	C 	0.541	0.616	0.651	-0.088
Mof_H 	H 	0.5432	0.7525	0.6856	0.078
Mof_C 	C 	0.5797	0.5511	0.5773	0.066
Mof_H 	H 	0.608	0.6461	0.5656	0.024
Mof_C 	C 	0.4553	0.5483	0.7442	0.276
Mof_C 	C 	0.6669	0.017	0.1562	0.082
Mof_H 	H 	0.6379	0.9322	0.1763	0.023
Mof_C 	C 	0.6997	0.9361	0.0771	-0.111
Mof_H 	H 	0.6923	0.8008	0.0443	0.086
Mof_C 	C 	0.7428	0.0537	0.0466	0.021
Mof_C 	C 	0.7501	0.2584	0.0948	-0.106
Mof_H 	H 	0.7782	0.3484	0.0748	0.092
Mof_C 	C 	0.7147	0.3266	0.1735	0.081
Mof_H 	H 	0.72	0.4644	0.2054	0.022
Mof_C 	C 	0.7827	0.9589	0.9691	0.254
Mof_O 	O 	0.45203	0.7451	0.7707	-0.267
Mof_O 	O 	0.42086	0.4068	0.7713	-0.25
Mof_O 	O 	0.81341	0.088	0.9187	-0.245
Mof_O 	O 	0.78716	0.7543	0.9638	-0.255
Mof_N 	N 	0.57855	0.364	0.5234	-0.141
Mof_N 	N 	0.6744	0.2104	0.2057	-0.146
Mof_Cd	Cd	0.87137	0.80029	0.86492	0.43
Mof_C 	C 	0.9603	0.7225	0.0502	0.063
Mof_H 	H 	0.9604	0.583	0.0182	0.02
Mof_C 	C 	0.9997	0.7729	0.1221	-0.092
Mof_H 	H 	0.0259	0.6696	0.1371	0.085
Mof_C 	C 	0.0006	0.9762	0.1722	0.004
Mof_C 	C 	0.959	0.116	0.151	-0.093
Mof_H 	H 	0.9568	0.2525	0.1856	0.08
Mof_C 	C 	0.9203	0.0511	0.0773	0.069
Mof_H 	H 	0.892	0.1461	0.0656	0.023
Mof_C 	C 	0.0447	0.0483	0.2442	0.269
Mof_C 	C 	0.8331	0.517	0.6562	0.064
Mof_H 	H 	0.8621	0.4322	0.6763	0.031
Mof_C 	C 	0.8003	0.4361	0.5771	-0.09
Mof_H 	H 	0.8077	0.3008	0.5443	0.081
Mof_C 	C 	0.7572	0.5537	0.5466	0.007
Mof_C 	C 	0.7499	0.7584	0.5948	-0.096
Mof_H 	H 	0.7218	0.8484	0.5748	0.088
Mof_C 	C 	0.7853	0.8266	0.6735	0.075
Mof_H 	H 	0.78	0.9644	0.7054	0.023
Mof_C 	C 	0.7173	0.4589	0.4691	0.267
Mof_O 	O 	0.04797	0.2451	0.2707	-0.267
Mof_O 	O 	0.07914	0.9068	0.2713	-0.248
Mof_O 	O 	0.68659	0.588	0.4187	-0.255
Mof_O 	O 	0.71284	0.2543	0.4638	-0.258
Mof_N 	N 	0.92145	0.864	0.0234	-0.144
Mof_N 	N 	0.8256	0.7104	0.7057	-0.143
Mof_Cd	Cd	0.12863	0.19971	0.36492	0.429
Mof_C 	C 	0.0397	0.2775	0.5502	0.063
Mof_H 	H 	0.0396	0.417	0.5182	0.021
Mof_C 	C 	0.0003	0.2271	0.6221	-0.092
Mof_H 	H 	0.9741	0.3304	0.6371	0.086
Mof_C 	C 	0.9994	0.0238	0.6722	0.006
Mof_C 	C 	0.041	0.884	0.651	-0.094
Mof_H 	H 	0.0432	0.7475	0.6856	0.081
Mof_C 	C 	0.0797	0.9489	0.5773	0.071
Mof_H 	H 	0.108	0.8539	0.5656	0.023
Mof_C 	C 	0.9553	0.9517	0.7442	0.268
Mof_C 	C 	0.1669	0.483	0.1562	0.062
Mof_H 	H 	0.1379	0.5678	0.1763	0.032
Mof_C 	C 	0.1997	0.5639	0.0771	-0.086
Mof_H 	H 	0.1923	0.6992	0.0443	0.078
Mof_C 	C 	0.2428	0.4463	0.0466	-0.001
Mof_C 	C 	0.2501	0.2416	0.0948	-0.093
Mof_H 	H 	0.2782	0.1516	0.0748	0.086
Mof_C 	C 	0.2147	0.1734	0.1735	0.072
Mof_H 	H 	0.22	0.0356	0.2054	0.023
Mof_C 	C 	0.2827	0.5411	0.9691	0.272
Mof_O 	O 	0.95203	0.7549	0.7707	-0.266
Mof_O 	O 	0.92086	0.0932	0.7713	-0.246
Mof_O 	O 	0.31341	0.412	0.9187	-0.254
Mof_O 	O 	0.28716	0.7457	0.9638	-0.258
Mof_N 	N 	0.07855	0.136	0.5234	-0.143
Mof_N 	N 	0.1744	0.2896	0.2057	-0.142
_end
