data_functionalizedCrystal
_audit_creation_method	'EQeq! by Chris Wilmer'
_symmetry_space_group_name_H-M	'P1'
_symmetry_Int_Tables_number	1
_symmetry_cell_setting	triclinic
loop_
_symmetry_equiv_pos_as_xyz
  x,y,z
_cell_length_a	20.4639
_cell_length_b	20.4639
_cell_length_c	20.4639
_cell_angle_alpha	90
_cell_angle_beta	90
_cell_angle_gamma	90
loop_
_atom_site_label
_atom_site_type_symbol
_atom_site_fract_x
_atom_site_fract_y
_atom_site_fract_z
_atom_site_charge
Mof_O 	O 	0.9171	0.3039	0.336	-0.488
Mof_O 	O 	0.9372	0.2133	0.2807	-0.387
Mof_C 	C 	0.846	0.2802	0.2476	-0.128
Mof_C 	C 	0.808	0.3326	0.2604	0.129
Mof_C 	C 	0.9039	0.2638	0.2902	0.338
Mof_O 	O 	0.4171	0.8039	0.836	-0.529
Mof_O 	O 	0.4372	0.7133	0.7807	-0.422
Mof_C 	C 	0.346	0.7802	0.7476	-0.131
Mof_C 	C 	0.308	0.8326	0.7604	0.139
Mof_C 	C 	0.4039	0.7638	0.7902	0.344
Mof_O 	O 	0.5829	0.6961	0.836	-0.533
Mof_O 	O 	0.5628	0.7867	0.7807	-0.416
Mof_C 	C 	0.654	0.7198	0.7476	-0.13
Mof_C 	C 	0.692	0.6674	0.7604	0.135
Mof_C 	C 	0.5961	0.7362	0.7902	0.344
Mof_O 	O 	0.0829	0.1961	0.336	-0.533
Mof_O 	O 	0.0628	0.2867	0.2807	-0.43
Mof_C 	C 	0.154	0.2198	0.2476	-0.136
Mof_C 	C 	0.192	0.1674	0.2604	0.11
Mof_C 	C 	0.0961	0.2362	0.2902	0.337
Mof_O 	O 	0.0829	0.8039	0.164	-0.526
Mof_O 	O 	0.0628	0.7133	0.2193	-0.428
Mof_C 	C 	0.154	0.7802	0.2524	-0.135
Mof_C 	C 	0.192	0.8326	0.2396	0.124
Mof_C 	C 	0.0961	0.7638	0.2098	0.341
Mof_O 	O 	0.5829	0.3039	0.664	-0.537
Mof_O 	O 	0.5628	0.2133	0.7193	-0.426
Mof_C 	C 	0.654	0.2802	0.7524	-0.132
Mof_C 	C 	0.692	0.3326	0.7396	0.13
Mof_C 	C 	0.5961	0.2638	0.7098	0.343
Mof_O 	O 	0.4171	0.1961	0.664	-0.543
Mof_O 	O 	0.4372	0.2867	0.7193	-0.421
Mof_C 	C 	0.346	0.2198	0.7524	-0.132
Mof_C 	C 	0.308	0.1674	0.7396	0.12
Mof_C 	C 	0.4039	0.2362	0.7098	0.342
Mof_O 	O 	0.9171	0.6961	0.164	-0.493
Mof_O 	O 	0.9372	0.7867	0.2193	-0.376
Mof_C 	C 	0.846	0.7198	0.2524	-0.128
Mof_C 	C 	0.808	0.6674	0.2396	0.128
Mof_C 	C 	0.9039	0.7362	0.2098	0.339
Mof_O 	O 	0.336	0.9171	0.3039	-0.489
Mof_O 	O 	0.2807	0.9372	0.2133	-0.388
Mof_C 	C 	0.2476	0.846	0.2802	-0.129
Mof_C 	C 	0.2604	0.808	0.3326	0.129
Mof_C 	C 	0.2902	0.9039	0.2638	0.338
Mof_O 	O 	0.836	0.4171	0.8039	-0.529
Mof_O 	O 	0.7807	0.4372	0.7133	-0.422
Mof_C 	C 	0.7476	0.346	0.7802	-0.131
Mof_C 	C 	0.7604	0.308	0.8326	0.139
Mof_C 	C 	0.7902	0.4039	0.7638	0.344
Mof_O 	O 	0.836	0.5829	0.6961	-0.533
Mof_O 	O 	0.7807	0.5628	0.7867	-0.416
Mof_C 	C 	0.7476	0.654	0.7198	-0.13
Mof_C 	C 	0.7604	0.692	0.6674	0.135
Mof_C 	C 	0.7902	0.5961	0.7362	0.344
Mof_O 	O 	0.336	0.0829	0.1961	-0.533
Mof_O 	O 	0.2807	0.0628	0.2867	-0.43
Mof_C 	C 	0.2476	0.154	0.2198	-0.136
Mof_C 	C 	0.2604	0.192	0.1674	0.11
Mof_C 	C 	0.2902	0.0961	0.2362	0.337
Mof_O 	O 	0.164	0.0829	0.8039	-0.526
Mof_O 	O 	0.2193	0.0628	0.7133	-0.428
Mof_C 	C 	0.2524	0.154	0.7802	-0.135
Mof_C 	C 	0.2396	0.192	0.8326	0.124
Mof_C 	C 	0.2098	0.0961	0.7638	0.341
Mof_O 	O 	0.664	0.5829	0.3039	-0.537
Mof_O 	O 	0.7193	0.5628	0.2133	-0.426
Mof_C 	C 	0.7524	0.654	0.2802	-0.132
Mof_C 	C 	0.7396	0.692	0.3326	0.13
Mof_C 	C 	0.7098	0.5961	0.2638	0.343
Mof_O 	O 	0.664	0.4171	0.1961	-0.543
Mof_O 	O 	0.7193	0.4372	0.2867	-0.421
Mof_C 	C 	0.7524	0.346	0.2198	-0.132
Mof_C 	C 	0.7396	0.308	0.1674	0.12
Mof_C 	C 	0.7098	0.4039	0.2362	0.342
Mof_O 	O 	0.164	0.9171	0.6961	-0.493
Mof_O 	O 	0.2193	0.9372	0.7867	-0.376
Mof_C 	C 	0.2524	0.846	0.7198	-0.128
Mof_C 	C 	0.2396	0.808	0.6674	0.128
Mof_C 	C 	0.2098	0.9039	0.7362	0.339
Mof_O 	O 	0.3039	0.336	0.9171	-0.489
Mof_O 	O 	0.2133	0.2807	0.9372	-0.388
Mof_C 	C 	0.2802	0.2476	0.846	-0.129
Mof_C 	C 	0.3326	0.2604	0.808	0.129
Mof_C 	C 	0.2638	0.2902	0.9039	0.338
Mof_O 	O 	0.8039	0.836	0.4171	-0.529
Mof_O 	O 	0.7133	0.7807	0.4372	-0.422
Mof_C 	C 	0.7802	0.7476	0.346	-0.131
Mof_C 	C 	0.8326	0.7604	0.308	0.139
Mof_C 	C 	0.7638	0.7902	0.4039	0.344
Mof_O 	O 	0.6961	0.836	0.5829	-0.533
Mof_O 	O 	0.7867	0.7807	0.5628	-0.416
Mof_C 	C 	0.7198	0.7476	0.654	-0.13
Mof_C 	C 	0.6674	0.7604	0.692	0.135
Mof_C 	C 	0.7362	0.7902	0.5961	0.344
Mof_O 	O 	0.1961	0.336	0.0829	-0.533
Mof_O 	O 	0.2867	0.2807	0.0628	-0.43
Mof_C 	C 	0.2198	0.2476	0.154	-0.136
Mof_C 	C 	0.1674	0.2604	0.192	0.11
Mof_C 	C 	0.2362	0.2902	0.0961	0.337
Mof_O 	O 	0.8039	0.164	0.0829	-0.526
Mof_O 	O 	0.7133	0.2193	0.0628	-0.428
Mof_C 	C 	0.7802	0.2524	0.154	-0.135
Mof_C 	C 	0.8326	0.2396	0.192	0.124
Mof_C 	C 	0.7638	0.2098	0.0961	0.341
Mof_O 	O 	0.3039	0.664	0.5829	-0.537
Mof_O 	O 	0.2133	0.7193	0.5628	-0.426
Mof_C 	C 	0.2802	0.7524	0.654	-0.132
Mof_C 	C 	0.3326	0.7396	0.692	0.13
Mof_C 	C 	0.2638	0.7098	0.5961	0.343
Mof_O 	O 	0.1961	0.664	0.4171	-0.543
Mof_O 	O 	0.2867	0.7193	0.4372	-0.421
Mof_C 	C 	0.2198	0.7524	0.346	-0.132
Mof_C 	C 	0.1674	0.7396	0.308	0.12
Mof_C 	C 	0.2362	0.7098	0.4039	0.342
Mof_O 	O 	0.6961	0.164	0.9171	-0.493
Mof_O 	O 	0.7867	0.2193	0.9372	-0.376
Mof_C 	C 	0.7198	0.2524	0.846	-0.128
Mof_C 	C 	0.6674	0.2396	0.808	0.128
Mof_C 	C 	0.7362	0.2098	0.9039	0.339
Mof_O 	O 	0.5539	0.1671	0.586	-0.547
Mof_O 	O 	0.4633	0.1872	0.5307	-0.431
Mof_C 	C 	0.5302	0.096	0.4976	-0.169
Mof_C 	C 	0.5826	0.058	0.5104	0.162
Mof_C 	C 	0.5138	0.1539	0.5402	0.35
Mof_O 	O 	0.0539	0.6671	0.086	-0.492
Mof_O 	O 	0.9633	0.6872	0.0307	-0.341
Mof_C 	C 	0.0302	0.596	0.9976	-0.038
Mof_C 	C 	0.0826	0.558	0.0104	-0.015
Mof_C 	C 	0.0138	0.6539	0.0402	0.186
Mof_O 	O 	0.9461	0.8329	0.086	-0.483
Mof_O 	O 	0.0367	0.8128	0.0307	-0.454
Mof_C 	C 	0.9698	0.904	0.9976	0.133
Mof_C 	C 	0.9174	0.942	0.0104	-0.071
Mof_C 	C 	0.9862	0.8461	0.0402	0.306
Mof_O 	O 	0.4461	0.3329	0.586	-0.538
Mof_O 	O 	0.5367	0.3128	0.5307	-0.424
Mof_C 	C 	0.4698	0.404	0.4976	-0.132
Mof_C 	C 	0.4174	0.442	0.5104	0.126
Mof_C 	C 	0.4862	0.3461	0.5402	0.342
Mof_O 	O 	0.0539	0.3329	0.414	-0.51
Mof_O 	O 	0.9633	0.3128	0.4693	-0.347
Mof_C 	C 	0.0302	0.404	0.5024	-0.224
Mof_C 	C 	0.0826	0.442	0.4896	0.155
Mof_C 	C 	0.0138	0.3461	0.4598	0.285
Mof_O 	O 	0.5539	0.8329	0.914	-0.543
Mof_O 	O 	0.4633	0.8128	0.9693	-0.419
Mof_C 	C 	0.5302	0.904	0.0024	-0.257
Mof_C 	C 	0.5826	0.942	0.9896	0.246
Mof_C 	C 	0.5138	0.8461	0.9598	0.424
Mof_O 	O 	0.4461	0.6671	0.914	-0.556
Mof_O 	O 	0.5367	0.6872	0.9693	-0.425
Mof_C 	C 	0.4698	0.596	0.0024	-0.304
Mof_C 	C 	0.4174	0.558	0.9896	0.291
Mof_C 	C 	0.4862	0.6539	0.9598	0.437
Mof_O 	O 	0.9461	0.1671	0.414	-0.515
Mof_O 	O 	0.0367	0.1872	0.4693	-0.467
Mof_C 	C 	0.9698	0.096	0.5024	-0.071
Mof_C 	C 	0.9174	0.058	0.4896	0.127
Mof_C 	C 	0.9862	0.1539	0.4598	0.402
Mof_O 	O 	0.1671	0.586	0.5539	-0.547
Mof_O 	O 	0.1872	0.5307	0.4633	-0.431
Mof_C 	C 	0.096	0.4976	0.5302	-0.169
Mof_C 	C 	0.058	0.5104	0.5826	0.162
Mof_C 	C 	0.1539	0.5402	0.5138	0.35
Mof_O 	O 	0.6671	0.086	0.0539	-0.492
Mof_O 	O 	0.6872	0.0307	0.9633	-0.341
Mof_C 	C 	0.596	0.9976	0.0302	-0.038
Mof_C 	C 	0.558	0.0104	0.0826	-0.015
Mof_C 	C 	0.6539	0.0402	0.0138	0.186
Mof_O 	O 	0.8329	0.086	0.9461	-0.483
Mof_O 	O 	0.8128	0.0307	0.0367	-0.454
Mof_C 	C 	0.904	0.9976	0.9698	0.133
Mof_C 	C 	0.942	0.0104	0.9174	-0.071
Mof_C 	C 	0.8461	0.0402	0.9862	0.306
Mof_O 	O 	0.3329	0.586	0.4461	-0.538
Mof_O 	O 	0.3128	0.5307	0.5367	-0.424
Mof_C 	C 	0.404	0.4976	0.4698	-0.132
Mof_C 	C 	0.442	0.5104	0.4174	0.126
Mof_C 	C 	0.3461	0.5402	0.4862	0.342
Mof_O 	O 	0.3329	0.414	0.0539	-0.51
Mof_O 	O 	0.3128	0.4693	0.9633	-0.347
Mof_C 	C 	0.404	0.5024	0.0302	-0.224
Mof_C 	C 	0.442	0.4896	0.0826	0.155
Mof_C 	C 	0.3461	0.4598	0.0138	0.285
Mof_O 	O 	0.8329	0.914	0.5539	-0.543
Mof_O 	O 	0.8128	0.9693	0.4633	-0.419
Mof_C 	C 	0.904	0.0024	0.5302	-0.257
Mof_C 	C 	0.942	0.9896	0.5826	0.246
Mof_C 	C 	0.8461	0.9598	0.5138	0.424
Mof_O 	O 	0.6671	0.914	0.4461	-0.556
Mof_O 	O 	0.6872	0.9693	0.5367	-0.425
Mof_C 	C 	0.596	0.0024	0.4698	-0.304
Mof_C 	C 	0.558	0.9896	0.4174	0.291
Mof_C 	C 	0.6539	0.9598	0.4862	0.437
Mof_O 	O 	0.1671	0.414	0.9461	-0.515
Mof_O 	O 	0.1872	0.4693	0.0367	-0.467
Mof_C 	C 	0.096	0.5024	0.9698	-0.071
Mof_C 	C 	0.058	0.4896	0.9174	0.127
Mof_C 	C 	0.1539	0.4598	0.9862	0.402
Mof_O 	O 	0.586	0.5539	0.1671	-0.547
Mof_O 	O 	0.5307	0.4633	0.1872	-0.431
Mof_C 	C 	0.4976	0.5302	0.096	-0.169
Mof_C 	C 	0.5104	0.5826	0.058	0.162
Mof_C 	C 	0.5402	0.5138	0.1539	0.35
Mof_O 	O 	0.086	0.0539	0.6671	-0.492
Mof_O 	O 	0.0307	0.9633	0.6872	-0.341
Mof_C 	C 	0.9976	0.0302	0.596	-0.038
Mof_C 	C 	0.0104	0.0826	0.558	-0.015
Mof_C 	C 	0.0402	0.0138	0.6539	0.186
Mof_O 	O 	0.086	0.9461	0.8329	-0.483
Mof_O 	O 	0.0307	0.0367	0.8128	-0.454
Mof_C 	C 	0.9976	0.9698	0.904	0.133
Mof_C 	C 	0.0104	0.9174	0.942	-0.071
Mof_C 	C 	0.0402	0.9862	0.8461	0.306
Mof_O 	O 	0.586	0.4461	0.3329	-0.538
Mof_O 	O 	0.5307	0.5367	0.3128	-0.424
Mof_C 	C 	0.4976	0.4698	0.404	-0.132
Mof_C 	C 	0.5104	0.4174	0.442	0.126
Mof_C 	C 	0.5402	0.4862	0.3461	0.342
Mof_O 	O 	0.414	0.0539	0.3329	-0.51
Mof_O 	O 	0.4693	0.9633	0.3128	-0.347
Mof_C 	C 	0.5024	0.0302	0.404	-0.224
Mof_C 	C 	0.4896	0.0826	0.442	0.155
Mof_C 	C 	0.4598	0.0138	0.3461	0.285
Mof_O 	O 	0.914	0.5539	0.8329	-0.543
Mof_O 	O 	0.9693	0.4633	0.8128	-0.419
Mof_C 	C 	0.0024	0.5302	0.904	-0.257
Mof_C 	C 	0.9896	0.5826	0.942	0.246
Mof_C 	C 	0.9598	0.5138	0.8461	0.424
Mof_O 	O 	0.914	0.4461	0.6671	-0.556
Mof_O 	O 	0.9693	0.5367	0.6872	-0.425
Mof_C 	C 	0.0024	0.4698	0.596	-0.304
Mof_C 	C 	0.9896	0.4174	0.558	0.291
Mof_C 	C 	0.9598	0.4862	0.6539	0.437
Mof_O 	O 	0.414	0.9461	0.1671	-0.515
Mof_O 	O 	0.4693	0.0367	0.1872	-0.467
Mof_C 	C 	0.5024	0.9698	0.096	-0.071
Mof_C 	C 	0.4896	0.9174	0.058	0.127
Mof_C 	C 	0.4598	0.9862	0.1539	0.402
Mof_In	In	1.40602e-33	0.25	0.375	2.289
Mof_In	In	0.5	0.75	0.875	2.515
Mof_In	In	-3.94984e-33	0.75	0.125	2.296
Mof_In	In	0.5	0.25	0.625	2.5
Mof_In	In	0.375	0	0.25	2.289
Mof_In	In	0.875	0.5	0.75	2.515
Mof_In	In	0.125	0	0.75	2.296
Mof_In	In	0.625	0.5	0.25	2.5
Mof_In	In	0.25	0.375	-0	2.289
Mof_In	In	0.75	0.875	0.5	2.515
Mof_In	In	0.75	0.125	-0	2.296
Mof_In	In	0.25	0.625	0.5	2.5
_end
