data_functionalizedCrystal
_audit_creation_method	'EQeq! by Chris Wilmer'
_symmetry_space_group_name_H-M	'P1'
_symmetry_Int_Tables_number	1
_symmetry_cell_setting	triclinic
loop_
_symmetry_equiv_pos_as_xyz
  x,y,z
_cell_length_a	21.5554
_cell_length_b	23.9367
_cell_length_c	10.3787
_cell_angle_alpha	90
_cell_angle_beta	99.838
_cell_angle_gamma	90
loop_
_atom_site_label
_atom_site_type_symbol
_atom_site_fract_x
_atom_site_fract_y
_atom_site_fract_z
_atom_site_charge
Mof_U 	U 	0.50983	0.36662	0.79295	0.015
Mof_P 	P 	0.398	0.3716	0.4694	0.396
Mof_P 	P 	0.3071	0.11714	0.4119	0.392
Mof_P 	P 	0.365	0.35076	0.9275	0.392
Mof_P 	P 	0.326	0.08541	0.9293	0.41
Mof_O 	O 	0.4179	0.3903	0.3422	-0.556
Mof_O 	O 	0.3388	0.4073	0.4828	-0.356
Mof_O 	O 	0.4483	0.3768	0.5881	-0.232
Mof_O 	O 	0.3229	0.0924	0.5471	-0.166
Mof_O 	O 	0.344	0.0905	0.3129	-0.152
Mof_O 	O 	0.2362	0.116	0.3572	-0.172
Mof_O 	O 	0.3913	0.3702	0.0644	-0.359
Mof_O 	O 	0.2982	0.3773	0.8867	-0.253
Mof_O 	O 	0.4026	0.3645	0.8195	-0.179
Mof_O 	O 	0.3612	0.0616	0.0575	-0.197
Mof_O 	O 	0.2543	0.078	0.9175	-0.496
Mof_O 	O 	0.3478	0.0604	0.8111	-0.228
Mof_O 	O 	0.5047	0.4386	0.8271	-0.391
Mof_C 	C 	0.3732	0.2998	0.4531	-0.041
Mof_C 	C 	0.4108	0.2566	0.5052	-0.015
Mof_H 	H 	0.4517	0.2644	0.5521	0.06
Mof_C 	C 	0.391	0.2028	0.4911	-0.041
Mof_H 	H 	0.4187	0.1737	0.5265	0.066
Mof_C 	C 	0.3318	0.1892	0.4272	-0.026
Mof_C 	C 	0.2928	0.2333	0.3722	-0.051
Mof_H 	H 	0.2521	0.2252	0.325	0.063
Mof_C 	C 	0.3122	0.2873	0.3854	-0.002
Mof_H 	H 	0.2849	0.3165	0.3491	0.021
Mof_C 	C 	0.3544	0.2761	0.9287	-0.037
Mof_C 	C 	0.3577	0.245	0.818	-0.021
Mof_H 	H 	0.3669	0.2631	0.7419	0.064
Mof_C 	C 	0.3476	0.1869	0.8162	-0.032
Mof_H 	H 	0.3478	0.1661	0.7384	0.063
Mof_C 	C 	0.3371	0.16	0.9306	-0.045
Mof_C 	C 	0.3373	0.1905	0.0432	-0.013
Mof_H 	H 	0.333	0.1721	0.1224	0.069
Mof_C 	C 	0.3437	0.2478	0.0406	0.005
Mof_H 	H 	0.3408	0.2686	0.1172	0.043
Mof_U 	U 	0.00983	0.86662	0.79295	0.029
Mof_P 	P 	0.898	0.8716	0.4694	0.395
Mof_P 	P 	0.8071	0.61714	0.4119	0.393
Mof_P 	P 	0.865	0.85076	0.9275	0.392
Mof_P 	P 	0.826	0.58541	0.9293	0.422
Mof_O 	O 	0.9179	0.8903	0.3422	-0.474
Mof_O 	O 	0.8388	0.9073	0.4828	-0.279
Mof_O 	O 	0.9483	0.8768	0.5881	-0.213
Mof_O 	O 	0.8229	0.5924	0.5471	-0.164
Mof_O 	O 	0.844	0.5905	0.3129	-0.144
Mof_O 	O 	0.7362	0.616	0.3572	-0.17
Mof_O 	O 	0.8913	0.8702	0.0644	-0.312
Mof_O 	O 	0.7982	0.8773	0.8867	-0.218
Mof_O 	O 	0.9026	0.8645	0.8195	-0.164
Mof_O 	O 	0.8612	0.5616	0.0575	-0.171
Mof_O 	O 	0.7543	0.578	0.9175	-0.527
Mof_O 	O 	0.8478	0.5604	0.8111	-0.207
Mof_O 	O 	0.0047	0.9386	0.8271	-0.273
Mof_C 	C 	0.8732	0.7998	0.4531	-0.039
Mof_C 	C 	0.9108	0.7566	0.5052	-0.016
Mof_H 	H 	0.9517	0.7644	0.5521	0.056
Mof_C 	C 	0.891	0.7028	0.4911	-0.041
Mof_H 	H 	0.9187	0.6737	0.5265	0.068
Mof_C 	C 	0.8318	0.6892	0.4272	-0.027
Mof_C 	C 	0.7928	0.7333	0.3722	-0.048
Mof_H 	H 	0.7521	0.7252	0.325	0.062
Mof_C 	C 	0.8122	0.7873	0.3854	-0.008
Mof_H 	H 	0.7849	0.8165	0.3491	0.031
Mof_C 	C 	0.8544	0.7761	0.9287	-0.037
Mof_C 	C 	0.8577	0.745	0.818	-0.025
Mof_H 	H 	0.8669	0.7631	0.7419	0.064
Mof_C 	C 	0.8476	0.6869	0.8162	-0.029
Mof_H 	H 	0.8478	0.6661	0.7384	0.061
Mof_C 	C 	0.8371	0.66	0.9306	-0.049
Mof_C 	C 	0.8373	0.6905	0.0432	-0.01
Mof_H 	H 	0.833	0.6721	0.1224	0.068
Mof_C 	C 	0.8437	0.7478	0.0406	-0
Mof_H 	H 	0.8408	0.7686	0.1172	0.046
Mof_U 	U 	0.49017	0.36662	0.20705	0.02
Mof_P 	P 	0.602	0.3716	0.5306	0.397
Mof_P 	P 	0.6929	0.11714	0.5881	0.393
Mof_P 	P 	0.635	0.35076	0.0725	0.414
Mof_P 	P 	0.674	0.08541	0.0707	0.431
Mof_O 	O 	0.5821	0.3903	0.6578	-0.553
Mof_O 	O 	0.6612	0.4073	0.5172	-0.354
Mof_O 	O 	0.5517	0.3768	0.4119	-0.232
Mof_O 	O 	0.6771	0.0924	0.4529	-0.166
Mof_O 	O 	0.656	0.0905	0.6871	-0.154
Mof_O 	O 	0.7638	0.116	0.6428	-0.174
Mof_O 	O 	0.6087	0.3702	0.9356	-0.381
Mof_O 	O 	0.7018	0.3773	0.1133	-0.243
Mof_O 	O 	0.5974	0.3645	0.1805	-0.177
Mof_O 	O 	0.6388	0.0616	0.9425	-0.222
Mof_O 	O 	0.7457	0.078	0.0825	-0.489
Mof_O 	O 	0.6522	0.0604	0.1889	-0.226
Mof_O 	O 	0.4953	0.4386	0.1729	-0.385
Mof_C 	C 	0.6268	0.2998	0.5469	-0.041
Mof_C 	C 	0.5892	0.2566	0.4948	-0.015
Mof_H 	H 	0.5483	0.2644	0.4479	0.061
Mof_C 	C 	0.609	0.2028	0.5089	-0.041
Mof_H 	H 	0.5813	0.1737	0.4735	0.067
Mof_C 	C 	0.6682	0.1892	0.5728	-0.026
Mof_C 	C 	0.7072	0.2333	0.6278	-0.052
Mof_H 	H 	0.7479	0.2252	0.675	0.063
Mof_C 	C 	0.6878	0.2873	0.6146	-0.003
Mof_H 	H 	0.7151	0.3165	0.6509	0.021
Mof_C 	C 	0.6456	0.2761	0.0713	-0.003
Mof_C 	C 	0.6423	0.245	0.182	-0.025
Mof_H 	H 	0.6331	0.2631	0.2581	0.066
Mof_C 	C 	0.6524	0.1869	0.1838	-0.036
Mof_H 	H 	0.6522	0.1661	0.2616	0.065
Mof_C 	C 	0.6629	0.16	0.0694	-0.009
Mof_C 	C 	0.6627	0.1905	0.9568	-0.049
Mof_H 	H 	0.667	0.1721	0.8776	0.076
Mof_C 	C 	0.6563	0.2478	0.9594	-0.029
Mof_H 	H 	0.6592	0.2686	0.8828	0.049
Mof_U 	U 	0.99017	0.86662	0.20705	0.018
Mof_P 	P 	0.102	0.8716	0.5306	0.394
Mof_P 	P 	0.1929	0.61714	0.5881	0.393
Mof_P 	P 	0.135	0.85076	0.0725	0.413
Mof_P 	P 	0.174	0.58541	0.0707	0.442
Mof_O 	O 	0.0821	0.8903	0.6578	-0.468
Mof_O 	O 	0.1612	0.9073	0.5172	-0.277
Mof_O 	O 	0.0517	0.8768	0.4119	-0.197
Mof_O 	O 	0.1771	0.5924	0.4529	-0.162
Mof_O 	O 	0.156	0.5905	0.6871	-0.143
Mof_O 	O 	0.2638	0.616	0.6428	-0.171
Mof_O 	O 	0.1087	0.8702	0.9356	-0.332
Mof_O 	O 	0.2018	0.8773	0.1133	-0.209
Mof_O 	O 	0.0974	0.8645	0.1805	-0.154
Mof_O 	O 	0.1388	0.5616	0.9425	-0.191
Mof_O 	O 	0.2457	0.578	0.0825	-0.521
Mof_O 	O 	0.1522	0.5604	0.1889	-0.202
Mof_O 	O 	0.9953	0.9386	0.1729	-0.281
Mof_C 	C 	0.1268	0.7998	0.5469	-0.036
Mof_C 	C 	0.0892	0.7566	0.4948	-0.017
Mof_H 	H 	0.0483	0.7644	0.4479	0.066
Mof_C 	C 	0.109	0.7028	0.5089	-0.038
Mof_H 	H 	0.0813	0.6737	0.4735	0.074
Mof_C 	C 	0.1682	0.6892	0.5728	-0.027
Mof_C 	C 	0.2072	0.7333	0.6278	-0.047
Mof_H 	H 	0.2479	0.7252	0.675	0.061
Mof_C 	C 	0.1878	0.7873	0.6146	-0.01
Mof_H 	H 	0.2151	0.8165	0.6509	0.032
Mof_C 	C 	0.1456	0.7761	0.0713	-0.001
Mof_C 	C 	0.1423	0.745	0.182	-0.027
Mof_H 	H 	0.1331	0.7631	0.2581	0.067
Mof_C 	C 	0.1524	0.6869	0.1838	-0.032
Mof_H 	H 	0.1522	0.6661	0.2616	0.064
Mof_C 	C 	0.1629	0.66	0.0694	-0.012
Mof_C 	C 	0.1627	0.6905	0.9568	-0.045
Mof_H 	H 	0.167	0.6721	0.8776	0.075
Mof_C 	C 	0.1563	0.7478	0.9594	-0.033
Mof_H 	H 	0.1592	0.7686	0.8828	0.053
Mof_U 	U 	0.49017	0.63338	0.20705	0.021
Mof_P 	P 	0.602	0.6284	0.5306	0.398
Mof_P 	P 	0.6929	0.88286	0.5881	0.397
Mof_P 	P 	0.635	0.64924	0.0725	0.414
Mof_P 	P 	0.674	0.91459	0.0707	0.434
Mof_O 	O 	0.5821	0.6097	0.6578	-0.553
Mof_O 	O 	0.6612	0.5927	0.5172	-0.354
Mof_O 	O 	0.5517	0.6232	0.4119	-0.232
Mof_O 	O 	0.6771	0.9076	0.4529	-0.105
Mof_O 	O 	0.656	0.9095	0.6871	-0.088
Mof_O 	O 	0.7638	0.884	0.6428	-0.141
Mof_O 	O 	0.6087	0.6298	0.9356	-0.381
Mof_O 	O 	0.7018	0.6227	0.1133	-0.244
Mof_O 	O 	0.5974	0.6355	0.1805	-0.177
Mof_O 	O 	0.6388	0.9384	0.9425	-0.121
Mof_O 	O 	0.7457	0.922	0.0825	-0.419
Mof_O 	O 	0.6522	0.9396	0.1889	-0.124
Mof_O 	O 	0.4953	0.5614	0.1729	-0.386
Mof_C 	C 	0.6268	0.7002	0.5469	-0.044
Mof_C 	C 	0.5892	0.7434	0.4948	-0.008
Mof_H 	H 	0.5483	0.7356	0.4479	0.061
Mof_C 	C 	0.609	0.7972	0.5089	-0.047
Mof_H 	H 	0.5813	0.8263	0.4735	0.084
Mof_C 	C 	0.6682	0.8108	0.5728	-0.021
Mof_C 	C 	0.7072	0.7667	0.6278	-0.056
Mof_H 	H 	0.7479	0.7748	0.675	0.063
Mof_C 	C 	0.6878	0.7127	0.6146	0
Mof_H 	H 	0.7151	0.6835	0.6509	0.02
Mof_C 	C 	0.6456	0.7239	0.0713	-0.004
Mof_C 	C 	0.6423	0.755	0.182	-0.022
Mof_H 	H 	0.6331	0.7369	0.2581	0.066
Mof_C 	C 	0.6524	0.8131	0.1838	-0.036
Mof_H 	H 	0.6522	0.8339	0.2616	0.07
Mof_C 	C 	0.6629	0.84	0.0694	-0.002
Mof_C 	C 	0.6627	0.8095	0.9568	-0.051
Mof_H 	H 	0.667	0.8279	0.8776	0.08
Mof_C 	C 	0.6563	0.7522	0.9594	-0.026
Mof_H 	H 	0.6592	0.7314	0.8828	0.049
Mof_U 	U 	0.99017	0.13338	0.20705	0.015
Mof_P 	P 	0.102	0.1284	0.5306	0.392
Mof_P 	P 	0.1929	0.38286	0.5881	0.393
Mof_P 	P 	0.135	0.14924	0.0725	0.411
Mof_P 	P 	0.174	0.41459	0.0707	0.443
Mof_O 	O 	0.0821	0.1097	0.6578	-0.508
Mof_O 	O 	0.1612	0.0927	0.5172	-0.34
Mof_O 	O 	0.0517	0.1232	0.4119	-0.224
Mof_O 	O 	0.1771	0.4076	0.4529	-0.162
Mof_O 	O 	0.156	0.4095	0.6871	-0.143
Mof_O 	O 	0.2638	0.384	0.6428	-0.171
Mof_O 	O 	0.1087	0.1298	0.9356	-0.356
Mof_O 	O 	0.2018	0.1227	0.1133	-0.24
Mof_O 	O 	0.0974	0.1355	0.1805	-0.175
Mof_O 	O 	0.1388	0.4384	0.9425	-0.191
Mof_O 	O 	0.2457	0.422	0.0825	-0.521
Mof_O 	O 	0.1522	0.4396	0.1889	-0.202
Mof_O 	O 	0.9953	0.0614	0.1729	-0.385
Mof_C 	C 	0.1268	0.2002	0.5469	-0.035
Mof_C 	C 	0.0892	0.2434	0.4948	-0.017
Mof_H 	H 	0.0483	0.2356	0.4479	0.067
Mof_C 	C 	0.109	0.2972	0.5089	-0.038
Mof_H 	H 	0.0813	0.3263	0.4735	0.074
Mof_C 	C 	0.1682	0.3108	0.5728	-0.026
Mof_C 	C 	0.2072	0.2667	0.6278	-0.048
Mof_H 	H 	0.2479	0.2748	0.675	0.062
Mof_C 	C 	0.1878	0.2127	0.6146	-0.008
Mof_H 	H 	0.2151	0.1835	0.6509	0.028
Mof_C 	C 	0.1456	0.2239	0.0713	0.002
Mof_C 	C 	0.1423	0.255	0.182	-0.028
Mof_H 	H 	0.1331	0.2369	0.2581	0.068
Mof_C 	C 	0.1524	0.3131	0.1838	-0.031
Mof_H 	H 	0.1522	0.3339	0.2616	0.064
Mof_C 	C 	0.1629	0.34	0.0694	-0.012
Mof_C 	C 	0.1627	0.3095	0.9568	-0.044
Mof_H 	H 	0.167	0.3279	0.8776	0.075
Mof_C 	C 	0.1563	0.2522	0.9594	-0.033
Mof_H 	H 	0.1592	0.2314	0.8828	0.053
Mof_U 	U 	0.50983	0.63338	0.79295	0.017
Mof_P 	P 	0.398	0.6284	0.4694	0.398
Mof_P 	P 	0.3071	0.88286	0.4119	0.397
Mof_P 	P 	0.365	0.64924	0.9275	0.393
Mof_P 	P 	0.326	0.91459	0.9293	0.413
Mof_O 	O 	0.4179	0.6097	0.3422	-0.555
Mof_O 	O 	0.3388	0.5927	0.4828	-0.356
Mof_O 	O 	0.4483	0.6232	0.5881	-0.232
Mof_O 	O 	0.3229	0.9076	0.5471	-0.105
Mof_O 	O 	0.344	0.9095	0.3129	-0.086
Mof_O 	O 	0.2362	0.884	0.3572	-0.14
Mof_O 	O 	0.3913	0.6298	0.0644	-0.359
Mof_O 	O 	0.2982	0.6227	0.8867	-0.253
Mof_O 	O 	0.4026	0.6355	0.8195	-0.179
Mof_O 	O 	0.3612	0.9384	0.0575	-0.097
Mof_O 	O 	0.2543	0.922	0.9175	-0.427
Mof_O 	O 	0.3478	0.9396	0.8111	-0.126
Mof_O 	O 	0.5047	0.5614	0.8271	-0.391
Mof_C 	C 	0.3732	0.7002	0.4531	-0.044
Mof_C 	C 	0.4108	0.7434	0.5052	-0.008
Mof_H 	H 	0.4517	0.7356	0.5521	0.06
Mof_C 	C 	0.391	0.7972	0.4911	-0.047
Mof_H 	H 	0.4187	0.8263	0.5265	0.083
Mof_C 	C 	0.3318	0.8108	0.4272	-0.02
Mof_C 	C 	0.2928	0.7667	0.3722	-0.055
Mof_H 	H 	0.2521	0.7748	0.325	0.063
Mof_C 	C 	0.3122	0.7127	0.3854	0.001
Mof_H 	H 	0.2849	0.6835	0.3491	0.02
Mof_C 	C 	0.3544	0.7239	0.9287	-0.038
Mof_C 	C 	0.3577	0.755	0.818	-0.018
Mof_H 	H 	0.3669	0.7369	0.7419	0.064
Mof_C 	C 	0.3476	0.8131	0.8162	-0.031
Mof_H 	H 	0.3478	0.8339	0.7384	0.068
Mof_C 	C 	0.3371	0.84	0.9306	-0.039
Mof_C 	C 	0.3373	0.8095	0.0432	-0.015
Mof_H 	H 	0.333	0.8279	0.1224	0.073
Mof_C 	C 	0.3437	0.7522	0.0406	0.008
Mof_H 	H 	0.3408	0.7314	0.1172	0.043
Mof_U 	U 	0.00983	0.13338	0.79295	0.026
Mof_P 	P 	0.898	0.1284	0.4694	0.393
Mof_P 	P 	0.8071	0.38286	0.4119	0.393
Mof_P 	P 	0.865	0.14924	0.9275	0.389
Mof_P 	P 	0.826	0.41459	0.9293	0.422
Mof_O 	O 	0.9179	0.1097	0.3422	-0.514
Mof_O 	O 	0.8388	0.0927	0.4828	-0.342
Mof_O 	O 	0.9483	0.1232	0.5881	-0.24
Mof_O 	O 	0.8229	0.4076	0.5471	-0.163
Mof_O 	O 	0.844	0.4095	0.3129	-0.144
Mof_O 	O 	0.7362	0.384	0.3572	-0.17
Mof_O 	O 	0.8913	0.1298	0.0644	-0.336
Mof_O 	O 	0.7982	0.1227	0.8867	-0.249
Mof_O 	O 	0.9026	0.1355	0.8195	-0.185
Mof_O 	O 	0.8612	0.4384	0.0575	-0.171
Mof_O 	O 	0.7543	0.422	0.9175	-0.526
Mof_O 	O 	0.8478	0.4396	0.8111	-0.206
Mof_O 	O 	0.0047	0.0614	0.8271	-0.378
Mof_C 	C 	0.8732	0.2002	0.4531	-0.038
Mof_C 	C 	0.9108	0.2434	0.5052	-0.016
Mof_H 	H 	0.9517	0.2356	0.5521	0.057
Mof_C 	C 	0.891	0.2972	0.4911	-0.041
Mof_H 	H 	0.9187	0.3263	0.5265	0.069
Mof_C 	C 	0.8318	0.3108	0.4272	-0.026
Mof_C 	C 	0.7928	0.2667	0.3722	-0.049
Mof_H 	H 	0.7521	0.2748	0.325	0.062
Mof_C 	C 	0.8122	0.2127	0.3854	-0.006
Mof_H 	H 	0.7849	0.1835	0.3491	0.028
Mof_C 	C 	0.8544	0.2239	0.9287	-0.034
Mof_C 	C 	0.8577	0.255	0.818	-0.025
Mof_H 	H 	0.8669	0.2369	0.7419	0.065
Mof_C 	C 	0.8476	0.3131	0.8162	-0.028
Mof_H 	H 	0.8478	0.3339	0.7384	0.061
Mof_C 	C 	0.8371	0.34	0.9306	-0.05
Mof_C 	C 	0.8373	0.3095	0.0432	-0.009
Mof_H 	H 	0.833	0.3279	0.1224	0.068
Mof_C 	C 	0.8437	0.2522	0.0406	-0
Mof_H 	H 	0.8408	0.2314	0.1172	0.047
Mof_U 	U 	0.32762	-2.39216e-33	0.63185	0.013
Mof_U 	U 	0.34215	-1.19608e-33	0.221	-0.039
Mof_F 	F 	0.2954	-2.39216e-33	0.4087	-0.366
Mof_O 	O 	0.247	-7.17649e-33	0.6463	-0.478
Mof_U 	U 	0.82762	0.5	0.63185	0.074
Mof_U 	U 	0.84215	0.5	0.221	0.031
Mof_F 	F 	0.7954	0.5	0.4087	-0.317
Mof_O 	O 	0.747	0.5	0.6463	-0.477
Mof_U 	U 	0.67238	0	0.36815	0.014
Mof_U 	U 	0.65785	-4.78433e-33	0.779	-0.043
Mof_F 	F 	0.7046	-2.39216e-33	0.5913	-0.367
Mof_O 	O 	0.753	-2.39216e-33	0.3537	-0.48
Mof_U 	U 	0.17238	0.5	0.36815	0.077
Mof_U 	U 	0.15785	0.5	0.779	0.03
Mof_F 	F 	0.2046	0.5	0.5913	-0.318
Mof_O 	O 	0.253	0.5	0.3537	-0.48
Mof_Cs	Cs	0.36121	0.5	0.21283	4.888
Mof_Cs	Cs	0.86121	-1.19608e-33	0.21283	4.179
Mof_Cs	Cs	0.63879	0.5	0.78717	4.844
Mof_Cs	Cs	0.13879	-4.78433e-33	0.78717	4.157
Mof_F 	F 	0.5	0.3335	-0	-0.325
Mof_F 	F 	9.56866e-33	0.8335	-0	-0.314
Mof_F 	F 	0.5	0.6665	-0	-0.323
Mof_F 	F 	-0	0.1665	-0	-0.315
_end
