data_functionalizedCrystal
_audit_creation_method	'EQeq! by Chris Wilmer'
_symmetry_space_group_name_H-M	'P1'
_symmetry_Int_Tables_number	1
_symmetry_cell_setting	triclinic
loop_
_symmetry_equiv_pos_as_xyz
  x,y,z
_cell_length_a	22.8727
_cell_length_b	22.8727
_cell_length_c	19.059
_cell_angle_alpha	90
_cell_angle_beta	90
_cell_angle_gamma	90
loop_
_atom_site_label
_atom_site_type_symbol
_atom_site_fract_x
_atom_site_fract_y
_atom_site_fract_z
_atom_site_charge
Mof_F 	F 	0.3689	0.2963	0.132	-0.122
Mof_F 	F 	0.3825	0.3611	0.209	-0.086
Mof_F 	F 	0.358	0.3852	0.1067	-0.101
Mof_O 	O 	0.1581	0.4412	0.0697	-0.645
Mof_O 	O 	0.088	0.3936	0.1275	-0.696
Mof_N 	N 	0.044	0.2842	0.4708	0.62
Mof_H 	H 	0.0385	0.2481	0.4532	-0.067
Mof_H 	H 	0.0502	0.289	0.5171	-0.51
Mof_C 	C 	0.2661	0.3085	0.2333	0.524
Mof_C 	C 	0.2841	0.3427	0.1767	-0.763
Mof_C 	C 	0.2431	0.3741	0.1381	0.659
Mof_H 	H 	0.2556	0.3972	0.0994	-0.072
Mof_C 	C 	0.1849	0.3722	0.1552	-0.525
Mof_C 	C 	0.1657	0.3384	0.211	0.658
Mof_H 	H 	0.1253	0.3369	0.2227	-0.102
Mof_C 	C 	0.2067	0.3067	0.2499	-0.799
Mof_H 	H 	0.1939	0.2835	0.2883	1.049
Mof_C 	C 	0.3472	0.3459	0.157	-0.654
Mof_C 	C 	0.1407	0.4048	0.1144	0.71
Mof_C 	C 	0.0358	0.3999	0.5284	0.003
Mof_C 	C 	0.0274	0.3875	0.452	0
Mof_C 	C 	0.0346	0.3318	0.4254	-0.006
Mof_C 	C 	0.0254	0.3214	0.3542	-0.421
Mof_H 	H 	0.0272	0.283	0.3341	0.193
Mof_C 	C 	0.0091	0.3667	0.3101	1.261
Mof_H 	H 	0.9946	0.4552	0.308	-0.251
Mof_C 	C 	0.0116	0.4332	0.4075	-0.061
Mof_H 	H 	0.0099	0.4717	0.4275	-0.56
Mof_F 	F 	0.2121	0.283	0.3705	-0.138
Mof_F 	F 	0.1284	0.2781	0.3227	-0.184
Mof_F 	F 	0.1923	0.2133	0.3005	-0.142
Mof_O 	O 	0.0897	0.4788	0.7635	-0.145
Mof_H 	H 	0.1144	0.452	0.4547	0.191
Mof_H 	H 	0.1438	0.4871	0.5129	0.07
Mof_H 	H 	0.3244	0.3445	0.1645	0.996
Mof_C 	C 	0.1857	0.2705	0.3103	-0.717
Mof_C 	C 	0.078	0.4396	0.5499	0.017
Mof_C 	C 	0.0818	0.456	0.6198	0.068
Mof_H 	H 	0.11	0.4848	0.6338	0.028
Mof_C 	C 	0.0435	0.4324	0.6689	-0.069
Mof_H 	H 	0.9719	0.3798	0.6797	-0.837
Mof_H 	H 	0.9718	0.3459	0.5639	0.052
Mof_C 	C 	0.0446	0.4524	0.7443	0.263
Mof_F 	F 	0.6311	0.7037	0.132	-0.123
Mof_F 	F 	0.6175	0.6389	0.209	-0.087
Mof_F 	F 	0.642	0.6148	0.1067	-0.102
Mof_O 	O 	0.8419	0.5588	0.0697	-0.643
Mof_O 	O 	0.912	0.6064	0.1275	-0.662
Mof_N 	N 	0.956	0.7158	0.4708	0.629
Mof_H 	H 	0.9615	0.7519	0.4532	-0.015
Mof_H 	H 	0.9498	0.711	0.5171	-0.516
Mof_C 	C 	0.7339	0.6915	0.2333	0.522
Mof_C 	C 	0.7159	0.6573	0.1767	-0.76
Mof_C 	C 	0.7569	0.6259	0.1381	0.656
Mof_H 	H 	0.7444	0.6028	0.0994	-0.07
Mof_C 	C 	0.8151	0.6278	0.1552	-0.514
Mof_C 	C 	0.8343	0.6616	0.211	0.654
Mof_H 	H 	0.8747	0.6631	0.2227	-0.091
Mof_C 	C 	0.7933	0.6933	0.2499	-0.793
Mof_H 	H 	0.8061	0.7165	0.2883	1.05
Mof_C 	C 	0.6528	0.6541	0.157	-0.657
Mof_C 	C 	0.8593	0.5952	0.1144	0.702
Mof_C 	C 	0.9642	0.6001	0.5284	0.105
Mof_C 	C 	0.9726	0.6125	0.452	-0.019
Mof_C 	C 	0.9654	0.6682	0.4254	0.085
Mof_C 	C 	0.9746	0.6786	0.3542	-0.157
Mof_H 	H 	0.9728	0.717	0.3341	0.179
Mof_C 	C 	0.9909	0.6333	0.3101	0.977
Mof_H 	H 	0.0054	0.5448	0.308	0.093
Mof_C 	C 	0.9884	0.5668	0.4075	0.082
Mof_H 	H 	0.9901	0.5283	0.4275	0.588
Mof_F 	F 	0.7879	0.717	0.3705	-0.133
Mof_F 	F 	0.8716	0.7219	0.3227	-0.174
Mof_F 	F 	0.8077	0.7867	0.3005	-0.119
Mof_O 	O 	0.9103	0.5212	0.7635	-0.166
Mof_H 	H 	0.8856	0.548	0.4547	0.291
Mof_H 	H 	0.8562	0.5129	0.5129	0.067
Mof_H 	H 	0.6756	0.6555	0.1645	0.998
Mof_C 	C 	0.8143	0.7295	0.3103	-0.719
Mof_C 	C 	0.922	0.5604	0.5499	-0.208
Mof_C 	C 	0.9182	0.544	0.6198	-0.03
Mof_H 	H 	0.89	0.5152	0.6338	0.041
Mof_C 	C 	0.9565	0.5676	0.6689	0.02
Mof_H 	H 	0.0281	0.6202	0.6797	-0.94
Mof_H 	H 	0.0282	0.6541	0.5639	0.098
Mof_C 	C 	0.9554	0.5476	0.7443	0.377
Mof_F 	F 	0.7037	0.3689	0.632	-0.124
Mof_F 	F 	0.6389	0.3825	0.709	-0.087
Mof_F 	F 	0.6148	0.358	0.6067	-0.103
Mof_O 	O 	0.5588	0.1581	0.5697	-0.646
Mof_O 	O 	0.6064	0.088	0.6275	-0.696
Mof_N 	N 	0.7158	0.044	0.9708	0.623
Mof_H 	H 	0.7519	0.0385	0.9532	-0.06
Mof_H 	H 	0.711	0.0502	0.0171	-0.513
Mof_C 	C 	0.6915	0.2661	0.7333	0.524
Mof_C 	C 	0.6573	0.2841	0.6767	-0.763
Mof_C 	C 	0.6259	0.2431	0.6381	0.659
Mof_H 	H 	0.6028	0.2556	0.5994	-0.072
Mof_C 	C 	0.6278	0.1849	0.6552	-0.524
Mof_C 	C 	0.6616	0.1657	0.711	0.658
Mof_H 	H 	0.6631	0.1253	0.7227	-0.101
Mof_C 	C 	0.6933	0.2067	0.7499	-0.797
Mof_H 	H 	0.7165	0.1939	0.7883	1.048
Mof_C 	C 	0.6541	0.3472	0.657	-0.655
Mof_C 	C 	0.5952	0.1407	0.6144	0.711
Mof_C 	C 	0.6001	0.0358	0.0284	0.004
Mof_C 	C 	0.6125	0.0274	0.952	-0.001
Mof_C 	C 	0.6682	0.0346	0.9254	-0.008
Mof_C 	C 	0.6786	0.0254	0.8542	-0.423
Mof_H 	H 	0.717	0.0272	0.8341	0.198
Mof_C 	C 	0.6333	0.0091	0.8101	1.26
Mof_H 	H 	0.5448	0.9946	0.808	-0.255
Mof_C 	C 	0.5668	0.0116	0.9075	-0.06
Mof_H 	H 	0.5283	0.0099	0.9275	-0.569
Mof_F 	F 	0.717	0.2121	0.8705	-0.135
Mof_F 	F 	0.7219	0.1284	0.8227	-0.179
Mof_F 	F 	0.7867	0.1923	0.8005	-0.13
Mof_O 	O 	0.5212	0.0897	0.2635	-0.145
Mof_H 	H 	0.548	0.1144	0.9547	0.19
Mof_H 	H 	0.5129	0.1438	0.0129	0.071
Mof_H 	H 	0.6555	0.3244	0.6645	0.997
Mof_C 	C 	0.7295	0.1857	0.8103	-0.715
Mof_C 	C 	0.5604	0.078	0.0499	0.017
Mof_C 	C 	0.544	0.0818	0.1198	0.069
Mof_H 	H 	0.5152	0.11	0.1338	0.027
Mof_C 	C 	0.5676	0.0435	0.1689	-0.07
Mof_H 	H 	0.6202	0.9719	0.1797	-0.83
Mof_H 	H 	0.6541	0.9718	0.0639	0.053
Mof_C 	C 	0.5476	0.0446	0.2443	0.263
Mof_F 	F 	0.2963	0.6311	0.632	-0.122
Mof_F 	F 	0.3611	0.6175	0.709	-0.086
Mof_F 	F 	0.3852	0.642	0.6067	-0.102
Mof_O 	O 	0.4412	0.8419	0.5697	-0.643
Mof_O 	O 	0.3936	0.912	0.6275	-0.663
Mof_N 	N 	0.2842	0.956	0.9708	0.625
Mof_H 	H 	0.2481	0.9615	0.9532	-0.022
Mof_H 	H 	0.289	0.9498	0.0171	-0.513
Mof_C 	C 	0.3085	0.7339	0.7333	0.522
Mof_C 	C 	0.3427	0.7159	0.6767	-0.76
Mof_C 	C 	0.3741	0.7569	0.6381	0.655
Mof_H 	H 	0.3972	0.7444	0.5994	-0.07
Mof_C 	C 	0.3722	0.8151	0.6552	-0.515
Mof_C 	C 	0.3384	0.8343	0.711	0.654
Mof_H 	H 	0.3369	0.8747	0.7227	-0.092
Mof_C 	C 	0.3067	0.7933	0.7499	-0.795
Mof_H 	H 	0.2835	0.8061	0.7883	1.052
Mof_C 	C 	0.3459	0.6528	0.657	-0.657
Mof_C 	C 	0.4048	0.8593	0.6144	0.701
Mof_C 	C 	0.3999	0.9642	0.0284	0.106
Mof_C 	C 	0.3875	0.9726	0.952	-0.021
Mof_C 	C 	0.3318	0.9654	0.9254	0.086
Mof_C 	C 	0.3214	0.9746	0.8542	-0.155
Mof_H 	H 	0.283	0.9728	0.8341	0.174
Mof_C 	C 	0.3667	0.9909	0.8101	0.979
Mof_H 	H 	0.4552	0.0054	0.808	0.096
Mof_C 	C 	0.4332	0.9884	0.9075	0.083
Mof_H 	H 	0.4717	0.9901	0.9275	0.596
Mof_F 	F 	0.283	0.7879	0.8705	-0.137
Mof_F 	F 	0.2781	0.8716	0.8227	-0.179
Mof_F 	F 	0.2133	0.8077	0.8005	-0.13
Mof_O 	O 	0.4788	0.9103	0.2635	-0.167
Mof_H 	H 	0.452	0.8856	0.9547	0.291
Mof_H 	H 	0.4871	0.8562	0.0129	0.068
Mof_H 	H 	0.3445	0.6756	0.6645	0.997
Mof_C 	C 	0.2705	0.8143	0.8103	-0.721
Mof_C 	C 	0.4396	0.922	0.0499	-0.209
Mof_C 	C 	0.456	0.9182	0.1198	-0.032
Mof_H 	H 	0.4848	0.89	0.1338	0.042
Mof_C 	C 	0.4324	0.9565	0.1689	0.023
Mof_H 	H 	0.3798	0.0281	0.1797	-0.944
Mof_H 	H 	0.3459	0.0282	0.0639	0.098
Mof_C 	C 	0.4524	0.9554	0.2443	0.379
Mof_F 	F 	0.6311	0.2963	0.868	-0.122
Mof_F 	F 	0.6175	0.3611	0.791	-0.086
Mof_F 	F 	0.642	0.3852	0.8933	-0.102
Mof_O 	O 	0.8419	0.4412	0.9303	-0.644
Mof_O 	O 	0.912	0.3936	0.8725	-0.664
Mof_N 	N 	0.956	0.2842	0.5292	0.625
Mof_H 	H 	0.9615	0.2481	0.5468	-0.022
Mof_H 	H 	0.9498	0.289	0.4829	-0.513
Mof_C 	C 	0.7339	0.3085	0.7667	0.522
Mof_C 	C 	0.7159	0.3427	0.8233	-0.761
Mof_C 	C 	0.7569	0.3741	0.8619	0.656
Mof_H 	H 	0.7444	0.3972	0.9006	-0.07
Mof_C 	C 	0.8151	0.3722	0.8448	-0.515
Mof_C 	C 	0.8343	0.3384	0.789	0.654
Mof_H 	H 	0.8747	0.3369	0.7773	-0.093
Mof_C 	C 	0.7933	0.3067	0.7501	-0.795
Mof_H 	H 	0.8061	0.2835	0.7117	1.052
Mof_C 	C 	0.6528	0.3459	0.843	-0.657
Mof_C 	C 	0.8593	0.4048	0.8856	0.702
Mof_C 	C 	0.9642	0.3999	0.4716	0.104
Mof_C 	C 	0.9726	0.3875	0.548	-0.019
Mof_C 	C 	0.9654	0.3318	0.5746	0.086
Mof_C 	C 	0.9746	0.3214	0.6458	-0.157
Mof_H 	H 	0.9728	0.283	0.6659	0.174
Mof_C 	C 	0.9909	0.3667	0.6899	0.981
Mof_H 	H 	0.0054	0.4552	0.692	0.092
Mof_C 	C 	0.9884	0.4332	0.5925	0.082
Mof_H 	H 	0.9901	0.4717	0.5725	0.588
Mof_F 	F 	0.7879	0.283	0.6295	-0.137
Mof_F 	F 	0.8716	0.2781	0.6773	-0.179
Mof_F 	F 	0.8077	0.2133	0.6995	-0.13
Mof_O 	O 	0.9103	0.4788	0.2365	-0.166
Mof_H 	H 	0.8856	0.452	0.5453	0.291
Mof_H 	H 	0.8562	0.4871	0.4871	0.067
Mof_H 	H 	0.6756	0.3445	0.8355	0.997
Mof_C 	C 	0.8143	0.2705	0.6897	-0.721
Mof_C 	C 	0.922	0.4396	0.4501	-0.207
Mof_C 	C 	0.9182	0.456	0.3802	-0.031
Mof_H 	H 	0.89	0.4848	0.3662	0.041
Mof_C 	C 	0.9565	0.4324	0.3311	0.021
Mof_H 	H 	0.0281	0.3798	0.3203	-0.944
Mof_H 	H 	0.0282	0.3459	0.4361	0.097
Mof_C 	C 	0.9554	0.4524	0.2557	0.377
Mof_F 	F 	0.3689	0.7037	0.868	-0.124
Mof_F 	F 	0.3825	0.6389	0.791	-0.087
Mof_F 	F 	0.358	0.6148	0.8933	-0.103
Mof_O 	O 	0.1581	0.5588	0.9303	-0.646
Mof_O 	O 	0.088	0.6064	0.8725	-0.696
Mof_N 	N 	0.044	0.7158	0.5292	0.623
Mof_H 	H 	0.0385	0.7519	0.5468	-0.059
Mof_H 	H 	0.0502	0.711	0.4829	-0.513
Mof_C 	C 	0.2661	0.6915	0.7667	0.524
Mof_C 	C 	0.2841	0.6573	0.8233	-0.763
Mof_C 	C 	0.2431	0.6259	0.8619	0.659
Mof_H 	H 	0.2556	0.6028	0.9006	-0.072
Mof_C 	C 	0.1849	0.6278	0.8448	-0.524
Mof_C 	C 	0.1657	0.6616	0.789	0.658
Mof_H 	H 	0.1253	0.6631	0.7773	-0.101
Mof_C 	C 	0.2067	0.6933	0.7501	-0.797
Mof_H 	H 	0.1939	0.7165	0.7117	1.048
Mof_C 	C 	0.3472	0.6541	0.843	-0.655
Mof_C 	C 	0.1407	0.5952	0.8856	0.71
Mof_C 	C 	0.0358	0.6001	0.4716	0.004
Mof_C 	C 	0.0274	0.6125	0.548	-0
Mof_C 	C 	0.0346	0.6682	0.5746	-0.006
Mof_C 	C 	0.0254	0.6786	0.6458	-0.421
Mof_H 	H 	0.0272	0.717	0.6659	0.198
Mof_C 	C 	0.0091	0.6333	0.6899	1.256
Mof_H 	H 	0.9946	0.5448	0.692	-0.251
Mof_C 	C 	0.0116	0.5668	0.5925	-0.061
Mof_H 	H 	0.0099	0.5283	0.5725	-0.561
Mof_F 	F 	0.2121	0.717	0.6295	-0.134
Mof_F 	F 	0.1284	0.7219	0.6773	-0.178
Mof_F 	F 	0.1923	0.7867	0.6995	-0.13
Mof_O 	O 	0.0897	0.5212	0.2365	-0.145
Mof_H 	H 	0.1144	0.548	0.5453	0.191
Mof_H 	H 	0.1438	0.5129	0.4871	0.07
Mof_H 	H 	0.3244	0.6555	0.8355	0.997
Mof_C 	C 	0.1857	0.7295	0.6897	-0.715
Mof_C 	C 	0.078	0.5604	0.4501	0.016
Mof_C 	C 	0.0818	0.544	0.3802	0.069
Mof_H 	H 	0.11	0.5152	0.3662	0.027
Mof_C 	C 	0.0435	0.5676	0.3311	-0.07
Mof_H 	H 	0.9719	0.6202	0.3203	-0.833
Mof_H 	H 	0.9718	0.6541	0.4361	0.053
Mof_C 	C 	0.0446	0.5476	0.2557	0.264
Mof_F 	F 	0.2963	0.3689	0.368	-0.123
Mof_F 	F 	0.3611	0.3825	0.291	-0.087
Mof_F 	F 	0.3852	0.358	0.3933	-0.102
Mof_O 	O 	0.4412	0.1581	0.4303	-0.647
Mof_O 	O 	0.3936	0.088	0.3725	-0.697
Mof_N 	N 	0.2842	0.044	0.0292	0.619
Mof_H 	H 	0.2481	0.0385	0.0468	-0.067
Mof_H 	H 	0.289	0.0502	0.9829	-0.51
Mof_C 	C 	0.3085	0.2661	0.2667	0.524
Mof_C 	C 	0.3427	0.2841	0.3233	-0.763
Mof_C 	C 	0.3741	0.2431	0.3619	0.659
Mof_H 	H 	0.3972	0.2556	0.4006	-0.072
Mof_C 	C 	0.3722	0.1849	0.3448	-0.525
Mof_C 	C 	0.3384	0.1657	0.289	0.658
Mof_H 	H 	0.3369	0.1253	0.2773	-0.102
Mof_C 	C 	0.3067	0.2067	0.2501	-0.799
Mof_H 	H 	0.2835	0.1939	0.2117	1.049
Mof_C 	C 	0.3459	0.3472	0.343	-0.654
Mof_C 	C 	0.4048	0.1407	0.3856	0.71
Mof_C 	C 	0.3999	0.0358	0.9716	0.002
Mof_C 	C 	0.3875	0.0274	0.048	0.001
Mof_C 	C 	0.3318	0.0346	0.0746	-0.006
Mof_C 	C 	0.3214	0.0254	0.1458	-0.423
Mof_H 	H 	0.283	0.0272	0.1659	0.194
Mof_C 	C 	0.3667	0.0091	0.1899	1.264
Mof_H 	H 	0.4552	0.9946	0.192	-0.255
Mof_C 	C 	0.4332	0.0116	0.0925	-0.061
Mof_H 	H 	0.4717	0.0099	0.0725	-0.569
Mof_F 	F 	0.283	0.2121	0.1295	-0.138
Mof_F 	F 	0.2781	0.1284	0.1773	-0.183
Mof_F 	F 	0.2133	0.1923	0.1995	-0.142
Mof_O 	O 	0.4788	0.0897	0.7365	-0.144
Mof_H 	H 	0.452	0.1144	0.0453	0.19
Mof_H 	H 	0.4871	0.1438	0.9871	0.069
Mof_H 	H 	0.3445	0.3244	0.3355	0.996
Mof_C 	C 	0.2705	0.1857	0.1897	-0.717
Mof_C 	C 	0.4396	0.078	0.9501	0.019
Mof_C 	C 	0.456	0.0818	0.8802	0.067
Mof_H 	H 	0.4848	0.11	0.8662	0.028
Mof_C 	C 	0.4324	0.0435	0.8311	-0.067
Mof_H 	H 	0.3798	0.9719	0.8203	-0.835
Mof_H 	H 	0.3459	0.9718	0.9361	0.052
Mof_C 	C 	0.4524	0.0446	0.7557	0.262
Mof_F 	F 	0.7037	0.6311	0.368	-0.123
Mof_F 	F 	0.6389	0.6175	0.291	-0.087
Mof_F 	F 	0.6148	0.642	0.3933	-0.102
Mof_O 	O 	0.5588	0.8419	0.4303	-0.643
Mof_O 	O 	0.6064	0.912	0.3725	-0.661
Mof_N 	N 	0.7158	0.956	0.0292	0.629
Mof_H 	H 	0.7519	0.9615	0.0468	-0.015
Mof_H 	H 	0.711	0.9498	0.9829	-0.516
Mof_C 	C 	0.6915	0.7339	0.2667	0.522
Mof_C 	C 	0.6573	0.7159	0.3233	-0.76
Mof_C 	C 	0.6259	0.7569	0.3619	0.655
Mof_H 	H 	0.6028	0.7444	0.4006	-0.07
Mof_C 	C 	0.6278	0.8151	0.3448	-0.514
Mof_C 	C 	0.6616	0.8343	0.289	0.654
Mof_H 	H 	0.6631	0.8747	0.2773	-0.091
Mof_C 	C 	0.6933	0.7933	0.2501	-0.793
Mof_H 	H 	0.7165	0.8061	0.2117	1.05
Mof_C 	C 	0.6541	0.6528	0.343	-0.657
Mof_C 	C 	0.5952	0.8593	0.3856	0.702
Mof_C 	C 	0.6001	0.9642	0.9716	0.105
Mof_C 	C 	0.6125	0.9726	0.048	-0.02
Mof_C 	C 	0.6682	0.9654	0.0746	0.087
Mof_C 	C 	0.6786	0.9746	0.1458	-0.154
Mof_H 	H 	0.717	0.9728	0.1659	0.178
Mof_C 	C 	0.6333	0.9909	0.1899	0.974
Mof_H 	H 	0.5448	0.0054	0.192	0.096
Mof_C 	C 	0.5668	0.9884	0.0925	0.084
Mof_H 	H 	0.5283	0.9901	0.0725	0.596
Mof_F 	F 	0.717	0.7879	0.1295	-0.134
Mof_F 	F 	0.7219	0.8716	0.1773	-0.174
Mof_F 	F 	0.7867	0.8077	0.1995	-0.119
Mof_O 	O 	0.5212	0.9103	0.7365	-0.167
Mof_H 	H 	0.548	0.8856	0.0453	0.292
Mof_H 	H 	0.5129	0.8562	0.9871	0.066
Mof_H 	H 	0.6555	0.6756	0.3355	0.998
Mof_C 	C 	0.7295	0.8143	0.1897	-0.719
Mof_C 	C 	0.5604	0.922	0.9501	-0.209
Mof_C 	C 	0.544	0.9182	0.8802	-0.032
Mof_H 	H 	0.5152	0.89	0.8662	0.042
Mof_C 	C 	0.5676	0.9565	0.8311	0.024
Mof_H 	H 	0.6202	0.0281	0.8203	-0.939
Mof_H 	H 	0.6541	0.0282	0.9361	0.099
Mof_C 	C 	0.5476	0.9554	0.7557	0.379
Mof_F 	F 	0.6311	0.7037	0.868	-0.123
Mof_F 	F 	0.6175	0.6389	0.791	-0.087
Mof_F 	F 	0.642	0.6148	0.8933	-0.102
Mof_O 	O 	0.8419	0.5588	0.9303	-0.643
Mof_O 	O 	0.912	0.6064	0.8725	-0.662
Mof_N 	N 	0.956	0.7158	0.5292	0.629
Mof_H 	H 	0.9615	0.7519	0.5468	-0.015
Mof_H 	H 	0.9498	0.711	0.4829	-0.516
Mof_C 	C 	0.7339	0.6915	0.7667	0.522
Mof_C 	C 	0.7159	0.6573	0.8233	-0.76
Mof_C 	C 	0.7569	0.6259	0.8619	0.656
Mof_H 	H 	0.7444	0.6028	0.9006	-0.07
Mof_C 	C 	0.8151	0.6278	0.8448	-0.514
Mof_C 	C 	0.8343	0.6616	0.789	0.654
Mof_H 	H 	0.8747	0.6631	0.7773	-0.091
Mof_C 	C 	0.7933	0.6933	0.7501	-0.793
Mof_H 	H 	0.8061	0.7165	0.7117	1.05
Mof_C 	C 	0.6528	0.6541	0.843	-0.657
Mof_C 	C 	0.8593	0.5952	0.8856	0.702
Mof_C 	C 	0.9642	0.6001	0.4716	0.105
Mof_C 	C 	0.9726	0.6125	0.548	-0.019
Mof_C 	C 	0.9654	0.6682	0.5746	0.085
Mof_C 	C 	0.9746	0.6786	0.6458	-0.157
Mof_H 	H 	0.9728	0.717	0.6659	0.179
Mof_C 	C 	0.9909	0.6333	0.6899	0.977
Mof_H 	H 	0.0054	0.5448	0.692	0.093
Mof_C 	C 	0.9884	0.5668	0.5925	0.082
Mof_H 	H 	0.9901	0.5283	0.5725	0.588
Mof_F 	F 	0.7879	0.717	0.6295	-0.133
Mof_F 	F 	0.8716	0.7219	0.6773	-0.174
Mof_F 	F 	0.8077	0.7867	0.6995	-0.119
Mof_O 	O 	0.9103	0.5212	0.2365	-0.166
Mof_H 	H 	0.8856	0.548	0.5453	0.291
Mof_H 	H 	0.8562	0.5129	0.4871	0.067
Mof_H 	H 	0.6756	0.6555	0.8355	0.998
Mof_C 	C 	0.8143	0.7295	0.6897	-0.719
Mof_C 	C 	0.922	0.5604	0.4501	-0.208
Mof_C 	C 	0.9182	0.544	0.3802	-0.03
Mof_H 	H 	0.89	0.5152	0.3662	0.041
Mof_C 	C 	0.9565	0.5676	0.3311	0.02
Mof_H 	H 	0.0281	0.6202	0.3203	-0.94
Mof_H 	H 	0.0282	0.6541	0.4361	0.098
Mof_C 	C 	0.9554	0.5476	0.2557	0.377
Mof_F 	F 	0.3689	0.2963	0.868	-0.123
Mof_F 	F 	0.3825	0.3611	0.791	-0.087
Mof_F 	F 	0.358	0.3852	0.8933	-0.103
Mof_O 	O 	0.1581	0.4412	0.9303	-0.647
Mof_O 	O 	0.088	0.3936	0.8725	-0.697
Mof_N 	N 	0.044	0.2842	0.5292	0.619
Mof_H 	H 	0.0385	0.2481	0.5468	-0.067
Mof_H 	H 	0.0502	0.289	0.4829	-0.51
Mof_C 	C 	0.2661	0.3085	0.7667	0.524
Mof_C 	C 	0.2841	0.3427	0.8233	-0.763
Mof_C 	C 	0.2431	0.3741	0.8619	0.659
Mof_H 	H 	0.2556	0.3972	0.9006	-0.072
Mof_C 	C 	0.1849	0.3722	0.8448	-0.525
Mof_C 	C 	0.1657	0.3384	0.789	0.658
Mof_H 	H 	0.1253	0.3369	0.7773	-0.102
Mof_C 	C 	0.2067	0.3067	0.7501	-0.799
Mof_H 	H 	0.1939	0.2835	0.7117	1.049
Mof_C 	C 	0.3472	0.3459	0.843	-0.654
Mof_C 	C 	0.1407	0.4048	0.8856	0.71
Mof_C 	C 	0.0358	0.3999	0.4716	0.003
Mof_C 	C 	0.0274	0.3875	0.548	0
Mof_C 	C 	0.0346	0.3318	0.5746	-0.006
Mof_C 	C 	0.0254	0.3214	0.6458	-0.421
Mof_H 	H 	0.0272	0.283	0.6659	0.193
Mof_C 	C 	0.0091	0.3667	0.6899	1.261
Mof_H 	H 	0.9946	0.4552	0.692	-0.251
Mof_C 	C 	0.0116	0.4332	0.5925	-0.061
Mof_H 	H 	0.0099	0.4717	0.5725	-0.561
Mof_F 	F 	0.2121	0.283	0.6295	-0.138
Mof_F 	F 	0.1284	0.2781	0.6773	-0.184
Mof_F 	F 	0.1923	0.2133	0.6995	-0.142
Mof_O 	O 	0.0897	0.4788	0.2365	-0.145
Mof_H 	H 	0.1144	0.452	0.5453	0.191
Mof_H 	H 	0.1438	0.4871	0.4871	0.07
Mof_H 	H 	0.3244	0.3445	0.8355	0.996
Mof_C 	C 	0.1857	0.2705	0.6897	-0.717
Mof_C 	C 	0.078	0.4396	0.4501	0.017
Mof_C 	C 	0.0818	0.456	0.3802	0.068
Mof_H 	H 	0.11	0.4848	0.3662	0.028
Mof_C 	C 	0.0435	0.4324	0.3311	-0.069
Mof_H 	H 	0.9719	0.3798	0.3203	-0.838
Mof_H 	H 	0.9718	0.3459	0.4361	0.052
Mof_C 	C 	0.0446	0.4524	0.2557	0.263
Mof_F 	F 	0.2963	0.6311	0.368	-0.122
Mof_F 	F 	0.3611	0.6175	0.291	-0.086
Mof_F 	F 	0.3852	0.642	0.3933	-0.102
Mof_O 	O 	0.4412	0.8419	0.4303	-0.643
Mof_O 	O 	0.3936	0.912	0.3725	-0.663
Mof_N 	N 	0.2842	0.956	0.0292	0.625
Mof_H 	H 	0.2481	0.9615	0.0468	-0.022
Mof_H 	H 	0.289	0.9498	0.9829	-0.513
Mof_C 	C 	0.3085	0.7339	0.2667	0.522
Mof_C 	C 	0.3427	0.7159	0.3233	-0.76
Mof_C 	C 	0.3741	0.7569	0.3619	0.655
Mof_H 	H 	0.3972	0.7444	0.4006	-0.07
Mof_C 	C 	0.3722	0.8151	0.3448	-0.515
Mof_C 	C 	0.3384	0.8343	0.289	0.654
Mof_H 	H 	0.3369	0.8747	0.2773	-0.092
Mof_C 	C 	0.3067	0.7933	0.2501	-0.795
Mof_H 	H 	0.2835	0.8061	0.2117	1.052
Mof_C 	C 	0.3459	0.6528	0.343	-0.657
Mof_C 	C 	0.4048	0.8593	0.3856	0.701
Mof_C 	C 	0.3999	0.9642	0.9716	0.105
Mof_C 	C 	0.3875	0.9726	0.048	-0.019
Mof_C 	C 	0.3318	0.9654	0.0746	0.087
Mof_C 	C 	0.3214	0.9746	0.1458	-0.155
Mof_H 	H 	0.283	0.9728	0.1659	0.174
Mof_C 	C 	0.3667	0.9909	0.1899	0.978
Mof_H 	H 	0.4552	0.0054	0.192	0.096
Mof_C 	C 	0.4332	0.9884	0.0925	0.084
Mof_H 	H 	0.4717	0.9901	0.0725	0.596
Mof_F 	F 	0.283	0.7879	0.1295	-0.137
Mof_F 	F 	0.2781	0.8716	0.1773	-0.179
Mof_F 	F 	0.2133	0.8077	0.1995	-0.13
Mof_O 	O 	0.4788	0.9103	0.7365	-0.167
Mof_H 	H 	0.452	0.8856	0.0453	0.292
Mof_H 	H 	0.4871	0.8562	0.9871	0.066
Mof_H 	H 	0.3445	0.6756	0.3355	0.997
Mof_C 	C 	0.2705	0.8143	0.1897	-0.721
Mof_C 	C 	0.4396	0.922	0.9501	-0.208
Mof_C 	C 	0.456	0.9182	0.8802	-0.033
Mof_H 	H 	0.4848	0.89	0.8662	0.042
Mof_C 	C 	0.4324	0.9565	0.8311	0.024
Mof_H 	H 	0.3798	0.0281	0.8203	-0.944
Mof_H 	H 	0.3459	0.0282	0.9361	0.098
Mof_C 	C 	0.4524	0.9554	0.7557	0.379
Mof_F 	F 	0.7037	0.3689	0.368	-0.124
Mof_F 	F 	0.6389	0.3825	0.291	-0.087
Mof_F 	F 	0.6148	0.358	0.3933	-0.103
Mof_O 	O 	0.5588	0.1581	0.4303	-0.646
Mof_O 	O 	0.6064	0.088	0.3725	-0.696
Mof_N 	N 	0.7158	0.044	0.0292	0.623
Mof_H 	H 	0.7519	0.0385	0.0468	-0.06
Mof_H 	H 	0.711	0.0502	0.9829	-0.513
Mof_C 	C 	0.6915	0.2661	0.2667	0.524
Mof_C 	C 	0.6573	0.2841	0.3233	-0.763
Mof_C 	C 	0.6259	0.2431	0.3619	0.659
Mof_H 	H 	0.6028	0.2556	0.4006	-0.072
Mof_C 	C 	0.6278	0.1849	0.3448	-0.524
Mof_C 	C 	0.6616	0.1657	0.289	0.658
Mof_H 	H 	0.6631	0.1253	0.2773	-0.101
Mof_C 	C 	0.6933	0.2067	0.2501	-0.797
Mof_H 	H 	0.7165	0.1939	0.2117	1.048
Mof_C 	C 	0.6541	0.3472	0.343	-0.655
Mof_C 	C 	0.5952	0.1407	0.3856	0.711
Mof_C 	C 	0.6001	0.0358	0.9716	0.003
Mof_C 	C 	0.6125	0.0274	0.048	0
Mof_C 	C 	0.6682	0.0346	0.0746	-0.007
Mof_C 	C 	0.6786	0.0254	0.1458	-0.423
Mof_H 	H 	0.717	0.0272	0.1659	0.198
Mof_C 	C 	0.6333	0.0091	0.1899	1.26
Mof_H 	H 	0.5448	0.9946	0.192	-0.255
Mof_C 	C 	0.5668	0.0116	0.0925	-0.06
Mof_H 	H 	0.5283	0.0099	0.0725	-0.569
Mof_F 	F 	0.717	0.2121	0.1295	-0.134
Mof_F 	F 	0.7219	0.1284	0.1773	-0.179
Mof_F 	F 	0.7867	0.1923	0.1995	-0.13
Mof_O 	O 	0.5212	0.0897	0.7365	-0.145
Mof_H 	H 	0.548	0.1144	0.0453	0.191
Mof_H 	H 	0.5129	0.1438	0.9871	0.069
Mof_H 	H 	0.6555	0.3244	0.3355	0.997
Mof_C 	C 	0.7295	0.1857	0.1897	-0.715
Mof_C 	C 	0.5604	0.078	0.9501	0.018
Mof_C 	C 	0.544	0.0818	0.8802	0.068
Mof_H 	H 	0.5152	0.11	0.8662	0.027
Mof_C 	C 	0.5676	0.0435	0.8311	-0.068
Mof_H 	H 	0.6202	0.9719	0.8203	-0.83
Mof_H 	H 	0.6541	0.9718	0.9361	0.053
Mof_C 	C 	0.5476	0.0446	0.7557	0.263
Mof_F 	F 	0.3689	0.7037	0.132	-0.124
Mof_F 	F 	0.3825	0.6389	0.209	-0.087
Mof_F 	F 	0.358	0.6148	0.1067	-0.102
Mof_O 	O 	0.1581	0.5588	0.0697	-0.646
Mof_O 	O 	0.088	0.6064	0.1275	-0.695
Mof_N 	N 	0.044	0.7158	0.4708	0.623
Mof_H 	H 	0.0385	0.7519	0.4532	-0.059
Mof_H 	H 	0.0502	0.711	0.5171	-0.513
Mof_C 	C 	0.2661	0.6915	0.2333	0.524
Mof_C 	C 	0.2841	0.6573	0.1767	-0.763
Mof_C 	C 	0.2431	0.6259	0.1381	0.659
Mof_H 	H 	0.2556	0.6028	0.0994	-0.071
Mof_C 	C 	0.1849	0.6278	0.1552	-0.524
Mof_C 	C 	0.1657	0.6616	0.211	0.658
Mof_H 	H 	0.1253	0.6631	0.2227	-0.101
Mof_C 	C 	0.2067	0.6933	0.2499	-0.797
Mof_H 	H 	0.1939	0.7165	0.2883	1.048
Mof_C 	C 	0.3472	0.6541	0.157	-0.655
Mof_C 	C 	0.1407	0.5952	0.1144	0.71
Mof_C 	C 	0.0358	0.6001	0.5284	0.004
Mof_C 	C 	0.0274	0.6125	0.452	0
Mof_C 	C 	0.0346	0.6682	0.4254	-0.006
Mof_C 	C 	0.0254	0.6786	0.3542	-0.42
Mof_H 	H 	0.0272	0.717	0.3341	0.198
Mof_C 	C 	0.0091	0.6333	0.3101	1.256
Mof_H 	H 	0.9946	0.5448	0.308	-0.251
Mof_C 	C 	0.0116	0.5668	0.4075	-0.061
Mof_H 	H 	0.0099	0.5283	0.4275	-0.561
Mof_F 	F 	0.2121	0.717	0.3705	-0.134
Mof_F 	F 	0.1284	0.7219	0.3227	-0.178
Mof_F 	F 	0.1923	0.7867	0.3005	-0.13
Mof_O 	O 	0.0897	0.5212	0.7635	-0.145
Mof_H 	H 	0.1144	0.548	0.4547	0.191
Mof_H 	H 	0.1438	0.5129	0.5129	0.07
Mof_H 	H 	0.3244	0.6555	0.1645	0.997
Mof_C 	C 	0.1857	0.7295	0.3103	-0.715
Mof_C 	C 	0.078	0.5604	0.5499	0.016
Mof_C 	C 	0.0818	0.544	0.6198	0.069
Mof_H 	H 	0.11	0.5152	0.6338	0.027
Mof_C 	C 	0.0435	0.5676	0.6689	-0.07
Mof_H 	H 	0.9719	0.6202	0.6797	-0.833
Mof_H 	H 	0.9718	0.6541	0.5639	0.053
Mof_C 	C 	0.0446	0.5476	0.7443	0.264
Mof_F 	F 	0.6311	0.2963	0.132	-0.122
Mof_F 	F 	0.6175	0.3611	0.209	-0.086
Mof_F 	F 	0.642	0.3852	0.1067	-0.102
Mof_O 	O 	0.8419	0.4412	0.0697	-0.644
Mof_O 	O 	0.912	0.3936	0.1275	-0.664
Mof_N 	N 	0.956	0.2842	0.4708	0.625
Mof_H 	H 	0.9615	0.2481	0.4532	-0.022
Mof_H 	H 	0.9498	0.289	0.5171	-0.513
Mof_C 	C 	0.7339	0.3085	0.2333	0.522
Mof_C 	C 	0.7159	0.3427	0.1767	-0.76
Mof_C 	C 	0.7569	0.3741	0.1381	0.656
Mof_H 	H 	0.7444	0.3972	0.0994	-0.07
Mof_C 	C 	0.8151	0.3722	0.1552	-0.515
Mof_C 	C 	0.8343	0.3384	0.211	0.654
Mof_H 	H 	0.8747	0.3369	0.2227	-0.093
Mof_C 	C 	0.7933	0.3067	0.2499	-0.795
Mof_H 	H 	0.8061	0.2835	0.2883	1.052
Mof_C 	C 	0.6528	0.3459	0.157	-0.657
Mof_C 	C 	0.8593	0.4048	0.1144	0.702
Mof_C 	C 	0.9642	0.3999	0.5284	0.104
Mof_C 	C 	0.9726	0.3875	0.452	-0.019
Mof_C 	C 	0.9654	0.3318	0.4254	0.086
Mof_C 	C 	0.9746	0.3214	0.3542	-0.158
Mof_H 	H 	0.9728	0.283	0.3341	0.174
Mof_C 	C 	0.9909	0.3667	0.3101	0.981
Mof_H 	H 	0.0054	0.4552	0.308	0.092
Mof_C 	C 	0.9884	0.4332	0.4075	0.082
Mof_H 	H 	0.9901	0.4717	0.4275	0.588
Mof_F 	F 	0.7879	0.283	0.3705	-0.137
Mof_F 	F 	0.8716	0.2781	0.3227	-0.179
Mof_F 	F 	0.8077	0.2133	0.3005	-0.13
Mof_O 	O 	0.9103	0.4788	0.7635	-0.166
Mof_H 	H 	0.8856	0.452	0.4547	0.291
Mof_H 	H 	0.8562	0.4871	0.5129	0.067
Mof_H 	H 	0.6756	0.3445	0.1645	0.997
Mof_C 	C 	0.8143	0.2705	0.3103	-0.721
Mof_C 	C 	0.922	0.4396	0.5499	-0.207
Mof_C 	C 	0.9182	0.456	0.6198	-0.031
Mof_H 	H 	0.89	0.4848	0.6338	0.042
Mof_C 	C 	0.9565	0.4324	0.6689	0.021
Mof_H 	H 	0.0281	0.3798	0.6797	-0.944
Mof_H 	H 	0.0282	0.3459	0.5639	0.097
Mof_C 	C 	0.9554	0.4524	0.7443	0.377
Mof_F 	F 	0.7037	0.6311	0.632	-0.123
Mof_F 	F 	0.6389	0.6175	0.709	-0.087
Mof_F 	F 	0.6148	0.642	0.6067	-0.102
Mof_O 	O 	0.5588	0.8419	0.5697	-0.643
Mof_O 	O 	0.6064	0.912	0.6275	-0.661
Mof_N 	N 	0.7158	0.956	0.9708	0.628
Mof_H 	H 	0.7519	0.9615	0.9532	-0.015
Mof_H 	H 	0.711	0.9498	0.0171	-0.516
Mof_C 	C 	0.6915	0.7339	0.7333	0.522
Mof_C 	C 	0.6573	0.7159	0.6767	-0.76
Mof_C 	C 	0.6259	0.7569	0.6381	0.655
Mof_H 	H 	0.6028	0.7444	0.5994	-0.07
Mof_C 	C 	0.6278	0.8151	0.6552	-0.514
Mof_C 	C 	0.6616	0.8343	0.711	0.654
Mof_H 	H 	0.6631	0.8747	0.7227	-0.091
Mof_C 	C 	0.6933	0.7933	0.7499	-0.793
Mof_H 	H 	0.7165	0.8061	0.7883	1.05
Mof_C 	C 	0.6541	0.6528	0.657	-0.657
Mof_C 	C 	0.5952	0.8593	0.6144	0.702
Mof_C 	C 	0.6001	0.9642	0.0284	0.107
Mof_C 	C 	0.6125	0.9726	0.952	-0.021
Mof_C 	C 	0.6682	0.9654	0.9254	0.086
Mof_C 	C 	0.6786	0.9746	0.8542	-0.155
Mof_H 	H 	0.717	0.9728	0.8341	0.178
Mof_C 	C 	0.6333	0.9909	0.8101	0.974
Mof_H 	H 	0.5448	0.0054	0.808	0.096
Mof_C 	C 	0.5668	0.9884	0.9075	0.084
Mof_H 	H 	0.5283	0.9901	0.9275	0.595
Mof_F 	F 	0.717	0.7879	0.8705	-0.134
Mof_F 	F 	0.7219	0.8716	0.8227	-0.174
Mof_F 	F 	0.7867	0.8077	0.8005	-0.119
Mof_O 	O 	0.5212	0.9103	0.2635	-0.167
Mof_H 	H 	0.548	0.8856	0.9547	0.292
Mof_H 	H 	0.5129	0.8562	0.0129	0.068
Mof_H 	H 	0.6555	0.6756	0.6645	0.998
Mof_C 	C 	0.7295	0.8143	0.8103	-0.719
Mof_C 	C 	0.5604	0.922	0.0499	-0.21
Mof_C 	C 	0.544	0.9182	0.1198	-0.031
Mof_H 	H 	0.5152	0.89	0.1338	0.041
Mof_C 	C 	0.5676	0.9565	0.1689	0.022
Mof_H 	H 	0.6202	0.0281	0.1797	-0.939
Mof_H 	H 	0.6541	0.0282	0.0639	0.099
Mof_C 	C 	0.5476	0.9554	0.2443	0.38
Mof_F 	F 	0.2963	0.3689	0.632	-0.123
Mof_F 	F 	0.3611	0.3825	0.709	-0.087
Mof_F 	F 	0.3852	0.358	0.6067	-0.102
Mof_O 	O 	0.4412	0.1581	0.5697	-0.647
Mof_O 	O 	0.3936	0.088	0.6275	-0.697
Mof_N 	N 	0.2842	0.044	0.9708	0.619
Mof_H 	H 	0.2481	0.0385	0.9532	-0.067
Mof_H 	H 	0.289	0.0502	0.0171	-0.51
Mof_C 	C 	0.3085	0.2661	0.7333	0.524
Mof_C 	C 	0.3427	0.2841	0.6767	-0.763
Mof_C 	C 	0.3741	0.2431	0.6381	0.659
Mof_H 	H 	0.3972	0.2556	0.5994	-0.072
Mof_C 	C 	0.3722	0.1849	0.6552	-0.525
Mof_C 	C 	0.3384	0.1657	0.711	0.658
Mof_H 	H 	0.3369	0.1253	0.7227	-0.102
Mof_C 	C 	0.3067	0.2067	0.7499	-0.799
Mof_H 	H 	0.2835	0.1939	0.7883	1.049
Mof_C 	C 	0.3459	0.3472	0.657	-0.654
Mof_C 	C 	0.4048	0.1407	0.6144	0.71
Mof_C 	C 	0.3999	0.0358	0.0284	0.004
Mof_C 	C 	0.3875	0.0274	0.952	-0
Mof_C 	C 	0.3318	0.0346	0.9254	-0.007
Mof_C 	C 	0.3214	0.0254	0.8542	-0.423
Mof_H 	H 	0.283	0.0272	0.8341	0.194
Mof_C 	C 	0.3667	0.0091	0.8101	1.264
Mof_H 	H 	0.4552	0.9946	0.808	-0.255
Mof_C 	C 	0.4332	0.0116	0.9075	-0.06
Mof_H 	H 	0.4717	0.0099	0.9275	-0.569
Mof_F 	F 	0.283	0.2121	0.8705	-0.138
Mof_F 	F 	0.2781	0.1284	0.8227	-0.184
Mof_F 	F 	0.2133	0.1923	0.8005	-0.142
Mof_O 	O 	0.4788	0.0897	0.2635	-0.144
Mof_H 	H 	0.452	0.1144	0.9547	0.19
Mof_H 	H 	0.4871	0.1438	0.0129	0.07
Mof_H 	H 	0.3445	0.3244	0.6645	0.996
Mof_C 	C 	0.2705	0.1857	0.8103	-0.717
Mof_C 	C 	0.4396	0.078	0.0499	0.018
Mof_C 	C 	0.456	0.0818	0.1198	0.068
Mof_H 	H 	0.4848	0.11	0.1338	0.028
Mof_C 	C 	0.4324	0.0435	0.1689	-0.069
Mof_H 	H 	0.3798	0.9719	0.1797	-0.835
Mof_H 	H 	0.3459	0.9718	0.0639	0.052
Mof_C 	C 	0.4524	0.0446	0.2443	0.263
Mof_Zr	Zr	0.10741	0.5	-0	3.21
Mof_Zr	Zr	0.89259	0.5	-0	3.21
Mof_Zr	Zr	0.5	0.10741	0.5	3.21
Mof_Zr	Zr	0.5	0.89259	0.5	3.21
Mof_Zr	Zr	9.14948e-33	0.42335	0.09233	3.193
Mof_O 	O 	3.14688e-33	0.402	0.1969	-0.304
Mof_O 	O 	-6.18829e-34	0.3058	0.2071	-0.092
Mof_C 	C 	3.58646e-33	0.4223	0.3376	0.561
Mof_C 	C 	-1.8044e-33	0.356	0.2328	-0.343
Mof_C 	C 	2.01982e-33	0.3941	0.6465	-0.41
Mof_C 	C 	1.19324e-32	0.3747	0.5779	-0.069
Mof_O 	O 	2.44253e-33	0.441	0.7818	-0.442
Mof_Zr	Zr	-9.77398e-34	0.57665	0.09233	3.193
Mof_O 	O 	3.14688e-33	0.598	0.1969	-0.304
Mof_O 	O 	1.91289e-33	0.6942	0.2071	-0.085
Mof_C 	C 	3.58646e-33	0.5777	0.3376	0.559
Mof_C 	C 	7.27323e-34	0.644	0.2328	-0.342
Mof_C 	C 	2.01982e-33	0.6059	0.6465	-0.409
Mof_C 	C 	1.8055e-33	0.6253	0.5779	-0.071
Mof_O 	O 	-2.62091e-33	0.559	0.7818	-0.443
Mof_Zr	Zr	0.57665	0	0.59233	3.192
Mof_O 	O 	0.598	-5.06344e-33	0.6969	-0.303
Mof_O 	O 	0.6942	0	0.7071	-0.085
Mof_C 	C 	0.5777	5.06344e-33	0.8376	0.557
Mof_C 	C 	0.644	0	0.7328	-0.344
Mof_C 	C 	0.6059	0	0.1465	-0.414
Mof_C 	C 	0.6253	-6.3293e-34	0.0779	-0.073
Mof_O 	O 	0.559	0	0.2818	-0.445
Mof_Zr	Zr	0.42335	0	0.59233	3.192
Mof_O 	O 	0.402	-5.06344e-33	0.6969	-0.304
Mof_O 	O 	0.3058	0	0.7071	-0.093
Mof_C 	C 	0.4223	5.06344e-33	0.8376	0.559
Mof_C 	C 	0.356	0	0.7328	-0.345
Mof_C 	C 	0.3941	0	0.1465	-0.415
Mof_C 	C 	0.3747	-6.3293e-34	0.0779	-0.071
Mof_O 	O 	0.441	0	0.2818	-0.445
Mof_Zr	Zr	2.83578e-33	0.42335	0.90767	3.193
Mof_O 	O 	2.50908e-33	0.402	0.8031	-0.304
Mof_O 	O 	7.54065e-33	0.3058	0.7929	-0.092
Mof_C 	C 	1.21964e-32	0.4223	0.6624	0.561
Mof_C 	C 	7.46035e-33	0.356	0.7672	-0.343
Mof_C 	C 	6.16786e-33	0.3941	0.3535	-0.41
Mof_C 	C 	3.85046e-33	0.3747	0.4221	-0.069
Mof_O 	O 	6.81709e-34	0.441	0.2182	-0.442
Mof_Zr	Zr	-1.7418e-32	0.57665	0.90767	3.193
Mof_O 	O 	2.50908e-33	0.598	0.8031	-0.304
Mof_O 	O 	-7.64966e-33	0.6942	0.7929	-0.085
Mof_C 	C 	1.21964e-32	0.5777	0.6624	0.559
Mof_C 	C 	-2.66652e-33	0.644	0.7672	-0.342
Mof_C 	C 	6.16786e-33	0.6059	0.3535	-0.409
Mof_C 	C 	8.9139e-33	0.6253	0.4221	-0.071
Mof_O 	O 	5.74515e-33	0.559	0.2182	-0.443
Mof_Zr	Zr	0.42335	0	0.40767	3.192
Mof_O 	O 	0.402	0	0.3031	-0.304
Mof_O 	O 	0.3058	0	0.2929	-0.093
Mof_C 	C 	0.4223	0	0.1624	0.561
Mof_C 	C 	0.356	2.53172e-33	0.2672	-0.345
Mof_C 	C 	0.3941	-1.01269e-32	0.8535	-0.416
Mof_C 	C 	0.3747	1.01269e-32	0.9221	-0.067
Mof_O 	O 	0.441	0	0.7182	-0.444
Mof_Zr	Zr	0.57665	0	0.40767	3.192
Mof_O 	O 	0.598	0	0.3031	-0.303
Mof_O 	O 	0.6942	0	0.2929	-0.085
Mof_C 	C 	0.5777	0	0.1624	0.559
Mof_C 	C 	0.644	2.53172e-33	0.2672	-0.344
Mof_C 	C 	0.6059	-1.01269e-32	0.8535	-0.415
Mof_C 	C 	0.6253	1.01269e-32	0.9221	-0.069
Mof_O 	O 	0.559	0	0.7182	-0.445
Mof_O 	O 	0.0543	0.5808	-0	-1.284
Mof_O 	O 	0.9457	0.4192	-0	-1.229
Mof_O 	O 	0.4192	0.0543	0.5	-1.287
Mof_O 	O 	0.5808	0.9457	0.5	-1.226
Mof_O 	O 	0.9457	0.5808	-0	-1.228
Mof_O 	O 	0.0543	0.4192	-0	-1.285
Mof_O 	O 	0.5808	0.0543	0.5	-1.285
Mof_O 	O 	0.4192	0.9457	0.5	-1.228
Mof_O 	O 	0.0529	0.5	0.0913	-1.308
Mof_O 	O 	0.9471	0.5	0.0913	-1.255
Mof_O 	O 	0.5	0.0529	0.5913	-1.309
Mof_O 	O 	0.5	0.9471	0.5913	-1.254
Mof_O 	O 	0.9471	0.5	0.9087	-1.255
Mof_O 	O 	0.0529	0.5	0.9087	-1.308
Mof_O 	O 	0.5	0.0529	0.4087	-1.309
Mof_O 	O 	0.5	0.9471	0.4087	-1.254
Mof_N 	N 	0.117	0.463	0.5	-0.338
Mof_N 	N 	0.883	0.537	0.5	-0.382
Mof_N 	N 	0.537	0.117	-0	-0.337
Mof_N 	N 	0.463	0.883	-0	-0.382
Mof_N 	N 	0.883	0.463	0.5	-0.382
Mof_N 	N 	0.117	0.537	0.5	-0.338
Mof_N 	N 	0.463	0.117	-0	-0.337
Mof_N 	N 	0.537	0.883	-0	-0.382
_end
