data_functionalizedCrystal
_audit_creation_method	'EQeq! by Chris Wilmer'
_symmetry_space_group_name_H-M	'P1'
_symmetry_Int_Tables_number	1
_symmetry_cell_setting	triclinic
loop_
_symmetry_equiv_pos_as_xyz
  x,y,z
_cell_length_a	8.697
_cell_length_b	25.05
_cell_length_c	11.638
_cell_angle_alpha	90
_cell_angle_beta	104.01
_cell_angle_gamma	90
loop_
_atom_site_label
_atom_site_type_symbol
_atom_site_fract_x
_atom_site_fract_y
_atom_site_fract_z
_atom_site_charge
Mof_Cu	Cu	0.58793	0.03319	0.60365	0.934
Mof_Cu	Cu	0.27507	0.08485	0.40521	0.945
Mof_Cl	Cl	0.75889	0.1014	0.60414	-0.445
Mof_O 	O 	0.3567	0.05262	0.66777	-0.349
Mof_O 	O 	0.1848	0.0337	0.49698	-0.429
Mof_O 	O 	0.3407	0.97848	0.22751	-0.373
Mof_O 	O 	0.1808	0.04856	0.22133	-0.338
Mof_O 	O 	0.5755	0.37437	0.87524	-0.366
Mof_O 	O 	0.6664	0.33427	0.0491	-0.274
Mof_O 	O 	0.3624	0.14424	0.332	-0.362
Mof_O 	O 	0.565	0.10552	0.2763	-0.287
Mof_O 	O 	0.4742	0.0434	0.43822	-0.62
Mof_H 	H 	0.5455	0.0567	0.3912	0.214
Mof_N 	N 	0.1588	0.01098	0.79894	-0.062
Mof_N 	N 	0.4283	0.26219	0.0093	-0.071
Mof_C 	C 	0.0971	0.05014	0.8518	0.027
Mof_H 	H 	0.0321	0.0756	0.8059	0.061
Mof_C 	C 	0.129	0.05315	0.9736	-0.043
Mof_H 	H 	0.0864	0.0807	0.0098	0.071
Mof_C 	C 	0.2247	0.01499	0.0416	-0.03
Mof_C 	C 	0.2909	0.97591	0.9846	-0.047
Mof_H 	H 	0.3589	0.9506	0.0283	0.077
Mof_C 	C 	0.2558	0.97468	0.8626	0.03
Mof_H 	H 	0.3	0.9483	0.8243	0.055
Mof_C 	C 	0.1143	0.00653	0.6678	-0.307
Mof_H 	H 	0.0101	0.0221	0.638	0.166
Mof_H 	H 	0.1076	0.9691	0.646	0.16
Mof_C 	C 	0.2315	0.03409	0.609	0.412
Mof_C 	C 	0.2506	0.01485	0.1761	0.337
Mof_C 	C 	0.3242	0.26132	0.0775	0.033
Mof_H 	H 	0.2444	0.2869	0.0668	0.059
Mof_C 	C 	0.3348	0.22277	0.1633	-0.049
Mof_H 	H 	0.2633	0.2226	0.2112	0.075
Mof_C 	C 	0.452	0.18431	0.1782	-0.023
Mof_C 	C 	0.5575	0.18577	0.1059	-0.059
Mof_H 	H 	0.6371	0.1603	0.114	0.071
Mof_C 	C 	0.5426	0.22544	0.0221	0.045
Mof_H 	H 	0.6133	0.2267	0.9737	0.039
Mof_C 	C 	0.4214	0.30504	0.9213	-0.275
Mof_H 	H 	0.3274	0.3266	0.9168	0.154
Mof_H 	H 	0.4141	0.2894	0.8439	0.138
Mof_C 	C 	0.5688	0.34056	0.9549	0.391
Mof_C 	C 	0.4632	0.14025	0.27	0.318
Mof_Cu	Cu	0.91207	0.53319	0.89635	0.933
Mof_Cu	Cu	0.22493	0.58485	0.09479	0.944
Mof_Cl	Cl	0.74111	0.6014	0.89586	-0.447
Mof_O 	O 	0.1433	0.55262	0.83223	-0.35
Mof_O 	O 	0.3152	0.5337	0.00302	-0.429
Mof_O 	O 	0.1593	0.47848	0.27249	-0.373
Mof_O 	O 	0.3192	0.54856	0.27867	-0.337
Mof_O 	O 	0.9245	0.87437	0.62476	-0.367
Mof_O 	O 	0.8336	0.83427	0.4509	-0.275
Mof_O 	O 	0.1376	0.64424	0.168	-0.362
Mof_O 	O 	0.935	0.60552	0.2237	-0.287
Mof_O 	O 	0.0258	0.5434	0.06178	-0.621
Mof_H 	H 	0.9545	0.5567	0.1088	0.214
Mof_N 	N 	0.3412	0.51098	0.70106	-0.062
Mof_N 	N 	0.0717	0.76219	0.4907	-0.07
Mof_C 	C 	0.4029	0.55014	0.6482	0.029
Mof_H 	H 	0.4679	0.5756	0.6941	0.061
Mof_C 	C 	0.371	0.55315	0.5264	-0.046
Mof_H 	H 	0.4136	0.5807	0.4902	0.073
Mof_C 	C 	0.2753	0.51499	0.4584	-0.028
Mof_C 	C 	0.2091	0.47591	0.5154	-0.049
Mof_H 	H 	0.1411	0.4506	0.4717	0.077
Mof_C 	C 	0.2442	0.47468	0.6374	0.031
Mof_H 	H 	0.2	0.4483	0.6757	0.054
Mof_C 	C 	0.3857	0.50653	0.8322	-0.308
Mof_H 	H 	0.4899	0.5221	0.862	0.166
Mof_H 	H 	0.3924	0.4691	0.854	0.16
Mof_C 	C 	0.2685	0.53409	0.891	0.413
Mof_C 	C 	0.2494	0.51485	0.3239	0.336
Mof_C 	C 	0.1758	0.76132	0.4225	0.034
Mof_H 	H 	0.2556	0.7869	0.4332	0.059
Mof_C 	C 	0.1652	0.72277	0.3367	-0.049
Mof_H 	H 	0.2367	0.7226	0.2888	0.075
Mof_C 	C 	0.048	0.68431	0.3218	-0.023
Mof_C 	C 	0.9425	0.68577	0.3941	-0.059
Mof_H 	H 	0.8629	0.6603	0.386	0.071
Mof_C 	C 	0.9574	0.72544	0.4779	0.044
Mof_H 	H 	0.8867	0.7267	0.5263	0.04
Mof_C 	C 	0.0786	0.80504	0.5787	-0.274
Mof_H 	H 	0.1726	0.8266	0.5832	0.154
Mof_H 	H 	0.0859	0.7894	0.6561	0.138
Mof_C 	C 	0.9312	0.84056	0.5451	0.391
Mof_C 	C 	0.0368	0.64025	0.23	0.318
Mof_Cu	Cu	0.41207	0.96681	0.39635	0.933
Mof_Cu	Cu	0.72493	0.91515	0.59479	0.944
Mof_Cl	Cl	0.24111	0.8986	0.39586	-0.446
Mof_O 	O 	0.6433	0.94738	0.33223	-0.35
Mof_O 	O 	0.8152	0.9663	0.50302	-0.429
Mof_O 	O 	0.6593	0.02152	0.77249	-0.373
Mof_O 	O 	0.8192	0.95144	0.77867	-0.338
Mof_O 	O 	0.4245	0.62563	0.12476	-0.366
Mof_O 	O 	0.3336	0.66573	0.9509	-0.274
Mof_O 	O 	0.6376	0.85576	0.668	-0.362
Mof_O 	O 	0.435	0.89448	0.7237	-0.287
Mof_O 	O 	0.5258	0.9566	0.56178	-0.62
Mof_H 	H 	0.4545	0.9433	0.6088	0.214
Mof_N 	N 	0.8412	0.98902	0.20106	-0.062
Mof_N 	N 	0.5717	0.73781	0.9907	-0.071
Mof_C 	C 	0.9029	0.94986	0.1482	0.027
Mof_H 	H 	0.9679	0.9244	0.1941	0.061
Mof_C 	C 	0.871	0.94685	0.0264	-0.043
Mof_H 	H 	0.9136	0.9193	0.9902	0.071
Mof_C 	C 	0.7753	0.98501	0.9584	-0.03
Mof_C 	C 	0.7091	0.02409	0.0154	-0.047
Mof_H 	H 	0.6411	0.0494	0.9717	0.077
Mof_C 	C 	0.7442	0.02532	0.1374	0.03
Mof_H 	H 	0.7	0.0517	0.1757	0.055
Mof_C 	C 	0.8857	0.99347	0.3322	-0.307
Mof_H 	H 	0.9899	0.9779	0.362	0.166
Mof_H 	H 	0.8924	0.0309	0.354	0.16
Mof_C 	C 	0.7685	0.96591	0.391	0.412
Mof_C 	C 	0.7494	0.98515	0.8239	0.337
Mof_C 	C 	0.6758	0.73868	0.9225	0.033
Mof_H 	H 	0.7556	0.7131	0.9332	0.059
Mof_C 	C 	0.6652	0.77723	0.8367	-0.049
Mof_H 	H 	0.7367	0.7774	0.7888	0.075
Mof_C 	C 	0.548	0.81569	0.8218	-0.023
Mof_C 	C 	0.4425	0.81423	0.8941	-0.059
Mof_H 	H 	0.3629	0.8397	0.886	0.071
Mof_C 	C 	0.4574	0.77456	0.9779	0.045
Mof_H 	H 	0.3867	0.7733	0.0263	0.039
Mof_C 	C 	0.5786	0.69496	0.0787	-0.275
Mof_H 	H 	0.6726	0.6734	0.0832	0.154
Mof_H 	H 	0.5859	0.7106	0.1561	0.138
Mof_C 	C 	0.4312	0.65944	0.0451	0.391
Mof_C 	C 	0.5368	0.85975	0.73	0.318
Mof_Cu	Cu	0.08793	0.46681	0.10365	0.933
Mof_Cu	Cu	0.77507	0.41515	0.90521	0.944
Mof_Cl	Cl	0.25889	0.3986	0.10414	-0.447
Mof_O 	O 	0.8567	0.44738	0.16777	-0.35
Mof_O 	O 	0.6848	0.4663	0.99698	-0.429
Mof_O 	O 	0.8407	0.52152	0.72751	-0.373
Mof_O 	O 	0.6808	0.45144	0.72133	-0.337
Mof_O 	O 	0.0755	0.12563	0.37524	-0.367
Mof_O 	O 	0.1664	0.16573	0.5491	-0.275
Mof_O 	O 	0.8624	0.35576	0.832	-0.362
Mof_O 	O 	0.065	0.39448	0.7763	-0.287
Mof_O 	O 	0.9742	0.4566	0.93822	-0.621
Mof_H 	H 	0.0455	0.4433	0.8912	0.214
Mof_N 	N 	0.6588	0.48902	0.29894	-0.062
Mof_N 	N 	0.9283	0.23781	0.5093	-0.07
Mof_C 	C 	0.5971	0.44986	0.3518	0.029
Mof_H 	H 	0.5321	0.4244	0.3059	0.061
Mof_C 	C 	0.629	0.44685	0.4736	-0.046
Mof_H 	H 	0.5864	0.4193	0.5098	0.073
Mof_C 	C 	0.7247	0.48501	0.5416	-0.028
Mof_C 	C 	0.7909	0.52409	0.4846	-0.049
Mof_H 	H 	0.8589	0.5494	0.5283	0.077
Mof_C 	C 	0.7558	0.52532	0.3626	0.031
Mof_H 	H 	0.8	0.5517	0.3243	0.054
Mof_C 	C 	0.6143	0.49347	0.1678	-0.308
Mof_H 	H 	0.5101	0.4779	0.138	0.166
Mof_H 	H 	0.6076	0.5309	0.146	0.16
Mof_C 	C 	0.7315	0.46591	0.109	0.413
Mof_C 	C 	0.7506	0.48515	0.6761	0.336
Mof_C 	C 	0.8242	0.23868	0.5775	0.034
Mof_H 	H 	0.7444	0.2131	0.5668	0.059
Mof_C 	C 	0.8348	0.27723	0.6633	-0.049
Mof_H 	H 	0.7633	0.2774	0.7112	0.075
Mof_C 	C 	0.952	0.31569	0.6782	-0.023
Mof_C 	C 	0.0575	0.31423	0.6059	-0.059
Mof_H 	H 	0.1371	0.3397	0.614	0.071
Mof_C 	C 	0.0426	0.27456	0.5221	0.044
Mof_H 	H 	0.1133	0.2733	0.4737	0.04
Mof_C 	C 	0.9214	0.19496	0.4213	-0.274
Mof_H 	H 	0.8274	0.1734	0.4168	0.154
Mof_H 	H 	0.9141	0.2106	0.3439	0.138
Mof_C 	C 	0.0688	0.15944	0.4549	0.391
Mof_C 	C 	0.9632	0.35975	0.77	0.318
_end
