data_functionalizedCrystal
_audit_creation_method	'EQeq! by Chris Wilmer'
_symmetry_space_group_name_H-M	'P1'
_symmetry_Int_Tables_number	1
_symmetry_cell_setting	triclinic
loop_
_symmetry_equiv_pos_as_xyz
  x,y,z
_cell_length_a	26.742
_cell_length_b	26.742
_cell_length_c	5.1504
_cell_angle_alpha	90
_cell_angle_beta	90
_cell_angle_gamma	90
loop_
_atom_site_label
_atom_site_type_symbol
_atom_site_fract_x
_atom_site_fract_y
_atom_site_fract_z
_atom_site_charge
Mof_Zn	Zn	0.72947	0.28654	0.79226	1.217
Mof_O 	O 	0.78008	0.24716	0.6177	-0.567
Mof_C 	C 	0.73597	0.39578	0.6741	0.106
Mof_H 	H 	0.7106	0.3927	0.546	-0.012
Mof_O 	O 	0.72123	0.66856	0.4203	-0.48
Mof_N 	N 	0.75236	0.35822	0.8122	-0.272
Mof_C 	C 	0.78961	0.37759	0.9777	0.037
Mof_N 	N 	0.75896	0.43994	0.7325	-0.165
Mof_C 	C 	0.81692	0.35445	0.1651	-0.109
Mof_H 	H 	0.8124	0.3199	0.2021	0.032
Mof_C 	C 	0.85222	0.38336	0.3029	0.028
Mof_C 	C 	0.88182	0.36224	0.5054	-0.071
Mof_H 	H 	0.878	0.3278	0.547	0.052
Mof_C 	C 	0.91559	0.39048	0.6411	-0.034
Mof_H 	H 	0.9346	0.3759	0.7772	0.035
Mof_C 	C 	0.92202	0.44205	0.5764	-0.021
Mof_H 	H 	0.9457	0.4616	0.6695	0.03
Mof_C 	C 	0.89505	0.46332	0.3855	-0.087
Mof_H 	H 	0.9005	0.4975	0.344	0.057
Mof_C 	C 	0.85818	0.43561	0.2433	0.044
Mof_C 	C 	0.82871	0.45871	0.0533	-0.124
Mof_H 	H 	0.8323	0.4932	0.0143	0.072
Mof_C 	C 	0.79468	0.42969	0.9267	0.073
Mof_C 	C 	0.74518	0.48756	0.6281	0.187
Mof_C 	C 	0.71761	0.58052	0.435	-0.152
Mof_C 	C 	0.7026	0.63023	0.3243	0.407
Mof_O 	O 	0.6874	0.6302	0.0758	-0.189
Mof_C 	C 	0.7286	0.4905	0.3812	-0.063
Mof_H 	H 	0.7259	0.461	0.2793	0.058
Mof_C 	C 	0.7151	0.5371	0.2733	-0.019
Mof_H 	H 	0.7047	0.5396	0.0975	0.049
Mof_C 	C 	0.7347	0.5777	0.6783	-0.024
Mof_H 	H 	0.7382	0.6074	0.778	0.064
Mof_C 	C 	0.7476	0.5317	0.7882	-0.056
Mof_H 	H 	0.7577	0.5295	0.9646	0.049
Mof_O 	O 	0.6611	0.63292	0.2145	-0.208
Mof_C 	C 	0.6953	0.4944	0.5625	-0.161
Mof_H 	H 	0.6717	0.4681	0.5805	0.093
Mof_C 	C 	0.6814	0.5406	0.4704	0.094
Mof_H 	H 	0.6473	0.5466	0.429	0.016
Mof_C 	C 	0.765	0.5718	0.5108	0.102
Mof_H 	H 	0.7886	0.5984	0.5102	-0.003
Mof_C 	C 	0.7802	0.5241	0.5905	-0.17
Mof_H 	H 	0.8146	0.5171	0.6182	0.086
Mof_Zn	Zn	0.22947	0.78654	0.29226	1.217
Mof_O 	O 	0.28008	0.74716	0.1177	-0.564
Mof_C 	C 	0.23597	0.89578	0.1741	0.106
Mof_H 	H 	0.2106	0.8927	0.046	-0.012
Mof_O 	O 	0.22123	0.16856	0.9203	-0.477
Mof_N 	N 	0.25236	0.85822	0.3122	-0.272
Mof_C 	C 	0.28961	0.87759	0.4777	0.044
Mof_N 	N 	0.25896	0.93994	0.2325	-0.165
Mof_C 	C 	0.31692	0.85445	0.6651	-0.118
Mof_H 	H 	0.3124	0.8199	0.7021	0.033
Mof_C 	C 	0.35222	0.88336	0.8029	0.03
Mof_C 	C 	0.38182	0.86224	0.0054	-0.073
Mof_H 	H 	0.378	0.8278	0.047	0.053
Mof_C 	C 	0.41559	0.89048	0.1411	-0.031
Mof_H 	H 	0.4346	0.8759	0.2772	0.035
Mof_C 	C 	0.42202	0.94205	0.0764	-0.025
Mof_H 	H 	0.4457	0.9616	0.1695	0.032
Mof_C 	C 	0.39505	0.96332	0.8855	-0.083
Mof_H 	H 	0.4005	0.9975	0.844	0.056
Mof_C 	C 	0.35818	0.93561	0.7433	0.043
Mof_C 	C 	0.32871	0.95871	0.5533	-0.128
Mof_H 	H 	0.3323	0.9932	0.5143	0.073
Mof_C 	C 	0.29468	0.92969	0.4267	0.075
Mof_C 	C 	0.24518	0.98756	0.1281	0.185
Mof_C 	C 	0.21761	0.08052	0.935	-0.144
Mof_C 	C 	0.2026	0.13023	0.8243	0.405
Mof_O 	O 	0.1874	0.1302	0.5758	-0.188
Mof_C 	C 	0.2286	0.9905	0.8812	-0.05
Mof_H 	H 	0.2259	0.961	0.7793	0.052
Mof_C 	C 	0.2151	0.0371	0.7733	-0.031
Mof_H 	H 	0.2047	0.0396	0.5975	0.053
Mof_C 	C 	0.2347	0.0777	0.1783	-0.037
Mof_H 	H 	0.2382	0.1074	0.278	0.067
Mof_C 	C 	0.2476	0.0317	0.2882	-0.048
Mof_H 	H 	0.2577	0.0295	0.4646	0.046
Mof_O 	O 	0.1611	0.13292	0.7145	-0.208
Mof_C 	C 	0.1953	0.9944	0.0625	-0.173
Mof_H 	H 	0.1717	0.9681	0.0805	0.096
Mof_C 	C 	0.1814	0.0406	0.9704	0.103
Mof_H 	H 	0.1473	0.0466	0.929	0.013
Mof_C 	C 	0.265	0.0718	0.0108	0.106
Mof_H 	H 	0.2886	0.0984	0.0102	-0.006
Mof_C 	C 	0.2802	0.0241	0.0905	-0.176
Mof_H 	H 	0.3146	0.0171	0.1182	0.088
Mof_Zn	Zn	0.27053	0.71346	0.79226	1.216
Mof_O 	O 	0.21992	0.75284	0.6177	-0.568
Mof_C 	C 	0.26403	0.60422	0.6741	0.105
Mof_H 	H 	0.2894	0.6073	0.546	-0.013
Mof_O 	O 	0.27877	0.33144	0.4203	-0.48
Mof_N 	N 	0.24764	0.64178	0.8122	-0.272
Mof_C 	C 	0.21039	0.62241	0.9777	0.037
Mof_N 	N 	0.24104	0.56006	0.7325	-0.165
Mof_C 	C 	0.18308	0.64555	0.1651	-0.109
Mof_H 	H 	0.1876	0.6801	0.2021	0.032
Mof_C 	C 	0.14778	0.61664	0.3029	0.028
Mof_C 	C 	0.11818	0.63776	0.5054	-0.071
Mof_H 	H 	0.122	0.6722	0.547	0.052
Mof_C 	C 	0.08441	0.60952	0.6411	-0.034
Mof_H 	H 	0.0654	0.6241	0.7772	0.035
Mof_C 	C 	0.07798	0.55795	0.5764	-0.021
Mof_H 	H 	0.0543	0.5384	0.6695	0.03
Mof_C 	C 	0.10495	0.53668	0.3855	-0.087
Mof_H 	H 	0.0995	0.5025	0.344	0.057
Mof_C 	C 	0.14182	0.56439	0.2433	0.044
Mof_C 	C 	0.17129	0.54129	0.0533	-0.124
Mof_H 	H 	0.1677	0.5068	0.0143	0.072
Mof_C 	C 	0.20532	0.57031	0.9267	0.073
Mof_C 	C 	0.25482	0.51244	0.6281	0.187
Mof_C 	C 	0.28239	0.41948	0.435	-0.152
Mof_C 	C 	0.2974	0.36977	0.3243	0.407
Mof_O 	O 	0.3126	0.3698	0.0758	-0.189
Mof_C 	C 	0.2714	0.5095	0.3812	-0.063
Mof_H 	H 	0.2741	0.539	0.2793	0.058
Mof_C 	C 	0.2849	0.4629	0.2733	-0.019
Mof_H 	H 	0.2953	0.4604	0.0975	0.049
Mof_C 	C 	0.2653	0.4223	0.6783	-0.024
Mof_H 	H 	0.2618	0.3926	0.778	0.064
Mof_C 	C 	0.2524	0.4683	0.7882	-0.056
Mof_H 	H 	0.2423	0.4705	0.9646	0.049
Mof_O 	O 	0.3389	0.36708	0.2145	-0.208
Mof_C 	C 	0.3047	0.5056	0.5625	-0.161
Mof_H 	H 	0.3283	0.5319	0.5805	0.093
Mof_C 	C 	0.3186	0.4594	0.4704	0.094
Mof_H 	H 	0.3527	0.4534	0.429	0.016
Mof_C 	C 	0.235	0.4282	0.5108	0.102
Mof_H 	H 	0.2114	0.4016	0.5102	-0.003
Mof_C 	C 	0.2198	0.4759	0.5905	-0.17
Mof_H 	H 	0.1854	0.4829	0.6182	0.086
Mof_Zn	Zn	0.77053	0.21346	0.29226	1.217
Mof_O 	O 	0.71992	0.25284	0.1177	-0.564
Mof_C 	C 	0.76403	0.10422	0.1741	0.106
Mof_H 	H 	0.7894	0.1073	0.046	-0.012
Mof_O 	O 	0.77877	0.83144	0.9203	-0.477
Mof_N 	N 	0.74764	0.14178	0.3122	-0.272
Mof_C 	C 	0.71039	0.12241	0.4777	0.044
Mof_N 	N 	0.74104	0.06006	0.2325	-0.165
Mof_C 	C 	0.68308	0.14555	0.6651	-0.118
Mof_H 	H 	0.6876	0.1801	0.7021	0.033
Mof_C 	C 	0.64778	0.11664	0.8029	0.03
Mof_C 	C 	0.61818	0.13776	0.0054	-0.073
Mof_H 	H 	0.622	0.1722	0.047	0.053
Mof_C 	C 	0.58441	0.10952	0.1411	-0.031
Mof_H 	H 	0.5654	0.1241	0.2772	0.035
Mof_C 	C 	0.57798	0.05795	0.0764	-0.025
Mof_H 	H 	0.5543	0.0384	0.1695	0.032
Mof_C 	C 	0.60495	0.03668	0.8855	-0.083
Mof_H 	H 	0.5995	0.0025	0.844	0.056
Mof_C 	C 	0.64182	0.06439	0.7433	0.043
Mof_C 	C 	0.67129	0.04129	0.5533	-0.128
Mof_H 	H 	0.6677	0.0068	0.5143	0.073
Mof_C 	C 	0.70532	0.07031	0.4267	0.075
Mof_C 	C 	0.75482	0.01244	0.1281	0.185
Mof_C 	C 	0.78239	0.91948	0.935	-0.144
Mof_C 	C 	0.7974	0.86977	0.8243	0.405
Mof_O 	O 	0.8126	0.8698	0.5758	-0.188
Mof_C 	C 	0.7714	0.0095	0.8812	-0.05
Mof_H 	H 	0.7741	0.039	0.7793	0.052
Mof_C 	C 	0.7849	0.9629	0.7733	-0.031
Mof_H 	H 	0.7953	0.9604	0.5975	0.053
Mof_C 	C 	0.7653	0.9223	0.1783	-0.037
Mof_H 	H 	0.7618	0.8926	0.278	0.067
Mof_C 	C 	0.7524	0.9683	0.2882	-0.048
Mof_H 	H 	0.7423	0.9705	0.4646	0.046
Mof_O 	O 	0.8389	0.86708	0.7145	-0.208
Mof_C 	C 	0.8047	0.0056	0.0625	-0.173
Mof_H 	H 	0.8283	0.0319	0.0805	0.096
Mof_C 	C 	0.8186	0.9594	0.9704	0.103
Mof_H 	H 	0.8527	0.9534	0.929	0.013
Mof_C 	C 	0.735	0.9282	0.0108	0.106
Mof_H 	H 	0.7114	0.9016	0.0102	-0.006
Mof_C 	C 	0.7198	0.9759	0.0905	-0.176
Mof_H 	H 	0.6854	0.9829	0.1182	0.088
Mof_Zn	Zn	0.28654	0.27053	0.20774	1.216
Mof_O 	O 	0.24716	0.21992	0.3823	-0.568
Mof_C 	C 	0.39578	0.26403	0.3259	0.105
Mof_H 	H 	0.3927	0.2894	0.454	-0.013
Mof_O 	O 	0.66856	0.27877	0.5797	-0.48
Mof_N 	N 	0.35822	0.24764	0.1878	-0.272
Mof_C 	C 	0.37759	0.21039	0.0223	0.037
Mof_N 	N 	0.43994	0.24104	0.2675	-0.165
Mof_C 	C 	0.35445	0.18308	0.8349	-0.109
Mof_H 	H 	0.3199	0.1876	0.7979	0.032
Mof_C 	C 	0.38336	0.14778	0.6971	0.028
Mof_C 	C 	0.36224	0.11818	0.4946	-0.071
Mof_H 	H 	0.3278	0.122	0.453	0.052
Mof_C 	C 	0.39048	0.08441	0.3589	-0.034
Mof_H 	H 	0.3759	0.0654	0.2228	0.035
Mof_C 	C 	0.44205	0.07798	0.4236	-0.021
Mof_H 	H 	0.4616	0.0543	0.3305	0.03
Mof_C 	C 	0.46332	0.10495	0.6145	-0.087
Mof_H 	H 	0.4975	0.0995	0.656	0.057
Mof_C 	C 	0.43561	0.14182	0.7567	0.044
Mof_C 	C 	0.45871	0.17129	0.9467	-0.124
Mof_H 	H 	0.4932	0.1677	0.9857	0.072
Mof_C 	C 	0.42969	0.20532	0.0733	0.073
Mof_C 	C 	0.48756	0.25482	0.3719	0.187
Mof_C 	C 	0.58052	0.28239	0.565	-0.152
Mof_C 	C 	0.63023	0.2974	0.6757	0.407
Mof_O 	O 	0.6302	0.3126	0.9242	-0.189
Mof_C 	C 	0.4905	0.2714	0.6188	-0.063
Mof_H 	H 	0.461	0.2741	0.7207	0.058
Mof_C 	C 	0.5371	0.2849	0.7267	-0.019
Mof_H 	H 	0.5396	0.2953	0.9025	0.049
Mof_C 	C 	0.5777	0.2653	0.3217	-0.024
Mof_H 	H 	0.6074	0.2618	0.222	0.064
Mof_C 	C 	0.5317	0.2524	0.2118	-0.056
Mof_H 	H 	0.5295	0.2423	0.0354	0.049
Mof_O 	O 	0.63292	0.3389	0.7855	-0.208
Mof_C 	C 	0.4944	0.3047	0.4375	-0.161
Mof_H 	H 	0.4681	0.3283	0.4195	0.093
Mof_C 	C 	0.5406	0.3186	0.5296	0.094
Mof_H 	H 	0.5466	0.3527	0.571	0.016
Mof_C 	C 	0.5718	0.235	0.4892	0.102
Mof_H 	H 	0.5984	0.2114	0.4898	-0.003
Mof_C 	C 	0.5241	0.2198	0.4095	-0.17
Mof_H 	H 	0.5171	0.1854	0.3818	0.086
Mof_Zn	Zn	0.78654	0.77053	0.70774	1.217
Mof_O 	O 	0.74716	0.71992	0.8823	-0.564
Mof_C 	C 	0.89578	0.76403	0.8259	0.106
Mof_H 	H 	0.8927	0.7894	0.954	-0.012
Mof_O 	O 	0.16856	0.77877	0.0797	-0.477
Mof_N 	N 	0.85822	0.74764	0.6878	-0.272
Mof_C 	C 	0.87759	0.71039	0.5223	0.044
Mof_N 	N 	0.93994	0.74104	0.7675	-0.165
Mof_C 	C 	0.85445	0.68308	0.3349	-0.118
Mof_H 	H 	0.8199	0.6876	0.2979	0.033
Mof_C 	C 	0.88336	0.64778	0.1971	0.03
Mof_C 	C 	0.86224	0.61818	0.9946	-0.073
Mof_H 	H 	0.8278	0.622	0.953	0.053
Mof_C 	C 	0.89048	0.58441	0.8589	-0.031
Mof_H 	H 	0.8759	0.5654	0.7228	0.035
Mof_C 	C 	0.94205	0.57798	0.9236	-0.025
Mof_H 	H 	0.9616	0.5543	0.8305	0.032
Mof_C 	C 	0.96332	0.60495	0.1145	-0.083
Mof_H 	H 	0.9975	0.5995	0.156	0.056
Mof_C 	C 	0.93561	0.64182	0.2567	0.043
Mof_C 	C 	0.95871	0.67129	0.4467	-0.128
Mof_H 	H 	0.9932	0.6677	0.4857	0.073
Mof_C 	C 	0.92969	0.70532	0.5733	0.075
Mof_C 	C 	0.98756	0.75482	0.8719	0.185
Mof_C 	C 	0.08052	0.78239	0.065	-0.144
Mof_C 	C 	0.13023	0.7974	0.1757	0.405
Mof_O 	O 	0.1302	0.8126	0.4242	-0.188
Mof_C 	C 	0.9905	0.7714	0.1188	-0.05
Mof_H 	H 	0.961	0.7741	0.2207	0.052
Mof_C 	C 	0.0371	0.7849	0.2267	-0.031
Mof_H 	H 	0.0396	0.7953	0.4025	0.053
Mof_C 	C 	0.0777	0.7653	0.8217	-0.037
Mof_H 	H 	0.1074	0.7618	0.722	0.067
Mof_C 	C 	0.0317	0.7524	0.7118	-0.048
Mof_H 	H 	0.0295	0.7423	0.5354	0.046
Mof_O 	O 	0.13292	0.8389	0.2855	-0.208
Mof_C 	C 	0.9944	0.8047	0.9375	-0.173
Mof_H 	H 	0.9681	0.8283	0.9195	0.096
Mof_C 	C 	0.0406	0.8186	0.0296	0.103
Mof_H 	H 	0.0466	0.8527	0.071	0.013
Mof_C 	C 	0.0718	0.735	0.9892	0.106
Mof_H 	H 	0.0984	0.7114	0.9898	-0.006
Mof_C 	C 	0.0241	0.7198	0.9095	-0.176
Mof_H 	H 	0.0171	0.6854	0.8818	0.088
Mof_Zn	Zn	0.71346	0.72947	0.20774	1.216
Mof_O 	O 	0.75284	0.78008	0.3823	-0.568
Mof_C 	C 	0.60422	0.73597	0.3259	0.105
Mof_H 	H 	0.6073	0.7106	0.454	-0.013
Mof_O 	O 	0.33144	0.72123	0.5797	-0.48
Mof_N 	N 	0.64178	0.75236	0.1878	-0.272
Mof_C 	C 	0.62241	0.78961	0.0223	0.037
Mof_N 	N 	0.56006	0.75896	0.2675	-0.165
Mof_C 	C 	0.64555	0.81692	0.8349	-0.109
Mof_H 	H 	0.6801	0.8124	0.7979	0.032
Mof_C 	C 	0.61664	0.85222	0.6971	0.028
Mof_C 	C 	0.63776	0.88182	0.4946	-0.071
Mof_H 	H 	0.6722	0.878	0.453	0.052
Mof_C 	C 	0.60952	0.91559	0.3589	-0.034
Mof_H 	H 	0.6241	0.9346	0.2228	0.035
Mof_C 	C 	0.55795	0.92202	0.4236	-0.021
Mof_H 	H 	0.5384	0.9457	0.3305	0.03
Mof_C 	C 	0.53668	0.89505	0.6145	-0.087
Mof_H 	H 	0.5025	0.9005	0.656	0.057
Mof_C 	C 	0.56439	0.85818	0.7567	0.044
Mof_C 	C 	0.54129	0.82871	0.9467	-0.124
Mof_H 	H 	0.5068	0.8323	0.9857	0.072
Mof_C 	C 	0.57031	0.79468	0.0733	0.073
Mof_C 	C 	0.51244	0.74518	0.3719	0.187
Mof_C 	C 	0.41948	0.71761	0.565	-0.152
Mof_C 	C 	0.36977	0.7026	0.6757	0.407
Mof_O 	O 	0.3698	0.6874	0.9242	-0.189
Mof_C 	C 	0.5095	0.7286	0.6188	-0.063
Mof_H 	H 	0.539	0.7259	0.7207	0.058
Mof_C 	C 	0.4629	0.7151	0.7267	-0.019
Mof_H 	H 	0.4604	0.7047	0.9025	0.049
Mof_C 	C 	0.4223	0.7347	0.3217	-0.024
Mof_H 	H 	0.3926	0.7382	0.222	0.064
Mof_C 	C 	0.4683	0.7476	0.2118	-0.056
Mof_H 	H 	0.4705	0.7577	0.0354	0.049
Mof_O 	O 	0.36708	0.6611	0.7855	-0.208
Mof_C 	C 	0.5056	0.6953	0.4375	-0.161
Mof_H 	H 	0.5319	0.6717	0.4195	0.093
Mof_C 	C 	0.4594	0.6814	0.5296	0.094
Mof_H 	H 	0.4534	0.6473	0.571	0.016
Mof_C 	C 	0.4282	0.765	0.4892	0.102
Mof_H 	H 	0.4016	0.7886	0.4898	-0.003
Mof_C 	C 	0.4759	0.7802	0.4095	-0.17
Mof_H 	H 	0.4829	0.8146	0.3818	0.086
Mof_Zn	Zn	0.21346	0.22947	0.70774	1.217
Mof_O 	O 	0.25284	0.28008	0.8823	-0.564
Mof_C 	C 	0.10422	0.23597	0.8259	0.106
Mof_H 	H 	0.1073	0.2106	0.954	-0.012
Mof_O 	O 	0.83144	0.22123	0.0797	-0.477
Mof_N 	N 	0.14178	0.25236	0.6878	-0.272
Mof_C 	C 	0.12241	0.28961	0.5223	0.044
Mof_N 	N 	0.06006	0.25896	0.7675	-0.165
Mof_C 	C 	0.14555	0.31692	0.3349	-0.118
Mof_H 	H 	0.1801	0.3124	0.2979	0.033
Mof_C 	C 	0.11664	0.35222	0.1971	0.03
Mof_C 	C 	0.13776	0.38182	0.9946	-0.073
Mof_H 	H 	0.1722	0.378	0.953	0.053
Mof_C 	C 	0.10952	0.41559	0.8589	-0.031
Mof_H 	H 	0.1241	0.4346	0.7228	0.035
Mof_C 	C 	0.05795	0.42202	0.9236	-0.025
Mof_H 	H 	0.0384	0.4457	0.8305	0.032
Mof_C 	C 	0.03668	0.39505	0.1145	-0.083
Mof_H 	H 	0.0025	0.4005	0.156	0.056
Mof_C 	C 	0.06439	0.35818	0.2567	0.043
Mof_C 	C 	0.04129	0.32871	0.4467	-0.128
Mof_H 	H 	0.0068	0.3323	0.4857	0.073
Mof_C 	C 	0.07031	0.29468	0.5733	0.075
Mof_C 	C 	0.01244	0.24518	0.8719	0.185
Mof_C 	C 	0.91948	0.21761	0.065	-0.144
Mof_C 	C 	0.86977	0.2026	0.1757	0.405
Mof_O 	O 	0.8698	0.1874	0.4242	-0.188
Mof_C 	C 	0.0095	0.2286	0.1188	-0.05
Mof_H 	H 	0.039	0.2259	0.2207	0.052
Mof_C 	C 	0.9629	0.2151	0.2267	-0.031
Mof_H 	H 	0.9604	0.2047	0.4025	0.053
Mof_C 	C 	0.9223	0.2347	0.8217	-0.037
Mof_H 	H 	0.8926	0.2382	0.722	0.067
Mof_C 	C 	0.9683	0.2476	0.7118	-0.048
Mof_H 	H 	0.9705	0.2577	0.5354	0.046
Mof_O 	O 	0.86708	0.1611	0.2855	-0.208
Mof_C 	C 	0.0056	0.1953	0.9375	-0.173
Mof_H 	H 	0.0319	0.1717	0.9195	0.096
Mof_C 	C 	0.9594	0.1814	0.0296	0.103
Mof_H 	H 	0.9534	0.1473	0.071	0.013
Mof_C 	C 	0.9282	0.265	0.9892	0.106
Mof_H 	H 	0.9016	0.2886	0.9898	-0.006
Mof_C 	C 	0.9759	0.2802	0.9095	-0.176
Mof_H 	H 	0.9829	0.3146	0.8818	0.088
_end
