data_functionalizedCrystal
_audit_creation_method	'EQeq! by Chris Wilmer'
_symmetry_space_group_name_H-M	'P1'
_symmetry_Int_Tables_number	1
_symmetry_cell_setting	triclinic
loop_
_symmetry_equiv_pos_as_xyz
  x,y,z
_cell_length_a	16.852
_cell_length_b	17.116
_cell_length_c	9.7103
_cell_angle_alpha	90
_cell_angle_beta	118.683
_cell_angle_gamma	90
loop_
_atom_site_label
_atom_site_type_symbol
_atom_site_fract_x
_atom_site_fract_y
_atom_site_fract_z
_atom_site_charge
Mof_O 	O 	0.1404	0.1891	0.5936	-0.466
Mof_C 	C 	0.063	0.1601	0.5028	0.305
Mof_Zn	Zn	0.73316	0.39211	0.15579	1.194
Mof_N 	N 	0.7453	0.4752	0.3096	-0.303
Mof_N 	N 	0.8432	0.3202	0.2658	-0.26
Mof_C 	C 	0.9254	0.3457	0.363	0.057
Mof_H 	H 	0.934	0.3993	0.3786	-0.011
Mof_C 	C 	0.8309	0.2426	0.2422	0.032
Mof_H 	H 	0.7737	0.2237	0.1727	0.002
Mof_C 	C 	0.9016	0.1901	0.319	-0.078
Mof_H 	H 	0.8914	0.1367	0.3018	0.058
Mof_C 	C 	0.7091	0.4888	0.4006	0.35
Mof_N 	N 	0.7463	0.5532	0.4855	-0.292
Mof_N 	N 	0.8069	0.5328	0.3383	-0.076
Mof_N 	N 	0.807	0.5794	0.4438	-0.07
Mof_C 	C 	0.9865	0.2172	0.4201	-0.025
Mof_C 	C 	0.6386	0.4403	0.4081	-0.942
Mof_H 	H 	0.5818	0.4485	0.3151	0.301
Mof_H 	H 	0.6331	0.4549	0.4986	0.299
Mof_H 	H 	0.6551	0.3862	0.4156	0.29
Mof_C 	C 	0.9997	0.2974	0.4432	-0.085
Mof_H 	H 	0.0565	0.3179	0.5101	0.074
Mof_O 	O 	0.0483	0.09	0.4774	-0.348
Mof_O 	O 	0.6404	0.6891	0.5936	-0.467
Mof_C 	C 	0.563	0.6601	0.5028	0.304
Mof_Zn	Zn	0.23316	0.89211	0.15579	1.192
Mof_N 	N 	0.2453	0.9752	0.3096	-0.305
Mof_N 	N 	0.3432	0.8202	0.2658	-0.261
Mof_C 	C 	0.4254	0.8457	0.363	0.056
Mof_H 	H 	0.434	0.8993	0.3786	-0.011
Mof_C 	C 	0.3309	0.7426	0.2422	0.031
Mof_H 	H 	0.2737	0.7237	0.1727	0.002
Mof_C 	C 	0.4016	0.6901	0.319	-0.078
Mof_H 	H 	0.3914	0.6367	0.3018	0.057
Mof_C 	C 	0.2091	0.9888	0.4006	0.35
Mof_N 	N 	0.2463	0.0532	0.4855	-0.292
Mof_N 	N 	0.3069	0.0328	0.3383	-0.075
Mof_N 	N 	0.307	0.0794	0.4438	-0.07
Mof_C 	C 	0.4865	0.7172	0.4201	-0.026
Mof_C 	C 	0.1386	0.9403	0.4081	-0.942
Mof_H 	H 	0.0818	0.9485	0.3151	0.301
Mof_H 	H 	0.1331	0.9549	0.4986	0.299
Mof_H 	H 	0.1551	0.8862	0.4156	0.29
Mof_C 	C 	0.4997	0.7974	0.4432	-0.085
Mof_H 	H 	0.5565	0.8179	0.5101	0.075
Mof_O 	O 	0.5483	0.59	0.4774	-0.347
Mof_O 	O 	0.1404	0.8109	0.0936	-0.466
Mof_C 	C 	0.063	0.8399	0.0028	0.297
Mof_Zn	Zn	0.73316	0.60789	0.65579	1.193
Mof_N 	N 	0.7453	0.5248	0.8096	-0.304
Mof_N 	N 	0.8432	0.6798	0.7658	-0.261
Mof_C 	C 	0.9254	0.6543	0.863	0.057
Mof_H 	H 	0.934	0.6007	0.8786	-0.011
Mof_C 	C 	0.8309	0.7574	0.7422	0.032
Mof_H 	H 	0.7737	0.7763	0.6727	0.002
Mof_C 	C 	0.9016	0.8099	0.819	-0.08
Mof_H 	H 	0.8914	0.8633	0.8018	0.058
Mof_C 	C 	0.7091	0.5112	0.9006	0.35
Mof_N 	N 	0.7463	0.4468	0.9855	-0.292
Mof_N 	N 	0.8069	0.4672	0.8383	-0.076
Mof_N 	N 	0.807	0.4206	0.9438	-0.07
Mof_C 	C 	0.9865	0.7828	0.9201	-0.023
Mof_C 	C 	0.6386	0.5597	0.9081	-0.943
Mof_H 	H 	0.5818	0.5515	0.8151	0.301
Mof_H 	H 	0.6331	0.5451	0.9986	0.299
Mof_H 	H 	0.6551	0.6138	0.9156	0.29
Mof_C 	C 	0.9997	0.7026	0.9432	-0.086
Mof_H 	H 	0.0565	0.6821	0.0101	0.074
Mof_O 	O 	0.0483	0.91	0.9774	-0.341
Mof_O 	O 	0.6404	0.3109	0.0936	-0.467
Mof_C 	C 	0.563	0.3399	0.0028	0.306
Mof_Zn	Zn	0.23316	0.10789	0.65579	1.193
Mof_N 	N 	0.2453	0.0248	0.8096	-0.304
Mof_N 	N 	0.3432	0.1798	0.7658	-0.261
Mof_C 	C 	0.4254	0.1543	0.863	0.059
Mof_H 	H 	0.434	0.1007	0.8786	-0.012
Mof_C 	C 	0.3309	0.2574	0.7422	0.032
Mof_H 	H 	0.2737	0.2763	0.6727	0.002
Mof_C 	C 	0.4016	0.3099	0.819	-0.079
Mof_H 	H 	0.3914	0.3633	0.8018	0.057
Mof_C 	C 	0.2091	0.0112	0.9006	0.344
Mof_N 	N 	0.2463	0.9468	0.9855	-0.288
Mof_N 	N 	0.3069	0.9672	0.8383	-0.074
Mof_N 	N 	0.307	0.9206	0.9438	-0.069
Mof_C 	C 	0.4865	0.2828	0.9201	-0.026
Mof_C 	C 	0.1386	0.0597	0.9081	-0.934
Mof_H 	H 	0.0818	0.0515	0.8151	0.298
Mof_H 	H 	0.1331	0.0451	0.9986	0.295
Mof_H 	H 	0.1551	0.1138	0.9156	0.287
Mof_C 	C 	0.4997	0.2026	0.9432	-0.091
Mof_H 	H 	0.5565	0.1821	0.0101	0.079
Mof_O 	O 	0.5483	0.41	0.9774	-0.349
Mof_O 	O 	0.8596	0.1891	0.9064	-0.466
Mof_C 	C 	0.937	0.1601	0.9972	0.297
Mof_Zn	Zn	0.26684	0.39211	0.34421	1.193
Mof_N 	N 	0.2547	0.4752	0.1904	-0.304
Mof_N 	N 	0.1568	0.3202	0.2342	-0.261
Mof_C 	C 	0.0746	0.3457	0.137	0.057
Mof_H 	H 	0.066	0.3993	0.1214	-0.011
Mof_C 	C 	0.1691	0.2426	0.2578	0.032
Mof_H 	H 	0.2263	0.2237	0.3273	0.002
Mof_C 	C 	0.0984	0.1901	0.181	-0.08
Mof_H 	H 	0.1086	0.1367	0.1982	0.058
Mof_C 	C 	0.2909	0.4888	0.0994	0.35
Mof_N 	N 	0.2537	0.5532	0.0145	-0.292
Mof_N 	N 	0.1931	0.5328	0.1617	-0.076
Mof_N 	N 	0.193	0.5794	0.0562	-0.07
Mof_C 	C 	0.0135	0.2172	0.0799	-0.023
Mof_C 	C 	0.3614	0.4403	0.0919	-0.943
Mof_H 	H 	0.4182	0.4485	0.1849	0.301
Mof_H 	H 	0.3669	0.4549	0.0014	0.299
Mof_H 	H 	0.3449	0.3862	0.0844	0.29
Mof_C 	C 	0.0003	0.2974	0.0568	-0.086
Mof_H 	H 	0.9435	0.3179	0.9899	0.074
Mof_O 	O 	0.9517	0.09	0.0226	-0.341
Mof_O 	O 	0.3596	0.6891	0.9064	-0.467
Mof_C 	C 	0.437	0.6601	0.9972	0.306
Mof_Zn	Zn	0.76684	0.89211	0.34421	1.193
Mof_N 	N 	0.7547	0.9752	0.1904	-0.304
Mof_N 	N 	0.6568	0.8202	0.2342	-0.261
Mof_C 	C 	0.5746	0.8457	0.137	0.059
Mof_H 	H 	0.566	0.8993	0.1214	-0.012
Mof_C 	C 	0.6691	0.7426	0.2578	0.032
Mof_H 	H 	0.7263	0.7237	0.3273	0.002
Mof_C 	C 	0.5984	0.6901	0.181	-0.079
Mof_H 	H 	0.6086	0.6367	0.1982	0.057
Mof_C 	C 	0.7909	0.9888	0.0994	0.344
Mof_N 	N 	0.7537	0.0532	0.0145	-0.288
Mof_N 	N 	0.6931	0.0328	0.1617	-0.074
Mof_N 	N 	0.693	0.0794	0.0562	-0.069
Mof_C 	C 	0.5135	0.7172	0.0799	-0.026
Mof_C 	C 	0.8614	0.9403	0.0919	-0.934
Mof_H 	H 	0.9182	0.9485	0.1849	0.298
Mof_H 	H 	0.8669	0.9549	0.0014	0.295
Mof_H 	H 	0.8449	0.8862	0.0844	0.287
Mof_C 	C 	0.5003	0.7974	0.0568	-0.091
Mof_H 	H 	0.4435	0.8179	0.9899	0.079
Mof_O 	O 	0.4517	0.59	0.0226	-0.349
Mof_O 	O 	0.8596	0.8109	0.4064	-0.467
Mof_C 	C 	0.937	0.8399	0.4972	0.304
Mof_Zn	Zn	0.26684	0.60789	0.84421	1.193
Mof_N 	N 	0.2547	0.5248	0.6904	-0.304
Mof_N 	N 	0.1568	0.6798	0.7342	-0.26
Mof_C 	C 	0.0746	0.6543	0.637	0.057
Mof_H 	H 	0.066	0.6007	0.6214	-0.011
Mof_C 	C 	0.1691	0.7574	0.7578	0.032
Mof_H 	H 	0.2263	0.7763	0.8273	0.002
Mof_C 	C 	0.0984	0.8099	0.681	-0.078
Mof_H 	H 	0.1086	0.8633	0.6982	0.058
Mof_C 	C 	0.2909	0.5112	0.5994	0.35
Mof_N 	N 	0.2537	0.4468	0.5145	-0.292
Mof_N 	N 	0.1931	0.4672	0.6617	-0.076
Mof_N 	N 	0.193	0.4206	0.5562	-0.07
Mof_C 	C 	0.0135	0.7828	0.5799	-0.025
Mof_C 	C 	0.3614	0.5597	0.5919	-0.942
Mof_H 	H 	0.4182	0.5515	0.6849	0.301
Mof_H 	H 	0.3669	0.5451	0.5014	0.299
Mof_H 	H 	0.3449	0.6138	0.5844	0.29
Mof_C 	C 	0.0003	0.7026	0.5568	-0.085
Mof_H 	H 	0.9435	0.6821	0.4899	0.074
Mof_O 	O 	0.9517	0.91	0.5226	-0.348
Mof_O 	O 	0.3596	0.3109	0.4064	-0.467
Mof_C 	C 	0.437	0.3399	0.4972	0.304
Mof_Zn	Zn	0.76684	0.10789	0.84421	1.192
Mof_N 	N 	0.7547	0.0248	0.6904	-0.305
Mof_N 	N 	0.6568	0.1798	0.7342	-0.261
Mof_C 	C 	0.5746	0.1543	0.637	0.056
Mof_H 	H 	0.566	0.1007	0.6214	-0.011
Mof_C 	C 	0.6691	0.2574	0.7578	0.031
Mof_H 	H 	0.7263	0.2763	0.8273	0.002
Mof_C 	C 	0.5984	0.3099	0.681	-0.078
Mof_H 	H 	0.6086	0.3633	0.6982	0.057
Mof_C 	C 	0.7909	0.0112	0.5994	0.35
Mof_N 	N 	0.7537	0.9468	0.5145	-0.292
Mof_N 	N 	0.6931	0.9672	0.6617	-0.075
Mof_N 	N 	0.693	0.9206	0.5562	-0.07
Mof_C 	C 	0.5135	0.2828	0.5799	-0.026
Mof_C 	C 	0.8614	0.0597	0.5919	-0.942
Mof_H 	H 	0.9182	0.0515	0.6849	0.301
Mof_H 	H 	0.8669	0.0451	0.5014	0.299
Mof_H 	H 	0.8449	0.1138	0.5844	0.29
Mof_C 	C 	0.5003	0.2026	0.5568	-0.085
Mof_H 	H 	0.4435	0.1821	0.4899	0.075
Mof_O 	O 	0.4517	0.41	0.5226	-0.347
_end
