data_functionalizedCrystal
_audit_creation_method	'EQeq! by Chris Wilmer'
_symmetry_space_group_name_H-M	'P1'
_symmetry_Int_Tables_number	1
_symmetry_cell_setting	triclinic
loop_
_symmetry_equiv_pos_as_xyz
  x,y,z
_cell_length_a	23.0599
_cell_length_b	11.005
_cell_length_c	20.9497
_cell_angle_alpha	90
_cell_angle_beta	106.369
_cell_angle_gamma	90
loop_
_atom_site_label
_atom_site_type_symbol
_atom_site_fract_x
_atom_site_fract_y
_atom_site_fract_z
_atom_site_charge
Mof_Eu	Eu	0.64038	0.82025	0.8582	2.282
Mof_O 	O 	0.8154	0.3914	0.9703	-0.278
Mof_O 	O 	0.9073	0.2319	0.7579	-0.61
Mof_O 	O 	0.8803	0.4215	0.7523	-0.461
Mof_O 	O 	0.076	0.3233	0.9338	-0.456
Mof_O 	O 	0.0259	0.3093	0.828	-0.615
Mof_O 	O 	0.6161	0.0356	0.8683	-0.425
Mof_O 	O 	0.7116	0.9916	0.8774	-0.445
Mof_O 	O 	0.5688	0.4781	0.7923	-0.534
Mof_O 	O 	0.6197	0.6118	0.8671	-0.6
Mof_O 	O 	0.7091	0.7736	0.9606	-0.668
Mof_C 	C 	0.8648	0.3677	0.9474	0.268
Mof_C 	C 	0.8594	0.3555	0.8808	-0.191
Mof_H 	H 	0.8207	0.3576	0.8492	0.089
Mof_C 	C 	0.9121	0.3396	0.8597	0.011
Mof_C 	C 	0.9689	0.3342	0.9059	-0.111
Mof_C 	C 	0.9708	0.3541	0.9736	0.233
Mof_H 	H 	0.0093	0.3572	0.0056	-0.074
Mof_C 	C 	0.9206	0.3691	0.9954	-0.296
Mof_H 	H 	0.9236	0.3799	0.0412	0.173
Mof_C 	C 	0.9003	0.332	0.7853	0.372
Mof_C 	C 	0.0266	0.3208	0.8893	0.317
Mof_C 	C 	0.7584	0.3557	0.9302	0.17
Mof_C 	C 	0.745	0.2357	0.9194	-0.128
Mof_H 	H 	0.7758	0.1765	0.9345	0.093
Mof_C 	C 	0.6862	0.1992	0.8864	-0.026
Mof_C 	C 	0.6428	0.2872	0.8622	-0.008
Mof_H 	H 	0.6025	0.2644	0.8395	0.052
Mof_C 	C 	0.6587	0.4109	0.8715	-0.091
Mof_C 	C 	0.716	0.445	0.9077	-0.093
Mof_H 	H 	0.7259	0.5282	0.9169	0.051
Mof_C 	C 	0.6707	0.0701	0.8783	0.297
Mof_C 	C 	0.6124	0.5079	0.8423	0.429
Mof_C 	C 	0.7667	0.7763	0.9816	0.427
Mof_H 	H 	0.7912	0.8131	0.9567	-0.12
Mof_Eu	Eu	0.14038	0.32025	0.8582	2.275
Mof_O 	O 	0.3154	0.8914	0.9703	-0.269
Mof_O 	O 	0.4073	0.7319	0.7579	-0.652
Mof_O 	O 	0.3803	0.9215	0.7523	-0.471
Mof_O 	O 	0.576	0.8233	0.9338	-0.463
Mof_O 	O 	0.5259	0.8093	0.828	-0.622
Mof_O 	O 	0.1161	0.5356	0.8683	-0.433
Mof_O 	O 	0.2116	0.4916	0.8774	-0.45
Mof_O 	O 	0.0688	0.9781	0.7923	-0.525
Mof_O 	O 	0.1197	0.1118	0.8671	-0.596
Mof_O 	O 	0.2091	0.2736	0.9606	-0.67
Mof_C 	C 	0.3648	0.8677	0.9474	0.23
Mof_C 	C 	0.3594	0.8555	0.8808	-0.169
Mof_H 	H 	0.3207	0.8576	0.8492	0.08
Mof_C 	C 	0.4121	0.8396	0.8597	-0.005
Mof_C 	C 	0.4689	0.8342	0.9059	-0.141
Mof_C 	C 	0.4708	0.8541	0.9736	0.084
Mof_H 	H 	0.5093	0.8572	0.0056	0.02
Mof_C 	C 	0.4206	0.8691	0.9954	-0.215
Mof_H 	H 	0.4236	0.8799	0.0412	0.13
Mof_C 	C 	0.4003	0.832	0.7853	0.371
Mof_C 	C 	0.5266	0.8208	0.8893	0.381
Mof_C 	C 	0.2584	0.8557	0.9302	0.161
Mof_C 	C 	0.245	0.7357	0.9194	-0.119
Mof_H 	H 	0.2758	0.6765	0.9345	0.089
Mof_C 	C 	0.1862	0.6992	0.8864	-0.034
Mof_C 	C 	0.1428	0.7872	0.8622	-0.002
Mof_H 	H 	0.1025	0.7644	0.8395	0.042
Mof_C 	C 	0.1587	0.9109	0.8715	-0.097
Mof_C 	C 	0.216	0.945	0.9077	-0.082
Mof_H 	H 	0.2259	0.0282	0.9169	0.044
Mof_C 	C 	0.1707	0.5701	0.8783	0.303
Mof_C 	C 	0.1124	0.0079	0.8423	0.423
Mof_C 	C 	0.2667	0.2763	0.9816	0.421
Mof_H 	H 	0.2912	0.3131	0.9567	-0.122
Mof_Eu	Eu	0.35962	0.82025	0.6418	2.278
Mof_O 	O 	0.1846	0.3914	0.5297	-0.26
Mof_O 	O 	0.0927	0.2319	0.7421	-0.637
Mof_O 	O 	0.1197	0.4215	0.7477	-0.474
Mof_O 	O 	0.924	0.3233	0.5662	-0.462
Mof_O 	O 	0.9741	0.3093	0.672	-0.578
Mof_O 	O 	0.3839	0.0356	0.6317	-0.425
Mof_O 	O 	0.2884	0.9916	0.6226	-0.449
Mof_O 	O 	0.4312	0.4781	0.7077	-0.534
Mof_O 	O 	0.3803	0.6118	0.6329	-0.599
Mof_O 	O 	0.2909	0.7736	0.5394	-0.666
Mof_C 	C 	0.1352	0.3677	0.5526	0.192
Mof_C 	C 	0.1406	0.3555	0.6192	-0.148
Mof_H 	H 	0.1793	0.3576	0.6508	0.074
Mof_C 	C 	0.0879	0.3396	0.6403	-0.013
Mof_C 	C 	0.0311	0.3342	0.5941	-0.161
Mof_C 	C 	0.0292	0.3541	0.5264	-0.069
Mof_H 	H 	0.9907	0.3572	0.4944	0.119
Mof_C 	C 	0.0794	0.3691	0.5046	-0.129
Mof_H 	H 	0.0764	0.3799	0.4588	0.086
Mof_C 	C 	0.0997	0.332	0.7147	0.357
Mof_C 	C 	0.9734	0.3208	0.6107	0.435
Mof_C 	C 	0.2416	0.3557	0.5698	0.163
Mof_C 	C 	0.255	0.2357	0.5806	-0.119
Mof_H 	H 	0.2242	0.1765	0.5655	0.089
Mof_C 	C 	0.3138	0.1992	0.6136	-0.03
Mof_C 	C 	0.3572	0.2872	0.6378	-0.004
Mof_H 	H 	0.3975	0.2644	0.6605	0.051
Mof_C 	C 	0.3413	0.4109	0.6285	-0.094
Mof_C 	C 	0.284	0.445	0.5923	-0.087
Mof_H 	H 	0.2741	0.5282	0.5831	0.048
Mof_C 	C 	0.3293	0.0701	0.6217	0.301
Mof_C 	C 	0.3876	0.5079	0.6577	0.431
Mof_C 	C 	0.2333	0.7763	0.5184	0.438
Mof_H 	H 	0.2088	0.8131	0.5433	-0.128
Mof_Eu	Eu	0.85962	0.32025	0.6418	2.289
Mof_O 	O 	0.6846	0.8914	0.5297	-0.269
Mof_O 	O 	0.5927	0.7319	0.7421	-0.651
Mof_O 	O 	0.6197	0.9215	0.7477	-0.47
Mof_O 	O 	0.424	0.8233	0.5662	-0.461
Mof_O 	O 	0.4741	0.8093	0.672	-0.622
Mof_O 	O 	0.8839	0.5356	0.6317	-0.416
Mof_O 	O 	0.7884	0.4916	0.6226	-0.448
Mof_O 	O 	0.9312	0.9781	0.7077	-0.476
Mof_O 	O 	0.8803	0.1118	0.6329	-0.581
Mof_O 	O 	0.7909	0.2736	0.5394	-0.666
Mof_C 	C 	0.6352	0.8677	0.5526	0.229
Mof_C 	C 	0.6406	0.8555	0.6192	-0.169
Mof_H 	H 	0.6793	0.8576	0.6508	0.081
Mof_C 	C 	0.5879	0.8396	0.6403	-0.004
Mof_C 	C 	0.5311	0.8342	0.5941	-0.142
Mof_C 	C 	0.5292	0.8541	0.5264	0.089
Mof_H 	H 	0.4907	0.8572	0.4944	0.016
Mof_C 	C 	0.5794	0.8691	0.5046	-0.209
Mof_H 	H 	0.5764	0.8799	0.4588	0.126
Mof_C 	C 	0.5997	0.832	0.7147	0.371
Mof_C 	C 	0.4734	0.8208	0.6107	0.382
Mof_C 	C 	0.7416	0.8557	0.5698	0.171
Mof_C 	C 	0.755	0.7357	0.5806	-0.127
Mof_H 	H 	0.7242	0.6765	0.5655	0.093
Mof_C 	C 	0.8138	0.6992	0.6136	-0.02
Mof_C 	C 	0.8572	0.7872	0.6378	-0.013
Mof_H 	H 	0.8975	0.7644	0.6605	0.066
Mof_C 	C 	0.8413	0.9109	0.6285	-0.078
Mof_C 	C 	0.784	0.945	0.5923	-0.094
Mof_H 	H 	0.7741	0.0282	0.5831	0.052
Mof_C 	C 	0.8293	0.5701	0.6217	0.298
Mof_C 	C 	0.8876	0.0079	0.6577	0.419
Mof_C 	C 	0.7333	0.2763	0.5184	0.438
Mof_H 	H 	0.7088	0.3131	0.5433	-0.126
Mof_Eu	Eu	0.35962	0.17975	0.1418	2.279
Mof_O 	O 	0.1846	0.6086	0.0297	-0.257
Mof_O 	O 	0.0927	0.7681	0.2421	-0.637
Mof_O 	O 	0.1197	0.5785	0.2477	-0.474
Mof_O 	O 	0.924	0.6767	0.0662	-0.46
Mof_O 	O 	0.9741	0.6907	0.172	-0.578
Mof_O 	O 	0.3839	0.9644	0.1317	-0.425
Mof_O 	O 	0.2884	0.0084	0.1226	-0.447
Mof_O 	O 	0.4312	0.5219	0.2077	-0.534
Mof_O 	O 	0.3803	0.3882	0.1329	-0.599
Mof_O 	O 	0.2909	0.2264	0.0394	-0.663
Mof_C 	C 	0.1352	0.6323	0.0526	0.19
Mof_C 	C 	0.1406	0.6445	0.1192	-0.147
Mof_H 	H 	0.1793	0.6424	0.1508	0.073
Mof_C 	C 	0.0879	0.6604	0.1403	-0.012
Mof_C 	C 	0.0311	0.6658	0.0941	-0.162
Mof_C 	C 	0.0292	0.6459	0.0264	-0.06
Mof_H 	H 	0.9907	0.6428	0.9944	0.111
Mof_C 	C 	0.0794	0.6309	0.0046	-0.122
Mof_H 	H 	0.0764	0.6201	0.9588	0.08
Mof_C 	C 	0.0997	0.668	0.2147	0.357
Mof_C 	C 	0.9734	0.6792	0.1107	0.435
Mof_C 	C 	0.2416	0.6443	0.0698	0.163
Mof_C 	C 	0.255	0.7643	0.0806	-0.119
Mof_H 	H 	0.2242	0.8235	0.0655	0.09
Mof_C 	C 	0.3138	0.8008	0.1136	-0.029
Mof_C 	C 	0.3572	0.7128	0.1378	-0.004
Mof_H 	H 	0.3975	0.7356	0.1605	0.051
Mof_C 	C 	0.3413	0.5891	0.1285	-0.093
Mof_C 	C 	0.284	0.555	0.0923	-0.086
Mof_H 	H 	0.2741	0.4718	0.0831	0.049
Mof_C 	C 	0.3293	0.9299	0.1217	0.3
Mof_C 	C 	0.3876	0.4921	0.1577	0.431
Mof_C 	C 	0.2333	0.2237	0.0184	0.454
Mof_H 	H 	0.2088	0.1869	0.0433	-0.132
Mof_Eu	Eu	0.85962	0.67975	0.1418	2.289
Mof_O 	O 	0.6846	0.1086	0.0297	-0.264
Mof_O 	O 	0.5927	0.2681	0.2421	-0.651
Mof_O 	O 	0.6197	0.0785	0.2477	-0.47
Mof_O 	O 	0.424	0.1767	0.0662	-0.458
Mof_O 	O 	0.4741	0.1907	0.172	-0.622
Mof_O 	O 	0.8839	0.4644	0.1317	-0.415
Mof_O 	O 	0.7884	0.5084	0.1226	-0.447
Mof_O 	O 	0.9312	0.0219	0.2077	-0.474
Mof_O 	O 	0.8803	0.8882	0.1329	-0.581
Mof_O 	O 	0.7909	0.7264	0.0394	-0.663
Mof_C 	C 	0.6352	0.1323	0.0526	0.225
Mof_C 	C 	0.6406	0.1445	0.1192	-0.167
Mof_H 	H 	0.6793	0.1424	0.1508	0.081
Mof_C 	C 	0.5879	0.1604	0.1403	-0.004
Mof_C 	C 	0.5311	0.1658	0.0941	-0.143
Mof_C 	C 	0.5292	0.1459	0.0264	0.098
Mof_H 	H 	0.4907	0.1428	0.9944	0.007
Mof_C 	C 	0.5794	0.1309	0.0046	-0.197
Mof_H 	H 	0.5764	0.1201	0.9588	0.116
Mof_C 	C 	0.5997	0.168	0.2147	0.372
Mof_C 	C 	0.4734	0.1792	0.1107	0.383
Mof_C 	C 	0.7416	0.1443	0.0698	0.169
Mof_C 	C 	0.755	0.2643	0.0806	-0.125
Mof_H 	H 	0.7242	0.3235	0.0655	0.093
Mof_C 	C 	0.8138	0.3008	0.1136	-0.02
Mof_C 	C 	0.8572	0.2128	0.1378	-0.013
Mof_H 	H 	0.8975	0.2356	0.1605	0.066
Mof_C 	C 	0.8413	0.0891	0.1285	-0.078
Mof_C 	C 	0.784	0.055	0.0923	-0.089
Mof_H 	H 	0.7741	0.9718	0.0831	0.049
Mof_C 	C 	0.8293	0.4299	0.1217	0.299
Mof_C 	C 	0.8876	0.9921	0.1577	0.417
Mof_C 	C 	0.7333	0.7237	0.0184	0.448
Mof_H 	H 	0.7088	0.6869	0.0433	-0.129
Mof_Eu	Eu	0.64038	0.17975	0.3582	2.28
Mof_O 	O 	0.8154	0.6086	0.4703	-0.276
Mof_O 	O 	0.9073	0.7681	0.2579	-0.612
Mof_O 	O 	0.8803	0.5785	0.2523	-0.462
Mof_O 	O 	0.076	0.6767	0.4338	-0.453
Mof_O 	O 	0.0259	0.6907	0.328	-0.615
Mof_O 	O 	0.6161	0.9644	0.3683	-0.425
Mof_O 	O 	0.7116	0.0084	0.3774	-0.446
Mof_O 	O 	0.5688	0.5219	0.2923	-0.534
Mof_O 	O 	0.6197	0.3882	0.3671	-0.599
Mof_O 	O 	0.7091	0.2264	0.4606	-0.666
Mof_C 	C 	0.8648	0.6323	0.4474	0.265
Mof_C 	C 	0.8594	0.6445	0.3808	-0.19
Mof_H 	H 	0.8207	0.6424	0.3492	0.088
Mof_C 	C 	0.9121	0.6604	0.3597	0.012
Mof_C 	C 	0.9689	0.6658	0.4059	-0.113
Mof_C 	C 	0.9708	0.6459	0.4736	0.245
Mof_H 	H 	0.0093	0.6428	0.5056	-0.084
Mof_C 	C 	0.9206	0.6309	0.4954	-0.286
Mof_H 	H 	0.9236	0.6201	0.5412	0.166
Mof_C 	C 	0.9003	0.668	0.2853	0.372
Mof_C 	C 	0.0266	0.6792	0.3893	0.318
Mof_C 	C 	0.7584	0.6443	0.4302	0.171
Mof_C 	C 	0.745	0.7643	0.4194	-0.126
Mof_H 	H 	0.7758	0.8235	0.4345	0.094
Mof_C 	C 	0.6862	0.8008	0.3864	-0.025
Mof_C 	C 	0.6428	0.7128	0.3622	-0.007
Mof_H 	H 	0.6025	0.7356	0.3395	0.052
Mof_C 	C 	0.6587	0.5891	0.3715	-0.09
Mof_C 	C 	0.716	0.555	0.4077	-0.092
Mof_H 	H 	0.7259	0.4718	0.4169	0.051
Mof_C 	C 	0.6707	0.9299	0.3783	0.3
Mof_C 	C 	0.6124	0.4921	0.3423	0.43
Mof_C 	C 	0.7667	0.2237	0.4816	0.438
Mof_H 	H 	0.7912	0.1869	0.4567	-0.122
Mof_Eu	Eu	0.14038	0.67975	0.3582	2.276
Mof_O 	O 	0.3154	0.1086	0.4703	-0.267
Mof_O 	O 	0.4073	0.2681	0.2579	-0.652
Mof_O 	O 	0.3803	0.0785	0.2523	-0.471
Mof_O 	O 	0.576	0.1767	0.4338	-0.461
Mof_O 	O 	0.5259	0.1907	0.328	-0.622
Mof_O 	O 	0.1161	0.4644	0.3683	-0.432
Mof_O 	O 	0.2116	0.5084	0.3774	-0.449
Mof_O 	O 	0.0688	0.0219	0.2923	-0.526
Mof_O 	O 	0.1197	0.8882	0.3671	-0.595
Mof_O 	O 	0.2091	0.7264	0.4606	-0.667
Mof_C 	C 	0.3648	0.1323	0.4474	0.228
Mof_C 	C 	0.3594	0.1445	0.3808	-0.168
Mof_H 	H 	0.3207	0.1424	0.3492	0.08
Mof_C 	C 	0.4121	0.1604	0.3597	-0.005
Mof_C 	C 	0.4689	0.1658	0.4059	-0.141
Mof_C 	C 	0.4708	0.1459	0.4736	0.088
Mof_H 	H 	0.5093	0.1428	0.5056	0.016
Mof_C 	C 	0.4206	0.1309	0.4954	-0.209
Mof_H 	H 	0.4236	0.1201	0.5412	0.125
Mof_C 	C 	0.4003	0.168	0.2853	0.371
Mof_C 	C 	0.5266	0.1792	0.3893	0.381
Mof_C 	C 	0.2584	0.1443	0.4302	0.164
Mof_C 	C 	0.245	0.2643	0.4194	-0.12
Mof_H 	H 	0.2758	0.3235	0.4345	0.09
Mof_C 	C 	0.1862	0.3008	0.3864	-0.033
Mof_C 	C 	0.1428	0.2128	0.3622	-0.003
Mof_H 	H 	0.1025	0.2356	0.3395	0.042
Mof_C 	C 	0.1587	0.0891	0.3715	-0.096
Mof_C 	C 	0.216	0.055	0.4077	-0.086
Mof_H 	H 	0.2259	0.9718	0.4169	0.048
Mof_C 	C 	0.1707	0.4299	0.3783	0.304
Mof_C 	C 	0.1124	0.9921	0.3423	0.425
Mof_C 	C 	0.2667	0.7237	0.4816	0.438
Mof_H 	H 	0.2912	0.6869	0.4567	-0.126
Mof_Eu	Eu	0.5	0.63879	0.75	2.065
Mof_Eu	Eu	3.2747e-33	0.13879	0.75	1.855
Mof_Eu	Eu	0.5	0.36121	0.25	2.066
Mof_Eu	Eu	1.11436e-17	0.86121	0.25	1.858
_end
