data_functionalizedCrystal
_audit_creation_method	'EQeq! by Chris Wilmer'
_symmetry_space_group_name_H-M	'P1'
_symmetry_Int_Tables_number	1
_symmetry_cell_setting	triclinic
loop_
_symmetry_equiv_pos_as_xyz
  x,y,z
_cell_length_a	14.956
_cell_length_b	23.671
_cell_length_c	9.026
_cell_angle_alpha	90
_cell_angle_beta	90
_cell_angle_gamma	90
loop_
_atom_site_label
_atom_site_type_symbol
_atom_site_fract_x
_atom_site_fract_y
_atom_site_fract_z
_atom_site_charge
Mof_Fe	Fe	0.92451	0.9443	0.99939	0.847
Mof_O 	O 	0.8671	0.9269	0.195	-0.227
Mof_O 	O 	0.5878	0.8759	0.1959	-0.232
Mof_O 	O 	0.4834	0.9303	0.3039	-0.266
Mof_O 	O 	0.7679	0.8702	0.303	-0.247
Mof_C 	C 	0.8116	0.8878	0.1958	0.239
Mof_C 	C 	0.544	0.8921	0.302	0.257
Mof_Cl	Cl	0.56865	0.74572	0.1552	-0.282
Mof_Fe	Fe	0.92451	0.4443	0.49939	0.999
Mof_O 	O 	0.8671	0.4269	0.695	-0.284
Mof_O 	O 	0.5878	0.3759	0.6959	-0.253
Mof_O 	O 	0.4834	0.4303	0.8039	-0.275
Mof_O 	O 	0.7679	0.3702	0.803	-0.267
Mof_C 	C 	0.8116	0.3878	0.6958	0.275
Mof_C 	C 	0.544	0.3921	0.802	0.285
Mof_Cl	Cl	0.56865	0.24572	0.6552	-0.325
Mof_Fe	Fe	0.42451	0.9443	0.49939	0.997
Mof_O 	O 	0.3671	0.9269	0.695	-0.284
Mof_O 	O 	0.0878	0.8759	0.6959	-0.258
Mof_O 	O 	0.9834	0.9303	0.8039	-0.299
Mof_O 	O 	0.2679	0.8702	0.803	-0.267
Mof_C 	C 	0.3116	0.8878	0.6958	0.275
Mof_C 	C 	0.044	0.8921	0.802	0.309
Mof_Cl	Cl	0.06865	0.74572	0.6552	-0.315
Mof_Fe	Fe	0.42451	0.4443	0.99939	0.884
Mof_O 	O 	0.3671	0.4269	0.195	-0.218
Mof_O 	O 	0.0878	0.3759	0.1959	-0.233
Mof_O 	O 	0.9834	0.4303	0.3039	-0.282
Mof_O 	O 	0.2679	0.3702	0.303	-0.244
Mof_C 	C 	0.3116	0.3878	0.1958	0.239
Mof_C 	C 	0.044	0.3921	0.302	0.281
Mof_Cl	Cl	0.06865	0.24572	0.1552	-0.272
Mof_Fe	Fe	0.07549	0.0557	0.99939	0.903
Mof_O 	O 	0.1329	0.0731	0.195	-0.214
Mof_O 	O 	0.4122	0.1241	0.1959	-0.228
Mof_O 	O 	0.5166	0.0697	0.3039	-0.258
Mof_O 	O 	0.2321	0.1298	0.303	-0.242
Mof_C 	C 	0.1884	0.1122	0.1958	0.24
Mof_C 	C 	0.456	0.1079	0.302	0.256
Mof_Cl	Cl	0.43135	0.25428	0.1552	-0.282
Mof_Fe	Fe	0.07549	0.5557	0.49939	1.026
Mof_O 	O 	0.1329	0.5731	0.695	-0.278
Mof_O 	O 	0.4122	0.6241	0.6959	-0.253
Mof_O 	O 	0.5166	0.5697	0.8039	-0.275
Mof_O 	O 	0.2321	0.6298	0.803	-0.265
Mof_C 	C 	0.1884	0.6122	0.6958	0.276
Mof_C 	C 	0.456	0.6079	0.802	0.285
Mof_Cl	Cl	0.43135	0.75428	0.6552	-0.325
Mof_Fe	Fe	0.57549	0.0557	0.49939	1.028
Mof_O 	O 	0.6329	0.0731	0.695	-0.278
Mof_O 	O 	0.9122	0.1241	0.6959	-0.249
Mof_O 	O 	0.0166	0.0697	0.8039	-0.252
Mof_O 	O 	0.7321	0.1298	0.803	-0.265
Mof_C 	C 	0.6884	0.1122	0.6958	0.275
Mof_C 	C 	0.956	0.1079	0.802	0.26
Mof_Cl	Cl	0.93135	0.25428	0.6552	-0.335
Mof_Fe	Fe	0.57549	0.5557	0.99939	0.884
Mof_O 	O 	0.6329	0.5731	0.195	-0.218
Mof_O 	O 	0.9122	0.6241	0.1959	-0.227
Mof_O 	O 	0.0166	0.5697	0.3039	-0.242
Mof_O 	O 	0.7321	0.6298	0.303	-0.244
Mof_C 	C 	0.6884	0.6122	0.1958	0.239
Mof_C 	C 	0.956	0.6079	0.302	0.232
Mof_Cl	Cl	0.93135	0.75428	0.1552	-0.294
Mof_Fe	Fe	0.17451	0.3057	0.24939	1.023
Mof_O 	O 	0.1171	0.3231	0.445	-0.27
Mof_O 	O 	0.8378	0.3741	0.4459	-0.239
Mof_O 	O 	0.7334	0.3197	0.5539	-0.268
Mof_O 	O 	0.0179	0.3798	0.553	-0.247
Mof_C 	C 	0.0616	0.3622	0.4458	0.269
Mof_C 	C 	0.794	0.3579	0.552	0.255
Mof_Cl	Cl	0.81865	0.50428	0.4052	-0.306
Mof_Fe	Fe	0.17451	0.8057	0.74939	1.013
Mof_O 	O 	0.1171	0.8231	0.945	-0.261
Mof_O 	O 	0.8378	0.8741	0.9459	-0.335
Mof_O 	O 	0.7334	0.8197	0.0539	-0.281
Mof_O 	O 	0.0179	0.8798	0.053	-0.124
Mof_C 	C 	0.0616	0.8622	0.9458	0.15
Mof_C 	C 	0.794	0.8579	0.052	0.374
Mof_Cl	Cl	0.81865	0.00428	0.9052	-0.324
Mof_Fe	Fe	0.67451	0.3057	0.74939	1.012
Mof_O 	O 	0.6171	0.3231	0.945	-0.266
Mof_O 	O 	0.3378	0.3741	0.9459	-0.334
Mof_O 	O 	0.2334	0.3197	0.0539	-0.279
Mof_O 	O 	0.5179	0.3798	0.053	-0.136
Mof_C 	C 	0.5616	0.3622	0.9458	0.156
Mof_C 	C 	0.294	0.3579	0.052	0.377
Mof_Cl	Cl	0.31865	0.50428	0.9052	-0.339
Mof_Fe	Fe	0.67451	0.8057	0.24939	1.022
Mof_O 	O 	0.6171	0.8231	0.445	-0.276
Mof_O 	O 	0.3378	0.8741	0.4459	-0.238
Mof_O 	O 	0.2334	0.8197	0.5539	-0.267
Mof_O 	O 	0.5179	0.8798	0.553	-0.261
Mof_C 	C 	0.5616	0.8622	0.4458	0.275
Mof_C 	C 	0.294	0.8579	0.552	0.255
Mof_Cl	Cl	0.31865	0.00428	0.4052	-0.288
Mof_Fe	Fe	0.32549	0.1943	0.24939	1.022
Mof_O 	O 	0.3829	0.1769	0.445	-0.275
Mof_O 	O 	0.6622	0.1259	0.4459	-0.237
Mof_O 	O 	0.7666	0.1803	0.5539	-0.269
Mof_O 	O 	0.4821	0.1202	0.553	-0.261
Mof_C 	C 	0.4384	0.1378	0.4458	0.276
Mof_C 	C 	0.706	0.1421	0.552	0.256
Mof_Cl	Cl	0.68135	0.99572	0.4052	-0.325
Mof_Fe	Fe	0.32549	0.6943	0.74939	1.012
Mof_O 	O 	0.3829	0.6769	0.945	-0.265
Mof_O 	O 	0.6622	0.6259	0.9459	-0.335
Mof_O 	O 	0.7666	0.6803	0.0539	-0.282
Mof_O 	O 	0.4821	0.6202	0.053	-0.136
Mof_C 	C 	0.4384	0.6378	0.9458	0.156
Mof_C 	C 	0.706	0.6421	0.052	0.376
Mof_Cl	Cl	0.68135	0.49572	0.9052	-0.341
Mof_Fe	Fe	0.82549	0.1943	0.74939	1.012
Mof_O 	O 	0.8829	0.1769	0.945	-0.27
Mof_O 	O 	0.1622	0.1259	0.9459	-0.33
Mof_O 	O 	0.2666	0.1803	0.0539	-0.28
Mof_O 	O 	0.9821	0.1202	0.053	-0.152
Mof_C 	C 	0.9384	0.1378	0.9458	0.165
Mof_C 	C 	0.206	0.1421	0.052	0.377
Mof_Cl	Cl	0.18135	0.99572	0.9052	-0.356
Mof_Fe	Fe	0.82549	0.6943	0.24939	1.021
Mof_O 	O 	0.8829	0.6769	0.445	-0.28
Mof_O 	O 	0.1622	0.6259	0.4459	-0.236
Mof_O 	O 	0.2666	0.6803	0.5539	-0.268
Mof_O 	O 	0.9821	0.6202	0.553	-0.275
Mof_C 	C 	0.9384	0.6378	0.4458	0.282
Mof_C 	C 	0.206	0.6421	0.552	0.256
Mof_Cl	Cl	0.18135	0.49572	0.4052	-0.304
Mof_O 	O 	0.75	0.75	0.3271	-0.38
Mof_O 	O 	0.75	0.25	0.8271	-0.39
Mof_O 	O 	0.25	0.25	0.3271	-0.379
Mof_O 	O 	0.25	0.75	0.8271	-0.389
Mof_O 	O 	-2.64411e-33	0.5	0.5771	-0.37
Mof_O 	O 	1.7446e-34	2.46873e-34	0.0771	-0.256
Mof_O 	O 	0.5	0.5	0.0771	-0.279
Mof_O 	O 	0.5	1.97498e-33	0.5771	-0.37
_end
