data_functionalizedCrystal
_audit_creation_method	'EQeq! by Chris Wilmer'
_symmetry_space_group_name_H-M	'P1'
_symmetry_Int_Tables_number	1
_symmetry_cell_setting	triclinic
loop_
_symmetry_equiv_pos_as_xyz
  x,y,z
_cell_length_a	6.543
_cell_length_b	29.402
_cell_length_c	16.849
_cell_angle_alpha	90
_cell_angle_beta	90
_cell_angle_gamma	90
loop_
_atom_site_label
_atom_site_type_symbol
_atom_site_fract_x
_atom_site_fract_y
_atom_site_fract_z
_atom_site_charge
Mof_Ag	Ag	0.75	0.97833	0.78505	0.572
Mof_Ag	Ag	0.25	0.52167	0.28505	0.572
Mof_Ag	Ag	0.25	0.02167	0.21495	0.572
Mof_Ag	Ag	0.75	0.47833	0.71495	0.572
Mof_Ag	Ag	0.25	0.83149	0.5959	0.546
Mof_Ag	Ag	0.25	0.84045	0.97703	0.561
Mof_Ag	Ag	0.75	0.66851	0.0959	0.544
Mof_Ag	Ag	0.75	0.65955	0.47703	0.561
Mof_Ag	Ag	0.75	0.16851	0.4041	0.545
Mof_Ag	Ag	0.75	0.15955	0.02297	0.56
Mof_Ag	Ag	0.25	0.33149	0.9041	0.544
Mof_Ag	Ag	0.25	0.34045	0.52297	0.561
Mof_Ag	Ag	0.75	0.84673	0.28642	0.545
Mof_Ag	Ag	0.25	0.65327	0.78642	0.545
Mof_Ag	Ag	0.25	0.15327	0.71358	0.545
Mof_Ag	Ag	0.75	0.34673	0.21358	0.545
Mof_H 	H 	0.9466	0.8905	0.8548	0.037
Mof_H 	H 	0.0638	0.929	0.8985	0.043
Mof_H 	H 	0.1312	0.8303	0.7886	0.042
Mof_H 	H 	0.0564	0.9224	0.6623	-0.017
Mof_H 	H 	0.9488	0.8857	0.7136	0.013
Mof_H 	H 	0.5546	0.7442	0.5827	0.019
Mof_H 	H 	0.4532	0.7472	0.4995	0.018
Mof_H 	H 	0.8693	0.7501	0.3799	0.034
Mof_H 	H 	0.4456	0.8141	0.4241	0.02
Mof_H 	H 	0.555	0.858	0.453	-0.012
Mof_H 	H 	0.3691	0.9364	0.0804	0.055
Mof_H 	H 	0.5537	0.9359	0.204	0.01
Mof_H 	H 	0.4389	0.9364	0.2846	-0.017
Mof_H 	H 	0.4357	0.8249	0.148	0.013
Mof_H 	H 	0.5535	0.8682	0.1214	0.016
Mof_H 	H 	0.0534	0.6095	0.3548	0.036
Mof_H 	H 	0.9362	0.571	0.3985	0.043
Mof_H 	H 	0.8688	0.6697	0.2886	0.042
Mof_H 	H 	0.9436	0.5776	0.1623	-0.017
Mof_H 	H 	0.0512	0.6143	0.2136	0.013
Mof_H 	H 	0.4454	0.7558	0.0827	0.019
Mof_H 	H 	0.5468	0.7528	0.9995	0.017
Mof_H 	H 	0.1307	0.7499	0.8799	0.034
Mof_H 	H 	0.5544	0.6859	0.9241	0.02
Mof_H 	H 	0.445	0.642	0.953	-0.012
Mof_H 	H 	0.6309	0.5636	0.5804	0.054
Mof_H 	H 	0.4463	0.5641	0.704	0.01
Mof_H 	H 	0.5611	0.5636	0.7846	-0.017
Mof_H 	H 	0.5643	0.6751	0.648	0.013
Mof_H 	H 	0.4465	0.6318	0.6214	0.016
Mof_H 	H 	0.4466	0.1095	0.1452	0.036
Mof_H 	H 	0.5638	0.071	0.1015	0.042
Mof_H 	H 	0.6312	0.1697	0.2114	0.042
Mof_H 	H 	0.5564	0.0776	0.3377	-0.017
Mof_H 	H 	0.4488	0.1143	0.2864	0.012
Mof_H 	H 	0.0546	0.2558	0.4173	0.019
Mof_H 	H 	0.9532	0.2528	0.5005	0.017
Mof_H 	H 	0.3693	0.2499	0.6201	0.035
Mof_H 	H 	0.9456	0.1859	0.5759	0.02
Mof_H 	H 	0.055	0.142	0.547	-0.012
Mof_H 	H 	0.8691	0.0636	0.9196	0.055
Mof_H 	H 	0.0537	0.0641	0.796	0.008
Mof_H 	H 	0.9389	0.0636	0.7154	-0.017
Mof_H 	H 	0.9357	0.1751	0.852	0.012
Mof_H 	H 	0.0535	0.1318	0.8786	0.015
Mof_H 	H 	0.5534	0.3905	0.6452	0.035
Mof_H 	H 	0.4362	0.429	0.6015	0.042
Mof_H 	H 	0.3688	0.3303	0.7114	0.042
Mof_H 	H 	0.4436	0.4224	0.8377	-0.017
Mof_H 	H 	0.5512	0.3857	0.7864	0.012
Mof_H 	H 	0.9454	0.2442	0.9173	0.019
Mof_H 	H 	0.0468	0.2472	0.0005	0.017
Mof_H 	H 	0.6307	0.2501	0.1201	0.035
Mof_H 	H 	0.0544	0.3141	0.0759	0.022
Mof_H 	H 	0.945	0.358	0.047	-0.011
Mof_H 	H 	0.1309	0.4364	0.4196	0.055
Mof_H 	H 	0.9463	0.4359	0.296	0.008
Mof_H 	H 	0.0611	0.4364	0.2154	-0.017
Mof_H 	H 	0.0643	0.3249	0.352	0.013
Mof_H 	H 	0.9465	0.3682	0.3786	0.015
Mof_H 	H 	0.0534	0.1095	0.1452	0.037
Mof_H 	H 	0.9362	0.071	0.1015	0.043
Mof_H 	H 	0.8688	0.1697	0.2114	0.042
Mof_H 	H 	0.9436	0.0776	0.3377	-0.017
Mof_H 	H 	0.0512	0.1143	0.2864	0.013
Mof_H 	H 	0.4454	0.2558	0.4173	0.019
Mof_H 	H 	0.5468	0.2528	0.5005	0.018
Mof_H 	H 	0.1307	0.2499	0.6201	0.034
Mof_H 	H 	0.5544	0.1859	0.5759	0.02
Mof_H 	H 	0.445	0.142	0.547	-0.012
Mof_H 	H 	0.6309	0.0636	0.9196	0.055
Mof_H 	H 	0.4463	0.0641	0.796	0.01
Mof_H 	H 	0.5611	0.0636	0.7154	-0.017
Mof_H 	H 	0.5643	0.1751	0.852	0.013
Mof_H 	H 	0.4465	0.1318	0.8786	0.016
Mof_H 	H 	0.9466	0.3905	0.6452	0.036
Mof_H 	H 	0.0638	0.429	0.6015	0.043
Mof_H 	H 	0.1312	0.3303	0.7114	0.042
Mof_H 	H 	0.0564	0.4224	0.8377	-0.017
Mof_H 	H 	0.9488	0.3857	0.7864	0.013
Mof_H 	H 	0.5546	0.2442	0.9173	0.019
Mof_H 	H 	0.4532	0.2472	0.0005	0.017
Mof_H 	H 	0.8693	0.2501	0.1201	0.034
Mof_H 	H 	0.4456	0.3141	0.0759	0.02
Mof_H 	H 	0.555	0.358	0.047	-0.012
Mof_H 	H 	0.3691	0.4364	0.4196	0.054
Mof_H 	H 	0.5537	0.4359	0.296	0.01
Mof_H 	H 	0.4389	0.4364	0.2154	-0.017
Mof_H 	H 	0.4357	0.3249	0.352	0.013
Mof_H 	H 	0.5535	0.3682	0.3786	0.016
Mof_H 	H 	0.5534	0.8905	0.8548	0.036
Mof_H 	H 	0.4362	0.929	0.8985	0.042
Mof_H 	H 	0.3688	0.8303	0.7886	0.042
Mof_H 	H 	0.4436	0.9224	0.6623	-0.017
Mof_H 	H 	0.5512	0.8857	0.7136	0.012
Mof_H 	H 	0.9454	0.7442	0.5827	0.019
Mof_H 	H 	0.0468	0.7472	0.4995	0.017
Mof_H 	H 	0.6307	0.7501	0.3799	0.035
Mof_H 	H 	0.0544	0.8141	0.4241	0.02
Mof_H 	H 	0.945	0.858	0.453	-0.012
Mof_H 	H 	0.1309	0.9364	0.0804	0.055
Mof_H 	H 	0.9463	0.9359	0.204	0.008
Mof_H 	H 	0.0611	0.9364	0.2846	-0.017
Mof_H 	H 	0.0643	0.8249	0.148	0.012
Mof_H 	H 	0.9465	0.8682	0.1214	0.015
Mof_H 	H 	0.4466	0.6095	0.3548	0.035
Mof_H 	H 	0.5638	0.571	0.3985	0.042
Mof_H 	H 	0.6312	0.6697	0.2886	0.042
Mof_H 	H 	0.5564	0.5776	0.1623	-0.017
Mof_H 	H 	0.4488	0.6143	0.2136	0.012
Mof_H 	H 	0.0546	0.7558	0.0827	0.019
Mof_H 	H 	0.9532	0.7528	0.9995	0.017
Mof_H 	H 	0.3693	0.7499	0.8799	0.035
Mof_H 	H 	0.9456	0.6859	0.9241	0.022
Mof_H 	H 	0.055	0.642	0.953	-0.011
Mof_H 	H 	0.8691	0.5636	0.5804	0.055
Mof_H 	H 	0.0537	0.5641	0.704	0.008
Mof_H 	H 	0.9389	0.5636	0.7846	-0.017
Mof_H 	H 	0.9357	0.6751	0.648	0.013
Mof_H 	H 	0.0535	0.6318	0.6214	0.015
Mof_H 	H 	0.25	0.9869	0.818	0.029
Mof_H 	H 	0.25	0.9813	0.7264	-0.005
Mof_H 	H 	0.25	0.826	0.2717	0.029
Mof_H 	H 	0.25	0.8687	0.326	-0.001
Mof_H 	H 	0.75	0.5131	0.318	0.029
Mof_H 	H 	0.75	0.5187	0.2264	-0.005
Mof_H 	H 	0.75	0.674	0.7717	0.029
Mof_H 	H 	0.75	0.6313	0.826	-0.001
Mof_H 	H 	0.75	0.0131	0.182	0.029
Mof_H 	H 	0.75	0.0187	0.2736	-0.005
Mof_H 	H 	0.75	0.174	0.7283	0.029
Mof_H 	H 	0.75	0.1313	0.674	-0.001
Mof_H 	H 	0.25	0.4869	0.682	0.029
Mof_H 	H 	0.25	0.4813	0.7736	-0.005
Mof_H 	H 	0.25	0.326	0.2283	0.029
Mof_H 	H 	0.25	0.3687	0.174	-0.001
Mof_H 	H 	0.75	0.8569	0.5772	-0.005
Mof_H 	H 	0.75	0.8126	0.6274	0.034
Mof_H 	H 	0.25	0.6431	0.0772	-0.004
Mof_H 	H 	0.25	0.6874	0.1274	0.034
Mof_H 	H 	0.25	0.1431	0.4228	-0.005
Mof_H 	H 	0.25	0.1874	0.3726	0.034
Mof_H 	H 	0.75	0.3569	0.9228	-0.004
Mof_H 	H 	0.75	0.3126	0.8726	0.034
Mof_C 	C 	0.0667	0.90927	0.8532	-0.018
Mof_C 	C 	0.0665	0.9052	0.7105	0.018
Mof_C 	C 	0.5669	0.75734	0.5308	0.006
Mof_C 	C 	0.5629	0.8254	0.4521	0.005
Mof_C 	C 	0.435	0.92483	0.2314	0.015
Mof_C 	C 	0.4336	0.85757	0.1485	-0.001
Mof_C 	C 	0.9333	0.59073	0.3532	-0.017
Mof_C 	C 	0.9335	0.5948	0.2105	0.018
Mof_C 	C 	0.4331	0.74266	0.0308	0.008
Mof_C 	C 	0.4371	0.6746	0.9521	0.004
Mof_C 	C 	0.565	0.57517	0.7314	0.015
Mof_C 	C 	0.5664	0.64243	0.6485	-0.001
Mof_C 	C 	0.5667	0.09073	0.1468	-0.016
Mof_C 	C 	0.5665	0.0948	0.2895	0.02
Mof_C 	C 	0.0669	0.24266	0.4692	0.006
Mof_C 	C 	0.0629	0.1746	0.5479	0.004
Mof_C 	C 	0.935	0.07517	0.7686	0.018
Mof_C 	C 	0.9336	0.14243	0.8515	0.002
Mof_C 	C 	0.4333	0.40927	0.6468	-0.016
Mof_C 	C 	0.4335	0.4052	0.7895	0.02
Mof_C 	C 	0.9331	0.25734	0.9692	0.008
Mof_C 	C 	0.9371	0.3254	0.0479	0.002
Mof_C 	C 	0.065	0.42483	0.2686	0.017
Mof_C 	C 	0.0664	0.35757	0.3515	0.001
Mof_C 	C 	0.9333	0.09073	0.1468	-0.018
Mof_C 	C 	0.9335	0.0948	0.2895	0.018
Mof_C 	C 	0.4331	0.24266	0.4692	0.006
Mof_C 	C 	0.4371	0.1746	0.5479	0.005
Mof_C 	C 	0.565	0.07517	0.7686	0.015
Mof_C 	C 	0.5664	0.14243	0.8515	-0.001
Mof_C 	C 	0.0667	0.40927	0.6468	-0.017
Mof_C 	C 	0.0665	0.4052	0.7895	0.018
Mof_C 	C 	0.5669	0.25734	0.9692	0.008
Mof_C 	C 	0.5629	0.3254	0.0479	0.004
Mof_C 	C 	0.435	0.42483	0.2686	0.015
Mof_C 	C 	0.4336	0.35757	0.3515	-0.001
Mof_C 	C 	0.4333	0.90927	0.8532	-0.016
Mof_C 	C 	0.4335	0.9052	0.7105	0.02
Mof_C 	C 	0.9331	0.75734	0.5308	0.006
Mof_C 	C 	0.9371	0.8254	0.4521	0.004
Mof_C 	C 	0.065	0.92483	0.2314	0.018
Mof_C 	C 	0.0664	0.85757	0.1485	0.002
Mof_C 	C 	0.5667	0.59073	0.3532	-0.016
Mof_C 	C 	0.5665	0.5948	0.2105	0.02
Mof_C 	C 	0.0669	0.74266	0.0308	0.008
Mof_C 	C 	0.0629	0.6746	0.9521	0.002
Mof_C 	C 	0.935	0.57517	0.7314	0.017
Mof_C 	C 	0.9336	0.64243	0.6485	0.001
Mof_C 	C 	0.25	0.8495	0.7867	-0.015
Mof_C 	C 	0.25	0.965	0.7758	0.009
Mof_C 	C 	0.25	0.9248	0.1069	-0.019
Mof_C 	C 	0.25	0.8587	0.2719	0.015
Mof_C 	C 	0.75	0.6505	0.2867	-0.015
Mof_C 	C 	0.75	0.535	0.2758	0.009
Mof_C 	C 	0.75	0.5752	0.6069	-0.019
Mof_C 	C 	0.75	0.6413	0.7719	0.015
Mof_C 	C 	0.75	0.1505	0.2133	-0.015
Mof_C 	C 	0.75	0.035	0.2242	0.009
Mof_C 	C 	0.75	0.0752	0.8931	-0.019
Mof_C 	C 	0.75	0.1413	0.7281	0.015
Mof_C 	C 	0.25	0.3495	0.7133	-0.015
Mof_C 	C 	0.25	0.465	0.7242	0.009
Mof_C 	C 	0.25	0.4248	0.3931	-0.019
Mof_C 	C 	0.25	0.3587	0.2281	0.015
Mof_C 	C 	0.75	0.7603	0.4079	-0.008
Mof_C 	C 	0.75	0.8242	0.5743	0.014
Mof_C 	C 	0.25	0.7397	0.9079	-0.008
Mof_C 	C 	0.25	0.6758	0.0743	0.014
Mof_C 	C 	0.25	0.2397	0.5921	-0.008
Mof_C 	C 	0.25	0.1758	0.4257	0.014
Mof_C 	C 	0.75	0.2603	0.0921	-0.008
Mof_C 	C 	0.75	0.3242	0.9257	0.014
Mof_N 	N 	0.0621	0.93656	0.7788	-0.152
Mof_N 	N 	0.5623	0.80791	0.5351	-0.154
Mof_N 	N 	0.4377	0.87452	0.232	-0.157
Mof_N 	N 	0.9379	0.56344	0.2788	-0.152
Mof_N 	N 	0.4377	0.69209	0.0351	-0.154
Mof_N 	N 	0.5623	0.62548	0.732	-0.157
Mof_N 	N 	0.5621	0.06344	0.2212	-0.152
Mof_N 	N 	0.0623	0.19209	0.4649	-0.154
Mof_N 	N 	0.9377	0.12548	0.768	-0.157
Mof_N 	N 	0.4379	0.43656	0.7212	-0.152
Mof_N 	N 	0.9377	0.30791	0.9649	-0.153
Mof_N 	N 	0.0623	0.37452	0.268	-0.157
Mof_N 	N 	0.9379	0.06344	0.2212	-0.152
Mof_N 	N 	0.4377	0.19209	0.4649	-0.154
Mof_N 	N 	0.5623	0.12548	0.768	-0.157
Mof_N 	N 	0.0621	0.43656	0.7212	-0.152
Mof_N 	N 	0.5623	0.30791	0.9649	-0.154
Mof_N 	N 	0.4377	0.37452	0.268	-0.157
Mof_N 	N 	0.4379	0.93656	0.7788	-0.152
Mof_N 	N 	0.9377	0.80791	0.5351	-0.154
Mof_N 	N 	0.0623	0.87452	0.232	-0.157
Mof_N 	N 	0.5621	0.56344	0.2788	-0.152
Mof_N 	N 	0.0623	0.69209	0.0351	-0.153
Mof_N 	N 	0.9377	0.62548	0.732	-0.157
Mof_N 	N 	0.75	0.9619	0.012	0.089
Mof_N 	N 	0.25	0.5381	0.512	0.089
Mof_N 	N 	0.25	0.0381	0.988	0.089
Mof_N 	N 	0.75	0.4619	0.488	0.089
Mof_N 	N 	0.25	0.8802	0.8571	-0.146
Mof_N 	N 	0.25	0.8764	0.7112	-0.155
Mof_N 	N 	0.25	0.8744	0.1058	-0.147
Mof_N 	N 	0.25	0.9418	0.19	-0.148
Mof_N 	N 	0.75	0.6198	0.3571	-0.146
Mof_N 	N 	0.75	0.6236	0.2112	-0.155
Mof_N 	N 	0.75	0.6256	0.6058	-0.147
Mof_N 	N 	0.75	0.5582	0.69	-0.148
Mof_N 	N 	0.75	0.1198	0.1429	-0.146
Mof_N 	N 	0.75	0.1236	0.2888	-0.155
Mof_N 	N 	0.75	0.1256	0.8942	-0.147
Mof_N 	N 	0.75	0.0582	0.81	-0.148
Mof_N 	N 	0.25	0.3802	0.6429	-0.146
Mof_N 	N 	0.25	0.3764	0.7888	-0.155
Mof_N 	N 	0.25	0.3744	0.3942	-0.147
Mof_N 	N 	0.25	0.4418	0.31	-0.148
Mof_N 	N 	0.75	0.7401	0.4898	-0.153
Mof_N 	N 	0.75	0.8102	0.41	-0.152
Mof_N 	N 	0.25	0.7599	0.9898	-0.154
Mof_N 	N 	0.25	0.6898	0.91	-0.152
Mof_N 	N 	0.25	0.2599	0.5102	-0.153
Mof_N 	N 	0.25	0.1898	0.59	-0.152
Mof_N 	N 	0.75	0.2401	0.0102	-0.154
Mof_N 	N 	0.75	0.3102	0.09	-0.152
Mof_O 	O 	0.75	0.9719	0.9435	-0.186
Mof_O 	O 	0.75	0.9895	0.0585	-0.153
Mof_O 	O 	0.75	0.9234	0.0315	-0.178
Mof_O 	O 	0.25	0.5281	0.4435	-0.186
Mof_O 	O 	0.25	0.5105	0.5585	-0.153
Mof_O 	O 	0.25	0.5766	0.5315	-0.178
Mof_O 	O 	0.25	0.0281	0.0565	-0.186
Mof_O 	O 	0.25	0.0105	0.9415	-0.153
Mof_O 	O 	0.25	0.0766	0.9685	-0.178
Mof_O 	O 	0.75	0.4719	0.5565	-0.186
Mof_O 	O 	0.75	0.4895	0.4415	-0.153
Mof_O 	O 	0.75	0.4234	0.4685	-0.178
Mof_S 	S 	0.75	0.77509	0.78912	0.839
Mof_O 	O 	0.9212	0.7642	0.739	-0.359
Mof_O 	O 	0.5788	0.7642	0.739	-0.36
Mof_O 	O 	0.75	0.8213	0.806	-0.38
Mof_O 	O 	0.75	0.749	0.8574	-0.385
Mof_S 	S 	0.25	0.72491	0.28912	0.839
Mof_O 	O 	0.0788	0.7358	0.239	-0.359
Mof_O 	O 	0.4212	0.7358	0.239	-0.36
Mof_O 	O 	0.25	0.6787	0.306	-0.38
Mof_O 	O 	0.25	0.751	0.3574	-0.385
Mof_S 	S 	0.25	0.22491	0.21088	0.839
Mof_O 	O 	0.4212	0.2358	0.261	-0.36
Mof_O 	O 	0.0788	0.2358	0.261	-0.359
Mof_O 	O 	0.25	0.1787	0.194	-0.38
Mof_O 	O 	0.25	0.251	0.1426	-0.385
Mof_S 	S 	0.75	0.27509	0.71088	0.839
Mof_O 	O 	0.5788	0.2642	0.761	-0.36
Mof_O 	O 	0.9212	0.2642	0.761	-0.359
Mof_O 	O 	0.75	0.3213	0.694	-0.38
Mof_O 	O 	0.75	0.249	0.6426	-0.385
_end
