data_functionalizedCrystal
_audit_creation_method	'EQeq! by Chris Wilmer'
_symmetry_space_group_name_H-M	'P1'
_symmetry_Int_Tables_number	1
_symmetry_cell_setting	triclinic
loop_
_symmetry_equiv_pos_as_xyz
  x,y,z
_cell_length_a	7.5739
_cell_length_b	8.5028
_cell_length_c	15.4945
_cell_angle_alpha	99.568
_cell_angle_beta	103.009
_cell_angle_gamma	90.671
loop_
_atom_site_label
_atom_site_type_symbol
_atom_site_fract_x
_atom_site_fract_y
_atom_site_fract_z
_atom_site_charge
Mof_Ag	Ag	0.3483	0.51598	0.21425	0.338
Mof_Ag	Ag	0.56246	0.63745	0.09316	0.379
Mof_Ag	Ag	0.0702	0.35245	0.28977	0.404
Mof_N 	N 	0.1962	0.2028	0.0717	-0.175
Mof_N 	N 	0.2206	0.8358	0.02778	-0.147
Mof_N 	N 	0.0805	0.0265	0.86675	-0.191
Mof_N 	N 	0.1794	0.0409	0.70561	-0.19
Mof_N 	N 	0.4514	0.9323	0.7599	-0.356
Mof_N 	N 	0.4428	0.8027	0.38128	-0.146
Mof_N 	N 	0.3593	0.1676	0.41271	-0.169
Mof_C 	C 	0.2385	0.9782	0.85305	-0.04
Mof_H 	H 	0.3183	0.9389	0.8985	0.046
Mof_C 	C 	0.2898	0.9843	0.77208	0.175
Mof_C 	C 	0.0217	0.091	0.72083	-0.074
Mof_H 	H 	0.9422	0.1318	0.6759	0.029
Mof_C 	C 	0.971	0.0851	0.79987	0.015
Mof_H 	H 	0.8594	0.1222	0.8073	-0.011
Mof_C 	C 	0.3428	0.7613	0.04567	-0.123
Mof_C 	C 	0.7692	0.5241	0.1638	-0.113
Mof_C 	C 	0.4125	0.7028	0.32088	-0.101
Mof_C 	C 	0.2596	0.3161	0.11787	-0.145
Mof_C 	C 	0.2583	0.2368	0.37017	-0.133
Mof_N 	N 	0.8726	0.4627	0.2088	-0.175
Mof_H 	H 	0.48	0.933	0.71	0.163
Mof_H 	H 	0.527	0.904	0.801	0.163
Mof_Ag	Ag	0.6517	0.48402	0.78575	0.338
Mof_Ag	Ag	0.43754	0.36255	0.90684	0.397
Mof_Ag	Ag	0.9298	0.64755	0.71023	0.476
Mof_N 	N 	0.8038	0.7972	0.9283	-0.128
Mof_N 	N 	0.7794	0.1642	0.97222	-0.143
Mof_N 	N 	0.9195	0.9735	0.13325	-0.093
Mof_N 	N 	0.8206	0.9591	0.29439	-0.13
Mof_N 	N 	0.5486	0.0677	0.2401	-0.333
Mof_N 	N 	0.5572	0.1973	0.61872	-0.171
Mof_N 	N 	0.6407	0.8324	0.58729	-0.143
Mof_C 	C 	0.7615	0.0218	0.14695	-0.151
Mof_H 	H 	0.6817	0.0611	0.1015	0.039
Mof_C 	C 	0.7102	0.0157	0.22792	0.091
Mof_C 	C 	0.9783	0.909	0.27917	0.066
Mof_H 	H 	0.0578	0.8682	0.3241	-0.013
Mof_C 	C 	0.029	0.9149	0.20013	-0.066
Mof_H 	H 	0.1406	0.8778	0.1927	0.034
Mof_C 	C 	0.6572	0.2387	0.95433	-0.119
Mof_C 	C 	0.2308	0.4759	0.8362	-0.108
Mof_C 	C 	0.5875	0.2972	0.67912	-0.116
Mof_C 	C 	0.7404	0.6839	0.88213	-0.122
Mof_C 	C 	0.7417	0.7632	0.62983	-0.119
Mof_N 	N 	0.1274	0.5373	0.7912	-0.189
Mof_H 	H 	0.52	0.067	0.29	0.125
Mof_H 	H 	0.473	0.096	0.199	0.132
Mof_Mn	Mn	-0	0	-0	0.518
Mof_Mn	Mn	0.5	0	0.5	0.505
_end
