data_functionalizedCrystal
_audit_creation_method	'EQeq! by Chris Wilmer'
_symmetry_space_group_name_H-M	'P1'
_symmetry_Int_Tables_number	1
_symmetry_cell_setting	triclinic
loop_
_symmetry_equiv_pos_as_xyz
  x,y,z
_cell_length_a	9.248
_cell_length_b	11.216
_cell_length_c	11.875
_cell_angle_alpha	79.639
_cell_angle_beta	74.736
_cell_angle_gamma	88.301
loop_
_atom_site_label
_atom_site_type_symbol
_atom_site_fract_x
_atom_site_fract_y
_atom_site_fract_z
_atom_site_charge
Mof_Cd	Cd	-0	0	-0	0.323
Mof_Cd	Cd	6.07972e-18	0	0.5	0.375
Mof_H 	H 	0.6437	0.0581	0.6285	0.01
Mof_H 	H 	0.7894	0.1086	0.2888	0.034
Mof_H 	H 	0.5605	0.213	0.231	0.118
Mof_H 	H 	0.4111	0.1808	0.3307	0.126
Mof_H 	H 	0.2905	0.3641	0.2793	0.167
Mof_H 	H 	0.1341	0.5285	0.2708	0.118
Mof_H 	H 	0.2318	0.6412	0.1943	0.113
Mof_H 	H 	0.9872	0.7065	0.6078	0.06
Mof_H 	H 	0.1056	0.8296	0.2705	0.032
Mof_H 	H 	0.4347	0.68	0.3236	0.164
Mof_H 	H 	0.6775	0.3799	0.3684	0.162
Mof_H 	H 	0.756	0.5637	0.4187	0.129
Mof_H 	H 	0.6464	0.6733	0.428	0.121
Mof_H 	H 	0.0129	0.6969	0.0358	-0.025
Mof_H 	H 	0.7511	0.8588	0.2677	0.036
Mof_H 	H 	0.3563	0.9419	0.3715	0.036
Mof_H 	H 	0.2106	0.8914	0.7112	0.035
Mof_H 	H 	0.4395	0.787	0.769	0.137
Mof_H 	H 	0.5889	0.8192	0.6693	0.148
Mof_H 	H 	0.7095	0.6359	0.7207	0.174
Mof_H 	H 	0.8659	0.4715	0.7292	0.136
Mof_H 	H 	0.7682	0.3588	0.8057	0.124
Mof_H 	H 	0.0128	0.2935	0.3922	-0.017
Mof_H 	H 	0.8944	0.1704	0.7295	0.02
Mof_H 	H 	0.5653	0.32	0.6764	0.163
Mof_H 	H 	0.3225	0.6201	0.6316	0.16
Mof_H 	H 	0.244	0.4363	0.5813	0.119
Mof_H 	H 	0.3536	0.3267	0.572	0.114
Mof_H 	H 	0.9871	0.3031	0.9642	0.065
Mof_H 	H 	0.2489	0.1412	0.7323	0.009
Mof_C 	C 	0.648	0.0811	0.5484	0.098
Mof_C 	C 	0.729	0.1071	0.3653	0.07
Mof_C 	C 	0.509	0.2195	0.3121	-0.253
Mof_C 	C 	0.489	0.3514	0.321	0.271
Mof_C 	C 	0.3625	0.4083	0.297	-0.343
Mof_C 	C 	0.3434	0.5303	0.2993	0.278
Mof_C 	C 	0.2043	0.5905	0.2723	-0.244
Mof_C 	C 	0.0267	0.7103	0.5267	0.04
Mof_C 	C 	0.0893	0.779	0.344	0.085
Mof_C 	C 	0.4482	0.5975	0.3241	-0.324
Mof_C 	C 	0.5942	0.418	0.3495	-0.316
Mof_C 	C 	0.5755	0.5421	0.35	0.259
Mof_C 	C 	0.6951	0.6172	0.3772	-0.233
Mof_C 	C 	0.9425	0.7107	0.104	0.158
Mof_C 	C 	0.8023	0.7997	0.2278	0.093
Mof_C 	C 	0.352	0.9189	0.4516	0.112
Mof_C 	C 	0.271	0.8929	0.6347	0.083
Mof_C 	C 	0.491	0.7805	0.6879	-0.266
Mof_C 	C 	0.511	0.6486	0.679	0.282
Mof_C 	C 	0.6375	0.5917	0.703	-0.346
Mof_C 	C 	0.6566	0.4697	0.7007	0.289
Mof_C 	C 	0.7957	0.4095	0.7277	-0.253
Mof_C 	C 	0.9733	0.2897	0.4733	0.15
Mof_C 	C 	0.9107	0.221	0.656	0.091
Mof_C 	C 	0.5518	0.4025	0.6759	-0.325
Mof_C 	C 	0.4058	0.582	0.6505	-0.319
Mof_C 	C 	0.4245	0.4579	0.65	0.262
Mof_C 	C 	0.3049	0.3828	0.6228	-0.231
Mof_C 	C 	0.0575	0.2893	0.896	0.053
Mof_C 	C 	0.1977	0.2003	0.7722	0.087
Mof_S 	S 	0.8456	0.8811	0.8069	0.707
Mof_S 	S 	0.1544	0.1189	0.1931	0.733
Mof_N 	N 	0.5947	0.1546	0.3921	-0.066
Mof_N 	N 	0.5391	0.139	0.5128	-0.104
Mof_N 	N 	0.765	0.0568	0.4644	-0.144
Mof_N 	N 	0.1308	0.665	0.3604	-0.066
Mof_N 	N 	0.0916	0.6201	0.4806	-0.091
Mof_N 	N 	0.0221	0.8111	0.4453	-0.13
Mof_N 	N 	0.7886	0.6833	0.2687	-0.06
Mof_N 	N 	0.8794	0.6225	0.1892	-0.096
Mof_N 	N 	0.8992	0.8222	0.1215	-0.139
Mof_N 	N 	0.4053	0.8454	0.6079	-0.056
Mof_N 	N 	0.4609	0.861	0.4872	-0.091
Mof_N 	N 	0.235	0.9432	0.5356	-0.129
Mof_N 	N 	0.8692	0.335	0.6396	-0.061
Mof_N 	N 	0.9084	0.3799	0.5194	-0.1
Mof_N 	N 	0.9779	0.1889	0.5547	-0.149
Mof_N 	N 	0.2114	0.3167	0.7313	-0.064
Mof_N 	N 	0.1206	0.3775	0.8108	-0.085
Mof_N 	N 	0.1008	0.1778	0.8785	-0.14
Mof_O 	O 	0.8548	0.9084	0.682	-0.303
Mof_O 	O 	0.8519	0.7517	0.8401	-0.276
Mof_O 	O 	0.9681	0.9403	0.8319	-0.282
Mof_O 	O 	0.7013	0.9131	0.8751	-0.255
Mof_O 	O 	0.1452	0.0916	0.318	-0.357
Mof_O 	O 	0.1481	0.2483	0.1599	-0.31
Mof_O 	O 	0.0319	0.0597	0.1681	-0.365
Mof_O 	O 	0.2987	0.0869	0.1249	-0.315
_end
