data_functionalizedCrystal
_audit_creation_method	'EQeq! by Chris Wilmer'
_symmetry_space_group_name_H-M	'P1'
_symmetry_Int_Tables_number	1
_symmetry_cell_setting	triclinic
loop_
_symmetry_equiv_pos_as_xyz
  x,y,z
_cell_length_a	9.7192
_cell_length_b	10.4517
_cell_length_c	16.4217
_cell_angle_alpha	90
_cell_angle_beta	112.58
_cell_angle_gamma	90
loop_
_atom_site_label
_atom_site_type_symbol
_atom_site_fract_x
_atom_site_fract_y
_atom_site_fract_z
_atom_site_charge
Mof_C 	C 	0.679	0.0598	0.9685	0.059
Mof_H 	H 	0.6096	0.1169	0.9316	0.026
Mof_C 	C 	0.642	0.9327	0.9685	-0.15
Mof_H 	H 	0.5483	0.9033	0.9319	0.078
Mof_C 	C 	0.7464	0.8502	0.0234	0.105
Mof_H 	H 	0.7238	0.7639	0.0243	0.01
Mof_C 	C 	0.8832	0.8949	0.0766	-0.217
Mof_H 	H 	0.9531	0.8384	0.1139	0.114
Mof_C 	C 	0.9201	0.0224	0.0761	0.207
Mof_C 	C 	0.0678	0.0767	0.1298	-0.419
Mof_H 	H 	0.0936	0.1404	0.0951	0.179
Mof_H 	H 	0.1418	0.0091	0.1439	0.149
Mof_C 	C 	0.9278	0.9687	0.4671	0.273
Mof_C 	C 	0.5172	0.9382	0.5273	0.273
Mof_Dy	Dy	0.17842	0.89428	0.39302	2.015
Mof_N 	N 	0.8143	0.102	0.0214	-0.103
Mof_O 	O 	0.0603	0.0476	0.2919	-0.495
Mof_O 	O 	0.235	0.2111	0.2709	-0.476
Mof_H 	H 	0.2872	0.1707	0.3147	0.295
Mof_O 	O 	0.9595	0.2519	0.21	-0.511
Mof_O 	O 	0.8464	0.2249	0.0177	-0.324
Mof_O 	O 	0.814	0.9794	0.4847	-0.42
Mof_O 	O 	0.9367	0.9136	0.4024	-0.391
Mof_O 	O 	0.4226	0.8512	0.5044	-0.432
Mof_O 	O 	0.6411	0.9352	0.5911	-0.445
Mof_P 	P 	0.0748	0.14983	0.23131	0.596
Mof_C 	C 	0.321	0.5598	0.5315	0.075
Mof_H 	H 	0.3904	0.6169	0.5684	0.022
Mof_C 	C 	0.358	0.4327	0.5315	-0.175
Mof_H 	H 	0.4517	0.4033	0.5681	0.088
Mof_C 	C 	0.2536	0.3502	0.4766	0.133
Mof_H 	H 	0.2762	0.2639	0.4757	0
Mof_C 	C 	0.1168	0.3949	0.4234	-0.25
Mof_H 	H 	0.0469	0.3384	0.3861	0.126
Mof_C 	C 	0.0799	0.5224	0.4239	0.236
Mof_C 	C 	0.9322	0.5767	0.3702	-0.444
Mof_H 	H 	0.9064	0.6404	0.4049	0.184
Mof_H 	H 	0.8582	0.5091	0.3561	0.153
Mof_C 	C 	0.0722	0.4687	0.0329	0.272
Mof_C 	C 	0.4828	0.4382	0.9727	0.274
Mof_Dy	Dy	0.82158	0.39428	0.10698	2.025
Mof_N 	N 	0.1857	0.602	0.4786	-0.109
Mof_O 	O 	0.9397	0.5476	0.2081	-0.501
Mof_O 	O 	0.765	0.7111	0.2291	-0.476
Mof_H 	H 	0.7128	0.6707	0.1853	0.295
Mof_O 	O 	0.0405	0.7519	0.29	-0.507
Mof_O 	O 	0.1536	0.7249	0.4823	-0.322
Mof_O 	O 	0.186	0.4794	0.0153	-0.421
Mof_O 	O 	0.0633	0.4136	0.0976	-0.392
Mof_O 	O 	0.5774	0.3512	0.9956	-0.432
Mof_O 	O 	0.3589	0.4352	0.9089	-0.448
Mof_P 	P 	0.9252	0.64983	0.26869	0.596
Mof_C 	C 	0.321	0.9402	0.0315	0.06
Mof_H 	H 	0.3904	0.8831	0.0684	0.027
Mof_C 	C 	0.358	0.0673	0.0315	-0.149
Mof_H 	H 	0.4517	0.0967	0.0681	0.079
Mof_C 	C 	0.2536	0.1498	0.9766	0.105
Mof_H 	H 	0.2762	0.2361	0.9757	0.01
Mof_C 	C 	0.1168	0.1051	0.9234	-0.217
Mof_H 	H 	0.0469	0.1616	0.8861	0.114
Mof_C 	C 	0.0799	0.9776	0.9239	0.207
Mof_C 	C 	0.9322	0.9233	0.8702	-0.419
Mof_H 	H 	0.9064	0.8596	0.9049	0.179
Mof_H 	H 	0.8582	0.9909	0.8561	0.149
Mof_C 	C 	0.0722	0.0313	0.5329	0.273
Mof_C 	C 	0.4828	0.0618	0.4727	0.273
Mof_Dy	Dy	0.82158	0.10572	0.60698	2.015
Mof_N 	N 	0.1857	0.898	0.9786	-0.103
Mof_O 	O 	0.9397	0.9524	0.7081	-0.495
Mof_O 	O 	0.765	0.7889	0.7291	-0.476
Mof_H 	H 	0.7128	0.8293	0.6853	0.295
Mof_O 	O 	0.0405	0.7481	0.79	-0.511
Mof_O 	O 	0.1536	0.7751	0.9823	-0.324
Mof_O 	O 	0.186	0.0206	0.5153	-0.42
Mof_O 	O 	0.0633	0.0864	0.5976	-0.391
Mof_O 	O 	0.5774	0.1488	0.4956	-0.432
Mof_O 	O 	0.3589	0.0648	0.4089	-0.445
Mof_P 	P 	0.9252	0.85017	0.76869	0.596
Mof_C 	C 	0.679	0.4402	0.4685	0.075
Mof_H 	H 	0.6096	0.3831	0.4316	0.022
Mof_C 	C 	0.642	0.5673	0.4685	-0.175
Mof_H 	H 	0.5483	0.5967	0.4319	0.088
Mof_C 	C 	0.7464	0.6498	0.5234	0.133
Mof_H 	H 	0.7238	0.7361	0.5243	0
Mof_C 	C 	0.8832	0.6051	0.5766	-0.25
Mof_H 	H 	0.9531	0.6616	0.6139	0.126
Mof_C 	C 	0.9201	0.4776	0.5761	0.236
Mof_C 	C 	0.0678	0.4233	0.6298	-0.444
Mof_H 	H 	0.0936	0.3596	0.5951	0.184
Mof_H 	H 	0.1418	0.4909	0.6439	0.153
Mof_C 	C 	0.9278	0.5313	0.9671	0.272
Mof_C 	C 	0.5172	0.5618	0.0273	0.274
Mof_Dy	Dy	0.17842	0.60572	0.89302	2.025
Mof_N 	N 	0.8143	0.398	0.5214	-0.109
Mof_O 	O 	0.0603	0.4524	0.7919	-0.501
Mof_O 	O 	0.235	0.2889	0.7709	-0.476
Mof_H 	H 	0.2872	0.3293	0.8147	0.295
Mof_O 	O 	0.9595	0.2481	0.71	-0.507
Mof_O 	O 	0.8464	0.2751	0.5177	-0.322
Mof_O 	O 	0.814	0.5206	0.9847	-0.421
Mof_O 	O 	0.9367	0.5864	0.9024	-0.392
Mof_O 	O 	0.4226	0.6488	0.0044	-0.432
Mof_O 	O 	0.6411	0.5648	0.0911	-0.448
Mof_P 	P 	0.0748	0.35017	0.73131	0.596
_end
