data_functionalizedCrystal
_audit_creation_method	'EQeq! by Chris Wilmer'
_symmetry_space_group_name_H-M	'P1'
_symmetry_Int_Tables_number	1
_symmetry_cell_setting	triclinic
loop_
_symmetry_equiv_pos_as_xyz
  x,y,z
_cell_length_a	8.5886
_cell_length_b	9.4086
_cell_length_c	9.4282
_cell_angle_alpha	119.931
_cell_angle_beta	116.514
_cell_angle_gamma	90
loop_
_atom_site_label
_atom_site_type_symbol
_atom_site_fract_x
_atom_site_fract_y
_atom_site_fract_z
_atom_site_charge
Mof_Ba	Ba	0.75	0.9192	-0	1.292
Mof_Ba	Ba	0.25	0.0808	-0	1.455
Mof_H 	H 	0.425	0.783	0.024	0.097
Mof_H 	H 	0.348	0.7107	0.8394	0.267
Mof_H 	H 	0.075	0.759	0.976	0.55
Mof_H 	H 	0.152	0.8713	0.1606	0.43
Mof_H 	H 	0.575	0.217	0.976	0.556
Mof_H 	H 	0.652	0.2893	0.1606	0.43
Mof_H 	H 	0.925	0.241	0.024	0.085
Mof_H 	H 	0.848	0.1287	0.8394	0.261
Mof_C 	C 	0.3136	0.4232	0.4996	0.159
Mof_C 	C 	0.1864	0.9236	0.5004	0.156
Mof_C 	C 	0.6864	0.5768	0.5004	0.153
Mof_C 	C 	0.8136	0.0764	0.4996	0.157
Mof_N 	N 	0.4803	0.5262	0.5636	-0.132
Mof_N 	N 	0.2432	0.4751	0.6108	-0.13
Mof_N 	N 	0.0898	0.3511	0.5116	-0.056
Mof_N 	N 	0.0704	0.2312	0.3478	-0.109
Mof_N 	N 	0.2113	0.2732	0.3354	-0.186
Mof_N 	N 	0.0197	0.9626	0.4364	-0.142
Mof_N 	N 	0.2568	0.8643	0.3892	-0.166
Mof_N 	N 	0.4102	0.8395	0.4884	-0.073
Mof_N 	N 	0.4296	0.8834	0.6522	-0.096
Mof_N 	N 	0.2887	0.9378	0.6646	-0.163
Mof_N 	N 	0.5197	0.4738	0.4364	-0.154
Mof_N 	N 	0.7568	0.5249	0.3892	-0.17
Mof_N 	N 	0.9102	0.6489	0.4884	-0.082
Mof_N 	N 	0.9296	0.7688	0.6522	-0.112
Mof_N 	N 	0.7887	0.7268	0.6646	-0.16
Mof_N 	N 	0.9803	0.0374	0.5636	-0.142
Mof_N 	N 	0.7432	0.1357	0.6108	-0.131
Mof_N 	N 	0.5898	0.1605	0.5116	-0.06
Mof_N 	N 	0.5704	0.1166	0.3478	-0.12
Mof_N 	N 	0.7113	0.0622	0.3354	-0.182
Mof_O 	O 	0.4055	0.8047	0.9436	-0.551
Mof_O 	O 	0.0945	0.8611	0.0564	-1.19
Mof_O 	O 	0.5945	0.1953	0.0564	-1.203
Mof_O 	O 	0.9055	0.1389	0.9436	-0.538
_end
