data_functionalizedCrystal
_audit_creation_method	'EQeq! by Chris Wilmer'
_symmetry_space_group_name_H-M	'P1'
_symmetry_Int_Tables_number	1
_symmetry_cell_setting	triclinic
loop_
_symmetry_equiv_pos_as_xyz
  x,y,z
_cell_length_a	9.3415
_cell_length_b	9.3415
_cell_length_c	6.9955
_cell_angle_alpha	90
_cell_angle_beta	90
_cell_angle_gamma	120
loop_
_atom_site_label
_atom_site_type_symbol
_atom_site_fract_x
_atom_site_fract_y
_atom_site_fract_z
_atom_site_charge
Mof_Al	Al	0.16196	0.52127	0.05625	7.373
Mof_O 	O 	0.3018	0.7302	0.9599	-2.843
Mof_H 	H 	0.3605	0.831	0.0429	0.333
Mof_O 	O 	0.2783	0.427	0.9592	-1.701
Mof_O 	O 	0.5325	0.5658	0.1691	-1.898
Mof_Al	Al	0.47873	0.64069	0.38958	7.774
Mof_O 	O 	0.2698	0.5716	0.29323	-3.05
Mof_H 	H 	0.169	0.5295	0.37623	0.559
Mof_O 	O 	0.573	0.8513	0.29253	-2.063
Mof_O 	O 	0.4342	0.9667	0.50243	-2.002
Mof_Al	Al	0.35931	0.83804	0.72292	7.211
Mof_O 	O 	0.4284	0.6982	0.62657	-3.011
Mof_H 	H 	0.4705	0.6395	0.70957	0.476
Mof_O 	O 	0.1487	0.7217	0.62587	-1.797
Mof_O 	O 	0.0333	0.4675	0.83577	-1.721
Mof_Al	Al	0.52127	0.16196	0.94375	8.148
Mof_O 	O 	0.7302	0.3018	0.0401	-3.147
Mof_H 	H 	0.831	0.3605	0.9571	0.471
Mof_O 	O 	0.427	0.2783	0.0408	-1.916
Mof_O 	O 	0.5658	0.5325	0.8309	-1.864
Mof_Al	Al	0.64069	0.47873	0.61042	7.823
Mof_O 	O 	0.5716	0.2698	0.70677	-3.175
Mof_H 	H 	0.5295	0.169	0.62377	0.562
Mof_O 	O 	0.8513	0.573	0.70747	-2.061
Mof_O 	O 	0.9667	0.4342	0.49757	-2.028
Mof_Al	Al	0.83804	0.35931	0.27708	7.285
Mof_O 	O 	0.6982	0.4284	0.37343	-3.036
Mof_H 	H 	0.6395	0.4705	0.29043	0.473
Mof_O 	O 	0.7217	0.1487	0.37413	-1.828
Mof_O 	O 	0.4675	0.0333	0.16423	-1.887
Mof_P 	P 	0.4493	0.4493	-0	1.639
Mof_P 	P 	0.5507	5.96867e-33	0.33333	1.99
Mof_P 	P 	-7.37876e-18	0.5507	0.66667	1.979
Mof_F 	F 	-4.21657e-17	0.3183	0.16667	-2.103
Mof_F 	F 	-6.90462e-17	0.5686	0.16667	-2.073
Mof_F 	F 	0.6817	0.6817	0.5	-2.389
Mof_F 	F 	0.4314	0.4314	0.5	-2.215
Mof_F 	F 	0.3183	0	0.83333	-2.159
Mof_F 	F 	0.5686	0	0.83333	-2.129
_end
