data_functionalizedCrystal
_audit_creation_method	'EQeq! by Chris Wilmer'
_symmetry_space_group_name_H-M	'P1'
_symmetry_Int_Tables_number	1
_symmetry_cell_setting	triclinic
loop_
_symmetry_equiv_pos_as_xyz
  x,y,z
_cell_length_a	26.45
_cell_length_b	26.45
_cell_length_c	27.88
_cell_angle_alpha	90
_cell_angle_beta	90
_cell_angle_gamma	90
loop_
_atom_site_label
_atom_site_type_symbol
_atom_site_fract_x
_atom_site_fract_y
_atom_site_fract_z
_atom_site_charge
Mof_O 	O 	0.43497	0.98563	0.45033	-0.386
Mof_O 	O 	0.47194	0.06239	0.45085	-0.401
Mof_O 	O 	0.07114	0.02089	0.34907	-0.424
Mof_O 	O 	0.07018	0.02304	0.26909	-0.422
Mof_N 	N 	0.29298	0.10452	0.30367	-0.2
Mof_C 	C 	0.43913	0.0309	0.43764	0.329
Mof_C 	C 	0.40195	0.05006	0.39972	-0.107
Mof_C 	C 	0.36769	0.01773	0.37873	0.022
Mof_H 	H 	0.3686	0.9835	0.3862	0.056
Mof_C 	C 	0.3329	0.03486	0.34755	-0.158
Mof_H 	H 	0.3101	0.0123	0.3339	0.085
Mof_C 	C 	0.33061	0.08545	0.33548	0.146
Mof_C 	C 	0.36587	0.11957	0.35551	-0.169
Mof_H 	H 	0.3656	0.1537	0.3474	0.093
Mof_C 	C 	0.40109	0.1003	0.38775	0.063
Mof_H 	H 	0.4246	0.1221	0.4015	0.024
Mof_C 	C 	0.24304	0.08352	0.30571	0.188
Mof_C 	C 	0.21991	0.07291	0.3487	-0.23
Mof_H 	H 	0.2374	0.0781	0.3772	0.113
Mof_C 	C 	0.17094	0.05459	0.35002	0.13
Mof_H 	H 	0.1557	0.0477	0.3794	-0.004
Mof_C 	C 	0.14467	0.04651	0.30816	-0.192
Mof_C 	C 	0.09163	0.02878	0.30879	0.392
Mof_C 	C 	0.16826	0.05673	0.26563	0.128
Mof_H 	H 	0.1507	0.0513	0.2372	-0.003
Mof_C 	C 	0.21739	0.0749	0.26316	-0.226
Mof_H 	H 	0.2327	0.0811	0.2337	0.109
Mof_C 	C 	0.30019	0.14951	0.27594	0.246
Mof_C 	C 	0.26338	0.1863	0.2758	-0.302
Mof_H 	H 	0.2338	0.1817	0.2933	0.139
Mof_C 	C 	0.0188	0.0398	0.1605	0.016
Mof_H 	H 	0.0319	0.0671	0.1774	0.023
Mof_C 	C 	0.0194	0.0415	0.117	-0.066
Mof_H 	H 	0.0322	0.0692	0.1005	0.052
Mof_N 	N 	0.008	0.037	0.0189	-0.103
Mof_O 	O 	0.56503	0.01437	0.45033	-0.445
Mof_O 	O 	0.52806	0.93761	0.45085	-0.417
Mof_O 	O 	0.92886	0.97911	0.34907	-0.391
Mof_O 	O 	0.92982	0.97696	0.26909	-0.391
Mof_N 	N 	0.70702	0.89548	0.30367	-0.21
Mof_C 	C 	0.56087	0.9691	0.43764	0.425
Mof_C 	C 	0.59805	0.94994	0.39972	-0.211
Mof_C 	C 	0.63231	0.98227	0.37873	0.224
Mof_H 	H 	0.6314	0.0165	0.3862	-0.048
Mof_C 	C 	0.6671	0.96514	0.34755	-0.286
Mof_H 	H 	0.6899	0.9877	0.3339	0.141
Mof_C 	C 	0.66939	0.91455	0.33548	0.214
Mof_C 	C 	0.63413	0.88043	0.35551	-0.238
Mof_H 	H 	0.6344	0.8463	0.3474	0.118
Mof_C 	C 	0.59891	0.8997	0.38775	0.149
Mof_H 	H 	0.5754	0.8779	0.4015	-0.003
Mof_C 	C 	0.75696	0.91648	0.30571	0.189
Mof_C 	C 	0.78009	0.92709	0.3487	-0.224
Mof_H 	H 	0.7626	0.9219	0.3772	0.116
Mof_C 	C 	0.82906	0.94541	0.35002	0.128
Mof_H 	H 	0.8443	0.9523	0.3794	0.007
Mof_C 	C 	0.85533	0.95349	0.30816	-0.177
Mof_C 	C 	0.90837	0.97122	0.30879	0.388
Mof_C 	C 	0.83174	0.94327	0.26563	0.125
Mof_H 	H 	0.8493	0.9487	0.2372	0.007
Mof_C 	C 	0.78261	0.9251	0.26316	-0.218
Mof_H 	H 	0.7673	0.9189	0.2337	0.113
Mof_C 	C 	0.69981	0.85049	0.27594	0.251
Mof_C 	C 	0.73662	0.8137	0.2758	-0.306
Mof_H 	H 	0.7662	0.8183	0.2933	0.144
Mof_C 	C 	0.9812	0.9602	0.1605	0.062
Mof_H 	H 	0.9681	0.9329	0.1774	0.024
Mof_C 	C 	0.9806	0.9585	0.117	-0.03
Mof_H 	H 	0.9678	0.9308	0.1005	0.056
Mof_N 	N 	0.992	0.963	0.0189	-0.074
Mof_O 	O 	0.01437	0.43497	0.45033	-0.445
Mof_O 	O 	0.93761	0.47194	0.45085	-0.417
Mof_O 	O 	0.97911	0.07114	0.34907	-0.405
Mof_O 	O 	0.97696	0.07018	0.26909	-0.403
Mof_N 	N 	0.89548	0.29298	0.30367	-0.21
Mof_C 	C 	0.9691	0.43913	0.43764	0.425
Mof_C 	C 	0.94994	0.40195	0.39972	-0.212
Mof_C 	C 	0.98227	0.36769	0.37873	0.226
Mof_H 	H 	0.0165	0.3686	0.3862	-0.049
Mof_C 	C 	0.96514	0.3329	0.34755	-0.287
Mof_H 	H 	0.9877	0.3101	0.3339	0.142
Mof_C 	C 	0.91455	0.33061	0.33548	0.214
Mof_C 	C 	0.88043	0.36587	0.35551	-0.239
Mof_H 	H 	0.8463	0.3656	0.3474	0.118
Mof_C 	C 	0.8997	0.40109	0.38775	0.15
Mof_H 	H 	0.8779	0.4246	0.4015	-0.003
Mof_C 	C 	0.91648	0.24304	0.30571	0.19
Mof_C 	C 	0.92709	0.21991	0.3487	-0.227
Mof_H 	H 	0.9219	0.2374	0.3772	0.115
Mof_C 	C 	0.94541	0.17094	0.35002	0.129
Mof_H 	H 	0.9523	0.1557	0.3794	0.002
Mof_C 	C 	0.95349	0.14467	0.30816	-0.182
Mof_C 	C 	0.97122	0.09163	0.30879	0.389
Mof_C 	C 	0.94327	0.16826	0.26563	0.127
Mof_H 	H 	0.9487	0.1507	0.2372	0.005
Mof_C 	C 	0.9251	0.21739	0.26316	-0.221
Mof_H 	H 	0.9189	0.2327	0.2337	0.113
Mof_C 	C 	0.85049	0.30019	0.27594	0.25
Mof_C 	C 	0.8137	0.26338	0.2758	-0.306
Mof_H 	H 	0.8183	0.2338	0.2933	0.14
Mof_C 	C 	0.9602	0.0188	0.1605	0.033
Mof_H 	H 	0.9329	0.0319	0.1774	0.022
Mof_C 	C 	0.9585	0.0194	0.117	-0.039
Mof_H 	H 	0.9308	0.0322	0.1005	0.05
Mof_N 	N 	0.963	0.008	0.0189	-0.089
Mof_O 	O 	0.98563	0.56503	0.45033	-0.387
Mof_O 	O 	0.06239	0.52806	0.45085	-0.401
Mof_O 	O 	0.02089	0.92886	0.34907	-0.407
Mof_O 	O 	0.02304	0.92982	0.26909	-0.408
Mof_N 	N 	0.10452	0.70702	0.30367	-0.2
Mof_C 	C 	0.0309	0.56087	0.43764	0.329
Mof_C 	C 	0.05006	0.59805	0.39972	-0.108
Mof_C 	C 	0.01773	0.63231	0.37873	0.024
Mof_H 	H 	0.9835	0.6314	0.3862	0.055
Mof_C 	C 	0.03486	0.6671	0.34755	-0.159
Mof_H 	H 	0.0123	0.6899	0.3339	0.086
Mof_C 	C 	0.08545	0.66939	0.33548	0.147
Mof_C 	C 	0.11957	0.63413	0.35551	-0.169
Mof_H 	H 	0.1537	0.6344	0.3474	0.094
Mof_C 	C 	0.1003	0.59891	0.38775	0.064
Mof_H 	H 	0.1221	0.5754	0.4015	0.024
Mof_C 	C 	0.08352	0.75696	0.30571	0.187
Mof_C 	C 	0.07291	0.78009	0.3487	-0.226
Mof_H 	H 	0.0781	0.7626	0.3772	0.114
Mof_C 	C 	0.05459	0.82906	0.35002	0.128
Mof_H 	H 	0.0477	0.8443	0.3794	0.001
Mof_C 	C 	0.04651	0.85533	0.30816	-0.185
Mof_C 	C 	0.02878	0.90837	0.30879	0.39
Mof_C 	C 	0.05673	0.83174	0.26563	0.126
Mof_H 	H 	0.0513	0.8493	0.2372	0
Mof_C 	C 	0.0749	0.78261	0.26316	-0.222
Mof_H 	H 	0.0811	0.7673	0.2337	0.11
Mof_C 	C 	0.14951	0.69981	0.27594	0.247
Mof_C 	C 	0.1863	0.73662	0.2758	-0.302
Mof_H 	H 	0.1817	0.7662	0.2933	0.142
Mof_C 	C 	0.0398	0.9812	0.1605	0.034
Mof_H 	H 	0.0671	0.9681	0.1774	0.03
Mof_C 	C 	0.0415	0.9806	0.117	-0.038
Mof_H 	H 	0.0692	0.9678	0.1005	0.053
Mof_N 	N 	0.037	0.992	0.0189	-0.085
Mof_O 	O 	0.06503	0.48563	0.04967	-0.429
Mof_O 	O 	0.02806	0.56239	0.04915	-0.426
Mof_O 	O 	0.42886	0.52089	0.15093	-0.415
Mof_O 	O 	0.42982	0.52304	0.23091	-0.412
Mof_N 	N 	0.20702	0.60452	0.19633	-0.206
Mof_C 	C 	0.06087	0.5309	0.06236	0.378
Mof_C 	C 	0.09805	0.55006	0.10028	-0.168
Mof_C 	C 	0.13231	0.51773	0.12127	0.127
Mof_H 	H 	0.1314	0.4835	0.1138	-0.003
Mof_C 	C 	0.1671	0.53486	0.15245	-0.228
Mof_H 	H 	0.1899	0.5123	0.1661	0.113
Mof_C 	C 	0.16939	0.58545	0.16452	0.182
Mof_C 	C 	0.13413	0.61957	0.14449	-0.209
Mof_H 	H 	0.1344	0.6537	0.1526	0.105
Mof_C 	C 	0.09891	0.6003	0.11225	0.109
Mof_H 	H 	0.0754	0.6221	0.0985	0.004
Mof_C 	C 	0.25696	0.58352	0.19429	0.188
Mof_C 	C 	0.28009	0.57291	0.1513	-0.229
Mof_H 	H 	0.2626	0.5781	0.1228	0.112
Mof_C 	C 	0.32906	0.55459	0.14998	0.13
Mof_H 	H 	0.3443	0.5477	0.1206	-0.003
Mof_C 	C 	0.35533	0.54651	0.19184	-0.187
Mof_C 	C 	0.40837	0.52878	0.19121	0.393
Mof_C 	C 	0.33174	0.55673	0.23437	0.128
Mof_H 	H 	0.3493	0.5513	0.2628	0.003
Mof_C 	C 	0.28261	0.5749	0.23684	-0.223
Mof_H 	H 	0.2673	0.5811	0.2663	0.112
Mof_C 	C 	0.19981	0.64951	0.22406	0.247
Mof_C 	C 	0.23662	0.6863	0.2242	-0.302
Mof_H 	H 	0.2662	0.6817	0.2067	0.14
Mof_C 	C 	0.4812	0.5398	0.3395	0.073
Mof_H 	H 	0.4681	0.5671	0.3226	0.013
Mof_C 	C 	0.4806	0.5415	0.383	-0.134
Mof_H 	H 	0.4678	0.5692	0.3995	0.086
Mof_N 	N 	0.492	0.537	0.4811	-0.063
Mof_O 	O 	0.93497	0.51437	0.04967	-0.416
Mof_O 	O 	0.97194	0.43761	0.04915	-0.405
Mof_O 	O 	0.57114	0.47911	0.15093	-0.415
Mof_O 	O 	0.57018	0.47696	0.23091	-0.412
Mof_N 	N 	0.79298	0.39548	0.19633	-0.205
Mof_C 	C 	0.93913	0.4691	0.06236	0.375
Mof_C 	C 	0.90195	0.44994	0.10028	-0.159
Mof_C 	C 	0.86769	0.48227	0.12127	0.123
Mof_H 	H 	0.8686	0.5165	0.1138	0.003
Mof_C 	C 	0.8329	0.46514	0.15245	-0.222
Mof_H 	H 	0.8101	0.4877	0.1661	0.113
Mof_C 	C 	0.83061	0.41455	0.16452	0.18
Mof_C 	C 	0.86587	0.38043	0.14449	-0.204
Mof_H 	H 	0.8656	0.3463	0.1526	0.105
Mof_C 	C 	0.90109	0.3997	0.11225	0.105
Mof_H 	H 	0.9246	0.3779	0.0985	0.01
Mof_C 	C 	0.74304	0.41648	0.19429	0.189
Mof_C 	C 	0.71991	0.42709	0.1513	-0.229
Mof_H 	H 	0.7374	0.4219	0.1228	0.112
Mof_C 	C 	0.67094	0.44541	0.14998	0.13
Mof_H 	H 	0.6557	0.4523	0.1206	-0.003
Mof_C 	C 	0.64467	0.45349	0.19184	-0.187
Mof_C 	C 	0.59163	0.47122	0.19121	0.393
Mof_C 	C 	0.66826	0.44327	0.23437	0.128
Mof_H 	H 	0.6507	0.4487	0.2628	0.003
Mof_C 	C 	0.71739	0.4251	0.23684	-0.223
Mof_H 	H 	0.7327	0.4189	0.2663	0.113
Mof_C 	C 	0.80019	0.35049	0.22406	0.25
Mof_C 	C 	0.76338	0.3137	0.2242	-0.306
Mof_H 	H 	0.7338	0.3183	0.2067	0.14
Mof_C 	C 	0.5188	0.4602	0.3395	0.073
Mof_H 	H 	0.5319	0.4329	0.3226	0.012
Mof_C 	C 	0.5194	0.4585	0.383	-0.134
Mof_H 	H 	0.5322	0.4308	0.3995	0.085
Mof_N 	N 	0.508	0.463	0.4811	-0.063
Mof_O 	O 	0.48563	0.93497	0.04967	-0.416
Mof_O 	O 	0.56239	0.97194	0.04915	-0.405
Mof_O 	O 	0.52089	0.57114	0.15093	-0.415
Mof_O 	O 	0.52304	0.57018	0.23091	-0.411
Mof_N 	N 	0.60452	0.79298	0.19633	-0.205
Mof_C 	C 	0.5309	0.93913	0.06236	0.375
Mof_C 	C 	0.55006	0.90195	0.10028	-0.159
Mof_C 	C 	0.51773	0.86769	0.12127	0.123
Mof_H 	H 	0.4835	0.8686	0.1138	0.003
Mof_C 	C 	0.53486	0.8329	0.15245	-0.222
Mof_H 	H 	0.5123	0.8101	0.1661	0.113
Mof_C 	C 	0.58545	0.83061	0.16452	0.18
Mof_C 	C 	0.61957	0.86587	0.14449	-0.204
Mof_H 	H 	0.6537	0.8656	0.1526	0.106
Mof_C 	C 	0.6003	0.90109	0.11225	0.106
Mof_H 	H 	0.6221	0.9246	0.0985	0.011
Mof_C 	C 	0.58352	0.74304	0.19429	0.189
Mof_C 	C 	0.57291	0.71991	0.1513	-0.229
Mof_H 	H 	0.5781	0.7374	0.1228	0.112
Mof_C 	C 	0.55459	0.67094	0.14998	0.13
Mof_H 	H 	0.5477	0.6557	0.1206	-0.003
Mof_C 	C 	0.54651	0.64467	0.19184	-0.187
Mof_C 	C 	0.52878	0.59163	0.19121	0.393
Mof_C 	C 	0.55673	0.66826	0.23437	0.129
Mof_H 	H 	0.5513	0.6507	0.2628	0.003
Mof_C 	C 	0.5749	0.71739	0.23684	-0.223
Mof_H 	H 	0.5811	0.7327	0.2663	0.113
Mof_C 	C 	0.64951	0.80019	0.22406	0.25
Mof_C 	C 	0.6863	0.76338	0.2242	-0.305
Mof_H 	H 	0.6817	0.7338	0.2067	0.141
Mof_C 	C 	0.5398	0.5188	0.3395	0.073
Mof_H 	H 	0.5671	0.5319	0.3226	0.013
Mof_C 	C 	0.5415	0.5194	0.383	-0.134
Mof_H 	H 	0.5692	0.5322	0.3995	0.086
Mof_N 	N 	0.537	0.508	0.4811	-0.063
Mof_O 	O 	0.51437	0.06503	0.04967	-0.429
Mof_O 	O 	0.43761	0.02806	0.04915	-0.426
Mof_O 	O 	0.47911	0.42886	0.15093	-0.415
Mof_O 	O 	0.47696	0.42982	0.23091	-0.412
Mof_N 	N 	0.39548	0.20702	0.19633	-0.205
Mof_C 	C 	0.4691	0.06087	0.06236	0.378
Mof_C 	C 	0.44994	0.09805	0.10028	-0.168
Mof_C 	C 	0.48227	0.13231	0.12127	0.127
Mof_H 	H 	0.5165	0.1314	0.1138	-0.003
Mof_C 	C 	0.46514	0.1671	0.15245	-0.228
Mof_H 	H 	0.4877	0.1899	0.1661	0.113
Mof_C 	C 	0.41455	0.16939	0.16452	0.181
Mof_C 	C 	0.38043	0.13413	0.14449	-0.209
Mof_H 	H 	0.3463	0.1344	0.1526	0.104
Mof_C 	C 	0.3997	0.09891	0.11225	0.109
Mof_H 	H 	0.3779	0.0754	0.0985	0.003
Mof_C 	C 	0.41648	0.25696	0.19429	0.188
Mof_C 	C 	0.42709	0.28009	0.1513	-0.229
Mof_H 	H 	0.4219	0.2626	0.1228	0.111
Mof_C 	C 	0.44541	0.32906	0.14998	0.13
Mof_H 	H 	0.4523	0.3443	0.1206	-0.003
Mof_C 	C 	0.45349	0.35533	0.19184	-0.187
Mof_C 	C 	0.47122	0.40837	0.19121	0.393
Mof_C 	C 	0.44327	0.33174	0.23437	0.128
Mof_H 	H 	0.4487	0.3493	0.2628	0.002
Mof_C 	C 	0.4251	0.28261	0.23684	-0.223
Mof_H 	H 	0.4189	0.2673	0.2663	0.112
Mof_C 	C 	0.35049	0.19981	0.22406	0.246
Mof_C 	C 	0.3137	0.23662	0.2242	-0.303
Mof_H 	H 	0.3183	0.2662	0.2067	0.139
Mof_C 	C 	0.4602	0.4812	0.3395	0.073
Mof_H 	H 	0.4329	0.4681	0.3226	0.012
Mof_C 	C 	0.4585	0.4806	0.383	-0.134
Mof_H 	H 	0.4308	0.4678	0.3995	0.085
Mof_N 	N 	0.463	0.492	0.4811	-0.063
Mof_O 	O 	0.56503	0.01437	0.54967	-0.445
Mof_O 	O 	0.52806	0.93761	0.54915	-0.417
Mof_O 	O 	0.92886	0.97911	0.65093	-0.391
Mof_O 	O 	0.92982	0.97696	0.73091	-0.39
Mof_N 	N 	0.70702	0.89548	0.69633	-0.21
Mof_C 	C 	0.56087	0.9691	0.56236	0.425
Mof_C 	C 	0.59805	0.94994	0.60028	-0.211
Mof_C 	C 	0.63231	0.98227	0.62127	0.224
Mof_H 	H 	0.6314	0.0165	0.6138	-0.048
Mof_C 	C 	0.6671	0.96514	0.65245	-0.286
Mof_H 	H 	0.6899	0.9877	0.6661	0.142
Mof_C 	C 	0.66939	0.91455	0.66452	0.214
Mof_C 	C 	0.63413	0.88043	0.64449	-0.238
Mof_H 	H 	0.6344	0.8463	0.6526	0.119
Mof_C 	C 	0.59891	0.8997	0.61225	0.149
Mof_H 	H 	0.5754	0.8779	0.5985	-0.003
Mof_C 	C 	0.75696	0.91648	0.69429	0.189
Mof_C 	C 	0.78009	0.92709	0.6513	-0.224
Mof_H 	H 	0.7626	0.9219	0.6228	0.116
Mof_C 	C 	0.82906	0.94541	0.64998	0.128
Mof_H 	H 	0.8443	0.9523	0.6206	0.007
Mof_C 	C 	0.85533	0.95349	0.69184	-0.176
Mof_C 	C 	0.90837	0.97122	0.69121	0.388
Mof_C 	C 	0.83174	0.94327	0.73437	0.126
Mof_H 	H 	0.8493	0.9487	0.7628	0.009
Mof_C 	C 	0.78261	0.9251	0.73684	-0.218
Mof_H 	H 	0.7673	0.9189	0.7663	0.115
Mof_C 	C 	0.69981	0.85049	0.72406	0.252
Mof_C 	C 	0.73662	0.8137	0.7242	-0.306
Mof_H 	H 	0.7662	0.8183	0.7067	0.144
Mof_C 	C 	0.9812	0.9602	0.8395	0.098
Mof_H 	H 	0.9681	0.9329	0.8226	0.014
Mof_C 	C 	0.9806	0.9585	0.883	-0.094
Mof_H 	H 	0.9678	0.9308	0.8995	0.085
Mof_N 	N 	0.992	0.963	0.9811	-0.012
Mof_O 	O 	0.43497	0.98563	0.54967	-0.386
Mof_O 	O 	0.47194	0.06239	0.54915	-0.401
Mof_O 	O 	0.07114	0.02089	0.65093	-0.423
Mof_O 	O 	0.07018	0.02304	0.73091	-0.421
Mof_N 	N 	0.29298	0.10452	0.69633	-0.2
Mof_C 	C 	0.43913	0.0309	0.56236	0.329
Mof_C 	C 	0.40195	0.05006	0.60028	-0.107
Mof_C 	C 	0.36769	0.01773	0.62127	0.022
Mof_H 	H 	0.3686	0.9835	0.6138	0.056
Mof_C 	C 	0.3329	0.03486	0.65245	-0.158
Mof_H 	H 	0.3101	0.0123	0.6661	0.086
Mof_C 	C 	0.33061	0.08545	0.66452	0.146
Mof_C 	C 	0.36587	0.11957	0.64449	-0.169
Mof_H 	H 	0.3656	0.1537	0.6526	0.093
Mof_C 	C 	0.40109	0.1003	0.61225	0.063
Mof_H 	H 	0.4246	0.1221	0.5985	0.024
Mof_C 	C 	0.24304	0.08352	0.69429	0.188
Mof_C 	C 	0.21991	0.07291	0.6513	-0.23
Mof_H 	H 	0.2374	0.0781	0.6228	0.113
Mof_C 	C 	0.17094	0.05459	0.64998	0.131
Mof_H 	H 	0.1557	0.0477	0.6206	-0.004
Mof_C 	C 	0.14467	0.04651	0.69184	-0.191
Mof_C 	C 	0.09163	0.02878	0.69121	0.392
Mof_C 	C 	0.16826	0.05673	0.73437	0.129
Mof_H 	H 	0.1507	0.0513	0.7628	-0.001
Mof_C 	C 	0.21739	0.0749	0.73684	-0.225
Mof_H 	H 	0.2327	0.0811	0.7663	0.112
Mof_C 	C 	0.30019	0.14951	0.72406	0.247
Mof_C 	C 	0.26338	0.1863	0.7242	-0.302
Mof_H 	H 	0.2338	0.1817	0.7067	0.14
Mof_C 	C 	0.0188	0.0398	0.8395	0.053
Mof_H 	H 	0.0319	0.0671	0.8226	0.013
Mof_C 	C 	0.0194	0.0415	0.883	-0.129
Mof_H 	H 	0.0322	0.0692	0.8995	0.082
Mof_N 	N 	0.008	0.037	0.9811	-0.041
Mof_O 	O 	0.98563	0.56503	0.54967	-0.386
Mof_O 	O 	0.06239	0.52806	0.54915	-0.401
Mof_O 	O 	0.02089	0.92886	0.65093	-0.407
Mof_O 	O 	0.02304	0.92982	0.73091	-0.407
Mof_N 	N 	0.10452	0.70702	0.69633	-0.2
Mof_C 	C 	0.0309	0.56087	0.56236	0.329
Mof_C 	C 	0.05006	0.59805	0.60028	-0.108
Mof_C 	C 	0.01773	0.63231	0.62127	0.025
Mof_H 	H 	0.9835	0.6314	0.6138	0.055
Mof_C 	C 	0.03486	0.6671	0.65245	-0.159
Mof_H 	H 	0.0123	0.6899	0.6661	0.087
Mof_C 	C 	0.08545	0.66939	0.66452	0.148
Mof_C 	C 	0.11957	0.63413	0.64449	-0.169
Mof_H 	H 	0.1537	0.6344	0.6526	0.094
Mof_C 	C 	0.1003	0.59891	0.61225	0.064
Mof_H 	H 	0.1221	0.5754	0.5985	0.024
Mof_C 	C 	0.08352	0.75696	0.69429	0.187
Mof_C 	C 	0.07291	0.78009	0.6513	-0.226
Mof_H 	H 	0.0781	0.7626	0.6228	0.114
Mof_C 	C 	0.05459	0.82906	0.64998	0.128
Mof_H 	H 	0.0477	0.8443	0.6206	0.001
Mof_C 	C 	0.04651	0.85533	0.69184	-0.184
Mof_C 	C 	0.02878	0.90837	0.69121	0.39
Mof_C 	C 	0.05673	0.83174	0.73437	0.127
Mof_H 	H 	0.0513	0.8493	0.7628	0.002
Mof_C 	C 	0.0749	0.78261	0.73684	-0.222
Mof_H 	H 	0.0811	0.7673	0.7663	0.112
Mof_C 	C 	0.14951	0.69981	0.72406	0.248
Mof_C 	C 	0.1863	0.73662	0.7242	-0.302
Mof_H 	H 	0.1817	0.7662	0.7067	0.143
Mof_C 	C 	0.0398	0.9812	0.8395	0.071
Mof_H 	H 	0.0671	0.9681	0.8226	0.02
Mof_C 	C 	0.0415	0.9806	0.883	-0.102
Mof_H 	H 	0.0692	0.9678	0.8995	0.082
Mof_N 	N 	0.037	0.992	0.9811	-0.024
Mof_O 	O 	0.01437	0.43497	0.54967	-0.445
Mof_O 	O 	0.93761	0.47194	0.54915	-0.417
Mof_O 	O 	0.97911	0.07114	0.65093	-0.405
Mof_O 	O 	0.97696	0.07018	0.73091	-0.402
Mof_N 	N 	0.89548	0.29298	0.69633	-0.21
Mof_C 	C 	0.9691	0.43913	0.56236	0.425
Mof_C 	C 	0.94994	0.40195	0.60028	-0.212
Mof_C 	C 	0.98227	0.36769	0.62127	0.226
Mof_H 	H 	0.0165	0.3686	0.6138	-0.049
Mof_C 	C 	0.96514	0.3329	0.65245	-0.287
Mof_H 	H 	0.9877	0.3101	0.6661	0.142
Mof_C 	C 	0.91455	0.33061	0.66452	0.215
Mof_C 	C 	0.88043	0.36587	0.64449	-0.239
Mof_H 	H 	0.8463	0.3656	0.6526	0.118
Mof_C 	C 	0.8997	0.40109	0.61225	0.15
Mof_H 	H 	0.8779	0.4246	0.5985	-0.003
Mof_C 	C 	0.91648	0.24304	0.69429	0.19
Mof_C 	C 	0.92709	0.21991	0.6513	-0.227
Mof_H 	H 	0.9219	0.2374	0.6228	0.115
Mof_C 	C 	0.94541	0.17094	0.64998	0.13
Mof_H 	H 	0.9523	0.1557	0.6206	0.002
Mof_C 	C 	0.95349	0.14467	0.69184	-0.182
Mof_C 	C 	0.97122	0.09163	0.69121	0.389
Mof_C 	C 	0.94327	0.16826	0.73437	0.127
Mof_H 	H 	0.9487	0.1507	0.7628	0.007
Mof_C 	C 	0.9251	0.21739	0.73684	-0.221
Mof_H 	H 	0.9189	0.2327	0.7663	0.115
Mof_C 	C 	0.85049	0.30019	0.72406	0.251
Mof_C 	C 	0.8137	0.26338	0.7242	-0.306
Mof_H 	H 	0.8183	0.2338	0.7067	0.141
Mof_C 	C 	0.9602	0.0188	0.8395	0.07
Mof_H 	H 	0.9329	0.0319	0.8226	0.013
Mof_C 	C 	0.9585	0.0194	0.883	-0.103
Mof_H 	H 	0.9308	0.0322	0.8995	0.079
Mof_N 	N 	0.963	0.008	0.9811	-0.027
Mof_O 	O 	0.93497	0.51437	0.95033	-0.396
Mof_O 	O 	0.97194	0.43761	0.95085	-0.385
Mof_O 	O 	0.57114	0.47911	0.84907	-0.409
Mof_O 	O 	0.57018	0.47696	0.76909	-0.411
Mof_N 	N 	0.79298	0.39548	0.80367	-0.205
Mof_C 	C 	0.93913	0.4691	0.93764	0.373
Mof_C 	C 	0.90195	0.44994	0.89972	-0.149
Mof_C 	C 	0.86769	0.48227	0.87873	0.12
Mof_H 	H 	0.8686	0.5165	0.8862	0.01
Mof_C 	C 	0.8329	0.46514	0.84755	-0.216
Mof_H 	H 	0.8101	0.4877	0.8339	0.114
Mof_C 	C 	0.83061	0.41455	0.83548	0.179
Mof_C 	C 	0.86587	0.38043	0.85551	-0.197
Mof_H 	H 	0.8656	0.3463	0.8474	0.107
Mof_C 	C 	0.90109	0.3997	0.88775	0.102
Mof_H 	H 	0.9246	0.3779	0.9015	0.018
Mof_C 	C 	0.74304	0.41648	0.80571	0.19
Mof_C 	C 	0.71991	0.42709	0.8487	-0.227
Mof_H 	H 	0.7374	0.4219	0.8772	0.118
Mof_C 	C 	0.67094	0.44541	0.85002	0.13
Mof_H 	H 	0.6557	0.4523	0.8794	0.005
Mof_C 	C 	0.64467	0.45349	0.80816	-0.183
Mof_C 	C 	0.59163	0.47122	0.80879	0.392
Mof_C 	C 	0.66826	0.44327	0.76563	0.128
Mof_H 	H 	0.6507	0.4487	0.7372	0.003
Mof_C 	C 	0.71739	0.4251	0.76316	-0.222
Mof_H 	H 	0.7327	0.4189	0.7337	0.112
Mof_C 	C 	0.80019	0.35049	0.77594	0.251
Mof_C 	C 	0.76338	0.3137	0.7758	-0.306
Mof_H 	H 	0.7338	0.3183	0.7933	0.143
Mof_C 	C 	0.5188	0.4602	0.6605	0.073
Mof_H 	H 	0.5319	0.4329	0.6774	0.012
Mof_C 	C 	0.5194	0.4585	0.617	-0.133
Mof_H 	H 	0.5322	0.4308	0.6005	0.085
Mof_N 	N 	0.508	0.463	0.5189	-0.063
Mof_O 	O 	0.06503	0.48563	0.95033	-0.409
Mof_O 	O 	0.02806	0.56239	0.95085	-0.406
Mof_O 	O 	0.42886	0.52089	0.84907	-0.409
Mof_O 	O 	0.42982	0.52304	0.76909	-0.411
Mof_N 	N 	0.20702	0.60452	0.80367	-0.205
Mof_C 	C 	0.06087	0.5309	0.93764	0.376
Mof_C 	C 	0.09805	0.55006	0.89972	-0.158
Mof_C 	C 	0.13231	0.51773	0.87873	0.124
Mof_H 	H 	0.1314	0.4835	0.8862	0.004
Mof_C 	C 	0.1671	0.53486	0.84755	-0.222
Mof_H 	H 	0.1899	0.5123	0.8339	0.114
Mof_C 	C 	0.16939	0.58545	0.83548	0.181
Mof_C 	C 	0.13413	0.61957	0.85551	-0.203
Mof_H 	H 	0.1344	0.6537	0.8474	0.107
Mof_C 	C 	0.09891	0.6003	0.88775	0.106
Mof_H 	H 	0.0754	0.6221	0.9015	0.012
Mof_C 	C 	0.25696	0.58352	0.80571	0.189
Mof_C 	C 	0.28009	0.57291	0.8487	-0.227
Mof_H 	H 	0.2626	0.5781	0.8772	0.118
Mof_C 	C 	0.32906	0.55459	0.85002	0.13
Mof_H 	H 	0.3443	0.5477	0.8794	0.004
Mof_C 	C 	0.35533	0.54651	0.80816	-0.184
Mof_C 	C 	0.40837	0.52878	0.80879	0.392
Mof_C 	C 	0.33174	0.55673	0.76563	0.128
Mof_H 	H 	0.3493	0.5513	0.7372	0.003
Mof_C 	C 	0.28261	0.5749	0.76316	-0.222
Mof_H 	H 	0.2673	0.5811	0.7337	0.112
Mof_C 	C 	0.19981	0.64951	0.77594	0.248
Mof_C 	C 	0.23662	0.6863	0.7758	-0.302
Mof_H 	H 	0.2662	0.6817	0.7933	0.143
Mof_C 	C 	0.4812	0.5398	0.6605	0.073
Mof_H 	H 	0.4681	0.5671	0.6774	0.013
Mof_C 	C 	0.4806	0.5415	0.617	-0.133
Mof_H 	H 	0.4678	0.5692	0.6005	0.086
Mof_N 	N 	0.492	0.537	0.5189	-0.063
Mof_O 	O 	0.51437	0.06503	0.95033	-0.409
Mof_O 	O 	0.43761	0.02806	0.95085	-0.406
Mof_O 	O 	0.47911	0.42886	0.84907	-0.409
Mof_O 	O 	0.47696	0.42982	0.76909	-0.411
Mof_N 	N 	0.39548	0.20702	0.80367	-0.205
Mof_C 	C 	0.4691	0.06087	0.93764	0.376
Mof_C 	C 	0.44994	0.09805	0.89972	-0.158
Mof_C 	C 	0.48227	0.13231	0.87873	0.123
Mof_H 	H 	0.5165	0.1314	0.8862	0.004
Mof_C 	C 	0.46514	0.1671	0.84755	-0.222
Mof_H 	H 	0.4877	0.1899	0.8339	0.114
Mof_C 	C 	0.41455	0.16939	0.83548	0.18
Mof_C 	C 	0.38043	0.13413	0.85551	-0.203
Mof_H 	H 	0.3463	0.1344	0.8474	0.106
Mof_C 	C 	0.3997	0.09891	0.88775	0.106
Mof_H 	H 	0.3779	0.0754	0.9015	0.011
Mof_C 	C 	0.41648	0.25696	0.80571	0.189
Mof_C 	C 	0.42709	0.28009	0.8487	-0.227
Mof_H 	H 	0.4219	0.2626	0.8772	0.118
Mof_C 	C 	0.44541	0.32906	0.85002	0.13
Mof_H 	H 	0.4523	0.3443	0.8794	0.004
Mof_C 	C 	0.45349	0.35533	0.80816	-0.184
Mof_C 	C 	0.47122	0.40837	0.80879	0.392
Mof_C 	C 	0.44327	0.33174	0.76563	0.127
Mof_H 	H 	0.4487	0.3493	0.7372	0.003
Mof_C 	C 	0.4251	0.28261	0.76316	-0.222
Mof_H 	H 	0.4189	0.2673	0.7337	0.112
Mof_C 	C 	0.35049	0.19981	0.77594	0.248
Mof_C 	C 	0.3137	0.23662	0.7758	-0.303
Mof_H 	H 	0.3183	0.2662	0.7933	0.142
Mof_C 	C 	0.4602	0.4812	0.6605	0.073
Mof_H 	H 	0.4329	0.4681	0.6774	0.012
Mof_C 	C 	0.4585	0.4806	0.617	-0.133
Mof_H 	H 	0.4308	0.4678	0.6005	0.085
Mof_N 	N 	0.463	0.492	0.5189	-0.063
Mof_O 	O 	0.48563	0.93497	0.95033	-0.396
Mof_O 	O 	0.56239	0.97194	0.95085	-0.385
Mof_O 	O 	0.52089	0.57114	0.84907	-0.409
Mof_O 	O 	0.52304	0.57018	0.76909	-0.411
Mof_N 	N 	0.60452	0.79298	0.80367	-0.205
Mof_C 	C 	0.5309	0.93913	0.93764	0.374
Mof_C 	C 	0.55006	0.90195	0.89972	-0.149
Mof_C 	C 	0.51773	0.86769	0.87873	0.12
Mof_H 	H 	0.4835	0.8686	0.8862	0.01
Mof_C 	C 	0.53486	0.8329	0.84755	-0.216
Mof_H 	H 	0.5123	0.8101	0.8339	0.114
Mof_C 	C 	0.58545	0.83061	0.83548	0.179
Mof_C 	C 	0.61957	0.86587	0.85551	-0.197
Mof_H 	H 	0.6537	0.8656	0.8474	0.108
Mof_C 	C 	0.6003	0.90109	0.88775	0.103
Mof_H 	H 	0.6221	0.9246	0.9015	0.019
Mof_C 	C 	0.58352	0.74304	0.80571	0.19
Mof_C 	C 	0.57291	0.71991	0.8487	-0.226
Mof_H 	H 	0.5781	0.7374	0.8772	0.118
Mof_C 	C 	0.55459	0.67094	0.85002	0.131
Mof_H 	H 	0.5477	0.6557	0.8794	0.005
Mof_C 	C 	0.54651	0.64467	0.80816	-0.183
Mof_C 	C 	0.52878	0.59163	0.80879	0.392
Mof_C 	C 	0.55673	0.66826	0.76563	0.128
Mof_H 	H 	0.5513	0.6507	0.7372	0.003
Mof_C 	C 	0.5749	0.71739	0.76316	-0.222
Mof_H 	H 	0.5811	0.7327	0.7337	0.113
Mof_C 	C 	0.64951	0.80019	0.77594	0.251
Mof_C 	C 	0.6863	0.76338	0.7758	-0.305
Mof_H 	H 	0.6817	0.7338	0.7933	0.144
Mof_C 	C 	0.5398	0.5188	0.6605	0.073
Mof_H 	H 	0.5671	0.5319	0.6774	0.013
Mof_C 	C 	0.5415	0.5194	0.617	-0.133
Mof_H 	H 	0.5692	0.5322	0.6005	0.086
Mof_N 	N 	0.537	0.508	0.5189	-0.063
Mof_Cu	Cu	0.47759	0.95571	0.5	0.906
Mof_Cu	Cu	0.52241	0.04429	0.5	0.899
Mof_Cu	Cu	0.04429	0.47759	0.5	0.899
Mof_Cu	Cu	0.95571	0.52241	0.5	0.906
Mof_Cu	Cu	0.02241	0.45571	-0	0.88
Mof_Cu	Cu	0.97759	0.54429	-0	0.901
Mof_Cu	Cu	0.45571	0.97759	-0	0.901
Mof_Cu	Cu	0.54429	0.02241	-0	0.88
Mof_Cu	Cu	1.40735e-33	0	0.3561	0.882
Mof_Cu	Cu	-1.55515e-33	0	0.26145	0.9
Mof_N 	N 	7.35487e-34	-2.58843e-33	0.1861	-0.222
Mof_C 	C 	3.71103e-34	0	0.0939	-0.06
Mof_C 	C 	-1.46104e-34	0	0.0449	0.194
Mof_Cu	Cu	0.5	0.5	0.1439	0.901
Mof_Cu	Cu	0.5	0.5	0.23855	0.919
Mof_N 	N 	0.5	0.5	0.3139	-0.22
Mof_C 	C 	0.5	0.5	0.4061	0.127
Mof_C 	C 	0.5	0.5	0.4551	0.145
Mof_Cu	Cu	7.72162e-33	0	0.6439	0.882
Mof_Cu	Cu	-7.43489e-33	0	0.73855	0.9
Mof_N 	N 	3.21662e-33	-1.03537e-32	0.8139	-0.245
Mof_C 	C 	-6.77271e-33	0	0.9061	0.074
Mof_C 	C 	3.77466e-33	0	0.9551	0.07
Mof_Cu	Cu	0.5	0.5	0.8561	0.904
Mof_Cu	Cu	0.5	0.5	0.76145	0.919
Mof_N 	N 	0.5	0.5	0.6861	-0.22
Mof_C 	C 	0.5	0.5	0.5939	0.127
Mof_C 	C 	0.5	0.5	0.5449	0.145
Mof_C 	C 	0.34377	0.15623	0.25	-0.317
Mof_H 	H 	0.3686	0.1314	0.25	0.147
Mof_C 	C 	0.2704	0.2296	0.25	0.217
Mof_H 	H 	0.2455	0.2545	0.25	-0.048
Mof_C 	C 	0.65623	0.84377	0.25	-0.322
Mof_H 	H 	0.6314	0.8686	0.25	0.151
Mof_C 	C 	0.7296	0.7704	0.25	0.222
Mof_H 	H 	0.7545	0.7455	0.25	-0.046
Mof_C 	C 	0.84377	0.34377	0.25	-0.322
Mof_H 	H 	0.8686	0.3686	0.25	0.151
Mof_C 	C 	0.7704	0.2704	0.25	0.221
Mof_H 	H 	0.7455	0.2455	0.25	-0.049
Mof_C 	C 	0.15623	0.65623	0.25	-0.317
Mof_H 	H 	0.1314	0.6314	0.25	0.147
Mof_C 	C 	0.2296	0.7296	0.25	0.218
Mof_H 	H 	0.2545	0.7545	0.25	-0.045
Mof_C 	C 	0.65623	0.84377	0.75	-0.322
Mof_H 	H 	0.6314	0.8686	0.75	0.152
Mof_C 	C 	0.7296	0.7704	0.75	0.224
Mof_H 	H 	0.7545	0.7455	0.75	-0.044
Mof_C 	C 	0.34377	0.15623	0.75	-0.318
Mof_H 	H 	0.3686	0.1314	0.75	0.148
Mof_C 	C 	0.2704	0.2296	0.75	0.219
Mof_H 	H 	0.2455	0.2545	0.75	-0.047
Mof_C 	C 	0.15623	0.65623	0.75	-0.318
Mof_H 	H 	0.1314	0.6314	0.75	0.148
Mof_C 	C 	0.2296	0.7296	0.75	0.22
Mof_H 	H 	0.2545	0.7545	0.75	-0.043
Mof_C 	C 	0.84377	0.34377	0.75	-0.322
Mof_H 	H 	0.8686	0.3686	0.75	0.152
Mof_C 	C 	0.7704	0.2704	0.75	0.223
Mof_H 	H 	0.7455	0.2455	0.75	-0.047
_end
