data_functionalizedCrystal
_audit_creation_method	'EQeq! by Chris Wilmer'
_symmetry_space_group_name_H-M	'P1'
_symmetry_Int_Tables_number	1
_symmetry_cell_setting	triclinic
loop_
_symmetry_equiv_pos_as_xyz
  x,y,z
_cell_length_a	17.314
_cell_length_b	5.3628
_cell_length_c	23.927
_cell_angle_alpha	90
_cell_angle_beta	133.577
_cell_angle_gamma	90
loop_
_atom_site_label
_atom_site_type_symbol
_atom_site_fract_x
_atom_site_fract_y
_atom_site_fract_z
_atom_site_charge
Mof_O 	O 	0.6077	0.2014	0.5653	-0.221
Mof_O 	O 	0.9153	0.7467	0.9434	-0.222
Mof_N 	N 	0.8947	0.804	0.63	-0.177
Mof_N 	N 	0.5538	0.02	0.4582	-0.2
Mof_H 	H 	0.5069	0.9243	0.4197	0.132
Mof_N 	N 	0.8722	0.8036	0.7406	-0.181
Mof_N 	N 	0.8969	0.1544	0.9114	-0.212
Mof_H 	H 	0.9273	0.298	0.9263	0.161
Mof_C 	C 	0.9042	0.6443	0.5918	0.048
Mof_H 	H 	0.9629	0.5384	0.6201	0.039
Mof_C 	C 	0.8311	0.6305	0.5126	-0.067
Mof_H 	H 	0.8402	0.5167	0.4882	0.074
Mof_C 	C 	0.7435	0.7883	0.4697	-0.046
Mof_H 	H 	0.6933	0.7817	0.4161	0.045
Mof_C 	C 	0.7319	0.9543	0.5071	0.03
Mof_C 	C 	0.8092	0.956	0.587	-0.007
Mof_H 	H 	0.8016	0.0687	0.6125	0.056
Mof_C 	C 	0.6362	0.1235	0.4642	-0.069
Mof_H 	H 	0.6586	0.2825	0.4907	0.071
Mof_H 	H 	0.6073	0.1536	0.4128	0.049
Mof_C 	C 	0.547	0.0647	0.5086	0.167
Mof_C 	C 	0.7905	0.647	0.6932	0.051
Mof_H 	H 	0.7908	0.5394	0.6629	0.032
Mof_C 	C 	0.7054	0.6385	0.6874	-0.068
Mof_H 	H 	0.6492	0.529	0.6532	0.072
Mof_C 	C 	0.705	0.7938	0.7329	-0.042
Mof_H 	H 	0.6488	0.7888	0.7303	0.043
Mof_C 	C 	0.7887	0.9572	0.7825	0.032
Mof_C 	C 	0.8701	0.957	0.784	0.003
Mof_H 	H 	0.9262	0.0686	0.8167	0.056
Mof_C 	C 	0.7914	0.1286	0.834	-0.056
Mof_H 	H 	0.7662	0.2921	0.8102	0.055
Mof_H 	H 	0.7427	0.0652	0.8378	0.054
Mof_C 	C 	0.9471	0.9643	0.9595	0.201
Mof_O 	O 	0.3923	0.2014	0.9347	-0.219
Mof_O 	O 	0.0847	0.7467	0.5566	-0.224
Mof_N 	N 	0.1053	0.804	0.87	-0.195
Mof_N 	N 	0.4462	0.02	0.0418	-0.199
Mof_H 	H 	0.4931	0.9243	0.0803	0.132
Mof_N 	N 	0.1278	0.8036	0.7594	-0.195
Mof_N 	N 	0.1031	0.1544	0.5886	-0.198
Mof_H 	H 	0.0727	0.298	0.5737	0.137
Mof_C 	C 	0.0958	0.6443	0.9082	0.054
Mof_H 	H 	0.0371	0.5384	0.8799	0.009
Mof_C 	C 	0.1689	0.6305	0.9874	-0.096
Mof_H 	H 	0.1598	0.5167	0.0118	0.078
Mof_C 	C 	0.2565	0.7883	0.0303	-0.025
Mof_H 	H 	0.3067	0.7817	0.0839	0.037
Mof_C 	C 	0.2681	0.9543	0.9929	0.013
Mof_C 	C 	0.1908	0.956	0.913	-0.002
Mof_H 	H 	0.1984	0.0687	0.8875	0.049
Mof_C 	C 	0.3638	0.1235	0.0358	-0.058
Mof_H 	H 	0.3414	0.2825	0.0093	0.068
Mof_H 	H 	0.3927	0.1536	0.0872	0.046
Mof_C 	C 	0.453	0.0647	0.9914	0.162
Mof_C 	C 	0.2095	0.647	0.8068	0.048
Mof_H 	H 	0.2092	0.5394	0.8371	0.028
Mof_C 	C 	0.2946	0.6385	0.8126	-0.069
Mof_H 	H 	0.3508	0.529	0.8468	0.072
Mof_C 	C 	0.295	0.7938	0.7671	-0.044
Mof_H 	H 	0.3512	0.7888	0.7697	0.043
Mof_C 	C 	0.2113	0.9572	0.7175	0.031
Mof_C 	C 	0.1299	0.957	0.716	0
Mof_H 	H 	0.0738	0.0686	0.6833	0.036
Mof_C 	C 	0.2086	0.1286	0.666	-0.066
Mof_H 	H 	0.2338	0.2921	0.6898	0.056
Mof_H 	H 	0.2573	0.0652	0.6622	0.057
Mof_C 	C 	0.0529	0.9643	0.5405	0.129
Mof_O 	O 	0.3923	0.7986	0.4347	-0.22
Mof_O 	O 	0.0847	0.2533	0.0566	-0.224
Mof_N 	N 	0.1053	0.196	0.37	-0.192
Mof_N 	N 	0.4462	0.98	0.5418	-0.2
Mof_H 	H 	0.4931	0.0757	0.5803	0.132
Mof_N 	N 	0.1278	0.1964	0.2594	-0.194
Mof_N 	N 	0.1031	0.8456	0.0886	-0.198
Mof_H 	H 	0.0727	0.702	0.0737	0.137
Mof_C 	C 	0.0958	0.3557	0.4082	0.044
Mof_H 	H 	0.0371	0.4616	0.3799	0.013
Mof_C 	C 	0.1689	0.3695	0.4874	-0.076
Mof_H 	H 	0.1598	0.4833	0.5118	0.069
Mof_C 	C 	0.2565	0.2117	0.5303	-0.045
Mof_H 	H 	0.3067	0.2183	0.5839	0.044
Mof_C 	C 	0.2681	0.0457	0.4929	0.027
Mof_C 	C 	0.1908	0.044	0.413	-0.01
Mof_H 	H 	0.1984	0.9313	0.3875	0.052
Mof_C 	C 	0.3638	0.8765	0.5358	-0.067
Mof_H 	H 	0.3414	0.7175	0.5093	0.07
Mof_H 	H 	0.3927	0.8464	0.5872	0.048
Mof_C 	C 	0.453	0.9353	0.4914	0.167
Mof_C 	C 	0.2095	0.353	0.3068	0.048
Mof_H 	H 	0.2092	0.4606	0.3371	0.028
Mof_C 	C 	0.2946	0.3615	0.3126	-0.069
Mof_H 	H 	0.3508	0.471	0.3468	0.073
Mof_C 	C 	0.295	0.2062	0.2671	-0.044
Mof_H 	H 	0.3512	0.2112	0.2697	0.043
Mof_C 	C 	0.2113	0.0428	0.2175	0.031
Mof_C 	C 	0.1299	0.043	0.216	-0.001
Mof_H 	H 	0.0738	0.9314	0.1833	0.036
Mof_C 	C 	0.2086	0.8714	0.166	-0.065
Mof_H 	H 	0.2338	0.7079	0.1898	0.056
Mof_H 	H 	0.2573	0.9348	0.1622	0.058
Mof_C 	C 	0.0529	0.0357	0.0405	0.131
Mof_O 	O 	0.6077	0.7986	0.0653	-0.22
Mof_O 	O 	0.9153	0.2533	0.4434	-0.221
Mof_N 	N 	0.8947	0.196	0.13	-0.173
Mof_N 	N 	0.5538	0.98	0.9582	-0.2
Mof_H 	H 	0.5069	0.0757	0.9197	0.131
Mof_N 	N 	0.8722	0.1964	0.2406	-0.181
Mof_N 	N 	0.8969	0.8456	0.4114	-0.213
Mof_H 	H 	0.9273	0.702	0.4263	0.162
Mof_C 	C 	0.9042	0.3557	0.0918	0.037
Mof_H 	H 	0.9629	0.4616	0.1201	0.043
Mof_C 	C 	0.8311	0.3695	0.0126	-0.045
Mof_H 	H 	0.8402	0.4833	0.9882	0.064
Mof_C 	C 	0.7435	0.2117	0.9697	-0.068
Mof_H 	H 	0.6933	0.2183	0.9161	0.052
Mof_C 	C 	0.7319	0.0457	0.0071	0.045
Mof_C 	C 	0.8092	0.044	0.087	-0.015
Mof_H 	H 	0.8016	0.9313	0.1125	0.059
Mof_C 	C 	0.6362	0.8765	0.9642	-0.079
Mof_H 	H 	0.6586	0.7175	0.9907	0.072
Mof_H 	H 	0.6073	0.8464	0.9128	0.052
Mof_C 	C 	0.547	0.9353	0.0086	0.172
Mof_C 	C 	0.7905	0.353	0.1932	0.051
Mof_H 	H 	0.7908	0.4606	0.1629	0.032
Mof_C 	C 	0.7054	0.3615	0.1874	-0.068
Mof_H 	H 	0.6492	0.471	0.1532	0.073
Mof_C 	C 	0.705	0.2062	0.2329	-0.042
Mof_H 	H 	0.6488	0.2112	0.2303	0.043
Mof_C 	C 	0.7887	0.0428	0.2825	0.032
Mof_C 	C 	0.8701	0.043	0.284	0.003
Mof_H 	H 	0.9262	0.9314	0.3167	0.056
Mof_C 	C 	0.7914	0.8714	0.334	-0.056
Mof_H 	H 	0.7662	0.7079	0.3102	0.056
Mof_H 	H 	0.7427	0.9348	0.3378	0.055
Mof_C 	C 	0.9471	0.0357	0.4595	0.203
Mof_Br	Br	-1.41272e-16	0.30329	0.75	-0.489
Mof_Cu	Cu	-1.41272e-16	0.80431	0.75	0.883
Mof_Br	Br	2.1883e-33	0.69671	0.25	-0.489
Mof_Cu	Cu	2.1883e-33	0.19569	0.25	0.883
_end
