data_functionalizedCrystal
_audit_creation_method	'EQeq! by Chris Wilmer'
_symmetry_space_group_name_H-M	'P1'
_symmetry_Int_Tables_number	1
_symmetry_cell_setting	triclinic
loop_
_symmetry_equiv_pos_as_xyz
  x,y,z
_cell_length_a	15.498
_cell_length_b	16.4
_cell_length_c	12.66
_cell_angle_alpha	90
_cell_angle_beta	93.36
_cell_angle_gamma	90
loop_
_atom_site_label
_atom_site_type_symbol
_atom_site_fract_x
_atom_site_fract_y
_atom_site_fract_z
_atom_site_charge
Mof_Sm	Sm	0.12257	0.19019	0.91378	2.553
Mof_S 	S 	0.10822	0.21911	0.66777	0.834
Mof_S 	S 	0.18208	0.35054	0.07458	0.787
Mof_O 	O 	0.0538	0.0629	0.9015	-0.507
Mof_O 	O 	0.1035	0.1416	0.7294	-0.618
Mof_O 	O 	0.0861	0.1427	0.079	-0.531
Mof_O 	O 	0.0252	0.2343	0.6097	-0.592
Mof_O 	O 	0.1246	0.3256	0.986	-0.535
Mof_O 	O 	0.1236	0.2823	0.7499	-0.468
Mof_O 	O 	0.0751	0.0402	0.186	-0.345
Mof_O 	O 	0.1774	0.2172	0.5981	-0.279
Mof_O 	O 	0.2534	0.4006	0.0429	-0.518
Mof_C 	C 	0.0636	0.0727	0.0969	0.42
Mof_O 	O 	0.1313	0.3891	0.1528	-0.264
Mof_O 	O 	0.2251	0.2755	0.1179	-0.553
Mof_C 	C 	0.0368	0.0231	0.996	-0.09
Mof_H 	H 	0.0813	0.9806	0.9985	0.069
Mof_Sm	Sm	0.62257	0.69019	0.91378	2.614
Mof_S 	S 	0.60822	0.71911	0.66777	0.832
Mof_S 	S 	0.68208	0.85054	0.07458	0.779
Mof_O 	O 	0.5538	0.5629	0.9015	-0.521
Mof_O 	O 	0.6035	0.6416	0.7294	-0.618
Mof_O 	O 	0.5861	0.6427	0.079	-0.524
Mof_O 	O 	0.5252	0.7343	0.6097	-0.553
Mof_O 	O 	0.6246	0.8256	0.986	-0.521
Mof_O 	O 	0.6236	0.7823	0.7499	-0.459
Mof_O 	O 	0.5751	0.5402	0.186	-0.335
Mof_O 	O 	0.6774	0.7172	0.5981	-0.269
Mof_O 	O 	0.7534	0.9006	0.0429	-0.519
Mof_C 	C 	0.5636	0.5727	0.0969	0.405
Mof_O 	O 	0.6313	0.8891	0.1528	-0.248
Mof_O 	O 	0.7251	0.7755	0.1179	-0.556
Mof_C 	C 	0.5368	0.5231	0.996	0.003
Mof_H 	H 	0.5813	0.4806	0.9985	0.051
Mof_Sm	Sm	0.87743	0.19019	0.58622	2.662
Mof_S 	S 	0.89178	0.21911	0.83223	0.822
Mof_S 	S 	0.81792	0.35054	0.42542	0.783
Mof_O 	O 	0.9462	0.0629	0.5985	-0.507
Mof_O 	O 	0.8965	0.1416	0.7706	-0.596
Mof_O 	O 	0.9139	0.1427	0.421	-0.511
Mof_O 	O 	0.9748	0.2343	0.8903	-0.508
Mof_O 	O 	0.8754	0.3256	0.514	-0.516
Mof_O 	O 	0.8764	0.2823	0.7501	-0.448
Mof_O 	O 	0.9249	0.0402	0.314	-0.301
Mof_O 	O 	0.8226	0.2172	0.9019	-0.263
Mof_O 	O 	0.7466	0.4006	0.4571	-0.512
Mof_C 	C 	0.9364	0.0727	0.4031	0.395
Mof_O 	O 	0.8687	0.3891	0.3472	-0.233
Mof_O 	O 	0.7749	0.2755	0.3821	-0.551
Mof_C 	C 	0.9632	0.0231	0.504	0.08
Mof_H 	H 	0.9187	0.9806	0.5015	0.039
Mof_Sm	Sm	0.37743	0.69019	0.58622	2.606
Mof_S 	S 	0.39178	0.71911	0.83223	0.833
Mof_S 	S 	0.31792	0.85054	0.42542	0.784
Mof_O 	O 	0.4462	0.5629	0.5985	-0.52
Mof_O 	O 	0.3965	0.6416	0.7706	-0.619
Mof_O 	O 	0.4139	0.6427	0.421	-0.522
Mof_O 	O 	0.4748	0.7343	0.8903	-0.553
Mof_O 	O 	0.3754	0.8256	0.514	-0.525
Mof_O 	O 	0.3764	0.7823	0.7501	-0.46
Mof_O 	O 	0.4249	0.5402	0.314	-0.337
Mof_O 	O 	0.3226	0.7172	0.9019	-0.275
Mof_O 	O 	0.2466	0.9006	0.4571	-0.51
Mof_C 	C 	0.4364	0.5727	0.4031	0.409
Mof_O 	O 	0.3687	0.8891	0.3472	-0.249
Mof_O 	O 	0.2749	0.7755	0.3821	-0.548
Mof_C 	C 	0.4632	0.5231	0.504	-0.004
Mof_H 	H 	0.4187	0.4806	0.5015	0.05
Mof_Sm	Sm	0.87743	0.80981	0.08622	2.651
Mof_S 	S 	0.89178	0.78089	0.33223	0.823
Mof_S 	S 	0.81792	0.64946	0.92542	0.79
Mof_O 	O 	0.9462	0.9371	0.0985	-0.506
Mof_O 	O 	0.8965	0.8584	0.2706	-0.597
Mof_O 	O 	0.9139	0.8573	0.921	-0.508
Mof_O 	O 	0.9748	0.7657	0.3903	-0.51
Mof_O 	O 	0.8754	0.6744	0.014	-0.521
Mof_O 	O 	0.8764	0.7177	0.2501	-0.449
Mof_O 	O 	0.9249	0.9598	0.814	-0.3
Mof_O 	O 	0.8226	0.7828	0.4019	-0.264
Mof_O 	O 	0.7466	0.5994	0.9571	-0.512
Mof_C 	C 	0.9364	0.9273	0.9031	0.402
Mof_O 	O 	0.8687	0.6109	0.8472	-0.233
Mof_O 	O 	0.7749	0.7245	0.8821	-0.551
Mof_C 	C 	0.9632	0.9769	0.004	0.068
Mof_H 	H 	0.9187	0.0194	0.0015	0.042
Mof_Sm	Sm	0.37743	0.30981	0.08622	2.605
Mof_S 	S 	0.39178	0.28089	0.33223	0.833
Mof_S 	S 	0.31792	0.14946	0.92542	0.785
Mof_O 	O 	0.4462	0.4371	0.0985	-0.518
Mof_O 	O 	0.3965	0.3584	0.2706	-0.619
Mof_O 	O 	0.4139	0.3573	0.921	-0.522
Mof_O 	O 	0.4748	0.2657	0.3903	-0.553
Mof_O 	O 	0.3754	0.1744	0.014	-0.526
Mof_O 	O 	0.3764	0.2177	0.2501	-0.46
Mof_O 	O 	0.4249	0.4598	0.814	-0.338
Mof_O 	O 	0.3226	0.2828	0.4019	-0.276
Mof_O 	O 	0.2466	0.0994	0.9571	-0.51
Mof_C 	C 	0.4364	0.4273	0.9031	0.413
Mof_O 	O 	0.3687	0.1109	0.8472	-0.248
Mof_O 	O 	0.2749	0.2245	0.8821	-0.547
Mof_C 	C 	0.4632	0.4769	0.004	-0.012
Mof_H 	H 	0.4187	0.5194	0.0015	0.051
Mof_Sm	Sm	0.12257	0.80981	0.41378	2.556
Mof_S 	S 	0.10822	0.78089	0.16777	0.834
Mof_S 	S 	0.18208	0.64946	0.57458	0.787
Mof_O 	O 	0.0538	0.9371	0.4015	-0.506
Mof_O 	O 	0.1035	0.8584	0.2294	-0.618
Mof_O 	O 	0.0861	0.8573	0.579	-0.531
Mof_O 	O 	0.0252	0.7657	0.1097	-0.59
Mof_O 	O 	0.1246	0.6744	0.486	-0.535
Mof_O 	O 	0.1236	0.7177	0.2499	-0.468
Mof_O 	O 	0.0751	0.9598	0.686	-0.345
Mof_O 	O 	0.1774	0.7828	0.0981	-0.279
Mof_O 	O 	0.2534	0.5994	0.5429	-0.518
Mof_C 	C 	0.0636	0.9273	0.5969	0.418
Mof_O 	O 	0.1313	0.6109	0.6528	-0.264
Mof_O 	O 	0.2251	0.7245	0.6179	-0.553
Mof_C 	C 	0.0368	0.9769	0.496	-0.09
Mof_H 	H 	0.0813	0.0194	0.4985	0.066
Mof_Sm	Sm	0.62257	0.30981	0.41378	2.608
Mof_S 	S 	0.60822	0.28089	0.16777	0.832
Mof_S 	S 	0.68208	0.14946	0.57458	0.786
Mof_O 	O 	0.5538	0.4371	0.4015	-0.519
Mof_O 	O 	0.6035	0.3584	0.2294	-0.618
Mof_O 	O 	0.5861	0.3573	0.579	-0.522
Mof_O 	O 	0.5252	0.2657	0.1097	-0.553
Mof_O 	O 	0.6246	0.1744	0.486	-0.526
Mof_O 	O 	0.6236	0.2177	0.2499	-0.459
Mof_O 	O 	0.5751	0.4598	0.686	-0.335
Mof_O 	O 	0.6774	0.2828	0.0981	-0.271
Mof_O 	O 	0.7534	0.0994	0.5429	-0.519
Mof_C 	C 	0.5636	0.4273	0.5969	0.409
Mof_O 	O 	0.6313	0.1109	0.6528	-0.248
Mof_O 	O 	0.7251	0.2245	0.6179	-0.556
Mof_C 	C 	0.5368	0.4769	0.496	-0.006
Mof_H 	H 	0.5813	0.5194	0.4985	0.052
Mof_Fe	Fe	-4.42399e-18	0.05061	0.75	0.802
Mof_Fe	Fe	0.5	0.55061	0.75	0.886
Mof_Fe	Fe	8.10579e-34	0.94939	0.25	0.806
Mof_Fe	Fe	0.5	0.44939	0.25	0.885
_end
