data_functionalizedCrystal
_audit_creation_method	'EQeq! by Chris Wilmer'
_symmetry_space_group_name_H-M	'P1'
_symmetry_Int_Tables_number	1
_symmetry_cell_setting	triclinic
loop_
_symmetry_equiv_pos_as_xyz
  x,y,z
_cell_length_a	8.417
_cell_length_b	9.716
_cell_length_c	10.117
_cell_angle_alpha	61.951
_cell_angle_beta	77.816
_cell_angle_gamma	74.279
loop_
_atom_site_label
_atom_site_type_symbol
_atom_site_fract_x
_atom_site_fract_y
_atom_site_fract_z
_atom_site_charge
Mof_Nd	Nd	0.32863	0.36995	0.83849	2.543
Mof_O 	O 	0.074	0.3083	0.0137	-0.446
Mof_O 	O 	0.3119	0.0919	0.9224	-0.476
Mof_O 	O 	0.5267	0.3084	0.6472	-0.475
Mof_O 	O 	0.5383	0.5182	0.8166	-0.455
Mof_O 	O 	0.43	0.8318	0.0331	-0.443
Mof_O 	O 	0.8737	0.3938	0.1576	-0.456
Mof_O 	O 	0.656	0.6097	0.9275	-0.453
Mof_O 	O 	0.6598	0.4015	0.4155	-0.462
Mof_C 	C 	0.9857	0.413	0.049	0.268
Mof_C 	C 	0.4254	0.9766	0.9886	0.285
Mof_C 	C 	0.5535	0.4158	0.5174	0.274
Mof_C 	C 	0.5572	0.5367	0.9266	0.296
Mof_Nd	Nd	0.67137	0.63005	0.16151	2.543
Mof_O 	O 	0.926	0.6917	0.9863	-0.446
Mof_O 	O 	0.6881	0.9081	0.0776	-0.476
Mof_O 	O 	0.4733	0.6916	0.3528	-0.475
Mof_O 	O 	0.4617	0.4818	0.1834	-0.455
Mof_O 	O 	0.57	0.1682	0.9669	-0.443
Mof_O 	O 	0.1263	0.6062	0.8424	-0.456
Mof_O 	O 	0.344	0.3903	0.0725	-0.453
Mof_O 	O 	0.3402	0.5985	0.5845	-0.462
Mof_C 	C 	0.0143	0.587	0.951	0.268
Mof_C 	C 	0.5746	0.0234	0.0114	0.285
Mof_C 	C 	0.4465	0.5842	0.4826	0.274
Mof_C 	C 	0.4428	0.4633	0.0734	0.296
_end
