data_functionalizedCrystal
_audit_creation_method	'EQeq! by Chris Wilmer'
_symmetry_space_group_name_H-M	'P1'
_symmetry_Int_Tables_number	1
_symmetry_cell_setting	triclinic
loop_
_symmetry_equiv_pos_as_xyz
  x,y,z
_cell_length_a	7.8529
_cell_length_b	12.186
_cell_length_c	13.2217
_cell_angle_alpha	112.156
_cell_angle_beta	105.457
_cell_angle_gamma	91.541
loop_
_atom_site_label
_atom_site_type_symbol
_atom_site_fract_x
_atom_site_fract_y
_atom_site_fract_z
_atom_site_charge
Mof_Er	Er	0.7497	0.98145	0.01074	1.871
Mof_Er	Er	0.2503	0.01855	0.98926	1.871
Mof_H 	H 	0.0768	0.1537	0.4153	0.01
Mof_H 	H 	0.068	0.275	0.4	-0.002
Mof_H 	H 	0.2619	0.2287	0.2925	0.194
Mof_H 	H 	0.2977	0.1142	0.3182	0.197
Mof_H 	H 	0.5939	0.1155	0.6819	0.002
Mof_H 	H 	0.6948	0.2322	0.788	0.001
Mof_H 	H 	0.4481	0.2421	0.8584	0.182
Mof_H 	H 	0.3512	0.1234	0.7535	0.195
Mof_H 	H 	0.6199	0.6051	0.7784	-0.011
Mof_H 	H 	0.5113	0.6125	0.6633	-0.007
Mof_H 	H 	0.3464	0.5959	0.8232	0.2
Mof_H 	H 	0.2509	0.6185	0.7141	0.212
Mof_H 	H 	0.9232	0.8463	0.5847	0.01
Mof_H 	H 	0.932	0.725	0.6	-0.002
Mof_H 	H 	0.7381	0.7713	0.7075	0.194
Mof_H 	H 	0.7023	0.8858	0.6818	0.197
Mof_H 	H 	0.4061	0.8845	0.3181	0.002
Mof_H 	H 	0.3052	0.7678	0.212	0.001
Mof_H 	H 	0.5519	0.7579	0.1416	0.182
Mof_H 	H 	0.6488	0.8766	0.2465	0.195
Mof_H 	H 	0.3801	0.3949	0.2216	-0.011
Mof_H 	H 	0.4887	0.3875	0.3367	-0.007
Mof_H 	H 	0.6536	0.4041	0.1768	0.2
Mof_H 	H 	0.7491	0.3815	0.2859	0.212
Mof_C 	C 	0.3396	0.3987	0.5587	0.288
Mof_C 	C 	0.3662	0.2052	0.5725	0.288
Mof_C 	C 	0.537	0.3871	0.73	0.286
Mof_C 	C 	0.1461	0.217	0.4096	0.18
Mof_C 	C 	0.2081	0.1648	0.3059	-0.486
Mof_C 	C 	0.0535	0.0924	0.2031	0.494
Mof_C 	C 	0.5778	0.1909	0.737	0.19
Mof_C 	C 	0.467	0.1666	0.8049	-0.519
Mof_C 	C 	0.554	0.0947	0.8701	0.554
Mof_C 	C 	0.5047	0.5819	0.7202	0.205
Mof_C 	C 	0.3629	0.635	0.7741	-0.535
Mof_C 	C 	0.4061	0.7684	0.8436	0.565
Mof_C 	C 	0.6604	0.6013	0.4413	0.288
Mof_C 	C 	0.6338	0.7948	0.4275	0.288
Mof_C 	C 	0.463	0.6129	0.27	0.286
Mof_C 	C 	0.8539	0.783	0.5904	0.18
Mof_C 	C 	0.7919	0.8352	0.6941	-0.486
Mof_C 	C 	0.9465	0.9076	0.7969	0.494
Mof_C 	C 	0.4222	0.8091	0.263	0.19
Mof_C 	C 	0.533	0.8334	0.1951	-0.519
Mof_C 	C 	0.446	0.9053	0.1299	0.554
Mof_C 	C 	0.4953	0.4181	0.2798	0.205
Mof_C 	C 	0.6371	0.365	0.2259	-0.535
Mof_C 	C 	0.5939	0.2316	0.1564	0.565
Mof_N 	N 	0.4631	0.4503	0.6659	-0.215
Mof_N 	N 	0.2918	0.2758	0.5168	-0.214
Mof_N 	N 	0.4939	0.2641	0.6759	-0.216
Mof_N 	N 	0.5369	0.5497	0.3341	-0.215
Mof_N 	N 	0.7082	0.7242	0.4832	-0.214
Mof_N 	N 	0.5061	0.7359	0.3241	-0.216
Mof_O 	O 	0.9237	0.0425	0.2143	-0.433
Mof_O 	O 	0.0554	0.0864	0.104	-0.601
Mof_O 	O 	0.5577	0.819	0.8607	-0.523
Mof_O 	O 	0.2824	0.8186	0.8804	-0.48
Mof_O 	O 	0.4645	0.05	0.9148	-0.64
Mof_O 	O 	0.7141	0.0809	0.8811	-0.487
Mof_O 	O 	0.6375	0.4364	0.8265	-0.254
Mof_O 	O 	0.2752	0.4572	0.5057	-0.247
Mof_O 	O 	0.3228	0.0978	0.531	-0.244
Mof_O 	O 	0.0763	0.9575	0.7857	-0.433
Mof_O 	O 	0.9446	0.9136	0.896	-0.601
Mof_O 	O 	0.4423	0.181	0.1393	-0.523
Mof_O 	O 	0.7176	0.1814	0.1196	-0.48
Mof_O 	O 	0.5355	0.95	0.0852	-0.64
Mof_O 	O 	0.2859	0.9191	0.1189	-0.487
Mof_O 	O 	0.3625	0.5636	0.1735	-0.254
Mof_O 	O 	0.7248	0.5428	0.4943	-0.247
Mof_O 	O 	0.6772	0.9022	0.469	-0.244
_end
