data_functionalizedCrystal
_audit_creation_method	'EQeq! by Chris Wilmer'
_symmetry_space_group_name_H-M	'P1'
_symmetry_Int_Tables_number	1
_symmetry_cell_setting	triclinic
loop_
_symmetry_equiv_pos_as_xyz
  x,y,z
_cell_length_a	13.8151
_cell_length_b	13.8151
_cell_length_c	13.8151
_cell_angle_alpha	105.335
_cell_angle_beta	105.335
_cell_angle_gamma	118.104
loop_
_atom_site_label
_atom_site_type_symbol
_atom_site_fract_x
_atom_site_fract_y
_atom_site_fract_z
_atom_site_charge
Mof_Cu	Cu	0.52117	0.62025	0.09908	0.858
Mof_Cu	Cu	0.52117	0.42209	0.90092	0.859
Mof_Cu	Cu	0.67209	0.27117	0.40092	0.854
Mof_Cu	Cu	0.87025	0.27117	0.59908	0.83
Mof_H 	H 	0.6577	0.5922	0.3915	0.257
Mof_H 	H 	0.5119	0.5159	0.3326	0.241
Mof_H 	H 	0.5919	0.6373	0.3226	0.242
Mof_H 	H 	0.2007	0.2662	0.6085	0.269
Mof_H 	H 	0.1833	0.1793	0.6674	0.249
Mof_H 	H 	0.3147	0.2693	0.6774	0.242
Mof_H 	H 	0.5162	0.4077	0.5655	0.257
Mof_H 	H 	0.4293	0.2619	0.496	0.235
Mof_H 	H 	0.5193	0.3419	0.4546	0.237
Mof_H 	H 	0.8422	0.9507	0.4345	0.095
Mof_H 	H 	0.7659	0.9333	0.504	0.084
Mof_H 	H 	0.8873	0.0647	0.5454	0.019
Mof_H 	H 	0.2007	0.5922	0.9345	0.271
Mof_H 	H 	0.1833	0.5159	0.004	0.243
Mof_H 	H 	0.3147	0.6373	0.0454	0.239
Mof_H 	H 	0.6577	0.2662	0.0655	0.246
Mof_H 	H 	0.5119	0.1793	0.996	0.231
Mof_H 	H 	0.5919	0.2693	0.9546	0.232
Mof_H 	H 	0.8422	0.4077	0.8915	0.223
Mof_H 	H 	0.7659	0.2619	0.8326	0.203
Mof_H 	H 	0.8873	0.3419	0.8226	0.19
Mof_H 	H 	0.5162	0.9507	0.1085	0.131
Mof_H 	H 	0.4293	0.9333	0.1674	0.119
Mof_H 	H 	0.5193	0.0647	0.1774	0.071
Mof_C 	C 	0.5798	0.4911	0.2221	0.332
Mof_C 	C 	0.5859	0.5656	0.3263	-0.788
Mof_C 	C 	0.269	0.3577	0.7779	0.337
Mof_C 	C 	0.2393	0.2596	0.6737	-0.798
Mof_C 	C 	0.6077	0.3298	0.5887	0.325
Mof_C 	C 	0.5096	0.3359	0.5203	-0.781
Mof_C 	C 	0.7411	0.019	0.4113	0.043
Mof_C 	C 	0.8156	0.9893	0.4797	-0.22
Mof_C 	C 	0.269	0.4911	0.9113	0.334
Mof_C 	C 	0.2393	0.5656	0.9797	-0.772
Mof_C 	C 	0.5798	0.3577	0.0887	0.326
Mof_C 	C 	0.5859	0.2596	0.0203	-0.775
Mof_C 	C 	0.7411	0.3298	0.7221	0.3
Mof_C 	C 	0.8156	0.3359	0.8263	-0.712
Mof_C 	C 	0.6077	0.019	0.2779	0.073
Mof_C 	C 	0.5096	0.9893	0.1737	-0.303
Mof_C 	C 	0.6043	0.3998	0.2045	-0.361
Mof_C 	C 	0.6345	0.3553	0.2792	0.399
Mof_C 	C 	0.1953	0.3998	0.7955	-0.347
Mof_C 	C 	0.0761	0.3553	0.7208	0.392
Mof_C 	C 	0.6498	0.3543	0.7045	-0.351
Mof_C 	C 	0.6053	0.3845	0.7792	0.395
Mof_C 	C 	0.6498	0.9453	0.2955	-0.094
Mof_C 	C 	0.6053	0.8261	0.2208	0.297
Mof_N 	N 	0.5489	0.5023	0.1278	-0.271
Mof_N 	N 	0.3745	0.4211	0.8722	-0.27
Mof_N 	N 	0.6711	0.2989	0.5466	-0.274
Mof_N 	N 	0.7523	0.1245	0.4534	-0.232
Mof_N 	N 	0.3745	0.5023	0.9534	-0.268
Mof_N 	N 	0.5489	0.4211	0.0466	-0.271
Mof_N 	N 	0.7523	0.2989	0.6278	-0.274
Mof_N 	N 	0.6711	0.1245	0.3722	-0.233
Mof_O 	O 	0.6496	0.3996	0.3802	-0.448
Mof_O 	O 	0.0194	0.2694	0.6198	-0.391
Mof_O 	O 	0.5194	0.3996	0.75	-0.443
Mof_O 	O 	0.6496	0.7694	0.25	-0.411
Mof_O 	O 	0.0194	0.3996	0.75	-0.394
Mof_O 	O 	0.6496	0.2694	0.25	-0.444
Mof_O 	O 	0.6496	0.3996	0.8802	-0.446
Mof_O 	O 	0.5194	0.7694	0.1198	-0.408
_end
