data_functionalizedCrystal
_audit_creation_method	'EQeq! by Chris Wilmer'
_symmetry_space_group_name_H-M	'P1'
_symmetry_Int_Tables_number	1
_symmetry_cell_setting	triclinic
loop_
_symmetry_equiv_pos_as_xyz
  x,y,z
_cell_length_a	24.495
_cell_length_b	27.929
_cell_length_c	22.13
_cell_angle_alpha	90
_cell_angle_beta	90
_cell_angle_gamma	90
loop_
_atom_site_label
_atom_site_type_symbol
_atom_site_fract_x
_atom_site_fract_y
_atom_site_fract_z
_atom_site_charge
Mof_Cu	Cu	0.7436	0.53125	0.54606	0.908
Mof_Cu	Cu	0.46169	0.2447	0.54127	0.92
Mof_C 	C 	0.4034	0.5094	0.9678	-0.013
Mof_C 	C 	0.3708	0.5495	0.9582	0.124
Mof_C 	C 	0.3714	0.5725	0.9025	-0.018
Mof_C 	C 	0.4047	0.5554	0.8564	0.015
Mof_C 	C 	0.4373	0.5154	0.8659	-0.008
Mof_C 	C 	0.4366	0.4924	0.9216	0.014
Mof_C 	C 	0.468	0.4511	0.9326	0.006
Mof_C 	C 	0.5002	0.4315	0.8872	0.006
Mof_C 	C 	0.5034	0.4553	0.8329	-0.005
Mof_C 	C 	0.4713	0.4956	0.8213	0.004
Mof_C 	C 	0.9391	0.4835	0.9726	-0.019
Mof_C 	C 	0.905	0.4444	0.9638	0.116
Mof_C 	C 	0.902	0.4228	0.9073	-0.004
Mof_C 	C 	0.9331	0.4404	0.8596	-0.065
Mof_C 	C 	0.9671	0.4796	0.8685	-0.086
Mof_C 	C 	0.9701	0.5011	0.925	0.062
Mof_C 	C 	0.9926	0.4624	0.9372	-0.043
Mof_C 	C 	0.9595	0.4436	0.892	0.075
Mof_C 	C 	0.9643	0.463	0.8339	0.078
Mof_C 	C 	0.5771	0.4114	0.6712	0.032
Mof_C 	C 	0.6179	0.435	0.6395	-0.039
Mof_H 	H 	0.6335	0.4635	0.6553	0.068
Mof_C 	C 	0.6361	0.4169	0.5845	-0.062
Mof_C 	C 	0.6133	0.3752	0.5613	0.013
Mof_H 	H 	0.6257	0.3628	0.5237	0.056
Mof_C 	C 	0.5725	0.3515	0.5931	-0.064
Mof_C 	C 	0.5543	0.3696	0.6481	-0.037
Mof_H 	H 	0.5264	0.3535	0.6698	0.066
Mof_C 	C 	0.5462	0.309	0.5663	0.32
Mof_C 	C 	0.6766	0.4463	0.5525	0.312
Mof_C 	C 	0.8207	0.4539	0.5567	0.334
Mof_C 	C 	0.9497	0.3189	0.5526	0.353
Mof_C 	C 	0.9072	0.4002	0.6787	0.024
Mof_C 	C 	0.8703	0.4302	0.6498	-0.024
Mof_H 	H 	0.8533	0.4555	0.6715	0.061
Mof_C 	C 	0.8582	0.4233	0.5891	-0.078
Mof_C 	C 	0.883	0.3863	0.5573	0.027
Mof_H 	H 	0.8748	0.3815	0.5158	0.056
Mof_C 	C 	0.92	0.3563	0.5862	-0.079
Mof_C 	C 	0.932	0.3632	0.647	-0.024
Mof_H 	H 	0.9573	0.3427	0.6668	0.064
Mof_C 	C 	0.5347	0.4377	0.7829	0.007
Mof_C 	C 	0.5584	0.4296	0.7277	-0.017
Mof_C 	C 	0.9224	0.4242	0.7994	0.016
Mof_C 	C 	0.9198	0.4077	0.7414	-0.016
Mof_O 	O 	0.5053	0.2893	0.5919	-0.375
Mof_O 	O 	0.5674	0.2931	0.5168	-0.391
Mof_O 	O 	0.6974	0.4838	0.5789	-0.401
Mof_O 	O 	0.6872	0.4361	0.496	-0.391
Mof_O 	O 	0.808	0.4951	0.5776	-0.374
Mof_O 	O 	0.8025	0.438	0.5062	-0.374
Mof_O 	O 	0.9926	0.3008	0.5752	-0.404
Mof_O 	O 	0.9328	0.3051	0.5	-0.412
Mof_O 	O 	0.3435	0.567	0.0065	-0.156
Mof_O 	O 	0.875	0.428	0.011	-0.153
Mof_Cu	Cu	0.2436	0.03125	0.54606	0.907
Mof_Cu	Cu	0.96169	0.7447	0.54127	0.919
Mof_C 	C 	0.9034	0.0094	0.9678	-0.014
Mof_C 	C 	0.8708	0.0495	0.9582	0.123
Mof_C 	C 	0.8714	0.0725	0.9025	-0.019
Mof_C 	C 	0.9047	0.0554	0.8564	0.015
Mof_C 	C 	0.9373	0.0154	0.8659	-0.009
Mof_C 	C 	0.9366	0.9924	0.9216	0.014
Mof_C 	C 	0.968	0.9511	0.9326	0.005
Mof_C 	C 	0.0002	0.9315	0.8872	0.007
Mof_C 	C 	0.0034	0.9553	0.8329	-0.005
Mof_C 	C 	0.9713	0.9956	0.8213	0.004
Mof_C 	C 	0.4391	0.9835	0.9726	-0.019
Mof_C 	C 	0.405	0.9444	0.9638	0.116
Mof_C 	C 	0.402	0.9228	0.9073	-0.004
Mof_C 	C 	0.4331	0.9404	0.8596	-0.066
Mof_C 	C 	0.4671	0.9796	0.8685	-0.088
Mof_C 	C 	0.4701	0.0011	0.925	0.063
Mof_C 	C 	0.4926	0.9624	0.9372	-0.043
Mof_C 	C 	0.4595	0.9436	0.892	0.077
Mof_C 	C 	0.4643	0.963	0.8339	0.08
Mof_C 	C 	0.0771	0.9114	0.6712	0.032
Mof_C 	C 	0.1179	0.935	0.6395	-0.039
Mof_H 	H 	0.1335	0.9635	0.6553	0.068
Mof_C 	C 	0.1361	0.9169	0.5845	-0.062
Mof_C 	C 	0.1133	0.8752	0.5613	0.013
Mof_H 	H 	0.1257	0.8628	0.5237	0.056
Mof_C 	C 	0.0725	0.8515	0.5931	-0.064
Mof_C 	C 	0.0543	0.8696	0.6481	-0.037
Mof_H 	H 	0.0264	0.8535	0.6698	0.066
Mof_C 	C 	0.0462	0.809	0.5663	0.32
Mof_C 	C 	0.1766	0.9463	0.5525	0.312
Mof_C 	C 	0.3207	0.9539	0.5567	0.334
Mof_C 	C 	0.4497	0.8189	0.5526	0.353
Mof_C 	C 	0.4072	0.9002	0.6787	0.024
Mof_C 	C 	0.3703	0.9302	0.6498	-0.024
Mof_H 	H 	0.3533	0.9555	0.6715	0.061
Mof_C 	C 	0.3582	0.9233	0.5891	-0.078
Mof_C 	C 	0.383	0.8863	0.5573	0.027
Mof_H 	H 	0.3748	0.8815	0.5158	0.056
Mof_C 	C 	0.42	0.8563	0.5862	-0.079
Mof_C 	C 	0.432	0.8632	0.647	-0.024
Mof_H 	H 	0.4573	0.8427	0.6668	0.064
Mof_C 	C 	0.0347	0.9377	0.7829	0.007
Mof_C 	C 	0.0584	0.9296	0.7277	-0.017
Mof_C 	C 	0.4224	0.9242	0.7994	0.016
Mof_C 	C 	0.4198	0.9077	0.7414	-0.016
Mof_O 	O 	0.0053	0.7893	0.5919	-0.375
Mof_O 	O 	0.0674	0.7931	0.5168	-0.391
Mof_O 	O 	0.1974	0.9838	0.5789	-0.401
Mof_O 	O 	0.1872	0.9361	0.496	-0.391
Mof_O 	O 	0.308	0.9951	0.5776	-0.374
Mof_O 	O 	0.3025	0.938	0.5062	-0.374
Mof_O 	O 	0.4926	0.8008	0.5752	-0.404
Mof_O 	O 	0.4328	0.8051	0.5	-0.412
Mof_O 	O 	0.8435	0.067	0.0065	-0.156
Mof_O 	O 	0.375	0.928	0.011	-0.153
Mof_Cu	Cu	0.2564	0.46875	0.54606	0.907
Mof_Cu	Cu	0.53831	0.7553	0.54127	0.919
Mof_C 	C 	0.5966	0.4906	0.9678	-0.014
Mof_C 	C 	0.6292	0.4505	0.9582	0.123
Mof_C 	C 	0.6286	0.4275	0.9025	-0.019
Mof_C 	C 	0.5953	0.4446	0.8564	0.014
Mof_C 	C 	0.5627	0.4846	0.8659	-0.009
Mof_C 	C 	0.5634	0.5076	0.9216	0.014
Mof_C 	C 	0.532	0.5489	0.9326	0.006
Mof_C 	C 	0.4998	0.5685	0.8872	0.006
Mof_C 	C 	0.4966	0.5447	0.8329	-0.005
Mof_C 	C 	0.5287	0.5044	0.8213	0.004
Mof_C 	C 	0.0609	0.5165	0.9726	-0.019
Mof_C 	C 	0.095	0.5556	0.9638	0.116
Mof_C 	C 	0.098	0.5772	0.9073	-0.004
Mof_C 	C 	0.0669	0.5596	0.8596	-0.064
Mof_C 	C 	0.0329	0.5204	0.8685	-0.085
Mof_C 	C 	0.0299	0.4989	0.925	0.062
Mof_C 	C 	0.0074	0.5376	0.9372	-0.043
Mof_C 	C 	0.0405	0.5564	0.892	0.075
Mof_C 	C 	0.0357	0.537	0.8339	0.077
Mof_C 	C 	0.4229	0.5886	0.6712	0.032
Mof_C 	C 	0.3821	0.565	0.6395	-0.039
Mof_H 	H 	0.3665	0.5365	0.6553	0.068
Mof_C 	C 	0.3639	0.5831	0.5845	-0.062
Mof_C 	C 	0.3867	0.6248	0.5613	0.013
Mof_H 	H 	0.3743	0.6372	0.5237	0.056
Mof_C 	C 	0.4275	0.6485	0.5931	-0.064
Mof_C 	C 	0.4457	0.6304	0.6481	-0.037
Mof_H 	H 	0.4736	0.6465	0.6698	0.066
Mof_C 	C 	0.4538	0.691	0.5663	0.32
Mof_C 	C 	0.3234	0.5537	0.5525	0.312
Mof_C 	C 	0.1793	0.5461	0.5567	0.334
Mof_C 	C 	0.0503	0.6811	0.5526	0.353
Mof_C 	C 	0.0928	0.5998	0.6787	0.024
Mof_C 	C 	0.1297	0.5698	0.6498	-0.024
Mof_H 	H 	0.1467	0.5445	0.6715	0.061
Mof_C 	C 	0.1418	0.5767	0.5891	-0.078
Mof_C 	C 	0.117	0.6137	0.5573	0.027
Mof_H 	H 	0.1252	0.6185	0.5158	0.056
Mof_C 	C 	0.08	0.6437	0.5862	-0.079
Mof_C 	C 	0.068	0.6368	0.647	-0.024
Mof_H 	H 	0.0427	0.6573	0.6668	0.064
Mof_C 	C 	0.4653	0.5623	0.7829	0.007
Mof_C 	C 	0.4416	0.5704	0.7277	-0.017
Mof_C 	C 	0.0776	0.5758	0.7994	0.016
Mof_C 	C 	0.0802	0.5923	0.7414	-0.016
Mof_O 	O 	0.4947	0.7107	0.5919	-0.375
Mof_O 	O 	0.4326	0.7069	0.5168	-0.391
Mof_O 	O 	0.3026	0.5162	0.5789	-0.401
Mof_O 	O 	0.3128	0.5639	0.496	-0.391
Mof_O 	O 	0.192	0.5049	0.5776	-0.374
Mof_O 	O 	0.1975	0.562	0.5062	-0.374
Mof_O 	O 	0.0074	0.6992	0.5752	-0.404
Mof_O 	O 	0.0672	0.6949	0.5	-0.412
Mof_O 	O 	0.6565	0.433	0.0065	-0.156
Mof_O 	O 	0.125	0.572	0.011	-0.153
Mof_Cu	Cu	0.7564	0.96875	0.54606	0.907
Mof_Cu	Cu	0.03831	0.2553	0.54127	0.919
Mof_C 	C 	0.0966	0.9906	0.9678	-0.013
Mof_C 	C 	0.1292	0.9505	0.9582	0.123
Mof_C 	C 	0.1286	0.9275	0.9025	-0.019
Mof_C 	C 	0.0953	0.9446	0.8564	0.014
Mof_C 	C 	0.0627	0.9846	0.8659	-0.009
Mof_C 	C 	0.0634	0.0076	0.9216	0.014
Mof_C 	C 	0.032	0.0489	0.9326	0.006
Mof_C 	C 	0.9998	0.0685	0.8872	0.006
Mof_C 	C 	0.9966	0.0447	0.8329	-0.005
Mof_C 	C 	0.0287	0.0044	0.8213	0.004
Mof_C 	C 	0.5609	0.0165	0.9726	-0.019
Mof_C 	C 	0.595	0.0556	0.9638	0.117
Mof_C 	C 	0.598	0.0772	0.9073	-0.004
Mof_C 	C 	0.5669	0.0596	0.8596	-0.062
Mof_C 	C 	0.5329	0.0204	0.8685	-0.083
Mof_C 	C 	0.5299	0.9989	0.925	0.061
Mof_C 	C 	0.5074	0.0376	0.9372	-0.042
Mof_C 	C 	0.5405	0.0564	0.892	0.073
Mof_C 	C 	0.5357	0.037	0.8339	0.075
Mof_C 	C 	0.9229	0.0886	0.6712	0.032
Mof_C 	C 	0.8821	0.065	0.6395	-0.039
Mof_H 	H 	0.8665	0.0365	0.6553	0.068
Mof_C 	C 	0.8639	0.0831	0.5845	-0.062
Mof_C 	C 	0.8867	0.1248	0.5613	0.013
Mof_H 	H 	0.8743	0.1372	0.5237	0.056
Mof_C 	C 	0.9275	0.1485	0.5931	-0.064
Mof_C 	C 	0.9457	0.1304	0.6481	-0.037
Mof_H 	H 	0.9736	0.1465	0.6698	0.066
Mof_C 	C 	0.9538	0.191	0.5663	0.32
Mof_C 	C 	0.8234	0.0537	0.5525	0.312
Mof_C 	C 	0.6793	0.0461	0.5567	0.334
Mof_C 	C 	0.5503	0.1811	0.5526	0.353
Mof_C 	C 	0.5928	0.0998	0.6787	0.024
Mof_C 	C 	0.6297	0.0698	0.6498	-0.024
Mof_H 	H 	0.6467	0.0445	0.6715	0.061
Mof_C 	C 	0.6418	0.0767	0.5891	-0.078
Mof_C 	C 	0.617	0.1137	0.5573	0.027
Mof_H 	H 	0.6252	0.1185	0.5158	0.056
Mof_C 	C 	0.58	0.1437	0.5862	-0.079
Mof_C 	C 	0.568	0.1368	0.647	-0.024
Mof_H 	H 	0.5427	0.1573	0.6668	0.064
Mof_C 	C 	0.9653	0.0623	0.7829	0.007
Mof_C 	C 	0.9416	0.0704	0.7277	-0.017
Mof_C 	C 	0.5776	0.0758	0.7994	0.016
Mof_C 	C 	0.5802	0.0923	0.7414	-0.016
Mof_O 	O 	0.9947	0.2107	0.5919	-0.375
Mof_O 	O 	0.9326	0.2069	0.5168	-0.391
Mof_O 	O 	0.8026	0.0162	0.5789	-0.401
Mof_O 	O 	0.8128	0.0639	0.496	-0.391
Mof_O 	O 	0.692	0.0049	0.5776	-0.374
Mof_O 	O 	0.6975	0.062	0.5062	-0.374
Mof_O 	O 	0.5074	0.1992	0.5752	-0.404
Mof_O 	O 	0.5672	0.1949	0.5	-0.412
Mof_O 	O 	0.1565	0.933	0.0065	-0.156
Mof_O 	O 	0.625	0.072	0.011	-0.153
Mof_Cu	Cu	0.2564	0.53125	0.45394	0.907
Mof_Cu	Cu	0.53831	0.2447	0.45873	0.919
Mof_C 	C 	0.5966	0.5094	0.0322	-0.014
Mof_C 	C 	0.6292	0.5495	0.0418	0.123
Mof_C 	C 	0.6286	0.5725	0.0975	-0.019
Mof_C 	C 	0.5953	0.5554	0.1436	0.014
Mof_C 	C 	0.5627	0.5154	0.1341	-0.009
Mof_C 	C 	0.5634	0.4924	0.0784	0.014
Mof_C 	C 	0.532	0.4511	0.0674	0.006
Mof_C 	C 	0.4998	0.4315	0.1128	0.006
Mof_C 	C 	0.4966	0.4553	0.1671	-0.005
Mof_C 	C 	0.5287	0.4956	0.1787	0.004
Mof_C 	C 	0.0609	0.4835	0.0274	-0.019
Mof_C 	C 	0.095	0.4444	0.0362	0.116
Mof_C 	C 	0.098	0.4228	0.0927	-0.004
Mof_C 	C 	0.0669	0.4404	0.1404	-0.064
Mof_C 	C 	0.0329	0.4796	0.1315	-0.085
Mof_C 	C 	0.0299	0.5011	0.075	0.062
Mof_C 	C 	0.0074	0.4624	0.0628	-0.043
Mof_C 	C 	0.0405	0.4436	0.108	0.075
Mof_C 	C 	0.0357	0.463	0.1661	0.077
Mof_C 	C 	0.4229	0.4114	0.3288	0.032
Mof_C 	C 	0.3821	0.435	0.3605	-0.039
Mof_H 	H 	0.3665	0.4635	0.3447	0.068
Mof_C 	C 	0.3639	0.4169	0.4155	-0.062
Mof_C 	C 	0.3867	0.3752	0.4387	0.013
Mof_H 	H 	0.3743	0.3628	0.4763	0.056
Mof_C 	C 	0.4275	0.3515	0.4069	-0.064
Mof_C 	C 	0.4457	0.3696	0.3519	-0.037
Mof_H 	H 	0.4736	0.3535	0.3302	0.066
Mof_C 	C 	0.4538	0.309	0.4337	0.32
Mof_C 	C 	0.3234	0.4463	0.4475	0.312
Mof_C 	C 	0.1793	0.4539	0.4433	0.334
Mof_C 	C 	0.0503	0.3189	0.4474	0.353
Mof_C 	C 	0.0928	0.4002	0.3213	0.024
Mof_C 	C 	0.1297	0.4302	0.3502	-0.024
Mof_H 	H 	0.1467	0.4555	0.3285	0.061
Mof_C 	C 	0.1418	0.4233	0.4109	-0.078
Mof_C 	C 	0.117	0.3863	0.4427	0.027
Mof_H 	H 	0.1252	0.3815	0.4842	0.056
Mof_C 	C 	0.08	0.3563	0.4138	-0.079
Mof_C 	C 	0.068	0.3632	0.353	-0.024
Mof_H 	H 	0.0427	0.3427	0.3332	0.064
Mof_C 	C 	0.4653	0.4377	0.2171	0.007
Mof_C 	C 	0.4416	0.4296	0.2723	-0.017
Mof_C 	C 	0.0776	0.4242	0.2006	0.016
Mof_C 	C 	0.0802	0.4077	0.2586	-0.016
Mof_O 	O 	0.4947	0.2893	0.4081	-0.375
Mof_O 	O 	0.4326	0.2931	0.4832	-0.391
Mof_O 	O 	0.3026	0.4838	0.4211	-0.401
Mof_O 	O 	0.3128	0.4361	0.504	-0.391
Mof_O 	O 	0.192	0.4951	0.4224	-0.374
Mof_O 	O 	0.1975	0.438	0.4938	-0.374
Mof_O 	O 	0.0074	0.3008	0.4248	-0.404
Mof_O 	O 	0.0672	0.3051	0.5	-0.412
Mof_O 	O 	0.6565	0.567	0.9935	-0.156
Mof_O 	O 	0.125	0.428	0.989	-0.153
Mof_Cu	Cu	0.7564	0.03125	0.45394	0.907
Mof_Cu	Cu	0.03831	0.7447	0.45873	0.919
Mof_C 	C 	0.0966	0.0094	0.0322	-0.014
Mof_C 	C 	0.1292	0.0495	0.0418	0.123
Mof_C 	C 	0.1286	0.0725	0.0975	-0.019
Mof_C 	C 	0.0953	0.0554	0.1436	0.015
Mof_C 	C 	0.0627	0.0154	0.1341	-0.009
Mof_C 	C 	0.0634	0.9924	0.0784	0.014
Mof_C 	C 	0.032	0.9511	0.0674	0.006
Mof_C 	C 	0.9998	0.9315	0.1128	0.006
Mof_C 	C 	0.9966	0.9553	0.1671	-0.005
Mof_C 	C 	0.0287	0.9956	0.1787	0.005
Mof_C 	C 	0.5609	0.9835	0.0274	-0.019
Mof_C 	C 	0.595	0.9444	0.0362	0.116
Mof_C 	C 	0.598	0.9228	0.0927	-0.004
Mof_C 	C 	0.5669	0.9404	0.1404	-0.066
Mof_C 	C 	0.5329	0.9796	0.1315	-0.088
Mof_C 	C 	0.5299	0.0011	0.075	0.063
Mof_C 	C 	0.5074	0.9624	0.0628	-0.043
Mof_C 	C 	0.5405	0.9436	0.108	0.077
Mof_C 	C 	0.5357	0.963	0.1661	0.08
Mof_C 	C 	0.9229	0.9114	0.3288	0.032
Mof_C 	C 	0.8821	0.935	0.3605	-0.039
Mof_H 	H 	0.8665	0.9635	0.3447	0.068
Mof_C 	C 	0.8639	0.9169	0.4155	-0.062
Mof_C 	C 	0.8867	0.8752	0.4387	0.013
Mof_H 	H 	0.8743	0.8628	0.4763	0.056
Mof_C 	C 	0.9275	0.8515	0.4069	-0.064
Mof_C 	C 	0.9457	0.8696	0.3519	-0.037
Mof_H 	H 	0.9736	0.8535	0.3302	0.066
Mof_C 	C 	0.9538	0.809	0.4337	0.32
Mof_C 	C 	0.8234	0.9463	0.4475	0.312
Mof_C 	C 	0.6793	0.9539	0.4433	0.334
Mof_C 	C 	0.5503	0.8189	0.4474	0.353
Mof_C 	C 	0.5928	0.9002	0.3213	0.024
Mof_C 	C 	0.6297	0.9302	0.3502	-0.024
Mof_H 	H 	0.6467	0.9555	0.3285	0.061
Mof_C 	C 	0.6418	0.9233	0.4109	-0.078
Mof_C 	C 	0.617	0.8863	0.4427	0.027
Mof_H 	H 	0.6252	0.8815	0.4842	0.056
Mof_C 	C 	0.58	0.8563	0.4138	-0.079
Mof_C 	C 	0.568	0.8632	0.353	-0.024
Mof_H 	H 	0.5427	0.8427	0.3332	0.064
Mof_C 	C 	0.9653	0.9377	0.2171	0.007
Mof_C 	C 	0.9416	0.9296	0.2723	-0.017
Mof_C 	C 	0.5776	0.9242	0.2006	0.016
Mof_C 	C 	0.5802	0.9077	0.2586	-0.016
Mof_O 	O 	0.9947	0.7893	0.4081	-0.375
Mof_O 	O 	0.9326	0.7931	0.4832	-0.391
Mof_O 	O 	0.8026	0.9838	0.4211	-0.401
Mof_O 	O 	0.8128	0.9361	0.504	-0.391
Mof_O 	O 	0.692	0.9951	0.4224	-0.374
Mof_O 	O 	0.6975	0.938	0.4938	-0.374
Mof_O 	O 	0.5074	0.8008	0.4248	-0.404
Mof_O 	O 	0.5672	0.8051	0.5	-0.412
Mof_O 	O 	0.1565	0.067	0.9935	-0.156
Mof_O 	O 	0.625	0.928	0.989	-0.153
Mof_Cu	Cu	0.7436	0.46875	0.45394	0.907
Mof_Cu	Cu	0.46169	0.7553	0.45873	0.919
Mof_C 	C 	0.4034	0.4906	0.0322	-0.014
Mof_C 	C 	0.3708	0.4505	0.0418	0.123
Mof_C 	C 	0.3714	0.4275	0.0975	-0.019
Mof_C 	C 	0.4047	0.4446	0.1436	0.014
Mof_C 	C 	0.4373	0.4846	0.1341	-0.009
Mof_C 	C 	0.4366	0.5076	0.0784	0.014
Mof_C 	C 	0.468	0.5489	0.0674	0.006
Mof_C 	C 	0.5002	0.5685	0.1128	0.006
Mof_C 	C 	0.5034	0.5447	0.1671	-0.005
Mof_C 	C 	0.4713	0.5044	0.1787	0.004
Mof_C 	C 	0.9391	0.5165	0.0274	-0.019
Mof_C 	C 	0.905	0.5556	0.0362	0.116
Mof_C 	C 	0.902	0.5772	0.0927	-0.004
Mof_C 	C 	0.9331	0.5596	0.1404	-0.065
Mof_C 	C 	0.9671	0.5204	0.1315	-0.086
Mof_C 	C 	0.9701	0.4989	0.075	0.062
Mof_C 	C 	0.9926	0.5376	0.0628	-0.043
Mof_C 	C 	0.9595	0.5564	0.108	0.075
Mof_C 	C 	0.9643	0.537	0.1661	0.078
Mof_C 	C 	0.5771	0.5886	0.3288	0.032
Mof_C 	C 	0.6179	0.565	0.3605	-0.039
Mof_H 	H 	0.6335	0.5365	0.3447	0.068
Mof_C 	C 	0.6361	0.5831	0.4155	-0.062
Mof_C 	C 	0.6133	0.6248	0.4387	0.013
Mof_H 	H 	0.6257	0.6372	0.4763	0.056
Mof_C 	C 	0.5725	0.6485	0.4069	-0.064
Mof_C 	C 	0.5543	0.6304	0.3519	-0.037
Mof_H 	H 	0.5264	0.6465	0.3302	0.066
Mof_C 	C 	0.5462	0.691	0.4337	0.32
Mof_C 	C 	0.6766	0.5537	0.4475	0.312
Mof_C 	C 	0.8207	0.5461	0.4433	0.334
Mof_C 	C 	0.9497	0.6811	0.4474	0.353
Mof_C 	C 	0.9072	0.5998	0.3213	0.024
Mof_C 	C 	0.8703	0.5698	0.3502	-0.024
Mof_H 	H 	0.8533	0.5445	0.3285	0.061
Mof_C 	C 	0.8582	0.5767	0.4109	-0.078
Mof_C 	C 	0.883	0.6137	0.4427	0.027
Mof_H 	H 	0.8748	0.6185	0.4842	0.056
Mof_C 	C 	0.92	0.6437	0.4138	-0.079
Mof_C 	C 	0.932	0.6368	0.353	-0.024
Mof_H 	H 	0.9573	0.6573	0.3332	0.064
Mof_C 	C 	0.5347	0.5623	0.2171	0.007
Mof_C 	C 	0.5584	0.5704	0.2723	-0.017
Mof_C 	C 	0.9224	0.5758	0.2006	0.016
Mof_C 	C 	0.9198	0.5923	0.2586	-0.016
Mof_O 	O 	0.5053	0.7107	0.4081	-0.375
Mof_O 	O 	0.5674	0.7069	0.4832	-0.391
Mof_O 	O 	0.6974	0.5162	0.4211	-0.401
Mof_O 	O 	0.6872	0.5639	0.504	-0.391
Mof_O 	O 	0.808	0.5049	0.4224	-0.374
Mof_O 	O 	0.8025	0.562	0.4938	-0.374
Mof_O 	O 	0.9926	0.6992	0.4248	-0.404
Mof_O 	O 	0.9328	0.6949	0.5	-0.412
Mof_O 	O 	0.3435	0.433	0.9935	-0.156
Mof_O 	O 	0.875	0.572	0.989	-0.153
Mof_Cu	Cu	0.2436	0.96875	0.45394	0.907
Mof_Cu	Cu	0.96169	0.2553	0.45873	0.919
Mof_C 	C 	0.9034	0.9906	0.0322	-0.013
Mof_C 	C 	0.8708	0.9505	0.0418	0.123
Mof_C 	C 	0.8714	0.9275	0.0975	-0.019
Mof_C 	C 	0.9047	0.9446	0.1436	0.014
Mof_C 	C 	0.9373	0.9846	0.1341	-0.009
Mof_C 	C 	0.9366	0.0076	0.0784	0.014
Mof_C 	C 	0.968	0.0489	0.0674	0.006
Mof_C 	C 	0.0002	0.0685	0.1128	0.006
Mof_C 	C 	0.0034	0.0447	0.1671	-0.005
Mof_C 	C 	0.9713	0.0044	0.1787	0.004
Mof_C 	C 	0.4391	0.0165	0.0274	-0.019
Mof_C 	C 	0.405	0.0556	0.0362	0.117
Mof_C 	C 	0.402	0.0772	0.0927	-0.004
Mof_C 	C 	0.4331	0.0596	0.1404	-0.062
Mof_C 	C 	0.4671	0.0204	0.1315	-0.083
Mof_C 	C 	0.4701	0.9989	0.075	0.061
Mof_C 	C 	0.4926	0.0376	0.0628	-0.042
Mof_C 	C 	0.4595	0.0564	0.108	0.073
Mof_C 	C 	0.4643	0.037	0.1661	0.075
Mof_C 	C 	0.0771	0.0886	0.3288	0.032
Mof_C 	C 	0.1179	0.065	0.3605	-0.039
Mof_H 	H 	0.1335	0.0365	0.3447	0.068
Mof_C 	C 	0.1361	0.0831	0.4155	-0.062
Mof_C 	C 	0.1133	0.1248	0.4387	0.013
Mof_H 	H 	0.1257	0.1372	0.4763	0.056
Mof_C 	C 	0.0725	0.1485	0.4069	-0.064
Mof_C 	C 	0.0543	0.1304	0.3519	-0.037
Mof_H 	H 	0.0264	0.1465	0.3302	0.066
Mof_C 	C 	0.0462	0.191	0.4337	0.32
Mof_C 	C 	0.1766	0.0537	0.4475	0.312
Mof_C 	C 	0.3207	0.0461	0.4433	0.334
Mof_C 	C 	0.4497	0.1811	0.4474	0.353
Mof_C 	C 	0.4072	0.0998	0.3213	0.024
Mof_C 	C 	0.3703	0.0698	0.3502	-0.024
Mof_H 	H 	0.3533	0.0445	0.3285	0.061
Mof_C 	C 	0.3582	0.0767	0.4109	-0.078
Mof_C 	C 	0.383	0.1137	0.4427	0.027
Mof_H 	H 	0.3748	0.1185	0.4842	0.056
Mof_C 	C 	0.42	0.1437	0.4138	-0.079
Mof_C 	C 	0.432	0.1368	0.353	-0.024
Mof_H 	H 	0.4573	0.1573	0.3332	0.064
Mof_C 	C 	0.0347	0.0623	0.2171	0.007
Mof_C 	C 	0.0584	0.0704	0.2723	-0.017
Mof_C 	C 	0.4224	0.0758	0.2006	0.016
Mof_C 	C 	0.4198	0.0923	0.2586	-0.016
Mof_O 	O 	0.0053	0.2107	0.4081	-0.375
Mof_O 	O 	0.0674	0.2069	0.4832	-0.391
Mof_O 	O 	0.1974	0.0162	0.4211	-0.401
Mof_O 	O 	0.1872	0.0639	0.504	-0.391
Mof_O 	O 	0.308	0.0049	0.4224	-0.374
Mof_O 	O 	0.3025	0.062	0.4938	-0.374
Mof_O 	O 	0.4926	0.1992	0.4248	-0.404
Mof_O 	O 	0.4328	0.1949	0.5	-0.412
Mof_O 	O 	0.8435	0.933	0.9935	-0.156
Mof_O 	O 	0.375	0.072	0.989	-0.153
Mof_C 	C 	-3.8824e-33	0.5	0.8228	-0.001
Mof_C 	C 	0.5	6.66954e-33	0.8228	-0.002
Mof_C 	C 	6.00246e-34	0.5	0.1772	-0.001
Mof_C 	C 	0.5	0	0.1772	-0.002
_end
