data_functionalizedCrystal
_audit_creation_method	'EQeq! by Chris Wilmer'
_symmetry_space_group_name_H-M	'P1'
_symmetry_Int_Tables_number	1
_symmetry_cell_setting	triclinic
loop_
_symmetry_equiv_pos_as_xyz
  x,y,z
_cell_length_a	12.7975
_cell_length_b	10.2182
_cell_length_c	14.8305
_cell_angle_alpha	90
_cell_angle_beta	90
_cell_angle_gamma	90
loop_
_atom_site_label
_atom_site_type_symbol
_atom_site_fract_x
_atom_site_fract_y
_atom_site_fract_z
_atom_site_charge
Mof_Zn	Zn	0.6616	0.49641	0.06242	1.231
Mof_P 	P 	0.43009	0.52847	0.13144	0.443
Mof_H 	H 	0.4018	0.593	0.2043	-0.039
Mof_P 	P 	0.70418	0.21315	0.1515	0.444
Mof_H 	H 	0.7746	0.177	0.2104	-0.038
Mof_O 	O 	0.53785	0.58014	0.10865	-0.467
Mof_O 	O 	0.71788	0.35834	0.13768	-0.447
Mof_O 	O 	0.3491	0.564	0.06068	-0.434
Mof_O 	O 	0.72734	0.13215	0.06693	-0.4
Mof_O 	O 	0.42937	0.3844	0.15436	-0.477
Mof_O 	O 	0.59834	0.175	0.18961	-0.425
Mof_Zn	Zn	0.8384	0.00359	0.56242	1.237
Mof_P 	P 	0.06991	0.97153	0.63144	0.353
Mof_H 	H 	0.0982	0.907	0.7043	-0.046
Mof_P 	P 	0.79582	0.28685	0.6515	0.444
Mof_H 	H 	0.7254	0.323	0.7104	-0.041
Mof_O 	O 	0.96215	0.91986	0.60865	-0.371
Mof_O 	O 	0.78212	0.14166	0.63768	-0.446
Mof_O 	O 	0.1509	0.936	0.56068	-0.432
Mof_O 	O 	0.77266	0.36785	0.56693	-0.39
Mof_O 	O 	0.07063	0.1156	0.65436	-0.502
Mof_O 	O 	0.90166	0.325	0.68961	-0.369
Mof_Zn	Zn	0.3384	0.49641	0.43758	1.231
Mof_P 	P 	0.56991	0.52847	0.36856	0.444
Mof_H 	H 	0.5982	0.593	0.2957	-0.034
Mof_P 	P 	0.29582	0.21315	0.3485	0.443
Mof_H 	H 	0.2254	0.177	0.2896	-0.051
Mof_O 	O 	0.46215	0.58014	0.39135	-0.466
Mof_O 	O 	0.28212	0.35834	0.36232	-0.466
Mof_O 	O 	0.6509	0.564	0.43932	-0.42
Mof_O 	O 	0.27266	0.13215	0.43307	-0.409
Mof_O 	O 	0.57063	0.3844	0.34564	-0.472
Mof_O 	O 	0.40166	0.175	0.31039	-0.425
Mof_Zn	Zn	0.1616	0.00359	0.93758	1.225
Mof_P 	P 	0.93009	0.97153	0.86856	0.54
Mof_H 	H 	0.9018	0.907	0.7957	-0.023
Mof_P 	P 	0.20418	0.28685	0.8485	0.443
Mof_H 	H 	0.2746	0.323	0.7896	-0.047
Mof_O 	O 	0.03785	0.91986	0.89135	-0.557
Mof_O 	O 	0.21788	0.14166	0.86232	-0.466
Mof_O 	O 	0.8491	0.936	0.93932	-0.415
Mof_O 	O 	0.22734	0.36785	0.93307	-0.421
Mof_O 	O 	0.92937	0.1156	0.84564	-0.436
Mof_O 	O 	0.09834	0.325	0.81039	-0.467
Mof_Zn	Zn	0.3384	0.50359	0.93758	1.231
Mof_P 	P 	0.56991	0.47153	0.86856	0.444
Mof_H 	H 	0.5982	0.407	0.7957	-0.034
Mof_P 	P 	0.29582	0.78685	0.8485	0.443
Mof_H 	H 	0.2254	0.823	0.7896	-0.051
Mof_O 	O 	0.46215	0.41986	0.89135	-0.466
Mof_O 	O 	0.28212	0.64166	0.86232	-0.465
Mof_O 	O 	0.6509	0.436	0.93932	-0.418
Mof_O 	O 	0.27266	0.86785	0.93307	-0.406
Mof_O 	O 	0.57063	0.6156	0.84564	-0.471
Mof_O 	O 	0.40166	0.825	0.81039	-0.424
Mof_Zn	Zn	0.1616	0.99641	0.43758	1.227
Mof_P 	P 	0.93009	0.02847	0.36856	0.537
Mof_H 	H 	0.9018	0.093	0.2957	-0.024
Mof_P 	P 	0.20418	0.71315	0.3485	0.443
Mof_H 	H 	0.2746	0.677	0.2896	-0.047
Mof_O 	O 	0.03785	0.08014	0.39135	-0.557
Mof_O 	O 	0.21788	0.85834	0.36232	-0.465
Mof_O 	O 	0.8491	0.064	0.43932	-0.42
Mof_O 	O 	0.22734	0.63215	0.43307	-0.421
Mof_O 	O 	0.92937	0.8844	0.34564	-0.435
Mof_O 	O 	0.09834	0.675	0.31039	-0.466
Mof_Zn	Zn	0.6616	0.50359	0.56242	1.233
Mof_P 	P 	0.43009	0.47153	0.63144	0.444
Mof_H 	H 	0.4018	0.407	0.7043	-0.037
Mof_P 	P 	0.70418	0.78685	0.6515	0.445
Mof_H 	H 	0.7746	0.823	0.7104	-0.037
Mof_O 	O 	0.53785	0.41986	0.60865	-0.465
Mof_O 	O 	0.71788	0.64166	0.63768	-0.446
Mof_O 	O 	0.3491	0.436	0.56068	-0.433
Mof_O 	O 	0.72734	0.86785	0.56693	-0.401
Mof_O 	O 	0.42937	0.6156	0.65436	-0.477
Mof_O 	O 	0.59834	0.825	0.68961	-0.425
Mof_Zn	Zn	0.8384	0.99641	0.06242	1.233
Mof_P 	P 	0.06991	0.02847	0.13144	0.359
Mof_H 	H 	0.0982	0.093	0.2043	-0.046
Mof_P 	P 	0.79582	0.71315	0.1515	0.444
Mof_H 	H 	0.7254	0.677	0.2104	-0.042
Mof_O 	O 	0.96215	0.08014	0.10865	-0.374
Mof_O 	O 	0.78212	0.85834	0.13768	-0.448
Mof_O 	O 	0.1509	0.064	0.06068	-0.43
Mof_O 	O 	0.77266	0.63215	0.06693	-0.393
Mof_O 	O 	0.07063	0.8844	0.15436	-0.505
Mof_O 	O 	0.90166	0.675	0.18961	-0.372
Mof_Zn	Zn	0.5	0.29115	0.25	1.229
Mof_Zn	Zn	-3.24949e-33	0.20885	0.75	1.19
Mof_Zn	Zn	0.5	0.70885	0.75	1.229
Mof_Zn	Zn	1.08487e-32	0.79115	0.25	1.191
_end
