data_functionalizedCrystal
_audit_creation_method	'EQeq! by Chris Wilmer'
_symmetry_space_group_name_H-M	'P1'
_symmetry_Int_Tables_number	1
_symmetry_cell_setting	triclinic
loop_
_symmetry_equiv_pos_as_xyz
  x,y,z
_cell_length_a	20.4666
_cell_length_b	20.4666
_cell_length_c	20.4666
_cell_angle_alpha	90
_cell_angle_beta	90
_cell_angle_gamma	90
loop_
_atom_site_label
_atom_site_type_symbol
_atom_site_fract_x
_atom_site_fract_y
_atom_site_fract_z
_atom_site_charge
Mof_C 	C 	0.3773	0.7615	0.7615	0.492
Mof_C 	C 	0.4407	0.8356	0.8356	0.104
Mof_H 	H 	0.4001	0.8515	0.8515	0.052
Mof_C 	C 	0.4418	0.7878	0.7878	-0.185
Mof_O 	O 	0.3275	0.7826	0.7826	-0.502
Mof_O 	O 	0.3859	0.7179	0.7179	-0.567
Mof_O 	O 	0.4445	0.93163	0.93163	-0.373
Mof_C 	C 	0.6227	0.2385	0.7615	0.493
Mof_C 	C 	0.5593	0.1644	0.8356	0.111
Mof_H 	H 	0.5999	0.1485	0.8515	0.034
Mof_C 	C 	0.5582	0.2122	0.7878	-0.204
Mof_O 	O 	0.6725	0.2174	0.7826	-0.513
Mof_O 	O 	0.6141	0.2821	0.7179	-0.573
Mof_O 	O 	0.5555	0.06837	0.93163	-0.442
Mof_C 	C 	0.6227	0.7615	0.2385	0.493
Mof_C 	C 	0.5593	0.8356	0.1644	0.112
Mof_H 	H 	0.5999	0.8515	0.1485	0.035
Mof_C 	C 	0.5582	0.7878	0.2122	-0.203
Mof_O 	O 	0.6725	0.7826	0.2174	-0.512
Mof_O 	O 	0.6141	0.7179	0.2821	-0.572
Mof_O 	O 	0.5555	0.93163	0.06837	-0.441
Mof_C 	C 	0.3773	0.2385	0.2385	0.495
Mof_C 	C 	0.4407	0.1644	0.1644	0.121
Mof_H 	H 	0.4001	0.1485	0.1485	0.011
Mof_C 	C 	0.4418	0.2122	0.2122	-0.225
Mof_O 	O 	0.3275	0.2174	0.2174	-0.526
Mof_O 	O 	0.3859	0.2821	0.2821	-0.579
Mof_O 	O 	0.4445	0.06837	0.06837	-0.518
Mof_C 	C 	0.7615	0.3773	0.7615	0.493
Mof_C 	C 	0.8356	0.4407	0.8356	0.105
Mof_H 	H 	0.8515	0.4001	0.8515	0.053
Mof_C 	C 	0.7878	0.4418	0.7878	-0.184
Mof_O 	O 	0.7826	0.3275	0.7826	-0.501
Mof_O 	O 	0.7179	0.3859	0.7179	-0.566
Mof_O 	O 	0.93163	0.4445	0.93163	-0.372
Mof_C 	C 	0.7615	0.6227	0.2385	0.494
Mof_C 	C 	0.8356	0.5593	0.1644	0.112
Mof_H 	H 	0.8515	0.5999	0.1485	0.035
Mof_C 	C 	0.7878	0.5582	0.2122	-0.203
Mof_O 	O 	0.7826	0.6725	0.2174	-0.512
Mof_O 	O 	0.7179	0.6141	0.2821	-0.572
Mof_O 	O 	0.93163	0.5555	0.06837	-0.441
Mof_C 	C 	0.2385	0.6227	0.7615	0.494
Mof_C 	C 	0.1644	0.5593	0.8356	0.112
Mof_H 	H 	0.1485	0.5999	0.8515	0.035
Mof_C 	C 	0.2122	0.5582	0.7878	-0.203
Mof_O 	O 	0.2174	0.6725	0.7826	-0.512
Mof_O 	O 	0.2821	0.6141	0.7179	-0.572
Mof_O 	O 	0.06837	0.5555	0.93163	-0.441
Mof_C 	C 	0.2385	0.3773	0.2385	0.495
Mof_C 	C 	0.1644	0.4407	0.1644	0.121
Mof_H 	H 	0.1485	0.4001	0.1485	0.011
Mof_C 	C 	0.2122	0.4418	0.2122	-0.225
Mof_O 	O 	0.2174	0.3275	0.2174	-0.526
Mof_O 	O 	0.2821	0.3859	0.2821	-0.579
Mof_O 	O 	0.06837	0.4445	0.06837	-0.518
Mof_C 	C 	0.7615	0.7615	0.3773	0.493
Mof_C 	C 	0.8356	0.8356	0.4407	0.105
Mof_H 	H 	0.8515	0.8515	0.4001	0.053
Mof_C 	C 	0.7878	0.7878	0.4418	-0.184
Mof_O 	O 	0.7826	0.7826	0.3275	-0.501
Mof_O 	O 	0.7179	0.7179	0.3859	-0.566
Mof_O 	O 	0.93163	0.93163	0.4445	-0.372
Mof_C 	C 	0.2385	0.7615	0.6227	0.494
Mof_C 	C 	0.1644	0.8356	0.5593	0.112
Mof_H 	H 	0.1485	0.8515	0.5999	0.035
Mof_C 	C 	0.2122	0.7878	0.5582	-0.203
Mof_O 	O 	0.2174	0.7826	0.6725	-0.512
Mof_O 	O 	0.2821	0.7179	0.6141	-0.572
Mof_O 	O 	0.06837	0.93163	0.5555	-0.441
Mof_C 	C 	0.7615	0.2385	0.6227	0.494
Mof_C 	C 	0.8356	0.1644	0.5593	0.112
Mof_H 	H 	0.8515	0.1485	0.5999	0.035
Mof_C 	C 	0.7878	0.2122	0.5582	-0.203
Mof_O 	O 	0.7826	0.2174	0.6725	-0.512
Mof_O 	O 	0.7179	0.2821	0.6141	-0.572
Mof_O 	O 	0.93163	0.06837	0.5555	-0.441
Mof_C 	C 	0.2385	0.2385	0.3773	0.495
Mof_C 	C 	0.1644	0.1644	0.4407	0.121
Mof_H 	H 	0.1485	0.1485	0.4001	0.011
Mof_C 	C 	0.2122	0.2122	0.4418	-0.225
Mof_O 	O 	0.2174	0.2174	0.3275	-0.526
Mof_O 	O 	0.2821	0.2821	0.3859	-0.579
Mof_O 	O 	0.06837	0.06837	0.4445	-0.518
Mof_C 	C 	0.7615	0.3773	0.2385	0.494
Mof_C 	C 	0.8356	0.4407	0.1644	0.112
Mof_H 	H 	0.8515	0.4001	0.1485	0.032
Mof_C 	C 	0.7878	0.4418	0.2122	-0.204
Mof_O 	O 	0.7826	0.3275	0.2174	-0.513
Mof_O 	O 	0.7179	0.3859	0.2821	-0.572
Mof_O 	O 	0.93163	0.4445	0.06837	-0.443
Mof_C 	C 	0.2385	0.6227	0.2385	0.494
Mof_C 	C 	0.1644	0.5593	0.1644	0.12
Mof_H 	H 	0.1485	0.5999	0.1485	0.013
Mof_C 	C 	0.2122	0.5582	0.2122	-0.224
Mof_O 	O 	0.2174	0.6725	0.2174	-0.525
Mof_O 	O 	0.2821	0.6141	0.2821	-0.579
Mof_O 	O 	0.06837	0.5555	0.06837	-0.515
Mof_C 	C 	0.7615	0.6227	0.7615	0.493
Mof_C 	C 	0.8356	0.5593	0.8356	0.104
Mof_H 	H 	0.8515	0.5999	0.8515	0.055
Mof_C 	C 	0.7878	0.5582	0.7878	-0.184
Mof_O 	O 	0.7826	0.6725	0.7826	-0.5
Mof_O 	O 	0.7179	0.6141	0.7179	-0.565
Mof_O 	O 	0.93163	0.5555	0.93163	-0.371
Mof_C 	C 	0.2385	0.3773	0.7615	0.494
Mof_C 	C 	0.1644	0.4407	0.8356	0.112
Mof_H 	H 	0.1485	0.4001	0.8515	0.032
Mof_C 	C 	0.2122	0.4418	0.7878	-0.204
Mof_O 	O 	0.2174	0.3275	0.7826	-0.513
Mof_O 	O 	0.2821	0.3859	0.7179	-0.572
Mof_O 	O 	0.06837	0.4445	0.93163	-0.443
Mof_C 	C 	0.3773	0.7615	0.2385	0.494
Mof_C 	C 	0.4407	0.8356	0.1644	0.112
Mof_H 	H 	0.4001	0.8515	0.1485	0.032
Mof_C 	C 	0.4418	0.7878	0.2122	-0.204
Mof_O 	O 	0.3275	0.7826	0.2174	-0.513
Mof_O 	O 	0.3859	0.7179	0.2821	-0.572
Mof_O 	O 	0.4445	0.93163	0.06837	-0.443
Mof_C 	C 	0.6227	0.7615	0.7615	0.493
Mof_C 	C 	0.5593	0.8356	0.8356	0.104
Mof_H 	H 	0.5999	0.8515	0.8515	0.055
Mof_C 	C 	0.5582	0.7878	0.7878	-0.184
Mof_O 	O 	0.6725	0.7826	0.7826	-0.5
Mof_O 	O 	0.6141	0.7179	0.7179	-0.565
Mof_O 	O 	0.5555	0.93163	0.93163	-0.371
Mof_C 	C 	0.6227	0.2385	0.2385	0.494
Mof_C 	C 	0.5593	0.1644	0.1644	0.12
Mof_H 	H 	0.5999	0.1485	0.1485	0.013
Mof_C 	C 	0.5582	0.2122	0.2122	-0.224
Mof_O 	O 	0.6725	0.2174	0.2174	-0.525
Mof_O 	O 	0.6141	0.2821	0.2821	-0.579
Mof_O 	O 	0.5555	0.06837	0.06837	-0.515
Mof_C 	C 	0.3773	0.2385	0.7615	0.494
Mof_C 	C 	0.4407	0.1644	0.8356	0.112
Mof_H 	H 	0.4001	0.1485	0.8515	0.032
Mof_C 	C 	0.4418	0.2122	0.7878	-0.204
Mof_O 	O 	0.3275	0.2174	0.7826	-0.513
Mof_O 	O 	0.3859	0.2821	0.7179	-0.572
Mof_O 	O 	0.4445	0.06837	0.93163	-0.443
Mof_C 	C 	0.7615	0.7615	0.6227	0.493
Mof_C 	C 	0.8356	0.8356	0.5593	0.104
Mof_H 	H 	0.8515	0.8515	0.5999	0.055
Mof_C 	C 	0.7878	0.7878	0.5582	-0.184
Mof_O 	O 	0.7826	0.7826	0.6725	-0.5
Mof_O 	O 	0.7179	0.7179	0.6141	-0.565
Mof_O 	O 	0.93163	0.93163	0.5555	-0.371
Mof_C 	C 	0.7615	0.2385	0.3773	0.494
Mof_C 	C 	0.8356	0.1644	0.4407	0.112
Mof_H 	H 	0.8515	0.1485	0.4001	0.032
Mof_C 	C 	0.7878	0.2122	0.4418	-0.204
Mof_O 	O 	0.7826	0.2174	0.3275	-0.513
Mof_O 	O 	0.7179	0.2821	0.3859	-0.572
Mof_O 	O 	0.93163	0.06837	0.4445	-0.443
Mof_C 	C 	0.2385	0.7615	0.3773	0.494
Mof_C 	C 	0.1644	0.8356	0.4407	0.112
Mof_H 	H 	0.1485	0.8515	0.4001	0.032
Mof_C 	C 	0.2122	0.7878	0.4418	-0.204
Mof_O 	O 	0.2174	0.7826	0.3275	-0.513
Mof_O 	O 	0.2821	0.7179	0.3859	-0.572
Mof_O 	O 	0.06837	0.93163	0.4445	-0.443
Mof_C 	C 	0.2385	0.2385	0.6227	0.494
Mof_C 	C 	0.1644	0.1644	0.5593	0.12
Mof_H 	H 	0.1485	0.1485	0.5999	0.013
Mof_C 	C 	0.2122	0.2122	0.5582	-0.224
Mof_O 	O 	0.2174	0.2174	0.6725	-0.525
Mof_O 	O 	0.2821	0.2821	0.6141	-0.579
Mof_O 	O 	0.06837	0.06837	0.5555	-0.515
Mof_C 	C 	0.5	0.9117	0.9117	0.385
Mof_C 	C 	0.5	0.8608	0.8608	-0.123
Mof_C 	C 	0.5	0.7651	0.7651	0.141
Mof_H 	H 	0.5	0.7323	0.7323	-0.014
Mof_C 	C 	0.5	0.0883	0.9117	0.393
Mof_C 	C 	0.5	0.1392	0.8608	-0.156
Mof_C 	C 	0.5	0.2349	0.7651	0.149
Mof_H 	H 	0.5	0.2677	0.7323	-0.022
Mof_C 	C 	0.5	0.9117	0.0883	0.393
Mof_C 	C 	0.5	0.8608	0.1392	-0.156
Mof_C 	C 	0.5	0.7651	0.2349	0.149
Mof_H 	H 	0.5	0.7323	0.2677	-0.022
Mof_C 	C 	0.5	0.0883	0.0883	0.401
Mof_C 	C 	0.5	0.1392	0.1392	-0.19
Mof_C 	C 	0.5	0.2349	0.2349	0.156
Mof_H 	H 	0.5	0.2677	0.2677	-0.029
Mof_C 	C 	0.9117	0.5	0.9117	0.385
Mof_C 	C 	0.8608	0.5	0.8608	-0.123
Mof_C 	C 	0.7651	0.5	0.7651	0.141
Mof_H 	H 	0.7323	0.5	0.7323	-0.014
Mof_C 	C 	0.9117	0.5	0.0883	0.393
Mof_C 	C 	0.8608	0.5	0.1392	-0.156
Mof_C 	C 	0.7651	0.5	0.2349	0.149
Mof_H 	H 	0.7323	0.5	0.2677	-0.022
Mof_C 	C 	0.0883	0.5	0.9117	0.393
Mof_C 	C 	0.1392	0.5	0.8608	-0.156
Mof_C 	C 	0.2349	0.5	0.7651	0.149
Mof_H 	H 	0.2677	0.5	0.7323	-0.022
Mof_C 	C 	0.0883	0.5	0.0883	0.401
Mof_C 	C 	0.1392	0.5	0.1392	-0.19
Mof_C 	C 	0.2349	0.5	0.2349	0.156
Mof_H 	H 	0.2677	0.5	0.2677	-0.029
Mof_C 	C 	0.9117	0.9117	0.5	0.385
Mof_C 	C 	0.8608	0.8608	0.5	-0.123
Mof_C 	C 	0.7651	0.7651	0.5	0.141
Mof_H 	H 	0.7323	0.7323	0.5	-0.014
Mof_C 	C 	0.0883	0.9117	0.5	0.393
Mof_C 	C 	0.1392	0.8608	0.5	-0.156
Mof_C 	C 	0.2349	0.7651	0.5	0.149
Mof_H 	H 	0.2677	0.7323	0.5	-0.022
Mof_C 	C 	0.9117	0.0883	0.5	0.393
Mof_C 	C 	0.8608	0.1392	0.5	-0.156
Mof_C 	C 	0.7651	0.2349	0.5	0.149
Mof_H 	H 	0.7323	0.2677	0.5	-0.022
Mof_C 	C 	0.0883	0.0883	0.5	0.401
Mof_C 	C 	0.1392	0.1392	0.5	-0.19
Mof_C 	C 	0.2349	0.2349	0.5	0.156
Mof_H 	H 	0.2677	0.2677	0.5	-0.029
Mof_Zn	Zn	0.42623	0	-0	1.141
Mof_Zn	Zn	0.57377	0	-0	1.143
Mof_Zn	Zn	2.94451e-33	0.42623	-0	1.141
Mof_Zn	Zn	-0	0.57377	-0	1.143
Mof_Zn	Zn	1.59811e-33	2.94451e-33	0.42623	1.141
Mof_Zn	Zn	2.15129e-33	0	0.57377	1.143
Mof_N 	N 	0.1782	0.8218	0.8218	-0.014
Mof_Zn	Zn	0.33696	0.66304	0.66304	1.195
Mof_Zn	Zn	0.23581	0.76419	0.76419	1.253
Mof_N 	N 	0.8218	0.1782	0.8218	-0.014
Mof_Zn	Zn	0.66304	0.33696	0.66304	1.195
Mof_Zn	Zn	0.76419	0.23581	0.76419	1.253
Mof_N 	N 	0.8218	0.8218	0.1782	-0.014
Mof_Zn	Zn	0.66304	0.66304	0.33696	1.195
Mof_Zn	Zn	0.76419	0.76419	0.23581	1.253
Mof_N 	N 	0.1782	0.1782	0.1782	-0.023
Mof_Zn	Zn	0.33696	0.33696	0.33696	1.192
Mof_Zn	Zn	0.23581	0.23581	0.23581	1.252
Mof_N 	N 	0.8218	0.1782	0.1782	-0.019
Mof_Zn	Zn	0.66304	0.33696	0.33696	1.194
Mof_Zn	Zn	0.76419	0.23581	0.23581	1.253
Mof_N 	N 	0.1782	0.8218	0.1782	-0.019
Mof_Zn	Zn	0.33696	0.66304	0.33696	1.194
Mof_Zn	Zn	0.23581	0.76419	0.23581	1.253
Mof_N 	N 	0.8218	0.8218	0.8218	-0.01
Mof_Zn	Zn	0.66304	0.66304	0.66304	1.196
Mof_Zn	Zn	0.76419	0.76419	0.76419	1.253
Mof_N 	N 	0.1782	0.1782	0.8218	-0.019
Mof_Zn	Zn	0.33696	0.33696	0.66304	1.194
Mof_Zn	Zn	0.23581	0.23581	0.76419	1.253
Mof_O 	O 	0.2116	0.7884	0.866	-0.161
Mof_O 	O 	0.7884	0.2116	0.866	-0.161
Mof_O 	O 	0.7884	0.7884	0.134	-0.191
Mof_O 	O 	0.2116	0.2116	0.134	-0.225
Mof_O 	O 	0.866	0.2116	0.7884	-0.161
Mof_O 	O 	0.866	0.7884	0.2116	-0.161
Mof_O 	O 	0.134	0.7884	0.7884	-0.191
Mof_O 	O 	0.134	0.2116	0.2116	-0.225
Mof_O 	O 	0.7884	0.866	0.2116	-0.161
Mof_O 	O 	0.2116	0.866	0.7884	-0.161
Mof_O 	O 	0.7884	0.134	0.7884	-0.191
Mof_O 	O 	0.2116	0.134	0.2116	-0.225
Mof_O 	O 	0.7884	0.2116	0.134	-0.208
Mof_O 	O 	0.2116	0.7884	0.134	-0.208
Mof_O 	O 	0.7884	0.7884	0.866	-0.145
Mof_O 	O 	0.2116	0.2116	0.866	-0.178
Mof_O 	O 	0.2116	0.866	0.2116	-0.178
Mof_O 	O 	0.7884	0.866	0.7884	-0.145
Mof_O 	O 	0.7884	0.134	0.2116	-0.208
Mof_O 	O 	0.2116	0.134	0.7884	-0.208
Mof_O 	O 	0.866	0.7884	0.7884	-0.145
Mof_O 	O 	0.866	0.2116	0.2116	-0.178
Mof_O 	O 	0.134	0.7884	0.2116	-0.208
Mof_O 	O 	0.134	0.2116	0.7884	-0.208
_end
