data_functionalizedCrystal
_audit_creation_method	'EQeq! by Chris Wilmer'
_symmetry_space_group_name_H-M	'P1'
_symmetry_Int_Tables_number	1
_symmetry_cell_setting	triclinic
loop_
_symmetry_equiv_pos_as_xyz
  x,y,z
_cell_length_a	10.168
_cell_length_b	18.035
_cell_length_c	27.054
_cell_angle_alpha	90
_cell_angle_beta	99.321
_cell_angle_gamma	90
loop_
_atom_site_label
_atom_site_type_symbol
_atom_site_fract_x
_atom_site_fract_y
_atom_site_fract_z
_atom_site_charge
Mof_Co	Co	0.4693	0.69084	0.30951	1.195
Mof_Co	Co	0.64085	0.76571	0.21691	1.204
Mof_O 	O 	0.355	0.64781	0.35658	-0.4
Mof_O 	O 	0.2418	0.70493	0.2933	-0.356
Mof_O 	O 	0.6549	0.66851	0.33874	-0.462
Mof_O 	O 	0.5626	0.8448	0.25399	-0.486
Mof_C 	C 	0.752	0.6833	0.31815	0.424
Mof_C 	C 	0.2454	0.6676	0.33175	0.316
Mof_O 	O 	0.7483	0.71696	0.27867	-0.472
Mof_C 	C 	0.12	0.6474	0.3502	-0.081
Mof_C 	C 	0.1237	0.6027	0.39145	-0.043
Mof_H 	H 	0.2049	0.5835	0.4069	0.062
Mof_C 	C 	0.5041	0.9971	0.44849	-0.041
Mof_O 	O 	0.4817	0.79715	0.31803	-0.486
Mof_C 	C 	0.8839	0.6571	0.34405	-0.115
Mof_O 	O 	0.5451	0.11749	0.24296	-0.479
Mof_C 	C 	0.5233	0.92265	0.3198	-0.139
Mof_C 	C 	0.8902	0.6143	0.38656	-0.025
Mof_H 	H 	0.8126	0.6045	0.3994	0.059
Mof_C 	C 	0.5194	0.05416	0.31537	-0.137
Mof_C 	C 	0.0808	0.5632	0.50189	0.036
Mof_C 	C 	0.0097	0.54	0.45619	-0.047
Mof_C 	C 	0.9991	0.6739	0.32605	0.032
Mof_H 	H 	0.9956	0.7033	0.2976	0.031
Mof_C 	C 	0.0096	0.5857	0.41031	0.022
Mof_C 	C 	0.5093	0.9939	0.39397	-0.003
Mof_C 	C 	0.5278	0.9871	0.29275	0.07
Mof_H 	H 	0.5366	0.9849	0.2591	0.026
Mof_C 	C 	0.5158	0.92679	0.3699	-0
Mof_H 	H 	0.515	0.8832	0.3882	0.046
Mof_C 	C 	0.5243	0.8489	0.29543	0.432
Mof_C 	C 	0.0691	0.5229	0.5465	0.035
Mof_C 	C 	0.51	0.0583	0.36574	-0.005
Mof_H 	H 	0.504	0.1043	0.3808	0.042
Mof_O 	O 	0.0614	0.889	0.42421	-0.152
Mof_O 	O 	0.3088	0.7111	0.55812	-0.148
Mof_C 	C 	0.6139	0.0242	0.48113	0.036
Mof_O 	O 	0.2858	0.6408	0.63694	-0.157
Mof_C 	C 	0.1605	0.6288	0.50628	-0.137
Mof_H 	H 	0.1654	0.6571	0.4779	0.088
Mof_C 	C 	0.3917	0.9722	0.46628	0.03
Mof_C 	C 	0.1376	0.5508	0.59238	-0.139
Mof_H 	H 	0.1289	0.5266	0.622	0.084
Mof_C 	C 	0.281	0.9431	0.43445	-0.135
Mof_H 	H 	0.2841	0.9393	0.4004	0.082
Mof_C 	C 	0.2281	0.6502	0.55033	0.101
Mof_O 	O 	0.9545	0.0935	0.48449	-0.148
Mof_C 	C 	0.7327	0.0458	0.46473	-0.144
Mof_H 	H 	0.738	0.0418	0.4308	0.091
Mof_O 	O 	0.4837	0.18283	0.30331	-0.498
Mof_C 	C 	0.169	0.9201	0.45175	0.094
Mof_C 	C 	0.215	0.6112	0.59418	0.102
Mof_C 	C 	0.8391	0.0721	0.49601	0.116
Mof_C 	C 	0.3257	0.7527	0.5152	-0.247
Mof_H 	H 	0.3764	0.7243	0.4949	0.113
Mof_H 	H 	0.3722	0.7979	0.5255	0.116
Mof_H 	H 	0.24	0.7642	0.4962	0.118
Mof_C 	C 	0.9695	0.0865	0.4328	-0.246
Mof_H 	H 	0.9084	0.1197	0.413	0.113
Mof_H 	H 	0.0592	0.0998	0.4297	0.114
Mof_H 	H 	0.9521	0.0366	0.4213	0.119
Mof_C 	C 	0.0692	0.8712	0.3729	-0.232
Mof_H 	H 	0.1165	0.9098	0.3588	0.1
Mof_H 	H 	0.9809	0.867	0.3542	0.108
Mof_H 	H 	0.1155	0.825	0.3716	0.111
Mof_C 	C 	0.2748	0.6026	0.6828	-0.237
Mof_H 	H 	0.3164	0.5548	0.6828	0.108
Mof_H 	H 	0.1824	0.5964	0.6854	0.101
Mof_H 	H 	0.3181	0.631	0.7107	0.11
Mof_C 	C 	0.5142	0.1243	0.28512	0.437
Mof_O 	O 	0.8053	0.8062	0.2023	-0.8
Mof_H 	H 	0.806	0.8317	0.1759	0.335
Mof_H 	H 	0.877	0.7997	0.2228	0.351
Mof_O 	O 	0.7778	0.7255	0.1774	-0.438
Mof_H 	H 	0.8335	0.6849	0.192	0.167
Mof_H 	H 	0.7532	0.7232	0.1412	0.152
Mof_Co	Co	0.5307	0.19084	0.19049	1.196
Mof_Co	Co	0.35915	0.26571	0.28309	1.205
Mof_O 	O 	0.645	0.14781	0.14342	-0.399
Mof_O 	O 	0.7582	0.20493	0.2067	-0.354
Mof_O 	O 	0.3451	0.16851	0.16126	-0.461
Mof_O 	O 	0.4374	0.3448	0.24601	-0.485
Mof_C 	C 	0.248	0.1833	0.18185	0.424
Mof_C 	C 	0.7546	0.1676	0.16825	0.316
Mof_O 	O 	0.2517	0.21696	0.22133	-0.472
Mof_C 	C 	0.88	0.1474	0.1498	-0.08
Mof_C 	C 	0.8763	0.1027	0.10855	-0.044
Mof_H 	H 	0.7951	0.0835	0.0931	0.062
Mof_C 	C 	0.4959	0.4971	0.05151	-0.041
Mof_O 	O 	0.5183	0.29715	0.18197	-0.486
Mof_C 	C 	0.1161	0.1571	0.15595	-0.114
Mof_O 	O 	0.4549	0.61749	0.25704	-0.479
Mof_C 	C 	0.4767	0.42265	0.1802	-0.139
Mof_C 	C 	0.1098	0.1143	0.11344	-0.027
Mof_H 	H 	0.1874	0.1045	0.1006	0.06
Mof_C 	C 	0.4806	0.55416	0.18463	-0.137
Mof_C 	C 	0.9192	0.0632	0.99811	0.036
Mof_C 	C 	0.9903	0.04	0.04381	-0.048
Mof_C 	C 	0.0009	0.1739	0.17395	0.031
Mof_H 	H 	0.0044	0.2033	0.2024	0.032
Mof_C 	C 	0.9904	0.0857	0.08969	0.023
Mof_C 	C 	0.4907	0.4939	0.10603	-0.003
Mof_C 	C 	0.4722	0.4871	0.20725	0.07
Mof_H 	H 	0.4634	0.4849	0.2409	0.026
Mof_C 	C 	0.4842	0.42679	0.1301	0
Mof_H 	H 	0.485	0.3832	0.1118	0.046
Mof_C 	C 	0.4757	0.3489	0.20457	0.432
Mof_C 	C 	0.9309	0.0229	0.9535	0.037
Mof_C 	C 	0.49	0.5583	0.13426	-0.005
Mof_H 	H 	0.496	0.6043	0.1192	0.042
Mof_O 	O 	0.9386	0.389	0.07579	-0.151
Mof_O 	O 	0.6912	0.2111	0.94188	-0.149
Mof_C 	C 	0.3861	0.5242	0.01887	0.036
Mof_O 	O 	0.7142	0.1408	0.86306	-0.157
Mof_C 	C 	0.8395	0.1288	0.99372	-0.136
Mof_H 	H 	0.8346	0.1571	0.0221	0.088
Mof_C 	C 	0.6083	0.4722	0.03372	0.03
Mof_C 	C 	0.8624	0.0508	0.90762	-0.14
Mof_H 	H 	0.8711	0.0266	0.878	0.084
Mof_C 	C 	0.719	0.4431	0.06555	-0.135
Mof_H 	H 	0.7159	0.4393	0.0996	0.082
Mof_C 	C 	0.7719	0.1502	0.94967	0.101
Mof_O 	O 	0.0455	0.5935	0.01551	-0.147
Mof_C 	C 	0.2673	0.5458	0.03527	-0.145
Mof_H 	H 	0.262	0.5418	0.0692	0.091
Mof_O 	O 	0.5163	0.68283	0.19669	-0.498
Mof_C 	C 	0.831	0.4201	0.04825	0.093
Mof_C 	C 	0.785	0.1112	0.90582	0.102
Mof_C 	C 	0.1609	0.5721	0.00399	0.116
Mof_C 	C 	0.6743	0.2527	0.9848	-0.245
Mof_H 	H 	0.6236	0.2243	0.0051	0.112
Mof_H 	H 	0.6278	0.2979	0.9745	0.115
Mof_H 	H 	0.76	0.2642	0.0038	0.117
Mof_C 	C 	0.0305	0.5865	0.0672	-0.248
Mof_H 	H 	0.0916	0.6197	0.087	0.114
Mof_H 	H 	0.9408	0.5998	0.0703	0.115
Mof_H 	H 	0.0479	0.5366	0.0787	0.12
Mof_C 	C 	0.9308	0.3712	0.1271	-0.237
Mof_H 	H 	0.8835	0.4098	0.1412	0.101
Mof_H 	H 	0.0191	0.367	0.1458	0.11
Mof_H 	H 	0.8845	0.325	0.1284	0.112
Mof_C 	C 	0.7252	0.1026	0.8172	-0.238
Mof_H 	H 	0.6836	0.0548	0.8172	0.109
Mof_H 	H 	0.8176	0.0964	0.8146	0.102
Mof_H 	H 	0.6819	0.131	0.7893	0.111
Mof_C 	C 	0.4858	0.6243	0.21488	0.437
Mof_O 	O 	0.1947	0.3062	0.2977	-0.801
Mof_H 	H 	0.194	0.3317	0.3241	0.336
Mof_H 	H 	0.123	0.2997	0.2772	0.351
Mof_O 	O 	0.2222	0.2255	0.3226	-0.438
Mof_H 	H 	0.1665	0.1849	0.308	0.167
Mof_H 	H 	0.2468	0.2232	0.3588	0.152
Mof_Co	Co	0.5307	0.30916	0.69049	1.196
Mof_Co	Co	0.35915	0.23429	0.78309	1.205
Mof_O 	O 	0.645	0.35219	0.64342	-0.399
Mof_O 	O 	0.7582	0.29507	0.7067	-0.355
Mof_O 	O 	0.3451	0.33149	0.66126	-0.461
Mof_O 	O 	0.4374	0.1552	0.74601	-0.485
Mof_C 	C 	0.248	0.3167	0.68185	0.424
Mof_C 	C 	0.7546	0.3324	0.66825	0.316
Mof_O 	O 	0.2517	0.28304	0.72133	-0.472
Mof_C 	C 	0.88	0.3526	0.6498	-0.081
Mof_C 	C 	0.8763	0.3973	0.60855	-0.043
Mof_H 	H 	0.7951	0.4165	0.5931	0.062
Mof_C 	C 	0.4959	0.0029	0.55151	-0.041
Mof_O 	O 	0.5183	0.20285	0.68197	-0.486
Mof_C 	C 	0.1161	0.3429	0.65595	-0.115
Mof_O 	O 	0.4549	0.88251	0.75704	-0.479
Mof_C 	C 	0.4767	0.07735	0.6802	-0.139
Mof_C 	C 	0.1098	0.3857	0.61344	-0.025
Mof_H 	H 	0.1874	0.3955	0.6006	0.059
Mof_C 	C 	0.4806	0.94584	0.68463	-0.137
Mof_C 	C 	0.9192	0.4368	0.49811	0.036
Mof_C 	C 	0.9903	0.46	0.54381	-0.047
Mof_C 	C 	0.0009	0.3261	0.67395	0.032
Mof_H 	H 	0.0044	0.2967	0.7024	0.031
Mof_C 	C 	0.9904	0.4143	0.58969	0.022
Mof_C 	C 	0.4907	0.0061	0.60603	-0.003
Mof_C 	C 	0.4722	0.0129	0.70725	0.07
Mof_H 	H 	0.4634	0.0151	0.7409	0.026
Mof_C 	C 	0.4842	0.07321	0.6301	-0
Mof_H 	H 	0.485	0.1168	0.6118	0.046
Mof_C 	C 	0.4757	0.1511	0.70457	0.432
Mof_C 	C 	0.9309	0.4771	0.4535	0.035
Mof_C 	C 	0.49	0.9417	0.63426	-0.005
Mof_H 	H 	0.496	0.8957	0.6192	0.042
Mof_O 	O 	0.9386	0.111	0.57579	-0.152
Mof_O 	O 	0.6912	0.2889	0.44188	-0.148
Mof_C 	C 	0.3861	0.9758	0.51887	0.036
Mof_O 	O 	0.7142	0.3592	0.36306	-0.157
Mof_C 	C 	0.8395	0.3712	0.49372	-0.137
Mof_H 	H 	0.8346	0.3429	0.5221	0.088
Mof_C 	C 	0.6083	0.0278	0.53372	0.03
Mof_C 	C 	0.8624	0.4492	0.40762	-0.139
Mof_H 	H 	0.8711	0.4734	0.378	0.084
Mof_C 	C 	0.719	0.0569	0.56555	-0.135
Mof_H 	H 	0.7159	0.0607	0.5996	0.082
Mof_C 	C 	0.7719	0.3498	0.44967	0.101
Mof_O 	O 	0.0455	0.9065	0.51551	-0.148
Mof_C 	C 	0.2673	0.9542	0.53527	-0.144
Mof_H 	H 	0.262	0.9582	0.5692	0.091
Mof_O 	O 	0.5163	0.81717	0.69669	-0.498
Mof_C 	C 	0.831	0.0799	0.54825	0.094
Mof_C 	C 	0.785	0.3888	0.40582	0.102
Mof_C 	C 	0.1609	0.9279	0.50399	0.116
Mof_C 	C 	0.6743	0.2473	0.4848	-0.247
Mof_H 	H 	0.6236	0.2757	0.5051	0.113
Mof_H 	H 	0.6278	0.2021	0.4745	0.116
Mof_H 	H 	0.76	0.2358	0.5038	0.118
Mof_C 	C 	0.0305	0.9135	0.5672	-0.246
Mof_H 	H 	0.0916	0.8803	0.587	0.113
Mof_H 	H 	0.9408	0.9002	0.5703	0.114
Mof_H 	H 	0.0479	0.9634	0.5787	0.119
Mof_C 	C 	0.9308	0.1288	0.6271	-0.232
Mof_H 	H 	0.8835	0.0902	0.6412	0.1
Mof_H 	H 	0.0191	0.133	0.6458	0.108
Mof_H 	H 	0.8845	0.175	0.6284	0.111
Mof_C 	C 	0.7252	0.3974	0.3172	-0.237
Mof_H 	H 	0.6836	0.4452	0.3172	0.108
Mof_H 	H 	0.8176	0.4036	0.3146	0.101
Mof_H 	H 	0.6819	0.369	0.2893	0.11
Mof_C 	C 	0.4858	0.8757	0.71488	0.437
Mof_O 	O 	0.1947	0.1938	0.7977	-0.8
Mof_H 	H 	0.194	0.1683	0.8241	0.335
Mof_H 	H 	0.123	0.2003	0.7772	0.351
Mof_O 	O 	0.2222	0.2745	0.8226	-0.438
Mof_H 	H 	0.1665	0.3151	0.808	0.167
Mof_H 	H 	0.2468	0.2768	0.8588	0.152
Mof_Co	Co	0.4693	0.80916	0.80951	1.196
Mof_Co	Co	0.64085	0.73429	0.71691	1.205
Mof_O 	O 	0.355	0.85219	0.85658	-0.399
Mof_O 	O 	0.2418	0.79507	0.7933	-0.354
Mof_O 	O 	0.6549	0.83149	0.83874	-0.461
Mof_O 	O 	0.5626	0.6552	0.75399	-0.485
Mof_C 	C 	0.752	0.8167	0.81815	0.424
Mof_C 	C 	0.2454	0.8324	0.83175	0.316
Mof_O 	O 	0.7483	0.78304	0.77867	-0.472
Mof_C 	C 	0.12	0.8526	0.8502	-0.08
Mof_C 	C 	0.1237	0.8973	0.89145	-0.044
Mof_H 	H 	0.2049	0.9165	0.9069	0.062
Mof_C 	C 	0.5041	0.5029	0.94849	-0.041
Mof_O 	O 	0.4817	0.70285	0.81803	-0.486
Mof_C 	C 	0.8839	0.8429	0.84405	-0.114
Mof_O 	O 	0.5451	0.38251	0.74296	-0.479
Mof_C 	C 	0.5233	0.57735	0.8198	-0.139
Mof_C 	C 	0.8902	0.8857	0.88656	-0.027
Mof_H 	H 	0.8126	0.8955	0.8994	0.06
Mof_C 	C 	0.5194	0.44584	0.81537	-0.137
Mof_C 	C 	0.0808	0.9368	0.00189	0.036
Mof_C 	C 	0.0097	0.96	0.95619	-0.048
Mof_C 	C 	0.9991	0.8261	0.82605	0.031
Mof_H 	H 	0.9956	0.7967	0.7976	0.032
Mof_C 	C 	0.0096	0.9143	0.91031	0.023
Mof_C 	C 	0.5093	0.5061	0.89397	-0.003
Mof_C 	C 	0.5278	0.5129	0.79275	0.07
Mof_H 	H 	0.5366	0.5151	0.7591	0.026
Mof_C 	C 	0.5158	0.57321	0.8699	0
Mof_H 	H 	0.515	0.6168	0.8882	0.046
Mof_C 	C 	0.5243	0.6511	0.79543	0.432
Mof_C 	C 	0.0691	0.9771	0.0465	0.037
Mof_C 	C 	0.51	0.4417	0.86574	-0.005
Mof_H 	H 	0.504	0.3957	0.8808	0.042
Mof_O 	O 	0.0614	0.611	0.92421	-0.151
Mof_O 	O 	0.3088	0.7889	0.05812	-0.149
Mof_C 	C 	0.6139	0.4758	0.98113	0.036
Mof_O 	O 	0.2858	0.8592	0.13694	-0.157
Mof_C 	C 	0.1605	0.8712	0.00628	-0.136
Mof_H 	H 	0.1654	0.8429	0.9779	0.088
Mof_C 	C 	0.3917	0.5278	0.96628	0.03
Mof_C 	C 	0.1376	0.9492	0.09238	-0.14
Mof_H 	H 	0.1289	0.9734	0.122	0.084
Mof_C 	C 	0.281	0.5569	0.93445	-0.135
Mof_H 	H 	0.2841	0.5607	0.9004	0.082
Mof_C 	C 	0.2281	0.8498	0.05033	0.101
Mof_O 	O 	0.9545	0.4065	0.98449	-0.147
Mof_C 	C 	0.7327	0.4542	0.96473	-0.145
Mof_H 	H 	0.738	0.4582	0.9308	0.091
Mof_O 	O 	0.4837	0.31717	0.80331	-0.498
Mof_C 	C 	0.169	0.5799	0.95175	0.093
Mof_C 	C 	0.215	0.8888	0.09418	0.102
Mof_C 	C 	0.8391	0.4279	0.99601	0.116
Mof_C 	C 	0.3257	0.7473	0.0152	-0.245
Mof_H 	H 	0.3764	0.7757	0.9949	0.112
Mof_H 	H 	0.3722	0.7021	0.0255	0.115
Mof_H 	H 	0.24	0.7358	0.9962	0.117
Mof_C 	C 	0.9695	0.4135	0.9328	-0.248
Mof_H 	H 	0.9084	0.3803	0.913	0.114
Mof_H 	H 	0.0592	0.4002	0.9297	0.115
Mof_H 	H 	0.9521	0.4634	0.9213	0.12
Mof_C 	C 	0.0692	0.6288	0.8729	-0.237
Mof_H 	H 	0.1165	0.5902	0.8588	0.101
Mof_H 	H 	0.9809	0.633	0.8542	0.11
Mof_H 	H 	0.1155	0.675	0.8716	0.112
Mof_C 	C 	0.2748	0.8974	0.1828	-0.238
Mof_H 	H 	0.3164	0.9452	0.1828	0.109
Mof_H 	H 	0.1824	0.9036	0.1854	0.102
Mof_H 	H 	0.3181	0.869	0.2107	0.111
Mof_C 	C 	0.5142	0.3757	0.78512	0.437
Mof_O 	O 	0.8053	0.6938	0.7023	-0.801
Mof_H 	H 	0.806	0.6683	0.6759	0.336
Mof_H 	H 	0.877	0.7003	0.7228	0.351
Mof_O 	O 	0.7778	0.7745	0.6774	-0.438
Mof_H 	H 	0.8335	0.8151	0.692	0.167
Mof_H 	H 	0.7532	0.7768	0.6412	0.152
_end
