data_functionalizedCrystal
_audit_creation_method	'EQeq! by Chris Wilmer'
_symmetry_space_group_name_H-M	'P1'
_symmetry_Int_Tables_number	1
_symmetry_cell_setting	triclinic
loop_
_symmetry_equiv_pos_as_xyz
  x,y,z
_cell_length_a	27.295
_cell_length_b	27.295
_cell_length_c	27.295
_cell_angle_alpha	109.471
_cell_angle_beta	109.471
_cell_angle_gamma	109.471
loop_
_atom_site_label
_atom_site_type_symbol
_atom_site_fract_x
_atom_site_fract_y
_atom_site_fract_z
_atom_site_charge
Mof_Tb	Tb	0.57904	0.08757	0.8167	2.027
Mof_C 	C 	0.6005	0.1419	0.7282	0.479
Mof_C 	C 	0.628	0.2027	0.7327	-0.185
Mof_C 	C 	0.626	0.208	0.682	0.042
Mof_H 	H 	0.6069	0.1727	0.6444	0.012
Mof_C 	C 	0.651	0.2624	0.6864	-0.048
Mof_C 	C 	0.6709	0.3134	0.7459	0.084
Mof_H 	H 	0.6817	0.3519	0.7496	-0.004
Mof_C 	C 	0.6743	0.3084	0.7925	-0.253
Mof_C 	C 	0.6531	0.2552	0.7889	0.144
Mof_H 	H 	0.6545	0.2519	0.8228	-0.026
Mof_C 	C 	0.6955	0.3616	0.8499	0.534
Mof_C 	C 	0.6477	0.2698	0.6331	-0.036
Mof_H 	H 	0.6837	0.3074	0.6471	0.032
Mof_H 	H 	0.6482	0.2361	0.6051	0.028
Mof_C 	C 	0.5498	0.2226	0.5528	0.068
Mof_H 	H 	0.5526	0.1875	0.5379	-0.012
Mof_C 	C 	0.4969	0.2216	0.5219	-0.123
Mof_H 	H 	0.4641	0.1861	0.4862	0.056
Mof_C 	C 	0.4925	0.2738	0.5441	0.059
Mof_C 	C 	0.5476	0.322	0.589	-0.14
Mof_H 	H 	0.5507	0.3602	0.6001	0.06
Mof_C 	C 	0.597	0.3221	0.6187	0.09
Mof_H 	H 	0.6323	0.3584	0.6513	-0.014
Mof_C 	C 	0.4362	0.2707	0.5119	0.028
Mof_C 	C 	0.3809	0.2154	0.4679	-0.11
Mof_H 	H 	0.3789	0.1782	0.4613	0.054
Mof_C 	C 	0.3314	0.2162	0.4358	0.061
Mof_H 	H 	0.2964	0.1791	0.4045	-0.011
Mof_C 	C 	0.3832	0.3226	0.4892	0.042
Mof_H 	H 	0.3829	0.3589	0.4956	-0.008
Mof_C 	C 	0.4385	0.3267	0.5242	-0.1
Mof_H 	H 	0.4741	0.3641	0.5534	0.048
Mof_N 	N 	0.3296	0.2685	0.4465	-0.164
Mof_N 	N 	0.5959	0.2716	0.6023	-0.14
Mof_O 	O 	0.5662	0.0954	0.6764	-0.598
Mof_O 	O 	0.6152	0.1435	0.7791	-0.585
Mof_O 	O 	0.7023	0.3562	0.8949	-0.638
Mof_O 	O 	0.7085	0.4119	0.8518	-0.607
Mof_O 	O 	0.5642	0.0087	0.7339	-1.013
Mof_H 	H 	0.5968	0.0121	0.7353	0.356
Mof_Tb	Tb	0.77088	0.76234	0.6833	2.029
Mof_C 	C 	0.9137	0.8723	0.7718	0.476
Mof_C 	C 	0.97	0.8953	0.7673	-0.159
Mof_C 	C 	0.026	0.944	0.818	0.002
Mof_H 	H 	0.0283	0.9625	0.8556	0.027
Mof_C 	C 	0.076	0.9646	0.8136	-0.008
Mof_C 	C 	0.0675	0.925	0.7541	0.07
Mof_H 	H 	0.1023	0.9321	0.7504	0.005
Mof_C 	C 	0.0159	0.8818	0.7075	-0.257
Mof_C 	C 	0.9663	0.8642	0.7111	0.154
Mof_H 	H 	0.9291	0.8317	0.6772	-0.026
Mof_C 	C 	0.0117	0.8456	0.6501	0.511
Mof_C 	C 	0.1367	0.0146	0.8669	-0.087
Mof_H 	H 	0.1603	0.0366	0.8529	0.043
Mof_H 	H 	0.131	0.0431	0.8949	0.041
Mof_C 	C 	0.1698	0.997	0.9472	0.085
Mof_H 	H 	0.1496	0.0147	0.9621	-0.026
Mof_C 	C 	0.1997	0.975	0.9781	-0.088
Mof_H 	H 	0.1999	0.9779	0.0138	0.039
Mof_C 	C 	0.2297	0.9484	0.9559	0.046
Mof_C 	C 	0.233	0.9586	0.911	-0.124
Mof_H 	H 	0.2601	0.9506	0.8999	0.061
Mof_C 	C 	0.2034	0.9783	0.8813	0.083
Mof_H 	H 	0.2071	0.981	0.8487	-0.006
Mof_C 	C 	0.2588	0.9243	0.9881	0.056
Mof_C 	C 	0.2475	0.913	0.0321	-0.137
Mof_H 	H 	0.2169	0.9176	0.0387	0.062
Mof_C 	C 	0.2804	0.8956	0.0642	0.072
Mof_H 	H 	0.2746	0.8919	0.0955	-0.013
Mof_C 	C 	0.3334	0.894	0.0108	0.024
Mof_H 	H 	0.3633	0.8873	0.0044	-0.004
Mof_C 	C 	0.3025	0.9143	0.9758	-0.082
Mof_H 	H 	0.3107	0.9207	0.9466	0.049
Mof_N 	N 	0.322	0.8831	0.0535	-0.163
Mof_N 	N 	0.1693	0.9936	0.8977	-0.126
Mof_O 	O 	0.919	0.8898	0.8236	-0.597
Mof_O 	O 	0.8644	0.8361	0.7209	-0.586
Mof_O 	O 	0.9613	0.8074	0.6051	-0.618
Mof_O 	O 	0.0601	0.8567	0.6482	-0.6
Mof_O 	O 	0.7748	0.8303	0.7661	-1.011
Mof_H 	H 	0.7768	0.8615	0.7647	0.359
Mof_Tb	Tb	0.72912	0.41243	0.99147	2.081
Mof_C 	C 	0.5863	0.3581	0.9586	0.482
Mof_C 	C 	0.53	0.2973	0.9253	-0.18
Mof_C 	C 	0.474	0.292	0.918	0.042
Mof_H 	H 	0.4717	0.3273	0.9342	0.018
Mof_C 	C 	0.424	0.2376	0.8886	-0.042
Mof_C 	C 	0.4325	0.1866	0.8575	0.085
Mof_H 	H 	0.3977	0.1481	0.8298	-0.004
Mof_C 	C 	0.4841	0.1916	0.8659	-0.251
Mof_C 	C 	0.5337	0.2448	0.8979	0.145
Mof_H 	H 	0.5709	0.2481	0.9026	-0.024
Mof_C 	C 	0.4883	0.1384	0.8339	0.534
Mof_C 	C 	0.3633	0.2302	0.8779	-0.039
Mof_H 	H 	0.3397	0.1926	0.8763	0.036
Mof_H 	H 	0.369	0.2639	0.9121	0.035
Mof_C 	C 	0.3302	0.2774	0.8272	0.068
Mof_H 	H 	0.3504	0.3125	0.8651	-0.008
Mof_C 	C 	0.3003	0.2784	0.7753	-0.121
Mof_H 	H 	0.3001	0.3139	0.778	0.058
Mof_C 	C 	0.2703	0.2262	0.7187	0.06
Mof_C 	C 	0.267	0.178	0.7256	-0.138
Mof_H 	H 	0.2399	0.1398	0.6905	0.059
Mof_C 	C 	0.2966	0.1779	0.7749	0.089
Mof_H 	H 	0.2929	0.1416	0.7739	-0.016
Mof_C 	C 	0.2412	0.2293	0.6655	0.028
Mof_C 	C 	0.2525	0.2846	0.6655	-0.11
Mof_H 	H 	0.2831	0.3218	0.7007	0.055
Mof_C 	C 	0.2196	0.2838	0.6152	0.061
Mof_H 	H 	0.2254	0.3209	0.6173	-0.011
Mof_C 	C 	0.1666	0.1774	0.5606	0.042
Mof_H 	H 	0.1367	0.1411	0.524	-0.008
Mof_C 	C 	0.1975	0.1733	0.6118	-0.1
Mof_H 	H 	0.1893	0.1359	0.61	0.046
Mof_N 	N 	0.178	0.2315	0.5611	-0.163
Mof_N 	N 	0.3307	0.2284	0.8243	-0.139
Mof_O 	O 	0.581	0.4046	0.9708	-0.588
Mof_O 	O 	0.6356	0.3565	0.9717	-0.586
Mof_O 	O 	0.5387	0.1438	0.8461	-0.634
Mof_O 	O 	0.4399	0.0881	0.7966	-0.616
Mof_O 	O 	0.7252	0.4913	0.0555	-1.015
Mof_H 	H 	0.7232	0.4879	0.0847	0.359
Mof_Tb	Tb	0.92096	0.73766	0.50853	2.055
Mof_C 	C 	0.8995	0.6277	0.5414	0.481
Mof_C 	C 	0.872	0.6047	0.5747	-0.181
Mof_C 	C 	0.874	0.556	0.582	0.042
Mof_H 	H 	0.8931	0.5375	0.5658	0.016
Mof_C 	C 	0.849	0.5354	0.6114	-0.045
Mof_C 	C 	0.8291	0.575	0.6425	0.084
Mof_H 	H 	0.8183	0.5679	0.6702	-0.003
Mof_C 	C 	0.8257	0.6182	0.6341	-0.25
Mof_C 	C 	0.8469	0.6358	0.6021	0.144
Mof_H 	H 	0.8455	0.6683	0.5974	-0.024
Mof_C 	C 	0.8045	0.6544	0.6661	0.531
Mof_C 	C 	0.8523	0.4854	0.6221	-0.035
Mof_H 	H 	0.8163	0.4634	0.6237	0.033
Mof_H 	H 	0.8518	0.4569	0.5879	0.03
Mof_C 	C 	0.9502	0.503	0.6728	0.094
Mof_H 	H 	0.9474	0.4853	0.6349	-0.014
Mof_C 	C 	0.0031	0.525	0.7247	-0.145
Mof_H 	H 	0.0359	0.5221	0.722	0.061
Mof_C 	C 	0.0075	0.5516	0.7813	0.041
Mof_C 	C 	0.9524	0.5414	0.7744	-0.109
Mof_H 	H 	0.9493	0.5494	0.8095	0.057
Mof_C 	C 	0.903	0.5217	0.7251	0.079
Mof_H 	H 	0.8677	0.519	0.7261	-0.01
Mof_C 	C 	0.0638	0.5757	0.8345	0.033
Mof_C 	C 	0.1191	0.587	0.8345	-0.113
Mof_H 	H 	0.1211	0.5824	0.7993	0.056
Mof_C 	C 	0.1686	0.6044	0.8848	0.063
Mof_H 	H 	0.2036	0.6081	0.8827	-0.011
Mof_C 	C 	0.1168	0.606	0.9394	0.044
Mof_H 	H 	0.1171	0.6127	0.976	-0.002
Mof_C 	C 	0.0615	0.5857	0.8882	-0.102
Mof_H 	H 	0.0259	0.5793	0.89	0.046
Mof_N 	N 	0.1704	0.6169	0.9389	-0.161
Mof_N 	N 	0.9041	0.5064	0.6757	-0.14
Mof_O 	O 	0.9338	0.6102	0.5292	-0.588
Mof_O 	O 	0.8848	0.6639	0.5283	-0.587
Mof_O 	O 	0.7977	0.6926	0.6539	-0.633
Mof_O 	O 	0.7915	0.6433	0.7034	-0.604
Mof_O 	O 	0.9358	0.6697	0.4445	-1.002
Mof_H 	H 	0.9032	0.6385	0.4153	0.357
Mof_Tb	Tb	0.8167	0.57904	0.08757	2.028
Mof_C 	C 	0.7282	0.6005	0.1419	0.48
Mof_C 	C 	0.7327	0.628	0.2027	-0.184
Mof_C 	C 	0.682	0.626	0.208	0.043
Mof_H 	H 	0.6444	0.6069	0.1727	0.013
Mof_C 	C 	0.6864	0.651	0.2624	-0.047
Mof_C 	C 	0.7459	0.6709	0.3134	0.085
Mof_H 	H 	0.7496	0.6817	0.3519	-0.003
Mof_C 	C 	0.7925	0.6743	0.3084	-0.252
Mof_C 	C 	0.7889	0.6531	0.2552	0.145
Mof_H 	H 	0.8228	0.6545	0.2519	-0.025
Mof_C 	C 	0.8499	0.6955	0.3616	0.535
Mof_C 	C 	0.6331	0.6477	0.2698	-0.035
Mof_H 	H 	0.6471	0.6837	0.3074	0.033
Mof_H 	H 	0.6051	0.6482	0.2361	0.029
Mof_C 	C 	0.5528	0.5498	0.2226	0.069
Mof_H 	H 	0.5379	0.5526	0.1875	-0.011
Mof_C 	C 	0.5219	0.4969	0.2216	-0.122
Mof_H 	H 	0.4862	0.4641	0.1861	0.057
Mof_C 	C 	0.5441	0.4925	0.2738	0.06
Mof_C 	C 	0.589	0.5476	0.322	-0.139
Mof_H 	H 	0.6001	0.5507	0.3602	0.061
Mof_C 	C 	0.6187	0.597	0.3221	0.09
Mof_H 	H 	0.6513	0.6323	0.3584	-0.014
Mof_C 	C 	0.5119	0.4362	0.2707	0.028
Mof_C 	C 	0.4679	0.3809	0.2154	-0.11
Mof_H 	H 	0.4613	0.3789	0.1782	0.054
Mof_C 	C 	0.4358	0.3314	0.2162	0.061
Mof_H 	H 	0.4045	0.2964	0.1791	-0.011
Mof_C 	C 	0.4892	0.3832	0.3226	0.042
Mof_H 	H 	0.4956	0.3829	0.3589	-0.008
Mof_C 	C 	0.5242	0.4385	0.3267	-0.1
Mof_H 	H 	0.5534	0.4741	0.3641	0.048
Mof_N 	N 	0.4465	0.3296	0.2685	-0.164
Mof_N 	N 	0.6023	0.5959	0.2716	-0.14
Mof_O 	O 	0.6764	0.5662	0.0954	-0.598
Mof_O 	O 	0.7791	0.6152	0.1435	-0.585
Mof_O 	O 	0.8949	0.7023	0.3562	-0.638
Mof_O 	O 	0.8518	0.7085	0.4119	-0.607
Mof_O 	O 	0.7339	0.5642	0.0087	-1.013
Mof_H 	H 	0.7353	0.5968	0.0121	0.356
Mof_Tb	Tb	0.6833	0.77088	0.76234	2.029
Mof_C 	C 	0.7718	0.9137	0.8723	0.476
Mof_C 	C 	0.7673	0.97	0.8953	-0.159
Mof_C 	C 	0.818	0.026	0.944	0.002
Mof_H 	H 	0.8556	0.0283	0.9625	0.027
Mof_C 	C 	0.8136	0.076	0.9646	-0.008
Mof_C 	C 	0.7541	0.0675	0.925	0.07
Mof_H 	H 	0.7504	0.1023	0.9321	0.005
Mof_C 	C 	0.7075	0.0159	0.8818	-0.257
Mof_C 	C 	0.7111	0.9663	0.8642	0.154
Mof_H 	H 	0.6772	0.9291	0.8317	-0.026
Mof_C 	C 	0.6501	0.0117	0.8456	0.511
Mof_C 	C 	0.8669	0.1367	0.0146	-0.087
Mof_H 	H 	0.8529	0.1603	0.0366	0.043
Mof_H 	H 	0.8949	0.131	0.0431	0.041
Mof_C 	C 	0.9472	0.1698	0.997	0.085
Mof_H 	H 	0.9621	0.1496	0.0147	-0.026
Mof_C 	C 	0.9781	0.1997	0.975	-0.088
Mof_H 	H 	0.0138	0.1999	0.9779	0.039
Mof_C 	C 	0.9559	0.2297	0.9484	0.046
Mof_C 	C 	0.911	0.233	0.9586	-0.124
Mof_H 	H 	0.8999	0.2601	0.9506	0.061
Mof_C 	C 	0.8813	0.2034	0.9783	0.083
Mof_H 	H 	0.8487	0.2071	0.981	-0.006
Mof_C 	C 	0.9881	0.2588	0.9243	0.056
Mof_C 	C 	0.0321	0.2475	0.913	-0.137
Mof_H 	H 	0.0387	0.2169	0.9176	0.062
Mof_C 	C 	0.0642	0.2804	0.8956	0.072
Mof_H 	H 	0.0955	0.2746	0.8919	-0.013
Mof_C 	C 	0.0108	0.3334	0.894	0.024
Mof_H 	H 	0.0044	0.3633	0.8873	-0.004
Mof_C 	C 	0.9758	0.3025	0.9143	-0.082
Mof_H 	H 	0.9466	0.3107	0.9207	0.049
Mof_N 	N 	0.0535	0.322	0.8831	-0.163
Mof_N 	N 	0.8977	0.1693	0.9936	-0.126
Mof_O 	O 	0.8236	0.919	0.8898	-0.597
Mof_O 	O 	0.7209	0.8644	0.8361	-0.586
Mof_O 	O 	0.6051	0.9613	0.8074	-0.618
Mof_O 	O 	0.6482	0.0601	0.8567	-0.6
Mof_O 	O 	0.7661	0.7748	0.8303	-1.011
Mof_H 	H 	0.7647	0.7768	0.8615	0.359
Mof_Tb	Tb	0.99147	0.72912	0.41243	2.081
Mof_C 	C 	0.9586	0.5863	0.3581	0.482
Mof_C 	C 	0.9253	0.53	0.2973	-0.18
Mof_C 	C 	0.918	0.474	0.292	0.042
Mof_H 	H 	0.9342	0.4717	0.3273	0.018
Mof_C 	C 	0.8886	0.424	0.2376	-0.042
Mof_C 	C 	0.8575	0.4325	0.1866	0.085
Mof_H 	H 	0.8298	0.3977	0.1481	-0.004
Mof_C 	C 	0.8659	0.4841	0.1916	-0.251
Mof_C 	C 	0.8979	0.5337	0.2448	0.145
Mof_H 	H 	0.9026	0.5709	0.2481	-0.024
Mof_C 	C 	0.8339	0.4883	0.1384	0.534
Mof_C 	C 	0.8779	0.3633	0.2302	-0.039
Mof_H 	H 	0.8763	0.3397	0.1926	0.036
Mof_H 	H 	0.9121	0.369	0.2639	0.035
Mof_C 	C 	0.8272	0.3302	0.2774	0.068
Mof_H 	H 	0.8651	0.3504	0.3125	-0.008
Mof_C 	C 	0.7753	0.3003	0.2784	-0.121
Mof_H 	H 	0.778	0.3001	0.3139	0.058
Mof_C 	C 	0.7187	0.2703	0.2262	0.06
Mof_C 	C 	0.7256	0.267	0.178	-0.138
Mof_H 	H 	0.6905	0.2399	0.1398	0.059
Mof_C 	C 	0.7749	0.2966	0.1779	0.089
Mof_H 	H 	0.7739	0.2929	0.1416	-0.016
Mof_C 	C 	0.6655	0.2412	0.2293	0.028
Mof_C 	C 	0.6655	0.2525	0.2846	-0.11
Mof_H 	H 	0.7007	0.2831	0.3218	0.055
Mof_C 	C 	0.6152	0.2196	0.2838	0.061
Mof_H 	H 	0.6173	0.2254	0.3209	-0.011
Mof_C 	C 	0.5606	0.1666	0.1774	0.042
Mof_H 	H 	0.524	0.1367	0.1411	-0.008
Mof_C 	C 	0.6118	0.1975	0.1733	-0.1
Mof_H 	H 	0.61	0.1893	0.1359	0.046
Mof_N 	N 	0.5611	0.178	0.2315	-0.163
Mof_N 	N 	0.8243	0.3307	0.2284	-0.139
Mof_O 	O 	0.9708	0.581	0.4046	-0.588
Mof_O 	O 	0.9717	0.6356	0.3565	-0.586
Mof_O 	O 	0.8461	0.5387	0.1438	-0.634
Mof_O 	O 	0.7966	0.4399	0.0881	-0.616
Mof_O 	O 	0.0555	0.7252	0.4913	-1.015
Mof_H 	H 	0.0847	0.7232	0.4879	0.359
Mof_Tb	Tb	0.50853	0.92096	0.73766	2.055
Mof_C 	C 	0.5414	0.8995	0.6277	0.481
Mof_C 	C 	0.5747	0.872	0.6047	-0.181
Mof_C 	C 	0.582	0.874	0.556	0.042
Mof_H 	H 	0.5658	0.8931	0.5375	0.016
Mof_C 	C 	0.6114	0.849	0.5354	-0.045
Mof_C 	C 	0.6425	0.8291	0.575	0.084
Mof_H 	H 	0.6702	0.8183	0.5679	-0.003
Mof_C 	C 	0.6341	0.8257	0.6182	-0.25
Mof_C 	C 	0.6021	0.8469	0.6358	0.144
Mof_H 	H 	0.5974	0.8455	0.6683	-0.024
Mof_C 	C 	0.6661	0.8045	0.6544	0.531
Mof_C 	C 	0.6221	0.8523	0.4854	-0.035
Mof_H 	H 	0.6237	0.8163	0.4634	0.033
Mof_H 	H 	0.5879	0.8518	0.4569	0.03
Mof_C 	C 	0.6728	0.9502	0.503	0.094
Mof_H 	H 	0.6349	0.9474	0.4853	-0.014
Mof_C 	C 	0.7247	0.0031	0.525	-0.145
Mof_H 	H 	0.722	0.0359	0.5221	0.061
Mof_C 	C 	0.7813	0.0075	0.5516	0.041
Mof_C 	C 	0.7744	0.9524	0.5414	-0.109
Mof_H 	H 	0.8095	0.9493	0.5494	0.057
Mof_C 	C 	0.7251	0.903	0.5217	0.079
Mof_H 	H 	0.7261	0.8677	0.519	-0.01
Mof_C 	C 	0.8345	0.0638	0.5757	0.033
Mof_C 	C 	0.8345	0.1191	0.587	-0.113
Mof_H 	H 	0.7993	0.1211	0.5824	0.056
Mof_C 	C 	0.8848	0.1686	0.6044	0.063
Mof_H 	H 	0.8827	0.2036	0.6081	-0.011
Mof_C 	C 	0.9394	0.1168	0.606	0.044
Mof_H 	H 	0.976	0.1171	0.6127	-0.002
Mof_C 	C 	0.8882	0.0615	0.5857	-0.102
Mof_H 	H 	0.89	0.0259	0.5793	0.046
Mof_N 	N 	0.9389	0.1704	0.6169	-0.161
Mof_N 	N 	0.6757	0.9041	0.5064	-0.14
Mof_O 	O 	0.5292	0.9338	0.6102	-0.588
Mof_O 	O 	0.5283	0.8848	0.6639	-0.587
Mof_O 	O 	0.6539	0.7977	0.6926	-0.633
Mof_O 	O 	0.7034	0.7915	0.6433	-0.604
Mof_O 	O 	0.4445	0.9358	0.6697	-1.002
Mof_H 	H 	0.4153	0.9032	0.6385	0.357
Mof_Tb	Tb	0.08757	0.8167	0.57904	2.028
Mof_C 	C 	0.1419	0.7282	0.6005	0.48
Mof_C 	C 	0.2027	0.7327	0.628	-0.184
Mof_C 	C 	0.208	0.682	0.626	0.043
Mof_H 	H 	0.1727	0.6444	0.6069	0.013
Mof_C 	C 	0.2624	0.6864	0.651	-0.047
Mof_C 	C 	0.3134	0.7459	0.6709	0.085
Mof_H 	H 	0.3519	0.7496	0.6817	-0.003
Mof_C 	C 	0.3084	0.7925	0.6743	-0.252
Mof_C 	C 	0.2552	0.7889	0.6531	0.145
Mof_H 	H 	0.2519	0.8228	0.6545	-0.025
Mof_C 	C 	0.3616	0.8499	0.6955	0.535
Mof_C 	C 	0.2698	0.6331	0.6477	-0.035
Mof_H 	H 	0.3074	0.6471	0.6837	0.033
Mof_H 	H 	0.2361	0.6051	0.6482	0.029
Mof_C 	C 	0.2226	0.5528	0.5498	0.069
Mof_H 	H 	0.1875	0.5379	0.5526	-0.011
Mof_C 	C 	0.2216	0.5219	0.4969	-0.122
Mof_H 	H 	0.1861	0.4862	0.4641	0.057
Mof_C 	C 	0.2738	0.5441	0.4925	0.06
Mof_C 	C 	0.322	0.589	0.5476	-0.139
Mof_H 	H 	0.3602	0.6001	0.5507	0.061
Mof_C 	C 	0.3221	0.6187	0.597	0.09
Mof_H 	H 	0.3584	0.6513	0.6323	-0.014
Mof_C 	C 	0.2707	0.5119	0.4362	0.028
Mof_C 	C 	0.2154	0.4679	0.3809	-0.11
Mof_H 	H 	0.1782	0.4613	0.3789	0.054
Mof_C 	C 	0.2162	0.4358	0.3314	0.061
Mof_H 	H 	0.1791	0.4045	0.2964	-0.011
Mof_C 	C 	0.3226	0.4892	0.3832	0.042
Mof_H 	H 	0.3589	0.4956	0.3829	-0.008
Mof_C 	C 	0.3267	0.5242	0.4385	-0.1
Mof_H 	H 	0.3641	0.5534	0.4741	0.048
Mof_N 	N 	0.2685	0.4465	0.3296	-0.164
Mof_N 	N 	0.2716	0.6023	0.5959	-0.14
Mof_O 	O 	0.0954	0.6764	0.5662	-0.598
Mof_O 	O 	0.1435	0.7791	0.6152	-0.585
Mof_O 	O 	0.3562	0.8949	0.7023	-0.638
Mof_O 	O 	0.4119	0.8518	0.7085	-0.607
Mof_O 	O 	0.0087	0.7339	0.5642	-1.013
Mof_H 	H 	0.0121	0.7353	0.5968	0.356
Mof_Tb	Tb	0.76234	0.6833	0.77088	2.029
Mof_C 	C 	0.8723	0.7718	0.9137	0.476
Mof_C 	C 	0.8953	0.7673	0.97	-0.159
Mof_C 	C 	0.944	0.818	0.026	0.002
Mof_H 	H 	0.9625	0.8556	0.0283	0.027
Mof_C 	C 	0.9646	0.8136	0.076	-0.008
Mof_C 	C 	0.925	0.7541	0.0675	0.07
Mof_H 	H 	0.9321	0.7504	0.1023	0.005
Mof_C 	C 	0.8818	0.7075	0.0159	-0.257
Mof_C 	C 	0.8642	0.7111	0.9663	0.154
Mof_H 	H 	0.8317	0.6772	0.9291	-0.026
Mof_C 	C 	0.8456	0.6501	0.0117	0.511
Mof_C 	C 	0.0146	0.8669	0.1367	-0.087
Mof_H 	H 	0.0366	0.8529	0.1603	0.043
Mof_H 	H 	0.0431	0.8949	0.131	0.041
Mof_C 	C 	0.997	0.9472	0.1698	0.085
Mof_H 	H 	0.0147	0.9621	0.1496	-0.026
Mof_C 	C 	0.975	0.9781	0.1997	-0.088
Mof_H 	H 	0.9779	0.0138	0.1999	0.039
Mof_C 	C 	0.9484	0.9559	0.2297	0.046
Mof_C 	C 	0.9586	0.911	0.233	-0.124
Mof_H 	H 	0.9506	0.8999	0.2601	0.061
Mof_C 	C 	0.9783	0.8813	0.2034	0.083
Mof_H 	H 	0.981	0.8487	0.2071	-0.006
Mof_C 	C 	0.9243	0.9881	0.2588	0.056
Mof_C 	C 	0.913	0.0321	0.2475	-0.137
Mof_H 	H 	0.9176	0.0387	0.2169	0.062
Mof_C 	C 	0.8956	0.0642	0.2804	0.072
Mof_H 	H 	0.8919	0.0955	0.2746	-0.013
Mof_C 	C 	0.894	0.0108	0.3334	0.024
Mof_H 	H 	0.8873	0.0044	0.3633	-0.004
Mof_C 	C 	0.9143	0.9758	0.3025	-0.082
Mof_H 	H 	0.9207	0.9466	0.3107	0.049
Mof_N 	N 	0.8831	0.0535	0.322	-0.163
Mof_N 	N 	0.9936	0.8977	0.1693	-0.126
Mof_O 	O 	0.8898	0.8236	0.919	-0.597
Mof_O 	O 	0.8361	0.7209	0.8644	-0.586
Mof_O 	O 	0.8074	0.6051	0.9613	-0.618
Mof_O 	O 	0.8567	0.6482	0.0601	-0.6
Mof_O 	O 	0.8303	0.7661	0.7748	-1.011
Mof_H 	H 	0.8615	0.7647	0.7768	0.359
Mof_Tb	Tb	0.41243	0.99147	0.72912	2.081
Mof_C 	C 	0.3581	0.9586	0.5863	0.482
Mof_C 	C 	0.2973	0.9253	0.53	-0.18
Mof_C 	C 	0.292	0.918	0.474	0.042
Mof_H 	H 	0.3273	0.9342	0.4717	0.018
Mof_C 	C 	0.2376	0.8886	0.424	-0.042
Mof_C 	C 	0.1866	0.8575	0.4325	0.085
Mof_H 	H 	0.1481	0.8298	0.3977	-0.004
Mof_C 	C 	0.1916	0.8659	0.4841	-0.251
Mof_C 	C 	0.2448	0.8979	0.5337	0.145
Mof_H 	H 	0.2481	0.9026	0.5709	-0.024
Mof_C 	C 	0.1384	0.8339	0.4883	0.534
Mof_C 	C 	0.2302	0.8779	0.3633	-0.039
Mof_H 	H 	0.1926	0.8763	0.3397	0.036
Mof_H 	H 	0.2639	0.9121	0.369	0.035
Mof_C 	C 	0.2774	0.8272	0.3302	0.068
Mof_H 	H 	0.3125	0.8651	0.3504	-0.008
Mof_C 	C 	0.2784	0.7753	0.3003	-0.121
Mof_H 	H 	0.3139	0.778	0.3001	0.058
Mof_C 	C 	0.2262	0.7187	0.2703	0.06
Mof_C 	C 	0.178	0.7256	0.267	-0.138
Mof_H 	H 	0.1398	0.6905	0.2399	0.059
Mof_C 	C 	0.1779	0.7749	0.2966	0.089
Mof_H 	H 	0.1416	0.7739	0.2929	-0.016
Mof_C 	C 	0.2293	0.6655	0.2412	0.028
Mof_C 	C 	0.2846	0.6655	0.2525	-0.11
Mof_H 	H 	0.3218	0.7007	0.2831	0.055
Mof_C 	C 	0.2838	0.6152	0.2196	0.061
Mof_H 	H 	0.3209	0.6173	0.2254	-0.011
Mof_C 	C 	0.1774	0.5606	0.1666	0.042
Mof_H 	H 	0.1411	0.524	0.1367	-0.008
Mof_C 	C 	0.1733	0.6118	0.1975	-0.1
Mof_H 	H 	0.1359	0.61	0.1893	0.046
Mof_N 	N 	0.2315	0.5611	0.178	-0.163
Mof_N 	N 	0.2284	0.8243	0.3307	-0.139
Mof_O 	O 	0.4046	0.9708	0.581	-0.588
Mof_O 	O 	0.3565	0.9717	0.6356	-0.586
Mof_O 	O 	0.1438	0.8461	0.5387	-0.634
Mof_O 	O 	0.0881	0.7966	0.4399	-0.616
Mof_O 	O 	0.4913	0.0555	0.7252	-1.015
Mof_H 	H 	0.4879	0.0847	0.7232	0.359
Mof_Tb	Tb	0.73766	0.50853	0.92096	2.055
Mof_C 	C 	0.6277	0.5414	0.8995	0.481
Mof_C 	C 	0.6047	0.5747	0.872	-0.181
Mof_C 	C 	0.556	0.582	0.874	0.042
Mof_H 	H 	0.5375	0.5658	0.8931	0.016
Mof_C 	C 	0.5354	0.6114	0.849	-0.045
Mof_C 	C 	0.575	0.6425	0.8291	0.084
Mof_H 	H 	0.5679	0.6702	0.8183	-0.003
Mof_C 	C 	0.6182	0.6341	0.8257	-0.25
Mof_C 	C 	0.6358	0.6021	0.8469	0.144
Mof_H 	H 	0.6683	0.5974	0.8455	-0.024
Mof_C 	C 	0.6544	0.6661	0.8045	0.531
Mof_C 	C 	0.4854	0.6221	0.8523	-0.035
Mof_H 	H 	0.4634	0.6237	0.8163	0.033
Mof_H 	H 	0.4569	0.5879	0.8518	0.03
Mof_C 	C 	0.503	0.6728	0.9502	0.094
Mof_H 	H 	0.4853	0.6349	0.9474	-0.014
Mof_C 	C 	0.525	0.7247	0.0031	-0.145
Mof_H 	H 	0.5221	0.722	0.0359	0.061
Mof_C 	C 	0.5516	0.7813	0.0075	0.041
Mof_C 	C 	0.5414	0.7744	0.9524	-0.109
Mof_H 	H 	0.5494	0.8095	0.9493	0.057
Mof_C 	C 	0.5217	0.7251	0.903	0.079
Mof_H 	H 	0.519	0.7261	0.8677	-0.01
Mof_C 	C 	0.5757	0.8345	0.0638	0.033
Mof_C 	C 	0.587	0.8345	0.1191	-0.113
Mof_H 	H 	0.5824	0.7993	0.1211	0.056
Mof_C 	C 	0.6044	0.8848	0.1686	0.063
Mof_H 	H 	0.6081	0.8827	0.2036	-0.011
Mof_C 	C 	0.606	0.9394	0.1168	0.044
Mof_H 	H 	0.6127	0.976	0.1171	-0.002
Mof_C 	C 	0.5857	0.8882	0.0615	-0.102
Mof_H 	H 	0.5793	0.89	0.0259	0.046
Mof_N 	N 	0.6169	0.9389	0.1704	-0.161
Mof_N 	N 	0.5064	0.6757	0.9041	-0.14
Mof_O 	O 	0.6102	0.5292	0.9338	-0.588
Mof_O 	O 	0.6639	0.5283	0.8848	-0.587
Mof_O 	O 	0.6926	0.6539	0.7977	-0.633
Mof_O 	O 	0.6433	0.7034	0.7915	-0.604
Mof_O 	O 	0.6697	0.4445	0.9358	-1.002
Mof_H 	H 	0.6385	0.4153	0.9032	0.357
Mof_Tb	Tb	0.5	5.80991e-17	0.64812	2.179
Mof_O 	O 	0.5	5.80991e-17	0.7926	-0.932
Mof_H 	H 	0.5	-5.80991e-17	0.8292	0.128
Mof_Tb	Tb	0.85188	0.85188	0.85188	2.242
Mof_O 	O 	0.7074	0.7074	0.7074	-0.914
Mof_H 	H 	0.6708	0.6708	0.6708	0.129
Mof_Tb	Tb	0.64812	0.5	-0	2.179
Mof_O 	O 	0.7926	0.5	-0	-0.932
Mof_H 	H 	0.8292	0.5	-0	0.128
Mof_Tb	Tb	4.35743e-17	0.64812	0.5	2.179
Mof_O 	O 	4.35743e-17	0.7926	0.5	-0.932
Mof_H 	H 	7.26238e-17	0.8292	0.5	0.128
Mof_Tb	Tb	0.58757	0.07904	0.3167	2.016
Mof_C 	C 	0.6419	0.1005	0.2282	0.478
Mof_C 	C 	0.7027	0.128	0.2327	-0.185
Mof_C 	C 	0.708	0.126	0.182	0.042
Mof_H 	H 	0.6727	0.1069	0.1444	0.011
Mof_C 	C 	0.7624	0.151	0.1864	-0.047
Mof_C 	C 	0.8134	0.1709	0.2459	0.082
Mof_H 	H 	0.8519	0.1817	0.2496	-0
Mof_C 	C 	0.8084	0.1743	0.2925	-0.249
Mof_C 	C 	0.7552	0.1531	0.2889	0.142
Mof_H 	H 	0.7519	0.1545	0.3228	-0.025
Mof_C 	C 	0.8616	0.1955	0.3499	0.528
Mof_C 	C 	0.7698	0.1477	0.1331	-0.034
Mof_H 	H 	0.8074	0.1837	0.1471	0.033
Mof_H 	H 	0.7361	0.1482	0.1051	0.027
Mof_C 	C 	0.7226	0.0498	0.0528	0.063
Mof_H 	H 	0.6875	0.0526	0.0379	-0.018
Mof_C 	C 	0.7216	0.9969	0.0219	-0.146
Mof_H 	H 	0.6861	0.9641	0.9862	0.081
Mof_C 	C 	0.7738	0.9925	0.0441	0.105
Mof_C 	C 	0.822	0.0476	0.089	-0.189
Mof_H 	H 	0.8602	0.0507	0.1001	0.072
Mof_C 	C 	0.8221	0.097	0.1187	0.112
Mof_H 	H 	0.8584	0.1323	0.1513	-0.021
Mof_C 	C 	0.7707	0.9362	0.0119	-0.004
Mof_C 	C 	0.7154	0.8809	0.9679	-0.077
Mof_H 	H 	0.6782	0.8789	0.9613	0.048
Mof_C 	C 	0.7162	0.8314	0.9358	0.05
Mof_H 	H 	0.6791	0.7964	0.9045	-0.006
Mof_C 	C 	0.8226	0.8832	0.9892	0.06
Mof_H 	H 	0.8589	0.8829	0.9956	-0.007
Mof_C 	C 	0.8267	0.9385	0.0242	-0.108
Mof_H 	H 	0.8641	0.9741	0.0534	0.054
Mof_N 	N 	0.7685	0.8296	0.9465	-0.162
Mof_N 	N 	0.7716	0.0959	0.1023	-0.146
Mof_O 	O 	0.5954	0.0662	0.1764	-0.601
Mof_O 	O 	0.6435	0.1152	0.2791	-0.586
Mof_O 	O 	0.8562	0.2023	0.3949	-0.633
Mof_O 	O 	0.9119	0.2085	0.3518	-0.592
Mof_O 	O 	0.5087	0.0642	0.2339	-1.002
Mof_H 	H 	0.5121	0.0968	0.2353	0.358
Mof_Tb	Tb	0.26234	0.27088	0.1833	2.02
Mof_C 	C 	0.3723	0.4137	0.2718	0.482
Mof_C 	C 	0.3953	0.47	0.2673	-0.184
Mof_C 	C 	0.444	0.526	0.318	0.043
Mof_H 	H 	0.4625	0.5283	0.3556	0.014
Mof_C 	C 	0.4646	0.576	0.3136	-0.046
Mof_C 	C 	0.425	0.5675	0.2541	0.083
Mof_H 	H 	0.4321	0.6023	0.2504	-0.003
Mof_C 	C 	0.3818	0.5159	0.2075	-0.25
Mof_C 	C 	0.3642	0.4663	0.2111	0.143
Mof_H 	H 	0.3317	0.4291	0.1772	-0.025
Mof_C 	C 	0.3456	0.5117	0.1501	0.528
Mof_C 	C 	0.5146	0.6367	0.3669	-0.036
Mof_H 	H 	0.5366	0.6603	0.3529	0.033
Mof_H 	H 	0.5431	0.631	0.3949	0.03
Mof_C 	C 	0.497	0.6698	0.4472	0.069
Mof_H 	H 	0.5147	0.6496	0.4621	-0.011
Mof_C 	C 	0.475	0.6997	0.4781	-0.122
Mof_H 	H 	0.4779	0.6999	0.5138	0.057
Mof_C 	C 	0.4484	0.7297	0.4559	0.06
Mof_C 	C 	0.4586	0.733	0.411	-0.139
Mof_H 	H 	0.4506	0.7601	0.3999	0.062
Mof_C 	C 	0.4783	0.7034	0.3813	0.09
Mof_H 	H 	0.481	0.7071	0.3487	-0.014
Mof_C 	C 	0.4243	0.7588	0.4881	0.028
Mof_C 	C 	0.413	0.7475	0.5321	-0.11
Mof_H 	H 	0.4176	0.7169	0.5387	0.055
Mof_C 	C 	0.3956	0.7804	0.5642	0.061
Mof_H 	H 	0.3919	0.7746	0.5955	-0.011
Mof_C 	C 	0.394	0.8334	0.5108	0.043
Mof_H 	H 	0.3873	0.8633	0.5044	-0.006
Mof_C 	C 	0.4143	0.8025	0.4758	-0.099
Mof_H 	H 	0.4207	0.8107	0.4466	0.049
Mof_N 	N 	0.3831	0.822	0.5535	-0.164
Mof_N 	N 	0.4936	0.6693	0.3977	-0.14
Mof_O 	O 	0.3898	0.419	0.3236	-0.603
Mof_O 	O 	0.3361	0.3644	0.2209	-0.587
Mof_O 	O 	0.3074	0.4613	0.1051	-0.629
Mof_O 	O 	0.3567	0.5601	0.1482	-0.602
Mof_O 	O 	0.3303	0.2748	0.2661	-1.008
Mof_H 	H 	0.3615	0.2768	0.2647	0.359
Mof_Tb	Tb	0.91243	0.22912	0.49147	2.049
Mof_C 	C 	0.8581	0.0863	0.4586	0.482
Mof_C 	C 	0.7973	0.03	0.4253	-0.197
Mof_C 	C 	0.792	0.974	0.418	0.065
Mof_H 	H 	0.8273	0.9717	0.4342	0.014
Mof_C 	C 	0.7376	0.924	0.3886	-0.048
Mof_C 	C 	0.6866	0.9325	0.3575	0.08
Mof_H 	H 	0.6481	0.8977	0.3298	-0.001
Mof_C 	C 	0.6916	0.9841	0.3659	-0.23
Mof_C 	C 	0.7448	0.0337	0.3979	0.12
Mof_H 	H 	0.7481	0.0709	0.4026	-0.019
Mof_C 	C 	0.6384	0.9883	0.3339	0.549
Mof_C 	C 	0.7302	0.8633	0.3779	-0.034
Mof_H 	H 	0.6926	0.8397	0.3763	0.033
Mof_H 	H 	0.7639	0.869	0.4121	0.031
Mof_C 	C 	0.7774	0.8302	0.3272	0.069
Mof_H 	H 	0.8125	0.8504	0.3651	-0.008
Mof_C 	C 	0.7784	0.8003	0.2753	-0.121
Mof_H 	H 	0.8139	0.8001	0.278	0.059
Mof_C 	C 	0.7262	0.7703	0.2187	0.06
Mof_C 	C 	0.678	0.767	0.2256	-0.138
Mof_H 	H 	0.6398	0.7399	0.1905	0.061
Mof_C 	C 	0.6779	0.7966	0.2749	0.09
Mof_H 	H 	0.6416	0.7929	0.2739	-0.014
Mof_C 	C 	0.7293	0.7412	0.1655	0.029
Mof_C 	C 	0.7846	0.7525	0.1655	-0.11
Mof_H 	H 	0.8218	0.7831	0.2007	0.056
Mof_C 	C 	0.7838	0.7196	0.1152	0.06
Mof_H 	H 	0.8209	0.7254	0.1173	-0.011
Mof_C 	C 	0.6774	0.6666	0.0606	0.042
Mof_H 	H 	0.6411	0.6367	0.024	-0.013
Mof_C 	C 	0.6733	0.6975	0.1118	-0.101
Mof_H 	H 	0.6359	0.6893	0.11	0.047
Mof_N 	N 	0.7315	0.678	0.0611	-0.166
Mof_N 	N 	0.7284	0.8307	0.3243	-0.14
Mof_O 	O 	0.9046	0.081	0.4708	-0.594
Mof_O 	O 	0.8565	0.1356	0.4717	-0.589
Mof_O 	O 	0.6438	0.0387	0.3461	-0.65
Mof_O 	O 	0.5881	0.9399	0.2966	-0.607
Mof_O 	O 	0.9913	0.2252	0.5555	-0.991
Mof_H 	H 	0.9879	0.2232	0.5847	0.359
Mof_Tb	Tb	0.23766	0.42096	0.00853	1.987
Mof_C 	C 	0.1277	0.3995	0.0414	0.481
Mof_C 	C 	0.1047	0.372	0.0747	-0.201
Mof_C 	C 	0.056	0.374	0.082	0.063
Mof_H 	H 	0.0375	0.3931	0.0658	-0.002
Mof_C 	C 	0.0354	0.349	0.1114	-0.091
Mof_C 	C 	0.075	0.3291	0.1425	0.103
Mof_H 	H 	0.0679	0.3183	0.1702	-0.013
Mof_C 	C 	0.1182	0.3257	0.1341	-0.269
Mof_C 	C 	0.1358	0.3469	0.1021	0.155
Mof_H 	H 	0.1683	0.3455	0.0974	-0.031
Mof_C 	C 	0.1544	0.3045	0.1661	0.534
Mof_C 	C 	0.9854	0.3523	0.1221	0.021
Mof_H 	H 	0.9634	0.3163	0.1237	0.022
Mof_H 	H 	0.9569	0.3518	0.0879	0.015
Mof_C 	C 	0.003	0.4502	0.1728	0.024
Mof_H 	H 	0.9853	0.4474	0.1349	0.018
Mof_C 	C 	0.025	0.5031	0.2247	-0.102
Mof_H 	H 	0.0221	0.5359	0.222	0.045
Mof_C 	C 	0.0516	0.5075	0.2813	0.048
Mof_C 	C 	0.0414	0.4524	0.2744	-0.134
Mof_H 	H 	0.0494	0.4493	0.3095	0.056
Mof_C 	C 	0.0217	0.403	0.2251	0.084
Mof_H 	H 	0.019	0.3677	0.2261	-0.019
Mof_C 	C 	0.0757	0.5638	0.3345	0.03
Mof_C 	C 	0.087	0.6191	0.3345	-0.114
Mof_H 	H 	0.0824	0.6211	0.2993	0.054
Mof_C 	C 	0.1044	0.6686	0.3848	0.059
Mof_H 	H 	0.1081	0.7036	0.3827	-0.014
Mof_C 	C 	0.106	0.6168	0.4394	0.041
Mof_H 	H 	0.1127	0.6171	0.476	-0.008
Mof_C 	C 	0.0857	0.5615	0.3882	-0.103
Mof_H 	H 	0.0793	0.5259	0.39	0.047
Mof_N 	N 	0.1169	0.6704	0.4389	-0.165
Mof_N 	N 	0.0064	0.4041	0.1757	-0.147
Mof_O 	O 	0.1102	0.4338	0.0292	-0.603
Mof_O 	O 	0.1639	0.3848	0.0283	-0.588
Mof_O 	O 	0.1926	0.2977	0.1539	-0.637
Mof_O 	O 	0.1433	0.2915	0.2034	-0.608
Mof_O 	O 	0.1697	0.4358	0.9445	-0.988
Mof_H 	H 	0.1385	0.4032	0.9153	0.355
Mof_Tb	Tb	0.07904	0.3167	0.58757	2.016
Mof_C 	C 	0.1005	0.2282	0.6419	0.478
Mof_C 	C 	0.128	0.2327	0.7027	-0.185
Mof_C 	C 	0.126	0.182	0.708	0.042
Mof_H 	H 	0.1069	0.1444	0.6727	0.011
Mof_C 	C 	0.151	0.1864	0.7624	-0.047
Mof_C 	C 	0.1709	0.2459	0.8134	0.082
Mof_H 	H 	0.1817	0.2496	0.8519	-0
Mof_C 	C 	0.1743	0.2925	0.8084	-0.249
Mof_C 	C 	0.1531	0.2889	0.7552	0.142
Mof_H 	H 	0.1545	0.3228	0.7519	-0.025
Mof_C 	C 	0.1955	0.3499	0.8616	0.528
Mof_C 	C 	0.1477	0.1331	0.7698	-0.034
Mof_H 	H 	0.1837	0.1471	0.8074	0.033
Mof_H 	H 	0.1482	0.1051	0.7361	0.027
Mof_C 	C 	0.0498	0.0528	0.7226	0.063
Mof_H 	H 	0.0526	0.0379	0.6875	-0.018
Mof_C 	C 	0.9969	0.0219	0.7216	-0.146
Mof_H 	H 	0.9641	0.9862	0.6861	0.081
Mof_C 	C 	0.9925	0.0441	0.7738	0.105
Mof_C 	C 	0.0476	0.089	0.822	-0.189
Mof_H 	H 	0.0507	0.1001	0.8602	0.072
Mof_C 	C 	0.097	0.1187	0.8221	0.112
Mof_H 	H 	0.1323	0.1513	0.8584	-0.021
Mof_C 	C 	0.9362	0.0119	0.7707	-0.004
Mof_C 	C 	0.8809	0.9679	0.7154	-0.077
Mof_H 	H 	0.8789	0.9613	0.6782	0.048
Mof_C 	C 	0.8314	0.9358	0.7162	0.05
Mof_H 	H 	0.7964	0.9045	0.6791	-0.006
Mof_C 	C 	0.8832	0.9892	0.8226	0.06
Mof_H 	H 	0.8829	0.9956	0.8589	-0.007
Mof_C 	C 	0.9385	0.0242	0.8267	-0.108
Mof_H 	H 	0.9741	0.0534	0.8641	0.054
Mof_N 	N 	0.8296	0.9465	0.7685	-0.162
Mof_N 	N 	0.0959	0.1023	0.7716	-0.146
Mof_O 	O 	0.0662	0.1764	0.5954	-0.601
Mof_O 	O 	0.1152	0.2791	0.6435	-0.586
Mof_O 	O 	0.2023	0.3949	0.8562	-0.633
Mof_O 	O 	0.2085	0.3518	0.9119	-0.592
Mof_O 	O 	0.0642	0.2339	0.5087	-1.002
Mof_H 	H 	0.0968	0.2353	0.5121	0.358
Mof_Tb	Tb	0.27088	0.1833	0.26234	2.02
Mof_C 	C 	0.4137	0.2718	0.3723	0.482
Mof_C 	C 	0.47	0.2673	0.3953	-0.184
Mof_C 	C 	0.526	0.318	0.444	0.043
Mof_H 	H 	0.5283	0.3556	0.4625	0.014
Mof_C 	C 	0.576	0.3136	0.4646	-0.046
Mof_C 	C 	0.5675	0.2541	0.425	0.083
Mof_H 	H 	0.6023	0.2504	0.4321	-0.003
Mof_C 	C 	0.5159	0.2075	0.3818	-0.25
Mof_C 	C 	0.4663	0.2111	0.3642	0.143
Mof_H 	H 	0.4291	0.1772	0.3317	-0.025
Mof_C 	C 	0.5117	0.1501	0.3456	0.528
Mof_C 	C 	0.6367	0.3669	0.5146	-0.036
Mof_H 	H 	0.6603	0.3529	0.5366	0.033
Mof_H 	H 	0.631	0.3949	0.5431	0.03
Mof_C 	C 	0.6698	0.4472	0.497	0.069
Mof_H 	H 	0.6496	0.4621	0.5147	-0.011
Mof_C 	C 	0.6997	0.4781	0.475	-0.122
Mof_H 	H 	0.6999	0.5138	0.4779	0.057
Mof_C 	C 	0.7297	0.4559	0.4484	0.06
Mof_C 	C 	0.733	0.411	0.4586	-0.139
Mof_H 	H 	0.7601	0.3999	0.4506	0.062
Mof_C 	C 	0.7034	0.3813	0.4783	0.09
Mof_H 	H 	0.7071	0.3487	0.481	-0.014
Mof_C 	C 	0.7588	0.4881	0.4243	0.028
Mof_C 	C 	0.7475	0.5321	0.413	-0.11
Mof_H 	H 	0.7169	0.5387	0.4176	0.055
Mof_C 	C 	0.7804	0.5642	0.3956	0.061
Mof_H 	H 	0.7746	0.5955	0.3919	-0.011
Mof_C 	C 	0.8334	0.5108	0.394	0.043
Mof_H 	H 	0.8633	0.5044	0.3873	-0.006
Mof_C 	C 	0.8025	0.4758	0.4143	-0.099
Mof_H 	H 	0.8107	0.4466	0.4207	0.049
Mof_N 	N 	0.822	0.5535	0.3831	-0.164
Mof_N 	N 	0.6693	0.3977	0.4936	-0.14
Mof_O 	O 	0.419	0.3236	0.3898	-0.603
Mof_O 	O 	0.3644	0.2209	0.3361	-0.587
Mof_O 	O 	0.4613	0.1051	0.3074	-0.629
Mof_O 	O 	0.5601	0.1482	0.3567	-0.602
Mof_O 	O 	0.2748	0.2661	0.3303	-1.008
Mof_H 	H 	0.2768	0.2647	0.3615	0.359
Mof_Tb	Tb	0.22912	0.49147	0.91243	2.049
Mof_C 	C 	0.0863	0.4586	0.8581	0.482
Mof_C 	C 	0.03	0.4253	0.7973	-0.197
Mof_C 	C 	0.974	0.418	0.792	0.065
Mof_H 	H 	0.9717	0.4342	0.8273	0.014
Mof_C 	C 	0.924	0.3886	0.7376	-0.048
Mof_C 	C 	0.9325	0.3575	0.6866	0.08
Mof_H 	H 	0.8977	0.3298	0.6481	-0.001
Mof_C 	C 	0.9841	0.3659	0.6916	-0.23
Mof_C 	C 	0.0337	0.3979	0.7448	0.12
Mof_H 	H 	0.0709	0.4026	0.7481	-0.019
Mof_C 	C 	0.9883	0.3339	0.6384	0.549
Mof_C 	C 	0.8633	0.3779	0.7302	-0.034
Mof_H 	H 	0.8397	0.3763	0.6926	0.033
Mof_H 	H 	0.869	0.4121	0.7639	0.031
Mof_C 	C 	0.8302	0.3272	0.7774	0.069
Mof_H 	H 	0.8504	0.3651	0.8125	-0.008
Mof_C 	C 	0.8003	0.2753	0.7784	-0.121
Mof_H 	H 	0.8001	0.278	0.8139	0.059
Mof_C 	C 	0.7703	0.2187	0.7262	0.06
Mof_C 	C 	0.767	0.2256	0.678	-0.138
Mof_H 	H 	0.7399	0.1905	0.6398	0.061
Mof_C 	C 	0.7966	0.2749	0.6779	0.09
Mof_H 	H 	0.7929	0.2739	0.6416	-0.014
Mof_C 	C 	0.7412	0.1655	0.7293	0.029
Mof_C 	C 	0.7525	0.1655	0.7846	-0.11
Mof_H 	H 	0.7831	0.2007	0.8218	0.056
Mof_C 	C 	0.7196	0.1152	0.7838	0.06
Mof_H 	H 	0.7254	0.1173	0.8209	-0.011
Mof_C 	C 	0.6666	0.0606	0.6774	0.042
Mof_H 	H 	0.6367	0.024	0.6411	-0.013
Mof_C 	C 	0.6975	0.1118	0.6733	-0.101
Mof_H 	H 	0.6893	0.11	0.6359	0.047
Mof_N 	N 	0.678	0.0611	0.7315	-0.166
Mof_N 	N 	0.8307	0.3243	0.7284	-0.14
Mof_O 	O 	0.081	0.4708	0.9046	-0.594
Mof_O 	O 	0.1356	0.4717	0.8565	-0.589
Mof_O 	O 	0.0387	0.3461	0.6438	-0.65
Mof_O 	O 	0.9399	0.2966	0.5881	-0.607
Mof_O 	O 	0.2252	0.5555	0.9913	-0.991
Mof_H 	H 	0.2232	0.5847	0.9879	0.359
Mof_Tb	Tb	0.42096	0.00853	0.23766	1.987
Mof_C 	C 	0.3995	0.0414	0.1277	0.481
Mof_C 	C 	0.372	0.0747	0.1047	-0.201
Mof_C 	C 	0.374	0.082	0.056	0.063
Mof_H 	H 	0.3931	0.0658	0.0375	-0.002
Mof_C 	C 	0.349	0.1114	0.0354	-0.091
Mof_C 	C 	0.3291	0.1425	0.075	0.103
Mof_H 	H 	0.3183	0.1702	0.0679	-0.013
Mof_C 	C 	0.3257	0.1341	0.1182	-0.269
Mof_C 	C 	0.3469	0.1021	0.1358	0.155
Mof_H 	H 	0.3455	0.0974	0.1683	-0.031
Mof_C 	C 	0.3045	0.1661	0.1544	0.534
Mof_C 	C 	0.3523	0.1221	0.9854	0.021
Mof_H 	H 	0.3163	0.1237	0.9634	0.022
Mof_H 	H 	0.3518	0.0879	0.9569	0.015
Mof_C 	C 	0.4502	0.1728	0.003	0.024
Mof_H 	H 	0.4474	0.1349	0.9853	0.018
Mof_C 	C 	0.5031	0.2247	0.025	-0.102
Mof_H 	H 	0.5359	0.222	0.0221	0.045
Mof_C 	C 	0.5075	0.2813	0.0516	0.048
Mof_C 	C 	0.4524	0.2744	0.0414	-0.134
Mof_H 	H 	0.4493	0.3095	0.0494	0.056
Mof_C 	C 	0.403	0.2251	0.0217	0.084
Mof_H 	H 	0.3677	0.2261	0.019	-0.019
Mof_C 	C 	0.5638	0.3345	0.0757	0.03
Mof_C 	C 	0.6191	0.3345	0.087	-0.114
Mof_H 	H 	0.6211	0.2993	0.0824	0.054
Mof_C 	C 	0.6686	0.3848	0.1044	0.059
Mof_H 	H 	0.7036	0.3827	0.1081	-0.014
Mof_C 	C 	0.6168	0.4394	0.106	0.041
Mof_H 	H 	0.6171	0.476	0.1127	-0.008
Mof_C 	C 	0.5615	0.3882	0.0857	-0.103
Mof_H 	H 	0.5259	0.39	0.0793	0.047
Mof_N 	N 	0.6704	0.4389	0.1169	-0.165
Mof_N 	N 	0.4041	0.1757	0.0064	-0.147
Mof_O 	O 	0.4338	0.0292	0.1102	-0.603
Mof_O 	O 	0.3848	0.0283	0.1639	-0.588
Mof_O 	O 	0.2977	0.1539	0.1926	-0.637
Mof_O 	O 	0.2915	0.2034	0.1433	-0.608
Mof_O 	O 	0.4358	0.9445	0.1697	-0.988
Mof_H 	H 	0.4032	0.9153	0.1385	0.355
Mof_Tb	Tb	0.3167	0.58757	0.07904	2.016
Mof_C 	C 	0.2282	0.6419	0.1005	0.478
Mof_C 	C 	0.2327	0.7027	0.128	-0.185
Mof_C 	C 	0.182	0.708	0.126	0.042
Mof_H 	H 	0.1444	0.6727	0.1069	0.011
Mof_C 	C 	0.1864	0.7624	0.151	-0.047
Mof_C 	C 	0.2459	0.8134	0.1709	0.082
Mof_H 	H 	0.2496	0.8519	0.1817	-0
Mof_C 	C 	0.2925	0.8084	0.1743	-0.249
Mof_C 	C 	0.2889	0.7552	0.1531	0.142
Mof_H 	H 	0.3228	0.7519	0.1545	-0.025
Mof_C 	C 	0.3499	0.8616	0.1955	0.528
Mof_C 	C 	0.1331	0.7698	0.1477	-0.034
Mof_H 	H 	0.1471	0.8074	0.1837	0.033
Mof_H 	H 	0.1051	0.7361	0.1482	0.027
Mof_C 	C 	0.0528	0.7226	0.0498	0.063
Mof_H 	H 	0.0379	0.6875	0.0526	-0.018
Mof_C 	C 	0.0219	0.7216	0.9969	-0.146
Mof_H 	H 	0.9862	0.6861	0.9641	0.081
Mof_C 	C 	0.0441	0.7738	0.9925	0.105
Mof_C 	C 	0.089	0.822	0.0476	-0.189
Mof_H 	H 	0.1001	0.8602	0.0507	0.072
Mof_C 	C 	0.1187	0.8221	0.097	0.112
Mof_H 	H 	0.1513	0.8584	0.1323	-0.021
Mof_C 	C 	0.0119	0.7707	0.9362	-0.004
Mof_C 	C 	0.9679	0.7154	0.8809	-0.077
Mof_H 	H 	0.9613	0.6782	0.8789	0.048
Mof_C 	C 	0.9358	0.7162	0.8314	0.05
Mof_H 	H 	0.9045	0.6791	0.7964	-0.006
Mof_C 	C 	0.9892	0.8226	0.8832	0.06
Mof_H 	H 	0.9956	0.8589	0.8829	-0.007
Mof_C 	C 	0.0242	0.8267	0.9385	-0.108
Mof_H 	H 	0.0534	0.8641	0.9741	0.054
Mof_N 	N 	0.9465	0.7685	0.8296	-0.162
Mof_N 	N 	0.1023	0.7716	0.0959	-0.146
Mof_O 	O 	0.1764	0.5954	0.0662	-0.601
Mof_O 	O 	0.2791	0.6435	0.1152	-0.586
Mof_O 	O 	0.3949	0.8562	0.2023	-0.633
Mof_O 	O 	0.3518	0.9119	0.2085	-0.592
Mof_O 	O 	0.2339	0.5087	0.0642	-1.002
Mof_H 	H 	0.2353	0.5121	0.0968	0.358
Mof_Tb	Tb	0.1833	0.26234	0.27088	2.02
Mof_C 	C 	0.2718	0.3723	0.4137	0.482
Mof_C 	C 	0.2673	0.3953	0.47	-0.184
Mof_C 	C 	0.318	0.444	0.526	0.043
Mof_H 	H 	0.3556	0.4625	0.5283	0.014
Mof_C 	C 	0.3136	0.4646	0.576	-0.046
Mof_C 	C 	0.2541	0.425	0.5675	0.083
Mof_H 	H 	0.2504	0.4321	0.6023	-0.003
Mof_C 	C 	0.2075	0.3818	0.5159	-0.25
Mof_C 	C 	0.2111	0.3642	0.4663	0.143
Mof_H 	H 	0.1772	0.3317	0.4291	-0.025
Mof_C 	C 	0.1501	0.3456	0.5117	0.528
Mof_C 	C 	0.3669	0.5146	0.6367	-0.036
Mof_H 	H 	0.3529	0.5366	0.6603	0.033
Mof_H 	H 	0.3949	0.5431	0.631	0.03
Mof_C 	C 	0.4472	0.497	0.6698	0.069
Mof_H 	H 	0.4621	0.5147	0.6496	-0.011
Mof_C 	C 	0.4781	0.475	0.6997	-0.122
Mof_H 	H 	0.5138	0.4779	0.6999	0.057
Mof_C 	C 	0.4559	0.4484	0.7297	0.06
Mof_C 	C 	0.411	0.4586	0.733	-0.139
Mof_H 	H 	0.3999	0.4506	0.7601	0.062
Mof_C 	C 	0.3813	0.4783	0.7034	0.09
Mof_H 	H 	0.3487	0.481	0.7071	-0.014
Mof_C 	C 	0.4881	0.4243	0.7588	0.028
Mof_C 	C 	0.5321	0.413	0.7475	-0.11
Mof_H 	H 	0.5387	0.4176	0.7169	0.055
Mof_C 	C 	0.5642	0.3956	0.7804	0.061
Mof_H 	H 	0.5955	0.3919	0.7746	-0.011
Mof_C 	C 	0.5108	0.394	0.8334	0.043
Mof_H 	H 	0.5044	0.3873	0.8633	-0.006
Mof_C 	C 	0.4758	0.4143	0.8025	-0.099
Mof_H 	H 	0.4466	0.4207	0.8107	0.049
Mof_N 	N 	0.5535	0.3831	0.822	-0.164
Mof_N 	N 	0.3977	0.4936	0.6693	-0.14
Mof_O 	O 	0.3236	0.3898	0.419	-0.603
Mof_O 	O 	0.2209	0.3361	0.3644	-0.587
Mof_O 	O 	0.1051	0.3074	0.4613	-0.629
Mof_O 	O 	0.1482	0.3567	0.5601	-0.602
Mof_O 	O 	0.2661	0.3303	0.2748	-1.008
Mof_H 	H 	0.2647	0.3615	0.2768	0.359
Mof_Tb	Tb	0.49147	0.91243	0.22912	2.049
Mof_C 	C 	0.4586	0.8581	0.0863	0.482
Mof_C 	C 	0.4253	0.7973	0.03	-0.197
Mof_C 	C 	0.418	0.792	0.974	0.065
Mof_H 	H 	0.4342	0.8273	0.9717	0.014
Mof_C 	C 	0.3886	0.7376	0.924	-0.048
Mof_C 	C 	0.3575	0.6866	0.9325	0.08
Mof_H 	H 	0.3298	0.6481	0.8977	-0.001
Mof_C 	C 	0.3659	0.6916	0.9841	-0.23
Mof_C 	C 	0.3979	0.7448	0.0337	0.12
Mof_H 	H 	0.4026	0.7481	0.0709	-0.019
Mof_C 	C 	0.3339	0.6384	0.9883	0.549
Mof_C 	C 	0.3779	0.7302	0.8633	-0.034
Mof_H 	H 	0.3763	0.6926	0.8397	0.033
Mof_H 	H 	0.4121	0.7639	0.869	0.031
Mof_C 	C 	0.3272	0.7774	0.8302	0.069
Mof_H 	H 	0.3651	0.8125	0.8504	-0.008
Mof_C 	C 	0.2753	0.7784	0.8003	-0.121
Mof_H 	H 	0.278	0.8139	0.8001	0.059
Mof_C 	C 	0.2187	0.7262	0.7703	0.06
Mof_C 	C 	0.2256	0.678	0.767	-0.138
Mof_H 	H 	0.1905	0.6398	0.7399	0.061
Mof_C 	C 	0.2749	0.6779	0.7966	0.09
Mof_H 	H 	0.2739	0.6416	0.7929	-0.014
Mof_C 	C 	0.1655	0.7293	0.7412	0.029
Mof_C 	C 	0.1655	0.7846	0.7525	-0.11
Mof_H 	H 	0.2007	0.8218	0.7831	0.056
Mof_C 	C 	0.1152	0.7838	0.7196	0.06
Mof_H 	H 	0.1173	0.8209	0.7254	-0.011
Mof_C 	C 	0.0606	0.6774	0.6666	0.042
Mof_H 	H 	0.024	0.6411	0.6367	-0.013
Mof_C 	C 	0.1118	0.6733	0.6975	-0.101
Mof_H 	H 	0.11	0.6359	0.6893	0.047
Mof_N 	N 	0.0611	0.7315	0.678	-0.166
Mof_N 	N 	0.3243	0.7284	0.8307	-0.14
Mof_O 	O 	0.4708	0.9046	0.081	-0.594
Mof_O 	O 	0.4717	0.8565	0.1356	-0.589
Mof_O 	O 	0.3461	0.6438	0.0387	-0.65
Mof_O 	O 	0.2966	0.5881	0.9399	-0.607
Mof_O 	O 	0.5555	0.9913	0.2252	-0.991
Mof_H 	H 	0.5847	0.9879	0.2232	0.359
Mof_Tb	Tb	0.00853	0.23766	0.42096	1.987
Mof_C 	C 	0.0414	0.1277	0.3995	0.481
Mof_C 	C 	0.0747	0.1047	0.372	-0.201
Mof_C 	C 	0.082	0.056	0.374	0.063
Mof_H 	H 	0.0658	0.0375	0.3931	-0.002
Mof_C 	C 	0.1114	0.0354	0.349	-0.091
Mof_C 	C 	0.1425	0.075	0.3291	0.103
Mof_H 	H 	0.1702	0.0679	0.3183	-0.013
Mof_C 	C 	0.1341	0.1182	0.3257	-0.269
Mof_C 	C 	0.1021	0.1358	0.3469	0.155
Mof_H 	H 	0.0974	0.1683	0.3455	-0.031
Mof_C 	C 	0.1661	0.1544	0.3045	0.534
Mof_C 	C 	0.1221	0.9854	0.3523	0.021
Mof_H 	H 	0.1237	0.9634	0.3163	0.022
Mof_H 	H 	0.0879	0.9569	0.3518	0.015
Mof_C 	C 	0.1728	0.003	0.4502	0.024
Mof_H 	H 	0.1349	0.9853	0.4474	0.018
Mof_C 	C 	0.2247	0.025	0.5031	-0.102
Mof_H 	H 	0.222	0.0221	0.5359	0.045
Mof_C 	C 	0.2813	0.0516	0.5075	0.048
Mof_C 	C 	0.2744	0.0414	0.4524	-0.134
Mof_H 	H 	0.3095	0.0494	0.4493	0.056
Mof_C 	C 	0.2251	0.0217	0.403	0.084
Mof_H 	H 	0.2261	0.019	0.3677	-0.019
Mof_C 	C 	0.3345	0.0757	0.5638	0.03
Mof_C 	C 	0.3345	0.087	0.6191	-0.114
Mof_H 	H 	0.2993	0.0824	0.6211	0.054
Mof_C 	C 	0.3848	0.1044	0.6686	0.059
Mof_H 	H 	0.3827	0.1081	0.7036	-0.014
Mof_C 	C 	0.4394	0.106	0.6168	0.041
Mof_H 	H 	0.476	0.1127	0.6171	-0.008
Mof_C 	C 	0.3882	0.0857	0.5615	-0.103
Mof_H 	H 	0.39	0.0793	0.5259	0.047
Mof_N 	N 	0.4389	0.1169	0.6704	-0.165
Mof_N 	N 	0.1757	0.0064	0.4041	-0.147
Mof_O 	O 	0.0292	0.1102	0.4338	-0.603
Mof_O 	O 	0.0283	0.1639	0.3848	-0.588
Mof_O 	O 	0.1539	0.1926	0.2977	-0.637
Mof_O 	O 	0.2034	0.1433	0.2915	-0.608
Mof_O 	O 	0.9445	0.1697	0.4358	-0.988
Mof_H 	H 	0.9153	0.1385	0.4032	0.355
Mof_Tb	Tb	0.5	0	0.14812	2.172
Mof_O 	O 	0.5	2.90495e-17	0.2926	-0.92
Mof_H 	H 	0.5	0	0.3292	0.126
Mof_Tb	Tb	0.35188	0.35188	0.35188	2.234
Mof_O 	O 	0.2074	0.2074	0.2074	-0.912
Mof_H 	H 	0.1708	0.1708	0.1708	0.123
Mof_Tb	Tb	1.45248e-17	0.14812	0.5	2.172
Mof_O 	O 	-4.35743e-17	0.2926	0.5	-0.92
Mof_H 	H 	-1.45248e-17	0.3292	0.5	0.126
Mof_Tb	Tb	0.14812	0.5	-0	2.172
Mof_O 	O 	0.2926	0.5	-0	-0.92
Mof_H 	H 	0.3292	0.5	-0	0.126
_end
