data_functionalizedCrystal
_audit_creation_method	'EQeq! by Chris Wilmer'
_symmetry_space_group_name_H-M	'P1'
_symmetry_Int_Tables_number	1
_symmetry_cell_setting	triclinic
loop_
_symmetry_equiv_pos_as_xyz
  x,y,z
_cell_length_a	44.998
_cell_length_b	20.613
_cell_length_c	16.1694
_cell_angle_alpha	90
_cell_angle_beta	94.777
_cell_angle_gamma	90
loop_
_atom_site_label
_atom_site_type_symbol
_atom_site_fract_x
_atom_site_fract_y
_atom_site_fract_z
_atom_site_charge
Mof_Co	Co	0.07871	0.1777	0.53715	1.106
Mof_N 	N 	0.08324	0.27983	0.5568	-0.215
Mof_O 	O 	0.06332	0.19736	0.42024	-0.476
Mof_O 	O 	0.12782	0.18089	0.53796	-0.508
Mof_O 	O 	0.10575	0.1582	0.65015	-0.418
Mof_N 	N 	0.10331	0.31229	0.5123	-0.202
Mof_C 	C 	0.07057	0.3227	0.6003	0.119
Mof_C 	C 	0.07878	0.2182	0.3635	0.397
Mof_Co	Co	0.13667	0.25963	0.45512	1.173
Mof_C 	C 	0.12914	0.169	0.616	0.35
Mof_C 	C 	0.10155	0.3733	0.5307	0.126
Mof_N 	N 	0.08072	0.38266	0.5857	-0.174
Mof_H 	H 	0.0563	0.3133	0.637	0.003
Mof_O 	O 	0.10677	0.22052	0.36836	-0.441
Mof_C 	C 	0.06199	0.2434	0.286	-0.147
Mof_N 	N 	0.16919	0.19921	0.41158	-0.207
Mof_O 	O 	0.14308	0.33494	0.37464	-0.438
Mof_O 	O 	0.16518	0.30204	0.54968	-0.468
Mof_C 	C 	0.15867	0.16812	0.6655	-0.137
Mof_H 	H 	0.1129	0.406	0.5093	-0.011
Mof_C 	C 	0.07217	0.44235	0.6217	0.231
Mof_C 	C 	0.03142	0.2559	0.2856	0.077
Mof_C 	C 	0.07664	0.257	0.2167	0.088
Mof_N 	N 	0.19884	0.21761	0.4118	-0.222
Mof_C 	C 	0.16733	0.1402	0.3839	0.121
Mof_C 	C 	0.16163	0.38	0.3699	0.396
Mof_C 	C 	0.1877	0.3168	0.5952	0.398
Mof_C 	C 	0.15932	0.17221	0.7523	0.074
Mof_C 	C 	0.18536	0.16845	0.6278	0.066
Mof_C 	C 	0.05685	0.4412	0.693	-0.252
Mof_H 	H 	0.0215	0.2464	0.3323	0.021
Mof_C 	C 	0.01587	0.2823	0.216	-0.132
Mof_C 	C 	0.06134	0.2815	0.1458	-0.144
Mof_H 	H 	0.0971	0.2497	0.2175	0.033
Mof_Co	Co	0.21386	0.30818	0.44757	1.166
Mof_C 	C 	0.21315	0.16866	0.3833	0.121
Mof_N 	N 	0.1943	0.1182	0.3649	-0.174
Mof_H 	H 	0.1498	0.1161	0.3778	0.005
Mof_O 	O 	0.18858	0.37889	0.39949	-0.453
Mof_C 	C 	0.1516	0.4417	0.3278	-0.139
Mof_O 	O 	0.21346	0.32282	0.56971	-0.442
Mof_C 	C 	0.1847	0.3284	0.6859	-0.14
Mof_H 	H 	0.1415	0.1717	0.7778	0.029
Mof_C 	C 	0.18611	0.17695	0.8001	-0.14
Mof_C 	C 	0.21223	0.17458	0.6749	-0.125
Mof_H 	H 	0.1851	0.1645	0.5704	0.021
Mof_H 	H 	0.0514	0.4021	0.7163	0.126
Mof_C 	C 	0.03083	0.294	0.1461	0.078
Mof_C 	C 	0.98271	0.2945	0.2176	0.356
Mof_C 	C 	0.07691	0.2908	0.0688	0.406
Mof_O 	O 	0.23585	0.30491	0.31836	-0.351
Mof_O 	O 	0.25805	0.32303	0.44163	-0.421
Mof_H 	H 	0.2335	0.1682	0.3766	0
Mof_C 	C 	0.20195	0.05714	0.3286	0.235
Mof_C 	C 	0.13336	0.4414	0.2545	0.061
Mof_C 	C 	0.15684	0.32902	0.7165	0.076
Mof_C 	C 	0.21018	0.33477	0.741	0.071
Mof_C 	C 	0.2124	0.17854	0.76	0.07
Mof_C 	C 	0.1872	0.18472	0.8922	0.392
Mof_C 	C 	0.24109	0.1824	0.6367	0.321
Mof_H 	H 	0.0204	0.3104	0.0985	0.036
Mof_O 	O 	0.97004	0.27326	0.2774	-0.31
Mof_O 	O 	0.97011	0.32532	0.15687	-0.425
Mof_O 	O 	0.10463	0.28194	0.0741	-0.442
Mof_O 	O 	0.06123	0.30644	0.0036	-0.446
Mof_C 	C 	0.2181	0.0588	0.2612	-0.251
Mof_H 	H 	0.1264	0.4021	0.2321	0.036
Mof_H 	H 	0.1398	0.3244	0.6801	0.029
Mof_C 	C 	0.15396	0.33644	0.8011	-0.134
Mof_C 	C 	0.20741	0.34468	0.8254	-0.118
Mof_H 	H 	0.229	0.3324	0.7214	0.031
Mof_H 	H 	0.2305	0.1824	0.7917	0.037
Mof_O 	O 	0.16419	0.19844	0.92565	-0.475
Mof_O 	O 	0.21254	0.17662	0.93198	-0.444
Mof_Co	Co	0.92681	0.32138	0.11157	1.154
Mof_Co	Co	0.13309	0.2419	0.99956	1.172
Mof_H 	H 	0.2233	0.0981	0.2381	0.132
Mof_C 	C 	0.17936	0.34578	0.8546	0.062
Mof_C 	C 	0.12411	0.3328	0.8348	0.347
Mof_C 	C 	0.23459	0.3501	0.8859	0.337
Mof_Co	Co	0.20817	0.18769	0.05171	1.168
Mof_O 	O 	0.89906	0.34031	0.21139	-0.401
Mof_O 	O 	0.87716	0.31984	0.08772	-0.498
Mof_N 	N 	0.92041	0.2197	0.1277	-0.203
Mof_O 	O 	0.10316	0.4475	0.0917	-0.253
Mof_H 	H 	0.1775	0.3529	0.9108	0.024
Mof_O 	O 	0.23473	0.38949	0.9437	-0.283
Mof_O 	O 	0.25619	0.31323	0.87187	-0.439
Mof_N 	N 	0.10104	0.18908	0.9241	-0.204
Mof_N 	N 	0.16634	0.30053	0.05916	-0.208
Mof_O 	O 	0.13664	0.16311	0.08371	-0.431
Mof_N 	N 	0.19586	0.28103	0.0699	-0.231
Mof_O 	O 	0.18267	0.12123	0.09209	-0.467
Mof_C 	C 	0.10109	0.1283	0.9024	0.127
Mof_C 	C 	0.16539	0.3602	0.0831	0.122
Mof_C 	C 	0.15521	0.1198	0.104	0.397
Mof_C 	C 	0.2113	0.3302	0.1006	0.126
Mof_C 	C 	0.06772	0.1762	0.822	0.124
Mof_N 	N 	0.08036	0.11705	0.8387	-0.177
Mof_H 	H 	0.1137	0.0969	0.9274	-0.011
Mof_N 	N 	0.19311	0.38149	0.1105	-0.173
Mof_H 	H 	0.1481	0.3852	0.0817	0.009
Mof_C 	C 	0.14543	0.05872	0.1439	-0.135
Mof_H 	H 	0.2318	0.3301	0.1137	0.002
Mof_H 	H 	0.0527	0.1842	0.7804	-0.007
Mof_C 	C 	0.07348	0.0575	0.797	0.231
Mof_C 	C 	0.20198	0.44296	0.147	0.255
Mof_C 	C 	0.12792	0.0587	0.2106	0.061
Mof_C 	C 	0.05961	0.0587	0.7186	-0.241
Mof_C 	C 	0.22041	0.442	0.2199	-0.283
Mof_H 	H 	0.1212	0.0977	0.2311	0.034
Mof_H 	H 	0.055	0.0979	0.6921	0.091
Mof_H 	H 	0.2268	0.4028	0.2436	0.153
Mof_O 	O 	0.10105	0.05333	0.3609	-0.268
Mof_Co	Co	0.57871	0.6777	0.53715	1.107
Mof_N 	N 	0.58324	0.77983	0.5568	-0.214
Mof_O 	O 	0.56332	0.69736	0.42024	-0.474
Mof_O 	O 	0.62782	0.68089	0.53796	-0.506
Mof_O 	O 	0.60575	0.6582	0.65015	-0.418
Mof_N 	N 	0.60331	0.81229	0.5123	-0.202
Mof_C 	C 	0.57057	0.8227	0.6003	0.12
Mof_C 	C 	0.57878	0.7182	0.3635	0.397
Mof_Co	Co	0.63667	0.75963	0.45512	1.173
Mof_C 	C 	0.62914	0.669	0.616	0.35
Mof_C 	C 	0.60155	0.8733	0.5307	0.127
Mof_N 	N 	0.58072	0.88266	0.5857	-0.175
Mof_H 	H 	0.5563	0.8133	0.637	0.003
Mof_O 	O 	0.60677	0.72052	0.36836	-0.441
Mof_C 	C 	0.56199	0.7434	0.286	-0.146
Mof_N 	N 	0.66919	0.69921	0.41158	-0.207
Mof_O 	O 	0.64308	0.83494	0.37464	-0.436
Mof_O 	O 	0.66518	0.80204	0.54968	-0.467
Mof_C 	C 	0.65867	0.66812	0.6655	-0.136
Mof_H 	H 	0.6129	0.906	0.5093	-0.008
Mof_C 	C 	0.57217	0.94235	0.6217	0.239
Mof_C 	C 	0.53142	0.7559	0.2856	0.077
Mof_C 	C 	0.57664	0.757	0.2167	0.088
Mof_N 	N 	0.69884	0.71761	0.4118	-0.222
Mof_C 	C 	0.66733	0.6402	0.3839	0.121
Mof_C 	C 	0.66163	0.88	0.3699	0.393
Mof_C 	C 	0.6877	0.8168	0.5952	0.399
Mof_C 	C 	0.65932	0.67221	0.7523	0.074
Mof_C 	C 	0.68536	0.66845	0.6278	0.066
Mof_C 	C 	0.55685	0.9412	0.693	-0.235
Mof_H 	H 	0.5215	0.7464	0.3323	0.021
Mof_C 	C 	0.51587	0.7823	0.216	-0.131
Mof_C 	C 	0.56134	0.7815	0.1458	-0.143
Mof_H 	H 	0.5971	0.7497	0.2175	0.033
Mof_Co	Co	0.71386	0.80818	0.44757	1.166
Mof_C 	C 	0.71315	0.66866	0.3833	0.121
Mof_N 	N 	0.6943	0.6182	0.3649	-0.174
Mof_H 	H 	0.6498	0.6161	0.3778	0.006
Mof_O 	O 	0.68858	0.87889	0.39949	-0.45
Mof_C 	C 	0.6516	0.9417	0.3278	-0.127
Mof_O 	O 	0.71346	0.82282	0.56971	-0.441
Mof_C 	C 	0.6847	0.8284	0.6859	-0.139
Mof_H 	H 	0.6415	0.6717	0.7778	0.029
Mof_C 	C 	0.68611	0.67695	0.8001	-0.14
Mof_C 	C 	0.71223	0.67458	0.6749	-0.124
Mof_H 	H 	0.6851	0.6645	0.5704	0.022
Mof_H 	H 	0.5514	0.9021	0.7163	0.122
Mof_C 	C 	0.53083	0.794	0.1461	0.078
Mof_C 	C 	0.48271	0.7945	0.2176	0.356
Mof_C 	C 	0.57691	0.7908	0.0688	0.406
Mof_O 	O 	0.73585	0.80491	0.31836	-0.35
Mof_O 	O 	0.75805	0.82303	0.44163	-0.42
Mof_H 	H 	0.7335	0.6682	0.3766	0
Mof_C 	C 	0.70195	0.55714	0.3286	0.235
Mof_C 	C 	0.63336	0.9414	0.2545	0.069
Mof_C 	C 	0.65684	0.82902	0.7165	0.076
Mof_C 	C 	0.71018	0.83477	0.741	0.071
Mof_C 	C 	0.7124	0.67854	0.76	0.071
Mof_C 	C 	0.6872	0.68472	0.8922	0.392
Mof_C 	C 	0.74109	0.6824	0.6367	0.321
Mof_H 	H 	0.5204	0.8104	0.0985	0.037
Mof_O 	O 	0.47004	0.77326	0.2774	-0.309
Mof_O 	O 	0.47011	0.82532	0.15687	-0.424
Mof_O 	O 	0.60463	0.78194	0.0741	-0.442
Mof_O 	O 	0.56123	0.80644	0.0036	-0.445
Mof_C 	C 	0.7181	0.5588	0.2612	-0.257
Mof_H 	H 	0.6264	0.9021	0.2321	0.035
Mof_H 	H 	0.6398	0.8244	0.6801	0.029
Mof_C 	C 	0.65396	0.83644	0.8011	-0.133
Mof_C 	C 	0.70741	0.84468	0.8254	-0.117
Mof_H 	H 	0.729	0.8324	0.7214	0.032
Mof_H 	H 	0.7305	0.6824	0.7917	0.037
Mof_O 	O 	0.66419	0.69844	0.92565	-0.475
Mof_O 	O 	0.71254	0.67662	0.93198	-0.444
Mof_Co	Co	0.42681	0.82138	0.11157	1.155
Mof_Co	Co	0.63309	0.7419	0.99956	1.172
Mof_H 	H 	0.7233	0.5981	0.2381	0.135
Mof_C 	C 	0.67936	0.84578	0.8546	0.061
Mof_C 	C 	0.62411	0.8328	0.8348	0.347
Mof_C 	C 	0.73459	0.8501	0.8859	0.337
Mof_Co	Co	0.70817	0.68769	0.05171	1.168
Mof_O 	O 	0.39906	0.84031	0.21139	-0.4
Mof_O 	O 	0.37716	0.81984	0.08772	-0.497
Mof_N 	N 	0.42041	0.7197	0.1277	-0.203
Mof_O 	O 	0.60316	0.9475	0.0917	-0.242
Mof_H 	H 	0.6775	0.8529	0.9108	0.025
Mof_O 	O 	0.73473	0.88949	0.9437	-0.28
Mof_O 	O 	0.75619	0.81323	0.87187	-0.439
Mof_N 	N 	0.60104	0.68908	0.9241	-0.203
Mof_N 	N 	0.66634	0.80053	0.05916	-0.208
Mof_O 	O 	0.63664	0.66311	0.08371	-0.431
Mof_N 	N 	0.69586	0.78103	0.0699	-0.231
Mof_O 	O 	0.68267	0.62123	0.09209	-0.467
Mof_C 	C 	0.60109	0.6283	0.9024	0.127
Mof_C 	C 	0.66539	0.8602	0.0831	0.123
Mof_C 	C 	0.65521	0.6198	0.104	0.399
Mof_C 	C 	0.7113	0.8302	0.1006	0.126
Mof_C 	C 	0.56772	0.6762	0.822	0.125
Mof_N 	N 	0.58036	0.61705	0.8387	-0.176
Mof_H 	H 	0.6137	0.5969	0.9274	-0.01
Mof_N 	N 	0.69311	0.88149	0.1105	-0.174
Mof_H 	H 	0.6481	0.8852	0.0817	0.01
Mof_C 	C 	0.64543	0.55872	0.1439	-0.138
Mof_H 	H 	0.7318	0.8301	0.1137	0.002
Mof_H 	H 	0.5527	0.6842	0.7804	-0.007
Mof_C 	C 	0.57348	0.5575	0.797	0.232
Mof_C 	C 	0.70198	0.94296	0.147	0.262
Mof_C 	C 	0.62792	0.5587	0.2106	0.063
Mof_C 	C 	0.55961	0.5587	0.7186	-0.247
Mof_C 	C 	0.72041	0.942	0.2199	-0.266
Mof_H 	H 	0.6212	0.5977	0.2311	0.034
Mof_H 	H 	0.555	0.5979	0.6921	0.094
Mof_H 	H 	0.7268	0.9028	0.2436	0.149
Mof_O 	O 	0.60105	0.55333	0.3609	-0.269
Mof_Co	Co	0.92129	0.1777	0.46285	1.107
Mof_N 	N 	0.91676	0.27983	0.4432	-0.214
Mof_O 	O 	0.93668	0.19736	0.57976	-0.475
Mof_O 	O 	0.87218	0.18089	0.46204	-0.507
Mof_O 	O 	0.89425	0.1582	0.34985	-0.418
Mof_N 	N 	0.89669	0.31229	0.4877	-0.202
Mof_C 	C 	0.92943	0.3227	0.3997	0.119
Mof_C 	C 	0.92122	0.2182	0.6365	0.397
Mof_Co	Co	0.86333	0.25963	0.54488	1.173
Mof_C 	C 	0.87086	0.169	0.384	0.35
Mof_C 	C 	0.89845	0.3733	0.4693	0.126
Mof_N 	N 	0.91928	0.38266	0.4143	-0.174
Mof_H 	H 	0.9437	0.3133	0.363	0.003
Mof_O 	O 	0.89323	0.22052	0.63164	-0.441
Mof_C 	C 	0.93801	0.2434	0.714	-0.147
Mof_N 	N 	0.83081	0.19921	0.58842	-0.207
Mof_O 	O 	0.85692	0.33494	0.62536	-0.438
Mof_O 	O 	0.83482	0.30204	0.45032	-0.468
Mof_C 	C 	0.84133	0.16812	0.3345	-0.137
Mof_H 	H 	0.8871	0.406	0.4907	-0.011
Mof_C 	C 	0.92783	0.44235	0.3783	0.231
Mof_C 	C 	0.96858	0.2559	0.7144	0.077
Mof_C 	C 	0.92336	0.257	0.7833	0.088
Mof_N 	N 	0.80116	0.21761	0.5882	-0.222
Mof_C 	C 	0.83267	0.1402	0.6161	0.121
Mof_C 	C 	0.83837	0.38	0.6301	0.396
Mof_C 	C 	0.8123	0.3168	0.4048	0.398
Mof_C 	C 	0.84068	0.17221	0.2477	0.074
Mof_C 	C 	0.81464	0.16845	0.3722	0.066
Mof_C 	C 	0.94315	0.4412	0.307	-0.252
Mof_H 	H 	0.9785	0.2464	0.6677	0.021
Mof_C 	C 	0.98413	0.2823	0.784	-0.132
Mof_C 	C 	0.93866	0.2815	0.8542	-0.144
Mof_H 	H 	0.9029	0.2497	0.7825	0.033
Mof_Co	Co	0.78614	0.30818	0.55243	1.166
Mof_C 	C 	0.78685	0.16866	0.6167	0.121
Mof_N 	N 	0.8057	0.1182	0.6351	-0.174
Mof_H 	H 	0.8502	0.1161	0.6222	0.005
Mof_O 	O 	0.81142	0.37889	0.60051	-0.453
Mof_C 	C 	0.8484	0.4417	0.6722	-0.139
Mof_O 	O 	0.78654	0.32282	0.43029	-0.442
Mof_C 	C 	0.8153	0.3284	0.3141	-0.14
Mof_H 	H 	0.8585	0.1717	0.2222	0.029
Mof_C 	C 	0.81389	0.17695	0.1999	-0.14
Mof_C 	C 	0.78777	0.17458	0.3251	-0.125
Mof_H 	H 	0.8149	0.1645	0.4296	0.021
Mof_H 	H 	0.9486	0.4021	0.2837	0.126
Mof_C 	C 	0.96917	0.294	0.8539	0.078
Mof_C 	C 	0.01729	0.2945	0.7824	0.356
Mof_C 	C 	0.92309	0.2908	0.9312	0.406
Mof_O 	O 	0.76415	0.30491	0.68164	-0.351
Mof_O 	O 	0.74195	0.32303	0.55837	-0.421
Mof_H 	H 	0.7665	0.1682	0.6234	0
Mof_C 	C 	0.79805	0.05714	0.6714	0.235
Mof_C 	C 	0.86664	0.4414	0.7455	0.061
Mof_C 	C 	0.84316	0.32902	0.2835	0.076
Mof_C 	C 	0.78982	0.33477	0.259	0.071
Mof_C 	C 	0.7876	0.17854	0.24	0.07
Mof_C 	C 	0.8128	0.18472	0.1078	0.392
Mof_C 	C 	0.75891	0.1824	0.3633	0.321
Mof_H 	H 	0.9796	0.3104	0.9015	0.036
Mof_O 	O 	0.02996	0.27326	0.7226	-0.31
Mof_O 	O 	0.02989	0.32532	0.84313	-0.425
Mof_O 	O 	0.89537	0.28194	0.9259	-0.442
Mof_O 	O 	0.93877	0.30644	0.9964	-0.446
Mof_C 	C 	0.7819	0.0588	0.7388	-0.251
Mof_H 	H 	0.8736	0.4021	0.7679	0.036
Mof_H 	H 	0.8602	0.3244	0.3199	0.029
Mof_C 	C 	0.84604	0.33644	0.1989	-0.134
Mof_C 	C 	0.79259	0.34468	0.1746	-0.118
Mof_H 	H 	0.771	0.3324	0.2786	0.031
Mof_H 	H 	0.7695	0.1824	0.2083	0.037
Mof_O 	O 	0.83581	0.19844	0.07435	-0.475
Mof_O 	O 	0.78746	0.17662	0.06802	-0.444
Mof_Co	Co	0.07319	0.32138	0.88843	1.154
Mof_Co	Co	0.86691	0.2419	0.00044	1.172
Mof_H 	H 	0.7767	0.0981	0.7619	0.132
Mof_C 	C 	0.82064	0.34578	0.1454	0.062
Mof_C 	C 	0.87589	0.3328	0.1652	0.347
Mof_C 	C 	0.76541	0.3501	0.1141	0.337
Mof_Co	Co	0.79183	0.18769	0.94829	1.168
Mof_O 	O 	0.10094	0.34031	0.78861	-0.401
Mof_O 	O 	0.12284	0.31984	0.91228	-0.498
Mof_N 	N 	0.07959	0.2197	0.8723	-0.203
Mof_O 	O 	0.89684	0.4475	0.9083	-0.253
Mof_H 	H 	0.8225	0.3529	0.0892	0.024
Mof_O 	O 	0.76527	0.38949	0.0563	-0.283
Mof_O 	O 	0.74381	0.31323	0.12813	-0.439
Mof_N 	N 	0.89896	0.18908	0.0759	-0.204
Mof_N 	N 	0.83366	0.30053	0.94084	-0.208
Mof_O 	O 	0.86336	0.16311	0.91629	-0.431
Mof_N 	N 	0.80414	0.28103	0.9301	-0.231
Mof_O 	O 	0.81733	0.12123	0.90791	-0.467
Mof_C 	C 	0.89891	0.1283	0.0976	0.127
Mof_C 	C 	0.83461	0.3602	0.9169	0.122
Mof_C 	C 	0.84479	0.1198	0.896	0.397
Mof_C 	C 	0.7887	0.3302	0.8994	0.126
Mof_C 	C 	0.93228	0.1762	0.178	0.124
Mof_N 	N 	0.91964	0.11705	0.1613	-0.177
Mof_H 	H 	0.8863	0.0969	0.0726	-0.011
Mof_N 	N 	0.80689	0.38149	0.8895	-0.173
Mof_H 	H 	0.8519	0.3852	0.9183	0.009
Mof_C 	C 	0.85457	0.05872	0.8561	-0.135
Mof_H 	H 	0.7682	0.3301	0.8863	0.002
Mof_H 	H 	0.9473	0.1842	0.2196	-0.007
Mof_C 	C 	0.92652	0.0575	0.203	0.231
Mof_C 	C 	0.79802	0.44296	0.853	0.255
Mof_C 	C 	0.87208	0.0587	0.7894	0.061
Mof_C 	C 	0.94039	0.0587	0.2814	-0.241
Mof_C 	C 	0.77959	0.442	0.7801	-0.283
Mof_H 	H 	0.8788	0.0977	0.7689	0.034
Mof_H 	H 	0.945	0.0979	0.3079	0.091
Mof_H 	H 	0.7732	0.4028	0.7564	0.153
Mof_O 	O 	0.89895	0.05333	0.6391	-0.268
Mof_Co	Co	0.42129	0.6777	0.46285	1.107
Mof_N 	N 	0.41676	0.77983	0.4432	-0.214
Mof_O 	O 	0.43668	0.69736	0.57976	-0.474
Mof_O 	O 	0.37218	0.68089	0.46204	-0.506
Mof_O 	O 	0.39425	0.6582	0.34985	-0.418
Mof_N 	N 	0.39669	0.81229	0.4877	-0.202
Mof_C 	C 	0.42943	0.8227	0.3997	0.12
Mof_C 	C 	0.42122	0.7182	0.6365	0.397
Mof_Co	Co	0.36333	0.75963	0.54488	1.173
Mof_C 	C 	0.37086	0.669	0.384	0.35
Mof_C 	C 	0.39845	0.8733	0.4693	0.127
Mof_N 	N 	0.41928	0.88266	0.4143	-0.175
Mof_H 	H 	0.4437	0.8133	0.363	0.003
Mof_O 	O 	0.39323	0.72052	0.63164	-0.441
Mof_C 	C 	0.43801	0.7434	0.714	-0.146
Mof_N 	N 	0.33081	0.69921	0.58842	-0.207
Mof_O 	O 	0.35692	0.83494	0.62536	-0.436
Mof_O 	O 	0.33482	0.80204	0.45032	-0.467
Mof_C 	C 	0.34133	0.66812	0.3345	-0.136
Mof_H 	H 	0.3871	0.906	0.4907	-0.008
Mof_C 	C 	0.42783	0.94235	0.3783	0.239
Mof_C 	C 	0.46858	0.7559	0.7144	0.077
Mof_C 	C 	0.42336	0.757	0.7833	0.088
Mof_N 	N 	0.30116	0.71761	0.5882	-0.222
Mof_C 	C 	0.33267	0.6402	0.6161	0.121
Mof_C 	C 	0.33837	0.88	0.6301	0.393
Mof_C 	C 	0.3123	0.8168	0.4048	0.399
Mof_C 	C 	0.34068	0.67221	0.2477	0.074
Mof_C 	C 	0.31464	0.66845	0.3722	0.066
Mof_C 	C 	0.44315	0.9412	0.307	-0.235
Mof_H 	H 	0.4785	0.7464	0.6677	0.021
Mof_C 	C 	0.48413	0.7823	0.784	-0.131
Mof_C 	C 	0.43866	0.7815	0.8542	-0.143
Mof_H 	H 	0.4029	0.7497	0.7825	0.033
Mof_Co	Co	0.28614	0.80818	0.55243	1.166
Mof_C 	C 	0.28685	0.66866	0.6167	0.121
Mof_N 	N 	0.3057	0.6182	0.6351	-0.174
Mof_H 	H 	0.3502	0.6161	0.6222	0.006
Mof_O 	O 	0.31142	0.87889	0.60051	-0.45
Mof_C 	C 	0.3484	0.9417	0.6722	-0.127
Mof_O 	O 	0.28654	0.82282	0.43029	-0.441
Mof_C 	C 	0.3153	0.8284	0.3141	-0.139
Mof_H 	H 	0.3585	0.6717	0.2222	0.029
Mof_C 	C 	0.31389	0.67695	0.1999	-0.14
Mof_C 	C 	0.28777	0.67458	0.3251	-0.124
Mof_H 	H 	0.3149	0.6645	0.4296	0.022
Mof_H 	H 	0.4486	0.9021	0.2837	0.122
Mof_C 	C 	0.46917	0.794	0.8539	0.078
Mof_C 	C 	0.51729	0.7945	0.7824	0.356
Mof_C 	C 	0.42309	0.7908	0.9312	0.406
Mof_O 	O 	0.26415	0.80491	0.68164	-0.35
Mof_O 	O 	0.24195	0.82303	0.55837	-0.42
Mof_H 	H 	0.2665	0.6682	0.6234	0
Mof_C 	C 	0.29805	0.55714	0.6714	0.235
Mof_C 	C 	0.36664	0.9414	0.7455	0.069
Mof_C 	C 	0.34316	0.82902	0.2835	0.076
Mof_C 	C 	0.28982	0.83477	0.259	0.071
Mof_C 	C 	0.2876	0.67854	0.24	0.071
Mof_C 	C 	0.3128	0.68472	0.1078	0.392
Mof_C 	C 	0.25891	0.6824	0.3633	0.321
Mof_H 	H 	0.4796	0.8104	0.9015	0.037
Mof_O 	O 	0.52996	0.77326	0.7226	-0.309
Mof_O 	O 	0.52989	0.82532	0.84313	-0.424
Mof_O 	O 	0.39537	0.78194	0.9259	-0.442
Mof_O 	O 	0.43877	0.80644	0.9964	-0.445
Mof_C 	C 	0.2819	0.5588	0.7388	-0.257
Mof_H 	H 	0.3736	0.9021	0.7679	0.035
Mof_H 	H 	0.3602	0.8244	0.3199	0.029
Mof_C 	C 	0.34604	0.83644	0.1989	-0.133
Mof_C 	C 	0.29259	0.84468	0.1746	-0.117
Mof_H 	H 	0.271	0.8324	0.2786	0.032
Mof_H 	H 	0.2695	0.6824	0.2083	0.037
Mof_O 	O 	0.33581	0.69844	0.07435	-0.475
Mof_O 	O 	0.28746	0.67662	0.06802	-0.444
Mof_Co	Co	0.57319	0.82138	0.88843	1.155
Mof_Co	Co	0.36691	0.7419	0.00044	1.172
Mof_H 	H 	0.2767	0.5981	0.7619	0.135
Mof_C 	C 	0.32064	0.84578	0.1454	0.061
Mof_C 	C 	0.37589	0.8328	0.1652	0.347
Mof_C 	C 	0.26541	0.8501	0.1141	0.337
Mof_Co	Co	0.29183	0.68769	0.94829	1.168
Mof_O 	O 	0.60094	0.84031	0.78861	-0.4
Mof_O 	O 	0.62284	0.81984	0.91228	-0.497
Mof_N 	N 	0.57959	0.7197	0.8723	-0.203
Mof_O 	O 	0.39684	0.9475	0.9083	-0.242
Mof_H 	H 	0.3225	0.8529	0.0892	0.025
Mof_O 	O 	0.26527	0.88949	0.0563	-0.28
Mof_O 	O 	0.24381	0.81323	0.12813	-0.439
Mof_N 	N 	0.39896	0.68908	0.0759	-0.203
Mof_N 	N 	0.33366	0.80053	0.94084	-0.208
Mof_O 	O 	0.36336	0.66311	0.91629	-0.431
Mof_N 	N 	0.30414	0.78103	0.9301	-0.231
Mof_O 	O 	0.31733	0.62123	0.90791	-0.467
Mof_C 	C 	0.39891	0.6283	0.0976	0.127
Mof_C 	C 	0.33461	0.8602	0.9169	0.123
Mof_C 	C 	0.34479	0.6198	0.896	0.399
Mof_C 	C 	0.2887	0.8302	0.8994	0.126
Mof_C 	C 	0.43228	0.6762	0.178	0.125
Mof_N 	N 	0.41964	0.61705	0.1613	-0.176
Mof_H 	H 	0.3863	0.5969	0.0726	-0.01
Mof_N 	N 	0.30689	0.88149	0.8895	-0.174
Mof_H 	H 	0.3519	0.8852	0.9183	0.01
Mof_C 	C 	0.35457	0.55872	0.8561	-0.138
Mof_H 	H 	0.2682	0.8301	0.8863	0.002
Mof_H 	H 	0.4473	0.6842	0.2196	-0.007
Mof_C 	C 	0.42652	0.5575	0.203	0.232
Mof_C 	C 	0.29802	0.94296	0.853	0.262
Mof_C 	C 	0.37208	0.5587	0.7894	0.063
Mof_C 	C 	0.44039	0.5587	0.2814	-0.247
Mof_C 	C 	0.27959	0.942	0.7801	-0.266
Mof_H 	H 	0.3788	0.5977	0.7689	0.034
Mof_H 	H 	0.445	0.5979	0.3079	0.094
Mof_H 	H 	0.2732	0.9028	0.7564	0.149
Mof_O 	O 	0.39895	0.55333	0.6391	-0.269
Mof_Co	Co	0.92129	0.8223	0.46285	1.108
Mof_N 	N 	0.91676	0.72017	0.4432	-0.214
Mof_O 	O 	0.93668	0.80264	0.57976	-0.473
Mof_O 	O 	0.87218	0.81911	0.46204	-0.506
Mof_O 	O 	0.89425	0.8418	0.34985	-0.417
Mof_N 	N 	0.89669	0.68771	0.4877	-0.203
Mof_C 	C 	0.92943	0.6773	0.3997	0.119
Mof_C 	C 	0.92122	0.7818	0.6365	0.397
Mof_Co	Co	0.86333	0.74037	0.54488	1.173
Mof_C 	C 	0.87086	0.831	0.384	0.351
Mof_C 	C 	0.89845	0.6267	0.4693	0.126
Mof_N 	N 	0.91928	0.61734	0.4143	-0.174
Mof_H 	H 	0.9437	0.6867	0.363	0.003
Mof_O 	O 	0.89323	0.77948	0.63164	-0.441
Mof_C 	C 	0.93801	0.7566	0.714	-0.146
Mof_N 	N 	0.83081	0.80079	0.58842	-0.207
Mof_O 	O 	0.85692	0.66506	0.62536	-0.438
Mof_O 	O 	0.83482	0.69796	0.45032	-0.468
Mof_C 	C 	0.84133	0.83188	0.3345	-0.135
Mof_H 	H 	0.8871	0.594	0.4907	-0.011
Mof_C 	C 	0.92783	0.55765	0.3783	0.231
Mof_C 	C 	0.96858	0.7441	0.7144	0.077
Mof_C 	C 	0.92336	0.743	0.7833	0.088
Mof_N 	N 	0.80116	0.78239	0.5882	-0.222
Mof_C 	C 	0.83267	0.8598	0.6161	0.122
Mof_C 	C 	0.83837	0.62	0.6301	0.396
Mof_C 	C 	0.8123	0.6832	0.4048	0.398
Mof_C 	C 	0.84068	0.82779	0.2477	0.075
Mof_C 	C 	0.81464	0.83155	0.3722	0.066
Mof_C 	C 	0.94315	0.5588	0.307	-0.252
Mof_H 	H 	0.9785	0.7536	0.6677	0.021
Mof_C 	C 	0.98413	0.7177	0.784	-0.131
Mof_C 	C 	0.93866	0.7185	0.8542	-0.143
Mof_H 	H 	0.9029	0.7503	0.7825	0.033
Mof_Co	Co	0.78614	0.69182	0.55243	1.166
Mof_C 	C 	0.78685	0.83134	0.6167	0.121
Mof_N 	N 	0.8057	0.8818	0.6351	-0.174
Mof_H 	H 	0.8502	0.8839	0.6222	0.007
Mof_O 	O 	0.81142	0.62111	0.60051	-0.453
Mof_C 	C 	0.8484	0.5583	0.6722	-0.139
Mof_O 	O 	0.78654	0.67718	0.43029	-0.442
Mof_C 	C 	0.8153	0.6716	0.3141	-0.14
Mof_H 	H 	0.8585	0.8283	0.2222	0.03
Mof_C 	C 	0.81389	0.82305	0.1999	-0.139
Mof_C 	C 	0.78777	0.82542	0.3251	-0.123
Mof_H 	H 	0.8149	0.8355	0.4296	0.023
Mof_H 	H 	0.9486	0.5979	0.2837	0.126
Mof_C 	C 	0.96917	0.706	0.8539	0.078
Mof_C 	C 	0.01729	0.7055	0.7824	0.356
Mof_C 	C 	0.92309	0.7092	0.9312	0.406
Mof_O 	O 	0.76415	0.69509	0.68164	-0.351
Mof_O 	O 	0.74195	0.67697	0.55837	-0.421
Mof_H 	H 	0.7665	0.8318	0.6234	0.001
Mof_C 	C 	0.79805	0.94286	0.6714	0.243
Mof_C 	C 	0.86664	0.5586	0.7455	0.061
Mof_C 	C 	0.84316	0.67098	0.2835	0.076
Mof_C 	C 	0.78982	0.66523	0.259	0.071
Mof_C 	C 	0.7876	0.82146	0.24	0.071
Mof_C 	C 	0.8128	0.81528	0.1078	0.392
Mof_C 	C 	0.75891	0.8176	0.3633	0.321
Mof_H 	H 	0.9796	0.6896	0.9015	0.037
Mof_O 	O 	0.02996	0.72674	0.7226	-0.309
Mof_O 	O 	0.02989	0.67468	0.84313	-0.425
Mof_O 	O 	0.89537	0.71806	0.9259	-0.442
Mof_O 	O 	0.93877	0.69356	0.9964	-0.446
Mof_C 	C 	0.7819	0.9412	0.7388	-0.241
Mof_H 	H 	0.8736	0.5979	0.7679	0.036
Mof_H 	H 	0.8602	0.6756	0.3199	0.029
Mof_C 	C 	0.84604	0.66356	0.1989	-0.134
Mof_C 	C 	0.79259	0.65532	0.1746	-0.118
Mof_H 	H 	0.771	0.6676	0.2786	0.031
Mof_H 	H 	0.7695	0.8176	0.2083	0.037
Mof_O 	O 	0.83581	0.80156	0.07435	-0.475
Mof_O 	O 	0.78746	0.82338	0.06802	-0.443
Mof_Co	Co	0.07319	0.67862	0.88843	1.154
Mof_Co	Co	0.86691	0.7581	0.00044	1.172
Mof_H 	H 	0.7767	0.9019	0.7619	0.13
Mof_C 	C 	0.82064	0.65422	0.1454	0.062
Mof_C 	C 	0.87589	0.6672	0.1652	0.347
Mof_C 	C 	0.76541	0.6499	0.1141	0.337
Mof_Co	Co	0.79183	0.81231	0.94829	1.168
Mof_O 	O 	0.10094	0.65969	0.78861	-0.401
Mof_O 	O 	0.12284	0.68016	0.91228	-0.498
Mof_N 	N 	0.07959	0.7803	0.8723	-0.203
Mof_O 	O 	0.89684	0.5525	0.9083	-0.253
Mof_H 	H 	0.8225	0.6471	0.0892	0.024
Mof_O 	O 	0.76527	0.61051	0.0563	-0.283
Mof_O 	O 	0.74381	0.68677	0.12813	-0.44
Mof_N 	N 	0.89896	0.81092	0.0759	-0.203
Mof_N 	N 	0.83366	0.69947	0.94084	-0.208
Mof_O 	O 	0.86336	0.83689	0.91629	-0.43
Mof_N 	N 	0.80414	0.71897	0.9301	-0.231
Mof_O 	O 	0.81733	0.87877	0.90791	-0.464
Mof_C 	C 	0.89891	0.8717	0.0976	0.128
Mof_C 	C 	0.83461	0.6398	0.9169	0.122
Mof_C 	C 	0.84479	0.8802	0.896	0.396
Mof_C 	C 	0.7887	0.6698	0.8994	0.126
Mof_C 	C 	0.93228	0.8238	0.178	0.125
Mof_N 	N 	0.91964	0.88295	0.1613	-0.177
Mof_H 	H 	0.8863	0.9031	0.0726	-0.008
Mof_N 	N 	0.80689	0.61851	0.8895	-0.173
Mof_H 	H 	0.8519	0.6148	0.9183	0.009
Mof_C 	C 	0.85457	0.94128	0.8561	-0.127
Mof_H 	H 	0.7682	0.6699	0.8863	0.002
Mof_H 	H 	0.9473	0.8158	0.2196	-0.007
Mof_C 	C 	0.92652	0.9425	0.203	0.239
Mof_C 	C 	0.79802	0.55704	0.853	0.255
Mof_C 	C 	0.87208	0.9413	0.7894	0.071
Mof_C 	C 	0.94039	0.9413	0.2814	-0.231
Mof_C 	C 	0.77959	0.558	0.7801	-0.283
Mof_H 	H 	0.8788	0.9023	0.7689	0.032
Mof_H 	H 	0.945	0.9021	0.3079	0.09
Mof_H 	H 	0.7732	0.5972	0.7564	0.153
Mof_O 	O 	0.89895	0.94667	0.6391	-0.259
Mof_Co	Co	0.42129	0.3223	0.46285	1.107
Mof_N 	N 	0.41676	0.22017	0.4432	-0.214
Mof_O 	O 	0.43668	0.30264	0.57976	-0.474
Mof_O 	O 	0.37218	0.31911	0.46204	-0.506
Mof_O 	O 	0.39425	0.3418	0.34985	-0.418
Mof_N 	N 	0.39669	0.18771	0.4877	-0.203
Mof_C 	C 	0.42943	0.1773	0.3997	0.119
Mof_C 	C 	0.42122	0.2818	0.6365	0.397
Mof_Co	Co	0.36333	0.24037	0.54488	1.173
Mof_C 	C 	0.37086	0.331	0.384	0.35
Mof_C 	C 	0.39845	0.1267	0.4693	0.126
Mof_N 	N 	0.41928	0.11734	0.4143	-0.175
Mof_H 	H 	0.4437	0.1867	0.363	0.003
Mof_O 	O 	0.39323	0.27948	0.63164	-0.441
Mof_C 	C 	0.43801	0.2566	0.714	-0.147
Mof_N 	N 	0.33081	0.30079	0.58842	-0.207
Mof_O 	O 	0.35692	0.16506	0.62536	-0.437
Mof_O 	O 	0.33482	0.19796	0.45032	-0.468
Mof_C 	C 	0.34133	0.33188	0.3345	-0.136
Mof_H 	H 	0.3871	0.094	0.4907	-0.012
Mof_C 	C 	0.42783	0.05765	0.3783	0.231
Mof_C 	C 	0.46858	0.2441	0.7144	0.077
Mof_C 	C 	0.42336	0.243	0.7833	0.088
Mof_N 	N 	0.30116	0.28239	0.5882	-0.222
Mof_C 	C 	0.33267	0.3598	0.6161	0.121
Mof_C 	C 	0.33837	0.12	0.6301	0.394
Mof_C 	C 	0.3123	0.1832	0.4048	0.398
Mof_C 	C 	0.34068	0.32779	0.2477	0.074
Mof_C 	C 	0.31464	0.33155	0.3722	0.066
Mof_C 	C 	0.44315	0.0588	0.307	-0.246
Mof_H 	H 	0.4785	0.2536	0.6677	0.021
Mof_C 	C 	0.48413	0.2177	0.784	-0.132
Mof_C 	C 	0.43866	0.2185	0.8542	-0.144
Mof_H 	H 	0.4029	0.2503	0.7825	0.033
Mof_Co	Co	0.28614	0.19182	0.55243	1.166
Mof_C 	C 	0.28685	0.33134	0.6167	0.121
Mof_N 	N 	0.3057	0.3818	0.6351	-0.174
Mof_H 	H 	0.3502	0.3839	0.6222	0.006
Mof_O 	O 	0.31142	0.12111	0.60051	-0.453
Mof_C 	C 	0.3484	0.0583	0.6722	-0.135
Mof_O 	O 	0.28654	0.17718	0.43029	-0.442
Mof_C 	C 	0.3153	0.1716	0.3141	-0.14
Mof_H 	H 	0.3585	0.3283	0.2222	0.029
Mof_C 	C 	0.31389	0.32305	0.1999	-0.14
Mof_C 	C 	0.28777	0.32542	0.3251	-0.124
Mof_H 	H 	0.3149	0.3355	0.4296	0.022
Mof_H 	H 	0.4486	0.0979	0.2837	0.123
Mof_C 	C 	0.46917	0.206	0.8539	0.078
Mof_C 	C 	0.51729	0.2055	0.7824	0.356
Mof_C 	C 	0.42309	0.2092	0.9312	0.406
Mof_O 	O 	0.26415	0.19509	0.68164	-0.351
Mof_O 	O 	0.24195	0.17697	0.55837	-0.422
Mof_H 	H 	0.2665	0.3318	0.6234	0
Mof_C 	C 	0.29805	0.44286	0.6714	0.235
Mof_C 	C 	0.36664	0.0586	0.7455	0.059
Mof_C 	C 	0.34316	0.17098	0.2835	0.076
Mof_C 	C 	0.28982	0.16523	0.259	0.071
Mof_C 	C 	0.2876	0.32146	0.24	0.071
Mof_C 	C 	0.3128	0.31528	0.1078	0.392
Mof_C 	C 	0.25891	0.3176	0.3633	0.321
Mof_H 	H 	0.4796	0.1896	0.9015	0.036
Mof_O 	O 	0.52996	0.22674	0.7226	-0.31
Mof_O 	O 	0.52989	0.17468	0.84313	-0.426
Mof_O 	O 	0.39537	0.21806	0.9259	-0.443
Mof_O 	O 	0.43877	0.19356	0.9964	-0.446
Mof_C 	C 	0.2819	0.4412	0.7388	-0.257
Mof_H 	H 	0.3736	0.0979	0.7679	0.037
Mof_H 	H 	0.3602	0.1756	0.3199	0.029
Mof_C 	C 	0.34604	0.16356	0.1989	-0.135
Mof_C 	C 	0.29259	0.15532	0.1746	-0.119
Mof_H 	H 	0.271	0.1676	0.2786	0.031
Mof_H 	H 	0.2695	0.3176	0.2083	0.037
Mof_O 	O 	0.33581	0.30156	0.07435	-0.475
Mof_O 	O 	0.28746	0.32338	0.06802	-0.444
Mof_Co	Co	0.57319	0.17862	0.88843	1.154
Mof_Co	Co	0.36691	0.2581	0.00044	1.172
Mof_H 	H 	0.2767	0.4019	0.7619	0.135
Mof_C 	C 	0.32064	0.15422	0.1454	0.061
Mof_C 	C 	0.37589	0.1672	0.1652	0.347
Mof_C 	C 	0.26541	0.1499	0.1141	0.338
Mof_Co	Co	0.29183	0.31231	0.94829	1.168
Mof_O 	O 	0.60094	0.15969	0.78861	-0.402
Mof_O 	O 	0.62284	0.18016	0.91228	-0.498
Mof_N 	N 	0.57959	0.2803	0.8723	-0.203
Mof_O 	O 	0.39684	0.0525	0.9083	-0.252
Mof_H 	H 	0.3225	0.1471	0.0892	0.023
Mof_O 	O 	0.26527	0.11051	0.0563	-0.284
Mof_O 	O 	0.24381	0.18677	0.12813	-0.44
Mof_N 	N 	0.39896	0.31092	0.0759	-0.203
Mof_N 	N 	0.33366	0.19947	0.94084	-0.208
Mof_O 	O 	0.36336	0.33689	0.91629	-0.431
Mof_N 	N 	0.30414	0.21897	0.9301	-0.231
Mof_O 	O 	0.31733	0.37877	0.90791	-0.467
Mof_C 	C 	0.39891	0.3717	0.0976	0.127
Mof_C 	C 	0.33461	0.1398	0.9169	0.121
Mof_C 	C 	0.34479	0.3802	0.896	0.399
Mof_C 	C 	0.2887	0.1698	0.8994	0.126
Mof_C 	C 	0.43228	0.3238	0.178	0.125
Mof_N 	N 	0.41964	0.38295	0.1613	-0.176
Mof_H 	H 	0.3863	0.4031	0.0726	-0.01
Mof_N 	N 	0.30689	0.11851	0.8895	-0.173
Mof_H 	H 	0.3519	0.1148	0.9183	0.009
Mof_C 	C 	0.35457	0.44128	0.8561	-0.138
Mof_H 	H 	0.2682	0.1699	0.8863	0.002
Mof_H 	H 	0.4473	0.3158	0.2196	-0.007
Mof_C 	C 	0.42652	0.4425	0.203	0.232
Mof_C 	C 	0.29802	0.05704	0.853	0.254
Mof_C 	C 	0.37208	0.4413	0.7894	0.063
Mof_C 	C 	0.44039	0.4413	0.2814	-0.247
Mof_C 	C 	0.27959	0.058	0.7801	-0.276
Mof_H 	H 	0.3788	0.4023	0.7689	0.034
Mof_H 	H 	0.445	0.4021	0.3079	0.094
Mof_H 	H 	0.2732	0.0972	0.7564	0.151
Mof_O 	O 	0.39895	0.44667	0.6391	-0.269
Mof_Co	Co	0.07871	0.8223	0.53715	1.108
Mof_N 	N 	0.08324	0.72017	0.5568	-0.214
Mof_O 	O 	0.06332	0.80264	0.42024	-0.473
Mof_O 	O 	0.12782	0.81911	0.53796	-0.506
Mof_O 	O 	0.10575	0.8418	0.65015	-0.417
Mof_N 	N 	0.10331	0.68771	0.5123	-0.203
Mof_C 	C 	0.07057	0.6773	0.6003	0.119
Mof_C 	C 	0.07878	0.7818	0.3635	0.397
Mof_Co	Co	0.13667	0.74037	0.45512	1.173
Mof_C 	C 	0.12914	0.831	0.616	0.351
Mof_C 	C 	0.10155	0.6267	0.5307	0.126
Mof_N 	N 	0.08072	0.61734	0.5857	-0.174
Mof_H 	H 	0.0563	0.6867	0.637	0.003
Mof_O 	O 	0.10677	0.77948	0.36836	-0.441
Mof_C 	C 	0.06199	0.7566	0.286	-0.146
Mof_N 	N 	0.16919	0.80079	0.41158	-0.207
Mof_O 	O 	0.14308	0.66506	0.37464	-0.438
Mof_O 	O 	0.16518	0.69796	0.54968	-0.468
Mof_C 	C 	0.15867	0.83188	0.6655	-0.135
Mof_H 	H 	0.1129	0.594	0.5093	-0.011
Mof_C 	C 	0.07217	0.55765	0.6217	0.231
Mof_C 	C 	0.03142	0.7441	0.2856	0.077
Mof_C 	C 	0.07664	0.743	0.2167	0.088
Mof_N 	N 	0.19884	0.78239	0.4118	-0.222
Mof_C 	C 	0.16733	0.8598	0.3839	0.122
Mof_C 	C 	0.16163	0.62	0.3699	0.396
Mof_C 	C 	0.1877	0.6832	0.5952	0.398
Mof_C 	C 	0.15932	0.82779	0.7523	0.075
Mof_C 	C 	0.18536	0.83155	0.6278	0.066
Mof_C 	C 	0.05685	0.5588	0.693	-0.252
Mof_H 	H 	0.0215	0.7536	0.3323	0.021
Mof_C 	C 	0.01587	0.7177	0.216	-0.131
Mof_C 	C 	0.06134	0.7185	0.1458	-0.143
Mof_H 	H 	0.0971	0.7503	0.2175	0.033
Mof_Co	Co	0.21386	0.69182	0.44757	1.166
Mof_C 	C 	0.21315	0.83134	0.3833	0.121
Mof_N 	N 	0.1943	0.8818	0.3649	-0.174
Mof_H 	H 	0.1498	0.8839	0.3778	0.007
Mof_O 	O 	0.18858	0.62111	0.39949	-0.453
Mof_C 	C 	0.1516	0.5583	0.3278	-0.139
Mof_O 	O 	0.21346	0.67718	0.56971	-0.442
Mof_C 	C 	0.1847	0.6716	0.6859	-0.14
Mof_H 	H 	0.1415	0.8283	0.7778	0.03
Mof_C 	C 	0.18611	0.82305	0.8001	-0.139
Mof_C 	C 	0.21223	0.82542	0.6749	-0.123
Mof_H 	H 	0.1851	0.8355	0.5704	0.023
Mof_H 	H 	0.0514	0.5979	0.7163	0.126
Mof_C 	C 	0.03083	0.706	0.1461	0.078
Mof_C 	C 	0.98271	0.7055	0.2176	0.356
Mof_C 	C 	0.07691	0.7092	0.0688	0.406
Mof_O 	O 	0.23585	0.69509	0.31836	-0.351
Mof_O 	O 	0.25805	0.67697	0.44163	-0.421
Mof_H 	H 	0.2335	0.8318	0.3766	0.001
Mof_C 	C 	0.20195	0.94286	0.3286	0.243
Mof_C 	C 	0.13336	0.5586	0.2545	0.061
Mof_C 	C 	0.15684	0.67098	0.7165	0.076
Mof_C 	C 	0.21018	0.66523	0.741	0.071
Mof_C 	C 	0.2124	0.82146	0.76	0.071
Mof_C 	C 	0.1872	0.81528	0.8922	0.392
Mof_C 	C 	0.24109	0.8176	0.6367	0.321
Mof_H 	H 	0.0204	0.6896	0.0985	0.037
Mof_O 	O 	0.97004	0.72674	0.2774	-0.309
Mof_O 	O 	0.97011	0.67468	0.15687	-0.425
Mof_O 	O 	0.10463	0.71806	0.0741	-0.442
Mof_O 	O 	0.06123	0.69356	0.0036	-0.446
Mof_C 	C 	0.2181	0.9412	0.2612	-0.241
Mof_H 	H 	0.1264	0.5979	0.2321	0.036
Mof_H 	H 	0.1398	0.6756	0.6801	0.029
Mof_C 	C 	0.15396	0.66356	0.8011	-0.134
Mof_C 	C 	0.20741	0.65532	0.8254	-0.118
Mof_H 	H 	0.229	0.6676	0.7214	0.031
Mof_H 	H 	0.2305	0.8176	0.7917	0.037
Mof_O 	O 	0.16419	0.80156	0.92565	-0.475
Mof_O 	O 	0.21254	0.82338	0.93198	-0.443
Mof_Co	Co	0.92681	0.67862	0.11157	1.154
Mof_Co	Co	0.13309	0.7581	0.99956	1.172
Mof_H 	H 	0.2233	0.9019	0.2381	0.13
Mof_C 	C 	0.17936	0.65422	0.8546	0.062
Mof_C 	C 	0.12411	0.6672	0.8348	0.347
Mof_C 	C 	0.23459	0.6499	0.8859	0.337
Mof_Co	Co	0.20817	0.81231	0.05171	1.168
Mof_O 	O 	0.89906	0.65969	0.21139	-0.401
Mof_O 	O 	0.87716	0.68016	0.08772	-0.498
Mof_N 	N 	0.92041	0.7803	0.1277	-0.203
Mof_O 	O 	0.10316	0.5525	0.0917	-0.253
Mof_H 	H 	0.1775	0.6471	0.9108	0.024
Mof_O 	O 	0.23473	0.61051	0.9437	-0.283
Mof_O 	O 	0.25619	0.68677	0.87187	-0.44
Mof_N 	N 	0.10104	0.81092	0.9241	-0.203
Mof_N 	N 	0.16634	0.69947	0.05916	-0.208
Mof_O 	O 	0.13664	0.83689	0.08371	-0.43
Mof_N 	N 	0.19586	0.71897	0.0699	-0.231
Mof_O 	O 	0.18267	0.87877	0.09209	-0.464
Mof_C 	C 	0.10109	0.8717	0.9024	0.128
Mof_C 	C 	0.16539	0.6398	0.0831	0.122
Mof_C 	C 	0.15521	0.8802	0.104	0.396
Mof_C 	C 	0.2113	0.6698	0.1006	0.126
Mof_C 	C 	0.06772	0.8238	0.822	0.125
Mof_N 	N 	0.08036	0.88295	0.8387	-0.177
Mof_H 	H 	0.1137	0.9031	0.9274	-0.008
Mof_N 	N 	0.19311	0.61851	0.1105	-0.173
Mof_H 	H 	0.1481	0.6148	0.0817	0.009
Mof_C 	C 	0.14543	0.94128	0.1439	-0.127
Mof_H 	H 	0.2318	0.6699	0.1137	0.002
Mof_H 	H 	0.0527	0.8158	0.7804	-0.007
Mof_C 	C 	0.07348	0.9425	0.797	0.239
Mof_C 	C 	0.20198	0.55704	0.147	0.255
Mof_C 	C 	0.12792	0.9413	0.2106	0.071
Mof_C 	C 	0.05961	0.9413	0.7186	-0.231
Mof_C 	C 	0.22041	0.558	0.2199	-0.283
Mof_H 	H 	0.1212	0.9023	0.2311	0.032
Mof_H 	H 	0.055	0.9021	0.6921	0.09
Mof_H 	H 	0.2268	0.5972	0.2436	0.153
Mof_O 	O 	0.10105	0.94667	0.3609	-0.259
Mof_Co	Co	0.57871	0.3223	0.53715	1.107
Mof_N 	N 	0.58324	0.22017	0.5568	-0.214
Mof_O 	O 	0.56332	0.30264	0.42024	-0.474
Mof_O 	O 	0.62782	0.31911	0.53796	-0.506
Mof_O 	O 	0.60575	0.3418	0.65015	-0.418
Mof_N 	N 	0.60331	0.18771	0.5123	-0.203
Mof_C 	C 	0.57057	0.1773	0.6003	0.119
Mof_C 	C 	0.57878	0.2818	0.3635	0.397
Mof_Co	Co	0.63667	0.24037	0.45512	1.173
Mof_C 	C 	0.62914	0.331	0.616	0.35
Mof_C 	C 	0.60155	0.1267	0.5307	0.126
Mof_N 	N 	0.58072	0.11734	0.5857	-0.175
Mof_H 	H 	0.5563	0.1867	0.637	0.003
Mof_O 	O 	0.60677	0.27948	0.36836	-0.441
Mof_C 	C 	0.56199	0.2566	0.286	-0.147
Mof_N 	N 	0.66919	0.30079	0.41158	-0.207
Mof_O 	O 	0.64308	0.16506	0.37464	-0.437
Mof_O 	O 	0.66518	0.19796	0.54968	-0.468
Mof_C 	C 	0.65867	0.33188	0.6655	-0.136
Mof_H 	H 	0.6129	0.094	0.5093	-0.012
Mof_C 	C 	0.57217	0.05765	0.6217	0.231
Mof_C 	C 	0.53142	0.2441	0.2856	0.077
Mof_C 	C 	0.57664	0.243	0.2167	0.088
Mof_N 	N 	0.69884	0.28239	0.4118	-0.222
Mof_C 	C 	0.66733	0.3598	0.3839	0.121
Mof_C 	C 	0.66163	0.12	0.3699	0.394
Mof_C 	C 	0.6877	0.1832	0.5952	0.398
Mof_C 	C 	0.65932	0.32779	0.7523	0.074
Mof_C 	C 	0.68536	0.33155	0.6278	0.066
Mof_C 	C 	0.55685	0.0588	0.693	-0.246
Mof_H 	H 	0.5215	0.2536	0.3323	0.021
Mof_C 	C 	0.51587	0.2177	0.216	-0.132
Mof_C 	C 	0.56134	0.2185	0.1458	-0.144
Mof_H 	H 	0.5971	0.2503	0.2175	0.033
Mof_Co	Co	0.71386	0.19182	0.44757	1.166
Mof_C 	C 	0.71315	0.33134	0.3833	0.121
Mof_N 	N 	0.6943	0.3818	0.3649	-0.174
Mof_H 	H 	0.6498	0.3839	0.3778	0.006
Mof_O 	O 	0.68858	0.12111	0.39949	-0.453
Mof_C 	C 	0.6516	0.0583	0.3278	-0.135
Mof_O 	O 	0.71346	0.17718	0.56971	-0.442
Mof_C 	C 	0.6847	0.1716	0.6859	-0.14
Mof_H 	H 	0.6415	0.3283	0.7778	0.029
Mof_C 	C 	0.68611	0.32305	0.8001	-0.14
Mof_C 	C 	0.71223	0.32542	0.6749	-0.124
Mof_H 	H 	0.6851	0.3355	0.5704	0.022
Mof_H 	H 	0.5514	0.0979	0.7163	0.123
Mof_C 	C 	0.53083	0.206	0.1461	0.078
Mof_C 	C 	0.48271	0.2055	0.2176	0.356
Mof_C 	C 	0.57691	0.2092	0.0688	0.406
Mof_O 	O 	0.73585	0.19509	0.31836	-0.351
Mof_O 	O 	0.75805	0.17697	0.44163	-0.422
Mof_H 	H 	0.7335	0.3318	0.3766	0
Mof_C 	C 	0.70195	0.44286	0.3286	0.235
Mof_C 	C 	0.63336	0.0586	0.2545	0.059
Mof_C 	C 	0.65684	0.17098	0.7165	0.076
Mof_C 	C 	0.71018	0.16523	0.741	0.071
Mof_C 	C 	0.7124	0.32146	0.76	0.071
Mof_C 	C 	0.6872	0.31528	0.8922	0.392
Mof_C 	C 	0.74109	0.3176	0.6367	0.321
Mof_H 	H 	0.5204	0.1896	0.0985	0.036
Mof_O 	O 	0.47004	0.22674	0.2774	-0.31
Mof_O 	O 	0.47011	0.17468	0.15687	-0.426
Mof_O 	O 	0.60463	0.21806	0.0741	-0.443
Mof_O 	O 	0.56123	0.19356	0.0036	-0.446
Mof_C 	C 	0.7181	0.4412	0.2612	-0.257
Mof_H 	H 	0.6264	0.0979	0.2321	0.037
Mof_H 	H 	0.6398	0.1756	0.6801	0.029
Mof_C 	C 	0.65396	0.16356	0.8011	-0.135
Mof_C 	C 	0.70741	0.15532	0.8254	-0.119
Mof_H 	H 	0.729	0.1676	0.7214	0.031
Mof_H 	H 	0.7305	0.3176	0.7917	0.037
Mof_O 	O 	0.66419	0.30156	0.92565	-0.475
Mof_O 	O 	0.71254	0.32338	0.93198	-0.444
Mof_Co	Co	0.42681	0.17862	0.11157	1.154
Mof_Co	Co	0.63309	0.2581	0.99956	1.172
Mof_H 	H 	0.7233	0.4019	0.2381	0.135
Mof_C 	C 	0.67936	0.15422	0.8546	0.061
Mof_C 	C 	0.62411	0.1672	0.8348	0.347
Mof_C 	C 	0.73459	0.1499	0.8859	0.338
Mof_Co	Co	0.70817	0.31231	0.05171	1.168
Mof_O 	O 	0.39906	0.15969	0.21139	-0.402
Mof_O 	O 	0.37716	0.18016	0.08772	-0.498
Mof_N 	N 	0.42041	0.2803	0.1277	-0.203
Mof_O 	O 	0.60316	0.0525	0.0917	-0.252
Mof_H 	H 	0.6775	0.1471	0.9108	0.023
Mof_O 	O 	0.73473	0.11051	0.9437	-0.284
Mof_O 	O 	0.75619	0.18677	0.87187	-0.44
Mof_N 	N 	0.60104	0.31092	0.9241	-0.203
Mof_N 	N 	0.66634	0.19947	0.05916	-0.208
Mof_O 	O 	0.63664	0.33689	0.08371	-0.431
Mof_N 	N 	0.69586	0.21897	0.0699	-0.231
Mof_O 	O 	0.68267	0.37877	0.09209	-0.467
Mof_C 	C 	0.60109	0.3717	0.9024	0.127
Mof_C 	C 	0.66539	0.1398	0.0831	0.121
Mof_C 	C 	0.65521	0.3802	0.104	0.399
Mof_C 	C 	0.7113	0.1698	0.1006	0.126
Mof_C 	C 	0.56772	0.3238	0.822	0.125
Mof_N 	N 	0.58036	0.38295	0.8387	-0.176
Mof_H 	H 	0.6137	0.4031	0.9274	-0.01
Mof_N 	N 	0.69311	0.11851	0.1105	-0.173
Mof_H 	H 	0.6481	0.1148	0.0817	0.009
Mof_C 	C 	0.64543	0.44128	0.1439	-0.138
Mof_H 	H 	0.7318	0.1699	0.1137	0.002
Mof_H 	H 	0.5527	0.3158	0.7804	-0.007
Mof_C 	C 	0.57348	0.4425	0.797	0.232
Mof_C 	C 	0.70198	0.05704	0.147	0.254
Mof_C 	C 	0.62792	0.4413	0.2106	0.063
Mof_C 	C 	0.55961	0.4413	0.7186	-0.247
Mof_C 	C 	0.72041	0.058	0.2199	-0.276
Mof_H 	H 	0.6212	0.4023	0.2311	0.034
Mof_H 	H 	0.555	0.4021	0.6921	0.094
Mof_H 	H 	0.7268	0.0972	0.2436	0.151
Mof_O 	O 	0.60105	0.44667	0.3609	-0.269
Mof_C 	C 	0.07927	0.5	0.5854	-0.285
Mof_C 	C 	0.0499	0.5	0.7283	0.162
Mof_H 	H 	0.0888	0.5	0.5366	0.14
Mof_C 	C 	0.16217	0.5	0.36	0.08
Mof_H 	H 	0.0403	0.5	0.777	-0.029
Mof_C 	C 	0.12503	0.5	0.2129	-0.107
Mof_H 	H 	0.1767	0.5	0.4044	0.027
Mof_C 	C 	0.1093	0.5	0.1262	0.322
Mof_C 	C 	0.19281	0.5	0.1095	-0.3
Mof_C 	C 	0.22915	0.5	0.2572	0.21
Mof_H 	H 	0.1807	0.5	0.06	0.156
Mof_H 	H 	0.2409	0.5	0.3073	-0.032
Mof_C 	C 	0.57927	0	0.5854	-0.298
Mof_C 	C 	0.5499	0	0.7283	0.142
Mof_H 	H 	0.5888	-6.75606e-33	0.5366	0.141
Mof_C 	C 	0.66217	0	0.36	0.062
Mof_H 	H 	0.5403	-6.75606e-33	0.777	-0.026
Mof_C 	C 	0.62503	0	0.2129	-0.114
Mof_H 	H 	0.6767	-3.37803e-33	0.4044	0.03
Mof_C 	C 	0.6093	-8.44507e-34	0.1262	0.31
Mof_C 	C 	0.69281	0	0.1095	-0.312
Mof_C 	C 	0.72915	0	0.2572	0.189
Mof_H 	H 	0.6807	0	0.06	0.157
Mof_H 	H 	0.7409	0	0.3073	-0.028
Mof_C 	C 	0.92073	0.5	0.4146	-0.285
Mof_C 	C 	0.9501	0.5	0.2717	0.162
Mof_H 	H 	0.9112	0.5	0.4634	0.14
Mof_C 	C 	0.83783	0.5	0.64	0.08
Mof_H 	H 	0.9597	0.5	0.223	-0.029
Mof_C 	C 	0.87497	0.5	0.7871	-0.107
Mof_H 	H 	0.8233	0.5	0.5956	0.027
Mof_C 	C 	0.8907	0.5	0.8738	0.322
Mof_C 	C 	0.80719	0.5	0.8905	-0.3
Mof_C 	C 	0.77085	0.5	0.7428	0.21
Mof_H 	H 	0.8193	0.5	0.94	0.156
Mof_H 	H 	0.7591	0.5	0.6927	-0.032
Mof_C 	C 	0.42073	0	0.4146	-0.298
Mof_C 	C 	0.4501	-1.68901e-33	0.2717	0.142
Mof_H 	H 	0.4112	0	0.4634	0.141
Mof_C 	C 	0.33783	0	0.64	0.062
Mof_H 	H 	0.4597	0	0.223	-0.026
Mof_C 	C 	0.37497	0	0.7871	-0.114
Mof_H 	H 	0.3233	0	0.5956	0.03
Mof_C 	C 	0.3907	-6.75606e-33	0.8738	0.31
Mof_C 	C 	0.30719	0	0.8905	-0.312
Mof_C 	C 	0.27085	0	0.7428	0.189
Mof_H 	H 	0.3193	-6.75606e-33	0.94	0.157
Mof_H 	H 	0.2591	0	0.6927	-0.028
Mof_C 	C 	0.19312	-3.37803e-33	0.3635	-0.299
Mof_C 	C 	0.22664	0	0.2275	0.154
Mof_H 	H 	0.1817	0	0.4088	0.146
Mof_H 	H 	0.2381	0	0.1823	-0.008
Mof_C 	C 	0.15529	-8.44507e-34	0.1147	0.062
Mof_C 	C 	0.07994	0	0.8377	-0.299
Mof_C 	C 	0.1204	0	0.247	-0.116
Mof_H 	H 	0.1689	8.44507e-34	0.0745	0.029
Mof_C 	C 	0.05245	0	0.679	0.124
Mof_H 	H 	0.0885	0	0.8921	0.141
Mof_C 	C 	0.10588	0	0.3292	0.313
Mof_H 	H 	0.0428	0	0.6259	-0.048
Mof_C 	C 	0.69312	0.5	0.3635	-0.286
Mof_C 	C 	0.72664	0.5	0.2275	0.173
Mof_H 	H 	0.6817	0.5	0.4088	0.145
Mof_H 	H 	0.7381	0.5	0.1823	-0.011
Mof_C 	C 	0.65529	0.5	0.1147	0.079
Mof_C 	C 	0.57994	0.5	0.8377	-0.286
Mof_C 	C 	0.6204	0.5	0.247	-0.108
Mof_H 	H 	0.6689	0.5	0.0745	0.027
Mof_C 	C 	0.55245	0.5	0.679	0.143
Mof_H 	H 	0.5885	0.5	0.8921	0.14
Mof_C 	C 	0.60588	0.5	0.3292	0.325
Mof_H 	H 	0.5428	0.5	0.6259	-0.051
Mof_C 	C 	0.80688	-6.75606e-33	0.6365	-0.299
Mof_C 	C 	0.77336	0	0.7725	0.154
Mof_H 	H 	0.8183	0	0.5912	0.146
Mof_H 	H 	0.7619	-6.75606e-33	0.8177	-0.008
Mof_C 	C 	0.84471	0	0.8853	0.062
Mof_C 	C 	0.92006	-1.68901e-33	0.1623	-0.299
Mof_C 	C 	0.8796	0	0.753	-0.116
Mof_H 	H 	0.8311	-6.75606e-33	0.9255	0.029
Mof_C 	C 	0.94755	-3.37803e-33	0.321	0.124
Mof_H 	H 	0.9115	-8.44507e-34	0.1079	0.141
Mof_C 	C 	0.89412	0	0.6708	0.313
Mof_H 	H 	0.9572	0	0.3741	-0.048
Mof_C 	C 	0.30688	0.5	0.6365	-0.286
Mof_C 	C 	0.27336	0.5	0.7725	0.173
Mof_H 	H 	0.3183	0.5	0.5912	0.145
Mof_H 	H 	0.2619	0.5	0.8177	-0.011
Mof_C 	C 	0.34471	0.5	0.8853	0.079
Mof_C 	C 	0.42006	0.5	0.1623	-0.286
Mof_C 	C 	0.3796	0.5	0.753	-0.108
Mof_H 	H 	0.3311	0.5	0.9255	0.027
Mof_C 	C 	0.44755	0.5	0.321	0.143
Mof_H 	H 	0.4115	0.5	0.1079	0.14
Mof_C 	C 	0.39412	0.5	0.6708	0.325
Mof_H 	H 	0.4572	0.5	0.3741	-0.051
_end
