data_functionalizedCrystal
_audit_creation_method	'EQeq! by Chris Wilmer'
_symmetry_space_group_name_H-M	'P1'
_symmetry_Int_Tables_number	1
_symmetry_cell_setting	triclinic
loop_
_symmetry_equiv_pos_as_xyz
  x,y,z
_cell_length_a	11.5693
_cell_length_b	11.5693
_cell_length_c	56.235
_cell_angle_alpha	90
_cell_angle_beta	90
_cell_angle_gamma	120
loop_
_atom_site_label
_atom_site_type_symbol
_atom_site_fract_x
_atom_site_fract_y
_atom_site_fract_z
_atom_site_charge
Mof_Cd	Cd	0.9235	0.28681	0.53216	0.338
Mof_O 	O 	0.7495	0.1878	0.56049	-0.276
Mof_O 	O 	0.801	0.3958	0.55322	-0.265
Mof_O 	O 	0.042	0.5047	0.51517	-0.683
Mof_H 	H 	0.0517	0.4376	0.5127	0.31
Mof_H 	H 	0.0034	0.5501	0.5176	0.338
Mof_N 	N 	0.0872	0.3641	0.55997	-0.172
Mof_N 	N 	0.4273	0.5865	0.60173	-0.256
Mof_H 	H 	0.501	0.608	0.5943	0.137
Mof_N 	N 	0.5458	0.7785	0.6679	-0.174
Mof_C 	C 	0.2117	0.4207	0.55156	0.116
Mof_H 	H 	0.2234	0.4109	0.5351	-0.018
Mof_C 	C 	0.3238	0.4923	0.56526	-0.207
Mof_H 	H 	0.41	0.5296	0.5583	0.104
Mof_C 	C 	0.31	0.5101	0.5897	0.2
Mof_C 	C 	0.1801	0.4468	0.59856	-0.209
Mof_H 	H 	0.1649	0.4511	0.6151	0.103
Mof_C 	C 	0.074	0.3782	0.58342	0.124
Mof_H 	H 	0.9865	0.3385	0.5899	0.005
Mof_C 	C 	0.4155	0.7079	0.66233	0.116
Mof_H 	H 	0.3531	0.7063	0.6735	0.004
Mof_C 	C 	0.367	0.638	0.64155	-0.212
Mof_H 	H 	0.2736	0.5874	0.6388	0.114
Mof_C 	C 	0.457	0.6418	0.62435	0.196
Mof_C 	C 	0.5921	0.7137	0.63028	-0.218
Mof_H 	H 	0.6572	0.7175	0.6195	0.108
Mof_C 	C 	0.6307	0.7788	0.65168	0.118
Mof_H 	H 	0.7234	0.827	0.6552	-0.023
Mof_C 	C 	0.727	0.2845	0.56223	0.293
Mof_C 	C 	0.6001	0.2589	0.57401	-0.042
Mof_C 	C 	0.4793	0.1587	0.56537	-0.024
Mof_H 	H 	0.479	0.1024	0.5531	0.047
Mof_C 	C 	0.358	0.1382	0.57425	-0.039
Mof_H 	H 	0.2762	0.0693	0.568	0.044
Mof_Cd	Cd	0.71319	0.63669	0.8655	0.343
Mof_O 	O 	0.8122	0.5617	0.89382	-0.275
Mof_O 	O 	0.6042	0.4052	0.88655	-0.263
Mof_O 	O 	0.4953	0.5373	0.8485	-0.682
Mof_H 	H 	0.5624	0.6141	0.84603	0.308
Mof_H 	H 	0.4499	0.4533	0.85093	0.337
Mof_N 	N 	0.6359	0.7231	0.8933	-0.171
Mof_N 	N 	0.4135	0.8408	0.93506	-0.256
Mof_H 	H 	0.392	0.893	0.92763	0.136
Mof_N 	N 	0.2215	0.7673	0.00123	-0.174
Mof_C 	C 	0.5793	0.791	0.88489	0.114
Mof_H 	H 	0.5891	0.8125	0.86843	-0.018
Mof_C 	C 	0.5077	0.8315	0.89859	-0.205
Mof_H 	H 	0.4704	0.8804	0.89163	0.102
Mof_C 	C 	0.4899	0.7999	0.92303	0.197
Mof_C 	C 	0.5532	0.7333	0.93189	-0.203
Mof_H 	H 	0.5489	0.7138	0.94843	0.1
Mof_C 	C 	0.6218	0.6958	0.91675	0.111
Mof_H 	H 	0.6615	0.648	0.92323	0.013
Mof_C 	C 	0.2921	0.7076	0.99566	0.116
Mof_H 	H 	0.2937	0.6468	0.00683	0.003
Mof_C 	C 	0.362	0.729	0.97488	-0.212
Mof_H 	H 	0.4126	0.6862	0.97213	0.114
Mof_C 	C 	0.3582	0.8152	0.95768	0.195
Mof_C 	C 	0.2863	0.8784	0.96361	-0.217
Mof_H 	H 	0.2825	0.9397	0.95283	0.108
Mof_C 	C 	0.2212	0.8519	0.98501	0.117
Mof_H 	H 	0.173	0.8964	0.98853	-0.023
Mof_C 	C 	0.7155	0.4425	0.89556	0.293
Mof_C 	C 	0.7411	0.3412	0.90734	-0.042
Mof_C 	C 	0.8413	0.3206	0.8987	-0.023
Mof_H 	H 	0.8976	0.3766	0.88643	0.047
Mof_C 	C 	0.8618	0.2198	0.90758	-0.039
Mof_H 	H 	0.9307	0.2069	0.90133	0.044
Mof_Cd	Cd	0.36331	0.0765	0.19883	0.338
Mof_O 	O 	0.4383	0.2505	0.22716	-0.276
Mof_O 	O 	0.5948	0.199	0.21989	-0.264
Mof_O 	O 	0.4627	0.958	0.18184	-0.682
Mof_H 	H 	0.3859	0.9483	0.17937	0.311
Mof_H 	H 	0.5467	0.9966	0.18427	0.339
Mof_N 	N 	0.2769	0.9128	0.22664	-0.171
Mof_N 	N 	0.1592	0.5727	0.2684	-0.256
Mof_H 	H 	0.107	0.499	0.26097	0.136
Mof_N 	N 	0.2327	0.4542	0.33457	-0.174
Mof_C 	C 	0.209	0.7883	0.21823	0.115
Mof_H 	H 	0.1875	0.7766	0.20177	-0.018
Mof_C 	C 	0.1685	0.6762	0.23193	-0.207
Mof_H 	H 	0.1196	0.59	0.22497	0.103
Mof_C 	C 	0.2001	0.69	0.25637	0.2
Mof_C 	C 	0.2667	0.8199	0.26523	-0.209
Mof_H 	H 	0.2862	0.8351	0.28177	0.103
Mof_C 	C 	0.3042	0.926	0.25009	0.124
Mof_H 	H 	0.352	0.0135	0.25657	0.004
Mof_C 	C 	0.2924	0.5845	0.329	0.117
Mof_H 	H 	0.3532	0.6469	0.34017	0.004
Mof_C 	C 	0.271	0.633	0.30822	-0.212
Mof_H 	H 	0.3138	0.7264	0.30547	0.114
Mof_C 	C 	0.1848	0.543	0.29102	0.196
Mof_C 	C 	0.1216	0.4079	0.29695	-0.217
Mof_H 	H 	0.0603	0.3428	0.28617	0.108
Mof_C 	C 	0.1481	0.3693	0.31835	0.118
Mof_H 	H 	0.1036	0.2766	0.32187	-0.022
Mof_C 	C 	0.5575	0.273	0.2289	0.294
Mof_C 	C 	0.6588	0.3999	0.24068	-0.042
Mof_C 	C 	0.6794	0.5207	0.23204	-0.024
Mof_H 	H 	0.6234	0.521	0.21977	0.047
Mof_C 	C 	0.7802	0.642	0.24092	-0.039
Mof_H 	H 	0.7931	0.7238	0.23467	0.044
Mof_Cd	Cd	0.0765	0.71319	0.03216	0.339
Mof_O 	O 	0.2505	0.8122	0.06049	-0.275
Mof_O 	O 	0.199	0.6042	0.05322	-0.264
Mof_O 	O 	0.958	0.4953	0.01517	-0.682
Mof_H 	H 	0.9483	0.5624	0.0127	0.311
Mof_H 	H 	0.9966	0.4499	0.0176	0.339
Mof_N 	N 	0.9128	0.6359	0.05997	-0.171
Mof_N 	N 	0.5727	0.4135	0.10173	-0.256
Mof_H 	H 	0.499	0.392	0.0943	0.137
Mof_N 	N 	0.4542	0.2215	0.1679	-0.174
Mof_C 	C 	0.7883	0.5793	0.05156	0.116
Mof_H 	H 	0.7766	0.5891	0.0351	-0.018
Mof_C 	C 	0.6762	0.5077	0.06526	-0.207
Mof_H 	H 	0.59	0.4704	0.0583	0.104
Mof_C 	C 	0.69	0.4899	0.0897	0.2
Mof_C 	C 	0.8199	0.5532	0.09856	-0.209
Mof_H 	H 	0.8351	0.5489	0.1151	0.103
Mof_C 	C 	0.926	0.6218	0.08342	0.124
Mof_H 	H 	0.0135	0.6615	0.0899	0.005
Mof_C 	C 	0.5845	0.2921	0.16233	0.116
Mof_H 	H 	0.6469	0.2937	0.1735	0.004
Mof_C 	C 	0.633	0.362	0.14155	-0.212
Mof_H 	H 	0.7264	0.4126	0.1388	0.114
Mof_C 	C 	0.543	0.3582	0.12435	0.196
Mof_C 	C 	0.4079	0.2863	0.13028	-0.218
Mof_H 	H 	0.3428	0.2825	0.1195	0.108
Mof_C 	C 	0.3693	0.2212	0.15168	0.118
Mof_H 	H 	0.2766	0.173	0.1552	-0.023
Mof_C 	C 	0.273	0.7155	0.06223	0.293
Mof_C 	C 	0.3999	0.7411	0.07401	-0.042
Mof_C 	C 	0.5207	0.8413	0.06537	-0.024
Mof_H 	H 	0.521	0.8976	0.0531	0.047
Mof_C 	C 	0.642	0.8618	0.07425	-0.039
Mof_H 	H 	0.7238	0.9307	0.068	0.044
Mof_Cd	Cd	0.28681	0.36331	0.3655	0.343
Mof_O 	O 	0.1878	0.4383	0.39382	-0.275
Mof_O 	O 	0.3958	0.5948	0.38655	-0.263
Mof_O 	O 	0.5047	0.4627	0.3485	-0.682
Mof_H 	H 	0.4376	0.3859	0.34603	0.308
Mof_H 	H 	0.5501	0.5467	0.35093	0.337
Mof_N 	N 	0.3641	0.2769	0.3933	-0.171
Mof_N 	N 	0.5865	0.1592	0.43506	-0.256
Mof_H 	H 	0.608	0.107	0.42763	0.136
Mof_N 	N 	0.7785	0.2327	0.50123	-0.174
Mof_C 	C 	0.4207	0.209	0.38489	0.114
Mof_H 	H 	0.4109	0.1875	0.36843	-0.018
Mof_C 	C 	0.4923	0.1685	0.39859	-0.205
Mof_H 	H 	0.5296	0.1196	0.39163	0.102
Mof_C 	C 	0.5101	0.2001	0.42303	0.197
Mof_C 	C 	0.4468	0.2667	0.43189	-0.203
Mof_H 	H 	0.4511	0.2862	0.44843	0.1
Mof_C 	C 	0.3782	0.3042	0.41675	0.111
Mof_H 	H 	0.3385	0.352	0.42323	0.013
Mof_C 	C 	0.7079	0.2924	0.49566	0.116
Mof_H 	H 	0.7063	0.3532	0.50683	0.003
Mof_C 	C 	0.638	0.271	0.47488	-0.212
Mof_H 	H 	0.5874	0.3138	0.47213	0.114
Mof_C 	C 	0.6418	0.1848	0.45768	0.195
Mof_C 	C 	0.7137	0.1216	0.46361	-0.217
Mof_H 	H 	0.7175	0.0603	0.45283	0.108
Mof_C 	C 	0.7788	0.1481	0.48501	0.117
Mof_H 	H 	0.827	0.1036	0.48853	-0.023
Mof_C 	C 	0.2845	0.5575	0.39556	0.293
Mof_C 	C 	0.2589	0.6588	0.40734	-0.042
Mof_C 	C 	0.1587	0.6794	0.3987	-0.023
Mof_H 	H 	0.1024	0.6234	0.38643	0.047
Mof_C 	C 	0.1382	0.7802	0.40758	-0.039
Mof_H 	H 	0.0693	0.7931	0.40133	0.044
Mof_Cd	Cd	0.63669	0.9235	0.69883	0.338
Mof_O 	O 	0.5617	0.7495	0.72716	-0.276
Mof_O 	O 	0.4052	0.801	0.71989	-0.264
Mof_O 	O 	0.5373	0.042	0.68184	-0.682
Mof_H 	H 	0.6141	0.0517	0.67937	0.311
Mof_H 	H 	0.4533	0.0034	0.68427	0.339
Mof_N 	N 	0.7231	0.0872	0.72664	-0.171
Mof_N 	N 	0.8408	0.4273	0.7684	-0.256
Mof_H 	H 	0.893	0.501	0.76097	0.136
Mof_N 	N 	0.7673	0.5458	0.83457	-0.174
Mof_C 	C 	0.791	0.2117	0.71823	0.115
Mof_H 	H 	0.8125	0.2234	0.70177	-0.018
Mof_C 	C 	0.8315	0.3238	0.73193	-0.207
Mof_H 	H 	0.8804	0.41	0.72497	0.103
Mof_C 	C 	0.7999	0.31	0.75637	0.2
Mof_C 	C 	0.7333	0.1801	0.76523	-0.209
Mof_H 	H 	0.7138	0.1649	0.78177	0.103
Mof_C 	C 	0.6958	0.074	0.75009	0.124
Mof_H 	H 	0.648	0.9865	0.75657	0.004
Mof_C 	C 	0.7076	0.4155	0.829	0.117
Mof_H 	H 	0.6468	0.3531	0.84017	0.004
Mof_C 	C 	0.729	0.367	0.80822	-0.212
Mof_H 	H 	0.6862	0.2736	0.80547	0.114
Mof_C 	C 	0.8152	0.457	0.79102	0.196
Mof_C 	C 	0.8784	0.5921	0.79695	-0.217
Mof_H 	H 	0.9397	0.6572	0.78617	0.108
Mof_C 	C 	0.8519	0.6307	0.81835	0.118
Mof_H 	H 	0.8964	0.7234	0.82187	-0.022
Mof_C 	C 	0.4425	0.727	0.7289	0.294
Mof_C 	C 	0.3412	0.6001	0.74068	-0.042
Mof_C 	C 	0.3206	0.4793	0.73204	-0.024
Mof_H 	H 	0.3766	0.479	0.71977	0.047
Mof_C 	C 	0.2198	0.358	0.74092	-0.039
Mof_H 	H 	0.2069	0.2762	0.73467	0.044
Mof_Cd	Cd	0.28681	0.9235	0.80117	0.339
Mof_O 	O 	0.1878	0.7495	0.77284	-0.275
Mof_O 	O 	0.3958	0.801	0.78011	-0.264
Mof_O 	O 	0.5047	0.042	0.81816	-0.682
Mof_H 	H 	0.4376	0.0517	0.82063	0.311
Mof_H 	H 	0.5501	0.0034	0.81573	0.339
Mof_N 	N 	0.3641	0.0872	0.77336	-0.171
Mof_N 	N 	0.5865	0.4273	0.7316	-0.256
Mof_H 	H 	0.608	0.501	0.73903	0.137
Mof_N 	N 	0.7785	0.5458	0.66543	-0.174
Mof_C 	C 	0.4207	0.2117	0.78177	0.116
Mof_H 	H 	0.4109	0.2234	0.79823	-0.018
Mof_C 	C 	0.4923	0.3238	0.76807	-0.207
Mof_H 	H 	0.5296	0.41	0.77503	0.104
Mof_C 	C 	0.5101	0.31	0.74363	0.2
Mof_C 	C 	0.4468	0.1801	0.73477	-0.209
Mof_H 	H 	0.4511	0.1649	0.71823	0.103
Mof_C 	C 	0.3782	0.074	0.74991	0.124
Mof_H 	H 	0.3385	0.9865	0.74343	0.005
Mof_C 	C 	0.7079	0.4155	0.671	0.116
Mof_H 	H 	0.7063	0.3531	0.65983	0.004
Mof_C 	C 	0.638	0.367	0.69178	-0.212
Mof_H 	H 	0.5874	0.2736	0.69453	0.114
Mof_C 	C 	0.6418	0.457	0.70898	0.196
Mof_C 	C 	0.7137	0.5921	0.70305	-0.218
Mof_H 	H 	0.7175	0.6572	0.71383	0.108
Mof_C 	C 	0.7788	0.6307	0.68165	0.118
Mof_H 	H 	0.827	0.7234	0.67813	-0.023
Mof_C 	C 	0.2845	0.727	0.7711	0.293
Mof_C 	C 	0.2589	0.6001	0.75932	-0.042
Mof_C 	C 	0.1587	0.4793	0.76796	-0.024
Mof_H 	H 	0.1024	0.479	0.78023	0.047
Mof_C 	C 	0.1382	0.358	0.75908	-0.039
Mof_H 	H 	0.0693	0.2762	0.76533	0.044
Mof_Cd	Cd	0.63669	0.71319	0.46784	0.343
Mof_O 	O 	0.5617	0.8122	0.43951	-0.275
Mof_O 	O 	0.4052	0.6042	0.44678	-0.262
Mof_O 	O 	0.5373	0.4953	0.48483	-0.682
Mof_H 	H 	0.6141	0.5624	0.4873	0.308
Mof_H 	H 	0.4533	0.4499	0.4824	0.337
Mof_N 	N 	0.7231	0.6359	0.44003	-0.171
Mof_N 	N 	0.8408	0.4135	0.39827	-0.256
Mof_H 	H 	0.893	0.392	0.4057	0.136
Mof_N 	N 	0.7673	0.2215	0.3321	-0.174
Mof_C 	C 	0.791	0.5793	0.44844	0.114
Mof_H 	H 	0.8125	0.5891	0.4649	-0.018
Mof_C 	C 	0.8315	0.5077	0.43474	-0.205
Mof_H 	H 	0.8804	0.4704	0.4417	0.102
Mof_C 	C 	0.7999	0.4899	0.4103	0.197
Mof_C 	C 	0.7333	0.5532	0.40144	-0.203
Mof_H 	H 	0.7138	0.5489	0.3849	0.1
Mof_C 	C 	0.6958	0.6218	0.41658	0.111
Mof_H 	H 	0.648	0.6615	0.4101	0.013
Mof_C 	C 	0.7076	0.2921	0.33767	0.116
Mof_H 	H 	0.6468	0.2937	0.3265	0.003
Mof_C 	C 	0.729	0.362	0.35845	-0.212
Mof_H 	H 	0.6862	0.4126	0.3612	0.114
Mof_C 	C 	0.8152	0.3582	0.37565	0.195
Mof_C 	C 	0.8784	0.2863	0.36972	-0.217
Mof_H 	H 	0.9397	0.2825	0.3805	0.108
Mof_C 	C 	0.8519	0.2212	0.34832	0.117
Mof_H 	H 	0.8964	0.173	0.3448	-0.023
Mof_C 	C 	0.4425	0.7155	0.43777	0.293
Mof_C 	C 	0.3412	0.7411	0.42599	-0.042
Mof_C 	C 	0.3206	0.8413	0.43463	-0.023
Mof_H 	H 	0.3766	0.8976	0.4469	0.047
Mof_C 	C 	0.2198	0.8618	0.42575	-0.039
Mof_H 	H 	0.2069	0.9307	0.432	0.044
Mof_Cd	Cd	0.0765	0.36331	0.1345	0.339
Mof_O 	O 	0.2505	0.4383	0.10618	-0.276
Mof_O 	O 	0.199	0.5948	0.11345	-0.264
Mof_O 	O 	0.958	0.4627	0.1515	-0.682
Mof_H 	H 	0.9483	0.3859	0.15397	0.311
Mof_H 	H 	0.9966	0.5467	0.14907	0.339
Mof_N 	N 	0.9128	0.2769	0.1067	-0.171
Mof_N 	N 	0.5727	0.1592	0.06494	-0.256
Mof_H 	H 	0.499	0.107	0.07237	0.136
Mof_N 	N 	0.4542	0.2327	0.99877	-0.174
Mof_C 	C 	0.7883	0.209	0.11511	0.115
Mof_H 	H 	0.7766	0.1875	0.13157	-0.018
Mof_C 	C 	0.6762	0.1685	0.10141	-0.207
Mof_H 	H 	0.59	0.1196	0.10837	0.103
Mof_C 	C 	0.69	0.2001	0.07697	0.2
Mof_C 	C 	0.8199	0.2667	0.06811	-0.209
Mof_H 	H 	0.8351	0.2862	0.05157	0.103
Mof_C 	C 	0.926	0.3042	0.08325	0.124
Mof_H 	H 	0.0135	0.352	0.07677	0.004
Mof_C 	C 	0.5845	0.2924	0.00434	0.117
Mof_H 	H 	0.6469	0.3532	0.99317	0.004
Mof_C 	C 	0.633	0.271	0.02512	-0.212
Mof_H 	H 	0.7264	0.3138	0.02787	0.114
Mof_C 	C 	0.543	0.1848	0.04232	0.196
Mof_C 	C 	0.4079	0.1216	0.03639	-0.217
Mof_H 	H 	0.3428	0.0603	0.04717	0.108
Mof_C 	C 	0.3693	0.1481	0.01499	0.118
Mof_H 	H 	0.2766	0.1036	0.01147	-0.022
Mof_C 	C 	0.273	0.5575	0.10444	0.294
Mof_C 	C 	0.3999	0.6588	0.09266	-0.042
Mof_C 	C 	0.5207	0.6794	0.1013	-0.024
Mof_H 	H 	0.521	0.6234	0.11357	0.047
Mof_C 	C 	0.642	0.7802	0.09242	-0.039
Mof_H 	H 	0.7238	0.7931	0.09867	0.044
Mof_Cd	Cd	0.71319	0.0765	0.30117	0.339
Mof_O 	O 	0.8122	0.2505	0.27284	-0.275
Mof_O 	O 	0.6042	0.199	0.28011	-0.264
Mof_O 	O 	0.4953	0.958	0.31816	-0.682
Mof_H 	H 	0.5624	0.9483	0.32063	0.311
Mof_H 	H 	0.4499	0.9966	0.31573	0.339
Mof_N 	N 	0.6359	0.9128	0.27336	-0.171
Mof_N 	N 	0.4135	0.5727	0.2316	-0.256
Mof_H 	H 	0.392	0.499	0.23903	0.137
Mof_N 	N 	0.2215	0.4542	0.16543	-0.174
Mof_C 	C 	0.5793	0.7883	0.28177	0.116
Mof_H 	H 	0.5891	0.7766	0.29823	-0.018
Mof_C 	C 	0.5077	0.6762	0.26807	-0.207
Mof_H 	H 	0.4704	0.59	0.27503	0.104
Mof_C 	C 	0.4899	0.69	0.24363	0.2
Mof_C 	C 	0.5532	0.8199	0.23477	-0.209
Mof_H 	H 	0.5489	0.8351	0.21823	0.103
Mof_C 	C 	0.6218	0.926	0.24991	0.124
Mof_H 	H 	0.6615	0.0135	0.24343	0.005
Mof_C 	C 	0.2921	0.5845	0.171	0.116
Mof_H 	H 	0.2937	0.6469	0.15983	0.004
Mof_C 	C 	0.362	0.633	0.19178	-0.212
Mof_H 	H 	0.4126	0.7264	0.19453	0.114
Mof_C 	C 	0.3582	0.543	0.20898	0.196
Mof_C 	C 	0.2863	0.4079	0.20305	-0.218
Mof_H 	H 	0.2825	0.3428	0.21383	0.108
Mof_C 	C 	0.2212	0.3693	0.18165	0.118
Mof_H 	H 	0.173	0.2766	0.17813	-0.023
Mof_C 	C 	0.7155	0.273	0.2711	0.293
Mof_C 	C 	0.7411	0.3999	0.25932	-0.042
Mof_C 	C 	0.8413	0.5207	0.26796	-0.024
Mof_H 	H 	0.8976	0.521	0.28023	0.047
Mof_C 	C 	0.8618	0.642	0.25908	-0.039
Mof_H 	H 	0.9307	0.7238	0.26533	0.044
Mof_Cd	Cd	0.36331	0.28681	0.96784	0.343
Mof_O 	O 	0.4383	0.1878	0.93951	-0.275
Mof_O 	O 	0.5948	0.3958	0.94678	-0.262
Mof_O 	O 	0.4627	0.5047	0.98483	-0.682
Mof_H 	H 	0.3859	0.4376	0.9873	0.308
Mof_H 	H 	0.5467	0.5501	0.9824	0.337
Mof_N 	N 	0.2769	0.3641	0.94003	-0.171
Mof_N 	N 	0.1592	0.5865	0.89827	-0.256
Mof_H 	H 	0.107	0.608	0.9057	0.136
Mof_N 	N 	0.2327	0.7785	0.8321	-0.174
Mof_C 	C 	0.209	0.4207	0.94844	0.114
Mof_H 	H 	0.1875	0.4109	0.9649	-0.018
Mof_C 	C 	0.1685	0.4923	0.93474	-0.205
Mof_H 	H 	0.1196	0.5296	0.9417	0.102
Mof_C 	C 	0.2001	0.5101	0.9103	0.197
Mof_C 	C 	0.2667	0.4468	0.90144	-0.203
Mof_H 	H 	0.2862	0.4511	0.8849	0.1
Mof_C 	C 	0.3042	0.3782	0.91658	0.111
Mof_H 	H 	0.352	0.3385	0.9101	0.013
Mof_C 	C 	0.2924	0.7079	0.83767	0.116
Mof_H 	H 	0.3532	0.7063	0.8265	0.003
Mof_C 	C 	0.271	0.638	0.85845	-0.212
Mof_H 	H 	0.3138	0.5874	0.8612	0.114
Mof_C 	C 	0.1848	0.6418	0.87565	0.195
Mof_C 	C 	0.1216	0.7137	0.86972	-0.217
Mof_H 	H 	0.0603	0.7175	0.8805	0.108
Mof_C 	C 	0.1481	0.7788	0.84832	0.117
Mof_H 	H 	0.1036	0.827	0.8448	-0.023
Mof_C 	C 	0.5575	0.2845	0.93777	0.293
Mof_C 	C 	0.6588	0.2589	0.92599	-0.042
Mof_C 	C 	0.6794	0.1587	0.93463	-0.023
Mof_H 	H 	0.6234	0.1024	0.9469	0.047
Mof_C 	C 	0.7802	0.1382	0.92575	-0.039
Mof_H 	H 	0.7931	0.0693	0.932	0.044
Mof_Cd	Cd	0.9235	0.63669	0.6345	0.339
Mof_O 	O 	0.7495	0.5617	0.60618	-0.276
Mof_O 	O 	0.801	0.4052	0.61345	-0.264
Mof_O 	O 	0.042	0.5373	0.6515	-0.682
Mof_H 	H 	0.0517	0.6141	0.65397	0.311
Mof_H 	H 	0.0034	0.4533	0.64907	0.339
Mof_N 	N 	0.0872	0.7231	0.6067	-0.171
Mof_N 	N 	0.4273	0.8408	0.56494	-0.256
Mof_H 	H 	0.501	0.893	0.57237	0.136
Mof_N 	N 	0.5458	0.7673	0.49877	-0.174
Mof_C 	C 	0.2117	0.791	0.61511	0.115
Mof_H 	H 	0.2234	0.8125	0.63157	-0.018
Mof_C 	C 	0.3238	0.8315	0.60141	-0.207
Mof_H 	H 	0.41	0.8804	0.60837	0.103
Mof_C 	C 	0.31	0.7999	0.57697	0.2
Mof_C 	C 	0.1801	0.7333	0.56811	-0.209
Mof_H 	H 	0.1649	0.7138	0.55157	0.103
Mof_C 	C 	0.074	0.6958	0.58325	0.124
Mof_H 	H 	0.9865	0.648	0.57677	0.004
Mof_C 	C 	0.4155	0.7076	0.50434	0.117
Mof_H 	H 	0.3531	0.6468	0.49317	0.004
Mof_C 	C 	0.367	0.729	0.52512	-0.212
Mof_H 	H 	0.2736	0.6862	0.52787	0.114
Mof_C 	C 	0.457	0.8152	0.54232	0.196
Mof_C 	C 	0.5921	0.8784	0.53639	-0.218
Mof_H 	H 	0.6572	0.9397	0.54717	0.108
Mof_C 	C 	0.6307	0.8519	0.51499	0.118
Mof_H 	H 	0.7234	0.8964	0.51147	-0.022
Mof_C 	C 	0.727	0.4425	0.60444	0.294
Mof_C 	C 	0.6001	0.3412	0.59266	-0.042
Mof_C 	C 	0.4793	0.3206	0.6013	-0.024
Mof_H 	H 	0.479	0.3766	0.61357	0.047
Mof_C 	C 	0.358	0.2198	0.59242	-0.039
Mof_H 	H 	0.2762	0.2069	0.59867	0.044
_end
