data_functionalizedCrystal
_audit_creation_method	'EQeq! by Chris Wilmer'
_symmetry_space_group_name_H-M	'P1'
_symmetry_Int_Tables_number	1
_symmetry_cell_setting	triclinic
loop_
_symmetry_equiv_pos_as_xyz
  x,y,z
_cell_length_a	10.929
_cell_length_b	16.586
_cell_length_c	19.396
_cell_angle_alpha	90
_cell_angle_beta	90
_cell_angle_gamma	90
loop_
_atom_site_label
_atom_site_type_symbol
_atom_site_fract_x
_atom_site_fract_y
_atom_site_fract_z
_atom_site_charge
Mof_O 	O 	0.3685	0.8536	0.18462	-0.454
Mof_O 	O 	0.2223	0.8443	0.1086	-0.435
Mof_C 	C 	0.4812	0.1759	0.0024	-0.179
Mof_H 	H 	0.5684	0.1807	0.011	0.091
Mof_H 	H 	0.4692	0.1715	0.953	0.078
Mof_C 	C 	0.4335	0.1002	0.0373	0.168
Mof_C 	C 	0.4819	0.0754	0.0995	-0.199
Mof_H 	H 	0.5408	0.1069	0.1212	0.111
Mof_C 	C 	0.4441	0.0048	0.1298	0.108
Mof_H 	H 	0.4801	0.988	0.1708	-0.007
Mof_C 	C 	0.3539	0.9588	0.1003	-0.158
Mof_C 	C 	0.3031	0.9835	0.0381	0.094
Mof_H 	H 	0.242	0.9528	0.0175	0.01
Mof_C 	C 	0.3431	0.0534	0.0067	-0.188
Mof_H 	H 	0.3093	0.0693	0.9649	0.094
Mof_C 	C 	0.313	0.8813	0.1329	0.333
Mof_O 	O 	0.1315	0.1464	0.68462	-0.455
Mof_O 	O 	0.2777	0.1557	0.6086	-0.436
Mof_C 	C 	0.0188	0.8241	0.5024	-0.181
Mof_H 	H 	0.9316	0.8193	0.511	0.091
Mof_H 	H 	0.0308	0.8285	0.453	0.079
Mof_C 	C 	0.0665	0.8998	0.5373	0.172
Mof_C 	C 	0.0181	0.9246	0.5995	-0.202
Mof_H 	H 	0.9592	0.8931	0.6212	0.111
Mof_C 	C 	0.0559	0.9952	0.6298	0.113
Mof_H 	H 	0.0199	0.012	0.6708	-0.009
Mof_C 	C 	0.1461	0.0412	0.6003	-0.162
Mof_C 	C 	0.1969	0.0165	0.5381	0.098
Mof_H 	H 	0.258	0.0472	0.5175	0.008
Mof_C 	C 	0.1569	0.9466	0.5067	-0.194
Mof_H 	H 	0.1907	0.9307	0.4649	0.097
Mof_C 	C 	0.187	0.1187	0.6329	0.334
Mof_O 	O 	0.6315	0.3536	0.81538	-0.454
Mof_O 	O 	0.7777	0.3443	0.8914	-0.435
Mof_C 	C 	0.5188	0.6759	0.9976	-0.181
Mof_H 	H 	0.4316	0.6807	0.989	0.091
Mof_H 	H 	0.5308	0.6715	0.047	0.078
Mof_C 	C 	0.5665	0.6002	0.9627	0.17
Mof_C 	C 	0.5181	0.5754	0.9005	-0.199
Mof_H 	H 	0.4592	0.6069	0.8788	0.111
Mof_C 	C 	0.5559	0.5048	0.8702	0.106
Mof_H 	H 	0.5199	0.488	0.8292	-0.006
Mof_C 	C 	0.6461	0.4588	0.8997	-0.157
Mof_C 	C 	0.6969	0.4835	0.9619	0.096
Mof_H 	H 	0.758	0.4528	0.9825	0.009
Mof_C 	C 	0.6569	0.5534	0.9933	-0.192
Mof_H 	H 	0.6907	0.5693	0.0351	0.096
Mof_C 	C 	0.687	0.3813	0.8671	0.333
Mof_O 	O 	0.8685	0.6464	0.31538	-0.454
Mof_O 	O 	0.7223	0.6557	0.3914	-0.435
Mof_C 	C 	0.9812	0.3241	0.4976	-0.181
Mof_H 	H 	0.0684	0.3193	0.489	0.091
Mof_H 	H 	0.9692	0.3285	0.547	0.079
Mof_C 	C 	0.9335	0.3998	0.4627	0.171
Mof_C 	C 	0.9819	0.4246	0.4005	-0.2
Mof_H 	H 	0.0408	0.3931	0.3788	0.111
Mof_C 	C 	0.9441	0.4952	0.3702	0.107
Mof_H 	H 	0.9801	0.512	0.3292	-0.006
Mof_C 	C 	0.8539	0.5412	0.3997	-0.158
Mof_C 	C 	0.8031	0.5165	0.4619	0.097
Mof_H 	H 	0.742	0.5472	0.4825	0.009
Mof_C 	C 	0.8431	0.4466	0.4933	-0.194
Mof_H 	H 	0.8093	0.4307	0.5351	0.097
Mof_C 	C 	0.813	0.6187	0.3671	0.333
Mof_O 	O 	0.6315	0.1464	0.81538	-0.454
Mof_O 	O 	0.7777	0.1557	0.8914	-0.435
Mof_C 	C 	0.5188	0.8241	0.9976	-0.179
Mof_H 	H 	0.4316	0.8193	0.989	0.091
Mof_H 	H 	0.5308	0.8285	0.047	0.078
Mof_C 	C 	0.5665	0.8998	0.9627	0.168
Mof_C 	C 	0.5181	0.9246	0.9005	-0.199
Mof_H 	H 	0.4592	0.8931	0.8788	0.111
Mof_C 	C 	0.5559	0.9952	0.8702	0.108
Mof_H 	H 	0.5199	0.012	0.8292	-0.007
Mof_C 	C 	0.6461	0.0412	0.8997	-0.158
Mof_C 	C 	0.6969	0.0165	0.9619	0.094
Mof_H 	H 	0.758	0.0472	0.9825	0.01
Mof_C 	C 	0.6569	0.9466	0.9933	-0.188
Mof_H 	H 	0.6907	0.9307	0.0351	0.094
Mof_C 	C 	0.687	0.1187	0.8671	0.333
Mof_O 	O 	0.8685	0.8536	0.31538	-0.455
Mof_O 	O 	0.7223	0.8443	0.3914	-0.436
Mof_C 	C 	0.9812	0.1759	0.4976	-0.181
Mof_H 	H 	0.0684	0.1807	0.489	0.091
Mof_H 	H 	0.9692	0.1715	0.547	0.079
Mof_C 	C 	0.9335	0.1002	0.4627	0.172
Mof_C 	C 	0.9819	0.0754	0.4005	-0.202
Mof_H 	H 	0.0408	0.1069	0.3788	0.111
Mof_C 	C 	0.9441	0.0048	0.3702	0.113
Mof_H 	H 	0.9801	0.988	0.3292	-0.009
Mof_C 	C 	0.8539	0.9588	0.3997	-0.162
Mof_C 	C 	0.8031	0.9835	0.4619	0.098
Mof_H 	H 	0.742	0.9528	0.4825	0.008
Mof_C 	C 	0.8431	0.0534	0.4933	-0.194
Mof_H 	H 	0.8093	0.0693	0.5351	0.097
Mof_C 	C 	0.813	0.8813	0.3671	0.334
Mof_O 	O 	0.3685	0.6464	0.18462	-0.454
Mof_O 	O 	0.2223	0.6557	0.1086	-0.435
Mof_C 	C 	0.4812	0.3241	0.0024	-0.181
Mof_H 	H 	0.5684	0.3193	0.011	0.091
Mof_H 	H 	0.4692	0.3285	0.953	0.078
Mof_C 	C 	0.4335	0.3998	0.0373	0.17
Mof_C 	C 	0.4819	0.4246	0.0995	-0.199
Mof_H 	H 	0.5408	0.3931	0.1212	0.111
Mof_C 	C 	0.4441	0.4952	0.1298	0.106
Mof_H 	H 	0.4801	0.512	0.1708	-0.006
Mof_C 	C 	0.3539	0.5412	0.1003	-0.157
Mof_C 	C 	0.3031	0.5165	0.0381	0.096
Mof_H 	H 	0.242	0.5472	0.0175	0.009
Mof_C 	C 	0.3431	0.4466	0.0067	-0.192
Mof_H 	H 	0.3093	0.4307	0.9649	0.096
Mof_C 	C 	0.313	0.6187	0.1329	0.333
Mof_O 	O 	0.1315	0.3536	0.68462	-0.454
Mof_O 	O 	0.2777	0.3443	0.6086	-0.435
Mof_C 	C 	0.0188	0.6759	0.5024	-0.181
Mof_H 	H 	0.9316	0.6807	0.511	0.091
Mof_H 	H 	0.0308	0.6715	0.453	0.079
Mof_C 	C 	0.0665	0.6002	0.5373	0.171
Mof_C 	C 	0.0181	0.5754	0.5995	-0.2
Mof_H 	H 	0.9592	0.6069	0.6212	0.111
Mof_C 	C 	0.0559	0.5048	0.6298	0.107
Mof_H 	H 	0.0199	0.488	0.6708	-0.006
Mof_C 	C 	0.1461	0.4588	0.6003	-0.158
Mof_C 	C 	0.1969	0.4835	0.5381	0.097
Mof_H 	H 	0.258	0.4528	0.5175	0.009
Mof_C 	C 	0.1569	0.5534	0.5067	-0.194
Mof_H 	H 	0.1907	0.5693	0.4649	0.097
Mof_C 	C 	0.187	0.3813	0.6329	0.333
Mof_N 	N 	0.4179	0.25	0.0282	-0.06
Mof_Tb	Tb	0.2882	0.25	0.70407	1.945
Mof_O 	O 	0.1804	0.25	0.8046	-0.602
Mof_O 	O 	0.9857	0.25	0.8327	-0.594
Mof_O 	O 	0.3467	0.25	0.1526	-0.462
Mof_H 	H 	0.3548	0.25	0.1946	0.279
Mof_O 	O 	0.1496	0.25	0.1801	-0.287
Mof_C 	C 	0.0956	0.25	0.8475	0.568
Mof_C 	C 	0.1301	0.25	0.9226	-0.164
Mof_C 	C 	0.0415	0.25	0.9735	0.026
Mof_H 	H 	0.9591	0.25	0.9617	0.036
Mof_C 	C 	0.0765	0.25	0.0423	-0.035
Mof_H 	H 	0.0169	0.25	0.0765	0.058
Mof_C 	C 	0.1999	0.25	0.0607	-0.09
Mof_C 	C 	0.2869	0.25	0.0095	0.078
Mof_C 	C 	0.2527	0.25	0.9401	-0.021
Mof_H 	H 	0.3121	0.25	0.9059	0.018
Mof_C 	C 	0.2289	0.25	0.137	0.375
Mof_N 	N 	0.0821	0.75	0.5282	-0.06
Mof_Tb	Tb	0.2118	0.75	0.20407	1.945
Mof_O 	O 	0.3196	0.75	0.3046	-0.602
Mof_O 	O 	0.5143	0.75	0.3327	-0.596
Mof_O 	O 	0.1533	0.75	0.6526	-0.462
Mof_H 	H 	0.1452	0.75	0.6946	0.279
Mof_O 	O 	0.3504	0.75	0.6801	-0.286
Mof_C 	C 	0.4044	0.75	0.3475	0.571
Mof_C 	C 	0.3699	0.75	0.4226	-0.169
Mof_C 	C 	0.4585	0.75	0.4735	0.036
Mof_H 	H 	0.5409	0.75	0.4617	0.032
Mof_C 	C 	0.4235	0.75	0.5423	-0.043
Mof_H 	H 	0.4831	0.75	0.5765	0.061
Mof_C 	C 	0.3001	0.75	0.5607	-0.086
Mof_C 	C 	0.2131	0.75	0.5095	0.074
Mof_C 	C 	0.2473	0.75	0.4401	-0.015
Mof_H 	H 	0.1879	0.75	0.4059	0.016
Mof_C 	C 	0.2711	0.75	0.637	0.373
Mof_N 	N 	0.5821	0.75	0.9718	-0.06
Mof_Tb	Tb	0.7118	0.75	0.29593	1.945
Mof_O 	O 	0.8196	0.75	0.1954	-0.602
Mof_O 	O 	0.0143	0.75	0.1673	-0.594
Mof_O 	O 	0.6533	0.75	0.8474	-0.462
Mof_H 	H 	0.6452	0.75	0.8054	0.279
Mof_O 	O 	0.8504	0.75	0.8199	-0.287
Mof_C 	C 	0.9044	0.75	0.1525	0.568
Mof_C 	C 	0.8699	0.75	0.0774	-0.164
Mof_C 	C 	0.9585	0.75	0.0265	0.026
Mof_H 	H 	0.0409	0.75	0.0383	0.036
Mof_C 	C 	0.9235	0.75	0.9577	-0.035
Mof_H 	H 	0.9831	0.75	0.9235	0.058
Mof_C 	C 	0.8001	0.75	0.9393	-0.09
Mof_C 	C 	0.7131	0.75	0.9905	0.078
Mof_C 	C 	0.7473	0.75	0.0599	-0.021
Mof_H 	H 	0.6879	0.75	0.0941	0.018
Mof_C 	C 	0.7711	0.75	0.863	0.375
Mof_N 	N 	0.9179	0.25	0.4718	-0.06
Mof_Tb	Tb	0.7882	0.25	0.79593	1.945
Mof_O 	O 	0.6804	0.25	0.6954	-0.602
Mof_O 	O 	0.4857	0.25	0.6673	-0.596
Mof_O 	O 	0.8467	0.25	0.3474	-0.462
Mof_H 	H 	0.8548	0.25	0.3054	0.279
Mof_O 	O 	0.6496	0.25	0.3199	-0.286
Mof_C 	C 	0.5956	0.25	0.6525	0.571
Mof_C 	C 	0.6301	0.25	0.5774	-0.169
Mof_C 	C 	0.5415	0.25	0.5265	0.036
Mof_H 	H 	0.4591	0.25	0.5383	0.032
Mof_C 	C 	0.5765	0.25	0.4577	-0.043
Mof_H 	H 	0.5169	0.25	0.4235	0.061
Mof_C 	C 	0.6999	0.25	0.4393	-0.086
Mof_C 	C 	0.7869	0.25	0.4905	0.074
Mof_C 	C 	0.7527	0.25	0.5599	-0.015
Mof_H 	H 	0.8121	0.25	0.5941	0.016
Mof_C 	C 	0.7289	0.25	0.363	0.373
_end
