data_functionalizedCrystal
_audit_creation_method	'EQeq! by Chris Wilmer'
_symmetry_space_group_name_H-M	'P1'
_symmetry_Int_Tables_number	1
_symmetry_cell_setting	triclinic
loop_
_symmetry_equiv_pos_as_xyz
  x,y,z
_cell_length_a	20.9119
_cell_length_b	16.5299
_cell_length_c	6.9496
_cell_angle_alpha	90
_cell_angle_beta	98.143
_cell_angle_gamma	90
loop_
_atom_site_label
_atom_site_type_symbol
_atom_site_fract_x
_atom_site_fract_y
_atom_site_fract_z
_atom_site_charge
Mof_C 	C 	0.222	0.244	0.16	-0.158
Mof_C 	C 	0.278	0.282	0.16	0.318
Mof_C 	C 	0.311	0.288	-0	-0.022
Mof_C 	C 	0.362	0.345	-0	0.015
Mof_C 	C 	0.378	0.403	0.13	0.041
Mof_C 	C 	0.407	0.344	0.88	0.022
Mof_F 	F 	0.306	0.324	0.32	-0.473
Mof_N 	N 	0.432	0.44	0.11	-0.256
Mof_N 	N 	0.448	0.404	0.92	-0.238
Mof_H 	H 	0.20256	0.23941	0.29527	0.12
Mof_H 	H 	0.34883	0.41849	0.24241	0.065
Mof_H 	H 	0.40925	0.29856	0.77187	0.029
Mof_C 	C 	0.722	0.744	0.16	-0.155
Mof_C 	C 	0.778	0.782	0.16	0.322
Mof_C 	C 	0.811	0.788	-0	-0.015
Mof_C 	C 	0.862	0.845	-0	0.022
Mof_C 	C 	0.878	0.903	0.13	0.046
Mof_C 	C 	0.907	0.844	0.88	0.028
Mof_F 	F 	0.806	0.824	0.32	-0.466
Mof_N 	N 	0.932	0.94	0.11	-0.23
Mof_N 	N 	0.948	0.904	0.92	-0.21
Mof_H 	H 	0.70256	0.73941	0.29527	0.125
Mof_H 	H 	0.84883	0.91849	0.24241	0.071
Mof_H 	H 	0.90925	0.79856	0.77187	0.045
Mof_C 	C 	0.778	0.244	0.34	-0.159
Mof_C 	C 	0.722	0.282	0.34	0.324
Mof_C 	C 	0.689	0.288	0.5	-0.025
Mof_C 	C 	0.638	0.345	0.5	0.016
Mof_C 	C 	0.622	0.403	0.37	0.042
Mof_C 	C 	0.593	0.344	0.62	0.025
Mof_F 	F 	0.694	0.324	0.18	-0.469
Mof_N 	N 	0.568	0.44	0.39	-0.257
Mof_N 	N 	0.552	0.404	0.58	-0.237
Mof_H 	H 	0.79744	0.23941	0.20473	0.129
Mof_H 	H 	0.65117	0.41849	0.25759	0.069
Mof_H 	H 	0.59075	0.29856	0.72813	0.028
Mof_C 	C 	0.278	0.744	0.34	-0.161
Mof_C 	C 	0.222	0.782	0.34	0.32
Mof_C 	C 	0.189	0.788	0.5	-0.031
Mof_C 	C 	0.138	0.845	0.5	0.013
Mof_C 	C 	0.122	0.903	0.37	0.036
Mof_C 	C 	0.093	0.844	0.62	0.017
Mof_F 	F 	0.194	0.824	0.18	-0.474
Mof_N 	N 	0.068	0.94	0.39	-0.268
Mof_N 	N 	0.052	0.904	0.58	-0.253
Mof_H 	H 	0.29744	0.73941	0.20473	0.124
Mof_H 	H 	0.15117	0.91849	0.25759	0.066
Mof_H 	H 	0.09075	0.79856	0.72813	0.014
Mof_C 	C 	0.778	0.756	0.84	-0.163
Mof_C 	C 	0.722	0.718	0.84	0.321
Mof_C 	C 	0.689	0.712	-0	-0.023
Mof_C 	C 	0.638	0.655	-0	0.02
Mof_C 	C 	0.622	0.597	0.87	0.037
Mof_C 	C 	0.593	0.656	0.12	0.024
Mof_F 	F 	0.694	0.676	0.68	-0.469
Mof_N 	N 	0.568	0.56	0.89	-0.257
Mof_N 	N 	0.552	0.596	0.08	-0.235
Mof_H 	H 	0.79744	0.76059	0.70473	0.129
Mof_H 	H 	0.65117	0.58151	0.75759	0.069
Mof_H 	H 	0.59075	0.70144	0.22813	0.029
Mof_C 	C 	0.278	0.256	0.84	-0.164
Mof_C 	C 	0.222	0.218	0.84	0.318
Mof_C 	C 	0.189	0.212	-0	-0.029
Mof_C 	C 	0.138	0.155	-0	0.017
Mof_C 	C 	0.122	0.097	0.87	0.032
Mof_C 	C 	0.093	0.156	0.12	0.016
Mof_F 	F 	0.194	0.176	0.68	-0.475
Mof_N 	N 	0.068	0.06	0.89	-0.268
Mof_N 	N 	0.052	0.096	0.08	-0.251
Mof_H 	H 	0.29744	0.26059	0.70473	0.124
Mof_H 	H 	0.15117	0.08151	0.75759	0.066
Mof_H 	H 	0.09075	0.20144	0.22813	0.015
Mof_C 	C 	0.222	0.756	0.66	-0.158
Mof_C 	C 	0.278	0.718	0.66	0.317
Mof_C 	C 	0.311	0.712	0.5	-0.024
Mof_C 	C 	0.362	0.655	0.5	0.012
Mof_C 	C 	0.378	0.597	0.63	0.041
Mof_C 	C 	0.407	0.656	0.38	0.025
Mof_F 	F 	0.306	0.676	0.82	-0.474
Mof_N 	N 	0.432	0.56	0.61	-0.258
Mof_N 	N 	0.448	0.596	0.42	-0.237
Mof_H 	H 	0.20256	0.76059	0.79527	0.119
Mof_H 	H 	0.34883	0.58151	0.74241	0.064
Mof_H 	H 	0.40925	0.70144	0.27187	0.029
Mof_C 	C 	0.722	0.256	0.66	-0.156
Mof_C 	C 	0.778	0.218	0.66	0.322
Mof_C 	C 	0.811	0.212	0.5	-0.018
Mof_C 	C 	0.862	0.155	0.5	0.017
Mof_C 	C 	0.878	0.097	0.63	0.047
Mof_C 	C 	0.907	0.156	0.38	0.034
Mof_F 	F 	0.806	0.176	0.82	-0.467
Mof_N 	N 	0.932	0.06	0.61	-0.232
Mof_N 	N 	0.948	0.096	0.42	-0.208
Mof_H 	H 	0.70256	0.26059	0.79527	0.124
Mof_H 	H 	0.84883	0.08151	0.74241	0.07
Mof_H 	H 	0.90925	0.20144	0.27187	0.045
Mof_Co	Co	0.5	0.5161	0.25	1.056
Mof_Co	Co	-1.49396e-18	0.0161	0.25	1.019
Mof_Co	Co	0.5	0.4839	0.75	1.055
Mof_Co	Co	1.06689e-33	0.9839	0.75	1.018
_end
