data_functionalizedCrystal
_audit_creation_method	'EQeq! by Chris Wilmer'
_symmetry_space_group_name_H-M	'P1'
_symmetry_Int_Tables_number	1
_symmetry_cell_setting	triclinic
loop_
_symmetry_equiv_pos_as_xyz
  x,y,z
_cell_length_a	12.825
_cell_length_b	13.672
_cell_length_c	14.227
_cell_angle_alpha	66.182
_cell_angle_beta	66.8
_cell_angle_gamma	77.064
loop_
_atom_site_label
_atom_site_type_symbol
_atom_site_fract_x
_atom_site_fract_y
_atom_site_fract_z
_atom_site_charge
Mof_Dy	Dy	0.42861	0.38149	0.51149	2.135
Mof_Dy	Dy	0.4319	0.32041	0.16495	2.088
Mof_Dy	Dy	0.57139	0.61851	0.48851	2.136
Mof_Dy	Dy	0.5681	0.67959	0.83505	2.089
Mof_H 	H 	0.5201	0.2791	0.0268	0.474
Mof_H 	H 	0.4485	0.1916	0.0449	0.744
Mof_H 	H 	0.675	0.1735	0.4947	-0.006
Mof_H 	H 	0.7794	0.8675	0.5262	0.011
Mof_H 	H 	0.595	0.0276	0.342	-0.003
Mof_H 	H 	0.8821	0.1455	0.4874	0.087
Mof_H 	H 	0.9938	0.1424	0.5809	0.016
Mof_H 	H 	0.9822	0.009	0.7489	0.072
Mof_H 	H 	0.86	0.877	0.8189	0.019
Mof_H 	H 	0.9758	0.7365	0.7373	0.108
Mof_H 	H 	0.046	0.7634	0.8501	-0.004
Mof_H 	H 	0.224	0.6873	0.8586	0.096
Mof_H 	H 	0.3277	0.5803	0.7559	-0.023
Mof_H 	H 	0.8915	0.6285	0.7078	0.012
Mof_H 	H 	0.9257	0.6294	0.4148	0.01
Mof_H 	H 	0.1945	0.6343	0.4743	0.008
Mof_H 	H 	0.1463	0.4873	0.0569	-0.003
Mof_H 	H 	0.9553	0.541	0.1111	0.097
Mof_H 	H 	0.8917	0.6805	0.1782	0.001
Mof_H 	H 	0.0196	0.7616	0.1956	0.096
Mof_H 	H 	0.2048	0.8799	0.0776	0.013
Mof_H 	H 	0.4175	0.8426	0.2268	-0
Mof_H 	H 	0.2985	0.5843	0.2499	0.001
Mof_H 	H 	0.4799	0.7209	0.9732	0.474
Mof_H 	H 	0.5515	0.8084	0.9551	0.744
Mof_H 	H 	0.325	0.8265	0.5053	-0.006
Mof_H 	H 	0.2206	0.1325	0.4738	0.011
Mof_H 	H 	0.405	0.9724	0.658	-0.003
Mof_H 	H 	0.1179	0.8545	0.5126	0.087
Mof_H 	H 	0.0062	0.8576	0.4191	0.016
Mof_H 	H 	0.0178	0.991	0.2511	0.072
Mof_H 	H 	0.14	0.123	0.1811	0.019
Mof_H 	H 	0.0242	0.2635	0.2627	0.108
Mof_H 	H 	0.954	0.2366	0.1499	-0.004
Mof_H 	H 	0.776	0.3127	0.1414	0.096
Mof_H 	H 	0.6723	0.4197	0.2441	-0.023
Mof_H 	H 	0.1085	0.3715	0.2922	0.012
Mof_H 	H 	0.0743	0.3706	0.5852	0.01
Mof_H 	H 	0.8055	0.3657	0.5257	0.008
Mof_H 	H 	0.8537	0.5127	0.9431	-0.003
Mof_H 	H 	0.0447	0.459	0.8889	0.097
Mof_H 	H 	0.1083	0.3195	0.8218	0.001
Mof_H 	H 	0.9804	0.2384	0.8044	0.096
Mof_H 	H 	0.7952	0.1201	0.9224	0.013
Mof_H 	H 	0.5825	0.1574	0.7732	-0
Mof_H 	H 	0.7015	0.4157	0.7501	0.001
Mof_C 	C 	0.5611	0.2174	0.3573	0.543
Mof_C 	C 	0.6253	0.1171	0.409	-0.216
Mof_C 	C 	0.6784	0.1131	0.4787	0.08
Mof_C 	C 	0.7375	0.017	0.5251	-0.08
Mof_C 	C 	0.7389	0.9308	0.4977	0.065
Mof_C 	C 	0.6309	0.0249	0.3885	0.121
Mof_C 	C 	0.8021	0.0113	0.5951	0.105
Mof_C 	C 	0.8772	0.0907	0.554	-0.145
Mof_C 	C 	0.9439	0.0892	0.6104	0.056
Mof_C 	C 	0.9376	0.0094	0.7106	-0.12
Mof_C 	C 	0.8644	0.9312	0.7519	0.047
Mof_C 	C 	0.7959	0.9308	0.6959	-0.13
Mof_C 	C 	0.7146	0.8443	0.7505	0.316
Mof_C 	C 	0.2903	0.5224	0.6228	0.451
Mof_C 	C 	0.2155	0.596	0.682	-0.204
Mof_C 	C 	0.1071	0.6406	0.6767	0.141
Mof_C 	C 	0.047	0.7043	0.7405	-0.191
Mof_C 	C 	0.0891	0.7213	0.8083	0.101
Mof_C 	C 	0.1948	0.6758	0.8139	-0.182
Mof_C 	C 	0.257	0.6125	0.7514	0.122
Mof_C 	C 	0.0549	0.6312	0.6039	-0.099
Mof_C 	C 	0.9367	0.6302	0.6375	0.083
Mof_C 	C 	0.8865	0.632	0.5653	-0.212
Mof_C 	C 	0.9583	0.6302	0.4624	0.12
Mof_C 	C 	0.1161	0.632	0.4985	0.072
Mof_C 	C 	0.7603	0.638	0.5962	0.556
Mof_C 	C 	0.3246	0.5651	0.0371	0.511
Mof_C 	C 	0.2007	0.5943	0.0894	-0.225
Mof_C 	C 	0.1213	0.5435	0.0835	0.117
Mof_C 	C 	0.0068	0.5752	0.1163	-0.174
Mof_C 	C 	0.9687	0.658	0.1571	0.1
Mof_C 	C 	0.046	0.7073	0.1664	-0.185
Mof_C 	C 	0.1619	0.6773	0.133	0.148
Mof_C 	C 	0.2395	0.7249	0.1557	-0.094
Mof_C 	C 	0.2472	0.8343	0.1209	0.062
Mof_C 	C 	0.3723	0.8129	0.2093	0.114
Mof_C 	C 	0.3696	0.7024	0.2499	-0.188
Mof_C 	C 	0.3021	0.6582	0.2231	0.086
Mof_C 	C 	0.4365	0.6323	0.3212	0.481
Mof_C 	C 	0.4389	0.7826	0.6427	0.543
Mof_C 	C 	0.3747	0.8829	0.591	-0.216
Mof_C 	C 	0.3216	0.8869	0.5213	0.08
Mof_C 	C 	0.2625	0.983	0.4749	-0.08
Mof_C 	C 	0.2611	0.0692	0.5023	0.065
Mof_C 	C 	0.3691	0.9751	0.6115	0.121
Mof_C 	C 	0.1979	0.9887	0.4049	0.105
Mof_C 	C 	0.1228	0.9093	0.446	-0.145
Mof_C 	C 	0.0561	0.9108	0.3896	0.056
Mof_C 	C 	0.0624	0.9906	0.2894	-0.12
Mof_C 	C 	0.1356	0.0688	0.2481	0.047
Mof_C 	C 	0.2041	0.0692	0.3041	-0.13
Mof_C 	C 	0.2854	0.1557	0.2495	0.316
Mof_C 	C 	0.7097	0.4776	0.3772	0.451
Mof_C 	C 	0.7845	0.404	0.318	-0.204
Mof_C 	C 	0.8929	0.3594	0.3233	0.141
Mof_C 	C 	0.953	0.2957	0.2595	-0.191
Mof_C 	C 	0.9109	0.2787	0.1917	0.101
Mof_C 	C 	0.8052	0.3242	0.1861	-0.182
Mof_C 	C 	0.743	0.3875	0.2486	0.122
Mof_C 	C 	0.9451	0.3688	0.3961	-0.099
Mof_C 	C 	0.0633	0.3698	0.3625	0.083
Mof_C 	C 	0.1135	0.368	0.4347	-0.212
Mof_C 	C 	0.0417	0.3698	0.5376	0.12
Mof_C 	C 	0.8839	0.368	0.5015	0.072
Mof_C 	C 	0.2397	0.362	0.4038	0.556
Mof_C 	C 	0.6754	0.4349	0.9629	0.511
Mof_C 	C 	0.7993	0.4057	0.9106	-0.225
Mof_C 	C 	0.8787	0.4565	0.9165	0.117
Mof_C 	C 	0.9932	0.4248	0.8837	-0.174
Mof_C 	C 	0.0313	0.342	0.8429	0.1
Mof_C 	C 	0.954	0.2927	0.8336	-0.185
Mof_C 	C 	0.8381	0.3227	0.867	0.148
Mof_C 	C 	0.7605	0.2751	0.8443	-0.094
Mof_C 	C 	0.7528	0.1657	0.8791	0.062
Mof_C 	C 	0.6277	0.1871	0.7907	0.114
Mof_C 	C 	0.6304	0.2976	0.7501	-0.188
Mof_C 	C 	0.6979	0.3418	0.7769	0.086
Mof_C 	C 	0.5635	0.3677	0.6788	0.481
Mof_N 	N 	0.6854	0.9323	0.4322	-0.156
Mof_N 	N 	0.0711	0.6295	0.4286	-0.138
Mof_N 	N 	0.3122	0.879	0.1454	-0.138
Mof_N 	N 	0.3146	0.0677	0.5678	-0.156
Mof_N 	N 	0.9289	0.3705	0.5714	-0.138
Mof_N 	N 	0.6878	0.121	0.8546	-0.138
Mof_O 	O 	0.5256	0.2862	0.4035	-0.602
Mof_O 	O 	0.5483	0.2277	0.2707	-0.545
Mof_O 	O 	0.6211	0.8628	0.735	-0.432
Mof_O 	O 	0.7412	0.7533	0.8124	-0.406
Mof_O 	O 	0.2562	0.4383	0.635	-0.485
Mof_O 	O 	0.3913	0.5467	0.5611	-0.627
Mof_O 	O 	0.6996	0.6403	0.6906	-0.582
Mof_O 	O 	0.7216	0.6399	0.5275	-0.561
Mof_O 	O 	0.3562	0.4673	0.0505	-0.558
Mof_O 	O 	0.3882	0.6401	0.9774	-0.573
Mof_O 	O 	0.4311	0.5318	0.3527	-0.521
Mof_O 	O 	0.4924	0.6763	0.3482	-0.536
Mof_O 	O 	0.4758	0.2399	0.0289	-1.343
Mof_O 	O 	0.4744	0.7138	0.5965	-0.602
Mof_O 	O 	0.4517	0.7723	0.7293	-0.545
Mof_O 	O 	0.3789	0.1372	0.265	-0.432
Mof_O 	O 	0.2588	0.2467	0.1876	-0.406
Mof_O 	O 	0.7438	0.5617	0.365	-0.485
Mof_O 	O 	0.6087	0.4533	0.4389	-0.627
Mof_O 	O 	0.3004	0.3597	0.3094	-0.582
Mof_O 	O 	0.2784	0.3601	0.4725	-0.561
Mof_O 	O 	0.6438	0.5327	0.9495	-0.558
Mof_O 	O 	0.6118	0.3599	0.0226	-0.573
Mof_O 	O 	0.5689	0.4682	0.6473	-0.521
Mof_O 	O 	0.5076	0.3237	0.6518	-0.536
Mof_O 	O 	0.5242	0.7601	0.9711	-1.343
_end
