data_functionalizedCrystal
_audit_creation_method	'EQeq! by Chris Wilmer'
_symmetry_space_group_name_H-M	'P1'
_symmetry_Int_Tables_number	1
_symmetry_cell_setting	triclinic
loop_
_symmetry_equiv_pos_as_xyz
  x,y,z
_cell_length_a	8.7999
_cell_length_b	10.8475
_cell_length_c	16.8132
_cell_angle_alpha	76.6
_cell_angle_beta	82.105
_cell_angle_gamma	90.135
loop_
_atom_site_label
_atom_site_type_symbol
_atom_site_fract_x
_atom_site_fract_y
_atom_site_fract_z
_atom_site_charge
Mof_Cd	Cd	0.27796	0.73983	0.75806	0.42
Mof_Cd	Cd	0.96744	0.28609	0.75479	0.424
Mof_O 	O 	0.0219	0.2099	0.8919	-0.28
Mof_O 	O 	0.0068	0.0668	0.8202	-0.273
Mof_O 	O 	0.1445	0.5881	0.857	-0.286
Mof_O 	O 	0.2321	0.7066	0.9312	-0.281
Mof_O 	O 	0.1782	0.6698	0.655	-0.276
Mof_O 	O 	0.3392	0.8296	0.607	-0.276
Mof_O 	O 	0.0927	0.5792	0.3805	-0.274
Mof_O 	O 	0.0771	0.786	0.3617	-0.267
Mof_N 	N 	0.2242	0.3367	0.7081	-0.121
Mof_N 	N 	0.5217	0.6503	0.7551	-0.176
Mof_H 	H 	0.554	0.669	0.7033	0.124
Mof_N 	N 	0.4297	0.8866	0.7981	-0.173
Mof_H 	H 	0.399	0.865	0.8506	0.126
Mof_N 	N 	0.7135	0.2275	0.8155	-0.123
Mof_C 	C 	0.3029	0.3936	0.7531	-0.009
Mof_H 	H 	0.2572	0.3974	0.8057	0.058
Mof_C 	C 	0.4491	0.447	0.7251	0.047
Mof_C 	C 	0.5152	0.4391	0.6478	-0.067
Mof_H 	H 	0.613	0.4744	0.6266	0.068
Mof_C 	C 	0.4372	0.3794	0.602	-0.052
Mof_H 	H 	0.4821	0.3725	0.5499	0.057
Mof_C 	C 	0.2936	0.3301	0.6329	0.036
Mof_H 	H 	0.2412	0.2903	0.6009	0.035
Mof_C 	C 	0.5292	0.5108	0.7808	-0.113
Mof_H 	H 	0.4805	0.4816	0.8375	0.074
Mof_H 	H 	0.6357	0.4872	0.7781	0.071
Mof_C 	C 	0.6071	0.7127	0.8054	-0.056
Mof_H 	H 	0.7148	0.6932	0.7966	0.054
Mof_H 	H 	0.5686	0.6799	0.8634	0.056
Mof_C 	C 	0.5914	0.8528	0.7834	-0.067
Mof_H 	H 	0.651	0.8914	0.8163	0.06
Mof_H 	H 	0.6319	0.8859	0.7257	0.064
Mof_C 	C 	0.4036	0.0222	0.7715	-0.121
Mof_H 	H 	0.2945	0.0358	0.7821	0.081
Mof_H 	H 	0.4356	0.0495	0.7124	0.079
Mof_C 	C 	0.6266	0.1609	0.7786	-0.017
Mof_H 	H 	0.6635	0.1544	0.7252	0.054
Mof_C 	C 	0.4885	0.1026	0.8144	0.046
Mof_C 	C 	0.4338	0.1148	0.8947	-0.068
Mof_H 	H 	0.3405	0.0763	0.9219	0.065
Mof_C 	C 	0.519	0.1838	0.9326	-0.048
Mof_H 	H 	0.4829	0.1945	0.9851	0.054
Mof_C 	C 	0.6597	0.2374	0.8916	0.026
Mof_H 	H 	0.7185	0.2819	0.9183	0.039
Mof_C 	C 	0.0158	0.0966	0.8868	0.313
Mof_C 	C 	0.013	0.9918	0.9623	-0.12
Mof_H 	H 	0.0306	0.9102	0.9554	0.1
Mof_C 	C 	0.1472	0.62	0.924	0.324
Mof_C 	C 	0.0391	0.5517	0.9979	-0.117
Mof_H 	H 	0.0272	0.5859	0.0441	0.1
Mof_C 	C 	0.2433	0.7519	0.5968	0.325
Mof_C 	C 	0.2059	0.76	0.512	-0.116
Mof_H 	H 	0.2328	0.8347	0.4722	0.097
Mof_C 	C 	0.138	0.6692	0.4906	-0.115
Mof_H 	H 	0.1108	0.5945	0.5304	0.106
Mof_C 	C 	0.1008	0.6778	0.4055	0.307
Mof_Cd	Cd	0.72204	0.26017	0.24194	0.421
Mof_Cd	Cd	0.03256	0.71391	0.24521	0.425
Mof_O 	O 	0.9781	0.7901	0.1081	-0.279
Mof_O 	O 	0.9932	0.9332	0.1798	-0.272
Mof_O 	O 	0.8555	0.4119	0.143	-0.286
Mof_O 	O 	0.7679	0.2934	0.0688	-0.281
Mof_O 	O 	0.8218	0.3302	0.345	-0.276
Mof_O 	O 	0.6608	0.1704	0.393	-0.276
Mof_O 	O 	0.9073	0.4208	0.6195	-0.274
Mof_O 	O 	0.9229	0.214	0.6383	-0.267
Mof_N 	N 	0.7758	0.6633	0.2919	-0.121
Mof_N 	N 	0.4783	0.3497	0.2449	-0.176
Mof_H 	H 	0.446	0.331	0.2967	0.124
Mof_N 	N 	0.5703	0.1134	0.2019	-0.173
Mof_H 	H 	0.601	0.135	0.1494	0.126
Mof_N 	N 	0.2865	0.7725	0.1845	-0.123
Mof_C 	C 	0.6971	0.6064	0.2469	-0.009
Mof_H 	H 	0.7428	0.6026	0.1943	0.058
Mof_C 	C 	0.5509	0.553	0.2749	0.047
Mof_C 	C 	0.4848	0.5609	0.3522	-0.067
Mof_H 	H 	0.387	0.5256	0.3734	0.068
Mof_C 	C 	0.5628	0.6206	0.398	-0.052
Mof_H 	H 	0.5179	0.6275	0.4501	0.057
Mof_C 	C 	0.7064	0.6699	0.3671	0.036
Mof_H 	H 	0.7588	0.7097	0.3991	0.035
Mof_C 	C 	0.4708	0.4892	0.2192	-0.113
Mof_H 	H 	0.5195	0.5184	0.1625	0.074
Mof_H 	H 	0.3643	0.5128	0.2219	0.071
Mof_C 	C 	0.3929	0.2873	0.1946	-0.056
Mof_H 	H 	0.2852	0.3068	0.2034	0.054
Mof_H 	H 	0.4314	0.3201	0.1366	0.056
Mof_C 	C 	0.4086	0.1472	0.2166	-0.067
Mof_H 	H 	0.349	0.1086	0.1837	0.06
Mof_H 	H 	0.3681	0.1141	0.2743	0.064
Mof_C 	C 	0.5964	0.9778	0.2285	-0.121
Mof_H 	H 	0.7055	0.9642	0.2179	0.081
Mof_H 	H 	0.5644	0.9505	0.2876	0.079
Mof_C 	C 	0.3734	0.8391	0.2214	-0.017
Mof_H 	H 	0.3365	0.8456	0.2748	0.054
Mof_C 	C 	0.5115	0.8974	0.1856	0.046
Mof_C 	C 	0.5662	0.8852	0.1053	-0.068
Mof_H 	H 	0.6595	0.9237	0.0781	0.065
Mof_C 	C 	0.481	0.8162	0.0674	-0.048
Mof_H 	H 	0.5171	0.8055	0.0149	0.054
Mof_C 	C 	0.3403	0.7626	0.1084	0.026
Mof_H 	H 	0.2815	0.7181	0.0817	0.039
Mof_C 	C 	0.9842	0.9034	0.1132	0.313
Mof_C 	C 	0.987	0.0082	0.0377	-0.12
Mof_H 	H 	0.9694	0.0898	0.0446	0.1
Mof_C 	C 	0.8528	0.38	0.076	0.324
Mof_C 	C 	0.9609	0.4483	0.0021	-0.117
Mof_H 	H 	0.9728	0.4141	0.9559	0.1
Mof_C 	C 	0.7567	0.2481	0.4032	0.325
Mof_C 	C 	0.7941	0.24	0.488	-0.116
Mof_H 	H 	0.7672	0.1653	0.5278	0.097
Mof_C 	C 	0.862	0.3308	0.5094	-0.115
Mof_H 	H 	0.8892	0.4055	0.4696	0.106
Mof_C 	C 	0.8992	0.3222	0.5945	0.307
_end
