data_functionalizedCrystal
_audit_creation_method	'EQeq! by Chris Wilmer'
_symmetry_space_group_name_H-M	'P1'
_symmetry_Int_Tables_number	1
_symmetry_cell_setting	triclinic
loop_
_symmetry_equiv_pos_as_xyz
  x,y,z
_cell_length_a	17.58
_cell_length_b	17.58
_cell_length_c	17.58
_cell_angle_alpha	90
_cell_angle_beta	90
_cell_angle_gamma	90
loop_
_atom_site_label
_atom_site_type_symbol
_atom_site_fract_x
_atom_site_fract_y
_atom_site_fract_z
_atom_site_charge
Mof_Cu	Cu	0.50127	0.40556	0.84804	0.898
Mof_C 	C 	0.4923	0.2637	0.909	0.033
Mof_C 	C 	0.4136	0.2898	0.8853	0.3
Mof_C 	C 	0.4871	0.2423	0.0004	0.311
Mof_O 	O 	0.5461	0.3222	0.9021	-0.444
Mof_O 	O 	0.509	0.1987	0.8731	-0.328
Mof_O 	O 	0.4531	0.1765	0.0121	-0.424
Mof_O 	O 	0.3608	0.2402	0.889	-0.405
Mof_O 	O 	0.4019	0.356	0.8676	-0.362
Mof_O 	O 	0.5191	0.2811	0.0463	-0.381
Mof_Cu	Cu	0.99873	0.59444	0.34804	0.897
Mof_C 	C 	0.0077	0.7363	0.409	0.033
Mof_C 	C 	0.0864	0.7102	0.3853	0.299
Mof_C 	C 	0.0129	0.7577	0.5004	0.309
Mof_O 	O 	0.9539	0.6778	0.4021	-0.445
Mof_O 	O 	0.991	0.8013	0.3731	-0.329
Mof_O 	O 	0.0469	0.8235	0.5121	-0.425
Mof_O 	O 	0.1392	0.7598	0.389	-0.405
Mof_O 	O 	0.0981	0.644	0.3676	-0.362
Mof_O 	O 	0.9809	0.7189	0.5463	-0.381
Mof_Cu	Cu	0.49873	0.90556	0.65196	0.897
Mof_C 	C 	0.5077	0.7637	0.591	0.033
Mof_C 	C 	0.5864	0.7898	0.6147	0.299
Mof_C 	C 	0.5129	0.7423	0.4996	0.309
Mof_O 	O 	0.4539	0.8222	0.5979	-0.445
Mof_O 	O 	0.491	0.6987	0.6269	-0.329
Mof_O 	O 	0.5469	0.6765	0.4879	-0.426
Mof_O 	O 	0.6392	0.7402	0.611	-0.405
Mof_O 	O 	0.5981	0.856	0.6324	-0.362
Mof_O 	O 	0.4809	0.7811	0.4537	-0.381
Mof_Cu	Cu	0.00127	0.09444	0.15196	0.899
Mof_C 	C 	0.9923	0.2363	0.091	0.03
Mof_C 	C 	0.9136	0.2102	0.1147	0.3
Mof_C 	C 	0.9871	0.2577	0.9996	0.31
Mof_O 	O 	0.0461	0.1778	0.0979	-0.443
Mof_O 	O 	0.009	0.3013	0.1269	-0.327
Mof_O 	O 	0.9531	0.3235	0.9879	-0.426
Mof_O 	O 	0.8608	0.2598	0.111	-0.405
Mof_O 	O 	0.9019	0.144	0.1324	-0.363
Mof_O 	O 	0.0191	0.2189	0.9537	-0.382
Mof_Cu	Cu	0.84804	0.50127	0.40556	0.897
Mof_C 	C 	0.909	0.4923	0.2637	0.032
Mof_C 	C 	0.8853	0.4136	0.2898	0.299
Mof_C 	C 	0.0004	0.4871	0.2423	0.31
Mof_O 	O 	0.9021	0.5461	0.3222	-0.445
Mof_O 	O 	0.8731	0.509	0.1987	-0.329
Mof_O 	O 	0.0121	0.4531	0.1765	-0.425
Mof_O 	O 	0.889	0.3608	0.2402	-0.405
Mof_O 	O 	0.8676	0.4019	0.356	-0.362
Mof_O 	O 	0.0463	0.5191	0.2811	-0.381
Mof_Cu	Cu	0.34804	0.99873	0.59444	0.897
Mof_C 	C 	0.409	0.0077	0.7363	0.033
Mof_C 	C 	0.3853	0.0864	0.7102	0.299
Mof_C 	C 	0.5004	0.0129	0.7577	0.309
Mof_O 	O 	0.4021	0.9539	0.6778	-0.445
Mof_O 	O 	0.3731	0.991	0.8013	-0.329
Mof_O 	O 	0.5121	0.0469	0.8235	-0.425
Mof_O 	O 	0.389	0.1392	0.7598	-0.405
Mof_O 	O 	0.3676	0.0981	0.644	-0.362
Mof_O 	O 	0.5463	0.9809	0.7189	-0.381
Mof_Cu	Cu	0.65196	0.49873	0.90556	0.897
Mof_C 	C 	0.591	0.5077	0.7637	0.033
Mof_C 	C 	0.6147	0.5864	0.7898	0.299
Mof_C 	C 	0.4996	0.5129	0.7423	0.309
Mof_O 	O 	0.5979	0.4539	0.8222	-0.445
Mof_O 	O 	0.6269	0.491	0.6987	-0.329
Mof_O 	O 	0.4879	0.5469	0.6765	-0.426
Mof_O 	O 	0.611	0.6392	0.7402	-0.405
Mof_O 	O 	0.6324	0.5981	0.856	-0.362
Mof_O 	O 	0.4537	0.4809	0.7811	-0.381
Mof_Cu	Cu	0.15196	0.00127	0.09444	0.899
Mof_C 	C 	0.091	0.9923	0.2363	0.03
Mof_C 	C 	0.1147	0.9136	0.2102	0.3
Mof_C 	C 	0.9996	0.9871	0.2577	0.31
Mof_O 	O 	0.0979	0.0461	0.1778	-0.443
Mof_O 	O 	0.1269	0.009	0.3013	-0.327
Mof_O 	O 	0.9879	0.9531	0.3235	-0.426
Mof_O 	O 	0.111	0.8608	0.2598	-0.405
Mof_O 	O 	0.1324	0.9019	0.144	-0.363
Mof_O 	O 	0.9537	0.0191	0.2189	-0.382
Mof_Cu	Cu	0.40556	0.84804	0.50127	0.897
Mof_C 	C 	0.2637	0.909	0.4923	0.032
Mof_C 	C 	0.2898	0.8853	0.4136	0.299
Mof_C 	C 	0.2423	0.0004	0.4871	0.31
Mof_O 	O 	0.3222	0.9021	0.5461	-0.445
Mof_O 	O 	0.1987	0.8731	0.509	-0.329
Mof_O 	O 	0.1765	0.0121	0.4531	-0.425
Mof_O 	O 	0.2402	0.889	0.3608	-0.405
Mof_O 	O 	0.356	0.8676	0.4019	-0.362
Mof_O 	O 	0.2811	0.0463	0.5191	-0.381
Mof_Cu	Cu	0.59444	0.34804	0.99873	0.897
Mof_C 	C 	0.7363	0.409	0.0077	0.033
Mof_C 	C 	0.7102	0.3853	0.0864	0.299
Mof_C 	C 	0.7577	0.5004	0.0129	0.309
Mof_O 	O 	0.6778	0.4021	0.9539	-0.445
Mof_O 	O 	0.8013	0.3731	0.991	-0.329
Mof_O 	O 	0.8235	0.5121	0.0469	-0.425
Mof_O 	O 	0.7598	0.389	0.1392	-0.405
Mof_O 	O 	0.644	0.3676	0.0981	-0.362
Mof_O 	O 	0.7189	0.5463	0.9809	-0.381
Mof_Cu	Cu	0.90556	0.65196	0.49873	0.897
Mof_C 	C 	0.7637	0.591	0.5077	0.033
Mof_C 	C 	0.7898	0.6147	0.5864	0.299
Mof_C 	C 	0.7423	0.4996	0.5129	0.309
Mof_O 	O 	0.8222	0.5979	0.4539	-0.445
Mof_O 	O 	0.6987	0.6269	0.491	-0.329
Mof_O 	O 	0.6765	0.4879	0.5469	-0.426
Mof_O 	O 	0.7402	0.611	0.6392	-0.405
Mof_O 	O 	0.856	0.6324	0.5981	-0.362
Mof_O 	O 	0.7811	0.4537	0.4809	-0.381
Mof_Cu	Cu	0.09444	0.15196	0.00127	0.899
Mof_C 	C 	0.2363	0.091	0.9923	0.03
Mof_C 	C 	0.2102	0.1147	0.9136	0.3
Mof_C 	C 	0.2577	0.9996	0.9871	0.31
Mof_O 	O 	0.1778	0.0979	0.0461	-0.443
Mof_O 	O 	0.3013	0.1269	0.009	-0.327
Mof_O 	O 	0.3235	0.9879	0.9531	-0.426
Mof_O 	O 	0.2598	0.111	0.8608	-0.405
Mof_O 	O 	0.144	0.1324	0.9019	-0.363
Mof_O 	O 	0.2189	0.9537	0.0191	-0.382
Mof_Pr	Pr	0.39864	0.10136	0.89864	2.424
Mof_Pr	Pr	0.10136	0.89864	0.39864	2.424
Mof_Pr	Pr	0.60136	0.60136	0.60136	2.426
Mof_Pr	Pr	0.89864	0.39864	0.10136	2.424
_end
