data_functionalizedCrystal
_audit_creation_method	'EQeq! by Chris Wilmer'
_symmetry_space_group_name_H-M	'P1'
_symmetry_Int_Tables_number	1
_symmetry_cell_setting	triclinic
loop_
_symmetry_equiv_pos_as_xyz
  x,y,z
_cell_length_a	26.7063
_cell_length_b	19.513
_cell_length_c	28.8938
_cell_angle_alpha	90
_cell_angle_beta	90
_cell_angle_gamma	90
loop_
_atom_site_label
_atom_site_type_symbol
_atom_site_fract_x
_atom_site_fract_y
_atom_site_fract_z
_atom_site_charge
Mof_Cd	Cd	0.52018	0.72844	0.0155	0.504
Mof_Cd	Cd	0.46481	0.86889	0.07853	0.397
Mof_Cd	Cd	0.84745	0.87875	0.20439	0.396
Mof_Cd	Cd	0.76401	0.74367	0.24557	0.506
Mof_O 	O 	0.72258	0.35259	0.77178	-0.25
Mof_O 	O 	0.69189	0.25249	0.79171	-0.253
Mof_O 	O 	0.55938	0.23964	0.91161	-0.295
Mof_O 	O 	0.52592	0.33546	0.93933	-0.271
Mof_O 	O 	0.69548	0.65725	0.77033	-0.289
Mof_O 	O 	0.68883	0.7473	0.81642	-0.249
Mof_O 	O 	0.58073	0.72961	0.95752	-0.251
Mof_O 	O 	0.54891	0.62978	0.97649	-0.247
Mof_O 	O 	0.54207	0.82806	0.05332	-0.295
Mof_O 	O 	0.591	0.74203	0.07249	-0.246
Mof_O 	O 	0.55021	0.12524	0.99713	-0.285
Mof_O 	O 	0.53824	0.22609	0.0324	-0.273
Mof_O 	O 	0.63804	0.27252	0.17458	-0.286
Mof_O 	O 	0.67949	0.18549	0.20722	-0.276
Mof_O 	O 	0.73106	0.79104	0.18306	-0.277
Mof_O 	O 	0.77077	0.89122	0.17304	-0.279
Mof_C 	C 	0.55601	0.3028	0.91375	0.32
Mof_C 	C 	0.59121	0.3442	0.88414	-0.056
Mof_C 	C 	0.62287	0.3121	0.85319	0.002
Mof_H 	H 	0.6217	0.2637	0.8496	0.059
Mof_C 	C 	0.65662	0.3509	0.82728	-0.048
Mof_C 	C 	0.69198	0.3164	0.79484	0.287
Mof_C 	C 	0.65803	0.4212	0.83323	-0.036
Mof_H 	H 	0.6816	0.4473	0.8161	0.063
Mof_C 	C 	0.62589	0.45482	0.86364	0.013
Mof_C 	C 	0.59218	0.4153	0.88882	-0.033
Mof_H 	H 	0.5695	0.437	0.9095	0.066
Mof_C 	C 	0.62772	0.5308	0.86988	0.019
Mof_C 	C 	0.6521	0.5718	0.83724	-0.042
Mof_H 	H 	0.6671	0.5514	0.8108	0.054
Mof_C 	C 	0.65447	0.6427	0.84338	-0.049
Mof_C 	C 	0.63147	0.6735	0.88098	-0.008
Mof_H 	H 	0.6334	0.7217	0.8851	0.069
Mof_C 	C 	0.60541	0.6333	0.91284	-0.039
Mof_C 	C 	0.60447	0.5624	0.9072	-0.044
Mof_H 	H 	0.5875	0.5351	0.9294	0.069
Mof_C 	C 	0.6809	0.68576	0.80828	0.284
Mof_C 	C 	0.57675	0.6661	0.95168	0.286
Mof_C 	C 	0.58079	0.8043	0.0734	0.293
Mof_C 	C 	0.6156	0.8541	0.09653	-0.057
Mof_C 	C 	0.65652	0.831	0.12133	0.004
Mof_H 	H 	0.6618	0.7831	0.125	0.064
Mof_C 	C 	0.69012	0.8771	0.14104	-0.055
Mof_C 	C 	0.68131	0.9473	0.13655	-0.032
Mof_H 	H 	0.7045	0.979	0.1493	0.063
Mof_C 	C 	0.63855	0.972	0.11337	0.012
Mof_C 	C 	0.60622	0.9242	0.0932	-0.034
Mof_H 	H 	0.5774	0.9398	0.077	0.051
Mof_C 	C 	0.62739	0.0467	0.10988	0.013
Mof_C 	C 	0.60026	0.0729	0.07242	-0.034
Mof_H 	H 	0.5914	0.0432	0.0477	0.06
Mof_C 	C 	0.58592	0.1415	0.07064	-0.056
Mof_C 	C 	0.60088	0.1855	0.1058	0.006
Mof_H 	H 	0.5906	0.2321	0.1052	0.061
Mof_C 	C 	0.63059	0.1621	0.14171	-0.056
Mof_C 	C 	0.64333	0.0927	0.14408	-0.033
Mof_H 	H 	0.663	0.0766	0.1692	0.066
Mof_C 	C 	0.65096	0.211	0.17721	0.319
Mof_C 	C 	0.55584	0.1667	0.0299	0.318
Mof_C 	C 	0.73443	0.8513	0.16779	0.318
Mof_Cd	Cd	0.97982	0.77156	0.5155	0.503
Mof_Cd	Cd	0.03519	0.63111	0.57853	0.396
Mof_Cd	Cd	0.65255	0.62125	0.70439	0.395
Mof_Cd	Cd	0.73599	0.75633	0.74557	0.505
Mof_O 	O 	0.77742	0.14741	0.27178	-0.251
Mof_O 	O 	0.80811	0.24751	0.29171	-0.254
Mof_O 	O 	0.94062	0.26036	0.41161	-0.296
Mof_O 	O 	0.97408	0.16454	0.43933	-0.272
Mof_O 	O 	0.80452	0.84275	0.27033	-0.29
Mof_O 	O 	0.81117	0.7527	0.31642	-0.25
Mof_O 	O 	0.91927	0.77039	0.45752	-0.251
Mof_O 	O 	0.95109	0.87022	0.47649	-0.246
Mof_O 	O 	0.95793	0.67194	0.55332	-0.295
Mof_O 	O 	0.909	0.75797	0.57249	-0.246
Mof_O 	O 	0.94979	0.37476	0.49713	-0.285
Mof_O 	O 	0.96176	0.27391	0.5324	-0.273
Mof_O 	O 	0.86196	0.22748	0.67458	-0.286
Mof_O 	O 	0.82051	0.31451	0.70722	-0.276
Mof_O 	O 	0.76894	0.70896	0.68306	-0.277
Mof_O 	O 	0.72923	0.60878	0.67304	-0.279
Mof_C 	C 	0.94399	0.1972	0.41375	0.32
Mof_C 	C 	0.90879	0.1558	0.38414	-0.056
Mof_C 	C 	0.87713	0.1879	0.35319	0.002
Mof_H 	H 	0.8783	0.2363	0.3496	0.059
Mof_C 	C 	0.84338	0.1491	0.32728	-0.048
Mof_C 	C 	0.80802	0.1836	0.29484	0.287
Mof_C 	C 	0.84197	0.0788	0.33323	-0.037
Mof_H 	H 	0.8184	0.0527	0.3161	0.063
Mof_C 	C 	0.87411	0.04518	0.36364	0.013
Mof_C 	C 	0.90782	0.0847	0.38882	-0.033
Mof_H 	H 	0.9305	0.063	0.4095	0.066
Mof_C 	C 	0.87228	0.9692	0.36988	0.019
Mof_C 	C 	0.8479	0.9282	0.33724	-0.042
Mof_H 	H 	0.8329	0.9486	0.3108	0.054
Mof_C 	C 	0.84553	0.8573	0.34338	-0.049
Mof_C 	C 	0.86853	0.8265	0.38098	-0.008
Mof_H 	H 	0.8666	0.7783	0.3851	0.069
Mof_C 	C 	0.89459	0.8667	0.41284	-0.039
Mof_C 	C 	0.89553	0.9376	0.4072	-0.044
Mof_H 	H 	0.9125	0.9649	0.4294	0.069
Mof_C 	C 	0.8191	0.81424	0.30828	0.284
Mof_C 	C 	0.92325	0.8339	0.45168	0.286
Mof_C 	C 	0.91921	0.6957	0.5734	0.293
Mof_C 	C 	0.8844	0.6459	0.59653	-0.057
Mof_C 	C 	0.84348	0.669	0.62133	0.004
Mof_H 	H 	0.8382	0.7169	0.625	0.064
Mof_C 	C 	0.80988	0.6229	0.64104	-0.055
Mof_C 	C 	0.81869	0.5527	0.63655	-0.032
Mof_H 	H 	0.7955	0.521	0.6493	0.063
Mof_C 	C 	0.86145	0.528	0.61337	0.012
Mof_C 	C 	0.89378	0.5758	0.5932	-0.034
Mof_H 	H 	0.9226	0.5602	0.577	0.051
Mof_C 	C 	0.87261	0.4533	0.60988	0.013
Mof_C 	C 	0.89974	0.4271	0.57242	-0.034
Mof_H 	H 	0.9086	0.4568	0.5477	0.06
Mof_C 	C 	0.91408	0.3585	0.57064	-0.056
Mof_C 	C 	0.89912	0.3145	0.6058	0.006
Mof_H 	H 	0.9094	0.2679	0.6052	0.061
Mof_C 	C 	0.86941	0.3379	0.64171	-0.056
Mof_C 	C 	0.85667	0.4073	0.64408	-0.033
Mof_H 	H 	0.837	0.4234	0.6692	0.066
Mof_C 	C 	0.84904	0.289	0.67721	0.319
Mof_C 	C 	0.94416	0.3333	0.5299	0.318
Mof_C 	C 	0.76557	0.6487	0.66779	0.318
Mof_Cd	Cd	0.47982	0.72844	0.4845	0.503
Mof_Cd	Cd	0.53519	0.86889	0.42147	0.396
Mof_Cd	Cd	0.15255	0.87875	0.29561	0.395
Mof_Cd	Cd	0.23599	0.74367	0.25443	0.505
Mof_O 	O 	0.27742	0.35259	0.72822	-0.251
Mof_O 	O 	0.30811	0.25249	0.70829	-0.254
Mof_O 	O 	0.44062	0.23964	0.58839	-0.296
Mof_O 	O 	0.47408	0.33546	0.56067	-0.272
Mof_O 	O 	0.30452	0.65725	0.72967	-0.29
Mof_O 	O 	0.31117	0.7473	0.68358	-0.25
Mof_O 	O 	0.41927	0.72961	0.54248	-0.251
Mof_O 	O 	0.45109	0.62978	0.52351	-0.246
Mof_O 	O 	0.45793	0.82806	0.44668	-0.295
Mof_O 	O 	0.409	0.74203	0.42751	-0.246
Mof_O 	O 	0.44979	0.12524	0.50287	-0.285
Mof_O 	O 	0.46176	0.22609	0.4676	-0.273
Mof_O 	O 	0.36196	0.27252	0.32542	-0.286
Mof_O 	O 	0.32051	0.18549	0.29278	-0.276
Mof_O 	O 	0.26894	0.79104	0.31694	-0.277
Mof_O 	O 	0.22923	0.89122	0.32696	-0.279
Mof_C 	C 	0.44399	0.3028	0.58625	0.32
Mof_C 	C 	0.40879	0.3442	0.61586	-0.056
Mof_C 	C 	0.37713	0.3121	0.64681	0.002
Mof_H 	H 	0.3783	0.2637	0.6504	0.059
Mof_C 	C 	0.34338	0.3509	0.67272	-0.048
Mof_C 	C 	0.30802	0.3164	0.70516	0.287
Mof_C 	C 	0.34197	0.4212	0.66677	-0.036
Mof_H 	H 	0.3184	0.4473	0.6839	0.063
Mof_C 	C 	0.37411	0.45482	0.63636	0.013
Mof_C 	C 	0.40782	0.4153	0.61118	-0.033
Mof_H 	H 	0.4305	0.437	0.5905	0.066
Mof_C 	C 	0.37228	0.5308	0.63012	0.019
Mof_C 	C 	0.3479	0.5718	0.66276	-0.042
Mof_H 	H 	0.3329	0.5514	0.6892	0.054
Mof_C 	C 	0.34553	0.6427	0.65662	-0.049
Mof_C 	C 	0.36853	0.6735	0.61902	-0.008
Mof_H 	H 	0.3666	0.7217	0.6149	0.069
Mof_C 	C 	0.39459	0.6333	0.58716	-0.039
Mof_C 	C 	0.39553	0.5624	0.5928	-0.044
Mof_H 	H 	0.4125	0.5351	0.5706	0.069
Mof_C 	C 	0.3191	0.68576	0.69172	0.284
Mof_C 	C 	0.42325	0.6661	0.54832	0.286
Mof_C 	C 	0.41921	0.8043	0.4266	0.293
Mof_C 	C 	0.3844	0.8541	0.40347	-0.057
Mof_C 	C 	0.34348	0.831	0.37867	0.004
Mof_H 	H 	0.3382	0.7831	0.375	0.064
Mof_C 	C 	0.30988	0.8771	0.35896	-0.055
Mof_C 	C 	0.31869	0.9473	0.36345	-0.032
Mof_H 	H 	0.2955	0.979	0.3507	0.063
Mof_C 	C 	0.36145	0.972	0.38663	0.012
Mof_C 	C 	0.39378	0.9242	0.4068	-0.034
Mof_H 	H 	0.4226	0.9398	0.423	0.051
Mof_C 	C 	0.37261	0.0467	0.39012	0.013
Mof_C 	C 	0.39974	0.0729	0.42758	-0.034
Mof_H 	H 	0.4086	0.0432	0.4523	0.06
Mof_C 	C 	0.41408	0.1415	0.42936	-0.056
Mof_C 	C 	0.39912	0.1855	0.3942	0.006
Mof_H 	H 	0.4094	0.2321	0.3948	0.061
Mof_C 	C 	0.36941	0.1621	0.35829	-0.056
Mof_C 	C 	0.35667	0.0927	0.35592	-0.033
Mof_H 	H 	0.337	0.0766	0.3308	0.066
Mof_C 	C 	0.34904	0.211	0.32279	0.319
Mof_C 	C 	0.44416	0.1667	0.4701	0.318
Mof_C 	C 	0.26557	0.8513	0.33221	0.318
Mof_Cd	Cd	0.02018	0.77156	0.9845	0.503
Mof_Cd	Cd	0.96481	0.63111	0.92147	0.397
Mof_Cd	Cd	0.34745	0.62125	0.79561	0.395
Mof_Cd	Cd	0.26401	0.75633	0.75443	0.505
Mof_O 	O 	0.22258	0.14741	0.22822	-0.251
Mof_O 	O 	0.19189	0.24751	0.20829	-0.254
Mof_O 	O 	0.05938	0.26036	0.08839	-0.296
Mof_O 	O 	0.02592	0.16454	0.06067	-0.272
Mof_O 	O 	0.19548	0.84275	0.22967	-0.29
Mof_O 	O 	0.18883	0.7527	0.18358	-0.25
Mof_O 	O 	0.08073	0.77039	0.04248	-0.25
Mof_O 	O 	0.04891	0.87022	0.02351	-0.246
Mof_O 	O 	0.04207	0.67194	0.94668	-0.295
Mof_O 	O 	0.091	0.75797	0.92751	-0.246
Mof_O 	O 	0.05021	0.37476	0.00287	-0.285
Mof_O 	O 	0.03824	0.27391	0.9676	-0.273
Mof_O 	O 	0.13804	0.22748	0.82542	-0.286
Mof_O 	O 	0.17949	0.31451	0.79278	-0.276
Mof_O 	O 	0.23106	0.70896	0.81694	-0.277
Mof_O 	O 	0.27077	0.60878	0.82696	-0.279
Mof_C 	C 	0.05601	0.1972	0.08625	0.32
Mof_C 	C 	0.09121	0.1558	0.11586	-0.056
Mof_C 	C 	0.12287	0.1879	0.14681	0.002
Mof_H 	H 	0.1217	0.2363	0.1504	0.059
Mof_C 	C 	0.15662	0.1491	0.17272	-0.048
Mof_C 	C 	0.19198	0.1836	0.20516	0.287
Mof_C 	C 	0.15803	0.0788	0.16677	-0.036
Mof_H 	H 	0.1816	0.0527	0.1839	0.063
Mof_C 	C 	0.12589	0.04518	0.13636	0.013
Mof_C 	C 	0.09218	0.0847	0.11118	-0.033
Mof_H 	H 	0.0695	0.063	0.0905	0.066
Mof_C 	C 	0.12772	0.9692	0.13012	0.019
Mof_C 	C 	0.1521	0.9282	0.16276	-0.042
Mof_H 	H 	0.1671	0.9486	0.1892	0.054
Mof_C 	C 	0.15447	0.8573	0.15662	-0.049
Mof_C 	C 	0.13147	0.8265	0.11902	-0.008
Mof_H 	H 	0.1334	0.7783	0.1149	0.07
Mof_C 	C 	0.10541	0.8667	0.08716	-0.039
Mof_C 	C 	0.10447	0.9376	0.0928	-0.044
Mof_H 	H 	0.0875	0.9649	0.0706	0.069
Mof_C 	C 	0.1809	0.81424	0.19172	0.284
Mof_C 	C 	0.07675	0.8339	0.04832	0.286
Mof_C 	C 	0.08079	0.6957	0.9266	0.293
Mof_C 	C 	0.1156	0.6459	0.90347	-0.057
Mof_C 	C 	0.15652	0.669	0.87867	0.004
Mof_H 	H 	0.1618	0.7169	0.875	0.064
Mof_C 	C 	0.19012	0.6229	0.85896	-0.055
Mof_C 	C 	0.18131	0.5527	0.86345	-0.032
Mof_H 	H 	0.2045	0.521	0.8507	0.063
Mof_C 	C 	0.13855	0.528	0.88663	0.012
Mof_C 	C 	0.10622	0.5758	0.9068	-0.034
Mof_H 	H 	0.0774	0.5602	0.923	0.051
Mof_C 	C 	0.12739	0.4533	0.89012	0.013
Mof_C 	C 	0.10026	0.4271	0.92758	-0.035
Mof_H 	H 	0.0914	0.4568	0.9523	0.06
Mof_C 	C 	0.08592	0.3585	0.92936	-0.056
Mof_C 	C 	0.10088	0.3145	0.8942	0.005
Mof_H 	H 	0.0906	0.2679	0.8948	0.061
Mof_C 	C 	0.13059	0.3379	0.85829	-0.056
Mof_C 	C 	0.14333	0.4073	0.85592	-0.033
Mof_H 	H 	0.163	0.4234	0.8308	0.066
Mof_C 	C 	0.15096	0.289	0.82279	0.319
Mof_C 	C 	0.05584	0.3333	0.9701	0.318
Mof_C 	C 	0.23443	0.6487	0.83221	0.318
Mof_Cd	Cd	0.47982	0.27156	0.9845	0.503
Mof_Cd	Cd	0.53519	0.13111	0.92147	0.396
Mof_Cd	Cd	0.15255	0.12125	0.79561	0.395
Mof_Cd	Cd	0.23599	0.25633	0.75443	0.505
Mof_O 	O 	0.27742	0.64741	0.22822	-0.251
Mof_O 	O 	0.30811	0.74751	0.20829	-0.254
Mof_O 	O 	0.44062	0.76036	0.08839	-0.296
Mof_O 	O 	0.47408	0.66454	0.06067	-0.272
Mof_O 	O 	0.30452	0.34275	0.22967	-0.29
Mof_O 	O 	0.31117	0.2527	0.18358	-0.25
Mof_O 	O 	0.41927	0.27039	0.04248	-0.251
Mof_O 	O 	0.45109	0.37022	0.02351	-0.247
Mof_O 	O 	0.45793	0.17194	0.94668	-0.295
Mof_O 	O 	0.409	0.25797	0.92751	-0.246
Mof_O 	O 	0.44979	0.87476	0.00287	-0.285
Mof_O 	O 	0.46176	0.77391	0.9676	-0.273
Mof_O 	O 	0.36196	0.72748	0.82542	-0.286
Mof_O 	O 	0.32051	0.81451	0.79278	-0.276
Mof_O 	O 	0.26894	0.20896	0.81694	-0.277
Mof_O 	O 	0.22923	0.10878	0.82696	-0.279
Mof_C 	C 	0.44399	0.6972	0.08625	0.32
Mof_C 	C 	0.40879	0.6558	0.11586	-0.056
Mof_C 	C 	0.37713	0.6879	0.14681	0.002
Mof_H 	H 	0.3783	0.7363	0.1504	0.059
Mof_C 	C 	0.34338	0.6491	0.17272	-0.048
Mof_C 	C 	0.30802	0.6836	0.20516	0.287
Mof_C 	C 	0.34197	0.5788	0.16677	-0.036
Mof_H 	H 	0.3184	0.5527	0.1839	0.063
Mof_C 	C 	0.37411	0.54518	0.13636	0.013
Mof_C 	C 	0.40782	0.5847	0.11118	-0.033
Mof_H 	H 	0.4305	0.563	0.0905	0.066
Mof_C 	C 	0.37228	0.4692	0.13012	0.019
Mof_C 	C 	0.3479	0.4282	0.16276	-0.042
Mof_H 	H 	0.3329	0.4486	0.1892	0.054
Mof_C 	C 	0.34553	0.3573	0.15662	-0.049
Mof_C 	C 	0.36853	0.3265	0.11902	-0.008
Mof_H 	H 	0.3666	0.2783	0.1149	0.069
Mof_C 	C 	0.39459	0.3667	0.08716	-0.039
Mof_C 	C 	0.39553	0.4376	0.0928	-0.044
Mof_H 	H 	0.4125	0.4649	0.0706	0.069
Mof_C 	C 	0.3191	0.31424	0.19172	0.284
Mof_C 	C 	0.42325	0.3339	0.04832	0.286
Mof_C 	C 	0.41921	0.1957	0.9266	0.293
Mof_C 	C 	0.3844	0.1459	0.90347	-0.057
Mof_C 	C 	0.34348	0.169	0.87867	0.004
Mof_H 	H 	0.3382	0.2169	0.875	0.064
Mof_C 	C 	0.30988	0.1229	0.85896	-0.055
Mof_C 	C 	0.31869	0.0527	0.86345	-0.032
Mof_H 	H 	0.2955	0.021	0.8507	0.063
Mof_C 	C 	0.36145	0.028	0.88663	0.012
Mof_C 	C 	0.39378	0.0758	0.9068	-0.034
Mof_H 	H 	0.4226	0.0602	0.923	0.051
Mof_C 	C 	0.37261	0.9533	0.89012	0.013
Mof_C 	C 	0.39974	0.9271	0.92758	-0.034
Mof_H 	H 	0.4086	0.9568	0.9523	0.06
Mof_C 	C 	0.41408	0.8585	0.92936	-0.056
Mof_C 	C 	0.39912	0.8145	0.8942	0.006
Mof_H 	H 	0.4094	0.7679	0.8948	0.061
Mof_C 	C 	0.36941	0.8379	0.85829	-0.056
Mof_C 	C 	0.35667	0.9073	0.85592	-0.033
Mof_H 	H 	0.337	0.9234	0.8308	0.066
Mof_C 	C 	0.34904	0.789	0.82279	0.319
Mof_C 	C 	0.44416	0.8333	0.9701	0.318
Mof_C 	C 	0.26557	0.1487	0.83221	0.318
Mof_Cd	Cd	0.02018	0.22844	0.4845	0.503
Mof_Cd	Cd	0.96481	0.36889	0.42147	0.396
Mof_Cd	Cd	0.34745	0.37875	0.29561	0.395
Mof_Cd	Cd	0.26401	0.24367	0.25443	0.505
Mof_O 	O 	0.22258	0.85259	0.72822	-0.251
Mof_O 	O 	0.19189	0.75249	0.70829	-0.254
Mof_O 	O 	0.05938	0.73964	0.58839	-0.296
Mof_O 	O 	0.02592	0.83546	0.56067	-0.272
Mof_O 	O 	0.19548	0.15725	0.72967	-0.29
Mof_O 	O 	0.18883	0.2473	0.68358	-0.25
Mof_O 	O 	0.08073	0.22961	0.54248	-0.251
Mof_O 	O 	0.04891	0.12978	0.52351	-0.246
Mof_O 	O 	0.04207	0.32806	0.44668	-0.295
Mof_O 	O 	0.091	0.24203	0.42751	-0.246
Mof_O 	O 	0.05021	0.62524	0.50287	-0.285
Mof_O 	O 	0.03824	0.72609	0.4676	-0.273
Mof_O 	O 	0.13804	0.77252	0.32542	-0.286
Mof_O 	O 	0.17949	0.68549	0.29278	-0.276
Mof_O 	O 	0.23106	0.29104	0.31694	-0.277
Mof_O 	O 	0.27077	0.39122	0.32696	-0.279
Mof_C 	C 	0.05601	0.8028	0.58625	0.32
Mof_C 	C 	0.09121	0.8442	0.61586	-0.056
Mof_C 	C 	0.12287	0.8121	0.64681	0.002
Mof_H 	H 	0.1217	0.7637	0.6504	0.059
Mof_C 	C 	0.15662	0.8509	0.67272	-0.048
Mof_C 	C 	0.19198	0.8164	0.70516	0.287
Mof_C 	C 	0.15803	0.9212	0.66677	-0.037
Mof_H 	H 	0.1816	0.9473	0.6839	0.063
Mof_C 	C 	0.12589	0.95482	0.63636	0.013
Mof_C 	C 	0.09218	0.9153	0.61118	-0.033
Mof_H 	H 	0.0695	0.937	0.5905	0.066
Mof_C 	C 	0.12772	0.0308	0.63012	0.019
Mof_C 	C 	0.1521	0.0718	0.66276	-0.042
Mof_H 	H 	0.1671	0.0514	0.6892	0.054
Mof_C 	C 	0.15447	0.1427	0.65662	-0.049
Mof_C 	C 	0.13147	0.1735	0.61902	-0.008
Mof_H 	H 	0.1334	0.2217	0.6149	0.069
Mof_C 	C 	0.10541	0.1333	0.58716	-0.039
Mof_C 	C 	0.10447	0.0624	0.5928	-0.044
Mof_H 	H 	0.0875	0.0351	0.5706	0.069
Mof_C 	C 	0.1809	0.18576	0.69172	0.284
Mof_C 	C 	0.07675	0.1661	0.54832	0.286
Mof_C 	C 	0.08079	0.3043	0.4266	0.293
Mof_C 	C 	0.1156	0.3541	0.40347	-0.057
Mof_C 	C 	0.15652	0.331	0.37867	0.004
Mof_H 	H 	0.1618	0.2831	0.375	0.064
Mof_C 	C 	0.19012	0.3771	0.35896	-0.055
Mof_C 	C 	0.18131	0.4473	0.36345	-0.032
Mof_H 	H 	0.2045	0.479	0.3507	0.063
Mof_C 	C 	0.13855	0.472	0.38663	0.012
Mof_C 	C 	0.10622	0.4242	0.4068	-0.034
Mof_H 	H 	0.0774	0.4398	0.423	0.051
Mof_C 	C 	0.12739	0.5467	0.39012	0.013
Mof_C 	C 	0.10026	0.5729	0.42758	-0.034
Mof_H 	H 	0.0914	0.5432	0.4523	0.06
Mof_C 	C 	0.08592	0.6415	0.42936	-0.056
Mof_C 	C 	0.10088	0.6855	0.3942	0.006
Mof_H 	H 	0.0906	0.7321	0.3948	0.061
Mof_C 	C 	0.13059	0.6621	0.35829	-0.056
Mof_C 	C 	0.14333	0.5927	0.35592	-0.033
Mof_H 	H 	0.163	0.5766	0.3308	0.066
Mof_C 	C 	0.15096	0.711	0.32279	0.319
Mof_C 	C 	0.05584	0.6667	0.4701	0.318
Mof_C 	C 	0.23443	0.3513	0.33221	0.318
Mof_Cd	Cd	0.52018	0.27156	0.5155	0.503
Mof_Cd	Cd	0.46481	0.13111	0.57853	0.396
Mof_Cd	Cd	0.84745	0.12125	0.70439	0.395
Mof_Cd	Cd	0.76401	0.25633	0.74557	0.505
Mof_O 	O 	0.72258	0.64741	0.27178	-0.251
Mof_O 	O 	0.69189	0.74751	0.29171	-0.254
Mof_O 	O 	0.55938	0.76036	0.41161	-0.296
Mof_O 	O 	0.52592	0.66454	0.43933	-0.272
Mof_O 	O 	0.69548	0.34275	0.27033	-0.29
Mof_O 	O 	0.68883	0.2527	0.31642	-0.25
Mof_O 	O 	0.58073	0.27039	0.45752	-0.251
Mof_O 	O 	0.54891	0.37022	0.47649	-0.246
Mof_O 	O 	0.54207	0.17194	0.55332	-0.295
Mof_O 	O 	0.591	0.25797	0.57249	-0.246
Mof_O 	O 	0.55021	0.87476	0.49713	-0.285
Mof_O 	O 	0.53824	0.77391	0.5324	-0.273
Mof_O 	O 	0.63804	0.72748	0.67458	-0.286
Mof_O 	O 	0.67949	0.81451	0.70722	-0.276
Mof_O 	O 	0.73106	0.20896	0.68306	-0.277
Mof_O 	O 	0.77077	0.10878	0.67304	-0.279
Mof_C 	C 	0.55601	0.6972	0.41375	0.32
Mof_C 	C 	0.59121	0.6558	0.38414	-0.056
Mof_C 	C 	0.62287	0.6879	0.35319	0.002
Mof_H 	H 	0.6217	0.7363	0.3496	0.059
Mof_C 	C 	0.65662	0.6491	0.32728	-0.048
Mof_C 	C 	0.69198	0.6836	0.29484	0.287
Mof_C 	C 	0.65803	0.5788	0.33323	-0.036
Mof_H 	H 	0.6816	0.5527	0.3161	0.063
Mof_C 	C 	0.62589	0.54518	0.36364	0.013
Mof_C 	C 	0.59218	0.5847	0.38882	-0.033
Mof_H 	H 	0.5695	0.563	0.4095	0.066
Mof_C 	C 	0.62772	0.4692	0.36988	0.019
Mof_C 	C 	0.6521	0.4282	0.33724	-0.042
Mof_H 	H 	0.6671	0.4486	0.3108	0.054
Mof_C 	C 	0.65447	0.3573	0.34338	-0.049
Mof_C 	C 	0.63147	0.3265	0.38098	-0.008
Mof_H 	H 	0.6334	0.2783	0.3851	0.069
Mof_C 	C 	0.60541	0.3667	0.41284	-0.039
Mof_C 	C 	0.60447	0.4376	0.4072	-0.044
Mof_H 	H 	0.5875	0.4649	0.4294	0.069
Mof_C 	C 	0.6809	0.31424	0.30828	0.284
Mof_C 	C 	0.57675	0.3339	0.45168	0.286
Mof_C 	C 	0.58079	0.1957	0.5734	0.293
Mof_C 	C 	0.6156	0.1459	0.59653	-0.057
Mof_C 	C 	0.65652	0.169	0.62133	0.004
Mof_H 	H 	0.6618	0.2169	0.625	0.064
Mof_C 	C 	0.69012	0.1229	0.64104	-0.055
Mof_C 	C 	0.68131	0.0527	0.63655	-0.032
Mof_H 	H 	0.7045	0.021	0.6493	0.063
Mof_C 	C 	0.63855	0.028	0.61337	0.012
Mof_C 	C 	0.60622	0.0758	0.5932	-0.034
Mof_H 	H 	0.5774	0.0602	0.577	0.051
Mof_C 	C 	0.62739	0.9533	0.60988	0.013
Mof_C 	C 	0.60026	0.9271	0.57242	-0.034
Mof_H 	H 	0.5914	0.9568	0.5477	0.06
Mof_C 	C 	0.58592	0.8585	0.57064	-0.056
Mof_C 	C 	0.60088	0.8145	0.6058	0.006
Mof_H 	H 	0.5906	0.7679	0.6052	0.061
Mof_C 	C 	0.63059	0.8379	0.64171	-0.056
Mof_C 	C 	0.64333	0.9073	0.64408	-0.033
Mof_H 	H 	0.663	0.9234	0.6692	0.066
Mof_C 	C 	0.65096	0.789	0.67721	0.319
Mof_C 	C 	0.55584	0.8333	0.5299	0.318
Mof_C 	C 	0.73443	0.1487	0.66779	0.318
Mof_Cd	Cd	0.97982	0.22844	0.0155	0.503
Mof_Cd	Cd	0.03519	0.36889	0.07853	0.397
Mof_Cd	Cd	0.65255	0.37875	0.20439	0.395
Mof_Cd	Cd	0.73599	0.24367	0.24557	0.505
Mof_O 	O 	0.77742	0.85259	0.77178	-0.251
Mof_O 	O 	0.80811	0.75249	0.79171	-0.254
Mof_O 	O 	0.94062	0.73964	0.91161	-0.296
Mof_O 	O 	0.97408	0.83546	0.93933	-0.272
Mof_O 	O 	0.80452	0.15725	0.77033	-0.29
Mof_O 	O 	0.81117	0.2473	0.81642	-0.25
Mof_O 	O 	0.91927	0.22961	0.95752	-0.25
Mof_O 	O 	0.95109	0.12978	0.97649	-0.246
Mof_O 	O 	0.95793	0.32806	0.05332	-0.295
Mof_O 	O 	0.909	0.24203	0.07249	-0.246
Mof_O 	O 	0.94979	0.62524	0.99713	-0.285
Mof_O 	O 	0.96176	0.72609	0.0324	-0.273
Mof_O 	O 	0.86196	0.77252	0.17458	-0.286
Mof_O 	O 	0.82051	0.68549	0.20722	-0.276
Mof_O 	O 	0.76894	0.29104	0.18306	-0.277
Mof_O 	O 	0.72923	0.39122	0.17304	-0.279
Mof_C 	C 	0.94399	0.8028	0.91375	0.32
Mof_C 	C 	0.90879	0.8442	0.88414	-0.056
Mof_C 	C 	0.87713	0.8121	0.85319	0.002
Mof_H 	H 	0.8783	0.7637	0.8496	0.059
Mof_C 	C 	0.84338	0.8509	0.82728	-0.048
Mof_C 	C 	0.80802	0.8164	0.79484	0.287
Mof_C 	C 	0.84197	0.9212	0.83323	-0.036
Mof_H 	H 	0.8184	0.9473	0.8161	0.063
Mof_C 	C 	0.87411	0.95482	0.86364	0.013
Mof_C 	C 	0.90782	0.9153	0.88882	-0.033
Mof_H 	H 	0.9305	0.937	0.9095	0.066
Mof_C 	C 	0.87228	0.0308	0.86988	0.019
Mof_C 	C 	0.8479	0.0718	0.83724	-0.042
Mof_H 	H 	0.8329	0.0514	0.8108	0.054
Mof_C 	C 	0.84553	0.1427	0.84338	-0.049
Mof_C 	C 	0.86853	0.1735	0.88098	-0.008
Mof_H 	H 	0.8666	0.2217	0.8851	0.07
Mof_C 	C 	0.89459	0.1333	0.91284	-0.039
Mof_C 	C 	0.89553	0.0624	0.9072	-0.044
Mof_H 	H 	0.9125	0.0351	0.9294	0.069
Mof_C 	C 	0.8191	0.18576	0.80828	0.284
Mof_C 	C 	0.92325	0.1661	0.95168	0.286
Mof_C 	C 	0.91921	0.3043	0.0734	0.293
Mof_C 	C 	0.8844	0.3541	0.09653	-0.057
Mof_C 	C 	0.84348	0.331	0.12133	0.004
Mof_H 	H 	0.8382	0.2831	0.125	0.064
Mof_C 	C 	0.80988	0.3771	0.14104	-0.055
Mof_C 	C 	0.81869	0.4473	0.13655	-0.032
Mof_H 	H 	0.7955	0.479	0.1493	0.063
Mof_C 	C 	0.86145	0.472	0.11337	0.012
Mof_C 	C 	0.89378	0.4242	0.0932	-0.034
Mof_H 	H 	0.9226	0.4398	0.077	0.051
Mof_C 	C 	0.87261	0.5467	0.10988	0.013
Mof_C 	C 	0.89974	0.5729	0.07242	-0.035
Mof_H 	H 	0.9086	0.5432	0.0477	0.06
Mof_C 	C 	0.91408	0.6415	0.07064	-0.056
Mof_C 	C 	0.89912	0.6855	0.1058	0.005
Mof_H 	H 	0.9094	0.7321	0.1052	0.061
Mof_C 	C 	0.86941	0.6621	0.14171	-0.056
Mof_C 	C 	0.85667	0.5927	0.14408	-0.033
Mof_H 	H 	0.837	0.5766	0.1692	0.066
Mof_C 	C 	0.84904	0.711	0.17721	0.319
Mof_C 	C 	0.94416	0.6667	0.0299	0.318
Mof_C 	C 	0.76557	0.3513	0.16779	0.318
_end
