data_functionalizedCrystal
_audit_creation_method	'EQeq! by Chris Wilmer'
_symmetry_space_group_name_H-M	'P1'
_symmetry_Int_Tables_number	1
_symmetry_cell_setting	triclinic
loop_
_symmetry_equiv_pos_as_xyz
  x,y,z
_cell_length_a	12.643
_cell_length_b	13.944
_cell_length_c	15.443
_cell_angle_alpha	59.647
_cell_angle_beta	83.262
_cell_angle_gamma	86.876
loop_
_atom_site_label
_atom_site_type_symbol
_atom_site_fract_x
_atom_site_fract_y
_atom_site_fract_z
_atom_site_charge
Mof_La	La	0.06831	0.09328	0.25108	2.047
Mof_La	La	0.06766	0.84634	0.53337	2.238
Mof_Cu	Cu	0.45225	0.58724	0.22545	0.846
Mof_O 	O 	0.191	0.9558	0.2115	-0.449
Mof_O 	O 	0.1882	0.9185	0.368	-0.57
Mof_O 	O 	0.8599	0.322	0.4863	-0.427
Mof_O 	O 	0.8358	0.3295	0.3445	-0.45
Mof_O 	O 	0.8056	0.7833	0.9115	-0.453
Mof_O 	O 	0.7312	0.8499	0.7699	-0.404
Mof_O 	O 	0.08	0.3014	0.3789	-0.498
Mof_O 	O 	0.0588	0.2716	0.2541	-0.543
Mof_O 	O 	0.0821	0.057	0.4254	-0.686
Mof_O 	O 	0.9666	0.8966	0.3889	-0.682
Mof_O 	O 	0.9435	0.9673	0.2296	-0.553
Mof_O 	O 	0.2513	0.8993	0.5658	-0.501
Mof_O 	O 	0.1146	0.8811	0.6747	-0.683
Mof_N 	N 	0.4105	0.6822	0.291	-0.276
Mof_N 	N 	0.5647	0.5332	0.3249	-0.268
Mof_N 	N 	0.5014	0.6525	0.0748	-0.266
Mof_N 	N 	0.3466	0.5078	0.1926	-0.276
Mof_C 	C 	0.3277	0.7521	0.2718	0.276
Mof_C 	C 	0.3112	0.8176	0.3171	-0.259
Mof_C 	C 	0.3795	0.8046	0.3857	0.128
Mof_C 	C 	0.4643	0.7327	0.4052	-0.166
Mof_C 	C 	0.4787	0.673	0.355	0.063
Mof_C 	C 	0.5677	0.5945	0.3701	0.043
Mof_C 	C 	0.6501	0.5839	0.4268	-0.146
Mof_C 	C 	0.7293	0.5071	0.4378	0.084
Mof_C 	C 	0.7267	0.4441	0.3915	-0.21
Mof_C 	C 	0.6418	0.458	0.3354	0.248
Mof_C 	C 	0.253	0.7484	0.2062	-0.629
Mof_C 	C 	0.2244	0.9016	0.2966	0.447
Mof_C 	C 	0.6266	0.3925	0.2856	-0.609
Mof_C 	C 	0.8134	0.3605	0.4083	0.362
Mof_C 	C 	0.5918	0.7111	0.0237	0.245
Mof_C 	C 	0.6226	0.7378	0.9232	-0.209
Mof_C 	C 	0.5534	0.7105	0.8746	0.087
Mof_C 	C 	0.4608	0.6526	0.9261	-0.146
Mof_C 	C 	0.438	0.6226	0.0281	0.047
Mof_C 	C 	0.3456	0.5517	0.0917	0.055
Mof_C 	C 	0.2639	0.5276	0.0527	-0.165
Mof_C 	C 	0.1853	0.4533	0.119	0.126
Mof_C 	C 	0.1879	0.404	0.223	-0.265
Mof_C 	C 	0.2708	0.4346	0.258	0.27
Mof_C 	C 	0.6534	0.7434	0.083	-0.605
Mof_C 	C 	0.7259	0.7946	0.8651	0.365
Mof_C 	C 	0.2827	0.3882	0.3666	-0.625
Mof_C 	C 	0.1035	0.3202	0.2909	0.469
Mof_C 	C 	0.8488	0.7999	0.35	-0.951
Mof_C 	C 	0.9244	0.8921	0.3203	0.668
Mof_C 	C 	0.214	0.895	0.6465	0.617
Mof_C 	C 	0.2853	0.9015	0.7145	-0.874
Mof_H 	H 	0.368	0.8456	0.4198	-0.011
Mof_H 	H 	0.5119	0.7241	0.4519	0.066
Mof_H 	H 	0.6519	0.6283	0.4572	0.052
Mof_H 	H 	0.7856	0.4975	0.4771	-0.001
Mof_H 	H 	0.2763	0.8016	0.1354	0.191
Mof_H 	H 	0.1812	0.7678	0.2239	0.207
Mof_H 	H 	0.252	0.6734	0.2158	0.17
Mof_H 	H 	0.5851	0.3253	0.3331	0.189
Mof_H 	H 	0.6962	0.3716	0.2651	0.212
Mof_H 	H 	0.5885	0.4376	0.2261	0.158
Mof_H 	H 	0.5705	0.7321	0.8055	0.001
Mof_H 	H 	0.4135	0.6334	0.8938	0.056
Mof_H 	H 	0.2622	0.5614	0.9818	0.068
Mof_H 	H 	0.1291	0.4357	0.0936	-0.02
Mof_H 	H 	0.6288	0.8158	0.0731	0.185
Mof_H 	H 	0.7294	0.748	0.0596	0.213
Mof_H 	H 	0.6421	0.6873	0.1548	0.165
Mof_H 	H 	0.3255	0.3204	0.391	0.187
Mof_H 	H 	0.2122	0.3705	0.4052	0.212
Mof_H 	H 	0.3182	0.443	0.3754	0.16
Mof_H 	H 	0.8881	0.7365	0.3518	0.288
Mof_H 	H 	0.7965	0.8251	0.3009	0.289
Mof_H 	H 	0.812	0.7775	0.417	0.285
Mof_H 	H 	0.3074	0.8265	0.7633	0.261
Mof_H 	H 	0.2467	0.9359	0.7507	0.259
Mof_H 	H 	0.3484	0.9464	0.6741	0.271
Mof_La	La	0.93169	0.90672	0.74892	2.047
Mof_La	La	0.93234	0.15366	0.46663	2.238
Mof_Cu	Cu	0.54775	0.41276	0.77455	0.846
Mof_O 	O 	0.809	0.0442	0.7885	-0.449
Mof_O 	O 	0.8118	0.0815	0.632	-0.57
Mof_O 	O 	0.1401	0.678	0.5137	-0.427
Mof_O 	O 	0.1642	0.6705	0.6555	-0.45
Mof_O 	O 	0.1944	0.2167	0.0885	-0.453
Mof_O 	O 	0.2688	0.1501	0.2301	-0.404
Mof_O 	O 	0.92	0.6986	0.6211	-0.498
Mof_O 	O 	0.9412	0.7284	0.7459	-0.543
Mof_O 	O 	0.9179	0.943	0.5746	-0.686
Mof_O 	O 	0.0334	0.1034	0.6111	-0.682
Mof_O 	O 	0.0565	0.0327	0.7704	-0.553
Mof_O 	O 	0.7487	0.1007	0.4342	-0.501
Mof_O 	O 	0.8854	0.1189	0.3253	-0.683
Mof_N 	N 	0.5895	0.3178	0.709	-0.276
Mof_N 	N 	0.4353	0.4668	0.6751	-0.268
Mof_N 	N 	0.4986	0.3475	0.9252	-0.266
Mof_N 	N 	0.6534	0.4922	0.8074	-0.276
Mof_C 	C 	0.6723	0.2479	0.7282	0.276
Mof_C 	C 	0.6888	0.1824	0.6829	-0.259
Mof_C 	C 	0.6205	0.1954	0.6143	0.128
Mof_C 	C 	0.5357	0.2673	0.5948	-0.166
Mof_C 	C 	0.5213	0.327	0.645	0.063
Mof_C 	C 	0.4323	0.4055	0.6299	0.043
Mof_C 	C 	0.3499	0.4161	0.5732	-0.146
Mof_C 	C 	0.2707	0.4929	0.5622	0.084
Mof_C 	C 	0.2733	0.5559	0.6085	-0.21
Mof_C 	C 	0.3582	0.542	0.6646	0.248
Mof_C 	C 	0.747	0.2516	0.7938	-0.629
Mof_C 	C 	0.7756	0.0984	0.7034	0.447
Mof_C 	C 	0.3734	0.6075	0.7144	-0.609
Mof_C 	C 	0.1866	0.6395	0.5917	0.362
Mof_C 	C 	0.4082	0.2889	0.9763	0.245
Mof_C 	C 	0.3774	0.2622	0.0768	-0.209
Mof_C 	C 	0.4466	0.2895	0.1254	0.087
Mof_C 	C 	0.5392	0.3474	0.0739	-0.146
Mof_C 	C 	0.562	0.3774	0.9719	0.047
Mof_C 	C 	0.6544	0.4483	0.9083	0.055
Mof_C 	C 	0.7361	0.4724	0.9473	-0.165
Mof_C 	C 	0.8147	0.5467	0.881	0.126
Mof_C 	C 	0.8121	0.596	0.777	-0.265
Mof_C 	C 	0.7292	0.5654	0.742	0.27
Mof_C 	C 	0.3466	0.2566	0.917	-0.605
Mof_C 	C 	0.2741	0.2054	0.1349	0.365
Mof_C 	C 	0.7173	0.6118	0.6334	-0.625
Mof_C 	C 	0.8965	0.6798	0.7091	0.469
Mof_C 	C 	0.1512	0.2001	0.65	-0.951
Mof_C 	C 	0.0756	0.1079	0.6797	0.668
Mof_C 	C 	0.786	0.105	0.3535	0.617
Mof_C 	C 	0.7147	0.0985	0.2855	-0.874
Mof_H 	H 	0.632	0.1544	0.5802	-0.011
Mof_H 	H 	0.4881	0.2759	0.5481	0.066
Mof_H 	H 	0.3481	0.3717	0.5428	0.052
Mof_H 	H 	0.2144	0.5025	0.5229	-0.001
Mof_H 	H 	0.7237	0.1984	0.8646	0.191
Mof_H 	H 	0.8188	0.2322	0.7761	0.207
Mof_H 	H 	0.748	0.3266	0.7842	0.17
Mof_H 	H 	0.4149	0.6747	0.6669	0.189
Mof_H 	H 	0.3038	0.6284	0.7349	0.212
Mof_H 	H 	0.4115	0.5624	0.7739	0.158
Mof_H 	H 	0.4295	0.2679	0.1945	0.001
Mof_H 	H 	0.5865	0.3666	0.1062	0.056
Mof_H 	H 	0.7378	0.4386	0.0182	0.068
Mof_H 	H 	0.8709	0.5643	0.9064	-0.02
Mof_H 	H 	0.3712	0.1842	0.9269	0.185
Mof_H 	H 	0.2706	0.252	0.9404	0.213
Mof_H 	H 	0.3579	0.3127	0.8452	0.165
Mof_H 	H 	0.6745	0.6796	0.609	0.187
Mof_H 	H 	0.7878	0.6295	0.5948	0.212
Mof_H 	H 	0.6818	0.557	0.6246	0.16
Mof_H 	H 	0.1119	0.2635	0.6482	0.288
Mof_H 	H 	0.2035	0.1749	0.6991	0.289
Mof_H 	H 	0.188	0.2225	0.583	0.285
Mof_H 	H 	0.6926	0.1735	0.2367	0.261
Mof_H 	H 	0.7533	0.0641	0.2493	0.259
Mof_H 	H 	0.6516	0.0536	0.3259	0.271
_end
