data_functionalizedCrystal
_audit_creation_method	'EQeq! by Chris Wilmer'
_symmetry_space_group_name_H-M	'P1'
_symmetry_Int_Tables_number	1
_symmetry_cell_setting	triclinic
loop_
_symmetry_equiv_pos_as_xyz
  x,y,z
_cell_length_a	5.7018
_cell_length_b	21.6612
_cell_length_c	21.5687
_cell_angle_alpha	89.976
_cell_angle_beta	89.992
_cell_angle_gamma	89.989
loop_
_atom_site_label
_atom_site_type_symbol
_atom_site_fract_x
_atom_site_fract_y
_atom_site_fract_z
_atom_site_charge
Mof_Ag	Ag	0.86944	0.0006	0.24984	0.661
Mof_N 	N 	0.5952	0.9216	0.2496	-0.194
Mof_N 	N 	0.6084	0.0766	0.25	-0.206
Mof_N 	N 	0.1411	0.0027	0.1719	-0.19
Mof_N 	N 	0.14	0.0029	0.3298	-0.191
Mof_C 	C 	0.2306	0.8516	0.2493	-0.04
Mof_C 	C 	0.1319	0.8322	0.1937	-0.023
Mof_H 	H 	0.1941	0.8465	0.1554	0.032
Mof_C 	C 	0.9422	0.7919	0.1941	-0.071
Mof_H 	H 	0.8747	0.7787	0.1561	0.049
Mof_C 	C 	0.8512	0.771	0.25	0.024
Mof_C 	C 	0.9498	0.7904	0.3057	-0.072
Mof_H 	H 	0.8876	0.7761	0.3439	0.048
Mof_C 	C 	0.1396	0.8307	0.3053	-0.024
Mof_H 	H 	0.207	0.8439	0.3433	0.031
Mof_C 	C 	0.4317	0.8904	0.2498	0.081
Mof_C 	C 	0.2368	0.1476	0.2501	-0.042
Mof_C 	C 	0.1414	0.1677	0.1943	-0.021
Mof_H 	H 	0.2072	0.1542	0.1561	0.031
Mof_C 	C 	0.9499	0.2074	0.1943	-0.075
Mof_H 	H 	0.8847	0.2211	0.1562	0.048
Mof_C 	C 	0.8537	0.227	0.2502	0.025
Mof_C 	C 	0.949	0.2069	0.3059	-0.074
Mof_H 	H 	0.8833	0.2203	0.3441	0.048
Mof_C 	C 	0.1406	0.1672	0.3059	-0.021
Mof_H 	H 	0.2057	0.1535	0.344	0.031
Mof_C 	C 	0.449	0.107	0.2505	0.09
Mof_C 	C 	0.5145	0.0019	0.1027	-0.034
Mof_C 	C 	0.6094	0.0571	0.0813	-0.03
Mof_H 	H 	0.5434	0.0953	0.094	0.034
Mof_C 	C 	0.8008	0.0562	0.0414	-0.066
Mof_H 	H 	0.8656	0.0939	0.0268	0.046
Mof_C 	C 	0.8973	0.0003	0.0229	0.02
Mof_C 	C 	0.8025	0.9451	0.0443	-0.065
Mof_H 	H 	0.8684	0.9069	0.0317	0.046
Mof_C 	C 	0.611	0.9459	0.0842	-0.031
Mof_H 	H 	0.5462	0.9083	0.0989	0.034
Mof_C 	C 	0.3131	0.0016	0.1409	0.072
Mof_C 	C 	0.5167	0.0021	0.397	-0.037
Mof_C 	C 	0.6119	0.9462	0.4162	-0.029
Mof_H 	H 	0.5467	0.9085	0.4018	0.033
Mof_C 	C 	0.8025	0.9455	0.4563	-0.067
Mof_H 	H 	0.8675	0.9073	0.4694	0.046
Mof_C 	C 	0.8979	0.0007	0.4774	0.021
Mof_C 	C 	0.8027	0.0566	0.4582	-0.068
Mof_H 	H 	0.8679	0.0943	0.4726	0.046
Mof_C 	C 	0.6121	0.0573	0.418	-0.028
Mof_H 	H 	0.5471	0.0956	0.4049	0.033
Mof_C 	C 	0.3087	0.0009	0.3599	0.077
Mof_Ag	Ag	0.36944	0.5006	0.74984	0.664
Mof_N 	N 	0.0952	0.4216	0.7496	-0.195
Mof_N 	N 	0.1084	0.5766	0.75	-0.207
Mof_N 	N 	0.6411	0.5027	0.6719	-0.193
Mof_N 	N 	0.64	0.5029	0.8298	-0.193
Mof_C 	C 	0.7306	0.3516	0.7493	-0.039
Mof_C 	C 	0.6319	0.3322	0.6937	-0.028
Mof_H 	H 	0.6941	0.3465	0.6554	0.033
Mof_C 	C 	0.4422	0.2919	0.6941	-0.067
Mof_H 	H 	0.3747	0.2787	0.6561	0.046
Mof_C 	C 	0.3512	0.271	0.75	0.02
Mof_C 	C 	0.4498	0.2904	0.8057	-0.067
Mof_H 	H 	0.3876	0.2761	0.8439	0.046
Mof_C 	C 	0.6396	0.3307	0.8053	-0.028
Mof_H 	H 	0.707	0.3439	0.8433	0.033
Mof_C 	C 	0.9317	0.3904	0.7498	0.079
Mof_C 	C 	0.7368	0.6476	0.7501	-0.037
Mof_C 	C 	0.6414	0.6677	0.6943	-0.028
Mof_H 	H 	0.7072	0.6542	0.6561	0.033
Mof_C 	C 	0.4499	0.7074	0.6943	-0.067
Mof_H 	H 	0.3847	0.7211	0.6562	0.046
Mof_C 	C 	0.3537	0.727	0.7502	0.02
Mof_C 	C 	0.449	0.7069	0.8059	-0.067
Mof_H 	H 	0.3833	0.7203	0.8441	0.046
Mof_C 	C 	0.6406	0.6672	0.8059	-0.028
Mof_H 	H 	0.7057	0.6535	0.844	0.033
Mof_C 	C 	0.949	0.607	0.7505	0.089
Mof_C 	C 	0.0145	0.5019	0.6027	-0.034
Mof_C 	C 	0.1094	0.5571	0.5813	-0.03
Mof_H 	H 	0.0434	0.5953	0.594	0.034
Mof_C 	C 	0.3008	0.5562	0.5414	-0.066
Mof_H 	H 	0.3656	0.5939	0.5268	0.046
Mof_C 	C 	0.3973	0.5003	0.5229	0.021
Mof_C 	C 	0.3025	0.4451	0.5443	-0.067
Mof_H 	H 	0.3684	0.4069	0.5317	0.046
Mof_C 	C 	0.111	0.4459	0.5842	-0.031
Mof_H 	H 	0.0462	0.4083	0.5989	0.034
Mof_C 	C 	0.8131	0.5016	0.6409	0.071
Mof_C 	C 	0.0167	0.5021	0.897	-0.037
Mof_C 	C 	0.1119	0.4462	0.9162	-0.029
Mof_H 	H 	0.0467	0.4085	0.9018	0.033
Mof_C 	C 	0.3025	0.4455	0.9563	-0.067
Mof_H 	H 	0.3675	0.4073	0.9694	0.046
Mof_C 	C 	0.3979	0.5007	0.9774	0.022
Mof_C 	C 	0.3027	0.5566	0.9582	-0.068
Mof_H 	H 	0.3679	0.5943	0.9726	0.046
Mof_C 	C 	0.1121	0.5573	0.918	-0.027
Mof_H 	H 	0.0471	0.5956	0.9049	0.033
Mof_C 	C 	0.8087	0.5009	0.8599	0.077
Mof_Ag	Ag	0.13056	0.9994	0.75016	0.66
Mof_N 	N 	0.4048	0.0784	0.7504	-0.195
Mof_N 	N 	0.3916	0.9234	0.75	-0.207
Mof_N 	N 	0.8589	0.9973	0.8281	-0.191
Mof_N 	N 	0.86	0.9971	0.6702	-0.192
Mof_C 	C 	0.7694	0.1484	0.7507	-0.041
Mof_C 	C 	0.8681	0.1678	0.8063	-0.024
Mof_H 	H 	0.8059	0.1535	0.8446	0.031
Mof_C 	C 	0.0578	0.2081	0.8059	-0.072
Mof_H 	H 	0.1253	0.2213	0.8439	0.048
Mof_C 	C 	0.1488	0.229	0.75	0.024
Mof_C 	C 	0.0502	0.2096	0.6943	-0.072
Mof_H 	H 	0.1124	0.2239	0.6561	0.048
Mof_C 	C 	0.8604	0.1693	0.6947	-0.024
Mof_H 	H 	0.793	0.1561	0.6567	0.031
Mof_C 	C 	0.5683	0.1096	0.7502	0.081
Mof_C 	C 	0.7632	0.8524	0.7499	-0.042
Mof_C 	C 	0.8586	0.8323	0.8057	-0.021
Mof_H 	H 	0.7928	0.8458	0.8439	0.031
Mof_C 	C 	0.0501	0.7926	0.8057	-0.075
Mof_H 	H 	0.1153	0.7789	0.8438	0.048
Mof_C 	C 	0.1463	0.773	0.7498	0.025
Mof_C 	C 	0.051	0.7931	0.6941	-0.074
Mof_H 	H 	0.1167	0.7797	0.6559	0.048
Mof_C 	C 	0.8594	0.8328	0.6941	-0.021
Mof_H 	H 	0.7943	0.8465	0.656	0.031
Mof_C 	C 	0.551	0.893	0.7495	0.09
Mof_C 	C 	0.4855	0.9981	0.8973	-0.034
Mof_C 	C 	0.3906	0.9429	0.9187	-0.03
Mof_H 	H 	0.4566	0.9047	0.906	0.034
Mof_C 	C 	0.1992	0.9438	0.9586	-0.066
Mof_H 	H 	0.1344	0.9061	0.9732	0.046
Mof_C 	C 	0.1027	0.9997	0.9771	0.02
Mof_C 	C 	0.1975	0.0549	0.9557	-0.065
Mof_H 	H 	0.1316	0.0931	0.9683	0.046
Mof_C 	C 	0.389	0.0541	0.9158	-0.031
Mof_H 	H 	0.4538	0.0917	0.9011	0.034
Mof_C 	C 	0.6869	0.9984	0.8591	0.072
Mof_C 	C 	0.4833	0.9979	0.603	-0.037
Mof_C 	C 	0.3881	0.0538	0.5838	-0.029
Mof_H 	H 	0.4533	0.0915	0.5982	0.033
Mof_C 	C 	0.1975	0.0545	0.5437	-0.067
Mof_H 	H 	0.1325	0.0927	0.5306	0.046
Mof_C 	C 	0.1021	0.9993	0.5226	0.021
Mof_C 	C 	0.1973	0.9434	0.5418	-0.068
Mof_H 	H 	0.1321	0.9057	0.5274	0.046
Mof_C 	C 	0.3879	0.9427	0.582	-0.028
Mof_H 	H 	0.4529	0.9044	0.5951	0.033
Mof_C 	C 	0.6913	0.9991	0.6401	0.077
Mof_Ag	Ag	0.63056	0.4994	0.25016	0.664
Mof_N 	N 	0.9048	0.5784	0.2504	-0.195
Mof_N 	N 	0.8916	0.4234	0.25	-0.207
Mof_N 	N 	0.3589	0.4973	0.3281	-0.193
Mof_N 	N 	0.36	0.4971	0.1702	-0.193
Mof_C 	C 	0.2694	0.6484	0.2507	-0.039
Mof_C 	C 	0.3681	0.6678	0.3063	-0.028
Mof_H 	H 	0.3059	0.6535	0.3446	0.033
Mof_C 	C 	0.5578	0.7081	0.3059	-0.067
Mof_H 	H 	0.6253	0.7213	0.3439	0.046
Mof_C 	C 	0.6488	0.729	0.25	0.02
Mof_C 	C 	0.5502	0.7096	0.1943	-0.067
Mof_H 	H 	0.6124	0.7239	0.1561	0.046
Mof_C 	C 	0.3604	0.6693	0.1947	-0.028
Mof_H 	H 	0.293	0.6561	0.1567	0.033
Mof_C 	C 	0.0683	0.6096	0.2502	0.079
Mof_C 	C 	0.2632	0.3524	0.2499	-0.037
Mof_C 	C 	0.3586	0.3323	0.3057	-0.028
Mof_H 	H 	0.2928	0.3458	0.3439	0.033
Mof_C 	C 	0.5501	0.2926	0.3057	-0.067
Mof_H 	H 	0.6153	0.2789	0.3438	0.046
Mof_C 	C 	0.6463	0.273	0.2498	0.02
Mof_C 	C 	0.551	0.2931	0.1941	-0.067
Mof_H 	H 	0.6167	0.2797	0.1559	0.046
Mof_C 	C 	0.3594	0.3328	0.1941	-0.028
Mof_H 	H 	0.2943	0.3465	0.156	0.033
Mof_C 	C 	0.051	0.393	0.2495	0.089
Mof_C 	C 	0.9855	0.4981	0.3973	-0.034
Mof_C 	C 	0.8906	0.4429	0.4187	-0.03
Mof_H 	H 	0.9566	0.4047	0.406	0.034
Mof_C 	C 	0.6992	0.4438	0.4586	-0.066
Mof_H 	H 	0.6344	0.4061	0.4732	0.046
Mof_C 	C 	0.6027	0.4997	0.4771	0.021
Mof_C 	C 	0.6975	0.5549	0.4557	-0.067
Mof_H 	H 	0.6316	0.5931	0.4683	0.046
Mof_C 	C 	0.889	0.5541	0.4158	-0.031
Mof_H 	H 	0.9538	0.5917	0.4011	0.034
Mof_C 	C 	0.1869	0.4984	0.3591	0.071
Mof_C 	C 	0.9833	0.4979	0.103	-0.037
Mof_C 	C 	0.8881	0.5538	0.0838	-0.029
Mof_H 	H 	0.9533	0.5915	0.0982	0.033
Mof_C 	C 	0.6975	0.5545	0.0437	-0.067
Mof_H 	H 	0.6325	0.5927	0.0306	0.046
Mof_C 	C 	0.6021	0.4993	0.0226	0.022
Mof_C 	C 	0.6973	0.4434	0.0418	-0.068
Mof_H 	H 	0.6321	0.4057	0.0274	0.046
Mof_C 	C 	0.8879	0.4427	0.082	-0.027
Mof_H 	H 	0.9529	0.4044	0.0951	0.033
Mof_C 	C 	0.1913	0.4991	0.1401	0.077
_end
