data_functionalizedCrystal
_audit_creation_method	'EQeq! by Chris Wilmer'
_symmetry_space_group_name_H-M	'P1'
_symmetry_Int_Tables_number	1
_symmetry_cell_setting	triclinic
loop_
_symmetry_equiv_pos_as_xyz
  x,y,z
_cell_length_a	33.5256
_cell_length_b	33.5256
_cell_length_c	33.5256
_cell_angle_alpha	109.471
_cell_angle_beta	109.471
_cell_angle_gamma	109.471
loop_
_atom_site_label
_atom_site_type_symbol
_atom_site_fract_x
_atom_site_fract_y
_atom_site_fract_z
_atom_site_charge
Mof_In	In	0.36091	0.27884	0.66767	2.645
Mof_In	In	0.11117	0.69324	0.83233	2.645
Mof_In	In	0.38883	0.22115	0.58207	2.645
Mof_In	In	0.13909	0.80677	0.91793	2.645
Mof_In	In	0.08207	0.38883	0.72116	2.645
Mof_In	In	0.41793	0.13909	0.30676	2.645
Mof_In	In	0.16768	0.36092	0.77885	2.645
Mof_In	In	0.33232	0.11116	0.19323	2.645
Mof_In	In	0.69324	0.33233	0.61117	2.645
Mof_In	In	0.27884	0.16767	0.86091	2.645
Mof_In	In	0.80676	0.41793	0.63908	2.645
Mof_In	In	0.22116	0.08207	0.88884	2.645
Mof_In	In	0.19324	0.61117	0.33233	2.645
Mof_In	In	0.77884	0.86091	0.16767	2.645
Mof_In	In	0.30676	0.63908	0.41793	2.645
Mof_In	In	0.72116	0.88884	0.08207	2.645
Mof_In	In	0.86091	0.66767	0.27884	2.645
Mof_In	In	0.61117	0.83233	0.69324	2.645
Mof_In	In	0.88883	0.58207	0.22115	2.645
Mof_In	In	0.63909	0.91793	0.80677	2.645
Mof_In	In	0.58207	0.72116	0.38883	2.645
Mof_In	In	0.91793	0.30676	0.13909	2.645
Mof_In	In	0.66768	0.77885	0.36092	2.645
Mof_In	In	0.83232	0.19323	0.11116	2.645
Mof_In	In	0.4551	0.25	0.7051	2.308
Mof_In	In	0.0449	0.75	0.7949	2.308
Mof_In	In	0.2051	0.4551	0.75	2.308
Mof_In	In	0.2949	0.0449	0.25	2.308
Mof_In	In	0.75	0.2949	0.5449	2.308
Mof_In	In	0.25	0.2051	0.9551	2.308
Mof_In	In	0.25	0.5449	0.2949	2.307
Mof_In	In	0.75	0.9551	0.2051	2.307
Mof_In	In	0.9551	0.7051	0.25	2.307
Mof_In	In	0.5449	0.7949	0.75	2.307
Mof_In	In	0.7051	0.75	0.4551	2.307
Mof_In	In	0.7949	0.25	0.0449	2.307
Mof_H 	H 	0.3751	0.1993	0.8572	0.016
Mof_H 	H 	0.2503	0.1776	0.7673	0.007
Mof_H 	H 	0.44	0.2301	0.8033	0.137
Mof_H 	H 	0.4403	0.2194	0.8431	0.133
Mof_H 	H 	0.2813	0.197	0.7209	0.022
Mof_H 	H 	0.4305	0.0966	0.6555	-0.062
Mof_H 	H 	0.3802	0.8781	0.5273	0.126
Mof_H 	H 	0.3569	0.0734	0.5225	-0.055
Mof_H 	H 	0.2396	0.7669	0.3763	-0.029
Mof_H 	H 	0.2637	0.8498	0.4135	0.11
Mof_H 	H 	0.359	0.7958	0.4904	-0.027
Mof_H 	H 	0.4106	0.0151	0.6209	0.153
Mof_H 	H 	0.3445	0.9941	0.4908	0.148
Mof_H 	H 	0.8421	0.5179	0.6428	0.016
Mof_H 	H 	0.9103	0.483	0.7327	0.007
Mof_H 	H 	0.9268	0.6367	0.6967	0.137
Mof_H 	H 	0.8763	0.5972	0.6569	0.133
Mof_H 	H 	0.9761	0.5604	0.7791	0.022
Mof_H 	H 	0.9411	0.775	0.8445	-0.062
Mof_H 	H 	0.8508	0.8529	0.9727	0.126
Mof_H 	H 	0.0509	0.8344	0.9775	-0.055
Mof_H 	H 	0.8906	0.8633	0.1237	-0.029
Mof_H 	H 	0.9363	0.8502	0.0865	0.11
Mof_H 	H 	0.8054	0.8686	0.0096	-0.027
Mof_H 	H 	0.8942	0.7897	0.8791	0.154
Mof_H 	H 	0.0033	0.8537	0.0092	0.147
Mof_H 	H 	0.6579	0.3007	0.6758	0.016
Mof_H 	H 	0.5897	0.3224	0.5727	0.007
Mof_H 	H 	0.5732	0.2699	0.7099	0.137
Mof_H 	H 	0.6237	0.2806	0.7209	0.133
Mof_H 	H 	0.5239	0.303	0.5843	0.022
Mof_H 	H 	0.5589	0.4034	0.8339	-0.062
Mof_H 	H 	0.6492	0.6219	0.0021	0.126
Mof_H 	H 	0.4491	0.4266	0.7835	-0.056
Mof_H 	H 	0.6094	0.7331	0.9727	-0.029
Mof_H 	H 	0.5637	0.6502	0.9139	0.11
Mof_H 	H 	0.6946	0.7042	0.0632	-0.027
Mof_H 	H 	0.6058	0.4849	0.8955	0.154
Mof_H 	H 	0.4967	0.5059	0.8504	0.148
Mof_H 	H 	0.1249	0.9821	0.8242	0.016
Mof_H 	H 	0.2497	0.017	0.9273	0.007
Mof_H 	H 	0.06	0.8633	0.7901	0.137
Mof_H 	H 	0.0597	0.9028	0.7791	0.133
Mof_H 	H 	0.2187	0.9396	0.9157	0.022
Mof_H 	H 	0.0695	0.725	0.6661	-0.062
Mof_H 	H 	0.1198	0.6471	0.4979	0.126
Mof_H 	H 	0.1431	0.6656	0.7165	-0.056
Mof_H 	H 	0.2604	0.6367	0.5273	-0.029
Mof_H 	H 	0.2363	0.6498	0.5861	0.11
Mof_H 	H 	0.141	0.6314	0.4368	-0.027
Mof_H 	H 	0.0894	0.7103	0.6045	0.154
Mof_H 	H 	0.1555	0.6463	0.6496	0.148
Mof_H 	H 	0.1758	0.6579	0.8007	0.016
Mof_H 	H 	0.0727	0.5897	0.8224	0.007
Mof_H 	H 	0.2099	0.5732	0.7699	0.137
Mof_H 	H 	0.2209	0.6237	0.7806	0.133
Mof_H 	H 	0.0843	0.5239	0.803	0.022
Mof_H 	H 	0.3339	0.5589	0.9034	-0.062
Mof_H 	H 	0.5021	0.6492	0.1219	0.126
Mof_H 	H 	0.2835	0.4491	0.9266	-0.056
Mof_H 	H 	0.4727	0.6094	0.2331	-0.029
Mof_H 	H 	0.4139	0.5637	0.1502	0.11
Mof_H 	H 	0.5632	0.6946	0.2042	-0.027
Mof_H 	H 	0.3955	0.6058	0.9849	0.154
Mof_H 	H 	0.3504	0.4967	0.0059	0.148
Mof_H 	H 	0.3242	0.1249	0.4821	0.016
Mof_H 	H 	0.4273	0.2497	0.517	0.007
Mof_H 	H 	0.2901	0.06	0.3633	0.137
Mof_H 	H 	0.2791	0.0597	0.4028	0.133
Mof_H 	H 	0.4157	0.2187	0.4396	0.022
Mof_H 	H 	0.1661	0.0695	0.225	-0.062
Mof_H 	H 	0.9979	0.1198	0.1471	0.126
Mof_H 	H 	0.2165	0.1431	0.1656	-0.056
Mof_H 	H 	0.0273	0.2604	0.1367	-0.029
Mof_H 	H 	0.0861	0.2363	0.1498	0.11
Mof_H 	H 	0.9368	0.141	0.1314	-0.026
Mof_H 	H 	0.1045	0.0894	0.2103	0.154
Mof_H 	H 	0.1496	0.1555	0.1463	0.148
Mof_H 	H 	0.3572	0.3751	0.6993	0.016
Mof_H 	H 	0.2673	0.2503	0.6776	0.007
Mof_H 	H 	0.3033	0.44	0.7301	0.137
Mof_H 	H 	0.3431	0.4403	0.7194	0.133
Mof_H 	H 	0.2209	0.2813	0.697	0.022
Mof_H 	H 	0.1555	0.4305	0.5966	-0.062
Mof_H 	H 	0.0273	0.3802	0.3781	0.126
Mof_H 	H 	0.0225	0.3569	0.5734	-0.056
Mof_H 	H 	0.8763	0.2396	0.2669	-0.029
Mof_H 	H 	0.9135	0.2637	0.3498	0.11
Mof_H 	H 	0.9904	0.359	0.2958	-0.027
Mof_H 	H 	0.1209	0.4106	0.5151	0.154
Mof_H 	H 	0.9908	0.3445	0.4941	0.148
Mof_H 	H 	0.1428	0.8421	0.0179	0.016
Mof_H 	H 	0.2327	0.9103	0.983	0.007
Mof_H 	H 	0.1967	0.9268	0.1367	0.137
Mof_H 	H 	0.1569	0.8763	0.0972	0.133
Mof_H 	H 	0.2791	0.9761	0.0604	0.022
Mof_H 	H 	0.3445	0.9411	0.275	-0.062
Mof_H 	H 	0.4727	0.8508	0.3529	0.126
Mof_H 	H 	0.4775	0.0509	0.3344	-0.056
Mof_H 	H 	0.6237	0.8906	0.3633	-0.029
Mof_H 	H 	0.5865	0.9363	0.3502	0.11
Mof_H 	H 	0.5096	0.8054	0.3686	-0.027
Mof_H 	H 	0.3791	0.8942	0.2897	0.154
Mof_H 	H 	0.5092	0.0033	0.3537	0.148
Mof_H 	H 	0.5179	0.1428	0.3421	0.016
Mof_H 	H 	0.483	0.2327	0.4103	0.007
Mof_H 	H 	0.6367	0.1967	0.4268	0.137
Mof_H 	H 	0.5972	0.1569	0.3763	0.133
Mof_H 	H 	0.5604	0.2791	0.4761	0.022
Mof_H 	H 	0.775	0.3445	0.4411	-0.062
Mof_H 	H 	0.8529	0.4727	0.3508	0.126
Mof_H 	H 	0.8344	0.4775	0.5509	-0.056
Mof_H 	H 	0.8633	0.6237	0.3906	-0.029
Mof_H 	H 	0.8502	0.5865	0.4363	0.11
Mof_H 	H 	0.8686	0.5096	0.3054	-0.027
Mof_H 	H 	0.7897	0.3791	0.3942	0.154
Mof_H 	H 	0.8537	0.5092	0.5033	0.148
Mof_H 	H 	0.1993	0.3572	0.8751	0.016
Mof_H 	H 	0.1776	0.2673	0.7503	0.007
Mof_H 	H 	0.2301	0.3033	0.94	0.137
Mof_H 	H 	0.2194	0.3431	0.9403	0.133
Mof_H 	H 	0.197	0.2209	0.7813	0.022
Mof_H 	H 	0.0966	0.1555	0.9305	-0.062
Mof_H 	H 	0.8781	0.0273	0.8802	0.126
Mof_H 	H 	0.0734	0.0225	0.8569	-0.056
Mof_H 	H 	0.7669	0.8763	0.7396	-0.029
Mof_H 	H 	0.8498	0.9135	0.7637	0.11
Mof_H 	H 	0.7958	0.9904	0.859	-0.026
Mof_H 	H 	0.0151	0.1209	0.9106	0.153
Mof_H 	H 	0.9941	0.9908	0.8445	0.148
Mof_H 	H 	0.9821	0.3242	0.6249	0.016
Mof_H 	H 	0.017	0.4273	0.7497	0.007
Mof_H 	H 	0.8633	0.2901	0.56	0.137
Mof_H 	H 	0.9028	0.2791	0.5597	0.133
Mof_H 	H 	0.9396	0.4157	0.7187	0.022
Mof_H 	H 	0.725	0.1661	0.5695	-0.062
Mof_H 	H 	0.6471	0.9979	0.6198	0.126
Mof_H 	H 	0.6656	0.2165	0.6431	-0.056
Mof_H 	H 	0.6367	0.0273	0.7604	-0.029
Mof_H 	H 	0.6498	0.0861	0.7363	0.11
Mof_H 	H 	0.6314	0.9368	0.641	-0.027
Mof_H 	H 	0.7103	0.1045	0.5894	0.154
Mof_H 	H 	0.6463	0.1496	0.6555	0.148
Mof_H 	H 	0.3007	0.1758	0.1579	0.016
Mof_H 	H 	0.3224	0.0727	0.0897	0.007
Mof_H 	H 	0.2699	0.2099	0.0732	0.137
Mof_H 	H 	0.2806	0.2209	0.1237	0.133
Mof_H 	H 	0.303	0.0843	0.0239	0.022
Mof_H 	H 	0.4034	0.3339	0.0589	-0.062
Mof_H 	H 	0.6219	0.5021	0.1492	0.126
Mof_H 	H 	0.4266	0.2835	0.9491	-0.056
Mof_H 	H 	0.7331	0.4727	0.1094	-0.029
Mof_H 	H 	0.6502	0.4139	0.0637	0.11
Mof_H 	H 	0.7042	0.5632	0.1946	-0.027
Mof_H 	H 	0.4849	0.3955	0.1058	0.154
Mof_H 	H 	0.5059	0.3504	0.9967	0.148
Mof_H 	H 	0.0179	0.3421	0.1428	0.016
Mof_H 	H 	0.983	0.4103	0.2327	0.006
Mof_H 	H 	0.1367	0.4268	0.1967	0.137
Mof_H 	H 	0.0972	0.3763	0.1569	0.133
Mof_H 	H 	0.0604	0.4761	0.2791	0.022
Mof_H 	H 	0.275	0.4411	0.3445	-0.062
Mof_H 	H 	0.3529	0.3508	0.4727	0.126
Mof_H 	H 	0.3344	0.5509	0.4775	-0.056
Mof_H 	H 	0.3633	0.3906	0.6237	-0.029
Mof_H 	H 	0.3502	0.4363	0.5865	0.11
Mof_H 	H 	0.3686	0.3054	0.5096	-0.027
Mof_H 	H 	0.2897	0.3942	0.3791	0.154
Mof_H 	H 	0.3537	0.5033	0.5092	0.148
Mof_H 	H 	0.6993	0.8751	0.3572	0.016
Mof_H 	H 	0.6776	0.7503	0.2673	0.007
Mof_H 	H 	0.7301	0.94	0.3033	0.137
Mof_H 	H 	0.7194	0.9403	0.3431	0.133
Mof_H 	H 	0.697	0.7813	0.2209	0.022
Mof_H 	H 	0.5966	0.9305	0.1555	-0.062
Mof_H 	H 	0.3781	0.8802	0.0273	0.126
Mof_H 	H 	0.5734	0.8569	0.0225	-0.056
Mof_H 	H 	0.2669	0.7396	0.8763	-0.029
Mof_H 	H 	0.3498	0.7637	0.9135	0.11
Mof_H 	H 	0.2958	0.859	0.9904	-0.027
Mof_H 	H 	0.5151	0.9106	0.1209	0.154
Mof_H 	H 	0.4941	0.8445	0.9908	0.148
Mof_H 	H 	0.4821	0.6249	0.3242	0.016
Mof_H 	H 	0.517	0.7497	0.4273	0.007
Mof_H 	H 	0.3633	0.56	0.2901	0.137
Mof_H 	H 	0.4028	0.5597	0.2791	0.133
Mof_H 	H 	0.4396	0.7187	0.4157	0.022
Mof_H 	H 	0.225	0.5695	0.1661	-0.062
Mof_H 	H 	0.1471	0.6198	0.9979	0.126
Mof_H 	H 	0.1656	0.6431	0.2165	-0.056
Mof_H 	H 	0.1367	0.7604	0.0273	-0.029
Mof_H 	H 	0.1498	0.7363	0.0861	0.11
Mof_H 	H 	0.1314	0.641	0.9368	-0.027
Mof_H 	H 	0.2103	0.5894	0.1045	0.154
Mof_H 	H 	0.1463	0.6555	0.1496	0.148
Mof_H 	H 	0.8007	0.1579	0.1758	0.016
Mof_H 	H 	0.8224	0.0897	0.0727	0.007
Mof_H 	H 	0.7699	0.0732	0.2099	0.137
Mof_H 	H 	0.7806	0.1237	0.2209	0.133
Mof_H 	H 	0.803	0.0239	0.0843	0.022
Mof_H 	H 	0.9034	0.0589	0.3339	-0.062
Mof_H 	H 	0.1219	0.1492	0.5021	0.126
Mof_H 	H 	0.9266	0.9491	0.2835	-0.056
Mof_H 	H 	0.2331	0.1094	0.4727	-0.029
Mof_H 	H 	0.1502	0.0637	0.4139	0.11
Mof_H 	H 	0.2042	0.1946	0.5632	-0.027
Mof_H 	H 	0.9849	0.1058	0.3955	0.154
Mof_H 	H 	0.0059	0.9967	0.3504	0.148
Mof_H 	H 	0.8751	0.8572	0.1993	0.016
Mof_H 	H 	0.7503	0.7673	0.1776	0.007
Mof_H 	H 	0.94	0.8033	0.2301	0.137
Mof_H 	H 	0.9403	0.8431	0.2194	0.133
Mof_H 	H 	0.7813	0.7209	0.197	0.022
Mof_H 	H 	0.9305	0.6555	0.0966	-0.062
Mof_H 	H 	0.8802	0.5273	0.8781	0.126
Mof_H 	H 	0.8569	0.5225	0.0734	-0.056
Mof_H 	H 	0.7396	0.3763	0.7669	-0.029
Mof_H 	H 	0.7637	0.4135	0.8498	0.11
Mof_H 	H 	0.859	0.4904	0.7958	-0.027
Mof_H 	H 	0.9106	0.6209	0.0151	0.153
Mof_H 	H 	0.8445	0.4908	0.9941	0.148
Mof_H 	H 	0.3421	0.6428	0.5179	0.016
Mof_H 	H 	0.4103	0.7327	0.483	0.007
Mof_H 	H 	0.4268	0.6967	0.6367	0.137
Mof_H 	H 	0.3763	0.6569	0.5972	0.133
Mof_H 	H 	0.4761	0.7791	0.5604	0.022
Mof_H 	H 	0.4411	0.8445	0.775	-0.062
Mof_H 	H 	0.3508	0.9727	0.8529	0.126
Mof_H 	H 	0.5509	0.9775	0.8344	-0.056
Mof_H 	H 	0.3906	0.1237	0.8633	-0.029
Mof_H 	H 	0.4363	0.0865	0.8502	0.11
Mof_H 	H 	0.3054	0.0096	0.8686	-0.027
Mof_H 	H 	0.3942	0.8791	0.7897	0.154
Mof_H 	H 	0.5033	0.0092	0.8537	0.148
Mof_H 	H 	0.1579	0.6758	0.3007	0.016
Mof_H 	H 	0.0897	0.5727	0.3224	0.007
Mof_H 	H 	0.0732	0.7099	0.2699	0.137
Mof_H 	H 	0.1237	0.7209	0.2806	0.133
Mof_H 	H 	0.0239	0.5843	0.303	0.022
Mof_H 	H 	0.0589	0.8339	0.4034	-0.062
Mof_H 	H 	0.1492	0.0021	0.6219	0.127
Mof_H 	H 	0.9491	0.7835	0.4266	-0.056
Mof_H 	H 	0.1094	0.9727	0.7331	-0.029
Mof_H 	H 	0.0637	0.9139	0.6502	0.11
Mof_H 	H 	0.1946	0.0632	0.7042	-0.027
Mof_H 	H 	0.1058	0.8955	0.4849	0.154
Mof_H 	H 	0.9967	0.8504	0.5059	0.148
Mof_H 	H 	0.6249	0.8242	0.9821	0.016
Mof_H 	H 	0.7497	0.9273	0.017	0.006
Mof_H 	H 	0.56	0.7901	0.8633	0.137
Mof_H 	H 	0.5597	0.7791	0.9028	0.133
Mof_H 	H 	0.7187	0.9157	0.9396	0.022
Mof_H 	H 	0.5695	0.6661	0.725	-0.062
Mof_H 	H 	0.6198	0.4979	0.6471	0.126
Mof_H 	H 	0.6431	0.7165	0.6656	-0.056
Mof_H 	H 	0.7604	0.5273	0.6367	-0.029
Mof_H 	H 	0.7363	0.5861	0.6498	0.11
Mof_H 	H 	0.641	0.4368	0.6314	-0.027
Mof_H 	H 	0.5894	0.6045	0.7103	0.154
Mof_H 	H 	0.6555	0.6496	0.6463	0.148
Mof_H 	H 	0.6758	0.8007	0.6579	0.016
Mof_H 	H 	0.5727	0.8224	0.5897	0.007
Mof_H 	H 	0.7099	0.7699	0.5732	0.137
Mof_H 	H 	0.7209	0.7806	0.6237	0.133
Mof_H 	H 	0.5843	0.803	0.5239	0.022
Mof_H 	H 	0.8339	0.9034	0.5589	-0.062
Mof_H 	H 	0.0021	0.1219	0.6492	0.127
Mof_H 	H 	0.7835	0.9266	0.4491	-0.055
Mof_H 	H 	0.9727	0.2331	0.6094	-0.029
Mof_H 	H 	0.9139	0.1502	0.5637	0.11
Mof_H 	H 	0.0632	0.2042	0.6946	-0.027
Mof_H 	H 	0.8955	0.9849	0.6058	0.153
Mof_H 	H 	0.8504	0.0059	0.4967	0.147
Mof_H 	H 	0.8242	0.4821	0.1249	0.016
Mof_H 	H 	0.9273	0.517	0.2497	0.007
Mof_H 	H 	0.7901	0.3633	0.06	0.137
Mof_H 	H 	0.7791	0.4028	0.0597	0.133
Mof_H 	H 	0.9157	0.4396	0.2187	0.022
Mof_H 	H 	0.6661	0.225	0.0695	-0.062
Mof_H 	H 	0.4979	0.1471	0.1198	0.126
Mof_H 	H 	0.7165	0.1656	0.1431	-0.056
Mof_H 	H 	0.5273	0.1367	0.2604	-0.029
Mof_H 	H 	0.5861	0.1498	0.2363	0.11
Mof_H 	H 	0.4368	0.1314	0.141	-0.027
Mof_H 	H 	0.6045	0.2103	0.0894	0.154
Mof_H 	H 	0.6496	0.1463	0.1555	0.148
Mof_H 	H 	0.8572	0.6993	0.3751	0.016
Mof_H 	H 	0.7673	0.6776	0.2503	0.007
Mof_H 	H 	0.8033	0.7301	0.44	0.137
Mof_H 	H 	0.8431	0.7194	0.4403	0.133
Mof_H 	H 	0.7209	0.697	0.2813	0.022
Mof_H 	H 	0.6555	0.5966	0.4305	-0.062
Mof_H 	H 	0.5273	0.3781	0.3802	0.126
Mof_H 	H 	0.5225	0.5734	0.3569	-0.056
Mof_H 	H 	0.3763	0.2669	0.2396	-0.029
Mof_H 	H 	0.4135	0.3498	0.2637	0.11
Mof_H 	H 	0.4904	0.2958	0.359	-0.027
Mof_H 	H 	0.6209	0.5151	0.4106	0.154
Mof_H 	H 	0.4908	0.4941	0.3445	0.148
Mof_H 	H 	0.6428	0.0179	0.8421	0.016
Mof_H 	H 	0.7327	0.983	0.9103	0.007
Mof_H 	H 	0.6967	0.1367	0.9268	0.137
Mof_H 	H 	0.6569	0.0972	0.8763	0.133
Mof_H 	H 	0.7791	0.0604	0.9761	0.022
Mof_H 	H 	0.8445	0.275	0.9411	-0.062
Mof_H 	H 	0.9727	0.3529	0.8508	0.126
Mof_H 	H 	0.9775	0.3344	0.0509	-0.056
Mof_H 	H 	0.1237	0.3633	0.8906	-0.029
Mof_H 	H 	0.0865	0.3502	0.9363	0.11
Mof_H 	H 	0.0096	0.3686	0.8054	-0.027
Mof_H 	H 	0.8791	0.2897	0.8942	0.154
Mof_H 	H 	0.0092	0.3537	0.0033	0.148
Mof_C 	C 	0.34923	0.21256	0.76181	-0.208
Mof_C 	C 	0.28058	0.71945	0.40797	0.625
Mof_C 	C 	0.35621	0.19846	0.82911	-0.03
Mof_C 	C 	0.3785	0.21092	0.80218	0.151
Mof_C 	C 	0.28258	0.18597	0.77629	0.007
Mof_C 	C 	0.36884	0.22832	0.73224	0.543
Mof_C 	C 	0.30141	0.19833	0.74886	0.031
Mof_C 	C 	0.40748	0.14609	0.61251	0.584
Mof_C 	C 	0.39653	0.09402	0.59149	-0.33
Mof_C 	C 	0.29647	0.77232	0.42957	-0.28
Mof_C 	C 	0.41228	0.07633	0.62181	0.247
Mof_C 	C 	0.3526	0.8559	0.4965	-0.256
Mof_C 	C 	0.3265	0.8718	0.4737	0.207
Mof_C 	C 	0.36977	0.063	0.54357	0.254
Mof_C 	C 	0.2681	0.78892	0.40642	0.171
Mof_C 	C 	0.2827	0.8386	0.4285	-0.24
Mof_C 	C 	0.37588	0.99775	0.55483	0.297
Mof_C 	C 	0.33937	0.80604	0.47481	0.175
Mof_C 	C 	0.4001	0.0269	0.6004	-0.358
Mof_C 	C 	0.3608	0.01463	0.52443	-0.329
Mof_C 	C 	0.95075	0.58742	0.73819	-0.208
Mof_C 	C 	0.81148	0.87261	0.09203	0.625
Mof_C 	C 	0.86935	0.5271	0.67089	-0.03
Mof_C 	C 	0.90874	0.57632	0.69782	0.151
Mof_C 	C 	0.90968	0.50629	0.72371	0.007
Mof_C 	C 	0.99608	0.6366	0.76776	0.543
Mof_C 	C 	0.94947	0.55255	0.75114	0.031
Mof_C 	C 	0.03358	0.79497	0.88749	0.584
Mof_C 	C 	0.00253	0.80504	0.90851	-0.33
Mof_C 	C 	0.84275	0.8669	0.07043	-0.28
Mof_C 	C 	0.95452	0.79047	0.87819	0.248
Mof_C 	C 	0.8594	0.8561	0.0035	-0.256
Mof_C 	C 	0.8981	0.8528	0.0263	0.208
Mof_C 	C 	0.01943	0.8262	0.95643	0.254
Mof_C 	C 	0.8825	0.86168	0.09358	0.171
Mof_C 	C 	0.9101	0.8542	0.0715	-0.241
Mof_C 	C 	0.94292	0.82105	0.94517	0.298
Mof_C 	C 	0.83123	0.86456	0.02519	0.175
Mof_C 	C 	0.9265	0.7997	0.8996	-0.358
Mof_C 	C 	0.9902	0.83637	0.97557	-0.329
Mof_C 	C 	0.54925	0.28744	0.63667	-0.208
Mof_C 	C 	0.68852	0.78055	0.06113	0.625
Mof_C 	C 	0.63065	0.30154	0.65775	-0.03
Mof_C 	C 	0.59126	0.28908	0.66758	0.151
Mof_C 	C 	0.59032	0.31403	0.59661	0.007
Mof_C 	C 	0.50392	0.27168	0.64052	0.543
Mof_C 	C 	0.55053	0.30167	0.60308	0.031
Mof_C 	C 	0.46642	0.35391	0.76139	0.584
Mof_C 	C 	0.49747	0.40598	0.80251	-0.33
Mof_C 	C 	0.65725	0.72768	0.02415	-0.28
Mof_C 	C 	0.54548	0.42367	0.83595	0.248
Mof_C 	C 	0.6406	0.6441	0.9967	-0.256
Mof_C 	C 	0.6019	0.6282	0.9547	0.207
Mof_C 	C 	0.48057	0.437	0.80677	0.254
Mof_C 	C 	0.6175	0.71108	0.97918	0.171
Mof_C 	C 	0.5899	0.6614	0.9441	-0.241
Mof_C 	C 	0.55708	0.50225	0.87813	0.298
Mof_C 	C 	0.66877	0.69396	0.03333	0.175
Mof_C 	C 	0.5735	0.4731	0.8732	-0.359
Mof_C 	C 	0.5098	0.48537	0.84617	-0.33
Mof_C 	C 	0.15077	0.91258	0.86333	-0.208
Mof_C 	C 	0.21942	0.62739	0.43887	0.625
Mof_C 	C 	0.14379	0.9729	0.84225	-0.03
Mof_C 	C 	0.1215	0.92368	0.83242	0.151
Mof_C 	C 	0.21742	0.99371	0.90339	0.007
Mof_C 	C 	0.13116	0.8634	0.85948	0.543
Mof_C 	C 	0.19859	0.94745	0.89692	0.031
Mof_C 	C 	0.09252	0.70503	0.73861	0.584
Mof_C 	C 	0.10347	0.69496	0.69749	-0.33
Mof_C 	C 	0.20353	0.6331	0.47585	-0.28
Mof_C 	C 	0.08772	0.70953	0.66405	0.248
Mof_C 	C 	0.1474	0.6439	0.5033	-0.256
Mof_C 	C 	0.1735	0.6472	0.5453	0.207
Mof_C 	C 	0.13023	0.6738	0.69323	0.254
Mof_C 	C 	0.2319	0.63832	0.52082	0.171
Mof_C 	C 	0.2173	0.6458	0.5559	-0.241
Mof_C 	C 	0.12412	0.67895	0.62187	0.298
Mof_C 	C 	0.16063	0.63544	0.46667	0.175
Mof_C 	C 	0.0999	0.7003	0.6268	-0.359
Mof_C 	C 	0.1392	0.66363	0.65383	-0.33
Mof_C 	C 	0.13667	0.54925	0.78744	-0.208
Mof_C 	C 	0.56113	0.68852	0.28055	0.625
Mof_C 	C 	0.15775	0.63065	0.80154	-0.03
Mof_C 	C 	0.16758	0.59126	0.78908	0.151
Mof_C 	C 	0.09661	0.59032	0.81403	0.007
Mof_C 	C 	0.14052	0.50392	0.77168	0.543
Mof_C 	C 	0.10308	0.55053	0.80167	0.031
Mof_C 	C 	0.26139	0.46642	0.85391	0.584
Mof_C 	C 	0.30251	0.49747	0.90598	-0.331
Mof_C 	C 	0.52415	0.65725	0.22768	-0.28
Mof_C 	C 	0.33595	0.54548	0.92367	0.248
Mof_C 	C 	0.4967	0.6406	0.1441	-0.256
Mof_C 	C 	0.4547	0.6019	0.1282	0.207
Mof_C 	C 	0.30677	0.48057	0.937	0.255
Mof_C 	C 	0.47918	0.6175	0.21108	0.171
Mof_C 	C 	0.4441	0.5899	0.1614	-0.24
Mof_C 	C 	0.37813	0.55708	0.00225	0.298
Mof_C 	C 	0.53333	0.66877	0.19396	0.175
Mof_C 	C 	0.3732	0.5735	0.9731	-0.359
Mof_C 	C 	0.34617	0.5098	0.98537	-0.33
Mof_C 	C 	0.36333	0.15077	0.41258	-0.208
Mof_C 	C 	0.93887	0.21942	0.12739	0.625
Mof_C 	C 	0.34225	0.14379	0.4729	-0.03
Mof_C 	C 	0.33242	0.1215	0.42368	0.151
Mof_C 	C 	0.40339	0.21742	0.49371	0.007
Mof_C 	C 	0.35948	0.13116	0.3634	0.543
Mof_C 	C 	0.39692	0.19859	0.44745	0.031
Mof_C 	C 	0.23861	0.09252	0.20503	0.584
Mof_C 	C 	0.19749	0.10347	0.19496	-0.33
Mof_C 	C 	0.97585	0.20353	0.1331	-0.28
Mof_C 	C 	0.16405	0.08772	0.20953	0.248
Mof_C 	C 	0.0033	0.1474	0.1439	-0.255
Mof_C 	C 	0.0453	0.1735	0.1472	0.207
Mof_C 	C 	0.19323	0.13023	0.1738	0.254
Mof_C 	C 	0.02082	0.2319	0.13832	0.171
Mof_C 	C 	0.0559	0.2173	0.1458	-0.24
Mof_C 	C 	0.12187	0.12412	0.17895	0.298
Mof_C 	C 	0.96667	0.16063	0.13544	0.175
Mof_C 	C 	0.1268	0.0999	0.2003	-0.359
Mof_C 	C 	0.15383	0.1392	0.16363	-0.33
Mof_C 	C 	0.26181	0.34923	0.71256	-0.208
Mof_C 	C 	0.90797	0.28058	0.21945	0.625
Mof_C 	C 	0.32911	0.35621	0.69846	-0.03
Mof_C 	C 	0.30218	0.3785	0.71092	0.151
Mof_C 	C 	0.27629	0.28258	0.68597	0.007
Mof_C 	C 	0.23224	0.36884	0.72832	0.543
Mof_C 	C 	0.24886	0.30141	0.69833	0.031
Mof_C 	C 	0.11251	0.40748	0.64609	0.584
Mof_C 	C 	0.09149	0.39653	0.59402	-0.33
Mof_C 	C 	0.92957	0.29647	0.27232	-0.28
Mof_C 	C 	0.12181	0.41228	0.57633	0.248
Mof_C 	C 	0.9965	0.3526	0.3559	-0.256
Mof_C 	C 	0.9737	0.3265	0.3718	0.208
Mof_C 	C 	0.04357	0.36977	0.563	0.254
Mof_C 	C 	0.90642	0.2681	0.28892	0.171
Mof_C 	C 	0.9285	0.2827	0.3386	-0.241
Mof_C 	C 	0.05483	0.37588	0.49775	0.298
Mof_C 	C 	0.97481	0.33937	0.30604	0.175
Mof_C 	C 	0.1004	0.4001	0.5269	-0.359
Mof_C 	C 	0.02443	0.3608	0.51463	-0.33
Mof_C 	C 	0.23819	0.95075	0.08742	-0.208
Mof_C 	C 	0.59203	0.81148	0.37261	0.625
Mof_C 	C 	0.17089	0.86935	0.0271	-0.03
Mof_C 	C 	0.19782	0.90874	0.07632	0.151
Mof_C 	C 	0.22371	0.90968	0.00629	0.007
Mof_C 	C 	0.26776	0.99608	0.1366	0.543
Mof_C 	C 	0.25114	0.94947	0.05255	0.031
Mof_C 	C 	0.38749	0.03358	0.29497	0.584
Mof_C 	C 	0.40851	0.00253	0.30504	-0.331
Mof_C 	C 	0.57043	0.84275	0.3669	-0.28
Mof_C 	C 	0.37819	0.95452	0.29047	0.248
Mof_C 	C 	0.5035	0.8594	0.3561	-0.256
Mof_C 	C 	0.5263	0.8981	0.3528	0.207
Mof_C 	C 	0.45643	0.01943	0.3262	0.255
Mof_C 	C 	0.59358	0.8825	0.36168	0.171
Mof_C 	C 	0.5715	0.9101	0.3542	-0.241
Mof_C 	C 	0.44517	0.94292	0.32105	0.298
Mof_C 	C 	0.52519	0.83123	0.36456	0.175
Mof_C 	C 	0.3996	0.9265	0.2997	-0.359
Mof_C 	C 	0.47557	0.9902	0.33637	-0.33
Mof_C 	C 	0.58742	0.23819	0.45075	-0.208
Mof_C 	C 	0.87261	0.59203	0.31148	0.625
Mof_C 	C 	0.5271	0.17089	0.36935	-0.03
Mof_C 	C 	0.57632	0.19782	0.40874	0.151
Mof_C 	C 	0.50629	0.22371	0.40968	0.007
Mof_C 	C 	0.6366	0.26776	0.49608	0.543
Mof_C 	C 	0.55255	0.25114	0.44947	0.031
Mof_C 	C 	0.79497	0.38749	0.53358	0.584
Mof_C 	C 	0.80504	0.40851	0.50253	-0.33
Mof_C 	C 	0.8669	0.57043	0.34275	-0.28
Mof_C 	C 	0.79047	0.37819	0.45452	0.248
Mof_C 	C 	0.8561	0.5035	0.3594	-0.256
Mof_C 	C 	0.8528	0.5263	0.3981	0.207
Mof_C 	C 	0.8262	0.45643	0.51943	0.254
Mof_C 	C 	0.86168	0.59358	0.3825	0.171
Mof_C 	C 	0.8542	0.5715	0.4101	-0.241
Mof_C 	C 	0.82105	0.44517	0.44292	0.298
Mof_C 	C 	0.86456	0.52519	0.33123	0.175
Mof_C 	C 	0.7997	0.3996	0.4265	-0.359
Mof_C 	C 	0.83637	0.47557	0.4902	-0.33
Mof_C 	C 	0.21256	0.26181	0.84923	-0.208
Mof_C 	C 	0.71945	0.90797	0.78058	0.625
Mof_C 	C 	0.19846	0.32911	0.85621	-0.03
Mof_C 	C 	0.21092	0.30218	0.8785	0.151
Mof_C 	C 	0.18597	0.27629	0.78258	0.007
Mof_C 	C 	0.22832	0.23224	0.86884	0.543
Mof_C 	C 	0.19833	0.24886	0.80141	0.031
Mof_C 	C 	0.14609	0.11251	0.90748	0.584
Mof_C 	C 	0.09402	0.09149	0.89653	-0.33
Mof_C 	C 	0.77232	0.92957	0.79647	-0.28
Mof_C 	C 	0.07633	0.12181	0.91228	0.247
Mof_C 	C 	0.8559	0.9965	0.8526	-0.255
Mof_C 	C 	0.8718	0.9737	0.8265	0.207
Mof_C 	C 	0.063	0.04357	0.86977	0.254
Mof_C 	C 	0.78892	0.90642	0.7681	0.17
Mof_C 	C 	0.8386	0.9285	0.7827	-0.24
Mof_C 	C 	0.99775	0.05483	0.87588	0.297
Mof_C 	C 	0.80604	0.97481	0.83937	0.175
Mof_C 	C 	0.0269	0.1004	0.9001	-0.358
Mof_C 	C 	0.01463	0.02443	0.8608	-0.329
Mof_C 	C 	0.91258	0.36333	0.65077	-0.208
Mof_C 	C 	0.62739	0.93887	0.71942	0.625
Mof_C 	C 	0.9729	0.34225	0.64379	-0.03
Mof_C 	C 	0.92368	0.33242	0.6215	0.151
Mof_C 	C 	0.99371	0.40339	0.71742	0.007
Mof_C 	C 	0.8634	0.35948	0.63116	0.543
Mof_C 	C 	0.94745	0.39692	0.69859	0.031
Mof_C 	C 	0.70503	0.23861	0.59252	0.584
Mof_C 	C 	0.69496	0.19749	0.60347	-0.33
Mof_C 	C 	0.6331	0.97585	0.70353	-0.28
Mof_C 	C 	0.70953	0.16405	0.58772	0.248
Mof_C 	C 	0.6439	0.0033	0.6474	-0.256
Mof_C 	C 	0.6472	0.0453	0.6735	0.208
Mof_C 	C 	0.6738	0.19323	0.63023	0.254
Mof_C 	C 	0.63832	0.02082	0.7319	0.171
Mof_C 	C 	0.6458	0.0559	0.7173	-0.241
Mof_C 	C 	0.67895	0.12187	0.62412	0.298
Mof_C 	C 	0.63544	0.96667	0.66063	0.175
Mof_C 	C 	0.7003	0.1268	0.5999	-0.359
Mof_C 	C 	0.66363	0.15383	0.6392	-0.33
Mof_C 	C 	0.28744	0.13667	0.04925	-0.208
Mof_C 	C 	0.78055	0.56113	0.18852	0.625
Mof_C 	C 	0.30154	0.15775	0.13065	-0.03
Mof_C 	C 	0.28908	0.16758	0.09126	0.151
Mof_C 	C 	0.31403	0.09661	0.09032	0.007
Mof_C 	C 	0.27168	0.14052	0.00392	0.543
Mof_C 	C 	0.30167	0.10308	0.05053	0.031
Mof_C 	C 	0.35391	0.26139	0.96642	0.584
Mof_C 	C 	0.40598	0.30251	0.99747	-0.331
Mof_C 	C 	0.72768	0.52415	0.15725	-0.28
Mof_C 	C 	0.42367	0.33595	0.04548	0.248
Mof_C 	C 	0.6441	0.4967	0.1406	-0.256
Mof_C 	C 	0.6282	0.4547	0.1019	0.207
Mof_C 	C 	0.437	0.30677	0.98057	0.254
Mof_C 	C 	0.71108	0.47918	0.1175	0.171
Mof_C 	C 	0.6614	0.4441	0.0899	-0.241
Mof_C 	C 	0.50225	0.37813	0.05708	0.298
Mof_C 	C 	0.69396	0.53333	0.16877	0.175
Mof_C 	C 	0.4731	0.3732	0.0735	-0.359
Mof_C 	C 	0.48537	0.34617	0.0098	-0.329
Mof_C 	C 	0.08742	0.45075	0.23819	-0.208
Mof_C 	C 	0.37261	0.31148	0.59203	0.625
Mof_C 	C 	0.0271	0.36935	0.17089	-0.03
Mof_C 	C 	0.07632	0.40874	0.19782	0.151
Mof_C 	C 	0.00629	0.40968	0.22371	0.007
Mof_C 	C 	0.1366	0.49608	0.26776	0.543
Mof_C 	C 	0.05255	0.44947	0.25114	0.031
Mof_C 	C 	0.29497	0.53358	0.38749	0.584
Mof_C 	C 	0.30504	0.50253	0.40851	-0.33
Mof_C 	C 	0.3669	0.34275	0.57043	-0.28
Mof_C 	C 	0.29047	0.45452	0.37819	0.248
Mof_C 	C 	0.3561	0.3594	0.5035	-0.256
Mof_C 	C 	0.3528	0.3981	0.5263	0.207
Mof_C 	C 	0.3262	0.51943	0.45643	0.254
Mof_C 	C 	0.36168	0.3825	0.59358	0.171
Mof_C 	C 	0.3542	0.4101	0.5715	-0.241
Mof_C 	C 	0.32105	0.44292	0.44517	0.298
Mof_C 	C 	0.36456	0.33123	0.52519	0.175
Mof_C 	C 	0.2997	0.4265	0.3996	-0.359
Mof_C 	C 	0.33637	0.4902	0.47557	-0.33
Mof_C 	C 	0.71256	0.84923	0.26181	-0.208
Mof_C 	C 	0.21945	0.78058	0.90797	0.625
Mof_C 	C 	0.69846	0.85621	0.32911	-0.03
Mof_C 	C 	0.71092	0.8785	0.30218	0.151
Mof_C 	C 	0.68597	0.78258	0.27629	0.007
Mof_C 	C 	0.72832	0.86884	0.23224	0.543
Mof_C 	C 	0.69833	0.80141	0.24886	0.031
Mof_C 	C 	0.64609	0.90748	0.11251	0.584
Mof_C 	C 	0.59402	0.89653	0.09149	-0.331
Mof_C 	C 	0.27232	0.79647	0.92957	-0.28
Mof_C 	C 	0.57633	0.91228	0.12181	0.248
Mof_C 	C 	0.3559	0.8526	0.9965	-0.256
Mof_C 	C 	0.3718	0.8265	0.9737	0.207
Mof_C 	C 	0.563	0.86977	0.04357	0.254
Mof_C 	C 	0.28892	0.7681	0.90642	0.171
Mof_C 	C 	0.3386	0.7827	0.9285	-0.241
Mof_C 	C 	0.49775	0.87588	0.05483	0.298
Mof_C 	C 	0.30604	0.83937	0.97481	0.175
Mof_C 	C 	0.5269	0.9001	0.1004	-0.359
Mof_C 	C 	0.51463	0.8608	0.02443	-0.33
Mof_C 	C 	0.41258	0.65077	0.36333	-0.208
Mof_C 	C 	0.12739	0.71942	0.93887	0.625
Mof_C 	C 	0.4729	0.64379	0.34225	-0.03
Mof_C 	C 	0.42368	0.6215	0.33242	0.151
Mof_C 	C 	0.49371	0.71742	0.40339	0.007
Mof_C 	C 	0.3634	0.63116	0.35948	0.543
Mof_C 	C 	0.44745	0.69859	0.39692	0.031
Mof_C 	C 	0.20503	0.59252	0.23861	0.584
Mof_C 	C 	0.19496	0.60347	0.19749	-0.33
Mof_C 	C 	0.1331	0.70353	0.97585	-0.28
Mof_C 	C 	0.20953	0.58772	0.16405	0.248
Mof_C 	C 	0.1439	0.6474	0.0033	-0.256
Mof_C 	C 	0.1472	0.6735	0.0453	0.207
Mof_C 	C 	0.1738	0.63023	0.19323	0.254
Mof_C 	C 	0.13832	0.7319	0.02082	0.171
Mof_C 	C 	0.1458	0.7173	0.0559	-0.241
Mof_C 	C 	0.17895	0.62412	0.12187	0.298
Mof_C 	C 	0.13544	0.66063	0.96667	0.175
Mof_C 	C 	0.2003	0.5999	0.1268	-0.359
Mof_C 	C 	0.16363	0.6392	0.15383	-0.33
Mof_C 	C 	0.78744	0.04925	0.13667	-0.208
Mof_C 	C 	0.28055	0.18852	0.56113	0.625
Mof_C 	C 	0.80154	0.13065	0.15775	-0.03
Mof_C 	C 	0.78908	0.09126	0.16758	0.151
Mof_C 	C 	0.81403	0.09032	0.09661	0.007
Mof_C 	C 	0.77168	0.00392	0.14052	0.543
Mof_C 	C 	0.80167	0.05053	0.10308	0.031
Mof_C 	C 	0.85391	0.96642	0.26139	0.584
Mof_C 	C 	0.90598	0.99747	0.30251	-0.331
Mof_C 	C 	0.22768	0.15725	0.52415	-0.28
Mof_C 	C 	0.92367	0.04548	0.33595	0.248
Mof_C 	C 	0.1441	0.1406	0.4967	-0.256
Mof_C 	C 	0.1282	0.1019	0.4547	0.207
Mof_C 	C 	0.937	0.98057	0.30677	0.255
Mof_C 	C 	0.21108	0.1175	0.47918	0.171
Mof_C 	C 	0.1614	0.0899	0.4441	-0.241
Mof_C 	C 	0.00225	0.05708	0.37813	0.299
Mof_C 	C 	0.19396	0.16877	0.53333	0.175
Mof_C 	C 	0.9731	0.0735	0.3732	-0.359
Mof_C 	C 	0.98537	0.0098	0.34617	-0.331
Mof_C 	C 	0.84923	0.76181	0.21256	-0.208
Mof_C 	C 	0.78058	0.40797	0.71945	0.625
Mof_C 	C 	0.85621	0.82911	0.19846	-0.03
Mof_C 	C 	0.8785	0.80218	0.21092	0.151
Mof_C 	C 	0.78258	0.77629	0.18597	0.007
Mof_C 	C 	0.86884	0.73224	0.22832	0.543
Mof_C 	C 	0.80141	0.74886	0.19833	0.031
Mof_C 	C 	0.90748	0.61251	0.14609	0.584
Mof_C 	C 	0.89653	0.59149	0.09402	-0.33
Mof_C 	C 	0.79647	0.42957	0.77232	-0.28
Mof_C 	C 	0.91228	0.62181	0.07633	0.247
Mof_C 	C 	0.8526	0.4965	0.8559	-0.256
Mof_C 	C 	0.8265	0.4737	0.8718	0.207
Mof_C 	C 	0.86977	0.54357	0.063	0.254
Mof_C 	C 	0.7681	0.40642	0.78892	0.171
Mof_C 	C 	0.7827	0.4285	0.8386	-0.24
Mof_C 	C 	0.87588	0.55483	0.99775	0.297
Mof_C 	C 	0.83937	0.47481	0.80604	0.175
Mof_C 	C 	0.9001	0.6004	0.0269	-0.358
Mof_C 	C 	0.8608	0.52443	0.01463	-0.329
Mof_C 	C 	0.45075	0.73819	0.58742	-0.208
Mof_C 	C 	0.31148	0.09203	0.87261	0.625
Mof_C 	C 	0.36935	0.67089	0.5271	-0.03
Mof_C 	C 	0.40874	0.69782	0.57632	0.151
Mof_C 	C 	0.40968	0.72371	0.50629	0.007
Mof_C 	C 	0.49608	0.76776	0.6366	0.543
Mof_C 	C 	0.44947	0.75114	0.55255	0.031
Mof_C 	C 	0.53358	0.88749	0.79497	0.584
Mof_C 	C 	0.50253	0.90851	0.80504	-0.33
Mof_C 	C 	0.34275	0.07043	0.8669	-0.28
Mof_C 	C 	0.45452	0.87819	0.79047	0.248
Mof_C 	C 	0.3594	0.0035	0.8561	-0.256
Mof_C 	C 	0.3981	0.0263	0.8528	0.207
Mof_C 	C 	0.51943	0.95643	0.8262	0.254
Mof_C 	C 	0.3825	0.09358	0.86168	0.171
Mof_C 	C 	0.4101	0.0715	0.8542	-0.241
Mof_C 	C 	0.44292	0.94517	0.82105	0.298
Mof_C 	C 	0.33123	0.02519	0.86456	0.175
Mof_C 	C 	0.4265	0.8996	0.7997	-0.359
Mof_C 	C 	0.4902	0.97557	0.83637	-0.329
Mof_C 	C 	0.04925	0.63667	0.28744	-0.208
Mof_C 	C 	0.18852	0.06113	0.78055	0.625
Mof_C 	C 	0.13065	0.65775	0.30154	-0.03
Mof_C 	C 	0.09126	0.66758	0.28908	0.151
Mof_C 	C 	0.09032	0.59661	0.31403	0.007
Mof_C 	C 	0.00392	0.64052	0.27168	0.543
Mof_C 	C 	0.05053	0.60308	0.30167	0.031
Mof_C 	C 	0.96642	0.76139	0.35391	0.584
Mof_C 	C 	0.99747	0.80251	0.40598	-0.331
Mof_C 	C 	0.15725	0.02415	0.72768	-0.28
Mof_C 	C 	0.04548	0.83595	0.42367	0.248
Mof_C 	C 	0.1406	0.9967	0.6441	-0.256
Mof_C 	C 	0.1019	0.9547	0.6282	0.208
Mof_C 	C 	0.98057	0.80677	0.437	0.255
Mof_C 	C 	0.1175	0.97918	0.71108	0.171
Mof_C 	C 	0.0899	0.9441	0.6614	-0.241
Mof_C 	C 	0.05708	0.87813	0.50225	0.298
Mof_C 	C 	0.16877	0.03333	0.69396	0.175
Mof_C 	C 	0.0735	0.8732	0.4731	-0.359
Mof_C 	C 	0.0098	0.84617	0.48537	-0.331
Mof_C 	C 	0.65077	0.86333	0.91258	-0.208
Mof_C 	C 	0.71942	0.43887	0.62739	0.625
Mof_C 	C 	0.64379	0.84225	0.9729	-0.03
Mof_C 	C 	0.6215	0.83242	0.92368	0.151
Mof_C 	C 	0.71742	0.90339	0.99371	0.007
Mof_C 	C 	0.63116	0.85948	0.8634	0.543
Mof_C 	C 	0.69859	0.89692	0.94745	0.031
Mof_C 	C 	0.59252	0.73861	0.70503	0.584
Mof_C 	C 	0.60347	0.69749	0.69496	-0.33
Mof_C 	C 	0.70353	0.47585	0.6331	-0.28
Mof_C 	C 	0.58772	0.66405	0.70953	0.248
Mof_C 	C 	0.6474	0.5033	0.6439	-0.256
Mof_C 	C 	0.6735	0.5453	0.6472	0.207
Mof_C 	C 	0.63023	0.69323	0.6738	0.254
Mof_C 	C 	0.7319	0.52082	0.63832	0.171
Mof_C 	C 	0.7173	0.5559	0.6458	-0.241
Mof_C 	C 	0.62412	0.62187	0.67895	0.298
Mof_C 	C 	0.66063	0.46667	0.63544	0.175
Mof_C 	C 	0.5999	0.6268	0.7003	-0.359
Mof_C 	C 	0.6392	0.65383	0.66363	-0.33
Mof_C 	C 	0.63667	0.78744	0.54925	-0.208
Mof_C 	C 	0.06113	0.28055	0.68852	0.625
Mof_C 	C 	0.65775	0.80154	0.63065	-0.03
Mof_C 	C 	0.66758	0.78908	0.59126	0.151
Mof_C 	C 	0.59661	0.81403	0.59032	0.007
Mof_C 	C 	0.64052	0.77168	0.50392	0.543
Mof_C 	C 	0.60308	0.80167	0.55053	0.031
Mof_C 	C 	0.76139	0.85391	0.46642	0.583
Mof_C 	C 	0.80251	0.90598	0.49747	-0.33
Mof_C 	C 	0.02415	0.22768	0.65725	-0.28
Mof_C 	C 	0.83595	0.92367	0.54548	0.247
Mof_C 	C 	0.9967	0.1441	0.6406	-0.256
Mof_C 	C 	0.9547	0.1282	0.6019	0.208
Mof_C 	C 	0.80677	0.937	0.48057	0.253
Mof_C 	C 	0.97918	0.21108	0.6175	0.171
Mof_C 	C 	0.9441	0.1614	0.5899	-0.241
Mof_C 	C 	0.87813	0.00225	0.55708	0.296
Mof_C 	C 	0.03333	0.19396	0.66877	0.175
Mof_C 	C 	0.8732	0.9731	0.5735	-0.357
Mof_C 	C 	0.84617	0.98537	0.5098	-0.328
Mof_C 	C 	0.86333	0.41258	0.15077	-0.208
Mof_C 	C 	0.43887	0.12739	0.21942	0.625
Mof_C 	C 	0.84225	0.4729	0.14379	-0.03
Mof_C 	C 	0.83242	0.42368	0.1215	0.151
Mof_C 	C 	0.90339	0.49371	0.21742	0.007
Mof_C 	C 	0.85948	0.3634	0.13116	0.543
Mof_C 	C 	0.89692	0.44745	0.19859	0.031
Mof_C 	C 	0.73861	0.20503	0.09252	0.584
Mof_C 	C 	0.69749	0.19496	0.10347	-0.33
Mof_C 	C 	0.47585	0.1331	0.20353	-0.28
Mof_C 	C 	0.66405	0.20953	0.08772	0.248
Mof_C 	C 	0.5033	0.1439	0.1474	-0.256
Mof_C 	C 	0.5453	0.1472	0.1735	0.207
Mof_C 	C 	0.69323	0.1738	0.13023	0.254
Mof_C 	C 	0.52082	0.13832	0.2319	0.171
Mof_C 	C 	0.5559	0.1458	0.2173	-0.241
Mof_C 	C 	0.62187	0.17895	0.12412	0.298
Mof_C 	C 	0.46667	0.13544	0.16063	0.175
Mof_C 	C 	0.6268	0.2003	0.0999	-0.359
Mof_C 	C 	0.65383	0.16363	0.1392	-0.33
Mof_C 	C 	0.76181	0.71256	0.34923	-0.208
Mof_C 	C 	0.40797	0.21945	0.28058	0.625
Mof_C 	C 	0.82911	0.69846	0.35621	-0.03
Mof_C 	C 	0.80218	0.71092	0.3785	0.151
Mof_C 	C 	0.77629	0.68597	0.28258	0.007
Mof_C 	C 	0.73224	0.72832	0.36884	0.543
Mof_C 	C 	0.74886	0.69833	0.30141	0.031
Mof_C 	C 	0.61251	0.64609	0.40748	0.584
Mof_C 	C 	0.59149	0.59402	0.39653	-0.33
Mof_C 	C 	0.42957	0.27232	0.29647	-0.28
Mof_C 	C 	0.62181	0.57633	0.41228	0.248
Mof_C 	C 	0.4965	0.3559	0.3526	-0.256
Mof_C 	C 	0.4737	0.3718	0.3265	0.207
Mof_C 	C 	0.54357	0.563	0.36977	0.254
Mof_C 	C 	0.40642	0.28892	0.2681	0.171
Mof_C 	C 	0.4285	0.3386	0.2827	-0.241
Mof_C 	C 	0.55483	0.49775	0.37588	0.298
Mof_C 	C 	0.47481	0.30604	0.33937	0.175
Mof_C 	C 	0.6004	0.5269	0.4001	-0.359
Mof_C 	C 	0.52443	0.51463	0.3608	-0.33
Mof_C 	C 	0.73819	0.08742	0.95075	-0.208
Mof_C 	C 	0.09203	0.37261	0.81148	0.625
Mof_C 	C 	0.67089	0.0271	0.86935	-0.03
Mof_C 	C 	0.69782	0.07632	0.90874	0.151
Mof_C 	C 	0.72371	0.00629	0.90968	0.006
Mof_C 	C 	0.76776	0.1366	0.99608	0.543
Mof_C 	C 	0.75114	0.05255	0.94947	0.031
Mof_C 	C 	0.88749	0.29497	0.03358	0.584
Mof_C 	C 	0.90851	0.30504	0.00253	-0.331
Mof_C 	C 	0.07043	0.3669	0.84275	-0.28
Mof_C 	C 	0.87819	0.29047	0.95452	0.248
Mof_C 	C 	0.0035	0.3561	0.8594	-0.256
Mof_C 	C 	0.0263	0.3528	0.8981	0.207
Mof_C 	C 	0.95643	0.3262	0.01943	0.255
Mof_C 	C 	0.09358	0.36168	0.8825	0.171
Mof_C 	C 	0.0715	0.3542	0.9101	-0.241
Mof_C 	C 	0.94517	0.32105	0.94292	0.298
Mof_C 	C 	0.02519	0.36456	0.83123	0.175
Mof_C 	C 	0.8996	0.2997	0.9265	-0.359
Mof_C 	C 	0.97557	0.33637	0.9902	-0.331
Mof_N 	N 	0.31019	0.18581	0.81624	-0.317
Mof_N 	N 	0.42524	0.22138	0.8181	-0.317
Mof_N 	N 	0.3667	0.94803	0.53693	-0.123
Mof_N 	N 	0.33379	0.92033	0.49312	-0.112
Mof_N 	N 	0.86957	0.49395	0.68376	-0.317
Mof_N 	N 	0.90328	0.60714	0.6819	-0.317
Mof_N 	N 	0.9111	0.82977	0.96307	-0.123
Mof_N 	N 	0.92721	0.84067	0.00688	-0.112
Mof_N 	N 	0.63043	0.31419	0.62438	-0.317
Mof_N 	N 	0.59672	0.27862	0.70386	-0.317
Mof_N 	N 	0.5889	0.55197	0.91867	-0.123
Mof_N 	N 	0.57279	0.57967	0.91346	-0.112
Mof_N 	N 	0.18981	0.00605	0.87562	-0.317
Mof_N 	N 	0.07476	0.89286	0.79614	-0.317
Mof_N 	N 	0.1333	0.67023	0.58133	-0.123
Mof_N 	N 	0.16621	0.65933	0.58654	-0.112
Mof_N 	N 	0.12438	0.63043	0.81419	-0.317
Mof_N 	N 	0.20386	0.59672	0.77862	-0.317
Mof_N 	N 	0.41867	0.5889	0.05197	-0.123
Mof_N 	N 	0.41346	0.57279	0.07967	-0.112
Mof_N 	N 	0.37562	0.18981	0.50605	-0.317
Mof_N 	N 	0.29614	0.07476	0.39286	-0.317
Mof_N 	N 	0.08133	0.1333	0.17023	-0.123
Mof_N 	N 	0.08654	0.16621	0.15933	-0.112
Mof_N 	N 	0.31624	0.31019	0.68581	-0.317
Mof_N 	N 	0.3181	0.42524	0.72138	-0.317
Mof_N 	N 	0.03693	0.3667	0.44803	-0.123
Mof_N 	N 	0.99312	0.33379	0.42033	-0.112
Mof_N 	N 	0.18376	0.86957	0.99395	-0.317
Mof_N 	N 	0.1819	0.90328	0.10714	-0.317
Mof_N 	N 	0.46307	0.9111	0.32977	-0.123
Mof_N 	N 	0.50688	0.92721	0.34067	-0.112
Mof_N 	N 	0.49395	0.18376	0.36957	-0.317
Mof_N 	N 	0.60714	0.1819	0.40328	-0.317
Mof_N 	N 	0.82977	0.46307	0.4111	-0.123
Mof_N 	N 	0.84067	0.50688	0.42721	-0.112
Mof_N 	N 	0.18581	0.31624	0.81019	-0.317
Mof_N 	N 	0.22138	0.3181	0.92524	-0.317
Mof_N 	N 	0.94803	0.03693	0.8667	-0.124
Mof_N 	N 	0.92033	0.99312	0.83379	-0.111
Mof_N 	N 	0.00605	0.37562	0.68981	-0.317
Mof_N 	N 	0.89286	0.29614	0.57476	-0.317
Mof_N 	N 	0.67023	0.08133	0.6333	-0.123
Mof_N 	N 	0.65933	0.08654	0.66621	-0.112
Mof_N 	N 	0.31419	0.12438	0.13043	-0.317
Mof_N 	N 	0.27862	0.20386	0.09672	-0.317
Mof_N 	N 	0.55197	0.41867	0.0889	-0.123
Mof_N 	N 	0.57967	0.41346	0.07279	-0.112
Mof_N 	N 	0.99395	0.36957	0.18376	-0.317
Mof_N 	N 	0.10714	0.40328	0.1819	-0.317
Mof_N 	N 	0.32977	0.4111	0.46307	-0.123
Mof_N 	N 	0.34067	0.42721	0.50688	-0.112
Mof_N 	N 	0.68581	0.81019	0.31624	-0.317
Mof_N 	N 	0.72138	0.92524	0.3181	-0.317
Mof_N 	N 	0.44803	0.8667	0.03693	-0.124
Mof_N 	N 	0.42033	0.83379	0.99312	-0.112
Mof_N 	N 	0.50605	0.68981	0.37562	-0.317
Mof_N 	N 	0.39286	0.57476	0.29614	-0.317
Mof_N 	N 	0.17023	0.6333	0.08133	-0.123
Mof_N 	N 	0.15933	0.66621	0.08654	-0.112
Mof_N 	N 	0.81419	0.13043	0.12438	-0.317
Mof_N 	N 	0.77862	0.09672	0.20386	-0.317
Mof_N 	N 	0.05197	0.0889	0.41867	-0.124
Mof_N 	N 	0.07967	0.07279	0.41346	-0.112
Mof_N 	N 	0.81019	0.81624	0.18581	-0.317
Mof_N 	N 	0.92524	0.8181	0.22138	-0.317
Mof_N 	N 	0.8667	0.53693	0.94803	-0.123
Mof_N 	N 	0.83379	0.49312	0.92033	-0.112
Mof_N 	N 	0.36957	0.68376	0.49395	-0.317
Mof_N 	N 	0.40328	0.6819	0.60714	-0.317
Mof_N 	N 	0.4111	0.96307	0.82977	-0.123
Mof_N 	N 	0.42721	0.00688	0.84067	-0.112
Mof_N 	N 	0.13043	0.62438	0.31419	-0.317
Mof_N 	N 	0.09672	0.70386	0.27862	-0.317
Mof_N 	N 	0.0889	0.91867	0.55197	-0.124
Mof_N 	N 	0.07279	0.91346	0.57967	-0.112
Mof_N 	N 	0.68981	0.87562	0.00605	-0.317
Mof_N 	N 	0.57476	0.79614	0.89286	-0.317
Mof_N 	N 	0.6333	0.58133	0.67023	-0.123
Mof_N 	N 	0.66621	0.58654	0.65933	-0.112
Mof_N 	N 	0.62438	0.81419	0.63043	-0.317
Mof_N 	N 	0.70386	0.77862	0.59672	-0.317
Mof_N 	N 	0.91867	0.05197	0.5889	-0.123
Mof_N 	N 	0.91346	0.07967	0.57279	-0.112
Mof_N 	N 	0.87562	0.50605	0.18981	-0.317
Mof_N 	N 	0.79614	0.39286	0.07476	-0.317
Mof_N 	N 	0.58133	0.17023	0.1333	-0.123
Mof_N 	N 	0.58654	0.15933	0.16621	-0.112
Mof_N 	N 	0.81624	0.68581	0.31019	-0.317
Mof_N 	N 	0.8181	0.72138	0.42524	-0.317
Mof_N 	N 	0.53693	0.44803	0.3667	-0.123
Mof_N 	N 	0.49312	0.42033	0.33379	-0.112
Mof_N 	N 	0.68376	0.99395	0.86957	-0.317
Mof_N 	N 	0.6819	0.10714	0.90328	-0.317
Mof_N 	N 	0.96307	0.32977	0.9111	-0.124
Mof_N 	N 	0.00688	0.34067	0.92721	-0.112
Mof_O 	O 	0.40957	0.23108	0.73775	-0.671
Mof_O 	O 	0.42821	0.1723	0.65899	-0.679
Mof_O 	O 	0.23987	0.69062	0.36951	-0.715
Mof_O 	O 	0.30882	0.70733	0.42857	-0.732
Mof_O 	O 	0.34332	0.23821	0.70399	-0.689
Mof_O 	O 	0.39521	0.15912	0.58109	-0.717
Mof_O 	O 	0.99333	0.67182	0.76225	-0.671
Mof_O 	O 	0.01331	0.76922	0.84101	-0.679
Mof_O 	O 	0.82111	0.87036	0.13049	-0.715
Mof_O 	O 	0.77876	0.88025	0.07143	-0.733
Mof_O 	O 	0.03422	0.63933	0.79601	-0.689
Mof_O 	O 	0.07803	0.81412	0.91891	-0.717
Mof_O 	O 	0.50667	0.26892	0.67849	-0.671
Mof_O 	O 	0.48669	0.3277	0.75591	-0.679
Mof_O 	O 	0.67889	0.80938	0.04925	-0.715
Mof_O 	O 	0.72124	0.79267	0.10149	-0.733
Mof_O 	O 	0.46578	0.26179	0.60511	-0.689
Mof_O 	O 	0.42197	0.34088	0.73609	-0.717
Mof_O 	O 	0.09043	0.82818	0.82151	-0.671
Mof_O 	O 	0.07179	0.73078	0.74409	-0.679
Mof_O 	O 	0.26013	0.62964	0.45075	-0.715
Mof_O 	O 	0.19118	0.61975	0.39851	-0.733
Mof_O 	O 	0.15668	0.86067	0.89489	-0.689
Mof_O 	O 	0.10479	0.68588	0.76391	-0.717
Mof_O 	O 	0.17849	0.50667	0.76892	-0.671
Mof_O 	O 	0.25591	0.48669	0.8277	-0.679
Mof_O 	O 	0.54925	0.67889	0.30938	-0.715
Mof_O 	O 	0.60149	0.72124	0.29267	-0.732
Mof_O 	O 	0.10511	0.46578	0.76179	-0.689
Mof_O 	O 	0.23609	0.42197	0.84088	-0.717
Mof_O 	O 	0.32151	0.09043	0.32818	-0.671
Mof_O 	O 	0.24409	0.07179	0.23078	-0.679
Mof_O 	O 	0.95075	0.26013	0.12964	-0.715
Mof_O 	O 	0.89851	0.19118	0.11975	-0.732
Mof_O 	O 	0.39489	0.15668	0.36067	-0.689
Mof_O 	O 	0.26391	0.10479	0.18588	-0.717
Mof_O 	O 	0.23775	0.40957	0.73108	-0.671
Mof_O 	O 	0.15899	0.42821	0.6723	-0.679
Mof_O 	O 	0.86951	0.23987	0.19062	-0.715
Mof_O 	O 	0.92857	0.30882	0.20733	-0.733
Mof_O 	O 	0.20399	0.34332	0.73821	-0.689
Mof_O 	O 	0.08109	0.39521	0.65912	-0.717
Mof_O 	O 	0.26225	0.99333	0.17182	-0.672
Mof_O 	O 	0.34101	0.01331	0.26922	-0.679
Mof_O 	O 	0.63049	0.82111	0.37036	-0.715
Mof_O 	O 	0.57143	0.77876	0.38025	-0.733
Mof_O 	O 	0.29601	0.03422	0.13933	-0.689
Mof_O 	O 	0.41891	0.07803	0.31412	-0.717
Mof_O 	O 	0.67182	0.26225	0.49333	-0.671
Mof_O 	O 	0.76922	0.34101	0.51331	-0.679
Mof_O 	O 	0.87036	0.63049	0.32111	-0.715
Mof_O 	O 	0.88025	0.57143	0.27876	-0.732
Mof_O 	O 	0.63933	0.29601	0.53422	-0.689
Mof_O 	O 	0.81412	0.41891	0.57803	-0.717
Mof_O 	O 	0.23108	0.23775	0.90957	-0.671
Mof_O 	O 	0.1723	0.15899	0.92821	-0.679
Mof_O 	O 	0.69062	0.86951	0.73987	-0.715
Mof_O 	O 	0.70733	0.92857	0.80882	-0.732
Mof_O 	O 	0.23821	0.20399	0.84332	-0.689
Mof_O 	O 	0.15912	0.08109	0.89521	-0.717
Mof_O 	O 	0.82818	0.32151	0.59043	-0.671
Mof_O 	O 	0.73078	0.24409	0.57179	-0.679
Mof_O 	O 	0.62964	0.95075	0.76013	-0.715
Mof_O 	O 	0.61975	0.89851	0.69118	-0.733
Mof_O 	O 	0.86067	0.39489	0.65668	-0.689
Mof_O 	O 	0.68588	0.26391	0.60479	-0.717
Mof_O 	O 	0.26892	0.17849	0.00667	-0.671
Mof_O 	O 	0.3277	0.25591	0.98669	-0.679
Mof_O 	O 	0.80938	0.54925	0.17889	-0.715
Mof_O 	O 	0.79267	0.60149	0.22124	-0.733
Mof_O 	O 	0.26179	0.10511	0.96578	-0.689
Mof_O 	O 	0.34088	0.23609	0.92197	-0.717
Mof_O 	O 	0.17182	0.49333	0.26225	-0.671
Mof_O 	O 	0.26922	0.51331	0.34101	-0.679
Mof_O 	O 	0.37036	0.32111	0.63049	-0.715
Mof_O 	O 	0.38025	0.27876	0.57143	-0.732
Mof_O 	O 	0.13933	0.53422	0.29601	-0.689
Mof_O 	O 	0.31412	0.57803	0.41891	-0.717
Mof_O 	O 	0.73108	0.90957	0.23775	-0.671
Mof_O 	O 	0.6723	0.92821	0.15899	-0.679
Mof_O 	O 	0.19062	0.73987	0.86951	-0.715
Mof_O 	O 	0.20733	0.80882	0.92857	-0.732
Mof_O 	O 	0.73821	0.84332	0.20399	-0.689
Mof_O 	O 	0.65912	0.89521	0.08109	-0.717
Mof_O 	O 	0.32818	0.59043	0.32151	-0.671
Mof_O 	O 	0.23078	0.57179	0.24409	-0.679
Mof_O 	O 	0.12964	0.76013	0.95075	-0.715
Mof_O 	O 	0.11975	0.69118	0.89851	-0.733
Mof_O 	O 	0.36067	0.65668	0.39489	-0.689
Mof_O 	O 	0.18588	0.60479	0.26391	-0.717
Mof_O 	O 	0.76892	0.00667	0.17849	-0.671
Mof_O 	O 	0.8277	0.98669	0.25591	-0.679
Mof_O 	O 	0.30938	0.17889	0.54925	-0.715
Mof_O 	O 	0.29267	0.22124	0.60149	-0.733
Mof_O 	O 	0.76179	0.96578	0.10511	-0.689
Mof_O 	O 	0.84088	0.92197	0.23609	-0.717
Mof_O 	O 	0.90957	0.73775	0.23108	-0.671
Mof_O 	O 	0.92821	0.65899	0.1723	-0.679
Mof_O 	O 	0.73987	0.36951	0.69062	-0.715
Mof_O 	O 	0.80882	0.42857	0.70733	-0.732
Mof_O 	O 	0.84332	0.70399	0.23821	-0.689
Mof_O 	O 	0.89521	0.58109	0.15912	-0.717
Mof_O 	O 	0.49333	0.76225	0.67182	-0.671
Mof_O 	O 	0.51331	0.84101	0.76922	-0.679
Mof_O 	O 	0.32111	0.13049	0.87036	-0.715
Mof_O 	O 	0.27876	0.07143	0.88025	-0.733
Mof_O 	O 	0.53422	0.79601	0.63933	-0.689
Mof_O 	O 	0.57803	0.91891	0.81412	-0.717
Mof_O 	O 	0.00667	0.67849	0.26892	-0.671
Mof_O 	O 	0.98669	0.75591	0.3277	-0.679
Mof_O 	O 	0.17889	0.04925	0.80938	-0.715
Mof_O 	O 	0.22124	0.10149	0.79267	-0.733
Mof_O 	O 	0.96578	0.60511	0.26179	-0.689
Mof_O 	O 	0.92197	0.73609	0.34088	-0.717
Mof_O 	O 	0.59043	0.82151	0.82818	-0.671
Mof_O 	O 	0.57179	0.74409	0.73078	-0.679
Mof_O 	O 	0.76013	0.45075	0.62964	-0.715
Mof_O 	O 	0.69118	0.39851	0.61975	-0.733
Mof_O 	O 	0.65668	0.89489	0.86067	-0.689
Mof_O 	O 	0.60479	0.76391	0.68588	-0.717
Mof_O 	O 	0.67849	0.76892	0.50667	-0.671
Mof_O 	O 	0.75591	0.8277	0.48669	-0.679
Mof_O 	O 	0.04925	0.30938	0.67889	-0.715
Mof_O 	O 	0.10149	0.29267	0.72124	-0.732
Mof_O 	O 	0.60511	0.76179	0.46578	-0.689
Mof_O 	O 	0.73609	0.84088	0.42197	-0.717
Mof_O 	O 	0.82151	0.32818	0.09043	-0.671
Mof_O 	O 	0.74409	0.23078	0.07179	-0.679
Mof_O 	O 	0.45075	0.12964	0.26013	-0.715
Mof_O 	O 	0.39851	0.11975	0.19118	-0.732
Mof_O 	O 	0.89489	0.36067	0.15668	-0.689
Mof_O 	O 	0.76391	0.18588	0.10479	-0.717
Mof_O 	O 	0.73775	0.73108	0.40957	-0.671
Mof_O 	O 	0.65899	0.6723	0.42821	-0.679
Mof_O 	O 	0.36951	0.19062	0.23987	-0.715
Mof_O 	O 	0.42857	0.20733	0.30882	-0.733
Mof_O 	O 	0.70399	0.73821	0.34332	-0.689
Mof_O 	O 	0.58109	0.65912	0.39521	-0.717
Mof_O 	O 	0.76225	0.17182	0.99333	-0.672
Mof_O 	O 	0.84101	0.26922	0.01331	-0.679
Mof_O 	O 	0.13049	0.37036	0.82111	-0.715
Mof_O 	O 	0.07143	0.38025	0.77876	-0.733
Mof_O 	O 	0.79601	0.13933	0.03422	-0.689
Mof_O 	O 	0.91891	0.31412	0.07803	-0.717
Mof_O 	O 	0.40214	0.25	0.65214	-1.331
Mof_O 	O 	0.09786	0.75	0.84786	-1.33
Mof_O 	O 	0.15214	0.40214	0.75	-1.331
Mof_O 	O 	0.34786	0.09786	0.25	-1.33
Mof_O 	O 	0.75	0.34786	0.59786	-1.331
Mof_O 	O 	0.25	0.15214	0.90214	-1.33
Mof_O 	O 	0.25	0.59786	0.34786	-1.331
Mof_O 	O 	0.75	0.90214	0.15214	-1.33
Mof_O 	O 	0.90214	0.65214	0.25	-1.331
Mof_O 	O 	0.59786	0.84786	0.75	-1.33
Mof_O 	O 	0.65214	0.75	0.40214	-1.331
Mof_O 	O 	0.84786	0.25	0.09786	-1.33
_end
