data_functionalizedCrystal
_audit_creation_method	'EQeq! by Chris Wilmer'
_symmetry_space_group_name_H-M	'P1'
_symmetry_Int_Tables_number	1
_symmetry_cell_setting	triclinic
loop_
_symmetry_equiv_pos_as_xyz
  x,y,z
_cell_length_a	10.281
_cell_length_b	13.844
_cell_length_c	17.064
_cell_angle_alpha	90
_cell_angle_beta	90
_cell_angle_gamma	90
loop_
_atom_site_label
_atom_site_type_symbol
_atom_site_fract_x
_atom_site_fract_y
_atom_site_fract_z
_atom_site_charge
Mof_P 	P 	0.3676	0.25328	0.20387	2.173
Mof_P 	P 	0.1263	0.46013	0.33711	1.868
Mof_P 	P 	0.3707	0.56668	0.58027	2.074
Mof_Al	Al	0.3298	0.4789	0.19812	8.024
Mof_Al	Al	0.3749	0.5617	0.39344	8.513
Mof_Al	Al	0.1219	0.2414	0.30632	8.383
Mof_O 	O 	0.327	0.3531	0.1774	-2.336
Mof_O 	O 	0.1182	0.3512	0.3555	-2.468
Mof_O 	O 	0.4036	0.5182	0.2892	-3.489
Mof_O 	O 	0.3587	0.1857	0.135	-2.298
Mof_O 	O 	0.2204	0.5024	0.3959	-2.251
Mof_O 	O 	0.1685	0.4763	0.253	-2.181
Mof_O 	O 	0.4667	0.4833	0.5845	-2.385
Mof_O 	O 	0.4229	0.6529	0.6274	-2.576
Mof_O 	O 	0.3502	0.5991	0.4967	-2.057
Mof_O 	O 	0.2394	0.5375	0.6149	-2.245
Mof_O 	O 	0.2779	0.2193	0.2703	-2.698
Mof_O 	O 	0.9946	0.5047	0.3513	-1.846
Mof_O 	O 	0.5076	0.255	0.2325	-2.644
Mof_H 	H 	0.5019	0.5296	0.2862	0.451
Mof_P 	P 	0.6324	0.24672	0.70387	2.172
Mof_P 	P 	0.8737	0.03987	0.83711	1.854
Mof_P 	P 	0.6293	0.93332	0.08027	2.061
Mof_Al	Al	0.6702	0.0211	0.69812	7.983
Mof_Al	Al	0.6251	0.9383	0.89344	8.503
Mof_Al	Al	0.8781	0.2586	0.80632	8.373
Mof_O 	O 	0.673	0.1469	0.6774	-2.33
Mof_O 	O 	0.8818	0.1488	0.8555	-2.467
Mof_O 	O 	0.5964	0.9818	0.7892	-3.472
Mof_O 	O 	0.6413	0.3143	0.635	-2.302
Mof_O 	O 	0.7796	0.9976	0.8959	-2.231
Mof_O 	O 	0.8315	0.0237	0.753	-2.176
Mof_O 	O 	0.5333	0.0167	0.0845	-2.38
Mof_O 	O 	0.5771	0.8471	0.1274	-2.576
Mof_O 	O 	0.6498	0.9009	0.9967	-2.048
Mof_O 	O 	0.7606	0.9625	0.1149	-2.232
Mof_O 	O 	0.7221	0.2807	0.7703	-2.698
Mof_O 	O 	0.0054	0.9953	0.8513	-1.844
Mof_O 	O 	0.4924	0.245	0.7325	-2.644
Mof_H 	H 	0.4981	0.9704	0.7862	0.449
Mof_P 	P 	0.8676	0.74672	0.29613	2.178
Mof_P 	P 	0.6263	0.53987	0.16289	1.865
Mof_P 	P 	0.8707	0.43332	0.91973	2.076
Mof_Al	Al	0.8298	0.5211	0.30188	8.023
Mof_Al	Al	0.8749	0.4383	0.10656	8.475
Mof_Al	Al	0.6219	0.7586	0.19368	8.372
Mof_O 	O 	0.827	0.6469	0.3226	-2.337
Mof_O 	O 	0.6182	0.6488	0.1445	-2.467
Mof_O 	O 	0.9036	0.4818	0.2108	-3.49
Mof_O 	O 	0.8587	0.8143	0.365	-2.309
Mof_O 	O 	0.7204	0.4976	0.1041	-2.244
Mof_O 	O 	0.6685	0.5237	0.247	-2.18
Mof_O 	O 	0.9667	0.5167	0.9155	-2.372
Mof_O 	O 	0.9229	0.3471	0.8726	-2.576
Mof_O 	O 	0.8502	0.4009	0.0033	-2.06
Mof_O 	O 	0.7394	0.4625	0.8851	-2.244
Mof_O 	O 	0.7779	0.7807	0.2297	-2.698
Mof_O 	O 	0.4946	0.4953	0.1487	-1.841
Mof_O 	O 	0.0076	0.745	0.2675	-2.649
Mof_H 	H 	0.0019	0.4704	0.2138	0.456
Mof_P 	P 	0.1324	0.75328	0.79613	2.159
Mof_P 	P 	0.3737	0.96013	0.66289	1.861
Mof_P 	P 	0.1293	0.06668	0.41973	2.091
Mof_Al	Al	0.1702	0.9789	0.80188	7.978
Mof_Al	Al	0.1251	0.0617	0.60656	8.556
Mof_Al	Al	0.3781	0.7414	0.69368	8.371
Mof_O 	O 	0.173	0.8531	0.8226	-2.33
Mof_O 	O 	0.3818	0.8512	0.6445	-2.467
Mof_O 	O 	0.0964	0.0182	0.7108	-3.472
Mof_O 	O 	0.1413	0.6857	0.865	-2.297
Mof_O 	O 	0.2796	0.0024	0.6041	-2.254
Mof_O 	O 	0.3315	0.9763	0.747	-2.174
Mof_O 	O 	0.0333	0.9833	0.4155	-2.41
Mof_O 	O 	0.0771	0.1529	0.3726	-2.576
Mof_O 	O 	0.1498	0.0991	0.5033	-2.063
Mof_O 	O 	0.2606	0.0375	0.3851	-2.233
Mof_O 	O 	0.2221	0.7193	0.7297	-2.698
Mof_O 	O 	0.5054	0.0047	0.6487	-1.834
Mof_O 	O 	0.9924	0.755	0.7675	-2.634
Mof_H 	H 	0.9981	0.0296	0.7138	0.44
Mof_P 	P 	0.6324	0.74672	0.79613	2.174
Mof_P 	P 	0.8737	0.53987	0.66289	1.869
Mof_P 	P 	0.6293	0.43332	0.41973	2.074
Mof_Al	Al	0.6702	0.5211	0.80188	8.024
Mof_Al	Al	0.6251	0.4383	0.60656	8.513
Mof_Al	Al	0.8781	0.7586	0.69368	8.383
Mof_O 	O 	0.673	0.6469	0.8226	-2.336
Mof_O 	O 	0.8818	0.6488	0.6445	-2.468
Mof_O 	O 	0.5964	0.4818	0.7108	-3.489
Mof_O 	O 	0.6413	0.8143	0.865	-2.298
Mof_O 	O 	0.7796	0.4976	0.6041	-2.251
Mof_O 	O 	0.8315	0.5237	0.747	-2.181
Mof_O 	O 	0.5333	0.5167	0.4155	-2.385
Mof_O 	O 	0.5771	0.3471	0.3726	-2.576
Mof_O 	O 	0.6498	0.4009	0.5033	-2.057
Mof_O 	O 	0.7606	0.4625	0.3851	-2.245
Mof_O 	O 	0.7221	0.7807	0.7297	-2.698
Mof_O 	O 	0.0054	0.4953	0.6487	-1.846
Mof_O 	O 	0.4924	0.745	0.7675	-2.644
Mof_H 	H 	0.4981	0.4704	0.7138	0.451
Mof_P 	P 	0.3676	0.75328	0.29613	2.172
Mof_P 	P 	0.1263	0.96013	0.16289	1.854
Mof_P 	P 	0.3707	0.06668	0.91973	2.061
Mof_Al	Al	0.3298	0.9789	0.30188	7.983
Mof_Al	Al	0.3749	0.0617	0.10656	8.503
Mof_Al	Al	0.1219	0.7414	0.19368	8.373
Mof_O 	O 	0.327	0.8531	0.3226	-2.33
Mof_O 	O 	0.1182	0.8512	0.1445	-2.467
Mof_O 	O 	0.4036	0.0182	0.2108	-3.472
Mof_O 	O 	0.3587	0.6857	0.365	-2.302
Mof_O 	O 	0.2204	0.0024	0.1041	-2.231
Mof_O 	O 	0.1685	0.9763	0.247	-2.176
Mof_O 	O 	0.4667	0.9833	0.9155	-2.38
Mof_O 	O 	0.4229	0.1529	0.8726	-2.576
Mof_O 	O 	0.3502	0.0991	0.0033	-2.048
Mof_O 	O 	0.2394	0.0375	0.8851	-2.232
Mof_O 	O 	0.2779	0.7193	0.2297	-2.698
Mof_O 	O 	0.9946	0.0047	0.1487	-1.844
Mof_O 	O 	0.5076	0.755	0.2675	-2.644
Mof_H 	H 	0.5019	0.0296	0.2138	0.449
Mof_P 	P 	0.1324	0.25328	0.70387	2.178
Mof_P 	P 	0.3737	0.46013	0.83711	1.865
Mof_P 	P 	0.1293	0.56668	0.08027	2.076
Mof_Al	Al	0.1702	0.4789	0.69812	8.023
Mof_Al	Al	0.1251	0.5617	0.89344	8.475
Mof_Al	Al	0.3781	0.2414	0.80632	8.372
Mof_O 	O 	0.173	0.3531	0.6774	-2.337
Mof_O 	O 	0.3818	0.3512	0.8555	-2.467
Mof_O 	O 	0.0964	0.5182	0.7892	-3.49
Mof_O 	O 	0.1413	0.1857	0.635	-2.309
Mof_O 	O 	0.2796	0.5024	0.8959	-2.244
Mof_O 	O 	0.3315	0.4763	0.753	-2.18
Mof_O 	O 	0.0333	0.4833	0.0845	-2.372
Mof_O 	O 	0.0771	0.6529	0.1274	-2.576
Mof_O 	O 	0.1498	0.5991	0.9967	-2.06
Mof_O 	O 	0.2606	0.5375	0.1149	-2.244
Mof_O 	O 	0.2221	0.2193	0.7703	-2.698
Mof_O 	O 	0.5054	0.5047	0.8513	-1.841
Mof_O 	O 	0.9924	0.255	0.7325	-2.649
Mof_H 	H 	0.9981	0.5296	0.7862	0.456
Mof_P 	P 	0.8676	0.24672	0.20387	2.159
Mof_P 	P 	0.6263	0.03987	0.33711	1.861
Mof_P 	P 	0.8707	0.93332	0.58027	2.091
Mof_Al	Al	0.8298	0.0211	0.19812	7.978
Mof_Al	Al	0.8749	0.9383	0.39344	8.556
Mof_Al	Al	0.6219	0.2586	0.30632	8.371
Mof_O 	O 	0.827	0.1469	0.1774	-2.33
Mof_O 	O 	0.6182	0.1488	0.3555	-2.467
Mof_O 	O 	0.9036	0.9818	0.2892	-3.472
Mof_O 	O 	0.8587	0.3143	0.135	-2.297
Mof_O 	O 	0.7204	0.9976	0.3959	-2.254
Mof_O 	O 	0.6685	0.0237	0.253	-2.174
Mof_O 	O 	0.9667	0.0167	0.5845	-2.41
Mof_O 	O 	0.9229	0.8471	0.6274	-2.576
Mof_O 	O 	0.8502	0.9009	0.4967	-2.063
Mof_O 	O 	0.7394	0.9625	0.6149	-2.233
Mof_O 	O 	0.7779	0.2807	0.2703	-2.698
Mof_O 	O 	0.4946	0.9953	0.3513	-1.834
Mof_O 	O 	0.0076	0.245	0.2325	-2.634
Mof_H 	H 	0.0019	0.9704	0.2862	0.44
_end
