data_functionalizedCrystal
_audit_creation_method	'EQeq! by Chris Wilmer'
_symmetry_space_group_name_H-M	'P1'
_symmetry_Int_Tables_number	1
_symmetry_cell_setting	triclinic
loop_
_symmetry_equiv_pos_as_xyz
  x,y,z
_cell_length_a	29.218
_cell_length_b	11.1912
_cell_length_c	22.9833
_cell_angle_alpha	90
_cell_angle_beta	90
_cell_angle_gamma	90
loop_
_atom_site_label
_atom_site_type_symbol
_atom_site_fract_x
_atom_site_fract_y
_atom_site_fract_z
_atom_site_charge
Mof_Cd	Cd	0.1148	0.54311	0.19135	0.485
Mof_Cd	Cd	0.06184	0.75361	0.09348	0.489
Mof_O 	O 	0.1089	0.5789	0.0921	-0.28
Mof_O 	O 	0.179	0.548	0.1199	-0.244
Mof_O 	O 	0.3245	0.5355	0.7624	-0.25
Mof_O 	O 	0.3953	0.5362	0.7917	-0.256
Mof_O 	O 	0.373	0.6561	0.0588	-0.263
Mof_O 	O 	0.4252	0.6965	0.9951	-0.26
Mof_O 	O 	0.9627	0.4468	0.8126	-0.277
Mof_O 	O 	0.9919	0.3764	0.8961	-0.27
Mof_O 	O 	0.1226	0.7537	0.7098	-0.261
Mof_O 	O 	0.0598	0.664	0.6798	-0.279
Mof_C 	C 	0.1514	0.5653	0.0812	0.287
Mof_C 	C 	0.1664	0.5699	0.0181	0.003
Mof_C 	C 	0.2119	0.5724	0.0048	-0.093
Mof_H 	H 	0.2336	0.5692	0.0343	0.087
Mof_C 	C 	0.2259	0.5797	0.9468	0.07
Mof_C 	C 	0.1928	0.5824	0.9039	-0.128
Mof_H 	H 	0.202	0.5889	0.8653	0.087
Mof_C 	C 	0.1466	0.5757	0.9162	0.071
Mof_C 	C 	0.1335	0.5702	0.9746	-0.09
Mof_H 	H 	0.1026	0.5666	0.9844	0.086
Mof_C 	C 	0.3533	0.5426	0.8012	0.301
Mof_C 	C 	0.3856	0.6593	0.0079	0.301
Mof_C 	C 	0.3379	0.5683	0.862	-0.054
Mof_C 	C 	0.3686	0.5966	0.9044	-0.001
Mof_H 	H 	0.3997	0.5981	0.8958	0.065
Mof_C 	C 	0.3535	0.6239	0.9617	-0.058
Mof_C 	C 	0.3084	0.6143	0.9735	-0.024
Mof_H 	H 	0.2988	0.6272	0.0116	0.062
Mof_C 	C 	0.2759	0.5865	0.9322	-0.006
Mof_C 	C 	0.2916	0.5584	0.8763	-0.029
Mof_H 	H 	0.2709	0.5328	0.8482	0.063
Mof_C 	C 	0.9936	0.4382	0.8484	0.312
Mof_C 	C 	0.0891	0.6866	0.7177	0.323
Mof_C 	C 	0.0375	0.5059	0.8375	-0.051
Mof_C 	C 	0.0432	0.5609	0.7858	0.003
Mof_H 	H 	0.0205	0.5564	0.7576	0.069
Mof_C 	C 	0.0832	0.6243	0.7748	-0.054
Mof_C 	C 	0.1163	0.6306	0.8177	-0.023
Mof_H 	H 	0.1428	0.6746	0.8106	0.062
Mof_C 	C 	0.1114	0.574	0.8705	-0.004
Mof_C 	C 	0.0711	0.5107	0.88	-0.025
Mof_H 	H 	0.0666	0.4713	0.9152	0.064
Mof_Cd	Cd	0.3852	0.95689	0.19135	0.483
Mof_Cd	Cd	0.43816	0.74639	0.09348	0.488
Mof_O 	O 	0.3911	0.9211	0.0921	-0.281
Mof_O 	O 	0.321	0.952	0.1199	-0.245
Mof_O 	O 	0.1755	0.9645	0.7624	-0.251
Mof_O 	O 	0.1047	0.9638	0.7917	-0.257
Mof_O 	O 	0.127	0.8439	0.0588	-0.264
Mof_O 	O 	0.0748	0.8035	0.9951	-0.261
Mof_O 	O 	0.5373	0.0532	0.8126	-0.278
Mof_O 	O 	0.5081	0.1236	0.8961	-0.271
Mof_O 	O 	0.3774	0.7463	0.7098	-0.261
Mof_O 	O 	0.4402	0.836	0.6798	-0.279
Mof_C 	C 	0.3486	0.9347	0.0812	0.286
Mof_C 	C 	0.3336	0.9301	0.0181	0.003
Mof_C 	C 	0.2881	0.9276	0.0048	-0.094
Mof_H 	H 	0.2664	0.9308	0.0343	0.088
Mof_C 	C 	0.2741	0.9203	0.9468	0.071
Mof_C 	C 	0.3072	0.9176	0.9039	-0.129
Mof_H 	H 	0.298	0.9111	0.8653	0.087
Mof_C 	C 	0.3534	0.9243	0.9162	0.072
Mof_C 	C 	0.3665	0.9298	0.9746	-0.09
Mof_H 	H 	0.3974	0.9334	0.9844	0.087
Mof_C 	C 	0.1467	0.9574	0.8012	0.301
Mof_C 	C 	0.1144	0.8407	0.0079	0.3
Mof_C 	C 	0.1621	0.9317	0.862	-0.054
Mof_C 	C 	0.1314	0.9034	0.9044	-0.001
Mof_H 	H 	0.1003	0.9019	0.8958	0.066
Mof_C 	C 	0.1465	0.8761	0.9617	-0.057
Mof_C 	C 	0.1916	0.8857	0.9735	-0.023
Mof_H 	H 	0.2012	0.8728	0.0116	0.062
Mof_C 	C 	0.2241	0.9135	0.9322	-0.007
Mof_C 	C 	0.2084	0.9416	0.8763	-0.029
Mof_H 	H 	0.2291	0.9672	0.8482	0.062
Mof_C 	C 	0.5064	0.0618	0.8484	0.312
Mof_C 	C 	0.4109	0.8134	0.7177	0.323
Mof_C 	C 	0.4625	0.9941	0.8375	-0.052
Mof_C 	C 	0.4568	0.9391	0.7858	0.003
Mof_H 	H 	0.4795	0.9436	0.7576	0.069
Mof_C 	C 	0.4168	0.8757	0.7748	-0.055
Mof_C 	C 	0.3837	0.8694	0.8177	-0.022
Mof_H 	H 	0.3572	0.8254	0.8106	0.062
Mof_C 	C 	0.3886	0.926	0.8705	-0.005
Mof_C 	C 	0.4289	0.9893	0.88	-0.023
Mof_H 	H 	0.4334	0.0287	0.9152	0.063
Mof_Cd	Cd	0.8852	0.04311	0.30865	0.484
Mof_Cd	Cd	0.93816	0.25361	0.40652	0.488
Mof_O 	O 	0.8911	0.0789	0.4079	-0.281
Mof_O 	O 	0.821	0.048	0.3801	-0.245
Mof_O 	O 	0.6755	0.0355	0.7376	-0.251
Mof_O 	O 	0.6047	0.0362	0.7083	-0.257
Mof_O 	O 	0.627	0.1561	0.4412	-0.264
Mof_O 	O 	0.5748	0.1965	0.5049	-0.262
Mof_O 	O 	0.0373	0.9468	0.6874	-0.278
Mof_O 	O 	0.0081	0.8764	0.6039	-0.271
Mof_O 	O 	0.8774	0.2537	0.7902	-0.261
Mof_O 	O 	0.9402	0.164	0.8202	-0.279
Mof_C 	C 	0.8486	0.0653	0.4188	0.286
Mof_C 	C 	0.8336	0.0699	0.4819	0.004
Mof_C 	C 	0.7881	0.0724	0.4952	-0.093
Mof_H 	H 	0.7664	0.0692	0.4657	0.087
Mof_C 	C 	0.7741	0.0797	0.5532	0.069
Mof_C 	C 	0.8072	0.0824	0.5961	-0.128
Mof_H 	H 	0.798	0.0889	0.6347	0.087
Mof_C 	C 	0.8534	0.0757	0.5838	0.072
Mof_C 	C 	0.8665	0.0702	0.5254	-0.091
Mof_H 	H 	0.8974	0.0666	0.5156	0.087
Mof_C 	C 	0.6467	0.0426	0.6988	0.301
Mof_C 	C 	0.6144	0.1593	0.4921	0.301
Mof_C 	C 	0.6621	0.0683	0.638	-0.054
Mof_C 	C 	0.6314	0.0966	0.5956	-0
Mof_H 	H 	0.6003	0.0981	0.6042	0.065
Mof_C 	C 	0.6465	0.1239	0.5383	-0.058
Mof_C 	C 	0.6916	0.1143	0.5265	-0.025
Mof_H 	H 	0.7012	0.1272	0.4884	0.063
Mof_C 	C 	0.7241	0.0865	0.5678	-0.006
Mof_C 	C 	0.7084	0.0584	0.6237	-0.029
Mof_H 	H 	0.7291	0.0328	0.6518	0.063
Mof_C 	C 	0.0064	0.9382	0.6516	0.313
Mof_C 	C 	0.9109	0.1866	0.7823	0.323
Mof_C 	C 	0.9625	0.0059	0.6625	-0.052
Mof_C 	C 	0.9568	0.0609	0.7142	0.003
Mof_H 	H 	0.9795	0.0564	0.7424	0.069
Mof_C 	C 	0.9168	0.1243	0.7252	-0.055
Mof_C 	C 	0.8837	0.1306	0.6823	-0.023
Mof_H 	H 	0.8572	0.1746	0.6894	0.062
Mof_C 	C 	0.8886	0.074	0.6295	-0.004
Mof_C 	C 	0.9289	0.0107	0.62	-0.025
Mof_H 	H 	0.9334	0.9713	0.5848	0.064
Mof_Cd	Cd	0.6148	0.45689	0.30865	0.483
Mof_Cd	Cd	0.56184	0.24639	0.40652	0.488
Mof_O 	O 	0.6089	0.4211	0.4079	-0.281
Mof_O 	O 	0.679	0.452	0.3801	-0.245
Mof_O 	O 	0.8245	0.4645	0.7376	-0.251
Mof_O 	O 	0.8953	0.4638	0.7083	-0.257
Mof_O 	O 	0.873	0.3439	0.4412	-0.264
Mof_O 	O 	0.9252	0.3035	0.5049	-0.262
Mof_O 	O 	0.4627	0.5532	0.6874	-0.278
Mof_O 	O 	0.4919	0.6236	0.6039	-0.271
Mof_O 	O 	0.6226	0.2463	0.7902	-0.261
Mof_O 	O 	0.5598	0.336	0.8202	-0.279
Mof_C 	C 	0.6514	0.4347	0.4188	0.286
Mof_C 	C 	0.6664	0.4301	0.4819	0.004
Mof_C 	C 	0.7119	0.4276	0.4952	-0.093
Mof_H 	H 	0.7336	0.4308	0.4657	0.087
Mof_C 	C 	0.7259	0.4203	0.5532	0.069
Mof_C 	C 	0.6928	0.4176	0.5961	-0.128
Mof_H 	H 	0.702	0.4111	0.6347	0.087
Mof_C 	C 	0.6466	0.4243	0.5838	0.071
Mof_C 	C 	0.6335	0.4298	0.5254	-0.091
Mof_H 	H 	0.6026	0.4334	0.5156	0.087
Mof_C 	C 	0.8533	0.4574	0.6988	0.301
Mof_C 	C 	0.8856	0.3407	0.4921	0.301
Mof_C 	C 	0.8379	0.4317	0.638	-0.054
Mof_C 	C 	0.8686	0.4034	0.5956	-0
Mof_H 	H 	0.8997	0.4019	0.6042	0.065
Mof_C 	C 	0.8535	0.3761	0.5383	-0.058
Mof_C 	C 	0.8084	0.3857	0.5265	-0.025
Mof_H 	H 	0.7988	0.3728	0.4884	0.063
Mof_C 	C 	0.7759	0.4135	0.5678	-0.006
Mof_C 	C 	0.7916	0.4416	0.6237	-0.029
Mof_H 	H 	0.7709	0.4672	0.6518	0.063
Mof_C 	C 	0.4936	0.5618	0.6516	0.312
Mof_C 	C 	0.5891	0.3134	0.7823	0.323
Mof_C 	C 	0.5375	0.4941	0.6625	-0.052
Mof_C 	C 	0.5432	0.4391	0.7142	0.003
Mof_H 	H 	0.5205	0.4436	0.7424	0.069
Mof_C 	C 	0.5832	0.3757	0.7252	-0.054
Mof_C 	C 	0.6163	0.3694	0.6823	-0.023
Mof_H 	H 	0.6428	0.3254	0.6894	0.062
Mof_C 	C 	0.6114	0.426	0.6295	-0.004
Mof_C 	C 	0.5711	0.4893	0.62	-0.025
Mof_H 	H 	0.5666	0.5287	0.5848	0.064
Mof_Cd	Cd	0.8852	0.45689	0.80865	0.484
Mof_Cd	Cd	0.93816	0.24639	0.90652	0.488
Mof_O 	O 	0.8911	0.4211	0.9079	-0.281
Mof_O 	O 	0.821	0.452	0.8801	-0.245
Mof_O 	O 	0.6755	0.4645	0.2376	-0.251
Mof_O 	O 	0.6047	0.4638	0.2083	-0.257
Mof_O 	O 	0.627	0.3439	0.9412	-0.264
Mof_O 	O 	0.5748	0.3035	0.0049	-0.261
Mof_O 	O 	0.0373	0.5532	0.1874	-0.278
Mof_O 	O 	0.0081	0.6236	0.1039	-0.271
Mof_O 	O 	0.8774	0.2463	0.2902	-0.261
Mof_O 	O 	0.9402	0.336	0.3202	-0.279
Mof_C 	C 	0.8486	0.4347	0.9188	0.287
Mof_C 	C 	0.8336	0.4301	0.9819	0.003
Mof_C 	C 	0.7881	0.4276	0.9952	-0.093
Mof_H 	H 	0.7664	0.4308	0.9657	0.087
Mof_C 	C 	0.7741	0.4203	0.0532	0.07
Mof_C 	C 	0.8072	0.4176	0.0961	-0.128
Mof_H 	H 	0.798	0.4111	0.1347	0.087
Mof_C 	C 	0.8534	0.4243	0.0838	0.071
Mof_C 	C 	0.8665	0.4298	0.0254	-0.09
Mof_H 	H 	0.8974	0.4334	0.0156	0.086
Mof_C 	C 	0.6467	0.4574	0.1988	0.301
Mof_C 	C 	0.6144	0.3407	0.9921	0.301
Mof_C 	C 	0.6621	0.4317	0.138	-0.054
Mof_C 	C 	0.6314	0.4034	0.0956	-0.001
Mof_H 	H 	0.6003	0.4019	0.1042	0.065
Mof_C 	C 	0.6465	0.3761	0.0383	-0.058
Mof_C 	C 	0.6916	0.3857	0.0265	-0.024
Mof_H 	H 	0.7012	0.3728	0.9884	0.062
Mof_C 	C 	0.7241	0.4135	0.0678	-0.006
Mof_C 	C 	0.7084	0.4416	0.1237	-0.029
Mof_H 	H 	0.7291	0.4672	0.1518	0.063
Mof_C 	C 	0.0064	0.5618	0.1516	0.312
Mof_C 	C 	0.9109	0.3134	0.2823	0.323
Mof_C 	C 	0.9625	0.4941	0.1625	-0.051
Mof_C 	C 	0.9568	0.4391	0.2142	0.003
Mof_H 	H 	0.9795	0.4436	0.2424	0.069
Mof_C 	C 	0.9168	0.3757	0.2252	-0.054
Mof_C 	C 	0.8837	0.3694	0.1823	-0.023
Mof_H 	H 	0.8572	0.3254	0.1894	0.062
Mof_C 	C 	0.8886	0.426	0.1295	-0.004
Mof_C 	C 	0.9289	0.4893	0.12	-0.025
Mof_H 	H 	0.9334	0.5287	0.0848	0.064
Mof_Cd	Cd	0.6148	0.04311	0.80865	0.483
Mof_Cd	Cd	0.56184	0.25361	0.90652	0.488
Mof_O 	O 	0.6089	0.0789	0.9079	-0.281
Mof_O 	O 	0.679	0.048	0.8801	-0.245
Mof_O 	O 	0.8245	0.0355	0.2376	-0.251
Mof_O 	O 	0.8953	0.0362	0.2083	-0.257
Mof_O 	O 	0.873	0.1561	0.9412	-0.264
Mof_O 	O 	0.9252	0.1965	0.0049	-0.261
Mof_O 	O 	0.4627	0.9468	0.1874	-0.278
Mof_O 	O 	0.4919	0.8764	0.1039	-0.271
Mof_O 	O 	0.6226	0.2537	0.2902	-0.261
Mof_O 	O 	0.5598	0.164	0.3202	-0.279
Mof_C 	C 	0.6514	0.0653	0.9188	0.286
Mof_C 	C 	0.6664	0.0699	0.9819	0.003
Mof_C 	C 	0.7119	0.0724	0.9952	-0.094
Mof_H 	H 	0.7336	0.0692	0.9657	0.088
Mof_C 	C 	0.7259	0.0797	0.0532	0.071
Mof_C 	C 	0.6928	0.0824	0.0961	-0.129
Mof_H 	H 	0.702	0.0889	0.1347	0.087
Mof_C 	C 	0.6466	0.0757	0.0838	0.072
Mof_C 	C 	0.6335	0.0702	0.0254	-0.09
Mof_H 	H 	0.6026	0.0666	0.0156	0.087
Mof_C 	C 	0.8533	0.0426	0.1988	0.301
Mof_C 	C 	0.8856	0.1593	0.9921	0.3
Mof_C 	C 	0.8379	0.0683	0.138	-0.054
Mof_C 	C 	0.8686	0.0966	0.0956	-0.001
Mof_H 	H 	0.8997	0.0981	0.1042	0.066
Mof_C 	C 	0.8535	0.1239	0.0383	-0.057
Mof_C 	C 	0.8084	0.1143	0.0265	-0.023
Mof_H 	H 	0.7988	0.1272	0.9884	0.062
Mof_C 	C 	0.7759	0.0865	0.0678	-0.007
Mof_C 	C 	0.7916	0.0584	0.1237	-0.029
Mof_H 	H 	0.7709	0.0328	0.1518	0.062
Mof_C 	C 	0.4936	0.9382	0.1516	0.312
Mof_C 	C 	0.5891	0.1866	0.2823	0.323
Mof_C 	C 	0.5375	0.0059	0.1625	-0.052
Mof_C 	C 	0.5432	0.0609	0.2142	0.003
Mof_H 	H 	0.5205	0.0564	0.2424	0.069
Mof_C 	C 	0.5832	0.1243	0.2252	-0.055
Mof_C 	C 	0.6163	0.1306	0.1823	-0.022
Mof_H 	H 	0.6428	0.1746	0.1894	0.062
Mof_C 	C 	0.6114	0.074	0.1295	-0.005
Mof_C 	C 	0.5711	0.0107	0.12	-0.023
Mof_H 	H 	0.5666	0.9713	0.0848	0.063
Mof_Cd	Cd	0.1148	0.95689	0.69135	0.484
Mof_Cd	Cd	0.06184	0.74639	0.59348	0.488
Mof_O 	O 	0.1089	0.9211	0.5921	-0.281
Mof_O 	O 	0.179	0.952	0.6199	-0.245
Mof_O 	O 	0.3245	0.9645	0.2624	-0.251
Mof_O 	O 	0.3953	0.9638	0.2917	-0.257
Mof_O 	O 	0.373	0.8439	0.5588	-0.264
Mof_O 	O 	0.4252	0.8035	0.4951	-0.262
Mof_O 	O 	0.9627	0.0532	0.3126	-0.278
Mof_O 	O 	0.9919	0.1236	0.3961	-0.271
Mof_O 	O 	0.1226	0.7463	0.2098	-0.261
Mof_O 	O 	0.0598	0.836	0.1798	-0.279
Mof_C 	C 	0.1514	0.9347	0.5812	0.286
Mof_C 	C 	0.1664	0.9301	0.5181	0.004
Mof_C 	C 	0.2119	0.9276	0.5048	-0.093
Mof_H 	H 	0.2336	0.9308	0.5343	0.087
Mof_C 	C 	0.2259	0.9203	0.4468	0.069
Mof_C 	C 	0.1928	0.9176	0.4039	-0.128
Mof_H 	H 	0.202	0.9111	0.3653	0.087
Mof_C 	C 	0.1466	0.9243	0.4162	0.072
Mof_C 	C 	0.1335	0.9298	0.4746	-0.091
Mof_H 	H 	0.1026	0.9334	0.4844	0.087
Mof_C 	C 	0.3533	0.9574	0.3012	0.301
Mof_C 	C 	0.3856	0.8407	0.5079	0.301
Mof_C 	C 	0.3379	0.9317	0.362	-0.054
Mof_C 	C 	0.3686	0.9034	0.4044	-0
Mof_H 	H 	0.3997	0.9019	0.3958	0.065
Mof_C 	C 	0.3535	0.8761	0.4617	-0.058
Mof_C 	C 	0.3084	0.8857	0.4735	-0.025
Mof_H 	H 	0.2988	0.8728	0.5116	0.063
Mof_C 	C 	0.2759	0.9135	0.4322	-0.006
Mof_C 	C 	0.2916	0.9416	0.3763	-0.029
Mof_H 	H 	0.2709	0.9672	0.3482	0.063
Mof_C 	C 	0.9936	0.0618	0.3484	0.313
Mof_C 	C 	0.0891	0.8134	0.2177	0.323
Mof_C 	C 	0.0375	0.9941	0.3375	-0.052
Mof_C 	C 	0.0432	0.9391	0.2858	0.003
Mof_H 	H 	0.0205	0.9436	0.2576	0.069
Mof_C 	C 	0.0832	0.8757	0.2748	-0.055
Mof_C 	C 	0.1163	0.8694	0.3177	-0.023
Mof_H 	H 	0.1428	0.8254	0.3106	0.062
Mof_C 	C 	0.1114	0.926	0.3705	-0.004
Mof_C 	C 	0.0711	0.9893	0.38	-0.025
Mof_H 	H 	0.0666	0.0287	0.4152	0.064
Mof_Cd	Cd	0.3852	0.54311	0.69135	0.483
Mof_Cd	Cd	0.43816	0.75361	0.59348	0.488
Mof_O 	O 	0.3911	0.5789	0.5921	-0.281
Mof_O 	O 	0.321	0.548	0.6199	-0.245
Mof_O 	O 	0.1755	0.5355	0.2624	-0.251
Mof_O 	O 	0.1047	0.5362	0.2917	-0.257
Mof_O 	O 	0.127	0.6561	0.5588	-0.264
Mof_O 	O 	0.0748	0.6965	0.4951	-0.262
Mof_O 	O 	0.5373	0.4468	0.3126	-0.278
Mof_O 	O 	0.5081	0.3764	0.3961	-0.271
Mof_O 	O 	0.3774	0.7537	0.2098	-0.261
Mof_O 	O 	0.4402	0.664	0.1798	-0.279
Mof_C 	C 	0.3486	0.5653	0.5812	0.286
Mof_C 	C 	0.3336	0.5699	0.5181	0.004
Mof_C 	C 	0.2881	0.5724	0.5048	-0.093
Mof_H 	H 	0.2664	0.5692	0.5343	0.087
Mof_C 	C 	0.2741	0.5797	0.4468	0.069
Mof_C 	C 	0.3072	0.5824	0.4039	-0.128
Mof_H 	H 	0.298	0.5889	0.3653	0.087
Mof_C 	C 	0.3534	0.5757	0.4162	0.071
Mof_C 	C 	0.3665	0.5702	0.4746	-0.091
Mof_H 	H 	0.3974	0.5666	0.4844	0.087
Mof_C 	C 	0.1467	0.5426	0.3012	0.301
Mof_C 	C 	0.1144	0.6593	0.5079	0.301
Mof_C 	C 	0.1621	0.5683	0.362	-0.054
Mof_C 	C 	0.1314	0.5966	0.4044	-0
Mof_H 	H 	0.1003	0.5981	0.3958	0.065
Mof_C 	C 	0.1465	0.6239	0.4617	-0.058
Mof_C 	C 	0.1916	0.6143	0.4735	-0.025
Mof_H 	H 	0.2012	0.6272	0.5116	0.063
Mof_C 	C 	0.2241	0.5865	0.4322	-0.006
Mof_C 	C 	0.2084	0.5584	0.3763	-0.029
Mof_H 	H 	0.2291	0.5328	0.3482	0.063
Mof_C 	C 	0.5064	0.4382	0.3484	0.312
Mof_C 	C 	0.4109	0.6866	0.2177	0.323
Mof_C 	C 	0.4625	0.5059	0.3375	-0.052
Mof_C 	C 	0.4568	0.5609	0.2858	0.003
Mof_H 	H 	0.4795	0.5564	0.2576	0.069
Mof_C 	C 	0.4168	0.6243	0.2748	-0.054
Mof_C 	C 	0.3837	0.6306	0.3177	-0.023
Mof_H 	H 	0.3572	0.6746	0.3106	0.062
Mof_C 	C 	0.3886	0.574	0.3705	-0.004
Mof_C 	C 	0.4289	0.5107	0.38	-0.025
Mof_H 	H 	0.4334	0.4713	0.4152	0.064
_end
