data_functionalizedCrystal
_audit_creation_method	'EQeq! by Chris Wilmer'
_symmetry_space_group_name_H-M	'P1'
_symmetry_Int_Tables_number	1
_symmetry_cell_setting	triclinic
loop_
_symmetry_equiv_pos_as_xyz
  x,y,z
_cell_length_a	15.7166
_cell_length_b	15.7166
_cell_length_c	32.137
_cell_angle_alpha	90
_cell_angle_beta	90
_cell_angle_gamma	90
loop_
_atom_site_label
_atom_site_type_symbol
_atom_site_fract_x
_atom_site_fract_y
_atom_site_fract_z
_atom_site_charge
Mof_Cd	Cd	0.27199	0.72829	0.07957	0.514
Mof_O 	O 	0.3094	0.5865	0.1095	-0.253
Mof_O 	O 	0.194	0.6503	0.1289	-0.276
Mof_O 	O 	0.2594	0.3404	0.2892	-0.237
Mof_O 	O 	0.1313	0.3038	0.2663	-0.235
Mof_O 	O 	0.7221	0.6485	0.1336	-0.245
Mof_O 	O 	0.8428	0.7015	0.1112	-0.249
Mof_O 	O 	0.6954	0.3907	0.9579	-0.256
Mof_O 	O 	0.8256	0.3517	0.9698	-0.25
Mof_C 	C 	0.246	0.5967	0.1306	0.337
Mof_C 	C 	0.1969	0.345	0.2631	0.279
Mof_C 	C 	0.2298	0.5174	0.1624	-0.058
Mof_C 	C 	0.1503	0.484	0.1693	0.041
Mof_C 	C 	0.1391	0.4286	0.2026	-0.063
Mof_H 	H 	0.0854	0.406	0.2077	0.073
Mof_C 	C 	0.2062	0.4064	0.2284	-0.02
Mof_C 	C 	0.2884	0.4381	0.2201	-0.041
Mof_H 	H 	0.3347	0.4235	0.2366	0.076
Mof_C 	C 	0.2978	0.4929	0.1857	-0.005
Mof_H 	H 	0.3517	0.5127	0.1787	0.061
Mof_C 	C 	0.7842	0.6502	0.1102	0.307
Mof_C 	C 	0.7621	0.3972	0.9765	0.305
Mof_C 	C 	0.7813	0.5808	0.076	-0.059
Mof_C 	C 	0.8508	0.5252	0.0684	0.039
Mof_C 	C 	0.8439	0.4708	0.035	-0.06
Mof_H 	H 	0.8902	0.4367	0.0281	0.072
Mof_C 	C 	0.7669	0.4644	0.0099	-0.027
Mof_C 	C 	0.701	0.5168	0.0192	-0.035
Mof_H 	H 	0.6512	0.5152	0.0036	0.07
Mof_C 	C 	0.7088	0.5728	0.0524	-0.005
Mof_H 	H 	0.6624	0.607	0.059	0.06
Mof_C 	C 	0.0753	0.5028	0.1433	0.025
Mof_C 	C 	0.0814	0.505	0.1002	-0.043
Mof_H 	H 	0.1342	0.4999	0.0874	0.071
Mof_C 	C 	0.0085	0.5148	0.0759	-0.042
Mof_H 	H 	0.0142	0.5137	0.0471	0.06
Mof_C 	C 	0.9292	0.526	0.0923	0.022
Mof_C 	C 	0.923	0.5275	0.1374	-0.04
Mof_H 	H 	0.8704	0.5354	0.1501	0.07
Mof_C 	C 	0.9942	0.5173	0.1612	-0.043
Mof_H 	H 	0.9894	0.5199	0.19	0.061
Mof_Cd	Cd	0.72801	0.27171	0.57957	0.513
Mof_O 	O 	0.6906	0.4135	0.6095	-0.254
Mof_O 	O 	0.806	0.3497	0.6289	-0.276
Mof_O 	O 	0.7406	0.6596	0.7892	-0.237
Mof_O 	O 	0.8687	0.6962	0.7663	-0.235
Mof_O 	O 	0.2779	0.3515	0.6336	-0.245
Mof_O 	O 	0.1572	0.2985	0.6112	-0.249
Mof_O 	O 	0.3046	0.6093	0.4579	-0.256
Mof_O 	O 	0.1744	0.6483	0.4698	-0.25
Mof_C 	C 	0.754	0.4033	0.6306	0.337
Mof_C 	C 	0.8031	0.655	0.7631	0.279
Mof_C 	C 	0.7702	0.4826	0.6624	-0.058
Mof_C 	C 	0.8497	0.516	0.6693	0.041
Mof_C 	C 	0.8609	0.5714	0.7026	-0.063
Mof_H 	H 	0.9146	0.594	0.7077	0.073
Mof_C 	C 	0.7938	0.5936	0.7284	-0.02
Mof_C 	C 	0.7116	0.5619	0.7201	-0.041
Mof_H 	H 	0.6653	0.5765	0.7366	0.076
Mof_C 	C 	0.7022	0.5071	0.6857	-0.005
Mof_H 	H 	0.6483	0.4873	0.6787	0.061
Mof_C 	C 	0.2158	0.3498	0.6102	0.307
Mof_C 	C 	0.2379	0.6028	0.4765	0.305
Mof_C 	C 	0.2187	0.4192	0.576	-0.059
Mof_C 	C 	0.1492	0.4748	0.5684	0.039
Mof_C 	C 	0.1561	0.5292	0.535	-0.06
Mof_H 	H 	0.1098	0.5633	0.5281	0.072
Mof_C 	C 	0.2331	0.5356	0.5099	-0.027
Mof_C 	C 	0.299	0.4832	0.5192	-0.035
Mof_H 	H 	0.3488	0.4848	0.5036	0.07
Mof_C 	C 	0.2912	0.4272	0.5524	-0.005
Mof_H 	H 	0.3376	0.393	0.559	0.06
Mof_C 	C 	0.9247	0.4972	0.6433	0.025
Mof_C 	C 	0.9186	0.495	0.6002	-0.043
Mof_H 	H 	0.8658	0.5001	0.5874	0.071
Mof_C 	C 	0.9915	0.4852	0.5759	-0.042
Mof_H 	H 	0.9858	0.4863	0.5471	0.06
Mof_C 	C 	0.0708	0.474	0.5923	0.023
Mof_C 	C 	0.077	0.4725	0.6374	-0.04
Mof_H 	H 	0.1296	0.4646	0.6501	0.07
Mof_C 	C 	0.0058	0.4827	0.6612	-0.043
Mof_H 	H 	0.0106	0.4801	0.69	0.061
Mof_Cd	Cd	0.77171	0.77199	0.82957	0.513
Mof_O 	O 	0.9135	0.8094	0.8595	-0.254
Mof_O 	O 	0.8497	0.694	0.8789	-0.276
Mof_O 	O 	0.1596	0.7594	0.0392	-0.237
Mof_O 	O 	0.1962	0.6313	0.0163	-0.235
Mof_O 	O 	0.8515	0.2221	0.8836	-0.245
Mof_O 	O 	0.7985	0.3428	0.8612	-0.249
Mof_O 	O 	0.1093	0.1954	0.7079	-0.256
Mof_O 	O 	0.1483	0.3256	0.7198	-0.25
Mof_C 	C 	0.9033	0.746	0.8806	0.337
Mof_C 	C 	0.155	0.6969	0.0131	0.279
Mof_C 	C 	0.9826	0.7298	0.9124	-0.055
Mof_C 	C 	0.016	0.6503	0.9193	0.039
Mof_C 	C 	0.0714	0.6391	0.9526	-0.062
Mof_H 	H 	0.094	0.5854	0.9577	0.073
Mof_C 	C 	0.0936	0.7062	0.9784	-0.021
Mof_C 	C 	0.0619	0.7884	0.9701	-0.04
Mof_H 	H 	0.0765	0.8347	0.9866	0.075
Mof_C 	C 	0.0071	0.7978	0.9357	-0.008
Mof_H 	H 	0.9873	0.8517	0.9287	0.062
Mof_C 	C 	0.8498	0.2842	0.8602	0.307
Mof_C 	C 	0.1028	0.2621	0.7265	0.305
Mof_C 	C 	0.9192	0.2813	0.826	-0.06
Mof_C 	C 	0.9748	0.3508	0.8184	0.039
Mof_C 	C 	0.0292	0.3439	0.785	-0.06
Mof_H 	H 	0.0633	0.3902	0.7781	0.072
Mof_C 	C 	0.0356	0.2669	0.7599	-0.026
Mof_C 	C 	0.9832	0.201	0.7692	-0.035
Mof_H 	H 	0.9848	0.1512	0.7536	0.071
Mof_C 	C 	0.9272	0.2088	0.8024	-0.005
Mof_H 	H 	0.893	0.1624	0.809	0.06
Mof_C 	C 	0.9972	0.5753	0.8933	0.026
Mof_C 	C 	0.995	0.5814	0.8502	-0.043
Mof_H 	H 	0.0001	0.6342	0.8374	0.071
Mof_C 	C 	0.9852	0.5085	0.8259	-0.042
Mof_H 	H 	0.9863	0.5142	0.7971	0.06
Mof_C 	C 	0.974	0.4292	0.8423	0.022
Mof_C 	C 	0.9725	0.423	0.8874	-0.04
Mof_H 	H 	0.9646	0.3704	0.9001	0.07
Mof_C 	C 	0.9827	0.4942	0.9112	-0.043
Mof_H 	H 	0.9801	0.4894	0.94	0.061
Mof_Cd	Cd	0.22829	0.22801	0.32957	0.513
Mof_O 	O 	0.0865	0.1906	0.3595	-0.254
Mof_O 	O 	0.1503	0.306	0.3789	-0.276
Mof_O 	O 	0.8404	0.2406	0.5392	-0.237
Mof_O 	O 	0.8038	0.3687	0.5163	-0.235
Mof_O 	O 	0.1485	0.7779	0.3836	-0.245
Mof_O 	O 	0.2015	0.6572	0.3612	-0.249
Mof_O 	O 	0.8907	0.8046	0.2079	-0.256
Mof_O 	O 	0.8517	0.6744	0.2198	-0.25
Mof_C 	C 	0.0967	0.254	0.3806	0.337
Mof_C 	C 	0.845	0.3031	0.5131	0.279
Mof_C 	C 	0.0174	0.2702	0.4124	-0.056
Mof_C 	C 	0.984	0.3497	0.4193	0.04
Mof_C 	C 	0.9286	0.3609	0.4526	-0.062
Mof_H 	H 	0.906	0.4146	0.4577	0.073
Mof_C 	C 	0.9064	0.2938	0.4784	-0.021
Mof_C 	C 	0.9381	0.2116	0.4701	-0.04
Mof_H 	H 	0.9235	0.1653	0.4866	0.075
Mof_C 	C 	0.9929	0.2022	0.4357	-0.008
Mof_H 	H 	0.0127	0.1483	0.4287	0.062
Mof_C 	C 	0.1502	0.7158	0.3602	0.307
Mof_C 	C 	0.8972	0.7379	0.2265	0.305
Mof_C 	C 	0.0808	0.7187	0.326	-0.06
Mof_C 	C 	0.0252	0.6492	0.3184	0.039
Mof_C 	C 	0.9708	0.6561	0.285	-0.06
Mof_H 	H 	0.9367	0.6098	0.2781	0.072
Mof_C 	C 	0.9644	0.7331	0.2599	-0.026
Mof_C 	C 	0.0168	0.799	0.2692	-0.035
Mof_H 	H 	0.0152	0.8488	0.2536	0.071
Mof_C 	C 	0.0728	0.7912	0.3024	-0.005
Mof_H 	H 	0.107	0.8376	0.309	0.06
Mof_C 	C 	0.0028	0.4247	0.3933	0.026
Mof_C 	C 	0.005	0.4186	0.3502	-0.043
Mof_H 	H 	0.9999	0.3658	0.3374	0.071
Mof_C 	C 	0.0148	0.4915	0.3259	-0.042
Mof_H 	H 	0.0137	0.4858	0.2971	0.06
Mof_C 	C 	0.026	0.5708	0.3423	0.022
Mof_C 	C 	0.0275	0.577	0.3874	-0.04
Mof_H 	H 	0.0354	0.6296	0.4001	0.07
Mof_C 	C 	0.0173	0.5058	0.4112	-0.043
Mof_H 	H 	0.0199	0.5106	0.44	0.061
Mof_Cd	Cd	0.22801	0.22829	0.67043	0.513
Mof_O 	O 	0.1906	0.0865	0.6405	-0.254
Mof_O 	O 	0.306	0.1503	0.6211	-0.276
Mof_O 	O 	0.2406	0.8404	0.4608	-0.237
Mof_O 	O 	0.3687	0.8038	0.4837	-0.235
Mof_O 	O 	0.7779	0.1485	0.6164	-0.245
Mof_O 	O 	0.6572	0.2015	0.6388	-0.249
Mof_O 	O 	0.8046	0.8907	0.7921	-0.256
Mof_O 	O 	0.6744	0.8517	0.7802	-0.25
Mof_C 	C 	0.254	0.0967	0.6194	0.337
Mof_C 	C 	0.3031	0.845	0.4869	0.279
Mof_C 	C 	0.2702	0.0174	0.5876	-0.056
Mof_C 	C 	0.3497	0.984	0.5807	0.04
Mof_C 	C 	0.3609	0.9286	0.5474	-0.062
Mof_H 	H 	0.4146	0.906	0.5423	0.073
Mof_C 	C 	0.2938	0.9064	0.5216	-0.021
Mof_C 	C 	0.2116	0.9381	0.5299	-0.04
Mof_H 	H 	0.1653	0.9235	0.5134	0.075
Mof_C 	C 	0.2022	0.9929	0.5643	-0.008
Mof_H 	H 	0.1483	0.0127	0.5713	0.062
Mof_C 	C 	0.7158	0.1502	0.6398	0.307
Mof_C 	C 	0.7379	0.8972	0.7735	0.305
Mof_C 	C 	0.7187	0.0808	0.674	-0.06
Mof_C 	C 	0.6492	0.0252	0.6816	0.039
Mof_C 	C 	0.6561	0.9708	0.715	-0.06
Mof_H 	H 	0.6098	0.9367	0.7219	0.072
Mof_C 	C 	0.7331	0.9644	0.7401	-0.026
Mof_C 	C 	0.799	0.0168	0.7308	-0.035
Mof_H 	H 	0.8488	0.0152	0.7464	0.071
Mof_C 	C 	0.7912	0.0728	0.6976	-0.005
Mof_H 	H 	0.8376	0.107	0.691	0.06
Mof_C 	C 	0.4247	0.0028	0.6067	0.026
Mof_C 	C 	0.4186	0.005	0.6498	-0.043
Mof_H 	H 	0.3658	0.9999	0.6626	0.071
Mof_C 	C 	0.4915	0.0148	0.6741	-0.042
Mof_H 	H 	0.4858	0.0137	0.7029	0.06
Mof_C 	C 	0.5708	0.026	0.6577	0.022
Mof_C 	C 	0.577	0.0275	0.6126	-0.04
Mof_H 	H 	0.6296	0.0354	0.5999	0.07
Mof_C 	C 	0.5058	0.0173	0.5888	-0.043
Mof_H 	H 	0.5106	0.0199	0.56	0.061
Mof_Cd	Cd	0.77199	0.77171	0.17043	0.513
Mof_O 	O 	0.8094	0.9135	0.1405	-0.254
Mof_O 	O 	0.694	0.8497	0.1211	-0.276
Mof_O 	O 	0.7594	0.1596	0.9608	-0.237
Mof_O 	O 	0.6313	0.1962	0.9837	-0.235
Mof_O 	O 	0.2221	0.8515	0.1164	-0.245
Mof_O 	O 	0.3428	0.7985	0.1388	-0.249
Mof_O 	O 	0.1954	0.1093	0.2921	-0.256
Mof_O 	O 	0.3256	0.1483	0.2802	-0.25
Mof_C 	C 	0.746	0.9033	0.1194	0.337
Mof_C 	C 	0.6969	0.155	0.9869	0.279
Mof_C 	C 	0.7298	0.9826	0.0876	-0.055
Mof_C 	C 	0.6503	0.016	0.0807	0.039
Mof_C 	C 	0.6391	0.0714	0.0474	-0.062
Mof_H 	H 	0.5854	0.094	0.0423	0.073
Mof_C 	C 	0.7062	0.0936	0.0216	-0.021
Mof_C 	C 	0.7884	0.0619	0.0299	-0.04
Mof_H 	H 	0.8347	0.0765	0.0134	0.075
Mof_C 	C 	0.7978	0.0071	0.0643	-0.008
Mof_H 	H 	0.8517	0.9873	0.0713	0.062
Mof_C 	C 	0.2842	0.8498	0.1398	0.307
Mof_C 	C 	0.2621	0.1028	0.2735	0.305
Mof_C 	C 	0.2813	0.9192	0.174	-0.06
Mof_C 	C 	0.3508	0.9748	0.1816	0.039
Mof_C 	C 	0.3439	0.0292	0.215	-0.06
Mof_H 	H 	0.3902	0.0633	0.2219	0.072
Mof_C 	C 	0.2669	0.0356	0.2401	-0.026
Mof_C 	C 	0.201	0.9832	0.2308	-0.035
Mof_H 	H 	0.1512	0.9848	0.2464	0.071
Mof_C 	C 	0.2088	0.9272	0.1976	-0.005
Mof_H 	H 	0.1624	0.893	0.191	0.06
Mof_C 	C 	0.5753	0.9972	0.1067	0.026
Mof_C 	C 	0.5814	0.995	0.1498	-0.043
Mof_H 	H 	0.6342	0.0001	0.1626	0.071
Mof_C 	C 	0.5085	0.9852	0.1741	-0.042
Mof_H 	H 	0.5142	0.9863	0.2029	0.06
Mof_C 	C 	0.4292	0.974	0.1577	0.022
Mof_C 	C 	0.423	0.9725	0.1126	-0.04
Mof_H 	H 	0.3704	0.9646	0.0999	0.07
Mof_C 	C 	0.4942	0.9827	0.0888	-0.043
Mof_H 	H 	0.4894	0.9801	0.06	0.061
Mof_Cd	Cd	0.72829	0.27199	0.92043	0.513
Mof_O 	O 	0.5865	0.3094	0.8905	-0.254
Mof_O 	O 	0.6503	0.194	0.8711	-0.276
Mof_O 	O 	0.3404	0.2594	0.7108	-0.237
Mof_O 	O 	0.3038	0.1313	0.7337	-0.235
Mof_O 	O 	0.6485	0.7221	0.8664	-0.245
Mof_O 	O 	0.7015	0.8428	0.8888	-0.249
Mof_O 	O 	0.3907	0.6954	0.0421	-0.256
Mof_O 	O 	0.3517	0.8256	0.0302	-0.25
Mof_C 	C 	0.5967	0.246	0.8694	0.337
Mof_C 	C 	0.345	0.1969	0.7369	0.279
Mof_C 	C 	0.5174	0.2298	0.8376	-0.058
Mof_C 	C 	0.484	0.1503	0.8307	0.041
Mof_C 	C 	0.4286	0.1391	0.7974	-0.063
Mof_H 	H 	0.406	0.0854	0.7923	0.073
Mof_C 	C 	0.4064	0.2062	0.7716	-0.02
Mof_C 	C 	0.4381	0.2884	0.7799	-0.041
Mof_H 	H 	0.4235	0.3347	0.7634	0.076
Mof_C 	C 	0.4929	0.2978	0.8143	-0.005
Mof_H 	H 	0.5127	0.3517	0.8213	0.061
Mof_C 	C 	0.6502	0.7842	0.8898	0.307
Mof_C 	C 	0.3972	0.7621	0.0235	0.305
Mof_C 	C 	0.5808	0.7813	0.924	-0.059
Mof_C 	C 	0.5252	0.8508	0.9316	0.039
Mof_C 	C 	0.4708	0.8439	0.965	-0.06
Mof_H 	H 	0.4367	0.8902	0.9719	0.072
Mof_C 	C 	0.4644	0.7669	0.9901	-0.027
Mof_C 	C 	0.5168	0.701	0.9808	-0.035
Mof_H 	H 	0.5152	0.6512	0.9964	0.07
Mof_C 	C 	0.5728	0.7088	0.9476	-0.005
Mof_H 	H 	0.607	0.6624	0.941	0.06
Mof_C 	C 	0.5028	0.0753	0.8567	0.025
Mof_C 	C 	0.505	0.0814	0.8998	-0.043
Mof_H 	H 	0.4999	0.1342	0.9126	0.071
Mof_C 	C 	0.5148	0.0085	0.9241	-0.042
Mof_H 	H 	0.5137	0.0142	0.9529	0.06
Mof_C 	C 	0.526	0.9292	0.9077	0.022
Mof_C 	C 	0.5275	0.923	0.8626	-0.04
Mof_H 	H 	0.5354	0.8704	0.8499	0.07
Mof_C 	C 	0.5173	0.9942	0.8388	-0.043
Mof_H 	H 	0.5199	0.9894	0.81	0.061
Mof_Cd	Cd	0.27171	0.72801	0.42043	0.513
Mof_O 	O 	0.4135	0.6906	0.3905	-0.254
Mof_O 	O 	0.3497	0.806	0.3711	-0.276
Mof_O 	O 	0.6596	0.7406	0.2108	-0.237
Mof_O 	O 	0.6962	0.8687	0.2337	-0.235
Mof_O 	O 	0.3515	0.2779	0.3664	-0.245
Mof_O 	O 	0.2985	0.1572	0.3888	-0.249
Mof_O 	O 	0.6093	0.3046	0.5421	-0.256
Mof_O 	O 	0.6483	0.1744	0.5302	-0.25
Mof_C 	C 	0.4033	0.754	0.3694	0.337
Mof_C 	C 	0.655	0.8031	0.2369	0.279
Mof_C 	C 	0.4826	0.7702	0.3376	-0.058
Mof_C 	C 	0.516	0.8497	0.3307	0.041
Mof_C 	C 	0.5714	0.8609	0.2974	-0.063
Mof_H 	H 	0.594	0.9146	0.2923	0.073
Mof_C 	C 	0.5936	0.7938	0.2716	-0.02
Mof_C 	C 	0.5619	0.7116	0.2799	-0.041
Mof_H 	H 	0.5765	0.6653	0.2634	0.076
Mof_C 	C 	0.5071	0.7022	0.3143	-0.005
Mof_H 	H 	0.4873	0.6483	0.3213	0.061
Mof_C 	C 	0.3498	0.2158	0.3898	0.307
Mof_C 	C 	0.6028	0.2379	0.5235	0.305
Mof_C 	C 	0.4192	0.2187	0.424	-0.059
Mof_C 	C 	0.4748	0.1492	0.4316	0.039
Mof_C 	C 	0.5292	0.1561	0.465	-0.06
Mof_H 	H 	0.5633	0.1098	0.4719	0.072
Mof_C 	C 	0.5356	0.2331	0.4901	-0.027
Mof_C 	C 	0.4832	0.299	0.4808	-0.035
Mof_H 	H 	0.4848	0.3488	0.4964	0.07
Mof_C 	C 	0.4272	0.2912	0.4476	-0.005
Mof_H 	H 	0.393	0.3376	0.441	0.06
Mof_C 	C 	0.4972	0.9247	0.3567	0.025
Mof_C 	C 	0.495	0.9186	0.3998	-0.043
Mof_H 	H 	0.5001	0.8658	0.4126	0.071
Mof_C 	C 	0.4852	0.9915	0.4241	-0.042
Mof_H 	H 	0.4863	0.9858	0.4529	0.06
Mof_C 	C 	0.474	0.0708	0.4077	0.023
Mof_C 	C 	0.4725	0.077	0.3626	-0.04
Mof_H 	H 	0.4646	0.1296	0.3499	0.07
Mof_C 	C 	0.4827	0.0058	0.3388	-0.043
Mof_H 	H 	0.4801	0.0106	0.31	0.061
_end
