data_functionalizedCrystal
_audit_creation_method	'EQeq! by Chris Wilmer'
_symmetry_space_group_name_H-M	'P1'
_symmetry_Int_Tables_number	1
_symmetry_cell_setting	triclinic
loop_
_symmetry_equiv_pos_as_xyz
  x,y,z
_cell_length_a	22.072
_cell_length_b	22.072
_cell_length_c	22.072
_cell_angle_alpha	90
_cell_angle_beta	90
_cell_angle_gamma	90
loop_
_atom_site_label
_atom_site_type_symbol
_atom_site_fract_x
_atom_site_fract_y
_atom_site_fract_z
_atom_site_charge
Mof_Zn	Zn	0.59254	0.90746	0.59254	1.201
Mof_Zn	Zn	0.90746	0.59254	0.59254	1.201
Mof_Zn	Zn	0.90746	0.90746	0.90746	1.203
Mof_Zn	Zn	0.59254	0.59254	0.90746	1.201
Mof_Zn	Zn	0.40746	0.09254	0.40746	1.199
Mof_Zn	Zn	0.09254	0.40746	0.40746	1.199
Mof_Zn	Zn	0.09254	0.09254	0.09254	1.197
Mof_Zn	Zn	0.40746	0.40746	0.09254	1.199
Mof_Zn	Zn	0.5	0	0.5	1.237
Mof_Zn	Zn	1.12651e-32	0.5	0.5	1.237
Mof_Zn	Zn	-0	0	-0	1.222
Mof_Zn	Zn	0.5	0.5	-0	1.237
Mof_H 	H 	0.5356	0.7475	0.5035	0.109
Mof_H 	H 	0.4461	0.6938	0.3545	0.112
Mof_H 	H 	0.4381	0.7939	0.3256	-0.003
Mof_H 	H 	0.481	0.8695	0.3815	0.089
Mof_H 	H 	0.4298	0.6092	0.4201	0.04
Mof_H 	H 	0.4899	0.5982	0.3828	0.042
Mof_H 	H 	0.9644	0.7525	0.5035	0.098
Mof_H 	H 	0.0539	0.8062	0.3545	0.102
Mof_H 	H 	0.0619	0.7061	0.3256	-0.001
Mof_H 	H 	0.019	0.6305	0.3815	0.085
Mof_H 	H 	0.0702	0.8908	0.4201	0.042
Mof_H 	H 	0.0101	0.9018	0.3828	0.039
Mof_H 	H 	0.9644	0.7475	0.9965	0.137
Mof_H 	H 	0.0539	0.6938	0.1455	0.112
Mof_H 	H 	0.0619	0.7939	0.1744	-0.013
Mof_H 	H 	0.019	0.8695	0.1185	0.101
Mof_H 	H 	0.0702	0.6092	0.0799	0.031
Mof_H 	H 	0.0101	0.5982	0.1172	0.03
Mof_H 	H 	0.5356	0.7525	0.9965	0.153
Mof_H 	H 	0.4461	0.8062	0.1455	0.127
Mof_H 	H 	0.4381	0.7061	0.1744	-0.017
Mof_H 	H 	0.481	0.6305	0.1185	0.1
Mof_H 	H 	0.4298	0.8908	0.0799	0.025
Mof_H 	H 	0.4899	0.9018	0.1172	0.033
Mof_H 	H 	0.5035	0.5356	0.7475	0.11
Mof_H 	H 	0.3545	0.4461	0.6938	0.113
Mof_H 	H 	0.3256	0.4381	0.7939	-0.002
Mof_H 	H 	0.3815	0.481	0.8695	0.09
Mof_H 	H 	0.4201	0.4298	0.6092	0.04
Mof_H 	H 	0.3828	0.4899	0.5982	0.042
Mof_H 	H 	0.5035	0.9644	0.7525	0.098
Mof_H 	H 	0.3545	0.0539	0.8062	0.102
Mof_H 	H 	0.3256	0.0619	0.7061	-0.001
Mof_H 	H 	0.3815	0.019	0.6305	0.085
Mof_H 	H 	0.4201	0.0702	0.8908	0.042
Mof_H 	H 	0.3828	0.0101	0.9018	0.039
Mof_H 	H 	0.9965	0.9644	0.7475	0.137
Mof_H 	H 	0.1455	0.0539	0.6938	0.112
Mof_H 	H 	0.1744	0.0619	0.7939	-0.013
Mof_H 	H 	0.1185	0.019	0.8695	0.101
Mof_H 	H 	0.0799	0.0702	0.6092	0.031
Mof_H 	H 	0.1172	0.0101	0.5982	0.03
Mof_H 	H 	0.9965	0.5356	0.7525	0.153
Mof_H 	H 	0.1455	0.4461	0.8062	0.127
Mof_H 	H 	0.1744	0.4381	0.7061	-0.017
Mof_H 	H 	0.1185	0.481	0.6305	0.1
Mof_H 	H 	0.0799	0.4298	0.8908	0.025
Mof_H 	H 	0.1172	0.4899	0.9018	0.033
Mof_H 	H 	0.7475	0.5035	0.5356	0.11
Mof_H 	H 	0.6938	0.3545	0.4461	0.113
Mof_H 	H 	0.7939	0.3256	0.4381	-0.002
Mof_H 	H 	0.8695	0.3815	0.481	0.09
Mof_H 	H 	0.6092	0.4201	0.4298	0.04
Mof_H 	H 	0.5982	0.3828	0.4899	0.042
Mof_H 	H 	0.7525	0.5035	0.9644	0.098
Mof_H 	H 	0.8062	0.3545	0.0539	0.102
Mof_H 	H 	0.7061	0.3256	0.0619	-0.001
Mof_H 	H 	0.6305	0.3815	0.019	0.085
Mof_H 	H 	0.8908	0.4201	0.0702	0.042
Mof_H 	H 	0.9018	0.3828	0.0101	0.039
Mof_H 	H 	0.7475	0.9965	0.9644	0.137
Mof_H 	H 	0.6938	0.1455	0.0539	0.112
Mof_H 	H 	0.7939	0.1744	0.0619	-0.013
Mof_H 	H 	0.8695	0.1185	0.019	0.101
Mof_H 	H 	0.6092	0.0799	0.0702	0.031
Mof_H 	H 	0.5982	0.1172	0.0101	0.03
Mof_H 	H 	0.7525	0.9965	0.5356	0.153
Mof_H 	H 	0.8062	0.1455	0.4461	0.127
Mof_H 	H 	0.7061	0.1744	0.4381	-0.017
Mof_H 	H 	0.6305	0.1185	0.481	0.1
Mof_H 	H 	0.8908	0.0799	0.4298	0.025
Mof_H 	H 	0.9018	0.1172	0.4899	0.033
Mof_H 	H 	0.4644	0.2525	0.4965	0.107
Mof_H 	H 	0.5539	0.3062	0.6455	0.111
Mof_H 	H 	0.5619	0.2061	0.6744	-0.002
Mof_H 	H 	0.519	0.1305	0.6185	0.082
Mof_H 	H 	0.5702	0.3908	0.5799	0.041
Mof_H 	H 	0.5101	0.4018	0.6172	0.042
Mof_H 	H 	0.0356	0.2475	0.4965	0.12
Mof_H 	H 	0.9461	0.1938	0.6455	0.124
Mof_H 	H 	0.9381	0.2939	0.6744	-0.004
Mof_H 	H 	0.981	0.3695	0.6185	0.087
Mof_H 	H 	0.9298	0.1092	0.5799	0.039
Mof_H 	H 	0.9899	0.0982	0.6172	0.046
Mof_H 	H 	0.0356	0.2525	0.0035	0.071
Mof_H 	H 	0.9461	0.3062	0.8545	0.109
Mof_H 	H 	0.9381	0.2061	0.8256	0.012
Mof_H 	H 	0.981	0.1305	0.8815	0.069
Mof_H 	H 	0.9298	0.3908	0.9201	0.05
Mof_H 	H 	0.9899	0.4018	0.8828	0.054
Mof_H 	H 	0.4644	0.2475	0.0035	0.061
Mof_H 	H 	0.5539	0.1938	0.8545	0.097
Mof_H 	H 	0.5619	0.2939	0.8256	0.014
Mof_H 	H 	0.519	0.3695	0.8815	0.07
Mof_H 	H 	0.5702	0.1092	0.9201	0.056
Mof_H 	H 	0.5101	0.0982	0.8828	0.052
Mof_H 	H 	0.4965	0.4644	0.2525	0.107
Mof_H 	H 	0.6455	0.5539	0.3062	0.111
Mof_H 	H 	0.6744	0.5619	0.2061	-0.002
Mof_H 	H 	0.6185	0.519	0.1305	0.082
Mof_H 	H 	0.5799	0.5702	0.3908	0.041
Mof_H 	H 	0.6172	0.5101	0.4018	0.042
Mof_H 	H 	0.4965	0.0356	0.2475	0.12
Mof_H 	H 	0.6455	0.9461	0.1938	0.124
Mof_H 	H 	0.6744	0.9381	0.2939	-0.004
Mof_H 	H 	0.6185	0.981	0.3695	0.087
Mof_H 	H 	0.5799	0.9298	0.1092	0.039
Mof_H 	H 	0.6172	0.9899	0.0982	0.046
Mof_H 	H 	0.0035	0.0356	0.2525	0.071
Mof_H 	H 	0.8545	0.9461	0.3062	0.109
Mof_H 	H 	0.8256	0.9381	0.2061	0.012
Mof_H 	H 	0.8815	0.981	0.1305	0.069
Mof_H 	H 	0.9201	0.9298	0.3908	0.05
Mof_H 	H 	0.8828	0.9899	0.4018	0.054
Mof_H 	H 	0.0035	0.4644	0.2475	0.061
Mof_H 	H 	0.8545	0.5539	0.1938	0.097
Mof_H 	H 	0.8256	0.5619	0.2939	0.014
Mof_H 	H 	0.8815	0.519	0.3695	0.07
Mof_H 	H 	0.9201	0.5702	0.1092	0.056
Mof_H 	H 	0.8828	0.5101	0.0982	0.052
Mof_H 	H 	0.2525	0.4965	0.4644	0.107
Mof_H 	H 	0.3062	0.6455	0.5539	0.111
Mof_H 	H 	0.2061	0.6744	0.5619	-0.002
Mof_H 	H 	0.1305	0.6185	0.519	0.082
Mof_H 	H 	0.3908	0.5799	0.5702	0.041
Mof_H 	H 	0.4018	0.6172	0.5101	0.042
Mof_H 	H 	0.2475	0.4965	0.0356	0.12
Mof_H 	H 	0.1938	0.6455	0.9461	0.124
Mof_H 	H 	0.2939	0.6744	0.9381	-0.004
Mof_H 	H 	0.3695	0.6185	0.981	0.087
Mof_H 	H 	0.1092	0.5799	0.9298	0.039
Mof_H 	H 	0.0982	0.6172	0.9899	0.046
Mof_H 	H 	0.2525	0.0035	0.0356	0.071
Mof_H 	H 	0.3062	0.8545	0.9461	0.109
Mof_H 	H 	0.2061	0.8256	0.9381	0.012
Mof_H 	H 	0.1305	0.8815	0.981	0.069
Mof_H 	H 	0.3908	0.9201	0.9298	0.05
Mof_H 	H 	0.4018	0.8828	0.9899	0.054
Mof_H 	H 	0.2475	0.0035	0.4644	0.061
Mof_H 	H 	0.1938	0.8545	0.5539	0.097
Mof_H 	H 	0.2939	0.8256	0.5619	0.014
Mof_H 	H 	0.3695	0.8815	0.519	0.07
Mof_H 	H 	0.1092	0.9201	0.5702	0.056
Mof_H 	H 	0.0982	0.8828	0.5101	0.052
Mof_C 	C 	0.51173	0.81511	0.44898	0.008
Mof_C 	C 	0.51652	0.75665	0.46709	-0.167
Mof_C 	C 	0.49283	0.70996	0.43111	0.23
Mof_C 	C 	0.463	0.7241	0.3783	-0.226
Mof_C 	C 	0.4586	0.7842	0.3612	0.096
Mof_C 	C 	0.4832	0.82951	0.3947	-0.119
Mof_C 	C 	0.53662	0.86454	0.48846	0.354
Mof_C 	C 	0.47326	0.60328	0.42321	0.005
Mof_C 	C 	0.48786	0.5492	0.46263	0.009
Mof_C 	C 	0.98827	0.68489	0.44898	0.016
Mof_C 	C 	0.98348	0.74335	0.46709	-0.122
Mof_C 	C 	0.00717	0.79004	0.43111	0.171
Mof_C 	C 	0.037	0.7759	0.3783	-0.2
Mof_C 	C 	0.0414	0.7158	0.3612	0.083
Mof_C 	C 	0.0168	0.67049	0.3947	-0.135
Mof_C 	C 	0.96338	0.63546	0.48846	0.356
Mof_C 	C 	0.02674	0.89672	0.42321	-0
Mof_C 	C 	0.01214	0.9508	0.46263	-0.048
Mof_C 	C 	0.98827	0.81511	0.05102	0.059
Mof_C 	C 	0.98348	0.75665	0.03291	-0.195
Mof_C 	C 	0.00717	0.70996	0.06889	0.203
Mof_C 	C 	0.037	0.7241	0.1217	-0.235
Mof_C 	C 	0.0414	0.7842	0.1388	0.118
Mof_C 	C 	0.0168	0.82951	0.1053	-0.175
Mof_C 	C 	0.96338	0.86454	0.01154	0.314
Mof_C 	C 	0.02674	0.60328	0.07679	0.015
Mof_C 	C 	0.01214	0.5492	0.03737	-0.073
Mof_C 	C 	0.51173	0.68489	0.05102	0.052
Mof_C 	C 	0.51652	0.74335	0.03291	-0.247
Mof_C 	C 	0.49283	0.79004	0.06889	0.27
Mof_C 	C 	0.463	0.7759	0.1217	-0.266
Mof_C 	C 	0.4586	0.7158	0.1388	0.134
Mof_C 	C 	0.4832	0.67049	0.1053	-0.16
Mof_C 	C 	0.53662	0.63546	0.01154	0.312
Mof_C 	C 	0.47326	0.89672	0.07679	0.043
Mof_C 	C 	0.48786	0.9508	0.03737	-0.052
Mof_C 	C 	0.44898	0.51173	0.81511	0.008
Mof_C 	C 	0.46709	0.51652	0.75665	-0.167
Mof_C 	C 	0.43111	0.49283	0.70996	0.23
Mof_C 	C 	0.3783	0.463	0.7241	-0.226
Mof_C 	C 	0.3612	0.4586	0.7842	0.096
Mof_C 	C 	0.3947	0.4832	0.82951	-0.119
Mof_C 	C 	0.48846	0.53662	0.86454	0.354
Mof_C 	C 	0.42321	0.47326	0.60328	0.005
Mof_C 	C 	0.46263	0.48786	0.5492	0.009
Mof_C 	C 	0.44898	0.98827	0.68489	0.016
Mof_C 	C 	0.46709	0.98348	0.74335	-0.122
Mof_C 	C 	0.43111	0.00717	0.79004	0.171
Mof_C 	C 	0.3783	0.037	0.7759	-0.2
Mof_C 	C 	0.3612	0.0414	0.7158	0.083
Mof_C 	C 	0.3947	0.0168	0.67049	-0.135
Mof_C 	C 	0.48846	0.96338	0.63546	0.356
Mof_C 	C 	0.42321	0.02674	0.89672	-0
Mof_C 	C 	0.46263	0.01214	0.9508	-0.048
Mof_C 	C 	0.05102	0.98827	0.81511	0.059
Mof_C 	C 	0.03291	0.98348	0.75665	-0.195
Mof_C 	C 	0.06889	0.00717	0.70996	0.203
Mof_C 	C 	0.1217	0.037	0.7241	-0.235
Mof_C 	C 	0.1388	0.0414	0.7842	0.118
Mof_C 	C 	0.1053	0.0168	0.82951	-0.175
Mof_C 	C 	0.01154	0.96338	0.86454	0.314
Mof_C 	C 	0.07679	0.02674	0.60328	0.015
Mof_C 	C 	0.03737	0.01214	0.5492	-0.073
Mof_C 	C 	0.05102	0.51173	0.68489	0.052
Mof_C 	C 	0.03291	0.51652	0.74335	-0.247
Mof_C 	C 	0.06889	0.49283	0.79004	0.27
Mof_C 	C 	0.1217	0.463	0.7759	-0.266
Mof_C 	C 	0.1388	0.4586	0.7158	0.134
Mof_C 	C 	0.1053	0.4832	0.67049	-0.16
Mof_C 	C 	0.01154	0.53662	0.63546	0.312
Mof_C 	C 	0.07679	0.47326	0.89672	0.043
Mof_C 	C 	0.03737	0.48786	0.9508	-0.052
Mof_C 	C 	0.81511	0.44898	0.51173	0.008
Mof_C 	C 	0.75665	0.46709	0.51652	-0.167
Mof_C 	C 	0.70996	0.43111	0.49283	0.23
Mof_C 	C 	0.7241	0.3783	0.463	-0.226
Mof_C 	C 	0.7842	0.3612	0.4586	0.096
Mof_C 	C 	0.82951	0.3947	0.4832	-0.119
Mof_C 	C 	0.86454	0.48846	0.53662	0.354
Mof_C 	C 	0.60328	0.42321	0.47326	0.005
Mof_C 	C 	0.5492	0.46263	0.48786	0.009
Mof_C 	C 	0.68489	0.44898	0.98827	0.016
Mof_C 	C 	0.74335	0.46709	0.98348	-0.122
Mof_C 	C 	0.79004	0.43111	0.00717	0.171
Mof_C 	C 	0.7759	0.3783	0.037	-0.2
Mof_C 	C 	0.7158	0.3612	0.0414	0.083
Mof_C 	C 	0.67049	0.3947	0.0168	-0.135
Mof_C 	C 	0.63546	0.48846	0.96338	0.356
Mof_C 	C 	0.89672	0.42321	0.02674	-0
Mof_C 	C 	0.9508	0.46263	0.01214	-0.048
Mof_C 	C 	0.81511	0.05102	0.98827	0.059
Mof_C 	C 	0.75665	0.03291	0.98348	-0.195
Mof_C 	C 	0.70996	0.06889	0.00717	0.203
Mof_C 	C 	0.7241	0.1217	0.037	-0.235
Mof_C 	C 	0.7842	0.1388	0.0414	0.118
Mof_C 	C 	0.82951	0.1053	0.0168	-0.175
Mof_C 	C 	0.86454	0.01154	0.96338	0.314
Mof_C 	C 	0.60328	0.07679	0.02674	0.015
Mof_C 	C 	0.5492	0.03737	0.01214	-0.073
Mof_C 	C 	0.68489	0.05102	0.51173	0.052
Mof_C 	C 	0.74335	0.03291	0.51652	-0.247
Mof_C 	C 	0.79004	0.06889	0.49283	0.27
Mof_C 	C 	0.7759	0.1217	0.463	-0.266
Mof_C 	C 	0.7158	0.1388	0.4586	0.134
Mof_C 	C 	0.67049	0.1053	0.4832	-0.16
Mof_C 	C 	0.63546	0.01154	0.53662	0.312
Mof_C 	C 	0.89672	0.07679	0.47326	0.043
Mof_C 	C 	0.9508	0.03737	0.48786	-0.052
Mof_C 	C 	0.48827	0.18489	0.55102	0.001
Mof_C 	C 	0.48348	0.24335	0.53291	-0.163
Mof_C 	C 	0.50717	0.29004	0.56889	0.226
Mof_C 	C 	0.537	0.2759	0.6217	-0.223
Mof_C 	C 	0.5414	0.2158	0.6388	0.09
Mof_C 	C 	0.5168	0.17049	0.6053	-0.113
Mof_C 	C 	0.46338	0.13546	0.51154	0.358
Mof_C 	C 	0.52674	0.39672	0.57679	0.004
Mof_C 	C 	0.51214	0.4508	0.53737	0.009
Mof_C 	C 	0.01173	0.31511	0.55102	-0.005
Mof_C 	C 	0.01652	0.25665	0.53291	-0.212
Mof_C 	C 	0.99283	0.20996	0.56889	0.29
Mof_C 	C 	0.963	0.2241	0.6217	-0.252
Mof_C 	C 	0.9586	0.2842	0.6388	0.105
Mof_C 	C 	0.9832	0.32951	0.6053	-0.098
Mof_C 	C 	0.03662	0.36454	0.51154	0.355
Mof_C 	C 	0.97326	0.10328	0.57679	0.01
Mof_C 	C 	0.98786	0.0492	0.53737	0.068
Mof_C 	C 	0.01173	0.18489	0.94898	-0.058
Mof_C 	C 	0.01652	0.24335	0.96709	-0.119
Mof_C 	C 	0.99283	0.29004	0.93111	0.242
Mof_C 	C 	0.963	0.2759	0.8783	-0.205
Mof_C 	C 	0.9586	0.2158	0.8612	0.06
Mof_C 	C 	0.9832	0.17049	0.8947	-0.049
Mof_C 	C 	0.03662	0.13546	0.98846	0.405
Mof_C 	C 	0.97326	0.39672	0.92321	-0.008
Mof_C 	C 	0.98786	0.4508	0.96263	0.086
Mof_C 	C 	0.48827	0.31511	0.94898	-0.045
Mof_C 	C 	0.48348	0.25665	0.96709	-0.078
Mof_C 	C 	0.50717	0.20996	0.93111	0.183
Mof_C 	C 	0.537	0.2241	0.8783	-0.18
Mof_C 	C 	0.5414	0.2842	0.8612	0.05
Mof_C 	C 	0.5168	0.32951	0.8947	-0.069
Mof_C 	C 	0.46338	0.36454	0.98846	0.403
Mof_C 	C 	0.52674	0.10328	0.92321	-0.036
Mof_C 	C 	0.51214	0.0492	0.96263	0.073
Mof_C 	C 	0.55102	0.48827	0.18489	0.001
Mof_C 	C 	0.53291	0.48348	0.24335	-0.163
Mof_C 	C 	0.56889	0.50717	0.29004	0.226
Mof_C 	C 	0.6217	0.537	0.2759	-0.223
Mof_C 	C 	0.6388	0.5414	0.2158	0.09
Mof_C 	C 	0.6053	0.5168	0.17049	-0.113
Mof_C 	C 	0.51154	0.46338	0.13546	0.358
Mof_C 	C 	0.57679	0.52674	0.39672	0.004
Mof_C 	C 	0.53737	0.51214	0.4508	0.009
Mof_C 	C 	0.55102	0.01173	0.31511	-0.005
Mof_C 	C 	0.53291	0.01652	0.25665	-0.212
Mof_C 	C 	0.56889	0.99283	0.20996	0.29
Mof_C 	C 	0.6217	0.963	0.2241	-0.252
Mof_C 	C 	0.6388	0.9586	0.2842	0.105
Mof_C 	C 	0.6053	0.9832	0.32951	-0.098
Mof_C 	C 	0.51154	0.03662	0.36454	0.355
Mof_C 	C 	0.57679	0.97326	0.10328	0.01
Mof_C 	C 	0.53737	0.98786	0.0492	0.068
Mof_C 	C 	0.94898	0.01173	0.18489	-0.058
Mof_C 	C 	0.96709	0.01652	0.24335	-0.119
Mof_C 	C 	0.93111	0.99283	0.29004	0.242
Mof_C 	C 	0.8783	0.963	0.2759	-0.205
Mof_C 	C 	0.8612	0.9586	0.2158	0.06
Mof_C 	C 	0.8947	0.9832	0.17049	-0.049
Mof_C 	C 	0.98846	0.03662	0.13546	0.405
Mof_C 	C 	0.92321	0.97326	0.39672	-0.008
Mof_C 	C 	0.96263	0.98786	0.4508	0.086
Mof_C 	C 	0.94898	0.48827	0.31511	-0.045
Mof_C 	C 	0.96709	0.48348	0.25665	-0.078
Mof_C 	C 	0.93111	0.50717	0.20996	0.183
Mof_C 	C 	0.8783	0.537	0.2241	-0.18
Mof_C 	C 	0.8612	0.5414	0.2842	0.05
Mof_C 	C 	0.8947	0.5168	0.32951	-0.069
Mof_C 	C 	0.98846	0.46338	0.36454	0.403
Mof_C 	C 	0.92321	0.52674	0.10328	-0.036
Mof_C 	C 	0.96263	0.51214	0.0492	0.073
Mof_C 	C 	0.18489	0.55102	0.48827	0.001
Mof_C 	C 	0.24335	0.53291	0.48348	-0.163
Mof_C 	C 	0.29004	0.56889	0.50717	0.226
Mof_C 	C 	0.2759	0.6217	0.537	-0.223
Mof_C 	C 	0.2158	0.6388	0.5414	0.09
Mof_C 	C 	0.17049	0.6053	0.5168	-0.113
Mof_C 	C 	0.13546	0.51154	0.46338	0.358
Mof_C 	C 	0.39672	0.57679	0.52674	0.004
Mof_C 	C 	0.4508	0.53737	0.51214	0.009
Mof_C 	C 	0.31511	0.55102	0.01173	-0.005
Mof_C 	C 	0.25665	0.53291	0.01652	-0.212
Mof_C 	C 	0.20996	0.56889	0.99283	0.29
Mof_C 	C 	0.2241	0.6217	0.963	-0.252
Mof_C 	C 	0.2842	0.6388	0.9586	0.105
Mof_C 	C 	0.32951	0.6053	0.9832	-0.098
Mof_C 	C 	0.36454	0.51154	0.03662	0.355
Mof_C 	C 	0.10328	0.57679	0.97326	0.01
Mof_C 	C 	0.0492	0.53737	0.98786	0.068
Mof_C 	C 	0.18489	0.94898	0.01173	-0.058
Mof_C 	C 	0.24335	0.96709	0.01652	-0.119
Mof_C 	C 	0.29004	0.93111	0.99283	0.242
Mof_C 	C 	0.2759	0.8783	0.963	-0.205
Mof_C 	C 	0.2158	0.8612	0.9586	0.06
Mof_C 	C 	0.17049	0.8947	0.9832	-0.049
Mof_C 	C 	0.13546	0.98846	0.03662	0.405
Mof_C 	C 	0.39672	0.92321	0.97326	-0.008
Mof_C 	C 	0.4508	0.96263	0.98786	0.086
Mof_C 	C 	0.31511	0.94898	0.48827	-0.045
Mof_C 	C 	0.25665	0.96709	0.48348	-0.078
Mof_C 	C 	0.20996	0.93111	0.50717	0.183
Mof_C 	C 	0.2241	0.8783	0.537	-0.18
Mof_C 	C 	0.2842	0.8612	0.5414	0.05
Mof_C 	C 	0.32951	0.8947	0.5168	-0.069
Mof_C 	C 	0.36454	0.98846	0.46338	0.403
Mof_C 	C 	0.10328	0.92321	0.52674	-0.036
Mof_C 	C 	0.0492	0.96263	0.51214	0.073
Mof_O 	O 	0.53458	0.91755	0.47055	-0.442
Mof_O 	O 	0.55924	0.8477	0.53876	-0.496
Mof_O 	O 	0.5014	0.6534	0.45378	-0.235
Mof_O 	O 	0.96542	0.58245	0.47055	-0.441
Mof_O 	O 	0.94076	0.6523	0.53876	-0.493
Mof_O 	O 	0.9986	0.8466	0.45378	-0.198
Mof_O 	O 	0.96542	0.91755	0.02945	-0.429
Mof_O 	O 	0.94076	0.8477	0.96124	-0.47
Mof_O 	O 	0.9986	0.6534	0.04622	-0.216
Mof_O 	O 	0.53458	0.58245	0.02945	-0.447
Mof_O 	O 	0.55924	0.6523	0.96124	-0.472
Mof_O 	O 	0.5014	0.8466	0.04622	-0.259
Mof_O 	O 	0.47055	0.53458	0.91755	-0.442
Mof_O 	O 	0.53876	0.55924	0.8477	-0.496
Mof_O 	O 	0.45378	0.5014	0.6534	-0.235
Mof_O 	O 	0.47055	0.96542	0.58245	-0.441
Mof_O 	O 	0.53876	0.94076	0.6523	-0.493
Mof_O 	O 	0.45378	0.9986	0.8466	-0.198
Mof_O 	O 	0.02945	0.96542	0.91755	-0.429
Mof_O 	O 	0.96124	0.94076	0.8477	-0.47
Mof_O 	O 	0.04622	0.9986	0.6534	-0.216
Mof_O 	O 	0.02945	0.53458	0.58245	-0.447
Mof_O 	O 	0.96124	0.55924	0.6523	-0.472
Mof_O 	O 	0.04622	0.5014	0.8466	-0.259
Mof_O 	O 	0.91755	0.47055	0.53458	-0.442
Mof_O 	O 	0.8477	0.53876	0.55924	-0.496
Mof_O 	O 	0.6534	0.45378	0.5014	-0.235
Mof_O 	O 	0.58245	0.47055	0.96542	-0.441
Mof_O 	O 	0.6523	0.53876	0.94076	-0.493
Mof_O 	O 	0.8466	0.45378	0.9986	-0.198
Mof_O 	O 	0.91755	0.02945	0.96542	-0.429
Mof_O 	O 	0.8477	0.96124	0.94076	-0.47
Mof_O 	O 	0.6534	0.04622	0.9986	-0.216
Mof_O 	O 	0.58245	0.02945	0.53458	-0.447
Mof_O 	O 	0.6523	0.96124	0.55924	-0.472
Mof_O 	O 	0.8466	0.04622	0.5014	-0.259
Mof_O 	O 	0.46542	0.08245	0.52945	-0.457
Mof_O 	O 	0.44076	0.1523	0.46124	-0.5
Mof_O 	O 	0.4986	0.3466	0.54622	-0.235
Mof_O 	O 	0.03458	0.41755	0.52945	-0.458
Mof_O 	O 	0.05924	0.3477	0.46124	-0.503
Mof_O 	O 	0.0014	0.1534	0.54622	-0.275
Mof_O 	O 	0.03458	0.08245	0.97055	-0.466
Mof_O 	O 	0.05924	0.1523	0.03876	-0.531
Mof_O 	O 	0.0014	0.3466	0.95378	-0.25
Mof_O 	O 	0.46542	0.41755	0.97055	-0.453
Mof_O 	O 	0.44076	0.3477	0.03876	-0.525
Mof_O 	O 	0.4986	0.1534	0.95378	-0.21
Mof_O 	O 	0.52945	0.46542	0.08245	-0.457
Mof_O 	O 	0.46124	0.44076	0.1523	-0.5
Mof_O 	O 	0.54622	0.4986	0.3466	-0.235
Mof_O 	O 	0.52945	0.03458	0.41755	-0.458
Mof_O 	O 	0.46124	0.05924	0.3477	-0.503
Mof_O 	O 	0.54622	0.0014	0.1534	-0.275
Mof_O 	O 	0.97055	0.03458	0.08245	-0.466
Mof_O 	O 	0.03876	0.05924	0.1523	-0.531
Mof_O 	O 	0.95378	0.0014	0.3466	-0.25
Mof_O 	O 	0.97055	0.46542	0.41755	-0.453
Mof_O 	O 	0.03876	0.44076	0.3477	-0.525
Mof_O 	O 	0.95378	0.4986	0.1534	-0.21
Mof_O 	O 	0.08245	0.52945	0.46542	-0.457
Mof_O 	O 	0.1523	0.46124	0.44076	-0.5
Mof_O 	O 	0.3466	0.54622	0.4986	-0.235
Mof_O 	O 	0.41755	0.52945	0.03458	-0.458
Mof_O 	O 	0.3477	0.46124	0.05924	-0.503
Mof_O 	O 	0.1534	0.54622	0.0014	-0.275
Mof_O 	O 	0.08245	0.97055	0.03458	-0.466
Mof_O 	O 	0.1523	0.03876	0.05924	-0.531
Mof_O 	O 	0.3466	0.95378	0.0014	-0.25
Mof_O 	O 	0.41755	0.97055	0.46542	-0.453
Mof_O 	O 	0.3477	0.03876	0.44076	-0.525
Mof_O 	O 	0.1534	0.95378	0.4986	-0.21
_end
