data_functionalizedCrystal
_audit_creation_method	'EQeq! by Chris Wilmer'
_symmetry_space_group_name_H-M	'P1'
_symmetry_Int_Tables_number	1
_symmetry_cell_setting	triclinic
loop_
_symmetry_equiv_pos_as_xyz
  x,y,z
_cell_length_a	12.3847
_cell_length_b	28.86
_cell_length_c	5.373
_cell_angle_alpha	90
_cell_angle_beta	90
_cell_angle_gamma	90
loop_
_atom_site_label
_atom_site_type_symbol
_atom_site_fract_x
_atom_site_fract_y
_atom_site_fract_z
_atom_site_charge
Mof_O 	O 	0.3666	0.7069	0.572	-0.582
Mof_H 	H 	0.3373	0.6833	0.5339	0.246
Mof_O 	O 	0.371	0.7098	0.919	-0.618
Mof_H 	H 	0.3418	0.6862	0.9577	0.253
Mof_O 	O 	0.2502	0.7853	0.419	-0.541
Mof_H 	H 	0.25	0.813	0.4194	0.196
Mof_C 	C 	0.4789	0.9516	0.541	-0.024
Mof_H 	H 	0.4332	0.9556	0.6932	-0.227
Mof_C 	C 	0.422	0.9732	0.352	-0.565
Mof_H 	H 	0.3492	0.9591	0.3406	0.234
Mof_H 	H 	0.4594	0.9676	0.1922	0.173
Mof_C 	C 	0.59	0.9741	0.61	0.629
Mof_H 	H 	0.3568	0.968	0.4758	-0.172
Mof_H 	H 	0.3816	0.9599	0.7653	-0.063
Mof_O 	O 	0.8666	0.2069	0.072	-0.581
Mof_H 	H 	0.8373	0.1833	0.0339	0.24
Mof_O 	O 	0.871	0.2098	0.419	-0.594
Mof_H 	H 	0.8418	0.1862	0.4577	0.259
Mof_O 	O 	0.7502	0.2853	0.919	-0.53
Mof_H 	H 	0.75	0.313	0.9194	0.203
Mof_C 	C 	0.9789	0.4516	0.041	-0.1
Mof_H 	H 	0.9332	0.4556	0.1932	-0.251
Mof_C 	C 	0.922	0.4732	0.852	-0.623
Mof_H 	H 	0.8492	0.4591	0.8406	0.271
Mof_H 	H 	0.9594	0.4676	0.6922	0.208
Mof_C 	C 	0.09	0.4741	0.11	0.681
Mof_H 	H 	0.8568	0.468	0.9758	-0.207
Mof_H 	H 	0.8816	0.4599	0.2653	-0.077
Mof_O 	O 	0.6334	0.7931	0.572	-0.583
Mof_H 	H 	0.6627	0.8167	0.5339	0.245
Mof_O 	O 	0.629	0.7902	0.919	-0.619
Mof_H 	H 	0.6582	0.8138	0.9577	0.252
Mof_O 	O 	0.7498	0.7147	0.419	-0.544
Mof_H 	H 	0.75	0.687	0.4194	0.198
Mof_C 	C 	0.5211	0.5484	0.541	-0.025
Mof_H 	H 	0.5668	0.5444	0.6932	-0.227
Mof_C 	C 	0.578	0.5268	0.352	-0.563
Mof_H 	H 	0.6508	0.5409	0.3406	0.234
Mof_H 	H 	0.5406	0.5324	0.1922	0.173
Mof_C 	C 	0.41	0.5259	0.61	0.629
Mof_H 	H 	0.6432	0.532	0.4758	-0.17
Mof_H 	H 	0.6184	0.5401	0.7653	-0.061
Mof_O 	O 	0.1334	0.2931	0.072	-0.595
Mof_H 	H 	0.1627	0.3167	0.0339	0.239
Mof_O 	O 	0.129	0.2902	0.419	-0.608
Mof_H 	H 	0.1582	0.3138	0.4577	0.258
Mof_O 	O 	0.2498	0.2147	0.919	-0.529
Mof_H 	H 	0.25	0.187	0.9194	0.2
Mof_C 	C 	0.0211	0.0484	0.041	0.075
Mof_H 	H 	0.0668	0.0444	0.1932	-0.296
Mof_C 	C 	0.078	0.0268	0.852	-0.652
Mof_H 	H 	0.1508	0.0409	0.8406	0.267
Mof_H 	H 	0.0406	0.0324	0.6922	0.179
Mof_C 	C 	0.91	0.0259	0.11	0.768
Mof_H 	H 	0.1432	0.032	0.9758	-0.19
Mof_H 	H 	0.1184	0.0401	0.2653	-0.052
Mof_O 	O 	0.6334	0.2069	0.428	-0.583
Mof_H 	H 	0.6627	0.1833	0.4661	0.245
Mof_O 	O 	0.629	0.2098	0.081	-0.619
Mof_H 	H 	0.6582	0.1862	0.0423	0.252
Mof_O 	O 	0.7498	0.2853	0.581	-0.544
Mof_H 	H 	0.75	0.313	0.5806	0.198
Mof_C 	C 	0.5211	0.4516	0.459	-0.025
Mof_H 	H 	0.5668	0.4556	0.3068	-0.227
Mof_C 	C 	0.578	0.4732	0.648	-0.563
Mof_H 	H 	0.6508	0.4591	0.6594	0.234
Mof_H 	H 	0.5406	0.4676	0.8078	0.173
Mof_C 	C 	0.41	0.4741	0.39	0.629
Mof_H 	H 	0.6432	0.468	0.5242	-0.17
Mof_H 	H 	0.6184	0.4599	0.2347	-0.061
Mof_O 	O 	0.1334	0.7069	0.928	-0.595
Mof_H 	H 	0.1627	0.6833	0.9661	0.239
Mof_O 	O 	0.129	0.7098	0.581	-0.608
Mof_H 	H 	0.1582	0.6862	0.5423	0.258
Mof_O 	O 	0.2498	0.7853	0.081	-0.529
Mof_H 	H 	0.25	0.813	0.0806	0.2
Mof_C 	C 	0.0211	0.9516	0.959	0.075
Mof_H 	H 	0.0668	0.9556	0.8068	-0.296
Mof_C 	C 	0.078	0.9732	0.148	-0.652
Mof_H 	H 	0.1508	0.9591	0.1594	0.267
Mof_H 	H 	0.0406	0.9676	0.3078	0.179
Mof_C 	C 	0.91	0.9741	0.89	0.768
Mof_H 	H 	0.1432	0.968	0.0242	-0.19
Mof_H 	H 	0.1184	0.9599	0.7347	-0.052
Mof_O 	O 	0.3666	0.2931	0.428	-0.583
Mof_H 	H 	0.3373	0.3167	0.4661	0.245
Mof_O 	O 	0.371	0.2902	0.081	-0.619
Mof_H 	H 	0.3418	0.3138	0.0423	0.252
Mof_O 	O 	0.2502	0.2147	0.581	-0.542
Mof_H 	H 	0.25	0.187	0.5806	0.195
Mof_C 	C 	0.4789	0.0484	0.459	-0.025
Mof_H 	H 	0.4332	0.0444	0.3068	-0.228
Mof_C 	C 	0.422	0.0268	0.648	-0.565
Mof_H 	H 	0.3492	0.0409	0.6594	0.234
Mof_H 	H 	0.4594	0.0324	0.8078	0.173
Mof_C 	C 	0.59	0.0259	0.39	0.629
Mof_H 	H 	0.3568	0.032	0.5242	-0.172
Mof_H 	H 	0.3816	0.0401	0.2347	-0.063
Mof_O 	O 	0.8666	0.7931	0.928	-0.581
Mof_H 	H 	0.8373	0.8167	0.9661	0.24
Mof_O 	O 	0.871	0.7902	0.581	-0.594
Mof_H 	H 	0.8418	0.8138	0.5423	0.259
Mof_O 	O 	0.7502	0.7147	0.081	-0.53
Mof_H 	H 	0.75	0.687	0.0806	0.203
Mof_C 	C 	0.9789	0.5484	0.959	-0.1
Mof_H 	H 	0.9332	0.5444	0.8068	-0.251
Mof_C 	C 	0.922	0.5268	0.148	-0.623
Mof_H 	H 	0.8492	0.5409	0.1594	0.271
Mof_H 	H 	0.9594	0.5324	0.3078	0.208
Mof_C 	C 	0.09	0.5259	0.89	0.681
Mof_H 	H 	0.8568	0.532	0.0242	-0.207
Mof_H 	H 	0.8816	0.5401	0.7347	-0.077
Mof_O 	O 	0.6334	0.2931	0.428	-0.583
Mof_H 	H 	0.6627	0.3167	0.4661	0.245
Mof_O 	O 	0.629	0.2902	0.081	-0.619
Mof_H 	H 	0.6582	0.3138	0.0423	0.252
Mof_O 	O 	0.7498	0.2147	0.581	-0.544
Mof_H 	H 	0.75	0.187	0.5806	0.198
Mof_C 	C 	0.5211	0.0484	0.459	-0.025
Mof_H 	H 	0.5668	0.0444	0.3068	-0.227
Mof_C 	C 	0.578	0.0268	0.648	-0.564
Mof_H 	H 	0.6508	0.0409	0.6594	0.234
Mof_H 	H 	0.5406	0.0324	0.8078	0.173
Mof_C 	C 	0.41	0.0259	0.39	0.63
Mof_H 	H 	0.6432	0.032	0.5242	-0.171
Mof_H 	H 	0.6184	0.0401	0.2347	-0.061
Mof_O 	O 	0.1334	0.7931	0.928	-0.595
Mof_H 	H 	0.1627	0.8167	0.9661	0.239
Mof_O 	O 	0.129	0.7902	0.581	-0.608
Mof_H 	H 	0.1582	0.8138	0.5423	0.258
Mof_O 	O 	0.2498	0.7147	0.081	-0.529
Mof_H 	H 	0.25	0.687	0.0806	0.2
Mof_C 	C 	0.0211	0.5484	0.959	0.075
Mof_H 	H 	0.0668	0.5444	0.8068	-0.288
Mof_C 	C 	0.078	0.5268	0.148	-0.64
Mof_H 	H 	0.1508	0.5409	0.1594	0.261
Mof_H 	H 	0.0406	0.5324	0.3078	0.176
Mof_C 	C 	0.91	0.5259	0.89	0.751
Mof_H 	H 	0.1432	0.532	0.0242	-0.184
Mof_H 	H 	0.1184	0.5401	0.7347	-0.051
Mof_O 	O 	0.3666	0.2069	0.428	-0.583
Mof_H 	H 	0.3373	0.1833	0.4661	0.245
Mof_O 	O 	0.371	0.2098	0.081	-0.618
Mof_H 	H 	0.3418	0.1862	0.0423	0.251
Mof_O 	O 	0.2502	0.2853	0.581	-0.542
Mof_H 	H 	0.25	0.313	0.5806	0.195
Mof_C 	C 	0.4789	0.4516	0.459	-0.024
Mof_H 	H 	0.4332	0.4556	0.3068	-0.227
Mof_C 	C 	0.422	0.4732	0.648	-0.564
Mof_H 	H 	0.3492	0.4591	0.6594	0.233
Mof_H 	H 	0.4594	0.4676	0.8078	0.173
Mof_C 	C 	0.59	0.4741	0.39	0.627
Mof_H 	H 	0.3568	0.468	0.5242	-0.171
Mof_H 	H 	0.3816	0.4599	0.2347	-0.062
Mof_O 	O 	0.8666	0.7069	0.928	-0.581
Mof_H 	H 	0.8373	0.6833	0.9661	0.24
Mof_O 	O 	0.871	0.7098	0.581	-0.594
Mof_H 	H 	0.8418	0.6862	0.5423	0.259
Mof_O 	O 	0.7502	0.7853	0.081	-0.53
Mof_H 	H 	0.75	0.813	0.0806	0.203
Mof_C 	C 	0.9789	0.9516	0.959	-0.1
Mof_H 	H 	0.9332	0.9556	0.8068	-0.258
Mof_C 	C 	0.922	0.9732	0.148	-0.635
Mof_H 	H 	0.8492	0.9591	0.1594	0.276
Mof_H 	H 	0.9594	0.9676	0.3078	0.211
Mof_C 	C 	0.09	0.9741	0.89	0.698
Mof_H 	H 	0.8568	0.968	0.0242	-0.212
Mof_H 	H 	0.8816	0.9599	0.7347	-0.078
Mof_O 	O 	0.3666	0.7931	0.572	-0.583
Mof_H 	H 	0.3373	0.8167	0.5339	0.245
Mof_O 	O 	0.371	0.7902	0.919	-0.618
Mof_H 	H 	0.3418	0.8138	0.9577	0.251
Mof_O 	O 	0.2502	0.7147	0.419	-0.542
Mof_H 	H 	0.25	0.687	0.4194	0.195
Mof_C 	C 	0.4789	0.5484	0.541	-0.024
Mof_H 	H 	0.4332	0.5444	0.6932	-0.227
Mof_C 	C 	0.422	0.5268	0.352	-0.564
Mof_H 	H 	0.3492	0.5409	0.3406	0.233
Mof_H 	H 	0.4594	0.5324	0.1922	0.173
Mof_C 	C 	0.59	0.5259	0.61	0.627
Mof_H 	H 	0.3568	0.532	0.4758	-0.171
Mof_H 	H 	0.3816	0.5401	0.7653	-0.062
Mof_O 	O 	0.8666	0.2931	0.072	-0.581
Mof_H 	H 	0.8373	0.3167	0.0339	0.24
Mof_O 	O 	0.871	0.2902	0.419	-0.594
Mof_H 	H 	0.8418	0.3138	0.4577	0.259
Mof_O 	O 	0.7502	0.2147	0.919	-0.53
Mof_H 	H 	0.75	0.187	0.9194	0.203
Mof_C 	C 	0.9789	0.0484	0.041	-0.1
Mof_H 	H 	0.9332	0.0444	0.1932	-0.258
Mof_C 	C 	0.922	0.0268	0.852	-0.635
Mof_H 	H 	0.8492	0.0409	0.8406	0.276
Mof_H 	H 	0.9594	0.0324	0.6922	0.211
Mof_C 	C 	0.09	0.0259	0.11	0.698
Mof_H 	H 	0.8568	0.032	0.9758	-0.212
Mof_H 	H 	0.8816	0.0401	0.2653	-0.078
Mof_O 	O 	0.6334	0.7069	0.572	-0.583
Mof_H 	H 	0.6627	0.6833	0.5339	0.245
Mof_O 	O 	0.629	0.7098	0.919	-0.619
Mof_H 	H 	0.6582	0.6862	0.9577	0.252
Mof_O 	O 	0.7498	0.7853	0.419	-0.544
Mof_H 	H 	0.75	0.813	0.4194	0.198
Mof_C 	C 	0.5211	0.9516	0.541	-0.025
Mof_H 	H 	0.5668	0.9556	0.6932	-0.227
Mof_C 	C 	0.578	0.9732	0.352	-0.564
Mof_H 	H 	0.6508	0.9591	0.3406	0.234
Mof_H 	H 	0.5406	0.9676	0.1922	0.173
Mof_C 	C 	0.41	0.9741	0.61	0.63
Mof_H 	H 	0.6432	0.968	0.4758	-0.171
Mof_H 	H 	0.6184	0.9599	0.7653	-0.061
Mof_O 	O 	0.1334	0.2069	0.072	-0.595
Mof_H 	H 	0.1627	0.1833	0.0339	0.239
Mof_O 	O 	0.129	0.2098	0.419	-0.608
Mof_H 	H 	0.1582	0.1862	0.4577	0.258
Mof_O 	O 	0.2498	0.2853	0.919	-0.529
Mof_H 	H 	0.25	0.313	0.9194	0.2
Mof_C 	C 	0.0211	0.4516	0.041	0.075
Mof_H 	H 	0.0668	0.4556	0.1932	-0.288
Mof_C 	C 	0.078	0.4732	0.852	-0.64
Mof_H 	H 	0.1508	0.4591	0.8406	0.261
Mof_H 	H 	0.0406	0.4676	0.6922	0.176
Mof_C 	C 	0.91	0.4741	0.11	0.751
Mof_H 	H 	0.1432	0.468	0.9758	-0.184
Mof_H 	H 	0.1184	0.4599	0.2653	-0.051
Mof_Co	Co	0.37551	0.75	0.2455	1.311
Mof_Co	Co	0.87551	0.25	0.7455	1.321
Mof_Co	Co	0.62449	0.75	0.2455	1.311
Mof_Co	Co	0.12449	0.25	0.7455	1.312
Mof_Co	Co	0.62449	0.25	0.7545	1.311
Mof_Co	Co	0.12449	0.75	0.2545	1.312
Mof_Co	Co	0.37551	0.25	0.7545	1.311
Mof_Co	Co	0.87551	0.75	0.2545	1.321
Mof_Co	Co	0.25	0.75	0.75	1.308
Mof_Co	Co	0.75	0.75	0.75	1.307
Mof_Co	Co	0.75	0.25	0.25	1.307
Mof_Co	Co	0.25	0.25	0.25	1.308
Mof_Co	Co	0.5	0.80906	0.7422	1.259
Mof_O 	O 	0.5	0.7941	0.104	-0.477
Mof_H 	H 	0.5	0.8177	0.1816	0.104
Mof_O 	O 	0.5	0.7897	0.387	-0.618
Mof_H 	H 	0.5	0.8132	0.3078	0.31
Mof_O 	O 	0.5	0.8789	0.738	-0.422
Mof_O 	O 	0.5	0.88	0.328	-0.355
Mof_C 	C 	0.5	0.8998	0.525	0.343
Mof_Co	Co	2.85861e-33	0.30906	0.2422	1.25
Mof_O 	O 	7.55486e-33	0.2941	0.604	-0.509
Mof_H 	H 	4.39491e-33	0.3177	0.6816	0.113
Mof_O 	O 	8.0152e-33	0.2897	0.887	-0.61
Mof_H 	H 	1.44587e-32	0.3132	0.8078	0.302
Mof_O 	O 	1.5175e-32	0.3789	0.238	-0.42
Mof_O 	O 	7.91923e-33	0.38	0.828	-0.349
Mof_C 	C 	-3.4509e-33	0.3998	0.025	0.307
Mof_Co	Co	0.5	0.69094	0.7422	1.259
Mof_O 	O 	0.5	0.7059	0.104	-0.477
Mof_H 	H 	0.5	0.6823	0.1816	0.104
Mof_O 	O 	0.5	0.7103	0.387	-0.618
Mof_H 	H 	0.5	0.6868	0.3078	0.31
Mof_O 	O 	0.5	0.6211	0.738	-0.422
Mof_O 	O 	0.5	0.62	0.328	-0.355
Mof_C 	C 	0.5	0.6002	0.525	0.343
Mof_Co	Co	-4.27572e-34	0.19094	0.2422	1.25
Mof_O 	O 	9.82494e-34	0.2059	0.604	-0.509
Mof_H 	H 	7.68109e-33	0.1823	0.6816	0.113
Mof_O 	O 	8.0152e-33	0.2103	0.887	-0.61
Mof_H 	H 	7.88637e-33	0.1868	0.8078	0.302
Mof_O 	O 	5.31642e-33	0.1211	0.238	-0.42
Mof_O 	O 	-1.93932e-33	0.12	0.828	-0.348
Mof_C 	C 	-1.6472e-34	0.1002	0.025	0.308
Mof_Co	Co	0.5	0.30906	0.2578	1.259
Mof_O 	O 	0.5	0.2941	0.896	-0.477
Mof_H 	H 	0.5	0.3177	0.8184	0.104
Mof_O 	O 	0.5	0.2897	0.613	-0.618
Mof_H 	H 	0.5	0.3132	0.6922	0.31
Mof_O 	O 	0.5	0.3789	0.262	-0.422
Mof_O 	O 	0.5	0.38	0.672	-0.355
Mof_C 	C 	0.5	0.3998	0.475	0.343
Mof_Co	Co	1.23267e-33	0.80906	0.7578	1.25
Mof_O 	O 	-9.9894e-34	0.7941	0.396	-0.509
Mof_H 	H 	1.69488e-32	0.8177	0.3184	0.113
Mof_O 	O 	-1.04851e-33	0.7897	0.113	-0.61
Mof_H 	H 	-3.79509e-33	0.8132	0.1922	0.302
Mof_O 	O 	1.43842e-32	0.8789	0.762	-0.42
Mof_O 	O 	1.99969e-32	0.88	0.172	-0.348
Mof_C 	C 	2.45893e-32	0.8998	0.975	0.308
Mof_Co	Co	0.5	0.19094	0.2578	1.259
Mof_O 	O 	0.5	0.2059	0.896	-0.477
Mof_H 	H 	0.5	0.1823	0.8184	0.104
Mof_O 	O 	0.5	0.2103	0.613	-0.618
Mof_H 	H 	0.5	0.1868	0.6922	0.31
Mof_O 	O 	0.5	0.1211	0.262	-0.422
Mof_O 	O 	0.5	0.12	0.672	-0.355
Mof_C 	C 	0.5	0.1002	0.475	0.343
Mof_Co	Co	1.43774e-32	0.69094	0.7578	1.25
Mof_O 	O 	2.52905e-32	0.7059	0.396	-0.509
Mof_H 	H 	-9.34063e-33	0.6823	0.3184	0.113
Mof_O 	O 	1.20962e-32	0.7103	0.113	-0.61
Mof_H 	H 	2.24944e-32	0.6868	0.1922	0.302
Mof_O 	O 	2.7529e-32	0.6211	0.762	-0.42
Mof_O 	O 	6.85215e-33	0.62	0.172	-0.349
Mof_C 	C 	-1.7002e-33	0.6002	0.975	0.307
_end
