data_functionalizedCrystal
_audit_creation_method	'EQeq! by Chris Wilmer'
_symmetry_space_group_name_H-M	'P1'
_symmetry_Int_Tables_number	1
_symmetry_cell_setting	triclinic
loop_
_symmetry_equiv_pos_as_xyz
  x,y,z
_cell_length_a	29.886
_cell_length_b	28.35
_cell_length_c	15.2719
_cell_angle_alpha	90
_cell_angle_beta	90
_cell_angle_gamma	90
loop_
_atom_site_label
_atom_site_type_symbol
_atom_site_fract_x
_atom_site_fract_y
_atom_site_fract_z
_atom_site_charge
Mof_Cu	Cu	0.81631	0.19553	0.94296	0.83
Mof_Cu	Cu	0.18427	0.1641	0.86157	0.831
Mof_Cu	Cu	0.36538	0.47827	0.62619	0.847
Mof_N 	N 	0.8833	0.1913	0.9248	-0.256
Mof_N 	N 	0.1176	0.1672	0.8792	-0.254
Mof_N 	N 	0.21	0.1023	0.8966	-0.252
Mof_N 	N 	0.2904	0.8682	0.9274	-0.257
Mof_N 	N 	0.2185	0.214	0.8004	-0.264
Mof_N 	N 	0.3313	0.4166	0.6427	-0.247
Mof_N 	N 	0.3285	0.5351	0.5914	-0.249
Mof_N 	N 	0.218	0.7495	0.4819	-0.271
Mof_N 	N 	0.4222	0.4769	0.5453	-0.242
Mof_N 	N 	0.6011	0.5076	0.2427	-0.234
Mof_C 	C 	0.9023	0.177	0.8495	0.076
Mof_H 	H 	0.8834	0.1693	0.8032	-0.026
Mof_C 	C 	0.9477	0.173	0.8364	-0.147
Mof_H 	H 	0.9589	0.1638	0.7822	0.072
Mof_C 	C 	0.9755	0.1825	0.9036	0.057
Mof_C 	C 	0.9565	0.1969	0.9838	-0.148
Mof_H 	H 	0.9746	0.2039	0.0316	0.075
Mof_C 	C 	0.9106	0.2004	0.9901	0.077
Mof_H 	H 	0.8983	0.2096	0.0434	-0.029
Mof_C 	C 	0.0913	0.1726	0.8091	0.074
Mof_H 	H 	0.1042	0.1723	0.7537	-0.029
Mof_C 	C 	0.0458	0.1784	0.8164	-0.144
Mof_H 	H 	0.0286	0.1828	0.7662	0.072
Mof_C 	C 	0.0254	0.1778	0.8978	0.063
Mof_C 	C 	0.0514	0.1708	0.9684	-0.154
Mof_H 	H 	0.0387	0.1692	0.024	0.079
Mof_C 	C 	0.0966	0.1663	0.9577	0.074
Mof_H 	H 	0.1141	0.1622	0.0076	-0.02
Mof_C 	C 	0.1832	0.0688	0.9301	0.052
Mof_H 	H 	0.154	0.0768	0.9451	-0.012
Mof_C 	C 	0.198	0.0208	0.9438	-0.125
Mof_H 	H 	0.18	0.9983	0.9707	0.067
Mof_C 	C 	0.2412	0.0103	0.9138	0.043
Mof_C 	C 	0.2681	0.045	0.8829	-0.142
Mof_H 	H 	0.2976	0.0387	0.8678	0.071
Mof_C 	C 	0.2509	0.0899	0.8741	0.081
Mof_H 	H 	0.2694	0.113	0.8508	-0.026
Mof_C 	C 	0.2471	0.877	0.9279	0.093
Mof_H 	H 	0.2272	0.8519	0.9316	-0.027
Mof_C 	C 	0.2304	0.922	0.9233	-0.161
Mof_H 	H 	0.1996	0.9267	0.9234	0.078
Mof_C 	C 	0.2582	0.9595	0.9185	0.071
Mof_C 	C 	0.3031	0.9516	0.9216	-0.157
Mof_H 	H 	0.3231	0.9767	0.9205	0.069
Mof_C 	C 	0.3182	0.9066	0.9263	0.071
Mof_H 	H 	0.3489	0.9015	0.9289	-0.023
Mof_C 	C 	0.2622	0.2189	0.8054	0.078
Mof_H 	H 	0.2782	0.1953	0.8339	-0.024
Mof_C 	C 	0.2858	0.2564	0.7714	-0.152
Mof_H 	H 	0.3169	0.2574	0.7756	0.073
Mof_C 	C 	0.2629	0.2924	0.7313	0.049
Mof_C 	C 	0.2161	0.2884	0.7295	-0.159
Mof_H 	H 	0.1988	0.3125	0.7062	0.07
Mof_C 	C 	0.1964	0.2493	0.7618	0.056
Mof_H 	H 	0.1655	0.2467	0.7569	-0.028
Mof_C 	C 	0.3521	0.376	0.652	0.068
Mof_H 	H 	0.3825	0.3747	0.6394	-0.025
Mof_C 	C 	0.3313	0.3354	0.6794	-0.165
Mof_H 	H 	0.3477	0.3076	0.6847	0.07
Mof_C 	C 	0.2862	0.3356	0.6991	0.044
Mof_C 	C 	0.2641	0.3778	0.6864	-0.147
Mof_H 	H 	0.2336	0.3799	0.6975	0.071
Mof_C 	C 	0.2867	0.4163	0.6578	0.067
Mof_H 	H 	0.2707	0.444	0.6481	-0.015
Mof_C 	C 	0.345	0.5666	0.5357	0.068
Mof_H 	H 	0.372	0.5595	0.5082	-0.019
Mof_C 	C 	0.3246	0.6094	0.5157	-0.143
Mof_H 	H 	0.3393	0.6309	0.4798	0.068
Mof_C 	C 	0.2836	0.6202	0.5479	0.049
Mof_C 	C 	0.2671	0.5884	0.6048	-0.147
Mof_H 	H 	0.2402	0.5949	0.633	0.071
Mof_C 	C 	0.2892	0.5456	0.623	0.08
Mof_H 	H 	0.2751	0.5238	0.6592	-0.019
Mof_C 	C 	0.2611	0.7454	0.4735	0.086
Mof_H 	H 	0.2776	0.7711	0.4537	-0.026
Mof_C 	C 	0.2835	0.7033	0.4935	-0.159
Mof_H 	H 	0.3142	0.7011	0.4842	0.074
Mof_C 	C 	0.2608	0.6655	0.5264	0.065
Mof_C 	C 	0.217	0.6706	0.5363	-0.168
Mof_H 	H 	0.2001	0.6463	0.5604	0.075
Mof_C 	C 	0.1963	0.7128	0.5101	0.057
Mof_H 	H 	0.1652	0.7145	0.5131	-0.044
Mof_C 	C 	0.4324	0.4451	0.487	0.099
Mof_H 	H 	0.4152	0.4178	0.4861	-0.026
Mof_C 	C 	0.4663	0.4485	0.4269	-0.162
Mof_H 	H 	0.4701	0.4253	0.3846	0.084
Mof_C 	C 	0.4946	0.4867	0.4299	0.069
Mof_C 	C 	0.4863	0.5189	0.494	-0.153
Mof_H 	H 	0.5057	0.5442	0.5014	0.076
Mof_C 	C 	0.4501	0.5147	0.547	0.079
Mof_H 	H 	0.4442	0.5389	0.5865	-0.021
Mof_C 	C 	0.5864	0.4633	0.2625	0.066
Mof_H 	H 	0.5998	0.4375	0.2353	-0.022
Mof_C 	C 	0.5521	0.4554	0.3223	-0.135
Mof_H 	H 	0.5424	0.4248	0.3333	0.074
Mof_C 	C 	0.5322	0.4926	0.3654	0.048
Mof_C 	C 	0.5489	0.537	0.3463	-0.141
Mof_H 	H 	0.537	0.5632	0.3743	0.071
Mof_C 	C 	0.5825	0.5427	0.2874	0.077
Mof_H 	H 	0.5931	0.5731	0.2777	-0.019
Mof_Cu	Cu	0.18369	0.80447	0.44296	0.832
Mof_Cu	Cu	0.81573	0.8359	0.36157	0.833
Mof_Cu	Cu	0.63462	0.52173	0.12619	0.849
Mof_N 	N 	0.1167	0.8087	0.4248	-0.256
Mof_N 	N 	0.8824	0.8328	0.3792	-0.253
Mof_N 	N 	0.79	0.8977	0.3966	-0.251
Mof_N 	N 	0.7096	0.1318	0.4274	-0.256
Mof_N 	N 	0.7815	0.786	0.3004	-0.262
Mof_N 	N 	0.6687	0.5834	0.1427	-0.247
Mof_N 	N 	0.6715	0.4649	0.0914	-0.246
Mof_N 	N 	0.782	0.2505	0.9819	-0.276
Mof_N 	N 	0.5778	0.5231	0.0453	-0.243
Mof_N 	N 	0.3989	0.4924	0.7427	-0.233
Mof_C 	C 	0.0977	0.823	0.3495	0.077
Mof_H 	H 	0.1166	0.8307	0.3032	-0.026
Mof_C 	C 	0.0523	0.827	0.3364	-0.147
Mof_H 	H 	0.0411	0.8362	0.2822	0.073
Mof_C 	C 	0.0245	0.8175	0.4036	0.057
Mof_C 	C 	0.0435	0.8031	0.4838	-0.144
Mof_H 	H 	0.0254	0.7961	0.5316	0.072
Mof_C 	C 	0.0894	0.7996	0.4901	0.082
Mof_H 	H 	0.1017	0.7904	0.5434	-0.033
Mof_C 	C 	0.9087	0.8274	0.3091	0.073
Mof_H 	H 	0.8958	0.8277	0.2537	-0.028
Mof_C 	C 	0.9542	0.8216	0.3164	-0.143
Mof_H 	H 	0.9714	0.8172	0.2662	0.072
Mof_C 	C 	0.9746	0.8222	0.3978	0.061
Mof_C 	C 	0.9486	0.8292	0.4684	-0.149
Mof_H 	H 	0.9613	0.8308	0.524	0.074
Mof_C 	C 	0.9034	0.8337	0.4577	0.078
Mof_H 	H 	0.8859	0.8378	0.5076	-0.024
Mof_C 	C 	0.8168	0.9312	0.4301	0.052
Mof_H 	H 	0.846	0.9232	0.4451	-0.012
Mof_C 	C 	0.802	0.9792	0.4438	-0.125
Mof_H 	H 	0.82	0.0017	0.4707	0.068
Mof_C 	C 	0.7588	0.9897	0.4138	0.043
Mof_C 	C 	0.7319	0.955	0.3829	-0.142
Mof_H 	H 	0.7024	0.9613	0.3678	0.072
Mof_C 	C 	0.7491	0.9101	0.3741	0.081
Mof_H 	H 	0.7306	0.887	0.3508	-0.026
Mof_C 	C 	0.7529	0.123	0.4279	0.094
Mof_H 	H 	0.7728	0.1481	0.4316	-0.027
Mof_C 	C 	0.7696	0.078	0.4233	-0.161
Mof_H 	H 	0.8004	0.0733	0.4234	0.079
Mof_C 	C 	0.7418	0.0405	0.4185	0.071
Mof_C 	C 	0.6969	0.0484	0.4216	-0.157
Mof_H 	H 	0.6769	0.0233	0.4205	0.07
Mof_C 	C 	0.6818	0.0934	0.4263	0.072
Mof_H 	H 	0.6511	0.0985	0.4289	-0.022
Mof_C 	C 	0.7378	0.7811	0.3054	0.079
Mof_H 	H 	0.7218	0.8047	0.3339	-0.023
Mof_C 	C 	0.7142	0.7436	0.2714	-0.152
Mof_H 	H 	0.6831	0.7426	0.2756	0.073
Mof_C 	C 	0.7371	0.7076	0.2313	0.05
Mof_C 	C 	0.7839	0.7116	0.2295	-0.159
Mof_H 	H 	0.8012	0.6875	0.2062	0.07
Mof_C 	C 	0.8036	0.7507	0.2618	0.056
Mof_H 	H 	0.8345	0.7533	0.2569	-0.028
Mof_C 	C 	0.6479	0.624	0.152	0.068
Mof_H 	H 	0.6175	0.6253	0.1394	-0.024
Mof_C 	C 	0.6687	0.6646	0.1794	-0.165
Mof_H 	H 	0.6523	0.6924	0.1847	0.07
Mof_C 	C 	0.7138	0.6644	0.1991	0.044
Mof_C 	C 	0.7359	0.6222	0.1864	-0.146
Mof_H 	H 	0.7664	0.6201	0.1975	0.072
Mof_C 	C 	0.7133	0.5837	0.1578	0.068
Mof_H 	H 	0.7293	0.556	0.1481	-0.014
Mof_C 	C 	0.655	0.4334	0.0357	0.061
Mof_H 	H 	0.628	0.4405	0.0082	-0.016
Mof_C 	C 	0.6754	0.3906	0.0157	-0.128
Mof_H 	H 	0.6607	0.3691	0.9798	0.06
Mof_C 	C 	0.7164	0.3798	0.0479	0.038
Mof_C 	C 	0.7329	0.4116	0.1048	-0.139
Mof_H 	H 	0.7598	0.4051	0.133	0.069
Mof_C 	C 	0.7108	0.4544	0.123	0.076
Mof_H 	H 	0.7249	0.4762	0.1592	-0.017
Mof_C 	C 	0.7389	0.2546	0.9735	0.092
Mof_H 	H 	0.7224	0.2289	0.9537	-0.029
Mof_C 	C 	0.7165	0.2967	0.9935	-0.172
Mof_H 	H 	0.6858	0.2989	0.9842	0.077
Mof_C 	C 	0.7392	0.3345	0.0264	0.079
Mof_C 	C 	0.783	0.3294	0.0363	-0.178
Mof_H 	H 	0.7999	0.3537	0.0604	0.079
Mof_C 	C 	0.8037	0.2872	0.0101	0.067
Mof_H 	H 	0.8348	0.2855	0.0131	-0.046
Mof_C 	C 	0.5676	0.5549	0.987	0.098
Mof_H 	H 	0.5848	0.5822	0.9861	-0.026
Mof_C 	C 	0.5337	0.5515	0.9269	-0.167
Mof_H 	H 	0.5299	0.5747	0.8846	0.086
Mof_C 	C 	0.5054	0.5133	0.9299	0.078
Mof_C 	C 	0.5137	0.4811	0.994	-0.174
Mof_H 	H 	0.4943	0.4558	0.0014	0.086
Mof_C 	C 	0.5499	0.4853	0.047	0.094
Mof_H 	H 	0.5558	0.4611	0.0865	-0.025
Mof_C 	C 	0.4136	0.5367	0.7625	0.064
Mof_H 	H 	0.4002	0.5625	0.7353	-0.022
Mof_C 	C 	0.4479	0.5446	0.8223	-0.132
Mof_H 	H 	0.4576	0.5752	0.8333	0.072
Mof_C 	C 	0.4678	0.5074	0.8654	0.043
Mof_C 	C 	0.4511	0.463	0.8463	-0.138
Mof_H 	H 	0.463	0.4368	0.8743	0.069
Mof_C 	C 	0.4175	0.4573	0.7874	0.074
Mof_H 	H 	0.4069	0.4269	0.7777	-0.019
Mof_Cu	Cu	0.31631	0.80447	0.94296	0.831
Mof_Cu	Cu	0.68427	0.8359	0.86157	0.832
Mof_Cu	Cu	0.86538	0.52173	0.62619	0.848
Mof_N 	N 	0.3833	0.8087	0.9248	-0.255
Mof_N 	N 	0.6176	0.8328	0.8792	-0.253
Mof_N 	N 	0.71	0.8977	0.8966	-0.251
Mof_N 	N 	0.7904	0.1318	0.9274	-0.256
Mof_N 	N 	0.7185	0.786	0.8004	-0.263
Mof_N 	N 	0.8313	0.5834	0.6427	-0.247
Mof_N 	N 	0.8285	0.4649	0.5914	-0.249
Mof_N 	N 	0.718	0.2505	0.4819	-0.271
Mof_N 	N 	0.9222	0.5231	0.5453	-0.242
Mof_N 	N 	0.1011	0.4924	0.2427	-0.234
Mof_C 	C 	0.4023	0.823	0.8495	0.077
Mof_H 	H 	0.3834	0.8307	0.8032	-0.026
Mof_C 	C 	0.4477	0.827	0.8364	-0.148
Mof_H 	H 	0.4589	0.8362	0.7822	0.072
Mof_C 	C 	0.4755	0.8175	0.9036	0.058
Mof_C 	C 	0.4565	0.8031	0.9838	-0.148
Mof_H 	H 	0.4746	0.7961	0.0316	0.076
Mof_C 	C 	0.4106	0.7996	0.9901	0.078
Mof_H 	H 	0.3983	0.7904	0.0434	-0.029
Mof_C 	C 	0.5913	0.8274	0.8091	0.073
Mof_H 	H 	0.6042	0.8277	0.7537	-0.029
Mof_C 	C 	0.5458	0.8216	0.8164	-0.143
Mof_H 	H 	0.5286	0.8172	0.7662	0.072
Mof_C 	C 	0.5254	0.8222	0.8978	0.062
Mof_C 	C 	0.5514	0.8292	0.9684	-0.154
Mof_H 	H 	0.5387	0.8308	0.024	0.078
Mof_C 	C 	0.5966	0.8337	0.9577	0.074
Mof_H 	H 	0.6141	0.8378	0.0076	-0.02
Mof_C 	C 	0.6832	0.9312	0.9301	0.052
Mof_H 	H 	0.654	0.9232	0.9451	-0.012
Mof_C 	C 	0.698	0.9792	0.9438	-0.125
Mof_H 	H 	0.68	0.0017	0.9707	0.067
Mof_C 	C 	0.7412	0.9897	0.9138	0.043
Mof_C 	C 	0.7681	0.955	0.8829	-0.142
Mof_H 	H 	0.7976	0.9613	0.8678	0.072
Mof_C 	C 	0.7509	0.9101	0.8741	0.081
Mof_H 	H 	0.7694	0.887	0.8508	-0.026
Mof_C 	C 	0.7471	0.123	0.9279	0.093
Mof_H 	H 	0.7272	0.1481	0.9316	-0.027
Mof_C 	C 	0.7304	0.078	0.9233	-0.161
Mof_H 	H 	0.6996	0.0733	0.9234	0.078
Mof_C 	C 	0.7582	0.0405	0.9185	0.071
Mof_C 	C 	0.8031	0.0484	0.9216	-0.157
Mof_H 	H 	0.8231	0.0233	0.9205	0.069
Mof_C 	C 	0.8182	0.0934	0.9263	0.071
Mof_H 	H 	0.8489	0.0985	0.9289	-0.023
Mof_C 	C 	0.7622	0.7811	0.8054	0.078
Mof_H 	H 	0.7782	0.8047	0.8339	-0.024
Mof_C 	C 	0.7858	0.7436	0.7714	-0.152
Mof_H 	H 	0.8169	0.7426	0.7756	0.073
Mof_C 	C 	0.7629	0.7076	0.7313	0.049
Mof_C 	C 	0.7161	0.7116	0.7295	-0.159
Mof_H 	H 	0.6988	0.6875	0.7062	0.07
Mof_C 	C 	0.6964	0.7507	0.7618	0.056
Mof_H 	H 	0.6655	0.7533	0.7569	-0.028
Mof_C 	C 	0.8521	0.624	0.652	0.068
Mof_H 	H 	0.8825	0.6253	0.6394	-0.025
Mof_C 	C 	0.8313	0.6646	0.6794	-0.165
Mof_H 	H 	0.8477	0.6924	0.6847	0.07
Mof_C 	C 	0.7862	0.6644	0.6991	0.044
Mof_C 	C 	0.7641	0.6222	0.6864	-0.147
Mof_H 	H 	0.7336	0.6201	0.6975	0.071
Mof_C 	C 	0.7867	0.5837	0.6578	0.067
Mof_H 	H 	0.7707	0.556	0.6481	-0.015
Mof_C 	C 	0.845	0.4334	0.5357	0.068
Mof_H 	H 	0.872	0.4405	0.5082	-0.019
Mof_C 	C 	0.8246	0.3906	0.5157	-0.143
Mof_H 	H 	0.8393	0.3691	0.4798	0.068
Mof_C 	C 	0.7836	0.3798	0.5479	0.049
Mof_C 	C 	0.7671	0.4116	0.6048	-0.147
Mof_H 	H 	0.7402	0.4051	0.633	0.071
Mof_C 	C 	0.7892	0.4544	0.623	0.08
Mof_H 	H 	0.7751	0.4762	0.6592	-0.019
Mof_C 	C 	0.7611	0.2546	0.4735	0.086
Mof_H 	H 	0.7776	0.2289	0.4537	-0.026
Mof_C 	C 	0.7835	0.2967	0.4935	-0.159
Mof_H 	H 	0.8142	0.2989	0.4842	0.074
Mof_C 	C 	0.7608	0.3345	0.5264	0.065
Mof_C 	C 	0.717	0.3294	0.5363	-0.168
Mof_H 	H 	0.7001	0.3537	0.5604	0.075
Mof_C 	C 	0.6963	0.2872	0.5101	0.057
Mof_H 	H 	0.6652	0.2855	0.5131	-0.044
Mof_C 	C 	0.9324	0.5549	0.487	0.099
Mof_H 	H 	0.9152	0.5822	0.4861	-0.026
Mof_C 	C 	0.9663	0.5515	0.4269	-0.162
Mof_H 	H 	0.9701	0.5747	0.3846	0.084
Mof_C 	C 	0.9946	0.5133	0.4299	0.069
Mof_C 	C 	0.9863	0.4811	0.494	-0.154
Mof_H 	H 	0.0057	0.4558	0.5014	0.076
Mof_C 	C 	0.9501	0.4853	0.547	0.08
Mof_H 	H 	0.9442	0.4611	0.5865	-0.021
Mof_C 	C 	0.0864	0.5367	0.2625	0.066
Mof_H 	H 	0.0998	0.5625	0.2353	-0.022
Mof_C 	C 	0.0521	0.5446	0.3223	-0.136
Mof_H 	H 	0.0424	0.5752	0.3333	0.074
Mof_C 	C 	0.0322	0.5074	0.3654	0.049
Mof_C 	C 	0.0489	0.463	0.3463	-0.141
Mof_H 	H 	0.037	0.4368	0.3743	0.071
Mof_C 	C 	0.0825	0.4573	0.2874	0.077
Mof_H 	H 	0.0931	0.4269	0.2777	-0.019
Mof_Cu	Cu	0.68369	0.19553	0.44296	0.832
Mof_Cu	Cu	0.31573	0.1641	0.36157	0.833
Mof_Cu	Cu	0.13462	0.47827	0.12619	0.849
Mof_N 	N 	0.6167	0.1913	0.4248	-0.256
Mof_N 	N 	0.3824	0.1672	0.3792	-0.253
Mof_N 	N 	0.29	0.1023	0.3966	-0.251
Mof_N 	N 	0.2096	0.8682	0.4274	-0.256
Mof_N 	N 	0.2815	0.214	0.3004	-0.262
Mof_N 	N 	0.1687	0.4166	0.1427	-0.247
Mof_N 	N 	0.1715	0.5351	0.0914	-0.246
Mof_N 	N 	0.282	0.7495	0.9819	-0.276
Mof_N 	N 	0.0778	0.4769	0.0453	-0.243
Mof_N 	N 	0.8989	0.5076	0.7427	-0.233
Mof_C 	C 	0.5977	0.177	0.3495	0.077
Mof_H 	H 	0.6166	0.1693	0.3032	-0.026
Mof_C 	C 	0.5523	0.173	0.3364	-0.147
Mof_H 	H 	0.5411	0.1638	0.2822	0.073
Mof_C 	C 	0.5245	0.1825	0.4036	0.058
Mof_C 	C 	0.5435	0.1969	0.4838	-0.144
Mof_H 	H 	0.5254	0.2039	0.5316	0.072
Mof_C 	C 	0.5894	0.2004	0.4901	0.082
Mof_H 	H 	0.6017	0.2096	0.5434	-0.033
Mof_C 	C 	0.4087	0.1726	0.3091	0.073
Mof_H 	H 	0.3958	0.1723	0.2537	-0.028
Mof_C 	C 	0.4542	0.1784	0.3164	-0.143
Mof_H 	H 	0.4714	0.1828	0.2662	0.072
Mof_C 	C 	0.4746	0.1778	0.3978	0.061
Mof_C 	C 	0.4486	0.1708	0.4684	-0.149
Mof_H 	H 	0.4613	0.1692	0.524	0.074
Mof_C 	C 	0.4034	0.1663	0.4577	0.077
Mof_H 	H 	0.3859	0.1622	0.5076	-0.024
Mof_C 	C 	0.3168	0.0688	0.4301	0.052
Mof_H 	H 	0.346	0.0768	0.4451	-0.012
Mof_C 	C 	0.302	0.0208	0.4438	-0.125
Mof_H 	H 	0.32	0.9983	0.4707	0.068
Mof_C 	C 	0.2588	0.0103	0.4138	0.043
Mof_C 	C 	0.2319	0.045	0.3829	-0.142
Mof_H 	H 	0.2024	0.0387	0.3678	0.072
Mof_C 	C 	0.2491	0.0899	0.3741	0.081
Mof_H 	H 	0.2306	0.113	0.3508	-0.026
Mof_C 	C 	0.2529	0.877	0.4279	0.094
Mof_H 	H 	0.2728	0.8519	0.4316	-0.027
Mof_C 	C 	0.2696	0.922	0.4233	-0.161
Mof_H 	H 	0.3004	0.9267	0.4234	0.079
Mof_C 	C 	0.2418	0.9595	0.4185	0.071
Mof_C 	C 	0.1969	0.9516	0.4216	-0.157
Mof_H 	H 	0.1769	0.9767	0.4205	0.07
Mof_C 	C 	0.1818	0.9066	0.4263	0.072
Mof_H 	H 	0.1511	0.9015	0.4289	-0.022
Mof_C 	C 	0.2378	0.2189	0.3054	0.079
Mof_H 	H 	0.2218	0.1953	0.3339	-0.023
Mof_C 	C 	0.2142	0.2564	0.2714	-0.152
Mof_H 	H 	0.1831	0.2574	0.2756	0.073
Mof_C 	C 	0.2371	0.2924	0.2313	0.05
Mof_C 	C 	0.2839	0.2884	0.2295	-0.159
Mof_H 	H 	0.3012	0.3125	0.2062	0.07
Mof_C 	C 	0.3036	0.2493	0.2618	0.056
Mof_H 	H 	0.3345	0.2467	0.2569	-0.028
Mof_C 	C 	0.1479	0.376	0.152	0.068
Mof_H 	H 	0.1175	0.3747	0.1394	-0.024
Mof_C 	C 	0.1687	0.3354	0.1794	-0.165
Mof_H 	H 	0.1523	0.3076	0.1847	0.07
Mof_C 	C 	0.2138	0.3356	0.1991	0.044
Mof_C 	C 	0.2359	0.3778	0.1864	-0.146
Mof_H 	H 	0.2664	0.3799	0.1975	0.072
Mof_C 	C 	0.2133	0.4163	0.1578	0.068
Mof_H 	H 	0.2293	0.444	0.1481	-0.014
Mof_C 	C 	0.155	0.5666	0.0357	0.061
Mof_H 	H 	0.128	0.5595	0.0082	-0.016
Mof_C 	C 	0.1754	0.6094	0.0157	-0.128
Mof_H 	H 	0.1607	0.6309	0.9798	0.06
Mof_C 	C 	0.2164	0.6202	0.0479	0.038
Mof_C 	C 	0.2329	0.5884	0.1048	-0.139
Mof_H 	H 	0.2598	0.5949	0.133	0.069
Mof_C 	C 	0.2108	0.5456	0.123	0.076
Mof_H 	H 	0.2249	0.5238	0.1592	-0.017
Mof_C 	C 	0.2389	0.7454	0.9735	0.092
Mof_H 	H 	0.2224	0.7711	0.9537	-0.029
Mof_C 	C 	0.2165	0.7033	0.9935	-0.172
Mof_H 	H 	0.1858	0.7011	0.9842	0.077
Mof_C 	C 	0.2392	0.6655	0.0264	0.079
Mof_C 	C 	0.283	0.6706	0.0363	-0.178
Mof_H 	H 	0.2999	0.6463	0.0604	0.079
Mof_C 	C 	0.3037	0.7128	0.0101	0.067
Mof_H 	H 	0.3348	0.7145	0.0131	-0.046
Mof_C 	C 	0.0676	0.4451	0.987	0.098
Mof_H 	H 	0.0848	0.4178	0.9861	-0.026
Mof_C 	C 	0.0337	0.4485	0.9269	-0.167
Mof_H 	H 	0.0299	0.4253	0.8846	0.086
Mof_C 	C 	0.0054	0.4867	0.9299	0.078
Mof_C 	C 	0.0137	0.5189	0.994	-0.174
Mof_H 	H 	0.9943	0.5442	0.0014	0.086
Mof_C 	C 	0.0499	0.5147	0.047	0.093
Mof_H 	H 	0.0558	0.5389	0.0865	-0.025
Mof_C 	C 	0.9136	0.4633	0.7625	0.064
Mof_H 	H 	0.9002	0.4375	0.7353	-0.022
Mof_C 	C 	0.9479	0.4554	0.8223	-0.132
Mof_H 	H 	0.9576	0.4248	0.8333	0.072
Mof_C 	C 	0.9678	0.4926	0.8654	0.043
Mof_C 	C 	0.9511	0.537	0.8463	-0.138
Mof_H 	H 	0.963	0.5632	0.8743	0.069
Mof_C 	C 	0.9175	0.5427	0.7874	0.074
Mof_H 	H 	0.9069	0.5731	0.7777	-0.019
Mof_Cu	Cu	0.67043	0.33158	0.3205	0.829
Mof_Cu	Cu	0.30652	0.3133	0.4573	0.836
Mof_Cu	Cu	0.13396	0.98442	0.65799	0.847
Mof_N 	N 	0.6056	0.3252	0.3515	-0.253
Mof_N 	N 	0.372	0.3101	0.4309	-0.251
Mof_N 	N 	0.2812	0.3757	0.4299	-0.263
Mof_N 	N 	0.1959	0.6047	0.3492	-0.255
Mof_N 	N 	0.2741	0.2599	0.5069	-0.256
Mof_N 	N 	0.1681	0.0457	0.6288	-0.244
Mof_N 	N 	0.1049	0.9927	0.7809	-0.235
Mof_N 	N 	0.9233	0.0135	0.0798	-0.235
Mof_N 	N 	0.1689	0.9231	0.6546	-0.242
Mof_N 	N 	0.2937	0.7193	0.7646	-0.274
Mof_C 	C 	0.5768	0.316	0.2858	0.058
Mof_H 	H 	0.5879	0.314	0.2289	-0.027
Mof_C 	C 	0.5307	0.3093	0.2997	-0.131
Mof_H 	H 	0.5124	0.3	0.2536	0.068
Mof_C 	C 	0.5126	0.3166	0.3825	0.051
Mof_C 	C 	0.5422	0.3282	0.4486	-0.14
Mof_H 	H 	0.5318	0.3327	0.5053	0.072
Mof_C 	C 	0.5868	0.333	0.4309	0.072
Mof_H 	H 	0.6055	0.3423	0.4764	-0.021
Mof_C 	C 	0.3888	0.3233	0.3514	0.061
Mof_H 	H 	0.3689	0.3317	0.3074	-0.021
Mof_C 	C 	0.4341	0.3246	0.3332	-0.134
Mof_H 	H 	0.4439	0.3334	0.2778	0.069
Mof_C 	C 	0.4646	0.313	0.3971	0.051
Mof_C 	C 	0.4477	0.2983	0.4782	-0.134
Mof_H 	H 	0.4672	0.2896	0.5229	0.07
Mof_C 	C 	0.4026	0.2968	0.4915	0.067
Mof_H 	H 	0.3922	0.2859	0.5453	-0.023
Mof_C 	C 	0.3071	0.4138	0.4187	0.094
Mof_H 	H 	0.3378	0.4095	0.4245	-0.037
Mof_C 	C 	0.2932	0.4567	0.4003	-0.173
Mof_H 	H 	0.3135	0.4804	0.3867	0.078
Mof_C 	C 	0.2463	0.466	0.4017	0.072
Mof_C 	C 	0.2192	0.4301	0.4199	-0.165
Mof_H 	H 	0.1884	0.4344	0.4223	0.08
Mof_C 	C 	0.2378	0.3865	0.4351	0.091
Mof_H 	H 	0.2183	0.3623	0.4504	-0.027
Mof_C 	C 	0.1709	0.572	0.3928	0.062
Mof_H 	H 	0.1419	0.5801	0.4093	-0.014
Mof_C 	C 	0.186	0.5277	0.4136	-0.133
Mof_H 	H 	0.1685	0.507	0.446	0.071
Mof_C 	C 	0.2289	0.5145	0.3845	0.048
Mof_C 	C 	0.2538	0.5487	0.346	-0.149
Mof_H 	H 	0.2836	0.5428	0.3324	0.075
Mof_C 	C 	0.2356	0.592	0.3266	0.095
Mof_H 	H 	0.2531	0.6134	0.2954	-0.031
Mof_C 	C 	0.2288	0.2539	0.5011	0.061
Mof_H 	H 	0.2118	0.2783	0.4774	-0.016
Mof_C 	C 	0.2075	0.2143	0.528	-0.134
Mof_H 	H 	0.1764	0.2126	0.5247	0.066
Mof_C 	C 	0.2313	0.1762	0.5603	0.037
Mof_C 	C 	0.2765	0.1817	0.5688	-0.144
Mof_H 	H 	0.2937	0.158	0.5943	0.064
Mof_C 	C 	0.2972	0.224	0.538	0.033
Mof_H 	H 	0.3283	0.2263	0.54	-0.031
Mof_C 	C 	0.1499	0.076	0.5714	0.073
Mof_H 	H 	0.123	0.0679	0.5448	-0.019
Mof_C 	C 	0.1691	0.1182	0.5504	-0.154
Mof_H 	H 	0.1547	0.1388	0.5123	0.074
Mof_C 	C 	0.2097	0.1303	0.5855	0.065
Mof_C 	C 	0.2281	0.1002	0.6428	-0.165
Mof_H 	H 	0.2554	0.1075	0.6687	0.074
Mof_C 	C 	0.207	0.0586	0.6636	0.08
Mof_H 	H 	0.2206	0.0385	0.7037	-0.02
Mof_C 	C 	0.0905	0.035	0.8047	0.077
Mof_H 	H 	0.1036	0.0616	0.7803	-0.026
Mof_C 	C 	0.0564	0.0404	0.8649	-0.143
Mof_H 	H 	0.0464	0.0706	0.8784	0.079
Mof_C 	C 	0.0365	0.0013	0.9063	0.055
Mof_C 	C 	0.0535	0.9572	0.8828	-0.138
Mof_H 	H 	0.0427	0.9299	0.9093	0.069
Mof_C 	C 	0.0862	0.9546	0.8205	0.065
Mof_H 	H 	0.0964	0.9249	0.8042	-0.017
Mof_C 	C 	0.9323	0.0452	0.0186	0.085
Mof_H 	H 	0.9136	0.0715	0.0166	-0.022
Mof_C 	C 	0.9658	0.0435	0.9584	-0.143
Mof_H 	H 	0.9679	0.0659	0.914	0.077
Mof_C 	C 	0.9981	0.0055	0.9659	0.041
Mof_C 	C 	0.991	0.974	0.0319	-0.12
Mof_H 	H 	0.0113	0.9494	0.0401	0.065
Mof_C 	C 	0.9543	0.9777	0.0871	0.056
Mof_H 	H 	0.9504	0.9552	0.1307	-0.009
Mof_C 	C 	0.1491	0.8815	0.6585	0.06
Mof_H 	H 	0.1183	0.8798	0.6506	-0.02
Mof_C 	C 	0.1729	0.8399	0.674	-0.139
Mof_H 	H 	0.1576	0.8114	0.6768	0.057
Mof_C 	C 	0.2195	0.8406	0.6855	0.018
Mof_C 	C 	0.24	0.8853	0.6787	-0.122
Mof_H 	H 	0.2707	0.8885	0.6856	0.064
Mof_C 	C 	0.2137	0.9239	0.6617	0.062
Mof_H 	H 	0.228	0.9528	0.6545	-0.014
Mof_C 	C 	0.2494	0.7207	0.766	0.094
Mof_H 	H 	0.2344	0.6943	0.787	-0.029
Mof_C 	C 	0.2244	0.7579	0.7389	-0.178
Mof_H 	H 	0.1933	0.7557	0.7395	0.081
Mof_C 	C 	0.2437	0.7975	0.7115	0.077
Mof_C 	C 	0.2902	0.7964	0.7094	-0.186
Mof_H 	H 	0.3061	0.8226	0.6902	0.079
Mof_C 	C 	0.3127	0.7567	0.7356	0.081
Mof_H 	H 	0.3438	0.7569	0.7321	-0.042
Mof_Cu	Cu	0.32957	0.66842	0.8205	0.829
Mof_Cu	Cu	0.69348	0.6867	0.9573	0.835
Mof_Cu	Cu	0.86604	0.01558	0.15799	0.847
Mof_N 	N 	0.3944	0.6748	0.8515	-0.254
Mof_N 	N 	0.628	0.6899	0.9309	-0.25
Mof_N 	N 	0.7188	0.6243	0.9299	-0.263
Mof_N 	N 	0.8041	0.3953	0.8492	-0.255
Mof_N 	N 	0.7259	0.7401	0.0069	-0.256
Mof_N 	N 	0.8319	0.9543	0.1288	-0.243
Mof_N 	N 	0.8951	0.0073	0.2809	-0.235
Mof_N 	N 	0.0767	0.9865	0.5798	-0.234
Mof_N 	N 	0.8311	0.0769	0.1546	-0.242
Mof_N 	N 	0.7063	0.2807	0.2646	-0.274
Mof_C 	C 	0.4232	0.684	0.7858	0.06
Mof_H 	H 	0.4121	0.686	0.7289	-0.028
Mof_C 	C 	0.4693	0.6907	0.7997	-0.133
Mof_H 	H 	0.4876	0.7	0.7536	0.069
Mof_C 	C 	0.4874	0.6834	0.8825	0.055
Mof_C 	C 	0.4578	0.6718	0.9486	-0.151
Mof_H 	H 	0.4682	0.6673	0.0053	0.079
Mof_C 	C 	0.4132	0.667	0.9309	0.077
Mof_H 	H 	0.3945	0.6577	0.9764	-0.024
Mof_C 	C 	0.6112	0.6767	0.8514	0.061
Mof_H 	H 	0.6311	0.6683	0.8074	-0.021
Mof_C 	C 	0.5659	0.6754	0.8332	-0.134
Mof_H 	H 	0.5561	0.6666	0.7778	0.068
Mof_C 	C 	0.5354	0.687	0.8971	0.05
Mof_C 	C 	0.5523	0.7017	0.9782	-0.137
Mof_H 	H 	0.5328	0.7104	0.0229	0.073
Mof_C 	C 	0.5974	0.7032	0.9915	0.062
Mof_H 	H 	0.6078	0.7141	0.0453	-0.019
Mof_C 	C 	0.6929	0.5862	0.9187	0.093
Mof_H 	H 	0.6622	0.5905	0.9245	-0.037
Mof_C 	C 	0.7068	0.5433	0.9003	-0.174
Mof_H 	H 	0.6865	0.5196	0.8867	0.077
Mof_C 	C 	0.7537	0.534	0.9017	0.071
Mof_C 	C 	0.7808	0.5699	0.9199	-0.165
Mof_H 	H 	0.8116	0.5656	0.9223	0.08
Mof_C 	C 	0.7622	0.6135	0.9351	0.091
Mof_H 	H 	0.7817	0.6377	0.9504	-0.027
Mof_C 	C 	0.8291	0.428	0.8928	0.061
Mof_H 	H 	0.8581	0.4199	0.9093	-0.014
Mof_C 	C 	0.814	0.4723	0.9136	-0.133
Mof_H 	H 	0.8315	0.493	0.946	0.07
Mof_C 	C 	0.7711	0.4855	0.8845	0.047
Mof_C 	C 	0.7462	0.4513	0.846	-0.149
Mof_H 	H 	0.7164	0.4572	0.8324	0.074
Mof_C 	C 	0.7644	0.408	0.8266	0.094
Mof_H 	H 	0.7469	0.3866	0.7954	-0.031
Mof_C 	C 	0.7712	0.7461	0.0011	0.071
Mof_H 	H 	0.7882	0.7217	0.9774	-0.022
Mof_C 	C 	0.7925	0.7857	0.028	-0.139
Mof_H 	H 	0.8236	0.7874	0.0247	0.069
Mof_C 	C 	0.7687	0.8238	0.0603	0.041
Mof_C 	C 	0.7235	0.8183	0.0688	-0.145
Mof_H 	H 	0.7063	0.842	0.0943	0.065
Mof_C 	C 	0.7028	0.776	0.038	0.035
Mof_H 	H 	0.6717	0.7737	0.04	-0.03
Mof_C 	C 	0.8501	0.924	0.0714	0.073
Mof_H 	H 	0.877	0.9321	0.0448	-0.018
Mof_C 	C 	0.8309	0.8818	0.0504	-0.152
Mof_H 	H 	0.8453	0.8612	0.0123	0.074
Mof_C 	C 	0.7903	0.8697	0.0855	0.064
Mof_C 	C 	0.7719	0.8998	0.1428	-0.164
Mof_H 	H 	0.7446	0.8925	0.1687	0.074
Mof_C 	C 	0.793	0.9414	0.1636	0.08
Mof_H 	H 	0.7794	0.9615	0.2037	-0.019
Mof_C 	C 	0.9095	0.965	0.3047	0.077
Mof_H 	H 	0.8964	0.9384	0.2803	-0.025
Mof_C 	C 	0.9436	0.9596	0.3649	-0.142
Mof_H 	H 	0.9536	0.9294	0.3784	0.079
Mof_C 	C 	0.9635	0.9987	0.4063	0.054
Mof_C 	C 	0.9465	0.0428	0.3828	-0.137
Mof_H 	H 	0.9573	0.0701	0.4093	0.07
Mof_C 	C 	0.9138	0.0454	0.3205	0.065
Mof_H 	H 	0.9036	0.0751	0.3042	-0.016
Mof_C 	C 	0.0677	0.9548	0.5186	0.079
Mof_H 	H 	0.0864	0.9285	0.5166	-0.021
Mof_C 	C 	0.0342	0.9565	0.4584	-0.138
Mof_H 	H 	0.0321	0.9341	0.414	0.076
Mof_C 	C 	0.0019	0.9945	0.4659	0.045
Mof_C 	C 	0.009	0.026	0.5319	-0.125
Mof_H 	H 	0.9887	0.0506	0.5401	0.066
Mof_C 	C 	0.0457	0.0223	0.5871	0.057
Mof_H 	H 	0.0496	0.0448	0.6307	-0.01
Mof_C 	C 	0.8509	0.1185	0.1585	0.06
Mof_H 	H 	0.8817	0.1202	0.1506	-0.02
Mof_C 	C 	0.8271	0.1601	0.174	-0.139
Mof_H 	H 	0.8424	0.1886	0.1768	0.057
Mof_C 	C 	0.7805	0.1594	0.1855	0.019
Mof_C 	C 	0.76	0.1147	0.1787	-0.122
Mof_H 	H 	0.7293	0.1115	0.1856	0.065
Mof_C 	C 	0.7863	0.0761	0.1617	0.062
Mof_H 	H 	0.772	0.0472	0.1545	-0.014
Mof_C 	C 	0.7506	0.2793	0.266	0.094
Mof_H 	H 	0.7656	0.3057	0.287	-0.029
Mof_C 	C 	0.7756	0.2421	0.2389	-0.178
Mof_H 	H 	0.8067	0.2443	0.2395	0.081
Mof_C 	C 	0.7563	0.2025	0.2115	0.078
Mof_C 	C 	0.7098	0.2036	0.2094	-0.186
Mof_H 	H 	0.6939	0.1774	0.1902	0.08
Mof_C 	C 	0.6873	0.2433	0.2356	0.081
Mof_H 	H 	0.6562	0.2431	0.2321	-0.042
Mof_Cu	Cu	0.17043	0.66842	0.3205	0.829
Mof_Cu	Cu	0.80652	0.6867	0.4573	0.836
Mof_Cu	Cu	0.63396	0.01558	0.65799	0.847
Mof_N 	N 	0.1056	0.6748	0.3515	-0.253
Mof_N 	N 	0.872	0.6899	0.4309	-0.251
Mof_N 	N 	0.7812	0.6243	0.4299	-0.263
Mof_N 	N 	0.6959	0.3953	0.3492	-0.255
Mof_N 	N 	0.7741	0.7401	0.5069	-0.256
Mof_N 	N 	0.6681	0.9543	0.6288	-0.244
Mof_N 	N 	0.6049	0.0073	0.7809	-0.235
Mof_N 	N 	0.4233	0.9865	0.0798	-0.235
Mof_N 	N 	0.6689	0.0769	0.6546	-0.242
Mof_N 	N 	0.7937	0.2807	0.7646	-0.274
Mof_C 	C 	0.0768	0.684	0.2858	0.058
Mof_H 	H 	0.0879	0.686	0.2289	-0.027
Mof_C 	C 	0.0307	0.6907	0.2997	-0.13
Mof_H 	H 	0.0124	0.7	0.2536	0.068
Mof_C 	C 	0.0126	0.6834	0.3825	0.051
Mof_C 	C 	0.0422	0.6718	0.4486	-0.14
Mof_H 	H 	0.0318	0.6673	0.5053	0.072
Mof_C 	C 	0.0868	0.667	0.4309	0.072
Mof_H 	H 	0.1055	0.6577	0.4764	-0.021
Mof_C 	C 	0.8888	0.6767	0.3514	0.061
Mof_H 	H 	0.8689	0.6683	0.3074	-0.021
Mof_C 	C 	0.9341	0.6754	0.3332	-0.134
Mof_H 	H 	0.9439	0.6666	0.2778	0.069
Mof_C 	C 	0.9646	0.687	0.3971	0.051
Mof_C 	C 	0.9477	0.7017	0.4782	-0.134
Mof_H 	H 	0.9672	0.7104	0.5229	0.069
Mof_C 	C 	0.9026	0.7032	0.4915	0.067
Mof_H 	H 	0.8922	0.7141	0.5453	-0.023
Mof_C 	C 	0.8071	0.5862	0.4187	0.094
Mof_H 	H 	0.8378	0.5905	0.4245	-0.037
Mof_C 	C 	0.7932	0.5433	0.4003	-0.173
Mof_H 	H 	0.8135	0.5196	0.3867	0.078
Mof_C 	C 	0.7463	0.534	0.4017	0.072
Mof_C 	C 	0.7192	0.5699	0.4199	-0.165
Mof_H 	H 	0.6884	0.5656	0.4223	0.08
Mof_C 	C 	0.7378	0.6135	0.4351	0.091
Mof_H 	H 	0.7183	0.6377	0.4504	-0.027
Mof_C 	C 	0.6709	0.428	0.3928	0.062
Mof_H 	H 	0.6419	0.4199	0.4093	-0.014
Mof_C 	C 	0.686	0.4723	0.4136	-0.133
Mof_H 	H 	0.6685	0.493	0.446	0.071
Mof_C 	C 	0.7289	0.4855	0.3845	0.048
Mof_C 	C 	0.7538	0.4513	0.346	-0.149
Mof_H 	H 	0.7836	0.4572	0.3324	0.075
Mof_C 	C 	0.7356	0.408	0.3266	0.095
Mof_H 	H 	0.7531	0.3866	0.2954	-0.031
Mof_C 	C 	0.7288	0.7461	0.5011	0.061
Mof_H 	H 	0.7118	0.7217	0.4774	-0.016
Mof_C 	C 	0.7075	0.7857	0.528	-0.134
Mof_H 	H 	0.6764	0.7874	0.5247	0.066
Mof_C 	C 	0.7313	0.8238	0.5603	0.037
Mof_C 	C 	0.7765	0.8183	0.5688	-0.144
Mof_H 	H 	0.7937	0.842	0.5943	0.064
Mof_C 	C 	0.7972	0.776	0.538	0.033
Mof_H 	H 	0.8283	0.7737	0.54	-0.031
Mof_C 	C 	0.6499	0.924	0.5714	0.073
Mof_H 	H 	0.623	0.9321	0.5448	-0.019
Mof_C 	C 	0.6691	0.8818	0.5504	-0.154
Mof_H 	H 	0.6547	0.8612	0.5123	0.074
Mof_C 	C 	0.7097	0.8697	0.5855	0.065
Mof_C 	C 	0.7281	0.8998	0.6428	-0.165
Mof_H 	H 	0.7554	0.8925	0.6687	0.075
Mof_C 	C 	0.707	0.9414	0.6636	0.08
Mof_H 	H 	0.7206	0.9615	0.7037	-0.02
Mof_C 	C 	0.5905	0.965	0.8047	0.077
Mof_H 	H 	0.6036	0.9384	0.7803	-0.025
Mof_C 	C 	0.5564	0.9596	0.8649	-0.142
Mof_H 	H 	0.5464	0.9294	0.8784	0.079
Mof_C 	C 	0.5365	0.9987	0.9063	0.053
Mof_C 	C 	0.5535	0.0428	0.8828	-0.137
Mof_H 	H 	0.5427	0.0701	0.9093	0.069
Mof_C 	C 	0.5862	0.0454	0.8205	0.065
Mof_H 	H 	0.5964	0.0751	0.8042	-0.016
Mof_C 	C 	0.4323	0.9548	0.0186	0.086
Mof_H 	H 	0.4136	0.9285	0.0166	-0.022
Mof_C 	C 	0.4658	0.9565	0.9584	-0.144
Mof_H 	H 	0.4679	0.9341	0.914	0.077
Mof_C 	C 	0.4981	0.9945	0.9659	0.043
Mof_C 	C 	0.491	0.026	0.0319	-0.122
Mof_H 	H 	0.5113	0.0506	0.0401	0.066
Mof_C 	C 	0.4543	0.0223	0.0871	0.056
Mof_H 	H 	0.4504	0.0448	0.1307	-0.01
Mof_C 	C 	0.6491	0.1185	0.6585	0.06
Mof_H 	H 	0.6183	0.1202	0.6506	-0.02
Mof_C 	C 	0.6729	0.1601	0.674	-0.139
Mof_H 	H 	0.6576	0.1886	0.6768	0.057
Mof_C 	C 	0.7195	0.1594	0.6855	0.018
Mof_C 	C 	0.74	0.1147	0.6787	-0.122
Mof_H 	H 	0.7707	0.1115	0.6856	0.064
Mof_C 	C 	0.7137	0.0761	0.6617	0.062
Mof_H 	H 	0.728	0.0472	0.6545	-0.014
Mof_C 	C 	0.7494	0.2793	0.766	0.094
Mof_H 	H 	0.7344	0.3057	0.787	-0.029
Mof_C 	C 	0.7244	0.2421	0.7389	-0.178
Mof_H 	H 	0.6933	0.2443	0.7395	0.081
Mof_C 	C 	0.7437	0.2025	0.7115	0.078
Mof_C 	C 	0.7902	0.2036	0.7094	-0.186
Mof_H 	H 	0.8061	0.1774	0.6902	0.079
Mof_C 	C 	0.8127	0.2433	0.7356	0.081
Mof_H 	H 	0.8438	0.2431	0.7321	-0.042
Mof_Cu	Cu	0.82957	0.33158	0.8205	0.829
Mof_Cu	Cu	0.19348	0.3133	0.9573	0.835
Mof_Cu	Cu	0.36604	0.98442	0.15799	0.847
Mof_N 	N 	0.8944	0.3252	0.8515	-0.254
Mof_N 	N 	0.128	0.3101	0.9309	-0.25
Mof_N 	N 	0.2188	0.3757	0.9299	-0.263
Mof_N 	N 	0.3041	0.6047	0.8492	-0.255
Mof_N 	N 	0.2259	0.2599	0.0069	-0.256
Mof_N 	N 	0.3319	0.0457	0.1288	-0.243
Mof_N 	N 	0.3951	0.9927	0.2809	-0.235
Mof_N 	N 	0.5767	0.0135	0.5798	-0.234
Mof_N 	N 	0.3311	0.9231	0.1546	-0.242
Mof_N 	N 	0.2063	0.7193	0.2646	-0.274
Mof_C 	C 	0.9232	0.316	0.7858	0.06
Mof_H 	H 	0.9121	0.314	0.7289	-0.028
Mof_C 	C 	0.9693	0.3093	0.7997	-0.133
Mof_H 	H 	0.9876	0.3	0.7536	0.069
Mof_C 	C 	0.9874	0.3166	0.8825	0.055
Mof_C 	C 	0.9578	0.3282	0.9486	-0.15
Mof_H 	H 	0.9682	0.3327	0.0053	0.079
Mof_C 	C 	0.9132	0.333	0.9309	0.077
Mof_H 	H 	0.8945	0.3423	0.9764	-0.024
Mof_C 	C 	0.1112	0.3233	0.8514	0.061
Mof_H 	H 	0.1311	0.3317	0.8074	-0.021
Mof_C 	C 	0.0659	0.3246	0.8332	-0.134
Mof_H 	H 	0.0561	0.3334	0.7778	0.068
Mof_C 	C 	0.0354	0.313	0.8971	0.05
Mof_C 	C 	0.0523	0.2983	0.9782	-0.138
Mof_H 	H 	0.0328	0.2896	0.0229	0.073
Mof_C 	C 	0.0974	0.2968	0.9915	0.062
Mof_H 	H 	0.1078	0.2859	0.0453	-0.019
Mof_C 	C 	0.1929	0.4138	0.9187	0.093
Mof_H 	H 	0.1622	0.4095	0.9245	-0.037
Mof_C 	C 	0.2068	0.4567	0.9003	-0.174
Mof_H 	H 	0.1865	0.4804	0.8867	0.077
Mof_C 	C 	0.2537	0.466	0.9017	0.071
Mof_C 	C 	0.2808	0.4301	0.9199	-0.165
Mof_H 	H 	0.3116	0.4344	0.9223	0.08
Mof_C 	C 	0.2622	0.3865	0.9351	0.091
Mof_H 	H 	0.2817	0.3623	0.9504	-0.027
Mof_C 	C 	0.3291	0.572	0.8928	0.061
Mof_H 	H 	0.3581	0.5801	0.9093	-0.014
Mof_C 	C 	0.314	0.5277	0.9136	-0.133
Mof_H 	H 	0.3315	0.507	0.946	0.07
Mof_C 	C 	0.2711	0.5145	0.8845	0.047
Mof_C 	C 	0.2462	0.5487	0.846	-0.149
Mof_H 	H 	0.2164	0.5428	0.8324	0.074
Mof_C 	C 	0.2644	0.592	0.8266	0.094
Mof_H 	H 	0.2469	0.6134	0.7954	-0.031
Mof_C 	C 	0.2712	0.2539	0.0011	0.071
Mof_H 	H 	0.2882	0.2783	0.9774	-0.022
Mof_C 	C 	0.2925	0.2143	0.028	-0.139
Mof_H 	H 	0.3236	0.2126	0.0247	0.069
Mof_C 	C 	0.2687	0.1762	0.0603	0.041
Mof_C 	C 	0.2235	0.1817	0.0688	-0.145
Mof_H 	H 	0.2063	0.158	0.0943	0.065
Mof_C 	C 	0.2028	0.224	0.038	0.035
Mof_H 	H 	0.1717	0.2263	0.04	-0.03
Mof_C 	C 	0.3501	0.076	0.0714	0.073
Mof_H 	H 	0.377	0.0679	0.0448	-0.018
Mof_C 	C 	0.3309	0.1182	0.0504	-0.152
Mof_H 	H 	0.3453	0.1388	0.0123	0.074
Mof_C 	C 	0.2903	0.1303	0.0855	0.064
Mof_C 	C 	0.2719	0.1002	0.1428	-0.164
Mof_H 	H 	0.2446	0.1075	0.1687	0.074
Mof_C 	C 	0.293	0.0586	0.1636	0.08
Mof_H 	H 	0.2794	0.0385	0.2037	-0.019
Mof_C 	C 	0.4095	0.035	0.3047	0.076
Mof_H 	H 	0.3964	0.0616	0.2803	-0.025
Mof_C 	C 	0.4436	0.0404	0.3649	-0.141
Mof_H 	H 	0.4536	0.0706	0.3784	0.079
Mof_C 	C 	0.4635	0.0013	0.4063	0.052
Mof_C 	C 	0.4465	0.9572	0.3828	-0.136
Mof_H 	H 	0.4573	0.9299	0.4093	0.069
Mof_C 	C 	0.4138	0.9546	0.3205	0.065
Mof_H 	H 	0.4036	0.9249	0.3042	-0.016
Mof_C 	C 	0.5677	0.0452	0.5186	0.08
Mof_H 	H 	0.5864	0.0715	0.5166	-0.021
Mof_C 	C 	0.5342	0.0435	0.4584	-0.139
Mof_H 	H 	0.5321	0.0659	0.414	0.076
Mof_C 	C 	0.5019	0.0055	0.4659	0.046
Mof_C 	C 	0.509	0.974	0.5319	-0.127
Mof_H 	H 	0.4887	0.9494	0.5401	0.067
Mof_C 	C 	0.5457	0.9777	0.5871	0.058
Mof_H 	H 	0.5496	0.9552	0.6307	-0.01
Mof_C 	C 	0.3509	0.8815	0.1585	0.06
Mof_H 	H 	0.3817	0.8798	0.1506	-0.02
Mof_C 	C 	0.3271	0.8399	0.174	-0.139
Mof_H 	H 	0.3424	0.8114	0.1768	0.057
Mof_C 	C 	0.2805	0.8406	0.1855	0.019
Mof_C 	C 	0.26	0.8853	0.1787	-0.122
Mof_H 	H 	0.2293	0.8885	0.1856	0.065
Mof_C 	C 	0.2863	0.9239	0.1617	0.062
Mof_H 	H 	0.272	0.9528	0.1545	-0.014
Mof_C 	C 	0.2506	0.7207	0.266	0.094
Mof_H 	H 	0.2656	0.6943	0.287	-0.029
Mof_C 	C 	0.2756	0.7579	0.2389	-0.178
Mof_H 	H 	0.3067	0.7557	0.2395	0.081
Mof_C 	C 	0.2563	0.7975	0.2115	0.078
Mof_C 	C 	0.2098	0.7964	0.2094	-0.186
Mof_H 	H 	0.1939	0.8226	0.1902	0.08
Mof_C 	C 	0.1873	0.7567	0.2356	0.081
Mof_H 	H 	0.1562	0.7569	0.2321	-0.042
_end
