data_functionalizedCrystal
_audit_creation_method	'EQeq! by Chris Wilmer'
_symmetry_space_group_name_H-M	'P1'
_symmetry_Int_Tables_number	1
_symmetry_cell_setting	triclinic
loop_
_symmetry_equiv_pos_as_xyz
  x,y,z
_cell_length_a	12.774
_cell_length_b	19.299
_cell_length_c	11.056
_cell_angle_alpha	90
_cell_angle_beta	98.752
_cell_angle_gamma	90
loop_
_atom_site_label
_atom_site_type_symbol
_atom_site_fract_x
_atom_site_fract_y
_atom_site_fract_z
_atom_site_charge
Mof_C 	C 	5.2753e-18	0.363	0.252	-0.103
Mof_H 	H 	0.9295	0.3768	0.2351	0.033
Mof_C 	C 	0.1466	0.3212	0.229	0.059
Mof_H 	H 	0.2025	0.3007	0.1974	-0.074
Mof_C 	C 	0.2407	0.3457	0.4442	-0.066
Mof_H 	H 	0.2385	0.3882	0.4906	0.009
Mof_H 	H 	0.3066	0.345	0.4107	0.025
Mof_C 	C 	0.2363	0.2834	0.5286	-0.097
Mof_H 	H 	0.2851	0.2908	0.6036	0.043
Mof_H 	H 	0.1655	0.2797	0.5498	0.022
Mof_N 	N 	0.051	0.3324	0.1676	-0.303
Mof_N 	N 	0.0569	0.3715	0.3579	-0.208
Mof_N 	N 	0.1504	0.3439	0.3435	-0.107
Mof_C 	C 	0.5	0.863	0.252	0.073
Mof_H 	H 	0.4295	0.8768	0.2351	-0.103
Mof_C 	C 	0.6466	0.8212	0.229	0.059
Mof_H 	H 	0.7025	0.8007	0.1974	-0.063
Mof_C 	C 	0.7407	0.8457	0.4442	-0.068
Mof_H 	H 	0.7385	0.8882	0.4906	0.014
Mof_H 	H 	0.8066	0.845	0.4107	0.037
Mof_C 	C 	0.7363	0.7834	0.5286	-0.096
Mof_H 	H 	0.7851	0.7908	0.6036	0.053
Mof_H 	H 	0.6655	0.7797	0.5498	0.032
Mof_N 	N 	0.551	0.8324	0.1676	-0.319
Mof_N 	N 	0.5569	0.8715	0.3579	-0.232
Mof_N 	N 	0.6504	0.8439	0.3435	-0.104
Mof_C 	C 	-2.11012e-17	0.363	0.748	-0.107
Mof_H 	H 	0.0705	0.3768	0.7649	0
Mof_C 	C 	0.8534	0.3212	0.771	0.097
Mof_H 	H 	0.7975	0.3007	0.8026	-0.015
Mof_C 	C 	0.7593	0.3457	0.5558	-0.064
Mof_H 	H 	0.7615	0.3882	0.5094	0.016
Mof_H 	H 	0.6934	0.345	0.5893	0.038
Mof_C 	C 	0.7637	0.2834	0.4714	-0.09
Mof_H 	H 	0.7149	0.2908	0.3964	0.03
Mof_H 	H 	0.8345	0.2797	0.4502	0.041
Mof_N 	N 	0.949	0.3324	0.8324	-0.169
Mof_N 	N 	0.9431	0.3715	0.6421	-0.131
Mof_N 	N 	0.8496	0.3439	0.6565	-0.094
Mof_C 	C 	0.5	0.863	0.748	0.088
Mof_H 	H 	0.5705	0.8768	0.7649	-0.054
Mof_C 	C 	0.3534	0.8212	0.771	0.077
Mof_H 	H 	0.2975	0.8007	0.8026	-0.028
Mof_C 	C 	0.2593	0.8457	0.5558	-0.06
Mof_H 	H 	0.2615	0.8882	0.5094	-0.009
Mof_H 	H 	0.1934	0.845	0.5893	0.018
Mof_C 	C 	0.2637	0.7834	0.4714	-0.086
Mof_H 	H 	0.2149	0.7908	0.3964	0.015
Mof_H 	H 	0.3345	0.7797	0.4502	0.02
Mof_N 	N 	0.449	0.8324	0.8324	-0.256
Mof_N 	N 	0.4431	0.8715	0.6421	-0.227
Mof_N 	N 	0.3496	0.8439	0.6565	-0.103
Mof_C 	C 	-2.11012e-17	0.637	0.748	-0.107
Mof_H 	H 	0.0705	0.6232	0.7649	-0
Mof_C 	C 	0.8534	0.6788	0.771	0.096
Mof_H 	H 	0.7975	0.6993	0.8026	-0.016
Mof_C 	C 	0.7593	0.6543	0.5558	-0.066
Mof_H 	H 	0.7615	0.6118	0.5094	0.017
Mof_H 	H 	0.6934	0.655	0.5893	0.039
Mof_C 	C 	0.7637	0.7166	0.4714	-0.086
Mof_H 	H 	0.7149	0.7092	0.3964	0.029
Mof_H 	H 	0.8345	0.7203	0.4502	0.038
Mof_N 	N 	0.949	0.6676	0.8324	-0.17
Mof_N 	N 	0.9431	0.6285	0.6421	-0.131
Mof_N 	N 	0.8496	0.6561	0.6565	-0.094
Mof_C 	C 	0.5	0.137	0.748	0.093
Mof_H 	H 	0.5705	0.1232	0.7649	-0.046
Mof_C 	C 	0.3534	0.1788	0.771	0.081
Mof_H 	H 	0.2975	0.1993	0.8026	-0.026
Mof_C 	C 	0.2593	0.1543	0.5558	-0.068
Mof_H 	H 	0.2615	0.1118	0.5094	0.004
Mof_H 	H 	0.1934	0.155	0.5893	0.027
Mof_C 	C 	0.2637	0.2166	0.4714	-0.081
Mof_H 	H 	0.2149	0.2092	0.3964	0.017
Mof_H 	H 	0.3345	0.2203	0.4502	0.019
Mof_N 	N 	0.449	0.1676	0.8324	-0.253
Mof_N 	N 	0.4431	0.1285	0.6421	-0.222
Mof_N 	N 	0.3496	0.1561	0.6565	-0.1
Mof_C 	C 	5.2753e-18	0.637	0.252	-0.105
Mof_H 	H 	0.9295	0.6232	0.2351	0.031
Mof_C 	C 	0.1466	0.6788	0.229	0.057
Mof_H 	H 	0.2025	0.6993	0.1974	-0.077
Mof_C 	C 	0.2407	0.6543	0.4442	-0.069
Mof_H 	H 	0.2385	0.6118	0.4906	0.009
Mof_H 	H 	0.3066	0.655	0.4107	0.025
Mof_C 	C 	0.2363	0.7166	0.5286	-0.094
Mof_H 	H 	0.2851	0.7092	0.6036	0.042
Mof_H 	H 	0.1655	0.7203	0.5498	0.019
Mof_N 	N 	0.051	0.6676	0.1676	-0.304
Mof_N 	N 	0.0569	0.6285	0.3579	-0.208
Mof_N 	N 	0.1504	0.6561	0.3435	-0.106
Mof_C 	C 	0.5	0.137	0.252	0.077
Mof_H 	H 	0.4295	0.1232	0.2351	-0.096
Mof_C 	C 	0.6466	0.1788	0.229	0.063
Mof_H 	H 	0.7025	0.1993	0.1974	-0.061
Mof_C 	C 	0.7407	0.1543	0.4442	-0.076
Mof_H 	H 	0.7385	0.1118	0.4906	0.027
Mof_H 	H 	0.8066	0.155	0.4107	0.046
Mof_C 	C 	0.7363	0.2166	0.5286	-0.091
Mof_H 	H 	0.7851	0.2092	0.6036	0.055
Mof_H 	H 	0.6655	0.2203	0.5498	0.032
Mof_N 	N 	0.551	0.1676	0.1676	-0.317
Mof_N 	N 	0.5569	0.1285	0.3579	-0.227
Mof_N 	N 	0.6504	0.1561	0.3435	-0.101
Mof_Cu	Cu	4.68541e-33	0.32289	-0	0.683
Mof_Cu	Cu	0.5	0.82289	-0	0.715
Mof_Cu	Cu	-9.37081e-33	0.67711	-0	0.682
Mof_Cu	Cu	0.5	0.17711	-0	0.72
Mof_Cu	Cu	1.86945e-33	0.4101	0.5	0.835
Mof_Cu	Cu	0.5	0.9101	0.5	0.855
Mof_Cu	Cu	1.86945e-33	0.5899	0.5	0.835
Mof_Cu	Cu	0.5	0.0899	0.5	0.866
Mof_O 	O 	1.86945e-33	0.5	0.5	-0.625
Mof_O 	O 	0.5	2.3427e-33	0.5	-0.574
_end
