data_functionalizedCrystal
_audit_creation_method	'EQeq! by Chris Wilmer'
_symmetry_space_group_name_H-M	'P1'
_symmetry_Int_Tables_number	1
_symmetry_cell_setting	triclinic
loop_
_symmetry_equiv_pos_as_xyz
  x,y,z
_cell_length_a	25.6621
_cell_length_b	16.1587
_cell_length_c	26.5745
_cell_angle_alpha	90
_cell_angle_beta	113.21
_cell_angle_gamma	90
loop_
_atom_site_label
_atom_site_type_symbol
_atom_site_fract_x
_atom_site_fract_y
_atom_site_fract_z
_atom_site_charge
Mof_C 	C 	0.1179	0.9249	0.1559	0.327
Mof_C 	C 	0.1452	0.9708	0.2088	-0.095
Mof_C 	C 	0.1236	0.9648	0.2491	0.015
Mof_H 	H 	0.0912	0.9311	0.2427	0.03
Mof_C 	C 	0.1488	0.0078	0.2996	-0.082
Mof_C 	C 	0.1955	0.0564	0.309	0.062
Mof_C 	C 	0.2174	0.0653	0.267	-0.112
Mof_H 	H 	0.2478	0.1023	0.2718	0.064
Mof_C 	C 	0.1933	0.0192	0.2199	0.017
Mof_H 	H 	0.2103	0.0204	0.1939	0.031
Mof_C 	C 	0.0543	0.9835	0.464	0.622
Mof_C 	C 	0.0786	0.9885	0.4207	-0.454
Mof_C 	C 	0.1251	0.0373	0.4301	0.187
Mof_H 	H 	0.1414	0.0668	0.4637	-0.033
Mof_C 	C 	0.1495	0.0448	0.3903	-0.145
Mof_C 	C 	0.1236	0	0.3403	0.119
Mof_C 	C 	0.0767	0.9515	0.3327	-0.227
Mof_H 	H 	0.0589	0.9232	0.2989	0.1
Mof_C 	C 	0.0543	0.9422	0.3725	0.218
Mof_H 	H 	0.0235	0.9056	0.367	-0.049
Mof_C 	C 	0.3446	0.2519	0.4302	0.3
Mof_C 	C 	0.2946	0.1955	0.4195	-0.094
Mof_C 	C 	0.2701	0.1531	0.372	0.007
Mof_H 	H 	0.286	0.1582	0.3454	0.037
Mof_C 	C 	0.2231	0.1026	0.3601	-0.062
Mof_C 	C 	0.1988	0.0971	0.4004	0.084
Mof_C 	C 	0.2258	0.141	0.4499	-0.138
Mof_H 	H 	0.2116	0.1359	0.4779	0.082
Mof_C 	C 	0.2709	0.1895	0.4586	0.038
Mof_H 	H 	0.287	0.2202	0.4917	0.022
Mof_O 	O 	0.1371	0.9334	0.1191	-0.439
Mof_O 	O 	0.0756	0.8805	0.1476	-0.449
Mof_O 	O 	0.0188	0.9286	0.4586	-0.601
Mof_O 	O 	0.0732	0.0312	0.5031	-0.584
Mof_O 	O 	0.3573	0.3044	0.4681	-0.427
Mof_O 	O 	0.3705	0.2459	0.398	-0.438
Mof_Tb	Tb	0.06294	0.8561	0.05294	2.077
Mof_O 	O 	0.0172	0.8078	0.9648	-0.212
Mof_C 	C 	0.9976	0.8327	0.912	0.13
Mof_C 	C 	0.9465	0.8879	0.8895	-0.471
Mof_H 	H 	0.9255	0.8756	0.8506	0.166
Mof_H 	H 	0.9587	0.9458	0.8938	0.159
Mof_H 	H 	0.9221	0.8781	0.9094	0.157
Mof_C 	C 	0.0738	0.7537	0.9039	-0.354
Mof_H 	H 	0.0634	0.7101	0.9238	0.124
Mof_H 	H 	0.1051	0.7865	0.9297	0.13
Mof_H 	H 	0.0856	0.7287	0.8765	0.123
Mof_N 	N 	0.0233	0.8093	0.8756	0.005
Mof_C 	C 	0.9942	0.8437	0.8185	-0.34
Mof_H 	H 	0.9531	0.8428	0.8079	0.215
Mof_H 	H 	0.004	0.8099	0.7929	0.02
Mof_H 	H 	0.0067	0.9008	0.8176	0.121
Mof_H 	H 	0.9099	0.256	0.3955	0.201
Mof_H 	H 	0.9556	0.3255	0.3989	0.197
Mof_H 	H 	0.9318	0.2649	0.3472	0.21
Mof_H 	H 	0.0648	0.1168	0.4545	0.143
Mof_H 	H 	0.0532	0.0397	0.4137	0.268
Mof_H 	H 	0.0816	0.1221	0.4027	0.174
Mof_H 	H 	0.9722	0.1175	0.303	0.064
Mof_H 	H 	0.9364	0.1896	0.3158	-0.063
Mof_H 	H 	0.9942	0.2111	0.3093	0.163
Mof_O 	O 	0.0135	0.207	0.4708	-0.269
Mof_C 	C 	0.9896	0.2092	0.4155	0.284
Mof_C 	C 	0.9426	0.269	0.3868	-0.635
Mof_C 	C 	0.0539	0.1	0.416	-0.457
Mof_N 	N 	0.0064	0.157	0.3817	-0.094
Mof_C 	C 	0.9746	0.17	0.3224	-0.155
Mof_C 	C 	0.6179	0.4249	0.1559	0.328
Mof_C 	C 	0.6452	0.4708	0.2088	-0.105
Mof_C 	C 	0.6236	0.4648	0.2491	0.012
Mof_H 	H 	0.5912	0.4311	0.2427	0.029
Mof_C 	C 	0.6488	0.5078	0.2996	-0.085
Mof_C 	C 	0.6955	0.5564	0.309	0.065
Mof_C 	C 	0.7174	0.5653	0.267	-0.118
Mof_H 	H 	0.7478	0.6023	0.2718	0.066
Mof_C 	C 	0.6933	0.5192	0.2199	0.027
Mof_H 	H 	0.7103	0.5204	0.1939	0.03
Mof_C 	C 	0.5543	0.4835	0.464	0.622
Mof_C 	C 	0.5786	0.4885	0.4207	-0.483
Mof_C 	C 	0.6251	0.5373	0.4301	0.209
Mof_H 	H 	0.6414	0.5668	0.4637	-0.04
Mof_C 	C 	0.6495	0.5448	0.3903	-0.157
Mof_C 	C 	0.6236	0.5	0.3403	0.134
Mof_C 	C 	0.5767	0.4515	0.3327	-0.248
Mof_H 	H 	0.5589	0.4232	0.2989	0.106
Mof_C 	C 	0.5543	0.4422	0.3725	0.236
Mof_H 	H 	0.5235	0.4056	0.367	-0.055
Mof_C 	C 	0.8446	0.7519	0.4302	0.301
Mof_C 	C 	0.7946	0.6955	0.4195	-0.095
Mof_C 	C 	0.7701	0.6531	0.372	0.009
Mof_H 	H 	0.786	0.6582	0.3454	0.036
Mof_C 	C 	0.7231	0.6026	0.3601	-0.066
Mof_C 	C 	0.6988	0.5971	0.4004	0.09
Mof_C 	C 	0.7258	0.641	0.4499	-0.142
Mof_H 	H 	0.7116	0.6359	0.4779	0.084
Mof_C 	C 	0.7709	0.6895	0.4586	0.042
Mof_H 	H 	0.787	0.7202	0.4917	0.021
Mof_O 	O 	0.6371	0.4334	0.1191	-0.441
Mof_O 	O 	0.5756	0.3805	0.1476	-0.449
Mof_O 	O 	0.5188	0.4286	0.4586	-0.602
Mof_O 	O 	0.5732	0.5312	0.5031	-0.581
Mof_O 	O 	0.8573	0.8044	0.4681	-0.427
Mof_O 	O 	0.8705	0.7459	0.398	-0.438
Mof_Tb	Tb	0.56294	0.3561	0.05294	2.078
Mof_O 	O 	0.5172	0.3078	0.9648	-0.213
Mof_C 	C 	0.4976	0.3327	0.912	0.13
Mof_C 	C 	0.4465	0.3879	0.8895	-0.469
Mof_H 	H 	0.4255	0.3756	0.8506	0.164
Mof_H 	H 	0.4587	0.4458	0.8938	0.157
Mof_H 	H 	0.4221	0.3781	0.9094	0.156
Mof_C 	C 	0.5738	0.2537	0.9039	-0.353
Mof_H 	H 	0.5634	0.2101	0.9238	0.122
Mof_H 	H 	0.6051	0.2865	0.9297	0.129
Mof_H 	H 	0.5856	0.2287	0.8765	0.122
Mof_N 	N 	0.5233	0.3093	0.8756	0.004
Mof_C 	C 	0.4942	0.3437	0.8185	-0.335
Mof_H 	H 	0.4531	0.3428	0.8079	0.21
Mof_H 	H 	0.504	0.3099	0.7929	0.018
Mof_H 	H 	0.5067	0.4008	0.8176	0.117
Mof_H 	H 	0.4099	0.756	0.3955	0.202
Mof_H 	H 	0.4556	0.8255	0.3989	0.198
Mof_H 	H 	0.4318	0.7649	0.3472	0.211
Mof_H 	H 	0.5648	0.6168	0.4545	0.149
Mof_H 	H 	0.5532	0.5397	0.4137	0.285
Mof_H 	H 	0.5816	0.6221	0.4027	0.179
Mof_H 	H 	0.4722	0.6175	0.303	0.064
Mof_H 	H 	0.4364	0.6896	0.3158	-0.063
Mof_H 	H 	0.4942	0.7111	0.3093	0.164
Mof_O 	O 	0.5135	0.707	0.4708	-0.269
Mof_C 	C 	0.4896	0.7092	0.4155	0.286
Mof_C 	C 	0.4426	0.769	0.3868	-0.637
Mof_C 	C 	0.5539	0.6	0.416	-0.476
Mof_N 	N 	0.5064	0.657	0.3817	-0.091
Mof_C 	C 	0.4746	0.67	0.3224	-0.158
Mof_C 	C 	0.8821	0.9249	0.3441	0.326
Mof_C 	C 	0.8548	0.9708	0.2912	-0.096
Mof_C 	C 	0.8764	0.9648	0.2509	0.013
Mof_H 	H 	0.9088	0.9311	0.2573	0.03
Mof_C 	C 	0.8512	0.0078	0.2004	-0.083
Mof_C 	C 	0.8045	0.0564	0.191	0.06
Mof_C 	C 	0.7826	0.0653	0.233	-0.112
Mof_H 	H 	0.7522	0.1023	0.2282	0.063
Mof_C 	C 	0.8067	0.0192	0.2801	0.016
Mof_H 	H 	0.7897	0.0204	0.3061	0.031
Mof_C 	C 	0.9457	0.9835	0.036	0.624
Mof_C 	C 	0.9214	0.9885	0.0793	-0.452
Mof_C 	C 	0.8749	0.0373	0.0699	0.185
Mof_H 	H 	0.8586	0.0668	0.0363	-0.032
Mof_C 	C 	0.8505	0.0448	0.1097	-0.145
Mof_C 	C 	0.8764	0	0.1597	0.118
Mof_C 	C 	0.9233	0.9515	0.1673	-0.226
Mof_H 	H 	0.9411	0.9232	0.2011	0.1
Mof_C 	C 	0.9457	0.9422	0.1275	0.217
Mof_H 	H 	0.9765	0.9056	0.133	-0.048
Mof_C 	C 	0.6554	0.2519	0.0698	0.3
Mof_C 	C 	0.7054	0.1955	0.0805	-0.093
Mof_C 	C 	0.7299	0.1531	0.128	0.006
Mof_H 	H 	0.714	0.1582	0.1546	0.037
Mof_C 	C 	0.7769	0.1026	0.1399	-0.062
Mof_C 	C 	0.8012	0.0971	0.0996	0.083
Mof_C 	C 	0.7742	0.141	0.0501	-0.137
Mof_H 	H 	0.7884	0.1359	0.0221	0.082
Mof_C 	C 	0.7291	0.1895	0.0414	0.038
Mof_H 	H 	0.713	0.2202	0.0083	0.022
Mof_O 	O 	0.8629	0.9334	0.3809	-0.439
Mof_O 	O 	0.9244	0.8805	0.3524	-0.448
Mof_O 	O 	0.9812	0.9286	0.0414	-0.599
Mof_O 	O 	0.9268	0.0312	0.9969	-0.585
Mof_O 	O 	0.6427	0.3044	0.0319	-0.427
Mof_O 	O 	0.6295	0.2459	0.102	-0.438
Mof_Tb	Tb	0.93706	0.8561	0.44706	2.08
Mof_O 	O 	0.9828	0.8078	0.5352	-0.213
Mof_C 	C 	0.0024	0.8327	0.588	0.128
Mof_C 	C 	0.0535	0.8879	0.6105	-0.471
Mof_H 	H 	0.0745	0.8756	0.6494	0.166
Mof_H 	H 	0.0413	0.9458	0.6062	0.16
Mof_H 	H 	0.0779	0.8781	0.5906	0.157
Mof_C 	C 	0.9262	0.7537	0.5961	-0.354
Mof_H 	H 	0.9366	0.7101	0.5762	0.123
Mof_H 	H 	0.8949	0.7865	0.5703	0.129
Mof_H 	H 	0.9144	0.7287	0.6235	0.122
Mof_N 	N 	0.9767	0.8093	0.6244	0.003
Mof_C 	C 	0.0058	0.8437	0.6815	-0.336
Mof_H 	H 	0.0469	0.8428	0.6921	0.21
Mof_H 	H 	0.996	0.8099	0.7071	0.017
Mof_H 	H 	0.9933	0.9008	0.6824	0.118
Mof_H 	H 	0.0901	0.256	0.1045	0.199
Mof_H 	H 	0.0444	0.3255	0.1011	0.195
Mof_H 	H 	0.0682	0.2649	0.1528	0.208
Mof_H 	H 	0.9352	0.1168	0.0455	0.143
Mof_H 	H 	0.9468	0.0397	0.0863	0.268
Mof_H 	H 	0.9184	0.1221	0.0973	0.174
Mof_H 	H 	0.0278	0.1175	0.197	0.063
Mof_H 	H 	0.0636	0.1896	0.1842	-0.064
Mof_H 	H 	0.0058	0.2111	0.1907	0.163
Mof_O 	O 	0.9865	0.207	0.0292	-0.268
Mof_C 	C 	0.0104	0.2092	0.0845	0.279
Mof_C 	C 	0.0574	0.269	0.1132	-0.63
Mof_C 	C 	0.9461	0.1	0.084	-0.458
Mof_N 	N 	0.9936	0.157	0.1183	-0.093
Mof_C 	C 	0.0254	0.17	0.1776	-0.16
Mof_C 	C 	0.3821	0.4249	0.3441	0.328
Mof_C 	C 	0.3548	0.4708	0.2912	-0.105
Mof_C 	C 	0.3764	0.4648	0.2509	0.012
Mof_H 	H 	0.4088	0.4311	0.2573	0.029
Mof_C 	C 	0.3512	0.5078	0.2004	-0.085
Mof_C 	C 	0.3045	0.5564	0.191	0.065
Mof_C 	C 	0.2826	0.5653	0.233	-0.118
Mof_H 	H 	0.2522	0.6023	0.2282	0.066
Mof_C 	C 	0.3067	0.5192	0.2801	0.027
Mof_H 	H 	0.2897	0.5204	0.3061	0.03
Mof_C 	C 	0.4457	0.4835	0.036	0.621
Mof_C 	C 	0.4214	0.4885	0.0793	-0.483
Mof_C 	C 	0.3749	0.5373	0.0699	0.208
Mof_H 	H 	0.3586	0.5668	0.0363	-0.04
Mof_C 	C 	0.3505	0.5448	0.1097	-0.157
Mof_C 	C 	0.3764	0.5	0.1597	0.134
Mof_C 	C 	0.4233	0.4515	0.1673	-0.248
Mof_H 	H 	0.4411	0.4232	0.2011	0.106
Mof_C 	C 	0.4457	0.4422	0.1275	0.236
Mof_H 	H 	0.4765	0.4056	0.133	-0.055
Mof_C 	C 	0.1554	0.7519	0.0698	0.301
Mof_C 	C 	0.2054	0.6955	0.0805	-0.096
Mof_C 	C 	0.2299	0.6531	0.128	0.01
Mof_H 	H 	0.214	0.6582	0.1546	0.036
Mof_C 	C 	0.2769	0.6026	0.1399	-0.066
Mof_C 	C 	0.3012	0.5971	0.0996	0.09
Mof_C 	C 	0.2742	0.641	0.0501	-0.142
Mof_H 	H 	0.2884	0.6359	0.0221	0.083
Mof_C 	C 	0.2291	0.6895	0.0414	0.042
Mof_H 	H 	0.213	0.7202	0.0083	0.021
Mof_O 	O 	0.3629	0.4334	0.3809	-0.441
Mof_O 	O 	0.4244	0.3805	0.3524	-0.45
Mof_O 	O 	0.4812	0.4286	0.0414	-0.602
Mof_O 	O 	0.4268	0.5312	0.9969	-0.58
Mof_O 	O 	0.1427	0.8044	0.0319	-0.428
Mof_O 	O 	0.1295	0.7459	0.102	-0.438
Mof_Tb	Tb	0.43706	0.3561	0.44706	2.079
Mof_O 	O 	0.4828	0.3078	0.5352	-0.213
Mof_C 	C 	0.5024	0.3327	0.588	0.129
Mof_C 	C 	0.5535	0.3879	0.6105	-0.469
Mof_H 	H 	0.5745	0.3756	0.6494	0.164
Mof_H 	H 	0.5413	0.4458	0.6062	0.157
Mof_H 	H 	0.5779	0.3781	0.5906	0.156
Mof_C 	C 	0.4262	0.2537	0.5961	-0.353
Mof_H 	H 	0.4366	0.2101	0.5762	0.122
Mof_H 	H 	0.3949	0.2865	0.5703	0.129
Mof_H 	H 	0.4144	0.2287	0.6235	0.122
Mof_N 	N 	0.4767	0.3093	0.6244	0.004
Mof_C 	C 	0.5058	0.3437	0.6815	-0.335
Mof_H 	H 	0.5469	0.3428	0.6921	0.21
Mof_H 	H 	0.496	0.3099	0.7071	0.018
Mof_H 	H 	0.4933	0.4008	0.6824	0.117
Mof_H 	H 	0.5901	0.756	0.1045	0.202
Mof_H 	H 	0.5444	0.8255	0.1011	0.198
Mof_H 	H 	0.5682	0.7649	0.1528	0.211
Mof_H 	H 	0.4352	0.6168	0.0455	0.149
Mof_H 	H 	0.4468	0.5397	0.0863	0.285
Mof_H 	H 	0.4184	0.6221	0.0973	0.179
Mof_H 	H 	0.5278	0.6175	0.197	0.064
Mof_H 	H 	0.5636	0.6896	0.1842	-0.063
Mof_H 	H 	0.5058	0.7111	0.1907	0.164
Mof_O 	O 	0.4865	0.707	0.0292	-0.269
Mof_C 	C 	0.5104	0.7092	0.0845	0.286
Mof_C 	C 	0.5574	0.769	0.1132	-0.637
Mof_C 	C 	0.4461	0.6	0.084	-0.476
Mof_N 	N 	0.4936	0.657	0.1183	-0.091
Mof_C 	C 	0.5254	0.67	0.1776	-0.158
Mof_C 	C 	0.8821	0.0751	0.8441	0.328
Mof_C 	C 	0.8548	0.0292	0.7912	-0.107
Mof_C 	C 	0.8764	0.0352	0.7509	0.002
Mof_H 	H 	0.9088	0.0689	0.7573	0.031
Mof_C 	C 	0.8512	0.9922	0.7004	-0.07
Mof_C 	C 	0.8045	0.9436	0.691	0.06
Mof_C 	C 	0.7826	0.9347	0.733	-0.116
Mof_H 	H 	0.7522	0.8977	0.7282	0.066
Mof_C 	C 	0.8067	0.9808	0.7801	0.032
Mof_H 	H 	0.7897	0.9796	0.8061	0.03
Mof_C 	C 	0.9457	0.0165	0.536	0.617
Mof_C 	C 	0.9214	0.0115	0.5793	-0.496
Mof_C 	C 	0.8749	0.9627	0.5699	0.216
Mof_H 	H 	0.8586	0.9332	0.5363	-0.041
Mof_C 	C 	0.8505	0.9552	0.6097	-0.151
Mof_C 	C 	0.8764	0	0.6597	0.121
Mof_C 	C 	0.9233	0.0485	0.6673	-0.245
Mof_H 	H 	0.9411	0.0768	0.7011	0.104
Mof_C 	C 	0.9457	0.0578	0.6275	0.237
Mof_H 	H 	0.9765	0.0944	0.633	-0.056
Mof_C 	C 	0.6554	0.7481	0.5698	0.301
Mof_C 	C 	0.7054	0.8045	0.5805	-0.094
Mof_C 	C 	0.7299	0.8469	0.628	0.007
Mof_H 	H 	0.714	0.8418	0.6546	0.037
Mof_C 	C 	0.7769	0.8974	0.6399	-0.062
Mof_C 	C 	0.8012	0.9029	0.5996	0.087
Mof_C 	C 	0.7742	0.859	0.5501	-0.139
Mof_H 	H 	0.7884	0.8641	0.5221	0.083
Mof_C 	C 	0.7291	0.8105	0.5414	0.04
Mof_H 	H 	0.713	0.7798	0.5083	0.022
Mof_O 	O 	0.8629	0.0666	0.8809	-0.443
Mof_O 	O 	0.9244	0.1195	0.8524	-0.45
Mof_O 	O 	0.9812	0.0714	0.5414	-0.601
Mof_O 	O 	0.9268	0.9688	0.4969	-0.576
Mof_O 	O 	0.6427	0.6956	0.5319	-0.427
Mof_O 	O 	0.6295	0.7541	0.602	-0.438
Mof_Tb	Tb	0.93706	0.1439	0.94706	2.076
Mof_O 	O 	0.9828	0.1922	0.0352	-0.212
Mof_C 	C 	0.0024	0.1673	0.088	0.134
Mof_C 	C 	0.0535	0.1121	0.1105	-0.467
Mof_H 	H 	0.0745	0.1244	0.1494	0.163
Mof_H 	H 	0.0413	0.0542	0.1062	0.154
Mof_H 	H 	0.0779	0.1219	0.0906	0.154
Mof_C 	C 	0.9262	0.2463	0.0961	-0.356
Mof_H 	H 	0.9366	0.2899	0.0762	0.124
Mof_H 	H 	0.8949	0.2135	0.0703	0.131
Mof_H 	H 	0.9144	0.2713	0.1235	0.123
Mof_N 	N 	0.9767	0.1907	0.1244	0.007
Mof_C 	C 	0.0058	0.1563	0.1815	-0.335
Mof_H 	H 	0.0469	0.1572	0.1921	0.212
Mof_H 	H 	0.996	0.1901	0.2071	0.019
Mof_H 	H 	0.9933	0.0992	0.1824	0.118
Mof_H 	H 	0.0901	0.744	0.6045	0.202
Mof_H 	H 	0.0444	0.6745	0.6011	0.198
Mof_H 	H 	0.0682	0.7351	0.6528	0.211
Mof_H 	H 	0.9352	0.8832	0.5455	0.152
Mof_H 	H 	0.9468	0.9603	0.5863	0.295
Mof_H 	H 	0.9184	0.8779	0.5973	0.181
Mof_H 	H 	0.0278	0.8825	0.697	0.065
Mof_H 	H 	0.0636	0.8104	0.6842	-0.064
Mof_H 	H 	0.0058	0.7889	0.6907	0.165
Mof_O 	O 	0.9865	0.793	0.5292	-0.269
Mof_C 	C 	0.0104	0.7908	0.5845	0.289
Mof_C 	C 	0.0574	0.731	0.6132	-0.639
Mof_C 	C 	0.9461	0.9	0.584	-0.486
Mof_N 	N 	0.9936	0.843	0.6183	-0.088
Mof_C 	C 	0.0254	0.83	0.6776	-0.157
Mof_C 	C 	0.3821	0.5751	0.8441	0.328
Mof_C 	C 	0.3548	0.5292	0.7912	-0.104
Mof_C 	C 	0.3764	0.5352	0.7509	0.012
Mof_H 	H 	0.4088	0.5689	0.7573	0.029
Mof_C 	C 	0.3512	0.4922	0.7004	-0.084
Mof_C 	C 	0.3045	0.4436	0.691	0.065
Mof_C 	C 	0.2826	0.4347	0.733	-0.118
Mof_H 	H 	0.2522	0.3977	0.7282	0.066
Mof_C 	C 	0.3067	0.4808	0.7801	0.027
Mof_H 	H 	0.2897	0.4796	0.8061	0.03
Mof_C 	C 	0.4457	0.5165	0.536	0.622
Mof_C 	C 	0.4214	0.5115	0.5793	-0.482
Mof_C 	C 	0.3749	0.4627	0.5699	0.208
Mof_H 	H 	0.3586	0.4332	0.5363	-0.039
Mof_C 	C 	0.3505	0.4552	0.6097	-0.157
Mof_C 	C 	0.3764	0.5	0.6597	0.134
Mof_C 	C 	0.4233	0.5485	0.6673	-0.248
Mof_H 	H 	0.4411	0.5768	0.7011	0.106
Mof_C 	C 	0.4457	0.5578	0.6275	0.236
Mof_H 	H 	0.4765	0.5944	0.633	-0.055
Mof_C 	C 	0.1554	0.2481	0.5698	0.301
Mof_C 	C 	0.2054	0.3045	0.5805	-0.095
Mof_C 	C 	0.2299	0.3469	0.628	0.009
Mof_H 	H 	0.214	0.3418	0.6546	0.036
Mof_C 	C 	0.2769	0.3974	0.6399	-0.066
Mof_C 	C 	0.3012	0.4029	0.5996	0.09
Mof_C 	C 	0.2742	0.359	0.5501	-0.142
Mof_H 	H 	0.2884	0.3641	0.5221	0.084
Mof_C 	C 	0.2291	0.3105	0.5414	0.041
Mof_H 	H 	0.213	0.2798	0.5083	0.021
Mof_O 	O 	0.3629	0.5666	0.8809	-0.441
Mof_O 	O 	0.4244	0.6195	0.8524	-0.449
Mof_O 	O 	0.4812	0.5714	0.5414	-0.601
Mof_O 	O 	0.4268	0.4688	0.4969	-0.581
Mof_O 	O 	0.1427	0.1956	0.5319	-0.427
Mof_O 	O 	0.1295	0.2541	0.602	-0.438
Mof_Tb	Tb	0.43706	0.6439	0.94706	2.08
Mof_O 	O 	0.4828	0.6922	0.0352	-0.212
Mof_C 	C 	0.5024	0.6673	0.088	0.132
Mof_C 	C 	0.5535	0.6121	0.1105	-0.47
Mof_H 	H 	0.5745	0.6244	0.1494	0.165
Mof_H 	H 	0.5413	0.5542	0.1062	0.158
Mof_H 	H 	0.5779	0.6219	0.0906	0.157
Mof_C 	C 	0.4262	0.7463	0.0961	-0.355
Mof_H 	H 	0.4366	0.7899	0.0762	0.124
Mof_H 	H 	0.3949	0.7135	0.0703	0.13
Mof_H 	H 	0.4144	0.7713	0.1235	0.123
Mof_N 	N 	0.4767	0.6907	0.1244	0.005
Mof_C 	C 	0.5058	0.6563	0.1815	-0.335
Mof_H 	H 	0.5469	0.6572	0.1921	0.21
Mof_H 	H 	0.496	0.6901	0.2071	0.018
Mof_H 	H 	0.4933	0.5992	0.1824	0.117
Mof_H 	H 	0.5901	0.244	0.6045	0.2
Mof_H 	H 	0.5444	0.1745	0.6011	0.196
Mof_H 	H 	0.5682	0.2351	0.6528	0.21
Mof_H 	H 	0.4352	0.3832	0.5455	0.149
Mof_H 	H 	0.4468	0.4603	0.5863	0.284
Mof_H 	H 	0.4184	0.3779	0.5973	0.178
Mof_H 	H 	0.5278	0.3825	0.697	0.064
Mof_H 	H 	0.5636	0.3104	0.6842	-0.064
Mof_H 	H 	0.5058	0.2889	0.6907	0.164
Mof_O 	O 	0.4865	0.293	0.5292	-0.269
Mof_C 	C 	0.5104	0.2908	0.5845	0.287
Mof_C 	C 	0.5574	0.231	0.6132	-0.636
Mof_C 	C 	0.4461	0.4	0.584	-0.476
Mof_N 	N 	0.4936	0.343	0.6183	-0.09
Mof_C 	C 	0.5254	0.33	0.6776	-0.158
Mof_C 	C 	0.1179	0.0751	0.6559	0.328
Mof_C 	C 	0.1452	0.0292	0.7088	-0.108
Mof_C 	C 	0.1236	0.0352	0.7491	0.003
Mof_H 	H 	0.0912	0.0689	0.7427	0.031
Mof_C 	C 	0.1488	0.9922	0.7996	-0.071
Mof_C 	C 	0.1955	0.9436	0.809	0.061
Mof_C 	C 	0.2174	0.9347	0.767	-0.117
Mof_H 	H 	0.2478	0.8977	0.7718	0.066
Mof_C 	C 	0.1933	0.9808	0.7199	0.032
Mof_H 	H 	0.2103	0.9796	0.6939	0.03
Mof_C 	C 	0.0543	0.0165	0.964	0.619
Mof_C 	C 	0.0786	0.0115	0.9207	-0.494
Mof_C 	C 	0.1251	0.9627	0.9301	0.216
Mof_H 	H 	0.1414	0.9332	0.9637	-0.041
Mof_C 	C 	0.1495	0.9552	0.8903	-0.152
Mof_C 	C 	0.1236	0	0.8403	0.122
Mof_C 	C 	0.0767	0.0485	0.8327	-0.245
Mof_H 	H 	0.0589	0.0768	0.7989	0.104
Mof_C 	C 	0.0543	0.0578	0.8725	0.237
Mof_H 	H 	0.0235	0.0944	0.867	-0.055
Mof_C 	C 	0.3446	0.7481	0.9302	0.301
Mof_C 	C 	0.2946	0.8045	0.9195	-0.094
Mof_C 	C 	0.2701	0.8469	0.872	0.007
Mof_H 	H 	0.286	0.8418	0.8454	0.037
Mof_C 	C 	0.2231	0.8974	0.8601	-0.062
Mof_C 	C 	0.1988	0.9029	0.9004	0.087
Mof_C 	C 	0.2258	0.859	0.9499	-0.139
Mof_H 	H 	0.2116	0.8641	0.9779	0.083
Mof_C 	C 	0.2709	0.8105	0.9586	0.04
Mof_H 	H 	0.287	0.7798	0.9917	0.022
Mof_O 	O 	0.1371	0.0666	0.6191	-0.443
Mof_O 	O 	0.0756	0.1195	0.6476	-0.45
Mof_O 	O 	0.0188	0.0714	0.9586	-0.6
Mof_O 	O 	0.0732	0.9688	0.0031	-0.578
Mof_O 	O 	0.3573	0.6956	0.9681	-0.427
Mof_O 	O 	0.3705	0.7541	0.898	-0.438
Mof_Tb	Tb	0.06294	0.1439	0.55294	2.079
Mof_O 	O 	0.0172	0.1922	0.4648	-0.213
Mof_C 	C 	0.9976	0.1673	0.412	0.132
Mof_C 	C 	0.9465	0.1121	0.3895	-0.467
Mof_H 	H 	0.9255	0.1244	0.3506	0.163
Mof_H 	H 	0.9587	0.0542	0.3938	0.155
Mof_H 	H 	0.9221	0.1219	0.4094	0.155
Mof_C 	C 	0.0738	0.2463	0.4039	-0.355
Mof_H 	H 	0.0634	0.2899	0.4238	0.123
Mof_H 	H 	0.1051	0.2135	0.4297	0.13
Mof_H 	H 	0.0856	0.2713	0.3765	0.123
Mof_N 	N 	0.0233	0.1907	0.3756	0.005
Mof_C 	C 	0.9942	0.1563	0.3185	-0.331
Mof_H 	H 	0.9531	0.1572	0.3079	0.207
Mof_H 	H 	0.004	0.1901	0.2929	0.016
Mof_H 	H 	0.0067	0.0992	0.3176	0.115
Mof_H 	H 	0.9099	0.744	0.8955	0.201
Mof_H 	H 	0.9556	0.6745	0.8989	0.196
Mof_H 	H 	0.9318	0.7351	0.8472	0.21
Mof_H 	H 	0.0648	0.8832	0.9545	0.153
Mof_H 	H 	0.0532	0.9603	0.9137	0.294
Mof_H 	H 	0.0816	0.8779	0.9027	0.182
Mof_H 	H 	0.9722	0.8825	0.803	0.064
Mof_H 	H 	0.9364	0.8104	0.8158	-0.064
Mof_H 	H 	0.9942	0.7889	0.8093	0.165
Mof_O 	O 	0.0135	0.793	0.9708	-0.268
Mof_C 	C 	0.9896	0.7908	0.9155	0.283
Mof_C 	C 	0.9426	0.731	0.8868	-0.634
Mof_C 	C 	0.0539	0.9	0.916	-0.486
Mof_N 	N 	0.0064	0.843	0.8817	-0.086
Mof_C 	C 	0.9746	0.83	0.8224	-0.163
Mof_C 	C 	0.6179	0.5751	0.6559	0.328
Mof_C 	C 	0.6452	0.5292	0.7088	-0.104
Mof_C 	C 	0.6236	0.5352	0.7491	0.012
Mof_H 	H 	0.5912	0.5689	0.7427	0.029
Mof_C 	C 	0.6488	0.4922	0.7996	-0.084
Mof_C 	C 	0.6955	0.4436	0.809	0.065
Mof_C 	C 	0.7174	0.4347	0.767	-0.118
Mof_H 	H 	0.7478	0.3977	0.7718	0.066
Mof_C 	C 	0.6933	0.4808	0.7199	0.027
Mof_H 	H 	0.7103	0.4796	0.6939	0.03
Mof_C 	C 	0.5543	0.5165	0.964	0.622
Mof_C 	C 	0.5786	0.5115	0.9207	-0.482
Mof_C 	C 	0.6251	0.4627	0.9301	0.208
Mof_H 	H 	0.6414	0.4332	0.9637	-0.04
Mof_C 	C 	0.6495	0.4552	0.8903	-0.157
Mof_C 	C 	0.6236	0.5	0.8403	0.134
Mof_C 	C 	0.5767	0.5485	0.8327	-0.248
Mof_H 	H 	0.5589	0.5768	0.7989	0.106
Mof_C 	C 	0.5543	0.5578	0.8725	0.236
Mof_H 	H 	0.5235	0.5944	0.867	-0.055
Mof_C 	C 	0.8446	0.2481	0.9302	0.301
Mof_C 	C 	0.7946	0.3045	0.9195	-0.096
Mof_C 	C 	0.7701	0.3469	0.872	0.009
Mof_H 	H 	0.786	0.3418	0.8454	0.036
Mof_C 	C 	0.7231	0.3974	0.8601	-0.066
Mof_C 	C 	0.6988	0.4029	0.9004	0.09
Mof_C 	C 	0.7258	0.359	0.9499	-0.142
Mof_H 	H 	0.7116	0.3641	0.9779	0.083
Mof_C 	C 	0.7709	0.3105	0.9586	0.042
Mof_H 	H 	0.787	0.2798	0.9917	0.021
Mof_O 	O 	0.6371	0.5666	0.6191	-0.441
Mof_O 	O 	0.5756	0.6195	0.6476	-0.449
Mof_O 	O 	0.5188	0.5714	0.9586	-0.601
Mof_O 	O 	0.5732	0.4688	0.0031	-0.581
Mof_O 	O 	0.8573	0.1956	0.9681	-0.428
Mof_O 	O 	0.8705	0.2541	0.898	-0.438
Mof_Tb	Tb	0.56294	0.6439	0.55294	2.08
Mof_O 	O 	0.5172	0.6922	0.4648	-0.212
Mof_C 	C 	0.4976	0.6673	0.412	0.131
Mof_C 	C 	0.4465	0.6121	0.3895	-0.47
Mof_H 	H 	0.4255	0.6244	0.3506	0.165
Mof_H 	H 	0.4587	0.5542	0.3938	0.158
Mof_H 	H 	0.4221	0.6219	0.4094	0.157
Mof_C 	C 	0.5738	0.7463	0.4039	-0.355
Mof_H 	H 	0.5634	0.7899	0.4238	0.124
Mof_H 	H 	0.6051	0.7135	0.4297	0.13
Mof_H 	H 	0.5856	0.7713	0.3765	0.123
Mof_N 	N 	0.5233	0.6907	0.3756	0.005
Mof_C 	C 	0.4942	0.6563	0.3185	-0.335
Mof_H 	H 	0.4531	0.6572	0.3079	0.21
Mof_H 	H 	0.504	0.6901	0.2929	0.018
Mof_H 	H 	0.5067	0.5992	0.3176	0.117
Mof_H 	H 	0.4099	0.244	0.8955	0.201
Mof_H 	H 	0.4556	0.1745	0.8989	0.196
Mof_H 	H 	0.4318	0.2351	0.8472	0.21
Mof_H 	H 	0.5648	0.3832	0.9545	0.149
Mof_H 	H 	0.5532	0.4603	0.9137	0.285
Mof_H 	H 	0.5816	0.3779	0.9027	0.178
Mof_H 	H 	0.4722	0.3825	0.803	0.064
Mof_H 	H 	0.4364	0.3104	0.8158	-0.064
Mof_H 	H 	0.4942	0.2889	0.8093	0.164
Mof_O 	O 	0.5135	0.293	0.9708	-0.269
Mof_C 	C 	0.4896	0.2908	0.9155	0.287
Mof_C 	C 	0.4426	0.231	0.8868	-0.636
Mof_C 	C 	0.5539	0.4	0.916	-0.476
Mof_N 	N 	0.5064	0.343	0.8817	-0.09
Mof_C 	C 	0.4746	0.33	0.8224	-0.158
_end
