data_functionalizedCrystal
_audit_creation_method	'EQeq! by Chris Wilmer'
_symmetry_space_group_name_H-M	'P1'
_symmetry_Int_Tables_number	1
_symmetry_cell_setting	triclinic
loop_
_symmetry_equiv_pos_as_xyz
  x,y,z
_cell_length_a	13.0242
_cell_length_b	13.7795
_cell_length_c	23.9552
_cell_angle_alpha	81.259
_cell_angle_beta	86.49
_cell_angle_gamma	70.046
loop_
_atom_site_label
_atom_site_type_symbol
_atom_site_fract_x
_atom_site_fract_y
_atom_site_fract_z
_atom_site_charge
Mof_Cu	Cu	0.5267	0.76764	0.26552	0.942
Mof_Cu	Cu	0.47799	0.77616	0.7643	0.925
Mof_O 	O 	0.6201	0.655	0.2281	-0.259
Mof_O 	O 	0.4358	0.8853	0.2994	-0.249
Mof_O 	O 	0.671	0.2331	0.2105	-0.242
Mof_O 	O 	0.5282	0.6528	0.8222	-0.254
Mof_O 	O 	0.4314	0.8162	0.1991	-0.235
Mof_O 	O 	0.4185	0.8984	0.7076	-0.266
Mof_O 	O 	0.6129	0.7162	0.3333	-0.264
Mof_C 	C 	0.7992	0.6263	0.2031	0.051
Mof_H 	H 	0.7756	0.6834	0.1737	0.015
Mof_C 	C 	0.9085	0.5695	0.2074	-0.107
Mof_H 	H 	0.959	0.5843	0.1801	0.066
Mof_C 	C 	0.945	0.488	0.2536	0.043
Mof_C 	C 	0.8704	0.4715	0.292	-0.102
Mof_H 	H 	0.8924	0.4223	0.3251	0.064
Mof_C 	C 	0.7574	0.5298	0.2817	0.044
Mof_H 	H 	0.7035	0.5145	0.3065	0.031
Mof_C 	C 	0.2475	0.3856	0.2324	0.031
Mof_H 	H 	0.3018	0.4072	0.2111	0.041
Mof_C 	C 	0.1408	0.4482	0.2261	-0.092
Mof_H 	H 	0.1221	0.509	0.1989	0.068
Mof_C 	C 	0.0596	0.424	0.2591	0.038
Mof_C 	C 	0.0902	0.3331	0.2956	-0.103
Mof_H 	H 	0.0373	0.3107	0.3178	0.063
Mof_C 	C 	0.2028	0.2731	0.2996	0.044
Mof_H 	H 	0.2248	0.2131	0.3274	0.034
Mof_C 	C 	0.3033	0.0171	0.2504	0.047
Mof_H 	H 	0.3582	0.0441	0.2342	0.05
Mof_C 	C 	0.1893	0.0743	0.2376	-0.085
Mof_H 	H 	0.1687	0.1397	0.214	0.063
Mof_C 	C 	0.1098	0.0317	0.2607	0.025
Mof_C 	C 	0.1501	0.9339	0.2984	-0.092
Mof_H 	H 	0.1008	0.9008	0.3157	0.063
Mof_C 	C 	0.2579	0.8905	0.3086	0.053
Mof_H 	H 	0.2824	0.8289	0.3351	0.019
Mof_C 	C 	0.811	0.0843	0.2553	0.04
Mof_H 	H 	0.7605	0.0504	0.2694	0.036
Mof_C 	C 	0.9201	0.0352	0.2637	-0.107
Mof_H 	H 	0.945	0.9644	0.2806	0.068
Mof_C 	C 	0.9931	0.0828	0.249	0.058
Mof_C 	C 	0.9527	0.1862	0.2242	-0.117
Mof_H 	H 	0.0011	0.2247	0.2149	0.069
Mof_C 	C 	0.8436	0.233	0.213	0.06
Mof_H 	H 	0.8174	0.3033	0.1952	0.03
Mof_C 	C 	0.4344	0.6532	0.9071	0.049
Mof_H 	H 	0.3789	0.6368	0.8906	0.036
Mof_C 	C 	0.4297	0.6639	0.9622	-0.097
Mof_H 	H 	0.37	0.6535	0.984	0.063
Mof_C 	C 	0.5082	0.6896	0.9897	0.033
Mof_C 	C 	0.5956	0.6988	0.9553	-0.089
Mof_H 	H 	0.6535	0.7134	0.9706	0.06
Mof_C 	C 	0.5984	0.6865	0.8977	0.043
Mof_H 	H 	0.6579	0.693	0.8743	0.03
Mof_C 	C 	0.5363	0.7974	0.1199	0.062
Mof_H 	H 	0.5771	0.8353	0.1324	0.018
Mof_C 	C 	0.5535	0.7683	0.0677	-0.112
Mof_H 	H 	0.6052	0.7882	0.0432	0.068
Mof_C 	C 	0.4975	0.71	0.0493	0.052
Mof_C 	C 	0.4232	0.6814	0.087	-0.109
Mof_H 	H 	0.3806	0.6441	0.0756	0.07
Mof_C 	C 	0.4126	0.7064	0.138	0.053
Mof_H 	H 	0.3701	0.6785	0.1652	0.043
Mof_C 	C 	0.5139	0.9167	0.6237	0.047
Mof_H 	H 	0.5498	0.9543	0.6405	0.044
Mof_C 	C 	0.5381	0.8968	0.5691	-0.097
Mof_H 	H 	0.5942	0.9179	0.5494	0.064
Mof_C 	C 	0.4842	0.8475	0.5416	0.035
Mof_C 	C 	0.3992	0.8266	0.5739	-0.099
Mof_H 	H 	0.3524	0.8001	0.5567	0.061
Mof_C 	C 	0.3809	0.8425	0.6287	0.04
Mof_H 	H 	0.3244	0.8241	0.6498	0.022
Mof_C 	C 	0.4843	0.7457	0.4064	0.059
Mof_H 	H 	0.4423	0.7165	0.3875	0.011
Mof_C 	C 	0.4516	0.7756	0.4577	-0.108
Mof_H 	H 	0.3877	0.7658	0.4752	0.065
Mof_C 	C 	0.5127	0.8216	0.4853	0.046
Mof_C 	C 	0.6085	0.8277	0.4582	-0.112
Mof_H 	H 	0.6554	0.8533	0.4759	0.068
Mof_C 	C 	0.6353	0.7967	0.4058	0.067
Mof_H 	H 	0.6986	0.8045	0.3866	0.018
Mof_N 	N 	0.7264	0.6047	0.238	-0.072
Mof_N 	N 	0.2784	0.2964	0.2667	-0.061
Mof_N 	N 	0.3303	0.9287	0.284	-0.073
Mof_N 	N 	0.7752	0.1826	0.2263	-0.071
Mof_N 	N 	0.5172	0.6659	0.8765	-0.069
Mof_N 	N 	0.4616	0.7722	0.1531	-0.069
Mof_N 	N 	0.4407	0.8831	0.6524	-0.08
Mof_N 	N 	0.5745	0.7568	0.3825	-0.081
Mof_O 	O 	0.3749	0.2293	0.2667	-0.251
Mof_O 	O 	0.4779	0.8875	0.8196	-0.191
Mof_O 	O 	0.6238	0.8805	0.2318	-0.914
Mof_H 	H 	0.6663	0.8559	0.2052	0.42
Mof_H 	H 	0.6625	0.8845	0.2581	0.359
Mof_N 	N 	0.523	0.92	0.8655	-0.086
Mof_C 	C 	0.6092	0.93	0.8902	0.064
Mof_H 	H 	0.6759	0.9164	0.8694	0.021
Mof_C 	C 	0.6076	0.9578	0.9419	-0.128
Mof_H 	H 	0.6705	0.9618	0.9583	0.07
Mof_C 	C 	0.5094	0.9795	0.9688	0.064
Mof_C 	C 	0.4193	0.97	0.9486	-0.148
Mof_H 	H 	0.3556	0.9738	0.971	0.077
Mof_C 	C 	0.427	0.9547	0.8938	0.098
Mof_H 	H 	0.3613	0.9692	0.8739	0.01
Mof_O 	O 	0.739	0.355	0.7604	-0.137
Mof_N 	N 	0.3682	0.9619	0.8127	-0.16
Mof_C 	C 	0.3581	0.0431	0.7712	0.362
Mof_H 	H 	0.4168	0.0507	0.7474	0.075
Mof_C 	C 	0.2551	0.1122	0.7672	-0.48
Mof_H 	H 	0.2429	0.1711	0.7389	0.137
Mof_C 	C 	0.1674	0.1064	0.7994	0.239
Mof_C 	C 	0.194	0.0258	0.8423	-0.243
Mof_H 	H 	0.1378	0.0226	0.8689	0.108
Mof_C 	C 	0.2914	0.9499	0.851	0.13
Mof_H 	H 	0.3048	0.8937	0.8811	-0.002
Mof_N 	N 	0.8436	0.293	0.7707	-0.065
Mof_C 	C 	0.8724	0.244	0.8238	0.017
Mof_H 	H 	0.8202	0.2475	0.8536	0.037
Mof_C 	C 	0.9798	0.191	0.8317	-0.037
Mof_H 	H 	0.0048	0.1662	0.8694	0.034
Mof_C 	C 	0.0538	0.171	0.7892	-0.067
Mof_C 	C 	0.0207	0.234	0.7393	-0.044
Mof_H 	H 	0.0747	0.2372	0.7113	0.042
Mof_C 	C 	0.915	0.292	0.7272	0.019
Mof_H 	H 	0.8928	0.3282	0.6907	0.037
Mof_Cu	Cu	0.4733	0.23236	0.73448	0.941
Mof_Cu	Cu	0.52201	0.22384	0.2357	0.924
Mof_O 	O 	0.3799	0.345	0.7719	-0.26
Mof_O 	O 	0.5642	0.1147	0.7006	-0.25
Mof_O 	O 	0.329	0.7669	0.7895	-0.242
Mof_O 	O 	0.4718	0.3472	0.1778	-0.254
Mof_O 	O 	0.5686	0.1838	0.8009	-0.235
Mof_O 	O 	0.5815	0.1016	0.2924	-0.266
Mof_O 	O 	0.3871	0.2838	0.6667	-0.264
Mof_C 	C 	0.2008	0.3737	0.7969	0.051
Mof_H 	H 	0.2244	0.3166	0.8263	0.015
Mof_C 	C 	0.0915	0.4305	0.7926	-0.107
Mof_H 	H 	0.041	0.4157	0.8199	0.066
Mof_C 	C 	0.055	0.512	0.7464	0.043
Mof_C 	C 	0.1296	0.5285	0.708	-0.102
Mof_H 	H 	0.1076	0.5777	0.6749	0.064
Mof_C 	C 	0.2426	0.4702	0.7183	0.044
Mof_H 	H 	0.2965	0.4855	0.6935	0.031
Mof_C 	C 	0.7525	0.6144	0.7676	0.031
Mof_H 	H 	0.6982	0.5928	0.7889	0.041
Mof_C 	C 	0.8592	0.5518	0.7739	-0.092
Mof_H 	H 	0.8779	0.491	0.8011	0.068
Mof_C 	C 	0.9404	0.576	0.7409	0.038
Mof_C 	C 	0.9098	0.6669	0.7044	-0.103
Mof_H 	H 	0.9627	0.6893	0.6822	0.063
Mof_C 	C 	0.7972	0.7269	0.7004	0.044
Mof_H 	H 	0.7752	0.7869	0.6726	0.034
Mof_C 	C 	0.6967	0.9829	0.7496	0.047
Mof_H 	H 	0.6418	0.9559	0.7658	0.05
Mof_C 	C 	0.8107	0.9257	0.7624	-0.085
Mof_H 	H 	0.8313	0.8603	0.786	0.063
Mof_C 	C 	0.8902	0.9683	0.7393	0.025
Mof_C 	C 	0.8499	0.0661	0.7016	-0.092
Mof_H 	H 	0.8992	0.0992	0.6843	0.063
Mof_C 	C 	0.7421	0.1095	0.6914	0.053
Mof_H 	H 	0.7176	0.1711	0.6649	0.019
Mof_C 	C 	0.189	0.9157	0.7447	0.04
Mof_H 	H 	0.2395	0.9496	0.7306	0.036
Mof_C 	C 	0.0799	0.9648	0.7363	-0.107
Mof_H 	H 	0.055	0.0356	0.7194	0.068
Mof_C 	C 	0.0069	0.9172	0.751	0.058
Mof_C 	C 	0.0473	0.8138	0.7758	-0.117
Mof_H 	H 	0.9989	0.7753	0.7851	0.069
Mof_C 	C 	0.1564	0.767	0.787	0.06
Mof_H 	H 	0.1826	0.6967	0.8048	0.03
Mof_C 	C 	0.5656	0.3468	0.0929	0.049
Mof_H 	H 	0.6211	0.3632	0.1094	0.036
Mof_C 	C 	0.5703	0.3361	0.0378	-0.097
Mof_H 	H 	0.63	0.3465	0.016	0.063
Mof_C 	C 	0.4918	0.3104	0.0103	0.033
Mof_C 	C 	0.4044	0.3012	0.0447	-0.089
Mof_H 	H 	0.3465	0.2866	0.0294	0.06
Mof_C 	C 	0.4016	0.3135	0.1023	0.043
Mof_H 	H 	0.3421	0.307	0.1257	0.03
Mof_C 	C 	0.4637	0.2026	0.8801	0.062
Mof_H 	H 	0.4229	0.1647	0.8676	0.018
Mof_C 	C 	0.4465	0.2317	0.9323	-0.112
Mof_H 	H 	0.3948	0.2118	0.9568	0.068
Mof_C 	C 	0.5025	0.29	0.9507	0.052
Mof_C 	C 	0.5768	0.3186	0.913	-0.109
Mof_H 	H 	0.6194	0.3559	0.9244	0.07
Mof_C 	C 	0.5874	0.2936	0.862	0.053
Mof_H 	H 	0.6299	0.3215	0.8348	0.043
Mof_C 	C 	0.4861	0.0833	0.3763	0.047
Mof_H 	H 	0.4502	0.0457	0.3595	0.044
Mof_C 	C 	0.4619	0.1032	0.4309	-0.097
Mof_H 	H 	0.4058	0.0821	0.4506	0.064
Mof_C 	C 	0.5158	0.1525	0.4584	0.035
Mof_C 	C 	0.6008	0.1734	0.4261	-0.099
Mof_H 	H 	0.6476	0.1999	0.4433	0.061
Mof_C 	C 	0.6191	0.1575	0.3713	0.04
Mof_H 	H 	0.6756	0.1759	0.3502	0.022
Mof_C 	C 	0.5157	0.2543	0.5936	0.059
Mof_H 	H 	0.5577	0.2835	0.6125	0.011
Mof_C 	C 	0.5484	0.2244	0.5423	-0.108
Mof_H 	H 	0.6123	0.2342	0.5248	0.065
Mof_C 	C 	0.4873	0.1784	0.5147	0.046
Mof_C 	C 	0.3915	0.1723	0.5418	-0.112
Mof_H 	H 	0.3446	0.1467	0.5241	0.068
Mof_C 	C 	0.3647	0.2033	0.5942	0.067
Mof_H 	H 	0.3014	0.1955	0.6134	0.018
Mof_N 	N 	0.2736	0.3953	0.762	-0.072
Mof_N 	N 	0.7216	0.7036	0.7333	-0.061
Mof_N 	N 	0.6697	0.0713	0.716	-0.073
Mof_N 	N 	0.2248	0.8174	0.7737	-0.071
Mof_N 	N 	0.4828	0.3341	0.1235	-0.069
Mof_N 	N 	0.5384	0.2278	0.8469	-0.069
Mof_N 	N 	0.5593	0.1169	0.3476	-0.08
Mof_N 	N 	0.4255	0.2432	0.6175	-0.081
Mof_O 	O 	0.6251	0.7707	0.7333	-0.251
Mof_O 	O 	0.5221	0.1125	0.1804	-0.191
Mof_O 	O 	0.3762	0.1195	0.7682	-0.914
Mof_H 	H 	0.3337	0.1441	0.7948	0.42
Mof_H 	H 	0.3375	0.1155	0.7419	0.359
Mof_N 	N 	0.477	0.08	0.1345	-0.086
Mof_C 	C 	0.3908	0.07	0.1098	0.064
Mof_H 	H 	0.3241	0.0836	0.1306	0.021
Mof_C 	C 	0.3924	0.0422	0.0581	-0.128
Mof_H 	H 	0.3295	0.0382	0.0417	0.07
Mof_C 	C 	0.4906	0.0205	0.0312	0.064
Mof_C 	C 	0.5807	0.03	0.0514	-0.148
Mof_H 	H 	0.6444	0.0262	0.029	0.077
Mof_C 	C 	0.573	0.0453	0.1062	0.098
Mof_H 	H 	0.6387	0.0308	0.1261	0.01
Mof_O 	O 	0.261	0.645	0.2396	-0.137
Mof_N 	N 	0.6318	0.0381	0.1873	-0.16
Mof_C 	C 	0.6419	0.9569	0.2288	0.362
Mof_H 	H 	0.5832	0.9493	0.2526	0.075
Mof_C 	C 	0.7449	0.8878	0.2328	-0.48
Mof_H 	H 	0.7571	0.8289	0.2611	0.137
Mof_C 	C 	0.8326	0.8936	0.2006	0.239
Mof_C 	C 	0.806	0.9742	0.1577	-0.243
Mof_H 	H 	0.8622	0.9774	0.1311	0.108
Mof_C 	C 	0.7086	0.0501	0.149	0.13
Mof_H 	H 	0.6952	0.1063	0.1189	-0.002
Mof_N 	N 	0.1564	0.707	0.2293	-0.065
Mof_C 	C 	0.1276	0.756	0.1762	0.017
Mof_H 	H 	0.1798	0.7525	0.1464	0.037
Mof_C 	C 	0.0202	0.809	0.1683	-0.037
Mof_H 	H 	0.9952	0.8338	0.1306	0.034
Mof_C 	C 	0.9462	0.829	0.2108	-0.067
Mof_C 	C 	0.9793	0.766	0.2607	-0.044
Mof_H 	H 	0.9253	0.7628	0.2887	0.042
Mof_C 	C 	0.085	0.708	0.2728	0.019
Mof_H 	H 	0.1072	0.6718	0.3093	0.037
_end
