data_functionalizedCrystal
_audit_creation_method	'EQeq! by Chris Wilmer'
_symmetry_space_group_name_H-M	'P1'
_symmetry_Int_Tables_number	1
_symmetry_cell_setting	triclinic
loop_
_symmetry_equiv_pos_as_xyz
  x,y,z
_cell_length_a	15.838
_cell_length_b	10.548
_cell_length_c	21.074
_cell_angle_alpha	90
_cell_angle_beta	107.247
_cell_angle_gamma	90
loop_
_atom_site_label
_atom_site_type_symbol
_atom_site_fract_x
_atom_site_fract_y
_atom_site_fract_z
_atom_site_charge
Mof_Nd	Nd	0.3992	0.08038	0.54667	2.52
Mof_O 	O 	0.5046	0.922	0.593	-0.622
Mof_O 	O 	0.6543	0.0873	0.5386	-0.545
Mof_O 	O 	0.6095	0.8279	0.5603	-0.587
Mof_O 	O 	0.5417	0.1717	0.565	-0.654
Mof_O 	O 	0.607	0.0651	0.8369	-0.499
Mof_O 	O 	0.6895	0.9291	0.9064	-0.451
Mof_C 	C 	0.5773	0.8661	0.6043	0.538
Mof_C 	C 	0.7486	0.7271	0.7542	0.037
Mof_C 	C 	0.6305	0.8428	0.6758	-0.156
Mof_N 	N 	0.8119	0.6319	0.7672	-0.068
Mof_O 	O 	0.2392	0.8642	0.9896	-0.513
Mof_C 	C 	0.6968	0.7511	0.6906	-0.007
Mof_H 	H 	0.7064	0.7044	0.656	0.042
Mof_C 	C 	0.6665	0.8904	0.7915	-0.084
Mof_C 	C 	0.6141	0.9127	0.7267	0.06
Mof_H 	H 	0.5693	0.973	0.7177	0.018
Mof_O 	O 	0.1941	0.9887	0.9007	-0.264
Mof_C 	C 	0.8648	0.5999	0.8342	-0.202
Mof_H 	H 	0.8809	0.5111	0.8353	0.087
Mof_H 	H 	0.8291	0.6114	0.864	0.088
Mof_C 	C 	0.7064	0.4322	0.6912	-0.298
Mof_H 	H 	0.6885	0.4756	0.7233	0.135
Mof_C 	C 	0.7834	0.4646	0.679	0.229
Mof_C 	C 	0.6799	0.2685	0.6083	-0.3
Mof_C 	C 	0.6212	0.1684	0.568	0.592
Mof_C 	C 	0.9642	0.7843	0.8273	-0.234
Mof_H 	H 	0.9225	0.8097	0.7881	0.122
Mof_C 	C 	0.7322	0.7983	0.805	-0.043
Mof_H 	H 	0.7658	0.7839	0.8488	0.061
Mof_C 	C 	0.9483	0.678	0.8594	0.179
Mof_C 	C 	0.1038	0.8182	0.9094	-0.219
Mof_C 	C 	0.8407	0.5754	0.7142	-0.229
Mof_H 	H 	0.901	0.5459	0.7325	0.099
Mof_H 	H 	0.8406	0.6403	0.6816	0.102
Mof_C 	C 	0.0407	0.8548	0.8516	0.144
Mof_H 	H 	0.0497	0.9269	0.829	-0.005
Mof_C 	C 	0.8109	0.3956	0.6331	-0.291
Mof_H 	H 	0.8648	0.415	0.6261	0.126
Mof_C 	C 	0.6539	0.9657	0.8484	0.334
Mof_C 	C 	0.1844	0.8928	0.9372	0.434
Mof_C 	C 	0.6545	0.3341	0.6557	0.221
Mof_H 	H 	0.602	0.3129	0.6643	-0.063
Mof_C 	C 	0.7605	0.2991	0.5975	0.212
Mof_H 	H 	0.7798	0.2542	0.5665	-0.026
Mof_C 	C 	0.0136	0.6396	0.9168	-0.235
Mof_H 	H 	0.0051	0.5663	0.9387	0.102
Mof_C 	C 	0.0898	0.7081	0.9413	0.147
Mof_H 	H 	0.1325	0.6809	0.9795	-0.025
Mof_Nd	Nd	0.60081	0.08038	0.95333	2.505
Mof_O 	O 	0.4954	0.922	0.907	-0.616
Mof_O 	O 	0.3457	0.0873	0.9614	-0.546
Mof_O 	O 	0.3905	0.8279	0.9397	-0.583
Mof_O 	O 	0.4583	0.1717	0.935	-0.653
Mof_O 	O 	0.393	0.0651	0.6631	-0.499
Mof_O 	O 	0.3105	0.9291	0.5936	-0.452
Mof_C 	C 	0.4227	0.8661	0.8957	0.536
Mof_C 	C 	0.2514	0.7271	0.7458	0.037
Mof_C 	C 	0.3695	0.8428	0.8242	-0.154
Mof_N 	N 	0.1881	0.6319	0.7328	-0.068
Mof_O 	O 	0.7608	0.8642	0.5104	-0.517
Mof_C 	C 	0.3032	0.7511	0.8094	-0.008
Mof_H 	H 	0.2936	0.7044	0.844	0.042
Mof_C 	C 	0.3335	0.8904	0.7085	-0.083
Mof_C 	C 	0.3859	0.9127	0.7733	0.058
Mof_H 	H 	0.4307	0.973	0.7823	0.019
Mof_O 	O 	0.8059	0.9887	0.5993	-0.266
Mof_C 	C 	0.1352	0.5999	0.6658	-0.203
Mof_H 	H 	0.1191	0.5111	0.6647	0.089
Mof_H 	H 	0.1709	0.6114	0.636	0.089
Mof_C 	C 	0.2936	0.4322	0.8088	-0.298
Mof_H 	H 	0.3115	0.4756	0.7767	0.135
Mof_C 	C 	0.2166	0.4646	0.821	0.229
Mof_C 	C 	0.3201	0.2685	0.8917	-0.301
Mof_C 	C 	0.3788	0.1684	0.932	0.591
Mof_C 	C 	0.0358	0.7843	0.6727	-0.23
Mof_H 	H 	0.0775	0.8097	0.7119	0.121
Mof_C 	C 	0.2678	0.7983	0.695	-0.044
Mof_H 	H 	0.2342	0.7839	0.6512	0.061
Mof_C 	C 	0.0517	0.678	0.6406	0.182
Mof_C 	C 	0.8962	0.8182	0.5906	-0.22
Mof_C 	C 	0.1593	0.5754	0.7858	-0.23
Mof_H 	H 	0.099	0.5459	0.7675	0.1
Mof_H 	H 	0.1594	0.6403	0.8184	0.103
Mof_C 	C 	0.9593	0.8548	0.6484	0.139
Mof_H 	H 	0.9503	0.9269	0.671	-0.005
Mof_C 	C 	0.1891	0.3956	0.8669	-0.291
Mof_H 	H 	0.1352	0.415	0.8739	0.127
Mof_C 	C 	0.3461	0.9657	0.6516	0.332
Mof_C 	C 	0.8156	0.8928	0.5628	0.434
Mof_C 	C 	0.3455	0.3341	0.8443	0.221
Mof_H 	H 	0.398	0.3129	0.8357	-0.063
Mof_C 	C 	0.2395	0.2991	0.9025	0.212
Mof_H 	H 	0.2202	0.2542	0.9335	-0.027
Mof_C 	C 	0.9864	0.6396	0.5832	-0.24
Mof_H 	H 	0.9949	0.5663	0.5613	0.103
Mof_C 	C 	0.9102	0.7081	0.5587	0.148
Mof_H 	H 	0.8675	0.6809	0.5205	-0.026
Mof_Nd	Nd	0.60081	0.91962	0.45333	2.521
Mof_O 	O 	0.4954	0.078	0.407	-0.621
Mof_O 	O 	0.3457	0.9127	0.4614	-0.545
Mof_O 	O 	0.3905	0.1721	0.4397	-0.587
Mof_O 	O 	0.4583	0.8283	0.435	-0.654
Mof_O 	O 	0.393	0.9349	0.1631	-0.499
Mof_O 	O 	0.3105	0.0709	0.0936	-0.451
Mof_C 	C 	0.4227	0.1339	0.3957	0.538
Mof_C 	C 	0.2514	0.2729	0.2458	0.037
Mof_C 	C 	0.3695	0.1572	0.3242	-0.156
Mof_N 	N 	0.1881	0.3681	0.2328	-0.068
Mof_O 	O 	0.7608	0.1358	0.0104	-0.513
Mof_C 	C 	0.3032	0.2489	0.3094	-0.007
Mof_H 	H 	0.2936	0.2956	0.344	0.042
Mof_C 	C 	0.3335	0.1096	0.2085	-0.084
Mof_C 	C 	0.3859	0.0873	0.2733	0.06
Mof_H 	H 	0.4307	0.027	0.2823	0.018
Mof_O 	O 	0.8059	0.0113	0.0993	-0.264
Mof_C 	C 	0.1352	0.4001	0.1658	-0.202
Mof_H 	H 	0.1191	0.4889	0.1647	0.087
Mof_H 	H 	0.1709	0.3886	0.136	0.088
Mof_C 	C 	0.2936	0.5678	0.3088	-0.298
Mof_H 	H 	0.3115	0.5244	0.2767	0.135
Mof_C 	C 	0.2166	0.5354	0.321	0.229
Mof_C 	C 	0.3201	0.7315	0.3917	-0.3
Mof_C 	C 	0.3788	0.8316	0.432	0.592
Mof_C 	C 	0.0358	0.2157	0.1727	-0.234
Mof_H 	H 	0.0775	0.1903	0.2119	0.122
Mof_C 	C 	0.2678	0.2017	0.195	-0.043
Mof_H 	H 	0.2342	0.2161	0.1512	0.061
Mof_C 	C 	0.0517	0.322	0.1406	0.179
Mof_C 	C 	0.8962	0.1818	0.0906	-0.219
Mof_C 	C 	0.1593	0.4246	0.2858	-0.229
Mof_H 	H 	0.099	0.4541	0.2675	0.099
Mof_H 	H 	0.1594	0.3597	0.3184	0.102
Mof_C 	C 	0.9593	0.1452	0.1484	0.144
Mof_H 	H 	0.9503	0.0731	0.171	-0.005
Mof_C 	C 	0.1891	0.6044	0.3669	-0.291
Mof_H 	H 	0.1352	0.585	0.3739	0.126
Mof_C 	C 	0.3461	0.0343	0.1516	0.334
Mof_C 	C 	0.8156	0.1072	0.0628	0.434
Mof_C 	C 	0.3455	0.6659	0.3443	0.221
Mof_H 	H 	0.398	0.6871	0.3357	-0.063
Mof_C 	C 	0.2395	0.7009	0.4025	0.212
Mof_H 	H 	0.2202	0.7458	0.4335	-0.026
Mof_C 	C 	0.9864	0.3604	0.0832	-0.235
Mof_H 	H 	0.9949	0.4337	0.0613	0.102
Mof_C 	C 	0.9102	0.2919	0.0587	0.147
Mof_H 	H 	0.8675	0.3191	0.0205	-0.025
Mof_Nd	Nd	0.3992	0.91962	0.04667	2.505
Mof_O 	O 	0.5046	0.078	0.093	-0.616
Mof_O 	O 	0.6543	0.9127	0.0386	-0.546
Mof_O 	O 	0.6095	0.1721	0.0603	-0.583
Mof_O 	O 	0.5417	0.8283	0.065	-0.653
Mof_O 	O 	0.607	0.9349	0.3369	-0.499
Mof_O 	O 	0.6895	0.0709	0.4064	-0.452
Mof_C 	C 	0.5773	0.1339	0.1043	0.536
Mof_C 	C 	0.7486	0.2729	0.2542	0.037
Mof_C 	C 	0.6305	0.1572	0.1758	-0.154
Mof_N 	N 	0.8119	0.3681	0.2672	-0.068
Mof_O 	O 	0.2392	0.1358	0.4896	-0.517
Mof_C 	C 	0.6968	0.2489	0.1906	-0.008
Mof_H 	H 	0.7064	0.2956	0.156	0.042
Mof_C 	C 	0.6665	0.1096	0.2915	-0.083
Mof_C 	C 	0.6141	0.0873	0.2267	0.058
Mof_H 	H 	0.5693	0.027	0.2177	0.019
Mof_O 	O 	0.1941	0.0113	0.4007	-0.266
Mof_C 	C 	0.8648	0.4001	0.3342	-0.203
Mof_H 	H 	0.8809	0.4889	0.3353	0.089
Mof_H 	H 	0.8291	0.3886	0.364	0.089
Mof_C 	C 	0.7064	0.5678	0.1912	-0.298
Mof_H 	H 	0.6885	0.5244	0.2233	0.135
Mof_C 	C 	0.7834	0.5354	0.179	0.229
Mof_C 	C 	0.6799	0.7315	0.1083	-0.301
Mof_C 	C 	0.6212	0.8316	0.068	0.591
Mof_C 	C 	0.9642	0.2157	0.3273	-0.23
Mof_H 	H 	0.9225	0.1903	0.2881	0.121
Mof_C 	C 	0.7322	0.2017	0.305	-0.044
Mof_H 	H 	0.7658	0.2161	0.3488	0.061
Mof_C 	C 	0.9483	0.322	0.3594	0.182
Mof_C 	C 	0.1038	0.1818	0.4094	-0.22
Mof_C 	C 	0.8407	0.4246	0.2142	-0.23
Mof_H 	H 	0.901	0.4541	0.2325	0.1
Mof_H 	H 	0.8406	0.3597	0.1816	0.103
Mof_C 	C 	0.0407	0.1452	0.3516	0.139
Mof_H 	H 	0.0497	0.0731	0.329	-0.005
Mof_C 	C 	0.8109	0.6044	0.1331	-0.291
Mof_H 	H 	0.8648	0.585	0.1261	0.127
Mof_C 	C 	0.6539	0.0343	0.3484	0.332
Mof_C 	C 	0.1844	0.1072	0.4372	0.434
Mof_C 	C 	0.6545	0.6659	0.1557	0.221
Mof_H 	H 	0.602	0.6871	0.1643	-0.063
Mof_C 	C 	0.7605	0.7009	0.0975	0.212
Mof_H 	H 	0.7798	0.7458	0.0665	-0.027
Mof_C 	C 	0.0136	0.3604	0.4168	-0.24
Mof_H 	H 	0.0051	0.4337	0.4387	0.103
Mof_C 	C 	0.0898	0.2919	0.4413	0.148
Mof_H 	H 	0.1325	0.3191	0.4795	-0.026
_end
