data_functionalizedCrystal
_audit_creation_method	'EQeq! by Chris Wilmer'
_symmetry_space_group_name_H-M	'P1'
_symmetry_Int_Tables_number	1
_symmetry_cell_setting	triclinic
loop_
_symmetry_equiv_pos_as_xyz
  x,y,z
_cell_length_a	13.5609
_cell_length_b	17.0431
_cell_length_c	13.4425
_cell_angle_alpha	90
_cell_angle_beta	90.931
_cell_angle_gamma	90
loop_
_atom_site_label
_atom_site_type_symbol
_atom_site_fract_x
_atom_site_fract_y
_atom_site_fract_z
_atom_site_charge
Mof_P 	P 	0.6041	0.57179	0.89644	0.532
Mof_H 	H 	0.507	0.5595	0.9311	-0.005
Mof_P 	P 	0.77393	0.56689	0.17188	0.494
Mof_H 	H 	0.693	0.517	0.1358	-0.014
Mof_P 	P 	0.74153	0.65801	0.54145	0.53
Mof_H 	H 	0.836	0.6421	0.57	-0.022
Mof_P 	P 	0.90124	0.42242	0.3924	0.519
Mof_H 	H 	-2.28734e-18	0.4318	0.4259	-0.003
Mof_P 	P 	0.7533	0.34236	0.03547	0.536
Mof_H 	H 	0.655	0.3597	0.0498	-0.014
Mof_P 	P 	0.61694	0.39599	0.3489	0.517
Mof_H 	H 	0.6212	0.38	0.248	-0.011
Mof_P 	P 	0.89021	0.58727	0.86442	0.533
Mof_H 	H 	0.8751	0.614	0.767	-0.018
Mof_P 	P 	0.72398	0.45042	0.65426	0.514
Mof_H 	H 	0.805	0.5	0.6307	-0.024
Mof_Be	Be	0.7474	0.5373	0.3813	0.785
Mof_Be	Be	0.753	0.4522	0.8686	0.779
Mof_Be	Be	0.7515	0.6687	0.0008	0.796
Mof_Be	Be	0.5991	0.5871	0.675	0.772
Mof_Be	Be	0.8969	0.4295	0.1702	0.778
Mof_Be	Be	0.754	0.3305	0.4922	0.804
Mof_O 	O 	0.647	0.634	0.9613	-0.376
Mof_O 	O 	0.655	0.494	0.906	-0.408
Mof_O 	O 	0.5923	0.60078	0.7922	-0.388
Mof_O 	O 	0.7728	0.64234	0.1132	-0.353
Mof_O 	O 	0.7551	0.58833	0.2796	-0.343
Mof_O 	O 	0.8694	0.52222	0.16	-0.36
Mof_O 	O 	0.7394	0.73786	0.4968	-0.355
Mof_O 	O 	0.7111	0.59853	0.4642	-0.359
Mof_O 	O 	0.6777	0.652	0.6325	-0.352
Mof_O 	O 	0.8605	0.3546	0.4503	-0.367
Mof_O 	O 	0.9063	0.40186	0.2844	-0.38
Mof_O 	O 	0.8507	0.49895	0.4132	-0.403
Mof_O 	O 	0.81	0.3774	0.1199	-0.375
Mof_O 	O 	0.7639	0.25543	0.0418	-0.35
Mof_O 	O 	0.78	0.37376	0.9346	-0.345
Mof_O 	O 	0.6739	0.33151	0.4018	-0.36
Mof_O 	O 	0.6589	0.47617	0.3637	-0.384
Mof_O 	O 	0.5086	0.39387	0.3764	-0.331
Mof_O 	O 	0.843	0.6448	0.9322	-0.369
Mof_O 	O 	0.8486	0.5065	0.8702	-0.389
Mof_O 	O 	0.0003	0.58743	0.8851	-0.344
Mof_O 	O 	0.6303	0.49873	0.6487	-0.364
Mof_O 	O 	0.719	0.38566	0.5798	-0.366
Mof_O 	O 	0.7417	0.41642	0.7572	-0.349
Mof_P 	P 	0.3959	0.07179	0.60356	0.531
Mof_H 	H 	0.493	0.0595	0.5689	-0.006
Mof_P 	P 	0.22607	0.06689	0.32812	0.494
Mof_H 	H 	0.307	0.017	0.3642	-0.014
Mof_P 	P 	0.25847	0.15801	0.95855	0.523
Mof_H 	H 	0.164	0.1421	0.93	-0.023
Mof_P 	P 	0.09876	0.92242	0.1076	0.519
Mof_H 	H 	-2.85917e-19	0.9318	0.0741	-0.004
Mof_P 	P 	0.2467	0.84236	0.46453	0.535
Mof_H 	H 	0.345	0.8597	0.4502	-0.016
Mof_P 	P 	0.38306	0.89599	0.1511	0.516
Mof_H 	H 	0.3788	0.88	0.252	-0.012
Mof_P 	P 	0.10979	0.08727	0.63558	0.531
Mof_H 	H 	0.1249	0.114	0.733	-0.019
Mof_P 	P 	0.27602	0.95042	0.84574	0.515
Mof_H 	H 	0.195	0	0.8693	-0.026
Mof_Be	Be	0.2526	0.0373	0.1187	0.791
Mof_Be	Be	0.247	0.9522	0.6314	0.779
Mof_Be	Be	0.2485	0.1687	0.4992	0.802
Mof_Be	Be	0.4009	0.0871	0.825	0.77
Mof_Be	Be	0.1031	0.9295	0.3298	0.777
Mof_Be	Be	0.246	0.8305	0.0078	0.802
Mof_O 	O 	0.353	0.134	0.5387	-0.378
Mof_O 	O 	0.345	0.994	0.594	-0.408
Mof_O 	O 	0.4077	0.10078	0.7078	-0.388
Mof_O 	O 	0.2272	0.14234	0.3868	-0.353
Mof_O 	O 	0.2449	0.08833	0.2204	-0.343
Mof_O 	O 	0.1306	0.02222	0.34	-0.358
Mof_O 	O 	0.2606	0.23786	0.0032	-0.35
Mof_O 	O 	0.2889	0.09853	0.0358	-0.355
Mof_O 	O 	0.3223	0.152	0.8675	-0.352
Mof_O 	O 	0.1395	0.8546	0.0497	-0.367
Mof_O 	O 	0.0937	0.90186	0.2156	-0.38
Mof_O 	O 	0.1493	0.99895	0.0868	-0.405
Mof_O 	O 	0.19	0.8774	0.3801	-0.375
Mof_O 	O 	0.2361	0.75543	0.4582	-0.35
Mof_O 	O 	0.22	0.87376	0.5654	-0.345
Mof_O 	O 	0.3261	0.83151	0.0982	-0.36
Mof_O 	O 	0.3411	0.97617	0.1363	-0.387
Mof_O 	O 	0.4914	0.89387	0.1236	-0.332
Mof_O 	O 	0.157	0.1448	0.5678	-0.371
Mof_O 	O 	0.1514	0.0065	0.6298	-0.39
Mof_O 	O 	0.9997	0.08743	0.6149	-0.342
Mof_O 	O 	0.3697	0.99873	0.8513	-0.362
Mof_O 	O 	0.281	0.88566	0.9202	-0.365
Mof_O 	O 	0.2583	0.91642	0.7428	-0.349
Mof_P 	P 	0.3959	0.42821	0.10356	0.531
Mof_H 	H 	0.493	0.4405	0.0689	-0.007
Mof_P 	P 	0.22607	0.43311	0.82812	0.493
Mof_H 	H 	0.307	0.483	0.8642	-0.015
Mof_P 	P 	0.25847	0.34199	0.45855	0.529
Mof_H 	H 	0.164	0.3579	0.43	-0.022
Mof_P 	P 	0.09876	0.57758	0.6076	0.518
Mof_H 	H 	-2.28734e-18	0.5682	0.5741	-0.004
Mof_P 	P 	0.2467	0.65764	0.96453	0.535
Mof_H 	H 	0.345	0.6403	0.9502	-0.015
Mof_P 	P 	0.38306	0.60401	0.6511	0.516
Mof_H 	H 	0.3788	0.62	0.752	-0.012
Mof_P 	P 	0.10979	0.41273	0.13558	0.533
Mof_H 	H 	0.1249	0.386	0.233	-0.018
Mof_P 	P 	0.27602	0.54958	0.34574	0.514
Mof_H 	H 	0.195	0.5	0.3693	-0.024
Mof_Be	Be	0.2526	0.4627	0.6187	0.785
Mof_Be	Be	0.247	0.5478	0.1314	0.779
Mof_Be	Be	0.2485	0.3313	0.9992	0.796
Mof_Be	Be	0.4009	0.4129	0.325	0.772
Mof_Be	Be	0.1031	0.5705	0.8298	0.778
Mof_Be	Be	0.246	0.6695	0.5078	0.804
Mof_O 	O 	0.353	0.366	0.0387	-0.376
Mof_O 	O 	0.345	0.506	0.094	-0.408
Mof_O 	O 	0.4077	0.39922	0.2078	-0.388
Mof_O 	O 	0.2272	0.35766	0.8868	-0.353
Mof_O 	O 	0.2449	0.41167	0.7204	-0.343
Mof_O 	O 	0.1306	0.47778	0.84	-0.359
Mof_O 	O 	0.2606	0.26214	0.5032	-0.355
Mof_O 	O 	0.2889	0.40147	0.5358	-0.359
Mof_O 	O 	0.3223	0.348	0.3675	-0.352
Mof_O 	O 	0.1395	0.6454	0.5497	-0.367
Mof_O 	O 	0.0937	0.59814	0.7156	-0.38
Mof_O 	O 	0.1493	0.50105	0.5868	-0.402
Mof_O 	O 	0.19	0.6226	0.8801	-0.375
Mof_O 	O 	0.2361	0.74457	0.9582	-0.35
Mof_O 	O 	0.22	0.62624	0.0654	-0.345
Mof_O 	O 	0.3261	0.66849	0.5982	-0.36
Mof_O 	O 	0.3411	0.52383	0.6363	-0.384
Mof_O 	O 	0.4914	0.60613	0.6236	-0.331
Mof_O 	O 	0.157	0.3552	0.0678	-0.369
Mof_O 	O 	0.1514	0.4935	0.1298	-0.389
Mof_O 	O 	0.9997	0.41257	0.1149	-0.345
Mof_O 	O 	0.3697	0.50127	0.3513	-0.364
Mof_O 	O 	0.281	0.61434	0.4202	-0.366
Mof_O 	O 	0.2583	0.58358	0.2428	-0.349
Mof_P 	P 	0.6041	0.92821	0.39644	0.529
Mof_H 	H 	0.507	0.9405	0.4311	-0.007
Mof_P 	P 	0.77393	0.93311	0.67188	0.494
Mof_H 	H 	0.693	0.983	0.6358	-0.015
Mof_P 	P 	0.74153	0.84199	0.04145	0.522
Mof_H 	H 	0.836	0.8579	0.07	-0.024
Mof_P 	P 	0.90124	0.07758	0.8924	0.52
Mof_H 	H 	2.28734e-18	0.0682	0.9259	-0.007
Mof_P 	P 	0.7533	0.15764	0.53547	0.535
Mof_H 	H 	0.655	0.1403	0.5498	-0.016
Mof_P 	P 	0.61694	0.10401	0.8489	0.516
Mof_H 	H 	0.6212	0.12	0.748	-0.012
Mof_P 	P 	0.89021	0.91273	0.36442	0.53
Mof_H 	H 	0.8751	0.886	0.267	-0.02
Mof_P 	P 	0.72398	0.04958	0.15426	0.514
Mof_H 	H 	0.805	1.01578e-33	0.1307	-0.022
Mof_Be	Be	0.7474	0.9627	0.8813	0.787
Mof_Be	Be	0.753	0.0478	0.3686	0.781
Mof_Be	Be	0.7515	0.8313	0.5008	0.802
Mof_Be	Be	0.5991	0.9129	0.175	0.768
Mof_Be	Be	0.8969	0.0705	0.6702	0.779
Mof_Be	Be	0.754	0.1695	0.9922	0.802
Mof_O 	O 	0.647	0.866	0.4613	-0.378
Mof_O 	O 	0.655	0.006	0.406	-0.406
Mof_O 	O 	0.5923	0.89922	0.2922	-0.388
Mof_O 	O 	0.7728	0.85766	0.6132	-0.353
Mof_O 	O 	0.7551	0.91167	0.7796	-0.343
Mof_O 	O 	0.8694	0.97778	0.66	-0.36
Mof_O 	O 	0.7394	0.76214	0.9968	-0.349
Mof_O 	O 	0.7111	0.90147	0.9642	-0.355
Mof_O 	O 	0.6777	0.848	0.1325	-0.352
Mof_O 	O 	0.8605	0.1454	0.9503	-0.367
Mof_O 	O 	0.9063	0.09814	0.7844	-0.38
Mof_O 	O 	0.8507	0.00105	0.9132	-0.403
Mof_O 	O 	0.81	0.1226	0.6199	-0.375
Mof_O 	O 	0.7639	0.24457	0.5418	-0.351
Mof_O 	O 	0.78	0.12624	0.4346	-0.345
Mof_O 	O 	0.6739	0.16849	0.9018	-0.36
Mof_O 	O 	0.6589	0.02383	0.8637	-0.385
Mof_O 	O 	0.5086	0.10613	0.8764	-0.332
Mof_O 	O 	0.843	0.8552	0.4322	-0.372
Mof_O 	O 	0.8486	0.9935	0.3702	-0.392
Mof_O 	O 	0.0003	0.91257	0.3851	-0.341
Mof_O 	O 	0.6303	0.00127	0.1487	-0.36
Mof_O 	O 	0.719	0.11434	0.0798	-0.365
Mof_O 	O 	0.7417	0.08358	0.2572	-0.349
_end
