data_functionalizedCrystal
_audit_creation_method	'EQeq! by Chris Wilmer'
_symmetry_space_group_name_H-M	'P1'
_symmetry_Int_Tables_number	1
_symmetry_cell_setting	triclinic
loop_
_symmetry_equiv_pos_as_xyz
  x,y,z
_cell_length_a	14.9976
_cell_length_b	14.2913
_cell_length_c	16.5016
_cell_angle_alpha	90
_cell_angle_beta	108.701
_cell_angle_gamma	90
loop_
_atom_site_label
_atom_site_type_symbol
_atom_site_fract_x
_atom_site_fract_y
_atom_site_fract_z
_atom_site_charge
Mof_Re	Re	0.1251	0.98027	0.0581	0.332
Mof_Re	Re	0.0044	0.11039	0.05812	0.322
Mof_Re	Re	0.96812	0.93702	0.08406	0.342
Mof_S 	S 	0.0899	0.02623	0.18538	-0.239
Mof_S 	S 	0.08274	0.82143	0.07792	-0.249
Mof_S 	S 	0.85858	0.06192	0.07817	-0.206
Mof_S 	S 	0.14952	0.14178	0.02965	-0.22
Mof_C 	C 	0.2684	0.9563	0.1275	-0.01
Mof_N 	N 	0.3447	0.9434	0.1676	-0.127
Mof_C 	C 	0.0117	0.2377	0.1255	-0.014
Mof_N 	N 	0.0178	0.3066	0.1613	-0.125
Mof_Re	Re	0.6251	0.48027	0.0581	0.339
Mof_Re	Re	0.5044	0.61039	0.05812	0.34
Mof_Re	Re	0.46812	0.43702	0.08406	0.321
Mof_S 	S 	0.5899	0.52623	0.18538	-0.231
Mof_S 	S 	0.58274	0.32143	0.07792	-0.225
Mof_S 	S 	0.35858	0.56192	0.07817	-0.22
Mof_S 	S 	0.64952	0.64178	0.02965	-0.224
Mof_C 	C 	0.7684	0.4563	0.1275	-0.008
Mof_N 	N 	0.8447	0.4434	0.1676	-0.119
Mof_C 	C 	0.5117	0.7377	0.1255	-0.008
Mof_N 	N 	0.5178	0.8066	0.1613	-0.122
Mof_Re	Re	0.8749	0.98027	0.4419	0.34
Mof_Re	Re	0.9956	0.11039	0.44188	0.364
Mof_Re	Re	0.03188	0.93702	0.41594	0.294
Mof_S 	S 	0.9101	0.02623	0.31462	-0.219
Mof_S 	S 	0.91726	0.82143	0.42208	-0.206
Mof_S 	S 	0.14142	0.06192	0.42183	-0.228
Mof_S 	S 	0.85048	0.14178	0.47035	-0.228
Mof_C 	C 	0.7316	0.9563	0.3725	-0.012
Mof_N 	N 	0.6553	0.9434	0.3324	-0.126
Mof_C 	C 	0.9883	0.2377	0.3745	-0
Mof_N 	N 	0.9822	0.3066	0.3387	-0.114
Mof_Re	Re	0.3749	0.48027	0.4419	0.337
Mof_Re	Re	0.4956	0.61039	0.44188	0.339
Mof_Re	Re	0.53188	0.43702	0.41594	0.319
Mof_S 	S 	0.4101	0.52623	0.31462	-0.232
Mof_S 	S 	0.41726	0.32143	0.42208	-0.229
Mof_S 	S 	0.64142	0.56192	0.42183	-0.217
Mof_S 	S 	0.35048	0.64178	0.47035	-0.229
Mof_C 	C 	0.2316	0.4563	0.3725	-0.013
Mof_N 	N 	0.1553	0.4434	0.3324	-0.128
Mof_C 	C 	0.4883	0.7377	0.3745	-0.008
Mof_N 	N 	0.4822	0.8066	0.3387	-0.122
Mof_Re	Re	0.8749	0.01973	0.9419	0.336
Mof_Re	Re	0.9956	0.88961	0.94188	0.364
Mof_Re	Re	0.03188	0.06298	0.91594	0.288
Mof_S 	S 	0.9101	0.97377	0.81462	-0.217
Mof_S 	S 	0.91726	0.17857	0.92208	-0.208
Mof_S 	S 	0.14142	0.93808	0.92183	-0.226
Mof_S 	S 	0.85048	0.85822	0.97035	-0.228
Mof_C 	C 	0.7316	0.0437	0.8725	-0.013
Mof_N 	N 	0.6553	0.0566	0.8324	-0.126
Mof_C 	C 	0.9883	0.7623	0.8745	-0.001
Mof_N 	N 	0.9822	0.6934	0.8387	-0.114
Mof_Re	Re	0.3749	0.51973	0.9419	0.336
Mof_Re	Re	0.4956	0.38961	0.94188	0.337
Mof_Re	Re	0.53188	0.56298	0.91594	0.318
Mof_S 	S 	0.4101	0.47377	0.81462	-0.232
Mof_S 	S 	0.41726	0.67857	0.92208	-0.23
Mof_S 	S 	0.64142	0.43808	0.92183	-0.219
Mof_S 	S 	0.35048	0.35822	0.97035	-0.232
Mof_C 	C 	0.2316	0.5437	0.8725	-0.013
Mof_N 	N 	0.1553	0.5566	0.8324	-0.128
Mof_C 	C 	0.4883	0.2623	0.8745	-0.009
Mof_N 	N 	0.4822	0.1934	0.8387	-0.122
Mof_Re	Re	0.1251	0.01973	0.5581	0.332
Mof_Re	Re	0.0044	0.88961	0.55812	0.317
Mof_Re	Re	0.96812	0.06298	0.58406	0.345
Mof_S 	S 	0.0899	0.97377	0.68538	-0.241
Mof_S 	S 	0.08274	0.17857	0.57792	-0.251
Mof_S 	S 	0.85858	0.93808	0.57817	-0.21
Mof_S 	S 	0.14952	0.85822	0.52965	-0.225
Mof_C 	C 	0.2684	0.0437	0.6275	-0.01
Mof_N 	N 	0.3447	0.0566	0.6676	-0.127
Mof_C 	C 	0.0117	0.7623	0.6255	-0.015
Mof_N 	N 	0.0178	0.6934	0.6613	-0.125
Mof_Re	Re	0.6251	0.51973	0.5581	0.338
Mof_Re	Re	0.5044	0.38961	0.55812	0.339
Mof_Re	Re	0.46812	0.56298	0.58406	0.319
Mof_S 	S 	0.5899	0.47377	0.68538	-0.23
Mof_S 	S 	0.58274	0.67857	0.57792	-0.228
Mof_S 	S 	0.35858	0.43808	0.57817	-0.221
Mof_S 	S 	0.64952	0.35822	0.52965	-0.225
Mof_C 	C 	0.7684	0.5437	0.6275	-0.009
Mof_N 	N 	0.8447	0.5566	0.6676	-0.119
Mof_C 	C 	0.5117	0.2623	0.6255	-0.008
Mof_N 	N 	0.5178	0.1934	0.6613	-0.122
Mof_Cd	Cd	1.69675e-17	0.42387	0.25	0.338
Mof_Cd	Cd	0.5	0.92387	0.25	0.355
Mof_Cd	Cd	-3.39349e-17	0.57613	0.75	0.337
Mof_Cd	Cd	0.5	0.07613	0.75	0.354
_end
