data_functionalizedCrystal
_audit_creation_method	'EQeq! by Chris Wilmer'
_symmetry_space_group_name_H-M	'P1'
_symmetry_Int_Tables_number	1
_symmetry_cell_setting	triclinic
loop_
_symmetry_equiv_pos_as_xyz
  x,y,z
_cell_length_a	9.203
_cell_length_b	15.776
_cell_length_c	31.587
_cell_angle_alpha	90
_cell_angle_beta	90
_cell_angle_gamma	90
loop_
_atom_site_label
_atom_site_type_symbol
_atom_site_fract_x
_atom_site_fract_y
_atom_site_fract_z
_atom_site_charge
Mof_P 	P 	0.10185	0.3047	0.30866	0.585
Mof_O 	O 	0.0525	0.3563	0.27112	-0.475
Mof_O 	O 	0.9872	0.29435	0.34228	-0.487
Mof_O 	O 	0.1713	0.22186	0.29649	-0.445
Mof_O 	O 	0.2279	0.3593	0.33108	-0.609
Mof_H 	H 	0.319	0.359	0.321	0.259
Mof_H 	H 	0.181	0.355	0.3557	0.24
Mof_P 	P 	0.10185	0.8047	0.80866	0.586
Mof_O 	O 	0.0525	0.8563	0.77112	-0.475
Mof_O 	O 	0.9872	0.79435	0.84228	-0.488
Mof_O 	O 	0.1713	0.72186	0.79649	-0.444
Mof_O 	O 	0.2279	0.8593	0.83108	-0.608
Mof_H 	H 	0.319	0.859	0.821	0.26
Mof_H 	H 	0.181	0.855	0.8557	0.241
Mof_P 	P 	0.60185	0.3047	0.80866	0.586
Mof_O 	O 	0.5525	0.3563	0.77112	-0.474
Mof_O 	O 	0.4872	0.29435	0.84228	-0.486
Mof_O 	O 	0.6713	0.22186	0.79649	-0.444
Mof_O 	O 	0.7279	0.3593	0.83108	-0.608
Mof_H 	H 	0.819	0.359	0.821	0.26
Mof_H 	H 	0.681	0.355	0.8557	0.241
Mof_P 	P 	0.60185	0.8047	0.30866	0.586
Mof_O 	O 	0.5525	0.8563	0.27112	-0.474
Mof_O 	O 	0.4872	0.79435	0.34228	-0.486
Mof_O 	O 	0.6713	0.72186	0.29649	-0.444
Mof_O 	O 	0.7279	0.8593	0.33108	-0.608
Mof_H 	H 	0.819	0.859	0.321	0.26
Mof_H 	H 	0.681	0.855	0.3557	0.241
Mof_P 	P 	0.64815	0.4453	0.30866	0.586
Mof_O 	O 	0.6975	0.3937	0.27112	-0.474
Mof_O 	O 	0.7628	0.45565	0.34228	-0.486
Mof_O 	O 	0.5787	0.52814	0.29649	-0.444
Mof_O 	O 	0.5221	0.3907	0.33108	-0.608
Mof_H 	H 	0.431	0.391	0.321	0.26
Mof_H 	H 	0.569	0.395	0.3557	0.241
Mof_P 	P 	0.64815	0.9453	0.80866	0.586
Mof_O 	O 	0.6975	0.8937	0.77112	-0.474
Mof_O 	O 	0.7628	0.95565	0.84228	-0.486
Mof_O 	O 	0.5787	0.02814	0.79649	-0.444
Mof_O 	O 	0.5221	0.8907	0.83108	-0.608
Mof_H 	H 	0.431	0.891	0.821	0.26
Mof_H 	H 	0.569	0.895	0.8557	0.241
Mof_P 	P 	0.14815	0.4453	0.80866	0.586
Mof_O 	O 	0.1975	0.3937	0.77112	-0.474
Mof_O 	O 	0.2628	0.45565	0.84228	-0.486
Mof_O 	O 	0.0787	0.52814	0.79649	-0.444
Mof_O 	O 	0.0221	0.3907	0.83108	-0.608
Mof_H 	H 	0.931	0.391	0.821	0.26
Mof_H 	H 	0.069	0.395	0.8557	0.241
Mof_P 	P 	0.14815	0.9453	0.30866	0.587
Mof_O 	O 	0.1975	0.8937	0.27112	-0.474
Mof_O 	O 	0.2628	0.95565	0.34228	-0.486
Mof_O 	O 	0.0787	0.02814	0.29649	-0.445
Mof_O 	O 	0.0221	0.8907	0.33108	-0.607
Mof_H 	H 	0.931	0.891	0.321	0.259
Mof_H 	H 	0.069	0.895	0.3557	0.24
Mof_P 	P 	0.64815	0.3047	0.44134	0.586
Mof_O 	O 	0.6975	0.3563	0.47888	-0.474
Mof_O 	O 	0.7628	0.29435	0.40772	-0.486
Mof_O 	O 	0.5787	0.22186	0.45351	-0.444
Mof_O 	O 	0.5221	0.3593	0.41892	-0.608
Mof_H 	H 	0.431	0.359	0.429	0.26
Mof_H 	H 	0.569	0.355	0.3943	0.241
Mof_P 	P 	0.64815	0.8047	0.94134	0.586
Mof_O 	O 	0.6975	0.8563	0.97888	-0.474
Mof_O 	O 	0.7628	0.79435	0.90772	-0.486
Mof_O 	O 	0.5787	0.72186	0.95351	-0.444
Mof_O 	O 	0.5221	0.8593	0.91892	-0.608
Mof_H 	H 	0.431	0.859	0.929	0.26
Mof_H 	H 	0.569	0.855	0.8943	0.241
Mof_P 	P 	0.14815	0.3047	0.94134	0.586
Mof_O 	O 	0.1975	0.3563	0.97888	-0.474
Mof_O 	O 	0.2628	0.29435	0.90772	-0.486
Mof_O 	O 	0.0787	0.22186	0.95351	-0.444
Mof_O 	O 	0.0221	0.3593	0.91892	-0.608
Mof_H 	H 	0.931	0.359	0.929	0.26
Mof_H 	H 	0.069	0.355	0.8943	0.241
Mof_P 	P 	0.14815	0.8047	0.44134	0.586
Mof_O 	O 	0.1975	0.8563	0.47888	-0.474
Mof_O 	O 	0.2628	0.79435	0.40772	-0.486
Mof_O 	O 	0.0787	0.72186	0.45351	-0.444
Mof_O 	O 	0.0221	0.8593	0.41892	-0.607
Mof_H 	H 	0.931	0.859	0.429	0.259
Mof_H 	H 	0.069	0.855	0.3943	0.24
Mof_P 	P 	0.10185	0.4453	0.44134	0.586
Mof_O 	O 	0.0525	0.3937	0.47888	-0.474
Mof_O 	O 	0.9872	0.45565	0.40772	-0.486
Mof_O 	O 	0.1713	0.52814	0.45351	-0.444
Mof_O 	O 	0.2279	0.3907	0.41892	-0.608
Mof_H 	H 	0.319	0.391	0.429	0.26
Mof_H 	H 	0.181	0.395	0.3943	0.241
Mof_P 	P 	0.10185	0.9453	0.94134	0.588
Mof_O 	O 	0.0525	0.8937	0.97888	-0.473
Mof_O 	O 	0.9872	0.95565	0.90772	-0.487
Mof_O 	O 	0.1713	0.02814	0.95351	-0.445
Mof_O 	O 	0.2279	0.8907	0.91892	-0.608
Mof_H 	H 	0.319	0.891	0.929	0.26
Mof_H 	H 	0.181	0.895	0.8943	0.241
Mof_P 	P 	0.60185	0.4453	0.94134	0.586
Mof_O 	O 	0.5525	0.3937	0.97888	-0.474
Mof_O 	O 	0.4872	0.45565	0.90772	-0.486
Mof_O 	O 	0.6713	0.52814	0.95351	-0.444
Mof_O 	O 	0.7279	0.3907	0.91892	-0.608
Mof_H 	H 	0.819	0.391	0.929	0.26
Mof_H 	H 	0.681	0.395	0.8943	0.241
Mof_P 	P 	0.60185	0.9453	0.44134	0.586
Mof_O 	O 	0.5525	0.8937	0.47888	-0.474
Mof_O 	O 	0.4872	0.95565	0.40772	-0.486
Mof_O 	O 	0.6713	0.02814	0.45351	-0.444
Mof_O 	O 	0.7279	0.8907	0.41892	-0.608
Mof_H 	H 	0.819	0.891	0.429	0.26
Mof_H 	H 	0.681	0.895	0.3943	0.241
Mof_P 	P 	0.89815	0.6953	0.69134	0.586
Mof_O 	O 	0.9475	0.6437	0.72888	-0.474
Mof_O 	O 	0.0128	0.70565	0.65772	-0.486
Mof_O 	O 	0.8287	0.77814	0.70351	-0.444
Mof_O 	O 	0.7721	0.6407	0.66892	-0.608
Mof_H 	H 	0.681	0.641	0.679	0.26
Mof_H 	H 	0.819	0.645	0.6443	0.241
Mof_P 	P 	0.89815	0.1953	0.19134	0.587
Mof_O 	O 	0.9475	0.1437	0.22888	-0.474
Mof_O 	O 	0.0128	0.20565	0.15772	-0.487
Mof_O 	O 	0.8287	0.27814	0.20351	-0.444
Mof_O 	O 	0.7721	0.1407	0.16892	-0.608
Mof_H 	H 	0.681	0.141	0.179	0.26
Mof_H 	H 	0.819	0.145	0.1443	0.241
Mof_P 	P 	0.39815	0.6953	0.19134	0.586
Mof_O 	O 	0.4475	0.6437	0.22888	-0.474
Mof_O 	O 	0.5128	0.70565	0.15772	-0.486
Mof_O 	O 	0.3287	0.77814	0.20351	-0.444
Mof_O 	O 	0.2721	0.6407	0.16892	-0.608
Mof_H 	H 	0.181	0.641	0.179	0.26
Mof_H 	H 	0.319	0.645	0.1443	0.241
Mof_P 	P 	0.39815	0.1953	0.69134	0.586
Mof_O 	O 	0.4475	0.1437	0.72888	-0.474
Mof_O 	O 	0.5128	0.20565	0.65772	-0.486
Mof_O 	O 	0.3287	0.27814	0.70351	-0.444
Mof_O 	O 	0.2721	0.1407	0.66892	-0.608
Mof_H 	H 	0.181	0.141	0.679	0.26
Mof_H 	H 	0.319	0.145	0.6443	0.241
Mof_P 	P 	0.35185	0.5547	0.69134	0.586
Mof_O 	O 	0.3025	0.6063	0.72888	-0.474
Mof_O 	O 	0.2372	0.54435	0.65772	-0.486
Mof_O 	O 	0.4213	0.47186	0.70351	-0.444
Mof_O 	O 	0.4779	0.6093	0.66892	-0.608
Mof_H 	H 	0.569	0.609	0.679	0.26
Mof_H 	H 	0.431	0.605	0.6443	0.241
Mof_P 	P 	0.35185	0.0547	0.19134	0.586
Mof_O 	O 	0.3025	0.1063	0.22888	-0.474
Mof_O 	O 	0.2372	0.04435	0.15772	-0.486
Mof_O 	O 	0.4213	0.97186	0.20351	-0.444
Mof_O 	O 	0.4779	0.1093	0.16892	-0.608
Mof_H 	H 	0.569	0.109	0.179	0.26
Mof_H 	H 	0.431	0.105	0.1443	0.241
Mof_P 	P 	0.85185	0.5547	0.19134	0.586
Mof_O 	O 	0.8025	0.6063	0.22888	-0.474
Mof_O 	O 	0.7372	0.54435	0.15772	-0.486
Mof_O 	O 	0.9213	0.47186	0.20351	-0.444
Mof_O 	O 	0.9779	0.6093	0.16892	-0.608
Mof_H 	H 	0.069	0.609	0.179	0.26
Mof_H 	H 	0.931	0.605	0.1443	0.241
Mof_P 	P 	0.85185	0.0547	0.69134	0.587
Mof_O 	O 	0.8025	0.1063	0.72888	-0.474
Mof_O 	O 	0.7372	0.04435	0.65772	-0.486
Mof_O 	O 	0.9213	0.97186	0.70351	-0.445
Mof_O 	O 	0.9779	0.1093	0.66892	-0.607
Mof_H 	H 	0.069	0.109	0.679	0.259
Mof_H 	H 	0.931	0.105	0.6443	0.24
Mof_P 	P 	0.35185	0.6953	0.55866	0.586
Mof_O 	O 	0.3025	0.6437	0.52112	-0.474
Mof_O 	O 	0.2372	0.70565	0.59228	-0.486
Mof_O 	O 	0.4213	0.77814	0.54649	-0.444
Mof_O 	O 	0.4779	0.6407	0.58108	-0.608
Mof_H 	H 	0.569	0.641	0.571	0.26
Mof_H 	H 	0.431	0.645	0.6057	0.241
Mof_P 	P 	0.35185	0.1953	0.05866	0.586
Mof_O 	O 	0.3025	0.1437	0.02112	-0.474
Mof_O 	O 	0.2372	0.20565	0.09228	-0.486
Mof_O 	O 	0.4213	0.27814	0.04649	-0.444
Mof_O 	O 	0.4779	0.1407	0.08108	-0.608
Mof_H 	H 	0.569	0.141	0.071	0.26
Mof_H 	H 	0.431	0.145	0.1057	0.241
Mof_P 	P 	0.85185	0.6953	0.05866	0.586
Mof_O 	O 	0.8025	0.6437	0.02112	-0.474
Mof_O 	O 	0.7372	0.70565	0.09228	-0.486
Mof_O 	O 	0.9213	0.77814	0.04649	-0.444
Mof_O 	O 	0.9779	0.6407	0.08108	-0.608
Mof_H 	H 	0.069	0.641	0.071	0.26
Mof_H 	H 	0.931	0.645	0.1057	0.241
Mof_P 	P 	0.85185	0.1953	0.55866	0.586
Mof_O 	O 	0.8025	0.1437	0.52112	-0.474
Mof_O 	O 	0.7372	0.20565	0.59228	-0.486
Mof_O 	O 	0.9213	0.27814	0.54649	-0.444
Mof_O 	O 	0.9779	0.1407	0.58108	-0.607
Mof_H 	H 	0.069	0.141	0.571	0.259
Mof_H 	H 	0.931	0.145	0.6057	0.24
Mof_P 	P 	0.89815	0.5547	0.55866	0.586
Mof_O 	O 	0.9475	0.6063	0.52112	-0.474
Mof_O 	O 	0.0128	0.54435	0.59228	-0.486
Mof_O 	O 	0.8287	0.47186	0.54649	-0.444
Mof_O 	O 	0.7721	0.6093	0.58108	-0.608
Mof_H 	H 	0.681	0.609	0.571	0.26
Mof_H 	H 	0.819	0.605	0.6057	0.241
Mof_P 	P 	0.89815	0.0547	0.05866	0.588
Mof_O 	O 	0.9475	0.1063	0.02112	-0.473
Mof_O 	O 	0.0128	0.04435	0.09228	-0.487
Mof_O 	O 	0.8287	0.97186	0.04649	-0.445
Mof_O 	O 	0.7721	0.1093	0.08108	-0.608
Mof_H 	H 	0.681	0.109	0.071	0.26
Mof_H 	H 	0.819	0.105	0.1057	0.241
Mof_P 	P 	0.39815	0.5547	0.05866	0.586
Mof_O 	O 	0.4475	0.6063	0.02112	-0.474
Mof_O 	O 	0.5128	0.54435	0.09228	-0.486
Mof_O 	O 	0.3287	0.47186	0.04649	-0.444
Mof_O 	O 	0.2721	0.6093	0.08108	-0.608
Mof_H 	H 	0.181	0.609	0.071	0.26
Mof_H 	H 	0.319	0.605	0.1057	0.241
Mof_P 	P 	0.39815	0.0547	0.55866	0.586
Mof_O 	O 	0.4475	0.1063	0.52112	-0.474
Mof_O 	O 	0.5128	0.04435	0.59228	-0.486
Mof_O 	O 	0.3287	0.97186	0.54649	-0.444
Mof_O 	O 	0.2721	0.1093	0.58108	-0.608
Mof_H 	H 	0.181	0.109	0.571	0.26
Mof_H 	H 	0.319	0.105	0.6057	0.241
Mof_Zn	Zn	0.875	0.375	0.375	1.23
Mof_Zn	Zn	0.875	0.875	0.875	1.23
Mof_Zn	Zn	0.375	0.375	0.875	1.23
Mof_Zn	Zn	0.375	0.875	0.375	1.23
Mof_Zn	Zn	0.125	0.625	0.625	1.23
Mof_Zn	Zn	0.125	0.125	0.125	1.23
Mof_Zn	Zn	0.625	0.625	0.125	1.23
Mof_Zn	Zn	0.625	0.125	0.625	1.23
Mof_Zn	Zn	0.875	0.375	0.23928	1.236
Mof_Zn	Zn	0.875	0.875	0.73928	1.235
Mof_Zn	Zn	0.375	0.375	0.73928	1.236
Mof_Zn	Zn	0.375	0.875	0.23928	1.236
Mof_Zn	Zn	0.875	0.375	0.51072	1.236
Mof_Zn	Zn	0.875	0.875	0.01072	1.235
Mof_Zn	Zn	0.375	0.375	0.01072	1.236
Mof_Zn	Zn	0.375	0.875	0.51072	1.236
Mof_Zn	Zn	0.125	0.625	0.76072	1.236
Mof_Zn	Zn	0.125	0.125	0.26072	1.235
Mof_Zn	Zn	0.625	0.625	0.26072	1.236
Mof_Zn	Zn	0.625	0.125	0.76072	1.236
Mof_Zn	Zn	0.125	0.625	0.48928	1.236
Mof_Zn	Zn	0.125	0.125	0.98928	1.235
Mof_Zn	Zn	0.625	0.625	0.98928	1.236
Mof_Zn	Zn	0.625	0.125	0.48928	1.236
_end
