data_functionalizedCrystal
_audit_creation_method	'EQeq! by Chris Wilmer'
_symmetry_space_group_name_H-M	'P1'
_symmetry_Int_Tables_number	1
_symmetry_cell_setting	triclinic
loop_
_symmetry_equiv_pos_as_xyz
  x,y,z
_cell_length_a	32.9116
_cell_length_b	34.7726
_cell_length_c	11.5106
_cell_angle_alpha	90
_cell_angle_beta	109.958
_cell_angle_gamma	90
loop_
_atom_site_label
_atom_site_type_symbol
_atom_site_fract_x
_atom_site_fract_y
_atom_site_fract_z
_atom_site_charge
Mof_Zn	Zn	0.96396	0.73842	0.70641	1.198
Mof_O 	O 	0.73952	0.54135	0.66902	-0.921
Mof_O 	O 	0.77674	0.54223	0.86859	-1.019
Mof_O 	O 	0.17596	0.54184	0.64657	-0.49
Mof_O 	O 	0.76558	0.95856	0.64115	-0.897
Mof_O 	O 	0.1931	0.93139	0.83912	-0.773
Mof_O 	O 	0.76361	0.93166	0.81197	-0.859
Mof_O 	O 	0.18782	0.54113	0.84682	-0.981
Mof_O 	O 	0.14907	0.95835	0.67022	-0.431
Mof_N 	N 	0.9604	0.79698	0.6716	-0.271
Mof_N 	N 	0.89796	0.73834	0.6708	-0.276
Mof_N 	N 	0.02178	0.73753	0.6739	-0.277
Mof_N 	N 	0.96146	0.67933	0.6911	-0.277
Mof_C 	C 	0.77034	0.55412	0.7595	0.655
Mof_C 	C 	0.80002	0.5837	0.7378	-0.518
Mof_C 	C 	0.16718	0.55336	0.7386	0.523
Mof_C 	C 	0.77512	0.93115	0.7181	0.761
Mof_C 	C 	0.15939	0.93055	0.7456	0.541
Mof_C 	C 	0.13205	0.58232	0.7223	-0.392
Mof_C 	C 	0.80116	0.89817	0.6989	-0.457
Mof_C 	C 	0.99559	0.82007	0.6854	0.111
Mof_C 	C 	0.12941	0.89681	0.7243	-0.293
Mof_C 	C 	0.88704	0.66873	0.6872	-0.199
Mof_C 	C 	0.92778	0.82058	0.6765	0.118
Mof_C 	C 	0.03443	0.66767	0.6849	-0.188
Mof_C 	C 	0.8725	0.70687	0.6662	0.112
Mof_C 	C 	0.04495	0.70564	0.6656	0.105
Mof_C 	C 	0.88601	0.80852	0.6661	-0.187
Mof_C 	C 	0.06821	0.63761	0.6965	0.223
Mof_C 	C 	0.85611	0.6392	0.7022	0.256
Mof_C 	C 	0.79699	0.59455	0.6207	0.306
Mof_H 	H 	0.7757	0.5833	0.5512	-0.154
Mof_C 	C 	0.92889	0.65624	0.7008	0.11
Mof_C 	C 	0.99564	0.65569	0.6988	0.108
Mof_C 	C 	0.09204	0.89631	0.6232	0.17
Mof_H 	H 	0.0865	0.9163	0.5637	-0.021
Mof_C 	C 	0.03549	0.80737	0.6804	-0.169
Mof_C 	C 	0.06937	0.83712	0.6929	0.183
Mof_C 	C 	0.81281	0.86861	0.7844	0.31
Mof_H 	H 	0.8028	0.8686	0.8525	-0.164
Mof_C 	C 	0.87202	0.76996	0.6571	0.11
Mof_C 	C 	0.94333	0.61679	0.7167	-0.096
Mof_H 	H 	0.927	0.5952	0.7258	0.037
Mof_C 	C 	0.81516	0.89751	0.5976	0.303
Mof_H 	H 	0.8065	0.9173	0.5371	-0.145
Mof_C 	C 	0.82511	0.62209	0.6038	-0.359
Mof_H 	H 	0.8228	0.6293	0.5221	0.129
Mof_C 	C 	0.0459	0.76879	0.6662	0.104
Mof_C 	C 	0.08406	0.71752	0.6433	-0.104
Mof_H 	H 	0.1052	0.7011	0.6304	0.043
Mof_C 	C 	0.85473	0.83875	0.6725	0.24
Mof_C 	C 	0.83918	0.83897	0.7709	-0.339
Mof_H 	H 	0.8467	0.8186	0.8295	0.129
Mof_C 	C 	0.94331	0.85996	0.6964	-0.087
Mof_H 	H 	0.9272	0.8819	0.7034	0.061
Mof_C 	C 	0.98442	0.61634	0.7163	-0.081
Mof_H 	H 	0.0025	0.5944	0.7257	0.032
Mof_C 	C 	0.08445	0.75624	0.6444	-0.103
Mof_H 	H 	0.1061	0.7723	0.633	0.049
Mof_C 	C 	0.138	0.86643	0.8077	0.201
Mof_H 	H 	0.1643	0.866	0.8761	-0.116
Mof_C 	C 	0.98486	0.85938	0.703	-0.075
Mof_H 	H 	0.0037	0.8809	0.7167	0.058
Mof_C 	C 	0.82813	0.75779	0.6381	-0.092
Mof_H 	H 	0.8037	0.774	0.624	0.046
Mof_C 	C 	0.84174	0.868	0.5849	-0.337
Mof_H 	H 	0.8512	0.8678	0.5156	0.13
Mof_C 	C 	0.06237	0.86673	0.6077	-0.238
Mof_H 	H 	0.0367	0.8668	0.5373	0.109
Mof_C 	C 	0.11113	0.59876	0.6106	0.224
Mof_H 	H 	0.118	0.5911	0.5403	-0.06
Mof_C 	C 	0.82999	0.60153	0.8367	0.304
Mof_H 	H 	0.8317	0.595	0.9183	-0.203
Mof_C 	C 	0.10841	0.83672	0.7915	-0.259
Mof_H 	H 	0.1148	0.8159	0.8483	0.103
Mof_C 	C 	0.85778	0.62898	0.8188	-0.379
Mof_H 	H 	0.8783	0.6409	0.8885	0.132
Mof_C 	C 	0.8285	0.71903	0.6444	-0.094
Mof_H 	H 	0.8044	0.7028	0.6361	0.045
Mof_O 	O 	0.99627	0.7421	0.897	-0.286
Mof_C 	C 	0.07959	0.6267	0.5984	-0.309
Mof_H 	H 	0.0658	0.6384	0.5202	0.132
Mof_C 	C 	0.11984	0.59192	0.8218	0.227
Mof_H 	H 	0.1328	0.5795	0.8992	-0.179
Mof_C 	C 	0.0884	0.61997	0.8082	-0.321
Mof_H 	H 	0.0807	0.6271	0.8777	0.109
Mof_Na	Na	0.74817	0.9222	0.98761	2.682
Mof_O 	O 	0.9774	0.7417	0.8978	-0.255
Mof_Zn	Zn	0.46396	0.23842	0.70641	1.198
Mof_O 	O 	0.23952	0.04135	0.66902	-0.888
Mof_O 	O 	0.27674	0.04223	0.86859	-0.992
Mof_O 	O 	0.67596	0.04184	0.64657	-0.487
Mof_O 	O 	0.26558	0.45856	0.64115	-0.967
Mof_O 	O 	0.6931	0.43139	0.83912	-0.785
Mof_O 	O 	0.26361	0.43166	0.81197	-0.877
Mof_O 	O 	0.68782	0.04113	0.84682	-0.957
Mof_O 	O 	0.64907	0.45835	0.67022	-0.469
Mof_N 	N 	0.4604	0.29698	0.6716	-0.27
Mof_N 	N 	0.39796	0.23834	0.6708	-0.275
Mof_N 	N 	0.52178	0.23753	0.6739	-0.275
Mof_N 	N 	0.46146	0.17933	0.6911	-0.276
Mof_C 	C 	0.27034	0.05412	0.7595	0.635
Mof_C 	C 	0.30002	0.0837	0.7378	-0.501
Mof_C 	C 	0.66718	0.05336	0.7386	0.511
Mof_C 	C 	0.27512	0.43115	0.7181	0.777
Mof_C 	C 	0.65939	0.43055	0.7456	0.542
Mof_C 	C 	0.63205	0.08232	0.7223	-0.386
Mof_C 	C 	0.30116	0.39817	0.6989	-0.475
Mof_C 	C 	0.49559	0.32007	0.6854	0.108
Mof_C 	C 	0.62941	0.39681	0.7243	-0.3
Mof_C 	C 	0.38704	0.16873	0.6872	-0.196
Mof_C 	C 	0.42778	0.32058	0.6765	0.116
Mof_C 	C 	0.53443	0.16767	0.6849	-0.182
Mof_C 	C 	0.3725	0.20687	0.6662	0.111
Mof_C 	C 	0.54495	0.20564	0.6656	0.104
Mof_C 	C 	0.38601	0.30852	0.6661	-0.189
Mof_C 	C 	0.56821	0.13761	0.6965	0.218
Mof_C 	C 	0.35611	0.1392	0.7022	0.249
Mof_C 	C 	0.29699	0.09455	0.6207	0.293
Mof_H 	H 	0.2757	0.0833	0.5512	-0.145
Mof_C 	C 	0.42889	0.15624	0.7008	0.107
Mof_C 	C 	0.49564	0.15569	0.6988	0.104
Mof_C 	C 	0.59204	0.39631	0.6232	0.173
Mof_H 	H 	0.5865	0.4163	0.5637	-0.03
Mof_C 	C 	0.53549	0.30737	0.6804	-0.165
Mof_C 	C 	0.56937	0.33712	0.6929	0.184
Mof_C 	C 	0.31281	0.36861	0.7844	0.317
Mof_H 	H 	0.3028	0.3686	0.8525	-0.166
Mof_C 	C 	0.37202	0.26996	0.6571	0.111
Mof_C 	C 	0.44333	0.11679	0.7167	-0.092
Mof_H 	H 	0.427	0.0952	0.7258	0.032
Mof_C 	C 	0.31516	0.39751	0.5976	0.314
Mof_H 	H 	0.3065	0.4173	0.5371	-0.16
Mof_C 	C 	0.32511	0.12209	0.6038	-0.35
Mof_H 	H 	0.3228	0.1293	0.5221	0.126
Mof_C 	C 	0.5459	0.26879	0.6662	0.104
Mof_C 	C 	0.58406	0.21752	0.6433	-0.103
Mof_H 	H 	0.6052	0.2011	0.6304	0.043
Mof_C 	C 	0.35473	0.33875	0.6725	0.245
Mof_C 	C 	0.33918	0.33897	0.7709	-0.347
Mof_H 	H 	0.3467	0.3186	0.8295	0.131
Mof_C 	C 	0.44331	0.35996	0.6964	-0.083
Mof_H 	H 	0.4272	0.3819	0.7034	0.053
Mof_C 	C 	0.48442	0.11634	0.7163	-0.091
Mof_H 	H 	0.5025	0.0944	0.7257	0.035
Mof_C 	C 	0.58445	0.25624	0.6444	-0.103
Mof_H 	H 	0.6061	0.2723	0.633	0.049
Mof_C 	C 	0.638	0.36643	0.8077	0.201
Mof_H 	H 	0.6643	0.366	0.8761	-0.115
Mof_C 	C 	0.48486	0.35938	0.703	-0.086
Mof_H 	H 	0.5037	0.3809	0.7167	0.059
Mof_C 	C 	0.32813	0.25779	0.6381	-0.093
Mof_H 	H 	0.3037	0.274	0.624	0.047
Mof_C 	C 	0.34174	0.368	0.5849	-0.348
Mof_H 	H 	0.3512	0.3678	0.5156	0.132
Mof_C 	C 	0.56237	0.36673	0.6077	-0.242
Mof_H 	H 	0.5367	0.3668	0.5373	0.109
Mof_C 	C 	0.61113	0.09876	0.6106	0.217
Mof_H 	H 	0.618	0.0911	0.5403	-0.06
Mof_C 	C 	0.32999	0.10153	0.8367	0.292
Mof_H 	H 	0.3317	0.095	0.9183	-0.197
Mof_C 	C 	0.60841	0.33672	0.7915	-0.261
Mof_H 	H 	0.6148	0.3159	0.8483	0.104
Mof_C 	C 	0.35778	0.12898	0.8188	-0.37
Mof_H 	H 	0.3783	0.1409	0.8885	0.128
Mof_C 	C 	0.3285	0.21903	0.6444	-0.093
Mof_H 	H 	0.3044	0.2028	0.6361	0.045
Mof_O 	O 	0.49627	0.2421	0.897	-0.293
Mof_C 	C 	0.57959	0.1267	0.5984	-0.304
Mof_H 	H 	0.5658	0.1384	0.5202	0.13
Mof_C 	C 	0.61984	0.09192	0.8218	0.218
Mof_H 	H 	0.6328	0.0795	0.8992	-0.172
Mof_C 	C 	0.5884	0.11997	0.8082	-0.315
Mof_H 	H 	0.5807	0.1271	0.8777	0.108
Mof_Na	Na	0.24817	0.4222	0.98761	2.62
Mof_O 	O 	0.4774	0.2417	0.8978	-0.255
Mof_Zn	Zn	0.03604	0.73842	0.29359	1.197
Mof_O 	O 	0.26048	0.54135	0.33098	-0.925
Mof_O 	O 	0.22326	0.54223	0.13141	-1.057
Mof_O 	O 	0.82404	0.54184	0.35343	-0.486
Mof_O 	O 	0.23442	0.95856	0.35885	-0.893
Mof_O 	O 	0.8069	0.93139	0.16088	-0.799
Mof_O 	O 	0.23639	0.93166	0.18803	-0.844
Mof_O 	O 	0.81218	0.54113	0.15318	-0.96
Mof_O 	O 	0.85093	0.95835	0.32978	-0.43
Mof_N 	N 	0.0396	0.79698	0.3284	-0.27
Mof_N 	N 	0.10204	0.73834	0.3292	-0.276
Mof_N 	N 	0.97822	0.73753	0.3261	-0.273
Mof_N 	N 	0.03854	0.67933	0.3089	-0.277
Mof_C 	C 	0.22966	0.55412	0.2405	0.666
Mof_C 	C 	0.19998	0.5837	0.2622	-0.534
Mof_C 	C 	0.83282	0.55336	0.2614	0.516
Mof_C 	C 	0.22488	0.93115	0.2819	0.751
Mof_C 	C 	0.84061	0.93055	0.2544	0.551
Mof_C 	C 	0.86795	0.58232	0.2777	-0.384
Mof_C 	C 	0.19884	0.89817	0.3011	-0.452
Mof_C 	C 	0.00441	0.82007	0.3146	0.104
Mof_C 	C 	0.87059	0.89681	0.2757	-0.303
Mof_C 	C 	0.11296	0.66873	0.3128	-0.2
Mof_C 	C 	0.07222	0.82058	0.3235	0.112
Mof_C 	C 	0.96557	0.66767	0.3151	-0.178
Mof_C 	C 	0.1275	0.70687	0.3338	0.111
Mof_C 	C 	0.95505	0.70564	0.3344	0.102
Mof_C 	C 	0.11399	0.80852	0.3339	-0.186
Mof_C 	C 	0.93179	0.63761	0.3035	0.216
Mof_C 	C 	0.14389	0.6392	0.2978	0.259
Mof_C 	C 	0.20301	0.59455	0.3793	0.314
Mof_H 	H 	0.2243	0.5833	0.4488	-0.158
Mof_C 	C 	0.07111	0.65624	0.2992	0.105
Mof_C 	C 	0.00436	0.65569	0.3012	0.1
Mof_C 	C 	0.90796	0.89631	0.3768	0.175
Mof_H 	H 	0.9135	0.9163	0.4363	-0.022
Mof_C 	C 	0.96451	0.80737	0.3196	-0.162
Mof_C 	C 	0.93063	0.83712	0.3071	0.183
Mof_C 	C 	0.18719	0.86861	0.2156	0.302
Mof_H 	H 	0.1972	0.8686	0.1475	-0.165
Mof_C 	C 	0.12798	0.76996	0.3429	0.108
Mof_C 	C 	0.05667	0.61679	0.2833	-0.089
Mof_H 	H 	0.073	0.5952	0.2742	0.029
Mof_C 	C 	0.18484	0.89751	0.4024	0.298
Mof_H 	H 	0.1935	0.9173	0.4629	-0.144
Mof_C 	C 	0.17489	0.62209	0.3962	-0.366
Mof_H 	H 	0.1772	0.6293	0.4779	0.131
Mof_C 	C 	0.9541	0.76879	0.3338	0.102
Mof_C 	C 	0.91594	0.71752	0.3567	-0.104
Mof_H 	H 	0.8948	0.7011	0.3696	0.042
Mof_C 	C 	0.14527	0.83875	0.3275	0.235
Mof_C 	C 	0.16082	0.83897	0.2291	-0.336
Mof_H 	H 	0.1533	0.8186	0.1705	0.121
Mof_C 	C 	0.05669	0.85996	0.3036	-0.079
Mof_H 	H 	0.0728	0.8819	0.2966	0.054
Mof_C 	C 	0.01558	0.61634	0.2837	-0.102
Mof_H 	H 	0.9975	0.5944	0.2743	0.043
Mof_C 	C 	0.91555	0.75624	0.3556	-0.104
Mof_H 	H 	0.8939	0.7723	0.367	0.047
Mof_C 	C 	0.862	0.86643	0.1923	0.206
Mof_H 	H 	0.8357	0.866	0.1239	-0.13
Mof_C 	C 	0.01514	0.85938	0.297	-0.096
Mof_H 	H 	0.9963	0.8809	0.2833	0.068
Mof_C 	C 	0.17187	0.75779	0.3619	-0.093
Mof_H 	H 	0.1963	0.774	0.376	0.045
Mof_C 	C 	0.15826	0.868	0.4151	-0.334
Mof_H 	H 	0.1488	0.8678	0.4844	0.129
Mof_C 	C 	0.93763	0.86673	0.3923	-0.241
Mof_H 	H 	0.9633	0.8668	0.4627	0.112
Mof_C 	C 	0.88887	0.59876	0.3894	0.217
Mof_H 	H 	0.882	0.5911	0.4597	-0.057
Mof_C 	C 	0.17001	0.60153	0.1633	0.312
Mof_H 	H 	0.1683	0.595	0.0817	-0.223
Mof_C 	C 	0.89159	0.83672	0.2085	-0.265
Mof_H 	H 	0.8852	0.8159	0.1517	0.098
Mof_C 	C 	0.14222	0.62898	0.1812	-0.389
Mof_H 	H 	0.1217	0.6409	0.1115	0.125
Mof_C 	C 	0.1715	0.71903	0.3556	-0.095
Mof_H 	H 	0.1956	0.7028	0.3639	0.043
Mof_O 	O 	0.00373	0.7421	0.103	-0.303
Mof_C 	C 	0.92041	0.6267	0.4016	-0.302
Mof_H 	H 	0.9342	0.6384	0.4798	0.13
Mof_C 	C 	0.88016	0.59192	0.1782	0.219
Mof_H 	H 	0.8672	0.5795	0.1008	-0.18
Mof_C 	C 	0.9116	0.61997	0.1918	-0.316
Mof_H 	H 	0.9193	0.6271	0.1223	0.101
Mof_Na	Na	0.25183	0.9222	0.01239	2.572
Mof_O 	O 	0.0226	0.7417	0.1022	-0.26
Mof_Zn	Zn	0.53604	0.23842	0.29359	1.198
Mof_O 	O 	0.76048	0.04135	0.33098	-0.893
Mof_O 	O 	0.72326	0.04223	0.13141	-1.031
Mof_O 	O 	0.32404	0.04184	0.35343	-0.484
Mof_O 	O 	0.73442	0.45856	0.35885	-0.964
Mof_O 	O 	0.3069	0.43139	0.16088	-0.813
Mof_O 	O 	0.73639	0.43166	0.18803	-0.863
Mof_O 	O 	0.31218	0.04113	0.15318	-0.938
Mof_O 	O 	0.35093	0.45835	0.32978	-0.469
Mof_N 	N 	0.5396	0.29698	0.3284	-0.27
Mof_N 	N 	0.60204	0.23834	0.3292	-0.276
Mof_N 	N 	0.47822	0.23753	0.3261	-0.275
Mof_N 	N 	0.53854	0.17933	0.3089	-0.277
Mof_C 	C 	0.72966	0.05412	0.2405	0.645
Mof_C 	C 	0.69998	0.0837	0.2622	-0.518
Mof_C 	C 	0.33282	0.05336	0.2614	0.504
Mof_C 	C 	0.72488	0.43115	0.2819	0.767
Mof_C 	C 	0.34061	0.43055	0.2544	0.553
Mof_C 	C 	0.36795	0.08232	0.2777	-0.378
Mof_C 	C 	0.69884	0.39817	0.3011	-0.47
Mof_C 	C 	0.50441	0.32007	0.3146	0.107
Mof_C 	C 	0.37059	0.39681	0.2757	-0.311
Mof_C 	C 	0.61296	0.16873	0.3128	-0.199
Mof_C 	C 	0.57222	0.32058	0.3235	0.114
Mof_C 	C 	0.46557	0.16767	0.3151	-0.182
Mof_C 	C 	0.6275	0.20687	0.3338	0.11
Mof_C 	C 	0.45505	0.20564	0.3344	0.102
Mof_C 	C 	0.61399	0.30852	0.3339	-0.189
Mof_C 	C 	0.43179	0.13761	0.3035	0.214
Mof_C 	C 	0.64389	0.1392	0.2978	0.253
Mof_C 	C 	0.70301	0.09455	0.3793	0.301
Mof_H 	H 	0.7243	0.0833	0.4488	-0.149
Mof_C 	C 	0.57111	0.15624	0.2992	0.106
Mof_C 	C 	0.50436	0.15569	0.3012	0.102
Mof_C 	C 	0.40796	0.39631	0.3768	0.178
Mof_H 	H 	0.4135	0.4163	0.4363	-0.031
Mof_C 	C 	0.46451	0.30737	0.3196	-0.167
Mof_C 	C 	0.43063	0.33712	0.3071	0.186
Mof_C 	C 	0.68719	0.36861	0.2156	0.31
Mof_H 	H 	0.6972	0.3686	0.1475	-0.167
Mof_C 	C 	0.62798	0.26996	0.3429	0.109
Mof_C 	C 	0.55667	0.11679	0.2833	-0.094
Mof_H 	H 	0.573	0.0952	0.2742	0.029
Mof_C 	C 	0.68484	0.39751	0.4024	0.309
Mof_H 	H 	0.6935	0.4173	0.4629	-0.159
Mof_C 	C 	0.67489	0.12209	0.3962	-0.357
Mof_H 	H 	0.6772	0.1293	0.4779	0.129
Mof_C 	C 	0.4541	0.26879	0.3338	0.103
Mof_C 	C 	0.41594	0.21752	0.3567	-0.104
Mof_H 	H 	0.3948	0.2011	0.3696	0.042
Mof_C 	C 	0.64527	0.33875	0.3275	0.241
Mof_C 	C 	0.66082	0.33897	0.2291	-0.344
Mof_H 	H 	0.6533	0.3186	0.1705	0.124
Mof_C 	C 	0.55669	0.35996	0.3036	-0.084
Mof_H 	H 	0.5728	0.3819	0.2966	0.05
Mof_C 	C 	0.51558	0.11634	0.2837	-0.093
Mof_H 	H 	0.4975	0.0944	0.2743	0.033
Mof_C 	C 	0.41555	0.25624	0.3556	-0.104
Mof_H 	H 	0.3939	0.2723	0.367	0.048
Mof_C 	C 	0.362	0.36643	0.1923	0.207
Mof_H 	H 	0.3357	0.366	0.1239	-0.129
Mof_C 	C 	0.51514	0.35938	0.297	-0.088
Mof_H 	H 	0.4963	0.3809	0.2833	0.056
Mof_C 	C 	0.67187	0.25779	0.3619	-0.093
Mof_H 	H 	0.6963	0.274	0.376	0.046
Mof_C 	C 	0.65826	0.368	0.4151	-0.344
Mof_H 	H 	0.6488	0.3678	0.4844	0.132
Mof_C 	C 	0.43763	0.36673	0.3923	-0.247
Mof_H 	H 	0.4633	0.3668	0.4627	0.111
Mof_C 	C 	0.38887	0.09876	0.3894	0.211
Mof_H 	H 	0.382	0.0911	0.4597	-0.057
Mof_C 	C 	0.67001	0.10153	0.1633	0.3
Mof_H 	H 	0.6683	0.095	0.0817	-0.217
Mof_C 	C 	0.39159	0.33672	0.2085	-0.269
Mof_H 	H 	0.3852	0.3159	0.1517	0.099
Mof_C 	C 	0.64222	0.12898	0.1812	-0.381
Mof_H 	H 	0.6217	0.1409	0.1115	0.122
Mof_C 	C 	0.6715	0.21903	0.3556	-0.094
Mof_H 	H 	0.6956	0.2028	0.3639	0.043
Mof_O 	O 	0.50373	0.2421	0.103	-0.3
Mof_C 	C 	0.42041	0.1267	0.4016	-0.3
Mof_H 	H 	0.4342	0.1384	0.4798	0.128
Mof_C 	C 	0.38016	0.09192	0.1782	0.211
Mof_H 	H 	0.3672	0.0795	0.1008	-0.173
Mof_C 	C 	0.4116	0.11997	0.1918	-0.312
Mof_H 	H 	0.4193	0.1271	0.1223	0.099
Mof_Na	Na	0.75183	0.4222	0.01239	2.509
Mof_O 	O 	0.5226	0.2417	0.1022	-0.264
Mof_Zn	Zn	0.03604	0.26158	0.29359	1.197
Mof_O 	O 	0.26048	0.45865	0.33098	-0.925
Mof_O 	O 	0.22326	0.45777	0.13141	-1.057
Mof_O 	O 	0.82404	0.45816	0.35343	-0.486
Mof_O 	O 	0.23442	0.04144	0.35885	-0.932
Mof_O 	O 	0.8069	0.06861	0.16088	-0.809
Mof_O 	O 	0.23639	0.06834	0.18803	-0.855
Mof_O 	O 	0.81218	0.45887	0.15318	-0.96
Mof_O 	O 	0.85093	0.04165	0.32978	-0.471
Mof_N 	N 	0.0396	0.20302	0.3284	-0.27
Mof_N 	N 	0.10204	0.26166	0.3292	-0.276
Mof_N 	N 	0.97822	0.26247	0.3261	-0.273
Mof_N 	N 	0.03854	0.32067	0.3089	-0.277
Mof_C 	C 	0.22966	0.44588	0.2405	0.666
Mof_C 	C 	0.19998	0.4163	0.2622	-0.534
Mof_C 	C 	0.83282	0.44664	0.2614	0.516
Mof_C 	C 	0.22488	0.06885	0.2819	0.754
Mof_C 	C 	0.84061	0.06945	0.2544	0.555
Mof_C 	C 	0.86795	0.41768	0.2777	-0.384
Mof_C 	C 	0.19884	0.10183	0.3011	-0.461
Mof_C 	C 	0.00441	0.17993	0.3146	0.104
Mof_C 	C 	0.87059	0.10319	0.2757	-0.314
Mof_C 	C 	0.11296	0.33127	0.3128	-0.2
Mof_C 	C 	0.07222	0.17942	0.3235	0.112
Mof_C 	C 	0.96557	0.33233	0.3151	-0.178
Mof_C 	C 	0.1275	0.29313	0.3338	0.111
Mof_C 	C 	0.95505	0.29436	0.3344	0.102
Mof_C 	C 	0.11399	0.19148	0.3339	-0.187
Mof_C 	C 	0.93179	0.36239	0.3035	0.216
Mof_C 	C 	0.14389	0.3608	0.2978	0.259
Mof_C 	C 	0.20301	0.40545	0.3793	0.314
Mof_H 	H 	0.2243	0.4167	0.4488	-0.158
Mof_C 	C 	0.07111	0.34376	0.2992	0.105
Mof_C 	C 	0.00436	0.34431	0.3012	0.1
Mof_C 	C 	0.90796	0.10369	0.3768	0.18
Mof_H 	H 	0.9135	0.0837	0.4363	-0.036
Mof_C 	C 	0.96451	0.19263	0.3196	-0.163
Mof_C 	C 	0.93063	0.16288	0.3071	0.186
Mof_C 	C 	0.18719	0.13139	0.2156	0.304
Mof_H 	H 	0.1972	0.1314	0.1475	-0.166
Mof_C 	C 	0.12798	0.23004	0.3429	0.108
Mof_C 	C 	0.05667	0.38321	0.2833	-0.089
Mof_H 	H 	0.073	0.4048	0.2742	0.029
Mof_C 	C 	0.18484	0.10249	0.4024	0.3
Mof_H 	H 	0.1935	0.0827	0.4629	-0.151
Mof_C 	C 	0.17489	0.37791	0.3962	-0.366
Mof_H 	H 	0.1772	0.3707	0.4779	0.131
Mof_C 	C 	0.9541	0.23121	0.3338	0.103
Mof_C 	C 	0.91594	0.28248	0.3567	-0.103
Mof_H 	H 	0.8948	0.2989	0.3696	0.042
Mof_C 	C 	0.14527	0.16125	0.3275	0.237
Mof_C 	C 	0.16082	0.16103	0.2291	-0.34
Mof_H 	H 	0.1533	0.1814	0.1705	0.122
Mof_C 	C 	0.05669	0.14004	0.3036	-0.08
Mof_H 	H 	0.0728	0.1181	0.2966	0.046
Mof_C 	C 	0.01558	0.38366	0.2837	-0.102
Mof_H 	H 	0.9975	0.4056	0.2743	0.043
Mof_C 	C 	0.91555	0.24376	0.3556	-0.104
Mof_H 	H 	0.8939	0.2277	0.367	0.048
Mof_C 	C 	0.862	0.13357	0.1923	0.209
Mof_H 	H 	0.8357	0.134	0.1239	-0.131
Mof_C 	C 	0.01514	0.14062	0.297	-0.097
Mof_H 	H 	0.9963	0.1191	0.2833	0.06
Mof_C 	C 	0.17187	0.24221	0.3619	-0.093
Mof_H 	H 	0.1963	0.226	0.376	0.046
Mof_C 	C 	0.15826	0.132	0.4151	-0.338
Mof_H 	H 	0.1488	0.1322	0.4844	0.13
Mof_C 	C 	0.93763	0.13327	0.3923	-0.249
Mof_H 	H 	0.9633	0.1332	0.4627	0.111
Mof_C 	C 	0.88887	0.40124	0.3894	0.217
Mof_H 	H 	0.882	0.4089	0.4597	-0.057
Mof_C 	C 	0.17001	0.39847	0.1633	0.312
Mof_H 	H 	0.1683	0.405	0.0817	-0.223
Mof_C 	C 	0.89159	0.16328	0.2085	-0.27
Mof_H 	H 	0.8852	0.1841	0.1517	0.1
Mof_C 	C 	0.14222	0.37102	0.1812	-0.389
Mof_H 	H 	0.1217	0.3591	0.1115	0.125
Mof_C 	C 	0.1715	0.28097	0.3556	-0.095
Mof_H 	H 	0.1956	0.2972	0.3639	0.044
Mof_O 	O 	0.00373	0.2579	0.103	-0.303
Mof_C 	C 	0.92041	0.3733	0.4016	-0.302
Mof_H 	H 	0.9342	0.3616	0.4798	0.13
Mof_C 	C 	0.88016	0.40808	0.1782	0.219
Mof_H 	H 	0.8672	0.4205	0.1008	-0.18
Mof_C 	C 	0.9116	0.38003	0.1918	-0.316
Mof_H 	H 	0.9193	0.3729	0.1223	0.101
Mof_Na	Na	0.25183	0.0778	0.01239	2.53
Mof_O 	O 	0.0226	0.2583	0.1022	-0.26
Mof_Zn	Zn	0.53604	0.76158	0.29359	1.198
Mof_O 	O 	0.76048	0.95865	0.33098	-0.858
Mof_O 	O 	0.72326	0.95777	0.13141	-1.001
Mof_O 	O 	0.32404	0.95816	0.35343	-0.447
Mof_O 	O 	0.73442	0.54144	0.35885	-0.964
Mof_O 	O 	0.3069	0.56861	0.16088	-0.813
Mof_O 	O 	0.73639	0.56834	0.18803	-0.863
Mof_O 	O 	0.31218	0.95887	0.15318	-0.907
Mof_O 	O 	0.35093	0.54165	0.32978	-0.469
Mof_N 	N 	0.5396	0.70302	0.3284	-0.27
Mof_N 	N 	0.60204	0.76166	0.3292	-0.276
Mof_N 	N 	0.47822	0.76247	0.3261	-0.275
Mof_N 	N 	0.53854	0.82067	0.3089	-0.277
Mof_C 	C 	0.72966	0.94588	0.2405	0.643
Mof_C 	C 	0.69998	0.9163	0.2622	-0.506
Mof_C 	C 	0.33282	0.94664	0.2614	0.501
Mof_C 	C 	0.72488	0.56885	0.2819	0.767
Mof_C 	C 	0.34061	0.56945	0.2544	0.552
Mof_C 	C 	0.36795	0.91768	0.2777	-0.363
Mof_C 	C 	0.69884	0.60183	0.3011	-0.47
Mof_C 	C 	0.50441	0.67993	0.3146	0.107
Mof_C 	C 	0.37059	0.60319	0.2757	-0.311
Mof_C 	C 	0.61296	0.83127	0.3128	-0.198
Mof_C 	C 	0.57222	0.67942	0.3235	0.114
Mof_C 	C 	0.46557	0.83233	0.3151	-0.18
Mof_C 	C 	0.6275	0.79313	0.3338	0.109
Mof_C 	C 	0.45505	0.79436	0.3344	0.101
Mof_C 	C 	0.61399	0.69148	0.3339	-0.189
Mof_C 	C 	0.43179	0.86239	0.3035	0.21
Mof_C 	C 	0.64389	0.8608	0.2978	0.251
Mof_C 	C 	0.70301	0.90545	0.3793	0.3
Mof_H 	H 	0.7243	0.9167	0.4488	-0.144
Mof_C 	C 	0.57111	0.84376	0.2992	0.106
Mof_C 	C 	0.50436	0.84431	0.3012	0.103
Mof_C 	C 	0.40796	0.60369	0.3768	0.178
Mof_H 	H 	0.4135	0.5837	0.4363	-0.032
Mof_C 	C 	0.46451	0.69263	0.3196	-0.167
Mof_C 	C 	0.43063	0.66288	0.3071	0.186
Mof_C 	C 	0.68719	0.63139	0.2156	0.31
Mof_H 	H 	0.6972	0.6314	0.1475	-0.167
Mof_C 	C 	0.62798	0.73004	0.3429	0.109
Mof_C 	C 	0.55667	0.88321	0.2833	-0.092
Mof_H 	H 	0.573	0.9048	0.2742	0.04
Mof_C 	C 	0.68484	0.60249	0.4024	0.309
Mof_H 	H 	0.6935	0.5827	0.4629	-0.159
Mof_C 	C 	0.67489	0.87791	0.3962	-0.352
Mof_H 	H 	0.6772	0.8707	0.4779	0.127
Mof_C 	C 	0.4541	0.73121	0.3338	0.103
Mof_C 	C 	0.41594	0.78248	0.3567	-0.103
Mof_H 	H 	0.3948	0.7989	0.3696	0.041
Mof_C 	C 	0.64527	0.66125	0.3275	0.241
Mof_C 	C 	0.66082	0.66103	0.2291	-0.344
Mof_H 	H 	0.6533	0.6814	0.1705	0.124
Mof_C 	C 	0.55669	0.64004	0.3036	-0.084
Mof_H 	H 	0.5728	0.6181	0.2966	0.05
Mof_C 	C 	0.51558	0.88366	0.2837	-0.09
Mof_H 	H 	0.4975	0.9056	0.2743	0.045
Mof_C 	C 	0.41555	0.74376	0.3556	-0.105
Mof_H 	H 	0.3939	0.7277	0.367	0.048
Mof_C 	C 	0.362	0.63357	0.1923	0.207
Mof_H 	H 	0.3357	0.634	0.1239	-0.129
Mof_C 	C 	0.51514	0.64062	0.297	-0.088
Mof_H 	H 	0.4963	0.6191	0.2833	0.056
Mof_C 	C 	0.67187	0.74221	0.3619	-0.094
Mof_H 	H 	0.6963	0.726	0.376	0.046
Mof_C 	C 	0.65826	0.632	0.4151	-0.344
Mof_H 	H 	0.6488	0.6322	0.4844	0.132
Mof_C 	C 	0.43763	0.63327	0.3923	-0.247
Mof_H 	H 	0.4633	0.6332	0.4627	0.111
Mof_C 	C 	0.38887	0.90124	0.3894	0.206
Mof_H 	H 	0.382	0.9089	0.4597	-0.048
Mof_C 	C 	0.67001	0.89847	0.1633	0.299
Mof_H 	H 	0.6683	0.905	0.0817	-0.214
Mof_C 	C 	0.39159	0.66328	0.2085	-0.269
Mof_H 	H 	0.3852	0.6841	0.1517	0.099
Mof_C 	C 	0.64222	0.87102	0.1812	-0.376
Mof_H 	H 	0.6217	0.8591	0.1115	0.122
Mof_C 	C 	0.6715	0.78097	0.3556	-0.094
Mof_H 	H 	0.6956	0.7972	0.3639	0.042
Mof_O 	O 	0.50373	0.7579	0.103	-0.3
Mof_C 	C 	0.42041	0.8733	0.4016	-0.29
Mof_H 	H 	0.4342	0.8616	0.4798	0.127
Mof_C 	C 	0.38016	0.90808	0.1782	0.207
Mof_H 	H 	0.3672	0.9205	0.1008	-0.163
Mof_C 	C 	0.4116	0.88003	0.1918	-0.303
Mof_H 	H 	0.4193	0.8729	0.1223	0.099
Mof_Na	Na	0.75183	0.5778	0.01239	2.508
Mof_O 	O 	0.5226	0.7583	0.1022	-0.264
Mof_Zn	Zn	0.96396	0.26158	0.70641	1.199
Mof_O 	O 	0.73952	0.45865	0.66902	-0.92
Mof_O 	O 	0.77674	0.45777	0.86859	-1.018
Mof_O 	O 	0.17596	0.45816	0.64657	-0.489
Mof_O 	O 	0.76558	0.04144	0.64115	-0.935
Mof_O 	O 	0.1931	0.06861	0.83912	-0.782
Mof_O 	O 	0.76361	0.06834	0.81197	-0.869
Mof_O 	O 	0.18782	0.45887	0.84682	-0.98
Mof_O 	O 	0.14907	0.04165	0.67022	-0.471
Mof_N 	N 	0.9604	0.20302	0.6716	-0.27
Mof_N 	N 	0.89796	0.26166	0.6708	-0.275
Mof_N 	N 	0.02178	0.26247	0.6739	-0.277
Mof_N 	N 	0.96146	0.32067	0.6911	-0.277
Mof_C 	C 	0.77034	0.44588	0.7595	0.655
Mof_C 	C 	0.80002	0.4163	0.7378	-0.518
Mof_C 	C 	0.16718	0.44664	0.7386	0.523
Mof_C 	C 	0.77512	0.06885	0.7181	0.763
Mof_C 	C 	0.15939	0.06945	0.7456	0.545
Mof_C 	C 	0.13205	0.41768	0.7223	-0.392
Mof_C 	C 	0.80116	0.10183	0.6989	-0.466
Mof_C 	C 	0.99559	0.17993	0.6854	0.111
Mof_C 	C 	0.12941	0.10319	0.7243	-0.304
Mof_C 	C 	0.88704	0.33127	0.6872	-0.199
Mof_C 	C 	0.92778	0.17942	0.6765	0.117
Mof_C 	C 	0.03443	0.33233	0.6849	-0.188
Mof_C 	C 	0.8725	0.29313	0.6662	0.112
Mof_C 	C 	0.04495	0.29436	0.6656	0.105
Mof_C 	C 	0.88601	0.19148	0.6661	-0.188
Mof_C 	C 	0.06821	0.36239	0.6965	0.223
Mof_C 	C 	0.85611	0.3608	0.7022	0.256
Mof_C 	C 	0.79699	0.40545	0.6207	0.306
Mof_H 	H 	0.7757	0.4167	0.5512	-0.154
Mof_C 	C 	0.92889	0.34376	0.7008	0.11
Mof_C 	C 	0.99564	0.34431	0.6988	0.108
Mof_C 	C 	0.09204	0.10369	0.6232	0.175
Mof_H 	H 	0.0865	0.0837	0.5637	-0.035
Mof_C 	C 	0.03549	0.19263	0.6804	-0.17
Mof_C 	C 	0.06937	0.16288	0.6929	0.186
Mof_C 	C 	0.81281	0.13139	0.7844	0.312
Mof_H 	H 	0.8028	0.1314	0.8525	-0.165
Mof_C 	C 	0.87202	0.23004	0.6571	0.11
Mof_C 	C 	0.94333	0.38321	0.7167	-0.096
Mof_H 	H 	0.927	0.4048	0.7258	0.037
Mof_C 	C 	0.81516	0.10249	0.5976	0.305
Mof_H 	H 	0.8065	0.0827	0.5371	-0.153
Mof_C 	C 	0.82511	0.37791	0.6038	-0.359
Mof_H 	H 	0.8228	0.3707	0.5221	0.129
Mof_C 	C 	0.0459	0.23121	0.6662	0.105
Mof_C 	C 	0.08406	0.28248	0.6433	-0.103
Mof_H 	H 	0.1052	0.2989	0.6304	0.043
Mof_C 	C 	0.85473	0.16125	0.6725	0.241
Mof_C 	C 	0.83918	0.16103	0.7709	-0.343
Mof_H 	H 	0.8467	0.1814	0.8295	0.13
Mof_C 	C 	0.94331	0.14004	0.6964	-0.088
Mof_H 	H 	0.9272	0.1181	0.7034	0.053
Mof_C 	C 	0.98442	0.38366	0.7163	-0.081
Mof_H 	H 	0.0025	0.4056	0.7257	0.032
Mof_C 	C 	0.08445	0.24376	0.6444	-0.103
Mof_H 	H 	0.1061	0.2277	0.633	0.049
Mof_C 	C 	0.138	0.13357	0.8077	0.204
Mof_H 	H 	0.1643	0.134	0.8761	-0.117
Mof_C 	C 	0.98486	0.14062	0.703	-0.076
Mof_H 	H 	0.0037	0.1191	0.7167	0.049
Mof_C 	C 	0.82813	0.24221	0.6381	-0.092
Mof_H 	H 	0.8037	0.226	0.624	0.047
Mof_C 	C 	0.84174	0.132	0.5849	-0.342
Mof_H 	H 	0.8512	0.1322	0.5156	0.131
Mof_C 	C 	0.06237	0.13327	0.6077	-0.246
Mof_H 	H 	0.0367	0.1332	0.5373	0.108
Mof_C 	C 	0.11113	0.40124	0.6106	0.224
Mof_H 	H 	0.118	0.4089	0.5403	-0.06
Mof_C 	C 	0.82999	0.39847	0.8367	0.304
Mof_H 	H 	0.8317	0.405	0.9183	-0.203
Mof_C 	C 	0.10841	0.16328	0.7915	-0.264
Mof_H 	H 	0.1148	0.1841	0.8483	0.104
Mof_C 	C 	0.85778	0.37102	0.8188	-0.379
Mof_H 	H 	0.8783	0.3591	0.8885	0.132
Mof_C 	C 	0.8285	0.28097	0.6444	-0.093
Mof_H 	H 	0.8044	0.2972	0.6361	0.045
Mof_O 	O 	0.99627	0.2579	0.897	-0.286
Mof_C 	C 	0.07959	0.3733	0.5984	-0.309
Mof_H 	H 	0.0658	0.3616	0.5202	0.132
Mof_C 	C 	0.11984	0.40808	0.8218	0.227
Mof_H 	H 	0.1328	0.4205	0.8992	-0.179
Mof_C 	C 	0.0884	0.38003	0.8082	-0.321
Mof_H 	H 	0.0807	0.3729	0.8777	0.109
Mof_Na	Na	0.74817	0.0778	0.98761	2.641
Mof_O 	O 	0.9774	0.2583	0.8978	-0.255
Mof_Zn	Zn	0.46396	0.76158	0.70641	1.198
Mof_O 	O 	0.23952	0.95865	0.66902	-0.853
Mof_O 	O 	0.27674	0.95777	0.86859	-0.962
Mof_O 	O 	0.67596	0.95816	0.64657	-0.45
Mof_O 	O 	0.26558	0.54144	0.64115	-0.967
Mof_O 	O 	0.6931	0.56861	0.83912	-0.785
Mof_O 	O 	0.26361	0.56834	0.81197	-0.877
Mof_O 	O 	0.68782	0.95887	0.84682	-0.926
Mof_O 	O 	0.64907	0.54165	0.67022	-0.469
Mof_N 	N 	0.4604	0.70302	0.6716	-0.27
Mof_N 	N 	0.39796	0.76166	0.6708	-0.275
Mof_N 	N 	0.52178	0.76247	0.6739	-0.274
Mof_N 	N 	0.46146	0.82067	0.6911	-0.276
Mof_C 	C 	0.27034	0.94588	0.7595	0.632
Mof_C 	C 	0.30002	0.9163	0.7378	-0.489
Mof_C 	C 	0.66718	0.94664	0.7386	0.507
Mof_C 	C 	0.27512	0.56885	0.7181	0.777
Mof_C 	C 	0.65939	0.56945	0.7456	0.542
Mof_C 	C 	0.63205	0.91768	0.7223	-0.37
Mof_C 	C 	0.30116	0.60183	0.6989	-0.475
Mof_C 	C 	0.49559	0.67993	0.6854	0.108
Mof_C 	C 	0.62941	0.60319	0.7243	-0.3
Mof_C 	C 	0.38704	0.83127	0.6872	-0.195
Mof_C 	C 	0.42778	0.67942	0.6765	0.116
Mof_C 	C 	0.53443	0.83233	0.6849	-0.18
Mof_C 	C 	0.3725	0.79313	0.6662	0.11
Mof_C 	C 	0.54495	0.79436	0.6656	0.103
Mof_C 	C 	0.38601	0.69148	0.6661	-0.189
Mof_C 	C 	0.56821	0.86239	0.6965	0.214
Mof_C 	C 	0.35611	0.8608	0.7022	0.247
Mof_C 	C 	0.29699	0.90545	0.6207	0.291
Mof_H 	H 	0.2757	0.9167	0.5512	-0.14
Mof_C 	C 	0.42889	0.84376	0.7008	0.108
Mof_C 	C 	0.49564	0.84431	0.6988	0.105
Mof_C 	C 	0.59204	0.60369	0.6232	0.173
Mof_H 	H 	0.5865	0.5837	0.5637	-0.03
Mof_C 	C 	0.53549	0.69263	0.6804	-0.165
Mof_C 	C 	0.56937	0.66288	0.6929	0.184
Mof_C 	C 	0.31281	0.63139	0.7844	0.317
Mof_H 	H 	0.3028	0.6314	0.8525	-0.167
Mof_C 	C 	0.37202	0.73004	0.6571	0.11
Mof_C 	C 	0.44333	0.88321	0.7167	-0.09
Mof_H 	H 	0.427	0.9048	0.7258	0.043
Mof_C 	C 	0.31516	0.60249	0.5976	0.314
Mof_H 	H 	0.3065	0.5827	0.5371	-0.16
Mof_C 	C 	0.32511	0.87791	0.6038	-0.344
Mof_H 	H 	0.3228	0.8707	0.5221	0.125
Mof_C 	C 	0.5459	0.73121	0.6662	0.104
Mof_C 	C 	0.58406	0.78248	0.6433	-0.102
Mof_H 	H 	0.6052	0.7989	0.6304	0.042
Mof_C 	C 	0.35473	0.66125	0.6725	0.244
Mof_C 	C 	0.33918	0.66103	0.7709	-0.347
Mof_H 	H 	0.3467	0.6814	0.8295	0.131
Mof_C 	C 	0.44331	0.64004	0.6964	-0.083
Mof_H 	H 	0.4272	0.6181	0.7034	0.053
Mof_C 	C 	0.48442	0.88366	0.7163	-0.088
Mof_H 	H 	0.5025	0.9056	0.7257	0.047
Mof_C 	C 	0.58445	0.74376	0.6444	-0.104
Mof_H 	H 	0.6061	0.7277	0.633	0.049
Mof_C 	C 	0.638	0.63357	0.8077	0.201
Mof_H 	H 	0.6643	0.634	0.8761	-0.115
Mof_C 	C 	0.48486	0.64062	0.703	-0.086
Mof_H 	H 	0.5037	0.6191	0.7167	0.059
Mof_C 	C 	0.32813	0.74221	0.6381	-0.093
Mof_H 	H 	0.3037	0.726	0.624	0.047
Mof_C 	C 	0.34174	0.632	0.5849	-0.348
Mof_H 	H 	0.3512	0.6322	0.5156	0.132
Mof_C 	C 	0.56237	0.63327	0.6077	-0.242
Mof_H 	H 	0.5367	0.6332	0.5373	0.109
Mof_C 	C 	0.61113	0.90124	0.6106	0.212
Mof_H 	H 	0.618	0.9089	0.5403	-0.051
Mof_C 	C 	0.32999	0.89847	0.8367	0.291
Mof_H 	H 	0.3317	0.905	0.9183	-0.194
Mof_C 	C 	0.60841	0.66328	0.7915	-0.261
Mof_H 	H 	0.6148	0.6841	0.8483	0.104
Mof_C 	C 	0.35778	0.87102	0.8188	-0.365
Mof_H 	H 	0.3783	0.8591	0.8885	0.128
Mof_C 	C 	0.3285	0.78097	0.6444	-0.093
Mof_H 	H 	0.3044	0.7972	0.6361	0.044
Mof_O 	O 	0.49627	0.7579	0.897	-0.293
Mof_C 	C 	0.57959	0.8733	0.5984	-0.295
Mof_H 	H 	0.5658	0.8616	0.5202	0.128
Mof_C 	C 	0.61984	0.90808	0.8218	0.214
Mof_H 	H 	0.6328	0.9205	0.8992	-0.162
Mof_C 	C 	0.5884	0.88003	0.8082	-0.307
Mof_H 	H 	0.5807	0.8729	0.8777	0.108
Mof_Na	Na	0.24817	0.5778	0.98761	2.618
Mof_O 	O 	0.4774	0.7583	0.8978	-0.255
Mof_Gd	Gd	0.20768	4.07751e-33	0.79316	1.272
Mof_Gd	Gd	0.26305	0	0.23244	1.268
Mof_O 	O 	0.2288	6.3711e-35	0.0122	-0.729
Mof_O 	O 	0.1847	0	0.1204	-0.321
Mof_O 	O 	0.15816	0	0.9119	-0.271
Mof_N 	N 	0.18855	6.3711e-35	0.0155	0.038
Mof_Na	Na	0.76576	-2.03875e-33	0.49117	2.921
Mof_Gd	Gd	0.70768	0.5	0.79316	1.371
Mof_Gd	Gd	0.76305	0.5	0.23244	1.369
Mof_O 	O 	0.7288	0.5	0.0122	-0.728
Mof_O 	O 	0.6847	0.5	0.1204	-0.31
Mof_O 	O 	0.65816	0.5	0.9119	-0.257
Mof_N 	N 	0.68855	0.5	0.0155	0.04
Mof_Na	Na	0.26576	0.5	0.49117	3.125
Mof_Gd	Gd	0.79232	0	0.20684	1.238
Mof_Gd	Gd	0.73695	0	0.76756	1.256
Mof_O 	O 	0.7712	0	0.9878	-0.726
Mof_O 	O 	0.8153	-4.07751e-33	0.8796	-0.316
Mof_O 	O 	0.84184	0	0.0881	-0.293
Mof_N 	N 	0.81145	0	0.9845	0.054
Mof_Na	Na	0.23424	2.03875e-33	0.50883	2.906
Mof_Gd	Gd	0.29232	0.5	0.20684	1.337
Mof_Gd	Gd	0.23695	0.5	0.76756	1.357
Mof_O 	O 	0.2712	0.5	0.9878	-0.725
Mof_O 	O 	0.3153	0.5	0.8796	-0.306
Mof_O 	O 	0.34184	0.5	0.0881	-0.28
Mof_N 	N 	0.31145	0.5	0.9845	0.056
Mof_Na	Na	0.73424	0.5	0.50883	3.11
Mof_C 	C 	8.15501e-33	0.73714	-0	0.503
Mof_C 	C 	0.5	0.23714	-0	0.512
Mof_C 	C 	2.03875e-33	0.26286	-0	0.503
Mof_C 	C 	0.5	0.76286	-0	0.512
Mof_Na	Na	0.82442	0.5	0.00719	2.045
Mof_Na	Na	0.32442	0	0.00719	1.857
Mof_Na	Na	0.17558	0.5	0.99281	2.137
Mof_Na	Na	0.67558	0	0.99281	1.951
_end
