data_functionalizedCrystal
_audit_creation_method	'EQeq! by Chris Wilmer'
_symmetry_space_group_name_H-M	'P1'
_symmetry_Int_Tables_number	1
_symmetry_cell_setting	triclinic
loop_
_symmetry_equiv_pos_as_xyz
  x,y,z
_cell_length_a	17.8524
_cell_length_b	12.6177
_cell_length_c	11.1881
_cell_angle_alpha	90
_cell_angle_beta	94.8199
_cell_angle_gamma	90
loop_
_atom_site_label
_atom_site_type_symbol
_atom_site_fract_x
_atom_site_fract_y
_atom_site_fract_z
_atom_site_charge
Mof_Co	Co	0.42134	0.55927	0.50055	1.127
Mof_N 	N 	0.87396	0.9347	0.1624	-0.21
Mof_N 	N 	0.91092	0.9831	0.256	-0.166
Mof_N 	N 	0.87723	0.9703	0.3563	-0.217
Mof_C 	C 	0.8118	0.8876	0.2053	0.041
Mof_C 	C 	0.8148	0.9109	0.3281	0.076
Mof_C 	C 	0.7598	0.8735	0.4007	-0.138
Mof_H 	H 	0.7622	0.8883	0.4833	0.063
Mof_C 	C 	0.7027	0.8148	0.3452	0.035
Mof_H 	H 	0.6651	0.7885	0.3911	0.02
Mof_C 	C 	0.6984	0.792	0.2203	-0.09
Mof_C 	C 	0.753	0.8274	0.1491	-0.052
Mof_H 	H 	0.7508	0.8118	0.0667	0.059
Mof_C 	C 	0.633	0.7266	0.1683	0.364
Mof_O 	O 	0.52029	0.5806	0.4319	-0.741
Mof_H 	H 	0.545	0.64	0.467	0.187
Mof_O 	O 	0.63584	0.6903	0.0629	-0.453
Mof_O 	O 	0.58098	0.7124	0.235	-0.44
Mof_Co	Co	0.92134	0.05927	0.50055	1.152
Mof_N 	N 	0.37396	0.4347	0.1624	-0.215
Mof_N 	N 	0.41092	0.4831	0.256	-0.189
Mof_N 	N 	0.37723	0.4703	0.3563	-0.225
Mof_C 	C 	0.3118	0.3876	0.2053	0.035
Mof_C 	C 	0.3148	0.4109	0.3281	0.073
Mof_C 	C 	0.2598	0.3735	0.4007	-0.144
Mof_H 	H 	0.2622	0.3883	0.4833	0.06
Mof_C 	C 	0.2027	0.3148	0.3452	0.035
Mof_H 	H 	0.1651	0.2885	0.3911	0.012
Mof_C 	C 	0.1984	0.292	0.2203	-0.099
Mof_C 	C 	0.253	0.3274	0.1491	-0.053
Mof_H 	H 	0.2508	0.3118	0.0667	0.057
Mof_C 	C 	0.133	0.2266	0.1683	0.364
Mof_O 	O 	0.02029	0.0806	0.4319	-0.792
Mof_H 	H 	0.045	0.14	0.467	0.179
Mof_O 	O 	0.13584	0.1903	0.0629	-0.466
Mof_O 	O 	0.08098	0.2124	0.235	-0.468
Mof_Co	Co	0.57866	0.55927	0.99945	1.131
Mof_N 	N 	0.12604	0.9347	0.3376	-0.22
Mof_N 	N 	0.08908	0.9831	0.244	-0.203
Mof_N 	N 	0.12277	0.9703	0.1437	-0.232
Mof_C 	C 	0.1882	0.8876	0.2947	0.034
Mof_C 	C 	0.1852	0.9109	0.1719	0.071
Mof_C 	C 	0.2402	0.8735	0.0993	-0.141
Mof_H 	H 	0.2378	0.8883	0.0167	0.062
Mof_C 	C 	0.2973	0.8148	0.1548	0.033
Mof_H 	H 	0.3349	0.7885	0.1089	0.02
Mof_C 	C 	0.3016	0.792	0.2797	-0.092
Mof_C 	C 	0.247	0.8274	0.3509	-0.057
Mof_H 	H 	0.2492	0.8118	0.4333	0.06
Mof_C 	C 	0.367	0.7266	0.3317	0.363
Mof_O 	O 	0.47971	0.5806	0.0681	-0.742
Mof_H 	H 	0.455	0.64	0.033	0.186
Mof_O 	O 	0.36416	0.6903	0.4371	-0.452
Mof_O 	O 	0.41902	0.7124	0.265	-0.44
Mof_Co	Co	0.07866	0.05927	0.99945	1.107
Mof_N 	N 	0.62604	0.4347	0.3376	-0.215
Mof_N 	N 	0.58908	0.4831	0.244	-0.189
Mof_N 	N 	0.62277	0.4703	0.1437	-0.225
Mof_C 	C 	0.6882	0.3876	0.2947	0.042
Mof_C 	C 	0.6852	0.4109	0.1719	0.072
Mof_C 	C 	0.7402	0.3735	0.0993	-0.133
Mof_H 	H 	0.7378	0.3883	0.0167	0.063
Mof_C 	C 	0.7973	0.3148	0.1548	0.03
Mof_H 	H 	0.8349	0.2885	0.1089	0.03
Mof_C 	C 	0.8016	0.292	0.2797	-0.079
Mof_C 	C 	0.747	0.3274	0.3509	-0.058
Mof_H 	H 	0.7492	0.3118	0.4333	0.065
Mof_C 	C 	0.867	0.2266	0.3317	0.358
Mof_O 	O 	0.97971	0.0806	0.0681	-0.674
Mof_H 	H 	0.955	0.14	0.033	0.194
Mof_O 	O 	0.86416	0.1903	0.4371	-0.432
Mof_O 	O 	0.91902	0.2124	0.265	-0.395
Mof_Co	Co	0.57866	0.44073	0.49945	1.129
Mof_N 	N 	0.12604	0.0653	0.8376	-0.22
Mof_N 	N 	0.08908	0.0169	0.744	-0.204
Mof_N 	N 	0.12277	0.0297	0.6437	-0.232
Mof_C 	C 	0.1882	0.1124	0.7947	0.034
Mof_C 	C 	0.1852	0.0891	0.6719	0.071
Mof_C 	C 	0.2402	0.1265	0.5993	-0.141
Mof_H 	H 	0.2378	0.1117	0.5167	0.063
Mof_C 	C 	0.2973	0.1852	0.6548	0.033
Mof_H 	H 	0.3349	0.2115	0.6089	0.021
Mof_C 	C 	0.3016	0.208	0.7797	-0.092
Mof_C 	C 	0.247	0.1726	0.8509	-0.057
Mof_H 	H 	0.2492	0.1882	0.9333	0.06
Mof_C 	C 	0.367	0.2734	0.8317	0.362
Mof_O 	O 	0.47971	0.4194	0.5681	-0.741
Mof_H 	H 	0.455	0.36	0.533	0.187
Mof_O 	O 	0.36416	0.3097	0.9371	-0.451
Mof_O 	O 	0.41902	0.2876	0.765	-0.439
Mof_Co	Co	0.07866	0.94073	0.49945	1.107
Mof_N 	N 	0.62604	0.5653	0.8376	-0.214
Mof_N 	N 	0.58908	0.5169	0.744	-0.189
Mof_N 	N 	0.62277	0.5297	0.6437	-0.224
Mof_C 	C 	0.6882	0.6124	0.7947	0.043
Mof_C 	C 	0.6852	0.5891	0.6719	0.072
Mof_C 	C 	0.7402	0.6265	0.5993	-0.132
Mof_H 	H 	0.7378	0.6117	0.5167	0.064
Mof_C 	C 	0.7973	0.6852	0.6548	0.03
Mof_H 	H 	0.8349	0.7115	0.6089	0.031
Mof_C 	C 	0.8016	0.708	0.7797	-0.078
Mof_C 	C 	0.747	0.6726	0.8509	-0.058
Mof_H 	H 	0.7492	0.6882	0.9333	0.067
Mof_C 	C 	0.867	0.7734	0.8317	0.357
Mof_O 	O 	0.97971	0.9194	0.5681	-0.672
Mof_H 	H 	0.955	0.86	0.533	0.194
Mof_O 	O 	0.86416	0.8097	0.9371	-0.428
Mof_O 	O 	0.91902	0.7876	0.765	-0.393
Mof_Co	Co	0.42134	0.44073	0.00055	1.127
Mof_N 	N 	0.87396	0.0653	0.6624	-0.208
Mof_N 	N 	0.91092	0.0169	0.756	-0.165
Mof_N 	N 	0.87723	0.0297	0.8563	-0.216
Mof_C 	C 	0.8118	0.1124	0.7053	0.042
Mof_C 	C 	0.8148	0.0891	0.8281	0.076
Mof_C 	C 	0.7598	0.1265	0.9007	-0.137
Mof_H 	H 	0.7622	0.1117	0.9833	0.063
Mof_C 	C 	0.7027	0.1852	0.8452	0.035
Mof_H 	H 	0.6651	0.2115	0.8911	0.021
Mof_C 	C 	0.6984	0.208	0.7203	-0.089
Mof_C 	C 	0.753	0.1726	0.6491	-0.053
Mof_H 	H 	0.7508	0.1882	0.5667	0.061
Mof_C 	C 	0.633	0.2734	0.6683	0.364
Mof_O 	O 	0.52029	0.4194	0.9319	-0.74
Mof_H 	H 	0.545	0.36	0.967	0.188
Mof_O 	O 	0.63584	0.3097	0.5629	-0.451
Mof_O 	O 	0.58098	0.2876	0.735	-0.439
Mof_Co	Co	0.92134	0.94073	0.00055	1.148
Mof_N 	N 	0.37396	0.5653	0.6624	-0.215
Mof_N 	N 	0.41092	0.5169	0.756	-0.189
Mof_N 	N 	0.37723	0.5297	0.8563	-0.225
Mof_C 	C 	0.3118	0.6124	0.7053	0.035
Mof_C 	C 	0.3148	0.5891	0.8281	0.074
Mof_C 	C 	0.2598	0.6265	0.9007	-0.144
Mof_H 	H 	0.2622	0.6117	0.9833	0.061
Mof_C 	C 	0.2027	0.6852	0.8452	0.036
Mof_H 	H 	0.1651	0.7115	0.8911	0.013
Mof_C 	C 	0.1984	0.708	0.7203	-0.099
Mof_C 	C 	0.253	0.6726	0.6491	-0.053
Mof_H 	H 	0.2508	0.6882	0.5667	0.057
Mof_C 	C 	0.133	0.7734	0.6683	0.364
Mof_O 	O 	0.02029	0.9194	0.9319	-0.79
Mof_H 	H 	0.045	0.86	0.967	0.18
Mof_O 	O 	0.13584	0.8097	0.5629	-0.468
Mof_O 	O 	0.08098	0.7876	0.735	-0.468
Mof_Co	Co	0.5	0.59577	0.25	1.154
Mof_Co	Co	2.82941e-18	0.09577	0.25	1.107
Mof_Co	Co	0.5	0.40423	0.75	1.154
Mof_Co	Co	1.91039e-33	0.90423	0.75	1.106
_end
