data_functionalizedCrystal
_audit_creation_method	'EQeq! by Chris Wilmer'
_symmetry_space_group_name_H-M	'P1'
_symmetry_Int_Tables_number	1
_symmetry_cell_setting	triclinic
loop_
_symmetry_equiv_pos_as_xyz
  x,y,z
_cell_length_a	7.4296
_cell_length_b	11.627
_cell_length_c	14.0761
_cell_angle_alpha	114.394
_cell_angle_beta	98.7723
_cell_angle_gamma	90
loop_
_atom_site_label
_atom_site_type_symbol
_atom_site_fract_x
_atom_site_fract_y
_atom_site_fract_z
_atom_site_charge
Mof_Sr	Sr	0.43847	0.15841	0.88946	1.253
Mof_Sr	Sr	0.06153	0.26895	0.11054	1.456
Mof_Sr	Sr	0.56153	0.84159	0.11054	1.475
Mof_Sr	Sr	0.93847	0.73105	0.88946	1.281
Mof_H 	H 	0.704	0.1101	0.0402	0.317
Mof_H 	H 	0.9243	0.2899	0.6304	-0.037
Mof_H 	H 	0.9553	0.2192	0.4548	0.137
Mof_H 	H 	0.317	0.1097	0.6096	0.12
Mof_H 	H 	0.651	0.9632	0.5658	-0.024
Mof_H 	H 	0.1031	0.8502	0.723	0.079
Mof_H 	H 	0.9367	0.9143	0.687	0.098
Mof_H 	H 	0.796	0.0699	0.9598	0.219
Mof_H 	H 	0.5757	0.6595	0.3696	-0.036
Mof_H 	H 	0.5447	0.7644	0.5452	0.133
Mof_H 	H 	0.183	0.5001	0.3904	0.111
Mof_H 	H 	0.849	0.3974	0.4342	-0.026
Mof_H 	H 	0.3969	0.1272	0.277	0.075
Mof_H 	H 	0.5633	0.2273	0.313	0.09
Mof_H 	H 	0.296	0.8899	0.9598	0.238
Mof_H 	H 	0.0757	0.7101	0.3696	-0.044
Mof_H 	H 	0.0447	0.7808	0.5452	0.136
Mof_H 	H 	0.683	0.8903	0.3904	0.112
Mof_H 	H 	0.349	0.0368	0.4342	-0.036
Mof_H 	H 	0.8969	0.1498	0.277	0.068
Mof_H 	H 	0.0633	0.0857	0.313	0.072
Mof_H 	H 	0.204	0.9301	0.0402	0.322
Mof_H 	H 	0.4243	0.3405	0.6304	-0.04
Mof_H 	H 	0.4553	0.2356	0.4548	0.134
Mof_H 	H 	0.817	0.4999	0.6096	0.113
Mof_H 	H 	0.151	0.6026	0.5658	-0.029
Mof_H 	H 	0.6031	0.8728	0.723	0.085
Mof_H 	H 	0.4367	0.7727	0.687	0.097
Mof_C 	C 	0.7605	0.18235	0.7307	0.398
Mof_C 	C 	0.7819	0.13479	0.61658	-0.227
Mof_C 	C 	0.8741	0.21003	0.58206	0.176
Mof_C 	C 	0.8926	0.16804	0.47688	-0.295
Mof_C 	C 	0.1829	0.95098	0.59536	0.294
Mof_C 	C 	0.2705	0.02867	0.56174	-0.303
Mof_C 	C 	0.7116	0.01518	0.54356	0.164
Mof_C 	C 	0.0546	0.93091	0.73242	-0.193
Mof_C 	C 	0.0304	0.00226	0.84592	0.404
Mof_C 	C 	0.7395	0.45165	0.2693	0.399
Mof_C 	C 	0.7181	0.51821	0.38342	-0.226
Mof_C 	C 	0.6259	0.62797	0.41794	0.173
Mof_C 	C 	0.6074	0.69116	0.52312	-0.29
Mof_C 	C 	0.3171	0.35562	0.40464	0.277
Mof_C 	C 	0.2295	0.46693	0.43826	-0.282
Mof_C 	C 	0.7884	0.47162	0.45644	0.168
Mof_C 	C 	0.4454	0.19849	0.26758	-0.192
Mof_C 	C 	0.4696	0.15634	0.15408	0.415
Mof_C 	C 	0.2395	0.81765	0.2693	0.404
Mof_C 	C 	0.2181	0.86521	0.38342	-0.242
Mof_C 	C 	0.1259	0.78997	0.41794	0.186
Mof_C 	C 	0.1074	0.83196	0.52312	-0.308
Mof_C 	C 	0.8171	0.04902	0.40464	0.283
Mof_C 	C 	0.7295	0.97133	0.43826	-0.278
Mof_C 	C 	0.2884	0.98482	0.45644	0.189
Mof_C 	C 	0.9454	0.06909	0.26758	-0.16
Mof_C 	C 	0.9696	0.99774	0.15408	0.416
Mof_C 	C 	0.2605	0.54835	0.7307	0.399
Mof_C 	C 	0.2819	0.48179	0.61658	-0.232
Mof_C 	C 	0.3741	0.37203	0.58206	0.175
Mof_C 	C 	0.3926	0.30884	0.47688	-0.296
Mof_C 	C 	0.6829	0.64438	0.59536	0.275
Mof_C 	C 	0.7705	0.53307	0.56174	-0.276
Mof_C 	C 	0.2116	0.52838	0.54356	0.169
Mof_C 	C 	0.5546	0.80151	0.73242	-0.208
Mof_C 	C 	0.5304	0.84366	0.84592	0.43
Mof_O 	O 	0.6524	0.12309	0.75682	-0.443
Mof_O 	O 	0.8593	0.28173	0.79354	-0.379
Mof_O 	O 	0.1749	3e-05	0.70198	-0.288
Mof_O 	O 	0.1071	0.1099	0.90282	-0.544
Mof_O 	O 	0.9246	0.9422	0.87452	-0.46
Mof_O 	O 	0.8476	0.36627	0.24318	-0.441
Mof_O 	O 	0.6407	0.48819	0.20646	-0.352
Mof_O 	O 	0.3251	0.29805	0.29802	-0.288
Mof_O 	O 	0.3929	0.20708	0.09718	-0.482
Mof_O 	O 	0.5754	0.06768	0.12548	-0.45
Mof_O 	O 	0.3476	0.87691	0.24318	-0.451
Mof_O 	O 	0.1407	0.71827	0.20646	-0.359
Mof_O 	O 	0.8251	0.99997	0.29802	-0.295
Mof_O 	O 	0.8929	0.8901	0.09718	-0.482
Mof_O 	O 	0.0754	0.0578	0.12548	-0.458
Mof_O 	O 	0.1524	0.63373	0.75682	-0.447
Mof_O 	O 	0.3593	0.51181	0.79354	-0.383
Mof_O 	O 	0.6749	0.70195	0.70198	-0.275
Mof_O 	O 	0.6071	0.79292	0.90282	-0.549
Mof_O 	O 	0.4246	0.93232	0.87452	-0.473
Mof_O 	O 	0.75	0.1346	-0	-0.701
Mof_O 	O 	0.25	0.8654	-0	-0.735
_end
