data_functionalizedCrystal
_audit_creation_method	'EQeq! by Chris Wilmer'
_symmetry_space_group_name_H-M	'P1'
_symmetry_Int_Tables_number	1
_symmetry_cell_setting	triclinic
loop_
_symmetry_equiv_pos_as_xyz
  x,y,z
_cell_length_a	8.2969
_cell_length_b	21.756
_cell_length_c	13.781
_cell_angle_alpha	90
_cell_angle_beta	103.69
_cell_angle_gamma	90
loop_
_atom_site_label
_atom_site_type_symbol
_atom_site_fract_x
_atom_site_fract_y
_atom_site_fract_z
_atom_site_charge
Mof_C 	C 	0.3648	0.1051	0.1371	0.093
Mof_H 	H 	0.4304	0.1348	0.1169	0
Mof_C 	C 	0.2424	0.0206	0.1512	-0.017
Mof_H 	H 	0.2069	0.98	0.1418	0.047
Mof_C 	C 	0.1973	0.0601	0.2147	0.008
Mof_H 	H 	0.127	0.0521	0.2567	0.03
Mof_C 	C 	0.2662	0.1703	0.2595	0.087
Mof_C 	C 	0.1188	0.1875	0.2801	-0.079
Mof_H 	H 	0.0238	0.1642	0.2559	0.057
Mof_C 	C 	0.4061	0.2057	0.293	-0.078
Mof_H 	H 	0.506	0.1939	0.2791	0.059
Mof_C 	C 	0.2684	0.0063	0.7635	0.076
Mof_H 	H 	0.3312	0.9747	0.7457	0.015
Mof_C 	C 	0.1807	0.0753	0.8476	0.013
Mof_H 	H 	0.1706	0.1008	0.9	0.028
Mof_C 	C 	0.0808	0.077	0.7539	-0.021
Mof_H 	H 	0.9919	0.1034	0.7308	0.044
Mof_C 	C 	0.0675	0.0156	0.5986	0.042
Mof_C 	C 	0.9825	0.0589	0.5331	-0.027
Mof_H 	H 	0.9705	0.0987	0.5552	0.046
Mof_C 	C 	0.0855	0.9568	0.566	-0.028
Mof_H 	H 	0.1431	0.9276	0.6102	0.042
Mof_C 	C 	0.1181	0.3665	0.4247	0.095
Mof_H 	H 	0.017	0.3626	0.3784	-0
Mof_C 	C 	0.3122	0.3995	0.542	0.004
Mof_H 	H 	0.3716	0.4237	0.594	0.033
Mof_C 	C 	0.3727	0.3487	0.5067	-0.002
Mof_H 	H 	0.4778	0.3317	0.5287	0.035
Mof_C 	C 	0.251	0.2745	0.3702	0.086
Mof_C 	C 	0.1108	0.2397	0.337	-0.077
Mof_H 	H 	0.0116	0.2509	0.3525	0.057
Mof_C 	C 	0.3987	0.2585	0.3472	-0.076
Mof_H 	H 	0.4922	0.2831	0.3681	0.058
Mof_N 	N 	0.3485	0.04857	0.1018	-0.144
Mof_N 	N 	0.2762	0.1149	0.2053	-0.14
Mof_N 	N 	0.2978	0.03078	0.8533	-0.14
Mof_N 	N 	0.1369	0.03217	0.7003	-0.126
Mof_N 	N 	0.1522	0.41078	0.4912	-0.147
Mof_N 	N 	0.2454	0.3277	0.4311	-0.138
Mof_C 	C 	0.1352	0.6051	0.3629	0.093
Mof_H 	H 	0.0696	0.6348	0.3831	-0.001
Mof_C 	C 	0.2576	0.5206	0.3488	0.003
Mof_H 	H 	0.2931	0.48	0.3582	0.035
Mof_C 	C 	0.3027	0.5601	0.2853	-0.002
Mof_H 	H 	0.373	0.5521	0.2433	0.036
Mof_C 	C 	0.2338	0.6703	0.2405	0.097
Mof_C 	C 	0.3812	0.6875	0.2199	-0.088
Mof_H 	H 	0.4762	0.6642	0.2441	0.063
Mof_C 	C 	0.0939	0.7057	0.207	-0.102
Mof_H 	H 	0.994	0.6939	0.2209	0.072
Mof_C 	C 	0.2316	0.5063	0.7365	0.092
Mof_H 	H 	0.1688	0.4747	0.7543	0.003
Mof_C 	C 	0.3193	0.5753	0.6524	0.005
Mof_H 	H 	0.3294	0.6008	0.6	0.029
Mof_C 	C 	0.4192	0.577	0.7461	-0.002
Mof_H 	H 	0.5081	0.6034	0.7692	0.034
Mof_C 	C 	0.4325	0.5156	0.9014	0.061
Mof_C 	C 	0.5175	0.5589	0.9669	-0.03
Mof_H 	H 	0.5295	0.5987	0.9448	0.049
Mof_C 	C 	0.4145	0.4568	0.934	-0.032
Mof_H 	H 	0.3569	0.4276	0.8898	0.045
Mof_C 	C 	0.3819	0.8665	0.0753	0.093
Mof_H 	H 	0.483	0.8626	0.1216	0.003
Mof_C 	C 	0.1878	0.8995	0.958	0.013
Mof_H 	H 	0.1284	0.9237	0.906	0.032
Mof_C 	C 	0.1273	0.8487	0.9933	0.006
Mof_H 	H 	0.0222	0.8317	0.9713	0.033
Mof_C 	C 	0.249	0.7745	0.1298	0.077
Mof_C 	C 	0.3892	0.7397	0.163	-0.069
Mof_H 	H 	0.4884	0.7509	0.1475	0.056
Mof_C 	C 	0.1013	0.7585	0.1528	-0.062
Mof_H 	H 	0.0078	0.7831	0.1319	0.049
Mof_N 	N 	0.1515	0.54857	0.3982	-0.145
Mof_N 	N 	0.2238	0.6149	0.2947	-0.14
Mof_N 	N 	0.2022	0.53078	0.6467	-0.144
Mof_N 	N 	0.3631	0.53217	0.7997	-0.133
Mof_N 	N 	0.3478	0.91078	0.0088	-0.15
Mof_N 	N 	0.2546	0.8277	0.0689	-0.141
Mof_C 	C 	0.6352	0.8949	0.8629	0.095
Mof_H 	H 	0.5696	0.8652	0.8831	0.004
Mof_C 	C 	0.7576	0.9794	0.8488	0.024
Mof_H 	H 	0.7931	0.02	0.8582	0.027
Mof_C 	C 	0.8027	0.9399	0.7853	-0.009
Mof_H 	H 	0.873	0.9479	0.7433	0.044
Mof_C 	C 	0.7338	0.8297	0.7405	0.09
Mof_C 	C 	0.8812	0.8125	0.7199	-0.078
Mof_H 	H 	0.9762	0.8358	0.7441	0.063
Mof_C 	C 	0.5939	0.7943	0.707	-0.078
Mof_H 	H 	0.494	0.8061	0.7209	0.06
Mof_C 	C 	0.7316	0.9937	0.2365	0.113
Mof_H 	H 	0.6688	0.0253	0.2543	-0.009
Mof_C 	C 	0.8193	0.9247	0.1524	-0.004
Mof_H 	H 	0.8294	0.8992	0.1	0.033
Mof_C 	C 	0.9192	0.923	0.2461	0.019
Mof_H 	H 	0.0081	0.8966	0.2692	0.021
Mof_C 	C 	0.9325	0.9844	0.4014	0.135
Mof_C 	C 	0.0175	0.9411	0.4669	-0.124
Mof_H 	H 	0.0295	0.9013	0.4448	0.076
Mof_C 	C 	0.9145	0.0432	0.434	-0.127
Mof_H 	H 	0.8569	0.0724	0.3898	0.076
Mof_C 	C 	0.8819	0.6335	0.5753	0.097
Mof_H 	H 	0.983	0.6374	0.6216	0.005
Mof_C 	C 	0.6878	0.6005	0.458	0.004
Mof_H 	H 	0.6284	0.5763	0.406	0.033
Mof_C 	C 	0.6273	0.6513	0.4933	-0.001
Mof_H 	H 	0.5222	0.6683	0.4713	0.034
Mof_C 	C 	0.749	0.7255	0.6298	0.087
Mof_C 	C 	0.8892	0.7603	0.663	-0.075
Mof_H 	H 	0.9884	0.7491	0.6475	0.061
Mof_C 	C 	0.6013	0.7415	0.6528	-0.075
Mof_H 	H 	0.5078	0.7169	0.6319	0.058
Mof_N 	N 	0.6515	0.95143	0.8982	-0.141
Mof_N 	N 	0.7238	0.8851	0.7947	-0.136
Mof_N 	N 	0.7022	0.96922	0.1467	-0.143
Mof_N 	N 	0.8631	0.96783	0.2997	-0.149
Mof_N 	N 	0.8478	0.58922	0.5088	-0.144
Mof_N 	N 	0.7546	0.6723	0.5689	-0.137
Mof_C 	C 	0.8648	0.3949	0.6371	0.094
Mof_H 	H 	0.9304	0.3652	0.6169	0.004
Mof_C 	C 	0.7424	0.4794	0.6512	0.006
Mof_H 	H 	0.7069	0.52	0.6418	0.036
Mof_C 	C 	0.6973	0.4399	0.7147	-0.001
Mof_H 	H 	0.627	0.4479	0.7567	0.038
Mof_C 	C 	0.7662	0.3297	0.7595	0.078
Mof_C 	C 	0.6188	0.3125	0.7801	-0.068
Mof_H 	H 	0.5238	0.3358	0.7559	0.057
Mof_C 	C 	0.9061	0.2943	0.793	-0.051
Mof_H 	H 	0.006	0.3061	0.7791	0.045
Mof_C 	C 	0.7684	0.4937	0.2635	0.095
Mof_H 	H 	0.8312	0.5253	0.2457	0.003
Mof_C 	C 	0.6807	0.4247	0.3476	0.004
Mof_H 	H 	0.6706	0.3992	0.4	0.031
Mof_C 	C 	0.5808	0.423	0.2539	0.001
Mof_H 	H 	0.4919	0.3966	0.2308	0.03
Mof_C 	C 	0.5675	0.4844	0.0986	0.114
Mof_C 	C 	0.4825	0.4411	0.0331	-0.121
Mof_H 	H 	0.4705	0.4013	0.0552	0.073
Mof_C 	C 	0.5855	0.5432	0.066	-0.122
Mof_H 	H 	0.6431	0.5724	0.1102	0.073
Mof_C 	C 	0.6181	0.1335	0.9247	0.099
Mof_H 	H 	0.517	0.1374	0.8784	0.002
Mof_C 	C 	0.8122	0.1005	0.042	-0.006
Mof_H 	H 	0.8716	0.0763	0.094	0.035
Mof_C 	C 	0.8727	0.1513	0.0067	-0.01
Mof_H 	H 	0.9778	0.1683	0.0287	0.036
Mof_C 	C 	0.751	0.2255	0.8702	0.097
Mof_C 	C 	0.6108	0.2603	0.837	-0.085
Mof_H 	H 	0.5116	0.2491	0.8525	0.063
Mof_C 	C 	0.8987	0.2415	0.8472	-0.091
Mof_H 	H 	0.9922	0.2169	0.8681	0.068
Mof_N 	N 	0.8485	0.45143	0.6018	-0.142
Mof_N 	N 	0.7762	0.3851	0.7053	-0.135
Mof_N 	N 	0.7978	0.46922	0.3533	-0.142
Mof_N 	N 	0.6369	0.46783	0.2003	-0.143
Mof_N 	N 	0.6522	0.08922	0.9912	-0.137
Mof_N 	N 	0.7454	0.1723	0.9311	-0.133
Mof_Cd	Cd	0.5	0	-0	0.355
Mof_Cd	Cd	2.35191e-17	0.5	0.5	0.368
_end
