data_functionalizedCrystal
_audit_creation_method	'EQeq! by Chris Wilmer'
_symmetry_space_group_name_H-M	'P1'
_symmetry_Int_Tables_number	1
_symmetry_cell_setting	triclinic
loop_
_symmetry_equiv_pos_as_xyz
  x,y,z
_cell_length_a	11.258
_cell_length_b	12.602
_cell_length_c	14.689
_cell_angle_alpha	90
_cell_angle_beta	90
_cell_angle_gamma	90
loop_
_atom_site_label
_atom_site_type_symbol
_atom_site_fract_x
_atom_site_fract_y
_atom_site_fract_z
_atom_site_charge
Mof_C 	C 	0.0325	0.0131	0.1675	0.46
Mof_C 	C 	0.3032	0.884	0.0764	0.497
Mof_C 	C 	0.3855	0.9506	0.1362	-0.26
Mof_C 	C 	0.4295	0.0546	0.0966	0.469
Mof_Nd	Nd	0.14917	0.11343	0.00741	2.152
Mof_O 	O 	0.1038	0.085	0.175	-0.502
Mof_O 	O 	0.9833	0.9912	0.0911	-0.66
Mof_O 	O 	0.2199	0.9303	0.0307	-0.536
Mof_O 	O 	0.3147	0.7845	0.0752	-0.567
Mof_O 	O 	0.3545	0.1162	0.0604	-0.544
Mof_O 	O 	0.5343	0.0711	0.0952	-0.374
Mof_C 	C 	0.4675	0.4869	0.6675	0.48
Mof_C 	C 	0.1968	0.616	0.5764	0.501
Mof_C 	C 	0.1145	0.5494	0.6362	-0.272
Mof_C 	C 	0.0705	0.4454	0.5966	0.507
Mof_Nd	Nd	0.35083	0.38657	0.50741	2.196
Mof_O 	O 	0.3962	0.415	0.675	-0.509
Mof_O 	O 	0.5167	0.5088	0.5911	-0.676
Mof_O 	O 	0.2801	0.5697	0.5307	-0.548
Mof_O 	O 	0.1853	0.7155	0.5752	-0.569
Mof_O 	O 	0.1455	0.3838	0.5604	-0.551
Mof_O 	O 	0.9657	0.4289	0.5952	-0.397
Mof_C 	C 	0.9675	0.0131	0.3325	0.437
Mof_C 	C 	0.6968	0.884	0.4236	0.498
Mof_C 	C 	0.6145	0.9506	0.3638	-0.268
Mof_C 	C 	0.5705	0.0546	0.4034	0.477
Mof_Nd	Nd	0.85083	0.11343	0.49259	2.17
Mof_O 	O 	0.8962	0.085	0.325	-0.502
Mof_O 	O 	0.0167	0.9912	0.4089	-0.651
Mof_O 	O 	0.7801	0.9303	0.4693	-0.548
Mof_O 	O 	0.6853	0.7845	0.4248	-0.57
Mof_O 	O 	0.6455	0.1162	0.4396	-0.545
Mof_O 	O 	0.4657	0.0711	0.4048	-0.375
Mof_C 	C 	0.5325	0.4869	0.8325	0.481
Mof_C 	C 	0.8032	0.616	0.9236	0.495
Mof_C 	C 	0.8855	0.5494	0.8638	-0.273
Mof_C 	C 	0.9295	0.4454	0.9034	0.446
Mof_Nd	Nd	0.64917	0.38657	0.99259	2.201
Mof_O 	O 	0.6038	0.415	0.825	-0.511
Mof_O 	O 	0.4833	0.5088	0.9089	-0.675
Mof_O 	O 	0.7199	0.5697	0.9693	-0.547
Mof_O 	O 	0.8147	0.7155	0.9248	-0.567
Mof_O 	O 	0.8545	0.3838	0.9396	-0.543
Mof_O 	O 	0.0343	0.4289	0.9048	-0.341
Mof_C 	C 	0.9675	0.9869	0.8325	0.402
Mof_C 	C 	0.6968	0.116	0.9236	0.497
Mof_C 	C 	0.6145	0.0494	0.8638	-0.261
Mof_C 	C 	0.5705	0.9454	0.9034	0.469
Mof_Nd	Nd	0.85083	0.88657	0.99259	2.13
Mof_O 	O 	0.8962	0.915	0.825	-0.494
Mof_O 	O 	0.0167	0.0088	0.9089	-0.619
Mof_O 	O 	0.7801	0.0697	0.9693	-0.539
Mof_O 	O 	0.6853	0.2155	0.9248	-0.569
Mof_O 	O 	0.6455	0.8838	0.9396	-0.541
Mof_O 	O 	0.4657	0.9289	0.9048	-0.373
Mof_C 	C 	0.5325	0.5131	0.3325	0.48
Mof_C 	C 	0.8032	0.384	0.4236	0.497
Mof_C 	C 	0.8855	0.4506	0.3638	-0.273
Mof_C 	C 	0.9295	0.5546	0.4034	0.462
Mof_Nd	Nd	0.64917	0.61343	0.49259	2.187
Mof_O 	O 	0.6038	0.585	0.325	-0.51
Mof_O 	O 	0.4833	0.4912	0.4089	-0.676
Mof_O 	O 	0.7199	0.4303	0.4693	-0.546
Mof_O 	O 	0.8147	0.2845	0.4248	-0.57
Mof_O 	O 	0.8545	0.6162	0.4396	-0.546
Mof_O 	O 	0.0343	0.5711	0.4048	-0.359
Mof_C 	C 	0.0325	0.9869	0.6675	0.483
Mof_C 	C 	0.3032	0.116	0.5764	0.499
Mof_C 	C 	0.3855	0.0494	0.6362	-0.269
Mof_C 	C 	0.4295	0.9454	0.5966	0.479
Mof_Nd	Nd	0.14917	0.88657	0.50741	2.202
Mof_O 	O 	0.1038	0.915	0.675	-0.507
Mof_O 	O 	0.9833	0.0088	0.5911	-0.692
Mof_O 	O 	0.2199	0.0697	0.5307	-0.546
Mof_O 	O 	0.3147	0.2155	0.5752	-0.569
Mof_O 	O 	0.3545	0.8838	0.5604	-0.548
Mof_O 	O 	0.5343	0.9289	0.5952	-0.376
Mof_C 	C 	0.4675	0.5131	0.1675	0.481
Mof_C 	C 	0.1968	0.384	0.0764	0.497
Mof_C 	C 	0.1145	0.4506	0.1362	-0.272
Mof_C 	C 	0.0705	0.5546	0.0966	0.491
Mof_Nd	Nd	0.35083	0.61343	0.00741	2.204
Mof_O 	O 	0.3962	0.585	0.175	-0.511
Mof_O 	O 	0.5167	0.4912	0.0911	-0.676
Mof_O 	O 	0.2801	0.4303	0.0307	-0.548
Mof_O 	O 	0.1853	0.2845	0.0752	-0.566
Mof_O 	O 	0.1455	0.6162	0.0604	-0.548
Mof_O 	O 	0.9657	0.5711	0.0952	-0.38
Mof_C 	C 	1.22302e-33	0.9473	0.25	-0.277
Mof_C 	C 	0.5	0.5527	0.75	-0.31
Mof_C 	C 	3.66905e-33	0.0527	0.75	-0.265
Mof_C 	C 	0.5	0.4473	0.25	-0.31
_end
