data_functionalizedCrystal
_audit_creation_method	'EQeq! by Chris Wilmer'
_symmetry_space_group_name_H-M	'P1'
_symmetry_Int_Tables_number	1
_symmetry_cell_setting	triclinic
loop_
_symmetry_equiv_pos_as_xyz
  x,y,z
_cell_length_a	6.6243
_cell_length_b	8.6345
_cell_length_c	9.7545
_cell_angle_alpha	90
_cell_angle_beta	102.599
_cell_angle_gamma	90
loop_
_atom_site_label
_atom_site_type_symbol
_atom_site_fract_x
_atom_site_fract_y
_atom_site_fract_z
_atom_site_charge
Mof_Er	Er	0.89118	0.76915	0.73055	2.25
Mof_O 	O 	0.9255	0.5433	0.8714	-0.487
Mof_O 	O 	0.0018	0.3813	0.053	-0.564
Mof_O 	O 	0.877	0.5885	0.5614	-0.6
Mof_O 	O 	0.9428	0.4346	0.3975	-0.58
Mof_O 	O 	0.5725	0.6937	0.7664	-0.615
Mof_O 	O 	0.2453	0.7041	0.7852	-0.605
Mof_O 	O 	0.6201	0.8717	0.5195	-0.326
Mof_O 	O 	0.7036	0.015	0.7089	-0.293
Mof_C 	C 	0.0272	0.5016	0.9911	0.673
Mof_H 	H 	0.1307	0.5681	0.0366	-0.181
Mof_C 	C 	0.9544	0.4715	0.5225	0.75
Mof_H 	H 	0.0271	0.4058	0.5915	-0.209
Mof_C 	C 	0.3884	0.7193	0.7308	0.831
Mof_H 	H 	0.3504	0.7601	0.6406	-0.245
Mof_C 	C 	0.6033	0.9932	0.5851	0.132
Mof_H 	H 	0.5138	0.0702	0.5412	0.063
Mof_Er	Er	0.10882	0.26915	0.26945	2.302
Mof_O 	O 	0.0745	0.0433	0.1286	-0.479
Mof_O 	O 	0.9982	0.8813	0.947	-0.601
Mof_O 	O 	0.123	0.0885	0.4386	-0.536
Mof_O 	O 	0.0572	0.9346	0.6025	-0.566
Mof_O 	O 	0.4275	0.1937	0.2336	-0.612
Mof_O 	O 	0.7547	0.2041	0.2148	-0.605
Mof_O 	O 	0.3799	0.3717	0.4805	-0.38
Mof_O 	O 	0.2964	0.515	0.2911	-0.422
Mof_C 	C 	0.9728	0.0016	0.0089	0.694
Mof_H 	H 	0.8693	0.0681	0.9634	-0.164
Mof_C 	C 	0.0456	0.9715	0.4775	0.645
Mof_H 	H 	0.9729	0.9058	0.4085	-0.196
Mof_C 	C 	0.6116	0.2193	0.2692	0.847
Mof_H 	H 	0.6496	0.2601	0.3594	-0.244
Mof_C 	C 	0.3967	0.4932	0.4149	0.384
Mof_H 	H 	0.4862	0.5702	0.4588	-0.061
_end
