data_functionalizedCrystal
_audit_creation_method	'EQeq! by Chris Wilmer'
_symmetry_space_group_name_H-M	'P1'
_symmetry_Int_Tables_number	1
_symmetry_cell_setting	triclinic
loop_
_symmetry_equiv_pos_as_xyz
  x,y,z
_cell_length_a	15.4336
_cell_length_b	27.6137
_cell_length_c	30.674
_cell_angle_alpha	90
_cell_angle_beta	90
_cell_angle_gamma	90
loop_
_atom_site_label
_atom_site_type_symbol
_atom_site_fract_x
_atom_site_fract_y
_atom_site_fract_z
_atom_site_charge
Mof_O 	O 	0.8592	0.4313	0.1266	-0.511
Mof_O 	O 	0.9917	0.4102	0.1105	-0.477
Mof_O 	O 	0.0149	0.5854	0.2901	-0.506
Mof_O 	O 	0.1486	0.5677	0.274	-0.55
Mof_C 	C 	0.9389	0.4346	0.1334	0.298
Mof_C 	C 	0.9725	0.4666	0.1688	-0.02
Mof_C 	C 	0.0576	0.4616	0.1828	-0.048
Mof_H 	H 	0.0928	0.4377	0.1708	0.055
Mof_C 	C 	0.0902	0.4923	0.2148	0.081
Mof_C 	C 	0.0377	0.528	0.2327	-0.119
Mof_C 	C 	0.9525	0.533	0.2187	0.006
Mof_H 	H 	0.9173	0.5569	0.2306	0.025
Mof_C 	C 	0.9199	0.5023	0.1867	-0.031
Mof_H 	H 	0.8629	0.5056	0.1773	0.038
Mof_C 	C 	0.0685	0.5616	0.2675	0.346
Mof_N 	N 	0.179	0.4864	0.228	-0.174
Mof_H 	H 	0.2109	0.4643	0.2161	0.099
Mof_H 	H 	0.2011	0.5049	0.2477	0.072
Mof_N 	N 	0.1842	0.5063	0.2087	-0.197
Mof_H 	H 	0.2167	0.4906	0.1909	0.102
Mof_H 	H 	0.207	0.5238	0.2289	0.124
Mof_C 	C 	0.0592	0.4752	0.1725	-0.06
Mof_H 	H 	0.0957	0.4613	0.1519	0.051
Mof_C 	C 	0.0966	0.5035	0.2051	0.055
Mof_C 	C 	0.9491	0.5205	0.2277	-0.004
Mof_H 	H 	0.9117	0.5364	0.2467	0.034
Mof_C 	C 	0.9134	0.4909	0.1963	-0.024
Mof_H 	H 	0.8538	0.4872	0.1934	0.037
Mof_O 	O 	0.8592	0.9313	0.6266	-0.511
Mof_O 	O 	0.9917	0.9102	0.6105	-0.476
Mof_O 	O 	0.0149	0.0854	0.7901	-0.506
Mof_O 	O 	0.1486	0.0677	0.774	-0.55
Mof_C 	C 	0.9389	0.9346	0.6334	0.298
Mof_C 	C 	0.9725	0.9666	0.6688	-0.02
Mof_C 	C 	0.0576	0.9616	0.6828	-0.048
Mof_H 	H 	0.0928	0.9377	0.6708	0.055
Mof_C 	C 	0.0902	0.9923	0.7148	0.082
Mof_C 	C 	0.0377	0.028	0.7327	-0.119
Mof_C 	C 	0.9525	0.033	0.7187	0.006
Mof_H 	H 	0.9173	0.0569	0.7306	0.025
Mof_C 	C 	0.9199	0.0023	0.6867	-0.03
Mof_H 	H 	0.8629	0.0056	0.6773	0.037
Mof_C 	C 	0.0685	0.0616	0.7675	0.346
Mof_N 	N 	0.179	0.9864	0.728	-0.175
Mof_H 	H 	0.2109	0.9643	0.7161	0.099
Mof_H 	H 	0.2011	0.0049	0.7477	0.073
Mof_N 	N 	0.1842	0.0063	0.7087	-0.195
Mof_H 	H 	0.2167	0.9906	0.6909	0.102
Mof_H 	H 	0.207	0.0238	0.7289	0.125
Mof_C 	C 	0.0592	0.9752	0.6725	-0.059
Mof_H 	H 	0.0957	0.9613	0.6519	0.052
Mof_C 	C 	0.0966	0.0035	0.7051	0.055
Mof_C 	C 	0.9491	0.0205	0.7277	-0.003
Mof_H 	H 	0.9117	0.0364	0.7467	0.035
Mof_C 	C 	0.9134	0.9909	0.6963	-0.024
Mof_H 	H 	0.8538	0.9872	0.6934	0.038
Mof_O 	O 	0.3592	0.4313	0.6266	-0.51
Mof_O 	O 	0.4917	0.4102	0.6105	-0.475
Mof_O 	O 	0.5149	0.5854	0.7901	-0.504
Mof_O 	O 	0.6486	0.5677	0.774	-0.549
Mof_C 	C 	0.4389	0.4346	0.6334	0.299
Mof_C 	C 	0.4725	0.4666	0.6688	-0.019
Mof_C 	C 	0.5576	0.4616	0.6828	-0.047
Mof_H 	H 	0.5928	0.4377	0.6708	0.056
Mof_C 	C 	0.5902	0.4923	0.7148	0.082
Mof_C 	C 	0.5377	0.528	0.7327	-0.118
Mof_C 	C 	0.4525	0.533	0.7187	0.007
Mof_H 	H 	0.4173	0.5569	0.7306	0.026
Mof_C 	C 	0.4199	0.5023	0.6867	-0.03
Mof_H 	H 	0.3629	0.5056	0.6773	0.039
Mof_C 	C 	0.5685	0.5616	0.7675	0.347
Mof_N 	N 	0.679	0.4864	0.728	-0.173
Mof_H 	H 	0.7109	0.4643	0.7161	0.1
Mof_H 	H 	0.7011	0.5049	0.7477	0.073
Mof_N 	N 	0.6842	0.5063	0.7087	-0.196
Mof_H 	H 	0.7167	0.4906	0.6909	0.103
Mof_H 	H 	0.707	0.5238	0.7289	0.125
Mof_C 	C 	0.5592	0.4752	0.6725	-0.059
Mof_H 	H 	0.5957	0.4613	0.6519	0.052
Mof_C 	C 	0.5966	0.5035	0.7051	0.056
Mof_C 	C 	0.4491	0.5205	0.7277	-0.003
Mof_H 	H 	0.4117	0.5364	0.7467	0.035
Mof_C 	C 	0.4134	0.4909	0.6963	-0.023
Mof_H 	H 	0.3538	0.4872	0.6934	0.038
Mof_O 	O 	0.3592	0.9313	0.1266	-0.51
Mof_O 	O 	0.4917	0.9102	0.1105	-0.475
Mof_O 	O 	0.5149	0.0854	0.2901	-0.504
Mof_O 	O 	0.6486	0.0677	0.274	-0.549
Mof_C 	C 	0.4389	0.9346	0.1334	0.299
Mof_C 	C 	0.4725	0.9666	0.1688	-0.019
Mof_C 	C 	0.5576	0.9616	0.1828	-0.047
Mof_H 	H 	0.5928	0.9377	0.1708	0.056
Mof_C 	C 	0.5902	0.9923	0.2148	0.082
Mof_C 	C 	0.5377	0.028	0.2327	-0.118
Mof_C 	C 	0.4525	0.033	0.2187	0.007
Mof_H 	H 	0.4173	0.0569	0.2306	0.026
Mof_C 	C 	0.4199	0.0023	0.1867	-0.03
Mof_H 	H 	0.3629	0.0056	0.1773	0.039
Mof_C 	C 	0.5685	0.0616	0.2675	0.347
Mof_N 	N 	0.679	0.9864	0.228	-0.173
Mof_H 	H 	0.7109	0.9643	0.2161	0.099
Mof_H 	H 	0.7011	0.0049	0.2477	0.073
Mof_N 	N 	0.6842	0.0063	0.2087	-0.196
Mof_H 	H 	0.7167	0.9906	0.1909	0.103
Mof_H 	H 	0.707	0.0238	0.2289	0.125
Mof_C 	C 	0.5592	0.9752	0.1725	-0.059
Mof_H 	H 	0.5957	0.9613	0.1519	0.052
Mof_C 	C 	0.5966	0.0035	0.2051	0.057
Mof_C 	C 	0.4491	0.0205	0.2277	-0.003
Mof_H 	H 	0.4117	0.0364	0.2467	0.035
Mof_C 	C 	0.4134	0.9909	0.1963	-0.023
Mof_H 	H 	0.3538	0.9872	0.1934	0.038
Mof_O 	O 	0.8908	0.3187	0.1266	-0.51
Mof_O 	O 	0.7583	0.3398	0.1105	-0.475
Mof_O 	O 	0.7351	0.1646	0.2901	-0.505
Mof_O 	O 	0.6014	0.1823	0.274	-0.549
Mof_C 	C 	0.8111	0.3154	0.1334	0.299
Mof_C 	C 	0.7775	0.2834	0.1688	-0.019
Mof_C 	C 	0.6924	0.2884	0.1828	-0.047
Mof_H 	H 	0.6572	0.3123	0.1708	0.056
Mof_C 	C 	0.6598	0.2577	0.2148	0.082
Mof_C 	C 	0.7123	0.222	0.2327	-0.118
Mof_C 	C 	0.7975	0.217	0.2187	0.007
Mof_H 	H 	0.8327	0.1931	0.2306	0.026
Mof_C 	C 	0.8301	0.2477	0.1867	-0.03
Mof_H 	H 	0.8871	0.2444	0.1773	0.039
Mof_C 	C 	0.6815	0.1884	0.2675	0.347
Mof_N 	N 	0.571	0.2636	0.228	-0.173
Mof_H 	H 	0.5391	0.2857	0.2161	0.1
Mof_H 	H 	0.5489	0.2451	0.2477	0.073
Mof_N 	N 	0.5658	0.2437	0.2087	-0.196
Mof_H 	H 	0.5333	0.2594	0.1909	0.103
Mof_H 	H 	0.543	0.2262	0.2289	0.125
Mof_C 	C 	0.6908	0.2748	0.1725	-0.059
Mof_H 	H 	0.6543	0.2887	0.1519	0.052
Mof_C 	C 	0.6534	0.2465	0.2051	0.056
Mof_C 	C 	0.8009	0.2295	0.2277	-0.003
Mof_H 	H 	0.8383	0.2136	0.2467	0.035
Mof_C 	C 	0.8366	0.2591	0.1963	-0.023
Mof_H 	H 	0.8962	0.2628	0.1934	0.038
Mof_O 	O 	0.8908	0.8187	0.6266	-0.51
Mof_O 	O 	0.7583	0.8398	0.6105	-0.475
Mof_O 	O 	0.7351	0.6646	0.7901	-0.505
Mof_O 	O 	0.6014	0.6823	0.774	-0.549
Mof_C 	C 	0.8111	0.8154	0.6334	0.299
Mof_C 	C 	0.7775	0.7834	0.6688	-0.019
Mof_C 	C 	0.6924	0.7884	0.6828	-0.047
Mof_H 	H 	0.6572	0.8123	0.6708	0.056
Mof_C 	C 	0.6598	0.7577	0.7148	0.082
Mof_C 	C 	0.7123	0.722	0.7327	-0.118
Mof_C 	C 	0.7975	0.717	0.7187	0.007
Mof_H 	H 	0.8327	0.6931	0.7306	0.026
Mof_C 	C 	0.8301	0.7477	0.6867	-0.03
Mof_H 	H 	0.8871	0.7444	0.6773	0.039
Mof_C 	C 	0.6815	0.6884	0.7675	0.347
Mof_N 	N 	0.571	0.7636	0.728	-0.173
Mof_H 	H 	0.5391	0.7857	0.7161	0.1
Mof_H 	H 	0.5489	0.7451	0.7477	0.073
Mof_N 	N 	0.5658	0.7437	0.7087	-0.196
Mof_H 	H 	0.5333	0.7594	0.6909	0.103
Mof_H 	H 	0.543	0.7262	0.7289	0.125
Mof_C 	C 	0.6908	0.7748	0.6725	-0.059
Mof_H 	H 	0.6543	0.7887	0.6519	0.052
Mof_C 	C 	0.6534	0.7465	0.7051	0.056
Mof_C 	C 	0.8009	0.7295	0.7277	-0.003
Mof_H 	H 	0.8383	0.7136	0.7467	0.035
Mof_C 	C 	0.8366	0.7591	0.6963	-0.023
Mof_H 	H 	0.8962	0.7628	0.6934	0.038
Mof_O 	O 	0.3908	0.3187	0.6266	-0.51
Mof_O 	O 	0.2583	0.3398	0.6105	-0.475
Mof_O 	O 	0.2351	0.1646	0.7901	-0.504
Mof_O 	O 	0.1014	0.1823	0.774	-0.549
Mof_C 	C 	0.3111	0.3154	0.6334	0.299
Mof_C 	C 	0.2775	0.2834	0.6688	-0.019
Mof_C 	C 	0.1924	0.2884	0.6828	-0.047
Mof_H 	H 	0.1572	0.3123	0.6708	0.056
Mof_C 	C 	0.1598	0.2577	0.7148	0.082
Mof_C 	C 	0.2123	0.222	0.7327	-0.118
Mof_C 	C 	0.2975	0.217	0.7187	0.007
Mof_H 	H 	0.3327	0.1931	0.7306	0.026
Mof_C 	C 	0.3301	0.2477	0.6867	-0.03
Mof_H 	H 	0.3871	0.2444	0.6773	0.039
Mof_C 	C 	0.1815	0.1884	0.7675	0.347
Mof_N 	N 	0.071	0.2636	0.728	-0.173
Mof_H 	H 	0.0391	0.2857	0.7161	0.1
Mof_H 	H 	0.0489	0.2451	0.7477	0.073
Mof_N 	N 	0.0658	0.2437	0.7087	-0.196
Mof_H 	H 	0.0333	0.2594	0.6909	0.103
Mof_H 	H 	0.043	0.2262	0.7289	0.125
Mof_C 	C 	0.1908	0.2748	0.6725	-0.059
Mof_H 	H 	0.1543	0.2887	0.6519	0.052
Mof_C 	C 	0.1534	0.2465	0.7051	0.056
Mof_C 	C 	0.3009	0.2295	0.7277	-0.003
Mof_H 	H 	0.3383	0.2136	0.7467	0.035
Mof_C 	C 	0.3366	0.2591	0.6963	-0.023
Mof_H 	H 	0.3962	0.2628	0.6934	0.038
Mof_O 	O 	0.3908	0.8187	0.1266	-0.51
Mof_O 	O 	0.2583	0.8398	0.1105	-0.476
Mof_O 	O 	0.2351	0.6646	0.2901	-0.504
Mof_O 	O 	0.1014	0.6823	0.274	-0.549
Mof_C 	C 	0.3111	0.8154	0.1334	0.299
Mof_C 	C 	0.2775	0.7834	0.1688	-0.019
Mof_C 	C 	0.1924	0.7884	0.1828	-0.047
Mof_H 	H 	0.1572	0.8123	0.1708	0.056
Mof_C 	C 	0.1598	0.7577	0.2148	0.082
Mof_C 	C 	0.2123	0.722	0.2327	-0.118
Mof_C 	C 	0.2975	0.717	0.2187	0.007
Mof_H 	H 	0.3327	0.6931	0.2306	0.026
Mof_C 	C 	0.3301	0.7477	0.1867	-0.03
Mof_H 	H 	0.3871	0.7444	0.1773	0.039
Mof_C 	C 	0.1815	0.6884	0.2675	0.347
Mof_N 	N 	0.071	0.7636	0.228	-0.173
Mof_H 	H 	0.0391	0.7857	0.2161	0.099
Mof_H 	H 	0.0489	0.7451	0.2477	0.073
Mof_N 	N 	0.0658	0.7437	0.2087	-0.196
Mof_H 	H 	0.0333	0.7594	0.1909	0.103
Mof_H 	H 	0.043	0.7262	0.2289	0.125
Mof_C 	C 	0.1908	0.7748	0.1725	-0.059
Mof_H 	H 	0.1543	0.7887	0.1519	0.052
Mof_C 	C 	0.1534	0.7465	0.2051	0.056
Mof_C 	C 	0.3009	0.7295	0.2277	-0.003
Mof_H 	H 	0.3383	0.7136	0.2467	0.035
Mof_C 	C 	0.3366	0.7591	0.1963	-0.023
Mof_H 	H 	0.3962	0.7628	0.1934	0.038
Mof_O 	O 	0.1092	0.5687	0.3766	-0.51
Mof_O 	O 	0.2417	0.5898	0.3605	-0.475
Mof_O 	O 	0.2649	0.4146	0.5401	-0.505
Mof_O 	O 	0.3986	0.4323	0.524	-0.549
Mof_C 	C 	0.1889	0.5654	0.3834	0.299
Mof_C 	C 	0.2225	0.5334	0.4188	-0.019
Mof_C 	C 	0.3076	0.5384	0.4328	-0.047
Mof_H 	H 	0.3428	0.5623	0.4208	0.056
Mof_C 	C 	0.3402	0.5077	0.4648	0.082
Mof_C 	C 	0.2877	0.472	0.4827	-0.118
Mof_C 	C 	0.2025	0.467	0.4687	0.007
Mof_H 	H 	0.1673	0.4431	0.4806	0.026
Mof_C 	C 	0.1699	0.4977	0.4367	-0.03
Mof_H 	H 	0.1129	0.4944	0.4273	0.039
Mof_C 	C 	0.3185	0.4384	0.5175	0.347
Mof_N 	N 	0.429	0.5136	0.478	-0.173
Mof_H 	H 	0.4609	0.5357	0.4661	0.1
Mof_H 	H 	0.4511	0.4951	0.4977	0.073
Mof_N 	N 	0.4342	0.4937	0.4587	-0.196
Mof_H 	H 	0.4667	0.5094	0.4409	0.103
Mof_H 	H 	0.457	0.4762	0.4789	0.125
Mof_C 	C 	0.3092	0.5248	0.4225	-0.059
Mof_H 	H 	0.3457	0.5387	0.4019	0.052
Mof_C 	C 	0.3466	0.4965	0.4551	0.056
Mof_C 	C 	0.1991	0.4795	0.4777	-0.003
Mof_H 	H 	0.1617	0.4636	0.4967	0.035
Mof_C 	C 	0.1634	0.5091	0.4463	-0.023
Mof_H 	H 	0.1038	0.5128	0.4434	0.038
Mof_O 	O 	0.1092	0.0687	0.8766	-0.51
Mof_O 	O 	0.2417	0.0898	0.8605	-0.475
Mof_O 	O 	0.2649	0.9146	0.0401	-0.505
Mof_O 	O 	0.3986	0.9323	0.024	-0.549
Mof_C 	C 	0.1889	0.0654	0.8834	0.299
Mof_C 	C 	0.2225	0.0334	0.9188	-0.019
Mof_C 	C 	0.3076	0.0384	0.9328	-0.047
Mof_H 	H 	0.3428	0.0623	0.9208	0.056
Mof_C 	C 	0.3402	0.0077	0.9648	0.081
Mof_C 	C 	0.2877	0.972	0.9827	-0.118
Mof_C 	C 	0.2025	0.967	0.9687	0.007
Mof_H 	H 	0.1673	0.9431	0.9806	0.026
Mof_C 	C 	0.1699	0.9977	0.9367	-0.03
Mof_H 	H 	0.1129	0.9944	0.9273	0.038
Mof_C 	C 	0.3185	0.9384	0.0175	0.347
Mof_N 	N 	0.429	0.0136	0.978	-0.173
Mof_H 	H 	0.4609	0.0357	0.9661	0.099
Mof_H 	H 	0.4511	0.9951	0.9977	0.073
Mof_N 	N 	0.4342	0.9937	0.9587	-0.196
Mof_H 	H 	0.4667	0.0094	0.9409	0.103
Mof_H 	H 	0.457	0.9762	0.9789	0.125
Mof_C 	C 	0.3092	0.0248	0.9225	-0.059
Mof_H 	H 	0.3457	0.0387	0.9019	0.052
Mof_C 	C 	0.3466	0.9965	0.9551	0.057
Mof_C 	C 	0.1991	0.9795	0.9777	-0.003
Mof_H 	H 	0.1617	0.9636	0.9967	0.035
Mof_C 	C 	0.1634	0.0091	0.9463	-0.024
Mof_H 	H 	0.1038	0.0128	0.9434	0.038
Mof_O 	O 	0.6092	0.5687	0.8766	-0.51
Mof_O 	O 	0.7417	0.5898	0.8605	-0.475
Mof_O 	O 	0.7649	0.4146	0.0401	-0.504
Mof_O 	O 	0.8986	0.4323	0.024	-0.549
Mof_C 	C 	0.6889	0.5654	0.8834	0.299
Mof_C 	C 	0.7225	0.5334	0.9188	-0.019
Mof_C 	C 	0.8076	0.5384	0.9328	-0.047
Mof_H 	H 	0.8428	0.5623	0.9208	0.056
Mof_C 	C 	0.8402	0.5077	0.9648	0.082
Mof_C 	C 	0.7877	0.472	0.9827	-0.118
Mof_C 	C 	0.7025	0.467	0.9687	0.007
Mof_H 	H 	0.6673	0.4431	0.9806	0.026
Mof_C 	C 	0.6699	0.4977	0.9367	-0.03
Mof_H 	H 	0.6129	0.4944	0.9273	0.039
Mof_C 	C 	0.8185	0.4384	0.0175	0.347
Mof_N 	N 	0.929	0.5136	0.978	-0.173
Mof_H 	H 	0.9609	0.5357	0.9661	0.1
Mof_H 	H 	0.9511	0.4951	0.9977	0.073
Mof_N 	N 	0.9342	0.4937	0.9587	-0.196
Mof_H 	H 	0.9667	0.5094	0.9409	0.103
Mof_H 	H 	0.957	0.4762	0.9789	0.125
Mof_C 	C 	0.8092	0.5248	0.9225	-0.059
Mof_H 	H 	0.8457	0.5387	0.9019	0.052
Mof_C 	C 	0.8466	0.4965	0.9551	0.056
Mof_C 	C 	0.6991	0.4795	0.9777	-0.003
Mof_H 	H 	0.6617	0.4636	0.9967	0.035
Mof_C 	C 	0.6634	0.5091	0.9463	-0.023
Mof_H 	H 	0.6038	0.5128	0.9434	0.038
Mof_O 	O 	0.6092	0.0687	0.3766	-0.51
Mof_O 	O 	0.7417	0.0898	0.3605	-0.475
Mof_O 	O 	0.7649	0.9146	0.5401	-0.504
Mof_O 	O 	0.8986	0.9323	0.524	-0.549
Mof_C 	C 	0.6889	0.0654	0.3834	0.299
Mof_C 	C 	0.7225	0.0334	0.4188	-0.019
Mof_C 	C 	0.8076	0.0384	0.4328	-0.047
Mof_H 	H 	0.8428	0.0623	0.4208	0.056
Mof_C 	C 	0.8402	0.0077	0.4648	0.083
Mof_C 	C 	0.7877	0.972	0.4827	-0.118
Mof_C 	C 	0.7025	0.967	0.4687	0.007
Mof_H 	H 	0.6673	0.9431	0.4806	0.026
Mof_C 	C 	0.6699	0.9977	0.4367	-0.031
Mof_H 	H 	0.6129	0.9944	0.4273	0.039
Mof_C 	C 	0.8185	0.9384	0.5175	0.347
Mof_N 	N 	0.929	0.0136	0.478	-0.174
Mof_H 	H 	0.9609	0.0357	0.4661	0.1
Mof_H 	H 	0.9511	0.9951	0.4977	0.074
Mof_N 	N 	0.9342	0.9937	0.4587	-0.194
Mof_H 	H 	0.9667	0.0094	0.4409	0.102
Mof_H 	H 	0.957	0.9762	0.4789	0.124
Mof_C 	C 	0.8092	0.0248	0.4225	-0.059
Mof_H 	H 	0.8457	0.0387	0.4019	0.052
Mof_C 	C 	0.8466	0.9965	0.4551	0.056
Mof_C 	C 	0.6991	0.9795	0.4777	-0.003
Mof_H 	H 	0.6617	0.9636	0.4967	0.035
Mof_C 	C 	0.6634	0.0091	0.4463	-0.023
Mof_H 	H 	0.6038	0.0128	0.4434	0.038
Mof_O 	O 	0.1408	0.6813	0.3766	-0.51
Mof_O 	O 	0.0083	0.6602	0.3605	-0.476
Mof_O 	O 	0.9851	0.8354	0.5401	-0.505
Mof_O 	O 	0.8514	0.8177	0.524	-0.549
Mof_C 	C 	0.0611	0.6846	0.3834	0.299
Mof_C 	C 	0.0275	0.7166	0.4188	-0.019
Mof_C 	C 	0.9424	0.7116	0.4328	-0.047
Mof_H 	H 	0.9072	0.6877	0.4208	0.056
Mof_C 	C 	0.9098	0.7423	0.4648	0.082
Mof_C 	C 	0.9623	0.778	0.4827	-0.118
Mof_C 	C 	0.0475	0.783	0.4687	0.007
Mof_H 	H 	0.0827	0.8069	0.4806	0.026
Mof_C 	C 	0.0801	0.7523	0.4367	-0.03
Mof_H 	H 	0.1371	0.7556	0.4273	0.039
Mof_C 	C 	0.9315	0.8116	0.5175	0.347
Mof_N 	N 	0.821	0.7364	0.478	-0.173
Mof_H 	H 	0.7891	0.7143	0.4661	0.1
Mof_H 	H 	0.7989	0.7549	0.4977	0.073
Mof_N 	N 	0.8158	0.7563	0.4587	-0.196
Mof_H 	H 	0.7833	0.7406	0.4409	0.103
Mof_H 	H 	0.793	0.7738	0.4789	0.125
Mof_C 	C 	0.9408	0.7252	0.4225	-0.059
Mof_H 	H 	0.9043	0.7113	0.4019	0.052
Mof_C 	C 	0.9034	0.7535	0.4551	0.056
Mof_C 	C 	0.0509	0.7705	0.4777	-0.003
Mof_H 	H 	0.0883	0.7864	0.4967	0.035
Mof_C 	C 	0.0866	0.7409	0.4463	-0.023
Mof_H 	H 	0.1462	0.7372	0.4434	0.038
Mof_O 	O 	0.1408	0.1813	0.8766	-0.51
Mof_O 	O 	0.0083	0.1602	0.8605	-0.475
Mof_O 	O 	0.9851	0.3354	0.0401	-0.505
Mof_O 	O 	0.8514	0.3177	0.024	-0.549
Mof_C 	C 	0.0611	0.1846	0.8834	0.299
Mof_C 	C 	0.0275	0.2166	0.9188	-0.019
Mof_C 	C 	0.9424	0.2116	0.9328	-0.047
Mof_H 	H 	0.9072	0.1877	0.9208	0.056
Mof_C 	C 	0.9098	0.2423	0.9648	0.082
Mof_C 	C 	0.9623	0.278	0.9827	-0.119
Mof_C 	C 	0.0475	0.283	0.9687	0.007
Mof_H 	H 	0.0827	0.3069	0.9806	0.026
Mof_C 	C 	0.0801	0.2523	0.9367	-0.03
Mof_H 	H 	0.1371	0.2556	0.9273	0.039
Mof_C 	C 	0.9315	0.3116	0.0175	0.347
Mof_N 	N 	0.821	0.2364	0.978	-0.173
Mof_H 	H 	0.7891	0.2143	0.9661	0.1
Mof_H 	H 	0.7989	0.2549	0.9977	0.073
Mof_N 	N 	0.8158	0.2563	0.9587	-0.196
Mof_H 	H 	0.7833	0.2406	0.9409	0.103
Mof_H 	H 	0.793	0.2738	0.9789	0.125
Mof_C 	C 	0.9408	0.2252	0.9225	-0.059
Mof_H 	H 	0.9043	0.2113	0.9019	0.052
Mof_C 	C 	0.9034	0.2535	0.9551	0.056
Mof_C 	C 	0.0509	0.2705	0.9777	-0.003
Mof_H 	H 	0.0883	0.2864	0.9967	0.035
Mof_C 	C 	0.0866	0.2409	0.9463	-0.023
Mof_H 	H 	0.1462	0.2372	0.9434	0.038
Mof_O 	O 	0.6408	0.6813	0.8766	-0.51
Mof_O 	O 	0.5083	0.6602	0.8605	-0.475
Mof_O 	O 	0.4851	0.8354	0.0401	-0.504
Mof_O 	O 	0.3514	0.8177	0.024	-0.549
Mof_C 	C 	0.5611	0.6846	0.8834	0.299
Mof_C 	C 	0.5275	0.7166	0.9188	-0.019
Mof_C 	C 	0.4424	0.7116	0.9328	-0.047
Mof_H 	H 	0.4072	0.6877	0.9208	0.056
Mof_C 	C 	0.4098	0.7423	0.9648	0.082
Mof_C 	C 	0.4623	0.778	0.9827	-0.118
Mof_C 	C 	0.5475	0.783	0.9687	0.007
Mof_H 	H 	0.5827	0.8069	0.9806	0.026
Mof_C 	C 	0.5801	0.7523	0.9367	-0.03
Mof_H 	H 	0.6371	0.7556	0.9273	0.039
Mof_C 	C 	0.4315	0.8116	0.0175	0.347
Mof_N 	N 	0.321	0.7364	0.978	-0.173
Mof_H 	H 	0.2891	0.7143	0.9661	0.1
Mof_H 	H 	0.2989	0.7549	0.9977	0.073
Mof_N 	N 	0.3158	0.7563	0.9587	-0.196
Mof_H 	H 	0.2833	0.7406	0.9409	0.103
Mof_H 	H 	0.293	0.7738	0.9789	0.125
Mof_C 	C 	0.4408	0.7252	0.9225	-0.059
Mof_H 	H 	0.4043	0.7113	0.9019	0.052
Mof_C 	C 	0.4034	0.7535	0.9551	0.056
Mof_C 	C 	0.5509	0.7705	0.9777	-0.003
Mof_H 	H 	0.5883	0.7864	0.9967	0.035
Mof_C 	C 	0.5866	0.7409	0.9463	-0.023
Mof_H 	H 	0.6462	0.7372	0.9434	0.038
Mof_O 	O 	0.6408	0.1813	0.3766	-0.51
Mof_O 	O 	0.5083	0.1602	0.3605	-0.475
Mof_O 	O 	0.4851	0.3354	0.5401	-0.504
Mof_O 	O 	0.3514	0.3177	0.524	-0.549
Mof_C 	C 	0.5611	0.1846	0.3834	0.299
Mof_C 	C 	0.5275	0.2166	0.4188	-0.019
Mof_C 	C 	0.4424	0.2116	0.4328	-0.047
Mof_H 	H 	0.4072	0.1877	0.4208	0.056
Mof_C 	C 	0.4098	0.2423	0.4648	0.082
Mof_C 	C 	0.4623	0.278	0.4827	-0.118
Mof_C 	C 	0.5475	0.283	0.4687	0.007
Mof_H 	H 	0.5827	0.3069	0.4806	0.026
Mof_C 	C 	0.5801	0.2523	0.4367	-0.03
Mof_H 	H 	0.6371	0.2556	0.4273	0.039
Mof_C 	C 	0.4315	0.3116	0.5175	0.347
Mof_N 	N 	0.321	0.2364	0.478	-0.173
Mof_H 	H 	0.2891	0.2143	0.4661	0.1
Mof_H 	H 	0.2989	0.2549	0.4977	0.073
Mof_N 	N 	0.3158	0.2563	0.4587	-0.196
Mof_H 	H 	0.2833	0.2406	0.4409	0.103
Mof_H 	H 	0.293	0.2738	0.4789	0.125
Mof_C 	C 	0.4408	0.2252	0.4225	-0.059
Mof_H 	H 	0.4043	0.2113	0.4019	0.052
Mof_C 	C 	0.4034	0.2535	0.4551	0.056
Mof_C 	C 	0.5509	0.2705	0.4777	-0.003
Mof_H 	H 	0.5883	0.2864	0.4967	0.035
Mof_C 	C 	0.5866	0.2409	0.4463	-0.023
Mof_H 	H 	0.6462	0.2372	0.4434	0.038
Mof_In	In	0.875	0.375	0.07418	2.541
Mof_In	In	0.875	0.875	0.57418	2.541
Mof_In	In	0.375	0.375	0.57418	2.541
Mof_In	In	0.375	0.875	0.07418	2.541
Mof_In	In	0.125	0.625	0.32418	2.541
Mof_In	In	0.125	0.125	0.82418	2.541
Mof_In	In	0.625	0.625	0.82418	2.541
Mof_In	In	0.625	0.125	0.32418	2.541
Mof_O 	O 	0.8908	0.4313	0.6234	-0.51
Mof_O 	O 	0.7583	0.4102	0.6395	-0.475
Mof_O 	O 	0.7351	0.5854	0.4599	-0.505
Mof_O 	O 	0.6014	0.5677	0.476	-0.549
Mof_C 	C 	0.8111	0.4346	0.6166	0.299
Mof_C 	C 	0.7775	0.4666	0.5812	-0.019
Mof_C 	C 	0.6924	0.4616	0.5672	-0.047
Mof_H 	H 	0.6572	0.4377	0.5792	0.056
Mof_C 	C 	0.6598	0.4923	0.5352	0.082
Mof_C 	C 	0.7123	0.528	0.5173	-0.118
Mof_C 	C 	0.7975	0.533	0.5313	0.007
Mof_H 	H 	0.8327	0.5569	0.5194	0.026
Mof_C 	C 	0.8301	0.5023	0.5633	-0.03
Mof_H 	H 	0.8871	0.5056	0.5727	0.039
Mof_C 	C 	0.6815	0.5616	0.4825	0.347
Mof_N 	N 	0.571	0.4864	0.522	-0.173
Mof_H 	H 	0.5391	0.4643	0.5339	0.1
Mof_H 	H 	0.5489	0.5049	0.5023	0.073
Mof_N 	N 	0.5658	0.5063	0.5413	-0.196
Mof_H 	H 	0.5333	0.4906	0.5591	0.103
Mof_H 	H 	0.543	0.5238	0.5211	0.125
Mof_C 	C 	0.6908	0.4752	0.5775	-0.059
Mof_H 	H 	0.6543	0.4613	0.5981	0.052
Mof_C 	C 	0.6534	0.5035	0.5449	0.056
Mof_C 	C 	0.8009	0.5205	0.5223	-0.003
Mof_H 	H 	0.8383	0.5364	0.5033	0.035
Mof_C 	C 	0.8366	0.4909	0.5537	-0.023
Mof_H 	H 	0.8962	0.4872	0.5566	0.038
Mof_O 	O 	0.8908	0.9313	0.1234	-0.51
Mof_O 	O 	0.7583	0.9102	0.1395	-0.475
Mof_O 	O 	0.7351	0.0854	0.9599	-0.505
Mof_O 	O 	0.6014	0.0677	0.976	-0.549
Mof_C 	C 	0.8111	0.9346	0.1166	0.299
Mof_C 	C 	0.7775	0.9666	0.0812	-0.019
Mof_C 	C 	0.6924	0.9616	0.0672	-0.047
Mof_H 	H 	0.6572	0.9377	0.0792	0.056
Mof_C 	C 	0.6598	0.9923	0.0352	0.081
Mof_C 	C 	0.7123	0.028	0.0173	-0.118
Mof_C 	C 	0.7975	0.033	0.0313	0.007
Mof_H 	H 	0.8327	0.0569	0.0194	0.026
Mof_C 	C 	0.8301	0.0023	0.0633	-0.03
Mof_H 	H 	0.8871	0.0056	0.0727	0.038
Mof_C 	C 	0.6815	0.0616	0.9825	0.347
Mof_N 	N 	0.571	0.9864	0.022	-0.173
Mof_H 	H 	0.5391	0.9643	0.0339	0.099
Mof_H 	H 	0.5489	0.0049	0.0023	0.073
Mof_N 	N 	0.5658	0.0063	0.0413	-0.196
Mof_H 	H 	0.5333	0.9906	0.0591	0.103
Mof_H 	H 	0.543	0.0238	0.0211	0.125
Mof_C 	C 	0.6908	0.9752	0.0775	-0.059
Mof_H 	H 	0.6543	0.9613	0.0981	0.052
Mof_C 	C 	0.6534	0.0035	0.0449	0.057
Mof_C 	C 	0.8009	0.0205	0.0223	-0.003
Mof_H 	H 	0.8383	0.0364	0.0033	0.035
Mof_C 	C 	0.8366	0.9909	0.0537	-0.024
Mof_H 	H 	0.8962	0.9872	0.0566	0.038
Mof_O 	O 	0.3908	0.4313	0.1234	-0.51
Mof_O 	O 	0.2583	0.4102	0.1395	-0.475
Mof_O 	O 	0.2351	0.5854	0.9599	-0.504
Mof_O 	O 	0.1014	0.5677	0.976	-0.549
Mof_C 	C 	0.3111	0.4346	0.1166	0.299
Mof_C 	C 	0.2775	0.4666	0.0812	-0.019
Mof_C 	C 	0.1924	0.4616	0.0672	-0.047
Mof_H 	H 	0.1572	0.4377	0.0792	0.056
Mof_C 	C 	0.1598	0.4923	0.0352	0.082
Mof_C 	C 	0.2123	0.528	0.0173	-0.118
Mof_C 	C 	0.2975	0.533	0.0313	0.007
Mof_H 	H 	0.3327	0.5569	0.0194	0.026
Mof_C 	C 	0.3301	0.5023	0.0633	-0.03
Mof_H 	H 	0.3871	0.5056	0.0727	0.039
Mof_C 	C 	0.1815	0.5616	0.9825	0.347
Mof_N 	N 	0.071	0.4864	0.022	-0.173
Mof_H 	H 	0.0391	0.4643	0.0339	0.1
Mof_H 	H 	0.0489	0.5049	0.0023	0.073
Mof_N 	N 	0.0658	0.5063	0.0413	-0.196
Mof_H 	H 	0.0333	0.4906	0.0591	0.103
Mof_H 	H 	0.043	0.5238	0.0211	0.125
Mof_C 	C 	0.1908	0.4752	0.0775	-0.059
Mof_H 	H 	0.1543	0.4613	0.0981	0.052
Mof_C 	C 	0.1534	0.5035	0.0449	0.056
Mof_C 	C 	0.3009	0.5205	0.0223	-0.003
Mof_H 	H 	0.3383	0.5364	0.0033	0.035
Mof_C 	C 	0.3366	0.4909	0.0537	-0.023
Mof_H 	H 	0.3962	0.4872	0.0566	0.038
Mof_O 	O 	0.3908	0.9313	0.6234	-0.51
Mof_O 	O 	0.2583	0.9102	0.6395	-0.475
Mof_O 	O 	0.2351	0.0854	0.4599	-0.504
Mof_O 	O 	0.1014	0.0677	0.476	-0.549
Mof_C 	C 	0.3111	0.9346	0.6166	0.299
Mof_C 	C 	0.2775	0.9666	0.5812	-0.019
Mof_C 	C 	0.1924	0.9616	0.5672	-0.047
Mof_H 	H 	0.1572	0.9377	0.5792	0.056
Mof_C 	C 	0.1598	0.9923	0.5352	0.083
Mof_C 	C 	0.2123	0.028	0.5173	-0.118
Mof_C 	C 	0.2975	0.033	0.5313	0.007
Mof_H 	H 	0.3327	0.0569	0.5194	0.026
Mof_C 	C 	0.3301	0.0023	0.5633	-0.031
Mof_H 	H 	0.3871	0.0056	0.5727	0.039
Mof_C 	C 	0.1815	0.0616	0.4825	0.347
Mof_N 	N 	0.071	0.9864	0.522	-0.174
Mof_H 	H 	0.0391	0.9643	0.5339	0.1
Mof_H 	H 	0.0489	0.0049	0.5023	0.074
Mof_N 	N 	0.0658	0.0063	0.5413	-0.194
Mof_H 	H 	0.0333	0.9906	0.5591	0.102
Mof_H 	H 	0.043	0.0238	0.5211	0.124
Mof_C 	C 	0.1908	0.9752	0.5775	-0.059
Mof_H 	H 	0.1543	0.9613	0.5981	0.052
Mof_C 	C 	0.1534	0.0035	0.5449	0.056
Mof_C 	C 	0.3009	0.0205	0.5223	-0.003
Mof_H 	H 	0.3383	0.0364	0.5033	0.035
Mof_C 	C 	0.3366	0.9909	0.5537	-0.023
Mof_H 	H 	0.3962	0.9872	0.5566	0.038
Mof_O 	O 	0.8592	0.3187	0.6234	-0.51
Mof_O 	O 	0.9917	0.3398	0.6395	-0.476
Mof_O 	O 	0.0149	0.1646	0.4599	-0.505
Mof_O 	O 	0.1486	0.1823	0.476	-0.549
Mof_C 	C 	0.9389	0.3154	0.6166	0.299
Mof_C 	C 	0.9725	0.2834	0.5812	-0.019
Mof_C 	C 	0.0576	0.2884	0.5672	-0.047
Mof_H 	H 	0.0928	0.3123	0.5792	0.056
Mof_C 	C 	0.0902	0.2577	0.5352	0.082
Mof_C 	C 	0.0377	0.222	0.5173	-0.118
Mof_C 	C 	0.9525	0.217	0.5313	0.007
Mof_H 	H 	0.9173	0.1931	0.5194	0.026
Mof_C 	C 	0.9199	0.2477	0.5633	-0.03
Mof_H 	H 	0.8629	0.2444	0.5727	0.039
Mof_C 	C 	0.0685	0.1884	0.4825	0.347
Mof_N 	N 	0.179	0.2636	0.522	-0.173
Mof_H 	H 	0.2109	0.2857	0.5339	0.1
Mof_H 	H 	0.2011	0.2451	0.5023	0.073
Mof_N 	N 	0.1842	0.2437	0.5413	-0.196
Mof_H 	H 	0.2167	0.2594	0.5591	0.103
Mof_H 	H 	0.207	0.2262	0.5211	0.125
Mof_C 	C 	0.0592	0.2748	0.5775	-0.059
Mof_H 	H 	0.0957	0.2887	0.5981	0.052
Mof_C 	C 	0.0966	0.2465	0.5449	0.056
Mof_C 	C 	0.9491	0.2295	0.5223	-0.003
Mof_H 	H 	0.9117	0.2136	0.5033	0.035
Mof_C 	C 	0.9134	0.2591	0.5537	-0.023
Mof_H 	H 	0.8538	0.2628	0.5566	0.038
Mof_O 	O 	0.8592	0.8187	0.1234	-0.51
Mof_O 	O 	0.9917	0.8398	0.1395	-0.475
Mof_O 	O 	0.0149	0.6646	0.9599	-0.505
Mof_O 	O 	0.1486	0.6823	0.976	-0.549
Mof_C 	C 	0.9389	0.8154	0.1166	0.299
Mof_C 	C 	0.9725	0.7834	0.0812	-0.019
Mof_C 	C 	0.0576	0.7884	0.0672	-0.047
Mof_H 	H 	0.0928	0.8123	0.0792	0.056
Mof_C 	C 	0.0902	0.7577	0.0352	0.082
Mof_C 	C 	0.0377	0.722	0.0173	-0.119
Mof_C 	C 	0.9525	0.717	0.0313	0.007
Mof_H 	H 	0.9173	0.6931	0.0194	0.026
Mof_C 	C 	0.9199	0.7477	0.0633	-0.03
Mof_H 	H 	0.8629	0.7444	0.0727	0.039
Mof_C 	C 	0.0685	0.6884	0.9825	0.347
Mof_N 	N 	0.179	0.7636	0.022	-0.173
Mof_H 	H 	0.2109	0.7857	0.0339	0.1
Mof_H 	H 	0.2011	0.7451	0.0023	0.073
Mof_N 	N 	0.1842	0.7437	0.0413	-0.196
Mof_H 	H 	0.2167	0.7594	0.0591	0.103
Mof_H 	H 	0.207	0.7262	0.0211	0.125
Mof_C 	C 	0.0592	0.7748	0.0775	-0.059
Mof_H 	H 	0.0957	0.7887	0.0981	0.052
Mof_C 	C 	0.0966	0.7465	0.0449	0.056
Mof_C 	C 	0.9491	0.7295	0.0223	-0.003
Mof_H 	H 	0.9117	0.7136	0.0033	0.035
Mof_C 	C 	0.9134	0.7591	0.0537	-0.023
Mof_H 	H 	0.8538	0.7628	0.0566	0.038
Mof_O 	O 	0.3592	0.3187	0.1234	-0.51
Mof_O 	O 	0.4917	0.3398	0.1395	-0.475
Mof_O 	O 	0.5149	0.1646	0.9599	-0.504
Mof_O 	O 	0.6486	0.1823	0.976	-0.549
Mof_C 	C 	0.4389	0.3154	0.1166	0.299
Mof_C 	C 	0.4725	0.2834	0.0812	-0.019
Mof_C 	C 	0.5576	0.2884	0.0672	-0.047
Mof_H 	H 	0.5928	0.3123	0.0792	0.056
Mof_C 	C 	0.5902	0.2577	0.0352	0.082
Mof_C 	C 	0.5377	0.222	0.0173	-0.118
Mof_C 	C 	0.4525	0.217	0.0313	0.007
Mof_H 	H 	0.4173	0.1931	0.0194	0.026
Mof_C 	C 	0.4199	0.2477	0.0633	-0.03
Mof_H 	H 	0.3629	0.2444	0.0727	0.039
Mof_C 	C 	0.5685	0.1884	0.9825	0.347
Mof_N 	N 	0.679	0.2636	0.022	-0.173
Mof_H 	H 	0.7109	0.2857	0.0339	0.1
Mof_H 	H 	0.7011	0.2451	0.0023	0.073
Mof_N 	N 	0.6842	0.2437	0.0413	-0.196
Mof_H 	H 	0.7167	0.2594	0.0591	0.103
Mof_H 	H 	0.707	0.2262	0.0211	0.125
Mof_C 	C 	0.5592	0.2748	0.0775	-0.059
Mof_H 	H 	0.5957	0.2887	0.0981	0.052
Mof_C 	C 	0.5966	0.2465	0.0449	0.056
Mof_C 	C 	0.4491	0.2295	0.0223	-0.003
Mof_H 	H 	0.4117	0.2136	0.0033	0.035
Mof_C 	C 	0.4134	0.2591	0.0537	-0.023
Mof_H 	H 	0.3538	0.2628	0.0566	0.038
Mof_O 	O 	0.3592	0.8187	0.6234	-0.51
Mof_O 	O 	0.4917	0.8398	0.6395	-0.475
Mof_O 	O 	0.5149	0.6646	0.4599	-0.504
Mof_O 	O 	0.6486	0.6823	0.476	-0.549
Mof_C 	C 	0.4389	0.8154	0.6166	0.299
Mof_C 	C 	0.4725	0.7834	0.5812	-0.019
Mof_C 	C 	0.5576	0.7884	0.5672	-0.047
Mof_H 	H 	0.5928	0.8123	0.5792	0.056
Mof_C 	C 	0.5902	0.7577	0.5352	0.082
Mof_C 	C 	0.5377	0.722	0.5173	-0.118
Mof_C 	C 	0.4525	0.717	0.5313	0.007
Mof_H 	H 	0.4173	0.6931	0.5194	0.026
Mof_C 	C 	0.4199	0.7477	0.5633	-0.03
Mof_H 	H 	0.3629	0.7444	0.5727	0.039
Mof_C 	C 	0.5685	0.6884	0.4825	0.347
Mof_N 	N 	0.679	0.7636	0.522	-0.173
Mof_H 	H 	0.7109	0.7857	0.5339	0.1
Mof_H 	H 	0.7011	0.7451	0.5023	0.073
Mof_N 	N 	0.6842	0.7437	0.5413	-0.196
Mof_H 	H 	0.7167	0.7594	0.5591	0.103
Mof_H 	H 	0.707	0.7262	0.5211	0.125
Mof_C 	C 	0.5592	0.7748	0.5775	-0.059
Mof_H 	H 	0.5957	0.7887	0.5981	0.052
Mof_C 	C 	0.5966	0.7465	0.5449	0.056
Mof_C 	C 	0.4491	0.7295	0.5223	-0.003
Mof_H 	H 	0.4117	0.7136	0.5033	0.035
Mof_C 	C 	0.4134	0.7591	0.5537	-0.023
Mof_H 	H 	0.3538	0.7628	0.5566	0.038
Mof_O 	O 	0.1408	0.5687	0.8734	-0.51
Mof_O 	O 	0.0083	0.5898	0.8895	-0.476
Mof_O 	O 	0.9851	0.4146	0.7099	-0.505
Mof_O 	O 	0.8514	0.4323	0.726	-0.549
Mof_C 	C 	0.0611	0.5654	0.8666	0.299
Mof_C 	C 	0.0275	0.5334	0.8312	-0.019
Mof_C 	C 	0.9424	0.5384	0.8172	-0.047
Mof_H 	H 	0.9072	0.5623	0.8292	0.056
Mof_C 	C 	0.9098	0.5077	0.7852	0.082
Mof_C 	C 	0.9623	0.472	0.7673	-0.118
Mof_C 	C 	0.0475	0.467	0.7813	0.007
Mof_H 	H 	0.0827	0.4431	0.7694	0.026
Mof_C 	C 	0.0801	0.4977	0.8133	-0.03
Mof_H 	H 	0.1371	0.4944	0.8227	0.039
Mof_C 	C 	0.9315	0.4384	0.7325	0.347
Mof_N 	N 	0.821	0.5136	0.772	-0.173
Mof_H 	H 	0.7891	0.5357	0.7839	0.1
Mof_H 	H 	0.7989	0.4951	0.7523	0.073
Mof_N 	N 	0.8158	0.4937	0.7913	-0.196
Mof_H 	H 	0.7833	0.5094	0.8091	0.103
Mof_H 	H 	0.793	0.4762	0.7711	0.125
Mof_C 	C 	0.9408	0.5248	0.8275	-0.059
Mof_H 	H 	0.9043	0.5387	0.8481	0.052
Mof_C 	C 	0.9034	0.4965	0.7949	0.056
Mof_C 	C 	0.0509	0.4795	0.7723	-0.003
Mof_H 	H 	0.0883	0.4636	0.7533	0.035
Mof_C 	C 	0.0866	0.5091	0.8037	-0.023
Mof_H 	H 	0.1462	0.5128	0.8066	0.038
Mof_O 	O 	0.1408	0.0687	0.3734	-0.51
Mof_O 	O 	0.0083	0.0898	0.3895	-0.475
Mof_O 	O 	0.9851	0.9146	0.2099	-0.505
Mof_O 	O 	0.8514	0.9323	0.226	-0.549
Mof_C 	C 	0.0611	0.0654	0.3666	0.299
Mof_C 	C 	0.0275	0.0334	0.3312	-0.019
Mof_C 	C 	0.9424	0.0384	0.3172	-0.047
Mof_H 	H 	0.9072	0.0623	0.3292	0.056
Mof_C 	C 	0.9098	0.0077	0.2852	0.083
Mof_C 	C 	0.9623	0.972	0.2673	-0.118
Mof_C 	C 	0.0475	0.967	0.2813	0.007
Mof_H 	H 	0.0827	0.9431	0.2694	0.026
Mof_C 	C 	0.0801	0.9977	0.3133	-0.029
Mof_H 	H 	0.1371	0.9944	0.3227	0.038
Mof_C 	C 	0.9315	0.9384	0.2325	0.347
Mof_N 	N 	0.821	0.0136	0.272	-0.174
Mof_H 	H 	0.7891	0.0357	0.2839	0.1
Mof_H 	H 	0.7989	0.9951	0.2523	0.074
Mof_N 	N 	0.8158	0.9937	0.2913	-0.195
Mof_H 	H 	0.7833	0.0094	0.3091	0.102
Mof_H 	H 	0.793	0.9762	0.2711	0.125
Mof_C 	C 	0.9408	0.0248	0.3275	-0.059
Mof_H 	H 	0.9043	0.0387	0.3481	0.052
Mof_C 	C 	0.9034	0.9965	0.2949	0.055
Mof_C 	C 	0.0509	0.9795	0.2723	-0.003
Mof_H 	H 	0.0883	0.9636	0.2533	0.035
Mof_C 	C 	0.0866	0.0091	0.3037	-0.024
Mof_H 	H 	0.1462	0.0128	0.3066	0.038
Mof_O 	O 	0.6408	0.5687	0.3734	-0.51
Mof_O 	O 	0.5083	0.5898	0.3895	-0.475
Mof_O 	O 	0.4851	0.4146	0.2099	-0.504
Mof_O 	O 	0.3514	0.4323	0.226	-0.549
Mof_C 	C 	0.5611	0.5654	0.3666	0.299
Mof_C 	C 	0.5275	0.5334	0.3312	-0.019
Mof_C 	C 	0.4424	0.5384	0.3172	-0.047
Mof_H 	H 	0.4072	0.5623	0.3292	0.056
Mof_C 	C 	0.4098	0.5077	0.2852	0.082
Mof_C 	C 	0.4623	0.472	0.2673	-0.118
Mof_C 	C 	0.5475	0.467	0.2813	0.007
Mof_H 	H 	0.5827	0.4431	0.2694	0.026
Mof_C 	C 	0.5801	0.4977	0.3133	-0.03
Mof_H 	H 	0.6371	0.4944	0.3227	0.039
Mof_C 	C 	0.4315	0.4384	0.2325	0.347
Mof_N 	N 	0.321	0.5136	0.272	-0.173
Mof_H 	H 	0.2891	0.5357	0.2839	0.1
Mof_H 	H 	0.2989	0.4951	0.2523	0.073
Mof_N 	N 	0.3158	0.4937	0.2913	-0.196
Mof_H 	H 	0.2833	0.5094	0.3091	0.103
Mof_H 	H 	0.293	0.4762	0.2711	0.125
Mof_C 	C 	0.4408	0.5248	0.3275	-0.059
Mof_H 	H 	0.4043	0.5387	0.3481	0.052
Mof_C 	C 	0.4034	0.4965	0.2949	0.056
Mof_C 	C 	0.5509	0.4795	0.2723	-0.003
Mof_H 	H 	0.5883	0.4636	0.2533	0.035
Mof_C 	C 	0.5866	0.5091	0.3037	-0.023
Mof_H 	H 	0.6462	0.5128	0.3066	0.038
Mof_O 	O 	0.6408	0.0687	0.8734	-0.51
Mof_O 	O 	0.5083	0.0898	0.8895	-0.475
Mof_O 	O 	0.4851	0.9146	0.7099	-0.504
Mof_O 	O 	0.3514	0.9323	0.726	-0.549
Mof_C 	C 	0.5611	0.0654	0.8666	0.299
Mof_C 	C 	0.5275	0.0334	0.8312	-0.019
Mof_C 	C 	0.4424	0.0384	0.8172	-0.047
Mof_H 	H 	0.4072	0.0623	0.8292	0.056
Mof_C 	C 	0.4098	0.0077	0.7852	0.082
Mof_C 	C 	0.4623	0.972	0.7673	-0.118
Mof_C 	C 	0.5475	0.967	0.7813	0.007
Mof_H 	H 	0.5827	0.9431	0.7694	0.026
Mof_C 	C 	0.5801	0.9977	0.8133	-0.03
Mof_H 	H 	0.6371	0.9944	0.8227	0.039
Mof_C 	C 	0.4315	0.9384	0.7325	0.347
Mof_N 	N 	0.321	0.0136	0.772	-0.173
Mof_H 	H 	0.2891	0.0357	0.7839	0.099
Mof_H 	H 	0.2989	0.9951	0.7523	0.073
Mof_N 	N 	0.3158	0.9937	0.7913	-0.196
Mof_H 	H 	0.2833	0.0094	0.8091	0.103
Mof_H 	H 	0.293	0.9762	0.7711	0.125
Mof_C 	C 	0.4408	0.0248	0.8275	-0.059
Mof_H 	H 	0.4043	0.0387	0.8481	0.052
Mof_C 	C 	0.4034	0.9965	0.7949	0.057
Mof_C 	C 	0.5509	0.9795	0.7723	-0.003
Mof_H 	H 	0.5883	0.9636	0.7533	0.035
Mof_C 	C 	0.5866	0.0091	0.8037	-0.023
Mof_H 	H 	0.6462	0.0128	0.8066	0.038
Mof_O 	O 	0.1092	0.6813	0.8734	-0.51
Mof_O 	O 	0.2417	0.6602	0.8895	-0.475
Mof_O 	O 	0.2649	0.8354	0.7099	-0.505
Mof_O 	O 	0.3986	0.8177	0.726	-0.549
Mof_C 	C 	0.1889	0.6846	0.8666	0.299
Mof_C 	C 	0.2225	0.7166	0.8312	-0.019
Mof_C 	C 	0.3076	0.7116	0.8172	-0.047
Mof_H 	H 	0.3428	0.6877	0.8292	0.056
Mof_C 	C 	0.3402	0.7423	0.7852	0.082
Mof_C 	C 	0.2877	0.778	0.7673	-0.118
Mof_C 	C 	0.2025	0.783	0.7813	0.007
Mof_H 	H 	0.1673	0.8069	0.7694	0.026
Mof_C 	C 	0.1699	0.7523	0.8133	-0.03
Mof_H 	H 	0.1129	0.7556	0.8227	0.039
Mof_C 	C 	0.3185	0.8116	0.7325	0.347
Mof_N 	N 	0.429	0.7364	0.772	-0.173
Mof_H 	H 	0.4609	0.7143	0.7839	0.1
Mof_H 	H 	0.4511	0.7549	0.7523	0.073
Mof_N 	N 	0.4342	0.7563	0.7913	-0.196
Mof_H 	H 	0.4667	0.7406	0.8091	0.103
Mof_H 	H 	0.457	0.7738	0.7711	0.125
Mof_C 	C 	0.3092	0.7252	0.8275	-0.059
Mof_H 	H 	0.3457	0.7113	0.8481	0.052
Mof_C 	C 	0.3466	0.7535	0.7949	0.056
Mof_C 	C 	0.1991	0.7705	0.7723	-0.003
Mof_H 	H 	0.1617	0.7864	0.7533	0.035
Mof_C 	C 	0.1634	0.7409	0.8037	-0.023
Mof_H 	H 	0.1038	0.7372	0.8066	0.038
Mof_O 	O 	0.1092	0.1813	0.3734	-0.51
Mof_O 	O 	0.2417	0.1602	0.3895	-0.475
Mof_O 	O 	0.2649	0.3354	0.2099	-0.505
Mof_O 	O 	0.3986	0.3177	0.226	-0.549
Mof_C 	C 	0.1889	0.1846	0.3666	0.299
Mof_C 	C 	0.2225	0.2166	0.3312	-0.019
Mof_C 	C 	0.3076	0.2116	0.3172	-0.047
Mof_H 	H 	0.3428	0.1877	0.3292	0.056
Mof_C 	C 	0.3402	0.2423	0.2852	0.082
Mof_C 	C 	0.2877	0.278	0.2673	-0.118
Mof_C 	C 	0.2025	0.283	0.2813	0.007
Mof_H 	H 	0.1673	0.3069	0.2694	0.026
Mof_C 	C 	0.1699	0.2523	0.3133	-0.03
Mof_H 	H 	0.1129	0.2556	0.3227	0.039
Mof_C 	C 	0.3185	0.3116	0.2325	0.347
Mof_N 	N 	0.429	0.2364	0.272	-0.173
Mof_H 	H 	0.4609	0.2143	0.2839	0.1
Mof_H 	H 	0.4511	0.2549	0.2523	0.073
Mof_N 	N 	0.4342	0.2563	0.2913	-0.196
Mof_H 	H 	0.4667	0.2406	0.3091	0.103
Mof_H 	H 	0.457	0.2738	0.2711	0.125
Mof_C 	C 	0.3092	0.2252	0.3275	-0.059
Mof_H 	H 	0.3457	0.2113	0.3481	0.052
Mof_C 	C 	0.3466	0.2535	0.2949	0.056
Mof_C 	C 	0.1991	0.2705	0.2723	-0.003
Mof_H 	H 	0.1617	0.2864	0.2533	0.035
Mof_C 	C 	0.1634	0.2409	0.3037	-0.023
Mof_H 	H 	0.1038	0.2372	0.3066	0.038
Mof_O 	O 	0.6092	0.6813	0.3734	-0.51
Mof_O 	O 	0.7417	0.6602	0.3895	-0.475
Mof_O 	O 	0.7649	0.8354	0.2099	-0.504
Mof_O 	O 	0.8986	0.8177	0.226	-0.549
Mof_C 	C 	0.6889	0.6846	0.3666	0.299
Mof_C 	C 	0.7225	0.7166	0.3312	-0.019
Mof_C 	C 	0.8076	0.7116	0.3172	-0.047
Mof_H 	H 	0.8428	0.6877	0.3292	0.056
Mof_C 	C 	0.8402	0.7423	0.2852	0.082
Mof_C 	C 	0.7877	0.778	0.2673	-0.118
Mof_C 	C 	0.7025	0.783	0.2813	0.007
Mof_H 	H 	0.6673	0.8069	0.2694	0.026
Mof_C 	C 	0.6699	0.7523	0.3133	-0.03
Mof_H 	H 	0.6129	0.7556	0.3227	0.039
Mof_C 	C 	0.8185	0.8116	0.2325	0.347
Mof_N 	N 	0.929	0.7364	0.272	-0.173
Mof_H 	H 	0.9609	0.7143	0.2839	0.1
Mof_H 	H 	0.9511	0.7549	0.2523	0.073
Mof_N 	N 	0.9342	0.7563	0.2913	-0.196
Mof_H 	H 	0.9667	0.7406	0.3091	0.103
Mof_H 	H 	0.957	0.7738	0.2711	0.125
Mof_C 	C 	0.8092	0.7252	0.3275	-0.059
Mof_H 	H 	0.8457	0.7113	0.3481	0.052
Mof_C 	C 	0.8466	0.7535	0.2949	0.056
Mof_C 	C 	0.6991	0.7705	0.2723	-0.003
Mof_H 	H 	0.6617	0.7864	0.2533	0.035
Mof_C 	C 	0.6634	0.7409	0.3037	-0.023
Mof_H 	H 	0.6038	0.7372	0.3066	0.038
Mof_O 	O 	0.6092	0.1813	0.8734	-0.51
Mof_O 	O 	0.7417	0.1602	0.8895	-0.476
Mof_O 	O 	0.7649	0.3354	0.7099	-0.504
Mof_O 	O 	0.8986	0.3177	0.726	-0.549
Mof_C 	C 	0.6889	0.1846	0.8666	0.299
Mof_C 	C 	0.7225	0.2166	0.8312	-0.019
Mof_C 	C 	0.8076	0.2116	0.8172	-0.047
Mof_H 	H 	0.8428	0.1877	0.8292	0.056
Mof_C 	C 	0.8402	0.2423	0.7852	0.082
Mof_C 	C 	0.7877	0.278	0.7673	-0.118
Mof_C 	C 	0.7025	0.283	0.7813	0.007
Mof_H 	H 	0.6673	0.3069	0.7694	0.026
Mof_C 	C 	0.6699	0.2523	0.8133	-0.03
Mof_H 	H 	0.6129	0.2556	0.8227	0.039
Mof_C 	C 	0.8185	0.3116	0.7325	0.347
Mof_N 	N 	0.929	0.2364	0.772	-0.173
Mof_H 	H 	0.9609	0.2143	0.7839	0.099
Mof_H 	H 	0.9511	0.2549	0.7523	0.073
Mof_N 	N 	0.9342	0.2563	0.7913	-0.196
Mof_H 	H 	0.9667	0.2406	0.8091	0.103
Mof_H 	H 	0.957	0.2738	0.7711	0.125
Mof_C 	C 	0.8092	0.2252	0.8275	-0.059
Mof_H 	H 	0.8457	0.2113	0.8481	0.052
Mof_C 	C 	0.8466	0.2535	0.7949	0.056
Mof_C 	C 	0.6991	0.2705	0.7723	-0.003
Mof_H 	H 	0.6617	0.2864	0.7533	0.035
Mof_C 	C 	0.6634	0.2409	0.8037	-0.023
Mof_H 	H 	0.6038	0.2372	0.8066	0.038
Mof_In	In	0.875	0.375	0.67582	2.541
Mof_In	In	0.875	0.875	0.17582	2.541
Mof_In	In	0.375	0.375	0.17582	2.541
Mof_In	In	0.375	0.875	0.67582	2.541
Mof_In	In	0.125	0.625	0.92582	2.541
Mof_In	In	0.125	0.125	0.42582	2.541
Mof_In	In	0.625	0.625	0.42582	2.541
Mof_In	In	0.625	0.125	0.92582	2.541
_end
