data_functionalizedCrystal
_audit_creation_method	'EQeq! by Chris Wilmer'
_symmetry_space_group_name_H-M	'P1'
_symmetry_Int_Tables_number	1
_symmetry_cell_setting	triclinic
loop_
_symmetry_equiv_pos_as_xyz
  x,y,z
_cell_length_a	12.816
_cell_length_b	18.3929
_cell_length_c	24.816
_cell_angle_alpha	90
_cell_angle_beta	90
_cell_angle_gamma	110.389
loop_
_atom_site_label
_atom_site_type_symbol
_atom_site_fract_x
_atom_site_fract_y
_atom_site_fract_z
_atom_site_charge
Mof_Gd	Gd	0.23105	0.77008	0.78572	1.753
Mof_Gd	Gd	0.76895	0.22992	0.28572	1.753
Mof_Gd	Gd	0.53903	0.77008	0.71428	1.753
Mof_Gd	Gd	0.46097	0.22992	0.21428	1.752
Mof_H 	H 	0.0737	0.8902	0.765	-0.018
Mof_H 	H 	0.0427	0.9978	0.8001	0.116
Mof_H 	H 	0.1434	0.0616	0.8743	0.036
Mof_H 	H 	0.275	0.0178	0.9135	0.075
Mof_H 	H 	0.306	0.9102	0.8783	0.01
Mof_H 	H 	0.0697	0.548	0.9035	0.092
Mof_H 	H 	0.0646	0.7946	0.935	0.147
Mof_H 	H 	0.9163	0.7818	0.0789	0.123
Mof_H 	H 	0.9034	0.6544	0.0881	0.026
Mof_H 	H 	0.9882	0.4214	0.9084	-0.1
Mof_H 	H 	0.0994	0.4316	0.9397	-0.089
Mof_H 	H 	0.995	0.298	0.9303	0.317
Mof_H 	H 	0.0052	0.3202	0.9916	0.329
Mof_H 	H 	0.8946	0.31	0.9603	0.319
Mof_H 	H 	0.6798	0.3696	0.0923	0.073
Mof_H 	H 	0.9215	0.439	0.2401	0.154
Mof_H 	H 	0.1805	0.6196	0.1863	0.127
Mof_H 	H 	0.0943	0.6172	0.1061	-0.007
Mof_H 	H 	0.7244	0.3444	0.0004	-0.137
Mof_H 	H 	0.618	0.368	0.9947	-0.137
Mof_H 	H 	0.6724	0.3392	0.9098	0.349
Mof_H 	H 	0.6837	0.4268	0.9119	0.383
Mof_H 	H 	0.7897	0.4034	0.9176	0.39
Mof_H 	H 	0.4071	0.8404	0.9088	0.081
Mof_H 	H 	0.7123	0.9808	0.8032	0.159
Mof_H 	H 	0.9066	0.1418	0.9035	0.13
Mof_H 	H 	0.786	0.0934	0.9732	0.022
Mof_H 	H 	0.2795	0.8374	0.9779	-0.293
Mof_H 	H 	0.3481	0.7834	0.9906	-0.307
Mof_H 	H 	0.2091	0.7634	0.0517	0.587
Mof_H 	H 	0.3247	0.7976	0.0806	0.573
Mof_H 	H 	0.2559	0.8512	0.0678	0.59
Mof_H 	H 	0.9263	0.1098	0.265	-0.018
Mof_H 	H 	0.9573	0.0022	0.3001	0.117
Mof_H 	H 	0.8566	0.9384	0.3743	0.036
Mof_H 	H 	0.725	0.9822	0.4135	0.076
Mof_H 	H 	0.694	0.0898	0.3783	0.009
Mof_H 	H 	0.9303	0.452	0.4035	0.092
Mof_H 	H 	0.9354	0.2054	0.435	0.147
Mof_H 	H 	0.0837	0.2182	0.5789	0.123
Mof_H 	H 	0.0966	0.3456	0.5881	0.026
Mof_H 	H 	0.0118	0.5786	0.4084	-0.099
Mof_H 	H 	0.9006	0.5684	0.4397	-0.088
Mof_H 	H 	0.005	0.702	0.4303	0.316
Mof_H 	H 	0.9948	0.6798	0.4916	0.328
Mof_H 	H 	0.1054	0.69	0.4603	0.318
Mof_H 	H 	0.3202	0.6304	0.5923	0.073
Mof_H 	H 	0.0785	0.561	0.7401	0.154
Mof_H 	H 	0.8195	0.3804	0.6863	0.126
Mof_H 	H 	0.9057	0.3828	0.6061	-0.007
Mof_H 	H 	0.2756	0.6556	0.5004	-0.137
Mof_H 	H 	0.382	0.632	0.4947	-0.138
Mof_H 	H 	0.3276	0.6608	0.4098	0.349
Mof_H 	H 	0.3163	0.5732	0.4119	0.383
Mof_H 	H 	0.2103	0.5966	0.4176	0.39
Mof_H 	H 	0.5929	0.1596	0.4088	0.082
Mof_H 	H 	0.2877	0.0192	0.3032	0.158
Mof_H 	H 	0.0934	0.8582	0.4035	0.129
Mof_H 	H 	0.214	0.9066	0.4732	0.023
Mof_H 	H 	0.7205	0.1626	0.4779	-0.294
Mof_H 	H 	0.6519	0.2166	0.4906	-0.308
Mof_H 	H 	0.7909	0.2366	0.5517	0.588
Mof_H 	H 	0.6753	0.2024	0.5806	0.574
Mof_H 	H 	0.7441	0.1488	0.5678	0.592
Mof_H 	H 	0.8165	0.8902	0.735	-0.018
Mof_H 	H 	0.9551	0.9978	0.6999	0.116
Mof_H 	H 	0.9182	0.0616	0.6257	0.036
Mof_H 	H 	0.7428	0.0178	0.5865	0.076
Mof_H 	H 	0.6042	0.9102	0.6217	0.01
Mof_H 	H 	0.4783	0.548	0.5965	0.093
Mof_H 	H 	0.73	0.7946	0.565	0.147
Mof_H 	H 	0.8655	0.7818	0.4211	0.123
Mof_H 	H 	0.751	0.6544	0.4119	0.026
Mof_H 	H 	0.4332	0.4214	0.5916	-0.102
Mof_H 	H 	0.3322	0.4316	0.5603	-0.09
Mof_H 	H 	0.303	0.298	0.5697	0.32
Mof_H 	H 	0.315	0.3202	0.5084	0.332
Mof_H 	H 	0.4154	0.31	0.5397	0.322
Mof_H 	H 	0.6898	0.3696	0.4077	0.073
Mof_H 	H 	0.5175	0.439	0.2599	0.154
Mof_H 	H 	0.4391	0.6196	0.3137	0.127
Mof_H 	H 	0.5229	0.6172	0.3939	-0.007
Mof_H 	H 	0.62	0.3444	0.4996	-0.137
Mof_H 	H 	0.75	0.368	0.5053	-0.138
Mof_H 	H 	0.6668	0.3392	0.5902	0.349
Mof_H 	H 	0.7431	0.4268	0.5881	0.383
Mof_H 	H 	0.6137	0.4034	0.5824	0.39
Mof_H 	H 	0.4333	0.8404	0.5912	0.082
Mof_H 	H 	0.2685	0.9808	0.6968	0.158
Mof_H 	H 	0.2352	0.1418	0.5965	0.129
Mof_H 	H 	0.3074	0.0934	0.5268	0.023
Mof_H 	H 	0.5579	0.8374	0.5221	-0.294
Mof_H 	H 	0.4353	0.7834	0.5094	-0.308
Mof_H 	H 	0.5543	0.7634	0.4483	0.588
Mof_H 	H 	0.4729	0.7976	0.4194	0.574
Mof_H 	H 	0.5953	0.8512	0.4322	0.592
Mof_H 	H 	0.1835	0.1098	0.235	-0.017
Mof_H 	H 	0.0449	0.0022	0.1999	0.116
Mof_H 	H 	0.0818	0.9384	0.1257	0.037
Mof_H 	H 	0.2572	0.9822	0.0865	0.075
Mof_H 	H 	0.3958	0.0898	0.1217	0.01
Mof_H 	H 	0.5217	0.452	0.0965	0.093
Mof_H 	H 	0.27	0.2054	0.065	0.147
Mof_H 	H 	0.1345	0.2182	0.9211	0.123
Mof_H 	H 	0.249	0.3456	0.9119	0.026
Mof_H 	H 	0.5668	0.5786	0.0916	-0.102
Mof_H 	H 	0.6678	0.5684	0.0603	-0.09
Mof_H 	H 	0.697	0.702	0.0697	0.32
Mof_H 	H 	0.685	0.6798	0.0084	0.332
Mof_H 	H 	0.5846	0.69	0.0397	0.322
Mof_H 	H 	0.3102	0.6304	0.9077	0.073
Mof_H 	H 	0.4825	0.561	0.7599	0.154
Mof_H 	H 	0.5609	0.3804	0.8137	0.127
Mof_H 	H 	0.4771	0.3828	0.8939	-0.007
Mof_H 	H 	0.38	0.6556	0.9996	-0.137
Mof_H 	H 	0.25	0.632	0.0053	-0.137
Mof_H 	H 	0.3332	0.6608	0.0902	0.349
Mof_H 	H 	0.2569	0.5732	0.0881	0.383
Mof_H 	H 	0.3863	0.5966	0.0824	0.39
Mof_H 	H 	0.5667	0.1596	0.0912	0.081
Mof_H 	H 	0.7315	0.0192	0.1968	0.159
Mof_H 	H 	0.7648	0.8582	0.0965	0.129
Mof_H 	H 	0.6926	0.9066	0.0268	0.022
Mof_H 	H 	0.4421	0.1626	0.0221	-0.293
Mof_H 	H 	0.5647	0.2166	0.0094	-0.306
Mof_H 	H 	0.4457	0.2366	0.9483	0.586
Mof_H 	H 	0.5271	0.2024	0.9194	0.573
Mof_H 	H 	0.4047	0.1488	0.9322	0.59
Mof_C 	C 	0.1141	0.9158	0.7947	0.09
Mof_C 	C 	0.0955	0.9802	0.8158	-0.13
Mof_C 	C 	0.1557	0.0184	0.8603	0.067
Mof_C 	C 	0.2346	0.9922	0.8837	-0.119
Mof_C 	C 	0.2532	0.9278	0.8626	0.082
Mof_C 	C 	0.96393	0.56506	0.0203	-0.021
Mof_C 	C 	0.00086	0.53072	0.9786	0.167
Mof_C 	C 	0.04805	0.5727	0.9318	-0.101
Mof_C 	C 	0.06215	0.6505	0.9279	-0.068
Mof_C 	C 	0.02575	0.6879	0.9694	0.104
Mof_C 	C 	0.03251	0.76582	0.9653	-0.237
Mof_C 	C 	0.99193	0.79946	0.0059	0.254
Mof_C 	C 	0.94329	0.75798	0.0519	-0.222
Mof_C 	C 	0.93527	0.68174	0.0572	0.037
Mof_C 	C 	0.97525	0.6443	0.0161	-0.051
Mof_C 	C 	0.1179	0.6932	0.8778	0.318
Mof_C 	C 	0.0188	0.4132	0.9426	0.451
Mof_C 	C 	0.9743	0.3274	0.9576	-0.941
Mof_C 	C 	0.90654	0.51588	0.0672	-0.005
Mof_C 	C 	0.80295	0.4595	0.0584	0.155
Mof_C 	C 	0.74952	0.40644	0.0991	-0.065
Mof_C 	C 	0.79721	0.40762	0.1479	-0.13
Mof_C 	C 	0.902	0.4658	0.1603	0.137
Mof_C 	C 	0.95541	0.47302	0.2124	-0.251
Mof_C 	C 	0.0556	0.53	0.2205	0.289
Mof_C 	C 	0.1104	0.5828	0.18	-0.231
Mof_C 	C 	0.06	0.5796	0.1317	0.068
Mof_C 	C 	0.95556	0.52052	0.1184	-0.062
Mof_C 	C 	0.73818	0.34376	0.1875	0.46
Mof_C 	C 	0.6964	0.383	0.9858	0.574
Mof_C 	C 	0.712	0.3886	0.9259	-1.113
Mof_C 	C 	0.5917	0.9798	0.9733	-0.019
Mof_C 	C 	0.4965	0.9178	0.9649	0.208
Mof_C 	C 	0.4725	0.8824	0.914	-0.093
Mof_C 	C 	0.54541	0.90942	0.8717	-0.143
Mof_C 	C 	0.6467	0.9712	0.8794	0.15
Mof_C 	C 	0.725	0.0018	0.8377	-0.274
Mof_C 	C 	0.8182	0.0618	0.8488	0.289
Mof_C 	C 	0.8423	0.099	0.8985	-0.224
Mof_C 	C 	0.7692	0.0708	0.9393	0.076
Mof_C 	C 	0.6666	0.0072	0.9318	-0.055
Mof_C 	C 	0.5091	0.8682	0.8189	0.476
Mof_C 	C 	0.3295	0.827	0.0037	1.13
Mof_C 	C 	0.2753	0.8082	0.0552	-1.83
Mof_C 	C 	0.8859	0.0842	0.2947	0.091
Mof_C 	C 	0.9045	0.0198	0.3158	-0.131
Mof_C 	C 	0.8443	0.9816	0.3603	0.069
Mof_C 	C 	0.7654	0.0078	0.3837	-0.121
Mof_C 	C 	0.7468	0.0722	0.3626	0.083
Mof_C 	C 	0.03607	0.43494	0.5203	-0.02
Mof_C 	C 	0.99914	0.46928	0.4786	0.167
Mof_C 	C 	0.95195	0.4273	0.4318	-0.101
Mof_C 	C 	0.93785	0.3495	0.4279	-0.068
Mof_C 	C 	0.97425	0.3121	0.4694	0.104
Mof_C 	C 	0.96749	0.23418	0.4653	-0.238
Mof_C 	C 	0.00807	0.20054	0.5059	0.255
Mof_C 	C 	0.05671	0.24202	0.5519	-0.223
Mof_C 	C 	0.06473	0.31826	0.5572	0.038
Mof_C 	C 	0.02475	0.3557	0.5161	-0.051
Mof_C 	C 	0.8821	0.3068	0.3778	0.318
Mof_C 	C 	0.9812	0.5868	0.4426	0.449
Mof_C 	C 	0.0257	0.6726	0.4576	-0.937
Mof_C 	C 	0.09346	0.48412	0.5672	-0.005
Mof_C 	C 	0.19705	0.5405	0.5584	0.155
Mof_C 	C 	0.25048	0.59356	0.5991	-0.066
Mof_C 	C 	0.20279	0.59238	0.6479	-0.13
Mof_C 	C 	0.098	0.5342	0.6603	0.136
Mof_C 	C 	0.04459	0.52698	0.7124	-0.25
Mof_C 	C 	0.9444	0.47	0.7205	0.289
Mof_C 	C 	0.8896	0.4172	0.68	-0.23
Mof_C 	C 	0.94	0.4204	0.6317	0.067
Mof_C 	C 	0.04444	0.47948	0.6184	-0.061
Mof_C 	C 	0.26182	0.65624	0.6875	0.46
Mof_C 	C 	0.3036	0.617	0.4858	0.574
Mof_C 	C 	0.288	0.6114	0.4259	-1.113
Mof_C 	C 	0.4083	0.0202	0.4733	-0.019
Mof_C 	C 	0.5035	0.0822	0.4649	0.209
Mof_C 	C 	0.5275	0.1176	0.414	-0.094
Mof_C 	C 	0.45459	0.09058	0.3717	-0.142
Mof_C 	C 	0.3533	0.0288	0.3794	0.149
Mof_C 	C 	0.275	0.9982	0.3377	-0.273
Mof_C 	C 	0.1818	0.9382	0.3488	0.288
Mof_C 	C 	0.1577	0.901	0.3985	-0.223
Mof_C 	C 	0.2308	0.9292	0.4393	0.075
Mof_C 	C 	0.3334	0.9928	0.4318	-0.054
Mof_C 	C 	0.4909	0.1318	0.3189	0.476
Mof_C 	C 	0.6705	0.173	0.5037	1.134
Mof_C 	C 	0.7247	0.1918	0.5552	-1.834
Mof_C 	C 	0.8017	0.9158	0.7053	0.091
Mof_C 	C 	0.8847	0.9802	0.6842	-0.13
Mof_C 	C 	0.8627	0.0184	0.6397	0.068
Mof_C 	C 	0.7576	0.9922	0.6163	-0.12
Mof_C 	C 	0.6746	0.9278	0.6374	0.083
Mof_C 	C 	0.60113	0.56506	0.4797	-0.022
Mof_C 	C 	0.52986	0.53072	0.5214	0.169
Mof_C 	C 	0.52465	0.5727	0.5682	-0.102
Mof_C 	C 	0.58835	0.6505	0.5721	-0.067
Mof_C 	C 	0.66215	0.6879	0.5306	0.104
Mof_C 	C 	0.73331	0.76582	0.5347	-0.237
Mof_C 	C 	0.80753	0.79946	0.4941	0.254
Mof_C 	C 	0.81469	0.75798	0.4481	-0.222
Mof_C 	C 	0.74647	0.68174	0.4428	0.037
Mof_C 	C 	0.66905	0.6443	0.4839	-0.051
Mof_C 	C 	0.5753	0.6932	0.6222	0.318
Mof_C 	C 	0.3944	0.4132	0.5574	0.458
Mof_C 	C 	0.3531	0.3274	0.5424	-0.949
Mof_C 	C 	0.60934	0.51588	0.4328	-0.004
Mof_C 	C 	0.65655	0.4595	0.4416	0.155
Mof_C 	C 	0.65692	0.40644	0.4009	-0.065
Mof_C 	C 	0.61041	0.40762	0.3521	-0.13
Mof_C 	C 	0.5638	0.4658	0.3397	0.137
Mof_C 	C 	0.51761	0.47302	0.2876	-0.251
Mof_C 	C 	0.4744	0.53	0.2795	0.289
Mof_C 	C 	0.4724	0.5828	0.32	-0.231
Mof_C 	C 	0.5196	0.5796	0.3683	0.069
Mof_C 	C 	0.56496	0.52052	0.3816	-0.062
Mof_C 	C 	0.60558	0.34376	0.3125	0.46
Mof_C 	C 	0.6866	0.383	0.5142	0.574
Mof_C 	C 	0.6766	0.3886	0.5741	-1.113
Mof_C 	C 	0.3881	0.9798	0.5267	-0.02
Mof_C 	C 	0.4213	0.9178	0.5351	0.209
Mof_C 	C 	0.4099	0.8824	0.586	-0.094
Mof_C 	C 	0.36401	0.90942	0.6283	-0.142
Mof_C 	C 	0.3245	0.9712	0.6206	0.148
Mof_C 	C 	0.2768	0.0018	0.6623	-0.272
Mof_C 	C 	0.2436	0.0618	0.6512	0.288
Mof_C 	C 	0.2567	0.099	0.6015	-0.223
Mof_C 	C 	0.3016	0.0708	0.5607	0.075
Mof_C 	C 	0.3406	0.0072	0.5682	-0.054
Mof_C 	C 	0.3591	0.8682	0.6811	0.475
Mof_C 	C 	0.4975	0.827	0.4963	1.134
Mof_C 	C 	0.5329	0.8082	0.4448	-1.835
Mof_C 	C 	0.1983	0.0842	0.2053	0.09
Mof_C 	C 	0.1153	0.0198	0.1842	-0.129
Mof_C 	C 	0.1373	0.9816	0.1397	0.067
Mof_C 	C 	0.2424	0.0078	0.1163	-0.118
Mof_C 	C 	0.3254	0.0722	0.1374	0.082
Mof_C 	C 	0.39887	0.43494	0.9797	-0.022
Mof_C 	C 	0.47014	0.46928	0.0214	0.169
Mof_C 	C 	0.47535	0.4273	0.0682	-0.102
Mof_C 	C 	0.41165	0.3495	0.0721	-0.067
Mof_C 	C 	0.33785	0.3121	0.0306	0.104
Mof_C 	C 	0.26669	0.23418	0.0347	-0.236
Mof_C 	C 	0.19247	0.20054	0.9941	0.253
Mof_C 	C 	0.18531	0.24202	0.9481	-0.222
Mof_C 	C 	0.25353	0.31826	0.9428	0.037
Mof_C 	C 	0.33095	0.3557	0.9839	-0.051
Mof_C 	C 	0.4247	0.3068	0.1222	0.318
Mof_C 	C 	0.6056	0.5868	0.0574	0.458
Mof_C 	C 	0.6469	0.6726	0.0424	-0.949
Mof_C 	C 	0.39066	0.48412	0.9328	-0.004
Mof_C 	C 	0.34345	0.5405	0.9416	0.155
Mof_C 	C 	0.34308	0.59356	0.9009	-0.065
Mof_C 	C 	0.38959	0.59238	0.8521	-0.13
Mof_C 	C 	0.4362	0.5342	0.8397	0.137
Mof_C 	C 	0.48239	0.52698	0.7876	-0.251
Mof_C 	C 	0.5256	0.47	0.7795	0.289
Mof_C 	C 	0.5276	0.4172	0.82	-0.231
Mof_C 	C 	0.4804	0.4204	0.8683	0.069
Mof_C 	C 	0.43504	0.47948	0.8816	-0.062
Mof_C 	C 	0.39442	0.65624	0.8125	0.46
Mof_C 	C 	0.3134	0.617	0.0142	0.574
Mof_C 	C 	0.3234	0.6114	0.0741	-1.113
Mof_C 	C 	0.6119	0.0202	0.0267	-0.019
Mof_C 	C 	0.5787	0.0822	0.0351	0.209
Mof_C 	C 	0.5901	0.1176	0.086	-0.094
Mof_C 	C 	0.63599	0.09058	0.1283	-0.142
Mof_C 	C 	0.6755	0.0288	0.1206	0.149
Mof_C 	C 	0.7232	0.9982	0.1623	-0.273
Mof_C 	C 	0.7564	0.9382	0.1512	0.288
Mof_C 	C 	0.7433	0.901	0.1015	-0.223
Mof_C 	C 	0.6984	0.9292	0.0607	0.076
Mof_C 	C 	0.6594	0.9928	0.0682	-0.055
Mof_C 	C 	0.6409	0.1318	0.1811	0.476
Mof_C 	C 	0.5025	0.173	0.9963	1.129
Mof_C 	C 	0.4671	0.1918	0.9448	-1.829
Mof_N 	N 	0.19288	0.88956	0.8182	-0.222
Mof_N 	N 	0.80712	0.11044	0.3182	-0.222
Mof_N 	N 	0.69668	0.88956	0.6818	-0.222
Mof_N 	N 	0.30332	0.11044	0.1818	-0.222
Mof_Cl	Cl	0.99581	0.89542	0.00022	-0.346
Mof_Cl	Cl	0.11974	0.53644	0.28393	-0.367
Mof_Cl	Cl	0.91557	0.10154	0.7965	-0.366
Mof_Cl	Cl	0.00419	0.10458	0.50022	-0.346
Mof_Cl	Cl	0.88026	0.46356	0.78393	-0.367
Mof_Cl	Cl	0.08443	0.89846	0.2965	-0.366
Mof_Cl	Cl	0.89961	0.89542	0.49978	-0.346
Mof_Cl	Cl	0.4167	0.53644	0.21607	-0.367
Mof_Cl	Cl	0.18597	0.10154	0.7035	-0.366
Mof_Cl	Cl	0.10039	0.10458	0.99978	-0.347
Mof_Cl	Cl	0.5833	0.46356	0.71607	-0.367
Mof_Cl	Cl	0.81403	0.89846	0.2035	-0.366
Mof_O 	O 	0.19503	0.75646	0.88242	-0.395
Mof_O 	O 	0.08369	0.66378	0.83261	-0.377
Mof_O 	O 	0.98533	0.45366	0.9849	-0.293
Mof_O 	O 	0.63453	0.32106	0.1875	-0.464
Mof_O 	O 	0.79817	0.31554	0.2149	-0.491
Mof_O 	O 	0.75727	0.45814	0.00803	-0.304
Mof_O 	O 	0.40656	0.84352	0.8099	-0.517
Mof_O 	O 	0.58062	0.85924	0.7882	-0.479
Mof_O 	O 	0.42588	0.89176	0.0082	-0.455
Mof_O 	O 	0.80497	0.24354	0.38242	-0.395
Mof_O 	O 	0.91631	0.33622	0.33261	-0.377
Mof_O 	O 	0.01467	0.54634	0.4849	-0.292
Mof_O 	O 	0.36547	0.67894	0.6875	-0.464
Mof_O 	O 	0.20183	0.68446	0.7149	-0.491
Mof_O 	O 	0.24273	0.54186	0.50803	-0.304
Mof_O 	O 	0.59344	0.15648	0.3099	-0.517
Mof_O 	O 	0.41938	0.14076	0.2882	-0.479
Mof_O 	O 	0.57412	0.10824	0.5082	-0.456
Mof_O 	O 	0.56143	0.75646	0.61758	-0.395
Mof_O 	O 	0.58009	0.66378	0.66739	-0.376
Mof_O 	O 	0.46833	0.45366	0.5151	-0.295
Mof_O 	O 	0.68653	0.32106	0.3125	-0.464
Mof_O 	O 	0.51737	0.31554	0.2851	-0.491
Mof_O 	O 	0.70087	0.45814	0.49197	-0.304
Mof_O 	O 	0.43696	0.84352	0.6901	-0.517
Mof_O 	O 	0.27862	0.85924	0.7118	-0.479
Mof_O 	O 	0.46588	0.89176	0.4918	-0.456
Mof_O 	O 	0.43857	0.24354	0.11758	-0.395
Mof_O 	O 	0.41991	0.33622	0.16739	-0.376
Mof_O 	O 	0.53167	0.54634	0.0151	-0.295
Mof_O 	O 	0.31347	0.67894	0.8125	-0.464
Mof_O 	O 	0.48263	0.68446	0.7851	-0.491
Mof_O 	O 	0.29913	0.54186	0.99197	-0.304
Mof_O 	O 	0.56304	0.15648	0.1901	-0.517
Mof_O 	O 	0.72138	0.14076	0.2118	-0.479
Mof_O 	O 	0.53412	0.10824	0.9918	-0.455
_end
