data_functionalizedCrystal
_audit_creation_method	'EQeq! by Chris Wilmer'
_symmetry_space_group_name_H-M	'P1'
_symmetry_Int_Tables_number	1
_symmetry_cell_setting	triclinic
loop_
_symmetry_equiv_pos_as_xyz
  x,y,z
_cell_length_a	24.085
_cell_length_b	14.393
_cell_length_c	8.7122
_cell_angle_alpha	90
_cell_angle_beta	94.26
_cell_angle_gamma	90
loop_
_atom_site_label
_atom_site_type_symbol
_atom_site_fract_x
_atom_site_fract_y
_atom_site_fract_z
_atom_site_charge
Mof_P 	P 	0.33817	0.73198	0.42986	3.927
Mof_P 	P 	0.32603	0.96913	0.9393	4.156
Mof_P 	P 	0.49158	0.17888	0.52626	7.545
Mof_Al	Al	0.27811	0.87641	0.62404	11.234
Mof_Al	Al	0.45019	0.62979	0.50032	15.251
Mof_Al	Al	0.40212	0.88885	0.24087	37.038
Mof_O 	O 	0.32489	0.7918	0.5685	-4.184
Mof_O 	O 	0.35818	0.7882	0.3005	-7.593
Mof_O 	O 	0.38148	0.6611	0.4929	-4.805
Mof_O 	O 	0.28631	0.6761	0.3749	-3.194
Mof_O 	O 	0.34989	0.9079	0.0688	-7.424
Mof_O 	O 	0.36953	0.9706	0.3747	-9.004
Mof_O 	O 	0.27915	0.9696	0.4981	-4.033
Mof_O 	O 	0.29811	0.905	0.8135	-3.881
Mof_O 	O 	0.46013	0.5554	0.6546	-4.703
Mof_O 	O 	0.46549	0.5653	0.3443	-4.791
Mof_O 	O 	0.44435	0.9905	0.1644	-53.26
Mof_O 	O 	0.46963	0.1258	0.3822	-18
Mof_O 	O 	0.49303	0.72326	0.5291	-5.686
Mof_O 	O 	0.44306	0.8061	0.126	-7.445
Mof_O 	O 	0.45812	0.8716	0.4021	-9.869
Mof_H 	H 	0.434	0.001	0.102	29.859
Mof_P 	P 	0.83817	0.23198	0.42986	2.939
Mof_P 	P 	0.82603	0.46913	0.9393	3.143
Mof_P 	P 	0.99158	0.67888	0.52626	5.824
Mof_Al	Al	0.77811	0.37641	0.62404	9.57
Mof_Al	Al	0.95019	0.12979	0.50032	10.268
Mof_Al	Al	0.90212	0.38885	0.24087	19.327
Mof_O 	O 	0.82489	0.2918	0.5685	-3.166
Mof_O 	O 	0.85818	0.2882	0.3005	-4.242
Mof_O 	O 	0.88148	0.1611	0.4929	-3.225
Mof_O 	O 	0.78631	0.1761	0.3749	-3.443
Mof_O 	O 	0.84989	0.4079	0.0688	-4.275
Mof_O 	O 	0.86953	0.4706	0.3747	-4.788
Mof_O 	O 	0.77915	0.4696	0.4981	-3.199
Mof_O 	O 	0.79811	0.405	0.8135	-3.005
Mof_O 	O 	0.96013	0.0554	0.6546	-2.043
Mof_O 	O 	0.96549	0.0653	0.3443	-2.206
Mof_O 	O 	0.94435	0.4905	0.1644	-22.495
Mof_O 	O 	0.96963	0.6258	0.3822	-6.853
Mof_O 	O 	0.99303	0.22326	0.5291	-2.249
Mof_O 	O 	0.94306	0.3061	0.126	-4.045
Mof_O 	O 	0.95812	0.3716	0.4021	-3.857
Mof_H 	H 	0.934	0.501	0.102	12.933
Mof_P 	P 	0.66183	0.73198	0.07014	3.998
Mof_P 	P 	0.67397	0.96913	0.5607	4.671
Mof_P 	P 	0.50842	0.17888	0.97374	7.83
Mof_Al	Al	0.72189	0.87641	0.87596	10.472
Mof_Al	Al	0.54981	0.62979	0.99968	15.07
Mof_Al	Al	0.59788	0.88885	0.25913	37.498
Mof_O 	O 	0.67511	0.7918	0.9315	-4.12
Mof_O 	O 	0.64182	0.7882	0.1995	-7.657
Mof_O 	O 	0.61852	0.6611	0.0071	-4.744
Mof_O 	O 	0.71369	0.6761	0.1251	-3.165
Mof_O 	O 	0.65011	0.9079	0.4312	-7.728
Mof_O 	O 	0.63047	0.9706	0.1253	-8.812
Mof_O 	O 	0.72085	0.9696	0.0019	-3.546
Mof_O 	O 	0.70189	0.905	0.6865	-3.731
Mof_O 	O 	0.53987	0.5554	0.8454	-4.652
Mof_O 	O 	0.53451	0.5653	0.1557	-4.742
Mof_O 	O 	0.55565	0.9905	0.3356	-54.309
Mof_O 	O 	0.53037	0.1258	0.1178	-18.171
Mof_O 	O 	0.50697	0.72326	0.9709	-5.761
Mof_O 	O 	0.55694	0.8061	0.374	-7.518
Mof_O 	O 	0.54188	0.8716	0.0979	-9.871
Mof_H 	H 	0.566	0.001	0.398	30.72
Mof_P 	P 	0.16183	0.23198	0.07014	2.899
Mof_P 	P 	0.17397	0.46913	0.5607	3.168
Mof_P 	P 	0.00842	0.67888	0.97374	1.872
Mof_Al	Al	0.22189	0.37641	0.87596	9.833
Mof_Al	Al	0.04981	0.12979	0.99968	12.055
Mof_Al	Al	0.09788	0.38885	0.25913	20.372
Mof_O 	O 	0.17511	0.2918	0.9315	-3.173
Mof_O 	O 	0.14182	0.2882	0.1995	-4.498
Mof_O 	O 	0.11852	0.1611	0.0071	-3.914
Mof_O 	O 	0.21369	0.1761	0.1251	-3.269
Mof_O 	O 	0.15011	0.4079	0.4312	-4.418
Mof_O 	O 	0.13047	0.4706	0.1253	-5.056
Mof_O 	O 	0.22085	0.4696	0.0019	-3.327
Mof_O 	O 	0.20189	0.405	0.6865	-3.123
Mof_O 	O 	0.03987	0.0554	0.8454	-3.493
Mof_O 	O 	0.03451	0.0653	0.1557	-3.922
Mof_O 	O 	0.05565	0.4905	0.3356	-24.422
Mof_O 	O 	0.03037	0.6258	0.1178	-7.362
Mof_O 	O 	0.00697	0.22326	0.9709	-5.003
Mof_O 	O 	0.05694	0.3061	0.374	-4.229
Mof_O 	O 	0.04188	0.3716	0.0979	-6.112
Mof_H 	H 	0.066	0.501	0.398	13.873
Mof_P 	P 	0.66183	0.26802	0.57014	3.931
Mof_P 	P 	0.67397	0.03087	0.0607	4.108
Mof_P 	P 	0.50842	0.82112	0.47374	7.547
Mof_Al	Al	0.72189	0.12359	0.37596	11.268
Mof_Al	Al	0.54981	0.37021	0.49968	15.234
Mof_Al	Al	0.59788	0.11115	0.75913	37.066
Mof_O 	O 	0.67511	0.2082	0.4315	-4.195
Mof_O 	O 	0.64182	0.2118	0.6995	-7.583
Mof_O 	O 	0.61852	0.3389	0.5071	-4.802
Mof_O 	O 	0.71369	0.3239	0.6251	-3.18
Mof_O 	O 	0.65011	0.0921	0.9312	-7.362
Mof_O 	O 	0.63047	0.0294	0.6253	-9.01
Mof_O 	O 	0.72085	0.0304	0.5019	-4.017
Mof_O 	O 	0.70189	0.095	0.1865	-3.885
Mof_O 	O 	0.53987	0.4446	0.3454	-4.702
Mof_O 	O 	0.53451	0.4347	0.6557	-4.775
Mof_O 	O 	0.55565	0.0095	0.8356	-53.31
Mof_O 	O 	0.53037	0.8742	0.6178	-18.012
Mof_O 	O 	0.50697	0.27674	0.4709	-5.678
Mof_O 	O 	0.55694	0.1939	0.874	-7.436
Mof_O 	O 	0.54188	0.1284	0.5979	-9.872
Mof_H 	H 	0.566	0.999	0.898	29.911
Mof_P 	P 	0.16183	0.76802	0.57014	2.962
Mof_P 	P 	0.17397	0.53087	0.0607	3.18
Mof_P 	P 	0.00842	0.32112	0.47374	1.934
Mof_Al	Al	0.22189	0.62359	0.37596	9.579
Mof_Al	Al	0.04981	0.87021	0.49968	10.063
Mof_Al	Al	0.09788	0.61115	0.75913	20.388
Mof_O 	O 	0.17511	0.7082	0.4315	-3.253
Mof_O 	O 	0.14182	0.7118	0.6995	-4.487
Mof_O 	O 	0.11852	0.8389	0.5071	-3.317
Mof_O 	O 	0.21369	0.8239	0.6251	-3.461
Mof_O 	O 	0.15011	0.5921	0.9312	-4.429
Mof_O 	O 	0.13047	0.5294	0.6253	-5.038
Mof_O 	O 	0.22085	0.5304	0.5019	-3.224
Mof_O 	O 	0.20189	0.595	0.1865	-3.064
Mof_O 	O 	0.03987	0.9446	0.3454	-3.151
Mof_O 	O 	0.03451	0.9347	0.6557	-3.358
Mof_O 	O 	0.05565	0.5095	0.8356	-24.342
Mof_O 	O 	0.03037	0.3742	0.6178	-7.375
Mof_O 	O 	0.00697	0.77674	0.4709	-4.733
Mof_O 	O 	0.05694	0.6939	0.874	-4.241
Mof_O 	O 	0.04188	0.6284	0.5979	-6.112
Mof_H 	H 	0.066	0.499	0.898	13.839
Mof_P 	P 	0.33817	0.26802	0.92986	4.031
Mof_P 	P 	0.32603	0.03087	0.4393	4.656
Mof_P 	P 	0.49158	0.82112	0.02626	7.742
Mof_Al	Al	0.27811	0.12359	0.12404	10.132
Mof_Al	Al	0.45019	0.37021	0.00032	14.431
Mof_Al	Al	0.40212	0.11115	0.74087	37.513
Mof_O 	O 	0.32489	0.2082	0.0685	-4.117
Mof_O 	O 	0.35818	0.2118	0.8005	-7.647
Mof_O 	O 	0.38148	0.3389	0.9929	-4.548
Mof_O 	O 	0.28631	0.3239	0.8749	-3.219
Mof_O 	O 	0.34989	0.0921	0.5688	-7.73
Mof_O 	O 	0.36953	0.0294	0.8747	-8.787
Mof_O 	O 	0.27915	0.0304	0.9981	-3.437
Mof_O 	O 	0.29811	0.095	0.3135	-3.677
Mof_O 	O 	0.46013	0.4446	0.1546	-4.545
Mof_O 	O 	0.46549	0.4347	0.8443	-4.563
Mof_O 	O 	0.44435	0.0095	0.6644	-54.323
Mof_O 	O 	0.46963	0.8742	0.8822	-18.119
Mof_O 	O 	0.49303	0.27674	0.0291	-5.694
Mof_O 	O 	0.44306	0.1939	0.626	-7.512
Mof_O 	O 	0.45812	0.1284	0.9021	-9.848
Mof_H 	H 	0.434	0.999	0.602	30.725
Mof_P 	P 	0.83817	0.76802	0.92986	2.902
Mof_P 	P 	0.82603	0.53087	0.4393	3.064
Mof_P 	P 	0.99158	0.32112	0.02626	5.63
Mof_Al	Al	0.77811	0.62359	0.12404	9.501
Mof_Al	Al	0.95019	0.87021	0.00032	11.548
Mof_Al	Al	0.90212	0.61115	0.74087	19.277
Mof_O 	O 	0.82489	0.7082	0.0685	-3.095
Mof_O 	O 	0.85818	0.7118	0.8005	-4.221
Mof_O 	O 	0.88148	0.8389	0.9929	-3.619
Mof_O 	O 	0.78631	0.8239	0.8749	-3.287
Mof_O 	O 	0.84989	0.5921	0.5688	-4.184
Mof_O 	O 	0.86953	0.5294	0.8747	-4.789
Mof_O 	O 	0.77915	0.5304	0.9981	-3.186
Mof_O 	O 	0.79811	0.595	0.3135	-3.012
Mof_O 	O 	0.96013	0.9446	0.1546	-2.298
Mof_O 	O 	0.96549	0.9347	0.8443	-2.543
Mof_O 	O 	0.94435	0.5095	0.6644	-22.368
Mof_O 	O 	0.96963	0.3742	0.8822	-6.694
Mof_O 	O 	0.99303	0.77674	0.0291	-2.455
Mof_O 	O 	0.94306	0.6939	0.626	-4.008
Mof_O 	O 	0.95812	0.6284	0.9021	-3.855
Mof_H 	H 	0.934	0.499	0.602	12.878
Mof_P 	P 	0.5	0.49464	0.75	4.17
Mof_P 	P 	1.09275e-33	0.99464	0.75	0.923
Mof_P 	P 	0.5	0.50536	0.25	4.177
Mof_P 	P 	-1.1796e-18	0.00536	0.25	0.984
Mof_Al	Al	0.5	0.05471	0.25	73.992
Mof_Al	Al	3.64252e-34	0.55471	0.25	28.553
Mof_Al	Al	0.5	0.94529	0.75	74.053
Mof_Al	Al	-2.35921e-18	0.44529	0.75	28.358
_end
