data_functionalizedCrystal
_audit_creation_method	'EQeq! by Chris Wilmer'
_symmetry_space_group_name_H-M	'P1'
_symmetry_Int_Tables_number	1
_symmetry_cell_setting	triclinic
loop_
_symmetry_equiv_pos_as_xyz
  x,y,z
_cell_length_a	8.68
_cell_length_b	11.0863
_cell_length_c	25.0903
_cell_angle_alpha	90
_cell_angle_beta	90
_cell_angle_gamma	101.55
loop_
_atom_site_label
_atom_site_type_symbol
_atom_site_fract_x
_atom_site_fract_y
_atom_site_fract_z
_atom_site_charge
Mof_Yb	Yb	0.80809	0.85878	0.59485	0.96
Mof_Yb	Yb	0.19191	0.14122	0.09485	0.96
Mof_Yb	Yb	0.19191	0.14122	0.40515	0.959
Mof_Yb	Yb	0.80809	0.85878	0.90515	0.959
Mof_H 	H 	0.0692	0.5143	0.6239	0.004
Mof_H 	H 	0.1942	0.3818	0.578	0.004
Mof_H 	H 	0.5381	0.0191	0.7042	-0.001
Mof_H 	H 	0.9308	0.4857	0.1239	0.004
Mof_H 	H 	0.8058	0.6182	0.078	0.004
Mof_H 	H 	0.4619	0.9809	0.2042	-0.001
Mof_H 	H 	0.9308	0.4857	0.3761	0.004
Mof_H 	H 	0.8058	0.6182	0.422	0.004
Mof_H 	H 	0.4619	0.9809	0.2958	-0.001
Mof_H 	H 	0.0692	0.5143	0.8761	0.004
Mof_H 	H 	0.1942	0.3818	0.922	0.004
Mof_H 	H 	0.5381	0.0191	0.7958	-0.001
Mof_Ru	Ru	0.38786	0.16443	0.61099	1.01
Mof_Ru	Ru	0.61214	0.83557	0.11099	1.01
Mof_Ru	Ru	0.61214	0.83557	0.38901	1.01
Mof_Ru	Ru	0.38786	0.16443	0.88901	1.01
Mof_Ru	Ru	0.01155	0.5729	0.75	1.016
Mof_Ru	Ru	0.98845	0.4271	0.25	1.016
Mof_C 	C 	0.2639	0.3043	0.6939	0.015
Mof_C 	C 	0.1895	0.3849	0.7216	0.017
Mof_C 	C 	0.1189	0.4614	0.6432	0.021
Mof_C 	C 	0.1942	0.3796	0.615	0.006
Mof_C 	C 	0.4863	0.0726	0.7221	0.021
Mof_C 	C 	0.3432	0.2224	0.7223	0.024
Mof_C 	C 	0.1923	0.0326	0.6132	-0.194
Mof_C 	C 	0.5133	0.0386	0.5964	-0.196
Mof_C 	C 	0.6578	0.8139	0.4658	-0.196
Mof_C 	C 	0.5895	0.2906	0.6002	-0.185
Mof_C 	C 	0.9262	0.6669	0.6933	-0.182
Mof_C 	C 	0.7361	0.6957	0.1939	0.015
Mof_C 	C 	0.8105	0.6151	0.2216	0.017
Mof_C 	C 	0.8811	0.5386	0.1432	0.021
Mof_C 	C 	0.8058	0.6204	0.115	0.006
Mof_C 	C 	0.5137	0.9274	0.2221	0.021
Mof_C 	C 	0.6568	0.7776	0.2223	0.024
Mof_C 	C 	0.8077	0.9674	0.1132	-0.194
Mof_C 	C 	0.4867	0.9614	0.0964	-0.195
Mof_C 	C 	0.3422	0.1861	0.9658	-0.196
Mof_C 	C 	0.4105	0.7094	0.1002	-0.185
Mof_C 	C 	0.0738	0.3331	0.1933	-0.182
Mof_C 	C 	0.7361	0.6957	0.3061	0.015
Mof_C 	C 	0.8105	0.6151	0.2784	0.017
Mof_C 	C 	0.8811	0.5386	0.3568	0.021
Mof_C 	C 	0.8058	0.6204	0.385	0.006
Mof_C 	C 	0.5137	0.9274	0.2779	0.021
Mof_C 	C 	0.6568	0.7776	0.2777	0.024
Mof_C 	C 	0.8077	0.9674	0.3868	-0.194
Mof_C 	C 	0.4867	0.9614	0.4036	-0.196
Mof_C 	C 	0.3422	0.1861	0.5342	-0.196
Mof_C 	C 	0.4105	0.7094	0.3998	-0.185
Mof_C 	C 	0.0738	0.3331	0.3067	-0.182
Mof_C 	C 	0.2639	0.3043	0.8061	0.015
Mof_C 	C 	0.1895	0.3849	0.7784	0.017
Mof_C 	C 	0.1189	0.4614	0.8568	0.021
Mof_C 	C 	0.1942	0.3796	0.885	0.006
Mof_C 	C 	0.4863	0.0726	0.7779	0.021
Mof_C 	C 	0.3432	0.2224	0.7777	0.024
Mof_C 	C 	0.1923	0.0326	0.8868	-0.194
Mof_C 	C 	0.5133	0.0386	0.9036	-0.195
Mof_C 	C 	0.6578	0.8139	0.0342	-0.196
Mof_C 	C 	0.5895	0.2906	0.8998	-0.185
Mof_C 	C 	0.9262	0.6669	0.8067	-0.182
Mof_C 	C 	0.8201	0.4381	0.75	-0.19
Mof_C 	C 	0.2016	0.7082	0.75	-0.198
Mof_C 	C 	0.1799	0.5619	0.25	-0.19
Mof_C 	C 	0.7984	0.2918	0.25	-0.198
Mof_N 	N 	0.2654	0.299	0.6396	-0.208
Mof_N 	N 	0.1158	0.466	0.6955	-0.205
Mof_N 	N 	0.4142	0.1472	0.6939	-0.208
Mof_N 	N 	0.0795	0.9539	0.612	-0.17
Mof_N 	N 	0.5924	0.9657	0.5913	-0.167
Mof_N 	N 	0.6864	0.8038	0.51	-0.171
Mof_N 	N 	0.7057	0.3574	0.5901	-0.076
Mof_N 	N 	0.8818	0.7199	0.6592	-0.17
Mof_N 	N 	0.7346	0.701	0.1396	-0.208
Mof_N 	N 	0.8842	0.534	0.1955	-0.206
Mof_N 	N 	0.5858	0.8528	0.1939	-0.208
Mof_N 	N 	0.9205	0.0461	0.112	-0.171
Mof_N 	N 	0.4076	0.0343	0.0913	-0.167
Mof_N 	N 	0.3136	0.1962	0.01	-0.171
Mof_N 	N 	0.2943	0.6426	0.0901	-0.076
Mof_N 	N 	0.1182	0.2801	0.1592	-0.17
Mof_N 	N 	0.7346	0.701	0.3604	-0.208
Mof_N 	N 	0.8842	0.534	0.3045	-0.205
Mof_N 	N 	0.5858	0.8528	0.3061	-0.208
Mof_N 	N 	0.9205	0.0461	0.388	-0.17
Mof_N 	N 	0.4076	0.0343	0.4087	-0.167
Mof_N 	N 	0.3136	0.1962	0.49	-0.171
Mof_N 	N 	0.2943	0.6426	0.4099	-0.076
Mof_N 	N 	0.1182	0.2801	0.3408	-0.17
Mof_N 	N 	0.2654	0.299	0.8604	-0.208
Mof_N 	N 	0.1158	0.466	0.8045	-0.206
Mof_N 	N 	0.4142	0.1472	0.8061	-0.208
Mof_N 	N 	0.0795	0.9539	0.888	-0.171
Mof_N 	N 	0.5924	0.9657	0.9087	-0.167
Mof_N 	N 	0.6864	0.8038	0.99	-0.171
Mof_N 	N 	0.7057	0.3574	0.9099	-0.076
Mof_N 	N 	0.8818	0.7199	0.8408	-0.17
Mof_N 	N 	0.7129	0.3579	0.75	-0.059
Mof_N 	N 	0.31	0.7915	0.75	-0.073
Mof_N 	N 	0.2871	0.6421	0.25	-0.059
Mof_N 	N 	0.69	0.2085	0.25	-0.073
_end
