data_functionalizedCrystal
_audit_creation_method	'EQeq! by Chris Wilmer'
_symmetry_space_group_name_H-M	'P1'
_symmetry_Int_Tables_number	1
_symmetry_cell_setting	triclinic
loop_
_symmetry_equiv_pos_as_xyz
  x,y,z
_cell_length_a	30.6196
_cell_length_b	16.0904
_cell_length_c	25.8822
_cell_angle_alpha	90
_cell_angle_beta	90.008
_cell_angle_gamma	90
loop_
_atom_site_label
_atom_site_type_symbol
_atom_site_fract_x
_atom_site_fract_y
_atom_site_fract_z
_atom_site_charge
Mof_Er	Er	0.49945	0.58923	0.06281	2.091
Mof_Er	Er	0.4991	0.71497	0.25029	1.747
Mof_Er	Er	0.499	0.57758	0.43718	1.991
Mof_O 	O 	0.4489	0.7032	0.1967	-0.651
Mof_O 	O 	0.4564	0.6512	0.1185	-0.638
Mof_C 	C 	0.4346	0.6834	0.1536	0.624
Mof_C 	C 	0.3867	0.6988	0.1409	-0.287
Mof_C 	C 	0.3591	0.7344	0.1765	0.172
Mof_H 	H 	0.3696	0.7497	0.2088	-0.033
Mof_C 	C 	0.3144	0.7479	0.1637	-0.244
Mof_H 	H 	0.2959	0.7718	0.188	0.11
Mof_C 	C 	0.2983	0.7266	0.1166	0.182
Mof_C 	C 	0.3261	0.6916	0.0819	-0.246
Mof_H 	H 	0.3153	0.6767	0.0496	0.112
Mof_C 	C 	0.371	0.6767	0.093	0.177
Mof_H 	H 	0.3893	0.6527	0.0684	-0.03
Mof_C 	C 	0.2516	0.742	0.1045	-0.14
Mof_H 	H 	0.2376	0.7003	0.0859	0.075
Mof_O 	O 	0.5476	0.7125	0.1844	-0.578
Mof_O 	O 	0.5545	0.6142	0.1235	-0.54
Mof_C 	C 	0.5675	0.6719	0.1512	0.524
Mof_C 	C 	0.615	0.6973	0.1441	-0.236
Mof_C 	C 	0.6309	0.7614	0.174	0.136
Mof_H 	H 	0.6128	0.7877	0.1977	-0.031
Mof_C 	C 	0.6752	0.7872	0.1686	-0.215
Mof_H 	H 	0.6867	0.83	0.1885	0.094
Mof_C 	C 	0.7001	0.7466	0.1331	0.144
Mof_C 	C 	0.6848	0.6836	0.1032	-0.21
Mof_H 	H 	0.7031	0.658	0.0793	0.1
Mof_C 	C 	0.6406	0.657	0.1084	0.13
Mof_H 	H 	0.6295	0.6139	0.0883	-0.011
Mof_C 	C 	0.7456	0.7781	0.1304	-0.097
Mof_H 	H 	0.7477	0.8229	0.153	0.059
Mof_O 	O 	0.0443	0.981	0.074	-0.486
Mof_O 	O 	0.0428	0.8877	0.0098	-0.476
Mof_C 	C 	0.059	0.9229	0.0478	0.498
Mof_C 	C 	0.1033	0.888	0.0634	-0.179
Mof_C 	C 	0.1247	0.9222	0.105	0.091
Mof_H 	H 	0.1117	0.9659	0.1228	0.02
Mof_C 	C 	0.1663	0.8925	0.1215	-0.165
Mof_H 	H 	0.1801	0.9164	0.1498	0.086
Mof_C 	C 	0.1856	0.8289	0.0956	0.105
Mof_C 	C 	0.1644	0.7953	0.0545	-0.166
Mof_H 	H 	0.1777	0.7517	0.0368	0.084
Mof_C 	C 	0.1228	0.8237	0.0371	0.095
Mof_H 	H 	0.1092	0.7993	0.0088	0.002
Mof_C 	C 	0.2289	0.802	0.1156	-0.049
Mof_H 	H 	0.2407	0.8371	0.1407	0.043
Mof_O 	O 	0.5466	0.5933	0.9948	-0.59
Mof_O 	O 	0.5517	0.5217	0.9192	-0.505
Mof_C 	C 	0.5631	0.5715	0.9532	0.506
Mof_C 	C 	0.606	0.615	0.9411	-0.195
Mof_C 	C 	0.6221	0.672	0.9758	0.11
Mof_H 	H 	0.6068	0.6837	0.006	-0.016
Mof_C 	C 	0.6624	0.713	0.9651	-0.19
Mof_H 	H 	0.6732	0.7514	0.9887	0.09
Mof_C 	C 	0.6854	0.6972	0.9212	0.123
Mof_C 	C 	0.6694	0.6409	0.887	-0.18
Mof_H 	H 	0.685	0.6296	0.8569	0.087
Mof_C 	C 	0.6291	0.5989	0.8965	0.101
Mof_H 	H 	0.6185	0.5607	0.8727	0.012
Mof_C 	C 	0.7269	0.7437	0.9143	-0.076
Mof_H 	H 	0.7304	0.7943	0.9311	0.053
Mof_O 	O 	0.5529	0.6755	0.3054	-0.582
Mof_O 	O 	0.5542	0.5992	0.3751	-0.52
Mof_C 	C 	0.5711	0.6492	0.3448	0.536
Mof_C 	C 	0.6168	0.6821	0.3551	-0.256
Mof_C 	C 	0.6387	0.7377	0.3241	0.148
Mof_H 	H 	0.6251	0.7578	0.2945	-0.035
Mof_C 	C 	0.6817	0.7654	0.3364	-0.224
Mof_H 	H 	0.6961	0.803	0.3151	0.102
Mof_C 	C 	0.7012	0.7358	0.3798	0.154
Mof_C 	C 	0.6798	0.6809	0.4106	-0.218
Mof_H 	H 	0.6936	0.6614	0.4403	0.101
Mof_C 	C 	0.6368	0.6524	0.3989	0.141
Mof_H 	H 	0.6227	0.6147	0.4204	-0.018
Mof_C 	C 	0.7458	0.7616	0.3956	-0.104
Mof_H 	H 	0.7504	0.7593	0.4311	0.06
Mof_O 	O 	0.9464	0.8086	0.8055	-0.592
Mof_O 	O 	0.9533	0.8699	0.8821	-0.619
Mof_C 	C 	0.9334	0.8299	0.8487	0.571
Mof_C 	C 	0.887	0.8023	0.861	-0.259
Mof_C 	C 	0.8649	0.7576	0.824	0.145
Mof_H 	H 	0.8786	0.7454	0.7929	-0.024
Mof_C 	C 	0.8213	0.7295	0.8325	-0.226
Mof_H 	H 	0.8067	0.6995	0.8072	0.098
Mof_C 	C 	0.8014	0.7471	0.8781	0.157
Mof_C 	C 	0.8234	0.7912	0.9146	-0.221
Mof_H 	H 	0.8095	0.8028	0.9458	0.104
Mof_C 	C 	0.867	0.8203	0.9073	0.146
Mof_H 	H 	0.8813	0.8503	0.9328	-0.022
Mof_C 	C 	0.7561	0.7179	0.8875	-0.112
Mof_H 	H 	0.7488	0.6703	0.8691	0.062
Mof_O 	O 	0.9582	0.9568	0.4323	-0.542
Mof_O 	O 	0.9525	0.8718	0.499	-0.565
Mof_C 	C 	0.9396	0.9022	0.4578	0.523
Mof_C 	C 	0.8968	0.8706	0.4354	-0.222
Mof_C 	C 	0.8827	0.9046	0.3895	0.121
Mof_H 	H 	0.8987	0.9456	0.3727	-0.011
Mof_C 	C 	0.8425	0.8745	0.3689	-0.202
Mof_H 	H 	0.8318	0.8961	0.3381	0.094
Mof_C 	C 	0.8198	0.8145	0.3943	0.137
Mof_C 	C 	0.8343	0.7814	0.4394	-0.203
Mof_H 	H 	0.8181	0.7404	0.4559	0.093
Mof_C 	C 	0.8744	0.8097	0.4614	0.119
Mof_H 	H 	0.8848	0.7877	0.4923	-0.013
Mof_C 	C 	0.7782	0.7857	0.371	-0.089
Mof_H 	H 	0.7762	0.7857	0.3351	0.055
Mof_O 	O 	0.954	0.9023	0.0025	-0.59
Mof_O 	O 	0.9526	0.9865	0.0723	-0.578
Mof_C 	C 	0.9393	0.9304	0.0436	0.542
Mof_C 	C 	0.8974	0.8886	0.062	-0.218
Mof_C 	C 	0.8798	0.8254	0.033	0.119
Mof_H 	H 	0.8929	0.8076	0.0025	-0.016
Mof_C 	C 	0.8406	0.7881	0.0516	-0.2
Mof_H 	H 	0.828	0.7452	0.0326	0.089
Mof_C 	C 	0.8208	0.8131	0.0959	0.132
Mof_C 	C 	0.8387	0.8756	0.1241	-0.197
Mof_H 	H 	0.8254	0.8931	0.1545	0.093
Mof_C 	C 	0.878	0.9147	0.1071	0.118
Mof_H 	H 	0.8904	0.9574	0.1263	-0.006
Mof_C 	C 	0.7801	0.7694	0.1112	-0.091
Mof_H 	H 	0.7831	0.7137	0.1022	0.056
Mof_Er	Er	0.99945	0.08923	0.06281	1.868
Mof_Er	Er	0.9991	0.21497	0.25029	1.549
Mof_Er	Er	0.999	0.07758	0.43718	1.782
Mof_O 	O 	0.9489	0.2032	0.1967	-0.626
Mof_O 	O 	0.9564	0.1512	0.1185	-0.617
Mof_C 	C 	0.9346	0.1834	0.1536	0.591
Mof_C 	C 	0.8867	0.1988	0.1409	-0.269
Mof_C 	C 	0.8591	0.2344	0.1765	0.154
Mof_H 	H 	0.8696	0.2497	0.2088	-0.028
Mof_C 	C 	0.8144	0.2479	0.1637	-0.229
Mof_H 	H 	0.7959	0.2718	0.188	0.103
Mof_C 	C 	0.7983	0.2266	0.1166	0.164
Mof_C 	C 	0.8261	0.1916	0.0819	-0.231
Mof_H 	H 	0.8153	0.1767	0.0496	0.106
Mof_C 	C 	0.871	0.1767	0.093	0.158
Mof_H 	H 	0.8893	0.1527	0.0684	-0.022
Mof_C 	C 	0.7516	0.242	0.1045	-0.122
Mof_H 	H 	0.7376	0.2003	0.0859	0.066
Mof_O 	O 	0.0476	0.2125	0.1844	-0.503
Mof_O 	O 	0.0545	0.1142	0.1235	-0.476
Mof_C 	C 	0.0675	0.1719	0.1512	0.495
Mof_C 	C 	0.115	0.1973	0.1441	-0.206
Mof_C 	C 	0.1309	0.2614	0.174	0.117
Mof_H 	H 	0.1128	0.2877	0.1977	-0.013
Mof_C 	C 	0.1752	0.2872	0.1686	-0.194
Mof_H 	H 	0.1867	0.33	0.1885	0.091
Mof_C 	C 	0.2001	0.2466	0.1331	0.129
Mof_C 	C 	0.1848	0.1836	0.1032	-0.191
Mof_H 	H 	0.2031	0.158	0.0793	0.094
Mof_C 	C 	0.1406	0.157	0.1084	0.112
Mof_H 	H 	0.1295	0.1139	0.0883	-0.003
Mof_C 	C 	0.2456	0.2781	0.1304	-0.08
Mof_H 	H 	0.2477	0.3229	0.153	0.055
Mof_O 	O 	0.5443	0.481	0.074	-0.556
Mof_O 	O 	0.5428	0.3877	0.0098	-0.547
Mof_C 	C 	0.559	0.4229	0.0478	0.531
Mof_C 	C 	0.6033	0.388	0.0634	-0.21
Mof_C 	C 	0.6247	0.4222	0.105	0.109
Mof_H 	H 	0.6117	0.4659	0.1228	0.008
Mof_C 	C 	0.6663	0.3925	0.1215	-0.186
Mof_H 	H 	0.6801	0.4164	0.1498	0.09
Mof_C 	C 	0.6856	0.3289	0.0956	0.121
Mof_C 	C 	0.6644	0.2953	0.0545	-0.188
Mof_H 	H 	0.6777	0.2517	0.0368	0.087
Mof_C 	C 	0.6228	0.3237	0.0371	0.115
Mof_H 	H 	0.6092	0.2993	0.0088	-0.015
Mof_C 	C 	0.7289	0.302	0.1156	-0.07
Mof_H 	H 	0.7407	0.3371	0.1407	0.048
Mof_O 	O 	0.0466	0.0933	0.9948	-0.517
Mof_O 	O 	0.0517	0.0217	0.9192	-0.444
Mof_C 	C 	0.0631	0.0715	0.9532	0.48
Mof_C 	C 	0.106	0.115	0.9411	-0.171
Mof_C 	C 	0.1221	0.172	0.9758	0.101
Mof_H 	H 	0.1068	0.1837	0.006	-0.004
Mof_C 	C 	0.1624	0.213	0.9651	-0.175
Mof_H 	H 	0.1732	0.2514	0.9887	0.09
Mof_C 	C 	0.1854	0.1972	0.9212	0.113
Mof_C 	C 	0.1694	0.1409	0.887	-0.164
Mof_H 	H 	0.185	0.1296	0.8569	0.085
Mof_C 	C 	0.1291	0.0989	0.8965	0.089
Mof_H 	H 	0.1185	0.0607	0.8727	0.022
Mof_C 	C 	0.2269	0.2437	0.9143	-0.061
Mof_H 	H 	0.2304	0.2943	0.9311	0.05
Mof_O 	O 	0.0529	0.1755	0.3054	-0.508
Mof_O 	O 	0.0542	0.0992	0.3751	-0.458
Mof_C 	C 	0.0711	0.1492	0.3448	0.504
Mof_C 	C 	0.1168	0.1821	0.3551	-0.224
Mof_C 	C 	0.1387	0.2377	0.3241	0.13
Mof_H 	H 	0.1251	0.2578	0.2945	-0.02
Mof_C 	C 	0.1817	0.2654	0.3364	-0.204
Mof_H 	H 	0.1961	0.303	0.3151	0.098
Mof_C 	C 	0.2012	0.2358	0.3798	0.14
Mof_C 	C 	0.1798	0.1809	0.4106	-0.2
Mof_H 	H 	0.1936	0.1614	0.4403	0.096
Mof_C 	C 	0.1368	0.1524	0.3989	0.122
Mof_H 	H 	0.1227	0.1147	0.4204	-0.008
Mof_C 	C 	0.2458	0.2616	0.3956	-0.089
Mof_H 	H 	0.2504	0.2593	0.4311	0.056
Mof_O 	O 	0.4464	0.3086	0.8055	-0.614
Mof_O 	O 	0.4533	0.3699	0.8821	-0.641
Mof_C 	C 	0.4334	0.3299	0.8487	0.602
Mof_C 	C 	0.387	0.3023	0.861	-0.276
Mof_C 	C 	0.3649	0.2576	0.824	0.161
Mof_H 	H 	0.3786	0.2454	0.7929	-0.028
Mof_C 	C 	0.3213	0.2295	0.8325	-0.238
Mof_H 	H 	0.3067	0.1995	0.8072	0.105
Mof_C 	C 	0.3014	0.2471	0.8781	0.172
Mof_C 	C 	0.3234	0.2912	0.9146	-0.234
Mof_H 	H 	0.3095	0.3028	0.9458	0.109
Mof_C 	C 	0.367	0.3203	0.9073	0.163
Mof_H 	H 	0.3813	0.3503	0.9328	-0.029
Mof_C 	C 	0.2561	0.2179	0.8875	-0.125
Mof_H 	H 	0.2488	0.1703	0.8691	0.068
Mof_O 	O 	0.4582	0.4568	0.4323	-0.553
Mof_O 	O 	0.4525	0.3718	0.499	-0.581
Mof_C 	C 	0.4396	0.4022	0.4578	0.545
Mof_C 	C 	0.3968	0.3706	0.4354	-0.231
Mof_C 	C 	0.3827	0.4046	0.3895	0.133
Mof_H 	H 	0.3987	0.4456	0.3727	-0.012
Mof_C 	C 	0.3425	0.3745	0.3689	-0.209
Mof_H 	H 	0.3318	0.3961	0.3381	0.099
Mof_C 	C 	0.3198	0.3145	0.3943	0.149
Mof_C 	C 	0.3343	0.2814	0.4394	-0.21
Mof_H 	H 	0.3181	0.2404	0.4559	0.097
Mof_C 	C 	0.3744	0.3097	0.4614	0.129
Mof_H 	H 	0.3848	0.2877	0.4923	-0.014
Mof_C 	C 	0.2782	0.2857	0.371	-0.1
Mof_H 	H 	0.2762	0.2857	0.3351	0.061
Mof_O 	O 	0.454	0.4023	0.0025	-0.609
Mof_O 	O 	0.4526	0.4865	0.0723	-0.598
Mof_C 	C 	0.4393	0.4304	0.0436	0.569
Mof_C 	C 	0.3974	0.3886	0.062	-0.229
Mof_C 	C 	0.3798	0.3254	0.033	0.133
Mof_H 	H 	0.3929	0.3076	0.0025	-0.018
Mof_C 	C 	0.3406	0.2881	0.0516	-0.21
Mof_H 	H 	0.328	0.2452	0.0326	0.094
Mof_C 	C 	0.3208	0.3131	0.0959	0.145
Mof_C 	C 	0.3387	0.3756	0.1241	-0.207
Mof_H 	H 	0.3254	0.3931	0.1545	0.099
Mof_C 	C 	0.378	0.4147	0.1071	0.132
Mof_H 	H 	0.3904	0.4574	0.1263	-0.008
Mof_C 	C 	0.2801	0.2694	0.1112	-0.105
Mof_H 	H 	0.2831	0.2137	0.1022	0.062
Mof_Er	Er	0.49945	0.41077	0.56281	2.092
Mof_Er	Er	0.4991	0.28503	0.75029	1.747
Mof_Er	Er	0.499	0.42242	0.93718	1.992
Mof_O 	O 	0.4489	0.2968	0.6967	-0.651
Mof_O 	O 	0.4564	0.3488	0.6185	-0.638
Mof_C 	C 	0.4346	0.3166	0.6536	0.624
Mof_C 	C 	0.3867	0.3012	0.6409	-0.287
Mof_C 	C 	0.3591	0.2656	0.6765	0.172
Mof_H 	H 	0.3696	0.2503	0.7088	-0.033
Mof_C 	C 	0.3144	0.2521	0.6637	-0.244
Mof_H 	H 	0.2959	0.2282	0.688	0.11
Mof_C 	C 	0.2983	0.2734	0.6166	0.182
Mof_C 	C 	0.3261	0.3084	0.5819	-0.246
Mof_H 	H 	0.3153	0.3233	0.5496	0.112
Mof_C 	C 	0.371	0.3233	0.593	0.177
Mof_H 	H 	0.3893	0.3473	0.5684	-0.03
Mof_C 	C 	0.2516	0.258	0.6045	-0.14
Mof_H 	H 	0.2376	0.2997	0.5859	0.075
Mof_O 	O 	0.5476	0.2875	0.6844	-0.578
Mof_O 	O 	0.5545	0.3858	0.6235	-0.54
Mof_C 	C 	0.5675	0.3281	0.6512	0.524
Mof_C 	C 	0.615	0.3027	0.6441	-0.236
Mof_C 	C 	0.6309	0.2386	0.674	0.136
Mof_H 	H 	0.6128	0.2123	0.6977	-0.031
Mof_C 	C 	0.6752	0.2128	0.6686	-0.215
Mof_H 	H 	0.6867	0.17	0.6885	0.094
Mof_C 	C 	0.7001	0.2534	0.6331	0.144
Mof_C 	C 	0.6848	0.3164	0.6032	-0.209
Mof_H 	H 	0.7031	0.342	0.5793	0.1
Mof_C 	C 	0.6406	0.343	0.6084	0.13
Mof_H 	H 	0.6295	0.3861	0.5883	-0.011
Mof_C 	C 	0.7456	0.2219	0.6304	-0.096
Mof_H 	H 	0.7477	0.1771	0.653	0.059
Mof_O 	O 	0.0443	0.019	0.574	-0.486
Mof_O 	O 	0.0428	0.1123	0.5098	-0.476
Mof_C 	C 	0.059	0.0771	0.5478	0.498
Mof_C 	C 	0.1033	0.112	0.5634	-0.179
Mof_C 	C 	0.1247	0.0778	0.605	0.091
Mof_H 	H 	0.1117	0.0341	0.6228	0.02
Mof_C 	C 	0.1663	0.1075	0.6215	-0.165
Mof_H 	H 	0.1801	0.0836	0.6498	0.085
Mof_C 	C 	0.1856	0.1711	0.5956	0.105
Mof_C 	C 	0.1644	0.2047	0.5545	-0.166
Mof_H 	H 	0.1777	0.2483	0.5368	0.084
Mof_C 	C 	0.1228	0.1763	0.5371	0.095
Mof_H 	H 	0.1092	0.2007	0.5088	0.002
Mof_C 	C 	0.2289	0.198	0.6156	-0.049
Mof_H 	H 	0.2407	0.1629	0.6407	0.043
Mof_O 	O 	0.5466	0.4067	0.4948	-0.59
Mof_O 	O 	0.5517	0.4783	0.4192	-0.505
Mof_C 	C 	0.5631	0.4285	0.4532	0.506
Mof_C 	C 	0.606	0.385	0.4411	-0.195
Mof_C 	C 	0.6221	0.328	0.4758	0.111
Mof_H 	H 	0.6068	0.3163	0.506	-0.016
Mof_C 	C 	0.6624	0.287	0.4651	-0.191
Mof_H 	H 	0.6732	0.2486	0.4887	0.091
Mof_C 	C 	0.6854	0.3028	0.4212	0.123
Mof_C 	C 	0.6694	0.3591	0.387	-0.181
Mof_H 	H 	0.685	0.3704	0.3569	0.087
Mof_C 	C 	0.6291	0.4011	0.3965	0.101
Mof_H 	H 	0.6185	0.4393	0.3727	0.012
Mof_C 	C 	0.7269	0.2563	0.4143	-0.077
Mof_H 	H 	0.7304	0.2057	0.4311	0.053
Mof_O 	O 	0.5529	0.3245	0.8054	-0.582
Mof_O 	O 	0.5542	0.4008	0.8751	-0.52
Mof_C 	C 	0.5711	0.3508	0.8448	0.536
Mof_C 	C 	0.6168	0.3179	0.8551	-0.256
Mof_C 	C 	0.6387	0.2623	0.8241	0.149
Mof_H 	H 	0.6251	0.2422	0.7945	-0.035
Mof_C 	C 	0.6817	0.2346	0.8364	-0.224
Mof_H 	H 	0.6961	0.197	0.8151	0.102
Mof_C 	C 	0.7012	0.2642	0.8798	0.154
Mof_C 	C 	0.6798	0.3191	0.9106	-0.219
Mof_H 	H 	0.6936	0.3386	0.9403	0.102
Mof_C 	C 	0.6368	0.3476	0.8989	0.141
Mof_H 	H 	0.6227	0.3853	0.9204	-0.018
Mof_C 	C 	0.7458	0.2384	0.8956	-0.104
Mof_H 	H 	0.7504	0.2407	0.9311	0.06
Mof_O 	O 	0.9464	0.1914	0.3055	-0.592
Mof_O 	O 	0.9533	0.1301	0.3821	-0.619
Mof_C 	C 	0.9334	0.1701	0.3487	0.571
Mof_C 	C 	0.887	0.1977	0.361	-0.259
Mof_C 	C 	0.8649	0.2424	0.324	0.144
Mof_H 	H 	0.8786	0.2546	0.2929	-0.024
Mof_C 	C 	0.8213	0.2705	0.3325	-0.225
Mof_H 	H 	0.8067	0.3005	0.3072	0.098
Mof_C 	C 	0.8014	0.2529	0.3781	0.156
Mof_C 	C 	0.8234	0.2088	0.4146	-0.22
Mof_H 	H 	0.8095	0.1972	0.4458	0.104
Mof_C 	C 	0.867	0.1797	0.4073	0.146
Mof_H 	H 	0.8813	0.1497	0.4328	-0.022
Mof_C 	C 	0.7561	0.2821	0.3875	-0.111
Mof_H 	H 	0.7488	0.3297	0.3691	0.062
Mof_O 	O 	0.9582	0.0432	0.9323	-0.541
Mof_O 	O 	0.9525	0.1282	0.999	-0.564
Mof_C 	C 	0.9396	0.0978	0.9578	0.522
Mof_C 	C 	0.8968	0.1294	0.9354	-0.221
Mof_C 	C 	0.8827	0.0954	0.8895	0.121
Mof_H 	H 	0.8987	0.0544	0.8727	-0.011
Mof_C 	C 	0.8425	0.1255	0.8689	-0.201
Mof_H 	H 	0.8318	0.1039	0.8381	0.094
Mof_C 	C 	0.8198	0.1855	0.8943	0.137
Mof_C 	C 	0.8343	0.2186	0.9394	-0.202
Mof_H 	H 	0.8181	0.2596	0.9559	0.093
Mof_C 	C 	0.8744	0.1903	0.9614	0.118
Mof_H 	H 	0.8848	0.2123	0.9923	-0.013
Mof_C 	C 	0.7782	0.2143	0.871	-0.088
Mof_H 	H 	0.7762	0.2143	0.8351	0.055
Mof_O 	O 	0.954	0.0977	0.5025	-0.591
Mof_O 	O 	0.9526	0.0135	0.5723	-0.579
Mof_C 	C 	0.9393	0.0696	0.5436	0.542
Mof_C 	C 	0.8974	0.1114	0.562	-0.219
Mof_C 	C 	0.8798	0.1746	0.533	0.12
Mof_H 	H 	0.8929	0.1924	0.5025	-0.016
Mof_C 	C 	0.8406	0.2119	0.5516	-0.2
Mof_H 	H 	0.828	0.2548	0.5326	0.089
Mof_C 	C 	0.8208	0.1869	0.5959	0.132
Mof_C 	C 	0.8387	0.1244	0.6241	-0.197
Mof_H 	H 	0.8254	0.1069	0.6545	0.093
Mof_C 	C 	0.878	0.0853	0.6071	0.119
Mof_H 	H 	0.8904	0.0426	0.6263	-0.006
Mof_C 	C 	0.7801	0.2306	0.6112	-0.091
Mof_H 	H 	0.7831	0.2863	0.6022	0.056
Mof_Er	Er	0.99945	0.91077	0.56281	1.871
Mof_Er	Er	0.9991	0.78503	0.75029	1.549
Mof_Er	Er	0.999	0.92242	0.93718	1.78
Mof_O 	O 	0.9489	0.7968	0.6967	-0.626
Mof_O 	O 	0.9564	0.8488	0.6185	-0.617
Mof_C 	C 	0.9346	0.8166	0.6536	0.591
Mof_C 	C 	0.8867	0.8012	0.6409	-0.269
Mof_C 	C 	0.8591	0.7656	0.6765	0.154
Mof_H 	H 	0.8696	0.7503	0.7088	-0.028
Mof_C 	C 	0.8144	0.7521	0.6637	-0.229
Mof_H 	H 	0.7959	0.7282	0.688	0.103
Mof_C 	C 	0.7983	0.7734	0.6166	0.165
Mof_C 	C 	0.8261	0.8084	0.5819	-0.231
Mof_H 	H 	0.8153	0.8233	0.5496	0.107
Mof_C 	C 	0.871	0.8233	0.593	0.158
Mof_H 	H 	0.8893	0.8473	0.5684	-0.021
Mof_C 	C 	0.7516	0.758	0.6045	-0.122
Mof_H 	H 	0.7376	0.7997	0.5859	0.067
Mof_O 	O 	0.0476	0.7875	0.6844	-0.502
Mof_O 	O 	0.0545	0.8858	0.6235	-0.476
Mof_C 	C 	0.0675	0.8281	0.6512	0.495
Mof_C 	C 	0.115	0.8027	0.6441	-0.206
Mof_C 	C 	0.1309	0.7386	0.674	0.117
Mof_H 	H 	0.1128	0.7123	0.6977	-0.013
Mof_C 	C 	0.1752	0.7128	0.6686	-0.194
Mof_H 	H 	0.1867	0.67	0.6885	0.091
Mof_C 	C 	0.2001	0.7534	0.6331	0.129
Mof_C 	C 	0.1848	0.8164	0.6032	-0.191
Mof_H 	H 	0.2031	0.842	0.5793	0.094
Mof_C 	C 	0.1406	0.843	0.6084	0.112
Mof_H 	H 	0.1295	0.8861	0.5883	-0.002
Mof_C 	C 	0.2456	0.7219	0.6304	-0.08
Mof_H 	H 	0.2477	0.6771	0.653	0.055
Mof_O 	O 	0.5443	0.519	0.574	-0.556
Mof_O 	O 	0.5428	0.6123	0.5098	-0.547
Mof_C 	C 	0.559	0.5771	0.5478	0.531
Mof_C 	C 	0.6033	0.612	0.5634	-0.209
Mof_C 	C 	0.6247	0.5778	0.605	0.109
Mof_H 	H 	0.6117	0.5341	0.6228	0.008
Mof_C 	C 	0.6663	0.6075	0.6215	-0.186
Mof_H 	H 	0.6801	0.5836	0.6498	0.089
Mof_C 	C 	0.6856	0.6711	0.5956	0.121
Mof_C 	C 	0.6644	0.7047	0.5545	-0.188
Mof_H 	H 	0.6777	0.7483	0.5368	0.088
Mof_C 	C 	0.6228	0.6763	0.5371	0.114
Mof_H 	H 	0.6092	0.7007	0.5088	-0.015
Mof_C 	C 	0.7289	0.698	0.6156	-0.069
Mof_H 	H 	0.7407	0.6629	0.6407	0.048
Mof_O 	O 	0.0466	0.9067	0.4948	-0.517
Mof_O 	O 	0.0517	0.9783	0.4192	-0.445
Mof_C 	C 	0.0631	0.9285	0.4532	0.48
Mof_C 	C 	0.106	0.885	0.4411	-0.169
Mof_C 	C 	0.1221	0.828	0.4758	0.095
Mof_H 	H 	0.1068	0.8163	0.506	-0.001
Mof_C 	C 	0.1624	0.787	0.4651	-0.171
Mof_H 	H 	0.1732	0.7486	0.4887	0.088
Mof_C 	C 	0.1854	0.8028	0.4212	0.11
Mof_C 	C 	0.1694	0.8591	0.387	-0.162
Mof_H 	H 	0.185	0.8704	0.3569	0.084
Mof_C 	C 	0.1291	0.9011	0.3965	0.086
Mof_H 	H 	0.1185	0.9393	0.3727	0.022
Mof_C 	C 	0.2269	0.7563	0.4143	-0.059
Mof_H 	H 	0.2304	0.7057	0.4311	0.049
Mof_O 	O 	0.0529	0.8245	0.8054	-0.508
Mof_O 	O 	0.0542	0.9008	0.8751	-0.458
Mof_C 	C 	0.0711	0.8508	0.8448	0.505
Mof_C 	C 	0.1168	0.8179	0.8551	-0.224
Mof_C 	C 	0.1387	0.7623	0.8241	0.13
Mof_H 	H 	0.1251	0.7422	0.7945	-0.02
Mof_C 	C 	0.1817	0.7346	0.8364	-0.204
Mof_H 	H 	0.1961	0.697	0.8151	0.098
Mof_C 	C 	0.2012	0.7642	0.8798	0.14
Mof_C 	C 	0.1798	0.8191	0.9106	-0.2
Mof_H 	H 	0.1936	0.8386	0.9403	0.096
Mof_C 	C 	0.1368	0.8476	0.8989	0.122
Mof_H 	H 	0.1227	0.8853	0.9204	-0.008
Mof_C 	C 	0.2458	0.7384	0.8956	-0.089
Mof_H 	H 	0.2504	0.7407	0.9311	0.056
Mof_O 	O 	0.4464	0.6914	0.3055	-0.614
Mof_O 	O 	0.4533	0.6301	0.3821	-0.641
Mof_C 	C 	0.4334	0.6701	0.3487	0.602
Mof_C 	C 	0.387	0.6977	0.361	-0.276
Mof_C 	C 	0.3649	0.7424	0.324	0.162
Mof_H 	H 	0.3786	0.7546	0.2929	-0.028
Mof_C 	C 	0.3213	0.7705	0.3325	-0.239
Mof_H 	H 	0.3067	0.8005	0.3072	0.105
Mof_C 	C 	0.3014	0.7529	0.3781	0.172
Mof_C 	C 	0.3234	0.7088	0.4146	-0.234
Mof_H 	H 	0.3095	0.6972	0.4458	0.109
Mof_C 	C 	0.367	0.6797	0.4073	0.164
Mof_H 	H 	0.3813	0.6497	0.4328	-0.029
Mof_C 	C 	0.2561	0.7821	0.3875	-0.127
Mof_H 	H 	0.2488	0.8297	0.3691	0.069
Mof_O 	O 	0.4582	0.5432	0.9323	-0.553
Mof_O 	O 	0.4525	0.6282	0.999	-0.581
Mof_C 	C 	0.4396	0.5978	0.9578	0.545
Mof_C 	C 	0.3968	0.6294	0.9354	-0.231
Mof_C 	C 	0.3827	0.5954	0.8895	0.133
Mof_H 	H 	0.3987	0.5544	0.8727	-0.012
Mof_C 	C 	0.3425	0.6255	0.8689	-0.209
Mof_H 	H 	0.3318	0.6039	0.8381	0.099
Mof_C 	C 	0.3198	0.6855	0.8943	0.149
Mof_C 	C 	0.3343	0.7186	0.9394	-0.211
Mof_H 	H 	0.3181	0.7596	0.9559	0.097
Mof_C 	C 	0.3744	0.6903	0.9614	0.13
Mof_H 	H 	0.3848	0.7123	0.9923	-0.014
Mof_C 	C 	0.2782	0.7143	0.871	-0.1
Mof_H 	H 	0.2762	0.7143	0.8351	0.061
Mof_O 	O 	0.454	0.5977	0.5025	-0.608
Mof_O 	O 	0.4526	0.5135	0.5723	-0.598
Mof_C 	C 	0.4393	0.5696	0.5436	0.569
Mof_C 	C 	0.3974	0.6114	0.562	-0.229
Mof_C 	C 	0.3798	0.6746	0.533	0.133
Mof_H 	H 	0.3929	0.6924	0.5025	-0.018
Mof_C 	C 	0.3406	0.7119	0.5516	-0.21
Mof_H 	H 	0.328	0.7548	0.5326	0.094
Mof_C 	C 	0.3208	0.6869	0.5959	0.146
Mof_C 	C 	0.3387	0.6244	0.6241	-0.207
Mof_H 	H 	0.3254	0.6069	0.6545	0.099
Mof_C 	C 	0.378	0.5853	0.6071	0.132
Mof_H 	H 	0.3904	0.5426	0.6263	-0.008
Mof_C 	C 	0.2801	0.7306	0.6112	-0.105
Mof_H 	H 	0.2831	0.7863	0.6022	0.062
_end
