data_functionalizedCrystal
_audit_creation_method	'EQeq! by Chris Wilmer'
_symmetry_space_group_name_H-M	'P1'
_symmetry_Int_Tables_number	1
_symmetry_cell_setting	triclinic
loop_
_symmetry_equiv_pos_as_xyz
  x,y,z
_cell_length_a	6.847
_cell_length_b	11.1912
_cell_length_c	11.1912
_cell_angle_alpha	71.9301
_cell_angle_beta	72.1871
_cell_angle_gamma	72.1871
loop_
_atom_site_label
_atom_site_type_symbol
_atom_site_fract_x
_atom_site_fract_y
_atom_site_fract_z
_atom_site_charge
Mof_Cr	Cr	-5.64841e-17	0	0.5	1.474
Mof_Cr	Cr	0.5	0	0.5	2.175
Mof_H 	H 	0.746	0.001	0.887	0.097
Mof_H 	H 	0.754	0.613	0.499	0.094
Mof_H 	H 	0.866	0.387	0.501	0.096
Mof_H 	H 	0.366	0.001	0.887	0.108
Mof_H 	H 	0.254	0.999	0.113	-0.019
Mof_H 	H 	0.134	0.613	0.499	-0.018
Mof_H 	H 	0.634	0.999	0.113	-0.026
Mof_H 	H 	0.246	0.387	0.501	-0.019
Mof_C 	C 	0.431	0.633	0.505	-0.176
Mof_C 	C 	0.642	0.227	0.489	0.685
Mof_C 	C 	0.135	0.999	0.067	0.328
Mof_C 	C 	0.701	0.433	0.501	0.037
Mof_C 	C 	0.358	0.773	0.511	0.689
Mof_C 	C 	0.142	0.989	0.727	0.535
Mof_C 	C 	0.299	0.567	0.499	0.016
Mof_C 	C 	0.201	0.001	0.933	-0.499
Mof_C 	C 	0.865	0.001	0.933	-0.276
Mof_C 	C 	0.931	0.005	0.133	-0.582
Mof_C 	C 	0.799	0.999	0.067	0.529
Mof_C 	C 	0.069	0.995	0.867	0.256
Mof_C 	C 	0.569	0.367	0.495	-0.179
Mof_C 	C 	0.858	0.011	0.273	0.831
Mof_C 	C 	0.635	0.567	0.499	0.042
Mof_C 	C 	0.365	0.433	0.501	0.016
Mof_O 	O 	0.819	0.178	0.492	-0.53
Mof_O 	O 	0.681	0.008	0.322	-0.801
Mof_O 	O 	0.319	0.992	0.678	-0.51
Mof_O 	O 	0.489	0.822	0.508	-0.59
Mof_O 	O 	0.25	0.05	0.45	-0.88
Mof_O 	O 	0.011	0.992	0.678	-0.523
Mof_O 	O 	0.989	0.008	0.322	-0.573
Mof_O 	O 	0.181	0.822	0.508	-0.575
Mof_O 	O 	0.511	0.178	0.492	-0.73
Mof_O 	O 	0.75	0.95	0.55	-0.502
_end
