data_functionalizedCrystal
_audit_creation_method	'EQeq! by Chris Wilmer'
_symmetry_space_group_name_H-M	'P1'
_symmetry_Int_Tables_number	1
_symmetry_cell_setting	triclinic
loop_
_symmetry_equiv_pos_as_xyz
  x,y,z
_cell_length_a	24.684
_cell_length_b	15.202
_cell_length_c	25.368
_cell_angle_alpha	90
_cell_angle_beta	97.78
_cell_angle_gamma	90
loop_
_atom_site_label
_atom_site_type_symbol
_atom_site_fract_x
_atom_site_fract_y
_atom_site_fract_z
_atom_site_charge
Mof_Fe	Fe	0.153	0.17319	0.152	0.701
Mof_Ni	Ni	0.2289	0.41505	0.27964	1.066
Mof_N 	N 	0.10977	0.0533	0.05856	-0.055
Mof_N 	N 	0.06121	0.3066	0.11999	-0.088
Mof_N 	N 	0.22748	0.2518	0.07716	-0.195
Mof_N 	N 	0.19633	0.3005	0.24099	-0.197
Mof_N 	N 	0.07801	0.0941	0.22508	-0.194
Mof_N 	N 	0.23849	0.0318	0.18426	-0.194
Mof_N 	N 	0.29728	0.1401	0.01731	-0.267
Mof_H 	H 	0.3165	0.1315	0.9901	0.114
Mof_N 	N 	0.18695	0.1628	0.97811	-0.235
Mof_H 	H 	0.1668	0.1592	0.0051	0.088
Mof_N 	N 	0.2537	0.3495	0.3515	-0.275
Mof_H 	H 	0.2776	0.3847	0.3714	0.106
Mof_N 	N 	0.198	0.4842	0.209	-0.247
Mof_H 	H 	0.1734	0.4494	0.1896	0.101
Mof_N 	N 	0.15783	0.4307	0.3119	-0.249
Mof_H 	H 	0.1359	0.3876	0.297	0.087
Mof_N 	N 	0.29936	0.4041	0.24417	-0.259
Mof_H 	H 	0.3232	0.4458	0.2576	0.102
Mof_C 	C 	0.18042	0.2516	0.20786	-0.11
Mof_C 	C 	0.12481	0.0992	0.09407	-0.131
Mof_C 	C 	0.10707	0.1201	0.19732	-0.114
Mof_C 	C 	0.09601	0.2567	0.13175	-0.133
Mof_C 	C 	0.19912	0.2256	0.10672	-0.118
Mof_C 	C 	0.20742	0.0875	0.17252	-0.11
Mof_C 	C 	0.2138	0.0775	0.9729	-0.06
Mof_H 	H 	0.1879	0.0307	0.9743	0.077
Mof_H 	H 	0.2277	0.0742	0.9394	0.04
Mof_C 	C 	0.2572	0.0659	0.0182	-0.134
Mof_H 	H 	0.2428	0.0649	0.0515	0.062
Mof_H 	H 	0.2761	0.0115	0.0146	0.061
Mof_C 	C 	0.1487	0.1935	0.93067	-0.054
Mof_H 	H 	0.1695	0.1951	0.9014	0.043
Mof_H 	H 	0.1201	0.151	0.9223	0.076
Mof_C 	C 	0.33816	0.1476	0.06539	-0.056
Mof_H 	H 	0.3591	0.0943	0.07	0.052
Mof_H 	H 	0.3184	0.1535	0.0953	0.045
Mof_C 	C 	0.1671	0.5658	0.2211	-0.039
Mof_H 	H 	0.1564	0.595	0.1878	0.062
Mof_H 	H 	0.1917	0.6034	0.2434	0.039
Mof_C 	C 	0.2498	0.4984	0.1783	-0.101
Mof_H 	H 	0.2699	0.5499	0.1912	0.054
Mof_H 	H 	0.2366	0.506	0.1412	0.056
Mof_C 	C 	0.2802	0.4251	0.18444	-0.089
Mof_H 	H 	0.2599	0.3756	0.1687	0.048
Mof_H 	H 	0.312	0.4321	0.1668	0.053
Mof_C 	C 	0.3244	0.3236	0.2543	-0.019
Mof_H 	H 	0.3575	0.3216	0.2383	0.045
Mof_H 	H 	0.3	0.281	0.236	0.03
Mof_C 	C 	0.2847	0.2923	0.3334	0.003
Mof_H 	H 	0.2595	0.2642	0.3064	0.002
Mof_H 	H 	0.2913	0.2508	0.3621	0.042
Mof_C 	C 	0.2073	0.3351	0.377	0.027
Mof_H 	H 	0.2189	0.3318	0.4146	0.021
Mof_H 	H 	0.1891	0.281	0.3661	0.013
Mof_C 	C 	0.1738	0.4022	0.3706	-0.19
Mof_H 	H 	0.1408	0.3862	0.3843	0.084
Mof_H 	H 	0.1888	0.4522	0.3905	0.078
Mof_C 	C 	0.1289	0.5006	0.2997	-0.02
Mof_H 	H 	0.1455	0.5456	0.323	0.038
Mof_H 	H 	0.0929	0.4908	0.309	0.045
Mof_N 	N 	0.022	0.2015	0.30167	-0.26
Mof_H 	H 	0.9949	0.2089	0.3217	0.12
Mof_C 	C 	0.0236	0.2789	0.2696	-0.125
Mof_H 	H 	0.0567	0.2798	0.2535	0.055
Mof_H 	H 	0.0232	0.3295	0.2921	0.061
Mof_N 	N 	0.02444	0.003	0.30694	-0.26
Mof_H 	H 	0.9966	0.9983	0.3263	0.128
Mof_C 	C 	0.0207	0.9258	0.2763	-0.144
Mof_H 	H 	0.0127	0.877	0.298	0.082
Mof_H 	H 	0.0562	0.9158	0.2661	0.068
Mof_C 	C 	0.0742	0.0333	0.3475	-0.083
Mof_H 	H 	0.1061	0.0288	0.3299	0.054
Mof_H 	H 	0.0784	0.9918	0.3763	0.092
Mof_C 	C 	0.0735	0.1888	0.3383	-0.044
Mof_H 	H 	0.0794	0.2402	0.3602	0.046
Mof_H 	H 	0.1035	0.1843	0.3179	0.039
Mof_N 	N 	0.07301	0.1172	0.36957	-0.059
Mof_C 	C 	0.0328	0.1166	0.40901	-0.345
Mof_H 	H 	0.9982	0.0983	0.3904	0.16
Mof_H 	H 	0.0288	0.1769	0.4191	0.135
Mof_C 	C 	0.0474	0.0722	0.4577	0.334
Mof_O 	O 	0.0996	0.0748	0.479	-0.196
Mof_O 	O 	0.0566	0.9916	0.4582	-0.211
Mof_N 	N 	0.12553	0.2791	0.93555	-0.084
Mof_C 	C 	0.0907	0.2834	0.9778	-0.113
Mof_H 	H 	0.1116	0.2658	0.0108	0.045
Mof_H 	H 	0.0814	0.3443	0.9812	0.083
Mof_C 	C 	0.041	0.2317	0.9677	0.134
Mof_O 	O 	0.0137	0.2455	0.9179	-0.167
Mof_N 	N 	0.12062	0.5374	0.2414	-0.109
Mof_C 	C 	0.077	0.4892	0.2093	0.02
Mof_C 	C 	0.0446	0.4878	0.1527	0.052
Mof_O 	O 	0.0359	0.5813	0.1535	-0.161
Mof_N 	N 	0.33492	0.3029	0.3126	-0.124
Mof_C 	C 	0.3662	0.3846	0.3223	-0.029
Mof_C 	C 	0.1086	0.7972	0.1605	0.032
Mof_C 	C 	0.4119	0.3806	0.3704	0.08
Mof_O 	O 	0.46258	0.4175	0.3969	-0.15
Mof_Fe	Fe	0.653	0.67319	0.152	0.702
Mof_Ni	Ni	0.7289	0.91505	0.27964	1.067
Mof_N 	N 	0.60977	0.5533	0.05856	-0.054
Mof_N 	N 	0.56121	0.8066	0.11999	-0.083
Mof_N 	N 	0.72748	0.7518	0.07716	-0.194
Mof_N 	N 	0.69633	0.8005	0.24099	-0.196
Mof_N 	N 	0.57801	0.5941	0.22508	-0.192
Mof_N 	N 	0.73849	0.5318	0.18426	-0.193
Mof_N 	N 	0.79728	0.6401	0.01731	-0.266
Mof_H 	H 	0.8165	0.6315	0.9901	0.115
Mof_N 	N 	0.68695	0.6628	0.97811	-0.233
Mof_H 	H 	0.6668	0.6592	0.0051	0.088
Mof_N 	N 	0.7537	0.8495	0.3515	-0.275
Mof_H 	H 	0.7776	0.8847	0.3714	0.108
Mof_N 	N 	0.698	0.9842	0.209	-0.246
Mof_H 	H 	0.6734	0.9494	0.1896	0.102
Mof_N 	N 	0.65783	0.9307	0.3119	-0.247
Mof_H 	H 	0.6359	0.8876	0.297	0.089
Mof_N 	N 	0.79936	0.9041	0.24417	-0.259
Mof_H 	H 	0.8232	0.9458	0.2576	0.103
Mof_C 	C 	0.68042	0.7516	0.20786	-0.108
Mof_C 	C 	0.62481	0.5992	0.09407	-0.13
Mof_C 	C 	0.60707	0.6201	0.19732	-0.113
Mof_C 	C 	0.59601	0.7567	0.13175	-0.132
Mof_C 	C 	0.69912	0.7256	0.10672	-0.118
Mof_C 	C 	0.70742	0.5875	0.17252	-0.11
Mof_C 	C 	0.7138	0.5775	0.9729	-0.059
Mof_H 	H 	0.6879	0.5307	0.9743	0.077
Mof_H 	H 	0.7277	0.5742	0.9394	0.04
Mof_C 	C 	0.7572	0.5659	0.0182	-0.135
Mof_H 	H 	0.7428	0.5649	0.0515	0.062
Mof_H 	H 	0.7761	0.5115	0.0146	0.061
Mof_C 	C 	0.6487	0.6935	0.93067	-0.055
Mof_H 	H 	0.6695	0.6951	0.9014	0.043
Mof_H 	H 	0.6201	0.651	0.9223	0.077
Mof_C 	C 	0.83816	0.6476	0.06539	-0.057
Mof_H 	H 	0.8591	0.5943	0.07	0.054
Mof_H 	H 	0.8184	0.6535	0.0953	0.045
Mof_C 	C 	0.6671	0.0658	0.2211	-0.039
Mof_H 	H 	0.6564	0.095	0.1878	0.063
Mof_H 	H 	0.6917	0.1034	0.2434	0.04
Mof_C 	C 	0.7498	0.9984	0.1783	-0.107
Mof_H 	H 	0.7699	0.0499	0.1912	0.056
Mof_H 	H 	0.7366	0.006	0.1412	0.059
Mof_C 	C 	0.7802	0.9251	0.18444	-0.086
Mof_H 	H 	0.7599	0.8756	0.1687	0.047
Mof_H 	H 	0.812	0.9321	0.1668	0.051
Mof_C 	C 	0.8244	0.8236	0.2543	-0.019
Mof_H 	H 	0.8575	0.8216	0.2383	0.046
Mof_H 	H 	0.8	0.781	0.236	0.03
Mof_C 	C 	0.7847	0.7923	0.3334	0.003
Mof_H 	H 	0.7595	0.7642	0.3064	0.002
Mof_H 	H 	0.7913	0.7508	0.3621	0.042
Mof_C 	C 	0.7073	0.8351	0.377	0.029
Mof_H 	H 	0.7189	0.8318	0.4146	0.021
Mof_H 	H 	0.6891	0.781	0.3661	0.013
Mof_C 	C 	0.6738	0.9022	0.3706	-0.192
Mof_H 	H 	0.6408	0.8862	0.3843	0.087
Mof_H 	H 	0.6888	0.9522	0.3905	0.079
Mof_C 	C 	0.6289	0.0006	0.2997	-0.02
Mof_H 	H 	0.6455	0.0456	0.323	0.039
Mof_H 	H 	0.5929	0.9908	0.309	0.048
Mof_N 	N 	0.522	0.7015	0.30167	-0.248
Mof_H 	H 	0.4949	0.7089	0.3217	0.101
Mof_C 	C 	0.5236	0.7789	0.2696	-0.079
Mof_H 	H 	0.5567	0.7798	0.2535	0.043
Mof_H 	H 	0.5232	0.8295	0.2921	0.055
Mof_N 	N 	0.52444	0.503	0.30694	-0.247
Mof_H 	H 	0.4966	0.4983	0.3263	0.11
Mof_C 	C 	0.5207	0.4258	0.2763	-0.115
Mof_H 	H 	0.5127	0.377	0.298	0.082
Mof_H 	H 	0.5562	0.4158	0.2661	0.062
Mof_C 	C 	0.5742	0.5333	0.3475	-0.078
Mof_H 	H 	0.6061	0.5288	0.3299	0.052
Mof_H 	H 	0.5784	0.4918	0.3763	0.092
Mof_C 	C 	0.5735	0.6888	0.3383	-0.04
Mof_H 	H 	0.5794	0.7402	0.3602	0.048
Mof_H 	H 	0.6035	0.6843	0.3179	0.037
Mof_N 	N 	0.57301	0.6172	0.36957	-0.064
Mof_C 	C 	0.5328	0.6166	0.40901	-0.293
Mof_H 	H 	0.4982	0.5983	0.3904	0.13
Mof_H 	H 	0.5288	0.6769	0.4191	0.128
Mof_C 	C 	0.5474	0.5722	0.4577	0.325
Mof_O 	O 	0.5996	0.5748	0.479	-0.193
Mof_O 	O 	0.5566	0.4916	0.4582	-0.202
Mof_N 	N 	0.62553	0.7791	0.93555	-0.082
Mof_C 	C 	0.5907	0.7834	0.9778	-0.116
Mof_H 	H 	0.6116	0.7658	0.0108	0.046
Mof_H 	H 	0.5814	0.8443	0.9812	0.086
Mof_C 	C 	0.541	0.7317	0.9677	0.141
Mof_O 	O 	0.5137	0.7455	0.9179	-0.156
Mof_N 	N 	0.62062	0.0374	0.2414	-0.108
Mof_C 	C 	0.577	0.9892	0.2093	0.023
Mof_C 	C 	0.5446	0.9878	0.1527	0.058
Mof_O 	O 	0.5359	0.0813	0.1535	-0.152
Mof_N 	N 	0.83492	0.8029	0.3126	-0.125
Mof_C 	C 	0.8662	0.8846	0.3223	-0.029
Mof_C 	C 	0.6086	0.2972	0.1605	0.037
Mof_C 	C 	0.9119	0.8806	0.3704	0.081
Mof_O 	O 	0.96258	0.9175	0.3969	-0.14
Mof_Fe	Fe	0.847	0.17319	0.348	0.702
Mof_Ni	Ni	0.7711	0.41505	0.22036	1.067
Mof_N 	N 	0.89023	0.0533	0.44144	-0.046
Mof_N 	N 	0.93879	0.3066	0.38001	-0.078
Mof_N 	N 	0.77252	0.2518	0.42284	-0.193
Mof_N 	N 	0.80367	0.3005	0.25901	-0.196
Mof_N 	N 	0.92199	0.0941	0.27492	-0.189
Mof_N 	N 	0.76151	0.0318	0.31574	-0.193
Mof_N 	N 	0.70272	0.1401	0.48269	-0.253
Mof_H 	H 	0.6835	0.1315	0.5099	0.095
Mof_N 	N 	0.81305	0.1628	0.52189	-0.248
Mof_H 	H 	0.8332	0.1592	0.4949	0.108
Mof_N 	N 	0.7463	0.3495	0.1485	-0.276
Mof_H 	H 	0.7224	0.3847	0.1286	0.106
Mof_N 	N 	0.802	0.4842	0.291	-0.246
Mof_H 	H 	0.8266	0.4494	0.3104	0.103
Mof_N 	N 	0.84217	0.4307	0.1881	-0.246
Mof_H 	H 	0.8641	0.3876	0.203	0.09
Mof_N 	N 	0.70064	0.4041	0.25583	-0.259
Mof_H 	H 	0.6768	0.4458	0.2424	0.103
Mof_C 	C 	0.81958	0.2516	0.29214	-0.108
Mof_C 	C 	0.87519	0.0992	0.40593	-0.128
Mof_C 	C 	0.89293	0.1201	0.30268	-0.113
Mof_C 	C 	0.90399	0.2567	0.36825	-0.13
Mof_C 	C 	0.80088	0.2256	0.39328	-0.118
Mof_C 	C 	0.79258	0.0875	0.32748	-0.11
Mof_C 	C 	0.7862	0.0775	0.5271	-0.1
Mof_H 	H 	0.8121	0.0307	0.5257	0.083
Mof_H 	H 	0.7723	0.0742	0.5606	0.05
Mof_C 	C 	0.7428	0.0659	0.4818	-0.096
Mof_H 	H 	0.7572	0.0649	0.4485	0.053
Mof_H 	H 	0.7239	0.0115	0.4854	0.056
Mof_C 	C 	0.8513	0.1935	0.56933	-0.061
Mof_H 	H 	0.8305	0.1951	0.5986	0.046
Mof_H 	H 	0.8799	0.151	0.5777	0.079
Mof_C 	C 	0.66184	0.1476	0.43461	-0.052
Mof_H 	H 	0.6409	0.0943	0.43	0.053
Mof_H 	H 	0.6816	0.1535	0.4047	0.043
Mof_C 	C 	0.8329	0.5658	0.2789	-0.04
Mof_H 	H 	0.8436	0.595	0.3122	0.064
Mof_H 	H 	0.8083	0.6034	0.2566	0.04
Mof_C 	C 	0.7502	0.4984	0.3217	-0.103
Mof_H 	H 	0.7301	0.5499	0.3088	0.055
Mof_H 	H 	0.7634	0.506	0.3588	0.059
Mof_C 	C 	0.7198	0.4251	0.31556	-0.088
Mof_H 	H 	0.7401	0.3756	0.3313	0.048
Mof_H 	H 	0.688	0.4321	0.3332	0.053
Mof_C 	C 	0.6756	0.3236	0.2457	-0.019
Mof_H 	H 	0.6425	0.3216	0.2617	0.045
Mof_H 	H 	0.7	0.281	0.264	0.03
Mof_C 	C 	0.7153	0.2923	0.1666	0.004
Mof_H 	H 	0.7405	0.2642	0.1936	0.001
Mof_H 	H 	0.7087	0.2508	0.1379	0.039
Mof_C 	C 	0.7927	0.3351	0.123	0.034
Mof_H 	H 	0.7811	0.3318	0.0854	0.016
Mof_H 	H 	0.8109	0.281	0.1339	0.011
Mof_C 	C 	0.8262	0.4022	0.1294	-0.196
Mof_H 	H 	0.8592	0.3862	0.1157	0.088
Mof_H 	H 	0.8112	0.4522	0.1095	0.079
Mof_C 	C 	0.8711	0.5006	0.2003	-0.024
Mof_H 	H 	0.8545	0.5456	0.177	0.041
Mof_H 	H 	0.9071	0.4908	0.191	0.053
Mof_N 	N 	0.978	0.2015	0.19833	-0.235
Mof_H 	H 	0.0051	0.2089	0.1783	0.082
Mof_C 	C 	0.9764	0.2789	0.2304	-0.031
Mof_H 	H 	0.9433	0.2798	0.2465	0.031
Mof_H 	H 	0.9768	0.3295	0.2079	0.048
Mof_N 	N 	0.97556	0.003	0.19306	-0.232
Mof_H 	H 	0.0034	0.9983	0.1737	0.091
Mof_C 	C 	0.9793	0.9258	0.2237	-0.085
Mof_H 	H 	0.9873	0.877	0.202	0.082
Mof_H 	H 	0.9438	0.9158	0.2339	0.056
Mof_C 	C 	0.9258	0.0333	0.1525	-0.069
Mof_H 	H 	0.8939	0.0288	0.1701	0.049
Mof_H 	H 	0.9216	0.9918	0.1237	0.09
Mof_C 	C 	0.9265	0.1888	0.1617	-0.034
Mof_H 	H 	0.9206	0.2402	0.1398	0.047
Mof_H 	H 	0.8965	0.1843	0.1821	0.035
Mof_N 	N 	0.92699	0.1172	0.13043	-0.07
Mof_C 	C 	0.9672	0.1166	0.09099	-0.238
Mof_H 	H 	0.0018	0.0983	0.1096	0.098
Mof_H 	H 	0.9712	0.1769	0.0809	0.116
Mof_C 	C 	0.9526	0.0722	0.0423	0.312
Mof_O 	O 	0.9004	0.0748	0.021	-0.199
Mof_O 	O 	0.9434	0.9916	0.0418	-0.2
Mof_N 	N 	0.87447	0.2791	0.56445	-0.076
Mof_C 	C 	0.9093	0.2834	0.5222	-0.169
Mof_H 	H 	0.8884	0.2658	0.4892	0.078
Mof_H 	H 	0.9186	0.3443	0.5188	0.098
Mof_C 	C 	0.959	0.2317	0.5323	0.148
Mof_O 	O 	0.9863	0.2455	0.5821	-0.149
Mof_N 	N 	0.87938	0.5374	0.2586	-0.107
Mof_C 	C 	0.923	0.4892	0.2907	0.026
Mof_C 	C 	0.9554	0.4878	0.3473	0.068
Mof_O 	O 	0.9641	0.5813	0.3465	-0.143
Mof_N 	N 	0.66508	0.3029	0.1874	-0.125
Mof_C 	C 	0.6338	0.3846	0.1777	-0.028
Mof_C 	C 	0.8914	0.7972	0.3395	0.044
Mof_C 	C 	0.5881	0.3806	0.1296	0.078
Mof_O 	O 	0.53742	0.4175	0.1031	-0.153
Mof_Fe	Fe	0.347	0.67319	0.348	0.702
Mof_Ni	Ni	0.2711	0.91505	0.22036	1.067
Mof_N 	N 	0.39023	0.5533	0.44144	-0.047
Mof_N 	N 	0.43879	0.8066	0.38001	-0.081
Mof_N 	N 	0.27252	0.7518	0.42284	-0.193
Mof_N 	N 	0.30367	0.8005	0.25901	-0.196
Mof_N 	N 	0.42199	0.5941	0.27492	-0.192
Mof_N 	N 	0.26151	0.5318	0.31574	-0.193
Mof_N 	N 	0.20272	0.6401	0.48269	-0.253
Mof_H 	H 	0.1835	0.6315	0.5099	0.094
Mof_N 	N 	0.31305	0.6628	0.52189	-0.248
Mof_H 	H 	0.3332	0.6592	0.4949	0.108
Mof_N 	N 	0.2463	0.8495	0.1485	-0.275
Mof_H 	H 	0.2224	0.8847	0.1286	0.106
Mof_N 	N 	0.302	0.9842	0.291	-0.246
Mof_H 	H 	0.3266	0.9494	0.3104	0.103
Mof_N 	N 	0.34217	0.9307	0.1881	-0.248
Mof_H 	H 	0.3641	0.8876	0.203	0.089
Mof_N 	N 	0.20064	0.9041	0.25583	-0.259
Mof_H 	H 	0.1768	0.9458	0.2424	0.103
Mof_C 	C 	0.31958	0.7516	0.29214	-0.108
Mof_C 	C 	0.37519	0.5992	0.40593	-0.129
Mof_C 	C 	0.39293	0.6201	0.30268	-0.113
Mof_C 	C 	0.40399	0.7567	0.36825	-0.131
Mof_C 	C 	0.30088	0.7256	0.39328	-0.118
Mof_C 	C 	0.29258	0.5875	0.32748	-0.11
Mof_C 	C 	0.2862	0.5775	0.5271	-0.1
Mof_H 	H 	0.3121	0.5307	0.5257	0.083
Mof_H 	H 	0.2723	0.5742	0.5606	0.05
Mof_C 	C 	0.2428	0.5659	0.4818	-0.095
Mof_H 	H 	0.2572	0.5649	0.4485	0.052
Mof_H 	H 	0.2239	0.5115	0.4854	0.056
Mof_C 	C 	0.3513	0.6935	0.56933	-0.061
Mof_H 	H 	0.3305	0.6951	0.5986	0.045
Mof_H 	H 	0.3799	0.651	0.5777	0.078
Mof_C 	C 	0.16184	0.6476	0.43461	-0.051
Mof_H 	H 	0.1409	0.5943	0.43	0.051
Mof_H 	H 	0.1816	0.6535	0.4047	0.042
Mof_C 	C 	0.3329	0.0658	0.2789	-0.04
Mof_H 	H 	0.3436	0.095	0.3122	0.063
Mof_H 	H 	0.3083	0.1034	0.2566	0.04
Mof_C 	C 	0.2502	0.9984	0.3217	-0.106
Mof_H 	H 	0.2301	0.0499	0.3088	0.056
Mof_H 	H 	0.2634	0.006	0.3588	0.06
Mof_C 	C 	0.2198	0.9251	0.31556	-0.086
Mof_H 	H 	0.2401	0.8756	0.3313	0.047
Mof_H 	H 	0.188	0.9321	0.3332	0.052
Mof_C 	C 	0.1756	0.8236	0.2457	-0.018
Mof_H 	H 	0.1425	0.8216	0.2617	0.043
Mof_H 	H 	0.2	0.781	0.264	0.03
Mof_C 	C 	0.2153	0.7923	0.1666	0.004
Mof_H 	H 	0.2405	0.7642	0.1936	0.001
Mof_H 	H 	0.2087	0.7508	0.1379	0.039
Mof_C 	C 	0.2927	0.8351	0.123	0.031
Mof_H 	H 	0.2811	0.8318	0.0854	0.016
Mof_H 	H 	0.3109	0.781	0.1339	0.011
Mof_C 	C 	0.3262	0.9022	0.1294	-0.193
Mof_H 	H 	0.3592	0.8862	0.1157	0.085
Mof_H 	H 	0.3112	0.9522	0.1095	0.077
Mof_C 	C 	0.3711	0.0006	0.2003	-0.019
Mof_H 	H 	0.3545	0.0456	0.177	0.038
Mof_H 	H 	0.4071	0.9908	0.191	0.048
Mof_N 	N 	0.478	0.7015	0.19833	-0.248
Mof_H 	H 	0.5051	0.7089	0.1783	0.1
Mof_C 	C 	0.4764	0.7789	0.2304	-0.078
Mof_H 	H 	0.4433	0.7798	0.2465	0.043
Mof_H 	H 	0.4768	0.8295	0.2079	0.054
Mof_N 	N 	0.47556	0.503	0.19306	-0.247
Mof_H 	H 	0.5034	0.4983	0.1737	0.11
Mof_C 	C 	0.4793	0.4258	0.2237	-0.115
Mof_H 	H 	0.4873	0.377	0.202	0.082
Mof_H 	H 	0.4438	0.4158	0.2339	0.062
Mof_C 	C 	0.4258	0.5333	0.1525	-0.077
Mof_H 	H 	0.3939	0.5288	0.1701	0.052
Mof_H 	H 	0.4216	0.4918	0.1237	0.092
Mof_C 	C 	0.4265	0.6888	0.1617	-0.039
Mof_H 	H 	0.4206	0.7402	0.1398	0.046
Mof_H 	H 	0.3965	0.6843	0.1821	0.037
Mof_N 	N 	0.42699	0.6172	0.13043	-0.065
Mof_C 	C 	0.4672	0.6166	0.09099	-0.289
Mof_H 	H 	0.5018	0.5983	0.1096	0.128
Mof_H 	H 	0.4712	0.6769	0.0809	0.124
Mof_C 	C 	0.4526	0.5722	0.0423	0.32
Mof_O 	O 	0.4004	0.5748	0.021	-0.202
Mof_O 	O 	0.4434	0.4916	0.0418	-0.207
Mof_N 	N 	0.37447	0.7791	0.56445	-0.077
Mof_C 	C 	0.4093	0.7834	0.5222	-0.165
Mof_H 	H 	0.3884	0.7658	0.4892	0.076
Mof_H 	H 	0.4186	0.8443	0.5188	0.094
Mof_C 	C 	0.459	0.7317	0.5323	0.141
Mof_O 	O 	0.4863	0.7455	0.5821	-0.159
Mof_N 	N 	0.37938	0.0374	0.2586	-0.108
Mof_C 	C 	0.423	0.9892	0.2907	0.023
Mof_C 	C 	0.4554	0.9878	0.3473	0.061
Mof_O 	O 	0.4641	0.0813	0.3465	-0.151
Mof_N 	N 	0.16508	0.8029	0.1874	-0.125
Mof_C 	C 	0.1338	0.8846	0.1777	-0.028
Mof_C 	C 	0.3914	0.2972	0.3395	0.039
Mof_C 	C 	0.0881	0.8806	0.1296	0.076
Mof_O 	O 	0.03742	0.9175	0.1031	-0.163
Mof_Fe	Fe	0.847	0.82681	0.848	0.703
Mof_Ni	Ni	0.7711	0.58495	0.72036	1.067
Mof_N 	N 	0.89023	0.9467	0.94144	-0.04
Mof_N 	N 	0.93879	0.6934	0.88001	-0.076
Mof_N 	N 	0.77252	0.7482	0.92284	-0.19
Mof_N 	N 	0.80367	0.6995	0.75901	-0.196
Mof_N 	N 	0.92199	0.9059	0.77492	-0.189
Mof_N 	N 	0.76151	0.9682	0.81574	-0.193
Mof_N 	N 	0.70272	0.8599	0.98269	-0.237
Mof_H 	H 	0.6835	0.8685	0.0099	0.074
Mof_N 	N 	0.81305	0.8372	0.02189	-0.261
Mof_H 	H 	0.8332	0.8408	0.9949	0.127
Mof_N 	N 	0.7463	0.6505	0.6485	-0.275
Mof_H 	H 	0.7224	0.6153	0.6286	0.108
Mof_N 	N 	0.802	0.5158	0.791	-0.246
Mof_H 	H 	0.8266	0.5506	0.8104	0.103
Mof_N 	N 	0.84217	0.5693	0.6881	-0.246
Mof_H 	H 	0.8641	0.6124	0.703	0.09
Mof_N 	N 	0.70064	0.5959	0.75583	-0.259
Mof_H 	H 	0.6768	0.5542	0.7424	0.103
Mof_C 	C 	0.81958	0.7484	0.79214	-0.108
Mof_C 	C 	0.87519	0.9008	0.90593	-0.127
Mof_C 	C 	0.89293	0.8799	0.80268	-0.113
Mof_C 	C 	0.90399	0.7433	0.86825	-0.129
Mof_C 	C 	0.80088	0.7744	0.89328	-0.117
Mof_C 	C 	0.79258	0.9125	0.82748	-0.109
Mof_C 	C 	0.7862	0.9225	0.0271	-0.14
Mof_H 	H 	0.8121	0.9693	0.0257	0.088
Mof_H 	H 	0.7723	0.9258	0.0606	0.059
Mof_C 	C 	0.7428	0.9341	0.9818	-0.055
Mof_H 	H 	0.7572	0.9351	0.9485	0.043
Mof_H 	H 	0.7239	0.9885	0.9854	0.052
Mof_C 	C 	0.8513	0.8065	0.06933	-0.066
Mof_H 	H 	0.8305	0.8049	0.0986	0.048
Mof_H 	H 	0.8799	0.849	0.0777	0.079
Mof_C 	C 	0.66184	0.8524	0.93461	-0.047
Mof_H 	H 	0.6409	0.9057	0.93	0.054
Mof_H 	H 	0.6816	0.8465	0.9047	0.042
Mof_C 	C 	0.8329	0.4342	0.7789	-0.041
Mof_H 	H 	0.8436	0.405	0.8122	0.065
Mof_H 	H 	0.8083	0.3966	0.7566	0.04
Mof_C 	C 	0.7502	0.5016	0.8217	-0.105
Mof_H 	H 	0.7301	0.4501	0.8088	0.056
Mof_H 	H 	0.7634	0.494	0.8588	0.062
Mof_C 	C 	0.7198	0.5749	0.81556	-0.087
Mof_H 	H 	0.7401	0.6244	0.8313	0.048
Mof_H 	H 	0.688	0.5679	0.8332	0.053
Mof_C 	C 	0.6756	0.6764	0.7457	-0.019
Mof_H 	H 	0.6425	0.6784	0.7617	0.045
Mof_H 	H 	0.7	0.719	0.764	0.03
Mof_C 	C 	0.7153	0.7077	0.6666	0.004
Mof_H 	H 	0.7405	0.7358	0.6936	0.002
Mof_H 	H 	0.7087	0.7492	0.6379	0.042
Mof_C 	C 	0.7927	0.6649	0.623	0.031
Mof_H 	H 	0.7811	0.6682	0.5854	0.02
Mof_H 	H 	0.8109	0.719	0.6339	0.013
Mof_C 	C 	0.8262	0.5978	0.6294	-0.195
Mof_H 	H 	0.8592	0.6138	0.6157	0.09
Mof_H 	H 	0.8112	0.5478	0.6095	0.08
Mof_C 	C 	0.8711	0.4994	0.7003	-0.024
Mof_H 	H 	0.8545	0.4544	0.677	0.041
Mof_H 	H 	0.9071	0.5092	0.691	0.053
Mof_N 	N 	0.978	0.7985	0.69833	-0.235
Mof_H 	H 	0.0051	0.7911	0.6783	0.082
Mof_C 	C 	0.9764	0.7211	0.7304	-0.032
Mof_H 	H 	0.9433	0.7202	0.7465	0.031
Mof_H 	H 	0.9768	0.6705	0.7079	0.048
Mof_N 	N 	0.97556	0.997	0.69306	-0.233
Mof_H 	H 	0.0034	0.0017	0.6737	0.091
Mof_C 	C 	0.9793	0.0742	0.7237	-0.086
Mof_H 	H 	0.9873	0.123	0.702	0.082
Mof_H 	H 	0.9438	0.0842	0.7339	0.056
Mof_C 	C 	0.9258	0.9667	0.6525	-0.071
Mof_H 	H 	0.8939	0.9712	0.6701	0.05
Mof_H 	H 	0.9216	0.0082	0.6237	0.091
Mof_C 	C 	0.9265	0.8112	0.6617	-0.035
Mof_H 	H 	0.9206	0.7598	0.6398	0.049
Mof_H 	H 	0.8965	0.8157	0.6821	0.036
Mof_N 	N 	0.92699	0.8828	0.63043	-0.069
Mof_C 	C 	0.9672	0.8834	0.59099	-0.242
Mof_H 	H 	0.0018	0.9017	0.6096	0.1
Mof_H 	H 	0.9712	0.8231	0.5809	0.12
Mof_C 	C 	0.9526	0.9278	0.5423	0.316
Mof_O 	O 	0.9004	0.9252	0.521	-0.191
Mof_O 	O 	0.9434	0.0084	0.5418	-0.194
Mof_N 	N 	0.87447	0.7209	0.06445	-0.071
Mof_C 	C 	0.9093	0.7166	0.0222	-0.218
Mof_H 	H 	0.8884	0.7342	0.9892	0.107
Mof_H 	H 	0.9186	0.6557	0.0188	0.106
Mof_C 	C 	0.959	0.7683	0.0323	0.148
Mof_O 	O 	0.9863	0.7545	0.0821	-0.151
Mof_N 	N 	0.87938	0.4626	0.7586	-0.107
Mof_C 	C 	0.923	0.5108	0.7907	0.026
Mof_C 	C 	0.9554	0.5122	0.8473	0.071
Mof_O 	O 	0.9641	0.4187	0.8465	-0.142
Mof_N 	N 	0.66508	0.6971	0.6874	-0.124
Mof_C 	C 	0.6338	0.6154	0.6777	-0.029
Mof_C 	C 	0.8914	0.2028	0.8395	0.045
Mof_C 	C 	0.5881	0.6194	0.6296	0.08
Mof_O 	O 	0.53742	0.5825	0.6031	-0.15
Mof_Fe	Fe	0.347	0.32681	0.848	0.702
Mof_Ni	Ni	0.2711	0.08495	0.72036	1.067
Mof_N 	N 	0.39023	0.4467	0.94144	-0.041
Mof_N 	N 	0.43879	0.1934	0.88001	-0.079
Mof_N 	N 	0.27252	0.2482	0.92284	-0.19
Mof_N 	N 	0.30367	0.1995	0.75901	-0.196
Mof_N 	N 	0.42199	0.4059	0.77492	-0.192
Mof_N 	N 	0.26151	0.4682	0.81574	-0.193
Mof_N 	N 	0.20272	0.3599	0.98269	-0.237
Mof_H 	H 	0.1835	0.3685	0.0099	0.074
Mof_N 	N 	0.31305	0.3372	0.02189	-0.261
Mof_H 	H 	0.3332	0.3408	0.9949	0.127
Mof_N 	N 	0.2463	0.1505	0.6485	-0.275
Mof_H 	H 	0.2224	0.1153	0.6286	0.107
Mof_N 	N 	0.302	0.0158	0.791	-0.246
Mof_H 	H 	0.3266	0.0506	0.8104	0.103
Mof_N 	N 	0.34217	0.0693	0.6881	-0.247
Mof_H 	H 	0.3641	0.1124	0.703	0.089
Mof_N 	N 	0.20064	0.0959	0.75583	-0.259
Mof_H 	H 	0.1768	0.0542	0.7424	0.103
Mof_C 	C 	0.31958	0.2484	0.79214	-0.108
Mof_C 	C 	0.37519	0.4008	0.90593	-0.128
Mof_C 	C 	0.39293	0.3799	0.80268	-0.113
Mof_C 	C 	0.40399	0.2433	0.86825	-0.13
Mof_C 	C 	0.30088	0.2744	0.89328	-0.117
Mof_C 	C 	0.29258	0.4125	0.82748	-0.109
Mof_C 	C 	0.2862	0.4225	0.0271	-0.14
Mof_H 	H 	0.3121	0.4693	0.0257	0.088
Mof_H 	H 	0.2723	0.4258	0.0606	0.059
Mof_C 	C 	0.2428	0.4341	0.9818	-0.055
Mof_H 	H 	0.2572	0.4351	0.9485	0.043
Mof_H 	H 	0.2239	0.4885	0.9854	0.051
Mof_C 	C 	0.3513	0.3065	0.06933	-0.065
Mof_H 	H 	0.3305	0.3049	0.0986	0.047
Mof_H 	H 	0.3799	0.349	0.0777	0.078
Mof_C 	C 	0.16184	0.3524	0.93461	-0.046
Mof_H 	H 	0.1409	0.4057	0.93	0.052
Mof_H 	H 	0.1816	0.3465	0.9047	0.041
Mof_C 	C 	0.3329	0.9342	0.7789	-0.04
Mof_H 	H 	0.3436	0.905	0.8122	0.065
Mof_H 	H 	0.3083	0.8966	0.7566	0.04
Mof_C 	C 	0.2502	0.0016	0.8217	-0.109
Mof_H 	H 	0.2301	0.9501	0.8088	0.057
Mof_H 	H 	0.2634	0.994	0.8588	0.063
Mof_C 	C 	0.2198	0.0749	0.81556	-0.084
Mof_H 	H 	0.2401	0.1244	0.8313	0.047
Mof_H 	H 	0.188	0.0679	0.8332	0.051
Mof_C 	C 	0.1756	0.1764	0.7457	-0.018
Mof_H 	H 	0.1425	0.1784	0.7617	0.043
Mof_H 	H 	0.2	0.219	0.764	0.03
Mof_C 	C 	0.2153	0.2077	0.6666	0.003
Mof_H 	H 	0.2405	0.2358	0.6936	0.002
Mof_H 	H 	0.2087	0.2492	0.6379	0.041
Mof_C 	C 	0.2927	0.1649	0.623	0.029
Mof_H 	H 	0.2811	0.1682	0.5854	0.02
Mof_H 	H 	0.3109	0.219	0.6339	0.013
Mof_C 	C 	0.3262	0.0978	0.6294	-0.193
Mof_H 	H 	0.3592	0.1138	0.6157	0.087
Mof_H 	H 	0.3112	0.0478	0.6095	0.079
Mof_C 	C 	0.3711	0.9994	0.7003	-0.021
Mof_H 	H 	0.3545	0.9544	0.677	0.039
Mof_H 	H 	0.4071	0.0092	0.691	0.049
Mof_N 	N 	0.478	0.2985	0.69833	-0.248
Mof_H 	H 	0.5051	0.2911	0.6783	0.101
Mof_C 	C 	0.4764	0.2211	0.7304	-0.078
Mof_H 	H 	0.4433	0.2202	0.7465	0.043
Mof_H 	H 	0.4768	0.1705	0.7079	0.054
Mof_N 	N 	0.47556	0.497	0.69306	-0.247
Mof_H 	H 	0.5034	0.5017	0.6737	0.11
Mof_C 	C 	0.4793	0.5742	0.7237	-0.115
Mof_H 	H 	0.4873	0.623	0.702	0.082
Mof_H 	H 	0.4438	0.5842	0.7339	0.062
Mof_C 	C 	0.4258	0.4667	0.6525	-0.078
Mof_H 	H 	0.3939	0.4712	0.6701	0.052
Mof_H 	H 	0.4216	0.5082	0.6237	0.092
Mof_C 	C 	0.4265	0.3112	0.6617	-0.04
Mof_H 	H 	0.4206	0.2598	0.6398	0.048
Mof_H 	H 	0.3965	0.3157	0.6821	0.037
Mof_N 	N 	0.42699	0.3828	0.63043	-0.064
Mof_C 	C 	0.4672	0.3834	0.59099	-0.293
Mof_H 	H 	0.5018	0.4017	0.6096	0.13
Mof_H 	H 	0.4712	0.3231	0.5809	0.128
Mof_C 	C 	0.4526	0.4278	0.5423	0.325
Mof_O 	O 	0.4004	0.4252	0.521	-0.193
Mof_O 	O 	0.4434	0.5084	0.5418	-0.202
Mof_N 	N 	0.37447	0.2209	0.06445	-0.073
Mof_C 	C 	0.4093	0.2166	0.0222	-0.213
Mof_H 	H 	0.3884	0.2342	0.9892	0.105
Mof_H 	H 	0.4186	0.1557	0.0188	0.102
Mof_C 	C 	0.459	0.2683	0.0323	0.141
Mof_O 	O 	0.4863	0.2545	0.0821	-0.162
Mof_N 	N 	0.37938	0.9626	0.7586	-0.108
Mof_C 	C 	0.423	0.0108	0.7907	0.022
Mof_C 	C 	0.4554	0.0122	0.8473	0.064
Mof_O 	O 	0.4641	0.9187	0.8465	-0.15
Mof_N 	N 	0.16508	0.1971	0.6874	-0.124
Mof_C 	C 	0.1338	0.1154	0.6777	-0.028
Mof_C 	C 	0.3914	0.7028	0.8395	0.04
Mof_C 	C 	0.0881	0.1194	0.6296	0.079
Mof_O 	O 	0.03742	0.0825	0.6031	-0.16
Mof_Fe	Fe	0.153	0.82681	0.652	0.702
Mof_Ni	Ni	0.2289	0.58495	0.77964	1.067
Mof_N 	N 	0.10977	0.9467	0.55856	-0.048
Mof_N 	N 	0.06121	0.6934	0.61999	-0.085
Mof_N 	N 	0.22748	0.7482	0.57716	-0.193
Mof_N 	N 	0.19633	0.6995	0.74099	-0.196
Mof_N 	N 	0.07801	0.9059	0.72508	-0.193
Mof_N 	N 	0.23849	0.9682	0.68426	-0.193
Mof_N 	N 	0.29728	0.8599	0.51731	-0.253
Mof_H 	H 	0.3165	0.8685	0.4901	0.095
Mof_N 	N 	0.18695	0.8372	0.47811	-0.248
Mof_H 	H 	0.1668	0.8408	0.5051	0.108
Mof_N 	N 	0.2537	0.6505	0.8515	-0.274
Mof_H 	H 	0.2776	0.6153	0.8714	0.109
Mof_N 	N 	0.198	0.5158	0.709	-0.246
Mof_H 	H 	0.1734	0.5506	0.6896	0.102
Mof_N 	N 	0.15783	0.5693	0.8119	-0.248
Mof_H 	H 	0.1359	0.6124	0.797	0.088
Mof_N 	N 	0.29936	0.5959	0.74417	-0.259
Mof_H 	H 	0.3232	0.5542	0.7576	0.103
Mof_C 	C 	0.18042	0.7484	0.70786	-0.109
Mof_C 	C 	0.12481	0.9008	0.59407	-0.129
Mof_C 	C 	0.10707	0.8799	0.69732	-0.113
Mof_C 	C 	0.09601	0.7433	0.63175	-0.132
Mof_C 	C 	0.19912	0.7744	0.60672	-0.118
Mof_C 	C 	0.20742	0.9125	0.67252	-0.11
Mof_C 	C 	0.2138	0.9225	0.4729	-0.1
Mof_H 	H 	0.1879	0.9693	0.4743	0.083
Mof_H 	H 	0.2277	0.9258	0.4394	0.05
Mof_C 	C 	0.2572	0.9341	0.5182	-0.095
Mof_H 	H 	0.2428	0.9351	0.5515	0.052
Mof_H 	H 	0.2761	0.9885	0.5146	0.056
Mof_C 	C 	0.1487	0.8065	0.43067	-0.06
Mof_H 	H 	0.1695	0.8049	0.4014	0.045
Mof_H 	H 	0.1201	0.849	0.4223	0.077
Mof_C 	C 	0.33816	0.8524	0.56539	-0.052
Mof_H 	H 	0.3591	0.9057	0.57	0.053
Mof_H 	H 	0.3184	0.8465	0.5953	0.043
Mof_C 	C 	0.1671	0.4342	0.7211	-0.04
Mof_H 	H 	0.1564	0.405	0.6878	0.063
Mof_H 	H 	0.1917	0.3966	0.7434	0.039
Mof_C 	C 	0.2498	0.5016	0.6783	-0.103
Mof_H 	H 	0.2699	0.4501	0.6912	0.055
Mof_H 	H 	0.2366	0.494	0.6412	0.058
Mof_C 	C 	0.2802	0.5749	0.68444	-0.088
Mof_H 	H 	0.2599	0.6244	0.6687	0.048
Mof_H 	H 	0.312	0.5679	0.6668	0.053
Mof_C 	C 	0.3244	0.6764	0.7543	-0.019
Mof_H 	H 	0.3575	0.6784	0.7383	0.045
Mof_H 	H 	0.3	0.719	0.736	0.03
Mof_C 	C 	0.2847	0.7077	0.8334	0.002
Mof_H 	H 	0.2595	0.7358	0.8064	0.002
Mof_H 	H 	0.2913	0.7492	0.8621	0.044
Mof_C 	C 	0.2073	0.6649	0.877	0.025
Mof_H 	H 	0.2189	0.6682	0.9146	0.025
Mof_H 	H 	0.1891	0.719	0.8661	0.015
Mof_C 	C 	0.1738	0.5978	0.8706	-0.19
Mof_H 	H 	0.1408	0.6138	0.8843	0.086
Mof_H 	H 	0.1888	0.5478	0.8905	0.079
Mof_C 	C 	0.1289	0.4994	0.7997	-0.02
Mof_H 	H 	0.1455	0.4544	0.823	0.038
Mof_H 	H 	0.0929	0.5092	0.809	0.045
Mof_N 	N 	0.022	0.7985	0.80167	-0.259
Mof_H 	H 	0.9949	0.7911	0.8217	0.119
Mof_C 	C 	0.0236	0.7211	0.7696	-0.124
Mof_H 	H 	0.0567	0.7202	0.7535	0.055
Mof_H 	H 	0.0232	0.6705	0.7921	0.061
Mof_N 	N 	0.02444	0.997	0.80694	-0.259
Mof_H 	H 	0.9966	0.0017	0.8263	0.128
Mof_C 	C 	0.0207	0.0742	0.7763	-0.144
Mof_H 	H 	0.0127	0.123	0.798	0.082
Mof_H 	H 	0.0562	0.0842	0.7661	0.068
Mof_C 	C 	0.0742	0.9667	0.8475	-0.083
Mof_H 	H 	0.1061	0.9712	0.8299	0.054
Mof_H 	H 	0.0784	0.0082	0.8763	0.092
Mof_C 	C 	0.0735	0.8112	0.8383	-0.045
Mof_H 	H 	0.0794	0.7598	0.8602	0.048
Mof_H 	H 	0.1035	0.8157	0.8179	0.039
Mof_N 	N 	0.07301	0.8828	0.86957	-0.058
Mof_C 	C 	0.0328	0.8834	0.90901	-0.347
Mof_H 	H 	0.9982	0.9017	0.8904	0.161
Mof_H 	H 	0.0288	0.8231	0.9191	0.139
Mof_C 	C 	0.0474	0.9278	0.9577	0.34
Mof_O 	O 	0.0996	0.9252	0.979	-0.187
Mof_O 	O 	0.0566	0.0084	0.9582	-0.206
Mof_N 	N 	0.12553	0.7209	0.43555	-0.079
Mof_C 	C 	0.0907	0.7166	0.4778	-0.161
Mof_H 	H 	0.1116	0.7342	0.5108	0.074
Mof_H 	H 	0.0814	0.6557	0.4812	0.09
Mof_C 	C 	0.041	0.7683	0.4677	0.134
Mof_O 	O 	0.0137	0.7545	0.4179	-0.169
Mof_N 	N 	0.12062	0.4626	0.7414	-0.109
Mof_C 	C 	0.077	0.5108	0.7093	0.019
Mof_C 	C 	0.0446	0.5122	0.6527	0.055
Mof_O 	O 	0.0359	0.4187	0.6535	-0.159
Mof_N 	N 	0.33492	0.6971	0.8126	-0.124
Mof_C 	C 	0.3662	0.6154	0.8223	-0.029
Mof_C 	C 	0.1086	0.2028	0.6605	0.034
Mof_C 	C 	0.4119	0.6194	0.8704	0.083
Mof_O 	O 	0.46258	0.5825	0.8969	-0.147
Mof_Fe	Fe	0.653	0.32681	0.652	0.702
Mof_Ni	Ni	0.7289	0.08495	0.77964	1.067
Mof_N 	N 	0.60977	0.4467	0.55856	-0.047
Mof_N 	N 	0.56121	0.1934	0.61999	-0.081
Mof_N 	N 	0.72748	0.2482	0.57716	-0.193
Mof_N 	N 	0.69633	0.1995	0.74099	-0.196
Mof_N 	N 	0.57801	0.4059	0.72508	-0.192
Mof_N 	N 	0.73849	0.4682	0.68426	-0.193
Mof_N 	N 	0.79728	0.3599	0.51731	-0.253
Mof_H 	H 	0.8165	0.3685	0.4901	0.095
Mof_N 	N 	0.68695	0.3372	0.47811	-0.248
Mof_H 	H 	0.6668	0.3408	0.5051	0.108
Mof_N 	N 	0.7537	0.1505	0.8515	-0.274
Mof_H 	H 	0.7776	0.1153	0.8714	0.109
Mof_N 	N 	0.698	0.0158	0.709	-0.246
Mof_H 	H 	0.6734	0.0506	0.6896	0.103
Mof_N 	N 	0.65783	0.0693	0.8119	-0.247
Mof_H 	H 	0.6359	0.1124	0.797	0.089
Mof_N 	N 	0.79936	0.0959	0.74417	-0.259
Mof_H 	H 	0.8232	0.0542	0.7576	0.103
Mof_C 	C 	0.68042	0.2484	0.70786	-0.108
Mof_C 	C 	0.62481	0.4008	0.59407	-0.129
Mof_C 	C 	0.60707	0.3799	0.69732	-0.113
Mof_C 	C 	0.59601	0.2433	0.63175	-0.131
Mof_C 	C 	0.69912	0.2744	0.60672	-0.118
Mof_C 	C 	0.70742	0.4125	0.67252	-0.11
Mof_C 	C 	0.7138	0.4225	0.4729	-0.1
Mof_H 	H 	0.6879	0.4693	0.4743	0.083
Mof_H 	H 	0.7277	0.4258	0.4394	0.05
Mof_C 	C 	0.7572	0.4341	0.5182	-0.096
Mof_H 	H 	0.7428	0.4351	0.5515	0.053
Mof_H 	H 	0.7761	0.4885	0.5146	0.057
Mof_C 	C 	0.6487	0.3065	0.43067	-0.061
Mof_H 	H 	0.6695	0.3049	0.4014	0.045
Mof_H 	H 	0.6201	0.349	0.4223	0.078
Mof_C 	C 	0.83816	0.3524	0.56539	-0.053
Mof_H 	H 	0.8591	0.4057	0.57	0.055
Mof_H 	H 	0.8184	0.3465	0.5953	0.044
Mof_C 	C 	0.6671	0.9342	0.7211	-0.04
Mof_H 	H 	0.6564	0.905	0.6878	0.063
Mof_H 	H 	0.6917	0.8966	0.7434	0.04
Mof_C 	C 	0.7498	0.0016	0.6783	-0.105
Mof_H 	H 	0.7699	0.9501	0.6912	0.056
Mof_H 	H 	0.7366	0.994	0.6412	0.059
Mof_C 	C 	0.7802	0.0749	0.68444	-0.087
Mof_H 	H 	0.7599	0.1244	0.6687	0.047
Mof_H 	H 	0.812	0.0679	0.6668	0.052
Mof_C 	C 	0.8244	0.1764	0.7543	-0.019
Mof_H 	H 	0.8575	0.1784	0.7383	0.046
Mof_H 	H 	0.8	0.219	0.736	0.03
Mof_C 	C 	0.7847	0.2077	0.8334	0.003
Mof_H 	H 	0.7595	0.2358	0.8064	0.002
Mof_H 	H 	0.7913	0.2492	0.8621	0.044
Mof_C 	C 	0.7073	0.1649	0.877	0.026
Mof_H 	H 	0.7189	0.1682	0.9146	0.025
Mof_H 	H 	0.6891	0.219	0.8661	0.015
Mof_C 	C 	0.6738	0.0978	0.8706	-0.191
Mof_H 	H 	0.6408	0.1138	0.8843	0.088
Mof_H 	H 	0.6888	0.0478	0.8905	0.08
Mof_C 	C 	0.6289	0.9994	0.7997	-0.021
Mof_H 	H 	0.6455	0.9544	0.823	0.039
Mof_H 	H 	0.5929	0.0092	0.809	0.049
Mof_N 	N 	0.522	0.2985	0.80167	-0.248
Mof_H 	H 	0.4949	0.2911	0.8217	0.101
Mof_C 	C 	0.5236	0.2211	0.7696	-0.079
Mof_H 	H 	0.5567	0.2202	0.7535	0.043
Mof_H 	H 	0.5232	0.1705	0.7921	0.055
Mof_N 	N 	0.52444	0.497	0.80694	-0.247
Mof_H 	H 	0.4966	0.5017	0.8263	0.11
Mof_C 	C 	0.5207	0.5742	0.7763	-0.115
Mof_H 	H 	0.5127	0.623	0.798	0.082
Mof_H 	H 	0.5562	0.5842	0.7661	0.062
Mof_C 	C 	0.5742	0.4667	0.8475	-0.078
Mof_H 	H 	0.6061	0.4712	0.8299	0.053
Mof_H 	H 	0.5784	0.5082	0.8763	0.093
Mof_C 	C 	0.5735	0.3112	0.8383	-0.041
Mof_H 	H 	0.5794	0.2598	0.8602	0.049
Mof_H 	H 	0.6035	0.3157	0.8179	0.038
Mof_N 	N 	0.57301	0.3828	0.86957	-0.063
Mof_C 	C 	0.5328	0.3834	0.90901	-0.296
Mof_H 	H 	0.4982	0.4017	0.8904	0.131
Mof_H 	H 	0.5288	0.3231	0.9191	0.131
Mof_C 	C 	0.5474	0.4278	0.9577	0.33
Mof_O 	O 	0.5996	0.4252	0.979	-0.185
Mof_O 	O 	0.5566	0.5084	0.9582	-0.197
Mof_N 	N 	0.62553	0.2209	0.43555	-0.077
Mof_C 	C 	0.5907	0.2166	0.4778	-0.165
Mof_H 	H 	0.6116	0.2342	0.5108	0.076
Mof_H 	H 	0.5814	0.1557	0.4812	0.094
Mof_C 	C 	0.541	0.2683	0.4677	0.141
Mof_O 	O 	0.5137	0.2545	0.4179	-0.159
Mof_N 	N 	0.62062	0.9626	0.7414	-0.108
Mof_C 	C 	0.577	0.0108	0.7093	0.023
Mof_C 	C 	0.5446	0.0122	0.6527	0.061
Mof_O 	O 	0.5359	0.9187	0.6535	-0.151
Mof_N 	N 	0.83492	0.1971	0.8126	-0.124
Mof_C 	C 	0.8662	0.1154	0.8223	-0.029
Mof_C 	C 	0.6086	0.7028	0.6605	0.039
Mof_C 	C 	0.9119	0.1194	0.8704	0.084
Mof_O 	O 	0.96258	0.0825	0.8969	-0.138
Mof_Ni	Ni	0.25	0.25	-0	1.06
Mof_Ni	Ni	0.75	0.25	0.5	1.07
Mof_Ni	Ni	0.75	0.75	-0	1.059
Mof_Ni	Ni	0.25	0.75	0.5	1.07
Mof_Ni	Ni	1.09373e-33	0.09533	0.25	1.058
Mof_Ni	Ni	0.5	0.59533	0.25	1.068
Mof_Ni	Ni	1.20538e-17	0.90467	0.75	1.058
Mof_Ni	Ni	0.5	0.40467	0.75	1.068
_end
