data_functionalizedCrystal
_audit_creation_method	'EQeq! by Chris Wilmer'
_symmetry_space_group_name_H-M	'P1'
_symmetry_Int_Tables_number	1
_symmetry_cell_setting	triclinic
loop_
_symmetry_equiv_pos_as_xyz
  x,y,z
_cell_length_a	10.5925
_cell_length_b	19.4409
_cell_length_c	23.682
_cell_angle_alpha	73.744
_cell_angle_beta	83.661
_cell_angle_gamma	89.712
loop_
_atom_site_label
_atom_site_type_symbol
_atom_site_fract_x
_atom_site_fract_y
_atom_site_fract_z
_atom_site_charge
Mof_Cd	Cd	0.1064	0.22381	0.2403	0.47
Mof_Cd	Cd	0.69694	0.15655	0.25871	0.477
Mof_Cd	Cd	0.08562	0.65758	0.25296	0.478
Mof_Cd	Cd	0.8936	0.77619	0.7597	0.47
Mof_Cd	Cd	0.45006	0.0409	0.7605	0.478
Mof_Cd	Cd	0.75356	0.54527	0.77329	0.477
Mof_Cd	Cd	0.30306	0.84345	0.74129	0.476
Mof_Cd	Cd	0.67852	0.71252	0.26708	0.474
Mof_Cd	Cd	0.32148	0.28748	0.73292	0.474
Mof_Cd	Cd	0.91438	0.34242	0.74704	0.477
Mof_Cd	Cd	0.54994	0.9591	0.2395	0.477
Mof_Cd	Cd	0.24644	0.45473	0.22671	0.476
Mof_H 	H 	0.2838	0.9265	0.2553	0.07
Mof_H 	H 	0.6594	0.5773	0.3797	0.025
Mof_H 	H 	0.1887	0.0287	0.2554	0.051
Mof_H 	H 	0.6714	0.6317	0.1661	0.013
Mof_H 	H 	0.8037	0.0994	0.1518	0.027
Mof_H 	H 	0.333	0.4583	0.5196	0.081
Mof_H 	H 	0.212	0.6682	0.956	0.083
Mof_H 	H 	0.5106	0.1411	0.9056	0.046
Mof_H 	H 	0.2559	0.3235	0.3365	0.021
Mof_H 	H 	0.4003	0.8149	0.4505	0.083
Mof_H 	H 	0.5107	0.7158	0.9798	0.053
Mof_H 	H 	0.8686	0.1275	0.0536	0.082
Mof_H 	H 	0.843	0.8425	0.0466	0.081
Mof_H 	H 	0.17	0.134	0.1452	0.017
Mof_H 	H 	0.9997	0.6182	0.4792	0.083
Mof_H 	H 	0.7382	0.0294	0.3784	0.026
Mof_H 	H 	0.4787	0.835	0.9289	0.044
Mof_H 	H 	0.3269	0.2537	0.5222	0.079
Mof_H 	H 	0.276	0.357	0.9312	0.086
Mof_H 	H 	0.597	0.5291	0.2559	0.052
Mof_H 	H 	0.7162	0.0735	0.7447	0.07
Mof_H 	H 	0.4894	0.8589	0.0944	0.046
Mof_H 	H 	0.8113	0.9713	0.7446	0.051
Mof_H 	H 	0.0461	0.5031	0.3378	0.033
Mof_H 	H 	0.1242	0.3498	0.0136	0.081
Mof_H 	H 	0.5894	0.2139	0.3624	0.026
Mof_H 	H 	0.8341	0.1764	0.7373	0.053
Mof_H 	H 	0.4351	0.805	0.5382	0.078
Mof_H 	H 	0.5997	0.1851	0.5495	0.083
Mof_H 	H 	0.6033	0.3324	0.9209	0.04
Mof_H 	H 	0.943	0.3886	0.8589	0.035
Mof_H 	H 	0.2018	0.1423	0.0474	0.084
Mof_H 	H 	0.1659	0.8236	0.2627	0.053
Mof_H 	H 	0.9771	0.32	0.6189	0.019
Mof_H 	H 	0.1314	0.8725	0.9464	0.082
Mof_H 	H 	0.0229	0.68	0.3811	0.019
Mof_H 	H 	0.724	0.643	0.0688	0.086
Mof_H 	H 	0.9539	0.4969	0.6622	0.033
Mof_H 	H 	0.4178	0.3636	0.0737	0.051
Mof_H 	H 	0.83	0.866	0.8548	0.017
Mof_H 	H 	0.7306	0.2966	0.1441	0.009
Mof_H 	H 	0.057	0.6114	0.1411	0.035
Mof_H 	H 	0.129	0.8059	0.1429	0.012
Mof_H 	H 	0.9119	0.6665	0.8872	0.024
Mof_H 	H 	0.788	0.3318	0.044	0.083
Mof_H 	H 	0.5578	0.1603	0.6496	0.019
Mof_H 	H 	0.6379	0.4845	0.6731	0.027
Mof_H 	H 	0.425	0.0418	0.3305	0.026
Mof_H 	H 	0.3406	0.4227	0.6203	0.025
Mof_H 	H 	0.6731	0.7463	0.4778	0.079
Mof_H 	H 	0.7441	0.6765	0.6635	0.021
Mof_H 	H 	0.5649	0.195	0.4618	0.078
Mof_H 	H 	0.8349	0.1566	0.9593	0.079
Mof_H 	H 	0.5822	0.6364	0.9263	0.051
Mof_H 	H 	0.0003	0.3818	0.5208	0.083
Mof_H 	H 	0.403	0.4709	0.7441	0.052
Mof_H 	H 	0.8758	0.6502	0.9864	0.081
Mof_H 	H 	0.5001	0.5732	0.7519	0.067
Mof_H 	H 	0.6198	0.3291	0.2445	0.049
Mof_H 	H 	0.0235	0.4375	0.434	0.085
Mof_H 	H 	0.2694	0.7034	0.8559	0.009
Mof_H 	H 	0.871	0.1941	0.8571	0.012
Mof_H 	H 	0.6147	0.5152	0.5745	0.082
Mof_H 	H 	0.3621	0.5155	0.3269	0.027
Mof_H 	H 	0.2725	0.2859	0.434	0.082
Mof_H 	H 	0.203	0.1753	0.8538	0.022
Mof_H 	H 	0.2618	0.9706	0.6216	0.026
Mof_H 	H 	0.3757	0.0236	0.4293	0.086
Mof_H 	H 	0.4106	0.7861	0.6376	0.026
Mof_H 	H 	0.4999	0.4268	0.2481	0.067
Mof_H 	H 	0.7137	0.0047	0.4784	0.082
Mof_H 	H 	0.3206	0.2222	0.6227	0.026
Mof_H 	H 	0.3286	0.3683	0.8339	0.013
Mof_H 	H 	0.3967	0.6676	0.0791	0.04
Mof_H 	H 	0.1963	0.9006	0.8482	0.027
Mof_H 	H 	0.5379	0.2143	0.9628	0.057
Mof_H 	H 	0.6794	0.7778	0.3773	0.026
Mof_H 	H 	0.6243	0.9764	0.5707	0.086
Mof_H 	H 	0.0915	0.6415	0.0414	0.081
Mof_H 	H 	0.157	0.1575	0.9534	0.081
Mof_H 	H 	0.797	0.8247	0.1462	0.022
Mof_H 	H 	0.1651	0.8434	0.0407	0.079
Mof_H 	H 	0.575	0.9582	0.6695	0.026
Mof_H 	H 	0.4621	0.7857	0.0372	0.057
Mof_H 	H 	0.667	0.5417	0.4804	0.081
Mof_H 	H 	0.3802	0.6709	0.7555	0.049
Mof_H 	H 	0.7982	0.8577	0.9526	0.084
Mof_H 	H 	0.4893	0.2842	0.0202	0.053
Mof_H 	H 	0.9765	0.5625	0.566	0.085
Mof_H 	H 	0.4422	0.8397	0.3504	0.019
Mof_H 	H 	0.9085	0.3585	0.9586	0.081
Mof_H 	H 	0.0881	0.3335	0.1128	0.024
Mof_H 	H 	0.7275	0.7141	0.566	0.082
Mof_H 	H 	0.2863	0.9953	0.5216	0.082
Mof_H 	H 	0.5213	0.165	0.0711	0.044
Mof_H 	H 	0.3853	0.4848	0.4255	0.082
Mof_C 	C 	0.5169	0.1673	0.7907	0.32
Mof_C 	C 	0.5542	0.2149	0.8268	-0.069
Mof_C 	C 	0.7587	0.2623	0.1254	0.096
Mof_C 	C 	0.6163	0.0829	0.5466	0.064
Mof_C 	C 	0.5797	0.0049	0.6449	0.092
Mof_C 	C 	0.66	0.3716	0.2442	0.009
Mof_C 	C 	0.5269	0.7314	0.9387	-0.06
Mof_C 	C 	0.4933	0.1974	0.092	-0.005
Mof_C 	C 	0.204	0.0597	0.7422	0.313
Mof_C 	C 	0.5973	0.2856	0.8007	-0.022
Mof_C 	C 	0.4044	0.8623	0.4273	-0.139
Mof_C 	C 	0.7078	0.6748	0.1419	0.094
Mof_C 	C 	0.2078	0.6248	0.76	-0.077
Mof_C 	C 	0.609	0.0157	0.5853	-0.137
Mof_C 	C 	0.1608	0.8368	0.9295	-0.136
Mof_C 	C 	0.9196	0.3414	0.8794	0.079
Mof_C 	C 	0.33	0.3589	0.5092	0.063
Mof_C 	C 	0.0785	0.1971	0.7371	0.354
Mof_C 	C 	0.7395	0.6814	0.0836	-0.142
Mof_C 	C 	0.5067	0.8026	0.908	-0.005
Mof_C 	C 	0.6659	0.6119	0.3996	0.085
Mof_C 	C 	0.3837	0.9171	0.4534	0.064
Mof_C 	C 	0.8606	0.0114	0.7431	0.013
Mof_C 	C 	0.4831	0.8327	0.2093	0.32
Mof_C 	C 	0.327	0.2894	0.5414	-0.139
Mof_C 	C 	0.4002	0.1966	0.2504	0.313
Mof_C 	C 	0.67	0.6411	0.4908	0.063
Mof_C 	C 	0.499	0.0987	0.1834	0.301
Mof_C 	C 	0.2811	0.3566	0.3551	0.093
Mof_C 	C 	0.8657	0.6951	0.9604	-0.136
Mof_C 	C 	0.2413	0.7377	0.8746	0.096
Mof_C 	C 	0.1394	0.9886	0.2569	0.013
Mof_C 	C 	0.7921	0.2838	0.0652	-0.139
Mof_C 	C 	0.9613	0.473	0.6331	0.089
Mof_C 	C 	0.8392	0.1632	0.0705	-0.136
Mof_C 	C 	0.3432	0.4685	0.3494	0.083
Mof_C 	C 	0.3998	0.8405	0.554	-0.133
Mof_C 	C 	0.5281	0.825	0.8474	-0.059
Mof_C 	C 	0.8646	0.3091	0.2416	0.35
Mof_C 	C 	0.4203	0.9951	0.3551	0.092
Mof_C 	C 	0.6358	0.0962	0.4835	0.059
Mof_C 	C 	0.0083	0.9944	0.2589	-0.078
Mof_C 	C 	0.501	0.9013	0.8166	0.301
Mof_C 	C 	0.6187	0.3146	0.7346	0.294
Mof_C 	C 	0.3383	0.3425	0.1844	0.303
Mof_C 	C 	0.447	0.7679	0.0782	-0.072
Mof_C 	C 	0.0643	0.0651	0.741	-0.002
Mof_C 	C 	0.5716	0.6844	0.9067	-0.007
Mof_C 	C 	0.6	0.7086	0.8464	-0.059
Mof_C 	C 	0.4646	0.8112	0.112	0.007
Mof_C 	C 	0.4731	0.2686	0.0613	-0.06
Mof_C 	C 	0.1809	0.183	0.0593	-0.141
Mof_C 	C 	0.0804	0.6586	0.1206	0.079
Mof_C 	C 	0.7018	0.0637	0.3952	0.087
Mof_C 	C 	0.1448	0.7955	0.0601	-0.132
Mof_C 	C 	0.3642	0.9038	0.5165	0.059
Mof_C 	C 	0.6463	0.491	0.2511	0.003
Mof_C 	C 	0.0239	0.4873	0.4246	-0.137
Mof_C 	C 	0.3813	0.6854	0.2654	0.294
Mof_C 	C 	0.1223	0.7725	0.1219	0.084
Mof_C 	C 	0.4284	0.3156	0.0933	-0.007
Mof_C 	C 	0.3537	0.509	0.7489	0.003
Mof_C 	C 	0.6431	0.5494	0.5912	-0.131
Mof_C 	C 	0.3324	0.4098	0.5397	-0.135
Mof_C 	C 	0.2058	0.2563	0.9543	0.064
Mof_C 	C 	0.8407	0.8218	0.8818	0.092
Mof_C 	C 	0.9917	0.0056	0.7411	-0.078
Mof_C 	C 	0.3331	0.5957	0.1896	0.318
Mof_C 	C 	0.852	0.4405	0.2388	-0.005
Mof_C 	C 	0.9938	0.446	0.2333	0.314
Mof_C 	C 	0.3569	0.4506	0.4088	-0.131
Mof_C 	C 	0.3341	0.3881	0.6004	0.085
Mof_C 	C 	0.4719	0.175	0.1526	-0.059
Mof_C 	C 	0.9747	0.3697	0.6082	0.1
Mof_C 	C 	0.1893	0.2018	0.9297	-0.137
Mof_C 	C 	0.5688	0.1222	0.6332	0.095
Mof_C 	C 	0.7189	0.6434	0.6449	0.093
Mof_C 	C 	0.407	0.6973	0.1031	0.007
Mof_C 	C 	0.9523	0.0649	0.2597	0.345
Mof_C 	C 	0.148	0.5595	0.7612	-0.005
Mof_C 	C 	0.7922	0.3752	0.24	-0.077
Mof_C 	C 	0.5354	0.1888	0.888	0.007
Mof_C 	C 	0.6669	0.4043	0.8104	0.318
Mof_C 	C 	0.167	0.4351	0.7463	0.329
Mof_C 	C 	0.616	0.1708	0.386	0.087
Mof_C 	C 	0.553	0.2321	0.9218	-0.072
Mof_C 	C 	0.4458	0.7851	0.1732	-0.069
Mof_C 	C 	0.6757	0.7294	0.3981	0.085
Mof_C 	C 	0.006	0.1297	0.7399	-0.075
Mof_C 	C 	0.994	0.8703	0.2601	-0.075
Mof_C 	C 	0.8107	0.7982	0.0703	-0.137
Mof_C 	C 	0.3279	0.3808	0.4435	0.056
Mof_C 	C 	0.1975	0.8529	0.8704	0.085
Mof_C 	C 	0.2982	0.9363	0.6048	0.087
Mof_C 	C 	0.4	0.2914	0.1536	-0.059
Mof_C 	C 	0.6617	0.6575	0.8156	0.303
Mof_C 	C 	0.8326	0.2325	0.0359	0.061
Mof_C 	C 	0.6721	0.6192	0.5565	0.056
Mof_C 	C 	0.6176	0.3289	0.8362	-0.073
Mof_C 	C 	0.391	0.9843	0.4147	-0.137
Mof_C 	C 	0.6875	0.0486	0.4558	-0.135
Mof_C 	C 	0.3125	0.9514	0.5442	-0.135
Mof_C 	C 	0.1674	0.7675	0.9641	0.061
Mof_C 	C 	0.2908	0.3337	0.4136	-0.14
Mof_C 	C 	0.8777	0.2275	0.8781	0.084
Mof_C 	C 	0.2605	0.3186	0.9164	-0.142
Mof_C 	C 	0.2218	0.5029	0.7526	-0.068
Mof_C 	C 	0.6568	0.5315	0.6506	0.083
Mof_C 	C 	0.9761	0.5127	0.5754	-0.137
Mof_C 	C 	0.0062	0.554	0.7667	0.314
Mof_C 	C 	0.673	0.7106	0.4586	-0.139
Mof_C 	C 	0.4312	0.8778	0.3668	0.095
Mof_C 	C 	0.8043	0.0718	0.7428	-0.068
Mof_C 	C 	0.7092	0.6663	0.5864	-0.14
Mof_C 	C 	0.7942	0.7437	0.0457	0.064
Mof_C 	C 	0.4244	0.2222	0.184	-0.034
Mof_C 	C 	0.0253	0.6303	0.3918	0.1
Mof_C 	C 	0.2922	0.3252	0.8581	0.094
Mof_C 	C 	0.4027	0.7144	0.1993	-0.022
Mof_C 	C 	0.8744	0.1333	0.7396	0.007
Mof_C 	C 	0.6002	0.1595	0.446	-0.133
Mof_C 	C 	0.899	0.3238	0.9391	-0.13
Mof_C 	C 	0.0387	0.527	0.3669	0.089
Mof_C 	C 	0.1354	0.6909	0.7584	0.35
Mof_C 	C 	0.99	0.4069	0.5491	-0.141
Mof_C 	C 	0.796	0.9403	0.2578	0.313
Mof_C 	C 	0.101	0.6762	0.0609	-0.13
Mof_C 	C 	0.8873	0.7057	0.9007	0.086
Mof_C 	C 	0.8025	0.1471	0.1296	0.085
Mof_C 	C 	0.6676	0.5902	0.4603	-0.135
Mof_C 	C 	0.34	0.6284	0.7558	0.009
Mof_C 	C 	0.0477	0.9351	0.7403	0.345
Mof_C 	C 	0.3824	0.6711	0.1638	-0.073
Mof_C 	C 	0.1127	0.2943	0.0993	0.086
Mof_C 	C 	0.1957	0.9282	0.2572	-0.068
Mof_C 	C 	0.5756	0.7778	0.816	-0.034
Mof_C 	C 	0.3243	0.2706	0.6019	0.085
Mof_C 	C 	0.1593	0.1782	0.1182	0.092
Mof_C 	C 	0.9901	0.4796	0.5313	0.064
Mof_C 	C 	0.7797	0.7876	0.1303	0.086
Mof_C 	C 	0.7782	0.4971	0.2474	-0.068
Mof_C 	C 	0.9215	0.8029	0.2629	0.354
Mof_C 	C 	0.5956	0.1377	0.5727	-0.139
Mof_C 	C 	0.1256	0.8667	0.2604	0.007
Mof_C 	C 	0.8552	0.2045	0.9399	-0.132
Mof_C 	C 	0.4124	0.5707	0.7522	-0.061
Mof_C 	C 	0.1343	0.3049	0.0396	-0.136
Mof_C 	C 	0.384	0.8292	0.614	0.087
Mof_C 	C 	0.172	0.2466	0.018	0.06
Mof_C 	C 	0.01	0.5931	0.4509	-0.141
Mof_C 	C 	0.8191	0.817	0.9407	-0.141
Mof_C 	C 	0.9357	0.9349	0.259	-0.002
Mof_C 	C 	0.828	0.7534	0.982	0.06
Mof_C 	C 	0.5876	0.4293	0.2478	-0.061
Mof_C 	C 	0.833	0.5649	0.2537	0.329
Mof_C 	C 	0.2079	0.7162	0.9348	-0.139
Mof_C 	C 	0.5998	0.8034	0.7496	0.313
Mof_C 	C 	0.0099	0.5204	0.4687	0.064
Mof_C 	C 	0.1366	0.7467	0.0284	0.054
Mof_C 	C 	0.2203	0.2124	0.8697	0.086
Mof_C 	C 	0.8634	0.2533	0.9716	0.054
Mof_C 	C 	0.593	0.3027	0.8969	0.007
Mof_N 	N 	0.2353	0.8042	0.8424	-0.152
Mof_N 	N 	0.6734	0.681	0.3687	-0.143
Mof_N 	N 	0.442	0.9423	0.3312	-0.158
Mof_N 	N 	0.7647	0.1958	0.1576	-0.152
Mof_N 	N 	0.0429	0.5978	0.3503	-0.147
Mof_N 	N 	0.3266	0.319	0.6313	-0.143
Mof_N 	N 	0.3327	0.8764	0.6403	-0.146
Mof_N 	N 	0.2732	0.2723	0.8337	-0.152
Mof_N 	N 	0.9571	0.4022	0.6497	-0.147
Mof_N 	N 	0.0922	0.7056	0.1515	-0.15
Mof_N 	N 	0.6949	0.5769	0.6774	-0.154
Mof_N 	N 	0.7268	0.7277	0.1663	-0.152
Mof_N 	N 	0.9078	0.2944	0.8485	-0.15
Mof_N 	N 	0.1241	0.2326	0.1394	-0.15
Mof_N 	N 	0.558	0.0577	0.6688	-0.158
Mof_N 	N 	0.8759	0.7674	0.8606	-0.15
Mof_N 	N 	0.3051	0.4231	0.3226	-0.154
Mof_N 	N 	0.6673	0.1236	0.3597	-0.146
Mof_O 	O 	0.4678	0.1926	0.7448	-0.282
Mof_O 	O 	0.7572	0.9606	0.2077	-0.263
Mof_O 	O 	0.0174	0.2521	0.7289	-0.312
Mof_O 	O 	0.4468	0.9144	0.7697	-0.292
Mof_O 	O 	0.3758	0.5498	0.1682	-0.278
Mof_O 	O 	0.7577	0.6025	0.2753	-0.292
Mof_O 	O 	0.1648	0.9317	0.7349	-0.29
Mof_O 	O 	0.4907	0.2033	0.2781	-0.27
Mof_O 	O 	0.5532	0.0856	0.2303	-0.292
Mof_O 	O 	0.3696	0.4058	0.1648	-0.275
Mof_O 	O 	0.0457	0.4255	0.2798	-0.263
Mof_O 	O 	0.5322	0.8074	0.2552	-0.282
Mof_O 	O 	0.9775	0.3159	0.2216	-0.291
Mof_O 	O 	0.7237	0.9251	0.3038	-0.254
Mof_O 	O 	0.4636	0.8973	0.1887	-0.284
Mof_O 	O 	0.7446	0.6802	0.7714	-0.279
Mof_O 	O 	0.2428	0.0394	0.7923	-0.263
Mof_O 	O 	0.6242	0.4502	0.8318	-0.278
Mof_O 	O 	0.2452	0.5818	0.2321	-0.292
Mof_O 	O 	0.8352	0.0683	0.2651	-0.29
Mof_O 	O 	0.6304	0.5942	0.8352	-0.275
Mof_O 	O 	0.2951	0.1695	0.2734	-0.27
Mof_O 	O 	0.8074	0.2517	0.2643	-0.306
Mof_O 	O 	0.2763	0.0749	0.6962	-0.254
Mof_O 	O 	0.4678	0.0507	0.163	-0.265
Mof_O 	O 	0.5364	0.1027	0.8113	-0.284
Mof_O 	O 	0.273	0.6933	0.29	-0.255
Mof_O 	O 	0.7049	0.8305	0.7266	-0.27
Mof_O 	O 	0.4724	0.6549	0.2908	-0.258
Mof_O 	O 	0.9744	0.8842	0.7446	-0.3
Mof_O 	O 	0.0564	0.4695	0.1849	-0.26
Mof_O 	O 	0.9826	0.7479	0.2711	-0.312
Mof_O 	O 	0.2423	0.3975	0.7247	-0.292
Mof_O 	O 	0.9436	0.5305	0.8151	-0.26
Mof_O 	O 	0.0225	0.6841	0.7784	-0.291
Mof_O 	O 	0.0256	0.1158	0.2554	-0.3
Mof_O 	O 	0.2554	0.3198	0.2286	-0.279
Mof_O 	O 	0.727	0.3067	0.71	-0.255
Mof_O 	O 	0.1922	0.1926	0.7415	-0.292
Mof_O 	O 	0.9496	0.5757	0.2399	-0.284
Mof_O 	O 	0.0504	0.4243	0.7601	-0.284
Mof_O 	O 	0.8078	0.8074	0.2585	-0.292
Mof_O 	O 	0.5093	0.7967	0.7219	-0.27
Mof_O 	O 	0.5322	0.9493	0.837	-0.265
Mof_O 	O 	0.9543	0.5745	0.7202	-0.263
Mof_O 	O 	0.7548	0.4182	0.7679	-0.292
Mof_O 	O 	0.5276	0.3451	0.7092	-0.258
Mof_O 	O 	0.1926	0.7483	0.7357	-0.306
_end
