data_functionalizedCrystal
_audit_creation_method	'EQeq! by Chris Wilmer'
_symmetry_space_group_name_H-M	'P1'
_symmetry_Int_Tables_number	1
_symmetry_cell_setting	triclinic
loop_
_symmetry_equiv_pos_as_xyz
  x,y,z
_cell_length_a	30.332
_cell_length_b	46.354
_cell_length_c	18.13
_cell_angle_alpha	90
_cell_angle_beta	116.729
_cell_angle_gamma	90
loop_
_atom_site_label
_atom_site_type_symbol
_atom_site_fract_x
_atom_site_fract_y
_atom_site_fract_z
_atom_site_charge
Mof_Pr	Pr	0.92753	0.82788	0.76702	2.125
Mof_Cu	Cu	0.69395	0.84907	0.0869	0.704
Mof_Cu	Cu	0.7664	0.81957	0.0888	0.704
Mof_Cu	Cu	0.74506	0.81331	0.2092	0.712
Mof_Cu	Cu	0.68292	0.79328	0.0691	0.704
Mof_Cu	Cu	0.1449	0.97192	0.8052	0.721
Mof_I 	I 	0.21909	0.04797	0.7777	-0.642
Mof_I 	I 	0.67573	0.82639	0.94319	-0.52
Mof_I 	I 	0.77141	0.76705	0.14805	-0.604
Mof_I 	I 	0.78741	0.86323	0.18995	-0.582
Mof_I 	I 	0.65053	0.81931	0.16905	-0.599
Mof_O 	O 	0.9095	0.8463	0.8854	-0.86
Mof_O 	O 	0.8613	0.8133	0.8074	-0.551
Mof_O 	O 	0.9885	0.8053	0.9004	-0.668
Mof_O 	O 	0.0091	0.8028	0.7983	-0.474
Mof_O 	O 	0.8485	0.8228	0.6358	-0.461
Mof_O 	O 	0.9143	0.8115	0.6238	-0.412
Mof_O 	O 	0.994	0.8653	0.8476	-0.782
Mof_O 	O 	0.9783	0.8604	0.7157	-0.418
Mof_N 	N 	0.809	0.8207	0.0306	-0.205
Mof_C 	C 	0.8441	0.842	0.0453	-0.195
Mof_H 	H 	0.8529	0.8547	0.0908	0.073
Mof_C 	C 	0.8663	0.8448	0.9932	0.276
Mof_H 	H 	0.8903	0.8594	0.0032	-0.193
Mof_C 	C 	0.8534	0.8262	0.9265	-0.275
Mof_C 	C 	0.8182	0.8048	0.9119	0.084
Mof_H 	H 	0.8094	0.7921	0.8663	0.014
Mof_C 	C 	0.796	0.8021	0.9639	-0.016
Mof_H 	H 	0.772	0.7875	0.9539	0.038
Mof_C 	C 	0.8749	0.8287	0.8661	0.554
Mof_N 	N 	0.1332	0.7383	0.0133	-0.217
Mof_C 	C 	0.1019	0.7487	0.0446	-0.15
Mof_H 	H 	0.106	0.7424	0.0971	0.055
Mof_C 	C 	0.0648	0.7682	0.999	0.195
Mof_H 	H 	0.0435	0.7752	0.0204	-0.101
Mof_C 	C 	0.0589	0.7774	0.9221	-0.153
Mof_C 	C 	0.0902	0.7671	0.8908	0.009
Mof_H 	H 	0.0861	0.7733	0.8383	0.038
Mof_C 	C 	0.1273	0.7475	0.9364	0.019
Mof_H 	H 	0.1486	0.7405	0.915	0.028
Mof_C 	C 	0.0153	0.7978	0.868	0.357
Mof_N 	N 	0.78	0.8091	0.331	-0.217
Mof_C 	C 	0.7596	0.8194	0.3809	0.007
Mof_H 	H 	0.7259	0.8251	0.3569	0.015
Mof_C 	C 	0.7884	0.8213	0.4658	-0.04
Mof_H 	H 	0.7744	0.8284	0.4999	0.049
Mof_C 	C 	0.8377	0.813	0.5009	-0.054
Mof_C 	C 	0.8581	0.8027	0.4511	-0.038
Mof_H 	H 	0.8918	0.797	0.4751	0.062
Mof_C 	C 	0.8293	0.8007	0.3661	0.01
Mof_H 	H 	0.8432	0.7937	0.3321	0.013
Mof_C 	C 	0.8676	0.8162	0.5899	0.307
Mof_N 	N 	0.1081	0.9364	0.812	-0.201
Mof_C 	C 	0.0954	0.9323	0.876	-0.054
Mof_H 	H 	0.1098	0.944	0.924	0.019
Mof_C 	C 	0.0617	0.9109	0.8698	0.039
Mof_H 	H 	0.0531	0.9081	0.9135	-0.093
Mof_C 	C 	0.0407	0.8937	0.7996	-0.139
Mof_C 	C 	0.0534	0.8979	0.7356	-0.003
Mof_H 	H 	0.039	0.8861	0.6876	0.038
Mof_C 	C 	0.0871	0.9192	0.7418	-0.012
Mof_H 	H 	0.0957	0.9221	0.698	0.017
Mof_C 	C 	0.0004	0.8714	0.788	0.379
Mof_N 	N 	0.6581	0.8861	0.0636	-0.229
Mof_C 	C 	0.6647	0.9031	0.1309	-0.047
Mof_H 	H 	0.6897	0.8984	0.1844	0.032
Mof_C 	C 	0.6346	0.927	0.1199	0.043
Mof_H 	H 	0.6391	0.9386	0.166	-0.003
Mof_C 	C 	0.598	0.9338	0.042	-0.218
Mof_C 	C 	0.5914	0.9168	0.9743	0.084
Mof_H 	H 	0.5663	0.9215	0.9208	-0.014
Mof_C 	C 	0.6214	0.8929	0.9853	-0.007
Mof_H 	H 	0.6169	0.8813	0.9393	0.024
Mof_O 	O 	0.5387	0.9679	0.953	-0.51
Mof_O 	O 	0.5648	0.9695	0.096	-0.544
Mof_C 	C 	0.5663	0.9577	0.03	0.384
Mof_Pr	Pr	0.42753	0.32788	0.76702	2.093
Mof_Cu	Cu	0.19395	0.34907	0.0869	0.705
Mof_Cu	Cu	0.2664	0.31957	0.0888	0.705
Mof_Cu	Cu	0.24506	0.31331	0.2092	0.713
Mof_Cu	Cu	0.18292	0.29328	0.0691	0.704
Mof_Cu	Cu	0.6449	0.47192	0.8052	0.721
Mof_I 	I 	0.71909	0.54797	0.7777	-0.638
Mof_I 	I 	0.17573	0.32639	0.94319	-0.523
Mof_I 	I 	0.27141	0.26705	0.14805	-0.605
Mof_I 	I 	0.28741	0.36323	0.18995	-0.584
Mof_I 	I 	0.15053	0.31931	0.16905	-0.607
Mof_O 	O 	0.4095	0.3463	0.8854	-0.88
Mof_O 	O 	0.3613	0.3133	0.8074	-0.552
Mof_O 	O 	0.4885	0.3053	0.9004	-0.709
Mof_O 	O 	0.5091	0.3028	0.7983	-0.466
Mof_O 	O 	0.3485	0.3228	0.6358	-0.46
Mof_O 	O 	0.4143	0.3115	0.6238	-0.415
Mof_O 	O 	0.494	0.3653	0.8476	-0.846
Mof_O 	O 	0.4783	0.3604	0.7157	-0.462
Mof_N 	N 	0.309	0.3207	0.0306	-0.204
Mof_C 	C 	0.3441	0.342	0.0453	-0.207
Mof_H 	H 	0.3529	0.3547	0.0908	0.076
Mof_C 	C 	0.3663	0.3448	0.9932	0.294
Mof_H 	H 	0.3903	0.3594	0.0032	-0.21
Mof_C 	C 	0.3534	0.3262	0.9265	-0.288
Mof_C 	C 	0.3182	0.3048	0.9119	0.091
Mof_H 	H 	0.3094	0.2921	0.8663	0.011
Mof_C 	C 	0.296	0.3021	0.9639	-0.018
Mof_H 	H 	0.272	0.2875	0.9539	0.039
Mof_C 	C 	0.3749	0.3287	0.8661	0.563
Mof_N 	N 	0.6332	0.2383	0.0133	-0.216
Mof_C 	C 	0.6019	0.2487	0.0446	-0.151
Mof_H 	H 	0.606	0.2424	0.0971	0.058
Mof_C 	C 	0.5648	0.2682	0.999	0.203
Mof_H 	H 	0.5435	0.2752	0.0204	-0.099
Mof_C 	C 	0.5589	0.2774	0.9221	-0.162
Mof_C 	C 	0.5902	0.2671	0.8908	0.017
Mof_H 	H 	0.5861	0.2733	0.8383	0.038
Mof_C 	C 	0.6273	0.2475	0.9364	0.016
Mof_H 	H 	0.6486	0.2405	0.915	0.03
Mof_C 	C 	0.5153	0.2978	0.868	0.398
Mof_N 	N 	0.28	0.3091	0.331	-0.217
Mof_C 	C 	0.2596	0.3194	0.3809	0.005
Mof_H 	H 	0.2259	0.3251	0.3569	0.014
Mof_C 	C 	0.2884	0.3213	0.4658	-0.04
Mof_H 	H 	0.2744	0.3284	0.4999	0.047
Mof_C 	C 	0.3377	0.313	0.5009	-0.057
Mof_C 	C 	0.3581	0.3027	0.4511	-0.037
Mof_H 	H 	0.3918	0.297	0.4751	0.058
Mof_C 	C 	0.3293	0.3007	0.3661	0.008
Mof_H 	H 	0.3432	0.2937	0.3321	0.012
Mof_C 	C 	0.3676	0.3162	0.5899	0.307
Mof_N 	N 	0.6081	0.4364	0.812	-0.198
Mof_C 	C 	0.5954	0.4323	0.876	-0.062
Mof_H 	H 	0.6098	0.444	0.924	0.022
Mof_C 	C 	0.5617	0.4109	0.8698	0.06
Mof_H 	H 	0.5531	0.4081	0.9135	-0.1
Mof_C 	C 	0.5407	0.3937	0.7996	-0.165
Mof_C 	C 	0.5534	0.3979	0.7356	0.015
Mof_H 	H 	0.539	0.3861	0.6876	0.039
Mof_C 	C 	0.5871	0.4192	0.7418	-0.018
Mof_H 	H 	0.5957	0.4221	0.698	0.022
Mof_C 	C 	0.5004	0.3714	0.788	0.466
Mof_N 	N 	0.1581	0.3861	0.0636	-0.23
Mof_C 	C 	0.1647	0.4031	0.1309	-0.049
Mof_H 	H 	0.1897	0.3984	0.1844	0.031
Mof_C 	C 	0.1346	0.427	0.1199	0.044
Mof_H 	H 	0.1391	0.4386	0.166	-0.005
Mof_C 	C 	0.098	0.4338	0.042	-0.224
Mof_C 	C 	0.0914	0.4168	0.9743	0.086
Mof_H 	H 	0.0663	0.4215	0.9208	-0.022
Mof_C 	C 	0.1214	0.3929	0.9853	-0.01
Mof_H 	H 	0.1169	0.3813	0.9393	0.021
Mof_O 	O 	0.0387	0.4679	0.953	-0.532
Mof_O 	O 	0.0648	0.4695	0.096	-0.544
Mof_C 	C 	0.0663	0.4577	0.03	0.385
Mof_Pr	Pr	0.07247	0.82788	0.23298	2.062
Mof_Cu	Cu	0.30605	0.84907	0.9131	0.726
Mof_Cu	Cu	0.2336	0.81957	0.9112	0.723
Mof_Cu	Cu	0.25494	0.81331	0.7908	0.712
Mof_Cu	Cu	0.31708	0.79328	0.9309	0.727
Mof_Cu	Cu	0.8551	0.97192	0.1948	0.722
Mof_I 	I 	0.78091	0.04797	0.2223	-0.648
Mof_I 	I 	0.32427	0.82639	0.05681	-0.619
Mof_I 	I 	0.22859	0.76705	0.85195	-0.578
Mof_I 	I 	0.21259	0.86323	0.81005	-0.568
Mof_I 	I 	0.34947	0.81931	0.83095	-0.569
Mof_O 	O 	0.0905	0.8463	0.1146	-0.874
Mof_O 	O 	0.1387	0.8133	0.1926	-0.535
Mof_O 	O 	0.0115	0.8053	0.0996	-0.734
Mof_O 	O 	0.9909	0.8028	0.2017	-0.446
Mof_O 	O 	0.1515	0.8228	0.3642	-0.461
Mof_O 	O 	0.0857	0.8115	0.3762	-0.42
Mof_O 	O 	0.006	0.8653	0.1524	-0.892
Mof_O 	O 	0.0217	0.8604	0.2843	-0.507
Mof_N 	N 	0.191	0.8207	0.9694	-0.195
Mof_C 	C 	0.1559	0.842	0.9547	0.083
Mof_H 	H 	0.1471	0.8547	0.9092	-0.013
Mof_C 	C 	0.1337	0.8448	0.0068	-0.145
Mof_H 	H 	0.1097	0.8594	0.9968	0.005
Mof_C 	C 	0.1466	0.8262	0.0735	-0.143
Mof_C 	C 	0.1818	0.8048	0.0881	0.014
Mof_H 	H 	0.1906	0.7921	0.1337	0.033
Mof_C 	C 	0.204	0.8021	0.0361	-0.069
Mof_H 	H 	0.228	0.7875	0.0461	0.032
Mof_C 	C 	0.1251	0.8287	0.1339	0.492
Mof_N 	N 	0.8668	0.7383	0.9867	-0.204
Mof_C 	C 	0.8981	0.7487	0.9554	0.127
Mof_H 	H 	0.894	0.7424	0.9029	-0.024
Mof_C 	C 	0.9352	0.7682	0.001	-0.211
Mof_H 	H 	0.9565	0.7752	0.9796	0.118
Mof_C 	C 	0.9411	0.7774	0.0779	-0.032
Mof_C 	C 	0.9098	0.7671	0.1092	-0.047
Mof_H 	H 	0.9139	0.7733	0.1617	0.058
Mof_C 	C 	0.8727	0.7475	0.0636	-0.036
Mof_H 	H 	0.8514	0.7405	0.085	0.032
Mof_C 	C 	0.9847	0.7978	0.132	0.38
Mof_N 	N 	0.22	0.8091	0.669	-0.218
Mof_C 	C 	0.2404	0.8194	0.6191	0.004
Mof_H 	H 	0.2741	0.8251	0.6431	0.015
Mof_C 	C 	0.2116	0.8213	0.5342	-0.038
Mof_H 	H 	0.2256	0.8284	0.5001	0.046
Mof_C 	C 	0.1623	0.813	0.4991	-0.061
Mof_C 	C 	0.1419	0.8027	0.5489	-0.036
Mof_H 	H 	0.1082	0.797	0.5249	0.053
Mof_C 	C 	0.1707	0.8007	0.6339	0.006
Mof_H 	H 	0.1568	0.7937	0.6679	0.01
Mof_C 	C 	0.1324	0.8162	0.4101	0.308
Mof_N 	N 	0.8919	0.9364	0.188	-0.197
Mof_C 	C 	0.9046	0.9323	0.124	-0.072
Mof_H 	H 	0.8902	0.944	0.076	0.016
Mof_C 	C 	0.9383	0.9109	0.1302	0.072
Mof_H 	H 	0.9469	0.9081	0.0865	-0.106
Mof_C 	C 	0.9593	0.8937	0.2004	-0.188
Mof_C 	C 	0.9466	0.8979	0.2644	0.03
Mof_H 	H 	0.961	0.8861	0.3124	0.042
Mof_C 	C 	0.9129	0.9192	0.2582	-0.025
Mof_H 	H 	0.9043	0.9221	0.302	0.027
Mof_C 	C 	0.9996	0.8714	0.212	0.545
Mof_N 	N 	0.3419	0.8861	0.9364	-0.184
Mof_C 	C 	0.3353	0.9031	0.8691	-0.014
Mof_H 	H 	0.3103	0.8984	0.8156	0.022
Mof_C 	C 	0.3654	0.927	0.8801	0.009
Mof_H 	H 	0.3609	0.9386	0.834	0.01
Mof_C 	C 	0.402	0.9338	0.958	-0.113
Mof_C 	C 	0.4086	0.9168	0.0257	-0.038
Mof_H 	H 	0.4337	0.9215	0.0792	0.009
Mof_C 	C 	0.3786	0.8929	0.0147	-0.067
Mof_H 	H 	0.3831	0.8813	0.0607	0.025
Mof_O 	O 	0.4613	0.9679	0.047	-0.584
Mof_O 	O 	0.4352	0.9695	0.904	-0.549
Mof_C 	C 	0.4337	0.9577	0.97	0.455
Mof_Pr	Pr	0.57247	0.32788	0.23298	2.079
Mof_Cu	Cu	0.80605	0.34907	0.9131	0.726
Mof_Cu	Cu	0.7336	0.31957	0.9112	0.723
Mof_Cu	Cu	0.75494	0.31331	0.7908	0.712
Mof_Cu	Cu	0.81708	0.29328	0.9309	0.726
Mof_Cu	Cu	0.3551	0.47192	0.1948	0.72
Mof_I 	I 	0.28091	0.54797	0.2223	-0.65
Mof_I 	I 	0.82427	0.32639	0.05681	-0.612
Mof_I 	I 	0.72859	0.26705	0.85195	-0.576
Mof_I 	I 	0.71259	0.36323	0.81005	-0.567
Mof_I 	I 	0.84947	0.31931	0.83095	-0.562
Mof_O 	O 	0.5905	0.3463	0.1146	-0.891
Mof_O 	O 	0.6387	0.3133	0.1926	-0.538
Mof_O 	O 	0.5115	0.3053	0.0996	-0.713
Mof_O 	O 	0.4909	0.3028	0.2017	-0.454
Mof_O 	O 	0.6515	0.3228	0.3642	-0.46
Mof_O 	O 	0.5857	0.3115	0.3762	-0.415
Mof_O 	O 	0.506	0.3653	0.1524	-0.86
Mof_O 	O 	0.5217	0.3604	0.2843	-0.464
Mof_N 	N 	0.691	0.3207	0.9694	-0.195
Mof_C 	C 	0.6559	0.342	0.9547	0.08
Mof_H 	H 	0.6471	0.3547	0.9092	-0.011
Mof_C 	C 	0.6337	0.3448	0.0068	-0.139
Mof_H 	H 	0.6097	0.3594	0.9968	-0
Mof_C 	C 	0.6466	0.3262	0.0735	-0.149
Mof_C 	C 	0.6818	0.3048	0.0881	0.017
Mof_H 	H 	0.6906	0.2921	0.1337	0.032
Mof_C 	C 	0.704	0.3021	0.0361	-0.069
Mof_H 	H 	0.728	0.2875	0.0461	0.033
Mof_C 	C 	0.6251	0.3287	0.1339	0.499
Mof_N 	N 	0.3668	0.2383	0.9867	-0.205
Mof_C 	C 	0.3981	0.2487	0.9554	0.137
Mof_H 	H 	0.394	0.2424	0.9029	-0.03
Mof_C 	C 	0.4352	0.2682	0.001	-0.232
Mof_H 	H 	0.4565	0.2752	0.9796	0.118
Mof_C 	C 	0.4411	0.2774	0.0779	-0.023
Mof_C 	C 	0.4098	0.2671	0.1092	-0.054
Mof_H 	H 	0.4139	0.2733	0.1617	0.057
Mof_C 	C 	0.3727	0.2475	0.0636	-0.037
Mof_H 	H 	0.3514	0.2405	0.085	0.031
Mof_C 	C 	0.4847	0.2978	0.132	0.339
Mof_N 	N 	0.72	0.3091	0.669	-0.218
Mof_C 	C 	0.7404	0.3194	0.6191	0.005
Mof_H 	H 	0.7741	0.3251	0.6431	0.016
Mof_C 	C 	0.7116	0.3213	0.5342	-0.039
Mof_H 	H 	0.7256	0.3284	0.5001	0.048
Mof_C 	C 	0.6623	0.313	0.4991	-0.058
Mof_C 	C 	0.6419	0.3027	0.5489	-0.037
Mof_H 	H 	0.6082	0.297	0.5249	0.058
Mof_C 	C 	0.6707	0.3007	0.6339	0.008
Mof_H 	H 	0.6568	0.2937	0.6679	0.012
Mof_C 	C 	0.6324	0.3162	0.4101	0.308
Mof_N 	N 	0.3919	0.4364	0.188	-0.2
Mof_C 	C 	0.4046	0.4323	0.124	-0.071
Mof_H 	H 	0.3902	0.444	0.076	0.011
Mof_C 	C 	0.4383	0.4109	0.1302	0.061
Mof_H 	H 	0.4469	0.4081	0.0865	-0.115
Mof_C 	C 	0.4593	0.3937	0.2004	-0.174
Mof_C 	C 	0.4466	0.3979	0.2644	0.017
Mof_H 	H 	0.461	0.3861	0.3124	0.038
Mof_C 	C 	0.4129	0.4192	0.2582	-0.023
Mof_H 	H 	0.4043	0.4221	0.302	0.023
Mof_C 	C 	0.4996	0.3714	0.212	0.469
Mof_N 	N 	0.8419	0.3861	0.9364	-0.185
Mof_C 	C 	0.8353	0.4031	0.8691	-0.013
Mof_H 	H 	0.8103	0.3984	0.8156	0.023
Mof_C 	C 	0.8654	0.427	0.8801	0.01
Mof_H 	H 	0.8609	0.4386	0.834	0.01
Mof_C 	C 	0.902	0.4338	0.958	-0.112
Mof_C 	C 	0.9086	0.4168	0.0257	-0.035
Mof_H 	H 	0.9337	0.4215	0.0792	0.015
Mof_C 	C 	0.8786	0.3929	0.0147	-0.063
Mof_H 	H 	0.8831	0.3813	0.0607	0.027
Mof_O 	O 	0.9613	0.4679	0.047	-0.56
Mof_O 	O 	0.9352	0.4695	0.904	-0.553
Mof_C 	C 	0.9337	0.4577	0.97	0.453
Mof_Pr	Pr	0.07247	0.17212	0.23298	2.061
Mof_Cu	Cu	0.30605	0.15093	0.9131	0.726
Mof_Cu	Cu	0.2336	0.18043	0.9112	0.723
Mof_Cu	Cu	0.25494	0.18669	0.7908	0.712
Mof_Cu	Cu	0.31708	0.20672	0.9309	0.727
Mof_Cu	Cu	0.8551	0.02808	0.1948	0.72
Mof_I 	I 	0.78091	0.95203	0.2223	-0.645
Mof_I 	I 	0.32427	0.17361	0.05681	-0.619
Mof_I 	I 	0.22859	0.23295	0.85195	-0.578
Mof_I 	I 	0.21259	0.13677	0.81005	-0.569
Mof_I 	I 	0.34947	0.18069	0.83095	-0.569
Mof_O 	O 	0.0905	0.1537	0.1146	-0.874
Mof_O 	O 	0.1387	0.1867	0.1926	-0.535
Mof_O 	O 	0.0115	0.1947	0.0996	-0.734
Mof_O 	O 	0.9909	0.1972	0.2017	-0.446
Mof_O 	O 	0.1515	0.1772	0.3642	-0.461
Mof_O 	O 	0.0857	0.1885	0.3762	-0.42
Mof_O 	O 	0.006	0.1347	0.1524	-0.892
Mof_O 	O 	0.0217	0.1396	0.2843	-0.507
Mof_N 	N 	0.191	0.1793	0.9694	-0.195
Mof_C 	C 	0.1559	0.158	0.9547	0.083
Mof_H 	H 	0.1471	0.1453	0.9092	-0.013
Mof_C 	C 	0.1337	0.1552	0.0068	-0.145
Mof_H 	H 	0.1097	0.1406	0.9968	0.005
Mof_C 	C 	0.1466	0.1738	0.0735	-0.143
Mof_C 	C 	0.1818	0.1952	0.0881	0.014
Mof_H 	H 	0.1906	0.2079	0.1337	0.033
Mof_C 	C 	0.204	0.1979	0.0361	-0.069
Mof_H 	H 	0.228	0.2125	0.0461	0.032
Mof_C 	C 	0.1251	0.1713	0.1339	0.492
Mof_N 	N 	0.8668	0.2617	0.9867	-0.204
Mof_C 	C 	0.8981	0.2513	0.9554	0.127
Mof_H 	H 	0.894	0.2576	0.9029	-0.024
Mof_C 	C 	0.9352	0.2318	0.001	-0.211
Mof_H 	H 	0.9565	0.2248	0.9796	0.118
Mof_C 	C 	0.9411	0.2226	0.0779	-0.032
Mof_C 	C 	0.9098	0.2329	0.1092	-0.047
Mof_H 	H 	0.9139	0.2267	0.1617	0.058
Mof_C 	C 	0.8727	0.2525	0.0636	-0.035
Mof_H 	H 	0.8514	0.2595	0.085	0.032
Mof_C 	C 	0.9847	0.2022	0.132	0.38
Mof_N 	N 	0.22	0.1909	0.669	-0.218
Mof_C 	C 	0.2404	0.1806	0.6191	0.004
Mof_H 	H 	0.2741	0.1749	0.6431	0.015
Mof_C 	C 	0.2116	0.1787	0.5342	-0.038
Mof_H 	H 	0.2256	0.1716	0.5001	0.046
Mof_C 	C 	0.1623	0.187	0.4991	-0.061
Mof_C 	C 	0.1419	0.1973	0.5489	-0.036
Mof_H 	H 	0.1082	0.203	0.5249	0.053
Mof_C 	C 	0.1707	0.1993	0.6339	0.006
Mof_H 	H 	0.1568	0.2063	0.6679	0.01
Mof_C 	C 	0.1324	0.1838	0.4101	0.308
Mof_N 	N 	0.8919	0.0636	0.188	-0.197
Mof_C 	C 	0.9046	0.0677	0.124	-0.072
Mof_H 	H 	0.8902	0.056	0.076	0.015
Mof_C 	C 	0.9383	0.0891	0.1302	0.072
Mof_H 	H 	0.9469	0.0919	0.0865	-0.106
Mof_C 	C 	0.9593	0.1063	0.2004	-0.188
Mof_C 	C 	0.9466	0.1021	0.2644	0.03
Mof_H 	H 	0.961	0.1139	0.3124	0.041
Mof_C 	C 	0.9129	0.0808	0.2582	-0.026
Mof_H 	H 	0.9043	0.0779	0.302	0.026
Mof_C 	C 	0.9996	0.1286	0.212	0.545
Mof_N 	N 	0.3419	0.1139	0.9364	-0.184
Mof_C 	C 	0.3353	0.0969	0.8691	-0.014
Mof_H 	H 	0.3103	0.1016	0.8156	0.022
Mof_C 	C 	0.3654	0.073	0.8801	0.009
Mof_H 	H 	0.3609	0.0614	0.834	0.009
Mof_C 	C 	0.402	0.0662	0.958	-0.113
Mof_C 	C 	0.4086	0.0832	0.0257	-0.038
Mof_H 	H 	0.4337	0.0785	0.0792	0.009
Mof_C 	C 	0.3786	0.1071	0.0147	-0.067
Mof_H 	H 	0.3831	0.1187	0.0607	0.025
Mof_O 	O 	0.4613	0.0321	0.047	-0.585
Mof_O 	O 	0.4352	0.0305	0.904	-0.551
Mof_C 	C 	0.4337	0.0423	0.97	0.456
Mof_Pr	Pr	0.57247	0.67212	0.23298	2.079
Mof_Cu	Cu	0.80605	0.65093	0.9131	0.726
Mof_Cu	Cu	0.7336	0.68043	0.9112	0.723
Mof_Cu	Cu	0.75494	0.68669	0.7908	0.712
Mof_Cu	Cu	0.81708	0.70672	0.9309	0.726
Mof_Cu	Cu	0.3551	0.52808	0.1948	0.72
Mof_I 	I 	0.28091	0.45203	0.2223	-0.65
Mof_I 	I 	0.82427	0.67361	0.05681	-0.612
Mof_I 	I 	0.72859	0.73295	0.85195	-0.576
Mof_I 	I 	0.71259	0.63677	0.81005	-0.567
Mof_I 	I 	0.84947	0.68069	0.83095	-0.562
Mof_O 	O 	0.5905	0.6537	0.1146	-0.891
Mof_O 	O 	0.6387	0.6867	0.1926	-0.538
Mof_O 	O 	0.5115	0.6947	0.0996	-0.713
Mof_O 	O 	0.4909	0.6972	0.2017	-0.454
Mof_O 	O 	0.6515	0.6772	0.3642	-0.46
Mof_O 	O 	0.5857	0.6885	0.3762	-0.415
Mof_O 	O 	0.506	0.6347	0.1524	-0.86
Mof_O 	O 	0.5217	0.6396	0.2843	-0.464
Mof_N 	N 	0.691	0.6793	0.9694	-0.195
Mof_C 	C 	0.6559	0.658	0.9547	0.08
Mof_H 	H 	0.6471	0.6453	0.9092	-0.011
Mof_C 	C 	0.6337	0.6552	0.0068	-0.139
Mof_H 	H 	0.6097	0.6406	0.9968	-0
Mof_C 	C 	0.6466	0.6738	0.0735	-0.149
Mof_C 	C 	0.6818	0.6952	0.0881	0.017
Mof_H 	H 	0.6906	0.7079	0.1337	0.032
Mof_C 	C 	0.704	0.6979	0.0361	-0.069
Mof_H 	H 	0.728	0.7125	0.0461	0.033
Mof_C 	C 	0.6251	0.6713	0.1339	0.499
Mof_N 	N 	0.3668	0.7617	0.9867	-0.205
Mof_C 	C 	0.3981	0.7513	0.9554	0.137
Mof_H 	H 	0.394	0.7576	0.9029	-0.03
Mof_C 	C 	0.4352	0.7318	0.001	-0.232
Mof_H 	H 	0.4565	0.7248	0.9796	0.118
Mof_C 	C 	0.4411	0.7226	0.0779	-0.023
Mof_C 	C 	0.4098	0.7329	0.1092	-0.054
Mof_H 	H 	0.4139	0.7267	0.1617	0.057
Mof_C 	C 	0.3727	0.7525	0.0636	-0.037
Mof_H 	H 	0.3514	0.7595	0.085	0.031
Mof_C 	C 	0.4847	0.7022	0.132	0.339
Mof_N 	N 	0.72	0.6909	0.669	-0.218
Mof_C 	C 	0.7404	0.6806	0.6191	0.005
Mof_H 	H 	0.7741	0.6749	0.6431	0.016
Mof_C 	C 	0.7116	0.6787	0.5342	-0.039
Mof_H 	H 	0.7256	0.6716	0.5001	0.048
Mof_C 	C 	0.6623	0.687	0.4991	-0.058
Mof_C 	C 	0.6419	0.6973	0.5489	-0.037
Mof_H 	H 	0.6082	0.703	0.5249	0.058
Mof_C 	C 	0.6707	0.6993	0.6339	0.008
Mof_H 	H 	0.6568	0.7063	0.6679	0.012
Mof_C 	C 	0.6324	0.6838	0.4101	0.308
Mof_N 	N 	0.3919	0.5636	0.188	-0.2
Mof_C 	C 	0.4046	0.5677	0.124	-0.071
Mof_H 	H 	0.3902	0.556	0.076	0.011
Mof_C 	C 	0.4383	0.5891	0.1302	0.061
Mof_H 	H 	0.4469	0.5919	0.0865	-0.115
Mof_C 	C 	0.4593	0.6063	0.2004	-0.174
Mof_C 	C 	0.4466	0.6021	0.2644	0.017
Mof_H 	H 	0.461	0.6139	0.3124	0.038
Mof_C 	C 	0.4129	0.5808	0.2582	-0.023
Mof_H 	H 	0.4043	0.5779	0.302	0.023
Mof_C 	C 	0.4996	0.6286	0.212	0.469
Mof_N 	N 	0.8419	0.6139	0.9364	-0.185
Mof_C 	C 	0.8353	0.5969	0.8691	-0.013
Mof_H 	H 	0.8103	0.6016	0.8156	0.023
Mof_C 	C 	0.8654	0.573	0.8801	0.01
Mof_H 	H 	0.8609	0.5614	0.834	0.01
Mof_C 	C 	0.902	0.5662	0.958	-0.112
Mof_C 	C 	0.9086	0.5832	0.0257	-0.035
Mof_H 	H 	0.9337	0.5785	0.0792	0.015
Mof_C 	C 	0.8786	0.6071	0.0147	-0.063
Mof_H 	H 	0.8831	0.6187	0.0607	0.027
Mof_O 	O 	0.9613	0.5321	0.047	-0.56
Mof_O 	O 	0.9352	0.5305	0.904	-0.553
Mof_C 	C 	0.9337	0.5423	0.97	0.453
Mof_Pr	Pr	0.92753	0.17212	0.76702	2.126
Mof_Cu	Cu	0.69395	0.15093	0.0869	0.705
Mof_Cu	Cu	0.7664	0.18043	0.0888	0.705
Mof_Cu	Cu	0.74506	0.18669	0.2092	0.713
Mof_Cu	Cu	0.68292	0.20672	0.0691	0.705
Mof_Cu	Cu	0.1449	0.02808	0.8052	0.721
Mof_I 	I 	0.21909	0.95203	0.7777	-0.637
Mof_I 	I 	0.67573	0.17361	0.94319	-0.519
Mof_I 	I 	0.77141	0.23295	0.14805	-0.603
Mof_I 	I 	0.78741	0.13677	0.18995	-0.581
Mof_I 	I 	0.65053	0.18069	0.16905	-0.599
Mof_O 	O 	0.9095	0.1537	0.8854	-0.859
Mof_O 	O 	0.8613	0.1867	0.8074	-0.55
Mof_O 	O 	0.9885	0.1947	0.9004	-0.667
Mof_O 	O 	0.0091	0.1972	0.7983	-0.472
Mof_O 	O 	0.8485	0.1772	0.6358	-0.46
Mof_O 	O 	0.9143	0.1885	0.6238	-0.411
Mof_O 	O 	0.994	0.1347	0.8476	-0.782
Mof_O 	O 	0.9783	0.1396	0.7157	-0.418
Mof_N 	N 	0.809	0.1793	0.0306	-0.205
Mof_C 	C 	0.8441	0.158	0.0453	-0.195
Mof_H 	H 	0.8529	0.1453	0.0908	0.073
Mof_C 	C 	0.8663	0.1552	0.9932	0.276
Mof_H 	H 	0.8903	0.1406	0.0032	-0.193
Mof_C 	C 	0.8534	0.1738	0.9265	-0.275
Mof_C 	C 	0.8182	0.1952	0.9119	0.084
Mof_H 	H 	0.8094	0.2079	0.8663	0.014
Mof_C 	C 	0.796	0.1979	0.9639	-0.016
Mof_H 	H 	0.772	0.2125	0.9539	0.038
Mof_C 	C 	0.8749	0.1713	0.8661	0.553
Mof_N 	N 	0.1332	0.2617	0.0133	-0.217
Mof_C 	C 	0.1019	0.2513	0.0446	-0.15
Mof_H 	H 	0.106	0.2576	0.0971	0.055
Mof_C 	C 	0.0648	0.2318	0.999	0.195
Mof_H 	H 	0.0435	0.2248	0.0204	-0.101
Mof_C 	C 	0.0589	0.2226	0.9221	-0.153
Mof_C 	C 	0.0902	0.2329	0.8908	0.009
Mof_H 	H 	0.0861	0.2267	0.8383	0.038
Mof_C 	C 	0.1273	0.2525	0.9364	0.019
Mof_H 	H 	0.1486	0.2595	0.915	0.028
Mof_C 	C 	0.0153	0.2022	0.868	0.357
Mof_N 	N 	0.78	0.1909	0.331	-0.217
Mof_C 	C 	0.7596	0.1806	0.3809	0.007
Mof_H 	H 	0.7259	0.1749	0.3569	0.015
Mof_C 	C 	0.7884	0.1787	0.4658	-0.04
Mof_H 	H 	0.7744	0.1716	0.4999	0.049
Mof_C 	C 	0.8377	0.187	0.5009	-0.054
Mof_C 	C 	0.8581	0.1973	0.4511	-0.038
Mof_H 	H 	0.8918	0.203	0.4751	0.062
Mof_C 	C 	0.8293	0.1993	0.3661	0.01
Mof_H 	H 	0.8432	0.2063	0.3321	0.013
Mof_C 	C 	0.8676	0.1838	0.5899	0.307
Mof_N 	N 	0.1081	0.0636	0.812	-0.202
Mof_C 	C 	0.0954	0.0677	0.876	-0.054
Mof_H 	H 	0.1098	0.056	0.924	0.018
Mof_C 	C 	0.0617	0.0891	0.8698	0.039
Mof_H 	H 	0.0531	0.0919	0.9135	-0.094
Mof_C 	C 	0.0407	0.1063	0.7996	-0.139
Mof_C 	C 	0.0534	0.1021	0.7356	-0.003
Mof_H 	H 	0.039	0.1139	0.6876	0.038
Mof_C 	C 	0.0871	0.0808	0.7418	-0.012
Mof_H 	H 	0.0957	0.0779	0.698	0.017
Mof_C 	C 	0.0004	0.1286	0.788	0.379
Mof_N 	N 	0.6581	0.1139	0.0636	-0.229
Mof_C 	C 	0.6647	0.0969	0.1309	-0.047
Mof_H 	H 	0.6897	0.1016	0.1844	0.031
Mof_C 	C 	0.6346	0.073	0.1199	0.043
Mof_H 	H 	0.6391	0.0614	0.166	-0.003
Mof_C 	C 	0.598	0.0662	0.042	-0.219
Mof_C 	C 	0.5914	0.0832	0.9743	0.084
Mof_H 	H 	0.5663	0.0785	0.9208	-0.015
Mof_C 	C 	0.6214	0.1071	0.9853	-0.007
Mof_H 	H 	0.6169	0.1187	0.9393	0.024
Mof_O 	O 	0.5387	0.0321	0.953	-0.511
Mof_O 	O 	0.5648	0.0305	0.096	-0.546
Mof_C 	C 	0.5663	0.0423	0.03	0.385
Mof_Pr	Pr	0.42753	0.67212	0.76702	2.093
Mof_Cu	Cu	0.19395	0.65093	0.0869	0.705
Mof_Cu	Cu	0.2664	0.68043	0.0888	0.705
Mof_Cu	Cu	0.24506	0.68669	0.2092	0.713
Mof_Cu	Cu	0.18292	0.70672	0.0691	0.704
Mof_Cu	Cu	0.6449	0.52808	0.8052	0.721
Mof_I 	I 	0.71909	0.45203	0.7777	-0.638
Mof_I 	I 	0.17573	0.67361	0.94319	-0.523
Mof_I 	I 	0.27141	0.73295	0.14805	-0.605
Mof_I 	I 	0.28741	0.63677	0.18995	-0.584
Mof_I 	I 	0.15053	0.68069	0.16905	-0.607
Mof_O 	O 	0.4095	0.6537	0.8854	-0.88
Mof_O 	O 	0.3613	0.6867	0.8074	-0.552
Mof_O 	O 	0.4885	0.6947	0.9004	-0.709
Mof_O 	O 	0.5091	0.6972	0.7983	-0.466
Mof_O 	O 	0.3485	0.6772	0.6358	-0.46
Mof_O 	O 	0.4143	0.6885	0.6238	-0.415
Mof_O 	O 	0.494	0.6347	0.8476	-0.846
Mof_O 	O 	0.4783	0.6396	0.7157	-0.462
Mof_N 	N 	0.309	0.6793	0.0306	-0.204
Mof_C 	C 	0.3441	0.658	0.0453	-0.207
Mof_H 	H 	0.3529	0.6453	0.0908	0.076
Mof_C 	C 	0.3663	0.6552	0.9932	0.294
Mof_H 	H 	0.3903	0.6406	0.0032	-0.21
Mof_C 	C 	0.3534	0.6738	0.9265	-0.288
Mof_C 	C 	0.3182	0.6952	0.9119	0.091
Mof_H 	H 	0.3094	0.7079	0.8663	0.011
Mof_C 	C 	0.296	0.6979	0.9639	-0.018
Mof_H 	H 	0.272	0.7125	0.9539	0.039
Mof_C 	C 	0.3749	0.6713	0.8661	0.563
Mof_N 	N 	0.6332	0.7617	0.0133	-0.216
Mof_C 	C 	0.6019	0.7513	0.0446	-0.151
Mof_H 	H 	0.606	0.7576	0.0971	0.058
Mof_C 	C 	0.5648	0.7318	0.999	0.203
Mof_H 	H 	0.5435	0.7248	0.0204	-0.099
Mof_C 	C 	0.5589	0.7226	0.9221	-0.162
Mof_C 	C 	0.5902	0.7329	0.8908	0.017
Mof_H 	H 	0.5861	0.7267	0.8383	0.038
Mof_C 	C 	0.6273	0.7525	0.9364	0.016
Mof_H 	H 	0.6486	0.7595	0.915	0.03
Mof_C 	C 	0.5153	0.7022	0.868	0.398
Mof_N 	N 	0.28	0.6909	0.331	-0.217
Mof_C 	C 	0.2596	0.6806	0.3809	0.005
Mof_H 	H 	0.2259	0.6749	0.3569	0.014
Mof_C 	C 	0.2884	0.6787	0.4658	-0.04
Mof_H 	H 	0.2744	0.6716	0.4999	0.047
Mof_C 	C 	0.3377	0.687	0.5009	-0.057
Mof_C 	C 	0.3581	0.6973	0.4511	-0.037
Mof_H 	H 	0.3918	0.703	0.4751	0.058
Mof_C 	C 	0.3293	0.6993	0.3661	0.008
Mof_H 	H 	0.3432	0.7063	0.3321	0.012
Mof_C 	C 	0.3676	0.6838	0.5899	0.307
Mof_N 	N 	0.6081	0.5636	0.812	-0.198
Mof_C 	C 	0.5954	0.5677	0.876	-0.062
Mof_H 	H 	0.6098	0.556	0.924	0.022
Mof_C 	C 	0.5617	0.5891	0.8698	0.06
Mof_H 	H 	0.5531	0.5919	0.9135	-0.1
Mof_C 	C 	0.5407	0.6063	0.7996	-0.165
Mof_C 	C 	0.5534	0.6021	0.7356	0.015
Mof_H 	H 	0.539	0.6139	0.6876	0.039
Mof_C 	C 	0.5871	0.5808	0.7418	-0.018
Mof_H 	H 	0.5957	0.5779	0.698	0.022
Mof_C 	C 	0.5004	0.6286	0.788	0.466
Mof_N 	N 	0.1581	0.6139	0.0636	-0.23
Mof_C 	C 	0.1647	0.5969	0.1309	-0.049
Mof_H 	H 	0.1897	0.6016	0.1844	0.031
Mof_C 	C 	0.1346	0.573	0.1199	0.044
Mof_H 	H 	0.1391	0.5614	0.166	-0.005
Mof_C 	C 	0.098	0.5662	0.042	-0.224
Mof_C 	C 	0.0914	0.5832	0.9743	0.086
Mof_H 	H 	0.0663	0.5785	0.9208	-0.022
Mof_C 	C 	0.1214	0.6071	0.9853	-0.01
Mof_H 	H 	0.1169	0.6187	0.9393	0.021
Mof_O 	O 	0.0387	0.5321	0.953	-0.532
Mof_O 	O 	0.0648	0.5305	0.096	-0.544
Mof_C 	C 	0.0663	0.5423	0.03	0.385
Mof_Cu	Cu	0.2267	-4.43509e-33	0.8587	0.678
Mof_Cu	Cu	0.173	-4.43509e-33	0.7022	0.689
Mof_I 	I 	0.16822	-4.43509e-33	0.9427	-0.639
Mof_I 	I 	0.079	-4.43509e-33	0.6689	-0.633
Mof_Pr	Pr	0.48013	-4.43509e-33	0.8615	1.94
Mof_Cu	Cu	0.7267	0.5	0.8587	0.678
Mof_Cu	Cu	0.673	0.5	0.7022	0.691
Mof_I 	I 	0.66822	0.5	0.9427	-0.633
Mof_I 	I 	0.579	0.5	0.6689	-0.616
Mof_Pr	Pr	0.98013	0.5	0.8615	2.019
Mof_Cu	Cu	0.7733	0	0.1413	0.671
Mof_Cu	Cu	0.827	0	0.2978	0.692
Mof_I 	I 	0.83178	0	0.0573	-0.681
Mof_I 	I 	0.921	-2.21755e-33	0.3311	-0.604
Mof_Pr	Pr	0.51987	-5.54387e-34	0.1385	1.901
Mof_Cu	Cu	0.2733	0.5	0.1413	0.671
Mof_Cu	Cu	0.327	0.5	0.2978	0.692
Mof_I 	I 	0.33178	0.5	0.0573	-0.687
Mof_I 	I 	0.421	0.5	0.3311	-0.618
Mof_Pr	Pr	0.01987	0.5	0.1385	1.825
Mof_K 	K 	-0	0.8561	-0	3.266
Mof_K 	K 	0.5	0.3561	-0	3.41
Mof_K 	K 	-2.21755e-33	0.1439	-0	3.265
Mof_K 	K 	0.5	0.6439	-0	3.409
_end
