data_functionalizedCrystal
_audit_creation_method	'EQeq! by Chris Wilmer'
_symmetry_space_group_name_H-M	'P1'
_symmetry_Int_Tables_number	1
_symmetry_cell_setting	triclinic
loop_
_symmetry_equiv_pos_as_xyz
  x,y,z
_cell_length_a	13.71
_cell_length_b	14.753
_cell_length_c	20.027
_cell_angle_alpha	90
_cell_angle_beta	107.969
_cell_angle_gamma	90
loop_
_atom_site_label
_atom_site_type_symbol
_atom_site_fract_x
_atom_site_fract_y
_atom_site_fract_z
_atom_site_charge
Mof_Zn	Zn	0.40155	0.9748	0.43787	1.233
Mof_Zn	Zn	0.64838	0.90111	0.44715	1.232
Mof_P 	P 	0.72426	0.97341	0.304	0.211
Mof_O 	O 	0.67001	0.95921	0.3571	-0.377
Mof_O 	O 	0.45182	0.31415	0.11301	-0.476
Mof_C 	C 	0.70116	0.88159	0.24157	0.001
Mof_C 	C 	0.8604	0.98347	0.34254	-0.018
Mof_O 	O 	0.21072	0.06765	0.4937	-0.471
Mof_O 	O 	0.63642	0.58086	0.12536	-0.472
Mof_C 	C 	0.6784	0.07458	0.25363	0.004
Mof_O 	O 	0.60718	0.35672	0.10874	-0.481
Mof_O 	O 	0.24359	0.95582	0.42823	-0.433
Mof_C 	C 	0.5939	0.22473	0.17097	-0.126
Mof_C 	C 	0.5469	0.3051	0.12709	0.415
Mof_O 	O 	0.6284	0.67218	0.03597	-0.46
Mof_C 	C 	0.5319	0.1652	0.194	0.038
Mof_H 	H 	0.4617	0.1755	0.1819	0.028
Mof_C 	C 	0.6975	0.2065	0.1888	0.039
Mof_H 	H 	0.7398	0.2448	0.1732	0.033
Mof_H 	H 	0.567	0.0513	0.435	0.303
Mof_O 	O 	0.56004	0.00525	0.45858	-0.871
Mof_C 	C 	0.071	0.9985	0.41064	-0.097
Mof_C 	C 	0.5744	0.0911	0.2345	-0.091
Mof_H 	H 	0.5322	0.0517	0.2493	0.066
Mof_C 	C 	0.1854	0.0076	0.44694	0.384
Mof_C 	C 	0.6722	0.8	0.26099	-0.086
Mof_H 	H 	0.6652	0.7927	0.3054	0.061
Mof_C 	C 	0.8986	0.0478	0.3945	-0.064
Mof_H 	H 	0.8533	0.0862	0.407	0.055
Mof_C 	C 	0.0019	0.056	0.42765	0.011
Mof_H 	H 	0.0259	0.1003	0.4618	0.042
Mof_C 	C 	0.7393	0.1322	0.2294	-0.095
Mof_H 	H 	0.8092	0.1208	0.2406	0.063
Mof_C 	C 	0.7126	0.8913	0.17612	-0.091
Mof_H 	H 	0.7333	0.9466	0.1628	0.062
Mof_C 	C 	0.6531	0.7274	0.21437	0.033
Mof_H 	H 	0.6333	0.6719	0.228	0.03
Mof_C 	C 	0.6931	0.8184	0.12984	0.036
Mof_H 	H 	0.7006	0.8254	0.0855	0.029
Mof_C 	C 	0.0341	0.934	0.3606	0.017
Mof_H 	H 	0.0796	0.8945	0.3494	0.04
Mof_C 	C 	0.9298	0.926	0.3258	-0.075
Mof_H 	H 	0.9063	0.8821	0.2913	0.057
Mof_C 	C 	0.6629	0.7367	0.1488	-0.12
Mof_C 	C 	0.6405	0.6573	0.09895	0.39
Mof_Zn	Zn	0.59845	0.4748	0.06213	1.232
Mof_Zn	Zn	0.35162	0.40111	0.05285	1.231
Mof_P 	P 	0.27574	0.47341	0.196	0.209
Mof_O 	O 	0.32999	0.45921	0.1429	-0.378
Mof_O 	O 	0.54818	0.81415	0.38699	-0.477
Mof_C 	C 	0.29884	0.38159	0.25843	-0
Mof_C 	C 	0.1396	0.48347	0.15746	-0.013
Mof_O 	O 	0.78928	0.56765	0.0063	-0.472
Mof_O 	O 	0.36358	0.08086	0.37464	-0.472
Mof_C 	C 	0.3216	0.57458	0.24637	0.003
Mof_O 	O 	0.39282	0.85672	0.39126	-0.481
Mof_O 	O 	0.75641	0.45582	0.07177	-0.435
Mof_C 	C 	0.4061	0.72473	0.32903	-0.125
Mof_C 	C 	0.4531	0.8051	0.37291	0.415
Mof_O 	O 	0.3716	0.17218	0.46403	-0.46
Mof_C 	C 	0.4681	0.6652	0.306	0.037
Mof_H 	H 	0.5383	0.6755	0.3181	0.028
Mof_C 	C 	0.3025	0.7065	0.3112	0.039
Mof_H 	H 	0.2602	0.7448	0.3268	0.033
Mof_H 	H 	0.433	0.5513	0.065	0.303
Mof_O 	O 	0.43996	0.50525	0.04142	-0.872
Mof_C 	C 	0.929	0.4985	0.08936	-0.105
Mof_C 	C 	0.4256	0.5911	0.2655	-0.091
Mof_H 	H 	0.4678	0.5517	0.2507	0.066
Mof_C 	C 	0.8146	0.5076	0.05306	0.388
Mof_C 	C 	0.3278	0.3	0.23901	-0.087
Mof_H 	H 	0.3348	0.2927	0.1946	0.061
Mof_C 	C 	0.1014	0.5478	0.1055	-0.075
Mof_H 	H 	0.1467	0.5862	0.093	0.058
Mof_C 	C 	0.9981	0.556	0.07235	0.023
Mof_H 	H 	0.9741	0.6003	0.0382	0.039
Mof_C 	C 	0.2607	0.6322	0.2706	-0.095
Mof_H 	H 	0.1908	0.6208	0.2594	0.063
Mof_C 	C 	0.2874	0.3913	0.32388	-0.092
Mof_H 	H 	0.2667	0.4466	0.3372	0.062
Mof_C 	C 	0.3469	0.2274	0.28563	0.033
Mof_H 	H 	0.3667	0.1719	0.272	0.03
Mof_C 	C 	0.3069	0.3184	0.37016	0.036
Mof_H 	H 	0.2994	0.3254	0.4145	0.028
Mof_C 	C 	0.9659	0.434	0.1394	0.024
Mof_H 	H 	0.9204	0.3945	0.1506	0.038
Mof_C 	C 	0.0702	0.426	0.1742	-0.082
Mof_H 	H 	0.0937	0.3821	0.2087	0.059
Mof_C 	C 	0.3371	0.2367	0.3512	-0.121
Mof_C 	C 	0.3595	0.1573	0.40105	0.39
Mof_Zn	Zn	0.59845	0.0252	0.56213	1.232
Mof_Zn	Zn	0.35162	0.09889	0.55285	1.231
Mof_P 	P 	0.27574	0.02659	0.696	0.21
Mof_O 	O 	0.32999	0.04079	0.6429	-0.378
Mof_O 	O 	0.54818	0.68585	0.88699	-0.477
Mof_C 	C 	0.29884	0.11841	0.75843	-0
Mof_C 	C 	0.1396	0.01653	0.65746	-0.019
Mof_O 	O 	0.78928	0.93235	0.5063	-0.472
Mof_O 	O 	0.36358	0.41914	0.87464	-0.472
Mof_C 	C 	0.3216	0.92542	0.74637	0.004
Mof_O 	O 	0.39282	0.64328	0.89126	-0.481
Mof_O 	O 	0.75641	0.04418	0.57177	-0.433
Mof_C 	C 	0.4061	0.77527	0.82903	-0.126
Mof_C 	C 	0.4531	0.6949	0.87291	0.415
Mof_O 	O 	0.3716	0.32782	0.96403	-0.46
Mof_C 	C 	0.4681	0.8348	0.806	0.038
Mof_H 	H 	0.5383	0.8245	0.8181	0.028
Mof_C 	C 	0.3025	0.7935	0.8112	0.039
Mof_H 	H 	0.2602	0.7552	0.8268	0.033
Mof_H 	H 	0.433	0.9487	0.565	0.303
Mof_O 	O 	0.43996	0.99475	0.54142	-0.871
Mof_C 	C 	0.929	0.0015	0.58936	-0.097
Mof_C 	C 	0.4256	0.9089	0.7655	-0.091
Mof_H 	H 	0.4678	0.9483	0.7507	0.066
Mof_C 	C 	0.8146	0.9924	0.55306	0.384
Mof_C 	C 	0.3278	0.2	0.73901	-0.086
Mof_H 	H 	0.3348	0.2073	0.6946	0.061
Mof_C 	C 	0.1014	0.9522	0.6055	-0.064
Mof_H 	H 	0.1467	0.9138	0.593	0.055
Mof_C 	C 	0.9981	0.944	0.57235	0.011
Mof_H 	H 	0.9741	0.8997	0.5382	0.042
Mof_C 	C 	0.2607	0.8678	0.7706	-0.095
Mof_H 	H 	0.1908	0.8792	0.7594	0.063
Mof_C 	C 	0.2874	0.1087	0.82388	-0.091
Mof_H 	H 	0.2667	0.0534	0.8372	0.062
Mof_C 	C 	0.3469	0.2726	0.78563	0.033
Mof_H 	H 	0.3667	0.3281	0.772	0.03
Mof_C 	C 	0.3069	0.1816	0.87016	0.036
Mof_H 	H 	0.2994	0.1746	0.9145	0.029
Mof_C 	C 	0.9659	0.066	0.6394	0.017
Mof_H 	H 	0.9204	0.1055	0.6506	0.04
Mof_C 	C 	0.0702	0.074	0.6742	-0.075
Mof_H 	H 	0.0937	0.1179	0.7087	0.057
Mof_C 	C 	0.3371	0.2633	0.8512	-0.12
Mof_C 	C 	0.3595	0.3427	0.90105	0.39
Mof_Zn	Zn	0.40155	0.5252	0.93787	1.232
Mof_Zn	Zn	0.64838	0.59889	0.94715	1.231
Mof_P 	P 	0.72426	0.52659	0.804	0.209
Mof_O 	O 	0.67001	0.54079	0.8571	-0.378
Mof_O 	O 	0.45182	0.18585	0.61301	-0.477
Mof_C 	C 	0.70116	0.61841	0.74157	-0
Mof_C 	C 	0.8604	0.51653	0.84254	-0.013
Mof_O 	O 	0.21072	0.43235	0.9937	-0.472
Mof_O 	O 	0.63642	0.91914	0.62536	-0.472
Mof_C 	C 	0.6784	0.42542	0.75363	0.003
Mof_O 	O 	0.60718	0.14328	0.60874	-0.481
Mof_O 	O 	0.24359	0.54418	0.92823	-0.435
Mof_C 	C 	0.5939	0.27527	0.67097	-0.125
Mof_C 	C 	0.5469	0.1949	0.62709	0.415
Mof_O 	O 	0.6284	0.82782	0.53597	-0.46
Mof_C 	C 	0.5319	0.3348	0.694	0.037
Mof_H 	H 	0.4617	0.3245	0.6819	0.028
Mof_C 	C 	0.6975	0.2935	0.6888	0.039
Mof_H 	H 	0.7398	0.2552	0.6732	0.033
Mof_H 	H 	0.567	0.4487	0.935	0.303
Mof_O 	O 	0.56004	0.49475	0.95858	-0.872
Mof_C 	C 	0.071	0.5015	0.91064	-0.105
Mof_C 	C 	0.5744	0.4089	0.7345	-0.091
Mof_H 	H 	0.5322	0.4483	0.7493	0.066
Mof_C 	C 	0.1854	0.4924	0.94694	0.388
Mof_C 	C 	0.6722	0.7	0.76099	-0.087
Mof_H 	H 	0.6652	0.7073	0.8054	0.061
Mof_C 	C 	0.8986	0.4522	0.8945	-0.075
Mof_H 	H 	0.8533	0.4138	0.907	0.058
Mof_C 	C 	0.0019	0.444	0.92765	0.023
Mof_H 	H 	0.0259	0.3997	0.9618	0.039
Mof_C 	C 	0.7393	0.3678	0.7294	-0.095
Mof_H 	H 	0.8092	0.3792	0.7406	0.063
Mof_C 	C 	0.7126	0.6087	0.67612	-0.092
Mof_H 	H 	0.7333	0.5534	0.6628	0.062
Mof_C 	C 	0.6531	0.7726	0.71437	0.033
Mof_H 	H 	0.6333	0.8281	0.728	0.03
Mof_C 	C 	0.6931	0.6816	0.62984	0.036
Mof_H 	H 	0.7006	0.6746	0.5855	0.028
Mof_C 	C 	0.0341	0.566	0.8606	0.024
Mof_H 	H 	0.0796	0.6055	0.8494	0.038
Mof_C 	C 	0.9298	0.574	0.8258	-0.082
Mof_H 	H 	0.9063	0.6179	0.7913	0.059
Mof_C 	C 	0.6629	0.7633	0.6488	-0.121
Mof_C 	C 	0.6405	0.8427	0.59895	0.39
_end
