data_functionalizedCrystal
_audit_creation_method	'EQeq! by Chris Wilmer'
_symmetry_space_group_name_H-M	'P1'
_symmetry_Int_Tables_number	1
_symmetry_cell_setting	triclinic
loop_
_symmetry_equiv_pos_as_xyz
  x,y,z
_cell_length_a	7.307
_cell_length_b	24.96
_cell_length_c	7.27
_cell_angle_alpha	90
_cell_angle_beta	90
_cell_angle_gamma	90
loop_
_atom_site_label
_atom_site_type_symbol
_atom_site_fract_x
_atom_site_fract_y
_atom_site_fract_z
_atom_site_charge
Mof_Zn	Zn	0.94633	0.78031	0.8738	1.202
Mof_O 	O 	0.1047	0.741	0.0706	-0.467
Mof_O 	O 	0.3084	0.6796	0.1612	-0.476
Mof_O 	O 	0.108	0.7395	0.6779	-0.512
Mof_O 	O 	0.3145	0.6796	0.5915	-0.473
Mof_C 	C 	0.1974	0.6979	0.0498	0.609
Mof_C 	C 	0.1605	0.66512	0.8724	-0.774
Mof_H 	H 	0.2406	0.6331	0.8715	0.252
Mof_H 	H 	0.0319	0.6527	0.8727	0.219
Mof_C 	C 	0.1943	0.6969	0.7038	0.563
Mof_C 	C 	0.4446	0.87905	0.8695	-0.031
Mof_C 	C 	0.3213	0.83709	0.8908	0.001
Mof_H 	H 	0.3638	0.8027	0.9268	0.002
Mof_N 	N 	0.1359	0.84547	0.8593	-0.21
Mof_C 	C 	0.0737	0.89581	0.8066	0.074
Mof_C 	C 	0.197	0.93777	0.7853	0.005
Mof_C 	C 	0.3824	0.92939	0.8168	-0.034
Mof_C 	C 	0.518	0.9745	0.8	0.036
Mof_C 	C 	0.0802	0.89525	0.9235	-0.035
Mof_C 	C 	0.1975	0.9391	0.926	-0.036
Mof_C 	C 	0.3851	0.9306	0.912	0.042
Mof_C 	C 	0.5215	0.9735	0.911	-0.055
Mof_Zn	Zn	0.05367	0.21969	0.8738	1.203
Mof_O 	O 	0.8953	0.259	0.0706	-0.466
Mof_O 	O 	0.6916	0.3204	0.1612	-0.475
Mof_O 	O 	0.892	0.2605	0.6779	-0.511
Mof_O 	O 	0.6855	0.3204	0.5915	-0.473
Mof_C 	C 	0.8026	0.3021	0.0498	0.609
Mof_C 	C 	0.8395	0.33488	0.8724	-0.774
Mof_H 	H 	0.7594	0.3669	0.8715	0.252
Mof_H 	H 	0.9681	0.3473	0.8727	0.219
Mof_C 	C 	0.8057	0.3031	0.7038	0.563
Mof_C 	C 	0.5554	0.12095	0.8695	-0.031
Mof_C 	C 	0.6787	0.16291	0.8908	0.001
Mof_H 	H 	0.6362	0.1973	0.9268	0.002
Mof_N 	N 	0.8641	0.15453	0.8593	-0.21
Mof_C 	C 	0.9263	0.10419	0.8066	0.074
Mof_C 	C 	0.803	0.06223	0.7853	0.005
Mof_C 	C 	0.6176	0.07061	0.8168	-0.034
Mof_C 	C 	0.482	0.0255	0.8	0.036
Mof_C 	C 	0.9198	0.10475	0.9235	-0.035
Mof_C 	C 	0.8025	0.0609	0.926	-0.036
Mof_C 	C 	0.6149	0.0694	0.912	0.042
Mof_C 	C 	0.4785	0.0265	0.911	-0.055
Mof_Zn	Zn	0.44633	0.71969	0.3738	1.228
Mof_O 	O 	0.6047	0.759	0.5706	-0.499
Mof_O 	O 	0.8084	0.8204	0.6612	-0.486
Mof_O 	O 	0.608	0.7605	0.1779	-0.478
Mof_O 	O 	0.8145	0.8204	0.0915	-0.418
Mof_C 	C 	0.6974	0.8021	0.5498	0.531
Mof_C 	C 	0.6605	0.83488	0.3724	-0.686
Mof_H 	H 	0.7406	0.8669	0.3715	0.262
Mof_H 	H 	0.5319	0.8473	0.3727	0.229
Mof_C 	C 	0.6943	0.8031	0.2038	0.55
Mof_C 	C 	0.9446	0.62095	0.3695	-0.008
Mof_C 	C 	0.8213	0.66291	0.3908	-0
Mof_H 	H 	0.8638	0.6973	0.4268	0.027
Mof_N 	N 	0.6359	0.65453	0.3593	-0.2
Mof_C 	C 	0.5737	0.60419	0.3066	0.064
Mof_C 	C 	0.697	0.56223	0.2853	0.011
Mof_C 	C 	0.8824	0.57061	0.3168	-0.017
Mof_C 	C 	0.018	0.5255	0.3	0.033
Mof_C 	C 	0.5802	0.60475	0.4235	-0.008
Mof_C 	C 	0.6975	0.5609	0.426	-0.027
Mof_C 	C 	0.8851	0.5694	0.412	0.023
Mof_C 	C 	0.0215	0.5265	0.411	-0.035
Mof_Zn	Zn	0.55367	0.28031	0.3738	1.228
Mof_O 	O 	0.3953	0.241	0.5706	-0.499
Mof_O 	O 	0.1916	0.1796	0.6612	-0.486
Mof_O 	O 	0.392	0.2395	0.1779	-0.478
Mof_O 	O 	0.1855	0.1796	0.0915	-0.418
Mof_C 	C 	0.3026	0.1979	0.5498	0.531
Mof_C 	C 	0.3395	0.16512	0.3724	-0.686
Mof_H 	H 	0.2594	0.1331	0.3715	0.262
Mof_H 	H 	0.4681	0.1527	0.3727	0.229
Mof_C 	C 	0.3057	0.1969	0.2038	0.55
Mof_C 	C 	0.0554	0.37905	0.3695	-0.008
Mof_C 	C 	0.1787	0.33709	0.3908	-0
Mof_H 	H 	0.1362	0.3027	0.4268	0.027
Mof_N 	N 	0.3641	0.34547	0.3593	-0.2
Mof_C 	C 	0.4263	0.39581	0.3066	0.064
Mof_C 	C 	0.303	0.43777	0.2853	0.011
Mof_C 	C 	0.1176	0.42939	0.3168	-0.017
Mof_C 	C 	0.982	0.4745	0.3	0.033
Mof_C 	C 	0.4198	0.39525	0.4235	-0.008
Mof_C 	C 	0.3025	0.4391	0.426	-0.027
Mof_C 	C 	0.1149	0.4306	0.412	0.023
Mof_C 	C 	0.9785	0.4735	0.411	-0.035
_end
