data_functionalizedCrystal
_audit_creation_method	'EQeq! by Chris Wilmer'
_symmetry_space_group_name_H-M	'P1'
_symmetry_Int_Tables_number	1
_symmetry_cell_setting	triclinic
loop_
_symmetry_equiv_pos_as_xyz
  x,y,z
_cell_length_a	14.8825
_cell_length_b	23.3281
_cell_length_c	9.1087
_cell_angle_alpha	90
_cell_angle_beta	90
_cell_angle_gamma	90
loop_
_atom_site_label
_atom_site_type_symbol
_atom_site_fract_x
_atom_site_fract_y
_atom_site_fract_z
_atom_site_charge
Mof_Fe	Fe	0.57784	0.05464	0.26258	1.013
Mof_Cl	Cl	0.68191	0.99408	0.16597	-0.374
Mof_O 	O 	0.66363	0.12498	0.20788	-0.263
Mof_O 	O 	0.6344	0.07199	0.46158	-0.243
Mof_C 	C 	0.70883	0.14183	0.3148	0.261
Mof_C 	C 	0.69113	0.11189	0.4619	0.254
Mof_O 	O 	0.73414	0.1302	0.56996	-0.235
Mof_O 	O 	0.76842	0.18048	0.31479	-0.284
Mof_Fe	Fe	0.57784	0.55464	0.76258	1.01
Mof_Cl	Cl	0.68191	0.49408	0.66597	-0.313
Mof_O 	O 	0.66363	0.62498	0.70788	-0.241
Mof_O 	O 	0.6344	0.57199	0.96158	-0.252
Mof_C 	C 	0.70883	0.64183	0.8148	0.231
Mof_C 	C 	0.69113	0.61189	0.9619	0.37
Mof_O 	O 	0.73414	0.6302	0.06996	-0.323
Mof_O 	O 	0.76842	0.68048	0.81479	-0.226
Mof_Fe	Fe	0.07784	0.05464	0.76258	1.03
Mof_Cl	Cl	0.18191	0.99408	0.66597	-0.33
Mof_O 	O 	0.16363	0.12498	0.70788	-0.236
Mof_O 	O 	0.1344	0.07199	0.96158	-0.246
Mof_C 	C 	0.20883	0.14183	0.8148	0.232
Mof_C 	C 	0.19113	0.11189	0.9619	0.371
Mof_O 	O 	0.23414	0.1302	0.06996	-0.321
Mof_O 	O 	0.26842	0.18048	0.81479	-0.223
Mof_Fe	Fe	0.07784	0.55464	0.26258	1.01
Mof_Cl	Cl	0.18191	0.49408	0.16597	-0.354
Mof_O 	O 	0.16363	0.62498	0.20788	-0.262
Mof_O 	O 	0.1344	0.57199	0.46158	-0.243
Mof_C 	C 	0.20883	0.64183	0.3148	0.261
Mof_C 	C 	0.19113	0.61189	0.4619	0.254
Mof_O 	O 	0.23414	0.6302	0.56996	-0.234
Mof_O 	O 	0.26842	0.68048	0.31479	-0.283
Mof_Fe	Fe	0.42216	0.94536	0.26258	0.978
Mof_Cl	Cl	0.31809	0.00592	0.16597	-0.335
Mof_O 	O 	0.33637	0.87502	0.20788	-0.264
Mof_O 	O 	0.3656	0.92801	0.46158	-0.25
Mof_C 	C 	0.29117	0.85817	0.3148	0.259
Mof_C 	C 	0.30887	0.88811	0.4619	0.254
Mof_O 	O 	0.26586	0.8698	0.56996	-0.237
Mof_O 	O 	0.23158	0.81952	0.31479	-0.283
Mof_Fe	Fe	0.42216	0.44536	0.76258	1.01
Mof_Cl	Cl	0.31809	0.50592	0.66597	-0.31
Mof_O 	O 	0.33637	0.37502	0.70788	-0.24
Mof_O 	O 	0.3656	0.42801	0.96158	-0.252
Mof_C 	C 	0.29117	0.35817	0.8148	0.231
Mof_C 	C 	0.30887	0.38811	0.9619	0.371
Mof_O 	O 	0.26586	0.3698	0.06996	-0.324
Mof_O 	O 	0.23158	0.31952	0.81479	-0.223
Mof_Fe	Fe	0.92216	0.94536	0.76258	0.966
Mof_Cl	Cl	0.81809	0.00592	0.66597	-0.294
Mof_O 	O 	0.83637	0.87502	0.70788	-0.242
Mof_O 	O 	0.8656	0.92801	0.96158	-0.259
Mof_C 	C 	0.79117	0.85817	0.8148	0.229
Mof_C 	C 	0.80887	0.88811	0.9619	0.369
Mof_O 	O 	0.76586	0.8698	0.06996	-0.325
Mof_O 	O 	0.73158	0.81952	0.81479	-0.225
Mof_Fe	Fe	0.92216	0.44536	0.26258	0.981
Mof_Cl	Cl	0.81809	0.50592	0.16597	-0.355
Mof_O 	O 	0.83637	0.37502	0.20788	-0.266
Mof_O 	O 	0.8656	0.42801	0.46158	-0.25
Mof_C 	C 	0.79117	0.35817	0.3148	0.26
Mof_C 	C 	0.80887	0.38811	0.4619	0.254
Mof_O 	O 	0.76586	0.3698	0.56996	-0.237
Mof_O 	O 	0.73158	0.31952	0.31479	-0.284
Mof_Fe	Fe	0.82784	0.19536	0.51258	1.004
Mof_Cl	Cl	0.93191	0.25592	0.41597	-0.341
Mof_O 	O 	0.91363	0.12502	0.45788	-0.252
Mof_O 	O 	0.8844	0.17801	0.71158	-0.245
Mof_C 	C 	0.95883	0.10817	0.5648	0.234
Mof_C 	C 	0.94113	0.13811	0.7119	0.261
Mof_O 	O 	0.98414	0.1198	0.81996	-0.246
Mof_O 	O 	0.01842	0.06952	0.56479	-0.251
Mof_Fe	Fe	0.82784	0.69536	0.01258	0.872
Mof_Cl	Cl	0.93191	0.75592	0.91597	-0.26
Mof_O 	O 	0.91363	0.62502	0.95788	-0.127
Mof_O 	O 	0.8844	0.67801	0.21158	-0.263
Mof_C 	C 	0.95883	0.60817	0.0648	0.12
Mof_C 	C 	0.94113	0.63811	0.2119	0.287
Mof_O 	O 	0.98414	0.6198	0.31996	-0.264
Mof_O 	O 	0.01842	0.56952	0.06479	-0.244
Mof_Fe	Fe	0.32784	0.19536	0.01258	0.872
Mof_Cl	Cl	0.43191	0.25592	0.91597	-0.247
Mof_O 	O 	0.41363	0.12502	0.95788	-0.126
Mof_O 	O 	0.3844	0.17801	0.21158	-0.257
Mof_C 	C 	0.45883	0.10817	0.0648	0.144
Mof_C 	C 	0.44113	0.13811	0.2119	0.281
Mof_O 	O 	0.48414	0.1198	0.31996	-0.249
Mof_O 	O 	0.51842	0.06952	0.06479	-0.261
Mof_Fe	Fe	0.32784	0.69536	0.51258	1.005
Mof_Cl	Cl	0.43191	0.75592	0.41597	-0.33
Mof_O 	O 	0.41363	0.62502	0.45788	-0.257
Mof_O 	O 	0.3844	0.67801	0.71158	-0.24
Mof_C 	C 	0.45883	0.60817	0.5648	0.261
Mof_C 	C 	0.44113	0.63811	0.7119	0.254
Mof_O 	O 	0.48414	0.6198	0.81996	-0.23
Mof_O 	O 	0.51842	0.56952	0.56479	-0.278
Mof_Fe	Fe	0.67216	0.30464	0.51258	1.004
Mof_Cl	Cl	0.56809	0.24408	0.41597	-0.33
Mof_O 	O 	0.58637	0.37498	0.45788	-0.257
Mof_O 	O 	0.6156	0.32199	0.71158	-0.24
Mof_C 	C 	0.54117	0.39183	0.5648	0.261
Mof_C 	C 	0.55887	0.36189	0.7119	0.254
Mof_O 	O 	0.51586	0.3802	0.81996	-0.23
Mof_O 	O 	0.48158	0.43048	0.56479	-0.277
Mof_Fe	Fe	0.67216	0.80464	0.01258	0.872
Mof_Cl	Cl	0.56809	0.74408	0.91597	-0.248
Mof_O 	O 	0.58637	0.87498	0.95788	-0.131
Mof_O 	O 	0.6156	0.82199	0.21158	-0.258
Mof_C 	C 	0.54117	0.89183	0.0648	0.145
Mof_C 	C 	0.55887	0.86189	0.2119	0.28
Mof_O 	O 	0.51586	0.8802	0.31996	-0.249
Mof_O 	O 	0.48158	0.93048	0.06479	-0.27
Mof_Fe	Fe	0.17216	0.30464	0.01258	0.873
Mof_Cl	Cl	0.06809	0.24408	0.91597	-0.236
Mof_O 	O 	0.08637	0.37498	0.95788	-0.132
Mof_O 	O 	0.1156	0.32199	0.21158	-0.253
Mof_C 	C 	0.04117	0.39183	0.0648	0.171
Mof_C 	C 	0.05887	0.36189	0.2119	0.274
Mof_O 	O 	0.01586	0.3802	0.31996	-0.234
Mof_O 	O 	0.98158	0.43048	0.06479	-0.287
Mof_Fe	Fe	0.17216	0.80464	0.51258	1.005
Mof_Cl	Cl	0.06809	0.74408	0.41597	-0.319
Mof_O 	O 	0.08637	0.87498	0.45788	-0.262
Mof_O 	O 	0.1156	0.82199	0.71158	-0.236
Mof_C 	C 	0.04117	0.89183	0.5648	0.288
Mof_C 	C 	0.05887	0.86189	0.7119	0.247
Mof_O 	O 	0.01586	0.8802	0.81996	-0.216
Mof_O 	O 	0.98158	0.93048	0.56479	-0.304
Mof_O 	O 	0.5	0	0.3437	-0.353
Mof_O 	O 	0.5	0.5	0.8437	-0.357
Mof_O 	O 	1.93611e-33	3.99125e-33	0.8437	-0.33
Mof_O 	O 	-1.20691e-33	0.5	0.3437	-0.353
Mof_O 	O 	0.75	0.25	0.5937	-0.365
Mof_O 	O 	0.75	0.75	0.0937	-0.365
Mof_O 	O 	0.25	0.25	0.0937	-0.363
Mof_O 	O 	0.25	0.75	0.5937	-0.364
_end
