data_functionalizedCrystal
_audit_creation_method	'EQeq! by Chris Wilmer'
_symmetry_space_group_name_H-M	'P1'
_symmetry_Int_Tables_number	1
_symmetry_cell_setting	triclinic
loop_
_symmetry_equiv_pos_as_xyz
  x,y,z
_cell_length_a	31.6491
_cell_length_b	14.9143
_cell_length_c	13.2656
_cell_angle_alpha	90
_cell_angle_beta	96.466
_cell_angle_gamma	90
loop_
_atom_site_label
_atom_site_type_symbol
_atom_site_fract_x
_atom_site_fract_y
_atom_site_fract_z
_atom_site_charge
Mof_Tb	Tb	0.18948	0.20545	0.46936	1.941
Mof_O 	O 	0.12167	0.1883	0.5448	-0.448
Mof_O 	O 	0.13583	0.3171	0.4858	-0.441
Mof_O 	O 	0.79555	0.2761	0.8712	-0.489
Mof_O 	O 	0.73482	0.3549	0.8569	-0.543
Mof_O 	O 	0.77052	0.6672	0.5602	-0.596
Mof_O 	O 	0.71508	0.5854	0.583	-0.484
Mof_C 	C 	0.85011	0.45872	0.68881	0.001
Mof_C 	C 	0.82475	0.52474	0.63894	0.062
Mof_C 	C 	0.78176	0.5294	0.65123	-0.186
Mof_C 	C 	0.76414	0.46803	0.71339	0.115
Mof_C 	C 	0.78951	0.40201	0.76326	-0.186
Mof_C 	C 	0.83249	0.39735	0.75097	0.071
Mof_C 	C 	0.99739	0.38153	0.61882	0.001
Mof_C 	C 	0.00246	0.28895	0.62054	-0.023
Mof_C 	C 	0.03979	0.25103	0.59405	0.039
Mof_C 	C 	0.07204	0.3057	0.56584	-0.111
Mof_C 	C 	0.06695	0.39828	0.56413	0.058
Mof_C 	C 	0.02964	0.43619	0.59061	-0.001
Mof_N 	N 	0.89466	0.45642	0.67705	-0.082
Mof_N 	N 	0.91741	0.53331	0.68134	-0.045
Mof_N 	N 	0.95549	0.51186	0.66253	-0.072
Mof_C 	C 	0.95794	0.42264	0.64489	0.051
Mof_C 	C 	0.91844	0.3839	0.65767	0.035
Mof_C 	C 	0.75439	0.6002	0.5949	0.471
Mof_C 	C 	0.77199	0.33958	0.83716	0.491
Mof_C 	C 	0.11212	0.2666	0.5309	0.369
Mof_Tb	Tb	0.68948	0.70545	0.46936	1.943
Mof_O 	O 	0.62167	0.6883	0.5448	-0.447
Mof_O 	O 	0.63583	0.8171	0.4858	-0.441
Mof_O 	O 	0.29555	0.7761	0.8712	-0.49
Mof_O 	O 	0.23482	0.8549	0.8569	-0.544
Mof_O 	O 	0.27052	0.1672	0.5602	-0.596
Mof_O 	O 	0.21508	0.0854	0.583	-0.484
Mof_C 	C 	0.35011	0.95872	0.68881	0
Mof_C 	C 	0.32475	0.02474	0.63894	0.063
Mof_C 	C 	0.28176	0.0294	0.65123	-0.185
Mof_C 	C 	0.26414	0.96803	0.71339	0.113
Mof_C 	C 	0.28951	0.90201	0.76326	-0.185
Mof_C 	C 	0.33249	0.89735	0.75097	0.07
Mof_C 	C 	0.49739	0.88153	0.61882	0.001
Mof_C 	C 	0.50246	0.78895	0.62054	-0.023
Mof_C 	C 	0.53979	0.75103	0.59405	0.039
Mof_C 	C 	0.57204	0.8057	0.56584	-0.111
Mof_C 	C 	0.56695	0.89828	0.56413	0.058
Mof_C 	C 	0.52964	0.93619	0.59061	-0.001
Mof_N 	N 	0.39466	0.95642	0.67705	-0.082
Mof_N 	N 	0.41741	0.03331	0.68134	-0.045
Mof_N 	N 	0.45549	0.01186	0.66253	-0.072
Mof_C 	C 	0.45794	0.92264	0.64489	0.05
Mof_C 	C 	0.41844	0.8839	0.65767	0.035
Mof_C 	C 	0.25439	0.1002	0.5949	0.471
Mof_C 	C 	0.27199	0.83958	0.83716	0.491
Mof_C 	C 	0.61212	0.7666	0.5309	0.369
Mof_Tb	Tb	0.81052	0.20545	0.03064	1.939
Mof_O 	O 	0.87833	0.1883	0.9552	-0.446
Mof_O 	O 	0.86417	0.3171	0.0142	-0.442
Mof_O 	O 	0.20445	0.2761	0.6288	-0.489
Mof_O 	O 	0.26518	0.3549	0.6431	-0.543
Mof_O 	O 	0.22948	0.6672	0.9398	-0.596
Mof_O 	O 	0.28492	0.5854	0.917	-0.484
Mof_C 	C 	0.14989	0.45872	0.81119	0.001
Mof_C 	C 	0.17525	0.52474	0.86106	0.062
Mof_C 	C 	0.21824	0.5294	0.84877	-0.186
Mof_C 	C 	0.23586	0.46803	0.78661	0.115
Mof_C 	C 	0.21049	0.40201	0.73674	-0.186
Mof_C 	C 	0.16751	0.39735	0.74903	0.071
Mof_C 	C 	0.00261	0.38153	0.88118	0
Mof_C 	C 	0.99754	0.28895	0.87946	-0.022
Mof_C 	C 	0.96021	0.25103	0.90595	0.039
Mof_C 	C 	0.92796	0.3057	0.93416	-0.111
Mof_C 	C 	0.93305	0.39828	0.93587	0.059
Mof_C 	C 	0.97036	0.43619	0.90939	-0
Mof_N 	N 	0.10534	0.45642	0.82295	-0.082
Mof_N 	N 	0.08259	0.53331	0.81866	-0.045
Mof_N 	N 	0.04451	0.51186	0.83747	-0.072
Mof_C 	C 	0.04206	0.42264	0.85511	0.051
Mof_C 	C 	0.08156	0.3839	0.84233	0.035
Mof_C 	C 	0.24561	0.6002	0.9051	0.471
Mof_C 	C 	0.22801	0.33958	0.66284	0.492
Mof_C 	C 	0.88788	0.2666	0.9691	0.37
Mof_Tb	Tb	0.31052	0.70545	0.03064	1.946
Mof_O 	O 	0.37833	0.6883	0.9552	-0.447
Mof_O 	O 	0.36417	0.8171	0.0142	-0.439
Mof_O 	O 	0.70445	0.7761	0.6288	-0.489
Mof_O 	O 	0.76518	0.8549	0.6431	-0.544
Mof_O 	O 	0.72948	0.1672	0.9398	-0.596
Mof_O 	O 	0.78492	0.0854	0.917	-0.483
Mof_C 	C 	0.64989	0.95872	0.81119	-0.001
Mof_C 	C 	0.67525	0.02474	0.86106	0.064
Mof_C 	C 	0.71824	0.0294	0.84877	-0.185
Mof_C 	C 	0.73586	0.96803	0.78661	0.112
Mof_C 	C 	0.71049	0.90201	0.73674	-0.185
Mof_C 	C 	0.66751	0.89735	0.74903	0.071
Mof_C 	C 	0.50261	0.88153	0.88118	0.001
Mof_C 	C 	0.49754	0.78895	0.87946	-0.023
Mof_C 	C 	0.46021	0.75103	0.90595	0.039
Mof_C 	C 	0.42796	0.8057	0.93416	-0.111
Mof_C 	C 	0.43305	0.89828	0.93587	0.058
Mof_C 	C 	0.47036	0.93619	0.90939	-0.001
Mof_N 	N 	0.60534	0.95642	0.82295	-0.082
Mof_N 	N 	0.58259	0.03331	0.81866	-0.044
Mof_N 	N 	0.54451	0.01186	0.83747	-0.071
Mof_C 	C 	0.54206	0.92264	0.85511	0.049
Mof_C 	C 	0.58156	0.8839	0.84233	0.035
Mof_C 	C 	0.74561	0.1002	0.9051	0.471
Mof_C 	C 	0.72801	0.83958	0.66284	0.491
Mof_C 	C 	0.38788	0.7666	0.9691	0.367
Mof_Tb	Tb	0.81052	0.79455	0.53064	1.942
Mof_O 	O 	0.87833	0.8117	0.4552	-0.447
Mof_O 	O 	0.86417	0.6829	0.5142	-0.441
Mof_O 	O 	0.20445	0.7239	0.1288	-0.489
Mof_O 	O 	0.26518	0.6451	0.1431	-0.543
Mof_O 	O 	0.22948	0.3328	0.4398	-0.596
Mof_O 	O 	0.28492	0.4146	0.417	-0.484
Mof_C 	C 	0.14989	0.54128	0.31119	0.001
Mof_C 	C 	0.17525	0.47526	0.36106	0.062
Mof_C 	C 	0.21824	0.4706	0.34877	-0.186
Mof_C 	C 	0.23586	0.53197	0.28661	0.115
Mof_C 	C 	0.21049	0.59799	0.23674	-0.186
Mof_C 	C 	0.16751	0.60265	0.24903	0.071
Mof_C 	C 	0.00261	0.61847	0.38118	0.001
Mof_C 	C 	0.99754	0.71105	0.37946	-0.023
Mof_C 	C 	0.96021	0.74897	0.40595	0.039
Mof_C 	C 	0.92796	0.6943	0.43416	-0.111
Mof_C 	C 	0.93305	0.60172	0.43587	0.058
Mof_C 	C 	0.97036	0.56381	0.40939	-0.001
Mof_N 	N 	0.10534	0.54358	0.32295	-0.082
Mof_N 	N 	0.08259	0.46669	0.31866	-0.045
Mof_N 	N 	0.04451	0.48814	0.33747	-0.072
Mof_C 	C 	0.04206	0.57736	0.35511	0.051
Mof_C 	C 	0.08156	0.6161	0.34233	0.035
Mof_C 	C 	0.24561	0.3998	0.4051	0.471
Mof_C 	C 	0.22801	0.66042	0.16284	0.491
Mof_C 	C 	0.88788	0.7334	0.4691	0.369
Mof_Tb	Tb	0.31052	0.29455	0.53064	1.943
Mof_O 	O 	0.37833	0.3117	0.4552	-0.447
Mof_O 	O 	0.36417	0.1829	0.5142	-0.441
Mof_O 	O 	0.70445	0.2239	0.1288	-0.49
Mof_O 	O 	0.76518	0.1451	0.1431	-0.544
Mof_O 	O 	0.72948	0.8328	0.4398	-0.596
Mof_O 	O 	0.78492	0.9146	0.417	-0.484
Mof_C 	C 	0.64989	0.04128	0.31119	0
Mof_C 	C 	0.67525	0.97526	0.36106	0.063
Mof_C 	C 	0.71824	0.9706	0.34877	-0.185
Mof_C 	C 	0.73586	0.03197	0.28661	0.113
Mof_C 	C 	0.71049	0.09799	0.23674	-0.185
Mof_C 	C 	0.66751	0.10265	0.24903	0.07
Mof_C 	C 	0.50261	0.11847	0.38118	0.001
Mof_C 	C 	0.49754	0.21105	0.37946	-0.023
Mof_C 	C 	0.46021	0.24897	0.40595	0.039
Mof_C 	C 	0.42796	0.1943	0.43416	-0.111
Mof_C 	C 	0.43305	0.10172	0.43587	0.058
Mof_C 	C 	0.47036	0.06381	0.40939	-0.001
Mof_N 	N 	0.60534	0.04358	0.32295	-0.082
Mof_N 	N 	0.58259	0.96669	0.31866	-0.045
Mof_N 	N 	0.54451	0.98814	0.33747	-0.072
Mof_C 	C 	0.54206	0.07736	0.35511	0.05
Mof_C 	C 	0.58156	0.1161	0.34233	0.035
Mof_C 	C 	0.74561	0.8998	0.4051	0.471
Mof_C 	C 	0.72801	0.16042	0.16284	0.491
Mof_C 	C 	0.38788	0.2334	0.4691	0.369
Mof_Tb	Tb	0.18948	0.79455	0.96936	1.939
Mof_O 	O 	0.12167	0.8117	0.0448	-0.446
Mof_O 	O 	0.13583	0.6829	0.9858	-0.442
Mof_O 	O 	0.79555	0.7239	0.3712	-0.489
Mof_O 	O 	0.73482	0.6451	0.3569	-0.543
Mof_O 	O 	0.77052	0.3328	0.0602	-0.596
Mof_O 	O 	0.71508	0.4146	0.083	-0.484
Mof_C 	C 	0.85011	0.54128	0.18881	0.001
Mof_C 	C 	0.82475	0.47526	0.13894	0.062
Mof_C 	C 	0.78176	0.4706	0.15123	-0.186
Mof_C 	C 	0.76414	0.53197	0.21339	0.115
Mof_C 	C 	0.78951	0.59799	0.26326	-0.186
Mof_C 	C 	0.83249	0.60265	0.25097	0.071
Mof_C 	C 	0.99739	0.61847	0.11882	0
Mof_C 	C 	0.00246	0.71105	0.12054	-0.022
Mof_C 	C 	0.03979	0.74897	0.09405	0.039
Mof_C 	C 	0.07204	0.6943	0.06584	-0.111
Mof_C 	C 	0.06695	0.60172	0.06413	0.059
Mof_C 	C 	0.02964	0.56381	0.09061	-0
Mof_N 	N 	0.89466	0.54358	0.17705	-0.082
Mof_N 	N 	0.91741	0.46669	0.18134	-0.045
Mof_N 	N 	0.95549	0.48814	0.16253	-0.072
Mof_C 	C 	0.95794	0.57736	0.14489	0.051
Mof_C 	C 	0.91844	0.6161	0.15767	0.035
Mof_C 	C 	0.75439	0.3998	0.0949	0.471
Mof_C 	C 	0.77199	0.66042	0.33716	0.492
Mof_C 	C 	0.11212	0.7334	0.0309	0.37
Mof_Tb	Tb	0.68948	0.29455	0.96936	1.946
Mof_O 	O 	0.62167	0.3117	0.0448	-0.447
Mof_O 	O 	0.63583	0.1829	0.9858	-0.439
Mof_O 	O 	0.29555	0.2239	0.3712	-0.489
Mof_O 	O 	0.23482	0.1451	0.3569	-0.544
Mof_O 	O 	0.27052	0.8328	0.0602	-0.596
Mof_O 	O 	0.21508	0.9146	0.083	-0.483
Mof_C 	C 	0.35011	0.04128	0.18881	-0.001
Mof_C 	C 	0.32475	0.97526	0.13894	0.064
Mof_C 	C 	0.28176	0.9706	0.15123	-0.185
Mof_C 	C 	0.26414	0.03197	0.21339	0.112
Mof_C 	C 	0.28951	0.09799	0.26326	-0.185
Mof_C 	C 	0.33249	0.10265	0.25097	0.071
Mof_C 	C 	0.49739	0.11847	0.11882	0.001
Mof_C 	C 	0.50246	0.21105	0.12054	-0.023
Mof_C 	C 	0.53979	0.24897	0.09405	0.039
Mof_C 	C 	0.57204	0.1943	0.06584	-0.111
Mof_C 	C 	0.56695	0.10172	0.06413	0.058
Mof_C 	C 	0.52964	0.06381	0.09061	-0.001
Mof_N 	N 	0.39466	0.04358	0.17705	-0.082
Mof_N 	N 	0.41741	0.96669	0.18134	-0.044
Mof_N 	N 	0.45549	0.98814	0.16253	-0.071
Mof_C 	C 	0.45794	0.07736	0.14489	0.049
Mof_C 	C 	0.41844	0.1161	0.15767	0.035
Mof_C 	C 	0.25439	0.8998	0.0949	0.471
Mof_C 	C 	0.27199	0.16042	0.33716	0.491
Mof_C 	C 	0.61212	0.2334	0.0309	0.367
_end
