data_functionalizedCrystal
_audit_creation_method	'EQeq! by Chris Wilmer'
_symmetry_space_group_name_H-M	'P1'
_symmetry_Int_Tables_number	1
_symmetry_cell_setting	triclinic
loop_
_symmetry_equiv_pos_as_xyz
  x,y,z
_cell_length_a	17.813
_cell_length_b	29.8909
_cell_length_c	29.8909
_cell_angle_alpha	84.9064
_cell_angle_beta	72.6645
_cell_angle_gamma	72.6646
loop_
_atom_site_label
_atom_site_type_symbol
_atom_site_fract_x
_atom_site_fract_y
_atom_site_fract_z
_atom_site_charge
Mof_Mn	Mn	0.07886	0.91508	0.35766	1.059
Mof_Mn	Mn	0.23983	0.87981	0.46933	1.012
Mof_Mn	Mn	0.20912	0.00521	0.57379	1.044
Mof_Mn	Mn	0.8516	0.58492	0.14234	1.06
Mof_Mn	Mn	0.08897	0.62019	0.03067	1.009
Mof_Mn	Mn	0.28812	0.49479	0.92621	1.043
Mof_Mn	Mn	0.43652	0.64234	0.41508	1.059
Mof_Mn	Mn	0.70916	0.53067	0.37981	1.011
Mof_Mn	Mn	0.78291	0.42621	0.50521	1.043
Mof_Mn	Mn	0.99394	0.85766	0.08492	1.06
Mof_Mn	Mn	0.11964	0.96933	0.12019	1.009
Mof_Mn	Mn	0.21433	0.07379	0.99479	1.043
Mof_Mn	Mn	0.92114	0.08492	0.64234	1.058
Mof_Mn	Mn	0.76017	0.12019	0.53067	1.011
Mof_Mn	Mn	0.79088	0.99479	0.42621	1.043
Mof_Mn	Mn	0.1484	0.41508	0.85766	1.059
Mof_Mn	Mn	0.91103	0.37981	0.96933	1.009
Mof_Mn	Mn	0.71188	0.50521	0.07379	1.043
Mof_Mn	Mn	0.56348	0.35766	0.58492	1.059
Mof_Mn	Mn	0.29084	0.46933	0.62019	1.011
Mof_Mn	Mn	0.21709	0.57379	0.49479	1.043
Mof_Mn	Mn	0.00606	0.14234	0.91508	1.06
Mof_Mn	Mn	0.88036	0.03067	0.87981	1.009
Mof_Mn	Mn	0.78567	0.92621	0.00521	1.043
Mof_H 	H 	0.2585	0.7537	0.4035	-0.005
Mof_H 	H 	0.2539	0.6926	0.3638	0.133
Mof_H 	H 	0.174	0.7071	0.3133	-0.048
Mof_H 	H 	0.0965	0.7824	0.3034	0.16
Mof_H 	H 	0.058	0.0186	0.4584	0.295
Mof_H 	H 	0.1399	0.9896	0.4692	0.312
Mof_H 	H 	0.1426	0.0219	0.4249	0.314
Mof_H 	H 	0.4048	0.3369	0.5751	-0.026
Mof_H 	H 	0.3516	0.2786	0.5678	0.116
Mof_H 	H 	0.5517	0.1866	0.5876	0.13
Mof_H 	H 	0.6021	0.2475	0.5901	-0.019
Mof_H 	H 	0.4193	0.1878	0.5296	0.102
Mof_H 	H 	0.4624	0.1554	0.5644	0.109
Mof_H 	H 	0.4344	0.9832	0.464	-0.009
Mof_H 	H 	0.5376	0.9755	0.3929	0.119
Mof_H 	H 	0.539	0.9251	0.3361	-0.046
Mof_H 	H 	0.442	0.8888	0.3476	0.154
Mof_H 	H 	0.0816	0.892	0.617	0.29
Mof_H 	H 	0.0778	0.9449	0.6189	0.287
Mof_H 	H 	0.0221	0.9304	0.5944	0.288
Mof_H 	H 	0.9713	0.9871	0.2503	-0.007
Mof_H 	H 	0.8975	0.0309	0.2017	0.116
Mof_H 	H 	0.7588	0.071	0.2338	-0.046
Mof_H 	H 	0.6985	0.0675	0.3119	0.143
Mof_H 	H 	0.0036	0.8723	0.4631	0.3
Mof_H 	H 	0.9201	0.88	0.5026	0.311
Mof_H 	H 	0.9764	0.9122	0.5002	0.296
Mof_H 	H 	0.2289	0.0695	0.6463	-0.01
Mof_H 	H 	0.2756	0.1324	0.6522	0.089
Mof_H 	H 	0.3611	0.1314	0.514	0.085
Mof_H 	H 	0.3088	0.0708	0.511	-0.001
Mof_H 	H 	0.3514	0.1853	0.6217	0.041
Mof_H 	H 	0.3094	0.2114	0.5838	0.037
Mof_H 	H 	0.9157	0.7463	0.0965	-0.005
Mof_H 	H 	0.8103	0.8074	0.1362	0.133
Mof_H 	H 	0.6944	0.7929	0.1867	-0.048
Mof_H 	H 	0.6823	0.7176	0.1966	0.16
Mof_H 	H 	0.035	0.4814	0.0416	0.296
Mof_H 	H 	0.0987	0.5104	0.0308	0.314
Mof_H 	H 	0.0894	0.4781	0.0751	0.315
Mof_H 	H 	0.8168	0.1631	0.9249	-0.026
Mof_H 	H 	0.698	0.2214	0.9322	0.117
Mof_H 	H 	0.8259	0.3134	0.9124	0.13
Mof_H 	H 	0.9397	0.2525	0.9099	-0.019
Mof_H 	H 	0.6367	0.3122	0.9704	0.102
Mof_H 	H 	0.6822	0.3446	0.9356	0.11
Mof_H 	H 	0.3816	0.5168	0.036	-0.009
Mof_H 	H 	0.406	0.5245	0.1071	0.119
Mof_H 	H 	0.3002	0.5749	0.1639	-0.046
Mof_H 	H 	0.1784	0.6112	0.1524	0.153
Mof_H 	H 	0.0906	0.608	0.883	0.29
Mof_H 	H 	0.1416	0.5551	0.8811	0.287
Mof_H 	H 	0.0469	0.5696	0.9056	0.288
Mof_H 	H 	0.7087	0.5129	0.2497	-0.008
Mof_H 	H 	0.6301	0.4691	0.2983	0.116
Mof_H 	H 	0.5636	0.429	0.2662	-0.046
Mof_H 	H 	0.5779	0.4325	0.1881	0.143
Mof_H 	H 	0.839	0.6277	0.0369	0.3
Mof_H 	H 	0.8027	0.62	0.9974	0.31
Mof_H 	H 	0.8888	0.5878	0.9998	0.294
Mof_H 	H 	0.4447	0.4305	0.8537	-0.01
Mof_H 	H 	0.5602	0.3676	0.8478	0.089
Mof_H 	H 	0.5065	0.3686	0.986	0.085
Mof_H 	H 	0.3906	0.4292	0.989	-0.001
Mof_H 	H 	0.6584	0.3147	0.8783	0.041
Mof_H 	H 	0.6046	0.2886	0.9162	0.037
Mof_H 	H 	0.662	0.5965	0.2537	-0.005
Mof_H 	H 	0.6177	0.6362	0.1926	0.133
Mof_H 	H 	0.4873	0.6867	0.2071	-0.048
Mof_H 	H 	0.3999	0.6966	0.2824	0.16
Mof_H 	H 	0.5164	0.5416	0.5186	0.296
Mof_H 	H 	0.6091	0.5308	0.4896	0.314
Mof_H 	H 	0.5675	0.5751	0.5219	0.315
Mof_H 	H 	0.9799	0.4249	0.8369	-0.029
Mof_H 	H 	0.9194	0.4322	0.7786	0.119
Mof_H 	H 	0.1393	0.4124	0.6866	0.132
Mof_H 	H 	0.1922	0.4099	0.7475	-0.02
Mof_H 	H 	0.9489	0.4704	0.6878	0.106
Mof_H 	H 	0.0268	0.4356	0.6554	0.114
Mof_H 	H 	0.8984	0.536	0.4832	-0.009
Mof_H 	H 	0.9305	0.6071	0.4755	0.119
Mof_H 	H 	0.8751	0.6639	0.4251	-0.046
Mof_H 	H 	0.7896	0.6524	0.3888	0.154
Mof_H 	H 	0.6986	0.383	0.392	0.29
Mof_H 	H 	0.6967	0.3811	0.4449	0.287
Mof_H 	H 	0.6165	0.4056	0.4304	0.288
Mof_H 	H 	0.2216	0.7497	0.4871	-0.008
Mof_H 	H 	0.0992	0.7983	0.5309	0.116
Mof_H 	H 	0.9926	0.7662	0.571	-0.045
Mof_H 	H 	0.0104	0.6881	0.5675	0.142
Mof_H 	H 	0.4667	0.5369	0.3723	0.302
Mof_H 	H 	0.4227	0.4974	0.38	0.312
Mof_H 	H 	0.4766	0.4998	0.4122	0.296
Mof_H 	H 	0.8752	0.3537	0.5695	-0.01
Mof_H 	H 	0.9278	0.3478	0.6324	0.087
Mof_H 	H 	0.8751	0.486	0.6314	0.084
Mof_H 	H 	0.8198	0.489	0.5708	-0.001
Mof_H 	H 	0.9731	0.3783	0.6853	0.038
Mof_H 	H 	0.8932	0.4162	0.7114	0.033
Mof_H 	H 	0.0122	0.9035	0.2463	-0.007
Mof_H 	H 	0.9465	0.8638	0.3074	0.134
Mof_H 	H 	0.8811	0.8133	0.2929	-0.048
Mof_H 	H 	0.8789	0.8034	0.2176	0.16
Mof_H 	H 	0.0766	0.9584	0.9814	0.292
Mof_H 	H 	0.1295	0.9692	0.0104	0.309
Mof_H 	H 	0.1645	0.9249	0.9781	0.311
Mof_H 	H 	0.7417	0.0751	0.6631	-0.026
Mof_H 	H 	0.6302	0.0678	0.7214	0.116
Mof_H 	H 	0.7383	0.0876	0.8134	0.13
Mof_H 	H 	0.8496	0.0901	0.7525	-0.019
Mof_H 	H 	0.6071	0.0296	0.8122	0.102
Mof_H 	H 	0.6178	0.0644	0.8446	0.109
Mof_H 	H 	0.4176	0.964	0.0168	-0.009
Mof_H 	H 	0.5131	0.8929	0.0245	0.119
Mof_H 	H 	0.4641	0.8361	0.0749	-0.046
Mof_H 	H 	0.3308	0.8476	0.1112	0.153
Mof_H 	H 	0.9736	0.117	0.108	0.29
Mof_H 	H 	0.0227	0.1189	0.0551	0.286
Mof_H 	H 	0.9525	0.0944	0.0696	0.288
Mof_H 	H 	0.9584	0.7503	0.0129	-0.007
Mof_H 	H 	0.9284	0.7017	0.9691	0.116
Mof_H 	H 	0.8298	0.7338	0.929	-0.046
Mof_H 	H 	0.766	0.8119	0.9325	0.143
Mof_H 	H 	0.8759	0.9631	0.1277	0.303
Mof_H 	H 	0.8001	0.0026	0.12	0.313
Mof_H 	H 	0.8886	0.0002	0.0878	0.298
Mof_H 	H 	0.2984	0.1463	0.9305	-0.01
Mof_H 	H 	0.408	0.1522	0.8676	0.089
Mof_H 	H 	0.4925	0.014	0.8686	0.085
Mof_H 	H 	0.3796	0.011	0.9292	-0.001
Mof_H 	H 	0.5367	0.1217	0.8147	0.042
Mof_H 	H 	0.5208	0.0838	0.7886	0.037
Mof_H 	H 	0.7415	0.2463	0.5965	-0.005
Mof_H 	H 	0.7461	0.3074	0.6362	0.133
Mof_H 	H 	0.826	0.2929	0.6867	-0.048
Mof_H 	H 	0.9035	0.2176	0.6966	0.16
Mof_H 	H 	0.942	0.9814	0.5416	0.295
Mof_H 	H 	0.8601	0.0104	0.5308	0.312
Mof_H 	H 	0.8574	0.9781	0.5751	0.314
Mof_H 	H 	0.5952	0.6631	0.4249	-0.026
Mof_H 	H 	0.6484	0.7214	0.4322	0.116
Mof_H 	H 	0.4483	0.8134	0.4124	0.13
Mof_H 	H 	0.3979	0.7525	0.4099	-0.019
Mof_H 	H 	0.5807	0.8122	0.4704	0.102
Mof_H 	H 	0.5376	0.8446	0.4356	0.109
Mof_H 	H 	0.5656	0.0168	0.536	-0.009
Mof_H 	H 	0.4624	0.0245	0.6071	0.119
Mof_H 	H 	0.461	0.0749	0.6639	-0.046
Mof_H 	H 	0.558	0.1112	0.6524	0.154
Mof_H 	H 	0.9184	0.108	0.383	0.29
Mof_H 	H 	0.9222	0.0551	0.3811	0.287
Mof_H 	H 	0.9779	0.0696	0.4056	0.288
Mof_H 	H 	0.0287	0.0129	0.7497	-0.007
Mof_H 	H 	0.1025	0.9691	0.7983	0.116
Mof_H 	H 	0.2412	0.929	0.7662	-0.046
Mof_H 	H 	0.3015	0.9325	0.6881	0.143
Mof_H 	H 	0.9964	0.1277	0.5369	0.3
Mof_H 	H 	0.0799	0.12	0.4974	0.311
Mof_H 	H 	0.0236	0.0878	0.4998	0.296
Mof_H 	H 	0.7711	0.9305	0.3537	-0.01
Mof_H 	H 	0.7244	0.8676	0.3478	0.089
Mof_H 	H 	0.6389	0.8686	0.486	0.085
Mof_H 	H 	0.6912	0.9292	0.489	-0.001
Mof_H 	H 	0.6486	0.8147	0.3783	0.041
Mof_H 	H 	0.6906	0.7886	0.4162	0.037
Mof_H 	H 	0.0843	0.2537	0.9035	-0.005
Mof_H 	H 	0.1897	0.1926	0.8638	0.133
Mof_H 	H 	0.3056	0.2071	0.8133	-0.048
Mof_H 	H 	0.3177	0.2824	0.8034	0.16
Mof_H 	H 	0.965	0.5186	0.9584	0.296
Mof_H 	H 	0.9013	0.4896	0.9692	0.314
Mof_H 	H 	0.9106	0.5219	0.9249	0.315
Mof_H 	H 	0.1832	0.8369	0.0751	-0.026
Mof_H 	H 	0.302	0.7786	0.0678	0.117
Mof_H 	H 	0.1741	0.6866	0.0876	0.13
Mof_H 	H 	0.0603	0.7475	0.0901	-0.019
Mof_H 	H 	0.3633	0.6878	0.0296	0.102
Mof_H 	H 	0.3178	0.6554	0.0644	0.11
Mof_H 	H 	0.6184	0.4832	0.964	-0.009
Mof_H 	H 	0.594	0.4755	0.8929	0.119
Mof_H 	H 	0.6998	0.4251	0.8361	-0.046
Mof_H 	H 	0.8216	0.3888	0.8476	0.153
Mof_H 	H 	0.9094	0.392	0.117	0.29
Mof_H 	H 	0.8584	0.4449	0.1189	0.287
Mof_H 	H 	0.9531	0.4304	0.0944	0.288
Mof_H 	H 	0.2913	0.4871	0.7503	-0.008
Mof_H 	H 	0.3699	0.5309	0.7017	0.116
Mof_H 	H 	0.4364	0.571	0.7338	-0.046
Mof_H 	H 	0.4221	0.5675	0.8119	0.143
Mof_H 	H 	0.161	0.3723	0.9631	0.3
Mof_H 	H 	0.1973	0.38	0.0026	0.31
Mof_H 	H 	0.1112	0.4122	0.0002	0.294
Mof_H 	H 	0.5553	0.5695	0.1463	-0.01
Mof_H 	H 	0.4398	0.6324	0.1522	0.089
Mof_H 	H 	0.4935	0.6314	0.014	0.085
Mof_H 	H 	0.6094	0.5708	0.011	-0.001
Mof_H 	H 	0.3416	0.6853	0.1217	0.041
Mof_H 	H 	0.3954	0.7114	0.0838	0.037
Mof_H 	H 	0.338	0.4035	0.7463	-0.005
Mof_H 	H 	0.3823	0.3638	0.8074	0.133
Mof_H 	H 	0.5127	0.3133	0.7929	-0.048
Mof_H 	H 	0.6001	0.3034	0.7176	0.16
Mof_H 	H 	0.4836	0.4584	0.4814	0.296
Mof_H 	H 	0.3909	0.4692	0.5104	0.314
Mof_H 	H 	0.4325	0.4249	0.4781	0.315
Mof_H 	H 	0.0201	0.5751	0.1631	-0.029
Mof_H 	H 	0.0806	0.5678	0.2214	0.119
Mof_H 	H 	0.8607	0.5876	0.3134	0.132
Mof_H 	H 	0.8078	0.5901	0.2525	-0.02
Mof_H 	H 	0.0511	0.5296	0.3122	0.106
Mof_H 	H 	0.9732	0.5644	0.3446	0.114
Mof_H 	H 	0.1016	0.464	0.5168	-0.009
Mof_H 	H 	0.0695	0.3929	0.5245	0.119
Mof_H 	H 	0.1249	0.3361	0.5749	-0.046
Mof_H 	H 	0.2104	0.3476	0.6112	0.154
Mof_H 	H 	0.3014	0.617	0.608	0.29
Mof_H 	H 	0.3033	0.6189	0.5551	0.287
Mof_H 	H 	0.3835	0.5944	0.5696	0.288
Mof_H 	H 	0.7784	0.2503	0.5129	-0.008
Mof_H 	H 	0.9008	0.2017	0.4691	0.116
Mof_H 	H 	0.0074	0.2338	0.429	-0.045
Mof_H 	H 	0.9896	0.3119	0.4325	0.142
Mof_H 	H 	0.5333	0.4631	0.6277	0.302
Mof_H 	H 	0.5773	0.5026	0.62	0.312
Mof_H 	H 	0.5234	0.5002	0.5878	0.296
Mof_H 	H 	0.1248	0.6463	0.4305	-0.01
Mof_H 	H 	0.0722	0.6522	0.3676	0.087
Mof_H 	H 	0.1249	0.514	0.3686	0.084
Mof_H 	H 	0.1802	0.511	0.4292	-0.001
Mof_H 	H 	0.0269	0.6217	0.3147	0.038
Mof_H 	H 	0.1068	0.5838	0.2886	0.033
Mof_H 	H 	0.9878	0.0965	0.7537	-0.007
Mof_H 	H 	0.0535	0.1362	0.6926	0.134
Mof_H 	H 	0.1189	0.1867	0.7071	-0.048
Mof_H 	H 	0.1211	0.1966	0.7824	0.16
Mof_H 	H 	0.9234	0.0416	0.0186	0.292
Mof_H 	H 	0.8705	0.0308	0.9896	0.309
Mof_H 	H 	0.8355	0.0751	0.0219	0.311
Mof_H 	H 	0.2583	0.9249	0.3369	-0.026
Mof_H 	H 	0.3698	0.9322	0.2786	0.116
Mof_H 	H 	0.2617	0.9124	0.1866	0.13
Mof_H 	H 	0.1504	0.9099	0.2475	-0.019
Mof_H 	H 	0.3929	0.9704	0.1878	0.102
Mof_H 	H 	0.3822	0.9356	0.1554	0.109
Mof_H 	H 	0.5824	0.036	0.9832	-0.009
Mof_H 	H 	0.4869	0.1071	0.9755	0.119
Mof_H 	H 	0.5359	0.1639	0.9251	-0.046
Mof_H 	H 	0.6692	0.1524	0.8888	0.153
Mof_H 	H 	0.0264	0.883	0.892	0.29
Mof_H 	H 	0.9773	0.8811	0.9449	0.286
Mof_H 	H 	0.0475	0.9056	0.9304	0.288
Mof_H 	H 	0.0416	0.2497	0.9871	-0.007
Mof_H 	H 	0.0716	0.2983	0.0309	0.116
Mof_H 	H 	0.1702	0.2662	0.071	-0.046
Mof_H 	H 	0.234	0.1881	0.0675	0.143
Mof_H 	H 	0.1241	0.0369	0.8723	0.303
Mof_H 	H 	0.1999	0.9974	0.88	0.313
Mof_H 	H 	0.1114	0.9998	0.9122	0.298
Mof_H 	H 	0.7016	0.8537	0.0695	-0.01
Mof_H 	H 	0.592	0.8478	0.1324	0.089
Mof_H 	H 	0.5075	0.986	0.1314	0.085
Mof_H 	H 	0.6204	0.989	0.0708	-0.001
Mof_H 	H 	0.4633	0.8783	0.1853	0.042
Mof_H 	H 	0.4792	0.9162	0.2114	0.037
Mof_C 	C 	0.1288	0.8141	0.3477	0.346
Mof_C 	C 	0.1778	0.8056	0.3788	-0.27
Mof_C 	C 	0.2251	0.7595	0.3837	0.178
Mof_C 	C 	0.223	0.723	0.3598	-0.268
Mof_C 	C 	0.1752	0.7317	0.3299	0.207
Mof_C 	C 	0.1285	0.7771	0.3239	-0.339
Mof_C 	C 	0.1822	0.8419	0.4065	0.3
Mof_C 	C 	0.1183	0.9617	0.4167	0.467
Mof_C 	C 	0.1144	0.0014	0.4448	-0.977
Mof_C 	C 	0.436	0.3061	0.5765	0.155
Mof_C 	C 	0.4037	0.2711	0.5719	-0.262
Mof_C 	C 	0.4482	0.2251	0.5733	0.214
Mof_C 	C 	0.5216	0.217	0.583	-0.274
Mof_C 	C 	0.5502	0.2542	0.5858	0.166
Mof_C 	C 	0.4219	0.1847	0.5617	-0.271
Mof_C 	C 	0.3794	0.9106	0.4146	0.336
Mof_C 	C 	0.3746	0.9415	0.4487	-0.271
Mof_C 	C 	0.4356	0.9642	0.4406	0.159
Mof_C 	C 	0.498	0.9596	0.3984	-0.248
Mof_C 	C 	0.4978	0.9294	0.3644	0.203
Mof_C 	C 	0.4411	0.9071	0.3715	-0.341
Mof_C 	C 	0.3107	0.9506	0.493	0.297
Mof_C 	C 	0.1422	0.9157	0.5539	0.422
Mof_C 	C 	0.0747	0.9213	0.6003	-0.896
Mof_C 	C 	0.798	0.026	0.3312	0.324
Mof_C 	C 	0.8822	0.0009	0.3107	-0.267
Mof_C 	C 	0.9165	0.0035	0.2631	0.166
Mof_C 	C 	0.8725	0.0295	0.2337	-0.249
Mof_C 	C 	0.7895	0.0536	0.253	0.181
Mof_C 	C 	0.7538	0.0516	0.2998	-0.306
Mof_C 	C 	0.9317	0.9712	0.339	0.306
Mof_C 	C 	0.9148	0.9288	0.451	0.443
Mof_C 	C 	0.9575	0.8953	0.4821	-0.95
Mof_C 	C 	0.2569	0.0817	0.6189	0.104
Mof_C 	C 	0.2848	0.1202	0.6228	-0.18
Mof_C 	C 	0.3248	0.139	0.584	0.103
Mof_C 	C 	0.334	0.1194	0.5418	-0.177
Mof_C 	C 	0.3039	0.082	0.5402	0.107
Mof_C 	C 	0.3507	0.1837	0.5895	-0.049
Mof_C 	C 	0.7906	0.6859	0.1523	0.346
Mof_C 	C 	0.8622	0.6944	0.1212	-0.27
Mof_C 	C 	0.8683	0.7405	0.1163	0.178
Mof_C 	C 	0.8058	0.777	0.1402	-0.268
Mof_C 	C 	0.7368	0.7683	0.1701	0.207
Mof_C 	C 	0.7295	0.7229	0.1761	-0.339
Mof_C 	C 	0.9306	0.6581	0.0935	0.3
Mof_C 	C 	0.9967	0.5383	0.0833	0.47
Mof_C 	C 	0.0606	0.4986	0.0552	-0.984
Mof_C 	C 	0.8186	0.1939	0.9235	0.155
Mof_C 	C 	0.7467	0.2289	0.9281	-0.262
Mof_C 	C 	0.7466	0.2749	0.9267	0.214
Mof_C 	C 	0.8216	0.283	0.917	-0.274
Mof_C 	C 	0.8902	0.2458	0.9142	0.166
Mof_C 	C 	0.6683	0.3153	0.9383	-0.271
Mof_C 	C 	0.2046	0.5894	0.0854	0.336
Mof_C 	C 	0.2648	0.5585	0.0513	-0.27
Mof_C 	C 	0.3404	0.5358	0.0594	0.158
Mof_C 	C 	0.356	0.5404	0.1016	-0.247
Mof_C 	C 	0.2916	0.5706	0.1356	0.202
Mof_C 	C 	0.2197	0.5929	0.1285	-0.34
Mof_C 	C 	0.2543	0.5494	0.007	0.296
Mof_C 	C 	0.1118	0.5843	0.9461	0.422
Mof_C 	C 	0.0963	0.5787	0.8997	-0.897
Mof_C 	C 	0.6552	0.474	0.1688	0.323
Mof_C 	C 	0.6938	0.4991	0.1893	-0.267
Mof_C 	C 	0.6831	0.4965	0.2369	0.166
Mof_C 	C 	0.6357	0.4705	0.2663	-0.249
Mof_C 	C 	0.5961	0.4464	0.247	0.181
Mof_C 	C 	0.6052	0.4484	0.2002	-0.306
Mof_C 	C 	0.7419	0.5288	0.161	0.305
Mof_C 	C 	0.7946	0.5712	0.049	0.443
Mof_C 	C 	0.8349	0.6047	0.0179	-0.947
Mof_C 	C 	0.4575	0.4183	0.8811	0.104
Mof_C 	C 	0.5278	0.3798	0.8772	-0.18
Mof_C 	C 	0.5478	0.361	0.916	0.103
Mof_C 	C 	0.4952	0.3806	0.9582	-0.177
Mof_C 	C 	0.4261	0.418	0.9598	0.107
Mof_C 	C 	0.6239	0.3163	0.9105	-0.049
Mof_C 	C 	0.4765	0.6523	0.3141	0.346
Mof_C 	C 	0.5566	0.6212	0.3056	-0.27
Mof_C 	C 	0.6088	0.6163	0.2595	0.178
Mof_C 	C 	0.5828	0.6402	0.223	-0.268
Mof_C 	C 	0.5051	0.6701	0.2317	0.207
Mof_C 	C 	0.4524	0.6761	0.2771	-0.339
Mof_C 	C 	0.5887	0.5935	0.3419	0.3
Mof_C 	C 	0.535	0.5833	0.4617	0.469
Mof_C 	C 	0.5592	0.5552	0.5014	-0.981
Mof_C 	C 	0.0125	0.4235	0.8061	0.161
Mof_C 	C 	0.9756	0.4281	0.7711	-0.271
Mof_C 	C 	0.0215	0.4267	0.7251	0.223
Mof_C 	C 	0.1046	0.417	0.717	-0.28
Mof_C 	C 	0.136	0.4142	0.7542	0.17
Mof_C 	C 	0.9836	0.4383	0.6847	-0.285
Mof_C 	C 	0.794	0.5854	0.4106	0.336
Mof_C 	C 	0.8233	0.5513	0.4415	-0.271
Mof_C 	C 	0.8762	0.5594	0.4642	0.159
Mof_C 	C 	0.8964	0.6016	0.4596	-0.248
Mof_C 	C 	0.8622	0.6356	0.4294	0.203
Mof_C 	C 	0.8126	0.6285	0.4071	-0.341
Mof_C 	C 	0.8037	0.507	0.4506	0.297
Mof_C 	C 	0.6961	0.4461	0.4157	0.422
Mof_C 	C 	0.675	0.3997	0.4213	-0.897
Mof_C 	C 	0.1292	0.6688	0.526	0.323
Mof_C 	C 	0.1929	0.6893	0.5009	-0.267
Mof_C 	C 	0.1796	0.7369	0.5035	0.165
Mof_C 	C 	0.1062	0.7663	0.5295	-0.248
Mof_C 	C 	0.0425	0.747	0.5536	0.18
Mof_C 	C 	0.0536	0.7002	0.5516	-0.306
Mof_C 	C 	0.2707	0.661	0.4712	0.305
Mof_C 	C 	0.3658	0.549	0.4288	0.444
Mof_C 	C 	0.4396	0.5179	0.3953	-0.952
Mof_C 	C 	0.8758	0.3811	0.5817	0.103
Mof_C 	C 	0.9076	0.3772	0.6202	-0.176
Mof_C 	C 	0.9088	0.416	0.639	0.098
Mof_C 	C 	0.8758	0.4582	0.6194	-0.174
Mof_C 	C 	0.8441	0.4598	0.582	0.106
Mof_C 	C 	0.9402	0.4105	0.6837	-0.037
Mof_C 	C 	0.9429	0.8477	0.1859	0.346
Mof_C 	C 	0.9834	0.8788	0.1944	-0.27
Mof_C 	C 	0.9846	0.8837	0.2405	0.181
Mof_C 	C 	0.946	0.8598	0.277	-0.27
Mof_C 	C 	0.9069	0.8299	0.2683	0.209
Mof_C 	C 	0.9056	0.8239	0.2229	-0.34
Mof_C 	C 	0.0241	0.9065	0.1581	0.299
Mof_C 	C 	0.08	0.9167	0.0383	0.464
Mof_C 	C 	0.1158	0.9448	0.9986	-0.967
Mof_C 	C 	0.7421	0.0765	0.6939	0.155
Mof_C 	C 	0.6748	0.0719	0.7289	-0.262
Mof_C 	C 	0.6733	0.0733	0.7749	0.214
Mof_C 	C 	0.7386	0.083	0.783	-0.274
Mof_C 	C 	0.8044	0.0858	0.7458	0.166
Mof_C 	C 	0.6066	0.0617	0.8153	-0.27
Mof_C 	C 	0.29	0.9146	0.0894	0.335
Mof_C 	C 	0.3161	0.9487	0.0585	-0.269
Mof_C 	C 	0.3998	0.9406	0.0358	0.158
Mof_C 	C 	0.4576	0.8984	0.0404	-0.247
Mof_C 	C 	0.4272	0.8644	0.0706	0.202
Mof_C 	C 	0.3482	0.8715	0.0929	-0.34
Mof_C 	C 	0.2613	0.993	0.0494	0.294
Mof_C 	C 	0.0579	0.0539	0.0843	0.422
Mof_C 	C 	0.996	0.1003	0.0787	-0.895
Mof_C 	C 	0.824	0.8312	0.974	0.323
Mof_C 	C 	0.8831	0.8107	0.9991	-0.266
Mof_C 	C 	0.92	0.7631	0.9965	0.164
Mof_C 	C 	0.902	0.7337	0.9705	-0.248
Mof_C 	C 	0.8431	0.753	0.9464	0.18
Mof_C 	C 	0.8054	0.7998	0.9484	-0.306
Mof_C 	C 	0.9029	0.839	0.0288	0.305
Mof_C 	C 	0.8436	0.951	0.0712	0.445
Mof_C 	C 	0.8528	0.9821	0.1047	-0.957
Mof_C 	C 	0.3386	0.1189	0.9183	0.104
Mof_C 	C 	0.405	0.1228	0.8798	-0.18
Mof_C 	C 	0.4638	0.084	0.861	0.103
Mof_C 	C 	0.4534	0.0418	0.8806	-0.177
Mof_C 	C 	0.3859	0.0402	0.918	0.107
Mof_C 	C 	0.5344	0.0895	0.8163	-0.049
Mof_C 	C 	0.8712	0.1859	0.6523	0.346
Mof_C 	C 	0.8222	0.1944	0.6212	-0.27
Mof_C 	C 	0.7749	0.2405	0.6163	0.178
Mof_C 	C 	0.777	0.277	0.6402	-0.268
Mof_C 	C 	0.8248	0.2683	0.6701	0.207
Mof_C 	C 	0.8715	0.2229	0.6761	-0.339
Mof_C 	C 	0.8178	0.1581	0.5935	0.3
Mof_C 	C 	0.8817	0.0383	0.5833	0.467
Mof_C 	C 	0.8856	0.9986	0.5552	-0.977
Mof_C 	C 	0.564	0.6939	0.4235	0.155
Mof_C 	C 	0.5963	0.7289	0.4281	-0.262
Mof_C 	C 	0.5518	0.7749	0.4267	0.214
Mof_C 	C 	0.4784	0.783	0.417	-0.274
Mof_C 	C 	0.4498	0.7458	0.4142	0.166
Mof_C 	C 	0.5781	0.8153	0.4383	-0.271
Mof_C 	C 	0.6206	0.0894	0.5854	0.336
Mof_C 	C 	0.6254	0.0585	0.5513	-0.271
Mof_C 	C 	0.5644	0.0358	0.5594	0.159
Mof_C 	C 	0.502	0.0404	0.6016	-0.248
Mof_C 	C 	0.5022	0.0706	0.6356	0.203
Mof_C 	C 	0.5589	0.0929	0.6285	-0.341
Mof_C 	C 	0.6893	0.0494	0.507	0.297
Mof_C 	C 	0.8578	0.0843	0.4461	0.422
Mof_C 	C 	0.9253	0.0787	0.3997	-0.896
Mof_C 	C 	0.202	0.974	0.6688	0.324
Mof_C 	C 	0.1178	0.9991	0.6893	-0.267
Mof_C 	C 	0.0835	0.9965	0.7369	0.166
Mof_C 	C 	0.1275	0.9705	0.7663	-0.249
Mof_C 	C 	0.2105	0.9464	0.747	0.181
Mof_C 	C 	0.2462	0.9484	0.7002	-0.306
Mof_C 	C 	0.0683	0.0288	0.661	0.306
Mof_C 	C 	0.0852	0.0712	0.549	0.443
Mof_C 	C 	0.0425	0.1047	0.5179	-0.95
Mof_C 	C 	0.7431	0.9183	0.3811	0.104
Mof_C 	C 	0.7152	0.8798	0.3772	-0.18
Mof_C 	C 	0.6752	0.861	0.416	0.103
Mof_C 	C 	0.666	0.8806	0.4582	-0.177
Mof_C 	C 	0.6961	0.918	0.4598	0.107
Mof_C 	C 	0.6493	0.8163	0.4105	-0.049
Mof_C 	C 	0.2094	0.3141	0.8477	0.346
Mof_C 	C 	0.1378	0.3056	0.8788	-0.27
Mof_C 	C 	0.1317	0.2595	0.8837	0.178
Mof_C 	C 	0.1942	0.223	0.8598	-0.268
Mof_C 	C 	0.2632	0.2317	0.8299	0.207
Mof_C 	C 	0.2705	0.2771	0.8239	-0.339
Mof_C 	C 	0.0694	0.3419	0.9065	0.3
Mof_C 	C 	0.0033	0.4617	0.9167	0.47
Mof_C 	C 	0.9394	0.5014	0.9448	-0.984
Mof_C 	C 	0.1814	0.8061	0.0765	0.155
Mof_C 	C 	0.2533	0.7711	0.0719	-0.262
Mof_C 	C 	0.2534	0.7251	0.0733	0.214
Mof_C 	C 	0.1784	0.717	0.083	-0.274
Mof_C 	C 	0.1098	0.7542	0.0858	0.166
Mof_C 	C 	0.3317	0.6847	0.0617	-0.271
Mof_C 	C 	0.7954	0.4106	0.9146	0.336
Mof_C 	C 	0.7352	0.4415	0.9487	-0.27
Mof_C 	C 	0.6596	0.4642	0.9406	0.158
Mof_C 	C 	0.644	0.4596	0.8984	-0.247
Mof_C 	C 	0.7084	0.4294	0.8644	0.202
Mof_C 	C 	0.7803	0.4071	0.8715	-0.34
Mof_C 	C 	0.7457	0.4506	0.993	0.296
Mof_C 	C 	0.8882	0.4157	0.0539	0.422
Mof_C 	C 	0.9037	0.4213	0.1003	-0.897
Mof_C 	C 	0.3448	0.526	0.8312	0.323
Mof_C 	C 	0.3062	0.5009	0.8107	-0.267
Mof_C 	C 	0.3169	0.5035	0.7631	0.166
Mof_C 	C 	0.3643	0.5295	0.7337	-0.249
Mof_C 	C 	0.4039	0.5536	0.753	0.181
Mof_C 	C 	0.3948	0.5516	0.7998	-0.306
Mof_C 	C 	0.2581	0.4712	0.839	0.305
Mof_C 	C 	0.2054	0.4288	0.951	0.443
Mof_C 	C 	0.1651	0.3953	0.9821	-0.947
Mof_C 	C 	0.5425	0.5817	0.1189	0.104
Mof_C 	C 	0.4722	0.6202	0.1228	-0.18
Mof_C 	C 	0.4522	0.639	0.084	0.103
Mof_C 	C 	0.5048	0.6194	0.0418	-0.177
Mof_C 	C 	0.5739	0.582	0.0402	0.107
Mof_C 	C 	0.3761	0.6837	0.0895	-0.049
Mof_C 	C 	0.5235	0.3477	0.6859	0.346
Mof_C 	C 	0.4434	0.3788	0.6944	-0.27
Mof_C 	C 	0.3912	0.3837	0.7405	0.178
Mof_C 	C 	0.4172	0.3598	0.777	-0.268
Mof_C 	C 	0.4949	0.3299	0.7683	0.207
Mof_C 	C 	0.5476	0.3239	0.7229	-0.339
Mof_C 	C 	0.4113	0.4065	0.6581	0.3
Mof_C 	C 	0.465	0.4167	0.5383	0.469
Mof_C 	C 	0.4408	0.4448	0.4986	-0.981
Mof_C 	C 	0.9875	0.5765	0.1939	0.161
Mof_C 	C 	0.0244	0.5719	0.2289	-0.271
Mof_C 	C 	0.9785	0.5733	0.2749	0.223
Mof_C 	C 	0.8954	0.583	0.283	-0.28
Mof_C 	C 	0.864	0.5858	0.2458	0.17
Mof_C 	C 	0.0164	0.5617	0.3153	-0.285
Mof_C 	C 	0.206	0.4146	0.5894	0.336
Mof_C 	C 	0.1767	0.4487	0.5585	-0.271
Mof_C 	C 	0.1238	0.4406	0.5358	0.159
Mof_C 	C 	0.1036	0.3984	0.5404	-0.248
Mof_C 	C 	0.1378	0.3644	0.5706	0.203
Mof_C 	C 	0.1874	0.3715	0.5929	-0.341
Mof_C 	C 	0.1963	0.493	0.5494	0.297
Mof_C 	C 	0.3039	0.5539	0.5843	0.422
Mof_C 	C 	0.325	0.6003	0.5787	-0.897
Mof_C 	C 	0.8708	0.3312	0.474	0.323
Mof_C 	C 	0.8071	0.3107	0.4991	-0.267
Mof_C 	C 	0.8204	0.2631	0.4965	0.165
Mof_C 	C 	0.8938	0.2337	0.4705	-0.248
Mof_C 	C 	0.9575	0.253	0.4464	0.18
Mof_C 	C 	0.9464	0.2998	0.4484	-0.306
Mof_C 	C 	0.7293	0.339	0.5288	0.305
Mof_C 	C 	0.6342	0.451	0.5712	0.444
Mof_C 	C 	0.5604	0.4821	0.6047	-0.952
Mof_C 	C 	0.1242	0.6189	0.4183	0.103
Mof_C 	C 	0.0924	0.6228	0.3798	-0.176
Mof_C 	C 	0.0912	0.584	0.361	0.098
Mof_C 	C 	0.1242	0.5418	0.3806	-0.174
Mof_C 	C 	0.1559	0.5402	0.418	0.106
Mof_C 	C 	0.0598	0.5895	0.3163	-0.037
Mof_C 	C 	0.0571	0.1523	0.8141	0.346
Mof_C 	C 	0.0166	0.1212	0.8056	-0.27
Mof_C 	C 	0.0154	0.1163	0.7595	0.181
Mof_C 	C 	0.054	0.1402	0.723	-0.27
Mof_C 	C 	0.0931	0.1701	0.7317	0.209
Mof_C 	C 	0.0944	0.1761	0.7771	-0.34
Mof_C 	C 	0.9759	0.0935	0.8419	0.299
Mof_C 	C 	0.92	0.0833	0.9617	0.464
Mof_C 	C 	0.8842	0.0552	0.0014	-0.967
Mof_C 	C 	0.2579	0.9235	0.3061	0.155
Mof_C 	C 	0.3252	0.9281	0.2711	-0.262
Mof_C 	C 	0.3267	0.9267	0.2251	0.214
Mof_C 	C 	0.2614	0.917	0.217	-0.274
Mof_C 	C 	0.1956	0.9142	0.2542	0.166
Mof_C 	C 	0.3934	0.9383	0.1847	-0.27
Mof_C 	C 	0.71	0.0854	0.9106	0.335
Mof_C 	C 	0.6839	0.0513	0.9415	-0.269
Mof_C 	C 	0.6002	0.0594	0.9642	0.158
Mof_C 	C 	0.5424	0.1016	0.9596	-0.247
Mof_C 	C 	0.5728	0.1356	0.9294	0.202
Mof_C 	C 	0.6518	0.1285	0.9071	-0.34
Mof_C 	C 	0.7387	0.007	0.9506	0.294
Mof_C 	C 	0.9421	0.9461	0.9157	0.422
Mof_C 	C 	0.004	0.8997	0.9213	-0.895
Mof_C 	C 	0.176	0.1688	0.026	0.323
Mof_C 	C 	0.1169	0.1893	0.0009	-0.266
Mof_C 	C 	0.08	0.2369	0.0035	0.164
Mof_C 	C 	0.098	0.2663	0.0295	-0.248
Mof_C 	C 	0.1569	0.247	0.0536	0.18
Mof_C 	C 	0.1946	0.2002	0.0516	-0.306
Mof_C 	C 	0.0971	0.161	0.9712	0.305
Mof_C 	C 	0.1564	0.049	0.9288	0.445
Mof_C 	C 	0.1472	0.0179	0.8953	-0.957
Mof_C 	C 	0.6614	0.8811	0.0817	0.104
Mof_C 	C 	0.595	0.8772	0.1202	-0.18
Mof_C 	C 	0.5362	0.916	0.139	0.103
Mof_C 	C 	0.5466	0.9582	0.1194	-0.177
Mof_C 	C 	0.6141	0.9598	0.082	0.107
Mof_C 	C 	0.4656	0.9105	0.1837	-0.049
Mof_N 	N 	0.14394	0.88642	0.4005	-0.249
Mof_N 	N 	0.15171	0.91909	0.42849	-0.24
Mof_N 	N 	0.51	0.2983	0.5829	-0.224
Mof_N 	N 	0.25178	0.92853	0.50251	-0.254
Mof_N 	N 	0.1929	0.94103	0.54637	-0.235
Mof_N 	N 	0.89871	0.96389	0.38349	-0.25
Mof_N 	N 	0.9502	0.9314	0.4062	-0.235
Mof_N 	N 	0.268	0.0617	0.5787	-0.198
Mof_N 	N 	0.93086	0.61358	0.0995	-0.249
Mof_N 	N 	0.99929	0.58091	0.07151	-0.24
Mof_N 	N 	0.8912	0.2017	0.9171	-0.224
Mof_N 	N 	0.18282	0.57147	0.99749	-0.254
Mof_N 	N 	0.1803	0.55897	0.95363	-0.235
Mof_N 	N 	0.74609	0.53611	0.11651	-0.25
Mof_N 	N 	0.7878	0.5686	0.0938	-0.235
Mof_N 	N 	0.4084	0.4383	0.9213	-0.198
Mof_N 	N 	0.54444	0.5995	0.38642	-0.249
Mof_N 	N 	0.5802	0.57151	0.41909	-0.24
Mof_N 	N 	0.0929	0.4171	0.7983	-0.226
Mof_N 	N 	0.75429	0.49749	0.42853	-0.254
Mof_N 	N 	0.73927	0.45363	0.44103	-0.235
Mof_N 	N 	0.2822	0.61651	0.46389	-0.25
Mof_N 	N 	0.3564	0.5938	0.4314	-0.235
Mof_N 	N 	0.8467	0.4213	0.5617	-0.197
Mof_N 	N 	0.03036	0.9005	0.11358	-0.25
Mof_N 	N 	0.0708	0.92849	0.08091	-0.24
Mof_N 	N 	0.8083	0.0829	0.7017	-0.224
Mof_N 	N 	0.18031	0.00251	0.07147	-0.253
Mof_N 	N 	0.13393	0.04637	0.05897	-0.234
Mof_N 	N 	0.8626	0.88349	0.03611	-0.25
Mof_N 	N 	0.8816	0.9062	0.0686	-0.235
Mof_N 	N 	0.3297	0.0787	0.9383	-0.198
Mof_N 	N 	0.85606	0.11358	0.5995	-0.249
Mof_N 	N 	0.84829	0.08091	0.57151	-0.24
Mof_N 	N 	0.49	0.7017	0.4171	-0.224
Mof_N 	N 	0.74822	0.07147	0.49749	-0.254
Mof_N 	N 	0.8071	0.05897	0.45363	-0.235
Mof_N 	N 	0.10129	0.03611	0.61651	-0.25
Mof_N 	N 	0.0498	0.0686	0.5938	-0.235
Mof_N 	N 	0.732	0.9383	0.4213	-0.198
Mof_N 	N 	0.06914	0.38642	0.9005	-0.249
Mof_N 	N 	0.00071	0.41909	0.92849	-0.24
Mof_N 	N 	0.1088	0.7983	0.0829	-0.224
Mof_N 	N 	0.81718	0.42853	0.00251	-0.254
Mof_N 	N 	0.8197	0.44103	0.04637	-0.235
Mof_N 	N 	0.25391	0.46389	0.88349	-0.25
Mof_N 	N 	0.2122	0.4314	0.9062	-0.235
Mof_N 	N 	0.5916	0.5617	0.0787	-0.198
Mof_N 	N 	0.45556	0.4005	0.61358	-0.249
Mof_N 	N 	0.4198	0.42849	0.58091	-0.24
Mof_N 	N 	0.9071	0.5829	0.2017	-0.226
Mof_N 	N 	0.24571	0.50251	0.57147	-0.254
Mof_N 	N 	0.26073	0.54637	0.55897	-0.235
Mof_N 	N 	0.7178	0.38349	0.53611	-0.25
Mof_N 	N 	0.6436	0.4062	0.5686	-0.235
Mof_N 	N 	0.1533	0.5787	0.4383	-0.197
Mof_N 	N 	0.96964	0.0995	0.88642	-0.25
Mof_N 	N 	0.9292	0.07151	0.91909	-0.24
Mof_N 	N 	0.1917	0.9171	0.2983	-0.224
Mof_N 	N 	0.81969	0.99749	0.92853	-0.253
Mof_N 	N 	0.86607	0.95363	0.94103	-0.234
Mof_N 	N 	0.1374	0.11651	0.96389	-0.25
Mof_N 	N 	0.1184	0.0938	0.9314	-0.235
Mof_N 	N 	0.6703	0.9213	0.0617	-0.198
Mof_O 	O 	0.08198	0.85688	0.33976	-0.439
Mof_O 	O 	0.2224	0.83019	0.43741	-0.381
Mof_O 	O 	0.08329	0.9708	0.38362	-0.465
Mof_O 	O 	0.32929	0.88427	0.41955	-0.438
Mof_O 	O 	0.31076	0.97928	0.5226	-0.374
Mof_O 	O 	0.14974	0.88366	0.52546	-0.46
Mof_O 	O 	0.75772	0.02642	0.37594	-0.436
Mof_O 	O 	0.00683	0.95126	0.31908	-0.382
Mof_O 	O 	0.84127	0.95533	0.47073	-0.452
Mof_O 	O 	0.77862	0.64312	0.16024	-0.439
Mof_O 	O 	0.99	0.66981	0.06259	-0.38
Mof_O 	O 	0.93771	0.5292	0.11638	-0.466
Mof_O 	O 	0.13311	0.61573	0.08045	-0.438
Mof_O 	O 	0.31264	0.52072	0.9774	-0.373
Mof_O 	O 	0.05886	0.61634	0.97454	-0.459
Mof_O 	O 	0.66008	0.47358	0.12406	-0.436
Mof_O 	O 	0.77717	0.54874	0.18092	-0.381
Mof_O 	O 	0.76733	0.54467	0.02927	-0.452
Mof_O 	O 	0.42174	0.66024	0.35688	-0.439
Mof_O 	O 	0.65981	0.56259	0.33019	-0.381
Mof_O 	O 	0.46691	0.61638	0.4708	-0.466
Mof_O 	O 	0.74884	0.58045	0.38427	-0.438
Mof_O 	O 	0.83336	0.4774	0.47928	-0.374
Mof_O 	O 	0.6752	0.47454	0.38366	-0.46
Mof_O 	O 	0.13366	0.62406	0.52642	-0.436
Mof_O 	O 	0.32591	0.68092	0.45126	-0.381
Mof_O 	O 	0.312	0.52927	0.45533	-0.452
Mof_O 	O 	0.93886	0.83976	0.14312	-0.439
Mof_O 	O 	0.05259	0.93741	0.16981	-0.381
Mof_O 	O 	0.05409	0.88362	0.0292	-0.465
Mof_O 	O 	0.21356	0.91955	0.11573	-0.438
Mof_O 	O 	0.29004	0.0226	0.02072	-0.372
Mof_O 	O 	0.0334	0.02546	0.11634	-0.459
Mof_O 	O 	0.78414	0.87594	0.97358	-0.435
Mof_O 	O 	0.95809	0.81908	0.04874	-0.381
Mof_O 	O 	0.7966	0.97073	0.04467	-0.452
Mof_O 	O 	0.91802	0.14312	0.66024	-0.439
Mof_O 	O 	0.7776	0.16981	0.56259	-0.381
Mof_O 	O 	0.91671	0.0292	0.61638	-0.465
Mof_O 	O 	0.67071	0.11573	0.58045	-0.438
Mof_O 	O 	0.68924	0.02072	0.4774	-0.374
Mof_O 	O 	0.85026	0.11634	0.47454	-0.46
Mof_O 	O 	0.24228	0.97358	0.62406	-0.436
Mof_O 	O 	0.99317	0.04874	0.68092	-0.382
Mof_O 	O 	0.15873	0.04467	0.52927	-0.452
Mof_O 	O 	0.22138	0.35688	0.83976	-0.439
Mof_O 	O 	0.01	0.33019	0.93741	-0.38
Mof_O 	O 	0.06229	0.4708	0.88362	-0.466
Mof_O 	O 	0.86689	0.38427	0.91955	-0.438
Mof_O 	O 	0.68736	0.47928	0.0226	-0.373
Mof_O 	O 	0.94114	0.38366	0.02546	-0.459
Mof_O 	O 	0.33992	0.52642	0.87594	-0.436
Mof_O 	O 	0.22283	0.45126	0.81908	-0.381
Mof_O 	O 	0.23267	0.45533	0.97073	-0.452
Mof_O 	O 	0.57826	0.33976	0.64312	-0.439
Mof_O 	O 	0.34019	0.43741	0.66981	-0.381
Mof_O 	O 	0.53309	0.38362	0.5292	-0.466
Mof_O 	O 	0.25116	0.41955	0.61573	-0.438
Mof_O 	O 	0.16664	0.5226	0.52072	-0.374
Mof_O 	O 	0.3248	0.52546	0.61634	-0.46
Mof_O 	O 	0.86634	0.37594	0.47358	-0.436
Mof_O 	O 	0.67409	0.31908	0.54874	-0.381
Mof_O 	O 	0.688	0.47073	0.54467	-0.452
Mof_O 	O 	0.06114	0.16024	0.85688	-0.439
Mof_O 	O 	0.94741	0.06259	0.83019	-0.381
Mof_O 	O 	0.94591	0.11638	0.9708	-0.465
Mof_O 	O 	0.78644	0.08045	0.88427	-0.438
Mof_O 	O 	0.70996	0.9774	0.97928	-0.372
Mof_O 	O 	0.9666	0.97454	0.88366	-0.459
Mof_O 	O 	0.21586	0.12406	0.02642	-0.435
Mof_O 	O 	0.04191	0.18092	0.95126	-0.381
Mof_O 	O 	0.2034	0.02927	0.95533	-0.452
_end
