data_functionalizedCrystal
_audit_creation_method	'EQeq! by Chris Wilmer'
_symmetry_space_group_name_H-M	'P1'
_symmetry_Int_Tables_number	1
_symmetry_cell_setting	triclinic
loop_
_symmetry_equiv_pos_as_xyz
  x,y,z
_cell_length_a	26.25
_cell_length_b	26.25
_cell_length_c	11.2436
_cell_angle_alpha	90
_cell_angle_beta	90
_cell_angle_gamma	120
loop_
_atom_site_label
_atom_site_type_symbol
_atom_site_fract_x
_atom_site_fract_y
_atom_site_fract_z
_atom_site_charge
Mof_O 	O 	0.34155	0.5737	0.1287	-0.461
Mof_C 	C 	0.4035	0.5216	0.2247	0.097
Mof_H 	H 	0.3898	0.4957	0.1573	-0.032
Mof_C 	C 	0.4128	0.5067	0.3774	-0.03
Mof_H 	H 	0.3856	0.4898	0.4423	0.03
Mof_C 	C 	0.386	0.5317	0.3073	-0.036
Mof_H 	H 	0.3511	0.5216	0.3523	0.044
Mof_C 	C 	0.4299	0.4965	0.2886	-0.135
Mof_H 	H 	0.4245	0.465	0.237	0.053
Mof_O 	O 	0.4263	0.76785	0.1287	-0.461
Mof_C 	C 	0.4784	0.8819	0.2247	0.096
Mof_H 	H 	0.5043	0.8941	0.1573	-0.032
Mof_C 	C 	0.4933	0.9061	0.3774	-0.03
Mof_H 	H 	0.5102	0.8958	0.4423	0.03
Mof_C 	C 	0.4683	0.8543	0.3073	-0.036
Mof_H 	H 	0.4784	0.8295	0.3523	0.043
Mof_C 	C 	0.5035	0.9334	0.2886	-0.133
Mof_H 	H 	0.535	0.9595	0.237	0.051
Mof_O 	O 	0.23215	0.65845	0.1287	-0.461
Mof_C 	C 	0.1181	0.5965	0.2247	0.097
Mof_H 	H 	0.1059	0.6102	0.1573	-0.032
Mof_C 	C 	0.0939	0.5872	0.3774	-0.03
Mof_H 	H 	0.1042	0.6144	0.4423	0.03
Mof_C 	C 	0.1457	0.614	0.3073	-0.036
Mof_H 	H 	0.1705	0.6489	0.3523	0.043
Mof_C 	C 	0.0666	0.5701	0.2886	-0.134
Mof_H 	H 	0.0405	0.5755	0.237	0.053
Mof_O 	O 	0.65845	0.4263	0.1287	-0.461
Mof_C 	C 	0.5965	0.4784	0.2247	0.097
Mof_H 	H 	0.6102	0.5043	0.1573	-0.032
Mof_C 	C 	0.5872	0.4933	0.3774	-0.031
Mof_H 	H 	0.6144	0.5102	0.4423	0.03
Mof_C 	C 	0.614	0.4683	0.3073	-0.036
Mof_H 	H 	0.6489	0.4784	0.3523	0.043
Mof_C 	C 	0.5701	0.5035	0.2886	-0.135
Mof_H 	H 	0.5755	0.535	0.237	0.053
Mof_O 	O 	0.5737	0.23215	0.1287	-0.461
Mof_C 	C 	0.5216	0.1181	0.2247	0.097
Mof_H 	H 	0.4957	0.1059	0.1573	-0.032
Mof_C 	C 	0.5067	0.0939	0.3774	-0.03
Mof_H 	H 	0.4898	0.1042	0.4423	0.03
Mof_C 	C 	0.5317	0.1457	0.3073	-0.036
Mof_H 	H 	0.5216	0.1705	0.3523	0.044
Mof_C 	C 	0.4965	0.0666	0.2886	-0.134
Mof_H 	H 	0.465	0.0405	0.237	0.053
Mof_O 	O 	0.76785	0.34155	0.1287	-0.461
Mof_C 	C 	0.8819	0.4035	0.2247	0.096
Mof_H 	H 	0.8941	0.3898	0.1573	-0.032
Mof_C 	C 	0.9061	0.4128	0.3774	-0.03
Mof_H 	H 	0.8958	0.3856	0.4423	0.03
Mof_C 	C 	0.8543	0.386	0.3073	-0.036
Mof_H 	H 	0.8295	0.3511	0.3523	0.043
Mof_C 	C 	0.9334	0.4299	0.2886	-0.133
Mof_H 	H 	0.9595	0.4245	0.237	0.051
Mof_O 	O 	0.5737	0.34155	0.8713	-0.373
Mof_C 	C 	0.5216	0.4035	0.7753	0.071
Mof_H 	H 	0.4957	0.3898	0.8427	0.03
Mof_C 	C 	0.5067	0.4128	0.6226	-0.033
Mof_H 	H 	0.4898	0.3856	0.5577	0.033
Mof_C 	C 	0.5317	0.386	0.6927	-0.029
Mof_H 	H 	0.5216	0.3511	0.6477	0.047
Mof_C 	C 	0.4965	0.4299	0.7114	-0.117
Mof_H 	H 	0.465	0.4245	0.763	0.072
Mof_O 	O 	0.76785	0.4263	0.8713	-0.373
Mof_C 	C 	0.8819	0.4784	0.7753	0.07
Mof_H 	H 	0.8941	0.5043	0.8427	0.03
Mof_C 	C 	0.9061	0.4933	0.6226	-0.033
Mof_H 	H 	0.8958	0.5102	0.5577	0.033
Mof_C 	C 	0.8543	0.4683	0.6927	-0.028
Mof_H 	H 	0.8295	0.4784	0.6477	0.047
Mof_C 	C 	0.9334	0.5035	0.7114	-0.116
Mof_H 	H 	0.9595	0.535	0.763	0.071
Mof_O 	O 	0.65845	0.23215	0.8713	-0.373
Mof_C 	C 	0.5965	0.1181	0.7753	0.071
Mof_H 	H 	0.6102	0.1059	0.8427	0.03
Mof_C 	C 	0.5872	0.0939	0.6226	-0.033
Mof_H 	H 	0.6144	0.1042	0.5577	0.033
Mof_C 	C 	0.614	0.1457	0.6927	-0.029
Mof_H 	H 	0.6489	0.1705	0.6477	0.047
Mof_C 	C 	0.5701	0.0666	0.7114	-0.117
Mof_H 	H 	0.5755	0.0405	0.763	0.073
Mof_O 	O 	0.4263	0.65845	0.8713	-0.373
Mof_C 	C 	0.4784	0.5965	0.7753	0.071
Mof_H 	H 	0.5043	0.6102	0.8427	0.03
Mof_C 	C 	0.4933	0.5872	0.6226	-0.033
Mof_H 	H 	0.5102	0.6144	0.5577	0.033
Mof_C 	C 	0.4683	0.614	0.6927	-0.029
Mof_H 	H 	0.4784	0.6489	0.6477	0.047
Mof_C 	C 	0.5035	0.5701	0.7114	-0.117
Mof_H 	H 	0.535	0.5755	0.763	0.072
Mof_O 	O 	0.23215	0.5737	0.8713	-0.373
Mof_C 	C 	0.1181	0.5216	0.7753	0.071
Mof_H 	H 	0.1059	0.4957	0.8427	0.03
Mof_C 	C 	0.0939	0.5067	0.6226	-0.033
Mof_H 	H 	0.1042	0.4898	0.5577	0.033
Mof_C 	C 	0.1457	0.5317	0.6927	-0.029
Mof_H 	H 	0.1705	0.5216	0.6477	0.047
Mof_C 	C 	0.0666	0.4965	0.7114	-0.117
Mof_H 	H 	0.0405	0.465	0.763	0.073
Mof_O 	O 	0.34155	0.76785	0.8713	-0.373
Mof_C 	C 	0.4035	0.8819	0.7753	0.07
Mof_H 	H 	0.3898	0.8941	0.8427	0.03
Mof_C 	C 	0.4128	0.9061	0.6226	-0.033
Mof_H 	H 	0.3856	0.8958	0.5577	0.033
Mof_C 	C 	0.386	0.8543	0.6927	-0.028
Mof_H 	H 	0.3511	0.8295	0.6477	0.047
Mof_C 	C 	0.4299	0.9334	0.7114	-0.116
Mof_H 	H 	0.4245	0.9595	0.763	0.071
Mof_O 	O 	0.65845	0.4263	0.8713	-0.373
Mof_C 	C 	0.5965	0.4784	0.7753	0.071
Mof_H 	H 	0.6102	0.5043	0.8427	0.03
Mof_C 	C 	0.5872	0.4933	0.6226	-0.033
Mof_H 	H 	0.6144	0.5102	0.5577	0.033
Mof_C 	C 	0.614	0.4683	0.6927	-0.029
Mof_H 	H 	0.6489	0.4784	0.6477	0.047
Mof_C 	C 	0.5701	0.5035	0.7114	-0.117
Mof_H 	H 	0.5755	0.535	0.763	0.072
Mof_O 	O 	0.5737	0.23215	0.8713	-0.373
Mof_C 	C 	0.5216	0.1181	0.7753	0.071
Mof_H 	H 	0.4957	0.1059	0.8427	0.03
Mof_C 	C 	0.5067	0.0939	0.6226	-0.033
Mof_H 	H 	0.4898	0.1042	0.5577	0.033
Mof_C 	C 	0.5317	0.1457	0.6927	-0.029
Mof_H 	H 	0.5216	0.1705	0.6477	0.047
Mof_C 	C 	0.4965	0.0666	0.7114	-0.117
Mof_H 	H 	0.465	0.0405	0.763	0.073
Mof_O 	O 	0.76785	0.34155	0.8713	-0.373
Mof_C 	C 	0.8819	0.4035	0.7753	0.07
Mof_H 	H 	0.8941	0.3898	0.8427	0.03
Mof_C 	C 	0.9061	0.4128	0.6226	-0.033
Mof_H 	H 	0.8958	0.3856	0.5577	0.033
Mof_C 	C 	0.8543	0.386	0.6927	-0.028
Mof_H 	H 	0.8295	0.3511	0.6477	0.047
Mof_C 	C 	0.9334	0.4299	0.7114	-0.116
Mof_H 	H 	0.9595	0.4245	0.763	0.071
Mof_O 	O 	0.34155	0.5737	0.8713	-0.373
Mof_C 	C 	0.4035	0.5216	0.7753	0.071
Mof_H 	H 	0.3898	0.4957	0.8427	0.03
Mof_C 	C 	0.4128	0.5067	0.6226	-0.033
Mof_H 	H 	0.3856	0.4898	0.5577	0.033
Mof_C 	C 	0.386	0.5317	0.6927	-0.029
Mof_H 	H 	0.3511	0.5216	0.6477	0.047
Mof_C 	C 	0.4299	0.4965	0.7114	-0.117
Mof_H 	H 	0.4245	0.465	0.763	0.072
Mof_O 	O 	0.4263	0.76785	0.8713	-0.373
Mof_C 	C 	0.4784	0.8819	0.7753	0.07
Mof_H 	H 	0.5043	0.8941	0.8427	0.03
Mof_C 	C 	0.4933	0.9061	0.6226	-0.033
Mof_H 	H 	0.5102	0.8958	0.5577	0.033
Mof_C 	C 	0.4683	0.8543	0.6927	-0.028
Mof_H 	H 	0.4784	0.8295	0.6477	0.047
Mof_C 	C 	0.5035	0.9334	0.7114	-0.116
Mof_H 	H 	0.535	0.9595	0.763	0.071
Mof_O 	O 	0.23215	0.65845	0.8713	-0.373
Mof_C 	C 	0.1181	0.5965	0.7753	0.071
Mof_H 	H 	0.1059	0.6102	0.8427	0.03
Mof_C 	C 	0.0939	0.5872	0.6226	-0.033
Mof_H 	H 	0.1042	0.6144	0.5577	0.033
Mof_C 	C 	0.1457	0.614	0.6927	-0.029
Mof_H 	H 	0.1705	0.6489	0.6477	0.047
Mof_C 	C 	0.0666	0.5701	0.7114	-0.117
Mof_H 	H 	0.0405	0.5755	0.763	0.073
Mof_O 	O 	0.4263	0.65845	0.1287	-0.461
Mof_C 	C 	0.4784	0.5965	0.2247	0.097
Mof_H 	H 	0.5043	0.6102	0.1573	-0.032
Mof_C 	C 	0.4933	0.5872	0.3774	-0.031
Mof_H 	H 	0.5102	0.6144	0.4423	0.03
Mof_C 	C 	0.4683	0.614	0.3073	-0.036
Mof_H 	H 	0.4784	0.6489	0.3523	0.043
Mof_C 	C 	0.5035	0.5701	0.2886	-0.135
Mof_H 	H 	0.535	0.5755	0.237	0.053
Mof_O 	O 	0.23215	0.5737	0.1287	-0.461
Mof_C 	C 	0.1181	0.5216	0.2247	0.097
Mof_H 	H 	0.1059	0.4957	0.1573	-0.032
Mof_C 	C 	0.0939	0.5067	0.3774	-0.03
Mof_H 	H 	0.1042	0.4898	0.4423	0.03
Mof_C 	C 	0.1457	0.5317	0.3073	-0.036
Mof_H 	H 	0.1705	0.5216	0.3523	0.044
Mof_C 	C 	0.0666	0.4965	0.2886	-0.134
Mof_H 	H 	0.0405	0.465	0.237	0.053
Mof_O 	O 	0.34155	0.76785	0.1287	-0.461
Mof_C 	C 	0.4035	0.8819	0.2247	0.096
Mof_H 	H 	0.3898	0.8941	0.1573	-0.032
Mof_C 	C 	0.4128	0.9061	0.3774	-0.03
Mof_H 	H 	0.3856	0.8958	0.4423	0.03
Mof_C 	C 	0.386	0.8543	0.3073	-0.036
Mof_H 	H 	0.3511	0.8295	0.3523	0.043
Mof_C 	C 	0.4299	0.9334	0.2886	-0.133
Mof_H 	H 	0.4245	0.9595	0.237	0.051
Mof_O 	O 	0.5737	0.34155	0.1287	-0.461
Mof_C 	C 	0.5216	0.4035	0.2247	0.097
Mof_H 	H 	0.4957	0.3898	0.1573	-0.032
Mof_C 	C 	0.5067	0.4128	0.3774	-0.03
Mof_H 	H 	0.4898	0.3856	0.4423	0.03
Mof_C 	C 	0.5317	0.386	0.3073	-0.036
Mof_H 	H 	0.5216	0.3511	0.3523	0.044
Mof_C 	C 	0.4965	0.4299	0.2886	-0.135
Mof_H 	H 	0.465	0.4245	0.237	0.053
Mof_O 	O 	0.76785	0.4263	0.1287	-0.461
Mof_C 	C 	0.8819	0.4784	0.2247	0.096
Mof_H 	H 	0.8941	0.5043	0.1573	-0.032
Mof_C 	C 	0.9061	0.4933	0.3774	-0.03
Mof_H 	H 	0.8958	0.5102	0.4423	0.03
Mof_C 	C 	0.8543	0.4683	0.3073	-0.036
Mof_H 	H 	0.8295	0.4784	0.3523	0.043
Mof_C 	C 	0.9334	0.5035	0.2886	-0.133
Mof_H 	H 	0.9595	0.535	0.237	0.051
Mof_O 	O 	0.65845	0.23215	0.1287	-0.461
Mof_C 	C 	0.5965	0.1181	0.2247	0.097
Mof_H 	H 	0.6102	0.1059	0.1573	-0.032
Mof_C 	C 	0.5872	0.0939	0.3774	-0.03
Mof_H 	H 	0.6144	0.1042	0.4423	0.03
Mof_C 	C 	0.614	0.1457	0.3073	-0.036
Mof_H 	H 	0.6489	0.1705	0.3523	0.043
Mof_C 	C 	0.5701	0.0666	0.2886	-0.134
Mof_H 	H 	0.5755	0.0405	0.237	0.053
Mof_Ni	Ni	0.28992	0.57984	-0	1.074
Mof_Ni	Ni	0.42016	0.71008	-0	1.074
Mof_Ni	Ni	0.28992	0.71008	-0	1.074
Mof_Ni	Ni	0.71008	0.42016	-0	1.074
Mof_Ni	Ni	0.57984	0.28992	-0	1.074
Mof_Ni	Ni	0.71008	0.28992	-0	1.074
Mof_O 	O 	0.33333	0.66667	-0	-0.631
Mof_O 	O 	0.66667	0.33333	-0	-0.631
Mof_C 	C 	0.3938	0.6062	0.1562	0.413
Mof_C 	C 	0.42126	0.57874	0.2323	-0.168
Mof_C 	C 	0.47226	0.52774	0.3686	0.111
Mof_C 	C 	0.3938	0.7876	0.1562	0.413
Mof_C 	C 	0.42126	0.84252	0.2323	-0.167
Mof_C 	C 	0.47226	0.94452	0.3686	0.108
Mof_C 	C 	0.2124	0.6062	0.1562	0.413
Mof_C 	C 	0.15748	0.57874	0.2323	-0.167
Mof_C 	C 	0.05548	0.52774	0.3686	0.11
Mof_C 	C 	0.6062	0.3938	0.1562	0.413
Mof_C 	C 	0.57874	0.42126	0.2323	-0.168
Mof_C 	C 	0.52774	0.47226	0.3686	0.111
Mof_C 	C 	0.6062	0.2124	0.1562	0.413
Mof_C 	C 	0.57874	0.15748	0.2323	-0.167
Mof_C 	C 	0.52774	0.05548	0.3686	0.11
Mof_C 	C 	0.7876	0.3938	0.1562	0.413
Mof_C 	C 	0.84252	0.42126	0.2323	-0.167
Mof_C 	C 	0.94452	0.47226	0.3686	0.108
Mof_C 	C 	0.6062	0.3938	0.8438	0.403
Mof_C 	C 	0.57874	0.42126	0.7677	-0.125
Mof_C 	C 	0.52774	0.47226	0.6314	0.101
Mof_C 	C 	0.7876	0.3938	0.8438	0.403
Mof_C 	C 	0.84252	0.42126	0.7677	-0.125
Mof_C 	C 	0.94452	0.47226	0.6314	0.098
Mof_C 	C 	0.6062	0.2124	0.8438	0.403
Mof_C 	C 	0.57874	0.15748	0.7677	-0.125
Mof_C 	C 	0.52774	0.05548	0.6314	0.1
Mof_C 	C 	0.3938	0.6062	0.8438	0.403
Mof_C 	C 	0.42126	0.57874	0.7677	-0.125
Mof_C 	C 	0.47226	0.52774	0.6314	0.101
Mof_C 	C 	0.2124	0.6062	0.8438	0.403
Mof_C 	C 	0.15748	0.57874	0.7677	-0.125
Mof_C 	C 	0.05548	0.52774	0.6314	0.1
Mof_C 	C 	0.3938	0.7876	0.8438	0.403
Mof_C 	C 	0.42126	0.84252	0.7677	-0.125
Mof_C 	C 	0.47226	0.94452	0.6314	0.098
Mof_C 	C 	0.5	0.5	0.4405	-0.064
Mof_C 	C 	0.5	0	0.4405	-0.062
Mof_C 	C 	-2.31064e-17	0.5	0.4405	-0.062
Mof_C 	C 	0.5	0.5	0.5595	-0.054
Mof_C 	C 	-2.93486e-17	0.5	0.5595	-0.052
Mof_C 	C 	0.5	-7.52464e-33	0.5595	-0.052
_end
