data_functionalizedCrystal
_audit_creation_method	'EQeq! by Chris Wilmer'
_symmetry_space_group_name_H-M	'P1'
_symmetry_Int_Tables_number	1
_symmetry_cell_setting	triclinic
loop_
_symmetry_equiv_pos_as_xyz
  x,y,z
_cell_length_a	9.5387
_cell_length_b	10.425
_cell_length_c	11.59
_cell_angle_alpha	75.02
_cell_angle_beta	84.8
_cell_angle_gamma	80.99
loop_
_atom_site_label
_atom_site_type_symbol
_atom_site_fract_x
_atom_site_fract_y
_atom_site_fract_z
_atom_site_charge
Mof_Ca	Ca	0.45791	0.41304	0.36061	1.433
Mof_O 	O 	0.292	0.603	0.075	-0.471
Mof_O 	O 	0.2423	0.4842	0.26	-0.449
Mof_O 	O 	0.961	0.5196	0.21455	-0.135
Mof_O 	O 	0.7165	0.4387	0.34042	-0.384
Mof_O 	O 	0.5995	0.5057	0.17438	-0.534
Mof_O 	O 	0.473	0.7788	0.48232	-0.533
Mof_O 	O 	0.441	0.6249	0.3906	-0.51
Mof_O 	O 	0.4454	0.9723	0.29813	-0.194
Mof_O 	O 	0.4712	0.2136	0.29618	-0.514
Mof_O 	O 	0.4384	0.2897	0.09922	-0.491
Mof_C 	C 	0.2085	0.5541	0.1594	0.382
Mof_C 	C 	0.0557	0.5839	0.1328	-0.035
Mof_C 	C 	0.9884	0.66	0.0354	-0.133
Mof_H 	H 	0.0293	0.714	0.9681	0.132
Mof_C 	C 	0.8439	0.6416	0.0559	0.011
Mof_H 	H 	0.771	0.6812	0.0046	-0.007
Mof_C 	C 	0.8319	0.5557	0.1638	-0.034
Mof_C 	C 	0.7094	0.4953	0.2314	0.344
Mof_C 	C 	0.4476	0.7425	0.3917	0.426
Mof_C 	C 	0.4239	0.8508	0.2823	-0.073
Mof_C 	C 	0.3854	0.8669	0.1703	0.095
Mof_H 	H 	0.3644	0.8004	0.137	-0.008
Mof_C 	C 	0.3828	0.0052	0.1125	-0.17
Mof_H 	H 	0.3593	0.0463	0.0341	0.033
Mof_C 	C 	0.4208	0.0656	0.1924	-0.055
Mof_C 	C 	0.4454	0.2014	0.1948	0.383
Mof_Ca	Ca	0.54209	0.58696	0.63939	1.455
Mof_O 	O 	0.708	0.397	0.925	-0.404
Mof_O 	O 	0.7577	0.5158	0.74	-0.427
Mof_O 	O 	0.039	0.4804	0.78545	-0.193
Mof_O 	O 	0.2835	0.5613	0.65958	-0.377
Mof_O 	O 	0.4005	0.4943	0.82562	-0.493
Mof_O 	O 	0.527	0.2212	0.51768	-0.545
Mof_O 	O 	0.559	0.3751	0.6094	-0.501
Mof_O 	O 	0.5546	0.0277	0.70187	-0.338
Mof_O 	O 	0.5288	0.7864	0.70382	-0.466
Mof_O 	O 	0.5616	0.7103	0.90078	-0.397
Mof_C 	C 	0.7915	0.4459	0.8406	0.383
Mof_C 	C 	0.9443	0.4161	0.8672	0.022
Mof_C 	C 	0.0116	0.34	0.9646	0.074
Mof_H 	H 	0.9707	0.286	0.0319	-0.044
Mof_C 	C 	0.1561	0.3584	0.9441	-0.108
Mof_H 	H 	0.229	0.3188	0.9954	0.103
Mof_C 	C 	0.1681	0.4443	0.8362	0.04
Mof_C 	C 	0.2906	0.5047	0.7686	0.322
Mof_C 	C 	0.5524	0.2575	0.6083	0.385
Mof_C 	C 	0.5761	0.1492	0.7177	0.024
Mof_C 	C 	0.6146	0.1331	0.8297	-0.146
Mof_H 	H 	0.6356	0.1996	0.863	0.09
Mof_C 	C 	0.6172	0.9948	0.8875	0.066
Mof_H 	H 	0.6407	0.9537	0.9659	0.067
Mof_C 	C 	0.5792	0.9344	0.8076	0.065
Mof_C 	C 	0.5546	0.7986	0.8052	0.373
Mof_Ca	Ca	0.5	0	0.5	1.074
Mof_Ca	Ca	0.5	0.5	-0	1.387
_end
