data_functionalizedCrystal
_audit_creation_method	'EQeq! by Chris Wilmer'
_symmetry_space_group_name_H-M	'P1'
_symmetry_Int_Tables_number	1
_symmetry_cell_setting	triclinic
loop_
_symmetry_equiv_pos_as_xyz
  x,y,z
_cell_length_a	7.1497
_cell_length_b	9.5284
_cell_length_c	16.0211
_cell_angle_alpha	90
_cell_angle_beta	90
_cell_angle_gamma	90
loop_
_atom_site_label
_atom_site_type_symbol
_atom_site_fract_x
_atom_site_fract_y
_atom_site_fract_z
_atom_site_charge
Mof_Zn	Zn	0.23368	0.43528	0.96239	1.228
Mof_C 	C 	0.1711	0.5137	0.788	0.044
Mof_H 	H 	0.295	0.4852	0.7832	0.002
Mof_C 	C 	0.0833	0.5696	0.7193	-0.093
Mof_N 	N 	0.0849	0.4986	0.8617	-0.265
Mof_C 	C 	0.9006	0.5351	0.8677	0.056
Mof_H 	H 	0.8379	0.5224	0.918	-0.024
Mof_C 	C 	0.8995	0.6094	0.7267	0.025
Mof_H 	H 	0.8378	0.6495	0.6815	0.016
Mof_C 	C 	0.8068	0.5902	0.8006	-0.121
Mof_H 	H 	0.6812	0.6143	0.8053	0.06
Mof_C 	C 	0.1891	0.6019	0.6415	0.163
Mof_N 	N 	0.1701	0.5021	0.5755	-0.206
Mof_H 	H 	0.2497	0.5008	0.5353	-0.206
Mof_H 	H 	0.0789	0.4432	0.5761	0.075
Mof_C 	C 	0.331	0.6983	0.6441	-0.405
Mof_H 	H 	0.3583	0.7321	0.6972	0.176
Mof_C 	C 	0.4456	0.7559	0.5788	0.517
Mof_O 	O 	0.4265	0.7215	0.5054	-0.528
Mof_O 	O 	0.5674	0.8441	0.6029	-0.515
Mof_Zn	Zn	0.26632	0.56472	0.46239	1.227
Mof_C 	C 	0.3289	0.4863	0.288	0.042
Mof_H 	H 	0.205	0.5148	0.2832	0.002
Mof_C 	C 	0.4167	0.4304	0.2193	-0.091
Mof_N 	N 	0.4151	0.5014	0.3617	-0.263
Mof_C 	C 	0.5994	0.4649	0.3677	0.053
Mof_H 	H 	0.6621	0.4776	0.418	-0.023
Mof_C 	C 	0.6005	0.3906	0.2267	0.023
Mof_H 	H 	0.6622	0.3505	0.1815	0.017
Mof_C 	C 	0.6932	0.4098	0.3006	-0.119
Mof_H 	H 	0.8188	0.3857	0.3053	0.059
Mof_C 	C 	0.3109	0.3981	0.1415	0.162
Mof_N 	N 	0.3299	0.4979	0.0755	-0.206
Mof_H 	H 	0.2503	0.4992	0.0353	-0.205
Mof_H 	H 	0.4211	0.5568	0.0761	0.076
Mof_C 	C 	0.169	0.3017	0.1441	-0.405
Mof_H 	H 	0.1417	0.2679	0.1972	0.176
Mof_C 	C 	0.0544	0.2441	0.0788	0.518
Mof_O 	O 	0.0735	0.2785	0.0054	-0.528
Mof_O 	O 	0.9326	0.1559	0.1029	-0.516
Mof_Zn	Zn	0.76632	0.93528	0.53761	1.227
Mof_C 	C 	0.8289	0.0137	0.712	0.046
Mof_H 	H 	0.705	0.9852	0.7168	-0.001
Mof_C 	C 	0.9167	0.0696	0.7807	-0.089
Mof_N 	N 	0.9151	0.9986	0.6383	-0.265
Mof_C 	C 	0.0994	0.0351	0.6323	0.052
Mof_H 	H 	0.1621	0.0224	0.582	-0.022
Mof_C 	C 	0.1005	0.1094	0.7733	0.019
Mof_H 	H 	0.1622	0.1495	0.8185	0.018
Mof_C 	C 	0.1932	0.0902	0.6994	-0.117
Mof_H 	H 	0.3188	0.1143	0.6947	0.059
Mof_C 	C 	0.8109	0.1019	0.8585	0.162
Mof_N 	N 	0.8299	0.0021	0.9245	-0.203
Mof_H 	H 	0.7503	0.0008	0.9647	-0.205
Mof_H 	H 	0.9211	0.9432	0.9239	0.073
Mof_C 	C 	0.669	0.1983	0.8559	-0.404
Mof_H 	H 	0.6417	0.2321	0.8028	0.176
Mof_C 	C 	0.5544	0.2559	0.9212	0.517
Mof_O 	O 	0.5735	0.2215	0.9946	-0.528
Mof_O 	O 	0.4326	0.3441	0.8971	-0.515
Mof_Zn	Zn	0.73368	0.06472	0.03761	1.226
Mof_C 	C 	0.6711	0.9863	0.212	0.047
Mof_H 	H 	0.795	0.0148	0.2168	-0.001
Mof_C 	C 	0.5833	0.9304	0.2807	-0.094
Mof_N 	N 	0.5849	0.0014	0.1383	-0.266
Mof_C 	C 	0.4006	0.9649	0.1323	0.057
Mof_H 	H 	0.3379	0.9776	0.082	-0.022
Mof_C 	C 	0.3995	0.8906	0.2733	0.026
Mof_H 	H 	0.3378	0.8505	0.3185	0.016
Mof_C 	C 	0.3068	0.9098	0.1994	-0.121
Mof_H 	H 	0.1812	0.8857	0.1947	0.061
Mof_C 	C 	0.6891	0.8981	0.3585	0.163
Mof_N 	N 	0.6701	0.9979	0.4245	-0.206
Mof_H 	H 	0.7497	0.9992	0.4647	-0.206
Mof_H 	H 	0.5789	0.0568	0.4239	0.075
Mof_C 	C 	0.831	0.8017	0.3559	-0.404
Mof_H 	H 	0.8583	0.7679	0.3028	0.176
Mof_C 	C 	0.9456	0.7441	0.4212	0.516
Mof_O 	O 	0.9265	0.7785	0.4946	-0.528
Mof_O 	O 	0.0674	0.6559	0.3971	-0.513
_end
