data_functionalizedCrystal
_audit_creation_method	'EQeq! by Chris Wilmer'
_symmetry_space_group_name_H-M	'P1'
_symmetry_Int_Tables_number	1
_symmetry_cell_setting	triclinic
loop_
_symmetry_equiv_pos_as_xyz
  x,y,z
_cell_length_a	10.6412
_cell_length_b	10.6412
_cell_length_c	11.0154
_cell_angle_alpha	78.614
_cell_angle_beta	62.5347
_cell_angle_gamma	108.555
loop_
_atom_site_label
_atom_site_type_symbol
_atom_site_fract_x
_atom_site_fract_y
_atom_site_fract_z
_atom_site_charge
Mof_Pr	Pr	0.05028	0.86352	0.88008	2.232
Mof_Pr	Pr	0.7436	0.43036	0.61992	2.345
Mof_Pr	Pr	0.94972	0.13648	0.11992	2.232
Mof_Pr	Pr	0.2564	0.56964	0.38008	2.345
Mof_H 	H 	0.451	0.886	0.817	0.263
Mof_H 	H 	0.607	0.992	0.649	0.241
Mof_H 	H 	0.226	0.885	0.223	0.269
Mof_H 	H 	0.703	0.768	0.683	0.266
Mof_H 	H 	0.641	0.756	0.851	0.237
Mof_H 	H 	0.108	0.949	0.277	0.271
Mof_H 	H 	0.549	0.114	0.183	0.263
Mof_H 	H 	0.393	0.008	0.351	0.241
Mof_H 	H 	0.774	0.115	0.777	0.269
Mof_H 	H 	0.297	0.232	0.317	0.266
Mof_H 	H 	0.359	0.244	0.149	0.237
Mof_H 	H 	0.892	0.051	0.723	0.271
Mof_C 	C 	0.4042	0.8495	0.6683	0.635
Mof_C 	C 	0.4883	0.9459	0.7196	-0.854
Mof_C 	C 	0.453	0.069	0.742	0.735
Mof_C 	C 	0.1003	0.8739	0.1248	0.622
Mof_C 	C 	0.5178	0.5725	0.8317	0.639
Mof_C 	C 	0.6655	0.7079	0.7804	-0.845
Mof_C 	C 	0.811	0.695	0.758	0.725
Mof_C 	C 	0.9987	0.7251	0.3752	0.62
Mof_C 	C 	0.5958	0.1505	0.3317	0.635
Mof_C 	C 	0.5117	0.0541	0.2804	-0.854
Mof_C 	C 	0.547	0.931	0.258	0.735
Mof_C 	C 	0.8997	0.1261	0.8752	0.622
Mof_C 	C 	0.4822	0.4275	0.1683	0.639
Mof_C 	C 	0.3345	0.2921	0.2196	-0.845
Mof_C 	C 	0.189	0.305	0.242	0.725
Mof_C 	C 	0.0013	0.2749	0.6248	0.62
Mof_C 	C 	0.1251	0.8751	0.25	-0.873
Mof_C 	C 	0.8749	0.1249	0.75	-0.873
Mof_O 	O 	0.25667	0.80657	0.7263	-0.644
Mof_O 	O 	0.5673	0.1806	0.7143	-0.727
Mof_O 	O 	0.3157	0.0562	0.7899	-0.637
Mof_O 	O 	0.04111	0.94915	0.09116	-0.731
Mof_O 	O 	0.1337	0.79289	0.06101	-0.57
Mof_O 	O 	0.485	0.813	0.5722	-0.43
Mof_O 	O 	0.53287	0.48297	0.7737	-0.65
Mof_O 	O 	0.8949	0.7816	0.7857	-0.703
Mof_O 	O 	0.8461	0.6056	0.7101	-0.642
Mof_O 	O 	0.04031	0.63227	0.40884	-0.765
Mof_O 	O 	0.8539	0.69471	0.43899	-0.594
Mof_O 	O 	0.3852	0.5572	0.9278	-0.435
Mof_O 	O 	0.74333	0.19343	0.2737	-0.644
Mof_O 	O 	0.4327	0.8194	0.2857	-0.727
Mof_O 	O 	0.6843	0.9438	0.2101	-0.637
Mof_O 	O 	0.95889	0.05085	0.90884	-0.731
Mof_O 	O 	0.8663	0.20711	0.93899	-0.57
Mof_O 	O 	0.515	0.187	0.4278	-0.43
Mof_O 	O 	0.46713	0.51703	0.2263	-0.65
Mof_O 	O 	0.1051	0.2184	0.2143	-0.703
Mof_O 	O 	0.1539	0.3944	0.2899	-0.642
Mof_O 	O 	0.95969	0.36773	0.59116	-0.765
Mof_O 	O 	0.1461	0.30529	0.56101	-0.594
Mof_O 	O 	0.6148	0.4428	0.0722	-0.435
_end
