data_functionalizedCrystal
_audit_creation_method	'EQeq! by Chris Wilmer'
_symmetry_space_group_name_H-M	'P1'
_symmetry_Int_Tables_number	1
_symmetry_cell_setting	triclinic
loop_
_symmetry_equiv_pos_as_xyz
  x,y,z
_cell_length_a	12.7239
_cell_length_b	14.4992
_cell_length_c	23.3453
_cell_angle_alpha	99.7335
_cell_angle_beta	92.689
_cell_angle_gamma	97.4756
loop_
_atom_site_label
_atom_site_type_symbol
_atom_site_fract_x
_atom_site_fract_y
_atom_site_fract_z
_atom_site_charge
Mof_Co	Co	0.49547	0.69604	0.60705	1.172
Mof_Co	Co	0.94238	0.31543	0.0745	1.133
Mof_Co	Co	0.50453	0.30396	0.39295	1.172
Mof_Co	Co	0.05762	0.68457	0.9255	1.118
Mof_Co	Co	0.5	0.5	0.5	1.198
Mof_Co	Co	-0	0.5	-0	1.18
Mof_Si	Si	0.97454	0.77957	0.36607	0.84
Mof_Si	Si	0.60163	0.75575	0.1873	0.799
Mof_Si	Si	0.02546	0.22043	0.63393	0.683
Mof_Si	Si	0.39837	0.24425	0.8127	0.789
Mof_H 	H 	0.8686	0.6223	0.4131	-0.003
Mof_H 	H 	0.7309	0.5957	0.4722	0.082
Mof_H 	H 	0.6686	0.8637	0.475	0.08
Mof_H 	H 	0.805	0.8892	0.4136	-0.009
Mof_H 	H 	0.8313	0.6145	0.3049	-0.007
Mof_H 	H 	0.8315	0.5089	0.2182	0.072
Mof_H 	H 	0.0659	0.6826	0.1659	0.074
Mof_H 	H 	0.0747	0.7838	0.2554	-0.016
Mof_H 	H 	0.1619	0.6811	0.3391	-0.021
Mof_H 	H 	0.287	0.6213	0.3925	0.077
Mof_H 	H 	0.1642	0.7289	0.5417	0.097
Mof_H 	H 	0.0336	0.7802	0.4889	-0.015
Mof_H 	H 	0.94	0.9065	0.2827	-0.024
Mof_H 	H 	0.9748	0.0693	0.2837	0.077
Mof_H 	H 	0.1172	0.1074	0.4465	0.08
Mof_H 	H 	0.0824	0.9446	0.4456	-0.021
Mof_H 	H 	0.5423	0.7706	0.308	-0.008
Mof_H 	H 	0.5187	0.6721	0.3754	0.075
Mof_H 	H 	0.6091	0.4606	0.2614	0.073
Mof_H 	H 	0.6303	0.5591	0.1934	-0.015
Mof_H 	H 	0.6632	0.6037	0.1034	-0.02
Mof_H 	H 	0.7919	0.5858	0.0372	0.076
Mof_H 	H 	0.9225	0.8574	0.094	0.077
Mof_H 	H 	0.7982	0.8727	0.163	-0.02
Mof_H 	H 	0.3925	0.637	0.1811	-0.013
Mof_H 	H 	0.2492	0.5917	0.1137	0.068
Mof_H 	H 	0.3849	0.7635	0.0114	0.061
Mof_H 	H 	0.5309	0.8055	0.0775	-0.02
Mof_H 	H 	0.7405	0.8676	0.2826	-0.025
Mof_H 	H 	0.748	0.0119	0.3435	0.088
Mof_H 	H 	0.5052	0.0731	0.2461	0.074
Mof_H 	H 	0.4942	0.9255	0.1867	-0.021
Mof_H 	H 	0.1314	0.3777	0.5869	0
Mof_H 	H 	0.2691	0.4043	0.5278	0.074
Mof_H 	H 	0.3314	0.1363	0.525	0.074
Mof_H 	H 	0.195	0.1108	0.5864	-0.003
Mof_H 	H 	0.1687	0.3855	0.6951	0.003
Mof_H 	H 	0.1685	0.4911	0.7818	0.059
Mof_H 	H 	0.9341	0.3174	0.8341	0.064
Mof_H 	H 	0.9253	0.2162	0.7446	-0.005
Mof_H 	H 	0.8381	0.3189	0.6609	0.005
Mof_H 	H 	0.713	0.3787	0.6075	0.067
Mof_H 	H 	0.8358	0.2711	0.4583	0.09
Mof_H 	H 	0.9664	0.2198	0.5111	0.02
Mof_H 	H 	0.06	0.0935	0.7173	-0.004
Mof_H 	H 	0.0252	0.9307	0.7163	0.074
Mof_H 	H 	0.8828	0.8926	0.5535	0.081
Mof_H 	H 	0.9176	0.0554	0.5544	0.002
Mof_H 	H 	0.4577	0.2294	0.692	-0.006
Mof_H 	H 	0.4813	0.3279	0.6246	0.074
Mof_H 	H 	0.3909	0.5394	0.7386	0.073
Mof_H 	H 	0.3697	0.4409	0.8066	-0.012
Mof_H 	H 	0.3368	0.3963	0.8966	-0.007
Mof_H 	H 	0.2081	0.4142	0.9628	0.079
Mof_H 	H 	0.0775	0.1426	0.906	0.064
Mof_H 	H 	0.2018	0.1273	0.837	-0.012
Mof_H 	H 	0.6075	0.363	0.8189	-0.008
Mof_H 	H 	0.7508	0.4083	0.8863	0.071
Mof_H 	H 	0.6151	0.2365	0.9886	0.073
Mof_H 	H 	0.4691	0.1945	0.9225	-0.011
Mof_H 	H 	0.2595	0.1324	0.7174	-0.021
Mof_H 	H 	0.252	0.9881	0.6565	0.077
Mof_H 	H 	0.4948	0.9269	0.7539	0.077
Mof_H 	H 	0.5058	0.0745	0.8133	-0.015
Mof_C 	C 	0.8534	0.75929	0.40779	-0.283
Mof_C 	C 	0.8283	0.67171	0.42579	0.101
Mof_C 	C 	0.7471	0.65573	0.46112	-0.088
Mof_C 	C 	0.6882	0.72886	0.48067	-0.013
Mof_C 	C 	0.7097	0.8148	0.46254	-0.099
Mof_C 	C 	0.7913	0.83	0.42614	0.097
Mof_C 	C 	0.6084	0.7146	0.5237	0.308
Mof_C 	C 	0.9573	0.7084	0.29094	-0.274
Mof_C 	C 	0.8821	0.6274	0.27778	0.093
Mof_C 	C 	0.8809	0.5653	0.22552	-0.097
Mof_C 	C 	0.9502	0.5843	0.18419	-0.002
Mof_C 	C 	0.0203	0.667	0.19493	-0.122
Mof_C 	C 	0.0246	0.7278	0.24821	0.078
Mof_C 	C 	0.9513	0.5144	0.1285	0.353
Mof_C 	C 	0.0834	0.73703	0.40782	-0.306
Mof_C 	C 	0.1609	0.6898	0.38037	0.112
Mof_C 	C 	0.2364	0.6552	0.41226	-0.108
Mof_C 	C 	0.2395	0.66916	0.47252	-0
Mof_C 	C 	0.1629	0.7177	0.50035	-0.107
Mof_C 	C 	0.0862	0.7493	0.46901	0.112
Mof_C 	C 	0.3229	0.63421	0.50677	0.327
Mof_C 	C 	0.0079	0.91026	0.36407	-0.328
Mof_C 	C 	0.976	0.94729	0.31598	0.13
Mof_C 	C 	0.9966	0.04398	0.31654	-0.092
Mof_C 	C 	0.0492	0.10363	0.36519	-0.014
Mof_C 	C 	0.0812	0.0666	0.41328	-0.113
Mof_C 	C 	0.0605	0.9699	0.41272	0.109
Mof_C 	C 	0.0712	0.2061	0.3648	0.259
Mof_C 	C 	0.59085	0.67671	0.24315	-0.283
Mof_C 	C 	0.5566	0.7074	0.29817	0.09
Mof_C 	C 	0.5428	0.649	0.33849	-0.092
Mof_C 	C 	0.5638	0.5569	0.32585	-0.031
Mof_C 	C 	0.5959	0.5242	0.27111	-0.096
Mof_C 	C 	0.6087	0.5831	0.2308	0.093
Mof_C 	C 	0.5488	0.49322	0.36943	0.357
Mof_C 	C 	0.716	0.74104	0.14062	-0.294
Mof_C 	C 	0.7165	0.65551	0.10193	0.11
Mof_C 	C 	0.792	0.64493	0.06202	-0.123
Mof_C 	C 	0.8679	0.72016	0.05805	0.008
Mof_C 	C 	0.8698	0.8055	0.09614	-0.121
Mof_C 	C 	0.7952	0.8145	0.13681	0.113
Mof_C 	C 	0.9432	0.7112	0.011	0.239
Mof_C 	C 	0.4791	0.72642	0.13683	-0.289
Mof_C 	C 	0.3922	0.6626	0.14623	0.093
Mof_C 	C 	0.3065	0.6359	0.10623	-0.101
Mof_C 	C 	0.3023	0.67221	0.05569	-0.024
Mof_C 	C 	0.3868	0.7367	0.04577	-0.102
Mof_C 	C 	0.4732	0.7621	0.08547	0.097
Mof_C 	C 	0.2082	0.6419	0.01229	0.33
Mof_C 	C 	0.6147	0.87985	0.2283	-0.297
Mof_C 	C 	0.6909	0.9087	0.2755	0.112
Mof_C 	C 	0.6959	0.9941	0.31166	-0.125
Mof_C 	C 	0.6245	0.05394	0.30143	0.003
Mof_C 	C 	0.5517	0.03	0.25427	-0.116
Mof_C 	C 	0.5463	0.9425	0.21858	0.109
Mof_C 	C 	0.6204	0.1437	0.34271	0.309
Mof_C 	C 	0.1466	0.24071	0.59221	-0.243
Mof_C 	C 	0.1717	0.32829	0.57421	0.071
Mof_C 	C 	0.2529	0.34427	0.53888	-0.072
Mof_C 	C 	0.3118	0.27114	0.51933	-0.027
Mof_C 	C 	0.2903	0.1852	0.53746	-0.081
Mof_C 	C 	0.2087	0.17	0.57386	0.067
Mof_C 	C 	0.3916	0.2854	0.4763	0.313
Mof_C 	C 	0.0427	0.2916	0.70906	-0.268
Mof_C 	C 	0.1179	0.3726	0.72222	0.06
Mof_C 	C 	0.1191	0.4347	0.77448	-0.063
Mof_C 	C 	0.0498	0.4157	0.81581	-0.075
Mof_C 	C 	0.9797	0.333	0.80507	-0.042
Mof_C 	C 	0.9754	0.2722	0.75179	0.088
Mof_C 	C 	0.0487	0.4856	0.8715	0.373
Mof_C 	C 	0.9166	0.26297	0.59218	-0.216
Mof_C 	C 	0.8391	0.3102	0.61963	0.063
Mof_C 	C 	0.7636	0.3448	0.58774	-0.07
Mof_C 	C 	0.7605	0.33084	0.52748	-0.024
Mof_C 	C 	0.8371	0.2823	0.49965	-0.066
Mof_C 	C 	0.9138	0.2507	0.53099	0.062
Mof_C 	C 	0.6771	0.36579	0.49323	0.338
Mof_C 	C 	0.9921	0.08974	0.63593	-0.207
Mof_C 	C 	0.024	0.05271	0.68402	0.049
Mof_C 	C 	0.0034	0.95602	0.68346	-0.124
Mof_C 	C 	0.9508	0.89637	0.63481	0.028
Mof_C 	C 	0.9188	0.9334	0.58672	-0.1
Mof_C 	C 	0.9395	0.0301	0.58728	0.071
Mof_C 	C 	0.9288	0.7939	0.6352	0.251
Mof_C 	C 	0.40915	0.32329	0.75685	-0.279
Mof_C 	C 	0.4434	0.2926	0.70183	0.087
Mof_C 	C 	0.4572	0.351	0.66151	-0.089
Mof_C 	C 	0.4362	0.4431	0.67415	-0.032
Mof_C 	C 	0.4041	0.4758	0.72889	-0.093
Mof_C 	C 	0.3913	0.4169	0.7692	0.091
Mof_C 	C 	0.4512	0.50678	0.63057	0.358
Mof_C 	C 	0.284	0.25896	0.85938	-0.275
Mof_C 	C 	0.2835	0.34449	0.89807	0.087
Mof_C 	C 	0.208	0.35507	0.93798	-0.083
Mof_C 	C 	0.1321	0.27984	0.94195	-0.046
Mof_C 	C 	0.1302	0.1945	0.90386	-0.082
Mof_C 	C 	0.2048	0.1855	0.86319	0.086
Mof_C 	C 	0.0568	0.2888	0.989	0.378
Mof_C 	C 	0.5209	0.27358	0.86317	-0.278
Mof_C 	C 	0.6078	0.3374	0.85377	0.087
Mof_C 	C 	0.6935	0.3641	0.89377	-0.084
Mof_C 	C 	0.6977	0.32779	0.94431	-0.035
Mof_C 	C 	0.6132	0.2633	0.95423	-0.083
Mof_C 	C 	0.5268	0.2379	0.91453	0.091
Mof_C 	C 	0.7918	0.3581	0.98771	0.399
Mof_C 	C 	0.3853	0.12015	0.7717	-0.29
Mof_C 	C 	0.3091	0.0913	0.7245	0.101
Mof_C 	C 	0.3041	0.0059	0.68834	-0.107
Mof_C 	C 	0.3755	0.94606	0.69857	-0.007
Mof_C 	C 	0.4483	0.97	0.74573	-0.113
Mof_C 	C 	0.4537	0.0575	0.78142	0.108
Mof_C 	C 	0.3796	0.8563	0.65729	0.311
Mof_O 	O 	0.58312	0.63328	0.53724	-0.499
Mof_O 	O 	0.56922	0.78335	0.55031	-0.372
Mof_O 	O 	0.91005	0.43101	0.12852	-0.46
Mof_O 	O 	0.99576	0.54464	0.08774	-0.422
Mof_O 	O 	0.35705	0.55947	0.48612	-0.388
Mof_O 	O 	0.35575	0.68514	0.55612	-0.378
Mof_O 	O 	0.0462	0.2373	0.31985	-0.244
Mof_O 	O 	0.116	0.2593	0.41112	-0.227
Mof_O 	O 	0.52626	0.5282	0.41948	-0.435
Mof_O 	O 	0.5586	0.40791	0.35267	-0.444
Mof_O 	O 	0.95422	0.62963	0.98368	-0.459
Mof_O 	O 	0.9907	0.78229	0.99493	-0.334
Mof_O 	O 	0.15702	0.56248	0.01278	-0.431
Mof_O 	O 	0.18938	0.69847	0.97946	-0.423
Mof_O 	O 	0.6882	0.15914	0.38808	-0.231
Mof_O 	O 	0.55696	0.19677	0.33467	-0.4
Mof_O 	O 	0.41688	0.36672	0.46276	-0.501
Mof_O 	O 	0.43078	0.21665	0.44969	-0.374
Mof_O 	O 	0.08995	0.56899	0.87148	-0.469
Mof_O 	O 	0.00424	0.45536	0.91226	-0.44
Mof_O 	O 	0.64295	0.44053	0.51388	-0.389
Mof_O 	O 	0.64425	0.31486	0.44388	-0.379
Mof_O 	O 	0.9538	0.7627	0.68015	-0.219
Mof_O 	O 	0.884	0.7407	0.58888	-0.214
Mof_O 	O 	0.47374	0.4718	0.58052	-0.434
Mof_O 	O 	0.4414	0.59209	0.64733	-0.444
Mof_O 	O 	0.04578	0.37037	0.01632	-0.556
Mof_O 	O 	0.0093	0.21771	0.00507	-0.434
Mof_O 	O 	0.84298	0.43752	0.98722	-0.413
Mof_O 	O 	0.81062	0.30153	0.02054	-0.471
Mof_O 	O 	0.3118	0.84086	0.61192	-0.236
Mof_O 	O 	0.44304	0.80323	0.66533	-0.4
_end
