data_functionalizedCrystal
_audit_creation_method	'EQeq! by Chris Wilmer'
_symmetry_space_group_name_H-M	'P1'
_symmetry_Int_Tables_number	1
_symmetry_cell_setting	triclinic
loop_
_symmetry_equiv_pos_as_xyz
  x,y,z
_cell_length_a	9.9292
_cell_length_b	11.3834
_cell_length_c	14.4324
_cell_angle_alpha	91.25
_cell_angle_beta	90
_cell_angle_gamma	90
loop_
_atom_site_label
_atom_site_type_symbol
_atom_site_fract_x
_atom_site_fract_y
_atom_site_fract_z
_atom_site_charge
Mof_Co	Co	0.92079	0.75477	0.63339	1.241
Mof_Co	Co	0.61236	0.76069	0.68972	1.206
Mof_Co	Co	0.42079	0.74523	0.86661	1.2
Mof_Co	Co	0.11236	0.73931	0.81028	1.185
Mof_Co	Co	0.07921	0.24523	0.36661	1.145
Mof_Co	Co	0.38764	0.23931	0.31028	1.197
Mof_Co	Co	0.57921	0.25477	0.13339	1.185
Mof_Co	Co	0.88764	0.26069	0.18972	1.217
Mof_Co	Co	9.67406e-34	0.5	0.5	1.161
Mof_Co	Co	0.5	0	-0	1.126
Mof_Co	Co	9.67406e-34	0	0.5	1.134
Mof_Co	Co	0.5	0.5	-0	1.163
Mof_H 	H 	0.6184	0.5614	0.5375	-0.082
Mof_H 	H 	0.2121	0.9667	0.7257	-0.125
Mof_H 	H 	0.7556	0.8419	0.8745	-0.063
Mof_H 	H 	0.961	0.5243	0.2326	-0.11
Mof_H 	H 	0.7135	0.005	0.5206	-0.151
Mof_H 	H 	0.1567	0.696	0.4267	-0.1
Mof_H 	H 	0.1184	0.9386	0.9625	-0.117
Mof_H 	H 	0.7121	0.5333	0.7743	-0.078
Mof_H 	H 	0.2556	0.6581	0.6255	-0.098
Mof_H 	H 	0.461	0.9757	0.2674	0.041
Mof_H 	H 	0.2135	0.495	0.9794	-0.056
Mof_H 	H 	0.6567	0.804	0.0733	-0.043
Mof_H 	H 	0.3816	0.4386	0.4625	-0.086
Mof_H 	H 	0.7879	0.0333	0.2743	-0.079
Mof_H 	H 	0.2444	0.1581	0.1255	-0.131
Mof_H 	H 	0.039	0.4757	0.7674	-0.049
Mof_H 	H 	0.2865	0.995	0.4794	0.009
Mof_H 	H 	0.8433	0.304	0.5733	-0.085
Mof_H 	H 	0.8816	0.0614	0.0375	-0.043
Mof_H 	H 	0.2879	0.4667	0.2257	-0.124
Mof_H 	H 	0.7444	0.3419	0.3745	-0.093
Mof_H 	H 	0.539	0.0243	0.7326	-0.18
Mof_H 	H 	0.7865	0.505	0.0206	-0.095
Mof_H 	H 	0.3433	0.196	0.9267	-0.147
Mof_C 	C 	0.71315	0.57787	0.54659	0.457
Mof_C 	C 	0.14127	0.94519	0.68199	0.585
Mof_C 	C 	0.82832	0.81731	0.83439	0.45
Mof_C 	C 	0.98465	0.48263	0.28882	0.632
Mof_C 	C 	0.727	0.93782	0.55971	0.558
Mof_C 	C 	0.10027	0.74107	0.46598	0.479
Mof_C 	C 	0.21315	0.92213	0.95341	0.613
Mof_C 	C 	0.64127	0.55481	0.81801	0.456
Mof_C 	C 	0.32832	0.68269	0.66561	0.459
Mof_C 	C 	0.48465	0.01737	0.21118	0.209
Mof_C 	C 	0.227	0.56218	0.94029	0.447
Mof_C 	C 	0.60027	0.75893	0.03402	0.297
Mof_C 	C 	0.28685	0.42213	0.45341	0.461
Mof_C 	C 	0.85873	0.05481	0.31801	0.349
Mof_C 	C 	0.17168	0.18269	0.16561	0.468
Mof_C 	C 	0.01535	0.51737	0.71118	0.279
Mof_C 	C 	0.273	0.06218	0.44029	0.325
Mof_C 	C 	0.89973	0.25893	0.53402	0.465
Mof_C 	C 	0.78685	0.07787	0.04659	0.264
Mof_C 	C 	0.35873	0.44519	0.18199	0.477
Mof_C 	C 	0.67168	0.31731	0.33439	0.458
Mof_C 	C 	0.51535	0.98263	0.78882	0.66
Mof_C 	C 	0.773	0.43782	0.05971	0.448
Mof_C 	C 	0.39973	0.24107	0.96598	0.669
Mof_O 	O 	0.74361	0.65726	0.60745	-0.529
Mof_O 	O 	0.79361	0.52141	0.49767	-0.392
Mof_O 	O 	0.08101	0.84815	0.69652	-0.612
Mof_O 	O 	0.12041	0.01103	0.61665	-0.542
Mof_O 	O 	0.93986	0.80293	0.87131	-0.331
Mof_O 	O 	0.80146	0.80416	0.74808	-0.515
Mof_O 	O 	0.99363	0.37098	0.28183	-0.543
Mof_O 	O 	0.00174	0.54271	0.35996	-0.554
Mof_O 	O 	0.62675	0.89506	0.5979	-0.43
Mof_O 	O 	0.84835	0.90135	0.5657	-0.508
Mof_O 	O 	0.10352	0.84909	0.45843	-0.437
Mof_O 	O 	0.02564	0.68478	0.52269	-0.588
Mof_O 	O 	0.24361	0.84274	0.89255	-0.576
Mof_O 	O 	0.29361	0.97859	0.00233	-0.513
Mof_O 	O 	0.58101	0.65185	0.80348	-0.537
Mof_O 	O 	0.62041	0.48897	0.88335	-0.371
Mof_O 	O 	0.43986	0.69707	0.62869	-0.422
Mof_O 	O 	0.30146	0.69584	0.75192	-0.544
Mof_O 	O 	0.49363	0.12902	0.21817	-0.497
Mof_O 	O 	0.50174	0.95729	0.14004	-0.311
Mof_O 	O 	0.12675	0.60494	0.9021	-0.431
Mof_O 	O 	0.34835	0.59865	0.9343	-0.508
Mof_O 	O 	0.60352	0.65091	0.04157	-0.412
Mof_O 	O 	0.52564	0.81522	0.97731	-0.41
Mof_O 	O 	0.25639	0.34274	0.39255	-0.56
Mof_O 	O 	0.20639	0.47859	0.50233	-0.445
Mof_O 	O 	0.91899	0.15185	0.30348	-0.487
Mof_O 	O 	0.87959	0.98897	0.38335	-0.293
Mof_O 	O 	0.06014	0.19707	0.12869	-0.523
Mof_O 	O 	0.19854	0.19584	0.25192	-0.579
Mof_O 	O 	0.00637	0.62902	0.71817	-0.55
Mof_O 	O 	0.99826	0.45729	0.64004	-0.273
Mof_O 	O 	0.37325	0.10494	0.4021	-0.413
Mof_O 	O 	0.15165	0.09865	0.4343	-0.555
Mof_O 	O 	0.89648	0.15091	0.54157	-0.399
Mof_O 	O 	0.97436	0.31522	0.47731	-0.486
Mof_O 	O 	0.75639	0.15726	0.10745	-0.505
Mof_O 	O 	0.70639	0.02141	0.99767	-0.282
Mof_O 	O 	0.41899	0.34815	0.19652	-0.565
Mof_O 	O 	0.37959	0.51103	0.11665	-0.469
Mof_O 	O 	0.56014	0.30293	0.37131	-0.429
Mof_O 	O 	0.69854	0.30416	0.24808	-0.549
Mof_O 	O 	0.50637	0.87098	0.78183	-0.586
Mof_O 	O 	0.49826	0.04271	0.85996	-0.488
Mof_O 	O 	0.87325	0.39506	0.0979	-0.414
Mof_O 	O 	0.65165	0.40135	0.0657	-0.564
Mof_O 	O 	0.39648	0.34909	0.95843	-0.44
Mof_O 	O 	0.47436	0.18478	0.02269	-0.673
_end
