data_functionalizedCrystal
_audit_creation_method	'EQeq! by Chris Wilmer'
_symmetry_space_group_name_H-M	'P1'
_symmetry_Int_Tables_number	1
_symmetry_cell_setting	triclinic
loop_
_symmetry_equiv_pos_as_xyz
  x,y,z
_cell_length_a	25.4866
_cell_length_b	25.4866
_cell_length_c	25.4866
_cell_angle_alpha	60
_cell_angle_beta	60
_cell_angle_gamma	60
loop_
_atom_site_label
_atom_site_type_symbol
_atom_site_fract_x
_atom_site_fract_y
_atom_site_fract_z
_atom_site_charge
Mof_In	In	0.25	0.25	0.98604	2.099
Mof_In	In	0.75	0.75	0.51396	2.107
Mof_In	In	0.48604	0.51396	0.75	2.107
Mof_In	In	0.01396	0.98604	0.25	2.094
Mof_In	In	0.25	0.98604	0.51396	2.1
Mof_In	In	0.75	0.51396	0.98604	2.115
Mof_In	In	0.48604	0.75	0.25	2.107
Mof_In	In	0.01396	0.25	0.75	2.106
Mof_In	In	0.25	0.51396	0.25	2.107
Mof_In	In	0.75	0.98604	0.75	2.117
Mof_In	In	0.48604	0.25	0.51396	2.108
Mof_In	In	0.01396	0.75	0.98604	2.084
Mof_In	In	0.75	0.75	0.01396	2.1
Mof_In	In	0.25	0.25	0.48604	2.108
Mof_In	In	0.51396	0.48604	0.25	2.108
Mof_In	In	0.98604	0.01396	0.75	2.095
Mof_In	In	0.75	0.01396	0.48604	2.101
Mof_In	In	0.25	0.48604	0.01396	2.116
Mof_In	In	0.51396	0.25	0.75	2.108
Mof_In	In	0.98604	0.75	0.25	2.107
Mof_In	In	0.75	0.48604	0.75	2.108
Mof_In	In	0.25	0.01396	0.25	2.118
Mof_In	In	0.51396	0.75	0.48604	2.108
Mof_In	In	0.98604	0.25	0.01396	2.084
Mof_H 	H 	0.1428	0.2546	0.9454	-0.021
Mof_H 	H 	0.7546	0.6428	0.6572	-0.025
Mof_H 	H 	0.4454	0.6572	0.6428	-0.025
Mof_H 	H 	0.1572	0.9454	0.2546	-0.022
Mof_H 	H 	0.1428	0.9454	0.6572	-0.022
Mof_H 	H 	0.7546	0.6572	0.9454	-0.027
Mof_H 	H 	0.4454	0.6428	0.2546	-0.025
Mof_H 	H 	0.1572	0.2546	0.6428	-0.025
Mof_H 	H 	0.1428	0.6572	0.2546	-0.025
Mof_H 	H 	0.7546	0.9454	0.6428	-0.027
Mof_H 	H 	0.4454	0.2546	0.6572	-0.025
Mof_H 	H 	0.1572	0.6428	0.9454	-0.023
Mof_H 	H 	0.7454	0.8572	0.5546	-0.025
Mof_H 	H 	0.3572	0.2454	0.8428	-0.025
Mof_H 	H 	0.3428	0.5546	0.8572	-0.026
Mof_H 	H 	0.0546	0.8428	0.2454	-0.024
Mof_H 	H 	0.0546	0.8572	0.8428	-0.019
Mof_H 	H 	0.3428	0.2454	0.5546	-0.025
Mof_H 	H 	0.3572	0.5546	0.2454	-0.025
Mof_H 	H 	0.7454	0.8428	0.8572	-0.025
Mof_H 	H 	0.3428	0.8572	0.2454	-0.026
Mof_H 	H 	0.0546	0.2454	0.8572	-0.024
Mof_H 	H 	0.7454	0.5546	0.8428	-0.025
Mof_H 	H 	0.3572	0.8428	0.5546	-0.025
Mof_H 	H 	0.8572	0.7454	0.0546	-0.021
Mof_H 	H 	0.2454	0.3572	0.3428	-0.025
Mof_H 	H 	0.5546	0.3428	0.3572	-0.025
Mof_H 	H 	0.8428	0.0546	0.7454	-0.022
Mof_H 	H 	0.8572	0.0546	0.3428	-0.022
Mof_H 	H 	0.2454	0.3428	0.0546	-0.027
Mof_H 	H 	0.5546	0.3572	0.7454	-0.025
Mof_H 	H 	0.8428	0.7454	0.3572	-0.025
Mof_H 	H 	0.8572	0.3428	0.7454	-0.025
Mof_H 	H 	0.2454	0.0546	0.3572	-0.027
Mof_H 	H 	0.5546	0.7454	0.3428	-0.025
Mof_H 	H 	0.8428	0.3572	0.0546	-0.023
Mof_H 	H 	0.2546	0.1428	0.4454	-0.025
Mof_H 	H 	0.6428	0.7546	0.1572	-0.025
Mof_H 	H 	0.6572	0.4454	0.1428	-0.026
Mof_H 	H 	0.9454	0.1572	0.7546	-0.024
Mof_H 	H 	0.9454	0.1428	0.1572	-0.019
Mof_H 	H 	0.6572	0.7546	0.4454	-0.025
Mof_H 	H 	0.6428	0.4454	0.7546	-0.025
Mof_H 	H 	0.2546	0.1572	0.1428	-0.025
Mof_H 	H 	0.6572	0.1428	0.7546	-0.026
Mof_H 	H 	0.9454	0.7546	0.1428	-0.024
Mof_H 	H 	0.2546	0.4454	0.1572	-0.025
Mof_H 	H 	0.6428	0.1572	0.4454	-0.025
Mof_C 	C 	0.1	0.271	0.0732	0.02
Mof_C 	C 	0.1152	0.2772	0.1194	0.248
Mof_C 	C 	0.1212	0.26	0.9854	0.175
Mof_C 	C 	0.0461	0.2699	0.0747	-0.037
Mof_C 	C 	0.9783	0.2761	0.1223	0.324
Mof_C 	C 	0.771	0.6	0.5558	0.021
Mof_C 	C 	0.7772	0.6152	0.4882	0.246
Mof_C 	C 	0.76	0.6212	0.6334	0.187
Mof_C 	C 	0.7699	0.5461	0.6093	-0.045
Mof_C 	C 	0.7761	0.4783	0.6233	0.332
Mof_C 	C 	0.5732	0.5558	0.6	0.021
Mof_C 	C 	0.6194	0.4882	0.6152	0.246
Mof_C 	C 	0.4854	0.6334	0.6212	0.187
Mof_C 	C 	0.5747	0.6093	0.5461	-0.045
Mof_C 	C 	0.6223	0.6233	0.4783	0.332
Mof_C 	C 	0.0558	0.0732	0.271	0.029
Mof_C 	C 	0.9882	0.1194	0.2772	0.239
Mof_C 	C 	0.1334	0.9854	0.26	0.176
Mof_C 	C 	0.1093	0.0747	0.2699	-0.047
Mof_C 	C 	0.1233	0.1223	0.2761	0.333
Mof_C 	C 	0.1	0.0732	0.5558	0.021
Mof_C 	C 	0.1152	0.1194	0.4882	0.247
Mof_C 	C 	0.1212	0.9854	0.6334	0.177
Mof_C 	C 	0.0461	0.0747	0.6093	-0.042
Mof_C 	C 	0.9783	0.1223	0.6233	0.328
Mof_C 	C 	0.771	0.5558	0.0732	0.02
Mof_C 	C 	0.7772	0.4882	0.1194	0.246
Mof_C 	C 	0.76	0.6334	0.9854	0.194
Mof_C 	C 	0.7699	0.6093	0.0747	-0.045
Mof_C 	C 	0.7761	0.6233	0.1223	0.331
Mof_C 	C 	0.5732	0.6	0.271	0.021
Mof_C 	C 	0.6194	0.6152	0.2772	0.246
Mof_C 	C 	0.4854	0.6212	0.26	0.187
Mof_C 	C 	0.5747	0.5461	0.2699	-0.045
Mof_C 	C 	0.6223	0.4783	0.2761	0.332
Mof_C 	C 	0.0558	0.271	0.6	0.022
Mof_C 	C 	0.9882	0.2772	0.6152	0.245
Mof_C 	C 	0.1334	0.26	0.6212	0.187
Mof_C 	C 	0.1093	0.2699	0.5461	-0.045
Mof_C 	C 	0.1233	0.2761	0.4783	0.332
Mof_C 	C 	0.1	0.5558	0.271	0.021
Mof_C 	C 	0.1152	0.4882	0.2772	0.246
Mof_C 	C 	0.1212	0.6334	0.26	0.187
Mof_C 	C 	0.0461	0.6093	0.2699	-0.044
Mof_C 	C 	0.9783	0.6233	0.2761	0.331
Mof_C 	C 	0.771	0.0732	0.6	0.02
Mof_C 	C 	0.7772	0.1194	0.6152	0.246
Mof_C 	C 	0.76	0.9854	0.6212	0.194
Mof_C 	C 	0.7699	0.0747	0.5461	-0.045
Mof_C 	C 	0.7761	0.1223	0.4783	0.331
Mof_C 	C 	0.5732	0.271	0.5558	0.021
Mof_C 	C 	0.6194	0.2772	0.4882	0.246
Mof_C 	C 	0.4854	0.26	0.6334	0.187
Mof_C 	C 	0.5747	0.2699	0.6093	-0.045
Mof_C 	C 	0.6223	0.2761	0.6233	0.332
Mof_C 	C 	0.0558	0.6	0.0732	0.025
Mof_C 	C 	0.9882	0.6152	0.1194	0.243
Mof_C 	C 	0.1334	0.6212	0.9854	0.178
Mof_C 	C 	0.1093	0.5461	0.0747	-0.046
Mof_C 	C 	0.1233	0.4783	0.1223	0.332
Mof_C 	C 	0.729	0.9	0.4268	0.02
Mof_C 	C 	0.7228	0.8848	0.3806	0.247
Mof_C 	C 	0.74	0.8788	0.5146	0.187
Mof_C 	C 	0.7301	0.9539	0.4253	-0.042
Mof_C 	C 	0.7239	0.0217	0.3777	0.329
Mof_C 	C 	0.4	0.229	0.9442	0.019
Mof_C 	C 	0.3848	0.2228	0.0118	0.249
Mof_C 	C 	0.3788	0.24	0.8666	0.187
Mof_C 	C 	0.4539	0.2301	0.8907	-0.045
Mof_C 	C 	0.5217	0.2239	0.8767	0.331
Mof_C 	C 	0.4442	0.4268	0.9	0.021
Mof_C 	C 	0.5118	0.3806	0.8848	0.246
Mof_C 	C 	0.3666	0.5146	0.8788	0.187
Mof_C 	C 	0.3907	0.4253	0.9539	-0.047
Mof_C 	C 	0.3767	0.3777	0.0217	0.334
Mof_C 	C 	0.9268	0.9442	0.229	0.025
Mof_C 	C 	0.8806	0.0118	0.2228	0.242
Mof_C 	C 	0.0146	0.8666	0.24	0.184
Mof_C 	C 	0.9253	0.8907	0.2301	-0.046
Mof_C 	C 	0.8777	0.8767	0.2239	0.332
Mof_C 	C 	0.9268	0.9	0.9442	0.027
Mof_C 	C 	0.8806	0.8848	0.0118	0.241
Mof_C 	C 	0.0146	0.8788	0.8666	0.167
Mof_C 	C 	0.9253	0.9539	0.8907	-0.04
Mof_C 	C 	0.8777	0.0217	0.8767	0.327
Mof_C 	C 	0.4442	0.229	0.4268	0.021
Mof_C 	C 	0.5118	0.2228	0.3806	0.246
Mof_C 	C 	0.3666	0.24	0.5146	0.187
Mof_C 	C 	0.3907	0.2301	0.4253	-0.045
Mof_C 	C 	0.3767	0.2239	0.3777	0.332
Mof_C 	C 	0.4	0.4268	0.229	0.021
Mof_C 	C 	0.3848	0.3806	0.2228	0.246
Mof_C 	C 	0.3788	0.5146	0.24	0.187
Mof_C 	C 	0.4539	0.4253	0.2301	-0.045
Mof_C 	C 	0.5217	0.3777	0.2239	0.332
Mof_C 	C 	0.729	0.9442	0.9	0.024
Mof_C 	C 	0.7228	0.0118	0.8848	0.243
Mof_C 	C 	0.74	0.8666	0.8788	0.187
Mof_C 	C 	0.7301	0.8907	0.9539	-0.042
Mof_C 	C 	0.7239	0.8767	0.0217	0.328
Mof_C 	C 	0.4442	0.9	0.229	0.021
Mof_C 	C 	0.5118	0.8848	0.2228	0.246
Mof_C 	C 	0.3666	0.8788	0.24	0.187
Mof_C 	C 	0.3907	0.9539	0.2301	-0.048
Mof_C 	C 	0.3767	0.0217	0.2239	0.334
Mof_C 	C 	0.9268	0.229	0.9	0.02
Mof_C 	C 	0.8806	0.2228	0.8848	0.247
Mof_C 	C 	0.0146	0.24	0.8788	0.183
Mof_C 	C 	0.9253	0.2301	0.9539	-0.041
Mof_C 	C 	0.8777	0.2239	0.0217	0.327
Mof_C 	C 	0.729	0.4268	0.9442	0.023
Mof_C 	C 	0.7228	0.3806	0.0118	0.244
Mof_C 	C 	0.74	0.5146	0.8666	0.187
Mof_C 	C 	0.7301	0.4253	0.8907	-0.046
Mof_C 	C 	0.7239	0.3777	0.8767	0.332
Mof_C 	C 	0.4	0.9442	0.4268	0.019
Mof_C 	C 	0.3848	0.0118	0.3806	0.248
Mof_C 	C 	0.3788	0.8666	0.5146	0.187
Mof_C 	C 	0.4539	0.8907	0.4253	-0.045
Mof_C 	C 	0.5217	0.8767	0.3777	0.331
Mof_C 	C 	0.9	0.729	0.9268	0.02
Mof_C 	C 	0.8848	0.7228	0.8806	0.248
Mof_C 	C 	0.8788	0.74	0.0146	0.175
Mof_C 	C 	0.9539	0.7301	0.9253	-0.037
Mof_C 	C 	0.0217	0.7239	0.8777	0.324
Mof_C 	C 	0.229	0.4	0.4442	0.021
Mof_C 	C 	0.2228	0.3848	0.5118	0.246
Mof_C 	C 	0.24	0.3788	0.3666	0.187
Mof_C 	C 	0.2301	0.4539	0.3907	-0.045
Mof_C 	C 	0.2239	0.5217	0.3767	0.332
Mof_C 	C 	0.4268	0.4442	0.4	0.021
Mof_C 	C 	0.3806	0.5118	0.3848	0.246
Mof_C 	C 	0.5146	0.3666	0.3788	0.187
Mof_C 	C 	0.4253	0.3907	0.4539	-0.045
Mof_C 	C 	0.3777	0.3767	0.5217	0.332
Mof_C 	C 	0.9442	0.9268	0.729	0.029
Mof_C 	C 	0.0118	0.8806	0.7228	0.239
Mof_C 	C 	0.8666	0.0146	0.74	0.176
Mof_C 	C 	0.8907	0.9253	0.7301	-0.047
Mof_C 	C 	0.8767	0.8777	0.7239	0.333
Mof_C 	C 	0.9	0.9268	0.4442	0.021
Mof_C 	C 	0.8848	0.8806	0.5118	0.247
Mof_C 	C 	0.8788	0.0146	0.3666	0.177
Mof_C 	C 	0.9539	0.9253	0.3907	-0.042
Mof_C 	C 	0.0217	0.8777	0.3767	0.328
Mof_C 	C 	0.229	0.4442	0.9268	0.02
Mof_C 	C 	0.2228	0.5118	0.8806	0.246
Mof_C 	C 	0.24	0.3666	0.0146	0.194
Mof_C 	C 	0.2301	0.3907	0.9253	-0.045
Mof_C 	C 	0.2239	0.3767	0.8777	0.331
Mof_C 	C 	0.4268	0.4	0.729	0.021
Mof_C 	C 	0.3806	0.3848	0.7228	0.246
Mof_C 	C 	0.5146	0.3788	0.74	0.187
Mof_C 	C 	0.4253	0.4539	0.7301	-0.045
Mof_C 	C 	0.3777	0.5217	0.7239	0.332
Mof_C 	C 	0.9442	0.729	0.4	0.022
Mof_C 	C 	0.0118	0.7228	0.3848	0.245
Mof_C 	C 	0.8666	0.74	0.3788	0.187
Mof_C 	C 	0.8907	0.7301	0.4539	-0.045
Mof_C 	C 	0.8767	0.7239	0.5217	0.332
Mof_C 	C 	0.9	0.4442	0.729	0.021
Mof_C 	C 	0.8848	0.5118	0.7228	0.246
Mof_C 	C 	0.8788	0.3666	0.74	0.187
Mof_C 	C 	0.9539	0.3907	0.7301	-0.044
Mof_C 	C 	0.0217	0.3767	0.7239	0.331
Mof_C 	C 	0.229	0.9268	0.4	0.02
Mof_C 	C 	0.2228	0.8806	0.3848	0.246
Mof_C 	C 	0.24	0.0146	0.3788	0.194
Mof_C 	C 	0.2301	0.9253	0.4539	-0.045
Mof_C 	C 	0.2239	0.8777	0.5217	0.331
Mof_C 	C 	0.4268	0.729	0.4442	0.021
Mof_C 	C 	0.3806	0.7228	0.5118	0.246
Mof_C 	C 	0.5146	0.74	0.3666	0.187
Mof_C 	C 	0.4253	0.7301	0.3907	-0.045
Mof_C 	C 	0.3777	0.7239	0.3767	0.332
Mof_C 	C 	0.9442	0.4	0.9268	0.025
Mof_C 	C 	0.0118	0.3848	0.8806	0.243
Mof_C 	C 	0.8666	0.3788	0.0146	0.178
Mof_C 	C 	0.8907	0.4539	0.9253	-0.046
Mof_C 	C 	0.8767	0.5217	0.8777	0.332
Mof_C 	C 	0.271	0.1	0.5732	0.02
Mof_C 	C 	0.2772	0.1152	0.6194	0.247
Mof_C 	C 	0.26	0.1212	0.4854	0.187
Mof_C 	C 	0.2699	0.0461	0.5747	-0.042
Mof_C 	C 	0.2761	0.9783	0.6223	0.329
Mof_C 	C 	0.6	0.771	0.0558	0.019
Mof_C 	C 	0.6152	0.7772	0.9882	0.249
Mof_C 	C 	0.6212	0.76	0.1334	0.187
Mof_C 	C 	0.5461	0.7699	0.1093	-0.045
Mof_C 	C 	0.4783	0.7761	0.1233	0.331
Mof_C 	C 	0.5558	0.5732	0.1	0.021
Mof_C 	C 	0.4882	0.6194	0.1152	0.246
Mof_C 	C 	0.6334	0.4854	0.1212	0.187
Mof_C 	C 	0.6093	0.5747	0.0461	-0.047
Mof_C 	C 	0.6233	0.6223	0.9783	0.334
Mof_C 	C 	0.0732	0.0558	0.771	0.025
Mof_C 	C 	0.1194	0.9882	0.7772	0.242
Mof_C 	C 	0.9854	0.1334	0.76	0.184
Mof_C 	C 	0.0747	0.1093	0.7699	-0.046
Mof_C 	C 	0.1223	0.1233	0.7761	0.332
Mof_C 	C 	0.0732	0.1	0.0558	0.027
Mof_C 	C 	0.1194	0.1152	0.9882	0.241
Mof_C 	C 	0.9854	0.1212	0.1334	0.167
Mof_C 	C 	0.0747	0.0461	0.1093	-0.04
Mof_C 	C 	0.1223	0.9783	0.1233	0.327
Mof_C 	C 	0.5558	0.771	0.5732	0.021
Mof_C 	C 	0.4882	0.7772	0.6194	0.246
Mof_C 	C 	0.6334	0.76	0.4854	0.187
Mof_C 	C 	0.6093	0.7699	0.5747	-0.045
Mof_C 	C 	0.6233	0.7761	0.6223	0.332
Mof_C 	C 	0.6	0.5732	0.771	0.021
Mof_C 	C 	0.6152	0.6194	0.7772	0.246
Mof_C 	C 	0.6212	0.4854	0.76	0.187
Mof_C 	C 	0.5461	0.5747	0.7699	-0.045
Mof_C 	C 	0.4783	0.6223	0.7761	0.332
Mof_C 	C 	0.271	0.0558	0.1	0.024
Mof_C 	C 	0.2772	0.9882	0.1152	0.243
Mof_C 	C 	0.26	0.1334	0.1212	0.187
Mof_C 	C 	0.2699	0.1093	0.0461	-0.042
Mof_C 	C 	0.2761	0.1233	0.9783	0.328
Mof_C 	C 	0.5558	0.1	0.771	0.021
Mof_C 	C 	0.4882	0.1152	0.7772	0.246
Mof_C 	C 	0.6334	0.1212	0.76	0.187
Mof_C 	C 	0.6093	0.0461	0.7699	-0.048
Mof_C 	C 	0.6233	0.9783	0.7761	0.334
Mof_C 	C 	0.0732	0.771	0.1	0.02
Mof_C 	C 	0.1194	0.7772	0.1152	0.247
Mof_C 	C 	0.9854	0.76	0.1212	0.183
Mof_C 	C 	0.0747	0.7699	0.0461	-0.041
Mof_C 	C 	0.1223	0.7761	0.9783	0.327
Mof_C 	C 	0.271	0.5732	0.0558	0.023
Mof_C 	C 	0.2772	0.6194	0.9882	0.244
Mof_C 	C 	0.26	0.4854	0.1334	0.187
Mof_C 	C 	0.2699	0.5747	0.1093	-0.046
Mof_C 	C 	0.2761	0.6223	0.1233	0.332
Mof_C 	C 	0.6	0.0558	0.5732	0.019
Mof_C 	C 	0.6152	0.9882	0.6194	0.248
Mof_C 	C 	0.6212	0.1334	0.4854	0.187
Mof_C 	C 	0.5461	0.1093	0.5747	-0.045
Mof_C 	C 	0.4783	0.1233	0.6223	0.331
Mof_N 	N 	0.1476	0.2652	0.016	-0.331
Mof_N 	N 	0.0605	0.2635	0.0195	-0.331
Mof_N 	N 	0.7652	0.6476	0.5712	-0.337
Mof_N 	N 	0.7635	0.5605	0.6565	-0.339
Mof_N 	N 	0.516	0.5712	0.6476	-0.337
Mof_N 	N 	0.5195	0.6565	0.5605	-0.339
Mof_N 	N 	0.0712	0.016	0.2652	-0.331
Mof_N 	N 	0.1565	0.0195	0.2635	-0.335
Mof_N 	N 	0.1476	0.016	0.5712	-0.332
Mof_N 	N 	0.0605	0.0195	0.6565	-0.334
Mof_N 	N 	0.7652	0.5712	0.016	-0.34
Mof_N 	N 	0.7635	0.6565	0.0195	-0.341
Mof_N 	N 	0.516	0.6476	0.2652	-0.337
Mof_N 	N 	0.5195	0.5605	0.2635	-0.339
Mof_N 	N 	0.0712	0.2652	0.6476	-0.337
Mof_N 	N 	0.1565	0.2635	0.5605	-0.339
Mof_N 	N 	0.1476	0.5712	0.2652	-0.337
Mof_N 	N 	0.0605	0.6565	0.2635	-0.339
Mof_N 	N 	0.7652	0.016	0.6476	-0.341
Mof_N 	N 	0.7635	0.0195	0.5605	-0.341
Mof_N 	N 	0.516	0.2652	0.5712	-0.337
Mof_N 	N 	0.5195	0.2635	0.6565	-0.339
Mof_N 	N 	0.0712	0.6476	0.016	-0.331
Mof_N 	N 	0.1565	0.5605	0.0195	-0.336
Mof_N 	N 	0.7348	0.8524	0.484	-0.336
Mof_N 	N 	0.7365	0.9395	0.4805	-0.338
Mof_N 	N 	0.3524	0.2348	0.9288	-0.336
Mof_N 	N 	0.4395	0.2365	0.8435	-0.339
Mof_N 	N 	0.4288	0.484	0.8524	-0.337
Mof_N 	N 	0.3435	0.4805	0.9395	-0.34
Mof_N 	N 	0.984	0.9288	0.2348	-0.334
Mof_N 	N 	0.9805	0.8435	0.2365	-0.338
Mof_N 	N 	0.984	0.8524	0.9288	-0.326
Mof_N 	N 	0.9805	0.9395	0.8435	-0.329
Mof_N 	N 	0.4288	0.2348	0.484	-0.337
Mof_N 	N 	0.3435	0.2365	0.4805	-0.339
Mof_N 	N 	0.3524	0.484	0.2348	-0.337
Mof_N 	N 	0.4395	0.4805	0.2365	-0.339
Mof_N 	N 	0.7348	0.9288	0.8524	-0.337
Mof_N 	N 	0.7365	0.8435	0.9395	-0.338
Mof_N 	N 	0.4288	0.8524	0.2348	-0.337
Mof_N 	N 	0.3435	0.9395	0.2365	-0.34
Mof_N 	N 	0.984	0.2348	0.8524	-0.335
Mof_N 	N 	0.9805	0.2365	0.9395	-0.335
Mof_N 	N 	0.7348	0.484	0.9288	-0.337
Mof_N 	N 	0.7365	0.4805	0.8435	-0.339
Mof_N 	N 	0.3524	0.9288	0.484	-0.336
Mof_N 	N 	0.4395	0.8435	0.4805	-0.339
Mof_N 	N 	0.8524	0.7348	0.984	-0.331
Mof_N 	N 	0.9395	0.7365	0.9805	-0.331
Mof_N 	N 	0.2348	0.3524	0.4288	-0.337
Mof_N 	N 	0.2365	0.4395	0.3435	-0.339
Mof_N 	N 	0.484	0.4288	0.3524	-0.337
Mof_N 	N 	0.4805	0.3435	0.4395	-0.339
Mof_N 	N 	0.9288	0.984	0.7348	-0.331
Mof_N 	N 	0.8435	0.9805	0.7365	-0.335
Mof_N 	N 	0.8524	0.984	0.4288	-0.332
Mof_N 	N 	0.9395	0.9805	0.3435	-0.334
Mof_N 	N 	0.2348	0.4288	0.984	-0.34
Mof_N 	N 	0.2365	0.3435	0.9805	-0.341
Mof_N 	N 	0.484	0.3524	0.7348	-0.337
Mof_N 	N 	0.4805	0.4395	0.7365	-0.339
Mof_N 	N 	0.9288	0.7348	0.3524	-0.337
Mof_N 	N 	0.8435	0.7365	0.4395	-0.339
Mof_N 	N 	0.8524	0.4288	0.7348	-0.337
Mof_N 	N 	0.9395	0.3435	0.7365	-0.339
Mof_N 	N 	0.2348	0.984	0.3524	-0.341
Mof_N 	N 	0.2365	0.9805	0.4395	-0.341
Mof_N 	N 	0.484	0.7348	0.4288	-0.337
Mof_N 	N 	0.4805	0.7365	0.3435	-0.339
Mof_N 	N 	0.9288	0.3524	0.984	-0.331
Mof_N 	N 	0.8435	0.4395	0.9805	-0.336
Mof_N 	N 	0.2652	0.1476	0.516	-0.336
Mof_N 	N 	0.2635	0.0605	0.5195	-0.338
Mof_N 	N 	0.6476	0.7652	0.0712	-0.336
Mof_N 	N 	0.5605	0.7635	0.1565	-0.339
Mof_N 	N 	0.5712	0.516	0.1476	-0.337
Mof_N 	N 	0.6565	0.5195	0.0605	-0.34
Mof_N 	N 	0.016	0.0712	0.7652	-0.334
Mof_N 	N 	0.0195	0.1565	0.7635	-0.338
Mof_N 	N 	0.016	0.1476	0.0712	-0.326
Mof_N 	N 	0.0195	0.0605	0.1565	-0.329
Mof_N 	N 	0.5712	0.7652	0.516	-0.337
Mof_N 	N 	0.6565	0.7635	0.5195	-0.339
Mof_N 	N 	0.6476	0.516	0.7652	-0.337
Mof_N 	N 	0.5605	0.5195	0.7635	-0.339
Mof_N 	N 	0.2652	0.0712	0.1476	-0.337
Mof_N 	N 	0.2635	0.1565	0.0605	-0.338
Mof_N 	N 	0.5712	0.1476	0.7652	-0.337
Mof_N 	N 	0.6565	0.0605	0.7635	-0.34
Mof_N 	N 	0.016	0.7652	0.1476	-0.335
Mof_N 	N 	0.0195	0.7635	0.0605	-0.335
Mof_N 	N 	0.2652	0.516	0.0712	-0.337
Mof_N 	N 	0.2635	0.5195	0.1565	-0.339
Mof_N 	N 	0.6476	0.0712	0.516	-0.336
Mof_N 	N 	0.5605	0.1565	0.5195	-0.339
Mof_O 	O 	0.1688	0.271	0.1102	-0.303
Mof_O 	O 	0.0634	0.29	0.1692	-0.141
Mof_O 	O 	0.9431	0.2671	0.1097	-0.458
Mof_O 	O 	0.9663	0.2885	0.1685	-0.186
Mof_O 	O 	0.771	0.6688	0.45	-0.304
Mof_O 	O 	0.79	0.5634	0.4774	-0.143
Mof_O 	O 	0.7671	0.4431	0.6801	-0.461
Mof_O 	O 	0.7885	0.4663	0.5767	-0.186
Mof_O 	O 	0.6102	0.45	0.6688	-0.304
Mof_O 	O 	0.6692	0.4774	0.5634	-0.143
Mof_O 	O 	0.6097	0.6801	0.4431	-0.461
Mof_O 	O 	0.6685	0.5767	0.4663	-0.186
Mof_O 	O 	0.95	0.1102	0.271	-0.304
Mof_O 	O 	0.9774	0.1692	0.29	-0.144
Mof_O 	O 	0.1801	0.1097	0.2671	-0.462
Mof_O 	O 	0.0767	0.1685	0.2885	-0.184
Mof_O 	O 	0.1688	0.1102	0.45	-0.303
Mof_O 	O 	0.0634	0.1692	0.4774	-0.142
Mof_O 	O 	0.9431	0.1097	0.6801	-0.46
Mof_O 	O 	0.9663	0.1685	0.5767	-0.186
Mof_O 	O 	0.771	0.45	0.1102	-0.305
Mof_O 	O 	0.79	0.4774	0.1692	-0.143
Mof_O 	O 	0.7671	0.6801	0.1097	-0.46
Mof_O 	O 	0.7885	0.5767	0.1685	-0.186
Mof_O 	O 	0.6102	0.6688	0.271	-0.304
Mof_O 	O 	0.6692	0.5634	0.29	-0.143
Mof_O 	O 	0.6097	0.4431	0.2671	-0.461
Mof_O 	O 	0.6685	0.4663	0.2885	-0.186
Mof_O 	O 	0.95	0.271	0.6688	-0.304
Mof_O 	O 	0.9774	0.29	0.5634	-0.144
Mof_O 	O 	0.1801	0.2671	0.4431	-0.461
Mof_O 	O 	0.0767	0.2885	0.4663	-0.185
Mof_O 	O 	0.1688	0.45	0.271	-0.304
Mof_O 	O 	0.0634	0.4774	0.29	-0.142
Mof_O 	O 	0.9431	0.6801	0.2671	-0.461
Mof_O 	O 	0.9663	0.5767	0.2885	-0.186
Mof_O 	O 	0.771	0.1102	0.6688	-0.305
Mof_O 	O 	0.79	0.1692	0.5634	-0.143
Mof_O 	O 	0.7671	0.1097	0.4431	-0.461
Mof_O 	O 	0.7885	0.1685	0.4663	-0.186
Mof_O 	O 	0.6102	0.271	0.45	-0.304
Mof_O 	O 	0.6692	0.29	0.4774	-0.143
Mof_O 	O 	0.6097	0.2671	0.6801	-0.461
Mof_O 	O 	0.6685	0.2885	0.5767	-0.186
Mof_O 	O 	0.95	0.6688	0.1102	-0.303
Mof_O 	O 	0.9774	0.5634	0.1692	-0.144
Mof_O 	O 	0.1801	0.4431	0.1097	-0.462
Mof_O 	O 	0.0767	0.4663	0.1685	-0.184
Mof_O 	O 	0.729	0.8312	0.3898	-0.304
Mof_O 	O 	0.71	0.9366	0.3308	-0.142
Mof_O 	O 	0.7329	0.0569	0.3903	-0.46
Mof_O 	O 	0.7115	0.0337	0.3315	-0.185
Mof_O 	O 	0.3312	0.229	0.05	-0.304
Mof_O 	O 	0.4366	0.21	0.0226	-0.143
Mof_O 	O 	0.5569	0.2329	0.8199	-0.461
Mof_O 	O 	0.5337	0.2115	0.9233	-0.186
Mof_O 	O 	0.55	0.3898	0.8312	-0.304
Mof_O 	O 	0.5226	0.3308	0.9366	-0.143
Mof_O 	O 	0.3199	0.3903	0.0569	-0.462
Mof_O 	O 	0.4233	0.3315	0.0337	-0.186
Mof_O 	O 	0.8898	0.05	0.229	-0.304
Mof_O 	O 	0.8308	0.0226	0.21	-0.144
Mof_O 	O 	0.8903	0.8199	0.2329	-0.461
Mof_O 	O 	0.8315	0.9233	0.2115	-0.185
Mof_O 	O 	0.8898	0.8312	0.05	-0.303
Mof_O 	O 	0.8308	0.9366	0.0226	-0.142
Mof_O 	O 	0.8903	0.0569	0.8199	-0.459
Mof_O 	O 	0.8315	0.0337	0.9233	-0.184
Mof_O 	O 	0.55	0.229	0.3898	-0.304
Mof_O 	O 	0.5226	0.21	0.3308	-0.143
Mof_O 	O 	0.3199	0.2329	0.3903	-0.461
Mof_O 	O 	0.4233	0.2115	0.3315	-0.185
Mof_O 	O 	0.3312	0.3898	0.229	-0.304
Mof_O 	O 	0.4366	0.3308	0.21	-0.143
Mof_O 	O 	0.5569	0.3903	0.2329	-0.461
Mof_O 	O 	0.5337	0.3315	0.2115	-0.186
Mof_O 	O 	0.729	0.05	0.8312	-0.305
Mof_O 	O 	0.71	0.0226	0.9366	-0.143
Mof_O 	O 	0.7329	0.8199	0.0569	-0.46
Mof_O 	O 	0.7115	0.9233	0.0337	-0.185
Mof_O 	O 	0.55	0.8312	0.229	-0.304
Mof_O 	O 	0.5226	0.9366	0.21	-0.143
Mof_O 	O 	0.3199	0.0569	0.2329	-0.462
Mof_O 	O 	0.4233	0.0337	0.2115	-0.186
Mof_O 	O 	0.8898	0.229	0.8312	-0.304
Mof_O 	O 	0.8308	0.21	0.9366	-0.142
Mof_O 	O 	0.8903	0.2329	0.0569	-0.459
Mof_O 	O 	0.8315	0.2115	0.0337	-0.186
Mof_O 	O 	0.729	0.3898	0.05	-0.305
Mof_O 	O 	0.71	0.3308	0.0226	-0.143
Mof_O 	O 	0.7329	0.3903	0.8199	-0.461
Mof_O 	O 	0.7115	0.3315	0.9233	-0.185
Mof_O 	O 	0.3312	0.05	0.3898	-0.304
Mof_O 	O 	0.4366	0.0226	0.3308	-0.143
Mof_O 	O 	0.5569	0.8199	0.3903	-0.461
Mof_O 	O 	0.5337	0.9233	0.3315	-0.185
Mof_O 	O 	0.8312	0.729	0.8898	-0.303
Mof_O 	O 	0.9366	0.71	0.8308	-0.141
Mof_O 	O 	0.0569	0.7329	0.8903	-0.458
Mof_O 	O 	0.0337	0.7115	0.8315	-0.186
Mof_O 	O 	0.229	0.3312	0.55	-0.304
Mof_O 	O 	0.21	0.4366	0.5226	-0.143
Mof_O 	O 	0.2329	0.5569	0.3199	-0.461
Mof_O 	O 	0.2115	0.5337	0.4233	-0.186
Mof_O 	O 	0.3898	0.55	0.3312	-0.304
Mof_O 	O 	0.3308	0.5226	0.4366	-0.143
Mof_O 	O 	0.3903	0.3199	0.5569	-0.461
Mof_O 	O 	0.3315	0.4233	0.5337	-0.186
Mof_O 	O 	0.05	0.8898	0.729	-0.304
Mof_O 	O 	0.0226	0.8308	0.71	-0.144
Mof_O 	O 	0.8199	0.8903	0.7329	-0.462
Mof_O 	O 	0.9233	0.8315	0.7115	-0.184
Mof_O 	O 	0.8312	0.8898	0.55	-0.303
Mof_O 	O 	0.9366	0.8308	0.5226	-0.142
Mof_O 	O 	0.0569	0.8903	0.3199	-0.46
Mof_O 	O 	0.0337	0.8315	0.4233	-0.186
Mof_O 	O 	0.229	0.55	0.8898	-0.305
Mof_O 	O 	0.21	0.5226	0.8308	-0.143
Mof_O 	O 	0.2329	0.3199	0.8903	-0.46
Mof_O 	O 	0.2115	0.4233	0.8315	-0.186
Mof_O 	O 	0.3898	0.3312	0.729	-0.304
Mof_O 	O 	0.3308	0.4366	0.71	-0.143
Mof_O 	O 	0.3903	0.5569	0.7329	-0.461
Mof_O 	O 	0.3315	0.5337	0.7115	-0.186
Mof_O 	O 	0.05	0.729	0.3312	-0.304
Mof_O 	O 	0.0226	0.71	0.4366	-0.144
Mof_O 	O 	0.8199	0.7329	0.5569	-0.461
Mof_O 	O 	0.9233	0.7115	0.5337	-0.185
Mof_O 	O 	0.8312	0.55	0.729	-0.304
Mof_O 	O 	0.9366	0.5226	0.71	-0.142
Mof_O 	O 	0.0569	0.3199	0.7329	-0.461
Mof_O 	O 	0.0337	0.4233	0.7115	-0.186
Mof_O 	O 	0.229	0.8898	0.3312	-0.305
Mof_O 	O 	0.21	0.8308	0.4366	-0.143
Mof_O 	O 	0.2329	0.8903	0.5569	-0.461
Mof_O 	O 	0.2115	0.8315	0.5337	-0.186
Mof_O 	O 	0.3898	0.729	0.55	-0.304
Mof_O 	O 	0.3308	0.71	0.5226	-0.143
Mof_O 	O 	0.3903	0.7329	0.3199	-0.461
Mof_O 	O 	0.3315	0.7115	0.4233	-0.186
Mof_O 	O 	0.05	0.3312	0.8898	-0.303
Mof_O 	O 	0.0226	0.4366	0.8308	-0.144
Mof_O 	O 	0.8199	0.5569	0.8903	-0.462
Mof_O 	O 	0.9233	0.5337	0.8315	-0.184
Mof_O 	O 	0.271	0.1688	0.6102	-0.304
Mof_O 	O 	0.29	0.0634	0.6692	-0.142
Mof_O 	O 	0.2671	0.9431	0.6097	-0.46
Mof_O 	O 	0.2885	0.9663	0.6685	-0.185
Mof_O 	O 	0.6688	0.771	0.95	-0.304
Mof_O 	O 	0.5634	0.79	0.9774	-0.143
Mof_O 	O 	0.4431	0.7671	0.1801	-0.461
Mof_O 	O 	0.4663	0.7885	0.0767	-0.186
Mof_O 	O 	0.45	0.6102	0.1688	-0.304
Mof_O 	O 	0.4774	0.6692	0.0634	-0.143
Mof_O 	O 	0.6801	0.6097	0.9431	-0.462
Mof_O 	O 	0.5767	0.6685	0.9663	-0.186
Mof_O 	O 	0.1102	0.95	0.771	-0.304
Mof_O 	O 	0.1692	0.9774	0.79	-0.144
Mof_O 	O 	0.1097	0.1801	0.7671	-0.461
Mof_O 	O 	0.1685	0.0767	0.7885	-0.185
Mof_O 	O 	0.1102	0.1688	0.95	-0.303
Mof_O 	O 	0.1692	0.0634	0.9774	-0.142
Mof_O 	O 	0.1097	0.9431	0.1801	-0.459
Mof_O 	O 	0.1685	0.9663	0.0767	-0.184
Mof_O 	O 	0.45	0.771	0.6102	-0.304
Mof_O 	O 	0.4774	0.79	0.6692	-0.143
Mof_O 	O 	0.6801	0.7671	0.6097	-0.461
Mof_O 	O 	0.5767	0.7885	0.6685	-0.185
Mof_O 	O 	0.6688	0.6102	0.771	-0.304
Mof_O 	O 	0.5634	0.6692	0.79	-0.143
Mof_O 	O 	0.4431	0.6097	0.7671	-0.461
Mof_O 	O 	0.4663	0.6685	0.7885	-0.186
Mof_O 	O 	0.271	0.95	0.1688	-0.305
Mof_O 	O 	0.29	0.9774	0.0634	-0.143
Mof_O 	O 	0.2671	0.1801	0.9431	-0.46
Mof_O 	O 	0.2885	0.0767	0.9663	-0.185
Mof_O 	O 	0.45	0.1688	0.771	-0.304
Mof_O 	O 	0.4774	0.0634	0.79	-0.143
Mof_O 	O 	0.6801	0.9431	0.7671	-0.462
Mof_O 	O 	0.5767	0.9663	0.7885	-0.186
Mof_O 	O 	0.1102	0.771	0.1688	-0.304
Mof_O 	O 	0.1692	0.79	0.0634	-0.142
Mof_O 	O 	0.1097	0.7671	0.9431	-0.459
Mof_O 	O 	0.1685	0.7885	0.9663	-0.186
Mof_O 	O 	0.271	0.6102	0.95	-0.305
Mof_O 	O 	0.29	0.6692	0.9774	-0.143
Mof_O 	O 	0.2671	0.6097	0.1801	-0.461
Mof_O 	O 	0.2885	0.6685	0.0767	-0.185
Mof_O 	O 	0.6688	0.95	0.6102	-0.304
Mof_O 	O 	0.5634	0.9774	0.6692	-0.143
Mof_O 	O 	0.4431	0.1801	0.6097	-0.461
Mof_O 	O 	0.4663	0.0767	0.6685	-0.185
_end
