data_functionalizedCrystal
_audit_creation_method	'EQeq! by Chris Wilmer'
_symmetry_space_group_name_H-M	'P1'
_symmetry_Int_Tables_number	1
_symmetry_cell_setting	triclinic
loop_
_symmetry_equiv_pos_as_xyz
  x,y,z
_cell_length_a	8.4529
_cell_length_b	9.3581
_cell_length_c	12.884
_cell_angle_alpha	90
_cell_angle_beta	105.265
_cell_angle_gamma	90
loop_
_atom_site_label
_atom_site_type_symbol
_atom_site_fract_x
_atom_site_fract_y
_atom_site_fract_z
_atom_site_charge
Mof_N 	N 	0.7186	0.1292	0.9975	-0.056
Mof_N 	N 	0.551	0.0483	0.17521	-0.129
Mof_N 	N 	0.3378	0.1906	0.9594	-0.069
Mof_N 	N 	0.2186	0.6292	0.9975	-0.049
Mof_N 	N 	0.051	0.5483	0.17521	-0.12
Mof_N 	N 	0.8378	0.6906	0.9594	-0.009
Mof_N 	N 	0.2814	0.1292	0.5025	-0.146
Mof_N 	N 	0.449	0.0483	0.32479	-0.138
Mof_N 	N 	0.6622	0.1906	0.5406	-0.115
Mof_N 	N 	0.7814	0.6292	0.5025	-0.079
Mof_N 	N 	0.949	0.5483	0.32479	-0.033
Mof_N 	N 	0.1622	0.6906	0.5406	-0.114
Mof_N 	N 	0.2814	0.8708	0.0025	-0.082
Mof_N 	N 	0.449	0.9517	0.82479	-0.043
Mof_N 	N 	0.6622	0.8094	0.0406	-0.065
Mof_N 	N 	0.7814	0.3708	0.0025	-0.096
Mof_N 	N 	0.949	0.4517	0.82479	-0.014
Mof_N 	N 	0.1622	0.3094	0.0406	-0.136
Mof_N 	N 	0.7186	0.8708	0.4975	-0.051
Mof_N 	N 	0.551	0.9517	0.67521	-0.055
Mof_N 	N 	0.3378	0.8094	0.4594	-0.079
Mof_N 	N 	0.2186	0.3708	0.4975	-0.124
Mof_N 	N 	0.051	0.4517	0.67521	-0.121
Mof_N 	N 	0.8378	0.3094	0.4594	-0.086
Mof_Mn	Mn	0.5	0	-0	0.561
Mof_Mn	Mn	-0	0.5	-0	0.593
Mof_Mn	Mn	0.5	0	0.5	0.648
Mof_Mn	Mn	3.60975e-33	0.5	0.5	0.678
Mof_N 	N 	0.5	0.0455	0.25	-0.032
Mof_N 	N 	1.80488e-33	0.5455	0.25	-0.074
Mof_N 	N 	0.5	0.9545	0.75	0.009
Mof_N 	N 	-5.78143e-17	0.4545	0.75	-0.071
Mof_N 	N 	0.75	0.25	-0	-0.058
Mof_N 	N 	0.25	0.25	0.5	-0.032
Mof_N 	N 	0.25	0.75	-0	-0.062
Mof_N 	N 	0.75	0.75	0.5	-0.002
Mof_N 	N 	0.25	0.25	-0	-0.075
Mof_N 	N 	0.75	0.25	0.5	-0.016
Mof_N 	N 	0.75	0.75	-0	-0.042
Mof_N 	N 	0.25	0.75	0.5	-0.016
_end
