data_functionalizedCrystal
_audit_creation_method	'EQeq! by Chris Wilmer'
_symmetry_space_group_name_H-M	'P1'
_symmetry_Int_Tables_number	1
_symmetry_cell_setting	triclinic
loop_
_symmetry_equiv_pos_as_xyz
  x,y,z
_cell_length_a	6.262
_cell_length_b	15.512
_cell_length_c	15.512
_cell_angle_alpha	120
_cell_angle_beta	90
_cell_angle_gamma	90
loop_
_atom_site_label
_atom_site_type_symbol
_atom_site_fract_x
_atom_site_fract_y
_atom_site_fract_z
_atom_site_charge
Mof_Zn	Zn	0.8504	0.5	0.5	1.199
Mof_Zn	Zn	0.18373	-4.35613e-17	0.5	1.188
Mof_Zn	Zn	0.51707	0.5	-0	1.185
Mof_H 	H 	0.2154	0.7236	0.6019	0.092
Mof_H 	H 	0.4261	0.5971	0.589	0.005
Mof_H 	H 	0.878	0.6658	0.4619	-0.015
Mof_H 	H 	0.684	0.7978	0.4767	0.087
Mof_H 	H 	0.54873	0.8783	0.2764	0.088
Mof_H 	H 	0.75943	0.9919	0.4029	0.036
Mof_H 	H 	0.21133	0.7961	0.3342	-0.04
Mof_H 	H 	0.01733	0.6789	0.2022	0.173
Mof_H 	H 	0.88207	0.3981	0.1217	0.003
Mof_H 	H 	0.09277	0.411	0.0081	-0.003
Mof_H 	H 	0.54467	0.5381	0.2039	-0.004
Mof_H 	H 	0.35067	0.5233	0.3211	0.087
Mof_H 	H 	0.2154	0.2764	0.3981	0.069
Mof_H 	H 	0.4261	0.4029	0.411	0.004
Mof_H 	H 	0.878	0.3342	0.5381	-0.011
Mof_H 	H 	0.684	0.2022	0.5233	0.069
Mof_H 	H 	0.54873	0.1217	0.7236	0.08
Mof_H 	H 	0.75943	0.0081	0.5971	-0.029
Mof_H 	H 	0.21133	0.2039	0.6658	-0.046
Mof_H 	H 	0.01733	0.3211	0.7978	0.186
Mof_H 	H 	0.88207	0.6019	0.8783	0.033
Mof_H 	H 	0.09277	0.589	0.9919	0.062
Mof_H 	H 	0.54467	0.4619	0.7961	0
Mof_H 	H 	0.35067	0.4767	0.6789	0.089
Mof_C 	C 	0.2872	0.8561	0.5423	0.295
Mof_C 	C 	0.4261	0.7737	0.5379	0.013
Mof_C 	C 	0.3502	0.713	0.5731	-0.094
Mof_C 	C 	0.4772	0.6371	0.5647	0.073
Mof_C 	C 	0.7432	0.678	0.4908	0.07
Mof_C 	C 	0.6266	0.7566	0.4984	-0.093
Mof_C 	C 	0.62053	0.6862	0.1439	0.279
Mof_C 	C 	0.75943	0.7642	0.2263	0.056
Mof_C 	C 	0.68353	0.8601	0.287	-0.112
Mof_C 	C 	0.81053	0.9276	0.3629	0.042
Mof_C 	C 	0.07653	0.8128	0.322	0.203
Mof_C 	C 	0.95993	0.7418	0.2434	-0.284
Mof_C 	C 	0.95387	0.4577	0.3138	0.219
Mof_C 	C 	0.09277	0.4621	0.2358	0.012
Mof_C 	C 	0.01687	0.4269	0.1399	-0.01
Mof_C 	C 	0.14387	0.4353	0.0724	0.017
Mof_C 	C 	0.40987	0.5092	0.1872	0.06
Mof_C 	C 	0.29327	0.5016	0.2582	-0.094
Mof_C 	C 	0.2872	0.1439	0.4577	0.304
Mof_C 	C 	0.4261	0.2263	0.4621	-0.02
Mof_C 	C 	0.3502	0.287	0.4269	-0.084
Mof_C 	C 	0.4772	0.3629	0.4353	0.054
Mof_C 	C 	0.7432	0.322	0.5092	0.052
Mof_C 	C 	0.6266	0.2434	0.5016	-0.081
Mof_C 	C 	0.62053	0.3138	0.8561	0.268
Mof_C 	C 	0.75943	0.2358	0.7737	0.076
Mof_C 	C 	0.68353	0.1399	0.713	-0.134
Mof_C 	C 	0.81053	0.0724	0.6371	0.049
Mof_C 	C 	0.07653	0.1872	0.678	0.204
Mof_C 	C 	0.95993	0.2582	0.7566	-0.29
Mof_C 	C 	0.95387	0.5423	0.6862	0.223
Mof_C 	C 	0.09277	0.5379	0.7642	0.023
Mof_C 	C 	0.01687	0.5731	0.8601	0.002
Mof_C 	C 	0.14387	0.5647	0.9276	0.032
Mof_C 	C 	0.40987	0.4908	0.8128	0.071
Mof_C 	C 	0.29327	0.4984	0.7418	-0.091
Mof_N 	N 	0.6704	0.61831	0.52341	-0.267
Mof_N 	N 	0.00373	0.9051	0.38169	-0.242
Mof_N 	N 	0.33707	0.47659	0.0949	-0.268
Mof_N 	N 	0.6704	0.38169	0.47659	-0.265
Mof_N 	N 	0.00373	0.0949	0.61831	-0.277
Mof_N 	N 	0.33707	0.52341	0.9051	-0.235
Mof_O 	O 	0.3834	0.91458	0.51939	-0.404
Mof_O 	O 	0.0971	0.8585	0.5596	-0.267
Mof_O 	O 	0.71673	0.60481	0.08542	-0.481
Mof_O 	O 	0.43043	0.7011	0.1415	-0.318
Mof_O 	O 	0.05007	0.48061	0.39519	-0.396
Mof_O 	O 	0.76377	0.4404	0.2989	-0.306
Mof_O 	O 	0.3834	0.08542	0.48061	-0.475
Mof_O 	O 	0.0971	0.1415	0.4404	-0.319
Mof_O 	O 	0.71673	0.39519	0.91458	-0.414
Mof_O 	O 	0.43043	0.2989	0.8585	-0.282
Mof_O 	O 	0.05007	0.51939	0.60481	-0.391
Mof_O 	O 	0.76377	0.5596	0.7011	-0.29
_end
