data_functionalizedCrystal
_audit_creation_method	'EQeq! by Chris Wilmer'
_symmetry_space_group_name_H-M	'P1'
_symmetry_Int_Tables_number	1
_symmetry_cell_setting	triclinic
loop_
_symmetry_equiv_pos_as_xyz
  x,y,z
_cell_length_a	29.6957
_cell_length_b	29.6957
_cell_length_c	29.6957
_cell_angle_alpha	109.471
_cell_angle_beta	109.471
_cell_angle_gamma	109.471
loop_
_atom_site_label
_atom_site_type_symbol
_atom_site_fract_x
_atom_site_fract_y
_atom_site_fract_z
_atom_site_charge
Mof_Cu	Cu	0.27854	0.92307	0.35249	0.873
Mof_Cu	Cu	0.07058	0.92605	0.14751	0.873
Mof_Cu	Cu	0.42942	0.57693	0.85547	0.874
Mof_Cu	Cu	0.22146	0.57395	0.64453	0.874
Mof_Cu	Cu	0.35547	0.42942	0.07693	0.873
Mof_Cu	Cu	0.14453	0.22146	0.07395	0.873
Mof_Cu	Cu	0.85249	0.27854	0.42307	0.874
Mof_Cu	Cu	0.64751	0.07058	0.42605	0.874
Mof_Cu	Cu	0.92605	0.64751	0.57058	0.874
Mof_Cu	Cu	0.92307	0.85249	0.77854	0.874
Mof_Cu	Cu	0.57395	0.14453	0.72146	0.874
Mof_Cu	Cu	0.57693	0.35547	0.92942	0.873
Mof_Cu	Cu	0.57693	0.22146	0.14751	0.874
Mof_Cu	Cu	0.57395	0.42942	0.35249	0.874
Mof_Cu	Cu	0.92307	0.07058	0.64453	0.873
Mof_Cu	Cu	0.92605	0.27854	0.85547	0.873
Mof_Cu	Cu	0.07058	0.14453	0.42307	0.874
Mof_Cu	Cu	0.27854	0.35547	0.42605	0.874
Mof_Cu	Cu	0.22146	0.64751	0.07693	0.873
Mof_Cu	Cu	0.42942	0.85249	0.07395	0.873
Mof_Cu	Cu	0.85249	0.57395	0.92942	0.873
Mof_Cu	Cu	0.64751	0.57693	0.72146	0.874
Mof_Cu	Cu	0.35547	0.92605	0.77854	0.874
Mof_Cu	Cu	0.14453	0.92307	0.57058	0.873
Mof_Cu	Cu	0.72146	0.07693	0.64751	0.873
Mof_Cu	Cu	0.92942	0.07395	0.85249	0.873
Mof_Cu	Cu	0.57058	0.42307	0.14453	0.874
Mof_Cu	Cu	0.77854	0.42605	0.35547	0.874
Mof_Cu	Cu	0.64453	0.57058	0.92307	0.873
Mof_Cu	Cu	0.85547	0.77854	0.92605	0.873
Mof_Cu	Cu	0.14751	0.72146	0.57693	0.874
Mof_Cu	Cu	0.35249	0.92942	0.57395	0.874
Mof_Cu	Cu	0.07395	0.35249	0.42942	0.874
Mof_Cu	Cu	0.07693	0.14751	0.22146	0.874
Mof_Cu	Cu	0.42605	0.85547	0.27854	0.874
Mof_Cu	Cu	0.42307	0.64453	0.07058	0.873
Mof_Cu	Cu	0.42307	0.77854	0.85249	0.874
Mof_Cu	Cu	0.42605	0.57058	0.64751	0.874
Mof_Cu	Cu	0.07693	0.92942	0.35547	0.873
Mof_Cu	Cu	0.07395	0.72146	0.14453	0.873
Mof_Cu	Cu	0.92942	0.85547	0.57693	0.874
Mof_Cu	Cu	0.72146	0.64453	0.57395	0.874
Mof_Cu	Cu	0.77854	0.35249	0.92307	0.873
Mof_Cu	Cu	0.57058	0.14751	0.92605	0.873
Mof_Cu	Cu	0.14751	0.42605	0.07058	0.873
Mof_Cu	Cu	0.35249	0.42307	0.27854	0.874
Mof_Cu	Cu	0.64453	0.07395	0.22146	0.875
Mof_Cu	Cu	0.85547	0.07693	0.42942	0.874
Mof_H 	H 	0.3135	0.8549	0.2732	-0.018
Mof_H 	H 	0.4598	0.9846	0.3668	0.039
Mof_H 	H 	0.1473	0.8767	0.3208	-0.031
Mof_H 	H 	0.2017	0.0231	0.4392	0.032
Mof_H 	H 	0.4451	0.0511	0.4296	0.06
Mof_H 	H 	0.3035	0.0641	0.4814	0.059
Mof_H 	H 	0.0817	0.0403	0.2268	-0.018
Mof_H 	H 	0.1178	0.093	0.1332	0.04
Mof_H 	H 	0.0559	0.8265	0.1792	-0.031
Mof_H 	H 	0.0839	0.7625	0.0608	0.031
Mof_H 	H 	0.1215	0.0155	0.0704	0.062
Mof_H 	H 	0.0827	0.8221	0.0186	0.059
Mof_H 	H 	0.4183	0.6451	0.9586	-0.018
Mof_H 	H 	0.3822	0.5154	0.9752	0.04
Mof_H 	H 	0.4441	0.6233	0.7706	-0.031
Mof_H 	H 	0.4161	0.4769	0.6786	0.031
Mof_H 	H 	0.3785	0.4489	0.894	0.06
Mof_H 	H 	0.4173	0.4359	0.7394	0.059
Mof_H 	H 	0.1865	0.4597	0.5414	-0.018
Mof_H 	H 	0.0402	0.407	0.5248	0.04
Mof_H 	H 	0.3527	0.6735	0.7294	-0.031
Mof_H 	H 	0.2983	0.7375	0.8214	0.031
Mof_H 	H 	0.0549	0.4845	0.606	0.06
Mof_H 	H 	0.1965	0.6779	0.7606	0.059
Mof_H 	H 	0.4586	0.4183	0.1451	-0.018
Mof_H 	H 	0.4752	0.3822	0.0154	0.039
Mof_H 	H 	0.2706	0.4441	0.1233	-0.031
Mof_H 	H 	0.1786	0.4161	0.9769	0.032
Mof_H 	H 	0.394	0.3785	0.9489	0.06
Mof_H 	H 	0.2394	0.4173	0.9359	0.059
Mof_H 	H 	0.0414	0.1865	0.9597	-0.018
Mof_H 	H 	0.0248	0.0402	0.907	0.04
Mof_H 	H 	0.2294	0.3527	0.1735	-0.031
Mof_H 	H 	0.3214	0.2983	0.2375	0.031
Mof_H 	H 	0.106	0.0549	0.9845	0.062
Mof_H 	H 	0.2606	0.1965	0.1779	0.059
Mof_H 	H 	0.7732	0.3135	0.3549	-0.018
Mof_H 	H 	0.8668	0.4598	0.4846	0.04
Mof_H 	H 	0.8208	0.1473	0.3767	-0.031
Mof_H 	H 	0.9392	0.2017	0.5231	0.031
Mof_H 	H 	0.9296	0.4451	0.5511	0.06
Mof_H 	H 	0.9814	0.3035	0.5641	0.059
Mof_H 	H 	0.7268	0.0817	0.5403	-0.018
Mof_H 	H 	0.6332	0.1178	0.593	0.04
Mof_H 	H 	0.6792	0.0559	0.3265	-0.031
Mof_H 	H 	0.5608	0.0839	0.2625	0.031
Mof_H 	H 	0.5704	0.1215	0.5155	0.06
Mof_H 	H 	0.5186	0.0827	0.3221	0.059
Mof_H 	H 	0.0403	0.7268	0.5817	-0.018
Mof_H 	H 	0.093	0.6332	0.6178	0.04
Mof_H 	H 	0.8265	0.6792	0.5559	-0.031
Mof_H 	H 	0.7625	0.5608	0.5839	0.031
Mof_H 	H 	0.0155	0.5704	0.6215	0.06
Mof_H 	H 	0.8221	0.5186	0.5827	0.059
Mof_H 	H 	0.8549	0.7732	0.8135	-0.018
Mof_H 	H 	0.9846	0.8668	0.9598	0.039
Mof_H 	H 	0.8767	0.8208	0.6473	-0.031
Mof_H 	H 	0.0231	0.9392	0.7017	0.03
Mof_H 	H 	0.0511	0.9296	0.9451	0.06
Mof_H 	H 	0.0641	0.9814	0.8035	0.059
Mof_H 	H 	0.4597	0.0414	0.6865	-0.018
Mof_H 	H 	0.407	0.0248	0.5402	0.04
Mof_H 	H 	0.6735	0.2294	0.8527	-0.031
Mof_H 	H 	0.7375	0.3214	0.7983	0.031
Mof_H 	H 	0.4845	0.106	0.5549	0.06
Mof_H 	H 	0.6779	0.2606	0.6965	0.059
Mof_H 	H 	0.6451	0.4586	0.9183	-0.018
Mof_H 	H 	0.5154	0.4752	0.8822	0.04
Mof_H 	H 	0.6233	0.2706	0.9441	-0.031
Mof_H 	H 	0.4769	0.1786	0.9161	0.031
Mof_H 	H 	0.4489	0.394	0.8785	0.06
Mof_H 	H 	0.4359	0.2394	0.9173	0.059
Mof_H 	H 	0.6451	0.1865	0.2268	-0.018
Mof_H 	H 	0.5154	0.0402	0.1332	0.04
Mof_H 	H 	0.6233	0.3527	0.1792	-0.031
Mof_H 	H 	0.4769	0.2983	0.0608	0.031
Mof_H 	H 	0.4489	0.0549	0.0704	0.06
Mof_H 	H 	0.4359	0.1965	0.0186	0.059
Mof_H 	H 	0.4597	0.4183	0.2732	-0.018
Mof_H 	H 	0.407	0.3822	0.3668	0.04
Mof_H 	H 	0.6735	0.4441	0.3208	-0.031
Mof_H 	H 	0.7375	0.4161	0.4392	0.031
Mof_H 	H 	0.4845	0.3785	0.4296	0.06
Mof_H 	H 	0.6779	0.4173	0.4814	0.059
Mof_H 	H 	0.8549	0.0817	0.5414	-0.018
Mof_H 	H 	0.9846	0.1178	0.5248	0.039
Mof_H 	H 	0.8767	0.0559	0.7294	-0.031
Mof_H 	H 	0.0231	0.0839	0.8214	0.034
Mof_H 	H 	0.0511	0.1215	0.606	0.059
Mof_H 	H 	0.0641	0.0827	0.7606	0.059
Mof_H 	H 	0.0403	0.3135	0.9586	-0.018
Mof_H 	H 	0.093	0.4598	0.9752	0.04
Mof_H 	H 	0.8265	0.1473	0.7706	-0.031
Mof_H 	H 	0.7625	0.2017	0.6786	0.031
Mof_H 	H 	0.0155	0.4451	0.894	0.063
Mof_H 	H 	0.8221	0.3035	0.7394	0.059
Mof_H 	H 	0.0817	0.0414	0.3549	-0.018
Mof_H 	H 	0.1178	0.0248	0.4846	0.04
Mof_H 	H 	0.0559	0.2294	0.3767	-0.031
Mof_H 	H 	0.0839	0.3214	0.5231	0.031
Mof_H 	H 	0.1215	0.106	0.5511	0.06
Mof_H 	H 	0.0827	0.2606	0.5641	0.059
Mof_H 	H 	0.3135	0.4586	0.5403	-0.018
Mof_H 	H 	0.4598	0.4752	0.593	0.04
Mof_H 	H 	0.1473	0.2706	0.3265	-0.031
Mof_H 	H 	0.2017	0.1786	0.2625	0.031
Mof_H 	H 	0.4451	0.394	0.5155	0.06
Mof_H 	H 	0.3035	0.2394	0.3221	0.059
Mof_H 	H 	0.1865	0.7268	0.1451	-0.018
Mof_H 	H 	0.0402	0.6332	0.0154	0.038
Mof_H 	H 	0.3527	0.6792	0.1233	-0.031
Mof_H 	H 	0.2983	0.5608	0.9769	0.032
Mof_H 	H 	0.0549	0.5704	0.9489	0.06
Mof_H 	H 	0.1965	0.5186	0.9359	0.059
Mof_H 	H 	0.4183	0.7732	0.9597	-0.018
Mof_H 	H 	0.3822	0.8668	0.907	0.04
Mof_H 	H 	0.4441	0.8208	0.1735	-0.031
Mof_H 	H 	0.4161	0.9392	0.2375	0.031
Mof_H 	H 	0.3785	0.9296	0.9845	0.061
Mof_H 	H 	0.4173	0.9814	0.1779	0.059
Mof_H 	H 	0.7732	0.4597	0.9183	-0.018
Mof_H 	H 	0.8668	0.407	0.8822	0.039
Mof_H 	H 	0.8208	0.6735	0.9441	-0.031
Mof_H 	H 	0.9392	0.7375	0.9161	0.031
Mof_H 	H 	0.9296	0.4845	0.8785	0.06
Mof_H 	H 	0.9814	0.6779	0.9173	0.059
Mof_H 	H 	0.7268	0.6451	0.6865	-0.018
Mof_H 	H 	0.6332	0.5154	0.5402	0.04
Mof_H 	H 	0.6792	0.6233	0.8527	-0.031
Mof_H 	H 	0.5608	0.4769	0.7983	0.031
Mof_H 	H 	0.5704	0.4489	0.5549	0.06
Mof_H 	H 	0.5186	0.4359	0.6965	0.059
Mof_H 	H 	0.4586	0.0403	0.8135	-0.018
Mof_H 	H 	0.4752	0.093	0.9598	0.039
Mof_H 	H 	0.2706	0.8265	0.6473	-0.031
Mof_H 	H 	0.1786	0.7625	0.7017	0.031
Mof_H 	H 	0.394	0.0155	0.9451	0.06
Mof_H 	H 	0.2394	0.8221	0.8035	0.059
Mof_H 	H 	0.0414	0.8549	0.5817	-0.018
Mof_H 	H 	0.0248	0.9846	0.6178	0.039
Mof_H 	H 	0.2294	0.8767	0.5559	-0.031
Mof_H 	H 	0.3214	0.0231	0.5839	0.031
Mof_H 	H 	0.106	0.0511	0.6215	0.06
Mof_H 	H 	0.2606	0.0641	0.5827	0.059
Mof_H 	H 	0.6865	0.1451	0.7268	-0.018
Mof_H 	H 	0.5402	0.0154	0.6332	0.039
Mof_H 	H 	0.8527	0.1233	0.6792	-0.031
Mof_H 	H 	0.7983	0.9769	0.5608	0.032
Mof_H 	H 	0.5549	0.9489	0.5704	0.06
Mof_H 	H 	0.6965	0.9359	0.5186	0.059
Mof_H 	H 	0.9183	0.9597	0.7732	-0.018
Mof_H 	H 	0.8822	0.907	0.8668	0.04
Mof_H 	H 	0.9441	0.1735	0.8208	-0.031
Mof_H 	H 	0.9161	0.2375	0.9392	0.031
Mof_H 	H 	0.8785	0.9845	0.9296	0.062
Mof_H 	H 	0.9173	0.1779	0.9814	0.059
Mof_H 	H 	0.5817	0.3549	0.0414	-0.018
Mof_H 	H 	0.6178	0.4846	0.0248	0.04
Mof_H 	H 	0.5559	0.3767	0.2294	-0.031
Mof_H 	H 	0.5839	0.5231	0.3214	0.031
Mof_H 	H 	0.6215	0.5511	0.106	0.06
Mof_H 	H 	0.5827	0.5641	0.2606	0.059
Mof_H 	H 	0.8135	0.5403	0.4586	-0.018
Mof_H 	H 	0.9598	0.593	0.4752	0.04
Mof_H 	H 	0.6473	0.3265	0.2706	-0.031
Mof_H 	H 	0.7017	0.2625	0.1786	0.031
Mof_H 	H 	0.9451	0.5155	0.394	0.06
Mof_H 	H 	0.8035	0.3221	0.2394	0.059
Mof_H 	H 	0.5414	0.5817	0.8549	-0.018
Mof_H 	H 	0.5248	0.6178	0.9846	0.039
Mof_H 	H 	0.7294	0.5559	0.8767	-0.031
Mof_H 	H 	0.8214	0.5839	0.0231	0.032
Mof_H 	H 	0.606	0.6215	0.0511	0.06
Mof_H 	H 	0.7606	0.5827	0.0641	0.059
Mof_H 	H 	0.9586	0.8135	0.0403	-0.018
Mof_H 	H 	0.9752	0.9598	0.093	0.04
Mof_H 	H 	0.7706	0.6473	0.8265	-0.031
Mof_H 	H 	0.6786	0.7017	0.7625	0.031
Mof_H 	H 	0.894	0.9451	0.0155	0.062
Mof_H 	H 	0.7394	0.8035	0.8221	0.059
Mof_H 	H 	0.2268	0.6865	0.6451	-0.018
Mof_H 	H 	0.1332	0.5402	0.5154	0.04
Mof_H 	H 	0.1792	0.8527	0.6233	-0.031
Mof_H 	H 	0.0608	0.7983	0.4769	0.031
Mof_H 	H 	0.0704	0.5549	0.4489	0.06
Mof_H 	H 	0.0186	0.6965	0.4359	0.059
Mof_H 	H 	0.2732	0.9183	0.4597	-0.018
Mof_H 	H 	0.3668	0.8822	0.407	0.04
Mof_H 	H 	0.3208	0.9441	0.6735	-0.031
Mof_H 	H 	0.4392	0.9161	0.7375	0.031
Mof_H 	H 	0.4296	0.8785	0.4845	0.06
Mof_H 	H 	0.4814	0.9173	0.6779	0.059
Mof_H 	H 	0.9597	0.2732	0.4183	-0.018
Mof_H 	H 	0.907	0.3668	0.3822	0.04
Mof_H 	H 	0.1735	0.3208	0.4441	-0.031
Mof_H 	H 	0.2375	0.4392	0.4161	0.031
Mof_H 	H 	0.9845	0.4296	0.3785	0.06
Mof_H 	H 	0.1779	0.4814	0.4173	0.059
Mof_H 	H 	0.1451	0.2268	0.1865	-0.018
Mof_H 	H 	0.0154	0.1332	0.0402	0.039
Mof_H 	H 	0.1233	0.1792	0.3527	-0.031
Mof_H 	H 	0.9769	0.0608	0.2983	0.03
Mof_H 	H 	0.9489	0.0704	0.0549	0.06
Mof_H 	H 	0.9359	0.0186	0.1965	0.059
Mof_H 	H 	0.5403	0.9586	0.3135	-0.018
Mof_H 	H 	0.593	0.9752	0.4598	0.04
Mof_H 	H 	0.3265	0.7706	0.1473	-0.031
Mof_H 	H 	0.2625	0.6786	0.2017	0.031
Mof_H 	H 	0.5155	0.894	0.4451	0.06
Mof_H 	H 	0.3221	0.7394	0.3035	0.059
Mof_H 	H 	0.3549	0.5414	0.0817	-0.018
Mof_H 	H 	0.4846	0.5248	0.1178	0.04
Mof_H 	H 	0.3767	0.7294	0.0559	-0.031
Mof_H 	H 	0.5231	0.8214	0.0839	0.031
Mof_H 	H 	0.5511	0.606	0.1215	0.06
Mof_H 	H 	0.5641	0.7606	0.0827	0.059
Mof_H 	H 	0.3549	0.8135	0.7732	-0.018
Mof_H 	H 	0.4846	0.9598	0.8668	0.04
Mof_H 	H 	0.3767	0.6473	0.8208	-0.031
Mof_H 	H 	0.5231	0.7017	0.9392	0.031
Mof_H 	H 	0.5511	0.9451	0.9296	0.06
Mof_H 	H 	0.5641	0.8035	0.9814	0.059
Mof_H 	H 	0.5403	0.5817	0.7268	-0.018
Mof_H 	H 	0.593	0.6178	0.6332	0.04
Mof_H 	H 	0.3265	0.5559	0.6792	-0.031
Mof_H 	H 	0.2625	0.5839	0.5608	0.031
Mof_H 	H 	0.5155	0.6215	0.5704	0.06
Mof_H 	H 	0.3221	0.5827	0.5186	0.059
Mof_H 	H 	0.1451	0.9183	0.4586	-0.018
Mof_H 	H 	0.0154	0.8822	0.4752	0.039
Mof_H 	H 	0.1233	0.9441	0.2706	-0.031
Mof_H 	H 	0.9769	0.9161	0.1786	0.034
Mof_H 	H 	0.9489	0.8785	0.394	0.059
Mof_H 	H 	0.9359	0.9173	0.2394	0.059
Mof_H 	H 	0.9597	0.6865	0.0414	-0.018
Mof_H 	H 	0.907	0.5402	0.0248	0.04
Mof_H 	H 	0.1735	0.8527	0.2294	-0.031
Mof_H 	H 	0.2375	0.7983	0.3214	0.031
Mof_H 	H 	0.9845	0.5549	0.106	0.063
Mof_H 	H 	0.1779	0.6965	0.2606	0.059
Mof_H 	H 	0.9183	0.9586	0.6451	-0.018
Mof_H 	H 	0.8822	0.9752	0.5154	0.04
Mof_H 	H 	0.9441	0.7706	0.6233	-0.031
Mof_H 	H 	0.9161	0.6786	0.4769	0.031
Mof_H 	H 	0.8785	0.894	0.4489	0.06
Mof_H 	H 	0.9173	0.7394	0.4359	0.059
Mof_H 	H 	0.6865	0.5414	0.4597	-0.018
Mof_H 	H 	0.5402	0.5248	0.407	0.04
Mof_H 	H 	0.8527	0.7294	0.6735	-0.031
Mof_H 	H 	0.7983	0.8214	0.7375	0.031
Mof_H 	H 	0.5549	0.606	0.4845	0.06
Mof_H 	H 	0.6965	0.7606	0.6779	0.059
Mof_H 	H 	0.8135	0.2732	0.8549	-0.018
Mof_H 	H 	0.9598	0.3668	0.9846	0.038
Mof_H 	H 	0.6473	0.3208	0.8767	-0.031
Mof_H 	H 	0.7017	0.4392	0.0231	0.032
Mof_H 	H 	0.9451	0.4296	0.0511	0.06
Mof_H 	H 	0.8035	0.4814	0.0641	0.059
Mof_H 	H 	0.5817	0.2268	0.0403	-0.018
Mof_H 	H 	0.6178	0.1332	0.093	0.04
Mof_H 	H 	0.5559	0.1792	0.8265	-0.031
Mof_H 	H 	0.5839	0.0608	0.7625	0.031
Mof_H 	H 	0.6215	0.0704	0.0155	0.061
Mof_H 	H 	0.5827	0.0186	0.8221	0.059
Mof_H 	H 	0.2268	0.5403	0.0817	-0.018
Mof_H 	H 	0.1332	0.593	0.1178	0.039
Mof_H 	H 	0.1792	0.3265	0.0559	-0.031
Mof_H 	H 	0.0608	0.2625	0.0839	0.031
Mof_H 	H 	0.0704	0.5155	0.1215	0.06
Mof_H 	H 	0.0186	0.3221	0.0827	0.059
Mof_H 	H 	0.2732	0.3549	0.3135	-0.018
Mof_H 	H 	0.3668	0.4846	0.4598	0.04
Mof_H 	H 	0.3208	0.3767	0.1473	-0.031
Mof_H 	H 	0.4392	0.5231	0.2017	0.031
Mof_H 	H 	0.4296	0.5511	0.4451	0.06
Mof_H 	H 	0.4814	0.5641	0.3035	0.059
Mof_H 	H 	0.5414	0.9597	0.1865	-0.018
Mof_H 	H 	0.5248	0.907	0.0402	0.039
Mof_H 	H 	0.7294	0.1735	0.3527	-0.031
Mof_H 	H 	0.8214	0.2375	0.2983	0.031
Mof_H 	H 	0.606	0.9845	0.0549	0.06
Mof_H 	H 	0.7606	0.1779	0.1965	0.059
Mof_H 	H 	0.9586	0.1451	0.4183	-0.018
Mof_H 	H 	0.9752	0.0154	0.3822	0.039
Mof_H 	H 	0.7706	0.1233	0.4441	-0.031
Mof_H 	H 	0.6786	0.9769	0.4161	0.031
Mof_H 	H 	0.894	0.9489	0.3785	0.06
Mof_H 	H 	0.7394	0.9359	0.4173	0.059
Mof_C 	C 	0.34237	0.89036	0.30013	0.097
Mof_C 	C 	0.24402	0.99051	0.40985	0.06
Mof_C 	C 	0.42231	0.96065	0.35092	-0.027
Mof_C 	C 	0.3879	0.97317	0.36673	0.055
Mof_C 	C 	0.17092	0.91305	0.34919	0.097
Mof_C 	C 	0.19984	0.99289	0.41393	-0.032
Mof_C 	C 	0.408	0.02627	0.41367	-0.052
Mof_C 	C 	0.3004	0.0376	0.451	-0.078
Mof_C 	C 	0.09023	0.04224	0.19987	0.097
Mof_C 	C 	0.08066	0.83417	0.09015	0.06
Mof_C 	C 	0.10973	0.07139	0.14908	-0.028
Mof_C 	C 	0.10644	0.02117	0.13327	0.058
Mof_C 	C 	0.06386	0.82173	0.15081	0.097
Mof_C 	C 	0.07896	0.78591	0.08607	-0.031
Mof_C 	C 	0.1126	0.99433	0.08633	-0.057
Mof_C 	C 	0.0866	0.8494	0.049	-0.079
Mof_C 	C 	0.40977	0.60964	0.95201	0.097
Mof_C 	C 	0.41934	0.50949	0.75351	0.061
Mof_C 	C 	0.39027	0.53935	0.96166	-0.027
Mof_C 	C 	0.39356	0.52683	0.91473	0.055
Mof_C 	C 	0.43614	0.58695	0.75787	0.097
Mof_C 	C 	0.42104	0.50711	0.70695	-0.03
Mof_C 	C 	0.3874	0.47373	0.88173	-0.053
Mof_C 	C 	0.4134	0.4624	0.7628	-0.079
Mof_C 	C 	0.15763	0.45776	0.54799	0.097
Mof_C 	C 	0.25598	0.66583	0.74649	0.061
Mof_C 	C 	0.07769	0.42861	0.53834	-0.027
Mof_C 	C 	0.1121	0.47883	0.58527	0.055
Mof_C 	C 	0.32908	0.67827	0.74213	0.097
Mof_C 	C 	0.30016	0.71409	0.79305	-0.03
Mof_C 	C 	0.092	0.50567	0.61827	-0.053
Mof_C 	C 	0.1996	0.6506	0.7372	-0.079
Mof_C 	C 	0.45201	0.40977	0.10964	0.097
Mof_C 	C 	0.25351	0.41934	0.00949	0.06
Mof_C 	C 	0.46166	0.39027	0.03935	-0.027
Mof_C 	C 	0.41473	0.39356	0.02683	0.055
Mof_C 	C 	0.25787	0.43614	0.08695	0.097
Mof_C 	C 	0.20695	0.42104	0.00711	-0.033
Mof_C 	C 	0.38173	0.3874	0.97373	-0.052
Mof_C 	C 	0.2628	0.4134	0.9624	-0.078
Mof_C 	C 	0.04799	0.15763	0.95776	0.098
Mof_C 	C 	0.24649	0.25598	0.16583	0.061
Mof_C 	C 	0.03834	0.07769	0.92861	-0.028
Mof_C 	C 	0.08527	0.1121	0.97883	0.058
Mof_C 	C 	0.24213	0.32908	0.17827	0.097
Mof_C 	C 	0.29305	0.30016	0.21409	-0.03
Mof_C 	C 	0.11827	0.092	0.00567	-0.057
Mof_C 	C 	0.2372	0.1996	0.1506	-0.079
Mof_C 	C 	0.80013	0.34237	0.39036	0.097
Mof_C 	C 	0.90985	0.24402	0.49051	0.06
Mof_C 	C 	0.85092	0.42231	0.46065	-0.027
Mof_C 	C 	0.86673	0.3879	0.47317	0.055
Mof_C 	C 	0.84919	0.17092	0.41305	0.097
Mof_C 	C 	0.91393	0.19984	0.49289	-0.03
Mof_C 	C 	0.91367	0.408	0.52627	-0.053
Mof_C 	C 	0.951	0.3004	0.5376	-0.079
Mof_C 	C 	0.69987	0.09023	0.54224	0.097
Mof_C 	C 	0.59015	0.08066	0.33417	0.061
Mof_C 	C 	0.64908	0.10973	0.57139	-0.027
Mof_C 	C 	0.63327	0.10644	0.52117	0.055
Mof_C 	C 	0.65081	0.06386	0.32173	0.097
Mof_C 	C 	0.58607	0.07896	0.28591	-0.03
Mof_C 	C 	0.58633	0.1126	0.49433	-0.053
Mof_C 	C 	0.549	0.0866	0.3494	-0.079
Mof_C 	C 	0.04224	0.69987	0.59023	0.097
Mof_C 	C 	0.83417	0.59015	0.58066	0.061
Mof_C 	C 	0.07139	0.64908	0.60973	-0.027
Mof_C 	C 	0.02117	0.63327	0.60644	0.056
Mof_C 	C 	0.82173	0.65081	0.56386	0.097
Mof_C 	C 	0.78591	0.58607	0.57896	-0.03
Mof_C 	C 	0.99433	0.58633	0.6126	-0.053
Mof_C 	C 	0.8494	0.549	0.5866	-0.079
Mof_C 	C 	0.89036	0.80013	0.84237	0.097
Mof_C 	C 	0.99051	0.90985	0.74402	0.06
Mof_C 	C 	0.96065	0.85092	0.92231	-0.027
Mof_C 	C 	0.97317	0.86673	0.8879	0.055
Mof_C 	C 	0.91305	0.84919	0.67092	0.097
Mof_C 	C 	0.99289	0.91393	0.69984	-0.03
Mof_C 	C 	0.02627	0.91367	0.908	-0.052
Mof_C 	C 	0.0376	0.951	0.8004	-0.079
Mof_C 	C 	0.45776	0.04799	0.65763	0.097
Mof_C 	C 	0.66583	0.24649	0.75598	0.061
Mof_C 	C 	0.42861	0.03834	0.57769	-0.027
Mof_C 	C 	0.47883	0.08527	0.6121	0.055
Mof_C 	C 	0.67827	0.24213	0.82908	0.097
Mof_C 	C 	0.71409	0.29305	0.80016	-0.03
Mof_C 	C 	0.50567	0.11827	0.592	-0.053
Mof_C 	C 	0.6506	0.2372	0.6996	-0.079
Mof_C 	C 	0.60964	0.45201	0.90977	0.097
Mof_C 	C 	0.50949	0.25351	0.91934	0.06
Mof_C 	C 	0.53935	0.46166	0.89027	-0.027
Mof_C 	C 	0.52683	0.41473	0.89356	0.055
Mof_C 	C 	0.58695	0.25787	0.93614	0.097
Mof_C 	C 	0.50711	0.20695	0.92104	-0.03
Mof_C 	C 	0.47373	0.38173	0.8874	-0.053
Mof_C 	C 	0.4624	0.2628	0.9134	-0.079
Mof_C 	C 	0.60964	0.15763	0.19987	0.097
Mof_C 	C 	0.50949	0.25598	0.09015	0.06
Mof_C 	C 	0.53935	0.07769	0.14908	-0.027
Mof_C 	C 	0.52683	0.1121	0.13327	0.055
Mof_C 	C 	0.58695	0.32908	0.15081	0.097
Mof_C 	C 	0.50711	0.30016	0.08607	-0.03
Mof_C 	C 	0.47373	0.092	0.08633	-0.053
Mof_C 	C 	0.4624	0.1996	0.049	-0.079
Mof_C 	C 	0.45776	0.40977	0.30013	0.097
Mof_C 	C 	0.66583	0.41934	0.40985	0.061
Mof_C 	C 	0.42861	0.39027	0.35092	-0.027
Mof_C 	C 	0.47883	0.39356	0.36673	0.055
Mof_C 	C 	0.67827	0.43614	0.34919	0.097
Mof_C 	C 	0.71409	0.42104	0.41393	-0.03
Mof_C 	C 	0.50567	0.3874	0.41367	-0.053
Mof_C 	C 	0.6506	0.4134	0.451	-0.079
Mof_C 	C 	0.89036	0.09023	0.54799	0.097
Mof_C 	C 	0.99051	0.08066	0.74649	0.06
Mof_C 	C 	0.96065	0.10973	0.53834	-0.026
Mof_C 	C 	0.97317	0.10644	0.58527	0.053
Mof_C 	C 	0.91305	0.06386	0.74213	0.097
Mof_C 	C 	0.99289	0.07896	0.79305	-0.035
Mof_C 	C 	0.02627	0.1126	0.61827	-0.051
Mof_C 	C 	0.0376	0.0866	0.7372	-0.077
Mof_C 	C 	0.04224	0.34237	0.95201	0.098
Mof_C 	C 	0.83417	0.24402	0.75351	0.06
Mof_C 	C 	0.07139	0.42231	0.96166	-0.028
Mof_C 	C 	0.02117	0.3879	0.91473	0.059
Mof_C 	C 	0.82173	0.17092	0.75787	0.097
Mof_C 	C 	0.78591	0.19984	0.70695	-0.03
Mof_C 	C 	0.99433	0.408	0.88173	-0.059
Mof_C 	C 	0.8494	0.3004	0.7628	-0.079
Mof_C 	C 	0.09023	0.04799	0.39036	0.098
Mof_C 	C 	0.08066	0.24649	0.49051	0.061
Mof_C 	C 	0.10973	0.03834	0.46065	-0.027
Mof_C 	C 	0.10644	0.08527	0.47317	0.055
Mof_C 	C 	0.06386	0.24213	0.41305	0.097
Mof_C 	C 	0.07896	0.29305	0.49289	-0.03
Mof_C 	C 	0.1126	0.11827	0.52627	-0.053
Mof_C 	C 	0.0866	0.2372	0.5376	-0.079
Mof_C 	C 	0.34237	0.45201	0.54224	0.097
Mof_C 	C 	0.24402	0.25351	0.33417	0.061
Mof_C 	C 	0.42231	0.46166	0.57139	-0.027
Mof_C 	C 	0.3879	0.41473	0.52117	0.055
Mof_C 	C 	0.17092	0.25787	0.32173	0.097
Mof_C 	C 	0.19984	0.20695	0.28591	-0.03
Mof_C 	C 	0.408	0.38173	0.49433	-0.053
Mof_C 	C 	0.3004	0.2628	0.3494	-0.079
Mof_C 	C 	0.15763	0.69987	0.10964	0.097
Mof_C 	C 	0.25598	0.59015	0.00949	0.06
Mof_C 	C 	0.07769	0.64908	0.03935	-0.026
Mof_C 	C 	0.1121	0.63327	0.02683	0.053
Mof_C 	C 	0.32908	0.65081	0.08695	0.097
Mof_C 	C 	0.30016	0.58607	0.00711	-0.032
Mof_C 	C 	0.092	0.58633	0.97373	-0.05
Mof_C 	C 	0.1996	0.549	0.9624	-0.078
Mof_C 	C 	0.40977	0.80013	0.95776	0.097
Mof_C 	C 	0.41934	0.90985	0.16583	0.06
Mof_C 	C 	0.39027	0.85092	0.92861	-0.027
Mof_C 	C 	0.39356	0.86673	0.97883	0.057
Mof_C 	C 	0.43614	0.84919	0.17827	0.097
Mof_C 	C 	0.42104	0.91393	0.21409	-0.03
Mof_C 	C 	0.3874	0.91367	0.00567	-0.055
Mof_C 	C 	0.4134	0.951	0.1506	-0.079
Mof_C 	C 	0.80013	0.45776	0.90977	0.097
Mof_C 	C 	0.90985	0.66583	0.91934	0.06
Mof_C 	C 	0.85092	0.42861	0.89027	-0.027
Mof_C 	C 	0.86673	0.47883	0.89356	0.055
Mof_C 	C 	0.84919	0.67827	0.93614	0.097
Mof_C 	C 	0.91393	0.71409	0.92104	-0.03
Mof_C 	C 	0.91367	0.50567	0.8874	-0.053
Mof_C 	C 	0.951	0.6506	0.9134	-0.079
Mof_C 	C 	0.69987	0.60964	0.65763	0.097
Mof_C 	C 	0.59015	0.50949	0.75598	0.061
Mof_C 	C 	0.64908	0.53935	0.57769	-0.027
Mof_C 	C 	0.63327	0.52683	0.6121	0.055
Mof_C 	C 	0.65081	0.58695	0.82908	0.097
Mof_C 	C 	0.58607	0.50711	0.80016	-0.03
Mof_C 	C 	0.58633	0.47373	0.592	-0.053
Mof_C 	C 	0.549	0.4624	0.6996	-0.079
Mof_C 	C 	0.45201	0.04224	0.84237	0.097
Mof_C 	C 	0.25351	0.83417	0.74402	0.061
Mof_C 	C 	0.46166	0.07139	0.92231	-0.027
Mof_C 	C 	0.41473	0.02117	0.8879	0.056
Mof_C 	C 	0.25787	0.82173	0.67092	0.097
Mof_C 	C 	0.20695	0.78591	0.69984	-0.03
Mof_C 	C 	0.38173	0.99433	0.908	-0.053
Mof_C 	C 	0.2628	0.8494	0.8004	-0.079
Mof_C 	C 	0.04799	0.89036	0.59023	0.097
Mof_C 	C 	0.24649	0.99051	0.58066	0.06
Mof_C 	C 	0.03834	0.96065	0.60973	-0.026
Mof_C 	C 	0.08527	0.97317	0.60644	0.054
Mof_C 	C 	0.24213	0.91305	0.56386	0.097
Mof_C 	C 	0.29305	0.99289	0.57896	-0.031
Mof_C 	C 	0.11827	0.02627	0.6126	-0.051
Mof_C 	C 	0.2372	0.0376	0.5866	-0.078
Mof_C 	C 	0.65763	0.10964	0.69987	0.097
Mof_C 	C 	0.75598	0.00949	0.59015	0.06
Mof_C 	C 	0.57769	0.03935	0.64908	-0.027
Mof_C 	C 	0.6121	0.02683	0.63327	0.055
Mof_C 	C 	0.82908	0.08695	0.65081	0.097
Mof_C 	C 	0.80016	0.00711	0.58607	-0.032
Mof_C 	C 	0.592	0.97373	0.58633	-0.052
Mof_C 	C 	0.6996	0.9624	0.549	-0.078
Mof_C 	C 	0.90977	0.95776	0.80013	0.097
Mof_C 	C 	0.91934	0.16583	0.90985	0.06
Mof_C 	C 	0.89027	0.92861	0.85092	-0.028
Mof_C 	C 	0.89356	0.97883	0.86673	0.058
Mof_C 	C 	0.93614	0.17827	0.84919	0.097
Mof_C 	C 	0.92104	0.21409	0.91393	-0.031
Mof_C 	C 	0.8874	0.00567	0.91367	-0.057
Mof_C 	C 	0.9134	0.1506	0.951	-0.079
Mof_C 	C 	0.59023	0.39036	0.04799	0.097
Mof_C 	C 	0.58066	0.49051	0.24649	0.061
Mof_C 	C 	0.60973	0.46065	0.03834	-0.027
Mof_C 	C 	0.60644	0.47317	0.08527	0.055
Mof_C 	C 	0.56386	0.41305	0.24213	0.097
Mof_C 	C 	0.57896	0.49289	0.29305	-0.03
Mof_C 	C 	0.6126	0.52627	0.11827	-0.053
Mof_C 	C 	0.5866	0.5376	0.2372	-0.079
Mof_C 	C 	0.84237	0.54224	0.45201	0.097
Mof_C 	C 	0.74402	0.33417	0.25351	0.061
Mof_C 	C 	0.92231	0.57139	0.46166	-0.027
Mof_C 	C 	0.8879	0.52117	0.41473	0.055
Mof_C 	C 	0.67092	0.32173	0.25787	0.097
Mof_C 	C 	0.69984	0.28591	0.20695	-0.03
Mof_C 	C 	0.908	0.49433	0.38173	-0.053
Mof_C 	C 	0.8004	0.3494	0.2628	-0.079
Mof_C 	C 	0.54799	0.59023	0.89036	0.097
Mof_C 	C 	0.74649	0.58066	0.99051	0.06
Mof_C 	C 	0.53834	0.60973	0.96065	-0.027
Mof_C 	C 	0.58527	0.60644	0.97317	0.055
Mof_C 	C 	0.74213	0.56386	0.91305	0.097
Mof_C 	C 	0.79305	0.57896	0.99289	-0.033
Mof_C 	C 	0.61827	0.6126	0.02627	-0.052
Mof_C 	C 	0.7372	0.5866	0.0376	-0.078
Mof_C 	C 	0.95201	0.84237	0.04224	0.098
Mof_C 	C 	0.75351	0.74402	0.83417	0.061
Mof_C 	C 	0.96166	0.92231	0.07139	-0.028
Mof_C 	C 	0.91473	0.8879	0.02117	0.058
Mof_C 	C 	0.75787	0.67092	0.82173	0.097
Mof_C 	C 	0.70695	0.69984	0.78591	-0.03
Mof_C 	C 	0.88173	0.908	0.99433	-0.057
Mof_C 	C 	0.7628	0.8004	0.8494	-0.079
Mof_C 	C 	0.19987	0.65763	0.60964	0.097
Mof_C 	C 	0.09015	0.75598	0.50949	0.06
Mof_C 	C 	0.14908	0.57769	0.53935	-0.027
Mof_C 	C 	0.13327	0.6121	0.52683	0.055
Mof_C 	C 	0.15081	0.82908	0.58695	0.097
Mof_C 	C 	0.08607	0.80016	0.50711	-0.03
Mof_C 	C 	0.08633	0.592	0.47373	-0.053
Mof_C 	C 	0.049	0.6996	0.4624	-0.079
Mof_C 	C 	0.30013	0.90977	0.45776	0.097
Mof_C 	C 	0.40985	0.91934	0.66583	0.061
Mof_C 	C 	0.35092	0.89027	0.42861	-0.027
Mof_C 	C 	0.36673	0.89356	0.47883	0.055
Mof_C 	C 	0.34919	0.93614	0.67827	0.097
Mof_C 	C 	0.41393	0.92104	0.71409	-0.03
Mof_C 	C 	0.41367	0.8874	0.50567	-0.053
Mof_C 	C 	0.451	0.9134	0.6506	-0.079
Mof_C 	C 	0.95776	0.30013	0.40977	0.097
Mof_C 	C 	0.16583	0.40985	0.41934	0.061
Mof_C 	C 	0.92861	0.35092	0.39027	-0.027
Mof_C 	C 	0.97883	0.36673	0.39356	0.056
Mof_C 	C 	0.17827	0.34919	0.43614	0.097
Mof_C 	C 	0.21409	0.41393	0.42104	-0.03
Mof_C 	C 	0.00567	0.41367	0.3874	-0.053
Mof_C 	C 	0.1506	0.451	0.4134	-0.079
Mof_C 	C 	0.10964	0.19987	0.15763	0.097
Mof_C 	C 	0.00949	0.09015	0.25598	0.06
Mof_C 	C 	0.03935	0.14908	0.07769	-0.027
Mof_C 	C 	0.02683	0.13327	0.1121	0.055
Mof_C 	C 	0.08695	0.15081	0.32908	0.097
Mof_C 	C 	0.00711	0.08607	0.30016	-0.03
Mof_C 	C 	0.97373	0.08633	0.092	-0.052
Mof_C 	C 	0.9624	0.049	0.1996	-0.079
Mof_C 	C 	0.54224	0.95201	0.34237	0.097
Mof_C 	C 	0.33417	0.75351	0.24402	0.061
Mof_C 	C 	0.57139	0.96166	0.42231	-0.027
Mof_C 	C 	0.52117	0.91473	0.3879	0.055
Mof_C 	C 	0.32173	0.75787	0.17092	0.097
Mof_C 	C 	0.28591	0.70695	0.19984	-0.03
Mof_C 	C 	0.49433	0.88173	0.408	-0.053
Mof_C 	C 	0.3494	0.7628	0.3004	-0.079
Mof_C 	C 	0.39036	0.54799	0.09023	0.097
Mof_C 	C 	0.49051	0.74649	0.08066	0.06
Mof_C 	C 	0.46065	0.53834	0.10973	-0.027
Mof_C 	C 	0.47317	0.58527	0.10644	0.055
Mof_C 	C 	0.41305	0.74213	0.06386	0.097
Mof_C 	C 	0.49289	0.79305	0.07896	-0.03
Mof_C 	C 	0.52627	0.61827	0.1126	-0.053
Mof_C 	C 	0.5376	0.7372	0.0866	-0.079
Mof_C 	C 	0.39036	0.84237	0.80013	0.097
Mof_C 	C 	0.49051	0.74402	0.90985	0.06
Mof_C 	C 	0.46065	0.92231	0.85092	-0.027
Mof_C 	C 	0.47317	0.8879	0.86673	0.055
Mof_C 	C 	0.41305	0.67092	0.84919	0.097
Mof_C 	C 	0.49289	0.69984	0.91393	-0.03
Mof_C 	C 	0.52627	0.908	0.91367	-0.053
Mof_C 	C 	0.5376	0.8004	0.951	-0.079
Mof_C 	C 	0.54224	0.59023	0.69987	0.097
Mof_C 	C 	0.33417	0.58066	0.59015	0.061
Mof_C 	C 	0.57139	0.60973	0.64908	-0.027
Mof_C 	C 	0.52117	0.60644	0.63327	0.055
Mof_C 	C 	0.32173	0.56386	0.65081	0.097
Mof_C 	C 	0.28591	0.57896	0.58607	-0.03
Mof_C 	C 	0.49433	0.6126	0.58633	-0.053
Mof_C 	C 	0.3494	0.5866	0.549	-0.079
Mof_C 	C 	0.10964	0.90977	0.45201	0.097
Mof_C 	C 	0.00949	0.91934	0.25351	0.06
Mof_C 	C 	0.03935	0.89027	0.46166	-0.026
Mof_C 	C 	0.02683	0.89356	0.41473	0.053
Mof_C 	C 	0.08695	0.93614	0.25787	0.097
Mof_C 	C 	0.00711	0.92104	0.20695	-0.035
Mof_C 	C 	0.97373	0.8874	0.38173	-0.051
Mof_C 	C 	0.9624	0.9134	0.2628	-0.077
Mof_C 	C 	0.95776	0.65763	0.04799	0.098
Mof_C 	C 	0.16583	0.75598	0.24649	0.06
Mof_C 	C 	0.92861	0.57769	0.03834	-0.028
Mof_C 	C 	0.97883	0.6121	0.08527	0.059
Mof_C 	C 	0.17827	0.82908	0.24213	0.097
Mof_C 	C 	0.21409	0.80016	0.29305	-0.03
Mof_C 	C 	0.00567	0.592	0.11827	-0.059
Mof_C 	C 	0.1506	0.6996	0.2372	-0.079
Mof_C 	C 	0.90977	0.95201	0.60964	0.098
Mof_C 	C 	0.91934	0.75351	0.50949	0.061
Mof_C 	C 	0.89027	0.96166	0.53935	-0.027
Mof_C 	C 	0.89356	0.91473	0.52683	0.055
Mof_C 	C 	0.93614	0.75787	0.58695	0.097
Mof_C 	C 	0.92104	0.70695	0.50711	-0.03
Mof_C 	C 	0.8874	0.88173	0.47373	-0.053
Mof_C 	C 	0.9134	0.7628	0.4624	-0.079
Mof_C 	C 	0.65763	0.54799	0.45776	0.097
Mof_C 	C 	0.75598	0.74649	0.66583	0.061
Mof_C 	C 	0.57769	0.53834	0.42861	-0.027
Mof_C 	C 	0.6121	0.58527	0.47883	0.055
Mof_C 	C 	0.82908	0.74213	0.67827	0.097
Mof_C 	C 	0.80016	0.79305	0.71409	-0.03
Mof_C 	C 	0.592	0.61827	0.50567	-0.053
Mof_C 	C 	0.6996	0.7372	0.6506	-0.079
Mof_C 	C 	0.84237	0.30013	0.89036	0.097
Mof_C 	C 	0.74402	0.40985	0.99051	0.06
Mof_C 	C 	0.92231	0.35092	0.96065	-0.026
Mof_C 	C 	0.8879	0.36673	0.97317	0.053
Mof_C 	C 	0.67092	0.34919	0.91305	0.097
Mof_C 	C 	0.69984	0.41393	0.99289	-0.032
Mof_C 	C 	0.908	0.41367	0.02627	-0.05
Mof_C 	C 	0.8004	0.451	0.0376	-0.078
Mof_C 	C 	0.59023	0.19987	0.04224	0.097
Mof_C 	C 	0.58066	0.09015	0.83417	0.06
Mof_C 	C 	0.60973	0.14908	0.07139	-0.027
Mof_C 	C 	0.60644	0.13327	0.02117	0.057
Mof_C 	C 	0.56386	0.15081	0.82173	0.097
Mof_C 	C 	0.57896	0.08607	0.78591	-0.03
Mof_C 	C 	0.6126	0.08633	0.99433	-0.055
Mof_C 	C 	0.5866	0.049	0.8494	-0.079
Mof_C 	C 	0.19987	0.54224	0.09023	0.097
Mof_C 	C 	0.09015	0.33417	0.08066	0.06
Mof_C 	C 	0.14908	0.57139	0.10973	-0.027
Mof_C 	C 	0.13327	0.52117	0.10644	0.055
Mof_C 	C 	0.15081	0.32173	0.06386	0.097
Mof_C 	C 	0.08607	0.28591	0.07896	-0.03
Mof_C 	C 	0.08633	0.49433	0.1126	-0.053
Mof_C 	C 	0.049	0.3494	0.0866	-0.079
Mof_C 	C 	0.30013	0.39036	0.34237	0.097
Mof_C 	C 	0.40985	0.49051	0.24402	0.061
Mof_C 	C 	0.35092	0.46065	0.42231	-0.027
Mof_C 	C 	0.36673	0.47317	0.3879	0.055
Mof_C 	C 	0.34919	0.41305	0.17092	0.097
Mof_C 	C 	0.41393	0.49289	0.19984	-0.03
Mof_C 	C 	0.41367	0.52627	0.408	-0.053
Mof_C 	C 	0.451	0.5376	0.3004	-0.079
Mof_C 	C 	0.54799	0.95776	0.15763	0.097
Mof_C 	C 	0.74649	0.16583	0.25598	0.061
Mof_C 	C 	0.53834	0.92861	0.07769	-0.027
Mof_C 	C 	0.58527	0.97883	0.1121	0.056
Mof_C 	C 	0.74213	0.17827	0.32908	0.097
Mof_C 	C 	0.79305	0.21409	0.30016	-0.03
Mof_C 	C 	0.61827	0.00567	0.092	-0.053
Mof_C 	C 	0.7372	0.1506	0.1996	-0.079
Mof_C 	C 	0.95201	0.10964	0.40977	0.097
Mof_C 	C 	0.75351	0.00949	0.41934	0.06
Mof_C 	C 	0.96166	0.03935	0.39027	-0.026
Mof_C 	C 	0.91473	0.02683	0.39356	0.054
Mof_C 	C 	0.75787	0.08695	0.43614	0.097
Mof_C 	C 	0.70695	0.00711	0.42104	-0.031
Mof_C 	C 	0.88173	0.97373	0.3874	-0.051
Mof_C 	C 	0.7628	0.9624	0.4134	-0.078
Mof_N 	N 	0.3361	0.92763	0.33337	-0.24
Mof_N 	N 	0.39362	0.90827	0.30881	-0.197
Mof_N 	N 	0.22474	0.93921	0.36797	-0.241
Mof_N 	N 	0.15373	0.94432	0.37537	-0.224
Mof_N 	N 	0.3273	0.00695	0.41005	-0.161
Mof_N 	N 	0.38326	0.04485	0.43697	-0.072
Mof_N 	N 	0.09426	0.00273	0.16663	-0.24
Mof_N 	N 	0.09946	0.08481	0.19119	-0.197
Mof_N 	N 	0.07124	0.85677	0.13203	-0.241
Mof_N 	N 	0.06895	0.77836	0.12463	-0.225
Mof_N 	N 	0.0969	0.91725	0.08995	-0.162
Mof_N 	N 	0.10788	0.94629	0.06303	-0.072
Mof_N 	N 	0.40574	0.57237	0.90847	-0.24
Mof_N 	N 	0.40054	0.59173	0.98535	-0.197
Mof_N 	N 	0.42876	0.56079	0.78553	-0.241
Mof_N 	N 	0.43105	0.55568	0.70941	-0.224
Mof_N 	N 	0.4031	0.49305	0.82035	-0.161
Mof_N 	N 	0.39212	0.45515	0.83841	-0.072
Mof_N 	N 	0.1639	0.49727	0.59153	-0.24
Mof_N 	N 	0.10638	0.41519	0.51465	-0.197
Mof_N 	N 	0.27526	0.64323	0.71447	-0.241
Mof_N 	N 	0.34627	0.72164	0.79059	-0.224
Mof_N 	N 	0.1727	0.58275	0.67965	-0.161
Mof_N 	N 	0.11674	0.55371	0.66159	-0.072
Mof_N 	N 	0.40847	0.40574	0.07237	-0.24
Mof_N 	N 	0.48535	0.40054	0.09173	-0.197
Mof_N 	N 	0.28553	0.42876	0.06079	-0.241
Mof_N 	N 	0.20941	0.43105	0.05568	-0.224
Mof_N 	N 	0.32035	0.4031	0.99305	-0.161
Mof_N 	N 	0.33841	0.39212	0.95515	-0.072
Mof_N 	N 	0.09153	0.1639	0.99727	-0.24
Mof_N 	N 	0.01465	0.10638	0.91519	-0.196
Mof_N 	N 	0.21447	0.27526	0.14323	-0.241
Mof_N 	N 	0.29059	0.34627	0.22164	-0.224
Mof_N 	N 	0.17965	0.1727	0.08275	-0.161
Mof_N 	N 	0.16159	0.11674	0.05371	-0.071
Mof_N 	N 	0.83337	0.3361	0.42763	-0.24
Mof_N 	N 	0.80881	0.39362	0.40827	-0.197
Mof_N 	N 	0.86797	0.22474	0.43921	-0.241
Mof_N 	N 	0.87537	0.15373	0.44432	-0.224
Mof_N 	N 	0.91005	0.3273	0.50695	-0.161
Mof_N 	N 	0.93697	0.38326	0.54485	-0.072
Mof_N 	N 	0.66663	0.09426	0.50273	-0.24
Mof_N 	N 	0.69119	0.09946	0.58481	-0.197
Mof_N 	N 	0.63203	0.07124	0.35677	-0.241
Mof_N 	N 	0.62463	0.06895	0.27836	-0.224
Mof_N 	N 	0.58995	0.0969	0.41725	-0.161
Mof_N 	N 	0.56303	0.10788	0.44629	-0.072
Mof_N 	N 	0.00273	0.66663	0.59426	-0.241
Mof_N 	N 	0.08481	0.69119	0.59946	-0.197
Mof_N 	N 	0.85677	0.63203	0.57124	-0.241
Mof_N 	N 	0.77836	0.62463	0.56895	-0.224
Mof_N 	N 	0.91725	0.58995	0.5969	-0.161
Mof_N 	N 	0.94629	0.56303	0.60788	-0.072
Mof_N 	N 	0.92763	0.83337	0.8361	-0.24
Mof_N 	N 	0.90827	0.80881	0.89362	-0.197
Mof_N 	N 	0.93921	0.86797	0.72474	-0.241
Mof_N 	N 	0.94432	0.87537	0.65373	-0.224
Mof_N 	N 	0.00695	0.91005	0.8273	-0.161
Mof_N 	N 	0.04485	0.93697	0.88326	-0.072
Mof_N 	N 	0.49727	0.09153	0.6639	-0.24
Mof_N 	N 	0.41519	0.01465	0.60638	-0.197
Mof_N 	N 	0.64323	0.21447	0.77526	-0.241
Mof_N 	N 	0.72164	0.29059	0.84627	-0.224
Mof_N 	N 	0.58275	0.17965	0.6727	-0.161
Mof_N 	N 	0.55371	0.16159	0.61674	-0.072
Mof_N 	N 	0.57237	0.40847	0.90574	-0.24
Mof_N 	N 	0.59173	0.48535	0.90054	-0.197
Mof_N 	N 	0.56079	0.28553	0.92876	-0.241
Mof_N 	N 	0.55568	0.20941	0.93105	-0.224
Mof_N 	N 	0.49305	0.32035	0.9031	-0.161
Mof_N 	N 	0.45515	0.33841	0.89212	-0.072
Mof_N 	N 	0.57237	0.1639	0.16663	-0.24
Mof_N 	N 	0.59173	0.10638	0.19119	-0.197
Mof_N 	N 	0.56079	0.27526	0.13203	-0.241
Mof_N 	N 	0.55568	0.34627	0.12463	-0.224
Mof_N 	N 	0.49305	0.1727	0.08995	-0.161
Mof_N 	N 	0.45515	0.11674	0.06303	-0.072
Mof_N 	N 	0.49727	0.40574	0.33337	-0.24
Mof_N 	N 	0.41519	0.40054	0.30881	-0.197
Mof_N 	N 	0.64323	0.42876	0.36797	-0.241
Mof_N 	N 	0.72164	0.43105	0.37537	-0.224
Mof_N 	N 	0.58275	0.4031	0.41005	-0.161
Mof_N 	N 	0.55371	0.39212	0.43697	-0.072
Mof_N 	N 	0.92763	0.09426	0.59153	-0.24
Mof_N 	N 	0.90827	0.09946	0.51465	-0.197
Mof_N 	N 	0.93921	0.07124	0.71447	-0.241
Mof_N 	N 	0.94432	0.06895	0.79059	-0.224
Mof_N 	N 	0.00695	0.0969	0.67965	-0.161
Mof_N 	N 	0.04485	0.10788	0.66159	-0.072
Mof_N 	N 	0.00273	0.3361	0.90847	-0.24
Mof_N 	N 	0.08481	0.39362	0.98535	-0.196
Mof_N 	N 	0.85677	0.22474	0.78553	-0.241
Mof_N 	N 	0.77836	0.15373	0.70941	-0.224
Mof_N 	N 	0.91725	0.3273	0.82035	-0.161
Mof_N 	N 	0.94629	0.38326	0.83841	-0.071
Mof_N 	N 	0.09426	0.09153	0.42763	-0.24
Mof_N 	N 	0.09946	0.01465	0.40827	-0.197
Mof_N 	N 	0.07124	0.21447	0.43921	-0.241
Mof_N 	N 	0.06895	0.29059	0.44432	-0.224
Mof_N 	N 	0.0969	0.17965	0.50695	-0.161
Mof_N 	N 	0.10788	0.16159	0.54485	-0.072
Mof_N 	N 	0.3361	0.40847	0.50273	-0.24
Mof_N 	N 	0.39362	0.48535	0.58481	-0.197
Mof_N 	N 	0.22474	0.28553	0.35677	-0.241
Mof_N 	N 	0.15373	0.20941	0.27836	-0.224
Mof_N 	N 	0.3273	0.32035	0.41725	-0.161
Mof_N 	N 	0.38326	0.33841	0.44629	-0.072
Mof_N 	N 	0.1639	0.66663	0.07237	-0.24
Mof_N 	N 	0.10638	0.69119	0.09173	-0.197
Mof_N 	N 	0.27526	0.63203	0.06079	-0.241
Mof_N 	N 	0.34627	0.62463	0.05568	-0.224
Mof_N 	N 	0.1727	0.58995	0.99305	-0.161
Mof_N 	N 	0.11674	0.56303	0.95515	-0.072
Mof_N 	N 	0.40574	0.83337	0.99727	-0.241
Mof_N 	N 	0.40054	0.80881	0.91519	-0.197
Mof_N 	N 	0.42876	0.86797	0.14323	-0.241
Mof_N 	N 	0.43105	0.87537	0.22164	-0.224
Mof_N 	N 	0.4031	0.91005	0.08275	-0.161
Mof_N 	N 	0.39212	0.93697	0.05371	-0.072
Mof_N 	N 	0.83337	0.49727	0.90574	-0.241
Mof_N 	N 	0.80881	0.41519	0.90054	-0.197
Mof_N 	N 	0.86797	0.64323	0.92876	-0.241
Mof_N 	N 	0.87537	0.72164	0.93105	-0.225
Mof_N 	N 	0.91005	0.58275	0.9031	-0.161
Mof_N 	N 	0.93697	0.55371	0.89212	-0.072
Mof_N 	N 	0.66663	0.57237	0.6639	-0.24
Mof_N 	N 	0.69119	0.59173	0.60638	-0.197
Mof_N 	N 	0.63203	0.56079	0.77526	-0.241
Mof_N 	N 	0.62463	0.55568	0.84627	-0.224
Mof_N 	N 	0.58995	0.49305	0.6727	-0.161
Mof_N 	N 	0.56303	0.45515	0.61674	-0.072
Mof_N 	N 	0.40847	0.00273	0.8361	-0.24
Mof_N 	N 	0.48535	0.08481	0.89362	-0.197
Mof_N 	N 	0.28553	0.85677	0.72474	-0.241
Mof_N 	N 	0.20941	0.77836	0.65373	-0.224
Mof_N 	N 	0.32035	0.91725	0.8273	-0.161
Mof_N 	N 	0.33841	0.94629	0.88326	-0.072
Mof_N 	N 	0.09153	0.92763	0.59426	-0.24
Mof_N 	N 	0.01465	0.90827	0.59946	-0.197
Mof_N 	N 	0.21447	0.93921	0.57124	-0.241
Mof_N 	N 	0.29059	0.94432	0.56895	-0.224
Mof_N 	N 	0.17965	0.00695	0.5969	-0.161
Mof_N 	N 	0.16159	0.04485	0.60788	-0.072
Mof_N 	N 	0.6639	0.07237	0.66663	-0.24
Mof_N 	N 	0.60638	0.09173	0.69119	-0.197
Mof_N 	N 	0.77526	0.06079	0.63203	-0.241
Mof_N 	N 	0.84627	0.05568	0.62463	-0.224
Mof_N 	N 	0.6727	0.99305	0.58995	-0.161
Mof_N 	N 	0.61674	0.95515	0.56303	-0.072
Mof_N 	N 	0.90574	0.99727	0.83337	-0.24
Mof_N 	N 	0.90054	0.91519	0.80881	-0.197
Mof_N 	N 	0.92876	0.14323	0.86797	-0.241
Mof_N 	N 	0.93105	0.22164	0.87537	-0.225
Mof_N 	N 	0.9031	0.08275	0.91005	-0.162
Mof_N 	N 	0.89212	0.05371	0.93697	-0.072
Mof_N 	N 	0.59426	0.42763	0.09153	-0.24
Mof_N 	N 	0.59946	0.40827	0.01465	-0.197
Mof_N 	N 	0.57124	0.43921	0.21447	-0.241
Mof_N 	N 	0.56895	0.44432	0.29059	-0.224
Mof_N 	N 	0.5969	0.50695	0.17965	-0.161
Mof_N 	N 	0.60788	0.54485	0.16159	-0.072
Mof_N 	N 	0.8361	0.50273	0.40847	-0.24
Mof_N 	N 	0.89362	0.58481	0.48535	-0.197
Mof_N 	N 	0.72474	0.35677	0.28553	-0.241
Mof_N 	N 	0.65373	0.27836	0.20941	-0.224
Mof_N 	N 	0.8273	0.41725	0.32035	-0.161
Mof_N 	N 	0.88326	0.44629	0.33841	-0.072
Mof_N 	N 	0.59153	0.59426	0.92763	-0.24
Mof_N 	N 	0.51465	0.59946	0.90827	-0.197
Mof_N 	N 	0.71447	0.57124	0.93921	-0.241
Mof_N 	N 	0.79059	0.56895	0.94432	-0.224
Mof_N 	N 	0.67965	0.5969	0.00695	-0.161
Mof_N 	N 	0.66159	0.60788	0.04485	-0.072
Mof_N 	N 	0.90847	0.8361	0.00273	-0.24
Mof_N 	N 	0.98535	0.89362	0.08481	-0.196
Mof_N 	N 	0.78553	0.72474	0.85677	-0.241
Mof_N 	N 	0.70941	0.65373	0.77836	-0.224
Mof_N 	N 	0.82035	0.8273	0.91725	-0.161
Mof_N 	N 	0.83841	0.88326	0.94629	-0.071
Mof_N 	N 	0.16663	0.6639	0.57237	-0.24
Mof_N 	N 	0.19119	0.60638	0.59173	-0.197
Mof_N 	N 	0.13203	0.77526	0.56079	-0.241
Mof_N 	N 	0.12463	0.84627	0.55568	-0.224
Mof_N 	N 	0.08995	0.6727	0.49305	-0.161
Mof_N 	N 	0.06303	0.61674	0.45515	-0.072
Mof_N 	N 	0.33337	0.90574	0.49727	-0.24
Mof_N 	N 	0.30881	0.90054	0.41519	-0.197
Mof_N 	N 	0.36797	0.92876	0.64323	-0.241
Mof_N 	N 	0.37537	0.93105	0.72164	-0.224
Mof_N 	N 	0.41005	0.9031	0.58275	-0.161
Mof_N 	N 	0.43697	0.89212	0.55371	-0.072
Mof_N 	N 	0.99727	0.33337	0.40574	-0.241
Mof_N 	N 	0.91519	0.30881	0.40054	-0.197
Mof_N 	N 	0.14323	0.36797	0.42876	-0.241
Mof_N 	N 	0.22164	0.37537	0.43105	-0.224
Mof_N 	N 	0.08275	0.41005	0.4031	-0.161
Mof_N 	N 	0.05371	0.43697	0.39212	-0.072
Mof_N 	N 	0.07237	0.16663	0.1639	-0.24
Mof_N 	N 	0.09173	0.19119	0.10638	-0.197
Mof_N 	N 	0.06079	0.13203	0.27526	-0.241
Mof_N 	N 	0.05568	0.12463	0.34627	-0.224
Mof_N 	N 	0.99305	0.08995	0.1727	-0.161
Mof_N 	N 	0.95515	0.06303	0.11674	-0.072
Mof_N 	N 	0.50273	0.90847	0.3361	-0.24
Mof_N 	N 	0.58481	0.98535	0.39362	-0.197
Mof_N 	N 	0.35677	0.78553	0.22474	-0.241
Mof_N 	N 	0.27836	0.70941	0.15373	-0.224
Mof_N 	N 	0.41725	0.82035	0.3273	-0.161
Mof_N 	N 	0.44629	0.83841	0.38326	-0.072
Mof_N 	N 	0.42763	0.59153	0.09426	-0.24
Mof_N 	N 	0.40827	0.51465	0.09946	-0.197
Mof_N 	N 	0.43921	0.71447	0.07124	-0.241
Mof_N 	N 	0.44432	0.79059	0.06895	-0.224
Mof_N 	N 	0.50695	0.67965	0.0969	-0.161
Mof_N 	N 	0.54485	0.66159	0.10788	-0.072
Mof_N 	N 	0.42763	0.8361	0.83337	-0.24
Mof_N 	N 	0.40827	0.89362	0.80881	-0.197
Mof_N 	N 	0.43921	0.72474	0.86797	-0.241
Mof_N 	N 	0.44432	0.65373	0.87537	-0.224
Mof_N 	N 	0.50695	0.8273	0.91005	-0.161
Mof_N 	N 	0.54485	0.88326	0.93697	-0.072
Mof_N 	N 	0.50273	0.59426	0.66663	-0.24
Mof_N 	N 	0.58481	0.59946	0.69119	-0.197
Mof_N 	N 	0.35677	0.57124	0.63203	-0.241
Mof_N 	N 	0.27836	0.56895	0.62463	-0.224
Mof_N 	N 	0.41725	0.5969	0.58995	-0.161
Mof_N 	N 	0.44629	0.60788	0.56303	-0.072
Mof_N 	N 	0.07237	0.90574	0.40847	-0.24
Mof_N 	N 	0.09173	0.90054	0.48535	-0.197
Mof_N 	N 	0.06079	0.92876	0.28553	-0.241
Mof_N 	N 	0.05568	0.93105	0.20941	-0.224
Mof_N 	N 	0.99305	0.9031	0.32035	-0.161
Mof_N 	N 	0.95515	0.89212	0.33841	-0.072
Mof_N 	N 	0.99727	0.6639	0.09153	-0.24
Mof_N 	N 	0.91519	0.60638	0.01465	-0.196
Mof_N 	N 	0.14323	0.77526	0.21447	-0.241
Mof_N 	N 	0.22164	0.84627	0.29059	-0.224
Mof_N 	N 	0.08275	0.6727	0.17965	-0.161
Mof_N 	N 	0.05371	0.61674	0.16159	-0.071
Mof_N 	N 	0.90574	0.90847	0.57237	-0.24
Mof_N 	N 	0.90054	0.98535	0.59173	-0.197
Mof_N 	N 	0.92876	0.78553	0.56079	-0.241
Mof_N 	N 	0.93105	0.70941	0.55568	-0.224
Mof_N 	N 	0.9031	0.82035	0.49305	-0.161
Mof_N 	N 	0.89212	0.83841	0.45515	-0.072
Mof_N 	N 	0.6639	0.59153	0.49727	-0.24
Mof_N 	N 	0.60638	0.51465	0.41519	-0.197
Mof_N 	N 	0.77526	0.71447	0.64323	-0.241
Mof_N 	N 	0.84627	0.79059	0.72164	-0.224
Mof_N 	N 	0.6727	0.67965	0.58275	-0.161
Mof_N 	N 	0.61674	0.66159	0.55371	-0.072
Mof_N 	N 	0.8361	0.33337	0.92763	-0.24
Mof_N 	N 	0.89362	0.30881	0.90827	-0.197
Mof_N 	N 	0.72474	0.36797	0.93921	-0.241
Mof_N 	N 	0.65373	0.37537	0.94432	-0.224
Mof_N 	N 	0.8273	0.41005	0.00695	-0.161
Mof_N 	N 	0.88326	0.43697	0.04485	-0.072
Mof_N 	N 	0.59426	0.16663	0.00273	-0.241
Mof_N 	N 	0.59946	0.19119	0.08481	-0.197
Mof_N 	N 	0.57124	0.13203	0.85677	-0.241
Mof_N 	N 	0.56895	0.12463	0.77836	-0.224
Mof_N 	N 	0.5969	0.08995	0.91725	-0.161
Mof_N 	N 	0.60788	0.06303	0.94629	-0.072
Mof_N 	N 	0.16663	0.50273	0.09426	-0.241
Mof_N 	N 	0.19119	0.58481	0.09946	-0.197
Mof_N 	N 	0.13203	0.35677	0.07124	-0.241
Mof_N 	N 	0.12463	0.27836	0.06895	-0.225
Mof_N 	N 	0.08995	0.41725	0.0969	-0.161
Mof_N 	N 	0.06303	0.44629	0.10788	-0.072
Mof_N 	N 	0.33337	0.42763	0.3361	-0.24
Mof_N 	N 	0.30881	0.40827	0.39362	-0.197
Mof_N 	N 	0.36797	0.43921	0.22474	-0.241
Mof_N 	N 	0.37537	0.44432	0.15373	-0.224
Mof_N 	N 	0.41005	0.50695	0.3273	-0.161
Mof_N 	N 	0.43697	0.54485	0.38326	-0.072
Mof_N 	N 	0.59153	0.99727	0.1639	-0.24
Mof_N 	N 	0.51465	0.91519	0.10638	-0.197
Mof_N 	N 	0.71447	0.14323	0.27526	-0.241
Mof_N 	N 	0.79059	0.22164	0.34627	-0.224
Mof_N 	N 	0.67965	0.08275	0.1727	-0.161
Mof_N 	N 	0.66159	0.05371	0.11674	-0.072
Mof_N 	N 	0.90847	0.07237	0.40574	-0.24
Mof_N 	N 	0.98535	0.09173	0.40054	-0.197
Mof_N 	N 	0.78553	0.06079	0.42876	-0.241
Mof_N 	N 	0.70941	0.05568	0.43105	-0.224
Mof_N 	N 	0.82035	0.99305	0.4031	-0.161
Mof_N 	N 	0.83841	0.95515	0.39212	-0.072
_end
