data_functionalizedCrystal
_audit_creation_method	'EQeq! by Chris Wilmer'
_symmetry_space_group_name_H-M	'P1'
_symmetry_Int_Tables_number	1
_symmetry_cell_setting	triclinic
loop_
_symmetry_equiv_pos_as_xyz
  x,y,z
_cell_length_a	13.3082
_cell_length_b	15.6219
_cell_length_c	16.4727
_cell_angle_alpha	90
_cell_angle_beta	90
_cell_angle_gamma	90
loop_
_atom_site_label
_atom_site_type_symbol
_atom_site_fract_x
_atom_site_fract_y
_atom_site_fract_z
_atom_site_charge
Mof_C 	C 	0.0137	0.7681	0.8555	0.25
Mof_C 	C 	0.9321	0.6976	0.8492	0.27
Mof_C 	C 	0.7659	0.8711	0.0277	0.257
Mof_C 	C 	0.6675	0.8696	0.9776	0.263
Mof_C 	C 	0.8549	0.9591	0.7082	0.27
Mof_C 	C 	0.8416	0.0264	0.7766	0.268
Mof_O 	O 	0.10314	0.74132	0.85631	-0.507
Mof_O 	O 	0.96558	0.62226	0.84465	-0.52
Mof_O 	O 	0.98767	0.84468	0.85804	-0.312
Mof_O 	O 	0.84295	0.72124	0.84788	-0.316
Mof_O 	O 	0.84667	0.86882	0.9898	-0.301
Mof_O 	O 	0.75494	0.87937	0.10298	-0.502
Mof_O 	O 	0.6728	0.85912	0.90303	-0.311
Mof_O 	O 	0.58785	0.87954	0.01791	-0.512
Mof_O 	O 	0.8396	0.88296	0.72581	-0.322
Mof_O 	O 	0.88093	0.9883	0.63977	-0.518
Mof_O 	O 	0.8217	0.00137	0.8453	-0.324
Mof_O 	O 	0.85485	0.1036	0.75371	-0.525
Mof_Cr	Cr	0.11215	0.61551	0.86353	2.072
Mof_Mn	Mn	0.8247	0.86006	0.85701	0.948
Mof_C 	C 	0.4863	0.2319	0.3555	0.256
Mof_C 	C 	0.5679	0.3024	0.3492	0.269
Mof_C 	C 	0.7341	0.1289	0.5277	0.261
Mof_C 	C 	0.8325	0.1304	0.4776	0.26
Mof_C 	C 	0.6451	0.0409	0.2082	0.268
Mof_C 	C 	0.6584	0.9736	0.2766	0.272
Mof_O 	O 	0.39686	0.25868	0.35631	-0.508
Mof_O 	O 	0.53442	0.37774	0.34465	-0.52
Mof_O 	O 	0.51233	0.15532	0.35804	-0.315
Mof_O 	O 	0.65705	0.27876	0.34788	-0.315
Mof_O 	O 	0.65333	0.13118	0.4898	-0.304
Mof_O 	O 	0.74506	0.12063	0.60298	-0.503
Mof_O 	O 	0.8272	0.14088	0.40303	-0.31
Mof_O 	O 	0.91215	0.12046	0.51791	-0.51
Mof_O 	O 	0.6604	0.11704	0.22581	-0.322
Mof_O 	O 	0.61907	0.0117	0.13977	-0.52
Mof_O 	O 	0.6783	0.99863	0.3453	-0.322
Mof_O 	O 	0.64515	0.8964	0.25371	-0.526
Mof_Cr	Cr	0.38785	0.38449	0.36353	2.073
Mof_Mn	Mn	0.6753	0.13994	0.35701	0.946
Mof_C 	C 	0.9863	0.2681	0.6445	0.251
Mof_C 	C 	0.0679	0.1976	0.6508	0.271
Mof_C 	C 	0.2341	0.3711	0.4723	0.261
Mof_C 	C 	0.3325	0.3696	0.5224	0.26
Mof_C 	C 	0.1451	0.4591	0.7918	0.268
Mof_C 	C 	0.1584	0.5264	0.7234	0.272
Mof_O 	O 	0.89686	0.24132	0.64369	-0.506
Mof_O 	O 	0.03442	0.12226	0.65535	-0.517
Mof_O 	O 	0.01233	0.34468	0.64196	-0.312
Mof_O 	O 	0.15705	0.22124	0.65212	-0.315
Mof_O 	O 	0.15333	0.36882	0.5102	-0.304
Mof_O 	O 	0.24506	0.37937	0.39702	-0.503
Mof_O 	O 	0.3272	0.35912	0.59697	-0.31
Mof_O 	O 	0.41215	0.37954	0.48209	-0.51
Mof_O 	O 	0.1604	0.38296	0.77419	-0.322
Mof_O 	O 	0.11907	0.4883	0.86023	-0.52
Mof_O 	O 	0.1783	0.50137	0.6547	-0.323
Mof_O 	O 	0.14515	0.6036	0.74629	-0.526
Mof_Cr	Cr	0.88785	0.11551	0.63647	2.066
Mof_Mn	Mn	0.1753	0.36006	0.64299	0.946
Mof_C 	C 	0.5137	0.7319	0.1445	0.255
Mof_C 	C 	0.4321	0.8024	0.1508	0.269
Mof_C 	C 	0.2659	0.6289	0.9723	0.263
Mof_C 	C 	0.1675	0.6304	0.0224	0.258
Mof_C 	C 	0.3549	0.5409	0.2918	0.268
Mof_C 	C 	0.3416	0.4736	0.2234	0.272
Mof_O 	O 	0.60314	0.75868	0.14369	-0.508
Mof_O 	O 	0.46558	0.87774	0.15535	-0.52
Mof_O 	O 	0.48767	0.65532	0.14196	-0.315
Mof_O 	O 	0.34295	0.77876	0.15212	-0.316
Mof_O 	O 	0.34667	0.63118	0.0102	-0.305
Mof_O 	O 	0.25494	0.62063	0.89702	-0.504
Mof_O 	O 	0.1728	0.64088	0.09697	-0.31
Mof_O 	O 	0.08785	0.62046	0.98209	-0.509
Mof_O 	O 	0.3396	0.61704	0.27419	-0.322
Mof_O 	O 	0.38093	0.5117	0.36023	-0.52
Mof_O 	O 	0.3217	0.49863	0.1547	-0.323
Mof_O 	O 	0.35485	0.3964	0.24629	-0.526
Mof_Cr	Cr	0.61215	0.88449	0.13647	2.072
Mof_Mn	Mn	0.3247	0.63994	0.14299	0.946
Mof_C 	C 	0.0356	0.8242	0.3787	0.185
Mof_C 	C 	0.0081	0.8096	0.299	-0.103
Mof_H 	H 	0.0152	0.7539	0.2767	0.104
Mof_C 	C 	0.9703	0.875	0.251	-0.105
Mof_H 	H 	0.951	0.8634	0.1965	0.113
Mof_C 	C 	0.9606	0.9565	0.2815	0.226
Mof_C 	C 	0.9883	0.9734	0.3583	-0.133
Mof_H 	H 	0.9823	0.0302	0.3784	0.13
Mof_C 	C 	0.026	0.9088	0.4097	-0.034
Mof_C 	C 	0.0567	0.9315	0.4911	0.05
Mof_H 	H 	0.0507	0.9899	0.5064	0.039
Mof_C 	C 	0.1171	0.9128	0.6254	-0.031
Mof_H 	H 	0.0728	0.9615	0.6395	0.062
Mof_H 	H 	0.1877	0.9328	0.6264	0.061
Mof_C 	C 	0.1028	0.8418	0.6838	-0.081
Mof_H 	H 	0.0302	0.831	0.6921	0.073
Mof_H 	H 	0.133	0.8569	0.7368	0.096
Mof_C 	C 	0.2635	0.7645	0.6557	-0.058
Mof_H 	H 	0.2881	0.7066	0.6702	0.064
Mof_H 	H 	0.2854	0.8048	0.6985	0.079
Mof_C 	C 	0.3077	0.7916	0.5739	-0.059
Mof_H 	H 	0.3012	0.8542	0.5664	0.056
Mof_H 	H 	0.3797	0.776	0.5707	0.065
Mof_C 	C 	0.2813	0.6535	0.5018	-0.058
Mof_H 	H 	0.2994	0.6292	0.5553	0.062
Mof_H 	H 	0.3406	0.6497	0.4656	0.074
Mof_C 	C 	0.1934	0.605	0.4654	-0.057
Mof_H 	H 	0.1827	0.622	0.4082	0.09
Mof_H 	H 	0.2056	0.5425	0.4675	0.073
Mof_C 	C 	0.039	0.5726	0.5329	0.055
Mof_H 	H 	0.0488	0.516	0.5135	0.046
Mof_C 	C 	0.9512	0.5883	0.579	-0.034
Mof_C 	C 	0.8894	0.5187	0.6037	-0.133
Mof_H 	H 	0.9056	0.4617	0.5883	0.122
Mof_C 	C 	0.8038	0.5357	0.6512	0.211
Mof_C 	C 	0.7814	0.6147	0.6748	-0.117
Mof_H 	H 	0.7241	0.6238	0.7082	0.105
Mof_C 	C 	0.8381	0.6821	0.6525	-0.087
Mof_H 	H 	0.82	0.7378	0.6704	0.087
Mof_C 	C 	0.923	0.672	0.6037	0.173
Mof_N 	N 	0.0914	0.87913	0.54467	-0.181
Mof_N 	N 	0.152	0.7639	0.6506	-0.206
Mof_H 	H 	0.1288	0.7171	0.6801	0.123
Mof_N 	N 	0.2486	0.7447	0.51077	-0.212
Mof_H 	H 	0.26	0.7718	0.4614	0.109
Mof_N 	N 	0.1061	0.6279	0.5152	-0.171
Mof_O 	O 	0.069	0.75946	0.42138	-0.336
Mof_O 	O 	0.96983	0.74185	0.57879	-0.34
Mof_Cl	Cl	0.91495	0.03757	0.21919	-0.351
Mof_Cl	Cl	0.72803	0.4474	0.67456	-0.342
Mof_Fe	Fe	0.09951	0.75243	0.53407	0.862
Mof_C 	C 	0.4644	0.1758	0.8787	0.178
Mof_C 	C 	0.4919	0.1904	0.799	-0.091
Mof_H 	H 	0.4848	0.2461	0.7767	0.101
Mof_C 	C 	0.5297	0.125	0.751	-0.116
Mof_H 	H 	0.549	0.1366	0.6965	0.116
Mof_C 	C 	0.5394	0.0435	0.7815	0.233
Mof_C 	C 	0.5117	0.0266	0.8583	-0.152
Mof_H 	H 	0.5177	0.9698	0.8784	0.139
Mof_C 	C 	0.474	0.0912	0.9097	-0.02
Mof_C 	C 	0.4433	0.0685	0.9911	0.042
Mof_H 	H 	0.4493	0.0101	0.0064	0.044
Mof_C 	C 	0.3829	0.0872	0.1254	-0.033
Mof_H 	H 	0.4272	0.0385	0.1395	0.064
Mof_H 	H 	0.3123	0.0672	0.1264	0.062
Mof_C 	C 	0.3972	0.1582	0.1838	-0.08
Mof_H 	H 	0.4698	0.169	0.1921	0.074
Mof_H 	H 	0.367	0.1431	0.2368	0.097
Mof_C 	C 	0.2365	0.2355	0.1557	-0.058
Mof_H 	H 	0.2119	0.2934	0.1702	0.065
Mof_H 	H 	0.2146	0.1952	0.1985	0.08
Mof_C 	C 	0.1923	0.2084	0.0739	-0.06
Mof_H 	H 	0.1988	0.1458	0.0664	0.057
Mof_H 	H 	0.1203	0.224	0.0707	0.066
Mof_C 	C 	0.2187	0.3465	0.0018	-0.059
Mof_H 	H 	0.2006	0.3708	0.0553	0.062
Mof_H 	H 	0.1594	0.3503	0.9656	0.075
Mof_C 	C 	0.3066	0.395	0.9654	-0.057
Mof_H 	H 	0.3173	0.378	0.9082	0.09
Mof_H 	H 	0.2944	0.4575	0.9675	0.073
Mof_C 	C 	0.461	0.4274	0.0329	0.056
Mof_H 	H 	0.4512	0.484	0.0135	0.045
Mof_C 	C 	0.5488	0.4117	0.079	-0.035
Mof_C 	C 	0.6106	0.4813	0.1037	-0.132
Mof_H 	H 	0.5944	0.5383	0.0883	0.122
Mof_C 	C 	0.6962	0.4643	0.1512	0.21
Mof_C 	C 	0.7186	0.3853	0.1748	-0.117
Mof_H 	H 	0.7759	0.3762	0.2082	0.105
Mof_C 	C 	0.6619	0.3179	0.1525	-0.088
Mof_H 	H 	0.68	0.2622	0.1704	0.087
Mof_C 	C 	0.577	0.328	0.1037	0.173
Mof_N 	N 	0.4086	0.12087	0.04467	-0.178
Mof_N 	N 	0.348	0.2361	0.1506	-0.207
Mof_H 	H 	0.3712	0.2829	0.1801	0.123
Mof_N 	N 	0.2514	0.2553	0.01077	-0.212
Mof_H 	H 	0.24	0.2282	0.9614	0.109
Mof_N 	N 	0.3939	0.3721	0.0152	-0.171
Mof_O 	O 	0.431	0.24054	0.92138	-0.334
Mof_O 	O 	0.53017	0.25815	0.07879	-0.342
Mof_Cl	Cl	0.58505	0.96243	0.71919	-0.349
Mof_Cl	Cl	0.77197	0.5526	0.17456	-0.342
Mof_Fe	Fe	0.40049	0.24757	0.03407	0.863
Mof_C 	C 	0.9644	0.3242	0.1213	0.18
Mof_C 	C 	0.9919	0.3096	0.201	-0.095
Mof_H 	H 	0.9848	0.2539	0.2233	0.101
Mof_C 	C 	0.0297	0.375	0.249	-0.112
Mof_H 	H 	0.049	0.3634	0.3035	0.115
Mof_C 	C 	0.0394	0.4565	0.2185	0.231
Mof_C 	C 	0.0117	0.4734	0.1417	-0.147
Mof_H 	H 	0.0177	0.5302	0.1216	0.136
Mof_C 	C 	0.974	0.4088	0.0903	-0.024
Mof_C 	C 	0.9433	0.4315	0.0089	0.047
Mof_H 	H 	0.9493	0.4899	0.9936	0.042
Mof_C 	C 	0.8829	0.4128	0.8746	-0.032
Mof_H 	H 	0.9272	0.4615	0.8605	0.063
Mof_H 	H 	0.8123	0.4328	0.8736	0.062
Mof_C 	C 	0.8972	0.3418	0.8162	-0.08
Mof_H 	H 	0.9698	0.331	0.8079	0.073
Mof_H 	H 	0.867	0.3569	0.7632	0.097
Mof_C 	C 	0.7365	0.2645	0.8443	-0.058
Mof_H 	H 	0.7119	0.2066	0.8298	0.064
Mof_H 	H 	0.7146	0.3048	0.8015	0.079
Mof_C 	C 	0.6923	0.2916	0.9261	-0.06
Mof_H 	H 	0.6988	0.3542	0.9336	0.056
Mof_H 	H 	0.6203	0.276	0.9293	0.065
Mof_C 	C 	0.7187	0.1535	0.9982	-0.062
Mof_H 	H 	0.7006	0.1292	0.9447	0.063
Mof_H 	H 	0.6594	0.1497	0.0344	0.076
Mof_C 	C 	0.8066	0.105	0.0346	-0.054
Mof_H 	H 	0.8173	0.122	0.0918	0.089
Mof_H 	H 	0.7944	0.0425	0.0325	0.072
Mof_C 	C 	0.961	0.0726	0.9671	0.051
Mof_H 	H 	0.9512	0.016	0.9865	0.045
Mof_C 	C 	0.0488	0.0883	0.921	-0.03
Mof_C 	C 	0.1106	0.0187	0.8963	-0.13
Mof_H 	H 	0.0944	0.9617	0.9117	0.119
Mof_C 	C 	0.1962	0.0357	0.8488	0.211
Mof_C 	C 	0.2186	0.1147	0.8252	-0.117
Mof_H 	H 	0.2759	0.1238	0.7918	0.105
Mof_C 	C 	0.1619	0.1821	0.8475	-0.086
Mof_H 	H 	0.18	0.2378	0.8296	0.087
Mof_C 	C 	0.077	0.172	0.8963	0.172
Mof_N 	N 	0.9086	0.37913	0.95533	-0.18
Mof_N 	N 	0.848	0.2639	0.8494	-0.206
Mof_H 	H 	0.8712	0.2171	0.8199	0.122
Mof_N 	N 	0.7514	0.2447	0.98923	-0.212
Mof_H 	H 	0.74	0.2718	0.0386	0.11
Mof_N 	N 	0.8939	0.1279	0.9848	-0.171
Mof_O 	O 	0.931	0.25946	0.07862	-0.334
Mof_O 	O 	0.03017	0.24185	0.92121	-0.34
Mof_Cl	Cl	0.08505	0.53757	0.28081	-0.35
Mof_Cl	Cl	0.27197	0.9474	0.82544	-0.344
Mof_Fe	Fe	0.90049	0.25243	0.96593	0.86
Mof_C 	C 	0.5356	0.6758	0.6213	0.178
Mof_C 	C 	0.5081	0.6904	0.701	-0.092
Mof_H 	H 	0.5152	0.7461	0.7233	0.101
Mof_C 	C 	0.4703	0.625	0.749	-0.116
Mof_H 	H 	0.451	0.6366	0.8035	0.116
Mof_C 	C 	0.4606	0.5435	0.7185	0.233
Mof_C 	C 	0.4883	0.5266	0.6417	-0.15
Mof_H 	H 	0.4823	0.4698	0.6216	0.137
Mof_C 	C 	0.526	0.5912	0.5903	-0.022
Mof_C 	C 	0.5567	0.5685	0.5089	0.046
Mof_H 	H 	0.5507	0.5101	0.4936	0.042
Mof_C 	C 	0.6171	0.5872	0.3746	-0.032
Mof_H 	H 	0.5728	0.5385	0.3605	0.063
Mof_H 	H 	0.6877	0.5672	0.3736	0.062
Mof_C 	C 	0.6028	0.6582	0.3162	-0.081
Mof_H 	H 	0.5302	0.669	0.3079	0.074
Mof_H 	H 	0.633	0.6431	0.2632	0.097
Mof_C 	C 	0.7635	0.7355	0.3443	-0.058
Mof_H 	H 	0.7881	0.7934	0.3298	0.065
Mof_H 	H 	0.7854	0.6952	0.3015	0.08
Mof_C 	C 	0.8077	0.7084	0.4261	-0.06
Mof_H 	H 	0.8012	0.6458	0.4336	0.056
Mof_H 	H 	0.8797	0.724	0.4293	0.066
Mof_C 	C 	0.7813	0.8465	0.4982	-0.058
Mof_H 	H 	0.7994	0.8708	0.4447	0.063
Mof_H 	H 	0.8406	0.8503	0.5344	0.075
Mof_C 	C 	0.6934	0.895	0.5346	-0.057
Mof_H 	H 	0.6827	0.878	0.5918	0.09
Mof_H 	H 	0.7056	0.9575	0.5325	0.073
Mof_C 	C 	0.539	0.9274	0.4671	0.056
Mof_H 	H 	0.5488	0.984	0.4865	0.045
Mof_C 	C 	0.4512	0.9117	0.421	-0.034
Mof_C 	C 	0.3894	0.9813	0.3963	-0.134
Mof_H 	H 	0.4056	0.0383	0.4117	0.123
Mof_C 	C 	0.3038	0.9643	0.3488	0.208
Mof_C 	C 	0.2814	0.8853	0.3252	-0.115
Mof_H 	H 	0.2241	0.8762	0.2918	0.103
Mof_C 	C 	0.3381	0.8179	0.3475	-0.088
Mof_H 	H 	0.32	0.7622	0.3296	0.088
Mof_C 	C 	0.423	0.828	0.3963	0.173
Mof_N 	N 	0.5914	0.62087	0.45533	-0.18
Mof_N 	N 	0.652	0.7361	0.3494	-0.206
Mof_H 	H 	0.6288	0.7829	0.3199	0.123
Mof_N 	N 	0.7486	0.7553	0.48923	-0.212
Mof_H 	H 	0.76	0.7282	0.5386	0.109
Mof_N 	N 	0.6061	0.8721	0.4848	-0.171
Mof_O 	O 	0.569	0.74054	0.57862	-0.334
Mof_O 	O 	0.46983	0.75815	0.42121	-0.342
Mof_Cl	Cl	0.41495	0.46243	0.78081	-0.35
Mof_Cl	Cl	0.22803	0.0526	0.32544	-0.339
Mof_Fe	Fe	0.59951	0.74757	0.46593	0.863
_end
