data_functionalizedCrystal
_audit_creation_method	'EQeq! by Chris Wilmer'
_symmetry_space_group_name_H-M	'P1'
_symmetry_Int_Tables_number	1
_symmetry_cell_setting	triclinic
loop_
_symmetry_equiv_pos_as_xyz
  x,y,z
_cell_length_a	8.6777
_cell_length_b	15.915
_cell_length_c	15.915
_cell_angle_alpha	120
_cell_angle_beta	90
_cell_angle_gamma	90
loop_
_atom_site_label
_atom_site_type_symbol
_atom_site_fract_x
_atom_site_fract_y
_atom_site_fract_z
_atom_site_charge
Mof_Cu	Cu	0.89	0.38141	0.59095	0.926
Mof_Cu	Cu	0.22333	0.20954	0.61859	0.929
Mof_Cu	Cu	0.55667	0.40905	0.79046	0.928
Mof_Cu	Cu	0.89	0.61859	0.40905	0.926
Mof_Cu	Cu	0.22333	0.79046	0.38141	0.929
Mof_Cu	Cu	0.55667	0.59095	0.20954	0.928
Mof_H 	H 	0.5884	0.8742	0.0955	0.153
Mof_H 	H 	0.5803	0.8528	0.1815	0.171
Mof_H 	H 	0.4303	0.848	0.1243	0.174
Mof_H 	H 	0.1653	0.5186	0.769	0.36
Mof_H 	H 	0.1833	0.6052	0.8754	0.328
Mof_H 	H 	0.2421	0.5016	0.8484	0.328
Mof_H 	H 	0.3148	0.615	0.7048	0.321
Mof_H 	H 	0.4824	0.6504	0.7427	0.314
Mof_H 	H 	0.3406	0.7022	0.81	0.294
Mof_H 	H 	0.418	0.733	0.931	0.047
Mof_H 	H 	0.67	0.719	0.04	0.019
Mof_H 	H 	0.4014	0.4433	0.6781	0.176
Mof_H 	H 	0.559	0.5069	0.7306	0.108
Mof_H 	H 	0.92173	0.2213	0.1258	0.131
Mof_H 	H 	0.91363	0.3287	0.1472	0.15
Mof_H 	H 	0.76363	0.2763	0.152	0.156
Mof_H 	H 	0.49863	0.2504	0.4814	0.35
Mof_H 	H 	0.51663	0.2702	0.3948	0.318
Mof_H 	H 	0.57543	0.3468	0.4984	0.32
Mof_H 	H 	0.64813	0.0898	0.385	0.313
Mof_H 	H 	0.81573	0.0923	0.3496	0.304
Mof_H 	H 	0.67393	0.1078	0.2978	0.287
Mof_H 	H 	0.75133	0.198	0.267	0.044
Mof_H 	H 	0.00333	0.321	0.281	0.052
Mof_H 	H 	0.73473	0.2348	0.5567	0.174
Mof_H 	H 	0.89233	0.2237	0.4931	0.103
Mof_H 	H 	0.25507	0.9045	0.7787	0.159
Mof_H 	H 	0.24697	0.8185	0.6713	0.178
Mof_H 	H 	0.09697	0.8757	0.7237	0.182
Mof_H 	H 	0.83197	0.231	0.7496	0.353
Mof_H 	H 	0.84997	0.1246	0.7298	0.319
Mof_H 	H 	0.90877	0.1516	0.6532	0.32
Mof_H 	H 	0.98147	0.2952	0.9102	0.289
Mof_H 	H 	0.14907	0.2573	0.9077	0.295
Mof_H 	H 	0.00727	0.19	0.8922	0.278
Mof_H 	H 	0.08467	0.069	0.802	0.05
Mof_H 	H 	0.33667	0.96	0.679	0.016
Mof_H 	H 	0.06807	0.3219	0.7652	0.181
Mof_H 	H 	0.22567	0.2694	0.7763	0.108
Mof_H 	H 	0.5884	0.1258	0.9045	0.153
Mof_H 	H 	0.5803	0.1472	0.8185	0.171
Mof_H 	H 	0.4303	0.152	0.8757	0.174
Mof_H 	H 	0.1653	0.4814	0.231	0.36
Mof_H 	H 	0.1833	0.3948	0.1246	0.328
Mof_H 	H 	0.2421	0.4984	0.1516	0.328
Mof_H 	H 	0.3148	0.385	0.2952	0.321
Mof_H 	H 	0.4824	0.3496	0.2573	0.314
Mof_H 	H 	0.3406	0.2978	0.19	0.294
Mof_H 	H 	0.418	0.267	0.069	0.047
Mof_H 	H 	0.67	0.281	0.96	0.019
Mof_H 	H 	0.4014	0.5567	0.3219	0.176
Mof_H 	H 	0.559	0.4931	0.2694	0.108
Mof_H 	H 	0.92173	0.7787	0.8742	0.131
Mof_H 	H 	0.91363	0.6713	0.8528	0.15
Mof_H 	H 	0.76363	0.7237	0.848	0.156
Mof_H 	H 	0.49863	0.7496	0.5186	0.35
Mof_H 	H 	0.51663	0.7298	0.6052	0.318
Mof_H 	H 	0.57543	0.6532	0.5016	0.32
Mof_H 	H 	0.64813	0.9102	0.615	0.313
Mof_H 	H 	0.81573	0.9077	0.6504	0.304
Mof_H 	H 	0.67393	0.8922	0.7022	0.287
Mof_H 	H 	0.75133	0.802	0.733	0.044
Mof_H 	H 	0.00333	0.679	0.719	0.052
Mof_H 	H 	0.73473	0.7652	0.4433	0.174
Mof_H 	H 	0.89233	0.7763	0.5069	0.103
Mof_H 	H 	0.25507	0.0955	0.2213	0.159
Mof_H 	H 	0.24697	0.1815	0.3287	0.178
Mof_H 	H 	0.09697	0.1243	0.2763	0.182
Mof_H 	H 	0.83197	0.769	0.2504	0.353
Mof_H 	H 	0.84997	0.8754	0.2702	0.319
Mof_H 	H 	0.90877	0.8484	0.3468	0.32
Mof_H 	H 	0.98147	0.7048	0.0898	0.289
Mof_H 	H 	0.14907	0.7427	0.0923	0.295
Mof_H 	H 	0.00727	0.81	0.1078	0.278
Mof_H 	H 	0.08467	0.931	0.198	0.05
Mof_H 	H 	0.33667	0.04	0.321	0.016
Mof_H 	H 	0.06807	0.6781	0.2348	0.181
Mof_H 	H 	0.22567	0.7306	0.2237	0.108
Mof_C 	C 	0.5177	0.3313	0.9066	0.283
Mof_C 	C 	0.569	0.2717	0.9519	0.061
Mof_C 	C 	0.5392	0.8358	0.1189	-0.505
Mof_C 	C 	0.4886	0.3945	0.1114	0.04
Mof_C 	C 	0.3886	0.5704	0.7996	0.437
Mof_C 	C 	0.2299	0.5467	0.8255	-1.007
Mof_C 	C 	0.3809	0.6411	0.7606	-0.956
Mof_C 	C 	0.85103	0.5753	0.6687	0.301
Mof_C 	C 	0.90233	0.6802	0.7283	0.004
Mof_C 	C 	0.87253	0.2831	0.1642	-0.447
Mof_C 	C 	0.82193	0.7169	0.6055	0.04
Mof_C 	C 	0.72193	0.2292	0.4296	0.427
Mof_C 	C 	0.56323	0.2788	0.4533	-0.986
Mof_C 	C 	0.71423	0.1195	0.3589	-0.937
Mof_C 	C 	0.18437	0.0934	0.4247	0.28
Mof_C 	C 	0.23567	0.0481	0.3198	0.069
Mof_C 	C 	0.20587	0.8811	0.7169	-0.52
Mof_C 	C 	0.15527	0.8886	0.2831	0.046
Mof_C 	C 	0.05527	0.2004	0.7708	0.429
Mof_C 	C 	0.89657	0.1745	0.7212	-1.002
Mof_C 	C 	0.04757	0.2394	0.8805	-0.888
Mof_C 	C 	0.5177	0.6687	0.0934	0.283
Mof_C 	C 	0.569	0.7283	0.0481	0.061
Mof_C 	C 	0.5392	0.1642	0.8811	-0.505
Mof_C 	C 	0.4886	0.6055	0.8886	0.04
Mof_C 	C 	0.3886	0.4296	0.2004	0.437
Mof_C 	C 	0.2299	0.4533	0.1745	-1.007
Mof_C 	C 	0.3809	0.3589	0.2394	-0.956
Mof_C 	C 	0.85103	0.4247	0.3313	0.301
Mof_C 	C 	0.90233	0.3198	0.2717	0.004
Mof_C 	C 	0.87253	0.7169	0.8358	-0.447
Mof_C 	C 	0.82193	0.2831	0.3945	0.04
Mof_C 	C 	0.72193	0.7708	0.5704	0.427
Mof_C 	C 	0.56323	0.7212	0.5467	-0.986
Mof_C 	C 	0.71423	0.8805	0.6411	-0.937
Mof_C 	C 	0.18437	0.9066	0.5753	0.28
Mof_C 	C 	0.23567	0.9519	0.6802	0.069
Mof_C 	C 	0.20587	0.1189	0.2831	-0.52
Mof_C 	C 	0.15527	0.1114	0.7169	0.046
Mof_C 	C 	0.05527	0.7996	0.2292	0.429
Mof_C 	C 	0.89657	0.8255	0.2788	-1.002
Mof_C 	C 	0.04757	0.7606	0.1195	-0.888
Mof_N 	N 	0.4621	0.4763	0.7269	-0.397
Mof_N 	N 	0.4843	0.3026	0.0432	-0.152
Mof_N 	N 	0.79543	0.2506	0.5237	-0.394
Mof_N 	N 	0.81763	0.7406	0.6974	-0.146
Mof_N 	N 	0.12877	0.2731	0.7494	-0.395
Mof_N 	N 	0.15097	0.9568	0.2594	-0.154
Mof_N 	N 	0.4621	0.5237	0.2731	-0.397
Mof_N 	N 	0.4843	0.6974	0.9568	-0.152
Mof_N 	N 	0.79543	0.7494	0.4763	-0.394
Mof_N 	N 	0.81763	0.2594	0.3026	-0.146
Mof_N 	N 	0.12877	0.7269	0.2506	-0.395
Mof_N 	N 	0.15097	0.0432	0.7406	-0.154
Mof_Cl	Cl	0.8446	0.41507	0.74663	-0.579
Mof_Cl	Cl	0.17793	0.33156	0.58493	-0.564
Mof_Cl	Cl	0.51127	0.25337	0.66844	-0.573
Mof_Cl	Cl	0.8446	0.58493	0.25337	-0.579
Mof_Cl	Cl	0.17793	0.66844	0.41507	-0.564
Mof_Cl	Cl	0.51127	0.74663	0.33156	-0.573
Mof_O 	O 	0.629	0.3589	0.8722	-0.351
Mof_O 	O 	0.5666	0.4536	0.0999	-0.282
Mof_O 	O 	0.3798	0.3459	0.9004	-0.303
Mof_O 	O 	0.96233	0.5133	0.6411	-0.363
Mof_O 	O 	0.89993	0.6463	0.5464	-0.286
Mof_O 	O 	0.71313	0.5545	0.6541	-0.309
Mof_O 	O 	0.29567	0.1278	0.4867	-0.349
Mof_O 	O 	0.23327	0.9001	0.3537	-0.282
Mof_O 	O 	0.04647	0.0996	0.4455	-0.296
Mof_O 	O 	0.629	0.6411	0.1278	-0.351
Mof_O 	O 	0.5666	0.5464	0.9001	-0.282
Mof_O 	O 	0.3798	0.6541	0.0996	-0.303
Mof_O 	O 	0.96233	0.4867	0.3589	-0.363
Mof_O 	O 	0.89993	0.3537	0.4536	-0.286
Mof_O 	O 	0.71313	0.4455	0.3459	-0.309
Mof_O 	O 	0.29567	0.8722	0.5133	-0.349
Mof_O 	O 	0.23327	0.0999	0.6463	-0.282
Mof_O 	O 	0.04647	0.9004	0.5545	-0.296
_end
