data_functionalizedCrystal
_audit_creation_method	'EQeq! by Chris Wilmer'
_symmetry_space_group_name_H-M	'P1'
_symmetry_Int_Tables_number	1
_symmetry_cell_setting	triclinic
loop_
_symmetry_equiv_pos_as_xyz
  x,y,z
_cell_length_a	15.814
_cell_length_b	21.958
_cell_length_c	48.422
_cell_angle_alpha	90
_cell_angle_beta	90
_cell_angle_gamma	90
loop_
_atom_site_label
_atom_site_type_symbol
_atom_site_fract_x
_atom_site_fract_y
_atom_site_fract_z
_atom_site_charge
Mof_La	La	0.11064	0.75055	0.86581	2.379
Mof_La	La	0.61064	0.74945	0.63419	2.379
Mof_La	La	0.38936	0.75055	0.13419	2.379
Mof_La	La	0.88936	0.74945	0.36581	2.379
Mof_La	La	0.88936	0.24945	0.13419	2.379
Mof_La	La	0.38936	0.25055	0.36581	2.379
Mof_La	La	0.61064	0.24945	0.86581	2.379
Mof_La	La	0.11064	0.25055	0.63419	2.379
Mof_B 	B 	0.9741	0.8241	0.9014	1.83
Mof_B 	B 	0.4741	0.6759	0.5986	1.832
Mof_B 	B 	0.5259	0.8241	0.0986	1.833
Mof_B 	B 	0.0259	0.6759	0.4014	1.834
Mof_B 	B 	0.0259	0.1759	0.0986	1.831
Mof_B 	B 	0.5259	0.3241	0.4014	1.833
Mof_B 	B 	0.4741	0.1759	0.9014	1.833
Mof_B 	B 	0.9741	0.3241	0.5986	1.834
Mof_H 	H 	0.0008	0.743	0.946	-0.145
Mof_H 	H 	0.007	0.6849	0.9273	-0.13
Mof_H 	H 	0.9242	0.7242	0.9273	-0.154
Mof_H 	H 	0.9703	0.9195	0.87	-0.166
Mof_H 	H 	0.047	0.9076	0.8502	-0.137
Mof_H 	H 	0.0631	0.9286	0.8807	-0.15
Mof_H 	H 	0.247	0.8472	0.8682	0.286
Mof_H 	H 	0.2759	0.8875	0.8265	-0.028
Mof_H 	H 	0.2045	0.9224	0.8425	-0.034
Mof_H 	H 	0.1806	0.8746	0.8197	-0.018
Mof_H 	H 	0.308	0.8298	0.9302	0.01
Mof_H 	H 	0.3207	0.8288	0.9774	0.072
Mof_H 	H 	0.1715	0.6826	0.9806	0.077
Mof_H 	H 	0.1611	0.6853	0.9333	0.019
Mof_H 	H 	0.0895	0.5353	0.889	0.024
Mof_H 	H 	0.1807	0.4553	0.8829	0.071
Mof_H 	H 	0.3716	0.5729	0.8756	0.072
Mof_H 	H 	0.2777	0.6515	0.8821	0.006
Mof_H 	H 	0.5122	0.4159	0.8371	0.02
Mof_H 	H 	0.4286	0.4979	0.8485	0.072
Mof_H 	H 	0.2832	0.3874	0.8938	0.079
Mof_H 	H 	0.3673	0.307	0.8809	0.014
Mof_H 	H 	0.9924	0.8844	0.8043	0.024
Mof_H 	H 	0.8887	0.8874	0.7712	0.075
Mof_H 	H 	0.9144	0.7085	0.7611	0.074
Mof_H 	H 	0.0114	0.7074	0.7963	0.02
Mof_H 	H 	0.8088	0.7346	0.6773	0.006
Mof_H 	H 	0.8923	0.7312	0.716	0.076
Mof_H 	H 	0.7619	0.8709	0.7472	0.071
Mof_H 	H 	0.6842	0.8751	0.7072	0.023
Mof_H 	H 	0.8216	0.8053	0.9288	-0.234
Mof_H 	H 	0.6892	0.7804	0.9133	0.268
Mof_H 	H 	0.66	0.7744	0.8665	-0.172
Mof_H 	H 	0.7688	0.7936	0.8353	0.276
Mof_H 	H 	0.901	0.8188	0.851	-0.237
Mof_H 	H 	0.881	0.9163	0.9288	-0.21
Mof_H 	H 	0.9218	0.9933	0.9583	0.249
Mof_H 	H 	0.0599	0.9961	0.9747	-0.155
Mof_H 	H 	0.1557	0.9226	0.9603	0.248
Mof_H 	H 	0.1129	0.8464	0.931	-0.222
Mof_H 	H 	0.5008	0.757	0.554	-0.15
Mof_H 	H 	0.507	0.8151	0.5727	-0.135
Mof_H 	H 	0.4242	0.7758	0.5727	-0.158
Mof_H 	H 	0.4703	0.5805	0.63	-0.162
Mof_H 	H 	0.547	0.5924	0.6498	-0.135
Mof_H 	H 	0.5631	0.5714	0.6193	-0.148
Mof_H 	H 	0.747	0.6528	0.6318	0.286
Mof_H 	H 	0.7759	0.6125	0.6735	-0.029
Mof_H 	H 	0.7045	0.5776	0.6575	-0.034
Mof_H 	H 	0.6806	0.6254	0.6803	-0.019
Mof_H 	H 	0.808	0.6702	0.5698	0.01
Mof_H 	H 	0.8207	0.6712	0.5226	0.072
Mof_H 	H 	0.6715	0.8174	0.5194	0.077
Mof_H 	H 	0.6611	0.8147	0.5667	0.019
Mof_H 	H 	0.5895	0.9647	0.611	0.025
Mof_H 	H 	0.6807	0.0447	0.6171	0.07
Mof_H 	H 	0.8716	0.9271	0.6244	0.071
Mof_H 	H 	0.7777	0.8485	0.6179	0.006
Mof_H 	H 	0.0122	0.0841	0.6629	0.019
Mof_H 	H 	0.9286	0.0021	0.6515	0.073
Mof_H 	H 	0.7832	0.1126	0.6062	0.079
Mof_H 	H 	0.8673	0.193	0.6191	0.014
Mof_H 	H 	0.4924	0.6156	0.6957	0.024
Mof_H 	H 	0.3887	0.6126	0.7288	0.076
Mof_H 	H 	0.4144	0.7915	0.7389	0.075
Mof_H 	H 	0.5114	0.7926	0.7037	0.016
Mof_H 	H 	0.3088	0.7654	0.8227	0.006
Mof_H 	H 	0.3923	0.7688	0.784	0.076
Mof_H 	H 	0.2619	0.6291	0.7528	0.07
Mof_H 	H 	0.1842	0.6249	0.7928	0.023
Mof_H 	H 	0.3216	0.6947	0.5712	-0.234
Mof_H 	H 	0.1892	0.7196	0.5867	0.269
Mof_H 	H 	0.16	0.7256	0.6335	-0.172
Mof_H 	H 	0.2688	0.7064	0.6647	0.276
Mof_H 	H 	0.401	0.6812	0.649	-0.237
Mof_H 	H 	0.381	0.5837	0.5712	-0.209
Mof_H 	H 	0.4218	0.5067	0.5417	0.247
Mof_H 	H 	0.5599	0.5039	0.5253	-0.153
Mof_H 	H 	0.6557	0.5774	0.5397	0.246
Mof_H 	H 	0.6129	0.6536	0.569	-0.22
Mof_H 	H 	0.4992	0.743	0.054	-0.15
Mof_H 	H 	0.493	0.6849	0.0727	-0.135
Mof_H 	H 	0.5758	0.7242	0.0727	-0.158
Mof_H 	H 	0.5297	0.9195	0.13	-0.162
Mof_H 	H 	0.453	0.9076	0.1498	-0.135
Mof_H 	H 	0.4369	0.9286	0.1193	-0.148
Mof_H 	H 	0.253	0.8472	0.1318	0.286
Mof_H 	H 	0.2241	0.8875	0.1735	-0.028
Mof_H 	H 	0.2955	0.9224	0.1575	-0.034
Mof_H 	H 	0.3194	0.8746	0.1803	-0.018
Mof_H 	H 	0.192	0.8298	0.0698	0.01
Mof_H 	H 	0.1793	0.8288	0.0226	0.073
Mof_H 	H 	0.3285	0.6826	0.0194	0.077
Mof_H 	H 	0.3389	0.6853	0.0667	0.019
Mof_H 	H 	0.4105	0.5353	0.111	0.024
Mof_H 	H 	0.3193	0.4553	0.1171	0.071
Mof_H 	H 	0.1284	0.5729	0.1244	0.072
Mof_H 	H 	0.2223	0.6515	0.1179	0.006
Mof_H 	H 	0.9878	0.4159	0.1629	0.022
Mof_H 	H 	0.0714	0.4979	0.1515	0.071
Mof_H 	H 	0.2168	0.3874	0.1062	0.078
Mof_H 	H 	0.1327	0.307	0.1191	0.014
Mof_H 	H 	0.5076	0.8844	0.1957	0.024
Mof_H 	H 	0.6113	0.8874	0.2288	0.076
Mof_H 	H 	0.5856	0.7085	0.2389	0.075
Mof_H 	H 	0.4886	0.7074	0.2037	0.016
Mof_H 	H 	0.6912	0.7346	0.3227	0.006
Mof_H 	H 	0.6077	0.7312	0.284	0.076
Mof_H 	H 	0.7381	0.8709	0.2528	0.07
Mof_H 	H 	0.8158	0.8751	0.2928	0.023
Mof_H 	H 	0.6784	0.8053	0.0712	-0.234
Mof_H 	H 	0.8108	0.7804	0.0867	0.269
Mof_H 	H 	0.84	0.7744	0.1335	-0.172
Mof_H 	H 	0.7312	0.7936	0.1647	0.276
Mof_H 	H 	0.599	0.8188	0.149	-0.237
Mof_H 	H 	0.619	0.9163	0.0712	-0.209
Mof_H 	H 	0.5782	0.9933	0.0417	0.247
Mof_H 	H 	0.4401	0.9961	0.0253	-0.153
Mof_H 	H 	0.3443	0.9226	0.0397	0.246
Mof_H 	H 	0.3871	0.8464	0.069	-0.22
Mof_H 	H 	0.9992	0.757	0.446	-0.151
Mof_H 	H 	0.993	0.8151	0.4273	-0.135
Mof_H 	H 	0.0758	0.7758	0.4273	-0.158
Mof_H 	H 	0.0297	0.5805	0.37	-0.164
Mof_H 	H 	0.953	0.5924	0.3502	-0.136
Mof_H 	H 	0.9369	0.5714	0.3807	-0.149
Mof_H 	H 	0.753	0.6528	0.3682	0.286
Mof_H 	H 	0.7241	0.6125	0.3265	-0.028
Mof_H 	H 	0.7955	0.5776	0.3425	-0.034
Mof_H 	H 	0.8194	0.6254	0.3197	-0.018
Mof_H 	H 	0.692	0.6702	0.4302	0.01
Mof_H 	H 	0.6793	0.6712	0.4774	0.072
Mof_H 	H 	0.8285	0.8174	0.4806	0.077
Mof_H 	H 	0.8389	0.8147	0.4333	0.019
Mof_H 	H 	0.9105	0.9647	0.389	0.025
Mof_H 	H 	0.8193	0.0447	0.3829	0.07
Mof_H 	H 	0.6284	0.9271	0.3756	0.071
Mof_H 	H 	0.7223	0.8485	0.3821	0.006
Mof_H 	H 	0.4878	0.0841	0.3371	0.019
Mof_H 	H 	0.5714	0.0021	0.3485	0.072
Mof_H 	H 	0.7168	0.1126	0.3938	0.079
Mof_H 	H 	0.6327	0.193	0.3809	0.014
Mof_H 	H 	0.0076	0.6156	0.3043	0.024
Mof_H 	H 	0.1113	0.6126	0.2712	0.075
Mof_H 	H 	0.0856	0.7915	0.2611	0.075
Mof_H 	H 	0.9886	0.7926	0.2963	0.017
Mof_H 	H 	0.1912	0.7654	0.1773	0.006
Mof_H 	H 	0.1077	0.7688	0.216	0.076
Mof_H 	H 	0.2381	0.6291	0.2472	0.07
Mof_H 	H 	0.3158	0.6249	0.2072	0.023
Mof_H 	H 	0.1784	0.6947	0.4288	-0.234
Mof_H 	H 	0.3108	0.7196	0.4133	0.269
Mof_H 	H 	0.34	0.7256	0.3665	-0.172
Mof_H 	H 	0.2312	0.7064	0.3353	0.276
Mof_H 	H 	0.099	0.6812	0.351	-0.238
Mof_H 	H 	0.119	0.5837	0.4288	-0.209
Mof_H 	H 	0.0782	0.5067	0.4583	0.248
Mof_H 	H 	0.9401	0.5039	0.4747	-0.153
Mof_H 	H 	0.8443	0.5774	0.4603	0.246
Mof_H 	H 	0.8871	0.6536	0.431	-0.22
Mof_H 	H 	0.9992	0.257	0.054	-0.145
Mof_H 	H 	0.993	0.3151	0.0727	-0.13
Mof_H 	H 	0.0758	0.2758	0.0727	-0.154
Mof_H 	H 	0.0297	0.0805	0.13	-0.166
Mof_H 	H 	0.953	0.0924	0.1498	-0.137
Mof_H 	H 	0.9369	0.0714	0.1193	-0.15
Mof_H 	H 	0.753	0.1528	0.1318	0.286
Mof_H 	H 	0.7241	0.1125	0.1735	-0.028
Mof_H 	H 	0.7955	0.0776	0.1575	-0.034
Mof_H 	H 	0.8194	0.1254	0.1803	-0.018
Mof_H 	H 	0.692	0.1702	0.0698	0.01
Mof_H 	H 	0.6793	0.1712	0.0226	0.072
Mof_H 	H 	0.8285	0.3174	0.0194	0.077
Mof_H 	H 	0.8389	0.3147	0.0667	0.019
Mof_H 	H 	0.9105	0.4647	0.111	0.024
Mof_H 	H 	0.8193	0.5447	0.1171	0.071
Mof_H 	H 	0.6284	0.4271	0.1244	0.072
Mof_H 	H 	0.7223	0.3485	0.1179	0.006
Mof_H 	H 	0.4878	0.5841	0.1629	0.02
Mof_H 	H 	0.5714	0.5021	0.1515	0.072
Mof_H 	H 	0.7168	0.6126	0.1062	0.079
Mof_H 	H 	0.6327	0.693	0.1191	0.014
Mof_H 	H 	0.0076	0.1156	0.1957	0.024
Mof_H 	H 	0.1113	0.1126	0.2288	0.075
Mof_H 	H 	0.0856	0.2915	0.2389	0.074
Mof_H 	H 	0.9886	0.2926	0.2037	0.02
Mof_H 	H 	0.1912	0.2654	0.3227	0.006
Mof_H 	H 	0.1077	0.2688	0.284	0.076
Mof_H 	H 	0.2381	0.1291	0.2528	0.071
Mof_H 	H 	0.3158	0.1249	0.2928	0.023
Mof_H 	H 	0.1784	0.1947	0.0712	-0.234
Mof_H 	H 	0.3108	0.2196	0.0867	0.268
Mof_H 	H 	0.34	0.2256	0.1335	-0.172
Mof_H 	H 	0.2312	0.2064	0.1647	0.276
Mof_H 	H 	0.099	0.1812	0.149	-0.237
Mof_H 	H 	0.119	0.0837	0.0712	-0.21
Mof_H 	H 	0.0782	0.0067	0.0417	0.249
Mof_H 	H 	0.9401	0.0039	0.0253	-0.155
Mof_H 	H 	0.8443	0.0774	0.0397	0.248
Mof_H 	H 	0.8871	0.1536	0.069	-0.222
Mof_H 	H 	0.4992	0.243	0.446	-0.15
Mof_H 	H 	0.493	0.1849	0.4273	-0.135
Mof_H 	H 	0.5758	0.2242	0.4273	-0.158
Mof_H 	H 	0.5297	0.4195	0.37	-0.162
Mof_H 	H 	0.453	0.4076	0.3502	-0.135
Mof_H 	H 	0.4369	0.4286	0.3807	-0.148
Mof_H 	H 	0.253	0.3472	0.3682	0.286
Mof_H 	H 	0.2241	0.3875	0.3265	-0.029
Mof_H 	H 	0.2955	0.4224	0.3425	-0.034
Mof_H 	H 	0.3194	0.3746	0.3197	-0.019
Mof_H 	H 	0.192	0.3298	0.4302	0.01
Mof_H 	H 	0.1793	0.3288	0.4774	0.072
Mof_H 	H 	0.3285	0.1826	0.4806	0.077
Mof_H 	H 	0.3389	0.1853	0.4333	0.019
Mof_H 	H 	0.4105	0.0353	0.389	0.025
Mof_H 	H 	0.3193	0.9553	0.3829	0.07
Mof_H 	H 	0.1284	0.0729	0.3756	0.071
Mof_H 	H 	0.2223	0.1515	0.3821	0.006
Mof_H 	H 	0.9878	0.9159	0.3371	0.019
Mof_H 	H 	0.0714	0.9979	0.3485	0.073
Mof_H 	H 	0.2168	0.8874	0.3938	0.079
Mof_H 	H 	0.1327	0.807	0.3809	0.014
Mof_H 	H 	0.5076	0.3844	0.3043	0.024
Mof_H 	H 	0.6113	0.3874	0.2712	0.076
Mof_H 	H 	0.5856	0.2085	0.2611	0.075
Mof_H 	H 	0.4886	0.2074	0.2963	0.016
Mof_H 	H 	0.6912	0.2346	0.1773	0.006
Mof_H 	H 	0.6077	0.2312	0.216	0.076
Mof_H 	H 	0.7381	0.3709	0.2472	0.07
Mof_H 	H 	0.8158	0.3751	0.2072	0.023
Mof_H 	H 	0.6784	0.3053	0.4288	-0.234
Mof_H 	H 	0.8108	0.2804	0.4133	0.269
Mof_H 	H 	0.84	0.2744	0.3665	-0.172
Mof_H 	H 	0.7312	0.2936	0.3353	0.276
Mof_H 	H 	0.599	0.3188	0.351	-0.237
Mof_H 	H 	0.619	0.4163	0.4288	-0.209
Mof_H 	H 	0.5782	0.4933	0.4583	0.247
Mof_H 	H 	0.4401	0.4961	0.4747	-0.153
Mof_H 	H 	0.3443	0.4226	0.4603	0.246
Mof_H 	H 	0.3871	0.3464	0.431	-0.22
Mof_H 	H 	0.5008	0.257	0.946	-0.15
Mof_H 	H 	0.507	0.3151	0.9273	-0.135
Mof_H 	H 	0.4242	0.2758	0.9273	-0.158
Mof_H 	H 	0.4703	0.0805	0.87	-0.162
Mof_H 	H 	0.547	0.0924	0.8502	-0.135
Mof_H 	H 	0.5631	0.0714	0.8807	-0.148
Mof_H 	H 	0.747	0.1528	0.8682	0.286
Mof_H 	H 	0.7759	0.1125	0.8265	-0.028
Mof_H 	H 	0.7045	0.0776	0.8425	-0.034
Mof_H 	H 	0.6806	0.1254	0.8197	-0.018
Mof_H 	H 	0.808	0.1702	0.9302	0.01
Mof_H 	H 	0.8207	0.1712	0.9774	0.073
Mof_H 	H 	0.6715	0.3174	0.9806	0.077
Mof_H 	H 	0.6611	0.3147	0.9333	0.019
Mof_H 	H 	0.5895	0.4647	0.889	0.024
Mof_H 	H 	0.6807	0.5447	0.8829	0.071
Mof_H 	H 	0.8716	0.4271	0.8756	0.072
Mof_H 	H 	0.7777	0.3485	0.8821	0.006
Mof_H 	H 	0.0122	0.5841	0.8371	0.022
Mof_H 	H 	0.9286	0.5021	0.8485	0.071
Mof_H 	H 	0.7832	0.6126	0.8938	0.078
Mof_H 	H 	0.8673	0.693	0.8809	0.014
Mof_H 	H 	0.4924	0.1156	0.8043	0.024
Mof_H 	H 	0.3887	0.1126	0.7712	0.076
Mof_H 	H 	0.4144	0.2915	0.7611	0.075
Mof_H 	H 	0.5114	0.2926	0.7963	0.016
Mof_H 	H 	0.3088	0.2654	0.6773	0.006
Mof_H 	H 	0.3923	0.2688	0.716	0.076
Mof_H 	H 	0.2619	0.1291	0.7472	0.07
Mof_H 	H 	0.1842	0.1249	0.7072	0.023
Mof_H 	H 	0.3216	0.1947	0.9288	-0.234
Mof_H 	H 	0.1892	0.2196	0.9133	0.269
Mof_H 	H 	0.16	0.2256	0.8665	-0.172
Mof_H 	H 	0.2688	0.2064	0.8353	0.276
Mof_H 	H 	0.401	0.1812	0.851	-0.237
Mof_H 	H 	0.381	0.0837	0.9288	-0.209
Mof_H 	H 	0.4218	0.0067	0.9583	0.247
Mof_H 	H 	0.5599	0.0039	0.9747	-0.153
Mof_H 	H 	0.6557	0.0774	0.9603	0.246
Mof_H 	H 	0.6129	0.1536	0.931	-0.22
Mof_H 	H 	0.0008	0.243	0.554	-0.151
Mof_H 	H 	0.007	0.1849	0.5727	-0.135
Mof_H 	H 	0.9242	0.2242	0.5727	-0.158
Mof_H 	H 	0.9703	0.4195	0.63	-0.164
Mof_H 	H 	0.047	0.4076	0.6498	-0.136
Mof_H 	H 	0.0631	0.4286	0.6193	-0.149
Mof_H 	H 	0.247	0.3472	0.6318	0.286
Mof_H 	H 	0.2759	0.3875	0.6735	-0.028
Mof_H 	H 	0.2045	0.4224	0.6575	-0.034
Mof_H 	H 	0.1806	0.3746	0.6803	-0.018
Mof_H 	H 	0.308	0.3298	0.5698	0.01
Mof_H 	H 	0.3207	0.3288	0.5226	0.072
Mof_H 	H 	0.1715	0.1826	0.5194	0.077
Mof_H 	H 	0.1611	0.1853	0.5667	0.019
Mof_H 	H 	0.0895	0.0353	0.611	0.025
Mof_H 	H 	0.1807	0.9553	0.6171	0.07
Mof_H 	H 	0.3716	0.0729	0.6244	0.071
Mof_H 	H 	0.2777	0.1515	0.6179	0.006
Mof_H 	H 	0.5122	0.9159	0.6629	0.019
Mof_H 	H 	0.4286	0.9979	0.6515	0.072
Mof_H 	H 	0.2832	0.8874	0.6062	0.079
Mof_H 	H 	0.3673	0.807	0.6191	0.014
Mof_H 	H 	0.9924	0.3844	0.6957	0.024
Mof_H 	H 	0.8887	0.3874	0.7288	0.075
Mof_H 	H 	0.9144	0.2085	0.7389	0.075
Mof_H 	H 	0.0114	0.2074	0.7037	0.017
Mof_H 	H 	0.8088	0.2346	0.8227	0.006
Mof_H 	H 	0.8923	0.2312	0.784	0.076
Mof_H 	H 	0.7619	0.3709	0.7528	0.07
Mof_H 	H 	0.6842	0.3751	0.7928	0.023
Mof_H 	H 	0.8216	0.3053	0.5712	-0.234
Mof_H 	H 	0.6892	0.2804	0.5867	0.269
Mof_H 	H 	0.66	0.2744	0.6335	-0.172
Mof_H 	H 	0.7688	0.2936	0.6647	0.276
Mof_H 	H 	0.901	0.3188	0.649	-0.238
Mof_H 	H 	0.881	0.4163	0.5712	-0.209
Mof_H 	H 	0.9218	0.4933	0.5417	0.248
Mof_H 	H 	0.0599	0.4961	0.5253	-0.153
Mof_H 	H 	0.1557	0.4226	0.5397	0.246
Mof_H 	H 	0.1129	0.3464	0.569	-0.22
Mof_C 	C 	0.9847	0.7255	0.92863	0.543
Mof_C 	C 	0.0273	0.9047	0.8689	0.564
Mof_C 	C 	0.22	0.8843	0.8342	0.202
Mof_C 	C 	0.2804	0.8001	0.94053	0.065
Mof_C 	C 	0.2877	0.7994	0.96877	-0.129
Mof_C 	C 	0.2471	0.756	0.98474	0.05
Mof_C 	C 	0.1995	0.7129	0.97072	-0.124
Mof_C 	C 	0.1933	0.7145	0.94241	0.059
Mof_C 	C 	0.1466	0.5427	0.88593	0.057
Mof_C 	C 	0.2015	0.495	0.88231	-0.123
Mof_C 	C 	0.2869	0.5043	0.8778	0.046
Mof_C 	C 	0.3145	0.5644	0.87805	-0.122
Mof_C 	C 	0.2582	0.6115	0.88182	0.064
Mof_C 	C 	0.4648	0.4105	0.8482	0.062
Mof_C 	C 	0.4149	0.4594	0.85507	-0.123
Mof_C 	C 	0.3442	0.4521	0.87176	0.049
Mof_C 	C 	0.3284	0.3938	0.88188	-0.131
Mof_C 	C 	0.379	0.3459	0.87434	0.06
Mof_C 	C 	0.9771	0.8489	0.7951	0.057
Mof_C 	C 	0.9162	0.8509	0.7749	-0.122
Mof_C 	C 	0.8953	0.7991	0.76006	0.047
Mof_C 	C 	0.9307	0.745	0.76926	-0.12
Mof_C 	C 	0.9894	0.7443	0.79015	0.054
Mof_C 	C 	0.8012	0.7631	0.69131	0.056
Mof_C 	C 	0.8503	0.7607	0.71461	-0.123
Mof_C 	C 	0.8382	0.8015	0.73608	0.049
Mof_C 	C 	0.7735	0.8438	0.73297	-0.127
Mof_C 	C 	0.7266	0.8461	0.70912	0.052
Mof_C 	C 	0.8789	0.8152	0.89178	-1.035
Mof_C 	C 	0.812	0.8031	0.90986	0.721
Mof_C 	C 	0.7318	0.7881	0.9005	-0.689
Mof_C 	C 	0.7139	0.7844	0.8727	0.577
Mof_C 	C 	0.7788	0.796	0.85416	-0.693
Mof_C 	C 	0.8587	0.811	0.86385	0.722
Mof_C 	C 	0.9911	0.8704	0.9267	-0.972
Mof_C 	C 	0.9363	0.9168	0.9353	0.659
Mof_C 	C 	0.9605	0.9636	0.953	-0.64
Mof_C 	C 	0.0429	0.9655	0.9626	0.523
Mof_C 	C 	0.0999	0.9214	0.9542	-0.643
Mof_C 	C 	0.0735	0.8754	0.9365	0.665
Mof_C 	C 	0.4847	0.7745	0.57137	0.557
Mof_C 	C 	0.5273	0.5953	0.6311	0.557
Mof_C 	C 	0.72	0.6157	0.6658	0.203
Mof_C 	C 	0.7804	0.6999	0.55947	0.065
Mof_C 	C 	0.7877	0.7006	0.53123	-0.129
Mof_C 	C 	0.7471	0.744	0.51526	0.05
Mof_C 	C 	0.6995	0.7871	0.52928	-0.124
Mof_C 	C 	0.6933	0.7855	0.55759	0.059
Mof_C 	C 	0.6466	0.9573	0.61407	0.055
Mof_C 	C 	0.7015	0.005	0.61769	-0.12
Mof_C 	C 	0.7869	0.9957	0.6222	0.043
Mof_C 	C 	0.8145	0.9356	0.62195	-0.121
Mof_C 	C 	0.7582	0.8885	0.61818	0.063
Mof_C 	C 	0.9648	0.0895	0.6518	0.063
Mof_C 	C 	0.9149	0.0406	0.64493	-0.124
Mof_C 	C 	0.8442	0.0479	0.62824	0.051
Mof_C 	C 	0.8284	0.1062	0.61812	-0.132
Mof_C 	C 	0.879	0.1541	0.62566	0.06
Mof_C 	C 	0.4771	0.6511	0.7049	0.06
Mof_C 	C 	0.4162	0.6491	0.7251	-0.124
Mof_C 	C 	0.3953	0.7009	0.73994	0.05
Mof_C 	C 	0.4307	0.755	0.73074	-0.124
Mof_C 	C 	0.4894	0.7557	0.70985	0.061
Mof_C 	C 	0.3012	0.7369	0.80869	0.055
Mof_C 	C 	0.3503	0.7393	0.78539	-0.122
Mof_C 	C 	0.3382	0.6985	0.76392	0.048
Mof_C 	C 	0.2735	0.6562	0.76703	-0.126
Mof_C 	C 	0.2266	0.6539	0.79088	0.052
Mof_C 	C 	0.3789	0.6848	0.60822	-1.036
Mof_C 	C 	0.312	0.6969	0.59014	0.722
Mof_C 	C 	0.2318	0.7119	0.5995	-0.689
Mof_C 	C 	0.2139	0.7156	0.6273	0.577
Mof_C 	C 	0.2788	0.704	0.64584	-0.693
Mof_C 	C 	0.3587	0.689	0.63615	0.723
Mof_C 	C 	0.4911	0.6296	0.5733	-0.969
Mof_C 	C 	0.4363	0.5832	0.5647	0.655
Mof_C 	C 	0.4605	0.5364	0.547	-0.633
Mof_C 	C 	0.5429	0.5345	0.5374	0.516
Mof_C 	C 	0.5999	0.5786	0.5458	-0.638
Mof_C 	C 	0.5735	0.6246	0.5635	0.66
Mof_C 	C 	0.5153	0.7255	0.07137	0.557
Mof_C 	C 	0.4727	0.9047	0.1311	0.557
Mof_C 	C 	0.28	0.8843	0.1658	0.203
Mof_C 	C 	0.2196	0.8001	0.05947	0.065
Mof_C 	C 	0.2123	0.7994	0.03123	-0.129
Mof_C 	C 	0.2529	0.756	0.01526	0.05
Mof_C 	C 	0.3005	0.7129	0.02928	-0.124
Mof_C 	C 	0.3067	0.7145	0.05759	0.059
Mof_C 	C 	0.3534	0.5427	0.11407	0.057
Mof_C 	C 	0.2985	0.495	0.11769	-0.123
Mof_C 	C 	0.2131	0.5043	0.1222	0.047
Mof_C 	C 	0.1855	0.5644	0.12195	-0.123
Mof_C 	C 	0.2418	0.6115	0.11818	0.064
Mof_C 	C 	0.0352	0.4105	0.1518	0.059
Mof_C 	C 	0.0851	0.4594	0.14493	-0.121
Mof_C 	C 	0.1558	0.4521	0.12824	0.048
Mof_C 	C 	0.1716	0.3938	0.11812	-0.13
Mof_C 	C 	0.121	0.3459	0.12566	0.059
Mof_C 	C 	0.5229	0.8489	0.2049	0.06
Mof_C 	C 	0.5838	0.8509	0.2251	-0.124
Mof_C 	C 	0.6047	0.7991	0.23994	0.05
Mof_C 	C 	0.5693	0.745	0.23074	-0.124
Mof_C 	C 	0.5106	0.7443	0.20985	0.061
Mof_C 	C 	0.6988	0.7631	0.30869	0.055
Mof_C 	C 	0.6497	0.7607	0.28539	-0.122
Mof_C 	C 	0.6618	0.8015	0.26392	0.048
Mof_C 	C 	0.7265	0.8438	0.26703	-0.126
Mof_C 	C 	0.7734	0.8461	0.29088	0.052
Mof_C 	C 	0.6211	0.8152	0.10822	-1.036
Mof_C 	C 	0.688	0.8031	0.09014	0.722
Mof_C 	C 	0.7682	0.7881	0.0995	-0.69
Mof_C 	C 	0.7861	0.7844	0.1273	0.577
Mof_C 	C 	0.7212	0.796	0.14584	-0.693
Mof_C 	C 	0.6413	0.811	0.13615	0.723
Mof_C 	C 	0.5089	0.8704	0.0733	-0.969
Mof_C 	C 	0.5637	0.9168	0.0647	0.655
Mof_C 	C 	0.5395	0.9636	0.047	-0.633
Mof_C 	C 	0.4571	0.9655	0.0374	0.516
Mof_C 	C 	0.4001	0.9214	0.0458	-0.638
Mof_C 	C 	0.4265	0.8754	0.0635	0.66
Mof_C 	C 	0.0153	0.7745	0.42863	0.559
Mof_C 	C 	0.9727	0.5953	0.3689	0.56
Mof_C 	C 	0.78	0.6157	0.3342	0.203
Mof_C 	C 	0.7196	0.6999	0.44053	0.065
Mof_C 	C 	0.7123	0.7006	0.46877	-0.129
Mof_C 	C 	0.7529	0.744	0.48474	0.05
Mof_C 	C 	0.8005	0.7871	0.47072	-0.124
Mof_C 	C 	0.8067	0.7855	0.44241	0.059
Mof_C 	C 	0.8534	0.9573	0.38593	0.055
Mof_C 	C 	0.7985	0.005	0.38231	-0.119
Mof_C 	C 	0.7131	0.9957	0.3778	0.043
Mof_C 	C 	0.6855	0.9356	0.37805	-0.121
Mof_C 	C 	0.7418	0.8885	0.38182	0.063
Mof_C 	C 	0.5352	0.0895	0.3482	0.062
Mof_C 	C 	0.5851	0.0406	0.35507	-0.124
Mof_C 	C 	0.6558	0.0479	0.37176	0.051
Mof_C 	C 	0.6716	0.1062	0.38188	-0.132
Mof_C 	C 	0.621	0.1541	0.37434	0.06
Mof_C 	C 	0.0229	0.6511	0.2951	0.059
Mof_C 	C 	0.0838	0.6491	0.2749	-0.123
Mof_C 	C 	0.1047	0.7009	0.26006	0.049
Mof_C 	C 	0.0693	0.755	0.26926	-0.123
Mof_C 	C 	0.0106	0.7557	0.29015	0.059
Mof_C 	C 	0.1988	0.7369	0.19131	0.055
Mof_C 	C 	0.1497	0.7393	0.21461	-0.123
Mof_C 	C 	0.1618	0.6985	0.23608	0.048
Mof_C 	C 	0.2265	0.6562	0.23297	-0.127
Mof_C 	C 	0.2734	0.6539	0.20912	0.052
Mof_C 	C 	0.1211	0.6848	0.39178	-1.036
Mof_C 	C 	0.188	0.6969	0.40986	0.722
Mof_C 	C 	0.2682	0.7119	0.4005	-0.69
Mof_C 	C 	0.2861	0.7156	0.3727	0.577
Mof_C 	C 	0.2212	0.704	0.35416	-0.693
Mof_C 	C 	0.1413	0.689	0.36385	0.723
Mof_C 	C 	0.0089	0.6296	0.4267	-0.969
Mof_C 	C 	0.0637	0.5832	0.4353	0.656
Mof_C 	C 	0.0395	0.5364	0.453	-0.634
Mof_C 	C 	0.9571	0.5345	0.4626	0.518
Mof_C 	C 	0.9001	0.5786	0.4542	-0.639
Mof_C 	C 	0.9265	0.6246	0.4365	0.661
Mof_C 	C 	0.0153	0.2745	0.07137	0.543
Mof_C 	C 	0.9727	0.0953	0.1311	0.564
Mof_C 	C 	0.78	0.1157	0.1658	0.202
Mof_C 	C 	0.7196	0.1999	0.05947	0.065
Mof_C 	C 	0.7123	0.2006	0.03123	-0.129
Mof_C 	C 	0.7529	0.244	0.01526	0.05
Mof_C 	C 	0.8005	0.2871	0.02928	-0.124
Mof_C 	C 	0.8067	0.2855	0.05759	0.059
Mof_C 	C 	0.8534	0.4573	0.11407	0.057
Mof_C 	C 	0.7985	0.505	0.11769	-0.123
Mof_C 	C 	0.7131	0.4957	0.1222	0.046
Mof_C 	C 	0.6855	0.4356	0.12195	-0.122
Mof_C 	C 	0.7418	0.3885	0.11818	0.064
Mof_C 	C 	0.5352	0.5895	0.1518	0.062
Mof_C 	C 	0.5851	0.5406	0.14493	-0.123
Mof_C 	C 	0.6558	0.5479	0.12824	0.049
Mof_C 	C 	0.6716	0.6062	0.11812	-0.131
Mof_C 	C 	0.621	0.6541	0.12566	0.06
Mof_C 	C 	0.0229	0.1511	0.2049	0.057
Mof_C 	C 	0.0838	0.1491	0.2251	-0.122
Mof_C 	C 	0.1047	0.2009	0.23994	0.047
Mof_C 	C 	0.0693	0.255	0.23074	-0.12
Mof_C 	C 	0.0106	0.2557	0.20985	0.054
Mof_C 	C 	0.1988	0.2369	0.30869	0.056
Mof_C 	C 	0.1497	0.2393	0.28539	-0.123
Mof_C 	C 	0.1618	0.1985	0.26392	0.049
Mof_C 	C 	0.2265	0.1562	0.26703	-0.127
Mof_C 	C 	0.2734	0.1539	0.29088	0.052
Mof_C 	C 	0.1211	0.1848	0.10822	-1.035
Mof_C 	C 	0.188	0.1969	0.09014	0.721
Mof_C 	C 	0.2682	0.2119	0.0995	-0.689
Mof_C 	C 	0.2861	0.2156	0.1273	0.577
Mof_C 	C 	0.2212	0.204	0.14584	-0.693
Mof_C 	C 	0.1413	0.189	0.13615	0.722
Mof_C 	C 	0.0089	0.1296	0.0733	-0.972
Mof_C 	C 	0.0637	0.0832	0.0647	0.659
Mof_C 	C 	0.0395	0.0364	0.047	-0.64
Mof_C 	C 	0.9571	0.0345	0.0374	0.523
Mof_C 	C 	0.9001	0.0786	0.0458	-0.643
Mof_C 	C 	0.9265	0.1246	0.0635	0.665
Mof_C 	C 	0.5153	0.2255	0.42863	0.557
Mof_C 	C 	0.4727	0.4047	0.3689	0.557
Mof_C 	C 	0.28	0.3843	0.3342	0.203
Mof_C 	C 	0.2196	0.3001	0.44053	0.065
Mof_C 	C 	0.2123	0.2994	0.46877	-0.129
Mof_C 	C 	0.2529	0.256	0.48474	0.05
Mof_C 	C 	0.3005	0.2129	0.47072	-0.124
Mof_C 	C 	0.3067	0.2145	0.44241	0.059
Mof_C 	C 	0.3534	0.0427	0.38593	0.055
Mof_C 	C 	0.2985	0.995	0.38231	-0.12
Mof_C 	C 	0.2131	0.0043	0.3778	0.043
Mof_C 	C 	0.1855	0.0644	0.37805	-0.121
Mof_C 	C 	0.2418	0.1115	0.38182	0.063
Mof_C 	C 	0.0352	0.9105	0.3482	0.063
Mof_C 	C 	0.0851	0.9594	0.35507	-0.124
Mof_C 	C 	0.1558	0.9521	0.37176	0.051
Mof_C 	C 	0.1716	0.8938	0.38188	-0.132
Mof_C 	C 	0.121	0.8459	0.37434	0.06
Mof_C 	C 	0.5229	0.3489	0.2951	0.06
Mof_C 	C 	0.5838	0.3509	0.2749	-0.124
Mof_C 	C 	0.6047	0.2991	0.26006	0.05
Mof_C 	C 	0.5693	0.245	0.26926	-0.124
Mof_C 	C 	0.5106	0.2443	0.29015	0.061
Mof_C 	C 	0.6988	0.2631	0.19131	0.055
Mof_C 	C 	0.6497	0.2607	0.21461	-0.122
Mof_C 	C 	0.6618	0.3015	0.23608	0.048
Mof_C 	C 	0.7265	0.3438	0.23297	-0.126
Mof_C 	C 	0.7734	0.3461	0.20912	0.052
Mof_C 	C 	0.6211	0.3152	0.39178	-1.036
Mof_C 	C 	0.688	0.3031	0.40986	0.722
Mof_C 	C 	0.7682	0.2881	0.4005	-0.689
Mof_C 	C 	0.7861	0.2844	0.3727	0.577
Mof_C 	C 	0.7212	0.296	0.35416	-0.693
Mof_C 	C 	0.6413	0.311	0.36385	0.723
Mof_C 	C 	0.5089	0.3704	0.4267	-0.969
Mof_C 	C 	0.5637	0.4168	0.4353	0.655
Mof_C 	C 	0.5395	0.4636	0.453	-0.633
Mof_C 	C 	0.4571	0.4655	0.4626	0.516
Mof_C 	C 	0.4001	0.4214	0.4542	-0.638
Mof_C 	C 	0.4265	0.3754	0.4365	0.66
Mof_C 	C 	0.4847	0.2745	0.92863	0.557
Mof_C 	C 	0.5273	0.0953	0.8689	0.557
Mof_C 	C 	0.72	0.1157	0.8342	0.203
Mof_C 	C 	0.7804	0.1999	0.94053	0.065
Mof_C 	C 	0.7877	0.2006	0.96877	-0.129
Mof_C 	C 	0.7471	0.244	0.98474	0.05
Mof_C 	C 	0.6995	0.2871	0.97072	-0.124
Mof_C 	C 	0.6933	0.2855	0.94241	0.059
Mof_C 	C 	0.6466	0.4573	0.88593	0.057
Mof_C 	C 	0.7015	0.505	0.88231	-0.123
Mof_C 	C 	0.7869	0.4957	0.8778	0.047
Mof_C 	C 	0.8145	0.4356	0.87805	-0.123
Mof_C 	C 	0.7582	0.3885	0.88182	0.064
Mof_C 	C 	0.9648	0.5895	0.8482	0.059
Mof_C 	C 	0.9149	0.5406	0.85507	-0.121
Mof_C 	C 	0.8442	0.5479	0.87176	0.048
Mof_C 	C 	0.8284	0.6062	0.88188	-0.13
Mof_C 	C 	0.879	0.6541	0.87434	0.059
Mof_C 	C 	0.4771	0.1511	0.7951	0.06
Mof_C 	C 	0.4162	0.1491	0.7749	-0.124
Mof_C 	C 	0.3953	0.2009	0.76006	0.05
Mof_C 	C 	0.4307	0.255	0.76926	-0.124
Mof_C 	C 	0.4894	0.2557	0.79015	0.061
Mof_C 	C 	0.3012	0.2369	0.69131	0.055
Mof_C 	C 	0.3503	0.2393	0.71461	-0.122
Mof_C 	C 	0.3382	0.1985	0.73608	0.048
Mof_C 	C 	0.2735	0.1562	0.73297	-0.126
Mof_C 	C 	0.2266	0.1539	0.70912	0.052
Mof_C 	C 	0.3789	0.1848	0.89178	-1.036
Mof_C 	C 	0.312	0.1969	0.90986	0.722
Mof_C 	C 	0.2318	0.2119	0.9005	-0.69
Mof_C 	C 	0.2139	0.2156	0.8727	0.577
Mof_C 	C 	0.2788	0.204	0.85416	-0.693
Mof_C 	C 	0.3587	0.189	0.86385	0.723
Mof_C 	C 	0.4911	0.1296	0.9267	-0.969
Mof_C 	C 	0.4363	0.0832	0.9353	0.655
Mof_C 	C 	0.4605	0.0364	0.953	-0.633
Mof_C 	C 	0.5429	0.0345	0.9626	0.516
Mof_C 	C 	0.5999	0.0786	0.9542	-0.638
Mof_C 	C 	0.5735	0.1246	0.9365	0.66
Mof_C 	C 	0.9847	0.2255	0.57137	0.559
Mof_C 	C 	0.0273	0.4047	0.6311	0.56
Mof_C 	C 	0.22	0.3843	0.6658	0.203
Mof_C 	C 	0.2804	0.3001	0.55947	0.065
Mof_C 	C 	0.2877	0.2994	0.53123	-0.129
Mof_C 	C 	0.2471	0.256	0.51526	0.05
Mof_C 	C 	0.1995	0.2129	0.52928	-0.124
Mof_C 	C 	0.1933	0.2145	0.55759	0.059
Mof_C 	C 	0.1466	0.0427	0.61407	0.055
Mof_C 	C 	0.2015	0.995	0.61769	-0.119
Mof_C 	C 	0.2869	0.0043	0.6222	0.043
Mof_C 	C 	0.3145	0.0644	0.62195	-0.121
Mof_C 	C 	0.2582	0.1115	0.61818	0.063
Mof_C 	C 	0.4648	0.9105	0.6518	0.062
Mof_C 	C 	0.4149	0.9594	0.64493	-0.124
Mof_C 	C 	0.3442	0.9521	0.62824	0.051
Mof_C 	C 	0.3284	0.8938	0.61812	-0.132
Mof_C 	C 	0.379	0.8459	0.62566	0.06
Mof_C 	C 	0.9771	0.3489	0.7049	0.059
Mof_C 	C 	0.9162	0.3509	0.7251	-0.123
Mof_C 	C 	0.8953	0.2991	0.73994	0.049
Mof_C 	C 	0.9307	0.245	0.73074	-0.123
Mof_C 	C 	0.9894	0.2443	0.70985	0.059
Mof_C 	C 	0.8012	0.2631	0.80869	0.055
Mof_C 	C 	0.8503	0.2607	0.78539	-0.123
Mof_C 	C 	0.8382	0.3015	0.76392	0.048
Mof_C 	C 	0.7735	0.3438	0.76703	-0.127
Mof_C 	C 	0.7266	0.3461	0.79088	0.052
Mof_C 	C 	0.8789	0.3152	0.60822	-1.036
Mof_C 	C 	0.812	0.3031	0.59014	0.722
Mof_C 	C 	0.7318	0.2881	0.5995	-0.69
Mof_C 	C 	0.7139	0.2844	0.6273	0.577
Mof_C 	C 	0.7788	0.296	0.64584	-0.693
Mof_C 	C 	0.8587	0.311	0.63615	0.723
Mof_C 	C 	0.9911	0.3704	0.5733	-0.969
Mof_C 	C 	0.9363	0.4168	0.5647	0.656
Mof_C 	C 	0.9605	0.4636	0.547	-0.634
Mof_C 	C 	0.0429	0.4655	0.5374	0.518
Mof_C 	C 	0.0999	0.4214	0.5458	-0.639
Mof_C 	C 	0.0735	0.3754	0.5635	0.661
Mof_N 	N 	0.2333	0.7577	0.9279	-0.063
Mof_N 	N 	0.1754	0.6002	0.88509	-0.07
Mof_N 	N 	0.0148	0.7957	0.80162	-0.061
Mof_N 	N 	0.4446	0.3547	0.85762	-0.065
Mof_N 	N 	0.742	0.8065	0.68869	-0.062
Mof_N 	N 	0.7333	0.7423	0.5721	-0.063
Mof_N 	N 	0.6754	0.8998	0.61491	-0.069
Mof_N 	N 	0.5148	0.7043	0.69838	-0.064
Mof_N 	N 	0.9446	0.1453	0.64238	-0.065
Mof_N 	N 	0.242	0.6935	0.81131	-0.062
Mof_N 	N 	0.2667	0.7577	0.0721	-0.063
Mof_N 	N 	0.3246	0.6002	0.11491	-0.07
Mof_N 	N 	0.4852	0.7957	0.19838	-0.064
Mof_N 	N 	0.0554	0.3547	0.14238	-0.064
Mof_N 	N 	0.758	0.8065	0.31131	-0.062
Mof_N 	N 	0.7667	0.7423	0.4279	-0.063
Mof_N 	N 	0.8246	0.8998	0.38509	-0.069
Mof_N 	N 	0.9852	0.7043	0.30162	-0.063
Mof_N 	N 	0.5554	0.1453	0.35762	-0.065
Mof_N 	N 	0.258	0.6935	0.18869	-0.062
Mof_N 	N 	0.7667	0.2423	0.0721	-0.063
Mof_N 	N 	0.8246	0.3998	0.11491	-0.07
Mof_N 	N 	0.9852	0.2043	0.19838	-0.061
Mof_N 	N 	0.5554	0.6453	0.14238	-0.065
Mof_N 	N 	0.258	0.1935	0.31131	-0.062
Mof_N 	N 	0.2667	0.2577	0.4279	-0.063
Mof_N 	N 	0.3246	0.1002	0.38509	-0.069
Mof_N 	N 	0.4852	0.2957	0.30162	-0.064
Mof_N 	N 	0.0554	0.8547	0.35762	-0.065
Mof_N 	N 	0.758	0.3065	0.18869	-0.062
Mof_N 	N 	0.7333	0.2423	0.9279	-0.063
Mof_N 	N 	0.6754	0.3998	0.88509	-0.07
Mof_N 	N 	0.5148	0.2043	0.80162	-0.064
Mof_N 	N 	0.9446	0.6453	0.85762	-0.064
Mof_N 	N 	0.242	0.1935	0.68869	-0.062
Mof_N 	N 	0.2333	0.2577	0.5721	-0.063
Mof_N 	N 	0.1754	0.1002	0.61491	-0.069
Mof_N 	N 	0.0148	0.2957	0.69838	-0.063
Mof_N 	N 	0.4446	0.8547	0.64238	-0.065
Mof_N 	N 	0.742	0.3065	0.81131	-0.062
Mof_O 	O 	0.0174	0.7612	0.90694	-0.85
Mof_O 	O 	0.0298	0.8423	0.87763	-0.901
Mof_O 	O 	0.2185	0.8367	0.85489	-0.609
Mof_O 	O 	0.2263	0.7599	0.9004	-0.358
Mof_O 	O 	0.1204	0.6459	0.88804	-0.315
Mof_O 	O 	0.0766	0.7952	0.82049	-0.335
Mof_O 	O 	0.4904	0.3073	0.849	-0.365
Mof_O 	O 	0.6985	0.8113	0.66523	-0.361
Mof_O 	O 	0.5174	0.7388	0.59306	-0.854
Mof_O 	O 	0.5298	0.6577	0.62237	-0.901
Mof_O 	O 	0.7185	0.6633	0.64511	-0.609
Mof_O 	O 	0.7263	0.7401	0.5996	-0.358
Mof_O 	O 	0.6204	0.8541	0.61196	-0.315
Mof_O 	O 	0.5766	0.7048	0.67951	-0.335
Mof_O 	O 	0.9904	0.1927	0.651	-0.365
Mof_O 	O 	0.1985	0.6887	0.83477	-0.361
Mof_O 	O 	0.4826	0.7612	0.09306	-0.854
Mof_O 	O 	0.4702	0.8423	0.12237	-0.901
Mof_O 	O 	0.2815	0.8367	0.14511	-0.609
Mof_O 	O 	0.2737	0.7599	0.0996	-0.358
Mof_O 	O 	0.3796	0.6459	0.11196	-0.315
Mof_O 	O 	0.4234	0.7952	0.17951	-0.335
Mof_O 	O 	0.0096	0.3073	0.151	-0.366
Mof_O 	O 	0.8015	0.8113	0.33477	-0.361
Mof_O 	O 	0.9826	0.7388	0.40694	-0.854
Mof_O 	O 	0.9702	0.6577	0.37763	-0.902
Mof_O 	O 	0.7815	0.6633	0.35489	-0.609
Mof_O 	O 	0.7737	0.7401	0.4004	-0.358
Mof_O 	O 	0.8796	0.8541	0.38804	-0.315
Mof_O 	O 	0.9234	0.7048	0.32049	-0.335
Mof_O 	O 	0.5096	0.1927	0.349	-0.365
Mof_O 	O 	0.3015	0.6887	0.16523	-0.361
Mof_O 	O 	0.9826	0.2388	0.09306	-0.85
Mof_O 	O 	0.9702	0.1577	0.12237	-0.901
Mof_O 	O 	0.7815	0.1633	0.14511	-0.609
Mof_O 	O 	0.7737	0.2401	0.0996	-0.358
Mof_O 	O 	0.8796	0.3541	0.11196	-0.315
Mof_O 	O 	0.9234	0.2048	0.17951	-0.335
Mof_O 	O 	0.5096	0.6927	0.151	-0.365
Mof_O 	O 	0.3015	0.1887	0.33477	-0.361
Mof_O 	O 	0.4826	0.2612	0.40694	-0.854
Mof_O 	O 	0.4702	0.3423	0.37763	-0.901
Mof_O 	O 	0.2815	0.3367	0.35489	-0.609
Mof_O 	O 	0.2737	0.2599	0.4004	-0.358
Mof_O 	O 	0.3796	0.1459	0.38804	-0.315
Mof_O 	O 	0.4234	0.2952	0.32049	-0.335
Mof_O 	O 	0.0096	0.8073	0.349	-0.365
Mof_O 	O 	0.8015	0.3113	0.16523	-0.361
Mof_O 	O 	0.5174	0.2388	0.90694	-0.854
Mof_O 	O 	0.5298	0.1577	0.87763	-0.901
Mof_O 	O 	0.7185	0.1633	0.85489	-0.609
Mof_O 	O 	0.7263	0.2401	0.9004	-0.358
Mof_O 	O 	0.6204	0.3541	0.88804	-0.315
Mof_O 	O 	0.5766	0.2048	0.82049	-0.335
Mof_O 	O 	0.9904	0.6927	0.849	-0.366
Mof_O 	O 	0.1985	0.1887	0.66523	-0.361
Mof_O 	O 	0.0174	0.2612	0.59306	-0.854
Mof_O 	O 	0.0298	0.3423	0.62237	-0.902
Mof_O 	O 	0.2185	0.3367	0.64511	-0.609
Mof_O 	O 	0.2263	0.2599	0.5996	-0.358
Mof_O 	O 	0.1204	0.1459	0.61196	-0.315
Mof_O 	O 	0.0766	0.2952	0.67951	-0.335
Mof_O 	O 	0.4904	0.8073	0.651	-0.365
Mof_O 	O 	0.6985	0.3113	0.83477	-0.361
Mof_B 	B 	0.5378	0.6814	0.9434	1.546
Mof_H 	H 	0.6197	0.5711	0.9395	-0.175
Mof_H 	H 	0.7524	0.5361	0.9495	0.223
Mof_H 	H 	0.8563	0.6027	0.9648	-0.127
Mof_H 	H 	0.8208	0.7042	0.9716	0.224
Mof_H 	H 	0.687	0.738	0.9621	-0.173
Mof_H 	H 	0.5382	0.8009	0.9222	-0.166
Mof_H 	H 	0.5158	0.8959	0.9407	0.211
Mof_H 	H 	0.4976	0.9073	0.988	-0.12
Mof_H 	H 	0.494	0.8211	0.0155	0.224
Mof_H 	H 	0.5103	0.7263	0.9964	-0.162
Mof_H 	H 	0.3689	0.6432	0.9356	-0.161
Mof_H 	H 	0.2787	0.5812	0.9596	0.216
Mof_H 	H 	0.3238	0.533	0.9997	-0.126
Mof_H 	H 	0.4599	0.5511	0.0154	0.22
Mof_H 	H 	0.5489	0.6137	0.9912	-0.159
Mof_H 	H 	0.4077	0.7276	0.9115	-0.166
Mof_H 	H 	0.3824	0.735	0.8653	0.216
Mof_H 	H 	0.4713	0.6869	0.8337	-0.128
Mof_H 	H 	0.5948	0.6429	0.8502	0.222
Mof_H 	H 	0.6214	0.6386	0.8966	-0.179
Mof_C 	C 	0.6346	0.6589	0.9501	-0.808
Mof_C 	C 	0.6594	0.5985	0.9463	0.555
Mof_C 	C 	0.74	0.5772	0.952	-0.553
Mof_C 	C 	0.8017	0.6164	0.9613	0.452
Mof_C 	C 	0.7804	0.6768	0.9652	-0.545
Mof_C 	C 	0.6991	0.697	0.9595	0.548
Mof_C 	C 	0.5233	0.751	0.95667	-0.763
Mof_C 	C 	0.5273	0.8042	0.94102	0.521
Mof_C 	C 	0.5157	0.8619	0.95212	-0.528
Mof_C 	C 	0.504	0.8688	0.98028	0.425
Mof_C 	C 	0.502	0.8174	0.99657	-0.534
Mof_C 	C 	0.5116	0.7602	0.98488	0.528
Mof_C 	C 	0.4715	0.6353	0.95968	-0.781
Mof_C 	C 	0.3885	0.6244	0.95155	0.541
Mof_C 	C 	0.3335	0.5871	0.9661	-0.539
Mof_C 	C 	0.3599	0.5586	0.99001	0.433
Mof_C 	C 	0.441	0.5693	0.99918	-0.54
Mof_C 	C 	0.4948	0.607	0.98436	0.531
Mof_C 	C 	0.5191	0.6834	0.91038	-0.826
Mof_C 	C 	0.4467	0.7108	0.89935	0.561
Mof_C 	C 	0.4301	0.7142	0.87146	-0.551
Mof_C 	C 	0.4837	0.687	0.85252	0.442
Mof_C 	C 	0.5562	0.66	0.86249	-0.554
Mof_C 	C 	0.5724	0.658	0.8906	0.562
Mof_B 	B 	0.8932	0.5536	0.7389	1.57
Mof_H 	H 	0.0488	0.4984	0.7344	-0.181
Mof_H 	H 	0.1111	0.4161	0.7557	0.233
Mof_H 	H 	0.0454	0.3694	0.7929	-0.131
Mof_H 	H 	0.9173	0.4076	0.8088	0.23
Mof_H 	H 	0.8494	0.4826	0.7841	-0.175
Mof_H 	H 	0.9257	0.4933	0.6891	-0.165
Mof_H 	H 	0.8476	0.4346	0.6594	0.22
Mof_H 	H 	0.7075	0.4118	0.6694	-0.123
Mof_H 	H 	0.6491	0.4502	0.7097	0.227
Mof_H 	H 	0.7256	0.5129	0.738	-0.167
Mof_H 	H 	0.9092	0.5988	0.6843	-0.173
Mof_H 	H 	0.9971	0.6679	0.6637	0.227
Mof_H 	H 	0.103	0.7148	0.6891	-0.128
Mof_H 	H 	0.1169	0.6912	0.7355	0.224
Mof_H 	H 	0.031	0.6195	0.7554	-0.174
Mof_H 	H 	0.7627	0.6311	0.7263	-0.173
Mof_H 	H 	0.6806	0.6983	0.7507	0.228
Mof_H 	H 	0.6998	0.7097	0.7979	-0.137
Mof_H 	H 	0.8016	0.6515	0.8199	0.238
Mof_H 	H 	0.8847	0.5859	0.7952	-0.173
Mof_C 	C 	0.9426	0.502	0.7572	-0.827
Mof_C 	C 	0.021	0.4797	0.7491	0.569
Mof_C 	C 	0.0592	0.4304	0.762	-0.559
Mof_C 	C 	0.0201	0.4024	0.7842	0.458
Mof_C 	C 	0.9429	0.4243	0.7932	-0.559
Mof_C 	C 	0.9038	0.4712	0.77892	0.569
Mof_C 	C 	0.8354	0.5127	0.71701	-0.783
Mof_C 	C 	0.8691	0.4862	0.6932	0.534
Mof_C 	C 	0.8226	0.4498	0.6754	-0.536
Mof_C 	C 	0.7393	0.4361	0.6812	0.434
Mof_C 	C 	0.7047	0.4597	0.70509	-0.544
Mof_C 	C 	0.7514	0.4972	0.72223	0.537
Mof_C 	C 	0.9589	0.5993	0.72244	-0.814
Mof_C 	C 	0.9517	0.6166	0.69488	0.561
Mof_C 	C 	0.0042	0.6586	0.6823	-0.564
Mof_C 	C 	0.0671	0.6866	0.69739	0.456
Mof_C 	C 	0.0757	0.6721	0.72492	-0.563
Mof_C 	C 	0.0231	0.629	0.73688	0.547
Mof_C 	C 	0.8333	0.5984	0.75763	-0.82
Mof_C 	C 	0.7711	0.6346	0.74526	0.552
Mof_C 	C 	0.7215	0.6755	0.75985	-0.568
Mof_C 	C 	0.7327	0.6823	0.78793	0.465
Mof_C 	C 	0.7936	0.6478	0.80092	-0.575
Mof_C 	C 	0.843	0.6077	0.78596	0.575
Mof_B 	B 	0.0378	0.8186	0.5566	1.543
Mof_H 	H 	0.1197	0.9289	0.5605	-0.174
Mof_H 	H 	0.2524	0.9639	0.5505	0.223
Mof_H 	H 	0.3563	0.8973	0.5352	-0.126
Mof_H 	H 	0.3208	0.7958	0.5284	0.223
Mof_H 	H 	0.187	0.762	0.5379	-0.172
Mof_H 	H 	0.0382	0.6991	0.5778	-0.165
Mof_H 	H 	0.0158	0.6041	0.5593	0.211
Mof_H 	H 	0.9976	0.5927	0.512	-0.12
Mof_H 	H 	0.994	0.6789	0.4845	0.223
Mof_H 	H 	0.0103	0.7737	0.5036	-0.162
Mof_H 	H 	0.8689	0.8568	0.5644	-0.161
Mof_H 	H 	0.7787	0.9188	0.5404	0.215
Mof_H 	H 	0.8238	0.967	0.5003	-0.126
Mof_H 	H 	0.9599	0.9489	0.4846	0.219
Mof_H 	H 	0.0489	0.8863	0.5088	-0.157
Mof_H 	H 	0.9077	0.7724	0.5885	-0.163
Mof_H 	H 	0.8824	0.765	0.6347	0.213
Mof_H 	H 	0.9713	0.8131	0.6663	-0.125
Mof_H 	H 	0.0948	0.8571	0.6498	0.219
Mof_H 	H 	0.1214	0.8614	0.6034	-0.177
Mof_C 	C 	0.1346	0.8411	0.5499	-0.806
Mof_C 	C 	0.1594	0.9015	0.5537	0.554
Mof_C 	C 	0.24	0.9228	0.548	-0.551
Mof_C 	C 	0.3017	0.8836	0.5387	0.451
Mof_C 	C 	0.2804	0.8232	0.5348	-0.544
Mof_C 	C 	0.1991	0.803	0.5405	0.547
Mof_C 	C 	0.0233	0.749	0.54333	-0.762
Mof_C 	C 	0.0273	0.6958	0.55898	0.52
Mof_C 	C 	0.0157	0.6381	0.54788	-0.527
Mof_C 	C 	0.004	0.6312	0.51972	0.424
Mof_C 	C 	0.002	0.6826	0.50343	-0.532
Mof_C 	C 	0.0116	0.7398	0.51512	0.526
Mof_C 	C 	0.9715	0.8647	0.54032	-0.78
Mof_C 	C 	0.8885	0.8756	0.54845	0.539
Mof_C 	C 	0.8335	0.9129	0.5339	-0.537
Mof_C 	C 	0.8599	0.9414	0.50999	0.431
Mof_C 	C 	0.941	0.9307	0.50082	-0.537
Mof_C 	C 	0.9948	0.893	0.51564	0.527
Mof_C 	C 	0.0191	0.8166	0.58962	-0.82
Mof_C 	C 	0.9467	0.7892	0.60065	0.553
Mof_C 	C 	0.9301	0.7858	0.62854	-0.544
Mof_C 	C 	0.9837	0.813	0.64748	0.433
Mof_C 	C 	0.0562	0.84	0.63751	-0.545
Mof_C 	C 	0.0724	0.842	0.6094	0.556
Mof_B 	B 	0.3932	0.9464	0.7611	1.566
Mof_H 	H 	0.5488	0.0016	0.7656	-0.179
Mof_H 	H 	0.6111	0.0839	0.7443	0.231
Mof_H 	H 	0.5454	0.1306	0.7071	-0.129
Mof_H 	H 	0.4173	0.0924	0.6912	0.227
Mof_H 	H 	0.3494	0.0174	0.7159	-0.173
Mof_H 	H 	0.4257	0.0067	0.8109	-0.163
Mof_H 	H 	0.3476	0.0654	0.8406	0.218
Mof_H 	H 	0.2075	0.0882	0.8306	-0.122
Mof_H 	H 	0.1491	0.0498	0.7903	0.225
Mof_H 	H 	0.2256	0.9871	0.762	-0.165
Mof_H 	H 	0.4092	0.9012	0.8157	-0.175
Mof_H 	H 	0.4971	0.8321	0.8363	0.23
Mof_H 	H 	0.603	0.7852	0.8109	-0.13
Mof_H 	H 	0.6169	0.8088	0.7645	0.225
Mof_H 	H 	0.531	0.8805	0.7446	-0.174
Mof_H 	H 	0.2627	0.8689	0.7737	-0.173
Mof_H 	H 	0.1806	0.8017	0.7493	0.228
Mof_H 	H 	0.1998	0.7903	0.7021	-0.136
Mof_H 	H 	0.3016	0.8485	0.6801	0.237
Mof_H 	H 	0.3847	0.9141	0.7048	-0.173
Mof_C 	C 	0.4426	0.998	0.7428	-0.822
Mof_C 	C 	0.521	0.0203	0.7509	0.562
Mof_C 	C 	0.5592	0.0696	0.738	-0.553
Mof_C 	C 	0.5201	0.0976	0.7158	0.452
Mof_C 	C 	0.4429	0.0757	0.7068	-0.553
Mof_C 	C 	0.4038	0.0288	0.72108	0.563
Mof_C 	C 	0.3354	0.9873	0.78299	-0.779
Mof_C 	C 	0.3691	0.0138	0.8068	0.529
Mof_C 	C 	0.3226	0.0502	0.8246	-0.533
Mof_C 	C 	0.2393	0.0639	0.8188	0.43
Mof_C 	C 	0.2047	0.0403	0.79491	-0.539
Mof_C 	C 	0.2514	0.0028	0.77777	0.531
Mof_C 	C 	0.4589	0.9007	0.77756	-0.813
Mof_C 	C 	0.4517	0.8834	0.80512	0.566
Mof_C 	C 	0.5042	0.8414	0.8177	-0.571
Mof_C 	C 	0.5671	0.8134	0.80261	0.46
Mof_C 	C 	0.5757	0.8279	0.77508	-0.565
Mof_C 	C 	0.5231	0.871	0.76312	0.546
Mof_C 	C 	0.3333	0.9016	0.74237	-0.818
Mof_C 	C 	0.2711	0.8654	0.75474	0.55
Mof_C 	C 	0.2215	0.8245	0.74015	-0.567
Mof_C 	C 	0.2327	0.8177	0.71207	0.464
Mof_C 	C 	0.2936	0.8522	0.69908	-0.573
Mof_C 	C 	0.343	0.8923	0.71404	0.574
Mof_B 	B 	0.9622	0.6814	0.0566	1.545
Mof_H 	H 	0.8803	0.5711	0.0605	-0.175
Mof_H 	H 	0.7476	0.5361	0.0505	0.223
Mof_H 	H 	0.6437	0.6027	0.0352	-0.126
Mof_H 	H 	0.6792	0.7042	0.0284	0.224
Mof_H 	H 	0.813	0.738	0.0379	-0.172
Mof_H 	H 	0.9618	0.8009	0.0778	-0.165
Mof_H 	H 	0.9842	0.8959	0.0593	0.21
Mof_H 	H 	0.0024	0.9073	0.012	-0.119
Mof_H 	H 	0.006	0.8211	0.9845	0.225
Mof_H 	H 	0.9897	0.7263	0.0036	-0.163
Mof_H 	H 	0.1311	0.6432	0.0644	-0.161
Mof_H 	H 	0.2213	0.5812	0.0404	0.216
Mof_H 	H 	0.1762	0.533	0.0003	-0.126
Mof_H 	H 	0.0401	0.5511	0.9846	0.221
Mof_H 	H 	0.9511	0.6137	0.0088	-0.159
Mof_H 	H 	0.0923	0.7276	0.0885	-0.165
Mof_H 	H 	0.1176	0.735	0.1347	0.215
Mof_H 	H 	0.0287	0.6869	0.1663	-0.127
Mof_H 	H 	0.9052	0.6429	0.1498	0.222
Mof_H 	H 	0.8786	0.6386	0.1034	-0.179
Mof_C 	C 	0.8654	0.6589	0.0499	-0.807
Mof_C 	C 	0.8406	0.5985	0.0537	0.555
Mof_C 	C 	0.76	0.5772	0.048	-0.552
Mof_C 	C 	0.6983	0.6164	0.0387	0.452
Mof_C 	C 	0.7196	0.6768	0.0348	-0.545
Mof_C 	C 	0.8009	0.697	0.0405	0.548
Mof_C 	C 	0.9767	0.751	0.04333	-0.763
Mof_C 	C 	0.9727	0.8042	0.05898	0.52
Mof_C 	C 	0.9843	0.8619	0.04788	-0.527
Mof_C 	C 	0.996	0.8688	0.01972	0.423
Mof_C 	C 	0.998	0.8174	0.00343	-0.535
Mof_C 	C 	0.9884	0.7602	0.01512	0.528
Mof_C 	C 	0.0285	0.6353	0.04032	-0.781
Mof_C 	C 	0.1115	0.6244	0.04845	0.541
Mof_C 	C 	0.1665	0.5871	0.0339	-0.539
Mof_C 	C 	0.1401	0.5586	0.00999	0.433
Mof_C 	C 	0.059	0.5693	0.00082	-0.54
Mof_C 	C 	0.0052	0.607	0.01564	0.532
Mof_C 	C 	0.9809	0.6834	0.08962	-0.825
Mof_C 	C 	0.0533	0.7108	0.10065	0.56
Mof_C 	C 	0.0699	0.7142	0.12854	-0.55
Mof_C 	C 	0.0163	0.687	0.14748	0.44
Mof_C 	C 	0.9438	0.66	0.13751	-0.552
Mof_C 	C 	0.9276	0.658	0.1094	0.561
Mof_B 	B 	0.6068	0.5536	0.2611	1.568
Mof_H 	H 	0.4512	0.4984	0.2656	-0.179
Mof_H 	H 	0.3889	0.4161	0.2443	0.231
Mof_H 	H 	0.4546	0.3694	0.2071	-0.129
Mof_H 	H 	0.5827	0.4076	0.1912	0.228
Mof_H 	H 	0.6506	0.4826	0.2159	-0.174
Mof_H 	H 	0.5743	0.4933	0.3109	-0.165
Mof_H 	H 	0.6524	0.4346	0.3406	0.22
Mof_H 	H 	0.7925	0.4118	0.3306	-0.123
Mof_H 	H 	0.8509	0.4502	0.2903	0.227
Mof_H 	H 	0.7744	0.5129	0.262	-0.167
Mof_H 	H 	0.5908	0.5988	0.3157	-0.175
Mof_H 	H 	0.5029	0.6679	0.3363	0.23
Mof_H 	H 	0.397	0.7148	0.3109	-0.13
Mof_H 	H 	0.3831	0.6912	0.2645	0.225
Mof_H 	H 	0.469	0.6195	0.2446	-0.174
Mof_H 	H 	0.7373	0.6311	0.2737	-0.173
Mof_H 	H 	0.8194	0.6983	0.2493	0.228
Mof_H 	H 	0.8002	0.7097	0.2021	-0.137
Mof_H 	H 	0.6984	0.6515	0.1801	0.237
Mof_H 	H 	0.6153	0.5859	0.2048	-0.173
Mof_C 	C 	0.5574	0.502	0.2428	-0.823
Mof_C 	C 	0.479	0.4797	0.2509	0.564
Mof_C 	C 	0.4408	0.4304	0.238	-0.554
Mof_C 	C 	0.4799	0.4024	0.2158	0.453
Mof_C 	C 	0.5571	0.4243	0.2068	-0.554
Mof_C 	C 	0.5962	0.4712	0.22108	0.565
Mof_C 	C 	0.6646	0.5127	0.28299	-0.783
Mof_C 	C 	0.6309	0.4862	0.3068	0.533
Mof_C 	C 	0.6774	0.4498	0.3246	-0.536
Mof_C 	C 	0.7607	0.4361	0.3188	0.434
Mof_C 	C 	0.7953	0.4597	0.29491	-0.543
Mof_C 	C 	0.7486	0.4972	0.27777	0.536
Mof_C 	C 	0.5411	0.5993	0.27756	-0.814
Mof_C 	C 	0.5483	0.6166	0.30512	0.567
Mof_C 	C 	0.4958	0.6586	0.3177	-0.572
Mof_C 	C 	0.4329	0.6866	0.30261	0.461
Mof_C 	C 	0.4243	0.6721	0.27508	-0.565
Mof_C 	C 	0.4769	0.629	0.26312	0.547
Mof_C 	C 	0.6667	0.5984	0.24237	-0.82
Mof_C 	C 	0.7289	0.6346	0.25474	0.551
Mof_C 	C 	0.7785	0.6755	0.24015	-0.567
Mof_C 	C 	0.7673	0.6823	0.21207	0.464
Mof_C 	C 	0.7064	0.6478	0.19908	-0.574
Mof_C 	C 	0.657	0.6077	0.21404	0.575
Mof_B 	B 	0.4622	0.8186	0.4434	1.546
Mof_H 	H 	0.3803	0.9289	0.4395	-0.175
Mof_H 	H 	0.2476	0.9639	0.4495	0.223
Mof_H 	H 	0.1437	0.8973	0.4648	-0.126
Mof_H 	H 	0.1792	0.7958	0.4716	0.224
Mof_H 	H 	0.313	0.762	0.4621	-0.172
Mof_H 	H 	0.4618	0.6991	0.4222	-0.166
Mof_H 	H 	0.4842	0.6041	0.4407	0.211
Mof_H 	H 	0.5024	0.5927	0.488	-0.12
Mof_H 	H 	0.506	0.6789	0.5155	0.224
Mof_H 	H 	0.4897	0.7737	0.4964	-0.162
Mof_H 	H 	0.6311	0.8568	0.4356	-0.161
Mof_H 	H 	0.7213	0.9188	0.4596	0.216
Mof_H 	H 	0.6762	0.967	0.4997	-0.126
Mof_H 	H 	0.5401	0.9489	0.5154	0.22
Mof_H 	H 	0.4511	0.8863	0.4912	-0.159
Mof_H 	H 	0.5923	0.7724	0.4115	-0.166
Mof_H 	H 	0.6176	0.765	0.3653	0.216
Mof_H 	H 	0.5287	0.8131	0.3337	-0.128
Mof_H 	H 	0.4052	0.8571	0.3502	0.222
Mof_H 	H 	0.3786	0.8614	0.3966	-0.179
Mof_C 	C 	0.3654	0.8411	0.4501	-0.808
Mof_C 	C 	0.3406	0.9015	0.4463	0.555
Mof_C 	C 	0.26	0.9228	0.452	-0.553
Mof_C 	C 	0.1983	0.8836	0.4613	0.452
Mof_C 	C 	0.2196	0.8232	0.4652	-0.545
Mof_C 	C 	0.3009	0.803	0.4595	0.548
Mof_C 	C 	0.4767	0.749	0.45667	-0.763
Mof_C 	C 	0.4727	0.6958	0.44102	0.521
Mof_C 	C 	0.4843	0.6381	0.45212	-0.528
Mof_C 	C 	0.496	0.6312	0.48028	0.425
Mof_C 	C 	0.498	0.6826	0.49657	-0.534
Mof_C 	C 	0.4884	0.7398	0.48488	0.528
Mof_C 	C 	0.5285	0.8647	0.45968	-0.781
Mof_C 	C 	0.6115	0.8756	0.45155	0.541
Mof_C 	C 	0.6665	0.9129	0.4661	-0.539
Mof_C 	C 	0.6401	0.9414	0.49001	0.433
Mof_C 	C 	0.559	0.9307	0.49918	-0.54
Mof_C 	C 	0.5052	0.893	0.48436	0.531
Mof_C 	C 	0.4809	0.8166	0.41038	-0.826
Mof_C 	C 	0.5533	0.7892	0.39935	0.561
Mof_C 	C 	0.5699	0.7858	0.37146	-0.551
Mof_C 	C 	0.5163	0.813	0.35252	0.442
Mof_C 	C 	0.4438	0.84	0.36249	-0.554
Mof_C 	C 	0.4276	0.842	0.3906	0.562
Mof_B 	B 	0.1068	0.9464	0.2389	1.568
Mof_H 	H 	0.9512	0.0016	0.2344	-0.18
Mof_H 	H 	0.8889	0.0839	0.2557	0.233
Mof_H 	H 	0.9546	0.1306	0.2929	-0.131
Mof_H 	H 	0.0827	0.0924	0.3088	0.23
Mof_H 	H 	0.1506	0.0174	0.2841	-0.175
Mof_H 	H 	0.0743	0.0067	0.1891	-0.164
Mof_H 	H 	0.1524	0.0654	0.1594	0.218
Mof_H 	H 	0.2925	0.0882	0.1694	-0.122
Mof_H 	H 	0.3509	0.0498	0.2097	0.225
Mof_H 	H 	0.2744	0.9871	0.238	-0.165
Mof_H 	H 	0.0908	0.9012	0.1843	-0.174
Mof_H 	H 	0.0029	0.8321	0.1637	0.23
Mof_H 	H 	0.897	0.7852	0.1891	-0.13
Mof_H 	H 	0.8831	0.8088	0.2355	0.225
Mof_H 	H 	0.969	0.8805	0.2554	-0.174
Mof_H 	H 	0.2373	0.8689	0.2263	-0.173
Mof_H 	H 	0.3194	0.8017	0.2507	0.228
Mof_H 	H 	0.3002	0.7903	0.2979	-0.137
Mof_H 	H 	0.1984	0.8485	0.3199	0.237
Mof_H 	H 	0.1153	0.9141	0.2952	-0.173
Mof_C 	C 	0.0574	0.998	0.2572	-0.825
Mof_C 	C 	0.979	0.0203	0.2491	0.569
Mof_C 	C 	0.9408	0.0696	0.262	-0.559
Mof_C 	C 	0.9799	0.0976	0.2842	0.461
Mof_C 	C 	0.0571	0.0757	0.2932	-0.561
Mof_C 	C 	0.0962	0.0288	0.27892	0.568
Mof_C 	C 	0.1646	0.9873	0.21701	-0.779
Mof_C 	C 	0.1309	0.0138	0.1932	0.529
Mof_C 	C 	0.1774	0.0502	0.1754	-0.533
Mof_C 	C 	0.2607	0.0639	0.1812	0.43
Mof_C 	C 	0.2953	0.0403	0.20509	-0.539
Mof_C 	C 	0.2486	0.0028	0.22223	0.531
Mof_C 	C 	0.0411	0.9007	0.22244	-0.814
Mof_C 	C 	0.0483	0.8834	0.19488	0.566
Mof_C 	C 	0.9958	0.8414	0.1823	-0.571
Mof_C 	C 	0.9329	0.8134	0.19739	0.46
Mof_C 	C 	0.9243	0.8279	0.22492	-0.565
Mof_C 	C 	0.9769	0.871	0.23688	0.547
Mof_C 	C 	0.1667	0.9016	0.25763	-0.819
Mof_C 	C 	0.2289	0.8654	0.24526	0.551
Mof_C 	C 	0.2785	0.8245	0.25985	-0.567
Mof_C 	C 	0.2673	0.8177	0.28793	0.464
Mof_C 	C 	0.2064	0.8522	0.30092	-0.574
Mof_C 	C 	0.157	0.8923	0.28596	0.575
Mof_B 	B 	0.4622	0.3186	0.0566	1.546
Mof_H 	H 	0.3803	0.4289	0.0605	-0.175
Mof_H 	H 	0.2476	0.4639	0.0505	0.223
Mof_H 	H 	0.1437	0.3973	0.0352	-0.127
Mof_H 	H 	0.1792	0.2958	0.0284	0.224
Mof_H 	H 	0.313	0.262	0.0379	-0.173
Mof_H 	H 	0.4618	0.1991	0.0778	-0.166
Mof_H 	H 	0.4842	0.1041	0.0593	0.211
Mof_H 	H 	0.5024	0.0927	0.012	-0.12
Mof_H 	H 	0.506	0.1789	0.9845	0.224
Mof_H 	H 	0.4897	0.2737	0.0036	-0.162
Mof_H 	H 	0.6311	0.3568	0.0644	-0.161
Mof_H 	H 	0.7213	0.4188	0.0404	0.216
Mof_H 	H 	0.6762	0.467	0.0003	-0.126
Mof_H 	H 	0.5401	0.4489	0.9846	0.22
Mof_H 	H 	0.4511	0.3863	0.0088	-0.159
Mof_H 	H 	0.5923	0.2724	0.0885	-0.166
Mof_H 	H 	0.6176	0.265	0.1347	0.216
Mof_H 	H 	0.5287	0.3131	0.1663	-0.128
Mof_H 	H 	0.4052	0.3571	0.1498	0.222
Mof_H 	H 	0.3786	0.3614	0.1034	-0.179
Mof_C 	C 	0.3654	0.3411	0.0499	-0.808
Mof_C 	C 	0.3406	0.4015	0.0537	0.555
Mof_C 	C 	0.26	0.4228	0.048	-0.553
Mof_C 	C 	0.1983	0.3836	0.0387	0.452
Mof_C 	C 	0.2196	0.3232	0.0348	-0.545
Mof_C 	C 	0.3009	0.303	0.0405	0.548
Mof_C 	C 	0.4767	0.249	0.04333	-0.763
Mof_C 	C 	0.4727	0.1958	0.05898	0.521
Mof_C 	C 	0.4843	0.1381	0.04788	-0.528
Mof_C 	C 	0.496	0.1312	0.01972	0.425
Mof_C 	C 	0.498	0.1826	0.00343	-0.534
Mof_C 	C 	0.4884	0.2398	0.01512	0.528
Mof_C 	C 	0.5285	0.3647	0.04032	-0.781
Mof_C 	C 	0.6115	0.3756	0.04845	0.541
Mof_C 	C 	0.6665	0.4129	0.0339	-0.539
Mof_C 	C 	0.6401	0.4414	0.00999	0.433
Mof_C 	C 	0.559	0.4307	0.00082	-0.54
Mof_C 	C 	0.5052	0.393	0.01564	0.531
Mof_C 	C 	0.4809	0.3166	0.08962	-0.826
Mof_C 	C 	0.5533	0.2892	0.10065	0.561
Mof_C 	C 	0.5699	0.2858	0.12854	-0.551
Mof_C 	C 	0.5163	0.313	0.14748	0.442
Mof_C 	C 	0.4438	0.34	0.13751	-0.554
Mof_C 	C 	0.4276	0.342	0.1094	0.562
Mof_B 	B 	0.1068	0.4464	0.2611	1.57
Mof_H 	H 	0.9512	0.5016	0.2656	-0.181
Mof_H 	H 	0.8889	0.5839	0.2443	0.233
Mof_H 	H 	0.9546	0.6306	0.2071	-0.131
Mof_H 	H 	0.0827	0.5924	0.1912	0.23
Mof_H 	H 	0.1506	0.5174	0.2159	-0.175
Mof_H 	H 	0.0743	0.5067	0.3109	-0.165
Mof_H 	H 	0.1524	0.5654	0.3406	0.22
Mof_H 	H 	0.2925	0.5882	0.3306	-0.123
Mof_H 	H 	0.3509	0.5498	0.2903	0.227
Mof_H 	H 	0.2744	0.4871	0.262	-0.167
Mof_H 	H 	0.0908	0.4012	0.3157	-0.173
Mof_H 	H 	0.0029	0.3321	0.3363	0.227
Mof_H 	H 	0.897	0.2852	0.3109	-0.128
Mof_H 	H 	0.8831	0.3088	0.2645	0.224
Mof_H 	H 	0.969	0.3805	0.2446	-0.174
Mof_H 	H 	0.2373	0.3689	0.2737	-0.173
Mof_H 	H 	0.3194	0.3017	0.2493	0.228
Mof_H 	H 	0.3002	0.2903	0.2021	-0.137
Mof_H 	H 	0.1984	0.3485	0.1801	0.238
Mof_H 	H 	0.1153	0.4141	0.2048	-0.173
Mof_C 	C 	0.0574	0.498	0.2428	-0.827
Mof_C 	C 	0.979	0.5203	0.2509	0.569
Mof_C 	C 	0.9408	0.5696	0.238	-0.559
Mof_C 	C 	0.9799	0.5976	0.2158	0.458
Mof_C 	C 	0.0571	0.5757	0.2068	-0.559
Mof_C 	C 	0.0962	0.5288	0.22108	0.569
Mof_C 	C 	0.1646	0.4873	0.28299	-0.783
Mof_C 	C 	0.1309	0.5138	0.3068	0.534
Mof_C 	C 	0.1774	0.5502	0.3246	-0.536
Mof_C 	C 	0.2607	0.5639	0.3188	0.434
Mof_C 	C 	0.2953	0.5403	0.29491	-0.544
Mof_C 	C 	0.2486	0.5028	0.27777	0.537
Mof_C 	C 	0.0411	0.4007	0.27756	-0.814
Mof_C 	C 	0.0483	0.3834	0.30512	0.561
Mof_C 	C 	0.9958	0.3414	0.3177	-0.564
Mof_C 	C 	0.9329	0.3134	0.30261	0.456
Mof_C 	C 	0.9243	0.3279	0.27508	-0.563
Mof_C 	C 	0.9769	0.371	0.26312	0.547
Mof_C 	C 	0.1667	0.4016	0.24237	-0.82
Mof_C 	C 	0.2289	0.3654	0.25474	0.552
Mof_C 	C 	0.2785	0.3245	0.24015	-0.568
Mof_C 	C 	0.2673	0.3177	0.21207	0.465
Mof_C 	C 	0.2064	0.3522	0.19908	-0.575
Mof_C 	C 	0.157	0.3923	0.21404	0.575
Mof_B 	B 	0.9622	0.1814	0.4434	1.543
Mof_H 	H 	0.8803	0.0711	0.4395	-0.174
Mof_H 	H 	0.7476	0.0361	0.4495	0.223
Mof_H 	H 	0.6437	0.1027	0.4648	-0.126
Mof_H 	H 	0.6792	0.2042	0.4716	0.223
Mof_H 	H 	0.813	0.238	0.4621	-0.172
Mof_H 	H 	0.9618	0.3009	0.4222	-0.165
Mof_H 	H 	0.9842	0.3959	0.4407	0.211
Mof_H 	H 	0.0024	0.4073	0.488	-0.12
Mof_H 	H 	0.006	0.3211	0.5155	0.223
Mof_H 	H 	0.9897	0.2263	0.4964	-0.162
Mof_H 	H 	0.1311	0.1432	0.4356	-0.161
Mof_H 	H 	0.2213	0.0812	0.4596	0.215
Mof_H 	H 	0.1762	0.033	0.4997	-0.126
Mof_H 	H 	0.0401	0.0511	0.5154	0.219
Mof_H 	H 	0.9511	0.1137	0.4912	-0.157
Mof_H 	H 	0.0923	0.2276	0.4115	-0.163
Mof_H 	H 	0.1176	0.235	0.3653	0.213
Mof_H 	H 	0.0287	0.1869	0.3337	-0.125
Mof_H 	H 	0.9052	0.1429	0.3502	0.219
Mof_H 	H 	0.8786	0.1386	0.3966	-0.177
Mof_C 	C 	0.8654	0.1589	0.4501	-0.806
Mof_C 	C 	0.8406	0.0985	0.4463	0.554
Mof_C 	C 	0.76	0.0772	0.452	-0.551
Mof_C 	C 	0.6983	0.1164	0.4613	0.451
Mof_C 	C 	0.7196	0.1768	0.4652	-0.544
Mof_C 	C 	0.8009	0.197	0.4595	0.547
Mof_C 	C 	0.9767	0.251	0.45667	-0.762
Mof_C 	C 	0.9727	0.3042	0.44102	0.52
Mof_C 	C 	0.9843	0.3619	0.45212	-0.527
Mof_C 	C 	0.996	0.3688	0.48028	0.424
Mof_C 	C 	0.998	0.3174	0.49657	-0.532
Mof_C 	C 	0.9884	0.2602	0.48488	0.526
Mof_C 	C 	0.0285	0.1353	0.45968	-0.78
Mof_C 	C 	0.1115	0.1244	0.45155	0.539
Mof_C 	C 	0.1665	0.0871	0.4661	-0.537
Mof_C 	C 	0.1401	0.0586	0.49001	0.431
Mof_C 	C 	0.059	0.0693	0.49918	-0.537
Mof_C 	C 	0.0052	0.107	0.48436	0.527
Mof_C 	C 	0.9809	0.1834	0.41038	-0.82
Mof_C 	C 	0.0533	0.2108	0.39935	0.553
Mof_C 	C 	0.0699	0.2142	0.37146	-0.544
Mof_C 	C 	0.0163	0.187	0.35252	0.433
Mof_C 	C 	0.9438	0.16	0.36249	-0.545
Mof_C 	C 	0.9276	0.158	0.3906	0.556
Mof_B 	B 	0.6068	0.0536	0.2389	1.566
Mof_H 	H 	0.4512	0.9984	0.2344	-0.179
Mof_H 	H 	0.3889	0.9161	0.2557	0.231
Mof_H 	H 	0.4546	0.8694	0.2929	-0.129
Mof_H 	H 	0.5827	0.9076	0.3088	0.227
Mof_H 	H 	0.6506	0.9826	0.2841	-0.173
Mof_H 	H 	0.5743	0.9933	0.1891	-0.163
Mof_H 	H 	0.6524	0.9346	0.1594	0.218
Mof_H 	H 	0.7925	0.9118	0.1694	-0.122
Mof_H 	H 	0.8509	0.9502	0.2097	0.225
Mof_H 	H 	0.7744	0.0129	0.238	-0.165
Mof_H 	H 	0.5908	0.0988	0.1843	-0.175
Mof_H 	H 	0.5029	0.1679	0.1637	0.23
Mof_H 	H 	0.397	0.2148	0.1891	-0.13
Mof_H 	H 	0.3831	0.1912	0.2355	0.225
Mof_H 	H 	0.469	0.1195	0.2554	-0.174
Mof_H 	H 	0.7373	0.1311	0.2263	-0.173
Mof_H 	H 	0.8194	0.1983	0.2507	0.228
Mof_H 	H 	0.8002	0.2097	0.2979	-0.136
Mof_H 	H 	0.6984	0.1515	0.3199	0.237
Mof_H 	H 	0.6153	0.0859	0.2952	-0.173
Mof_C 	C 	0.5574	0.002	0.2572	-0.822
Mof_C 	C 	0.479	0.9797	0.2491	0.562
Mof_C 	C 	0.4408	0.9304	0.262	-0.553
Mof_C 	C 	0.4799	0.9024	0.2842	0.452
Mof_C 	C 	0.5571	0.9243	0.2932	-0.553
Mof_C 	C 	0.5962	0.9712	0.27892	0.563
Mof_C 	C 	0.6646	0.0127	0.21701	-0.779
Mof_C 	C 	0.6309	0.9862	0.1932	0.529
Mof_C 	C 	0.6774	0.9498	0.1754	-0.533
Mof_C 	C 	0.7607	0.9361	0.1812	0.43
Mof_C 	C 	0.7953	0.9597	0.20509	-0.539
Mof_C 	C 	0.7486	0.9972	0.22223	0.531
Mof_C 	C 	0.5411	0.0993	0.22244	-0.813
Mof_C 	C 	0.5483	0.1166	0.19488	0.566
Mof_C 	C 	0.4958	0.1586	0.1823	-0.571
Mof_C 	C 	0.4329	0.1866	0.19739	0.46
Mof_C 	C 	0.4243	0.1721	0.22492	-0.565
Mof_C 	C 	0.4769	0.129	0.23688	0.546
Mof_C 	C 	0.6667	0.0984	0.25763	-0.818
Mof_C 	C 	0.7289	0.1346	0.24526	0.55
Mof_C 	C 	0.7785	0.1755	0.25985	-0.567
Mof_C 	C 	0.7673	0.1823	0.28793	0.464
Mof_C 	C 	0.7064	0.1478	0.30092	-0.573
Mof_C 	C 	0.657	0.1077	0.28596	0.574
Mof_B 	B 	0.0378	0.3186	0.9434	1.545
Mof_H 	H 	0.1197	0.4289	0.9395	-0.175
Mof_H 	H 	0.2524	0.4639	0.9495	0.223
Mof_H 	H 	0.3563	0.3973	0.9648	-0.126
Mof_H 	H 	0.3208	0.2958	0.9716	0.224
Mof_H 	H 	0.187	0.262	0.9621	-0.172
Mof_H 	H 	0.0382	0.1991	0.9222	-0.165
Mof_H 	H 	0.0158	0.1041	0.9407	0.21
Mof_H 	H 	0.9976	0.0927	0.988	-0.119
Mof_H 	H 	0.994	0.1789	0.0155	0.225
Mof_H 	H 	0.0103	0.2737	0.9964	-0.163
Mof_H 	H 	0.8689	0.3568	0.9356	-0.161
Mof_H 	H 	0.7787	0.4188	0.9596	0.216
Mof_H 	H 	0.8238	0.467	0.9997	-0.126
Mof_H 	H 	0.9599	0.4489	0.0154	0.221
Mof_H 	H 	0.0489	0.3863	0.9912	-0.159
Mof_H 	H 	0.9077	0.2724	0.9115	-0.165
Mof_H 	H 	0.8824	0.265	0.8653	0.215
Mof_H 	H 	0.9713	0.3131	0.8337	-0.127
Mof_H 	H 	0.0948	0.3571	0.8502	0.222
Mof_H 	H 	0.1214	0.3614	0.8966	-0.179
Mof_C 	C 	0.1346	0.3411	0.9501	-0.807
Mof_C 	C 	0.1594	0.4015	0.9463	0.555
Mof_C 	C 	0.24	0.4228	0.952	-0.552
Mof_C 	C 	0.3017	0.3836	0.9613	0.452
Mof_C 	C 	0.2804	0.3232	0.9652	-0.545
Mof_C 	C 	0.1991	0.303	0.9595	0.548
Mof_C 	C 	0.0233	0.249	0.95667	-0.763
Mof_C 	C 	0.0273	0.1958	0.94102	0.52
Mof_C 	C 	0.0157	0.1381	0.95212	-0.527
Mof_C 	C 	0.004	0.1312	0.98028	0.423
Mof_C 	C 	0.002	0.1826	0.99657	-0.535
Mof_C 	C 	0.0116	0.2398	0.98488	0.528
Mof_C 	C 	0.9715	0.3647	0.95968	-0.781
Mof_C 	C 	0.8885	0.3756	0.95155	0.541
Mof_C 	C 	0.8335	0.4129	0.9661	-0.539
Mof_C 	C 	0.8599	0.4414	0.99001	0.433
Mof_C 	C 	0.941	0.4307	0.99918	-0.54
Mof_C 	C 	0.9948	0.393	0.98436	0.532
Mof_C 	C 	0.0191	0.3166	0.91038	-0.825
Mof_C 	C 	0.9467	0.2892	0.89935	0.56
Mof_C 	C 	0.9301	0.2858	0.87146	-0.55
Mof_C 	C 	0.9837	0.313	0.85252	0.44
Mof_C 	C 	0.0562	0.34	0.86249	-0.552
Mof_C 	C 	0.0724	0.342	0.8906	0.561
Mof_B 	B 	0.3932	0.4464	0.7389	1.568
Mof_H 	H 	0.5488	0.5016	0.7344	-0.179
Mof_H 	H 	0.6111	0.5839	0.7557	0.231
Mof_H 	H 	0.5454	0.6306	0.7929	-0.129
Mof_H 	H 	0.4173	0.5924	0.8088	0.228
Mof_H 	H 	0.3494	0.5174	0.7841	-0.174
Mof_H 	H 	0.4257	0.5067	0.6891	-0.165
Mof_H 	H 	0.3476	0.5654	0.6594	0.22
Mof_H 	H 	0.2075	0.5882	0.6694	-0.123
Mof_H 	H 	0.1491	0.5498	0.7097	0.227
Mof_H 	H 	0.2256	0.4871	0.738	-0.167
Mof_H 	H 	0.4092	0.4012	0.6843	-0.175
Mof_H 	H 	0.4971	0.3321	0.6637	0.23
Mof_H 	H 	0.603	0.2852	0.6891	-0.13
Mof_H 	H 	0.6169	0.3088	0.7355	0.225
Mof_H 	H 	0.531	0.3805	0.7554	-0.174
Mof_H 	H 	0.2627	0.3689	0.7263	-0.173
Mof_H 	H 	0.1806	0.3017	0.7507	0.228
Mof_H 	H 	0.1998	0.2903	0.7979	-0.137
Mof_H 	H 	0.3016	0.3485	0.8199	0.237
Mof_H 	H 	0.3847	0.4141	0.7952	-0.173
Mof_C 	C 	0.4426	0.498	0.7572	-0.823
Mof_C 	C 	0.521	0.5203	0.7491	0.564
Mof_C 	C 	0.5592	0.5696	0.762	-0.554
Mof_C 	C 	0.5201	0.5976	0.7842	0.453
Mof_C 	C 	0.4429	0.5757	0.7932	-0.554
Mof_C 	C 	0.4038	0.5288	0.77892	0.565
Mof_C 	C 	0.3354	0.4873	0.71701	-0.783
Mof_C 	C 	0.3691	0.5138	0.6932	0.533
Mof_C 	C 	0.3226	0.5502	0.6754	-0.536
Mof_C 	C 	0.2393	0.5639	0.6812	0.434
Mof_C 	C 	0.2047	0.5403	0.70509	-0.543
Mof_C 	C 	0.2514	0.5028	0.72223	0.536
Mof_C 	C 	0.4589	0.4007	0.72244	-0.814
Mof_C 	C 	0.4517	0.3834	0.69488	0.567
Mof_C 	C 	0.5042	0.3414	0.6823	-0.572
Mof_C 	C 	0.5671	0.3134	0.69739	0.461
Mof_C 	C 	0.5757	0.3279	0.72492	-0.565
Mof_C 	C 	0.5231	0.371	0.73688	0.547
Mof_C 	C 	0.3333	0.4016	0.75763	-0.82
Mof_C 	C 	0.2711	0.3654	0.74526	0.551
Mof_C 	C 	0.2215	0.3245	0.75985	-0.567
Mof_C 	C 	0.2327	0.3177	0.78793	0.464
Mof_C 	C 	0.2936	0.3522	0.80092	-0.574
Mof_C 	C 	0.343	0.3923	0.78596	0.575
Mof_B 	B 	0.5378	0.1814	0.5566	1.546
Mof_H 	H 	0.6197	0.0711	0.5605	-0.175
Mof_H 	H 	0.7524	0.0361	0.5505	0.223
Mof_H 	H 	0.8563	0.1027	0.5352	-0.126
Mof_H 	H 	0.8208	0.2042	0.5284	0.224
Mof_H 	H 	0.687	0.238	0.5379	-0.172
Mof_H 	H 	0.5382	0.3009	0.5778	-0.166
Mof_H 	H 	0.5158	0.3959	0.5593	0.211
Mof_H 	H 	0.4976	0.4073	0.512	-0.12
Mof_H 	H 	0.494	0.3211	0.4845	0.224
Mof_H 	H 	0.5103	0.2263	0.5036	-0.162
Mof_H 	H 	0.3689	0.1432	0.5644	-0.161
Mof_H 	H 	0.2787	0.0812	0.5404	0.216
Mof_H 	H 	0.3238	0.033	0.5003	-0.126
Mof_H 	H 	0.4599	0.0511	0.4846	0.22
Mof_H 	H 	0.5489	0.1137	0.5088	-0.159
Mof_H 	H 	0.4077	0.2276	0.5885	-0.166
Mof_H 	H 	0.3824	0.235	0.6347	0.216
Mof_H 	H 	0.4713	0.1869	0.6663	-0.128
Mof_H 	H 	0.5948	0.1429	0.6498	0.222
Mof_H 	H 	0.6214	0.1386	0.6034	-0.179
Mof_C 	C 	0.6346	0.1589	0.5499	-0.808
Mof_C 	C 	0.6594	0.0985	0.5537	0.555
Mof_C 	C 	0.74	0.0772	0.548	-0.553
Mof_C 	C 	0.8017	0.1164	0.5387	0.452
Mof_C 	C 	0.7804	0.1768	0.5348	-0.545
Mof_C 	C 	0.6991	0.197	0.5405	0.548
Mof_C 	C 	0.5233	0.251	0.54333	-0.763
Mof_C 	C 	0.5273	0.3042	0.55898	0.521
Mof_C 	C 	0.5157	0.3619	0.54788	-0.528
Mof_C 	C 	0.504	0.3688	0.51972	0.425
Mof_C 	C 	0.502	0.3174	0.50343	-0.534
Mof_C 	C 	0.5116	0.2602	0.51512	0.528
Mof_C 	C 	0.4715	0.1353	0.54032	-0.781
Mof_C 	C 	0.3885	0.1244	0.54845	0.541
Mof_C 	C 	0.3335	0.0871	0.5339	-0.539
Mof_C 	C 	0.3599	0.0586	0.50999	0.433
Mof_C 	C 	0.441	0.0693	0.50082	-0.54
Mof_C 	C 	0.4948	0.107	0.51564	0.531
Mof_C 	C 	0.5191	0.1834	0.58962	-0.826
Mof_C 	C 	0.4467	0.2108	0.60065	0.561
Mof_C 	C 	0.4301	0.2142	0.62854	-0.551
Mof_C 	C 	0.4837	0.187	0.64748	0.442
Mof_C 	C 	0.5562	0.16	0.63751	-0.554
Mof_C 	C 	0.5724	0.158	0.6094	0.562
Mof_B 	B 	0.8932	0.0536	0.7611	1.568
Mof_H 	H 	0.0488	0.9984	0.7656	-0.18
Mof_H 	H 	0.1111	0.9161	0.7443	0.233
Mof_H 	H 	0.0454	0.8694	0.7071	-0.131
Mof_H 	H 	0.9173	0.9076	0.6912	0.23
Mof_H 	H 	0.8494	0.9826	0.7159	-0.175
Mof_H 	H 	0.9257	0.9933	0.8109	-0.164
Mof_H 	H 	0.8476	0.9346	0.8406	0.218
Mof_H 	H 	0.7075	0.9118	0.8306	-0.122
Mof_H 	H 	0.6491	0.9502	0.7903	0.225
Mof_H 	H 	0.7256	0.0129	0.762	-0.165
Mof_H 	H 	0.9092	0.0988	0.8157	-0.174
Mof_H 	H 	0.9971	0.1679	0.8363	0.23
Mof_H 	H 	0.103	0.2148	0.8109	-0.13
Mof_H 	H 	0.1169	0.1912	0.7645	0.225
Mof_H 	H 	0.031	0.1195	0.7446	-0.174
Mof_H 	H 	0.7627	0.1311	0.7737	-0.173
Mof_H 	H 	0.6806	0.1983	0.7493	0.228
Mof_H 	H 	0.6998	0.2097	0.7021	-0.137
Mof_H 	H 	0.8016	0.1515	0.6801	0.237
Mof_H 	H 	0.8847	0.0859	0.7048	-0.173
Mof_C 	C 	0.9426	0.002	0.7428	-0.825
Mof_C 	C 	0.021	0.9797	0.7509	0.569
Mof_C 	C 	0.0592	0.9304	0.738	-0.559
Mof_C 	C 	0.0201	0.9024	0.7158	0.461
Mof_C 	C 	0.9429	0.9243	0.7068	-0.561
Mof_C 	C 	0.9038	0.9712	0.72108	0.568
Mof_C 	C 	0.8354	0.0127	0.78299	-0.779
Mof_C 	C 	0.8691	0.9862	0.8068	0.529
Mof_C 	C 	0.8226	0.9498	0.8246	-0.533
Mof_C 	C 	0.7393	0.9361	0.8188	0.43
Mof_C 	C 	0.7047	0.9597	0.79491	-0.539
Mof_C 	C 	0.7514	0.9972	0.77777	0.531
Mof_C 	C 	0.9589	0.0993	0.77756	-0.814
Mof_C 	C 	0.9517	0.1166	0.80512	0.566
Mof_C 	C 	0.0042	0.1586	0.8177	-0.571
Mof_C 	C 	0.0671	0.1866	0.80261	0.46
Mof_C 	C 	0.0757	0.1721	0.77508	-0.565
Mof_C 	C 	0.0231	0.129	0.76312	0.547
Mof_C 	C 	0.8333	0.0984	0.74237	-0.819
Mof_C 	C 	0.7711	0.1346	0.75474	0.551
Mof_C 	C 	0.7215	0.1755	0.74015	-0.567
Mof_C 	C 	0.7327	0.1823	0.71207	0.464
Mof_C 	C 	0.7936	0.1478	0.69908	-0.574
Mof_C 	C 	0.843	0.1077	0.71404	0.575
_end
