data_functionalizedCrystal
_audit_creation_method	'EQeq! by Chris Wilmer'
_symmetry_space_group_name_H-M	'P1'
_symmetry_Int_Tables_number	1
_symmetry_cell_setting	triclinic
loop_
_symmetry_equiv_pos_as_xyz
  x,y,z
_cell_length_a	15.5244
_cell_length_b	16.3987
_cell_length_c	12.6433
_cell_angle_alpha	90
_cell_angle_beta	93.075
_cell_angle_gamma	90
loop_
_atom_site_label
_atom_site_type_symbol
_atom_site_fract_x
_atom_site_fract_y
_atom_site_fract_z
_atom_site_charge
Mof_Eu	Eu	0.12197	0.18899	0.91147	2.54
Mof_S 	S 	0.10725	0.2192	0.66703	0.818
Mof_S 	S 	0.18365	0.34951	0.0757	0.793
Mof_O 	O 	0.0545	0.0622	0.9011	-0.506
Mof_O 	O 	0.1031	0.1414	0.7279	-0.617
Mof_O 	O 	0.0863	0.1432	0.0766	-0.537
Mof_O 	O 	0.0242	0.2338	0.6085	-0.587
Mof_O 	O 	0.1267	0.3211	0.9888	-0.541
Mof_O 	O 	0.122	0.2824	0.7495	-0.463
Mof_O 	O 	0.0749	0.0412	0.1842	-0.349
Mof_O 	O 	0.1767	0.2182	0.5962	-0.27
Mof_O 	O 	0.2548	0.4001	0.0408	-0.514
Mof_C 	C 	0.0648	0.0734	0.0952	0.434
Mof_O 	O 	0.1315	0.3889	0.1526	-0.262
Mof_O 	O 	0.2278	0.2774	0.1228	-0.548
Mof_C 	C 	0.0368	0.022	0.9969	-0.098
Mof_H 	H 	0.0806	0.9789	0.9997	0.072
Mof_Eu	Eu	0.62197	0.68899	0.91147	2.599
Mof_S 	S 	0.60725	0.7192	0.66703	0.816
Mof_S 	S 	0.68365	0.84951	0.0757	0.787
Mof_O 	O 	0.5545	0.5622	0.9011	-0.521
Mof_O 	O 	0.6031	0.6414	0.7279	-0.617
Mof_O 	O 	0.5863	0.6432	0.0766	-0.528
Mof_O 	O 	0.5242	0.7338	0.6085	-0.548
Mof_O 	O 	0.6267	0.8211	0.9888	-0.528
Mof_O 	O 	0.622	0.7824	0.7495	-0.453
Mof_O 	O 	0.5749	0.5412	0.1842	-0.337
Mof_O 	O 	0.6767	0.7182	0.5962	-0.26
Mof_O 	O 	0.7548	0.9001	0.0408	-0.515
Mof_C 	C 	0.5648	0.5734	0.0952	0.416
Mof_O 	O 	0.6315	0.8889	0.1526	-0.247
Mof_O 	O 	0.7278	0.7774	0.1228	-0.551
Mof_C 	C 	0.5368	0.522	0.9969	-0
Mof_H 	H 	0.5806	0.4789	0.9997	0.053
Mof_Eu	Eu	0.87803	0.18899	0.58853	2.647
Mof_S 	S 	0.89275	0.2192	0.83297	0.807
Mof_S 	S 	0.81635	0.34951	0.4243	0.791
Mof_O 	O 	0.9455	0.0622	0.5989	-0.508
Mof_O 	O 	0.8969	0.1414	0.7721	-0.596
Mof_O 	O 	0.9137	0.1432	0.4234	-0.515
Mof_O 	O 	0.9758	0.2338	0.8915	-0.503
Mof_O 	O 	0.8733	0.3211	0.5112	-0.524
Mof_O 	O 	0.878	0.2824	0.7505	-0.443
Mof_O 	O 	0.9251	0.0412	0.3158	-0.303
Mof_O 	O 	0.8233	0.2182	0.9038	-0.254
Mof_O 	O 	0.7452	0.4001	0.4592	-0.507
Mof_C 	C 	0.9352	0.0734	0.4048	0.403
Mof_O 	O 	0.8685	0.3889	0.3474	-0.232
Mof_O 	O 	0.7722	0.2774	0.3772	-0.546
Mof_C 	C 	0.9632	0.022	0.5031	0.08
Mof_H 	H 	0.9194	0.9789	0.5003	0.04
Mof_Eu	Eu	0.37803	0.68899	0.58853	2.592
Mof_S 	S 	0.39275	0.7192	0.83297	0.817
Mof_S 	S 	0.31635	0.84951	0.4243	0.792
Mof_O 	O 	0.4455	0.5622	0.5989	-0.52
Mof_O 	O 	0.3969	0.6414	0.7721	-0.618
Mof_O 	O 	0.4137	0.6432	0.4234	-0.527
Mof_O 	O 	0.4758	0.7338	0.8915	-0.548
Mof_O 	O 	0.3733	0.8211	0.5112	-0.532
Mof_O 	O 	0.378	0.7824	0.7505	-0.455
Mof_O 	O 	0.4251	0.5412	0.3158	-0.34
Mof_O 	O 	0.3233	0.7182	0.9038	-0.266
Mof_O 	O 	0.2452	0.9001	0.4592	-0.506
Mof_C 	C 	0.4352	0.5734	0.4048	0.42
Mof_O 	O 	0.3685	0.8889	0.3474	-0.247
Mof_O 	O 	0.2722	0.7774	0.3772	-0.543
Mof_C 	C 	0.4632	0.522	0.5031	-0.009
Mof_H 	H 	0.4194	0.4789	0.5003	0.052
Mof_Eu	Eu	0.87803	0.81101	0.08853	2.637
Mof_S 	S 	0.89275	0.7808	0.33297	0.808
Mof_S 	S 	0.81635	0.65049	0.9243	0.798
Mof_O 	O 	0.9455	0.9378	0.0989	-0.507
Mof_O 	O 	0.8969	0.8586	0.2721	-0.596
Mof_O 	O 	0.9137	0.8568	0.9234	-0.512
Mof_O 	O 	0.9758	0.7662	0.3915	-0.505
Mof_O 	O 	0.8733	0.6789	0.0112	-0.529
Mof_O 	O 	0.878	0.7176	0.2505	-0.443
Mof_O 	O 	0.9251	0.9588	0.8158	-0.302
Mof_O 	O 	0.8233	0.7818	0.4038	-0.256
Mof_O 	O 	0.7452	0.5999	0.9592	-0.507
Mof_C 	C 	0.9352	0.9266	0.9048	0.411
Mof_O 	O 	0.8685	0.6111	0.8474	-0.231
Mof_O 	O 	0.7722	0.7226	0.8772	-0.546
Mof_C 	C 	0.9632	0.978	0.0031	0.068
Mof_H 	H 	0.9194	0.0211	0.0003	0.043
Mof_Eu	Eu	0.37803	0.31101	0.08853	2.59
Mof_S 	S 	0.39275	0.2808	0.33297	0.817
Mof_S 	S 	0.31635	0.15049	0.9243	0.793
Mof_O 	O 	0.4455	0.4378	0.0989	-0.518
Mof_O 	O 	0.3969	0.3586	0.2721	-0.618
Mof_O 	O 	0.4137	0.3568	0.9234	-0.527
Mof_O 	O 	0.4758	0.2662	0.3915	-0.549
Mof_O 	O 	0.3733	0.1789	0.0112	-0.533
Mof_O 	O 	0.378	0.2176	0.2505	-0.455
Mof_O 	O 	0.4251	0.4588	0.8158	-0.341
Mof_O 	O 	0.3233	0.2818	0.4038	-0.267
Mof_O 	O 	0.2452	0.0999	0.9592	-0.506
Mof_C 	C 	0.4352	0.4266	0.9048	0.425
Mof_O 	O 	0.3685	0.1111	0.8474	-0.247
Mof_O 	O 	0.2722	0.2226	0.8772	-0.543
Mof_C 	C 	0.4632	0.478	0.0031	-0.018
Mof_H 	H 	0.4194	0.5211	0.0003	0.053
Mof_Eu	Eu	0.12197	0.81101	0.41147	2.543
Mof_S 	S 	0.10725	0.7808	0.16703	0.818
Mof_S 	S 	0.18365	0.65049	0.5757	0.795
Mof_O 	O 	0.0545	0.9378	0.4011	-0.506
Mof_O 	O 	0.1031	0.8586	0.2279	-0.617
Mof_O 	O 	0.0863	0.8568	0.5766	-0.537
Mof_O 	O 	0.0242	0.7662	0.1085	-0.585
Mof_O 	O 	0.1267	0.6789	0.4888	-0.542
Mof_O 	O 	0.122	0.7176	0.2495	-0.463
Mof_O 	O 	0.0749	0.9588	0.6842	-0.348
Mof_O 	O 	0.1767	0.7818	0.0962	-0.271
Mof_O 	O 	0.2548	0.5999	0.5408	-0.514
Mof_C 	C 	0.0648	0.9266	0.5952	0.433
Mof_O 	O 	0.1315	0.6111	0.6526	-0.262
Mof_O 	O 	0.2278	0.7226	0.6228	-0.549
Mof_C 	C 	0.0368	0.978	0.4969	-0.099
Mof_H 	H 	0.0806	0.0211	0.4997	0.069
Mof_Eu	Eu	0.62197	0.31101	0.41147	2.594
Mof_S 	S 	0.60725	0.2808	0.16703	0.816
Mof_S 	S 	0.68365	0.15049	0.5757	0.794
Mof_O 	O 	0.5545	0.4378	0.4011	-0.519
Mof_O 	O 	0.6031	0.3586	0.2279	-0.617
Mof_O 	O 	0.5863	0.3568	0.5766	-0.527
Mof_O 	O 	0.5242	0.2662	0.1085	-0.548
Mof_O 	O 	0.6267	0.1789	0.4888	-0.533
Mof_O 	O 	0.622	0.2176	0.2495	-0.454
Mof_O 	O 	0.5749	0.4588	0.6842	-0.338
Mof_O 	O 	0.6767	0.2818	0.0962	-0.262
Mof_O 	O 	0.7548	0.0999	0.5408	-0.515
Mof_C 	C 	0.5648	0.4266	0.5952	0.421
Mof_O 	O 	0.6315	0.1111	0.6526	-0.247
Mof_O 	O 	0.7278	0.2226	0.6228	-0.552
Mof_C 	C 	0.5368	0.478	0.4969	-0.01
Mof_H 	H 	0.5806	0.5211	0.4997	0.054
Mof_Fe	Fe	-8.84283e-18	0.04959	0.75	0.798
Mof_Fe	Fe	0.5	0.54959	0.75	0.881
Mof_Fe	Fe	8.04342e-34	0.95041	0.25	0.802
Mof_Fe	Fe	0.5	0.45041	0.25	0.88
_end
