data_functionalizedCrystal
_audit_creation_method	'EQeq! by Chris Wilmer'
_symmetry_space_group_name_H-M	'P1'
_symmetry_Int_Tables_number	1
_symmetry_cell_setting	triclinic
loop_
_symmetry_equiv_pos_as_xyz
  x,y,z
_cell_length_a	10.016
_cell_length_b	11.38
_cell_length_c	12.821
_cell_angle_alpha	80.39
_cell_angle_beta	80.65
_cell_angle_gamma	66.34
loop_
_atom_site_label
_atom_site_type_symbol
_atom_site_fract_x
_atom_site_fract_y
_atom_site_fract_z
_atom_site_charge
Mof_La	La	0.69862	0.89186	0.78818	2.304
Mof_La	La	0.38025	0.51211	0.74961	2.298
Mof_La	La	0.30138	0.10814	0.21182	2.305
Mof_La	La	0.61975	0.48789	0.25039	2.299
Mof_C 	C 	0.547	0.6766	0.8265	0.251
Mof_C 	C 	0.5196	0.7398	0.7162	0.295
Mof_C 	C 	0.6001	0.2061	0.7893	0.171
Mof_C 	C 	0.508	0.2018	0.7137	0.334
Mof_C 	C 	0.0567	0.7369	0.8034	0.241
Mof_C 	C 	0.02	0.6379	0.7592	0.287
Mof_C 	C 	0.58	0.4657	0.5098	0.274
Mof_C 	C 	0.4322	0.0298	0.9668	0.285
Mof_C 	C 	0.453	0.3234	0.1735	0.251
Mof_C 	C 	0.4804	0.2602	0.2838	0.295
Mof_C 	C 	0.3999	0.7939	0.2107	0.171
Mof_C 	C 	0.492	0.7982	0.2863	0.334
Mof_C 	C 	0.9433	0.2631	0.1966	0.241
Mof_C 	C 	0.98	0.3621	0.2408	0.287
Mof_C 	C 	0.42	0.5343	0.4902	0.274
Mof_C 	C 	0.5678	0.9702	0.0332	0.285
Mof_O 	O 	0.4506	0.6983	0.6676	-0.414
Mof_O 	O 	0.5653	0.8265	0.6816	-0.452
Mof_O 	O 	0.6076	0.717	0.881	-0.412
Mof_O 	O 	0.5091	0.5811	0.8622	-0.427
Mof_O 	O 	0.3982	0.3001	0.6962	-0.427
Mof_O 	O 	0.58	0.3105	0.8264	-0.381
Mof_O 	O 	0.5415	0.0928	0.6891	-0.449
Mof_O 	O 	0.7112	0.1003	0.8184	-0.37
Mof_O 	O 	0.9514	0.8402	0.8291	-0.424
Mof_O 	O 	0.8883	0.6719	0.7481	-0.445
Mof_O 	O 	0.1222	0.5363	0.7417	-0.442
Mof_O 	O 	0.1867	0.7165	0.8066	-0.433
Mof_O 	O 	0.5994	0.4394	0.6097	-0.396
Mof_O 	O 	0.6777	0.4344	0.4355	-0.427
Mof_O 	O 	0.4477	0.0087	0.8749	-0.419
Mof_O 	O 	0.3157	0.1034	0.0159	-0.423
Mof_O 	O 	0.5494	0.3017	0.3324	-0.414
Mof_O 	O 	0.4347	0.1735	0.3184	-0.452
Mof_O 	O 	0.3924	0.283	0.119	-0.412
Mof_O 	O 	0.4909	0.4189	0.1378	-0.427
Mof_O 	O 	0.6018	0.6999	0.3038	-0.427
Mof_O 	O 	0.42	0.6895	0.1736	-0.381
Mof_O 	O 	0.4585	0.9072	0.3109	-0.449
Mof_O 	O 	0.2888	0.8997	0.1816	-0.37
Mof_O 	O 	0.0486	0.1598	0.1709	-0.424
Mof_O 	O 	0.1117	0.3281	0.2519	-0.445
Mof_O 	O 	0.8778	0.4637	0.2583	-0.442
Mof_O 	O 	0.8133	0.2835	0.1934	-0.433
Mof_O 	O 	0.4006	0.5606	0.3903	-0.396
Mof_O 	O 	0.3223	0.5656	0.5645	-0.427
Mof_O 	O 	0.5523	0.9913	0.1251	-0.419
Mof_O 	O 	0.6843	0.8966	0.9841	-0.423
_end
