data_functionalizedCrystal
_audit_creation_method	'EQeq! by Chris Wilmer'
_symmetry_space_group_name_H-M	'P1'
_symmetry_Int_Tables_number	1
_symmetry_cell_setting	triclinic
loop_
_symmetry_equiv_pos_as_xyz
  x,y,z
_cell_length_a	26.255
_cell_length_b	26.255
_cell_length_c	26.255
_cell_angle_alpha	90
_cell_angle_beta	90
_cell_angle_gamma	90
loop_
_atom_site_label
_atom_site_type_symbol
_atom_site_fract_x
_atom_site_fract_y
_atom_site_fract_z
_atom_site_charge
Mof_Zr	Zr	0.51192	0.51385	0.09265	3.239
Mof_O 	O 	0.5511	0.5677	0.0376	0.611
Mof_O 	O 	0.5888	0.5293	0.12109	-0.686
Mof_O 	O 	0.6426	0.5282	0.05353	-0.669
Mof_O 	O 	0.8768	0.4946	0.40761	-0.67
Mof_O 	O 	0.94481	0.5106	0.3557	-0.671
Mof_C 	C 	0.7554	0.5366	0.2045	0.086
Mof_C 	C 	0.7643	0.5483	0.1555	-0.145
Mof_H 	H 	0.797	0.5576	0.1455	0.119
Mof_C 	C 	0.7255	0.5466	0.1193	0.111
Mof_H 	H 	0.7324	0.5513	0.0848	0.04
Mof_C 	C 	0.6764	0.5378	0.1364	-0.185
Mof_C 	C 	0.6681	0.5316	0.1887	0.125
Mof_H 	H 	0.6348	0.5295	0.2007	0.021
Mof_C 	C 	0.7943	0.5324	0.2453	0.102
Mof_C 	C 	0.8457	0.5382	0.2352	-0.156
Mof_H 	H 	0.8568	0.5468	0.2027	0.124
Mof_C 	C 	0.88	0.531	0.2738	0.117
Mof_H 	H 	0.9146	0.5362	0.2684	0.035
Mof_C 	C 	0.8621	0.5157	0.3216	-0.182
Mof_C 	C 	0.81	0.5099	0.329	0.131
Mof_H 	H 	0.7972	0.4998	0.3605	0.016
Mof_C 	C 	0.6332	0.5312	0.1002	0.506
Mof_C 	C 	0.8978	0.5063	0.3652	0.493
Mof_N 	N 	0.7071	0.5285	0.2222	-0.192
Mof_N 	N 	0.7786	0.5191	0.2903	-0.194
Mof_Fe	Fe	0.69656	0.51619	0.30068	0.778
Mof_Br	Br	0.6601	0.4342	0.3027	-0.245
Mof_Br	Br	0.6843	0.5936	0.3461	-0.238
Mof_O 	O 	0.5384	0.5501	0.0281	-1.672
Mof_Br	Br	0.6061	0.4908	0.2984	-0.201
Mof_Br	Br	0.6937	0.5344	0.3941	-0.198
Mof_Zr	Zr	0.98808	0.48615	0.59265	3.24
Mof_O 	O 	0.9489	0.4323	0.5376	0.612
Mof_O 	O 	0.9112	0.4707	0.62109	-0.685
Mof_O 	O 	0.8574	0.4718	0.55353	-0.668
Mof_O 	O 	0.6232	0.5054	0.90761	-0.669
Mof_O 	O 	0.55519	0.4894	0.8557	-0.67
Mof_C 	C 	0.7446	0.4634	0.7045	0.086
Mof_C 	C 	0.7357	0.4517	0.6555	-0.145
Mof_H 	H 	0.703	0.4424	0.6455	0.119
Mof_C 	C 	0.7745	0.4534	0.6193	0.111
Mof_H 	H 	0.7676	0.4487	0.5848	0.04
Mof_C 	C 	0.8236	0.4622	0.6364	-0.185
Mof_C 	C 	0.8319	0.4684	0.6887	0.125
Mof_H 	H 	0.8652	0.4705	0.7007	0.021
Mof_C 	C 	0.7057	0.4676	0.7453	0.102
Mof_C 	C 	0.6543	0.4618	0.7352	-0.156
Mof_H 	H 	0.6432	0.4532	0.7027	0.124
Mof_C 	C 	0.62	0.469	0.7738	0.117
Mof_H 	H 	0.5854	0.4638	0.7684	0.035
Mof_C 	C 	0.6379	0.4843	0.8216	-0.182
Mof_C 	C 	0.69	0.4901	0.829	0.131
Mof_H 	H 	0.7028	0.5002	0.8605	0.016
Mof_C 	C 	0.8668	0.4688	0.6002	0.506
Mof_C 	C 	0.6022	0.4937	0.8652	0.493
Mof_N 	N 	0.7929	0.4715	0.7222	-0.192
Mof_N 	N 	0.7214	0.4809	0.7903	-0.194
Mof_Fe	Fe	0.80344	0.48381	0.80068	0.778
Mof_Br	Br	0.8399	0.5658	0.8027	-0.245
Mof_Br	Br	0.8157	0.4064	0.8461	-0.237
Mof_O 	O 	0.9616	0.4499	0.5281	-1.672
Mof_Br	Br	0.8939	0.5092	0.7984	-0.201
Mof_Br	Br	0.8063	0.4656	0.8941	-0.197
Mof_Zr	Zr	0.48808	0.01385	0.40735	3.24
Mof_O 	O 	0.4489	0.0677	0.4624	0.612
Mof_O 	O 	0.4112	0.0293	0.37891	-0.685
Mof_O 	O 	0.3574	0.0282	0.44647	-0.667
Mof_O 	O 	0.1232	0.9946	0.09239	-0.67
Mof_O 	O 	0.05519	0.0106	0.1443	-0.669
Mof_C 	C 	0.2446	0.0366	0.2955	0.086
Mof_C 	C 	0.2357	0.0483	0.3445	-0.144
Mof_H 	H 	0.203	0.0576	0.3545	0.119
Mof_C 	C 	0.2745	0.0466	0.3807	0.111
Mof_H 	H 	0.2676	0.0513	0.4152	0.04
Mof_C 	C 	0.3236	0.0378	0.3636	-0.185
Mof_C 	C 	0.3319	0.0316	0.3113	0.125
Mof_H 	H 	0.3652	0.0295	0.2993	0.021
Mof_C 	C 	0.2057	0.0324	0.2547	0.102
Mof_C 	C 	0.1543	0.0382	0.2648	-0.157
Mof_H 	H 	0.1432	0.0468	0.2973	0.124
Mof_C 	C 	0.12	0.031	0.2262	0.118
Mof_H 	H 	0.0854	0.0362	0.2316	0.035
Mof_C 	C 	0.1379	0.0157	0.1784	-0.183
Mof_C 	C 	0.19	0.0099	0.171	0.134
Mof_H 	H 	0.2028	0.9998	0.1395	0.014
Mof_C 	C 	0.3668	0.0312	0.3998	0.506
Mof_C 	C 	0.1022	0.0063	0.1348	0.495
Mof_N 	N 	0.2929	0.0285	0.2778	-0.192
Mof_N 	N 	0.2214	0.0191	0.2097	-0.195
Mof_Fe	Fe	0.30344	0.01619	0.19932	0.779
Mof_Br	Br	0.3399	0.9342	0.1973	-0.246
Mof_Br	Br	0.3157	0.0936	0.1539	-0.238
Mof_O 	O 	0.4616	0.0501	0.4719	-1.672
Mof_Br	Br	0.3939	0.9908	0.2016	-0.201
Mof_Br	Br	0.3063	0.0344	0.1059	-0.196
Mof_Zr	Zr	0.01192	0.98615	0.90735	3.24
Mof_O 	O 	0.0511	0.9323	0.9624	0.612
Mof_O 	O 	0.0888	0.9707	0.87891	-0.685
Mof_O 	O 	0.1426	0.9718	0.94647	-0.667
Mof_O 	O 	0.3768	0.0054	0.59239	-0.668
Mof_O 	O 	0.44481	0.9894	0.6443	-0.669
Mof_C 	C 	0.2554	0.9634	0.7955	0.086
Mof_C 	C 	0.2643	0.9517	0.8445	-0.145
Mof_H 	H 	0.297	0.9424	0.8545	0.119
Mof_C 	C 	0.2255	0.9534	0.8807	0.111
Mof_H 	H 	0.2324	0.9487	0.9152	0.04
Mof_C 	C 	0.1764	0.9622	0.8636	-0.185
Mof_C 	C 	0.1681	0.9684	0.8113	0.125
Mof_H 	H 	0.1348	0.9705	0.7993	0.021
Mof_C 	C 	0.2943	0.9676	0.7547	0.102
Mof_C 	C 	0.3457	0.9618	0.7648	-0.156
Mof_H 	H 	0.3568	0.9532	0.7973	0.124
Mof_C 	C 	0.38	0.969	0.7262	0.117
Mof_H 	H 	0.4146	0.9638	0.7316	0.035
Mof_C 	C 	0.3621	0.9843	0.6784	-0.182
Mof_C 	C 	0.31	0.9901	0.671	0.131
Mof_H 	H 	0.2972	0.0002	0.6395	0.016
Mof_C 	C 	0.1332	0.9688	0.8998	0.506
Mof_C 	C 	0.3978	0.9937	0.6348	0.493
Mof_N 	N 	0.2071	0.9715	0.7778	-0.192
Mof_N 	N 	0.2786	0.9809	0.7097	-0.194
Mof_Fe	Fe	0.19656	0.98381	0.69932	0.778
Mof_Br	Br	0.1601	0.0658	0.6973	-0.245
Mof_Br	Br	0.1843	0.9064	0.6539	-0.238
Mof_O 	O 	0.0384	0.9499	0.9719	-1.673
Mof_Br	Br	0.1061	0.0092	0.7016	-0.2
Mof_Br	Br	0.1937	0.9656	0.6059	-0.197
Mof_Zr	Zr	0.09265	0.51192	0.51385	3.24
Mof_O 	O 	0.0376	0.5511	0.5677	0.612
Mof_O 	O 	0.12109	0.5888	0.5293	-0.685
Mof_O 	O 	0.05353	0.6426	0.5282	-0.668
Mof_O 	O 	0.40761	0.8768	0.4946	-0.669
Mof_O 	O 	0.3557	0.94481	0.5106	-0.67
Mof_C 	C 	0.2045	0.7554	0.5366	0.086
Mof_C 	C 	0.1555	0.7643	0.5483	-0.145
Mof_H 	H 	0.1455	0.797	0.5576	0.119
Mof_C 	C 	0.1193	0.7255	0.5466	0.111
Mof_H 	H 	0.0848	0.7324	0.5513	0.04
Mof_C 	C 	0.1364	0.6764	0.5378	-0.185
Mof_C 	C 	0.1887	0.6681	0.5316	0.125
Mof_H 	H 	0.2007	0.6348	0.5295	0.021
Mof_C 	C 	0.2453	0.7943	0.5324	0.102
Mof_C 	C 	0.2352	0.8457	0.5382	-0.156
Mof_H 	H 	0.2027	0.8568	0.5468	0.124
Mof_C 	C 	0.2738	0.88	0.531	0.117
Mof_H 	H 	0.2684	0.9146	0.5362	0.035
Mof_C 	C 	0.3216	0.8621	0.5157	-0.182
Mof_C 	C 	0.329	0.81	0.5099	0.131
Mof_H 	H 	0.3605	0.7972	0.4998	0.016
Mof_C 	C 	0.1002	0.6332	0.5312	0.506
Mof_C 	C 	0.3652	0.8978	0.5063	0.493
Mof_N 	N 	0.2222	0.7071	0.5285	-0.192
Mof_N 	N 	0.2903	0.7786	0.5191	-0.194
Mof_Fe	Fe	0.30068	0.69656	0.51619	0.778
Mof_Br	Br	0.3027	0.6601	0.4342	-0.245
Mof_Br	Br	0.3461	0.6843	0.5936	-0.238
Mof_O 	O 	0.0281	0.5384	0.5501	-1.672
Mof_Br	Br	0.2984	0.6061	0.4908	-0.201
Mof_Br	Br	0.3941	0.6937	0.5344	-0.198
Mof_Zr	Zr	0.59265	0.98808	0.48615	3.24
Mof_O 	O 	0.5376	0.9489	0.4323	0.612
Mof_O 	O 	0.62109	0.9112	0.4707	-0.685
Mof_O 	O 	0.55353	0.8574	0.4718	-0.668
Mof_O 	O 	0.90761	0.6232	0.5054	-0.669
Mof_O 	O 	0.8557	0.55519	0.4894	-0.67
Mof_C 	C 	0.7045	0.7446	0.4634	0.086
Mof_C 	C 	0.6555	0.7357	0.4517	-0.145
Mof_H 	H 	0.6455	0.703	0.4424	0.119
Mof_C 	C 	0.6193	0.7745	0.4534	0.111
Mof_H 	H 	0.5848	0.7676	0.4487	0.04
Mof_C 	C 	0.6364	0.8236	0.4622	-0.185
Mof_C 	C 	0.6887	0.8319	0.4684	0.125
Mof_H 	H 	0.7007	0.8652	0.4705	0.021
Mof_C 	C 	0.7453	0.7057	0.4676	0.102
Mof_C 	C 	0.7352	0.6543	0.4618	-0.156
Mof_H 	H 	0.7027	0.6432	0.4532	0.124
Mof_C 	C 	0.7738	0.62	0.469	0.117
Mof_H 	H 	0.7684	0.5854	0.4638	0.035
Mof_C 	C 	0.8216	0.6379	0.4843	-0.182
Mof_C 	C 	0.829	0.69	0.4901	0.131
Mof_H 	H 	0.8605	0.7028	0.5002	0.016
Mof_C 	C 	0.6002	0.8668	0.4688	0.506
Mof_C 	C 	0.8652	0.6022	0.4937	0.493
Mof_N 	N 	0.7222	0.7929	0.4715	-0.192
Mof_N 	N 	0.7903	0.7214	0.4809	-0.194
Mof_Fe	Fe	0.80068	0.80344	0.48381	0.778
Mof_Br	Br	0.8027	0.8399	0.5658	-0.245
Mof_Br	Br	0.8461	0.8157	0.4064	-0.237
Mof_O 	O 	0.5281	0.9616	0.4499	-1.672
Mof_Br	Br	0.7984	0.8939	0.5092	-0.201
Mof_Br	Br	0.8941	0.8063	0.4656	-0.197
Mof_Zr	Zr	0.40735	0.48808	0.01385	3.24
Mof_O 	O 	0.4624	0.4489	0.0677	0.612
Mof_O 	O 	0.37891	0.4112	0.0293	-0.685
Mof_O 	O 	0.44647	0.3574	0.0282	-0.667
Mof_O 	O 	0.09239	0.1232	0.9946	-0.67
Mof_O 	O 	0.1443	0.05519	0.0106	-0.669
Mof_C 	C 	0.2955	0.2446	0.0366	0.086
Mof_C 	C 	0.3445	0.2357	0.0483	-0.144
Mof_H 	H 	0.3545	0.203	0.0576	0.119
Mof_C 	C 	0.3807	0.2745	0.0466	0.111
Mof_H 	H 	0.4152	0.2676	0.0513	0.04
Mof_C 	C 	0.3636	0.3236	0.0378	-0.185
Mof_C 	C 	0.3113	0.3319	0.0316	0.125
Mof_H 	H 	0.2993	0.3652	0.0295	0.021
Mof_C 	C 	0.2547	0.2057	0.0324	0.102
Mof_C 	C 	0.2648	0.1543	0.0382	-0.157
Mof_H 	H 	0.2973	0.1432	0.0468	0.124
Mof_C 	C 	0.2262	0.12	0.031	0.118
Mof_H 	H 	0.2316	0.0854	0.0362	0.035
Mof_C 	C 	0.1784	0.1379	0.0157	-0.183
Mof_C 	C 	0.171	0.19	0.0099	0.134
Mof_H 	H 	0.1395	0.2028	0.9998	0.014
Mof_C 	C 	0.3998	0.3668	0.0312	0.506
Mof_C 	C 	0.1348	0.1022	0.0063	0.495
Mof_N 	N 	0.2778	0.2929	0.0285	-0.192
Mof_N 	N 	0.2097	0.2214	0.0191	-0.195
Mof_Fe	Fe	0.19932	0.30344	0.01619	0.779
Mof_Br	Br	0.1973	0.3399	0.9342	-0.246
Mof_Br	Br	0.1539	0.3157	0.0936	-0.238
Mof_O 	O 	0.4719	0.4616	0.0501	-1.672
Mof_Br	Br	0.2016	0.3939	0.9908	-0.201
Mof_Br	Br	0.1059	0.3063	0.0344	-0.196
Mof_Zr	Zr	0.90735	0.01192	0.98615	3.24
Mof_O 	O 	0.9624	0.0511	0.9323	0.612
Mof_O 	O 	0.87891	0.0888	0.9707	-0.685
Mof_O 	O 	0.94647	0.1426	0.9718	-0.667
Mof_O 	O 	0.59239	0.3768	0.0054	-0.668
Mof_O 	O 	0.6443	0.44481	0.9894	-0.669
Mof_C 	C 	0.7955	0.2554	0.9634	0.086
Mof_C 	C 	0.8445	0.2643	0.9517	-0.145
Mof_H 	H 	0.8545	0.297	0.9424	0.119
Mof_C 	C 	0.8807	0.2255	0.9534	0.111
Mof_H 	H 	0.9152	0.2324	0.9487	0.04
Mof_C 	C 	0.8636	0.1764	0.9622	-0.185
Mof_C 	C 	0.8113	0.1681	0.9684	0.125
Mof_H 	H 	0.7993	0.1348	0.9705	0.021
Mof_C 	C 	0.7547	0.2943	0.9676	0.102
Mof_C 	C 	0.7648	0.3457	0.9618	-0.156
Mof_H 	H 	0.7973	0.3568	0.9532	0.124
Mof_C 	C 	0.7262	0.38	0.969	0.117
Mof_H 	H 	0.7316	0.4146	0.9638	0.035
Mof_C 	C 	0.6784	0.3621	0.9843	-0.182
Mof_C 	C 	0.671	0.31	0.9901	0.131
Mof_H 	H 	0.6395	0.2972	0.0002	0.016
Mof_C 	C 	0.8998	0.1332	0.9688	0.506
Mof_C 	C 	0.6348	0.3978	0.9937	0.493
Mof_N 	N 	0.7778	0.2071	0.9715	-0.192
Mof_N 	N 	0.7097	0.2786	0.9809	-0.194
Mof_Fe	Fe	0.69932	0.19656	0.98381	0.778
Mof_Br	Br	0.6973	0.1601	0.0658	-0.245
Mof_Br	Br	0.6539	0.1843	0.9064	-0.238
Mof_O 	O 	0.9719	0.0384	0.9499	-1.673
Mof_Br	Br	0.7016	0.1061	0.0092	-0.2
Mof_Br	Br	0.6059	0.1937	0.9656	-0.197
Mof_Zr	Zr	0.51385	0.09265	0.51192	3.24
Mof_O 	O 	0.5677	0.0376	0.5511	0.612
Mof_O 	O 	0.5293	0.12109	0.5888	-0.685
Mof_O 	O 	0.5282	0.05353	0.6426	-0.668
Mof_O 	O 	0.4946	0.40761	0.8768	-0.669
Mof_O 	O 	0.5106	0.3557	0.94481	-0.67
Mof_C 	C 	0.5366	0.2045	0.7554	0.086
Mof_C 	C 	0.5483	0.1555	0.7643	-0.145
Mof_H 	H 	0.5576	0.1455	0.797	0.119
Mof_C 	C 	0.5466	0.1193	0.7255	0.111
Mof_H 	H 	0.5513	0.0848	0.7324	0.04
Mof_C 	C 	0.5378	0.1364	0.6764	-0.185
Mof_C 	C 	0.5316	0.1887	0.6681	0.125
Mof_H 	H 	0.5295	0.2007	0.6348	0.021
Mof_C 	C 	0.5324	0.2453	0.7943	0.102
Mof_C 	C 	0.5382	0.2352	0.8457	-0.156
Mof_H 	H 	0.5468	0.2027	0.8568	0.124
Mof_C 	C 	0.531	0.2738	0.88	0.117
Mof_H 	H 	0.5362	0.2684	0.9146	0.035
Mof_C 	C 	0.5157	0.3216	0.8621	-0.182
Mof_C 	C 	0.5099	0.329	0.81	0.131
Mof_H 	H 	0.4998	0.3605	0.7972	0.016
Mof_C 	C 	0.5312	0.1002	0.6332	0.506
Mof_C 	C 	0.5063	0.3652	0.8978	0.493
Mof_N 	N 	0.5285	0.2222	0.7071	-0.192
Mof_N 	N 	0.5191	0.2903	0.7786	-0.194
Mof_Fe	Fe	0.51619	0.30068	0.69656	0.778
Mof_Br	Br	0.4342	0.3027	0.6601	-0.245
Mof_Br	Br	0.5936	0.3461	0.6843	-0.238
Mof_O 	O 	0.5501	0.0281	0.5384	-1.672
Mof_Br	Br	0.4908	0.2984	0.6061	-0.201
Mof_Br	Br	0.5344	0.3941	0.6937	-0.198
Mof_Zr	Zr	0.48615	0.59265	0.98808	3.24
Mof_O 	O 	0.4323	0.5376	0.9489	0.612
Mof_O 	O 	0.4707	0.62109	0.9112	-0.685
Mof_O 	O 	0.4718	0.55353	0.8574	-0.668
Mof_O 	O 	0.5054	0.90761	0.6232	-0.669
Mof_O 	O 	0.4894	0.8557	0.55519	-0.67
Mof_C 	C 	0.4634	0.7045	0.7446	0.086
Mof_C 	C 	0.4517	0.6555	0.7357	-0.145
Mof_H 	H 	0.4424	0.6455	0.703	0.119
Mof_C 	C 	0.4534	0.6193	0.7745	0.111
Mof_H 	H 	0.4487	0.5848	0.7676	0.04
Mof_C 	C 	0.4622	0.6364	0.8236	-0.185
Mof_C 	C 	0.4684	0.6887	0.8319	0.125
Mof_H 	H 	0.4705	0.7007	0.8652	0.021
Mof_C 	C 	0.4676	0.7453	0.7057	0.102
Mof_C 	C 	0.4618	0.7352	0.6543	-0.156
Mof_H 	H 	0.4532	0.7027	0.6432	0.124
Mof_C 	C 	0.469	0.7738	0.62	0.117
Mof_H 	H 	0.4638	0.7684	0.5854	0.035
Mof_C 	C 	0.4843	0.8216	0.6379	-0.182
Mof_C 	C 	0.4901	0.829	0.69	0.131
Mof_H 	H 	0.5002	0.8605	0.7028	0.016
Mof_C 	C 	0.4688	0.6002	0.8668	0.506
Mof_C 	C 	0.4937	0.8652	0.6022	0.493
Mof_N 	N 	0.4715	0.7222	0.7929	-0.192
Mof_N 	N 	0.4809	0.7903	0.7214	-0.194
Mof_Fe	Fe	0.48381	0.80068	0.80344	0.778
Mof_Br	Br	0.5658	0.8027	0.8399	-0.245
Mof_Br	Br	0.4064	0.8461	0.8157	-0.237
Mof_O 	O 	0.4499	0.5281	0.9616	-1.672
Mof_Br	Br	0.5092	0.7984	0.8939	-0.201
Mof_Br	Br	0.4656	0.8941	0.8063	-0.197
Mof_Zr	Zr	0.01385	0.40735	0.48808	3.24
Mof_O 	O 	0.0677	0.4624	0.4489	0.612
Mof_O 	O 	0.0293	0.37891	0.4112	-0.685
Mof_O 	O 	0.0282	0.44647	0.3574	-0.667
Mof_O 	O 	0.9946	0.09239	0.1232	-0.67
Mof_O 	O 	0.0106	0.1443	0.05519	-0.669
Mof_C 	C 	0.0366	0.2955	0.2446	0.086
Mof_C 	C 	0.0483	0.3445	0.2357	-0.144
Mof_H 	H 	0.0576	0.3545	0.203	0.119
Mof_C 	C 	0.0466	0.3807	0.2745	0.111
Mof_H 	H 	0.0513	0.4152	0.2676	0.04
Mof_C 	C 	0.0378	0.3636	0.3236	-0.185
Mof_C 	C 	0.0316	0.3113	0.3319	0.125
Mof_H 	H 	0.0295	0.2993	0.3652	0.021
Mof_C 	C 	0.0324	0.2547	0.2057	0.102
Mof_C 	C 	0.0382	0.2648	0.1543	-0.157
Mof_H 	H 	0.0468	0.2973	0.1432	0.124
Mof_C 	C 	0.031	0.2262	0.12	0.118
Mof_H 	H 	0.0362	0.2316	0.0854	0.035
Mof_C 	C 	0.0157	0.1784	0.1379	-0.183
Mof_C 	C 	0.0099	0.171	0.19	0.134
Mof_H 	H 	0.9998	0.1395	0.2028	0.014
Mof_C 	C 	0.0312	0.3998	0.3668	0.506
Mof_C 	C 	0.0063	0.1348	0.1022	0.495
Mof_N 	N 	0.0285	0.2778	0.2929	-0.192
Mof_N 	N 	0.0191	0.2097	0.2214	-0.195
Mof_Fe	Fe	0.01619	0.19932	0.30344	0.779
Mof_Br	Br	0.9342	0.1973	0.3399	-0.246
Mof_Br	Br	0.0936	0.1539	0.3157	-0.238
Mof_O 	O 	0.0501	0.4719	0.4616	-1.672
Mof_Br	Br	0.9908	0.2016	0.3939	-0.201
Mof_Br	Br	0.0344	0.1059	0.3063	-0.196
Mof_Zr	Zr	0.98615	0.90735	0.01192	3.24
Mof_O 	O 	0.9323	0.9624	0.0511	0.612
Mof_O 	O 	0.9707	0.87891	0.0888	-0.685
Mof_O 	O 	0.9718	0.94647	0.1426	-0.667
Mof_O 	O 	0.0054	0.59239	0.3768	-0.668
Mof_O 	O 	0.9894	0.6443	0.44481	-0.669
Mof_C 	C 	0.9634	0.7955	0.2554	0.086
Mof_C 	C 	0.9517	0.8445	0.2643	-0.145
Mof_H 	H 	0.9424	0.8545	0.297	0.119
Mof_C 	C 	0.9534	0.8807	0.2255	0.111
Mof_H 	H 	0.9487	0.9152	0.2324	0.04
Mof_C 	C 	0.9622	0.8636	0.1764	-0.185
Mof_C 	C 	0.9684	0.8113	0.1681	0.125
Mof_H 	H 	0.9705	0.7993	0.1348	0.021
Mof_C 	C 	0.9676	0.7547	0.2943	0.102
Mof_C 	C 	0.9618	0.7648	0.3457	-0.156
Mof_H 	H 	0.9532	0.7973	0.3568	0.124
Mof_C 	C 	0.969	0.7262	0.38	0.117
Mof_H 	H 	0.9638	0.7316	0.4146	0.035
Mof_C 	C 	0.9843	0.6784	0.3621	-0.182
Mof_C 	C 	0.9901	0.671	0.31	0.131
Mof_H 	H 	0.0002	0.6395	0.2972	0.016
Mof_C 	C 	0.9688	0.8998	0.1332	0.506
Mof_C 	C 	0.9937	0.6348	0.3978	0.493
Mof_N 	N 	0.9715	0.7778	0.2071	-0.192
Mof_N 	N 	0.9809	0.7097	0.2786	-0.194
Mof_Fe	Fe	0.98381	0.69932	0.19656	0.778
Mof_Br	Br	0.0658	0.6973	0.1601	-0.245
Mof_Br	Br	0.9064	0.6539	0.1843	-0.238
Mof_O 	O 	0.9499	0.9719	0.0384	-1.673
Mof_Br	Br	0.0092	0.7016	0.1061	-0.2
Mof_Br	Br	0.9656	0.6059	0.1937	-0.197
Mof_Zr	Zr	0.48808	0.48615	0.90735	3.24
Mof_O 	O 	0.4489	0.4323	0.9624	0.612
Mof_O 	O 	0.4112	0.4707	0.87891	-0.685
Mof_O 	O 	0.3574	0.4718	0.94647	-0.668
Mof_O 	O 	0.1232	0.5054	0.59239	-0.669
Mof_O 	O 	0.05519	0.4894	0.6443	-0.67
Mof_C 	C 	0.2446	0.4634	0.7955	0.086
Mof_C 	C 	0.2357	0.4517	0.8445	-0.145
Mof_H 	H 	0.203	0.4424	0.8545	0.119
Mof_C 	C 	0.2745	0.4534	0.8807	0.111
Mof_H 	H 	0.2676	0.4487	0.9152	0.04
Mof_C 	C 	0.3236	0.4622	0.8636	-0.185
Mof_C 	C 	0.3319	0.4684	0.8113	0.125
Mof_H 	H 	0.3652	0.4705	0.7993	0.021
Mof_C 	C 	0.2057	0.4676	0.7547	0.102
Mof_C 	C 	0.1543	0.4618	0.7648	-0.156
Mof_H 	H 	0.1432	0.4532	0.7973	0.124
Mof_C 	C 	0.12	0.469	0.7262	0.117
Mof_H 	H 	0.0854	0.4638	0.7316	0.035
Mof_C 	C 	0.1379	0.4843	0.6784	-0.182
Mof_C 	C 	0.19	0.4901	0.671	0.131
Mof_H 	H 	0.2028	0.5002	0.6395	0.016
Mof_C 	C 	0.3668	0.4688	0.8998	0.506
Mof_C 	C 	0.1022	0.4937	0.6348	0.493
Mof_N 	N 	0.2929	0.4715	0.7778	-0.192
Mof_N 	N 	0.2214	0.4809	0.7097	-0.194
Mof_Fe	Fe	0.30344	0.48381	0.69932	0.778
Mof_Br	Br	0.3399	0.5658	0.6973	-0.245
Mof_Br	Br	0.3157	0.4064	0.6539	-0.238
Mof_O 	O 	0.4616	0.4499	0.9719	-1.672
Mof_Br	Br	0.3939	0.5092	0.7016	-0.201
Mof_Br	Br	0.3063	0.4656	0.6059	-0.198
Mof_Zr	Zr	0.01192	0.51385	0.40735	3.24
Mof_O 	O 	0.0511	0.5677	0.4624	0.612
Mof_O 	O 	0.0888	0.5293	0.37891	-0.685
Mof_O 	O 	0.1426	0.5282	0.44647	-0.668
Mof_O 	O 	0.3768	0.4946	0.09239	-0.669
Mof_O 	O 	0.44481	0.5106	0.1443	-0.67
Mof_C 	C 	0.2554	0.5366	0.2955	0.086
Mof_C 	C 	0.2643	0.5483	0.3445	-0.145
Mof_H 	H 	0.297	0.5576	0.3545	0.119
Mof_C 	C 	0.2255	0.5466	0.3807	0.111
Mof_H 	H 	0.2324	0.5513	0.4152	0.04
Mof_C 	C 	0.1764	0.5378	0.3636	-0.185
Mof_C 	C 	0.1681	0.5316	0.3113	0.125
Mof_H 	H 	0.1348	0.5295	0.2993	0.021
Mof_C 	C 	0.2943	0.5324	0.2547	0.102
Mof_C 	C 	0.3457	0.5382	0.2648	-0.156
Mof_H 	H 	0.3568	0.5468	0.2973	0.124
Mof_C 	C 	0.38	0.531	0.2262	0.117
Mof_H 	H 	0.4146	0.5362	0.2316	0.035
Mof_C 	C 	0.3621	0.5157	0.1784	-0.182
Mof_C 	C 	0.31	0.5099	0.171	0.131
Mof_H 	H 	0.2972	0.4998	0.1395	0.016
Mof_C 	C 	0.1332	0.5312	0.3998	0.506
Mof_C 	C 	0.3978	0.5063	0.1348	0.493
Mof_N 	N 	0.2071	0.5285	0.2778	-0.192
Mof_N 	N 	0.2786	0.5191	0.2097	-0.194
Mof_Fe	Fe	0.19656	0.51619	0.19932	0.778
Mof_Br	Br	0.1601	0.4342	0.1973	-0.245
Mof_Br	Br	0.1843	0.5936	0.1539	-0.237
Mof_O 	O 	0.0384	0.5501	0.4719	-1.672
Mof_Br	Br	0.1061	0.4908	0.2016	-0.201
Mof_Br	Br	0.1937	0.5344	0.1059	-0.197
Mof_Zr	Zr	0.51192	0.98615	0.59265	3.24
Mof_O 	O 	0.5511	0.9323	0.5376	0.612
Mof_O 	O 	0.5888	0.9707	0.62109	-0.685
Mof_O 	O 	0.6426	0.9718	0.55353	-0.667
Mof_O 	O 	0.8768	0.0054	0.90761	-0.67
Mof_O 	O 	0.94481	0.9894	0.8557	-0.669
Mof_C 	C 	0.7554	0.9634	0.7045	0.086
Mof_C 	C 	0.7643	0.9517	0.6555	-0.144
Mof_H 	H 	0.797	0.9424	0.6455	0.119
Mof_C 	C 	0.7255	0.9534	0.6193	0.111
Mof_H 	H 	0.7324	0.9487	0.5848	0.04
Mof_C 	C 	0.6764	0.9622	0.6364	-0.185
Mof_C 	C 	0.6681	0.9684	0.6887	0.125
Mof_H 	H 	0.6348	0.9705	0.7007	0.021
Mof_C 	C 	0.7943	0.9676	0.7453	0.102
Mof_C 	C 	0.8457	0.9618	0.7352	-0.157
Mof_H 	H 	0.8568	0.9532	0.7027	0.124
Mof_C 	C 	0.88	0.969	0.7738	0.118
Mof_H 	H 	0.9146	0.9638	0.7684	0.035
Mof_C 	C 	0.8621	0.9843	0.8216	-0.183
Mof_C 	C 	0.81	0.9901	0.829	0.134
Mof_H 	H 	0.7972	0.0002	0.8605	0.014
Mof_C 	C 	0.6332	0.9688	0.6002	0.506
Mof_C 	C 	0.8978	0.9937	0.8652	0.495
Mof_N 	N 	0.7071	0.9715	0.7222	-0.192
Mof_N 	N 	0.7786	0.9809	0.7903	-0.195
Mof_Fe	Fe	0.69656	0.98381	0.80068	0.779
Mof_Br	Br	0.6601	0.0658	0.8027	-0.246
Mof_Br	Br	0.6843	0.9064	0.8461	-0.238
Mof_O 	O 	0.5384	0.9499	0.5281	-1.672
Mof_Br	Br	0.6061	0.0092	0.7984	-0.201
Mof_Br	Br	0.6937	0.9656	0.8941	-0.196
Mof_Zr	Zr	0.98808	0.01385	0.09265	3.24
Mof_O 	O 	0.9489	0.0677	0.0376	0.612
Mof_O 	O 	0.9112	0.0293	0.12109	-0.685
Mof_O 	O 	0.8574	0.0282	0.05353	-0.667
Mof_O 	O 	0.6232	0.9946	0.40761	-0.668
Mof_O 	O 	0.55519	0.0106	0.3557	-0.669
Mof_C 	C 	0.7446	0.0366	0.2045	0.086
Mof_C 	C 	0.7357	0.0483	0.1555	-0.145
Mof_H 	H 	0.703	0.0576	0.1455	0.119
Mof_C 	C 	0.7745	0.0466	0.1193	0.111
Mof_H 	H 	0.7676	0.0513	0.0848	0.04
Mof_C 	C 	0.8236	0.0378	0.1364	-0.185
Mof_C 	C 	0.8319	0.0316	0.1887	0.125
Mof_H 	H 	0.8652	0.0295	0.2007	0.021
Mof_C 	C 	0.7057	0.0324	0.2453	0.102
Mof_C 	C 	0.6543	0.0382	0.2352	-0.156
Mof_H 	H 	0.6432	0.0468	0.2027	0.124
Mof_C 	C 	0.62	0.031	0.2738	0.117
Mof_H 	H 	0.5854	0.0362	0.2684	0.035
Mof_C 	C 	0.6379	0.0157	0.3216	-0.182
Mof_C 	C 	0.69	0.0099	0.329	0.131
Mof_H 	H 	0.7028	0.9998	0.3605	0.016
Mof_C 	C 	0.8668	0.0312	0.1002	0.506
Mof_C 	C 	0.6022	0.0063	0.3652	0.493
Mof_N 	N 	0.7929	0.0285	0.2222	-0.192
Mof_N 	N 	0.7214	0.0191	0.2903	-0.194
Mof_Fe	Fe	0.80344	0.01619	0.30068	0.778
Mof_Br	Br	0.8399	0.9342	0.3027	-0.245
Mof_Br	Br	0.8157	0.0936	0.3461	-0.238
Mof_O 	O 	0.9616	0.0501	0.0281	-1.673
Mof_Br	Br	0.8939	0.9908	0.2984	-0.2
Mof_Br	Br	0.8063	0.0344	0.3941	-0.197
Mof_Zr	Zr	0.90735	0.48808	0.48615	3.24
Mof_O 	O 	0.9624	0.4489	0.4323	0.612
Mof_O 	O 	0.87891	0.4112	0.4707	-0.685
Mof_O 	O 	0.94647	0.3574	0.4718	-0.668
Mof_O 	O 	0.59239	0.1232	0.5054	-0.669
Mof_O 	O 	0.6443	0.05519	0.4894	-0.67
Mof_C 	C 	0.7955	0.2446	0.4634	0.086
Mof_C 	C 	0.8445	0.2357	0.4517	-0.145
Mof_H 	H 	0.8545	0.203	0.4424	0.119
Mof_C 	C 	0.8807	0.2745	0.4534	0.111
Mof_H 	H 	0.9152	0.2676	0.4487	0.04
Mof_C 	C 	0.8636	0.3236	0.4622	-0.185
Mof_C 	C 	0.8113	0.3319	0.4684	0.125
Mof_H 	H 	0.7993	0.3652	0.4705	0.021
Mof_C 	C 	0.7547	0.2057	0.4676	0.102
Mof_C 	C 	0.7648	0.1543	0.4618	-0.156
Mof_H 	H 	0.7973	0.1432	0.4532	0.124
Mof_C 	C 	0.7262	0.12	0.469	0.117
Mof_H 	H 	0.7316	0.0854	0.4638	0.035
Mof_C 	C 	0.6784	0.1379	0.4843	-0.182
Mof_C 	C 	0.671	0.19	0.4901	0.131
Mof_H 	H 	0.6395	0.2028	0.5002	0.016
Mof_C 	C 	0.8998	0.3668	0.4688	0.506
Mof_C 	C 	0.6348	0.1022	0.4937	0.493
Mof_N 	N 	0.7778	0.2929	0.4715	-0.192
Mof_N 	N 	0.7097	0.2214	0.4809	-0.194
Mof_Fe	Fe	0.69932	0.30344	0.48381	0.778
Mof_Br	Br	0.6973	0.3399	0.5658	-0.245
Mof_Br	Br	0.6539	0.3157	0.4064	-0.238
Mof_O 	O 	0.9719	0.4616	0.4499	-1.672
Mof_Br	Br	0.7016	0.3939	0.5092	-0.201
Mof_Br	Br	0.6059	0.3063	0.4656	-0.198
Mof_Zr	Zr	0.40735	0.01192	0.51385	3.24
Mof_O 	O 	0.4624	0.0511	0.5677	0.612
Mof_O 	O 	0.37891	0.0888	0.5293	-0.685
Mof_O 	O 	0.44647	0.1426	0.5282	-0.668
Mof_O 	O 	0.09239	0.3768	0.4946	-0.669
Mof_O 	O 	0.1443	0.44481	0.5106	-0.67
Mof_C 	C 	0.2955	0.2554	0.5366	0.086
Mof_C 	C 	0.3445	0.2643	0.5483	-0.145
Mof_H 	H 	0.3545	0.297	0.5576	0.119
Mof_C 	C 	0.3807	0.2255	0.5466	0.111
Mof_H 	H 	0.4152	0.2324	0.5513	0.04
Mof_C 	C 	0.3636	0.1764	0.5378	-0.185
Mof_C 	C 	0.3113	0.1681	0.5316	0.125
Mof_H 	H 	0.2993	0.1348	0.5295	0.021
Mof_C 	C 	0.2547	0.2943	0.5324	0.102
Mof_C 	C 	0.2648	0.3457	0.5382	-0.156
Mof_H 	H 	0.2973	0.3568	0.5468	0.124
Mof_C 	C 	0.2262	0.38	0.531	0.117
Mof_H 	H 	0.2316	0.4146	0.5362	0.035
Mof_C 	C 	0.1784	0.3621	0.5157	-0.182
Mof_C 	C 	0.171	0.31	0.5099	0.131
Mof_H 	H 	0.1395	0.2972	0.4998	0.016
Mof_C 	C 	0.3998	0.1332	0.5312	0.506
Mof_C 	C 	0.1348	0.3978	0.5063	0.493
Mof_N 	N 	0.2778	0.2071	0.5285	-0.192
Mof_N 	N 	0.2097	0.2786	0.5191	-0.194
Mof_Fe	Fe	0.19932	0.19656	0.51619	0.778
Mof_Br	Br	0.1973	0.1601	0.4342	-0.245
Mof_Br	Br	0.1539	0.1843	0.5936	-0.237
Mof_O 	O 	0.4719	0.0384	0.5501	-1.672
Mof_Br	Br	0.2016	0.1061	0.4908	-0.201
Mof_Br	Br	0.1059	0.1937	0.5344	-0.197
Mof_Zr	Zr	0.59265	0.51192	0.98615	3.24
Mof_O 	O 	0.5376	0.5511	0.9323	0.612
Mof_O 	O 	0.62109	0.5888	0.9707	-0.685
Mof_O 	O 	0.55353	0.6426	0.9718	-0.667
Mof_O 	O 	0.90761	0.8768	0.0054	-0.67
Mof_O 	O 	0.8557	0.94481	0.9894	-0.669
Mof_C 	C 	0.7045	0.7554	0.9634	0.086
Mof_C 	C 	0.6555	0.7643	0.9517	-0.144
Mof_H 	H 	0.6455	0.797	0.9424	0.119
Mof_C 	C 	0.6193	0.7255	0.9534	0.111
Mof_H 	H 	0.5848	0.7324	0.9487	0.04
Mof_C 	C 	0.6364	0.6764	0.9622	-0.185
Mof_C 	C 	0.6887	0.6681	0.9684	0.125
Mof_H 	H 	0.7007	0.6348	0.9705	0.021
Mof_C 	C 	0.7453	0.7943	0.9676	0.102
Mof_C 	C 	0.7352	0.8457	0.9618	-0.157
Mof_H 	H 	0.7027	0.8568	0.9532	0.124
Mof_C 	C 	0.7738	0.88	0.969	0.118
Mof_H 	H 	0.7684	0.9146	0.9638	0.035
Mof_C 	C 	0.8216	0.8621	0.9843	-0.183
Mof_C 	C 	0.829	0.81	0.9901	0.134
Mof_H 	H 	0.8605	0.7972	0.0002	0.014
Mof_C 	C 	0.6002	0.6332	0.9688	0.506
Mof_C 	C 	0.8652	0.8978	0.9937	0.495
Mof_N 	N 	0.7222	0.7071	0.9715	-0.192
Mof_N 	N 	0.7903	0.7786	0.9809	-0.195
Mof_Fe	Fe	0.80068	0.69656	0.98381	0.779
Mof_Br	Br	0.8027	0.6601	0.0658	-0.246
Mof_Br	Br	0.8461	0.6843	0.9064	-0.238
Mof_O 	O 	0.5281	0.5384	0.9499	-1.672
Mof_Br	Br	0.7984	0.6061	0.0092	-0.201
Mof_Br	Br	0.8941	0.6937	0.9656	-0.196
Mof_Zr	Zr	0.09265	0.98808	0.01385	3.24
Mof_O 	O 	0.0376	0.9489	0.0677	0.612
Mof_O 	O 	0.12109	0.9112	0.0293	-0.685
Mof_O 	O 	0.05353	0.8574	0.0282	-0.667
Mof_O 	O 	0.40761	0.6232	0.9946	-0.668
Mof_O 	O 	0.3557	0.55519	0.0106	-0.669
Mof_C 	C 	0.2045	0.7446	0.0366	0.086
Mof_C 	C 	0.1555	0.7357	0.0483	-0.145
Mof_H 	H 	0.1455	0.703	0.0576	0.119
Mof_C 	C 	0.1193	0.7745	0.0466	0.111
Mof_H 	H 	0.0848	0.7676	0.0513	0.04
Mof_C 	C 	0.1364	0.8236	0.0378	-0.185
Mof_C 	C 	0.1887	0.8319	0.0316	0.125
Mof_H 	H 	0.2007	0.8652	0.0295	0.021
Mof_C 	C 	0.2453	0.7057	0.0324	0.102
Mof_C 	C 	0.2352	0.6543	0.0382	-0.156
Mof_H 	H 	0.2027	0.6432	0.0468	0.124
Mof_C 	C 	0.2738	0.62	0.031	0.117
Mof_H 	H 	0.2684	0.5854	0.0362	0.035
Mof_C 	C 	0.3216	0.6379	0.0157	-0.182
Mof_C 	C 	0.329	0.69	0.0099	0.131
Mof_H 	H 	0.3605	0.7028	0.9998	0.016
Mof_C 	C 	0.1002	0.8668	0.0312	0.506
Mof_C 	C 	0.3652	0.6022	0.0063	0.493
Mof_N 	N 	0.2222	0.7929	0.0285	-0.192
Mof_N 	N 	0.2903	0.7214	0.0191	-0.194
Mof_Fe	Fe	0.30068	0.80344	0.01619	0.778
Mof_Br	Br	0.3027	0.8399	0.9342	-0.245
Mof_Br	Br	0.3461	0.8157	0.0936	-0.238
Mof_O 	O 	0.0281	0.9616	0.0501	-1.673
Mof_Br	Br	0.2984	0.8939	0.9908	-0.2
Mof_Br	Br	0.3941	0.8063	0.0344	-0.197
Mof_Zr	Zr	0.48615	0.90735	0.48808	3.24
Mof_O 	O 	0.4323	0.9624	0.4489	0.612
Mof_O 	O 	0.4707	0.87891	0.4112	-0.685
Mof_O 	O 	0.4718	0.94647	0.3574	-0.668
Mof_O 	O 	0.5054	0.59239	0.1232	-0.669
Mof_O 	O 	0.4894	0.6443	0.05519	-0.67
Mof_C 	C 	0.4634	0.7955	0.2446	0.086
Mof_C 	C 	0.4517	0.8445	0.2357	-0.145
Mof_H 	H 	0.4424	0.8545	0.203	0.119
Mof_C 	C 	0.4534	0.8807	0.2745	0.111
Mof_H 	H 	0.4487	0.9152	0.2676	0.04
Mof_C 	C 	0.4622	0.8636	0.3236	-0.185
Mof_C 	C 	0.4684	0.8113	0.3319	0.125
Mof_H 	H 	0.4705	0.7993	0.3652	0.021
Mof_C 	C 	0.4676	0.7547	0.2057	0.102
Mof_C 	C 	0.4618	0.7648	0.1543	-0.156
Mof_H 	H 	0.4532	0.7973	0.1432	0.124
Mof_C 	C 	0.469	0.7262	0.12	0.117
Mof_H 	H 	0.4638	0.7316	0.0854	0.035
Mof_C 	C 	0.4843	0.6784	0.1379	-0.182
Mof_C 	C 	0.4901	0.671	0.19	0.131
Mof_H 	H 	0.5002	0.6395	0.2028	0.016
Mof_C 	C 	0.4688	0.8998	0.3668	0.506
Mof_C 	C 	0.4937	0.6348	0.1022	0.493
Mof_N 	N 	0.4715	0.7778	0.2929	-0.192
Mof_N 	N 	0.4809	0.7097	0.2214	-0.194
Mof_Fe	Fe	0.48381	0.69932	0.30344	0.778
Mof_Br	Br	0.5658	0.6973	0.3399	-0.245
Mof_Br	Br	0.4064	0.6539	0.3157	-0.238
Mof_O 	O 	0.4499	0.9719	0.4616	-1.672
Mof_Br	Br	0.5092	0.7016	0.3939	-0.201
Mof_Br	Br	0.4656	0.6059	0.3063	-0.198
Mof_Zr	Zr	0.51385	0.40735	0.01192	3.24
Mof_O 	O 	0.5677	0.4624	0.0511	0.612
Mof_O 	O 	0.5293	0.37891	0.0888	-0.685
Mof_O 	O 	0.5282	0.44647	0.1426	-0.668
Mof_O 	O 	0.4946	0.09239	0.3768	-0.669
Mof_O 	O 	0.5106	0.1443	0.44481	-0.67
Mof_C 	C 	0.5366	0.2955	0.2554	0.086
Mof_C 	C 	0.5483	0.3445	0.2643	-0.145
Mof_H 	H 	0.5576	0.3545	0.297	0.119
Mof_C 	C 	0.5466	0.3807	0.2255	0.111
Mof_H 	H 	0.5513	0.4152	0.2324	0.04
Mof_C 	C 	0.5378	0.3636	0.1764	-0.185
Mof_C 	C 	0.5316	0.3113	0.1681	0.125
Mof_H 	H 	0.5295	0.2993	0.1348	0.021
Mof_C 	C 	0.5324	0.2547	0.2943	0.102
Mof_C 	C 	0.5382	0.2648	0.3457	-0.156
Mof_H 	H 	0.5468	0.2973	0.3568	0.124
Mof_C 	C 	0.531	0.2262	0.38	0.117
Mof_H 	H 	0.5362	0.2316	0.4146	0.035
Mof_C 	C 	0.5157	0.1784	0.3621	-0.182
Mof_C 	C 	0.5099	0.171	0.31	0.131
Mof_H 	H 	0.4998	0.1395	0.2972	0.016
Mof_C 	C 	0.5312	0.3998	0.1332	0.506
Mof_C 	C 	0.5063	0.1348	0.3978	0.493
Mof_N 	N 	0.5285	0.2778	0.2071	-0.192
Mof_N 	N 	0.5191	0.2097	0.2786	-0.194
Mof_Fe	Fe	0.51619	0.19932	0.19656	0.778
Mof_Br	Br	0.4342	0.1973	0.1601	-0.245
Mof_Br	Br	0.5936	0.1539	0.1843	-0.237
Mof_O 	O 	0.5501	0.4719	0.0384	-1.672
Mof_Br	Br	0.4908	0.2016	0.1061	-0.201
Mof_Br	Br	0.5344	0.1059	0.1937	-0.197
Mof_Zr	Zr	0.98615	0.59265	0.51192	3.24
Mof_O 	O 	0.9323	0.5376	0.5511	0.612
Mof_O 	O 	0.9707	0.62109	0.5888	-0.685
Mof_O 	O 	0.9718	0.55353	0.6426	-0.667
Mof_O 	O 	0.0054	0.90761	0.8768	-0.67
Mof_O 	O 	0.9894	0.8557	0.94481	-0.669
Mof_C 	C 	0.9634	0.7045	0.7554	0.086
Mof_C 	C 	0.9517	0.6555	0.7643	-0.144
Mof_H 	H 	0.9424	0.6455	0.797	0.119
Mof_C 	C 	0.9534	0.6193	0.7255	0.111
Mof_H 	H 	0.9487	0.5848	0.7324	0.04
Mof_C 	C 	0.9622	0.6364	0.6764	-0.185
Mof_C 	C 	0.9684	0.6887	0.6681	0.125
Mof_H 	H 	0.9705	0.7007	0.6348	0.021
Mof_C 	C 	0.9676	0.7453	0.7943	0.102
Mof_C 	C 	0.9618	0.7352	0.8457	-0.157
Mof_H 	H 	0.9532	0.7027	0.8568	0.124
Mof_C 	C 	0.969	0.7738	0.88	0.118
Mof_H 	H 	0.9638	0.7684	0.9146	0.035
Mof_C 	C 	0.9843	0.8216	0.8621	-0.183
Mof_C 	C 	0.9901	0.829	0.81	0.134
Mof_H 	H 	0.0002	0.8605	0.7972	0.014
Mof_C 	C 	0.9688	0.6002	0.6332	0.506
Mof_C 	C 	0.9937	0.8652	0.8978	0.495
Mof_N 	N 	0.9715	0.7222	0.7071	-0.192
Mof_N 	N 	0.9809	0.7903	0.7786	-0.195
Mof_Fe	Fe	0.98381	0.80068	0.69656	0.779
Mof_Br	Br	0.0658	0.8027	0.6601	-0.246
Mof_Br	Br	0.9064	0.8461	0.6843	-0.238
Mof_O 	O 	0.9499	0.5281	0.5384	-1.672
Mof_Br	Br	0.0092	0.7984	0.6061	-0.201
Mof_Br	Br	0.9656	0.8941	0.6937	-0.196
Mof_Zr	Zr	0.01385	0.09265	0.98808	3.24
Mof_O 	O 	0.0677	0.0376	0.9489	0.612
Mof_O 	O 	0.0293	0.12109	0.9112	-0.685
Mof_O 	O 	0.0282	0.05353	0.8574	-0.667
Mof_O 	O 	0.9946	0.40761	0.6232	-0.668
Mof_O 	O 	0.0106	0.3557	0.55519	-0.669
Mof_C 	C 	0.0366	0.2045	0.7446	0.086
Mof_C 	C 	0.0483	0.1555	0.7357	-0.145
Mof_H 	H 	0.0576	0.1455	0.703	0.119
Mof_C 	C 	0.0466	0.1193	0.7745	0.111
Mof_H 	H 	0.0513	0.0848	0.7676	0.04
Mof_C 	C 	0.0378	0.1364	0.8236	-0.185
Mof_C 	C 	0.0316	0.1887	0.8319	0.125
Mof_H 	H 	0.0295	0.2007	0.8652	0.021
Mof_C 	C 	0.0324	0.2453	0.7057	0.102
Mof_C 	C 	0.0382	0.2352	0.6543	-0.156
Mof_H 	H 	0.0468	0.2027	0.6432	0.124
Mof_C 	C 	0.031	0.2738	0.62	0.117
Mof_H 	H 	0.0362	0.2684	0.5854	0.035
Mof_C 	C 	0.0157	0.3216	0.6379	-0.182
Mof_C 	C 	0.0099	0.329	0.69	0.131
Mof_H 	H 	0.9998	0.3605	0.7028	0.016
Mof_C 	C 	0.0312	0.1002	0.8668	0.506
Mof_C 	C 	0.0063	0.3652	0.6022	0.493
Mof_N 	N 	0.0285	0.2222	0.7929	-0.192
Mof_N 	N 	0.0191	0.2903	0.7214	-0.194
Mof_Fe	Fe	0.01619	0.30068	0.80344	0.778
Mof_Br	Br	0.9342	0.3027	0.8399	-0.245
Mof_Br	Br	0.0936	0.3461	0.8157	-0.238
Mof_O 	O 	0.0501	0.0281	0.9616	-1.673
Mof_Br	Br	0.9908	0.2984	0.8939	-0.2
Mof_Br	Br	0.0344	0.3941	0.8063	-0.197
Mof_O 	O 	0.4469	0.5531	0.0531	0.435
Mof_O 	O 	0.4607	0.5393	0.0393	-1.511
Mof_O 	O 	0.0531	0.4469	0.5531	0.435
Mof_O 	O 	0.0393	0.4607	0.5393	-1.511
Mof_O 	O 	0.5531	0.0531	0.4469	0.435
Mof_O 	O 	0.5393	0.0393	0.4607	-1.511
Mof_O 	O 	0.9469	0.9469	0.9469	0.433
Mof_O 	O 	0.9607	0.9607	0.9607	-1.507
Mof_O 	O 	0.5531	0.4469	0.9469	0.435
Mof_O 	O 	0.5393	0.4607	0.9607	-1.511
Mof_O 	O 	0.9469	0.5531	0.4469	0.435
Mof_O 	O 	0.9607	0.5393	0.4607	-1.511
Mof_O 	O 	0.4469	0.9469	0.5531	0.435
Mof_O 	O 	0.4607	0.9607	0.5393	-1.511
Mof_O 	O 	0.0531	0.0531	0.0531	0.433
Mof_O 	O 	0.0393	0.0393	0.0393	-1.507
_end
