data_functionalizedCrystal
_audit_creation_method	'EQeq! by Chris Wilmer'
_symmetry_space_group_name_H-M	'P1'
_symmetry_Int_Tables_number	1
_symmetry_cell_setting	triclinic
loop_
_symmetry_equiv_pos_as_xyz
  x,y,z
_cell_length_a	16.0402
_cell_length_b	16.0402
_cell_length_c	17.7976
_cell_angle_alpha	90
_cell_angle_beta	90
_cell_angle_gamma	120
loop_
_atom_site_label
_atom_site_type_symbol
_atom_site_fract_x
_atom_site_fract_y
_atom_site_fract_z
_atom_site_charge
Mof_C 	C 	0.2711	0.6225	0.1916	0.049
Mof_H 	H 	0.2211	0.5844	0.1572	0.009
Mof_C 	C 	0.3428	0.5947	0.2086	-0.068
Mof_C 	C 	0.3434	0.5206	0.1663	-0.028
Mof_C 	C 	0.4035	0.4871	0.188	0.023
Mof_H 	H 	0.4052	0.4375	0.1601	0.021
Mof_N 	N 	0.46	0.5246	0.24901	-0.202
Mof_H 	H 	0.496	0.5001	0.2624	0.079
Mof_C 	C 	0.4651	0.5964	0.2906	0.104
Mof_C 	C 	0.4058	0.634	0.27	0.115
Mof_C 	C 	0.5277	0.6293	0.3586	-0.419
Mof_H 	H 	0.5611	0.5924	0.3635	0.115
Mof_H 	H 	0.4881	0.6192	0.4033	0.132
Mof_H 	H 	0.5752	0.6979	0.3537	0.142
Mof_C 	C 	0.2834	0.4806	0.0965	0.078
Mof_H 	H 	0.2965	0.4323	0.0732	0.017
Mof_H 	H 	0.2142	0.4484	0.1097	0.005
Mof_C 	C 	0.1976	0.7781	0.2373	0.157
Mof_C 	C 	0.0584	0.7667	0.1714	0.035
Mof_H 	H 	0.0642	0.7268	0.1347	0.005
Mof_C 	C 	0.1142	0.8599	0.2853	0.033
Mof_H 	H 	0.1599	0.8864	0.3249	0.025
Mof_C 	C 	0.9842	0.7869	0.1668	-0.261
Mof_H 	H 	0.9415	0.7648	0.1251	-0.295
Mof_C 	C 	0.9725	0.8397	0.2235	0.174
Mof_H 	H 	0.9197	0.8508	0.2213	-0.042
Mof_C 	C 	0.0356	0.8763	0.2829	-0.143
Mof_H 	H 	0.0264	0.9119	0.3215	0.056
Mof_C 	C 	0.1244	0.805	0.2298	0.068
Mof_N 	N 	0.1966	0.7104	0.20183	-0.132
Mof_N 	N 	0.2728	0.6967	0.2213	-0.16
Mof_O 	O 	0.2813	0.8412	0.28036	-0.382
Mof_O 	O 	0.4094	0.7025	0.31384	-0.398
Mof_O 	O 	0.30616	0.55766	0.04405	-0.377
Mof_H 	H 	0.3705	0.6072	0.0409	0.18
Mof_Mo	Mo	0.38065	0.80508	0.30019	0.984
Mof_C 	C 	0.2195	0.7983	0.2323	0.026
Mof_C 	C 	0.1573	0.8398	0.2164	-0.127
Mof_C 	C 	0.1748	0.9268	0.2469	-0.056
Mof_H 	H 	0.2284	0.9624	0.2791	0.047
Mof_C 	C 	0.1135	0.9609	0.23	0.059
Mof_H 	H 	0.127	0.0208	0.251	0.002
Mof_C 	C 	0.0363	0.915	0.1859	-0.141
Mof_H 	H 	0.9957	0.9408	0.1752	0.054
Mof_C 	C 	0.0192	0.8309	0.1577	-0.023
Mof_H 	H 	0.9644	0.7964	0.1264	0.44
Mof_C 	C 	0.0764	0.7912	0.1712	0.017
Mof_H 	H 	0.0606	0.7309	0.1497	0.006
Mof_C 	C 	0.3775	0.6486	0.85827	0.049
Mof_H 	H 	0.4156	0.6367	0.82387	0.009
Mof_C 	C 	0.4053	0.7481	0.87527	-0.068
Mof_C 	C 	0.4794	0.8228	0.83297	-0.028
Mof_C 	C 	0.5129	0.9164	0.85467	0.022
Mof_H 	H 	0.5625	0.9677	0.82677	0.021
Mof_N 	N 	0.4754	0.9354	0.91568	-0.202
Mof_H 	H 	0.4999	0.9959	0.92907	0.079
Mof_C 	C 	0.4036	0.8687	0.95727	0.103
Mof_C 	C 	0.366	0.7718	0.93667	0.116
Mof_C 	C 	0.3707	0.8984	0.02527	-0.417
Mof_H 	H 	0.4076	0.9687	0.03017	0.115
Mof_H 	H 	0.3808	0.8689	0.06997	0.132
Mof_H 	H 	0.3021	0.8773	0.02037	0.142
Mof_C 	C 	0.5194	0.8028	0.76317	0.078
Mof_H 	H 	0.5677	0.8642	0.73987	0.016
Mof_H 	H 	0.5516	0.7658	0.77637	0.005
Mof_C 	C 	0.2219	0.4195	0.90397	0.157
Mof_C 	C 	0.2333	0.2917	0.83807	0.035
Mof_H 	H 	0.2732	0.3374	0.80137	0.005
Mof_C 	C 	0.1401	0.2543	0.95197	0.034
Mof_H 	H 	0.1136	0.2735	0.99157	0.025
Mof_C 	C 	0.2131	0.1973	0.83347	-0.263
Mof_H 	H 	0.2352	0.1767	0.79177	-0.294
Mof_C 	C 	0.1603	0.1328	0.89017	0.177
Mof_H 	H 	0.1492	0.0689	0.88797	-0.043
Mof_C 	C 	0.1237	0.1593	0.94957	-0.145
Mof_H 	H 	0.0881	0.1145	0.98817	0.057
Mof_C 	C 	0.195	0.3194	0.89647	0.067
Mof_N 	N 	0.2896	0.4862	0.8685	-0.132
Mof_N 	N 	0.3033	0.5761	0.88797	-0.16
Mof_O 	O 	0.1588	0.4401	0.94703	-0.382
Mof_O 	O 	0.2975	0.7069	0.98051	-0.399
Mof_O 	O 	0.44234	0.7485	0.71072	-0.377
Mof_H 	H 	0.3928	0.7633	0.70757	0.18
Mof_Mo	Mo	0.19492	0.57557	0.96686	0.983
Mof_C 	C 	0.2017	0.4212	0.89897	0.026
Mof_C 	C 	0.1602	0.3175	0.88307	-0.127
Mof_C 	C 	0.0732	0.248	0.91357	-0.056
Mof_H 	H 	0.0376	0.266	0.94577	0.047
Mof_C 	C 	0.0391	0.1526	0.89667	0.057
Mof_H 	H 	0.9792	0.1062	0.91767	0.003
Mof_C 	C 	0.085	0.1213	0.85257	-0.144
Mof_H 	H 	0.0592	0.0549	0.84187	0.055
Mof_C 	C 	0.1691	0.1883	0.82437	-0.021
Mof_H 	H 	0.2036	0.168	0.79307	0.439
Mof_C 	C 	0.2088	0.2852	0.83787	0.017
Mof_H 	H 	0.2691	0.3297	0.81637	0.005
Mof_C 	C 	0.3514	0.7289	0.52493	0.049
Mof_H 	H 	0.3633	0.7789	0.49053	0.009
Mof_C 	C 	0.2519	0.6572	0.54193	-0.068
Mof_C 	C 	0.1772	0.6566	0.49963	-0.028
Mof_C 	C 	0.0836	0.5965	0.52133	0.023
Mof_H 	H 	0.0323	0.5948	0.49343	0.021
Mof_N 	N 	0.0646	0.54	0.58234	-0.202
Mof_H 	H 	0.0041	0.504	0.59573	0.079
Mof_C 	C 	0.1313	0.5349	0.62393	0.104
Mof_C 	C 	0.2282	0.5942	0.60333	0.115
Mof_C 	C 	0.1016	0.4723	0.69193	-0.419
Mof_H 	H 	0.0313	0.4389	0.69683	0.115
Mof_H 	H 	0.1311	0.5119	0.73663	0.132
Mof_H 	H 	0.1227	0.4248	0.68703	0.141
Mof_C 	C 	0.1972	0.7166	0.42983	0.078
Mof_H 	H 	0.1358	0.7035	0.40653	0.017
Mof_H 	H 	0.2342	0.7858	0.44303	0.005
Mof_C 	C 	0.5805	0.8024	0.57063	0.157
Mof_C 	C 	0.7083	0.9416	0.50473	0.036
Mof_H 	H 	0.6626	0.9358	0.46803	0.004
Mof_C 	C 	0.7457	0.8858	0.61863	0.035
Mof_H 	H 	0.7265	0.8401	0.65823	0.025
Mof_C 	C 	0.8027	0.0158	0.50013	-0.265
Mof_H 	H 	0.8233	0.0585	0.45843	-0.298
Mof_C 	C 	0.8672	0.0275	0.55683	0.18
Mof_H 	H 	0.9311	0.0803	0.55463	-0.044
Mof_C 	C 	0.8407	0.9644	0.61623	-0.148
Mof_H 	H 	0.8855	0.9736	0.65483	0.059
Mof_C 	C 	0.6806	0.8756	0.56313	0.07
Mof_N 	N 	0.5138	0.8034	0.53516	-0.132
Mof_N 	N 	0.4239	0.7272	0.55463	-0.16
Mof_O 	O 	0.5599	0.7187	0.61369	-0.382
Mof_O 	O 	0.2931	0.5906	0.64717	-0.398
Mof_O 	O 	0.2515	0.69384	0.37738	-0.377
Mof_H 	H 	0.2367	0.6295	0.37423	0.18
Mof_Mo	Mo	0.42443	0.61935	0.63352	0.983
Mof_C 	C 	0.5788	0.7805	0.56563	0.026
Mof_C 	C 	0.6825	0.8427	0.54973	-0.13
Mof_C 	C 	0.752	0.8252	0.58023	-0.057
Mof_H 	H 	0.734	0.7716	0.61243	0.047
Mof_C 	C 	0.8474	0.8865	0.56333	0.061
Mof_H 	H 	0.8938	0.873	0.58433	0.001
Mof_C 	C 	0.8787	0.9637	0.51923	-0.146
Mof_H 	H 	0.9451	0.0043	0.50853	0.056
Mof_C 	C 	0.8117	0.9808	0.49103	-0.022
Mof_H 	H 	0.832	0.0356	0.45973	0.444
Mof_C 	C 	0.7148	0.9236	0.50453	0.017
Mof_H 	H 	0.6703	0.9394	0.48303	0.006
Mof_C 	C 	0.6225	0.2711	0.8084	0.049
Mof_H 	H 	0.5844	0.2211	0.8428	0.009
Mof_C 	C 	0.5947	0.3428	0.7914	-0.068
Mof_C 	C 	0.5206	0.3434	0.8337	-0.028
Mof_C 	C 	0.4871	0.4035	0.812	0.023
Mof_H 	H 	0.4375	0.4052	0.8399	0.021
Mof_N 	N 	0.5246	0.46	0.75099	-0.202
Mof_H 	H 	0.5001	0.496	0.7376	0.079
Mof_C 	C 	0.5964	0.4651	0.7094	0.104
Mof_C 	C 	0.634	0.4058	0.73	0.115
Mof_C 	C 	0.6293	0.5277	0.6414	-0.419
Mof_H 	H 	0.5924	0.5611	0.6365	0.115
Mof_H 	H 	0.6192	0.4881	0.5967	0.132
Mof_H 	H 	0.6979	0.5752	0.6463	0.142
Mof_C 	C 	0.4806	0.2834	0.9035	0.078
Mof_H 	H 	0.4323	0.2965	0.9268	0.017
Mof_H 	H 	0.4484	0.2142	0.8903	0.005
Mof_C 	C 	0.7781	0.1976	0.7627	0.157
Mof_C 	C 	0.7667	0.0584	0.8286	0.035
Mof_H 	H 	0.7268	0.0642	0.8653	0.005
Mof_C 	C 	0.8599	0.1142	0.7147	0.033
Mof_H 	H 	0.8864	0.1599	0.6751	0.025
Mof_C 	C 	0.7869	0.9842	0.8332	-0.261
Mof_H 	H 	0.7648	0.9415	0.8749	-0.295
Mof_C 	C 	0.8397	0.9725	0.7765	0.174
Mof_H 	H 	0.8508	0.9197	0.7787	-0.042
Mof_C 	C 	0.8763	0.0356	0.7171	-0.143
Mof_H 	H 	0.9119	0.0264	0.6785	0.056
Mof_C 	C 	0.805	0.1244	0.7702	0.068
Mof_N 	N 	0.7104	0.1966	0.79817	-0.132
Mof_N 	N 	0.6967	0.2728	0.7787	-0.16
Mof_O 	O 	0.8412	0.2813	0.71964	-0.382
Mof_O 	O 	0.7025	0.4094	0.68616	-0.398
Mof_O 	O 	0.55766	0.30616	0.95595	-0.377
Mof_H 	H 	0.6072	0.3705	0.9591	0.18
Mof_Mo	Mo	0.80508	0.38065	0.69981	0.984
Mof_C 	C 	0.7983	0.2195	0.7677	0.026
Mof_C 	C 	0.8398	0.1573	0.7836	-0.127
Mof_C 	C 	0.9268	0.1748	0.7531	-0.056
Mof_H 	H 	0.9624	0.2284	0.7209	0.047
Mof_C 	C 	0.9609	0.1135	0.77	0.059
Mof_H 	H 	0.0208	0.127	0.749	0.002
Mof_C 	C 	0.915	0.0363	0.8141	-0.141
Mof_H 	H 	0.9408	0.9957	0.8248	0.054
Mof_C 	C 	0.8309	0.0192	0.8423	-0.023
Mof_H 	H 	0.7964	0.9644	0.8736	0.44
Mof_C 	C 	0.7912	0.0764	0.8288	0.017
Mof_H 	H 	0.7309	0.0606	0.8503	0.006
Mof_C 	C 	0.6486	0.3775	0.14173	0.049
Mof_H 	H 	0.6367	0.4156	0.17613	0.009
Mof_C 	C 	0.7481	0.4053	0.12473	-0.068
Mof_C 	C 	0.8228	0.4794	0.16703	-0.028
Mof_C 	C 	0.9164	0.5129	0.14533	0.022
Mof_H 	H 	0.9677	0.5625	0.17323	0.021
Mof_N 	N 	0.9354	0.4754	0.08432	-0.202
Mof_H 	H 	0.9959	0.4999	0.07093	0.079
Mof_C 	C 	0.8687	0.4036	0.04273	0.103
Mof_C 	C 	0.7718	0.366	0.06333	0.116
Mof_C 	C 	0.8984	0.3707	0.97473	-0.417
Mof_H 	H 	0.9687	0.4076	0.96983	0.115
Mof_H 	H 	0.8689	0.3808	0.93003	0.132
Mof_H 	H 	0.8773	0.3021	0.97963	0.142
Mof_C 	C 	0.8028	0.5194	0.23683	0.078
Mof_H 	H 	0.8642	0.5677	0.26013	0.016
Mof_H 	H 	0.7658	0.5516	0.22363	0.005
Mof_C 	C 	0.4195	0.2219	0.09603	0.157
Mof_C 	C 	0.2917	0.2333	0.16193	0.035
Mof_H 	H 	0.3374	0.2732	0.19863	0.005
Mof_C 	C 	0.2543	0.1401	0.04803	0.034
Mof_H 	H 	0.2735	0.1136	0.00843	0.025
Mof_C 	C 	0.1973	0.2131	0.16653	-0.263
Mof_H 	H 	0.1767	0.2352	0.20823	-0.294
Mof_C 	C 	0.1328	0.1603	0.10983	0.177
Mof_H 	H 	0.0689	0.1492	0.11203	-0.043
Mof_C 	C 	0.1593	0.1237	0.05043	-0.145
Mof_H 	H 	0.1145	0.0881	0.01183	0.057
Mof_C 	C 	0.3194	0.195	0.10353	0.067
Mof_N 	N 	0.4862	0.2896	0.1315	-0.132
Mof_N 	N 	0.5761	0.3033	0.11203	-0.16
Mof_O 	O 	0.4401	0.1588	0.05297	-0.382
Mof_O 	O 	0.7069	0.2975	0.01949	-0.399
Mof_O 	O 	0.7485	0.44234	0.28928	-0.377
Mof_H 	H 	0.7633	0.3928	0.29243	0.18
Mof_Mo	Mo	0.57557	0.19492	0.03314	0.983
Mof_C 	C 	0.4212	0.2017	0.10103	0.026
Mof_C 	C 	0.3175	0.1602	0.11693	-0.127
Mof_C 	C 	0.248	0.0732	0.08643	-0.056
Mof_H 	H 	0.266	0.0376	0.05423	0.047
Mof_C 	C 	0.1526	0.0391	0.10333	0.057
Mof_H 	H 	0.1062	0.9792	0.08233	0.003
Mof_C 	C 	0.1213	0.085	0.14743	-0.144
Mof_H 	H 	0.0549	0.0592	0.15813	0.055
Mof_C 	C 	0.1883	0.1691	0.17563	-0.021
Mof_H 	H 	0.168	0.2036	0.20693	0.439
Mof_C 	C 	0.2852	0.2088	0.16213	0.017
Mof_H 	H 	0.3297	0.2691	0.18363	0.005
Mof_C 	C 	0.7289	0.3514	0.47507	0.049
Mof_H 	H 	0.7789	0.3633	0.50947	0.009
Mof_C 	C 	0.6572	0.2519	0.45807	-0.068
Mof_C 	C 	0.6566	0.1772	0.50037	-0.028
Mof_C 	C 	0.5965	0.0836	0.47867	0.023
Mof_H 	H 	0.5948	0.0323	0.50657	0.021
Mof_N 	N 	0.54	0.0646	0.41766	-0.202
Mof_H 	H 	0.504	0.0041	0.40427	0.079
Mof_C 	C 	0.5349	0.1313	0.37607	0.104
Mof_C 	C 	0.5942	0.2282	0.39667	0.115
Mof_C 	C 	0.4723	0.1016	0.30807	-0.419
Mof_H 	H 	0.4389	0.0313	0.30317	0.115
Mof_H 	H 	0.5119	0.1311	0.26337	0.132
Mof_H 	H 	0.4248	0.1227	0.31297	0.141
Mof_C 	C 	0.7166	0.1972	0.57017	0.078
Mof_H 	H 	0.7035	0.1358	0.59347	0.017
Mof_H 	H 	0.7858	0.2342	0.55697	0.005
Mof_C 	C 	0.8024	0.5805	0.42937	0.157
Mof_C 	C 	0.9416	0.7083	0.49527	0.036
Mof_H 	H 	0.9358	0.6626	0.53197	0.004
Mof_C 	C 	0.8858	0.7457	0.38137	0.035
Mof_H 	H 	0.8401	0.7265	0.34177	0.025
Mof_C 	C 	0.0158	0.8027	0.49987	-0.265
Mof_H 	H 	0.0585	0.8233	0.54157	-0.298
Mof_C 	C 	0.0275	0.8672	0.44317	0.18
Mof_H 	H 	0.0803	0.9311	0.44537	-0.044
Mof_C 	C 	0.9644	0.8407	0.38377	-0.148
Mof_H 	H 	0.9736	0.8855	0.34517	0.059
Mof_C 	C 	0.8756	0.6806	0.43687	0.07
Mof_N 	N 	0.8034	0.5138	0.46484	-0.132
Mof_N 	N 	0.7272	0.4239	0.44537	-0.16
Mof_O 	O 	0.7187	0.5599	0.38631	-0.382
Mof_O 	O 	0.5906	0.2931	0.35283	-0.398
Mof_O 	O 	0.69384	0.2515	0.62262	-0.377
Mof_H 	H 	0.6295	0.2367	0.62577	0.18
Mof_Mo	Mo	0.61935	0.42443	0.36648	0.983
Mof_C 	C 	0.7805	0.5788	0.43437	0.026
Mof_C 	C 	0.8427	0.6825	0.45027	-0.13
Mof_C 	C 	0.8252	0.752	0.41977	-0.057
Mof_H 	H 	0.7716	0.734	0.38757	0.047
Mof_C 	C 	0.8865	0.8474	0.43667	0.061
Mof_H 	H 	0.873	0.8938	0.41567	0.001
Mof_C 	C 	0.9637	0.8787	0.48077	-0.146
Mof_H 	H 	0.0043	0.9451	0.49147	0.056
Mof_C 	C 	0.9808	0.8117	0.50897	-0.022
Mof_H 	H 	0.0356	0.832	0.54027	0.444
Mof_C 	C 	0.9236	0.7148	0.49547	0.017
Mof_H 	H 	0.9394	0.6703	0.51697	0.006
_end
