data_functionalizedCrystal
_audit_creation_method	'EQeq! by Chris Wilmer'
_symmetry_space_group_name_H-M	'P1'
_symmetry_Int_Tables_number	1
_symmetry_cell_setting	triclinic
loop_
_symmetry_equiv_pos_as_xyz
  x,y,z
_cell_length_a	22.963
_cell_length_b	22.963
_cell_length_c	34.546
_cell_angle_alpha	90
_cell_angle_beta	90
_cell_angle_gamma	90
loop_
_atom_site_label
_atom_site_type_symbol
_atom_site_fract_x
_atom_site_fract_y
_atom_site_fract_z
_atom_site_charge
Mof_N 	N 	0.23307	0.0893	0.6381	-0.205
Mof_C 	C 	0.2155	0.1227	0.66703	0.108
Mof_H 	H 	0.2433	0.1448	0.68	-0.024
Mof_C 	C 	0.1588	0.1267	0.67894	-0.181
Mof_H 	H 	0.1491	0.151	0.6995	0.094
Mof_C 	C 	0.11565	0.0943	0.66027	0.114
Mof_C 	C 	0.1343	0.0603	0.62941	-0.185
Mof_H 	H 	0.1078	0.0385	0.6152	0.095
Mof_C 	C 	0.1926	0.0593	0.62018	0.114
Mof_H 	H 	0.2042	0.0356	0.5997	-0.019
Mof_C 	C 	0.05417	0.09645	0.67219	-0.04
Mof_C 	C 	0.03119	0.10155	0.70862	-0.027
Mof_C 	C 	0.06515	0.1004	0.74531	0.109
Mof_C 	C 	0.088	0.0501	0.75954	-0.183
Mof_H 	H 	0.0846	0.016	0.7452	0.094
Mof_C 	C 	0.1156	0.0487	0.79415	0.106
Mof_H 	H 	0.13	0.0131	0.8027	-0.02
Mof_N 	N 	0.34535	0.12659	0.56701	-0.213
Mof_C 	C 	0.3954	0.1479	0.55312	0.101
Mof_H 	H 	0.4291	0.1429	0.5677	-0.027
Mof_C 	C 	0.0733	0.1495	0.76832	-0.178
Mof_H 	H 	0.059	0.1853	0.7601	0.085
Mof_N 	N 	0.73307	0.5893	0.1381	-0.206
Mof_C 	C 	0.7155	0.6227	0.16703	0.107
Mof_H 	H 	0.7433	0.6448	0.18	-0.025
Mof_C 	C 	0.6588	0.6267	0.17894	-0.182
Mof_H 	H 	0.6491	0.651	0.1995	0.093
Mof_C 	C 	0.61565	0.5943	0.16027	0.113
Mof_C 	C 	0.6343	0.5603	0.12941	-0.186
Mof_H 	H 	0.6078	0.5385	0.1152	0.094
Mof_C 	C 	0.6926	0.5593	0.12018	0.113
Mof_H 	H 	0.7042	0.5356	0.0997	-0.02
Mof_C 	C 	0.55417	0.59645	0.17219	-0.041
Mof_C 	C 	0.53119	0.60155	0.20862	-0.028
Mof_C 	C 	0.56515	0.6004	0.24531	0.108
Mof_C 	C 	0.588	0.5501	0.25954	-0.184
Mof_H 	H 	0.5846	0.516	0.2452	0.093
Mof_C 	C 	0.6156	0.5487	0.29415	0.105
Mof_H 	H 	0.63	0.5131	0.3027	-0.021
Mof_N 	N 	0.84535	0.62659	0.06701	-0.214
Mof_C 	C 	0.8954	0.6479	0.05312	0.1
Mof_H 	H 	0.9291	0.6429	0.0677	-0.028
Mof_C 	C 	0.5733	0.6495	0.26832	-0.179
Mof_H 	H 	0.559	0.6853	0.2601	0.084
Mof_N 	N 	0.26693	0.9107	0.1381	-0.206
Mof_C 	C 	0.2845	0.8773	0.16703	0.107
Mof_H 	H 	0.2567	0.8552	0.18	-0.025
Mof_C 	C 	0.3412	0.8733	0.17894	-0.182
Mof_H 	H 	0.3509	0.849	0.1995	0.093
Mof_C 	C 	0.38435	0.9057	0.16027	0.113
Mof_C 	C 	0.3657	0.9397	0.12941	-0.186
Mof_H 	H 	0.3922	0.9615	0.1152	0.094
Mof_C 	C 	0.3074	0.9407	0.12018	0.113
Mof_H 	H 	0.2958	0.9644	0.0997	-0.02
Mof_C 	C 	0.44583	0.90355	0.17219	-0.041
Mof_C 	C 	0.46881	0.89845	0.20862	-0.028
Mof_C 	C 	0.43485	0.8996	0.24531	0.108
Mof_C 	C 	0.412	0.9499	0.25954	-0.184
Mof_H 	H 	0.4154	0.984	0.2452	0.093
Mof_C 	C 	0.3844	0.9513	0.29415	0.105
Mof_H 	H 	0.37	0.9869	0.3027	-0.021
Mof_N 	N 	0.15465	0.87341	0.06701	-0.214
Mof_C 	C 	0.1046	0.8521	0.05312	0.1
Mof_H 	H 	0.0709	0.8571	0.0677	-0.027
Mof_C 	C 	0.4267	0.8505	0.26832	-0.179
Mof_H 	H 	0.441	0.8147	0.2601	0.084
Mof_N 	N 	0.76693	0.4107	0.6381	-0.206
Mof_C 	C 	0.7845	0.3773	0.66703	0.107
Mof_H 	H 	0.7567	0.3552	0.68	-0.025
Mof_C 	C 	0.8412	0.3733	0.67894	-0.182
Mof_H 	H 	0.8509	0.349	0.6995	0.093
Mof_C 	C 	0.88435	0.4057	0.66027	0.113
Mof_C 	C 	0.8657	0.4397	0.62941	-0.186
Mof_H 	H 	0.8922	0.4615	0.6152	0.094
Mof_C 	C 	0.8074	0.4407	0.62018	0.113
Mof_H 	H 	0.7958	0.4644	0.5997	-0.021
Mof_C 	C 	0.94583	0.40355	0.67219	-0.041
Mof_C 	C 	0.96881	0.39845	0.70862	-0.029
Mof_C 	C 	0.93485	0.3996	0.74531	0.108
Mof_C 	C 	0.912	0.4499	0.75954	-0.184
Mof_H 	H 	0.9154	0.484	0.7452	0.093
Mof_C 	C 	0.8844	0.4513	0.79415	0.105
Mof_H 	H 	0.87	0.4869	0.8027	-0.021
Mof_N 	N 	0.65465	0.37341	0.56701	-0.214
Mof_C 	C 	0.6046	0.3521	0.55312	0.1
Mof_H 	H 	0.5709	0.3571	0.5677	-0.028
Mof_C 	C 	0.9267	0.3505	0.76832	-0.179
Mof_H 	H 	0.941	0.3147	0.7601	0.084
Mof_N 	N 	0.1607	0.98307	0.8881	-0.206
Mof_C 	C 	0.1273	0.9655	0.91703	0.107
Mof_H 	H 	0.1052	0.9933	0.93	-0.025
Mof_C 	C 	0.1233	0.9088	0.92894	-0.182
Mof_H 	H 	0.099	0.8991	0.9495	0.093
Mof_C 	C 	0.1557	0.86565	0.91027	0.113
Mof_C 	C 	0.1897	0.8843	0.87941	-0.186
Mof_H 	H 	0.2115	0.8578	0.8652	0.094
Mof_C 	C 	0.1907	0.9426	0.87018	0.113
Mof_H 	H 	0.2144	0.9542	0.8497	-0.02
Mof_C 	C 	0.15355	0.80417	0.92219	-0.041
Mof_C 	C 	0.14845	0.78119	0.95862	-0.028
Mof_C 	C 	0.1496	0.81515	0.99531	0.108
Mof_C 	C 	0.1999	0.838	0.00954	-0.183
Mof_H 	H 	0.234	0.8346	0.9952	0.093
Mof_C 	C 	0.2013	0.8656	0.04415	0.105
Mof_H 	H 	0.2369	0.88	0.0527	-0.021
Mof_N 	N 	0.12341	0.09535	0.81701	-0.214
Mof_C 	C 	0.1021	0.1454	0.80312	0.1
Mof_H 	H 	0.1071	0.1791	0.8177	-0.027
Mof_C 	C 	0.1005	0.8233	0.01832	-0.179
Mof_H 	H 	0.0647	0.809	0.0101	0.084
Mof_N 	N 	0.6607	0.48307	0.3881	-0.206
Mof_C 	C 	0.6273	0.4655	0.41703	0.107
Mof_H 	H 	0.6052	0.4933	0.43	-0.025
Mof_C 	C 	0.6233	0.4088	0.42894	-0.182
Mof_H 	H 	0.599	0.3991	0.4495	0.093
Mof_C 	C 	0.6557	0.36565	0.41027	0.113
Mof_C 	C 	0.6897	0.3843	0.37941	-0.186
Mof_H 	H 	0.7115	0.3578	0.3652	0.094
Mof_C 	C 	0.6907	0.4426	0.37018	0.113
Mof_H 	H 	0.7144	0.4542	0.3497	-0.02
Mof_C 	C 	0.65355	0.30417	0.42219	-0.041
Mof_C 	C 	0.64845	0.28119	0.45862	-0.028
Mof_C 	C 	0.6496	0.31515	0.49531	0.108
Mof_C 	C 	0.6999	0.338	0.50954	-0.184
Mof_H 	H 	0.734	0.3346	0.4952	0.093
Mof_C 	C 	0.7013	0.3656	0.54415	0.105
Mof_H 	H 	0.7369	0.38	0.5527	-0.021
Mof_N 	N 	0.62341	0.59535	0.31701	-0.214
Mof_C 	C 	0.6021	0.6454	0.30312	0.1
Mof_H 	H 	0.6071	0.6791	0.3177	-0.028
Mof_C 	C 	0.6005	0.3233	0.51832	-0.179
Mof_H 	H 	0.5647	0.309	0.5101	0.084
Mof_N 	N 	0.3393	0.01693	0.3881	-0.206
Mof_C 	C 	0.3727	0.0345	0.41703	0.107
Mof_H 	H 	0.3948	0.0067	0.43	-0.025
Mof_C 	C 	0.3767	0.0912	0.42894	-0.182
Mof_H 	H 	0.401	0.1009	0.4495	0.093
Mof_C 	C 	0.3443	0.13435	0.41027	0.113
Mof_C 	C 	0.3103	0.1157	0.37941	-0.186
Mof_H 	H 	0.2885	0.1422	0.3652	0.094
Mof_C 	C 	0.3093	0.0574	0.37018	0.113
Mof_H 	H 	0.2856	0.0458	0.3497	-0.02
Mof_C 	C 	0.34645	0.19583	0.42219	-0.041
Mof_C 	C 	0.35155	0.21881	0.45862	-0.028
Mof_C 	C 	0.3504	0.18485	0.49531	0.108
Mof_C 	C 	0.3001	0.162	0.50954	-0.184
Mof_H 	H 	0.266	0.1654	0.4952	0.093
Mof_C 	C 	0.2987	0.1344	0.54415	0.105
Mof_H 	H 	0.2631	0.12	0.5527	-0.021
Mof_N 	N 	0.37659	0.90465	0.31701	-0.214
Mof_C 	C 	0.3979	0.8546	0.30312	0.1
Mof_H 	H 	0.3929	0.8209	0.3177	-0.028
Mof_C 	C 	0.3995	0.1767	0.51832	-0.179
Mof_H 	H 	0.4353	0.191	0.5101	0.084
Mof_N 	N 	0.8393	0.51693	0.8881	-0.206
Mof_C 	C 	0.8727	0.5345	0.91703	0.107
Mof_H 	H 	0.8948	0.5067	0.93	-0.025
Mof_C 	C 	0.8767	0.5912	0.92894	-0.182
Mof_H 	H 	0.901	0.6009	0.9495	0.093
Mof_C 	C 	0.8443	0.63435	0.91027	0.113
Mof_C 	C 	0.8103	0.6157	0.87941	-0.186
Mof_H 	H 	0.7885	0.6422	0.8652	0.094
Mof_C 	C 	0.8093	0.5574	0.87018	0.113
Mof_H 	H 	0.7856	0.5458	0.8497	-0.02
Mof_C 	C 	0.84645	0.69583	0.92219	-0.041
Mof_C 	C 	0.85155	0.71881	0.95862	-0.028
Mof_C 	C 	0.8504	0.68485	0.99531	0.108
Mof_C 	C 	0.8001	0.662	0.00954	-0.184
Mof_H 	H 	0.766	0.6654	0.9952	0.093
Mof_C 	C 	0.7987	0.6344	0.04415	0.105
Mof_H 	H 	0.7631	0.62	0.0527	-0.021
Mof_N 	N 	0.87659	0.40465	0.81701	-0.214
Mof_C 	C 	0.8979	0.3546	0.80312	0.1
Mof_H 	H 	0.8929	0.3209	0.8177	-0.028
Mof_C 	C 	0.8995	0.6767	0.01832	-0.179
Mof_H 	H 	0.9353	0.691	0.0101	0.084
Mof_N 	N 	0.26693	0.0893	0.8619	-0.206
Mof_C 	C 	0.2845	0.1227	0.83297	0.107
Mof_H 	H 	0.2567	0.1448	0.82	-0.025
Mof_C 	C 	0.3412	0.1267	0.82106	-0.182
Mof_H 	H 	0.3509	0.151	0.8005	0.093
Mof_C 	C 	0.38435	0.0943	0.83973	0.113
Mof_C 	C 	0.3657	0.0603	0.87059	-0.186
Mof_H 	H 	0.3922	0.0385	0.8848	0.094
Mof_C 	C 	0.3074	0.0593	0.87982	0.113
Mof_H 	H 	0.2958	0.0356	0.9003	-0.02
Mof_C 	C 	0.44583	0.09645	0.82781	-0.041
Mof_C 	C 	0.46881	0.10155	0.79138	-0.028
Mof_C 	C 	0.43485	0.1004	0.75469	0.108
Mof_C 	C 	0.412	0.0501	0.74046	-0.184
Mof_H 	H 	0.4154	0.016	0.7548	0.093
Mof_C 	C 	0.3844	0.0487	0.70585	0.105
Mof_H 	H 	0.37	0.0131	0.6973	-0.021
Mof_N 	N 	0.15465	0.12659	0.93299	-0.214
Mof_C 	C 	0.1046	0.1479	0.94688	0.1
Mof_H 	H 	0.0709	0.1429	0.9323	-0.027
Mof_C 	C 	0.4267	0.1495	0.73168	-0.179
Mof_H 	H 	0.441	0.1853	0.7399	0.084
Mof_N 	N 	0.76693	0.5893	0.3619	-0.206
Mof_C 	C 	0.7845	0.6227	0.33297	0.107
Mof_H 	H 	0.7567	0.6448	0.32	-0.025
Mof_C 	C 	0.8412	0.6267	0.32106	-0.182
Mof_H 	H 	0.8509	0.651	0.3005	0.093
Mof_C 	C 	0.88435	0.5943	0.33973	0.113
Mof_C 	C 	0.8657	0.5603	0.37059	-0.186
Mof_H 	H 	0.8922	0.5385	0.3848	0.094
Mof_C 	C 	0.8074	0.5593	0.37982	0.113
Mof_H 	H 	0.7958	0.5356	0.4003	-0.021
Mof_C 	C 	0.94583	0.59645	0.32781	-0.041
Mof_C 	C 	0.96881	0.60155	0.29138	-0.029
Mof_C 	C 	0.93485	0.6004	0.25469	0.108
Mof_C 	C 	0.912	0.5501	0.24046	-0.184
Mof_H 	H 	0.9154	0.516	0.2548	0.093
Mof_C 	C 	0.8844	0.5487	0.20585	0.105
Mof_H 	H 	0.87	0.5131	0.1973	-0.021
Mof_N 	N 	0.65465	0.62659	0.43299	-0.214
Mof_C 	C 	0.6046	0.6479	0.44688	0.1
Mof_H 	H 	0.5709	0.6429	0.4323	-0.028
Mof_C 	C 	0.9267	0.6495	0.23168	-0.179
Mof_H 	H 	0.941	0.6853	0.2399	0.084
Mof_N 	N 	0.23307	0.9107	0.3619	-0.206
Mof_C 	C 	0.2155	0.8773	0.33297	0.107
Mof_H 	H 	0.2433	0.8552	0.32	-0.025
Mof_C 	C 	0.1588	0.8733	0.32106	-0.182
Mof_H 	H 	0.1491	0.849	0.3005	0.093
Mof_C 	C 	0.11565	0.9057	0.33973	0.113
Mof_C 	C 	0.1343	0.9397	0.37059	-0.186
Mof_H 	H 	0.1078	0.9615	0.3848	0.094
Mof_C 	C 	0.1926	0.9407	0.37982	0.113
Mof_H 	H 	0.2042	0.9644	0.4003	-0.02
Mof_C 	C 	0.05417	0.90355	0.32781	-0.041
Mof_C 	C 	0.03119	0.89845	0.29138	-0.028
Mof_C 	C 	0.06515	0.8996	0.25469	0.108
Mof_C 	C 	0.088	0.9499	0.24046	-0.184
Mof_H 	H 	0.0846	0.984	0.2548	0.093
Mof_C 	C 	0.1156	0.9513	0.20585	0.105
Mof_H 	H 	0.13	0.9869	0.1973	-0.021
Mof_N 	N 	0.34535	0.87341	0.43299	-0.214
Mof_C 	C 	0.3954	0.8521	0.44688	0.1
Mof_H 	H 	0.4291	0.8571	0.4323	-0.028
Mof_C 	C 	0.0733	0.8505	0.23168	-0.179
Mof_H 	H 	0.059	0.8147	0.2399	0.084
Mof_N 	N 	0.73307	0.4107	0.8619	-0.206
Mof_C 	C 	0.7155	0.3773	0.83297	0.107
Mof_H 	H 	0.7433	0.3552	0.82	-0.025
Mof_C 	C 	0.6588	0.3733	0.82106	-0.182
Mof_H 	H 	0.6491	0.349	0.8005	0.093
Mof_C 	C 	0.61565	0.4057	0.83973	0.113
Mof_C 	C 	0.6343	0.4397	0.87059	-0.186
Mof_H 	H 	0.6078	0.4615	0.8848	0.094
Mof_C 	C 	0.6926	0.4407	0.87982	0.113
Mof_H 	H 	0.7042	0.4644	0.9003	-0.02
Mof_C 	C 	0.55417	0.40355	0.82781	-0.041
Mof_C 	C 	0.53119	0.39845	0.79138	-0.028
Mof_C 	C 	0.56515	0.3996	0.75469	0.108
Mof_C 	C 	0.588	0.4499	0.74046	-0.184
Mof_H 	H 	0.5846	0.484	0.7548	0.093
Mof_C 	C 	0.6156	0.4513	0.70585	0.105
Mof_H 	H 	0.63	0.4869	0.6973	-0.021
Mof_N 	N 	0.84535	0.37341	0.93299	-0.214
Mof_C 	C 	0.8954	0.3521	0.94688	0.1
Mof_H 	H 	0.9291	0.3571	0.9323	-0.028
Mof_C 	C 	0.5733	0.3505	0.73168	-0.179
Mof_H 	H 	0.559	0.3147	0.7399	0.084
Mof_N 	N 	0.3393	0.98307	0.6119	-0.206
Mof_C 	C 	0.3727	0.9655	0.58297	0.107
Mof_H 	H 	0.3948	0.9933	0.57	-0.025
Mof_C 	C 	0.3767	0.9088	0.57106	-0.182
Mof_H 	H 	0.401	0.8991	0.5505	0.093
Mof_C 	C 	0.3443	0.86565	0.58973	0.113
Mof_C 	C 	0.3103	0.8843	0.62059	-0.186
Mof_H 	H 	0.2885	0.8578	0.6348	0.094
Mof_C 	C 	0.3093	0.9426	0.62982	0.113
Mof_H 	H 	0.2856	0.9542	0.6503	-0.02
Mof_C 	C 	0.34645	0.80417	0.57781	-0.041
Mof_C 	C 	0.35155	0.78119	0.54138	-0.028
Mof_C 	C 	0.3504	0.81515	0.50469	0.108
Mof_C 	C 	0.3001	0.838	0.49046	-0.184
Mof_H 	H 	0.266	0.8346	0.5048	0.093
Mof_C 	C 	0.2987	0.8656	0.45585	0.105
Mof_H 	H 	0.2631	0.88	0.4473	-0.021
Mof_N 	N 	0.37659	0.09535	0.68299	-0.214
Mof_C 	C 	0.3979	0.1454	0.69688	0.1
Mof_H 	H 	0.3929	0.1791	0.6823	-0.028
Mof_C 	C 	0.3995	0.8233	0.48168	-0.179
Mof_H 	H 	0.4353	0.809	0.4899	0.084
Mof_N 	N 	0.8393	0.48307	0.1119	-0.206
Mof_C 	C 	0.8727	0.4655	0.08297	0.107
Mof_H 	H 	0.8948	0.4933	0.07	-0.025
Mof_C 	C 	0.8767	0.4088	0.07106	-0.182
Mof_H 	H 	0.901	0.3991	0.0505	0.093
Mof_C 	C 	0.8443	0.36565	0.08973	0.113
Mof_C 	C 	0.8103	0.3843	0.12059	-0.186
Mof_H 	H 	0.7885	0.3578	0.1348	0.094
Mof_C 	C 	0.8093	0.4426	0.12982	0.113
Mof_H 	H 	0.7856	0.4542	0.1503	-0.02
Mof_C 	C 	0.84645	0.30417	0.07781	-0.041
Mof_C 	C 	0.85155	0.28119	0.04138	-0.028
Mof_C 	C 	0.8504	0.31515	0.00469	0.108
Mof_C 	C 	0.8001	0.338	0.99046	-0.184
Mof_H 	H 	0.766	0.3346	0.0048	0.093
Mof_C 	C 	0.7987	0.3656	0.95585	0.105
Mof_H 	H 	0.7631	0.38	0.9473	-0.021
Mof_N 	N 	0.87659	0.59535	0.18299	-0.214
Mof_C 	C 	0.8979	0.6454	0.19688	0.1
Mof_H 	H 	0.8929	0.6791	0.1823	-0.028
Mof_C 	C 	0.8995	0.3233	0.98168	-0.179
Mof_H 	H 	0.9353	0.309	0.9899	0.084
Mof_N 	N 	0.1607	0.01693	0.1119	-0.206
Mof_C 	C 	0.1273	0.0345	0.08297	0.107
Mof_H 	H 	0.1052	0.0067	0.07	-0.025
Mof_C 	C 	0.1233	0.0912	0.07106	-0.182
Mof_H 	H 	0.099	0.1009	0.0505	0.093
Mof_C 	C 	0.1557	0.13435	0.08973	0.113
Mof_C 	C 	0.1897	0.1157	0.12059	-0.186
Mof_H 	H 	0.2115	0.1422	0.1348	0.094
Mof_C 	C 	0.1907	0.0574	0.12982	0.113
Mof_H 	H 	0.2144	0.0458	0.1503	-0.02
Mof_C 	C 	0.15355	0.19583	0.07781	-0.041
Mof_C 	C 	0.14845	0.21881	0.04138	-0.028
Mof_C 	C 	0.1496	0.18485	0.00469	0.108
Mof_C 	C 	0.1999	0.162	0.99046	-0.183
Mof_H 	H 	0.234	0.1654	0.0048	0.093
Mof_C 	C 	0.2013	0.1344	0.95585	0.105
Mof_H 	H 	0.2369	0.12	0.9473	-0.021
Mof_N 	N 	0.12341	0.90465	0.18299	-0.214
Mof_C 	C 	0.1021	0.8546	0.19688	0.1
Mof_H 	H 	0.1071	0.8209	0.1823	-0.027
Mof_C 	C 	0.1005	0.1767	0.98168	-0.179
Mof_H 	H 	0.0647	0.191	0.9899	0.084
Mof_N 	N 	0.6607	0.51693	0.6119	-0.206
Mof_C 	C 	0.6273	0.5345	0.58297	0.107
Mof_H 	H 	0.6052	0.5067	0.57	-0.025
Mof_C 	C 	0.6233	0.5912	0.57106	-0.182
Mof_H 	H 	0.599	0.6009	0.5505	0.093
Mof_C 	C 	0.6557	0.63435	0.58973	0.113
Mof_C 	C 	0.6897	0.6157	0.62059	-0.186
Mof_H 	H 	0.7115	0.6422	0.6348	0.094
Mof_C 	C 	0.6907	0.5574	0.62982	0.113
Mof_H 	H 	0.7144	0.5458	0.6503	-0.02
Mof_C 	C 	0.65355	0.69583	0.57781	-0.041
Mof_C 	C 	0.64845	0.71881	0.54138	-0.028
Mof_C 	C 	0.6496	0.68485	0.50469	0.108
Mof_C 	C 	0.6999	0.662	0.49046	-0.184
Mof_H 	H 	0.734	0.6654	0.5048	0.093
Mof_C 	C 	0.7013	0.6344	0.45585	0.105
Mof_H 	H 	0.7369	0.62	0.4473	-0.021
Mof_N 	N 	0.62341	0.40465	0.68299	-0.214
Mof_C 	C 	0.6021	0.3546	0.69688	0.1
Mof_H 	H 	0.6071	0.3209	0.6823	-0.028
Mof_C 	C 	0.6005	0.6767	0.48168	-0.179
Mof_H 	H 	0.5647	0.691	0.4899	0.084
Mof_N 	N 	0.76693	0.9107	0.3619	-0.206
Mof_C 	C 	0.7845	0.8773	0.33297	0.107
Mof_H 	H 	0.7567	0.8552	0.32	-0.025
Mof_C 	C 	0.8412	0.8733	0.32106	-0.182
Mof_H 	H 	0.8509	0.849	0.3005	0.093
Mof_C 	C 	0.88435	0.9057	0.33973	0.113
Mof_C 	C 	0.8657	0.9397	0.37059	-0.186
Mof_H 	H 	0.8922	0.9615	0.3848	0.094
Mof_C 	C 	0.8074	0.9407	0.37982	0.113
Mof_H 	H 	0.7958	0.9644	0.4003	-0.02
Mof_C 	C 	0.94583	0.90355	0.32781	-0.041
Mof_C 	C 	0.96881	0.89845	0.29138	-0.029
Mof_C 	C 	0.93485	0.8996	0.25469	0.108
Mof_C 	C 	0.912	0.9499	0.24046	-0.184
Mof_H 	H 	0.9154	0.984	0.2548	0.093
Mof_C 	C 	0.8844	0.9513	0.20585	0.105
Mof_H 	H 	0.87	0.9869	0.1973	-0.021
Mof_N 	N 	0.65465	0.87341	0.43299	-0.214
Mof_C 	C 	0.6046	0.8521	0.44688	0.1
Mof_H 	H 	0.5709	0.8571	0.4323	-0.028
Mof_C 	C 	0.9267	0.8505	0.23168	-0.179
Mof_H 	H 	0.941	0.8147	0.2399	0.084
Mof_N 	N 	0.26693	0.4107	0.8619	-0.206
Mof_C 	C 	0.2845	0.3773	0.83297	0.107
Mof_H 	H 	0.2567	0.3552	0.82	-0.025
Mof_C 	C 	0.3412	0.3733	0.82106	-0.182
Mof_H 	H 	0.3509	0.349	0.8005	0.093
Mof_C 	C 	0.38435	0.4057	0.83973	0.113
Mof_C 	C 	0.3657	0.4397	0.87059	-0.186
Mof_H 	H 	0.3922	0.4615	0.8848	0.094
Mof_C 	C 	0.3074	0.4407	0.87982	0.113
Mof_H 	H 	0.2958	0.4644	0.9003	-0.02
Mof_C 	C 	0.44583	0.40355	0.82781	-0.041
Mof_C 	C 	0.46881	0.39845	0.79138	-0.028
Mof_C 	C 	0.43485	0.3996	0.75469	0.108
Mof_C 	C 	0.412	0.4499	0.74046	-0.184
Mof_H 	H 	0.4154	0.484	0.7548	0.093
Mof_C 	C 	0.3844	0.4513	0.70585	0.105
Mof_H 	H 	0.37	0.4869	0.6973	-0.021
Mof_N 	N 	0.15465	0.37341	0.93299	-0.214
Mof_C 	C 	0.1046	0.3521	0.94688	0.1
Mof_H 	H 	0.0709	0.3571	0.9323	-0.027
Mof_C 	C 	0.4267	0.3505	0.73168	-0.179
Mof_H 	H 	0.441	0.3147	0.7399	0.084
Mof_N 	N 	0.73307	0.0893	0.8619	-0.206
Mof_C 	C 	0.7155	0.1227	0.83297	0.107
Mof_H 	H 	0.7433	0.1448	0.82	-0.025
Mof_C 	C 	0.6588	0.1267	0.82106	-0.182
Mof_H 	H 	0.6491	0.151	0.8005	0.093
Mof_C 	C 	0.61565	0.0943	0.83973	0.113
Mof_C 	C 	0.6343	0.0603	0.87059	-0.186
Mof_H 	H 	0.6078	0.0385	0.8848	0.094
Mof_C 	C 	0.6926	0.0593	0.87982	0.113
Mof_H 	H 	0.7042	0.0356	0.9003	-0.02
Mof_C 	C 	0.55417	0.09645	0.82781	-0.041
Mof_C 	C 	0.53119	0.10155	0.79138	-0.028
Mof_C 	C 	0.56515	0.1004	0.75469	0.108
Mof_C 	C 	0.588	0.0501	0.74046	-0.184
Mof_H 	H 	0.5846	0.016	0.7548	0.093
Mof_C 	C 	0.6156	0.0487	0.70585	0.105
Mof_H 	H 	0.63	0.0131	0.6973	-0.021
Mof_N 	N 	0.84535	0.12659	0.93299	-0.214
Mof_C 	C 	0.8954	0.1479	0.94688	0.1
Mof_H 	H 	0.9291	0.1429	0.9323	-0.028
Mof_C 	C 	0.5733	0.1495	0.73168	-0.179
Mof_H 	H 	0.559	0.1853	0.7399	0.084
Mof_N 	N 	0.23307	0.5893	0.3619	-0.206
Mof_C 	C 	0.2155	0.6227	0.33297	0.107
Mof_H 	H 	0.2433	0.6448	0.32	-0.025
Mof_C 	C 	0.1588	0.6267	0.32106	-0.182
Mof_H 	H 	0.1491	0.651	0.3005	0.093
Mof_C 	C 	0.11565	0.5943	0.33973	0.113
Mof_C 	C 	0.1343	0.5603	0.37059	-0.186
Mof_H 	H 	0.1078	0.5385	0.3848	0.094
Mof_C 	C 	0.1926	0.5593	0.37982	0.113
Mof_H 	H 	0.2042	0.5356	0.4003	-0.02
Mof_C 	C 	0.05417	0.59645	0.32781	-0.041
Mof_C 	C 	0.03119	0.60155	0.29138	-0.028
Mof_C 	C 	0.06515	0.6004	0.25469	0.108
Mof_C 	C 	0.088	0.5501	0.24046	-0.184
Mof_H 	H 	0.0846	0.516	0.2548	0.093
Mof_C 	C 	0.1156	0.5487	0.20585	0.105
Mof_H 	H 	0.13	0.5131	0.1973	-0.021
Mof_N 	N 	0.34535	0.62659	0.43299	-0.214
Mof_C 	C 	0.3954	0.6479	0.44688	0.1
Mof_H 	H 	0.4291	0.6429	0.4323	-0.028
Mof_C 	C 	0.0733	0.6495	0.23168	-0.179
Mof_H 	H 	0.059	0.6853	0.2399	0.084
Mof_N 	N 	0.8393	0.01693	0.1119	-0.206
Mof_C 	C 	0.8727	0.0345	0.08297	0.107
Mof_H 	H 	0.8948	0.0067	0.07	-0.025
Mof_C 	C 	0.8767	0.0912	0.07106	-0.182
Mof_H 	H 	0.901	0.1009	0.0505	0.093
Mof_C 	C 	0.8443	0.13435	0.08973	0.113
Mof_C 	C 	0.8103	0.1157	0.12059	-0.186
Mof_H 	H 	0.7885	0.1422	0.1348	0.094
Mof_C 	C 	0.8093	0.0574	0.12982	0.113
Mof_H 	H 	0.7856	0.0458	0.1503	-0.02
Mof_C 	C 	0.84645	0.19583	0.07781	-0.041
Mof_C 	C 	0.85155	0.21881	0.04138	-0.028
Mof_C 	C 	0.8504	0.18485	0.00469	0.108
Mof_C 	C 	0.8001	0.162	0.99046	-0.183
Mof_H 	H 	0.766	0.1654	0.0048	0.093
Mof_C 	C 	0.7987	0.1344	0.95585	0.105
Mof_H 	H 	0.7631	0.12	0.9473	-0.021
Mof_N 	N 	0.87659	0.90465	0.18299	-0.214
Mof_C 	C 	0.8979	0.8546	0.19688	0.1
Mof_H 	H 	0.8929	0.8209	0.1823	-0.028
Mof_C 	C 	0.8995	0.1767	0.98168	-0.179
Mof_H 	H 	0.9353	0.191	0.9899	0.084
Mof_N 	N 	0.3393	0.51693	0.6119	-0.206
Mof_C 	C 	0.3727	0.5345	0.58297	0.107
Mof_H 	H 	0.3948	0.5067	0.57	-0.025
Mof_C 	C 	0.3767	0.5912	0.57106	-0.182
Mof_H 	H 	0.401	0.6009	0.5505	0.093
Mof_C 	C 	0.3443	0.63435	0.58973	0.113
Mof_C 	C 	0.3103	0.6157	0.62059	-0.186
Mof_H 	H 	0.2885	0.6422	0.6348	0.094
Mof_C 	C 	0.3093	0.5574	0.62982	0.113
Mof_H 	H 	0.2856	0.5458	0.6503	-0.02
Mof_C 	C 	0.34645	0.69583	0.57781	-0.041
Mof_C 	C 	0.35155	0.71881	0.54138	-0.028
Mof_C 	C 	0.3504	0.68485	0.50469	0.108
Mof_C 	C 	0.3001	0.662	0.49046	-0.184
Mof_H 	H 	0.266	0.6654	0.5048	0.093
Mof_C 	C 	0.2987	0.6344	0.45585	0.105
Mof_H 	H 	0.2631	0.62	0.4473	-0.021
Mof_N 	N 	0.37659	0.40465	0.68299	-0.214
Mof_C 	C 	0.3979	0.3546	0.69688	0.1
Mof_H 	H 	0.3929	0.3209	0.6823	-0.028
Mof_C 	C 	0.3995	0.6767	0.48168	-0.179
Mof_H 	H 	0.4353	0.691	0.4899	0.084
Mof_N 	N 	0.6607	0.98307	0.6119	-0.206
Mof_C 	C 	0.6273	0.9655	0.58297	0.107
Mof_H 	H 	0.6052	0.9933	0.57	-0.025
Mof_C 	C 	0.6233	0.9088	0.57106	-0.182
Mof_H 	H 	0.599	0.8991	0.5505	0.093
Mof_C 	C 	0.6557	0.86565	0.58973	0.113
Mof_C 	C 	0.6897	0.8843	0.62059	-0.186
Mof_H 	H 	0.7115	0.8578	0.6348	0.094
Mof_C 	C 	0.6907	0.9426	0.62982	0.113
Mof_H 	H 	0.7144	0.9542	0.6503	-0.02
Mof_C 	C 	0.65355	0.80417	0.57781	-0.041
Mof_C 	C 	0.64845	0.78119	0.54138	-0.028
Mof_C 	C 	0.6496	0.81515	0.50469	0.108
Mof_C 	C 	0.6999	0.838	0.49046	-0.184
Mof_H 	H 	0.734	0.8346	0.5048	0.093
Mof_C 	C 	0.7013	0.8656	0.45585	0.105
Mof_H 	H 	0.7369	0.88	0.4473	-0.021
Mof_N 	N 	0.62341	0.09535	0.68299	-0.214
Mof_C 	C 	0.6021	0.1454	0.69688	0.1
Mof_H 	H 	0.6071	0.1791	0.6823	-0.028
Mof_C 	C 	0.6005	0.8233	0.48168	-0.179
Mof_H 	H 	0.5647	0.809	0.4899	0.084
Mof_N 	N 	0.1607	0.48307	0.1119	-0.206
Mof_C 	C 	0.1273	0.4655	0.08297	0.107
Mof_H 	H 	0.1052	0.4933	0.07	-0.025
Mof_C 	C 	0.1233	0.4088	0.07106	-0.182
Mof_H 	H 	0.099	0.3991	0.0505	0.093
Mof_C 	C 	0.1557	0.36565	0.08973	0.113
Mof_C 	C 	0.1897	0.3843	0.12059	-0.186
Mof_H 	H 	0.2115	0.3578	0.1348	0.094
Mof_C 	C 	0.1907	0.4426	0.12982	0.113
Mof_H 	H 	0.2144	0.4542	0.1503	-0.02
Mof_C 	C 	0.15355	0.30417	0.07781	-0.041
Mof_C 	C 	0.14845	0.28119	0.04138	-0.028
Mof_C 	C 	0.1496	0.31515	0.00469	0.108
Mof_C 	C 	0.1999	0.338	0.99046	-0.184
Mof_H 	H 	0.234	0.3346	0.0048	0.093
Mof_C 	C 	0.2013	0.3656	0.95585	0.105
Mof_H 	H 	0.2369	0.38	0.9473	-0.021
Mof_N 	N 	0.12341	0.59535	0.18299	-0.214
Mof_C 	C 	0.1021	0.6454	0.19688	0.1
Mof_H 	H 	0.1071	0.6791	0.1823	-0.027
Mof_C 	C 	0.1005	0.3233	0.98168	-0.179
Mof_H 	H 	0.0647	0.309	0.9899	0.084
Mof_N 	N 	0.73307	0.9107	0.1381	-0.206
Mof_C 	C 	0.7155	0.8773	0.16703	0.107
Mof_H 	H 	0.7433	0.8552	0.18	-0.025
Mof_C 	C 	0.6588	0.8733	0.17894	-0.182
Mof_H 	H 	0.6491	0.849	0.1995	0.093
Mof_C 	C 	0.61565	0.9057	0.16027	0.113
Mof_C 	C 	0.6343	0.9397	0.12941	-0.186
Mof_H 	H 	0.6078	0.9615	0.1152	0.094
Mof_C 	C 	0.6926	0.9407	0.12018	0.113
Mof_H 	H 	0.7042	0.9644	0.0997	-0.02
Mof_C 	C 	0.55417	0.90355	0.17219	-0.041
Mof_C 	C 	0.53119	0.89845	0.20862	-0.028
Mof_C 	C 	0.56515	0.8996	0.24531	0.108
Mof_C 	C 	0.588	0.9499	0.25954	-0.184
Mof_H 	H 	0.5846	0.984	0.2452	0.093
Mof_C 	C 	0.6156	0.9513	0.29415	0.105
Mof_H 	H 	0.63	0.9869	0.3027	-0.021
Mof_N 	N 	0.84535	0.87341	0.06701	-0.214
Mof_C 	C 	0.8954	0.8521	0.05312	0.1
Mof_H 	H 	0.9291	0.8571	0.0677	-0.028
Mof_C 	C 	0.5733	0.8505	0.26832	-0.179
Mof_H 	H 	0.559	0.8147	0.2601	0.084
Mof_N 	N 	0.23307	0.4107	0.6381	-0.206
Mof_C 	C 	0.2155	0.3773	0.66703	0.107
Mof_H 	H 	0.2433	0.3552	0.68	-0.025
Mof_C 	C 	0.1588	0.3733	0.67894	-0.182
Mof_H 	H 	0.1491	0.349	0.6995	0.093
Mof_C 	C 	0.11565	0.4057	0.66027	0.113
Mof_C 	C 	0.1343	0.4397	0.62941	-0.186
Mof_H 	H 	0.1078	0.4615	0.6152	0.094
Mof_C 	C 	0.1926	0.4407	0.62018	0.113
Mof_H 	H 	0.2042	0.4644	0.5997	-0.02
Mof_C 	C 	0.05417	0.40355	0.67219	-0.041
Mof_C 	C 	0.03119	0.39845	0.70862	-0.028
Mof_C 	C 	0.06515	0.3996	0.74531	0.108
Mof_C 	C 	0.088	0.4499	0.75954	-0.184
Mof_H 	H 	0.0846	0.484	0.7452	0.093
Mof_C 	C 	0.1156	0.4513	0.79415	0.105
Mof_H 	H 	0.13	0.4869	0.8027	-0.021
Mof_N 	N 	0.34535	0.37341	0.56701	-0.214
Mof_C 	C 	0.3954	0.3521	0.55312	0.1
Mof_H 	H 	0.4291	0.3571	0.5677	-0.028
Mof_C 	C 	0.0733	0.3505	0.76832	-0.179
Mof_H 	H 	0.059	0.3147	0.7601	0.084
Mof_N 	N 	0.76693	0.0893	0.6381	-0.206
Mof_C 	C 	0.7845	0.1227	0.66703	0.107
Mof_H 	H 	0.7567	0.1448	0.68	-0.025
Mof_C 	C 	0.8412	0.1267	0.67894	-0.182
Mof_H 	H 	0.8509	0.151	0.6995	0.093
Mof_C 	C 	0.88435	0.0943	0.66027	0.113
Mof_C 	C 	0.8657	0.0603	0.62941	-0.186
Mof_H 	H 	0.8922	0.0385	0.6152	0.094
Mof_C 	C 	0.8074	0.0593	0.62018	0.113
Mof_H 	H 	0.7958	0.0356	0.5997	-0.02
Mof_C 	C 	0.94583	0.09645	0.67219	-0.041
Mof_C 	C 	0.96881	0.10155	0.70862	-0.029
Mof_C 	C 	0.93485	0.1004	0.74531	0.108
Mof_C 	C 	0.912	0.0501	0.75954	-0.184
Mof_H 	H 	0.9154	0.016	0.7452	0.093
Mof_C 	C 	0.8844	0.0487	0.79415	0.105
Mof_H 	H 	0.87	0.0131	0.8027	-0.021
Mof_N 	N 	0.65465	0.12659	0.56701	-0.214
Mof_C 	C 	0.6046	0.1479	0.55312	0.1
Mof_H 	H 	0.5709	0.1429	0.5677	-0.028
Mof_C 	C 	0.9267	0.1495	0.76832	-0.179
Mof_H 	H 	0.941	0.1853	0.7601	0.084
Mof_N 	N 	0.26693	0.5893	0.1381	-0.206
Mof_C 	C 	0.2845	0.6227	0.16703	0.107
Mof_H 	H 	0.2567	0.6448	0.18	-0.025
Mof_C 	C 	0.3412	0.6267	0.17894	-0.182
Mof_H 	H 	0.3509	0.651	0.1995	0.093
Mof_C 	C 	0.38435	0.5943	0.16027	0.113
Mof_C 	C 	0.3657	0.5603	0.12941	-0.186
Mof_H 	H 	0.3922	0.5385	0.1152	0.094
Mof_C 	C 	0.3074	0.5593	0.12018	0.113
Mof_H 	H 	0.2958	0.5356	0.0997	-0.02
Mof_C 	C 	0.44583	0.59645	0.17219	-0.041
Mof_C 	C 	0.46881	0.60155	0.20862	-0.028
Mof_C 	C 	0.43485	0.6004	0.24531	0.108
Mof_C 	C 	0.412	0.5501	0.25954	-0.184
Mof_H 	H 	0.4154	0.516	0.2452	0.093
Mof_C 	C 	0.3844	0.5487	0.29415	0.105
Mof_H 	H 	0.37	0.5131	0.3027	-0.021
Mof_N 	N 	0.15465	0.62659	0.06701	-0.214
Mof_C 	C 	0.1046	0.6479	0.05312	0.1
Mof_H 	H 	0.0709	0.6429	0.0677	-0.027
Mof_C 	C 	0.4267	0.6495	0.26832	-0.179
Mof_H 	H 	0.441	0.6853	0.2601	0.084
Mof_N 	N 	0.6607	0.01693	0.3881	-0.206
Mof_C 	C 	0.6273	0.0345	0.41703	0.107
Mof_H 	H 	0.6052	0.0067	0.43	-0.025
Mof_C 	C 	0.6233	0.0912	0.42894	-0.182
Mof_H 	H 	0.599	0.1009	0.4495	0.093
Mof_C 	C 	0.6557	0.13435	0.41027	0.113
Mof_C 	C 	0.6897	0.1157	0.37941	-0.186
Mof_H 	H 	0.7115	0.1422	0.3652	0.094
Mof_C 	C 	0.6907	0.0574	0.37018	0.113
Mof_H 	H 	0.7144	0.0458	0.3497	-0.02
Mof_C 	C 	0.65355	0.19583	0.42219	-0.041
Mof_C 	C 	0.64845	0.21881	0.45862	-0.028
Mof_C 	C 	0.6496	0.18485	0.49531	0.108
Mof_C 	C 	0.6999	0.162	0.50954	-0.184
Mof_H 	H 	0.734	0.1654	0.4952	0.093
Mof_C 	C 	0.7013	0.1344	0.54415	0.105
Mof_H 	H 	0.7369	0.12	0.5527	-0.021
Mof_N 	N 	0.62341	0.90465	0.31701	-0.214
Mof_C 	C 	0.6021	0.8546	0.30312	0.1
Mof_H 	H 	0.6071	0.8209	0.3177	-0.028
Mof_C 	C 	0.6005	0.1767	0.51832	-0.179
Mof_H 	H 	0.5647	0.191	0.5101	0.084
Mof_N 	N 	0.1607	0.51693	0.8881	-0.206
Mof_C 	C 	0.1273	0.5345	0.91703	0.107
Mof_H 	H 	0.1052	0.5067	0.93	-0.025
Mof_C 	C 	0.1233	0.5912	0.92894	-0.182
Mof_H 	H 	0.099	0.6009	0.9495	0.093
Mof_C 	C 	0.1557	0.63435	0.91027	0.113
Mof_C 	C 	0.1897	0.6157	0.87941	-0.186
Mof_H 	H 	0.2115	0.6422	0.8652	0.094
Mof_C 	C 	0.1907	0.5574	0.87018	0.113
Mof_H 	H 	0.2144	0.5458	0.8497	-0.02
Mof_C 	C 	0.15355	0.69583	0.92219	-0.041
Mof_C 	C 	0.14845	0.71881	0.95862	-0.028
Mof_C 	C 	0.1496	0.68485	0.99531	0.108
Mof_C 	C 	0.1999	0.662	0.00954	-0.184
Mof_H 	H 	0.234	0.6654	0.9952	0.093
Mof_C 	C 	0.2013	0.6344	0.04415	0.105
Mof_H 	H 	0.2369	0.62	0.0527	-0.021
Mof_N 	N 	0.12341	0.40465	0.81701	-0.214
Mof_C 	C 	0.1021	0.3546	0.80312	0.1
Mof_H 	H 	0.1071	0.3209	0.8177	-0.027
Mof_C 	C 	0.1005	0.6767	0.01832	-0.179
Mof_H 	H 	0.0647	0.691	0.0101	0.084
Mof_N 	N 	0.8393	0.98307	0.8881	-0.206
Mof_C 	C 	0.8727	0.9655	0.91703	0.107
Mof_H 	H 	0.8948	0.9933	0.93	-0.025
Mof_C 	C 	0.8767	0.9088	0.92894	-0.182
Mof_H 	H 	0.901	0.8991	0.9495	0.093
Mof_C 	C 	0.8443	0.86565	0.91027	0.113
Mof_C 	C 	0.8103	0.8843	0.87941	-0.186
Mof_H 	H 	0.7885	0.8578	0.8652	0.094
Mof_C 	C 	0.8093	0.9426	0.87018	0.113
Mof_H 	H 	0.7856	0.9542	0.8497	-0.02
Mof_C 	C 	0.84645	0.80417	0.92219	-0.041
Mof_C 	C 	0.85155	0.78119	0.95862	-0.028
Mof_C 	C 	0.8504	0.81515	0.99531	0.108
Mof_C 	C 	0.8001	0.838	0.00954	-0.183
Mof_H 	H 	0.766	0.8346	0.9952	0.093
Mof_C 	C 	0.7987	0.8656	0.04415	0.105
Mof_H 	H 	0.7631	0.88	0.0527	-0.021
Mof_N 	N 	0.87659	0.09535	0.81701	-0.214
Mof_C 	C 	0.8979	0.1454	0.80312	0.1
Mof_H 	H 	0.8929	0.1791	0.8177	-0.028
Mof_C 	C 	0.8995	0.8233	0.01832	-0.179
Mof_H 	H 	0.9353	0.809	0.0101	0.084
Mof_N 	N 	0.3393	0.48307	0.3881	-0.206
Mof_C 	C 	0.3727	0.4655	0.41703	0.107
Mof_H 	H 	0.3948	0.4933	0.43	-0.025
Mof_C 	C 	0.3767	0.4088	0.42894	-0.182
Mof_H 	H 	0.401	0.3991	0.4495	0.093
Mof_C 	C 	0.3443	0.36565	0.41027	0.113
Mof_C 	C 	0.3103	0.3843	0.37941	-0.186
Mof_H 	H 	0.2885	0.3578	0.3652	0.094
Mof_C 	C 	0.3093	0.4426	0.37018	0.113
Mof_H 	H 	0.2856	0.4542	0.3497	-0.02
Mof_C 	C 	0.34645	0.30417	0.42219	-0.041
Mof_C 	C 	0.35155	0.28119	0.45862	-0.028
Mof_C 	C 	0.3504	0.31515	0.49531	0.108
Mof_C 	C 	0.3001	0.338	0.50954	-0.184
Mof_H 	H 	0.266	0.3346	0.4952	0.093
Mof_C 	C 	0.2987	0.3656	0.54415	0.105
Mof_H 	H 	0.2631	0.38	0.5527	-0.021
Mof_N 	N 	0.37659	0.59535	0.31701	-0.214
Mof_C 	C 	0.3979	0.6454	0.30312	0.1
Mof_H 	H 	0.3929	0.6791	0.3177	-0.028
Mof_C 	C 	0.3995	0.3233	0.51832	-0.179
Mof_H 	H 	0.4353	0.309	0.5101	0.084
Mof_Ag	Ag	0.33398	0.08398	0.625	0.614
Mof_Ag	Ag	0.83398	0.58398	0.125	0.614
Mof_Ag	Ag	0.16602	0.91602	0.125	0.614
Mof_Ag	Ag	0.66602	0.41602	0.625	0.614
Mof_Ag	Ag	0.16602	0.08398	0.875	0.614
Mof_Ag	Ag	0.66602	0.58398	0.375	0.614
Mof_Ag	Ag	0.33398	0.91602	0.375	0.614
Mof_Ag	Ag	0.83398	0.41602	0.875	0.614
Mof_Ag	Ag	0.66602	0.91602	0.375	0.614
Mof_Ag	Ag	0.16602	0.41602	0.875	0.614
Mof_Ag	Ag	0.83398	0.08398	0.875	0.614
Mof_Ag	Ag	0.33398	0.58398	0.375	0.614
Mof_Ag	Ag	0.83398	0.91602	0.125	0.614
Mof_Ag	Ag	0.33398	0.41602	0.625	0.614
Mof_Ag	Ag	0.66602	0.08398	0.625	0.614
Mof_Ag	Ag	0.16602	0.58398	0.125	0.614
Mof_S 	S 	-7.48746e-33	0.09255	0.63801	-0.007
Mof_S 	S 	0.5	0.59255	0.13801	-0.008
Mof_S 	S 	0.5	0.90745	0.13801	-0.008
Mof_S 	S 	-1.85737e-32	0.40745	0.63801	-0.007
Mof_S 	S 	0.15745	0.75	0.88801	-0.008
Mof_S 	S 	0.34255	0.25	0.38801	-0.008
Mof_S 	S 	0.5	0.09255	0.86199	-0.008
Mof_S 	S 	-3.50127e-33	0.59255	0.36199	-0.007
Mof_S 	S 	2.04187e-33	0.90745	0.36199	-0.007
Mof_S 	S 	0.5	0.40745	0.86199	-0.008
Mof_S 	S 	0.34255	0.75	0.61199	-0.008
Mof_S 	S 	0.15745	0.25	0.11199	-0.008
Mof_S 	S 	0.84255	0.25	0.11199	-0.008
Mof_S 	S 	0.65745	0.75	0.61199	-0.008
Mof_S 	S 	0.65745	0.25	0.38801	-0.008
Mof_S 	S 	0.84255	0.75	0.88801	-0.008
_end
