data_functionalizedCrystal
_audit_creation_method	'EQeq! by Chris Wilmer'
_symmetry_space_group_name_H-M	'P1'
_symmetry_Int_Tables_number	1
_symmetry_cell_setting	triclinic
loop_
_symmetry_equiv_pos_as_xyz
  x,y,z
_cell_length_a	13.2146
_cell_length_b	14.4265
_cell_length_c	14.4265
_cell_angle_alpha	100.82
_cell_angle_beta	92.2806
_cell_angle_gamma	92.2806
loop_
_atom_site_label
_atom_site_type_symbol
_atom_site_fract_x
_atom_site_fract_y
_atom_site_fract_z
_atom_site_charge
Mof_Ni	Ni	0.25499	0.58944	0.02488	1.096
Mof_Ni	Ni	0.24501	0.97512	0.41056	1.128
Mof_Ni	Ni	0.74501	0.41056	0.97512	1.129
Mof_Ni	Ni	0.75499	0.02488	0.58944	1.098
Mof_Ni	Ni	0.5	0.5	-0	1.124
Mof_Ni	Ni	-3.2943e-18	1.05418e-17	0.5	1.103
Mof_H 	H 	0.0802	0.5275	0.1441	0.041
Mof_H 	H 	0.0785	0.5461	0.8789	0.042
Mof_H 	H 	0.3894	0.1757	0.2417	0.047
Mof_H 	H 	0.2461	0.8095	0.0665	0.024
Mof_H 	H 	0.4354	0.2985	0.1667	0.071
Mof_H 	H 	0.1602	0.4027	0.2015	0.041
Mof_H 	H 	0.1126	0.2782	0.274	0.043
Mof_H 	H 	0.423	0.3147	0.7445	0.061
Mof_H 	H 	0.1387	0.3776	0.8056	0.05
Mof_H 	H 	0.2405	0.6361	0.2415	0.032
Mof_H 	H 	0.4198	0.8559	0.4725	0.036
Mof_H 	H 	0.4215	0.1211	0.4539	0.057
Mof_H 	H 	0.1106	0.7583	0.8243	0.059
Mof_H 	H 	0.2539	0.9335	0.1905	0.046
Mof_H 	H 	0.0646	0.8333	0.7015	0.062
Mof_H 	H 	0.3398	0.7985	0.5973	0.047
Mof_H 	H 	0.3874	0.726	0.7218	0.063
Mof_H 	H 	0.077	0.2555	0.6853	0.043
Mof_H 	H 	0.3613	0.1944	0.6224	0.047
Mof_H 	H 	0.2595	0.7585	0.3639	0.034
Mof_H 	H 	0.9198	0.4725	0.8559	0.012
Mof_H 	H 	0.9215	0.4539	0.1211	0.031
Mof_H 	H 	0.6106	0.8243	0.7583	0.068
Mof_H 	H 	0.7539	0.1905	0.9335	0.05
Mof_H 	H 	0.5646	0.7015	0.8333	0.078
Mof_H 	H 	0.8398	0.5973	0.7985	0.055
Mof_H 	H 	0.8874	0.7218	0.726	0.075
Mof_H 	H 	0.577	0.6853	0.2555	0.056
Mof_H 	H 	0.8613	0.6224	0.1944	0.054
Mof_H 	H 	0.7595	0.3639	0.7585	0.039
Mof_H 	H 	0.5802	0.1441	0.5275	0.016
Mof_H 	H 	0.5785	0.8789	0.5461	0.019
Mof_H 	H 	0.8894	0.2417	0.1757	0.057
Mof_H 	H 	0.7461	0.0665	0.8095	0.029
Mof_H 	H 	0.9354	0.1667	0.2985	0.087
Mof_H 	H 	0.6602	0.2015	0.4027	0.049
Mof_H 	H 	0.6126	0.274	0.2782	0.056
Mof_H 	H 	0.923	0.7445	0.3147	0.074
Mof_H 	H 	0.6387	0.8056	0.3776	0.058
Mof_H 	H 	0.7405	0.2415	0.6361	0.038
Mof_C 	C 	0.0486	0.517	0.084	-0.068
Mof_C 	C 	0.0476	0.5278	0.9298	-0.022
Mof_C 	C 	0.3426	0.2199	0.2323	-0.023
Mof_C 	C 	0.3256	0.4335	0.8691	0.389
Mof_C 	C 	0.3307	0.4365	0.1191	0.36
Mof_C 	C 	0.2861	0.3563	0.7883	-0.065
Mof_C 	C 	0.3022	0.3606	0.1734	-0.07
Mof_C 	C 	0.2097	0.1316	0.3082	0.316
Mof_C 	C 	0.2474	0.7969	0.1275	0.013
Mof_C 	C 	0.37	0.2939	0.1875	-0.028
Mof_C 	C 	0.2448	0.2128	0.2626	-0.064
Mof_C 	C 	0.2055	0.3564	0.2078	-0.023
Mof_C 	C 	0.1775	0.2819	0.2517	-0.028
Mof_C 	C 	0.3535	0.3027	0.7331	-0.025
Mof_C 	C 	0.1837	0.3398	0.7696	-0.023
Mof_C 	C 	0.2456	0.6969	0.2287	0.005
Mof_C 	C 	0.4514	0.916	0.483	-0.006
Mof_C 	C 	0.4524	0.0702	0.4722	-0.064
Mof_C 	C 	0.1574	0.7677	0.7801	-0.032
Mof_C 	C 	0.1744	0.1309	0.5665	0.401
Mof_C 	C 	0.1693	0.8809	0.5635	0.366
Mof_C 	C 	0.2139	0.2117	0.6437	-0.087
Mof_C 	C 	0.1978	0.8266	0.6394	-0.071
Mof_C 	C 	0.2903	0.6918	0.8684	0.308
Mof_C 	C 	0.2526	0.8725	0.2031	0.007
Mof_C 	C 	0.13	0.8125	0.7061	-0.01
Mof_C 	C 	0.2552	0.7374	0.7872	-0.037
Mof_C 	C 	0.2945	0.7922	0.6436	-0.004
Mof_C 	C 	0.3225	0.7483	0.7181	-0.035
Mof_C 	C 	0.1465	0.2669	0.6973	-0.008
Mof_C 	C 	0.3163	0.2304	0.6602	-0.005
Mof_C 	C 	0.2544	0.7713	0.3031	0.002
Mof_C 	C 	0.9514	0.483	0.916	0.095
Mof_C 	C 	0.9524	0.4722	0.0702	0.043
Mof_C 	C 	0.6574	0.7801	0.7677	-0.028
Mof_C 	C 	0.6744	0.5665	0.1309	0.399
Mof_C 	C 	0.6693	0.5635	0.8809	0.365
Mof_C 	C 	0.7139	0.6437	0.2117	-0.08
Mof_C 	C 	0.6978	0.6394	0.8266	-0.063
Mof_C 	C 	0.7903	0.8684	0.6918	0.306
Mof_C 	C 	0.7526	0.2031	0.8725	0.013
Mof_C 	C 	0.63	0.7061	0.8125	-0.009
Mof_C 	C 	0.7552	0.7872	0.7374	-0.03
Mof_C 	C 	0.7945	0.6436	0.7922	-0.001
Mof_C 	C 	0.8225	0.7181	0.7483	-0.033
Mof_C 	C 	0.6465	0.6973	0.2669	-0.006
Mof_C 	C 	0.8163	0.6602	0.2304	-0.001
Mof_C 	C 	0.7544	0.3031	0.7713	0.009
Mof_C 	C 	0.5486	0.084	0.517	0.04
Mof_C 	C 	0.5476	0.9298	0.5278	0.076
Mof_C 	C 	0.8426	0.2323	0.2199	-0.018
Mof_C 	C 	0.8256	0.8691	0.4335	0.385
Mof_C 	C 	0.8307	0.1191	0.4365	0.357
Mof_C 	C 	0.7861	0.7883	0.3563	-0.057
Mof_C 	C 	0.8022	0.1734	0.3606	-0.06
Mof_C 	C 	0.7097	0.3082	0.1316	0.314
Mof_C 	C 	0.7474	0.1275	0.7969	0.018
Mof_C 	C 	0.87	0.1875	0.2939	-0.028
Mof_C 	C 	0.7448	0.2626	0.2128	-0.056
Mof_C 	C 	0.7055	0.2078	0.3564	-0.02
Mof_C 	C 	0.6775	0.2517	0.2819	-0.026
Mof_C 	C 	0.8535	0.7331	0.3027	-0.023
Mof_C 	C 	0.6837	0.7696	0.3398	-0.021
Mof_C 	C 	0.7456	0.2287	0.6969	0.011
Mof_N 	N 	0.244	0.707	0.1382	-0.198
Mof_N 	N 	0.0965	0.545	0.0148	-0.198
Mof_N 	N 	0.256	0.8618	0.293	-0.189
Mof_N 	N 	0.4035	0.9852	0.455	-0.142
Mof_N 	N 	0.756	0.293	0.8618	-0.186
Mof_N 	N 	0.9035	0.455	0.9852	-0.172
Mof_N 	N 	0.744	0.1382	0.707	-0.195
Mof_N 	N 	0.5965	0.0148	0.545	-0.225
Mof_O 	O 	0.2613	0.479	0.9148	-0.402
Mof_O 	O 	0.2717	0.5035	0.1211	-0.422
Mof_O 	O 	0.2743	0.0733	0.3241	-0.403
Mof_O 	O 	0.4198	0.443	0.8812	-0.388
Mof_O 	O 	0.4118	0.6204	0.0232	-0.379
Mof_O 	O 	0.4117	0.4264	0.0762	-0.403
Mof_O 	O 	0.1181	0.1293	0.3265	-0.279
Mof_O 	O 	0.2387	0.0852	0.521	-0.448
Mof_O 	O 	0.2283	0.8789	0.4965	-0.413
Mof_O 	O 	0.2257	0.6759	0.9267	-0.35
Mof_O 	O 	0.0802	0.1188	0.557	-0.431
Mof_O 	O 	0.0882	0.9768	0.3796	-0.345
Mof_O 	O 	0.0883	0.9238	0.5736	-0.382
Mof_O 	O 	0.3819	0.6735	0.8707	-0.23
Mof_O 	O 	0.7387	0.521	0.0852	-0.444
Mof_O 	O 	0.7283	0.4965	0.8789	-0.407
Mof_O 	O 	0.7257	0.9267	0.6759	-0.346
Mof_O 	O 	0.5802	0.557	0.1188	-0.414
Mof_O 	O 	0.5882	0.3796	0.9768	-0.327
Mof_O 	O 	0.5883	0.5736	0.9238	-0.364
Mof_O 	O 	0.8819	0.8707	0.6735	-0.214
Mof_O 	O 	0.7613	0.9148	0.479	-0.398
Mof_O 	O 	0.7717	0.1211	0.5035	-0.415
Mof_O 	O 	0.7743	0.3241	0.0733	-0.397
Mof_O 	O 	0.9198	0.8812	0.443	-0.365
Mof_O 	O 	0.9118	0.0232	0.6204	-0.355
Mof_O 	O 	0.9117	0.0762	0.4264	-0.377
Mof_O 	O 	0.6181	0.3265	0.1293	-0.262
_end
