data_functionalizedCrystal
_audit_creation_method	'EQeq! by Chris Wilmer'
_symmetry_space_group_name_H-M	'P1'
_symmetry_Int_Tables_number	1
_symmetry_cell_setting	triclinic
loop_
_symmetry_equiv_pos_as_xyz
  x,y,z
_cell_length_a	18.6
_cell_length_b	18.6
_cell_length_c	18.6
_cell_angle_alpha	60
_cell_angle_beta	60
_cell_angle_gamma	60
loop_
_atom_site_label
_atom_site_type_symbol
_atom_site_fract_x
_atom_site_fract_y
_atom_site_fract_z
_atom_site_charge
Mof_Cu	Cu	0.5	0.07028	0.92972	0.899
Mof_Cu	Cu	0.07028	0.5	0.5	0.907
Mof_Cu	Cu	0.92972	0.5	0.5	0.907
Mof_Cu	Cu	0.5	0.92972	0.07028	0.89
Mof_Cu	Cu	0.5	0.92972	0.5	0.905
Mof_Cu	Cu	0.07028	0.5	0.92972	0.905
Mof_Cu	Cu	0.92972	0.5	0.07028	0.907
Mof_Cu	Cu	0.5	0.07028	0.5	0.908
Mof_Cu	Cu	0.5	0.5	0.07028	0.907
Mof_Cu	Cu	0.07028	0.92972	0.5	0.904
Mof_Cu	Cu	0.92972	0.07028	0.5	0.907
Mof_Cu	Cu	0.5	0.5	0.92972	0.906
Mof_H 	H 	0.2271	0.0107	0.2271	0.057
Mof_H 	H 	0.0107	0.2271	0.5351	0.045
Mof_H 	H 	0.2271	0.5351	0.2271	0.047
Mof_H 	H 	0.5351	0.2271	0.0107	0.046
Mof_H 	H 	0.2271	0.2271	0.5351	0.046
Mof_H 	H 	0.0107	0.5351	0.2271	0.046
Mof_H 	H 	0.2271	0.2271	0.0107	0.072
Mof_H 	H 	0.5351	0.0107	0.2271	0.052
Mof_H 	H 	0.2271	0.5351	0.0107	0.046
Mof_H 	H 	0.0107	0.2271	0.2271	0.058
Mof_H 	H 	0.2271	0.0107	0.5351	0.048
Mof_H 	H 	0.5351	0.2271	0.2271	0.046
Mof_H 	H 	0.9893	0.7729	0.7729	0.048
Mof_H 	H 	0.7729	0.9893	0.4649	0.044
Mof_H 	H 	0.4649	0.7729	0.7729	0.049
Mof_H 	H 	0.7729	0.4649	0.9893	0.047
Mof_H 	H 	0.7729	0.7729	0.4649	0.049
Mof_H 	H 	0.4649	0.9893	0.7729	0.044
Mof_H 	H 	0.7729	0.7729	0.9893	0.053
Mof_H 	H 	0.9893	0.4649	0.7729	0.046
Mof_H 	H 	0.4649	0.7729	0.9893	0.05
Mof_H 	H 	0.7729	0.9893	0.7729	0.046
Mof_H 	H 	0.9893	0.7729	0.4649	0.047
Mof_H 	H 	0.7729	0.4649	0.7729	0.047
Mof_C 	C 	0.33694	0.0681	0.0681	0.048
Mof_C 	C 	0.2422	0.1118	0.1118	0.007
Mof_C 	C 	0.0681	0.33694	0.52686	0.363
Mof_C 	C 	0.1118	0.2422	0.5342	-0.111
Mof_C 	C 	0.0681	0.52686	0.33694	0.362
Mof_C 	C 	0.1118	0.5342	0.2422	-0.11
Mof_C 	C 	0.52686	0.0681	0.0681	0.364
Mof_C 	C 	0.5342	0.1118	0.1118	-0.11
Mof_C 	C 	0.33694	0.0681	0.52686	0.376
Mof_C 	C 	0.2422	0.1118	0.5342	-0.114
Mof_C 	C 	0.0681	0.52686	0.0681	0.353
Mof_C 	C 	0.1118	0.5342	0.1118	-0.108
Mof_C 	C 	0.0681	0.33694	0.0681	0.333
Mof_C 	C 	0.1118	0.2422	0.1118	-0.068
Mof_C 	C 	0.52686	0.0681	0.33694	0.375
Mof_C 	C 	0.5342	0.1118	0.2422	-0.112
Mof_C 	C 	0.33694	0.52686	0.0681	0.366
Mof_C 	C 	0.2422	0.5342	0.1118	-0.11
Mof_C 	C 	0.0681	0.0681	0.33694	0.342
Mof_C 	C 	0.1118	0.1118	0.2422	-0.068
Mof_C 	C 	0.0681	0.0681	0.52686	0.364
Mof_C 	C 	0.1118	0.1118	0.5342	-0.111
Mof_C 	C 	0.52686	0.33694	0.0681	0.367
Mof_C 	C 	0.5342	0.2422	0.1118	-0.111
Mof_C 	C 	0.9319	0.66306	0.9319	0.337
Mof_C 	C 	0.8882	0.7578	0.8882	-0.096
Mof_C 	C 	0.66306	0.9319	0.47314	0.349
Mof_C 	C 	0.7578	0.8882	0.4658	-0.105
Mof_C 	C 	0.47314	0.9319	0.66306	0.349
Mof_C 	C 	0.4658	0.8882	0.7578	-0.104
Mof_C 	C 	0.9319	0.47314	0.9319	0.347
Mof_C 	C 	0.8882	0.4658	0.8882	-0.105
Mof_C 	C 	0.9319	0.66306	0.47314	0.362
Mof_C 	C 	0.8882	0.7578	0.4658	-0.107
Mof_C 	C 	0.47314	0.9319	0.9319	0.33
Mof_C 	C 	0.4658	0.8882	0.8882	-0.099
Mof_C 	C 	0.66306	0.9319	0.9319	0.321
Mof_C 	C 	0.7578	0.8882	0.8882	-0.092
Mof_C 	C 	0.9319	0.47314	0.66306	0.362
Mof_C 	C 	0.8882	0.4658	0.7578	-0.108
Mof_C 	C 	0.47314	0.66306	0.9319	0.357
Mof_C 	C 	0.4658	0.7578	0.8882	-0.104
Mof_C 	C 	0.9319	0.9319	0.66306	0.329
Mof_C 	C 	0.8882	0.8882	0.7578	-0.096
Mof_C 	C 	0.9319	0.9319	0.47314	0.338
Mof_C 	C 	0.8882	0.8882	0.4658	-0.103
Mof_C 	C 	0.66306	0.47314	0.9319	0.359
Mof_C 	C 	0.7578	0.4658	0.8882	-0.107
Mof_C 	C 	0.1984	0.0686	0.1984	-0.028
Mof_C 	C 	0.0686	0.1984	0.5346	0.057
Mof_C 	C 	0.1984	0.5346	0.1984	0.055
Mof_C 	C 	0.5346	0.1984	0.0686	0.057
Mof_C 	C 	0.1984	0.1984	0.5346	0.058
Mof_C 	C 	0.0686	0.5346	0.1984	0.053
Mof_C 	C 	0.1984	0.1984	0.0686	-0.021
Mof_C 	C 	0.5346	0.0686	0.1984	0.056
Mof_C 	C 	0.1984	0.5346	0.0686	0.054
Mof_C 	C 	0.0686	0.1984	0.1984	0.013
Mof_C 	C 	0.1984	0.0686	0.5346	0.058
Mof_C 	C 	0.5346	0.1984	0.1984	0.058
Mof_C 	C 	0.9314	0.8016	0.8016	0.039
Mof_C 	C 	0.8016	0.9314	0.4654	0.047
Mof_C 	C 	0.4654	0.8016	0.8016	0.049
Mof_C 	C 	0.8016	0.4654	0.9314	0.051
Mof_C 	C 	0.8016	0.8016	0.4654	0.051
Mof_C 	C 	0.4654	0.9314	0.8016	0.045
Mof_C 	C 	0.8016	0.8016	0.9314	0.036
Mof_C 	C 	0.9314	0.4654	0.8016	0.052
Mof_C 	C 	0.4654	0.8016	0.9314	0.045
Mof_C 	C 	0.8016	0.9314	0.8016	0.036
Mof_C 	C 	0.9314	0.8016	0.4654	0.049
Mof_C 	C 	0.8016	0.4654	0.8016	0.053
Mof_O 	O 	0.37397	0.11277	0.99199	-0.325
Mof_O 	O 	0.11277	0.37397	0.52127	-0.404
Mof_O 	O 	0.99199	0.52127	0.37397	-0.401
Mof_O 	O 	0.52127	0.99199	0.11277	-0.413
Mof_O 	O 	0.37397	0.99199	0.52127	-0.413
Mof_O 	O 	0.11277	0.52127	0.99199	-0.4
Mof_O 	O 	0.99199	0.37397	0.11277	-0.389
Mof_O 	O 	0.52127	0.11277	0.37397	-0.405
Mof_O 	O 	0.37397	0.52127	0.11277	-0.404
Mof_O 	O 	0.11277	0.99199	0.37397	-0.401
Mof_O 	O 	0.99199	0.11277	0.52127	-0.398
Mof_O 	O 	0.52127	0.37397	0.99199	-0.405
Mof_O 	O 	0.88723	0.62603	0.00801	-0.387
Mof_O 	O 	0.62603	0.88723	0.47873	-0.401
Mof_O 	O 	0.47873	0.00801	0.62603	-0.391
Mof_O 	O 	0.00801	0.47873	0.88723	-0.396
Mof_O 	O 	0.00801	0.62603	0.47873	-0.402
Mof_O 	O 	0.47873	0.88723	0.00801	-0.397
Mof_O 	O 	0.62603	0.00801	0.88723	-0.38
Mof_O 	O 	0.88723	0.47873	0.62603	-0.403
Mof_O 	O 	0.47873	0.62603	0.88723	-0.403
Mof_O 	O 	0.00801	0.88723	0.62603	-0.391
Mof_O 	O 	0.88723	0.00801	0.47873	-0.385
Mof_O 	O 	0.62603	0.47873	0.00801	-0.397
Mof_O 	O 	0.62603	0.88723	0.00801	-0.371
Mof_O 	O 	0.88723	0.62603	0.47873	-0.403
Mof_O 	O 	0.00801	0.47873	0.62603	-0.402
Mof_O 	O 	0.47873	0.00801	0.88723	-0.39
Mof_O 	O 	0.62603	0.00801	0.47873	-0.39
Mof_O 	O 	0.88723	0.47873	0.00801	-0.392
Mof_O 	O 	0.00801	0.62603	0.88723	-0.392
Mof_O 	O 	0.47873	0.88723	0.62603	-0.401
Mof_O 	O 	0.62603	0.47873	0.88723	-0.403
Mof_O 	O 	0.88723	0.00801	0.62603	-0.382
Mof_O 	O 	0.00801	0.88723	0.47873	-0.395
Mof_O 	O 	0.47873	0.62603	0.00801	-0.397
Mof_O 	O 	0.11277	0.37397	0.99199	-0.393
Mof_O 	O 	0.37397	0.11277	0.52127	-0.405
Mof_O 	O 	0.52127	0.99199	0.37397	-0.412
Mof_O 	O 	0.99199	0.52127	0.11277	-0.396
Mof_O 	O 	0.99199	0.37397	0.52127	-0.402
Mof_O 	O 	0.52127	0.11277	0.99199	-0.406
Mof_O 	O 	0.11277	0.52127	0.37397	-0.403
Mof_O 	O 	0.52127	0.37397	0.11277	-0.404
Mof_O 	O 	0.99199	0.11277	0.37397	-0.391
Mof_O 	O 	0.11277	0.99199	0.52127	-0.408
Mof_O 	O 	0.37397	0.52127	0.99199	-0.405
Mof_O 	O 	0.5	0.8118	0.1882	-0.221
_end
