data_functionalizedCrystal
_audit_creation_method	'EQeq! by Chris Wilmer'
_symmetry_space_group_name_H-M	'P1'
_symmetry_Int_Tables_number	1
_symmetry_cell_setting	triclinic
loop_
_symmetry_equiv_pos_as_xyz
  x,y,z
_cell_length_a	12.458
_cell_length_b	12.458
_cell_length_c	24.673
_cell_angle_alpha	90
_cell_angle_beta	90
_cell_angle_gamma	120
loop_
_atom_site_label
_atom_site_type_symbol
_atom_site_fract_x
_atom_site_fract_y
_atom_site_fract_z
_atom_site_charge
Mof_Zn	Zn	-0	3.04482e-32	0.66667	1.185
Mof_Zn	Zn	1.52241e-32	1.52241e-32	0.33333	1.184
Mof_Zn	Zn	-0	0	-0	1.183
Mof_H 	H 	0.3522	0.0771	0.7553	0.088
Mof_H 	H 	0.3283	0.0251	0.6996	0.083
Mof_H 	H 	0.233	0.8913	0.795	0.092
Mof_H 	H 	0.1336	0.6657	0.7945	0.172
Mof_H 	H 	0.1185	0.5909	0.7396	0.15
Mof_H 	H 	0.0372	0.656	0.7492	0.158
Mof_H 	H 	0.2071	0.7057	0.6524	0.177
Mof_H 	H 	0.2708	0.8535	0.6515	0.218
Mof_H 	H 	0.1237	0.7696	0.658	0.173
Mof_H 	H 	0.7249	0.6478	0.42197	0.114
Mof_H 	H 	0.6968	0.6717	0.36627	0.119
Mof_H 	H 	0.6583	0.767	0.46167	0.102
Mof_H 	H 	0.5321	0.8664	0.46117	0.251
Mof_H 	H 	0.4724	0.8815	0.40627	0.239
Mof_H 	H 	0.6188	0.9628	0.41587	0.267
Mof_H 	H 	0.4986	0.7929	0.31907	0.222
Mof_H 	H 	0.5827	0.7292	0.31817	0.234
Mof_H 	H 	0.6459	0.8763	0.32467	0.249
Mof_H 	H 	0.9229	0.2751	0.08863	0.111
Mof_H 	H 	0.9749	0.3032	0.03293	0.135
Mof_H 	H 	0.1087	0.3417	0.12833	0.099
Mof_H 	H 	0.3343	0.4679	0.12783	0.222
Mof_H 	H 	0.4091	0.5276	0.07293	0.209
Mof_H 	H 	0.344	0.3812	0.08253	0.221
Mof_H 	H 	0.2943	0.5014	0.98573	0.232
Mof_H 	H 	0.1465	0.4173	0.98483	0.231
Mof_H 	H 	0.2304	0.3541	0.99133	0.24
Mof_H 	H 	0.6478	0.9229	0.7553	0.12
Mof_H 	H 	0.6717	0.9749	0.6996	0.143
Mof_H 	H 	0.767	0.1087	0.795	0.103
Mof_H 	H 	0.8664	0.3343	0.7945	0.251
Mof_H 	H 	0.8815	0.4091	0.7396	0.241
Mof_H 	H 	0.9628	0.344	0.7492	0.266
Mof_H 	H 	0.7929	0.2943	0.6524	0.218
Mof_H 	H 	0.7292	0.1465	0.6515	0.215
Mof_H 	H 	0.8763	0.2304	0.658	0.243
Mof_H 	H 	0.2751	0.3522	0.42197	0.093
Mof_H 	H 	0.3032	0.3283	0.36627	0.105
Mof_H 	H 	0.3417	0.233	0.46167	0.086
Mof_H 	H 	0.4679	0.1336	0.46117	0.174
Mof_H 	H 	0.5276	0.1185	0.40627	0.155
Mof_H 	H 	0.3812	0.0372	0.41587	0.157
Mof_H 	H 	0.5014	0.2071	0.31907	0.168
Mof_H 	H 	0.4173	0.2708	0.31817	0.185
Mof_H 	H 	0.3541	0.1237	0.32467	0.16
Mof_H 	H 	0.0771	0.7249	0.08863	0.101
Mof_H 	H 	0.0251	0.6968	0.03293	0.088
Mof_H 	H 	0.8913	0.6583	0.12833	0.103
Mof_H 	H 	0.6657	0.5321	0.12783	0.218
Mof_H 	H 	0.5909	0.4724	0.07293	0.201
Mof_H 	H 	0.656	0.6188	0.08253	0.221
Mof_H 	H 	0.7057	0.4986	0.98573	0.24
Mof_H 	H 	0.8535	0.5827	0.98483	0.277
Mof_H 	H 	0.7696	0.6459	0.99133	0.253
Mof_H 	H 	0.2751	0.9229	0.91137	0.112
Mof_H 	H 	0.3032	0.9749	0.96707	0.143
Mof_H 	H 	0.3417	0.1087	0.87167	0.09
Mof_H 	H 	0.4679	0.3343	0.87217	0.201
Mof_H 	H 	0.5276	0.4091	0.92707	0.188
Mof_H 	H 	0.3812	0.344	0.91747	0.2
Mof_H 	H 	0.5014	0.2943	0.01427	0.147
Mof_H 	H 	0.4173	0.1465	0.01517	0.147
Mof_H 	H 	0.3541	0.2304	0.00867	0.154
Mof_H 	H 	0.0771	0.3522	0.2447	0.089
Mof_H 	H 	0.0251	0.3283	0.3004	0.083
Mof_H 	H 	0.8913	0.233	0.205	0.092
Mof_H 	H 	0.6657	0.1336	0.2055	0.171
Mof_H 	H 	0.5909	0.1185	0.2604	0.15
Mof_H 	H 	0.656	0.0372	0.2508	0.158
Mof_H 	H 	0.7057	0.2071	0.3476	0.177
Mof_H 	H 	0.8535	0.2708	0.3485	0.218
Mof_H 	H 	0.7696	0.1237	0.342	0.172
Mof_H 	H 	0.6478	0.7249	0.57803	0.114
Mof_H 	H 	0.6717	0.6968	0.63373	0.119
Mof_H 	H 	0.767	0.6583	0.53833	0.102
Mof_H 	H 	0.8664	0.5321	0.53883	0.251
Mof_H 	H 	0.8815	0.4724	0.59373	0.239
Mof_H 	H 	0.9628	0.6188	0.58413	0.267
Mof_H 	H 	0.7929	0.4986	0.68093	0.222
Mof_H 	H 	0.7292	0.5827	0.68183	0.234
Mof_H 	H 	0.8763	0.6459	0.67533	0.249
Mof_H 	H 	0.7249	0.0771	0.91137	0.102
Mof_H 	H 	0.6968	0.0251	0.96707	0.096
Mof_H 	H 	0.6583	0.8913	0.87167	0.095
Mof_H 	H 	0.5321	0.6657	0.87217	0.2
Mof_H 	H 	0.4724	0.5909	0.92707	0.182
Mof_H 	H 	0.6188	0.656	0.91747	0.203
Mof_H 	H 	0.4986	0.7057	0.01427	0.165
Mof_H 	H 	0.5827	0.8535	0.01517	0.204
Mof_H 	H 	0.6459	0.7696	0.00867	0.177
Mof_H 	H 	0.9229	0.6478	0.2447	0.12
Mof_H 	H 	0.9749	0.6717	0.3004	0.143
Mof_H 	H 	0.1087	0.767	0.205	0.103
Mof_H 	H 	0.3343	0.8664	0.2055	0.251
Mof_H 	H 	0.4091	0.8815	0.2604	0.242
Mof_H 	H 	0.344	0.9628	0.2508	0.267
Mof_H 	H 	0.2943	0.7929	0.3476	0.218
Mof_H 	H 	0.1465	0.7292	0.3485	0.215
Mof_H 	H 	0.2304	0.8763	0.342	0.244
Mof_H 	H 	0.3522	0.2751	0.57803	0.093
Mof_H 	H 	0.3283	0.3032	0.63373	0.105
Mof_H 	H 	0.233	0.3417	0.53833	0.086
Mof_H 	H 	0.1336	0.4679	0.53883	0.174
Mof_H 	H 	0.1185	0.5276	0.59373	0.155
Mof_H 	H 	0.0372	0.3812	0.58413	0.157
Mof_H 	H 	0.2071	0.5014	0.68093	0.169
Mof_H 	H 	0.2708	0.4173	0.68183	0.186
Mof_H 	H 	0.1237	0.3541	0.67533	0.161
Mof_Pt	Pt	0.5	0	0.73834	0.083
Mof_Pt	Pt	0.5	0.5	0.40501	0.233
Mof_Pt	Pt	-1.73829e-17	0.5	0.07167	0.078
Mof_Pt	Pt	0.5	0	0.92833	0.087
Mof_Pt	Pt	5.1e-18	0.5	0.26166	0.083
Mof_Pt	Pt	0.5	0.5	0.59499	0.233
Mof_Au	Au	0.39311	0.78622	0.83333	0.086
Mof_Au	Au	0.39311	0.6069	0.5	0.056
Mof_Au	Au	0.21379	0.6069	0.16667	0.053
Mof_Au	Au	0.60689	0.21378	0.83333	0.051
Mof_Au	Au	0.60689	0.3931	0.5	0.056
Mof_Au	Au	0.78621	0.3931	0.16667	0.087
Mof_C 	C 	0.2183	0.7801	0.7292	0.29
Mof_C 	C 	0.2274	0.8964	0.7547	-0.146
Mof_C 	C 	0.1181	0.6629	0.7555	-0.579
Mof_C 	C 	0.2036	0.7769	0.6671	-0.595
Mof_C 	C 	0.1124	0.9064	0.741	0.364
Mof_C 	C 	0.5618	0.7817	0.39587	0.379
Mof_C 	C 	0.669	0.7726	0.42137	-0.229
Mof_C 	C 	0.5448	0.8819	0.42217	-0.749
Mof_C 	C 	0.5733	0.7964	0.33377	-0.706
Mof_C 	C 	0.794	0.8876	0.40767	0.367
Mof_C 	C 	0.2199	0.4382	0.06253	0.383
Mof_C 	C 	0.1036	0.331	0.08803	-0.308
Mof_C 	C 	0.3371	0.4552	0.08883	-0.706
Mof_C 	C 	0.2231	0.4267	0.00043	-0.756
Mof_C 	C 	0.0936	0.206	0.07433	0.394
Mof_C 	C 	0.7817	0.2199	0.7292	0.386
Mof_C 	C 	0.7726	0.1036	0.7547	-0.295
Mof_C 	C 	0.8819	0.3371	0.7555	-0.753
Mof_C 	C 	0.7964	0.2231	0.6671	-0.7
Mof_C 	C 	0.8876	0.0936	0.741	0.382
Mof_C 	C 	0.4382	0.2183	0.39587	0.3
Mof_C 	C 	0.331	0.2274	0.42137	-0.22
Mof_C 	C 	0.4552	0.1181	0.42217	-0.585
Mof_C 	C 	0.4267	0.2036	0.33377	-0.579
Mof_C 	C 	0.206	0.1124	0.40767	0.381
Mof_C 	C 	0.7801	0.5618	0.06253	0.362
Mof_C 	C 	0.8964	0.669	0.08803	-0.167
Mof_C 	C 	0.6629	0.5448	0.08883	-0.691
Mof_C 	C 	0.7769	0.5733	0.00043	-0.764
Mof_C 	C 	0.9064	0.794	0.07433	0.362
Mof_C 	C 	0.4382	0.2199	0.93747	0.307
Mof_C 	C 	0.331	0.1036	0.91197	-0.276
Mof_C 	C 	0.4552	0.3371	0.91117	-0.633
Mof_C 	C 	0.4267	0.2231	0.99957	-0.51
Mof_C 	C 	0.206	0.0936	0.92567	0.384
Mof_C 	C 	0.7801	0.2183	0.2708	0.29
Mof_C 	C 	0.8964	0.2274	0.2453	-0.146
Mof_C 	C 	0.6629	0.1181	0.2445	-0.578
Mof_C 	C 	0.7769	0.2036	0.3329	-0.595
Mof_C 	C 	0.9064	0.1124	0.259	0.364
Mof_C 	C 	0.7817	0.5618	0.60413	0.379
Mof_C 	C 	0.7726	0.669	0.57863	-0.229
Mof_C 	C 	0.8819	0.5448	0.57783	-0.749
Mof_C 	C 	0.7964	0.5733	0.66623	-0.705
Mof_C 	C 	0.8876	0.794	0.59233	0.367
Mof_C 	C 	0.5618	0.7801	0.93747	0.295
Mof_C 	C 	0.669	0.8964	0.91197	-0.14
Mof_C 	C 	0.5448	0.6629	0.91117	-0.627
Mof_C 	C 	0.5733	0.7769	0.99957	-0.548
Mof_C 	C 	0.794	0.9064	0.92567	0.353
Mof_C 	C 	0.2199	0.7817	0.2708	0.387
Mof_C 	C 	0.1036	0.7726	0.2453	-0.296
Mof_C 	C 	0.3371	0.8819	0.2445	-0.754
Mof_C 	C 	0.2231	0.7964	0.3329	-0.701
Mof_C 	C 	0.0936	0.8876	0.259	0.382
Mof_C 	C 	0.2183	0.4382	0.60413	0.3
Mof_C 	C 	0.2274	0.331	0.57863	-0.22
Mof_C 	C 	0.1181	0.4552	0.57783	-0.586
Mof_C 	C 	0.2036	0.4267	0.66623	-0.58
Mof_C 	C 	0.1124	0.206	0.59233	0.381
Mof_S 	S 	0.37051	0.78842	0.7411	-0.112
Mof_S 	S 	0.41791	0.62949	0.40777	-0.191
Mof_S 	S 	0.21158	0.58209	0.07443	-0.168
Mof_S 	S 	0.62949	0.21158	0.7411	-0.173
Mof_S 	S 	0.58209	0.37051	0.40777	-0.165
Mof_S 	S 	0.78842	0.41791	0.07443	-0.132
Mof_S 	S 	0.58209	0.21158	0.92557	-0.15
Mof_S 	S 	0.78842	0.37051	0.2589	-0.112
Mof_S 	S 	0.62949	0.41791	0.59223	-0.191
Mof_S 	S 	0.41791	0.78842	0.92557	-0.116
Mof_S 	S 	0.21158	0.62949	0.2589	-0.174
Mof_S 	S 	0.37051	0.58209	0.59223	-0.165
Mof_N 	N 	0.3412	0.0106	0.7349	-0.245
Mof_N 	N 	0.6694	0.6588	0.40157	-0.223
Mof_N 	N 	0.9894	0.3306	0.06823	-0.153
Mof_N 	N 	0.6588	0.9894	0.7349	-0.161
Mof_N 	N 	0.3306	0.3412	0.40157	-0.217
Mof_N 	N 	0.0106	0.6694	0.06823	-0.244
Mof_N 	N 	0.3306	0.9894	0.93177	-0.16
Mof_N 	N 	0.0106	0.3412	0.2651	-0.245
Mof_N 	N 	0.6588	0.6694	0.59843	-0.223
Mof_N 	N 	0.6694	0.0106	0.93177	-0.249
Mof_N 	N 	0.9894	0.6588	0.2651	-0.161
Mof_N 	N 	0.3412	0.3306	0.59843	-0.217
Mof_O 	O 	0.1244	0.972	0.6994	-0.424
Mof_O 	O 	0.0188	0.8494	0.7685	-0.328
Mof_O 	O 	0.8476	0.8756	0.36607	-0.396
Mof_O 	O 	0.8306	0.9812	0.43517	-0.237
Mof_O 	O 	0.028	0.1524	0.03273	-0.542
Mof_O 	O 	0.1506	0.1694	0.10183	-0.362
Mof_O 	O 	0.8756	0.028	0.6994	-0.475
Mof_O 	O 	0.9812	0.1506	0.7685	-0.284
Mof_O 	O 	0.1524	0.1244	0.36607	-0.513
Mof_O 	O 	0.1694	0.0188	0.43517	-0.382
Mof_O 	O 	0.972	0.8476	0.03273	-0.375
Mof_O 	O 	0.8494	0.8306	0.10183	-0.26
Mof_O 	O 	0.1524	0.028	0.96727	-0.53
Mof_O 	O 	0.1694	0.1506	0.89817	-0.357
Mof_O 	O 	0.972	0.1244	0.3006	-0.424
Mof_O 	O 	0.8494	0.0188	0.2315	-0.328
Mof_O 	O 	0.8756	0.8476	0.63393	-0.396
Mof_O 	O 	0.9812	0.8306	0.56483	-0.238
Mof_O 	O 	0.8476	0.972	0.96727	-0.365
Mof_O 	O 	0.8306	0.8494	0.89817	-0.257
Mof_O 	O 	0.028	0.8756	0.3006	-0.475
Mof_O 	O 	0.1506	0.9812	0.2315	-0.283
Mof_O 	O 	0.1244	0.1524	0.63393	-0.512
Mof_O 	O 	0.0188	0.1694	0.56483	-0.381
_end
