data_functionalizedCrystal
_audit_creation_method	'EQeq! by Chris Wilmer'
_symmetry_space_group_name_H-M	'P1'
_symmetry_Int_Tables_number	1
_symmetry_cell_setting	triclinic
loop_
_symmetry_equiv_pos_as_xyz
  x,y,z
_cell_length_a	9.3254
_cell_length_b	9.428
_cell_length_c	14.306
_cell_angle_alpha	96.449
_cell_angle_beta	103.879
_cell_angle_gamma	104.35
loop_
_atom_site_label
_atom_site_type_symbol
_atom_site_fract_x
_atom_site_fract_y
_atom_site_fract_z
_atom_site_charge
Mof_Mg	Mg	0.20695	0.48237	0.89214	1.469
Mof_Mg	Mg	0.16084	0.29821	0.53675	1.467
Mof_P 	P 	0.33949	0.59343	0.71123	0.578
Mof_O 	O 	0.25911	0.59703	0.79062	-0.449
Mof_O 	O 	0.31249	0.44102	0.65459	-0.492
Mof_O 	O 	0.51454	0.66767	0.75113	-0.225
Mof_O 	O 	0.27001	0.69471	0.64198	-0.427
Mof_H 	H 	0.3318	0.7304	0.6127	0.261
Mof_O 	O 	0.05086	0.60278	0.9135	-0.38
Mof_O 	O 	0.88683	0.6201	0.00228	-0.388
Mof_O 	O 	0.39429	0.6277	0.0046	-0.372
Mof_O 	O 	0.63122	0.63904	0.09309	-0.394
Mof_O 	O 	0.99605	0.12868	0.42257	-0.382
Mof_O 	O 	0.87423	0.88553	0.39272	-0.412
Mof_O 	O 	0.12749	0.44567	0.44259	-0.416
Mof_O 	O 	0.0141	0.62725	0.42108	-0.402
Mof_C 	C 	0.9818	0.5655	0.97538	0.234
Mof_C 	C 	0.5064	0.5775	0.02772	0.243
Mof_C 	C 	0.9622	0.0046	0.4462	0.229
Mof_C 	C 	0.0411	0.5224	0.4602	0.258
Mof_Mg	Mg	0.79305	0.51763	0.10786	1.469
Mof_Mg	Mg	0.83916	0.70179	0.46325	1.467
Mof_P 	P 	0.66051	0.40657	0.28877	0.578
Mof_O 	O 	0.74089	0.40297	0.20938	-0.449
Mof_O 	O 	0.68751	0.55898	0.34541	-0.492
Mof_O 	O 	0.48546	0.33233	0.24887	-0.225
Mof_O 	O 	0.72999	0.30529	0.35802	-0.427
Mof_H 	H 	0.6682	0.2696	0.3873	0.261
Mof_O 	O 	0.94914	0.39722	0.0865	-0.38
Mof_O 	O 	0.11317	0.3799	0.99772	-0.388
Mof_O 	O 	0.60571	0.3723	0.9954	-0.372
Mof_O 	O 	0.36878	0.36096	0.90691	-0.394
Mof_O 	O 	0.00395	0.87132	0.57743	-0.382
Mof_O 	O 	0.12577	0.11447	0.60728	-0.412
Mof_O 	O 	0.87251	0.55433	0.55741	-0.416
Mof_O 	O 	0.9859	0.37275	0.57892	-0.402
Mof_C 	C 	0.0182	0.4345	0.02462	0.234
Mof_C 	C 	0.4936	0.4225	0.97228	0.243
Mof_C 	C 	0.0378	0.9954	0.5538	0.229
Mof_C 	C 	0.9589	0.4776	0.5398	0.258
_end
