data_functionalizedCrystal
_audit_creation_method	'EQeq! by Chris Wilmer'
_symmetry_space_group_name_H-M	'P1'
_symmetry_Int_Tables_number	1
_symmetry_cell_setting	triclinic
loop_
_symmetry_equiv_pos_as_xyz
  x,y,z
_cell_length_a	11.9286
_cell_length_b	11.9286
_cell_length_c	10.469
_cell_angle_alpha	90
_cell_angle_beta	90
_cell_angle_gamma	120
loop_
_atom_site_label
_atom_site_type_symbol
_atom_site_fract_x
_atom_site_fract_y
_atom_site_fract_z
_atom_site_charge
Mof_N 	N 	0.10644	0.51732	0.22491	-0.224
Mof_N 	N 	0.15051	0.53182	0.34931	-0.235
Mof_C 	C 	0.2603	0.5301	0.3451	0.182
Mof_N 	N 	0.29002	0.5149	0.22215	-0.258
Mof_C 	C 	0.192	0.5087	0.1519	0.084
Mof_H 	H 	0.1857	0.4995	0.0636	-0.046
Mof_N 	N 	0.3279	0.532	0.4499	-0.323
Mof_H 	H 	0.2998	0.5344	0.5249	0.121
Mof_H 	H 	0.399	0.5307	0.4414	0.135
Mof_O 	O 	0.4017	0.36773	0.2986	-0.509
Mof_H 	H 	0.4539	0.3422	0.2938	0.224
Mof_Cu	Cu	0.43765	0.49782	0.15982	0.854
Mof_N 	N 	0.48268	0.58912	0.89158	-0.226
Mof_N 	N 	0.46818	0.61869	0.01598	-0.236
Mof_C 	C 	0.4699	0.7302	0.01177	0.183
Mof_N 	N 	0.4851	0.77512	0.88882	-0.26
Mof_C 	C 	0.4913	0.6833	0.81857	0.083
Mof_H 	H 	0.5005	0.6862	0.73027	-0.048
Mof_N 	N 	0.468	0.7959	0.11657	-0.324
Mof_H 	H 	0.4656	0.7654	0.19157	0.121
Mof_H 	H 	0.4693	0.8683	0.10807	0.136
Mof_O 	O 	0.63227	0.03397	0.96527	-0.506
Mof_H 	H 	0.6578	0.1117	0.96047	0.225
Mof_Cu	Cu	0.50218	0.93983	0.82649	0.853
Mof_N 	N 	0.41088	0.89356	0.55824	-0.225
Mof_N 	N 	0.38131	0.84949	0.68264	-0.236
Mof_C 	C 	0.2698	0.7397	0.67843	0.181
Mof_N 	N 	0.22488	0.70998	0.55548	-0.259
Mof_C 	C 	0.3167	0.808	0.48523	0.083
Mof_H 	H 	0.3138	0.8143	0.39693	-0.047
Mof_N 	N 	0.2041	0.6721	0.78323	-0.323
Mof_H 	H 	0.2346	0.7002	0.85823	0.119
Mof_H 	H 	0.1317	0.601	0.77473	0.133
Mof_O 	O 	0.96603	0.5983	0.63193	-0.507
Mof_H 	H 	0.8883	0.5461	0.62713	0.224
Mof_Cu	Cu	0.06017	0.56235	0.49315	0.854
Mof_N 	N 	0.51732	0.10644	0.77509	-0.225
Mof_N 	N 	0.53182	0.15051	0.65069	-0.236
Mof_C 	C 	0.5301	0.2603	0.6549	0.181
Mof_N 	N 	0.5149	0.29002	0.77785	-0.259
Mof_C 	C 	0.5087	0.192	0.8481	0.083
Mof_H 	H 	0.4995	0.1857	0.9364	-0.047
Mof_N 	N 	0.532	0.3279	0.5501	-0.323
Mof_H 	H 	0.5344	0.2998	0.4751	0.121
Mof_H 	H 	0.5307	0.399	0.5586	0.135
Mof_O 	O 	0.36773	0.4017	0.7014	-0.509
Mof_H 	H 	0.3422	0.4539	0.7062	0.224
Mof_Cu	Cu	0.49782	0.43765	0.84018	0.854
Mof_N 	N 	0.58912	0.48268	0.10842	-0.226
Mof_N 	N 	0.61869	0.46818	0.98402	-0.236
Mof_C 	C 	0.7302	0.4699	0.98823	0.183
Mof_N 	N 	0.77512	0.4851	0.11118	-0.26
Mof_C 	C 	0.6833	0.4913	0.18143	0.083
Mof_H 	H 	0.6862	0.5005	0.26973	-0.048
Mof_N 	N 	0.7959	0.468	0.88343	-0.324
Mof_H 	H 	0.7654	0.4656	0.80843	0.121
Mof_H 	H 	0.8683	0.4693	0.89193	0.136
Mof_O 	O 	0.03397	0.63227	0.03473	-0.506
Mof_H 	H 	0.1117	0.6578	0.03953	0.225
Mof_Cu	Cu	0.93983	0.50218	0.17351	0.853
Mof_N 	N 	0.89356	0.41088	0.44176	-0.225
Mof_N 	N 	0.84949	0.38131	0.31736	-0.236
Mof_C 	C 	0.7397	0.2698	0.32157	0.181
Mof_N 	N 	0.70998	0.22488	0.44452	-0.259
Mof_C 	C 	0.808	0.3167	0.51477	0.083
Mof_H 	H 	0.8143	0.3138	0.60307	-0.047
Mof_N 	N 	0.6721	0.2041	0.21677	-0.323
Mof_H 	H 	0.7002	0.2346	0.14177	0.119
Mof_H 	H 	0.601	0.1317	0.22527	0.133
Mof_O 	O 	0.5983	0.96603	0.36807	-0.507
Mof_H 	H 	0.5461	0.8883	0.37287	0.224
Mof_Cu	Cu	0.56235	0.06017	0.50685	0.854
_end
