data_functionalizedCrystal
_audit_creation_method	'EQeq! by Chris Wilmer'
_symmetry_space_group_name_H-M	'P1'
_symmetry_Int_Tables_number	1
_symmetry_cell_setting	triclinic
loop_
_symmetry_equiv_pos_as_xyz
  x,y,z
_cell_length_a	9.2236
_cell_length_b	13.0421
_cell_length_c	18.6389
_cell_angle_alpha	72.1035
_cell_angle_beta	75.6746
_cell_angle_gamma	69.2918
loop_
_atom_site_label
_atom_site_type_symbol
_atom_site_fract_x
_atom_site_fract_y
_atom_site_fract_z
_atom_site_charge
Mof_Gd	Gd	0.26255	0.58914	0.49308	1.616
Mof_Gd	Gd	0.65523	0.08914	0.99308	1.609
Mof_Gd	Gd	0.73745	0.41086	0.50692	1.616
Mof_Gd	Gd	0.34477	0.91086	0.00692	1.609
Mof_Zn	Zn	0.72643	0.41054	0.1661	1.205
Mof_Zn	Zn	0.27357	0.58946	0.8339	1.205
Mof_Zn	Zn	0.30307	0.08946	0.3339	1.205
Mof_Zn	Zn	0.69693	0.91054	0.6661	1.205
Mof_H 	H 	0.3858	0.8979	0.5827	0.273
Mof_H 	H 	0.1336	0.3979	0.0827	0.274
Mof_H 	H 	0.1367	0.4491	0.1479	0.275
Mof_H 	H 	0.7337	0.0509	0.3521	0.274
Mof_H 	H 	0.8633	0.5509	0.8521	0.275
Mof_H 	H 	0.2663	0.9491	0.6479	0.274
Mof_H 	H 	0.3634	0.4184	0.3064	0.271
Mof_H 	H 	0.5011	0.3369	0.3509	0.27
Mof_H 	H 	0.9118	0.9184	0.8064	0.27
Mof_H 	H 	0.6558	0.693	0.6344	0.281
Mof_H 	H 	0.9832	0.807	0.8656	0.279
Mof_H 	H 	0.2303	0.9938	0.564	0.296
Mof_H 	H 	0.8111	0.8369	0.8509	0.27
Mof_H 	H 	0.2119	0.4938	0.064	0.298
Mof_H 	H 	0.7881	0.5062	0.936	0.298
Mof_H 	H 	0.3442	0.307	0.3656	0.281
Mof_H 	H 	0.0168	0.193	0.1344	0.279
Mof_H 	H 	0.7697	0.0062	0.436	0.296
Mof_H 	H 	0.8664	0.6021	0.9173	0.274
Mof_H 	H 	0.4989	0.6631	0.6491	0.27
Mof_H 	H 	0.6142	0.1021	0.4173	0.273
Mof_H 	H 	0.6366	0.5816	0.6936	0.271
Mof_H 	H 	0.1889	0.1631	0.1491	0.27
Mof_H 	H 	0.0882	0.0816	0.1936	0.27
Mof_C 	C 	0.0262	0.2205	0.2333	0.317
Mof_C 	C 	0.1164	0.6584	0.7006	-0.063
Mof_C 	C 	0.3931	0.0525	0.5803	0.321
Mof_C 	C 	0.7274	0.2407	0.0917	0.349
Mof_C 	C 	0.9148	0.8409	0.8277	-0.883
Mof_C 	C 	0.9738	0.7795	0.7667	0.317
Mof_C 	C 	0.5834	0.6591	0.6723	-0.885
Mof_C 	C 	0.6117	0.2322	0.162	-0.069
Mof_C 	C 	0.1278	0.4656	0.095	-0.868
Mof_C 	C 	0.3831	0.3451	0.5201	0.354
Mof_C 	C 	0.6169	0.6549	0.4799	0.354
Mof_C 	C 	0.2483	0.1549	0.9799	0.353
Mof_C 	C 	0.6884	0.0344	0.405	-0.861
Mof_C 	C 	0.4754	0.8416	0.7994	-0.063
Mof_C 	C 	0.2838	0.8614	0.417	0.397
Mof_C 	C 	0.0059	0.2678	0.338	-0.072
Mof_C 	C 	0.2726	0.7593	0.9083	0.349
Mof_C 	C 	0.8059	0.7205	0.0417	-0.04
Mof_C 	C 	0.7162	0.1386	0.583	0.397
Mof_C 	C 	0.4378	0.3614	0.917	0.397
Mof_C 	C 	0.9941	0.7322	0.662	-0.072
Mof_C 	C 	0.5246	0.1584	0.2006	-0.063
Mof_C 	C 	0.7517	0.8451	0.0201	0.353
Mof_C 	C 	0.4319	0.2205	0.5417	-0.04
Mof_C 	C 	0.3883	0.7678	0.838	-0.069
Mof_C 	C 	0.6069	0.9475	0.4197	0.321
Mof_C 	C 	0.9402	0.7407	0.5917	0.349
Mof_C 	C 	0.2701	0.3628	0.927	-0.077
Mof_C 	C 	0.8836	0.3416	0.2994	-0.063
Mof_C 	C 	0.5622	0.6386	0.083	0.397
Mof_C 	C 	0.3116	0.9656	0.595	-0.861
Mof_C 	C 	0.9741	0.5525	0.0803	0.325
Mof_C 	C 	0.7299	0.6372	0.073	-0.077
Mof_C 	C 	0.5025	0.0605	0.1849	0.335
Mof_C 	C 	0.0852	0.1591	0.1723	-0.883
Mof_C 	C 	0.5681	0.7795	0.4583	-0.04
Mof_C 	C 	0.0259	0.4475	0.9197	0.325
Mof_C 	C 	0.4401	0.8628	0.427	-0.077
Mof_C 	C 	0.2521	0.5605	0.6849	0.336
Mof_C 	C 	0.4975	0.9395	0.8151	0.335
Mof_C 	C 	0.52	0.7205	0.7333	0.319
Mof_C 	C 	0.1941	0.2795	0.9583	-0.04
Mof_C 	C 	0.5599	0.1372	0.573	-0.077
Mof_C 	C 	0.4166	0.3409	0.3277	-0.885
Mof_C 	C 	0.48	0.2795	0.2667	0.319
Mof_C 	C 	0.8722	0.5344	0.905	-0.868
Mof_C 	C 	0.7479	0.4395	0.3151	0.336
Mof_C 	C 	0.0598	0.2593	0.4083	0.349
Mof_N 	N 	0.5574	0.8106	0.734	-0.291
Mof_N 	N 	0.5321	0.0347	0.5971	-0.27
Mof_N 	N 	0.4426	0.1894	0.266	-0.291
Mof_N 	N 	0.102	0.6894	0.766	-0.29
Mof_N 	N 	0.9045	0.8078	0.7046	-0.28
Mof_N 	N 	0.898	0.3106	0.234	-0.29
Mof_N 	N 	0.4169	0.6922	0.7954	-0.281
Mof_N 	N 	0.6722	0.8375	0.4515	-0.147
Mof_N 	N 	0.8361	0.5347	0.0971	-0.27
Mof_N 	N 	0.4679	0.9653	0.4029	-0.27
Mof_N 	N 	0.1639	0.4653	0.9029	-0.27
Mof_N 	N 	0.0955	0.1922	0.2954	-0.28
Mof_N 	N 	0.3278	0.1625	0.5485	-0.147
Mof_N 	N 	0.9612	0.6625	0.0485	-0.147
Mof_N 	N 	0.0388	0.3375	0.9515	-0.147
Mof_N 	N 	0.5831	0.3078	0.2046	-0.281
Mof_O 	O 	0.2118	0.68	0.925	-0.413
Mof_O 	O 	0.2844	0.5352	0.621	-0.444
Mof_O 	O 	0.7584	0.6036	0.4846	-0.422
Mof_O 	O 	0.3336	0.5055	0.7373	-0.409
Mof_O 	O 	0.38557	0.10116	0.9949	-0.527
Mof_O 	O 	0.7948	0.0513	0.6221	-0.433
Mof_O 	O 	0.7156	0.4648	0.379	-0.444
Mof_O 	O 	0.5355	0.2754	0.9494	-0.485
Mof_O 	O 	0.4236	0.0055	0.2373	-0.408
Mof_O 	O 	0.7882	0.32	0.075	-0.413
Mof_O 	O 	0.9869	0.3302	0.448	-0.442
Mof_O 	O 	0.7651	0.1698	0.052	-0.439
Mof_O 	O 	0.5318	0.5513	0.1221	-0.432
Mof_O 	O 	0.5594	0.0352	0.121	-0.441
Mof_O 	O 	0.61443	0.89884	0.0051	-0.527
Mof_O 	O 	0.51837	0.60116	0.4949	-0.528
Mof_O 	O 	0.6664	0.4945	0.2627	-0.409
Mof_O 	O 	0.2052	0.9487	0.3779	-0.433
Mof_O 	O 	0.0131	0.6698	0.552	-0.442
Mof_O 	O 	0.1534	0.1036	0.9846	-0.422
Mof_O 	O 	0.8168	0.82	0.575	-0.414
Mof_O 	O 	0.5764	0.9945	0.7627	-0.408
Mof_O 	O 	0.2416	0.3964	0.5154	-0.422
Mof_O 	O 	0.8466	0.8964	0.0154	-0.422
Mof_O 	O 	0.7603	0.2246	0.5506	-0.485
Mof_O 	O 	0.2397	0.7754	0.4494	-0.485
Mof_O 	O 	0.1832	0.18	0.425	-0.414
Mof_O 	O 	0.4682	0.4487	0.8779	-0.432
Mof_O 	O 	0.2349	0.8302	0.948	-0.439
Mof_O 	O 	0.4406	0.9648	0.879	-0.441
Mof_O 	O 	0.4645	0.7246	0.0506	-0.485
Mof_O 	O 	0.48163	0.39884	0.5051	-0.528
_end
