data_functionalizedCrystal
_audit_creation_method	'EQeq! by Chris Wilmer'
_symmetry_space_group_name_H-M	'P1'
_symmetry_Int_Tables_number	1
_symmetry_cell_setting	triclinic
loop_
_symmetry_equiv_pos_as_xyz
  x,y,z
_cell_length_a	11.3127
_cell_length_b	14.687
_cell_length_c	14.766
_cell_angle_alpha	85.881
_cell_angle_beta	79.811
_cell_angle_gamma	70.3
loop_
_atom_site_label
_atom_site_type_symbol
_atom_site_fract_x
_atom_site_fract_y
_atom_site_fract_z
_atom_site_charge
Mof_Pt	Pt	0.2572	0.75276	0.50498	0.12
Mof_Pt	Pt	0.33002	0.75755	0.00565	0.13
Mof_Se	Se	0.08101	0.63685	0.09421	0.006
Mof_Se	Se	0.99917	0.37894	0.39289	0.01
Mof_Fe	Fe	0.5418	0.50671	0.252	0.646
Mof_Fe	Fe	0.10576	0.02126	0.25236	0.561
Mof_N 	N 	0.7094	0.5539	0.1992	-0.182
Mof_N 	N 	0.9493	0.8674	0.8595	-0.182
Mof_N 	N 	0.3752	0.4572	0.3021	-0.18
Mof_N 	N 	0.0714	0.1712	0.6492	-0.135
Mof_N 	N 	0.4637	0.6156	0.3581	-0.171
Mof_N 	N 	0.3528	0.5938	0.6542	-0.175
Mof_N 	N 	0.0402	0.8835	0.6508	-0.176
Mof_N 	N 	0.1668	0.9156	0.3575	-0.175
Mof_N 	N 	0.2404	0.9229	0.1512	-0.174
Mof_N 	N 	0.2338	0.9181	0.8579	-0.115
Mof_N 	N 	0.3992	0.5992	0.854	-0.172
Mof_N 	N 	0.4374	0.6064	0.1575	-0.171
Mof_C 	C 	0.7415	0.5708	0.1092	0.075
Mof_H 	H 	0.6896	0.5652	0.0681	0
Mof_C 	C 	0.8494	0.5966	0.0743	-0.137
Mof_H 	H 	0.8698	0.6073	0.0108	0.075
Mof_C 	C 	0.9267	0.6064	0.1351	0.059
Mof_C 	C 	0.8923	0.5895	0.2268	-0.141
Mof_H 	H 	0.9416	0.5956	0.2696	0.078
Mof_C 	C 	0.7837	0.5634	0.2566	0.079
Mof_H 	H 	0.7618	0.5519	0.3198	-0.002
Mof_C 	C 	0.0225	0.7294	0.999	0.056
Mof_C 	C 	0.9658	0.8251	0.0196	-0.132
Mof_H 	H 	0.9515	0.8458	0.0805	0.076
Mof_C 	C 	0.9295	0.8918	0.949	0.068
Mof_H 	H 	0.8889	0.9572	0.9644	0.005
Mof_C 	C 	0.0087	0.773	0.8399	0.077
Mof_H 	H 	0.025	0.7539	0.7782	-0.001
Mof_C 	C 	0.0469	0.7023	0.907	-0.138
Mof_H 	H 	0.0886	0.6372	0.8905	0.076
Mof_C 	C 	0.3388	0.4369	0.3909	0.074
Mof_H 	H 	0.3894	0.4405	0.4337	0.002
Mof_C 	C 	0.2314	0.4109	0.4237	-0.139
Mof_H 	H 	0.2102	0.3977	0.4865	0.076
Mof_C 	C 	0.156	0.4048	0.3603	0.051
Mof_C 	C 	0.1949	0.4234	0.267	-0.141
Mof_H 	H 	0.1478	0.4183	0.2222	0.073
Mof_C 	C 	0.3014	0.4489	0.2421	0.077
Mof_H 	H 	0.3253	0.4615	0.1795	-0
Mof_C 	C 	0.0341	0.2996	0.5005	0.048
Mof_C 	C 	0.9592	0.3223	0.5828	-0.138
Mof_H 	H 	0.8946	0.3827	0.5914	0.075
Mof_C 	C 	0.9782	0.2551	0.6556	0.071
Mof_H 	H 	0.922	0.2705	0.7116	0.006
Mof_C 	C 	0.1434	0.1455	0.5645	0.059
Mof_H 	H 	0.2053	0.0837	0.5575	0.013
Mof_C 	C 	0.1288	0.2069	0.4884	-0.123
Mof_H 	H 	0.1797	0.1878	0.4309	0.065
Mof_C 	C 	0.3902	0.6678	0.4112	0.027
Mof_C 	C 	0.3133	0.6516	0.6015	0.03
Mof_C 	C 	0.1198	0.8364	0.5979	0.032
Mof_C 	C 	0.2013	0.856	0.4101	0.034
Mof_C 	C 	0.2767	0.861	0.099	0.024
Mof_C 	C 	0.2671	0.8582	0.9115	0.018
Mof_C 	C 	0.3743	0.656	0.9108	0.027
Mof_C 	C 	0.3969	0.6606	0.1006	0.022
Mof_Pt	Pt	0.7428	0.24724	0.49502	0.119
Mof_Pt	Pt	0.66998	0.24245	0.99435	0.129
Mof_Se	Se	0.91899	0.36315	0.90579	0.006
Mof_Se	Se	0.00083	0.62106	0.60711	0.01
Mof_Fe	Fe	0.4582	0.49329	0.748	0.646
Mof_Fe	Fe	0.89424	0.97874	0.74764	0.561
Mof_N 	N 	0.2906	0.4461	0.8008	-0.182
Mof_N 	N 	0.0507	0.1326	0.1405	-0.182
Mof_N 	N 	0.6248	0.5428	0.6979	-0.18
Mof_N 	N 	0.9286	0.8288	0.3508	-0.135
Mof_N 	N 	0.5363	0.3844	0.6419	-0.171
Mof_N 	N 	0.6472	0.4062	0.3458	-0.175
Mof_N 	N 	0.9598	0.1165	0.3492	-0.176
Mof_N 	N 	0.8332	0.0844	0.6425	-0.175
Mof_N 	N 	0.7596	0.0771	0.8488	-0.174
Mof_N 	N 	0.7662	0.0819	0.1421	-0.115
Mof_N 	N 	0.6008	0.4008	0.146	-0.172
Mof_N 	N 	0.5626	0.3936	0.8425	-0.171
Mof_C 	C 	0.2585	0.4292	0.8908	0.075
Mof_H 	H 	0.3104	0.4348	0.9319	0
Mof_C 	C 	0.1506	0.4034	0.9257	-0.137
Mof_H 	H 	0.1302	0.3927	0.9892	0.075
Mof_C 	C 	0.0733	0.3936	0.8649	0.059
Mof_C 	C 	0.1077	0.4105	0.7732	-0.141
Mof_H 	H 	0.0584	0.4044	0.7304	0.078
Mof_C 	C 	0.2163	0.4366	0.7434	0.079
Mof_H 	H 	0.2382	0.4481	0.6802	-0.002
Mof_C 	C 	0.9775	0.2706	0.001	0.056
Mof_C 	C 	0.0342	0.1749	0.9804	-0.132
Mof_H 	H 	0.0485	0.1542	0.9195	0.076
Mof_C 	C 	0.0705	0.1082	0.051	0.068
Mof_H 	H 	0.1111	0.0428	0.0356	0.005
Mof_C 	C 	0.9913	0.227	0.1601	0.077
Mof_H 	H 	0.975	0.2461	0.2218	-0.001
Mof_C 	C 	0.9531	0.2977	0.093	-0.138
Mof_H 	H 	0.9114	0.3628	0.1095	0.076
Mof_C 	C 	0.6612	0.5631	0.6091	0.074
Mof_H 	H 	0.6106	0.5595	0.5663	0.002
Mof_C 	C 	0.7686	0.5891	0.5763	-0.139
Mof_H 	H 	0.7898	0.6023	0.5135	0.076
Mof_C 	C 	0.844	0.5952	0.6397	0.051
Mof_C 	C 	0.8051	0.5766	0.733	-0.141
Mof_H 	H 	0.8522	0.5817	0.7778	0.073
Mof_C 	C 	0.6986	0.5511	0.7579	0.077
Mof_H 	H 	0.6747	0.5385	0.8205	-0
Mof_C 	C 	0.9659	0.7004	0.4995	0.048
Mof_C 	C 	0.0408	0.6777	0.4172	-0.138
Mof_H 	H 	0.1054	0.6173	0.4086	0.075
Mof_C 	C 	0.0218	0.7449	0.3444	0.071
Mof_H 	H 	0.078	0.7295	0.2884	0.006
Mof_C 	C 	0.8566	0.8545	0.4355	0.059
Mof_H 	H 	0.7947	0.9163	0.4425	0.013
Mof_C 	C 	0.8712	0.7931	0.5116	-0.123
Mof_H 	H 	0.8203	0.8122	0.5691	0.065
Mof_C 	C 	0.6098	0.3322	0.5888	0.027
Mof_C 	C 	0.6867	0.3484	0.3985	0.03
Mof_C 	C 	0.8802	0.1636	0.4021	0.032
Mof_C 	C 	0.7987	0.144	0.5899	0.034
Mof_C 	C 	0.7233	0.139	0.901	0.024
Mof_C 	C 	0.7329	0.1418	0.0885	0.018
Mof_C 	C 	0.6257	0.344	0.0892	0.027
Mof_C 	C 	0.6031	0.3394	0.8994	0.022
_end
