data_functionalizedCrystal
_audit_creation_method	'EQeq! by Chris Wilmer'
_symmetry_space_group_name_H-M	'P1'
_symmetry_Int_Tables_number	1
_symmetry_cell_setting	triclinic
loop_
_symmetry_equiv_pos_as_xyz
  x,y,z
_cell_length_a	12.236
_cell_length_b	14.029
_cell_length_c	8.494
_cell_angle_alpha	90
_cell_angle_beta	90
_cell_angle_gamma	90
loop_
_atom_site_label
_atom_site_type_symbol
_atom_site_fract_x
_atom_site_fract_y
_atom_site_fract_z
_atom_site_charge
Mof_P 	P 	0.1344	0.8821	0.6727	0.338
Mof_O 	O 	0.0998	0.7895	0.7515	-0.229
Mof_O 	O 	0.2435	0.9121	0.7472	-0.201
Mof_P 	P 	0.6344	0.3821	0.6727	0.356
Mof_O 	O 	0.5998	0.2895	0.7515	-0.231
Mof_O 	O 	0.7435	0.4121	0.7472	-0.193
Mof_P 	P 	0.8656	0.1179	0.6727	0.339
Mof_O 	O 	0.9002	0.2105	0.7515	-0.244
Mof_O 	O 	0.7565	0.0879	0.7472	-0.184
Mof_P 	P 	0.3656	0.6179	0.6727	0.356
Mof_O 	O 	0.4002	0.7105	0.7515	-0.234
Mof_O 	O 	0.2565	0.5879	0.7472	-0.187
Mof_P 	P 	0.8656	0.8821	0.3273	0.323
Mof_O 	O 	0.9002	0.7895	0.2485	-0.399
Mof_O 	O 	0.7565	0.9121	0.2528	-0.355
Mof_P 	P 	0.3656	0.3821	0.3273	0.354
Mof_O 	O 	0.4002	0.2895	0.2485	-0.392
Mof_O 	O 	0.2565	0.4121	0.2528	-0.345
Mof_P 	P 	0.1344	0.1179	0.3273	0.351
Mof_O 	O 	0.0998	0.2105	0.2485	-0.385
Mof_O 	O 	0.2435	0.0879	0.2528	-0.34
Mof_P 	P 	0.6344	0.6179	0.3273	0.354
Mof_O 	O 	0.5998	0.7105	0.2485	-0.39
Mof_O 	O 	0.7435	0.5879	0.2528	-0.348
Mof_P 	P 	0.8656	0.1179	0.3273	0.336
Mof_O 	O 	0.9002	0.2105	0.2485	-0.401
Mof_O 	O 	0.7565	0.0879	0.2528	-0.339
Mof_P 	P 	0.3656	0.6179	0.3273	0.354
Mof_O 	O 	0.4002	0.7105	0.2485	-0.393
Mof_O 	O 	0.2565	0.5879	0.2528	-0.344
Mof_P 	P 	0.1344	0.8821	0.3273	0.336
Mof_O 	O 	0.0998	0.7895	0.2485	-0.383
Mof_O 	O 	0.2435	0.9121	0.2528	-0.357
Mof_P 	P 	0.6344	0.3821	0.3273	0.354
Mof_O 	O 	0.5998	0.2895	0.2485	-0.389
Mof_O 	O 	0.7435	0.4121	0.2528	-0.35
Mof_P 	P 	0.1344	0.1179	0.6727	0.353
Mof_O 	O 	0.0998	0.2105	0.7515	-0.23
Mof_O 	O 	0.2435	0.0879	0.7472	-0.186
Mof_P 	P 	0.6344	0.6179	0.6727	0.356
Mof_O 	O 	0.5998	0.7105	0.7515	-0.231
Mof_O 	O 	0.7435	0.5879	0.7472	-0.191
Mof_P 	P 	0.8656	0.8821	0.6727	0.327
Mof_O 	O 	0.9002	0.7895	0.7515	-0.241
Mof_O 	O 	0.7565	0.9121	0.7472	-0.198
Mof_P 	P 	0.3656	0.3821	0.6727	0.356
Mof_O 	O 	0.4002	0.2895	0.7515	-0.234
Mof_O 	O 	0.2565	0.4121	0.7472	-0.189
Mof_I 	I 	-0	0	-0	-0.665
Mof_I 	I 	0.5	0.5	-0	-0.716
Mof_Pt	Pt	6.05934e-33	4.32825e-33	0.6651	0.257
Mof_Pt	Pt	0.5	0.5	0.6651	0.212
Mof_Pt	Pt	8.71665e-34	2.16412e-33	0.3349	0.043
Mof_Pt	Pt	0.5	0.5	0.3349	-0.018
Mof_K 	K 	0.2287	0.7435	-0	0.822
Mof_K 	K 	0.7287	0.2435	-0	0.817
Mof_K 	K 	0.7713	0.2565	-0	0.834
Mof_K 	K 	0.2713	0.7565	-0	0.838
Mof_K 	K 	0.7713	0.7435	-0	0.817
Mof_K 	K 	0.2713	0.2435	-0	0.847
Mof_K 	K 	0.2287	0.2565	-0	0.84
Mof_K 	K 	0.7287	0.7565	-0	0.809
Mof_O 	O 	0.1678	0.8491	0.5	-0.245
Mof_O 	O 	0.6678	0.3491	0.5	-0.247
Mof_O 	O 	0.8322	0.1509	0.5	-0.245
Mof_O 	O 	0.3322	0.6509	0.5	-0.246
Mof_O 	O 	0.8322	0.8491	0.5	-0.247
Mof_O 	O 	0.3322	0.3491	0.5	-0.246
Mof_O 	O 	0.1678	0.1509	0.5	-0.243
Mof_O 	O 	0.6678	0.6509	0.5	-0.248
_end
