data_functionalizedCrystal
_audit_creation_method	'EQeq! by Chris Wilmer'
_symmetry_space_group_name_H-M	'P1'
_symmetry_Int_Tables_number	1
_symmetry_cell_setting	triclinic
loop_
_symmetry_equiv_pos_as_xyz
  x,y,z
_cell_length_a	15.52
_cell_length_b	13.89
_cell_length_c	13.0769
_cell_angle_alpha	90
_cell_angle_beta	90
_cell_angle_gamma	90
loop_
_atom_site_label
_atom_site_type_symbol
_atom_site_fract_x
_atom_site_fract_y
_atom_site_fract_z
_atom_site_charge
Mof_U 	U 	0.26136	0.98959	0.43733	0.04
Mof_U 	U 	0.27438	0.7375	0.5852	0.04
Mof_P 	P 	0.2758	0.5187	0.1757	0.478
Mof_P 	P 	0.3129	0.7395	0.3459	0.466
Mof_O 	O 	0.3051	0.825	0.4204	-0.124
Mof_O 	O 	0.233	0.5936	0.1039	-0.125
Mof_O 	O 	0.2798	0.4314	0.1021	-0.125
Mof_O 	O 	0.2846	0.6537	0.4144	-0.125
Mof_O 	O 	0.2174	0.4946	0.2648	-0.139
Mof_O 	O 	0.2491	0.7521	0.2554	-0.132
Mof_O 	O 	0.4046	0.7276	0.3087	-0.13
Mof_O 	O 	0.3633	0.5497	0.2096	-0.146
Mof_U 	U 	0.76136	0.48959	0.43733	0.04
Mof_U 	U 	0.77438	0.2375	0.5852	0.04
Mof_P 	P 	0.7758	0.0187	0.1757	0.476
Mof_P 	P 	0.8129	0.2395	0.3459	0.466
Mof_O 	O 	0.8051	0.325	0.4204	-0.123
Mof_O 	O 	0.733	0.0936	0.1039	-0.125
Mof_O 	O 	0.7798	0.9314	0.1021	-0.123
Mof_O 	O 	0.7846	0.1537	0.4144	-0.125
Mof_O 	O 	0.7174	0.9946	0.2648	-0.137
Mof_O 	O 	0.7491	0.2521	0.2554	-0.132
Mof_O 	O 	0.9046	0.2276	0.3087	-0.128
Mof_O 	O 	0.8633	0.0497	0.2096	-0.145
Mof_U 	U 	0.73864	0.01041	0.93733	0.04
Mof_U 	U 	0.72562	0.2625	0.0852	0.039
Mof_P 	P 	0.7242	0.4813	0.6757	0.477
Mof_P 	P 	0.6871	0.2605	0.8459	0.466
Mof_O 	O 	0.6949	0.175	0.9204	-0.123
Mof_O 	O 	0.767	0.4064	0.6039	-0.124
Mof_O 	O 	0.7202	0.5686	0.6021	-0.125
Mof_O 	O 	0.7154	0.3463	0.9144	-0.125
Mof_O 	O 	0.7826	0.5054	0.7648	-0.137
Mof_O 	O 	0.7509	0.2479	0.7554	-0.131
Mof_O 	O 	0.5954	0.2724	0.8087	-0.13
Mof_O 	O 	0.6367	0.4503	0.7096	-0.146
Mof_U 	U 	0.23864	0.51041	0.93733	0.039
Mof_U 	U 	0.22562	0.7625	0.0852	0.04
Mof_P 	P 	0.2242	0.9813	0.6757	0.476
Mof_P 	P 	0.1871	0.7605	0.8459	0.466
Mof_O 	O 	0.1949	0.675	0.9204	-0.125
Mof_O 	O 	0.267	0.9064	0.6039	-0.125
Mof_O 	O 	0.2202	0.0686	0.6021	-0.125
Mof_O 	O 	0.2154	0.8463	0.9144	-0.127
Mof_O 	O 	0.2826	0.0054	0.7648	-0.137
Mof_O 	O 	0.2509	0.7479	0.7554	-0.132
Mof_O 	O 	0.0954	0.7724	0.8087	-0.132
Mof_O 	O 	0.1367	0.9503	0.7096	-0.147
Mof_U 	U 	0.26136	0.01041	0.93733	0.04
Mof_U 	U 	0.27438	0.2625	0.0852	0.039
Mof_P 	P 	0.2758	0.4813	0.6757	0.477
Mof_P 	P 	0.3129	0.2605	0.8459	0.466
Mof_O 	O 	0.3051	0.175	0.9204	-0.124
Mof_O 	O 	0.233	0.4064	0.6039	-0.125
Mof_O 	O 	0.2798	0.5686	0.6021	-0.125
Mof_O 	O 	0.2846	0.3463	0.9144	-0.125
Mof_O 	O 	0.2174	0.5054	0.7648	-0.139
Mof_O 	O 	0.2491	0.2479	0.7554	-0.132
Mof_O 	O 	0.4046	0.2724	0.8087	-0.13
Mof_O 	O 	0.3633	0.4503	0.7096	-0.146
Mof_U 	U 	0.76136	0.51041	0.93733	0.039
Mof_U 	U 	0.77438	0.7625	0.0852	0.04
Mof_P 	P 	0.7758	0.9813	0.6757	0.476
Mof_P 	P 	0.8129	0.7605	0.8459	0.466
Mof_O 	O 	0.8051	0.675	0.9204	-0.124
Mof_O 	O 	0.733	0.9064	0.6039	-0.125
Mof_O 	O 	0.7798	0.0686	0.6021	-0.124
Mof_O 	O 	0.7846	0.8463	0.9144	-0.126
Mof_O 	O 	0.7174	0.0054	0.7648	-0.137
Mof_O 	O 	0.7491	0.7479	0.7554	-0.132
Mof_O 	O 	0.9046	0.7724	0.8087	-0.128
Mof_O 	O 	0.8633	0.9503	0.7096	-0.145
Mof_U 	U 	0.73864	0.98959	0.43733	0.04
Mof_U 	U 	0.72562	0.7375	0.5852	0.04
Mof_P 	P 	0.7242	0.5187	0.1757	0.477
Mof_P 	P 	0.6871	0.7395	0.3459	0.466
Mof_O 	O 	0.6949	0.825	0.4204	-0.124
Mof_O 	O 	0.767	0.5936	0.1039	-0.124
Mof_O 	O 	0.7202	0.4314	0.1021	-0.125
Mof_O 	O 	0.7154	0.6537	0.4144	-0.125
Mof_O 	O 	0.7826	0.4946	0.2648	-0.137
Mof_O 	O 	0.7509	0.7521	0.2554	-0.131
Mof_O 	O 	0.5954	0.7276	0.3087	-0.13
Mof_O 	O 	0.6367	0.5497	0.2096	-0.146
Mof_U 	U 	0.23864	0.48959	0.43733	0.039
Mof_U 	U 	0.22562	0.2375	0.5852	0.039
Mof_P 	P 	0.2242	0.0187	0.1757	0.476
Mof_P 	P 	0.1871	0.2395	0.3459	0.466
Mof_O 	O 	0.1949	0.325	0.4204	-0.124
Mof_O 	O 	0.267	0.0936	0.1039	-0.125
Mof_O 	O 	0.2202	0.9314	0.1021	-0.124
Mof_O 	O 	0.2154	0.1537	0.4144	-0.125
Mof_O 	O 	0.2826	0.9946	0.2648	-0.137
Mof_O 	O 	0.2509	0.2521	0.2554	-0.132
Mof_O 	O 	0.0954	0.2276	0.3087	-0.131
Mof_O 	O 	0.1367	0.0497	0.2096	-0.147
Mof_U 	U 	0.5	0.61003	0.2473	0.045
Mof_U 	U 	7.81266e-34	0.11003	0.2473	0.042
Mof_U 	U 	0.5	0.38997	0.7473	0.045
Mof_U 	U 	2.36086e-33	0.88997	0.7473	0.042
_end
