data_functionalizedCrystal
_audit_creation_method	'EQeq! by Chris Wilmer'
_symmetry_space_group_name_H-M	'P1'
_symmetry_Int_Tables_number	1
_symmetry_cell_setting	triclinic
loop_
_symmetry_equiv_pos_as_xyz
  x,y,z
_cell_length_a	7.9905
_cell_length_b	17.245
_cell_length_c	23.2987
_cell_angle_alpha	90
_cell_angle_beta	90
_cell_angle_gamma	90
loop_
_atom_site_label
_atom_site_type_symbol
_atom_site_fract_x
_atom_site_fract_y
_atom_site_fract_z
_atom_site_charge
Mof_Ce	Ce	0.13837	0.89661	0.21803	2.581
Mof_Ce	Ce	0.36163	0.10339	0.71803	2.564
Mof_Ce	Ce	0.86163	0.39661	0.28197	2.664
Mof_Ce	Ce	0.63837	0.60339	0.78197	2.62
Mof_Ce	Ce	0.86163	0.10339	0.78197	2.619
Mof_Ce	Ce	0.63837	0.89661	0.28197	2.658
Mof_Ce	Ce	0.13837	0.60339	0.71803	2.55
Mof_Ce	Ce	0.36163	0.39661	0.21803	2.6
Mof_Cu	Cu	0.5	0	0.5	0.881
Mof_Cu	Cu	-0	0	-0	0.858
Mof_Cu	Cu	0.5	0.5	-0	0.889
Mof_Cu	Cu	-1.02595e-32	0.5	0.5	0.893
Mof_H 	H 	0.8749	0.831	0.5074	0.014
Mof_H 	H 	0.1177	0.7582	0.5098	0.078
Mof_H 	H 	0.3166	0.7743	0.439	0.025
Mof_H 	H 	0.7037	0.8368	0.6613	0.041
Mof_H 	H 	0.7201	0.9305	0.5917	0.049
Mof_H 	H 	0.2497	0.8981	0.5509	0.032
Mof_H 	H 	0.226	0.8001	0.6162	0.04
Mof_H 	H 	0.6251	0.169	0.0074	-0.016
Mof_H 	H 	0.3823	0.2418	0.0098	0.027
Mof_H 	H 	0.1834	0.2257	0.939	0.038
Mof_H 	H 	0.7963	0.1632	0.1613	0.026
Mof_H 	H 	0.7799	0.0695	0.0917	0.028
Mof_H 	H 	0.2503	0.1019	0.0509	0.015
Mof_H 	H 	0.274	0.1999	0.1162	0.041
Mof_H 	H 	0.1251	0.331	0.9926	0.076
Mof_H 	H 	0.8823	0.2582	0.9902	0.098
Mof_H 	H 	0.6834	0.2743	0.061	0.024
Mof_H 	H 	0.2963	0.3368	0.8387	0.034
Mof_H 	H 	0.2799	0.4305	0.9083	0.043
Mof_H 	H 	0.7503	0.3981	0.9491	0.041
Mof_H 	H 	0.774	0.3001	0.8838	0.05
Mof_H 	H 	0.3749	0.669	0.4926	0.025
Mof_H 	H 	0.6177	0.7418	0.4902	0.066
Mof_H 	H 	0.8166	0.7257	0.561	0.036
Mof_H 	H 	0.2037	0.6632	0.3387	0.042
Mof_H 	H 	0.2201	0.5695	0.4083	0.042
Mof_H 	H 	0.7497	0.6019	0.4491	0.027
Mof_H 	H 	0.726	0.6999	0.3838	0.047
Mof_H 	H 	0.1251	0.169	0.4926	0.032
Mof_H 	H 	0.8823	0.2418	0.4902	0.06
Mof_H 	H 	0.6834	0.2257	0.561	0.034
Mof_H 	H 	0.2963	0.1632	0.3387	0.03
Mof_H 	H 	0.2799	0.0695	0.4083	0.032
Mof_H 	H 	0.7503	0.1019	0.4491	0.024
Mof_H 	H 	0.774	0.1999	0.3838	0.048
Mof_H 	H 	0.3749	0.831	0.9926	0.068
Mof_H 	H 	0.6177	0.7582	0.9902	0.106
Mof_H 	H 	0.8166	0.7743	0.061	0.025
Mof_H 	H 	0.2037	0.8368	0.8387	0.045
Mof_H 	H 	0.2201	0.9305	0.9083	0.055
Mof_H 	H 	0.7497	0.8981	0.9491	0.045
Mof_H 	H 	0.726	0.8001	0.8838	0.049
Mof_H 	H 	0.8749	0.669	0.0074	-0.026
Mof_H 	H 	0.1177	0.7418	0.0098	0.035
Mof_H 	H 	0.3166	0.7257	0.939	0.037
Mof_H 	H 	0.7037	0.6632	0.1613	0.037
Mof_H 	H 	0.7201	0.5695	0.0917	0.037
Mof_H 	H 	0.2497	0.6019	0.0509	0.016
Mof_H 	H 	0.226	0.6999	0.1162	0.039
Mof_H 	H 	0.6251	0.331	0.5074	0.025
Mof_H 	H 	0.3823	0.2582	0.5098	0.068
Mof_H 	H 	0.1834	0.2743	0.439	0.026
Mof_H 	H 	0.7963	0.3368	0.6613	0.03
Mof_H 	H 	0.7799	0.4305	0.5917	0.037
Mof_H 	H 	0.2503	0.3981	0.5509	0.03
Mof_H 	H 	0.274	0.3001	0.6162	0.043
Mof_C 	C 	0.3284	0.8599	0.34833	0.371
Mof_C 	C 	0.0101	0.9623	0.34725	0.415
Mof_C 	C 	0.7604	0.9297	0.4318	0.45
Mof_C 	C 	0.1943	0.8555	0.39341	-0.101
Mof_C 	C 	0.0468	0.8997	0.39103	-0.07
Mof_C 	C 	0.9262	0.8883	0.43393	-0.097
Mof_C 	C 	0.9544	0.8366	0.47853	0.083
Mof_C 	C 	0.0998	0.7935	0.48026	-0.155
Mof_C 	C 	0.2186	0.8033	0.43777	0.039
Mof_C 	C 	0.4454	0.7424	0.69022	0.506
Mof_C 	C 	0.4631	0.8063	0.64652	-0.132
Mof_C 	C 	0.6109	0.8475	0.63856	-0.012
Mof_C 	C 	0.6197	0.9042	0.59709	-0.001
Mof_C 	C 	0.3427	0.8844	0.57268	0.004
Mof_C 	C 	0.3272	0.8262	0.61225	-0.009
Mof_C 	C 	0.1716	0.1401	0.84833	0.372
Mof_C 	C 	0.4899	0.0377	0.84725	0.313
Mof_C 	C 	0.7396	0.0703	0.9318	0.452
Mof_C 	C 	0.3057	0.1445	0.89341	-0.11
Mof_C 	C 	0.4532	0.1003	0.89103	-0.022
Mof_C 	C 	0.5738	0.1117	0.93393	-0.146
Mof_C 	C 	0.5456	0.1634	0.97853	0.089
Mof_C 	C 	0.4002	0.2065	0.98026	-0.058
Mof_C 	C 	0.2814	0.1967	0.93777	0.007
Mof_C 	C 	0.0546	0.2576	0.19022	0.485
Mof_C 	C 	0.0369	0.1937	0.14652	-0.16
Mof_C 	C 	0.8891	0.1525	0.13856	0.008
Mof_C 	C 	0.8803	0.0958	0.09709	-0.001
Mof_C 	C 	0.1573	0.1156	0.07268	-0.013
Mof_C 	C 	0.1728	0.1738	0.11225	-0.008
Mof_C 	C 	0.6716	0.3599	0.15167	0.373
Mof_C 	C 	0.9899	0.4623	0.15275	0.41
Mof_C 	C 	0.2396	0.4297	0.0682	0.442
Mof_C 	C 	0.8057	0.3555	0.10659	-0.106
Mof_C 	C 	0.9532	0.3997	0.10897	-0.03
Mof_C 	C 	0.0738	0.3883	0.06607	-0.123
Mof_C 	C 	0.0456	0.3366	0.02147	-0.047
Mof_C 	C 	0.9002	0.2935	0.01974	-0.111
Mof_C 	C 	0.7814	0.3033	0.06223	0.028
Mof_C 	C 	0.5546	0.2424	0.80978	0.506
Mof_C 	C 	0.5369	0.3063	0.85348	-0.133
Mof_C 	C 	0.3891	0.3475	0.86144	-0.014
Mof_C 	C 	0.3803	0.4042	0.90291	-0.005
Mof_C 	C 	0.6573	0.3844	0.92732	0.001
Mof_C 	C 	0.6728	0.3262	0.88775	-0.008
Mof_C 	C 	0.8284	0.6401	0.65167	0.369
Mof_C 	C 	0.5101	0.5377	0.65275	0.383
Mof_C 	C 	0.2604	0.5703	0.5682	0.447
Mof_C 	C 	0.6943	0.6445	0.60659	-0.1
Mof_C 	C 	0.5468	0.6003	0.60897	-0.041
Mof_C 	C 	0.4262	0.6117	0.56607	-0.122
Mof_C 	C 	0.4544	0.6634	0.52147	0.037
Mof_C 	C 	0.5998	0.7065	0.51974	-0.101
Mof_C 	C 	0.7186	0.6967	0.56223	0.019
Mof_C 	C 	0.9454	0.7576	0.30978	0.536
Mof_C 	C 	0.9631	0.6937	0.35348	-0.108
Mof_C 	C 	0.1109	0.6525	0.36144	-0.046
Mof_C 	C 	0.1197	0.5958	0.40291	-0.022
Mof_C 	C 	0.8427	0.6156	0.42732	0.009
Mof_C 	C 	0.8272	0.6738	0.38775	-0.018
Mof_C 	C 	0.6716	0.1401	0.65167	0.373
Mof_C 	C 	0.9899	0.0377	0.65275	0.331
Mof_C 	C 	0.2396	0.0703	0.5682	0.447
Mof_C 	C 	0.8057	0.1445	0.60659	-0.111
Mof_C 	C 	0.9532	0.1003	0.60897	-0.012
Mof_C 	C 	0.0738	0.1117	0.56607	-0.146
Mof_C 	C 	0.0456	0.1634	0.52147	0.007
Mof_C 	C 	0.9002	0.2065	0.51974	-0.069
Mof_C 	C 	0.7814	0.1967	0.56223	0.013
Mof_C 	C 	0.5546	0.2576	0.30978	0.508
Mof_C 	C 	0.5369	0.1937	0.35348	-0.138
Mof_C 	C 	0.3891	0.1525	0.36144	-0.017
Mof_C 	C 	0.3803	0.0958	0.40291	-0.013
Mof_C 	C 	0.6573	0.1156	0.42732	-0.005
Mof_C 	C 	0.6728	0.1738	0.38775	-0.012
Mof_C 	C 	0.8284	0.8599	0.15167	0.37
Mof_C 	C 	0.5101	0.9623	0.15275	0.454
Mof_C 	C 	0.2604	0.9297	0.0682	0.441
Mof_C 	C 	0.6943	0.8555	0.10659	-0.095
Mof_C 	C 	0.5468	0.8997	0.10897	-0.059
Mof_C 	C 	0.4262	0.8883	0.06607	-0.097
Mof_C 	C 	0.4544	0.8366	0.02147	-0.013
Mof_C 	C 	0.5998	0.7935	0.01974	-0.149
Mof_C 	C 	0.7186	0.8033	0.06223	0.038
Mof_C 	C 	0.9454	0.7424	0.80978	0.533
Mof_C 	C 	0.9631	0.8063	0.85348	-0.104
Mof_C 	C 	0.1109	0.8475	0.86144	-0.042
Mof_C 	C 	0.1197	0.9042	0.90291	-0.017
Mof_C 	C 	0.8427	0.8844	0.92732	0.015
Mof_C 	C 	0.8272	0.8262	0.88775	-0.014
Mof_C 	C 	0.3284	0.6401	0.84833	0.37
Mof_C 	C 	0.0101	0.5377	0.84725	0.354
Mof_C 	C 	0.7604	0.5703	0.9318	0.454
Mof_C 	C 	0.1943	0.6445	0.89341	-0.103
Mof_C 	C 	0.0468	0.6003	0.89103	-0.053
Mof_C 	C 	0.9262	0.6117	0.93393	-0.121
Mof_C 	C 	0.9544	0.6634	0.97853	0.127
Mof_C 	C 	0.0998	0.7065	0.98026	-0.1
Mof_C 	C 	0.2186	0.6967	0.93777	0.017
Mof_C 	C 	0.4454	0.7576	0.19022	0.507
Mof_C 	C 	0.4631	0.6937	0.14652	-0.136
Mof_C 	C 	0.6109	0.6525	0.13856	-0.015
Mof_C 	C 	0.6197	0.5958	0.09709	-0.009
Mof_C 	C 	0.3427	0.6156	0.07268	-0.002
Mof_C 	C 	0.3272	0.6738	0.11225	-0.013
Mof_C 	C 	0.1716	0.3599	0.34833	0.373
Mof_C 	C 	0.4899	0.4623	0.34725	0.383
Mof_C 	C 	0.7396	0.4297	0.4318	0.45
Mof_C 	C 	0.3057	0.3555	0.39341	-0.108
Mof_C 	C 	0.4532	0.3997	0.39103	-0.04
Mof_C 	C 	0.5738	0.3883	0.43393	-0.124
Mof_C 	C 	0.5456	0.3366	0.47853	0.042
Mof_C 	C 	0.4002	0.2935	0.48026	-0.108
Mof_C 	C 	0.2814	0.3033	0.43777	0.026
Mof_C 	C 	0.0546	0.2424	0.69022	0.484
Mof_C 	C 	0.0369	0.3063	0.64652	-0.157
Mof_C 	C 	0.8891	0.3475	0.63856	0.011
Mof_C 	C 	0.8803	0.4042	0.59709	0.009
Mof_C 	C 	0.1573	0.3844	0.57268	-0.008
Mof_C 	C 	0.1728	0.3262	0.61225	-0.004
Mof_N 	N 	0.4874	0.92278	0.56404	-0.185
Mof_N 	N 	0.0126	0.07722	0.06404	-0.221
Mof_N 	N 	0.5126	0.42278	0.93596	-0.189
Mof_N 	N 	0.9874	0.57722	0.43596	-0.182
Mof_N 	N 	0.5126	0.07722	0.43596	-0.205
Mof_N 	N 	0.9874	0.92278	0.93596	-0.159
Mof_N 	N 	0.4874	0.57722	0.06404	-0.203
Mof_N 	N 	0.0126	0.42278	0.56404	-0.211
Mof_O 	O 	0.3142	0.90904	0.30702	-0.695
Mof_O 	O 	0.453	0.8164	0.35178	-0.475
Mof_O 	O 	0.9525	0.94211	0.29805	-0.693
Mof_O 	O 	0.0284	0.0296	0.36349	-0.376
Mof_O 	O 	0.6845	0.93651	0.38555	-0.551
Mof_O 	O 	0.7087	0.95312	0.48034	-0.415
Mof_O 	O 	0.3014	0.71335	0.69302	-0.605
Mof_O 	O 	0.5681	0.723	0.71981	-0.535
Mof_O 	O 	0.1858	0.09096	0.80702	-0.713
Mof_O 	O 	0.047	0.1836	0.85178	-0.483
Mof_O 	O 	0.5475	0.05789	0.79805	-0.708
Mof_O 	O 	0.4716	0.9704	0.86349	-0.258
Mof_O 	O 	0.8155	0.06349	0.88555	-0.571
Mof_O 	O 	0.7913	0.04688	0.98034	-0.429
Mof_O 	O 	0.1986	0.28665	0.19302	-0.607
Mof_O 	O 	0.9319	0.277	0.21981	-0.521
Mof_O 	O 	0.6858	0.40904	0.19298	-0.707
Mof_O 	O 	0.547	0.3164	0.14822	-0.473
Mof_O 	O 	0.0475	0.44211	0.20195	-0.749
Mof_O 	O 	0.9716	0.5296	0.13651	-0.319
Mof_O 	O 	0.3155	0.43651	0.11445	-0.567
Mof_O 	O 	0.2913	0.45312	0.01966	-0.458
Mof_O 	O 	0.6986	0.21335	0.80698	-0.606
Mof_O 	O 	0.4319	0.223	0.78019	-0.533
Mof_O 	O 	0.8142	0.59096	0.69298	-0.693
Mof_O 	O 	0.953	0.6836	0.64822	-0.452
Mof_O 	O 	0.4525	0.55789	0.70195	-0.715
Mof_O 	O 	0.5284	0.4704	0.63651	-0.319
Mof_O 	O 	0.1845	0.56349	0.61445	-0.566
Mof_O 	O 	0.2087	0.54688	0.51966	-0.445
Mof_O 	O 	0.8014	0.78665	0.30698	-0.62
Mof_O 	O 	0.0681	0.777	0.28019	-0.564
Mof_O 	O 	0.6858	0.09096	0.69298	-0.71
Mof_O 	O 	0.547	0.1836	0.64822	-0.469
Mof_O 	O 	0.0475	0.05789	0.70195	-0.73
Mof_O 	O 	0.9716	0.9704	0.63651	-0.251
Mof_O 	O 	0.3155	0.06349	0.61445	-0.576
Mof_O 	O 	0.2913	0.04688	0.51966	-0.458
Mof_O 	O 	0.6986	0.28665	0.30698	-0.614
Mof_O 	O 	0.4319	0.277	0.28019	-0.54
Mof_O 	O 	0.8142	0.90904	0.19298	-0.689
Mof_O 	O 	0.953	0.8164	0.14822	-0.455
Mof_O 	O 	0.4525	0.94211	0.20195	-0.728
Mof_O 	O 	0.5284	0.0296	0.13651	-0.381
Mof_O 	O 	0.1845	0.93651	0.11445	-0.555
Mof_O 	O 	0.2087	0.95312	0.01966	-0.437
Mof_O 	O 	0.8014	0.71335	0.80698	-0.613
Mof_O 	O 	0.0681	0.723	0.78019	-0.558
Mof_O 	O 	0.3142	0.59096	0.80702	-0.698
Mof_O 	O 	0.453	0.6836	0.85178	-0.47
Mof_O 	O 	0.9525	0.55789	0.79805	-0.686
Mof_O 	O 	0.0284	0.4704	0.86349	-0.319
Mof_O 	O 	0.6845	0.56349	0.88555	-0.561
Mof_O 	O 	0.7087	0.54688	0.98034	-0.419
Mof_O 	O 	0.3014	0.78665	0.19302	-0.611
Mof_O 	O 	0.5681	0.777	0.21981	-0.541
Mof_O 	O 	0.1858	0.40904	0.30702	-0.712
Mof_O 	O 	0.047	0.3164	0.35178	-0.489
Mof_O 	O 	0.5475	0.44211	0.29805	-0.721
Mof_O 	O 	0.4716	0.5296	0.36349	-0.321
Mof_O 	O 	0.8155	0.43651	0.38555	-0.563
Mof_O 	O 	0.7913	0.45312	0.48034	-0.434
Mof_O 	O 	0.1986	0.21335	0.69302	-0.6
Mof_O 	O 	0.9319	0.223	0.71981	-0.515
_end
