data_functionalizedCrystal
_audit_creation_method	'EQeq! by Chris Wilmer'
_symmetry_space_group_name_H-M	'P1'
_symmetry_Int_Tables_number	1
_symmetry_cell_setting	triclinic
loop_
_symmetry_equiv_pos_as_xyz
  x,y,z
_cell_length_a	15.3327
_cell_length_b	9.5934
_cell_length_c	15.4363
_cell_angle_alpha	90
_cell_angle_beta	97.199
_cell_angle_gamma	90
loop_
_atom_site_label
_atom_site_type_symbol
_atom_site_fract_x
_atom_site_fract_y
_atom_site_fract_z
_atom_site_charge
Mof_P 	P 	0.29476	0.80549	0.26443	0.619
Mof_P 	P 	0.3055	0.4058	0.0113	0.143
Mof_P 	P 	0.5026	0.383	0.8242	0.39
Mof_P 	P 	0.23179	0.67457	0.70135	0.666
Mof_Be	Be	0.3155	0.5347	0.1848	0.812
Mof_Be	Be	0.321	0.467	0.8251	0.822
Mof_O 	O 	0.271	0.6779	0.212	-0.347
Mof_O 	O 	0.3655	0.888	0.2176	-0.4
Mof_H 	H 	0.4125	0.8891	0.2494	0.308
Mof_O 	O 	0.3423	0.7763	0.3551	-0.185
Mof_O 	O 	0.2193	0.9024	0.2633	-0.343
Mof_O 	O 	0.2893	0.5156	0.0805	-0.367
Mof_O 	O 	0.3024	0.4773	0.9248	-0.352
Mof_O 	O 	0.2432	0.2877	0.0139	-0.283
Mof_H 	H 	0.2366	0.2484	0.9664	0.214
Mof_O 	O 	0.399	0.3426	0.0345	-0.248
Mof_O 	O 	0.4229	0.4706	0.8136	-0.372
Mof_O 	O 	0.4888	0.239	0.7856	-0.389
Mof_H 	H 	0.4455	0.2033	0.8027	0.248
Mof_O 	O 	0.5788	0.4605	0.7893	-0.359
Mof_O 	O 	0.5291	0.3629	0.9253	-0.5
Mof_H 	H 	0.4846	0.3608	0.9497	0.326
Mof_O 	O 	0.2734	0.5994	0.7788	-0.372
Mof_O 	O 	0.1421	0.6137	0.6683	-0.463
Mof_H 	H 	0.1118	0.6109	0.7085	0.267
Mof_O 	O 	0.2904	0.6507	0.6275	-0.407
Mof_H 	H 	0.2597	0.6513	0.58	0.258
Mof_O 	O 	0.2243	0.8277	0.7206	-0.378
Mof_P 	P 	0.337	0.452	0.0247	0.432
Mof_P 	P 	0.5257	0.428	0.8526	0.257
Mof_P 	P 	0.20524	0.30549	0.23557	0.62
Mof_P 	P 	0.1945	0.9058	0.4887	0.143
Mof_P 	P 	0.9974	0.883	0.6758	0.39
Mof_P 	P 	0.26821	0.17457	0.79865	0.666
Mof_Be	Be	0.1845	0.0347	0.3152	0.812
Mof_Be	Be	0.179	0.967	0.6749	0.822
Mof_O 	O 	0.229	0.1779	0.288	-0.347
Mof_O 	O 	0.1345	0.388	0.2824	-0.4
Mof_H 	H 	0.0875	0.3891	0.2506	0.308
Mof_O 	O 	0.1577	0.2763	0.1449	-0.185
Mof_O 	O 	0.2807	0.4024	0.2367	-0.342
Mof_O 	O 	0.2107	0.0156	0.4195	-0.367
Mof_O 	O 	0.1976	0.9773	0.5752	-0.352
Mof_O 	O 	0.2568	0.7877	0.4861	-0.282
Mof_H 	H 	0.2634	0.7484	0.5336	0.214
Mof_O 	O 	0.101	0.8426	0.4655	-0.248
Mof_O 	O 	0.0771	0.9706	0.6864	-0.373
Mof_O 	O 	0.0112	0.739	0.7144	-0.389
Mof_H 	H 	0.0545	0.7033	0.6973	0.248
Mof_O 	O 	0.9212	0.9605	0.7107	-0.359
Mof_O 	O 	0.9709	0.8629	0.5747	-0.5
Mof_H 	H 	0.0154	0.8608	0.5503	0.326
Mof_O 	O 	0.2266	0.0994	0.7212	-0.372
Mof_O 	O 	0.3579	0.1137	0.8317	-0.463
Mof_H 	H 	0.3882	0.1109	0.7915	0.267
Mof_O 	O 	0.2096	0.1507	0.8725	-0.407
Mof_H 	H 	0.2403	0.1513	0.92	0.258
Mof_O 	O 	0.2757	0.3277	0.7794	-0.378
Mof_P 	P 	0.163	0.952	0.4753	0.433
Mof_P 	P 	0.9743	0.928	0.6474	0.258
Mof_P 	P 	0.70524	0.19451	0.73557	0.62
Mof_P 	P 	0.6945	0.5942	0.9887	0.144
Mof_P 	P 	0.4974	0.617	0.1758	0.391
Mof_P 	P 	0.76821	0.32543	0.29865	0.667
Mof_Be	Be	0.6845	0.4653	0.8152	0.812
Mof_Be	Be	0.679	0.533	0.1749	0.822
Mof_O 	O 	0.729	0.3221	0.788	-0.347
Mof_O 	O 	0.6345	0.112	0.7824	-0.4
Mof_H 	H 	0.5875	0.1109	0.7506	0.308
Mof_O 	O 	0.6577	0.2237	0.6449	-0.185
Mof_O 	O 	0.7807	0.0976	0.7367	-0.343
Mof_O 	O 	0.7107	0.4844	0.9195	-0.367
Mof_O 	O 	0.6976	0.5227	0.0752	-0.352
Mof_O 	O 	0.7568	0.7123	0.9861	-0.283
Mof_H 	H 	0.7634	0.7516	0.0336	0.214
Mof_O 	O 	0.601	0.6574	0.9655	-0.248
Mof_O 	O 	0.5771	0.5294	0.1864	-0.372
Mof_O 	O 	0.5112	0.761	0.2144	-0.389
Mof_H 	H 	0.5545	0.7967	0.1973	0.248
Mof_O 	O 	0.4212	0.5395	0.2107	-0.359
Mof_O 	O 	0.4709	0.6371	0.0747	-0.5
Mof_H 	H 	0.5154	0.6392	0.0503	0.326
Mof_O 	O 	0.7266	0.4006	0.2212	-0.372
Mof_O 	O 	0.8579	0.3863	0.3317	-0.463
Mof_H 	H 	0.8882	0.3891	0.2915	0.267
Mof_O 	O 	0.7096	0.3493	0.3725	-0.407
Mof_H 	H 	0.7403	0.3487	0.42	0.258
Mof_O 	O 	0.7757	0.1723	0.2794	-0.378
Mof_P 	P 	0.663	0.548	0.9753	0.432
Mof_P 	P 	0.4743	0.572	0.1474	0.257
Mof_P 	P 	0.79476	0.69451	0.76443	0.62
Mof_P 	P 	0.8055	0.0942	0.5113	0.143
Mof_P 	P 	0.0026	0.117	0.3242	0.39
Mof_P 	P 	0.73179	0.82543	0.20135	0.666
Mof_Be	Be	0.8155	0.9653	0.6848	0.812
Mof_Be	Be	0.821	0.033	0.3251	0.822
Mof_O 	O 	0.771	0.8221	0.712	-0.347
Mof_O 	O 	0.8655	0.612	0.7176	-0.4
Mof_H 	H 	0.9125	0.6109	0.7494	0.308
Mof_O 	O 	0.8423	0.7237	0.8551	-0.185
Mof_O 	O 	0.7193	0.5976	0.7633	-0.342
Mof_O 	O 	0.7893	0.9844	0.5805	-0.367
Mof_O 	O 	0.8024	0.0227	0.4248	-0.352
Mof_O 	O 	0.7432	0.2123	0.5139	-0.282
Mof_H 	H 	0.7366	0.2516	0.4664	0.214
Mof_O 	O 	0.899	0.1574	0.5345	-0.248
Mof_O 	O 	0.9229	0.0294	0.3136	-0.373
Mof_O 	O 	0.9888	0.261	0.2856	-0.389
Mof_H 	H 	0.9455	0.2967	0.3027	0.248
Mof_O 	O 	0.0788	0.0395	0.2893	-0.359
Mof_O 	O 	0.0291	0.1371	0.4253	-0.5
Mof_H 	H 	0.9846	0.1392	0.4497	0.326
Mof_O 	O 	0.7734	0.9006	0.2788	-0.372
Mof_O 	O 	0.6421	0.8863	0.1683	-0.463
Mof_H 	H 	0.6118	0.8891	0.2085	0.267
Mof_O 	O 	0.7904	0.8493	0.1275	-0.407
Mof_H 	H 	0.7597	0.8487	0.08	0.258
Mof_O 	O 	0.7243	0.6723	0.2206	-0.378
Mof_P 	P 	0.837	0.048	0.5247	0.433
Mof_P 	P 	0.0257	0.072	0.3526	0.258
_end
