data_functionalizedCrystal
_audit_creation_method	'EQeq! by Chris Wilmer'
_symmetry_space_group_name_H-M	'P1'
_symmetry_Int_Tables_number	1
_symmetry_cell_setting	triclinic
loop_
_symmetry_equiv_pos_as_xyz
  x,y,z
_cell_length_a	9.247
_cell_length_b	8.824
_cell_length_c	9.693
_cell_angle_alpha	90
_cell_angle_beta	120.72
_cell_angle_gamma	90
loop_
_atom_site_label
_atom_site_type_symbol
_atom_site_fract_x
_atom_site_fract_y
_atom_site_fract_z
_atom_site_charge
Mof_P 	P 	0.2632	0.8975	0.9315	0.441
Mof_P 	P 	0.1647	0.6676	0.5269	0.409
Mof_O 	O 	0.143	0.596	0.658	-0.344
Mof_O 	O 	0.332	0.735	0.586	-0.313
Mof_O 	O 	0.149	0.556	0.395	-0.309
Mof_O 	O 	0.347	0.941	0.107	-0.307
Mof_O 	O 	0.138	0.77	0.901	-0.372
Mof_O 	O 	0.374	0.882	0.868	-0.355
Mof_P 	P 	0.7368	0.8975	0.5685	0.502
Mof_P 	P 	0.8353	0.6676	0.9731	0.476
Mof_O 	O 	0.857	0.596	0.842	-0.249
Mof_O 	O 	0.668	0.735	0.914	-0.315
Mof_O 	O 	0.851	0.556	0.105	-0.2
Mof_O 	O 	0.653	0.941	0.393	-0.302
Mof_O 	O 	0.862	0.77	0.599	-0.246
Mof_O 	O 	0.626	0.882	0.632	-0.345
Mof_P 	P 	0.7368	0.1025	0.0685	0.513
Mof_P 	P 	0.8353	0.3324	0.4731	0.496
Mof_O 	O 	0.857	0.404	0.342	-0.246
Mof_O 	O 	0.668	0.265	0.414	-0.311
Mof_O 	O 	0.851	0.444	0.605	-0.217
Mof_O 	O 	0.653	0.059	0.893	-0.317
Mof_O 	O 	0.862	0.23	0.099	-0.246
Mof_O 	O 	0.626	0.118	0.132	-0.345
Mof_P 	P 	0.2632	0.1025	0.4315	0.462
Mof_P 	P 	0.1647	0.3324	0.0269	0.423
Mof_O 	O 	0.143	0.404	0.158	-0.342
Mof_O 	O 	0.332	0.265	0.086	-0.311
Mof_O 	O 	0.149	0.444	0.895	-0.322
Mof_O 	O 	0.347	0.059	0.607	-0.328
Mof_O 	O 	0.138	0.23	0.401	-0.37
Mof_O 	O 	0.374	0.118	0.368	-0.354
Mof_Fe	Fe	4.45348e-33	0.6096	0.75	0.812
Mof_Fe	Fe	2.09007e-17	0.3904	0.25	0.815
Mof_Fe	Fe	0.5	0.8877	0.75	1.008
Mof_Fe	Fe	0.5	0.1123	0.25	1.009
_end
