data_functionalizedCrystal
_audit_creation_method	'EQeq! by Chris Wilmer'
_symmetry_space_group_name_H-M	'P1'
_symmetry_Int_Tables_number	1
_symmetry_cell_setting	triclinic
loop_
_symmetry_equiv_pos_as_xyz
  x,y,z
_cell_length_a	12.6111
_cell_length_b	12.6111
_cell_length_c	30.2999
_cell_angle_alpha	90
_cell_angle_beta	90
_cell_angle_gamma	90
loop_
_atom_site_label
_atom_site_type_symbol
_atom_site_fract_x
_atom_site_fract_y
_atom_site_fract_z
_atom_site_charge
Mof_Co	Co	0.89434	0.94719	0.45954	1.159
Mof_C 	C 	0.1095	0.9143	0.3788	0.755
Mof_C 	C 	0.1575	0.8344	0.4097	-0.803
Mof_C 	C 	0.0839	0.8048	0.4493	0.345
Mof_C 	C 	0.1491	0.73	0.4775	-0.744
Mof_C 	C 	0.0915	0.6763	0.5134	0.522
Mof_C 	C 	0.9821	0.7477	0.4322	0.339
Mof_O 	O 	0.1108	0.0099	0.3911	-1.032
Mof_O 	O 	0.0722	0.8876	0.3427	-0.651
Mof_O 	O 	0.0598	0.8979	0.4715	-0.631
Mof_O 	O 	0.8937	0.7924	0.4383	-0.836
Mof_O 	O 	0.9944	0.6604	0.4169	-0.279
Mof_O 	O 	0.044	0.7341	0.5423	-0.799
Mof_O 	O 	0.0877	0.5759	0.5153	-0.545
Mof_H 	H 	0.2244	0.8578	0.4207	0.262
Mof_H 	H 	0.1654	0.7718	0.3932	0.248
Mof_H 	H 	0.2037	0.7691	0.4906	0.225
Mof_H 	H 	0.1788	0.6775	0.4594	0.257
Mof_O 	O 	0.605	0.703	0.4205	-0.359
Mof_O 	O 	0.65	0.656	0.4181	-0.275
Mof_Co	Co	0.39434	0.44719	0.95954	1.13
Mof_C 	C 	0.6095	0.4143	0.8788	0.658
Mof_C 	C 	0.6575	0.3344	0.9097	-0.772
Mof_C 	C 	0.5839	0.3048	0.9493	0.408
Mof_C 	C 	0.6491	0.23	0.9775	-0.767
Mof_C 	C 	0.5915	0.1763	0.0134	0.54
Mof_C 	C 	0.4821	0.2477	0.9322	0.261
Mof_O 	O 	0.6108	0.5099	0.8911	-0.936
Mof_O 	O 	0.5722	0.3876	0.8427	-0.624
Mof_O 	O 	0.5598	0.3979	0.9715	-0.642
Mof_O 	O 	0.3937	0.2924	0.9383	-0.825
Mof_O 	O 	0.4944	0.1604	0.9169	-0.322
Mof_O 	O 	0.544	0.2341	0.0423	-0.775
Mof_O 	O 	0.5877	0.0759	0.0153	-0.554
Mof_H 	H 	0.7244	0.3578	0.9207	0.237
Mof_H 	H 	0.6654	0.2718	0.8932	0.249
Mof_H 	H 	0.7037	0.2691	0.9906	0.228
Mof_H 	H 	0.6788	0.1775	0.9594	0.267
Mof_O 	O 	0.105	0.203	0.9205	-0.375
Mof_O 	O 	0.15	0.156	0.9181	-0.301
Mof_Co	Co	0.10566	0.05281	0.45954	1.098
Mof_C 	C 	0.8905	0.0857	0.3788	0.559
Mof_C 	C 	0.8425	0.1656	0.4097	-0.746
Mof_C 	C 	0.9161	0.1952	0.4493	0.475
Mof_C 	C 	0.8509	0.27	0.4775	-0.782
Mof_C 	C 	0.9085	0.3237	0.5134	0.548
Mof_C 	C 	0.0179	0.2523	0.4322	0.174
Mof_O 	O 	0.8892	0.9901	0.3911	-0.825
Mof_O 	O 	0.9278	0.1124	0.3427	-0.559
Mof_O 	O 	0.9402	0.1021	0.4715	-0.652
Mof_O 	O 	0.1063	0.2076	0.4383	-0.814
Mof_O 	O 	0.0056	0.3396	0.4169	-0.322
Mof_O 	O 	0.956	0.2659	0.5423	-0.74
Mof_O 	O 	0.9123	0.4241	0.5153	-0.49
Mof_H 	H 	0.7756	0.1422	0.4207	0.211
Mof_H 	H 	0.8346	0.2282	0.3932	0.259
Mof_H 	H 	0.7963	0.2309	0.4906	0.223
Mof_H 	H 	0.8212	0.3225	0.4594	0.286
Mof_O 	O 	0.395	0.297	0.4205	-0.351
Mof_O 	O 	0.35	0.344	0.4181	-0.278
Mof_Co	Co	0.60566	0.55281	0.95954	1.13
Mof_C 	C 	0.3905	0.5857	0.8788	0.657
Mof_C 	C 	0.3425	0.6656	0.9097	-0.777
Mof_C 	C 	0.4161	0.6952	0.9493	0.411
Mof_C 	C 	0.3509	0.77	0.9775	-0.758
Mof_C 	C 	0.4085	0.8237	0.0134	0.53
Mof_C 	C 	0.5179	0.7523	0.9322	0.256
Mof_O 	O 	0.3892	0.4901	0.8911	-0.925
Mof_O 	O 	0.4278	0.6124	0.8427	-0.617
Mof_O 	O 	0.4402	0.6021	0.9715	-0.643
Mof_O 	O 	0.6063	0.7076	0.9383	-0.824
Mof_O 	O 	0.5056	0.8396	0.9169	-0.279
Mof_O 	O 	0.456	0.7659	0.0423	-0.764
Mof_O 	O 	0.4123	0.9241	0.0153	-0.482
Mof_H 	H 	0.2756	0.6422	0.9207	0.237
Mof_H 	H 	0.3346	0.7282	0.8932	0.258
Mof_H 	H 	0.2963	0.7309	0.9906	0.22
Mof_H 	H 	0.3212	0.8225	0.9594	0.275
Mof_O 	O 	0.895	0.797	0.9205	-0.335
Mof_O 	O 	0.85	0.844	0.9181	-0.252
Mof_Co	Co	0.94719	0.10566	0.54046	1.133
Mof_C 	C 	0.9143	0.8905	0.6212	0.781
Mof_C 	C 	0.8344	0.8425	0.5903	-0.861
Mof_C 	C 	0.8048	0.9161	0.5507	0.504
Mof_C 	C 	0.73	0.8509	0.5225	-0.809
Mof_C 	C 	0.6763	0.9085	0.4866	0.557
Mof_C 	C 	0.7477	0.0179	0.5678	0.168
Mof_O 	O 	0.0099	0.8892	0.6089	-0.999
Mof_O 	O 	0.8876	0.9278	0.6573	-0.58
Mof_O 	O 	0.8979	0.9402	0.5285	-0.601
Mof_O 	O 	0.7924	0.1063	0.5617	-0.819
Mof_O 	O 	0.6604	0.0056	0.5831	-0.322
Mof_O 	O 	0.7341	0.956	0.4577	-0.749
Mof_O 	O 	0.5759	0.9123	0.4847	-0.494
Mof_H 	H 	0.8578	0.7756	0.5793	0.276
Mof_H 	H 	0.7718	0.8346	0.6068	0.291
Mof_H 	H 	0.7691	0.7963	0.5094	0.241
Mof_H 	H 	0.6775	0.8212	0.5406	0.294
Mof_O 	O 	0.703	0.395	0.5795	-0.351
Mof_O 	O 	0.656	0.35	0.5819	-0.281
Mof_Co	Co	0.44719	0.60566	0.04046	1.13
Mof_C 	C 	0.4143	0.3905	0.1212	0.653
Mof_C 	C 	0.3344	0.3425	0.0903	-0.76
Mof_C 	C 	0.3048	0.4161	0.0507	0.396
Mof_C 	C 	0.23	0.3509	0.0225	-0.744
Mof_C 	C 	0.1763	0.4085	0.9866	0.531
Mof_C 	C 	0.2477	0.5179	0.0678	0.266
Mof_O 	O 	0.5099	0.3892	0.1089	-0.928
Mof_O 	O 	0.3876	0.4278	0.1573	-0.621
Mof_O 	O 	0.3979	0.4402	0.0285	-0.641
Mof_O 	O 	0.2924	0.6063	0.0617	-0.831
Mof_O 	O 	0.1604	0.5056	0.0831	-0.324
Mof_O 	O 	0.2341	0.456	0.9577	-0.769
Mof_O 	O 	0.0759	0.4123	0.9847	-0.556
Mof_H 	H 	0.3578	0.2756	0.0793	0.229
Mof_H 	H 	0.2718	0.3346	0.1068	0.242
Mof_H 	H 	0.2691	0.2963	0.0094	0.211
Mof_H 	H 	0.1775	0.3212	0.0406	0.25
Mof_O 	O 	0.203	0.895	0.0795	-0.328
Mof_O 	O 	0.156	0.85	0.0819	-0.3
Mof_Co	Co	0.05281	0.89434	0.54046	1.129
Mof_C 	C 	0.0857	0.1095	0.6212	0.518
Mof_C 	C 	0.1656	0.1575	0.5903	-0.677
Mof_C 	C 	0.1952	0.0839	0.5507	0.308
Mof_C 	C 	0.27	0.1491	0.5225	-0.711
Mof_C 	C 	0.3237	0.0915	0.4866	0.512
Mof_C 	C 	0.2523	0.9821	0.5678	0.354
Mof_O 	O 	0.9901	0.1108	0.6089	-0.847
Mof_O 	O 	0.1124	0.0722	0.6573	-0.631
Mof_O 	O 	0.1021	0.0598	0.5285	-0.686
Mof_O 	O 	0.2076	0.8937	0.5617	-0.831
Mof_O 	O 	0.3396	0.9944	0.5831	-0.28
Mof_O 	O 	0.2659	0.044	0.4577	-0.791
Mof_O 	O 	0.4241	0.0877	0.4847	-0.542
Mof_H 	H 	0.1422	0.2244	0.5793	0.193
Mof_H 	H 	0.2282	0.1654	0.6068	0.212
Mof_H 	H 	0.2309	0.2037	0.5094	0.205
Mof_H 	H 	0.3225	0.1788	0.5406	0.246
Mof_O 	O 	0.297	0.605	0.5795	-0.359
Mof_O 	O 	0.344	0.65	0.5819	-0.272
Mof_Co	Co	0.55281	0.39434	0.04046	1.13
Mof_C 	C 	0.5857	0.6095	0.1212	0.661
Mof_C 	C 	0.6656	0.6575	0.0903	-0.788
Mof_C 	C 	0.6952	0.5839	0.0507	0.422
Mof_C 	C 	0.77	0.6491	0.0225	-0.779
Mof_C 	C 	0.8237	0.5915	0.9866	0.539
Mof_C 	C 	0.7523	0.4821	0.0678	0.251
Mof_O 	O 	0.4901	0.6108	0.1089	-0.933
Mof_O 	O 	0.6124	0.5722	0.1573	-0.62
Mof_O 	O 	0.6021	0.5598	0.0285	-0.645
Mof_O 	O 	0.7076	0.3937	0.0617	-0.818
Mof_O 	O 	0.8396	0.4944	0.0831	-0.277
Mof_O 	O 	0.7659	0.544	0.9577	-0.769
Mof_O 	O 	0.9241	0.5877	0.9847	-0.48
Mof_H 	H 	0.6422	0.7244	0.0793	0.244
Mof_H 	H 	0.7282	0.6654	0.1068	0.264
Mof_H 	H 	0.7309	0.7037	0.0094	0.236
Mof_H 	H 	0.8225	0.6788	0.0406	0.291
Mof_O 	O 	0.797	0.105	0.0795	-0.381
Mof_O 	O 	0.844	0.15	0.0819	-0.252
Mof_Co	Co	0.60566	0.94719	0.29046	1.146
Mof_C 	C 	0.3905	0.9143	0.3712	0.771
Mof_C 	C 	0.3425	0.8344	0.3403	-0.829
Mof_C 	C 	0.4161	0.8048	0.3007	0.421
Mof_C 	C 	0.3509	0.73	0.2725	-0.767
Mof_C 	C 	0.4085	0.6763	0.2366	0.537
Mof_C 	C 	0.5179	0.7477	0.3178	0.256
Mof_O 	O 	0.3892	0.0099	0.3589	-1.016
Mof_O 	O 	0.4278	0.8876	0.4073	-0.622
Mof_O 	O 	0.4402	0.8979	0.2785	-0.615
Mof_O 	O 	0.6063	0.7924	0.3117	-0.83
Mof_O 	O 	0.5056	0.6604	0.3331	-0.302
Mof_O 	O 	0.456	0.7341	0.2077	-0.773
Mof_O 	O 	0.4123	0.5759	0.2347	-0.528
Mof_H 	H 	0.2756	0.8578	0.3293	0.267
Mof_H 	H 	0.3346	0.7718	0.3568	0.267
Mof_H 	H 	0.2963	0.7691	0.2594	0.226
Mof_H 	H 	0.3212	0.6775	0.2906	0.268
Mof_O 	O 	0.895	0.703	0.3295	-0.331
Mof_O 	O 	0.85	0.656	0.3319	-0.278
Mof_Co	Co	0.10566	0.44719	0.79046	1.115
Mof_C 	C 	0.8905	0.4143	0.8712	0.67
Mof_C 	C 	0.8425	0.3344	0.8403	-0.797
Mof_C 	C 	0.9161	0.3048	0.8007	0.484
Mof_C 	C 	0.8509	0.23	0.7725	-0.789
Mof_C 	C 	0.9085	0.1763	0.7366	0.552
Mof_C 	C 	0.0179	0.2477	0.8178	0.175
Mof_O 	O 	0.8892	0.5099	0.8589	-0.915
Mof_O 	O 	0.9278	0.3876	0.9073	-0.578
Mof_O 	O 	0.9402	0.3979	0.7785	-0.625
Mof_O 	O 	0.1063	0.2924	0.8117	-0.819
Mof_O 	O 	0.0056	0.1604	0.8331	-0.344
Mof_O 	O 	0.956	0.2341	0.7077	-0.744
Mof_O 	O 	0.9123	0.0759	0.7347	-0.521
Mof_H 	H 	0.7756	0.3578	0.8293	0.24
Mof_H 	H 	0.8346	0.2718	0.8568	0.268
Mof_H 	H 	0.7963	0.2691	0.7594	0.227
Mof_H 	H 	0.8212	0.1775	0.7906	0.277
Mof_O 	O 	0.395	0.203	0.8295	-0.349
Mof_O 	O 	0.35	0.156	0.8319	-0.303
Mof_Co	Co	0.39434	0.05281	0.29046	1.113
Mof_C 	C 	0.6095	0.0857	0.3712	0.543
Mof_C 	C 	0.6575	0.1656	0.3403	-0.72
Mof_C 	C 	0.5839	0.1952	0.3007	0.399
Mof_C 	C 	0.6491	0.27	0.2725	-0.761
Mof_C 	C 	0.5915	0.3237	0.2366	0.537
Mof_C 	C 	0.4821	0.2523	0.3178	0.261
Mof_O 	O 	0.6108	0.9901	0.3589	-0.842
Mof_O 	O 	0.5722	0.1124	0.4073	-0.604
Mof_O 	O 	0.5598	0.1021	0.2785	-0.671
Mof_O 	O 	0.3937	0.2076	0.3117	-0.819
Mof_O 	O 	0.4944	0.3396	0.3331	-0.3
Mof_O 	O 	0.544	0.2659	0.2077	-0.77
Mof_O 	O 	0.5877	0.4241	0.2347	-0.523
Mof_H 	H 	0.7244	0.1422	0.3293	0.207
Mof_H 	H 	0.6654	0.2282	0.3568	0.24
Mof_H 	H 	0.7037	0.2309	0.2594	0.224
Mof_H 	H 	0.6788	0.3225	0.2906	0.275
Mof_O 	O 	0.105	0.297	0.3295	-0.378
Mof_O 	O 	0.15	0.344	0.3319	-0.276
Mof_Co	Co	0.89434	0.55281	0.79046	1.145
Mof_C 	C 	0.1095	0.5857	0.8712	0.641
Mof_C 	C 	0.1575	0.6656	0.8403	-0.749
Mof_C 	C 	0.0839	0.6952	0.8007	0.336
Mof_C 	C 	0.1491	0.77	0.7725	-0.732
Mof_C 	C 	0.0915	0.8237	0.7366	0.515
Mof_C 	C 	0.9821	0.7523	0.8178	0.34
Mof_O 	O 	0.1108	0.4901	0.8589	-0.941
Mof_O 	O 	0.0722	0.6124	0.9073	-0.647
Mof_O 	O 	0.0598	0.6021	0.7785	-0.66
Mof_O 	O 	0.8937	0.7076	0.8117	-0.829
Mof_O 	O 	0.9944	0.8396	0.8331	-0.259
Mof_O 	O 	0.044	0.7659	0.7077	-0.79
Mof_O 	O 	0.0877	0.9241	0.7347	-0.498
Mof_H 	H 	0.2244	0.6422	0.8293	0.232
Mof_H 	H 	0.1654	0.7282	0.8568	0.239
Mof_H 	H 	0.2037	0.7309	0.7594	0.219
Mof_H 	H 	0.1788	0.8225	0.7906	0.264
Mof_O 	O 	0.605	0.797	0.8295	-0.362
Mof_O 	O 	0.65	0.844	0.8319	-0.249
Mof_Co	Co	0.55281	0.10566	0.20954	1.115
Mof_C 	C 	0.5857	0.8905	0.1288	0.673
Mof_C 	C 	0.6656	0.8425	0.1597	-0.812
Mof_C 	C 	0.6952	0.9161	0.1993	0.495
Mof_C 	C 	0.77	0.8509	0.2275	-0.8
Mof_C 	C 	0.8237	0.9085	0.2634	0.55
Mof_C 	C 	0.7523	0.0179	0.1822	0.167
Mof_O 	O 	0.4901	0.8892	0.1411	-0.912
Mof_O 	O 	0.6124	0.9278	0.0927	-0.575
Mof_O 	O 	0.6021	0.9402	0.2215	-0.627
Mof_O 	O 	0.7076	0.1063	0.1883	-0.812
Mof_O 	O 	0.8396	0.0056	0.1669	-0.298
Mof_O 	O 	0.7659	0.956	0.2923	-0.74
Mof_O 	O 	0.9241	0.9123	0.2653	-0.45
Mof_H 	H 	0.6422	0.7756	0.1707	0.247
Mof_H 	H 	0.7282	0.8346	0.1432	0.282
Mof_H 	H 	0.7309	0.7963	0.2406	0.235
Mof_H 	H 	0.8225	0.8212	0.2094	0.301
Mof_O 	O 	0.797	0.395	0.1705	-0.355
Mof_O 	O 	0.844	0.35	0.1681	-0.254
Mof_Co	Co	0.05281	0.60566	0.70954	1.113
Mof_C 	C 	0.0857	0.3905	0.6288	0.536
Mof_C 	C 	0.1656	0.3425	0.6597	-0.707
Mof_C 	C 	0.1952	0.4161	0.6993	0.387
Mof_C 	C 	0.27	0.3509	0.7275	-0.737
Mof_C 	C 	0.3237	0.4085	0.7634	0.527
Mof_C 	C 	0.2523	0.5179	0.6822	0.266
Mof_O 	O 	0.9901	0.3892	0.6411	-0.833
Mof_O 	O 	0.1124	0.4278	0.5927	-0.602
Mof_O 	O 	0.1021	0.4402	0.7215	-0.669
Mof_O 	O 	0.2076	0.6063	0.6883	-0.826
Mof_O 	O 	0.3396	0.5056	0.6669	-0.302
Mof_O 	O 	0.2659	0.456	0.7923	-0.764
Mof_O 	O 	0.4241	0.4123	0.7653	-0.524
Mof_H 	H 	0.1422	0.2756	0.6707	0.198
Mof_H 	H 	0.2282	0.3346	0.6432	0.233
Mof_H 	H 	0.2309	0.2963	0.7406	0.206
Mof_H 	H 	0.3225	0.3212	0.7094	0.258
Mof_O 	O 	0.297	0.895	0.6705	-0.331
Mof_O 	O 	0.344	0.85	0.6681	-0.275
Mof_Co	Co	0.44719	0.89434	0.20954	1.145
Mof_C 	C 	0.4143	0.1095	0.1288	0.636
Mof_C 	C 	0.3344	0.1575	0.1597	-0.731
Mof_C 	C 	0.3048	0.0839	0.1993	0.318
Mof_C 	C 	0.23	0.1491	0.2275	-0.719
Mof_C 	C 	0.1763	0.0915	0.2634	0.516
Mof_C 	C 	0.2477	0.9821	0.1822	0.354
Mof_O 	O 	0.5099	0.1108	0.1411	-0.943
Mof_O 	O 	0.3876	0.0722	0.0927	-0.651
Mof_O 	O 	0.3979	0.0598	0.2215	-0.657
Mof_O 	O 	0.2924	0.8937	0.1883	-0.836
Mof_O 	O 	0.1604	0.9944	0.1669	-0.301
Mof_O 	O 	0.2341	0.044	0.2923	-0.796
Mof_O 	O 	0.0759	0.0877	0.2653	-0.573
Mof_H 	H 	0.3578	0.2244	0.1707	0.224
Mof_H 	H 	0.2718	0.1654	0.1432	0.222
Mof_H 	H 	0.2691	0.2037	0.2406	0.21
Mof_H 	H 	0.1775	0.1788	0.2094	0.238
Mof_O 	O 	0.203	0.605	0.1705	-0.357
Mof_O 	O 	0.156	0.65	0.1681	-0.297
Mof_Co	Co	0.94719	0.39434	0.70954	1.147
Mof_C 	C 	0.9143	0.6095	0.6288	0.773
Mof_C 	C 	0.8344	0.6575	0.6597	-0.839
Mof_C 	C 	0.8048	0.5839	0.6993	0.432
Mof_C 	C 	0.73	0.6491	0.7275	-0.789
Mof_C 	C 	0.6763	0.5915	0.7634	0.546
Mof_C 	C 	0.7477	0.4821	0.6822	0.251
Mof_O 	O 	0.0099	0.6108	0.6411	-1.023
Mof_O 	O 	0.8876	0.5722	0.5927	-0.624
Mof_O 	O 	0.8979	0.5598	0.7215	-0.617
Mof_O 	O 	0.7924	0.3937	0.6883	-0.824
Mof_O 	O 	0.6604	0.4944	0.6669	-0.3
Mof_O 	O 	0.7341	0.544	0.7923	-0.778
Mof_O 	O 	0.5759	0.5877	0.7653	-0.526
Mof_H 	H 	0.8578	0.7244	0.6707	0.274
Mof_H 	H 	0.7718	0.6654	0.6432	0.273
Mof_H 	H 	0.7691	0.7037	0.7406	0.242
Mof_H 	H 	0.6775	0.6788	0.7094	0.284
Mof_O 	O 	0.703	0.105	0.6705	-0.377
Mof_O 	O 	0.656	0.15	0.6681	-0.279
Mof_Co	Co	-2.44908e-33	0	0.30964	1.066
Mof_Co	Co	0.5	0.5	0.80964	1.144
Mof_Co	Co	2.71729e-32	2.09538e-32	0.69036	1.065
Mof_Co	Co	0.5	0.5	0.19036	1.144
Mof_Co	Co	0.5	0	0.44036	1.105
Mof_Co	Co	2.9425e-32	0.5	0.94036	1.105
Mof_Co	Co	0.5	0	0.05964	1.105
Mof_Co	Co	5.04149e-33	0.5	0.55964	1.105
Mof_K 	K 	0.75	0.8275	0.375	4.533
Mof_K 	K 	0.25	0.3275	0.875	4.411
Mof_K 	K 	0.25	0.1725	0.375	4.428
Mof_K 	K 	0.75	0.6725	0.875	4.536
Mof_K 	K 	0.8275	0.25	0.625	4.46
Mof_K 	K 	0.1725	0.75	0.625	4.504
Mof_K 	K 	0.6725	0.25	0.125	4.462
Mof_K 	K 	0.3275	0.75	0.125	4.487
_end
