data_functionalizedCrystal
_audit_creation_method	'EQeq! by Chris Wilmer'
_symmetry_space_group_name_H-M	'P1'
_symmetry_Int_Tables_number	1
_symmetry_cell_setting	triclinic
loop_
_symmetry_equiv_pos_as_xyz
  x,y,z
_cell_length_a	18.5858
_cell_length_b	18.5858
_cell_length_c	18.5858
_cell_angle_alpha	60
_cell_angle_beta	60
_cell_angle_gamma	60
loop_
_atom_site_label
_atom_site_type_symbol
_atom_site_fract_x
_atom_site_fract_y
_atom_site_fract_z
_atom_site_charge
Mof_Cu	Cu	0.56984	0	-0	0.695
Mof_Cu	Cu	-5.00854e-17	0.43016	-0	0.682
Mof_Cu	Cu	-5.00854e-17	0.56984	-0	0.695
Mof_Cu	Cu	0.43016	0.56984	-0	0.799
Mof_Cu	Cu	-5.00854e-17	0.43016	0.56984	0.799
Mof_Cu	Cu	0.56984	0.43016	-0	0.799
Mof_Cu	Cu	0.43016	2.50427e-17	0.56984	0.798
Mof_Cu	Cu	-3.75641e-17	0	0.43016	0.681
Mof_Cu	Cu	0.43016	0	-0	0.681
Mof_Cu	Cu	0.56984	0	0.43016	0.798
Mof_Cu	Cu	-0	2.50427e-17	0.56984	0.694
Mof_Cu	Cu	-8.76495e-17	0.56984	0.43016	0.798
Mof_H 	H 	0.4883	0.2725	0.2725	0.005
Mof_H 	H 	0.4883	0.9667	0.2725	0.075
Mof_H 	H 	0.2725	0.9667	0.2725	0.052
Mof_H 	H 	0.7275	0.5117	0.0333	0.028
Mof_H 	H 	0.2725	0.4883	0.9667	0.075
Mof_H 	H 	0.9667	0.2725	0.2725	0.052
Mof_H 	H 	0.5117	0.7275	0.0333	0.028
Mof_H 	H 	0.2725	0.4883	0.2725	0.005
Mof_H 	H 	0.7275	0.0333	0.5117	0.028
Mof_H 	H 	0.2725	0.2725	0.4883	0.005
Mof_H 	H 	0.0333	0.7275	0.7275	0.054
Mof_H 	H 	0.7275	0.0333	0.7275	0.054
Mof_H 	H 	0.0333	0.7275	0.5117	0.028
Mof_H 	H 	0.2725	0.9667	0.4883	0.075
Mof_H 	H 	0.5117	0.0333	0.7275	0.028
Mof_H 	H 	0.7275	0.5117	0.7275	0.092
Mof_H 	H 	0.7275	0.7275	0.5117	0.092
Mof_H 	H 	0.9667	0.4883	0.2725	0.075
Mof_H 	H 	0.5117	0.7275	0.7275	0.092
Mof_H 	H 	0.4883	0.2725	0.9667	0.075
Mof_H 	H 	0.2725	0.2725	0.9667	0.052
Mof_H 	H 	0.7275	0.7275	0.0333	0.054
Mof_H 	H 	0.0333	0.5117	0.7275	0.028
Mof_H 	H 	0.9667	0.2725	0.4883	0.075
Mof_C 	C 	0.03314	0.69864	0.69864	0.055
Mof_C 	C 	0.38758	0.25788	0.96696	-0.084
Mof_C 	C 	0.43137	0.16267	0.97459	0.35
Mof_C 	C 	0.30136	0.43042	0.30136	0.086
Mof_C 	C 	0.43137	0.43137	0.97459	0.349
Mof_C 	C 	0.69864	0.03314	0.69864	0.055
Mof_C 	C 	0.03304	0.61242	0.74212	-0.117
Mof_C 	C 	0.96696	0.25788	0.38758	-0.084
Mof_C 	C 	0.03304	0.74212	0.61242	-0.117
Mof_C 	C 	0.74212	0.03304	0.61242	-0.117
Mof_C 	C 	0.69864	0.56958	0.03314	0.062
Mof_C 	C 	0.96696	0.38758	0.38758	-0.066
Mof_C 	C 	0.69864	0.69864	0.03314	0.055
Mof_C 	C 	0.83733	0.02541	0.56863	0.354
Mof_C 	C 	0.30136	0.43042	0.96686	0.039
Mof_C 	C 	0.16267	0.97459	0.43137	0.35
Mof_C 	C 	0.16267	0.43137	0.43137	0.381
Mof_C 	C 	0.38758	0.38758	0.25788	-0.177
Mof_C 	C 	0.25788	0.38758	0.96696	-0.084
Mof_C 	C 	0.43137	0.97459	0.16267	0.35
Mof_C 	C 	0.30136	0.30136	0.96686	0.042
Mof_C 	C 	0.43042	0.30136	0.96686	0.039
Mof_C 	C 	0.69864	0.69864	0.56958	0.026
Mof_C 	C 	0.56863	0.02541	0.83733	0.354
Mof_C 	C 	0.61242	0.61242	0.03304	-0.141
Mof_C 	C 	0.56958	0.69864	0.69864	0.026
Mof_C 	C 	0.61242	0.74212	0.61242	-0.041
Mof_C 	C 	0.96686	0.43042	0.30136	0.039
Mof_C 	C 	0.30136	0.96686	0.43042	0.039
Mof_C 	C 	0.83733	0.56863	0.56863	0.345
Mof_C 	C 	0.83733	0.56863	0.02541	0.354
Mof_C 	C 	0.25788	0.38758	0.38758	-0.177
Mof_C 	C 	0.97459	0.16267	0.43137	0.35
Mof_C 	C 	0.43137	0.16267	0.43137	0.381
Mof_C 	C 	0.96696	0.38758	0.25788	-0.084
Mof_C 	C 	0.02541	0.56863	0.83733	0.354
Mof_C 	C 	0.97459	0.43137	0.43137	0.349
Mof_C 	C 	0.38758	0.96696	0.38758	-0.066
Mof_C 	C 	0.43137	0.97459	0.43137	0.349
Mof_C 	C 	0.56863	0.56863	0.83733	0.345
Mof_C 	C 	0.03314	0.69864	0.56958	0.062
Mof_C 	C 	0.61242	0.03304	0.74212	-0.117
Mof_C 	C 	0.61242	0.61242	0.74212	-0.041
Mof_C 	C 	0.74212	0.61242	0.03304	-0.117
Mof_C 	C 	0.02541	0.56863	0.56863	0.375
Mof_C 	C 	0.43042	0.30136	0.30136	0.086
Mof_C 	C 	0.69864	0.56958	0.69864	0.026
Mof_C 	C 	0.43042	0.96686	0.30136	0.039
Mof_C 	C 	0.38758	0.25788	0.38758	-0.177
Mof_C 	C 	0.56863	0.56863	0.02541	0.375
Mof_C 	C 	0.56958	0.03314	0.69864	0.062
Mof_C 	C 	0.97459	0.43137	0.16267	0.35
Mof_C 	C 	0.43137	0.43137	0.16267	0.381
Mof_C 	C 	0.61242	0.03304	0.61242	-0.141
Mof_C 	C 	0.30136	0.96686	0.30136	0.042
Mof_C 	C 	0.74212	0.61242	0.61242	-0.041
Mof_C 	C 	0.03314	0.56958	0.69864	0.062
Mof_C 	C 	0.56863	0.02541	0.56863	0.375
Mof_C 	C 	0.30136	0.30136	0.43042	0.086
Mof_C 	C 	0.96686	0.30136	0.43042	0.039
Mof_C 	C 	0.38758	0.96696	0.25788	-0.084
Mof_C 	C 	0.69864	0.03314	0.56958	0.062
Mof_C 	C 	0.56958	0.69864	0.03314	0.062
Mof_C 	C 	0.02541	0.83733	0.56863	0.354
Mof_C 	C 	0.16267	0.43137	0.97459	0.35
Mof_C 	C 	0.03304	0.61242	0.61242	-0.141
Mof_C 	C 	0.25788	0.96696	0.38758	-0.084
Mof_C 	C 	0.96686	0.30136	0.30136	0.042
Mof_C 	C 	0.61242	0.74212	0.03304	-0.117
Mof_C 	C 	0.56863	0.83733	0.56863	0.345
Mof_C 	C 	0.56863	0.83733	0.02541	0.354
Mof_C 	C 	0.38758	0.38758	0.96696	-0.066
Mof_O 	O 	0.61257	0.49233	0.87379	-0.283
Mof_O 	O 	0.97869	0.38743	0.12621	-0.353
Mof_O 	O 	0.50767	0.97869	0.12621	-0.334
Mof_O 	O 	0.38743	0.12621	0.97869	-0.353
Mof_O 	O 	0.61257	0.02131	0.87379	-0.346
Mof_O 	O 	0.50767	0.12621	0.97869	-0.334
Mof_O 	O 	0.49233	0.87379	0.61257	-0.283
Mof_O 	O 	0.87379	0.61257	0.49233	-0.283
Mof_O 	O 	0.49233	0.87379	0.02131	-0.366
Mof_O 	O 	0.97869	0.50767	0.12621	-0.334
Mof_O 	O 	0.97869	0.50767	0.38743	-0.292
Mof_O 	O 	0.50767	0.38743	0.12621	-0.475
Mof_O 	O 	0.49233	0.61257	0.87379	-0.283
Mof_O 	O 	0.02131	0.49233	0.87379	-0.366
Mof_O 	O 	0.87379	0.61257	0.02131	-0.346
Mof_O 	O 	0.61257	0.02131	0.49233	-0.463
Mof_O 	O 	0.97869	0.12621	0.50767	-0.334
Mof_O 	O 	0.61257	0.87379	0.02131	-0.346
Mof_O 	O 	0.12621	0.97869	0.38743	-0.353
Mof_O 	O 	0.02131	0.49233	0.61257	-0.463
Mof_O 	O 	0.12621	0.50767	0.38743	-0.475
Mof_O 	O 	0.50767	0.97869	0.38743	-0.292
Mof_O 	O 	0.02131	0.61257	0.87379	-0.346
Mof_O 	O 	0.97869	0.12621	0.38743	-0.353
Mof_O 	O 	0.49233	0.02131	0.61257	-0.463
Mof_O 	O 	0.12621	0.50767	0.97869	-0.334
Mof_O 	O 	0.87379	0.02131	0.49233	-0.366
Mof_O 	O 	0.61257	0.87379	0.49233	-0.283
Mof_O 	O 	0.87379	0.49233	0.61257	-0.283
Mof_O 	O 	0.50767	0.12621	0.38743	-0.475
Mof_O 	O 	0.38743	0.50767	0.12621	-0.475
Mof_O 	O 	0.02131	0.87379	0.61257	-0.346
Mof_O 	O 	0.38743	0.12621	0.50767	-0.475
Mof_O 	O 	0.87379	0.49233	0.02131	-0.366
Mof_O 	O 	0.87379	0.02131	0.61257	-0.346
Mof_O 	O 	0.50767	0.38743	0.97869	-0.292
Mof_O 	O 	0.49233	0.02131	0.87379	-0.366
Mof_O 	O 	0.38743	0.50767	0.97869	-0.292
Mof_O 	O 	0.97869	0.38743	0.50767	-0.292
Mof_O 	O 	0.02131	0.61257	0.49233	-0.463
Mof_O 	O 	0.38743	0.97869	0.50767	-0.292
Mof_O 	O 	0.49233	0.61257	0.02131	-0.463
Mof_O 	O 	0.02131	0.87379	0.49233	-0.366
Mof_O 	O 	0.38743	0.97869	0.12621	-0.353
Mof_O 	O 	0.12621	0.38743	0.97869	-0.353
Mof_O 	O 	0.12621	0.38743	0.50767	-0.475
Mof_O 	O 	0.61257	0.49233	0.02131	-0.463
Mof_O 	O 	0.12621	0.97869	0.50767	-0.334
_end
