data_functionalizedCrystal
_audit_creation_method	'EQeq! by Chris Wilmer'
_symmetry_space_group_name_H-M	'P1'
_symmetry_Int_Tables_number	1
_symmetry_cell_setting	triclinic
loop_
_symmetry_equiv_pos_as_xyz
  x,y,z
_cell_length_a	18.899
_cell_length_b	18.899
_cell_length_c	31.69
_cell_angle_alpha	90
_cell_angle_beta	90
_cell_angle_gamma	120
loop_
_atom_site_label
_atom_site_type_symbol
_atom_site_fract_x
_atom_site_fract_y
_atom_site_fract_z
_atom_site_charge
Mof_O 	O 	0.5175	0.6269	0.00691	-0.398
Mof_O 	O 	0.5548	0.5903	0.94728	-0.384
Mof_C 	C 	0.6013	0.7393	0.9112	0.133
Mof_H 	H 	0.6121	0.7024	0.8973	0.04
Mof_C 	C 	0.5457	0.6404	0.9708	0.384
Mof_C 	C 	0.5674	0.7209	0.95101	-0.13
Mof_Cl	Cl	0.559	0.846	0.80896	-0.286
Mof_O 	O 	0.18417	0.96023	0.34024	-0.4
Mof_O 	O 	0.22147	0.92363	0.28061	-0.385
Mof_C 	C 	0.26797	0.07263	0.24453	0.14
Mof_H 	H 	0.27877	0.03573	0.23063	0.033
Mof_C 	C 	0.21237	0.97373	0.30413	0.399
Mof_C 	C 	0.23407	0.05423	0.28434	-0.15
Mof_Cl	Cl	0.22567	0.17933	0.14229	-0.294
Mof_O 	O 	0.85083	0.29357	0.67358	-0.398
Mof_O 	O 	0.88813	0.25697	0.61395	-0.383
Mof_C 	C 	0.93463	0.40597	0.57787	0.133
Mof_H 	H 	0.94543	0.36907	0.56397	0.042
Mof_C 	C 	0.87903	0.30707	0.63747	0.384
Mof_C 	C 	0.90073	0.38757	0.61768	-0.129
Mof_Cl	Cl	0.89233	0.51267	0.47563	-0.279
Mof_O 	O 	0.3731	0.8906	0.00691	-0.397
Mof_O 	O 	0.4097	0.9645	0.94728	-0.379
Mof_C 	C 	0.2607	0.862	0.9112	0.133
Mof_H 	H 	0.2976	0.9097	0.8973	0.041
Mof_C 	C 	0.3596	0.9053	0.9708	0.384
Mof_C 	C 	0.2791	0.8465	0.95101	-0.13
Mof_Cl	Cl	0.154	0.713	0.80896	-0.291
Mof_O 	O 	0.03977	0.22393	0.34024	-0.401
Mof_O 	O 	0.07637	0.29783	0.28061	-0.385
Mof_C 	C 	0.92737	0.19533	0.24453	0.128
Mof_H 	H 	0.96427	0.24303	0.23063	0.044
Mof_C 	C 	0.02627	0.23863	0.30413	0.37
Mof_C 	C 	0.94577	0.17983	0.28434	-0.117
Mof_Cl	Cl	0.82067	0.04633	0.14229	-0.292
Mof_O 	O 	0.70643	0.55727	0.67358	-0.399
Mof_O 	O 	0.74303	0.63117	0.61395	-0.383
Mof_C 	C 	0.59403	0.52867	0.57787	0.133
Mof_H 	H 	0.63093	0.57637	0.56397	0.04
Mof_C 	C 	0.69293	0.57197	0.63747	0.384
Mof_C 	C 	0.61243	0.51317	0.61768	-0.13
Mof_Cl	Cl	0.48733	0.37967	0.47563	-0.29
Mof_O 	O 	0.1094	0.4825	0.00691	-0.402
Mof_O 	O 	0.0355	0.4452	0.94728	-0.39
Mof_C 	C 	0.138	0.3987	0.9112	0.133
Mof_H 	H 	0.0903	0.3879	0.8973	0.038
Mof_C 	C 	0.0947	0.4543	0.9708	0.385
Mof_C 	C 	0.1535	0.4326	0.95101	-0.133
Mof_Cl	Cl	0.287	0.441	0.80896	-0.289
Mof_O 	O 	0.77607	0.81583	0.34024	-0.396
Mof_O 	O 	0.70217	0.77853	0.28061	-0.383
Mof_C 	C 	0.80467	0.73203	0.24453	0.131
Mof_H 	H 	0.75697	0.72123	0.23063	0.041
Mof_C 	C 	0.76137	0.78763	0.30413	0.382
Mof_C 	C 	0.82017	0.76593	0.28434	-0.124
Mof_Cl	Cl	0.95367	0.77433	0.14229	-0.279
Mof_O 	O 	0.44273	0.14917	0.67358	-0.4
Mof_O 	O 	0.36883	0.11187	0.61395	-0.386
Mof_C 	C 	0.47133	0.06537	0.57787	0.132
Mof_H 	H 	0.42363	0.05457	0.56397	0.037
Mof_C 	C 	0.42803	0.12097	0.63747	0.384
Mof_C 	C 	0.48683	0.09927	0.61768	-0.133
Mof_Cl	Cl	0.62033	0.10767	0.47563	-0.291
Mof_O 	O 	0.6269	0.5175	0.99309	-0.399
Mof_O 	O 	0.5903	0.5548	0.05272	-0.384
Mof_C 	C 	0.7393	0.6013	0.0888	0.133
Mof_H 	H 	0.7024	0.6121	0.1027	0.04
Mof_C 	C 	0.6404	0.5457	0.0292	0.384
Mof_C 	C 	0.7209	0.5674	0.04899	-0.13
Mof_Cl	Cl	0.846	0.559	0.19104	-0.286
Mof_O 	O 	0.29357	0.85083	0.32642	-0.398
Mof_O 	O 	0.25697	0.88813	0.38605	-0.383
Mof_C 	C 	0.40597	0.93463	0.42213	0.133
Mof_H 	H 	0.36907	0.94543	0.43603	0.042
Mof_C 	C 	0.30707	0.87903	0.36253	0.384
Mof_C 	C 	0.38757	0.90073	0.38232	-0.129
Mof_Cl	Cl	0.51267	0.89233	0.52437	-0.279
Mof_O 	O 	0.96023	0.18417	0.65976	-0.4
Mof_O 	O 	0.92363	0.22147	0.71939	-0.385
Mof_C 	C 	0.07263	0.26797	0.75547	0.14
Mof_H 	H 	0.03573	0.27877	0.76937	0.033
Mof_C 	C 	0.97373	0.21237	0.69587	0.399
Mof_C 	C 	0.05423	0.23407	0.71566	-0.15
Mof_Cl	Cl	0.17933	0.22567	0.85771	-0.294
Mof_O 	O 	0.8906	0.3731	0.99309	-0.397
Mof_O 	O 	0.9645	0.4097	0.05272	-0.379
Mof_C 	C 	0.862	0.2607	0.0888	0.133
Mof_H 	H 	0.9097	0.2976	0.1027	0.041
Mof_C 	C 	0.9053	0.3596	0.0292	0.384
Mof_C 	C 	0.8465	0.2791	0.04899	-0.13
Mof_Cl	Cl	0.713	0.154	0.19104	-0.291
Mof_O 	O 	0.55727	0.70643	0.32642	-0.399
Mof_O 	O 	0.63117	0.74303	0.38605	-0.383
Mof_C 	C 	0.52867	0.59403	0.42213	0.133
Mof_H 	H 	0.57637	0.63093	0.43603	0.04
Mof_C 	C 	0.57197	0.69293	0.36253	0.384
Mof_C 	C 	0.51317	0.61243	0.38232	-0.13
Mof_Cl	Cl	0.37967	0.48733	0.52437	-0.29
Mof_O 	O 	0.22393	0.03977	0.65976	-0.401
Mof_O 	O 	0.29783	0.07637	0.71939	-0.385
Mof_C 	C 	0.19533	0.92737	0.75547	0.128
Mof_H 	H 	0.24303	0.96427	0.76937	0.044
Mof_C 	C 	0.23863	0.02627	0.69587	0.37
Mof_C 	C 	0.17983	0.94577	0.71566	-0.117
Mof_Cl	Cl	0.04633	0.82067	0.85771	-0.292
Mof_O 	O 	0.4825	0.1094	0.99309	-0.402
Mof_O 	O 	0.4452	0.0355	0.05272	-0.39
Mof_C 	C 	0.3987	0.138	0.0888	0.133
Mof_H 	H 	0.3879	0.0903	0.1027	0.038
Mof_C 	C 	0.4543	0.0947	0.0292	0.385
Mof_C 	C 	0.4326	0.1535	0.04899	-0.133
Mof_Cl	Cl	0.441	0.287	0.19104	-0.289
Mof_O 	O 	0.14917	0.44273	0.32642	-0.4
Mof_O 	O 	0.11187	0.36883	0.38605	-0.386
Mof_C 	C 	0.06537	0.47133	0.42213	0.132
Mof_H 	H 	0.05457	0.42363	0.43603	0.037
Mof_C 	C 	0.12097	0.42803	0.36253	0.384
Mof_C 	C 	0.09927	0.48683	0.38232	-0.133
Mof_Cl	Cl	0.10767	0.62033	0.52437	-0.291
Mof_O 	O 	0.81583	0.77607	0.65976	-0.396
Mof_O 	O 	0.77853	0.70217	0.71939	-0.383
Mof_C 	C 	0.73203	0.80467	0.75547	0.131
Mof_H 	H 	0.72123	0.75697	0.76937	0.041
Mof_C 	C 	0.78763	0.76137	0.69587	0.382
Mof_C 	C 	0.76593	0.82017	0.71566	-0.124
Mof_Cl	Cl	0.77433	0.95367	0.85771	-0.279
Mof_O 	O 	0.4825	0.3731	0.99309	-0.4
Mof_O 	O 	0.4452	0.4097	0.05272	-0.385
Mof_C 	C 	0.3987	0.2607	0.0888	0.133
Mof_H 	H 	0.3879	0.2976	0.1027	0.039
Mof_C 	C 	0.4543	0.3596	0.0292	0.384
Mof_C 	C 	0.4326	0.2791	0.04899	-0.132
Mof_Cl	Cl	0.441	0.154	0.19104	-0.291
Mof_O 	O 	0.14917	0.70643	0.32642	-0.4
Mof_O 	O 	0.11187	0.74303	0.38605	-0.385
Mof_C 	C 	0.06537	0.59403	0.42213	0.132
Mof_H 	H 	0.05457	0.63093	0.43603	0.038
Mof_C 	C 	0.12097	0.69293	0.36253	0.384
Mof_C 	C 	0.09927	0.61243	0.38232	-0.132
Mof_Cl	Cl	0.10767	0.48733	0.52437	-0.292
Mof_O 	O 	0.81583	0.03977	0.65976	-0.398
Mof_O 	O 	0.77853	0.07637	0.71939	-0.384
Mof_C 	C 	0.73203	0.92737	0.75547	0.126
Mof_H 	H 	0.72123	0.96427	0.76937	0.046
Mof_C 	C 	0.78763	0.02627	0.69587	0.369
Mof_C 	C 	0.76593	0.94577	0.71566	-0.111
Mof_Cl	Cl	0.77433	0.82067	0.85771	-0.283
Mof_O 	O 	0.6269	0.1094	0.99309	-0.402
Mof_O 	O 	0.5903	0.0355	0.05272	-0.39
Mof_C 	C 	0.7393	0.138	0.0888	0.134
Mof_H 	H 	0.7024	0.0903	0.1027	0.038
Mof_C 	C 	0.6404	0.0947	0.0292	0.385
Mof_C 	C 	0.7209	0.1535	0.04899	-0.132
Mof_Cl	Cl	0.846	0.287	0.19104	-0.286
Mof_O 	O 	0.29357	0.44273	0.32642	-0.399
Mof_O 	O 	0.25697	0.36883	0.38605	-0.385
Mof_C 	C 	0.40597	0.47133	0.42213	0.133
Mof_H 	H 	0.36907	0.42363	0.43603	0.039
Mof_C 	C 	0.30707	0.42803	0.36253	0.384
Mof_C 	C 	0.38757	0.48683	0.38232	-0.131
Mof_Cl	Cl	0.51267	0.62033	0.52437	-0.287
Mof_O 	O 	0.96023	0.77607	0.65976	-0.397
Mof_O 	O 	0.92363	0.70217	0.71939	-0.383
Mof_C 	C 	0.07263	0.80467	0.75547	0.138
Mof_H 	H 	0.03573	0.75697	0.76937	0.035
Mof_C 	C 	0.97373	0.76137	0.69587	0.397
Mof_C 	C 	0.05423	0.82017	0.71566	-0.143
Mof_Cl	Cl	0.17933	0.95367	0.85771	-0.284
Mof_O 	O 	0.8906	0.5175	0.99309	-0.396
Mof_O 	O 	0.9645	0.5548	0.05272	-0.378
Mof_C 	C 	0.862	0.6013	0.0888	0.133
Mof_H 	H 	0.9097	0.6121	0.1027	0.041
Mof_C 	C 	0.9053	0.5457	0.0292	0.384
Mof_C 	C 	0.8465	0.5674	0.04899	-0.129
Mof_Cl	Cl	0.713	0.559	0.19104	-0.288
Mof_O 	O 	0.55727	0.85083	0.32642	-0.398
Mof_O 	O 	0.63117	0.88813	0.38605	-0.382
Mof_C 	C 	0.52867	0.93463	0.42213	0.133
Mof_H 	H 	0.57637	0.94543	0.43603	0.043
Mof_C 	C 	0.57197	0.87903	0.36253	0.384
Mof_C 	C 	0.51317	0.90073	0.38232	-0.128
Mof_Cl	Cl	0.37967	0.89233	0.52437	-0.28
Mof_O 	O 	0.22393	0.18417	0.65976	-0.402
Mof_O 	O 	0.29783	0.22147	0.71939	-0.386
Mof_C 	C 	0.19533	0.26797	0.75547	0.135
Mof_H 	H 	0.24303	0.27877	0.76937	0.038
Mof_C 	C 	0.23863	0.21237	0.69587	0.386
Mof_C 	C 	0.17983	0.23407	0.71566	-0.137
Mof_Cl	Cl	0.04633	0.22567	0.85771	-0.297
Mof_O 	O 	0.3731	0.4825	0.00691	-0.4
Mof_O 	O 	0.4097	0.4452	0.94728	-0.385
Mof_C 	C 	0.2607	0.3987	0.9112	0.133
Mof_H 	H 	0.2976	0.3879	0.8973	0.039
Mof_C 	C 	0.3596	0.4543	0.9708	0.384
Mof_C 	C 	0.2791	0.4326	0.95101	-0.132
Mof_Cl	Cl	0.154	0.441	0.80896	-0.291
Mof_O 	O 	0.03977	0.81583	0.34024	-0.398
Mof_O 	O 	0.07637	0.77853	0.28061	-0.384
Mof_C 	C 	0.92737	0.73203	0.24453	0.126
Mof_H 	H 	0.96427	0.72123	0.23063	0.046
Mof_C 	C 	0.02627	0.78763	0.30413	0.369
Mof_C 	C 	0.94577	0.76593	0.28434	-0.111
Mof_Cl	Cl	0.82067	0.77433	0.14229	-0.283
Mof_O 	O 	0.70643	0.14917	0.67358	-0.4
Mof_O 	O 	0.74303	0.11187	0.61395	-0.385
Mof_C 	C 	0.59403	0.06537	0.57787	0.132
Mof_H 	H 	0.63093	0.05457	0.56397	0.038
Mof_C 	C 	0.69293	0.12097	0.63747	0.384
Mof_C 	C 	0.61243	0.09927	0.61768	-0.132
Mof_Cl	Cl	0.48733	0.10767	0.47563	-0.292
Mof_O 	O 	0.1094	0.6269	0.00691	-0.402
Mof_O 	O 	0.0355	0.5903	0.94728	-0.39
Mof_C 	C 	0.138	0.7393	0.9112	0.134
Mof_H 	H 	0.0903	0.7024	0.8973	0.038
Mof_C 	C 	0.0947	0.6404	0.9708	0.385
Mof_C 	C 	0.1535	0.7209	0.95101	-0.132
Mof_Cl	Cl	0.287	0.846	0.80896	-0.286
Mof_O 	O 	0.77607	0.96023	0.34024	-0.397
Mof_O 	O 	0.70217	0.92363	0.28061	-0.383
Mof_C 	C 	0.80467	0.07263	0.24453	0.138
Mof_H 	H 	0.75697	0.03573	0.23063	0.035
Mof_C 	C 	0.76137	0.97373	0.30413	0.397
Mof_C 	C 	0.82017	0.05423	0.28434	-0.143
Mof_Cl	Cl	0.95367	0.17933	0.14229	-0.284
Mof_O 	O 	0.44273	0.29357	0.67358	-0.399
Mof_O 	O 	0.36883	0.25697	0.61395	-0.385
Mof_C 	C 	0.47133	0.40597	0.57787	0.133
Mof_H 	H 	0.42363	0.36907	0.56397	0.039
Mof_C 	C 	0.42803	0.30707	0.63747	0.384
Mof_C 	C 	0.48683	0.38757	0.61768	-0.131
Mof_Cl	Cl	0.62033	0.51267	0.47563	-0.287
Mof_O 	O 	0.5175	0.8906	0.00691	-0.396
Mof_O 	O 	0.5548	0.9645	0.94728	-0.378
Mof_C 	C 	0.6013	0.862	0.9112	0.133
Mof_H 	H 	0.6121	0.9097	0.8973	0.041
Mof_C 	C 	0.5457	0.9053	0.9708	0.384
Mof_C 	C 	0.5674	0.8465	0.95101	-0.129
Mof_Cl	Cl	0.559	0.713	0.80896	-0.288
Mof_O 	O 	0.18417	0.22393	0.34024	-0.402
Mof_O 	O 	0.22147	0.29783	0.28061	-0.386
Mof_C 	C 	0.26797	0.19533	0.24453	0.135
Mof_H 	H 	0.27877	0.24303	0.23063	0.038
Mof_C 	C 	0.21237	0.23863	0.30413	0.386
Mof_C 	C 	0.23407	0.17983	0.28434	-0.137
Mof_Cl	Cl	0.22567	0.04633	0.14229	-0.297
Mof_O 	O 	0.85083	0.55727	0.67358	-0.398
Mof_O 	O 	0.88813	0.63117	0.61395	-0.382
Mof_C 	C 	0.93463	0.52867	0.57787	0.133
Mof_H 	H 	0.94543	0.57637	0.56397	0.043
Mof_C 	C 	0.87903	0.57197	0.63747	0.384
Mof_C 	C 	0.90073	0.51317	0.61768	-0.128
Mof_Cl	Cl	0.89233	0.37967	0.47563	-0.28
Mof_Cu	Cu	0.47815	0.52185	0.03591	0.913
Mof_Cu	Cu	0.14482	0.85518	0.36924	0.913
Mof_Cu	Cu	0.81148	0.18852	0.70258	0.913
Mof_Cu	Cu	0.47815	0.9563	0.03591	0.918
Mof_Cu	Cu	0.14482	0.28963	0.36924	0.912
Mof_Cu	Cu	0.81148	0.62297	0.70258	0.914
Mof_Cu	Cu	0.0437	0.52185	0.03591	0.908
Mof_Cu	Cu	0.71037	0.85518	0.36924	0.914
Mof_Cu	Cu	0.37703	0.18852	0.70258	0.913
Mof_Cu	Cu	0.52185	0.47815	0.96409	0.913
Mof_Cu	Cu	0.18852	0.81148	0.29742	0.913
Mof_Cu	Cu	0.85518	0.14482	0.63076	0.913
Mof_Cu	Cu	0.9563	0.47815	0.96409	0.918
Mof_Cu	Cu	0.62297	0.81148	0.29742	0.914
Mof_Cu	Cu	0.28963	0.14482	0.63076	0.912
Mof_Cu	Cu	0.52185	0.0437	0.96409	0.908
Mof_Cu	Cu	0.18852	0.37703	0.29742	0.913
Mof_Cu	Cu	0.85518	0.71037	0.63076	0.914
Mof_Pd	Pd	0.66667	0.83333	0.83333	0.818
Mof_Pd	Pd	0.16667	0.83333	0.83333	0.819
Mof_Pd	Pd	0.16667	0.33333	0.83333	0.819
Mof_Pd	Pd	0.83333	0.66667	0.16667	0.818
Mof_Pd	Pd	0.5	0	0.5	0.801
Mof_Pd	Pd	0.83333	0.16667	0.16667	0.819
Mof_Pd	Pd	0.5	0.5	0.5	0.819
Mof_Pd	Pd	0.33333	0.16667	0.16667	0.819
Mof_Pd	Pd	-5.62833e-17	0.5	0.5	0.801
Mof_N 	N 	0.6189	0.80945	0.8921	-0.173
Mof_C 	C 	0.5507	0.77535	0.9711	0.101
Mof_H 	H 	0.5283	0.76415	0.9981	0.042
Mof_N 	N 	0.28557	0.14278	0.22543	-0.176
Mof_C 	C 	0.21737	0.10868	0.30443	0.111
Mof_H 	H 	0.19497	0.09748	0.33143	0.034
Mof_N 	N 	0.95223	0.47612	0.55877	-0.169
Mof_C 	C 	0.88403	0.44202	0.63777	0.101
Mof_H 	H 	0.86163	0.43082	0.66477	0.042
Mof_N 	N 	0.19055	0.80945	0.8921	-0.174
Mof_C 	C 	0.22465	0.77535	0.9711	0.102
Mof_H 	H 	0.23585	0.76415	0.9981	0.041
Mof_N 	N 	0.85722	0.14278	0.22543	-0.173
Mof_C 	C 	0.89132	0.10868	0.30443	0.101
Mof_H 	H 	0.90252	0.09748	0.33143	0.041
Mof_N 	N 	0.52388	0.47612	0.55877	-0.174
Mof_C 	C 	0.55798	0.44202	0.63777	0.102
Mof_H 	H 	0.56918	0.43082	0.66477	0.041
Mof_N 	N 	0.19055	0.3811	0.8921	-0.174
Mof_C 	C 	0.22465	0.4493	0.9711	0.102
Mof_H 	H 	0.23585	0.4717	0.9981	0.04
Mof_N 	N 	0.85722	0.71443	0.22543	-0.171
Mof_C 	C 	0.89132	0.78263	0.30443	0.092
Mof_H 	H 	0.90252	0.80503	0.33143	0.049
Mof_N 	N 	0.52388	0.04777	0.55877	-0.174
Mof_C 	C 	0.55798	0.11597	0.63777	0.102
Mof_H 	H 	0.56918	0.13837	0.66477	0.04
Mof_N 	N 	0.80945	0.6189	0.1079	-0.173
Mof_C 	C 	0.77535	0.5507	0.0289	0.101
Mof_H 	H 	0.76415	0.5283	0.0019	0.042
Mof_N 	N 	0.47612	0.95223	0.44123	-0.169
Mof_C 	C 	0.44202	0.88403	0.36223	0.101
Mof_H 	H 	0.43082	0.86163	0.33523	0.042
Mof_N 	N 	0.14278	0.28557	0.77457	-0.176
Mof_C 	C 	0.10868	0.21737	0.69557	0.111
Mof_H 	H 	0.09748	0.19497	0.66857	0.034
Mof_N 	N 	0.80945	0.19055	0.1079	-0.174
Mof_C 	C 	0.77535	0.22465	0.0289	0.102
Mof_H 	H 	0.76415	0.23585	0.0019	0.041
Mof_N 	N 	0.47612	0.52388	0.44123	-0.174
Mof_C 	C 	0.44202	0.55798	0.36223	0.102
Mof_H 	H 	0.43082	0.56918	0.33523	0.041
Mof_N 	N 	0.14278	0.85722	0.77457	-0.173
Mof_C 	C 	0.10868	0.89132	0.69557	0.101
Mof_H 	H 	0.09748	0.90252	0.66857	0.041
Mof_N 	N 	0.3811	0.19055	0.1079	-0.174
Mof_C 	C 	0.4493	0.22465	0.0289	0.102
Mof_H 	H 	0.4717	0.23585	0.0019	0.04
Mof_N 	N 	0.04777	0.52388	0.44123	-0.174
Mof_C 	C 	0.11597	0.55798	0.36223	0.102
Mof_H 	H 	0.13837	0.56918	0.33523	0.04
Mof_N 	N 	0.71443	0.85722	0.77457	-0.171
Mof_C 	C 	0.78263	0.89132	0.69557	0.092
Mof_H 	H 	0.80503	0.90252	0.66857	0.049
_end
