data_functionalizedCrystal
_audit_creation_method	'EQeq! by Chris Wilmer'
_symmetry_space_group_name_H-M	'P1'
_symmetry_Int_Tables_number	1
_symmetry_cell_setting	triclinic
loop_
_symmetry_equiv_pos_as_xyz
  x,y,z
_cell_length_a	11.365
_cell_length_b	24.003
_cell_length_c	32.883
_cell_angle_alpha	97.17
_cell_angle_beta	90
_cell_angle_gamma	90
loop_
_atom_site_label
_atom_site_type_symbol
_atom_site_fract_x
_atom_site_fract_y
_atom_site_fract_z
_atom_site_charge
Mof_Sm	Sm	0.24009	0.4121	0.62728	2.512
Mof_Sm	Sm	0.73127	0.12845	0.39846	2.538
Mof_Sm	Sm	0.74009	0.08791	0.87272	2.512
Mof_Sm	Sm	0.23127	0.37155	0.10154	2.538
Mof_Sm	Sm	0.75991	0.58791	0.37272	2.512
Mof_Sm	Sm	0.26873	0.87155	0.60154	2.538
Mof_Sm	Sm	0.25991	0.91209	0.12728	2.512
Mof_Sm	Sm	0.76873	0.62845	0.89846	2.538
Mof_H 	H 	0.3552	0.5799	0.7313	0.063
Mof_H 	H 	0.5631	0.4438	0.7294	0.066
Mof_H 	H 	0.3464	0.4374	0.4829	0.053
Mof_H 	H 	0.5668	0.5179	0.5668	0.059
Mof_H 	H 	0.1527	0.4492	0.5253	0.038
Mof_H 	H 	0.8739	0.553	0.5446	0.053
Mof_H 	H 	0.1154	0.3403	0.5274	0.03
Mof_H 	H 	0.0673	0.3184	0.4601	0.049
Mof_H 	H 	0.7995	0.2236	0.4909	0.028
Mof_H 	H 	0.8505	0.2432	0.5594	0.054
Mof_H 	H 	0.553	0.2096	0.5893	0.042
Mof_H 	H 	0.6066	0.1817	0.5217	0.052
Mof_H 	H 	0.3218	0.2617	0.4839	0.06
Mof_H 	H 	0.2744	0.292	0.5516	0.014
Mof_H 	H 	0.467	0.6258	0.7839	0.057
Mof_H 	H 	0.6785	0.491	0.781	0.059
Mof_H 	H 	0.0433	0.9879	0.4305	0.059
Mof_H 	H 	0.8638	0.067	0.5259	0.054
Mof_H 	H 	0.6503	0.0588	0.4828	0.03
Mof_H 	H 	0.3751	0.9571	0.4497	0.052
Mof_H 	H 	0.8552	0.9201	0.7687	0.062
Mof_H 	H 	0.0631	0.0562	0.7706	0.065
Mof_H 	H 	0.8464	0.0626	0.0171	0.051
Mof_H 	H 	0.0668	0.9821	0.9332	0.058
Mof_H 	H 	0.6527	0.0508	0.9747	0.037
Mof_H 	H 	0.3739	0.947	0.9554	0.052
Mof_H 	H 	0.6154	0.1597	0.9726	0.029
Mof_H 	H 	0.5673	0.1816	0.0399	0.048
Mof_H 	H 	0.2995	0.2764	0.0091	0.027
Mof_H 	H 	0.3505	0.2568	0.9406	0.053
Mof_H 	H 	0.053	0.2904	0.9107	0.041
Mof_H 	H 	0.1066	0.3183	0.9783	0.051
Mof_H 	H 	0.8218	0.2383	0.0161	0.06
Mof_H 	H 	0.7744	0.208	0.9484	0.012
Mof_H 	H 	0.967	0.8742	0.7161	0.057
Mof_H 	H 	0.1785	0.009	0.719	0.059
Mof_H 	H 	0.5433	0.5121	0.0695	0.059
Mof_H 	H 	0.3638	0.433	0.9741	0.054
Mof_H 	H 	0.1503	0.4412	0.0172	0.03
Mof_H 	H 	0.8751	0.5429	0.0503	0.052
Mof_H 	H 	0.6448	0.4201	0.2687	0.062
Mof_H 	H 	0.4369	0.5562	0.2706	0.065
Mof_H 	H 	0.6536	0.5626	0.5171	0.052
Mof_H 	H 	0.4332	0.4821	0.4332	0.058
Mof_H 	H 	0.8473	0.5508	0.4747	0.037
Mof_H 	H 	0.1261	0.447	0.4554	0.052
Mof_H 	H 	0.8846	0.6597	0.4726	0.029
Mof_H 	H 	0.9327	0.6816	0.5399	0.048
Mof_H 	H 	0.2005	0.7764	0.5091	0.027
Mof_H 	H 	0.1495	0.7568	0.4406	0.053
Mof_H 	H 	0.447	0.7904	0.4107	0.041
Mof_H 	H 	0.3934	0.8183	0.4783	0.051
Mof_H 	H 	0.6782	0.7383	0.5161	0.059
Mof_H 	H 	0.7256	0.708	0.4484	0.013
Mof_H 	H 	0.533	0.3742	0.2161	0.057
Mof_H 	H 	0.3215	0.509	0.219	0.059
Mof_H 	H 	0.9567	0.0121	0.5695	0.059
Mof_H 	H 	0.1362	0.933	0.4741	0.054
Mof_H 	H 	0.3497	0.9412	0.5172	0.03
Mof_H 	H 	0.6249	0.0429	0.5503	0.052
Mof_H 	H 	0.1448	0.0799	0.2313	0.062
Mof_H 	H 	0.9369	0.9438	0.2294	0.065
Mof_H 	H 	0.1536	0.9374	0.9829	0.051
Mof_H 	H 	0.9332	0.0179	0.0668	0.058
Mof_H 	H 	0.3473	0.9492	0.0253	0.037
Mof_H 	H 	0.6261	0.053	0.0446	0.052
Mof_H 	H 	0.3846	0.8403	0.0274	0.029
Mof_H 	H 	0.4327	0.8184	0.9601	0.048
Mof_H 	H 	0.7005	0.7236	0.9909	0.027
Mof_H 	H 	0.6495	0.7432	0.0594	0.053
Mof_H 	H 	0.947	0.7096	0.0893	0.041
Mof_H 	H 	0.8934	0.6817	0.0217	0.051
Mof_H 	H 	0.1782	0.7617	0.9839	0.06
Mof_H 	H 	0.2256	0.792	0.0516	0.012
Mof_H 	H 	0.033	0.1258	0.2839	0.057
Mof_H 	H 	0.8215	0.991	0.281	0.059
Mof_H 	H 	0.4567	0.4879	0.9305	0.059
Mof_H 	H 	0.6362	0.567	0.0259	0.054
Mof_H 	H 	0.8497	0.5588	0.9828	0.03
Mof_H 	H 	0.1249	0.4571	0.9497	0.052
Mof_C 	C 	0.3725	0.4762	0.6926	0.292
Mof_C 	C 	0.4463	0.5068	0.7256	-0.037
Mof_C 	C 	0.4189	0.5617	0.7417	-0.032
Mof_C 	C 	0.544	0.4803	0.7404	-0.03
Mof_C 	C 	0.3851	0.4459	0.5629	0.293
Mof_C 	C 	0.4449	0.4738	0.5306	-0.052
Mof_C 	C 	0.4074	0.4627	0.4898	-0.026
Mof_C 	C 	0.5397	0.5111	0.5399	-0.026
Mof_C 	C 	0.0334	0.5049	0.5884	0.404
Mof_C 	C 	0.0145	0.5011	0.5427	-0.102
Mof_C 	C 	0.0916	0.4694	0.5153	-0.012
Mof_C 	C 	0.9244	0.5316	0.5267	-0.025
Mof_C 	C 	0.0179	0.3089	0.5958	0.42
Mof_C 	C 	0.9894	0.2947	0.5509	-0.099
Mof_C 	C 	0.0521	0.3165	0.5203	-0.005
Mof_C 	C 	0.0227	0.3038	0.48	-0.016
Mof_C 	C 	0.9263	0.2691	0.4681	-0.123
Mof_C 	C 	0.8633	0.2469	0.4983	0.015
Mof_C 	C 	0.8933	0.2588	0.5395	-0.033
Mof_C 	C 	0.892	0.2566	0.4245	0.424
Mof_C 	C 	0.3853	0.2802	0.6207	0.451
Mof_C 	C 	0.4112	0.2564	0.5775	-0.141
Mof_C 	C 	0.5087	0.2214	0.5682	0.004
Mof_C 	C 	0.5401	0.2039	0.5275	-0.03
Mof_C 	C 	0.4717	0.2197	0.4956	-0.078
Mof_C 	C 	0.3699	0.2523	0.5049	-0.049
Mof_C 	C 	0.3414	0.2703	0.5456	0.034
Mof_C 	C 	0.5079	0.2029	0.4521	0.398
Mof_C 	C 	0.6565	0.5904	0.822	0.308
Mof_C 	C 	0.5825	0.5625	0.7879	-0.051
Mof_C 	C 	0.4861	0.5893	0.7729	-0.019
Mof_C 	C 	0.6128	0.5084	0.7714	-0.019
Mof_C 	C 	0.8799	0.068	0.4464	0.306
Mof_C 	C 	0.943	0.0327	0.4738	-0.052
Mof_C 	C 	0.0257	0.9927	0.4583	-0.028
Mof_C 	C 	0.9182	0.0401	0.5155	-0.024
Mof_C 	C 	0.5303	0.0202	0.4155	0.429
Mof_C 	C 	0.5147	0.0104	0.4588	-0.12
Mof_C 	C 	0.5899	0.0354	0.4895	0.002
Mof_C 	C 	0.425	0.9745	0.4698	-0.024
Mof_C 	C 	0.8725	0.0238	0.8074	0.292
Mof_C 	C 	0.9463	0.9932	0.7744	-0.037
Mof_C 	C 	0.9189	0.9383	0.7583	-0.032
Mof_C 	C 	0.044	0.0197	0.7596	-0.031
Mof_C 	C 	0.8851	0.0541	0.9371	0.293
Mof_C 	C 	0.9449	0.0262	0.9694	-0.052
Mof_C 	C 	0.9074	0.0373	0.0102	-0.025
Mof_C 	C 	0.0397	0.9889	0.9601	-0.026
Mof_C 	C 	0.5334	0.9951	0.9116	0.404
Mof_C 	C 	0.5145	0.9989	0.9573	-0.102
Mof_C 	C 	0.5916	0.0306	0.9847	-0.012
Mof_C 	C 	0.4244	0.9684	0.9733	-0.025
Mof_C 	C 	0.5179	0.1911	0.9042	0.422
Mof_C 	C 	0.4894	0.2053	0.9491	-0.1
Mof_C 	C 	0.5521	0.1835	0.9797	-0.004
Mof_C 	C 	0.5227	0.1962	0.02	-0.016
Mof_C 	C 	0.4263	0.2309	0.0319	-0.123
Mof_C 	C 	0.3633	0.2531	0.0017	0.014
Mof_C 	C 	0.3933	0.2412	0.9605	-0.032
Mof_C 	C 	0.392	0.2434	0.0755	0.424
Mof_C 	C 	0.8853	0.2198	0.8793	0.451
Mof_C 	C 	0.9112	0.2436	0.9225	-0.141
Mof_C 	C 	0.0087	0.2786	0.9318	0.004
Mof_C 	C 	0.0401	0.2961	0.9725	-0.031
Mof_C 	C 	0.9717	0.2803	0.0044	-0.076
Mof_C 	C 	0.8699	0.2477	0.9951	-0.05
Mof_C 	C 	0.8414	0.2297	0.9544	0.035
Mof_C 	C 	0.0079	0.2971	0.0479	0.396
Mof_C 	C 	0.1565	0.9096	0.678	0.308
Mof_C 	C 	0.0825	0.9375	0.7121	-0.051
Mof_C 	C 	0.9861	0.9107	0.7271	-0.018
Mof_C 	C 	0.1128	0.9916	0.7286	-0.019
Mof_C 	C 	0.3799	0.432	0.0536	0.306
Mof_C 	C 	0.443	0.4673	0.0262	-0.052
Mof_C 	C 	0.5257	0.5073	0.0417	-0.027
Mof_C 	C 	0.4182	0.4599	0.9845	-0.024
Mof_C 	C 	0.0303	0.4798	0.0845	0.429
Mof_C 	C 	0.0147	0.4896	0.0412	-0.12
Mof_C 	C 	0.0899	0.4646	0.0105	0.001
Mof_C 	C 	0.925	0.5255	0.0302	-0.024
Mof_C 	C 	0.6275	0.5238	0.3074	0.292
Mof_C 	C 	0.5537	0.4932	0.2744	-0.037
Mof_C 	C 	0.5811	0.4383	0.2583	-0.032
Mof_C 	C 	0.456	0.5197	0.2596	-0.03
Mof_C 	C 	0.6149	0.5541	0.4371	0.293
Mof_C 	C 	0.5551	0.5262	0.4694	-0.052
Mof_C 	C 	0.5926	0.5373	0.5102	-0.026
Mof_C 	C 	0.4603	0.4889	0.4601	-0.026
Mof_C 	C 	0.9666	0.4951	0.4116	0.404
Mof_C 	C 	0.9855	0.4989	0.4573	-0.102
Mof_C 	C 	0.9084	0.5306	0.4847	-0.012
Mof_C 	C 	0.0756	0.4684	0.4733	-0.025
Mof_C 	C 	0.9821	0.6911	0.4042	0.42
Mof_C 	C 	0.0106	0.7053	0.4491	-0.099
Mof_C 	C 	0.9479	0.6835	0.4797	-0.005
Mof_C 	C 	0.9773	0.6962	0.52	-0.016
Mof_C 	C 	0.0737	0.7309	0.5319	-0.123
Mof_C 	C 	0.1367	0.7531	0.5017	0.015
Mof_C 	C 	0.1067	0.7412	0.4605	-0.033
Mof_C 	C 	0.108	0.7434	0.5755	0.424
Mof_C 	C 	0.6147	0.7198	0.3793	0.451
Mof_C 	C 	0.5888	0.7436	0.4225	-0.141
Mof_C 	C 	0.4913	0.7786	0.4318	0.004
Mof_C 	C 	0.4599	0.7961	0.4725	-0.03
Mof_C 	C 	0.5283	0.7803	0.5044	-0.078
Mof_C 	C 	0.6301	0.7477	0.4951	-0.049
Mof_C 	C 	0.6586	0.7297	0.4544	0.034
Mof_C 	C 	0.4921	0.7971	0.5479	0.398
Mof_C 	C 	0.3435	0.4096	0.178	0.308
Mof_C 	C 	0.4175	0.4375	0.2121	-0.051
Mof_C 	C 	0.5139	0.4107	0.2271	-0.019
Mof_C 	C 	0.3872	0.4916	0.2286	-0.019
Mof_C 	C 	0.1201	0.932	0.5536	0.306
Mof_C 	C 	0.057	0.9673	0.5262	-0.052
Mof_C 	C 	0.9743	0.0073	0.5417	-0.028
Mof_C 	C 	0.0818	0.9599	0.4845	-0.024
Mof_C 	C 	0.4697	0.9798	0.5845	0.429
Mof_C 	C 	0.4853	0.9896	0.5412	-0.12
Mof_C 	C 	0.4101	0.9646	0.5105	0.002
Mof_C 	C 	0.575	0.0255	0.5302	-0.024
Mof_C 	C 	0.1275	0.9762	0.1926	0.292
Mof_C 	C 	0.0537	0.0068	0.2256	-0.037
Mof_C 	C 	0.0811	0.0617	0.2417	-0.032
Mof_C 	C 	0.956	0.9803	0.2404	-0.031
Mof_C 	C 	0.1149	0.9459	0.0629	0.293
Mof_C 	C 	0.0551	0.9738	0.0306	-0.052
Mof_C 	C 	0.0926	0.9627	0.9898	-0.025
Mof_C 	C 	0.9603	0.0111	0.0399	-0.026
Mof_C 	C 	0.4666	0.0049	0.0884	0.404
Mof_C 	C 	0.4855	0.0011	0.0427	-0.102
Mof_C 	C 	0.4084	0.9694	0.0153	-0.012
Mof_C 	C 	0.5756	0.0316	0.0267	-0.025
Mof_C 	C 	0.4821	0.8089	0.0958	0.422
Mof_C 	C 	0.5106	0.7947	0.0509	-0.1
Mof_C 	C 	0.4479	0.8165	0.0203	-0.004
Mof_C 	C 	0.4773	0.8038	0.98	-0.016
Mof_C 	C 	0.5737	0.7691	0.9681	-0.123
Mof_C 	C 	0.6367	0.7469	0.9983	0.014
Mof_C 	C 	0.6067	0.7588	0.0395	-0.032
Mof_C 	C 	0.608	0.7566	0.9245	0.424
Mof_C 	C 	0.1147	0.7802	0.1207	0.451
Mof_C 	C 	0.0888	0.7564	0.0775	-0.141
Mof_C 	C 	0.9913	0.7214	0.0682	0.004
Mof_C 	C 	0.9599	0.7039	0.0275	-0.031
Mof_C 	C 	0.0283	0.7197	0.9956	-0.076
Mof_C 	C 	0.1301	0.7523	0.0049	-0.05
Mof_C 	C 	0.1586	0.7703	0.0456	0.035
Mof_C 	C 	0.9921	0.7029	0.9521	0.396
Mof_C 	C 	0.8435	0.0904	0.322	0.308
Mof_C 	C 	0.9175	0.0625	0.2879	-0.051
Mof_C 	C 	0.0139	0.0893	0.2729	-0.018
Mof_C 	C 	0.8872	0.0084	0.2714	-0.019
Mof_C 	C 	0.6201	0.568	0.9464	0.306
Mof_C 	C 	0.557	0.5327	0.9738	-0.052
Mof_C 	C 	0.4743	0.4927	0.9583	-0.027
Mof_C 	C 	0.5818	0.5401	0.0155	-0.024
Mof_C 	C 	0.9697	0.5202	0.9155	0.429
Mof_C 	C 	0.9853	0.5104	0.9588	-0.12
Mof_C 	C 	0.9101	0.5354	0.9895	0.001
Mof_C 	C 	0.075	0.4745	0.9698	-0.024
Mof_O 	O 	0.1206	0.4109	0.68843	-0.37
Mof_O 	O 	0.2873	0.5005	0.67675	-0.404
Mof_O 	O 	0.3967	0.4246	0.68042	-0.428
Mof_O 	O 	0.5857	0.1734	0.36055	-0.375
Mof_O 	O 	0.4073	0.465	0.60052	-0.436
Mof_O 	O 	0.3134	0.4069	0.55397	-0.445
Mof_O 	O 	0.1173	0.476	0.60095	-0.553
Mof_O 	O 	0.9686	0.5371	0.61206	-0.268
Mof_O 	O 	0.0938	0.3484	0.60392	-0.55
Mof_O 	O 	0.9649	0.2854	0.62129	-0.291
Mof_O 	O 	0.8255	0.2159	0.41343	-0.549
Mof_O 	O 	0.933	0.2878	0.39955	-0.272
Mof_O 	O 	0.3351	0.3263	0.62653	-0.567
Mof_O 	O 	0.4134	0.2525	0.64924	-0.278
Mof_O 	O 	0.5987	0.1724	0.44678	-0.532
Mof_O 	O 	0.4494	0.219	0.42345	-0.278
Mof_O 	O 	0.7536	0.5704	0.83103	-0.446
Mof_O 	O 	0.6194	0.6354	0.84314	-0.432
Mof_O 	O 	0.887	0.0551	0.40803	-0.434
Mof_O 	O 	0.8214	0.1095	0.46198	-0.482
Mof_O 	O 	0.61	0.0528	0.40697	-0.557
Mof_O 	O 	0.4615	0.9961	0.38859	-0.274
Mof_O 	O 	0.6206	0.0891	0.81157	-0.37
Mof_O 	O 	0.7873	0.9995	0.82325	-0.404
Mof_O 	O 	0.8967	0.0754	0.81958	-0.428
Mof_O 	O 	0.0857	0.3266	0.13945	-0.375
Mof_O 	O 	0.9073	0.035	0.89948	-0.436
Mof_O 	O 	0.8134	0.0931	0.94603	-0.445
Mof_O 	O 	0.6173	0.024	0.89905	-0.553
Mof_O 	O 	0.4686	0.9629	0.88794	-0.268
Mof_O 	O 	0.5938	0.1516	0.89608	-0.55
Mof_O 	O 	0.4649	0.2146	0.87871	-0.292
Mof_O 	O 	0.3255	0.2841	0.08657	-0.549
Mof_O 	O 	0.433	0.2122	0.10045	-0.272
Mof_O 	O 	0.8351	0.1737	0.87347	-0.567
Mof_O 	O 	0.9134	0.2475	0.85076	-0.278
Mof_O 	O 	0.0987	0.3276	0.05322	-0.532
Mof_O 	O 	0.9494	0.281	0.07655	-0.277
Mof_O 	O 	0.2536	0.9296	0.66897	-0.446
Mof_O 	O 	0.1194	0.8646	0.65686	-0.432
Mof_O 	O 	0.387	0.4449	0.09197	-0.434
Mof_O 	O 	0.3214	0.3905	0.03802	-0.482
Mof_O 	O 	0.11	0.4472	0.09303	-0.557
Mof_O 	O 	0.9615	0.5039	0.11141	-0.274
Mof_O 	O 	0.8794	0.5891	0.31157	-0.37
Mof_O 	O 	0.7127	0.4995	0.32325	-0.404
Mof_O 	O 	0.6033	0.5754	0.31958	-0.428
Mof_O 	O 	0.4143	0.8266	0.63945	-0.375
Mof_O 	O 	0.5927	0.535	0.39948	-0.436
Mof_O 	O 	0.6866	0.5931	0.44603	-0.445
Mof_O 	O 	0.8827	0.524	0.39905	-0.553
Mof_O 	O 	0.0314	0.4629	0.38794	-0.268
Mof_O 	O 	0.9062	0.6516	0.39608	-0.55
Mof_O 	O 	0.0351	0.7146	0.37871	-0.291
Mof_O 	O 	0.1745	0.7841	0.58657	-0.549
Mof_O 	O 	0.067	0.7122	0.60045	-0.272
Mof_O 	O 	0.6649	0.6737	0.37347	-0.567
Mof_O 	O 	0.5866	0.7475	0.35076	-0.278
Mof_O 	O 	0.4013	0.8276	0.55322	-0.532
Mof_O 	O 	0.5506	0.781	0.57655	-0.278
Mof_O 	O 	0.2464	0.4296	0.16897	-0.446
Mof_O 	O 	0.3806	0.3646	0.15686	-0.432
Mof_O 	O 	0.113	0.9449	0.59197	-0.434
Mof_O 	O 	0.1786	0.8905	0.53802	-0.482
Mof_O 	O 	0.39	0.9472	0.59303	-0.557
Mof_O 	O 	0.5385	0.0039	0.61141	-0.274
Mof_O 	O 	0.3794	0.9109	0.18843	-0.37
Mof_O 	O 	0.2127	0.0005	0.17675	-0.404
Mof_O 	O 	0.1033	0.9246	0.18042	-0.428
Mof_O 	O 	0.9143	0.6734	0.86055	-0.375
Mof_O 	O 	0.0927	0.965	0.10052	-0.436
Mof_O 	O 	0.1866	0.9069	0.05397	-0.445
Mof_O 	O 	0.3827	0.976	0.10095	-0.553
Mof_O 	O 	0.5314	0.0371	0.11206	-0.268
Mof_O 	O 	0.4062	0.8484	0.10392	-0.55
Mof_O 	O 	0.5351	0.7854	0.12129	-0.292
Mof_O 	O 	0.6745	0.7159	0.91343	-0.549
Mof_O 	O 	0.567	0.7878	0.89955	-0.272
Mof_O 	O 	0.1649	0.8263	0.12653	-0.567
Mof_O 	O 	0.0866	0.7525	0.14924	-0.278
Mof_O 	O 	0.9013	0.6724	0.94678	-0.532
Mof_O 	O 	0.0506	0.719	0.92345	-0.277
Mof_O 	O 	0.7464	0.0704	0.33103	-0.446
Mof_O 	O 	0.8806	0.1354	0.34314	-0.432
Mof_O 	O 	0.613	0.5551	0.90803	-0.434
Mof_O 	O 	0.6786	0.6095	0.96198	-0.482
Mof_O 	O 	0.89	0.5528	0.90697	-0.557
Mof_O 	O 	0.0385	0.4961	0.88859	-0.274
Mof_H 	H 	0.1725	0.6219	0.5799	0.097
Mof_H 	H 	0.244	0.5657	0.5728	0.08
Mof_H 	H 	0.4229	0.56	0.6157	0.026
Mof_H 	H 	0.3077	0.7155	0.6119	0.047
Mof_H 	H 	0.4699	0.72	0.6602	0.045
Mof_H 	H 	0.6186	0.6886	0.7025	0.124
Mof_H 	H 	0.7837	0.6538	0.7322	-0.014
Mof_H 	H 	0.8418	0.5605	0.7119	0.127
Mof_H 	H 	0.5868	0.4638	0.6237	0.029
Mof_H 	H 	0.8912	0.4681	0.6845	0.034
Mof_H 	H 	0.8668	0.3733	0.6471	0.06
Mof_H 	H 	0.5761	0.3541	0.6009	0.069
Mof_H 	H 	0.6963	0.322	0.6013	0.08
Mof_H 	H 	0.8424	0.4027	0.5608	0.06
Mof_H 	H 	0.1248	0.5853	0.5061	0.068
Mof_H 	H 	0.5254	0.3373	0.5308	0.059
Mof_H 	H 	0.4395	0.6515	0.537	0.074
Mof_H 	H 	0.8275	0.3781	0.4201	0.097
Mof_H 	H 	0.756	0.4343	0.4272	0.08
Mof_H 	H 	0.5771	0.44	0.3843	0.026
Mof_H 	H 	0.6923	0.2845	0.3881	0.047
Mof_H 	H 	0.5301	0.28	0.3398	0.045
Mof_H 	H 	0.3814	0.3114	0.2975	0.124
Mof_H 	H 	0.2163	0.3462	0.2678	-0.014
Mof_H 	H 	0.1582	0.4395	0.2881	0.127
Mof_H 	H 	0.4132	0.5362	0.3763	0.029
Mof_H 	H 	0.1088	0.5319	0.3155	0.034
Mof_H 	H 	0.1332	0.6267	0.3529	0.06
Mof_H 	H 	0.4239	0.6459	0.3991	0.069
Mof_H 	H 	0.3037	0.678	0.3987	0.08
Mof_H 	H 	0.1576	0.5973	0.4392	0.06
Mof_H 	H 	0.8752	0.4147	0.4939	0.068
Mof_H 	H 	0.4746	0.6627	0.4692	0.059
Mof_H 	H 	0.5605	0.3485	0.463	0.074
Mof_C 	C 	0.2786	0.6174	0.5292	0.078
Mof_C 	C 	0.2491	0.606	0.5724	-0.135
Mof_C 	C 	0.4149	0.5989	0.6203	0.1
Mof_C 	C 	0.3516	0.6852	0.6187	0.009
Mof_C 	C 	0.4403	0.6878	0.6449	0.018
Mof_C 	C 	0.5843	0.6159	0.6664	0.195
Mof_C 	C 	0.6436	0.6518	0.6952	-0.233
Mof_C 	C 	0.7407	0.631	0.7126	0.157
Mof_C 	C 	0.7754	0.5756	0.7008	-0.227
Mof_C 	C 	0.7072	0.5445	0.6723	0.203
Mof_C 	C 	0.6587	0.4531	0.6339	0.098
Mof_C 	C 	0.8285	0.4554	0.6677	0.033
Mof_C 	C 	0.8148	0.4032	0.6472	-0.015
Mof_C 	C 	0.6602	0.3572	0.5967	-0.117
Mof_C 	C 	0.6828	0.3677	0.5529	0.055
Mof_C 	C 	0.7853	0.3914	0.5412	-0.051
Mof_C 	C 	0.1952	0.6013	0.4989	-0.083
Mof_C 	C 	0.5965	0.3523	0.5233	-0.059
Mof_C 	C 	0.3824	0.6405	0.5174	-0.078
Mof_C 	C 	0.7214	0.3826	0.4708	0.078
Mof_C 	C 	0.7509	0.394	0.4276	-0.135
Mof_C 	C 	0.5851	0.4011	0.3797	0.1
Mof_C 	C 	0.6484	0.3148	0.3813	0.009
Mof_C 	C 	0.5597	0.3122	0.3551	0.018
Mof_C 	C 	0.4157	0.3841	0.3336	0.195
Mof_C 	C 	0.3564	0.3482	0.3048	-0.233
Mof_C 	C 	0.2593	0.369	0.2874	0.157
Mof_C 	C 	0.2246	0.4244	0.2992	-0.227
Mof_C 	C 	0.2928	0.4555	0.3277	0.203
Mof_C 	C 	0.3413	0.5469	0.3661	0.098
Mof_C 	C 	0.1715	0.5446	0.3323	0.033
Mof_C 	C 	0.1852	0.5968	0.3528	-0.015
Mof_C 	C 	0.3398	0.6428	0.4033	-0.117
Mof_C 	C 	0.3172	0.6323	0.4471	0.055
Mof_C 	C 	0.2147	0.6086	0.4588	-0.051
Mof_C 	C 	0.8048	0.3987	0.5011	-0.083
Mof_C 	C 	0.4035	0.6477	0.4767	-0.059
Mof_C 	C 	0.6176	0.3595	0.4826	-0.078
Mof_N 	N 	0.3361	0.6293	0.6031	-0.104
Mof_N 	N 	0.4803	0.6339	0.6454	-0.144
Mof_N 	N 	0.6136	0.5632	0.65442	-0.168
Mof_N 	N 	0.7312	0.4859	0.6587	-0.145
Mof_N 	N 	0.708	0.4029	0.6263	-0.103
Mof_N 	N 	0.6639	0.3707	0.3969	-0.104
Mof_N 	N 	0.5197	0.3661	0.3546	-0.144
Mof_N 	N 	0.3864	0.4368	0.34558	-0.168
Mof_N 	N 	0.2688	0.5141	0.3413	-0.145
Mof_N 	N 	0.292	0.5971	0.3737	-0.103
Mof_H 	H 	0.0588	0.1618	0.4165	0.06
Mof_H 	H 	0.1773	0.195	0.4155	0.08
Mof_H 	H 	0.0609	0.0581	0.3818	0.024
Mof_H 	H 	0.3426	0.1498	0.3671	0.062
Mof_H 	H 	0.3589	0.0625	0.3183	0.034
Mof_H 	H 	0.3002	0.9759	0.2814	0.126
Mof_H 	H 	0.242	0.8866	0.2534	-0.007
Mof_H 	H 	0.0759	0.8451	0.2813	0.128
Mof_H 	H 	0.888	0.9571	0.3808	0.024
Mof_H 	H 	0.9465	0.8039	0.323	0.042
Mof_H 	H 	0.7903	0.7979	0.3737	0.05
Mof_H 	H 	0.6519	0.8826	0.4128	0.085
Mof_H 	H 	0.7155	0.9406	0.4231	0.079
Mof_H 	H 	0.6162	0.913	0.4898	0.068
Mof_H 	H 	0.6629	0.8925	0.5553	0.061
Mof_H 	H 	0.027	0.1707	0.4879	0.056
Mof_H 	H 	0.9252	0.8496	0.4475	0.072
Mof_H 	H 	0.9412	0.8382	0.5835	0.06
Mof_H 	H 	0.8227	0.805	0.5845	0.08
Mof_H 	H 	0.9391	0.9419	0.6182	0.024
Mof_H 	H 	0.6574	0.8502	0.6329	0.062
Mof_H 	H 	0.6411	0.9375	0.6817	0.034
Mof_H 	H 	0.6998	0.0241	0.7186	0.126
Mof_H 	H 	0.758	0.1134	0.7466	-0.007
Mof_H 	H 	0.9241	0.1549	0.7187	0.128
Mof_H 	H 	0.112	0.0429	0.6192	0.024
Mof_H 	H 	0.0535	0.1961	0.677	0.042
Mof_H 	H 	0.2097	0.2021	0.6263	0.05
Mof_H 	H 	0.3481	0.1174	0.5872	0.085
Mof_H 	H 	0.2845	0.0594	0.5769	0.079
Mof_H 	H 	0.3838	0.087	0.5102	0.068
Mof_H 	H 	0.3371	0.1075	0.4447	0.061
Mof_H 	H 	0.973	0.8293	0.5121	0.056
Mof_H 	H 	0.0748	0.1504	0.5525	0.072
Mof_C 	C 	0.1437	0.1585	0.4182	-0.107
Mof_C 	C 	0.1324	0.0698	0.372	0.103
Mof_C 	C 	0.2885	0.1205	0.3636	-0.009
Mof_C 	C 	0.2983	0.0721	0.3369	0.03
Mof_C 	C 	0.1706	0.9859	0.3243	0.197
Mof_C 	C 	0.2354	0.9587	0.2917	-0.222
Mof_C 	C 	0.2009	0.9057	0.2753	0.152
Mof_C 	C 	0.103	0.8805	0.2919	-0.23
Mof_C 	C 	0.0508	0.9111	0.3243	0.196
Mof_C 	C 	0.8842	0.9186	0.3729	0.099
Mof_C 	C 	0.9164	0.8334	0.341	0.019
Mof_C 	C 	0.8301	0.8301	0.3685	0
Mof_C 	C 	0.7269	0.9002	0.4203	-0.128
Mof_C 	C 	0.7665	0.8833	0.4621	0.075
Mof_C 	C 	0.6878	0.8961	0.4944	-0.084
Mof_C 	C 	0.7158	0.8837	0.5339	-0.048
Mof_C 	C 	0.1763	0.1419	0.459	0.051
Mof_C 	C 	0.0991	0.154	0.4921	-0.056
Mof_C 	C 	0.8725	0.8583	0.469	-0.077
Mof_C 	C 	0.8563	0.8415	0.5818	-0.107
Mof_C 	C 	0.8676	0.9302	0.628	0.103
Mof_C 	C 	0.7115	0.8795	0.6364	-0.009
Mof_C 	C 	0.7017	0.9279	0.6631	0.03
Mof_C 	C 	0.8294	0.0141	0.6757	0.197
Mof_C 	C 	0.7646	0.0413	0.7083	-0.222
Mof_C 	C 	0.7991	0.0943	0.7247	0.152
Mof_C 	C 	0.897	0.1195	0.7081	-0.23
Mof_C 	C 	0.9492	0.0889	0.6757	0.196
Mof_C 	C 	0.1158	0.0814	0.6271	0.099
Mof_C 	C 	0.0836	0.1666	0.659	0.019
Mof_C 	C 	0.1699	0.1699	0.6315	0
Mof_C 	C 	0.2731	0.0998	0.5797	-0.128
Mof_C 	C 	0.2335	0.1167	0.5379	0.075
Mof_C 	C 	0.3122	0.1039	0.5056	-0.084
Mof_C 	C 	0.2842	0.1163	0.4661	-0.048
Mof_C 	C 	0.8237	0.8581	0.541	0.051
Mof_C 	C 	0.9009	0.846	0.5079	-0.056
Mof_C 	C 	0.1275	0.1417	0.531	-0.077
Mof_N 	N 	0.1852	0.1177	0.384	-0.107
Mof_N 	N 	0.1993	0.0404	0.3432	-0.147
Mof_N 	N 	0.0789	0.9632	0.3409	-0.166
Mof_N 	N 	0.9524	0.8893	0.3445	-0.146
Mof_N 	N 	0.812	0.8841	0.3876	-0.105
Mof_N 	N 	0.8148	0.8823	0.616	-0.107
Mof_N 	N 	0.8007	0.9596	0.6568	-0.147
Mof_N 	N 	0.9211	0.0368	0.6591	-0.166
Mof_N 	N 	0.0476	0.1107	0.6555	-0.146
Mof_N 	N 	0.188	0.1159	0.6124	-0.105
Mof_H 	H 	0.6725	0.8781	0.9201	0.097
Mof_H 	H 	0.744	0.9343	0.9272	0.079
Mof_H 	H 	0.9229	0.94	0.8843	0.026
Mof_H 	H 	0.8077	0.7845	0.8881	0.047
Mof_H 	H 	0.9699	0.78	0.8398	0.045
Mof_H 	H 	0.1186	0.8114	0.7975	0.124
Mof_H 	H 	0.2837	0.8462	0.7678	-0.014
Mof_H 	H 	0.3418	0.9395	0.7881	0.127
Mof_H 	H 	0.0868	0.0362	0.8763	0.028
Mof_H 	H 	0.3912	0.0319	0.8155	0.034
Mof_H 	H 	0.3668	0.1267	0.8529	0.06
Mof_H 	H 	0.0761	0.1459	0.8991	0.069
Mof_H 	H 	0.1963	0.178	0.8987	0.08
Mof_H 	H 	0.3424	0.0973	0.9392	0.06
Mof_H 	H 	0.6248	0.9147	0.9939	0.068
Mof_H 	H 	0.0254	0.1627	0.9692	0.059
Mof_H 	H 	0.9395	0.8485	0.963	0.074
Mof_H 	H 	0.3275	0.1219	0.0799	0.097
Mof_H 	H 	0.256	0.0657	0.0728	0.079
Mof_H 	H 	0.0771	0.06	0.1157	0.026
Mof_H 	H 	0.1923	0.2155	0.1119	0.047
Mof_H 	H 	0.0301	0.22	0.1602	0.045
Mof_H 	H 	0.8814	0.1886	0.2025	0.124
Mof_H 	H 	0.7163	0.1538	0.2322	-0.014
Mof_H 	H 	0.6582	0.0605	0.2119	0.127
Mof_H 	H 	0.9132	0.9638	0.1237	0.028
Mof_H 	H 	0.6088	0.9681	0.1845	0.034
Mof_H 	H 	0.6332	0.8733	0.1471	0.06
Mof_H 	H 	0.9239	0.8541	0.1009	0.069
Mof_H 	H 	0.8037	0.822	0.1013	0.08
Mof_H 	H 	0.6576	0.9027	0.0608	0.06
Mof_H 	H 	0.3752	0.0853	0.0061	0.068
Mof_H 	H 	0.9746	0.8373	0.0308	0.059
Mof_H 	H 	0.0605	0.1515	0.037	0.074
Mof_C 	C 	0.7786	0.8826	0.9708	0.078
Mof_C 	C 	0.7491	0.894	0.9276	-0.135
Mof_C 	C 	0.9149	0.9011	0.8797	0.1
Mof_C 	C 	0.8516	0.8148	0.8813	0.009
Mof_C 	C 	0.9403	0.8122	0.8551	0.018
Mof_C 	C 	0.0843	0.8841	0.8336	0.195
Mof_C 	C 	0.1436	0.8482	0.8048	-0.233
Mof_C 	C 	0.2407	0.869	0.7874	0.157
Mof_C 	C 	0.2754	0.9244	0.7992	-0.228
Mof_C 	C 	0.2072	0.9555	0.8277	0.203
Mof_C 	C 	0.1587	0.0469	0.8661	0.098
Mof_C 	C 	0.3285	0.0446	0.8323	0.033
Mof_C 	C 	0.3148	0.0968	0.8528	-0.015
Mof_C 	C 	0.1602	0.1428	0.9033	-0.117
Mof_C 	C 	0.1828	0.1323	0.9471	0.054
Mof_C 	C 	0.2853	0.1086	0.9588	-0.051
Mof_C 	C 	0.6952	0.8987	0.0011	-0.083
Mof_C 	C 	0.0965	0.1477	0.9767	-0.059
Mof_C 	C 	0.8824	0.8595	0.9826	-0.078
Mof_C 	C 	0.2214	0.1174	0.0292	0.078
Mof_C 	C 	0.2509	0.106	0.0724	-0.135
Mof_C 	C 	0.0851	0.0989	0.1203	0.1
Mof_C 	C 	0.1484	0.1852	0.1187	0.009
Mof_C 	C 	0.0597	0.1878	0.1449	0.018
Mof_C 	C 	0.9157	0.1159	0.1664	0.195
Mof_C 	C 	0.8564	0.1518	0.1952	-0.233
Mof_C 	C 	0.7593	0.131	0.2126	0.157
Mof_C 	C 	0.7246	0.0756	0.2008	-0.228
Mof_C 	C 	0.7928	0.0445	0.1723	0.203
Mof_C 	C 	0.8413	0.9531	0.1339	0.098
Mof_C 	C 	0.6715	0.9554	0.1677	0.033
Mof_C 	C 	0.6852	0.9032	0.1472	-0.015
Mof_C 	C 	0.8398	0.8572	0.0967	-0.117
Mof_C 	C 	0.8172	0.8677	0.0529	0.054
Mof_C 	C 	0.7147	0.8914	0.0412	-0.051
Mof_C 	C 	0.3048	0.1013	0.9989	-0.083
Mof_C 	C 	0.9035	0.8523	0.0233	-0.059
Mof_C 	C 	0.1176	0.1405	0.0174	-0.078
Mof_N 	N 	0.8361	0.8707	0.8969	-0.104
Mof_N 	N 	0.9803	0.8661	0.8546	-0.144
Mof_N 	N 	0.1136	0.9368	0.84558	-0.168
Mof_N 	N 	0.2312	0.0141	0.8413	-0.145
Mof_N 	N 	0.208	0.0971	0.8737	-0.103
Mof_N 	N 	0.1639	0.1293	0.1031	-0.104
Mof_N 	N 	0.0197	0.1339	0.1454	-0.144
Mof_N 	N 	0.8864	0.0632	0.15442	-0.168
Mof_N 	N 	0.7688	0.9859	0.1587	-0.145
Mof_N 	N 	0.792	0.9029	0.1263	-0.103
Mof_H 	H 	0.5588	0.3382	0.0835	0.06
Mof_H 	H 	0.6773	0.305	0.0845	0.08
Mof_H 	H 	0.5609	0.4419	0.1182	0.024
Mof_H 	H 	0.8426	0.3502	0.1329	0.062
Mof_H 	H 	0.8589	0.4375	0.1817	0.034
Mof_H 	H 	0.8002	0.5241	0.2186	0.126
Mof_H 	H 	0.742	0.6134	0.2466	-0.007
Mof_H 	H 	0.5759	0.6549	0.2187	0.127
Mof_H 	H 	0.388	0.5429	0.1192	0.024
Mof_H 	H 	0.4465	0.6961	0.177	0.042
Mof_H 	H 	0.2903	0.7021	0.1263	0.05
Mof_H 	H 	0.1519	0.6174	0.0872	0.085
Mof_H 	H 	0.2155	0.5594	0.0769	0.079
Mof_H 	H 	0.1162	0.587	0.0102	0.068
Mof_H 	H 	0.1629	0.6075	0.9447	0.061
Mof_H 	H 	0.527	0.3293	0.0121	0.057
Mof_H 	H 	0.4252	0.6504	0.0525	0.073
Mof_H 	H 	0.4412	0.6618	0.9165	0.06
Mof_H 	H 	0.3227	0.695	0.9155	0.08
Mof_H 	H 	0.4391	0.5581	0.8818	0.024
Mof_H 	H 	0.1574	0.6498	0.8671	0.062
Mof_H 	H 	0.1411	0.5625	0.8183	0.034
Mof_H 	H 	0.1998	0.4759	0.7814	0.126
Mof_H 	H 	0.258	0.3866	0.7534	-0.007
Mof_H 	H 	0.4241	0.3451	0.7813	0.127
Mof_H 	H 	0.612	0.4571	0.8808	0.024
Mof_H 	H 	0.5535	0.3039	0.823	0.042
Mof_H 	H 	0.7097	0.2979	0.8737	0.05
Mof_H 	H 	0.8481	0.3826	0.9128	0.085
Mof_H 	H 	0.7845	0.4406	0.9231	0.079
Mof_H 	H 	0.8838	0.413	0.9898	0.068
Mof_H 	H 	0.8371	0.3925	0.0553	0.061
Mof_H 	H 	0.473	0.6707	0.9879	0.057
Mof_H 	H 	0.5748	0.3496	0.9475	0.073
Mof_C 	C 	0.6437	0.3415	0.0818	-0.107
Mof_C 	C 	0.6324	0.4302	0.128	0.103
Mof_C 	C 	0.7885	0.3795	0.1364	-0.009
Mof_C 	C 	0.7983	0.4279	0.1631	0.03
Mof_C 	C 	0.6706	0.5141	0.1757	0.197
Mof_C 	C 	0.7354	0.5413	0.2083	-0.222
Mof_C 	C 	0.7009	0.5943	0.2247	0.152
Mof_C 	C 	0.603	0.6195	0.2081	-0.229
Mof_C 	C 	0.5508	0.5889	0.1757	0.196
Mof_C 	C 	0.3842	0.5814	0.1271	0.099
Mof_C 	C 	0.4164	0.6666	0.159	0.019
Mof_C 	C 	0.3301	0.6699	0.1315	0.001
Mof_C 	C 	0.2269	0.5998	0.0797	-0.129
Mof_C 	C 	0.2665	0.6167	0.0379	0.075
Mof_C 	C 	0.1878	0.6039	0.0056	-0.084
Mof_C 	C 	0.2158	0.6163	0.9661	-0.048
Mof_C 	C 	0.6763	0.3581	0.041	0.051
Mof_C 	C 	0.5991	0.346	0.0079	-0.056
Mof_C 	C 	0.3725	0.6417	0.031	-0.078
Mof_C 	C 	0.3563	0.6585	0.9182	-0.107
Mof_C 	C 	0.3676	0.5698	0.872	0.103
Mof_C 	C 	0.2115	0.6205	0.8636	-0.009
Mof_C 	C 	0.2017	0.5721	0.8369	0.03
Mof_C 	C 	0.3294	0.4859	0.8243	0.197
Mof_C 	C 	0.2646	0.4587	0.7917	-0.222
Mof_C 	C 	0.2991	0.4057	0.7753	0.152
Mof_C 	C 	0.397	0.3805	0.7919	-0.229
Mof_C 	C 	0.4492	0.4111	0.8243	0.196
Mof_C 	C 	0.6158	0.4186	0.8729	0.099
Mof_C 	C 	0.5836	0.3334	0.841	0.019
Mof_C 	C 	0.6699	0.3301	0.8685	0.001
Mof_C 	C 	0.7731	0.4002	0.9203	-0.129
Mof_C 	C 	0.7335	0.3833	0.9621	0.075
Mof_C 	C 	0.8122	0.3961	0.9944	-0.084
Mof_C 	C 	0.7842	0.3837	0.0339	-0.048
Mof_C 	C 	0.3237	0.6419	0.959	0.051
Mof_C 	C 	0.4009	0.654	0.9921	-0.056
Mof_C 	C 	0.6275	0.3583	0.969	-0.078
Mof_N 	N 	0.6852	0.3823	0.116	-0.107
Mof_N 	N 	0.6993	0.4596	0.1568	-0.147
Mof_N 	N 	0.5789	0.5368	0.1591	-0.166
Mof_N 	N 	0.4524	0.6107	0.1555	-0.145
Mof_N 	N 	0.312	0.6159	0.1124	-0.105
Mof_N 	N 	0.3148	0.6177	0.884	-0.107
Mof_N 	N 	0.3007	0.5404	0.8432	-0.147
Mof_N 	N 	0.4211	0.4632	0.8409	-0.166
Mof_N 	N 	0.5476	0.3893	0.8445	-0.145
Mof_N 	N 	0.688	0.3841	0.8876	-0.105
_end
