data_functionalizedCrystal
_audit_creation_method	'EQeq! by Chris Wilmer'
_symmetry_space_group_name_H-M	'P1'
_symmetry_Int_Tables_number	1
_symmetry_cell_setting	triclinic
loop_
_symmetry_equiv_pos_as_xyz
  x,y,z
_cell_length_a	10.349
_cell_length_b	26.084
_cell_length_c	32.284
_cell_angle_alpha	90
_cell_angle_beta	90
_cell_angle_gamma	90
loop_
_atom_site_label
_atom_site_type_symbol
_atom_site_fract_x
_atom_site_fract_y
_atom_site_fract_z
_atom_site_charge
Mof_Zn	Zn	0.5	0.84636	0.12435	1.224
Mof_Zn	Zn	0.5	0.15364	0.87565	1.224
Mof_Zn	Zn	0.49971	0.78979	0.03478	1.221
Mof_Zn	Zn	-1.87792e-32	0.34636	0.37565	1.22
Mof_Zn	Zn	7.30262e-33	0.65364	0.62435	1.215
Mof_Zn	Zn	0.8471	0.75327	0.61323	1.225
Mof_Zn	Zn	0.99971	0.28979	0.46522	1.227
Mof_Zn	Zn	0.84609	0.2468	0.38678	1.205
Mof_Zn	Zn	0.34609	0.7468	0.11322	1.202
Mof_Zn	Zn	0.65391	0.2532	0.88678	1.203
Mof_Zn	Zn	0.3471	0.25327	0.88677	1.223
Mof_Zn	Zn	0.15391	0.7532	0.61322	1.2
Mof_Zn	Zn	0.1529	0.24673	0.38677	1.223
Mof_Zn	Zn	0.00029	0.71021	0.53478	1.213
Mof_Zn	Zn	0.6529	0.74673	0.11323	1.224
Mof_Zn	Zn	0.50029	0.21021	0.96522	1.221
Mof_H 	H 	0.6736	0.4018	0.8204	0.015
Mof_H 	H 	0.0427	0.6908	0.7584	0.015
Mof_H 	H 	0.3081	0.4285	0.3059	0.078
Mof_H 	H 	0.5698	0.2578	0.6161	0.144
Mof_H 	H 	0.7901	0.8879	0.6599	0.028
Mof_H 	H 	0.5014	0.76	0.5544	0.058
Mof_H 	H 	0.3221	0.117	0.0859	0.054
Mof_H 	H 	0.9242	0.9839	0.2322	0.131
Mof_H 	H 	0.7099	0.6121	0.1599	0.031
Mof_H 	H 	0.1885	0.4842	0.6252	0.115
Mof_H 	H 	0.3115	0.0158	0.1252	0.036
Mof_H 	H 	0.8654	0.034	0.2718	0.056
Mof_H 	H 	0.6919	0.5715	0.6941	0.083
Mof_H 	H 	0.4986	0.24	0.4456	0.058
Mof_H 	H 	0.8064	0.2504	0.0539	0.069
Mof_H 	H 	0.3054	0.2555	0.5532	0.098
Mof_H 	H 	0.7489	0.5478	0.2085	0.086
Mof_H 	H 	0.9573	0.3092	0.2416	0.061
Mof_H 	H 	0.0698	0.7578	0.8839	0.143
Mof_H 	H 	0.4635	0.7914	0.3291	0.062
Mof_H 	H 	0.0014	0.26	0.9456	0.058
Mof_H 	H 	0.3264	0.5982	0.1796	0.01
Mof_H 	H 	0.4573	0.8092	0.2584	0.04
Mof_H 	H 	0.6779	0.883	0.9141	0.05
Mof_H 	H 	0.9302	0.2422	0.1161	0.142
Mof_H 	H 	0.5427	0.1908	0.7416	0.041
Mof_H 	H 	0.3065	0.5718	0.6949	0.101
Mof_H 	H 	0.8193	0.8146	0.736	0.037
Mof_H 	H 	0.8132	0.8324	0.8067	0.074
Mof_H 	H 	0.1935	0.9282	0.1949	0.119
Mof_H 	H 	0.1159	0.5371	0.5868	0
Mof_H 	H 	0.2489	0.0478	0.2915	0.08
Mof_H 	H 	0.5365	0.2086	0.6709	0.063
Mof_H 	H 	0.0004	0.8287	0.1202	0.062
Mof_H 	H 	0.6807	0.6854	0.236	0.043
Mof_H 	H 	0.8841	0.4629	0.4132	0.173
Mof_H 	H 	0.1779	0.383	0.5859	-0.03
Mof_H 	H 	0.8081	0.9285	0.1941	0.095
Mof_H 	H 	0.8054	0.7555	0.9468	0.105
Mof_H 	H 	0.6936	0.2496	0.5539	0.078
Mof_H 	H 	0.4996	0.6713	0.6202	0.053
Mof_H 	H 	0.3193	0.3146	0.764	0.041
Mof_H 	H 	0.2901	0.3879	0.8401	0.028
Mof_H 	H 	0.9986	0.74	0.0544	0.058
Mof_H 	H 	0.3841	0.9629	0.0868	0.089
Mof_H 	H 	0.1093	0.3896	0.5365	0.175
Mof_H 	H 	0.3654	0.534	0.2282	0.061
Mof_H 	H 	0.4302	0.7422	0.3839	0.141
Mof_H 	H 	0.8264	0.0982	0.3204	0.013
Mof_H 	H 	0.9996	0.1713	0.8798	0.043
Mof_H 	H 	0.1736	0.9018	0.6796	0.013
Mof_H 	H 	0.9635	0.2914	0.1709	0.079
Mof_H 	H 	0.3132	0.3324	0.6933	0.072
Mof_H 	H 	0.2511	0.4522	0.7915	0.081
Mof_H 	H 	0.8065	0.0718	0.8051	0.085
Mof_H 	H 	0.0758	0.0161	0.7678	0.097
Mof_H 	H 	0.3907	0.1104	0.0365	0.09
Mof_H 	H 	0.5758	0.5161	0.7322	0.116
Mof_H 	H 	0.8907	0.6104	0.4635	0.01
Mof_H 	H 	0.6346	0.466	0.7718	0.064
Mof_H 	H 	0.1346	0.966	0.7282	0.07
Mof_H 	H 	0.8115	0.5158	0.3748	-0.037
Mof_H 	H 	0.4242	0.4839	0.2678	0.114
Mof_H 	H 	0.7511	0.9522	0.7085	0.087
Mof_H 	H 	0.1919	0.0715	0.8059	0.065
Mof_H 	H 	0.1807	0.1854	0.264	0.046
Mof_H 	H 	0.1946	0.2445	0.0532	0.094
Mof_H 	H 	0.6159	0.0371	0.9132	0.085
Mof_H 	H 	0.6868	0.6676	0.3067	0.074
Mof_H 	H 	0.6885	0.9842	0.8748	0.043
Mof_H 	H 	0.6093	0.8896	0.9635	0.095
Mof_H 	H 	0.6935	0.4282	0.3051	0.104
Mof_H 	H 	0.1868	0.1676	0.1933	0.071
Mof_H 	H 	0.5004	0.3287	0.3798	0.053
Mof_H 	H 	0.6946	0.7445	0.4468	0.101
Mof_H 	H 	0.2099	0.1121	0.3401	0.031
Mof_H 	H 	0.8221	0.617	0.4141	0.134
Mof_H 	H 	0.1936	0.7496	0.9461	0.083
Mof_H 	H 	0.0365	0.7086	0.8291	0.044
Mof_H 	H 	0.3064	0.7504	0.4461	0.073
Mof_C 	C 	0.4856	0.3887	0.8349	-0.191
Mof_C 	C 	0.9162	0.7766	0.869	0.191
Mof_C 	C 	0.493	0.3467	0.8632	0.497
Mof_C 	C 	0.4242	0.2722	0.6753	-0
Mof_C 	C 	0.8834	0.7466	0.0031	-0.036
Mof_C 	C 	0.507	0.6533	0.1368	0.497
Mof_C 	C 	0.8842	0.0868	0.8141	-0.029
Mof_C 	C 	0.5651	0.4503	0.7856	-0.099
Mof_C 	C 	0.4999	0.2434	0.4746	-0.008
Mof_C 	C 	0.8816	0.8688	0.1606	-0.031
Mof_C 	C 	0.8434	0.5816	0.4188	-0.249
Mof_C 	C 	0.3839	0.2516	0.5389	-0.097
Mof_C 	C 	0.8363	0.942	0.7027	-0.108
Mof_C 	C 	0.5589	0.7603	0.1986	0.402
Mof_C 	C 	0.4978	0.0461	0.9823	-0.137
Mof_C 	C 	0.1137	0.5023	0.5789	0.145
Mof_C 	C 	0.0545	0.4559	0.5212	0.319
Mof_C 	C 	0.8878	0.5763	0.4551	0.155
Mof_C 	C 	0.0884	0.912	0.6854	0.066
Mof_C 	C 	0.4349	0.5497	0.2144	-0.102
Mof_C 	C 	0.2631	0.3494	0.3577	0.4
Mof_C 	C 	0.5545	0.9559	0.9788	0.09
Mof_C 	C 	0.5684	0.749	0.2404	-0.136
Mof_C 	C 	0.3842	0.5868	0.6859	-0.088
Mof_C 	C 	0.2356	0.7477	0.0288	0.355
Mof_C 	C 	0.0006	0.8514	0.1428	-0.036
Mof_C 	C 	0.2369	0.1506	0.8577	0.414
Mof_C 	C 	0.5001	0.7566	0.5254	-0.008
Mof_C 	C 	0.0022	0.4539	0.4823	-0.343
Mof_C 	C 	0.0016	0.0667	0.8022	0.076
Mof_C 	C 	0.4316	0.251	0.7596	-0.137
Mof_C 	C 	0.9116	0.088	0.3146	0.086
Mof_C 	C 	0.457	0.9949	0.0403	0.062
Mof_C 	C 	0.6137	0.0023	0.9211	-0.092
Mof_C 	C 	0.9997	0.4008	0.46	0.518
Mof_C 	C 	0.3631	0.2932	0.7452	0.041
Mof_C 	C 	0.4116	0.588	0.1854	0.078
Mof_C 	C 	0.1184	0.1312	0.8394	-0.117
Mof_C 	C 	0.5016	0.5667	0.6978	0.142
Mof_C 	C 	0.5036	0.7806	0.2681	0.039
Mof_C 	C 	0.0684	0.249	0.2596	-0.115
Mof_C 	C 	0.4927	0.23	0.6897	-0.082
Mof_C 	C 	0.6159	0.2487	0.5388	-0.085
Mof_C 	C 	0.2644	0.7523	0.5288	0.355
Mof_C 	C 	0.1166	0.2534	0.9969	-0.045
Mof_C 	C 	0.7636	0.15	0.8592	0.399
Mof_C 	C 	0.3363	0.442	0.7973	-0.096
Mof_C 	C 	0.3595	0.3038	0.7031	-0.076
Mof_C 	C 	0.0003	0.5992	0.54	0.325
Mof_C 	C 	0.9349	0.0497	0.2856	-0.075
Mof_C 	C 	0.3461	0.0312	0.1006	0.018
Mof_C 	C 	0.9964	0.7194	0.7681	0.079
Mof_C 	C 	0.3596	0.4037	0.8263	0.072
Mof_C 	C 	0.259	0.2472	0.4722	0.349
Mof_C 	C 	0.5609	0.5347	0.223	0.009
Mof_C 	C 	0.9455	0.5441	0.4788	-0.15
Mof_C 	C 	0.2636	0.65	0.6408	0.387
Mof_C 	C 	0.0651	0.9503	0.7144	-0.13
Mof_C 	C 	0.3834	0.2466	0.4969	-0.042
Mof_C 	C 	0.5003	0.0992	0.96	0.423
Mof_C 	C 	0.0001	0.2566	0.9746	-0.024
Mof_C 	C 	0.5022	0.7491	0.4397	0.135
Mof_C 	C 	0.1122	0.4237	0.5449	-0.378
Mof_C 	C 	0.1539	0.4688	0.6006	-0.237
Mof_C 	C 	0.759	0.7472	0.0278	0.347
Mof_C 	C 	0.3858	0.413	0.3143	-0.093
Mof_C 	C 	0.1161	0.2484	0.0389	-0.085
Mof_C 	C 	0.9999	0.7434	0.0254	0.007
Mof_C 	C 	0.241	0.2528	0.9722	0.348
Mof_C 	C 	0.5914	0.4941	0.2495	0.175
Mof_C 	C 	0.9086	0.0059	0.7495	0.164
Mof_C 	C 	0.7364	0.35	0.3592	0.385
Mof_C 	C 	0.741	0.7528	0.5278	0.347
Mof_C 	C 	0.5006	0.3514	0.3572	0.009
Mof_C 	C 	0.9391	0.9653	0.723	0.04
Mof_C 	C 	0.6142	0.587	0.6857	-0.095
Mof_C 	C 	0.6173	0.369	0.3403	-0.072
Mof_C 	C 	0.7644	0.2523	0.9712	0.354
Mof_C 	C 	0.0758	0.2278	0.1753	0.005
Mof_C 	C 	0.1204	0.7453	0.0038	-0.068
Mof_C 	C 	0.1369	0.2068	0.2452	0.029
Mof_C 	C 	0.8631	0.7932	0.7548	0.057
Mof_C 	C 	0.0914	0.9941	0.2505	0.185
Mof_C 	C 	0.3796	0.7547	0.5038	-0.062
Mof_C 	C 	0.1159	0.7487	0.9612	-0.114
Mof_C 	C 	0.9242	0.7722	0.8247	-0.006
Mof_C 	C 	0.8839	0.7516	0.9611	-0.112
Mof_C 	C 	0.5144	0.6113	0.1651	-0.193
Mof_C 	C 	0.6204	0.2453	0.4962	-0.059
Mof_C 	C 	0.4391	0.4653	0.777	0.007
Mof_C 	C 	0.1173	0.869	0.1597	-0.045
Mof_C 	C 	0.3827	0.631	0.6597	-0.073
Mof_C 	C 	0.6404	0.5963	0.1737	0.074
Mof_C 	C 	0.4994	0.6486	0.6428	0.008
Mof_C 	C 	0.2364	0.85	0.1408	0.374
Mof_C 	C 	0.3434	0.0816	0.0812	-0.02
Mof_C 	C 	0.5758	0.7278	0.3247	-0
Mof_C 	C 	0.9978	0.5461	0.5177	0.064
Mof_C 	C 	0.8595	0.8038	0.7969	-0.079
Mof_C 	C 	0.1405	0.1962	0.2031	-0.074
Mof_C 	C 	0.9978	0.7509	0.9397	0.173
Mof_C 	C 	0.6122	0.9237	0.9551	-0.118
Mof_C 	C 	0.0022	0.2491	0.0603	0.102
Mof_C 	C 	0.8461	0.5312	0.3994	0.255
Mof_C 	C 	0.6184	0.6312	0.6606	-0.071
Mof_C 	C 	0.4455	0.0441	0.0212	0.079
Mof_C 	C 	0.9316	0.751	0.7404	-0.164
Mof_C 	C 	0.007	0.1533	0.3632	0.48
Mof_C 	C 	0.4086	0.5059	0.7505	0.176
Mof_C 	C 	0.0838	0.2234	0.131	0.155
Mof_C 	C 	0.1142	0.087	0.8143	-0.049
Mof_C 	C 	0.0589	0.2603	0.3014	0.364
Mof_C 	C 	0.3863	0.9977	0.0789	-0.109
Mof_C 	C 	0.8858	0.913	0.1857	-0.135
Mof_C 	C 	0.5838	0.7234	0.369	0.172
Mof_C 	C 	0.7631	0.8494	0.1423	0.385
Mof_C 	C 	0.0609	0.0347	0.277	-0.019
Mof_C 	C 	0.5073	0.77	0.3103	-0.081
Mof_C 	C 	0.8841	0.2513	0.0388	-0.058
Mof_C 	C 	0.7356	0.2477	0.4712	0.355
Mof_C 	C 	0.4978	0.2509	0.5603	0.136
Mof_C 	C 	0.043	0.5051	0.5403	-0.162
Mof_C 	C 	0.3878	0.0763	0.0449	-0.105
Mof_C 	C 	0.1566	0.4184	0.5812	0.225
Mof_C 	C 	0.9856	0.8887	0.6651	-0.182
Mof_C 	C 	0.9994	0.1486	0.8572	0.057
Mof_C 	C 	0.4964	0.2194	0.7319	0.04
Mof_C 	C 	0.8863	0.4977	0.4211	-0.345
Mof_C 	C 	0.4984	0.4333	0.3022	0.141
Mof_C 	C 	0.9411	0.7397	0.6986	0.449
Mof_C 	C 	0.6405	0.6962	0.2969	-0.075
Mof_C 	C 	0.3841	0.7513	0.4612	-0.084
Mof_C 	C 	0.6161	0.7484	0.4611	-0.097
Mof_C 	C 	0.6369	0.7068	0.2548	0.042
Mof_C 	C 	0.8796	0.2547	0.9962	-0.052
Mof_C 	C 	0.0036	0.2806	0.2319	0.008
Mof_C 	C 	0.6637	0.558	0.2027	-0.097
Mof_C 	C 	0.6539	0.9688	0.8994	0.001
Mof_C 	C 	0.6166	0.7534	0.5031	-0.04
Mof_C 	C 	0.957	0.4949	0.4597	0.275
Mof_C 	C 	0.0144	0.1113	0.3349	-0.201
Mof_C 	C 	0.1158	0.9132	0.1859	-0.14
Mof_C 	C 	0.543	0.0051	0.9597	0.053
Mof_C 	C 	0.0073	0.27	0.1897	-0.098
Mof_C 	C 	0.9984	0.9333	0.1978	0.2
Mof_C 	C 	0.9927	0.73	0.8103	-0.063
Mof_C 	C 	0.1404	0.0963	0.3263	0.068
Mof_C 	C 	0.6158	0.4132	0.3141	-0.087
Mof_C 	C 	0.7369	0.6506	0.6423	0.398
Mof_C 	C 	0.4162	0.2766	0.631	0.172
Mof_C 	C 	0.6566	0.9184	0.9188	-0.005
Mof_C 	C 	0.5884	0.412	0.8146	0.077
Mof_C 	C 	0.4411	0.2397	0.8014	0.403
Mof_C 	C 	0.5022	0.9539	0.0177	-0.145
Mof_C 	C 	0.8596	0.9037	0.6737	0.078
Mof_C 	C 	0.993	0.8467	0.6368	0.518
Mof_C 	C 	0.4997	0.9008	0.04	0.425
Mof_C 	C 	0.8827	0.131	0.8403	-0.103
Mof_C 	C 	0.1637	0.058	0.2973	-0.086
Mof_C 	C 	0.3816	0.3688	0.3394	-0.074
Mof_N 	N 	0.9995	0.2449	0.1039	-0.223
Mof_N 	N 	0.0005	0.7551	0.8961	-0.266
Mof_N 	N 	0.5005	0.2551	0.6039	-0.244
Mof_N 	N 	0.4995	0.7449	0.3961	-0.243
Mof_N 	N 	0.9968	0.0284	0.774	-0.188
Mof_N 	N 	0.5032	0.4716	0.274	-0.221
Mof_N 	N 	0.4968	0.5284	0.726	-0.222
Mof_N 	N 	0.0032	0.9716	0.226	-0.252
Mof_O 	O 	0.2319	0.1905	0.8771	-0.501
Mof_O 	O 	0.1588	0.7345	0.5093	-0.466
Mof_O 	O 	0.0031	0.3992	0.4216	-0.535
Mof_O 	O 	0.2083	0.9744	0.2512	-0.207
Mof_O 	O 	0.2597	0.7704	0.56381	-0.474
Mof_O 	O 	0.2687	0.6909	0.6219	-0.509
Mof_O 	O 	0.2606	0.2297	0.43634	-0.46
Mof_O 	O 	0.8206	0.8047	0.8836	-0.206
Mof_O 	O 	0.7083	0.4744	0.2488	-0.199
Mof_O 	O 	0.4004	0.324	0.8727	-0.522
Mof_O 	O 	0.6559	0.7649	0.00938	-0.472
Mof_O 	O 	0.9998	0.3632	0.4831	-0.508
Mof_O 	O 	0.2403	0.7296	0.06381	-0.476
Mof_O 	O 	0.7606	0.7297	0.06366	-0.457
Mof_O 	O 	0.9967	0.2912	0.3127	-0.45
Mof_O 	O 	0.7394	0.7703	0.56366	-0.456
Mof_O 	O 	0.9969	0.6008	0.5784	-0.436
Mof_O 	O 	0.0004	0.2828	0.40671	-0.945
Mof_O 	O 	0.3441	0.2351	0.99062	-0.473
Mof_O 	O 	0.4969	0.1008	0.9216	-0.488
Mof_O 	O 	0.9996	0.7172	0.59329	-0.919
Mof_O 	O 	0.5004	0.7828	0.09329	-0.935
Mof_O 	O 	0.8424	0.372	0.3501	-0.454
Mof_O 	O 	0.1562	0.3722	0.3504	-0.466
Mof_O 	O 	0.8412	0.2655	0.4907	-0.455
Mof_O 	O 	0.3438	0.1278	0.8504	-0.466
Mof_O 	O 	0.3424	0.872	0.1499	-0.458
Mof_O 	O 	0.8426	0.7678	0.6798	-0.387
Mof_O 	O 	0.1009	0.8269	0.6247	-0.515
Mof_O 	O 	0.3991	0.6731	0.1247	-0.497
Mof_O 	O 	0.7681	0.8095	0.1229	-0.486
Mof_O 	O 	0.5002	0.1368	0.9831	-0.489
Mof_O 	O 	0.7403	0.2296	0.43619	-0.47
Mof_O 	O 	0.2681	0.3095	0.3771	-0.494
Mof_O 	O 	0.6562	0.8722	0.1496	-0.457
Mof_O 	O 	0.1794	0.1953	0.1164	-0.201
Mof_O 	O 	0.5031	0.8992	0.0784	-0.489
Mof_O 	O 	0.8441	0.7351	0.50938	-0.464
Mof_O 	O 	0.3412	0.7655	0.0093	-0.461
Mof_O 	O 	0.2394	0.2703	0.93634	-0.46
Mof_O 	O 	0.5996	0.676	0.1273	-0.521
Mof_O 	O 	0.1559	0.2649	0.49062	-0.479
Mof_O 	O 	0.2313	0.8091	0.1219	-0.506
Mof_O 	O 	0.4996	0.2172	0.90671	-0.935
Mof_O 	O 	0.0033	0.7088	0.6873	-0.514
Mof_O 	O 	0.5033	0.2088	0.8127	-0.479
Mof_O 	O 	0.9004	0.824	0.6273	-0.524
Mof_O 	O 	0.3206	0.3047	0.6164	-0.203
Mof_O 	O 	0.2917	0.5256	0.7512	-0.204
Mof_O 	O 	0.4967	0.7912	0.1873	-0.48
Mof_O 	O 	0.0002	0.6368	0.5169	-0.47
Mof_O 	O 	0.6574	0.7322	0.1798	-0.379
Mof_O 	O 	0.3426	0.2678	0.8202	-0.381
Mof_O 	O 	0.8438	0.6278	0.6496	-0.453
Mof_O 	O 	0.7917	0.0256	0.7488	-0.195
Mof_O 	O 	0.6009	0.3269	0.8753	-0.494
Mof_O 	O 	0.7319	0.6905	0.6229	-0.491
Mof_O 	O 	0.7313	0.3091	0.3781	-0.504
Mof_O 	O 	0.6794	0.6953	0.3836	-0.204
Mof_O 	O 	0.1576	0.628	0.6499	-0.464
Mof_O 	O 	0.8991	0.1731	0.3753	-0.48
Mof_O 	O 	0.7687	0.1909	0.8781	-0.507
Mof_O 	O 	0.6576	0.128	0.8501	-0.462
Mof_O 	O 	0.7597	0.2704	0.93619	-0.468
Mof_O 	O 	0.6588	0.2345	0.9907	-0.459
Mof_O 	O 	0.4998	0.8632	0.0169	-0.49
Mof_O 	O 	0.1574	0.2322	0.3202	-0.374
Mof_O 	O 	0.0996	0.176	0.3727	-0.52
_end
