data_functionalizedCrystal
_audit_creation_method	'EQeq! by Chris Wilmer'
_symmetry_space_group_name_H-M	'P1'
_symmetry_Int_Tables_number	1
_symmetry_cell_setting	triclinic
loop_
_symmetry_equiv_pos_as_xyz
  x,y,z
_cell_length_a	30.5765
_cell_length_b	28.363
_cell_length_c	12.2756
_cell_angle_alpha	90
_cell_angle_beta	90
_cell_angle_gamma	90
loop_
_atom_site_label
_atom_site_type_symbol
_atom_site_fract_x
_atom_site_fract_y
_atom_site_fract_z
_atom_site_charge
Mof_N 	N 	0.42976	0.07759	0.5168	-0.213
Mof_N 	N 	0.58713	0.92533	0.9709	-0.209
Mof_C 	C 	0.4157	0.03707	0.4748	0.119
Mof_H 	H 	0.388	0.0266	0.4945	-0.028
Mof_C 	C 	0.43967	0.00972	0.4037	-0.223
Mof_H 	H 	0.4279	0.9819	0.3765	0.098
Mof_C 	C 	0.48052	0.02339	0.3733	0.162
Mof_C 	C 	0.49588	0.06498	0.4178	-0.218
Mof_H 	H 	0.5238	0.0757	0.4005	0.096
Mof_C 	C 	0.46982	0.09041	0.4879	0.121
Mof_H 	H 	0.481	0.1182	0.5167	-0.03
Mof_C 	C 	0.5975	0.96939	0.9999	0.115
Mof_H 	H 	0.6237	0.9819	0.9744	-0.026
Mof_C 	C 	0.57173	0.99733	0.0654	-0.216
Mof_H 	H 	0.5808	0.0276	0.0836	0.095
Mof_C 	C 	0.53245	0.98026	0.104	0.155
Mof_C 	C 	0.52106	0.93524	0.0717	-0.215
Mof_H 	H 	0.4946	0.9223	0.0943	0.096
Mof_C 	C 	0.54857	0.90955	0.0064	0.113
Mof_H 	H 	0.5399	0.8794	0.9857	-0.026
Mof_C 	C 	0.50853	0.99476	0.2967	-0.178
Mof_H 	H 	0.5009	0.9617	0.3043	0.075
Mof_H 	H 	0.5389	0.9983	0.3176	0.076
Mof_C 	C 	0.50356	0.00887	0.1783	-0.18
Mof_H 	H 	0.5108	0.042	0.1705	0.077
Mof_H 	H 	0.4733	0.0048	0.1565	0.08
Mof_N 	N 	0.42976	0.57759	0.0168	-0.214
Mof_N 	N 	0.58713	0.42533	0.4709	-0.21
Mof_C 	C 	0.4157	0.53707	0.9748	0.118
Mof_H 	H 	0.388	0.5266	0.9945	-0.029
Mof_C 	C 	0.43967	0.50972	0.9037	-0.223
Mof_H 	H 	0.4279	0.4819	0.8765	0.097
Mof_C 	C 	0.48052	0.52339	0.8733	0.161
Mof_C 	C 	0.49588	0.56498	0.9178	-0.219
Mof_H 	H 	0.5238	0.5757	0.9005	0.095
Mof_C 	C 	0.46982	0.59041	0.9879	0.12
Mof_H 	H 	0.481	0.6182	0.0167	-0.031
Mof_C 	C 	0.5975	0.46939	0.4999	0.114
Mof_H 	H 	0.6237	0.4819	0.4744	-0.027
Mof_C 	C 	0.57173	0.49733	0.5654	-0.217
Mof_H 	H 	0.5808	0.5276	0.5836	0.094
Mof_C 	C 	0.53245	0.48026	0.604	0.153
Mof_C 	C 	0.52106	0.43524	0.5717	-0.216
Mof_H 	H 	0.4946	0.4223	0.5943	0.095
Mof_C 	C 	0.54857	0.40955	0.5064	0.113
Mof_H 	H 	0.5399	0.3794	0.4857	-0.026
Mof_C 	C 	0.50853	0.49476	0.7967	-0.178
Mof_H 	H 	0.5009	0.4617	0.8043	0.075
Mof_H 	H 	0.5389	0.4983	0.8176	0.076
Mof_C 	C 	0.50356	0.50887	0.6783	-0.179
Mof_H 	H 	0.5108	0.542	0.6705	0.077
Mof_H 	H 	0.4733	0.5048	0.6565	0.08
Mof_N 	N 	0.92976	0.07759	0.0168	-0.214
Mof_N 	N 	0.08713	0.92533	0.4709	-0.21
Mof_C 	C 	0.9157	0.03707	0.9748	0.117
Mof_H 	H 	0.888	0.0266	0.9945	-0.029
Mof_C 	C 	0.93967	0.00972	0.9037	-0.222
Mof_H 	H 	0.9279	0.9819	0.8765	0.096
Mof_C 	C 	0.98052	0.02339	0.8733	0.16
Mof_C 	C 	0.99588	0.06498	0.9178	-0.218
Mof_H 	H 	0.0238	0.0757	0.9005	0.095
Mof_C 	C 	0.96982	0.09041	0.9879	0.12
Mof_H 	H 	0.981	0.1182	0.0167	-0.031
Mof_C 	C 	0.0975	0.96939	0.4999	0.114
Mof_H 	H 	0.1237	0.9819	0.4744	-0.027
Mof_C 	C 	0.07173	0.99733	0.5654	-0.217
Mof_H 	H 	0.0808	0.0276	0.5836	0.093
Mof_C 	C 	0.03245	0.98026	0.604	0.154
Mof_C 	C 	0.02106	0.93524	0.5717	-0.216
Mof_H 	H 	0.9946	0.9223	0.5943	0.095
Mof_C 	C 	0.04857	0.90955	0.5064	0.113
Mof_H 	H 	0.0399	0.8794	0.4857	-0.026
Mof_C 	C 	0.00853	0.99476	0.7967	-0.176
Mof_H 	H 	0.0009	0.9617	0.8043	0.074
Mof_H 	H 	0.0389	0.9983	0.8176	0.076
Mof_C 	C 	0.00356	0.00887	0.6783	-0.182
Mof_H 	H 	0.0108	0.042	0.6705	0.077
Mof_H 	H 	0.9733	0.0048	0.6565	0.081
Mof_N 	N 	0.92976	0.57759	0.5168	-0.214
Mof_N 	N 	0.08713	0.42533	0.9709	-0.21
Mof_C 	C 	0.9157	0.53707	0.4748	0.118
Mof_H 	H 	0.888	0.5266	0.4945	-0.029
Mof_C 	C 	0.93967	0.50972	0.4037	-0.224
Mof_H 	H 	0.9279	0.4819	0.3765	0.097
Mof_C 	C 	0.98052	0.52339	0.3733	0.161
Mof_C 	C 	0.99588	0.56498	0.4178	-0.219
Mof_H 	H 	0.0238	0.5757	0.4005	0.095
Mof_C 	C 	0.96982	0.59041	0.4879	0.12
Mof_H 	H 	0.981	0.6182	0.5167	-0.031
Mof_C 	C 	0.0975	0.46939	0.9999	0.114
Mof_H 	H 	0.1237	0.4819	0.9744	-0.027
Mof_C 	C 	0.07173	0.49733	0.0654	-0.216
Mof_H 	H 	0.0808	0.5276	0.0836	0.093
Mof_C 	C 	0.03245	0.48026	0.104	0.153
Mof_C 	C 	0.02106	0.43524	0.0717	-0.216
Mof_H 	H 	0.9946	0.4223	0.0943	0.095
Mof_C 	C 	0.04857	0.40955	0.0064	0.113
Mof_H 	H 	0.0399	0.3794	0.9857	-0.026
Mof_C 	C 	0.00853	0.49476	0.2967	-0.178
Mof_H 	H 	0.0009	0.4617	0.3043	0.075
Mof_H 	H 	0.0389	0.4983	0.3176	0.076
Mof_C 	C 	0.00356	0.50887	0.1783	-0.179
Mof_H 	H 	0.0108	0.542	0.1705	0.077
Mof_H 	H 	0.9733	0.5048	0.1565	0.08
Mof_N 	N 	0.42976	0.67241	0.2332	-0.214
Mof_N 	N 	0.58713	0.82467	0.7791	-0.21
Mof_C 	C 	0.4157	0.71293	0.2752	0.118
Mof_H 	H 	0.388	0.7234	0.2555	-0.029
Mof_C 	C 	0.43967	0.74028	0.3463	-0.223
Mof_H 	H 	0.4279	0.7681	0.3735	0.097
Mof_C 	C 	0.48052	0.72661	0.3767	0.161
Mof_C 	C 	0.49588	0.68502	0.3322	-0.219
Mof_H 	H 	0.5238	0.6743	0.3495	0.095
Mof_C 	C 	0.46982	0.65959	0.2621	0.12
Mof_H 	H 	0.481	0.6318	0.2333	-0.031
Mof_C 	C 	0.5975	0.78061	0.7501	0.114
Mof_H 	H 	0.6237	0.7681	0.7756	-0.027
Mof_C 	C 	0.57173	0.75267	0.6846	-0.217
Mof_H 	H 	0.5808	0.7224	0.6664	0.094
Mof_C 	C 	0.53245	0.76974	0.646	0.153
Mof_C 	C 	0.52106	0.81476	0.6783	-0.216
Mof_H 	H 	0.4946	0.8277	0.6557	0.095
Mof_C 	C 	0.54857	0.84045	0.7436	0.113
Mof_H 	H 	0.5399	0.8706	0.7643	-0.026
Mof_C 	C 	0.50853	0.75524	0.4533	-0.178
Mof_H 	H 	0.5009	0.7883	0.4457	0.075
Mof_H 	H 	0.5389	0.7517	0.4324	0.076
Mof_C 	C 	0.50356	0.74113	0.5717	-0.179
Mof_H 	H 	0.5108	0.708	0.5795	0.077
Mof_H 	H 	0.4733	0.7452	0.5935	0.08
Mof_N 	N 	0.42976	0.17241	0.7332	-0.214
Mof_N 	N 	0.58713	0.32467	0.2791	-0.21
Mof_C 	C 	0.4157	0.21293	0.7752	0.118
Mof_H 	H 	0.388	0.2234	0.7555	-0.029
Mof_C 	C 	0.43967	0.24028	0.8463	-0.223
Mof_H 	H 	0.4279	0.2681	0.8735	0.097
Mof_C 	C 	0.48052	0.22661	0.8767	0.161
Mof_C 	C 	0.49588	0.18502	0.8322	-0.219
Mof_H 	H 	0.5238	0.1743	0.8495	0.095
Mof_C 	C 	0.46982	0.15959	0.7621	0.12
Mof_H 	H 	0.481	0.1318	0.7333	-0.031
Mof_C 	C 	0.5975	0.28061	0.2501	0.114
Mof_H 	H 	0.6237	0.2681	0.2756	-0.027
Mof_C 	C 	0.57173	0.25267	0.1846	-0.217
Mof_H 	H 	0.5808	0.2224	0.1664	0.094
Mof_C 	C 	0.53245	0.26974	0.146	0.153
Mof_C 	C 	0.52106	0.31476	0.1783	-0.216
Mof_H 	H 	0.4946	0.3277	0.1557	0.095
Mof_C 	C 	0.54857	0.34045	0.2436	0.113
Mof_H 	H 	0.5399	0.3706	0.2643	-0.026
Mof_C 	C 	0.50853	0.25524	0.9533	-0.178
Mof_H 	H 	0.5009	0.2883	0.9457	0.075
Mof_H 	H 	0.5389	0.2517	0.9324	0.076
Mof_C 	C 	0.50356	0.24113	0.0717	-0.18
Mof_H 	H 	0.5108	0.208	0.0795	0.077
Mof_H 	H 	0.4733	0.2452	0.0935	0.08
Mof_N 	N 	0.92976	0.67241	0.7332	-0.214
Mof_N 	N 	0.08713	0.82467	0.2791	-0.21
Mof_C 	C 	0.9157	0.71293	0.7752	0.118
Mof_H 	H 	0.888	0.7234	0.7555	-0.029
Mof_C 	C 	0.93967	0.74028	0.8463	-0.224
Mof_H 	H 	0.9279	0.7681	0.8735	0.097
Mof_C 	C 	0.98052	0.72661	0.8767	0.162
Mof_C 	C 	0.99588	0.68502	0.8322	-0.219
Mof_H 	H 	0.0238	0.6743	0.8495	0.095
Mof_C 	C 	0.96982	0.65959	0.7621	0.12
Mof_H 	H 	0.981	0.6318	0.7333	-0.031
Mof_C 	C 	0.0975	0.78061	0.2501	0.114
Mof_H 	H 	0.1237	0.7681	0.2756	-0.027
Mof_C 	C 	0.07173	0.75267	0.1846	-0.216
Mof_H 	H 	0.0808	0.7224	0.1664	0.093
Mof_C 	C 	0.03245	0.76974	0.146	0.152
Mof_C 	C 	0.02106	0.81476	0.1783	-0.215
Mof_H 	H 	0.9946	0.8277	0.1557	0.095
Mof_C 	C 	0.04857	0.84045	0.2436	0.112
Mof_H 	H 	0.0399	0.8706	0.2643	-0.025
Mof_C 	C 	0.00853	0.75524	0.9533	-0.179
Mof_H 	H 	0.0009	0.7883	0.9457	0.075
Mof_H 	H 	0.0389	0.7517	0.9324	0.077
Mof_C 	C 	0.00356	0.74113	0.0717	-0.178
Mof_H 	H 	0.0108	0.708	0.0795	0.077
Mof_H 	H 	0.9733	0.7452	0.0935	0.08
Mof_N 	N 	0.92976	0.17241	0.2332	-0.214
Mof_N 	N 	0.08713	0.32467	0.7791	-0.21
Mof_C 	C 	0.9157	0.21293	0.2752	0.118
Mof_H 	H 	0.888	0.2234	0.2555	-0.029
Mof_C 	C 	0.93967	0.24028	0.3463	-0.223
Mof_H 	H 	0.9279	0.2681	0.3735	0.097
Mof_C 	C 	0.98052	0.22661	0.3767	0.161
Mof_C 	C 	0.99588	0.18502	0.3322	-0.219
Mof_H 	H 	0.0238	0.1743	0.3495	0.095
Mof_C 	C 	0.96982	0.15959	0.2621	0.12
Mof_H 	H 	0.981	0.1318	0.2333	-0.031
Mof_C 	C 	0.0975	0.28061	0.7501	0.114
Mof_H 	H 	0.1237	0.2681	0.7756	-0.027
Mof_C 	C 	0.07173	0.25267	0.6846	-0.217
Mof_H 	H 	0.0808	0.2224	0.6664	0.094
Mof_C 	C 	0.03245	0.26974	0.646	0.154
Mof_C 	C 	0.02106	0.31476	0.6783	-0.217
Mof_H 	H 	0.9946	0.3277	0.6557	0.096
Mof_C 	C 	0.04857	0.34045	0.7436	0.113
Mof_H 	H 	0.0399	0.3706	0.7643	-0.026
Mof_C 	C 	0.00853	0.25524	0.4533	-0.177
Mof_H 	H 	0.0009	0.2883	0.4457	0.075
Mof_H 	H 	0.0389	0.2517	0.4324	0.076
Mof_C 	C 	0.00356	0.24113	0.5717	-0.18
Mof_H 	H 	0.0108	0.208	0.5795	0.077
Mof_H 	H 	0.9733	0.2452	0.5935	0.081
Mof_N 	N 	0.67976	0.32759	0.4832	-0.214
Mof_N 	N 	0.83713	0.17533	0.0291	-0.21
Mof_C 	C 	0.6657	0.28707	0.5252	0.118
Mof_H 	H 	0.638	0.2766	0.5055	-0.029
Mof_C 	C 	0.68967	0.25972	0.5963	-0.223
Mof_H 	H 	0.6779	0.2319	0.6235	0.097
Mof_C 	C 	0.73052	0.27339	0.6267	0.161
Mof_C 	C 	0.74588	0.31498	0.5822	-0.219
Mof_H 	H 	0.7738	0.3257	0.5995	0.095
Mof_C 	C 	0.71982	0.34041	0.5121	0.12
Mof_H 	H 	0.731	0.3682	0.4833	-0.031
Mof_C 	C 	0.8475	0.21939	0.0001	0.114
Mof_H 	H 	0.8737	0.2319	0.0256	-0.027
Mof_C 	C 	0.82173	0.24733	0.9346	-0.216
Mof_H 	H 	0.8308	0.2776	0.9164	0.094
Mof_C 	C 	0.78245	0.23026	0.896	0.154
Mof_C 	C 	0.77106	0.18524	0.9283	-0.216
Mof_H 	H 	0.7446	0.1723	0.9057	0.095
Mof_C 	C 	0.79857	0.15955	0.9936	0.113
Mof_H 	H 	0.7899	0.1294	0.0143	-0.026
Mof_C 	C 	0.75853	0.24476	0.7033	-0.178
Mof_H 	H 	0.7509	0.2117	0.6957	0.075
Mof_H 	H 	0.7889	0.2483	0.6824	0.076
Mof_C 	C 	0.75356	0.25887	0.8217	-0.179
Mof_H 	H 	0.7608	0.292	0.8295	0.077
Mof_H 	H 	0.7233	0.2548	0.8435	0.08
Mof_N 	N 	0.67976	0.82759	0.9832	-0.214
Mof_N 	N 	0.83713	0.67533	0.5291	-0.21
Mof_C 	C 	0.6657	0.78707	0.0252	0.118
Mof_H 	H 	0.638	0.7766	0.0055	-0.029
Mof_C 	C 	0.68967	0.75972	0.0963	-0.223
Mof_H 	H 	0.6779	0.7319	0.1235	0.097
Mof_C 	C 	0.73052	0.77339	0.1267	0.161
Mof_C 	C 	0.74588	0.81498	0.0822	-0.219
Mof_H 	H 	0.7738	0.8257	0.0995	0.095
Mof_C 	C 	0.71982	0.84041	0.0121	0.12
Mof_H 	H 	0.731	0.8682	0.9833	-0.031
Mof_C 	C 	0.8475	0.71939	0.5001	0.114
Mof_H 	H 	0.8737	0.7319	0.5256	-0.027
Mof_C 	C 	0.82173	0.74733	0.4346	-0.217
Mof_H 	H 	0.8308	0.7776	0.4164	0.094
Mof_C 	C 	0.78245	0.73026	0.396	0.153
Mof_C 	C 	0.77106	0.68524	0.4283	-0.216
Mof_H 	H 	0.7446	0.6723	0.4057	0.095
Mof_C 	C 	0.79857	0.65955	0.4936	0.113
Mof_H 	H 	0.7899	0.6294	0.5143	-0.026
Mof_C 	C 	0.75853	0.74476	0.2033	-0.178
Mof_H 	H 	0.7509	0.7117	0.1957	0.075
Mof_H 	H 	0.7889	0.7483	0.1824	0.076
Mof_C 	C 	0.75356	0.75887	0.3217	-0.179
Mof_H 	H 	0.7608	0.792	0.3295	0.077
Mof_H 	H 	0.7233	0.7548	0.3435	0.08
Mof_N 	N 	0.17976	0.32759	0.9832	-0.214
Mof_N 	N 	0.33713	0.17533	0.5291	-0.21
Mof_C 	C 	0.1657	0.28707	0.0252	0.118
Mof_H 	H 	0.138	0.2766	0.0055	-0.029
Mof_C 	C 	0.18967	0.25972	0.0963	-0.224
Mof_H 	H 	0.1779	0.2319	0.1235	0.097
Mof_C 	C 	0.23052	0.27339	0.1267	0.161
Mof_C 	C 	0.24588	0.31498	0.0822	-0.219
Mof_H 	H 	0.2738	0.3257	0.0995	0.095
Mof_C 	C 	0.21982	0.34041	0.0121	0.12
Mof_H 	H 	0.231	0.3682	0.9833	-0.031
Mof_C 	C 	0.3475	0.21939	0.5001	0.114
Mof_H 	H 	0.3737	0.2319	0.5256	-0.027
Mof_C 	C 	0.32173	0.24733	0.4346	-0.217
Mof_H 	H 	0.3308	0.2776	0.4164	0.094
Mof_C 	C 	0.28245	0.23026	0.396	0.153
Mof_C 	C 	0.27106	0.18524	0.4283	-0.216
Mof_H 	H 	0.2446	0.1723	0.4057	0.095
Mof_C 	C 	0.29857	0.15955	0.4936	0.113
Mof_H 	H 	0.2899	0.1294	0.5143	-0.026
Mof_C 	C 	0.25853	0.24476	0.2033	-0.178
Mof_H 	H 	0.2509	0.2117	0.1957	0.075
Mof_H 	H 	0.2889	0.2483	0.1824	0.076
Mof_C 	C 	0.25356	0.25887	0.3217	-0.179
Mof_H 	H 	0.2608	0.292	0.3295	0.077
Mof_H 	H 	0.2233	0.2548	0.3435	0.08
Mof_N 	N 	0.17976	0.82759	0.4832	-0.214
Mof_N 	N 	0.33713	0.67533	0.0291	-0.21
Mof_C 	C 	0.1657	0.78707	0.5252	0.118
Mof_H 	H 	0.138	0.7766	0.5055	-0.029
Mof_C 	C 	0.18967	0.75972	0.5963	-0.223
Mof_H 	H 	0.1779	0.7319	0.6235	0.097
Mof_C 	C 	0.23052	0.77339	0.6267	0.161
Mof_C 	C 	0.24588	0.81498	0.5822	-0.219
Mof_H 	H 	0.2738	0.8257	0.5995	0.095
Mof_C 	C 	0.21982	0.84041	0.5121	0.12
Mof_H 	H 	0.231	0.8682	0.4833	-0.031
Mof_C 	C 	0.3475	0.71939	0.0001	0.114
Mof_H 	H 	0.3737	0.7319	0.0256	-0.027
Mof_C 	C 	0.32173	0.74733	0.9346	-0.217
Mof_H 	H 	0.3308	0.7776	0.9164	0.094
Mof_C 	C 	0.28245	0.73026	0.896	0.153
Mof_C 	C 	0.27106	0.68524	0.9283	-0.216
Mof_H 	H 	0.2446	0.6723	0.9057	0.095
Mof_C 	C 	0.29857	0.65955	0.9936	0.113
Mof_H 	H 	0.2899	0.6294	0.0143	-0.026
Mof_C 	C 	0.25853	0.74476	0.7033	-0.178
Mof_H 	H 	0.2509	0.7117	0.6957	0.075
Mof_H 	H 	0.2889	0.7483	0.6824	0.076
Mof_C 	C 	0.25356	0.75887	0.8217	-0.179
Mof_H 	H 	0.2608	0.792	0.8295	0.077
Mof_H 	H 	0.2233	0.7548	0.8435	0.08
Mof_N 	N 	0.67976	0.92241	0.7668	-0.214
Mof_N 	N 	0.83713	0.07467	0.2209	-0.21
Mof_C 	C 	0.6657	0.96293	0.7248	0.118
Mof_H 	H 	0.638	0.9734	0.7445	-0.029
Mof_C 	C 	0.68967	0.99028	0.6537	-0.224
Mof_H 	H 	0.6779	0.0181	0.6265	0.097
Mof_C 	C 	0.73052	0.97661	0.6233	0.161
Mof_C 	C 	0.74588	0.93502	0.6678	-0.219
Mof_H 	H 	0.7738	0.9243	0.6505	0.095
Mof_C 	C 	0.71982	0.90959	0.7379	0.12
Mof_H 	H 	0.731	0.8818	0.7667	-0.031
Mof_C 	C 	0.8475	0.03061	0.2499	0.114
Mof_H 	H 	0.8737	0.0181	0.2244	-0.027
Mof_C 	C 	0.82173	0.00267	0.3154	-0.217
Mof_H 	H 	0.8308	0.9724	0.3336	0.093
Mof_C 	C 	0.78245	0.01974	0.354	0.154
Mof_C 	C 	0.77106	0.06476	0.3217	-0.216
Mof_H 	H 	0.7446	0.0777	0.3443	0.095
Mof_C 	C 	0.79857	0.09045	0.2564	0.113
Mof_H 	H 	0.7899	0.1206	0.2357	-0.026
Mof_C 	C 	0.75853	0.00524	0.5467	-0.177
Mof_H 	H 	0.7509	0.0383	0.5543	0.075
Mof_H 	H 	0.7889	0.0017	0.5676	0.076
Mof_C 	C 	0.75356	0.99113	0.4283	-0.18
Mof_H 	H 	0.7608	0.958	0.4205	0.077
Mof_H 	H 	0.7233	0.9952	0.4065	0.08
Mof_N 	N 	0.67976	0.42241	0.2668	-0.214
Mof_N 	N 	0.83713	0.57467	0.7209	-0.21
Mof_C 	C 	0.6657	0.46293	0.2248	0.118
Mof_H 	H 	0.638	0.4734	0.2445	-0.029
Mof_C 	C 	0.68967	0.49028	0.1537	-0.223
Mof_H 	H 	0.6779	0.5181	0.1265	0.097
Mof_C 	C 	0.73052	0.47661	0.1233	0.161
Mof_C 	C 	0.74588	0.43502	0.1678	-0.219
Mof_H 	H 	0.7738	0.4243	0.1505	0.095
Mof_C 	C 	0.71982	0.40959	0.2379	0.12
Mof_H 	H 	0.731	0.3818	0.2667	-0.031
Mof_C 	C 	0.8475	0.53061	0.7499	0.114
Mof_H 	H 	0.8737	0.5181	0.7244	-0.027
Mof_C 	C 	0.82173	0.50267	0.8154	-0.217
Mof_H 	H 	0.8308	0.4724	0.8336	0.094
Mof_C 	C 	0.78245	0.51974	0.854	0.153
Mof_C 	C 	0.77106	0.56476	0.8217	-0.216
Mof_H 	H 	0.7446	0.5777	0.8443	0.095
Mof_C 	C 	0.79857	0.59045	0.7564	0.113
Mof_H 	H 	0.7899	0.6206	0.7357	-0.026
Mof_C 	C 	0.75853	0.50524	0.0467	-0.178
Mof_H 	H 	0.7509	0.5383	0.0543	0.075
Mof_H 	H 	0.7889	0.5017	0.0676	0.076
Mof_C 	C 	0.75356	0.49113	0.9283	-0.179
Mof_H 	H 	0.7608	0.458	0.9205	0.077
Mof_H 	H 	0.7233	0.4952	0.9065	0.08
Mof_N 	N 	0.17976	0.92241	0.2668	-0.214
Mof_N 	N 	0.33713	0.07467	0.7209	-0.21
Mof_C 	C 	0.1657	0.96293	0.2248	0.118
Mof_H 	H 	0.138	0.9734	0.2445	-0.029
Mof_C 	C 	0.18967	0.99028	0.1537	-0.223
Mof_H 	H 	0.1779	0.0181	0.1265	0.097
Mof_C 	C 	0.23052	0.97661	0.1233	0.162
Mof_C 	C 	0.24588	0.93502	0.1678	-0.219
Mof_H 	H 	0.2738	0.9243	0.1505	0.095
Mof_C 	C 	0.21982	0.90959	0.2379	0.12
Mof_H 	H 	0.231	0.8818	0.2667	-0.031
Mof_C 	C 	0.3475	0.03061	0.7499	0.114
Mof_H 	H 	0.3737	0.0181	0.7244	-0.027
Mof_C 	C 	0.32173	0.00267	0.8154	-0.217
Mof_H 	H 	0.3308	0.9724	0.8336	0.094
Mof_C 	C 	0.28245	0.01974	0.854	0.153
Mof_C 	C 	0.27106	0.06476	0.8217	-0.216
Mof_H 	H 	0.2446	0.0777	0.8443	0.095
Mof_C 	C 	0.29857	0.09045	0.7564	0.113
Mof_H 	H 	0.2899	0.1206	0.7357	-0.026
Mof_C 	C 	0.25853	0.00524	0.0467	-0.178
Mof_H 	H 	0.2509	0.0383	0.0543	0.075
Mof_H 	H 	0.2889	0.0017	0.0676	0.076
Mof_C 	C 	0.25356	0.99113	0.9283	-0.179
Mof_H 	H 	0.2608	0.958	0.9205	0.077
Mof_H 	H 	0.2233	0.9952	0.9065	0.08
Mof_N 	N 	0.17976	0.42241	0.7668	-0.214
Mof_N 	N 	0.33713	0.57467	0.2209	-0.21
Mof_C 	C 	0.1657	0.46293	0.7248	0.118
Mof_H 	H 	0.138	0.4734	0.7445	-0.029
Mof_C 	C 	0.18967	0.49028	0.6537	-0.223
Mof_H 	H 	0.1779	0.5181	0.6265	0.097
Mof_C 	C 	0.23052	0.47661	0.6233	0.161
Mof_C 	C 	0.24588	0.43502	0.6678	-0.219
Mof_H 	H 	0.2738	0.4243	0.6505	0.095
Mof_C 	C 	0.21982	0.40959	0.7379	0.12
Mof_H 	H 	0.231	0.3818	0.7667	-0.031
Mof_C 	C 	0.3475	0.53061	0.2499	0.114
Mof_H 	H 	0.3737	0.5181	0.2244	-0.027
Mof_C 	C 	0.32173	0.50267	0.3154	-0.217
Mof_H 	H 	0.3308	0.4724	0.3336	0.094
Mof_C 	C 	0.28245	0.51974	0.354	0.153
Mof_C 	C 	0.27106	0.56476	0.3217	-0.216
Mof_H 	H 	0.2446	0.5777	0.3443	0.095
Mof_C 	C 	0.29857	0.59045	0.2564	0.113
Mof_H 	H 	0.2899	0.6206	0.2357	-0.026
Mof_C 	C 	0.25853	0.50524	0.5467	-0.178
Mof_H 	H 	0.2509	0.5383	0.5543	0.075
Mof_H 	H 	0.2889	0.5017	0.5676	0.076
Mof_C 	C 	0.25356	0.49113	0.4283	-0.179
Mof_H 	H 	0.2608	0.458	0.4205	0.077
Mof_H 	H 	0.2233	0.4952	0.4065	0.08
Mof_Ag	Ag	0.38446	0.125	0.625	0.601
Mof_Ag	Ag	0.88446	0.125	0.125	0.601
Mof_Ag	Ag	0.88446	0.625	0.625	0.601
Mof_Ag	Ag	0.38446	0.625	0.125	0.601
Mof_Ag	Ag	0.63446	0.375	0.375	0.601
Mof_Ag	Ag	0.13446	0.375	0.875	0.601
Mof_Ag	Ag	0.63446	0.875	0.875	0.601
Mof_Ag	Ag	0.13446	0.875	0.375	0.601
Mof_N 	N 	0.32024	0.67241	0.5168	-0.214
Mof_N 	N 	0.16287	0.82467	0.9709	-0.21
Mof_C 	C 	0.3343	0.71293	0.4748	0.118
Mof_H 	H 	0.362	0.7234	0.4945	-0.029
Mof_C 	C 	0.31033	0.74028	0.4037	-0.223
Mof_H 	H 	0.3221	0.7681	0.3765	0.097
Mof_C 	C 	0.26948	0.72661	0.3733	0.161
Mof_C 	C 	0.25412	0.68502	0.4178	-0.219
Mof_H 	H 	0.2262	0.6743	0.4005	0.095
Mof_C 	C 	0.28018	0.65959	0.4879	0.12
Mof_H 	H 	0.269	0.6318	0.5167	-0.031
Mof_C 	C 	0.1525	0.78061	0.9999	0.114
Mof_H 	H 	0.1263	0.7681	0.9744	-0.027
Mof_C 	C 	0.17827	0.75267	0.0654	-0.216
Mof_H 	H 	0.1692	0.7224	0.0836	0.094
Mof_C 	C 	0.21755	0.76974	0.104	0.154
Mof_C 	C 	0.22894	0.81476	0.0717	-0.216
Mof_H 	H 	0.2554	0.8277	0.0943	0.095
Mof_C 	C 	0.20143	0.84045	0.0064	0.113
Mof_H 	H 	0.2101	0.8706	0.9857	-0.026
Mof_C 	C 	0.24147	0.75524	0.2967	-0.178
Mof_H 	H 	0.2491	0.7883	0.3043	0.075
Mof_H 	H 	0.2111	0.7517	0.3176	0.076
Mof_C 	C 	0.24644	0.74113	0.1783	-0.179
Mof_H 	H 	0.2392	0.708	0.1705	0.077
Mof_H 	H 	0.2767	0.7452	0.1565	0.08
Mof_N 	N 	0.32024	0.17241	0.0168	-0.214
Mof_N 	N 	0.16287	0.32467	0.4709	-0.21
Mof_C 	C 	0.3343	0.21293	0.9748	0.118
Mof_H 	H 	0.362	0.2234	0.9945	-0.029
Mof_C 	C 	0.31033	0.24028	0.9037	-0.223
Mof_H 	H 	0.3221	0.2681	0.8765	0.097
Mof_C 	C 	0.26948	0.22661	0.8733	0.161
Mof_C 	C 	0.25412	0.18502	0.9178	-0.219
Mof_H 	H 	0.2262	0.1743	0.9005	0.095
Mof_C 	C 	0.28018	0.15959	0.9879	0.12
Mof_H 	H 	0.269	0.1318	0.0167	-0.031
Mof_C 	C 	0.1525	0.28061	0.4999	0.114
Mof_H 	H 	0.1263	0.2681	0.4744	-0.027
Mof_C 	C 	0.17827	0.25267	0.5654	-0.217
Mof_H 	H 	0.1692	0.2224	0.5836	0.094
Mof_C 	C 	0.21755	0.26974	0.604	0.153
Mof_C 	C 	0.22894	0.31476	0.5717	-0.216
Mof_H 	H 	0.2554	0.3277	0.5943	0.095
Mof_C 	C 	0.20143	0.34045	0.5064	0.113
Mof_H 	H 	0.2101	0.3706	0.4857	-0.026
Mof_C 	C 	0.24147	0.25524	0.7967	-0.178
Mof_H 	H 	0.2491	0.2883	0.8043	0.075
Mof_H 	H 	0.2111	0.2517	0.8176	0.076
Mof_C 	C 	0.24644	0.24113	0.6783	-0.179
Mof_H 	H 	0.2392	0.208	0.6705	0.077
Mof_H 	H 	0.2767	0.2452	0.6565	0.08
Mof_N 	N 	0.82024	0.67241	0.0168	-0.214
Mof_N 	N 	0.66287	0.82467	0.4709	-0.21
Mof_C 	C 	0.8343	0.71293	0.9748	0.118
Mof_H 	H 	0.862	0.7234	0.9945	-0.029
Mof_C 	C 	0.81033	0.74028	0.9037	-0.224
Mof_H 	H 	0.8221	0.7681	0.8765	0.097
Mof_C 	C 	0.76948	0.72661	0.8733	0.161
Mof_C 	C 	0.75412	0.68502	0.9178	-0.219
Mof_H 	H 	0.7262	0.6743	0.9005	0.095
Mof_C 	C 	0.78018	0.65959	0.9879	0.12
Mof_H 	H 	0.769	0.6318	0.0167	-0.031
Mof_C 	C 	0.6525	0.78061	0.4999	0.114
Mof_H 	H 	0.6263	0.7681	0.4744	-0.027
Mof_C 	C 	0.67827	0.75267	0.5654	-0.217
Mof_H 	H 	0.6692	0.7224	0.5836	0.094
Mof_C 	C 	0.71755	0.76974	0.604	0.153
Mof_C 	C 	0.72894	0.81476	0.5717	-0.216
Mof_H 	H 	0.7554	0.8277	0.5943	0.095
Mof_C 	C 	0.70143	0.84045	0.5064	0.113
Mof_H 	H 	0.7101	0.8706	0.4857	-0.026
Mof_C 	C 	0.74147	0.75524	0.7967	-0.178
Mof_H 	H 	0.7491	0.7883	0.8043	0.075
Mof_H 	H 	0.7111	0.7517	0.8176	0.076
Mof_C 	C 	0.74644	0.74113	0.6783	-0.179
Mof_H 	H 	0.7392	0.708	0.6705	0.077
Mof_H 	H 	0.7767	0.7452	0.6565	0.08
Mof_N 	N 	0.82024	0.17241	0.5168	-0.214
Mof_N 	N 	0.66287	0.32467	0.9709	-0.21
Mof_C 	C 	0.8343	0.21293	0.4748	0.118
Mof_H 	H 	0.862	0.2234	0.4945	-0.029
Mof_C 	C 	0.81033	0.24028	0.4037	-0.223
Mof_H 	H 	0.8221	0.2681	0.3765	0.097
Mof_C 	C 	0.76948	0.22661	0.3733	0.161
Mof_C 	C 	0.75412	0.18502	0.4178	-0.219
Mof_H 	H 	0.7262	0.1743	0.4005	0.095
Mof_C 	C 	0.78018	0.15959	0.4879	0.12
Mof_H 	H 	0.769	0.1318	0.5167	-0.031
Mof_C 	C 	0.6525	0.28061	0.9999	0.114
Mof_H 	H 	0.6263	0.2681	0.9744	-0.027
Mof_C 	C 	0.67827	0.25267	0.0654	-0.217
Mof_H 	H 	0.6692	0.2224	0.0836	0.094
Mof_C 	C 	0.71755	0.26974	0.104	0.153
Mof_C 	C 	0.72894	0.31476	0.0717	-0.216
Mof_H 	H 	0.7554	0.3277	0.0943	0.095
Mof_C 	C 	0.70143	0.34045	0.0064	0.113
Mof_H 	H 	0.7101	0.3706	0.9857	-0.026
Mof_C 	C 	0.74147	0.25524	0.2967	-0.178
Mof_H 	H 	0.7491	0.2883	0.3043	0.075
Mof_H 	H 	0.7111	0.2517	0.3176	0.076
Mof_C 	C 	0.74644	0.24113	0.1783	-0.179
Mof_H 	H 	0.7392	0.208	0.1705	0.077
Mof_H 	H 	0.7767	0.2452	0.1565	0.08
Mof_N 	N 	0.32024	0.07759	0.2332	-0.214
Mof_N 	N 	0.16287	0.92533	0.7791	-0.21
Mof_C 	C 	0.3343	0.03707	0.2752	0.118
Mof_H 	H 	0.362	0.0266	0.2555	-0.029
Mof_C 	C 	0.31033	0.00972	0.3463	-0.224
Mof_H 	H 	0.3221	0.9819	0.3735	0.097
Mof_C 	C 	0.26948	0.02339	0.3767	0.161
Mof_C 	C 	0.25412	0.06498	0.3322	-0.219
Mof_H 	H 	0.2262	0.0757	0.3495	0.095
Mof_C 	C 	0.28018	0.09041	0.2621	0.12
Mof_H 	H 	0.269	0.1182	0.2333	-0.031
Mof_C 	C 	0.1525	0.96939	0.7501	0.114
Mof_H 	H 	0.1263	0.9819	0.7756	-0.027
Mof_C 	C 	0.17827	0.99733	0.6846	-0.217
Mof_H 	H 	0.1692	0.0276	0.6664	0.093
Mof_C 	C 	0.21755	0.98026	0.646	0.154
Mof_C 	C 	0.22894	0.93524	0.6783	-0.216
Mof_H 	H 	0.2554	0.9223	0.6557	0.095
Mof_C 	C 	0.20143	0.90955	0.7436	0.113
Mof_H 	H 	0.2101	0.8794	0.7643	-0.026
Mof_C 	C 	0.24147	0.99476	0.4533	-0.177
Mof_H 	H 	0.2491	0.9617	0.4457	0.075
Mof_H 	H 	0.2111	0.9983	0.4324	0.076
Mof_C 	C 	0.24644	0.00887	0.5717	-0.18
Mof_H 	H 	0.2392	0.042	0.5795	0.077
Mof_H 	H 	0.2767	0.0048	0.5935	0.08
Mof_N 	N 	0.32024	0.57759	0.7332	-0.214
Mof_N 	N 	0.16287	0.42533	0.2791	-0.21
Mof_C 	C 	0.3343	0.53707	0.7752	0.118
Mof_H 	H 	0.362	0.5266	0.7555	-0.029
Mof_C 	C 	0.31033	0.50972	0.8463	-0.223
Mof_H 	H 	0.3221	0.4819	0.8735	0.097
Mof_C 	C 	0.26948	0.52339	0.8767	0.161
Mof_C 	C 	0.25412	0.56498	0.8322	-0.219
Mof_H 	H 	0.2262	0.5757	0.8495	0.095
Mof_C 	C 	0.28018	0.59041	0.7621	0.12
Mof_H 	H 	0.269	0.6182	0.7333	-0.031
Mof_C 	C 	0.1525	0.46939	0.2501	0.114
Mof_H 	H 	0.1263	0.4819	0.2756	-0.027
Mof_C 	C 	0.17827	0.49733	0.1846	-0.217
Mof_H 	H 	0.1692	0.5276	0.1664	0.094
Mof_C 	C 	0.21755	0.48026	0.146	0.153
Mof_C 	C 	0.22894	0.43524	0.1783	-0.216
Mof_H 	H 	0.2554	0.4223	0.1557	0.095
Mof_C 	C 	0.20143	0.40955	0.2436	0.113
Mof_H 	H 	0.2101	0.3794	0.2643	-0.026
Mof_C 	C 	0.24147	0.49476	0.9533	-0.178
Mof_H 	H 	0.2491	0.4617	0.9457	0.075
Mof_H 	H 	0.2111	0.4983	0.9324	0.076
Mof_C 	C 	0.24644	0.50887	0.0717	-0.179
Mof_H 	H 	0.2392	0.542	0.0795	0.077
Mof_H 	H 	0.2767	0.5048	0.0935	0.08
Mof_N 	N 	0.82024	0.07759	0.7332	-0.214
Mof_N 	N 	0.66287	0.92533	0.2791	-0.21
Mof_C 	C 	0.8343	0.03707	0.7752	0.118
Mof_H 	H 	0.862	0.0266	0.7555	-0.029
Mof_C 	C 	0.81033	0.00972	0.8463	-0.223
Mof_H 	H 	0.8221	0.9819	0.8735	0.097
Mof_C 	C 	0.76948	0.02339	0.8767	0.162
Mof_C 	C 	0.75412	0.06498	0.8322	-0.219
Mof_H 	H 	0.7262	0.0757	0.8495	0.095
Mof_C 	C 	0.78018	0.09041	0.7621	0.12
Mof_H 	H 	0.769	0.1182	0.7333	-0.031
Mof_C 	C 	0.6525	0.96939	0.2501	0.114
Mof_H 	H 	0.6263	0.9819	0.2756	-0.027
Mof_C 	C 	0.67827	0.99733	0.1846	-0.217
Mof_H 	H 	0.6692	0.0276	0.1664	0.094
Mof_C 	C 	0.71755	0.98026	0.146	0.153
Mof_C 	C 	0.72894	0.93524	0.1783	-0.216
Mof_H 	H 	0.7554	0.9223	0.1557	0.095
Mof_C 	C 	0.70143	0.90955	0.2436	0.113
Mof_H 	H 	0.7101	0.8794	0.2643	-0.026
Mof_C 	C 	0.74147	0.99476	0.9533	-0.178
Mof_H 	H 	0.7491	0.9617	0.9457	0.075
Mof_H 	H 	0.7111	0.9983	0.9324	0.076
Mof_C 	C 	0.74644	0.00887	0.0717	-0.179
Mof_H 	H 	0.7392	0.042	0.0795	0.077
Mof_H 	H 	0.7767	0.0048	0.0935	0.08
Mof_N 	N 	0.82024	0.57759	0.2332	-0.214
Mof_N 	N 	0.66287	0.42533	0.7791	-0.21
Mof_C 	C 	0.8343	0.53707	0.2752	0.118
Mof_H 	H 	0.862	0.5266	0.2555	-0.029
Mof_C 	C 	0.81033	0.50972	0.3463	-0.223
Mof_H 	H 	0.8221	0.4819	0.3735	0.097
Mof_C 	C 	0.76948	0.52339	0.3767	0.161
Mof_C 	C 	0.75412	0.56498	0.3322	-0.219
Mof_H 	H 	0.7262	0.5757	0.3495	0.095
Mof_C 	C 	0.78018	0.59041	0.2621	0.12
Mof_H 	H 	0.769	0.6182	0.2333	-0.031
Mof_C 	C 	0.6525	0.46939	0.7501	0.114
Mof_H 	H 	0.6263	0.4819	0.7756	-0.027
Mof_C 	C 	0.67827	0.49733	0.6846	-0.217
Mof_H 	H 	0.6692	0.5276	0.6664	0.094
Mof_C 	C 	0.71755	0.48026	0.646	0.153
Mof_C 	C 	0.72894	0.43524	0.6783	-0.216
Mof_H 	H 	0.7554	0.4223	0.6557	0.095
Mof_C 	C 	0.70143	0.40955	0.7436	0.113
Mof_H 	H 	0.7101	0.3794	0.7643	-0.026
Mof_C 	C 	0.74147	0.49476	0.4533	-0.178
Mof_H 	H 	0.7491	0.4617	0.4457	0.075
Mof_H 	H 	0.7111	0.4983	0.4324	0.076
Mof_C 	C 	0.74644	0.50887	0.5717	-0.179
Mof_H 	H 	0.7392	0.542	0.5795	0.077
Mof_H 	H 	0.7767	0.5048	0.5935	0.08
Mof_N 	N 	0.57024	0.92241	0.4832	-0.214
Mof_N 	N 	0.41287	0.07467	0.0291	-0.21
Mof_C 	C 	0.5843	0.96293	0.5252	0.118
Mof_H 	H 	0.612	0.9734	0.5055	-0.029
Mof_C 	C 	0.56033	0.99028	0.5963	-0.224
Mof_H 	H 	0.5721	0.0181	0.6235	0.097
Mof_C 	C 	0.51948	0.97661	0.6267	0.161
Mof_C 	C 	0.50412	0.93502	0.5822	-0.219
Mof_H 	H 	0.4762	0.9243	0.5995	0.095
Mof_C 	C 	0.53018	0.90959	0.5121	0.12
Mof_H 	H 	0.519	0.8818	0.4833	-0.031
Mof_C 	C 	0.4025	0.03061	0.0001	0.114
Mof_H 	H 	0.3763	0.0181	0.0256	-0.027
Mof_C 	C 	0.42827	0.00267	0.9346	-0.217
Mof_H 	H 	0.4192	0.9724	0.9164	0.094
Mof_C 	C 	0.46755	0.01974	0.896	0.154
Mof_C 	C 	0.47894	0.06476	0.9283	-0.216
Mof_H 	H 	0.5054	0.0777	0.9057	0.095
Mof_C 	C 	0.45143	0.09045	0.9936	0.113
Mof_H 	H 	0.4601	0.1206	0.0143	-0.026
Mof_C 	C 	0.49147	0.00524	0.7033	-0.178
Mof_H 	H 	0.4991	0.0383	0.6957	0.075
Mof_H 	H 	0.4611	0.0017	0.6824	0.076
Mof_C 	C 	0.49644	0.99113	0.8217	-0.18
Mof_H 	H 	0.4892	0.958	0.8295	0.077
Mof_H 	H 	0.5267	0.9952	0.8435	0.08
Mof_N 	N 	0.57024	0.42241	0.9832	-0.214
Mof_N 	N 	0.41287	0.57467	0.5291	-0.21
Mof_C 	C 	0.5843	0.46293	0.0252	0.118
Mof_H 	H 	0.612	0.4734	0.0055	-0.029
Mof_C 	C 	0.56033	0.49028	0.0963	-0.223
Mof_H 	H 	0.5721	0.5181	0.1235	0.097
Mof_C 	C 	0.51948	0.47661	0.1267	0.161
Mof_C 	C 	0.50412	0.43502	0.0822	-0.219
Mof_H 	H 	0.4762	0.4243	0.0995	0.095
Mof_C 	C 	0.53018	0.40959	0.0121	0.12
Mof_H 	H 	0.519	0.3818	0.9833	-0.031
Mof_C 	C 	0.4025	0.53061	0.5001	0.114
Mof_H 	H 	0.3763	0.5181	0.5256	-0.027
Mof_C 	C 	0.42827	0.50267	0.4346	-0.217
Mof_H 	H 	0.4192	0.4724	0.4164	0.094
Mof_C 	C 	0.46755	0.51974	0.396	0.153
Mof_C 	C 	0.47894	0.56476	0.4283	-0.216
Mof_H 	H 	0.5054	0.5777	0.4057	0.095
Mof_C 	C 	0.45143	0.59045	0.4936	0.113
Mof_H 	H 	0.4601	0.6206	0.5143	-0.026
Mof_C 	C 	0.49147	0.50524	0.2033	-0.178
Mof_H 	H 	0.4991	0.5383	0.1957	0.075
Mof_H 	H 	0.4611	0.5017	0.1824	0.076
Mof_C 	C 	0.49644	0.49113	0.3217	-0.179
Mof_H 	H 	0.4892	0.458	0.3295	0.077
Mof_H 	H 	0.5267	0.4952	0.3435	0.08
Mof_N 	N 	0.07024	0.92241	0.9832	-0.214
Mof_N 	N 	0.91287	0.07467	0.5291	-0.21
Mof_C 	C 	0.0843	0.96293	0.0252	0.117
Mof_H 	H 	0.112	0.9734	0.0055	-0.029
Mof_C 	C 	0.06033	0.99028	0.0963	-0.222
Mof_H 	H 	0.0721	0.0181	0.1235	0.096
Mof_C 	C 	0.01948	0.97661	0.1267	0.16
Mof_C 	C 	0.00412	0.93502	0.0822	-0.218
Mof_H 	H 	0.9762	0.9243	0.0995	0.095
Mof_C 	C 	0.03018	0.90959	0.0121	0.12
Mof_H 	H 	0.019	0.8818	0.9833	-0.031
Mof_C 	C 	0.9025	0.03061	0.5001	0.114
Mof_H 	H 	0.8763	0.0181	0.5256	-0.027
Mof_C 	C 	0.92827	0.00267	0.4346	-0.217
Mof_H 	H 	0.9192	0.9724	0.4164	0.093
Mof_C 	C 	0.96755	0.01974	0.396	0.154
Mof_C 	C 	0.97894	0.06476	0.4283	-0.216
Mof_H 	H 	0.0054	0.0777	0.4057	0.095
Mof_C 	C 	0.95143	0.09045	0.4936	0.113
Mof_H 	H 	0.9601	0.1206	0.5143	-0.026
Mof_C 	C 	0.99147	0.00524	0.2033	-0.176
Mof_H 	H 	0.9991	0.0383	0.1957	0.074
Mof_H 	H 	0.9611	0.0017	0.1824	0.076
Mof_C 	C 	0.99644	0.99113	0.3217	-0.182
Mof_H 	H 	0.9892	0.958	0.3295	0.077
Mof_H 	H 	0.0267	0.9952	0.3435	0.081
Mof_N 	N 	0.07024	0.42241	0.4832	-0.214
Mof_N 	N 	0.91287	0.57467	0.0291	-0.21
Mof_C 	C 	0.0843	0.46293	0.5252	0.118
Mof_H 	H 	0.112	0.4734	0.5055	-0.029
Mof_C 	C 	0.06033	0.49028	0.5963	-0.224
Mof_H 	H 	0.0721	0.5181	0.6235	0.097
Mof_C 	C 	0.01948	0.47661	0.6267	0.161
Mof_C 	C 	0.00412	0.43502	0.5822	-0.219
Mof_H 	H 	0.9762	0.4243	0.5995	0.095
Mof_C 	C 	0.03018	0.40959	0.5121	0.12
Mof_H 	H 	0.019	0.3818	0.4833	-0.031
Mof_C 	C 	0.9025	0.53061	0.0001	0.114
Mof_H 	H 	0.8763	0.5181	0.0256	-0.027
Mof_C 	C 	0.92827	0.50267	0.9346	-0.216
Mof_H 	H 	0.9192	0.4724	0.9164	0.093
Mof_C 	C 	0.96755	0.51974	0.896	0.153
Mof_C 	C 	0.97894	0.56476	0.9283	-0.216
Mof_H 	H 	0.0054	0.5777	0.9057	0.095
Mof_C 	C 	0.95143	0.59045	0.9936	0.113
Mof_H 	H 	0.9601	0.6206	0.0143	-0.026
Mof_C 	C 	0.99147	0.50524	0.7033	-0.178
Mof_H 	H 	0.9991	0.5383	0.6957	0.075
Mof_H 	H 	0.9611	0.5017	0.6824	0.076
Mof_C 	C 	0.99644	0.49113	0.8217	-0.179
Mof_H 	H 	0.9892	0.458	0.8295	0.077
Mof_H 	H 	0.0267	0.4952	0.8435	0.08
Mof_N 	N 	0.57024	0.32759	0.7668	-0.214
Mof_N 	N 	0.41287	0.17533	0.2209	-0.21
Mof_C 	C 	0.5843	0.28707	0.7248	0.118
Mof_H 	H 	0.612	0.2766	0.7445	-0.029
Mof_C 	C 	0.56033	0.25972	0.6537	-0.223
Mof_H 	H 	0.5721	0.2319	0.6265	0.097
Mof_C 	C 	0.51948	0.27339	0.6233	0.161
Mof_C 	C 	0.50412	0.31498	0.6678	-0.219
Mof_H 	H 	0.4762	0.3257	0.6505	0.095
Mof_C 	C 	0.53018	0.34041	0.7379	0.12
Mof_H 	H 	0.519	0.3682	0.7667	-0.031
Mof_C 	C 	0.4025	0.21939	0.2499	0.114
Mof_H 	H 	0.3763	0.2319	0.2244	-0.027
Mof_C 	C 	0.42827	0.24733	0.3154	-0.217
Mof_H 	H 	0.4192	0.2776	0.3336	0.094
Mof_C 	C 	0.46755	0.23026	0.354	0.153
Mof_C 	C 	0.47894	0.18524	0.3217	-0.216
Mof_H 	H 	0.5054	0.1723	0.3443	0.095
Mof_C 	C 	0.45143	0.15955	0.2564	0.113
Mof_H 	H 	0.4601	0.1294	0.2357	-0.026
Mof_C 	C 	0.49147	0.24476	0.5467	-0.178
Mof_H 	H 	0.4991	0.2117	0.5543	0.075
Mof_H 	H 	0.4611	0.2483	0.5676	0.076
Mof_C 	C 	0.49644	0.25887	0.4283	-0.179
Mof_H 	H 	0.4892	0.292	0.4205	0.077
Mof_H 	H 	0.5267	0.2548	0.4065	0.08
Mof_N 	N 	0.57024	0.82759	0.2668	-0.214
Mof_N 	N 	0.41287	0.67533	0.7209	-0.21
Mof_C 	C 	0.5843	0.78707	0.2248	0.118
Mof_H 	H 	0.612	0.7766	0.2445	-0.029
Mof_C 	C 	0.56033	0.75972	0.1537	-0.223
Mof_H 	H 	0.5721	0.7319	0.1265	0.097
Mof_C 	C 	0.51948	0.77339	0.1233	0.161
Mof_C 	C 	0.50412	0.81498	0.1678	-0.219
Mof_H 	H 	0.4762	0.8257	0.1505	0.095
Mof_C 	C 	0.53018	0.84041	0.2379	0.12
Mof_H 	H 	0.519	0.8682	0.2667	-0.031
Mof_C 	C 	0.4025	0.71939	0.7499	0.114
Mof_H 	H 	0.3763	0.7319	0.7244	-0.027
Mof_C 	C 	0.42827	0.74733	0.8154	-0.217
Mof_H 	H 	0.4192	0.7776	0.8336	0.094
Mof_C 	C 	0.46755	0.73026	0.854	0.153
Mof_C 	C 	0.47894	0.68524	0.8217	-0.216
Mof_H 	H 	0.5054	0.6723	0.8443	0.095
Mof_C 	C 	0.45143	0.65955	0.7564	0.113
Mof_H 	H 	0.4601	0.6294	0.7357	-0.026
Mof_C 	C 	0.49147	0.74476	0.0467	-0.178
Mof_H 	H 	0.4991	0.7117	0.0543	0.075
Mof_H 	H 	0.4611	0.7483	0.0676	0.076
Mof_C 	C 	0.49644	0.75887	0.9283	-0.18
Mof_H 	H 	0.4892	0.792	0.9205	0.077
Mof_H 	H 	0.5267	0.7548	0.9065	0.08
Mof_N 	N 	0.07024	0.32759	0.2668	-0.214
Mof_N 	N 	0.91287	0.17533	0.7209	-0.21
Mof_C 	C 	0.0843	0.28707	0.2248	0.118
Mof_H 	H 	0.112	0.2766	0.2445	-0.029
Mof_C 	C 	0.06033	0.25972	0.1537	-0.224
Mof_H 	H 	0.0721	0.2319	0.1265	0.097
Mof_C 	C 	0.01948	0.27339	0.1233	0.162
Mof_C 	C 	0.00412	0.31498	0.1678	-0.219
Mof_H 	H 	0.9762	0.3257	0.1505	0.095
Mof_C 	C 	0.03018	0.34041	0.2379	0.12
Mof_H 	H 	0.019	0.3682	0.2667	-0.031
Mof_C 	C 	0.9025	0.21939	0.7499	0.114
Mof_H 	H 	0.8763	0.2319	0.7244	-0.027
Mof_C 	C 	0.92827	0.24733	0.8154	-0.216
Mof_H 	H 	0.9192	0.2776	0.8336	0.093
Mof_C 	C 	0.96755	0.23026	0.854	0.152
Mof_C 	C 	0.97894	0.18524	0.8217	-0.215
Mof_H 	H 	0.0054	0.1723	0.8443	0.095
Mof_C 	C 	0.95143	0.15955	0.7564	0.112
Mof_H 	H 	0.9601	0.1294	0.7357	-0.025
Mof_C 	C 	0.99147	0.24476	0.0467	-0.179
Mof_H 	H 	0.9991	0.2117	0.0543	0.075
Mof_H 	H 	0.9611	0.2483	0.0676	0.077
Mof_C 	C 	0.99644	0.25887	0.9283	-0.178
Mof_H 	H 	0.9892	0.292	0.9205	0.077
Mof_H 	H 	0.0267	0.2548	0.9065	0.08
Mof_N 	N 	0.07024	0.82759	0.7668	-0.214
Mof_N 	N 	0.91287	0.67533	0.2209	-0.21
Mof_C 	C 	0.0843	0.78707	0.7248	0.118
Mof_H 	H 	0.112	0.7766	0.7445	-0.029
Mof_C 	C 	0.06033	0.75972	0.6537	-0.223
Mof_H 	H 	0.0721	0.7319	0.6265	0.097
Mof_C 	C 	0.01948	0.77339	0.6233	0.161
Mof_C 	C 	0.00412	0.81498	0.6678	-0.219
Mof_H 	H 	0.9762	0.8257	0.6505	0.095
Mof_C 	C 	0.03018	0.84041	0.7379	0.12
Mof_H 	H 	0.019	0.8682	0.7667	-0.031
Mof_C 	C 	0.9025	0.71939	0.2499	0.114
Mof_H 	H 	0.8763	0.7319	0.2244	-0.027
Mof_C 	C 	0.92827	0.74733	0.3154	-0.217
Mof_H 	H 	0.9192	0.7776	0.3336	0.094
Mof_C 	C 	0.96755	0.73026	0.354	0.154
Mof_C 	C 	0.97894	0.68524	0.3217	-0.217
Mof_H 	H 	0.0054	0.6723	0.3443	0.096
Mof_C 	C 	0.95143	0.65955	0.2564	0.113
Mof_H 	H 	0.9601	0.6294	0.2357	-0.026
Mof_C 	C 	0.99147	0.74476	0.5467	-0.177
Mof_H 	H 	0.9991	0.7117	0.5543	0.075
Mof_H 	H 	0.9611	0.7483	0.5676	0.076
Mof_C 	C 	0.99644	0.75887	0.4283	-0.18
Mof_H 	H 	0.9892	0.792	0.4205	0.077
Mof_H 	H 	0.0267	0.7548	0.4065	0.081
Mof_Ag	Ag	0.36554	0.625	0.625	0.601
Mof_Ag	Ag	0.86554	0.625	0.125	0.601
Mof_Ag	Ag	0.36554	0.125	0.125	0.601
Mof_Ag	Ag	0.86554	0.125	0.625	0.601
Mof_Ag	Ag	0.61554	0.875	0.375	0.601
Mof_Ag	Ag	0.11554	0.875	0.875	0.601
Mof_Ag	Ag	0.61554	0.375	0.875	0.601
Mof_Ag	Ag	0.11554	0.375	0.375	0.601
_end
