data_functionalizedCrystal
_audit_creation_method	'EQeq! by Chris Wilmer'
_symmetry_space_group_name_H-M	'P1'
_symmetry_Int_Tables_number	1
_symmetry_cell_setting	triclinic
loop_
_symmetry_equiv_pos_as_xyz
  x,y,z
_cell_length_a	10.9253
_cell_length_b	17.735
_cell_length_c	16.853
_cell_angle_alpha	89.673
_cell_angle_beta	90
_cell_angle_gamma	90
loop_
_atom_site_label
_atom_site_type_symbol
_atom_site_fract_x
_atom_site_fract_y
_atom_site_fract_z
_atom_site_charge
Mof_Gd	Gd	0.96172	0.33264	0.4745	1.73
Mof_Gd	Gd	0.58972	0.83094	0.40753	1.84
Mof_Gd	Gd	0.14157	0.32513	0.26019	1.822
Mof_Gd	Gd	0.85843	0.32513	0.76019	1.806
Mof_Gd	Gd	0.60445	0.82931	0.12494	1.83
Mof_Gd	Gd	0.39555	0.82931	0.62494	1.824
Mof_Gd	Gd	0.41028	0.83094	0.90753	1.681
Mof_Gd	Gd	0.03828	0.33264	0.9745	1.579
Mof_H 	H 	0.1656	0.1383	0.5563	0.04
Mof_H 	H 	0.6159	0.6372	0.816	0.05
Mof_H 	H 	0.0938	0.5129	0.654	0.05
Mof_H 	H 	0.6102	0.0251	0.7139	0.051
Mof_H 	H 	0.3841	0.6372	0.316	0.041
Mof_H 	H 	0.2641	0.0134	0.575	0.038
Mof_H 	H 	0.8793	0.5477	0.4922	0.04
Mof_H 	H 	0.1207	0.5477	0.9922	-0.061
Mof_H 	H 	0.1881	0.6382	0.6422	0.027
Mof_H 	H 	0.5697	0.8739	0.7653	0.201
Mof_H 	H 	0.4303	0.7863	0.2663	0.21
Mof_H 	H 	0.6544	0.0503	0.3921	0.047
Mof_H 	H 	0.2256	0.1689	0.9103	-0.002
Mof_H 	H 	0.3456	0.0503	0.8921	0.031
Mof_H 	H 	0.5697	0.7863	0.7663	0.207
Mof_H 	H 	0.8119	0.6382	0.1422	0.042
Mof_H 	H 	0.6928	0.152	0.7227	0.018
Mof_H 	H 	0.2828	0.5132	0.298	0.031
Mof_H 	H 	0.9062	0.5129	0.154	0.066
Mof_H 	H 	0.4303	0.8739	0.2653	0.206
Mof_H 	H 	0.2251	0.6676	0.9737	-0.092
Mof_H 	H 	0.3898	0.0251	0.2139	0.052
Mof_H 	H 	0.7172	0.5132	0.798	0.026
Mof_H 	H 	0.7749	0.6676	0.4737	0.01
Mof_H 	H 	0.7359	0.0134	0.075	0.02
Mof_H 	H 	0.7744	0.1689	0.4103	0.02
Mof_H 	H 	0.3072	0.152	0.2227	0.022
Mof_H 	H 	0.8344	0.1383	0.0563	0.02
Mof_C 	C 	0.3176	0.0116	0.106	-0.104
Mof_C 	C 	0.7397	0.0341	0.2855	-0.112
Mof_C 	C 	0.2603	0.0341	0.7855	-0.111
Mof_C 	C 	0.8305	0.2125	0.5975	0.469
Mof_C 	C 	0.6979	0.7089	0.2702	0.488
Mof_C 	C 	0.6029	0.9469	0.9542	0.327
Mof_C 	C 	0.1888	0.6101	0.689	0.023
Mof_C 	C 	0.8109	0.2141	0.913	0.497
Mof_C 	C 	0.211	0.1135	0.5178	0.008
Mof_C 	C 	0.3072	0.9564	0.7636	0.458
Mof_C 	C 	0.8555	0.5098	0.2696	-0.119
Mof_C 	C 	0.6705	0.0183	0.9642	-0.202
Mof_C 	C 	0.637	0.9381	0.5782	0.41
Mof_C 	C 	0.1445	0.5098	0.7696	-0.118
Mof_C 	C 	0.6644	0.6141	0.8544	-0.034
Mof_C 	C 	0.3434	0.0471	0.1738	-0.015
Mof_C 	C 	0.7793	0.1388	0.3654	0.011
Mof_C 	C 	0.7716	0.1386	0.6144	-0.153
Mof_C 	C 	0.2232	0.5287	0.0902	-0.175
Mof_C 	C 	0.133	0.5377	0.6954	-0.017
Mof_C 	C 	0.2951	0.1202	0.1797	0.027
Mof_C 	C 	0.7768	0.5287	0.5902	-0.143
Mof_C 	C 	0.363	0.9381	0.0782	0.408
Mof_C 	C 	0.7678	0.1402	0.9436	-0.255
Mof_C 	C 	0.6824	0.0116	0.606	-0.104
Mof_C 	C 	0.3021	0.7089	0.7702	0.481
Mof_C 	C 	0.2687	0.0413	0.5283	-0.002
Mof_C 	C 	0.1508	0.1544	0.8036	-0.13
Mof_C 	C 	0.8199	0.4515	0.6171	0.498
Mof_C 	C 	0.6486	0.7211	0.9578	0.313
Mof_C 	C 	0.8481	0.4504	0.9247	0.428
Mof_C 	C 	0.0647	0.2201	0.793	0.412
Mof_C 	C 	0.3253	0.6495	0.0725	-0.176
Mof_C 	C 	0.2322	0.1402	0.4436	-0.143
Mof_C 	C 	0.7214	0.5417	0.844	0.01
Mof_C 	C 	0.3971	0.9469	0.4542	0.425
Mof_C 	C 	0.7815	0.5211	0.9101	-0.136
Mof_C 	C 	0.1695	0.2125	0.0975	0.464
Mof_C 	C 	0.2207	0.1388	0.8654	0.006
Mof_C 	C 	0.7107	0.0689	0.3555	-0.011
Mof_C 	C 	0.2414	0.6348	0.0156	0.146
Mof_C 	C 	0.1519	0.4504	0.4247	0.432
Mof_C 	C 	0.3514	0.7211	0.4578	0.453
Mof_C 	C 	0.7049	0.1202	0.6797	0.025
Mof_C 	C 	0.867	0.5377	0.1954	-0.012
Mof_C 	C 	0.6928	0.9564	0.2636	0.468
Mof_C 	C 	0.6566	0.0471	0.6738	-0.02
Mof_C 	C 	0.1815	0.5657	0.0257	0.125
Mof_C 	C 	0.2786	0.5417	0.344	0.006
Mof_C 	C 	0.789	0.1135	0.0178	0.12
Mof_C 	C 	0.1891	0.2141	0.413	0.473
Mof_C 	C 	0.8185	0.5657	0.5257	-0.005
Mof_C 	C 	0.6747	0.6495	0.5725	-0.148
Mof_C 	C 	0.2893	0.0689	0.8555	-0.022
Mof_C 	C 	0.2284	0.1386	0.1144	-0.149
Mof_C 	C 	0.758	0.6344	0.2552	-0.149
Mof_C 	C 	0.3295	0.0183	0.4642	-0.121
Mof_C 	C 	0.9353	0.2201	0.293	0.419
Mof_C 	C 	0.2185	0.5211	0.4101	-0.14
Mof_C 	C 	0.0938	0.4384	0.8014	0.419
Mof_C 	C 	0.689	0.6456	0.9266	-0.092
Mof_C 	C 	0.8112	0.6101	0.189	0.028
Mof_C 	C 	0.7586	0.6348	0.5156	0.017
Mof_C 	C 	0.7313	0.0413	0.0283	0.082
Mof_C 	C 	0.242	0.6344	0.7552	-0.148
Mof_C 	C 	0.4073	0.7166	0.0809	0.47
Mof_C 	C 	0.3356	0.6141	0.3544	-0.004
Mof_C 	C 	0.5927	0.7166	0.5809	0.458
Mof_C 	C 	0.1801	0.4515	0.1171	0.508
Mof_C 	C 	0.9062	0.4384	0.3014	0.424
Mof_C 	C 	0.311	0.6456	0.4266	-0.129
Mof_C 	C 	0.8492	0.1544	0.3036	-0.126
Mof_S 	S 	0.8399	0.08543	0.23053	0.077
Mof_S 	S 	0.776	0.58775	0.98431	-0.006
Mof_S 	S 	0.7734	0.06735	0.54777	0.08
Mof_S 	S 	0.6782	0.0818	0.88938	0.102
Mof_S 	S 	0.2266	0.06735	0.04777	0.136
Mof_S 	S 	0.6702	0.57855	0.6422	0.073
Mof_S 	S 	0.224	0.58775	0.48431	0.073
Mof_S 	S 	0.7743	0.56958	0.33059	0.069
Mof_S 	S 	0.3298	0.57855	0.1422	0.104
Mof_S 	S 	0.1601	0.08543	0.73053	0.066
Mof_S 	S 	0.2257	0.56958	0.83059	0.045
Mof_S 	S 	0.3218	0.0818	0.38938	0.085
Mof_O 	O 	0.7911	0.2275	0.8421	-0.522
Mof_O 	O 	0.3275	0.7366	0.5271	-0.472
Mof_O 	O 	0.9497	0.2637	0.3526	-0.509
Mof_O 	O 	0.2089	0.2275	0.3421	-0.513
Mof_O 	O 	0.4508	0.9356	0.3896	-0.453
Mof_O 	O 	0.0381	0.3964	0.7502	-0.459
Mof_O 	O 	0.534	0.7247	0.6444	-0.451
Mof_O 	O 	0.6674	0.9427	0.195	-0.491
Mof_O 	O 	0.6891	0.9111	0.3209	-0.517
Mof_O 	O 	0.3514	0.7197	0.8349	-0.483
Mof_O 	O 	0.5947	0.7617	0.907	-0.448
Mof_O 	O 	0.1332	0.2556	0.4621	-0.49
Mof_O 	O 	0.1542	0.3998	0.3705	-0.536
Mof_O 	O 	0.6725	0.7366	0.0271	-0.369
Mof_O 	O 	0.4175	0.8977	0.1273	-0.46
Mof_O 	O 	0.1049	0.2193	0.0392	-0.424
Mof_O 	O 	0.4001	0.9007	0.5098	-0.547
Mof_O 	O 	0.342	0.9211	0.0059	-0.398
Mof_O 	O 	0.2929	0.7555	0.7141	-0.521
Mof_O 	O 	0.4053	0.7617	0.407	-0.475
Mof_O 	O 	0.3326	0.9427	0.695	-0.493
Mof_O 	O 	0.9619	0.3964	0.2502	-0.456
Mof_O 	O 	0.123	0.4143	0.0676	-0.457
Mof_O 	O 	0.466	0.7247	0.1444	-0.449
Mof_O 	O 	0.5492	0.9356	0.8896	-0.432
Mof_O 	O 	0.7975	0.4324	0.6859	-0.504
Mof_O 	O 	0.8951	0.2193	0.5392	-0.488
Mof_O 	O 	0.5999	0.9007	0.0098	-0.452
Mof_O 	O 	0.8008	0.2657	0.645	-0.518
Mof_O 	O 	0.5825	0.8977	0.6273	-0.467
Mof_O 	O 	0.8668	0.2556	0.9621	-0.513
Mof_O 	O 	0.9064	0.4418	0.9873	-0.456
Mof_O 	O 	0.7071	0.7555	0.2141	-0.521
Mof_O 	O 	0.3109	0.9111	0.8209	-0.512
Mof_O 	O 	0.0936	0.4418	0.4873	-0.439
Mof_O 	O 	0.9857	0.2286	0.2296	-0.434
Mof_O 	O 	0.877	0.4143	0.5676	-0.518
Mof_O 	O 	0.411	0.7619	0.0257	-0.497
Mof_O 	O 	0.4836	0.8301	0.2667	-0.567
Mof_O 	O 	0.6486	0.7197	0.3349	-0.488
Mof_O 	O 	0.8935	0.4247	0.373	-0.45
Mof_O 	O 	0.658	0.9211	0.5059	-0.459
Mof_O 	O 	0.0143	0.2286	0.7296	-0.436
Mof_O 	O 	0.8458	0.3998	0.8705	-0.533
Mof_O 	O 	0.1992	0.2657	0.145	-0.502
Mof_O 	O 	0.0503	0.2637	0.8526	-0.501
Mof_O 	O 	0.1065	0.4247	0.873	-0.448
Mof_O 	O 	0.2025	0.4324	0.1859	-0.5
Mof_O 	O 	0.5164	0.8301	0.7667	-0.558
Mof_O 	O 	0.589	0.7619	0.5257	-0.552
_end
