data_functionalizedCrystal
_audit_creation_method	'EQeq! by Chris Wilmer'
_symmetry_space_group_name_H-M	'P1'
_symmetry_Int_Tables_number	1
_symmetry_cell_setting	triclinic
loop_
_symmetry_equiv_pos_as_xyz
  x,y,z
_cell_length_a	13.174
_cell_length_b	32.548
_cell_length_c	33.039
_cell_angle_alpha	90
_cell_angle_beta	97.479
_cell_angle_gamma	90
loop_
_atom_site_label
_atom_site_type_symbol
_atom_site_fract_x
_atom_site_fract_y
_atom_site_fract_z
_atom_site_charge
Mof_Fe	Fe	0.36732	0.07045	0.97906	0.9
Mof_Fe	Fe	0.63745	0.82257	0.01721	0.903
Mof_Cd	Cd	0.23674	0.86835	0.75002	0.481
Mof_C 	C 	0.5884	0.0771	0.015	0.124
Mof_C 	C 	0.6764	0.0805	0.0455	-0.111
Mof_H 	H 	0.6737	0.0589	0.0656	0.076
Mof_H 	H 	0.6743	0.1067	0.0593	0.059
Mof_C 	C 	0.7776	0.077	0.0271	-0.194
Mof_H 	H 	0.8171	0.1015	0.035	0.071
Mof_H 	H 	0.8151	0.054	0.0404	0.077
Mof_C 	C 	0.7773	0.0722	0.9865	0.128
Mof_H 	H 	0.8322	0.0533	0.9828	-0.027
Mof_H 	H 	0.7959	0.0986	0.9758	-0.024
Mof_C 	C 	0.6903	0.0586	0.9614	-0.273
Mof_H 	H 	0.698	0.0293	0.9572	0.116
Mof_H 	H 	0.6895	0.0717	0.935	0.106
Mof_C 	C 	0.5906	0.0652	0.9749	0.021
Mof_C 	C 	0.4717	0.0737	0.066	0.047
Mof_H 	H 	0.5295	0.0784	0.0848	0.019
Mof_C 	C 	0.494	0.03	0.9186	0.044
Mof_H 	H 	0.5566	0.0247	0.9095	0.015
Mof_C 	C 	0.3726	0.0715	0.081	-0.056
Mof_C 	C 	0.3711	0.0802	0.1223	-0.044
Mof_H 	H 	0.4319	0.0858	0.1391	0.065
Mof_C 	C 	0.2769	0.0804	0.1386	-0.021
Mof_C 	C 	0.1884	0.0671	0.1133	-0.151
Mof_H 	H 	0.1272	0.0657	0.1245	0.085
Mof_C 	C 	0.1875	0.056	0.0733	0.142
Mof_C 	C 	0.2827	0.0601	0.055	0.104
Mof_C 	C 	0.4048	0.0156	0.8945	-0.043
Mof_C 	C 	0.4196	0.9924	0.8588	-0.051
Mof_H 	H 	0.4846	0.9902	0.8508	0.061
Mof_C 	C 	0.3382	0.9735	0.8365	-0.015
Mof_C 	C 	0.2402	0.9804	0.8456	-0.161
Mof_H 	H 	0.1853	0.9689	0.8289	0.097
Mof_C 	C 	0.2207	0.0039	0.8787	0.17
Mof_C 	C 	0.3046	0.0218	0.9026	0.082
Mof_C 	C 	0.0923	0.0434	0.0465	-0.619
Mof_H 	H 	0.1089	0.0367	0.0198	0.215
Mof_H 	H 	0.0439	0.0656	0.0444	0.197
Mof_H 	H 	0.0632	0.0198	0.058	0.193
Mof_C 	C 	0.1148	0.0093	0.8888	-0.661
Mof_H 	H 	0.1161	0.0265	0.9125	0.226
Mof_H 	H 	0.0868	0.983	0.8944	0.211
Mof_H 	H 	0.073	0.0218	0.8662	0.219
Mof_C 	C 	0.2675	0.0949	0.1792	0.262
Mof_C 	C 	0.3523	0.9463	0.801	0.309
Mof_C 	C 	0.8249	0.8275	0.9794	0.076
Mof_C 	C 	0.8967	0.8324	0.9462	-0.208
Mof_H 	H 	0.8781	0.8118	0.9253	0.1
Mof_H 	H 	0.8841	0.8591	0.9335	0.091
Mof_C 	C 	0.0051	0.8288	0.9597	0.033
Mof_H 	H 	0.0316	0.8077	0.9432	-0.002
Mof_H 	H 	0.0365	0.8545	0.9532	-0.006
Mof_C 	C 	0.0399	0.82	0.9996	-0.14
Mof_H 	H 	0.0753	0.8443	0.0112	0.053
Mof_H 	H 	0.091	0.7986	0.9996	0.051
Mof_C 	C 	0.9671	0.8068	0.0288	-0.111
Mof_H 	H 	0.97	0.777	0.0308	0.073
Mof_H 	H 	0.9923	0.8176	0.0555	0.058
Mof_C 	C 	0.8605	0.8185	0.0193	0.038
Mof_C 	C 	0.6742	0.8244	0.9285	0.051
Mof_H 	H 	0.7177	0.8293	0.909	0.017
Mof_C 	C 	0.8075	0.7839	0.0747	0.04
Mof_H 	H 	0.8769	0.7799	0.0833	0.016
Mof_C 	C 	0.5668	0.8214	0.9141	-0.055
Mof_C 	C 	0.5325	0.8279	0.8727	-0.035
Mof_H 	H 	0.5799	0.833	0.8548	0.061
Mof_C 	C 	0.43	0.8267	0.858	-0.048
Mof_C 	C 	0.3609	0.8153	0.885	-0.128
Mof_H 	H 	0.2922	0.8122	0.8746	0.078
Mof_C 	C 	0.3898	0.8084	0.9259	0.128
Mof_C 	C 	0.4923	0.8115	0.9418	0.096
Mof_C 	C 	0.7346	0.77	0.1016	-0.02
Mof_C 	C 	0.7748	0.7518	0.1384	-0.082
Mof_H 	H 	0.8453	0.7512	0.146	0.066
Mof_C 	C 	0.7084	0.734	0.1644	0.027
Mof_C 	C 	0.6053	0.7398	0.1554	-0.24
Mof_H 	H 	0.5631	0.7294	0.1735	0.124
Mof_C 	C 	0.5603	0.7602	0.1212	0.28
Mof_C 	C 	0.6291	0.7761	0.0946	0.047
Mof_C 	C 	0.3133	0.7964	0.9541	-0.597
Mof_H 	H 	0.3481	0.7928	0.9813	0.209
Mof_H 	H 	0.2807	0.7711	0.9449	0.188
Mof_H 	H 	0.2627	0.8176	0.9541	0.194
Mof_C 	C 	0.4521	0.7634	0.1129	-0.858
Mof_H 	H 	0.434	0.7782	0.0879	0.285
Mof_H 	H 	0.4264	0.7777	0.1348	0.277
Mof_H 	H 	0.4227	0.7364	0.1104	0.274
Mof_C 	C 	0.3902	0.8365	0.8166	0.302
Mof_C 	C 	0.7527	0.7102	0.2015	0.27
Mof_N 	N 	0.4835	0.0694	0.0285	-0.187
Mof_N 	N 	0.4951	0.05	0.9527	-0.191
Mof_N 	N 	0.7154	0.821	0.9651	-0.191
Mof_N 	N 	0.7822	0.8009	0.0407	-0.189
Mof_O 	O 	0.2775	0.05159	0.0171	-0.34
Mof_O 	O 	0.2856	0.043	0.935	-0.328
Mof_O 	O 	0.5185	0.80585	0.9811	-0.337
Mof_O 	O 	0.5875	0.7924	0.0612	-0.319
Mof_O 	O 	0.3496	0.1064	0.2027	-0.267
Mof_O 	O 	0.1812	0.098	0.1926	-0.268
Mof_O 	O 	0.4439	0.9407	0.7947	-0.281
Mof_O 	O 	0.2783	0.9295	0.782	-0.288
Mof_O 	O 	0.4501	0.8431	0.789	-0.29
Mof_O 	O 	0.2978	0.8417	0.8071	-0.298
Mof_O 	O 	0.8515	0.7115	0.2105	-0.276
Mof_O 	O 	0.6935	0.6905	0.2204	-0.281
Mof_O 	O 	0.3598	0.12459	0.9716	-0.502
Mof_C 	C 	0.589	0.052	0.0183	-0.13
Mof_C 	C 	0.586	0.0461	0.9906	0.074
Mof_C 	C 	0.826	0.8041	0.9753	-0.02
Mof_C 	C 	0.858	0.7967	0.0068	-0.011
Mof_Fe	Fe	0.86732	0.57045	0.97906	0.902
Mof_Fe	Fe	0.13745	0.32257	0.01721	0.902
Mof_Cd	Cd	0.73674	0.36835	0.75002	0.483
Mof_C 	C 	0.0884	0.5771	0.015	0.113
Mof_C 	C 	0.1764	0.5805	0.0455	-0.079
Mof_H 	H 	0.1737	0.5589	0.0656	0.065
Mof_H 	H 	0.1743	0.6067	0.0593	0.046
Mof_C 	C 	0.2776	0.577	0.0271	-0.247
Mof_H 	H 	0.3171	0.6015	0.035	0.085
Mof_H 	H 	0.3151	0.554	0.0404	0.092
Mof_C 	C 	0.2773	0.5722	0.9865	0.184
Mof_H 	H 	0.3322	0.5533	0.9828	-0.046
Mof_H 	H 	0.2959	0.5986	0.9758	-0.042
Mof_C 	C 	0.1903	0.5586	0.9614	-0.307
Mof_H 	H 	0.198	0.5293	0.9572	0.125
Mof_H 	H 	0.1895	0.5717	0.935	0.114
Mof_C 	C 	0.0906	0.5652	0.9749	0.017
Mof_C 	C 	0.9717	0.5737	0.066	0.071
Mof_H 	H 	0.0295	0.5784	0.0848	0.003
Mof_C 	C 	0.994	0.53	0.9186	0.07
Mof_H 	H 	0.0566	0.5247	0.9095	-0.002
Mof_C 	C 	0.8726	0.5715	0.081	-0.062
Mof_C 	C 	0.8711	0.5802	0.1223	-0.042
Mof_H 	H 	0.9319	0.5858	0.1391	0.069
Mof_C 	C 	0.7769	0.5804	0.1386	-0.018
Mof_C 	C 	0.6884	0.5671	0.1133	-0.154
Mof_H 	H 	0.6272	0.5657	0.1245	0.089
Mof_C 	C 	0.6875	0.556	0.0733	0.149
Mof_C 	C 	0.7827	0.5601	0.055	0.104
Mof_C 	C 	0.9048	0.5156	0.8945	-0.05
Mof_C 	C 	0.9196	0.4924	0.8588	-0.048
Mof_H 	H 	0.9846	0.4902	0.8508	0.064
Mof_C 	C 	0.8382	0.4735	0.8365	-0.013
Mof_C 	C 	0.7402	0.4804	0.8456	-0.162
Mof_H 	H 	0.6853	0.4689	0.8289	0.1
Mof_C 	C 	0.7207	0.5039	0.8787	0.173
Mof_C 	C 	0.8046	0.5218	0.9026	0.084
Mof_C 	C 	0.5923	0.5434	0.0465	-0.635
Mof_H 	H 	0.6089	0.5367	0.0198	0.222
Mof_H 	H 	0.5439	0.5656	0.0444	0.205
Mof_H 	H 	0.5632	0.5198	0.058	0.202
Mof_C 	C 	0.6148	0.5093	0.8888	-0.671
Mof_H 	H 	0.6161	0.5265	0.9125	0.231
Mof_H 	H 	0.5868	0.483	0.8944	0.216
Mof_H 	H 	0.573	0.5218	0.8662	0.224
Mof_C 	C 	0.7675	0.5949	0.1792	0.26
Mof_C 	C 	0.8523	0.4463	0.801	0.308
Mof_C 	C 	0.3249	0.3275	0.9794	0.077
Mof_C 	C 	0.3967	0.3324	0.9462	-0.245
Mof_H 	H 	0.3781	0.3118	0.9253	0.109
Mof_H 	H 	0.3841	0.3591	0.9335	0.1
Mof_C 	C 	0.5051	0.3288	0.9597	0.079
Mof_H 	H 	0.5316	0.3077	0.9432	-0.012
Mof_H 	H 	0.5365	0.3545	0.9532	-0.017
Mof_C 	C 	0.5399	0.32	0.9996	-0.162
Mof_H 	H 	0.5753	0.3443	0.0112	0.064
Mof_H 	H 	0.591	0.2986	0.9996	0.061
Mof_C 	C 	0.4671	0.3068	0.0288	-0.105
Mof_H 	H 	0.47	0.277	0.0308	0.068
Mof_H 	H 	0.4923	0.3176	0.0555	0.052
Mof_C 	C 	0.3605	0.3185	0.0193	0.042
Mof_C 	C 	0.1742	0.3244	0.9285	0.055
Mof_H 	H 	0.2177	0.3293	0.909	0.016
Mof_C 	C 	0.3075	0.2839	0.0747	0.045
Mof_H 	H 	0.3769	0.2799	0.0833	0.013
Mof_C 	C 	0.0668	0.3214	0.9141	-0.065
Mof_C 	C 	0.0325	0.3279	0.8727	-0.05
Mof_H 	H 	0.0799	0.333	0.8548	0.064
Mof_C 	C 	0.93	0.3267	0.858	-0.031
Mof_C 	C 	0.8609	0.3153	0.885	-0.13
Mof_H 	H 	0.7922	0.3122	0.8746	0.081
Mof_C 	C 	0.8898	0.3084	0.9259	0.126
Mof_C 	C 	0.9923	0.3115	0.9418	0.119
Mof_C 	C 	0.2346	0.27	0.1016	-0.032
Mof_C 	C 	0.2748	0.2518	0.1384	-0.071
Mof_H 	H 	0.3453	0.2512	0.146	0.061
Mof_C 	C 	0.2084	0.234	0.1644	0.012
Mof_C 	C 	0.1053	0.2398	0.1554	-0.216
Mof_H 	H 	0.0631	0.2294	0.1735	0.112
Mof_C 	C 	0.0603	0.2602	0.1212	0.241
Mof_C 	C 	0.1291	0.2761	0.0946	0.063
Mof_C 	C 	0.8133	0.2964	0.9541	-0.598
Mof_H 	H 	0.8481	0.2928	0.9813	0.212
Mof_H 	H 	0.7807	0.2711	0.9449	0.191
Mof_H 	H 	0.7627	0.3176	0.9541	0.195
Mof_C 	C 	0.9521	0.2634	0.1129	-0.795
Mof_H 	H 	0.934	0.2782	0.0879	0.271
Mof_H 	H 	0.9264	0.2777	0.1348	0.263
Mof_H 	H 	0.9227	0.2364	0.1104	0.259
Mof_C 	C 	0.8902	0.3365	0.8166	0.296
Mof_C 	C 	0.2527	0.2102	0.2015	0.275
Mof_N 	N 	0.9835	0.5694	0.0285	-0.185
Mof_N 	N 	0.9951	0.55	0.9527	-0.191
Mof_N 	N 	0.2154	0.321	0.9651	-0.194
Mof_N 	N 	0.2822	0.3009	0.0407	-0.19
Mof_O 	O 	0.7775	0.55159	0.0171	-0.34
Mof_O 	O 	0.7856	0.543	0.935	-0.328
Mof_O 	O 	0.0185	0.30585	0.9811	-0.35
Mof_O 	O 	0.0875	0.2924	0.0612	-0.326
Mof_O 	O 	0.8496	0.6064	0.2027	-0.262
Mof_O 	O 	0.6812	0.598	0.1926	-0.265
Mof_O 	O 	0.9439	0.4407	0.7947	-0.274
Mof_O 	O 	0.7783	0.4295	0.782	-0.286
Mof_O 	O 	0.9501	0.3431	0.789	-0.28
Mof_O 	O 	0.7978	0.3417	0.8071	-0.295
Mof_O 	O 	0.3515	0.2115	0.2105	-0.283
Mof_O 	O 	0.1935	0.1905	0.2204	-0.285
Mof_O 	O 	0.8598	0.62459	0.9716	-0.5
Mof_C 	C 	0.089	0.552	0.0183	-0.144
Mof_C 	C 	0.086	0.5461	0.9906	0.087
Mof_C 	C 	0.326	0.3041	0.9753	-0.011
Mof_C 	C 	0.358	0.2967	0.0068	-0.022
Mof_Fe	Fe	0.63268	0.07045	0.52094	0.899
Mof_Fe	Fe	0.36255	0.82257	0.48279	0.901
Mof_Cd	Cd	0.76326	0.86835	0.74998	0.484
Mof_C 	C 	0.4116	0.0771	0.485	0.123
Mof_C 	C 	0.3236	0.0805	0.4545	-0.098
Mof_H 	H 	0.3263	0.0589	0.4344	0.07
Mof_H 	H 	0.3257	0.1067	0.4407	0.053
Mof_C 	C 	0.2224	0.077	0.4729	-0.22
Mof_H 	H 	0.1829	0.1015	0.465	0.076
Mof_H 	H 	0.1849	0.054	0.4596	0.082
Mof_C 	C 	0.2227	0.0722	0.5135	0.159
Mof_H 	H 	0.1678	0.0533	0.5172	-0.039
Mof_H 	H 	0.2041	0.0986	0.5242	-0.035
Mof_C 	C 	0.3097	0.0586	0.5386	-0.292
Mof_H 	H 	0.302	0.0293	0.5428	0.121
Mof_H 	H 	0.3105	0.0717	0.565	0.11
Mof_C 	C 	0.4094	0.0652	0.5251	0.021
Mof_C 	C 	0.5283	0.0737	0.434	0.045
Mof_H 	H 	0.4705	0.0784	0.4152	0.02
Mof_C 	C 	0.506	0.03	0.5814	0.043
Mof_H 	H 	0.4434	0.0247	0.5905	0.015
Mof_C 	C 	0.6274	0.0715	0.419	-0.052
Mof_C 	C 	0.6289	0.0802	0.3777	-0.049
Mof_H 	H 	0.5681	0.0858	0.3609	0.067
Mof_C 	C 	0.7231	0.0804	0.3614	-0.014
Mof_C 	C 	0.8116	0.0671	0.3867	-0.161
Mof_H 	H 	0.8728	0.0657	0.3755	0.094
Mof_C 	C 	0.8125	0.056	0.4267	0.159
Mof_C 	C 	0.7173	0.0601	0.445	0.098
Mof_C 	C 	0.5952	0.0156	0.6055	-0.039
Mof_C 	C 	0.5804	0.9924	0.6412	-0.056
Mof_H 	H 	0.5154	0.9902	0.6492	0.062
Mof_C 	C 	0.6618	0.9735	0.6635	-0.008
Mof_C 	C 	0.7598	0.9804	0.6544	-0.17
Mof_H 	H 	0.8147	0.9689	0.6711	0.104
Mof_C 	C 	0.7793	0.0039	0.6213	0.184
Mof_C 	C 	0.6954	0.0218	0.5974	0.076
Mof_C 	C 	0.9077	0.0434	0.4535	-0.655
Mof_H 	H 	0.8911	0.0367	0.4802	0.229
Mof_H 	H 	0.9561	0.0656	0.4556	0.215
Mof_H 	H 	0.9368	0.0198	0.442	0.211
Mof_C 	C 	0.8852	0.0093	0.6112	-0.691
Mof_H 	H 	0.8839	0.0265	0.5875	0.239
Mof_H 	H 	0.9132	0.983	0.6056	0.225
Mof_H 	H 	0.927	0.0218	0.6338	0.233
Mof_C 	C 	0.7325	0.0949	0.3208	0.259
Mof_C 	C 	0.6477	0.9463	0.699	0.307
Mof_C 	C 	0.1751	0.8275	0.5206	0.078
Mof_C 	C 	0.1033	0.8324	0.5538	-0.266
Mof_H 	H 	0.1219	0.8118	0.5747	0.114
Mof_H 	H 	0.1159	0.8591	0.5665	0.105
Mof_C 	C 	0.9949	0.8288	0.5403	0.101
Mof_H 	H 	0.9684	0.8077	0.5568	-0.014
Mof_H 	H 	0.9635	0.8545	0.5468	-0.02
Mof_C 	C 	0.9601	0.82	0.5004	-0.16
Mof_H 	H 	0.9247	0.8443	0.4888	0.065
Mof_H 	H 	0.909	0.7986	0.5004	0.062
Mof_C 	C 	0.0329	0.8068	0.4712	-0.112
Mof_H 	H 	0.03	0.777	0.4692	0.068
Mof_H 	H 	0.0077	0.8176	0.4445	0.051
Mof_C 	C 	0.1395	0.8185	0.4807	0.045
Mof_C 	C 	0.3258	0.8244	0.5715	0.051
Mof_H 	H 	0.2823	0.8293	0.591	0.017
Mof_C 	C 	0.1925	0.7839	0.4253	0.041
Mof_H 	H 	0.1231	0.7799	0.4167	0.013
Mof_C 	C 	0.4332	0.8214	0.5859	-0.053
Mof_C 	C 	0.4675	0.8279	0.6273	-0.036
Mof_H 	H 	0.4201	0.833	0.6452	0.061
Mof_C 	C 	0.57	0.8267	0.642	-0.045
Mof_C 	C 	0.6391	0.8153	0.615	-0.131
Mof_H 	H 	0.7078	0.8122	0.6254	0.081
Mof_C 	C 	0.6102	0.8084	0.5741	0.132
Mof_C 	C 	0.5077	0.8115	0.5582	0.094
Mof_C 	C 	0.2654	0.77	0.3984	-0.022
Mof_C 	C 	0.2252	0.7518	0.3616	-0.081
Mof_H 	H 	0.1547	0.7512	0.354	0.063
Mof_C 	C 	0.2916	0.734	0.3356	0.025
Mof_C 	C 	0.3947	0.7398	0.3446	-0.24
Mof_H 	H 	0.4369	0.7294	0.3265	0.124
Mof_C 	C 	0.4397	0.7602	0.3788	0.28
Mof_C 	C 	0.3709	0.7761	0.4054	0.047
Mof_C 	C 	0.6867	0.7964	0.5459	-0.604
Mof_H 	H 	0.6519	0.7928	0.5187	0.211
Mof_H 	H 	0.7193	0.7711	0.5551	0.193
Mof_H 	H 	0.7373	0.8176	0.5459	0.197
Mof_C 	C 	0.5479	0.7634	0.3871	-0.86
Mof_H 	H 	0.566	0.7782	0.4121	0.287
Mof_H 	H 	0.5736	0.7777	0.3652	0.279
Mof_H 	H 	0.5773	0.7364	0.3896	0.276
Mof_C 	C 	0.6098	0.8365	0.6834	0.301
Mof_C 	C 	0.2473	0.7102	0.2985	0.271
Mof_N 	N 	0.5165	0.0694	0.4715	-0.186
Mof_N 	N 	0.5049	0.05	0.5473	-0.191
Mof_N 	N 	0.2846	0.821	0.5349	-0.193
Mof_N 	N 	0.2178	0.8009	0.4593	-0.19
Mof_O 	O 	0.7225	0.05159	0.4829	-0.338
Mof_O 	O 	0.7144	0.043	0.565	-0.325
Mof_O 	O 	0.4815	0.80585	0.5189	-0.336
Mof_O 	O 	0.4125	0.7924	0.4388	-0.319
Mof_O 	O 	0.6504	0.1064	0.2973	-0.266
Mof_O 	O 	0.8188	0.098	0.3074	-0.263
Mof_O 	O 	0.5561	0.9407	0.7053	-0.281
Mof_O 	O 	0.7217	0.9295	0.718	-0.285
Mof_O 	O 	0.5499	0.8431	0.711	-0.29
Mof_O 	O 	0.7022	0.8417	0.6929	-0.296
Mof_O 	O 	0.1485	0.7115	0.2895	-0.283
Mof_O 	O 	0.3065	0.6905	0.2796	-0.282
Mof_O 	O 	0.6402	0.12459	0.5284	-0.501
Mof_C 	C 	0.411	0.052	0.4817	-0.138
Mof_C 	C 	0.414	0.0461	0.5094	0.082
Mof_C 	C 	0.174	0.8041	0.5247	-0.008
Mof_C 	C 	0.142	0.7967	0.4932	-0.027
Mof_Fe	Fe	0.13268	0.57045	0.52094	0.895
Mof_Fe	Fe	0.86255	0.32257	0.48279	0.9
Mof_Cd	Cd	0.26326	0.36835	0.74998	0.482
Mof_C 	C 	0.9116	0.5771	0.485	0.132
Mof_C 	C 	0.8236	0.5805	0.4545	-0.1
Mof_H 	H 	0.8263	0.5589	0.4344	0.072
Mof_H 	H 	0.8257	0.6067	0.4407	0.054
Mof_C 	C 	0.7224	0.577	0.4729	-0.222
Mof_H 	H 	0.6829	0.6015	0.465	0.078
Mof_H 	H 	0.6849	0.554	0.4596	0.084
Mof_C 	C 	0.7227	0.5722	0.5135	0.162
Mof_H 	H 	0.6678	0.5533	0.5172	-0.039
Mof_H 	H 	0.7041	0.5986	0.5242	-0.035
Mof_C 	C 	0.8097	0.5586	0.5386	-0.297
Mof_H 	H 	0.802	0.5293	0.5428	0.123
Mof_H 	H 	0.8105	0.5717	0.565	0.114
Mof_C 	C 	0.9094	0.5652	0.5251	0.026
Mof_C 	C 	0.0283	0.5737	0.434	0.02
Mof_H 	H 	0.9705	0.5784	0.4152	0.036
Mof_C 	C 	0.006	0.53	0.5814	0.017
Mof_H 	H 	0.9434	0.5247	0.5905	0.032
Mof_C 	C 	0.1274	0.5715	0.419	-0.046
Mof_C 	C 	0.1289	0.5802	0.3777	-0.052
Mof_H 	H 	0.0681	0.5858	0.3609	0.064
Mof_C 	C 	0.2231	0.5804	0.3614	-0.016
Mof_C 	C 	0.3116	0.5671	0.3867	-0.158
Mof_H 	H 	0.3728	0.5657	0.3755	0.09
Mof_C 	C 	0.3125	0.556	0.4267	0.153
Mof_C 	C 	0.2173	0.5601	0.445	0.097
Mof_C 	C 	0.0952	0.5156	0.6055	-0.031
Mof_C 	C 	0.0804	0.4924	0.6412	-0.06
Mof_H 	H 	0.0154	0.4902	0.6492	0.06
Mof_C 	C 	0.1618	0.4735	0.6635	-0.009
Mof_C 	C 	0.2598	0.4804	0.6544	-0.169
Mof_H 	H 	0.3147	0.4689	0.6711	0.102
Mof_C 	C 	0.2793	0.5039	0.6213	0.18
Mof_C 	C 	0.1954	0.5218	0.5974	0.074
Mof_C 	C 	0.4077	0.5434	0.4535	-0.64
Mof_H 	H 	0.3911	0.5367	0.4802	0.223
Mof_H 	H 	0.4561	0.5656	0.4556	0.207
Mof_H 	H 	0.4368	0.5198	0.442	0.203
Mof_C 	C 	0.3852	0.5093	0.6112	-0.68
Mof_H 	H 	0.3839	0.5265	0.5875	0.234
Mof_H 	H 	0.4132	0.483	0.6056	0.219
Mof_H 	H 	0.427	0.5218	0.6338	0.227
Mof_C 	C 	0.2325	0.5949	0.3208	0.259
Mof_C 	C 	0.1477	0.4463	0.699	0.307
Mof_C 	C 	0.6751	0.3275	0.5206	0.077
Mof_C 	C 	0.6033	0.3324	0.5538	-0.239
Mof_H 	H 	0.6219	0.3118	0.5747	0.107
Mof_H 	H 	0.6159	0.3591	0.5665	0.098
Mof_C 	C 	0.4949	0.3288	0.5403	0.07
Mof_H 	H 	0.4684	0.3077	0.5568	-0.009
Mof_H 	H 	0.4635	0.3545	0.5468	-0.014
Mof_C 	C 	0.4601	0.32	0.5004	-0.154
Mof_H 	H 	0.4247	0.3443	0.4888	0.06
Mof_H 	H 	0.409	0.2986	0.5004	0.058
Mof_C 	C 	0.5329	0.3068	0.4712	-0.109
Mof_H 	H 	0.53	0.277	0.4692	0.069
Mof_H 	H 	0.5077	0.3176	0.4445	0.053
Mof_C 	C 	0.6395	0.3185	0.4807	0.041
Mof_C 	C 	0.8258	0.3244	0.5715	0.047
Mof_H 	H 	0.7823	0.3293	0.591	0.018
Mof_C 	C 	0.6925	0.2839	0.4253	0.036
Mof_H 	H 	0.6231	0.2799	0.4167	0.016
Mof_C 	C 	0.9332	0.3214	0.5859	-0.042
Mof_C 	C 	0.9675	0.3279	0.6273	-0.021
Mof_H 	H 	0.9201	0.333	0.6452	0.058
Mof_C 	C 	0.07	0.3267	0.642	-0.061
Mof_C 	C 	0.1391	0.3153	0.615	-0.128
Mof_H 	H 	0.2078	0.3122	0.6254	0.079
Mof_C 	C 	0.1102	0.3084	0.5741	0.135
Mof_C 	C 	0.0077	0.3115	0.5582	0.069
Mof_C 	C 	0.7654	0.27	0.3984	-0.011
Mof_C 	C 	0.7252	0.2518	0.3616	-0.091
Mof_H 	H 	0.6547	0.2512	0.354	0.067
Mof_C 	C 	0.7916	0.234	0.3356	0.038
Mof_C 	C 	0.8947	0.2398	0.3446	-0.263
Mof_H 	H 	0.9369	0.2294	0.3265	0.135
Mof_C 	C 	0.9397	0.2602	0.3788	0.318
Mof_C 	C 	0.8709	0.2761	0.4054	0.032
Mof_C 	C 	0.1867	0.2964	0.5459	-0.605
Mof_H 	H 	0.1519	0.2928	0.5187	0.208
Mof_H 	H 	0.2193	0.2711	0.5551	0.191
Mof_H 	H 	0.2373	0.3176	0.5459	0.196
Mof_C 	C 	0.0479	0.2634	0.3871	-0.922
Mof_H 	H 	0.066	0.2782	0.4121	0.301
Mof_H 	H 	0.0736	0.2777	0.3652	0.292
Mof_H 	H 	0.0773	0.2364	0.3896	0.29
Mof_C 	C 	0.1098	0.3365	0.6834	0.305
Mof_C 	C 	0.7473	0.2102	0.2985	0.267
Mof_N 	N 	0.0165	0.5694	0.4715	-0.187
Mof_N 	N 	0.0049	0.55	0.5473	-0.193
Mof_N 	N 	0.7846	0.321	0.5349	-0.191
Mof_N 	N 	0.7178	0.3009	0.4593	-0.188
Mof_O 	O 	0.2225	0.55159	0.4829	-0.338
Mof_O 	O 	0.2144	0.543	0.565	-0.325
Mof_O 	O 	0.9815	0.30585	0.5189	-0.322
Mof_O 	O 	0.9125	0.2924	0.4388	-0.313
Mof_O 	O 	0.1504	0.6064	0.2973	-0.268
Mof_O 	O 	0.3188	0.598	0.3074	-0.265
Mof_O 	O 	0.0561	0.4407	0.7053	-0.284
Mof_O 	O 	0.2217	0.4295	0.718	-0.287
Mof_O 	O 	0.0499	0.3431	0.711	-0.294
Mof_O 	O 	0.2022	0.3417	0.6929	-0.298
Mof_O 	O 	0.6485	0.2115	0.2895	-0.281
Mof_O 	O 	0.8065	0.1905	0.2796	-0.279
Mof_O 	O 	0.1402	0.62459	0.5284	-0.503
Mof_C 	C 	0.911	0.552	0.4817	-0.142
Mof_C 	C 	0.914	0.5461	0.5094	0.086
Mof_C 	C 	0.674	0.3041	0.5247	-0.013
Mof_C 	C 	0.642	0.2967	0.4932	-0.02
Mof_Fe	Fe	0.63268	0.92955	0.02094	0.899
Mof_Fe	Fe	0.36255	0.17743	0.98279	0.901
Mof_Cd	Cd	0.76326	0.13165	0.24998	0.484
Mof_C 	C 	0.4116	0.9229	0.985	0.123
Mof_C 	C 	0.3236	0.9195	0.9545	-0.113
Mof_H 	H 	0.3263	0.9411	0.9344	0.075
Mof_H 	H 	0.3257	0.8933	0.9407	0.057
Mof_C 	C 	0.2224	0.923	0.9729	-0.194
Mof_H 	H 	0.1829	0.8985	0.965	0.068
Mof_H 	H 	0.1849	0.946	0.9596	0.074
Mof_C 	C 	0.2227	0.9278	0.0135	0.129
Mof_H 	H 	0.1678	0.9467	0.0172	-0.031
Mof_H 	H 	0.2041	0.9014	0.0242	-0.026
Mof_C 	C 	0.3097	0.9414	0.0386	-0.273
Mof_H 	H 	0.302	0.9707	0.0428	0.115
Mof_H 	H 	0.3105	0.9283	0.065	0.104
Mof_C 	C 	0.4094	0.9348	0.0251	0.02
Mof_C 	C 	0.5283	0.9263	0.934	0.045
Mof_H 	H 	0.4705	0.9216	0.9152	0.02
Mof_C 	C 	0.506	0.97	0.0814	0.042
Mof_H 	H 	0.4434	0.9753	0.0905	0.015
Mof_C 	C 	0.6274	0.9285	0.919	-0.052
Mof_C 	C 	0.6289	0.9198	0.8777	-0.049
Mof_H 	H 	0.5681	0.9142	0.8609	0.067
Mof_C 	C 	0.7231	0.9196	0.8614	-0.014
Mof_C 	C 	0.8116	0.9329	0.8867	-0.161
Mof_H 	H 	0.8728	0.9343	0.8755	0.093
Mof_C 	C 	0.8125	0.944	0.9267	0.159
Mof_C 	C 	0.7173	0.9399	0.945	0.098
Mof_C 	C 	0.5952	0.9844	0.1055	-0.039
Mof_C 	C 	0.5804	0.0076	0.1412	-0.056
Mof_H 	H 	0.5154	0.0098	0.1492	0.062
Mof_C 	C 	0.6618	0.0265	0.1635	-0.008
Mof_C 	C 	0.7598	0.0196	0.1544	-0.171
Mof_H 	H 	0.8147	0.0311	0.1711	0.104
Mof_C 	C 	0.7793	0.9961	0.1213	0.184
Mof_C 	C 	0.6954	0.9782	0.0974	0.075
Mof_C 	C 	0.9077	0.9566	0.9535	-0.655
Mof_H 	H 	0.8911	0.9633	0.9802	0.229
Mof_H 	H 	0.9561	0.9344	0.9556	0.215
Mof_H 	H 	0.9368	0.9802	0.942	0.211
Mof_C 	C 	0.8852	0.9907	0.1112	-0.693
Mof_H 	H 	0.8839	0.9735	0.0875	0.239
Mof_H 	H 	0.9132	0.017	0.1056	0.226
Mof_H 	H 	0.927	0.9782	0.1338	0.234
Mof_C 	C 	0.7325	0.9051	0.8208	0.259
Mof_C 	C 	0.6477	0.0537	0.199	0.307
Mof_C 	C 	0.1751	0.1725	0.0206	0.078
Mof_C 	C 	0.1033	0.1676	0.0538	-0.261
Mof_H 	H 	0.1219	0.1882	0.0747	0.112
Mof_H 	H 	0.1159	0.1409	0.0665	0.103
Mof_C 	C 	0.9949	0.1712	0.0403	0.092
Mof_H 	H 	0.9684	0.1923	0.0568	-0.012
Mof_H 	H 	0.9635	0.1455	0.0468	-0.017
Mof_C 	C 	0.9601	0.18	0.0004	-0.151
Mof_H 	H 	0.9247	0.1557	0.9888	0.062
Mof_H 	H 	0.909	0.2014	0.0004	0.06
Mof_C 	C 	0.0329	0.1932	0.9712	-0.118
Mof_H 	H 	0.03	0.223	0.9692	0.069
Mof_H 	H 	0.0077	0.1824	0.9445	0.052
Mof_C 	C 	0.1395	0.1815	0.9807	0.045
Mof_C 	C 	0.3258	0.1756	0.0715	0.051
Mof_H 	H 	0.2823	0.1707	0.091	0.017
Mof_C 	C 	0.1925	0.2161	0.9253	0.041
Mof_H 	H 	0.1231	0.2201	0.9167	0.013
Mof_C 	C 	0.4332	0.1786	0.0859	-0.053
Mof_C 	C 	0.4675	0.1721	0.1273	-0.036
Mof_H 	H 	0.4201	0.167	0.1452	0.061
Mof_C 	C 	0.57	0.1733	0.142	-0.045
Mof_C 	C 	0.6391	0.1847	0.115	-0.131
Mof_H 	H 	0.7078	0.1878	0.1254	0.081
Mof_C 	C 	0.6102	0.1916	0.0741	0.132
Mof_C 	C 	0.5077	0.1885	0.0582	0.094
Mof_C 	C 	0.2654	0.23	0.8984	-0.022
Mof_C 	C 	0.2252	0.2482	0.8616	-0.081
Mof_H 	H 	0.1547	0.2488	0.854	0.063
Mof_C 	C 	0.2916	0.266	0.8356	0.025
Mof_C 	C 	0.3947	0.2602	0.8446	-0.24
Mof_H 	H 	0.4369	0.2706	0.8265	0.124
Mof_C 	C 	0.4397	0.2398	0.8788	0.28
Mof_C 	C 	0.3709	0.2239	0.9054	0.047
Mof_C 	C 	0.6867	0.2036	0.0459	-0.605
Mof_H 	H 	0.6519	0.2072	0.0187	0.211
Mof_H 	H 	0.7193	0.2289	0.0551	0.193
Mof_H 	H 	0.7373	0.1824	0.0459	0.197
Mof_C 	C 	0.5479	0.2366	0.8871	-0.86
Mof_H 	H 	0.566	0.2218	0.9121	0.287
Mof_H 	H 	0.5736	0.2223	0.8652	0.279
Mof_H 	H 	0.5773	0.2636	0.8896	0.276
Mof_C 	C 	0.6098	0.1635	0.1834	0.3
Mof_C 	C 	0.2473	0.2898	0.7985	0.271
Mof_N 	N 	0.5165	0.9306	0.9715	-0.187
Mof_N 	N 	0.5049	0.95	0.0473	-0.191
Mof_N 	N 	0.2846	0.179	0.0349	-0.193
Mof_N 	N 	0.2178	0.1991	0.9593	-0.19
Mof_O 	O 	0.7225	0.94841	0.9829	-0.338
Mof_O 	O 	0.7144	0.957	0.065	-0.325
Mof_O 	O 	0.4815	0.19415	0.0189	-0.336
Mof_O 	O 	0.4125	0.2076	0.9388	-0.319
Mof_O 	O 	0.6504	0.8936	0.7973	-0.266
Mof_O 	O 	0.8188	0.902	0.8074	-0.263
Mof_O 	O 	0.5561	0.0593	0.2053	-0.281
Mof_O 	O 	0.7217	0.0705	0.218	-0.285
Mof_O 	O 	0.5499	0.1569	0.211	-0.29
Mof_O 	O 	0.7022	0.1583	0.1929	-0.296
Mof_O 	O 	0.1485	0.2885	0.7895	-0.283
Mof_O 	O 	0.3065	0.3095	0.7796	-0.282
Mof_O 	O 	0.6402	0.87541	0.0284	-0.501
Mof_C 	C 	0.411	0.948	0.9817	-0.13
Mof_C 	C 	0.414	0.9539	0.0094	0.073
Mof_C 	C 	0.174	0.1959	0.0247	-0.01
Mof_C 	C 	0.142	0.2033	0.9932	-0.025
Mof_Fe	Fe	0.13268	0.42955	0.02094	0.895
Mof_Fe	Fe	0.86255	0.67743	0.98279	0.9
Mof_Cd	Cd	0.26326	0.63165	0.24998	0.482
Mof_C 	C 	0.9116	0.4229	0.985	0.131
Mof_C 	C 	0.8236	0.4195	0.9545	-0.085
Mof_H 	H 	0.8263	0.4411	0.9344	0.068
Mof_H 	H 	0.8257	0.3933	0.9407	0.049
Mof_C 	C 	0.7224	0.423	0.9729	-0.249
Mof_H 	H 	0.6829	0.3985	0.965	0.086
Mof_H 	H 	0.6849	0.446	0.9596	0.092
Mof_C 	C 	0.7227	0.4278	0.0135	0.192
Mof_H 	H 	0.6678	0.4467	0.0172	-0.048
Mof_H 	H 	0.7041	0.4014	0.0242	-0.043
Mof_C 	C 	0.8097	0.4414	0.0386	-0.316
Mof_H 	H 	0.802	0.4707	0.0428	0.129
Mof_H 	H 	0.8105	0.4283	0.065	0.12
Mof_C 	C 	0.9094	0.4348	0.0251	0.026
Mof_C 	C 	0.0283	0.4263	0.934	0.021
Mof_H 	H 	0.9705	0.4216	0.9152	0.036
Mof_C 	C 	0.006	0.47	0.0814	0.017
Mof_H 	H 	0.9434	0.4753	0.0905	0.032
Mof_C 	C 	0.1274	0.4285	0.919	-0.046
Mof_C 	C 	0.1289	0.4198	0.8777	-0.052
Mof_H 	H 	0.0681	0.4142	0.8609	0.064
Mof_C 	C 	0.2231	0.4196	0.8614	-0.016
Mof_C 	C 	0.3116	0.4329	0.8867	-0.158
Mof_H 	H 	0.3728	0.4343	0.8755	0.09
Mof_C 	C 	0.3125	0.444	0.9267	0.153
Mof_C 	C 	0.2173	0.4399	0.945	0.097
Mof_C 	C 	0.0952	0.4844	0.1055	-0.031
Mof_C 	C 	0.0804	0.5076	0.1412	-0.06
Mof_H 	H 	0.0154	0.5098	0.1492	0.06
Mof_C 	C 	0.1618	0.5265	0.1635	-0.009
Mof_C 	C 	0.2598	0.5196	0.1544	-0.169
Mof_H 	H 	0.3147	0.5311	0.1711	0.102
Mof_C 	C 	0.2793	0.4961	0.1213	0.18
Mof_C 	C 	0.1954	0.4782	0.0974	0.074
Mof_C 	C 	0.4077	0.4566	0.9535	-0.64
Mof_H 	H 	0.3911	0.4633	0.9802	0.223
Mof_H 	H 	0.4561	0.4344	0.9556	0.207
Mof_H 	H 	0.4368	0.4802	0.942	0.203
Mof_C 	C 	0.3852	0.4907	0.1112	-0.68
Mof_H 	H 	0.3839	0.4735	0.0875	0.234
Mof_H 	H 	0.4132	0.517	0.1056	0.219
Mof_H 	H 	0.427	0.4782	0.1338	0.227
Mof_C 	C 	0.2325	0.4051	0.8208	0.259
Mof_C 	C 	0.1477	0.5537	0.199	0.307
Mof_C 	C 	0.6751	0.6725	0.0206	0.077
Mof_C 	C 	0.6033	0.6676	0.0538	-0.243
Mof_H 	H 	0.6219	0.6882	0.0747	0.108
Mof_H 	H 	0.6159	0.6409	0.0665	0.099
Mof_C 	C 	0.4949	0.6712	0.0403	0.076
Mof_H 	H 	0.4684	0.6923	0.0568	-0.011
Mof_H 	H 	0.4635	0.6455	0.0468	-0.016
Mof_C 	C 	0.4601	0.68	0.0004	-0.159
Mof_H 	H 	0.4247	0.6557	0.9888	0.062
Mof_H 	H 	0.409	0.7014	0.0004	0.059
Mof_C 	C 	0.5329	0.6932	0.9712	-0.106
Mof_H 	H 	0.53	0.723	0.9692	0.069
Mof_H 	H 	0.5077	0.6824	0.9445	0.052
Mof_C 	C 	0.6395	0.6815	0.9807	0.041
Mof_C 	C 	0.8258	0.6756	0.0715	0.047
Mof_H 	H 	0.7823	0.6707	0.091	0.018
Mof_C 	C 	0.6925	0.7161	0.9253	0.036
Mof_H 	H 	0.6231	0.7201	0.9167	0.016
Mof_C 	C 	0.9332	0.6786	0.0859	-0.042
Mof_C 	C 	0.9675	0.6721	0.1273	-0.021
Mof_H 	H 	0.9201	0.667	0.1452	0.058
Mof_C 	C 	0.07	0.6733	0.142	-0.061
Mof_C 	C 	0.1391	0.6847	0.115	-0.128
Mof_H 	H 	0.2078	0.6878	0.1254	0.079
Mof_C 	C 	0.1102	0.6916	0.0741	0.135
Mof_C 	C 	0.0077	0.6885	0.0582	0.068
Mof_C 	C 	0.7654	0.73	0.8984	-0.012
Mof_C 	C 	0.7252	0.7482	0.8616	-0.091
Mof_H 	H 	0.6547	0.7488	0.854	0.067
Mof_C 	C 	0.7916	0.766	0.8356	0.038
Mof_C 	C 	0.8947	0.7602	0.8446	-0.262
Mof_H 	H 	0.9369	0.7706	0.8265	0.134
Mof_C 	C 	0.9397	0.7398	0.8788	0.317
Mof_C 	C 	0.8709	0.7239	0.9054	0.033
Mof_C 	C 	0.1867	0.7036	0.0459	-0.605
Mof_H 	H 	0.1519	0.7072	0.0187	0.208
Mof_H 	H 	0.2193	0.7289	0.0551	0.191
Mof_H 	H 	0.2373	0.6824	0.0459	0.196
Mof_C 	C 	0.0479	0.7366	0.8871	-0.92
Mof_H 	H 	0.066	0.7218	0.9121	0.3
Mof_H 	H 	0.0736	0.7223	0.8652	0.292
Mof_H 	H 	0.0773	0.7636	0.8896	0.29
Mof_C 	C 	0.1098	0.6635	0.1834	0.305
Mof_C 	C 	0.7473	0.7898	0.7985	0.267
Mof_N 	N 	0.0165	0.4306	0.9715	-0.186
Mof_N 	N 	0.0049	0.45	0.0473	-0.194
Mof_N 	N 	0.7846	0.679	0.0349	-0.191
Mof_N 	N 	0.7178	0.6991	0.9593	-0.188
Mof_O 	O 	0.2225	0.44841	0.9829	-0.338
Mof_O 	O 	0.2144	0.457	0.065	-0.325
Mof_O 	O 	0.9815	0.69415	0.0189	-0.322
Mof_O 	O 	0.9125	0.7076	0.9388	-0.313
Mof_O 	O 	0.1504	0.3936	0.7973	-0.268
Mof_O 	O 	0.3188	0.402	0.8074	-0.265
Mof_O 	O 	0.0561	0.5593	0.2053	-0.284
Mof_O 	O 	0.2217	0.5705	0.218	-0.287
Mof_O 	O 	0.0499	0.6569	0.211	-0.294
Mof_O 	O 	0.2022	0.6583	0.1929	-0.298
Mof_O 	O 	0.6485	0.7885	0.7895	-0.281
Mof_O 	O 	0.8065	0.8095	0.7796	-0.279
Mof_O 	O 	0.1402	0.37541	0.0284	-0.503
Mof_C 	C 	0.911	0.448	0.9817	-0.151
Mof_C 	C 	0.914	0.4539	0.0094	0.094
Mof_C 	C 	0.674	0.6959	0.0247	-0.011
Mof_C 	C 	0.642	0.7033	0.9932	-0.021
Mof_Fe	Fe	0.36732	0.92955	0.47906	0.899
Mof_Fe	Fe	0.63745	0.17743	0.51721	0.902
Mof_Cd	Cd	0.23674	0.13165	0.25002	0.48
Mof_C 	C 	0.5884	0.9229	0.515	0.123
Mof_C 	C 	0.6764	0.9195	0.5455	-0.099
Mof_H 	H 	0.6737	0.9411	0.5656	0.071
Mof_H 	H 	0.6743	0.8933	0.5593	0.053
Mof_C 	C 	0.7776	0.923	0.5271	-0.219
Mof_H 	H 	0.8171	0.8985	0.535	0.078
Mof_H 	H 	0.8151	0.946	0.5404	0.085
Mof_C 	C 	0.7773	0.9278	0.4865	0.155
Mof_H 	H 	0.8322	0.9467	0.4828	-0.035
Mof_H 	H 	0.7959	0.9014	0.4758	-0.032
Mof_C 	C 	0.6903	0.9414	0.4614	-0.29
Mof_H 	H 	0.698	0.9707	0.4572	0.121
Mof_H 	H 	0.6895	0.9283	0.435	0.111
Mof_C 	C 	0.5906	0.9348	0.4749	0.021
Mof_C 	C 	0.4717	0.9263	0.566	0.047
Mof_H 	H 	0.5295	0.9216	0.5848	0.019
Mof_C 	C 	0.494	0.97	0.4186	0.044
Mof_H 	H 	0.5566	0.9753	0.4095	0.015
Mof_C 	C 	0.3726	0.9285	0.581	-0.056
Mof_C 	C 	0.3711	0.9198	0.6223	-0.044
Mof_H 	H 	0.4319	0.9142	0.6391	0.065
Mof_C 	C 	0.2769	0.9196	0.6386	-0.021
Mof_C 	C 	0.1884	0.9329	0.6133	-0.151
Mof_H 	H 	0.1272	0.9343	0.6245	0.085
Mof_C 	C 	0.1875	0.944	0.5733	0.143
Mof_C 	C 	0.2827	0.9399	0.555	0.104
Mof_C 	C 	0.4048	0.9844	0.3945	-0.043
Mof_C 	C 	0.4196	0.0076	0.3588	-0.051
Mof_H 	H 	0.4846	0.0098	0.3508	0.061
Mof_C 	C 	0.3382	0.0265	0.3365	-0.015
Mof_C 	C 	0.2402	0.0196	0.3456	-0.161
Mof_H 	H 	0.1853	0.0311	0.3289	0.097
Mof_C 	C 	0.2207	0.9961	0.3787	0.169
Mof_C 	C 	0.3046	0.9782	0.4026	0.082
Mof_C 	C 	0.0923	0.9566	0.5465	-0.62
Mof_H 	H 	0.1089	0.9633	0.5198	0.215
Mof_H 	H 	0.0439	0.9344	0.5444	0.197
Mof_H 	H 	0.0632	0.9802	0.558	0.193
Mof_C 	C 	0.1148	0.9907	0.3888	-0.66
Mof_H 	H 	0.1161	0.9735	0.4125	0.226
Mof_H 	H 	0.0868	0.017	0.3944	0.21
Mof_H 	H 	0.073	0.9782	0.3662	0.218
Mof_C 	C 	0.2675	0.9051	0.6792	0.262
Mof_C 	C 	0.3523	0.0537	0.301	0.309
Mof_C 	C 	0.8249	0.1725	0.4794	0.077
Mof_C 	C 	0.8967	0.1676	0.4462	-0.214
Mof_H 	H 	0.8781	0.1882	0.4253	0.102
Mof_H 	H 	0.8841	0.1409	0.4335	0.093
Mof_C 	C 	0.0051	0.1712	0.4597	0.043
Mof_H 	H 	0.0316	0.1923	0.4432	-0.005
Mof_H 	H 	0.0365	0.1455	0.4532	-0.009
Mof_C 	C 	0.0399	0.18	0.4996	-0.151
Mof_H 	H 	0.0753	0.1557	0.5112	0.057
Mof_H 	H 	0.091	0.2014	0.4996	0.054
Mof_C 	C 	0.9671	0.1932	0.5288	-0.104
Mof_H 	H 	0.97	0.223	0.5308	0.071
Mof_H 	H 	0.9923	0.1824	0.5555	0.056
Mof_C 	C 	0.8605	0.1815	0.5193	0.038
Mof_C 	C 	0.6742	0.1756	0.4285	0.051
Mof_H 	H 	0.7177	0.1707	0.409	0.017
Mof_C 	C 	0.8075	0.2161	0.5747	0.04
Mof_H 	H 	0.8769	0.2201	0.5833	0.016
Mof_C 	C 	0.5668	0.1786	0.4141	-0.055
Mof_C 	C 	0.5325	0.1721	0.3727	-0.035
Mof_H 	H 	0.5799	0.167	0.3548	0.06
Mof_C 	C 	0.43	0.1733	0.358	-0.048
Mof_C 	C 	0.3609	0.1847	0.385	-0.127
Mof_H 	H 	0.2922	0.1878	0.3746	0.078
Mof_C 	C 	0.3898	0.1916	0.4259	0.128
Mof_C 	C 	0.4923	0.1885	0.4418	0.096
Mof_C 	C 	0.7346	0.23	0.6016	-0.02
Mof_C 	C 	0.7748	0.2482	0.6384	-0.082
Mof_H 	H 	0.8453	0.2488	0.646	0.066
Mof_C 	C 	0.7084	0.266	0.6644	0.027
Mof_C 	C 	0.6053	0.2602	0.6554	-0.24
Mof_H 	H 	0.5631	0.2706	0.6735	0.124
Mof_C 	C 	0.5603	0.2398	0.6212	0.28
Mof_C 	C 	0.6291	0.2239	0.5946	0.047
Mof_C 	C 	0.3133	0.2036	0.4541	-0.597
Mof_H 	H 	0.3481	0.2072	0.4813	0.209
Mof_H 	H 	0.2807	0.2289	0.4449	0.188
Mof_H 	H 	0.2627	0.1824	0.4541	0.194
Mof_C 	C 	0.4521	0.2366	0.6129	-0.858
Mof_H 	H 	0.434	0.2218	0.5879	0.286
Mof_H 	H 	0.4264	0.2223	0.6348	0.277
Mof_H 	H 	0.4227	0.2636	0.6104	0.274
Mof_C 	C 	0.3902	0.1635	0.3166	0.302
Mof_C 	C 	0.7527	0.2898	0.7015	0.27
Mof_N 	N 	0.4835	0.9306	0.5285	-0.187
Mof_N 	N 	0.4951	0.95	0.4527	-0.192
Mof_N 	N 	0.7154	0.179	0.4651	-0.192
Mof_N 	N 	0.7822	0.1991	0.5407	-0.189
Mof_O 	O 	0.2775	0.94841	0.5171	-0.34
Mof_O 	O 	0.2856	0.957	0.435	-0.328
Mof_O 	O 	0.5185	0.19415	0.4811	-0.337
Mof_O 	O 	0.5875	0.2076	0.5612	-0.319
Mof_O 	O 	0.3496	0.8936	0.7027	-0.267
Mof_O 	O 	0.1812	0.902	0.6926	-0.268
Mof_O 	O 	0.4439	0.0593	0.2947	-0.281
Mof_O 	O 	0.2783	0.0705	0.282	-0.288
Mof_O 	O 	0.4501	0.1569	0.289	-0.29
Mof_O 	O 	0.2978	0.1583	0.3071	-0.298
Mof_O 	O 	0.8515	0.2885	0.7105	-0.276
Mof_O 	O 	0.6935	0.3095	0.7204	-0.281
Mof_O 	O 	0.3598	0.87541	0.4716	-0.502
Mof_C 	C 	0.589	0.948	0.5183	-0.138
Mof_C 	C 	0.586	0.9539	0.4906	0.081
Mof_C 	C 	0.826	0.1959	0.4753	-0.017
Mof_C 	C 	0.858	0.2033	0.5068	-0.013
Mof_Fe	Fe	0.86732	0.42955	0.47906	0.902
Mof_Fe	Fe	0.13745	0.67743	0.51721	0.903
Mof_Cd	Cd	0.73674	0.63165	0.25002	0.483
Mof_C 	C 	0.0884	0.4229	0.515	0.114
Mof_C 	C 	0.1764	0.4195	0.5455	-0.096
Mof_H 	H 	0.1737	0.4411	0.5656	0.069
Mof_H 	H 	0.1743	0.3933	0.5593	0.052
Mof_C 	C 	0.2776	0.423	0.5271	-0.218
Mof_H 	H 	0.3171	0.3985	0.535	0.076
Mof_H 	H 	0.3151	0.446	0.5404	0.083
Mof_C 	C 	0.2773	0.4278	0.4865	0.152
Mof_H 	H 	0.3322	0.4467	0.4828	-0.036
Mof_H 	H 	0.2959	0.4014	0.4758	-0.033
Mof_C 	C 	0.1903	0.4414	0.4614	-0.285
Mof_H 	H 	0.198	0.4707	0.4572	0.119
Mof_H 	H 	0.1895	0.4283	0.435	0.107
Mof_C 	C 	0.0906	0.4348	0.4749	0.016
Mof_C 	C 	0.9717	0.4263	0.566	0.071
Mof_H 	H 	0.0295	0.4216	0.5848	0.003
Mof_C 	C 	0.994	0.47	0.4186	0.07
Mof_H 	H 	0.0566	0.4753	0.4095	-0.002
Mof_C 	C 	0.8726	0.4285	0.581	-0.062
Mof_C 	C 	0.8711	0.4198	0.6223	-0.042
Mof_H 	H 	0.9319	0.4142	0.6391	0.069
Mof_C 	C 	0.7769	0.4196	0.6386	-0.018
Mof_C 	C 	0.6884	0.4329	0.6133	-0.154
Mof_H 	H 	0.6272	0.4343	0.6245	0.089
Mof_C 	C 	0.6875	0.444	0.5733	0.149
Mof_C 	C 	0.7827	0.4399	0.555	0.104
Mof_C 	C 	0.9048	0.4844	0.3945	-0.05
Mof_C 	C 	0.9196	0.5076	0.3588	-0.048
Mof_H 	H 	0.9846	0.5098	0.3508	0.064
Mof_C 	C 	0.8382	0.5265	0.3365	-0.013
Mof_C 	C 	0.7402	0.5196	0.3456	-0.163
Mof_H 	H 	0.6853	0.5311	0.3289	0.1
Mof_C 	C 	0.7207	0.4961	0.3787	0.173
Mof_C 	C 	0.8046	0.4782	0.4026	0.084
Mof_C 	C 	0.5923	0.4566	0.5465	-0.635
Mof_H 	H 	0.6089	0.4633	0.5198	0.221
Mof_H 	H 	0.5439	0.4344	0.5444	0.205
Mof_H 	H 	0.5632	0.4802	0.558	0.202
Mof_C 	C 	0.6148	0.4907	0.3888	-0.671
Mof_H 	H 	0.6161	0.4735	0.4125	0.231
Mof_H 	H 	0.5868	0.517	0.3944	0.216
Mof_H 	H 	0.573	0.4782	0.3662	0.224
Mof_C 	C 	0.7675	0.4051	0.6792	0.26
Mof_C 	C 	0.8523	0.5537	0.301	0.308
Mof_C 	C 	0.3249	0.6725	0.4794	0.077
Mof_C 	C 	0.3967	0.6676	0.4462	-0.242
Mof_H 	H 	0.3781	0.6882	0.4253	0.108
Mof_H 	H 	0.3841	0.6409	0.4335	0.099
Mof_C 	C 	0.5051	0.6712	0.4597	0.074
Mof_H 	H 	0.5316	0.6923	0.4432	-0.01
Mof_H 	H 	0.5365	0.6455	0.4532	-0.015
Mof_C 	C 	0.5399	0.68	0.4996	-0.158
Mof_H 	H 	0.5753	0.6557	0.5112	0.062
Mof_H 	H 	0.591	0.7014	0.4996	0.059
Mof_C 	C 	0.4671	0.6932	0.5288	-0.107
Mof_H 	H 	0.47	0.723	0.5308	0.069
Mof_H 	H 	0.4923	0.6824	0.5555	0.053
Mof_C 	C 	0.3605	0.6815	0.5193	0.042
Mof_C 	C 	0.1742	0.6756	0.4285	0.055
Mof_H 	H 	0.2177	0.6707	0.409	0.016
Mof_C 	C 	0.3075	0.7161	0.5747	0.045
Mof_H 	H 	0.3769	0.7201	0.5833	0.013
Mof_C 	C 	0.0668	0.6786	0.4141	-0.066
Mof_C 	C 	0.0325	0.6721	0.3727	-0.05
Mof_H 	H 	0.0799	0.667	0.3548	0.064
Mof_C 	C 	0.93	0.6733	0.358	-0.03
Mof_C 	C 	0.8609	0.6847	0.385	-0.13
Mof_H 	H 	0.7922	0.6878	0.3746	0.081
Mof_C 	C 	0.8898	0.6916	0.4259	0.126
Mof_C 	C 	0.9923	0.6885	0.4418	0.12
Mof_C 	C 	0.2346	0.73	0.6016	-0.031
Mof_C 	C 	0.2748	0.7482	0.6384	-0.071
Mof_H 	H 	0.3453	0.7488	0.646	0.061
Mof_C 	C 	0.2084	0.766	0.6644	0.013
Mof_C 	C 	0.1053	0.7602	0.6554	-0.216
Mof_H 	H 	0.0631	0.7706	0.6735	0.112
Mof_C 	C 	0.0603	0.7398	0.6212	0.242
Mof_C 	C 	0.1291	0.7239	0.5946	0.062
Mof_C 	C 	0.8133	0.7036	0.4541	-0.597
Mof_H 	H 	0.8481	0.7072	0.4813	0.212
Mof_H 	H 	0.7807	0.7289	0.4449	0.191
Mof_H 	H 	0.7627	0.6824	0.4541	0.195
Mof_C 	C 	0.9521	0.7366	0.6129	-0.797
Mof_H 	H 	0.934	0.7218	0.5879	0.272
Mof_H 	H 	0.9264	0.7223	0.6348	0.263
Mof_H 	H 	0.9227	0.7636	0.6104	0.26
Mof_C 	C 	0.8902	0.6635	0.3166	0.296
Mof_C 	C 	0.2527	0.7898	0.7015	0.275
Mof_N 	N 	0.9835	0.4306	0.5285	-0.186
Mof_N 	N 	0.9951	0.45	0.4527	-0.19
Mof_N 	N 	0.2154	0.679	0.4651	-0.193
Mof_N 	N 	0.2822	0.6991	0.5407	-0.19
Mof_O 	O 	0.7775	0.44841	0.5171	-0.34
Mof_O 	O 	0.7856	0.457	0.435	-0.328
Mof_O 	O 	0.0185	0.69415	0.4811	-0.351
Mof_O 	O 	0.0875	0.7076	0.5612	-0.326
Mof_O 	O 	0.8496	0.3936	0.7027	-0.262
Mof_O 	O 	0.6812	0.402	0.6926	-0.265
Mof_O 	O 	0.9439	0.5593	0.2947	-0.274
Mof_O 	O 	0.7783	0.5705	0.282	-0.286
Mof_O 	O 	0.9501	0.6569	0.289	-0.28
Mof_O 	O 	0.7978	0.6583	0.3071	-0.295
Mof_O 	O 	0.3515	0.7885	0.7105	-0.283
Mof_O 	O 	0.1935	0.8095	0.7204	-0.285
Mof_O 	O 	0.8598	0.37541	0.4716	-0.5
Mof_C 	C 	0.089	0.448	0.5183	-0.134
Mof_C 	C 	0.086	0.4539	0.4906	0.077
Mof_C 	C 	0.326	0.6959	0.4753	-0.012
Mof_C 	C 	0.358	0.7033	0.5068	-0.021
Mof_Cd	Cd	0.5	0.89885	0.75	0.501
Mof_Cd	Cd	0.5	0.78883	0.75	0.417
Mof_Cd	Cd	7.97027e-33	0.39885	0.75	0.49
Mof_Cd	Cd	7.97027e-33	0.28883	0.75	0.406
Mof_Cd	Cd	0.5	0.10115	0.25	0.501
Mof_Cd	Cd	0.5	0.21117	0.25	0.417
Mof_Cd	Cd	-1.61876e-17	0.60115	0.25	0.489
Mof_Cd	Cd	-1.61876e-17	0.71117	0.25	0.406
_end
