data_functionalizedCrystal
_audit_creation_method	'EQeq! by Chris Wilmer'
_symmetry_space_group_name_H-M	'P1'
_symmetry_Int_Tables_number	1
_symmetry_cell_setting	triclinic
loop_
_symmetry_equiv_pos_as_xyz
  x,y,z
_cell_length_a	7.8334
_cell_length_b	17.2763
_cell_length_c	9.445
_cell_angle_alpha	90
_cell_angle_beta	100.475
_cell_angle_gamma	90
loop_
_atom_site_label
_atom_site_type_symbol
_atom_site_fract_x
_atom_site_fract_y
_atom_site_fract_z
_atom_site_charge
Mof_Zn	Zn	0.38862	0.32616	0.2623	1.197
Mof_Zn	Zn	0.76805	0.25055	0.48981	1.204
Mof_O 	O 	0.9444	0.32906	0.5768	-0.444
Mof_O 	O 	0.5871	0.16761	0.4243	-0.485
Mof_O 	O 	0.5693	0.8962	0.5662	-0.468
Mof_O 	O 	0.1979	0.70454	0.8539	-0.263
Mof_O 	O 	0.417	0.81118	0.4152	-0.458
Mof_C 	C 	0.4271	0.94101	0.3368	-0.112
Mof_C 	C 	0.3217	0.92468	0.2052	0.057
Mof_H 	H 	0.2911	0.8727	0.1797	0.04
Mof_C 	C 	0.1302	0.66422	0.7464	0.308
Mof_O 	O 	0.3837	0.21211	0.2445	-0.491
Mof_C 	C 	0.4148	0.07704	0.2786	-0.129
Mof_C 	C 	0.3044	0.06156	0.1487	0.058
Mof_H 	H 	0.2588	0.1027	0.0863	0.055
Mof_C 	C 	0.0511	0.45076	0.6643	-0.098
Mof_C 	C 	0.2261	0.46294	0.9017	-0.087
Mof_C 	C 	0.0462	0.53127	0.6511	0.038
Mof_H 	H 	0.9842	0.5545	0.5659	0.044
Mof_C 	C 	0.1421	0.41697	0.7901	0.04
Mof_H 	H 	0.1465	0.3622	0.7992	0.054
Mof_C 	C 	0.2198	0.54327	0.8871	0.039
Mof_H 	H 	0.2767	0.5748	0.9637	0.055
Mof_C 	C 	0.3105	0.4271	0.0419	0.325
Mof_C 	C 	0.2613	0.98453	0.111	-0.109
Mof_C 	C 	0.4768	0.01729	0.3717	0.058
Mof_H 	H 	0.5533	0.0282	0.4595	0.044
Mof_C 	C 	0.1318	0.57778	0.7623	-0.091
Mof_C 	C 	0.4661	0.15894	0.319	0.417
Mof_O 	O 	0.879	0.43129	0.4319	-0.288
Mof_O 	O 	0.0759	0.03015	0.9071	-0.458
Mof_H 	H 	0.01	0.0179	0.8299	0.27
Mof_O 	O 	0.1087	0.90208	0.9287	-0.286
Mof_O 	O 	0.3179	0.35455	0.0522	-0.424
Mof_O 	O 	0.3648	0.47037	0.1456	-0.306
Mof_C 	C 	0.9503	0.40054	0.5487	0.34
Mof_C 	C 	0.1428	0.96757	0.9728	0.388
Mof_C 	C 	0.4756	0.87785	0.4469	0.375
Mof_O 	O 	0.0629	0.69352	0.6249	-0.409
Mof_Zn	Zn	0.61138	0.82616	0.7377	1.196
Mof_Zn	Zn	0.23195	0.75055	0.51019	1.203
Mof_O 	O 	0.0556	0.82906	0.4232	-0.443
Mof_O 	O 	0.4129	0.66761	0.5757	-0.487
Mof_O 	O 	0.4307	0.3962	0.4338	-0.471
Mof_O 	O 	0.8021	0.20454	0.1461	-0.262
Mof_O 	O 	0.583	0.31118	0.5848	-0.46
Mof_C 	C 	0.5729	0.44101	0.6632	-0.131
Mof_C 	C 	0.6783	0.42468	0.7948	0.07
Mof_H 	H 	0.7089	0.3727	0.8203	0.035
Mof_C 	C 	0.8698	0.16422	0.2536	0.302
Mof_O 	O 	0.6163	0.71211	0.7555	-0.492
Mof_C 	C 	0.5852	0.57704	0.7214	-0.142
Mof_C 	C 	0.6956	0.56156	0.8513	0.079
Mof_H 	H 	0.7412	0.6027	0.9137	0.05
Mof_C 	C 	0.9489	0.95076	0.3357	-0.077
Mof_C 	C 	0.7739	0.96294	0.0983	-0.066
Mof_C 	C 	0.9538	0.03127	0.3489	0.015
Mof_H 	H 	0.0158	0.0545	0.4341	0.049
Mof_C 	C 	0.8579	0.91697	0.2099	0.024
Mof_H 	H 	0.8535	0.8622	0.2008	0.06
Mof_C 	C 	0.7802	0.04327	0.1129	0.015
Mof_H 	H 	0.7233	0.0748	0.0363	0.06
Mof_C 	C 	0.6895	0.9271	0.9581	0.319
Mof_C 	C 	0.7387	0.48453	0.889	-0.127
Mof_C 	C 	0.5232	0.51729	0.6283	0.08
Mof_H 	H 	0.4467	0.5282	0.5405	0.039
Mof_C 	C 	0.8682	0.07778	0.2377	-0.076
Mof_C 	C 	0.5339	0.65894	0.681	0.422
Mof_O 	O 	0.121	0.93129	0.5681	-0.284
Mof_O 	O 	0.9241	0.53015	0.0929	-0.454
Mof_H 	H 	0.99	0.5179	0.1701	0.272
Mof_O 	O 	0.8913	0.40208	0.0713	-0.287
Mof_O 	O 	0.6821	0.85455	0.9478	-0.422
Mof_O 	O 	0.6352	0.97037	0.8544	-0.301
Mof_C 	C 	0.0497	0.90054	0.4513	0.333
Mof_C 	C 	0.8572	0.46757	0.0272	0.386
Mof_C 	C 	0.5244	0.37785	0.5531	0.381
Mof_O 	O 	0.9371	0.19352	0.3751	-0.408
_end
