data_functionalizedCrystal
_audit_creation_method	'EQeq! by Chris Wilmer'
_symmetry_space_group_name_H-M	'P1'
_symmetry_Int_Tables_number	1
_symmetry_cell_setting	triclinic
loop_
_symmetry_equiv_pos_as_xyz
  x,y,z
_cell_length_a	9.7909
_cell_length_b	17.2987
_cell_length_c	14.5929
_cell_angle_alpha	90
_cell_angle_beta	97.1322
_cell_angle_gamma	90
loop_
_atom_site_label
_atom_site_type_symbol
_atom_site_fract_x
_atom_site_fract_y
_atom_site_fract_z
_atom_site_charge
Mof_Tb	Tb	0.50465	0.37811	0.34159	2.149
Mof_Tb	Tb	0.01903	0.16358	0.41219	2.297
Mof_O 	O 	0.3901	0.5008	0.2996	-0.393
Mof_O 	O 	0.4188	0.6171	0.2369	-0.387
Mof_O 	O 	0.6258	0.453	0.2399	-0.432
Mof_O 	O 	0.637	0.5638	0.1636	-0.392
Mof_O 	O 	0.2559	0.3661	0.3396	-0.401
Mof_O 	O 	0.0884	0.292	0.3822	-0.426
Mof_O 	O 	0.435	0.2497	0.3722	-0.434
Mof_O 	O 	0.2637	0.1736	0.4074	-0.434
Mof_O 	O 	0.8497	0.2201	0.297	-0.408
Mof_O 	O 	0.6678	0.2997	0.2729	-0.444
Mof_O 	O 	0.8532	0.2385	0.4783	-0.422
Mof_O 	O 	0.683	0.3262	0.4533	-0.395
Mof_O 	O 	0.4275	0.4088	0.4888	-0.394
Mof_O 	O 	0.3741	0.5095	0.5739	-0.361
Mof_O 	O 	0.9136	0.0844	0.5235	-0.418
Mof_O 	O 	0.8713	0.9621	0.5587	-0.423
Mof_O 	O 	0.131	0.1949	0.5643	-0.922
Mof_C 	C 	0.4523	0.5488	0.2546	0.265
Mof_C 	C 	0.5828	0.5185	0.2166	0.276
Mof_C 	C 	0.2095	0.3049	0.3667	0.28
Mof_C 	C 	0.3129	0.2356	0.3836	0.291
Mof_C 	C 	0.7602	0.2651	0.3225	0.301
Mof_C 	C 	0.7671	0.2774	0.428	0.282
Mof_C 	C 	0.4422	0.4758	0.5181	0.279
Mof_C 	C 	0.9383	0.0134	0.5242	0.278
Mof_H 	H 	0.107	0.182	0.615	0.447
Mof_H 	H 	0.191	0.186	0.529	0.342
Mof_Tb	Tb	0.99535	0.87811	0.15841	2.125
Mof_Tb	Tb	0.48097	0.66358	0.08781	2.306
Mof_O 	O 	0.1099	0.0008	0.2004	-0.39
Mof_O 	O 	0.0812	0.1171	0.2631	-0.385
Mof_O 	O 	0.8742	0.953	0.2601	-0.437
Mof_O 	O 	0.863	0.0638	0.3364	-0.392
Mof_O 	O 	0.2441	0.8661	0.1604	-0.396
Mof_O 	O 	0.4116	0.792	0.1178	-0.426
Mof_O 	O 	0.065	0.7497	0.1278	-0.426
Mof_O 	O 	0.2363	0.6736	0.0926	-0.432
Mof_O 	O 	0.6503	0.7201	0.203	-0.41
Mof_O 	O 	0.8322	0.7997	0.2271	-0.443
Mof_O 	O 	0.6468	0.7385	0.0217	-0.427
Mof_O 	O 	0.817	0.8262	0.0467	-0.397
Mof_O 	O 	0.0725	0.9088	0.0112	-0.383
Mof_O 	O 	0.1259	0.0095	0.9261	-0.366
Mof_O 	O 	0.5864	0.5844	0.9765	-0.42
Mof_O 	O 	0.6287	0.4621	0.9413	-0.417
Mof_O 	O 	0.369	0.6949	0.9357	-0.921
Mof_C 	C 	0.0477	0.0488	0.2454	0.26
Mof_C 	C 	0.9172	0.0185	0.2834	0.286
Mof_C 	C 	0.2905	0.8049	0.1333	0.28
Mof_C 	C 	0.1871	0.7356	0.1164	0.29
Mof_C 	C 	0.7398	0.7651	0.1775	0.3
Mof_C 	C 	0.7329	0.7774	0.072	0.282
Mof_C 	C 	0.0578	0.9758	0.9819	0.278
Mof_C 	C 	0.5617	0.5134	0.9758	0.271
Mof_H 	H 	0.393	0.682	0.885	0.447
Mof_H 	H 	0.309	0.686	0.971	0.34
Mof_Tb	Tb	0.49535	0.62189	0.65841	2.15
Mof_Tb	Tb	0.98097	0.83642	0.58781	2.298
Mof_O 	O 	0.6099	0.4992	0.7004	-0.392
Mof_O 	O 	0.5812	0.3829	0.7631	-0.386
Mof_O 	O 	0.3742	0.547	0.7601	-0.432
Mof_O 	O 	0.363	0.4362	0.8364	-0.392
Mof_O 	O 	0.7441	0.6339	0.6604	-0.401
Mof_O 	O 	0.9116	0.708	0.6178	-0.426
Mof_O 	O 	0.565	0.7503	0.6278	-0.434
Mof_O 	O 	0.7363	0.8264	0.5926	-0.434
Mof_O 	O 	0.1503	0.7799	0.703	-0.408
Mof_O 	O 	0.3322	0.7003	0.7271	-0.444
Mof_O 	O 	0.1468	0.7615	0.5217	-0.422
Mof_O 	O 	0.317	0.6738	0.5467	-0.395
Mof_O 	O 	0.5725	0.5912	0.5112	-0.394
Mof_O 	O 	0.6259	0.4905	0.4261	-0.361
Mof_O 	O 	0.0864	0.9156	0.4765	-0.418
Mof_O 	O 	0.1287	0.0379	0.4413	-0.423
Mof_O 	O 	0.869	0.8051	0.4357	-0.922
Mof_C 	C 	0.5477	0.4512	0.7454	0.265
Mof_C 	C 	0.4172	0.4815	0.7834	0.276
Mof_C 	C 	0.7905	0.6951	0.6333	0.28
Mof_C 	C 	0.6871	0.7644	0.6164	0.291
Mof_C 	C 	0.2398	0.7349	0.6775	0.301
Mof_C 	C 	0.2329	0.7226	0.572	0.282
Mof_C 	C 	0.5578	0.5242	0.4819	0.279
Mof_C 	C 	0.0617	0.9866	0.4758	0.278
Mof_H 	H 	0.893	0.818	0.385	0.447
Mof_H 	H 	0.809	0.814	0.471	0.342
Mof_Tb	Tb	0.00465	0.12189	0.84159	2.125
Mof_Tb	Tb	0.51903	0.33642	0.91219	2.306
Mof_O 	O 	0.8901	0.9992	0.7996	-0.39
Mof_O 	O 	0.9188	0.8829	0.7369	-0.385
Mof_O 	O 	0.1258	0.047	0.7399	-0.437
Mof_O 	O 	0.137	0.9362	0.6636	-0.392
Mof_O 	O 	0.7559	0.1339	0.8396	-0.396
Mof_O 	O 	0.5884	0.208	0.8822	-0.426
Mof_O 	O 	0.935	0.2503	0.8722	-0.426
Mof_O 	O 	0.7637	0.3264	0.9074	-0.432
Mof_O 	O 	0.3497	0.2799	0.797	-0.41
Mof_O 	O 	0.1678	0.2003	0.7729	-0.443
Mof_O 	O 	0.3532	0.2615	0.9783	-0.427
Mof_O 	O 	0.183	0.1738	0.9533	-0.397
Mof_O 	O 	0.9275	0.0912	0.9888	-0.383
Mof_O 	O 	0.8741	0.9905	0.0739	-0.366
Mof_O 	O 	0.4136	0.4156	0.0235	-0.42
Mof_O 	O 	0.3713	0.5379	0.0587	-0.417
Mof_O 	O 	0.631	0.3051	0.0643	-0.921
Mof_C 	C 	0.9523	0.9512	0.7546	0.26
Mof_C 	C 	0.0828	0.9815	0.7166	0.286
Mof_C 	C 	0.7095	0.1951	0.8667	0.28
Mof_C 	C 	0.8129	0.2644	0.8836	0.29
Mof_C 	C 	0.2602	0.2349	0.8225	0.3
Mof_C 	C 	0.2671	0.2226	0.928	0.282
Mof_C 	C 	0.9422	0.0242	0.0181	0.278
Mof_C 	C 	0.4383	0.4866	0.0242	0.271
Mof_H 	H 	0.607	0.318	0.115	0.447
Mof_H 	H 	0.691	0.314	0.029	0.34
_end
