data_functionalizedCrystal
_audit_creation_method	'EQeq! by Chris Wilmer'
_symmetry_space_group_name_H-M	'P1'
_symmetry_Int_Tables_number	1
_symmetry_cell_setting	triclinic
loop_
_symmetry_equiv_pos_as_xyz
  x,y,z
_cell_length_a	31.955
_cell_length_b	65.386
_cell_length_c	12.957
_cell_angle_alpha	90
_cell_angle_beta	90
_cell_angle_gamma	90
loop_
_atom_site_label
_atom_site_type_symbol
_atom_site_fract_x
_atom_site_fract_y
_atom_site_fract_z
_atom_site_charge
Mof_Fe	Fe	0.80368	0.88605	0.25108	0.911
Mof_Fe	Fe	0.55461	0.86187	0.99603	0.917
Mof_Ba	Ba	0.5052	0.00037	0.66897	0.801
Mof_C 	C 	0.8952	0.95898	0.3061	-0.147
Mof_C 	C 	0.8916	0.95477	0.1992	-0.02
Mof_H 	H 	0.9052	0.9632	0.1521	0.023
Mof_C 	C 	0.869	0.93888	0.1641	0.017
Mof_C 	C 	0.8527	0.92391	0.2286	0.187
Mof_C 	C 	0.857	0.92727	0.3388	-0.122
Mof_C 	C 	0.8808	0.9431	0.3714	0.049
Mof_H 	H 	0.8881	0.9436	0.4408	0.023
Mof_C 	C 	0.9205	0.9771	0.3382	0.455
Mof_C 	C 	0.8661	0.935	0.0399	-0.466
Mof_H 	H 	0.8794	0.9461	0.0042	0.164
Mof_H 	H 	0.8372	0.9342	0.0197	0.172
Mof_H 	H 	0.8799	0.9224	0.0229	0.162
Mof_C 	C 	0.8466	0.91136	0.4091	0.088
Mof_H 	H 	0.8544	0.9136	0.4773	0.002
Mof_C 	C 	0.8262	0.87904	0.4757	0.047
Mof_C 	C 	0.8194	0.88731	0.5826	-0.161
Mof_H 	H 	0.7941	0.8955	0.5846	0.075
Mof_H 	H 	0.8428	0.8959	0.6026	0.08
Mof_C 	C 	0.8155	0.8684	0.6596	-0.075
Mof_H 	H 	0.8417	0.8609	0.6602	0.049
Mof_H 	H 	0.8104	0.8734	0.7289	0.03
Mof_C 	C 	0.782	0.8549	0.6293	-0.052
Mof_H 	H 	0.7557	0.8623	0.6301	0.035
Mof_H 	H 	0.7799	0.8437	0.6783	0.031
Mof_C 	C 	0.7899	0.84606	0.5185	-0.175
Mof_H 	H 	0.8163	0.8387	0.5166	0.086
Mof_H 	H 	0.7677	0.8367	0.4996	0.087
Mof_C 	C 	0.791	0.86382	0.4449	0.048
Mof_C 	C 	0.8034	0.83544	0.1992	-0.085
Mof_C 	C 	0.7978	0.81474	0.171	0.008
Mof_H 	H 	0.7908	0.8054	0.2223	0.016
Mof_C 	C 	0.802	0.80784	0.0729	-0.081
Mof_C 	C 	0.8173	0.82264	0.002	-0.117
Mof_H 	H 	0.8224	0.8182	0.935	0.069
Mof_C 	C 	0.8254	0.84318	0.0228	0.128
Mof_C 	C 	0.81752	0.84962	0.1206	0.106
Mof_C 	C 	0.7982	0.84077	0.3031	0.077
Mof_H 	H 	0.7933	0.8302	0.3498	0.004
Mof_C 	C 	0.7961	0.78719	0.0398	0.317
Mof_C 	C 	0.8413	0.85771	0.9438	-0.619
Mof_H 	H 	0.8437	0.8711	0.9735	0.219
Mof_H 	H 	0.8223	0.8581	0.8865	0.201
Mof_H 	H 	0.8683	0.8533	0.9202	0.197
Mof_C 	C 	0.653	0.79102	0.0398	0.053
Mof_C 	C 	0.6338	0.80304	0.1114	-0.107
Mof_H 	H 	0.6356	0.7998	0.1812	0.077
Mof_C 	C 	0.6105	0.82095	0.0786	0.001
Mof_C 	C 	0.606	0.82364	0.9728	0.006
Mof_C 	C 	0.6259	0.81082	0.8972	0.326
Mof_C 	C 	0.6464	0.7943	0.9368	-0.28
Mof_H 	H 	0.6566	0.7846	0.8907	0.149
Mof_C 	C 	0.676	0.77378	0.0812	0.246
Mof_C 	C 	0.593	0.83336	0.1559	0.02
Mof_H 	H 	0.5964	0.8292	0.224	0.022
Mof_C 	C 	0.6167	0.81332	0.7904	-0.919
Mof_H 	H 	0.6005	0.8255	0.7807	0.309
Mof_H 	H 	0.6011	0.8017	0.7662	0.301
Mof_H 	H 	0.6424	0.8144	0.7522	0.297
Mof_C 	C 	0.5533	0.86277	0.222	0.042
Mof_C 	C 	0.564	0.85668	0.3294	-0.167
Mof_H 	H 	0.5939	0.8578	0.34	0.085
Mof_H 	H 	0.5558	0.8426	0.341	0.074
Mof_C 	C 	0.5411	0.87059	0.4054	-0.062
Mof_H 	H 	0.5481	0.8669	0.4758	0.026
Mof_H 	H 	0.5111	0.8693	0.3966	0.035
Mof_C 	C 	0.5561	0.894	0.3816	-0.073
Mof_H 	H 	0.5422	0.9033	0.4289	0.031
Mof_H 	H 	0.586	0.8952	0.3926	0.047
Mof_C 	C 	0.5459	0.89998	0.2729	-0.157
Mof_H 	H 	0.556	0.9137	0.2597	0.072
Mof_H 	H 	0.5158	0.8999	0.2633	0.075
Mof_C 	C 	0.5661	0.88519	0.197	0.05
Mof_C 	C 	0.5529	0.91248	0.9446	-0.084
Mof_C 	C 	0.56368	0.8979	0.865	0.127
Mof_C 	C 	0.5679	0.90521	0.7655	0.089
Mof_C 	C 	0.5578	0.92499	0.7424	-0.093
Mof_H 	H 	0.5599	0.9294	0.6743	0.06
Mof_C 	C 	0.5446	0.93893	0.8178	-0.089
Mof_C 	C 	0.5432	0.9321	0.9187	0.011
Mof_H 	H 	0.5353	0.9412	0.9705	0.018
Mof_C 	C 	0.554	0.90645	0.053	0.056
Mof_H 	H 	0.5501	0.9167	0.1017	0.007
Mof_C 	C 	0.5832	0.8904	0.6823	-0.548
Mof_H 	H 	0.5889	0.8773	0.7129	0.193
Mof_H 	H 	0.6084	0.8957	0.6516	0.177
Mof_H 	H 	0.5621	0.8889	0.6302	0.18
Mof_C 	C 	0.5273	0.96002	0.786	0.39
Mof_N 	N 	0.57269	0.8501	0.1403	-0.185
Mof_N 	N 	0.55986	0.88819	0.0873	-0.196
Mof_N 	N 	0.79942	0.8584	0.3377	-0.198
Mof_N 	N 	0.82816	0.89465	0.3923	-0.207
Mof_O 	O 	0.5382	0.9671	0.697	-0.438
Mof_O 	O 	0.5216	0.973	0.8495	-0.502
Mof_O 	O 	0.58377	0.83978	0.9339	-0.319
Mof_O 	O 	0.57177	0.87893	0.8853	-0.351
Mof_O 	O 	0.83355	0.90896	0.192	-0.353
Mof_O 	O 	0.82308	0.86901	0.1421	-0.344
Mof_O 	O 	0.9326	0.98927	0.2787	-0.472
Mof_O 	O 	0.9269	0.97862	0.4323	-0.414
Mof_O 	O 	0.6826	0.77105	0.171	-0.387
Mof_O 	O 	0.6896	0.76012	0.9993	-0.194
Mof_O 	O 	0.7828	0.77367	0.0999	-0.391
Mof_O 	O 	0.7898	0.783	0.9381	-0.209
Mof_Fe	Fe	0.80368	0.38605	0.75108	0.91
Mof_Fe	Fe	0.55461	0.36187	0.49603	0.915
Mof_Ba	Ba	0.5052	0.50037	0.16897	0.801
Mof_C 	C 	0.8952	0.45898	0.8061	-0.146
Mof_C 	C 	0.8916	0.45477	0.6992	-0.021
Mof_H 	H 	0.9052	0.4632	0.6521	0.023
Mof_C 	C 	0.869	0.43888	0.6641	0.017
Mof_C 	C 	0.8527	0.42391	0.7286	0.187
Mof_C 	C 	0.857	0.42727	0.8388	-0.121
Mof_C 	C 	0.8808	0.4431	0.8714	0.049
Mof_H 	H 	0.8881	0.4436	0.9408	0.024
Mof_C 	C 	0.9205	0.4771	0.8382	0.455
Mof_C 	C 	0.8661	0.435	0.5399	-0.467
Mof_H 	H 	0.8794	0.4461	0.5042	0.164
Mof_H 	H 	0.8372	0.4342	0.5197	0.173
Mof_H 	H 	0.8799	0.4224	0.5229	0.162
Mof_C 	C 	0.8466	0.41136	0.9091	0.088
Mof_H 	H 	0.8544	0.4136	0.9773	0.002
Mof_C 	C 	0.8262	0.37904	0.9757	0.048
Mof_C 	C 	0.8194	0.38731	0.0826	-0.161
Mof_H 	H 	0.7941	0.3955	0.0846	0.075
Mof_H 	H 	0.8428	0.3959	0.1026	0.08
Mof_C 	C 	0.8155	0.3684	0.1596	-0.075
Mof_H 	H 	0.8417	0.3609	0.1602	0.049
Mof_H 	H 	0.8104	0.3734	0.2289	0.03
Mof_C 	C 	0.782	0.3549	0.1293	-0.051
Mof_H 	H 	0.7557	0.3623	0.1301	0.035
Mof_H 	H 	0.7799	0.3437	0.1783	0.031
Mof_C 	C 	0.7899	0.34606	0.0185	-0.176
Mof_H 	H 	0.8163	0.3387	0.0166	0.087
Mof_H 	H 	0.7677	0.3367	0.9996	0.087
Mof_C 	C 	0.791	0.36382	0.9449	0.049
Mof_C 	C 	0.8034	0.33544	0.6992	-0.085
Mof_C 	C 	0.7978	0.31474	0.671	0.009
Mof_H 	H 	0.7908	0.3054	0.7223	0.016
Mof_C 	C 	0.802	0.30784	0.5729	-0.082
Mof_C 	C 	0.8173	0.32264	0.502	-0.114
Mof_H 	H 	0.8224	0.3182	0.435	0.068
Mof_C 	C 	0.8254	0.34318	0.5228	0.129
Mof_C 	C 	0.81752	0.34962	0.6206	0.106
Mof_C 	C 	0.7982	0.34077	0.8031	0.077
Mof_H 	H 	0.7933	0.3302	0.8498	0.004
Mof_C 	C 	0.7961	0.28719	0.5398	0.319
Mof_C 	C 	0.8413	0.35771	0.4438	-0.621
Mof_H 	H 	0.8437	0.3711	0.4735	0.219
Mof_H 	H 	0.8223	0.3581	0.3865	0.202
Mof_H 	H 	0.8683	0.3533	0.4202	0.197
Mof_C 	C 	0.653	0.29102	0.5398	0.057
Mof_C 	C 	0.6338	0.30304	0.6114	-0.11
Mof_H 	H 	0.6356	0.2998	0.6812	0.078
Mof_C 	C 	0.6105	0.32095	0.5786	0.004
Mof_C 	C 	0.606	0.32364	0.4728	0.002
Mof_C 	C 	0.6259	0.31082	0.3972	0.329
Mof_C 	C 	0.6464	0.2943	0.4368	-0.284
Mof_H 	H 	0.6566	0.2846	0.3907	0.15
Mof_C 	C 	0.676	0.27378	0.5812	0.246
Mof_C 	C 	0.593	0.33336	0.6559	0.019
Mof_H 	H 	0.5964	0.3292	0.724	0.023
Mof_C 	C 	0.6167	0.31332	0.2904	-0.924
Mof_H 	H 	0.6005	0.3255	0.2807	0.31
Mof_H 	H 	0.6011	0.3017	0.2662	0.302
Mof_H 	H 	0.6424	0.3144	0.2522	0.298
Mof_C 	C 	0.5533	0.36277	0.722	0.042
Mof_C 	C 	0.564	0.35668	0.8294	-0.167
Mof_H 	H 	0.5939	0.3578	0.84	0.085
Mof_H 	H 	0.5558	0.3426	0.841	0.074
Mof_C 	C 	0.5411	0.37059	0.9054	-0.062
Mof_H 	H 	0.5481	0.3669	0.9758	0.026
Mof_H 	H 	0.5111	0.3693	0.8966	0.036
Mof_C 	C 	0.5561	0.394	0.8816	-0.073
Mof_H 	H 	0.5422	0.4033	0.9289	0.031
Mof_H 	H 	0.586	0.3952	0.8926	0.047
Mof_C 	C 	0.5459	0.39998	0.7729	-0.157
Mof_H 	H 	0.556	0.4137	0.7597	0.072
Mof_H 	H 	0.5158	0.3999	0.7633	0.075
Mof_C 	C 	0.5661	0.38519	0.697	0.05
Mof_C 	C 	0.5529	0.41248	0.4446	-0.088
Mof_C 	C 	0.56368	0.3979	0.365	0.128
Mof_C 	C 	0.5679	0.40521	0.2655	0.087
Mof_C 	C 	0.5578	0.42499	0.2424	-0.091
Mof_H 	H 	0.5599	0.4294	0.1743	0.059
Mof_C 	C 	0.5446	0.43893	0.3178	-0.09
Mof_C 	C 	0.5432	0.4321	0.4187	0.013
Mof_H 	H 	0.5353	0.4412	0.4705	0.016
Mof_C 	C 	0.554	0.40645	0.553	0.059
Mof_H 	H 	0.5501	0.4167	0.6017	0.006
Mof_C 	C 	0.5832	0.3904	0.1823	-0.547
Mof_H 	H 	0.5889	0.3773	0.2129	0.192
Mof_H 	H 	0.6084	0.3957	0.1516	0.176
Mof_H 	H 	0.5621	0.3889	0.1302	0.179
Mof_C 	C 	0.5273	0.46002	0.286	0.391
Mof_N 	N 	0.57269	0.3501	0.6403	-0.184
Mof_N 	N 	0.55986	0.38819	0.5873	-0.196
Mof_N 	N 	0.79942	0.3584	0.8377	-0.198
Mof_N 	N 	0.82816	0.39465	0.8923	-0.207
Mof_O 	O 	0.5382	0.4671	0.197	-0.439
Mof_O 	O 	0.5216	0.473	0.3495	-0.503
Mof_O 	O 	0.58377	0.33978	0.4339	-0.318
Mof_O 	O 	0.57177	0.37893	0.3853	-0.351
Mof_O 	O 	0.83355	0.40896	0.692	-0.353
Mof_O 	O 	0.82308	0.36901	0.6421	-0.344
Mof_O 	O 	0.9326	0.48927	0.7787	-0.471
Mof_O 	O 	0.9269	0.47862	0.9323	-0.413
Mof_O 	O 	0.6826	0.27105	0.671	-0.387
Mof_O 	O 	0.6896	0.26012	0.4993	-0.194
Mof_O 	O 	0.7828	0.27367	0.5999	-0.391
Mof_O 	O 	0.7898	0.283	0.4381	-0.21
Mof_Fe	Fe	0.30368	0.88605	0.75108	0.911
Mof_Fe	Fe	0.05461	0.86187	0.49603	0.914
Mof_Ba	Ba	0.0052	0.00037	0.16897	0.841
Mof_C 	C 	0.3952	0.95898	0.8061	-0.147
Mof_C 	C 	0.3916	0.95477	0.6992	-0.02
Mof_H 	H 	0.4052	0.9632	0.6521	0.022
Mof_C 	C 	0.369	0.93888	0.6641	0.017
Mof_C 	C 	0.3527	0.92391	0.7286	0.187
Mof_C 	C 	0.357	0.92727	0.8388	-0.122
Mof_C 	C 	0.3808	0.9431	0.8714	0.049
Mof_H 	H 	0.3881	0.9436	0.9408	0.023
Mof_C 	C 	0.4205	0.9771	0.8382	0.456
Mof_C 	C 	0.3661	0.935	0.5399	-0.466
Mof_H 	H 	0.3794	0.9461	0.5042	0.164
Mof_H 	H 	0.3372	0.9342	0.5197	0.173
Mof_H 	H 	0.3799	0.9224	0.5229	0.162
Mof_C 	C 	0.3466	0.91136	0.9091	0.088
Mof_H 	H 	0.3544	0.9136	0.9773	0.002
Mof_C 	C 	0.3262	0.87904	0.9757	0.048
Mof_C 	C 	0.3194	0.88731	0.0826	-0.161
Mof_H 	H 	0.2941	0.8955	0.0846	0.075
Mof_H 	H 	0.3428	0.8959	0.1026	0.08
Mof_C 	C 	0.3155	0.8684	0.1596	-0.075
Mof_H 	H 	0.3417	0.8609	0.1602	0.049
Mof_H 	H 	0.3104	0.8734	0.2289	0.03
Mof_C 	C 	0.282	0.8549	0.1293	-0.051
Mof_H 	H 	0.2557	0.8623	0.1301	0.035
Mof_H 	H 	0.2799	0.8437	0.1783	0.031
Mof_C 	C 	0.2899	0.84606	0.0185	-0.177
Mof_H 	H 	0.3163	0.8387	0.0166	0.087
Mof_H 	H 	0.2677	0.8367	0.9996	0.088
Mof_C 	C 	0.291	0.86382	0.9449	0.049
Mof_C 	C 	0.3034	0.83544	0.6992	-0.086
Mof_C 	C 	0.2978	0.81474	0.671	0.009
Mof_H 	H 	0.2908	0.8054	0.7223	0.016
Mof_C 	C 	0.302	0.80784	0.5729	-0.082
Mof_C 	C 	0.3173	0.82264	0.502	-0.114
Mof_H 	H 	0.3224	0.8182	0.435	0.068
Mof_C 	C 	0.3254	0.84318	0.5228	0.128
Mof_C 	C 	0.31752	0.84962	0.6206	0.106
Mof_C 	C 	0.2982	0.84077	0.8031	0.077
Mof_H 	H 	0.2933	0.8302	0.8498	0.004
Mof_C 	C 	0.2961	0.78719	0.5398	0.319
Mof_C 	C 	0.3413	0.85771	0.4438	-0.62
Mof_H 	H 	0.3437	0.8711	0.4735	0.218
Mof_H 	H 	0.3223	0.8581	0.3865	0.201
Mof_H 	H 	0.3683	0.8533	0.4202	0.196
Mof_C 	C 	0.153	0.79102	0.5398	0.056
Mof_C 	C 	0.1338	0.80304	0.6114	-0.11
Mof_H 	H 	0.1356	0.7998	0.6812	0.077
Mof_C 	C 	0.1105	0.82095	0.5786	0.004
Mof_C 	C 	0.106	0.82364	0.4728	0.003
Mof_C 	C 	0.1259	0.81082	0.3972	0.327
Mof_C 	C 	0.1464	0.7943	0.4368	-0.283
Mof_H 	H 	0.1566	0.7846	0.3907	0.15
Mof_C 	C 	0.176	0.77378	0.5812	0.246
Mof_C 	C 	0.093	0.83336	0.6559	0.019
Mof_H 	H 	0.0964	0.8292	0.724	0.023
Mof_C 	C 	0.1167	0.81332	0.2904	-0.92
Mof_H 	H 	0.1005	0.8255	0.2807	0.308
Mof_H 	H 	0.1011	0.8017	0.2662	0.3
Mof_H 	H 	0.1424	0.8144	0.2522	0.297
Mof_C 	C 	0.0533	0.86277	0.722	0.041
Mof_C 	C 	0.064	0.85668	0.8294	-0.168
Mof_H 	H 	0.0939	0.8578	0.84	0.086
Mof_H 	H 	0.0558	0.8426	0.841	0.073
Mof_C 	C 	0.0411	0.87059	0.9054	-0.06
Mof_H 	H 	0.0481	0.8669	0.9758	0.025
Mof_H 	H 	0.0111	0.8693	0.8966	0.033
Mof_C 	C 	0.0561	0.894	0.8816	-0.075
Mof_H 	H 	0.0422	0.9033	0.9289	0.03
Mof_H 	H 	0.086	0.8952	0.8926	0.048
Mof_C 	C 	0.0459	0.89998	0.7729	-0.155
Mof_H 	H 	0.056	0.9137	0.7597	0.07
Mof_H 	H 	0.0158	0.8999	0.7633	0.072
Mof_C 	C 	0.0661	0.88519	0.697	0.05
Mof_C 	C 	0.0529	0.91248	0.4446	-0.089
Mof_C 	C 	0.06368	0.8979	0.365	0.128
Mof_C 	C 	0.0679	0.90521	0.2655	0.085
Mof_C 	C 	0.0578	0.92499	0.2424	-0.091
Mof_H 	H 	0.0599	0.9294	0.1743	0.058
Mof_C 	C 	0.0446	0.93893	0.3178	-0.091
Mof_C 	C 	0.0432	0.9321	0.4187	0.013
Mof_H 	H 	0.0353	0.9412	0.4705	0.015
Mof_C 	C 	0.054	0.90645	0.553	0.058
Mof_H 	H 	0.0501	0.9167	0.6017	0.005
Mof_C 	C 	0.0832	0.8904	0.1823	-0.544
Mof_H 	H 	0.0889	0.8773	0.2129	0.191
Mof_H 	H 	0.1084	0.8957	0.1516	0.175
Mof_H 	H 	0.0621	0.8889	0.1302	0.177
Mof_C 	C 	0.0273	0.96002	0.286	0.39
Mof_N 	N 	0.07269	0.8501	0.6403	-0.184
Mof_N 	N 	0.05986	0.88819	0.5873	-0.196
Mof_N 	N 	0.29942	0.8584	0.8377	-0.198
Mof_N 	N 	0.32816	0.89465	0.8923	-0.207
Mof_O 	O 	0.0382	0.9671	0.197	-0.441
Mof_O 	O 	0.0216	0.973	0.3495	-0.504
Mof_O 	O 	0.08377	0.83978	0.4339	-0.319
Mof_O 	O 	0.07177	0.87893	0.3853	-0.352
Mof_O 	O 	0.33355	0.90896	0.692	-0.353
Mof_O 	O 	0.32308	0.86901	0.6421	-0.344
Mof_O 	O 	0.4326	0.98927	0.7787	-0.475
Mof_O 	O 	0.4269	0.97862	0.9323	-0.415
Mof_O 	O 	0.1826	0.77105	0.671	-0.387
Mof_O 	O 	0.1896	0.76012	0.4993	-0.195
Mof_O 	O 	0.2828	0.77367	0.5999	-0.392
Mof_O 	O 	0.2898	0.783	0.4381	-0.21
Mof_Fe	Fe	0.30368	0.38605	0.25108	0.911
Mof_Fe	Fe	0.05461	0.36187	0.99603	0.917
Mof_Ba	Ba	0.0052	0.50037	0.66897	0.841
Mof_C 	C 	0.3952	0.45898	0.3061	-0.148
Mof_C 	C 	0.3916	0.45477	0.1992	-0.019
Mof_H 	H 	0.4052	0.4632	0.1521	0.022
Mof_C 	C 	0.369	0.43888	0.1641	0.016
Mof_C 	C 	0.3527	0.42391	0.2286	0.187
Mof_C 	C 	0.357	0.42727	0.3388	-0.122
Mof_C 	C 	0.3808	0.4431	0.3714	0.05
Mof_H 	H 	0.3881	0.4436	0.4408	0.023
Mof_C 	C 	0.4205	0.4771	0.3382	0.456
Mof_C 	C 	0.3661	0.435	0.0399	-0.465
Mof_H 	H 	0.3794	0.4461	0.0042	0.163
Mof_H 	H 	0.3372	0.4342	0.0197	0.172
Mof_H 	H 	0.3799	0.4224	0.0229	0.161
Mof_C 	C 	0.3466	0.41136	0.4091	0.088
Mof_H 	H 	0.3544	0.4136	0.4773	0.002
Mof_C 	C 	0.3262	0.37904	0.4757	0.047
Mof_C 	C 	0.3194	0.38731	0.5826	-0.161
Mof_H 	H 	0.2941	0.3955	0.5846	0.075
Mof_H 	H 	0.3428	0.3959	0.6026	0.08
Mof_C 	C 	0.3155	0.3684	0.6596	-0.075
Mof_H 	H 	0.3417	0.3609	0.6602	0.049
Mof_H 	H 	0.3104	0.3734	0.7289	0.03
Mof_C 	C 	0.282	0.3549	0.6293	-0.052
Mof_H 	H 	0.2557	0.3623	0.6301	0.035
Mof_H 	H 	0.2799	0.3437	0.6783	0.031
Mof_C 	C 	0.2899	0.34606	0.5185	-0.175
Mof_H 	H 	0.3163	0.3387	0.5166	0.086
Mof_H 	H 	0.2677	0.3367	0.4996	0.087
Mof_C 	C 	0.291	0.36382	0.4449	0.048
Mof_C 	C 	0.3034	0.33544	0.1992	-0.085
Mof_C 	C 	0.2978	0.31474	0.171	0.008
Mof_H 	H 	0.2908	0.3054	0.2223	0.016
Mof_C 	C 	0.302	0.30784	0.0729	-0.081
Mof_C 	C 	0.3173	0.32264	0.002	-0.117
Mof_H 	H 	0.3224	0.3182	0.935	0.069
Mof_C 	C 	0.3254	0.34318	0.0228	0.128
Mof_C 	C 	0.31752	0.34962	0.1206	0.106
Mof_C 	C 	0.2982	0.34077	0.3031	0.077
Mof_H 	H 	0.2933	0.3302	0.3498	0.004
Mof_C 	C 	0.2961	0.28719	0.0398	0.317
Mof_C 	C 	0.3413	0.35771	0.9438	-0.618
Mof_H 	H 	0.3437	0.3711	0.9735	0.218
Mof_H 	H 	0.3223	0.3581	0.8865	0.201
Mof_H 	H 	0.3683	0.3533	0.9202	0.196
Mof_C 	C 	0.153	0.29102	0.0398	0.052
Mof_C 	C 	0.1338	0.30304	0.1114	-0.107
Mof_H 	H 	0.1356	0.2998	0.1812	0.076
Mof_C 	C 	0.1105	0.32095	0.0786	0
Mof_C 	C 	0.106	0.32364	0.9728	0.006
Mof_C 	C 	0.1259	0.31082	0.8972	0.324
Mof_C 	C 	0.1464	0.2943	0.9368	-0.279
Mof_H 	H 	0.1566	0.2846	0.8907	0.148
Mof_C 	C 	0.176	0.27378	0.0812	0.246
Mof_C 	C 	0.093	0.33336	0.1559	0.02
Mof_H 	H 	0.0964	0.3292	0.224	0.022
Mof_C 	C 	0.1167	0.31332	0.7904	-0.916
Mof_H 	H 	0.1005	0.3255	0.7807	0.307
Mof_H 	H 	0.1011	0.3017	0.7662	0.299
Mof_H 	H 	0.1424	0.3144	0.7522	0.296
Mof_C 	C 	0.0533	0.36277	0.222	0.041
Mof_C 	C 	0.064	0.35668	0.3294	-0.168
Mof_H 	H 	0.0939	0.3578	0.34	0.086
Mof_H 	H 	0.0558	0.3426	0.341	0.073
Mof_C 	C 	0.0411	0.37059	0.4054	-0.06
Mof_H 	H 	0.0481	0.3669	0.4758	0.024
Mof_H 	H 	0.0111	0.3693	0.3966	0.032
Mof_C 	C 	0.0561	0.394	0.3816	-0.075
Mof_H 	H 	0.0422	0.4033	0.4289	0.03
Mof_H 	H 	0.086	0.3952	0.3926	0.048
Mof_C 	C 	0.0459	0.39998	0.2729	-0.155
Mof_H 	H 	0.056	0.4137	0.2597	0.07
Mof_H 	H 	0.0158	0.3999	0.2633	0.072
Mof_C 	C 	0.0661	0.38519	0.197	0.049
Mof_C 	C 	0.0529	0.41248	0.9446	-0.086
Mof_C 	C 	0.06368	0.3979	0.865	0.127
Mof_C 	C 	0.0679	0.40521	0.7655	0.087
Mof_C 	C 	0.0578	0.42499	0.7424	-0.092
Mof_H 	H 	0.0599	0.4294	0.6743	0.059
Mof_C 	C 	0.0446	0.43893	0.8178	-0.09
Mof_C 	C 	0.0432	0.4321	0.9187	0.011
Mof_H 	H 	0.0353	0.4412	0.9705	0.017
Mof_C 	C 	0.054	0.40645	0.053	0.055
Mof_H 	H 	0.0501	0.4167	0.1017	0.006
Mof_C 	C 	0.0832	0.3904	0.6823	-0.545
Mof_H 	H 	0.0889	0.3773	0.7129	0.192
Mof_H 	H 	0.1084	0.3957	0.6516	0.176
Mof_H 	H 	0.0621	0.3889	0.6302	0.178
Mof_C 	C 	0.0273	0.46002	0.786	0.389
Mof_N 	N 	0.07269	0.3501	0.1403	-0.185
Mof_N 	N 	0.05986	0.38819	0.0873	-0.196
Mof_N 	N 	0.29942	0.3584	0.3377	-0.198
Mof_N 	N 	0.32816	0.39465	0.3923	-0.207
Mof_O 	O 	0.0382	0.4671	0.697	-0.44
Mof_O 	O 	0.0216	0.473	0.8495	-0.503
Mof_O 	O 	0.08377	0.33978	0.9339	-0.319
Mof_O 	O 	0.07177	0.37893	0.8853	-0.351
Mof_O 	O 	0.33355	0.40896	0.192	-0.353
Mof_O 	O 	0.32308	0.36901	0.1421	-0.344
Mof_O 	O 	0.4326	0.48927	0.2787	-0.475
Mof_O 	O 	0.4269	0.47862	0.4323	-0.417
Mof_O 	O 	0.1826	0.27105	0.171	-0.387
Mof_O 	O 	0.1896	0.26012	0.9993	-0.194
Mof_O 	O 	0.2828	0.27367	0.0999	-0.391
Mof_O 	O 	0.2898	0.283	0.9381	-0.209
Mof_Fe	Fe	0.19632	0.11395	0.25108	0.911
Mof_Fe	Fe	0.44539	0.13813	0.99603	0.918
Mof_Ba	Ba	0.4948	0.99963	0.66897	0.801
Mof_C 	C 	0.1048	0.04102	0.3061	-0.149
Mof_C 	C 	0.1084	0.04523	0.1992	-0.019
Mof_H 	H 	0.0948	0.0368	0.1521	0.021
Mof_C 	C 	0.131	0.06112	0.1641	0.015
Mof_C 	C 	0.1473	0.07609	0.2286	0.188
Mof_C 	C 	0.143	0.07273	0.3388	-0.122
Mof_C 	C 	0.1192	0.0569	0.3714	0.05
Mof_H 	H 	0.1119	0.0564	0.4408	0.023
Mof_C 	C 	0.0795	0.0229	0.3382	0.456
Mof_C 	C 	0.1339	0.065	0.0399	-0.464
Mof_H 	H 	0.1206	0.0539	0.0042	0.163
Mof_H 	H 	0.1628	0.0658	0.0197	0.172
Mof_H 	H 	0.1201	0.0776	0.0229	0.161
Mof_C 	C 	0.1534	0.08864	0.4091	0.089
Mof_H 	H 	0.1456	0.0864	0.4773	0.002
Mof_C 	C 	0.1738	0.12096	0.4757	0.048
Mof_C 	C 	0.1806	0.11269	0.5826	-0.161
Mof_H 	H 	0.2059	0.1045	0.5846	0.075
Mof_H 	H 	0.1572	0.1041	0.6026	0.08
Mof_C 	C 	0.1845	0.1316	0.6596	-0.075
Mof_H 	H 	0.1583	0.1391	0.6602	0.049
Mof_H 	H 	0.1896	0.1266	0.7289	0.03
Mof_C 	C 	0.218	0.1451	0.6293	-0.052
Mof_H 	H 	0.2443	0.1377	0.6301	0.035
Mof_H 	H 	0.2201	0.1563	0.6783	0.031
Mof_C 	C 	0.2101	0.15394	0.5185	-0.175
Mof_H 	H 	0.1837	0.1613	0.5166	0.087
Mof_H 	H 	0.2323	0.1633	0.4996	0.087
Mof_C 	C 	0.209	0.13618	0.4449	0.048
Mof_C 	C 	0.1966	0.16456	0.1992	-0.085
Mof_C 	C 	0.2022	0.18526	0.171	0.008
Mof_H 	H 	0.2092	0.1946	0.2223	0.016
Mof_C 	C 	0.198	0.19216	0.0729	-0.081
Mof_C 	C 	0.1827	0.17736	0.002	-0.117
Mof_H 	H 	0.1776	0.1818	0.935	0.069
Mof_C 	C 	0.1746	0.15682	0.0228	0.128
Mof_C 	C 	0.18248	0.15038	0.1206	0.106
Mof_C 	C 	0.2018	0.15923	0.3031	0.077
Mof_H 	H 	0.2067	0.1698	0.3498	0.004
Mof_C 	C 	0.2039	0.21281	0.0398	0.317
Mof_C 	C 	0.1587	0.14229	0.9438	-0.618
Mof_H 	H 	0.1563	0.1289	0.9735	0.218
Mof_H 	H 	0.1777	0.1419	0.8865	0.201
Mof_H 	H 	0.1317	0.1467	0.9202	0.196
Mof_C 	C 	0.347	0.20898	0.0398	0.053
Mof_C 	C 	0.3662	0.19696	0.1114	-0.107
Mof_H 	H 	0.3644	0.2002	0.1812	0.077
Mof_C 	C 	0.3895	0.17905	0.0786	0.001
Mof_C 	C 	0.394	0.17636	0.9728	0.006
Mof_C 	C 	0.3741	0.18918	0.8972	0.325
Mof_C 	C 	0.3536	0.2057	0.9368	-0.28
Mof_H 	H 	0.3434	0.2154	0.8907	0.149
Mof_C 	C 	0.324	0.22622	0.0812	0.246
Mof_C 	C 	0.407	0.16664	0.1559	0.02
Mof_H 	H 	0.4036	0.1708	0.224	0.022
Mof_C 	C 	0.3833	0.18668	0.7904	-0.919
Mof_H 	H 	0.3995	0.1745	0.7807	0.309
Mof_H 	H 	0.3989	0.1983	0.7662	0.301
Mof_H 	H 	0.3576	0.1856	0.7522	0.297
Mof_C 	C 	0.4467	0.13723	0.222	0.042
Mof_C 	C 	0.436	0.14332	0.3294	-0.167
Mof_H 	H 	0.4061	0.1422	0.34	0.085
Mof_H 	H 	0.4442	0.1574	0.341	0.074
Mof_C 	C 	0.4589	0.12941	0.4054	-0.062
Mof_H 	H 	0.4519	0.1331	0.4758	0.026
Mof_H 	H 	0.4889	0.1307	0.3966	0.035
Mof_C 	C 	0.4439	0.106	0.3816	-0.073
Mof_H 	H 	0.4578	0.0967	0.4289	0.031
Mof_H 	H 	0.414	0.1048	0.3926	0.047
Mof_C 	C 	0.4541	0.10002	0.2729	-0.157
Mof_H 	H 	0.444	0.0863	0.2597	0.072
Mof_H 	H 	0.4842	0.1001	0.2633	0.075
Mof_C 	C 	0.4339	0.11481	0.197	0.05
Mof_C 	C 	0.4471	0.08752	0.9446	-0.084
Mof_C 	C 	0.43632	0.1021	0.865	0.127
Mof_C 	C 	0.4321	0.09479	0.7655	0.089
Mof_C 	C 	0.4422	0.07501	0.7424	-0.093
Mof_H 	H 	0.4401	0.0706	0.6743	0.06
Mof_C 	C 	0.4554	0.06107	0.8178	-0.089
Mof_C 	C 	0.4568	0.0679	0.9187	0.011
Mof_H 	H 	0.4647	0.0588	0.9705	0.018
Mof_C 	C 	0.446	0.09355	0.053	0.056
Mof_H 	H 	0.4499	0.0833	0.1017	0.007
Mof_C 	C 	0.4168	0.1096	0.6823	-0.548
Mof_H 	H 	0.4111	0.1227	0.7129	0.193
Mof_H 	H 	0.3916	0.1043	0.6516	0.177
Mof_H 	H 	0.4379	0.1111	0.6302	0.18
Mof_C 	C 	0.4727	0.03998	0.786	0.39
Mof_N 	N 	0.42731	0.1499	0.1403	-0.185
Mof_N 	N 	0.44014	0.11181	0.0873	-0.196
Mof_N 	N 	0.20058	0.1416	0.3377	-0.198
Mof_N 	N 	0.17184	0.10535	0.3923	-0.207
Mof_O 	O 	0.4618	0.0329	0.697	-0.438
Mof_O 	O 	0.4784	0.027	0.8495	-0.502
Mof_O 	O 	0.41623	0.16022	0.9339	-0.319
Mof_O 	O 	0.42823	0.12107	0.8853	-0.351
Mof_O 	O 	0.16645	0.09104	0.192	-0.353
Mof_O 	O 	0.17692	0.13099	0.1421	-0.344
Mof_O 	O 	0.0674	0.01073	0.2787	-0.477
Mof_O 	O 	0.0731	0.02138	0.4323	-0.417
Mof_O 	O 	0.3174	0.22895	0.171	-0.387
Mof_O 	O 	0.3104	0.23988	0.9993	-0.193
Mof_O 	O 	0.2172	0.22633	0.0999	-0.391
Mof_O 	O 	0.2102	0.217	0.9381	-0.209
Mof_Fe	Fe	0.19632	0.61395	0.75108	0.911
Mof_Fe	Fe	0.44539	0.63813	0.49603	0.915
Mof_Ba	Ba	0.4948	0.49963	0.16897	0.801
Mof_C 	C 	0.1048	0.54102	0.8061	-0.148
Mof_C 	C 	0.1084	0.54523	0.6992	-0.019
Mof_H 	H 	0.0948	0.5368	0.6521	0.022
Mof_C 	C 	0.131	0.56112	0.6641	0.016
Mof_C 	C 	0.1473	0.57609	0.7286	0.187
Mof_C 	C 	0.143	0.57273	0.8388	-0.122
Mof_C 	C 	0.1192	0.5569	0.8714	0.049
Mof_H 	H 	0.1119	0.5564	0.9408	0.023
Mof_C 	C 	0.0795	0.5229	0.8382	0.456
Mof_C 	C 	0.1339	0.565	0.5399	-0.466
Mof_H 	H 	0.1206	0.5539	0.5042	0.163
Mof_H 	H 	0.1628	0.5658	0.5197	0.173
Mof_H 	H 	0.1201	0.5776	0.5229	0.161
Mof_C 	C 	0.1534	0.58864	0.9091	0.088
Mof_H 	H 	0.1456	0.5864	0.9773	0.002
Mof_C 	C 	0.1738	0.62096	0.9757	0.048
Mof_C 	C 	0.1806	0.61269	0.0826	-0.161
Mof_H 	H 	0.2059	0.6045	0.0846	0.075
Mof_H 	H 	0.1572	0.6041	0.1026	0.08
Mof_C 	C 	0.1845	0.6316	0.1596	-0.075
Mof_H 	H 	0.1583	0.6391	0.1602	0.049
Mof_H 	H 	0.1896	0.6266	0.2289	0.03
Mof_C 	C 	0.218	0.6451	0.1293	-0.051
Mof_H 	H 	0.2443	0.6377	0.1301	0.035
Mof_H 	H 	0.2201	0.6563	0.1783	0.031
Mof_C 	C 	0.2101	0.65394	0.0185	-0.177
Mof_H 	H 	0.1837	0.6613	0.0166	0.087
Mof_H 	H 	0.2323	0.6633	0.9996	0.087
Mof_C 	C 	0.209	0.63618	0.9449	0.049
Mof_C 	C 	0.1966	0.66456	0.6992	-0.086
Mof_C 	C 	0.2022	0.68526	0.671	0.009
Mof_H 	H 	0.2092	0.6946	0.7223	0.016
Mof_C 	C 	0.198	0.69216	0.5729	-0.082
Mof_C 	C 	0.1827	0.67736	0.502	-0.114
Mof_H 	H 	0.1776	0.6818	0.435	0.068
Mof_C 	C 	0.1746	0.65682	0.5228	0.128
Mof_C 	C 	0.18248	0.65038	0.6206	0.106
Mof_C 	C 	0.2018	0.65923	0.8031	0.077
Mof_H 	H 	0.2067	0.6698	0.8498	0.004
Mof_C 	C 	0.2039	0.71281	0.5398	0.319
Mof_C 	C 	0.1587	0.64229	0.4438	-0.619
Mof_H 	H 	0.1563	0.6289	0.4735	0.218
Mof_H 	H 	0.1777	0.6419	0.3865	0.201
Mof_H 	H 	0.1317	0.6467	0.4202	0.196
Mof_C 	C 	0.347	0.70898	0.5398	0.057
Mof_C 	C 	0.3662	0.69696	0.6114	-0.11
Mof_H 	H 	0.3644	0.7002	0.6812	0.078
Mof_C 	C 	0.3895	0.67905	0.5786	0.004
Mof_C 	C 	0.394	0.67636	0.4728	0.002
Mof_C 	C 	0.3741	0.68918	0.3972	0.329
Mof_C 	C 	0.3536	0.7057	0.4368	-0.284
Mof_H 	H 	0.3434	0.7154	0.3907	0.15
Mof_C 	C 	0.324	0.72622	0.5812	0.246
Mof_C 	C 	0.407	0.66664	0.6559	0.019
Mof_H 	H 	0.4036	0.6708	0.724	0.023
Mof_C 	C 	0.3833	0.68668	0.2904	-0.924
Mof_H 	H 	0.3995	0.6745	0.2807	0.31
Mof_H 	H 	0.3989	0.6983	0.2662	0.302
Mof_H 	H 	0.3576	0.6856	0.2522	0.298
Mof_C 	C 	0.4467	0.63723	0.722	0.042
Mof_C 	C 	0.436	0.64332	0.8294	-0.167
Mof_H 	H 	0.4061	0.6422	0.84	0.085
Mof_H 	H 	0.4442	0.6574	0.841	0.074
Mof_C 	C 	0.4589	0.62941	0.9054	-0.062
Mof_H 	H 	0.4519	0.6331	0.9758	0.026
Mof_H 	H 	0.4889	0.6307	0.8966	0.036
Mof_C 	C 	0.4439	0.606	0.8816	-0.073
Mof_H 	H 	0.4578	0.5967	0.9289	0.031
Mof_H 	H 	0.414	0.6048	0.8926	0.047
Mof_C 	C 	0.4541	0.60002	0.7729	-0.157
Mof_H 	H 	0.444	0.5863	0.7597	0.072
Mof_H 	H 	0.4842	0.6001	0.7633	0.075
Mof_C 	C 	0.4339	0.61481	0.697	0.05
Mof_C 	C 	0.4471	0.58752	0.4446	-0.088
Mof_C 	C 	0.43632	0.6021	0.365	0.128
Mof_C 	C 	0.4321	0.59479	0.2655	0.087
Mof_C 	C 	0.4422	0.57501	0.2424	-0.091
Mof_H 	H 	0.4401	0.5706	0.1743	0.059
Mof_C 	C 	0.4554	0.56107	0.3178	-0.09
Mof_C 	C 	0.4568	0.5679	0.4187	0.013
Mof_H 	H 	0.4647	0.5588	0.4705	0.016
Mof_C 	C 	0.446	0.59355	0.553	0.059
Mof_H 	H 	0.4499	0.5833	0.6017	0.006
Mof_C 	C 	0.4168	0.6096	0.1823	-0.547
Mof_H 	H 	0.4111	0.6227	0.2129	0.192
Mof_H 	H 	0.3916	0.6043	0.1516	0.176
Mof_H 	H 	0.4379	0.6111	0.1302	0.179
Mof_C 	C 	0.4727	0.53998	0.286	0.391
Mof_N 	N 	0.42731	0.6499	0.6403	-0.184
Mof_N 	N 	0.44014	0.61181	0.5873	-0.196
Mof_N 	N 	0.20058	0.6416	0.8377	-0.198
Mof_N 	N 	0.17184	0.60535	0.8923	-0.207
Mof_O 	O 	0.4618	0.5329	0.197	-0.439
Mof_O 	O 	0.4784	0.527	0.3495	-0.503
Mof_O 	O 	0.41623	0.66022	0.4339	-0.318
Mof_O 	O 	0.42823	0.62107	0.3853	-0.351
Mof_O 	O 	0.16645	0.59104	0.692	-0.353
Mof_O 	O 	0.17692	0.63099	0.6421	-0.344
Mof_O 	O 	0.0674	0.51073	0.7787	-0.477
Mof_O 	O 	0.0731	0.52138	0.9323	-0.415
Mof_O 	O 	0.3174	0.72895	0.671	-0.387
Mof_O 	O 	0.3104	0.73988	0.4993	-0.194
Mof_O 	O 	0.2172	0.72633	0.5999	-0.392
Mof_O 	O 	0.2102	0.717	0.4381	-0.21
Mof_Fe	Fe	0.69632	0.11395	0.75108	0.911
Mof_Fe	Fe	0.94539	0.13813	0.49603	0.921
Mof_Ba	Ba	0.9948	0.99963	0.16897	0.761
Mof_C 	C 	0.6048	0.04102	0.8061	-0.147
Mof_C 	C 	0.6084	0.04523	0.6992	-0.02
Mof_H 	H 	0.5948	0.0368	0.6521	0.022
Mof_C 	C 	0.631	0.06112	0.6641	0.017
Mof_C 	C 	0.6473	0.07609	0.7286	0.187
Mof_C 	C 	0.643	0.07273	0.8388	-0.122
Mof_C 	C 	0.6192	0.0569	0.8714	0.049
Mof_H 	H 	0.6119	0.0564	0.9408	0.023
Mof_C 	C 	0.5795	0.0229	0.8382	0.456
Mof_C 	C 	0.6339	0.065	0.5399	-0.466
Mof_H 	H 	0.6206	0.0539	0.5042	0.164
Mof_H 	H 	0.6628	0.0658	0.5197	0.173
Mof_H 	H 	0.6201	0.0776	0.5229	0.162
Mof_C 	C 	0.6534	0.08864	0.9091	0.088
Mof_H 	H 	0.6456	0.0864	0.9773	0.002
Mof_C 	C 	0.6738	0.12096	0.9757	0.048
Mof_C 	C 	0.6806	0.11269	0.0826	-0.161
Mof_H 	H 	0.7059	0.1045	0.0846	0.075
Mof_H 	H 	0.6572	0.1041	0.1026	0.08
Mof_C 	C 	0.6845	0.1316	0.1596	-0.075
Mof_H 	H 	0.6583	0.1391	0.1602	0.049
Mof_H 	H 	0.6896	0.1266	0.2289	0.03
Mof_C 	C 	0.718	0.1451	0.1293	-0.051
Mof_H 	H 	0.7443	0.1377	0.1301	0.035
Mof_H 	H 	0.7201	0.1563	0.1783	0.031
Mof_C 	C 	0.7101	0.15394	0.0185	-0.177
Mof_H 	H 	0.6837	0.1613	0.0166	0.087
Mof_H 	H 	0.7323	0.1633	0.9996	0.087
Mof_C 	C 	0.709	0.13618	0.9449	0.049
Mof_C 	C 	0.6966	0.16456	0.6992	-0.086
Mof_C 	C 	0.7022	0.18526	0.671	0.009
Mof_H 	H 	0.7092	0.1946	0.7223	0.016
Mof_C 	C 	0.698	0.19216	0.5729	-0.082
Mof_C 	C 	0.6827	0.17736	0.502	-0.114
Mof_H 	H 	0.6776	0.1818	0.435	0.068
Mof_C 	C 	0.6746	0.15682	0.5228	0.128
Mof_C 	C 	0.68248	0.15038	0.6206	0.106
Mof_C 	C 	0.7018	0.15923	0.8031	0.077
Mof_H 	H 	0.7067	0.1698	0.8498	0.004
Mof_C 	C 	0.7039	0.21281	0.5398	0.319
Mof_C 	C 	0.6587	0.14229	0.4438	-0.62
Mof_H 	H 	0.6563	0.1289	0.4735	0.218
Mof_H 	H 	0.6777	0.1419	0.3865	0.201
Mof_H 	H 	0.6317	0.1467	0.4202	0.196
Mof_C 	C 	0.847	0.20898	0.5398	0.058
Mof_C 	C 	0.8662	0.19696	0.6114	-0.11
Mof_H 	H 	0.8644	0.2002	0.6812	0.078
Mof_C 	C 	0.8895	0.17905	0.5786	0.005
Mof_C 	C 	0.894	0.17636	0.4728	0.002
Mof_C 	C 	0.8741	0.18918	0.3972	0.331
Mof_C 	C 	0.8536	0.2057	0.4368	-0.286
Mof_H 	H 	0.8434	0.2154	0.3907	0.151
Mof_C 	C 	0.824	0.22622	0.5812	0.245
Mof_C 	C 	0.907	0.16664	0.6559	0.019
Mof_H 	H 	0.9036	0.1708	0.724	0.023
Mof_C 	C 	0.8833	0.18668	0.2904	-0.928
Mof_H 	H 	0.8995	0.1745	0.2807	0.312
Mof_H 	H 	0.8989	0.1983	0.2662	0.304
Mof_H 	H 	0.8576	0.1856	0.2522	0.3
Mof_C 	C 	0.9467	0.13723	0.722	0.043
Mof_C 	C 	0.936	0.14332	0.8294	-0.166
Mof_H 	H 	0.9061	0.1422	0.84	0.085
Mof_H 	H 	0.9442	0.1574	0.841	0.075
Mof_C 	C 	0.9589	0.12941	0.9054	-0.064
Mof_H 	H 	0.9519	0.1331	0.9758	0.028
Mof_H 	H 	0.9889	0.1307	0.8966	0.039
Mof_C 	C 	0.9439	0.106	0.8816	-0.07
Mof_H 	H 	0.9578	0.0967	0.9289	0.032
Mof_H 	H 	0.914	0.1048	0.8926	0.046
Mof_C 	C 	0.9541	0.10002	0.7729	-0.16
Mof_H 	H 	0.944	0.0863	0.7597	0.073
Mof_H 	H 	0.9842	0.1001	0.7633	0.078
Mof_C 	C 	0.9339	0.11481	0.697	0.051
Mof_C 	C 	0.9471	0.08752	0.4446	-0.086
Mof_C 	C 	0.93632	0.1021	0.365	0.128
Mof_C 	C 	0.9321	0.09479	0.2655	0.09
Mof_C 	C 	0.9422	0.07501	0.2424	-0.092
Mof_H 	H 	0.9401	0.0706	0.1743	0.06
Mof_C 	C 	0.9554	0.06107	0.3178	-0.088
Mof_C 	C 	0.9568	0.0679	0.4187	0.013
Mof_H 	H 	0.9647	0.0588	0.4705	0.018
Mof_C 	C 	0.946	0.09355	0.553	0.059
Mof_H 	H 	0.9499	0.0833	0.6017	0.007
Mof_C 	C 	0.9168	0.1096	0.1823	-0.55
Mof_H 	H 	0.9111	0.1227	0.2129	0.194
Mof_H 	H 	0.8916	0.1043	0.1516	0.177
Mof_H 	H 	0.9379	0.1111	0.1302	0.182
Mof_C 	C 	0.9727	0.03998	0.286	0.39
Mof_N 	N 	0.92731	0.1499	0.6403	-0.184
Mof_N 	N 	0.94014	0.11181	0.5873	-0.196
Mof_N 	N 	0.70058	0.1416	0.8377	-0.198
Mof_N 	N 	0.67184	0.10535	0.8923	-0.207
Mof_O 	O 	0.9618	0.0329	0.197	-0.436
Mof_O 	O 	0.9784	0.027	0.3495	-0.498
Mof_O 	O 	0.91623	0.16022	0.4339	-0.318
Mof_O 	O 	0.92823	0.12107	0.3853	-0.351
Mof_O 	O 	0.66645	0.09104	0.692	-0.353
Mof_O 	O 	0.67692	0.13099	0.6421	-0.344
Mof_O 	O 	0.5674	0.01073	0.7787	-0.475
Mof_O 	O 	0.5731	0.02138	0.9323	-0.415
Mof_O 	O 	0.8174	0.22895	0.671	-0.387
Mof_O 	O 	0.8104	0.23988	0.4993	-0.194
Mof_O 	O 	0.7172	0.22633	0.5999	-0.392
Mof_O 	O 	0.7102	0.217	0.4381	-0.21
Mof_Fe	Fe	0.69632	0.61395	0.25108	0.911
Mof_Fe	Fe	0.94539	0.63813	0.99603	0.923
Mof_Ba	Ba	0.9948	0.49963	0.66897	0.762
Mof_C 	C 	0.6048	0.54102	0.3061	-0.148
Mof_C 	C 	0.6084	0.54523	0.1992	-0.019
Mof_H 	H 	0.5948	0.5368	0.1521	0.022
Mof_C 	C 	0.631	0.56112	0.1641	0.016
Mof_C 	C 	0.6473	0.57609	0.2286	0.187
Mof_C 	C 	0.643	0.57273	0.3388	-0.122
Mof_C 	C 	0.6192	0.5569	0.3714	0.05
Mof_H 	H 	0.6119	0.5564	0.4408	0.023
Mof_C 	C 	0.5795	0.5229	0.3382	0.456
Mof_C 	C 	0.6339	0.565	0.0399	-0.465
Mof_H 	H 	0.6206	0.5539	0.0042	0.163
Mof_H 	H 	0.6628	0.5658	0.0197	0.172
Mof_H 	H 	0.6201	0.5776	0.0229	0.161
Mof_C 	C 	0.6534	0.58864	0.4091	0.088
Mof_H 	H 	0.6456	0.5864	0.4773	0.002
Mof_C 	C 	0.6738	0.62096	0.4757	0.047
Mof_C 	C 	0.6806	0.61269	0.5826	-0.161
Mof_H 	H 	0.7059	0.6045	0.5846	0.075
Mof_H 	H 	0.6572	0.6041	0.6026	0.08
Mof_C 	C 	0.6845	0.6316	0.6596	-0.075
Mof_H 	H 	0.6583	0.6391	0.6602	0.049
Mof_H 	H 	0.6896	0.6266	0.7289	0.03
Mof_C 	C 	0.718	0.6451	0.6293	-0.052
Mof_H 	H 	0.7443	0.6377	0.6301	0.035
Mof_H 	H 	0.7201	0.6563	0.6783	0.031
Mof_C 	C 	0.7101	0.65394	0.5185	-0.175
Mof_H 	H 	0.6837	0.6613	0.5166	0.086
Mof_H 	H 	0.7323	0.6633	0.4996	0.087
Mof_C 	C 	0.709	0.63618	0.4449	0.048
Mof_C 	C 	0.6966	0.66456	0.1992	-0.085
Mof_C 	C 	0.7022	0.68526	0.171	0.008
Mof_H 	H 	0.7092	0.6946	0.2223	0.016
Mof_C 	C 	0.698	0.69216	0.0729	-0.081
Mof_C 	C 	0.6827	0.67736	0.002	-0.117
Mof_H 	H 	0.6776	0.6818	0.935	0.069
Mof_C 	C 	0.6746	0.65682	0.0228	0.128
Mof_C 	C 	0.68248	0.65038	0.1206	0.106
Mof_C 	C 	0.7018	0.65923	0.3031	0.077
Mof_H 	H 	0.7067	0.6698	0.3498	0.004
Mof_C 	C 	0.7039	0.71281	0.0398	0.317
Mof_C 	C 	0.6587	0.64229	0.9438	-0.618
Mof_H 	H 	0.6563	0.6289	0.9735	0.218
Mof_H 	H 	0.6777	0.6419	0.8865	0.201
Mof_H 	H 	0.6317	0.6467	0.9202	0.196
Mof_C 	C 	0.847	0.70898	0.0398	0.055
Mof_C 	C 	0.8662	0.69696	0.1114	-0.108
Mof_H 	H 	0.8644	0.7002	0.1812	0.077
Mof_C 	C 	0.8895	0.67905	0.0786	0.002
Mof_C 	C 	0.894	0.67636	0.9728	0.005
Mof_C 	C 	0.8741	0.68918	0.8972	0.328
Mof_C 	C 	0.8536	0.7057	0.9368	-0.282
Mof_H 	H 	0.8434	0.7154	0.8907	0.15
Mof_C 	C 	0.824	0.72622	0.0812	0.245
Mof_C 	C 	0.907	0.66664	0.1559	0.02
Mof_H 	H 	0.9036	0.6708	0.224	0.023
Mof_C 	C 	0.8833	0.68668	0.7904	-0.924
Mof_H 	H 	0.8995	0.6745	0.7807	0.311
Mof_H 	H 	0.8989	0.6983	0.7662	0.303
Mof_H 	H 	0.8576	0.6856	0.7522	0.299
Mof_C 	C 	0.9467	0.63723	0.222	0.043
Mof_C 	C 	0.936	0.64332	0.3294	-0.166
Mof_H 	H 	0.9061	0.6422	0.34	0.085
Mof_H 	H 	0.9442	0.6574	0.341	0.075
Mof_C 	C 	0.9589	0.62941	0.4054	-0.064
Mof_H 	H 	0.9519	0.6331	0.4758	0.028
Mof_H 	H 	0.9889	0.6307	0.3966	0.039
Mof_C 	C 	0.9439	0.606	0.3816	-0.07
Mof_H 	H 	0.9578	0.5967	0.4289	0.032
Mof_H 	H 	0.914	0.6048	0.3926	0.046
Mof_C 	C 	0.9541	0.60002	0.2729	-0.16
Mof_H 	H 	0.944	0.5863	0.2597	0.073
Mof_H 	H 	0.9842	0.6001	0.2633	0.078
Mof_C 	C 	0.9339	0.61481	0.197	0.051
Mof_C 	C 	0.9471	0.58752	0.9446	-0.083
Mof_C 	C 	0.93632	0.6021	0.865	0.127
Mof_C 	C 	0.9321	0.59479	0.7655	0.091
Mof_C 	C 	0.9422	0.57501	0.7424	-0.093
Mof_H 	H 	0.9401	0.5706	0.6743	0.061
Mof_C 	C 	0.9554	0.56107	0.8178	-0.086
Mof_C 	C 	0.9568	0.5679	0.9187	0.011
Mof_H 	H 	0.9647	0.5588	0.9705	0.02
Mof_C 	C 	0.946	0.59355	0.053	0.057
Mof_H 	H 	0.9499	0.5833	0.1017	0.008
Mof_C 	C 	0.9168	0.6096	0.6823	-0.552
Mof_H 	H 	0.9111	0.6227	0.7129	0.194
Mof_H 	H 	0.8916	0.6043	0.6516	0.178
Mof_H 	H 	0.9379	0.6111	0.6302	0.182
Mof_C 	C 	0.9727	0.53998	0.786	0.39
Mof_N 	N 	0.92731	0.6499	0.1403	-0.185
Mof_N 	N 	0.94014	0.61181	0.0873	-0.196
Mof_N 	N 	0.70058	0.6416	0.3377	-0.198
Mof_N 	N 	0.67184	0.60535	0.3923	-0.207
Mof_O 	O 	0.9618	0.5329	0.697	-0.436
Mof_O 	O 	0.9784	0.527	0.8495	-0.497
Mof_O 	O 	0.91623	0.66022	0.9339	-0.318
Mof_O 	O 	0.92823	0.62107	0.8853	-0.351
Mof_O 	O 	0.66645	0.59104	0.192	-0.353
Mof_O 	O 	0.67692	0.63099	0.1421	-0.344
Mof_O 	O 	0.5674	0.51073	0.2787	-0.475
Mof_O 	O 	0.5731	0.52138	0.4323	-0.417
Mof_O 	O 	0.8174	0.72895	0.171	-0.387
Mof_O 	O 	0.8104	0.73988	0.9993	-0.193
Mof_O 	O 	0.7172	0.72633	0.0999	-0.391
Mof_O 	O 	0.7102	0.717	0.9381	-0.209
Mof_Fe	Fe	0.19632	0.88605	0.74892	0.911
Mof_Fe	Fe	0.44539	0.86187	0.00397	0.914
Mof_Ba	Ba	0.4948	0.00037	0.33103	0.801
Mof_C 	C 	0.1048	0.95898	0.6939	-0.148
Mof_C 	C 	0.1084	0.95477	0.8008	-0.02
Mof_H 	H 	0.0948	0.9632	0.8479	0.022
Mof_C 	C 	0.131	0.93888	0.8359	0.016
Mof_C 	C 	0.1473	0.92391	0.7714	0.187
Mof_C 	C 	0.143	0.92727	0.6612	-0.122
Mof_C 	C 	0.1192	0.9431	0.6286	0.05
Mof_H 	H 	0.1119	0.9436	0.5592	0.023
Mof_C 	C 	0.0795	0.9771	0.6618	0.456
Mof_C 	C 	0.1339	0.935	0.9601	-0.467
Mof_H 	H 	0.1206	0.9461	0.9958	0.164
Mof_H 	H 	0.1628	0.9342	0.9803	0.173
Mof_H 	H 	0.1201	0.9224	0.9771	0.162
Mof_C 	C 	0.1534	0.91136	0.5909	0.088
Mof_H 	H 	0.1456	0.9136	0.5227	0.002
Mof_C 	C 	0.1738	0.87904	0.5243	0.048
Mof_C 	C 	0.1806	0.88731	0.4174	-0.161
Mof_H 	H 	0.2059	0.8955	0.4154	0.075
Mof_H 	H 	0.1572	0.8959	0.3974	0.08
Mof_C 	C 	0.1845	0.8684	0.3404	-0.075
Mof_H 	H 	0.1583	0.8609	0.3398	0.049
Mof_H 	H 	0.1896	0.8734	0.2711	0.03
Mof_C 	C 	0.218	0.8549	0.3707	-0.052
Mof_H 	H 	0.2443	0.8623	0.3699	0.035
Mof_H 	H 	0.2201	0.8437	0.3217	0.031
Mof_C 	C 	0.2101	0.84606	0.4815	-0.175
Mof_H 	H 	0.1837	0.8387	0.4834	0.087
Mof_H 	H 	0.2323	0.8367	0.5004	0.087
Mof_C 	C 	0.209	0.86382	0.5551	0.048
Mof_C 	C 	0.1966	0.83544	0.8008	-0.086
Mof_C 	C 	0.2022	0.81474	0.829	0.009
Mof_H 	H 	0.2092	0.8054	0.7777	0.016
Mof_C 	C 	0.198	0.80784	0.9271	-0.082
Mof_C 	C 	0.1827	0.82264	0.998	-0.114
Mof_H 	H 	0.1776	0.8182	0.065	0.068
Mof_C 	C 	0.1746	0.84318	0.9772	0.129
Mof_C 	C 	0.18248	0.84962	0.8794	0.106
Mof_C 	C 	0.2018	0.84077	0.6969	0.077
Mof_H 	H 	0.2067	0.8302	0.6502	0.004
Mof_C 	C 	0.2039	0.78719	0.9602	0.319
Mof_C 	C 	0.1587	0.85771	0.0562	-0.62
Mof_H 	H 	0.1563	0.8711	0.0265	0.218
Mof_H 	H 	0.1777	0.8581	0.1135	0.201
Mof_H 	H 	0.1317	0.8533	0.0798	0.196
Mof_C 	C 	0.347	0.79102	0.9602	0.058
Mof_C 	C 	0.3662	0.80304	0.8886	-0.111
Mof_H 	H 	0.3644	0.7998	0.8188	0.078
Mof_C 	C 	0.3895	0.82095	0.9214	0.006
Mof_C 	C 	0.394	0.82364	0.0272	0.001
Mof_C 	C 	0.3741	0.81082	0.1028	0.33
Mof_C 	C 	0.3536	0.7943	0.0632	-0.286
Mof_H 	H 	0.3434	0.7846	0.1093	0.151
Mof_C 	C 	0.324	0.77378	0.9188	0.245
Mof_C 	C 	0.407	0.83336	0.8441	0.018
Mof_H 	H 	0.4036	0.8292	0.776	0.023
Mof_C 	C 	0.3833	0.81332	0.2096	-0.926
Mof_H 	H 	0.3995	0.8255	0.2193	0.31
Mof_H 	H 	0.3989	0.8017	0.2338	0.302
Mof_H 	H 	0.3576	0.8144	0.2478	0.299
Mof_C 	C 	0.4467	0.86277	0.778	0.042
Mof_C 	C 	0.436	0.85668	0.6706	-0.167
Mof_H 	H 	0.4061	0.8578	0.66	0.085
Mof_H 	H 	0.4442	0.8426	0.659	0.074
Mof_C 	C 	0.4589	0.87059	0.5946	-0.062
Mof_H 	H 	0.4519	0.8669	0.5242	0.026
Mof_H 	H 	0.4889	0.8693	0.6034	0.035
Mof_C 	C 	0.4439	0.894	0.6184	-0.073
Mof_H 	H 	0.4578	0.9033	0.5711	0.031
Mof_H 	H 	0.414	0.8952	0.6074	0.047
Mof_C 	C 	0.4541	0.89998	0.7271	-0.157
Mof_H 	H 	0.444	0.9137	0.7403	0.072
Mof_H 	H 	0.4842	0.8999	0.7367	0.075
Mof_C 	C 	0.4339	0.88519	0.803	0.05
Mof_C 	C 	0.4471	0.91248	0.0554	-0.09
Mof_C 	C 	0.43632	0.8979	0.135	0.129
Mof_C 	C 	0.4321	0.90521	0.2345	0.087
Mof_C 	C 	0.4422	0.92499	0.2576	-0.091
Mof_H 	H 	0.4401	0.9294	0.3257	0.059
Mof_C 	C 	0.4554	0.93893	0.1822	-0.091
Mof_C 	C 	0.4568	0.9321	0.0813	0.015
Mof_H 	H 	0.4647	0.9412	0.0295	0.015
Mof_C 	C 	0.446	0.90645	0.947	0.061
Mof_H 	H 	0.4499	0.9167	0.8983	0.006
Mof_C 	C 	0.4168	0.8904	0.3177	-0.546
Mof_H 	H 	0.4111	0.8773	0.2871	0.192
Mof_H 	H 	0.3916	0.8957	0.3484	0.176
Mof_H 	H 	0.4379	0.8889	0.3698	0.179
Mof_C 	C 	0.4727	0.96002	0.214	0.391
Mof_N 	N 	0.42731	0.8501	0.8597	-0.184
Mof_N 	N 	0.44014	0.88819	0.9127	-0.196
Mof_N 	N 	0.20058	0.8584	0.6623	-0.198
Mof_N 	N 	0.17184	0.89465	0.6077	-0.207
Mof_O 	O 	0.4618	0.9671	0.303	-0.438
Mof_O 	O 	0.4784	0.973	0.1505	-0.503
Mof_O 	O 	0.41623	0.83978	0.0661	-0.318
Mof_O 	O 	0.42823	0.87893	0.1147	-0.352
Mof_O 	O 	0.16645	0.90896	0.808	-0.353
Mof_O 	O 	0.17692	0.86901	0.8579	-0.344
Mof_O 	O 	0.0674	0.98927	0.7213	-0.477
Mof_O 	O 	0.0731	0.97862	0.5677	-0.417
Mof_O 	O 	0.3174	0.77105	0.829	-0.387
Mof_O 	O 	0.3104	0.76012	0.0007	-0.194
Mof_O 	O 	0.2172	0.77367	0.9001	-0.392
Mof_O 	O 	0.2102	0.783	0.0619	-0.21
Mof_Fe	Fe	0.19632	0.38605	0.24892	0.911
Mof_Fe	Fe	0.44539	0.36187	0.50397	0.915
Mof_Ba	Ba	0.4948	0.50037	0.83103	0.801
Mof_C 	C 	0.1048	0.45898	0.1939	-0.149
Mof_C 	C 	0.1084	0.45477	0.3008	-0.019
Mof_H 	H 	0.0948	0.4632	0.3479	0.021
Mof_C 	C 	0.131	0.43888	0.3359	0.016
Mof_C 	C 	0.1473	0.42391	0.2714	0.187
Mof_C 	C 	0.143	0.42727	0.1612	-0.123
Mof_C 	C 	0.1192	0.4431	0.1286	0.05
Mof_H 	H 	0.1119	0.4436	0.0592	0.022
Mof_C 	C 	0.0795	0.4771	0.1618	0.456
Mof_C 	C 	0.1339	0.435	0.4601	-0.465
Mof_H 	H 	0.1206	0.4461	0.4958	0.163
Mof_H 	H 	0.1628	0.4342	0.4803	0.173
Mof_H 	H 	0.1201	0.4224	0.4771	0.161
Mof_C 	C 	0.1534	0.41136	0.0909	0.089
Mof_H 	H 	0.1456	0.4136	0.0227	0.001
Mof_C 	C 	0.1738	0.37904	0.0243	0.047
Mof_C 	C 	0.1806	0.38731	0.9174	-0.16
Mof_H 	H 	0.2059	0.3955	0.9154	0.075
Mof_H 	H 	0.1572	0.3959	0.8974	0.081
Mof_C 	C 	0.1845	0.3684	0.8404	-0.073
Mof_H 	H 	0.1583	0.3609	0.8398	0.048
Mof_H 	H 	0.1896	0.3734	0.7711	0.03
Mof_C 	C 	0.218	0.3549	0.8707	-0.055
Mof_H 	H 	0.2443	0.3623	0.8699	0.036
Mof_H 	H 	0.2201	0.3437	0.8217	0.033
Mof_C 	C 	0.2101	0.34606	0.9815	-0.169
Mof_H 	H 	0.1837	0.3387	0.9834	0.085
Mof_H 	H 	0.2323	0.3367	0.0004	0.084
Mof_C 	C 	0.209	0.36382	0.0551	0.046
Mof_C 	C 	0.1966	0.33544	0.3008	-0.085
Mof_C 	C 	0.2022	0.31474	0.329	0.009
Mof_H 	H 	0.2092	0.3054	0.2777	0.016
Mof_C 	C 	0.198	0.30784	0.4271	-0.082
Mof_C 	C 	0.1827	0.32264	0.498	-0.114
Mof_H 	H 	0.1776	0.3182	0.565	0.068
Mof_C 	C 	0.1746	0.34318	0.4772	0.128
Mof_C 	C 	0.18248	0.34962	0.3794	0.106
Mof_C 	C 	0.2018	0.34077	0.1969	0.077
Mof_H 	H 	0.2067	0.3302	0.1502	0.004
Mof_C 	C 	0.2039	0.28719	0.4602	0.319
Mof_C 	C 	0.1587	0.35771	0.5562	-0.62
Mof_H 	H 	0.1563	0.3711	0.5265	0.218
Mof_H 	H 	0.1777	0.3581	0.6135	0.201
Mof_H 	H 	0.1317	0.3533	0.5798	0.196
Mof_C 	C 	0.347	0.29102	0.4602	0.057
Mof_C 	C 	0.3662	0.30304	0.3886	-0.11
Mof_H 	H 	0.3644	0.2998	0.3188	0.078
Mof_C 	C 	0.3895	0.32095	0.4214	0.004
Mof_C 	C 	0.394	0.32364	0.5272	0.002
Mof_C 	C 	0.3741	0.31082	0.6028	0.329
Mof_C 	C 	0.3536	0.2943	0.5632	-0.285
Mof_H 	H 	0.3434	0.2846	0.6093	0.15
Mof_C 	C 	0.324	0.27378	0.4188	0.245
Mof_C 	C 	0.407	0.33336	0.3441	0.019
Mof_H 	H 	0.4036	0.3292	0.276	0.023
Mof_C 	C 	0.3833	0.31332	0.7096	-0.924
Mof_H 	H 	0.3995	0.3255	0.7193	0.31
Mof_H 	H 	0.3989	0.3017	0.7338	0.302
Mof_H 	H 	0.3576	0.3144	0.7478	0.299
Mof_C 	C 	0.4467	0.36277	0.278	0.042
Mof_C 	C 	0.436	0.35668	0.1706	-0.167
Mof_H 	H 	0.4061	0.3578	0.16	0.085
Mof_H 	H 	0.4442	0.3426	0.159	0.074
Mof_C 	C 	0.4589	0.37059	0.0946	-0.062
Mof_H 	H 	0.4519	0.3669	0.0242	0.026
Mof_H 	H 	0.4889	0.3693	0.1034	0.035
Mof_C 	C 	0.4439	0.394	0.1184	-0.073
Mof_H 	H 	0.4578	0.4033	0.0711	0.031
Mof_H 	H 	0.414	0.3952	0.1074	0.047
Mof_C 	C 	0.4541	0.39998	0.2271	-0.157
Mof_H 	H 	0.444	0.4137	0.2403	0.072
Mof_H 	H 	0.4842	0.3999	0.2367	0.075
Mof_C 	C 	0.4339	0.38519	0.303	0.05
Mof_C 	C 	0.4471	0.41248	0.5554	-0.087
Mof_C 	C 	0.43632	0.3979	0.635	0.128
Mof_C 	C 	0.4321	0.40521	0.7345	0.088
Mof_C 	C 	0.4422	0.42499	0.7576	-0.092
Mof_H 	H 	0.4401	0.4294	0.8257	0.06
Mof_C 	C 	0.4554	0.43893	0.6822	-0.09
Mof_C 	C 	0.4568	0.4321	0.5813	0.013
Mof_H 	H 	0.4647	0.4412	0.5295	0.016
Mof_C 	C 	0.446	0.40645	0.447	0.059
Mof_H 	H 	0.4499	0.4167	0.3983	0.006
Mof_C 	C 	0.4168	0.3904	0.8177	-0.548
Mof_H 	H 	0.4111	0.3773	0.7871	0.193
Mof_H 	H 	0.3916	0.3957	0.8484	0.177
Mof_H 	H 	0.4379	0.3889	0.8698	0.18
Mof_C 	C 	0.4727	0.46002	0.714	0.391
Mof_N 	N 	0.42731	0.3501	0.3597	-0.184
Mof_N 	N 	0.44014	0.38819	0.4127	-0.196
Mof_N 	N 	0.20058	0.3584	0.1623	-0.198
Mof_N 	N 	0.17184	0.39465	0.1077	-0.207
Mof_O 	O 	0.4618	0.4671	0.803	-0.438
Mof_O 	O 	0.4784	0.473	0.6505	-0.503
Mof_O 	O 	0.41623	0.33978	0.5661	-0.318
Mof_O 	O 	0.42823	0.37893	0.6147	-0.351
Mof_O 	O 	0.16645	0.40896	0.308	-0.353
Mof_O 	O 	0.17692	0.36901	0.3579	-0.344
Mof_O 	O 	0.0674	0.48927	0.2213	-0.477
Mof_O 	O 	0.0731	0.47862	0.0677	-0.417
Mof_O 	O 	0.3174	0.27105	0.329	-0.387
Mof_O 	O 	0.3104	0.26012	0.5007	-0.194
Mof_O 	O 	0.2172	0.27367	0.4001	-0.392
Mof_O 	O 	0.2102	0.283	0.5619	-0.21
Mof_Fe	Fe	0.69632	0.88605	0.24892	0.911
Mof_Fe	Fe	0.94539	0.86187	0.50397	0.921
Mof_Ba	Ba	0.9948	0.00037	0.83103	0.763
Mof_C 	C 	0.6048	0.95898	0.1939	-0.148
Mof_C 	C 	0.6084	0.95477	0.3008	-0.019
Mof_H 	H 	0.5948	0.9632	0.3479	0.022
Mof_C 	C 	0.631	0.93888	0.3359	0.016
Mof_C 	C 	0.6473	0.92391	0.2714	0.187
Mof_C 	C 	0.643	0.92727	0.1612	-0.122
Mof_C 	C 	0.6192	0.9431	0.1286	0.05
Mof_H 	H 	0.6119	0.9436	0.0592	0.022
Mof_C 	C 	0.5795	0.9771	0.1618	0.456
Mof_C 	C 	0.6339	0.935	0.4601	-0.466
Mof_H 	H 	0.6206	0.9461	0.4958	0.164
Mof_H 	H 	0.6628	0.9342	0.4803	0.173
Mof_H 	H 	0.6201	0.9224	0.4771	0.162
Mof_C 	C 	0.6534	0.91136	0.0909	0.088
Mof_H 	H 	0.6456	0.9136	0.0227	0.001
Mof_C 	C 	0.6738	0.87904	0.0243	0.046
Mof_C 	C 	0.6806	0.88731	0.9174	-0.16
Mof_H 	H 	0.7059	0.8955	0.9154	0.075
Mof_H 	H 	0.6572	0.8959	0.8974	0.08
Mof_C 	C 	0.6845	0.8684	0.8404	-0.073
Mof_H 	H 	0.6583	0.8609	0.8398	0.048
Mof_H 	H 	0.6896	0.8734	0.7711	0.03
Mof_C 	C 	0.718	0.8549	0.8707	-0.055
Mof_H 	H 	0.7443	0.8623	0.8699	0.036
Mof_H 	H 	0.7201	0.8437	0.8217	0.032
Mof_C 	C 	0.7101	0.84606	0.9815	-0.169
Mof_H 	H 	0.6837	0.8387	0.9834	0.085
Mof_H 	H 	0.7323	0.8367	0.0004	0.084
Mof_C 	C 	0.709	0.86382	0.0551	0.046
Mof_C 	C 	0.6966	0.83544	0.3008	-0.085
Mof_C 	C 	0.7022	0.81474	0.329	0.009
Mof_H 	H 	0.7092	0.8054	0.2777	0.016
Mof_C 	C 	0.698	0.80784	0.4271	-0.082
Mof_C 	C 	0.6827	0.82264	0.498	-0.115
Mof_H 	H 	0.6776	0.8182	0.565	0.068
Mof_C 	C 	0.6746	0.84318	0.4772	0.129
Mof_C 	C 	0.68248	0.84962	0.3794	0.106
Mof_C 	C 	0.7018	0.84077	0.1969	0.077
Mof_H 	H 	0.7067	0.8302	0.1502	0.004
Mof_C 	C 	0.7039	0.78719	0.4602	0.319
Mof_C 	C 	0.6587	0.85771	0.5562	-0.62
Mof_H 	H 	0.6563	0.8711	0.5265	0.219
Mof_H 	H 	0.6777	0.8581	0.6135	0.202
Mof_H 	H 	0.6317	0.8533	0.5798	0.197
Mof_C 	C 	0.847	0.79102	0.4602	0.058
Mof_C 	C 	0.8662	0.80304	0.3886	-0.11
Mof_H 	H 	0.8644	0.7998	0.3188	0.078
Mof_C 	C 	0.8895	0.82095	0.4214	0.005
Mof_C 	C 	0.894	0.82364	0.5272	0.002
Mof_C 	C 	0.8741	0.81082	0.6028	0.331
Mof_C 	C 	0.8536	0.7943	0.5632	-0.286
Mof_H 	H 	0.8434	0.7846	0.6093	0.151
Mof_C 	C 	0.824	0.77378	0.4188	0.245
Mof_C 	C 	0.907	0.83336	0.3441	0.019
Mof_H 	H 	0.9036	0.8292	0.276	0.023
Mof_C 	C 	0.8833	0.81332	0.7096	-0.928
Mof_H 	H 	0.8995	0.8255	0.7193	0.312
Mof_H 	H 	0.8989	0.8017	0.7338	0.304
Mof_H 	H 	0.8576	0.8144	0.7478	0.3
Mof_C 	C 	0.9467	0.86277	0.278	0.043
Mof_C 	C 	0.936	0.85668	0.1706	-0.166
Mof_H 	H 	0.9061	0.8578	0.16	0.085
Mof_H 	H 	0.9442	0.8426	0.159	0.075
Mof_C 	C 	0.9589	0.87059	0.0946	-0.064
Mof_H 	H 	0.9519	0.8669	0.0242	0.028
Mof_H 	H 	0.9889	0.8693	0.1034	0.039
Mof_C 	C 	0.9439	0.894	0.1184	-0.07
Mof_H 	H 	0.9578	0.9033	0.0711	0.031
Mof_H 	H 	0.914	0.8952	0.1074	0.046
Mof_C 	C 	0.9541	0.89998	0.2271	-0.16
Mof_H 	H 	0.944	0.9137	0.2403	0.073
Mof_H 	H 	0.9842	0.8999	0.2367	0.078
Mof_C 	C 	0.9339	0.88519	0.303	0.051
Mof_C 	C 	0.9471	0.91248	0.5554	-0.086
Mof_C 	C 	0.93632	0.8979	0.635	0.128
Mof_C 	C 	0.9321	0.90521	0.7345	0.091
Mof_C 	C 	0.9422	0.92499	0.7576	-0.093
Mof_H 	H 	0.9401	0.9294	0.8257	0.061
Mof_C 	C 	0.9554	0.93893	0.6822	-0.087
Mof_C 	C 	0.9568	0.9321	0.5813	0.012
Mof_H 	H 	0.9647	0.9412	0.5295	0.019
Mof_C 	C 	0.946	0.90645	0.447	0.059
Mof_H 	H 	0.9499	0.9167	0.3983	0.007
Mof_C 	C 	0.9168	0.8904	0.8177	-0.551
Mof_H 	H 	0.9111	0.8773	0.7871	0.194
Mof_H 	H 	0.8916	0.8957	0.8484	0.178
Mof_H 	H 	0.9379	0.8889	0.8698	0.182
Mof_C 	C 	0.9727	0.96002	0.714	0.39
Mof_N 	N 	0.92731	0.8501	0.3597	-0.184
Mof_N 	N 	0.94014	0.88819	0.4127	-0.196
Mof_N 	N 	0.70058	0.8584	0.1623	-0.198
Mof_N 	N 	0.67184	0.89465	0.1077	-0.207
Mof_O 	O 	0.9618	0.9671	0.803	-0.436
Mof_O 	O 	0.9784	0.973	0.6505	-0.498
Mof_O 	O 	0.91623	0.83978	0.5661	-0.318
Mof_O 	O 	0.92823	0.87893	0.6147	-0.351
Mof_O 	O 	0.66645	0.90896	0.308	-0.353
Mof_O 	O 	0.67692	0.86901	0.3579	-0.344
Mof_O 	O 	0.5674	0.98927	0.2213	-0.475
Mof_O 	O 	0.5731	0.97862	0.0677	-0.417
Mof_O 	O 	0.8174	0.77105	0.329	-0.387
Mof_O 	O 	0.8104	0.76012	0.5007	-0.194
Mof_O 	O 	0.7172	0.77367	0.4001	-0.391
Mof_O 	O 	0.7102	0.783	0.5619	-0.21
Mof_Fe	Fe	0.69632	0.38605	0.74892	0.911
Mof_Fe	Fe	0.94539	0.36187	0.00397	0.92
Mof_Ba	Ba	0.9948	0.50037	0.33103	0.761
Mof_C 	C 	0.6048	0.45898	0.6939	-0.148
Mof_C 	C 	0.6084	0.45477	0.8008	-0.02
Mof_H 	H 	0.5948	0.4632	0.8479	0.023
Mof_C 	C 	0.631	0.43888	0.8359	0.017
Mof_C 	C 	0.6473	0.42391	0.7714	0.187
Mof_C 	C 	0.643	0.42727	0.6612	-0.122
Mof_C 	C 	0.6192	0.4431	0.6286	0.049
Mof_H 	H 	0.6119	0.4436	0.5592	0.023
Mof_C 	C 	0.5795	0.4771	0.6618	0.456
Mof_C 	C 	0.6339	0.435	0.9601	-0.467
Mof_H 	H 	0.6206	0.4461	0.9958	0.164
Mof_H 	H 	0.6628	0.4342	0.9803	0.173
Mof_H 	H 	0.6201	0.4224	0.9771	0.162
Mof_C 	C 	0.6534	0.41136	0.5909	0.088
Mof_H 	H 	0.6456	0.4136	0.5227	0.002
Mof_C 	C 	0.6738	0.37904	0.5243	0.047
Mof_C 	C 	0.6806	0.38731	0.4174	-0.161
Mof_H 	H 	0.7059	0.3955	0.4154	0.075
Mof_H 	H 	0.6572	0.3959	0.3974	0.08
Mof_C 	C 	0.6845	0.3684	0.3404	-0.075
Mof_H 	H 	0.6583	0.3609	0.3398	0.049
Mof_H 	H 	0.6896	0.3734	0.2711	0.03
Mof_C 	C 	0.718	0.3549	0.3707	-0.052
Mof_H 	H 	0.7443	0.3623	0.3699	0.035
Mof_H 	H 	0.7201	0.3437	0.3217	0.031
Mof_C 	C 	0.7101	0.34606	0.4815	-0.175
Mof_H 	H 	0.6837	0.3387	0.4834	0.086
Mof_H 	H 	0.7323	0.3367	0.5004	0.087
Mof_C 	C 	0.709	0.36382	0.5551	0.048
Mof_C 	C 	0.6966	0.33544	0.8008	-0.085
Mof_C 	C 	0.7022	0.31474	0.829	0.009
Mof_H 	H 	0.7092	0.3054	0.7777	0.016
Mof_C 	C 	0.698	0.30784	0.9271	-0.082
Mof_C 	C 	0.6827	0.32264	0.998	-0.114
Mof_H 	H 	0.6776	0.3182	0.065	0.068
Mof_C 	C 	0.6746	0.34318	0.9772	0.129
Mof_C 	C 	0.68248	0.34962	0.8794	0.106
Mof_C 	C 	0.7018	0.34077	0.6969	0.077
Mof_H 	H 	0.7067	0.3302	0.6502	0.004
Mof_C 	C 	0.7039	0.28719	0.9602	0.319
Mof_C 	C 	0.6587	0.35771	0.0562	-0.62
Mof_H 	H 	0.6563	0.3711	0.0265	0.218
Mof_H 	H 	0.6777	0.3581	0.1135	0.202
Mof_H 	H 	0.6317	0.3533	0.0798	0.197
Mof_C 	C 	0.847	0.29102	0.9602	0.059
Mof_C 	C 	0.8662	0.30304	0.8886	-0.111
Mof_H 	H 	0.8644	0.2998	0.8188	0.078
Mof_C 	C 	0.8895	0.32095	0.9214	0.006
Mof_C 	C 	0.894	0.32364	0.0272	0.001
Mof_C 	C 	0.8741	0.31082	0.1028	0.332
Mof_C 	C 	0.8536	0.2943	0.0632	-0.287
Mof_H 	H 	0.8434	0.2846	0.1093	0.151
Mof_C 	C 	0.824	0.27378	0.9188	0.245
Mof_C 	C 	0.907	0.33336	0.8441	0.019
Mof_H 	H 	0.9036	0.3292	0.776	0.023
Mof_C 	C 	0.8833	0.31332	0.2096	-0.929
Mof_H 	H 	0.8995	0.3255	0.2193	0.312
Mof_H 	H 	0.8989	0.3017	0.2338	0.304
Mof_H 	H 	0.8576	0.3144	0.2478	0.3
Mof_C 	C 	0.9467	0.36277	0.778	0.043
Mof_C 	C 	0.936	0.35668	0.6706	-0.166
Mof_H 	H 	0.9061	0.3578	0.66	0.085
Mof_H 	H 	0.9442	0.3426	0.659	0.075
Mof_C 	C 	0.9589	0.37059	0.5946	-0.064
Mof_H 	H 	0.9519	0.3669	0.5242	0.028
Mof_H 	H 	0.9889	0.3693	0.6034	0.039
Mof_C 	C 	0.9439	0.394	0.6184	-0.07
Mof_H 	H 	0.9578	0.4033	0.5711	0.032
Mof_H 	H 	0.914	0.3952	0.6074	0.046
Mof_C 	C 	0.9541	0.39998	0.7271	-0.16
Mof_H 	H 	0.944	0.4137	0.7403	0.073
Mof_H 	H 	0.9842	0.3999	0.7367	0.078
Mof_C 	C 	0.9339	0.38519	0.803	0.051
Mof_C 	C 	0.9471	0.41248	0.0554	-0.088
Mof_C 	C 	0.93632	0.3979	0.135	0.129
Mof_C 	C 	0.9321	0.40521	0.2345	0.09
Mof_C 	C 	0.9422	0.42499	0.2576	-0.092
Mof_H 	H 	0.9401	0.4294	0.3257	0.06
Mof_C 	C 	0.9554	0.43893	0.1822	-0.088
Mof_C 	C 	0.9568	0.4321	0.0813	0.014
Mof_H 	H 	0.9647	0.4412	0.0295	0.017
Mof_C 	C 	0.946	0.40645	0.947	0.062
Mof_H 	H 	0.9499	0.4167	0.8983	0.007
Mof_C 	C 	0.9168	0.3904	0.3177	-0.55
Mof_H 	H 	0.9111	0.3773	0.2871	0.194
Mof_H 	H 	0.8916	0.3957	0.3484	0.177
Mof_H 	H 	0.9379	0.3889	0.3698	0.182
Mof_C 	C 	0.9727	0.46002	0.214	0.39
Mof_N 	N 	0.92731	0.3501	0.8597	-0.184
Mof_N 	N 	0.94014	0.38819	0.9127	-0.196
Mof_N 	N 	0.70058	0.3584	0.6623	-0.198
Mof_N 	N 	0.67184	0.39465	0.6077	-0.207
Mof_O 	O 	0.9618	0.4671	0.303	-0.436
Mof_O 	O 	0.9784	0.473	0.1505	-0.498
Mof_O 	O 	0.91623	0.33978	0.0661	-0.318
Mof_O 	O 	0.92823	0.37893	0.1147	-0.351
Mof_O 	O 	0.66645	0.40896	0.808	-0.353
Mof_O 	O 	0.67692	0.36901	0.8579	-0.344
Mof_O 	O 	0.5674	0.48927	0.7213	-0.475
Mof_O 	O 	0.5731	0.47862	0.5677	-0.417
Mof_O 	O 	0.8174	0.27105	0.829	-0.387
Mof_O 	O 	0.8104	0.26012	0.0007	-0.194
Mof_O 	O 	0.7172	0.27367	0.9001	-0.392
Mof_O 	O 	0.7102	0.283	0.0619	-0.21
Mof_Fe	Fe	0.80368	0.11395	0.74892	0.91
Mof_Fe	Fe	0.55461	0.13813	0.00397	0.914
Mof_Ba	Ba	0.5052	0.99963	0.33103	0.8
Mof_C 	C 	0.8952	0.04102	0.6939	-0.146
Mof_C 	C 	0.8916	0.04523	0.8008	-0.021
Mof_H 	H 	0.9052	0.0368	0.8479	0.024
Mof_C 	C 	0.869	0.06112	0.8359	0.018
Mof_C 	C 	0.8527	0.07609	0.7714	0.187
Mof_C 	C 	0.857	0.07273	0.6612	-0.122
Mof_C 	C 	0.8808	0.0569	0.6286	0.049
Mof_H 	H 	0.8881	0.0564	0.5592	0.023
Mof_C 	C 	0.9205	0.0229	0.6618	0.455
Mof_C 	C 	0.8661	0.065	0.9601	-0.468
Mof_H 	H 	0.8794	0.0539	0.9958	0.165
Mof_H 	H 	0.8372	0.0658	0.9803	0.174
Mof_H 	H 	0.8799	0.0776	0.9771	0.163
Mof_C 	C 	0.8466	0.08864	0.5909	0.088
Mof_H 	H 	0.8544	0.0864	0.5227	0.002
Mof_C 	C 	0.8262	0.12096	0.5243	0.047
Mof_C 	C 	0.8194	0.11269	0.4174	-0.16
Mof_H 	H 	0.7941	0.1045	0.4154	0.075
Mof_H 	H 	0.8428	0.1041	0.3974	0.08
Mof_C 	C 	0.8155	0.1316	0.3404	-0.075
Mof_H 	H 	0.8417	0.1391	0.3398	0.049
Mof_H 	H 	0.8104	0.1266	0.2711	0.03
Mof_C 	C 	0.782	0.1451	0.3707	-0.052
Mof_H 	H 	0.7557	0.1377	0.3699	0.035
Mof_H 	H 	0.7799	0.1563	0.3217	0.031
Mof_C 	C 	0.7899	0.15394	0.4815	-0.175
Mof_H 	H 	0.8163	0.1613	0.4834	0.086
Mof_H 	H 	0.7677	0.1633	0.5004	0.087
Mof_C 	C 	0.791	0.13618	0.5551	0.048
Mof_C 	C 	0.8034	0.16456	0.8008	-0.085
Mof_C 	C 	0.7978	0.18526	0.829	0.009
Mof_H 	H 	0.7908	0.1946	0.7777	0.016
Mof_C 	C 	0.802	0.19216	0.9271	-0.082
Mof_C 	C 	0.8173	0.17736	0.998	-0.115
Mof_H 	H 	0.8224	0.1818	0.065	0.068
Mof_C 	C 	0.8254	0.15682	0.9772	0.129
Mof_C 	C 	0.81752	0.15038	0.8794	0.106
Mof_C 	C 	0.7982	0.15923	0.6969	0.077
Mof_H 	H 	0.7933	0.1698	0.6502	0.004
Mof_C 	C 	0.7961	0.21281	0.9602	0.319
Mof_C 	C 	0.8413	0.14229	0.0562	-0.621
Mof_H 	H 	0.8437	0.1289	0.0265	0.219
Mof_H 	H 	0.8223	0.1419	0.1135	0.202
Mof_H 	H 	0.8683	0.1467	0.0798	0.197
Mof_C 	C 	0.653	0.20898	0.9602	0.058
Mof_C 	C 	0.6338	0.19696	0.8886	-0.111
Mof_H 	H 	0.6356	0.2002	0.8188	0.078
Mof_C 	C 	0.6105	0.17905	0.9214	0.006
Mof_C 	C 	0.606	0.17636	0.0272	0.001
Mof_C 	C 	0.6259	0.18918	0.1028	0.33
Mof_C 	C 	0.6464	0.2057	0.0632	-0.286
Mof_H 	H 	0.6566	0.2154	0.1093	0.151
Mof_C 	C 	0.676	0.22622	0.9188	0.245
Mof_C 	C 	0.593	0.16664	0.8441	0.018
Mof_H 	H 	0.5964	0.1708	0.776	0.023
Mof_C 	C 	0.6167	0.18668	0.2096	-0.925
Mof_H 	H 	0.6005	0.1745	0.2193	0.31
Mof_H 	H 	0.6011	0.1983	0.2338	0.302
Mof_H 	H 	0.6424	0.1856	0.2478	0.299
Mof_C 	C 	0.5533	0.13723	0.778	0.042
Mof_C 	C 	0.564	0.14332	0.6706	-0.167
Mof_H 	H 	0.5939	0.1422	0.66	0.085
Mof_H 	H 	0.5558	0.1574	0.659	0.074
Mof_C 	C 	0.5411	0.12941	0.5946	-0.062
Mof_H 	H 	0.5481	0.1331	0.5242	0.026
Mof_H 	H 	0.5111	0.1307	0.6034	0.035
Mof_C 	C 	0.5561	0.106	0.6184	-0.073
Mof_H 	H 	0.5422	0.0967	0.5711	0.031
Mof_H 	H 	0.586	0.1048	0.6074	0.047
Mof_C 	C 	0.5459	0.10002	0.7271	-0.157
Mof_H 	H 	0.556	0.0863	0.7403	0.072
Mof_H 	H 	0.5158	0.1001	0.7367	0.075
Mof_C 	C 	0.5661	0.11481	0.803	0.05
Mof_C 	C 	0.5529	0.08752	0.0554	-0.09
Mof_C 	C 	0.56368	0.1021	0.135	0.129
Mof_C 	C 	0.5679	0.09479	0.2345	0.087
Mof_C 	C 	0.5578	0.07501	0.2576	-0.091
Mof_H 	H 	0.5599	0.0706	0.3257	0.059
Mof_C 	C 	0.5446	0.06107	0.1822	-0.091
Mof_C 	C 	0.5432	0.0679	0.0813	0.015
Mof_H 	H 	0.5353	0.0588	0.0295	0.015
Mof_C 	C 	0.554	0.09355	0.947	0.061
Mof_H 	H 	0.5501	0.0833	0.8983	0.006
Mof_C 	C 	0.5832	0.1096	0.3177	-0.546
Mof_H 	H 	0.5889	0.1227	0.2871	0.192
Mof_H 	H 	0.6084	0.1043	0.3484	0.176
Mof_H 	H 	0.5621	0.1111	0.3698	0.179
Mof_C 	C 	0.5273	0.03998	0.214	0.391
Mof_N 	N 	0.57269	0.1499	0.8597	-0.184
Mof_N 	N 	0.55986	0.11181	0.9127	-0.196
Mof_N 	N 	0.79942	0.1416	0.6623	-0.198
Mof_N 	N 	0.82816	0.10535	0.6077	-0.207
Mof_O 	O 	0.5382	0.0329	0.303	-0.438
Mof_O 	O 	0.5216	0.027	0.1505	-0.503
Mof_O 	O 	0.58377	0.16022	0.0661	-0.318
Mof_O 	O 	0.57177	0.12107	0.1147	-0.352
Mof_O 	O 	0.83355	0.09104	0.808	-0.352
Mof_O 	O 	0.82308	0.13099	0.8579	-0.344
Mof_O 	O 	0.9326	0.01073	0.7213	-0.472
Mof_O 	O 	0.9269	0.02138	0.5677	-0.414
Mof_O 	O 	0.6826	0.22895	0.829	-0.387
Mof_O 	O 	0.6896	0.23988	0.0007	-0.194
Mof_O 	O 	0.7828	0.22633	0.9001	-0.391
Mof_O 	O 	0.7898	0.217	0.0619	-0.21
Mof_Fe	Fe	0.80368	0.61395	0.24892	0.91
Mof_Fe	Fe	0.55461	0.63813	0.50397	0.915
Mof_Ba	Ba	0.5052	0.49963	0.83103	0.801
Mof_C 	C 	0.8952	0.54102	0.1939	-0.147
Mof_C 	C 	0.8916	0.54523	0.3008	-0.02
Mof_H 	H 	0.9052	0.5368	0.3479	0.023
Mof_C 	C 	0.869	0.56112	0.3359	0.017
Mof_C 	C 	0.8527	0.57609	0.2714	0.187
Mof_C 	C 	0.857	0.57273	0.1612	-0.122
Mof_C 	C 	0.8808	0.5569	0.1286	0.049
Mof_H 	H 	0.8881	0.5564	0.0592	0.023
Mof_C 	C 	0.9205	0.5229	0.1618	0.455
Mof_C 	C 	0.8661	0.565	0.4601	-0.467
Mof_H 	H 	0.8794	0.5539	0.4958	0.164
Mof_H 	H 	0.8372	0.5658	0.4803	0.173
Mof_H 	H 	0.8799	0.5776	0.4771	0.162
Mof_C 	C 	0.8466	0.58864	0.0909	0.088
Mof_H 	H 	0.8544	0.5864	0.0227	0.001
Mof_C 	C 	0.8262	0.62096	0.0243	0.046
Mof_C 	C 	0.8194	0.61269	0.9174	-0.16
Mof_H 	H 	0.7941	0.6045	0.9154	0.075
Mof_H 	H 	0.8428	0.6041	0.8974	0.08
Mof_C 	C 	0.8155	0.6316	0.8404	-0.073
Mof_H 	H 	0.8417	0.6391	0.8398	0.048
Mof_H 	H 	0.8104	0.6266	0.7711	0.03
Mof_C 	C 	0.782	0.6451	0.8707	-0.055
Mof_H 	H 	0.7557	0.6377	0.8699	0.036
Mof_H 	H 	0.7799	0.6563	0.8217	0.032
Mof_C 	C 	0.7899	0.65394	0.9815	-0.169
Mof_H 	H 	0.8163	0.6613	0.9834	0.085
Mof_H 	H 	0.7677	0.6633	0.0004	0.084
Mof_C 	C 	0.791	0.63618	0.0551	0.046
Mof_C 	C 	0.8034	0.66456	0.3008	-0.085
Mof_C 	C 	0.7978	0.68526	0.329	0.009
Mof_H 	H 	0.7908	0.6946	0.2777	0.016
Mof_C 	C 	0.802	0.69216	0.4271	-0.082
Mof_C 	C 	0.8173	0.67736	0.498	-0.115
Mof_H 	H 	0.8224	0.6818	0.565	0.068
Mof_C 	C 	0.8254	0.65682	0.4772	0.129
Mof_C 	C 	0.81752	0.65038	0.3794	0.106
Mof_C 	C 	0.7982	0.65923	0.1969	0.077
Mof_H 	H 	0.7933	0.6698	0.1502	0.004
Mof_C 	C 	0.7961	0.71281	0.4602	0.319
Mof_C 	C 	0.8413	0.64229	0.5562	-0.621
Mof_H 	H 	0.8437	0.6289	0.5265	0.219
Mof_H 	H 	0.8223	0.6419	0.6135	0.202
Mof_H 	H 	0.8683	0.6467	0.5798	0.197
Mof_C 	C 	0.653	0.70898	0.4602	0.057
Mof_C 	C 	0.6338	0.69696	0.3886	-0.11
Mof_H 	H 	0.6356	0.7002	0.3188	0.078
Mof_C 	C 	0.6105	0.67905	0.4214	0.004
Mof_C 	C 	0.606	0.67636	0.5272	0.002
Mof_C 	C 	0.6259	0.68918	0.6028	0.329
Mof_C 	C 	0.6464	0.7057	0.5632	-0.285
Mof_H 	H 	0.6566	0.7154	0.6093	0.15
Mof_C 	C 	0.676	0.72622	0.4188	0.245
Mof_C 	C 	0.593	0.66664	0.3441	0.019
Mof_H 	H 	0.5964	0.6708	0.276	0.023
Mof_C 	C 	0.6167	0.68668	0.7096	-0.924
Mof_H 	H 	0.6005	0.6745	0.7193	0.31
Mof_H 	H 	0.6011	0.6983	0.7338	0.302
Mof_H 	H 	0.6424	0.6856	0.7478	0.299
Mof_C 	C 	0.5533	0.63723	0.278	0.042
Mof_C 	C 	0.564	0.64332	0.1706	-0.167
Mof_H 	H 	0.5939	0.6422	0.16	0.085
Mof_H 	H 	0.5558	0.6574	0.159	0.074
Mof_C 	C 	0.5411	0.62941	0.0946	-0.062
Mof_H 	H 	0.5481	0.6331	0.0242	0.026
Mof_H 	H 	0.5111	0.6307	0.1034	0.035
Mof_C 	C 	0.5561	0.606	0.1184	-0.073
Mof_H 	H 	0.5422	0.5967	0.0711	0.031
Mof_H 	H 	0.586	0.6048	0.1074	0.047
Mof_C 	C 	0.5459	0.60002	0.2271	-0.157
Mof_H 	H 	0.556	0.5863	0.2403	0.072
Mof_H 	H 	0.5158	0.6001	0.2367	0.075
Mof_C 	C 	0.5661	0.61481	0.303	0.05
Mof_C 	C 	0.5529	0.58752	0.5554	-0.087
Mof_C 	C 	0.56368	0.6021	0.635	0.128
Mof_C 	C 	0.5679	0.59479	0.7345	0.088
Mof_C 	C 	0.5578	0.57501	0.7576	-0.092
Mof_H 	H 	0.5599	0.5706	0.8257	0.06
Mof_C 	C 	0.5446	0.56107	0.6822	-0.09
Mof_C 	C 	0.5432	0.5679	0.5813	0.013
Mof_H 	H 	0.5353	0.5588	0.5295	0.016
Mof_C 	C 	0.554	0.59355	0.447	0.059
Mof_H 	H 	0.5501	0.5833	0.3983	0.006
Mof_C 	C 	0.5832	0.6096	0.8177	-0.548
Mof_H 	H 	0.5889	0.6227	0.7871	0.193
Mof_H 	H 	0.6084	0.6043	0.8484	0.177
Mof_H 	H 	0.5621	0.6111	0.8698	0.18
Mof_C 	C 	0.5273	0.53998	0.714	0.391
Mof_N 	N 	0.57269	0.6499	0.3597	-0.184
Mof_N 	N 	0.55986	0.61181	0.4127	-0.196
Mof_N 	N 	0.79942	0.6416	0.1623	-0.198
Mof_N 	N 	0.82816	0.60535	0.1077	-0.207
Mof_O 	O 	0.5382	0.5329	0.803	-0.438
Mof_O 	O 	0.5216	0.527	0.6505	-0.503
Mof_O 	O 	0.58377	0.66022	0.5661	-0.318
Mof_O 	O 	0.57177	0.62107	0.6147	-0.351
Mof_O 	O 	0.83355	0.59104	0.308	-0.353
Mof_O 	O 	0.82308	0.63099	0.3579	-0.344
Mof_O 	O 	0.9326	0.51073	0.2213	-0.472
Mof_O 	O 	0.9269	0.52138	0.0677	-0.414
Mof_O 	O 	0.6826	0.72895	0.329	-0.387
Mof_O 	O 	0.6896	0.73988	0.5007	-0.194
Mof_O 	O 	0.7828	0.72633	0.4001	-0.391
Mof_O 	O 	0.7898	0.717	0.5619	-0.21
Mof_Fe	Fe	0.30368	0.11395	0.24892	0.911
Mof_Fe	Fe	0.05461	0.13813	0.50397	0.914
Mof_Ba	Ba	0.0052	0.99963	0.83103	0.841
Mof_C 	C 	0.3952	0.04102	0.1939	-0.148
Mof_C 	C 	0.3916	0.04523	0.3008	-0.019
Mof_H 	H 	0.4052	0.0368	0.3479	0.022
Mof_C 	C 	0.369	0.06112	0.3359	0.016
Mof_C 	C 	0.3527	0.07609	0.2714	0.187
Mof_C 	C 	0.357	0.07273	0.1612	-0.122
Mof_C 	C 	0.3808	0.0569	0.1286	0.05
Mof_H 	H 	0.3881	0.0564	0.0592	0.022
Mof_C 	C 	0.4205	0.0229	0.1618	0.456
Mof_C 	C 	0.3661	0.065	0.4601	-0.466
Mof_H 	H 	0.3794	0.0539	0.4958	0.164
Mof_H 	H 	0.3372	0.0658	0.4803	0.173
Mof_H 	H 	0.3799	0.0776	0.4771	0.162
Mof_C 	C 	0.3466	0.08864	0.0909	0.088
Mof_H 	H 	0.3544	0.0864	0.0227	0.001
Mof_C 	C 	0.3262	0.12096	0.0243	0.047
Mof_C 	C 	0.3194	0.11269	0.9174	-0.16
Mof_H 	H 	0.2941	0.1045	0.9154	0.075
Mof_H 	H 	0.3428	0.1041	0.8974	0.081
Mof_C 	C 	0.3155	0.1316	0.8404	-0.073
Mof_H 	H 	0.3417	0.1391	0.8398	0.048
Mof_H 	H 	0.3104	0.1266	0.7711	0.03
Mof_C 	C 	0.282	0.1451	0.8707	-0.055
Mof_H 	H 	0.2557	0.1377	0.8699	0.036
Mof_H 	H 	0.2799	0.1563	0.8217	0.033
Mof_C 	C 	0.2899	0.15394	0.9815	-0.169
Mof_H 	H 	0.3163	0.1613	0.9834	0.085
Mof_H 	H 	0.2677	0.1633	0.0004	0.084
Mof_C 	C 	0.291	0.13618	0.0551	0.046
Mof_C 	C 	0.3034	0.16456	0.3008	-0.085
Mof_C 	C 	0.2978	0.18526	0.329	0.009
Mof_H 	H 	0.2908	0.1946	0.2777	0.016
Mof_C 	C 	0.302	0.19216	0.4271	-0.082
Mof_C 	C 	0.3173	0.17736	0.498	-0.115
Mof_H 	H 	0.3224	0.1818	0.565	0.068
Mof_C 	C 	0.3254	0.15682	0.4772	0.129
Mof_C 	C 	0.31752	0.15038	0.3794	0.106
Mof_C 	C 	0.2982	0.15923	0.1969	0.077
Mof_H 	H 	0.2933	0.1698	0.1502	0.004
Mof_C 	C 	0.2961	0.21281	0.4602	0.319
Mof_C 	C 	0.3413	0.14229	0.5562	-0.62
Mof_H 	H 	0.3437	0.1289	0.5265	0.219
Mof_H 	H 	0.3223	0.1419	0.6135	0.202
Mof_H 	H 	0.3683	0.1467	0.5798	0.197
Mof_C 	C 	0.153	0.20898	0.4602	0.056
Mof_C 	C 	0.1338	0.19696	0.3886	-0.11
Mof_H 	H 	0.1356	0.2002	0.3188	0.077
Mof_C 	C 	0.1105	0.17905	0.4214	0.004
Mof_C 	C 	0.106	0.17636	0.5272	0.003
Mof_C 	C 	0.1259	0.18918	0.6028	0.327
Mof_C 	C 	0.1464	0.2057	0.5632	-0.284
Mof_H 	H 	0.1566	0.2154	0.6093	0.15
Mof_C 	C 	0.176	0.22622	0.4188	0.246
Mof_C 	C 	0.093	0.16664	0.3441	0.019
Mof_H 	H 	0.0964	0.1708	0.276	0.023
Mof_C 	C 	0.1167	0.18668	0.7096	-0.921
Mof_H 	H 	0.1005	0.1745	0.7193	0.309
Mof_H 	H 	0.1011	0.1983	0.7338	0.3
Mof_H 	H 	0.1424	0.1856	0.7478	0.298
Mof_C 	C 	0.0533	0.13723	0.278	0.041
Mof_C 	C 	0.064	0.14332	0.1706	-0.168
Mof_H 	H 	0.0939	0.1422	0.16	0.085
Mof_H 	H 	0.0558	0.1574	0.159	0.073
Mof_C 	C 	0.0411	0.12941	0.0946	-0.06
Mof_H 	H 	0.0481	0.1331	0.0242	0.024
Mof_H 	H 	0.0111	0.1307	0.1034	0.032
Mof_C 	C 	0.0561	0.106	0.1184	-0.075
Mof_H 	H 	0.0422	0.0967	0.0711	0.03
Mof_H 	H 	0.086	0.1048	0.1074	0.048
Mof_C 	C 	0.0459	0.10002	0.2271	-0.155
Mof_H 	H 	0.056	0.0863	0.2403	0.07
Mof_H 	H 	0.0158	0.1001	0.2367	0.072
Mof_C 	C 	0.0661	0.11481	0.303	0.05
Mof_C 	C 	0.0529	0.08752	0.5554	-0.089
Mof_C 	C 	0.06368	0.1021	0.635	0.128
Mof_C 	C 	0.0679	0.09479	0.7345	0.086
Mof_C 	C 	0.0578	0.07501	0.7576	-0.092
Mof_H 	H 	0.0599	0.0706	0.8257	0.059
Mof_C 	C 	0.0446	0.06107	0.6822	-0.091
Mof_C 	C 	0.0432	0.0679	0.5813	0.013
Mof_H 	H 	0.0353	0.0588	0.5295	0.015
Mof_C 	C 	0.054	0.09355	0.447	0.058
Mof_H 	H 	0.0501	0.0833	0.3983	0.005
Mof_C 	C 	0.0832	0.1096	0.8177	-0.545
Mof_H 	H 	0.0889	0.1227	0.7871	0.192
Mof_H 	H 	0.1084	0.1043	0.8484	0.176
Mof_H 	H 	0.0621	0.1111	0.8698	0.178
Mof_C 	C 	0.0273	0.03998	0.714	0.39
Mof_N 	N 	0.07269	0.1499	0.3597	-0.184
Mof_N 	N 	0.05986	0.11181	0.4127	-0.196
Mof_N 	N 	0.29942	0.1416	0.1623	-0.198
Mof_N 	N 	0.32816	0.10535	0.1077	-0.207
Mof_O 	O 	0.0382	0.0329	0.803	-0.44
Mof_O 	O 	0.0216	0.027	0.6505	-0.504
Mof_O 	O 	0.08377	0.16022	0.5661	-0.319
Mof_O 	O 	0.07177	0.12107	0.6147	-0.352
Mof_O 	O 	0.33355	0.09104	0.308	-0.353
Mof_O 	O 	0.32308	0.13099	0.3579	-0.344
Mof_O 	O 	0.4326	0.01073	0.2213	-0.475
Mof_O 	O 	0.4269	0.02138	0.0677	-0.417
Mof_O 	O 	0.1826	0.22895	0.329	-0.387
Mof_O 	O 	0.1896	0.23988	0.5007	-0.195
Mof_O 	O 	0.2828	0.22633	0.4001	-0.391
Mof_O 	O 	0.2898	0.217	0.5619	-0.21
Mof_Fe	Fe	0.30368	0.61395	0.74892	0.911
Mof_Fe	Fe	0.05461	0.63813	0.00397	0.913
Mof_Ba	Ba	0.0052	0.49963	0.33103	0.841
Mof_C 	C 	0.3952	0.54102	0.6939	-0.148
Mof_C 	C 	0.3916	0.54523	0.8008	-0.02
Mof_H 	H 	0.4052	0.5368	0.8479	0.023
Mof_C 	C 	0.369	0.56112	0.8359	0.017
Mof_C 	C 	0.3527	0.57609	0.7714	0.187
Mof_C 	C 	0.357	0.57273	0.6612	-0.122
Mof_C 	C 	0.3808	0.5569	0.6286	0.049
Mof_H 	H 	0.3881	0.5564	0.5592	0.023
Mof_C 	C 	0.4205	0.5229	0.6618	0.456
Mof_C 	C 	0.3661	0.565	0.9601	-0.467
Mof_H 	H 	0.3794	0.5539	0.9958	0.164
Mof_H 	H 	0.3372	0.5658	0.9803	0.173
Mof_H 	H 	0.3799	0.5776	0.9771	0.162
Mof_C 	C 	0.3466	0.58864	0.5909	0.088
Mof_H 	H 	0.3544	0.5864	0.5227	0.002
Mof_C 	C 	0.3262	0.62096	0.5243	0.047
Mof_C 	C 	0.3194	0.61269	0.4174	-0.161
Mof_H 	H 	0.2941	0.6045	0.4154	0.075
Mof_H 	H 	0.3428	0.6041	0.3974	0.08
Mof_C 	C 	0.3155	0.6316	0.3404	-0.075
Mof_H 	H 	0.3417	0.6391	0.3398	0.049
Mof_H 	H 	0.3104	0.6266	0.2711	0.03
Mof_C 	C 	0.282	0.6451	0.3707	-0.052
Mof_H 	H 	0.2557	0.6377	0.3699	0.035
Mof_H 	H 	0.2799	0.6563	0.3217	0.031
Mof_C 	C 	0.2899	0.65394	0.4815	-0.175
Mof_H 	H 	0.3163	0.6613	0.4834	0.086
Mof_H 	H 	0.2677	0.6633	0.5004	0.087
Mof_C 	C 	0.291	0.63618	0.5551	0.048
Mof_C 	C 	0.3034	0.66456	0.8008	-0.085
Mof_C 	C 	0.2978	0.68526	0.829	0.009
Mof_H 	H 	0.2908	0.6946	0.7777	0.016
Mof_C 	C 	0.302	0.69216	0.9271	-0.082
Mof_C 	C 	0.3173	0.67736	0.998	-0.114
Mof_H 	H 	0.3224	0.6818	0.065	0.068
Mof_C 	C 	0.3254	0.65682	0.9772	0.129
Mof_C 	C 	0.31752	0.65038	0.8794	0.106
Mof_C 	C 	0.2982	0.65923	0.6969	0.077
Mof_H 	H 	0.2933	0.6698	0.6502	0.004
Mof_C 	C 	0.2961	0.71281	0.9602	0.319
Mof_C 	C 	0.3413	0.64229	0.0562	-0.621
Mof_H 	H 	0.3437	0.6289	0.0265	0.218
Mof_H 	H 	0.3223	0.6419	0.1135	0.202
Mof_H 	H 	0.3683	0.6467	0.0798	0.197
Mof_C 	C 	0.153	0.70898	0.9602	0.057
Mof_C 	C 	0.1338	0.69696	0.8886	-0.111
Mof_H 	H 	0.1356	0.7002	0.8188	0.077
Mof_C 	C 	0.1105	0.67905	0.9214	0.005
Mof_C 	C 	0.106	0.67636	0.0272	0.001
Mof_C 	C 	0.1259	0.68918	0.1028	0.328
Mof_C 	C 	0.1464	0.7057	0.0632	-0.285
Mof_H 	H 	0.1566	0.7154	0.1093	0.15
Mof_C 	C 	0.176	0.72622	0.9188	0.245
Mof_C 	C 	0.093	0.66664	0.8441	0.018
Mof_H 	H 	0.0964	0.6708	0.776	0.023
Mof_C 	C 	0.1167	0.68668	0.2096	-0.922
Mof_H 	H 	0.1005	0.6745	0.2193	0.309
Mof_H 	H 	0.1011	0.6983	0.2338	0.3
Mof_H 	H 	0.1424	0.6856	0.2478	0.298
Mof_C 	C 	0.0533	0.63723	0.778	0.041
Mof_C 	C 	0.064	0.64332	0.6706	-0.168
Mof_H 	H 	0.0939	0.6422	0.66	0.086
Mof_H 	H 	0.0558	0.6574	0.659	0.073
Mof_C 	C 	0.0411	0.62941	0.5946	-0.06
Mof_H 	H 	0.0481	0.6331	0.5242	0.024
Mof_H 	H 	0.0111	0.6307	0.6034	0.032
Mof_C 	C 	0.0561	0.606	0.6184	-0.075
Mof_H 	H 	0.0422	0.5967	0.5711	0.03
Mof_H 	H 	0.086	0.6048	0.6074	0.048
Mof_C 	C 	0.0459	0.60002	0.7271	-0.155
Mof_H 	H 	0.056	0.5863	0.7403	0.07
Mof_H 	H 	0.0158	0.6001	0.7367	0.072
Mof_C 	C 	0.0661	0.61481	0.803	0.05
Mof_C 	C 	0.0529	0.58752	0.0554	-0.092
Mof_C 	C 	0.06368	0.6021	0.135	0.129
Mof_C 	C 	0.0679	0.59479	0.2345	0.085
Mof_C 	C 	0.0578	0.57501	0.2576	-0.09
Mof_H 	H 	0.0599	0.5706	0.3257	0.058
Mof_C 	C 	0.0446	0.56107	0.1822	-0.092
Mof_C 	C 	0.0432	0.5679	0.0813	0.015
Mof_H 	H 	0.0353	0.5588	0.0295	0.014
Mof_C 	C 	0.054	0.59355	0.947	0.061
Mof_H 	H 	0.0501	0.5833	0.8983	0.005
Mof_C 	C 	0.0832	0.6096	0.3177	-0.543
Mof_H 	H 	0.0889	0.6227	0.2871	0.191
Mof_H 	H 	0.1084	0.6043	0.3484	0.175
Mof_H 	H 	0.0621	0.6111	0.3698	0.177
Mof_C 	C 	0.0273	0.53998	0.214	0.39
Mof_N 	N 	0.07269	0.6499	0.8597	-0.184
Mof_N 	N 	0.05986	0.61181	0.9127	-0.196
Mof_N 	N 	0.29942	0.6416	0.6623	-0.198
Mof_N 	N 	0.32816	0.60535	0.6077	-0.207
Mof_O 	O 	0.0382	0.5329	0.303	-0.441
Mof_O 	O 	0.0216	0.527	0.1505	-0.504
Mof_O 	O 	0.08377	0.66022	0.0661	-0.319
Mof_O 	O 	0.07177	0.62107	0.1147	-0.352
Mof_O 	O 	0.33355	0.59104	0.808	-0.353
Mof_O 	O 	0.32308	0.63099	0.8579	-0.344
Mof_O 	O 	0.4326	0.51073	0.7213	-0.475
Mof_O 	O 	0.4269	0.52138	0.5677	-0.417
Mof_O 	O 	0.1826	0.72895	0.829	-0.387
Mof_O 	O 	0.1896	0.73988	0.0007	-0.195
Mof_O 	O 	0.2828	0.72633	0.9001	-0.392
Mof_O 	O 	0.2898	0.717	0.0619	-0.21
Mof_Ba	Ba	0.75	0.75	0.25	2.154
Mof_Ba	Ba	0.25	0.25	0.25	2.154
Mof_Ba	Ba	0.25	0.75	0.75	2.155
Mof_Ba	Ba	0.75	0.25	0.75	2.155
Mof_Ba	Ba	7.60147e-34	0	0.5	1.995
Mof_Ba	Ba	-0	0.5	-0	1.99
Mof_Ba	Ba	0.5	0	-0	2.007
Mof_Ba	Ba	0.5	0.5	0.5	2.012
Mof_O 	O 	0.5	0.85775	-0	-0.506
Mof_O 	O 	0.5	0.35775	0.5	-0.505
Mof_O 	O 	6.35481e-33	0.85775	0.5	-0.511
Mof_O 	O 	-0	0.35775	-0	-0.512
Mof_O 	O 	0.5	0.14225	-0	-0.506
Mof_O 	O 	0.5	0.64225	0.5	-0.505
Mof_O 	O 	2.62503e-33	0.14225	0.5	-0.511
Mof_O 	O 	1.49191e-32	0.64225	-0	-0.512
Mof_O 	O 	0.75	0.89284	0.25	-0.498
Mof_O 	O 	0.75	0.39284	0.75	-0.498
Mof_O 	O 	0.25	0.39284	0.25	-0.498
Mof_O 	O 	0.25	0.10716	0.25	-0.498
Mof_O 	O 	0.25	0.60716	0.75	-0.498
Mof_O 	O 	0.25	0.89284	0.75	-0.498
Mof_O 	O 	0.75	0.10716	0.75	-0.498
Mof_O 	O 	0.75	0.60716	0.25	-0.498
Mof_O 	O 	0.4476	0	0.5	-0.41
Mof_O 	O 	0.4476	0.5	-0	-0.41
Mof_O 	O 	0.9476	0	-0	-0.406
Mof_O 	O 	0.9476	0.5	0.5	-0.406
Mof_O 	O 	0.5524	0	0.5	-0.41
Mof_O 	O 	0.5524	0.5	-0	-0.41
Mof_O 	O 	0.0524	0	-0	-0.414
Mof_O 	O 	0.0524	0.5	0.5	-0.414
_end
