data_functionalizedCrystal
_audit_creation_method	'EQeq! by Chris Wilmer'
_symmetry_space_group_name_H-M	'P1'
_symmetry_Int_Tables_number	1
_symmetry_cell_setting	triclinic
loop_
_symmetry_equiv_pos_as_xyz
  x,y,z
_cell_length_a	28.1548
_cell_length_b	28.1548
_cell_length_c	17.9281
_cell_angle_alpha	90
_cell_angle_beta	90
_cell_angle_gamma	120
loop_
_atom_site_label
_atom_site_type_symbol
_atom_site_fract_x
_atom_site_fract_y
_atom_site_fract_z
_atom_site_charge
Mof_C 	C 	0.40303	0.45472	0.5957	0.377
Mof_C 	C 	0.43251	0.49747	0.53729	-0.06
Mof_C 	C 	0.48092	0.54427	0.55571	-0.004
Mof_H 	H 	0.4934	0.5505	0.6059	0.061
Mof_C 	C 	0.51124	0.58212	0.50071	-0.051
Mof_C 	C 	0.56335	0.63144	0.52296	0.33
Mof_C 	C 	0.49251	0.57398	0.42723	-0.103
Mof_H 	H 	0.5136	0.5996	0.3895	0.078
Mof_C 	C 	0.44249	0.52783	0.4097	0.169
Mof_C 	C 	0.41271	0.48922	0.4645	-0.099
Mof_H 	H 	0.379	0.4574	0.4522	0.082
Mof_C 	C 	0.4416	0.5593	0.2841	0.09
Mof_C 	C 	0.4278	0.6004	0.2975	-0.016
Mof_C 	C 	0.4549	0.6392	0.2249	-0.001
Mof_C 	C 	0.4509	0.6949	0.2281	0.006
Mof_C 	C 	0.45878	0.42482	0.8849	0.384
Mof_C 	C 	0.51163	0.45988	0.92596	-0.062
Mof_C 	C 	0.54899	0.5119	0.90195	0.008
Mof_H 	H 	0.5433	0.5255	0.8564	0.048
Mof_C 	C 	0.59553	0.5445	0.94535	-0.07
Mof_C 	C 	0.63548	0.60169	0.92322	0.357
Mof_C 	C 	0.60456	0.5232	0.0103	-0.091
Mof_H 	H 	0.6366	0.545	0.039	0.086
Mof_C 	C 	0.5673	0.4707	0.0334	0.156
Mof_C 	C 	0.52017	0.43838	0.9919	-0.095
Mof_H 	H 	0.4942	0.4024	0.0079	0.083
Mof_O 	O 	0.35995	0.41209	0.57777	-0.402
Mof_O 	O 	0.42477	0.46424	0.65939	-0.39
Mof_O 	O 	0.59757	0.66208	0.47458	-0.403
Mof_O 	O 	0.57256	0.64291	0.59115	-0.372
Mof_O 	O 	0.41934	0.51557	0.33998	-0.227
Mof_O 	O 	0.42259	0.38341	0.91845	-0.404
Mof_O 	O 	0.45445	0.43952	0.82007	-0.402
Mof_O 	O 	0.63296	0.61861	0.85982	-0.391
Mof_O 	O 	0.67291	0.63193	0.97086	-0.435
Mof_Mn	Mn	0.38921	0.41317	0.74915	0.936
Mof_Mn	Mn	0.3277	0.32805	0.57903	0.924
Mof_O 	O 	0.586	0.4464	0.0859	-0.1
Mof_C 	C 	0.5454	0.3852	0.1067	0.055
Mof_C 	C 	0.5842	0.3721	0.1557	0.004
Mof_C 	C 	0.5918	0.4078	0.232	0.035
Mof_C 	C 	0.596	0.4077	0.327	-0.008
Mof_C 	C 	0.3937	0.5456	0.2305	-0.004
Mof_C 	C 	0.5439	0.4124	0.1391	-0.105
Mof_C 	C 	0.5397	0.4118	0.2308	0.02
Mof_C 	C 	0.5013	0.3963	0.2727	0.001
Mof_C 	C 	0.415	0.5978	0.1752	0.002
Mof_C 	C 	0.5584	0.3686	0.3379	0.008
Mof_C 	C 	0.5285	0.3669	0.2653	-0.005
Mof_C 	C 	0.5672	0.4121	0.2199	-0.031
Mof_C 	C 	0.5238	0.4066	0.1405	0.132
Mof_O 	O 	0.5755	0.459	0.1069	-0.109
Mof_C 	C 	0.0697	0.78805	0.92903	0.377
Mof_C 	C 	0.09918	0.8308	0.87062	-0.058
Mof_C 	C 	0.14759	0.8776	0.88904	-0.004
Mof_H 	H 	0.16007	0.88383	0.93923	0.063
Mof_C 	C 	0.17791	0.91545	0.83404	-0.049
Mof_C 	C 	0.23002	0.96477	0.85629	0.33
Mof_C 	C 	0.15918	0.90731	0.76056	-0.103
Mof_H 	H 	0.18027	0.93293	0.72283	0.08
Mof_C 	C 	0.10916	0.86116	0.74303	0.171
Mof_C 	C 	0.07938	0.82255	0.79783	-0.098
Mof_H 	H 	0.04567	0.79073	0.78553	0.083
Mof_C 	C 	0.10827	0.89263	0.61743	0.09
Mof_C 	C 	0.09447	0.93373	0.63083	-0.016
Mof_C 	C 	0.12157	0.97253	0.55823	-0
Mof_C 	C 	0.11757	0.02823	0.56143	0.005
Mof_C 	C 	0.12545	0.75815	0.21823	0.384
Mof_C 	C 	0.1783	0.79321	0.25929	-0.063
Mof_C 	C 	0.21566	0.84523	0.23528	0.009
Mof_H 	H 	0.20997	0.85883	0.18973	0.048
Mof_C 	C 	0.2622	0.87783	0.27868	-0.07
Mof_C 	C 	0.30215	0.93502	0.25655	0.357
Mof_C 	C 	0.27123	0.85653	0.34363	-0.091
Mof_H 	H 	0.30327	0.87833	0.37233	0.085
Mof_C 	C 	0.23397	0.80403	0.36673	0.155
Mof_C 	C 	0.18684	0.77171	0.32523	-0.094
Mof_H 	H 	0.16087	0.73573	0.34123	0.082
Mof_O 	O 	0.02662	0.74542	0.9111	-0.401
Mof_O 	O 	0.09144	0.79757	0.99272	-0.388
Mof_O 	O 	0.26424	0.99541	0.80791	-0.402
Mof_O 	O 	0.23923	0.97624	0.92448	-0.37
Mof_O 	O 	0.08601	0.8489	0.67331	-0.226
Mof_O 	O 	0.08926	0.71674	0.25178	-0.404
Mof_O 	O 	0.12112	0.77285	0.1534	-0.402
Mof_O 	O 	0.29963	0.95194	0.19315	-0.392
Mof_O 	O 	0.33958	0.96526	0.30419	-0.436
Mof_Mn	Mn	0.05588	0.7465	0.08248	0.933
Mof_Mn	Mn	0.99437	0.66138	0.91236	0.922
Mof_O 	O 	0.25267	0.77973	0.41923	-0.1
Mof_C 	C 	0.21207	0.71853	0.44003	0.055
Mof_C 	C 	0.25087	0.70543	0.48903	0.004
Mof_C 	C 	0.25847	0.74113	0.56533	0.035
Mof_C 	C 	0.26267	0.74103	0.66033	-0.008
Mof_C 	C 	0.06037	0.87893	0.56383	-0.004
Mof_C 	C 	0.21057	0.74573	0.47243	-0.105
Mof_C 	C 	0.20637	0.74513	0.56413	0.02
Mof_C 	C 	0.16797	0.72963	0.60603	0.001
Mof_C 	C 	0.08167	0.93113	0.50853	0.002
Mof_C 	C 	0.22507	0.70193	0.67123	0.008
Mof_C 	C 	0.19517	0.70023	0.59863	-0.005
Mof_C 	C 	0.23387	0.74543	0.55323	-0.031
Mof_C 	C 	0.19047	0.73993	0.47383	0.132
Mof_O 	O 	0.24217	0.79233	0.44023	-0.108
Mof_C 	C 	0.73636	0.12139	0.26237	0.378
Mof_C 	C 	0.76584	0.16414	0.20396	-0.059
Mof_C 	C 	0.81425	0.21094	0.22238	-0.004
Mof_H 	H 	0.82673	0.21717	0.27257	0.062
Mof_C 	C 	0.84457	0.24879	0.16738	-0.05
Mof_C 	C 	0.89668	0.29811	0.18963	0.331
Mof_C 	C 	0.82584	0.24065	0.0939	-0.102
Mof_H 	H 	0.84693	0.26627	0.05617	0.08
Mof_C 	C 	0.77582	0.1945	0.07637	0.171
Mof_C 	C 	0.74604	0.15589	0.13117	-0.098
Mof_H 	H 	0.71233	0.12407	0.11887	0.082
Mof_C 	C 	0.77493	0.22597	0.95077	0.088
Mof_C 	C 	0.76113	0.26707	0.96417	-0.017
Mof_C 	C 	0.78823	0.30587	0.89157	-0.001
Mof_C 	C 	0.78423	0.36157	0.89477	0.005
Mof_C 	C 	0.79211	0.09149	0.55157	0.384
Mof_C 	C 	0.84496	0.12655	0.59263	-0.063
Mof_C 	C 	0.88232	0.17857	0.56862	0.009
Mof_H 	H 	0.87663	0.19217	0.52307	0.048
Mof_C 	C 	0.92886	0.21117	0.61202	-0.07
Mof_C 	C 	0.96881	0.26836	0.58989	0.357
Mof_C 	C 	0.93789	0.18987	0.67697	-0.091
Mof_H 	H 	0.96993	0.21167	0.70567	0.085
Mof_C 	C 	0.90063	0.13737	0.70007	0.156
Mof_C 	C 	0.8535	0.10505	0.65857	-0.094
Mof_H 	H 	0.82753	0.06907	0.67457	0.082
Mof_O 	O 	0.69328	0.07876	0.24444	-0.402
Mof_O 	O 	0.7581	0.13091	0.32606	-0.39
Mof_O 	O 	0.9309	0.32875	0.14125	-0.402
Mof_O 	O 	0.90589	0.30958	0.25782	-0.372
Mof_O 	O 	0.75267	0.18224	0.00665	-0.225
Mof_O 	O 	0.75592	0.05008	0.58512	-0.404
Mof_O 	O 	0.78778	0.10619	0.48674	-0.402
Mof_O 	O 	0.96629	0.28528	0.52649	-0.391
Mof_O 	O 	0.00624	0.2986	0.63753	-0.435
Mof_Mn	Mn	0.72254	0.07984	0.41582	0.936
Mof_Mn	Mn	0.66103	0.99472	0.2457	0.922
Mof_O 	O 	0.91933	0.11307	0.75257	-0.1
Mof_C 	C 	0.87873	0.05187	0.77337	0.055
Mof_C 	C 	0.91753	0.03877	0.82237	0.003
Mof_C 	C 	0.92513	0.07447	0.89867	0.034
Mof_C 	C 	0.92933	0.07437	0.99367	-0.017
Mof_C 	C 	0.72703	0.21227	0.89717	-0.004
Mof_C 	C 	0.87723	0.07907	0.80577	-0.105
Mof_C 	C 	0.87303	0.07847	0.89747	0.02
Mof_C 	C 	0.83463	0.06297	0.93937	0
Mof_C 	C 	0.74833	0.26447	0.84187	0.002
Mof_C 	C 	0.89173	0.03527	0.00457	0.018
Mof_C 	C 	0.86183	0.03357	0.93197	-0.009
Mof_C 	C 	0.90053	0.07877	0.88657	-0.029
Mof_C 	C 	0.85713	0.07327	0.80717	0.131
Mof_O 	O 	0.90883	0.12567	0.77357	-0.109
Mof_C 	C 	0.54528	0.94831	0.5957	0.378
Mof_C 	C 	0.50253	0.93504	0.53729	-0.059
Mof_C 	C 	0.45573	0.93665	0.55571	-0.003
Mof_H 	H 	0.4495	0.9429	0.6059	0.062
Mof_C 	C 	0.41788	0.92912	0.50071	-0.05
Mof_C 	C 	0.36856	0.93191	0.52296	0.331
Mof_C 	C 	0.42602	0.91853	0.42723	-0.102
Mof_H 	H 	0.4004	0.914	0.3895	0.079
Mof_C 	C 	0.47217	0.91466	0.4097	0.17
Mof_C 	C 	0.51078	0.92349	0.4645	-0.098
Mof_H 	H 	0.5426	0.9216	0.4522	0.082
Mof_C 	C 	0.4407	0.8823	0.2841	0.09
Mof_C 	C 	0.3996	0.8274	0.2975	-0.016
Mof_C 	C 	0.3608	0.8157	0.2249	-0.001
Mof_C 	C 	0.3051	0.756	0.2281	0.006
Mof_C 	C 	0.57518	0.03396	0.8849	0.383
Mof_C 	C 	0.54012	0.05175	0.92596	-0.061
Mof_C 	C 	0.4881	0.03709	0.90195	0.007
Mof_H 	H 	0.4745	0.0178	0.8564	0.049
Mof_C 	C 	0.4555	0.05103	0.94535	-0.07
Mof_C 	C 	0.39831	0.03379	0.92322	0.357
Mof_C 	C 	0.4768	0.08136	0.0103	-0.091
Mof_H 	H 	0.455	0.0916	0.039	0.086
Mof_C 	C 	0.5293	0.0966	0.0334	0.159
Mof_C 	C 	0.56162	0.08179	0.9919	-0.101
Mof_H 	H 	0.5976	0.0918	0.0079	0.086
Mof_O 	O 	0.58791	0.94786	0.57777	-0.402
Mof_O 	O 	0.53576	0.96053	0.65939	-0.39
Mof_O 	O 	0.33792	0.93549	0.47458	-0.403
Mof_O 	O 	0.35709	0.92965	0.59115	-0.372
Mof_O 	O 	0.48443	0.90377	0.33998	-0.227
Mof_O 	O 	0.61659	0.03918	0.91845	-0.404
Mof_O 	O 	0.56048	0.01493	0.82007	-0.403
Mof_O 	O 	0.38139	0.01435	0.85982	-0.391
Mof_O 	O 	0.36807	0.04098	0.97086	-0.435
Mof_Mn	Mn	0.58683	0.97604	0.74915	0.937
Mof_Mn	Mn	0.67195	0.99965	0.57903	0.924
Mof_O 	O 	0.5536	0.1396	0.0859	-0.1
Mof_C 	C 	0.6148	0.1602	0.1067	0.055
Mof_C 	C 	0.6279	0.2121	0.1557	0.004
Mof_C 	C 	0.5922	0.184	0.232	0.035
Mof_C 	C 	0.5923	0.1883	0.327	-0.008
Mof_C 	C 	0.4544	0.8481	0.2305	-0.004
Mof_C 	C 	0.5876	0.1315	0.1391	-0.104
Mof_C 	C 	0.5882	0.1279	0.2308	0.02
Mof_C 	C 	0.6037	0.105	0.2727	0.001
Mof_C 	C 	0.4022	0.8172	0.1752	0.002
Mof_C 	C 	0.6314	0.1898	0.3379	0.008
Mof_C 	C 	0.6331	0.1616	0.2653	-0.005
Mof_C 	C 	0.5879	0.1551	0.2199	-0.031
Mof_C 	C 	0.5934	0.1172	0.1405	0.132
Mof_O 	O 	0.541	0.1165	0.1069	-0.109
Mof_C 	C 	0.21195	0.28164	0.92903	0.378
Mof_C 	C 	0.1692	0.26837	0.87062	-0.059
Mof_C 	C 	0.1224	0.26998	0.88904	-0.004
Mof_H 	H 	0.11617	0.27623	0.93923	0.062
Mof_C 	C 	0.08455	0.26245	0.83404	-0.05
Mof_C 	C 	0.03523	0.26524	0.85629	0.331
Mof_C 	C 	0.09269	0.25186	0.76056	-0.102
Mof_H 	H 	0.06707	0.24733	0.72283	0.08
Mof_C 	C 	0.13884	0.24799	0.74303	0.171
Mof_C 	C 	0.17745	0.25682	0.79783	-0.098
Mof_H 	H 	0.20927	0.25493	0.78553	0.082
Mof_C 	C 	0.10737	0.21563	0.61743	0.09
Mof_C 	C 	0.06627	0.16073	0.63083	-0.016
Mof_C 	C 	0.02747	0.14903	0.55823	-0.001
Mof_C 	C 	0.97177	0.08933	0.56143	0.006
Mof_C 	C 	0.24185	0.36729	0.21823	0.384
Mof_C 	C 	0.20679	0.38508	0.25929	-0.063
Mof_C 	C 	0.15477	0.37042	0.23528	0.009
Mof_H 	H 	0.14117	0.35113	0.18973	0.048
Mof_C 	C 	0.12217	0.38436	0.27868	-0.07
Mof_C 	C 	0.06498	0.36712	0.25655	0.357
Mof_C 	C 	0.14347	0.41469	0.34363	-0.091
Mof_H 	H 	0.12167	0.42493	0.37233	0.085
Mof_C 	C 	0.19597	0.42993	0.36673	0.155
Mof_C 	C 	0.22829	0.41512	0.32523	-0.093
Mof_H 	H 	0.26427	0.42513	0.34123	0.082
Mof_O 	O 	0.25458	0.28119	0.9111	-0.402
Mof_O 	O 	0.20243	0.29386	0.99272	-0.39
Mof_O 	O 	0.00459	0.26882	0.80791	-0.402
Mof_O 	O 	0.02376	0.26298	0.92448	-0.371
Mof_O 	O 	0.1511	0.2371	0.67331	-0.227
Mof_O 	O 	0.28326	0.37251	0.25178	-0.404
Mof_O 	O 	0.22715	0.34826	0.1534	-0.402
Mof_O 	O 	0.04806	0.34768	0.19315	-0.392
Mof_O 	O 	0.03474	0.37431	0.30419	-0.436
Mof_Mn	Mn	0.2535	0.30937	0.08248	0.935
Mof_Mn	Mn	0.33862	0.33298	0.91236	0.923
Mof_O 	O 	0.22027	0.47293	0.41923	-0.1
Mof_C 	C 	0.28147	0.49353	0.44003	0.055
Mof_C 	C 	0.29457	0.54543	0.48903	0.004
Mof_C 	C 	0.25887	0.51733	0.56533	0.035
Mof_C 	C 	0.25897	0.52163	0.66033	-0.008
Mof_C 	C 	0.12107	0.18143	0.56383	-0.004
Mof_C 	C 	0.25427	0.46483	0.47243	-0.105
Mof_C 	C 	0.25487	0.46123	0.56413	0.02
Mof_C 	C 	0.27037	0.43833	0.60603	0.001
Mof_C 	C 	0.06887	0.15053	0.50853	0.002
Mof_C 	C 	0.29807	0.52313	0.67123	0.008
Mof_C 	C 	0.29977	0.49493	0.59863	-0.005
Mof_C 	C 	0.25457	0.48843	0.55323	-0.031
Mof_C 	C 	0.26007	0.45053	0.47383	0.132
Mof_O 	O 	0.20767	0.44983	0.44023	-0.108
Mof_C 	C 	0.87861	0.61498	0.26237	0.378
Mof_C 	C 	0.83586	0.60171	0.20396	-0.059
Mof_C 	C 	0.78906	0.60332	0.22238	-0.003
Mof_H 	H 	0.78283	0.60957	0.27257	0.062
Mof_C 	C 	0.75121	0.59579	0.16738	-0.05
Mof_C 	C 	0.70189	0.59858	0.18963	0.331
Mof_C 	C 	0.75935	0.5852	0.0939	-0.102
Mof_H 	H 	0.73373	0.58067	0.05617	0.08
Mof_C 	C 	0.8055	0.58133	0.07637	0.17
Mof_C 	C 	0.84411	0.59016	0.13117	-0.098
Mof_H 	H 	0.87593	0.58827	0.11887	0.082
Mof_C 	C 	0.77403	0.54897	0.95077	0.089
Mof_C 	C 	0.73293	0.49407	0.96417	-0.017
Mof_C 	C 	0.69413	0.48237	0.89157	-0.001
Mof_C 	C 	0.63843	0.42267	0.89477	0.005
Mof_C 	C 	0.90851	0.70063	0.55157	0.384
Mof_C 	C 	0.87345	0.71842	0.59263	-0.063
Mof_C 	C 	0.82143	0.70376	0.56862	0.009
Mof_H 	H 	0.80783	0.68447	0.52307	0.048
Mof_C 	C 	0.78883	0.7177	0.61202	-0.07
Mof_C 	C 	0.73164	0.70046	0.58989	0.357
Mof_C 	C 	0.81013	0.74803	0.67697	-0.091
Mof_H 	H 	0.78833	0.75827	0.70567	0.085
Mof_C 	C 	0.86263	0.76327	0.70007	0.155
Mof_C 	C 	0.89495	0.74846	0.65857	-0.093
Mof_H 	H 	0.93093	0.75847	0.67457	0.082
Mof_O 	O 	0.92124	0.61453	0.24444	-0.402
Mof_O 	O 	0.86909	0.6272	0.32606	-0.39
Mof_O 	O 	0.67125	0.60216	0.14125	-0.403
Mof_O 	O 	0.69042	0.59632	0.25782	-0.372
Mof_O 	O 	0.81776	0.57044	0.00665	-0.226
Mof_O 	O 	0.94992	0.70585	0.58512	-0.404
Mof_O 	O 	0.89381	0.6816	0.48674	-0.402
Mof_O 	O 	0.71472	0.68102	0.52649	-0.391
Mof_O 	O 	0.7014	0.70765	0.63753	-0.435
Mof_Mn	Mn	0.92016	0.64271	0.41582	0.935
Mof_Mn	Mn	0.00528	0.66632	0.2457	0.923
Mof_O 	O 	0.88693	0.80627	0.75257	-0.1
Mof_C 	C 	0.94813	0.82687	0.77337	0.055
Mof_C 	C 	0.96123	0.87877	0.82237	0.004
Mof_C 	C 	0.92553	0.85067	0.89867	0.035
Mof_C 	C 	0.92563	0.85497	0.99367	-0.01
Mof_C 	C 	0.78773	0.51477	0.89717	-0.004
Mof_C 	C 	0.92093	0.79817	0.80577	-0.105
Mof_C 	C 	0.92153	0.79457	0.89747	0.02
Mof_C 	C 	0.93703	0.77167	0.93937	0.001
Mof_C 	C 	0.73553	0.48387	0.84187	0.002
Mof_C 	C 	0.96473	0.85647	0.00457	0.01
Mof_C 	C 	0.96643	0.82827	0.93197	-0.006
Mof_C 	C 	0.92123	0.82177	0.88657	-0.031
Mof_C 	C 	0.92673	0.78387	0.80717	0.132
Mof_O 	O 	0.87433	0.78317	0.77357	-0.108
Mof_C 	C 	0.05169	0.59697	0.5957	0.378
Mof_C 	C 	0.06496	0.56749	0.53729	-0.059
Mof_C 	C 	0.06335	0.51908	0.55571	-0.003
Mof_H 	H 	0.0571	0.5066	0.6059	0.062
Mof_C 	C 	0.07088	0.48876	0.50071	-0.05
Mof_C 	C 	0.06809	0.43665	0.52296	0.331
Mof_C 	C 	0.08147	0.50749	0.42723	-0.102
Mof_H 	H 	0.086	0.4864	0.3895	0.079
Mof_C 	C 	0.08534	0.55751	0.4097	0.17
Mof_C 	C 	0.07651	0.58729	0.4645	-0.098
Mof_H 	H 	0.0784	0.621	0.4522	0.082
Mof_C 	C 	0.1177	0.5584	0.2841	0.09
Mof_C 	C 	0.1726	0.5722	0.2975	-0.016
Mof_C 	C 	0.1843	0.5451	0.2249	-0.001
Mof_C 	C 	0.244	0.5491	0.2281	0.006
Mof_C 	C 	0.96604	0.54122	0.8849	0.383
Mof_C 	C 	0.94825	0.48837	0.92596	-0.061
Mof_C 	C 	0.96291	0.45101	0.90195	0.008
Mof_H 	H 	0.9822	0.4567	0.8564	0.048
Mof_C 	C 	0.94897	0.40447	0.94535	-0.071
Mof_C 	C 	0.96621	0.36452	0.92322	0.357
Mof_C 	C 	0.91864	0.39544	0.0103	-0.09
Mof_H 	H 	0.9084	0.3634	0.039	0.086
Mof_C 	C 	0.9034	0.4327	0.0334	0.159
Mof_C 	C 	0.91821	0.47983	0.9919	-0.1
Mof_H 	H 	0.9082	0.5058	0.0079	0.085
Mof_O 	O 	0.05214	0.64005	0.57777	-0.402
Mof_O 	O 	0.03947	0.57523	0.65939	-0.39
Mof_O 	O 	0.06451	0.40243	0.47458	-0.403
Mof_O 	O 	0.07035	0.42744	0.59115	-0.372
Mof_O 	O 	0.09623	0.58066	0.33998	-0.227
Mof_O 	O 	0.96082	0.57741	0.91845	-0.404
Mof_O 	O 	0.98507	0.54555	0.82007	-0.403
Mof_O 	O 	0.98565	0.36704	0.85982	-0.392
Mof_O 	O 	0.95902	0.32709	0.97086	-0.436
Mof_Mn	Mn	0.02396	0.61079	0.74915	0.937
Mof_Mn	Mn	0.00035	0.6723	0.57903	0.925
Mof_O 	O 	0.8604	0.414	0.0859	-0.1
Mof_C 	C 	0.8398	0.4546	0.1067	0.055
Mof_C 	C 	0.7879	0.4158	0.1557	0.004
Mof_C 	C 	0.816	0.4082	0.232	0.035
Mof_C 	C 	0.8117	0.404	0.327	-0.008
Mof_C 	C 	0.1519	0.6063	0.2305	-0.004
Mof_C 	C 	0.8685	0.4561	0.1391	-0.104
Mof_C 	C 	0.8721	0.4603	0.2308	0.02
Mof_C 	C 	0.895	0.4987	0.2727	0.001
Mof_C 	C 	0.1828	0.585	0.1752	0.002
Mof_C 	C 	0.8102	0.4416	0.3379	0.008
Mof_C 	C 	0.8384	0.4715	0.2653	-0.005
Mof_C 	C 	0.8449	0.4328	0.2199	-0.031
Mof_C 	C 	0.8828	0.4762	0.1405	0.132
Mof_O 	O 	0.8835	0.4245	0.1069	-0.109
Mof_C 	C 	0.71836	0.9303	0.92903	0.378
Mof_C 	C 	0.73163	0.90082	0.87062	-0.059
Mof_C 	C 	0.73002	0.85241	0.88904	-0.004
Mof_H 	H 	0.72377	0.83993	0.93923	0.062
Mof_C 	C 	0.73755	0.82209	0.83404	-0.05
Mof_C 	C 	0.73476	0.76998	0.85629	0.331
Mof_C 	C 	0.74814	0.84082	0.76056	-0.102
Mof_H 	H 	0.75267	0.81973	0.72283	0.08
Mof_C 	C 	0.75201	0.89084	0.74303	0.171
Mof_C 	C 	0.74318	0.92062	0.79783	-0.098
Mof_H 	H 	0.74507	0.95433	0.78553	0.082
Mof_C 	C 	0.78437	0.89173	0.61743	0.09
Mof_C 	C 	0.83927	0.90553	0.63083	-0.016
Mof_C 	C 	0.85097	0.87843	0.55823	-0.001
Mof_C 	C 	0.91067	0.88243	0.56143	0.006
Mof_C 	C 	0.63271	0.87455	0.21823	0.384
Mof_C 	C 	0.61492	0.8217	0.25929	-0.063
Mof_C 	C 	0.62958	0.78434	0.23528	0.009
Mof_H 	H 	0.64887	0.79003	0.18973	0.048
Mof_C 	C 	0.61564	0.7378	0.27868	-0.07
Mof_C 	C 	0.63288	0.69785	0.25655	0.357
Mof_C 	C 	0.58531	0.72877	0.34363	-0.091
Mof_H 	H 	0.57507	0.69673	0.37233	0.085
Mof_C 	C 	0.57007	0.76603	0.36673	0.156
Mof_C 	C 	0.58488	0.81316	0.32523	-0.094
Mof_H 	H 	0.57487	0.83913	0.34123	0.082
Mof_O 	O 	0.71881	0.97338	0.9111	-0.401
Mof_O 	O 	0.70614	0.90856	0.99272	-0.39
Mof_O 	O 	0.73118	0.73576	0.80791	-0.403
Mof_O 	O 	0.73702	0.76077	0.92448	-0.372
Mof_O 	O 	0.7629	0.91399	0.67331	-0.226
Mof_O 	O 	0.62749	0.91074	0.25178	-0.404
Mof_O 	O 	0.65174	0.87888	0.1534	-0.402
Mof_O 	O 	0.65232	0.70037	0.19315	-0.391
Mof_O 	O 	0.62569	0.66042	0.30419	-0.435
Mof_Mn	Mn	0.69063	0.94412	0.08248	0.934
Mof_Mn	Mn	0.66702	0.00563	0.91236	0.921
Mof_O 	O 	0.52707	0.74733	0.41923	-0.1
Mof_C 	C 	0.50647	0.78793	0.44003	0.055
Mof_C 	C 	0.45457	0.74913	0.48903	0.004
Mof_C 	C 	0.48267	0.74153	0.56533	0.035
Mof_C 	C 	0.47837	0.73733	0.66033	-0.008
Mof_C 	C 	0.81857	0.93963	0.56383	-0.004
Mof_C 	C 	0.53517	0.78943	0.47243	-0.105
Mof_C 	C 	0.53877	0.79363	0.56413	0.02
Mof_C 	C 	0.56167	0.83203	0.60603	0.001
Mof_C 	C 	0.84947	0.91833	0.50853	0.002
Mof_C 	C 	0.47687	0.77493	0.67123	0.008
Mof_C 	C 	0.50507	0.80483	0.59863	-0.005
Mof_C 	C 	0.51157	0.76613	0.55323	-0.031
Mof_C 	C 	0.54947	0.80953	0.47383	0.132
Mof_O 	O 	0.55017	0.75783	0.44023	-0.108
Mof_C 	C 	0.38502	0.26364	0.26237	0.378
Mof_C 	C 	0.39829	0.23416	0.20396	-0.059
Mof_C 	C 	0.39668	0.18575	0.22238	-0.003
Mof_H 	H 	0.39043	0.17327	0.27257	0.062
Mof_C 	C 	0.40421	0.15543	0.16738	-0.05
Mof_C 	C 	0.40142	0.10332	0.18963	0.331
Mof_C 	C 	0.4148	0.17416	0.0939	-0.102
Mof_H 	H 	0.41933	0.15307	0.05617	0.08
Mof_C 	C 	0.41867	0.22418	0.07637	0.171
Mof_C 	C 	0.40984	0.25396	0.13117	-0.098
Mof_H 	H 	0.41173	0.28767	0.11887	0.082
Mof_C 	C 	0.45103	0.22507	0.95077	0.089
Mof_C 	C 	0.50593	0.23887	0.96417	-0.017
Mof_C 	C 	0.51763	0.21177	0.89157	-0.001
Mof_C 	C 	0.57733	0.21577	0.89477	0.005
Mof_C 	C 	0.29937	0.20789	0.55157	0.384
Mof_C 	C 	0.28158	0.15504	0.59263	-0.063
Mof_C 	C 	0.29624	0.11768	0.56862	0.009
Mof_H 	H 	0.31553	0.12337	0.52307	0.048
Mof_C 	C 	0.2823	0.07114	0.61202	-0.069
Mof_C 	C 	0.29954	0.03119	0.58989	0.356
Mof_C 	C 	0.25197	0.06211	0.67697	-0.091
Mof_H 	H 	0.24173	0.03007	0.70567	0.085
Mof_C 	C 	0.23673	0.09937	0.70007	0.156
Mof_C 	C 	0.25154	0.1465	0.65857	-0.094
Mof_H 	H 	0.24153	0.17247	0.67457	0.082
Mof_O 	O 	0.38547	0.30672	0.24444	-0.402
Mof_O 	O 	0.3728	0.2419	0.32606	-0.39
Mof_O 	O 	0.39784	0.0691	0.14125	-0.402
Mof_O 	O 	0.40368	0.09411	0.25782	-0.372
Mof_O 	O 	0.42956	0.24733	0.00665	-0.226
Mof_O 	O 	0.29415	0.24408	0.58512	-0.404
Mof_O 	O 	0.3184	0.21222	0.48674	-0.402
Mof_O 	O 	0.31898	0.03371	0.52649	-0.391
Mof_O 	O 	0.29235	0.99376	0.63753	-0.434
Mof_Mn	Mn	0.35729	0.27746	0.41582	0.936
Mof_Mn	Mn	0.33368	0.33897	0.2457	0.924
Mof_O 	O 	0.19373	0.08067	0.75257	-0.1
Mof_C 	C 	0.17313	0.12127	0.77337	0.055
Mof_C 	C 	0.12123	0.08247	0.82237	0.004
Mof_C 	C 	0.14933	0.07487	0.89867	0.035
Mof_C 	C 	0.14503	0.07067	0.99367	-0.01
Mof_C 	C 	0.48523	0.27297	0.89717	-0.004
Mof_C 	C 	0.20183	0.12277	0.80577	-0.105
Mof_C 	C 	0.20543	0.12697	0.89747	0.02
Mof_C 	C 	0.22833	0.16537	0.93937	0.001
Mof_C 	C 	0.51613	0.25167	0.84187	0.002
Mof_C 	C 	0.14353	0.10827	0.00457	0.009
Mof_C 	C 	0.17173	0.13817	0.93197	-0.005
Mof_C 	C 	0.17823	0.09947	0.88657	-0.031
Mof_C 	C 	0.21613	0.14287	0.80717	0.132
Mof_O 	O 	0.21683	0.09117	0.77357	-0.109
Mof_C 	C 	0.59697	0.54528	0.4043	0.378
Mof_C 	C 	0.56749	0.50253	0.46271	-0.059
Mof_C 	C 	0.51908	0.45573	0.44429	-0.003
Mof_H 	H 	0.5066	0.4495	0.3941	0.062
Mof_C 	C 	0.48876	0.41788	0.49929	-0.05
Mof_C 	C 	0.43665	0.36856	0.47704	0.331
Mof_C 	C 	0.50749	0.42602	0.57277	-0.102
Mof_H 	H 	0.4864	0.4004	0.6105	0.079
Mof_C 	C 	0.55751	0.47217	0.5903	0.17
Mof_C 	C 	0.58729	0.51078	0.5355	-0.098
Mof_H 	H 	0.621	0.5426	0.5478	0.082
Mof_C 	C 	0.5584	0.4407	0.7159	0.09
Mof_C 	C 	0.5722	0.3996	0.7025	-0.016
Mof_C 	C 	0.5451	0.3608	0.7751	-0.001
Mof_C 	C 	0.5491	0.3051	0.7719	0.006
Mof_C 	C 	0.54122	0.57518	0.1151	0.384
Mof_C 	C 	0.48837	0.54012	0.07404	-0.062
Mof_C 	C 	0.45101	0.4881	0.09805	0.008
Mof_H 	H 	0.4567	0.4745	0.1436	0.048
Mof_C 	C 	0.40447	0.4555	0.05465	-0.07
Mof_C 	C 	0.36452	0.39831	0.07678	0.357
Mof_C 	C 	0.39544	0.4768	0.9897	-0.091
Mof_H 	H 	0.3634	0.455	0.961	0.086
Mof_C 	C 	0.4327	0.5293	0.9666	0.156
Mof_C 	C 	0.47983	0.56162	0.0081	-0.095
Mof_H 	H 	0.5058	0.5976	0.9921	0.083
Mof_O 	O 	0.64005	0.58791	0.42223	-0.402
Mof_O 	O 	0.57523	0.53576	0.34061	-0.39
Mof_O 	O 	0.40243	0.33792	0.52542	-0.403
Mof_O 	O 	0.42744	0.35709	0.40885	-0.372
Mof_O 	O 	0.58066	0.48443	0.66002	-0.227
Mof_O 	O 	0.57741	0.61659	0.08155	-0.404
Mof_O 	O 	0.54555	0.56048	0.17993	-0.402
Mof_O 	O 	0.36704	0.38139	0.14018	-0.391
Mof_O 	O 	0.32709	0.36807	0.02914	-0.435
Mof_Mn	Mn	0.61079	0.58683	0.25085	0.936
Mof_Mn	Mn	0.6723	0.67195	0.42097	0.924
Mof_O 	O 	0.414	0.5536	0.9141	-0.1
Mof_C 	C 	0.4546	0.6148	0.8933	0.055
Mof_C 	C 	0.4158	0.6279	0.8443	0.004
Mof_C 	C 	0.4082	0.5922	0.768	0.035
Mof_C 	C 	0.404	0.5923	0.673	-0.008
Mof_C 	C 	0.6063	0.4544	0.7695	-0.004
Mof_C 	C 	0.4561	0.5876	0.8609	-0.105
Mof_C 	C 	0.4603	0.5882	0.7692	0.02
Mof_C 	C 	0.4987	0.6037	0.7273	0.001
Mof_C 	C 	0.585	0.4022	0.8248	0.002
Mof_C 	C 	0.4416	0.6314	0.6621	0.008
Mof_C 	C 	0.4715	0.6331	0.7347	-0.005
Mof_C 	C 	0.4328	0.5879	0.7801	-0.031
Mof_C 	C 	0.4762	0.5934	0.8595	0.132
Mof_O 	O 	0.4245	0.541	0.8931	-0.109
Mof_C 	C 	0.26364	0.87861	0.73763	0.378
Mof_C 	C 	0.23416	0.83586	0.79604	-0.059
Mof_C 	C 	0.18575	0.78906	0.77762	-0.004
Mof_H 	H 	0.17327	0.78283	0.72743	0.062
Mof_C 	C 	0.15543	0.75121	0.83262	-0.05
Mof_C 	C 	0.10332	0.70189	0.81037	0.331
Mof_C 	C 	0.17416	0.75935	0.9061	-0.102
Mof_H 	H 	0.15307	0.73373	0.94383	0.08
Mof_C 	C 	0.22418	0.8055	0.92363	0.171
Mof_C 	C 	0.25396	0.84411	0.86883	-0.098
Mof_H 	H 	0.28767	0.87593	0.88113	0.082
Mof_C 	C 	0.22507	0.77403	0.04923	0.088
Mof_C 	C 	0.23887	0.73293	0.03583	-0.017
Mof_C 	C 	0.21177	0.69413	0.10843	-0.001
Mof_C 	C 	0.21577	0.63843	0.10523	0.005
Mof_C 	C 	0.20789	0.90851	0.44843	0.384
Mof_C 	C 	0.15504	0.87345	0.40737	-0.063
Mof_C 	C 	0.11768	0.82143	0.43138	0.009
Mof_H 	H 	0.12337	0.80783	0.47693	0.048
Mof_C 	C 	0.07114	0.78883	0.38798	-0.07
Mof_C 	C 	0.03119	0.73164	0.41011	0.357
Mof_C 	C 	0.06211	0.81013	0.32303	-0.091
Mof_H 	H 	0.03007	0.78833	0.29433	0.085
Mof_C 	C 	0.09937	0.86263	0.29993	0.156
Mof_C 	C 	0.1465	0.89495	0.34143	-0.094
Mof_H 	H 	0.17247	0.93093	0.32543	0.082
Mof_O 	O 	0.30672	0.92124	0.75556	-0.402
Mof_O 	O 	0.2419	0.86909	0.67394	-0.39
Mof_O 	O 	0.0691	0.67125	0.85875	-0.402
Mof_O 	O 	0.09411	0.69042	0.74218	-0.372
Mof_O 	O 	0.24733	0.81776	0.99335	-0.225
Mof_O 	O 	0.24408	0.94992	0.41488	-0.404
Mof_O 	O 	0.21222	0.89381	0.51326	-0.402
Mof_O 	O 	0.03371	0.71472	0.47351	-0.391
Mof_O 	O 	0.99376	0.7014	0.36247	-0.435
Mof_Mn	Mn	0.27746	0.92016	0.58418	0.936
Mof_Mn	Mn	0.33897	0.00528	0.7543	0.922
Mof_O 	O 	0.08067	0.88693	0.24743	-0.1
Mof_C 	C 	0.12127	0.94813	0.22663	0.055
Mof_C 	C 	0.08247	0.96123	0.17763	0.003
Mof_C 	C 	0.07487	0.92553	0.10133	0.034
Mof_C 	C 	0.07067	0.92563	0.00633	-0.017
Mof_C 	C 	0.27297	0.78773	0.10283	-0.004
Mof_C 	C 	0.12277	0.92093	0.19423	-0.105
Mof_C 	C 	0.12697	0.92153	0.10253	0.02
Mof_C 	C 	0.16537	0.93703	0.06063	0
Mof_C 	C 	0.25167	0.73553	0.15813	0.002
Mof_C 	C 	0.10827	0.96473	0.99543	0.018
Mof_C 	C 	0.13817	0.96643	0.06803	-0.009
Mof_C 	C 	0.09947	0.92123	0.11343	-0.029
Mof_C 	C 	0.14287	0.92673	0.19283	0.131
Mof_O 	O 	0.09117	0.87433	0.22643	-0.109
Mof_C 	C 	0.9303	0.21195	0.07097	0.377
Mof_C 	C 	0.90082	0.1692	0.12938	-0.058
Mof_C 	C 	0.85241	0.1224	0.11096	-0.004
Mof_H 	H 	0.83993	0.11617	0.06077	0.063
Mof_C 	C 	0.82209	0.08455	0.16596	-0.049
Mof_C 	C 	0.76998	0.03523	0.14371	0.33
Mof_C 	C 	0.84082	0.09269	0.23944	-0.103
Mof_H 	H 	0.81973	0.06707	0.27717	0.08
Mof_C 	C 	0.89084	0.13884	0.25697	0.171
Mof_C 	C 	0.92062	0.17745	0.20217	-0.098
Mof_H 	H 	0.95433	0.20927	0.21447	0.083
Mof_C 	C 	0.89173	0.10737	0.38257	0.09
Mof_C 	C 	0.90553	0.06627	0.36917	-0.016
Mof_C 	C 	0.87843	0.02747	0.44177	-0
Mof_C 	C 	0.88243	0.97177	0.43857	0.005
Mof_C 	C 	0.87455	0.24185	0.78177	0.384
Mof_C 	C 	0.8217	0.20679	0.74071	-0.063
Mof_C 	C 	0.78434	0.15477	0.76472	0.009
Mof_H 	H 	0.79003	0.14117	0.81027	0.048
Mof_C 	C 	0.7378	0.12217	0.72132	-0.07
Mof_C 	C 	0.69785	0.06498	0.74345	0.357
Mof_C 	C 	0.72877	0.14347	0.65637	-0.091
Mof_H 	H 	0.69673	0.12167	0.62767	0.085
Mof_C 	C 	0.76603	0.19597	0.63327	0.155
Mof_C 	C 	0.81316	0.22829	0.67477	-0.094
Mof_H 	H 	0.83913	0.26427	0.65877	0.082
Mof_O 	O 	0.97338	0.25458	0.0889	-0.401
Mof_O 	O 	0.90856	0.20243	0.00728	-0.388
Mof_O 	O 	0.73576	0.00459	0.19209	-0.402
Mof_O 	O 	0.76077	0.02376	0.07552	-0.37
Mof_O 	O 	0.91399	0.1511	0.32669	-0.226
Mof_O 	O 	0.91074	0.28326	0.74822	-0.404
Mof_O 	O 	0.87888	0.22715	0.8466	-0.402
Mof_O 	O 	0.70037	0.04806	0.80685	-0.392
Mof_O 	O 	0.66042	0.03474	0.69581	-0.436
Mof_Mn	Mn	0.94412	0.2535	0.91752	0.933
Mof_Mn	Mn	0.00563	0.33862	0.08764	0.922
Mof_O 	O 	0.74733	0.22027	0.58077	-0.1
Mof_C 	C 	0.78793	0.28147	0.55997	0.055
Mof_C 	C 	0.74913	0.29457	0.51097	0.004
Mof_C 	C 	0.74153	0.25887	0.43467	0.035
Mof_C 	C 	0.73733	0.25897	0.33967	-0.008
Mof_C 	C 	0.93963	0.12107	0.43617	-0.004
Mof_C 	C 	0.78943	0.25427	0.52757	-0.105
Mof_C 	C 	0.79363	0.25487	0.43587	0.02
Mof_C 	C 	0.83203	0.27037	0.39397	0.001
Mof_C 	C 	0.91833	0.06887	0.49147	0.002
Mof_C 	C 	0.77493	0.29807	0.32877	0.008
Mof_C 	C 	0.80483	0.29977	0.40137	-0.005
Mof_C 	C 	0.76613	0.25457	0.44677	-0.031
Mof_C 	C 	0.80953	0.26007	0.52617	0.132
Mof_O 	O 	0.75783	0.20767	0.55977	-0.108
Mof_C 	C 	0.45472	0.05169	0.4043	0.378
Mof_C 	C 	0.49747	0.06496	0.46271	-0.059
Mof_C 	C 	0.54427	0.06335	0.44429	-0.003
Mof_H 	H 	0.5505	0.0571	0.3941	0.062
Mof_C 	C 	0.58212	0.07088	0.49929	-0.05
Mof_C 	C 	0.63144	0.06809	0.47704	0.331
Mof_C 	C 	0.57398	0.08147	0.57277	-0.102
Mof_H 	H 	0.5996	0.086	0.6105	0.079
Mof_C 	C 	0.52783	0.08534	0.5903	0.17
Mof_C 	C 	0.48922	0.07651	0.5355	-0.098
Mof_H 	H 	0.4574	0.0784	0.5478	0.082
Mof_C 	C 	0.5593	0.1177	0.7159	0.09
Mof_C 	C 	0.6004	0.1726	0.7025	-0.016
Mof_C 	C 	0.6392	0.1843	0.7751	-0.001
Mof_C 	C 	0.6949	0.244	0.7719	0.006
Mof_C 	C 	0.42482	0.96604	0.1151	0.383
Mof_C 	C 	0.45988	0.94825	0.07404	-0.061
Mof_C 	C 	0.5119	0.96291	0.09805	0.007
Mof_H 	H 	0.5255	0.9822	0.1436	0.049
Mof_C 	C 	0.5445	0.94897	0.05465	-0.07
Mof_C 	C 	0.60169	0.96621	0.07678	0.357
Mof_C 	C 	0.5232	0.91864	0.9897	-0.091
Mof_H 	H 	0.545	0.9084	0.961	0.086
Mof_C 	C 	0.4707	0.9034	0.9666	0.159
Mof_C 	C 	0.43838	0.91821	0.0081	-0.101
Mof_H 	H 	0.4024	0.9082	0.9921	0.086
Mof_O 	O 	0.41209	0.05214	0.42223	-0.402
Mof_O 	O 	0.46424	0.03947	0.34061	-0.39
Mof_O 	O 	0.66208	0.06451	0.52542	-0.403
Mof_O 	O 	0.64291	0.07035	0.40885	-0.372
Mof_O 	O 	0.51557	0.09623	0.66002	-0.227
Mof_O 	O 	0.38341	0.96082	0.08155	-0.404
Mof_O 	O 	0.43952	0.98507	0.17993	-0.403
Mof_O 	O 	0.61861	0.98565	0.14018	-0.391
Mof_O 	O 	0.63193	0.95902	0.02914	-0.435
Mof_Mn	Mn	0.41317	0.02396	0.25085	0.937
Mof_Mn	Mn	0.32805	0.00035	0.42097	0.924
Mof_O 	O 	0.4464	0.8604	0.9141	-0.1
Mof_C 	C 	0.3852	0.8398	0.8933	0.055
Mof_C 	C 	0.3721	0.7879	0.8443	0.004
Mof_C 	C 	0.4078	0.816	0.768	0.035
Mof_C 	C 	0.4077	0.8117	0.673	-0.008
Mof_C 	C 	0.5456	0.1519	0.7695	-0.004
Mof_C 	C 	0.4124	0.8685	0.8609	-0.104
Mof_C 	C 	0.4118	0.8721	0.7692	0.02
Mof_C 	C 	0.3963	0.895	0.7273	0.001
Mof_C 	C 	0.5978	0.1828	0.8248	0.002
Mof_C 	C 	0.3686	0.8102	0.6621	0.008
Mof_C 	C 	0.3669	0.8384	0.7347	-0.005
Mof_C 	C 	0.4121	0.8449	0.7801	-0.031
Mof_C 	C 	0.4066	0.8828	0.8595	0.132
Mof_O 	O 	0.459	0.8835	0.8931	-0.109
Mof_C 	C 	0.12139	0.38502	0.73763	0.378
Mof_C 	C 	0.16414	0.39829	0.79604	-0.059
Mof_C 	C 	0.21094	0.39668	0.77762	-0.003
Mof_H 	H 	0.21717	0.39043	0.72743	0.062
Mof_C 	C 	0.24879	0.40421	0.83262	-0.05
Mof_C 	C 	0.29811	0.40142	0.81037	0.331
Mof_C 	C 	0.24065	0.4148	0.9061	-0.102
Mof_H 	H 	0.26627	0.41933	0.94383	0.08
Mof_C 	C 	0.1945	0.41867	0.92363	0.17
Mof_C 	C 	0.15589	0.40984	0.86883	-0.098
Mof_H 	H 	0.12407	0.41173	0.88113	0.082
Mof_C 	C 	0.22597	0.45103	0.04923	0.089
Mof_C 	C 	0.26707	0.50593	0.03583	-0.017
Mof_C 	C 	0.30587	0.51763	0.10843	-0.001
Mof_C 	C 	0.36157	0.57733	0.10523	0.005
Mof_C 	C 	0.09149	0.29937	0.44843	0.384
Mof_C 	C 	0.12655	0.28158	0.40737	-0.063
Mof_C 	C 	0.17857	0.29624	0.43138	0.009
Mof_H 	H 	0.19217	0.31553	0.47693	0.048
Mof_C 	C 	0.21117	0.2823	0.38798	-0.07
Mof_C 	C 	0.26836	0.29954	0.41011	0.357
Mof_C 	C 	0.18987	0.25197	0.32303	-0.091
Mof_H 	H 	0.21167	0.24173	0.29433	0.085
Mof_C 	C 	0.13737	0.23673	0.29993	0.155
Mof_C 	C 	0.10505	0.25154	0.34143	-0.093
Mof_H 	H 	0.06907	0.24153	0.32543	0.082
Mof_O 	O 	0.07876	0.38547	0.75556	-0.402
Mof_O 	O 	0.13091	0.3728	0.67394	-0.39
Mof_O 	O 	0.32875	0.39784	0.85875	-0.403
Mof_O 	O 	0.30958	0.40368	0.74218	-0.372
Mof_O 	O 	0.18224	0.42956	0.99335	-0.226
Mof_O 	O 	0.05008	0.29415	0.41488	-0.404
Mof_O 	O 	0.10619	0.3184	0.51326	-0.402
Mof_O 	O 	0.28528	0.31898	0.47351	-0.391
Mof_O 	O 	0.2986	0.29235	0.36247	-0.435
Mof_Mn	Mn	0.07984	0.35729	0.58418	0.935
Mof_Mn	Mn	0.99472	0.33368	0.7543	0.923
Mof_O 	O 	0.11307	0.19373	0.24743	-0.1
Mof_C 	C 	0.05187	0.17313	0.22663	0.055
Mof_C 	C 	0.03877	0.12123	0.17763	0.004
Mof_C 	C 	0.07447	0.14933	0.10133	0.035
Mof_C 	C 	0.07437	0.14503	0.00633	-0.01
Mof_C 	C 	0.21227	0.48523	0.10283	-0.004
Mof_C 	C 	0.07907	0.20183	0.19423	-0.105
Mof_C 	C 	0.07847	0.20543	0.10253	0.02
Mof_C 	C 	0.06297	0.22833	0.06063	0.001
Mof_C 	C 	0.26447	0.51613	0.15813	0.002
Mof_C 	C 	0.03527	0.14353	0.99543	0.01
Mof_C 	C 	0.03357	0.17173	0.06803	-0.006
Mof_C 	C 	0.07877	0.17823	0.11343	-0.031
Mof_C 	C 	0.07327	0.21613	0.19283	0.132
Mof_O 	O 	0.12567	0.21683	0.22643	-0.108
Mof_C 	C 	0.78805	0.71836	0.07097	0.378
Mof_C 	C 	0.8308	0.73163	0.12938	-0.059
Mof_C 	C 	0.8776	0.73002	0.11096	-0.004
Mof_H 	H 	0.88383	0.72377	0.06077	0.062
Mof_C 	C 	0.91545	0.73755	0.16596	-0.05
Mof_C 	C 	0.96477	0.73476	0.14371	0.331
Mof_C 	C 	0.90731	0.74814	0.23944	-0.102
Mof_H 	H 	0.93293	0.75267	0.27717	0.08
Mof_C 	C 	0.86116	0.75201	0.25697	0.171
Mof_C 	C 	0.82255	0.74318	0.20217	-0.098
Mof_H 	H 	0.79073	0.74507	0.21447	0.082
Mof_C 	C 	0.89263	0.78437	0.38257	0.09
Mof_C 	C 	0.93373	0.83927	0.36917	-0.016
Mof_C 	C 	0.97253	0.85097	0.44177	-0.001
Mof_C 	C 	0.02823	0.91067	0.43857	0.006
Mof_C 	C 	0.75815	0.63271	0.78177	0.384
Mof_C 	C 	0.79321	0.61492	0.74071	-0.063
Mof_C 	C 	0.84523	0.62958	0.76472	0.009
Mof_H 	H 	0.85883	0.64887	0.81027	0.048
Mof_C 	C 	0.87783	0.61564	0.72132	-0.07
Mof_C 	C 	0.93502	0.63288	0.74345	0.357
Mof_C 	C 	0.85653	0.58531	0.65637	-0.091
Mof_H 	H 	0.87833	0.57507	0.62767	0.085
Mof_C 	C 	0.80403	0.57007	0.63327	0.155
Mof_C 	C 	0.77171	0.58488	0.67477	-0.093
Mof_H 	H 	0.73573	0.57487	0.65877	0.082
Mof_O 	O 	0.74542	0.71881	0.0889	-0.402
Mof_O 	O 	0.79757	0.70614	0.00728	-0.39
Mof_O 	O 	0.99541	0.73118	0.19209	-0.402
Mof_O 	O 	0.97624	0.73702	0.07552	-0.371
Mof_O 	O 	0.8489	0.7629	0.32669	-0.227
Mof_O 	O 	0.71674	0.62749	0.74822	-0.404
Mof_O 	O 	0.77285	0.65174	0.8466	-0.402
Mof_O 	O 	0.95194	0.65232	0.80685	-0.392
Mof_O 	O 	0.96526	0.62569	0.69581	-0.436
Mof_Mn	Mn	0.7465	0.69063	0.91752	0.935
Mof_Mn	Mn	0.66138	0.66702	0.08764	0.923
Mof_O 	O 	0.77973	0.52707	0.58077	-0.1
Mof_C 	C 	0.71853	0.50647	0.55997	0.055
Mof_C 	C 	0.70543	0.45457	0.51097	0.004
Mof_C 	C 	0.74113	0.48267	0.43467	0.035
Mof_C 	C 	0.74103	0.47837	0.33967	-0.008
Mof_C 	C 	0.87893	0.81857	0.43617	-0.004
Mof_C 	C 	0.74573	0.53517	0.52757	-0.105
Mof_C 	C 	0.74513	0.53877	0.43587	0.02
Mof_C 	C 	0.72963	0.56167	0.39397	0.001
Mof_C 	C 	0.93113	0.84947	0.49147	0.002
Mof_C 	C 	0.70193	0.47687	0.32877	0.008
Mof_C 	C 	0.70023	0.50507	0.40137	-0.005
Mof_C 	C 	0.74543	0.51157	0.44677	-0.031
Mof_C 	C 	0.73993	0.54947	0.52617	0.132
Mof_O 	O 	0.79233	0.55017	0.55977	-0.108
Mof_C 	C 	0.94831	0.40303	0.4043	0.378
Mof_C 	C 	0.93504	0.43251	0.46271	-0.059
Mof_C 	C 	0.93665	0.48092	0.44429	-0.003
Mof_H 	H 	0.9429	0.4934	0.3941	0.062
Mof_C 	C 	0.92912	0.51124	0.49929	-0.05
Mof_C 	C 	0.93191	0.56335	0.47704	0.331
Mof_C 	C 	0.91853	0.49251	0.57277	-0.102
Mof_H 	H 	0.914	0.5136	0.6105	0.079
Mof_C 	C 	0.91466	0.44249	0.5903	0.17
Mof_C 	C 	0.92349	0.41271	0.5355	-0.098
Mof_H 	H 	0.9216	0.379	0.5478	0.082
Mof_C 	C 	0.8823	0.4416	0.7159	0.09
Mof_C 	C 	0.8274	0.4278	0.7025	-0.016
Mof_C 	C 	0.8157	0.4549	0.7751	-0.001
Mof_C 	C 	0.756	0.4509	0.7719	0.006
Mof_C 	C 	0.03396	0.45878	0.1151	0.383
Mof_C 	C 	0.05175	0.51163	0.07404	-0.061
Mof_C 	C 	0.03709	0.54899	0.09805	0.008
Mof_H 	H 	0.0178	0.5433	0.1436	0.048
Mof_C 	C 	0.05103	0.59553	0.05465	-0.071
Mof_C 	C 	0.03379	0.63548	0.07678	0.357
Mof_C 	C 	0.08136	0.60456	0.9897	-0.09
Mof_H 	H 	0.0916	0.6366	0.961	0.086
Mof_C 	C 	0.0966	0.5673	0.9666	0.159
Mof_C 	C 	0.08179	0.52017	0.0081	-0.1
Mof_H 	H 	0.0918	0.4942	0.9921	0.085
Mof_O 	O 	0.94786	0.35995	0.42223	-0.402
Mof_O 	O 	0.96053	0.42477	0.34061	-0.39
Mof_O 	O 	0.93549	0.59757	0.52542	-0.403
Mof_O 	O 	0.92965	0.57256	0.40885	-0.372
Mof_O 	O 	0.90377	0.41934	0.66002	-0.227
Mof_O 	O 	0.03918	0.42259	0.08155	-0.404
Mof_O 	O 	0.01493	0.45445	0.17993	-0.403
Mof_O 	O 	0.01435	0.63296	0.14018	-0.392
Mof_O 	O 	0.04098	0.67291	0.02914	-0.436
Mof_Mn	Mn	0.97604	0.38921	0.25085	0.937
Mof_Mn	Mn	0.99965	0.3277	0.42097	0.925
Mof_O 	O 	0.1396	0.586	0.9141	-0.1
Mof_C 	C 	0.1602	0.5454	0.8933	0.055
Mof_C 	C 	0.2121	0.5842	0.8443	0.004
Mof_C 	C 	0.184	0.5918	0.768	0.035
Mof_C 	C 	0.1883	0.596	0.673	-0.008
Mof_C 	C 	0.8481	0.3937	0.7695	-0.004
Mof_C 	C 	0.1315	0.5439	0.8609	-0.104
Mof_C 	C 	0.1279	0.5397	0.7692	0.02
Mof_C 	C 	0.105	0.5013	0.7273	0.001
Mof_C 	C 	0.8172	0.415	0.8248	0.002
Mof_C 	C 	0.1898	0.5584	0.6621	0.008
Mof_C 	C 	0.1616	0.5285	0.7347	-0.005
Mof_C 	C 	0.1551	0.5672	0.7801	-0.031
Mof_C 	C 	0.1172	0.5238	0.8595	0.132
Mof_O 	O 	0.1165	0.5755	0.8931	-0.109
Mof_C 	C 	0.61498	0.73636	0.73763	0.378
Mof_C 	C 	0.60171	0.76584	0.79604	-0.059
Mof_C 	C 	0.60332	0.81425	0.77762	-0.003
Mof_H 	H 	0.60957	0.82673	0.72743	0.062
Mof_C 	C 	0.59579	0.84457	0.83262	-0.05
Mof_C 	C 	0.59858	0.89668	0.81037	0.331
Mof_C 	C 	0.5852	0.82584	0.9061	-0.102
Mof_H 	H 	0.58067	0.84693	0.94383	0.08
Mof_C 	C 	0.58133	0.77582	0.92363	0.171
Mof_C 	C 	0.59016	0.74604	0.86883	-0.098
Mof_H 	H 	0.58827	0.71233	0.88113	0.082
Mof_C 	C 	0.54897	0.77493	0.04923	0.089
Mof_C 	C 	0.49407	0.76113	0.03583	-0.017
Mof_C 	C 	0.48237	0.78823	0.10843	-0.001
Mof_C 	C 	0.42267	0.78423	0.10523	0.005
Mof_C 	C 	0.70063	0.79211	0.44843	0.384
Mof_C 	C 	0.71842	0.84496	0.40737	-0.063
Mof_C 	C 	0.70376	0.88232	0.43138	0.009
Mof_H 	H 	0.68447	0.87663	0.47693	0.048
Mof_C 	C 	0.7177	0.92886	0.38798	-0.069
Mof_C 	C 	0.70046	0.96881	0.41011	0.356
Mof_C 	C 	0.74803	0.93789	0.32303	-0.091
Mof_H 	H 	0.75827	0.96993	0.29433	0.085
Mof_C 	C 	0.76327	0.90063	0.29993	0.156
Mof_C 	C 	0.74846	0.8535	0.34143	-0.094
Mof_H 	H 	0.75847	0.82753	0.32543	0.082
Mof_O 	O 	0.61453	0.69328	0.75556	-0.402
Mof_O 	O 	0.6272	0.7581	0.67394	-0.39
Mof_O 	O 	0.60216	0.9309	0.85875	-0.402
Mof_O 	O 	0.59632	0.90589	0.74218	-0.372
Mof_O 	O 	0.57044	0.75267	0.99335	-0.226
Mof_O 	O 	0.70585	0.75592	0.41488	-0.404
Mof_O 	O 	0.6816	0.78778	0.51326	-0.402
Mof_O 	O 	0.68102	0.96629	0.47351	-0.391
Mof_O 	O 	0.70765	0.00624	0.36247	-0.434
Mof_Mn	Mn	0.64271	0.72254	0.58418	0.936
Mof_Mn	Mn	0.66632	0.66103	0.7543	0.924
Mof_O 	O 	0.80627	0.91933	0.24743	-0.1
Mof_C 	C 	0.82687	0.87873	0.22663	0.055
Mof_C 	C 	0.87877	0.91753	0.17763	0.004
Mof_C 	C 	0.85067	0.92513	0.10133	0.035
Mof_C 	C 	0.85497	0.92933	0.00633	-0.01
Mof_C 	C 	0.51477	0.72703	0.10283	-0.004
Mof_C 	C 	0.79817	0.87723	0.19423	-0.105
Mof_C 	C 	0.79457	0.87303	0.10253	0.02
Mof_C 	C 	0.77167	0.83463	0.06063	0.001
Mof_C 	C 	0.48387	0.74833	0.15813	0.002
Mof_C 	C 	0.85647	0.89173	0.99543	0.009
Mof_C 	C 	0.82827	0.86183	0.06803	-0.005
Mof_C 	C 	0.82177	0.90053	0.11343	-0.031
Mof_C 	C 	0.78387	0.85713	0.19283	0.132
Mof_O 	O 	0.78317	0.90883	0.22643	-0.109
Mof_C 	C 	0.28164	0.0697	0.07097	0.378
Mof_C 	C 	0.26837	0.09918	0.12938	-0.059
Mof_C 	C 	0.26998	0.14759	0.11096	-0.004
Mof_H 	H 	0.27623	0.16007	0.06077	0.062
Mof_C 	C 	0.26245	0.17791	0.16596	-0.05
Mof_C 	C 	0.26524	0.23002	0.14371	0.331
Mof_C 	C 	0.25186	0.15918	0.23944	-0.102
Mof_H 	H 	0.24733	0.18027	0.27717	0.08
Mof_C 	C 	0.24799	0.10916	0.25697	0.171
Mof_C 	C 	0.25682	0.07938	0.20217	-0.098
Mof_H 	H 	0.25493	0.04567	0.21447	0.082
Mof_C 	C 	0.21563	0.10827	0.38257	0.09
Mof_C 	C 	0.16073	0.09447	0.36917	-0.016
Mof_C 	C 	0.14903	0.12157	0.44177	-0.001
Mof_C 	C 	0.08933	0.11757	0.43857	0.006
Mof_C 	C 	0.36729	0.12545	0.78177	0.384
Mof_C 	C 	0.38508	0.1783	0.74071	-0.063
Mof_C 	C 	0.37042	0.21566	0.76472	0.009
Mof_H 	H 	0.35113	0.20997	0.81027	0.048
Mof_C 	C 	0.38436	0.2622	0.72132	-0.07
Mof_C 	C 	0.36712	0.30215	0.74345	0.357
Mof_C 	C 	0.41469	0.27123	0.65637	-0.091
Mof_H 	H 	0.42493	0.30327	0.62767	0.085
Mof_C 	C 	0.42993	0.23397	0.63327	0.156
Mof_C 	C 	0.41512	0.18684	0.67477	-0.094
Mof_H 	H 	0.42513	0.16087	0.65877	0.082
Mof_O 	O 	0.28119	0.02662	0.0889	-0.401
Mof_O 	O 	0.29386	0.09144	0.00728	-0.39
Mof_O 	O 	0.26882	0.26424	0.19209	-0.403
Mof_O 	O 	0.26298	0.23923	0.07552	-0.372
Mof_O 	O 	0.2371	0.08601	0.32669	-0.226
Mof_O 	O 	0.37251	0.08926	0.74822	-0.404
Mof_O 	O 	0.34826	0.12112	0.8466	-0.402
Mof_O 	O 	0.34768	0.29963	0.80685	-0.391
Mof_O 	O 	0.37431	0.33958	0.69581	-0.435
Mof_Mn	Mn	0.30937	0.05588	0.91752	0.934
Mof_Mn	Mn	0.33298	0.99437	0.08764	0.921
Mof_O 	O 	0.47293	0.25267	0.58077	-0.1
Mof_C 	C 	0.49353	0.21207	0.55997	0.055
Mof_C 	C 	0.54543	0.25087	0.51097	0.004
Mof_C 	C 	0.51733	0.25847	0.43467	0.035
Mof_C 	C 	0.52163	0.26267	0.33967	-0.008
Mof_C 	C 	0.18143	0.06037	0.43617	-0.004
Mof_C 	C 	0.46483	0.21057	0.52757	-0.105
Mof_C 	C 	0.46123	0.20637	0.43587	0.02
Mof_C 	C 	0.43833	0.16797	0.39397	0.001
Mof_C 	C 	0.15053	0.08167	0.49147	0.002
Mof_C 	C 	0.52313	0.22507	0.32877	0.008
Mof_C 	C 	0.49493	0.19517	0.40137	-0.005
Mof_C 	C 	0.48843	0.23387	0.44677	-0.031
Mof_C 	C 	0.45053	0.19047	0.52617	0.132
Mof_O 	O 	0.44983	0.24217	0.55977	-0.108
_end
