data_functionalizedCrystal
_audit_creation_method	'EQeq! by Chris Wilmer'
_symmetry_space_group_name_H-M	'P1'
_symmetry_Int_Tables_number	1
_symmetry_cell_setting	triclinic
loop_
_symmetry_equiv_pos_as_xyz
  x,y,z
_cell_length_a	16.1044
_cell_length_b	16.1044
_cell_length_c	27.919
_cell_angle_alpha	79.8987
_cell_angle_beta	79.8987
_cell_angle_gamma	63.146
loop_
_atom_site_label
_atom_site_type_symbol
_atom_site_fract_x
_atom_site_fract_y
_atom_site_fract_z
_atom_site_charge
Mof_Eu	Eu	0.53134	0.06657	0.04609	2.121
Mof_Eu	Eu	0.93343	0.46866	0.45391	2.125
Mof_Eu	Eu	0.46866	0.93343	0.95391	2.121
Mof_Eu	Eu	0.06657	0.53134	0.54609	2.125
Mof_H 	H 	0.6332	0.0656	0.2033	0.019
Mof_H 	H 	0.7074	0.1066	0.2536	0.1
Mof_H 	H 	0.8418	0.1938	0.1335	0.099
Mof_H 	H 	0.7594	0.161	0.0856	0.019
Mof_H 	H 	0.6751	0.1725	0.9102	-0.031
Mof_H 	H 	0.7385	0.2331	0.8413	0.138
Mof_H 	H 	0.6329	0.1347	0.7574	0.119
Mof_H 	H 	0.5695	0.0679	0.8292	-0.018
Mof_H 	H 	0.1759	0.2107	0.9444	-0.013
Mof_H 	H 	0.0509	0.3543	0.9569	0.125
Mof_H 	H 	0.1928	0.4116	0.0396	0.131
Mof_H 	H 	0.3179	0.2685	0.031	-0.097
Mof_H 	H 	0.9344	0.3668	0.2967	0.018
Mof_H 	H 	0.8934	0.2926	0.2464	0.099
Mof_H 	H 	0.8062	0.1582	0.3665	0.098
Mof_H 	H 	0.839	0.2406	0.4144	0.018
Mof_H 	H 	0.8275	0.3249	0.5898	-0.031
Mof_H 	H 	0.7669	0.2615	0.6587	0.139
Mof_H 	H 	0.8653	0.3671	0.7426	0.119
Mof_H 	H 	0.9321	0.4305	0.6708	-0.018
Mof_H 	H 	0.7893	0.8241	0.5556	-0.014
Mof_H 	H 	0.6457	0.9491	0.5431	0.125
Mof_H 	H 	0.5884	0.8072	0.4604	0.132
Mof_H 	H 	0.7315	0.6821	0.469	-0.098
Mof_H 	H 	0.3668	0.9344	0.7967	0.018
Mof_H 	H 	0.2926	0.8934	0.7464	0.099
Mof_H 	H 	0.1582	0.8062	0.8665	0.098
Mof_H 	H 	0.2406	0.839	0.9144	0.018
Mof_H 	H 	0.3249	0.8275	0.0898	-0.031
Mof_H 	H 	0.2615	0.7669	0.1587	0.138
Mof_H 	H 	0.3671	0.8653	0.2426	0.119
Mof_H 	H 	0.4305	0.9321	0.1708	-0.018
Mof_H 	H 	0.8241	0.7893	0.0556	-0.013
Mof_H 	H 	0.9491	0.6457	0.0431	0.125
Mof_H 	H 	0.8072	0.5884	0.9604	0.131
Mof_H 	H 	0.6821	0.7315	0.969	-0.097
Mof_H 	H 	0.0656	0.6332	0.7033	0.018
Mof_H 	H 	0.1066	0.7074	0.7536	0.099
Mof_H 	H 	0.1938	0.8418	0.6335	0.098
Mof_H 	H 	0.161	0.7594	0.5856	0.018
Mof_H 	H 	0.1725	0.6751	0.4102	-0.031
Mof_H 	H 	0.2331	0.7385	0.3413	0.139
Mof_H 	H 	0.1347	0.6329	0.2574	0.119
Mof_H 	H 	0.0679	0.5695	0.3292	-0.018
Mof_H 	H 	0.2107	0.1759	0.4444	-0.014
Mof_H 	H 	0.3543	0.0509	0.4569	0.125
Mof_H 	H 	0.4116	0.1928	0.5396	0.132
Mof_H 	H 	0.2685	0.3179	0.531	-0.098
Mof_C 	C 	0.64531	0.07611	0.11	0.327
Mof_C 	C 	0.70513	0.09217	0.13885	-0.123
Mof_C 	C 	0.67801	0.08701	0.18987	0.06
Mof_C 	C 	0.7199	0.1148	0.2197	-0.169
Mof_C 	C 	0.77995	0.15455	0.19899	0.155
Mof_C 	C 	0.80024	0.1686	0.14748	-0.173
Mof_C 	C 	0.75568	0.14332	0.11917	0.073
Mof_C 	C 	0.57842	0.07616	0.92317	0.517
Mof_C 	C 	0.61811	0.11305	0.87701	-0.254
Mof_C 	C 	0.66732	0.16332	0.87958	0.188
Mof_C 	C 	0.70502	0.20002	0.8387	-0.284
Mof_C 	C 	0.69283	0.18763	0.79534	0.228
Mof_C 	C 	0.64155	0.14017	0.78854	-0.24
Mof_C 	C 	0.60327	0.10071	0.83152	0.157
Mof_C 	C 	0.33559	0.12951	0.98095	0.534
Mof_C 	C 	0.25944	0.223	0.98745	-0.277
Mof_C 	C 	0.17918	0.24978	0.96412	0.173
Mof_C 	C 	0.10525	0.33585	0.97145	-0.247
Mof_C 	C 	0.11007	0.39799	0.00114	0.238
Mof_C 	C 	0.18881	0.37081	0.02126	-0.304
Mof_C 	C 	0.26448	0.28528	0.01608	0.214
Mof_C 	C 	0.92389	0.35469	0.39	0.327
Mof_C 	C 	0.90783	0.29487	0.36115	-0.122
Mof_C 	C 	0.91299	0.32199	0.31013	0.06
Mof_C 	C 	0.8852	0.2801	0.2803	-0.169
Mof_C 	C 	0.84545	0.22005	0.30101	0.155
Mof_C 	C 	0.8314	0.19976	0.35252	-0.173
Mof_C 	C 	0.85668	0.24432	0.38083	0.073
Mof_C 	C 	0.92384	0.42158	0.57683	0.518
Mof_C 	C 	0.88695	0.38189	0.62299	-0.254
Mof_C 	C 	0.83668	0.33268	0.62042	0.188
Mof_C 	C 	0.79998	0.29498	0.6613	-0.285
Mof_C 	C 	0.81237	0.30717	0.70466	0.228
Mof_C 	C 	0.85983	0.35845	0.71146	-0.24
Mof_C 	C 	0.89929	0.39673	0.66848	0.157
Mof_C 	C 	0.87049	0.66441	0.51905	0.533
Mof_C 	C 	0.777	0.74056	0.51255	-0.278
Mof_C 	C 	0.75022	0.82082	0.53588	0.175
Mof_C 	C 	0.66415	0.89475	0.52855	-0.249
Mof_C 	C 	0.60201	0.88993	0.49886	0.24
Mof_C 	C 	0.62919	0.81119	0.47874	-0.305
Mof_C 	C 	0.71472	0.73552	0.48392	0.216
Mof_C 	C 	0.35469	0.92389	0.89	0.327
Mof_C 	C 	0.29487	0.90783	0.86115	-0.123
Mof_C 	C 	0.32199	0.91299	0.81013	0.06
Mof_C 	C 	0.2801	0.8852	0.7803	-0.169
Mof_C 	C 	0.22005	0.84545	0.80101	0.155
Mof_C 	C 	0.19976	0.8314	0.85252	-0.173
Mof_C 	C 	0.24432	0.85668	0.88083	0.073
Mof_C 	C 	0.42158	0.92384	0.07683	0.517
Mof_C 	C 	0.38189	0.88695	0.12299	-0.254
Mof_C 	C 	0.33268	0.83668	0.12042	0.188
Mof_C 	C 	0.29498	0.79998	0.1613	-0.284
Mof_C 	C 	0.30717	0.81237	0.20466	0.228
Mof_C 	C 	0.35845	0.85983	0.21146	-0.24
Mof_C 	C 	0.39673	0.89929	0.16848	0.157
Mof_C 	C 	0.66441	0.87049	0.01905	0.534
Mof_C 	C 	0.74056	0.777	0.01255	-0.277
Mof_C 	C 	0.82082	0.75022	0.03588	0.173
Mof_C 	C 	0.89475	0.66415	0.02855	-0.247
Mof_C 	C 	0.88993	0.60201	0.99886	0.238
Mof_C 	C 	0.81119	0.62919	0.97874	-0.304
Mof_C 	C 	0.73552	0.71472	0.98392	0.214
Mof_C 	C 	0.07611	0.64531	0.61	0.327
Mof_C 	C 	0.09217	0.70513	0.63885	-0.122
Mof_C 	C 	0.08701	0.67801	0.68987	0.06
Mof_C 	C 	0.1148	0.7199	0.7197	-0.169
Mof_C 	C 	0.15455	0.77995	0.69899	0.155
Mof_C 	C 	0.1686	0.80024	0.64748	-0.173
Mof_C 	C 	0.14332	0.75568	0.61917	0.073
Mof_C 	C 	0.07616	0.57842	0.42317	0.518
Mof_C 	C 	0.11305	0.61811	0.37701	-0.254
Mof_C 	C 	0.16332	0.66732	0.37958	0.188
Mof_C 	C 	0.20002	0.70502	0.3387	-0.285
Mof_C 	C 	0.18763	0.69283	0.29534	0.228
Mof_C 	C 	0.14017	0.64155	0.28854	-0.24
Mof_C 	C 	0.10071	0.60327	0.33152	0.157
Mof_C 	C 	0.12951	0.33559	0.48095	0.533
Mof_C 	C 	0.223	0.25944	0.48745	-0.278
Mof_C 	C 	0.24978	0.17918	0.46412	0.175
Mof_C 	C 	0.33585	0.10525	0.47145	-0.249
Mof_C 	C 	0.39799	0.11007	0.50114	0.24
Mof_C 	C 	0.37081	0.18881	0.52126	-0.305
Mof_C 	C 	0.28528	0.26448	0.51608	0.216
Mof_N 	N 	0.81996	0.19094	0.22532	-0.103
Mof_N 	N 	0.72372	0.2259	0.75093	-0.116
Mof_N 	N 	0.04436	0.48418	0.0052	-0.125
Mof_N 	N 	0.80906	0.18004	0.27468	-0.103
Mof_N 	N 	0.7741	0.27628	0.74907	-0.116
Mof_N 	N 	0.51582	0.95564	0.4948	-0.125
Mof_N 	N 	0.18004	0.80906	0.77468	-0.103
Mof_N 	N 	0.27628	0.7741	0.24907	-0.116
Mof_N 	N 	0.95564	0.51582	0.9948	-0.125
Mof_N 	N 	0.19094	0.81996	0.72532	-0.103
Mof_N 	N 	0.2259	0.72372	0.25093	-0.116
Mof_N 	N 	0.48418	0.04436	0.5052	-0.125
Mof_O 	O 	0.59076	0.04176	0.12591	-0.457
Mof_O 	O 	0.65647	0.10377	0.06337	-0.434
Mof_O 	O 	0.59233	0.08465	0.96484	-0.57
Mof_O 	O 	0.53102	0.0364	0.91389	-0.56
Mof_O 	O 	0.40294	0.10378	0.00293	-0.656
Mof_O 	O 	0.32488	0.07948	0.95382	-0.483
Mof_O 	O 	0.95824	0.40924	0.37409	-0.456
Mof_O 	O 	0.89623	0.34353	0.43663	-0.434
Mof_O 	O 	0.91535	0.40767	0.53516	-0.571
Mof_O 	O 	0.9636	0.46898	0.58611	-0.562
Mof_O 	O 	0.89622	0.59706	0.49707	-0.655
Mof_O 	O 	0.92052	0.67512	0.54618	-0.484
Mof_O 	O 	0.40924	0.95824	0.87409	-0.457
Mof_O 	O 	0.34353	0.89623	0.93663	-0.434
Mof_O 	O 	0.40767	0.91535	0.03516	-0.57
Mof_O 	O 	0.46898	0.9636	0.08611	-0.56
Mof_O 	O 	0.59706	0.89622	0.99707	-0.656
Mof_O 	O 	0.67512	0.92052	0.04618	-0.483
Mof_O 	O 	0.04176	0.59076	0.62591	-0.456
Mof_O 	O 	0.10377	0.65647	0.56337	-0.434
Mof_O 	O 	0.08465	0.59233	0.46484	-0.571
Mof_O 	O 	0.0364	0.53102	0.41389	-0.562
Mof_O 	O 	0.10378	0.40294	0.50293	-0.655
Mof_O 	O 	0.07948	0.32488	0.45382	-0.484
_end
