data_functionalizedCrystal
_audit_creation_method	'EQeq! by Chris Wilmer'
_symmetry_space_group_name_H-M	'P1'
_symmetry_Int_Tables_number	1
_symmetry_cell_setting	triclinic
loop_
_symmetry_equiv_pos_as_xyz
  x,y,z
_cell_length_a	17.2576
_cell_length_b	17.2576
_cell_length_c	20.8493
_cell_angle_alpha	90
_cell_angle_beta	90
_cell_angle_gamma	120
loop_
_atom_site_label
_atom_site_type_symbol
_atom_site_fract_x
_atom_site_fract_y
_atom_site_fract_z
_atom_site_charge
Mof_N 	N 	0.802	0.2407	0.0329	-0.091
Mof_N 	N 	0.7424	0.1692	0.0658	-0.046
Mof_N 	N 	0.6889	0.1827	0.10262	-0.052
Mof_N 	N 	0.7137	0.2684	0.09369	-0.154
Mof_C 	C 	0.7808	0.3018	0.0508	0.11
Mof_H 	H 	0.8094	0.3615	0.0351	0.012
Mof_N 	N 	0.9556	0.1835	0.2125	-0.076
Mof_N 	N 	0.8803	0.1047	0.2085	-0.046
Mof_N 	N 	0.8838	0.0383	0.2373	-0.056
Mof_N 	N 	0.9653	0.0749	0.26181	-0.129
Mof_C 	C 	0.0075	0.1625	0.2462	0.066
Mof_H 	H 	0.0674	0.2042	0.2581	0.023
Mof_N 	N 	0.5575	0.7962	0.6006	-0.096
Mof_N 	N 	0.5717	0.74	0.5657	-0.045
Mof_N 	N 	0.5052	0.6887	0.5271	-0.05
Mof_N 	N 	0.4437	0.7122	0.53772	-0.158
Mof_C 	C 	0.4769	0.7771	0.5823	0.112
Mof_H 	H 	0.446	0.8056	0.5986	0.008
Mof_N 	N 	0.7839	0.976	0.4248	-0.076
Mof_N 	N 	0.7743	0.8954	0.4256	-0.045
Mof_N 	N 	0.8362	0.8871	0.3944	-0.05
Mof_N 	N 	0.8906	0.9677	0.3724	-0.125
Mof_C 	C 	0.8582	0.0211	0.3909	0.071
Mof_H 	H 	0.8853	0.0829	0.381	0.028
Mof_C 	C 	0.7375	0.0818	0.0621	-0.049
Mof_H 	H 	0.7412	0.0669	0.0167	0.065
Mof_H 	H 	0.6798	0.0348	0.0799	0.06
Mof_C 	C 	0.8154	0.0859	0.1005	-0.107
Mof_H 	H 	0.8197	0.0319	0.0913	0.072
Mof_H 	H 	0.8722	0.1389	0.0869	0.09
Mof_C 	C 	0.8028	0.0914	0.172	-0.043
Mof_H 	H 	0.7919	0.1416	0.1805	0.07
Mof_H 	H 	0.7494	0.0355	0.1863	0.055
Mof_C 	C 	0.6569	0.7397	0.5662	-0.05
Mof_H 	H 	0.6479	0.6836	0.5465	0.065
Mof_H 	H 	0.6765	0.7415	0.6111	0.064
Mof_C 	C 	0.729	0.8187	0.53	-0.103
Mof_H 	H 	0.785	0.8161	0.531	0.075
Mof_H 	H 	0.7407	0.8747	0.5514	0.085
Mof_C 	C 	0.7023	0.8201	0.4605	-0.046
Mof_H 	H 	0.6887	0.7633	0.4393	0.062
Mof_H 	H 	0.6476	0.8251	0.4593	0.072
Mof_N 	N 	0.46867	0.57403	0.36623	-0.095
Mof_N 	N 	0.40907	0.50253	0.39913	-0.045
Mof_N 	N 	0.35557	0.51603	0.43595	-0.052
Mof_N 	N 	0.38037	0.60173	0.42702	-0.154
Mof_C 	C 	0.44747	0.63513	0.38413	0.108
Mof_H 	H 	0.47607	0.69483	0.36843	0.008
Mof_N 	N 	0.62227	0.51683	0.54583	-0.095
Mof_N 	N 	0.54697	0.43803	0.54183	-0.047
Mof_N 	N 	0.55047	0.37163	0.57063	-0.054
Mof_N 	N 	0.63197	0.40823	0.59514	-0.153
Mof_C 	C 	0.67417	0.49583	0.57953	0.114
Mof_H 	H 	0.73407	0.53753	0.59143	0.012
Mof_N 	N 	0.22417	0.12953	0.93393	-0.102
Mof_N 	N 	0.23837	0.07333	0.89903	-0.049
Mof_N 	N 	0.17187	0.02203	0.86043	-0.057
Mof_N 	N 	0.11037	0.04553	0.87105	-0.16
Mof_C 	C 	0.14357	0.11043	0.91563	0.106
Mof_H 	H 	0.11267	0.13893	0.93193	-0.001
Mof_N 	N 	0.45057	0.30933	0.75813	-0.097
Mof_N 	N 	0.44097	0.22873	0.75893	-0.047
Mof_N 	N 	0.50287	0.22043	0.72773	-0.055
Mof_N 	N 	0.55727	0.30103	0.70573	-0.155
Mof_C 	C 	0.52487	0.35443	0.72423	0.111
Mof_H 	H 	0.55197	0.41623	0.71433	0.01
Mof_C 	C 	0.40417	0.41513	0.39543	-0.054
Mof_H 	H 	0.40787	0.40023	0.35003	0.064
Mof_H 	H 	0.34647	0.36813	0.41323	0.064
Mof_C 	C 	0.48207	0.41923	0.43383	-0.101
Mof_H 	H 	0.48637	0.36523	0.42463	0.07
Mof_H 	H 	0.53887	0.47223	0.42023	0.084
Mof_C 	C 	0.46947	0.42473	0.50533	-0.047
Mof_H 	H 	0.45857	0.47493	0.51383	0.07
Mof_H 	H 	0.41607	0.36883	0.51963	0.059
Mof_C 	C 	0.32357	0.07303	0.89953	-0.049
Mof_H 	H 	0.31457	0.01693	0.87983	0.055
Mof_H 	H 	0.34317	0.07483	0.94443	0.053
Mof_C 	C 	0.39567	0.15203	0.86333	-0.101
Mof_H 	H 	0.45167	0.14943	0.86433	0.066
Mof_H 	H 	0.40737	0.20803	0.88473	0.076
Mof_C 	C 	0.36897	0.15343	0.79383	-0.048
Mof_H 	H 	0.35537	0.09663	0.77263	0.057
Mof_H 	H 	0.31427	0.15843	0.79263	0.07
Mof_N 	N 	0.13533	0.90737	0.69957	-0.1
Mof_N 	N 	0.07573	0.83587	0.73247	-0.047
Mof_N 	N 	0.02223	0.84937	0.76929	-0.056
Mof_N 	N 	0.04703	0.93507	0.76036	-0.153
Mof_C 	C 	0.11413	0.96847	0.71747	0.15
Mof_H 	H 	0.14273	0.02817	0.70177	-0.022
Mof_N 	N 	0.28893	0.85017	0.87917	-0.092
Mof_N 	N 	0.21363	0.77137	0.87517	-0.048
Mof_N 	N 	0.21713	0.70497	0.90397	-0.057
Mof_N 	N 	0.29863	0.74157	0.92848	-0.154
Mof_C 	C 	0.34083	0.82917	0.91287	0.112
Mof_H 	H 	0.40073	0.87087	0.92477	0.011
Mof_N 	N 	0.89083	0.46287	0.26727	-0.093
Mof_N 	N 	0.90503	0.40667	0.23237	-0.051
Mof_N 	N 	0.83853	0.35537	0.19377	-0.048
Mof_N 	N 	0.77703	0.37887	0.20439	-0.158
Mof_C 	C 	0.81023	0.44377	0.24897	0.112
Mof_H 	H 	0.77933	0.47227	0.26527	0.007
Mof_N 	N 	0.11723	0.64267	0.09147	-0.099
Mof_N 	N 	0.10763	0.56207	0.09227	-0.045
Mof_N 	N 	0.16953	0.55377	0.06107	-0.052
Mof_N 	N 	0.22393	0.63437	0.03907	-0.147
Mof_C 	C 	0.19153	0.68777	0.05757	0.113
Mof_H 	H 	0.21863	0.74957	0.04767	0.015
Mof_C 	C 	0.07083	0.74847	0.72877	-0.048
Mof_H 	H 	0.07453	0.73357	0.68337	0.059
Mof_H 	H 	0.01313	0.70147	0.74657	0.056
Mof_C 	C 	0.14873	0.75257	0.76717	-0.107
Mof_H 	H 	0.15303	0.69857	0.75797	0.07
Mof_H 	H 	0.20553	0.80557	0.75357	0.087
Mof_C 	C 	0.13613	0.75807	0.83867	-0.042
Mof_H 	H 	0.12523	0.80827	0.84717	0.069
Mof_H 	H 	0.08273	0.70217	0.85297	0.052
Mof_C 	C 	0.99023	0.40637	0.23287	0.02
Mof_H 	H 	0.98123	0.35027	0.21317	0.052
Mof_H 	H 	0.00983	0.40817	0.27777	0.028
Mof_C 	C 	0.06233	0.48537	0.19667	-0.141
Mof_H 	H 	0.11833	0.48277	0.19767	0.08
Mof_H 	H 	0.07403	0.54137	0.21807	0.086
Mof_C 	C 	0.03563	0.48677	0.12717	-0.069
Mof_H 	H 	0.02203	0.42997	0.10597	0.062
Mof_H 	H 	0.98093	0.49177	0.12597	0.091
Mof_N 	N 	0.7593	0.5613	0.0329	-0.091
Mof_N 	N 	0.8308	0.5732	0.0658	-0.043
Mof_N 	N 	0.8173	0.5062	0.10262	-0.05
Mof_N 	N 	0.7316	0.4453	0.09369	-0.154
Mof_C 	C 	0.6982	0.479	0.0508	0.11
Mof_H 	H 	0.6385	0.4479	0.0351	0.011
Mof_N 	N 	0.8165	0.7721	0.2125	-0.094
Mof_N 	N 	0.8953	0.7756	0.2085	-0.045
Mof_N 	N 	0.9617	0.8455	0.2373	-0.045
Mof_N 	N 	0.9251	0.8904	0.26181	-0.138
Mof_C 	C 	0.8375	0.845	0.2462	0.116
Mof_H 	H 	0.7958	0.8632	0.2581	0.016
Mof_N 	N 	0.2038	0.7613	0.6006	-0.097
Mof_N 	N 	0.26	0.8317	0.5657	-0.044
Mof_N 	N 	0.3113	0.8165	0.5271	-0.049
Mof_N 	N 	0.2878	0.7315	0.53772	-0.159
Mof_C 	C 	0.2229	0.6998	0.5823	0.111
Mof_H 	H 	0.1944	0.6404	0.5986	0.005
Mof_N 	N 	0.024	0.8079	0.4248	-0.113
Mof_N 	N 	0.1046	0.8789	0.4256	-0.047
Mof_N 	N 	0.1129	0.9491	0.3944	-0.049
Mof_N 	N 	0.0323	0.9229	0.3724	-0.16
Mof_C 	C 	0.9789	0.8371	0.3909	0.153
Mof_H 	H 	0.9171	0.8024	0.381	0.002
Mof_C 	C 	0.9182	0.6557	0.0621	-0.056
Mof_H 	H 	0.9331	0.6743	0.0167	0.075
Mof_H 	H 	0.9652	0.645	0.0799	0.073
Mof_C 	C 	0.9141	0.7295	0.1005	-0.103
Mof_H 	H 	0.9681	0.7878	0.0913	0.081
Mof_H 	H 	0.8611	0.7333	0.0869	0.089
Mof_C 	C 	0.9086	0.7114	0.172	-0.045
Mof_H 	H 	0.8584	0.6503	0.1805	0.071
Mof_H 	H 	0.9645	0.7139	0.1863	0.065
Mof_C 	C 	0.2603	0.9172	0.5662	-0.058
Mof_H 	H 	0.3164	0.9643	0.5465	0.072
Mof_H 	H 	0.2585	0.935	0.6111	0.069
Mof_C 	C 	0.1813	0.9103	0.53	-0.095
Mof_H 	H 	0.1839	0.9689	0.531	0.073
Mof_H 	H 	0.1253	0.866	0.5514	0.077
Mof_C 	C 	0.1799	0.8822	0.4605	-0.052
Mof_H 	H 	0.2367	0.9254	0.4393	0.066
Mof_H 	H 	0.1749	0.8225	0.4593	0.072
Mof_N 	N 	0.42597	0.89463	0.36623	-0.092
Mof_N 	N 	0.49747	0.90653	0.39913	-0.051
Mof_N 	N 	0.48397	0.83953	0.43595	-0.05
Mof_N 	N 	0.39827	0.77863	0.42702	-0.154
Mof_C 	C 	0.36487	0.81233	0.38413	0.109
Mof_H 	H 	0.30517	0.78123	0.36843	0.007
Mof_N 	N 	0.48317	0.10543	0.54583	-0.102
Mof_N 	N 	0.56197	0.10893	0.54183	-0.046
Mof_N 	N 	0.62837	0.17883	0.57063	-0.054
Mof_N 	N 	0.59177	0.22373	0.59514	-0.154
Mof_C 	C 	0.50417	0.17833	0.57953	0.113
Mof_H 	H 	0.46247	0.19653	0.59143	0.008
Mof_N 	N 	0.87047	0.09463	0.93393	-0.096
Mof_N 	N 	0.92667	0.16503	0.89903	-0.044
Mof_N 	N 	0.97797	0.14983	0.86043	-0.044
Mof_N 	N 	0.95447	0.06483	0.87105	-0.144
Mof_C 	C 	0.88957	0.03313	0.91563	0.073
Mof_H 	H 	0.86107	0.97373	0.93193	0.032
Mof_N 	N 	0.69067	0.14123	0.75813	-0.101
Mof_N 	N 	0.77127	0.21223	0.75893	-0.046
Mof_N 	N 	0.77957	0.28243	0.72773	-0.053
Mof_N 	N 	0.69897	0.25623	0.70573	-0.155
Mof_C 	C 	0.64557	0.17043	0.72423	0.111
Mof_H 	H 	0.58377	0.13573	0.71433	0.006
Mof_C 	C 	0.58487	0.98903	0.39543	0.016
Mof_H 	H 	0.59977	0.00763	0.35003	0.03
Mof_H 	H 	0.63187	0.97833	0.41323	0.052
Mof_C 	C 	0.58077	0.06283	0.43383	-0.138
Mof_H 	H 	0.63477	0.12113	0.42463	0.08
Mof_H 	H 	0.52777	0.06663	0.42023	0.087
Mof_C 	C 	0.57527	0.04473	0.50533	-0.07
Mof_H 	H 	0.52507	0.98363	0.51383	0.091
Mof_H 	H 	0.63117	0.04723	0.51963	0.06
Mof_C 	C 	0.92697	0.25053	0.89953	-0.059
Mof_H 	H 	0.98307	0.29763	0.87983	0.072
Mof_H 	H 	0.92517	0.26833	0.94443	0.063
Mof_C 	C 	0.84797	0.24363	0.86333	-0.092
Mof_H 	H 	0.85057	0.30223	0.86433	0.067
Mof_H 	H 	0.79197	0.19933	0.88473	0.072
Mof_C 	C 	0.84657	0.21553	0.79383	-0.055
Mof_H 	H 	0.90337	0.25873	0.77263	0.068
Mof_H 	H 	0.84157	0.15583	0.79263	0.071
Mof_N 	N 	0.09263	0.22797	0.69957	-0.092
Mof_N 	N 	0.16413	0.23987	0.73247	-0.046
Mof_N 	N 	0.15063	0.17287	0.76929	-0.053
Mof_N 	N 	0.06493	0.11197	0.76036	-0.149
Mof_C 	C 	0.03153	0.14567	0.71747	0.062
Mof_H 	H 	0.97183	0.11457	0.70177	0.034
Mof_N 	N 	0.14983	0.43877	0.87917	-0.101
Mof_N 	N 	0.22863	0.44227	0.87517	-0.049
Mof_N 	N 	0.29503	0.51217	0.90397	-0.056
Mof_N 	N 	0.25843	0.55707	0.92848	-0.154
Mof_C 	C 	0.17083	0.51167	0.91287	0.11
Mof_H 	H 	0.12913	0.52987	0.92477	0.003
Mof_N 	N 	0.53713	0.42797	0.26727	-0.097
Mof_N 	N 	0.59333	0.49837	0.23237	-0.045
Mof_N 	N 	0.64463	0.48317	0.19377	-0.05
Mof_N 	N 	0.62113	0.39817	0.20439	-0.159
Mof_C 	C 	0.55623	0.36647	0.24897	0.112
Mof_H 	H 	0.52773	0.30707	0.26527	0.006
Mof_N 	N 	0.35733	0.47457	0.09147	-0.096
Mof_N 	N 	0.43793	0.54557	0.09227	-0.045
Mof_N 	N 	0.44623	0.61577	0.06107	-0.05
Mof_N 	N 	0.36563	0.58957	0.03907	-0.147
Mof_C 	C 	0.31223	0.50377	0.05757	0.114
Mof_H 	H 	0.25043	0.46907	0.04767	0.013
Mof_C 	C 	0.25153	0.32237	0.72877	-0.055
Mof_H 	H 	0.26643	0.34097	0.68337	0.064
Mof_H 	H 	0.29853	0.31167	0.74657	0.065
Mof_C 	C 	0.24743	0.39617	0.76717	-0.1
Mof_H 	H 	0.30143	0.45447	0.75797	0.07
Mof_H 	H 	0.19443	0.39997	0.75357	0.081
Mof_C 	C 	0.24193	0.37807	0.83867	-0.047
Mof_H 	H 	0.19173	0.31697	0.84717	0.067
Mof_H 	H 	0.29783	0.38057	0.85297	0.058
Mof_C 	C 	0.59363	0.58387	0.23287	-0.054
Mof_H 	H 	0.64973	0.63097	0.21317	0.066
Mof_H 	H 	0.59183	0.60167	0.27777	0.065
Mof_C 	C 	0.51463	0.57697	0.19667	-0.097
Mof_H 	H 	0.51723	0.63557	0.19767	0.07
Mof_H 	H 	0.45863	0.53267	0.21807	0.079
Mof_C 	C 	0.51323	0.54887	0.12717	-0.051
Mof_H 	H 	0.57003	0.59207	0.10597	0.066
Mof_H 	H 	0.50823	0.48917	0.12597	0.073
Mof_N 	N 	0.4387	0.198	0.0329	-0.093
Mof_N 	N 	0.4268	0.2576	0.0658	-0.044
Mof_N 	N 	0.4938	0.3111	0.10262	-0.051
Mof_N 	N 	0.5547	0.2863	0.09369	-0.154
Mof_C 	C 	0.521	0.2192	0.0508	0.109
Mof_H 	H 	0.5521	0.1906	0.0351	0.009
Mof_N 	N 	0.2279	0.0444	0.2125	-0.116
Mof_N 	N 	0.2244	0.1197	0.2085	-0.048
Mof_N 	N 	0.1545	0.1162	0.2373	-0.055
Mof_N 	N 	0.1096	0.0347	0.26181	-0.17
Mof_C 	C 	0.155	0.9925	0.2462	0.161
Mof_H 	H 	0.1368	0.9326	0.2581	-0.004
Mof_N 	N 	0.2387	0.4425	0.6006	-0.097
Mof_N 	N 	0.1683	0.4283	0.5657	-0.046
Mof_N 	N 	0.1835	0.4948	0.5271	-0.051
Mof_N 	N 	0.2685	0.5563	0.53772	-0.159
Mof_C 	C 	0.3002	0.5231	0.5823	0.111
Mof_H 	H 	0.3596	0.554	0.5986	0.007
Mof_N 	N 	0.1921	0.2161	0.4248	-0.097
Mof_N 	N 	0.1211	0.2257	0.4256	-0.047
Mof_N 	N 	0.0509	0.1638	0.3944	-0.06
Mof_N 	N 	0.0771	0.1094	0.3724	-0.155
Mof_C 	C 	0.1629	0.1418	0.3909	0.109
Mof_H 	H 	0.1976	0.1147	0.381	0.006
Mof_C 	C 	0.3443	0.2625	0.0621	-0.057
Mof_H 	H 	0.3257	0.2588	0.0167	0.071
Mof_H 	H 	0.355	0.3202	0.0799	0.067
Mof_C 	C 	0.2705	0.1846	0.1005	-0.097
Mof_H 	H 	0.2122	0.1803	0.0913	0.068
Mof_H 	H 	0.2667	0.1278	0.0869	0.081
Mof_C 	C 	0.2886	0.1972	0.172	-0.05
Mof_H 	H 	0.3497	0.2081	0.1805	0.071
Mof_H 	H 	0.2861	0.2506	0.1863	0.06
Mof_C 	C 	0.0828	0.3431	0.5662	-0.051
Mof_H 	H 	0.0357	0.3521	0.5465	0.059
Mof_H 	H 	0.065	0.3235	0.6111	0.058
Mof_C 	C 	0.0897	0.271	0.53	-0.097
Mof_H 	H 	0.0311	0.215	0.531	0.061
Mof_H 	H 	0.134	0.2593	0.5514	0.077
Mof_C 	C 	0.1178	0.2977	0.4605	-0.052
Mof_H 	H 	0.0746	0.3113	0.4393	0.059
Mof_H 	H 	0.1775	0.3524	0.4593	0.072
Mof_N 	N 	0.10537	0.53133	0.36623	-0.099
Mof_N 	N 	0.09347	0.59093	0.39913	-0.039
Mof_N 	N 	0.16047	0.64443	0.43595	-0.053
Mof_N 	N 	0.22137	0.61963	0.42702	-0.154
Mof_C 	C 	0.18767	0.55253	0.38413	0.108
Mof_H 	H 	0.21877	0.52393	0.36843	0.007
Mof_N 	N 	0.89457	0.37773	0.54583	-0.09
Mof_N 	N 	0.89107	0.45303	0.54183	-0.047
Mof_N 	N 	0.82117	0.44953	0.57063	-0.052
Mof_N 	N 	0.77627	0.36803	0.59514	-0.153
Mof_C 	C 	0.82167	0.32583	0.57953	0.115
Mof_H 	H 	0.80347	0.26593	0.59143	0.011
Mof_N 	N 	0.90537	0.77583	0.93393	-0.104
Mof_N 	N 	0.83497	0.76163	0.89903	-0.046
Mof_N 	N 	0.85017	0.82813	0.86043	-0.049
Mof_N 	N 	0.93517	0.88963	0.87105	-0.148
Mof_C 	C 	0.96687	0.85643	0.91563	0.148
Mof_H 	H 	0.02627	0.88733	0.93193	-0.015
Mof_N 	N 	0.85877	0.54943	0.75813	-0.092
Mof_N 	N 	0.78777	0.55903	0.75893	-0.045
Mof_N 	N 	0.71757	0.49713	0.72773	-0.054
Mof_N 	N 	0.74377	0.44273	0.70573	-0.155
Mof_C 	C 	0.82957	0.47513	0.72423	0.113
Mof_H 	H 	0.86427	0.44803	0.71433	0.013
Mof_C 	C 	0.01097	0.59583	0.39543	-0.122
Mof_H 	H 	0.99237	0.59213	0.35003	0.098
Mof_H 	H 	0.02167	0.65353	0.41323	0.078
Mof_C 	C 	0.93717	0.51793	0.43383	-0.064
Mof_H 	H 	0.87887	0.51363	0.42463	0.061
Mof_H 	H 	0.93337	0.46113	0.42023	0.079
Mof_C 	C 	0.95527	0.53053	0.50533	-0.025
Mof_H 	H 	0.01637	0.54143	0.51383	0.051
Mof_H 	H 	0.95277	0.58393	0.51963	0.061
Mof_C 	C 	0.74947	0.67643	0.89953	-0.052
Mof_H 	H 	0.70237	0.68543	0.87983	0.064
Mof_H 	H 	0.73167	0.65683	0.94443	0.059
Mof_C 	C 	0.75637	0.60433	0.86333	-0.097
Mof_H 	H 	0.69777	0.54833	0.86433	0.067
Mof_H 	H 	0.80067	0.59263	0.88473	0.077
Mof_C 	C 	0.78447	0.63103	0.79383	-0.052
Mof_H 	H 	0.74127	0.64463	0.77263	0.064
Mof_H 	H 	0.84417	0.68573	0.79263	0.076
Mof_N 	N 	0.77203	0.86467	0.69957	-0.094
Mof_N 	N 	0.76013	0.92427	0.73247	-0.043
Mof_N 	N 	0.82713	0.97777	0.76929	-0.044
Mof_N 	N 	0.88803	0.95297	0.76036	-0.138
Mof_C 	C 	0.85433	0.88587	0.71747	0.11
Mof_H 	H 	0.88543	0.85727	0.70177	0.015
Mof_N 	N 	0.56123	0.71107	0.87917	-0.096
Mof_N 	N 	0.55773	0.78637	0.87517	-0.047
Mof_N 	N 	0.48783	0.78287	0.90397	-0.054
Mof_N 	N 	0.44293	0.70137	0.92848	-0.154
Mof_C 	C 	0.48833	0.65917	0.91287	0.111
Mof_H 	H 	0.47013	0.59927	0.92477	0.007
Mof_N 	N 	0.57203	0.10917	0.26727	-0.1
Mof_N 	N 	0.50163	0.09497	0.23237	-0.039
Mof_N 	N 	0.51683	0.16147	0.19377	-0.052
Mof_N 	N 	0.60183	0.22297	0.20439	-0.159
Mof_C 	C 	0.63353	0.18977	0.24897	0.111
Mof_H 	H 	0.69293	0.22067	0.26527	0.007
Mof_N 	N 	0.52543	0.88277	0.09147	-0.089
Mof_N 	N 	0.45443	0.89237	0.09227	-0.045
Mof_N 	N 	0.38423	0.83047	0.06107	-0.05
Mof_N 	N 	0.41043	0.77607	0.03907	-0.147
Mof_C 	C 	0.49623	0.80847	0.05757	0.115
Mof_H 	H 	0.53093	0.78137	0.04767	0.016
Mof_C 	C 	0.67763	0.92917	0.72877	-0.058
Mof_H 	H 	0.65903	0.92547	0.68337	0.069
Mof_H 	H 	0.68833	0.98687	0.74657	0.073
Mof_C 	C 	0.60383	0.85127	0.76717	-0.096
Mof_H 	H 	0.54553	0.84697	0.75797	0.071
Mof_H 	H 	0.60003	0.79447	0.75357	0.082
Mof_C 	C 	0.62193	0.86387	0.83867	-0.05
Mof_H 	H 	0.68303	0.87477	0.84717	0.073
Mof_H 	H 	0.61943	0.91727	0.85297	0.064
Mof_C 	C 	0.41613	0.00977	0.23287	-0.13
Mof_H 	H 	0.36903	0.01877	0.21317	0.079
Mof_H 	H 	0.39833	0.99017	0.27777	0.101
Mof_C 	C 	0.42303	0.93767	0.19667	-0.053
Mof_H 	H 	0.36443	0.88167	0.19767	0.058
Mof_H 	H 	0.46733	0.92597	0.21807	0.073
Mof_C 	C 	0.45113	0.96437	0.12717	-0.031
Mof_H 	H 	0.40793	0.97797	0.10597	0.068
Mof_H 	H 	0.51083	0.01907	0.12597	0.054
Mof_Fe	Fe	-9.38853e-33	9.38853e-33	0.31756	0.68
Mof_Fe	Fe	0.66667	0.33333	0.65089	0.741
Mof_Fe	Fe	0.33333	0.66667	0.98423	0.713
Mof_Fe	Fe	0.66667	0.33333	0.14955	0.742
Mof_Fe	Fe	0.33333	0.66667	0.48288	0.742
Mof_Fe	Fe	-9.38853e-33	1.87771e-32	0.81622	0.679
_end
