data_functionalizedCrystal
_audit_creation_method	'EQeq! by Chris Wilmer'
_symmetry_space_group_name_H-M	'P1'
_symmetry_Int_Tables_number	1
_symmetry_cell_setting	triclinic
loop_
_symmetry_equiv_pos_as_xyz
  x,y,z
_cell_length_a	52.623
_cell_length_b	52.623
_cell_length_c	52.623
_cell_angle_alpha	90
_cell_angle_beta	90
_cell_angle_gamma	90
loop_
_atom_site_label
_atom_site_type_symbol
_atom_site_fract_x
_atom_site_fract_y
_atom_site_fract_z
_atom_site_charge
Mof_Zn	Zn	0.21976	0.3789	0.87599	1.222
Mof_Zn	Zn	0.2772	0.37437	0.88053	1.217
Mof_Zn	Zn	0.24899	0.4279	0.87944	1.22
Mof_Zn	Zn	0.2498	0.39437	0.92958	1.221
Mof_Zn	Zn	0.11862	0.37313	0.76855	1.219
Mof_Zn	Zn	0.11224	0.38376	0.70935	1.221
Mof_Zn	Zn	0.09781	0.42855	0.74644	1.221
Mof_Zn	Zn	0.06424	0.37974	0.74368	1.221
Mof_O 	O 	0.24089	0.38302	0.83831	-0.461
Mof_O 	O 	0.3429	0.37023	0.78185	-0.469
Mof_O 	O 	0.33466	0.38467	0.74299	-0.411
Mof_O 	O 	0.15573	0.37604	0.75524	-0.443
Mof_O 	O 	0.14911	0.3931	0.7167	-0.458
Mof_O 	O 	0.25271	0.38646	0.66219	-0.477
Mof_O 	O 	0.2118	0.3796	0.65316	-0.477
Mof_O 	O 	0.1944	0.40102	0.85969	-0.459
Mof_O 	O 	0.21654	0.4371	0.86345	-0.486
Mof_O 	O 	0.12692	0.40207	0.79365	-0.462
Mof_O 	O 	0.11558	0.43939	0.7768	-0.486
Mof_O 	O 	0.11475	0.55246	0.78107	-0.471
Mof_O 	O 	0.187	0.58122	0.87288	-0.454
Mof_O 	O 	0.21523	0.5517	0.8607	-0.476
Mof_O 	O 	0.19694	0.37479	0.90851	-0.458
Mof_O 	O 	0.22069	0.37793	0.94362	-0.488
Mof_O 	O 	0.139	0.27657	0.94078	-0.484
Mof_O 	O 	0.13026	0.30355	0.90919	-0.409
Mof_O 	O 	0.19874	0.36438	0.09392	-0.478
Mof_O 	O 	0.21882	0.37745	0.05812	-0.486
Mof_O 	O 	0.13746	0.27334	0.05211	-0.486
Mof_O 	O 	0.13733	0.29439	0.08841	-0.457
Mof_O 	O 	0.04068	0.40836	0.7433	-0.506
Mof_O 	O 	0.06346	0.44336	0.74781	-0.495
Mof_O 	O 	0.95119	0.40782	0.74678	-0.492
Mof_O 	O 	0.92865	0.44378	0.75155	-0.484
Mof_O 	O 	0.09821	0.39243	0.743	-0.923
Mof_O 	O 	0.24912	0.39401	0.89306	-0.947
Mof_C 	C 	0.2617	0.3758	0.83172	0.393
Mof_C 	C 	0.2683	0.3767	0.80378	-0.087
Mof_C 	C 	0.2938	0.3758	0.79671	0.031
Mof_H 	H 	0.3067	0.3742	0.8093	0.056
Mof_C 	C 	0.30026	0.3773	0.77135	-0.083
Mof_C 	C 	0.32818	0.3778	0.7649	0.37
Mof_C 	C 	0.2814	0.3789	0.75301	-0.014
Mof_H 	H 	0.286	0.3796	0.7356	0.054
Mof_C 	C 	0.24958	0.3788	0.78524	-0.013
Mof_H 	H 	0.2323	0.3799	0.7902	0.055
Mof_C 	C 	0.25573	0.3794	0.75966	0.007
Mof_C 	C 	0.23546	0.3805	0.7398	-0.004
Mof_C 	C 	0.24142	0.3819	0.71433	-0.002
Mof_H 	H 	0.2588	0.3821	0.7094	0.049
Mof_C 	C 	0.20955	0.3807	0.7459	-0.004
Mof_H 	H 	0.2045	0.3791	0.7632	0.049
Mof_C 	C 	0.19107	0.383	0.7273	-0.098
Mof_C 	C 	0.1632	0.3834	0.7337	0.373
Mof_C 	C 	0.1978	0.3845	0.7026	0.05
Mof_H 	H 	0.1851	0.3867	0.6899	0.042
Mof_C 	C 	0.22295	0.383	0.69569	-0.104
Mof_C 	C 	0.2299	0.3836	0.66802	0.391
Mof_C 	C 	0.19782	0.42453	0.85589	0.388
Mof_C 	C 	0.17762	0.43866	0.84154	-0.095
Mof_C 	C 	0.16109	0.42548	0.82584	0.043
Mof_H 	H 	0.1614	0.4074	0.8252	0.048
Mof_C 	C 	0.14411	0.43927	0.81099	-0.101
Mof_C 	C 	0.12749	0.42571	0.79229	0.401
Mof_C 	C 	0.14289	0.46546	0.81291	-0.006
Mof_H 	H 	0.1308	0.4746	0.8031	0.053
Mof_C 	C 	0.17666	0.46505	0.84303	-0.009
Mof_H 	H 	0.1882	0.4738	0.8538	0.053
Mof_C 	C 	0.1592	0.4785	0.82904	0.002
Mof_C 	C 	0.15759	0.50731	0.83082	-0.003
Mof_C 	C 	0.13979	0.521	0.81695	-0.003
Mof_H 	H 	0.1285	0.5122	0.8059	0.05
Mof_C 	C 	0.13819	0.54744	0.81887	-0.098
Mof_O 	O 	0.1117	0.58271	0.81034	-0.457
Mof_C 	C 	0.15457	0.56039	0.8347	0.05
Mof_H 	H 	0.153	0.5783	0.8368	0.037
Mof_C 	C 	0.1732	0.54711	0.8474	-0.101
Mof_C 	C 	0.1928	0.5612	0.862	0.38
Mof_C 	C 	0.1747	0.52124	0.8453	-0
Mof_H 	H 	0.1879	0.5125	0.854	0.049
Mof_C 	C 	0.2012	0.3705	0.931	0.385
Mof_C 	C 	0.1831	0.3533	0.9451	-0.091
Mof_C 	C 	0.1678	0.3369	0.93122	0.031
Mof_H 	H 	0.1668	0.3381	0.9132	0.047
Mof_C 	C 	0.154	0.3185	0.94433	-0.085
Mof_C 	C 	0.1395	0.2985	0.93015	0.363
Mof_C 	C 	0.1549	0.3179	0.97095	-0.015
Mof_H 	H 	0.1453	0.3054	0.9797	0.053
Mof_C 	C 	0.1838	0.35218	0.97182	-0.015
Mof_H 	H 	0.1945	0.3635	0.9809	0.053
Mof_C 	C 	0.1692	0.33501	0.98495	0.006
Mof_C 	C 	0.1697	0.33356	0.01376	-0.005
Mof_C 	C 	0.18423	0.35022	0.02835	-0.004
Mof_H 	H 	0.1941	0.3629	0.02	0.049
Mof_C 	C 	0.18472	0.34884	0.05464	-0.098
Mof_C 	C 	0.2022	0.36515	0.06979	0.382
Mof_C 	C 	0.17039	0.3308	0.06715	0.042
Mof_H 	H 	0.17	0.3302	0.0852	0.047
Mof_C 	C 	0.15639	0.31338	0.05246	-0.1
Mof_C 	C 	0.14259	0.29214	0.06586	0.406
Mof_C 	C 	0.1565	0.31468	0.02626	-0.003
Mof_H 	H 	0.1473	0.3024	0.0167	0.051
Mof_C 	C 	0.04304	0.43151	0.7463	0.42
Mof_C 	C 	0.01866	0.44624	0.7472	-0.114
Mof_C 	C 	0.99579	0.43314	0.7475	0.053
Mof_H 	H 	0.9956	0.4151	0.7466	0.047
Mof_C 	C 	0.97357	0.44632	0.749	-0.109
Mof_C 	C 	0.94931	0.43162	0.7492	0.387
Mof_C 	C 	0.97338	0.4725	0.75	-0.002
Mof_H 	H 	0.9577	0.4813	0.7514	0.049
Mof_C 	C 	0.99617	0.48598	0.749	-0.005
Mof_C 	C 	0.01882	0.4724	0.7484	0.001
Mof_H 	H 	0.0346	0.4812	0.7489	0.049
Mof_O 	O 	0.27918	0.36707	0.84533	-0.486
Mof_C 	C 	0.11995	0.56176	0.8022	0.387
Mof_Zn	Zn	0.71976	0.8789	0.37599	1.221
Mof_Zn	Zn	0.7772	0.87437	0.38053	1.216
Mof_Zn	Zn	0.74899	0.9279	0.37944	1.219
Mof_Zn	Zn	0.7498	0.89437	0.42958	1.22
Mof_Zn	Zn	0.61862	0.87313	0.26855	1.218
Mof_Zn	Zn	0.61224	0.88376	0.20935	1.22
Mof_Zn	Zn	0.59781	0.92855	0.24644	1.22
Mof_Zn	Zn	0.56424	0.87974	0.24368	1.22
Mof_O 	O 	0.74089	0.88302	0.33831	-0.462
Mof_O 	O 	0.8429	0.87023	0.28185	-0.47
Mof_O 	O 	0.83466	0.88467	0.24299	-0.412
Mof_O 	O 	0.65573	0.87604	0.25524	-0.444
Mof_O 	O 	0.64911	0.8931	0.2167	-0.459
Mof_O 	O 	0.75271	0.88646	0.16219	-0.478
Mof_O 	O 	0.7118	0.8796	0.15316	-0.478
Mof_O 	O 	0.6944	0.90102	0.35969	-0.46
Mof_O 	O 	0.71654	0.9371	0.36345	-0.487
Mof_O 	O 	0.62692	0.90207	0.29365	-0.463
Mof_O 	O 	0.61558	0.93939	0.2768	-0.487
Mof_O 	O 	0.61475	0.05246	0.28107	-0.472
Mof_O 	O 	0.687	0.08122	0.37288	-0.455
Mof_O 	O 	0.71523	0.0517	0.3607	-0.477
Mof_O 	O 	0.69694	0.87479	0.40851	-0.459
Mof_O 	O 	0.72069	0.87793	0.44362	-0.489
Mof_O 	O 	0.639	0.77657	0.44078	-0.485
Mof_O 	O 	0.63026	0.80355	0.40919	-0.41
Mof_O 	O 	0.69874	0.86438	0.59392	-0.479
Mof_O 	O 	0.71882	0.87745	0.55812	-0.487
Mof_O 	O 	0.63746	0.77334	0.55211	-0.487
Mof_O 	O 	0.63733	0.79439	0.58841	-0.458
Mof_O 	O 	0.54068	0.90836	0.2433	-0.507
Mof_O 	O 	0.56346	0.94336	0.24781	-0.496
Mof_O 	O 	0.45119	0.90782	0.24678	-0.493
Mof_O 	O 	0.42865	0.94378	0.25155	-0.485
Mof_O 	O 	0.59821	0.89243	0.243	-0.924
Mof_O 	O 	0.74912	0.89401	0.39306	-0.948
Mof_C 	C 	0.7617	0.8758	0.33172	0.392
Mof_C 	C 	0.7683	0.8767	0.30378	-0.088
Mof_C 	C 	0.7938	0.8758	0.29671	0.03
Mof_H 	H 	0.8067	0.8742	0.3093	0.055
Mof_C 	C 	0.80026	0.8773	0.27135	-0.084
Mof_C 	C 	0.82818	0.8778	0.2649	0.369
Mof_C 	C 	0.7814	0.8789	0.25301	-0.015
Mof_H 	H 	0.786	0.8796	0.2356	0.053
Mof_C 	C 	0.74958	0.8788	0.28524	-0.014
Mof_H 	H 	0.7323	0.8799	0.2902	0.054
Mof_C 	C 	0.75573	0.8794	0.25966	0.006
Mof_C 	C 	0.73546	0.8805	0.2398	-0.005
Mof_C 	C 	0.74142	0.8819	0.21433	-0.002
Mof_H 	H 	0.7588	0.8821	0.2094	0.049
Mof_C 	C 	0.70955	0.8807	0.2459	-0.004
Mof_H 	H 	0.7045	0.8791	0.2632	0.049
Mof_C 	C 	0.69107	0.883	0.2273	-0.098
Mof_C 	C 	0.6632	0.8834	0.2337	0.373
Mof_C 	C 	0.6978	0.8845	0.2026	0.05
Mof_H 	H 	0.6851	0.8867	0.1899	0.042
Mof_C 	C 	0.72295	0.883	0.19569	-0.104
Mof_C 	C 	0.7299	0.8836	0.16802	0.391
Mof_C 	C 	0.69782	0.92453	0.35589	0.388
Mof_C 	C 	0.67762	0.93866	0.34154	-0.095
Mof_C 	C 	0.66109	0.92548	0.32584	0.043
Mof_H 	H 	0.6614	0.9074	0.3252	0.048
Mof_C 	C 	0.64411	0.93927	0.31099	-0.101
Mof_C 	C 	0.62749	0.92571	0.29229	0.401
Mof_C 	C 	0.64289	0.96546	0.31291	-0.006
Mof_H 	H 	0.6308	0.9746	0.3031	0.053
Mof_C 	C 	0.67666	0.96505	0.34303	-0.009
Mof_H 	H 	0.6882	0.9738	0.3538	0.053
Mof_C 	C 	0.6592	0.9785	0.32904	0.002
Mof_C 	C 	0.65759	0.00731	0.33082	-0.003
Mof_C 	C 	0.63979	0.021	0.31695	-0.003
Mof_H 	H 	0.6285	0.0122	0.3059	0.05
Mof_C 	C 	0.63819	0.04744	0.31887	-0.098
Mof_O 	O 	0.6117	0.08271	0.31034	-0.457
Mof_C 	C 	0.65457	0.06039	0.3347	0.05
Mof_H 	H 	0.653	0.0783	0.3368	0.037
Mof_C 	C 	0.6732	0.04711	0.3474	-0.101
Mof_C 	C 	0.6928	0.0612	0.362	0.38
Mof_C 	C 	0.6747	0.02124	0.3453	-0
Mof_H 	H 	0.6879	0.0125	0.354	0.049
Mof_C 	C 	0.7012	0.8705	0.431	0.385
Mof_C 	C 	0.6831	0.8533	0.4451	-0.091
Mof_C 	C 	0.6678	0.8369	0.43122	0.031
Mof_H 	H 	0.6668	0.8381	0.4132	0.047
Mof_C 	C 	0.654	0.8185	0.44433	-0.085
Mof_C 	C 	0.6395	0.7985	0.43015	0.363
Mof_C 	C 	0.6549	0.8179	0.47095	-0.015
Mof_H 	H 	0.6453	0.8054	0.4797	0.053
Mof_C 	C 	0.6838	0.85218	0.47182	-0.015
Mof_H 	H 	0.6945	0.8635	0.4809	0.053
Mof_C 	C 	0.6692	0.83501	0.48495	0.006
Mof_C 	C 	0.6697	0.83356	0.51376	-0.005
Mof_C 	C 	0.68423	0.85022	0.52835	-0.004
Mof_H 	H 	0.6941	0.8629	0.52	0.049
Mof_C 	C 	0.68472	0.84884	0.55464	-0.098
Mof_C 	C 	0.7022	0.86515	0.56979	0.382
Mof_C 	C 	0.67039	0.8308	0.56715	0.042
Mof_H 	H 	0.67	0.8302	0.5852	0.047
Mof_C 	C 	0.65639	0.81338	0.55246	-0.1
Mof_C 	C 	0.64259	0.79214	0.56586	0.406
Mof_C 	C 	0.6565	0.81468	0.52626	-0.003
Mof_H 	H 	0.6473	0.8024	0.5167	0.051
Mof_C 	C 	0.54304	0.93151	0.2463	0.42
Mof_C 	C 	0.51866	0.94624	0.2472	-0.114
Mof_C 	C 	0.49579	0.93314	0.2475	0.053
Mof_H 	H 	0.4956	0.9151	0.2466	0.047
Mof_C 	C 	0.47357	0.94632	0.249	-0.109
Mof_C 	C 	0.44931	0.93162	0.2492	0.387
Mof_C 	C 	0.47338	0.9725	0.25	-0.002
Mof_H 	H 	0.4577	0.9813	0.2514	0.049
Mof_C 	C 	0.49617	0.98598	0.249	-0.005
Mof_C 	C 	0.51882	0.9724	0.2484	0.001
Mof_H 	H 	0.5346	0.9812	0.2489	0.049
Mof_O 	O 	0.77918	0.86707	0.34533	-0.486
Mof_C 	C 	0.61995	0.06176	0.3022	0.387
Mof_Zn	Zn	0.28024	0.6211	0.37599	1.221
Mof_Zn	Zn	0.2228	0.62563	0.38053	1.216
Mof_Zn	Zn	0.25101	0.5721	0.37944	1.219
Mof_Zn	Zn	0.2502	0.60563	0.42958	1.22
Mof_Zn	Zn	0.38138	0.62687	0.26855	1.218
Mof_Zn	Zn	0.38776	0.61624	0.20935	1.22
Mof_Zn	Zn	0.40219	0.57145	0.24644	1.22
Mof_Zn	Zn	0.43576	0.62026	0.24368	1.22
Mof_O 	O 	0.25911	0.61698	0.33831	-0.462
Mof_O 	O 	0.1571	0.62977	0.28185	-0.47
Mof_O 	O 	0.16534	0.61533	0.24299	-0.412
Mof_O 	O 	0.34427	0.62396	0.25524	-0.444
Mof_O 	O 	0.35089	0.6069	0.2167	-0.459
Mof_O 	O 	0.24729	0.61354	0.16219	-0.478
Mof_O 	O 	0.2882	0.6204	0.15316	-0.478
Mof_O 	O 	0.3056	0.59898	0.35969	-0.46
Mof_O 	O 	0.28346	0.5629	0.36345	-0.487
Mof_O 	O 	0.37308	0.59793	0.29365	-0.463
Mof_O 	O 	0.38442	0.56061	0.2768	-0.487
Mof_O 	O 	0.38525	0.44754	0.28107	-0.472
Mof_O 	O 	0.313	0.41878	0.37288	-0.455
Mof_O 	O 	0.28477	0.4483	0.3607	-0.477
Mof_O 	O 	0.30306	0.62521	0.40851	-0.459
Mof_O 	O 	0.27931	0.62207	0.44362	-0.489
Mof_O 	O 	0.361	0.72343	0.44078	-0.485
Mof_O 	O 	0.36974	0.69645	0.40919	-0.41
Mof_O 	O 	0.30126	0.63562	0.59392	-0.479
Mof_O 	O 	0.28118	0.62255	0.55812	-0.487
Mof_O 	O 	0.36254	0.72666	0.55211	-0.487
Mof_O 	O 	0.36267	0.70561	0.58841	-0.458
Mof_O 	O 	0.45932	0.59164	0.2433	-0.507
Mof_O 	O 	0.43654	0.55664	0.24781	-0.496
Mof_O 	O 	0.54881	0.59218	0.24678	-0.493
Mof_O 	O 	0.57135	0.55622	0.25155	-0.485
Mof_O 	O 	0.40179	0.60757	0.243	-0.924
Mof_O 	O 	0.25088	0.60599	0.39306	-0.948
Mof_C 	C 	0.2383	0.6242	0.33172	0.392
Mof_C 	C 	0.2317	0.6233	0.30378	-0.088
Mof_C 	C 	0.2062	0.6242	0.29671	0.03
Mof_H 	H 	0.1933	0.6258	0.3093	0.055
Mof_C 	C 	0.19974	0.6227	0.27135	-0.084
Mof_C 	C 	0.17182	0.6222	0.2649	0.369
Mof_C 	C 	0.2186	0.6211	0.25301	-0.015
Mof_H 	H 	0.214	0.6204	0.2356	0.053
Mof_C 	C 	0.25042	0.6212	0.28524	-0.014
Mof_H 	H 	0.2677	0.6201	0.2902	0.054
Mof_C 	C 	0.24427	0.6206	0.25966	0.006
Mof_C 	C 	0.26454	0.6195	0.2398	-0.005
Mof_C 	C 	0.25858	0.6181	0.21433	-0.002
Mof_H 	H 	0.2412	0.6179	0.2094	0.049
Mof_C 	C 	0.29045	0.6193	0.2459	-0.004
Mof_H 	H 	0.2955	0.6209	0.2632	0.049
Mof_C 	C 	0.30893	0.617	0.2273	-0.098
Mof_C 	C 	0.3368	0.6166	0.2337	0.373
Mof_C 	C 	0.3022	0.6155	0.2026	0.05
Mof_H 	H 	0.3149	0.6133	0.1899	0.042
Mof_C 	C 	0.27705	0.617	0.19569	-0.104
Mof_C 	C 	0.2701	0.6164	0.16802	0.391
Mof_C 	C 	0.30218	0.57547	0.35589	0.388
Mof_C 	C 	0.32238	0.56134	0.34154	-0.095
Mof_C 	C 	0.33891	0.57452	0.32584	0.043
Mof_H 	H 	0.3386	0.5926	0.3252	0.048
Mof_C 	C 	0.35589	0.56073	0.31099	-0.101
Mof_C 	C 	0.37251	0.57429	0.29229	0.401
Mof_C 	C 	0.35711	0.53454	0.31291	-0.006
Mof_H 	H 	0.3692	0.5254	0.3031	0.053
Mof_C 	C 	0.32334	0.53495	0.34303	-0.009
Mof_H 	H 	0.3118	0.5262	0.3538	0.053
Mof_C 	C 	0.3408	0.5215	0.32904	0.002
Mof_C 	C 	0.34241	0.49269	0.33082	-0.003
Mof_C 	C 	0.36021	0.479	0.31695	-0.003
Mof_H 	H 	0.3715	0.4878	0.3059	0.05
Mof_C 	C 	0.36181	0.45256	0.31887	-0.098
Mof_O 	O 	0.3883	0.41729	0.31034	-0.457
Mof_C 	C 	0.34543	0.43961	0.3347	0.05
Mof_H 	H 	0.347	0.4217	0.3368	0.037
Mof_C 	C 	0.3268	0.45289	0.3474	-0.101
Mof_C 	C 	0.3072	0.4388	0.362	0.38
Mof_C 	C 	0.3253	0.47876	0.3453	-0
Mof_H 	H 	0.3121	0.4875	0.354	0.049
Mof_C 	C 	0.2988	0.6295	0.431	0.385
Mof_C 	C 	0.3169	0.6467	0.4451	-0.091
Mof_C 	C 	0.3322	0.6631	0.43122	0.031
Mof_H 	H 	0.3332	0.6619	0.4132	0.047
Mof_C 	C 	0.346	0.6815	0.44433	-0.085
Mof_C 	C 	0.3605	0.7015	0.43015	0.363
Mof_C 	C 	0.3451	0.6821	0.47095	-0.015
Mof_H 	H 	0.3547	0.6946	0.4797	0.053
Mof_C 	C 	0.3162	0.64782	0.47182	-0.015
Mof_H 	H 	0.3055	0.6365	0.4809	0.053
Mof_C 	C 	0.3308	0.66499	0.48495	0.006
Mof_C 	C 	0.3303	0.66644	0.51376	-0.005
Mof_C 	C 	0.31577	0.64978	0.52835	-0.004
Mof_H 	H 	0.3059	0.6371	0.52	0.049
Mof_C 	C 	0.31528	0.65116	0.55464	-0.098
Mof_C 	C 	0.2978	0.63485	0.56979	0.382
Mof_C 	C 	0.32961	0.6692	0.56715	0.042
Mof_H 	H 	0.33	0.6698	0.5852	0.047
Mof_C 	C 	0.34361	0.68662	0.55246	-0.1
Mof_C 	C 	0.35741	0.70786	0.56586	0.406
Mof_C 	C 	0.3435	0.68532	0.52626	-0.003
Mof_H 	H 	0.3527	0.6976	0.5167	0.051
Mof_C 	C 	0.45696	0.56849	0.2463	0.42
Mof_C 	C 	0.48134	0.55376	0.2472	-0.114
Mof_C 	C 	0.50421	0.56686	0.2475	0.053
Mof_H 	H 	0.5044	0.5849	0.2466	0.047
Mof_C 	C 	0.52643	0.55368	0.249	-0.109
Mof_C 	C 	0.55069	0.56838	0.2492	0.387
Mof_C 	C 	0.52662	0.5275	0.25	-0.002
Mof_H 	H 	0.5423	0.5187	0.2514	0.049
Mof_C 	C 	0.50383	0.51402	0.249	-0.005
Mof_C 	C 	0.48118	0.5276	0.2484	0.001
Mof_H 	H 	0.4654	0.5188	0.2489	0.049
Mof_O 	O 	0.22082	0.63293	0.34533	-0.486
Mof_C 	C 	0.38005	0.43824	0.3022	0.387
Mof_Zn	Zn	0.78024	0.1211	0.87599	1.221
Mof_Zn	Zn	0.7228	0.12563	0.88053	1.216
Mof_Zn	Zn	0.75101	0.0721	0.87944	1.219
Mof_Zn	Zn	0.7502	0.10563	0.92958	1.22
Mof_Zn	Zn	0.88138	0.12687	0.76855	1.218
Mof_Zn	Zn	0.88776	0.11624	0.70935	1.22
Mof_Zn	Zn	0.90219	0.07145	0.74644	1.22
Mof_Zn	Zn	0.93576	0.12026	0.74368	1.22
Mof_O 	O 	0.75911	0.11698	0.83831	-0.462
Mof_O 	O 	0.6571	0.12977	0.78185	-0.47
Mof_O 	O 	0.66534	0.11533	0.74299	-0.412
Mof_O 	O 	0.84427	0.12396	0.75524	-0.444
Mof_O 	O 	0.85089	0.1069	0.7167	-0.459
Mof_O 	O 	0.74729	0.11354	0.66219	-0.478
Mof_O 	O 	0.7882	0.1204	0.65316	-0.478
Mof_O 	O 	0.8056	0.09898	0.85969	-0.46
Mof_O 	O 	0.78346	0.0629	0.86345	-0.487
Mof_O 	O 	0.87308	0.09793	0.79365	-0.463
Mof_O 	O 	0.88442	0.06061	0.7768	-0.487
Mof_O 	O 	0.88525	0.94754	0.78107	-0.472
Mof_O 	O 	0.813	0.91878	0.87288	-0.455
Mof_O 	O 	0.78477	0.9483	0.8607	-0.477
Mof_O 	O 	0.80306	0.12521	0.90851	-0.459
Mof_O 	O 	0.77931	0.12207	0.94362	-0.489
Mof_O 	O 	0.861	0.22343	0.94078	-0.485
Mof_O 	O 	0.86974	0.19645	0.90919	-0.41
Mof_O 	O 	0.80126	0.13562	0.09392	-0.479
Mof_O 	O 	0.78118	0.12255	0.05812	-0.487
Mof_O 	O 	0.86254	0.22666	0.05211	-0.487
Mof_O 	O 	0.86267	0.20561	0.08841	-0.458
Mof_O 	O 	0.95932	0.09164	0.7433	-0.507
Mof_O 	O 	0.93654	0.05664	0.74781	-0.496
Mof_O 	O 	0.04881	0.09218	0.74678	-0.493
Mof_O 	O 	0.07135	0.05622	0.75155	-0.485
Mof_O 	O 	0.90179	0.10757	0.743	-0.924
Mof_O 	O 	0.75088	0.10599	0.89306	-0.948
Mof_C 	C 	0.7383	0.1242	0.83172	0.392
Mof_C 	C 	0.7317	0.1233	0.80378	-0.088
Mof_C 	C 	0.7062	0.1242	0.79671	0.03
Mof_H 	H 	0.6933	0.1258	0.8093	0.055
Mof_C 	C 	0.69974	0.1227	0.77135	-0.084
Mof_C 	C 	0.67182	0.1222	0.7649	0.369
Mof_C 	C 	0.7186	0.1211	0.75301	-0.015
Mof_H 	H 	0.714	0.1204	0.7356	0.053
Mof_C 	C 	0.75042	0.1212	0.78524	-0.014
Mof_H 	H 	0.7677	0.1201	0.7902	0.054
Mof_C 	C 	0.74427	0.1206	0.75966	0.006
Mof_C 	C 	0.76454	0.1195	0.7398	-0.005
Mof_C 	C 	0.75858	0.1181	0.71433	-0.002
Mof_H 	H 	0.7412	0.1179	0.7094	0.049
Mof_C 	C 	0.79045	0.1193	0.7459	-0.004
Mof_H 	H 	0.7955	0.1209	0.7632	0.049
Mof_C 	C 	0.80893	0.117	0.7273	-0.098
Mof_C 	C 	0.8368	0.1166	0.7337	0.373
Mof_C 	C 	0.8022	0.1155	0.7026	0.05
Mof_H 	H 	0.8149	0.1133	0.6899	0.042
Mof_C 	C 	0.77705	0.117	0.69569	-0.104
Mof_C 	C 	0.7701	0.1164	0.66802	0.391
Mof_C 	C 	0.80218	0.07547	0.85589	0.388
Mof_C 	C 	0.82238	0.06134	0.84154	-0.095
Mof_C 	C 	0.83891	0.07452	0.82584	0.043
Mof_H 	H 	0.8386	0.0926	0.8252	0.048
Mof_C 	C 	0.85589	0.06073	0.81099	-0.101
Mof_C 	C 	0.87251	0.07429	0.79229	0.401
Mof_C 	C 	0.85711	0.03454	0.81291	-0.006
Mof_H 	H 	0.8692	0.0254	0.8031	0.053
Mof_C 	C 	0.82334	0.03495	0.84303	-0.009
Mof_H 	H 	0.8118	0.0262	0.8538	0.053
Mof_C 	C 	0.8408	0.0215	0.82904	0.002
Mof_C 	C 	0.84241	0.99269	0.83082	-0.003
Mof_C 	C 	0.86021	0.979	0.81695	-0.003
Mof_H 	H 	0.8715	0.9878	0.8059	0.05
Mof_C 	C 	0.86181	0.95256	0.81887	-0.098
Mof_O 	O 	0.8883	0.91729	0.81034	-0.457
Mof_C 	C 	0.84543	0.93961	0.8347	0.05
Mof_H 	H 	0.847	0.9217	0.8368	0.037
Mof_C 	C 	0.8268	0.95289	0.8474	-0.101
Mof_C 	C 	0.8072	0.9388	0.862	0.38
Mof_C 	C 	0.8253	0.97876	0.8453	-0
Mof_H 	H 	0.8121	0.9875	0.854	0.049
Mof_C 	C 	0.7988	0.1295	0.931	0.385
Mof_C 	C 	0.8169	0.1467	0.9451	-0.091
Mof_C 	C 	0.8322	0.1631	0.93122	0.031
Mof_H 	H 	0.8332	0.1619	0.9132	0.047
Mof_C 	C 	0.846	0.1815	0.94433	-0.085
Mof_C 	C 	0.8605	0.2015	0.93015	0.363
Mof_C 	C 	0.8451	0.1821	0.97095	-0.015
Mof_H 	H 	0.8547	0.1946	0.9797	0.053
Mof_C 	C 	0.8162	0.14782	0.97182	-0.015
Mof_H 	H 	0.8055	0.1365	0.9809	0.053
Mof_C 	C 	0.8308	0.16499	0.98495	0.006
Mof_C 	C 	0.8303	0.16644	0.01376	-0.005
Mof_C 	C 	0.81577	0.14978	0.02835	-0.004
Mof_H 	H 	0.8059	0.1371	0.02	0.049
Mof_C 	C 	0.81528	0.15116	0.05464	-0.098
Mof_C 	C 	0.7978	0.13485	0.06979	0.382
Mof_C 	C 	0.82961	0.1692	0.06715	0.042
Mof_H 	H 	0.83	0.1698	0.0852	0.047
Mof_C 	C 	0.84361	0.18662	0.05246	-0.1
Mof_C 	C 	0.85741	0.20786	0.06586	0.406
Mof_C 	C 	0.8435	0.18532	0.02626	-0.003
Mof_H 	H 	0.8527	0.1976	0.0167	0.051
Mof_C 	C 	0.95696	0.06849	0.7463	0.42
Mof_C 	C 	0.98134	0.05376	0.7472	-0.114
Mof_C 	C 	0.00421	0.06686	0.7475	0.053
Mof_H 	H 	0.0044	0.0849	0.7466	0.047
Mof_C 	C 	0.02643	0.05368	0.749	-0.109
Mof_C 	C 	0.05069	0.06838	0.7492	0.387
Mof_C 	C 	0.02662	0.0275	0.75	-0.002
Mof_H 	H 	0.0423	0.0187	0.7514	0.049
Mof_C 	C 	0.00383	0.01402	0.749	-0.005
Mof_C 	C 	0.98118	0.0276	0.7484	0.001
Mof_H 	H 	0.9654	0.0188	0.7489	0.049
Mof_O 	O 	0.72082	0.13293	0.84533	-0.486
Mof_C 	C 	0.88005	0.93824	0.8022	0.387
Mof_Zn	Zn	0.78024	0.8789	0.62401	1.221
Mof_Zn	Zn	0.7228	0.87437	0.61947	1.216
Mof_Zn	Zn	0.75101	0.9279	0.62056	1.219
Mof_Zn	Zn	0.7502	0.89437	0.57042	1.22
Mof_Zn	Zn	0.88138	0.87313	0.73145	1.218
Mof_Zn	Zn	0.88776	0.88376	0.79065	1.22
Mof_Zn	Zn	0.90219	0.92855	0.75356	1.22
Mof_Zn	Zn	0.93576	0.87974	0.75632	1.22
Mof_O 	O 	0.75911	0.88302	0.66169	-0.462
Mof_O 	O 	0.6571	0.87023	0.71815	-0.47
Mof_O 	O 	0.66534	0.88467	0.75701	-0.412
Mof_O 	O 	0.84427	0.87604	0.74476	-0.444
Mof_O 	O 	0.85089	0.8931	0.7833	-0.459
Mof_O 	O 	0.74729	0.88646	0.83781	-0.478
Mof_O 	O 	0.7882	0.8796	0.84684	-0.478
Mof_O 	O 	0.8056	0.90102	0.64031	-0.46
Mof_O 	O 	0.78346	0.9371	0.63655	-0.487
Mof_O 	O 	0.87308	0.90207	0.70635	-0.463
Mof_O 	O 	0.88442	0.93939	0.7232	-0.487
Mof_O 	O 	0.88525	0.05246	0.71893	-0.472
Mof_O 	O 	0.813	0.08122	0.62712	-0.455
Mof_O 	O 	0.78477	0.0517	0.6393	-0.477
Mof_O 	O 	0.80306	0.87479	0.59149	-0.459
Mof_O 	O 	0.77931	0.87793	0.55638	-0.489
Mof_O 	O 	0.861	0.77657	0.55922	-0.485
Mof_O 	O 	0.86974	0.80355	0.59081	-0.41
Mof_O 	O 	0.80126	0.86438	0.40608	-0.479
Mof_O 	O 	0.78118	0.87745	0.44188	-0.487
Mof_O 	O 	0.86254	0.77334	0.44789	-0.487
Mof_O 	O 	0.86267	0.79439	0.41159	-0.458
Mof_O 	O 	0.95932	0.90836	0.7567	-0.507
Mof_O 	O 	0.93654	0.94336	0.75219	-0.496
Mof_O 	O 	0.04881	0.90782	0.75322	-0.493
Mof_O 	O 	0.07135	0.94378	0.74845	-0.485
Mof_O 	O 	0.90179	0.89243	0.757	-0.924
Mof_O 	O 	0.75088	0.89401	0.60694	-0.948
Mof_C 	C 	0.7383	0.8758	0.66828	0.392
Mof_C 	C 	0.7317	0.8767	0.69622	-0.088
Mof_C 	C 	0.7062	0.8758	0.70329	0.03
Mof_H 	H 	0.6933	0.8742	0.6907	0.055
Mof_C 	C 	0.69974	0.8773	0.72865	-0.084
Mof_C 	C 	0.67182	0.8778	0.7351	0.369
Mof_C 	C 	0.7186	0.8789	0.74699	-0.015
Mof_H 	H 	0.714	0.8796	0.7644	0.053
Mof_C 	C 	0.75042	0.8788	0.71476	-0.014
Mof_H 	H 	0.7677	0.8799	0.7098	0.054
Mof_C 	C 	0.74427	0.8794	0.74034	0.006
Mof_C 	C 	0.76454	0.8805	0.7602	-0.005
Mof_C 	C 	0.75858	0.8819	0.78567	-0.002
Mof_H 	H 	0.7412	0.8821	0.7906	0.049
Mof_C 	C 	0.79045	0.8807	0.7541	-0.004
Mof_H 	H 	0.7955	0.8791	0.7368	0.049
Mof_C 	C 	0.80893	0.883	0.7727	-0.098
Mof_C 	C 	0.8368	0.8834	0.7663	0.373
Mof_C 	C 	0.8022	0.8845	0.7974	0.05
Mof_H 	H 	0.8149	0.8867	0.8101	0.042
Mof_C 	C 	0.77705	0.883	0.80431	-0.104
Mof_C 	C 	0.7701	0.8836	0.83198	0.391
Mof_C 	C 	0.80218	0.92453	0.64411	0.388
Mof_C 	C 	0.82238	0.93866	0.65846	-0.095
Mof_C 	C 	0.83891	0.92548	0.67416	0.043
Mof_H 	H 	0.8386	0.9074	0.6748	0.048
Mof_C 	C 	0.85589	0.93927	0.68901	-0.101
Mof_C 	C 	0.87251	0.92571	0.70771	0.401
Mof_C 	C 	0.85711	0.96546	0.68709	-0.006
Mof_H 	H 	0.8692	0.9746	0.6969	0.053
Mof_C 	C 	0.82334	0.96505	0.65697	-0.009
Mof_H 	H 	0.8118	0.9738	0.6462	0.053
Mof_C 	C 	0.8408	0.9785	0.67096	0.002
Mof_C 	C 	0.84241	0.00731	0.66918	-0.003
Mof_C 	C 	0.86021	0.021	0.68305	-0.003
Mof_H 	H 	0.8715	0.0122	0.6941	0.05
Mof_C 	C 	0.86181	0.04744	0.68113	-0.098
Mof_O 	O 	0.8883	0.08271	0.68966	-0.457
Mof_C 	C 	0.84543	0.06039	0.6653	0.05
Mof_H 	H 	0.847	0.0783	0.6632	0.037
Mof_C 	C 	0.8268	0.04711	0.6526	-0.101
Mof_C 	C 	0.8072	0.0612	0.638	0.38
Mof_C 	C 	0.8253	0.02124	0.6547	-0
Mof_H 	H 	0.8121	0.0125	0.646	0.049
Mof_C 	C 	0.7988	0.8705	0.569	0.385
Mof_C 	C 	0.8169	0.8533	0.5549	-0.091
Mof_C 	C 	0.8322	0.8369	0.56878	0.031
Mof_H 	H 	0.8332	0.8381	0.5868	0.047
Mof_C 	C 	0.846	0.8185	0.55567	-0.085
Mof_C 	C 	0.8605	0.7985	0.56985	0.363
Mof_C 	C 	0.8451	0.8179	0.52905	-0.015
Mof_H 	H 	0.8547	0.8054	0.5203	0.053
Mof_C 	C 	0.8162	0.85218	0.52818	-0.015
Mof_H 	H 	0.8055	0.8635	0.5191	0.053
Mof_C 	C 	0.8308	0.83501	0.51505	0.006
Mof_C 	C 	0.8303	0.83356	0.48624	-0.005
Mof_C 	C 	0.81577	0.85022	0.47165	-0.004
Mof_H 	H 	0.8059	0.8629	0.48	0.049
Mof_C 	C 	0.81528	0.84884	0.44536	-0.098
Mof_C 	C 	0.7978	0.86515	0.43021	0.382
Mof_C 	C 	0.82961	0.8308	0.43285	0.042
Mof_H 	H 	0.83	0.8302	0.4148	0.047
Mof_C 	C 	0.84361	0.81338	0.44754	-0.1
Mof_C 	C 	0.85741	0.79214	0.43414	0.406
Mof_C 	C 	0.8435	0.81468	0.47374	-0.003
Mof_H 	H 	0.8527	0.8024	0.4833	0.051
Mof_C 	C 	0.95696	0.93151	0.7537	0.42
Mof_C 	C 	0.98134	0.94624	0.7528	-0.114
Mof_C 	C 	0.00421	0.93314	0.7525	0.053
Mof_H 	H 	0.0044	0.9151	0.7534	0.047
Mof_C 	C 	0.02643	0.94632	0.751	-0.109
Mof_C 	C 	0.05069	0.93162	0.7508	0.387
Mof_C 	C 	0.02662	0.9725	0.75	-0.002
Mof_H 	H 	0.0423	0.9813	0.7486	0.049
Mof_C 	C 	0.00383	0.98598	0.751	-0.005
Mof_C 	C 	0.98118	0.9724	0.7516	0.001
Mof_H 	H 	0.9654	0.9812	0.7511	0.049
Mof_O 	O 	0.72082	0.86707	0.65467	-0.486
Mof_C 	C 	0.88005	0.06176	0.6978	0.387
Mof_Zn	Zn	0.28024	0.3789	0.12401	1.221
Mof_Zn	Zn	0.2228	0.37437	0.11947	1.216
Mof_Zn	Zn	0.25101	0.4279	0.12056	1.219
Mof_Zn	Zn	0.2502	0.39437	0.07042	1.22
Mof_Zn	Zn	0.38138	0.37313	0.23145	1.218
Mof_Zn	Zn	0.38776	0.38376	0.29065	1.22
Mof_Zn	Zn	0.40219	0.42855	0.25356	1.22
Mof_Zn	Zn	0.43576	0.37974	0.25632	1.22
Mof_O 	O 	0.25911	0.38302	0.16169	-0.462
Mof_O 	O 	0.1571	0.37023	0.21815	-0.47
Mof_O 	O 	0.16534	0.38467	0.25701	-0.412
Mof_O 	O 	0.34427	0.37604	0.24476	-0.444
Mof_O 	O 	0.35089	0.3931	0.2833	-0.459
Mof_O 	O 	0.24729	0.38646	0.33781	-0.478
Mof_O 	O 	0.2882	0.3796	0.34684	-0.478
Mof_O 	O 	0.3056	0.40102	0.14031	-0.46
Mof_O 	O 	0.28346	0.4371	0.13655	-0.487
Mof_O 	O 	0.37308	0.40207	0.20635	-0.463
Mof_O 	O 	0.38442	0.43939	0.2232	-0.487
Mof_O 	O 	0.38525	0.55246	0.21893	-0.472
Mof_O 	O 	0.313	0.58122	0.12712	-0.455
Mof_O 	O 	0.28477	0.5517	0.1393	-0.477
Mof_O 	O 	0.30306	0.37479	0.09149	-0.459
Mof_O 	O 	0.27931	0.37793	0.05638	-0.489
Mof_O 	O 	0.361	0.27657	0.05922	-0.485
Mof_O 	O 	0.36974	0.30355	0.09081	-0.41
Mof_O 	O 	0.30126	0.36438	0.90608	-0.479
Mof_O 	O 	0.28118	0.37745	0.94188	-0.487
Mof_O 	O 	0.36254	0.27334	0.94789	-0.487
Mof_O 	O 	0.36267	0.29439	0.91159	-0.458
Mof_O 	O 	0.45932	0.40836	0.2567	-0.507
Mof_O 	O 	0.43654	0.44336	0.25219	-0.496
Mof_O 	O 	0.54881	0.40782	0.25322	-0.493
Mof_O 	O 	0.57135	0.44378	0.24845	-0.485
Mof_O 	O 	0.40179	0.39243	0.257	-0.924
Mof_O 	O 	0.25088	0.39401	0.10694	-0.948
Mof_C 	C 	0.2383	0.3758	0.16828	0.392
Mof_C 	C 	0.2317	0.3767	0.19622	-0.088
Mof_C 	C 	0.2062	0.3758	0.20329	0.03
Mof_H 	H 	0.1933	0.3742	0.1907	0.055
Mof_C 	C 	0.19974	0.3773	0.22865	-0.084
Mof_C 	C 	0.17182	0.3778	0.2351	0.369
Mof_C 	C 	0.2186	0.3789	0.24699	-0.015
Mof_H 	H 	0.214	0.3796	0.2644	0.053
Mof_C 	C 	0.25042	0.3788	0.21476	-0.014
Mof_H 	H 	0.2677	0.3799	0.2098	0.054
Mof_C 	C 	0.24427	0.3794	0.24034	0.006
Mof_C 	C 	0.26454	0.3805	0.2602	-0.005
Mof_C 	C 	0.25858	0.3819	0.28567	-0.002
Mof_H 	H 	0.2412	0.3821	0.2906	0.049
Mof_C 	C 	0.29045	0.3807	0.2541	-0.004
Mof_H 	H 	0.2955	0.3791	0.2368	0.049
Mof_C 	C 	0.30893	0.383	0.2727	-0.098
Mof_C 	C 	0.3368	0.3834	0.2663	0.373
Mof_C 	C 	0.3022	0.3845	0.2974	0.05
Mof_H 	H 	0.3149	0.3867	0.3101	0.042
Mof_C 	C 	0.27705	0.383	0.30431	-0.104
Mof_C 	C 	0.2701	0.3836	0.33198	0.391
Mof_C 	C 	0.30218	0.42453	0.14411	0.388
Mof_C 	C 	0.32238	0.43866	0.15846	-0.095
Mof_C 	C 	0.33891	0.42548	0.17416	0.043
Mof_H 	H 	0.3386	0.4074	0.1748	0.048
Mof_C 	C 	0.35589	0.43927	0.18901	-0.101
Mof_C 	C 	0.37251	0.42571	0.20771	0.401
Mof_C 	C 	0.35711	0.46546	0.18709	-0.006
Mof_H 	H 	0.3692	0.4746	0.1969	0.053
Mof_C 	C 	0.32334	0.46505	0.15697	-0.009
Mof_H 	H 	0.3118	0.4738	0.1462	0.053
Mof_C 	C 	0.3408	0.4785	0.17096	0.002
Mof_C 	C 	0.34241	0.50731	0.16918	-0.003
Mof_C 	C 	0.36021	0.521	0.18305	-0.003
Mof_H 	H 	0.3715	0.5122	0.1941	0.05
Mof_C 	C 	0.36181	0.54744	0.18113	-0.098
Mof_O 	O 	0.3883	0.58271	0.18966	-0.457
Mof_C 	C 	0.34543	0.56039	0.1653	0.05
Mof_H 	H 	0.347	0.5783	0.1632	0.037
Mof_C 	C 	0.3268	0.54711	0.1526	-0.101
Mof_C 	C 	0.3072	0.5612	0.138	0.38
Mof_C 	C 	0.3253	0.52124	0.1547	-0
Mof_H 	H 	0.3121	0.5125	0.146	0.049
Mof_C 	C 	0.2988	0.3705	0.069	0.385
Mof_C 	C 	0.3169	0.3533	0.0549	-0.091
Mof_C 	C 	0.3322	0.3369	0.06878	0.031
Mof_H 	H 	0.3332	0.3381	0.0868	0.047
Mof_C 	C 	0.346	0.3185	0.05567	-0.085
Mof_C 	C 	0.3605	0.2985	0.06985	0.363
Mof_C 	C 	0.3451	0.3179	0.02905	-0.015
Mof_H 	H 	0.3547	0.3054	0.0203	0.053
Mof_C 	C 	0.3162	0.35218	0.02818	-0.015
Mof_H 	H 	0.3055	0.3635	0.0191	0.053
Mof_C 	C 	0.3308	0.33501	0.01505	0.006
Mof_C 	C 	0.3303	0.33356	0.98624	-0.005
Mof_C 	C 	0.31577	0.35022	0.97165	-0.004
Mof_H 	H 	0.3059	0.3629	0.98	0.049
Mof_C 	C 	0.31528	0.34884	0.94536	-0.098
Mof_C 	C 	0.2978	0.36515	0.93021	0.382
Mof_C 	C 	0.32961	0.3308	0.93285	0.042
Mof_H 	H 	0.33	0.3302	0.9148	0.047
Mof_C 	C 	0.34361	0.31338	0.94754	-0.1
Mof_C 	C 	0.35741	0.29214	0.93414	0.406
Mof_C 	C 	0.3435	0.31468	0.97374	-0.003
Mof_H 	H 	0.3527	0.3024	0.9833	0.051
Mof_C 	C 	0.45696	0.43151	0.2537	0.42
Mof_C 	C 	0.48134	0.44624	0.2528	-0.114
Mof_C 	C 	0.50421	0.43314	0.2525	0.053
Mof_H 	H 	0.5044	0.4151	0.2534	0.047
Mof_C 	C 	0.52643	0.44632	0.251	-0.109
Mof_C 	C 	0.55069	0.43162	0.2508	0.387
Mof_C 	C 	0.52662	0.4725	0.25	-0.002
Mof_H 	H 	0.5423	0.4813	0.2486	0.049
Mof_C 	C 	0.50383	0.48598	0.251	-0.005
Mof_C 	C 	0.48118	0.4724	0.2516	0.001
Mof_H 	H 	0.4654	0.4812	0.2511	0.049
Mof_O 	O 	0.22082	0.36707	0.15467	-0.486
Mof_C 	C 	0.38005	0.56176	0.1978	0.387
Mof_Zn	Zn	0.71976	0.1211	0.12401	1.221
Mof_Zn	Zn	0.7772	0.12563	0.11947	1.216
Mof_Zn	Zn	0.74899	0.0721	0.12056	1.219
Mof_Zn	Zn	0.7498	0.10563	0.07042	1.22
Mof_Zn	Zn	0.61862	0.12687	0.23145	1.218
Mof_Zn	Zn	0.61224	0.11624	0.29065	1.22
Mof_Zn	Zn	0.59781	0.07145	0.25356	1.22
Mof_Zn	Zn	0.56424	0.12026	0.25632	1.22
Mof_O 	O 	0.74089	0.11698	0.16169	-0.462
Mof_O 	O 	0.8429	0.12977	0.21815	-0.47
Mof_O 	O 	0.83466	0.11533	0.25701	-0.412
Mof_O 	O 	0.65573	0.12396	0.24476	-0.444
Mof_O 	O 	0.64911	0.1069	0.2833	-0.459
Mof_O 	O 	0.75271	0.11354	0.33781	-0.478
Mof_O 	O 	0.7118	0.1204	0.34684	-0.478
Mof_O 	O 	0.6944	0.09898	0.14031	-0.46
Mof_O 	O 	0.71654	0.0629	0.13655	-0.487
Mof_O 	O 	0.62692	0.09793	0.20635	-0.463
Mof_O 	O 	0.61558	0.06061	0.2232	-0.487
Mof_O 	O 	0.61475	0.94754	0.21893	-0.472
Mof_O 	O 	0.687	0.91878	0.12712	-0.455
Mof_O 	O 	0.71523	0.9483	0.1393	-0.477
Mof_O 	O 	0.69694	0.12521	0.09149	-0.459
Mof_O 	O 	0.72069	0.12207	0.05638	-0.489
Mof_O 	O 	0.639	0.22343	0.05922	-0.485
Mof_O 	O 	0.63026	0.19645	0.09081	-0.41
Mof_O 	O 	0.69874	0.13562	0.90608	-0.479
Mof_O 	O 	0.71882	0.12255	0.94188	-0.487
Mof_O 	O 	0.63746	0.22666	0.94789	-0.487
Mof_O 	O 	0.63733	0.20561	0.91159	-0.458
Mof_O 	O 	0.54068	0.09164	0.2567	-0.507
Mof_O 	O 	0.56346	0.05664	0.25219	-0.496
Mof_O 	O 	0.45119	0.09218	0.25322	-0.493
Mof_O 	O 	0.42865	0.05622	0.24845	-0.485
Mof_O 	O 	0.59821	0.10757	0.257	-0.924
Mof_O 	O 	0.74912	0.10599	0.10694	-0.948
Mof_C 	C 	0.7617	0.1242	0.16828	0.392
Mof_C 	C 	0.7683	0.1233	0.19622	-0.088
Mof_C 	C 	0.7938	0.1242	0.20329	0.03
Mof_H 	H 	0.8067	0.1258	0.1907	0.055
Mof_C 	C 	0.80026	0.1227	0.22865	-0.084
Mof_C 	C 	0.82818	0.1222	0.2351	0.369
Mof_C 	C 	0.7814	0.1211	0.24699	-0.015
Mof_H 	H 	0.786	0.1204	0.2644	0.053
Mof_C 	C 	0.74958	0.1212	0.21476	-0.014
Mof_H 	H 	0.7323	0.1201	0.2098	0.054
Mof_C 	C 	0.75573	0.1206	0.24034	0.006
Mof_C 	C 	0.73546	0.1195	0.2602	-0.005
Mof_C 	C 	0.74142	0.1181	0.28567	-0.002
Mof_H 	H 	0.7588	0.1179	0.2906	0.049
Mof_C 	C 	0.70955	0.1193	0.2541	-0.004
Mof_H 	H 	0.7045	0.1209	0.2368	0.049
Mof_C 	C 	0.69107	0.117	0.2727	-0.098
Mof_C 	C 	0.6632	0.1166	0.2663	0.373
Mof_C 	C 	0.6978	0.1155	0.2974	0.05
Mof_H 	H 	0.6851	0.1133	0.3101	0.042
Mof_C 	C 	0.72295	0.117	0.30431	-0.104
Mof_C 	C 	0.7299	0.1164	0.33198	0.391
Mof_C 	C 	0.69782	0.07547	0.14411	0.388
Mof_C 	C 	0.67762	0.06134	0.15846	-0.095
Mof_C 	C 	0.66109	0.07452	0.17416	0.043
Mof_H 	H 	0.6614	0.0926	0.1748	0.048
Mof_C 	C 	0.64411	0.06073	0.18901	-0.101
Mof_C 	C 	0.62749	0.07429	0.20771	0.401
Mof_C 	C 	0.64289	0.03454	0.18709	-0.006
Mof_H 	H 	0.6308	0.0254	0.1969	0.053
Mof_C 	C 	0.67666	0.03495	0.15697	-0.009
Mof_H 	H 	0.6882	0.0262	0.1462	0.053
Mof_C 	C 	0.6592	0.0215	0.17096	0.002
Mof_C 	C 	0.65759	0.99269	0.16918	-0.003
Mof_C 	C 	0.63979	0.979	0.18305	-0.003
Mof_H 	H 	0.6285	0.9878	0.1941	0.05
Mof_C 	C 	0.63819	0.95256	0.18113	-0.098
Mof_O 	O 	0.6117	0.91729	0.18966	-0.457
Mof_C 	C 	0.65457	0.93961	0.1653	0.05
Mof_H 	H 	0.653	0.9217	0.1632	0.037
Mof_C 	C 	0.6732	0.95289	0.1526	-0.101
Mof_C 	C 	0.6928	0.9388	0.138	0.38
Mof_C 	C 	0.6747	0.97876	0.1547	-0
Mof_H 	H 	0.6879	0.9875	0.146	0.049
Mof_C 	C 	0.7012	0.1295	0.069	0.385
Mof_C 	C 	0.6831	0.1467	0.0549	-0.091
Mof_C 	C 	0.6678	0.1631	0.06878	0.031
Mof_H 	H 	0.6668	0.1619	0.0868	0.047
Mof_C 	C 	0.654	0.1815	0.05567	-0.085
Mof_C 	C 	0.6395	0.2015	0.06985	0.363
Mof_C 	C 	0.6549	0.1821	0.02905	-0.015
Mof_H 	H 	0.6453	0.1946	0.0203	0.053
Mof_C 	C 	0.6838	0.14782	0.02818	-0.015
Mof_H 	H 	0.6945	0.1365	0.0191	0.053
Mof_C 	C 	0.6692	0.16499	0.01505	0.006
Mof_C 	C 	0.6697	0.16644	0.98624	-0.005
Mof_C 	C 	0.68423	0.14978	0.97165	-0.004
Mof_H 	H 	0.6941	0.1371	0.98	0.049
Mof_C 	C 	0.68472	0.15116	0.94536	-0.098
Mof_C 	C 	0.7022	0.13485	0.93021	0.382
Mof_C 	C 	0.67039	0.1692	0.93285	0.042
Mof_H 	H 	0.67	0.1698	0.9148	0.047
Mof_C 	C 	0.65639	0.18662	0.94754	-0.1
Mof_C 	C 	0.64259	0.20786	0.93414	0.406
Mof_C 	C 	0.6565	0.18532	0.97374	-0.003
Mof_H 	H 	0.6473	0.1976	0.9833	0.051
Mof_C 	C 	0.54304	0.06849	0.2537	0.42
Mof_C 	C 	0.51866	0.05376	0.2528	-0.114
Mof_C 	C 	0.49579	0.06686	0.2525	0.053
Mof_H 	H 	0.4956	0.0849	0.2534	0.047
Mof_C 	C 	0.47357	0.05368	0.251	-0.109
Mof_C 	C 	0.44931	0.06838	0.2508	0.387
Mof_C 	C 	0.47338	0.0275	0.25	-0.002
Mof_H 	H 	0.4577	0.0187	0.2486	0.049
Mof_C 	C 	0.49617	0.01402	0.251	-0.005
Mof_C 	C 	0.51882	0.0276	0.2516	0.001
Mof_H 	H 	0.5346	0.0188	0.2511	0.049
Mof_O 	O 	0.77918	0.13293	0.15467	-0.486
Mof_C 	C 	0.61995	0.93824	0.1978	0.387
Mof_Zn	Zn	0.21976	0.6211	0.62401	1.221
Mof_Zn	Zn	0.2772	0.62563	0.61947	1.216
Mof_Zn	Zn	0.24899	0.5721	0.62056	1.219
Mof_Zn	Zn	0.2498	0.60563	0.57042	1.22
Mof_Zn	Zn	0.11862	0.62687	0.73145	1.218
Mof_Zn	Zn	0.11224	0.61624	0.79065	1.22
Mof_Zn	Zn	0.09781	0.57145	0.75356	1.22
Mof_Zn	Zn	0.06424	0.62026	0.75632	1.22
Mof_O 	O 	0.24089	0.61698	0.66169	-0.462
Mof_O 	O 	0.3429	0.62977	0.71815	-0.47
Mof_O 	O 	0.33466	0.61533	0.75701	-0.412
Mof_O 	O 	0.15573	0.62396	0.74476	-0.444
Mof_O 	O 	0.14911	0.6069	0.7833	-0.459
Mof_O 	O 	0.25271	0.61354	0.83781	-0.478
Mof_O 	O 	0.2118	0.6204	0.84684	-0.478
Mof_O 	O 	0.1944	0.59898	0.64031	-0.46
Mof_O 	O 	0.21654	0.5629	0.63655	-0.487
Mof_O 	O 	0.12692	0.59793	0.70635	-0.463
Mof_O 	O 	0.11558	0.56061	0.7232	-0.487
Mof_O 	O 	0.11475	0.44754	0.71893	-0.472
Mof_O 	O 	0.187	0.41878	0.62712	-0.455
Mof_O 	O 	0.21523	0.4483	0.6393	-0.477
Mof_O 	O 	0.19694	0.62521	0.59149	-0.459
Mof_O 	O 	0.22069	0.62207	0.55638	-0.489
Mof_O 	O 	0.139	0.72343	0.55922	-0.485
Mof_O 	O 	0.13026	0.69645	0.59081	-0.41
Mof_O 	O 	0.19874	0.63562	0.40608	-0.479
Mof_O 	O 	0.21882	0.62255	0.44188	-0.487
Mof_O 	O 	0.13746	0.72666	0.44789	-0.487
Mof_O 	O 	0.13733	0.70561	0.41159	-0.458
Mof_O 	O 	0.04068	0.59164	0.7567	-0.507
Mof_O 	O 	0.06346	0.55664	0.75219	-0.496
Mof_O 	O 	0.95119	0.59218	0.75322	-0.493
Mof_O 	O 	0.92865	0.55622	0.74845	-0.485
Mof_O 	O 	0.09821	0.60757	0.757	-0.924
Mof_O 	O 	0.24912	0.60599	0.60694	-0.948
Mof_C 	C 	0.2617	0.6242	0.66828	0.392
Mof_C 	C 	0.2683	0.6233	0.69622	-0.088
Mof_C 	C 	0.2938	0.6242	0.70329	0.03
Mof_H 	H 	0.3067	0.6258	0.6907	0.055
Mof_C 	C 	0.30026	0.6227	0.72865	-0.084
Mof_C 	C 	0.32818	0.6222	0.7351	0.369
Mof_C 	C 	0.2814	0.6211	0.74699	-0.015
Mof_H 	H 	0.286	0.6204	0.7644	0.053
Mof_C 	C 	0.24958	0.6212	0.71476	-0.014
Mof_H 	H 	0.2323	0.6201	0.7098	0.054
Mof_C 	C 	0.25573	0.6206	0.74034	0.006
Mof_C 	C 	0.23546	0.6195	0.7602	-0.005
Mof_C 	C 	0.24142	0.6181	0.78567	-0.002
Mof_H 	H 	0.2588	0.6179	0.7906	0.049
Mof_C 	C 	0.20955	0.6193	0.7541	-0.004
Mof_H 	H 	0.2045	0.6209	0.7368	0.049
Mof_C 	C 	0.19107	0.617	0.7727	-0.098
Mof_C 	C 	0.1632	0.6166	0.7663	0.373
Mof_C 	C 	0.1978	0.6155	0.7974	0.05
Mof_H 	H 	0.1851	0.6133	0.8101	0.042
Mof_C 	C 	0.22295	0.617	0.80431	-0.104
Mof_C 	C 	0.2299	0.6164	0.83198	0.391
Mof_C 	C 	0.19782	0.57547	0.64411	0.388
Mof_C 	C 	0.17762	0.56134	0.65846	-0.095
Mof_C 	C 	0.16109	0.57452	0.67416	0.043
Mof_H 	H 	0.1614	0.5926	0.6748	0.048
Mof_C 	C 	0.14411	0.56073	0.68901	-0.101
Mof_C 	C 	0.12749	0.57429	0.70771	0.401
Mof_C 	C 	0.14289	0.53454	0.68709	-0.006
Mof_H 	H 	0.1308	0.5254	0.6969	0.053
Mof_C 	C 	0.17666	0.53495	0.65697	-0.009
Mof_H 	H 	0.1882	0.5262	0.6462	0.053
Mof_C 	C 	0.1592	0.5215	0.67096	0.002
Mof_C 	C 	0.15759	0.49269	0.66918	-0.003
Mof_C 	C 	0.13979	0.479	0.68305	-0.003
Mof_H 	H 	0.1285	0.4878	0.6941	0.05
Mof_C 	C 	0.13819	0.45256	0.68113	-0.098
Mof_O 	O 	0.1117	0.41729	0.68966	-0.457
Mof_C 	C 	0.15457	0.43961	0.6653	0.05
Mof_H 	H 	0.153	0.4217	0.6632	0.037
Mof_C 	C 	0.1732	0.45289	0.6526	-0.101
Mof_C 	C 	0.1928	0.4388	0.638	0.38
Mof_C 	C 	0.1747	0.47876	0.6547	-0
Mof_H 	H 	0.1879	0.4875	0.646	0.049
Mof_C 	C 	0.2012	0.6295	0.569	0.385
Mof_C 	C 	0.1831	0.6467	0.5549	-0.091
Mof_C 	C 	0.1678	0.6631	0.56878	0.031
Mof_H 	H 	0.1668	0.6619	0.5868	0.047
Mof_C 	C 	0.154	0.6815	0.55567	-0.085
Mof_C 	C 	0.1395	0.7015	0.56985	0.363
Mof_C 	C 	0.1549	0.6821	0.52905	-0.015
Mof_H 	H 	0.1453	0.6946	0.5203	0.053
Mof_C 	C 	0.1838	0.64782	0.52818	-0.015
Mof_H 	H 	0.1945	0.6365	0.5191	0.053
Mof_C 	C 	0.1692	0.66499	0.51505	0.006
Mof_C 	C 	0.1697	0.66644	0.48624	-0.005
Mof_C 	C 	0.18423	0.64978	0.47165	-0.004
Mof_H 	H 	0.1941	0.6371	0.48	0.049
Mof_C 	C 	0.18472	0.65116	0.44536	-0.098
Mof_C 	C 	0.2022	0.63485	0.43021	0.382
Mof_C 	C 	0.17039	0.6692	0.43285	0.042
Mof_H 	H 	0.17	0.6698	0.4148	0.047
Mof_C 	C 	0.15639	0.68662	0.44754	-0.1
Mof_C 	C 	0.14259	0.70786	0.43414	0.406
Mof_C 	C 	0.1565	0.68532	0.47374	-0.003
Mof_H 	H 	0.1473	0.6976	0.4833	0.051
Mof_C 	C 	0.04304	0.56849	0.7537	0.42
Mof_C 	C 	0.01866	0.55376	0.7528	-0.114
Mof_C 	C 	0.99579	0.56686	0.7525	0.053
Mof_H 	H 	0.9956	0.5849	0.7534	0.047
Mof_C 	C 	0.97357	0.55368	0.751	-0.109
Mof_C 	C 	0.94931	0.56838	0.7508	0.387
Mof_C 	C 	0.97338	0.5275	0.75	-0.002
Mof_H 	H 	0.9577	0.5187	0.7486	0.049
Mof_C 	C 	0.99617	0.51402	0.751	-0.005
Mof_C 	C 	0.01882	0.5276	0.7516	0.001
Mof_H 	H 	0.0346	0.5188	0.7511	0.049
Mof_O 	O 	0.27918	0.63293	0.65467	-0.486
Mof_C 	C 	0.11995	0.43824	0.6978	0.387
Mof_Zn	Zn	0.87599	0.21976	0.3789	1.221
Mof_Zn	Zn	0.88053	0.2772	0.37437	1.216
Mof_Zn	Zn	0.87944	0.24899	0.4279	1.219
Mof_Zn	Zn	0.92958	0.2498	0.39437	1.22
Mof_Zn	Zn	0.76855	0.11862	0.37313	1.218
Mof_Zn	Zn	0.70935	0.11224	0.38376	1.22
Mof_Zn	Zn	0.74644	0.09781	0.42855	1.22
Mof_Zn	Zn	0.74368	0.06424	0.37974	1.22
Mof_O 	O 	0.83831	0.24089	0.38302	-0.462
Mof_O 	O 	0.78185	0.3429	0.37023	-0.47
Mof_O 	O 	0.74299	0.33466	0.38467	-0.412
Mof_O 	O 	0.75524	0.15573	0.37604	-0.444
Mof_O 	O 	0.7167	0.14911	0.3931	-0.459
Mof_O 	O 	0.66219	0.25271	0.38646	-0.478
Mof_O 	O 	0.65316	0.2118	0.3796	-0.478
Mof_O 	O 	0.85969	0.1944	0.40102	-0.46
Mof_O 	O 	0.86345	0.21654	0.4371	-0.487
Mof_O 	O 	0.79365	0.12692	0.40207	-0.463
Mof_O 	O 	0.7768	0.11558	0.43939	-0.487
Mof_O 	O 	0.78107	0.11475	0.55246	-0.472
Mof_O 	O 	0.87288	0.187	0.58122	-0.455
Mof_O 	O 	0.8607	0.21523	0.5517	-0.477
Mof_O 	O 	0.90851	0.19694	0.37479	-0.459
Mof_O 	O 	0.94362	0.22069	0.37793	-0.489
Mof_O 	O 	0.94078	0.139	0.27657	-0.485
Mof_O 	O 	0.90919	0.13026	0.30355	-0.41
Mof_O 	O 	0.09392	0.19874	0.36438	-0.479
Mof_O 	O 	0.05812	0.21882	0.37745	-0.487
Mof_O 	O 	0.05211	0.13746	0.27334	-0.487
Mof_O 	O 	0.08841	0.13733	0.29439	-0.458
Mof_O 	O 	0.7433	0.04068	0.40836	-0.507
Mof_O 	O 	0.74781	0.06346	0.44336	-0.496
Mof_O 	O 	0.74678	0.95119	0.40782	-0.493
Mof_O 	O 	0.75155	0.92865	0.44378	-0.485
Mof_O 	O 	0.743	0.09821	0.39243	-0.924
Mof_O 	O 	0.89306	0.24912	0.39401	-0.948
Mof_C 	C 	0.83172	0.2617	0.3758	0.392
Mof_C 	C 	0.80378	0.2683	0.3767	-0.088
Mof_C 	C 	0.79671	0.2938	0.3758	0.03
Mof_H 	H 	0.8093	0.3067	0.3742	0.055
Mof_C 	C 	0.77135	0.30026	0.3773	-0.084
Mof_C 	C 	0.7649	0.32818	0.3778	0.369
Mof_C 	C 	0.75301	0.2814	0.3789	-0.015
Mof_H 	H 	0.7356	0.286	0.3796	0.053
Mof_C 	C 	0.78524	0.24958	0.3788	-0.014
Mof_H 	H 	0.7902	0.2323	0.3799	0.054
Mof_C 	C 	0.75966	0.25573	0.3794	0.006
Mof_C 	C 	0.7398	0.23546	0.3805	-0.005
Mof_C 	C 	0.71433	0.24142	0.3819	-0.002
Mof_H 	H 	0.7094	0.2588	0.3821	0.049
Mof_C 	C 	0.7459	0.20955	0.3807	-0.004
Mof_H 	H 	0.7632	0.2045	0.3791	0.049
Mof_C 	C 	0.7273	0.19107	0.383	-0.098
Mof_C 	C 	0.7337	0.1632	0.3834	0.373
Mof_C 	C 	0.7026	0.1978	0.3845	0.05
Mof_H 	H 	0.6899	0.1851	0.3867	0.042
Mof_C 	C 	0.69569	0.22295	0.383	-0.104
Mof_C 	C 	0.66802	0.2299	0.3836	0.391
Mof_C 	C 	0.85589	0.19782	0.42453	0.388
Mof_C 	C 	0.84154	0.17762	0.43866	-0.095
Mof_C 	C 	0.82584	0.16109	0.42548	0.043
Mof_H 	H 	0.8252	0.1614	0.4074	0.048
Mof_C 	C 	0.81099	0.14411	0.43927	-0.101
Mof_C 	C 	0.79229	0.12749	0.42571	0.401
Mof_C 	C 	0.81291	0.14289	0.46546	-0.006
Mof_H 	H 	0.8031	0.1308	0.4746	0.053
Mof_C 	C 	0.84303	0.17666	0.46505	-0.009
Mof_H 	H 	0.8538	0.1882	0.4738	0.053
Mof_C 	C 	0.82904	0.1592	0.4785	0.002
Mof_C 	C 	0.83082	0.15759	0.50731	-0.003
Mof_C 	C 	0.81695	0.13979	0.521	-0.003
Mof_H 	H 	0.8059	0.1285	0.5122	0.05
Mof_C 	C 	0.81887	0.13819	0.54744	-0.098
Mof_O 	O 	0.81034	0.1117	0.58271	-0.457
Mof_C 	C 	0.8347	0.15457	0.56039	0.05
Mof_H 	H 	0.8368	0.153	0.5783	0.037
Mof_C 	C 	0.8474	0.1732	0.54711	-0.101
Mof_C 	C 	0.862	0.1928	0.5612	0.38
Mof_C 	C 	0.8453	0.1747	0.52124	-0
Mof_H 	H 	0.854	0.1879	0.5125	0.049
Mof_C 	C 	0.931	0.2012	0.3705	0.385
Mof_C 	C 	0.9451	0.1831	0.3533	-0.091
Mof_C 	C 	0.93122	0.1678	0.3369	0.031
Mof_H 	H 	0.9132	0.1668	0.3381	0.047
Mof_C 	C 	0.94433	0.154	0.3185	-0.085
Mof_C 	C 	0.93015	0.1395	0.2985	0.363
Mof_C 	C 	0.97095	0.1549	0.3179	-0.015
Mof_H 	H 	0.9797	0.1453	0.3054	0.053
Mof_C 	C 	0.97182	0.1838	0.35218	-0.015
Mof_H 	H 	0.9809	0.1945	0.3635	0.053
Mof_C 	C 	0.98495	0.1692	0.33501	0.006
Mof_C 	C 	0.01376	0.1697	0.33356	-0.005
Mof_C 	C 	0.02835	0.18423	0.35022	-0.004
Mof_H 	H 	0.02	0.1941	0.3629	0.049
Mof_C 	C 	0.05464	0.18472	0.34884	-0.098
Mof_C 	C 	0.06979	0.2022	0.36515	0.382
Mof_C 	C 	0.06715	0.17039	0.3308	0.042
Mof_H 	H 	0.0852	0.17	0.3302	0.047
Mof_C 	C 	0.05246	0.15639	0.31338	-0.1
Mof_C 	C 	0.06586	0.14259	0.29214	0.406
Mof_C 	C 	0.02626	0.1565	0.31468	-0.003
Mof_H 	H 	0.0167	0.1473	0.3024	0.051
Mof_C 	C 	0.7463	0.04304	0.43151	0.42
Mof_C 	C 	0.7472	0.01866	0.44624	-0.114
Mof_C 	C 	0.7475	0.99579	0.43314	0.053
Mof_H 	H 	0.7466	0.9956	0.4151	0.047
Mof_C 	C 	0.749	0.97357	0.44632	-0.109
Mof_C 	C 	0.7492	0.94931	0.43162	0.387
Mof_C 	C 	0.75	0.97338	0.4725	-0.002
Mof_H 	H 	0.7514	0.9577	0.4813	0.049
Mof_C 	C 	0.749	0.99617	0.48598	-0.005
Mof_C 	C 	0.7484	0.01882	0.4724	0.001
Mof_H 	H 	0.7489	0.0346	0.4812	0.049
Mof_O 	O 	0.84533	0.27918	0.36707	-0.486
Mof_C 	C 	0.8022	0.11995	0.56176	0.387
Mof_Zn	Zn	0.37599	0.71976	0.8789	1.221
Mof_Zn	Zn	0.38053	0.7772	0.87437	1.216
Mof_Zn	Zn	0.37944	0.74899	0.9279	1.219
Mof_Zn	Zn	0.42958	0.7498	0.89437	1.22
Mof_Zn	Zn	0.26855	0.61862	0.87313	1.218
Mof_Zn	Zn	0.20935	0.61224	0.88376	1.22
Mof_Zn	Zn	0.24644	0.59781	0.92855	1.22
Mof_Zn	Zn	0.24368	0.56424	0.87974	1.22
Mof_O 	O 	0.33831	0.74089	0.88302	-0.462
Mof_O 	O 	0.28185	0.8429	0.87023	-0.47
Mof_O 	O 	0.24299	0.83466	0.88467	-0.412
Mof_O 	O 	0.25524	0.65573	0.87604	-0.444
Mof_O 	O 	0.2167	0.64911	0.8931	-0.459
Mof_O 	O 	0.16219	0.75271	0.88646	-0.478
Mof_O 	O 	0.15316	0.7118	0.8796	-0.478
Mof_O 	O 	0.35969	0.6944	0.90102	-0.46
Mof_O 	O 	0.36345	0.71654	0.9371	-0.487
Mof_O 	O 	0.29365	0.62692	0.90207	-0.463
Mof_O 	O 	0.2768	0.61558	0.93939	-0.487
Mof_O 	O 	0.28107	0.61475	0.05246	-0.472
Mof_O 	O 	0.37288	0.687	0.08122	-0.455
Mof_O 	O 	0.3607	0.71523	0.0517	-0.477
Mof_O 	O 	0.40851	0.69694	0.87479	-0.459
Mof_O 	O 	0.44362	0.72069	0.87793	-0.489
Mof_O 	O 	0.44078	0.639	0.77657	-0.485
Mof_O 	O 	0.40919	0.63026	0.80355	-0.41
Mof_O 	O 	0.59392	0.69874	0.86438	-0.479
Mof_O 	O 	0.55812	0.71882	0.87745	-0.487
Mof_O 	O 	0.55211	0.63746	0.77334	-0.487
Mof_O 	O 	0.58841	0.63733	0.79439	-0.458
Mof_O 	O 	0.2433	0.54068	0.90836	-0.507
Mof_O 	O 	0.24781	0.56346	0.94336	-0.496
Mof_O 	O 	0.24678	0.45119	0.90782	-0.493
Mof_O 	O 	0.25155	0.42865	0.94378	-0.485
Mof_O 	O 	0.243	0.59821	0.89243	-0.924
Mof_O 	O 	0.39306	0.74912	0.89401	-0.948
Mof_C 	C 	0.33172	0.7617	0.8758	0.392
Mof_C 	C 	0.30378	0.7683	0.8767	-0.088
Mof_C 	C 	0.29671	0.7938	0.8758	0.03
Mof_H 	H 	0.3093	0.8067	0.8742	0.055
Mof_C 	C 	0.27135	0.80026	0.8773	-0.084
Mof_C 	C 	0.2649	0.82818	0.8778	0.369
Mof_C 	C 	0.25301	0.7814	0.8789	-0.015
Mof_H 	H 	0.2356	0.786	0.8796	0.053
Mof_C 	C 	0.28524	0.74958	0.8788	-0.014
Mof_H 	H 	0.2902	0.7323	0.8799	0.054
Mof_C 	C 	0.25966	0.75573	0.8794	0.006
Mof_C 	C 	0.2398	0.73546	0.8805	-0.005
Mof_C 	C 	0.21433	0.74142	0.8819	-0.002
Mof_H 	H 	0.2094	0.7588	0.8821	0.049
Mof_C 	C 	0.2459	0.70955	0.8807	-0.004
Mof_H 	H 	0.2632	0.7045	0.8791	0.049
Mof_C 	C 	0.2273	0.69107	0.883	-0.098
Mof_C 	C 	0.2337	0.6632	0.8834	0.373
Mof_C 	C 	0.2026	0.6978	0.8845	0.05
Mof_H 	H 	0.1899	0.6851	0.8867	0.042
Mof_C 	C 	0.19569	0.72295	0.883	-0.104
Mof_C 	C 	0.16802	0.7299	0.8836	0.391
Mof_C 	C 	0.35589	0.69782	0.92453	0.388
Mof_C 	C 	0.34154	0.67762	0.93866	-0.095
Mof_C 	C 	0.32584	0.66109	0.92548	0.043
Mof_H 	H 	0.3252	0.6614	0.9074	0.048
Mof_C 	C 	0.31099	0.64411	0.93927	-0.101
Mof_C 	C 	0.29229	0.62749	0.92571	0.401
Mof_C 	C 	0.31291	0.64289	0.96546	-0.006
Mof_H 	H 	0.3031	0.6308	0.9746	0.053
Mof_C 	C 	0.34303	0.67666	0.96505	-0.009
Mof_H 	H 	0.3538	0.6882	0.9738	0.053
Mof_C 	C 	0.32904	0.6592	0.9785	0.002
Mof_C 	C 	0.33082	0.65759	0.00731	-0.003
Mof_C 	C 	0.31695	0.63979	0.021	-0.003
Mof_H 	H 	0.3059	0.6285	0.0122	0.05
Mof_C 	C 	0.31887	0.63819	0.04744	-0.098
Mof_O 	O 	0.31034	0.6117	0.08271	-0.457
Mof_C 	C 	0.3347	0.65457	0.06039	0.05
Mof_H 	H 	0.3368	0.653	0.0783	0.037
Mof_C 	C 	0.3474	0.6732	0.04711	-0.101
Mof_C 	C 	0.362	0.6928	0.0612	0.38
Mof_C 	C 	0.3453	0.6747	0.02124	-0
Mof_H 	H 	0.354	0.6879	0.0125	0.049
Mof_C 	C 	0.431	0.7012	0.8705	0.385
Mof_C 	C 	0.4451	0.6831	0.8533	-0.091
Mof_C 	C 	0.43122	0.6678	0.8369	0.031
Mof_H 	H 	0.4132	0.6668	0.8381	0.047
Mof_C 	C 	0.44433	0.654	0.8185	-0.085
Mof_C 	C 	0.43015	0.6395	0.7985	0.363
Mof_C 	C 	0.47095	0.6549	0.8179	-0.015
Mof_H 	H 	0.4797	0.6453	0.8054	0.053
Mof_C 	C 	0.47182	0.6838	0.85218	-0.015
Mof_H 	H 	0.4809	0.6945	0.8635	0.053
Mof_C 	C 	0.48495	0.6692	0.83501	0.006
Mof_C 	C 	0.51376	0.6697	0.83356	-0.005
Mof_C 	C 	0.52835	0.68423	0.85022	-0.004
Mof_H 	H 	0.52	0.6941	0.8629	0.049
Mof_C 	C 	0.55464	0.68472	0.84884	-0.098
Mof_C 	C 	0.56979	0.7022	0.86515	0.382
Mof_C 	C 	0.56715	0.67039	0.8308	0.042
Mof_H 	H 	0.5852	0.67	0.8302	0.047
Mof_C 	C 	0.55246	0.65639	0.81338	-0.1
Mof_C 	C 	0.56586	0.64259	0.79214	0.406
Mof_C 	C 	0.52626	0.6565	0.81468	-0.003
Mof_H 	H 	0.5167	0.6473	0.8024	0.051
Mof_C 	C 	0.2463	0.54304	0.93151	0.42
Mof_C 	C 	0.2472	0.51866	0.94624	-0.114
Mof_C 	C 	0.2475	0.49579	0.93314	0.053
Mof_H 	H 	0.2466	0.4956	0.9151	0.047
Mof_C 	C 	0.249	0.47357	0.94632	-0.109
Mof_C 	C 	0.2492	0.44931	0.93162	0.387
Mof_C 	C 	0.25	0.47338	0.9725	-0.002
Mof_H 	H 	0.2514	0.4577	0.9813	0.049
Mof_C 	C 	0.249	0.49617	0.98598	-0.005
Mof_C 	C 	0.2484	0.51882	0.9724	0.001
Mof_H 	H 	0.2489	0.5346	0.9812	0.049
Mof_O 	O 	0.34533	0.77918	0.86707	-0.486
Mof_C 	C 	0.3022	0.61995	0.06176	0.387
Mof_Zn	Zn	0.37599	0.28024	0.6211	1.221
Mof_Zn	Zn	0.38053	0.2228	0.62563	1.216
Mof_Zn	Zn	0.37944	0.25101	0.5721	1.219
Mof_Zn	Zn	0.42958	0.2502	0.60563	1.22
Mof_Zn	Zn	0.26855	0.38138	0.62687	1.218
Mof_Zn	Zn	0.20935	0.38776	0.61624	1.22
Mof_Zn	Zn	0.24644	0.40219	0.57145	1.22
Mof_Zn	Zn	0.24368	0.43576	0.62026	1.22
Mof_O 	O 	0.33831	0.25911	0.61698	-0.462
Mof_O 	O 	0.28185	0.1571	0.62977	-0.47
Mof_O 	O 	0.24299	0.16534	0.61533	-0.412
Mof_O 	O 	0.25524	0.34427	0.62396	-0.444
Mof_O 	O 	0.2167	0.35089	0.6069	-0.459
Mof_O 	O 	0.16219	0.24729	0.61354	-0.478
Mof_O 	O 	0.15316	0.2882	0.6204	-0.478
Mof_O 	O 	0.35969	0.3056	0.59898	-0.46
Mof_O 	O 	0.36345	0.28346	0.5629	-0.487
Mof_O 	O 	0.29365	0.37308	0.59793	-0.463
Mof_O 	O 	0.2768	0.38442	0.56061	-0.487
Mof_O 	O 	0.28107	0.38525	0.44754	-0.472
Mof_O 	O 	0.37288	0.313	0.41878	-0.455
Mof_O 	O 	0.3607	0.28477	0.4483	-0.477
Mof_O 	O 	0.40851	0.30306	0.62521	-0.459
Mof_O 	O 	0.44362	0.27931	0.62207	-0.489
Mof_O 	O 	0.44078	0.361	0.72343	-0.485
Mof_O 	O 	0.40919	0.36974	0.69645	-0.41
Mof_O 	O 	0.59392	0.30126	0.63562	-0.479
Mof_O 	O 	0.55812	0.28118	0.62255	-0.487
Mof_O 	O 	0.55211	0.36254	0.72666	-0.487
Mof_O 	O 	0.58841	0.36267	0.70561	-0.458
Mof_O 	O 	0.2433	0.45932	0.59164	-0.507
Mof_O 	O 	0.24781	0.43654	0.55664	-0.496
Mof_O 	O 	0.24678	0.54881	0.59218	-0.493
Mof_O 	O 	0.25155	0.57135	0.55622	-0.485
Mof_O 	O 	0.243	0.40179	0.60757	-0.924
Mof_O 	O 	0.39306	0.25088	0.60599	-0.948
Mof_C 	C 	0.33172	0.2383	0.6242	0.392
Mof_C 	C 	0.30378	0.2317	0.6233	-0.088
Mof_C 	C 	0.29671	0.2062	0.6242	0.03
Mof_H 	H 	0.3093	0.1933	0.6258	0.055
Mof_C 	C 	0.27135	0.19974	0.6227	-0.084
Mof_C 	C 	0.2649	0.17182	0.6222	0.369
Mof_C 	C 	0.25301	0.2186	0.6211	-0.015
Mof_H 	H 	0.2356	0.214	0.6204	0.053
Mof_C 	C 	0.28524	0.25042	0.6212	-0.014
Mof_H 	H 	0.2902	0.2677	0.6201	0.054
Mof_C 	C 	0.25966	0.24427	0.6206	0.006
Mof_C 	C 	0.2398	0.26454	0.6195	-0.005
Mof_C 	C 	0.21433	0.25858	0.6181	-0.002
Mof_H 	H 	0.2094	0.2412	0.6179	0.049
Mof_C 	C 	0.2459	0.29045	0.6193	-0.004
Mof_H 	H 	0.2632	0.2955	0.6209	0.049
Mof_C 	C 	0.2273	0.30893	0.617	-0.098
Mof_C 	C 	0.2337	0.3368	0.6166	0.373
Mof_C 	C 	0.2026	0.3022	0.6155	0.05
Mof_H 	H 	0.1899	0.3149	0.6133	0.042
Mof_C 	C 	0.19569	0.27705	0.617	-0.104
Mof_C 	C 	0.16802	0.2701	0.6164	0.391
Mof_C 	C 	0.35589	0.30218	0.57547	0.388
Mof_C 	C 	0.34154	0.32238	0.56134	-0.095
Mof_C 	C 	0.32584	0.33891	0.57452	0.043
Mof_H 	H 	0.3252	0.3386	0.5926	0.048
Mof_C 	C 	0.31099	0.35589	0.56073	-0.101
Mof_C 	C 	0.29229	0.37251	0.57429	0.401
Mof_C 	C 	0.31291	0.35711	0.53454	-0.006
Mof_H 	H 	0.3031	0.3692	0.5254	0.053
Mof_C 	C 	0.34303	0.32334	0.53495	-0.009
Mof_H 	H 	0.3538	0.3118	0.5262	0.053
Mof_C 	C 	0.32904	0.3408	0.5215	0.002
Mof_C 	C 	0.33082	0.34241	0.49269	-0.003
Mof_C 	C 	0.31695	0.36021	0.479	-0.003
Mof_H 	H 	0.3059	0.3715	0.4878	0.05
Mof_C 	C 	0.31887	0.36181	0.45256	-0.098
Mof_O 	O 	0.31034	0.3883	0.41729	-0.457
Mof_C 	C 	0.3347	0.34543	0.43961	0.05
Mof_H 	H 	0.3368	0.347	0.4217	0.037
Mof_C 	C 	0.3474	0.3268	0.45289	-0.101
Mof_C 	C 	0.362	0.3072	0.4388	0.38
Mof_C 	C 	0.3453	0.3253	0.47876	-0
Mof_H 	H 	0.354	0.3121	0.4875	0.049
Mof_C 	C 	0.431	0.2988	0.6295	0.385
Mof_C 	C 	0.4451	0.3169	0.6467	-0.091
Mof_C 	C 	0.43122	0.3322	0.6631	0.031
Mof_H 	H 	0.4132	0.3332	0.6619	0.047
Mof_C 	C 	0.44433	0.346	0.6815	-0.085
Mof_C 	C 	0.43015	0.3605	0.7015	0.363
Mof_C 	C 	0.47095	0.3451	0.6821	-0.015
Mof_H 	H 	0.4797	0.3547	0.6946	0.053
Mof_C 	C 	0.47182	0.3162	0.64782	-0.015
Mof_H 	H 	0.4809	0.3055	0.6365	0.053
Mof_C 	C 	0.48495	0.3308	0.66499	0.006
Mof_C 	C 	0.51376	0.3303	0.66644	-0.005
Mof_C 	C 	0.52835	0.31577	0.64978	-0.004
Mof_H 	H 	0.52	0.3059	0.6371	0.049
Mof_C 	C 	0.55464	0.31528	0.65116	-0.098
Mof_C 	C 	0.56979	0.2978	0.63485	0.382
Mof_C 	C 	0.56715	0.32961	0.6692	0.042
Mof_H 	H 	0.5852	0.33	0.6698	0.047
Mof_C 	C 	0.55246	0.34361	0.68662	-0.1
Mof_C 	C 	0.56586	0.35741	0.70786	0.406
Mof_C 	C 	0.52626	0.3435	0.68532	-0.003
Mof_H 	H 	0.5167	0.3527	0.6976	0.051
Mof_C 	C 	0.2463	0.45696	0.56849	0.42
Mof_C 	C 	0.2472	0.48134	0.55376	-0.114
Mof_C 	C 	0.2475	0.50421	0.56686	0.053
Mof_H 	H 	0.2466	0.5044	0.5849	0.047
Mof_C 	C 	0.249	0.52643	0.55368	-0.109
Mof_C 	C 	0.2492	0.55069	0.56838	0.387
Mof_C 	C 	0.25	0.52662	0.5275	-0.002
Mof_H 	H 	0.2514	0.5423	0.5187	0.049
Mof_C 	C 	0.249	0.50383	0.51402	-0.005
Mof_C 	C 	0.2484	0.48118	0.5276	0.001
Mof_H 	H 	0.2489	0.4654	0.5188	0.049
Mof_O 	O 	0.34533	0.22082	0.63293	-0.486
Mof_C 	C 	0.3022	0.38005	0.43824	0.387
Mof_Zn	Zn	0.87599	0.78024	0.1211	1.221
Mof_Zn	Zn	0.88053	0.7228	0.12563	1.216
Mof_Zn	Zn	0.87944	0.75101	0.0721	1.219
Mof_Zn	Zn	0.92958	0.7502	0.10563	1.22
Mof_Zn	Zn	0.76855	0.88138	0.12687	1.218
Mof_Zn	Zn	0.70935	0.88776	0.11624	1.22
Mof_Zn	Zn	0.74644	0.90219	0.07145	1.22
Mof_Zn	Zn	0.74368	0.93576	0.12026	1.22
Mof_O 	O 	0.83831	0.75911	0.11698	-0.462
Mof_O 	O 	0.78185	0.6571	0.12977	-0.47
Mof_O 	O 	0.74299	0.66534	0.11533	-0.412
Mof_O 	O 	0.75524	0.84427	0.12396	-0.444
Mof_O 	O 	0.7167	0.85089	0.1069	-0.459
Mof_O 	O 	0.66219	0.74729	0.11354	-0.478
Mof_O 	O 	0.65316	0.7882	0.1204	-0.478
Mof_O 	O 	0.85969	0.8056	0.09898	-0.46
Mof_O 	O 	0.86345	0.78346	0.0629	-0.487
Mof_O 	O 	0.79365	0.87308	0.09793	-0.463
Mof_O 	O 	0.7768	0.88442	0.06061	-0.487
Mof_O 	O 	0.78107	0.88525	0.94754	-0.472
Mof_O 	O 	0.87288	0.813	0.91878	-0.455
Mof_O 	O 	0.8607	0.78477	0.9483	-0.477
Mof_O 	O 	0.90851	0.80306	0.12521	-0.459
Mof_O 	O 	0.94362	0.77931	0.12207	-0.489
Mof_O 	O 	0.94078	0.861	0.22343	-0.485
Mof_O 	O 	0.90919	0.86974	0.19645	-0.41
Mof_O 	O 	0.09392	0.80126	0.13562	-0.479
Mof_O 	O 	0.05812	0.78118	0.12255	-0.487
Mof_O 	O 	0.05211	0.86254	0.22666	-0.487
Mof_O 	O 	0.08841	0.86267	0.20561	-0.458
Mof_O 	O 	0.7433	0.95932	0.09164	-0.507
Mof_O 	O 	0.74781	0.93654	0.05664	-0.496
Mof_O 	O 	0.74678	0.04881	0.09218	-0.493
Mof_O 	O 	0.75155	0.07135	0.05622	-0.485
Mof_O 	O 	0.743	0.90179	0.10757	-0.924
Mof_O 	O 	0.89306	0.75088	0.10599	-0.948
Mof_C 	C 	0.83172	0.7383	0.1242	0.392
Mof_C 	C 	0.80378	0.7317	0.1233	-0.088
Mof_C 	C 	0.79671	0.7062	0.1242	0.03
Mof_H 	H 	0.8093	0.6933	0.1258	0.055
Mof_C 	C 	0.77135	0.69974	0.1227	-0.084
Mof_C 	C 	0.7649	0.67182	0.1222	0.369
Mof_C 	C 	0.75301	0.7186	0.1211	-0.015
Mof_H 	H 	0.7356	0.714	0.1204	0.053
Mof_C 	C 	0.78524	0.75042	0.1212	-0.014
Mof_H 	H 	0.7902	0.7677	0.1201	0.054
Mof_C 	C 	0.75966	0.74427	0.1206	0.006
Mof_C 	C 	0.7398	0.76454	0.1195	-0.005
Mof_C 	C 	0.71433	0.75858	0.1181	-0.002
Mof_H 	H 	0.7094	0.7412	0.1179	0.049
Mof_C 	C 	0.7459	0.79045	0.1193	-0.004
Mof_H 	H 	0.7632	0.7955	0.1209	0.049
Mof_C 	C 	0.7273	0.80893	0.117	-0.098
Mof_C 	C 	0.7337	0.8368	0.1166	0.373
Mof_C 	C 	0.7026	0.8022	0.1155	0.05
Mof_H 	H 	0.6899	0.8149	0.1133	0.042
Mof_C 	C 	0.69569	0.77705	0.117	-0.104
Mof_C 	C 	0.66802	0.7701	0.1164	0.391
Mof_C 	C 	0.85589	0.80218	0.07547	0.388
Mof_C 	C 	0.84154	0.82238	0.06134	-0.095
Mof_C 	C 	0.82584	0.83891	0.07452	0.043
Mof_H 	H 	0.8252	0.8386	0.0926	0.048
Mof_C 	C 	0.81099	0.85589	0.06073	-0.101
Mof_C 	C 	0.79229	0.87251	0.07429	0.401
Mof_C 	C 	0.81291	0.85711	0.03454	-0.006
Mof_H 	H 	0.8031	0.8692	0.0254	0.053
Mof_C 	C 	0.84303	0.82334	0.03495	-0.009
Mof_H 	H 	0.8538	0.8118	0.0262	0.053
Mof_C 	C 	0.82904	0.8408	0.0215	0.002
Mof_C 	C 	0.83082	0.84241	0.99269	-0.003
Mof_C 	C 	0.81695	0.86021	0.979	-0.003
Mof_H 	H 	0.8059	0.8715	0.9878	0.05
Mof_C 	C 	0.81887	0.86181	0.95256	-0.098
Mof_O 	O 	0.81034	0.8883	0.91729	-0.457
Mof_C 	C 	0.8347	0.84543	0.93961	0.05
Mof_H 	H 	0.8368	0.847	0.9217	0.037
Mof_C 	C 	0.8474	0.8268	0.95289	-0.101
Mof_C 	C 	0.862	0.8072	0.9388	0.38
Mof_C 	C 	0.8453	0.8253	0.97876	-0
Mof_H 	H 	0.854	0.8121	0.9875	0.049
Mof_C 	C 	0.931	0.7988	0.1295	0.385
Mof_C 	C 	0.9451	0.8169	0.1467	-0.091
Mof_C 	C 	0.93122	0.8322	0.1631	0.031
Mof_H 	H 	0.9132	0.8332	0.1619	0.047
Mof_C 	C 	0.94433	0.846	0.1815	-0.085
Mof_C 	C 	0.93015	0.8605	0.2015	0.363
Mof_C 	C 	0.97095	0.8451	0.1821	-0.015
Mof_H 	H 	0.9797	0.8547	0.1946	0.053
Mof_C 	C 	0.97182	0.8162	0.14782	-0.015
Mof_H 	H 	0.9809	0.8055	0.1365	0.053
Mof_C 	C 	0.98495	0.8308	0.16499	0.006
Mof_C 	C 	0.01376	0.8303	0.16644	-0.005
Mof_C 	C 	0.02835	0.81577	0.14978	-0.004
Mof_H 	H 	0.02	0.8059	0.1371	0.049
Mof_C 	C 	0.05464	0.81528	0.15116	-0.098
Mof_C 	C 	0.06979	0.7978	0.13485	0.382
Mof_C 	C 	0.06715	0.82961	0.1692	0.042
Mof_H 	H 	0.0852	0.83	0.1698	0.047
Mof_C 	C 	0.05246	0.84361	0.18662	-0.1
Mof_C 	C 	0.06586	0.85741	0.20786	0.406
Mof_C 	C 	0.02626	0.8435	0.18532	-0.003
Mof_H 	H 	0.0167	0.8527	0.1976	0.051
Mof_C 	C 	0.7463	0.95696	0.06849	0.42
Mof_C 	C 	0.7472	0.98134	0.05376	-0.114
Mof_C 	C 	0.7475	0.00421	0.06686	0.053
Mof_H 	H 	0.7466	0.0044	0.0849	0.047
Mof_C 	C 	0.749	0.02643	0.05368	-0.109
Mof_C 	C 	0.7492	0.05069	0.06838	0.387
Mof_C 	C 	0.75	0.02662	0.0275	-0.002
Mof_H 	H 	0.7514	0.0423	0.0187	0.049
Mof_C 	C 	0.749	0.00383	0.01402	-0.005
Mof_C 	C 	0.7484	0.98118	0.0276	0.001
Mof_H 	H 	0.7489	0.9654	0.0188	0.049
Mof_O 	O 	0.84533	0.72082	0.13293	-0.486
Mof_C 	C 	0.8022	0.88005	0.93824	0.387
Mof_Zn	Zn	0.62401	0.78024	0.8789	1.221
Mof_Zn	Zn	0.61947	0.7228	0.87437	1.216
Mof_Zn	Zn	0.62056	0.75101	0.9279	1.219
Mof_Zn	Zn	0.57042	0.7502	0.89437	1.22
Mof_Zn	Zn	0.73145	0.88138	0.87313	1.218
Mof_Zn	Zn	0.79065	0.88776	0.88376	1.22
Mof_Zn	Zn	0.75356	0.90219	0.92855	1.22
Mof_Zn	Zn	0.75632	0.93576	0.87974	1.22
Mof_O 	O 	0.66169	0.75911	0.88302	-0.462
Mof_O 	O 	0.71815	0.6571	0.87023	-0.47
Mof_O 	O 	0.75701	0.66534	0.88467	-0.412
Mof_O 	O 	0.74476	0.84427	0.87604	-0.444
Mof_O 	O 	0.7833	0.85089	0.8931	-0.459
Mof_O 	O 	0.83781	0.74729	0.88646	-0.478
Mof_O 	O 	0.84684	0.7882	0.8796	-0.478
Mof_O 	O 	0.64031	0.8056	0.90102	-0.46
Mof_O 	O 	0.63655	0.78346	0.9371	-0.487
Mof_O 	O 	0.70635	0.87308	0.90207	-0.463
Mof_O 	O 	0.7232	0.88442	0.93939	-0.487
Mof_O 	O 	0.71893	0.88525	0.05246	-0.472
Mof_O 	O 	0.62712	0.813	0.08122	-0.455
Mof_O 	O 	0.6393	0.78477	0.0517	-0.477
Mof_O 	O 	0.59149	0.80306	0.87479	-0.459
Mof_O 	O 	0.55638	0.77931	0.87793	-0.489
Mof_O 	O 	0.55922	0.861	0.77657	-0.485
Mof_O 	O 	0.59081	0.86974	0.80355	-0.41
Mof_O 	O 	0.40608	0.80126	0.86438	-0.479
Mof_O 	O 	0.44188	0.78118	0.87745	-0.487
Mof_O 	O 	0.44789	0.86254	0.77334	-0.487
Mof_O 	O 	0.41159	0.86267	0.79439	-0.458
Mof_O 	O 	0.7567	0.95932	0.90836	-0.507
Mof_O 	O 	0.75219	0.93654	0.94336	-0.496
Mof_O 	O 	0.75322	0.04881	0.90782	-0.493
Mof_O 	O 	0.74845	0.07135	0.94378	-0.485
Mof_O 	O 	0.757	0.90179	0.89243	-0.924
Mof_O 	O 	0.60694	0.75088	0.89401	-0.948
Mof_C 	C 	0.66828	0.7383	0.8758	0.392
Mof_C 	C 	0.69622	0.7317	0.8767	-0.088
Mof_C 	C 	0.70329	0.7062	0.8758	0.03
Mof_H 	H 	0.6907	0.6933	0.8742	0.055
Mof_C 	C 	0.72865	0.69974	0.8773	-0.084
Mof_C 	C 	0.7351	0.67182	0.8778	0.369
Mof_C 	C 	0.74699	0.7186	0.8789	-0.015
Mof_H 	H 	0.7644	0.714	0.8796	0.053
Mof_C 	C 	0.71476	0.75042	0.8788	-0.014
Mof_H 	H 	0.7098	0.7677	0.8799	0.054
Mof_C 	C 	0.74034	0.74427	0.8794	0.006
Mof_C 	C 	0.7602	0.76454	0.8805	-0.005
Mof_C 	C 	0.78567	0.75858	0.8819	-0.002
Mof_H 	H 	0.7906	0.7412	0.8821	0.049
Mof_C 	C 	0.7541	0.79045	0.8807	-0.004
Mof_H 	H 	0.7368	0.7955	0.8791	0.049
Mof_C 	C 	0.7727	0.80893	0.883	-0.098
Mof_C 	C 	0.7663	0.8368	0.8834	0.373
Mof_C 	C 	0.7974	0.8022	0.8845	0.05
Mof_H 	H 	0.8101	0.8149	0.8867	0.042
Mof_C 	C 	0.80431	0.77705	0.883	-0.104
Mof_C 	C 	0.83198	0.7701	0.8836	0.391
Mof_C 	C 	0.64411	0.80218	0.92453	0.388
Mof_C 	C 	0.65846	0.82238	0.93866	-0.095
Mof_C 	C 	0.67416	0.83891	0.92548	0.043
Mof_H 	H 	0.6748	0.8386	0.9074	0.048
Mof_C 	C 	0.68901	0.85589	0.93927	-0.101
Mof_C 	C 	0.70771	0.87251	0.92571	0.401
Mof_C 	C 	0.68709	0.85711	0.96546	-0.006
Mof_H 	H 	0.6969	0.8692	0.9746	0.053
Mof_C 	C 	0.65697	0.82334	0.96505	-0.009
Mof_H 	H 	0.6462	0.8118	0.9738	0.053
Mof_C 	C 	0.67096	0.8408	0.9785	0.002
Mof_C 	C 	0.66918	0.84241	0.00731	-0.003
Mof_C 	C 	0.68305	0.86021	0.021	-0.003
Mof_H 	H 	0.6941	0.8715	0.0122	0.05
Mof_C 	C 	0.68113	0.86181	0.04744	-0.098
Mof_O 	O 	0.68966	0.8883	0.08271	-0.457
Mof_C 	C 	0.6653	0.84543	0.06039	0.05
Mof_H 	H 	0.6632	0.847	0.0783	0.037
Mof_C 	C 	0.6526	0.8268	0.04711	-0.101
Mof_C 	C 	0.638	0.8072	0.0612	0.38
Mof_C 	C 	0.6547	0.8253	0.02124	-0
Mof_H 	H 	0.646	0.8121	0.0125	0.049
Mof_C 	C 	0.569	0.7988	0.8705	0.385
Mof_C 	C 	0.5549	0.8169	0.8533	-0.091
Mof_C 	C 	0.56878	0.8322	0.8369	0.031
Mof_H 	H 	0.5868	0.8332	0.8381	0.047
Mof_C 	C 	0.55567	0.846	0.8185	-0.085
Mof_C 	C 	0.56985	0.8605	0.7985	0.363
Mof_C 	C 	0.52905	0.8451	0.8179	-0.015
Mof_H 	H 	0.5203	0.8547	0.8054	0.053
Mof_C 	C 	0.52818	0.8162	0.85218	-0.015
Mof_H 	H 	0.5191	0.8055	0.8635	0.053
Mof_C 	C 	0.51505	0.8308	0.83501	0.006
Mof_C 	C 	0.48624	0.8303	0.83356	-0.005
Mof_C 	C 	0.47165	0.81577	0.85022	-0.004
Mof_H 	H 	0.48	0.8059	0.8629	0.049
Mof_C 	C 	0.44536	0.81528	0.84884	-0.098
Mof_C 	C 	0.43021	0.7978	0.86515	0.382
Mof_C 	C 	0.43285	0.82961	0.8308	0.042
Mof_H 	H 	0.4148	0.83	0.8302	0.047
Mof_C 	C 	0.44754	0.84361	0.81338	-0.1
Mof_C 	C 	0.43414	0.85741	0.79214	0.406
Mof_C 	C 	0.47374	0.8435	0.81468	-0.003
Mof_H 	H 	0.4833	0.8527	0.8024	0.051
Mof_C 	C 	0.7537	0.95696	0.93151	0.42
Mof_C 	C 	0.7528	0.98134	0.94624	-0.114
Mof_C 	C 	0.7525	0.00421	0.93314	0.053
Mof_H 	H 	0.7534	0.0044	0.9151	0.047
Mof_C 	C 	0.751	0.02643	0.94632	-0.109
Mof_C 	C 	0.7508	0.05069	0.93162	0.387
Mof_C 	C 	0.75	0.02662	0.9725	-0.002
Mof_H 	H 	0.7486	0.0423	0.9813	0.049
Mof_C 	C 	0.751	0.00383	0.98598	-0.005
Mof_C 	C 	0.7516	0.98118	0.9724	0.001
Mof_H 	H 	0.7511	0.9654	0.9812	0.049
Mof_O 	O 	0.65467	0.72082	0.86707	-0.486
Mof_C 	C 	0.6978	0.88005	0.06176	0.387
Mof_Zn	Zn	0.12401	0.28024	0.3789	1.221
Mof_Zn	Zn	0.11947	0.2228	0.37437	1.216
Mof_Zn	Zn	0.12056	0.25101	0.4279	1.219
Mof_Zn	Zn	0.07042	0.2502	0.39437	1.22
Mof_Zn	Zn	0.23145	0.38138	0.37313	1.218
Mof_Zn	Zn	0.29065	0.38776	0.38376	1.22
Mof_Zn	Zn	0.25356	0.40219	0.42855	1.22
Mof_Zn	Zn	0.25632	0.43576	0.37974	1.22
Mof_O 	O 	0.16169	0.25911	0.38302	-0.462
Mof_O 	O 	0.21815	0.1571	0.37023	-0.47
Mof_O 	O 	0.25701	0.16534	0.38467	-0.412
Mof_O 	O 	0.24476	0.34427	0.37604	-0.444
Mof_O 	O 	0.2833	0.35089	0.3931	-0.459
Mof_O 	O 	0.33781	0.24729	0.38646	-0.478
Mof_O 	O 	0.34684	0.2882	0.3796	-0.478
Mof_O 	O 	0.14031	0.3056	0.40102	-0.46
Mof_O 	O 	0.13655	0.28346	0.4371	-0.487
Mof_O 	O 	0.20635	0.37308	0.40207	-0.463
Mof_O 	O 	0.2232	0.38442	0.43939	-0.487
Mof_O 	O 	0.21893	0.38525	0.55246	-0.472
Mof_O 	O 	0.12712	0.313	0.58122	-0.455
Mof_O 	O 	0.1393	0.28477	0.5517	-0.477
Mof_O 	O 	0.09149	0.30306	0.37479	-0.459
Mof_O 	O 	0.05638	0.27931	0.37793	-0.489
Mof_O 	O 	0.05922	0.361	0.27657	-0.485
Mof_O 	O 	0.09081	0.36974	0.30355	-0.41
Mof_O 	O 	0.90608	0.30126	0.36438	-0.479
Mof_O 	O 	0.94188	0.28118	0.37745	-0.487
Mof_O 	O 	0.94789	0.36254	0.27334	-0.487
Mof_O 	O 	0.91159	0.36267	0.29439	-0.458
Mof_O 	O 	0.2567	0.45932	0.40836	-0.507
Mof_O 	O 	0.25219	0.43654	0.44336	-0.496
Mof_O 	O 	0.25322	0.54881	0.40782	-0.493
Mof_O 	O 	0.24845	0.57135	0.44378	-0.485
Mof_O 	O 	0.257	0.40179	0.39243	-0.924
Mof_O 	O 	0.10694	0.25088	0.39401	-0.948
Mof_C 	C 	0.16828	0.2383	0.3758	0.392
Mof_C 	C 	0.19622	0.2317	0.3767	-0.088
Mof_C 	C 	0.20329	0.2062	0.3758	0.03
Mof_H 	H 	0.1907	0.1933	0.3742	0.055
Mof_C 	C 	0.22865	0.19974	0.3773	-0.084
Mof_C 	C 	0.2351	0.17182	0.3778	0.369
Mof_C 	C 	0.24699	0.2186	0.3789	-0.015
Mof_H 	H 	0.2644	0.214	0.3796	0.053
Mof_C 	C 	0.21476	0.25042	0.3788	-0.014
Mof_H 	H 	0.2098	0.2677	0.3799	0.054
Mof_C 	C 	0.24034	0.24427	0.3794	0.006
Mof_C 	C 	0.2602	0.26454	0.3805	-0.005
Mof_C 	C 	0.28567	0.25858	0.3819	-0.002
Mof_H 	H 	0.2906	0.2412	0.3821	0.049
Mof_C 	C 	0.2541	0.29045	0.3807	-0.004
Mof_H 	H 	0.2368	0.2955	0.3791	0.049
Mof_C 	C 	0.2727	0.30893	0.383	-0.098
Mof_C 	C 	0.2663	0.3368	0.3834	0.373
Mof_C 	C 	0.2974	0.3022	0.3845	0.05
Mof_H 	H 	0.3101	0.3149	0.3867	0.042
Mof_C 	C 	0.30431	0.27705	0.383	-0.104
Mof_C 	C 	0.33198	0.2701	0.3836	0.391
Mof_C 	C 	0.14411	0.30218	0.42453	0.388
Mof_C 	C 	0.15846	0.32238	0.43866	-0.095
Mof_C 	C 	0.17416	0.33891	0.42548	0.043
Mof_H 	H 	0.1748	0.3386	0.4074	0.048
Mof_C 	C 	0.18901	0.35589	0.43927	-0.101
Mof_C 	C 	0.20771	0.37251	0.42571	0.401
Mof_C 	C 	0.18709	0.35711	0.46546	-0.006
Mof_H 	H 	0.1969	0.3692	0.4746	0.053
Mof_C 	C 	0.15697	0.32334	0.46505	-0.009
Mof_H 	H 	0.1462	0.3118	0.4738	0.053
Mof_C 	C 	0.17096	0.3408	0.4785	0.002
Mof_C 	C 	0.16918	0.34241	0.50731	-0.003
Mof_C 	C 	0.18305	0.36021	0.521	-0.003
Mof_H 	H 	0.1941	0.3715	0.5122	0.05
Mof_C 	C 	0.18113	0.36181	0.54744	-0.098
Mof_O 	O 	0.18966	0.3883	0.58271	-0.457
Mof_C 	C 	0.1653	0.34543	0.56039	0.05
Mof_H 	H 	0.1632	0.347	0.5783	0.037
Mof_C 	C 	0.1526	0.3268	0.54711	-0.101
Mof_C 	C 	0.138	0.3072	0.5612	0.38
Mof_C 	C 	0.1547	0.3253	0.52124	-0
Mof_H 	H 	0.146	0.3121	0.5125	0.049
Mof_C 	C 	0.069	0.2988	0.3705	0.385
Mof_C 	C 	0.0549	0.3169	0.3533	-0.091
Mof_C 	C 	0.06878	0.3322	0.3369	0.031
Mof_H 	H 	0.0868	0.3332	0.3381	0.047
Mof_C 	C 	0.05567	0.346	0.3185	-0.085
Mof_C 	C 	0.06985	0.3605	0.2985	0.363
Mof_C 	C 	0.02905	0.3451	0.3179	-0.015
Mof_H 	H 	0.0203	0.3547	0.3054	0.053
Mof_C 	C 	0.02818	0.3162	0.35218	-0.015
Mof_H 	H 	0.0191	0.3055	0.3635	0.053
Mof_C 	C 	0.01505	0.3308	0.33501	0.006
Mof_C 	C 	0.98624	0.3303	0.33356	-0.005
Mof_C 	C 	0.97165	0.31577	0.35022	-0.004
Mof_H 	H 	0.98	0.3059	0.3629	0.049
Mof_C 	C 	0.94536	0.31528	0.34884	-0.098
Mof_C 	C 	0.93021	0.2978	0.36515	0.382
Mof_C 	C 	0.93285	0.32961	0.3308	0.042
Mof_H 	H 	0.9148	0.33	0.3302	0.047
Mof_C 	C 	0.94754	0.34361	0.31338	-0.1
Mof_C 	C 	0.93414	0.35741	0.29214	0.406
Mof_C 	C 	0.97374	0.3435	0.31468	-0.003
Mof_H 	H 	0.9833	0.3527	0.3024	0.051
Mof_C 	C 	0.2537	0.45696	0.43151	0.42
Mof_C 	C 	0.2528	0.48134	0.44624	-0.114
Mof_C 	C 	0.2525	0.50421	0.43314	0.053
Mof_H 	H 	0.2534	0.5044	0.4151	0.047
Mof_C 	C 	0.251	0.52643	0.44632	-0.109
Mof_C 	C 	0.2508	0.55069	0.43162	0.387
Mof_C 	C 	0.25	0.52662	0.4725	-0.002
Mof_H 	H 	0.2486	0.5423	0.4813	0.049
Mof_C 	C 	0.251	0.50383	0.48598	-0.005
Mof_C 	C 	0.2516	0.48118	0.4724	0.001
Mof_H 	H 	0.2511	0.4654	0.4812	0.049
Mof_O 	O 	0.15467	0.22082	0.36707	-0.486
Mof_C 	C 	0.1978	0.38005	0.56176	0.387
Mof_Zn	Zn	0.12401	0.71976	0.1211	1.221
Mof_Zn	Zn	0.11947	0.7772	0.12563	1.216
Mof_Zn	Zn	0.12056	0.74899	0.0721	1.219
Mof_Zn	Zn	0.07042	0.7498	0.10563	1.22
Mof_Zn	Zn	0.23145	0.61862	0.12687	1.218
Mof_Zn	Zn	0.29065	0.61224	0.11624	1.22
Mof_Zn	Zn	0.25356	0.59781	0.07145	1.22
Mof_Zn	Zn	0.25632	0.56424	0.12026	1.22
Mof_O 	O 	0.16169	0.74089	0.11698	-0.462
Mof_O 	O 	0.21815	0.8429	0.12977	-0.47
Mof_O 	O 	0.25701	0.83466	0.11533	-0.412
Mof_O 	O 	0.24476	0.65573	0.12396	-0.444
Mof_O 	O 	0.2833	0.64911	0.1069	-0.459
Mof_O 	O 	0.33781	0.75271	0.11354	-0.478
Mof_O 	O 	0.34684	0.7118	0.1204	-0.478
Mof_O 	O 	0.14031	0.6944	0.09898	-0.46
Mof_O 	O 	0.13655	0.71654	0.0629	-0.487
Mof_O 	O 	0.20635	0.62692	0.09793	-0.463
Mof_O 	O 	0.2232	0.61558	0.06061	-0.487
Mof_O 	O 	0.21893	0.61475	0.94754	-0.472
Mof_O 	O 	0.12712	0.687	0.91878	-0.455
Mof_O 	O 	0.1393	0.71523	0.9483	-0.477
Mof_O 	O 	0.09149	0.69694	0.12521	-0.459
Mof_O 	O 	0.05638	0.72069	0.12207	-0.489
Mof_O 	O 	0.05922	0.639	0.22343	-0.485
Mof_O 	O 	0.09081	0.63026	0.19645	-0.41
Mof_O 	O 	0.90608	0.69874	0.13562	-0.479
Mof_O 	O 	0.94188	0.71882	0.12255	-0.487
Mof_O 	O 	0.94789	0.63746	0.22666	-0.487
Mof_O 	O 	0.91159	0.63733	0.20561	-0.458
Mof_O 	O 	0.2567	0.54068	0.09164	-0.507
Mof_O 	O 	0.25219	0.56346	0.05664	-0.496
Mof_O 	O 	0.25322	0.45119	0.09218	-0.493
Mof_O 	O 	0.24845	0.42865	0.05622	-0.485
Mof_O 	O 	0.257	0.59821	0.10757	-0.924
Mof_O 	O 	0.10694	0.74912	0.10599	-0.948
Mof_C 	C 	0.16828	0.7617	0.1242	0.392
Mof_C 	C 	0.19622	0.7683	0.1233	-0.088
Mof_C 	C 	0.20329	0.7938	0.1242	0.03
Mof_H 	H 	0.1907	0.8067	0.1258	0.055
Mof_C 	C 	0.22865	0.80026	0.1227	-0.084
Mof_C 	C 	0.2351	0.82818	0.1222	0.369
Mof_C 	C 	0.24699	0.7814	0.1211	-0.015
Mof_H 	H 	0.2644	0.786	0.1204	0.053
Mof_C 	C 	0.21476	0.74958	0.1212	-0.014
Mof_H 	H 	0.2098	0.7323	0.1201	0.054
Mof_C 	C 	0.24034	0.75573	0.1206	0.006
Mof_C 	C 	0.2602	0.73546	0.1195	-0.005
Mof_C 	C 	0.28567	0.74142	0.1181	-0.002
Mof_H 	H 	0.2906	0.7588	0.1179	0.049
Mof_C 	C 	0.2541	0.70955	0.1193	-0.004
Mof_H 	H 	0.2368	0.7045	0.1209	0.049
Mof_C 	C 	0.2727	0.69107	0.117	-0.098
Mof_C 	C 	0.2663	0.6632	0.1166	0.373
Mof_C 	C 	0.2974	0.6978	0.1155	0.05
Mof_H 	H 	0.3101	0.6851	0.1133	0.042
Mof_C 	C 	0.30431	0.72295	0.117	-0.104
Mof_C 	C 	0.33198	0.7299	0.1164	0.391
Mof_C 	C 	0.14411	0.69782	0.07547	0.388
Mof_C 	C 	0.15846	0.67762	0.06134	-0.095
Mof_C 	C 	0.17416	0.66109	0.07452	0.043
Mof_H 	H 	0.1748	0.6614	0.0926	0.048
Mof_C 	C 	0.18901	0.64411	0.06073	-0.101
Mof_C 	C 	0.20771	0.62749	0.07429	0.401
Mof_C 	C 	0.18709	0.64289	0.03454	-0.006
Mof_H 	H 	0.1969	0.6308	0.0254	0.053
Mof_C 	C 	0.15697	0.67666	0.03495	-0.009
Mof_H 	H 	0.1462	0.6882	0.0262	0.053
Mof_C 	C 	0.17096	0.6592	0.0215	0.002
Mof_C 	C 	0.16918	0.65759	0.99269	-0.003
Mof_C 	C 	0.18305	0.63979	0.979	-0.003
Mof_H 	H 	0.1941	0.6285	0.9878	0.05
Mof_C 	C 	0.18113	0.63819	0.95256	-0.098
Mof_O 	O 	0.18966	0.6117	0.91729	-0.457
Mof_C 	C 	0.1653	0.65457	0.93961	0.05
Mof_H 	H 	0.1632	0.653	0.9217	0.037
Mof_C 	C 	0.1526	0.6732	0.95289	-0.101
Mof_C 	C 	0.138	0.6928	0.9388	0.38
Mof_C 	C 	0.1547	0.6747	0.97876	-0
Mof_H 	H 	0.146	0.6879	0.9875	0.049
Mof_C 	C 	0.069	0.7012	0.1295	0.385
Mof_C 	C 	0.0549	0.6831	0.1467	-0.091
Mof_C 	C 	0.06878	0.6678	0.1631	0.031
Mof_H 	H 	0.0868	0.6668	0.1619	0.047
Mof_C 	C 	0.05567	0.654	0.1815	-0.085
Mof_C 	C 	0.06985	0.6395	0.2015	0.363
Mof_C 	C 	0.02905	0.6549	0.1821	-0.015
Mof_H 	H 	0.0203	0.6453	0.1946	0.053
Mof_C 	C 	0.02818	0.6838	0.14782	-0.015
Mof_H 	H 	0.0191	0.6945	0.1365	0.053
Mof_C 	C 	0.01505	0.6692	0.16499	0.006
Mof_C 	C 	0.98624	0.6697	0.16644	-0.005
Mof_C 	C 	0.97165	0.68423	0.14978	-0.004
Mof_H 	H 	0.98	0.6941	0.1371	0.049
Mof_C 	C 	0.94536	0.68472	0.15116	-0.098
Mof_C 	C 	0.93021	0.7022	0.13485	0.382
Mof_C 	C 	0.93285	0.67039	0.1692	0.042
Mof_H 	H 	0.9148	0.67	0.1698	0.047
Mof_C 	C 	0.94754	0.65639	0.18662	-0.1
Mof_C 	C 	0.93414	0.64259	0.20786	0.406
Mof_C 	C 	0.97374	0.6565	0.18532	-0.003
Mof_H 	H 	0.9833	0.6473	0.1976	0.051
Mof_C 	C 	0.2537	0.54304	0.06849	0.42
Mof_C 	C 	0.2528	0.51866	0.05376	-0.114
Mof_C 	C 	0.2525	0.49579	0.06686	0.053
Mof_H 	H 	0.2534	0.4956	0.0849	0.047
Mof_C 	C 	0.251	0.47357	0.05368	-0.109
Mof_C 	C 	0.2508	0.44931	0.06838	0.387
Mof_C 	C 	0.25	0.47338	0.0275	-0.002
Mof_H 	H 	0.2486	0.4577	0.0187	0.049
Mof_C 	C 	0.251	0.49617	0.01402	-0.005
Mof_C 	C 	0.2516	0.51882	0.0276	0.001
Mof_H 	H 	0.2511	0.5346	0.0188	0.049
Mof_O 	O 	0.15467	0.77918	0.13293	-0.486
Mof_C 	C 	0.1978	0.61995	0.93824	0.387
Mof_Zn	Zn	0.62401	0.21976	0.6211	1.221
Mof_Zn	Zn	0.61947	0.2772	0.62563	1.216
Mof_Zn	Zn	0.62056	0.24899	0.5721	1.219
Mof_Zn	Zn	0.57042	0.2498	0.60563	1.22
Mof_Zn	Zn	0.73145	0.11862	0.62687	1.218
Mof_Zn	Zn	0.79065	0.11224	0.61624	1.22
Mof_Zn	Zn	0.75356	0.09781	0.57145	1.22
Mof_Zn	Zn	0.75632	0.06424	0.62026	1.22
Mof_O 	O 	0.66169	0.24089	0.61698	-0.462
Mof_O 	O 	0.71815	0.3429	0.62977	-0.47
Mof_O 	O 	0.75701	0.33466	0.61533	-0.412
Mof_O 	O 	0.74476	0.15573	0.62396	-0.444
Mof_O 	O 	0.7833	0.14911	0.6069	-0.459
Mof_O 	O 	0.83781	0.25271	0.61354	-0.478
Mof_O 	O 	0.84684	0.2118	0.6204	-0.478
Mof_O 	O 	0.64031	0.1944	0.59898	-0.46
Mof_O 	O 	0.63655	0.21654	0.5629	-0.487
Mof_O 	O 	0.70635	0.12692	0.59793	-0.463
Mof_O 	O 	0.7232	0.11558	0.56061	-0.487
Mof_O 	O 	0.71893	0.11475	0.44754	-0.472
Mof_O 	O 	0.62712	0.187	0.41878	-0.455
Mof_O 	O 	0.6393	0.21523	0.4483	-0.477
Mof_O 	O 	0.59149	0.19694	0.62521	-0.459
Mof_O 	O 	0.55638	0.22069	0.62207	-0.489
Mof_O 	O 	0.55922	0.139	0.72343	-0.485
Mof_O 	O 	0.59081	0.13026	0.69645	-0.41
Mof_O 	O 	0.40608	0.19874	0.63562	-0.479
Mof_O 	O 	0.44188	0.21882	0.62255	-0.487
Mof_O 	O 	0.44789	0.13746	0.72666	-0.487
Mof_O 	O 	0.41159	0.13733	0.70561	-0.458
Mof_O 	O 	0.7567	0.04068	0.59164	-0.507
Mof_O 	O 	0.75219	0.06346	0.55664	-0.496
Mof_O 	O 	0.75322	0.95119	0.59218	-0.493
Mof_O 	O 	0.74845	0.92865	0.55622	-0.485
Mof_O 	O 	0.757	0.09821	0.60757	-0.924
Mof_O 	O 	0.60694	0.24912	0.60599	-0.948
Mof_C 	C 	0.66828	0.2617	0.6242	0.392
Mof_C 	C 	0.69622	0.2683	0.6233	-0.088
Mof_C 	C 	0.70329	0.2938	0.6242	0.03
Mof_H 	H 	0.6907	0.3067	0.6258	0.055
Mof_C 	C 	0.72865	0.30026	0.6227	-0.084
Mof_C 	C 	0.7351	0.32818	0.6222	0.369
Mof_C 	C 	0.74699	0.2814	0.6211	-0.015
Mof_H 	H 	0.7644	0.286	0.6204	0.053
Mof_C 	C 	0.71476	0.24958	0.6212	-0.014
Mof_H 	H 	0.7098	0.2323	0.6201	0.054
Mof_C 	C 	0.74034	0.25573	0.6206	0.006
Mof_C 	C 	0.7602	0.23546	0.6195	-0.005
Mof_C 	C 	0.78567	0.24142	0.6181	-0.002
Mof_H 	H 	0.7906	0.2588	0.6179	0.049
Mof_C 	C 	0.7541	0.20955	0.6193	-0.004
Mof_H 	H 	0.7368	0.2045	0.6209	0.049
Mof_C 	C 	0.7727	0.19107	0.617	-0.098
Mof_C 	C 	0.7663	0.1632	0.6166	0.373
Mof_C 	C 	0.7974	0.1978	0.6155	0.05
Mof_H 	H 	0.8101	0.1851	0.6133	0.042
Mof_C 	C 	0.80431	0.22295	0.617	-0.104
Mof_C 	C 	0.83198	0.2299	0.6164	0.391
Mof_C 	C 	0.64411	0.19782	0.57547	0.388
Mof_C 	C 	0.65846	0.17762	0.56134	-0.095
Mof_C 	C 	0.67416	0.16109	0.57452	0.043
Mof_H 	H 	0.6748	0.1614	0.5926	0.048
Mof_C 	C 	0.68901	0.14411	0.56073	-0.101
Mof_C 	C 	0.70771	0.12749	0.57429	0.401
Mof_C 	C 	0.68709	0.14289	0.53454	-0.006
Mof_H 	H 	0.6969	0.1308	0.5254	0.053
Mof_C 	C 	0.65697	0.17666	0.53495	-0.009
Mof_H 	H 	0.6462	0.1882	0.5262	0.053
Mof_C 	C 	0.67096	0.1592	0.5215	0.002
Mof_C 	C 	0.66918	0.15759	0.49269	-0.003
Mof_C 	C 	0.68305	0.13979	0.479	-0.003
Mof_H 	H 	0.6941	0.1285	0.4878	0.05
Mof_C 	C 	0.68113	0.13819	0.45256	-0.098
Mof_O 	O 	0.68966	0.1117	0.41729	-0.457
Mof_C 	C 	0.6653	0.15457	0.43961	0.05
Mof_H 	H 	0.6632	0.153	0.4217	0.037
Mof_C 	C 	0.6526	0.1732	0.45289	-0.101
Mof_C 	C 	0.638	0.1928	0.4388	0.38
Mof_C 	C 	0.6547	0.1747	0.47876	-0
Mof_H 	H 	0.646	0.1879	0.4875	0.049
Mof_C 	C 	0.569	0.2012	0.6295	0.385
Mof_C 	C 	0.5549	0.1831	0.6467	-0.091
Mof_C 	C 	0.56878	0.1678	0.6631	0.031
Mof_H 	H 	0.5868	0.1668	0.6619	0.047
Mof_C 	C 	0.55567	0.154	0.6815	-0.085
Mof_C 	C 	0.56985	0.1395	0.7015	0.363
Mof_C 	C 	0.52905	0.1549	0.6821	-0.015
Mof_H 	H 	0.5203	0.1453	0.6946	0.053
Mof_C 	C 	0.52818	0.1838	0.64782	-0.015
Mof_H 	H 	0.5191	0.1945	0.6365	0.053
Mof_C 	C 	0.51505	0.1692	0.66499	0.006
Mof_C 	C 	0.48624	0.1697	0.66644	-0.005
Mof_C 	C 	0.47165	0.18423	0.64978	-0.004
Mof_H 	H 	0.48	0.1941	0.6371	0.049
Mof_C 	C 	0.44536	0.18472	0.65116	-0.098
Mof_C 	C 	0.43021	0.2022	0.63485	0.382
Mof_C 	C 	0.43285	0.17039	0.6692	0.042
Mof_H 	H 	0.4148	0.17	0.6698	0.047
Mof_C 	C 	0.44754	0.15639	0.68662	-0.1
Mof_C 	C 	0.43414	0.14259	0.70786	0.406
Mof_C 	C 	0.47374	0.1565	0.68532	-0.003
Mof_H 	H 	0.4833	0.1473	0.6976	0.051
Mof_C 	C 	0.7537	0.04304	0.56849	0.42
Mof_C 	C 	0.7528	0.01866	0.55376	-0.114
Mof_C 	C 	0.7525	0.99579	0.56686	0.053
Mof_H 	H 	0.7534	0.9956	0.5849	0.047
Mof_C 	C 	0.751	0.97357	0.55368	-0.109
Mof_C 	C 	0.7508	0.94931	0.56838	0.387
Mof_C 	C 	0.75	0.97338	0.5275	-0.002
Mof_H 	H 	0.7486	0.9577	0.5187	0.049
Mof_C 	C 	0.751	0.99617	0.51402	-0.005
Mof_C 	C 	0.7516	0.01882	0.5276	0.001
Mof_H 	H 	0.7511	0.0346	0.5188	0.049
Mof_O 	O 	0.65467	0.27918	0.63293	-0.486
Mof_C 	C 	0.6978	0.11995	0.43824	0.387
Mof_Zn	Zn	0.3789	0.87599	0.21976	1.221
Mof_Zn	Zn	0.37437	0.88053	0.2772	1.216
Mof_Zn	Zn	0.4279	0.87944	0.24899	1.219
Mof_Zn	Zn	0.39437	0.92958	0.2498	1.22
Mof_Zn	Zn	0.37313	0.76855	0.11862	1.218
Mof_Zn	Zn	0.38376	0.70935	0.11224	1.22
Mof_Zn	Zn	0.42855	0.74644	0.09781	1.22
Mof_Zn	Zn	0.37974	0.74368	0.06424	1.22
Mof_O 	O 	0.38302	0.83831	0.24089	-0.462
Mof_O 	O 	0.37023	0.78185	0.3429	-0.47
Mof_O 	O 	0.38467	0.74299	0.33466	-0.412
Mof_O 	O 	0.37604	0.75524	0.15573	-0.444
Mof_O 	O 	0.3931	0.7167	0.14911	-0.459
Mof_O 	O 	0.38646	0.66219	0.25271	-0.478
Mof_O 	O 	0.3796	0.65316	0.2118	-0.478
Mof_O 	O 	0.40102	0.85969	0.1944	-0.46
Mof_O 	O 	0.4371	0.86345	0.21654	-0.487
Mof_O 	O 	0.40207	0.79365	0.12692	-0.463
Mof_O 	O 	0.43939	0.7768	0.11558	-0.487
Mof_O 	O 	0.55246	0.78107	0.11475	-0.472
Mof_O 	O 	0.58122	0.87288	0.187	-0.455
Mof_O 	O 	0.5517	0.8607	0.21523	-0.477
Mof_O 	O 	0.37479	0.90851	0.19694	-0.459
Mof_O 	O 	0.37793	0.94362	0.22069	-0.489
Mof_O 	O 	0.27657	0.94078	0.139	-0.485
Mof_O 	O 	0.30355	0.90919	0.13026	-0.41
Mof_O 	O 	0.36438	0.09392	0.19874	-0.479
Mof_O 	O 	0.37745	0.05812	0.21882	-0.487
Mof_O 	O 	0.27334	0.05211	0.13746	-0.487
Mof_O 	O 	0.29439	0.08841	0.13733	-0.458
Mof_O 	O 	0.40836	0.7433	0.04068	-0.507
Mof_O 	O 	0.44336	0.74781	0.06346	-0.496
Mof_O 	O 	0.40782	0.74678	0.95119	-0.493
Mof_O 	O 	0.44378	0.75155	0.92865	-0.485
Mof_O 	O 	0.39243	0.743	0.09821	-0.924
Mof_O 	O 	0.39401	0.89306	0.24912	-0.948
Mof_C 	C 	0.3758	0.83172	0.2617	0.392
Mof_C 	C 	0.3767	0.80378	0.2683	-0.088
Mof_C 	C 	0.3758	0.79671	0.2938	0.03
Mof_H 	H 	0.3742	0.8093	0.3067	0.055
Mof_C 	C 	0.3773	0.77135	0.30026	-0.084
Mof_C 	C 	0.3778	0.7649	0.32818	0.369
Mof_C 	C 	0.3789	0.75301	0.2814	-0.015
Mof_H 	H 	0.3796	0.7356	0.286	0.053
Mof_C 	C 	0.3788	0.78524	0.24958	-0.014
Mof_H 	H 	0.3799	0.7902	0.2323	0.054
Mof_C 	C 	0.3794	0.75966	0.25573	0.006
Mof_C 	C 	0.3805	0.7398	0.23546	-0.005
Mof_C 	C 	0.3819	0.71433	0.24142	-0.002
Mof_H 	H 	0.3821	0.7094	0.2588	0.049
Mof_C 	C 	0.3807	0.7459	0.20955	-0.004
Mof_H 	H 	0.3791	0.7632	0.2045	0.049
Mof_C 	C 	0.383	0.7273	0.19107	-0.098
Mof_C 	C 	0.3834	0.7337	0.1632	0.373
Mof_C 	C 	0.3845	0.7026	0.1978	0.05
Mof_H 	H 	0.3867	0.6899	0.1851	0.042
Mof_C 	C 	0.383	0.69569	0.22295	-0.104
Mof_C 	C 	0.3836	0.66802	0.2299	0.391
Mof_C 	C 	0.42453	0.85589	0.19782	0.388
Mof_C 	C 	0.43866	0.84154	0.17762	-0.095
Mof_C 	C 	0.42548	0.82584	0.16109	0.043
Mof_H 	H 	0.4074	0.8252	0.1614	0.048
Mof_C 	C 	0.43927	0.81099	0.14411	-0.101
Mof_C 	C 	0.42571	0.79229	0.12749	0.401
Mof_C 	C 	0.46546	0.81291	0.14289	-0.006
Mof_H 	H 	0.4746	0.8031	0.1308	0.053
Mof_C 	C 	0.46505	0.84303	0.17666	-0.009
Mof_H 	H 	0.4738	0.8538	0.1882	0.053
Mof_C 	C 	0.4785	0.82904	0.1592	0.002
Mof_C 	C 	0.50731	0.83082	0.15759	-0.003
Mof_C 	C 	0.521	0.81695	0.13979	-0.003
Mof_H 	H 	0.5122	0.8059	0.1285	0.05
Mof_C 	C 	0.54744	0.81887	0.13819	-0.098
Mof_O 	O 	0.58271	0.81034	0.1117	-0.457
Mof_C 	C 	0.56039	0.8347	0.15457	0.05
Mof_H 	H 	0.5783	0.8368	0.153	0.037
Mof_C 	C 	0.54711	0.8474	0.1732	-0.101
Mof_C 	C 	0.5612	0.862	0.1928	0.38
Mof_C 	C 	0.52124	0.8453	0.1747	-0
Mof_H 	H 	0.5125	0.854	0.1879	0.049
Mof_C 	C 	0.3705	0.931	0.2012	0.385
Mof_C 	C 	0.3533	0.9451	0.1831	-0.091
Mof_C 	C 	0.3369	0.93122	0.1678	0.031
Mof_H 	H 	0.3381	0.9132	0.1668	0.047
Mof_C 	C 	0.3185	0.94433	0.154	-0.085
Mof_C 	C 	0.2985	0.93015	0.1395	0.363
Mof_C 	C 	0.3179	0.97095	0.1549	-0.015
Mof_H 	H 	0.3054	0.9797	0.1453	0.053
Mof_C 	C 	0.35218	0.97182	0.1838	-0.015
Mof_H 	H 	0.3635	0.9809	0.1945	0.053
Mof_C 	C 	0.33501	0.98495	0.1692	0.006
Mof_C 	C 	0.33356	0.01376	0.1697	-0.005
Mof_C 	C 	0.35022	0.02835	0.18423	-0.004
Mof_H 	H 	0.3629	0.02	0.1941	0.049
Mof_C 	C 	0.34884	0.05464	0.18472	-0.098
Mof_C 	C 	0.36515	0.06979	0.2022	0.382
Mof_C 	C 	0.3308	0.06715	0.17039	0.042
Mof_H 	H 	0.3302	0.0852	0.17	0.047
Mof_C 	C 	0.31338	0.05246	0.15639	-0.1
Mof_C 	C 	0.29214	0.06586	0.14259	0.406
Mof_C 	C 	0.31468	0.02626	0.1565	-0.003
Mof_H 	H 	0.3024	0.0167	0.1473	0.051
Mof_C 	C 	0.43151	0.7463	0.04304	0.42
Mof_C 	C 	0.44624	0.7472	0.01866	-0.114
Mof_C 	C 	0.43314	0.7475	0.99579	0.053
Mof_H 	H 	0.4151	0.7466	0.9956	0.047
Mof_C 	C 	0.44632	0.749	0.97357	-0.109
Mof_C 	C 	0.43162	0.7492	0.94931	0.387
Mof_C 	C 	0.4725	0.75	0.97338	-0.002
Mof_H 	H 	0.4813	0.7514	0.9577	0.049
Mof_C 	C 	0.48598	0.749	0.99617	-0.005
Mof_C 	C 	0.4724	0.7484	0.01882	0.001
Mof_H 	H 	0.4812	0.7489	0.0346	0.049
Mof_O 	O 	0.36707	0.84533	0.27918	-0.486
Mof_C 	C 	0.56176	0.8022	0.11995	0.387
Mof_Zn	Zn	0.8789	0.37599	0.71976	1.221
Mof_Zn	Zn	0.87437	0.38053	0.7772	1.216
Mof_Zn	Zn	0.9279	0.37944	0.74899	1.219
Mof_Zn	Zn	0.89437	0.42958	0.7498	1.22
Mof_Zn	Zn	0.87313	0.26855	0.61862	1.218
Mof_Zn	Zn	0.88376	0.20935	0.61224	1.22
Mof_Zn	Zn	0.92855	0.24644	0.59781	1.22
Mof_Zn	Zn	0.87974	0.24368	0.56424	1.22
Mof_O 	O 	0.88302	0.33831	0.74089	-0.462
Mof_O 	O 	0.87023	0.28185	0.8429	-0.47
Mof_O 	O 	0.88467	0.24299	0.83466	-0.412
Mof_O 	O 	0.87604	0.25524	0.65573	-0.444
Mof_O 	O 	0.8931	0.2167	0.64911	-0.459
Mof_O 	O 	0.88646	0.16219	0.75271	-0.478
Mof_O 	O 	0.8796	0.15316	0.7118	-0.478
Mof_O 	O 	0.90102	0.35969	0.6944	-0.46
Mof_O 	O 	0.9371	0.36345	0.71654	-0.487
Mof_O 	O 	0.90207	0.29365	0.62692	-0.463
Mof_O 	O 	0.93939	0.2768	0.61558	-0.487
Mof_O 	O 	0.05246	0.28107	0.61475	-0.472
Mof_O 	O 	0.08122	0.37288	0.687	-0.455
Mof_O 	O 	0.0517	0.3607	0.71523	-0.477
Mof_O 	O 	0.87479	0.40851	0.69694	-0.459
Mof_O 	O 	0.87793	0.44362	0.72069	-0.489
Mof_O 	O 	0.77657	0.44078	0.639	-0.485
Mof_O 	O 	0.80355	0.40919	0.63026	-0.41
Mof_O 	O 	0.86438	0.59392	0.69874	-0.479
Mof_O 	O 	0.87745	0.55812	0.71882	-0.487
Mof_O 	O 	0.77334	0.55211	0.63746	-0.487
Mof_O 	O 	0.79439	0.58841	0.63733	-0.458
Mof_O 	O 	0.90836	0.2433	0.54068	-0.507
Mof_O 	O 	0.94336	0.24781	0.56346	-0.496
Mof_O 	O 	0.90782	0.24678	0.45119	-0.493
Mof_O 	O 	0.94378	0.25155	0.42865	-0.485
Mof_O 	O 	0.89243	0.243	0.59821	-0.924
Mof_O 	O 	0.89401	0.39306	0.74912	-0.948
Mof_C 	C 	0.8758	0.33172	0.7617	0.392
Mof_C 	C 	0.8767	0.30378	0.7683	-0.088
Mof_C 	C 	0.8758	0.29671	0.7938	0.03
Mof_H 	H 	0.8742	0.3093	0.8067	0.055
Mof_C 	C 	0.8773	0.27135	0.80026	-0.084
Mof_C 	C 	0.8778	0.2649	0.82818	0.369
Mof_C 	C 	0.8789	0.25301	0.7814	-0.015
Mof_H 	H 	0.8796	0.2356	0.786	0.053
Mof_C 	C 	0.8788	0.28524	0.74958	-0.014
Mof_H 	H 	0.8799	0.2902	0.7323	0.054
Mof_C 	C 	0.8794	0.25966	0.75573	0.006
Mof_C 	C 	0.8805	0.2398	0.73546	-0.005
Mof_C 	C 	0.8819	0.21433	0.74142	-0.002
Mof_H 	H 	0.8821	0.2094	0.7588	0.049
Mof_C 	C 	0.8807	0.2459	0.70955	-0.004
Mof_H 	H 	0.8791	0.2632	0.7045	0.049
Mof_C 	C 	0.883	0.2273	0.69107	-0.098
Mof_C 	C 	0.8834	0.2337	0.6632	0.373
Mof_C 	C 	0.8845	0.2026	0.6978	0.05
Mof_H 	H 	0.8867	0.1899	0.6851	0.042
Mof_C 	C 	0.883	0.19569	0.72295	-0.104
Mof_C 	C 	0.8836	0.16802	0.7299	0.391
Mof_C 	C 	0.92453	0.35589	0.69782	0.388
Mof_C 	C 	0.93866	0.34154	0.67762	-0.095
Mof_C 	C 	0.92548	0.32584	0.66109	0.043
Mof_H 	H 	0.9074	0.3252	0.6614	0.048
Mof_C 	C 	0.93927	0.31099	0.64411	-0.101
Mof_C 	C 	0.92571	0.29229	0.62749	0.401
Mof_C 	C 	0.96546	0.31291	0.64289	-0.006
Mof_H 	H 	0.9746	0.3031	0.6308	0.053
Mof_C 	C 	0.96505	0.34303	0.67666	-0.009
Mof_H 	H 	0.9738	0.3538	0.6882	0.053
Mof_C 	C 	0.9785	0.32904	0.6592	0.002
Mof_C 	C 	0.00731	0.33082	0.65759	-0.003
Mof_C 	C 	0.021	0.31695	0.63979	-0.003
Mof_H 	H 	0.0122	0.3059	0.6285	0.05
Mof_C 	C 	0.04744	0.31887	0.63819	-0.098
Mof_O 	O 	0.08271	0.31034	0.6117	-0.457
Mof_C 	C 	0.06039	0.3347	0.65457	0.05
Mof_H 	H 	0.0783	0.3368	0.653	0.037
Mof_C 	C 	0.04711	0.3474	0.6732	-0.101
Mof_C 	C 	0.0612	0.362	0.6928	0.38
Mof_C 	C 	0.02124	0.3453	0.6747	-0
Mof_H 	H 	0.0125	0.354	0.6879	0.049
Mof_C 	C 	0.8705	0.431	0.7012	0.385
Mof_C 	C 	0.8533	0.4451	0.6831	-0.091
Mof_C 	C 	0.8369	0.43122	0.6678	0.031
Mof_H 	H 	0.8381	0.4132	0.6668	0.047
Mof_C 	C 	0.8185	0.44433	0.654	-0.085
Mof_C 	C 	0.7985	0.43015	0.6395	0.363
Mof_C 	C 	0.8179	0.47095	0.6549	-0.015
Mof_H 	H 	0.8054	0.4797	0.6453	0.053
Mof_C 	C 	0.85218	0.47182	0.6838	-0.015
Mof_H 	H 	0.8635	0.4809	0.6945	0.053
Mof_C 	C 	0.83501	0.48495	0.6692	0.006
Mof_C 	C 	0.83356	0.51376	0.6697	-0.005
Mof_C 	C 	0.85022	0.52835	0.68423	-0.004
Mof_H 	H 	0.8629	0.52	0.6941	0.049
Mof_C 	C 	0.84884	0.55464	0.68472	-0.098
Mof_C 	C 	0.86515	0.56979	0.7022	0.382
Mof_C 	C 	0.8308	0.56715	0.67039	0.042
Mof_H 	H 	0.8302	0.5852	0.67	0.047
Mof_C 	C 	0.81338	0.55246	0.65639	-0.1
Mof_C 	C 	0.79214	0.56586	0.64259	0.406
Mof_C 	C 	0.81468	0.52626	0.6565	-0.003
Mof_H 	H 	0.8024	0.5167	0.6473	0.051
Mof_C 	C 	0.93151	0.2463	0.54304	0.42
Mof_C 	C 	0.94624	0.2472	0.51866	-0.114
Mof_C 	C 	0.93314	0.2475	0.49579	0.053
Mof_H 	H 	0.9151	0.2466	0.4956	0.047
Mof_C 	C 	0.94632	0.249	0.47357	-0.109
Mof_C 	C 	0.93162	0.2492	0.44931	0.387
Mof_C 	C 	0.9725	0.25	0.47338	-0.002
Mof_H 	H 	0.9813	0.2514	0.4577	0.049
Mof_C 	C 	0.98598	0.249	0.49617	-0.005
Mof_C 	C 	0.9724	0.2484	0.51882	0.001
Mof_H 	H 	0.9812	0.2489	0.5346	0.049
Mof_O 	O 	0.86707	0.34533	0.77918	-0.486
Mof_C 	C 	0.06176	0.3022	0.61995	0.387
Mof_Zn	Zn	0.6211	0.37599	0.28024	1.221
Mof_Zn	Zn	0.62563	0.38053	0.2228	1.216
Mof_Zn	Zn	0.5721	0.37944	0.25101	1.219
Mof_Zn	Zn	0.60563	0.42958	0.2502	1.22
Mof_Zn	Zn	0.62687	0.26855	0.38138	1.218
Mof_Zn	Zn	0.61624	0.20935	0.38776	1.22
Mof_Zn	Zn	0.57145	0.24644	0.40219	1.22
Mof_Zn	Zn	0.62026	0.24368	0.43576	1.22
Mof_O 	O 	0.61698	0.33831	0.25911	-0.462
Mof_O 	O 	0.62977	0.28185	0.1571	-0.47
Mof_O 	O 	0.61533	0.24299	0.16534	-0.412
Mof_O 	O 	0.62396	0.25524	0.34427	-0.444
Mof_O 	O 	0.6069	0.2167	0.35089	-0.459
Mof_O 	O 	0.61354	0.16219	0.24729	-0.478
Mof_O 	O 	0.6204	0.15316	0.2882	-0.478
Mof_O 	O 	0.59898	0.35969	0.3056	-0.46
Mof_O 	O 	0.5629	0.36345	0.28346	-0.487
Mof_O 	O 	0.59793	0.29365	0.37308	-0.463
Mof_O 	O 	0.56061	0.2768	0.38442	-0.487
Mof_O 	O 	0.44754	0.28107	0.38525	-0.472
Mof_O 	O 	0.41878	0.37288	0.313	-0.455
Mof_O 	O 	0.4483	0.3607	0.28477	-0.477
Mof_O 	O 	0.62521	0.40851	0.30306	-0.459
Mof_O 	O 	0.62207	0.44362	0.27931	-0.489
Mof_O 	O 	0.72343	0.44078	0.361	-0.485
Mof_O 	O 	0.69645	0.40919	0.36974	-0.41
Mof_O 	O 	0.63562	0.59392	0.30126	-0.479
Mof_O 	O 	0.62255	0.55812	0.28118	-0.487
Mof_O 	O 	0.72666	0.55211	0.36254	-0.487
Mof_O 	O 	0.70561	0.58841	0.36267	-0.458
Mof_O 	O 	0.59164	0.2433	0.45932	-0.507
Mof_O 	O 	0.55664	0.24781	0.43654	-0.496
Mof_O 	O 	0.59218	0.24678	0.54881	-0.493
Mof_O 	O 	0.55622	0.25155	0.57135	-0.485
Mof_O 	O 	0.60757	0.243	0.40179	-0.924
Mof_O 	O 	0.60599	0.39306	0.25088	-0.948
Mof_C 	C 	0.6242	0.33172	0.2383	0.392
Mof_C 	C 	0.6233	0.30378	0.2317	-0.088
Mof_C 	C 	0.6242	0.29671	0.2062	0.03
Mof_H 	H 	0.6258	0.3093	0.1933	0.055
Mof_C 	C 	0.6227	0.27135	0.19974	-0.084
Mof_C 	C 	0.6222	0.2649	0.17182	0.369
Mof_C 	C 	0.6211	0.25301	0.2186	-0.015
Mof_H 	H 	0.6204	0.2356	0.214	0.053
Mof_C 	C 	0.6212	0.28524	0.25042	-0.014
Mof_H 	H 	0.6201	0.2902	0.2677	0.054
Mof_C 	C 	0.6206	0.25966	0.24427	0.006
Mof_C 	C 	0.6195	0.2398	0.26454	-0.005
Mof_C 	C 	0.6181	0.21433	0.25858	-0.002
Mof_H 	H 	0.6179	0.2094	0.2412	0.049
Mof_C 	C 	0.6193	0.2459	0.29045	-0.004
Mof_H 	H 	0.6209	0.2632	0.2955	0.049
Mof_C 	C 	0.617	0.2273	0.30893	-0.098
Mof_C 	C 	0.6166	0.2337	0.3368	0.373
Mof_C 	C 	0.6155	0.2026	0.3022	0.05
Mof_H 	H 	0.6133	0.1899	0.3149	0.042
Mof_C 	C 	0.617	0.19569	0.27705	-0.104
Mof_C 	C 	0.6164	0.16802	0.2701	0.391
Mof_C 	C 	0.57547	0.35589	0.30218	0.388
Mof_C 	C 	0.56134	0.34154	0.32238	-0.095
Mof_C 	C 	0.57452	0.32584	0.33891	0.043
Mof_H 	H 	0.5926	0.3252	0.3386	0.048
Mof_C 	C 	0.56073	0.31099	0.35589	-0.101
Mof_C 	C 	0.57429	0.29229	0.37251	0.401
Mof_C 	C 	0.53454	0.31291	0.35711	-0.006
Mof_H 	H 	0.5254	0.3031	0.3692	0.053
Mof_C 	C 	0.53495	0.34303	0.32334	-0.009
Mof_H 	H 	0.5262	0.3538	0.3118	0.053
Mof_C 	C 	0.5215	0.32904	0.3408	0.002
Mof_C 	C 	0.49269	0.33082	0.34241	-0.003
Mof_C 	C 	0.479	0.31695	0.36021	-0.003
Mof_H 	H 	0.4878	0.3059	0.3715	0.05
Mof_C 	C 	0.45256	0.31887	0.36181	-0.098
Mof_O 	O 	0.41729	0.31034	0.3883	-0.457
Mof_C 	C 	0.43961	0.3347	0.34543	0.05
Mof_H 	H 	0.4217	0.3368	0.347	0.037
Mof_C 	C 	0.45289	0.3474	0.3268	-0.101
Mof_C 	C 	0.4388	0.362	0.3072	0.38
Mof_C 	C 	0.47876	0.3453	0.3253	-0
Mof_H 	H 	0.4875	0.354	0.3121	0.049
Mof_C 	C 	0.6295	0.431	0.2988	0.385
Mof_C 	C 	0.6467	0.4451	0.3169	-0.091
Mof_C 	C 	0.6631	0.43122	0.3322	0.031
Mof_H 	H 	0.6619	0.4132	0.3332	0.047
Mof_C 	C 	0.6815	0.44433	0.346	-0.085
Mof_C 	C 	0.7015	0.43015	0.3605	0.363
Mof_C 	C 	0.6821	0.47095	0.3451	-0.015
Mof_H 	H 	0.6946	0.4797	0.3547	0.053
Mof_C 	C 	0.64782	0.47182	0.3162	-0.015
Mof_H 	H 	0.6365	0.4809	0.3055	0.053
Mof_C 	C 	0.66499	0.48495	0.3308	0.006
Mof_C 	C 	0.66644	0.51376	0.3303	-0.005
Mof_C 	C 	0.64978	0.52835	0.31577	-0.004
Mof_H 	H 	0.6371	0.52	0.3059	0.049
Mof_C 	C 	0.65116	0.55464	0.31528	-0.098
Mof_C 	C 	0.63485	0.56979	0.2978	0.382
Mof_C 	C 	0.6692	0.56715	0.32961	0.042
Mof_H 	H 	0.6698	0.5852	0.33	0.047
Mof_C 	C 	0.68662	0.55246	0.34361	-0.1
Mof_C 	C 	0.70786	0.56586	0.35741	0.406
Mof_C 	C 	0.68532	0.52626	0.3435	-0.003
Mof_H 	H 	0.6976	0.5167	0.3527	0.051
Mof_C 	C 	0.56849	0.2463	0.45696	0.42
Mof_C 	C 	0.55376	0.2472	0.48134	-0.114
Mof_C 	C 	0.56686	0.2475	0.50421	0.053
Mof_H 	H 	0.5849	0.2466	0.5044	0.047
Mof_C 	C 	0.55368	0.249	0.52643	-0.109
Mof_C 	C 	0.56838	0.2492	0.55069	0.387
Mof_C 	C 	0.5275	0.25	0.52662	-0.002
Mof_H 	H 	0.5187	0.2514	0.5423	0.049
Mof_C 	C 	0.51402	0.249	0.50383	-0.005
Mof_C 	C 	0.5276	0.2484	0.48118	0.001
Mof_H 	H 	0.5188	0.2489	0.4654	0.049
Mof_O 	O 	0.63293	0.34533	0.22082	-0.486
Mof_C 	C 	0.43824	0.3022	0.38005	0.387
Mof_Zn	Zn	0.1211	0.87599	0.78024	1.221
Mof_Zn	Zn	0.12563	0.88053	0.7228	1.216
Mof_Zn	Zn	0.0721	0.87944	0.75101	1.219
Mof_Zn	Zn	0.10563	0.92958	0.7502	1.22
Mof_Zn	Zn	0.12687	0.76855	0.88138	1.218
Mof_Zn	Zn	0.11624	0.70935	0.88776	1.22
Mof_Zn	Zn	0.07145	0.74644	0.90219	1.22
Mof_Zn	Zn	0.12026	0.74368	0.93576	1.22
Mof_O 	O 	0.11698	0.83831	0.75911	-0.462
Mof_O 	O 	0.12977	0.78185	0.6571	-0.47
Mof_O 	O 	0.11533	0.74299	0.66534	-0.412
Mof_O 	O 	0.12396	0.75524	0.84427	-0.444
Mof_O 	O 	0.1069	0.7167	0.85089	-0.459
Mof_O 	O 	0.11354	0.66219	0.74729	-0.478
Mof_O 	O 	0.1204	0.65316	0.7882	-0.478
Mof_O 	O 	0.09898	0.85969	0.8056	-0.46
Mof_O 	O 	0.0629	0.86345	0.78346	-0.487
Mof_O 	O 	0.09793	0.79365	0.87308	-0.463
Mof_O 	O 	0.06061	0.7768	0.88442	-0.487
Mof_O 	O 	0.94754	0.78107	0.88525	-0.472
Mof_O 	O 	0.91878	0.87288	0.813	-0.455
Mof_O 	O 	0.9483	0.8607	0.78477	-0.477
Mof_O 	O 	0.12521	0.90851	0.80306	-0.459
Mof_O 	O 	0.12207	0.94362	0.77931	-0.489
Mof_O 	O 	0.22343	0.94078	0.861	-0.485
Mof_O 	O 	0.19645	0.90919	0.86974	-0.41
Mof_O 	O 	0.13562	0.09392	0.80126	-0.479
Mof_O 	O 	0.12255	0.05812	0.78118	-0.487
Mof_O 	O 	0.22666	0.05211	0.86254	-0.487
Mof_O 	O 	0.20561	0.08841	0.86267	-0.458
Mof_O 	O 	0.09164	0.7433	0.95932	-0.507
Mof_O 	O 	0.05664	0.74781	0.93654	-0.496
Mof_O 	O 	0.09218	0.74678	0.04881	-0.493
Mof_O 	O 	0.05622	0.75155	0.07135	-0.485
Mof_O 	O 	0.10757	0.743	0.90179	-0.924
Mof_O 	O 	0.10599	0.89306	0.75088	-0.948
Mof_C 	C 	0.1242	0.83172	0.7383	0.392
Mof_C 	C 	0.1233	0.80378	0.7317	-0.088
Mof_C 	C 	0.1242	0.79671	0.7062	0.03
Mof_H 	H 	0.1258	0.8093	0.6933	0.055
Mof_C 	C 	0.1227	0.77135	0.69974	-0.084
Mof_C 	C 	0.1222	0.7649	0.67182	0.369
Mof_C 	C 	0.1211	0.75301	0.7186	-0.015
Mof_H 	H 	0.1204	0.7356	0.714	0.053
Mof_C 	C 	0.1212	0.78524	0.75042	-0.014
Mof_H 	H 	0.1201	0.7902	0.7677	0.054
Mof_C 	C 	0.1206	0.75966	0.74427	0.006
Mof_C 	C 	0.1195	0.7398	0.76454	-0.005
Mof_C 	C 	0.1181	0.71433	0.75858	-0.002
Mof_H 	H 	0.1179	0.7094	0.7412	0.049
Mof_C 	C 	0.1193	0.7459	0.79045	-0.004
Mof_H 	H 	0.1209	0.7632	0.7955	0.049
Mof_C 	C 	0.117	0.7273	0.80893	-0.098
Mof_C 	C 	0.1166	0.7337	0.8368	0.373
Mof_C 	C 	0.1155	0.7026	0.8022	0.05
Mof_H 	H 	0.1133	0.6899	0.8149	0.042
Mof_C 	C 	0.117	0.69569	0.77705	-0.104
Mof_C 	C 	0.1164	0.66802	0.7701	0.391
Mof_C 	C 	0.07547	0.85589	0.80218	0.388
Mof_C 	C 	0.06134	0.84154	0.82238	-0.095
Mof_C 	C 	0.07452	0.82584	0.83891	0.043
Mof_H 	H 	0.0926	0.8252	0.8386	0.048
Mof_C 	C 	0.06073	0.81099	0.85589	-0.101
Mof_C 	C 	0.07429	0.79229	0.87251	0.401
Mof_C 	C 	0.03454	0.81291	0.85711	-0.006
Mof_H 	H 	0.0254	0.8031	0.8692	0.053
Mof_C 	C 	0.03495	0.84303	0.82334	-0.009
Mof_H 	H 	0.0262	0.8538	0.8118	0.053
Mof_C 	C 	0.0215	0.82904	0.8408	0.002
Mof_C 	C 	0.99269	0.83082	0.84241	-0.003
Mof_C 	C 	0.979	0.81695	0.86021	-0.003
Mof_H 	H 	0.9878	0.8059	0.8715	0.05
Mof_C 	C 	0.95256	0.81887	0.86181	-0.098
Mof_O 	O 	0.91729	0.81034	0.8883	-0.457
Mof_C 	C 	0.93961	0.8347	0.84543	0.05
Mof_H 	H 	0.9217	0.8368	0.847	0.037
Mof_C 	C 	0.95289	0.8474	0.8268	-0.101
Mof_C 	C 	0.9388	0.862	0.8072	0.38
Mof_C 	C 	0.97876	0.8453	0.8253	-0
Mof_H 	H 	0.9875	0.854	0.8121	0.049
Mof_C 	C 	0.1295	0.931	0.7988	0.385
Mof_C 	C 	0.1467	0.9451	0.8169	-0.091
Mof_C 	C 	0.1631	0.93122	0.8322	0.031
Mof_H 	H 	0.1619	0.9132	0.8332	0.047
Mof_C 	C 	0.1815	0.94433	0.846	-0.085
Mof_C 	C 	0.2015	0.93015	0.8605	0.363
Mof_C 	C 	0.1821	0.97095	0.8451	-0.015
Mof_H 	H 	0.1946	0.9797	0.8547	0.053
Mof_C 	C 	0.14782	0.97182	0.8162	-0.015
Mof_H 	H 	0.1365	0.9809	0.8055	0.053
Mof_C 	C 	0.16499	0.98495	0.8308	0.006
Mof_C 	C 	0.16644	0.01376	0.8303	-0.005
Mof_C 	C 	0.14978	0.02835	0.81577	-0.004
Mof_H 	H 	0.1371	0.02	0.8059	0.049
Mof_C 	C 	0.15116	0.05464	0.81528	-0.098
Mof_C 	C 	0.13485	0.06979	0.7978	0.382
Mof_C 	C 	0.1692	0.06715	0.82961	0.042
Mof_H 	H 	0.1698	0.0852	0.83	0.047
Mof_C 	C 	0.18662	0.05246	0.84361	-0.1
Mof_C 	C 	0.20786	0.06586	0.85741	0.406
Mof_C 	C 	0.18532	0.02626	0.8435	-0.003
Mof_H 	H 	0.1976	0.0167	0.8527	0.051
Mof_C 	C 	0.06849	0.7463	0.95696	0.42
Mof_C 	C 	0.05376	0.7472	0.98134	-0.114
Mof_C 	C 	0.06686	0.7475	0.00421	0.053
Mof_H 	H 	0.0849	0.7466	0.0044	0.047
Mof_C 	C 	0.05368	0.749	0.02643	-0.109
Mof_C 	C 	0.06838	0.7492	0.05069	0.387
Mof_C 	C 	0.0275	0.75	0.02662	-0.002
Mof_H 	H 	0.0187	0.7514	0.0423	0.049
Mof_C 	C 	0.01402	0.749	0.00383	-0.005
Mof_C 	C 	0.0276	0.7484	0.98118	0.001
Mof_H 	H 	0.0188	0.7489	0.9654	0.049
Mof_O 	O 	0.13293	0.84533	0.72082	-0.486
Mof_C 	C 	0.93824	0.8022	0.88005	0.387
Mof_Zn	Zn	0.8789	0.62401	0.78024	1.221
Mof_Zn	Zn	0.87437	0.61947	0.7228	1.216
Mof_Zn	Zn	0.9279	0.62056	0.75101	1.219
Mof_Zn	Zn	0.89437	0.57042	0.7502	1.22
Mof_Zn	Zn	0.87313	0.73145	0.88138	1.218
Mof_Zn	Zn	0.88376	0.79065	0.88776	1.22
Mof_Zn	Zn	0.92855	0.75356	0.90219	1.22
Mof_Zn	Zn	0.87974	0.75632	0.93576	1.22
Mof_O 	O 	0.88302	0.66169	0.75911	-0.462
Mof_O 	O 	0.87023	0.71815	0.6571	-0.47
Mof_O 	O 	0.88467	0.75701	0.66534	-0.412
Mof_O 	O 	0.87604	0.74476	0.84427	-0.444
Mof_O 	O 	0.8931	0.7833	0.85089	-0.459
Mof_O 	O 	0.88646	0.83781	0.74729	-0.478
Mof_O 	O 	0.8796	0.84684	0.7882	-0.478
Mof_O 	O 	0.90102	0.64031	0.8056	-0.46
Mof_O 	O 	0.9371	0.63655	0.78346	-0.487
Mof_O 	O 	0.90207	0.70635	0.87308	-0.463
Mof_O 	O 	0.93939	0.7232	0.88442	-0.487
Mof_O 	O 	0.05246	0.71893	0.88525	-0.472
Mof_O 	O 	0.08122	0.62712	0.813	-0.455
Mof_O 	O 	0.0517	0.6393	0.78477	-0.477
Mof_O 	O 	0.87479	0.59149	0.80306	-0.459
Mof_O 	O 	0.87793	0.55638	0.77931	-0.489
Mof_O 	O 	0.77657	0.55922	0.861	-0.485
Mof_O 	O 	0.80355	0.59081	0.86974	-0.41
Mof_O 	O 	0.86438	0.40608	0.80126	-0.479
Mof_O 	O 	0.87745	0.44188	0.78118	-0.487
Mof_O 	O 	0.77334	0.44789	0.86254	-0.487
Mof_O 	O 	0.79439	0.41159	0.86267	-0.458
Mof_O 	O 	0.90836	0.7567	0.95932	-0.507
Mof_O 	O 	0.94336	0.75219	0.93654	-0.496
Mof_O 	O 	0.90782	0.75322	0.04881	-0.493
Mof_O 	O 	0.94378	0.74845	0.07135	-0.485
Mof_O 	O 	0.89243	0.757	0.90179	-0.924
Mof_O 	O 	0.89401	0.60694	0.75088	-0.948
Mof_C 	C 	0.8758	0.66828	0.7383	0.392
Mof_C 	C 	0.8767	0.69622	0.7317	-0.088
Mof_C 	C 	0.8758	0.70329	0.7062	0.03
Mof_H 	H 	0.8742	0.6907	0.6933	0.055
Mof_C 	C 	0.8773	0.72865	0.69974	-0.084
Mof_C 	C 	0.8778	0.7351	0.67182	0.369
Mof_C 	C 	0.8789	0.74699	0.7186	-0.015
Mof_H 	H 	0.8796	0.7644	0.714	0.053
Mof_C 	C 	0.8788	0.71476	0.75042	-0.014
Mof_H 	H 	0.8799	0.7098	0.7677	0.054
Mof_C 	C 	0.8794	0.74034	0.74427	0.006
Mof_C 	C 	0.8805	0.7602	0.76454	-0.005
Mof_C 	C 	0.8819	0.78567	0.75858	-0.002
Mof_H 	H 	0.8821	0.7906	0.7412	0.049
Mof_C 	C 	0.8807	0.7541	0.79045	-0.004
Mof_H 	H 	0.8791	0.7368	0.7955	0.049
Mof_C 	C 	0.883	0.7727	0.80893	-0.098
Mof_C 	C 	0.8834	0.7663	0.8368	0.373
Mof_C 	C 	0.8845	0.7974	0.8022	0.05
Mof_H 	H 	0.8867	0.8101	0.8149	0.042
Mof_C 	C 	0.883	0.80431	0.77705	-0.104
Mof_C 	C 	0.8836	0.83198	0.7701	0.391
Mof_C 	C 	0.92453	0.64411	0.80218	0.388
Mof_C 	C 	0.93866	0.65846	0.82238	-0.095
Mof_C 	C 	0.92548	0.67416	0.83891	0.043
Mof_H 	H 	0.9074	0.6748	0.8386	0.048
Mof_C 	C 	0.93927	0.68901	0.85589	-0.101
Mof_C 	C 	0.92571	0.70771	0.87251	0.401
Mof_C 	C 	0.96546	0.68709	0.85711	-0.006
Mof_H 	H 	0.9746	0.6969	0.8692	0.053
Mof_C 	C 	0.96505	0.65697	0.82334	-0.009
Mof_H 	H 	0.9738	0.6462	0.8118	0.053
Mof_C 	C 	0.9785	0.67096	0.8408	0.002
Mof_C 	C 	0.00731	0.66918	0.84241	-0.003
Mof_C 	C 	0.021	0.68305	0.86021	-0.003
Mof_H 	H 	0.0122	0.6941	0.8715	0.05
Mof_C 	C 	0.04744	0.68113	0.86181	-0.098
Mof_O 	O 	0.08271	0.68966	0.8883	-0.457
Mof_C 	C 	0.06039	0.6653	0.84543	0.05
Mof_H 	H 	0.0783	0.6632	0.847	0.037
Mof_C 	C 	0.04711	0.6526	0.8268	-0.101
Mof_C 	C 	0.0612	0.638	0.8072	0.38
Mof_C 	C 	0.02124	0.6547	0.8253	-0
Mof_H 	H 	0.0125	0.646	0.8121	0.049
Mof_C 	C 	0.8705	0.569	0.7988	0.385
Mof_C 	C 	0.8533	0.5549	0.8169	-0.091
Mof_C 	C 	0.8369	0.56878	0.8322	0.031
Mof_H 	H 	0.8381	0.5868	0.8332	0.047
Mof_C 	C 	0.8185	0.55567	0.846	-0.085
Mof_C 	C 	0.7985	0.56985	0.8605	0.363
Mof_C 	C 	0.8179	0.52905	0.8451	-0.015
Mof_H 	H 	0.8054	0.5203	0.8547	0.053
Mof_C 	C 	0.85218	0.52818	0.8162	-0.015
Mof_H 	H 	0.8635	0.5191	0.8055	0.053
Mof_C 	C 	0.83501	0.51505	0.8308	0.006
Mof_C 	C 	0.83356	0.48624	0.8303	-0.005
Mof_C 	C 	0.85022	0.47165	0.81577	-0.004
Mof_H 	H 	0.8629	0.48	0.8059	0.049
Mof_C 	C 	0.84884	0.44536	0.81528	-0.098
Mof_C 	C 	0.86515	0.43021	0.7978	0.382
Mof_C 	C 	0.8308	0.43285	0.82961	0.042
Mof_H 	H 	0.8302	0.4148	0.83	0.047
Mof_C 	C 	0.81338	0.44754	0.84361	-0.1
Mof_C 	C 	0.79214	0.43414	0.85741	0.406
Mof_C 	C 	0.81468	0.47374	0.8435	-0.003
Mof_H 	H 	0.8024	0.4833	0.8527	0.051
Mof_C 	C 	0.93151	0.7537	0.95696	0.42
Mof_C 	C 	0.94624	0.7528	0.98134	-0.114
Mof_C 	C 	0.93314	0.7525	0.00421	0.053
Mof_H 	H 	0.9151	0.7534	0.0044	0.047
Mof_C 	C 	0.94632	0.751	0.02643	-0.109
Mof_C 	C 	0.93162	0.7508	0.05069	0.387
Mof_C 	C 	0.9725	0.75	0.02662	-0.002
Mof_H 	H 	0.9813	0.7486	0.0423	0.049
Mof_C 	C 	0.98598	0.751	0.00383	-0.005
Mof_C 	C 	0.9724	0.7516	0.98118	0.001
Mof_H 	H 	0.9812	0.7511	0.9654	0.049
Mof_O 	O 	0.86707	0.65467	0.72082	-0.486
Mof_C 	C 	0.06176	0.6978	0.88005	0.387
Mof_Zn	Zn	0.3789	0.12401	0.28024	1.221
Mof_Zn	Zn	0.37437	0.11947	0.2228	1.216
Mof_Zn	Zn	0.4279	0.12056	0.25101	1.219
Mof_Zn	Zn	0.39437	0.07042	0.2502	1.22
Mof_Zn	Zn	0.37313	0.23145	0.38138	1.218
Mof_Zn	Zn	0.38376	0.29065	0.38776	1.22
Mof_Zn	Zn	0.42855	0.25356	0.40219	1.22
Mof_Zn	Zn	0.37974	0.25632	0.43576	1.22
Mof_O 	O 	0.38302	0.16169	0.25911	-0.462
Mof_O 	O 	0.37023	0.21815	0.1571	-0.47
Mof_O 	O 	0.38467	0.25701	0.16534	-0.412
Mof_O 	O 	0.37604	0.24476	0.34427	-0.444
Mof_O 	O 	0.3931	0.2833	0.35089	-0.459
Mof_O 	O 	0.38646	0.33781	0.24729	-0.478
Mof_O 	O 	0.3796	0.34684	0.2882	-0.478
Mof_O 	O 	0.40102	0.14031	0.3056	-0.46
Mof_O 	O 	0.4371	0.13655	0.28346	-0.487
Mof_O 	O 	0.40207	0.20635	0.37308	-0.463
Mof_O 	O 	0.43939	0.2232	0.38442	-0.487
Mof_O 	O 	0.55246	0.21893	0.38525	-0.472
Mof_O 	O 	0.58122	0.12712	0.313	-0.455
Mof_O 	O 	0.5517	0.1393	0.28477	-0.477
Mof_O 	O 	0.37479	0.09149	0.30306	-0.459
Mof_O 	O 	0.37793	0.05638	0.27931	-0.489
Mof_O 	O 	0.27657	0.05922	0.361	-0.485
Mof_O 	O 	0.30355	0.09081	0.36974	-0.41
Mof_O 	O 	0.36438	0.90608	0.30126	-0.479
Mof_O 	O 	0.37745	0.94188	0.28118	-0.487
Mof_O 	O 	0.27334	0.94789	0.36254	-0.487
Mof_O 	O 	0.29439	0.91159	0.36267	-0.458
Mof_O 	O 	0.40836	0.2567	0.45932	-0.507
Mof_O 	O 	0.44336	0.25219	0.43654	-0.496
Mof_O 	O 	0.40782	0.25322	0.54881	-0.493
Mof_O 	O 	0.44378	0.24845	0.57135	-0.485
Mof_O 	O 	0.39243	0.257	0.40179	-0.924
Mof_O 	O 	0.39401	0.10694	0.25088	-0.948
Mof_C 	C 	0.3758	0.16828	0.2383	0.392
Mof_C 	C 	0.3767	0.19622	0.2317	-0.088
Mof_C 	C 	0.3758	0.20329	0.2062	0.03
Mof_H 	H 	0.3742	0.1907	0.1933	0.055
Mof_C 	C 	0.3773	0.22865	0.19974	-0.084
Mof_C 	C 	0.3778	0.2351	0.17182	0.369
Mof_C 	C 	0.3789	0.24699	0.2186	-0.015
Mof_H 	H 	0.3796	0.2644	0.214	0.053
Mof_C 	C 	0.3788	0.21476	0.25042	-0.014
Mof_H 	H 	0.3799	0.2098	0.2677	0.054
Mof_C 	C 	0.3794	0.24034	0.24427	0.006
Mof_C 	C 	0.3805	0.2602	0.26454	-0.005
Mof_C 	C 	0.3819	0.28567	0.25858	-0.002
Mof_H 	H 	0.3821	0.2906	0.2412	0.049
Mof_C 	C 	0.3807	0.2541	0.29045	-0.004
Mof_H 	H 	0.3791	0.2368	0.2955	0.049
Mof_C 	C 	0.383	0.2727	0.30893	-0.098
Mof_C 	C 	0.3834	0.2663	0.3368	0.373
Mof_C 	C 	0.3845	0.2974	0.3022	0.05
Mof_H 	H 	0.3867	0.3101	0.3149	0.042
Mof_C 	C 	0.383	0.30431	0.27705	-0.104
Mof_C 	C 	0.3836	0.33198	0.2701	0.391
Mof_C 	C 	0.42453	0.14411	0.30218	0.388
Mof_C 	C 	0.43866	0.15846	0.32238	-0.095
Mof_C 	C 	0.42548	0.17416	0.33891	0.043
Mof_H 	H 	0.4074	0.1748	0.3386	0.048
Mof_C 	C 	0.43927	0.18901	0.35589	-0.101
Mof_C 	C 	0.42571	0.20771	0.37251	0.401
Mof_C 	C 	0.46546	0.18709	0.35711	-0.006
Mof_H 	H 	0.4746	0.1969	0.3692	0.053
Mof_C 	C 	0.46505	0.15697	0.32334	-0.009
Mof_H 	H 	0.4738	0.1462	0.3118	0.053
Mof_C 	C 	0.4785	0.17096	0.3408	0.002
Mof_C 	C 	0.50731	0.16918	0.34241	-0.003
Mof_C 	C 	0.521	0.18305	0.36021	-0.003
Mof_H 	H 	0.5122	0.1941	0.3715	0.05
Mof_C 	C 	0.54744	0.18113	0.36181	-0.098
Mof_O 	O 	0.58271	0.18966	0.3883	-0.457
Mof_C 	C 	0.56039	0.1653	0.34543	0.05
Mof_H 	H 	0.5783	0.1632	0.347	0.037
Mof_C 	C 	0.54711	0.1526	0.3268	-0.101
Mof_C 	C 	0.5612	0.138	0.3072	0.38
Mof_C 	C 	0.52124	0.1547	0.3253	-0
Mof_H 	H 	0.5125	0.146	0.3121	0.049
Mof_C 	C 	0.3705	0.069	0.2988	0.385
Mof_C 	C 	0.3533	0.0549	0.3169	-0.091
Mof_C 	C 	0.3369	0.06878	0.3322	0.031
Mof_H 	H 	0.3381	0.0868	0.3332	0.047
Mof_C 	C 	0.3185	0.05567	0.346	-0.085
Mof_C 	C 	0.2985	0.06985	0.3605	0.363
Mof_C 	C 	0.3179	0.02905	0.3451	-0.015
Mof_H 	H 	0.3054	0.0203	0.3547	0.053
Mof_C 	C 	0.35218	0.02818	0.3162	-0.015
Mof_H 	H 	0.3635	0.0191	0.3055	0.053
Mof_C 	C 	0.33501	0.01505	0.3308	0.006
Mof_C 	C 	0.33356	0.98624	0.3303	-0.005
Mof_C 	C 	0.35022	0.97165	0.31577	-0.004
Mof_H 	H 	0.3629	0.98	0.3059	0.049
Mof_C 	C 	0.34884	0.94536	0.31528	-0.098
Mof_C 	C 	0.36515	0.93021	0.2978	0.382
Mof_C 	C 	0.3308	0.93285	0.32961	0.042
Mof_H 	H 	0.3302	0.9148	0.33	0.047
Mof_C 	C 	0.31338	0.94754	0.34361	-0.1
Mof_C 	C 	0.29214	0.93414	0.35741	0.406
Mof_C 	C 	0.31468	0.97374	0.3435	-0.003
Mof_H 	H 	0.3024	0.9833	0.3527	0.051
Mof_C 	C 	0.43151	0.2537	0.45696	0.42
Mof_C 	C 	0.44624	0.2528	0.48134	-0.114
Mof_C 	C 	0.43314	0.2525	0.50421	0.053
Mof_H 	H 	0.4151	0.2534	0.5044	0.047
Mof_C 	C 	0.44632	0.251	0.52643	-0.109
Mof_C 	C 	0.43162	0.2508	0.55069	0.387
Mof_C 	C 	0.4725	0.25	0.52662	-0.002
Mof_H 	H 	0.4813	0.2486	0.5423	0.049
Mof_C 	C 	0.48598	0.251	0.50383	-0.005
Mof_C 	C 	0.4724	0.2516	0.48118	0.001
Mof_H 	H 	0.4812	0.2511	0.4654	0.049
Mof_O 	O 	0.36707	0.15467	0.22082	-0.486
Mof_C 	C 	0.56176	0.1978	0.38005	0.387
Mof_Zn	Zn	0.1211	0.12401	0.71976	1.221
Mof_Zn	Zn	0.12563	0.11947	0.7772	1.216
Mof_Zn	Zn	0.0721	0.12056	0.74899	1.219
Mof_Zn	Zn	0.10563	0.07042	0.7498	1.22
Mof_Zn	Zn	0.12687	0.23145	0.61862	1.218
Mof_Zn	Zn	0.11624	0.29065	0.61224	1.22
Mof_Zn	Zn	0.07145	0.25356	0.59781	1.22
Mof_Zn	Zn	0.12026	0.25632	0.56424	1.22
Mof_O 	O 	0.11698	0.16169	0.74089	-0.462
Mof_O 	O 	0.12977	0.21815	0.8429	-0.47
Mof_O 	O 	0.11533	0.25701	0.83466	-0.412
Mof_O 	O 	0.12396	0.24476	0.65573	-0.444
Mof_O 	O 	0.1069	0.2833	0.64911	-0.459
Mof_O 	O 	0.11354	0.33781	0.75271	-0.478
Mof_O 	O 	0.1204	0.34684	0.7118	-0.478
Mof_O 	O 	0.09898	0.14031	0.6944	-0.46
Mof_O 	O 	0.0629	0.13655	0.71654	-0.487
Mof_O 	O 	0.09793	0.20635	0.62692	-0.463
Mof_O 	O 	0.06061	0.2232	0.61558	-0.487
Mof_O 	O 	0.94754	0.21893	0.61475	-0.472
Mof_O 	O 	0.91878	0.12712	0.687	-0.455
Mof_O 	O 	0.9483	0.1393	0.71523	-0.477
Mof_O 	O 	0.12521	0.09149	0.69694	-0.459
Mof_O 	O 	0.12207	0.05638	0.72069	-0.489
Mof_O 	O 	0.22343	0.05922	0.639	-0.485
Mof_O 	O 	0.19645	0.09081	0.63026	-0.41
Mof_O 	O 	0.13562	0.90608	0.69874	-0.479
Mof_O 	O 	0.12255	0.94188	0.71882	-0.487
Mof_O 	O 	0.22666	0.94789	0.63746	-0.487
Mof_O 	O 	0.20561	0.91159	0.63733	-0.458
Mof_O 	O 	0.09164	0.2567	0.54068	-0.507
Mof_O 	O 	0.05664	0.25219	0.56346	-0.496
Mof_O 	O 	0.09218	0.25322	0.45119	-0.493
Mof_O 	O 	0.05622	0.24845	0.42865	-0.485
Mof_O 	O 	0.10757	0.257	0.59821	-0.924
Mof_O 	O 	0.10599	0.10694	0.74912	-0.948
Mof_C 	C 	0.1242	0.16828	0.7617	0.392
Mof_C 	C 	0.1233	0.19622	0.7683	-0.088
Mof_C 	C 	0.1242	0.20329	0.7938	0.03
Mof_H 	H 	0.1258	0.1907	0.8067	0.055
Mof_C 	C 	0.1227	0.22865	0.80026	-0.084
Mof_C 	C 	0.1222	0.2351	0.82818	0.369
Mof_C 	C 	0.1211	0.24699	0.7814	-0.015
Mof_H 	H 	0.1204	0.2644	0.786	0.053
Mof_C 	C 	0.1212	0.21476	0.74958	-0.014
Mof_H 	H 	0.1201	0.2098	0.7323	0.054
Mof_C 	C 	0.1206	0.24034	0.75573	0.006
Mof_C 	C 	0.1195	0.2602	0.73546	-0.005
Mof_C 	C 	0.1181	0.28567	0.74142	-0.002
Mof_H 	H 	0.1179	0.2906	0.7588	0.049
Mof_C 	C 	0.1193	0.2541	0.70955	-0.004
Mof_H 	H 	0.1209	0.2368	0.7045	0.049
Mof_C 	C 	0.117	0.2727	0.69107	-0.098
Mof_C 	C 	0.1166	0.2663	0.6632	0.373
Mof_C 	C 	0.1155	0.2974	0.6978	0.05
Mof_H 	H 	0.1133	0.3101	0.6851	0.042
Mof_C 	C 	0.117	0.30431	0.72295	-0.104
Mof_C 	C 	0.1164	0.33198	0.7299	0.391
Mof_C 	C 	0.07547	0.14411	0.69782	0.388
Mof_C 	C 	0.06134	0.15846	0.67762	-0.095
Mof_C 	C 	0.07452	0.17416	0.66109	0.043
Mof_H 	H 	0.0926	0.1748	0.6614	0.048
Mof_C 	C 	0.06073	0.18901	0.64411	-0.101
Mof_C 	C 	0.07429	0.20771	0.62749	0.401
Mof_C 	C 	0.03454	0.18709	0.64289	-0.006
Mof_H 	H 	0.0254	0.1969	0.6308	0.053
Mof_C 	C 	0.03495	0.15697	0.67666	-0.009
Mof_H 	H 	0.0262	0.1462	0.6882	0.053
Mof_C 	C 	0.0215	0.17096	0.6592	0.002
Mof_C 	C 	0.99269	0.16918	0.65759	-0.003
Mof_C 	C 	0.979	0.18305	0.63979	-0.003
Mof_H 	H 	0.9878	0.1941	0.6285	0.05
Mof_C 	C 	0.95256	0.18113	0.63819	-0.098
Mof_O 	O 	0.91729	0.18966	0.6117	-0.457
Mof_C 	C 	0.93961	0.1653	0.65457	0.05
Mof_H 	H 	0.9217	0.1632	0.653	0.037
Mof_C 	C 	0.95289	0.1526	0.6732	-0.101
Mof_C 	C 	0.9388	0.138	0.6928	0.38
Mof_C 	C 	0.97876	0.1547	0.6747	-0
Mof_H 	H 	0.9875	0.146	0.6879	0.049
Mof_C 	C 	0.1295	0.069	0.7012	0.385
Mof_C 	C 	0.1467	0.0549	0.6831	-0.091
Mof_C 	C 	0.1631	0.06878	0.6678	0.031
Mof_H 	H 	0.1619	0.0868	0.6668	0.047
Mof_C 	C 	0.1815	0.05567	0.654	-0.085
Mof_C 	C 	0.2015	0.06985	0.6395	0.363
Mof_C 	C 	0.1821	0.02905	0.6549	-0.015
Mof_H 	H 	0.1946	0.0203	0.6453	0.053
Mof_C 	C 	0.14782	0.02818	0.6838	-0.015
Mof_H 	H 	0.1365	0.0191	0.6945	0.053
Mof_C 	C 	0.16499	0.01505	0.6692	0.006
Mof_C 	C 	0.16644	0.98624	0.6697	-0.005
Mof_C 	C 	0.14978	0.97165	0.68423	-0.004
Mof_H 	H 	0.1371	0.98	0.6941	0.049
Mof_C 	C 	0.15116	0.94536	0.68472	-0.098
Mof_C 	C 	0.13485	0.93021	0.7022	0.382
Mof_C 	C 	0.1692	0.93285	0.67039	0.042
Mof_H 	H 	0.1698	0.9148	0.67	0.047
Mof_C 	C 	0.18662	0.94754	0.65639	-0.1
Mof_C 	C 	0.20786	0.93414	0.64259	0.406
Mof_C 	C 	0.18532	0.97374	0.6565	-0.003
Mof_H 	H 	0.1976	0.9833	0.6473	0.051
Mof_C 	C 	0.06849	0.2537	0.54304	0.42
Mof_C 	C 	0.05376	0.2528	0.51866	-0.114
Mof_C 	C 	0.06686	0.2525	0.49579	0.053
Mof_H 	H 	0.0849	0.2534	0.4956	0.047
Mof_C 	C 	0.05368	0.251	0.47357	-0.109
Mof_C 	C 	0.06838	0.2508	0.44931	0.387
Mof_C 	C 	0.0275	0.25	0.47338	-0.002
Mof_H 	H 	0.0187	0.2486	0.4577	0.049
Mof_C 	C 	0.01402	0.251	0.49617	-0.005
Mof_C 	C 	0.0276	0.2516	0.51882	0.001
Mof_H 	H 	0.0188	0.2511	0.5346	0.049
Mof_O 	O 	0.13293	0.15467	0.77918	-0.486
Mof_C 	C 	0.93824	0.1978	0.61995	0.387
Mof_Zn	Zn	0.6211	0.62401	0.21976	1.221
Mof_Zn	Zn	0.62563	0.61947	0.2772	1.216
Mof_Zn	Zn	0.5721	0.62056	0.24899	1.219
Mof_Zn	Zn	0.60563	0.57042	0.2498	1.22
Mof_Zn	Zn	0.62687	0.73145	0.11862	1.218
Mof_Zn	Zn	0.61624	0.79065	0.11224	1.22
Mof_Zn	Zn	0.57145	0.75356	0.09781	1.22
Mof_Zn	Zn	0.62026	0.75632	0.06424	1.22
Mof_O 	O 	0.61698	0.66169	0.24089	-0.462
Mof_O 	O 	0.62977	0.71815	0.3429	-0.47
Mof_O 	O 	0.61533	0.75701	0.33466	-0.412
Mof_O 	O 	0.62396	0.74476	0.15573	-0.444
Mof_O 	O 	0.6069	0.7833	0.14911	-0.459
Mof_O 	O 	0.61354	0.83781	0.25271	-0.478
Mof_O 	O 	0.6204	0.84684	0.2118	-0.478
Mof_O 	O 	0.59898	0.64031	0.1944	-0.46
Mof_O 	O 	0.5629	0.63655	0.21654	-0.487
Mof_O 	O 	0.59793	0.70635	0.12692	-0.463
Mof_O 	O 	0.56061	0.7232	0.11558	-0.487
Mof_O 	O 	0.44754	0.71893	0.11475	-0.472
Mof_O 	O 	0.41878	0.62712	0.187	-0.455
Mof_O 	O 	0.4483	0.6393	0.21523	-0.477
Mof_O 	O 	0.62521	0.59149	0.19694	-0.459
Mof_O 	O 	0.62207	0.55638	0.22069	-0.489
Mof_O 	O 	0.72343	0.55922	0.139	-0.485
Mof_O 	O 	0.69645	0.59081	0.13026	-0.41
Mof_O 	O 	0.63562	0.40608	0.19874	-0.479
Mof_O 	O 	0.62255	0.44188	0.21882	-0.487
Mof_O 	O 	0.72666	0.44789	0.13746	-0.487
Mof_O 	O 	0.70561	0.41159	0.13733	-0.458
Mof_O 	O 	0.59164	0.7567	0.04068	-0.507
Mof_O 	O 	0.55664	0.75219	0.06346	-0.496
Mof_O 	O 	0.59218	0.75322	0.95119	-0.493
Mof_O 	O 	0.55622	0.74845	0.92865	-0.485
Mof_O 	O 	0.60757	0.757	0.09821	-0.924
Mof_O 	O 	0.60599	0.60694	0.24912	-0.948
Mof_C 	C 	0.6242	0.66828	0.2617	0.392
Mof_C 	C 	0.6233	0.69622	0.2683	-0.088
Mof_C 	C 	0.6242	0.70329	0.2938	0.03
Mof_H 	H 	0.6258	0.6907	0.3067	0.055
Mof_C 	C 	0.6227	0.72865	0.30026	-0.084
Mof_C 	C 	0.6222	0.7351	0.32818	0.369
Mof_C 	C 	0.6211	0.74699	0.2814	-0.015
Mof_H 	H 	0.6204	0.7644	0.286	0.053
Mof_C 	C 	0.6212	0.71476	0.24958	-0.014
Mof_H 	H 	0.6201	0.7098	0.2323	0.054
Mof_C 	C 	0.6206	0.74034	0.25573	0.006
Mof_C 	C 	0.6195	0.7602	0.23546	-0.005
Mof_C 	C 	0.6181	0.78567	0.24142	-0.002
Mof_H 	H 	0.6179	0.7906	0.2588	0.049
Mof_C 	C 	0.6193	0.7541	0.20955	-0.004
Mof_H 	H 	0.6209	0.7368	0.2045	0.049
Mof_C 	C 	0.617	0.7727	0.19107	-0.098
Mof_C 	C 	0.6166	0.7663	0.1632	0.373
Mof_C 	C 	0.6155	0.7974	0.1978	0.05
Mof_H 	H 	0.6133	0.8101	0.1851	0.042
Mof_C 	C 	0.617	0.80431	0.22295	-0.104
Mof_C 	C 	0.6164	0.83198	0.2299	0.391
Mof_C 	C 	0.57547	0.64411	0.19782	0.388
Mof_C 	C 	0.56134	0.65846	0.17762	-0.095
Mof_C 	C 	0.57452	0.67416	0.16109	0.043
Mof_H 	H 	0.5926	0.6748	0.1614	0.048
Mof_C 	C 	0.56073	0.68901	0.14411	-0.101
Mof_C 	C 	0.57429	0.70771	0.12749	0.401
Mof_C 	C 	0.53454	0.68709	0.14289	-0.006
Mof_H 	H 	0.5254	0.6969	0.1308	0.053
Mof_C 	C 	0.53495	0.65697	0.17666	-0.009
Mof_H 	H 	0.5262	0.6462	0.1882	0.053
Mof_C 	C 	0.5215	0.67096	0.1592	0.002
Mof_C 	C 	0.49269	0.66918	0.15759	-0.003
Mof_C 	C 	0.479	0.68305	0.13979	-0.003
Mof_H 	H 	0.4878	0.6941	0.1285	0.05
Mof_C 	C 	0.45256	0.68113	0.13819	-0.098
Mof_O 	O 	0.41729	0.68966	0.1117	-0.457
Mof_C 	C 	0.43961	0.6653	0.15457	0.05
Mof_H 	H 	0.4217	0.6632	0.153	0.037
Mof_C 	C 	0.45289	0.6526	0.1732	-0.101
Mof_C 	C 	0.4388	0.638	0.1928	0.38
Mof_C 	C 	0.47876	0.6547	0.1747	-0
Mof_H 	H 	0.4875	0.646	0.1879	0.049
Mof_C 	C 	0.6295	0.569	0.2012	0.385
Mof_C 	C 	0.6467	0.5549	0.1831	-0.091
Mof_C 	C 	0.6631	0.56878	0.1678	0.031
Mof_H 	H 	0.6619	0.5868	0.1668	0.047
Mof_C 	C 	0.6815	0.55567	0.154	-0.085
Mof_C 	C 	0.7015	0.56985	0.1395	0.363
Mof_C 	C 	0.6821	0.52905	0.1549	-0.015
Mof_H 	H 	0.6946	0.5203	0.1453	0.053
Mof_C 	C 	0.64782	0.52818	0.1838	-0.015
Mof_H 	H 	0.6365	0.5191	0.1945	0.053
Mof_C 	C 	0.66499	0.51505	0.1692	0.006
Mof_C 	C 	0.66644	0.48624	0.1697	-0.005
Mof_C 	C 	0.64978	0.47165	0.18423	-0.004
Mof_H 	H 	0.6371	0.48	0.1941	0.049
Mof_C 	C 	0.65116	0.44536	0.18472	-0.098
Mof_C 	C 	0.63485	0.43021	0.2022	0.382
Mof_C 	C 	0.6692	0.43285	0.17039	0.042
Mof_H 	H 	0.6698	0.4148	0.17	0.047
Mof_C 	C 	0.68662	0.44754	0.15639	-0.1
Mof_C 	C 	0.70786	0.43414	0.14259	0.406
Mof_C 	C 	0.68532	0.47374	0.1565	-0.003
Mof_H 	H 	0.6976	0.4833	0.1473	0.051
Mof_C 	C 	0.56849	0.7537	0.04304	0.42
Mof_C 	C 	0.55376	0.7528	0.01866	-0.114
Mof_C 	C 	0.56686	0.7525	0.99579	0.053
Mof_H 	H 	0.5849	0.7534	0.9956	0.047
Mof_C 	C 	0.55368	0.751	0.97357	-0.109
Mof_C 	C 	0.56838	0.7508	0.94931	0.387
Mof_C 	C 	0.5275	0.75	0.97338	-0.002
Mof_H 	H 	0.5187	0.7486	0.9577	0.049
Mof_C 	C 	0.51402	0.751	0.99617	-0.005
Mof_C 	C 	0.5276	0.7516	0.01882	0.001
Mof_H 	H 	0.5188	0.7511	0.0346	0.049
Mof_O 	O 	0.63293	0.65467	0.27918	-0.486
Mof_C 	C 	0.43824	0.6978	0.11995	0.387
Mof_Zn	Zn	0.78024	0.6211	0.12401	1.221
Mof_Zn	Zn	0.7228	0.62563	0.11947	1.216
Mof_Zn	Zn	0.75101	0.5721	0.12056	1.219
Mof_Zn	Zn	0.7502	0.60563	0.07042	1.22
Mof_Zn	Zn	0.88138	0.62687	0.23145	1.218
Mof_Zn	Zn	0.88776	0.61624	0.29065	1.22
Mof_Zn	Zn	0.90219	0.57145	0.25356	1.22
Mof_Zn	Zn	0.93576	0.62026	0.25632	1.22
Mof_O 	O 	0.75911	0.61698	0.16169	-0.462
Mof_O 	O 	0.6571	0.62977	0.21815	-0.47
Mof_O 	O 	0.66534	0.61533	0.25701	-0.412
Mof_O 	O 	0.84427	0.62396	0.24476	-0.444
Mof_O 	O 	0.85089	0.6069	0.2833	-0.459
Mof_O 	O 	0.74729	0.61354	0.33781	-0.478
Mof_O 	O 	0.7882	0.6204	0.34684	-0.478
Mof_O 	O 	0.8056	0.59898	0.14031	-0.46
Mof_O 	O 	0.78346	0.5629	0.13655	-0.487
Mof_O 	O 	0.87308	0.59793	0.20635	-0.463
Mof_O 	O 	0.88442	0.56061	0.2232	-0.487
Mof_O 	O 	0.88525	0.44754	0.21893	-0.472
Mof_O 	O 	0.813	0.41878	0.12712	-0.455
Mof_O 	O 	0.78477	0.4483	0.1393	-0.477
Mof_O 	O 	0.80306	0.62521	0.09149	-0.459
Mof_O 	O 	0.77931	0.62207	0.05638	-0.489
Mof_O 	O 	0.861	0.72343	0.05922	-0.485
Mof_O 	O 	0.86974	0.69645	0.09081	-0.41
Mof_O 	O 	0.80126	0.63562	0.90608	-0.479
Mof_O 	O 	0.78118	0.62255	0.94188	-0.487
Mof_O 	O 	0.86254	0.72666	0.94789	-0.487
Mof_O 	O 	0.86267	0.70561	0.91159	-0.458
Mof_O 	O 	0.95932	0.59164	0.2567	-0.507
Mof_O 	O 	0.93654	0.55664	0.25219	-0.496
Mof_O 	O 	0.04881	0.59218	0.25322	-0.493
Mof_O 	O 	0.07135	0.55622	0.24845	-0.485
Mof_O 	O 	0.90179	0.60757	0.257	-0.924
Mof_O 	O 	0.75088	0.60599	0.10694	-0.948
Mof_C 	C 	0.7383	0.6242	0.16828	0.392
Mof_C 	C 	0.7317	0.6233	0.19622	-0.088
Mof_C 	C 	0.7062	0.6242	0.20329	0.03
Mof_H 	H 	0.6933	0.6258	0.1907	0.055
Mof_C 	C 	0.69974	0.6227	0.22865	-0.084
Mof_C 	C 	0.67182	0.6222	0.2351	0.369
Mof_C 	C 	0.7186	0.6211	0.24699	-0.015
Mof_H 	H 	0.714	0.6204	0.2644	0.053
Mof_C 	C 	0.75042	0.6212	0.21476	-0.014
Mof_H 	H 	0.7677	0.6201	0.2098	0.054
Mof_C 	C 	0.74427	0.6206	0.24034	0.006
Mof_C 	C 	0.76454	0.6195	0.2602	-0.005
Mof_C 	C 	0.75858	0.6181	0.28567	-0.002
Mof_H 	H 	0.7412	0.6179	0.2906	0.049
Mof_C 	C 	0.79045	0.6193	0.2541	-0.004
Mof_H 	H 	0.7955	0.6209	0.2368	0.049
Mof_C 	C 	0.80893	0.617	0.2727	-0.098
Mof_C 	C 	0.8368	0.6166	0.2663	0.373
Mof_C 	C 	0.8022	0.6155	0.2974	0.05
Mof_H 	H 	0.8149	0.6133	0.3101	0.042
Mof_C 	C 	0.77705	0.617	0.30431	-0.104
Mof_C 	C 	0.7701	0.6164	0.33198	0.391
Mof_C 	C 	0.80218	0.57547	0.14411	0.388
Mof_C 	C 	0.82238	0.56134	0.15846	-0.095
Mof_C 	C 	0.83891	0.57452	0.17416	0.043
Mof_H 	H 	0.8386	0.5926	0.1748	0.048
Mof_C 	C 	0.85589	0.56073	0.18901	-0.101
Mof_C 	C 	0.87251	0.57429	0.20771	0.401
Mof_C 	C 	0.85711	0.53454	0.18709	-0.006
Mof_H 	H 	0.8692	0.5254	0.1969	0.053
Mof_C 	C 	0.82334	0.53495	0.15697	-0.009
Mof_H 	H 	0.8118	0.5262	0.1462	0.053
Mof_C 	C 	0.8408	0.5215	0.17096	0.002
Mof_C 	C 	0.84241	0.49269	0.16918	-0.003
Mof_C 	C 	0.86021	0.479	0.18305	-0.003
Mof_H 	H 	0.8715	0.4878	0.1941	0.05
Mof_C 	C 	0.86181	0.45256	0.18113	-0.098
Mof_O 	O 	0.8883	0.41729	0.18966	-0.457
Mof_C 	C 	0.84543	0.43961	0.1653	0.05
Mof_H 	H 	0.847	0.4217	0.1632	0.037
Mof_C 	C 	0.8268	0.45289	0.1526	-0.101
Mof_C 	C 	0.8072	0.4388	0.138	0.38
Mof_C 	C 	0.8253	0.47876	0.1547	-0
Mof_H 	H 	0.8121	0.4875	0.146	0.049
Mof_C 	C 	0.7988	0.6295	0.069	0.385
Mof_C 	C 	0.8169	0.6467	0.0549	-0.091
Mof_C 	C 	0.8322	0.6631	0.06878	0.031
Mof_H 	H 	0.8332	0.6619	0.0868	0.047
Mof_C 	C 	0.846	0.6815	0.05567	-0.085
Mof_C 	C 	0.8605	0.7015	0.06985	0.363
Mof_C 	C 	0.8451	0.6821	0.02905	-0.015
Mof_H 	H 	0.8547	0.6946	0.0203	0.053
Mof_C 	C 	0.8162	0.64782	0.02818	-0.015
Mof_H 	H 	0.8055	0.6365	0.0191	0.053
Mof_C 	C 	0.8308	0.66499	0.01505	0.006
Mof_C 	C 	0.8303	0.66644	0.98624	-0.005
Mof_C 	C 	0.81577	0.64978	0.97165	-0.004
Mof_H 	H 	0.8059	0.6371	0.98	0.049
Mof_C 	C 	0.81528	0.65116	0.94536	-0.098
Mof_C 	C 	0.7978	0.63485	0.93021	0.382
Mof_C 	C 	0.82961	0.6692	0.93285	0.042
Mof_H 	H 	0.83	0.6698	0.9148	0.047
Mof_C 	C 	0.84361	0.68662	0.94754	-0.1
Mof_C 	C 	0.85741	0.70786	0.93414	0.406
Mof_C 	C 	0.8435	0.68532	0.97374	-0.003
Mof_H 	H 	0.8527	0.6976	0.9833	0.051
Mof_C 	C 	0.95696	0.56849	0.2537	0.42
Mof_C 	C 	0.98134	0.55376	0.2528	-0.114
Mof_C 	C 	0.00421	0.56686	0.2525	0.053
Mof_H 	H 	0.0044	0.5849	0.2534	0.047
Mof_C 	C 	0.02643	0.55368	0.251	-0.109
Mof_C 	C 	0.05069	0.56838	0.2508	0.387
Mof_C 	C 	0.02662	0.5275	0.25	-0.002
Mof_H 	H 	0.0423	0.5187	0.2486	0.049
Mof_C 	C 	0.00383	0.51402	0.251	-0.005
Mof_C 	C 	0.98118	0.5276	0.2516	0.001
Mof_H 	H 	0.9654	0.5188	0.2511	0.049
Mof_O 	O 	0.72082	0.63293	0.15467	-0.486
Mof_C 	C 	0.88005	0.43824	0.1978	0.387
Mof_Zn	Zn	0.28024	0.1211	0.62401	1.221
Mof_Zn	Zn	0.2228	0.12563	0.61947	1.216
Mof_Zn	Zn	0.25101	0.0721	0.62056	1.219
Mof_Zn	Zn	0.2502	0.10563	0.57042	1.22
Mof_Zn	Zn	0.38138	0.12687	0.73145	1.218
Mof_Zn	Zn	0.38776	0.11624	0.79065	1.22
Mof_Zn	Zn	0.40219	0.07145	0.75356	1.22
Mof_Zn	Zn	0.43576	0.12026	0.75632	1.22
Mof_O 	O 	0.25911	0.11698	0.66169	-0.462
Mof_O 	O 	0.1571	0.12977	0.71815	-0.47
Mof_O 	O 	0.16534	0.11533	0.75701	-0.412
Mof_O 	O 	0.34427	0.12396	0.74476	-0.444
Mof_O 	O 	0.35089	0.1069	0.7833	-0.459
Mof_O 	O 	0.24729	0.11354	0.83781	-0.478
Mof_O 	O 	0.2882	0.1204	0.84684	-0.478
Mof_O 	O 	0.3056	0.09898	0.64031	-0.46
Mof_O 	O 	0.28346	0.0629	0.63655	-0.487
Mof_O 	O 	0.37308	0.09793	0.70635	-0.463
Mof_O 	O 	0.38442	0.06061	0.7232	-0.487
Mof_O 	O 	0.38525	0.94754	0.71893	-0.472
Mof_O 	O 	0.313	0.91878	0.62712	-0.455
Mof_O 	O 	0.28477	0.9483	0.6393	-0.477
Mof_O 	O 	0.30306	0.12521	0.59149	-0.459
Mof_O 	O 	0.27931	0.12207	0.55638	-0.489
Mof_O 	O 	0.361	0.22343	0.55922	-0.485
Mof_O 	O 	0.36974	0.19645	0.59081	-0.41
Mof_O 	O 	0.30126	0.13562	0.40608	-0.479
Mof_O 	O 	0.28118	0.12255	0.44188	-0.487
Mof_O 	O 	0.36254	0.22666	0.44789	-0.487
Mof_O 	O 	0.36267	0.20561	0.41159	-0.458
Mof_O 	O 	0.45932	0.09164	0.7567	-0.507
Mof_O 	O 	0.43654	0.05664	0.75219	-0.496
Mof_O 	O 	0.54881	0.09218	0.75322	-0.493
Mof_O 	O 	0.57135	0.05622	0.74845	-0.485
Mof_O 	O 	0.40179	0.10757	0.757	-0.924
Mof_O 	O 	0.25088	0.10599	0.60694	-0.948
Mof_C 	C 	0.2383	0.1242	0.66828	0.392
Mof_C 	C 	0.2317	0.1233	0.69622	-0.088
Mof_C 	C 	0.2062	0.1242	0.70329	0.03
Mof_H 	H 	0.1933	0.1258	0.6907	0.055
Mof_C 	C 	0.19974	0.1227	0.72865	-0.084
Mof_C 	C 	0.17182	0.1222	0.7351	0.369
Mof_C 	C 	0.2186	0.1211	0.74699	-0.015
Mof_H 	H 	0.214	0.1204	0.7644	0.053
Mof_C 	C 	0.25042	0.1212	0.71476	-0.014
Mof_H 	H 	0.2677	0.1201	0.7098	0.054
Mof_C 	C 	0.24427	0.1206	0.74034	0.006
Mof_C 	C 	0.26454	0.1195	0.7602	-0.005
Mof_C 	C 	0.25858	0.1181	0.78567	-0.002
Mof_H 	H 	0.2412	0.1179	0.7906	0.049
Mof_C 	C 	0.29045	0.1193	0.7541	-0.004
Mof_H 	H 	0.2955	0.1209	0.7368	0.049
Mof_C 	C 	0.30893	0.117	0.7727	-0.098
Mof_C 	C 	0.3368	0.1166	0.7663	0.373
Mof_C 	C 	0.3022	0.1155	0.7974	0.05
Mof_H 	H 	0.3149	0.1133	0.8101	0.042
Mof_C 	C 	0.27705	0.117	0.80431	-0.104
Mof_C 	C 	0.2701	0.1164	0.83198	0.391
Mof_C 	C 	0.30218	0.07547	0.64411	0.388
Mof_C 	C 	0.32238	0.06134	0.65846	-0.095
Mof_C 	C 	0.33891	0.07452	0.67416	0.043
Mof_H 	H 	0.3386	0.0926	0.6748	0.048
Mof_C 	C 	0.35589	0.06073	0.68901	-0.101
Mof_C 	C 	0.37251	0.07429	0.70771	0.401
Mof_C 	C 	0.35711	0.03454	0.68709	-0.006
Mof_H 	H 	0.3692	0.0254	0.6969	0.053
Mof_C 	C 	0.32334	0.03495	0.65697	-0.009
Mof_H 	H 	0.3118	0.0262	0.6462	0.053
Mof_C 	C 	0.3408	0.0215	0.67096	0.002
Mof_C 	C 	0.34241	0.99269	0.66918	-0.003
Mof_C 	C 	0.36021	0.979	0.68305	-0.003
Mof_H 	H 	0.3715	0.9878	0.6941	0.05
Mof_C 	C 	0.36181	0.95256	0.68113	-0.098
Mof_O 	O 	0.3883	0.91729	0.68966	-0.457
Mof_C 	C 	0.34543	0.93961	0.6653	0.05
Mof_H 	H 	0.347	0.9217	0.6632	0.037
Mof_C 	C 	0.3268	0.95289	0.6526	-0.101
Mof_C 	C 	0.3072	0.9388	0.638	0.38
Mof_C 	C 	0.3253	0.97876	0.6547	-0
Mof_H 	H 	0.3121	0.9875	0.646	0.049
Mof_C 	C 	0.2988	0.1295	0.569	0.385
Mof_C 	C 	0.3169	0.1467	0.5549	-0.091
Mof_C 	C 	0.3322	0.1631	0.56878	0.031
Mof_H 	H 	0.3332	0.1619	0.5868	0.047
Mof_C 	C 	0.346	0.1815	0.55567	-0.085
Mof_C 	C 	0.3605	0.2015	0.56985	0.363
Mof_C 	C 	0.3451	0.1821	0.52905	-0.015
Mof_H 	H 	0.3547	0.1946	0.5203	0.053
Mof_C 	C 	0.3162	0.14782	0.52818	-0.015
Mof_H 	H 	0.3055	0.1365	0.5191	0.053
Mof_C 	C 	0.3308	0.16499	0.51505	0.006
Mof_C 	C 	0.3303	0.16644	0.48624	-0.005
Mof_C 	C 	0.31577	0.14978	0.47165	-0.004
Mof_H 	H 	0.3059	0.1371	0.48	0.049
Mof_C 	C 	0.31528	0.15116	0.44536	-0.098
Mof_C 	C 	0.2978	0.13485	0.43021	0.382
Mof_C 	C 	0.32961	0.1692	0.43285	0.042
Mof_H 	H 	0.33	0.1698	0.4148	0.047
Mof_C 	C 	0.34361	0.18662	0.44754	-0.1
Mof_C 	C 	0.35741	0.20786	0.43414	0.406
Mof_C 	C 	0.3435	0.18532	0.47374	-0.003
Mof_H 	H 	0.3527	0.1976	0.4833	0.051
Mof_C 	C 	0.45696	0.06849	0.7537	0.42
Mof_C 	C 	0.48134	0.05376	0.7528	-0.114
Mof_C 	C 	0.50421	0.06686	0.7525	0.053
Mof_H 	H 	0.5044	0.0849	0.7534	0.047
Mof_C 	C 	0.52643	0.05368	0.751	-0.109
Mof_C 	C 	0.55069	0.06838	0.7508	0.387
Mof_C 	C 	0.52662	0.0275	0.75	-0.002
Mof_H 	H 	0.5423	0.0187	0.7486	0.049
Mof_C 	C 	0.50383	0.01402	0.751	-0.005
Mof_C 	C 	0.48118	0.0276	0.7516	0.001
Mof_H 	H 	0.4654	0.0188	0.7511	0.049
Mof_O 	O 	0.22082	0.13293	0.65467	-0.486
Mof_C 	C 	0.38005	0.93824	0.6978	0.387
Mof_Zn	Zn	0.71976	0.3789	0.62401	1.221
Mof_Zn	Zn	0.7772	0.37437	0.61947	1.216
Mof_Zn	Zn	0.74899	0.4279	0.62056	1.219
Mof_Zn	Zn	0.7498	0.39437	0.57042	1.22
Mof_Zn	Zn	0.61862	0.37313	0.73145	1.218
Mof_Zn	Zn	0.61224	0.38376	0.79065	1.22
Mof_Zn	Zn	0.59781	0.42855	0.75356	1.22
Mof_Zn	Zn	0.56424	0.37974	0.75632	1.22
Mof_O 	O 	0.74089	0.38302	0.66169	-0.462
Mof_O 	O 	0.8429	0.37023	0.71815	-0.47
Mof_O 	O 	0.83466	0.38467	0.75701	-0.412
Mof_O 	O 	0.65573	0.37604	0.74476	-0.444
Mof_O 	O 	0.64911	0.3931	0.7833	-0.459
Mof_O 	O 	0.75271	0.38646	0.83781	-0.478
Mof_O 	O 	0.7118	0.3796	0.84684	-0.478
Mof_O 	O 	0.6944	0.40102	0.64031	-0.46
Mof_O 	O 	0.71654	0.4371	0.63655	-0.487
Mof_O 	O 	0.62692	0.40207	0.70635	-0.463
Mof_O 	O 	0.61558	0.43939	0.7232	-0.487
Mof_O 	O 	0.61475	0.55246	0.71893	-0.472
Mof_O 	O 	0.687	0.58122	0.62712	-0.455
Mof_O 	O 	0.71523	0.5517	0.6393	-0.477
Mof_O 	O 	0.69694	0.37479	0.59149	-0.459
Mof_O 	O 	0.72069	0.37793	0.55638	-0.489
Mof_O 	O 	0.639	0.27657	0.55922	-0.485
Mof_O 	O 	0.63026	0.30355	0.59081	-0.41
Mof_O 	O 	0.69874	0.36438	0.40608	-0.479
Mof_O 	O 	0.71882	0.37745	0.44188	-0.487
Mof_O 	O 	0.63746	0.27334	0.44789	-0.487
Mof_O 	O 	0.63733	0.29439	0.41159	-0.458
Mof_O 	O 	0.54068	0.40836	0.7567	-0.507
Mof_O 	O 	0.56346	0.44336	0.75219	-0.496
Mof_O 	O 	0.45119	0.40782	0.75322	-0.493
Mof_O 	O 	0.42865	0.44378	0.74845	-0.485
Mof_O 	O 	0.59821	0.39243	0.757	-0.924
Mof_O 	O 	0.74912	0.39401	0.60694	-0.948
Mof_C 	C 	0.7617	0.3758	0.66828	0.392
Mof_C 	C 	0.7683	0.3767	0.69622	-0.088
Mof_C 	C 	0.7938	0.3758	0.70329	0.03
Mof_H 	H 	0.8067	0.3742	0.6907	0.055
Mof_C 	C 	0.80026	0.3773	0.72865	-0.084
Mof_C 	C 	0.82818	0.3778	0.7351	0.369
Mof_C 	C 	0.7814	0.3789	0.74699	-0.015
Mof_H 	H 	0.786	0.3796	0.7644	0.053
Mof_C 	C 	0.74958	0.3788	0.71476	-0.014
Mof_H 	H 	0.7323	0.3799	0.7098	0.054
Mof_C 	C 	0.75573	0.3794	0.74034	0.006
Mof_C 	C 	0.73546	0.3805	0.7602	-0.005
Mof_C 	C 	0.74142	0.3819	0.78567	-0.002
Mof_H 	H 	0.7588	0.3821	0.7906	0.049
Mof_C 	C 	0.70955	0.3807	0.7541	-0.004
Mof_H 	H 	0.7045	0.3791	0.7368	0.049
Mof_C 	C 	0.69107	0.383	0.7727	-0.098
Mof_C 	C 	0.6632	0.3834	0.7663	0.373
Mof_C 	C 	0.6978	0.3845	0.7974	0.05
Mof_H 	H 	0.6851	0.3867	0.8101	0.042
Mof_C 	C 	0.72295	0.383	0.80431	-0.104
Mof_C 	C 	0.7299	0.3836	0.83198	0.391
Mof_C 	C 	0.69782	0.42453	0.64411	0.388
Mof_C 	C 	0.67762	0.43866	0.65846	-0.095
Mof_C 	C 	0.66109	0.42548	0.67416	0.043
Mof_H 	H 	0.6614	0.4074	0.6748	0.048
Mof_C 	C 	0.64411	0.43927	0.68901	-0.101
Mof_C 	C 	0.62749	0.42571	0.70771	0.401
Mof_C 	C 	0.64289	0.46546	0.68709	-0.006
Mof_H 	H 	0.6308	0.4746	0.6969	0.053
Mof_C 	C 	0.67666	0.46505	0.65697	-0.009
Mof_H 	H 	0.6882	0.4738	0.6462	0.053
Mof_C 	C 	0.6592	0.4785	0.67096	0.002
Mof_C 	C 	0.65759	0.50731	0.66918	-0.003
Mof_C 	C 	0.63979	0.521	0.68305	-0.003
Mof_H 	H 	0.6285	0.5122	0.6941	0.05
Mof_C 	C 	0.63819	0.54744	0.68113	-0.098
Mof_O 	O 	0.6117	0.58271	0.68966	-0.457
Mof_C 	C 	0.65457	0.56039	0.6653	0.05
Mof_H 	H 	0.653	0.5783	0.6632	0.037
Mof_C 	C 	0.6732	0.54711	0.6526	-0.101
Mof_C 	C 	0.6928	0.5612	0.638	0.38
Mof_C 	C 	0.6747	0.52124	0.6547	-0
Mof_H 	H 	0.6879	0.5125	0.646	0.049
Mof_C 	C 	0.7012	0.3705	0.569	0.385
Mof_C 	C 	0.6831	0.3533	0.5549	-0.091
Mof_C 	C 	0.6678	0.3369	0.56878	0.031
Mof_H 	H 	0.6668	0.3381	0.5868	0.047
Mof_C 	C 	0.654	0.3185	0.55567	-0.085
Mof_C 	C 	0.6395	0.2985	0.56985	0.363
Mof_C 	C 	0.6549	0.3179	0.52905	-0.015
Mof_H 	H 	0.6453	0.3054	0.5203	0.053
Mof_C 	C 	0.6838	0.35218	0.52818	-0.015
Mof_H 	H 	0.6945	0.3635	0.5191	0.053
Mof_C 	C 	0.6692	0.33501	0.51505	0.006
Mof_C 	C 	0.6697	0.33356	0.48624	-0.005
Mof_C 	C 	0.68423	0.35022	0.47165	-0.004
Mof_H 	H 	0.6941	0.3629	0.48	0.049
Mof_C 	C 	0.68472	0.34884	0.44536	-0.098
Mof_C 	C 	0.7022	0.36515	0.43021	0.382
Mof_C 	C 	0.67039	0.3308	0.43285	0.042
Mof_H 	H 	0.67	0.3302	0.4148	0.047
Mof_C 	C 	0.65639	0.31338	0.44754	-0.1
Mof_C 	C 	0.64259	0.29214	0.43414	0.406
Mof_C 	C 	0.6565	0.31468	0.47374	-0.003
Mof_H 	H 	0.6473	0.3024	0.4833	0.051
Mof_C 	C 	0.54304	0.43151	0.7537	0.42
Mof_C 	C 	0.51866	0.44624	0.7528	-0.114
Mof_C 	C 	0.49579	0.43314	0.7525	0.053
Mof_H 	H 	0.4956	0.4151	0.7534	0.047
Mof_C 	C 	0.47357	0.44632	0.751	-0.109
Mof_C 	C 	0.44931	0.43162	0.7508	0.387
Mof_C 	C 	0.47338	0.4725	0.75	-0.002
Mof_H 	H 	0.4577	0.4813	0.7486	0.049
Mof_C 	C 	0.49617	0.48598	0.751	-0.005
Mof_C 	C 	0.51882	0.4724	0.7516	0.001
Mof_H 	H 	0.5346	0.4812	0.7511	0.049
Mof_O 	O 	0.77918	0.36707	0.65467	-0.486
Mof_C 	C 	0.61995	0.56176	0.6978	0.387
Mof_Zn	Zn	0.21976	0.8789	0.12401	1.221
Mof_Zn	Zn	0.2772	0.87437	0.11947	1.216
Mof_Zn	Zn	0.24899	0.9279	0.12056	1.219
Mof_Zn	Zn	0.2498	0.89437	0.07042	1.22
Mof_Zn	Zn	0.11862	0.87313	0.23145	1.218
Mof_Zn	Zn	0.11224	0.88376	0.29065	1.22
Mof_Zn	Zn	0.09781	0.92855	0.25356	1.22
Mof_Zn	Zn	0.06424	0.87974	0.25632	1.22
Mof_O 	O 	0.24089	0.88302	0.16169	-0.462
Mof_O 	O 	0.3429	0.87023	0.21815	-0.47
Mof_O 	O 	0.33466	0.88467	0.25701	-0.412
Mof_O 	O 	0.15573	0.87604	0.24476	-0.444
Mof_O 	O 	0.14911	0.8931	0.2833	-0.459
Mof_O 	O 	0.25271	0.88646	0.33781	-0.478
Mof_O 	O 	0.2118	0.8796	0.34684	-0.478
Mof_O 	O 	0.1944	0.90102	0.14031	-0.46
Mof_O 	O 	0.21654	0.9371	0.13655	-0.487
Mof_O 	O 	0.12692	0.90207	0.20635	-0.463
Mof_O 	O 	0.11558	0.93939	0.2232	-0.487
Mof_O 	O 	0.11475	0.05246	0.21893	-0.472
Mof_O 	O 	0.187	0.08122	0.12712	-0.455
Mof_O 	O 	0.21523	0.0517	0.1393	-0.477
Mof_O 	O 	0.19694	0.87479	0.09149	-0.459
Mof_O 	O 	0.22069	0.87793	0.05638	-0.489
Mof_O 	O 	0.139	0.77657	0.05922	-0.485
Mof_O 	O 	0.13026	0.80355	0.09081	-0.41
Mof_O 	O 	0.19874	0.86438	0.90608	-0.479
Mof_O 	O 	0.21882	0.87745	0.94188	-0.487
Mof_O 	O 	0.13746	0.77334	0.94789	-0.487
Mof_O 	O 	0.13733	0.79439	0.91159	-0.458
Mof_O 	O 	0.04068	0.90836	0.2567	-0.507
Mof_O 	O 	0.06346	0.94336	0.25219	-0.496
Mof_O 	O 	0.95119	0.90782	0.25322	-0.493
Mof_O 	O 	0.92865	0.94378	0.24845	-0.485
Mof_O 	O 	0.09821	0.89243	0.257	-0.924
Mof_O 	O 	0.24912	0.89401	0.10694	-0.948
Mof_C 	C 	0.2617	0.8758	0.16828	0.392
Mof_C 	C 	0.2683	0.8767	0.19622	-0.088
Mof_C 	C 	0.2938	0.8758	0.20329	0.03
Mof_H 	H 	0.3067	0.8742	0.1907	0.055
Mof_C 	C 	0.30026	0.8773	0.22865	-0.084
Mof_C 	C 	0.32818	0.8778	0.2351	0.369
Mof_C 	C 	0.2814	0.8789	0.24699	-0.015
Mof_H 	H 	0.286	0.8796	0.2644	0.053
Mof_C 	C 	0.24958	0.8788	0.21476	-0.014
Mof_H 	H 	0.2323	0.8799	0.2098	0.054
Mof_C 	C 	0.25573	0.8794	0.24034	0.006
Mof_C 	C 	0.23546	0.8805	0.2602	-0.005
Mof_C 	C 	0.24142	0.8819	0.28567	-0.002
Mof_H 	H 	0.2588	0.8821	0.2906	0.049
Mof_C 	C 	0.20955	0.8807	0.2541	-0.004
Mof_H 	H 	0.2045	0.8791	0.2368	0.049
Mof_C 	C 	0.19107	0.883	0.2727	-0.098
Mof_C 	C 	0.1632	0.8834	0.2663	0.373
Mof_C 	C 	0.1978	0.8845	0.2974	0.05
Mof_H 	H 	0.1851	0.8867	0.3101	0.042
Mof_C 	C 	0.22295	0.883	0.30431	-0.104
Mof_C 	C 	0.2299	0.8836	0.33198	0.391
Mof_C 	C 	0.19782	0.92453	0.14411	0.388
Mof_C 	C 	0.17762	0.93866	0.15846	-0.095
Mof_C 	C 	0.16109	0.92548	0.17416	0.043
Mof_H 	H 	0.1614	0.9074	0.1748	0.048
Mof_C 	C 	0.14411	0.93927	0.18901	-0.101
Mof_C 	C 	0.12749	0.92571	0.20771	0.401
Mof_C 	C 	0.14289	0.96546	0.18709	-0.006
Mof_H 	H 	0.1308	0.9746	0.1969	0.053
Mof_C 	C 	0.17666	0.96505	0.15697	-0.009
Mof_H 	H 	0.1882	0.9738	0.1462	0.053
Mof_C 	C 	0.1592	0.9785	0.17096	0.002
Mof_C 	C 	0.15759	0.00731	0.16918	-0.003
Mof_C 	C 	0.13979	0.021	0.18305	-0.003
Mof_H 	H 	0.1285	0.0122	0.1941	0.05
Mof_C 	C 	0.13819	0.04744	0.18113	-0.098
Mof_O 	O 	0.1117	0.08271	0.18966	-0.457
Mof_C 	C 	0.15457	0.06039	0.1653	0.05
Mof_H 	H 	0.153	0.0783	0.1632	0.037
Mof_C 	C 	0.1732	0.04711	0.1526	-0.101
Mof_C 	C 	0.1928	0.0612	0.138	0.38
Mof_C 	C 	0.1747	0.02124	0.1547	-0
Mof_H 	H 	0.1879	0.0125	0.146	0.049
Mof_C 	C 	0.2012	0.8705	0.069	0.385
Mof_C 	C 	0.1831	0.8533	0.0549	-0.091
Mof_C 	C 	0.1678	0.8369	0.06878	0.031
Mof_H 	H 	0.1668	0.8381	0.0868	0.047
Mof_C 	C 	0.154	0.8185	0.05567	-0.085
Mof_C 	C 	0.1395	0.7985	0.06985	0.363
Mof_C 	C 	0.1549	0.8179	0.02905	-0.015
Mof_H 	H 	0.1453	0.8054	0.0203	0.053
Mof_C 	C 	0.1838	0.85218	0.02818	-0.015
Mof_H 	H 	0.1945	0.8635	0.0191	0.053
Mof_C 	C 	0.1692	0.83501	0.01505	0.006
Mof_C 	C 	0.1697	0.83356	0.98624	-0.005
Mof_C 	C 	0.18423	0.85022	0.97165	-0.004
Mof_H 	H 	0.1941	0.8629	0.98	0.049
Mof_C 	C 	0.18472	0.84884	0.94536	-0.098
Mof_C 	C 	0.2022	0.86515	0.93021	0.382
Mof_C 	C 	0.17039	0.8308	0.93285	0.042
Mof_H 	H 	0.17	0.8302	0.9148	0.047
Mof_C 	C 	0.15639	0.81338	0.94754	-0.1
Mof_C 	C 	0.14259	0.79214	0.93414	0.406
Mof_C 	C 	0.1565	0.81468	0.97374	-0.003
Mof_H 	H 	0.1473	0.8024	0.9833	0.051
Mof_C 	C 	0.04304	0.93151	0.2537	0.42
Mof_C 	C 	0.01866	0.94624	0.2528	-0.114
Mof_C 	C 	0.99579	0.93314	0.2525	0.053
Mof_H 	H 	0.9956	0.9151	0.2534	0.047
Mof_C 	C 	0.97357	0.94632	0.251	-0.109
Mof_C 	C 	0.94931	0.93162	0.2508	0.387
Mof_C 	C 	0.97338	0.9725	0.25	-0.002
Mof_H 	H 	0.9577	0.9813	0.2486	0.049
Mof_C 	C 	0.99617	0.98598	0.251	-0.005
Mof_C 	C 	0.01882	0.9724	0.2516	0.001
Mof_H 	H 	0.0346	0.9812	0.2511	0.049
Mof_O 	O 	0.27918	0.86707	0.15467	-0.486
Mof_C 	C 	0.11995	0.06176	0.1978	0.387
Mof_Zn	Zn	0.21976	0.1211	0.37599	1.221
Mof_Zn	Zn	0.2772	0.12563	0.38053	1.216
Mof_Zn	Zn	0.24899	0.0721	0.37944	1.219
Mof_Zn	Zn	0.2498	0.10563	0.42958	1.22
Mof_Zn	Zn	0.11862	0.12687	0.26855	1.218
Mof_Zn	Zn	0.11224	0.11624	0.20935	1.22
Mof_Zn	Zn	0.09781	0.07145	0.24644	1.22
Mof_Zn	Zn	0.06424	0.12026	0.24368	1.22
Mof_O 	O 	0.24089	0.11698	0.33831	-0.462
Mof_O 	O 	0.3429	0.12977	0.28185	-0.47
Mof_O 	O 	0.33466	0.11533	0.24299	-0.412
Mof_O 	O 	0.15573	0.12396	0.25524	-0.444
Mof_O 	O 	0.14911	0.1069	0.2167	-0.459
Mof_O 	O 	0.25271	0.11354	0.16219	-0.478
Mof_O 	O 	0.2118	0.1204	0.15316	-0.478
Mof_O 	O 	0.1944	0.09898	0.35969	-0.46
Mof_O 	O 	0.21654	0.0629	0.36345	-0.487
Mof_O 	O 	0.12692	0.09793	0.29365	-0.463
Mof_O 	O 	0.11558	0.06061	0.2768	-0.487
Mof_O 	O 	0.11475	0.94754	0.28107	-0.472
Mof_O 	O 	0.187	0.91878	0.37288	-0.455
Mof_O 	O 	0.21523	0.9483	0.3607	-0.477
Mof_O 	O 	0.19694	0.12521	0.40851	-0.459
Mof_O 	O 	0.22069	0.12207	0.44362	-0.489
Mof_O 	O 	0.139	0.22343	0.44078	-0.485
Mof_O 	O 	0.13026	0.19645	0.40919	-0.41
Mof_O 	O 	0.19874	0.13562	0.59392	-0.479
Mof_O 	O 	0.21882	0.12255	0.55812	-0.487
Mof_O 	O 	0.13746	0.22666	0.55211	-0.487
Mof_O 	O 	0.13733	0.20561	0.58841	-0.458
Mof_O 	O 	0.04068	0.09164	0.2433	-0.507
Mof_O 	O 	0.06346	0.05664	0.24781	-0.496
Mof_O 	O 	0.95119	0.09218	0.24678	-0.493
Mof_O 	O 	0.92865	0.05622	0.25155	-0.485
Mof_O 	O 	0.09821	0.10757	0.243	-0.924
Mof_O 	O 	0.24912	0.10599	0.39306	-0.948
Mof_C 	C 	0.2617	0.1242	0.33172	0.392
Mof_C 	C 	0.2683	0.1233	0.30378	-0.088
Mof_C 	C 	0.2938	0.1242	0.29671	0.03
Mof_H 	H 	0.3067	0.1258	0.3093	0.055
Mof_C 	C 	0.30026	0.1227	0.27135	-0.084
Mof_C 	C 	0.32818	0.1222	0.2649	0.369
Mof_C 	C 	0.2814	0.1211	0.25301	-0.015
Mof_H 	H 	0.286	0.1204	0.2356	0.053
Mof_C 	C 	0.24958	0.1212	0.28524	-0.014
Mof_H 	H 	0.2323	0.1201	0.2902	0.054
Mof_C 	C 	0.25573	0.1206	0.25966	0.006
Mof_C 	C 	0.23546	0.1195	0.2398	-0.005
Mof_C 	C 	0.24142	0.1181	0.21433	-0.002
Mof_H 	H 	0.2588	0.1179	0.2094	0.049
Mof_C 	C 	0.20955	0.1193	0.2459	-0.004
Mof_H 	H 	0.2045	0.1209	0.2632	0.049
Mof_C 	C 	0.19107	0.117	0.2273	-0.098
Mof_C 	C 	0.1632	0.1166	0.2337	0.373
Mof_C 	C 	0.1978	0.1155	0.2026	0.05
Mof_H 	H 	0.1851	0.1133	0.1899	0.042
Mof_C 	C 	0.22295	0.117	0.19569	-0.104
Mof_C 	C 	0.2299	0.1164	0.16802	0.391
Mof_C 	C 	0.19782	0.07547	0.35589	0.388
Mof_C 	C 	0.17762	0.06134	0.34154	-0.095
Mof_C 	C 	0.16109	0.07452	0.32584	0.043
Mof_H 	H 	0.1614	0.0926	0.3252	0.048
Mof_C 	C 	0.14411	0.06073	0.31099	-0.101
Mof_C 	C 	0.12749	0.07429	0.29229	0.401
Mof_C 	C 	0.14289	0.03454	0.31291	-0.006
Mof_H 	H 	0.1308	0.0254	0.3031	0.053
Mof_C 	C 	0.17666	0.03495	0.34303	-0.009
Mof_H 	H 	0.1882	0.0262	0.3538	0.053
Mof_C 	C 	0.1592	0.0215	0.32904	0.002
Mof_C 	C 	0.15759	0.99269	0.33082	-0.003
Mof_C 	C 	0.13979	0.979	0.31695	-0.003
Mof_H 	H 	0.1285	0.9878	0.3059	0.05
Mof_C 	C 	0.13819	0.95256	0.31887	-0.098
Mof_O 	O 	0.1117	0.91729	0.31034	-0.457
Mof_C 	C 	0.15457	0.93961	0.3347	0.05
Mof_H 	H 	0.153	0.9217	0.3368	0.037
Mof_C 	C 	0.1732	0.95289	0.3474	-0.101
Mof_C 	C 	0.1928	0.9388	0.362	0.38
Mof_C 	C 	0.1747	0.97876	0.3453	-0
Mof_H 	H 	0.1879	0.9875	0.354	0.049
Mof_C 	C 	0.2012	0.1295	0.431	0.385
Mof_C 	C 	0.1831	0.1467	0.4451	-0.091
Mof_C 	C 	0.1678	0.1631	0.43122	0.031
Mof_H 	H 	0.1668	0.1619	0.4132	0.047
Mof_C 	C 	0.154	0.1815	0.44433	-0.085
Mof_C 	C 	0.1395	0.2015	0.43015	0.363
Mof_C 	C 	0.1549	0.1821	0.47095	-0.015
Mof_H 	H 	0.1453	0.1946	0.4797	0.053
Mof_C 	C 	0.1838	0.14782	0.47182	-0.015
Mof_H 	H 	0.1945	0.1365	0.4809	0.053
Mof_C 	C 	0.1692	0.16499	0.48495	0.006
Mof_C 	C 	0.1697	0.16644	0.51376	-0.005
Mof_C 	C 	0.18423	0.14978	0.52835	-0.004
Mof_H 	H 	0.1941	0.1371	0.52	0.049
Mof_C 	C 	0.18472	0.15116	0.55464	-0.098
Mof_C 	C 	0.2022	0.13485	0.56979	0.382
Mof_C 	C 	0.17039	0.1692	0.56715	0.042
Mof_H 	H 	0.17	0.1698	0.5852	0.047
Mof_C 	C 	0.15639	0.18662	0.55246	-0.1
Mof_C 	C 	0.14259	0.20786	0.56586	0.406
Mof_C 	C 	0.1565	0.18532	0.52626	-0.003
Mof_H 	H 	0.1473	0.1976	0.5167	0.051
Mof_C 	C 	0.04304	0.06849	0.2463	0.42
Mof_C 	C 	0.01866	0.05376	0.2472	-0.114
Mof_C 	C 	0.99579	0.06686	0.2475	0.053
Mof_H 	H 	0.9956	0.0849	0.2466	0.047
Mof_C 	C 	0.97357	0.05368	0.249	-0.109
Mof_C 	C 	0.94931	0.06838	0.2492	0.387
Mof_C 	C 	0.97338	0.0275	0.25	-0.002
Mof_H 	H 	0.9577	0.0187	0.2514	0.049
Mof_C 	C 	0.99617	0.01402	0.249	-0.005
Mof_C 	C 	0.01882	0.0276	0.2484	0.001
Mof_H 	H 	0.0346	0.0188	0.2489	0.049
Mof_O 	O 	0.27918	0.13293	0.34533	-0.486
Mof_C 	C 	0.11995	0.93824	0.3022	0.387
Mof_Zn	Zn	0.71976	0.6211	0.87599	1.221
Mof_Zn	Zn	0.7772	0.62563	0.88053	1.216
Mof_Zn	Zn	0.74899	0.5721	0.87944	1.219
Mof_Zn	Zn	0.7498	0.60563	0.92958	1.22
Mof_Zn	Zn	0.61862	0.62687	0.76855	1.218
Mof_Zn	Zn	0.61224	0.61624	0.70935	1.22
Mof_Zn	Zn	0.59781	0.57145	0.74644	1.22
Mof_Zn	Zn	0.56424	0.62026	0.74368	1.22
Mof_O 	O 	0.74089	0.61698	0.83831	-0.462
Mof_O 	O 	0.8429	0.62977	0.78185	-0.47
Mof_O 	O 	0.83466	0.61533	0.74299	-0.412
Mof_O 	O 	0.65573	0.62396	0.75524	-0.444
Mof_O 	O 	0.64911	0.6069	0.7167	-0.459
Mof_O 	O 	0.75271	0.61354	0.66219	-0.478
Mof_O 	O 	0.7118	0.6204	0.65316	-0.478
Mof_O 	O 	0.6944	0.59898	0.85969	-0.46
Mof_O 	O 	0.71654	0.5629	0.86345	-0.487
Mof_O 	O 	0.62692	0.59793	0.79365	-0.463
Mof_O 	O 	0.61558	0.56061	0.7768	-0.487
Mof_O 	O 	0.61475	0.44754	0.78107	-0.472
Mof_O 	O 	0.687	0.41878	0.87288	-0.455
Mof_O 	O 	0.71523	0.4483	0.8607	-0.477
Mof_O 	O 	0.69694	0.62521	0.90851	-0.459
Mof_O 	O 	0.72069	0.62207	0.94362	-0.489
Mof_O 	O 	0.639	0.72343	0.94078	-0.485
Mof_O 	O 	0.63026	0.69645	0.90919	-0.41
Mof_O 	O 	0.69874	0.63562	0.09392	-0.479
Mof_O 	O 	0.71882	0.62255	0.05812	-0.487
Mof_O 	O 	0.63746	0.72666	0.05211	-0.487
Mof_O 	O 	0.63733	0.70561	0.08841	-0.458
Mof_O 	O 	0.54068	0.59164	0.7433	-0.507
Mof_O 	O 	0.56346	0.55664	0.74781	-0.496
Mof_O 	O 	0.45119	0.59218	0.74678	-0.493
Mof_O 	O 	0.42865	0.55622	0.75155	-0.485
Mof_O 	O 	0.59821	0.60757	0.743	-0.924
Mof_O 	O 	0.74912	0.60599	0.89306	-0.948
Mof_C 	C 	0.7617	0.6242	0.83172	0.392
Mof_C 	C 	0.7683	0.6233	0.80378	-0.088
Mof_C 	C 	0.7938	0.6242	0.79671	0.03
Mof_H 	H 	0.8067	0.6258	0.8093	0.055
Mof_C 	C 	0.80026	0.6227	0.77135	-0.084
Mof_C 	C 	0.82818	0.6222	0.7649	0.369
Mof_C 	C 	0.7814	0.6211	0.75301	-0.015
Mof_H 	H 	0.786	0.6204	0.7356	0.053
Mof_C 	C 	0.74958	0.6212	0.78524	-0.014
Mof_H 	H 	0.7323	0.6201	0.7902	0.054
Mof_C 	C 	0.75573	0.6206	0.75966	0.006
Mof_C 	C 	0.73546	0.6195	0.7398	-0.005
Mof_C 	C 	0.74142	0.6181	0.71433	-0.002
Mof_H 	H 	0.7588	0.6179	0.7094	0.049
Mof_C 	C 	0.70955	0.6193	0.7459	-0.004
Mof_H 	H 	0.7045	0.6209	0.7632	0.049
Mof_C 	C 	0.69107	0.617	0.7273	-0.098
Mof_C 	C 	0.6632	0.6166	0.7337	0.373
Mof_C 	C 	0.6978	0.6155	0.7026	0.05
Mof_H 	H 	0.6851	0.6133	0.6899	0.042
Mof_C 	C 	0.72295	0.617	0.69569	-0.104
Mof_C 	C 	0.7299	0.6164	0.66802	0.391
Mof_C 	C 	0.69782	0.57547	0.85589	0.388
Mof_C 	C 	0.67762	0.56134	0.84154	-0.095
Mof_C 	C 	0.66109	0.57452	0.82584	0.043
Mof_H 	H 	0.6614	0.5926	0.8252	0.048
Mof_C 	C 	0.64411	0.56073	0.81099	-0.101
Mof_C 	C 	0.62749	0.57429	0.79229	0.401
Mof_C 	C 	0.64289	0.53454	0.81291	-0.006
Mof_H 	H 	0.6308	0.5254	0.8031	0.053
Mof_C 	C 	0.67666	0.53495	0.84303	-0.009
Mof_H 	H 	0.6882	0.5262	0.8538	0.053
Mof_C 	C 	0.6592	0.5215	0.82904	0.002
Mof_C 	C 	0.65759	0.49269	0.83082	-0.003
Mof_C 	C 	0.63979	0.479	0.81695	-0.003
Mof_H 	H 	0.6285	0.4878	0.8059	0.05
Mof_C 	C 	0.63819	0.45256	0.81887	-0.098
Mof_O 	O 	0.6117	0.41729	0.81034	-0.457
Mof_C 	C 	0.65457	0.43961	0.8347	0.05
Mof_H 	H 	0.653	0.4217	0.8368	0.037
Mof_C 	C 	0.6732	0.45289	0.8474	-0.101
Mof_C 	C 	0.6928	0.4388	0.862	0.38
Mof_C 	C 	0.6747	0.47876	0.8453	-0
Mof_H 	H 	0.6879	0.4875	0.854	0.049
Mof_C 	C 	0.7012	0.6295	0.931	0.385
Mof_C 	C 	0.6831	0.6467	0.9451	-0.091
Mof_C 	C 	0.6678	0.6631	0.93122	0.031
Mof_H 	H 	0.6668	0.6619	0.9132	0.047
Mof_C 	C 	0.654	0.6815	0.94433	-0.085
Mof_C 	C 	0.6395	0.7015	0.93015	0.363
Mof_C 	C 	0.6549	0.6821	0.97095	-0.015
Mof_H 	H 	0.6453	0.6946	0.9797	0.053
Mof_C 	C 	0.6838	0.64782	0.97182	-0.015
Mof_H 	H 	0.6945	0.6365	0.9809	0.053
Mof_C 	C 	0.6692	0.66499	0.98495	0.006
Mof_C 	C 	0.6697	0.66644	0.01376	-0.005
Mof_C 	C 	0.68423	0.64978	0.02835	-0.004
Mof_H 	H 	0.6941	0.6371	0.02	0.049
Mof_C 	C 	0.68472	0.65116	0.05464	-0.098
Mof_C 	C 	0.7022	0.63485	0.06979	0.382
Mof_C 	C 	0.67039	0.6692	0.06715	0.042
Mof_H 	H 	0.67	0.6698	0.0852	0.047
Mof_C 	C 	0.65639	0.68662	0.05246	-0.1
Mof_C 	C 	0.64259	0.70786	0.06586	0.406
Mof_C 	C 	0.6565	0.68532	0.02626	-0.003
Mof_H 	H 	0.6473	0.6976	0.0167	0.051
Mof_C 	C 	0.54304	0.56849	0.7463	0.42
Mof_C 	C 	0.51866	0.55376	0.7472	-0.114
Mof_C 	C 	0.49579	0.56686	0.7475	0.053
Mof_H 	H 	0.4956	0.5849	0.7466	0.047
Mof_C 	C 	0.47357	0.55368	0.749	-0.109
Mof_C 	C 	0.44931	0.56838	0.7492	0.387
Mof_C 	C 	0.47338	0.5275	0.75	-0.002
Mof_H 	H 	0.4577	0.5187	0.7514	0.049
Mof_C 	C 	0.49617	0.51402	0.749	-0.005
Mof_C 	C 	0.51882	0.5276	0.7484	0.001
Mof_H 	H 	0.5346	0.5188	0.7489	0.049
Mof_O 	O 	0.77918	0.63293	0.84533	-0.486
Mof_C 	C 	0.61995	0.43824	0.8022	0.387
Mof_Zn	Zn	0.28024	0.8789	0.87599	1.221
Mof_Zn	Zn	0.2228	0.87437	0.88053	1.216
Mof_Zn	Zn	0.25101	0.9279	0.87944	1.219
Mof_Zn	Zn	0.2502	0.89437	0.92958	1.22
Mof_Zn	Zn	0.38138	0.87313	0.76855	1.218
Mof_Zn	Zn	0.38776	0.88376	0.70935	1.22
Mof_Zn	Zn	0.40219	0.92855	0.74644	1.22
Mof_Zn	Zn	0.43576	0.87974	0.74368	1.22
Mof_O 	O 	0.25911	0.88302	0.83831	-0.462
Mof_O 	O 	0.1571	0.87023	0.78185	-0.47
Mof_O 	O 	0.16534	0.88467	0.74299	-0.412
Mof_O 	O 	0.34427	0.87604	0.75524	-0.444
Mof_O 	O 	0.35089	0.8931	0.7167	-0.459
Mof_O 	O 	0.24729	0.88646	0.66219	-0.478
Mof_O 	O 	0.2882	0.8796	0.65316	-0.478
Mof_O 	O 	0.3056	0.90102	0.85969	-0.46
Mof_O 	O 	0.28346	0.9371	0.86345	-0.487
Mof_O 	O 	0.37308	0.90207	0.79365	-0.463
Mof_O 	O 	0.38442	0.93939	0.7768	-0.487
Mof_O 	O 	0.38525	0.05246	0.78107	-0.472
Mof_O 	O 	0.313	0.08122	0.87288	-0.455
Mof_O 	O 	0.28477	0.0517	0.8607	-0.477
Mof_O 	O 	0.30306	0.87479	0.90851	-0.459
Mof_O 	O 	0.27931	0.87793	0.94362	-0.489
Mof_O 	O 	0.361	0.77657	0.94078	-0.485
Mof_O 	O 	0.36974	0.80355	0.90919	-0.41
Mof_O 	O 	0.30126	0.86438	0.09392	-0.479
Mof_O 	O 	0.28118	0.87745	0.05812	-0.487
Mof_O 	O 	0.36254	0.77334	0.05211	-0.487
Mof_O 	O 	0.36267	0.79439	0.08841	-0.458
Mof_O 	O 	0.45932	0.90836	0.7433	-0.507
Mof_O 	O 	0.43654	0.94336	0.74781	-0.496
Mof_O 	O 	0.54881	0.90782	0.74678	-0.493
Mof_O 	O 	0.57135	0.94378	0.75155	-0.485
Mof_O 	O 	0.40179	0.89243	0.743	-0.924
Mof_O 	O 	0.25088	0.89401	0.89306	-0.948
Mof_C 	C 	0.2383	0.8758	0.83172	0.392
Mof_C 	C 	0.2317	0.8767	0.80378	-0.088
Mof_C 	C 	0.2062	0.8758	0.79671	0.03
Mof_H 	H 	0.1933	0.8742	0.8093	0.055
Mof_C 	C 	0.19974	0.8773	0.77135	-0.084
Mof_C 	C 	0.17182	0.8778	0.7649	0.369
Mof_C 	C 	0.2186	0.8789	0.75301	-0.015
Mof_H 	H 	0.214	0.8796	0.7356	0.053
Mof_C 	C 	0.25042	0.8788	0.78524	-0.014
Mof_H 	H 	0.2677	0.8799	0.7902	0.054
Mof_C 	C 	0.24427	0.8794	0.75966	0.006
Mof_C 	C 	0.26454	0.8805	0.7398	-0.005
Mof_C 	C 	0.25858	0.8819	0.71433	-0.002
Mof_H 	H 	0.2412	0.8821	0.7094	0.049
Mof_C 	C 	0.29045	0.8807	0.7459	-0.004
Mof_H 	H 	0.2955	0.8791	0.7632	0.049
Mof_C 	C 	0.30893	0.883	0.7273	-0.098
Mof_C 	C 	0.3368	0.8834	0.7337	0.373
Mof_C 	C 	0.3022	0.8845	0.7026	0.05
Mof_H 	H 	0.3149	0.8867	0.6899	0.042
Mof_C 	C 	0.27705	0.883	0.69569	-0.104
Mof_C 	C 	0.2701	0.8836	0.66802	0.391
Mof_C 	C 	0.30218	0.92453	0.85589	0.388
Mof_C 	C 	0.32238	0.93866	0.84154	-0.095
Mof_C 	C 	0.33891	0.92548	0.82584	0.043
Mof_H 	H 	0.3386	0.9074	0.8252	0.048
Mof_C 	C 	0.35589	0.93927	0.81099	-0.101
Mof_C 	C 	0.37251	0.92571	0.79229	0.401
Mof_C 	C 	0.35711	0.96546	0.81291	-0.006
Mof_H 	H 	0.3692	0.9746	0.8031	0.053
Mof_C 	C 	0.32334	0.96505	0.84303	-0.009
Mof_H 	H 	0.3118	0.9738	0.8538	0.053
Mof_C 	C 	0.3408	0.9785	0.82904	0.002
Mof_C 	C 	0.34241	0.00731	0.83082	-0.003
Mof_C 	C 	0.36021	0.021	0.81695	-0.003
Mof_H 	H 	0.3715	0.0122	0.8059	0.05
Mof_C 	C 	0.36181	0.04744	0.81887	-0.098
Mof_O 	O 	0.3883	0.08271	0.81034	-0.457
Mof_C 	C 	0.34543	0.06039	0.8347	0.05
Mof_H 	H 	0.347	0.0783	0.8368	0.037
Mof_C 	C 	0.3268	0.04711	0.8474	-0.101
Mof_C 	C 	0.3072	0.0612	0.862	0.38
Mof_C 	C 	0.3253	0.02124	0.8453	-0
Mof_H 	H 	0.3121	0.0125	0.854	0.049
Mof_C 	C 	0.2988	0.8705	0.931	0.385
Mof_C 	C 	0.3169	0.8533	0.9451	-0.091
Mof_C 	C 	0.3322	0.8369	0.93122	0.031
Mof_H 	H 	0.3332	0.8381	0.9132	0.047
Mof_C 	C 	0.346	0.8185	0.94433	-0.085
Mof_C 	C 	0.3605	0.7985	0.93015	0.363
Mof_C 	C 	0.3451	0.8179	0.97095	-0.015
Mof_H 	H 	0.3547	0.8054	0.9797	0.053
Mof_C 	C 	0.3162	0.85218	0.97182	-0.015
Mof_H 	H 	0.3055	0.8635	0.9809	0.053
Mof_C 	C 	0.3308	0.83501	0.98495	0.006
Mof_C 	C 	0.3303	0.83356	0.01376	-0.005
Mof_C 	C 	0.31577	0.85022	0.02835	-0.004
Mof_H 	H 	0.3059	0.8629	0.02	0.049
Mof_C 	C 	0.31528	0.84884	0.05464	-0.098
Mof_C 	C 	0.2978	0.86515	0.06979	0.382
Mof_C 	C 	0.32961	0.8308	0.06715	0.042
Mof_H 	H 	0.33	0.8302	0.0852	0.047
Mof_C 	C 	0.34361	0.81338	0.05246	-0.1
Mof_C 	C 	0.35741	0.79214	0.06586	0.406
Mof_C 	C 	0.3435	0.81468	0.02626	-0.003
Mof_H 	H 	0.3527	0.8024	0.0167	0.051
Mof_C 	C 	0.45696	0.93151	0.7463	0.42
Mof_C 	C 	0.48134	0.94624	0.7472	-0.114
Mof_C 	C 	0.50421	0.93314	0.7475	0.053
Mof_H 	H 	0.5044	0.9151	0.7466	0.047
Mof_C 	C 	0.52643	0.94632	0.749	-0.109
Mof_C 	C 	0.55069	0.93162	0.7492	0.387
Mof_C 	C 	0.52662	0.9725	0.75	-0.002
Mof_H 	H 	0.5423	0.9813	0.7514	0.049
Mof_C 	C 	0.50383	0.98598	0.749	-0.005
Mof_C 	C 	0.48118	0.9724	0.7484	0.001
Mof_H 	H 	0.4654	0.9812	0.7489	0.049
Mof_O 	O 	0.22082	0.86707	0.84533	-0.486
Mof_C 	C 	0.38005	0.06176	0.8022	0.387
Mof_Zn	Zn	0.78024	0.3789	0.37599	1.221
Mof_Zn	Zn	0.7228	0.37437	0.38053	1.216
Mof_Zn	Zn	0.75101	0.4279	0.37944	1.219
Mof_Zn	Zn	0.7502	0.39437	0.42958	1.22
Mof_Zn	Zn	0.88138	0.37313	0.26855	1.218
Mof_Zn	Zn	0.88776	0.38376	0.20935	1.22
Mof_Zn	Zn	0.90219	0.42855	0.24644	1.22
Mof_Zn	Zn	0.93576	0.37974	0.24368	1.22
Mof_O 	O 	0.75911	0.38302	0.33831	-0.462
Mof_O 	O 	0.6571	0.37023	0.28185	-0.47
Mof_O 	O 	0.66534	0.38467	0.24299	-0.412
Mof_O 	O 	0.84427	0.37604	0.25524	-0.444
Mof_O 	O 	0.85089	0.3931	0.2167	-0.459
Mof_O 	O 	0.74729	0.38646	0.16219	-0.478
Mof_O 	O 	0.7882	0.3796	0.15316	-0.478
Mof_O 	O 	0.8056	0.40102	0.35969	-0.46
Mof_O 	O 	0.78346	0.4371	0.36345	-0.487
Mof_O 	O 	0.87308	0.40207	0.29365	-0.463
Mof_O 	O 	0.88442	0.43939	0.2768	-0.487
Mof_O 	O 	0.88525	0.55246	0.28107	-0.472
Mof_O 	O 	0.813	0.58122	0.37288	-0.455
Mof_O 	O 	0.78477	0.5517	0.3607	-0.477
Mof_O 	O 	0.80306	0.37479	0.40851	-0.459
Mof_O 	O 	0.77931	0.37793	0.44362	-0.489
Mof_O 	O 	0.861	0.27657	0.44078	-0.485
Mof_O 	O 	0.86974	0.30355	0.40919	-0.41
Mof_O 	O 	0.80126	0.36438	0.59392	-0.479
Mof_O 	O 	0.78118	0.37745	0.55812	-0.487
Mof_O 	O 	0.86254	0.27334	0.55211	-0.487
Mof_O 	O 	0.86267	0.29439	0.58841	-0.458
Mof_O 	O 	0.95932	0.40836	0.2433	-0.507
Mof_O 	O 	0.93654	0.44336	0.24781	-0.496
Mof_O 	O 	0.04881	0.40782	0.24678	-0.493
Mof_O 	O 	0.07135	0.44378	0.25155	-0.485
Mof_O 	O 	0.90179	0.39243	0.243	-0.924
Mof_O 	O 	0.75088	0.39401	0.39306	-0.948
Mof_C 	C 	0.7383	0.3758	0.33172	0.392
Mof_C 	C 	0.7317	0.3767	0.30378	-0.088
Mof_C 	C 	0.7062	0.3758	0.29671	0.03
Mof_H 	H 	0.6933	0.3742	0.3093	0.055
Mof_C 	C 	0.69974	0.3773	0.27135	-0.084
Mof_C 	C 	0.67182	0.3778	0.2649	0.369
Mof_C 	C 	0.7186	0.3789	0.25301	-0.015
Mof_H 	H 	0.714	0.3796	0.2356	0.053
Mof_C 	C 	0.75042	0.3788	0.28524	-0.014
Mof_H 	H 	0.7677	0.3799	0.2902	0.054
Mof_C 	C 	0.74427	0.3794	0.25966	0.006
Mof_C 	C 	0.76454	0.3805	0.2398	-0.005
Mof_C 	C 	0.75858	0.3819	0.21433	-0.002
Mof_H 	H 	0.7412	0.3821	0.2094	0.049
Mof_C 	C 	0.79045	0.3807	0.2459	-0.004
Mof_H 	H 	0.7955	0.3791	0.2632	0.049
Mof_C 	C 	0.80893	0.383	0.2273	-0.098
Mof_C 	C 	0.8368	0.3834	0.2337	0.373
Mof_C 	C 	0.8022	0.3845	0.2026	0.05
Mof_H 	H 	0.8149	0.3867	0.1899	0.042
Mof_C 	C 	0.77705	0.383	0.19569	-0.104
Mof_C 	C 	0.7701	0.3836	0.16802	0.391
Mof_C 	C 	0.80218	0.42453	0.35589	0.388
Mof_C 	C 	0.82238	0.43866	0.34154	-0.095
Mof_C 	C 	0.83891	0.42548	0.32584	0.043
Mof_H 	H 	0.8386	0.4074	0.3252	0.048
Mof_C 	C 	0.85589	0.43927	0.31099	-0.101
Mof_C 	C 	0.87251	0.42571	0.29229	0.401
Mof_C 	C 	0.85711	0.46546	0.31291	-0.006
Mof_H 	H 	0.8692	0.4746	0.3031	0.053
Mof_C 	C 	0.82334	0.46505	0.34303	-0.009
Mof_H 	H 	0.8118	0.4738	0.3538	0.053
Mof_C 	C 	0.8408	0.4785	0.32904	0.002
Mof_C 	C 	0.84241	0.50731	0.33082	-0.003
Mof_C 	C 	0.86021	0.521	0.31695	-0.003
Mof_H 	H 	0.8715	0.5122	0.3059	0.05
Mof_C 	C 	0.86181	0.54744	0.31887	-0.098
Mof_O 	O 	0.8883	0.58271	0.31034	-0.457
Mof_C 	C 	0.84543	0.56039	0.3347	0.05
Mof_H 	H 	0.847	0.5783	0.3368	0.037
Mof_C 	C 	0.8268	0.54711	0.3474	-0.101
Mof_C 	C 	0.8072	0.5612	0.362	0.38
Mof_C 	C 	0.8253	0.52124	0.3453	-0
Mof_H 	H 	0.8121	0.5125	0.354	0.049
Mof_C 	C 	0.7988	0.3705	0.431	0.385
Mof_C 	C 	0.8169	0.3533	0.4451	-0.091
Mof_C 	C 	0.8322	0.3369	0.43122	0.031
Mof_H 	H 	0.8332	0.3381	0.4132	0.047
Mof_C 	C 	0.846	0.3185	0.44433	-0.085
Mof_C 	C 	0.8605	0.2985	0.43015	0.363
Mof_C 	C 	0.8451	0.3179	0.47095	-0.015
Mof_H 	H 	0.8547	0.3054	0.4797	0.053
Mof_C 	C 	0.8162	0.35218	0.47182	-0.015
Mof_H 	H 	0.8055	0.3635	0.4809	0.053
Mof_C 	C 	0.8308	0.33501	0.48495	0.006
Mof_C 	C 	0.8303	0.33356	0.51376	-0.005
Mof_C 	C 	0.81577	0.35022	0.52835	-0.004
Mof_H 	H 	0.8059	0.3629	0.52	0.049
Mof_C 	C 	0.81528	0.34884	0.55464	-0.098
Mof_C 	C 	0.7978	0.36515	0.56979	0.382
Mof_C 	C 	0.82961	0.3308	0.56715	0.042
Mof_H 	H 	0.83	0.3302	0.5852	0.047
Mof_C 	C 	0.84361	0.31338	0.55246	-0.1
Mof_C 	C 	0.85741	0.29214	0.56586	0.406
Mof_C 	C 	0.8435	0.31468	0.52626	-0.003
Mof_H 	H 	0.8527	0.3024	0.5167	0.051
Mof_C 	C 	0.95696	0.43151	0.2463	0.42
Mof_C 	C 	0.98134	0.44624	0.2472	-0.114
Mof_C 	C 	0.00421	0.43314	0.2475	0.053
Mof_H 	H 	0.0044	0.4151	0.2466	0.047
Mof_C 	C 	0.02643	0.44632	0.249	-0.109
Mof_C 	C 	0.05069	0.43162	0.2492	0.387
Mof_C 	C 	0.02662	0.4725	0.25	-0.002
Mof_H 	H 	0.0423	0.4813	0.2514	0.049
Mof_C 	C 	0.00383	0.48598	0.249	-0.005
Mof_C 	C 	0.98118	0.4724	0.2484	0.001
Mof_H 	H 	0.9654	0.4812	0.2489	0.049
Mof_O 	O 	0.72082	0.36707	0.34533	-0.486
Mof_C 	C 	0.88005	0.56176	0.3022	0.387
Mof_Zn	Zn	0.12401	0.78024	0.6211	1.221
Mof_Zn	Zn	0.11947	0.7228	0.62563	1.216
Mof_Zn	Zn	0.12056	0.75101	0.5721	1.219
Mof_Zn	Zn	0.07042	0.7502	0.60563	1.22
Mof_Zn	Zn	0.23145	0.88138	0.62687	1.218
Mof_Zn	Zn	0.29065	0.88776	0.61624	1.22
Mof_Zn	Zn	0.25356	0.90219	0.57145	1.22
Mof_Zn	Zn	0.25632	0.93576	0.62026	1.22
Mof_O 	O 	0.16169	0.75911	0.61698	-0.462
Mof_O 	O 	0.21815	0.6571	0.62977	-0.47
Mof_O 	O 	0.25701	0.66534	0.61533	-0.412
Mof_O 	O 	0.24476	0.84427	0.62396	-0.444
Mof_O 	O 	0.2833	0.85089	0.6069	-0.459
Mof_O 	O 	0.33781	0.74729	0.61354	-0.478
Mof_O 	O 	0.34684	0.7882	0.6204	-0.478
Mof_O 	O 	0.14031	0.8056	0.59898	-0.46
Mof_O 	O 	0.13655	0.78346	0.5629	-0.487
Mof_O 	O 	0.20635	0.87308	0.59793	-0.463
Mof_O 	O 	0.2232	0.88442	0.56061	-0.487
Mof_O 	O 	0.21893	0.88525	0.44754	-0.472
Mof_O 	O 	0.12712	0.813	0.41878	-0.455
Mof_O 	O 	0.1393	0.78477	0.4483	-0.477
Mof_O 	O 	0.09149	0.80306	0.62521	-0.459
Mof_O 	O 	0.05638	0.77931	0.62207	-0.489
Mof_O 	O 	0.05922	0.861	0.72343	-0.485
Mof_O 	O 	0.09081	0.86974	0.69645	-0.41
Mof_O 	O 	0.90608	0.80126	0.63562	-0.479
Mof_O 	O 	0.94188	0.78118	0.62255	-0.487
Mof_O 	O 	0.94789	0.86254	0.72666	-0.487
Mof_O 	O 	0.91159	0.86267	0.70561	-0.458
Mof_O 	O 	0.2567	0.95932	0.59164	-0.507
Mof_O 	O 	0.25219	0.93654	0.55664	-0.496
Mof_O 	O 	0.25322	0.04881	0.59218	-0.493
Mof_O 	O 	0.24845	0.07135	0.55622	-0.485
Mof_O 	O 	0.257	0.90179	0.60757	-0.924
Mof_O 	O 	0.10694	0.75088	0.60599	-0.948
Mof_C 	C 	0.16828	0.7383	0.6242	0.392
Mof_C 	C 	0.19622	0.7317	0.6233	-0.088
Mof_C 	C 	0.20329	0.7062	0.6242	0.03
Mof_H 	H 	0.1907	0.6933	0.6258	0.055
Mof_C 	C 	0.22865	0.69974	0.6227	-0.084
Mof_C 	C 	0.2351	0.67182	0.6222	0.369
Mof_C 	C 	0.24699	0.7186	0.6211	-0.015
Mof_H 	H 	0.2644	0.714	0.6204	0.053
Mof_C 	C 	0.21476	0.75042	0.6212	-0.014
Mof_H 	H 	0.2098	0.7677	0.6201	0.054
Mof_C 	C 	0.24034	0.74427	0.6206	0.006
Mof_C 	C 	0.2602	0.76454	0.6195	-0.005
Mof_C 	C 	0.28567	0.75858	0.6181	-0.002
Mof_H 	H 	0.2906	0.7412	0.6179	0.049
Mof_C 	C 	0.2541	0.79045	0.6193	-0.004
Mof_H 	H 	0.2368	0.7955	0.6209	0.049
Mof_C 	C 	0.2727	0.80893	0.617	-0.098
Mof_C 	C 	0.2663	0.8368	0.6166	0.373
Mof_C 	C 	0.2974	0.8022	0.6155	0.05
Mof_H 	H 	0.3101	0.8149	0.6133	0.042
Mof_C 	C 	0.30431	0.77705	0.617	-0.104
Mof_C 	C 	0.33198	0.7701	0.6164	0.391
Mof_C 	C 	0.14411	0.80218	0.57547	0.388
Mof_C 	C 	0.15846	0.82238	0.56134	-0.095
Mof_C 	C 	0.17416	0.83891	0.57452	0.043
Mof_H 	H 	0.1748	0.8386	0.5926	0.048
Mof_C 	C 	0.18901	0.85589	0.56073	-0.101
Mof_C 	C 	0.20771	0.87251	0.57429	0.401
Mof_C 	C 	0.18709	0.85711	0.53454	-0.006
Mof_H 	H 	0.1969	0.8692	0.5254	0.053
Mof_C 	C 	0.15697	0.82334	0.53495	-0.009
Mof_H 	H 	0.1462	0.8118	0.5262	0.053
Mof_C 	C 	0.17096	0.8408	0.5215	0.002
Mof_C 	C 	0.16918	0.84241	0.49269	-0.003
Mof_C 	C 	0.18305	0.86021	0.479	-0.003
Mof_H 	H 	0.1941	0.8715	0.4878	0.05
Mof_C 	C 	0.18113	0.86181	0.45256	-0.098
Mof_O 	O 	0.18966	0.8883	0.41729	-0.457
Mof_C 	C 	0.1653	0.84543	0.43961	0.05
Mof_H 	H 	0.1632	0.847	0.4217	0.037
Mof_C 	C 	0.1526	0.8268	0.45289	-0.101
Mof_C 	C 	0.138	0.8072	0.4388	0.38
Mof_C 	C 	0.1547	0.8253	0.47876	-0
Mof_H 	H 	0.146	0.8121	0.4875	0.049
Mof_C 	C 	0.069	0.7988	0.6295	0.385
Mof_C 	C 	0.0549	0.8169	0.6467	-0.091
Mof_C 	C 	0.06878	0.8322	0.6631	0.031
Mof_H 	H 	0.0868	0.8332	0.6619	0.047
Mof_C 	C 	0.05567	0.846	0.6815	-0.085
Mof_C 	C 	0.06985	0.8605	0.7015	0.363
Mof_C 	C 	0.02905	0.8451	0.6821	-0.015
Mof_H 	H 	0.0203	0.8547	0.6946	0.053
Mof_C 	C 	0.02818	0.8162	0.64782	-0.015
Mof_H 	H 	0.0191	0.8055	0.6365	0.053
Mof_C 	C 	0.01505	0.8308	0.66499	0.006
Mof_C 	C 	0.98624	0.8303	0.66644	-0.005
Mof_C 	C 	0.97165	0.81577	0.64978	-0.004
Mof_H 	H 	0.98	0.8059	0.6371	0.049
Mof_C 	C 	0.94536	0.81528	0.65116	-0.098
Mof_C 	C 	0.93021	0.7978	0.63485	0.382
Mof_C 	C 	0.93285	0.82961	0.6692	0.042
Mof_H 	H 	0.9148	0.83	0.6698	0.047
Mof_C 	C 	0.94754	0.84361	0.68662	-0.1
Mof_C 	C 	0.93414	0.85741	0.70786	0.406
Mof_C 	C 	0.97374	0.8435	0.68532	-0.003
Mof_H 	H 	0.9833	0.8527	0.6976	0.051
Mof_C 	C 	0.2537	0.95696	0.56849	0.42
Mof_C 	C 	0.2528	0.98134	0.55376	-0.114
Mof_C 	C 	0.2525	0.00421	0.56686	0.053
Mof_H 	H 	0.2534	0.0044	0.5849	0.047
Mof_C 	C 	0.251	0.02643	0.55368	-0.109
Mof_C 	C 	0.2508	0.05069	0.56838	0.387
Mof_C 	C 	0.25	0.02662	0.5275	-0.002
Mof_H 	H 	0.2486	0.0423	0.5187	0.049
Mof_C 	C 	0.251	0.00383	0.51402	-0.005
Mof_C 	C 	0.2516	0.98118	0.5276	0.001
Mof_H 	H 	0.2511	0.9654	0.5188	0.049
Mof_O 	O 	0.15467	0.72082	0.63293	-0.486
Mof_C 	C 	0.1978	0.88005	0.43824	0.387
Mof_Zn	Zn	0.62401	0.28024	0.1211	1.221
Mof_Zn	Zn	0.61947	0.2228	0.12563	1.216
Mof_Zn	Zn	0.62056	0.25101	0.0721	1.219
Mof_Zn	Zn	0.57042	0.2502	0.10563	1.22
Mof_Zn	Zn	0.73145	0.38138	0.12687	1.218
Mof_Zn	Zn	0.79065	0.38776	0.11624	1.22
Mof_Zn	Zn	0.75356	0.40219	0.07145	1.22
Mof_Zn	Zn	0.75632	0.43576	0.12026	1.22
Mof_O 	O 	0.66169	0.25911	0.11698	-0.462
Mof_O 	O 	0.71815	0.1571	0.12977	-0.47
Mof_O 	O 	0.75701	0.16534	0.11533	-0.412
Mof_O 	O 	0.74476	0.34427	0.12396	-0.444
Mof_O 	O 	0.7833	0.35089	0.1069	-0.459
Mof_O 	O 	0.83781	0.24729	0.11354	-0.478
Mof_O 	O 	0.84684	0.2882	0.1204	-0.478
Mof_O 	O 	0.64031	0.3056	0.09898	-0.46
Mof_O 	O 	0.63655	0.28346	0.0629	-0.487
Mof_O 	O 	0.70635	0.37308	0.09793	-0.463
Mof_O 	O 	0.7232	0.38442	0.06061	-0.487
Mof_O 	O 	0.71893	0.38525	0.94754	-0.472
Mof_O 	O 	0.62712	0.313	0.91878	-0.455
Mof_O 	O 	0.6393	0.28477	0.9483	-0.477
Mof_O 	O 	0.59149	0.30306	0.12521	-0.459
Mof_O 	O 	0.55638	0.27931	0.12207	-0.489
Mof_O 	O 	0.55922	0.361	0.22343	-0.485
Mof_O 	O 	0.59081	0.36974	0.19645	-0.41
Mof_O 	O 	0.40608	0.30126	0.13562	-0.479
Mof_O 	O 	0.44188	0.28118	0.12255	-0.487
Mof_O 	O 	0.44789	0.36254	0.22666	-0.487
Mof_O 	O 	0.41159	0.36267	0.20561	-0.458
Mof_O 	O 	0.7567	0.45932	0.09164	-0.507
Mof_O 	O 	0.75219	0.43654	0.05664	-0.496
Mof_O 	O 	0.75322	0.54881	0.09218	-0.493
Mof_O 	O 	0.74845	0.57135	0.05622	-0.485
Mof_O 	O 	0.757	0.40179	0.10757	-0.924
Mof_O 	O 	0.60694	0.25088	0.10599	-0.948
Mof_C 	C 	0.66828	0.2383	0.1242	0.392
Mof_C 	C 	0.69622	0.2317	0.1233	-0.088
Mof_C 	C 	0.70329	0.2062	0.1242	0.03
Mof_H 	H 	0.6907	0.1933	0.1258	0.055
Mof_C 	C 	0.72865	0.19974	0.1227	-0.084
Mof_C 	C 	0.7351	0.17182	0.1222	0.369
Mof_C 	C 	0.74699	0.2186	0.1211	-0.015
Mof_H 	H 	0.7644	0.214	0.1204	0.053
Mof_C 	C 	0.71476	0.25042	0.1212	-0.014
Mof_H 	H 	0.7098	0.2677	0.1201	0.054
Mof_C 	C 	0.74034	0.24427	0.1206	0.006
Mof_C 	C 	0.7602	0.26454	0.1195	-0.005
Mof_C 	C 	0.78567	0.25858	0.1181	-0.002
Mof_H 	H 	0.7906	0.2412	0.1179	0.049
Mof_C 	C 	0.7541	0.29045	0.1193	-0.004
Mof_H 	H 	0.7368	0.2955	0.1209	0.049
Mof_C 	C 	0.7727	0.30893	0.117	-0.098
Mof_C 	C 	0.7663	0.3368	0.1166	0.373
Mof_C 	C 	0.7974	0.3022	0.1155	0.05
Mof_H 	H 	0.8101	0.3149	0.1133	0.042
Mof_C 	C 	0.80431	0.27705	0.117	-0.104
Mof_C 	C 	0.83198	0.2701	0.1164	0.391
Mof_C 	C 	0.64411	0.30218	0.07547	0.388
Mof_C 	C 	0.65846	0.32238	0.06134	-0.095
Mof_C 	C 	0.67416	0.33891	0.07452	0.043
Mof_H 	H 	0.6748	0.3386	0.0926	0.048
Mof_C 	C 	0.68901	0.35589	0.06073	-0.101
Mof_C 	C 	0.70771	0.37251	0.07429	0.401
Mof_C 	C 	0.68709	0.35711	0.03454	-0.006
Mof_H 	H 	0.6969	0.3692	0.0254	0.053
Mof_C 	C 	0.65697	0.32334	0.03495	-0.009
Mof_H 	H 	0.6462	0.3118	0.0262	0.053
Mof_C 	C 	0.67096	0.3408	0.0215	0.002
Mof_C 	C 	0.66918	0.34241	0.99269	-0.003
Mof_C 	C 	0.68305	0.36021	0.979	-0.003
Mof_H 	H 	0.6941	0.3715	0.9878	0.05
Mof_C 	C 	0.68113	0.36181	0.95256	-0.098
Mof_O 	O 	0.68966	0.3883	0.91729	-0.457
Mof_C 	C 	0.6653	0.34543	0.93961	0.05
Mof_H 	H 	0.6632	0.347	0.9217	0.037
Mof_C 	C 	0.6526	0.3268	0.95289	-0.101
Mof_C 	C 	0.638	0.3072	0.9388	0.38
Mof_C 	C 	0.6547	0.3253	0.97876	-0
Mof_H 	H 	0.646	0.3121	0.9875	0.049
Mof_C 	C 	0.569	0.2988	0.1295	0.385
Mof_C 	C 	0.5549	0.3169	0.1467	-0.091
Mof_C 	C 	0.56878	0.3322	0.1631	0.031
Mof_H 	H 	0.5868	0.3332	0.1619	0.047
Mof_C 	C 	0.55567	0.346	0.1815	-0.085
Mof_C 	C 	0.56985	0.3605	0.2015	0.363
Mof_C 	C 	0.52905	0.3451	0.1821	-0.015
Mof_H 	H 	0.5203	0.3547	0.1946	0.053
Mof_C 	C 	0.52818	0.3162	0.14782	-0.015
Mof_H 	H 	0.5191	0.3055	0.1365	0.053
Mof_C 	C 	0.51505	0.3308	0.16499	0.006
Mof_C 	C 	0.48624	0.3303	0.16644	-0.005
Mof_C 	C 	0.47165	0.31577	0.14978	-0.004
Mof_H 	H 	0.48	0.3059	0.1371	0.049
Mof_C 	C 	0.44536	0.31528	0.15116	-0.098
Mof_C 	C 	0.43021	0.2978	0.13485	0.382
Mof_C 	C 	0.43285	0.32961	0.1692	0.042
Mof_H 	H 	0.4148	0.33	0.1698	0.047
Mof_C 	C 	0.44754	0.34361	0.18662	-0.1
Mof_C 	C 	0.43414	0.35741	0.20786	0.406
Mof_C 	C 	0.47374	0.3435	0.18532	-0.003
Mof_H 	H 	0.4833	0.3527	0.1976	0.051
Mof_C 	C 	0.7537	0.45696	0.06849	0.42
Mof_C 	C 	0.7528	0.48134	0.05376	-0.114
Mof_C 	C 	0.7525	0.50421	0.06686	0.053
Mof_H 	H 	0.7534	0.5044	0.0849	0.047
Mof_C 	C 	0.751	0.52643	0.05368	-0.109
Mof_C 	C 	0.7508	0.55069	0.06838	0.387
Mof_C 	C 	0.75	0.52662	0.0275	-0.002
Mof_H 	H 	0.7486	0.5423	0.0187	0.049
Mof_C 	C 	0.751	0.50383	0.01402	-0.005
Mof_C 	C 	0.7516	0.48118	0.0276	0.001
Mof_H 	H 	0.7511	0.4654	0.0188	0.049
Mof_O 	O 	0.65467	0.22082	0.13293	-0.486
Mof_C 	C 	0.6978	0.38005	0.93824	0.387
Mof_Zn	Zn	0.62401	0.71976	0.3789	1.221
Mof_Zn	Zn	0.61947	0.7772	0.37437	1.216
Mof_Zn	Zn	0.62056	0.74899	0.4279	1.219
Mof_Zn	Zn	0.57042	0.7498	0.39437	1.22
Mof_Zn	Zn	0.73145	0.61862	0.37313	1.218
Mof_Zn	Zn	0.79065	0.61224	0.38376	1.22
Mof_Zn	Zn	0.75356	0.59781	0.42855	1.22
Mof_Zn	Zn	0.75632	0.56424	0.37974	1.22
Mof_O 	O 	0.66169	0.74089	0.38302	-0.462
Mof_O 	O 	0.71815	0.8429	0.37023	-0.47
Mof_O 	O 	0.75701	0.83466	0.38467	-0.412
Mof_O 	O 	0.74476	0.65573	0.37604	-0.444
Mof_O 	O 	0.7833	0.64911	0.3931	-0.459
Mof_O 	O 	0.83781	0.75271	0.38646	-0.478
Mof_O 	O 	0.84684	0.7118	0.3796	-0.478
Mof_O 	O 	0.64031	0.6944	0.40102	-0.46
Mof_O 	O 	0.63655	0.71654	0.4371	-0.487
Mof_O 	O 	0.70635	0.62692	0.40207	-0.463
Mof_O 	O 	0.7232	0.61558	0.43939	-0.487
Mof_O 	O 	0.71893	0.61475	0.55246	-0.472
Mof_O 	O 	0.62712	0.687	0.58122	-0.455
Mof_O 	O 	0.6393	0.71523	0.5517	-0.477
Mof_O 	O 	0.59149	0.69694	0.37479	-0.459
Mof_O 	O 	0.55638	0.72069	0.37793	-0.489
Mof_O 	O 	0.55922	0.639	0.27657	-0.485
Mof_O 	O 	0.59081	0.63026	0.30355	-0.41
Mof_O 	O 	0.40608	0.69874	0.36438	-0.479
Mof_O 	O 	0.44188	0.71882	0.37745	-0.487
Mof_O 	O 	0.44789	0.63746	0.27334	-0.487
Mof_O 	O 	0.41159	0.63733	0.29439	-0.458
Mof_O 	O 	0.7567	0.54068	0.40836	-0.507
Mof_O 	O 	0.75219	0.56346	0.44336	-0.496
Mof_O 	O 	0.75322	0.45119	0.40782	-0.493
Mof_O 	O 	0.74845	0.42865	0.44378	-0.485
Mof_O 	O 	0.757	0.59821	0.39243	-0.924
Mof_O 	O 	0.60694	0.74912	0.39401	-0.948
Mof_C 	C 	0.66828	0.7617	0.3758	0.392
Mof_C 	C 	0.69622	0.7683	0.3767	-0.088
Mof_C 	C 	0.70329	0.7938	0.3758	0.03
Mof_H 	H 	0.6907	0.8067	0.3742	0.055
Mof_C 	C 	0.72865	0.80026	0.3773	-0.084
Mof_C 	C 	0.7351	0.82818	0.3778	0.369
Mof_C 	C 	0.74699	0.7814	0.3789	-0.015
Mof_H 	H 	0.7644	0.786	0.3796	0.053
Mof_C 	C 	0.71476	0.74958	0.3788	-0.014
Mof_H 	H 	0.7098	0.7323	0.3799	0.054
Mof_C 	C 	0.74034	0.75573	0.3794	0.006
Mof_C 	C 	0.7602	0.73546	0.3805	-0.005
Mof_C 	C 	0.78567	0.74142	0.3819	-0.002
Mof_H 	H 	0.7906	0.7588	0.3821	0.049
Mof_C 	C 	0.7541	0.70955	0.3807	-0.004
Mof_H 	H 	0.7368	0.7045	0.3791	0.049
Mof_C 	C 	0.7727	0.69107	0.383	-0.098
Mof_C 	C 	0.7663	0.6632	0.3834	0.373
Mof_C 	C 	0.7974	0.6978	0.3845	0.05
Mof_H 	H 	0.8101	0.6851	0.3867	0.042
Mof_C 	C 	0.80431	0.72295	0.383	-0.104
Mof_C 	C 	0.83198	0.7299	0.3836	0.391
Mof_C 	C 	0.64411	0.69782	0.42453	0.388
Mof_C 	C 	0.65846	0.67762	0.43866	-0.095
Mof_C 	C 	0.67416	0.66109	0.42548	0.043
Mof_H 	H 	0.6748	0.6614	0.4074	0.048
Mof_C 	C 	0.68901	0.64411	0.43927	-0.101
Mof_C 	C 	0.70771	0.62749	0.42571	0.401
Mof_C 	C 	0.68709	0.64289	0.46546	-0.006
Mof_H 	H 	0.6969	0.6308	0.4746	0.053
Mof_C 	C 	0.65697	0.67666	0.46505	-0.009
Mof_H 	H 	0.6462	0.6882	0.4738	0.053
Mof_C 	C 	0.67096	0.6592	0.4785	0.002
Mof_C 	C 	0.66918	0.65759	0.50731	-0.003
Mof_C 	C 	0.68305	0.63979	0.521	-0.003
Mof_H 	H 	0.6941	0.6285	0.5122	0.05
Mof_C 	C 	0.68113	0.63819	0.54744	-0.098
Mof_O 	O 	0.68966	0.6117	0.58271	-0.457
Mof_C 	C 	0.6653	0.65457	0.56039	0.05
Mof_H 	H 	0.6632	0.653	0.5783	0.037
Mof_C 	C 	0.6526	0.6732	0.54711	-0.101
Mof_C 	C 	0.638	0.6928	0.5612	0.38
Mof_C 	C 	0.6547	0.6747	0.52124	-0
Mof_H 	H 	0.646	0.6879	0.5125	0.049
Mof_C 	C 	0.569	0.7012	0.3705	0.385
Mof_C 	C 	0.5549	0.6831	0.3533	-0.091
Mof_C 	C 	0.56878	0.6678	0.3369	0.031
Mof_H 	H 	0.5868	0.6668	0.3381	0.047
Mof_C 	C 	0.55567	0.654	0.3185	-0.085
Mof_C 	C 	0.56985	0.6395	0.2985	0.363
Mof_C 	C 	0.52905	0.6549	0.3179	-0.015
Mof_H 	H 	0.5203	0.6453	0.3054	0.053
Mof_C 	C 	0.52818	0.6838	0.35218	-0.015
Mof_H 	H 	0.5191	0.6945	0.3635	0.053
Mof_C 	C 	0.51505	0.6692	0.33501	0.006
Mof_C 	C 	0.48624	0.6697	0.33356	-0.005
Mof_C 	C 	0.47165	0.68423	0.35022	-0.004
Mof_H 	H 	0.48	0.6941	0.3629	0.049
Mof_C 	C 	0.44536	0.68472	0.34884	-0.098
Mof_C 	C 	0.43021	0.7022	0.36515	0.382
Mof_C 	C 	0.43285	0.67039	0.3308	0.042
Mof_H 	H 	0.4148	0.67	0.3302	0.047
Mof_C 	C 	0.44754	0.65639	0.31338	-0.1
Mof_C 	C 	0.43414	0.64259	0.29214	0.406
Mof_C 	C 	0.47374	0.6565	0.31468	-0.003
Mof_H 	H 	0.4833	0.6473	0.3024	0.051
Mof_C 	C 	0.7537	0.54304	0.43151	0.42
Mof_C 	C 	0.7528	0.51866	0.44624	-0.114
Mof_C 	C 	0.7525	0.49579	0.43314	0.053
Mof_H 	H 	0.7534	0.4956	0.4151	0.047
Mof_C 	C 	0.751	0.47357	0.44632	-0.109
Mof_C 	C 	0.7508	0.44931	0.43162	0.387
Mof_C 	C 	0.75	0.47338	0.4725	-0.002
Mof_H 	H 	0.7486	0.4577	0.4813	0.049
Mof_C 	C 	0.751	0.49617	0.48598	-0.005
Mof_C 	C 	0.7516	0.51882	0.4724	0.001
Mof_H 	H 	0.7511	0.5346	0.4812	0.049
Mof_O 	O 	0.65467	0.77918	0.36707	-0.486
Mof_C 	C 	0.6978	0.61995	0.56176	0.387
Mof_Zn	Zn	0.12401	0.21976	0.8789	1.221
Mof_Zn	Zn	0.11947	0.2772	0.87437	1.216
Mof_Zn	Zn	0.12056	0.24899	0.9279	1.219
Mof_Zn	Zn	0.07042	0.2498	0.89437	1.22
Mof_Zn	Zn	0.23145	0.11862	0.87313	1.218
Mof_Zn	Zn	0.29065	0.11224	0.88376	1.22
Mof_Zn	Zn	0.25356	0.09781	0.92855	1.22
Mof_Zn	Zn	0.25632	0.06424	0.87974	1.22
Mof_O 	O 	0.16169	0.24089	0.88302	-0.462
Mof_O 	O 	0.21815	0.3429	0.87023	-0.47
Mof_O 	O 	0.25701	0.33466	0.88467	-0.412
Mof_O 	O 	0.24476	0.15573	0.87604	-0.444
Mof_O 	O 	0.2833	0.14911	0.8931	-0.459
Mof_O 	O 	0.33781	0.25271	0.88646	-0.478
Mof_O 	O 	0.34684	0.2118	0.8796	-0.478
Mof_O 	O 	0.14031	0.1944	0.90102	-0.46
Mof_O 	O 	0.13655	0.21654	0.9371	-0.487
Mof_O 	O 	0.20635	0.12692	0.90207	-0.463
Mof_O 	O 	0.2232	0.11558	0.93939	-0.487
Mof_O 	O 	0.21893	0.11475	0.05246	-0.472
Mof_O 	O 	0.12712	0.187	0.08122	-0.455
Mof_O 	O 	0.1393	0.21523	0.0517	-0.477
Mof_O 	O 	0.09149	0.19694	0.87479	-0.459
Mof_O 	O 	0.05638	0.22069	0.87793	-0.489
Mof_O 	O 	0.05922	0.139	0.77657	-0.485
Mof_O 	O 	0.09081	0.13026	0.80355	-0.41
Mof_O 	O 	0.90608	0.19874	0.86438	-0.479
Mof_O 	O 	0.94188	0.21882	0.87745	-0.487
Mof_O 	O 	0.94789	0.13746	0.77334	-0.487
Mof_O 	O 	0.91159	0.13733	0.79439	-0.458
Mof_O 	O 	0.2567	0.04068	0.90836	-0.507
Mof_O 	O 	0.25219	0.06346	0.94336	-0.496
Mof_O 	O 	0.25322	0.95119	0.90782	-0.493
Mof_O 	O 	0.24845	0.92865	0.94378	-0.485
Mof_O 	O 	0.257	0.09821	0.89243	-0.924
Mof_O 	O 	0.10694	0.24912	0.89401	-0.948
Mof_C 	C 	0.16828	0.2617	0.8758	0.392
Mof_C 	C 	0.19622	0.2683	0.8767	-0.088
Mof_C 	C 	0.20329	0.2938	0.8758	0.03
Mof_H 	H 	0.1907	0.3067	0.8742	0.055
Mof_C 	C 	0.22865	0.30026	0.8773	-0.084
Mof_C 	C 	0.2351	0.32818	0.8778	0.369
Mof_C 	C 	0.24699	0.2814	0.8789	-0.015
Mof_H 	H 	0.2644	0.286	0.8796	0.053
Mof_C 	C 	0.21476	0.24958	0.8788	-0.014
Mof_H 	H 	0.2098	0.2323	0.8799	0.054
Mof_C 	C 	0.24034	0.25573	0.8794	0.006
Mof_C 	C 	0.2602	0.23546	0.8805	-0.005
Mof_C 	C 	0.28567	0.24142	0.8819	-0.002
Mof_H 	H 	0.2906	0.2588	0.8821	0.049
Mof_C 	C 	0.2541	0.20955	0.8807	-0.004
Mof_H 	H 	0.2368	0.2045	0.8791	0.049
Mof_C 	C 	0.2727	0.19107	0.883	-0.098
Mof_C 	C 	0.2663	0.1632	0.8834	0.373
Mof_C 	C 	0.2974	0.1978	0.8845	0.05
Mof_H 	H 	0.3101	0.1851	0.8867	0.042
Mof_C 	C 	0.30431	0.22295	0.883	-0.104
Mof_C 	C 	0.33198	0.2299	0.8836	0.391
Mof_C 	C 	0.14411	0.19782	0.92453	0.388
Mof_C 	C 	0.15846	0.17762	0.93866	-0.095
Mof_C 	C 	0.17416	0.16109	0.92548	0.043
Mof_H 	H 	0.1748	0.1614	0.9074	0.048
Mof_C 	C 	0.18901	0.14411	0.93927	-0.101
Mof_C 	C 	0.20771	0.12749	0.92571	0.401
Mof_C 	C 	0.18709	0.14289	0.96546	-0.006
Mof_H 	H 	0.1969	0.1308	0.9746	0.053
Mof_C 	C 	0.15697	0.17666	0.96505	-0.009
Mof_H 	H 	0.1462	0.1882	0.9738	0.053
Mof_C 	C 	0.17096	0.1592	0.9785	0.002
Mof_C 	C 	0.16918	0.15759	0.00731	-0.003
Mof_C 	C 	0.18305	0.13979	0.021	-0.003
Mof_H 	H 	0.1941	0.1285	0.0122	0.05
Mof_C 	C 	0.18113	0.13819	0.04744	-0.098
Mof_O 	O 	0.18966	0.1117	0.08271	-0.457
Mof_C 	C 	0.1653	0.15457	0.06039	0.05
Mof_H 	H 	0.1632	0.153	0.0783	0.037
Mof_C 	C 	0.1526	0.1732	0.04711	-0.101
Mof_C 	C 	0.138	0.1928	0.0612	0.38
Mof_C 	C 	0.1547	0.1747	0.02124	-0
Mof_H 	H 	0.146	0.1879	0.0125	0.049
Mof_C 	C 	0.069	0.2012	0.8705	0.385
Mof_C 	C 	0.0549	0.1831	0.8533	-0.091
Mof_C 	C 	0.06878	0.1678	0.8369	0.031
Mof_H 	H 	0.0868	0.1668	0.8381	0.047
Mof_C 	C 	0.05567	0.154	0.8185	-0.085
Mof_C 	C 	0.06985	0.1395	0.7985	0.363
Mof_C 	C 	0.02905	0.1549	0.8179	-0.015
Mof_H 	H 	0.0203	0.1453	0.8054	0.053
Mof_C 	C 	0.02818	0.1838	0.85218	-0.015
Mof_H 	H 	0.0191	0.1945	0.8635	0.053
Mof_C 	C 	0.01505	0.1692	0.83501	0.006
Mof_C 	C 	0.98624	0.1697	0.83356	-0.005
Mof_C 	C 	0.97165	0.18423	0.85022	-0.004
Mof_H 	H 	0.98	0.1941	0.8629	0.049
Mof_C 	C 	0.94536	0.18472	0.84884	-0.098
Mof_C 	C 	0.93021	0.2022	0.86515	0.382
Mof_C 	C 	0.93285	0.17039	0.8308	0.042
Mof_H 	H 	0.9148	0.17	0.8302	0.047
Mof_C 	C 	0.94754	0.15639	0.81338	-0.1
Mof_C 	C 	0.93414	0.14259	0.79214	0.406
Mof_C 	C 	0.97374	0.1565	0.81468	-0.003
Mof_H 	H 	0.9833	0.1473	0.8024	0.051
Mof_C 	C 	0.2537	0.04304	0.93151	0.42
Mof_C 	C 	0.2528	0.01866	0.94624	-0.114
Mof_C 	C 	0.2525	0.99579	0.93314	0.053
Mof_H 	H 	0.2534	0.9956	0.9151	0.047
Mof_C 	C 	0.251	0.97357	0.94632	-0.109
Mof_C 	C 	0.2508	0.94931	0.93162	0.387
Mof_C 	C 	0.25	0.97338	0.9725	-0.002
Mof_H 	H 	0.2486	0.9577	0.9813	0.049
Mof_C 	C 	0.251	0.99617	0.98598	-0.005
Mof_C 	C 	0.2516	0.01882	0.9724	0.001
Mof_H 	H 	0.2511	0.0346	0.9812	0.049
Mof_O 	O 	0.15467	0.27918	0.86707	-0.486
Mof_C 	C 	0.1978	0.11995	0.06176	0.387
Mof_Zn	Zn	0.37599	0.21976	0.1211	1.221
Mof_Zn	Zn	0.38053	0.2772	0.12563	1.216
Mof_Zn	Zn	0.37944	0.24899	0.0721	1.219
Mof_Zn	Zn	0.42958	0.2498	0.10563	1.22
Mof_Zn	Zn	0.26855	0.11862	0.12687	1.218
Mof_Zn	Zn	0.20935	0.11224	0.11624	1.22
Mof_Zn	Zn	0.24644	0.09781	0.07145	1.22
Mof_Zn	Zn	0.24368	0.06424	0.12026	1.22
Mof_O 	O 	0.33831	0.24089	0.11698	-0.462
Mof_O 	O 	0.28185	0.3429	0.12977	-0.47
Mof_O 	O 	0.24299	0.33466	0.11533	-0.412
Mof_O 	O 	0.25524	0.15573	0.12396	-0.444
Mof_O 	O 	0.2167	0.14911	0.1069	-0.459
Mof_O 	O 	0.16219	0.25271	0.11354	-0.478
Mof_O 	O 	0.15316	0.2118	0.1204	-0.478
Mof_O 	O 	0.35969	0.1944	0.09898	-0.46
Mof_O 	O 	0.36345	0.21654	0.0629	-0.487
Mof_O 	O 	0.29365	0.12692	0.09793	-0.463
Mof_O 	O 	0.2768	0.11558	0.06061	-0.487
Mof_O 	O 	0.28107	0.11475	0.94754	-0.472
Mof_O 	O 	0.37288	0.187	0.91878	-0.455
Mof_O 	O 	0.3607	0.21523	0.9483	-0.477
Mof_O 	O 	0.40851	0.19694	0.12521	-0.459
Mof_O 	O 	0.44362	0.22069	0.12207	-0.489
Mof_O 	O 	0.44078	0.139	0.22343	-0.485
Mof_O 	O 	0.40919	0.13026	0.19645	-0.41
Mof_O 	O 	0.59392	0.19874	0.13562	-0.479
Mof_O 	O 	0.55812	0.21882	0.12255	-0.487
Mof_O 	O 	0.55211	0.13746	0.22666	-0.487
Mof_O 	O 	0.58841	0.13733	0.20561	-0.458
Mof_O 	O 	0.2433	0.04068	0.09164	-0.507
Mof_O 	O 	0.24781	0.06346	0.05664	-0.496
Mof_O 	O 	0.24678	0.95119	0.09218	-0.493
Mof_O 	O 	0.25155	0.92865	0.05622	-0.485
Mof_O 	O 	0.243	0.09821	0.10757	-0.924
Mof_O 	O 	0.39306	0.24912	0.10599	-0.948
Mof_C 	C 	0.33172	0.2617	0.1242	0.392
Mof_C 	C 	0.30378	0.2683	0.1233	-0.088
Mof_C 	C 	0.29671	0.2938	0.1242	0.03
Mof_H 	H 	0.3093	0.3067	0.1258	0.055
Mof_C 	C 	0.27135	0.30026	0.1227	-0.084
Mof_C 	C 	0.2649	0.32818	0.1222	0.369
Mof_C 	C 	0.25301	0.2814	0.1211	-0.015
Mof_H 	H 	0.2356	0.286	0.1204	0.053
Mof_C 	C 	0.28524	0.24958	0.1212	-0.014
Mof_H 	H 	0.2902	0.2323	0.1201	0.054
Mof_C 	C 	0.25966	0.25573	0.1206	0.006
Mof_C 	C 	0.2398	0.23546	0.1195	-0.005
Mof_C 	C 	0.21433	0.24142	0.1181	-0.002
Mof_H 	H 	0.2094	0.2588	0.1179	0.049
Mof_C 	C 	0.2459	0.20955	0.1193	-0.004
Mof_H 	H 	0.2632	0.2045	0.1209	0.049
Mof_C 	C 	0.2273	0.19107	0.117	-0.098
Mof_C 	C 	0.2337	0.1632	0.1166	0.373
Mof_C 	C 	0.2026	0.1978	0.1155	0.05
Mof_H 	H 	0.1899	0.1851	0.1133	0.042
Mof_C 	C 	0.19569	0.22295	0.117	-0.104
Mof_C 	C 	0.16802	0.2299	0.1164	0.391
Mof_C 	C 	0.35589	0.19782	0.07547	0.388
Mof_C 	C 	0.34154	0.17762	0.06134	-0.095
Mof_C 	C 	0.32584	0.16109	0.07452	0.043
Mof_H 	H 	0.3252	0.1614	0.0926	0.048
Mof_C 	C 	0.31099	0.14411	0.06073	-0.101
Mof_C 	C 	0.29229	0.12749	0.07429	0.401
Mof_C 	C 	0.31291	0.14289	0.03454	-0.006
Mof_H 	H 	0.3031	0.1308	0.0254	0.053
Mof_C 	C 	0.34303	0.17666	0.03495	-0.009
Mof_H 	H 	0.3538	0.1882	0.0262	0.053
Mof_C 	C 	0.32904	0.1592	0.0215	0.002
Mof_C 	C 	0.33082	0.15759	0.99269	-0.003
Mof_C 	C 	0.31695	0.13979	0.979	-0.003
Mof_H 	H 	0.3059	0.1285	0.9878	0.05
Mof_C 	C 	0.31887	0.13819	0.95256	-0.098
Mof_O 	O 	0.31034	0.1117	0.91729	-0.457
Mof_C 	C 	0.3347	0.15457	0.93961	0.05
Mof_H 	H 	0.3368	0.153	0.9217	0.037
Mof_C 	C 	0.3474	0.1732	0.95289	-0.101
Mof_C 	C 	0.362	0.1928	0.9388	0.38
Mof_C 	C 	0.3453	0.1747	0.97876	-0
Mof_H 	H 	0.354	0.1879	0.9875	0.049
Mof_C 	C 	0.431	0.2012	0.1295	0.385
Mof_C 	C 	0.4451	0.1831	0.1467	-0.091
Mof_C 	C 	0.43122	0.1678	0.1631	0.031
Mof_H 	H 	0.4132	0.1668	0.1619	0.047
Mof_C 	C 	0.44433	0.154	0.1815	-0.085
Mof_C 	C 	0.43015	0.1395	0.2015	0.363
Mof_C 	C 	0.47095	0.1549	0.1821	-0.015
Mof_H 	H 	0.4797	0.1453	0.1946	0.053
Mof_C 	C 	0.47182	0.1838	0.14782	-0.015
Mof_H 	H 	0.4809	0.1945	0.1365	0.053
Mof_C 	C 	0.48495	0.1692	0.16499	0.006
Mof_C 	C 	0.51376	0.1697	0.16644	-0.005
Mof_C 	C 	0.52835	0.18423	0.14978	-0.004
Mof_H 	H 	0.52	0.1941	0.1371	0.049
Mof_C 	C 	0.55464	0.18472	0.15116	-0.098
Mof_C 	C 	0.56979	0.2022	0.13485	0.382
Mof_C 	C 	0.56715	0.17039	0.1692	0.042
Mof_H 	H 	0.5852	0.17	0.1698	0.047
Mof_C 	C 	0.55246	0.15639	0.18662	-0.1
Mof_C 	C 	0.56586	0.14259	0.20786	0.406
Mof_C 	C 	0.52626	0.1565	0.18532	-0.003
Mof_H 	H 	0.5167	0.1473	0.1976	0.051
Mof_C 	C 	0.2463	0.04304	0.06849	0.42
Mof_C 	C 	0.2472	0.01866	0.05376	-0.114
Mof_C 	C 	0.2475	0.99579	0.06686	0.053
Mof_H 	H 	0.2466	0.9956	0.0849	0.047
Mof_C 	C 	0.249	0.97357	0.05368	-0.109
Mof_C 	C 	0.2492	0.94931	0.06838	0.387
Mof_C 	C 	0.25	0.97338	0.0275	-0.002
Mof_H 	H 	0.2514	0.9577	0.0187	0.049
Mof_C 	C 	0.249	0.99617	0.01402	-0.005
Mof_C 	C 	0.2484	0.01882	0.0276	0.001
Mof_H 	H 	0.2489	0.0346	0.0188	0.049
Mof_O 	O 	0.34533	0.27918	0.13293	-0.486
Mof_C 	C 	0.3022	0.11995	0.93824	0.387
Mof_Zn	Zn	0.87599	0.71976	0.6211	1.221
Mof_Zn	Zn	0.88053	0.7772	0.62563	1.216
Mof_Zn	Zn	0.87944	0.74899	0.5721	1.219
Mof_Zn	Zn	0.92958	0.7498	0.60563	1.22
Mof_Zn	Zn	0.76855	0.61862	0.62687	1.218
Mof_Zn	Zn	0.70935	0.61224	0.61624	1.22
Mof_Zn	Zn	0.74644	0.59781	0.57145	1.22
Mof_Zn	Zn	0.74368	0.56424	0.62026	1.22
Mof_O 	O 	0.83831	0.74089	0.61698	-0.462
Mof_O 	O 	0.78185	0.8429	0.62977	-0.47
Mof_O 	O 	0.74299	0.83466	0.61533	-0.412
Mof_O 	O 	0.75524	0.65573	0.62396	-0.444
Mof_O 	O 	0.7167	0.64911	0.6069	-0.459
Mof_O 	O 	0.66219	0.75271	0.61354	-0.478
Mof_O 	O 	0.65316	0.7118	0.6204	-0.478
Mof_O 	O 	0.85969	0.6944	0.59898	-0.46
Mof_O 	O 	0.86345	0.71654	0.5629	-0.487
Mof_O 	O 	0.79365	0.62692	0.59793	-0.463
Mof_O 	O 	0.7768	0.61558	0.56061	-0.487
Mof_O 	O 	0.78107	0.61475	0.44754	-0.472
Mof_O 	O 	0.87288	0.687	0.41878	-0.455
Mof_O 	O 	0.8607	0.71523	0.4483	-0.477
Mof_O 	O 	0.90851	0.69694	0.62521	-0.459
Mof_O 	O 	0.94362	0.72069	0.62207	-0.489
Mof_O 	O 	0.94078	0.639	0.72343	-0.485
Mof_O 	O 	0.90919	0.63026	0.69645	-0.41
Mof_O 	O 	0.09392	0.69874	0.63562	-0.479
Mof_O 	O 	0.05812	0.71882	0.62255	-0.487
Mof_O 	O 	0.05211	0.63746	0.72666	-0.487
Mof_O 	O 	0.08841	0.63733	0.70561	-0.458
Mof_O 	O 	0.7433	0.54068	0.59164	-0.507
Mof_O 	O 	0.74781	0.56346	0.55664	-0.496
Mof_O 	O 	0.74678	0.45119	0.59218	-0.493
Mof_O 	O 	0.75155	0.42865	0.55622	-0.485
Mof_O 	O 	0.743	0.59821	0.60757	-0.924
Mof_O 	O 	0.89306	0.74912	0.60599	-0.948
Mof_C 	C 	0.83172	0.7617	0.6242	0.392
Mof_C 	C 	0.80378	0.7683	0.6233	-0.088
Mof_C 	C 	0.79671	0.7938	0.6242	0.03
Mof_H 	H 	0.8093	0.8067	0.6258	0.055
Mof_C 	C 	0.77135	0.80026	0.6227	-0.084
Mof_C 	C 	0.7649	0.82818	0.6222	0.369
Mof_C 	C 	0.75301	0.7814	0.6211	-0.015
Mof_H 	H 	0.7356	0.786	0.6204	0.053
Mof_C 	C 	0.78524	0.74958	0.6212	-0.014
Mof_H 	H 	0.7902	0.7323	0.6201	0.054
Mof_C 	C 	0.75966	0.75573	0.6206	0.006
Mof_C 	C 	0.7398	0.73546	0.6195	-0.005
Mof_C 	C 	0.71433	0.74142	0.6181	-0.002
Mof_H 	H 	0.7094	0.7588	0.6179	0.049
Mof_C 	C 	0.7459	0.70955	0.6193	-0.004
Mof_H 	H 	0.7632	0.7045	0.6209	0.049
Mof_C 	C 	0.7273	0.69107	0.617	-0.098
Mof_C 	C 	0.7337	0.6632	0.6166	0.373
Mof_C 	C 	0.7026	0.6978	0.6155	0.05
Mof_H 	H 	0.6899	0.6851	0.6133	0.042
Mof_C 	C 	0.69569	0.72295	0.617	-0.104
Mof_C 	C 	0.66802	0.7299	0.6164	0.391
Mof_C 	C 	0.85589	0.69782	0.57547	0.388
Mof_C 	C 	0.84154	0.67762	0.56134	-0.095
Mof_C 	C 	0.82584	0.66109	0.57452	0.043
Mof_H 	H 	0.8252	0.6614	0.5926	0.048
Mof_C 	C 	0.81099	0.64411	0.56073	-0.101
Mof_C 	C 	0.79229	0.62749	0.57429	0.401
Mof_C 	C 	0.81291	0.64289	0.53454	-0.006
Mof_H 	H 	0.8031	0.6308	0.5254	0.053
Mof_C 	C 	0.84303	0.67666	0.53495	-0.009
Mof_H 	H 	0.8538	0.6882	0.5262	0.053
Mof_C 	C 	0.82904	0.6592	0.5215	0.002
Mof_C 	C 	0.83082	0.65759	0.49269	-0.003
Mof_C 	C 	0.81695	0.63979	0.479	-0.003
Mof_H 	H 	0.8059	0.6285	0.4878	0.05
Mof_C 	C 	0.81887	0.63819	0.45256	-0.098
Mof_O 	O 	0.81034	0.6117	0.41729	-0.457
Mof_C 	C 	0.8347	0.65457	0.43961	0.05
Mof_H 	H 	0.8368	0.653	0.4217	0.037
Mof_C 	C 	0.8474	0.6732	0.45289	-0.101
Mof_C 	C 	0.862	0.6928	0.4388	0.38
Mof_C 	C 	0.8453	0.6747	0.47876	-0
Mof_H 	H 	0.854	0.6879	0.4875	0.049
Mof_C 	C 	0.931	0.7012	0.6295	0.385
Mof_C 	C 	0.9451	0.6831	0.6467	-0.091
Mof_C 	C 	0.93122	0.6678	0.6631	0.031
Mof_H 	H 	0.9132	0.6668	0.6619	0.047
Mof_C 	C 	0.94433	0.654	0.6815	-0.085
Mof_C 	C 	0.93015	0.6395	0.7015	0.363
Mof_C 	C 	0.97095	0.6549	0.6821	-0.015
Mof_H 	H 	0.9797	0.6453	0.6946	0.053
Mof_C 	C 	0.97182	0.6838	0.64782	-0.015
Mof_H 	H 	0.9809	0.6945	0.6365	0.053
Mof_C 	C 	0.98495	0.6692	0.66499	0.006
Mof_C 	C 	0.01376	0.6697	0.66644	-0.005
Mof_C 	C 	0.02835	0.68423	0.64978	-0.004
Mof_H 	H 	0.02	0.6941	0.6371	0.049
Mof_C 	C 	0.05464	0.68472	0.65116	-0.098
Mof_C 	C 	0.06979	0.7022	0.63485	0.382
Mof_C 	C 	0.06715	0.67039	0.6692	0.042
Mof_H 	H 	0.0852	0.67	0.6698	0.047
Mof_C 	C 	0.05246	0.65639	0.68662	-0.1
Mof_C 	C 	0.06586	0.64259	0.70786	0.406
Mof_C 	C 	0.02626	0.6565	0.68532	-0.003
Mof_H 	H 	0.0167	0.6473	0.6976	0.051
Mof_C 	C 	0.7463	0.54304	0.56849	0.42
Mof_C 	C 	0.7472	0.51866	0.55376	-0.114
Mof_C 	C 	0.7475	0.49579	0.56686	0.053
Mof_H 	H 	0.7466	0.4956	0.5849	0.047
Mof_C 	C 	0.749	0.47357	0.55368	-0.109
Mof_C 	C 	0.7492	0.44931	0.56838	0.387
Mof_C 	C 	0.75	0.47338	0.5275	-0.002
Mof_H 	H 	0.7514	0.4577	0.5187	0.049
Mof_C 	C 	0.749	0.49617	0.51402	-0.005
Mof_C 	C 	0.7484	0.51882	0.5276	0.001
Mof_H 	H 	0.7489	0.5346	0.5188	0.049
Mof_O 	O 	0.84533	0.77918	0.63293	-0.486
Mof_C 	C 	0.8022	0.61995	0.43824	0.387
Mof_Zn	Zn	0.87599	0.28024	0.8789	1.221
Mof_Zn	Zn	0.88053	0.2228	0.87437	1.216
Mof_Zn	Zn	0.87944	0.25101	0.9279	1.219
Mof_Zn	Zn	0.92958	0.2502	0.89437	1.22
Mof_Zn	Zn	0.76855	0.38138	0.87313	1.218
Mof_Zn	Zn	0.70935	0.38776	0.88376	1.22
Mof_Zn	Zn	0.74644	0.40219	0.92855	1.22
Mof_Zn	Zn	0.74368	0.43576	0.87974	1.22
Mof_O 	O 	0.83831	0.25911	0.88302	-0.462
Mof_O 	O 	0.78185	0.1571	0.87023	-0.47
Mof_O 	O 	0.74299	0.16534	0.88467	-0.412
Mof_O 	O 	0.75524	0.34427	0.87604	-0.444
Mof_O 	O 	0.7167	0.35089	0.8931	-0.459
Mof_O 	O 	0.66219	0.24729	0.88646	-0.478
Mof_O 	O 	0.65316	0.2882	0.8796	-0.478
Mof_O 	O 	0.85969	0.3056	0.90102	-0.46
Mof_O 	O 	0.86345	0.28346	0.9371	-0.487
Mof_O 	O 	0.79365	0.37308	0.90207	-0.463
Mof_O 	O 	0.7768	0.38442	0.93939	-0.487
Mof_O 	O 	0.78107	0.38525	0.05246	-0.472
Mof_O 	O 	0.87288	0.313	0.08122	-0.455
Mof_O 	O 	0.8607	0.28477	0.0517	-0.477
Mof_O 	O 	0.90851	0.30306	0.87479	-0.459
Mof_O 	O 	0.94362	0.27931	0.87793	-0.489
Mof_O 	O 	0.94078	0.361	0.77657	-0.485
Mof_O 	O 	0.90919	0.36974	0.80355	-0.41
Mof_O 	O 	0.09392	0.30126	0.86438	-0.479
Mof_O 	O 	0.05812	0.28118	0.87745	-0.487
Mof_O 	O 	0.05211	0.36254	0.77334	-0.487
Mof_O 	O 	0.08841	0.36267	0.79439	-0.458
Mof_O 	O 	0.7433	0.45932	0.90836	-0.507
Mof_O 	O 	0.74781	0.43654	0.94336	-0.496
Mof_O 	O 	0.74678	0.54881	0.90782	-0.493
Mof_O 	O 	0.75155	0.57135	0.94378	-0.485
Mof_O 	O 	0.743	0.40179	0.89243	-0.924
Mof_O 	O 	0.89306	0.25088	0.89401	-0.948
Mof_C 	C 	0.83172	0.2383	0.8758	0.392
Mof_C 	C 	0.80378	0.2317	0.8767	-0.088
Mof_C 	C 	0.79671	0.2062	0.8758	0.03
Mof_H 	H 	0.8093	0.1933	0.8742	0.055
Mof_C 	C 	0.77135	0.19974	0.8773	-0.084
Mof_C 	C 	0.7649	0.17182	0.8778	0.369
Mof_C 	C 	0.75301	0.2186	0.8789	-0.015
Mof_H 	H 	0.7356	0.214	0.8796	0.053
Mof_C 	C 	0.78524	0.25042	0.8788	-0.014
Mof_H 	H 	0.7902	0.2677	0.8799	0.054
Mof_C 	C 	0.75966	0.24427	0.8794	0.006
Mof_C 	C 	0.7398	0.26454	0.8805	-0.005
Mof_C 	C 	0.71433	0.25858	0.8819	-0.002
Mof_H 	H 	0.7094	0.2412	0.8821	0.049
Mof_C 	C 	0.7459	0.29045	0.8807	-0.004
Mof_H 	H 	0.7632	0.2955	0.8791	0.049
Mof_C 	C 	0.7273	0.30893	0.883	-0.098
Mof_C 	C 	0.7337	0.3368	0.8834	0.373
Mof_C 	C 	0.7026	0.3022	0.8845	0.05
Mof_H 	H 	0.6899	0.3149	0.8867	0.042
Mof_C 	C 	0.69569	0.27705	0.883	-0.104
Mof_C 	C 	0.66802	0.2701	0.8836	0.391
Mof_C 	C 	0.85589	0.30218	0.92453	0.388
Mof_C 	C 	0.84154	0.32238	0.93866	-0.095
Mof_C 	C 	0.82584	0.33891	0.92548	0.043
Mof_H 	H 	0.8252	0.3386	0.9074	0.048
Mof_C 	C 	0.81099	0.35589	0.93927	-0.101
Mof_C 	C 	0.79229	0.37251	0.92571	0.401
Mof_C 	C 	0.81291	0.35711	0.96546	-0.006
Mof_H 	H 	0.8031	0.3692	0.9746	0.053
Mof_C 	C 	0.84303	0.32334	0.96505	-0.009
Mof_H 	H 	0.8538	0.3118	0.9738	0.053
Mof_C 	C 	0.82904	0.3408	0.9785	0.002
Mof_C 	C 	0.83082	0.34241	0.00731	-0.003
Mof_C 	C 	0.81695	0.36021	0.021	-0.003
Mof_H 	H 	0.8059	0.3715	0.0122	0.05
Mof_C 	C 	0.81887	0.36181	0.04744	-0.098
Mof_O 	O 	0.81034	0.3883	0.08271	-0.457
Mof_C 	C 	0.8347	0.34543	0.06039	0.05
Mof_H 	H 	0.8368	0.347	0.0783	0.037
Mof_C 	C 	0.8474	0.3268	0.04711	-0.101
Mof_C 	C 	0.862	0.3072	0.0612	0.38
Mof_C 	C 	0.8453	0.3253	0.02124	-0
Mof_H 	H 	0.854	0.3121	0.0125	0.049
Mof_C 	C 	0.931	0.2988	0.8705	0.385
Mof_C 	C 	0.9451	0.3169	0.8533	-0.091
Mof_C 	C 	0.93122	0.3322	0.8369	0.031
Mof_H 	H 	0.9132	0.3332	0.8381	0.047
Mof_C 	C 	0.94433	0.346	0.8185	-0.085
Mof_C 	C 	0.93015	0.3605	0.7985	0.363
Mof_C 	C 	0.97095	0.3451	0.8179	-0.015
Mof_H 	H 	0.9797	0.3547	0.8054	0.053
Mof_C 	C 	0.97182	0.3162	0.85218	-0.015
Mof_H 	H 	0.9809	0.3055	0.8635	0.053
Mof_C 	C 	0.98495	0.3308	0.83501	0.006
Mof_C 	C 	0.01376	0.3303	0.83356	-0.005
Mof_C 	C 	0.02835	0.31577	0.85022	-0.004
Mof_H 	H 	0.02	0.3059	0.8629	0.049
Mof_C 	C 	0.05464	0.31528	0.84884	-0.098
Mof_C 	C 	0.06979	0.2978	0.86515	0.382
Mof_C 	C 	0.06715	0.32961	0.8308	0.042
Mof_H 	H 	0.0852	0.33	0.8302	0.047
Mof_C 	C 	0.05246	0.34361	0.81338	-0.1
Mof_C 	C 	0.06586	0.35741	0.79214	0.406
Mof_C 	C 	0.02626	0.3435	0.81468	-0.003
Mof_H 	H 	0.0167	0.3527	0.8024	0.051
Mof_C 	C 	0.7463	0.45696	0.93151	0.42
Mof_C 	C 	0.7472	0.48134	0.94624	-0.114
Mof_C 	C 	0.7475	0.50421	0.93314	0.053
Mof_H 	H 	0.7466	0.5044	0.9151	0.047
Mof_C 	C 	0.749	0.52643	0.94632	-0.109
Mof_C 	C 	0.7492	0.55069	0.93162	0.387
Mof_C 	C 	0.75	0.52662	0.9725	-0.002
Mof_H 	H 	0.7514	0.5423	0.9813	0.049
Mof_C 	C 	0.749	0.50383	0.98598	-0.005
Mof_C 	C 	0.7484	0.48118	0.9724	0.001
Mof_H 	H 	0.7489	0.4654	0.9812	0.049
Mof_O 	O 	0.84533	0.22082	0.86707	-0.486
Mof_C 	C 	0.8022	0.38005	0.06176	0.387
Mof_Zn	Zn	0.37599	0.78024	0.3789	1.221
Mof_Zn	Zn	0.38053	0.7228	0.37437	1.216
Mof_Zn	Zn	0.37944	0.75101	0.4279	1.219
Mof_Zn	Zn	0.42958	0.7502	0.39437	1.22
Mof_Zn	Zn	0.26855	0.88138	0.37313	1.218
Mof_Zn	Zn	0.20935	0.88776	0.38376	1.22
Mof_Zn	Zn	0.24644	0.90219	0.42855	1.22
Mof_Zn	Zn	0.24368	0.93576	0.37974	1.22
Mof_O 	O 	0.33831	0.75911	0.38302	-0.462
Mof_O 	O 	0.28185	0.6571	0.37023	-0.47
Mof_O 	O 	0.24299	0.66534	0.38467	-0.412
Mof_O 	O 	0.25524	0.84427	0.37604	-0.444
Mof_O 	O 	0.2167	0.85089	0.3931	-0.459
Mof_O 	O 	0.16219	0.74729	0.38646	-0.478
Mof_O 	O 	0.15316	0.7882	0.3796	-0.478
Mof_O 	O 	0.35969	0.8056	0.40102	-0.46
Mof_O 	O 	0.36345	0.78346	0.4371	-0.487
Mof_O 	O 	0.29365	0.87308	0.40207	-0.463
Mof_O 	O 	0.2768	0.88442	0.43939	-0.487
Mof_O 	O 	0.28107	0.88525	0.55246	-0.472
Mof_O 	O 	0.37288	0.813	0.58122	-0.455
Mof_O 	O 	0.3607	0.78477	0.5517	-0.477
Mof_O 	O 	0.40851	0.80306	0.37479	-0.459
Mof_O 	O 	0.44362	0.77931	0.37793	-0.489
Mof_O 	O 	0.44078	0.861	0.27657	-0.485
Mof_O 	O 	0.40919	0.86974	0.30355	-0.41
Mof_O 	O 	0.59392	0.80126	0.36438	-0.479
Mof_O 	O 	0.55812	0.78118	0.37745	-0.487
Mof_O 	O 	0.55211	0.86254	0.27334	-0.487
Mof_O 	O 	0.58841	0.86267	0.29439	-0.458
Mof_O 	O 	0.2433	0.95932	0.40836	-0.507
Mof_O 	O 	0.24781	0.93654	0.44336	-0.496
Mof_O 	O 	0.24678	0.04881	0.40782	-0.493
Mof_O 	O 	0.25155	0.07135	0.44378	-0.485
Mof_O 	O 	0.243	0.90179	0.39243	-0.924
Mof_O 	O 	0.39306	0.75088	0.39401	-0.948
Mof_C 	C 	0.33172	0.7383	0.3758	0.392
Mof_C 	C 	0.30378	0.7317	0.3767	-0.088
Mof_C 	C 	0.29671	0.7062	0.3758	0.03
Mof_H 	H 	0.3093	0.6933	0.3742	0.055
Mof_C 	C 	0.27135	0.69974	0.3773	-0.084
Mof_C 	C 	0.2649	0.67182	0.3778	0.369
Mof_C 	C 	0.25301	0.7186	0.3789	-0.015
Mof_H 	H 	0.2356	0.714	0.3796	0.053
Mof_C 	C 	0.28524	0.75042	0.3788	-0.014
Mof_H 	H 	0.2902	0.7677	0.3799	0.054
Mof_C 	C 	0.25966	0.74427	0.3794	0.006
Mof_C 	C 	0.2398	0.76454	0.3805	-0.005
Mof_C 	C 	0.21433	0.75858	0.3819	-0.002
Mof_H 	H 	0.2094	0.7412	0.3821	0.049
Mof_C 	C 	0.2459	0.79045	0.3807	-0.004
Mof_H 	H 	0.2632	0.7955	0.3791	0.049
Mof_C 	C 	0.2273	0.80893	0.383	-0.098
Mof_C 	C 	0.2337	0.8368	0.3834	0.373
Mof_C 	C 	0.2026	0.8022	0.3845	0.05
Mof_H 	H 	0.1899	0.8149	0.3867	0.042
Mof_C 	C 	0.19569	0.77705	0.383	-0.104
Mof_C 	C 	0.16802	0.7701	0.3836	0.391
Mof_C 	C 	0.35589	0.80218	0.42453	0.388
Mof_C 	C 	0.34154	0.82238	0.43866	-0.095
Mof_C 	C 	0.32584	0.83891	0.42548	0.043
Mof_H 	H 	0.3252	0.8386	0.4074	0.048
Mof_C 	C 	0.31099	0.85589	0.43927	-0.101
Mof_C 	C 	0.29229	0.87251	0.42571	0.401
Mof_C 	C 	0.31291	0.85711	0.46546	-0.006
Mof_H 	H 	0.3031	0.8692	0.4746	0.053
Mof_C 	C 	0.34303	0.82334	0.46505	-0.009
Mof_H 	H 	0.3538	0.8118	0.4738	0.053
Mof_C 	C 	0.32904	0.8408	0.4785	0.002
Mof_C 	C 	0.33082	0.84241	0.50731	-0.003
Mof_C 	C 	0.31695	0.86021	0.521	-0.003
Mof_H 	H 	0.3059	0.8715	0.5122	0.05
Mof_C 	C 	0.31887	0.86181	0.54744	-0.098
Mof_O 	O 	0.31034	0.8883	0.58271	-0.457
Mof_C 	C 	0.3347	0.84543	0.56039	0.05
Mof_H 	H 	0.3368	0.847	0.5783	0.037
Mof_C 	C 	0.3474	0.8268	0.54711	-0.101
Mof_C 	C 	0.362	0.8072	0.5612	0.38
Mof_C 	C 	0.3453	0.8253	0.52124	-0
Mof_H 	H 	0.354	0.8121	0.5125	0.049
Mof_C 	C 	0.431	0.7988	0.3705	0.385
Mof_C 	C 	0.4451	0.8169	0.3533	-0.091
Mof_C 	C 	0.43122	0.8322	0.3369	0.031
Mof_H 	H 	0.4132	0.8332	0.3381	0.047
Mof_C 	C 	0.44433	0.846	0.3185	-0.085
Mof_C 	C 	0.43015	0.8605	0.2985	0.363
Mof_C 	C 	0.47095	0.8451	0.3179	-0.015
Mof_H 	H 	0.4797	0.8547	0.3054	0.053
Mof_C 	C 	0.47182	0.8162	0.35218	-0.015
Mof_H 	H 	0.4809	0.8055	0.3635	0.053
Mof_C 	C 	0.48495	0.8308	0.33501	0.006
Mof_C 	C 	0.51376	0.8303	0.33356	-0.005
Mof_C 	C 	0.52835	0.81577	0.35022	-0.004
Mof_H 	H 	0.52	0.8059	0.3629	0.049
Mof_C 	C 	0.55464	0.81528	0.34884	-0.098
Mof_C 	C 	0.56979	0.7978	0.36515	0.382
Mof_C 	C 	0.56715	0.82961	0.3308	0.042
Mof_H 	H 	0.5852	0.83	0.3302	0.047
Mof_C 	C 	0.55246	0.84361	0.31338	-0.1
Mof_C 	C 	0.56586	0.85741	0.29214	0.406
Mof_C 	C 	0.52626	0.8435	0.31468	-0.003
Mof_H 	H 	0.5167	0.8527	0.3024	0.051
Mof_C 	C 	0.2463	0.95696	0.43151	0.42
Mof_C 	C 	0.2472	0.98134	0.44624	-0.114
Mof_C 	C 	0.2475	0.00421	0.43314	0.053
Mof_H 	H 	0.2466	0.0044	0.4151	0.047
Mof_C 	C 	0.249	0.02643	0.44632	-0.109
Mof_C 	C 	0.2492	0.05069	0.43162	0.387
Mof_C 	C 	0.25	0.02662	0.4725	-0.002
Mof_H 	H 	0.2514	0.0423	0.4813	0.049
Mof_C 	C 	0.249	0.00383	0.48598	-0.005
Mof_C 	C 	0.2484	0.98118	0.4724	0.001
Mof_H 	H 	0.2489	0.9654	0.4812	0.049
Mof_O 	O 	0.34533	0.72082	0.36707	-0.486
Mof_C 	C 	0.3022	0.88005	0.56176	0.387
Mof_Zn	Zn	0.6211	0.12401	0.78024	1.221
Mof_Zn	Zn	0.62563	0.11947	0.7228	1.216
Mof_Zn	Zn	0.5721	0.12056	0.75101	1.219
Mof_Zn	Zn	0.60563	0.07042	0.7502	1.22
Mof_Zn	Zn	0.62687	0.23145	0.88138	1.218
Mof_Zn	Zn	0.61624	0.29065	0.88776	1.22
Mof_Zn	Zn	0.57145	0.25356	0.90219	1.22
Mof_Zn	Zn	0.62026	0.25632	0.93576	1.22
Mof_O 	O 	0.61698	0.16169	0.75911	-0.462
Mof_O 	O 	0.62977	0.21815	0.6571	-0.47
Mof_O 	O 	0.61533	0.25701	0.66534	-0.412
Mof_O 	O 	0.62396	0.24476	0.84427	-0.444
Mof_O 	O 	0.6069	0.2833	0.85089	-0.459
Mof_O 	O 	0.61354	0.33781	0.74729	-0.478
Mof_O 	O 	0.6204	0.34684	0.7882	-0.478
Mof_O 	O 	0.59898	0.14031	0.8056	-0.46
Mof_O 	O 	0.5629	0.13655	0.78346	-0.487
Mof_O 	O 	0.59793	0.20635	0.87308	-0.463
Mof_O 	O 	0.56061	0.2232	0.88442	-0.487
Mof_O 	O 	0.44754	0.21893	0.88525	-0.472
Mof_O 	O 	0.41878	0.12712	0.813	-0.455
Mof_O 	O 	0.4483	0.1393	0.78477	-0.477
Mof_O 	O 	0.62521	0.09149	0.80306	-0.459
Mof_O 	O 	0.62207	0.05638	0.77931	-0.489
Mof_O 	O 	0.72343	0.05922	0.861	-0.485
Mof_O 	O 	0.69645	0.09081	0.86974	-0.41
Mof_O 	O 	0.63562	0.90608	0.80126	-0.479
Mof_O 	O 	0.62255	0.94188	0.78118	-0.487
Mof_O 	O 	0.72666	0.94789	0.86254	-0.487
Mof_O 	O 	0.70561	0.91159	0.86267	-0.458
Mof_O 	O 	0.59164	0.2567	0.95932	-0.507
Mof_O 	O 	0.55664	0.25219	0.93654	-0.496
Mof_O 	O 	0.59218	0.25322	0.04881	-0.493
Mof_O 	O 	0.55622	0.24845	0.07135	-0.485
Mof_O 	O 	0.60757	0.257	0.90179	-0.924
Mof_O 	O 	0.60599	0.10694	0.75088	-0.948
Mof_C 	C 	0.6242	0.16828	0.7383	0.392
Mof_C 	C 	0.6233	0.19622	0.7317	-0.088
Mof_C 	C 	0.6242	0.20329	0.7062	0.03
Mof_H 	H 	0.6258	0.1907	0.6933	0.055
Mof_C 	C 	0.6227	0.22865	0.69974	-0.084
Mof_C 	C 	0.6222	0.2351	0.67182	0.369
Mof_C 	C 	0.6211	0.24699	0.7186	-0.015
Mof_H 	H 	0.6204	0.2644	0.714	0.053
Mof_C 	C 	0.6212	0.21476	0.75042	-0.014
Mof_H 	H 	0.6201	0.2098	0.7677	0.054
Mof_C 	C 	0.6206	0.24034	0.74427	0.006
Mof_C 	C 	0.6195	0.2602	0.76454	-0.005
Mof_C 	C 	0.6181	0.28567	0.75858	-0.002
Mof_H 	H 	0.6179	0.2906	0.7412	0.049
Mof_C 	C 	0.6193	0.2541	0.79045	-0.004
Mof_H 	H 	0.6209	0.2368	0.7955	0.049
Mof_C 	C 	0.617	0.2727	0.80893	-0.098
Mof_C 	C 	0.6166	0.2663	0.8368	0.373
Mof_C 	C 	0.6155	0.2974	0.8022	0.05
Mof_H 	H 	0.6133	0.3101	0.8149	0.042
Mof_C 	C 	0.617	0.30431	0.77705	-0.104
Mof_C 	C 	0.6164	0.33198	0.7701	0.391
Mof_C 	C 	0.57547	0.14411	0.80218	0.388
Mof_C 	C 	0.56134	0.15846	0.82238	-0.095
Mof_C 	C 	0.57452	0.17416	0.83891	0.043
Mof_H 	H 	0.5926	0.1748	0.8386	0.048
Mof_C 	C 	0.56073	0.18901	0.85589	-0.101
Mof_C 	C 	0.57429	0.20771	0.87251	0.401
Mof_C 	C 	0.53454	0.18709	0.85711	-0.006
Mof_H 	H 	0.5254	0.1969	0.8692	0.053
Mof_C 	C 	0.53495	0.15697	0.82334	-0.009
Mof_H 	H 	0.5262	0.1462	0.8118	0.053
Mof_C 	C 	0.5215	0.17096	0.8408	0.002
Mof_C 	C 	0.49269	0.16918	0.84241	-0.003
Mof_C 	C 	0.479	0.18305	0.86021	-0.003
Mof_H 	H 	0.4878	0.1941	0.8715	0.05
Mof_C 	C 	0.45256	0.18113	0.86181	-0.098
Mof_O 	O 	0.41729	0.18966	0.8883	-0.457
Mof_C 	C 	0.43961	0.1653	0.84543	0.05
Mof_H 	H 	0.4217	0.1632	0.847	0.037
Mof_C 	C 	0.45289	0.1526	0.8268	-0.101
Mof_C 	C 	0.4388	0.138	0.8072	0.38
Mof_C 	C 	0.47876	0.1547	0.8253	-0
Mof_H 	H 	0.4875	0.146	0.8121	0.049
Mof_C 	C 	0.6295	0.069	0.7988	0.385
Mof_C 	C 	0.6467	0.0549	0.8169	-0.091
Mof_C 	C 	0.6631	0.06878	0.8322	0.031
Mof_H 	H 	0.6619	0.0868	0.8332	0.047
Mof_C 	C 	0.6815	0.05567	0.846	-0.085
Mof_C 	C 	0.7015	0.06985	0.8605	0.363
Mof_C 	C 	0.6821	0.02905	0.8451	-0.015
Mof_H 	H 	0.6946	0.0203	0.8547	0.053
Mof_C 	C 	0.64782	0.02818	0.8162	-0.015
Mof_H 	H 	0.6365	0.0191	0.8055	0.053
Mof_C 	C 	0.66499	0.01505	0.8308	0.006
Mof_C 	C 	0.66644	0.98624	0.8303	-0.005
Mof_C 	C 	0.64978	0.97165	0.81577	-0.004
Mof_H 	H 	0.6371	0.98	0.8059	0.049
Mof_C 	C 	0.65116	0.94536	0.81528	-0.098
Mof_C 	C 	0.63485	0.93021	0.7978	0.382
Mof_C 	C 	0.6692	0.93285	0.82961	0.042
Mof_H 	H 	0.6698	0.9148	0.83	0.047
Mof_C 	C 	0.68662	0.94754	0.84361	-0.1
Mof_C 	C 	0.70786	0.93414	0.85741	0.406
Mof_C 	C 	0.68532	0.97374	0.8435	-0.003
Mof_H 	H 	0.6976	0.9833	0.8527	0.051
Mof_C 	C 	0.56849	0.2537	0.95696	0.42
Mof_C 	C 	0.55376	0.2528	0.98134	-0.114
Mof_C 	C 	0.56686	0.2525	0.00421	0.053
Mof_H 	H 	0.5849	0.2534	0.0044	0.047
Mof_C 	C 	0.55368	0.251	0.02643	-0.109
Mof_C 	C 	0.56838	0.2508	0.05069	0.387
Mof_C 	C 	0.5275	0.25	0.02662	-0.002
Mof_H 	H 	0.5187	0.2486	0.0423	0.049
Mof_C 	C 	0.51402	0.251	0.00383	-0.005
Mof_C 	C 	0.5276	0.2516	0.98118	0.001
Mof_H 	H 	0.5188	0.2511	0.9654	0.049
Mof_O 	O 	0.63293	0.15467	0.72082	-0.486
Mof_C 	C 	0.43824	0.1978	0.88005	0.387
Mof_Zn	Zn	0.1211	0.62401	0.28024	1.221
Mof_Zn	Zn	0.12563	0.61947	0.2228	1.216
Mof_Zn	Zn	0.0721	0.62056	0.25101	1.219
Mof_Zn	Zn	0.10563	0.57042	0.2502	1.22
Mof_Zn	Zn	0.12687	0.73145	0.38138	1.218
Mof_Zn	Zn	0.11624	0.79065	0.38776	1.22
Mof_Zn	Zn	0.07145	0.75356	0.40219	1.22
Mof_Zn	Zn	0.12026	0.75632	0.43576	1.22
Mof_O 	O 	0.11698	0.66169	0.25911	-0.462
Mof_O 	O 	0.12977	0.71815	0.1571	-0.47
Mof_O 	O 	0.11533	0.75701	0.16534	-0.412
Mof_O 	O 	0.12396	0.74476	0.34427	-0.444
Mof_O 	O 	0.1069	0.7833	0.35089	-0.459
Mof_O 	O 	0.11354	0.83781	0.24729	-0.478
Mof_O 	O 	0.1204	0.84684	0.2882	-0.478
Mof_O 	O 	0.09898	0.64031	0.3056	-0.46
Mof_O 	O 	0.0629	0.63655	0.28346	-0.487
Mof_O 	O 	0.09793	0.70635	0.37308	-0.463
Mof_O 	O 	0.06061	0.7232	0.38442	-0.487
Mof_O 	O 	0.94754	0.71893	0.38525	-0.472
Mof_O 	O 	0.91878	0.62712	0.313	-0.455
Mof_O 	O 	0.9483	0.6393	0.28477	-0.477
Mof_O 	O 	0.12521	0.59149	0.30306	-0.459
Mof_O 	O 	0.12207	0.55638	0.27931	-0.489
Mof_O 	O 	0.22343	0.55922	0.361	-0.485
Mof_O 	O 	0.19645	0.59081	0.36974	-0.41
Mof_O 	O 	0.13562	0.40608	0.30126	-0.479
Mof_O 	O 	0.12255	0.44188	0.28118	-0.487
Mof_O 	O 	0.22666	0.44789	0.36254	-0.487
Mof_O 	O 	0.20561	0.41159	0.36267	-0.458
Mof_O 	O 	0.09164	0.7567	0.45932	-0.507
Mof_O 	O 	0.05664	0.75219	0.43654	-0.496
Mof_O 	O 	0.09218	0.75322	0.54881	-0.493
Mof_O 	O 	0.05622	0.74845	0.57135	-0.485
Mof_O 	O 	0.10757	0.757	0.40179	-0.924
Mof_O 	O 	0.10599	0.60694	0.25088	-0.948
Mof_C 	C 	0.1242	0.66828	0.2383	0.392
Mof_C 	C 	0.1233	0.69622	0.2317	-0.088
Mof_C 	C 	0.1242	0.70329	0.2062	0.03
Mof_H 	H 	0.1258	0.6907	0.1933	0.055
Mof_C 	C 	0.1227	0.72865	0.19974	-0.084
Mof_C 	C 	0.1222	0.7351	0.17182	0.369
Mof_C 	C 	0.1211	0.74699	0.2186	-0.015
Mof_H 	H 	0.1204	0.7644	0.214	0.053
Mof_C 	C 	0.1212	0.71476	0.25042	-0.014
Mof_H 	H 	0.1201	0.7098	0.2677	0.054
Mof_C 	C 	0.1206	0.74034	0.24427	0.006
Mof_C 	C 	0.1195	0.7602	0.26454	-0.005
Mof_C 	C 	0.1181	0.78567	0.25858	-0.002
Mof_H 	H 	0.1179	0.7906	0.2412	0.049
Mof_C 	C 	0.1193	0.7541	0.29045	-0.004
Mof_H 	H 	0.1209	0.7368	0.2955	0.049
Mof_C 	C 	0.117	0.7727	0.30893	-0.098
Mof_C 	C 	0.1166	0.7663	0.3368	0.373
Mof_C 	C 	0.1155	0.7974	0.3022	0.05
Mof_H 	H 	0.1133	0.8101	0.3149	0.042
Mof_C 	C 	0.117	0.80431	0.27705	-0.104
Mof_C 	C 	0.1164	0.83198	0.2701	0.391
Mof_C 	C 	0.07547	0.64411	0.30218	0.388
Mof_C 	C 	0.06134	0.65846	0.32238	-0.095
Mof_C 	C 	0.07452	0.67416	0.33891	0.043
Mof_H 	H 	0.0926	0.6748	0.3386	0.048
Mof_C 	C 	0.06073	0.68901	0.35589	-0.101
Mof_C 	C 	0.07429	0.70771	0.37251	0.401
Mof_C 	C 	0.03454	0.68709	0.35711	-0.006
Mof_H 	H 	0.0254	0.6969	0.3692	0.053
Mof_C 	C 	0.03495	0.65697	0.32334	-0.009
Mof_H 	H 	0.0262	0.6462	0.3118	0.053
Mof_C 	C 	0.0215	0.67096	0.3408	0.002
Mof_C 	C 	0.99269	0.66918	0.34241	-0.003
Mof_C 	C 	0.979	0.68305	0.36021	-0.003
Mof_H 	H 	0.9878	0.6941	0.3715	0.05
Mof_C 	C 	0.95256	0.68113	0.36181	-0.098
Mof_O 	O 	0.91729	0.68966	0.3883	-0.457
Mof_C 	C 	0.93961	0.6653	0.34543	0.05
Mof_H 	H 	0.9217	0.6632	0.347	0.037
Mof_C 	C 	0.95289	0.6526	0.3268	-0.101
Mof_C 	C 	0.9388	0.638	0.3072	0.38
Mof_C 	C 	0.97876	0.6547	0.3253	-0
Mof_H 	H 	0.9875	0.646	0.3121	0.049
Mof_C 	C 	0.1295	0.569	0.2988	0.385
Mof_C 	C 	0.1467	0.5549	0.3169	-0.091
Mof_C 	C 	0.1631	0.56878	0.3322	0.031
Mof_H 	H 	0.1619	0.5868	0.3332	0.047
Mof_C 	C 	0.1815	0.55567	0.346	-0.085
Mof_C 	C 	0.2015	0.56985	0.3605	0.363
Mof_C 	C 	0.1821	0.52905	0.3451	-0.015
Mof_H 	H 	0.1946	0.5203	0.3547	0.053
Mof_C 	C 	0.14782	0.52818	0.3162	-0.015
Mof_H 	H 	0.1365	0.5191	0.3055	0.053
Mof_C 	C 	0.16499	0.51505	0.3308	0.006
Mof_C 	C 	0.16644	0.48624	0.3303	-0.005
Mof_C 	C 	0.14978	0.47165	0.31577	-0.004
Mof_H 	H 	0.1371	0.48	0.3059	0.049
Mof_C 	C 	0.15116	0.44536	0.31528	-0.098
Mof_C 	C 	0.13485	0.43021	0.2978	0.382
Mof_C 	C 	0.1692	0.43285	0.32961	0.042
Mof_H 	H 	0.1698	0.4148	0.33	0.047
Mof_C 	C 	0.18662	0.44754	0.34361	-0.1
Mof_C 	C 	0.20786	0.43414	0.35741	0.406
Mof_C 	C 	0.18532	0.47374	0.3435	-0.003
Mof_H 	H 	0.1976	0.4833	0.3527	0.051
Mof_C 	C 	0.06849	0.7537	0.45696	0.42
Mof_C 	C 	0.05376	0.7528	0.48134	-0.114
Mof_C 	C 	0.06686	0.7525	0.50421	0.053
Mof_H 	H 	0.0849	0.7534	0.5044	0.047
Mof_C 	C 	0.05368	0.751	0.52643	-0.109
Mof_C 	C 	0.06838	0.7508	0.55069	0.387
Mof_C 	C 	0.0275	0.75	0.52662	-0.002
Mof_H 	H 	0.0187	0.7486	0.5423	0.049
Mof_C 	C 	0.01402	0.751	0.50383	-0.005
Mof_C 	C 	0.0276	0.7516	0.48118	0.001
Mof_H 	H 	0.0188	0.7511	0.4654	0.049
Mof_O 	O 	0.13293	0.65467	0.22082	-0.486
Mof_C 	C 	0.93824	0.6978	0.38005	0.387
Mof_Zn	Zn	0.3789	0.62401	0.71976	1.221
Mof_Zn	Zn	0.37437	0.61947	0.7772	1.216
Mof_Zn	Zn	0.4279	0.62056	0.74899	1.219
Mof_Zn	Zn	0.39437	0.57042	0.7498	1.22
Mof_Zn	Zn	0.37313	0.73145	0.61862	1.218
Mof_Zn	Zn	0.38376	0.79065	0.61224	1.22
Mof_Zn	Zn	0.42855	0.75356	0.59781	1.22
Mof_Zn	Zn	0.37974	0.75632	0.56424	1.22
Mof_O 	O 	0.38302	0.66169	0.74089	-0.462
Mof_O 	O 	0.37023	0.71815	0.8429	-0.47
Mof_O 	O 	0.38467	0.75701	0.83466	-0.412
Mof_O 	O 	0.37604	0.74476	0.65573	-0.444
Mof_O 	O 	0.3931	0.7833	0.64911	-0.459
Mof_O 	O 	0.38646	0.83781	0.75271	-0.478
Mof_O 	O 	0.3796	0.84684	0.7118	-0.478
Mof_O 	O 	0.40102	0.64031	0.6944	-0.46
Mof_O 	O 	0.4371	0.63655	0.71654	-0.487
Mof_O 	O 	0.40207	0.70635	0.62692	-0.463
Mof_O 	O 	0.43939	0.7232	0.61558	-0.487
Mof_O 	O 	0.55246	0.71893	0.61475	-0.472
Mof_O 	O 	0.58122	0.62712	0.687	-0.455
Mof_O 	O 	0.5517	0.6393	0.71523	-0.477
Mof_O 	O 	0.37479	0.59149	0.69694	-0.459
Mof_O 	O 	0.37793	0.55638	0.72069	-0.489
Mof_O 	O 	0.27657	0.55922	0.639	-0.485
Mof_O 	O 	0.30355	0.59081	0.63026	-0.41
Mof_O 	O 	0.36438	0.40608	0.69874	-0.479
Mof_O 	O 	0.37745	0.44188	0.71882	-0.487
Mof_O 	O 	0.27334	0.44789	0.63746	-0.487
Mof_O 	O 	0.29439	0.41159	0.63733	-0.458
Mof_O 	O 	0.40836	0.7567	0.54068	-0.507
Mof_O 	O 	0.44336	0.75219	0.56346	-0.496
Mof_O 	O 	0.40782	0.75322	0.45119	-0.493
Mof_O 	O 	0.44378	0.74845	0.42865	-0.485
Mof_O 	O 	0.39243	0.757	0.59821	-0.924
Mof_O 	O 	0.39401	0.60694	0.74912	-0.948
Mof_C 	C 	0.3758	0.66828	0.7617	0.392
Mof_C 	C 	0.3767	0.69622	0.7683	-0.088
Mof_C 	C 	0.3758	0.70329	0.7938	0.03
Mof_H 	H 	0.3742	0.6907	0.8067	0.055
Mof_C 	C 	0.3773	0.72865	0.80026	-0.084
Mof_C 	C 	0.3778	0.7351	0.82818	0.369
Mof_C 	C 	0.3789	0.74699	0.7814	-0.015
Mof_H 	H 	0.3796	0.7644	0.786	0.053
Mof_C 	C 	0.3788	0.71476	0.74958	-0.014
Mof_H 	H 	0.3799	0.7098	0.7323	0.054
Mof_C 	C 	0.3794	0.74034	0.75573	0.006
Mof_C 	C 	0.3805	0.7602	0.73546	-0.005
Mof_C 	C 	0.3819	0.78567	0.74142	-0.002
Mof_H 	H 	0.3821	0.7906	0.7588	0.049
Mof_C 	C 	0.3807	0.7541	0.70955	-0.004
Mof_H 	H 	0.3791	0.7368	0.7045	0.049
Mof_C 	C 	0.383	0.7727	0.69107	-0.098
Mof_C 	C 	0.3834	0.7663	0.6632	0.373
Mof_C 	C 	0.3845	0.7974	0.6978	0.05
Mof_H 	H 	0.3867	0.8101	0.6851	0.042
Mof_C 	C 	0.383	0.80431	0.72295	-0.104
Mof_C 	C 	0.3836	0.83198	0.7299	0.391
Mof_C 	C 	0.42453	0.64411	0.69782	0.388
Mof_C 	C 	0.43866	0.65846	0.67762	-0.095
Mof_C 	C 	0.42548	0.67416	0.66109	0.043
Mof_H 	H 	0.4074	0.6748	0.6614	0.048
Mof_C 	C 	0.43927	0.68901	0.64411	-0.101
Mof_C 	C 	0.42571	0.70771	0.62749	0.401
Mof_C 	C 	0.46546	0.68709	0.64289	-0.006
Mof_H 	H 	0.4746	0.6969	0.6308	0.053
Mof_C 	C 	0.46505	0.65697	0.67666	-0.009
Mof_H 	H 	0.4738	0.6462	0.6882	0.053
Mof_C 	C 	0.4785	0.67096	0.6592	0.002
Mof_C 	C 	0.50731	0.66918	0.65759	-0.003
Mof_C 	C 	0.521	0.68305	0.63979	-0.003
Mof_H 	H 	0.5122	0.6941	0.6285	0.05
Mof_C 	C 	0.54744	0.68113	0.63819	-0.098
Mof_O 	O 	0.58271	0.68966	0.6117	-0.457
Mof_C 	C 	0.56039	0.6653	0.65457	0.05
Mof_H 	H 	0.5783	0.6632	0.653	0.037
Mof_C 	C 	0.54711	0.6526	0.6732	-0.101
Mof_C 	C 	0.5612	0.638	0.6928	0.38
Mof_C 	C 	0.52124	0.6547	0.6747	-0
Mof_H 	H 	0.5125	0.646	0.6879	0.049
Mof_C 	C 	0.3705	0.569	0.7012	0.385
Mof_C 	C 	0.3533	0.5549	0.6831	-0.091
Mof_C 	C 	0.3369	0.56878	0.6678	0.031
Mof_H 	H 	0.3381	0.5868	0.6668	0.047
Mof_C 	C 	0.3185	0.55567	0.654	-0.085
Mof_C 	C 	0.2985	0.56985	0.6395	0.363
Mof_C 	C 	0.3179	0.52905	0.6549	-0.015
Mof_H 	H 	0.3054	0.5203	0.6453	0.053
Mof_C 	C 	0.35218	0.52818	0.6838	-0.015
Mof_H 	H 	0.3635	0.5191	0.6945	0.053
Mof_C 	C 	0.33501	0.51505	0.6692	0.006
Mof_C 	C 	0.33356	0.48624	0.6697	-0.005
Mof_C 	C 	0.35022	0.47165	0.68423	-0.004
Mof_H 	H 	0.3629	0.48	0.6941	0.049
Mof_C 	C 	0.34884	0.44536	0.68472	-0.098
Mof_C 	C 	0.36515	0.43021	0.7022	0.382
Mof_C 	C 	0.3308	0.43285	0.67039	0.042
Mof_H 	H 	0.3302	0.4148	0.67	0.047
Mof_C 	C 	0.31338	0.44754	0.65639	-0.1
Mof_C 	C 	0.29214	0.43414	0.64259	0.406
Mof_C 	C 	0.31468	0.47374	0.6565	-0.003
Mof_H 	H 	0.3024	0.4833	0.6473	0.051
Mof_C 	C 	0.43151	0.7537	0.54304	0.42
Mof_C 	C 	0.44624	0.7528	0.51866	-0.114
Mof_C 	C 	0.43314	0.7525	0.49579	0.053
Mof_H 	H 	0.4151	0.7534	0.4956	0.047
Mof_C 	C 	0.44632	0.751	0.47357	-0.109
Mof_C 	C 	0.43162	0.7508	0.44931	0.387
Mof_C 	C 	0.4725	0.75	0.47338	-0.002
Mof_H 	H 	0.4813	0.7486	0.4577	0.049
Mof_C 	C 	0.48598	0.751	0.49617	-0.005
Mof_C 	C 	0.4724	0.7516	0.51882	0.001
Mof_H 	H 	0.4812	0.7511	0.5346	0.049
Mof_O 	O 	0.36707	0.65467	0.77918	-0.486
Mof_C 	C 	0.56176	0.6978	0.61995	0.387
Mof_Zn	Zn	0.8789	0.12401	0.21976	1.221
Mof_Zn	Zn	0.87437	0.11947	0.2772	1.216
Mof_Zn	Zn	0.9279	0.12056	0.24899	1.219
Mof_Zn	Zn	0.89437	0.07042	0.2498	1.22
Mof_Zn	Zn	0.87313	0.23145	0.11862	1.218
Mof_Zn	Zn	0.88376	0.29065	0.11224	1.22
Mof_Zn	Zn	0.92855	0.25356	0.09781	1.22
Mof_Zn	Zn	0.87974	0.25632	0.06424	1.22
Mof_O 	O 	0.88302	0.16169	0.24089	-0.462
Mof_O 	O 	0.87023	0.21815	0.3429	-0.47
Mof_O 	O 	0.88467	0.25701	0.33466	-0.412
Mof_O 	O 	0.87604	0.24476	0.15573	-0.444
Mof_O 	O 	0.8931	0.2833	0.14911	-0.459
Mof_O 	O 	0.88646	0.33781	0.25271	-0.478
Mof_O 	O 	0.8796	0.34684	0.2118	-0.478
Mof_O 	O 	0.90102	0.14031	0.1944	-0.46
Mof_O 	O 	0.9371	0.13655	0.21654	-0.487
Mof_O 	O 	0.90207	0.20635	0.12692	-0.463
Mof_O 	O 	0.93939	0.2232	0.11558	-0.487
Mof_O 	O 	0.05246	0.21893	0.11475	-0.472
Mof_O 	O 	0.08122	0.12712	0.187	-0.455
Mof_O 	O 	0.0517	0.1393	0.21523	-0.477
Mof_O 	O 	0.87479	0.09149	0.19694	-0.459
Mof_O 	O 	0.87793	0.05638	0.22069	-0.489
Mof_O 	O 	0.77657	0.05922	0.139	-0.485
Mof_O 	O 	0.80355	0.09081	0.13026	-0.41
Mof_O 	O 	0.86438	0.90608	0.19874	-0.479
Mof_O 	O 	0.87745	0.94188	0.21882	-0.487
Mof_O 	O 	0.77334	0.94789	0.13746	-0.487
Mof_O 	O 	0.79439	0.91159	0.13733	-0.458
Mof_O 	O 	0.90836	0.2567	0.04068	-0.507
Mof_O 	O 	0.94336	0.25219	0.06346	-0.496
Mof_O 	O 	0.90782	0.25322	0.95119	-0.493
Mof_O 	O 	0.94378	0.24845	0.92865	-0.485
Mof_O 	O 	0.89243	0.257	0.09821	-0.924
Mof_O 	O 	0.89401	0.10694	0.24912	-0.948
Mof_C 	C 	0.8758	0.16828	0.2617	0.392
Mof_C 	C 	0.8767	0.19622	0.2683	-0.088
Mof_C 	C 	0.8758	0.20329	0.2938	0.03
Mof_H 	H 	0.8742	0.1907	0.3067	0.055
Mof_C 	C 	0.8773	0.22865	0.30026	-0.084
Mof_C 	C 	0.8778	0.2351	0.32818	0.369
Mof_C 	C 	0.8789	0.24699	0.2814	-0.015
Mof_H 	H 	0.8796	0.2644	0.286	0.053
Mof_C 	C 	0.8788	0.21476	0.24958	-0.014
Mof_H 	H 	0.8799	0.2098	0.2323	0.054
Mof_C 	C 	0.8794	0.24034	0.25573	0.006
Mof_C 	C 	0.8805	0.2602	0.23546	-0.005
Mof_C 	C 	0.8819	0.28567	0.24142	-0.002
Mof_H 	H 	0.8821	0.2906	0.2588	0.049
Mof_C 	C 	0.8807	0.2541	0.20955	-0.004
Mof_H 	H 	0.8791	0.2368	0.2045	0.049
Mof_C 	C 	0.883	0.2727	0.19107	-0.098
Mof_C 	C 	0.8834	0.2663	0.1632	0.373
Mof_C 	C 	0.8845	0.2974	0.1978	0.05
Mof_H 	H 	0.8867	0.3101	0.1851	0.042
Mof_C 	C 	0.883	0.30431	0.22295	-0.104
Mof_C 	C 	0.8836	0.33198	0.2299	0.391
Mof_C 	C 	0.92453	0.14411	0.19782	0.388
Mof_C 	C 	0.93866	0.15846	0.17762	-0.095
Mof_C 	C 	0.92548	0.17416	0.16109	0.043
Mof_H 	H 	0.9074	0.1748	0.1614	0.048
Mof_C 	C 	0.93927	0.18901	0.14411	-0.101
Mof_C 	C 	0.92571	0.20771	0.12749	0.401
Mof_C 	C 	0.96546	0.18709	0.14289	-0.006
Mof_H 	H 	0.9746	0.1969	0.1308	0.053
Mof_C 	C 	0.96505	0.15697	0.17666	-0.009
Mof_H 	H 	0.9738	0.1462	0.1882	0.053
Mof_C 	C 	0.9785	0.17096	0.1592	0.002
Mof_C 	C 	0.00731	0.16918	0.15759	-0.003
Mof_C 	C 	0.021	0.18305	0.13979	-0.003
Mof_H 	H 	0.0122	0.1941	0.1285	0.05
Mof_C 	C 	0.04744	0.18113	0.13819	-0.098
Mof_O 	O 	0.08271	0.18966	0.1117	-0.457
Mof_C 	C 	0.06039	0.1653	0.15457	0.05
Mof_H 	H 	0.0783	0.1632	0.153	0.037
Mof_C 	C 	0.04711	0.1526	0.1732	-0.101
Mof_C 	C 	0.0612	0.138	0.1928	0.38
Mof_C 	C 	0.02124	0.1547	0.1747	-0
Mof_H 	H 	0.0125	0.146	0.1879	0.049
Mof_C 	C 	0.8705	0.069	0.2012	0.385
Mof_C 	C 	0.8533	0.0549	0.1831	-0.091
Mof_C 	C 	0.8369	0.06878	0.1678	0.031
Mof_H 	H 	0.8381	0.0868	0.1668	0.047
Mof_C 	C 	0.8185	0.05567	0.154	-0.085
Mof_C 	C 	0.7985	0.06985	0.1395	0.363
Mof_C 	C 	0.8179	0.02905	0.1549	-0.015
Mof_H 	H 	0.8054	0.0203	0.1453	0.053
Mof_C 	C 	0.85218	0.02818	0.1838	-0.015
Mof_H 	H 	0.8635	0.0191	0.1945	0.053
Mof_C 	C 	0.83501	0.01505	0.1692	0.006
Mof_C 	C 	0.83356	0.98624	0.1697	-0.005
Mof_C 	C 	0.85022	0.97165	0.18423	-0.004
Mof_H 	H 	0.8629	0.98	0.1941	0.049
Mof_C 	C 	0.84884	0.94536	0.18472	-0.098
Mof_C 	C 	0.86515	0.93021	0.2022	0.382
Mof_C 	C 	0.8308	0.93285	0.17039	0.042
Mof_H 	H 	0.8302	0.9148	0.17	0.047
Mof_C 	C 	0.81338	0.94754	0.15639	-0.1
Mof_C 	C 	0.79214	0.93414	0.14259	0.406
Mof_C 	C 	0.81468	0.97374	0.1565	-0.003
Mof_H 	H 	0.8024	0.9833	0.1473	0.051
Mof_C 	C 	0.93151	0.2537	0.04304	0.42
Mof_C 	C 	0.94624	0.2528	0.01866	-0.114
Mof_C 	C 	0.93314	0.2525	0.99579	0.053
Mof_H 	H 	0.9151	0.2534	0.9956	0.047
Mof_C 	C 	0.94632	0.251	0.97357	-0.109
Mof_C 	C 	0.93162	0.2508	0.94931	0.387
Mof_C 	C 	0.9725	0.25	0.97338	-0.002
Mof_H 	H 	0.9813	0.2486	0.9577	0.049
Mof_C 	C 	0.98598	0.251	0.99617	-0.005
Mof_C 	C 	0.9724	0.2516	0.01882	0.001
Mof_H 	H 	0.9812	0.2511	0.0346	0.049
Mof_O 	O 	0.86707	0.15467	0.27918	-0.486
Mof_C 	C 	0.06176	0.1978	0.11995	0.387
Mof_Zn	Zn	0.1211	0.37599	0.21976	1.221
Mof_Zn	Zn	0.12563	0.38053	0.2772	1.216
Mof_Zn	Zn	0.0721	0.37944	0.24899	1.219
Mof_Zn	Zn	0.10563	0.42958	0.2498	1.22
Mof_Zn	Zn	0.12687	0.26855	0.11862	1.218
Mof_Zn	Zn	0.11624	0.20935	0.11224	1.22
Mof_Zn	Zn	0.07145	0.24644	0.09781	1.22
Mof_Zn	Zn	0.12026	0.24368	0.06424	1.22
Mof_O 	O 	0.11698	0.33831	0.24089	-0.462
Mof_O 	O 	0.12977	0.28185	0.3429	-0.47
Mof_O 	O 	0.11533	0.24299	0.33466	-0.412
Mof_O 	O 	0.12396	0.25524	0.15573	-0.444
Mof_O 	O 	0.1069	0.2167	0.14911	-0.459
Mof_O 	O 	0.11354	0.16219	0.25271	-0.478
Mof_O 	O 	0.1204	0.15316	0.2118	-0.478
Mof_O 	O 	0.09898	0.35969	0.1944	-0.46
Mof_O 	O 	0.0629	0.36345	0.21654	-0.487
Mof_O 	O 	0.09793	0.29365	0.12692	-0.463
Mof_O 	O 	0.06061	0.2768	0.11558	-0.487
Mof_O 	O 	0.94754	0.28107	0.11475	-0.472
Mof_O 	O 	0.91878	0.37288	0.187	-0.455
Mof_O 	O 	0.9483	0.3607	0.21523	-0.477
Mof_O 	O 	0.12521	0.40851	0.19694	-0.459
Mof_O 	O 	0.12207	0.44362	0.22069	-0.489
Mof_O 	O 	0.22343	0.44078	0.139	-0.485
Mof_O 	O 	0.19645	0.40919	0.13026	-0.41
Mof_O 	O 	0.13562	0.59392	0.19874	-0.479
Mof_O 	O 	0.12255	0.55812	0.21882	-0.487
Mof_O 	O 	0.22666	0.55211	0.13746	-0.487
Mof_O 	O 	0.20561	0.58841	0.13733	-0.458
Mof_O 	O 	0.09164	0.2433	0.04068	-0.507
Mof_O 	O 	0.05664	0.24781	0.06346	-0.496
Mof_O 	O 	0.09218	0.24678	0.95119	-0.493
Mof_O 	O 	0.05622	0.25155	0.92865	-0.485
Mof_O 	O 	0.10757	0.243	0.09821	-0.924
Mof_O 	O 	0.10599	0.39306	0.24912	-0.948
Mof_C 	C 	0.1242	0.33172	0.2617	0.392
Mof_C 	C 	0.1233	0.30378	0.2683	-0.088
Mof_C 	C 	0.1242	0.29671	0.2938	0.03
Mof_H 	H 	0.1258	0.3093	0.3067	0.055
Mof_C 	C 	0.1227	0.27135	0.30026	-0.084
Mof_C 	C 	0.1222	0.2649	0.32818	0.369
Mof_C 	C 	0.1211	0.25301	0.2814	-0.015
Mof_H 	H 	0.1204	0.2356	0.286	0.053
Mof_C 	C 	0.1212	0.28524	0.24958	-0.014
Mof_H 	H 	0.1201	0.2902	0.2323	0.054
Mof_C 	C 	0.1206	0.25966	0.25573	0.006
Mof_C 	C 	0.1195	0.2398	0.23546	-0.005
Mof_C 	C 	0.1181	0.21433	0.24142	-0.002
Mof_H 	H 	0.1179	0.2094	0.2588	0.049
Mof_C 	C 	0.1193	0.2459	0.20955	-0.004
Mof_H 	H 	0.1209	0.2632	0.2045	0.049
Mof_C 	C 	0.117	0.2273	0.19107	-0.098
Mof_C 	C 	0.1166	0.2337	0.1632	0.373
Mof_C 	C 	0.1155	0.2026	0.1978	0.05
Mof_H 	H 	0.1133	0.1899	0.1851	0.042
Mof_C 	C 	0.117	0.19569	0.22295	-0.104
Mof_C 	C 	0.1164	0.16802	0.2299	0.391
Mof_C 	C 	0.07547	0.35589	0.19782	0.388
Mof_C 	C 	0.06134	0.34154	0.17762	-0.095
Mof_C 	C 	0.07452	0.32584	0.16109	0.043
Mof_H 	H 	0.0926	0.3252	0.1614	0.048
Mof_C 	C 	0.06073	0.31099	0.14411	-0.101
Mof_C 	C 	0.07429	0.29229	0.12749	0.401
Mof_C 	C 	0.03454	0.31291	0.14289	-0.006
Mof_H 	H 	0.0254	0.3031	0.1308	0.053
Mof_C 	C 	0.03495	0.34303	0.17666	-0.009
Mof_H 	H 	0.0262	0.3538	0.1882	0.053
Mof_C 	C 	0.0215	0.32904	0.1592	0.002
Mof_C 	C 	0.99269	0.33082	0.15759	-0.003
Mof_C 	C 	0.979	0.31695	0.13979	-0.003
Mof_H 	H 	0.9878	0.3059	0.1285	0.05
Mof_C 	C 	0.95256	0.31887	0.13819	-0.098
Mof_O 	O 	0.91729	0.31034	0.1117	-0.457
Mof_C 	C 	0.93961	0.3347	0.15457	0.05
Mof_H 	H 	0.9217	0.3368	0.153	0.037
Mof_C 	C 	0.95289	0.3474	0.1732	-0.101
Mof_C 	C 	0.9388	0.362	0.1928	0.38
Mof_C 	C 	0.97876	0.3453	0.1747	-0
Mof_H 	H 	0.9875	0.354	0.1879	0.049
Mof_C 	C 	0.1295	0.431	0.2012	0.385
Mof_C 	C 	0.1467	0.4451	0.1831	-0.091
Mof_C 	C 	0.1631	0.43122	0.1678	0.031
Mof_H 	H 	0.1619	0.4132	0.1668	0.047
Mof_C 	C 	0.1815	0.44433	0.154	-0.085
Mof_C 	C 	0.2015	0.43015	0.1395	0.363
Mof_C 	C 	0.1821	0.47095	0.1549	-0.015
Mof_H 	H 	0.1946	0.4797	0.1453	0.053
Mof_C 	C 	0.14782	0.47182	0.1838	-0.015
Mof_H 	H 	0.1365	0.4809	0.1945	0.053
Mof_C 	C 	0.16499	0.48495	0.1692	0.006
Mof_C 	C 	0.16644	0.51376	0.1697	-0.005
Mof_C 	C 	0.14978	0.52835	0.18423	-0.004
Mof_H 	H 	0.1371	0.52	0.1941	0.049
Mof_C 	C 	0.15116	0.55464	0.18472	-0.098
Mof_C 	C 	0.13485	0.56979	0.2022	0.382
Mof_C 	C 	0.1692	0.56715	0.17039	0.042
Mof_H 	H 	0.1698	0.5852	0.17	0.047
Mof_C 	C 	0.18662	0.55246	0.15639	-0.1
Mof_C 	C 	0.20786	0.56586	0.14259	0.406
Mof_C 	C 	0.18532	0.52626	0.1565	-0.003
Mof_H 	H 	0.1976	0.5167	0.1473	0.051
Mof_C 	C 	0.06849	0.2463	0.04304	0.42
Mof_C 	C 	0.05376	0.2472	0.01866	-0.114
Mof_C 	C 	0.06686	0.2475	0.99579	0.053
Mof_H 	H 	0.0849	0.2466	0.9956	0.047
Mof_C 	C 	0.05368	0.249	0.97357	-0.109
Mof_C 	C 	0.06838	0.2492	0.94931	0.387
Mof_C 	C 	0.0275	0.25	0.97338	-0.002
Mof_H 	H 	0.0187	0.2514	0.9577	0.049
Mof_C 	C 	0.01402	0.249	0.99617	-0.005
Mof_C 	C 	0.0276	0.2484	0.01882	0.001
Mof_H 	H 	0.0188	0.2489	0.0346	0.049
Mof_O 	O 	0.13293	0.34533	0.27918	-0.486
Mof_C 	C 	0.93824	0.3022	0.11995	0.387
Mof_Zn	Zn	0.6211	0.87599	0.71976	1.221
Mof_Zn	Zn	0.62563	0.88053	0.7772	1.216
Mof_Zn	Zn	0.5721	0.87944	0.74899	1.219
Mof_Zn	Zn	0.60563	0.92958	0.7498	1.22
Mof_Zn	Zn	0.62687	0.76855	0.61862	1.218
Mof_Zn	Zn	0.61624	0.70935	0.61224	1.22
Mof_Zn	Zn	0.57145	0.74644	0.59781	1.22
Mof_Zn	Zn	0.62026	0.74368	0.56424	1.22
Mof_O 	O 	0.61698	0.83831	0.74089	-0.462
Mof_O 	O 	0.62977	0.78185	0.8429	-0.47
Mof_O 	O 	0.61533	0.74299	0.83466	-0.412
Mof_O 	O 	0.62396	0.75524	0.65573	-0.444
Mof_O 	O 	0.6069	0.7167	0.64911	-0.459
Mof_O 	O 	0.61354	0.66219	0.75271	-0.478
Mof_O 	O 	0.6204	0.65316	0.7118	-0.478
Mof_O 	O 	0.59898	0.85969	0.6944	-0.46
Mof_O 	O 	0.5629	0.86345	0.71654	-0.487
Mof_O 	O 	0.59793	0.79365	0.62692	-0.463
Mof_O 	O 	0.56061	0.7768	0.61558	-0.487
Mof_O 	O 	0.44754	0.78107	0.61475	-0.472
Mof_O 	O 	0.41878	0.87288	0.687	-0.455
Mof_O 	O 	0.4483	0.8607	0.71523	-0.477
Mof_O 	O 	0.62521	0.90851	0.69694	-0.459
Mof_O 	O 	0.62207	0.94362	0.72069	-0.489
Mof_O 	O 	0.72343	0.94078	0.639	-0.485
Mof_O 	O 	0.69645	0.90919	0.63026	-0.41
Mof_O 	O 	0.63562	0.09392	0.69874	-0.479
Mof_O 	O 	0.62255	0.05812	0.71882	-0.487
Mof_O 	O 	0.72666	0.05211	0.63746	-0.487
Mof_O 	O 	0.70561	0.08841	0.63733	-0.458
Mof_O 	O 	0.59164	0.7433	0.54068	-0.507
Mof_O 	O 	0.55664	0.74781	0.56346	-0.496
Mof_O 	O 	0.59218	0.74678	0.45119	-0.493
Mof_O 	O 	0.55622	0.75155	0.42865	-0.485
Mof_O 	O 	0.60757	0.743	0.59821	-0.924
Mof_O 	O 	0.60599	0.89306	0.74912	-0.948
Mof_C 	C 	0.6242	0.83172	0.7617	0.392
Mof_C 	C 	0.6233	0.80378	0.7683	-0.088
Mof_C 	C 	0.6242	0.79671	0.7938	0.03
Mof_H 	H 	0.6258	0.8093	0.8067	0.055
Mof_C 	C 	0.6227	0.77135	0.80026	-0.084
Mof_C 	C 	0.6222	0.7649	0.82818	0.369
Mof_C 	C 	0.6211	0.75301	0.7814	-0.015
Mof_H 	H 	0.6204	0.7356	0.786	0.053
Mof_C 	C 	0.6212	0.78524	0.74958	-0.014
Mof_H 	H 	0.6201	0.7902	0.7323	0.054
Mof_C 	C 	0.6206	0.75966	0.75573	0.006
Mof_C 	C 	0.6195	0.7398	0.73546	-0.005
Mof_C 	C 	0.6181	0.71433	0.74142	-0.002
Mof_H 	H 	0.6179	0.7094	0.7588	0.049
Mof_C 	C 	0.6193	0.7459	0.70955	-0.004
Mof_H 	H 	0.6209	0.7632	0.7045	0.049
Mof_C 	C 	0.617	0.7273	0.69107	-0.098
Mof_C 	C 	0.6166	0.7337	0.6632	0.373
Mof_C 	C 	0.6155	0.7026	0.6978	0.05
Mof_H 	H 	0.6133	0.6899	0.6851	0.042
Mof_C 	C 	0.617	0.69569	0.72295	-0.104
Mof_C 	C 	0.6164	0.66802	0.7299	0.391
Mof_C 	C 	0.57547	0.85589	0.69782	0.388
Mof_C 	C 	0.56134	0.84154	0.67762	-0.095
Mof_C 	C 	0.57452	0.82584	0.66109	0.043
Mof_H 	H 	0.5926	0.8252	0.6614	0.048
Mof_C 	C 	0.56073	0.81099	0.64411	-0.101
Mof_C 	C 	0.57429	0.79229	0.62749	0.401
Mof_C 	C 	0.53454	0.81291	0.64289	-0.006
Mof_H 	H 	0.5254	0.8031	0.6308	0.053
Mof_C 	C 	0.53495	0.84303	0.67666	-0.009
Mof_H 	H 	0.5262	0.8538	0.6882	0.053
Mof_C 	C 	0.5215	0.82904	0.6592	0.002
Mof_C 	C 	0.49269	0.83082	0.65759	-0.003
Mof_C 	C 	0.479	0.81695	0.63979	-0.003
Mof_H 	H 	0.4878	0.8059	0.6285	0.05
Mof_C 	C 	0.45256	0.81887	0.63819	-0.098
Mof_O 	O 	0.41729	0.81034	0.6117	-0.457
Mof_C 	C 	0.43961	0.8347	0.65457	0.05
Mof_H 	H 	0.4217	0.8368	0.653	0.037
Mof_C 	C 	0.45289	0.8474	0.6732	-0.101
Mof_C 	C 	0.4388	0.862	0.6928	0.38
Mof_C 	C 	0.47876	0.8453	0.6747	-0
Mof_H 	H 	0.4875	0.854	0.6879	0.049
Mof_C 	C 	0.6295	0.931	0.7012	0.385
Mof_C 	C 	0.6467	0.9451	0.6831	-0.091
Mof_C 	C 	0.6631	0.93122	0.6678	0.031
Mof_H 	H 	0.6619	0.9132	0.6668	0.047
Mof_C 	C 	0.6815	0.94433	0.654	-0.085
Mof_C 	C 	0.7015	0.93015	0.6395	0.363
Mof_C 	C 	0.6821	0.97095	0.6549	-0.015
Mof_H 	H 	0.6946	0.9797	0.6453	0.053
Mof_C 	C 	0.64782	0.97182	0.6838	-0.015
Mof_H 	H 	0.6365	0.9809	0.6945	0.053
Mof_C 	C 	0.66499	0.98495	0.6692	0.006
Mof_C 	C 	0.66644	0.01376	0.6697	-0.005
Mof_C 	C 	0.64978	0.02835	0.68423	-0.004
Mof_H 	H 	0.6371	0.02	0.6941	0.049
Mof_C 	C 	0.65116	0.05464	0.68472	-0.098
Mof_C 	C 	0.63485	0.06979	0.7022	0.382
Mof_C 	C 	0.6692	0.06715	0.67039	0.042
Mof_H 	H 	0.6698	0.0852	0.67	0.047
Mof_C 	C 	0.68662	0.05246	0.65639	-0.1
Mof_C 	C 	0.70786	0.06586	0.64259	0.406
Mof_C 	C 	0.68532	0.02626	0.6565	-0.003
Mof_H 	H 	0.6976	0.0167	0.6473	0.051
Mof_C 	C 	0.56849	0.7463	0.54304	0.42
Mof_C 	C 	0.55376	0.7472	0.51866	-0.114
Mof_C 	C 	0.56686	0.7475	0.49579	0.053
Mof_H 	H 	0.5849	0.7466	0.4956	0.047
Mof_C 	C 	0.55368	0.749	0.47357	-0.109
Mof_C 	C 	0.56838	0.7492	0.44931	0.387
Mof_C 	C 	0.5275	0.75	0.47338	-0.002
Mof_H 	H 	0.5187	0.7514	0.4577	0.049
Mof_C 	C 	0.51402	0.749	0.49617	-0.005
Mof_C 	C 	0.5276	0.7484	0.51882	0.001
Mof_H 	H 	0.5188	0.7489	0.5346	0.049
Mof_O 	O 	0.63293	0.84533	0.77918	-0.486
Mof_C 	C 	0.43824	0.8022	0.61995	0.387
Mof_Zn	Zn	0.8789	0.87599	0.28024	1.221
Mof_Zn	Zn	0.87437	0.88053	0.2228	1.216
Mof_Zn	Zn	0.9279	0.87944	0.25101	1.219
Mof_Zn	Zn	0.89437	0.92958	0.2502	1.22
Mof_Zn	Zn	0.87313	0.76855	0.38138	1.218
Mof_Zn	Zn	0.88376	0.70935	0.38776	1.22
Mof_Zn	Zn	0.92855	0.74644	0.40219	1.22
Mof_Zn	Zn	0.87974	0.74368	0.43576	1.22
Mof_O 	O 	0.88302	0.83831	0.25911	-0.462
Mof_O 	O 	0.87023	0.78185	0.1571	-0.47
Mof_O 	O 	0.88467	0.74299	0.16534	-0.412
Mof_O 	O 	0.87604	0.75524	0.34427	-0.444
Mof_O 	O 	0.8931	0.7167	0.35089	-0.459
Mof_O 	O 	0.88646	0.66219	0.24729	-0.478
Mof_O 	O 	0.8796	0.65316	0.2882	-0.478
Mof_O 	O 	0.90102	0.85969	0.3056	-0.46
Mof_O 	O 	0.9371	0.86345	0.28346	-0.487
Mof_O 	O 	0.90207	0.79365	0.37308	-0.463
Mof_O 	O 	0.93939	0.7768	0.38442	-0.487
Mof_O 	O 	0.05246	0.78107	0.38525	-0.472
Mof_O 	O 	0.08122	0.87288	0.313	-0.455
Mof_O 	O 	0.0517	0.8607	0.28477	-0.477
Mof_O 	O 	0.87479	0.90851	0.30306	-0.459
Mof_O 	O 	0.87793	0.94362	0.27931	-0.489
Mof_O 	O 	0.77657	0.94078	0.361	-0.485
Mof_O 	O 	0.80355	0.90919	0.36974	-0.41
Mof_O 	O 	0.86438	0.09392	0.30126	-0.479
Mof_O 	O 	0.87745	0.05812	0.28118	-0.487
Mof_O 	O 	0.77334	0.05211	0.36254	-0.487
Mof_O 	O 	0.79439	0.08841	0.36267	-0.458
Mof_O 	O 	0.90836	0.7433	0.45932	-0.507
Mof_O 	O 	0.94336	0.74781	0.43654	-0.496
Mof_O 	O 	0.90782	0.74678	0.54881	-0.493
Mof_O 	O 	0.94378	0.75155	0.57135	-0.485
Mof_O 	O 	0.89243	0.743	0.40179	-0.924
Mof_O 	O 	0.89401	0.89306	0.25088	-0.948
Mof_C 	C 	0.8758	0.83172	0.2383	0.392
Mof_C 	C 	0.8767	0.80378	0.2317	-0.088
Mof_C 	C 	0.8758	0.79671	0.2062	0.03
Mof_H 	H 	0.8742	0.8093	0.1933	0.055
Mof_C 	C 	0.8773	0.77135	0.19974	-0.084
Mof_C 	C 	0.8778	0.7649	0.17182	0.369
Mof_C 	C 	0.8789	0.75301	0.2186	-0.015
Mof_H 	H 	0.8796	0.7356	0.214	0.053
Mof_C 	C 	0.8788	0.78524	0.25042	-0.014
Mof_H 	H 	0.8799	0.7902	0.2677	0.054
Mof_C 	C 	0.8794	0.75966	0.24427	0.006
Mof_C 	C 	0.8805	0.7398	0.26454	-0.005
Mof_C 	C 	0.8819	0.71433	0.25858	-0.002
Mof_H 	H 	0.8821	0.7094	0.2412	0.049
Mof_C 	C 	0.8807	0.7459	0.29045	-0.004
Mof_H 	H 	0.8791	0.7632	0.2955	0.049
Mof_C 	C 	0.883	0.7273	0.30893	-0.098
Mof_C 	C 	0.8834	0.7337	0.3368	0.373
Mof_C 	C 	0.8845	0.7026	0.3022	0.05
Mof_H 	H 	0.8867	0.6899	0.3149	0.042
Mof_C 	C 	0.883	0.69569	0.27705	-0.104
Mof_C 	C 	0.8836	0.66802	0.2701	0.391
Mof_C 	C 	0.92453	0.85589	0.30218	0.388
Mof_C 	C 	0.93866	0.84154	0.32238	-0.095
Mof_C 	C 	0.92548	0.82584	0.33891	0.043
Mof_H 	H 	0.9074	0.8252	0.3386	0.048
Mof_C 	C 	0.93927	0.81099	0.35589	-0.101
Mof_C 	C 	0.92571	0.79229	0.37251	0.401
Mof_C 	C 	0.96546	0.81291	0.35711	-0.006
Mof_H 	H 	0.9746	0.8031	0.3692	0.053
Mof_C 	C 	0.96505	0.84303	0.32334	-0.009
Mof_H 	H 	0.9738	0.8538	0.3118	0.053
Mof_C 	C 	0.9785	0.82904	0.3408	0.002
Mof_C 	C 	0.00731	0.83082	0.34241	-0.003
Mof_C 	C 	0.021	0.81695	0.36021	-0.003
Mof_H 	H 	0.0122	0.8059	0.3715	0.05
Mof_C 	C 	0.04744	0.81887	0.36181	-0.098
Mof_O 	O 	0.08271	0.81034	0.3883	-0.457
Mof_C 	C 	0.06039	0.8347	0.34543	0.05
Mof_H 	H 	0.0783	0.8368	0.347	0.037
Mof_C 	C 	0.04711	0.8474	0.3268	-0.101
Mof_C 	C 	0.0612	0.862	0.3072	0.38
Mof_C 	C 	0.02124	0.8453	0.3253	-0
Mof_H 	H 	0.0125	0.854	0.3121	0.049
Mof_C 	C 	0.8705	0.931	0.2988	0.385
Mof_C 	C 	0.8533	0.9451	0.3169	-0.091
Mof_C 	C 	0.8369	0.93122	0.3322	0.031
Mof_H 	H 	0.8381	0.9132	0.3332	0.047
Mof_C 	C 	0.8185	0.94433	0.346	-0.085
Mof_C 	C 	0.7985	0.93015	0.3605	0.363
Mof_C 	C 	0.8179	0.97095	0.3451	-0.015
Mof_H 	H 	0.8054	0.9797	0.3547	0.053
Mof_C 	C 	0.85218	0.97182	0.3162	-0.015
Mof_H 	H 	0.8635	0.9809	0.3055	0.053
Mof_C 	C 	0.83501	0.98495	0.3308	0.006
Mof_C 	C 	0.83356	0.01376	0.3303	-0.005
Mof_C 	C 	0.85022	0.02835	0.31577	-0.004
Mof_H 	H 	0.8629	0.02	0.3059	0.049
Mof_C 	C 	0.84884	0.05464	0.31528	-0.098
Mof_C 	C 	0.86515	0.06979	0.2978	0.382
Mof_C 	C 	0.8308	0.06715	0.32961	0.042
Mof_H 	H 	0.8302	0.0852	0.33	0.047
Mof_C 	C 	0.81338	0.05246	0.34361	-0.1
Mof_C 	C 	0.79214	0.06586	0.35741	0.406
Mof_C 	C 	0.81468	0.02626	0.3435	-0.003
Mof_H 	H 	0.8024	0.0167	0.3527	0.051
Mof_C 	C 	0.93151	0.7463	0.45696	0.42
Mof_C 	C 	0.94624	0.7472	0.48134	-0.114
Mof_C 	C 	0.93314	0.7475	0.50421	0.053
Mof_H 	H 	0.9151	0.7466	0.5044	0.047
Mof_C 	C 	0.94632	0.749	0.52643	-0.109
Mof_C 	C 	0.93162	0.7492	0.55069	0.387
Mof_C 	C 	0.9725	0.75	0.52662	-0.002
Mof_H 	H 	0.9813	0.7514	0.5423	0.049
Mof_C 	C 	0.98598	0.749	0.50383	-0.005
Mof_C 	C 	0.9724	0.7484	0.48118	0.001
Mof_H 	H 	0.9812	0.7489	0.4654	0.049
Mof_O 	O 	0.86707	0.84533	0.22082	-0.486
Mof_C 	C 	0.06176	0.8022	0.38005	0.387
Mof_Zn	Zn	0.3789	0.37599	0.78024	1.221
Mof_Zn	Zn	0.37437	0.38053	0.7228	1.216
Mof_Zn	Zn	0.4279	0.37944	0.75101	1.219
Mof_Zn	Zn	0.39437	0.42958	0.7502	1.22
Mof_Zn	Zn	0.37313	0.26855	0.88138	1.218
Mof_Zn	Zn	0.38376	0.20935	0.88776	1.22
Mof_Zn	Zn	0.42855	0.24644	0.90219	1.22
Mof_Zn	Zn	0.37974	0.24368	0.93576	1.22
Mof_O 	O 	0.38302	0.33831	0.75911	-0.462
Mof_O 	O 	0.37023	0.28185	0.6571	-0.47
Mof_O 	O 	0.38467	0.24299	0.66534	-0.412
Mof_O 	O 	0.37604	0.25524	0.84427	-0.444
Mof_O 	O 	0.3931	0.2167	0.85089	-0.459
Mof_O 	O 	0.38646	0.16219	0.74729	-0.478
Mof_O 	O 	0.3796	0.15316	0.7882	-0.478
Mof_O 	O 	0.40102	0.35969	0.8056	-0.46
Mof_O 	O 	0.4371	0.36345	0.78346	-0.487
Mof_O 	O 	0.40207	0.29365	0.87308	-0.463
Mof_O 	O 	0.43939	0.2768	0.88442	-0.487
Mof_O 	O 	0.55246	0.28107	0.88525	-0.472
Mof_O 	O 	0.58122	0.37288	0.813	-0.455
Mof_O 	O 	0.5517	0.3607	0.78477	-0.477
Mof_O 	O 	0.37479	0.40851	0.80306	-0.459
Mof_O 	O 	0.37793	0.44362	0.77931	-0.489
Mof_O 	O 	0.27657	0.44078	0.861	-0.485
Mof_O 	O 	0.30355	0.40919	0.86974	-0.41
Mof_O 	O 	0.36438	0.59392	0.80126	-0.479
Mof_O 	O 	0.37745	0.55812	0.78118	-0.487
Mof_O 	O 	0.27334	0.55211	0.86254	-0.487
Mof_O 	O 	0.29439	0.58841	0.86267	-0.458
Mof_O 	O 	0.40836	0.2433	0.95932	-0.507
Mof_O 	O 	0.44336	0.24781	0.93654	-0.496
Mof_O 	O 	0.40782	0.24678	0.04881	-0.493
Mof_O 	O 	0.44378	0.25155	0.07135	-0.485
Mof_O 	O 	0.39243	0.243	0.90179	-0.924
Mof_O 	O 	0.39401	0.39306	0.75088	-0.948
Mof_C 	C 	0.3758	0.33172	0.7383	0.392
Mof_C 	C 	0.3767	0.30378	0.7317	-0.088
Mof_C 	C 	0.3758	0.29671	0.7062	0.03
Mof_H 	H 	0.3742	0.3093	0.6933	0.055
Mof_C 	C 	0.3773	0.27135	0.69974	-0.084
Mof_C 	C 	0.3778	0.2649	0.67182	0.369
Mof_C 	C 	0.3789	0.25301	0.7186	-0.015
Mof_H 	H 	0.3796	0.2356	0.714	0.053
Mof_C 	C 	0.3788	0.28524	0.75042	-0.014
Mof_H 	H 	0.3799	0.2902	0.7677	0.054
Mof_C 	C 	0.3794	0.25966	0.74427	0.006
Mof_C 	C 	0.3805	0.2398	0.76454	-0.005
Mof_C 	C 	0.3819	0.21433	0.75858	-0.002
Mof_H 	H 	0.3821	0.2094	0.7412	0.049
Mof_C 	C 	0.3807	0.2459	0.79045	-0.004
Mof_H 	H 	0.3791	0.2632	0.7955	0.049
Mof_C 	C 	0.383	0.2273	0.80893	-0.098
Mof_C 	C 	0.3834	0.2337	0.8368	0.373
Mof_C 	C 	0.3845	0.2026	0.8022	0.05
Mof_H 	H 	0.3867	0.1899	0.8149	0.042
Mof_C 	C 	0.383	0.19569	0.77705	-0.104
Mof_C 	C 	0.3836	0.16802	0.7701	0.391
Mof_C 	C 	0.42453	0.35589	0.80218	0.388
Mof_C 	C 	0.43866	0.34154	0.82238	-0.095
Mof_C 	C 	0.42548	0.32584	0.83891	0.043
Mof_H 	H 	0.4074	0.3252	0.8386	0.048
Mof_C 	C 	0.43927	0.31099	0.85589	-0.101
Mof_C 	C 	0.42571	0.29229	0.87251	0.401
Mof_C 	C 	0.46546	0.31291	0.85711	-0.006
Mof_H 	H 	0.4746	0.3031	0.8692	0.053
Mof_C 	C 	0.46505	0.34303	0.82334	-0.009
Mof_H 	H 	0.4738	0.3538	0.8118	0.053
Mof_C 	C 	0.4785	0.32904	0.8408	0.002
Mof_C 	C 	0.50731	0.33082	0.84241	-0.003
Mof_C 	C 	0.521	0.31695	0.86021	-0.003
Mof_H 	H 	0.5122	0.3059	0.8715	0.05
Mof_C 	C 	0.54744	0.31887	0.86181	-0.098
Mof_O 	O 	0.58271	0.31034	0.8883	-0.457
Mof_C 	C 	0.56039	0.3347	0.84543	0.05
Mof_H 	H 	0.5783	0.3368	0.847	0.037
Mof_C 	C 	0.54711	0.3474	0.8268	-0.101
Mof_C 	C 	0.5612	0.362	0.8072	0.38
Mof_C 	C 	0.52124	0.3453	0.8253	-0
Mof_H 	H 	0.5125	0.354	0.8121	0.049
Mof_C 	C 	0.3705	0.431	0.7988	0.385
Mof_C 	C 	0.3533	0.4451	0.8169	-0.091
Mof_C 	C 	0.3369	0.43122	0.8322	0.031
Mof_H 	H 	0.3381	0.4132	0.8332	0.047
Mof_C 	C 	0.3185	0.44433	0.846	-0.085
Mof_C 	C 	0.2985	0.43015	0.8605	0.363
Mof_C 	C 	0.3179	0.47095	0.8451	-0.015
Mof_H 	H 	0.3054	0.4797	0.8547	0.053
Mof_C 	C 	0.35218	0.47182	0.8162	-0.015
Mof_H 	H 	0.3635	0.4809	0.8055	0.053
Mof_C 	C 	0.33501	0.48495	0.8308	0.006
Mof_C 	C 	0.33356	0.51376	0.8303	-0.005
Mof_C 	C 	0.35022	0.52835	0.81577	-0.004
Mof_H 	H 	0.3629	0.52	0.8059	0.049
Mof_C 	C 	0.34884	0.55464	0.81528	-0.098
Mof_C 	C 	0.36515	0.56979	0.7978	0.382
Mof_C 	C 	0.3308	0.56715	0.82961	0.042
Mof_H 	H 	0.3302	0.5852	0.83	0.047
Mof_C 	C 	0.31338	0.55246	0.84361	-0.1
Mof_C 	C 	0.29214	0.56586	0.85741	0.406
Mof_C 	C 	0.31468	0.52626	0.8435	-0.003
Mof_H 	H 	0.3024	0.5167	0.8527	0.051
Mof_C 	C 	0.43151	0.2463	0.95696	0.42
Mof_C 	C 	0.44624	0.2472	0.98134	-0.114
Mof_C 	C 	0.43314	0.2475	0.00421	0.053
Mof_H 	H 	0.4151	0.2466	0.0044	0.047
Mof_C 	C 	0.44632	0.249	0.02643	-0.109
Mof_C 	C 	0.43162	0.2492	0.05069	0.387
Mof_C 	C 	0.4725	0.25	0.02662	-0.002
Mof_H 	H 	0.4813	0.2514	0.0423	0.049
Mof_C 	C 	0.48598	0.249	0.00383	-0.005
Mof_C 	C 	0.4724	0.2484	0.98118	0.001
Mof_H 	H 	0.4812	0.2489	0.9654	0.049
Mof_O 	O 	0.36707	0.34533	0.72082	-0.486
Mof_C 	C 	0.56176	0.3022	0.88005	0.387
_end
