data_functionalizedCrystal
_audit_creation_method	'EQeq! by Chris Wilmer'
_symmetry_space_group_name_H-M	'P1'
_symmetry_Int_Tables_number	1
_symmetry_cell_setting	triclinic
loop_
_symmetry_equiv_pos_as_xyz
  x,y,z
_cell_length_a	17.7835
_cell_length_b	12.7818
_cell_length_c	11.2254
_cell_angle_alpha	90
_cell_angle_beta	95.18
_cell_angle_gamma	90
loop_
_atom_site_label
_atom_site_type_symbol
_atom_site_fract_x
_atom_site_fract_y
_atom_site_fract_z
_atom_site_charge
Mof_Co	Co	0.42086	0.55816	0.49986	1.128
Mof_N 	N 	0.8732	0.935	0.1617	-0.205
Mof_N 	N 	0.9105	0.9831	0.2556	-0.163
Mof_N 	N 	0.8768	0.9701	0.3548	-0.215
Mof_C 	C 	0.812	0.887	0.2046	0.047
Mof_C 	C 	0.8147	0.9099	0.3274	0.078
Mof_C 	C 	0.7603	0.8726	0.3984	-0.143
Mof_H 	H 	0.7628	0.8873	0.4798	0.064
Mof_C 	C 	0.7035	0.8138	0.3439	0.037
Mof_H 	H 	0.6663	0.7883	0.3893	0.019
Mof_C 	C 	0.6991	0.7902	0.2195	-0.088
Mof_C 	C 	0.7531	0.8268	0.1483	-0.056
Mof_H 	H 	0.7504	0.8122	0.0669	0.065
Mof_C 	C 	0.6339	0.7237	0.1687	0.363
Mof_O 	O 	0.52011	0.5799	0.4322	-0.738
Mof_H 	H 	0.546	0.639	0.465	0.185
Mof_O 	O 	0.63691	0.6876	0.0639	-0.448
Mof_O 	O 	0.58158	0.7097	0.2346	-0.439
Mof_Co	Co	0.92086	0.05816	0.49986	1.151
Mof_N 	N 	0.3732	0.435	0.1617	-0.215
Mof_N 	N 	0.4105	0.4831	0.2556	-0.189
Mof_N 	N 	0.3768	0.4701	0.3548	-0.225
Mof_C 	C 	0.312	0.387	0.2046	0.036
Mof_C 	C 	0.3147	0.4099	0.3274	0.076
Mof_C 	C 	0.2603	0.3726	0.3984	-0.152
Mof_H 	H 	0.2628	0.3873	0.4798	0.063
Mof_C 	C 	0.2035	0.3138	0.3439	0.039
Mof_H 	H 	0.1663	0.2883	0.3893	0.01
Mof_C 	C 	0.1991	0.2902	0.2195	-0.101
Mof_C 	C 	0.2531	0.3268	0.1483	-0.055
Mof_H 	H 	0.2504	0.3122	0.0669	0.057
Mof_C 	C 	0.1339	0.2237	0.1687	0.364
Mof_O 	O 	0.02011	0.0799	0.4322	-0.791
Mof_H 	H 	0.046	0.139	0.465	0.178
Mof_O 	O 	0.13691	0.1876	0.0639	-0.469
Mof_O 	O 	0.08158	0.2097	0.2346	-0.469
Mof_Co	Co	0.57914	0.55816	0.00014	1.129
Mof_N 	N 	0.1268	0.935	0.3383	-0.22
Mof_N 	N 	0.0895	0.9831	0.2444	-0.202
Mof_N 	N 	0.1232	0.9701	0.1452	-0.229
Mof_C 	C 	0.188	0.887	0.2954	0.035
Mof_C 	C 	0.1853	0.9099	0.1726	0.074
Mof_C 	C 	0.2397	0.8726	0.1016	-0.148
Mof_H 	H 	0.2372	0.8873	0.0202	0.066
Mof_C 	C 	0.2965	0.8138	0.1561	0.036
Mof_H 	H 	0.3337	0.7883	0.1107	0.019
Mof_C 	C 	0.3009	0.7902	0.2805	-0.092
Mof_C 	C 	0.2469	0.8268	0.3517	-0.059
Mof_H 	H 	0.2496	0.8122	0.4331	0.061
Mof_C 	C 	0.3661	0.7237	0.3313	0.362
Mof_O 	O 	0.47989	0.5799	0.0678	-0.739
Mof_H 	H 	0.454	0.639	0.035	0.186
Mof_O 	O 	0.36309	0.6876	0.4361	-0.452
Mof_O 	O 	0.41842	0.7097	0.2654	-0.44
Mof_Co	Co	0.07914	0.05816	0.00014	1.103
Mof_N 	N 	0.6268	0.435	0.3383	-0.214
Mof_N 	N 	0.5895	0.4831	0.2444	-0.189
Mof_N 	N 	0.6232	0.4701	0.1452	-0.223
Mof_C 	C 	0.688	0.387	0.2954	0.043
Mof_C 	C 	0.6853	0.4099	0.1726	0.074
Mof_C 	C 	0.7397	0.3726	0.1016	-0.139
Mof_H 	H 	0.7372	0.3873	0.0202	0.067
Mof_C 	C 	0.7965	0.3138	0.1561	0.033
Mof_H 	H 	0.8337	0.2883	0.1107	0.03
Mof_C 	C 	0.8009	0.2902	0.2805	-0.079
Mof_C 	C 	0.7469	0.3268	0.3517	-0.061
Mof_H 	H 	0.7496	0.3122	0.4331	0.067
Mof_C 	C 	0.8661	0.2237	0.3313	0.357
Mof_O 	O 	0.97989	0.0799	0.0678	-0.671
Mof_H 	H 	0.954	0.139	0.035	0.193
Mof_O 	O 	0.86309	0.1876	0.4361	-0.432
Mof_O 	O 	0.91842	0.2097	0.2654	-0.394
Mof_Co	Co	0.57914	0.44184	0.50014	1.128
Mof_N 	N 	0.1268	0.065	0.8383	-0.218
Mof_N 	N 	0.0895	0.0169	0.7444	-0.201
Mof_N 	N 	0.1232	0.0299	0.6452	-0.23
Mof_C 	C 	0.188	0.113	0.7954	0.037
Mof_C 	C 	0.1853	0.0901	0.6726	0.073
Mof_C 	C 	0.2397	0.1274	0.6016	-0.147
Mof_H 	H 	0.2372	0.1127	0.5202	0.065
Mof_C 	C 	0.2965	0.1862	0.6561	0.035
Mof_H 	H 	0.3337	0.2117	0.6107	0.019
Mof_C 	C 	0.3009	0.2098	0.7805	-0.091
Mof_C 	C 	0.2469	0.1732	0.8517	-0.06
Mof_H 	H 	0.2496	0.1878	0.9331	0.064
Mof_C 	C 	0.3661	0.2763	0.8313	0.362
Mof_O 	O 	0.47989	0.4201	0.5678	-0.739
Mof_H 	H 	0.454	0.361	0.535	0.185
Mof_O 	O 	0.36309	0.3124	0.9361	-0.45
Mof_O 	O 	0.41842	0.2903	0.7654	-0.44
Mof_Co	Co	0.07914	0.94184	0.50014	1.106
Mof_N 	N 	0.6268	0.565	0.8383	-0.215
Mof_N 	N 	0.5895	0.5169	0.7444	-0.189
Mof_N 	N 	0.6232	0.5299	0.6452	-0.223
Mof_C 	C 	0.688	0.613	0.7954	0.043
Mof_C 	C 	0.6853	0.5901	0.6726	0.074
Mof_C 	C 	0.7397	0.6274	0.6016	-0.139
Mof_H 	H 	0.7372	0.6127	0.5202	0.067
Mof_C 	C 	0.7965	0.6862	0.6561	0.034
Mof_H 	H 	0.8337	0.7117	0.6107	0.029
Mof_C 	C 	0.8009	0.7098	0.7805	-0.08
Mof_C 	C 	0.7469	0.6732	0.8517	-0.06
Mof_H 	H 	0.7496	0.6878	0.9331	0.065
Mof_C 	C 	0.8661	0.7763	0.8313	0.358
Mof_O 	O 	0.97989	0.9201	0.5678	-0.672
Mof_H 	H 	0.954	0.861	0.535	0.193
Mof_O 	O 	0.86309	0.8124	0.9361	-0.435
Mof_O 	O 	0.91842	0.7903	0.7654	-0.396
Mof_Co	Co	0.42086	0.44184	0.99986	1.128
Mof_N 	N 	0.8732	0.065	0.6617	-0.208
Mof_N 	N 	0.9105	0.0169	0.7556	-0.165
Mof_N 	N 	0.8768	0.0299	0.8548	-0.215
Mof_C 	C 	0.812	0.113	0.7046	0.044
Mof_C 	C 	0.8147	0.0901	0.8274	0.077
Mof_C 	C 	0.7603	0.1274	0.8984	-0.143
Mof_H 	H 	0.7628	0.1127	0.9798	0.065
Mof_C 	C 	0.7035	0.1862	0.8439	0.037
Mof_H 	H 	0.6663	0.2117	0.8893	0.02
Mof_C 	C 	0.6991	0.2098	0.7195	-0.089
Mof_C 	C 	0.7531	0.1732	0.6483	-0.055
Mof_H 	H 	0.7504	0.1878	0.5669	0.063
Mof_C 	C 	0.6339	0.2763	0.6687	0.363
Mof_O 	O 	0.52011	0.4201	0.9322	-0.739
Mof_H 	H 	0.546	0.361	0.965	0.186
Mof_O 	O 	0.63691	0.3124	0.5639	-0.45
Mof_O 	O 	0.58158	0.2903	0.7346	-0.44
Mof_Co	Co	0.92086	0.94184	0.99986	1.147
Mof_N 	N 	0.3732	0.565	0.6617	-0.215
Mof_N 	N 	0.4105	0.5169	0.7556	-0.19
Mof_N 	N 	0.3768	0.5299	0.8548	-0.225
Mof_C 	C 	0.312	0.613	0.7046	0.036
Mof_C 	C 	0.3147	0.5901	0.8274	0.075
Mof_C 	C 	0.2603	0.6274	0.8984	-0.152
Mof_H 	H 	0.2628	0.6127	0.9798	0.063
Mof_C 	C 	0.2035	0.6862	0.8439	0.039
Mof_H 	H 	0.1663	0.7117	0.8893	0.01
Mof_C 	C 	0.1991	0.7098	0.7195	-0.1
Mof_C 	C 	0.2531	0.6732	0.6483	-0.056
Mof_H 	H 	0.2504	0.6878	0.5669	0.058
Mof_C 	C 	0.1339	0.7763	0.6687	0.364
Mof_O 	O 	0.02011	0.9201	0.9322	-0.789
Mof_H 	H 	0.046	0.861	0.965	0.178
Mof_O 	O 	0.13691	0.8124	0.5639	-0.467
Mof_O 	O 	0.08158	0.7903	0.7346	-0.468
Mof_Co	Co	0.5	0.59464	0.25	1.152
Mof_Co	Co	6.45099e-34	0.09464	0.25	1.102
Mof_Co	Co	0.5	0.40536	0.75	1.152
Mof_Co	Co	5.59225e-18	0.90536	0.75	1.104
_end
