data_functionalizedCrystal
_audit_creation_method	'EQeq! by Chris Wilmer'
_symmetry_space_group_name_H-M	'P1'
_symmetry_Int_Tables_number	1
_symmetry_cell_setting	triclinic
loop_
_symmetry_equiv_pos_as_xyz
  x,y,z
_cell_length_a	15.903
_cell_length_b	15.903
_cell_length_c	21.396
_cell_angle_alpha	90
_cell_angle_beta	90
_cell_angle_gamma	90
loop_
_atom_site_label
_atom_site_type_symbol
_atom_site_fract_x
_atom_site_fract_y
_atom_site_fract_z
_atom_site_charge
Mof_C 	C 	0.1553	0.7994	0.8276	0.074
Mof_H 	H 	0.1371	0.7686	0.7932	0.007
Mof_C 	C 	0.2158	0.7655	0.8652	-0.135
Mof_H 	H 	0.237	0.7125	0.856	0.074
Mof_C 	C 	0.2463	0.8089	0.9171	0.059
Mof_C 	C 	0.2025	0.8846	0.9307	-0.136
Mof_H 	H 	0.2149	0.9145	0.9669	0.081
Mof_C 	C 	0.1422	0.9135	0.8905	0.083
Mof_H 	H 	0.1146	0.9632	0.9009	0.01
Mof_C 	C 	0.3175	0.7792	0.9542	0.043
Mof_C 	C 	0.3356	0.8094	0.0143	-0.115
Mof_H 	H 	0.3011	0.8502	0.0321	0.07
Mof_C 	C 	0.4035	0.7797	0.0471	0.031
Mof_H 	H 	0.4135	0.7994	0.0873	0.017
Mof_C 	C 	0.4577	0.7205	0.0209	-0.114
Mof_H 	H 	0.5051	0.7026	0.0426	0.076
Mof_C 	C 	0.4398	0.6887	0.962	0.045
Mof_C 	C 	0.3704	0.7179	0.9297	-0.105
Mof_H 	H 	0.3589	0.6959	0.8903	0.067
Mof_C 	C 	0.4947	0.6262	0.9316	0.085
Mof_C 	C 	0.5918	0.5763	0.868	0.087
Mof_C 	C 	0.6608	0.5683	0.8239	0.031
Mof_C 	C 	0.6633	0.4967	0.7874	-0.092
Mof_H 	H 	0.6206	0.4569	0.79	0.066
Mof_C 	C 	0.7305	0.4847	0.7468	0.011
Mof_H 	H 	0.7332	0.4359	0.7229	0.022
Mof_C 	C 	0.7927	0.544	0.7416	-0.088
Mof_H 	H 	0.836	0.5362	0.7129	0.058
Mof_C 	C 	0.7915	0.6156	0.7789	0.023
Mof_C 	C 	0.7252	0.6272	0.8196	-0.092
Mof_H 	H 	0.7235	0.6751	0.8446	0.067
Mof_C 	C 	0.8586	0.6816	0.773	0.071
Mof_C 	C 	0.8729	0.7408	0.8194	-0.14
Mof_H 	H 	0.8436	0.7376	0.8569	0.076
Mof_C 	C 	0.9307	0.8045	0.8101	0.081
Mof_H 	H 	0.9381	0.8439	0.8417	0.011
Mof_C 	C 	0.9643	0.7552	0.7144	0.082
Mof_H 	H 	0.9954	0.7595	0.6777	0.005
Mof_C 	C 	0.9078	0.6887	0.7199	-0.143
Mof_H 	H 	0.9031	0.6492	0.6881	0.078
Mof_N 	N 	0.1206	0.8757	0.8382	-0.155
Mof_N 	N 	0.4926	0.5444	0.934	-0.113
Mof_N 	N 	0.5533	0.5124	0.8949	-0.099
Mof_N 	N 	0.5559	0.6492	0.8904	-0.103
Mof_N 	N 	0.5757	0.7313	0.8699	-0.224
Mof_H 	H 	0.5283	0.7588	0.8615	0.119
Mof_H 	H 	0.6036	0.758	0.9	0.118
Mof_N 	N 	0.9763	0.8124	0.7581	-0.153
Mof_C 	C 	0.8447	0.2006	0.3276	0.076
Mof_H 	H 	0.8629	0.2314	0.2932	0.005
Mof_C 	C 	0.7842	0.2345	0.3652	-0.141
Mof_H 	H 	0.763	0.2875	0.356	0.076
Mof_C 	C 	0.7537	0.1911	0.4171	0.068
Mof_C 	C 	0.7975	0.1154	0.4307	-0.142
Mof_H 	H 	0.7851	0.0855	0.4669	0.081
Mof_C 	C 	0.8578	0.0865	0.3905	0.086
Mof_H 	H 	0.8854	0.0368	0.4009	0.009
Mof_C 	C 	0.6825	0.2208	0.4542	0.022
Mof_C 	C 	0.6644	0.1906	0.5143	-0.09
Mof_H 	H 	0.6989	0.1498	0.5321	0.063
Mof_C 	C 	0.5965	0.2203	0.5471	0.009
Mof_H 	H 	0.5865	0.2006	0.5873	0.025
Mof_C 	C 	0.5423	0.2795	0.5209	-0.088
Mof_H 	H 	0.4949	0.2974	0.5426	0.068
Mof_C 	C 	0.5602	0.3113	0.462	0.024
Mof_C 	C 	0.6296	0.2821	0.4297	-0.089
Mof_H 	H 	0.6411	0.3041	0.3903	0.061
Mof_C 	C 	0.5053	0.3738	0.4316	0.09
Mof_C 	C 	0.4082	0.4237	0.368	0.087
Mof_C 	C 	0.3392	0.4317	0.3239	0.03
Mof_C 	C 	0.3367	0.5033	0.2874	-0.092
Mof_H 	H 	0.3794	0.5431	0.29	0.065
Mof_C 	C 	0.2695	0.5153	0.2468	0.011
Mof_H 	H 	0.2668	0.5641	0.2229	0.022
Mof_C 	C 	0.2073	0.456	0.2416	-0.088
Mof_H 	H 	0.164	0.4638	0.2129	0.058
Mof_C 	C 	0.2085	0.3844	0.2789	0.023
Mof_C 	C 	0.2748	0.3728	0.3196	-0.092
Mof_H 	H 	0.2765	0.3249	0.3446	0.066
Mof_C 	C 	0.1414	0.3184	0.273	0.071
Mof_C 	C 	0.1271	0.2592	0.3194	-0.14
Mof_H 	H 	0.1564	0.2624	0.3569	0.076
Mof_C 	C 	0.0693	0.1955	0.3101	0.081
Mof_H 	H 	0.0619	0.1561	0.3417	0.011
Mof_C 	C 	0.0357	0.2448	0.2144	0.082
Mof_H 	H 	0.0046	0.2405	0.1777	0.005
Mof_C 	C 	0.0922	0.3113	0.2199	-0.143
Mof_H 	H 	0.0969	0.3508	0.1881	0.077
Mof_N 	N 	0.8794	0.1243	0.3382	-0.156
Mof_N 	N 	0.5074	0.4556	0.434	-0.116
Mof_N 	N 	0.4467	0.4876	0.3949	-0.1
Mof_N 	N 	0.4441	0.3508	0.3904	-0.105
Mof_N 	N 	0.4243	0.2687	0.3699	-0.223
Mof_H 	H 	0.4717	0.2412	0.3615	0.119
Mof_H 	H 	0.3964	0.242	0.4	0.117
Mof_N 	N 	0.0237	0.1876	0.2581	-0.153
Mof_C 	C 	0.7006	0.6553	0.5776	0.076
Mof_H 	H 	0.7314	0.6371	0.5432	0.005
Mof_C 	C 	0.7345	0.7158	0.6152	-0.141
Mof_H 	H 	0.7875	0.737	0.606	0.076
Mof_C 	C 	0.6911	0.7463	0.6671	0.068
Mof_C 	C 	0.6154	0.7025	0.6807	-0.142
Mof_H 	H 	0.5855	0.7149	0.7169	0.082
Mof_C 	C 	0.5865	0.6422	0.6405	0.086
Mof_H 	H 	0.5368	0.6146	0.6509	0.009
Mof_C 	C 	0.7208	0.8175	0.7042	0.021
Mof_C 	C 	0.6906	0.8356	0.7643	-0.089
Mof_H 	H 	0.6498	0.8011	0.7821	0.063
Mof_C 	C 	0.7203	0.9035	0.7971	0.008
Mof_H 	H 	0.7006	0.9135	0.8373	0.026
Mof_C 	C 	0.7795	0.9577	0.7709	-0.087
Mof_H 	H 	0.7974	0.0051	0.7926	0.068
Mof_C 	C 	0.8113	0.9398	0.712	0.023
Mof_C 	C 	0.7821	0.8704	0.6797	-0.088
Mof_H 	H 	0.8041	0.8589	0.6403	0.061
Mof_C 	C 	0.8738	0.9947	0.6816	0.09
Mof_C 	C 	0.9237	0.0918	0.618	0.087
Mof_C 	C 	0.9317	0.1608	0.5739	0.029
Mof_C 	C 	0.0033	0.1633	0.5374	-0.091
Mof_H 	H 	0.0431	0.1206	0.54	0.065
Mof_C 	C 	0.0153	0.2305	0.4968	0.012
Mof_H 	H 	0.0641	0.2332	0.4729	0.022
Mof_C 	C 	0.956	0.2927	0.4916	-0.089
Mof_H 	H 	0.9638	0.336	0.4629	0.059
Mof_C 	C 	0.8844	0.2915	0.5289	0.023
Mof_C 	C 	0.8728	0.2252	0.5696	-0.092
Mof_H 	H 	0.8249	0.2235	0.5946	0.066
Mof_C 	C 	0.8184	0.3586	0.523	0.071
Mof_C 	C 	0.7592	0.3729	0.5694	-0.14
Mof_H 	H 	0.7624	0.3436	0.6069	0.076
Mof_C 	C 	0.6955	0.4307	0.5601	0.081
Mof_H 	H 	0.6561	0.4381	0.5917	0.01
Mof_C 	C 	0.7448	0.4643	0.4644	0.082
Mof_H 	H 	0.7405	0.4954	0.4277	0.005
Mof_C 	C 	0.8113	0.4078	0.4699	-0.143
Mof_H 	H 	0.8508	0.4031	0.4381	0.078
Mof_N 	N 	0.6243	0.6206	0.5882	-0.156
Mof_N 	N 	0.9556	0.9926	0.684	-0.115
Mof_N 	N 	0.9876	0.0533	0.6449	-0.1
Mof_N 	N 	0.8508	0.0559	0.6404	-0.105
Mof_N 	N 	0.7687	0.0757	0.6199	-0.223
Mof_H 	H 	0.7412	0.0283	0.6115	0.119
Mof_H 	H 	0.742	0.1036	0.65	0.117
Mof_N 	N 	0.6876	0.4763	0.5081	-0.154
Mof_C 	C 	0.2994	0.3447	0.0776	0.076
Mof_H 	H 	0.2686	0.3629	0.0432	0.004
Mof_C 	C 	0.2655	0.2842	0.1152	-0.142
Mof_H 	H 	0.2125	0.263	0.106	0.076
Mof_C 	C 	0.3089	0.2537	0.1671	0.068
Mof_C 	C 	0.3846	0.2975	0.1807	-0.142
Mof_H 	H 	0.4145	0.2851	0.2169	0.082
Mof_C 	C 	0.4135	0.3578	0.1405	0.086
Mof_H 	H 	0.4632	0.3854	0.1509	0.009
Mof_C 	C 	0.2792	0.1825	0.2042	0.021
Mof_C 	C 	0.3094	0.1644	0.2643	-0.089
Mof_H 	H 	0.3502	0.1989	0.2821	0.063
Mof_C 	C 	0.2797	0.0965	0.2971	0.007
Mof_H 	H 	0.2994	0.0865	0.3373	0.025
Mof_C 	C 	0.2205	0.0423	0.2709	-0.086
Mof_H 	H 	0.2026	0.9949	0.2926	0.067
Mof_C 	C 	0.1887	0.0602	0.212	0.023
Mof_C 	C 	0.2179	0.1296	0.1797	-0.088
Mof_H 	H 	0.1959	0.1411	0.1403	0.06
Mof_C 	C 	0.1262	0.0053	0.1816	0.09
Mof_C 	C 	0.0763	0.9082	0.118	0.084
Mof_C 	C 	0.0683	0.8392	0.0739	0.034
Mof_C 	C 	0.9967	0.8367	0.0374	-0.105
Mof_H 	H 	0.9569	0.8794	0.04	0.069
Mof_C 	C 	0.9847	0.7695	0.9968	0.025
Mof_H 	H 	0.9359	0.7668	0.9729	0.018
Mof_C 	C 	0.044	0.7073	0.9916	-0.088
Mof_H 	H 	0.0362	0.664	0.9629	0.06
Mof_C 	C 	0.1156	0.7085	0.0289	0.022
Mof_C 	C 	0.1272	0.7748	0.0696	-0.096
Mof_H 	H 	0.1751	0.7765	0.0946	0.068
Mof_C 	C 	0.1816	0.6414	0.023	0.062
Mof_C 	C 	0.2408	0.6271	0.0694	-0.136
Mof_H 	H 	0.2376	0.6564	0.1069	0.074
Mof_C 	C 	0.3045	0.5693	0.0601	0.078
Mof_H 	H 	0.3439	0.5619	0.0917	0.011
Mof_C 	C 	0.2552	0.5357	0.9644	0.086
Mof_H 	H 	0.2595	0.5046	0.9277	0.005
Mof_C 	C 	0.1887	0.5922	0.9699	-0.135
Mof_H 	H 	0.1492	0.5969	0.9381	0.076
Mof_N 	N 	0.3757	0.3794	0.0882	-0.156
Mof_N 	N 	0.0444	0.0074	0.184	-0.115
Mof_N 	N 	0.0124	0.9467	0.1449	-0.1
Mof_N 	N 	0.1492	0.9441	0.1404	-0.105
Mof_N 	N 	0.2313	0.9243	0.1199	-0.223
Mof_H 	H 	0.2588	0.9717	0.1115	0.118
Mof_H 	H 	0.258	0.8964	0.15	0.117
Mof_N 	N 	0.3124	0.5237	0.0081	-0.157
Mof_C 	C 	0.3447	0.2994	0.9224	0.076
Mof_H 	H 	0.3629	0.2686	0.9568	0.007
Mof_C 	C 	0.2842	0.2655	0.8848	-0.14
Mof_H 	H 	0.263	0.2125	0.894	0.077
Mof_C 	C 	0.2537	0.3089	0.8329	0.068
Mof_C 	C 	0.2975	0.3846	0.8193	-0.141
Mof_H 	H 	0.2851	0.4145	0.7831	0.082
Mof_C 	C 	0.3578	0.4135	0.8595	0.086
Mof_H 	H 	0.3854	0.4632	0.8491	0.009
Mof_C 	C 	0.1825	0.2792	0.7958	0.022
Mof_C 	C 	0.1644	0.3094	0.7357	-0.089
Mof_H 	H 	0.1989	0.3502	0.7179	0.063
Mof_C 	C 	0.0965	0.2797	0.7029	0.008
Mof_H 	H 	0.0865	0.2994	0.6627	0.025
Mof_C 	C 	0.0423	0.2205	0.7291	-0.087
Mof_H 	H 	0.9949	0.2026	0.7074	0.067
Mof_C 	C 	0.0602	0.1887	0.788	0.024
Mof_C 	C 	0.1296	0.2179	0.8203	-0.089
Mof_H 	H 	0.1411	0.1959	0.8597	0.061
Mof_C 	C 	0.0053	0.1262	0.8184	0.091
Mof_C 	C 	0.9082	0.0763	0.882	0.088
Mof_C 	C 	0.8392	0.0683	0.9261	0.028
Mof_C 	C 	0.8367	0.9967	0.9626	-0.082
Mof_H 	H 	0.8794	0.9569	0.96	0.064
Mof_C 	C 	0.7695	0.9847	0.0032	0.004
Mof_H 	H 	0.7668	0.9359	0.0271	0.023
Mof_C 	C 	0.7073	0.044	0.0084	-0.095
Mof_H 	H 	0.664	0.0362	0.0371	0.059
Mof_C 	C 	0.7085	0.1156	0.9711	0.029
Mof_C 	C 	0.7748	0.1272	0.9304	-0.092
Mof_H 	H 	0.7765	0.1751	0.9054	0.066
Mof_C 	C 	0.6414	0.1816	0.977	0.079
Mof_C 	C 	0.6271	0.2408	0.9306	-0.142
Mof_H 	H 	0.6564	0.2376	0.8931	0.077
Mof_C 	C 	0.5693	0.3045	0.9399	0.084
Mof_H 	H 	0.5619	0.3439	0.9083	0.01
Mof_C 	C 	0.5357	0.2552	0.0356	0.078
Mof_H 	H 	0.5046	0.2595	0.0723	0.006
Mof_C 	C 	0.5922	0.1887	0.0301	-0.152
Mof_H 	H 	0.5969	0.1492	0.0619	0.08
Mof_N 	N 	0.3794	0.3757	0.9118	-0.154
Mof_N 	N 	0.0074	0.0444	0.816	-0.115
Mof_N 	N 	0.9467	0.0124	0.8551	-0.1
Mof_N 	N 	0.9441	0.1492	0.8596	-0.105
Mof_N 	N 	0.9243	0.2313	0.8801	-0.223
Mof_H 	H 	0.9717	0.2588	0.8885	0.12
Mof_H 	H 	0.8964	0.258	0.85	0.117
Mof_N 	N 	0.5237	0.3124	0.9919	-0.149
Mof_C 	C 	0.6553	0.7006	0.4224	0.076
Mof_H 	H 	0.6371	0.7314	0.4568	0.005
Mof_C 	C 	0.7158	0.7345	0.3848	-0.141
Mof_H 	H 	0.737	0.7875	0.394	0.076
Mof_C 	C 	0.7463	0.6911	0.3329	0.068
Mof_C 	C 	0.7025	0.6154	0.3193	-0.142
Mof_H 	H 	0.7149	0.5855	0.2831	0.082
Mof_C 	C 	0.6422	0.5865	0.3595	0.086
Mof_H 	H 	0.6146	0.5368	0.3491	0.009
Mof_C 	C 	0.8175	0.7208	0.2958	0.021
Mof_C 	C 	0.8356	0.6906	0.2357	-0.089
Mof_H 	H 	0.8011	0.6498	0.2179	0.063
Mof_C 	C 	0.9035	0.7203	0.2029	0.008
Mof_H 	H 	0.9135	0.7006	0.1627	0.025
Mof_C 	C 	0.9577	0.7795	0.2291	-0.087
Mof_H 	H 	0.0051	0.7974	0.2074	0.067
Mof_C 	C 	0.9398	0.8113	0.288	0.023
Mof_C 	C 	0.8704	0.7821	0.3203	-0.088
Mof_H 	H 	0.8589	0.8041	0.3597	0.061
Mof_C 	C 	0.9947	0.8738	0.3184	0.091
Mof_C 	C 	0.0918	0.9237	0.382	0.087
Mof_C 	C 	0.1608	0.9317	0.4261	0.029
Mof_C 	C 	0.1633	0.0033	0.4626	-0.091
Mof_H 	H 	0.1206	0.0431	0.46	0.065
Mof_C 	C 	0.2305	0.0153	0.5032	0.012
Mof_H 	H 	0.2332	0.0641	0.5271	0.022
Mof_C 	C 	0.2927	0.956	0.5084	-0.089
Mof_H 	H 	0.336	0.9638	0.5371	0.059
Mof_C 	C 	0.2915	0.8844	0.4711	0.023
Mof_C 	C 	0.2252	0.8728	0.4304	-0.092
Mof_H 	H 	0.2235	0.8249	0.4054	0.066
Mof_C 	C 	0.3586	0.8184	0.477	0.071
Mof_C 	C 	0.3729	0.7592	0.4306	-0.14
Mof_H 	H 	0.3436	0.7624	0.3931	0.076
Mof_C 	C 	0.4307	0.6955	0.4399	0.081
Mof_H 	H 	0.4381	0.6561	0.4083	0.01
Mof_C 	C 	0.4643	0.7448	0.5356	0.082
Mof_H 	H 	0.4954	0.7405	0.5723	0.005
Mof_C 	C 	0.4078	0.8113	0.5301	-0.143
Mof_H 	H 	0.4031	0.8508	0.5619	0.078
Mof_N 	N 	0.6206	0.6243	0.4118	-0.156
Mof_N 	N 	0.9926	0.9556	0.316	-0.115
Mof_N 	N 	0.0533	0.9876	0.3551	-0.1
Mof_N 	N 	0.0559	0.8508	0.3596	-0.105
Mof_N 	N 	0.0757	0.7687	0.3801	-0.223
Mof_H 	H 	0.0283	0.7412	0.3885	0.119
Mof_H 	H 	0.1036	0.742	0.35	0.117
Mof_N 	N 	0.4763	0.6876	0.4919	-0.154
Mof_C 	C 	0.7994	0.1553	0.1724	0.079
Mof_H 	H 	0.7686	0.1371	0.2068	0.004
Mof_C 	C 	0.7655	0.2158	0.1348	-0.147
Mof_H 	H 	0.7125	0.237	0.144	0.079
Mof_C 	C 	0.8089	0.2463	0.0829	0.077
Mof_C 	C 	0.8846	0.2025	0.0693	-0.148
Mof_H 	H 	0.9145	0.2149	0.0331	0.082
Mof_C 	C 	0.9135	0.1422	0.1095	0.089
Mof_H 	H 	0.9632	0.1146	0.0991	0.007
Mof_C 	C 	0.7792	0.3175	0.0458	-0.001
Mof_C 	C 	0.8094	0.3356	0.9857	-0.062
Mof_H 	H 	0.8502	0.3011	0.9679	0.055
Mof_C 	C 	0.7797	0.4035	0.9529	-0.015
Mof_H 	H 	0.7994	0.4135	0.9127	0.033
Mof_C 	C 	0.7205	0.4577	0.9791	-0.061
Mof_H 	H 	0.7026	0.5051	0.9574	0.06
Mof_C 	C 	0.6887	0.4398	0.038	0.003
Mof_C 	C 	0.7179	0.3704	0.0703	-0.071
Mof_H 	H 	0.6959	0.3589	0.1097	0.055
Mof_C 	C 	0.6262	0.4947	0.0684	0.095
Mof_C 	C 	0.5763	0.5918	0.132	0.086
Mof_C 	C 	0.5683	0.6608	0.1761	0.03
Mof_C 	C 	0.4967	0.6633	0.2126	-0.092
Mof_H 	H 	0.4569	0.6206	0.21	0.065
Mof_C 	C 	0.4847	0.7305	0.2532	0.011
Mof_H 	H 	0.4359	0.7332	0.2771	0.022
Mof_C 	C 	0.544	0.7927	0.2584	-0.088
Mof_H 	H 	0.5362	0.836	0.2871	0.058
Mof_C 	C 	0.6156	0.7915	0.2211	0.023
Mof_C 	C 	0.6272	0.7252	0.1804	-0.092
Mof_H 	H 	0.6751	0.7235	0.1554	0.066
Mof_C 	C 	0.6816	0.8586	0.227	0.071
Mof_C 	C 	0.7408	0.8729	0.1806	-0.14
Mof_H 	H 	0.7376	0.8436	0.1431	0.075
Mof_C 	C 	0.8045	0.9307	0.1899	0.081
Mof_H 	H 	0.8439	0.9381	0.1583	0.01
Mof_C 	C 	0.7552	0.9643	0.2856	0.082
Mof_H 	H 	0.7595	0.9954	0.3223	0.005
Mof_C 	C 	0.6887	0.9078	0.2801	-0.143
Mof_H 	H 	0.6492	0.9031	0.3119	0.078
Mof_N 	N 	0.8757	0.1206	0.1618	-0.157
Mof_N 	N 	0.5444	0.4926	0.066	-0.117
Mof_N 	N 	0.5124	0.5533	0.1051	-0.1
Mof_N 	N 	0.6492	0.5559	0.1096	-0.106
Mof_N 	N 	0.7313	0.5757	0.1301	-0.223
Mof_H 	H 	0.7588	0.5283	0.1385	0.118
Mof_H 	H 	0.758	0.6036	0.1	0.116
Mof_N 	N 	0.8124	0.9763	0.2419	-0.153
Mof_C 	C 	0.2006	0.8447	0.6724	0.076
Mof_H 	H 	0.2314	0.8629	0.7068	0.005
Mof_C 	C 	0.2345	0.7842	0.6348	-0.141
Mof_H 	H 	0.2875	0.763	0.644	0.076
Mof_C 	C 	0.1911	0.7537	0.5829	0.068
Mof_C 	C 	0.1154	0.7975	0.5693	-0.142
Mof_H 	H 	0.0855	0.7851	0.5331	0.081
Mof_C 	C 	0.0865	0.8578	0.6095	0.086
Mof_H 	H 	0.0368	0.8854	0.5991	0.009
Mof_C 	C 	0.2208	0.6825	0.5458	0.022
Mof_C 	C 	0.1906	0.6644	0.4857	-0.09
Mof_H 	H 	0.1498	0.6989	0.4679	0.063
Mof_C 	C 	0.2203	0.5965	0.4529	0.009
Mof_H 	H 	0.2006	0.5865	0.4127	0.025
Mof_C 	C 	0.2795	0.5423	0.4791	-0.088
Mof_H 	H 	0.2974	0.4949	0.4574	0.068
Mof_C 	C 	0.3113	0.5602	0.538	0.024
Mof_C 	C 	0.2821	0.6296	0.5703	-0.089
Mof_H 	H 	0.3041	0.6411	0.6097	0.061
Mof_C 	C 	0.3738	0.5053	0.5684	0.09
Mof_C 	C 	0.4237	0.4082	0.632	0.087
Mof_C 	C 	0.4317	0.3392	0.6761	0.03
Mof_C 	C 	0.5033	0.3367	0.7126	-0.092
Mof_H 	H 	0.5431	0.3794	0.71	0.066
Mof_C 	C 	0.5153	0.2695	0.7532	0.011
Mof_H 	H 	0.5641	0.2668	0.7771	0.022
Mof_C 	C 	0.456	0.2073	0.7584	-0.088
Mof_H 	H 	0.4638	0.164	0.7871	0.059
Mof_C 	C 	0.3844	0.2085	0.7211	0.023
Mof_C 	C 	0.3728	0.2748	0.6804	-0.093
Mof_H 	H 	0.3249	0.2765	0.6554	0.066
Mof_C 	C 	0.3184	0.1414	0.727	0.071
Mof_C 	C 	0.2592	0.1271	0.6806	-0.14
Mof_H 	H 	0.2624	0.1564	0.6431	0.076
Mof_C 	C 	0.1955	0.0693	0.6899	0.081
Mof_H 	H 	0.1561	0.0619	0.6583	0.011
Mof_C 	C 	0.2448	0.0357	0.7856	0.082
Mof_H 	H 	0.2405	0.0046	0.8223	0.006
Mof_C 	C 	0.3113	0.0922	0.7801	-0.143
Mof_H 	H 	0.3508	0.0969	0.8119	0.078
Mof_N 	N 	0.1243	0.8794	0.6618	-0.156
Mof_N 	N 	0.4556	0.5074	0.566	-0.116
Mof_N 	N 	0.4876	0.4467	0.6051	-0.1
Mof_N 	N 	0.3508	0.4441	0.6096	-0.105
Mof_N 	N 	0.2687	0.4243	0.6301	-0.223
Mof_H 	H 	0.2412	0.4717	0.6385	0.119
Mof_H 	H 	0.242	0.3964	0.6	0.117
Mof_N 	N 	0.1876	0.0237	0.7419	-0.153
Mof_Cd	Cd	0.05948	0.94052	0.75	0.382
Mof_Cd	Cd	0.94052	0.05948	0.25	0.382
Mof_Cd	Cd	0.55948	0.55948	0.5	0.383
Mof_Cd	Cd	0.44052	0.44052	-0	0.377
_end
