data_functionalizedCrystal
_audit_creation_method	'EQeq! by Chris Wilmer'
_symmetry_space_group_name_H-M	'P1'
_symmetry_Int_Tables_number	1
_symmetry_cell_setting	triclinic
loop_
_symmetry_equiv_pos_as_xyz
  x,y,z
_cell_length_a	12.855
_cell_length_b	12.855
_cell_length_c	12.855
_cell_angle_alpha	90
_cell_angle_beta	90
_cell_angle_gamma	90
loop_
_atom_site_label
_atom_site_type_symbol
_atom_site_fract_x
_atom_site_fract_y
_atom_site_fract_z
_atom_site_charge
Mof_N 	N 	0.64305	0.93917	0.95579	-0.011
Mof_N 	N 	0.72559	0.98056	0.9648	0.095
Mof_N 	N 	0.8073	0.01761	0.97136	-0.165
Mof_N 	N 	0.85695	0.06083	0.45579	-0.077
Mof_N 	N 	0.77441	0.01944	0.4648	-0.118
Mof_N 	N 	0.6927	0.98239	0.47136	-0.109
Mof_N 	N 	0.35695	0.43917	0.54421	-0.148
Mof_N 	N 	0.27441	0.48056	0.5352	-0.033
Mof_N 	N 	0.1927	0.51761	0.52864	-0.253
Mof_N 	N 	0.14305	0.56083	0.04421	-0.169
Mof_N 	N 	0.22559	0.51944	0.0352	-0.051
Mof_N 	N 	0.3073	0.48239	0.02864	-0.274
Mof_N 	N 	0.95579	0.64305	0.93917	-0.01
Mof_N 	N 	0.9648	0.72559	0.98056	0.096
Mof_N 	N 	0.97136	0.8073	0.01761	-0.164
Mof_N 	N 	0.45579	0.85695	0.06083	-0.076
Mof_N 	N 	0.4648	0.77441	0.01944	-0.117
Mof_N 	N 	0.47136	0.6927	0.98239	-0.108
Mof_N 	N 	0.54421	0.35695	0.43917	-0.147
Mof_N 	N 	0.5352	0.27441	0.48056	-0.032
Mof_N 	N 	0.52864	0.1927	0.51761	-0.252
Mof_N 	N 	0.04421	0.14305	0.56083	-0.169
Mof_N 	N 	0.0352	0.22559	0.51944	-0.051
Mof_N 	N 	0.02864	0.3073	0.48239	-0.274
Mof_N 	N 	0.93917	0.95579	0.64305	-0.01
Mof_N 	N 	0.98056	0.9648	0.72559	0.096
Mof_N 	N 	0.01761	0.97136	0.8073	-0.164
Mof_N 	N 	0.06083	0.45579	0.85695	-0.076
Mof_N 	N 	0.01944	0.4648	0.77441	-0.117
Mof_N 	N 	0.98239	0.47136	0.6927	-0.108
Mof_N 	N 	0.43917	0.54421	0.35695	-0.147
Mof_N 	N 	0.48056	0.5352	0.27441	-0.032
Mof_N 	N 	0.51761	0.52864	0.1927	-0.252
Mof_N 	N 	0.56083	0.04421	0.14305	-0.169
Mof_N 	N 	0.51944	0.0352	0.22559	-0.051
Mof_N 	N 	0.48239	0.02864	0.3073	-0.274
Mof_N 	N 	0.35695	0.06083	0.04421	-0.159
Mof_N 	N 	0.27441	0.01944	0.0352	-0.15
Mof_N 	N 	0.1927	0.98239	0.02864	-0.089
Mof_N 	N 	0.14305	0.93917	0.54421	-0.1
Mof_N 	N 	0.22559	0.98056	0.5352	0.072
Mof_N 	N 	0.3073	0.01761	0.52864	-0.337
Mof_N 	N 	0.64305	0.56083	0.45579	-0.135
Mof_N 	N 	0.72559	0.51944	0.4648	-0.025
Mof_N 	N 	0.8073	0.48239	0.47136	-0.2
Mof_N 	N 	0.85695	0.43917	0.95579	-0.008
Mof_N 	N 	0.77441	0.48056	0.9648	0.002
Mof_N 	N 	0.6927	0.51761	0.97136	-0.171
Mof_N 	N 	0.04421	0.35695	0.06083	-0.159
Mof_N 	N 	0.0352	0.27441	0.01944	-0.15
Mof_N 	N 	0.02864	0.1927	0.98239	-0.089
Mof_N 	N 	0.54421	0.14305	0.93917	-0.1
Mof_N 	N 	0.5352	0.22559	0.98056	0.072
Mof_N 	N 	0.52864	0.3073	0.01761	-0.337
Mof_N 	N 	0.45579	0.64305	0.56083	-0.135
Mof_N 	N 	0.4648	0.72559	0.51944	-0.025
Mof_N 	N 	0.47136	0.8073	0.48239	-0.2
Mof_N 	N 	0.95579	0.85695	0.43917	-0.008
Mof_N 	N 	0.9648	0.77441	0.48056	0.002
Mof_N 	N 	0.97136	0.6927	0.51761	-0.171
Mof_N 	N 	0.06083	0.04421	0.35695	-0.159
Mof_N 	N 	0.01944	0.0352	0.27441	-0.15
Mof_N 	N 	0.98239	0.02864	0.1927	-0.089
Mof_N 	N 	0.93917	0.54421	0.14305	-0.1
Mof_N 	N 	0.98056	0.5352	0.22559	0.072
Mof_N 	N 	0.01761	0.52864	0.3073	-0.337
Mof_N 	N 	0.56083	0.45579	0.64305	-0.135
Mof_N 	N 	0.51944	0.4648	0.72559	-0.025
Mof_N 	N 	0.48239	0.47136	0.8073	-0.2
Mof_N 	N 	0.43917	0.95579	0.85695	-0.008
Mof_N 	N 	0.48056	0.9648	0.77441	0.002
Mof_N 	N 	0.51761	0.97136	0.6927	-0.171
Mof_Fe	Fe	0.5	0	-0	0.327
Mof_Fe	Fe	1.8747e-33	-5.94161e-33	0.5	0.327
Mof_Fe	Fe	0.5	0.5	0.5	0.714
Mof_Fe	Fe	-0	0.5	-0	0.327
Mof_Na	Na	-0	0	-0	0.879
Mof_Na	Na	0.5	-5.94161e-33	0.5	1.749
Mof_Na	Na	1.8747e-33	0.5	0.5	1.749
Mof_Na	Na	0.5	0.5	-0	1.749
_end
