data_functionalizedCrystal
_audit_creation_method	'EQeq! by Chris Wilmer'
_symmetry_space_group_name_H-M	'P1'
_symmetry_Int_Tables_number	1
_symmetry_cell_setting	triclinic
loop_
_symmetry_equiv_pos_as_xyz
  x,y,z
_cell_length_a	25.369
_cell_length_b	25.369
_cell_length_c	25.369
_cell_angle_alpha	90
_cell_angle_beta	90
_cell_angle_gamma	90
loop_
_atom_site_label
_atom_site_type_symbol
_atom_site_fract_x
_atom_site_fract_y
_atom_site_fract_z
_atom_site_charge
Mof_N 	N 	0.3614	0.0639	0.3051	-0.217
Mof_N 	N 	0.4369	0.108	0.2849	-0.191
Mof_H 	H 	0.4597	0.132	0.2923	0.093
Mof_N 	N 	0.4493	0.0722	0.2479	-0.173
Mof_C 	C 	0.3129	0.063	0.3265	0.098
Mof_H 	H 	0.291	0.0343	0.3197	-0.031
Mof_C 	C 	0.2943	0.1035	0.3585	-0.19
Mof_H 	H 	0.2629	0.1003	0.3771	0.085
Mof_C 	C 	0.3253	0.1498	0.3613	0.127
Mof_H 	H 	0.3126	0.1799	0.3779	-0.035
Mof_C 	C 	0.3731	0.1493	0.3397	-0.246
Mof_H 	H 	0.3948	0.1784	0.345	0.099
Mof_C 	C 	0.3922	0.1083	0.3102	0.195
Mof_C 	C 	0.4994	0.0715	0.2298	0.28
Mof_C 	C 	0.5386	0.1083	0.2546	-0.757
Mof_H 	H 	0.5215	0.1286	0.2816	0.24
Mof_H 	H 	0.5524	0.1316	0.2282	0.245
Mof_H 	H 	0.5668	0.0883	0.2699	0.244
Mof_C 	C 	0.5127	0.0383	0.1866	-0.242
Mof_C 	C 	0.5638	0.0233	0.1775	0.146
Mof_H 	H 	0.59	0.0335	0.2011	-0.042
Mof_C 	C 	0.5775	0.9932	0.1338	-0.269
Mof_H 	H 	0.6126	0.9851	0.1269	0.111
Mof_C 	C 	0.5399	0.9763	0.1025	0.217
Mof_C 	C 	0.4872	0.9885	0.1116	-0.288
Mof_H 	H 	0.4609	0.9762	0.0892	0.129
Mof_C 	C 	0.4759	0.0176	0.1523	0.191
Mof_H 	H 	0.4406	0.025	0.1588	-0.066
Mof_N 	N 	0.8614	0.5639	0.8051	-0.218
Mof_N 	N 	0.9369	0.608	0.7849	-0.191
Mof_H 	H 	0.9597	0.632	0.7923	0.093
Mof_N 	N 	0.9493	0.5722	0.7479	-0.181
Mof_C 	C 	0.8129	0.563	0.8265	0.099
Mof_H 	H 	0.791	0.5343	0.8197	-0.03
Mof_C 	C 	0.7943	0.6035	0.8585	-0.191
Mof_H 	H 	0.7629	0.6003	0.8771	0.087
Mof_C 	C 	0.8253	0.6498	0.8613	0.128
Mof_H 	H 	0.8126	0.6799	0.8779	-0.035
Mof_C 	C 	0.8731	0.6493	0.8397	-0.246
Mof_H 	H 	0.8948	0.6784	0.845	0.1
Mof_C 	C 	0.8922	0.6083	0.8102	0.196
Mof_C 	C 	0.9994	0.5715	0.7298	0.327
Mof_C 	C 	0.0386	0.6083	0.7546	-0.816
Mof_H 	H 	0.0215	0.6286	0.7816	0.254
Mof_H 	H 	0.0524	0.6316	0.7282	0.262
Mof_H 	H 	0.0668	0.5883	0.7699	0.262
Mof_C 	C 	0.0127	0.5383	0.6866	-0.311
Mof_C 	C 	0.0638	0.5233	0.6775	0.208
Mof_H 	H 	0.09	0.5335	0.7011	-0.063
Mof_C 	C 	0.0775	0.4932	0.6338	-0.325
Mof_H 	H 	0.1126	0.4851	0.6269	0.128
Mof_C 	C 	0.0399	0.4763	0.6025	0.249
Mof_C 	C 	0.9872	0.4885	0.6116	-0.347
Mof_H 	H 	0.9609	0.4762	0.5892	0.15
Mof_C 	C 	0.9759	0.5176	0.6523	0.271
Mof_H 	H 	0.9406	0.525	0.6588	-0.091
Mof_N 	N 	0.1386	0.9361	0.8051	-0.215
Mof_N 	N 	0.0631	0.892	0.7849	-0.191
Mof_H 	H 	0.0403	0.868	0.7923	0.09
Mof_N 	N 	0.0507	0.9278	0.7479	-0.173
Mof_C 	C 	0.1871	0.937	0.8265	0.098
Mof_H 	H 	0.209	0.9657	0.8197	-0.028
Mof_C 	C 	0.2057	0.8965	0.8585	-0.19
Mof_H 	H 	0.2371	0.8997	0.8771	0.087
Mof_C 	C 	0.1747	0.8502	0.8613	0.127
Mof_H 	H 	0.1874	0.8201	0.8779	-0.034
Mof_C 	C 	0.1269	0.8507	0.8397	-0.245
Mof_H 	H 	0.1052	0.8216	0.845	0.098
Mof_C 	C 	0.1078	0.8917	0.8102	0.195
Mof_C 	C 	0.0006	0.9285	0.7298	0.286
Mof_C 	C 	0.9614	0.8917	0.7546	-0.76
Mof_H 	H 	0.9785	0.8714	0.7816	0.244
Mof_H 	H 	0.9476	0.8684	0.7282	0.248
Mof_H 	H 	0.9332	0.9117	0.7699	0.248
Mof_C 	C 	0.9873	0.9617	0.6866	-0.273
Mof_C 	C 	0.9362	0.9767	0.6775	0.208
Mof_H 	H 	0.91	0.9665	0.7011	-0.059
Mof_C 	C 	0.9225	0.0068	0.6338	-0.337
Mof_H 	H 	0.8874	0.0149	0.6269	0.13
Mof_C 	C 	0.9601	0.0237	0.6025	0.267
Mof_C 	C 	0.0128	0.0115	0.6116	-0.371
Mof_H 	H 	0.0391	0.0238	0.5892	0.153
Mof_C 	C 	0.0241	0.9824	0.6523	0.26
Mof_H 	H 	0.0594	0.975	0.6588	-0.085
Mof_N 	N 	0.6386	0.4361	0.3051	-0.218
Mof_N 	N 	0.5631	0.392	0.2849	-0.192
Mof_H 	H 	0.5403	0.368	0.2923	0.092
Mof_N 	N 	0.5507	0.4278	0.2479	-0.177
Mof_C 	C 	0.6871	0.437	0.3265	0.098
Mof_H 	H 	0.709	0.4657	0.3197	-0.03
Mof_C 	C 	0.7057	0.3965	0.3585	-0.191
Mof_H 	H 	0.7371	0.3997	0.3771	0.086
Mof_C 	C 	0.6747	0.3502	0.3613	0.128
Mof_H 	H 	0.6874	0.3201	0.3779	-0.035
Mof_C 	C 	0.6269	0.3507	0.3397	-0.246
Mof_H 	H 	0.6052	0.3216	0.345	0.099
Mof_C 	C 	0.6078	0.3917	0.3102	0.195
Mof_C 	C 	0.5006	0.4285	0.2298	0.298
Mof_C 	C 	0.4614	0.3917	0.2546	-0.777
Mof_H 	H 	0.4785	0.3714	0.2816	0.246
Mof_H 	H 	0.4476	0.3684	0.2282	0.251
Mof_H 	H 	0.4332	0.4117	0.2699	0.251
Mof_C 	C 	0.4873	0.4617	0.1866	-0.276
Mof_C 	C 	0.4362	0.4767	0.1775	0.188
Mof_H 	H 	0.41	0.4665	0.2011	-0.055
Mof_C 	C 	0.4225	0.5068	0.1338	-0.311
Mof_H 	H 	0.3874	0.5149	0.1269	0.124
Mof_C 	C 	0.4601	0.5237	0.1025	0.245
Mof_C 	C 	0.5128	0.5115	0.1116	-0.336
Mof_H 	H 	0.5391	0.5238	0.0892	0.144
Mof_C 	C 	0.5241	0.4824	0.1523	0.241
Mof_H 	H 	0.5594	0.475	0.1588	-0.082
Mof_N 	N 	0.6386	0.5639	0.1949	-0.218
Mof_N 	N 	0.5631	0.608	0.2151	-0.192
Mof_H 	H 	0.5403	0.632	0.2077	0.091
Mof_N 	N 	0.5507	0.5722	0.2521	-0.176
Mof_C 	C 	0.6871	0.563	0.1735	0.098
Mof_H 	H 	0.709	0.5343	0.1803	-0.03
Mof_C 	C 	0.7057	0.6035	0.1415	-0.191
Mof_H 	H 	0.7371	0.6003	0.1229	0.085
Mof_C 	C 	0.6747	0.6498	0.1387	0.127
Mof_H 	H 	0.6874	0.6799	0.1221	-0.036
Mof_C 	C 	0.6269	0.6493	0.1603	-0.246
Mof_H 	H 	0.6052	0.6784	0.155	0.099
Mof_C 	C 	0.6078	0.6083	0.1898	0.195
Mof_C 	C 	0.5006	0.5715	0.2702	0.297
Mof_C 	C 	0.4614	0.6083	0.2454	-0.777
Mof_H 	H 	0.4785	0.6286	0.2184	0.246
Mof_H 	H 	0.4476	0.6316	0.2718	0.251
Mof_H 	H 	0.4332	0.5883	0.2301	0.251
Mof_C 	C 	0.4873	0.5383	0.3134	-0.275
Mof_C 	C 	0.4362	0.5233	0.3225	0.188
Mof_H 	H 	0.41	0.5335	0.2989	-0.055
Mof_C 	C 	0.4225	0.4932	0.3662	-0.31
Mof_H 	H 	0.3874	0.4851	0.3731	0.123
Mof_C 	C 	0.4601	0.4763	0.3975	0.244
Mof_C 	C 	0.5128	0.4885	0.3884	-0.335
Mof_H 	H 	0.5391	0.4762	0.4108	0.144
Mof_C 	C 	0.5241	0.5176	0.3477	0.241
Mof_H 	H 	0.5594	0.525	0.3412	-0.081
Mof_N 	N 	0.1386	0.0639	0.6949	-0.218
Mof_N 	N 	0.0631	0.108	0.7151	-0.193
Mof_H 	H 	0.0403	0.132	0.7077	0.091
Mof_N 	N 	0.0507	0.0722	0.7521	-0.169
Mof_C 	C 	0.1871	0.063	0.6735	0.097
Mof_H 	H 	0.209	0.0343	0.6803	-0.031
Mof_C 	C 	0.2057	0.1035	0.6415	-0.191
Mof_H 	H 	0.2371	0.1003	0.6229	0.085
Mof_C 	C 	0.1747	0.1498	0.6387	0.126
Mof_H 	H 	0.1874	0.1799	0.6221	-0.035
Mof_C 	C 	0.1269	0.1493	0.6603	-0.245
Mof_H 	H 	0.1052	0.1784	0.655	0.098
Mof_C 	C 	0.1078	0.1083	0.6898	0.194
Mof_C 	C 	0.0006	0.0715	0.7702	0.251
Mof_C 	C 	0.9614	0.1083	0.7454	-0.72
Mof_H 	H 	0.9785	0.1286	0.7184	0.232
Mof_H 	H 	0.9476	0.1316	0.7718	0.235
Mof_H 	H 	0.9332	0.0883	0.7301	0.234
Mof_C 	C 	0.9873	0.0383	0.8134	-0.206
Mof_C 	C 	0.9362	0.0233	0.8225	0.125
Mof_H 	H 	0.91	0.0335	0.7989	-0.034
Mof_C 	C 	0.9225	0.9932	0.8662	-0.253
Mof_H 	H 	0.8874	0.9851	0.8731	0.106
Mof_C 	C 	0.9601	0.9763	0.8975	0.211
Mof_C 	C 	0.0128	0.9885	0.8884	-0.274
Mof_H 	H 	0.0391	0.9762	0.9108	0.124
Mof_C 	C 	0.0241	0.0176	0.8477	0.161
Mof_H 	H 	0.0594	0.025	0.8412	-0.056
Mof_N 	N 	0.8614	0.4361	0.6949	-0.218
Mof_N 	N 	0.9369	0.392	0.7151	-0.191
Mof_H 	H 	0.9597	0.368	0.7077	0.093
Mof_N 	N 	0.9493	0.4278	0.7521	-0.181
Mof_C 	C 	0.8129	0.437	0.6735	0.098
Mof_H 	H 	0.791	0.4657	0.6803	-0.03
Mof_C 	C 	0.7943	0.3965	0.6415	-0.191
Mof_H 	H 	0.7629	0.3997	0.6229	0.086
Mof_C 	C 	0.8253	0.3502	0.6387	0.128
Mof_H 	H 	0.8126	0.3201	0.6221	-0.036
Mof_C 	C 	0.8731	0.3507	0.6603	-0.247
Mof_H 	H 	0.8948	0.3216	0.655	0.1
Mof_C 	C 	0.8922	0.3917	0.6898	0.196
Mof_C 	C 	0.9994	0.4285	0.7702	0.327
Mof_C 	C 	0.0386	0.3917	0.7454	-0.815
Mof_H 	H 	0.0215	0.3714	0.7184	0.254
Mof_H 	H 	0.0524	0.3684	0.7718	0.262
Mof_H 	H 	0.0668	0.4117	0.7301	0.262
Mof_C 	C 	0.0127	0.4617	0.8134	-0.31
Mof_C 	C 	0.0638	0.4767	0.8225	0.208
Mof_H 	H 	0.09	0.4665	0.7989	-0.063
Mof_C 	C 	0.0775	0.5068	0.8662	-0.324
Mof_H 	H 	0.1126	0.5149	0.8731	0.128
Mof_C 	C 	0.0399	0.5237	0.8975	0.249
Mof_C 	C 	0.9872	0.5115	0.8884	-0.347
Mof_H 	H 	0.9609	0.5238	0.9108	0.151
Mof_C 	C 	0.9759	0.4824	0.8477	0.271
Mof_H 	H 	0.9406	0.475	0.8412	-0.091
Mof_N 	N 	0.3614	0.9361	0.1949	-0.215
Mof_N 	N 	0.4369	0.892	0.2151	-0.191
Mof_H 	H 	0.4597	0.868	0.2077	0.091
Mof_N 	N 	0.4493	0.9278	0.2521	-0.177
Mof_C 	C 	0.3129	0.937	0.1735	0.098
Mof_H 	H 	0.291	0.9657	0.1803	-0.029
Mof_C 	C 	0.2943	0.8965	0.1415	-0.191
Mof_H 	H 	0.2629	0.8997	0.1229	0.085
Mof_C 	C 	0.3253	0.8502	0.1387	0.127
Mof_H 	H 	0.3126	0.8201	0.1221	-0.036
Mof_C 	C 	0.3731	0.8507	0.1603	-0.246
Mof_H 	H 	0.3948	0.8216	0.155	0.099
Mof_C 	C 	0.3922	0.8917	0.1898	0.196
Mof_C 	C 	0.4994	0.9285	0.2702	0.314
Mof_C 	C 	0.5386	0.8917	0.2454	-0.796
Mof_H 	H 	0.5215	0.8714	0.2184	0.251
Mof_H 	H 	0.5524	0.8684	0.2718	0.257
Mof_H 	H 	0.5668	0.9117	0.2301	0.258
Mof_C 	C 	0.5127	0.9617	0.3134	-0.307
Mof_C 	C 	0.5638	0.9767	0.3225	0.228
Mof_H 	H 	0.59	0.9665	0.2989	-0.067
Mof_C 	C 	0.5775	0.0068	0.3662	-0.351
Mof_H 	H 	0.6126	0.0149	0.3731	0.135
Mof_C 	C 	0.5399	0.0237	0.3975	0.271
Mof_C 	C 	0.4872	0.0115	0.3884	-0.381
Mof_H 	H 	0.4609	0.0238	0.4108	0.159
Mof_C 	C 	0.4759	0.9824	0.3477	0.288
Mof_H 	H 	0.4406	0.975	0.3412	-0.094
Mof_N 	N 	0.3051	0.3614	0.0639	-0.218
Mof_N 	N 	0.2849	0.4369	0.108	-0.192
Mof_H 	H 	0.2923	0.4597	0.132	0.092
Mof_N 	N 	0.2479	0.4493	0.0722	-0.174
Mof_C 	C 	0.3265	0.3129	0.063	0.097
Mof_H 	H 	0.3197	0.291	0.0343	-0.032
Mof_C 	C 	0.3585	0.2943	0.1035	-0.191
Mof_H 	H 	0.3771	0.2629	0.1003	0.084
Mof_C 	C 	0.3613	0.3253	0.1498	0.127
Mof_H 	H 	0.3779	0.3126	0.1799	-0.035
Mof_C 	C 	0.3397	0.3731	0.1493	-0.246
Mof_H 	H 	0.345	0.3948	0.1784	0.099
Mof_C 	C 	0.3102	0.3922	0.1083	0.195
Mof_C 	C 	0.2298	0.4994	0.0715	0.28
Mof_C 	C 	0.2546	0.5386	0.1083	-0.757
Mof_H 	H 	0.2816	0.5215	0.1286	0.24
Mof_H 	H 	0.2282	0.5524	0.1316	0.245
Mof_H 	H 	0.2699	0.5668	0.0883	0.244
Mof_C 	C 	0.1866	0.5127	0.0383	-0.242
Mof_C 	C 	0.1775	0.5638	0.0233	0.146
Mof_H 	H 	0.2011	0.59	0.0335	-0.042
Mof_C 	C 	0.1338	0.5775	0.9932	-0.269
Mof_H 	H 	0.1269	0.6126	0.9851	0.111
Mof_C 	C 	0.1025	0.5399	0.9763	0.217
Mof_C 	C 	0.1116	0.4872	0.9885	-0.288
Mof_H 	H 	0.0892	0.4609	0.9762	0.129
Mof_C 	C 	0.1523	0.4759	0.0176	0.191
Mof_H 	H 	0.1588	0.4406	0.025	-0.066
Mof_N 	N 	0.8051	0.8614	0.5639	-0.218
Mof_N 	N 	0.7849	0.9369	0.608	-0.191
Mof_H 	H 	0.7923	0.9597	0.632	0.093
Mof_N 	N 	0.7479	0.9493	0.5722	-0.181
Mof_C 	C 	0.8265	0.8129	0.563	0.099
Mof_H 	H 	0.8197	0.791	0.5343	-0.03
Mof_C 	C 	0.8585	0.7943	0.6035	-0.191
Mof_H 	H 	0.8771	0.7629	0.6003	0.087
Mof_C 	C 	0.8613	0.8253	0.6498	0.128
Mof_H 	H 	0.8779	0.8126	0.6799	-0.035
Mof_C 	C 	0.8397	0.8731	0.6493	-0.246
Mof_H 	H 	0.845	0.8948	0.6784	0.1
Mof_C 	C 	0.8102	0.8922	0.6083	0.196
Mof_C 	C 	0.7298	0.9994	0.5715	0.327
Mof_C 	C 	0.7546	0.0386	0.6083	-0.816
Mof_H 	H 	0.7816	0.0215	0.6286	0.254
Mof_H 	H 	0.7282	0.0524	0.6316	0.262
Mof_H 	H 	0.7699	0.0668	0.5883	0.262
Mof_C 	C 	0.6866	0.0127	0.5383	-0.311
Mof_C 	C 	0.6775	0.0638	0.5233	0.208
Mof_H 	H 	0.7011	0.09	0.5335	-0.063
Mof_C 	C 	0.6338	0.0775	0.4932	-0.325
Mof_H 	H 	0.6269	0.1126	0.4851	0.128
Mof_C 	C 	0.6025	0.0399	0.4763	0.249
Mof_C 	C 	0.6116	0.9872	0.4885	-0.347
Mof_H 	H 	0.5892	0.9609	0.4762	0.15
Mof_C 	C 	0.6523	0.9759	0.5176	0.271
Mof_H 	H 	0.6588	0.9406	0.525	-0.091
Mof_N 	N 	0.8051	0.1386	0.9361	-0.215
Mof_N 	N 	0.7849	0.0631	0.892	-0.191
Mof_H 	H 	0.7923	0.0403	0.868	0.09
Mof_N 	N 	0.7479	0.0507	0.9278	-0.173
Mof_C 	C 	0.8265	0.1871	0.937	0.098
Mof_H 	H 	0.8197	0.209	0.9657	-0.028
Mof_C 	C 	0.8585	0.2057	0.8965	-0.19
Mof_H 	H 	0.8771	0.2371	0.8997	0.087
Mof_C 	C 	0.8613	0.1747	0.8502	0.127
Mof_H 	H 	0.8779	0.1874	0.8201	-0.034
Mof_C 	C 	0.8397	0.1269	0.8507	-0.245
Mof_H 	H 	0.845	0.1052	0.8216	0.098
Mof_C 	C 	0.8102	0.1078	0.8917	0.195
Mof_C 	C 	0.7298	0.0006	0.9285	0.286
Mof_C 	C 	0.7546	0.9614	0.8917	-0.76
Mof_H 	H 	0.7816	0.9785	0.8714	0.244
Mof_H 	H 	0.7282	0.9476	0.8684	0.248
Mof_H 	H 	0.7699	0.9332	0.9117	0.248
Mof_C 	C 	0.6866	0.9873	0.9617	-0.273
Mof_C 	C 	0.6775	0.9362	0.9767	0.208
Mof_H 	H 	0.7011	0.91	0.9665	-0.059
Mof_C 	C 	0.6338	0.9225	0.0068	-0.337
Mof_H 	H 	0.6269	0.8874	0.0149	0.13
Mof_C 	C 	0.6025	0.9601	0.0237	0.267
Mof_C 	C 	0.6116	0.0128	0.0115	-0.371
Mof_H 	H 	0.5892	0.0391	0.0238	0.153
Mof_C 	C 	0.6523	0.0241	0.9824	0.26
Mof_H 	H 	0.6588	0.0594	0.975	-0.085
Mof_N 	N 	0.3051	0.6386	0.4361	-0.218
Mof_N 	N 	0.2849	0.5631	0.392	-0.192
Mof_H 	H 	0.2923	0.5403	0.368	0.092
Mof_N 	N 	0.2479	0.5507	0.4278	-0.177
Mof_C 	C 	0.3265	0.6871	0.437	0.098
Mof_H 	H 	0.3197	0.709	0.4657	-0.03
Mof_C 	C 	0.3585	0.7057	0.3965	-0.191
Mof_H 	H 	0.3771	0.7371	0.3997	0.086
Mof_C 	C 	0.3613	0.6747	0.3502	0.128
Mof_H 	H 	0.3779	0.6874	0.3201	-0.035
Mof_C 	C 	0.3397	0.6269	0.3507	-0.246
Mof_H 	H 	0.345	0.6052	0.3216	0.099
Mof_C 	C 	0.3102	0.6078	0.3917	0.195
Mof_C 	C 	0.2298	0.5006	0.4285	0.298
Mof_C 	C 	0.2546	0.4614	0.3917	-0.777
Mof_H 	H 	0.2816	0.4785	0.3714	0.246
Mof_H 	H 	0.2282	0.4476	0.3684	0.251
Mof_H 	H 	0.2699	0.4332	0.4117	0.251
Mof_C 	C 	0.1866	0.4873	0.4617	-0.276
Mof_C 	C 	0.1775	0.4362	0.4767	0.188
Mof_H 	H 	0.2011	0.41	0.4665	-0.055
Mof_C 	C 	0.1338	0.4225	0.5068	-0.311
Mof_H 	H 	0.1269	0.3874	0.5149	0.124
Mof_C 	C 	0.1025	0.4601	0.5237	0.245
Mof_C 	C 	0.1116	0.5128	0.5115	-0.336
Mof_H 	H 	0.0892	0.5391	0.5238	0.144
Mof_C 	C 	0.1523	0.5241	0.4824	0.241
Mof_H 	H 	0.1588	0.5594	0.475	-0.082
Mof_N 	N 	0.1949	0.6386	0.5639	-0.218
Mof_N 	N 	0.2151	0.5631	0.608	-0.192
Mof_H 	H 	0.2077	0.5403	0.632	0.091
Mof_N 	N 	0.2521	0.5507	0.5722	-0.176
Mof_C 	C 	0.1735	0.6871	0.563	0.098
Mof_H 	H 	0.1803	0.709	0.5343	-0.03
Mof_C 	C 	0.1415	0.7057	0.6035	-0.191
Mof_H 	H 	0.1229	0.7371	0.6003	0.085
Mof_C 	C 	0.1387	0.6747	0.6498	0.127
Mof_H 	H 	0.1221	0.6874	0.6799	-0.036
Mof_C 	C 	0.1603	0.6269	0.6493	-0.246
Mof_H 	H 	0.155	0.6052	0.6784	0.099
Mof_C 	C 	0.1898	0.6078	0.6083	0.195
Mof_C 	C 	0.2702	0.5006	0.5715	0.297
Mof_C 	C 	0.2454	0.4614	0.6083	-0.777
Mof_H 	H 	0.2184	0.4785	0.6286	0.246
Mof_H 	H 	0.2718	0.4476	0.6316	0.251
Mof_H 	H 	0.2301	0.4332	0.5883	0.251
Mof_C 	C 	0.3134	0.4873	0.5383	-0.275
Mof_C 	C 	0.3225	0.4362	0.5233	0.188
Mof_H 	H 	0.2989	0.41	0.5335	-0.055
Mof_C 	C 	0.3662	0.4225	0.4932	-0.31
Mof_H 	H 	0.3731	0.3874	0.4851	0.123
Mof_C 	C 	0.3975	0.4601	0.4763	0.244
Mof_C 	C 	0.3884	0.5128	0.4885	-0.335
Mof_H 	H 	0.4108	0.5391	0.4762	0.144
Mof_C 	C 	0.3477	0.5241	0.5176	0.241
Mof_H 	H 	0.3412	0.5594	0.525	-0.081
Mof_N 	N 	0.6949	0.1386	0.0639	-0.218
Mof_N 	N 	0.7151	0.0631	0.108	-0.193
Mof_H 	H 	0.7077	0.0403	0.132	0.091
Mof_N 	N 	0.7521	0.0507	0.0722	-0.169
Mof_C 	C 	0.6735	0.1871	0.063	0.097
Mof_H 	H 	0.6803	0.209	0.0343	-0.031
Mof_C 	C 	0.6415	0.2057	0.1035	-0.191
Mof_H 	H 	0.6229	0.2371	0.1003	0.085
Mof_C 	C 	0.6387	0.1747	0.1498	0.126
Mof_H 	H 	0.6221	0.1874	0.1799	-0.035
Mof_C 	C 	0.6603	0.1269	0.1493	-0.245
Mof_H 	H 	0.655	0.1052	0.1784	0.098
Mof_C 	C 	0.6898	0.1078	0.1083	0.194
Mof_C 	C 	0.7702	0.0006	0.0715	0.251
Mof_C 	C 	0.7454	0.9614	0.1083	-0.72
Mof_H 	H 	0.7184	0.9785	0.1286	0.232
Mof_H 	H 	0.7718	0.9476	0.1316	0.235
Mof_H 	H 	0.7301	0.9332	0.0883	0.234
Mof_C 	C 	0.8134	0.9873	0.0383	-0.206
Mof_C 	C 	0.8225	0.9362	0.0233	0.125
Mof_H 	H 	0.7989	0.91	0.0335	-0.034
Mof_C 	C 	0.8662	0.9225	0.9932	-0.253
Mof_H 	H 	0.8731	0.8874	0.9851	0.106
Mof_C 	C 	0.8975	0.9601	0.9763	0.211
Mof_C 	C 	0.8884	0.0128	0.9885	-0.274
Mof_H 	H 	0.9108	0.0391	0.9762	0.124
Mof_C 	C 	0.8477	0.0241	0.0176	0.161
Mof_H 	H 	0.8412	0.0594	0.025	-0.056
Mof_N 	N 	0.6949	0.8614	0.4361	-0.218
Mof_N 	N 	0.7151	0.9369	0.392	-0.191
Mof_H 	H 	0.7077	0.9597	0.368	0.093
Mof_N 	N 	0.7521	0.9493	0.4278	-0.181
Mof_C 	C 	0.6735	0.8129	0.437	0.098
Mof_H 	H 	0.6803	0.791	0.4657	-0.03
Mof_C 	C 	0.6415	0.7943	0.3965	-0.191
Mof_H 	H 	0.6229	0.7629	0.3997	0.086
Mof_C 	C 	0.6387	0.8253	0.3502	0.128
Mof_H 	H 	0.6221	0.8126	0.3201	-0.036
Mof_C 	C 	0.6603	0.8731	0.3507	-0.247
Mof_H 	H 	0.655	0.8948	0.3216	0.1
Mof_C 	C 	0.6898	0.8922	0.3917	0.196
Mof_C 	C 	0.7702	0.9994	0.4285	0.327
Mof_C 	C 	0.7454	0.0386	0.3917	-0.815
Mof_H 	H 	0.7184	0.0215	0.3714	0.254
Mof_H 	H 	0.7718	0.0524	0.3684	0.262
Mof_H 	H 	0.7301	0.0668	0.4117	0.262
Mof_C 	C 	0.8134	0.0127	0.4617	-0.31
Mof_C 	C 	0.8225	0.0638	0.4767	0.208
Mof_H 	H 	0.7989	0.09	0.4665	-0.063
Mof_C 	C 	0.8662	0.0775	0.5068	-0.324
Mof_H 	H 	0.8731	0.1126	0.5149	0.128
Mof_C 	C 	0.8975	0.0399	0.5237	0.249
Mof_C 	C 	0.8884	0.9872	0.5115	-0.347
Mof_H 	H 	0.9108	0.9609	0.5238	0.151
Mof_C 	C 	0.8477	0.9759	0.4824	0.271
Mof_H 	H 	0.8412	0.9406	0.475	-0.091
Mof_N 	N 	0.1949	0.3614	0.9361	-0.215
Mof_N 	N 	0.2151	0.4369	0.892	-0.191
Mof_H 	H 	0.2077	0.4597	0.868	0.091
Mof_N 	N 	0.2521	0.4493	0.9278	-0.177
Mof_C 	C 	0.1735	0.3129	0.937	0.098
Mof_H 	H 	0.1803	0.291	0.9657	-0.029
Mof_C 	C 	0.1415	0.2943	0.8965	-0.191
Mof_H 	H 	0.1229	0.2629	0.8997	0.085
Mof_C 	C 	0.1387	0.3253	0.8502	0.127
Mof_H 	H 	0.1221	0.3126	0.8201	-0.036
Mof_C 	C 	0.1603	0.3731	0.8507	-0.246
Mof_H 	H 	0.155	0.3948	0.8216	0.099
Mof_C 	C 	0.1898	0.3922	0.8917	0.196
Mof_C 	C 	0.2702	0.4994	0.9285	0.314
Mof_C 	C 	0.2454	0.5386	0.8917	-0.796
Mof_H 	H 	0.2184	0.5215	0.8714	0.251
Mof_H 	H 	0.2718	0.5524	0.8684	0.257
Mof_H 	H 	0.2301	0.5668	0.9117	0.258
Mof_C 	C 	0.3134	0.5127	0.9617	-0.307
Mof_C 	C 	0.3225	0.5638	0.9767	0.228
Mof_H 	H 	0.2989	0.59	0.9665	-0.067
Mof_C 	C 	0.3662	0.5775	0.0068	-0.351
Mof_H 	H 	0.3731	0.6126	0.0149	0.135
Mof_C 	C 	0.3975	0.5399	0.0237	0.271
Mof_C 	C 	0.3884	0.4872	0.0115	-0.381
Mof_H 	H 	0.4108	0.4609	0.0238	0.159
Mof_C 	C 	0.3477	0.4759	0.9824	0.288
Mof_H 	H 	0.3412	0.4406	0.975	-0.094
Mof_N 	N 	0.0639	0.3051	0.3614	-0.218
Mof_N 	N 	0.108	0.2849	0.4369	-0.192
Mof_H 	H 	0.132	0.2923	0.4597	0.092
Mof_N 	N 	0.0722	0.2479	0.4493	-0.174
Mof_C 	C 	0.063	0.3265	0.3129	0.097
Mof_H 	H 	0.0343	0.3197	0.291	-0.032
Mof_C 	C 	0.1035	0.3585	0.2943	-0.191
Mof_H 	H 	0.1003	0.3771	0.2629	0.084
Mof_C 	C 	0.1498	0.3613	0.3253	0.127
Mof_H 	H 	0.1799	0.3779	0.3126	-0.035
Mof_C 	C 	0.1493	0.3397	0.3731	-0.246
Mof_H 	H 	0.1784	0.345	0.3948	0.099
Mof_C 	C 	0.1083	0.3102	0.3922	0.195
Mof_C 	C 	0.0715	0.2298	0.4994	0.28
Mof_C 	C 	0.1083	0.2546	0.5386	-0.757
Mof_H 	H 	0.1286	0.2816	0.5215	0.24
Mof_H 	H 	0.1316	0.2282	0.5524	0.245
Mof_H 	H 	0.0883	0.2699	0.5668	0.244
Mof_C 	C 	0.0383	0.1866	0.5127	-0.242
Mof_C 	C 	0.0233	0.1775	0.5638	0.146
Mof_H 	H 	0.0335	0.2011	0.59	-0.042
Mof_C 	C 	0.9932	0.1338	0.5775	-0.269
Mof_H 	H 	0.9851	0.1269	0.6126	0.111
Mof_C 	C 	0.9763	0.1025	0.5399	0.217
Mof_C 	C 	0.9885	0.1116	0.4872	-0.288
Mof_H 	H 	0.9762	0.0892	0.4609	0.129
Mof_C 	C 	0.0176	0.1523	0.4759	0.191
Mof_H 	H 	0.025	0.1588	0.4406	-0.066
Mof_N 	N 	0.5639	0.8051	0.8614	-0.218
Mof_N 	N 	0.608	0.7849	0.9369	-0.191
Mof_H 	H 	0.632	0.7923	0.9597	0.093
Mof_N 	N 	0.5722	0.7479	0.9493	-0.181
Mof_C 	C 	0.563	0.8265	0.8129	0.099
Mof_H 	H 	0.5343	0.8197	0.791	-0.03
Mof_C 	C 	0.6035	0.8585	0.7943	-0.191
Mof_H 	H 	0.6003	0.8771	0.7629	0.087
Mof_C 	C 	0.6498	0.8613	0.8253	0.128
Mof_H 	H 	0.6799	0.8779	0.8126	-0.035
Mof_C 	C 	0.6493	0.8397	0.8731	-0.246
Mof_H 	H 	0.6784	0.845	0.8948	0.1
Mof_C 	C 	0.6083	0.8102	0.8922	0.196
Mof_C 	C 	0.5715	0.7298	0.9994	0.327
Mof_C 	C 	0.6083	0.7546	0.0386	-0.816
Mof_H 	H 	0.6286	0.7816	0.0215	0.254
Mof_H 	H 	0.6316	0.7282	0.0524	0.262
Mof_H 	H 	0.5883	0.7699	0.0668	0.262
Mof_C 	C 	0.5383	0.6866	0.0127	-0.311
Mof_C 	C 	0.5233	0.6775	0.0638	0.208
Mof_H 	H 	0.5335	0.7011	0.09	-0.063
Mof_C 	C 	0.4932	0.6338	0.0775	-0.325
Mof_H 	H 	0.4851	0.6269	0.1126	0.128
Mof_C 	C 	0.4763	0.6025	0.0399	0.249
Mof_C 	C 	0.4885	0.6116	0.9872	-0.347
Mof_H 	H 	0.4762	0.5892	0.9609	0.15
Mof_C 	C 	0.5176	0.6523	0.9759	0.271
Mof_H 	H 	0.525	0.6588	0.9406	-0.091
Mof_N 	N 	0.9361	0.8051	0.1386	-0.215
Mof_N 	N 	0.892	0.7849	0.0631	-0.191
Mof_H 	H 	0.868	0.7923	0.0403	0.09
Mof_N 	N 	0.9278	0.7479	0.0507	-0.173
Mof_C 	C 	0.937	0.8265	0.1871	0.098
Mof_H 	H 	0.9657	0.8197	0.209	-0.028
Mof_C 	C 	0.8965	0.8585	0.2057	-0.19
Mof_H 	H 	0.8997	0.8771	0.2371	0.087
Mof_C 	C 	0.8502	0.8613	0.1747	0.127
Mof_H 	H 	0.8201	0.8779	0.1874	-0.034
Mof_C 	C 	0.8507	0.8397	0.1269	-0.245
Mof_H 	H 	0.8216	0.845	0.1052	0.098
Mof_C 	C 	0.8917	0.8102	0.1078	0.195
Mof_C 	C 	0.9285	0.7298	0.0006	0.286
Mof_C 	C 	0.8917	0.7546	0.9614	-0.76
Mof_H 	H 	0.8714	0.7816	0.9785	0.244
Mof_H 	H 	0.8684	0.7282	0.9476	0.248
Mof_H 	H 	0.9117	0.7699	0.9332	0.248
Mof_C 	C 	0.9617	0.6866	0.9873	-0.273
Mof_C 	C 	0.9767	0.6775	0.9362	0.208
Mof_H 	H 	0.9665	0.7011	0.91	-0.059
Mof_C 	C 	0.0068	0.6338	0.9225	-0.337
Mof_H 	H 	0.0149	0.6269	0.8874	0.13
Mof_C 	C 	0.0237	0.6025	0.9601	0.267
Mof_C 	C 	0.0115	0.6116	0.0128	-0.371
Mof_H 	H 	0.0238	0.5892	0.0391	0.153
Mof_C 	C 	0.9824	0.6523	0.0241	0.26
Mof_H 	H 	0.975	0.6588	0.0594	-0.085
Mof_N 	N 	0.4361	0.3051	0.6386	-0.218
Mof_N 	N 	0.392	0.2849	0.5631	-0.192
Mof_H 	H 	0.368	0.2923	0.5403	0.092
Mof_N 	N 	0.4278	0.2479	0.5507	-0.177
Mof_C 	C 	0.437	0.3265	0.6871	0.098
Mof_H 	H 	0.4657	0.3197	0.709	-0.03
Mof_C 	C 	0.3965	0.3585	0.7057	-0.191
Mof_H 	H 	0.3997	0.3771	0.7371	0.086
Mof_C 	C 	0.3502	0.3613	0.6747	0.128
Mof_H 	H 	0.3201	0.3779	0.6874	-0.035
Mof_C 	C 	0.3507	0.3397	0.6269	-0.246
Mof_H 	H 	0.3216	0.345	0.6052	0.099
Mof_C 	C 	0.3917	0.3102	0.6078	0.195
Mof_C 	C 	0.4285	0.2298	0.5006	0.298
Mof_C 	C 	0.3917	0.2546	0.4614	-0.777
Mof_H 	H 	0.3714	0.2816	0.4785	0.246
Mof_H 	H 	0.3684	0.2282	0.4476	0.251
Mof_H 	H 	0.4117	0.2699	0.4332	0.251
Mof_C 	C 	0.4617	0.1866	0.4873	-0.276
Mof_C 	C 	0.4767	0.1775	0.4362	0.188
Mof_H 	H 	0.4665	0.2011	0.41	-0.055
Mof_C 	C 	0.5068	0.1338	0.4225	-0.311
Mof_H 	H 	0.5149	0.1269	0.3874	0.124
Mof_C 	C 	0.5237	0.1025	0.4601	0.245
Mof_C 	C 	0.5115	0.1116	0.5128	-0.336
Mof_H 	H 	0.5238	0.0892	0.5391	0.144
Mof_C 	C 	0.4824	0.1523	0.5241	0.241
Mof_H 	H 	0.475	0.1588	0.5594	-0.082
Mof_N 	N 	0.5639	0.1949	0.6386	-0.218
Mof_N 	N 	0.608	0.2151	0.5631	-0.192
Mof_H 	H 	0.632	0.2077	0.5403	0.091
Mof_N 	N 	0.5722	0.2521	0.5507	-0.176
Mof_C 	C 	0.563	0.1735	0.6871	0.098
Mof_H 	H 	0.5343	0.1803	0.709	-0.03
Mof_C 	C 	0.6035	0.1415	0.7057	-0.191
Mof_H 	H 	0.6003	0.1229	0.7371	0.085
Mof_C 	C 	0.6498	0.1387	0.6747	0.127
Mof_H 	H 	0.6799	0.1221	0.6874	-0.036
Mof_C 	C 	0.6493	0.1603	0.6269	-0.246
Mof_H 	H 	0.6784	0.155	0.6052	0.099
Mof_C 	C 	0.6083	0.1898	0.6078	0.195
Mof_C 	C 	0.5715	0.2702	0.5006	0.297
Mof_C 	C 	0.6083	0.2454	0.4614	-0.777
Mof_H 	H 	0.6286	0.2184	0.4785	0.246
Mof_H 	H 	0.6316	0.2718	0.4476	0.251
Mof_H 	H 	0.5883	0.2301	0.4332	0.251
Mof_C 	C 	0.5383	0.3134	0.4873	-0.275
Mof_C 	C 	0.5233	0.3225	0.4362	0.188
Mof_H 	H 	0.5335	0.2989	0.41	-0.055
Mof_C 	C 	0.4932	0.3662	0.4225	-0.31
Mof_H 	H 	0.4851	0.3731	0.3874	0.123
Mof_C 	C 	0.4763	0.3975	0.4601	0.244
Mof_C 	C 	0.4885	0.3884	0.5128	-0.335
Mof_H 	H 	0.4762	0.4108	0.5391	0.144
Mof_C 	C 	0.5176	0.3477	0.5241	0.241
Mof_H 	H 	0.525	0.3412	0.5594	-0.081
Mof_N 	N 	0.0639	0.6949	0.1386	-0.218
Mof_N 	N 	0.108	0.7151	0.0631	-0.193
Mof_H 	H 	0.132	0.7077	0.0403	0.091
Mof_N 	N 	0.0722	0.7521	0.0507	-0.169
Mof_C 	C 	0.063	0.6735	0.1871	0.097
Mof_H 	H 	0.0343	0.6803	0.209	-0.031
Mof_C 	C 	0.1035	0.6415	0.2057	-0.191
Mof_H 	H 	0.1003	0.6229	0.2371	0.085
Mof_C 	C 	0.1498	0.6387	0.1747	0.126
Mof_H 	H 	0.1799	0.6221	0.1874	-0.035
Mof_C 	C 	0.1493	0.6603	0.1269	-0.245
Mof_H 	H 	0.1784	0.655	0.1052	0.098
Mof_C 	C 	0.1083	0.6898	0.1078	0.194
Mof_C 	C 	0.0715	0.7702	0.0006	0.251
Mof_C 	C 	0.1083	0.7454	0.9614	-0.72
Mof_H 	H 	0.1286	0.7184	0.9785	0.232
Mof_H 	H 	0.1316	0.7718	0.9476	0.235
Mof_H 	H 	0.0883	0.7301	0.9332	0.234
Mof_C 	C 	0.0383	0.8134	0.9873	-0.206
Mof_C 	C 	0.0233	0.8225	0.9362	0.125
Mof_H 	H 	0.0335	0.7989	0.91	-0.034
Mof_C 	C 	0.9932	0.8662	0.9225	-0.253
Mof_H 	H 	0.9851	0.8731	0.8874	0.106
Mof_C 	C 	0.9763	0.8975	0.9601	0.211
Mof_C 	C 	0.9885	0.8884	0.0128	-0.274
Mof_H 	H 	0.9762	0.9108	0.0391	0.124
Mof_C 	C 	0.0176	0.8477	0.0241	0.161
Mof_H 	H 	0.025	0.8412	0.0594	-0.056
Mof_N 	N 	0.4361	0.6949	0.8614	-0.218
Mof_N 	N 	0.392	0.7151	0.9369	-0.191
Mof_H 	H 	0.368	0.7077	0.9597	0.093
Mof_N 	N 	0.4278	0.7521	0.9493	-0.181
Mof_C 	C 	0.437	0.6735	0.8129	0.098
Mof_H 	H 	0.4657	0.6803	0.791	-0.03
Mof_C 	C 	0.3965	0.6415	0.7943	-0.191
Mof_H 	H 	0.3997	0.6229	0.7629	0.086
Mof_C 	C 	0.3502	0.6387	0.8253	0.128
Mof_H 	H 	0.3201	0.6221	0.8126	-0.036
Mof_C 	C 	0.3507	0.6603	0.8731	-0.247
Mof_H 	H 	0.3216	0.655	0.8948	0.1
Mof_C 	C 	0.3917	0.6898	0.8922	0.196
Mof_C 	C 	0.4285	0.7702	0.9994	0.327
Mof_C 	C 	0.3917	0.7454	0.0386	-0.815
Mof_H 	H 	0.3714	0.7184	0.0215	0.254
Mof_H 	H 	0.3684	0.7718	0.0524	0.262
Mof_H 	H 	0.4117	0.7301	0.0668	0.262
Mof_C 	C 	0.4617	0.8134	0.0127	-0.31
Mof_C 	C 	0.4767	0.8225	0.0638	0.208
Mof_H 	H 	0.4665	0.7989	0.09	-0.063
Mof_C 	C 	0.5068	0.8662	0.0775	-0.324
Mof_H 	H 	0.5149	0.8731	0.1126	0.128
Mof_C 	C 	0.5237	0.8975	0.0399	0.249
Mof_C 	C 	0.5115	0.8884	0.9872	-0.347
Mof_H 	H 	0.5238	0.9108	0.9609	0.151
Mof_C 	C 	0.4824	0.8477	0.9759	0.271
Mof_H 	H 	0.475	0.8412	0.9406	-0.091
Mof_N 	N 	0.9361	0.1949	0.3614	-0.215
Mof_N 	N 	0.892	0.2151	0.4369	-0.191
Mof_H 	H 	0.868	0.2077	0.4597	0.091
Mof_N 	N 	0.9278	0.2521	0.4493	-0.177
Mof_C 	C 	0.937	0.1735	0.3129	0.098
Mof_H 	H 	0.9657	0.1803	0.291	-0.029
Mof_C 	C 	0.8965	0.1415	0.2943	-0.191
Mof_H 	H 	0.8997	0.1229	0.2629	0.085
Mof_C 	C 	0.8502	0.1387	0.3253	0.127
Mof_H 	H 	0.8201	0.1221	0.3126	-0.036
Mof_C 	C 	0.8507	0.1603	0.3731	-0.246
Mof_H 	H 	0.8216	0.155	0.3948	0.099
Mof_C 	C 	0.8917	0.1898	0.3922	0.196
Mof_C 	C 	0.9285	0.2702	0.4994	0.314
Mof_C 	C 	0.8917	0.2454	0.5386	-0.796
Mof_H 	H 	0.8714	0.2184	0.5215	0.251
Mof_H 	H 	0.8684	0.2718	0.5524	0.257
Mof_H 	H 	0.9117	0.2301	0.5668	0.258
Mof_C 	C 	0.9617	0.3134	0.5127	-0.307
Mof_C 	C 	0.9767	0.3225	0.5638	0.228
Mof_H 	H 	0.9665	0.2989	0.59	-0.067
Mof_C 	C 	0.0068	0.3662	0.5775	-0.351
Mof_H 	H 	0.0149	0.3731	0.6126	0.135
Mof_C 	C 	0.0237	0.3975	0.5399	0.271
Mof_C 	C 	0.0115	0.3884	0.4872	-0.381
Mof_H 	H 	0.0238	0.4108	0.4609	0.159
Mof_C 	C 	0.9824	0.3477	0.4759	0.288
Mof_H 	H 	0.975	0.3412	0.4406	-0.094
Mof_Ag	Ag	0.387	0	0.25	0.609
Mof_Ag	Ag	0.113	6.18444e-33	0.75	0.608
Mof_Ag	Ag	0.613	0.5	0.25	0.622
Mof_Ag	Ag	0.887	0.5	0.75	0.626
Mof_Ag	Ag	0.25	0.387	-0	0.609
Mof_Ag	Ag	0.75	0.113	-0	0.608
Mof_Ag	Ag	0.25	0.613	0.5	0.622
Mof_Ag	Ag	0.75	0.887	0.5	0.626
Mof_Ag	Ag	-7.82564e-33	0.25	0.387	0.609
Mof_Ag	Ag	-8.85298e-33	0.75	0.113	0.608
Mof_Ag	Ag	0.5	0.25	0.613	0.622
Mof_Ag	Ag	0.5	0.75	0.887	0.626
Mof_N 	N 	0.556	0.944	0.056	-0.213
Mof_N 	N 	0.056	0.444	0.556	-0.218
Mof_N 	N 	0.944	0.056	0.556	-0.213
Mof_N 	N 	0.444	0.556	0.056	-0.218
Mof_N 	N 	0.444	0.444	0.444	-0.213
Mof_N 	N 	0.944	0.944	0.944	-0.197
Mof_N 	N 	0.056	0.556	0.944	-0.213
Mof_N 	N 	0.556	0.056	0.444	-0.218
_end
