data_functionalizedCrystal
_audit_creation_method	'EQeq! by Chris Wilmer'
_symmetry_space_group_name_H-M	'P1'
_symmetry_Int_Tables_number	1
_symmetry_cell_setting	triclinic
loop_
_symmetry_equiv_pos_as_xyz
  x,y,z
_cell_length_a	10.8542
_cell_length_b	13.5021
_cell_length_c	14.4512
_cell_angle_alpha	76.3767
_cell_angle_beta	67.942
_cell_angle_gamma	66.3003
loop_
_atom_site_label
_atom_site_type_symbol
_atom_site_fract_x
_atom_site_fract_y
_atom_site_fract_z
_atom_site_charge
Mof_Mn	Mn	0.86098	0.03794	0.11138	0.857
Mof_Mn	Mn	0.5103	0.46206	0.38862	0.873
Mof_Mn	Mn	0.13902	0.96206	0.88862	0.857
Mof_Mn	Mn	0.4897	0.53794	0.61138	0.873
Mof_Mn	Mn	0.78621	0.25	0.25	0.99
Mof_Mn	Mn	0.21379	0.75	0.75	0.99
Mof_H 	H 	0.2014	0.1801	0.8483	0.052
Mof_H 	H 	0.295	0.3122	0.7532	0.049
Mof_H 	H 	0.9559	0.5408	0.9074	0.049
Mof_H 	H 	0.8683	0.4078	0.0088	0.046
Mof_H 	H 	0.5507	0.159	0.4516	0.045
Mof_H 	H 	0.5785	0.8782	0.3838	0.049
Mof_H 	H 	0.7298	0.3199	0.6517	0.045
Mof_H 	H 	0.8604	0.1878	0.7468	0.055
Mof_H 	H 	0.9041	0.9592	0.5926	0.054
Mof_H 	H 	0.7849	0.0922	0.4912	0.04
Mof_H 	H 	0.6613	0.341	0.0484	0.044
Mof_H 	H 	0.3405	0.6218	0.1162	0.049
Mof_H 	H 	0.7986	0.8199	0.1517	0.052
Mof_H 	H 	0.705	0.6878	0.2468	0.049
Mof_H 	H 	0.0441	0.4592	0.0926	0.049
Mof_H 	H 	0.1317	0.5922	0.9912	0.046
Mof_H 	H 	0.4493	0.841	0.5484	0.045
Mof_H 	H 	0.4215	0.1218	0.6162	0.049
Mof_H 	H 	0.2702	0.6801	0.3483	0.045
Mof_H 	H 	0.1396	0.8122	0.2532	0.055
Mof_H 	H 	0.0959	0.0408	0.4074	0.054
Mof_H 	H 	0.2151	0.9078	0.5088	0.04
Mof_H 	H 	0.3387	0.659	0.9516	0.044
Mof_H 	H 	0.6595	0.3782	0.8838	0.049
Mof_C 	C 	0.96936	0.1948	0.00396	0.357
Mof_C 	C 	0.02615	0.28071	0.93919	-0.085
Mof_C 	C 	0.15316	0.25229	0.86159	-0.02
Mof_C 	C 	0.20821	0.33181	0.80377	-0.011
Mof_C 	C 	0.13535	0.43995	0.82055	-0.087
Mof_C 	C 	0.0068	0.46812	0.89648	-0.014
Mof_C 	C 	0.95334	0.38845	0.95667	-0.017
Mof_C 	C 	0.19895	0.52467	0.75943	0.382
Mof_C 	C 	0.66597	0.04414	0.29632	0.346
Mof_C 	C 	0.57851	0.02161	0.40177	-0.08
Mof_C 	C 	0.53068	0.095	0.47104	-0.021
Mof_C 	C 	0.54732	0.92709	0.43047	-0.017
Mof_C 	C 	0.66812	0.3052	0.49604	0.377
Mof_C 	C 	0.74605	0.21929	0.56081	-0.106
Mof_C 	C 	0.76704	0.24771	0.63841	-0.003
Mof_C 	C 	0.84379	0.16819	0.69623	-0.028
Mof_C 	C 	0.89585	0.06005	0.67945	-0.069
Mof_C 	C 	0.8714	0.03188	0.60352	-0.028
Mof_C 	C 	0.79846	0.11155	0.54333	-0.001
Mof_C 	C 	0.98305	0.97533	0.74057	0.363
Mof_C 	C 	0.50643	0.45586	0.20368	0.353
Mof_C 	C 	0.50189	0.47839	0.09823	-0.08
Mof_C 	C 	0.59672	0.405	0.02896	-0.022
Mof_C 	C 	0.40488	0.57291	0.06953	-0.017
Mof_C 	C 	0.03064	0.8052	0.99604	0.357
Mof_C 	C 	0.97385	0.71929	0.06081	-0.085
Mof_C 	C 	0.84684	0.74771	0.13841	-0.02
Mof_C 	C 	0.79179	0.66819	0.19623	-0.011
Mof_C 	C 	0.86465	0.56005	0.17945	-0.087
Mof_C 	C 	0.9932	0.53188	0.10352	-0.014
Mof_C 	C 	0.04666	0.61155	0.04333	-0.017
Mof_C 	C 	0.80105	0.47533	0.24057	0.382
Mof_C 	C 	0.33403	0.95586	0.70368	0.346
Mof_C 	C 	0.42149	0.97839	0.59823	-0.08
Mof_C 	C 	0.46932	0.905	0.52896	-0.021
Mof_C 	C 	0.45268	0.07291	0.56953	-0.017
Mof_C 	C 	0.33188	0.6948	0.50396	0.377
Mof_C 	C 	0.25395	0.78071	0.43919	-0.106
Mof_C 	C 	0.23296	0.75229	0.36159	-0.003
Mof_C 	C 	0.15621	0.83181	0.30377	-0.028
Mof_C 	C 	0.10415	0.93995	0.32055	-0.069
Mof_C 	C 	0.1286	0.96812	0.39648	-0.028
Mof_C 	C 	0.20154	0.88845	0.45667	-0.001
Mof_C 	C 	0.01695	0.02467	0.25943	0.363
Mof_C 	C 	0.49357	0.54414	0.79632	0.353
Mof_C 	C 	0.49811	0.52161	0.90177	-0.08
Mof_C 	C 	0.40328	0.595	0.97104	-0.022
Mof_C 	C 	0.59512	0.42709	0.93047	-0.017
Mof_O 	O 	0.01753	0.10138	0.97542	-0.424
Mof_O 	O 	0.8718	0.21568	0.08626	-0.414
Mof_O 	O 	0.1359	0.62048	0.78248	-0.387
Mof_O 	O 	0.31349	0.49099	0.69123	-0.39
Mof_O 	O 	0.68626	0.13311	0.26891	-0.406
Mof_O 	O 	0.71706	0.97227	0.23761	-0.358
Mof_O 	O 	0.59433	0.39862	0.52458	-0.438
Mof_O 	O 	0.67374	0.28432	0.41374	-0.419
Mof_O 	O 	0.03886	0.87952	0.71752	-0.382
Mof_O 	O 	0.99571	0.00901	0.80877	-0.378
Mof_O 	O 	0.58828	0.36689	0.23109	-0.408
Mof_O 	O 	0.42694	0.52773	0.26239	-0.365
Mof_O 	O 	0.98247	0.89862	0.02458	-0.424
Mof_O 	O 	0.1282	0.78432	0.91374	-0.414
Mof_O 	O 	0.8641	0.37952	0.21752	-0.387
Mof_O 	O 	0.68651	0.50901	0.30877	-0.39
Mof_O 	O 	0.31374	0.86689	0.73109	-0.406
Mof_O 	O 	0.28294	0.02773	0.76239	-0.358
Mof_O 	O 	0.40567	0.60138	0.47542	-0.438
Mof_O 	O 	0.32626	0.71568	0.58626	-0.419
Mof_O 	O 	0.96114	0.12048	0.28248	-0.382
Mof_O 	O 	0.00429	0.99099	0.19123	-0.378
Mof_O 	O 	0.41172	0.63311	0.76891	-0.408
Mof_O 	O 	0.57306	0.47227	0.73761	-0.365
_end
