data_functionalizedCrystal
_audit_creation_method	'EQeq! by Chris Wilmer'
_symmetry_space_group_name_H-M	'P1'
_symmetry_Int_Tables_number	1
_symmetry_cell_setting	triclinic
loop_
_symmetry_equiv_pos_as_xyz
  x,y,z
_cell_length_a	6.9059
_cell_length_b	9.989
_cell_length_c	11.0921
_cell_angle_alpha	116.761
_cell_angle_beta	104.274
_cell_angle_gamma	90
loop_
_atom_site_label
_atom_site_type_symbol
_atom_site_fract_x
_atom_site_fract_y
_atom_site_fract_z
_atom_site_charge
Mof_Nd	Nd	0.44236	0.9085	0.29621	2.099
Mof_Nd	Nd	0.94236	0.38771	0.29621	2.03
Mof_H 	H 	0.4597	0.6789	0.6828	-0.005
Mof_H 	H 	0.6332	0.8522	0.9094	0.082
Mof_H 	H 	0.53	0.1887	0.8048	0.05
Mof_H 	H 	0.1876	0.179	0.6374	0.143
Mof_H 	H 	0.3903	0.2474	0.6336	0.105
Mof_H 	H 	0.9597	0.0039	0.6828	0.195
Mof_H 	H 	0.1332	0.0572	0.9094	0.08
Mof_H 	H 	0.03	0.6161	0.8048	0.032
Mof_H 	H 	0.6876	0.4584	0.6374	0.076
Mof_H 	H 	0.8903	0.3862	0.6336	0.041
Mof_C 	C 	0.4258	0.9794	0.6424	0.033
Mof_C 	C 	0.404	0.8254	0.6024	-0.185
Mof_C 	C 	0.478	0.7808	0.7062	0.119
Mof_C 	C 	0.5779	0.8843	0.843	-0.242
Mof_C 	C 	0.5942	0.0375	0.8796	0.12
Mof_C 	C 	0.5186	0.0862	0.7798	-0.034
Mof_C 	C 	0.2785	0.1667	0.58	-0.231
Mof_C 	C 	0.169	0.1707	0.4452	0.471
Mof_C 	C 	0.298	0.7042	0.4548	0.488
Mof_C 	C 	0.7022	0.1555	0.0264	0.247
Mof_C 	C 	0.9258	0.663	0.6424	-0.044
Mof_C 	C 	0.904	0.777	0.6024	-0.038
Mof_C 	C 	0.978	0.9254	0.7062	-0.409
Mof_C 	C 	0.0779	0.9587	0.843	0.141
Mof_C 	C 	0.0942	0.8421	0.8796	-0.113
Mof_C 	C 	0.0186	0.6936	0.7798	0.147
Mof_C 	C 	0.7785	0.4133	0.58	-0.188
Mof_C 	C 	0.669	0.2745	0.4452	0.436
Mof_C 	C 	0.798	0.7506	0.4548	0.415
Mof_C 	C 	0.2022	0.8709	0.0264	0.313
Mof_O 	O 	0.3503	0.0219	0.539	-0.186
Mof_O 	O 	0.1565	0.05462	0.33064	-0.419
Mof_O 	O 	0.1002	0.28898	0.45916	-0.441
Mof_O 	O 	0.2846	0.73141	0.35122	-0.537
Mof_O 	O 	0.2257	0.58229	0.44158	-0.489
Mof_O 	O 	0.8365	0.11875	0.1023	-0.454
Mof_O 	O 	0.6598	0.2883	0.07	-0.453
Mof_O 	O 	0.8503	0.5171	0.539	-0.291
Mof_O 	O 	0.6565	0.27602	0.33064	-0.49
Mof_O 	O 	0.6002	0.17018	0.45916	-0.501
Mof_O 	O 	0.7846	0.61981	0.35122	-0.555
Mof_O 	O 	0.7257	0.85929	0.44158	-0.594
Mof_O 	O 	0.3365	0.98355	0.1023	-0.508
Mof_O 	O 	0.1598	0.7817	0.07	-0.456
_end
