data_functionalizedCrystal
_audit_creation_method	'EQeq! by Chris Wilmer'
_symmetry_space_group_name_H-M	'P1'
_symmetry_Int_Tables_number	1
_symmetry_cell_setting	triclinic
loop_
_symmetry_equiv_pos_as_xyz
  x,y,z
_cell_length_a	5.3262
_cell_length_b	6.2885
_cell_length_c	8.1008
_cell_angle_alpha	97.733
_cell_angle_beta	105.055
_cell_angle_gamma	110.436
loop_
_atom_site_label
_atom_site_type_symbol
_atom_site_fract_x
_atom_site_fract_y
_atom_site_fract_z
_atom_site_charge
Mof_Cd	Cd	2.98804e-17	0.5	-0	0.286
Mof_H 	H 	0.3371	0.5573	0.4212	0.1
Mof_H 	H 	0.9852	0.0323	0.4985	0.111
Mof_C 	C 	0.4981	0.7749	0.6599	0.126
Mof_C 	C 	0.7057	0.6818	0.7493	0.242
Mof_C 	C 	0.324	0.6836	0.4921	-0.166
Mof_C 	C 	0.1172	0.7737	0.4174	0.178
Mof_C 	C 	0.1167	0.9642	0.5369	-0.118
Mof_C 	C 	0.3017	0.0471	0.7033	0.033
Mof_C 	C 	0.3137	0.2438	0.8392	0.277
Mof_O 	O 	0.495	0.9595	0.7669	-0.128
Mof_O 	O 	0.8626	0.7848	0.9073	-0.132
Mof_O 	O 	0.7025	0.5005	0.664	-0.193
Mof_O 	O 	0.9507	0.691	0.2623	-0.188
Mof_O 	O 	0.5237	0.3306	0.9773	-0.178
Mof_O 	O 	0.1042	0.2957	0.7984	-0.25
_end
