data_functionalizedCrystal
_audit_creation_method	'EQeq! by Chris Wilmer'
_symmetry_space_group_name_H-M	'P1'
_symmetry_Int_Tables_number	1
_symmetry_cell_setting	triclinic
loop_
_symmetry_equiv_pos_as_xyz
  x,y,z
_cell_length_a	26.388
_cell_length_b	29.72
_cell_length_c	29.72
_cell_angle_alpha	120
_cell_angle_beta	90
_cell_angle_gamma	90
loop_
_atom_site_label
_atom_site_type_symbol
_atom_site_fract_x
_atom_site_fract_y
_atom_site_fract_z
_atom_site_charge
Mof_Cr	Cr	0.75	4.50573e-17	0.5837	2.652
Mof_Cr	Cr	0.75	0.5837	-0	2.651
Mof_Cr	Cr	0.75	0.4163	0.4163	2.986
Mof_Cr	Cr	0.25	4.50573e-17	0.4163	2.648
Mof_Cr	Cr	0.25	0.4163	-0	2.648
Mof_Cr	Cr	0.25	0.5837	0.5837	2.983
Mof_Cr	Cr	0.688	0	0.6781	2.215
Mof_Cr	Cr	0.688	0.6781	-0	2.215
Mof_Cr	Cr	0.688	0.3219	0.3219	2.487
Mof_Cr	Cr	0.188	4.50573e-17	0.3219	2.201
Mof_Cr	Cr	0.188	0.3219	-0	2.201
Mof_Cr	Cr	0.188	0.6781	0.6781	2.502
Mof_Cr	Cr	0.812	0.3219	0.3219	2.493
Mof_Cr	Cr	0.812	0.6781	-0	2.221
Mof_Cr	Cr	0.812	0	0.6781	2.221
Mof_Cr	Cr	0.312	0.6781	0.6781	2.507
Mof_Cr	Cr	0.312	0.3219	-0	2.205
Mof_Cr	Cr	0.312	4.50573e-17	0.3219	2.205
Mof_Cu	Cu	0.5	0.76346	0.38173	0.923
Mof_Cu	Cu	0.5	0.61827	0.23654	0.921
Mof_Cu	Cu	0.5	0.61827	0.38173	0.922
Mof_Cu	Cu	-2.00095e-32	0.23654	0.61827	0.907
Mof_Cu	Cu	-5.00237e-33	0.38173	0.76346	0.91
Mof_Cu	Cu	-1.00047e-32	0.38173	0.61827	0.908
Mof_Cu	Cu	0.5	0.23654	0.61827	0.921
Mof_Cu	Cu	0.5	0.38173	0.76346	0.923
Mof_Cu	Cu	0.5	0.38173	0.61827	0.922
Mof_Cu	Cu	-7.50355e-33	0.76346	0.38173	0.91
Mof_Cu	Cu	-1.25059e-32	0.61827	0.23654	0.907
Mof_Cu	Cu	-7.50355e-33	0.61827	0.38173	0.908
Mof_H 	H 	0.5531	0.7339	0.4327	0.155
Mof_H 	H 	0.5857	0.7314	0.3909	0.129
Mof_H 	H 	0.6373	0.8054	0.4055	0.151
Mof_H 	H 	0.5954	0.8756	0.5768	-0.034
Mof_H 	H 	0.5508	0.8036	0.5156	0.169
Mof_H 	H 	0.6729	0.8848	0.4655	-0.035
Mof_H 	H 	0.6737	0.7853	0.6737	0.112
Mof_H 	H 	0.6736	0.8684	0.6838	0.01
Mof_H 	H 	0.7789	0.7096	0.6644	0.137
Mof_H 	H 	0.5531	0.6988	0.2661	0.155
Mof_H 	H 	0.5857	0.6595	0.2686	0.129
Mof_H 	H 	0.6373	0.6001	0.1946	0.151
Mof_H 	H 	0.5954	0.7012	0.1244	-0.054
Mof_H 	H 	0.5508	0.712	0.1964	0.169
Mof_H 	H 	0.6729	0.5807	0.1152	-0.059
Mof_H 	H 	0.6737	0.8884	0.2147	0.12
Mof_H 	H 	0.6736	0.8154	0.1316	-0.007
Mof_H 	H 	0.7789	0.9548	0.2904	0.165
Mof_H 	H 	0.5531	0.5673	0.3012	0.155
Mof_H 	H 	0.5857	0.6091	0.3405	0.129
Mof_H 	H 	0.6373	0.5945	0.3999	0.156
Mof_H 	H 	0.5954	0.4232	0.2988	-0.059
Mof_H 	H 	0.5508	0.4844	0.288	0.17
Mof_H 	H 	0.6729	0.5345	0.4193	-0.057
Mof_H 	H 	0.6737	0.3263	0.1116	0.091
Mof_H 	H 	0.6736	0.3162	0.1846	-0.01
Mof_H 	H 	0.7789	0.3356	0.0452	0.102
Mof_H 	H 	0.0531	0.2661	0.5673	0.151
Mof_H 	H 	0.0857	0.2686	0.6091	0.129
Mof_H 	H 	0.1373	0.1946	0.5945	0.15
Mof_H 	H 	0.0954	0.1244	0.4232	-0.061
Mof_H 	H 	0.0508	0.1964	0.4844	0.158
Mof_H 	H 	0.1729	0.1152	0.5345	-0.06
Mof_H 	H 	0.1737	0.2147	0.3263	0.097
Mof_H 	H 	0.1736	0.1316	0.3162	-0.014
Mof_H 	H 	0.2789	0.2904	0.3356	0.128
Mof_H 	H 	0.0531	0.3012	0.7339	0.15
Mof_H 	H 	0.0857	0.3405	0.7314	0.129
Mof_H 	H 	0.1373	0.3999	0.8054	0.15
Mof_H 	H 	0.0954	0.2988	0.8756	-0.041
Mof_H 	H 	0.0508	0.288	0.8036	0.158
Mof_H 	H 	0.1729	0.4193	0.8848	-0.036
Mof_H 	H 	0.1737	0.1116	0.7853	0.09
Mof_H 	H 	0.1736	0.1846	0.8684	0.004
Mof_H 	H 	0.2789	0.0452	0.7096	0.102
Mof_H 	H 	0.0531	0.4327	0.6988	0.151
Mof_H 	H 	0.0857	0.3909	0.6595	0.13
Mof_H 	H 	0.1373	0.4055	0.6001	0.155
Mof_H 	H 	0.0954	0.5768	0.7012	-0.054
Mof_H 	H 	0.0508	0.5156	0.712	0.166
Mof_H 	H 	0.1729	0.4655	0.5807	-0.057
Mof_H 	H 	0.1737	0.6737	0.8884	0.124
Mof_H 	H 	0.1736	0.6838	0.8154	-0.003
Mof_H 	H 	0.2789	0.6644	0.9548	0.166
Mof_H 	H 	0.9469	0.3012	0.5673	0.162
Mof_H 	H 	0.9143	0.3405	0.6091	0.132
Mof_H 	H 	0.8627	0.3999	0.5945	0.158
Mof_H 	H 	0.9046	0.2988	0.4232	-0.055
Mof_H 	H 	0.9492	0.288	0.4844	0.179
Mof_H 	H 	0.8271	0.4193	0.5345	-0.056
Mof_H 	H 	0.8263	0.1116	0.3263	0.094
Mof_H 	H 	0.8264	0.1846	0.3162	-0.007
Mof_H 	H 	0.7211	0.0452	0.3356	0.1
Mof_H 	H 	0.9469	0.4327	0.7339	0.162
Mof_H 	H 	0.9143	0.3909	0.7314	0.132
Mof_H 	H 	0.8627	0.4055	0.8054	0.152
Mof_H 	H 	0.9046	0.5768	0.8756	-0.031
Mof_H 	H 	0.9492	0.5156	0.8036	0.178
Mof_H 	H 	0.8271	0.4655	0.8848	-0.035
Mof_H 	H 	0.8263	0.6737	0.7853	0.115
Mof_H 	H 	0.8264	0.6838	0.8684	0.013
Mof_H 	H 	0.7211	0.6644	0.7096	0.136
Mof_H 	H 	0.9469	0.2661	0.6988	0.163
Mof_H 	H 	0.9143	0.2686	0.6595	0.132
Mof_H 	H 	0.8627	0.1946	0.6001	0.153
Mof_H 	H 	0.9046	0.1244	0.7012	-0.051
Mof_H 	H 	0.9492	0.1964	0.712	0.178
Mof_H 	H 	0.8271	0.1152	0.5807	-0.059
Mof_H 	H 	0.8263	0.2147	0.8884	0.123
Mof_H 	H 	0.8264	0.1316	0.8154	-0.004
Mof_H 	H 	0.7211	0.2904	0.9548	0.164
Mof_H 	H 	0.4469	0.6988	0.4327	0.155
Mof_H 	H 	0.4143	0.6595	0.3909	0.129
Mof_H 	H 	0.3627	0.6001	0.4055	0.155
Mof_H 	H 	0.4046	0.7012	0.5768	-0.051
Mof_H 	H 	0.4492	0.712	0.5156	0.175
Mof_H 	H 	0.3271	0.5807	0.4655	-0.057
Mof_H 	H 	0.3263	0.8884	0.6737	0.127
Mof_H 	H 	0.3264	0.8154	0.6838	-0.001
Mof_H 	H 	0.2211	0.9548	0.6644	0.164
Mof_H 	H 	0.4469	0.5673	0.2661	0.155
Mof_H 	H 	0.4143	0.6091	0.2686	0.129
Mof_H 	H 	0.3627	0.5945	0.1946	0.151
Mof_H 	H 	0.4046	0.4232	0.1244	-0.058
Mof_H 	H 	0.4492	0.4844	0.1964	0.167
Mof_H 	H 	0.3271	0.5345	0.1152	-0.06
Mof_H 	H 	0.3263	0.3263	0.2147	0.1
Mof_H 	H 	0.3264	0.3162	0.1316	-0.011
Mof_H 	H 	0.2211	0.3356	0.2904	0.126
Mof_H 	H 	0.4469	0.7339	0.3012	0.154
Mof_H 	H 	0.4143	0.7314	0.3405	0.128
Mof_H 	H 	0.3627	0.8054	0.3999	0.151
Mof_H 	H 	0.4046	0.8756	0.2988	-0.037
Mof_H 	H 	0.4492	0.8036	0.288	0.167
Mof_H 	H 	0.3271	0.8848	0.4193	-0.036
Mof_H 	H 	0.3263	0.7853	0.1116	0.093
Mof_H 	H 	0.3264	0.8684	0.1846	0.006
Mof_H 	H 	0.2211	0.7096	0.0452	0.101
Mof_H 	H 	0.4469	0.2661	0.5673	0.155
Mof_H 	H 	0.4143	0.2686	0.6091	0.129
Mof_H 	H 	0.3627	0.1946	0.5945	0.151
Mof_H 	H 	0.4046	0.1244	0.4232	-0.058
Mof_H 	H 	0.4492	0.1964	0.4844	0.167
Mof_H 	H 	0.3271	0.1152	0.5345	-0.06
Mof_H 	H 	0.3263	0.2147	0.3263	0.1
Mof_H 	H 	0.3264	0.1316	0.3162	-0.011
Mof_H 	H 	0.2211	0.2904	0.3356	0.126
Mof_H 	H 	0.4469	0.3012	0.7339	0.154
Mof_H 	H 	0.4143	0.3405	0.7314	0.128
Mof_H 	H 	0.3627	0.3999	0.8054	0.151
Mof_H 	H 	0.4046	0.2988	0.8756	-0.037
Mof_H 	H 	0.4492	0.288	0.8036	0.167
Mof_H 	H 	0.3271	0.4193	0.8848	-0.036
Mof_H 	H 	0.3263	0.1116	0.7853	0.093
Mof_H 	H 	0.3264	0.1846	0.8684	0.006
Mof_H 	H 	0.2211	0.0452	0.7096	0.101
Mof_H 	H 	0.4469	0.4327	0.6988	0.155
Mof_H 	H 	0.4143	0.3909	0.6595	0.129
Mof_H 	H 	0.3627	0.4055	0.6001	0.155
Mof_H 	H 	0.4046	0.5768	0.7012	-0.051
Mof_H 	H 	0.4492	0.5156	0.712	0.175
Mof_H 	H 	0.3271	0.4655	0.5807	-0.057
Mof_H 	H 	0.3263	0.6737	0.8884	0.127
Mof_H 	H 	0.3264	0.6838	0.8154	-0.001
Mof_H 	H 	0.2211	0.6644	0.9548	0.164
Mof_H 	H 	0.9469	0.7339	0.4327	0.162
Mof_H 	H 	0.9143	0.7314	0.3909	0.132
Mof_H 	H 	0.8627	0.8054	0.4055	0.152
Mof_H 	H 	0.9046	0.8756	0.5768	-0.031
Mof_H 	H 	0.9492	0.8036	0.5156	0.178
Mof_H 	H 	0.8271	0.8848	0.4655	-0.035
Mof_H 	H 	0.8263	0.7853	0.6737	0.115
Mof_H 	H 	0.8264	0.8684	0.6838	0.013
Mof_H 	H 	0.7211	0.7096	0.6644	0.136
Mof_H 	H 	0.9469	0.6988	0.2661	0.163
Mof_H 	H 	0.9143	0.6595	0.2686	0.132
Mof_H 	H 	0.8627	0.6001	0.1946	0.153
Mof_H 	H 	0.9046	0.7012	0.1244	-0.051
Mof_H 	H 	0.9492	0.712	0.1964	0.178
Mof_H 	H 	0.8271	0.5807	0.1152	-0.059
Mof_H 	H 	0.8263	0.8884	0.2147	0.123
Mof_H 	H 	0.8264	0.8154	0.1316	-0.004
Mof_H 	H 	0.7211	0.9548	0.2904	0.164
Mof_H 	H 	0.9469	0.5673	0.3012	0.162
Mof_H 	H 	0.9143	0.6091	0.3405	0.132
Mof_H 	H 	0.8627	0.5945	0.3999	0.158
Mof_H 	H 	0.9046	0.4232	0.2988	-0.055
Mof_H 	H 	0.9492	0.4844	0.288	0.179
Mof_H 	H 	0.8271	0.5345	0.4193	-0.056
Mof_H 	H 	0.8263	0.3263	0.1116	0.094
Mof_H 	H 	0.8264	0.3162	0.1846	-0.007
Mof_H 	H 	0.7211	0.3356	0.0452	0.1
Mof_H 	H 	0.0531	0.6988	0.4327	0.151
Mof_H 	H 	0.0857	0.6595	0.3909	0.13
Mof_H 	H 	0.1373	0.6001	0.4055	0.155
Mof_H 	H 	0.0954	0.7012	0.5768	-0.054
Mof_H 	H 	0.0508	0.712	0.5156	0.166
Mof_H 	H 	0.1729	0.5807	0.4655	-0.057
Mof_H 	H 	0.1737	0.8884	0.6737	0.124
Mof_H 	H 	0.1736	0.8154	0.6838	-0.003
Mof_H 	H 	0.2789	0.9548	0.6644	0.166
Mof_H 	H 	0.0531	0.5673	0.2661	0.151
Mof_H 	H 	0.0857	0.6091	0.2686	0.129
Mof_H 	H 	0.1373	0.5945	0.1946	0.15
Mof_H 	H 	0.0954	0.4232	0.1244	-0.061
Mof_H 	H 	0.0508	0.4844	0.1964	0.158
Mof_H 	H 	0.1729	0.5345	0.1152	-0.06
Mof_H 	H 	0.1737	0.3263	0.2147	0.097
Mof_H 	H 	0.1736	0.3162	0.1316	-0.014
Mof_H 	H 	0.2789	0.3356	0.2904	0.128
Mof_H 	H 	0.0531	0.7339	0.3012	0.15
Mof_H 	H 	0.0857	0.7314	0.3405	0.129
Mof_H 	H 	0.1373	0.8054	0.3999	0.15
Mof_H 	H 	0.0954	0.8756	0.2988	-0.041
Mof_H 	H 	0.0508	0.8036	0.288	0.158
Mof_H 	H 	0.1729	0.8848	0.4193	-0.036
Mof_H 	H 	0.1737	0.7853	0.1116	0.09
Mof_H 	H 	0.1736	0.8684	0.1846	0.004
Mof_H 	H 	0.2789	0.7096	0.0452	0.102
Mof_H 	H 	0.5531	0.3012	0.5673	0.155
Mof_H 	H 	0.5857	0.3405	0.6091	0.129
Mof_H 	H 	0.6373	0.3999	0.5945	0.156
Mof_H 	H 	0.5954	0.2988	0.4232	-0.059
Mof_H 	H 	0.5508	0.288	0.4844	0.17
Mof_H 	H 	0.6729	0.4193	0.5345	-0.057
Mof_H 	H 	0.6737	0.1116	0.3263	0.091
Mof_H 	H 	0.6736	0.1846	0.3162	-0.01
Mof_H 	H 	0.7789	0.0452	0.3356	0.102
Mof_H 	H 	0.5531	0.4327	0.7339	0.155
Mof_H 	H 	0.5857	0.3909	0.7314	0.129
Mof_H 	H 	0.6373	0.4055	0.8054	0.151
Mof_H 	H 	0.5954	0.5768	0.8756	-0.034
Mof_H 	H 	0.5508	0.5156	0.8036	0.169
Mof_H 	H 	0.6729	0.4655	0.8848	-0.035
Mof_H 	H 	0.6737	0.6737	0.7853	0.112
Mof_H 	H 	0.6736	0.6838	0.8684	0.01
Mof_H 	H 	0.7789	0.6644	0.7096	0.137
Mof_H 	H 	0.5531	0.2661	0.6988	0.155
Mof_H 	H 	0.5857	0.2686	0.6595	0.129
Mof_H 	H 	0.6373	0.1946	0.6001	0.151
Mof_H 	H 	0.5954	0.1244	0.7012	-0.054
Mof_H 	H 	0.5508	0.1964	0.712	0.169
Mof_H 	H 	0.6729	0.1152	0.5807	-0.059
Mof_H 	H 	0.6737	0.2147	0.8884	0.12
Mof_H 	H 	0.6736	0.1316	0.8154	-0.007
Mof_H 	H 	0.7789	0.2904	0.9548	0.165
Mof_C 	C 	0.5893	0.7996	0.4547	0.263
Mof_C 	C 	0.6271	0.8218	0.4409	-0.316
Mof_C 	C 	0.6413	0.8842	0.5279	-0.35
Mof_C 	C 	0.6035	0.8613	0.5411	0.267
Mof_C 	C 	0.5767	0.8188	0.5054	-0.319
Mof_C 	C 	0.6509	0.8666	0.4761	0.267
Mof_C 	C 	0.6697	0.9299	0.5682	0.742
Mof_C 	C 	0.7048	0.8024	0.6758	-0.221
Mof_C 	C 	0.705	0.8518	0.6818	0.142
Mof_C 	C 	0.5893	0.6551	0.2004	0.269
Mof_C 	C 	0.6271	0.6191	0.1782	-0.335
Mof_C 	C 	0.6413	0.6437	0.1158	-0.382
Mof_C 	C 	0.6035	0.6798	0.1387	0.28
Mof_C 	C 	0.5767	0.6866	0.1812	-0.338
Mof_C 	C 	0.6509	0.6095	0.1334	0.28
Mof_C 	C 	0.6697	0.6383	0.0701	0.755
Mof_C 	C 	0.7048	0.8734	0.1976	-0.241
Mof_C 	C 	0.705	0.83	0.1482	0.156
Mof_C 	C 	0.5893	0.5453	0.3449	0.276
Mof_C 	C 	0.6271	0.5591	0.3809	-0.342
Mof_C 	C 	0.6413	0.4721	0.3563	-0.399
Mof_C 	C 	0.6035	0.4589	0.3202	0.295
Mof_C 	C 	0.5767	0.4946	0.3134	-0.347
Mof_C 	C 	0.6509	0.5239	0.3905	0.296
Mof_C 	C 	0.6697	0.4318	0.3617	0.804
Mof_C 	C 	0.7048	0.3242	0.1266	-0.228
Mof_C 	C 	0.705	0.3182	0.17	0.138
Mof_C 	C 	0.0893	0.2004	0.5453	0.264
Mof_C 	C 	0.1271	0.1782	0.5591	-0.335
Mof_C 	C 	0.1413	0.1158	0.4721	-0.383
Mof_C 	C 	0.1035	0.1387	0.4589	0.276
Mof_C 	C 	0.0767	0.1812	0.4946	-0.339
Mof_C 	C 	0.1509	0.1334	0.5239	0.278
Mof_C 	C 	0.1697	0.0701	0.4318	0.754
Mof_C 	C 	0.2048	0.1976	0.3242	-0.233
Mof_C 	C 	0.205	0.1482	0.3182	0.139
Mof_C 	C 	0.0893	0.3449	0.7996	0.258
Mof_C 	C 	0.1271	0.3809	0.8218	-0.315
Mof_C 	C 	0.1413	0.3563	0.8842	-0.352
Mof_C 	C 	0.1035	0.3202	0.8613	0.264
Mof_C 	C 	0.0767	0.3134	0.8188	-0.32
Mof_C 	C 	0.1509	0.3905	0.8666	0.265
Mof_C 	C 	0.1697	0.3617	0.9299	0.741
Mof_C 	C 	0.2048	0.1266	0.8024	-0.214
Mof_C 	C 	0.205	0.17	0.8518	0.126
Mof_C 	C 	0.0893	0.4547	0.6551	0.271
Mof_C 	C 	0.1271	0.4409	0.6191	-0.34
Mof_C 	C 	0.1413	0.5279	0.6437	-0.396
Mof_C 	C 	0.1035	0.5411	0.6798	0.291
Mof_C 	C 	0.0767	0.5054	0.6866	-0.343
Mof_C 	C 	0.1509	0.4761	0.6095	0.292
Mof_C 	C 	0.1697	0.5682	0.6383	0.802
Mof_C 	C 	0.2048	0.6758	0.8734	-0.243
Mof_C 	C 	0.205	0.6818	0.83	0.165
Mof_C 	C 	0.9107	0.3449	0.5453	0.283
Mof_C 	C 	0.8729	0.3809	0.5591	-0.344
Mof_C 	C 	0.8587	0.3563	0.4721	-0.398
Mof_C 	C 	0.8965	0.3202	0.4589	0.3
Mof_C 	C 	0.9233	0.3134	0.4946	-0.348
Mof_C 	C 	0.8491	0.3905	0.5239	0.299
Mof_C 	C 	0.8303	0.3617	0.4318	0.805
Mof_C 	C 	0.7952	0.1266	0.3242	-0.228
Mof_C 	C 	0.795	0.17	0.3182	0.138
Mof_C 	C 	0.9107	0.4547	0.7996	0.269
Mof_C 	C 	0.8729	0.4409	0.8218	-0.317
Mof_C 	C 	0.8587	0.5279	0.8842	-0.35
Mof_C 	C 	0.8965	0.5411	0.8613	0.272
Mof_C 	C 	0.9233	0.5054	0.8188	-0.32
Mof_C 	C 	0.8491	0.4761	0.8666	0.27
Mof_C 	C 	0.8303	0.5682	0.9299	0.744
Mof_C 	C 	0.7952	0.6758	0.8024	-0.221
Mof_C 	C 	0.795	0.6818	0.8518	0.143
Mof_C 	C 	0.9107	0.2004	0.6551	0.276
Mof_C 	C 	0.8729	0.1782	0.6191	-0.336
Mof_C 	C 	0.8587	0.1158	0.6437	-0.382
Mof_C 	C 	0.8965	0.1387	0.6798	0.284
Mof_C 	C 	0.9233	0.1812	0.6866	-0.339
Mof_C 	C 	0.8491	0.1334	0.6095	0.283
Mof_C 	C 	0.8303	0.0701	0.6383	0.756
Mof_C 	C 	0.7952	0.1976	0.8734	-0.241
Mof_C 	C 	0.795	0.1482	0.83	0.156
Mof_C 	C 	0.4107	0.6551	0.4547	0.277
Mof_C 	C 	0.3729	0.6191	0.4409	-0.341
Mof_C 	C 	0.3587	0.6437	0.5279	-0.396
Mof_C 	C 	0.3965	0.6798	0.5411	0.295
Mof_C 	C 	0.4233	0.6866	0.5054	-0.344
Mof_C 	C 	0.3491	0.6095	0.4761	0.295
Mof_C 	C 	0.3303	0.6383	0.5682	0.804
Mof_C 	C 	0.2952	0.8734	0.6758	-0.242
Mof_C 	C 	0.295	0.83	0.6818	0.166
Mof_C 	C 	0.4107	0.5453	0.2004	0.269
Mof_C 	C 	0.3729	0.5591	0.1782	-0.336
Mof_C 	C 	0.3587	0.4721	0.1158	-0.383
Mof_C 	C 	0.3965	0.4589	0.1387	0.28
Mof_C 	C 	0.4233	0.4946	0.1812	-0.34
Mof_C 	C 	0.3491	0.5239	0.1334	0.281
Mof_C 	C 	0.3303	0.4318	0.0701	0.755
Mof_C 	C 	0.2952	0.3242	0.1976	-0.233
Mof_C 	C 	0.295	0.3182	0.1482	0.139
Mof_C 	C 	0.4107	0.7996	0.3449	0.263
Mof_C 	C 	0.3729	0.8218	0.3809	-0.316
Mof_C 	C 	0.3587	0.8842	0.3563	-0.352
Mof_C 	C 	0.3965	0.8613	0.3202	0.268
Mof_C 	C 	0.4233	0.8188	0.3134	-0.32
Mof_C 	C 	0.3491	0.8666	0.3905	0.268
Mof_C 	C 	0.3303	0.9299	0.3617	0.742
Mof_C 	C 	0.2952	0.8024	0.1266	-0.214
Mof_C 	C 	0.295	0.8518	0.17	0.127
Mof_C 	C 	0.4107	0.2004	0.5453	0.269
Mof_C 	C 	0.3729	0.1782	0.5591	-0.336
Mof_C 	C 	0.3587	0.1158	0.4721	-0.383
Mof_C 	C 	0.3965	0.1387	0.4589	0.28
Mof_C 	C 	0.4233	0.1812	0.4946	-0.34
Mof_C 	C 	0.3491	0.1334	0.5239	0.281
Mof_C 	C 	0.3303	0.0701	0.4318	0.755
Mof_C 	C 	0.2952	0.1976	0.3242	-0.233
Mof_C 	C 	0.295	0.1482	0.3182	0.139
Mof_C 	C 	0.4107	0.3449	0.7996	0.263
Mof_C 	C 	0.3729	0.3809	0.8218	-0.316
Mof_C 	C 	0.3587	0.3563	0.8842	-0.352
Mof_C 	C 	0.3965	0.3202	0.8613	0.268
Mof_C 	C 	0.4233	0.3134	0.8188	-0.32
Mof_C 	C 	0.3491	0.3905	0.8666	0.268
Mof_C 	C 	0.3303	0.3617	0.9299	0.742
Mof_C 	C 	0.2952	0.1266	0.8024	-0.214
Mof_C 	C 	0.295	0.17	0.8518	0.127
Mof_C 	C 	0.4107	0.4547	0.6551	0.277
Mof_C 	C 	0.3729	0.4409	0.6191	-0.341
Mof_C 	C 	0.3587	0.5279	0.6437	-0.396
Mof_C 	C 	0.3965	0.5411	0.6798	0.295
Mof_C 	C 	0.4233	0.5054	0.6866	-0.344
Mof_C 	C 	0.3491	0.4761	0.6095	0.295
Mof_C 	C 	0.3303	0.5682	0.6383	0.804
Mof_C 	C 	0.2952	0.6758	0.8734	-0.242
Mof_C 	C 	0.295	0.6818	0.83	0.166
Mof_C 	C 	0.9107	0.7996	0.4547	0.269
Mof_C 	C 	0.8729	0.8218	0.4409	-0.317
Mof_C 	C 	0.8587	0.8842	0.5279	-0.35
Mof_C 	C 	0.8965	0.8613	0.5411	0.272
Mof_C 	C 	0.9233	0.8188	0.5054	-0.32
Mof_C 	C 	0.8491	0.8666	0.4761	0.27
Mof_C 	C 	0.8303	0.9299	0.5682	0.744
Mof_C 	C 	0.7952	0.8024	0.6758	-0.221
Mof_C 	C 	0.795	0.8518	0.6818	0.143
Mof_C 	C 	0.9107	0.6551	0.2004	0.276
Mof_C 	C 	0.8729	0.6191	0.1782	-0.336
Mof_C 	C 	0.8587	0.6437	0.1158	-0.382
Mof_C 	C 	0.8965	0.6798	0.1387	0.284
Mof_C 	C 	0.9233	0.6866	0.1812	-0.339
Mof_C 	C 	0.8491	0.6095	0.1334	0.283
Mof_C 	C 	0.8303	0.6383	0.0701	0.756
Mof_C 	C 	0.7952	0.8734	0.1976	-0.241
Mof_C 	C 	0.795	0.83	0.1482	0.156
Mof_C 	C 	0.9107	0.5453	0.3449	0.283
Mof_C 	C 	0.8729	0.5591	0.3809	-0.344
Mof_C 	C 	0.8587	0.4721	0.3563	-0.398
Mof_C 	C 	0.8965	0.4589	0.3202	0.3
Mof_C 	C 	0.9233	0.4946	0.3134	-0.348
Mof_C 	C 	0.8491	0.5239	0.3905	0.299
Mof_C 	C 	0.8303	0.4318	0.3617	0.805
Mof_C 	C 	0.7952	0.3242	0.1266	-0.228
Mof_C 	C 	0.795	0.3182	0.17	0.138
Mof_C 	C 	0.0893	0.6551	0.4547	0.271
Mof_C 	C 	0.1271	0.6191	0.4409	-0.34
Mof_C 	C 	0.1413	0.6437	0.5279	-0.396
Mof_C 	C 	0.1035	0.6798	0.5411	0.291
Mof_C 	C 	0.0767	0.6866	0.5054	-0.343
Mof_C 	C 	0.1509	0.6095	0.4761	0.292
Mof_C 	C 	0.1697	0.6383	0.5682	0.802
Mof_C 	C 	0.2048	0.8734	0.6758	-0.243
Mof_C 	C 	0.205	0.83	0.6818	0.165
Mof_C 	C 	0.0893	0.5453	0.2004	0.264
Mof_C 	C 	0.1271	0.5591	0.1782	-0.335
Mof_C 	C 	0.1413	0.4721	0.1158	-0.383
Mof_C 	C 	0.1035	0.4589	0.1387	0.276
Mof_C 	C 	0.0767	0.4946	0.1812	-0.339
Mof_C 	C 	0.1509	0.5239	0.1334	0.278
Mof_C 	C 	0.1697	0.4318	0.0701	0.754
Mof_C 	C 	0.2048	0.3242	0.1976	-0.233
Mof_C 	C 	0.205	0.3182	0.1482	0.139
Mof_C 	C 	0.0893	0.7996	0.3449	0.258
Mof_C 	C 	0.1271	0.8218	0.3809	-0.315
Mof_C 	C 	0.1413	0.8842	0.3563	-0.352
Mof_C 	C 	0.1035	0.8613	0.3202	0.264
Mof_C 	C 	0.0767	0.8188	0.3134	-0.32
Mof_C 	C 	0.1509	0.8666	0.3905	0.265
Mof_C 	C 	0.1697	0.9299	0.3617	0.741
Mof_C 	C 	0.2048	0.8024	0.1266	-0.214
Mof_C 	C 	0.205	0.8518	0.17	0.126
Mof_C 	C 	0.5893	0.3449	0.5453	0.276
Mof_C 	C 	0.6271	0.3809	0.5591	-0.342
Mof_C 	C 	0.6413	0.3563	0.4721	-0.399
Mof_C 	C 	0.6035	0.3202	0.4589	0.295
Mof_C 	C 	0.5767	0.3134	0.4946	-0.347
Mof_C 	C 	0.6509	0.3905	0.5239	0.296
Mof_C 	C 	0.6697	0.3617	0.4318	0.804
Mof_C 	C 	0.7048	0.1266	0.3242	-0.228
Mof_C 	C 	0.705	0.17	0.3182	0.138
Mof_C 	C 	0.5893	0.4547	0.7996	0.263
Mof_C 	C 	0.6271	0.4409	0.8218	-0.316
Mof_C 	C 	0.6413	0.5279	0.8842	-0.35
Mof_C 	C 	0.6035	0.5411	0.8613	0.267
Mof_C 	C 	0.5767	0.5054	0.8188	-0.319
Mof_C 	C 	0.6509	0.4761	0.8666	0.267
Mof_C 	C 	0.6697	0.5682	0.9299	0.742
Mof_C 	C 	0.7048	0.6758	0.8024	-0.221
Mof_C 	C 	0.705	0.6818	0.8518	0.142
Mof_C 	C 	0.5893	0.2004	0.6551	0.269
Mof_C 	C 	0.6271	0.1782	0.6191	-0.335
Mof_C 	C 	0.6413	0.1158	0.6437	-0.382
Mof_C 	C 	0.6035	0.1387	0.6798	0.28
Mof_C 	C 	0.5767	0.1812	0.6866	-0.338
Mof_C 	C 	0.6509	0.1334	0.6095	0.28
Mof_C 	C 	0.6697	0.0701	0.6383	0.755
Mof_C 	C 	0.7048	0.1976	0.8734	-0.241
Mof_C 	C 	0.705	0.1482	0.83	0.156
Mof_C 	C 	0.75	0.931	0.6917	0.547
Mof_C 	C 	0.75	0.8776	0.6849	-0.199
Mof_C 	C 	0.75	0.7785	0.6729	0.205
Mof_C 	C 	0.75	0.7607	0.069	0.547
Mof_C 	C 	0.75	0.8073	0.1224	-0.222
Mof_C 	C 	0.75	0.8944	0.2215	0.225
Mof_C 	C 	0.75	0.3083	0.2393	0.573
Mof_C 	C 	0.75	0.3151	0.1927	-0.226
Mof_C 	C 	0.75	0.3271	0.1056	0.179
Mof_C 	C 	0.25	0.069	0.3083	0.541
Mof_C 	C 	0.25	0.1224	0.3151	-0.222
Mof_C 	C 	0.25	0.2215	0.3271	0.193
Mof_C 	C 	0.25	0.2393	0.931	0.541
Mof_C 	C 	0.25	0.1927	0.8776	-0.199
Mof_C 	C 	0.25	0.1056	0.7785	0.175
Mof_C 	C 	0.25	0.6917	0.7607	0.583
Mof_C 	C 	0.25	0.6849	0.8073	-0.228
Mof_C 	C 	0.25	0.6729	0.8944	0.23
Mof_C 	C 	0.75	0.2393	0.3083	0.573
Mof_C 	C 	0.75	0.1927	0.3151	-0.226
Mof_C 	C 	0.75	0.1056	0.3271	0.179
Mof_C 	C 	0.75	0.6917	0.931	0.547
Mof_C 	C 	0.75	0.6849	0.8776	-0.199
Mof_C 	C 	0.75	0.6729	0.7785	0.205
Mof_C 	C 	0.75	0.069	0.7607	0.547
Mof_C 	C 	0.75	0.1224	0.8073	-0.222
Mof_C 	C 	0.75	0.2215	0.8944	0.225
Mof_C 	C 	0.25	0.7607	0.6917	0.583
Mof_C 	C 	0.25	0.8073	0.6849	-0.228
Mof_C 	C 	0.25	0.8944	0.6729	0.23
Mof_C 	C 	0.25	0.3083	0.069	0.541
Mof_C 	C 	0.25	0.3151	0.1224	-0.222
Mof_C 	C 	0.25	0.3271	0.2215	0.193
Mof_C 	C 	0.25	0.931	0.2393	0.541
Mof_C 	C 	0.25	0.8776	0.1927	-0.199
Mof_C 	C 	0.25	0.7785	0.1056	0.175
Mof_N 	N 	0.563	0.7519	0.4165	-0.348
Mof_N 	N 	0.563	0.6646	0.2481	-0.35
Mof_N 	N 	0.563	0.5835	0.3354	-0.351
Mof_N 	N 	0.063	0.2481	0.5835	-0.351
Mof_N 	N 	0.063	0.3354	0.7519	-0.349
Mof_N 	N 	0.063	0.4165	0.6646	-0.352
Mof_N 	N 	0.937	0.3354	0.5835	-0.346
Mof_N 	N 	0.937	0.4165	0.7519	-0.343
Mof_N 	N 	0.937	0.2481	0.6646	-0.346
Mof_N 	N 	0.437	0.6646	0.4165	-0.351
Mof_N 	N 	0.437	0.5835	0.2481	-0.35
Mof_N 	N 	0.437	0.7519	0.3354	-0.348
Mof_N 	N 	0.437	0.2481	0.5835	-0.35
Mof_N 	N 	0.437	0.3354	0.7519	-0.348
Mof_N 	N 	0.437	0.4165	0.6646	-0.351
Mof_N 	N 	0.937	0.7519	0.4165	-0.343
Mof_N 	N 	0.937	0.6646	0.2481	-0.346
Mof_N 	N 	0.937	0.5835	0.3354	-0.346
Mof_N 	N 	0.063	0.6646	0.4165	-0.352
Mof_N 	N 	0.063	0.5835	0.2481	-0.351
Mof_N 	N 	0.063	0.7519	0.3354	-0.349
Mof_N 	N 	0.563	0.3354	0.5835	-0.351
Mof_N 	N 	0.563	0.4165	0.7519	-0.348
Mof_N 	N 	0.563	0.2481	0.6646	-0.35
Mof_N 	N 	0.75	0.725	0.666	-0.296
Mof_N 	N 	0.75	0.941	0.275	-0.306
Mof_N 	N 	0.75	0.334	0.059	-0.286
Mof_N 	N 	0.25	0.275	0.334	-0.294
Mof_N 	N 	0.25	0.059	0.725	-0.284
Mof_N 	N 	0.25	0.666	0.941	-0.306
Mof_N 	N 	0.75	0.059	0.334	-0.286
Mof_N 	N 	0.75	0.666	0.725	-0.296
Mof_N 	N 	0.75	0.275	0.941	-0.306
Mof_N 	N 	0.25	0.941	0.666	-0.306
Mof_N 	N 	0.25	0.334	0.275	-0.294
Mof_N 	N 	0.25	0.725	0.059	-0.284
Mof_Cl	Cl	0.4538	0.7864	0.4553	-0.469
Mof_Cl	Cl	0.4538	0.6689	0.2136	-0.489
Mof_Cl	Cl	0.4538	0.5447	0.3311	-0.483
Mof_Cl	Cl	0.9538	0.2136	0.5447	-0.465
Mof_Cl	Cl	0.9538	0.3311	0.7864	-0.445
Mof_Cl	Cl	0.9538	0.4553	0.6689	-0.453
Mof_Cl	Cl	0.0462	0.3311	0.5447	-0.5
Mof_Cl	Cl	0.0462	0.4553	0.7864	-0.486
Mof_Cl	Cl	0.0462	0.2136	0.6689	-0.506
Mof_Cl	Cl	0.5462	0.6689	0.4553	-0.479
Mof_Cl	Cl	0.5462	0.5447	0.2136	-0.491
Mof_Cl	Cl	0.5462	0.7864	0.3311	-0.47
Mof_Cl	Cl	0.5462	0.2136	0.5447	-0.491
Mof_Cl	Cl	0.5462	0.3311	0.7864	-0.47
Mof_Cl	Cl	0.5462	0.4553	0.6689	-0.479
Mof_Cl	Cl	0.0462	0.7864	0.4553	-0.486
Mof_Cl	Cl	0.0462	0.6689	0.2136	-0.506
Mof_Cl	Cl	0.0462	0.5447	0.3311	-0.5
Mof_Cl	Cl	0.9538	0.6689	0.4553	-0.453
Mof_Cl	Cl	0.9538	0.5447	0.2136	-0.465
Mof_Cl	Cl	0.9538	0.7864	0.3311	-0.445
Mof_Cl	Cl	0.4538	0.3311	0.5447	-0.483
Mof_Cl	Cl	0.4538	0.4553	0.7864	-0.469
Mof_Cl	Cl	0.4538	0.2136	0.6689	-0.489
Mof_Cl	Cl	0.5	0.66667	0.33334	-0.655
Mof_Cl	Cl	-0	0.33333	0.66666	-0.679
Mof_Cl	Cl	0.5	0.33333	0.66666	-0.655
Mof_Cl	Cl	-7.50355e-33	0.66667	0.33334	-0.679
Mof_O 	O 	0.7029	0.9479	0.5517	-0.812
Mof_O 	O 	0.6584	0.9462	0.6143	-0.702
Mof_O 	O 	0.7046	0.9478	0.6923	-0.664
Mof_O 	O 	0.7029	0.6038	0.0521	-0.88
Mof_O 	O 	0.6584	0.6681	0.0538	-0.77
Mof_O 	O 	0.7046	0.7445	0.0522	-0.731
Mof_O 	O 	0.7029	0.4483	0.3962	-0.936
Mof_O 	O 	0.6584	0.3857	0.3319	-0.814
Mof_O 	O 	0.7046	0.3077	0.2555	-0.777
Mof_O 	O 	0.2029	0.0521	0.4483	-0.88
Mof_O 	O 	0.1584	0.0538	0.3857	-0.772
Mof_O 	O 	0.2046	0.0522	0.3077	-0.736
Mof_O 	O 	0.2029	0.3962	0.9479	-0.812
Mof_O 	O 	0.1584	0.3319	0.9462	-0.704
Mof_O 	O 	0.2046	0.2555	0.9478	-0.669
Mof_O 	O 	0.2029	0.5517	0.6038	-0.937
Mof_O 	O 	0.1584	0.6143	0.6681	-0.814
Mof_O 	O 	0.2046	0.6923	0.7445	-0.77
Mof_O 	O 	0.7971	0.3962	0.4483	-0.936
Mof_O 	O 	0.8416	0.3319	0.3857	-0.812
Mof_O 	O 	0.7954	0.2555	0.3077	-0.777
Mof_O 	O 	0.7971	0.5517	0.9479	-0.812
Mof_O 	O 	0.8416	0.6143	0.9462	-0.701
Mof_O 	O 	0.7954	0.6923	0.9478	-0.663
Mof_O 	O 	0.7971	0.0521	0.6038	-0.88
Mof_O 	O 	0.8416	0.0538	0.6681	-0.768
Mof_O 	O 	0.7954	0.0522	0.7445	-0.73
Mof_O 	O 	0.2971	0.6038	0.5517	-0.936
Mof_O 	O 	0.3416	0.6681	0.6143	-0.812
Mof_O 	O 	0.2954	0.7445	0.6923	-0.769
Mof_O 	O 	0.2971	0.4483	0.0521	-0.88
Mof_O 	O 	0.3416	0.3857	0.0538	-0.77
Mof_O 	O 	0.2954	0.3077	0.0522	-0.735
Mof_O 	O 	0.2971	0.9479	0.3962	-0.811
Mof_O 	O 	0.3416	0.9462	0.3319	-0.703
Mof_O 	O 	0.2954	0.9478	0.2555	-0.668
Mof_O 	O 	0.2971	0.0521	0.4483	-0.88
Mof_O 	O 	0.3416	0.0538	0.3857	-0.77
Mof_O 	O 	0.2954	0.0522	0.3077	-0.735
Mof_O 	O 	0.2971	0.3962	0.9479	-0.811
Mof_O 	O 	0.3416	0.3319	0.9462	-0.703
Mof_O 	O 	0.2954	0.2555	0.9478	-0.668
Mof_O 	O 	0.2971	0.5517	0.6038	-0.936
Mof_O 	O 	0.3416	0.6143	0.6681	-0.812
Mof_O 	O 	0.2954	0.6923	0.7445	-0.769
Mof_O 	O 	0.7971	0.9479	0.5517	-0.812
Mof_O 	O 	0.8416	0.9462	0.6143	-0.701
Mof_O 	O 	0.7954	0.9478	0.6923	-0.663
Mof_O 	O 	0.7971	0.6038	0.0521	-0.88
Mof_O 	O 	0.8416	0.6681	0.0538	-0.768
Mof_O 	O 	0.7954	0.7445	0.0522	-0.73
Mof_O 	O 	0.7971	0.4483	0.3962	-0.936
Mof_O 	O 	0.8416	0.3857	0.3319	-0.812
Mof_O 	O 	0.7954	0.3077	0.2555	-0.777
Mof_O 	O 	0.2029	0.6038	0.5517	-0.937
Mof_O 	O 	0.1584	0.6681	0.6143	-0.814
Mof_O 	O 	0.2046	0.7445	0.6923	-0.77
Mof_O 	O 	0.2029	0.4483	0.0521	-0.88
Mof_O 	O 	0.1584	0.3857	0.0538	-0.772
Mof_O 	O 	0.2046	0.3077	0.0522	-0.736
Mof_O 	O 	0.2029	0.9479	0.3962	-0.812
Mof_O 	O 	0.1584	0.9462	0.3319	-0.704
Mof_O 	O 	0.2046	0.9478	0.2555	-0.669
Mof_O 	O 	0.7029	0.3962	0.4483	-0.936
Mof_O 	O 	0.6584	0.3319	0.3857	-0.814
Mof_O 	O 	0.7046	0.2555	0.3077	-0.777
Mof_O 	O 	0.7029	0.5517	0.9479	-0.812
Mof_O 	O 	0.6584	0.6143	0.9462	-0.702
Mof_O 	O 	0.7046	0.6923	0.9478	-0.664
Mof_O 	O 	0.7029	0.0521	0.6038	-0.88
Mof_O 	O 	0.6584	0.0538	0.6681	-0.77
Mof_O 	O 	0.7046	0.0522	0.7445	-0.731
Mof_O 	O 	0.75	0	0.6459	-1.332
Mof_O 	O 	0.75	0.6459	-0	-1.332
Mof_O 	O 	0.75	0.3541	0.3541	-1.427
Mof_O 	O 	0.25	2.25287e-17	0.3541	-1.326
Mof_O 	O 	0.25	0.3541	-0	-1.326
Mof_O 	O 	0.25	0.6459	0.6459	-1.432
_end
