data_functionalizedCrystal
_audit_creation_method	'EQeq! by Chris Wilmer'
_symmetry_space_group_name_H-M	'P1'
_symmetry_Int_Tables_number	1
_symmetry_cell_setting	triclinic
loop_
_symmetry_equiv_pos_as_xyz
  x,y,z
_cell_length_a	20.124
_cell_length_b	7.0312
_cell_length_c	17.2274
_cell_angle_alpha	90
_cell_angle_beta	90
_cell_angle_gamma	90
loop_
_atom_site_label
_atom_site_type_symbol
_atom_site_fract_x
_atom_site_fract_y
_atom_site_fract_z
_atom_site_charge
Mof_Cu	Cu	0.50856	0.84551	0.59478	0.917
Mof_O 	O 	0.42778	0.7045	0.55876	-0.361
Mof_O 	O 	0.50707	0.7799	0.48281	-0.407
Mof_O 	O 	0.48812	0.6301	0.20139	-0.394
Mof_O 	O 	0.40764	0.4427	0.16102	-0.285
Mof_N 	N 	0.10176	0.4129	0.39683	-0.236
Mof_C 	C 	0.45157	0.7069	0.49152	0.312
Mof_C 	C 	0.43531	0.5355	0.21189	0.327
Mof_C 	C 	0.41301	0.627	0.42602	-0.094
Mof_C 	C 	0.44345	0.6113	0.35367	-0.005
Mof_H 	H 	0.4879	0.644	0.347	0.058
Mof_C 	C 	0.40589	0.5457	0.2922	-0.078
Mof_C 	C 	0.34023	0.5024	0.30228	-0.01
Mof_H 	H 	0.3159	0.4577	0.2602	0.049
Mof_C 	C 	0.30879	0.5231	0.37373	-0.04
Mof_C 	C 	0.34796	0.5849	0.43535	-0.002
Mof_H 	H 	0.3289	0.5975	0.4842	0.049
Mof_C 	C 	0.23753	0.489	0.38229	0.112
Mof_C 	C 	0.19454	0.4954	0.31957	-0.166
Mof_H 	H 	0.2113	0.5245	0.2707	0.097
Mof_C 	C 	0.12903	0.4604	0.32773	0.099
Mof_H 	H 	0.1017	0.4692	0.2844	0.011
Mof_C 	C 	0.14247	0.4076	0.45853	0.093
Mof_H 	H 	0.1248	0.3771	0.5068	0.011
Mof_C 	C 	0.20864	0.4451	0.45313	-0.163
Mof_H 	H 	0.2348	0.4413	0.4976	0.096
Mof_Cu	Cu	0.00856	0.15449	0.90521	0.915
Mof_O 	O 	0.92778	0.2955	0.94124	-0.352
Mof_O 	O 	0.00707	0.2201	0.01719	-0.396
Mof_O 	O 	0.98812	0.3699	0.29861	-0.394
Mof_O 	O 	0.90764	0.5573	0.33898	-0.284
Mof_N 	N 	0.60176	0.5871	0.10317	-0.234
Mof_C 	C 	0.95157	0.2931	0.00848	0.298
Mof_C 	C 	0.93531	0.4645	0.28811	0.327
Mof_C 	C 	0.91301	0.373	0.07398	-0.088
Mof_C 	C 	0.94345	0.3887	0.14633	-0.009
Mof_H 	H 	0.9879	0.356	0.153	0.058
Mof_C 	C 	0.90589	0.4543	0.2078	-0.076
Mof_C 	C 	0.84023	0.4976	0.19772	-0.012
Mof_H 	H 	0.8159	0.5423	0.2398	0.05
Mof_C 	C 	0.80879	0.4769	0.12627	-0.037
Mof_C 	C 	0.84796	0.4151	0.06465	-0.006
Mof_H 	H 	0.8289	0.4025	0.0158	0.05
Mof_C 	C 	0.73753	0.511	0.11771	0.109
Mof_C 	C 	0.69454	0.5046	0.18043	-0.164
Mof_H 	H 	0.7113	0.4755	0.2293	0.096
Mof_C 	C 	0.62903	0.5396	0.17227	0.098
Mof_H 	H 	0.6017	0.5308	0.2156	0.011
Mof_C 	C 	0.64247	0.5924	0.04147	0.088
Mof_H 	H 	0.6248	0.6229	0.9932	0.015
Mof_C 	C 	0.70864	0.5549	0.04687	-0.159
Mof_H 	H 	0.7348	0.5587	0.0024	0.094
Mof_Cu	Cu	0.00856	0.34551	0.40522	0.919
Mof_O 	O 	0.92778	0.2045	0.44124	-0.36
Mof_O 	O 	0.00707	0.2799	0.51719	-0.406
Mof_O 	O 	0.98812	0.1301	0.79861	-0.39
Mof_O 	O 	0.90764	0.9427	0.83898	-0.282
Mof_N 	N 	0.60176	0.9129	0.60317	-0.235
Mof_C 	C 	0.95157	0.2069	0.50848	0.313
Mof_C 	C 	0.93531	0.0355	0.78811	0.326
Mof_C 	C 	0.91301	0.127	0.57398	-0.092
Mof_C 	C 	0.94345	0.1113	0.64633	-0.007
Mof_H 	H 	0.9879	0.144	0.653	0.059
Mof_C 	C 	0.90589	0.0457	0.7078	-0.076
Mof_C 	C 	0.84023	0.0024	0.69772	-0.012
Mof_H 	H 	0.8159	0.9577	0.7398	0.051
Mof_C 	C 	0.80879	0.0231	0.62627	-0.039
Mof_C 	C 	0.84796	0.0849	0.56465	-0.003
Mof_H 	H 	0.8289	0.0975	0.5158	0.05
Mof_C 	C 	0.73753	0.989	0.61771	0.111
Mof_C 	C 	0.69454	0.9954	0.68043	-0.163
Mof_H 	H 	0.7113	0.0245	0.7293	0.095
Mof_C 	C 	0.62903	0.9604	0.67227	0.098
Mof_H 	H 	0.6017	0.9692	0.7156	0.011
Mof_C 	C 	0.64247	0.9076	0.54147	0.093
Mof_H 	H 	0.6248	0.8771	0.4932	0.012
Mof_C 	C 	0.70864	0.9451	0.54687	-0.162
Mof_H 	H 	0.7348	0.9413	0.5024	0.096
Mof_Cu	Cu	0.50856	0.65449	0.09478	0.918
Mof_O 	O 	0.42778	0.7955	0.05876	-0.359
Mof_O 	O 	0.50707	0.7201	0.98281	-0.406
Mof_O 	O 	0.48812	0.8699	0.70139	-0.393
Mof_O 	O 	0.40764	0.0573	0.66102	-0.284
Mof_N 	N 	0.10176	0.0871	0.89683	-0.234
Mof_C 	C 	0.45157	0.7931	0.99152	0.312
Mof_C 	C 	0.43531	0.9645	0.71189	0.327
Mof_C 	C 	0.41301	0.873	0.92602	-0.092
Mof_C 	C 	0.44345	0.8887	0.85367	-0.006
Mof_H 	H 	0.4879	0.856	0.847	0.059
Mof_C 	C 	0.40589	0.9543	0.7922	-0.077
Mof_C 	C 	0.34023	0.9976	0.80228	-0.011
Mof_H 	H 	0.3159	0.0423	0.7602	0.05
Mof_C 	C 	0.30879	0.9769	0.87373	-0.037
Mof_C 	C 	0.34796	0.9151	0.93535	-0.003
Mof_H 	H 	0.3289	0.9025	0.9842	0.05
Mof_C 	C 	0.23753	0.011	0.88229	0.107
Mof_C 	C 	0.19454	0.0046	0.81957	-0.162
Mof_H 	H 	0.2113	0.9755	0.7707	0.096
Mof_C 	C 	0.12903	0.0396	0.82773	0.097
Mof_H 	H 	0.1017	0.0308	0.7844	0.011
Mof_C 	C 	0.14247	0.0924	0.95853	0.079
Mof_H 	H 	0.1248	0.1229	0.0068	0.02
Mof_C 	C 	0.20864	0.0549	0.95313	-0.154
Mof_H 	H 	0.2348	0.0587	0.9976	0.092
Mof_Cu	Cu	0.99144	0.65449	0.59478	0.919
Mof_O 	O 	0.07222	0.7955	0.55876	-0.36
Mof_O 	O 	0.99293	0.7201	0.48281	-0.406
Mof_O 	O 	0.01188	0.8699	0.20139	-0.39
Mof_O 	O 	0.09236	0.0573	0.16102	-0.282
Mof_N 	N 	0.39824	0.0871	0.39683	-0.235
Mof_C 	C 	0.04843	0.7931	0.49152	0.313
Mof_C 	C 	0.06469	0.9645	0.21189	0.326
Mof_C 	C 	0.08699	0.873	0.42602	-0.092
Mof_C 	C 	0.05655	0.8887	0.35367	-0.007
Mof_H 	H 	0.0121	0.856	0.347	0.059
Mof_C 	C 	0.09411	0.9543	0.2922	-0.076
Mof_C 	C 	0.15977	0.9976	0.30228	-0.012
Mof_H 	H 	0.1841	0.0423	0.2602	0.051
Mof_C 	C 	0.19121	0.9769	0.37373	-0.039
Mof_C 	C 	0.15204	0.9151	0.43535	-0.003
Mof_H 	H 	0.1711	0.9025	0.4842	0.05
Mof_C 	C 	0.26247	0.011	0.38229	0.111
Mof_C 	C 	0.30546	0.0046	0.31957	-0.163
Mof_H 	H 	0.2887	0.9755	0.2707	0.095
Mof_C 	C 	0.37097	0.0396	0.32773	0.098
Mof_H 	H 	0.3983	0.0308	0.2844	0.011
Mof_C 	C 	0.35753	0.0924	0.45853	0.093
Mof_H 	H 	0.3752	0.1229	0.5068	0.012
Mof_C 	C 	0.29136	0.0549	0.45313	-0.162
Mof_H 	H 	0.2652	0.0587	0.4976	0.096
Mof_Cu	Cu	0.49144	0.34551	0.90521	0.918
Mof_O 	O 	0.57222	0.2045	0.94124	-0.359
Mof_O 	O 	0.49293	0.2799	0.01719	-0.406
Mof_O 	O 	0.51188	0.1301	0.29861	-0.393
Mof_O 	O 	0.59236	0.9427	0.33898	-0.284
Mof_N 	N 	0.89824	0.9129	0.10317	-0.234
Mof_C 	C 	0.54843	0.2069	0.00848	0.312
Mof_C 	C 	0.56469	0.0355	0.28811	0.327
Mof_C 	C 	0.58699	0.127	0.07398	-0.092
Mof_C 	C 	0.55655	0.1113	0.14633	-0.006
Mof_H 	H 	0.5121	0.144	0.153	0.059
Mof_C 	C 	0.59411	0.0457	0.2078	-0.077
Mof_C 	C 	0.65977	0.0024	0.19772	-0.011
Mof_H 	H 	0.6841	0.9577	0.2398	0.05
Mof_C 	C 	0.69121	0.0231	0.12627	-0.037
Mof_C 	C 	0.65204	0.0849	0.06465	-0.003
Mof_H 	H 	0.6711	0.0975	0.0158	0.05
Mof_C 	C 	0.76247	0.989	0.11771	0.107
Mof_C 	C 	0.80546	0.9954	0.18043	-0.162
Mof_H 	H 	0.7887	0.0245	0.2293	0.096
Mof_C 	C 	0.87097	0.9604	0.17227	0.097
Mof_H 	H 	0.8983	0.9692	0.2156	0.011
Mof_C 	C 	0.85753	0.9076	0.04147	0.079
Mof_H 	H 	0.8752	0.8771	0.9932	0.02
Mof_C 	C 	0.79136	0.9451	0.04687	-0.154
Mof_H 	H 	0.7652	0.9413	0.0024	0.092
Mof_Cu	Cu	0.49144	0.15449	0.40522	0.918
Mof_O 	O 	0.57222	0.2955	0.44124	-0.36
Mof_O 	O 	0.49293	0.2201	0.51719	-0.406
Mof_O 	O 	0.51188	0.3699	0.79861	-0.393
Mof_O 	O 	0.59236	0.5573	0.83898	-0.284
Mof_N 	N 	0.89824	0.5871	0.60317	-0.235
Mof_C 	C 	0.54843	0.2931	0.50848	0.313
Mof_C 	C 	0.56469	0.4645	0.78811	0.328
Mof_C 	C 	0.58699	0.373	0.57398	-0.093
Mof_C 	C 	0.55655	0.3887	0.64633	-0.005
Mof_H 	H 	0.5121	0.356	0.653	0.058
Mof_C 	C 	0.59411	0.4543	0.7078	-0.078
Mof_C 	C 	0.65977	0.4976	0.69772	-0.009
Mof_H 	H 	0.6841	0.5423	0.7398	0.049
Mof_C 	C 	0.69121	0.4769	0.62627	-0.04
Mof_C 	C 	0.65204	0.4151	0.56465	-0.002
Mof_H 	H 	0.6711	0.4025	0.5158	0.049
Mof_C 	C 	0.76247	0.511	0.61771	0.112
Mof_C 	C 	0.80546	0.5046	0.68043	-0.166
Mof_H 	H 	0.7887	0.4755	0.7293	0.097
Mof_C 	C 	0.87097	0.5396	0.67227	0.099
Mof_H 	H 	0.8983	0.5308	0.7156	0.011
Mof_C 	C 	0.85753	0.5924	0.54147	0.093
Mof_H 	H 	0.8752	0.6229	0.4932	0.011
Mof_C 	C 	0.79136	0.5549	0.54687	-0.163
Mof_H 	H 	0.7652	0.5587	0.5024	0.096
Mof_Cu	Cu	0.99144	0.84551	0.09478	0.915
Mof_O 	O 	0.07222	0.7045	0.05876	-0.352
Mof_O 	O 	0.99293	0.7799	0.98281	-0.396
Mof_O 	O 	0.01188	0.6301	0.70139	-0.394
Mof_O 	O 	0.09236	0.4427	0.66102	-0.284
Mof_N 	N 	0.39824	0.4129	0.89683	-0.234
Mof_C 	C 	0.04843	0.7069	0.99152	0.298
Mof_C 	C 	0.06469	0.5355	0.71189	0.327
Mof_C 	C 	0.08699	0.627	0.92602	-0.088
Mof_C 	C 	0.05655	0.6113	0.85367	-0.009
Mof_H 	H 	0.0121	0.644	0.847	0.058
Mof_C 	C 	0.09411	0.5457	0.7922	-0.076
Mof_C 	C 	0.15977	0.5024	0.80228	-0.012
Mof_H 	H 	0.1841	0.4577	0.7602	0.05
Mof_C 	C 	0.19121	0.5231	0.87373	-0.037
Mof_C 	C 	0.15204	0.5849	0.93535	-0.006
Mof_H 	H 	0.1711	0.5975	0.9842	0.05
Mof_C 	C 	0.26247	0.489	0.88229	0.109
Mof_C 	C 	0.30546	0.4954	0.81957	-0.164
Mof_H 	H 	0.2887	0.5245	0.7707	0.096
Mof_C 	C 	0.37097	0.4604	0.82773	0.098
Mof_H 	H 	0.3983	0.4692	0.7844	0.011
Mof_C 	C 	0.35753	0.4076	0.95853	0.088
Mof_H 	H 	0.3752	0.3771	0.0068	0.015
Mof_C 	C 	0.29136	0.4451	0.95313	-0.159
Mof_H 	H 	0.2652	0.4413	0.9976	0.094
_end
