data_functionalizedCrystal
_audit_creation_method	'EQeq! by Chris Wilmer'
_symmetry_space_group_name_H-M	'P1'
_symmetry_Int_Tables_number	1
_symmetry_cell_setting	triclinic
loop_
_symmetry_equiv_pos_as_xyz
  x,y,z
_cell_length_a	35.8273
_cell_length_b	35.8273
_cell_length_c	15.387
_cell_angle_alpha	90
_cell_angle_beta	90
_cell_angle_gamma	120
loop_
_atom_site_label
_atom_site_type_symbol
_atom_site_fract_x
_atom_site_fract_y
_atom_site_fract_z
_atom_site_charge
Mof_O 	O 	0.55765	0.03818	0.57843	-0.41
Mof_O 	O 	0.56411	0.05075	0.43404	-0.408
Mof_C 	C 	0.57855	0.05692	0.5095	0.372
Mof_C 	C 	0.62525	0.08898	0.523	-0.147
Mof_C 	C 	0.65256	0.10998	0.4556	0.096
Mof_H 	H 	0.6419	0.105	0.3991	0.011
Mof_C 	C 	0.69588	0.13854	0.47	-0.181
Mof_H 	H 	0.7136	0.1533	0.4233	0.108
Mof_C 	C 	0.71314	0.14547	0.5521	0.14
Mof_C 	C 	0.68515	0.1257	0.6213	-0.176
Mof_H 	H 	0.6959	0.1311	0.6777	0.095
Mof_C 	C 	0.6419	0.09829	0.6079	0.088
Mof_H 	H 	0.6236	0.0859	0.6552	0.016
Mof_C 	C 	0.76017	0.1725	0.5695	-0.09
Mof_C 	C 	0.77997	0.15417	0.6171	-0.035
Mof_H 	H 	0.7636	0.1254	0.6334	0.045
Mof_H 	H 	0.7696	0.2742	0.5955	-0.083
Mof_H 	H 	0.7462	0.2975	0.4747	0.28
Mof_O 	O 	0.22432	0.37151	0.91176	-0.41
Mof_O 	O 	0.23078	0.38408	0.76737	-0.408
Mof_C 	C 	0.24522	0.39025	0.84283	0.372
Mof_C 	C 	0.29192	0.42231	0.85633	-0.147
Mof_C 	C 	0.31923	0.44331	0.78893	0.096
Mof_H 	H 	0.30857	0.43833	0.73243	0.011
Mof_C 	C 	0.36255	0.47187	0.80333	-0.181
Mof_H 	H 	0.38027	0.48663	0.75663	0.108
Mof_C 	C 	0.37981	0.4788	0.88543	0.139
Mof_C 	C 	0.35182	0.45903	0.95463	-0.175
Mof_H 	H 	0.36257	0.46443	0.01103	0.095
Mof_C 	C 	0.30857	0.43162	0.94123	0.088
Mof_H 	H 	0.29027	0.41923	0.98853	0.016
Mof_C 	C 	0.42684	0.50583	0.90283	-0.09
Mof_C 	C 	0.44664	0.4875	0.95043	-0.035
Mof_H 	H 	0.43027	0.45873	0.96673	0.045
Mof_H 	H 	0.43627	0.60753	0.92883	-0.083
Mof_H 	H 	0.41287	0.63083	0.80803	0.28
Mof_O 	O 	0.89098	0.70485	0.2451	-0.41
Mof_O 	O 	0.89744	0.71742	0.10071	-0.408
Mof_C 	C 	0.91188	0.72359	0.17617	0.372
Mof_C 	C 	0.95858	0.75565	0.18967	-0.147
Mof_C 	C 	0.98589	0.77665	0.12227	0.096
Mof_H 	H 	0.97523	0.77167	0.06577	0.011
Mof_C 	C 	0.02921	0.80521	0.13667	-0.181
Mof_H 	H 	0.04693	0.81997	0.08997	0.108
Mof_C 	C 	0.04647	0.81214	0.21877	0.139
Mof_C 	C 	0.01848	0.79237	0.28797	-0.176
Mof_H 	H 	0.02923	0.79777	0.34437	0.095
Mof_C 	C 	0.97523	0.76496	0.27457	0.088
Mof_H 	H 	0.95693	0.75257	0.32187	0.016
Mof_C 	C 	0.0935	0.83917	0.23617	-0.09
Mof_C 	C 	0.1133	0.82084	0.28377	-0.035
Mof_H 	H 	0.09693	0.79207	0.30007	0.045
Mof_H 	H 	0.10293	0.94087	0.26217	-0.083
Mof_H 	H 	0.07953	0.96417	0.14137	0.28
Mof_O 	O 	0.96182	0.51947	0.57843	-0.41
Mof_O 	O 	0.94925	0.51336	0.43404	-0.408
Mof_C 	C 	0.94308	0.52163	0.5095	0.371
Mof_C 	C 	0.91102	0.53627	0.523	-0.148
Mof_C 	C 	0.89002	0.54258	0.4556	0.095
Mof_H 	H 	0.895	0.5369	0.3991	0.01
Mof_C 	C 	0.86146	0.55734	0.47	-0.182
Mof_H 	H 	0.8467	0.5603	0.4233	0.107
Mof_C 	C 	0.85453	0.56767	0.5521	0.139
Mof_C 	C 	0.8743	0.55945	0.6213	-0.177
Mof_H 	H 	0.8689	0.5648	0.6777	0.094
Mof_C 	C 	0.90171	0.54361	0.6079	0.087
Mof_H 	H 	0.9141	0.5377	0.6552	0.015
Mof_C 	C 	0.8275	0.58767	0.5695	-0.091
Mof_C 	C 	0.84583	0.6258	0.6171	-0.036
Mof_H 	H 	0.8746	0.6382	0.6334	0.044
Mof_H 	H 	0.7258	0.4954	0.5955	-0.084
Mof_H 	H 	0.7025	0.4487	0.4747	0.279
Mof_O 	O 	0.62849	0.8528	0.91176	-0.411
Mof_O 	O 	0.61592	0.84669	0.76737	-0.409
Mof_C 	C 	0.60975	0.85496	0.84283	0.371
Mof_C 	C 	0.57769	0.8696	0.85633	-0.148
Mof_C 	C 	0.55669	0.87591	0.78893	0.095
Mof_H 	H 	0.56167	0.87023	0.73243	0.01
Mof_C 	C 	0.52813	0.89067	0.80333	-0.182
Mof_H 	H 	0.51337	0.89363	0.75663	0.107
Mof_C 	C 	0.5212	0.901	0.88543	0.138
Mof_C 	C 	0.54097	0.89278	0.95463	-0.176
Mof_H 	H 	0.53557	0.89813	0.01103	0.094
Mof_C 	C 	0.56838	0.87694	0.94123	0.087
Mof_H 	H 	0.58077	0.87103	0.98853	0.015
Mof_C 	C 	0.49417	0.921	0.90283	-0.091
Mof_C 	C 	0.5125	0.95913	0.95043	-0.036
Mof_H 	H 	0.54127	0.97153	0.96673	0.044
Mof_H 	H 	0.39247	0.82873	0.92883	-0.084
Mof_H 	H 	0.36917	0.78203	0.80803	0.279
Mof_O 	O 	0.29515	0.18614	0.2451	-0.411
Mof_O 	O 	0.28258	0.18003	0.10071	-0.409
Mof_C 	C 	0.27641	0.1883	0.17617	0.371
Mof_C 	C 	0.24435	0.20294	0.18967	-0.148
Mof_C 	C 	0.22335	0.20925	0.12227	0.095
Mof_H 	H 	0.22833	0.20357	0.06577	0.01
Mof_C 	C 	0.19479	0.22401	0.13667	-0.182
Mof_H 	H 	0.18003	0.22697	0.08997	0.107
Mof_C 	C 	0.18786	0.23434	0.21877	0.139
Mof_C 	C 	0.20763	0.22612	0.28797	-0.177
Mof_H 	H 	0.20223	0.23147	0.34437	0.094
Mof_C 	C 	0.23504	0.21028	0.27457	0.087
Mof_H 	H 	0.24743	0.20437	0.32187	0.015
Mof_C 	C 	0.16083	0.25434	0.23617	-0.091
Mof_C 	C 	0.17916	0.29247	0.28377	-0.036
Mof_H 	H 	0.20793	0.30487	0.30007	0.044
Mof_H 	H 	0.05913	0.16207	0.26217	-0.084
Mof_H 	H 	0.03583	0.11537	0.14137	0.279
Mof_O 	O 	0.48053	0.44235	0.57843	-0.411
Mof_O 	O 	0.48664	0.43589	0.43404	-0.409
Mof_C 	C 	0.47837	0.42145	0.5095	0.371
Mof_C 	C 	0.46373	0.37475	0.523	-0.148
Mof_C 	C 	0.45742	0.34744	0.4556	0.095
Mof_H 	H 	0.4631	0.3581	0.3991	0.009
Mof_C 	C 	0.44266	0.30412	0.47	-0.182
Mof_H 	H 	0.4397	0.2864	0.4233	0.107
Mof_C 	C 	0.43233	0.28686	0.5521	0.139
Mof_C 	C 	0.44055	0.31485	0.6213	-0.177
Mof_H 	H 	0.4352	0.3041	0.6777	0.094
Mof_C 	C 	0.45639	0.3581	0.6079	0.087
Mof_H 	H 	0.4623	0.3764	0.6552	0.015
Mof_C 	C 	0.41233	0.23983	0.5695	-0.091
Mof_C 	C 	0.3742	0.22003	0.6171	-0.036
Mof_H 	H 	0.3618	0.2364	0.6334	0.044
Mof_H 	H 	0.5046	0.2304	0.5955	-0.084
Mof_H 	H 	0.5513	0.2538	0.4747	0.279
Mof_O 	O 	0.1472	0.77568	0.91176	-0.411
Mof_O 	O 	0.15331	0.76922	0.76737	-0.409
Mof_C 	C 	0.14504	0.75478	0.84283	0.371
Mof_C 	C 	0.1304	0.70808	0.85633	-0.148
Mof_C 	C 	0.12409	0.68077	0.78893	0.095
Mof_H 	H 	0.12977	0.69143	0.73243	0.01
Mof_C 	C 	0.10933	0.63745	0.80333	-0.182
Mof_H 	H 	0.10637	0.61973	0.75663	0.107
Mof_C 	C 	0.099	0.62019	0.88543	0.138
Mof_C 	C 	0.10722	0.64818	0.95463	-0.176
Mof_H 	H 	0.10187	0.63743	0.01103	0.094
Mof_C 	C 	0.12306	0.69143	0.94123	0.087
Mof_H 	H 	0.12897	0.70973	0.98853	0.015
Mof_C 	C 	0.079	0.57316	0.90283	-0.091
Mof_C 	C 	0.04087	0.55336	0.95043	-0.036
Mof_H 	H 	0.02847	0.56973	0.96673	0.044
Mof_H 	H 	0.17127	0.56373	0.92883	-0.084
Mof_H 	H 	0.21797	0.58713	0.80803	0.279
Mof_O 	O 	0.81386	0.10902	0.2451	-0.411
Mof_O 	O 	0.81997	0.10256	0.10071	-0.409
Mof_C 	C 	0.8117	0.08812	0.17617	0.371
Mof_C 	C 	0.79706	0.04142	0.18967	-0.148
Mof_C 	C 	0.79075	0.01411	0.12227	0.095
Mof_H 	H 	0.79643	0.02477	0.06577	0.009
Mof_C 	C 	0.77599	0.97079	0.13667	-0.182
Mof_H 	H 	0.77303	0.95307	0.08997	0.107
Mof_C 	C 	0.76566	0.95353	0.21877	0.139
Mof_C 	C 	0.77388	0.98152	0.28797	-0.177
Mof_H 	H 	0.76853	0.97077	0.34437	0.094
Mof_C 	C 	0.78972	0.02477	0.27457	0.088
Mof_H 	H 	0.79563	0.04307	0.32187	0.015
Mof_C 	C 	0.74566	0.9065	0.23617	-0.091
Mof_C 	C 	0.70753	0.8867	0.28377	-0.036
Mof_H 	H 	0.69513	0.90307	0.30007	0.044
Mof_H 	H 	0.83793	0.89707	0.26217	-0.084
Mof_H 	H 	0.88463	0.92047	0.14137	0.279
Mof_O 	O 	0.03818	0.55765	0.42157	-0.411
Mof_O 	O 	0.05075	0.56411	0.56596	-0.409
Mof_C 	C 	0.05692	0.57855	0.4905	0.371
Mof_C 	C 	0.08898	0.62525	0.477	-0.148
Mof_C 	C 	0.10998	0.65256	0.5444	0.095
Mof_H 	H 	0.105	0.6419	0.6009	0.01
Mof_C 	C 	0.13854	0.69588	0.53	-0.182
Mof_H 	H 	0.1533	0.7136	0.5767	0.107
Mof_C 	C 	0.14547	0.71314	0.4479	0.139
Mof_C 	C 	0.1257	0.68515	0.3787	-0.177
Mof_H 	H 	0.1311	0.6959	0.3223	0.094
Mof_C 	C 	0.09829	0.6419	0.3921	0.087
Mof_H 	H 	0.0859	0.6236	0.3448	0.015
Mof_C 	C 	0.1725	0.76017	0.4305	-0.091
Mof_C 	C 	0.15417	0.77997	0.3829	-0.036
Mof_H 	H 	0.1254	0.7636	0.3666	0.044
Mof_H 	H 	0.2742	0.7696	0.4045	-0.084
Mof_H 	H 	0.2975	0.7462	0.5253	0.279
Mof_O 	O 	0.70485	0.89098	0.7549	-0.411
Mof_O 	O 	0.71742	0.89744	0.89929	-0.409
Mof_C 	C 	0.72359	0.91188	0.82383	0.371
Mof_C 	C 	0.75565	0.95858	0.81033	-0.148
Mof_C 	C 	0.77665	0.98589	0.87773	0.095
Mof_H 	H 	0.77167	0.97523	0.93423	0.01
Mof_C 	C 	0.80521	0.02921	0.86333	-0.182
Mof_H 	H 	0.81997	0.04693	0.91003	0.107
Mof_C 	C 	0.81214	0.04647	0.78123	0.138
Mof_C 	C 	0.79237	0.01848	0.71203	-0.177
Mof_H 	H 	0.79777	0.02923	0.65563	0.094
Mof_C 	C 	0.76496	0.97523	0.72543	0.087
Mof_H 	H 	0.75257	0.95693	0.67813	0.015
Mof_C 	C 	0.83917	0.0935	0.76383	-0.091
Mof_C 	C 	0.82084	0.1133	0.71623	-0.036
Mof_H 	H 	0.79207	0.09693	0.69993	0.044
Mof_H 	H 	0.94087	0.10293	0.73783	-0.084
Mof_H 	H 	0.96417	0.07953	0.85863	0.279
Mof_O 	O 	0.37151	0.22432	0.08824	-0.411
Mof_O 	O 	0.38408	0.23078	0.23263	-0.409
Mof_C 	C 	0.39025	0.24522	0.15717	0.371
Mof_C 	C 	0.42231	0.29192	0.14367	-0.148
Mof_C 	C 	0.44331	0.31923	0.21107	0.095
Mof_H 	H 	0.43833	0.30857	0.26757	0.01
Mof_C 	C 	0.47187	0.36255	0.19667	-0.182
Mof_H 	H 	0.48663	0.38027	0.24337	0.107
Mof_C 	C 	0.4788	0.37981	0.11457	0.138
Mof_C 	C 	0.45903	0.35182	0.04537	-0.176
Mof_H 	H 	0.46443	0.36257	0.98897	0.094
Mof_C 	C 	0.43162	0.30857	0.05877	0.087
Mof_H 	H 	0.41923	0.29027	0.01147	0.015
Mof_C 	C 	0.50583	0.42684	0.09717	-0.091
Mof_C 	C 	0.4875	0.44664	0.04957	-0.036
Mof_H 	H 	0.45873	0.43027	0.03327	0.044
Mof_H 	H 	0.60753	0.43627	0.07117	-0.084
Mof_H 	H 	0.63083	0.41287	0.19197	0.279
Mof_O 	O 	0.51947	0.96182	0.42157	-0.411
Mof_O 	O 	0.51336	0.94925	0.56596	-0.409
Mof_C 	C 	0.52163	0.94308	0.4905	0.371
Mof_C 	C 	0.53627	0.91102	0.477	-0.148
Mof_C 	C 	0.54258	0.89002	0.5444	0.095
Mof_H 	H 	0.5369	0.895	0.6009	0.01
Mof_C 	C 	0.55734	0.86146	0.53	-0.182
Mof_H 	H 	0.5603	0.8467	0.5767	0.107
Mof_C 	C 	0.56767	0.85453	0.4479	0.139
Mof_C 	C 	0.55945	0.8743	0.3787	-0.177
Mof_H 	H 	0.5648	0.8689	0.3223	0.094
Mof_C 	C 	0.54361	0.90171	0.3921	0.087
Mof_H 	H 	0.5377	0.9141	0.3448	0.015
Mof_C 	C 	0.58767	0.8275	0.4305	-0.091
Mof_C 	C 	0.6258	0.84583	0.3829	-0.036
Mof_H 	H 	0.6382	0.8746	0.3666	0.044
Mof_H 	H 	0.4954	0.7258	0.4045	-0.084
Mof_H 	H 	0.4487	0.7025	0.5253	0.279
Mof_O 	O 	0.18614	0.29515	0.7549	-0.411
Mof_O 	O 	0.18003	0.28258	0.89929	-0.409
Mof_C 	C 	0.1883	0.27641	0.82383	0.371
Mof_C 	C 	0.20294	0.24435	0.81033	-0.148
Mof_C 	C 	0.20925	0.22335	0.87773	0.095
Mof_H 	H 	0.20357	0.22833	0.93423	0.01
Mof_C 	C 	0.22401	0.19479	0.86333	-0.182
Mof_H 	H 	0.22697	0.18003	0.91003	0.107
Mof_C 	C 	0.23434	0.18786	0.78123	0.139
Mof_C 	C 	0.22612	0.20763	0.71203	-0.177
Mof_H 	H 	0.23147	0.20223	0.65563	0.094
Mof_C 	C 	0.21028	0.23504	0.72543	0.087
Mof_H 	H 	0.20437	0.24743	0.67813	0.015
Mof_C 	C 	0.25434	0.16083	0.76383	-0.091
Mof_C 	C 	0.29247	0.17916	0.71623	-0.036
Mof_H 	H 	0.30487	0.20793	0.69993	0.044
Mof_H 	H 	0.16207	0.05913	0.73783	-0.084
Mof_H 	H 	0.11537	0.03583	0.85863	0.279
Mof_O 	O 	0.8528	0.62849	0.08824	-0.411
Mof_O 	O 	0.84669	0.61592	0.23263	-0.409
Mof_C 	C 	0.85496	0.60975	0.15717	0.371
Mof_C 	C 	0.8696	0.57769	0.14367	-0.148
Mof_C 	C 	0.87591	0.55669	0.21107	0.095
Mof_H 	H 	0.87023	0.56167	0.26757	0.01
Mof_C 	C 	0.89067	0.52813	0.19667	-0.182
Mof_H 	H 	0.89363	0.51337	0.24337	0.107
Mof_C 	C 	0.901	0.5212	0.11457	0.138
Mof_C 	C 	0.89278	0.54097	0.04537	-0.176
Mof_H 	H 	0.89813	0.53557	0.98897	0.094
Mof_C 	C 	0.87694	0.56838	0.05877	0.087
Mof_H 	H 	0.87103	0.58077	0.01147	0.015
Mof_C 	C 	0.921	0.49417	0.09717	-0.091
Mof_C 	C 	0.95913	0.5125	0.04957	-0.036
Mof_H 	H 	0.97153	0.54127	0.03327	0.044
Mof_H 	H 	0.82873	0.39247	0.07117	-0.084
Mof_H 	H 	0.78203	0.36917	0.19197	0.279
Mof_O 	O 	0.44235	0.48053	0.42157	-0.411
Mof_O 	O 	0.43589	0.48664	0.56596	-0.409
Mof_C 	C 	0.42145	0.47837	0.4905	0.371
Mof_C 	C 	0.37475	0.46373	0.477	-0.148
Mof_C 	C 	0.34744	0.45742	0.5444	0.095
Mof_H 	H 	0.3581	0.4631	0.6009	0.009
Mof_C 	C 	0.30412	0.44266	0.53	-0.182
Mof_H 	H 	0.2864	0.4397	0.5767	0.107
Mof_C 	C 	0.28686	0.43233	0.4479	0.139
Mof_C 	C 	0.31485	0.44055	0.3787	-0.177
Mof_H 	H 	0.3041	0.4352	0.3223	0.094
Mof_C 	C 	0.3581	0.45639	0.3921	0.087
Mof_H 	H 	0.3764	0.4623	0.3448	0.015
Mof_C 	C 	0.23983	0.41233	0.4305	-0.091
Mof_C 	C 	0.22003	0.3742	0.3829	-0.036
Mof_H 	H 	0.2364	0.3618	0.3666	0.044
Mof_H 	H 	0.2304	0.5046	0.4045	-0.084
Mof_H 	H 	0.2538	0.5513	0.5253	0.279
Mof_O 	O 	0.10902	0.81386	0.7549	-0.411
Mof_O 	O 	0.10256	0.81997	0.89929	-0.409
Mof_C 	C 	0.08812	0.8117	0.82383	0.371
Mof_C 	C 	0.04142	0.79706	0.81033	-0.148
Mof_C 	C 	0.01411	0.79075	0.87773	0.095
Mof_H 	H 	0.02477	0.79643	0.93423	0.009
Mof_C 	C 	0.97079	0.77599	0.86333	-0.182
Mof_H 	H 	0.95307	0.77303	0.91003	0.107
Mof_C 	C 	0.95353	0.76566	0.78123	0.139
Mof_C 	C 	0.98152	0.77388	0.71203	-0.177
Mof_H 	H 	0.97077	0.76853	0.65563	0.094
Mof_C 	C 	0.02477	0.78972	0.72543	0.088
Mof_H 	H 	0.04307	0.79563	0.67813	0.015
Mof_C 	C 	0.9065	0.74566	0.76383	-0.091
Mof_C 	C 	0.8867	0.70753	0.71623	-0.036
Mof_H 	H 	0.90307	0.69513	0.69993	0.044
Mof_H 	H 	0.89707	0.83793	0.73783	-0.084
Mof_H 	H 	0.92047	0.88463	0.85863	0.279
Mof_O 	O 	0.77568	0.1472	0.08824	-0.411
Mof_O 	O 	0.76922	0.15331	0.23263	-0.409
Mof_C 	C 	0.75478	0.14504	0.15717	0.371
Mof_C 	C 	0.70808	0.1304	0.14367	-0.148
Mof_C 	C 	0.68077	0.12409	0.21107	0.095
Mof_H 	H 	0.69143	0.12977	0.26757	0.01
Mof_C 	C 	0.63745	0.10933	0.19667	-0.182
Mof_H 	H 	0.61973	0.10637	0.24337	0.107
Mof_C 	C 	0.62019	0.099	0.11457	0.138
Mof_C 	C 	0.64818	0.10722	0.04537	-0.176
Mof_H 	H 	0.63743	0.10187	0.98897	0.094
Mof_C 	C 	0.69143	0.12306	0.05877	0.087
Mof_H 	H 	0.70973	0.12897	0.01147	0.015
Mof_C 	C 	0.57316	0.079	0.09717	-0.091
Mof_C 	C 	0.55336	0.04087	0.04957	-0.036
Mof_H 	H 	0.56973	0.02847	0.03327	0.044
Mof_H 	H 	0.56373	0.17127	0.07117	-0.084
Mof_H 	H 	0.58713	0.21797	0.19197	0.279
Mof_O 	O 	0.44235	0.96182	0.42157	-0.411
Mof_O 	O 	0.43589	0.94925	0.56596	-0.409
Mof_C 	C 	0.42145	0.94308	0.4905	0.371
Mof_C 	C 	0.37475	0.91102	0.477	-0.148
Mof_C 	C 	0.34744	0.89002	0.5444	0.095
Mof_H 	H 	0.3581	0.895	0.6009	0.01
Mof_C 	C 	0.30412	0.86146	0.53	-0.182
Mof_H 	H 	0.2864	0.8467	0.5767	0.107
Mof_C 	C 	0.28686	0.85453	0.4479	0.139
Mof_C 	C 	0.31485	0.8743	0.3787	-0.177
Mof_H 	H 	0.3041	0.8689	0.3223	0.094
Mof_C 	C 	0.3581	0.90171	0.3921	0.087
Mof_H 	H 	0.3764	0.9141	0.3448	0.015
Mof_C 	C 	0.23983	0.8275	0.4305	-0.091
Mof_C 	C 	0.22003	0.84583	0.3829	-0.036
Mof_H 	H 	0.2364	0.8746	0.3666	0.044
Mof_H 	H 	0.2304	0.7258	0.4045	-0.084
Mof_H 	H 	0.2538	0.7025	0.5253	0.279
Mof_O 	O 	0.10902	0.29515	0.7549	-0.411
Mof_O 	O 	0.10256	0.28258	0.89929	-0.409
Mof_C 	C 	0.08812	0.27641	0.82383	0.371
Mof_C 	C 	0.04142	0.24435	0.81033	-0.148
Mof_C 	C 	0.01411	0.22335	0.87773	0.095
Mof_H 	H 	0.02477	0.22833	0.93423	0.01
Mof_C 	C 	0.97079	0.19479	0.86333	-0.182
Mof_H 	H 	0.95307	0.18003	0.91003	0.107
Mof_C 	C 	0.95353	0.18786	0.78123	0.138
Mof_C 	C 	0.98152	0.20763	0.71203	-0.177
Mof_H 	H 	0.97077	0.20223	0.65563	0.094
Mof_C 	C 	0.02477	0.23504	0.72543	0.087
Mof_H 	H 	0.04307	0.24743	0.67813	0.015
Mof_C 	C 	0.9065	0.16083	0.76383	-0.091
Mof_C 	C 	0.8867	0.17916	0.71623	-0.036
Mof_H 	H 	0.90307	0.20793	0.69993	0.044
Mof_H 	H 	0.89707	0.05913	0.73783	-0.084
Mof_H 	H 	0.92047	0.03583	0.85863	0.279
Mof_O 	O 	0.77568	0.62849	0.08824	-0.411
Mof_O 	O 	0.76922	0.61592	0.23263	-0.409
Mof_C 	C 	0.75478	0.60975	0.15717	0.371
Mof_C 	C 	0.70808	0.57769	0.14367	-0.148
Mof_C 	C 	0.68077	0.55669	0.21107	0.095
Mof_H 	H 	0.69143	0.56167	0.26757	0.01
Mof_C 	C 	0.63745	0.52813	0.19667	-0.182
Mof_H 	H 	0.61973	0.51337	0.24337	0.107
Mof_C 	C 	0.62019	0.5212	0.11457	0.138
Mof_C 	C 	0.64818	0.54097	0.04537	-0.176
Mof_H 	H 	0.63743	0.53557	0.98897	0.094
Mof_C 	C 	0.69143	0.56838	0.05877	0.087
Mof_H 	H 	0.70973	0.58077	0.01147	0.015
Mof_C 	C 	0.57316	0.49417	0.09717	-0.091
Mof_C 	C 	0.55336	0.5125	0.04957	-0.036
Mof_H 	H 	0.56973	0.54127	0.03327	0.044
Mof_H 	H 	0.56373	0.39247	0.07117	-0.084
Mof_H 	H 	0.58713	0.36917	0.19197	0.279
Mof_O 	O 	0.03818	0.48053	0.42157	-0.411
Mof_O 	O 	0.05075	0.48664	0.56596	-0.409
Mof_C 	C 	0.05692	0.47837	0.4905	0.371
Mof_C 	C 	0.08898	0.46373	0.477	-0.148
Mof_C 	C 	0.10998	0.45742	0.5444	0.095
Mof_H 	H 	0.105	0.4631	0.6009	0.01
Mof_C 	C 	0.13854	0.44266	0.53	-0.182
Mof_H 	H 	0.1533	0.4397	0.5767	0.107
Mof_C 	C 	0.14547	0.43233	0.4479	0.139
Mof_C 	C 	0.1257	0.44055	0.3787	-0.177
Mof_H 	H 	0.1311	0.4352	0.3223	0.094
Mof_C 	C 	0.09829	0.45639	0.3921	0.087
Mof_H 	H 	0.0859	0.4623	0.3448	0.015
Mof_C 	C 	0.1725	0.41233	0.4305	-0.091
Mof_C 	C 	0.15417	0.3742	0.3829	-0.036
Mof_H 	H 	0.1254	0.3618	0.3666	0.044
Mof_H 	H 	0.2742	0.5046	0.4045	-0.084
Mof_H 	H 	0.2975	0.5513	0.5253	0.279
Mof_O 	O 	0.70485	0.81386	0.7549	-0.411
Mof_O 	O 	0.71742	0.81997	0.89929	-0.409
Mof_C 	C 	0.72359	0.8117	0.82383	0.371
Mof_C 	C 	0.75565	0.79706	0.81033	-0.148
Mof_C 	C 	0.77665	0.79075	0.87773	0.095
Mof_H 	H 	0.77167	0.79643	0.93423	0.01
Mof_C 	C 	0.80521	0.77599	0.86333	-0.182
Mof_H 	H 	0.81997	0.77303	0.91003	0.107
Mof_C 	C 	0.81214	0.76566	0.78123	0.139
Mof_C 	C 	0.79237	0.77388	0.71203	-0.177
Mof_H 	H 	0.79777	0.76853	0.65563	0.094
Mof_C 	C 	0.76496	0.78972	0.72543	0.087
Mof_H 	H 	0.75257	0.79563	0.67813	0.015
Mof_C 	C 	0.83917	0.74566	0.76383	-0.091
Mof_C 	C 	0.82084	0.70753	0.71623	-0.036
Mof_H 	H 	0.79207	0.69513	0.69993	0.044
Mof_H 	H 	0.94087	0.83793	0.73783	-0.084
Mof_H 	H 	0.96417	0.88463	0.85863	0.279
Mof_O 	O 	0.37151	0.1472	0.08824	-0.411
Mof_O 	O 	0.38408	0.15331	0.23263	-0.409
Mof_C 	C 	0.39025	0.14504	0.15717	0.371
Mof_C 	C 	0.42231	0.1304	0.14367	-0.148
Mof_C 	C 	0.44331	0.12409	0.21107	0.095
Mof_H 	H 	0.43833	0.12977	0.26757	0.01
Mof_C 	C 	0.47187	0.10933	0.19667	-0.182
Mof_H 	H 	0.48663	0.10637	0.24337	0.107
Mof_C 	C 	0.4788	0.099	0.11457	0.138
Mof_C 	C 	0.45903	0.10722	0.04537	-0.176
Mof_H 	H 	0.46443	0.10187	0.98897	0.094
Mof_C 	C 	0.43162	0.12306	0.05877	0.087
Mof_H 	H 	0.41923	0.12897	0.01147	0.015
Mof_C 	C 	0.50583	0.079	0.09717	-0.091
Mof_C 	C 	0.4875	0.04087	0.04957	-0.036
Mof_H 	H 	0.45873	0.02847	0.03327	0.044
Mof_H 	H 	0.60753	0.17127	0.07117	-0.084
Mof_H 	H 	0.63083	0.21797	0.19197	0.279
Mof_O 	O 	0.51947	0.55765	0.42157	-0.411
Mof_O 	O 	0.51336	0.56411	0.56596	-0.409
Mof_C 	C 	0.52163	0.57855	0.4905	0.371
Mof_C 	C 	0.53627	0.62525	0.477	-0.148
Mof_C 	C 	0.54258	0.65256	0.5444	0.095
Mof_H 	H 	0.5369	0.6419	0.6009	0.009
Mof_C 	C 	0.55734	0.69588	0.53	-0.182
Mof_H 	H 	0.5603	0.7136	0.5767	0.107
Mof_C 	C 	0.56767	0.71314	0.4479	0.139
Mof_C 	C 	0.55945	0.68515	0.3787	-0.177
Mof_H 	H 	0.5648	0.6959	0.3223	0.094
Mof_C 	C 	0.54361	0.6419	0.3921	0.087
Mof_H 	H 	0.5377	0.6236	0.3448	0.015
Mof_C 	C 	0.58767	0.76017	0.4305	-0.091
Mof_C 	C 	0.6258	0.77997	0.3829	-0.036
Mof_H 	H 	0.6382	0.7636	0.3666	0.044
Mof_H 	H 	0.4954	0.7696	0.4045	-0.084
Mof_H 	H 	0.4487	0.7462	0.5253	0.279
Mof_O 	O 	0.18614	0.89098	0.7549	-0.411
Mof_O 	O 	0.18003	0.89744	0.89929	-0.409
Mof_C 	C 	0.1883	0.91188	0.82383	0.371
Mof_C 	C 	0.20294	0.95858	0.81033	-0.148
Mof_C 	C 	0.20925	0.98589	0.87773	0.095
Mof_H 	H 	0.20357	0.97523	0.93423	0.009
Mof_C 	C 	0.22401	0.02921	0.86333	-0.182
Mof_H 	H 	0.22697	0.04693	0.91003	0.107
Mof_C 	C 	0.23434	0.04647	0.78123	0.139
Mof_C 	C 	0.22612	0.01848	0.71203	-0.177
Mof_H 	H 	0.23147	0.02923	0.65563	0.094
Mof_C 	C 	0.21028	0.97523	0.72543	0.088
Mof_H 	H 	0.20437	0.95693	0.67813	0.015
Mof_C 	C 	0.25434	0.0935	0.76383	-0.091
Mof_C 	C 	0.29247	0.1133	0.71623	-0.036
Mof_H 	H 	0.30487	0.09693	0.69993	0.044
Mof_H 	H 	0.16207	0.10293	0.73783	-0.084
Mof_H 	H 	0.11537	0.07953	0.85863	0.279
Mof_O 	O 	0.8528	0.22432	0.08824	-0.411
Mof_O 	O 	0.84669	0.23078	0.23263	-0.409
Mof_C 	C 	0.85496	0.24522	0.15717	0.371
Mof_C 	C 	0.8696	0.29192	0.14367	-0.148
Mof_C 	C 	0.87591	0.31923	0.21107	0.095
Mof_H 	H 	0.87023	0.30857	0.26757	0.01
Mof_C 	C 	0.89067	0.36255	0.19667	-0.182
Mof_H 	H 	0.89363	0.38027	0.24337	0.107
Mof_C 	C 	0.901	0.37981	0.11457	0.138
Mof_C 	C 	0.89278	0.35182	0.04537	-0.176
Mof_H 	H 	0.89813	0.36257	0.98897	0.094
Mof_C 	C 	0.87694	0.30857	0.05877	0.087
Mof_H 	H 	0.87103	0.29027	0.01147	0.015
Mof_C 	C 	0.921	0.42684	0.09717	-0.091
Mof_C 	C 	0.95913	0.44664	0.04957	-0.036
Mof_H 	H 	0.97153	0.43027	0.03327	0.044
Mof_H 	H 	0.82873	0.43627	0.07117	-0.084
Mof_H 	H 	0.78203	0.41287	0.19197	0.279
Mof_O 	O 	0.96182	0.44235	0.57843	-0.411
Mof_O 	O 	0.94925	0.43589	0.43404	-0.409
Mof_C 	C 	0.94308	0.42145	0.5095	0.371
Mof_C 	C 	0.91102	0.37475	0.523	-0.148
Mof_C 	C 	0.89002	0.34744	0.4556	0.095
Mof_H 	H 	0.895	0.3581	0.3991	0.01
Mof_C 	C 	0.86146	0.30412	0.47	-0.182
Mof_H 	H 	0.8467	0.2864	0.4233	0.107
Mof_C 	C 	0.85453	0.28686	0.5521	0.139
Mof_C 	C 	0.8743	0.31485	0.6213	-0.177
Mof_H 	H 	0.8689	0.3041	0.6777	0.094
Mof_C 	C 	0.90171	0.3581	0.6079	0.087
Mof_H 	H 	0.9141	0.3764	0.6552	0.015
Mof_C 	C 	0.8275	0.23983	0.5695	-0.091
Mof_C 	C 	0.84583	0.22003	0.6171	-0.036
Mof_H 	H 	0.8746	0.2364	0.6334	0.044
Mof_H 	H 	0.7258	0.2304	0.5955	-0.084
Mof_H 	H 	0.7025	0.2538	0.4747	0.279
Mof_O 	O 	0.62849	0.77568	0.91176	-0.411
Mof_O 	O 	0.61592	0.76922	0.76737	-0.409
Mof_C 	C 	0.60975	0.75478	0.84283	0.371
Mof_C 	C 	0.57769	0.70808	0.85633	-0.148
Mof_C 	C 	0.55669	0.68077	0.78893	0.095
Mof_H 	H 	0.56167	0.69143	0.73243	0.01
Mof_C 	C 	0.52813	0.63745	0.80333	-0.182
Mof_H 	H 	0.51337	0.61973	0.75663	0.107
Mof_C 	C 	0.5212	0.62019	0.88543	0.138
Mof_C 	C 	0.54097	0.64818	0.95463	-0.176
Mof_H 	H 	0.53557	0.63743	0.01103	0.094
Mof_C 	C 	0.56838	0.69143	0.94123	0.087
Mof_H 	H 	0.58077	0.70973	0.98853	0.015
Mof_C 	C 	0.49417	0.57316	0.90283	-0.091
Mof_C 	C 	0.5125	0.55336	0.95043	-0.036
Mof_H 	H 	0.54127	0.56973	0.96673	0.044
Mof_H 	H 	0.39247	0.56373	0.92883	-0.084
Mof_H 	H 	0.36917	0.58713	0.80803	0.279
Mof_O 	O 	0.29515	0.10902	0.2451	-0.411
Mof_O 	O 	0.28258	0.10256	0.10071	-0.409
Mof_C 	C 	0.27641	0.08812	0.17617	0.371
Mof_C 	C 	0.24435	0.04142	0.18967	-0.148
Mof_C 	C 	0.22335	0.01411	0.12227	0.095
Mof_H 	H 	0.22833	0.02477	0.06577	0.01
Mof_C 	C 	0.19479	0.97079	0.13667	-0.182
Mof_H 	H 	0.18003	0.95307	0.08997	0.107
Mof_C 	C 	0.18786	0.95353	0.21877	0.138
Mof_C 	C 	0.20763	0.98152	0.28797	-0.177
Mof_H 	H 	0.20223	0.97077	0.34437	0.094
Mof_C 	C 	0.23504	0.02477	0.27457	0.087
Mof_H 	H 	0.24743	0.04307	0.32187	0.015
Mof_C 	C 	0.16083	0.9065	0.23617	-0.091
Mof_C 	C 	0.17916	0.8867	0.28377	-0.036
Mof_H 	H 	0.20793	0.90307	0.30007	0.044
Mof_H 	H 	0.05913	0.89707	0.26217	-0.084
Mof_H 	H 	0.03583	0.92047	0.14137	0.279
Mof_O 	O 	0.48053	0.03818	0.57843	-0.411
Mof_O 	O 	0.48664	0.05075	0.43404	-0.409
Mof_C 	C 	0.47837	0.05692	0.5095	0.371
Mof_C 	C 	0.46373	0.08898	0.523	-0.148
Mof_C 	C 	0.45742	0.10998	0.4556	0.095
Mof_H 	H 	0.4631	0.105	0.3991	0.01
Mof_C 	C 	0.44266	0.13854	0.47	-0.182
Mof_H 	H 	0.4397	0.1533	0.4233	0.107
Mof_C 	C 	0.43233	0.14547	0.5521	0.139
Mof_C 	C 	0.44055	0.1257	0.6213	-0.177
Mof_H 	H 	0.4352	0.1311	0.6777	0.094
Mof_C 	C 	0.45639	0.09829	0.6079	0.087
Mof_H 	H 	0.4623	0.0859	0.6552	0.015
Mof_C 	C 	0.41233	0.1725	0.5695	-0.091
Mof_C 	C 	0.3742	0.15417	0.6171	-0.036
Mof_H 	H 	0.3618	0.1254	0.6334	0.044
Mof_H 	H 	0.5046	0.2742	0.5955	-0.084
Mof_H 	H 	0.5513	0.2975	0.4747	0.279
Mof_O 	O 	0.1472	0.37151	0.91176	-0.411
Mof_O 	O 	0.15331	0.38408	0.76737	-0.409
Mof_C 	C 	0.14504	0.39025	0.84283	0.371
Mof_C 	C 	0.1304	0.42231	0.85633	-0.148
Mof_C 	C 	0.12409	0.44331	0.78893	0.095
Mof_H 	H 	0.12977	0.43833	0.73243	0.01
Mof_C 	C 	0.10933	0.47187	0.80333	-0.182
Mof_H 	H 	0.10637	0.48663	0.75663	0.107
Mof_C 	C 	0.099	0.4788	0.88543	0.138
Mof_C 	C 	0.10722	0.45903	0.95463	-0.176
Mof_H 	H 	0.10187	0.46443	0.01103	0.094
Mof_C 	C 	0.12306	0.43162	0.94123	0.087
Mof_H 	H 	0.12897	0.41923	0.98853	0.015
Mof_C 	C 	0.079	0.50583	0.90283	-0.091
Mof_C 	C 	0.04087	0.4875	0.95043	-0.036
Mof_H 	H 	0.02847	0.45873	0.96673	0.044
Mof_H 	H 	0.17127	0.60753	0.92883	-0.084
Mof_H 	H 	0.21797	0.63083	0.80803	0.279
Mof_O 	O 	0.81386	0.70485	0.2451	-0.411
Mof_O 	O 	0.81997	0.71742	0.10071	-0.409
Mof_C 	C 	0.8117	0.72359	0.17617	0.371
Mof_C 	C 	0.79706	0.75565	0.18967	-0.148
Mof_C 	C 	0.79075	0.77665	0.12227	0.095
Mof_H 	H 	0.79643	0.77167	0.06577	0.01
Mof_C 	C 	0.77599	0.80521	0.13667	-0.182
Mof_H 	H 	0.77303	0.81997	0.08997	0.107
Mof_C 	C 	0.76566	0.81214	0.21877	0.139
Mof_C 	C 	0.77388	0.79237	0.28797	-0.177
Mof_H 	H 	0.76853	0.79777	0.34437	0.094
Mof_C 	C 	0.78972	0.76496	0.27457	0.087
Mof_H 	H 	0.79563	0.75257	0.32187	0.015
Mof_C 	C 	0.74566	0.83917	0.23617	-0.091
Mof_C 	C 	0.70753	0.82084	0.28377	-0.036
Mof_H 	H 	0.69513	0.79207	0.30007	0.044
Mof_H 	H 	0.83793	0.94087	0.26217	-0.084
Mof_H 	H 	0.88463	0.96417	0.14137	0.279
Mof_O 	O 	0.55765	0.51947	0.57843	-0.411
Mof_O 	O 	0.56411	0.51336	0.43404	-0.409
Mof_C 	C 	0.57855	0.52163	0.5095	0.371
Mof_C 	C 	0.62525	0.53627	0.523	-0.148
Mof_C 	C 	0.65256	0.54258	0.4556	0.095
Mof_H 	H 	0.6419	0.5369	0.3991	0.009
Mof_C 	C 	0.69588	0.55734	0.47	-0.182
Mof_H 	H 	0.7136	0.5603	0.4233	0.107
Mof_C 	C 	0.71314	0.56767	0.5521	0.139
Mof_C 	C 	0.68515	0.55945	0.6213	-0.177
Mof_H 	H 	0.6959	0.5648	0.6777	0.094
Mof_C 	C 	0.6419	0.54361	0.6079	0.087
Mof_H 	H 	0.6236	0.5377	0.6552	0.015
Mof_C 	C 	0.76017	0.58767	0.5695	-0.091
Mof_C 	C 	0.77997	0.6258	0.6171	-0.036
Mof_H 	H 	0.7636	0.6382	0.6334	0.044
Mof_H 	H 	0.7696	0.4954	0.5955	-0.084
Mof_H 	H 	0.7462	0.4487	0.4747	0.279
Mof_O 	O 	0.22432	0.8528	0.91176	-0.411
Mof_O 	O 	0.23078	0.84669	0.76737	-0.409
Mof_C 	C 	0.24522	0.85496	0.84283	0.371
Mof_C 	C 	0.29192	0.8696	0.85633	-0.148
Mof_C 	C 	0.31923	0.87591	0.78893	0.095
Mof_H 	H 	0.30857	0.87023	0.73243	0.01
Mof_C 	C 	0.36255	0.89067	0.80333	-0.182
Mof_H 	H 	0.38027	0.89363	0.75663	0.107
Mof_C 	C 	0.37981	0.901	0.88543	0.138
Mof_C 	C 	0.35182	0.89278	0.95463	-0.176
Mof_H 	H 	0.36257	0.89813	0.01103	0.094
Mof_C 	C 	0.30857	0.87694	0.94123	0.087
Mof_H 	H 	0.29027	0.87103	0.98853	0.015
Mof_C 	C 	0.42684	0.921	0.90283	-0.091
Mof_C 	C 	0.44664	0.95913	0.95043	-0.036
Mof_H 	H 	0.43027	0.97153	0.96673	0.044
Mof_H 	H 	0.43627	0.82873	0.92883	-0.084
Mof_H 	H 	0.41287	0.78203	0.80803	0.279
Mof_O 	O 	0.89098	0.18614	0.2451	-0.411
Mof_O 	O 	0.89744	0.18003	0.10071	-0.409
Mof_C 	C 	0.91188	0.1883	0.17617	0.371
Mof_C 	C 	0.95858	0.20294	0.18967	-0.148
Mof_C 	C 	0.98589	0.20925	0.12227	0.095
Mof_H 	H 	0.97523	0.20357	0.06577	0.009
Mof_C 	C 	0.02921	0.22401	0.13667	-0.182
Mof_H 	H 	0.04693	0.22697	0.08997	0.107
Mof_C 	C 	0.04647	0.23434	0.21877	0.139
Mof_C 	C 	0.01848	0.22612	0.28797	-0.177
Mof_H 	H 	0.02923	0.23147	0.34437	0.094
Mof_C 	C 	0.97523	0.21028	0.27457	0.088
Mof_H 	H 	0.95693	0.20437	0.32187	0.015
Mof_C 	C 	0.0935	0.25434	0.23617	-0.091
Mof_C 	C 	0.1133	0.29247	0.28377	-0.036
Mof_H 	H 	0.09693	0.30487	0.30007	0.044
Mof_H 	H 	0.10293	0.16207	0.26217	-0.084
Mof_H 	H 	0.07953	0.11537	0.14137	0.279
Mof_Cu	Cu	0.50342	0.00684	0.41513	0.903
Mof_Cu	Cu	0.17009	0.34017	0.74846	0.902
Mof_Cu	Cu	0.83675	0.67351	0.0818	0.903
Mof_Cu	Cu	0.99316	0.49658	0.41513	0.903
Mof_Cu	Cu	0.65983	0.82991	0.74846	0.902
Mof_Cu	Cu	0.32649	0.16325	0.0818	0.903
Mof_Cu	Cu	0.50342	0.49658	0.41513	0.902
Mof_Cu	Cu	0.17009	0.82991	0.74846	0.903
Mof_Cu	Cu	0.83675	0.16325	0.0818	0.903
Mof_Cu	Cu	0.00684	0.50342	0.58487	0.903
Mof_Cu	Cu	0.67351	0.83675	0.9182	0.903
Mof_Cu	Cu	0.34017	0.17009	0.25154	0.902
Mof_Cu	Cu	0.49658	0.99316	0.58487	0.903
Mof_Cu	Cu	0.16325	0.32649	0.9182	0.903
Mof_Cu	Cu	0.82991	0.65983	0.25154	0.902
Mof_Cu	Cu	0.49658	0.50342	0.58487	0.902
Mof_Cu	Cu	0.16325	0.83675	0.9182	0.903
Mof_Cu	Cu	0.82991	0.17009	0.25154	0.903
Mof_O 	O 	0.76548	0.23452	0.4988	-0.286
Mof_C 	C 	0.82301	0.17699	0.6412	0.001
Mof_C 	C 	0.78459	0.21541	0.5445	0.165
Mof_C 	C 	0.7469	0.2531	0.5585	0.388
Mof_C 	C 	0.7253	0.2747	0.5105	-0.85
Mof_H 	H 	0.7138	0.2862	0.552	0.27
Mof_O 	O 	0.43215	0.56785	0.83213	-0.286
Mof_C 	C 	0.48968	0.51032	0.97453	0.001
Mof_C 	C 	0.45126	0.54874	0.87783	0.165
Mof_C 	C 	0.41357	0.58643	0.89183	0.388
Mof_C 	C 	0.39197	0.60803	0.84383	-0.85
Mof_H 	H 	0.38047	0.61953	0.88533	0.271
Mof_O 	O 	0.09881	0.90119	0.16547	-0.286
Mof_C 	C 	0.15634	0.84366	0.30787	0.001
Mof_C 	C 	0.11792	0.88208	0.21117	0.165
Mof_C 	C 	0.08023	0.91977	0.22517	0.388
Mof_C 	C 	0.05863	0.94137	0.17717	-0.85
Mof_H 	H 	0.04713	0.95287	0.21867	0.271
Mof_O 	O 	0.76548	0.53096	0.4988	-0.286
Mof_C 	C 	0.82301	0.64602	0.6412	0.001
Mof_C 	C 	0.78459	0.56918	0.5445	0.165
Mof_C 	C 	0.7469	0.4938	0.5585	0.388
Mof_C 	C 	0.7253	0.4506	0.5105	-0.85
Mof_H 	H 	0.7138	0.4276	0.552	0.27
Mof_O 	O 	0.43215	0.86429	0.83213	-0.286
Mof_C 	C 	0.48968	0.97935	0.97453	0.001
Mof_C 	C 	0.45126	0.90251	0.87783	0.165
Mof_C 	C 	0.41357	0.82713	0.89183	0.388
Mof_C 	C 	0.39197	0.78393	0.84383	-0.85
Mof_H 	H 	0.38047	0.76093	0.88533	0.271
Mof_O 	O 	0.09881	0.19763	0.16547	-0.286
Mof_C 	C 	0.15634	0.31269	0.30787	0.001
Mof_C 	C 	0.11792	0.23585	0.21117	0.165
Mof_C 	C 	0.08023	0.16047	0.22517	0.388
Mof_C 	C 	0.05863	0.11727	0.17717	-0.85
Mof_H 	H 	0.04713	0.09427	0.21867	0.271
Mof_O 	O 	0.46904	0.23452	0.4988	-0.286
Mof_C 	C 	0.35398	0.17699	0.6412	0.001
Mof_C 	C 	0.43082	0.21541	0.5445	0.165
Mof_C 	C 	0.5062	0.2531	0.5585	0.388
Mof_C 	C 	0.5494	0.2747	0.5105	-0.85
Mof_H 	H 	0.5724	0.2862	0.552	0.27
Mof_O 	O 	0.13571	0.56785	0.83213	-0.286
Mof_C 	C 	0.02065	0.51032	0.97453	0.001
Mof_C 	C 	0.09749	0.54874	0.87783	0.165
Mof_C 	C 	0.17287	0.58643	0.89183	0.388
Mof_C 	C 	0.21607	0.60803	0.84383	-0.85
Mof_H 	H 	0.23907	0.61953	0.88533	0.271
Mof_O 	O 	0.80237	0.90119	0.16547	-0.286
Mof_C 	C 	0.68731	0.84366	0.30787	0.001
Mof_C 	C 	0.76415	0.88208	0.21117	0.165
Mof_C 	C 	0.83953	0.91977	0.22517	0.388
Mof_C 	C 	0.88273	0.94137	0.17717	-0.85
Mof_H 	H 	0.90573	0.95287	0.21867	0.271
Mof_O 	O 	0.23452	0.76548	0.5012	-0.286
Mof_C 	C 	0.17699	0.82301	0.3588	0.001
Mof_C 	C 	0.21541	0.78459	0.4555	0.165
Mof_C 	C 	0.2531	0.7469	0.4415	0.388
Mof_C 	C 	0.2747	0.7253	0.4895	-0.85
Mof_H 	H 	0.2862	0.7138	0.448	0.27
Mof_O 	O 	0.90119	0.09881	0.83453	-0.286
Mof_C 	C 	0.84366	0.15634	0.69213	0.001
Mof_C 	C 	0.88208	0.11792	0.78883	0.165
Mof_C 	C 	0.91977	0.08023	0.77483	0.388
Mof_C 	C 	0.94137	0.05863	0.82283	-0.85
Mof_H 	H 	0.95287	0.04713	0.78133	0.271
Mof_O 	O 	0.56785	0.43215	0.16787	-0.286
Mof_C 	C 	0.51032	0.48968	0.02547	0.001
Mof_C 	C 	0.54874	0.45126	0.12217	0.165
Mof_C 	C 	0.58643	0.41357	0.10817	0.388
Mof_C 	C 	0.60803	0.39197	0.15617	-0.85
Mof_H 	H 	0.61953	0.38047	0.11467	0.271
Mof_O 	O 	0.53096	0.76548	0.5012	-0.286
Mof_C 	C 	0.64602	0.82301	0.3588	0.001
Mof_C 	C 	0.56918	0.78459	0.4555	0.165
Mof_C 	C 	0.4938	0.7469	0.4415	0.388
Mof_C 	C 	0.4506	0.7253	0.4895	-0.85
Mof_H 	H 	0.4276	0.7138	0.448	0.27
Mof_O 	O 	0.19763	0.09881	0.83453	-0.286
Mof_C 	C 	0.31269	0.15634	0.69213	0.001
Mof_C 	C 	0.23585	0.11792	0.78883	0.165
Mof_C 	C 	0.16047	0.08023	0.77483	0.388
Mof_C 	C 	0.11727	0.05863	0.82283	-0.85
Mof_H 	H 	0.09427	0.04713	0.78133	0.271
Mof_O 	O 	0.86429	0.43215	0.16787	-0.286
Mof_C 	C 	0.97935	0.48968	0.02547	0.001
Mof_C 	C 	0.90251	0.45126	0.12217	0.165
Mof_C 	C 	0.82713	0.41357	0.10817	0.388
Mof_C 	C 	0.78393	0.39197	0.15617	-0.85
Mof_H 	H 	0.76093	0.38047	0.11467	0.271
Mof_O 	O 	0.23452	0.46904	0.5012	-0.286
Mof_C 	C 	0.17699	0.35398	0.3588	0.001
Mof_C 	C 	0.21541	0.43082	0.4555	0.165
Mof_C 	C 	0.2531	0.5062	0.4415	0.388
Mof_C 	C 	0.2747	0.5494	0.4895	-0.85
Mof_H 	H 	0.2862	0.5724	0.448	0.27
Mof_O 	O 	0.90119	0.80237	0.83453	-0.286
Mof_C 	C 	0.84366	0.68731	0.69213	0.001
Mof_C 	C 	0.88208	0.76415	0.78883	0.165
Mof_C 	C 	0.91977	0.83953	0.77483	0.388
Mof_C 	C 	0.94137	0.88273	0.82283	-0.85
Mof_H 	H 	0.95287	0.90573	0.78133	0.271
Mof_O 	O 	0.56785	0.13571	0.16787	-0.286
Mof_C 	C 	0.51032	0.02065	0.02547	0.001
Mof_C 	C 	0.54874	0.09749	0.12217	0.165
Mof_C 	C 	0.58643	0.17287	0.10817	0.388
Mof_C 	C 	0.60803	0.21607	0.15617	-0.85
Mof_H 	H 	0.61953	0.23907	0.11467	0.271
_end
