data_functionalizedCrystal
_audit_creation_method	'EQeq! by Chris Wilmer'
_symmetry_space_group_name_H-M	'P1'
_symmetry_Int_Tables_number	1
_symmetry_cell_setting	triclinic
loop_
_symmetry_equiv_pos_as_xyz
  x,y,z
_cell_length_a	5.5286
_cell_length_b	13.314
_cell_length_c	20.599
_cell_angle_alpha	90
_cell_angle_beta	95.244
_cell_angle_gamma	90
loop_
_atom_site_label
_atom_site_type_symbol
_atom_site_fract_x
_atom_site_fract_y
_atom_site_fract_z
_atom_site_charge
Mof_Dy	Dy	0.87235	0.63267	0.52782	1.761
Mof_Dy	Dy	0.12765	0.13267	0.97218	1.751
Mof_Dy	Dy	0.12765	0.36733	0.47218	1.761
Mof_Dy	Dy	0.87235	0.86733	0.02782	1.751
Mof_P 	P 	0.5899	0.5209	0.41395	0.493
Mof_P 	P 	0.4101	0.0209	0.08605	0.493
Mof_P 	P 	0.4101	0.4791	0.58605	0.492
Mof_P 	P 	0.5899	0.9791	0.91395	0.492
Mof_H 	H 	0.8349	0.5804	0.3366	0.074
Mof_H 	H 	0.7408	0.4727	0.3171	0.1
Mof_H 	H 	0.6225	0.7287	0.2983	0.039
Mof_H 	H 	0.4144	0.6989	0.3418	0.042
Mof_H 	H 	0.1249	0.7011	0.2488	0.05
Mof_H 	H 	0.2533	0.8063	0.2549	0.044
Mof_H 	H 	0.5153	0.7587	0.1753	0.067
Mof_H 	H 	0.4517	0.5997	0.1219	0.024
Mof_H 	H 	0.2482	0.5734	0.1677	0.038
Mof_H 	H 	0.6255	0.4975	0.2098	0.043
Mof_H 	H 	0.7484	0.6041	0.215	0.048
Mof_H 	H 	0.1651	0.0804	0.1634	0.074
Mof_H 	H 	0.2592	0.9727	0.1829	0.102
Mof_H 	H 	0.3775	0.2287	0.2017	0.041
Mof_H 	H 	0.5856	0.1989	0.1582	0.043
Mof_H 	H 	0.8751	0.2011	0.2512	0.049
Mof_H 	H 	0.7467	0.3063	0.2451	0.043
Mof_H 	H 	0.4847	0.2587	0.3247	0.068
Mof_H 	H 	0.5483	0.0997	0.3781	0.023
Mof_H 	H 	0.7518	0.0734	0.3323	0.037
Mof_H 	H 	0.3745	0.9975	0.2902	0.043
Mof_H 	H 	0.2516	0.1041	0.285	0.048
Mof_H 	H 	0.1651	0.4196	0.6634	0.074
Mof_H 	H 	0.2592	0.5273	0.6829	0.1
Mof_H 	H 	0.3775	0.2713	0.7017	0.039
Mof_H 	H 	0.5856	0.3011	0.6582	0.042
Mof_H 	H 	0.8751	0.2989	0.7512	0.05
Mof_H 	H 	0.7467	0.1937	0.7451	0.044
Mof_H 	H 	0.4847	0.2413	0.8247	0.067
Mof_H 	H 	0.5483	0.4003	0.8781	0.024
Mof_H 	H 	0.7518	0.4266	0.8323	0.038
Mof_H 	H 	0.3745	0.5025	0.7902	0.043
Mof_H 	H 	0.2516	0.3959	0.785	0.048
Mof_H 	H 	0.8349	0.9196	0.8366	0.074
Mof_H 	H 	0.7408	0.0273	0.8171	0.102
Mof_H 	H 	0.6225	0.7713	0.7983	0.041
Mof_H 	H 	0.4144	0.8011	0.8418	0.043
Mof_H 	H 	0.1249	0.7989	0.7488	0.049
Mof_H 	H 	0.2533	0.6937	0.7549	0.043
Mof_H 	H 	0.5153	0.7413	0.6753	0.068
Mof_H 	H 	0.4517	0.9003	0.6219	0.023
Mof_H 	H 	0.2482	0.9266	0.6677	0.037
Mof_H 	H 	0.6255	0.0025	0.7098	0.043
Mof_H 	H 	0.7484	0.8959	0.715	0.048
Mof_C 	C 	0.6922	0.5377	0.3328	-0.218
Mof_C 	C 	0.471	0.6922	0.2988	-0.071
Mof_C 	C 	0.278	0.7356	0.2464	-0.064
Mof_C 	C 	0.361	0.723	0.1779	-0.132
Mof_C 	C 	0.4	0.6094	0.1651	-0.057
Mof_C 	C 	0.597	0.5682	0.2175	-0.078
Mof_C 	C 	0.1704	0.7642	0.1251	0.346
Mof_C 	C 	0.3078	0.0377	0.1672	-0.222
Mof_C 	C 	0.529	0.1922	0.2012	-0.073
Mof_C 	C 	0.722	0.2356	0.2536	-0.062
Mof_C 	C 	0.639	0.223	0.3221	-0.133
Mof_C 	C 	0.6	0.1094	0.3349	-0.055
Mof_C 	C 	0.403	0.0682	0.2825	-0.08
Mof_C 	C 	0.8296	0.2642	0.3749	0.347
Mof_C 	C 	0.3078	0.4623	0.6672	-0.218
Mof_C 	C 	0.529	0.3078	0.7012	-0.071
Mof_C 	C 	0.722	0.2644	0.7536	-0.064
Mof_C 	C 	0.639	0.277	0.8221	-0.132
Mof_C 	C 	0.6	0.3906	0.8349	-0.057
Mof_C 	C 	0.403	0.4318	0.7825	-0.078
Mof_C 	C 	0.8296	0.2358	0.8749	0.346
Mof_C 	C 	0.6922	0.9623	0.8328	-0.222
Mof_C 	C 	0.471	0.8078	0.7988	-0.073
Mof_C 	C 	0.278	0.7644	0.7464	-0.062
Mof_C 	C 	0.361	0.777	0.6779	-0.133
Mof_C 	C 	0.4	0.8906	0.6651	-0.055
Mof_C 	C 	0.597	0.9318	0.7175	-0.08
Mof_C 	C 	0.1704	0.7358	0.6251	0.347
Mof_N 	N 	0.5095	0.5822	0.2834	-0.069
Mof_N 	N 	0.4905	0.0822	0.2166	-0.068
Mof_N 	N 	0.4905	0.4178	0.7166	-0.069
Mof_N 	N 	0.5095	0.9178	0.7834	-0.068
Mof_O 	O 	0.5408	0.623	0.4444	-0.485
Mof_O 	O 	0.8224	0.4814	0.4543	-0.603
Mof_O 	O 	0.376	0.4502	0.4091	-0.482
Mof_O 	O 	0.002	0.8192	0.1409	-0.425
Mof_O 	O 	0.1978	0.7488	0.0674	-0.48
Mof_O 	O 	0.4592	0.123	0.0556	-0.483
Mof_O 	O 	0.1776	0.9814	0.0457	-0.598
Mof_O 	O 	0.624	0.9502	0.0909	-0.482
Mof_O 	O 	0.998	0.3192	0.3591	-0.428
Mof_O 	O 	0.8022	0.2488	0.4326	-0.482
Mof_O 	O 	0.4592	0.377	0.5556	-0.485
Mof_O 	O 	0.1776	0.5186	0.5457	-0.603
Mof_O 	O 	0.624	0.5498	0.5909	-0.482
Mof_O 	O 	0.998	0.1808	0.8591	-0.425
Mof_O 	O 	0.8022	0.2512	0.9326	-0.48
Mof_O 	O 	0.5408	0.877	0.9444	-0.483
Mof_O 	O 	0.8224	0.0186	0.9543	-0.598
Mof_O 	O 	0.376	0.0498	0.9091	-0.482
Mof_O 	O 	0.002	0.6808	0.6409	-0.428
Mof_O 	O 	0.1978	0.7512	0.5674	-0.482
_end
