data_functionalizedCrystal
_audit_creation_method	'EQeq! by Chris Wilmer'
_symmetry_space_group_name_H-M	'P1'
_symmetry_Int_Tables_number	1
_symmetry_cell_setting	triclinic
loop_
_symmetry_equiv_pos_as_xyz
  x,y,z
_cell_length_a	9.37
_cell_length_b	9.902
_cell_length_c	11.429
_cell_angle_alpha	93.942
_cell_angle_beta	98.075
_cell_angle_gamma	110.692
loop_
_atom_site_label
_atom_site_type_symbol
_atom_site_fract_x
_atom_site_fract_y
_atom_site_fract_z
_atom_site_charge
Mof_Nd	Nd	0.71605	0.45412	0.01559	2.342
Mof_Nd	Nd	0.28395	0.54588	0.98441	2.342
Mof_H 	H 	0.0626	0.6035	0.4246	-0.026
Mof_H 	H 	0.0815	0.1369	0.835	0.056
Mof_H 	H 	0.8266	0.9022	0.5695	0.139
Mof_H 	H 	0.7345	0.7767	0.3825	-0.033
Mof_H 	H 	0.8038	0.7143	0.7792	0.019
Mof_H 	H 	0.6818	0.0047	0.9622	0.002
Mof_H 	H 	0.1535	0.727	0.6155	0.148
Mof_H 	H 	0.9374	0.3965	0.5754	-0.026
Mof_H 	H 	0.9185	0.8631	0.165	0.056
Mof_H 	H 	0.1734	0.0978	0.4305	0.139
Mof_H 	H 	0.2655	0.2233	0.6175	-0.033
Mof_H 	H 	0.1962	0.2857	0.2208	0.019
Mof_H 	H 	0.3182	0.9953	0.0378	0.002
Mof_H 	H 	0.8465	0.273	0.3845	0.148
Mof_C 	C 	0.0134	0.6618	0.4542	0.163
Mof_C 	C 	0.9961	0.8215	0.6114	0.292
Mof_C 	C 	0.9905	0.0634	0.8441	-0.043
Mof_C 	C 	0.9538	0.9228	0.7923	0.118
Mof_C 	C 	0.9256	0.2454	0.9678	0.529
Mof_C 	C 	0.872	0.84	0.5408	-0.304
Mof_C 	C 	0.8887	0.0936	0.9106	-0.169
Mof_C 	C 	0.8184	0.7656	0.4291	0.181
Mof_C 	C 	0.8851	0.6733	0.3822	-0.219
Mof_C 	C 	0.8231	0.8096	0.8103	-0.04
Mof_C 	C 	0.7527	0.9833	0.9224	0.084
Mof_C 	C 	0.7219	0.8409	0.8752	-0.151
Mof_C 	C 	0.5788	0.7236	0.897	0.436
Mof_C 	C 	0.0684	0.7358	0.5686	-0.293
Mof_C 	C 	0.8234	0.589	0.2628	0.374
Mof_C 	C 	0.9866	0.3382	0.5458	0.163
Mof_C 	C 	0.0039	0.1785	0.3886	0.292
Mof_C 	C 	0.0095	0.9366	0.1559	-0.043
Mof_C 	C 	0.0462	0.0772	0.2077	0.118
Mof_C 	C 	0.0744	0.7546	0.0322	0.529
Mof_C 	C 	0.128	0.16	0.4592	-0.304
Mof_C 	C 	0.1113	0.9064	0.0894	-0.169
Mof_C 	C 	0.1816	0.2344	0.5709	0.181
Mof_C 	C 	0.1149	0.3267	0.6178	-0.219
Mof_C 	C 	0.1769	0.1904	0.1897	-0.04
Mof_C 	C 	0.2473	0.0167	0.0776	0.084
Mof_C 	C 	0.2781	0.1591	0.1248	-0.151
Mof_C 	C 	0.4212	0.2764	0.103	0.436
Mof_C 	C 	0.9316	0.2642	0.4314	-0.293
Mof_C 	C 	0.1766	0.411	0.7372	0.374
Mof_O 	O 	0.7131	0.6092	0.1964	-0.488
Mof_O 	O 	0.0557	0.8938	0.7259	-0.268
Mof_O 	O 	0.821	0.2702	0.0129	-0.605
Mof_O 	O 	0.0563	0.3383	0.9673	-0.626
Mof_O 	O 	0.878	0.4978	0.2252	-0.449
Mof_O 	O 	0.5853	0.6045	0.9256	-0.666
Mof_O 	O 	0.4545	0.7459	0.8877	-0.503
Mof_O 	O 	0.2869	0.3908	0.8036	-0.488
Mof_O 	O 	0.9443	0.1062	0.2741	-0.268
Mof_O 	O 	0.179	0.7298	0.9871	-0.605
Mof_O 	O 	0.9437	0.6617	0.0327	-0.626
Mof_O 	O 	0.122	0.5022	0.7748	-0.449
Mof_O 	O 	0.4147	0.3955	0.0744	-0.666
Mof_O 	O 	0.5455	0.2541	0.1123	-0.503
_end
