data_functionalizedCrystal
_audit_creation_method	'EQeq! by Chris Wilmer'
_symmetry_space_group_name_H-M	'P1'
_symmetry_Int_Tables_number	1
_symmetry_cell_setting	triclinic
loop_
_symmetry_equiv_pos_as_xyz
  x,y,z
_cell_length_a	21.038
_cell_length_b	12.5112
_cell_length_c	53.184
_cell_angle_alpha	90
_cell_angle_beta	94.509
_cell_angle_gamma	90
loop_
_atom_site_label
_atom_site_type_symbol
_atom_site_fract_x
_atom_site_fract_y
_atom_site_fract_z
_atom_site_charge
Mof_In	In	0.87053	0.37325	0.80228	-2.25
Mof_In	In	0.38881	0.6867	0.55366	1.581
Mof_O 	O 	0.9447	0.3263	0.77654	-0.106
Mof_O 	O 	0.8166	0.2268	0.78424	-0.209
Mof_O 	O 	0.7952	0.1374	0.32954	-0.138
Mof_O 	O 	0.9278	0.4967	0.78106	-0.126
Mof_O 	O 	0.8229	0.978	0.31858	-0.136
Mof_O 	O 	0.9413	0.1004	0.33479	-0.008
Mof_O 	O 	0.799	0.3845	0.76791	-0.361
Mof_O 	O 	0.9164	0.2655	0.32699	-0.07
Mof_O 	O 	0.6366	0.7126	0.40297	-0.258
Mof_O 	O 	0.1776	0.3378	0.6913	-0.229
Mof_O 	O 	0.6131	0.2412	0.6581	-0.234
Mof_O 	O 	0.1326	0.166	0.446	-0.242
Mof_N 	N 	0.4721	0.776	0.54888	-0.348
Mof_N 	N 	0.3938	0.6218	0.51716	-0.341
Mof_N 	N 	0.3195	0.5684	0.5605	-0.335
Mof_N 	N 	0.3982	0.7208	0.59301	-0.343
Mof_N 	N 	0.6487	0.0975	0.6831	-0.262
Mof_H 	H 	0.6468	0.0291	0.6841	0.141
Mof_N 	N 	0.6552	0.8853	0.4131	-0.255
Mof_H 	H 	0.6535	0.9319	0.425	0.117
Mof_N 	N 	0.1453	0.5007	0.7022	-0.279
Mof_H 	H 	0.1547	0.5673	0.7008	0.178
Mof_N 	N 	0.1002	0.3232	0.4279	-0.262
Mof_H 	H 	0.1259	0.3693	0.4223	0.131
Mof_C 	C 	0.9541	0.4214	0.77174	0.344
Mof_C 	C 	0.599	0.783	0.442	-0.133
Mof_C 	C 	0.4404	0.787	0.60423	0.107
Mof_C 	C 	0.686	0.9135	0.3912	0.184
Mof_C 	C 	0.7898	0.2855	0.76659	0.33
Mof_C 	C 	0.232	0.276	0.4751	0.07
Mof_H 	H 	0.2458	0.2098	0.4699	0.012
Mof_C 	C 	0.7921	0.0381	0.33159	0.308
Mof_C 	C 	0.2923	0.5503	0.5832	0.106
Mof_C 	C 	0.4388	0.6516	0.5003	0.093
Mof_C 	C 	0.097	0.4786	0.7193	0.259
Mof_C 	C 	0.4862	0.7259	0.5048	-0.166
Mof_C 	C 	0.5031	0.836	0.56711	0.101
Mof_C 	C 	0.6288	0.7875	0.4164	0.251
Mof_C 	C 	0.9468	0.1975	0.3409	0.291
Mof_C 	C 	0.4353	0.7825	0.63123	-0.084
Mof_H 	H 	0.4599	0.8199	0.6436	0.065
Mof_C 	C 	0.35	0.5547	0.5059	0.098
Mof_C 	C 	0.036	0.3565	0.7425	0.143
Mof_H 	H 	0.0232	0.287	0.7457	0.007
Mof_C 	C 	0.2813	0.5578	0.6287	0.149
Mof_C 	C 	0.5566	0.8894	0.5566	-0.086
Mof_H 	H 	0.585	0.9376	0.5646	0.06
Mof_C 	C 	0.2416	0.6232	0.6407	-0.163
Mof_H 	H 	0.2365	0.6936	0.6353	0.101
Mof_C 	C 	0.556	0.8533	0.5322	-0.092
Mof_H 	H 	0.5851	0.8714	0.5206	0.056
Mof_C 	C 	0.5593	0.6615	0.4722	-0.186
Mof_H 	H 	0.5589	0.5938	0.4794	0.082
Mof_C 	C 	0.7195	0.0596	0.3656	0.087
Mof_H 	H 	0.7192	0.1322	0.3619	0.009
Mof_C 	C 	0.0688	0.5637	0.7304	-0.276
Mof_H 	H 	0.0801	0.6336	0.7267	0.176
Mof_C 	C 	0.2895	0.4572	0.6375	-0.191
Mof_H 	H 	0.3176	0.412	0.63	0.113
Mof_C 	C 	0.2574	0.4198	0.6572	0.081
Mof_H 	H 	0.2645	0.35	0.6628	0.022
Mof_C 	C 	0.023	0.5426	0.7472	0.165
Mof_H 	H 	0.0022	0.5998	0.7541	0.001
Mof_C 	C 	0.2845	0.5126	0.542	0.099
Mof_C 	C 	0.5272	0.9219	0.60942	0.131
Mof_C 	C 	0.2991	0.5036	0.5162	-0.176
Mof_C 	C 	0.2084	0.5882	0.6608	0.048
Mof_H 	H 	0.1819	0.6346	0.6688	0.054
Mof_C 	C 	0.7427	0.1289	0.7433	0.135
Mof_H 	H 	0.761	0.0835	0.7557	0.001
Mof_C 	C 	0.2155	0.4827	0.6688	-0.107
Mof_C 	C 	0.3693	0.5408	0.4792	-0.079
Mof_H 	H 	0.3488	0.4975	0.4669	0.055
Mof_C 	C 	0.1783	0.435	0.6891	0.265
Mof_C 	C 	0.2392	0.4801	0.578	-0.082
Mof_H 	H 	0.213	0.4534	0.5898	0.065
Mof_C 	C 	0.0843	0.374	0.7262	-0.246
Mof_H 	H 	0.1071	0.3171	0.7202	0.159
Mof_C 	C 	0.4187	0.5985	0.4765	-0.083
Mof_H 	H 	0.4387	0.6055	0.4616	0.051
Mof_C 	C 	0.0072	0.4415	0.7539	-0.178
Mof_C 	C 	0.9869	0.2275	0.3634	-0.167
Mof_C 	C 	0.7507	0.2395	0.7458	-0.18
Mof_C 	C 	0.6801	0.1513	0.704	0.239
Mof_C 	C 	0.753	0.8868	0.3571	0.097
Mof_H 	H 	0.7758	0.8397	0.3477	0.026
Mof_C 	C 	0.7077	0.0864	0.7223	-0.243
Mof_H 	H 	0.703	0.0127	0.7208	0.121
Mof_C 	C 	0.7543	0.991	0.3513	-0.144
Mof_C 	C 	0.5913	0.063	0.6435	-0.102
Mof_C 	C 	0.7192	0.8441	0.3768	-0.195
Mof_H 	H 	0.7193	0.771	0.38	0.12
Mof_C 	C 	0.2333	0.4593	0.5533	-0.081
Mof_H 	H 	0.2016	0.4178	0.5449	0.061
Mof_C 	C 	0.6855	0.024	0.3852	-0.192
Mof_H 	H 	0.6625	0.0718	0.3943	0.079
Mof_C 	C 	0.2542	0.4404	0.4991	0.172
Mof_C 	C 	0.7196	0.3027	0.7275	0.14
Mof_H 	H 	0.7224	0.3766	0.7291	0.01
Mof_C 	C 	0.5916	0.6793	0.4515	0.077
Mof_H 	H 	0.6091	0.6218	0.4434	-0.005
Mof_C 	C 	0.6192	0.1446	0.6619	0.239
Mof_C 	C 	0.5656	0.8621	0.4514	0.075
Mof_H 	H 	0.5652	0.9288	0.4437	-0.015
Mof_C 	C 	0.0222	0.1551	0.3767	0.137
Mof_H 	H 	0.0223	0.0849	0.371	0.006
Mof_C 	C 	0.531	0.8471	0.47265	-0.185
Mof_H 	H 	0.5113	0.9047	0.4799	0.085
Mof_C 	C 	0.5805	0.8947	0.623	-0.173
Mof_H 	H 	0.5965	0.8261	0.6212	0.091
Mof_C 	C 	0.5267	0.7461	0.48255	0.134
Mof_C 	C 	0.1366	0.263	0.4446	0.244
Mof_C 	C 	0.5026	0.783	0.5277	0.105
Mof_C 	C 	0.4891	0.8437	0.5926	-0.169
Mof_C 	C 	0.6843	0.26	0.7066	-0.243
Mof_H 	H 	0.6639	0.3048	0.6945	0.144
Mof_C 	C 	0.3874	0.7123	0.63484	-0.087
Mof_H 	H 	0.3725	0.6939	0.6503	0.068
Mof_C 	C 	0.6136	0.9643	0.64	0.06
Mof_H 	H 	0.6512	0.942	0.6488	0.008
Mof_C 	C 	0.314	0.5968	0.60637	-0.164
Mof_C 	C 	0.1626	0.429	0.4714	0.107
Mof_H 	H 	0.1265	0.4628	0.464	-0.005
Mof_C 	C 	0.3643	0.6726	0.61097	0.104
Mof_C 	C 	0.5037	0.0255	0.6128	-0.155
Mof_H 	H 	0.4674	0.0471	0.603	0.085
Mof_C 	C 	0.9907	0.3339	0.3704	0.121
Mof_H 	H 	0.9682	0.3867	0.3612	0.006
Mof_C 	C 	0.0589	0.1804	0.3989	-0.241
Mof_H 	H 	0.0813	0.1275	0.4081	0.141
Mof_C 	C 	0.532	0.0961	0.6299	0.05
Mof_H 	H 	0.5139	0.1624	0.6328	0.031
Mof_C 	C 	0.0613	0.2852	0.407	0.235
Mof_C 	C 	0.265	0.3373	0.4941	-0.194
Mof_H 	H 	0.2971	0.3032	0.5041	0.099
Mof_C 	C 	0.1743	0.3276	0.4645	-0.127
Mof_C 	C 	0.2005	0.483	0.4883	-0.223
Mof_H 	H 	0.189	0.5514	0.4928	0.102
Mof_C 	C 	0.0311	0.3584	0.3925	-0.24
Mof_H 	H 	0.0365	0.4298	0.397	0.119
Mof_C 	C 	0.8487	0.3792	0.7952	1.847
Mof_In	In	0.87053	0.12675	0.30228	-2.25
Mof_In	In	0.38881	0.8133	0.05366	1.581
Mof_O 	O 	0.9447	0.1737	0.27654	-0.107
Mof_O 	O 	0.8166	0.2732	0.28424	-0.21
Mof_O 	O 	0.7952	0.3626	0.82954	-0.14
Mof_O 	O 	0.9278	0.0033	0.28106	-0.128
Mof_O 	O 	0.8229	0.522	0.81858	-0.139
Mof_O 	O 	0.9413	0.3996	0.83479	-0.009
Mof_O 	O 	0.799	0.1155	0.26791	-0.362
Mof_O 	O 	0.9164	0.2345	0.82699	-0.071
Mof_O 	O 	0.6366	0.7874	0.90297	-0.259
Mof_O 	O 	0.1776	0.1622	0.1913	-0.23
Mof_O 	O 	0.6131	0.2588	0.1581	-0.236
Mof_O 	O 	0.1326	0.334	0.946	-0.243
Mof_N 	N 	0.4721	0.724	0.04888	-0.349
Mof_N 	N 	0.3938	0.8782	0.01716	-0.342
Mof_N 	N 	0.3195	0.9316	0.0605	-0.336
Mof_N 	N 	0.3982	0.7792	0.09301	-0.344
Mof_N 	N 	0.6487	0.4025	0.1831	-0.263
Mof_H 	H 	0.6468	0.4709	0.1841	0.14
Mof_N 	N 	0.6552	0.6147	0.9131	-0.255
Mof_H 	H 	0.6535	0.5681	0.925	0.117
Mof_N 	N 	0.1453	0.9993	0.2022	-0.277
Mof_H 	H 	0.1547	0.9327	0.2008	0.178
Mof_N 	N 	0.1002	0.1768	0.9279	-0.262
Mof_H 	H 	0.1259	0.1307	0.9223	0.131
Mof_C 	C 	0.9541	0.0786	0.27174	0.345
Mof_C 	C 	0.599	0.717	0.942	-0.134
Mof_C 	C 	0.4404	0.713	0.10423	0.107
Mof_C 	C 	0.686	0.5865	0.8912	0.184
Mof_C 	C 	0.7898	0.2145	0.26659	0.33
Mof_C 	C 	0.232	0.224	0.9751	0.07
Mof_H 	H 	0.2458	0.2902	0.9699	0.012
Mof_C 	C 	0.7921	0.4619	0.83159	0.311
Mof_C 	C 	0.2923	0.9497	0.0832	0.107
Mof_C 	C 	0.4388	0.8484	0.0003	0.093
Mof_C 	C 	0.097	0.0214	0.2193	0.257
Mof_C 	C 	0.4862	0.7741	0.0048	-0.166
Mof_C 	C 	0.5031	0.664	0.06711	0.101
Mof_C 	C 	0.6288	0.7125	0.9164	0.251
Mof_C 	C 	0.9468	0.3025	0.8409	0.291
Mof_C 	C 	0.4353	0.7175	0.13123	-0.084
Mof_H 	H 	0.4599	0.6801	0.1436	0.065
Mof_C 	C 	0.35	0.9453	0.0059	0.098
Mof_C 	C 	0.036	0.1435	0.2425	0.142
Mof_H 	H 	0.0232	0.213	0.2457	0.007
Mof_C 	C 	0.2813	0.9422	0.1287	0.152
Mof_C 	C 	0.5566	0.6106	0.0566	-0.086
Mof_H 	H 	0.585	0.5624	0.0646	0.06
Mof_C 	C 	0.2416	0.8768	0.1407	-0.166
Mof_H 	H 	0.2365	0.8064	0.1353	0.102
Mof_C 	C 	0.556	0.6467	0.0322	-0.092
Mof_H 	H 	0.5851	0.6286	0.0206	0.056
Mof_C 	C 	0.5593	0.8385	0.9722	-0.186
Mof_H 	H 	0.5589	0.9062	0.9794	0.082
Mof_C 	C 	0.7195	0.4404	0.8656	0.09
Mof_H 	H 	0.7192	0.3678	0.8619	0.008
Mof_C 	C 	0.0688	0.9363	0.2304	-0.274
Mof_H 	H 	0.0801	0.8664	0.2267	0.176
Mof_C 	C 	0.2895	0.0428	0.1375	-0.195
Mof_H 	H 	0.3176	0.088	0.13	0.114
Mof_C 	C 	0.2574	0.0802	0.1572	0.084
Mof_H 	H 	0.2645	0.15	0.1628	0.021
Mof_C 	C 	0.023	0.9574	0.2472	0.166
Mof_H 	H 	0.0022	0.9002	0.2541	0.001
Mof_C 	C 	0.2845	0.9874	0.042	0.099
Mof_C 	C 	0.5272	0.5781	0.10942	0.135
Mof_C 	C 	0.2991	0.9964	0.0162	-0.176
Mof_C 	C 	0.2084	0.9118	0.1608	0.051
Mof_H 	H 	0.1819	0.8654	0.1688	0.053
Mof_C 	C 	0.7427	0.3711	0.2433	0.135
Mof_H 	H 	0.761	0.4165	0.2557	0.001
Mof_C 	C 	0.2155	0.0173	0.1688	-0.11
Mof_C 	C 	0.3693	0.9592	0.9792	-0.08
Mof_H 	H 	0.3488	0.0025	0.9669	0.055
Mof_C 	C 	0.1783	0.065	0.1891	0.265
Mof_C 	C 	0.2392	0.0199	0.078	-0.083
Mof_H 	H 	0.213	0.0466	0.0898	0.065
Mof_C 	C 	0.0843	0.126	0.2262	-0.246
Mof_H 	H 	0.1071	0.1829	0.2202	0.159
Mof_C 	C 	0.4187	0.9015	0.9765	-0.083
Mof_H 	H 	0.4387	0.8945	0.9616	0.051
Mof_C 	C 	0.0072	0.0585	0.2539	-0.179
Mof_C 	C 	0.9869	0.2725	0.8634	-0.167
Mof_C 	C 	0.7507	0.2605	0.2458	-0.181
Mof_C 	C 	0.6801	0.3487	0.204	0.239
Mof_C 	C 	0.753	0.6132	0.8571	0.099
Mof_H 	H 	0.7758	0.6603	0.8477	0.025
Mof_C 	C 	0.7077	0.4136	0.2223	-0.243
Mof_H 	H 	0.703	0.4873	0.2208	0.121
Mof_C 	C 	0.7543	0.509	0.8513	-0.148
Mof_C 	C 	0.5913	0.437	0.1435	-0.105
Mof_C 	C 	0.7192	0.6559	0.8768	-0.196
Mof_H 	H 	0.7193	0.729	0.88	0.12
Mof_C 	C 	0.2333	0.0407	0.0533	-0.081
Mof_H 	H 	0.2016	0.0822	0.0449	0.061
Mof_C 	C 	0.6855	0.476	0.8852	-0.193
Mof_H 	H 	0.6625	0.4282	0.8943	0.08
Mof_C 	C 	0.2542	0.0596	0.9991	0.172
Mof_C 	C 	0.7196	0.1973	0.2275	0.14
Mof_H 	H 	0.7224	0.1234	0.2291	0.01
Mof_C 	C 	0.5916	0.8207	0.9515	0.077
Mof_H 	H 	0.6091	0.8782	0.9434	-0.005
Mof_C 	C 	0.6192	0.3554	0.1619	0.24
Mof_C 	C 	0.5656	0.6379	0.9514	0.076
Mof_H 	H 	0.5652	0.5712	0.9437	-0.015
Mof_C 	C 	0.0222	0.3449	0.8767	0.136
Mof_H 	H 	0.0223	0.4151	0.871	0.006
Mof_C 	C 	0.531	0.6529	0.97265	-0.185
Mof_H 	H 	0.5113	0.5953	0.9799	0.085
Mof_C 	C 	0.5805	0.6053	0.123	-0.176
Mof_H 	H 	0.5965	0.6739	0.1212	0.093
Mof_C 	C 	0.5267	0.7539	0.98255	0.134
Mof_C 	C 	0.1366	0.237	0.9446	0.244
Mof_C 	C 	0.5026	0.717	0.0277	0.105
Mof_C 	C 	0.4891	0.6563	0.0926	-0.17
Mof_C 	C 	0.6843	0.24	0.2066	-0.244
Mof_H 	H 	0.6639	0.1952	0.1945	0.144
Mof_C 	C 	0.3874	0.7877	0.13484	-0.087
Mof_H 	H 	0.3725	0.8061	0.1503	0.069
Mof_C 	C 	0.6136	0.5357	0.14	0.065
Mof_H 	H 	0.6512	0.558	0.1488	0.007
Mof_C 	C 	0.314	0.9032	0.10637	-0.165
Mof_C 	C 	0.1626	0.071	0.9714	0.106
Mof_H 	H 	0.1265	0.0372	0.964	-0.004
Mof_C 	C 	0.3643	0.8274	0.11097	0.104
Mof_C 	C 	0.5037	0.4745	0.1128	-0.159
Mof_H 	H 	0.4674	0.4529	0.103	0.086
Mof_C 	C 	0.9907	0.1661	0.8704	0.121
Mof_H 	H 	0.9682	0.1133	0.8612	0.006
Mof_C 	C 	0.0589	0.3196	0.8989	-0.241
Mof_H 	H 	0.0813	0.3725	0.9081	0.141
Mof_C 	C 	0.532	0.4039	0.1299	0.052
Mof_H 	H 	0.5139	0.3376	0.1328	0.03
Mof_C 	C 	0.0613	0.2148	0.907	0.235
Mof_C 	C 	0.265	0.1627	0.9941	-0.194
Mof_H 	H 	0.2971	0.1968	0.0041	0.099
Mof_C 	C 	0.1743	0.1724	0.9645	-0.126
Mof_C 	C 	0.2005	0.017	0.9883	-0.223
Mof_H 	H 	0.189	0.9486	0.9928	0.101
Mof_C 	C 	0.0311	0.1416	0.8925	-0.24
Mof_H 	H 	0.0365	0.0702	0.897	0.119
Mof_C 	C 	0.8487	0.1208	0.2952	1.846
Mof_In	In	0.12947	0.87325	0.69772	-2.25
Mof_In	In	0.61119	0.1867	0.94634	1.581
Mof_O 	O 	0.0553	0.8263	0.72346	-0.107
Mof_O 	O 	0.1834	0.7268	0.71576	-0.21
Mof_O 	O 	0.2048	0.6374	0.17046	-0.14
Mof_O 	O 	0.0722	0.9967	0.71894	-0.128
Mof_O 	O 	0.1771	0.478	0.18142	-0.139
Mof_O 	O 	0.0587	0.6004	0.16521	-0.009
Mof_O 	O 	0.201	0.8845	0.73209	-0.362
Mof_O 	O 	0.0836	0.7655	0.17301	-0.071
Mof_O 	O 	0.3634	0.2126	0.09703	-0.259
Mof_O 	O 	0.8224	0.8378	0.8087	-0.23
Mof_O 	O 	0.3869	0.7412	0.8419	-0.236
Mof_O 	O 	0.8674	0.666	0.054	-0.243
Mof_N 	N 	0.5279	0.276	0.95112	-0.349
Mof_N 	N 	0.6062	0.1218	0.98284	-0.342
Mof_N 	N 	0.6805	0.0684	0.9395	-0.336
Mof_N 	N 	0.6018	0.2208	0.90699	-0.344
Mof_N 	N 	0.3513	0.5975	0.8169	-0.263
Mof_H 	H 	0.3532	0.5291	0.8159	0.14
Mof_N 	N 	0.3448	0.3853	0.0869	-0.255
Mof_H 	H 	0.3465	0.4319	0.075	0.117
Mof_N 	N 	0.8547	0.0007	0.7978	-0.277
Mof_H 	H 	0.8453	0.0673	0.7992	0.178
Mof_N 	N 	0.8998	0.8232	0.0721	-0.262
Mof_H 	H 	0.8741	0.8693	0.0777	0.131
Mof_C 	C 	0.0459	0.9214	0.72826	0.345
Mof_C 	C 	0.401	0.283	0.058	-0.134
Mof_C 	C 	0.5596	0.287	0.89577	0.107
Mof_C 	C 	0.314	0.4135	0.1088	0.184
Mof_C 	C 	0.2102	0.7855	0.73341	0.33
Mof_C 	C 	0.768	0.776	0.0249	0.07
Mof_H 	H 	0.7542	0.7098	0.0301	0.012
Mof_C 	C 	0.2079	0.5381	0.16841	0.311
Mof_C 	C 	0.7077	0.0503	0.9168	0.107
Mof_C 	C 	0.5612	0.1516	0.9997	0.093
Mof_C 	C 	0.903	0.9786	0.7807	0.257
Mof_C 	C 	0.5138	0.2259	0.9952	-0.166
Mof_C 	C 	0.4969	0.336	0.93289	0.101
Mof_C 	C 	0.3712	0.2875	0.0836	0.251
Mof_C 	C 	0.0532	0.6975	0.1591	0.291
Mof_C 	C 	0.5647	0.2825	0.86877	-0.084
Mof_H 	H 	0.5401	0.3199	0.8564	0.065
Mof_C 	C 	0.65	0.0547	0.9941	0.098
Mof_C 	C 	0.964	0.8565	0.7575	0.142
Mof_H 	H 	0.9768	0.787	0.7543	0.007
Mof_C 	C 	0.7187	0.0578	0.8713	0.152
Mof_C 	C 	0.4434	0.3894	0.9434	-0.086
Mof_H 	H 	0.415	0.4376	0.9354	0.06
Mof_C 	C 	0.7584	0.1232	0.8593	-0.166
Mof_H 	H 	0.7635	0.1936	0.8647	0.102
Mof_C 	C 	0.444	0.3533	0.9678	-0.092
Mof_H 	H 	0.4149	0.3714	0.9794	0.056
Mof_C 	C 	0.4407	0.1615	0.0278	-0.186
Mof_H 	H 	0.4411	0.0938	0.0206	0.082
Mof_C 	C 	0.2805	0.5596	0.1344	0.09
Mof_H 	H 	0.2808	0.6322	0.1381	0.008
Mof_C 	C 	0.9312	0.0637	0.7696	-0.274
Mof_H 	H 	0.9199	0.1336	0.7733	0.176
Mof_C 	C 	0.7105	0.9572	0.8625	-0.195
Mof_H 	H 	0.6824	0.912	0.87	0.114
Mof_C 	C 	0.7426	0.9198	0.8428	0.084
Mof_H 	H 	0.7355	0.85	0.8372	0.021
Mof_C 	C 	0.977	0.0426	0.7528	0.166
Mof_H 	H 	0.9978	0.0998	0.7459	0.001
Mof_C 	C 	0.7155	0.0126	0.958	0.099
Mof_C 	C 	0.4728	0.4219	0.89058	0.135
Mof_C 	C 	0.7009	0.0036	0.9838	-0.176
Mof_C 	C 	0.7916	0.0882	0.8392	0.051
Mof_H 	H 	0.8181	0.1346	0.8312	0.053
Mof_C 	C 	0.2573	0.6289	0.7567	0.135
Mof_H 	H 	0.239	0.5835	0.7443	0.001
Mof_C 	C 	0.7845	0.9827	0.8312	-0.11
Mof_C 	C 	0.6307	0.0408	0.0208	-0.08
Mof_H 	H 	0.6512	0.9975	0.0331	0.055
Mof_C 	C 	0.8217	0.935	0.8109	0.265
Mof_C 	C 	0.7608	0.9801	0.922	-0.083
Mof_H 	H 	0.787	0.9534	0.9102	0.065
Mof_C 	C 	0.9157	0.874	0.7738	-0.246
Mof_H 	H 	0.8929	0.8171	0.7798	0.159
Mof_C 	C 	0.5813	0.0985	0.0235	-0.083
Mof_H 	H 	0.5613	0.1055	0.0384	0.051
Mof_C 	C 	0.9928	0.9415	0.7461	-0.179
Mof_C 	C 	0.0131	0.7275	0.1366	-0.167
Mof_C 	C 	0.2493	0.7395	0.7542	-0.181
Mof_C 	C 	0.3199	0.6513	0.796	0.239
Mof_C 	C 	0.247	0.3868	0.1429	0.099
Mof_H 	H 	0.2242	0.3397	0.1523	0.025
Mof_C 	C 	0.2923	0.5864	0.7777	-0.243
Mof_H 	H 	0.297	0.5127	0.7792	0.121
Mof_C 	C 	0.2457	0.491	0.1487	-0.148
Mof_C 	C 	0.4087	0.563	0.8565	-0.105
Mof_C 	C 	0.2808	0.3441	0.1232	-0.196
Mof_H 	H 	0.2807	0.271	0.12	0.12
Mof_C 	C 	0.7667	0.9593	0.9467	-0.081
Mof_H 	H 	0.7984	0.9178	0.9551	0.061
Mof_C 	C 	0.3145	0.524	0.1148	-0.193
Mof_H 	H 	0.3375	0.5718	0.1057	0.08
Mof_C 	C 	0.7458	0.9404	0.0009	0.172
Mof_C 	C 	0.2804	0.8027	0.7725	0.14
Mof_H 	H 	0.2776	0.8766	0.7709	0.01
Mof_C 	C 	0.4084	0.1793	0.0485	0.077
Mof_H 	H 	0.3909	0.1218	0.0566	-0.005
Mof_C 	C 	0.3808	0.6446	0.8381	0.24
Mof_C 	C 	0.4344	0.3621	0.0486	0.076
Mof_H 	H 	0.4348	0.4288	0.0563	-0.015
Mof_C 	C 	0.9778	0.6551	0.1233	0.136
Mof_H 	H 	0.9777	0.5849	0.129	0.006
Mof_C 	C 	0.469	0.3471	0.02735	-0.185
Mof_H 	H 	0.4887	0.4047	0.0201	0.085
Mof_C 	C 	0.4195	0.3947	0.877	-0.176
Mof_H 	H 	0.4035	0.3261	0.8788	0.093
Mof_C 	C 	0.4733	0.2461	0.01745	0.134
Mof_C 	C 	0.8634	0.763	0.0554	0.244
Mof_C 	C 	0.4974	0.283	0.9723	0.105
Mof_C 	C 	0.5109	0.3437	0.9074	-0.17
Mof_C 	C 	0.3157	0.76	0.7934	-0.244
Mof_H 	H 	0.3361	0.8048	0.8055	0.144
Mof_C 	C 	0.6126	0.2123	0.86516	-0.087
Mof_H 	H 	0.6275	0.1939	0.8497	0.069
Mof_C 	C 	0.3864	0.4643	0.86	0.065
Mof_H 	H 	0.3488	0.442	0.8512	0.007
Mof_C 	C 	0.686	0.0968	0.89363	-0.165
Mof_C 	C 	0.8374	0.929	0.0286	0.106
Mof_H 	H 	0.8735	0.9628	0.036	-0.004
Mof_C 	C 	0.6357	0.1726	0.88903	0.104
Mof_C 	C 	0.4963	0.5255	0.8872	-0.159
Mof_H 	H 	0.5326	0.5471	0.897	0.086
Mof_C 	C 	0.0093	0.8339	0.1296	0.121
Mof_H 	H 	0.0318	0.8867	0.1388	0.006
Mof_C 	C 	0.9411	0.6804	0.1011	-0.241
Mof_H 	H 	0.9187	0.6275	0.0919	0.141
Mof_C 	C 	0.468	0.5961	0.8701	0.052
Mof_H 	H 	0.4861	0.6624	0.8672	0.03
Mof_C 	C 	0.9387	0.7852	0.093	0.235
Mof_C 	C 	0.735	0.8373	0.0059	-0.194
Mof_H 	H 	0.7029	0.8032	0.9959	0.099
Mof_C 	C 	0.8257	0.8276	0.0355	-0.126
Mof_C 	C 	0.7995	0.983	0.0117	-0.223
Mof_H 	H 	0.811	0.0514	0.0072	0.101
Mof_C 	C 	0.9689	0.8584	0.1075	-0.24
Mof_H 	H 	0.9635	0.9298	0.103	0.119
Mof_C 	C 	0.1513	0.8792	0.7048	1.846
Mof_In	In	0.12947	0.62675	0.19772	-2.251
Mof_In	In	0.61119	0.3133	0.44634	1.58
Mof_O 	O 	0.0553	0.6737	0.22346	-0.107
Mof_O 	O 	0.1834	0.7732	0.21576	-0.21
Mof_O 	O 	0.2048	0.8626	0.67046	-0.139
Mof_O 	O 	0.0722	0.5033	0.21894	-0.127
Mof_O 	O 	0.1771	0.022	0.68142	-0.137
Mof_O 	O 	0.0587	0.8996	0.66521	-0.009
Mof_O 	O 	0.201	0.6155	0.23209	-0.362
Mof_O 	O 	0.0836	0.7345	0.67301	-0.071
Mof_O 	O 	0.3634	0.2874	0.59703	-0.259
Mof_O 	O 	0.8224	0.6622	0.3087	-0.23
Mof_O 	O 	0.3869	0.7588	0.3419	-0.235
Mof_O 	O 	0.8674	0.834	0.554	-0.243
Mof_N 	N 	0.5279	0.224	0.45112	-0.349
Mof_N 	N 	0.6062	0.3782	0.48284	-0.342
Mof_N 	N 	0.6805	0.4316	0.4395	-0.336
Mof_N 	N 	0.6018	0.2792	0.40699	-0.344
Mof_N 	N 	0.3513	0.9025	0.3169	-0.263
Mof_H 	H 	0.3532	0.9709	0.3159	0.14
Mof_N 	N 	0.3448	0.1147	0.5869	-0.255
Mof_H 	H 	0.3465	0.0681	0.575	0.117
Mof_N 	N 	0.8547	0.4993	0.2978	-0.279
Mof_H 	H 	0.8453	0.4327	0.2992	0.178
Mof_N 	N 	0.8998	0.6768	0.5721	-0.262
Mof_H 	H 	0.8741	0.6307	0.5777	0.131
Mof_C 	C 	0.0459	0.5786	0.22826	0.344
Mof_C 	C 	0.401	0.217	0.558	-0.133
Mof_C 	C 	0.5596	0.213	0.39577	0.107
Mof_C 	C 	0.314	0.0865	0.6088	0.184
Mof_C 	C 	0.2102	0.7145	0.23341	0.33
Mof_C 	C 	0.768	0.724	0.5249	0.07
Mof_H 	H 	0.7542	0.7902	0.5301	0.012
Mof_C 	C 	0.2079	0.9619	0.66841	0.308
Mof_C 	C 	0.7077	0.4497	0.4168	0.106
Mof_C 	C 	0.5612	0.3484	0.4997	0.093
Mof_C 	C 	0.903	0.5214	0.2807	0.259
Mof_C 	C 	0.5138	0.2741	0.4952	-0.166
Mof_C 	C 	0.4969	0.164	0.43289	0.101
Mof_C 	C 	0.3712	0.2125	0.5836	0.251
Mof_C 	C 	0.0532	0.8025	0.6591	0.291
Mof_C 	C 	0.5647	0.2175	0.36877	-0.084
Mof_H 	H 	0.5401	0.1801	0.3564	0.065
Mof_C 	C 	0.65	0.4453	0.4941	0.098
Mof_C 	C 	0.964	0.6435	0.2575	0.143
Mof_H 	H 	0.9768	0.713	0.2543	0.007
Mof_C 	C 	0.7187	0.4422	0.3713	0.149
Mof_C 	C 	0.4434	0.1106	0.4434	-0.086
Mof_H 	H 	0.415	0.0624	0.4354	0.06
Mof_C 	C 	0.7584	0.3768	0.3593	-0.163
Mof_H 	H 	0.7635	0.3064	0.3647	0.101
Mof_C 	C 	0.444	0.1467	0.4678	-0.092
Mof_H 	H 	0.4149	0.1286	0.4794	0.056
Mof_C 	C 	0.4407	0.3385	0.5278	-0.186
Mof_H 	H 	0.4411	0.4062	0.5206	0.082
Mof_C 	C 	0.2805	0.9404	0.6344	0.087
Mof_H 	H 	0.2808	0.8678	0.6381	0.009
Mof_C 	C 	0.9312	0.4363	0.2696	-0.276
Mof_H 	H 	0.9199	0.3664	0.2733	0.176
Mof_C 	C 	0.7105	0.5428	0.3625	-0.191
Mof_H 	H 	0.6824	0.588	0.37	0.113
Mof_C 	C 	0.7426	0.5802	0.3428	0.081
Mof_H 	H 	0.7355	0.65	0.3372	0.022
Mof_C 	C 	0.977	0.4574	0.2528	0.165
Mof_H 	H 	0.9978	0.4002	0.2459	0.001
Mof_C 	C 	0.7155	0.4874	0.458	0.099
Mof_C 	C 	0.4728	0.0781	0.39058	0.131
Mof_C 	C 	0.7009	0.4964	0.4838	-0.176
Mof_C 	C 	0.7916	0.4118	0.3392	0.048
Mof_H 	H 	0.8181	0.3654	0.3312	0.054
Mof_C 	C 	0.2573	0.8711	0.2567	0.135
Mof_H 	H 	0.239	0.9165	0.2443	0.001
Mof_C 	C 	0.7845	0.5173	0.3312	-0.107
Mof_C 	C 	0.6307	0.4592	0.5208	-0.079
Mof_H 	H 	0.6512	0.5025	0.5331	0.055
Mof_C 	C 	0.8217	0.565	0.3109	0.265
Mof_C 	C 	0.7608	0.5199	0.422	-0.082
Mof_H 	H 	0.787	0.5466	0.4102	0.065
Mof_C 	C 	0.9157	0.626	0.2738	-0.246
Mof_H 	H 	0.8929	0.6829	0.2798	0.159
Mof_C 	C 	0.5813	0.4015	0.5235	-0.083
Mof_H 	H 	0.5613	0.3945	0.5384	0.051
Mof_C 	C 	0.9928	0.5585	0.2461	-0.178
Mof_C 	C 	0.0131	0.7725	0.6366	-0.167
Mof_C 	C 	0.2493	0.7605	0.2542	-0.18
Mof_C 	C 	0.3199	0.8487	0.296	0.239
Mof_C 	C 	0.247	0.1132	0.6429	0.097
Mof_H 	H 	0.2242	0.1603	0.6523	0.026
Mof_C 	C 	0.2923	0.9136	0.2777	-0.243
Mof_H 	H 	0.297	0.9873	0.2792	0.121
Mof_C 	C 	0.2457	0.009	0.6487	-0.144
Mof_C 	C 	0.4087	0.937	0.3565	-0.102
Mof_C 	C 	0.2808	0.1559	0.6232	-0.195
Mof_H 	H 	0.2807	0.229	0.62	0.12
Mof_C 	C 	0.7667	0.5407	0.4467	-0.081
Mof_H 	H 	0.7984	0.5822	0.4551	0.061
Mof_C 	C 	0.3145	0.976	0.6148	-0.192
Mof_H 	H 	0.3375	0.9282	0.6057	0.079
Mof_C 	C 	0.7458	0.5596	0.5009	0.172
Mof_C 	C 	0.2804	0.6973	0.2725	0.14
Mof_H 	H 	0.2776	0.6234	0.2709	0.01
Mof_C 	C 	0.4084	0.3207	0.5485	0.077
Mof_H 	H 	0.3909	0.3782	0.5566	-0.005
Mof_C 	C 	0.3808	0.8554	0.3381	0.239
Mof_C 	C 	0.4344	0.1379	0.5486	0.075
Mof_H 	H 	0.4348	0.0712	0.5563	-0.015
Mof_C 	C 	0.9778	0.8449	0.6233	0.137
Mof_H 	H 	0.9777	0.9151	0.629	0.006
Mof_C 	C 	0.469	0.1529	0.52735	-0.185
Mof_H 	H 	0.4887	0.0953	0.5201	0.085
Mof_C 	C 	0.4195	0.1053	0.377	-0.173
Mof_H 	H 	0.4035	0.1739	0.3788	0.091
Mof_C 	C 	0.4733	0.2539	0.51745	0.134
Mof_C 	C 	0.8634	0.737	0.5554	0.244
Mof_C 	C 	0.4974	0.217	0.4723	0.105
Mof_C 	C 	0.5109	0.1563	0.4074	-0.169
Mof_C 	C 	0.3157	0.74	0.2934	-0.243
Mof_H 	H 	0.3361	0.6952	0.3055	0.144
Mof_C 	C 	0.6126	0.2877	0.36516	-0.087
Mof_H 	H 	0.6275	0.3061	0.3497	0.068
Mof_C 	C 	0.3864	0.0357	0.36	0.06
Mof_H 	H 	0.3488	0.058	0.3512	0.008
Mof_C 	C 	0.686	0.4032	0.39363	-0.164
Mof_C 	C 	0.8374	0.571	0.5286	0.107
Mof_H 	H 	0.8735	0.5372	0.536	-0.005
Mof_C 	C 	0.6357	0.3274	0.38903	0.104
Mof_C 	C 	0.4963	0.9745	0.3872	-0.155
Mof_H 	H 	0.5326	0.9529	0.397	0.085
Mof_C 	C 	0.0093	0.6661	0.6296	0.121
Mof_H 	H 	0.0318	0.6133	0.6388	0.006
Mof_C 	C 	0.9411	0.8196	0.6011	-0.241
Mof_H 	H 	0.9187	0.8725	0.5919	0.141
Mof_C 	C 	0.468	0.9039	0.3701	0.05
Mof_H 	H 	0.4861	0.8376	0.3672	0.031
Mof_C 	C 	0.9387	0.7148	0.593	0.235
Mof_C 	C 	0.735	0.6627	0.5059	-0.194
Mof_H 	H 	0.7029	0.6968	0.4959	0.099
Mof_C 	C 	0.8257	0.6724	0.5355	-0.127
Mof_C 	C 	0.7995	0.517	0.5117	-0.223
Mof_H 	H 	0.811	0.4486	0.5072	0.102
Mof_C 	C 	0.9689	0.6416	0.6075	-0.24
Mof_H 	H 	0.9635	0.5702	0.603	0.119
Mof_C 	C 	0.1513	0.6208	0.2048	1.847
_end
