data_functionalizedCrystal
_audit_creation_method	'EQeq! by Chris Wilmer'
_symmetry_space_group_name_H-M	'P1'
_symmetry_Int_Tables_number	1
_symmetry_cell_setting	triclinic
loop_
_symmetry_equiv_pos_as_xyz
  x,y,z
_cell_length_a	20.06
_cell_length_b	20.06
_cell_length_c	20.06
_cell_angle_alpha	90
_cell_angle_beta	90
_cell_angle_gamma	90
loop_
_atom_site_label
_atom_site_type_symbol
_atom_site_fract_x
_atom_site_fract_y
_atom_site_fract_z
_atom_site_charge
Mof_Re	Re	0.18824	0.28078	0.18824	0.286
Mof_C 	C 	0.1159	0.3089	0.1159	-0.036
Mof_N 	N 	0.0775	0.3206	0.0775	-0.181
Mof_Re	Re	0.68824	0.78078	0.68824	0.279
Mof_C 	C 	0.6159	0.8089	0.6159	-0.016
Mof_N 	N 	0.5775	0.8206	0.5775	-0.175
Mof_Re	Re	0.81176	0.71922	0.18824	0.282
Mof_C 	C 	0.8841	0.6911	0.1159	-0.019
Mof_N 	N 	0.9225	0.6794	0.0775	-0.158
Mof_Re	Re	0.31176	0.21922	0.68824	0.283
Mof_C 	C 	0.3841	0.1911	0.6159	-0.025
Mof_N 	N 	0.4225	0.1794	0.5775	-0.179
Mof_Re	Re	0.81176	0.28078	0.81176	0.283
Mof_C 	C 	0.8841	0.3089	0.8841	-0.006
Mof_N 	N 	0.9225	0.3206	0.9225	-0.137
Mof_Re	Re	0.31176	0.78078	0.31176	0.28
Mof_C 	C 	0.3841	0.8089	0.3841	-0.017
Mof_N 	N 	0.4225	0.8206	0.4225	-0.176
Mof_Re	Re	0.18824	0.71922	0.81176	0.281
Mof_C 	C 	0.1159	0.6911	0.8841	-0.02
Mof_N 	N 	0.0775	0.6794	0.9225	-0.159
Mof_Re	Re	0.68824	0.21922	0.31176	0.282
Mof_C 	C 	0.6159	0.1911	0.3841	-0.026
Mof_N 	N 	0.5775	0.1794	0.4225	-0.18
Mof_Re	Re	0.18824	0.18824	0.28078	0.285
Mof_C 	C 	0.1159	0.1159	0.3089	-0.037
Mof_N 	N 	0.0775	0.0775	0.3206	-0.182
Mof_Re	Re	0.68824	0.68824	0.78078	0.278
Mof_C 	C 	0.6159	0.6159	0.8089	-0.017
Mof_N 	N 	0.5775	0.5775	0.8206	-0.176
Mof_Re	Re	0.18824	0.81176	0.71922	0.281
Mof_C 	C 	0.1159	0.8841	0.6911	-0.02
Mof_N 	N 	0.0775	0.9225	0.6794	-0.159
Mof_Re	Re	0.68824	0.31176	0.21922	0.282
Mof_C 	C 	0.6159	0.3841	0.1911	-0.026
Mof_N 	N 	0.5775	0.4225	0.1794	-0.18
Mof_Re	Re	0.81176	0.81176	0.28078	0.282
Mof_C 	C 	0.8841	0.8841	0.3089	-0.007
Mof_N 	N 	0.9225	0.9225	0.3206	-0.138
Mof_Re	Re	0.31176	0.31176	0.78078	0.28
Mof_C 	C 	0.3841	0.3841	0.8089	-0.017
Mof_N 	N 	0.4225	0.4225	0.8206	-0.176
Mof_Re	Re	0.81176	0.18824	0.71922	0.281
Mof_C 	C 	0.8841	0.1159	0.6911	-0.02
Mof_N 	N 	0.9225	0.0775	0.6794	-0.159
Mof_Re	Re	0.31176	0.68824	0.21922	0.282
Mof_C 	C 	0.3841	0.6159	0.1911	-0.026
Mof_N 	N 	0.4225	0.5775	0.1794	-0.18
Mof_Re	Re	0.28078	0.18824	0.18824	0.285
Mof_C 	C 	0.3089	0.1159	0.1159	-0.037
Mof_N 	N 	0.3206	0.0775	0.0775	-0.182
Mof_Re	Re	0.78078	0.68824	0.68824	0.278
Mof_C 	C 	0.8089	0.6159	0.6159	-0.017
Mof_N 	N 	0.8206	0.5775	0.5775	-0.176
Mof_Re	Re	0.71922	0.18824	0.81176	0.281
Mof_C 	C 	0.6911	0.1159	0.8841	-0.02
Mof_N 	N 	0.6794	0.0775	0.9225	-0.159
Mof_Re	Re	0.21922	0.68824	0.31176	0.282
Mof_C 	C 	0.1911	0.6159	0.3841	-0.026
Mof_N 	N 	0.1794	0.5775	0.4225	-0.18
Mof_Re	Re	0.28078	0.81176	0.81176	0.282
Mof_C 	C 	0.3089	0.8841	0.8841	-0.007
Mof_N 	N 	0.3206	0.9225	0.9225	-0.138
Mof_Re	Re	0.78078	0.31176	0.31176	0.28
Mof_C 	C 	0.8089	0.3841	0.3841	-0.017
Mof_N 	N 	0.8206	0.4225	0.4225	-0.176
Mof_Re	Re	0.71922	0.81176	0.18824	0.281
Mof_C 	C 	0.6911	0.8841	0.1159	-0.02
Mof_N 	N 	0.6794	0.9225	0.0775	-0.159
Mof_Re	Re	0.21922	0.31176	0.68824	0.282
Mof_C 	C 	0.1911	0.3841	0.6159	-0.026
Mof_N 	N 	0.1794	0.4225	0.5775	-0.18
Mof_Re	Re	0.28078	0.18824	0.81176	0.283
Mof_C 	C 	0.3089	0.1159	0.8841	-0.022
Mof_N 	N 	0.3206	0.0775	0.9225	-0.159
Mof_Re	Re	0.78078	0.68824	0.31176	0.279
Mof_C 	C 	0.8089	0.6159	0.3841	-0.017
Mof_N 	N 	0.8206	0.5775	0.4225	-0.176
Mof_Re	Re	0.71922	0.81176	0.81176	0.279
Mof_C 	C 	0.6911	0.8841	0.8841	-0.006
Mof_N 	N 	0.6794	0.9225	0.9225	-0.138
Mof_Re	Re	0.21922	0.31176	0.31176	0.283
Mof_C 	C 	0.1911	0.3841	0.3841	-0.026
Mof_N 	N 	0.1794	0.4225	0.4225	-0.18
Mof_Re	Re	0.28078	0.81176	0.18824	0.283
Mof_C 	C 	0.3089	0.8841	0.1159	-0.022
Mof_N 	N 	0.3206	0.9225	0.0775	-0.159
Mof_Re	Re	0.78078	0.31176	0.68824	0.279
Mof_C 	C 	0.8089	0.3841	0.6159	-0.017
Mof_N 	N 	0.8206	0.4225	0.5775	-0.176
Mof_Re	Re	0.71922	0.18824	0.18824	0.282
Mof_C 	C 	0.6911	0.1159	0.1159	-0.035
Mof_N 	N 	0.6794	0.0775	0.0775	-0.181
Mof_Re	Re	0.21922	0.68824	0.68824	0.281
Mof_C 	C 	0.1911	0.6159	0.6159	-0.026
Mof_N 	N 	0.1794	0.5775	0.5775	-0.18
Mof_Re	Re	0.18824	0.18824	0.71922	0.282
Mof_C 	C 	0.1159	0.1159	0.6911	-0.035
Mof_N 	N 	0.0775	0.0775	0.6794	-0.181
Mof_Re	Re	0.68824	0.68824	0.21922	0.281
Mof_C 	C 	0.6159	0.6159	0.1911	-0.026
Mof_N 	N 	0.5775	0.5775	0.1794	-0.18
Mof_Re	Re	0.81176	0.18824	0.28078	0.283
Mof_C 	C 	0.8841	0.1159	0.3089	-0.022
Mof_N 	N 	0.9225	0.0775	0.3206	-0.159
Mof_Re	Re	0.31176	0.68824	0.78078	0.279
Mof_C 	C 	0.3841	0.6159	0.8089	-0.017
Mof_N 	N 	0.4225	0.5775	0.8206	-0.176
Mof_Re	Re	0.81176	0.81176	0.71922	0.279
Mof_C 	C 	0.8841	0.8841	0.6911	-0.006
Mof_N 	N 	0.9225	0.9225	0.6794	-0.138
Mof_Re	Re	0.31176	0.31176	0.21922	0.283
Mof_C 	C 	0.3841	0.3841	0.1911	-0.026
Mof_N 	N 	0.4225	0.4225	0.1794	-0.18
Mof_Re	Re	0.18824	0.81176	0.28078	0.283
Mof_C 	C 	0.1159	0.8841	0.3089	-0.022
Mof_N 	N 	0.0775	0.9225	0.3206	-0.159
Mof_Re	Re	0.68824	0.31176	0.78078	0.279
Mof_C 	C 	0.6159	0.3841	0.8089	-0.017
Mof_N 	N 	0.5775	0.4225	0.8206	-0.176
Mof_Re	Re	0.18824	0.28078	0.81176	0.283
Mof_C 	C 	0.1159	0.3089	0.8841	-0.022
Mof_N 	N 	0.0775	0.3206	0.9225	-0.159
Mof_Re	Re	0.68824	0.78078	0.31176	0.279
Mof_C 	C 	0.6159	0.8089	0.3841	-0.017
Mof_N 	N 	0.5775	0.8206	0.4225	-0.176
Mof_Re	Re	0.18824	0.71922	0.18824	0.282
Mof_C 	C 	0.1159	0.6911	0.1159	-0.035
Mof_N 	N 	0.0775	0.6794	0.0775	-0.181
Mof_Re	Re	0.68824	0.21922	0.68824	0.281
Mof_C 	C 	0.6159	0.1911	0.6159	-0.026
Mof_N 	N 	0.5775	0.1794	0.5775	-0.18
Mof_Re	Re	0.81176	0.28078	0.18824	0.283
Mof_C 	C 	0.8841	0.3089	0.1159	-0.022
Mof_N 	N 	0.9225	0.3206	0.0775	-0.159
Mof_Re	Re	0.31176	0.78078	0.68824	0.279
Mof_C 	C 	0.3841	0.8089	0.6159	-0.017
Mof_N 	N 	0.4225	0.8206	0.5775	-0.176
Mof_Re	Re	0.81176	0.71922	0.81176	0.279
Mof_C 	C 	0.8841	0.6911	0.8841	-0.006
Mof_N 	N 	0.9225	0.6794	0.9225	-0.138
Mof_Re	Re	0.31176	0.21922	0.31176	0.283
Mof_C 	C 	0.3841	0.1911	0.3841	-0.026
Mof_N 	N 	0.4225	0.1794	0.4225	-0.18
Mof_Se	Se	0.27985	0.27985	0.10216	-0.201
Mof_Se	Se	0.77985	0.77985	0.60216	-0.162
Mof_Se	Se	0.72015	0.72015	0.10216	-0.194
Mof_Se	Se	0.22015	0.22015	0.60216	-0.185
Mof_Se	Se	0.72015	0.27985	0.89784	-0.146
Mof_Se	Se	0.22015	0.77985	0.39784	-0.173
Mof_Se	Se	0.27985	0.72015	0.89784	-0.146
Mof_Se	Se	0.77985	0.22015	0.39784	-0.173
Mof_Se	Se	0.10216	0.27985	0.27985	-0.201
Mof_Se	Se	0.60216	0.77985	0.77985	-0.162
Mof_Se	Se	0.10216	0.72015	0.72015	-0.194
Mof_Se	Se	0.60216	0.22015	0.22015	-0.185
Mof_Se	Se	0.89784	0.72015	0.27985	-0.146
Mof_Se	Se	0.39784	0.22015	0.77985	-0.173
Mof_Se	Se	0.89784	0.27985	0.72015	-0.146
Mof_Se	Se	0.39784	0.77985	0.22015	-0.173
Mof_Se	Se	0.27985	0.10216	0.27985	-0.201
Mof_Se	Se	0.77985	0.60216	0.77985	-0.162
Mof_Se	Se	0.72015	0.10216	0.72015	-0.194
Mof_Se	Se	0.22015	0.60216	0.22015	-0.185
Mof_Se	Se	0.27985	0.89784	0.72015	-0.146
Mof_Se	Se	0.77985	0.39784	0.22015	-0.173
Mof_Se	Se	0.72015	0.89784	0.27985	-0.146
Mof_Se	Se	0.22015	0.39784	0.77985	-0.173
Mof_Se	Se	0.27985	0.27985	0.89784	-0.149
Mof_Se	Se	0.77985	0.77985	0.39784	-0.162
Mof_Se	Se	0.72015	0.72015	0.89784	-0.144
Mof_Se	Se	0.22015	0.22015	0.39784	-0.185
Mof_Se	Se	0.27985	0.72015	0.10216	-0.197
Mof_Se	Se	0.77985	0.22015	0.60216	-0.173
Mof_Se	Se	0.72015	0.27985	0.10216	-0.197
Mof_Se	Se	0.22015	0.77985	0.60216	-0.173
Mof_Se	Se	0.27985	0.10216	0.72015	-0.197
Mof_Se	Se	0.77985	0.60216	0.22015	-0.173
Mof_Se	Se	0.72015	0.10216	0.27985	-0.197
Mof_Se	Se	0.22015	0.60216	0.77985	-0.173
Mof_Se	Se	0.72015	0.89784	0.72015	-0.144
Mof_Se	Se	0.22015	0.39784	0.22015	-0.185
Mof_Se	Se	0.27985	0.89784	0.27985	-0.149
Mof_Se	Se	0.77985	0.39784	0.77985	-0.162
Mof_Se	Se	0.10216	0.27985	0.72015	-0.197
Mof_Se	Se	0.60216	0.77985	0.22015	-0.173
Mof_Se	Se	0.10216	0.72015	0.27985	-0.197
Mof_Se	Se	0.60216	0.22015	0.77985	-0.173
Mof_Se	Se	0.89784	0.27985	0.27985	-0.149
Mof_Se	Se	0.39784	0.77985	0.77985	-0.162
Mof_Se	Se	0.89784	0.72015	0.72015	-0.144
Mof_Se	Se	0.39784	0.22015	0.22015	-0.185
Mof_Se	Se	0.16192	0.16192	0.16192	-0.222
Mof_Se	Se	0.66192	0.66192	0.66192	-0.195
Mof_Se	Se	0.83808	0.83808	0.16192	-0.172
Mof_Se	Se	0.33808	0.33808	0.66192	-0.195
Mof_Se	Se	0.83808	0.16192	0.83808	-0.172
Mof_Se	Se	0.33808	0.66192	0.33808	-0.195
Mof_Se	Se	0.16192	0.83808	0.83808	-0.172
Mof_Se	Se	0.66192	0.33808	0.33808	-0.195
Mof_Se	Se	0.16192	0.16192	0.83808	-0.196
Mof_Se	Se	0.66192	0.66192	0.33808	-0.195
Mof_Se	Se	0.83808	0.83808	0.83808	-0.148
Mof_Se	Se	0.33808	0.33808	0.33808	-0.194
Mof_Se	Se	0.16192	0.83808	0.16192	-0.196
Mof_Se	Se	0.66192	0.33808	0.66192	-0.195
Mof_Se	Se	0.83808	0.16192	0.16192	-0.196
Mof_Se	Se	0.33808	0.66192	0.66192	-0.195
Mof_Mn	Mn	-0	0.3187	-0	0.514
Mof_Mn	Mn	0.5	0.8187	0.5	0.646
Mof_Mn	Mn	-0	0.6813	-0	0.521
Mof_Mn	Mn	0.5	0.1813	0.5	0.625
Mof_Mn	Mn	1.19493e-33	-3.12721e-33	0.3187	0.514
Mof_Mn	Mn	0.5	0.5	0.8187	0.646
Mof_Mn	Mn	2.55447e-33	0	0.6813	0.521
Mof_Mn	Mn	0.5	0.5	0.1813	0.625
Mof_Mn	Mn	0.3187	0	-0	0.514
Mof_Mn	Mn	0.8187	0.5	0.5	0.646
Mof_Mn	Mn	0.6813	0	-0	0.521
Mof_Mn	Mn	0.1813	0.5	0.5	0.625
_end
