data_functionalizedCrystal
_audit_creation_method	'EQeq! by Chris Wilmer'
_symmetry_space_group_name_H-M	'P1'
_symmetry_Int_Tables_number	1
_symmetry_cell_setting	triclinic
loop_
_symmetry_equiv_pos_as_xyz
  x,y,z
_cell_length_a	21.248
_cell_length_b	7.1438
_cell_length_c	15.33
_cell_angle_alpha	90
_cell_angle_beta	90
_cell_angle_gamma	90
loop_
_atom_site_label
_atom_site_type_symbol
_atom_site_fract_x
_atom_site_fract_y
_atom_site_fract_z
_atom_site_charge
Mof_N 	N 	0.4333	0.153	0.4388	-0.217
Mof_C 	C 	0.3877	0.9012	0.6085	0.17
Mof_H 	H 	0.377	0.0257	0.618	-0.076
Mof_C 	C 	0.259	0.614	0.6879	-0.067
Mof_C 	C 	0.2966	0.61	0.7614	-0.048
Mof_H 	H 	0.2643	0.5198	0.6437	0.044
Mof_H 	H 	0.3281	0.5151	0.7682	0.042
Mof_N 	N 	0.9333	0.653	0.9388	-0.184
Mof_C 	C 	0.8877	0.4012	0.1085	0.099
Mof_H 	H 	0.877	0.5257	0.118	-0.031
Mof_C 	C 	0.759	0.114	0.1879	-0.064
Mof_C 	C 	0.7966	0.11	0.2614	-0.051
Mof_H 	H 	0.7643	0.0198	0.1437	0.026
Mof_H 	H 	0.8281	0.0151	0.2682	0.036
Mof_N 	N 	0.5667	0.347	0.4388	-0.225
Mof_C 	C 	0.6123	0.5988	0.6085	0.107
Mof_H 	H 	0.623	0.4743	0.618	-0.033
Mof_C 	C 	0.741	0.886	0.6879	-0.064
Mof_C 	C 	0.7034	0.89	0.7614	-0.045
Mof_H 	H 	0.7357	0.9802	0.6437	0.059
Mof_H 	H 	0.6719	0.9849	0.7682	0.053
Mof_N 	N 	0.0667	0.847	0.9388	-0.213
Mof_C 	C 	0.1123	0.0988	0.1085	0.027
Mof_H 	H 	0.123	0.9743	0.118	0.005
Mof_C 	C 	0.241	0.386	0.1879	-0.06
Mof_C 	C 	0.2034	0.39	0.2614	-0.05
Mof_H 	H 	0.2357	0.4802	0.1437	0.036
Mof_H 	H 	0.1719	0.4849	0.2682	0.035
Mof_N 	N 	0.5667	0.653	0.5612	-0.223
Mof_C 	C 	0.6123	0.4012	0.3915	0.102
Mof_H 	H 	0.623	0.5257	0.382	-0.03
Mof_C 	C 	0.741	0.114	0.3121	-0.06
Mof_C 	C 	0.7034	0.11	0.2386	-0.058
Mof_H 	H 	0.7357	0.0198	0.3563	0.038
Mof_H 	H 	0.6719	0.0151	0.2318	0.026
Mof_N 	N 	0.0667	0.153	0.0612	-0.237
Mof_C 	C 	0.1123	0.9012	0.8915	0.171
Mof_H 	H 	0.123	0.0257	0.882	-0.07
Mof_C 	C 	0.241	0.614	0.8121	-0.064
Mof_C 	C 	0.2034	0.61	0.7386	-0.055
Mof_H 	H 	0.2357	0.5198	0.8563	0.056
Mof_H 	H 	0.1719	0.5151	0.7318	0.034
Mof_N 	N 	0.4333	0.847	0.5612	-0.227
Mof_C 	C 	0.3877	0.0988	0.3915	0.038
Mof_H 	H 	0.377	0.9743	0.382	0.014
Mof_C 	C 	0.259	0.386	0.3121	-0.064
Mof_C 	C 	0.2966	0.39	0.2386	-0.057
Mof_H 	H 	0.2643	0.4802	0.3563	0.046
Mof_H 	H 	0.3281	0.4849	0.2318	0.037
Mof_N 	N 	0.9333	0.347	0.0612	-0.216
Mof_C 	C 	0.8877	0.5988	0.8915	0.117
Mof_H 	H 	0.877	0.4743	0.882	-0.018
Mof_C 	C 	0.759	0.886	0.8121	-0.067
Mof_C 	C 	0.7966	0.89	0.7386	-0.052
Mof_H 	H 	0.7643	0.9802	0.8563	0.069
Mof_H 	H 	0.8281	0.9849	0.7318	0.056
Mof_N 	N 	0.5667	0.847	0.5612	-0.227
Mof_C 	C 	0.6123	0.0988	0.3915	0.039
Mof_H 	H 	0.623	0.9743	0.382	0.014
Mof_C 	C 	0.741	0.386	0.3121	-0.06
Mof_C 	C 	0.7034	0.39	0.2386	-0.056
Mof_H 	H 	0.7357	0.4802	0.3563	0.05
Mof_H 	H 	0.6719	0.4849	0.2318	0.037
Mof_N 	N 	0.0667	0.347	0.0612	-0.244
Mof_C 	C 	0.1123	0.5988	0.8915	0.109
Mof_H 	H 	0.123	0.4743	0.882	-0.027
Mof_C 	C 	0.241	0.886	0.8121	-0.064
Mof_C 	C 	0.2034	0.89	0.7386	-0.053
Mof_H 	H 	0.2357	0.9802	0.8563	0.068
Mof_H 	H 	0.1719	0.9849	0.7318	0.045
Mof_N 	N 	0.4333	0.653	0.5612	-0.223
Mof_C 	C 	0.3877	0.4012	0.3915	0.102
Mof_H 	H 	0.377	0.5257	0.382	-0.031
Mof_C 	C 	0.259	0.114	0.3121	-0.063
Mof_C 	C 	0.2966	0.11	0.2386	-0.059
Mof_H 	H 	0.2643	0.0198	0.3563	0.034
Mof_H 	H 	0.3281	0.0151	0.2318	0.026
Mof_N 	N 	0.9333	0.153	0.0612	-0.209
Mof_C 	C 	0.8877	0.9012	0.8915	0.177
Mof_H 	H 	0.877	0.0257	0.882	-0.061
Mof_C 	C 	0.759	0.614	0.8121	-0.067
Mof_C 	C 	0.7966	0.61	0.7386	-0.054
Mof_H 	H 	0.7643	0.5198	0.8563	0.057
Mof_H 	H 	0.8281	0.5151	0.7318	0.045
Mof_N 	N 	0.4333	0.347	0.4388	-0.225
Mof_C 	C 	0.3877	0.5988	0.6085	0.106
Mof_H 	H 	0.377	0.4743	0.618	-0.034
Mof_C 	C 	0.259	0.886	0.6879	-0.067
Mof_C 	C 	0.2966	0.89	0.7614	-0.046
Mof_H 	H 	0.2643	0.9802	0.6437	0.056
Mof_H 	H 	0.3281	0.9849	0.7682	0.053
Mof_N 	N 	0.9333	0.847	0.9388	-0.188
Mof_C 	C 	0.8877	0.0988	0.1085	0.038
Mof_H 	H 	0.877	0.9743	0.118	0.013
Mof_C 	C 	0.759	0.386	0.1879	-0.064
Mof_C 	C 	0.7966	0.39	0.2614	-0.049
Mof_H 	H 	0.7643	0.4802	0.1437	0.038
Mof_H 	H 	0.8281	0.4849	0.2682	0.047
Mof_N 	N 	0.5667	0.153	0.4388	-0.218
Mof_C 	C 	0.6123	0.9012	0.6085	0.169
Mof_H 	H 	0.623	0.0257	0.618	-0.076
Mof_C 	C 	0.741	0.614	0.6879	-0.063
Mof_C 	C 	0.7034	0.61	0.7614	-0.047
Mof_H 	H 	0.7357	0.5198	0.6437	0.047
Mof_H 	H 	0.6719	0.5151	0.7682	0.042
Mof_N 	N 	0.0667	0.653	0.9388	-0.209
Mof_C 	C 	0.1123	0.4012	0.1085	0.09
Mof_H 	H 	0.123	0.5257	0.118	-0.04
Mof_C 	C 	0.241	0.114	0.1879	-0.06
Mof_C 	C 	0.2034	0.11	0.2614	-0.052
Mof_H 	H 	0.2357	0.0198	0.1437	0.024
Mof_H 	H 	0.1719	0.0151	0.2682	0.024
Mof_Cu	Cu	0.5	1.08483e-32	0.5	0.811
Mof_Cu	Cu	-0	0.5	-0	0.766
Mof_Cu	Cu	0.5	0.5	0.5	0.826
Mof_Cu	Cu	-0	0	-0	0.752
Mof_N 	N 	0.3565	0.75	0.6438	-0.172
Mof_C 	C 	0.3027	0.75	0.6966	0.12
Mof_N 	N 	0.8565	0.25	0.1438	-0.153
Mof_C 	C 	0.8027	0.25	0.1966	0.107
Mof_N 	N 	0.6435	0.75	0.6438	-0.172
Mof_C 	C 	0.6973	0.75	0.6966	0.118
Mof_N 	N 	0.1435	0.25	0.1438	-0.155
Mof_C 	C 	0.1973	0.25	0.1966	0.1
Mof_N 	N 	0.6435	0.25	0.3562	-0.154
Mof_C 	C 	0.6973	0.25	0.3034	0.109
Mof_N 	N 	0.1435	0.75	0.8562	-0.173
Mof_C 	C 	0.1973	0.75	0.8034	0.124
Mof_N 	N 	0.3565	0.25	0.3562	-0.155
Mof_C 	C 	0.3027	0.25	0.3034	0.111
Mof_N 	N 	0.8565	0.75	0.8562	-0.171
Mof_C 	C 	0.8027	0.75	0.8034	0.13
_end
