data_functionalizedCrystal
_audit_creation_method	'EQeq! by Chris Wilmer'
_symmetry_space_group_name_H-M	'P1'
_symmetry_Int_Tables_number	1
_symmetry_cell_setting	triclinic
loop_
_symmetry_equiv_pos_as_xyz
  x,y,z
_cell_length_a	30.701
_cell_length_b	30.701
_cell_length_c	28.957
_cell_angle_alpha	90
_cell_angle_beta	90
_cell_angle_gamma	90
loop_
_atom_site_label
_atom_site_type_symbol
_atom_site_fract_x
_atom_site_fract_y
_atom_site_fract_z
_atom_site_charge
Mof_O 	O 	0.30158	0.13417	0.04806	-0.49
Mof_O 	O 	0.35413	0.08234	0.04844	-0.513
Mof_C 	C 	0.3205	0.0986	0.0623	0.403
Mof_C 	C 	0.2945	0.0785	0.1006	-0.133
Mof_C 	C 	0.2566	0.0954	0.118	0.047
Mof_H 	H 	0.2456	0.1208	0.105	0.018
Mof_C 	C 	0.2342	0.0765	0.1535	-0.103
Mof_H 	H 	0.2079	0.0879	0.1638	0.057
Mof_C 	C 	0.2526	0.0383	0.1746	0.003
Mof_C 	C 	0.2907	0.0208	0.1571	-0.115
Mof_H 	H 	0.302	0.9954	0.17	0.071
Mof_C 	C 	0.3123	0.0406	0.1205	0.039
Mof_H 	H 	0.3382	0.029	0.1093	0.017
Mof_C 	C 	0.2273	0.0165	0.2138	0.156
Mof_C 	C 	0.1839	0.0165	0.2143	-0.271
Mof_H 	H 	0.1692	0.0282	0.1892	0.114
Mof_C 	C 	0.09058	0.96111	0.25069	0.116
Mof_C 	C 	0.11263	0.91887	0.2502	-0.096
Mof_H 	H 	0.1426	0.9143	0.2502	0.062
Mof_O 	O 	0.80158	0.63417	0.54806	-0.474
Mof_O 	O 	0.85413	0.58234	0.54844	-0.495
Mof_C 	C 	0.8205	0.5986	0.5623	0.397
Mof_C 	C 	0.7945	0.5785	0.6006	-0.112
Mof_C 	C 	0.7566	0.5954	0.618	0.032
Mof_H 	H 	0.7456	0.6208	0.605	0.029
Mof_C 	C 	0.7342	0.5765	0.6535	-0.085
Mof_H 	H 	0.7079	0.5879	0.6638	0.054
Mof_C 	C 	0.7526	0.5383	0.6746	-0.013
Mof_C 	C 	0.7907	0.5208	0.6571	-0.075
Mof_H 	H 	0.802	0.4954	0.67	0.052
Mof_C 	C 	0.8123	0.5406	0.6205	0.017
Mof_H 	H 	0.8382	0.529	0.6093	0.034
Mof_C 	C 	0.7273	0.5165	0.7138	0.165
Mof_C 	C 	0.6839	0.5165	0.7143	-0.276
Mof_H 	H 	0.6692	0.5282	0.6892	0.121
Mof_C 	C 	0.59058	0.46111	0.75069	0.106
Mof_C 	C 	0.61263	0.41887	0.7502	-0.09
Mof_H 	H 	0.6426	0.4143	0.7502	0.061
Mof_O 	O 	0.69842	0.86583	0.04806	-0.488
Mof_O 	O 	0.64587	0.91766	0.04844	-0.509
Mof_C 	C 	0.6795	0.9014	0.0623	0.394
Mof_C 	C 	0.7055	0.9215	0.1006	-0.108
Mof_C 	C 	0.7434	0.9046	0.118	0.022
Mof_H 	H 	0.7544	0.8792	0.105	0.027
Mof_C 	C 	0.7658	0.9235	0.1535	-0.076
Mof_H 	H 	0.7921	0.9121	0.1638	0.048
Mof_C 	C 	0.7474	0.9617	0.1746	-0.029
Mof_C 	C 	0.7093	0.9792	0.1571	-0.044
Mof_H 	H 	0.698	0.0046	0.17	0.029
Mof_C 	C 	0.6877	0.9594	0.1205	-0.003
Mof_H 	H 	0.6618	0.971	0.1093	0.037
Mof_C 	C 	0.7727	0.9835	0.2138	0.178
Mof_C 	C 	0.8161	0.9835	0.2143	-0.267
Mof_H 	H 	0.8308	0.9718	0.1892	0.118
Mof_C 	C 	0.90942	0.03889	0.25069	0.105
Mof_C 	C 	0.88737	0.08113	0.2502	-0.09
Mof_H 	H 	0.8574	0.0857	0.2502	0.058
Mof_O 	O 	0.19842	0.36583	0.54806	-0.474
Mof_O 	O 	0.14587	0.41766	0.54844	-0.497
Mof_C 	C 	0.1795	0.4014	0.5623	0.397
Mof_C 	C 	0.2055	0.4215	0.6006	-0.113
Mof_C 	C 	0.2434	0.4046	0.618	0.032
Mof_H 	H 	0.2544	0.3792	0.605	0.028
Mof_C 	C 	0.2658	0.4235	0.6535	-0.086
Mof_H 	H 	0.2921	0.4121	0.6638	0.054
Mof_C 	C 	0.2474	0.4617	0.6746	-0.013
Mof_C 	C 	0.2093	0.4792	0.6571	-0.076
Mof_H 	H 	0.198	0.5046	0.67	0.051
Mof_C 	C 	0.1877	0.4594	0.6205	0.017
Mof_H 	H 	0.1618	0.471	0.6093	0.032
Mof_C 	C 	0.2727	0.4835	0.7138	0.164
Mof_C 	C 	0.3161	0.4835	0.7143	-0.275
Mof_H 	H 	0.3308	0.4718	0.6892	0.121
Mof_C 	C 	0.40942	0.53889	0.75069	0.106
Mof_C 	C 	0.38737	0.58113	0.7502	-0.09
Mof_H 	H 	0.3574	0.5857	0.7502	0.061
Mof_O 	O 	0.86583	0.30158	0.04806	-0.488
Mof_O 	O 	0.91766	0.35413	0.04844	-0.509
Mof_C 	C 	0.9014	0.3205	0.0623	0.394
Mof_C 	C 	0.9215	0.2945	0.1006	-0.108
Mof_C 	C 	0.9046	0.2566	0.118	0.021
Mof_H 	H 	0.8792	0.2456	0.105	0.026
Mof_C 	C 	0.9235	0.2342	0.1535	-0.077
Mof_H 	H 	0.9121	0.2079	0.1638	0.047
Mof_C 	C 	0.9617	0.2526	0.1746	-0.03
Mof_C 	C 	0.9792	0.2907	0.1571	-0.043
Mof_H 	H 	0.0046	0.302	0.17	0.029
Mof_C 	C 	0.9594	0.3123	0.1205	-0.003
Mof_H 	H 	0.971	0.3382	0.1093	0.037
Mof_C 	C 	0.9835	0.2273	0.2138	0.177
Mof_C 	C 	0.9835	0.1839	0.2143	-0.266
Mof_H 	H 	0.9718	0.1692	0.1892	0.117
Mof_C 	C 	0.03889	0.09058	0.25069	0.104
Mof_C 	C 	0.08113	0.11263	0.2502	-0.093
Mof_H 	H 	0.0857	0.1426	0.2502	0.058
Mof_O 	O 	0.36583	0.80158	0.54806	-0.474
Mof_O 	O 	0.41766	0.85413	0.54844	-0.495
Mof_C 	C 	0.4014	0.8205	0.5623	0.397
Mof_C 	C 	0.4215	0.7945	0.6006	-0.112
Mof_C 	C 	0.4046	0.7566	0.618	0.032
Mof_H 	H 	0.3792	0.7456	0.605	0.029
Mof_C 	C 	0.4235	0.7342	0.6535	-0.085
Mof_H 	H 	0.4121	0.7079	0.6638	0.054
Mof_C 	C 	0.4617	0.7526	0.6746	-0.013
Mof_C 	C 	0.4792	0.7907	0.6571	-0.075
Mof_H 	H 	0.5046	0.802	0.67	0.052
Mof_C 	C 	0.4594	0.8123	0.6205	0.017
Mof_H 	H 	0.471	0.8382	0.6093	0.034
Mof_C 	C 	0.4835	0.7273	0.7138	0.165
Mof_C 	C 	0.4835	0.6839	0.7143	-0.276
Mof_H 	H 	0.4718	0.6692	0.6892	0.121
Mof_C 	C 	0.53889	0.59058	0.75069	0.106
Mof_C 	C 	0.58113	0.61263	0.7502	-0.09
Mof_H 	H 	0.5857	0.6426	0.7502	0.061
Mof_O 	O 	0.13417	0.69842	0.04806	-0.49
Mof_O 	O 	0.08234	0.64587	0.04844	-0.514
Mof_C 	C 	0.0986	0.6795	0.0623	0.402
Mof_C 	C 	0.0785	0.7055	0.1006	-0.133
Mof_C 	C 	0.0954	0.7434	0.118	0.046
Mof_H 	H 	0.1208	0.7544	0.105	0.018
Mof_C 	C 	0.0765	0.7658	0.1535	-0.103
Mof_H 	H 	0.0879	0.7921	0.1638	0.056
Mof_C 	C 	0.0383	0.7474	0.1746	0.001
Mof_C 	C 	0.0208	0.7093	0.1571	-0.115
Mof_H 	H 	0.9954	0.698	0.17	0.071
Mof_C 	C 	0.0406	0.6877	0.1205	0.039
Mof_H 	H 	0.029	0.6618	0.1093	0.018
Mof_C 	C 	0.0165	0.7727	0.2138	0.157
Mof_C 	C 	0.0165	0.8161	0.2143	-0.271
Mof_H 	H 	0.0282	0.8308	0.1892	0.115
Mof_C 	C 	0.96111	0.90942	0.25069	0.117
Mof_C 	C 	0.91887	0.88737	0.2502	-0.093
Mof_H 	H 	0.9143	0.8574	0.2502	0.062
Mof_O 	O 	0.63417	0.19842	0.54806	-0.474
Mof_O 	O 	0.58234	0.14587	0.54844	-0.497
Mof_C 	C 	0.5986	0.1795	0.5623	0.397
Mof_C 	C 	0.5785	0.2055	0.6006	-0.113
Mof_C 	C 	0.5954	0.2434	0.618	0.032
Mof_H 	H 	0.6208	0.2544	0.605	0.029
Mof_C 	C 	0.5765	0.2658	0.6535	-0.086
Mof_H 	H 	0.5879	0.2921	0.6638	0.054
Mof_C 	C 	0.5383	0.2474	0.6746	-0.013
Mof_C 	C 	0.5208	0.2093	0.6571	-0.076
Mof_H 	H 	0.4954	0.198	0.67	0.051
Mof_C 	C 	0.5406	0.1877	0.6205	0.017
Mof_H 	H 	0.529	0.1618	0.6093	0.032
Mof_C 	C 	0.5165	0.2727	0.7138	0.164
Mof_C 	C 	0.5165	0.3161	0.7143	-0.275
Mof_H 	H 	0.5282	0.3308	0.6892	0.121
Mof_C 	C 	0.46111	0.40942	0.75069	0.106
Mof_C 	C 	0.41887	0.38737	0.7502	-0.09
Mof_H 	H 	0.4143	0.3574	0.7502	0.061
Mof_O 	O 	0.69842	0.13417	0.45194	-0.475
Mof_O 	O 	0.64587	0.08234	0.45156	-0.499
Mof_C 	C 	0.6795	0.0986	0.4377	0.401
Mof_C 	C 	0.7055	0.0785	0.3994	-0.124
Mof_C 	C 	0.7434	0.0954	0.382	0.043
Mof_H 	H 	0.7544	0.1208	0.395	0.025
Mof_C 	C 	0.7658	0.0765	0.3465	-0.098
Mof_H 	H 	0.7921	0.0879	0.3362	0.057
Mof_C 	C 	0.7474	0.0383	0.3254	-0
Mof_C 	C 	0.7093	0.0208	0.3429	-0.11
Mof_H 	H 	0.698	0.9954	0.33	0.072
Mof_C 	C 	0.6877	0.0406	0.3795	0.036
Mof_H 	H 	0.6618	0.029	0.3907	0.023
Mof_C 	C 	0.7727	0.0165	0.2862	0.159
Mof_C 	C 	0.8161	0.0165	0.2857	-0.272
Mof_H 	H 	0.8308	0.0282	0.3108	0.119
Mof_C 	C 	0.90942	0.96111	0.24931	0.117
Mof_C 	C 	0.88737	0.91887	0.2498	-0.093
Mof_H 	H 	0.8574	0.9143	0.2498	0.062
Mof_O 	O 	0.19842	0.63417	0.95194	-0.45
Mof_O 	O 	0.14587	0.58234	0.95156	-0.473
Mof_C 	C 	0.1795	0.5986	0.9377	0.392
Mof_C 	C 	0.2055	0.5785	0.8994	-0.102
Mof_C 	C 	0.2434	0.5954	0.882	0.027
Mof_H 	H 	0.2544	0.6208	0.895	0.036
Mof_C 	C 	0.2658	0.5765	0.8465	-0.079
Mof_H 	H 	0.2921	0.5879	0.8362	0.054
Mof_C 	C 	0.2474	0.5383	0.8254	-0.015
Mof_C 	C 	0.2093	0.5208	0.8429	-0.069
Mof_H 	H 	0.198	0.4954	0.83	0.052
Mof_C 	C 	0.1877	0.5406	0.8795	0.013
Mof_H 	H 	0.1618	0.529	0.8907	0.039
Mof_C 	C 	0.2727	0.5165	0.7862	0.167
Mof_C 	C 	0.3161	0.5165	0.7857	-0.276
Mof_H 	H 	0.3308	0.5282	0.8108	0.124
Mof_C 	C 	0.40942	0.46111	0.74931	0.106
Mof_C 	C 	0.38737	0.41887	0.7498	-0.09
Mof_H 	H 	0.3574	0.4143	0.7498	0.061
Mof_O 	O 	0.30158	0.86583	0.45194	-0.473
Mof_O 	O 	0.35413	0.91766	0.45156	-0.494
Mof_C 	C 	0.3205	0.9014	0.4377	0.392
Mof_C 	C 	0.2945	0.9215	0.3994	-0.099
Mof_C 	C 	0.2566	0.9046	0.382	0.018
Mof_H 	H 	0.2456	0.8792	0.395	0.033
Mof_C 	C 	0.2342	0.9235	0.3465	-0.071
Mof_H 	H 	0.2079	0.9121	0.3362	0.048
Mof_C 	C 	0.2526	0.9617	0.3254	-0.031
Mof_C 	C 	0.2907	0.9792	0.3429	-0.038
Mof_H 	H 	0.302	0.0046	0.33	0.03
Mof_C 	C 	0.3123	0.9594	0.3795	-0.006
Mof_H 	H 	0.3382	0.971	0.3907	0.043
Mof_C 	C 	0.2273	0.9835	0.2862	0.18
Mof_C 	C 	0.1839	0.9835	0.2857	-0.267
Mof_H 	H 	0.1692	0.9718	0.3108	0.12
Mof_C 	C 	0.09058	0.03889	0.24931	0.104
Mof_C 	C 	0.11263	0.08113	0.2498	-0.093
Mof_H 	H 	0.1426	0.0857	0.2498	0.059
Mof_O 	O 	0.80158	0.36583	0.95194	-0.45
Mof_O 	O 	0.85413	0.41766	0.95156	-0.471
Mof_C 	C 	0.8205	0.4014	0.9377	0.392
Mof_C 	C 	0.7945	0.4215	0.8994	-0.101
Mof_C 	C 	0.7566	0.4046	0.882	0.027
Mof_H 	H 	0.7456	0.3792	0.895	0.036
Mof_C 	C 	0.7342	0.4235	0.8465	-0.078
Mof_H 	H 	0.7079	0.4121	0.8362	0.054
Mof_C 	C 	0.7526	0.4617	0.8254	-0.015
Mof_C 	C 	0.7907	0.4792	0.8429	-0.068
Mof_H 	H 	0.802	0.5046	0.83	0.053
Mof_C 	C 	0.8123	0.4594	0.8795	0.013
Mof_H 	H 	0.8382	0.471	0.8907	0.041
Mof_C 	C 	0.7273	0.4835	0.7862	0.167
Mof_C 	C 	0.6839	0.4835	0.7857	-0.277
Mof_H 	H 	0.6692	0.4718	0.8108	0.125
Mof_C 	C 	0.59058	0.53889	0.74931	0.106
Mof_C 	C 	0.61263	0.58113	0.7498	-0.09
Mof_H 	H 	0.6426	0.5857	0.7498	0.062
Mof_O 	O 	0.13417	0.30158	0.45194	-0.476
Mof_O 	O 	0.08234	0.35413	0.45156	-0.499
Mof_C 	C 	0.0986	0.3205	0.4377	0.401
Mof_C 	C 	0.0785	0.2945	0.3994	-0.125
Mof_C 	C 	0.0954	0.2566	0.382	0.043
Mof_H 	H 	0.1208	0.2456	0.395	0.023
Mof_C 	C 	0.0765	0.2342	0.3465	-0.099
Mof_H 	H 	0.0879	0.2079	0.3362	0.056
Mof_C 	C 	0.0383	0.2526	0.3254	0
Mof_C 	C 	0.0208	0.2907	0.3429	-0.111
Mof_H 	H 	0.9954	0.302	0.33	0.072
Mof_C 	C 	0.0406	0.3123	0.3795	0.037
Mof_H 	H 	0.029	0.3382	0.3907	0.023
Mof_C 	C 	0.0165	0.2273	0.2862	0.158
Mof_C 	C 	0.0165	0.1839	0.2857	-0.271
Mof_H 	H 	0.0282	0.1692	0.3108	0.118
Mof_C 	C 	0.96111	0.09058	0.24931	0.117
Mof_C 	C 	0.91887	0.11263	0.2498	-0.096
Mof_H 	H 	0.9143	0.1426	0.2498	0.063
Mof_O 	O 	0.63417	0.80158	0.95194	-0.45
Mof_O 	O 	0.58234	0.85413	0.95156	-0.471
Mof_C 	C 	0.5986	0.8205	0.9377	0.392
Mof_C 	C 	0.5785	0.7945	0.8994	-0.101
Mof_C 	C 	0.5954	0.7566	0.882	0.027
Mof_H 	H 	0.6208	0.7456	0.895	0.037
Mof_C 	C 	0.5765	0.7342	0.8465	-0.078
Mof_H 	H 	0.5879	0.7079	0.8362	0.054
Mof_C 	C 	0.5383	0.7526	0.8254	-0.016
Mof_C 	C 	0.5208	0.7907	0.8429	-0.068
Mof_H 	H 	0.4954	0.802	0.83	0.053
Mof_C 	C 	0.5406	0.8123	0.8795	0.013
Mof_H 	H 	0.529	0.8382	0.8907	0.041
Mof_C 	C 	0.5165	0.7273	0.7862	0.168
Mof_C 	C 	0.5165	0.6839	0.7857	-0.277
Mof_H 	H 	0.5282	0.6692	0.8108	0.125
Mof_C 	C 	0.46111	0.59058	0.74931	0.106
Mof_C 	C 	0.41887	0.61263	0.7498	-0.09
Mof_H 	H 	0.4143	0.6426	0.7498	0.062
Mof_O 	O 	0.86583	0.69842	0.45194	-0.473
Mof_O 	O 	0.91766	0.64587	0.45156	-0.494
Mof_C 	C 	0.9014	0.6795	0.4377	0.393
Mof_C 	C 	0.9215	0.7055	0.3994	-0.099
Mof_C 	C 	0.9046	0.7434	0.382	0.018
Mof_H 	H 	0.8792	0.7544	0.395	0.034
Mof_C 	C 	0.9235	0.7658	0.3465	-0.071
Mof_H 	H 	0.9121	0.7921	0.3362	0.049
Mof_C 	C 	0.9617	0.7474	0.3254	-0.031
Mof_C 	C 	0.9792	0.7093	0.3429	-0.038
Mof_H 	H 	0.0046	0.698	0.33	0.03
Mof_C 	C 	0.9594	0.6877	0.3795	-0.005
Mof_H 	H 	0.971	0.6618	0.3907	0.043
Mof_C 	C 	0.9835	0.7727	0.2862	0.18
Mof_C 	C 	0.9835	0.8161	0.2857	-0.268
Mof_H 	H 	0.9718	0.8308	0.3108	0.121
Mof_C 	C 	0.03889	0.90942	0.24931	0.105
Mof_C 	C 	0.08113	0.88737	0.2498	-0.09
Mof_H 	H 	0.0857	0.8574	0.2498	0.059
Mof_O 	O 	0.36583	0.19842	0.95194	-0.45
Mof_O 	O 	0.41766	0.14587	0.95156	-0.473
Mof_C 	C 	0.4014	0.1795	0.9377	0.393
Mof_C 	C 	0.4215	0.2055	0.8994	-0.102
Mof_C 	C 	0.4046	0.2434	0.882	0.027
Mof_H 	H 	0.3792	0.2544	0.895	0.036
Mof_C 	C 	0.4235	0.2658	0.8465	-0.079
Mof_H 	H 	0.4121	0.2921	0.8362	0.054
Mof_C 	C 	0.4617	0.2474	0.8254	-0.015
Mof_C 	C 	0.4792	0.2093	0.8429	-0.069
Mof_H 	H 	0.5046	0.198	0.83	0.052
Mof_C 	C 	0.4594	0.1877	0.8795	0.013
Mof_H 	H 	0.471	0.1618	0.8907	0.039
Mof_C 	C 	0.4835	0.2727	0.7862	0.166
Mof_C 	C 	0.4835	0.3161	0.7857	-0.276
Mof_H 	H 	0.4718	0.3308	0.8108	0.124
Mof_C 	C 	0.53889	0.40942	0.74931	0.106
Mof_C 	C 	0.58113	0.38737	0.7498	-0.09
Mof_H 	H 	0.5857	0.3574	0.7498	0.062
Mof_O 	O 	0.69842	0.86583	0.95194	-0.448
Mof_O 	O 	0.64587	0.91766	0.95156	-0.469
Mof_C 	C 	0.6795	0.9014	0.9377	0.388
Mof_C 	C 	0.7055	0.9215	0.8994	-0.087
Mof_C 	C 	0.7434	0.9046	0.882	0.013
Mof_H 	H 	0.7544	0.8792	0.895	0.042
Mof_C 	C 	0.7658	0.9235	0.8465	-0.062
Mof_H 	H 	0.7921	0.9121	0.8362	0.049
Mof_C 	C 	0.7474	0.9617	0.8254	-0.034
Mof_C 	C 	0.7093	0.9792	0.8429	-0.03
Mof_H 	H 	0.698	0.0046	0.83	0.031
Mof_C 	C 	0.6877	0.9594	0.8795	-0.01
Mof_H 	H 	0.6618	0.971	0.8907	0.051
Mof_C 	C 	0.7727	0.9835	0.7862	0.188
Mof_C 	C 	0.8161	0.9835	0.7857	-0.273
Mof_H 	H 	0.8308	0.9718	0.8108	0.126
Mof_C 	C 	0.90942	0.03889	0.74931	0.108
Mof_C 	C 	0.88737	0.08113	0.7498	-0.089
Mof_H 	H 	0.8574	0.0857	0.7498	0.061
Mof_O 	O 	0.19842	0.36583	0.45194	-0.475
Mof_O 	O 	0.14587	0.41766	0.45156	-0.497
Mof_C 	C 	0.1795	0.4014	0.4377	0.397
Mof_C 	C 	0.2055	0.4215	0.3994	-0.114
Mof_C 	C 	0.2434	0.4046	0.382	0.033
Mof_H 	H 	0.2544	0.3792	0.395	0.028
Mof_C 	C 	0.2658	0.4235	0.3465	-0.088
Mof_H 	H 	0.2921	0.4121	0.3362	0.053
Mof_C 	C 	0.2474	0.4617	0.3254	-0.012
Mof_C 	C 	0.2093	0.4792	0.3429	-0.078
Mof_H 	H 	0.198	0.5046	0.33	0.051
Mof_C 	C 	0.1877	0.4594	0.3795	0.018
Mof_H 	H 	0.1618	0.471	0.3907	0.031
Mof_C 	C 	0.2727	0.4835	0.2862	0.158
Mof_C 	C 	0.3161	0.4835	0.2857	-0.27
Mof_H 	H 	0.3308	0.4718	0.3108	0.119
Mof_C 	C 	0.40942	0.53889	0.24931	0.102
Mof_C 	C 	0.38737	0.58113	0.2498	-0.091
Mof_H 	H 	0.3574	0.5857	0.2498	0.059
Mof_O 	O 	0.30158	0.13417	0.95194	-0.451
Mof_O 	O 	0.35413	0.08234	0.95156	-0.474
Mof_C 	C 	0.3205	0.0986	0.9377	0.396
Mof_C 	C 	0.2945	0.0785	0.8994	-0.113
Mof_C 	C 	0.2566	0.0954	0.882	0.038
Mof_H 	H 	0.2456	0.1208	0.895	0.032
Mof_C 	C 	0.2342	0.0765	0.8465	-0.09
Mof_H 	H 	0.2079	0.0879	0.8362	0.057
Mof_C 	C 	0.2526	0.0383	0.8254	-0.003
Mof_C 	C 	0.2907	0.0208	0.8429	-0.103
Mof_H 	H 	0.302	0.9954	0.83	0.073
Mof_C 	C 	0.3123	0.0406	0.8795	0.032
Mof_H 	H 	0.3382	0.029	0.8907	0.031
Mof_C 	C 	0.2273	0.0165	0.7862	0.166
Mof_C 	C 	0.1839	0.0165	0.7857	-0.277
Mof_H 	H 	0.1692	0.0282	0.8108	0.123
Mof_C 	C 	0.09058	0.96111	0.74931	0.12
Mof_C 	C 	0.11263	0.91887	0.7498	-0.095
Mof_H 	H 	0.1426	0.9143	0.7498	0.065
Mof_O 	O 	0.80158	0.63417	0.45194	-0.474
Mof_O 	O 	0.85413	0.58234	0.45156	-0.496
Mof_C 	C 	0.8205	0.5986	0.4377	0.397
Mof_C 	C 	0.7945	0.5785	0.3994	-0.113
Mof_C 	C 	0.7566	0.5954	0.382	0.032
Mof_H 	H 	0.7456	0.6208	0.395	0.028
Mof_C 	C 	0.7342	0.5765	0.3465	-0.087
Mof_H 	H 	0.7079	0.5879	0.3362	0.053
Mof_C 	C 	0.7526	0.5383	0.3254	-0.012
Mof_C 	C 	0.7907	0.5208	0.3429	-0.077
Mof_H 	H 	0.802	0.4954	0.33	0.052
Mof_C 	C 	0.8123	0.5406	0.3795	0.017
Mof_H 	H 	0.8382	0.529	0.3907	0.033
Mof_C 	C 	0.7273	0.5165	0.2862	0.159
Mof_C 	C 	0.6839	0.5165	0.2857	-0.271
Mof_H 	H 	0.6692	0.5282	0.3108	0.119
Mof_C 	C 	0.59058	0.46111	0.24931	0.103
Mof_C 	C 	0.61263	0.41887	0.2498	-0.091
Mof_H 	H 	0.6426	0.4143	0.2498	0.06
Mof_O 	O 	0.13417	0.69842	0.95194	-0.451
Mof_O 	O 	0.08234	0.64587	0.95156	-0.474
Mof_C 	C 	0.0986	0.6795	0.9377	0.396
Mof_C 	C 	0.0785	0.7055	0.8994	-0.112
Mof_C 	C 	0.0954	0.7434	0.882	0.037
Mof_H 	H 	0.1208	0.7544	0.895	0.033
Mof_C 	C 	0.0765	0.7658	0.8465	-0.089
Mof_H 	H 	0.0879	0.7921	0.8362	0.058
Mof_C 	C 	0.0383	0.7474	0.8254	-0.004
Mof_C 	C 	0.0208	0.7093	0.8429	-0.101
Mof_H 	H 	0.9954	0.698	0.83	0.073
Mof_C 	C 	0.0406	0.6877	0.8795	0.032
Mof_H 	H 	0.029	0.6618	0.8907	0.031
Mof_C 	C 	0.0165	0.7727	0.7862	0.167
Mof_C 	C 	0.0165	0.8161	0.7857	-0.278
Mof_H 	H 	0.0282	0.8308	0.8108	0.124
Mof_C 	C 	0.96111	0.90942	0.74931	0.12
Mof_C 	C 	0.91887	0.88737	0.7498	-0.092
Mof_H 	H 	0.9143	0.8574	0.7498	0.065
Mof_O 	O 	0.63417	0.19842	0.45194	-0.474
Mof_O 	O 	0.58234	0.14587	0.45156	-0.497
Mof_C 	C 	0.5986	0.1795	0.4377	0.397
Mof_C 	C 	0.5785	0.2055	0.3994	-0.114
Mof_C 	C 	0.5954	0.2434	0.382	0.033
Mof_H 	H 	0.6208	0.2544	0.395	0.028
Mof_C 	C 	0.5765	0.2658	0.3465	-0.088
Mof_H 	H 	0.5879	0.2921	0.3362	0.054
Mof_C 	C 	0.5383	0.2474	0.3254	-0.012
Mof_C 	C 	0.5208	0.2093	0.3429	-0.078
Mof_H 	H 	0.4954	0.198	0.33	0.051
Mof_C 	C 	0.5406	0.1877	0.3795	0.018
Mof_H 	H 	0.529	0.1618	0.3907	0.031
Mof_C 	C 	0.5165	0.2727	0.2862	0.158
Mof_C 	C 	0.5165	0.3161	0.2857	-0.27
Mof_H 	H 	0.5282	0.3308	0.3108	0.119
Mof_C 	C 	0.46111	0.40942	0.24931	0.102
Mof_C 	C 	0.41887	0.38737	0.2498	-0.091
Mof_H 	H 	0.4143	0.3574	0.2498	0.059
Mof_O 	O 	0.86583	0.30158	0.95194	-0.449
Mof_O 	O 	0.91766	0.35413	0.95156	-0.47
Mof_C 	C 	0.9014	0.3205	0.9377	0.388
Mof_C 	C 	0.9215	0.2945	0.8994	-0.087
Mof_C 	C 	0.9046	0.2566	0.882	0.013
Mof_H 	H 	0.8792	0.2456	0.895	0.041
Mof_C 	C 	0.9235	0.2342	0.8465	-0.062
Mof_H 	H 	0.9121	0.2079	0.8362	0.048
Mof_C 	C 	0.9617	0.2526	0.8254	-0.035
Mof_C 	C 	0.9792	0.2907	0.8429	-0.029
Mof_H 	H 	0.0046	0.302	0.83	0.031
Mof_C 	C 	0.9594	0.3123	0.8795	-0.01
Mof_H 	H 	0.971	0.3382	0.8907	0.051
Mof_C 	C 	0.9835	0.2273	0.7862	0.188
Mof_C 	C 	0.9835	0.1839	0.7857	-0.272
Mof_H 	H 	0.9718	0.1692	0.8108	0.125
Mof_C 	C 	0.03889	0.09058	0.74931	0.107
Mof_C 	C 	0.08113	0.11263	0.7498	-0.092
Mof_H 	H 	0.0857	0.1426	0.7498	0.061
Mof_O 	O 	0.36583	0.80158	0.45194	-0.474
Mof_O 	O 	0.41766	0.85413	0.45156	-0.496
Mof_C 	C 	0.4014	0.8205	0.4377	0.397
Mof_C 	C 	0.4215	0.7945	0.3994	-0.113
Mof_C 	C 	0.4046	0.7566	0.382	0.032
Mof_H 	H 	0.3792	0.7456	0.395	0.028
Mof_C 	C 	0.4235	0.7342	0.3465	-0.087
Mof_H 	H 	0.4121	0.7079	0.3362	0.053
Mof_C 	C 	0.4617	0.7526	0.3254	-0.012
Mof_C 	C 	0.4792	0.7907	0.3429	-0.077
Mof_H 	H 	0.5046	0.802	0.33	0.052
Mof_C 	C 	0.4594	0.8123	0.3795	0.017
Mof_H 	H 	0.471	0.8382	0.3907	0.033
Mof_C 	C 	0.4835	0.7273	0.2862	0.159
Mof_C 	C 	0.4835	0.6839	0.2857	-0.271
Mof_H 	H 	0.4718	0.6692	0.3108	0.119
Mof_C 	C 	0.53889	0.59058	0.24931	0.103
Mof_C 	C 	0.58113	0.61263	0.2498	-0.091
Mof_H 	H 	0.5857	0.6426	0.2498	0.06
Mof_O 	O 	0.30158	0.86583	0.54806	-0.473
Mof_O 	O 	0.35413	0.91766	0.54844	-0.494
Mof_C 	C 	0.3205	0.9014	0.5623	0.392
Mof_C 	C 	0.2945	0.9215	0.6006	-0.098
Mof_C 	C 	0.2566	0.9046	0.618	0.017
Mof_H 	H 	0.2456	0.8792	0.605	0.033
Mof_C 	C 	0.2342	0.9235	0.6535	-0.069
Mof_H 	H 	0.2079	0.9121	0.6638	0.048
Mof_C 	C 	0.2526	0.9617	0.6746	-0.033
Mof_C 	C 	0.2907	0.9792	0.6571	-0.036
Mof_H 	H 	0.302	0.0046	0.67	0.03
Mof_C 	C 	0.3123	0.9594	0.6205	-0.006
Mof_H 	H 	0.3382	0.971	0.6093	0.044
Mof_C 	C 	0.2273	0.9835	0.7138	0.185
Mof_C 	C 	0.1839	0.9835	0.7143	-0.272
Mof_H 	H 	0.1692	0.9718	0.6892	0.122
Mof_C 	C 	0.09058	0.03889	0.75069	0.107
Mof_C 	C 	0.11263	0.08113	0.7502	-0.091
Mof_H 	H 	0.1426	0.0857	0.7502	0.06
Mof_O 	O 	0.80158	0.36583	0.04806	-0.489
Mof_O 	O 	0.85413	0.41766	0.04844	-0.511
Mof_C 	C 	0.8205	0.4014	0.0623	0.398
Mof_C 	C 	0.7945	0.4215	0.1006	-0.122
Mof_C 	C 	0.7566	0.4046	0.118	0.036
Mof_H 	H 	0.7456	0.3792	0.105	0.021
Mof_C 	C 	0.7342	0.4235	0.1535	-0.093
Mof_H 	H 	0.7079	0.4121	0.1638	0.053
Mof_C 	C 	0.7526	0.4617	0.1746	-0.01
Mof_C 	C 	0.7907	0.4792	0.1571	-0.082
Mof_H 	H 	0.802	0.5046	0.17	0.051
Mof_C 	C 	0.8123	0.4594	0.1205	0.02
Mof_H 	H 	0.8382	0.471	0.1093	0.027
Mof_C 	C 	0.7273	0.4835	0.2138	0.157
Mof_C 	C 	0.6839	0.4835	0.2143	-0.27
Mof_H 	H 	0.6692	0.4718	0.1892	0.116
Mof_C 	C 	0.59058	0.53889	0.25069	0.102
Mof_C 	C 	0.61263	0.58113	0.2502	-0.091
Mof_H 	H 	0.6426	0.5857	0.2502	0.059
Mof_O 	O 	0.69842	0.13417	0.54806	-0.475
Mof_O 	O 	0.64587	0.08234	0.54844	-0.498
Mof_C 	C 	0.6795	0.0986	0.5623	0.401
Mof_C 	C 	0.7055	0.0785	0.6006	-0.123
Mof_C 	C 	0.7434	0.0954	0.618	0.042
Mof_H 	H 	0.7544	0.1208	0.605	0.025
Mof_C 	C 	0.7658	0.0765	0.6535	-0.096
Mof_H 	H 	0.7921	0.0879	0.6638	0.057
Mof_C 	C 	0.7474	0.0383	0.6746	-0.001
Mof_C 	C 	0.7093	0.0208	0.6571	-0.108
Mof_H 	H 	0.698	0.9954	0.67	0.072
Mof_C 	C 	0.6877	0.0406	0.6205	0.036
Mof_H 	H 	0.6618	0.029	0.6093	0.024
Mof_C 	C 	0.7727	0.0165	0.7138	0.165
Mof_C 	C 	0.8161	0.0165	0.7143	-0.277
Mof_H 	H 	0.8308	0.0282	0.6892	0.12
Mof_C 	C 	0.90942	0.96111	0.75069	0.12
Mof_C 	C 	0.88737	0.91887	0.7502	-0.091
Mof_H 	H 	0.8574	0.9143	0.7502	0.064
Mof_O 	O 	0.19842	0.63417	0.04806	-0.489
Mof_O 	O 	0.14587	0.58234	0.04844	-0.512
Mof_C 	C 	0.1795	0.5986	0.0623	0.399
Mof_C 	C 	0.2055	0.5785	0.1006	-0.123
Mof_C 	C 	0.2434	0.5954	0.118	0.036
Mof_H 	H 	0.2544	0.6208	0.105	0.021
Mof_C 	C 	0.2658	0.5765	0.1535	-0.093
Mof_H 	H 	0.2921	0.5879	0.1638	0.053
Mof_C 	C 	0.2474	0.5383	0.1746	-0.01
Mof_C 	C 	0.2093	0.5208	0.1571	-0.083
Mof_H 	H 	0.198	0.4954	0.17	0.05
Mof_C 	C 	0.1877	0.5406	0.1205	0.02
Mof_H 	H 	0.1618	0.529	0.1093	0.025
Mof_C 	C 	0.2727	0.5165	0.2138	0.156
Mof_C 	C 	0.3161	0.5165	0.2143	-0.27
Mof_H 	H 	0.3308	0.5282	0.1892	0.116
Mof_C 	C 	0.40942	0.46111	0.25069	0.102
Mof_C 	C 	0.38737	0.41887	0.2502	-0.091
Mof_H 	H 	0.3574	0.4143	0.2502	0.059
Mof_O 	O 	0.86583	0.69842	0.54806	-0.472
Mof_O 	O 	0.91766	0.64587	0.54844	-0.494
Mof_C 	C 	0.9014	0.6795	0.5623	0.392
Mof_C 	C 	0.9215	0.7055	0.6006	-0.098
Mof_C 	C 	0.9046	0.7434	0.618	0.018
Mof_H 	H 	0.8792	0.7544	0.605	0.034
Mof_C 	C 	0.9235	0.7658	0.6535	-0.069
Mof_H 	H 	0.9121	0.7921	0.6638	0.049
Mof_C 	C 	0.9617	0.7474	0.6746	-0.032
Mof_C 	C 	0.9792	0.7093	0.6571	-0.036
Mof_H 	H 	0.0046	0.698	0.67	0.03
Mof_C 	C 	0.9594	0.6877	0.6205	-0.006
Mof_H 	H 	0.971	0.6618	0.6093	0.044
Mof_C 	C 	0.9835	0.7727	0.7138	0.185
Mof_C 	C 	0.9835	0.8161	0.7143	-0.272
Mof_H 	H 	0.9718	0.8308	0.6892	0.123
Mof_C 	C 	0.03889	0.90942	0.75069	0.108
Mof_C 	C 	0.08113	0.88737	0.7502	-0.088
Mof_H 	H 	0.0857	0.8574	0.7502	0.06
Mof_O 	O 	0.36583	0.19842	0.04806	-0.49
Mof_O 	O 	0.41766	0.14587	0.04844	-0.513
Mof_C 	C 	0.4014	0.1795	0.0623	0.399
Mof_C 	C 	0.4215	0.2055	0.1006	-0.123
Mof_C 	C 	0.4046	0.2434	0.118	0.036
Mof_H 	H 	0.3792	0.2544	0.105	0.021
Mof_C 	C 	0.4235	0.2658	0.1535	-0.093
Mof_H 	H 	0.4121	0.2921	0.1638	0.053
Mof_C 	C 	0.4617	0.2474	0.1746	-0.01
Mof_C 	C 	0.4792	0.2093	0.1571	-0.083
Mof_H 	H 	0.5046	0.198	0.17	0.05
Mof_C 	C 	0.4594	0.1877	0.1205	0.02
Mof_H 	H 	0.471	0.1618	0.1093	0.025
Mof_C 	C 	0.4835	0.2727	0.2138	0.156
Mof_C 	C 	0.4835	0.3161	0.2143	-0.27
Mof_H 	H 	0.4718	0.3308	0.1892	0.115
Mof_C 	C 	0.53889	0.40942	0.25069	0.102
Mof_C 	C 	0.58113	0.38737	0.2502	-0.091
Mof_H 	H 	0.5857	0.3574	0.2502	0.059
Mof_O 	O 	0.13417	0.30158	0.54806	-0.475
Mof_O 	O 	0.08234	0.35413	0.54844	-0.499
Mof_C 	C 	0.0986	0.3205	0.5623	0.401
Mof_C 	C 	0.0785	0.2945	0.6006	-0.124
Mof_C 	C 	0.0954	0.2566	0.618	0.043
Mof_H 	H 	0.1208	0.2456	0.605	0.024
Mof_C 	C 	0.0765	0.2342	0.6535	-0.097
Mof_H 	H 	0.0879	0.2079	0.6638	0.057
Mof_C 	C 	0.0383	0.2526	0.6746	-0.001
Mof_C 	C 	0.0208	0.2907	0.6571	-0.109
Mof_H 	H 	0.9954	0.302	0.67	0.073
Mof_C 	C 	0.0406	0.3123	0.6205	0.036
Mof_H 	H 	0.029	0.3382	0.6093	0.024
Mof_C 	C 	0.0165	0.2273	0.7138	0.164
Mof_C 	C 	0.0165	0.1839	0.7143	-0.276
Mof_H 	H 	0.0282	0.1692	0.6892	0.119
Mof_C 	C 	0.96111	0.09058	0.75069	0.12
Mof_C 	C 	0.91887	0.11263	0.7502	-0.095
Mof_H 	H 	0.9143	0.1426	0.7502	0.064
Mof_O 	O 	0.63417	0.80158	0.04806	-0.489
Mof_O 	O 	0.58234	0.85413	0.04844	-0.511
Mof_C 	C 	0.5986	0.8205	0.0623	0.398
Mof_C 	C 	0.5785	0.7945	0.1006	-0.122
Mof_C 	C 	0.5954	0.7566	0.118	0.035
Mof_H 	H 	0.6208	0.7456	0.105	0.022
Mof_C 	C 	0.5765	0.7342	0.1535	-0.092
Mof_H 	H 	0.5879	0.7079	0.1638	0.053
Mof_C 	C 	0.5383	0.7526	0.1746	-0.01
Mof_C 	C 	0.5208	0.7907	0.1571	-0.082
Mof_H 	H 	0.4954	0.802	0.17	0.051
Mof_C 	C 	0.5406	0.8123	0.1205	0.02
Mof_H 	H 	0.529	0.8382	0.1093	0.027
Mof_C 	C 	0.5165	0.7273	0.2138	0.157
Mof_C 	C 	0.5165	0.6839	0.2143	-0.27
Mof_H 	H 	0.5282	0.6692	0.1892	0.116
Mof_C 	C 	0.46111	0.59058	0.25069	0.102
Mof_C 	C 	0.41887	0.61263	0.2502	-0.091
Mof_H 	H 	0.4143	0.6426	0.2502	0.059
Mof_Zn	Zn	0.32512	0.17488	-0	1.183
Mof_Zn	Zn	0.3935	0.1065	-0	1.188
Mof_Zn	Zn	0.67488	0.82512	-0	1.183
Mof_Zn	Zn	0.6065	0.8935	-0	1.189
Mof_Zn	Zn	0.17488	0.32512	0.5	1.2
Mof_Zn	Zn	0.1065	0.3935	0.5	1.205
Mof_Zn	Zn	0.82512	0.32512	-0	1.183
Mof_Zn	Zn	0.8935	0.3935	-0	1.189
Mof_Zn	Zn	0.17488	0.67488	-0	1.183
Mof_Zn	Zn	0.1065	0.6065	-0	1.188
Mof_Zn	Zn	0.67488	0.17488	0.5	1.2
Mof_Zn	Zn	0.6065	0.1065	0.5	1.205
Mof_Zn	Zn	0.32512	0.82512	0.5	1.2
Mof_Zn	Zn	0.3935	0.8935	0.5	1.206
Mof_Zn	Zn	0.82512	0.67488	0.5	1.2
Mof_Zn	Zn	0.8935	0.6065	0.5	1.206
Mof_Zn	Zn	8.40994e-34	1.84979e-33	0.23781	0.769
Mof_Zn	Zn	0.5	0.5	0.73781	0.774
Mof_Zn	Zn	-9.22576e-34	0	0.26219	0.77
Mof_Zn	Zn	0.5	0.5	0.76219	0.776
Mof_Zn	Zn	1.00946e-32	0	0.76219	0.772
Mof_Zn	Zn	0.5	0.5	0.26219	0.774
Mof_Zn	Zn	2.6092e-33	0	0.73781	0.77
Mof_Zn	Zn	0.5	0.5	0.23781	0.773
Mof_N 	N 	0.04779	0.95221	0.25	-0.349
Mof_N 	N 	0.54779	0.45221	0.75	-0.347
Mof_N 	N 	0.95221	0.04779	0.25	-0.349
Mof_N 	N 	0.45221	0.54779	0.75	-0.347
Mof_N 	N 	0.04779	0.04779	0.25	-0.352
Mof_N 	N 	0.54779	0.54779	0.75	-0.347
Mof_N 	N 	0.95221	0.95221	0.25	-0.346
Mof_N 	N 	0.45221	0.45221	0.75	-0.347
Mof_N 	N 	0.95221	0.04779	0.75	-0.348
Mof_N 	N 	0.45221	0.54779	0.25	-0.348
Mof_N 	N 	0.04779	0.95221	0.75	-0.348
Mof_N 	N 	0.54779	0.45221	0.25	-0.348
Mof_N 	N 	0.95221	0.95221	0.75	-0.345
Mof_N 	N 	0.45221	0.45221	0.25	-0.348
Mof_N 	N 	0.04779	0.04779	0.75	-0.351
Mof_N 	N 	0.54779	0.54779	0.25	-0.348
Mof_C 	C 	0.2498	0	0.25	-0.255
Mof_H 	H 	0.2801	0	0.25	0.112
Mof_C 	C 	0.1601	0	0.25	0.218
Mof_C 	C 	0.1133	0	0.25	-0.23
Mof_C 	C 	0.7498	0.5	0.75	-0.241
Mof_H 	H 	0.7801	0.5	0.75	0.113
Mof_C 	C 	0.6601	0.5	0.75	0.232
Mof_C 	C 	0.6133	0.5	0.75	-0.218
Mof_C 	C 	0.7502	0	0.25	-0.254
Mof_H 	H 	0.7199	0	0.25	0.112
Mof_C 	C 	0.8399	0	0.25	0.219
Mof_C 	C 	0.8867	0	0.25	-0.228
Mof_C 	C 	0.2502	0.5	0.75	-0.24
Mof_H 	H 	0.2199	0.5	0.75	0.112
Mof_C 	C 	0.3399	0.5	0.75	0.232
Mof_C 	C 	0.3867	0.5	0.75	-0.218
Mof_C 	C 	-9.65685e-34	0.2498	0.25	-0.255
Mof_H 	H 	-2.81547e-33	0.2801	0.25	0.112
Mof_C 	C 	8.84103e-34	0.1601	0.25	0.218
Mof_C 	C 	-2.81547e-33	0.1133	0.25	-0.23
Mof_C 	C 	0.5	0.7498	0.75	-0.241
Mof_H 	H 	0.5	0.7801	0.75	0.113
Mof_C 	C 	0.5	0.6601	0.75	0.232
Mof_C 	C 	0.5	0.6133	0.75	-0.218
Mof_C 	C 	8.84103e-34	0.7502	0.25	-0.255
Mof_H 	H 	8.84103e-34	0.7199	0.25	0.112
Mof_C 	C 	1.56824e-32	0.8399	0.25	0.22
Mof_C 	C 	8.28325e-33	0.8867	0.25	-0.228
Mof_C 	C 	0.5	0.2502	0.75	-0.24
Mof_H 	H 	0.5	0.2199	0.75	0.112
Mof_C 	C 	0.5	0.3399	0.75	0.232
Mof_C 	C 	0.5	0.3867	0.75	-0.218
Mof_C 	C 	0.7502	0	0.75	-0.26
Mof_H 	H 	0.7199	0	0.75	0.116
Mof_C 	C 	0.8399	0	0.75	0.226
Mof_C 	C 	0.8867	0	0.75	-0.229
Mof_C 	C 	0.2502	0.5	0.25	-0.234
Mof_H 	H 	0.2199	0.5	0.25	0.108
Mof_C 	C 	0.3399	0.5	0.25	0.225
Mof_C 	C 	0.3867	0.5	0.25	-0.217
Mof_C 	C 	0.2498	0	0.75	-0.26
Mof_H 	H 	0.2801	0	0.75	0.115
Mof_C 	C 	0.1601	0	0.75	0.225
Mof_C 	C 	0.1133	0	0.75	-0.231
Mof_C 	C 	0.7498	0.5	0.25	-0.235
Mof_H 	H 	0.7801	0.5	0.25	0.109
Mof_C 	C 	0.6601	0.5	0.25	0.225
Mof_C 	C 	0.6133	0.5	0.25	-0.217
Mof_C 	C 	-1.95451e-32	0.7502	0.75	-0.26
Mof_H 	H 	-4.74684e-33	0.7199	0.75	0.116
Mof_C 	C 	-4.74684e-33	0.8399	0.75	0.226
Mof_C 	C 	-1.2146e-32	0.8867	0.75	-0.229
Mof_C 	C 	0.5	0.2502	0.25	-0.234
Mof_H 	H 	0.5	0.2199	0.25	0.108
Mof_C 	C 	0.5	0.3399	0.25	0.225
Mof_C 	C 	0.5	0.3867	0.25	-0.217
Mof_C 	C 	-1.2146e-32	0.2498	0.75	-0.26
Mof_H 	H 	-1.2146e-32	0.2801	0.75	0.115
Mof_C 	C 	-1.2146e-32	0.1601	0.75	0.225
Mof_C 	C 	-4.74684e-33	0.1133	0.75	-0.231
Mof_C 	C 	0.5	0.7498	0.25	-0.235
Mof_H 	H 	0.5	0.7801	0.25	0.109
Mof_C 	C 	0.5	0.6601	0.25	0.225
Mof_C 	C 	0.5	0.6133	0.25	-0.217
_end
