data_functionalizedCrystal
_audit_creation_method	'EQeq! by Chris Wilmer'
_symmetry_space_group_name_H-M	'P1'
_symmetry_Int_Tables_number	1
_symmetry_cell_setting	triclinic
loop_
_symmetry_equiv_pos_as_xyz
  x,y,z
_cell_length_a	12.7949
_cell_length_b	8.2582
_cell_length_c	18.2006
_cell_angle_alpha	90
_cell_angle_beta	107.778
_cell_angle_gamma	90
loop_
_atom_site_label
_atom_site_type_symbol
_atom_site_fract_x
_atom_site_fract_y
_atom_site_fract_z
_atom_site_charge
Mof_Co	Co	0.25856	0.80963	0.55834	1.174
Mof_O 	O 	0.41652	0.7554	0.5648	-0.348
Mof_O 	O 	0.44277	0.4993	0.60903	-0.235
Mof_O 	O 	0.61079	0.7538	0.53536	-0.133
Mof_O 	O 	0.26889	0.6611	0.18659	-0.33
Mof_O 	O 	0.11813	0.6287	0.08973	-0.543
Mof_O 	O 	0.70204	0.9509	0.45467	-0.327
Mof_O 	O 	0.19615	0.7884	0.4408	-0.402
Mof_O 	O 	0.14888	0.7052	0.28856	-0.116
Mof_O 	O 	0.87151	0.8588	0.51962	-0.353
Mof_O 	O 	0.01528	0.8284	0.42325	-0.442
Mof_C 	C 	0.473	0.6278	0.58428	0.292
Mof_C 	C 	0.5863	0.6322	0.57905	0.064
Mof_C 	C 	0.6759	0.5437	0.6117	-0.057
Mof_H 	H 	0.6801	0.4539	0.6433	0.098
Mof_C 	C 	0.7627	0.6111	0.58972	-0.03
Mof_H 	H 	0.8351	0.5752	0.6044	0.066
Mof_C 	C 	0.7212	0.7376	0.54331	0.038
Mof_C 	C 	0.1671	0.6457	0.16198	0.33
Mof_C 	C 	0.0981	0.6632	0.21312	-0.081
Mof_C 	C 	0.988	0.6624	0.19849	0.057
Mof_H 	H 	0.9357	0.6368	0.1519	0.044
Mof_C 	C 	0.9679	0.7081	0.26766	0.061
Mof_H 	H 	0.8996	0.7194	0.2753	0.052
Mof_C 	C 	0.0667	0.7325	0.32072	-0.075
Mof_C 	C 	0.0957	0.7877	0.40173	0.363
Mof_C 	C 	0.7691	0.8581	0.5027	0.323
Mof_Co	Co	0.74144	0.30963	0.94166	1.177
Mof_O 	O 	0.58348	0.2554	0.9352	-0.33
Mof_O 	O 	0.55723	0.9993	0.89097	-0.165
Mof_O 	O 	0.38921	0.2538	0.96464	-0.124
Mof_O 	O 	0.73111	0.1611	0.31341	-0.318
Mof_O 	O 	0.88187	0.1287	0.41027	-0.472
Mof_O 	O 	0.29796	0.4509	0.04533	-0.417
Mof_O 	O 	0.80385	0.2884	0.0592	-0.414
Mof_O 	O 	0.85112	0.2052	0.21144	-0.196
Mof_O 	O 	0.12849	0.3588	0.98038	-0.417
Mof_O 	O 	0.98472	0.3284	0.07675	-0.376
Mof_C 	C 	0.527	0.1278	0.91572	0.215
Mof_C 	C 	0.4137	0.1322	0.92095	0.132
Mof_C 	C 	0.3241	0.0437	0.8883	-0.217
Mof_H 	H 	0.3199	0.9539	0.8567	0.183
Mof_C 	C 	0.2373	0.1111	0.91028	0.069
Mof_H 	H 	0.1649	0.0752	0.8956	0.006
Mof_C 	C 	0.2788	0.2376	0.95669	-0.023
Mof_C 	C 	0.8329	0.1457	0.33802	0.263
Mof_C 	C 	0.9019	0.1632	0.28688	0.136
Mof_C 	C 	0.012	0.1624	0.30151	-0.154
Mof_H 	H 	0.0643	0.1368	0.3481	0.084
Mof_C 	C 	0.0321	0.2081	0.23234	-0.138
Mof_H 	H 	0.1004	0.2194	0.2247	0.078
Mof_C 	C 	0.9333	0.2325	0.17928	0.128
Mof_C 	C 	0.9043	0.2877	0.09827	0.292
Mof_C 	C 	0.2309	0.3581	0.9973	0.414
Mof_Co	Co	0.74144	0.19037	0.44166	1.163
Mof_O 	O 	0.58348	0.2446	0.4352	-0.366
Mof_O 	O 	0.55723	0.5007	0.39097	-0.227
Mof_O 	O 	0.38921	0.2462	0.46464	-0.142
Mof_O 	O 	0.73111	0.3389	0.81341	-0.313
Mof_O 	O 	0.88187	0.3713	0.91027	-0.45
Mof_O 	O 	0.29796	0.0491	0.54533	-0.382
Mof_O 	O 	0.80385	0.2116	0.5592	-0.396
Mof_O 	O 	0.85112	0.2948	0.71144	-0.195
Mof_O 	O 	0.12849	0.1412	0.48038	-0.429
Mof_O 	O 	0.98472	0.1716	0.57675	-0.37
Mof_C 	C 	0.527	0.3722	0.41572	0.29
Mof_C 	C 	0.4137	0.3678	0.42095	0.064
Mof_C 	C 	0.3241	0.4563	0.3883	-0.07
Mof_H 	H 	0.3199	0.5461	0.3567	0.102
Mof_C 	C 	0.2373	0.3889	0.41028	-0.018
Mof_H 	H 	0.1649	0.4248	0.3956	0.045
Mof_C 	C 	0.2788	0.2624	0.45669	0.014
Mof_C 	C 	0.8329	0.3543	0.83802	0.263
Mof_C 	C 	0.9019	0.3368	0.78688	0.134
Mof_C 	C 	0.012	0.3376	0.80151	-0.144
Mof_H 	H 	0.0643	0.3632	0.8481	0.089
Mof_C 	C 	0.0321	0.2919	0.73234	-0.132
Mof_H 	H 	0.1004	0.2806	0.7247	0.079
Mof_C 	C 	0.9333	0.2675	0.67928	0.125
Mof_C 	C 	0.9043	0.2123	0.59827	0.289
Mof_C 	C 	0.2309	0.1419	0.4973	0.335
Mof_Co	Co	0.25856	0.69037	0.05834	1.159
Mof_O 	O 	0.41652	0.7446	0.0648	-0.382
Mof_O 	O 	0.44277	0.0007	0.10903	-0.294
Mof_O 	O 	0.61079	0.7462	0.03536	-0.151
Mof_O 	O 	0.26889	0.8389	0.68659	-0.323
Mof_O 	O 	0.11813	0.8713	0.58973	-0.514
Mof_O 	O 	0.70204	0.5491	0.95467	-0.295
Mof_O 	O 	0.19615	0.7116	0.9408	-0.379
Mof_O 	O 	0.14888	0.7948	0.78856	-0.121
Mof_O 	O 	0.87151	0.6412	0.01962	-0.36
Mof_O 	O 	0.01528	0.6716	0.92325	-0.427
Mof_C 	C 	0.473	0.8722	0.08428	0.36
Mof_C 	C 	0.5863	0.8678	0.07905	0.002
Mof_C 	C 	0.6759	0.9563	0.1117	0.075
Mof_H 	H 	0.6801	0.0461	0.1433	0.026
Mof_C 	C 	0.7627	0.8889	0.08972	-0.109
Mof_H 	H 	0.8351	0.9248	0.1044	0.101
Mof_C 	C 	0.7212	0.7624	0.04331	0.071
Mof_C 	C 	0.1671	0.8543	0.66198	0.326
Mof_C 	C 	0.0981	0.8368	0.71312	-0.064
Mof_C 	C 	0.988	0.8376	0.69849	0.05
Mof_H 	H 	0.9357	0.8632	0.6519	0.052
Mof_C 	C 	0.9679	0.7919	0.76766	0.053
Mof_H 	H 	0.8996	0.7806	0.7753	0.057
Mof_C 	C 	0.0667	0.7675	0.82072	-0.061
Mof_C 	C 	0.0957	0.7123	0.90173	0.355
Mof_C 	C 	0.7691	0.6419	0.0027	0.249
Mof_Co	Co	-3.10401e-17	0	0.5	1.143
Mof_Co	Co	-0	0.5	-0	1.137
_end
