data_functionalizedCrystal
_audit_creation_method	'EQeq! by Chris Wilmer'
_symmetry_space_group_name_H-M	'P1'
_symmetry_Int_Tables_number	1
_symmetry_cell_setting	triclinic
loop_
_symmetry_equiv_pos_as_xyz
  x,y,z
_cell_length_a	21.813
_cell_length_b	21.813
_cell_length_c	6.8688
_cell_angle_alpha	90
_cell_angle_beta	90
_cell_angle_gamma	120
loop_
_atom_site_label
_atom_site_type_symbol
_atom_site_fract_x
_atom_site_fract_y
_atom_site_fract_z
_atom_site_charge
Mof_Fe	Fe	0.6121	0.2813	0.145	0.843
Mof_O 	O 	0.6521	0.2432	0.958	-0.441
Mof_O 	O 	0.642	0.2835	0.589	-0.48
Mof_O 	O 	0.582	0.205	0.37	-0.385
Mof_C 	C 	0.6138	0.1744	0.8787	0.254
Mof_C 	C 	0.594	0.1649	0.681	-0.24
Mof_C 	C 	0.5602	0.0958	0.6029	0.049
Mof_C 	C 	0.5449	0.0355	0.7105	-0.037
Mof_C 	C 	0.5638	0.0465	0.9089	0.036
Mof_C 	C 	0.5962	0.1132	0.9911	-0.201
Mof_C 	C 	0.605	0.2229	0.5481	0.458
Mof_H 	H 	0.547	0.0898	0.4694	0.025
Mof_H 	H 	0.5538	0.0067	0.9881	0.017
Mof_H 	H 	0.607	0.1182	0.1262	0.104
Mof_Fe	Fe	0.7187	0.3308	0.81167	0.843
Mof_O 	O 	0.7568	0.4089	0.62467	-0.443
Mof_O 	O 	0.7165	0.3585	0.25567	-0.48
Mof_O 	O 	0.795	0.377	0.03667	-0.385
Mof_C 	C 	0.8256	0.4394	0.54537	0.255
Mof_C 	C 	0.8351	0.4291	0.34767	-0.241
Mof_C 	C 	0.9042	0.4644	0.26957	0.05
Mof_C 	C 	0.9645	0.5094	0.37717	-0.038
Mof_C 	C 	0.9535	0.5173	0.57557	0.038
Mof_C 	C 	0.8868	0.483	0.65777	-0.205
Mof_C 	C 	0.7771	0.3821	0.21477	0.458
Mof_H 	H 	0.9102	0.4572	0.13607	0.025
Mof_H 	H 	0.9933	0.5471	0.65477	0.016
Mof_H 	H 	0.8818	0.4888	0.79287	0.106
Mof_Fe	Fe	0.6692	0.3879	0.47833	0.843
Mof_O 	O 	0.5911	0.3479	0.29133	-0.443
Mof_O 	O 	0.6415	0.358	0.92233	-0.48
Mof_O 	O 	0.623	0.418	0.70333	-0.385
Mof_C 	C 	0.5606	0.3862	0.21203	0.256
Mof_C 	C 	0.5709	0.406	0.01433	-0.242
Mof_C 	C 	0.5356	0.4398	0.93623	0.051
Mof_C 	C 	0.4906	0.4551	0.04383	-0.038
Mof_C 	C 	0.4827	0.4362	0.24223	0.038
Mof_C 	C 	0.517	0.4038	0.32443	-0.206
Mof_C 	C 	0.6179	0.395	0.88143	0.459
Mof_H 	H 	0.5428	0.453	0.80273	0.025
Mof_H 	H 	0.4529	0.4462	0.32143	0.016
Mof_H 	H 	0.5112	0.393	0.45953	0.106
Mof_Fe	Fe	0.2813	0.6121	0.855	0.842
Mof_O 	O 	0.2432	0.6521	0.042	-0.442
Mof_O 	O 	0.2835	0.642	0.411	-0.48
Mof_O 	O 	0.205	0.582	0.63	-0.385
Mof_C 	C 	0.1744	0.6138	0.1213	0.254
Mof_C 	C 	0.1649	0.594	0.319	-0.24
Mof_C 	C 	0.0958	0.5602	0.3971	0.049
Mof_C 	C 	0.0355	0.5449	0.2895	-0.037
Mof_C 	C 	0.0465	0.5638	0.0911	0.036
Mof_C 	C 	0.1132	0.5962	0.0089	-0.201
Mof_C 	C 	0.2229	0.605	0.4519	0.458
Mof_H 	H 	0.0898	0.547	0.5306	0.025
Mof_H 	H 	0.0067	0.5538	0.0119	0.017
Mof_H 	H 	0.1182	0.607	0.8738	0.104
Mof_Fe	Fe	0.3308	0.7187	0.18833	0.843
Mof_O 	O 	0.4089	0.7568	0.37533	-0.443
Mof_O 	O 	0.3585	0.7165	0.74433	-0.48
Mof_O 	O 	0.377	0.795	0.96333	-0.385
Mof_C 	C 	0.4394	0.8256	0.45463	0.255
Mof_C 	C 	0.4291	0.8351	0.65233	-0.241
Mof_C 	C 	0.4644	0.9042	0.73043	0.05
Mof_C 	C 	0.5094	0.9645	0.62283	-0.038
Mof_C 	C 	0.5173	0.9535	0.42443	0.038
Mof_C 	C 	0.483	0.8868	0.34223	-0.205
Mof_C 	C 	0.3821	0.7771	0.78523	0.458
Mof_H 	H 	0.4572	0.9102	0.86393	0.025
Mof_H 	H 	0.5471	0.9933	0.34523	0.016
Mof_H 	H 	0.4888	0.8818	0.20713	0.106
Mof_Fe	Fe	0.3879	0.6692	0.52167	0.843
Mof_O 	O 	0.3479	0.5911	0.70867	-0.443
Mof_O 	O 	0.358	0.6415	0.07767	-0.48
Mof_O 	O 	0.418	0.623	0.29667	-0.385
Mof_C 	C 	0.3862	0.5606	0.78797	0.256
Mof_C 	C 	0.406	0.5709	0.98567	-0.242
Mof_C 	C 	0.4398	0.5356	0.06377	0.051
Mof_C 	C 	0.4551	0.4906	0.95617	-0.038
Mof_C 	C 	0.4362	0.4827	0.75777	0.038
Mof_C 	C 	0.4038	0.517	0.67557	-0.206
Mof_C 	C 	0.395	0.6179	0.11857	0.459
Mof_H 	H 	0.453	0.5428	0.19727	0.025
Mof_H 	H 	0.4462	0.4529	0.67857	0.016
Mof_H 	H 	0.393	0.5112	0.54047	0.106
_end
