data_functionalizedCrystal
_audit_creation_method	'EQeq! by Chris Wilmer'
_symmetry_space_group_name_H-M	'P1'
_symmetry_Int_Tables_number	1
_symmetry_cell_setting	triclinic
loop_
_symmetry_equiv_pos_as_xyz
  x,y,z
_cell_length_a	11.819
_cell_length_b	12.6741
_cell_length_c	13.7585
_cell_angle_alpha	85.8653
_cell_angle_beta	81.6197
_cell_angle_gamma	84.0945
loop_
_atom_site_label
_atom_site_type_symbol
_atom_site_fract_x
_atom_site_fract_y
_atom_site_fract_z
_atom_site_charge
Mof_Cu	Cu	0.73539	0.72229	0.98772	0.85
Mof_Cu	Cu	0.27163	0.29616	0.51878	0.851
Mof_N 	N 	0.633	0.639	0.9247	-0.242
Mof_N 	N 	0.3579	0.371	0.6035	-0.245
Mof_N 	N 	0.6547	0.8286	0.0873	-0.234
Mof_N 	N 	0.3775	0.2115	0.4154	-0.236
Mof_N 	N 	0.8315	0.8204	0.8911	-0.235
Mof_N 	N 	0.1753	0.1809	0.5947	-0.23
Mof_N 	N 	0.8416	0.6207	0.0654	-0.232
Mof_N 	N 	0.1586	0.391	0.4434	-0.234
Mof_C 	C 	0.5447	0.6867	0.8801	0.059
Mof_C 	C 	0.4916	0.6371	0.8166	-0.118
Mof_C 	C 	0.5254	0.532	0.7973	0.038
Mof_C 	C 	0.6135	0.4798	0.8461	-0.118
Mof_C 	C 	0.664	0.5372	0.9075	0.06
Mof_C 	C 	0.4719	0.4761	0.7272	0.043
Mof_C 	C 	0.4624	0.3672	0.7405	-0.123
Mof_C 	C 	0.4052	0.3192	0.6785	0.059
Mof_C 	C 	0.3705	0.4749	0.59	0.064
Mof_C 	C 	0.4265	0.5295	0.648	-0.128
Mof_C 	C 	0.7155	0.8819	0.1386	0.065
Mof_C 	C 	0.6681	0.9559	0.2056	-0.125
Mof_C 	C 	0.5501	0.9782	0.2219	0.042
Mof_C 	C 	0.4846	0.922	0.1691	-0.119
Mof_C 	C 	0.5398	0.8492	0.1041	0.057
Mof_C 	C 	0.4919	0.059	0.2892	0.044
Mof_C 	C 	0.3875	0.1114	0.2741	-0.121
Mof_C 	C 	0.3337	0.1858	0.3369	0.06
Mof_C 	C 	0.4797	0.1611	0.4298	0.062
Mof_C 	C 	0.5389	0.0863	0.3692	-0.124
Mof_C 	C 	0.9198	0.7856	0.8248	0.061
Mof_C 	C 	0.9852	0.8518	0.7621	-0.12
Mof_C 	C 	0.9612	0.9609	0.7649	0.043
Mof_C 	C 	0.8678	0.9985	0.8322	-0.12
Mof_C 	C 	0.8067	0.9261	0.892	0.055
Mof_C 	C 	0.0343	0.0371	0.7041	0.041
Mof_C 	C 	0.0427	0.1368	0.7366	-0.11
Mof_C 	C 	0.1125	0.2053	0.681	0.052
Mof_C 	C 	0.1672	0.085	0.5635	0.059
Mof_C 	C 	0.0989	0.0112	0.6147	-0.116
Mof_C 	C 	0.8028	0.541	0.1279	0.062
Mof_C 	C 	0.8604	0.4948	0.2014	-0.123
Mof_C 	C 	0.9651	0.5286	0.2153	0.043
Mof_C 	C 	0.0082	0.6072	0.1486	-0.125
Mof_C 	C 	0.9453	0.6503	0.0759	0.059
Mof_C 	C 	0.0292	0.4841	0.2968	0.036
Mof_C 	C 	0.1311	0.521	0.3102	-0.118
Mof_C 	C 	0.1929	0.4724	0.3817	0.059
Mof_C 	C 	0.0561	0.3608	0.4347	0.061
Mof_C 	C 	0.9896	0.4038	0.3638	-0.119
Mof_H 	H 	0.518	0.759	0.894	-0.011
Mof_H 	H 	0.431	0.675	0.785	0.065
Mof_H 	H 	0.638	0.406	0.838	0.06
Mof_H 	H 	0.724	0.501	0.94	-0.013
Mof_H 	H 	0.495	0.326	0.793	0.06
Mof_H 	H 	0.4	0.244	0.688	-0.01
Mof_H 	H 	0.339	0.514	0.536	-0.015
Mof_H 	H 	0.433	0.604	0.635	0.062
Mof_H 	H 	0.798	0.868	0.128	-0.01
Mof_H 	H 	0.716	0.992	0.24	0.07
Mof_H 	H 	0.402	0.934	0.179	0.062
Mof_H 	H 	0.494	0.812	0.069	-0.013
Mof_H 	H 	0.352	0.095	0.219	0.059
Mof_H 	H 	0.261	0.222	0.324	-0.011
Mof_H 	H 	0.513	0.179	0.485	-0.012
Mof_H 	H 	0.612	0.053	0.383	0.064
Mof_H 	H 	0.938	0.71	0.821	-0.009
Mof_H 	H 	0.048	0.823	0.716	0.062
Mof_H 	H 	0.846	0.073	0.836	0.062
Mof_H 	H 	0.743	0.953	0.938	-0.01
Mof_H 	H 	0.999	0.158	0.798	0.057
Mof_H 	H 	0.117	0.274	0.705	-0.009
Mof_H 	H 	0.211	0.066	0.502	-0.005
Mof_H 	H 	0.096	0.943	0.589	0.061
Mof_H 	H 	0.731	0.516	0.12	-0.006
Mof_H 	H 	0.829	0.439	0.244	0.064
Mof_H 	H 	0.082	0.631	0.152	0.061
Mof_H 	H 	0.976	0.705	0.031	-0.01
Mof_H 	H 	0.16	0.579	0.269	0.062
Mof_H 	H 	0.265	0.498	0.388	-0.01
Mof_H 	H 	0.027	0.306	0.48	-0.008
Mof_H 	H 	0.917	0.378	0.361	0.059
Mof_Cu	Cu	0.26461	0.27771	0.01228	0.851
Mof_Cu	Cu	0.72837	0.70384	0.48122	0.852
Mof_N 	N 	0.367	0.361	0.0753	-0.241
Mof_N 	N 	0.6421	0.629	0.3965	-0.244
Mof_N 	N 	0.3453	0.1714	0.9127	-0.234
Mof_N 	N 	0.6225	0.7885	0.5846	-0.236
Mof_N 	N 	0.1685	0.1796	0.1089	-0.235
Mof_N 	N 	0.8247	0.8191	0.4053	-0.23
Mof_N 	N 	0.1584	0.3793	0.9346	-0.232
Mof_N 	N 	0.8414	0.609	0.5566	-0.234
Mof_C 	C 	0.4553	0.3133	0.1199	0.059
Mof_C 	C 	0.5084	0.3629	0.1834	-0.118
Mof_C 	C 	0.4746	0.468	0.2027	0.038
Mof_C 	C 	0.3865	0.5202	0.1539	-0.118
Mof_C 	C 	0.336	0.4628	0.0925	0.06
Mof_C 	C 	0.5281	0.5239	0.2728	0.043
Mof_C 	C 	0.5376	0.6328	0.2595	-0.123
Mof_C 	C 	0.5948	0.6808	0.3215	0.059
Mof_C 	C 	0.6295	0.5251	0.41	0.064
Mof_C 	C 	0.5735	0.4705	0.352	-0.128
Mof_C 	C 	0.2845	0.1181	0.8614	0.065
Mof_C 	C 	0.3319	0.0441	0.7944	-0.125
Mof_C 	C 	0.4499	0.0218	0.7781	0.042
Mof_C 	C 	0.5154	0.078	0.8309	-0.119
Mof_C 	C 	0.4602	0.1508	0.8959	0.057
Mof_C 	C 	0.5081	0.941	0.7108	0.044
Mof_C 	C 	0.6125	0.8886	0.7259	-0.121
Mof_C 	C 	0.6663	0.8142	0.6631	0.06
Mof_C 	C 	0.5203	0.8389	0.5702	0.062
Mof_C 	C 	0.4611	0.9137	0.6308	-0.124
Mof_C 	C 	0.0802	0.2144	0.1752	0.061
Mof_C 	C 	0.0148	0.1482	0.2379	-0.12
Mof_C 	C 	0.0388	0.0391	0.2351	0.043
Mof_C 	C 	0.1322	0.0015	0.1678	-0.12
Mof_C 	C 	0.1933	0.0739	0.108	0.055
Mof_C 	C 	0.9657	0.9629	0.2959	0.041
Mof_C 	C 	0.9573	0.8632	0.2634	-0.11
Mof_C 	C 	0.8875	0.7947	0.319	0.052
Mof_C 	C 	0.8328	0.915	0.4365	0.059
Mof_C 	C 	0.9011	0.9888	0.3853	-0.116
Mof_C 	C 	0.1972	0.459	0.8721	0.062
Mof_C 	C 	0.1396	0.5052	0.7986	-0.123
Mof_C 	C 	0.0349	0.4714	0.7847	0.043
Mof_C 	C 	0.9918	0.3928	0.8514	-0.125
Mof_C 	C 	0.0547	0.3497	0.9241	0.059
Mof_C 	C 	0.9708	0.5159	0.7032	0.036
Mof_C 	C 	0.8689	0.479	0.6898	-0.118
Mof_C 	C 	0.8071	0.5276	0.6183	0.059
Mof_C 	C 	0.9439	0.6392	0.5653	0.061
Mof_C 	C 	0.0104	0.5962	0.6362	-0.119
Mof_H 	H 	0.482	0.241	0.106	-0.011
Mof_H 	H 	0.569	0.325	0.215	0.065
Mof_H 	H 	0.362	0.594	0.162	0.06
Mof_H 	H 	0.276	0.499	0.06	-0.013
Mof_H 	H 	0.505	0.674	0.207	0.06
Mof_H 	H 	0.6	0.756	0.312	-0.01
Mof_H 	H 	0.661	0.486	0.464	-0.015
Mof_H 	H 	0.567	0.396	0.365	0.062
Mof_H 	H 	0.202	0.132	0.872	-0.01
Mof_H 	H 	0.284	0.008	0.76	0.07
Mof_H 	H 	0.598	0.066	0.821	0.062
Mof_H 	H 	0.506	0.188	0.931	-0.013
Mof_H 	H 	0.648	0.905	0.781	0.059
Mof_H 	H 	0.739	0.778	0.676	-0.011
Mof_H 	H 	0.487	0.821	0.515	-0.012
Mof_H 	H 	0.388	0.947	0.617	0.064
Mof_H 	H 	0.062	0.29	0.179	-0.009
Mof_H 	H 	0.952	0.177	0.284	0.062
Mof_H 	H 	0.154	0.927	0.164	0.062
Mof_H 	H 	0.257	0.047	0.062	-0.01
Mof_H 	H 	0.001	0.842	0.202	0.057
Mof_H 	H 	0.883	0.726	0.295	-0.009
Mof_H 	H 	0.789	0.934	0.498	-0.005
Mof_H 	H 	0.904	0.057	0.411	0.061
Mof_H 	H 	0.269	0.484	0.88	-0.006
Mof_H 	H 	0.171	0.561	0.756	0.064
Mof_H 	H 	0.918	0.369	0.848	0.061
Mof_H 	H 	0.024	0.295	0.969	-0.01
Mof_H 	H 	0.84	0.421	0.731	0.062
Mof_H 	H 	0.735	0.502	0.612	-0.01
Mof_H 	H 	0.973	0.694	0.52	-0.008
Mof_H 	H 	0.083	0.622	0.639	0.059
_end
