data_functionalizedCrystal
_audit_creation_method	'EQeq! by Chris Wilmer'
_symmetry_space_group_name_H-M	'P1'
_symmetry_Int_Tables_number	1
_symmetry_cell_setting	triclinic
loop_
_symmetry_equiv_pos_as_xyz
  x,y,z
_cell_length_a	16.6502
_cell_length_b	16.6502
_cell_length_c	51.313
_cell_angle_alpha	90
_cell_angle_beta	90
_cell_angle_gamma	120
loop_
_atom_site_label
_atom_site_type_symbol
_atom_site_fract_x
_atom_site_fract_y
_atom_site_fract_z
_atom_site_charge
Mof_W 	W 	0.51816	0.6243	0.1732	1.022
Mof_W 	W 	0.30545	0.44762	0.1691	1.316
Mof_W 	W 	0.25835	0.5329	0.22964	1.058
Mof_W 	W 	0.39798	0.58509	0.11885	1.025
Mof_Tm	Tm	0.32229	0.21718	0.16869	1.234
Mof_O 	O 	0.4399	0.4949	0.1784	-0.454
Mof_O 	O 	0.2778	0.3322	0.1718	-0.52
Mof_O 	O 	0.3778	0.5941	0.1615	-0.36
Mof_O 	O 	0.508	0.6062	0.1354	-0.445
Mof_O 	O 	0.2985	0.4795	0.2057	-0.465
Mof_O 	O 	0.2454	0.385	0.3119	-0.512
Mof_O 	O 	0.4965	0.6543	0.2074	-0.456
Mof_O 	O 	0.3746	0.2875	0.2079	-0.47
Mof_O 	O 	0.3344	0.4556	0.1334	-0.466
Mof_O 	O 	0.1931	0.4397	0.1651	-0.477
Mof_O 	O 	0.226	0.622	0.2452	-0.431
Mof_O 	O 	0.4367	0.71	0.1158	-0.457
Mof_O 	O 	0.3716	0.5018	0.3272	-0.337
Mof_N 	N 	0.505	0.5099	0.2573	-0.157
Mof_C 	C 	0.3793	0.3636	0.247	-0.197
Mof_C 	C 	0.4642	0.4353	0.2412	0.128
Mof_H 	H 	0.4958	0.4329	0.2258	-0.015
Mof_C 	C 	0.3793	0.4408	0.2863	-0.207
Mof_C 	C 	0.4666	0.5133	0.2803	0.139
Mof_H 	H 	0.499	0.5642	0.2921	-0.02
Mof_C 	C 	0.3361	0.3659	0.27	0.132
Mof_H 	H 	0.2758	0.3152	0.2743	-0.012
Mof_C 	C 	0.3303	0.4452	0.3101	0.423
Mof_C 	C 	0.3329	0.2802	0.2295	0.413
Mof_O 	O 	0.2646	0.2133	0.2372	-0.349
Mof_W 	W 	0.18483	0.95763	0.50653	1.082
Mof_W 	W 	0.97212	0.78095	0.50243	1.183
Mof_W 	W 	0.92502	0.86623	0.56298	0.98
Mof_W 	W 	0.06465	0.91842	0.45219	1.147
Mof_Tm	Tm	0.98896	0.55051	0.50202	1.138
Mof_O 	O 	0.10657	0.82823	0.51173	-0.418
Mof_O 	O 	0.94447	0.66553	0.50513	-0.512
Mof_O 	O 	0.04447	0.92743	0.49483	-0.31
Mof_O 	O 	0.17467	0.93953	0.46873	-0.437
Mof_O 	O 	0.96517	0.81283	0.53903	-0.472
Mof_O 	O 	0.91207	0.71833	0.64523	-0.479
Mof_O 	O 	0.16317	0.98763	0.54073	-0.406
Mof_O 	O 	0.04127	0.62083	0.54123	-0.344
Mof_O 	O 	0.00107	0.78893	0.46673	-0.409
Mof_O 	O 	0.85977	0.77303	0.49843	-0.467
Mof_O 	O 	0.89267	0.95533	0.57853	-0.387
Mof_O 	O 	0.10337	0.04333	0.44913	-0.501
Mof_O 	O 	0.03827	0.83513	0.66053	-0.219
Mof_N 	N 	0.17167	0.84323	0.59063	-0.134
Mof_C 	C 	0.04597	0.69693	0.58033	-0.094
Mof_C 	C 	0.13087	0.76863	0.57453	0.083
Mof_H 	H 	0.16247	0.76623	0.55913	0.011
Mof_C 	C 	0.04597	0.77413	0.61963	-0.103
Mof_C 	C 	0.13327	0.84663	0.61363	0.094
Mof_H 	H 	0.16567	0.89753	0.62543	0.012
Mof_C 	C 	0.00277	0.69923	0.60333	0.171
Mof_H 	H 	0.94247	0.64853	0.60763	-0.067
Mof_C 	C 	0.99697	0.77853	0.64343	0.237
Mof_C 	C 	0.99957	0.61353	0.56283	0.238
Mof_O 	O 	0.93127	0.54663	0.57053	-0.315
Mof_W 	W 	0.85149	0.29097	0.83987	0.987
Mof_W 	W 	0.63878	0.11429	0.83577	1.25
Mof_W 	W 	0.59168	0.19957	0.89631	1.042
Mof_W 	W 	0.73131	0.25176	0.78552	1.01
Mof_Tm	Tm	0.65562	0.88385	0.83535	1.289
Mof_O 	O 	0.77323	0.16157	0.84507	-0.465
Mof_O 	O 	0.61113	0.99887	0.83847	-0.474
Mof_O 	O 	0.71113	0.26077	0.82817	-0.348
Mof_O 	O 	0.84133	0.27287	0.80207	-0.459
Mof_O 	O 	0.63183	0.14617	0.87237	-0.467
Mof_O 	O 	0.57873	0.05167	0.97857	-0.507
Mof_O 	O 	0.82983	0.32097	0.87407	-0.458
Mof_O 	O 	0.70793	0.95417	0.87457	-0.465
Mof_O 	O 	0.66773	0.12227	0.80007	-0.482
Mof_O 	O 	0.52643	0.10637	0.83177	-0.485
Mof_O 	O 	0.55933	0.28867	0.91187	-0.432
Mof_O 	O 	0.77003	0.37667	0.78247	-0.46
Mof_O 	O 	0.70493	0.16847	0.99387	-0.331
Mof_N 	N 	0.83833	0.17657	0.92397	-0.164
Mof_C 	C 	0.71263	0.03027	0.91367	-0.226
Mof_C 	C 	0.79753	0.10197	0.90787	0.129
Mof_H 	H 	0.82913	0.09957	0.89247	-0.04
Mof_C 	C 	0.71263	0.10747	0.95297	-0.162
Mof_C 	C 	0.79993	0.17997	0.94697	0.111
Mof_H 	H 	0.83233	0.23087	0.95877	-0.015
Mof_C 	C 	0.66943	0.03257	0.93667	0.01
Mof_H 	H 	0.60913	0.98187	0.94097	0.075
Mof_C 	C 	0.66363	0.11187	0.97677	0.394
Mof_C 	C 	0.66623	0.94687	0.89617	0.466
Mof_O 	O 	0.59793	0.87997	0.90387	-0.346
Mof_W 	W 	0.3757	0.89386	0.1732	1.045
Mof_W 	W 	0.55238	0.85783	0.1691	1.314
Mof_W 	W 	0.4671	0.72545	0.22964	1.057
Mof_W 	W 	0.41491	0.81289	0.11885	1.035
Mof_Tm	Tm	0.78282	0.10511	0.16869	1.141
Mof_O 	O 	0.5051	0.945	0.1784	-0.433
Mof_O 	O 	0.6678	0.9456	0.1718	-0.482
Mof_O 	O 	0.4059	0.7837	0.1615	-0.363
Mof_O 	O 	0.3938	0.9018	0.1354	-0.436
Mof_O 	O 	0.5205	0.819	0.2057	-0.458
Mof_O 	O 	0.615	0.8604	0.3119	-0.51
Mof_O 	O 	0.3457	0.8422	0.2074	-0.451
Mof_O 	O 	0.7125	0.0871	0.2079	-0.481
Mof_O 	O 	0.5444	0.8788	0.1334	-0.455
Mof_O 	O 	0.5603	0.7534	0.1651	-0.477
Mof_O 	O 	0.378	0.604	0.2452	-0.434
Mof_O 	O 	0.29	0.7267	0.1158	-0.458
Mof_O 	O 	0.4982	0.8698	0.3272	-0.331
Mof_N 	N 	0.4901	0.9951	0.2573	-0.123
Mof_C 	C 	0.6364	0.0157	0.247	-0.285
Mof_C 	C 	0.5647	0.0289	0.2412	0.093
Mof_H 	H 	0.5671	0.0629	0.2258	-0.019
Mof_C 	C 	0.5592	0.9385	0.2863	-0.236
Mof_C 	C 	0.4867	0.9533	0.2803	0.17
Mof_H 	H 	0.4358	0.9348	0.2921	-0.019
Mof_C 	C 	0.6341	0.9702	0.27	0.242
Mof_H 	H 	0.6848	0.9606	0.2743	-0.032
Mof_C 	C 	0.5548	0.8851	0.3101	0.441
Mof_C 	C 	0.7198	0.0527	0.2295	0.431
Mof_O 	O 	0.7867	0.0513	0.2372	-0.389
Mof_W 	W 	0.04237	0.22719	0.50653	1.082
Mof_W 	W 	0.21905	0.19116	0.50243	1.314
Mof_W 	W 	0.13377	0.05878	0.56298	0.956
Mof_W 	W 	0.08158	0.14622	0.45219	1.092
Mof_Tm	Tm	0.44949	0.43844	0.50202	1.274
Mof_O 	O 	0.17177	0.27833	0.51173	-0.459
Mof_O 	O 	0.33447	0.27893	0.50513	-0.524
Mof_O 	O 	0.07257	0.11703	0.49483	-0.364
Mof_O 	O 	0.06047	0.23513	0.46873	-0.43
Mof_O 	O 	0.18717	0.15233	0.53903	-0.46
Mof_O 	O 	0.28167	0.19373	0.64523	-0.506
Mof_O 	O 	0.01237	0.17553	0.54073	-0.398
Mof_O 	O 	0.37917	0.42043	0.54123	-0.468
Mof_O 	O 	0.21107	0.21213	0.46673	-0.474
Mof_O 	O 	0.22697	0.08673	0.49843	-0.517
Mof_O 	O 	0.04467	0.93733	0.57853	-0.349
Mof_O 	O 	0.95667	0.06003	0.44913	-0.55
Mof_O 	O 	0.16487	0.20313	0.66053	-0.328
Mof_N 	N 	0.15677	0.32843	0.59063	-0.148
Mof_C 	C 	0.30307	0.34903	0.58033	-0.195
Mof_C 	C 	0.23137	0.36223	0.57453	0.128
Mof_H 	H 	0.23377	0.39623	0.55913	-0.009
Mof_C 	C 	0.22587	0.27183	0.61963	-0.203
Mof_C 	C 	0.15337	0.28663	0.61363	0.137
Mof_H 	H 	0.10247	0.26813	0.62543	-0.006
Mof_C 	C 	0.30077	0.30353	0.60333	0.129
Mof_H 	H 	0.35147	0.29393	0.60763	-0.014
Mof_C 	C 	0.22147	0.21843	0.64343	0.416
Mof_C 	C 	0.38647	0.38603	0.56283	0.414
Mof_O 	O 	0.45337	0.38463	0.57053	-0.349
Mof_W 	W 	0.70903	0.56053	0.83987	1.018
Mof_W 	W 	0.88571	0.5245	0.83577	1.244
Mof_W 	W 	0.80043	0.39212	0.89631	1.039
Mof_W 	W 	0.74824	0.47956	0.78552	1.013
Mof_Tm	Tm	0.11615	0.77178	0.83535	1.336
Mof_O 	O 	0.83843	0.61167	0.84507	-0.463
Mof_O 	O 	0.00113	0.61227	0.83847	-0.47
Mof_O 	O 	0.73923	0.45037	0.82817	-0.351
Mof_O 	O 	0.72713	0.56847	0.80207	-0.446
Mof_O 	O 	0.85383	0.48567	0.87237	-0.468
Mof_O 	O 	0.94833	0.52707	0.97857	-0.507
Mof_O 	O 	0.67903	0.50887	0.87407	-0.456
Mof_O 	O 	0.04583	0.75377	0.87457	-0.457
Mof_O 	O 	0.87773	0.54547	0.80007	-0.481
Mof_O 	O 	0.89363	0.42007	0.83177	-0.485
Mof_O 	O 	0.71133	0.27067	0.91187	-0.431
Mof_O 	O 	0.62333	0.39337	0.78247	-0.456
Mof_O 	O 	0.83153	0.53647	0.99387	-0.332
Mof_N 	N 	0.82343	0.66177	0.92397	-0.153
Mof_C 	C 	0.96973	0.68237	0.91367	-0.226
Mof_C 	C 	0.89803	0.69557	0.90787	0.129
Mof_H 	H 	0.90043	0.72957	0.89247	-0.029
Mof_C 	C 	0.89253	0.60517	0.95297	-0.158
Mof_C 	C 	0.82003	0.61997	0.94697	0.112
Mof_H 	H 	0.76913	0.60147	0.95877	-0.011
Mof_C 	C 	0.96743	0.63687	0.93667	-0.006
Mof_H 	H 	0.01813	0.62727	0.94097	0.087
Mof_C 	C 	0.88813	0.55177	0.97677	0.391
Mof_C 	C 	0.05313	0.71937	0.89617	0.472
Mof_O 	O 	0.12003	0.71797	0.90387	-0.341
Mof_W 	W 	0.10614	0.48184	0.1732	1.046
Mof_W 	W 	0.14217	0.69455	0.1691	1.316
Mof_W 	W 	0.27455	0.74165	0.22964	1.064
Mof_W 	W 	0.18711	0.60202	0.11885	1.037
Mof_Tm	Tm	0.89489	0.67771	0.16869	1.182
Mof_O 	O 	0.055	0.5601	0.1784	-0.431
Mof_O 	O 	0.0544	0.7222	0.1718	-0.479
Mof_O 	O 	0.2163	0.6222	0.1615	-0.364
Mof_O 	O 	0.0982	0.492	0.1354	-0.434
Mof_O 	O 	0.181	0.7015	0.2057	-0.456
Mof_O 	O 	0.1396	0.7546	0.3119	-0.508
Mof_O 	O 	0.1578	0.5035	0.2074	-0.451
Mof_O 	O 	0.9129	0.6254	0.2079	-0.481
Mof_O 	O 	0.1212	0.6656	0.1334	-0.455
Mof_O 	O 	0.2466	0.8069	0.1651	-0.476
Mof_O 	O 	0.396	0.774	0.2452	-0.431
Mof_O 	O 	0.2733	0.5633	0.1158	-0.458
Mof_O 	O 	0.1302	0.6284	0.3272	-0.329
Mof_N 	N 	0.0049	0.495	0.2573	-0.118
Mof_C 	C 	0.9843	0.6207	0.247	-0.289
Mof_C 	C 	0.9711	0.5358	0.2412	0.085
Mof_H 	H 	0.9371	0.5042	0.2258	-0.019
Mof_C 	C 	0.0615	0.6207	0.2863	-0.236
Mof_C 	C 	0.0467	0.5334	0.2803	0.172
Mof_H 	H 	0.0652	0.501	0.2921	-0.019
Mof_C 	C 	0.0298	0.6639	0.27	0.252
Mof_H 	H 	0.0394	0.7242	0.2743	-0.024
Mof_C 	C 	0.1149	0.6697	0.3101	0.443
Mof_C 	C 	0.9473	0.6671	0.2295	0.43
Mof_O 	O 	0.9487	0.7354	0.2372	-0.369
Mof_W 	W 	0.77281	0.81517	0.50653	1.013
Mof_W 	W 	0.80884	0.02788	0.50243	1.193
Mof_W 	W 	0.94122	0.07498	0.56298	0.863
Mof_W 	W 	0.85378	0.93535	0.45219	1.076
Mof_Tm	Tm	0.56156	0.01104	0.50202	1.151
Mof_O 	O 	0.72167	0.89343	0.51173	-0.414
Mof_O 	O 	0.72107	0.05553	0.50513	-0.515
Mof_O 	O 	0.88297	0.95553	0.49483	-0.34
Mof_O 	O 	0.76487	0.82533	0.46873	-0.449
Mof_O 	O 	0.84767	0.03483	0.53903	-0.466
Mof_O 	O 	0.80627	0.08793	0.64523	-0.481
Mof_O 	O 	0.82447	0.83683	0.54073	-0.439
Mof_O 	O 	0.57957	0.95873	0.54123	-0.359
Mof_O 	O 	0.78787	0.99893	0.46673	-0.409
Mof_O 	O 	0.91327	0.14023	0.49843	-0.511
Mof_O 	O 	0.06267	0.10733	0.57853	-0.387
Mof_O 	O 	0.93997	0.89663	0.44913	-0.504
Mof_O 	O 	0.79687	0.96173	0.66053	-0.252
Mof_N 	N 	0.67157	0.82833	0.59063	-0.143
Mof_C 	C 	0.65097	0.95403	0.58033	-0.107
Mof_C 	C 	0.63777	0.86913	0.57453	0.09
Mof_H 	H 	0.60377	0.83753	0.55913	0.005
Mof_C 	C 	0.72817	0.95403	0.61963	-0.12
Mof_C 	C 	0.71337	0.86673	0.61363	0.1
Mof_H 	H 	0.73187	0.83433	0.62543	-0.005
Mof_C 	C 	0.69647	0.99723	0.60333	0.169
Mof_H 	H 	0.70607	0.05753	0.60763	-0.064
Mof_C 	C 	0.78157	0.00303	0.64343	0.255
Mof_C 	C 	0.61397	0.00043	0.56283	0.259
Mof_O 	O 	0.61537	0.06873	0.57053	-0.321
Mof_W 	W 	0.43947	0.14851	0.83987	0.996
Mof_W 	W 	0.4755	0.36122	0.83577	1.315
Mof_W 	W 	0.60788	0.40832	0.89631	1.053
Mof_W 	W 	0.52044	0.26869	0.78552	1.019
Mof_Tm	Tm	0.22822	0.34438	0.83535	1.285
Mof_O 	O 	0.38833	0.22677	0.84507	-0.455
Mof_O 	O 	0.38773	0.38887	0.83847	-0.524
Mof_O 	O 	0.54963	0.28887	0.82817	-0.356
Mof_O 	O 	0.43153	0.15867	0.80207	-0.454
Mof_O 	O 	0.51433	0.36817	0.87237	-0.466
Mof_O 	O 	0.47293	0.42127	0.97857	-0.507
Mof_O 	O 	0.49113	0.17017	0.87407	-0.458
Mof_O 	O 	0.24623	0.29207	0.87457	-0.468
Mof_O 	O 	0.45453	0.33227	0.80007	-0.466
Mof_O 	O 	0.57993	0.47357	0.83177	-0.477
Mof_O 	O 	0.72933	0.44067	0.91187	-0.431
Mof_O 	O 	0.60663	0.22997	0.78247	-0.46
Mof_O 	O 	0.46353	0.29507	0.99387	-0.334
Mof_N 	N 	0.33823	0.16167	0.92397	-0.164
Mof_C 	C 	0.31763	0.28737	0.91367	-0.194
Mof_C 	C 	0.30443	0.20247	0.90787	0.125
Mof_H 	H 	0.27043	0.17087	0.89247	-0.018
Mof_C 	C 	0.39483	0.28737	0.95297	-0.203
Mof_C 	C 	0.38003	0.20007	0.94697	0.133
Mof_H 	H 	0.39853	0.16767	0.95877	-0.021
Mof_C 	C 	0.36313	0.33057	0.93667	0.129
Mof_H 	H 	0.37273	0.39087	0.94097	-0.01
Mof_C 	C 	0.44823	0.33637	0.97677	0.421
Mof_C 	C 	0.28063	0.33377	0.89617	0.413
Mof_O 	O 	0.28203	0.40207	0.90387	-0.337
Mof_W 	W 	0.3757	0.48184	0.6732	1.021
Mof_W 	W 	0.55238	0.69455	0.6691	1.315
Mof_W 	W 	0.4671	0.74165	0.72964	1.057
Mof_W 	W 	0.41491	0.60202	0.61885	1.025
Mof_Tm	Tm	0.78282	0.67771	0.66869	1.228
Mof_O 	O 	0.5051	0.5601	0.6784	-0.454
Mof_O 	O 	0.6678	0.7222	0.6718	-0.519
Mof_O 	O 	0.4059	0.6222	0.6615	-0.36
Mof_O 	O 	0.3938	0.492	0.6354	-0.445
Mof_O 	O 	0.5205	0.7015	0.7057	-0.466
Mof_O 	O 	0.615	0.7546	0.8119	-0.513
Mof_O 	O 	0.3457	0.5035	0.7074	-0.456
Mof_O 	O 	0.7125	0.6254	0.7079	-0.47
Mof_O 	O 	0.5444	0.6656	0.6334	-0.466
Mof_O 	O 	0.5603	0.8069	0.6651	-0.477
Mof_O 	O 	0.378	0.774	0.7452	-0.431
Mof_O 	O 	0.29	0.5633	0.6158	-0.457
Mof_O 	O 	0.4982	0.6284	0.8272	-0.337
Mof_N 	N 	0.4901	0.495	0.7573	-0.157
Mof_C 	C 	0.6364	0.6207	0.747	-0.198
Mof_C 	C 	0.5647	0.5358	0.7412	0.128
Mof_H 	H 	0.5671	0.5042	0.7258	-0.015
Mof_C 	C 	0.5592	0.6207	0.7863	-0.207
Mof_C 	C 	0.4867	0.5334	0.7803	0.139
Mof_H 	H 	0.4358	0.501	0.7921	-0.02
Mof_C 	C 	0.6341	0.6639	0.77	0.132
Mof_H 	H 	0.6848	0.7242	0.7743	-0.014
Mof_C 	C 	0.5548	0.6697	0.8101	0.423
Mof_C 	C 	0.7198	0.6671	0.7295	0.414
Mof_O 	O 	0.7867	0.7354	0.7372	-0.352
Mof_W 	W 	0.04237	0.81517	0.00653	1.082
Mof_W 	W 	0.21905	0.02788	0.00243	1.189
Mof_W 	W 	0.13377	0.07498	0.06298	0.989
Mof_W 	W 	0.08158	0.93535	0.95219	1.148
Mof_Tm	Tm	0.44949	0.01104	0.00202	1.146
Mof_O 	O 	0.17177	0.89343	0.01173	-0.422
Mof_O 	O 	0.33447	0.05553	0.00513	-0.513
Mof_O 	O 	0.07257	0.95553	0.99483	-0.31
Mof_O 	O 	0.06047	0.82533	0.96873	-0.432
Mof_O 	O 	0.18717	0.03483	0.03903	-0.471
Mof_O 	O 	0.28167	0.08793	0.14523	-0.482
Mof_O 	O 	0.01237	0.83683	0.04073	-0.401
Mof_O 	O 	0.37917	0.95873	0.04123	-0.358
Mof_O 	O 	0.21107	0.99893	0.96673	-0.414
Mof_O 	O 	0.22697	0.14023	0.99843	-0.463
Mof_O 	O 	0.04467	0.10733	0.07853	-0.381
Mof_O 	O 	0.95667	0.89663	0.94913	-0.506
Mof_O 	O 	0.16487	0.96173	0.16053	-0.229
Mof_N 	N 	0.15677	0.82833	0.09063	-0.135
Mof_C 	C 	0.30307	0.95403	0.08033	-0.105
Mof_C 	C 	0.23137	0.86913	0.07453	0.088
Mof_H 	H 	0.23377	0.83753	0.05913	0.009
Mof_C 	C 	0.22587	0.95403	0.11963	-0.114
Mof_C 	C 	0.15337	0.86673	0.11363	0.099
Mof_H 	H 	0.10247	0.83433	0.12543	0.012
Mof_C 	C 	0.30077	0.99723	0.10333	0.166
Mof_H 	H 	0.35147	0.05753	0.10763	-0.061
Mof_C 	C 	0.22147	0.00303	0.14343	0.258
Mof_C 	C 	0.38647	0.00043	0.06283	0.258
Mof_O 	O 	0.45337	0.06873	0.07053	-0.319
Mof_W 	W 	0.70903	0.14851	0.33987	0.989
Mof_W 	W 	0.88571	0.36122	0.33577	1.242
Mof_W 	W 	0.80043	0.40832	0.39631	1.04
Mof_W 	W 	0.74824	0.26869	0.28552	1.009
Mof_Tm	Tm	0.11615	0.34438	0.33535	1.296
Mof_O 	O 	0.83843	0.22677	0.34507	-0.466
Mof_O 	O 	0.00113	0.38887	0.33847	-0.468
Mof_O 	O 	0.73923	0.28887	0.32817	-0.348
Mof_O 	O 	0.72713	0.15867	0.30207	-0.458
Mof_O 	O 	0.85383	0.36817	0.37237	-0.468
Mof_O 	O 	0.94833	0.42127	0.47857	-0.511
Mof_O 	O 	0.67903	0.17017	0.37407	-0.458
Mof_O 	O 	0.04583	0.29207	0.37457	-0.464
Mof_O 	O 	0.87773	0.33227	0.30007	-0.483
Mof_O 	O 	0.89363	0.47357	0.33177	-0.486
Mof_O 	O 	0.71133	0.44067	0.41187	-0.432
Mof_O 	O 	0.62333	0.22997	0.28247	-0.46
Mof_O 	O 	0.83153	0.29507	0.49387	-0.334
Mof_N 	N 	0.82343	0.16167	0.42397	-0.163
Mof_C 	C 	0.96973	0.28737	0.41367	-0.23
Mof_C 	C 	0.89803	0.20247	0.40787	0.129
Mof_H 	H 	0.90043	0.17087	0.39247	-0.041
Mof_C 	C 	0.89253	0.28737	0.45297	-0.159
Mof_C 	C 	0.82003	0.20007	0.44697	0.109
Mof_H 	H 	0.76913	0.16767	0.45877	-0.015
Mof_C 	C 	0.96743	0.33057	0.43667	-0.005
Mof_H 	H 	0.01813	0.39087	0.44097	0.086
Mof_C 	C 	0.88813	0.33637	0.47677	0.391
Mof_C 	C 	0.05313	0.33377	0.39617	0.473
Mof_O 	O 	0.12003	0.40207	0.40387	-0.347
Mof_W 	W 	0.10614	0.6243	0.6732	1.048
Mof_W 	W 	0.14217	0.44762	0.6691	1.314
Mof_W 	W 	0.27455	0.5329	0.72964	1.058
Mof_W 	W 	0.18711	0.58509	0.61885	1.037
Mof_Tm	Tm	0.89489	0.21718	0.66869	1.135
Mof_O 	O 	0.055	0.4949	0.6784	-0.43
Mof_O 	O 	0.0544	0.3322	0.6718	-0.477
Mof_O 	O 	0.2163	0.5941	0.6615	-0.364
Mof_O 	O 	0.0982	0.6062	0.6354	-0.434
Mof_O 	O 	0.181	0.4795	0.7057	-0.457
Mof_O 	O 	0.1396	0.385	0.8119	-0.509
Mof_O 	O 	0.1578	0.6543	0.7074	-0.451
Mof_O 	O 	0.9129	0.2875	0.7079	-0.482
Mof_O 	O 	0.1212	0.4556	0.6334	-0.454
Mof_O 	O 	0.2466	0.4397	0.6651	-0.477
Mof_O 	O 	0.396	0.622	0.7452	-0.434
Mof_O 	O 	0.2733	0.71	0.6158	-0.458
Mof_O 	O 	0.1302	0.5018	0.8272	-0.33
Mof_N 	N 	0.0049	0.5099	0.7573	-0.118
Mof_C 	C 	0.9843	0.3636	0.747	-0.295
Mof_C 	C 	0.9711	0.4353	0.7412	0.088
Mof_H 	H 	0.9371	0.4329	0.7258	-0.02
Mof_C 	C 	0.0615	0.4408	0.7863	-0.239
Mof_C 	C 	0.0467	0.5133	0.7803	0.174
Mof_H 	H 	0.0652	0.5642	0.7921	-0.019
Mof_C 	C 	0.0298	0.3659	0.77	0.256
Mof_H 	H 	0.0394	0.3152	0.7743	-0.033
Mof_C 	C 	0.1149	0.4452	0.8101	0.443
Mof_C 	C 	0.9473	0.2802	0.7295	0.433
Mof_O 	O 	0.9487	0.2133	0.7372	-0.391
Mof_W 	W 	0.77281	0.95763	0.00653	1.065
Mof_W 	W 	0.80884	0.78095	0.00243	1.303
Mof_W 	W 	0.94122	0.86623	0.06298	0.941
Mof_W 	W 	0.85378	0.91842	0.95219	1.083
Mof_Tm	Tm	0.56156	0.55051	0.00202	1.266
Mof_O 	O 	0.72167	0.82823	0.01173	-0.457
Mof_O 	O 	0.72107	0.66553	0.00513	-0.524
Mof_O 	O 	0.88297	0.92743	0.99483	-0.363
Mof_O 	O 	0.76487	0.93953	0.96873	-0.429
Mof_O 	O 	0.84767	0.81283	0.03903	-0.459
Mof_O 	O 	0.80627	0.71833	0.14523	-0.506
Mof_O 	O 	0.82447	0.98763	0.04073	-0.402
Mof_O 	O 	0.57957	0.62083	0.04123	-0.468
Mof_O 	O 	0.78787	0.78893	0.96673	-0.47
Mof_O 	O 	0.91327	0.77303	0.99843	-0.516
Mof_O 	O 	0.06267	0.95533	0.07853	-0.349
Mof_O 	O 	0.93997	0.04333	0.94913	-0.549
Mof_O 	O 	0.79687	0.83513	0.16053	-0.331
Mof_N 	N 	0.67157	0.84323	0.09063	-0.149
Mof_C 	C 	0.65097	0.69693	0.08033	-0.196
Mof_C 	C 	0.63777	0.76863	0.07453	0.128
Mof_H 	H 	0.60377	0.76623	0.05913	-0.009
Mof_C 	C 	0.72817	0.77413	0.11963	-0.203
Mof_C 	C 	0.71337	0.84663	0.11363	0.137
Mof_H 	H 	0.73187	0.89753	0.12543	-0.008
Mof_C 	C 	0.69647	0.69923	0.10333	0.129
Mof_H 	H 	0.70607	0.64853	0.10763	-0.015
Mof_C 	C 	0.78157	0.77853	0.14343	0.416
Mof_C 	C 	0.61397	0.61353	0.06283	0.414
Mof_O 	O 	0.61537	0.54663	0.07053	-0.349
Mof_W 	W 	0.43947	0.29097	0.33987	1.019
Mof_W 	W 	0.4755	0.11429	0.33577	1.252
Mof_W 	W 	0.60788	0.19957	0.39631	1.041
Mof_W 	W 	0.52044	0.25176	0.28552	1.014
Mof_Tm	Tm	0.22822	0.88385	0.33535	1.335
Mof_O 	O 	0.38833	0.16157	0.34507	-0.461
Mof_O 	O 	0.38773	0.99887	0.33847	-0.477
Mof_O 	O 	0.54963	0.26077	0.32817	-0.352
Mof_O 	O 	0.43153	0.27287	0.30207	-0.446
Mof_O 	O 	0.51433	0.14617	0.37237	-0.468
Mof_O 	O 	0.47293	0.05167	0.47857	-0.51
Mof_O 	O 	0.49113	0.32097	0.37407	-0.456
Mof_O 	O 	0.24623	0.95417	0.37457	-0.458
Mof_O 	O 	0.45453	0.12227	0.30007	-0.479
Mof_O 	O 	0.57993	0.10637	0.33177	-0.485
Mof_O 	O 	0.72933	0.28867	0.41187	-0.431
Mof_O 	O 	0.60663	0.37667	0.28247	-0.457
Mof_O 	O 	0.46353	0.16847	0.49387	-0.335
Mof_N 	N 	0.33823	0.17657	0.42397	-0.154
Mof_C 	C 	0.31763	0.03027	0.41367	-0.222
Mof_C 	C 	0.30443	0.10197	0.40787	0.129
Mof_H 	H 	0.27043	0.09957	0.39247	-0.027
Mof_C 	C 	0.39483	0.10747	0.45297	-0.164
Mof_C 	C 	0.38003	0.17997	0.44697	0.116
Mof_H 	H 	0.39853	0.23087	0.45877	-0.013
Mof_C 	C 	0.36313	0.03257	0.43667	0.01
Mof_H 	H 	0.37273	0.98187	0.44097	0.075
Mof_C 	C 	0.44823	0.11187	0.47677	0.395
Mof_C 	C 	0.28063	0.94687	0.39617	0.466
Mof_O 	O 	0.28203	0.87997	0.40387	-0.341
Mof_W 	W 	0.51816	0.89386	0.6732	1.043
Mof_W 	W 	0.30545	0.85783	0.6691	1.316
Mof_W 	W 	0.25835	0.72545	0.72964	1.064
Mof_W 	W 	0.39798	0.81289	0.61885	1.035
Mof_Tm	Tm	0.32229	0.10511	0.66869	1.194
Mof_O 	O 	0.4399	0.945	0.6784	-0.434
Mof_O 	O 	0.2778	0.9456	0.6718	-0.483
Mof_O 	O 	0.3778	0.7837	0.6615	-0.364
Mof_O 	O 	0.508	0.9018	0.6354	-0.435
Mof_O 	O 	0.2985	0.819	0.7057	-0.457
Mof_O 	O 	0.2454	0.8604	0.8119	-0.509
Mof_O 	O 	0.4965	0.8422	0.7074	-0.452
Mof_O 	O 	0.3746	0.0871	0.7079	-0.479
Mof_O 	O 	0.3344	0.8788	0.6334	-0.456
Mof_O 	O 	0.1931	0.7534	0.6651	-0.476
Mof_O 	O 	0.226	0.604	0.7452	-0.431
Mof_O 	O 	0.4367	0.7267	0.6158	-0.458
Mof_O 	O 	0.3716	0.8698	0.8272	-0.33
Mof_N 	N 	0.505	0.9951	0.7573	-0.123
Mof_C 	C 	0.3793	0.0157	0.747	-0.278
Mof_C 	C 	0.4642	0.0289	0.7412	0.09
Mof_H 	H 	0.4958	0.0629	0.7258	-0.018
Mof_C 	C 	0.3793	0.9385	0.7863	-0.232
Mof_C 	C 	0.4666	0.9533	0.7803	0.168
Mof_H 	H 	0.499	0.9348	0.7921	-0.019
Mof_C 	C 	0.3361	0.9702	0.77	0.237
Mof_H 	H 	0.2758	0.9606	0.7743	-0.022
Mof_C 	C 	0.3303	0.8851	0.8101	0.441
Mof_C 	C 	0.3329	0.0527	0.7295	0.428
Mof_O 	O 	0.2646	0.0513	0.7372	-0.365
Mof_W 	W 	0.18483	0.22719	0.00653	1.006
Mof_W 	W 	0.97212	0.19116	0.00243	1.168
Mof_W 	W 	0.92502	0.05878	0.06298	0.867
Mof_W 	W 	0.06465	0.14622	0.95219	1.083
Mof_Tm	Tm	0.98896	0.43844	0.00202	1.127
Mof_O 	O 	0.10657	0.27833	0.01173	-0.409
Mof_O 	O 	0.94447	0.27893	0.00513	-0.513
Mof_O 	O 	0.04447	0.11703	0.99483	-0.33
Mof_O 	O 	0.17467	0.23513	0.96873	-0.447
Mof_O 	O 	0.96517	0.15233	0.03903	-0.467
Mof_O 	O 	0.91207	0.19373	0.14523	-0.478
Mof_O 	O 	0.16317	0.17553	0.04073	-0.439
Mof_O 	O 	0.04127	0.42043	0.04123	-0.344
Mof_O 	O 	0.00107	0.21213	0.96673	-0.399
Mof_O 	O 	0.85977	0.08673	0.99843	-0.499
Mof_O 	O 	0.89267	0.93733	0.07853	-0.391
Mof_O 	O 	0.10337	0.06003	0.94913	-0.498
Mof_O 	O 	0.03827	0.20313	0.16053	-0.239
Mof_N 	N 	0.17167	0.32843	0.09063	-0.142
Mof_C 	C 	0.04597	0.34903	0.08033	-0.095
Mof_C 	C 	0.13087	0.36223	0.07453	0.084
Mof_H 	H 	0.16247	0.39623	0.05913	0.008
Mof_C 	C 	0.04597	0.27183	0.11963	-0.108
Mof_C 	C 	0.13327	0.28663	0.11363	0.095
Mof_H 	H 	0.16567	0.26813	0.12543	-0.003
Mof_C 	C 	0.00277	0.30353	0.10333	0.174
Mof_H 	H 	0.94247	0.29393	0.10763	-0.07
Mof_C 	C 	0.99697	0.21843	0.14343	0.235
Mof_C 	C 	0.99957	0.38603	0.06283	0.238
Mof_O 	O 	0.93127	0.38463	0.07053	-0.317
Mof_W 	W 	0.85149	0.56053	0.33987	0.992
Mof_W 	W 	0.63878	0.5245	0.33577	1.315
Mof_W 	W 	0.59168	0.39212	0.39631	1.053
Mof_W 	W 	0.73131	0.47956	0.28552	1.019
Mof_Tm	Tm	0.65562	0.77178	0.33535	1.28
Mof_O 	O 	0.77323	0.61167	0.34507	-0.455
Mof_O 	O 	0.61113	0.61227	0.33847	-0.524
Mof_O 	O 	0.71113	0.45037	0.32817	-0.356
Mof_O 	O 	0.84133	0.56847	0.30207	-0.455
Mof_O 	O 	0.63183	0.48567	0.37237	-0.465
Mof_O 	O 	0.57873	0.52707	0.47857	-0.51
Mof_O 	O 	0.82983	0.50887	0.37407	-0.459
Mof_O 	O 	0.70793	0.75377	0.37457	-0.469
Mof_O 	O 	0.66773	0.54547	0.30007	-0.466
Mof_O 	O 	0.52643	0.42007	0.33177	-0.477
Mof_O 	O 	0.55933	0.27067	0.41187	-0.431
Mof_O 	O 	0.77003	0.39337	0.28247	-0.461
Mof_O 	O 	0.70493	0.53647	0.49387	-0.337
Mof_N 	N 	0.83833	0.66177	0.42397	-0.166
Mof_C 	C 	0.71263	0.68237	0.41367	-0.195
Mof_C 	C 	0.79753	0.69557	0.40787	0.126
Mof_H 	H 	0.82913	0.72957	0.39247	-0.02
Mof_C 	C 	0.71263	0.60517	0.45297	-0.205
Mof_C 	C 	0.79993	0.61997	0.44697	0.133
Mof_H 	H 	0.83233	0.60147	0.45877	-0.022
Mof_C 	C 	0.66943	0.63687	0.43667	0.129
Mof_H 	H 	0.60913	0.62727	0.44097	-0.01
Mof_C 	C 	0.66363	0.55177	0.47677	0.422
Mof_C 	C 	0.66623	0.71937	0.39617	0.413
Mof_O 	O 	0.59793	0.71797	0.40387	-0.338
Mof_O 	O 	0.33333	0.66667	0.2068	-0.313
Mof_O 	O 	-0	0	0.54013	-0.287
Mof_O 	O 	0.66667	0.33333	0.87347	-0.307
Mof_O 	O 	0.33333	0.66667	0.7068	-0.313
Mof_O 	O 	1.02453e-33	0	0.04013	-0.288
Mof_O 	O 	0.66667	0.33333	0.37347	-0.307
_end
