data_functionalizedCrystal
_audit_creation_method	'EQeq! by Chris Wilmer'
_symmetry_space_group_name_H-M	'P1'
_symmetry_Int_Tables_number	1
_symmetry_cell_setting	triclinic
loop_
_symmetry_equiv_pos_as_xyz
  x,y,z
_cell_length_a	38.465
_cell_length_b	38.465
_cell_length_c	38.465
_cell_angle_alpha	90
_cell_angle_beta	90
_cell_angle_gamma	90
loop_
_atom_site_label
_atom_site_type_symbol
_atom_site_fract_x
_atom_site_fract_y
_atom_site_fract_z
_atom_site_charge
Mof_O 	O 	0.3152	0.1715	0.2206	-0.728
Mof_C 	C 	0.3667	0.1216	0.21978	0.136
Mof_H 	H 	0.3541	0.1265	0.1991	-0.043
Mof_C 	C 	0.392	0.0959	0.21992	-0.244
Mof_H 	H 	0.3964	0.0829	0.1994	0.081
Mof_C 	C 	0.4721	0.0726	0.2384	0.24
Mof_C 	C 	0.48132	0.1062	0.2323	-0.147
Mof_H 	H 	0.4663	0.1255	0.2287	0.058
Mof_C 	C 	0.4739	0.0746	0.2596	-0.177
Mof_C 	C 	0.4813	0.109	0.2634	0.039
Mof_H 	H 	0.4658	0.1281	0.2654	-0.008
Mof_O 	O 	0.8152	0.6715	0.7206	-0.728
Mof_C 	C 	0.8667	0.6216	0.71978	0.136
Mof_H 	H 	0.8541	0.6265	0.6991	-0.042
Mof_C 	C 	0.892	0.5959	0.71992	-0.244
Mof_H 	H 	0.8964	0.5829	0.6994	0.081
Mof_C 	C 	0.9721	0.5726	0.7384	0.24
Mof_C 	C 	0.98132	0.6062	0.7323	-0.142
Mof_H 	H 	0.9663	0.6255	0.7287	0.057
Mof_C 	C 	0.9739	0.5746	0.7596	-0.175
Mof_C 	C 	0.9813	0.609	0.7634	0.044
Mof_H 	H 	0.9658	0.6281	0.7654	-0.009
Mof_O 	O 	0.6848	0.8285	0.2206	-0.728
Mof_C 	C 	0.6333	0.8784	0.21978	0.136
Mof_H 	H 	0.6459	0.8735	0.1991	-0.043
Mof_C 	C 	0.608	0.9041	0.21992	-0.245
Mof_H 	H 	0.6036	0.9171	0.1994	0.081
Mof_C 	C 	0.5279	0.9274	0.2384	0.236
Mof_C 	C 	0.51868	0.8938	0.2323	-0.146
Mof_H 	H 	0.5337	0.8745	0.2287	0.057
Mof_C 	C 	0.5261	0.9254	0.2596	-0.173
Mof_C 	C 	0.5187	0.891	0.2634	0.036
Mof_H 	H 	0.5342	0.8719	0.2654	-0.008
Mof_O 	O 	0.1848	0.3285	0.7206	-0.729
Mof_C 	C 	0.1333	0.3784	0.71978	0.135
Mof_H 	H 	0.1459	0.3735	0.6991	-0.043
Mof_C 	C 	0.108	0.4041	0.71992	-0.245
Mof_H 	H 	0.1036	0.4171	0.6994	0.08
Mof_C 	C 	0.0279	0.4274	0.7384	0.238
Mof_C 	C 	0.01868	0.3938	0.7323	-0.154
Mof_H 	H 	0.0337	0.3745	0.7287	0.058
Mof_C 	C 	0.0261	0.4254	0.7596	-0.176
Mof_C 	C 	0.0187	0.391	0.7634	0.031
Mof_H 	H 	0.0342	0.3719	0.7654	-0.008
Mof_O 	O 	0.6848	0.1715	0.7794	-0.729
Mof_C 	C 	0.6333	0.1216	0.78022	0.135
Mof_H 	H 	0.6459	0.1265	0.8009	-0.043
Mof_C 	C 	0.608	0.0959	0.78008	-0.245
Mof_H 	H 	0.6036	0.0829	0.8006	0.08
Mof_C 	C 	0.5279	0.0726	0.7616	0.236
Mof_C 	C 	0.51868	0.1062	0.7677	-0.147
Mof_H 	H 	0.5337	0.1255	0.7713	0.057
Mof_C 	C 	0.5261	0.0746	0.7404	-0.175
Mof_C 	C 	0.5187	0.109	0.7366	0.037
Mof_H 	H 	0.5342	0.1281	0.7346	-0.009
Mof_O 	O 	0.1848	0.6715	0.2794	-0.729
Mof_C 	C 	0.1333	0.6216	0.28022	0.135
Mof_H 	H 	0.1459	0.6265	0.3009	-0.043
Mof_C 	C 	0.108	0.5959	0.28008	-0.245
Mof_H 	H 	0.1036	0.5829	0.3006	0.08
Mof_C 	C 	0.0279	0.5726	0.2616	0.236
Mof_C 	C 	0.01868	0.6062	0.2677	-0.153
Mof_H 	H 	0.0337	0.6255	0.2713	0.058
Mof_C 	C 	0.0261	0.5746	0.2404	-0.174
Mof_C 	C 	0.0187	0.609	0.2366	0.03
Mof_H 	H 	0.0342	0.6281	0.2346	-0.008
Mof_O 	O 	0.3152	0.8285	0.7794	-0.728
Mof_C 	C 	0.3667	0.8784	0.78022	0.136
Mof_H 	H 	0.3541	0.8735	0.8009	-0.042
Mof_C 	C 	0.392	0.9041	0.78008	-0.245
Mof_H 	H 	0.3964	0.9171	0.8006	0.082
Mof_C 	C 	0.4721	0.9274	0.7616	0.233
Mof_C 	C 	0.48132	0.8938	0.7677	-0.145
Mof_H 	H 	0.4663	0.8745	0.7713	0.057
Mof_C 	C 	0.4739	0.9254	0.7404	-0.171
Mof_C 	C 	0.4813	0.891	0.7366	0.035
Mof_H 	H 	0.4658	0.8719	0.7346	-0.008
Mof_O 	O 	0.8152	0.3285	0.2794	-0.729
Mof_C 	C 	0.8667	0.3784	0.28022	0.136
Mof_H 	H 	0.8541	0.3735	0.3009	-0.043
Mof_C 	C 	0.892	0.4041	0.28008	-0.245
Mof_H 	H 	0.8964	0.4171	0.3006	0.081
Mof_C 	C 	0.9721	0.4274	0.2616	0.238
Mof_C 	C 	0.98132	0.3938	0.2677	-0.141
Mof_H 	H 	0.9663	0.3745	0.2713	0.057
Mof_C 	C 	0.9739	0.4254	0.2404	-0.173
Mof_C 	C 	0.9813	0.391	0.2366	0.043
Mof_H 	H 	0.9658	0.3719	0.2346	-0.009
Mof_O 	O 	0.2206	0.3152	0.1715	-0.729
Mof_C 	C 	0.21978	0.3667	0.1216	0.135
Mof_H 	H 	0.1991	0.3541	0.1265	-0.044
Mof_C 	C 	0.21992	0.392	0.0959	-0.245
Mof_H 	H 	0.1994	0.3964	0.0829	0.08
Mof_C 	C 	0.2384	0.4721	0.0726	0.239
Mof_C 	C 	0.2323	0.48132	0.1062	-0.148
Mof_H 	H 	0.2287	0.4663	0.1255	0.057
Mof_C 	C 	0.2596	0.4739	0.0746	-0.178
Mof_C 	C 	0.2634	0.4813	0.109	0.038
Mof_H 	H 	0.2654	0.4658	0.1281	-0.009
Mof_O 	O 	0.7206	0.8152	0.6715	-0.729
Mof_C 	C 	0.71978	0.8667	0.6216	0.135
Mof_H 	H 	0.6991	0.8541	0.6265	-0.043
Mof_C 	C 	0.71992	0.892	0.5959	-0.245
Mof_H 	H 	0.6994	0.8964	0.5829	0.081
Mof_C 	C 	0.7384	0.9721	0.5726	0.24
Mof_C 	C 	0.7323	0.98132	0.6062	-0.142
Mof_H 	H 	0.7287	0.9663	0.6255	0.057
Mof_C 	C 	0.7596	0.9739	0.5746	-0.175
Mof_C 	C 	0.7634	0.9813	0.609	0.044
Mof_H 	H 	0.7654	0.9658	0.6281	-0.009
Mof_O 	O 	0.2206	0.6848	0.8285	-0.728
Mof_C 	C 	0.21978	0.6333	0.8784	0.136
Mof_H 	H 	0.1991	0.6459	0.8735	-0.043
Mof_C 	C 	0.21992	0.608	0.9041	-0.245
Mof_H 	H 	0.1994	0.6036	0.9171	0.081
Mof_C 	C 	0.2384	0.5279	0.9274	0.236
Mof_C 	C 	0.2323	0.51868	0.8938	-0.146
Mof_H 	H 	0.2287	0.5337	0.8745	0.057
Mof_C 	C 	0.2596	0.5261	0.9254	-0.173
Mof_C 	C 	0.2634	0.5187	0.891	0.036
Mof_H 	H 	0.2654	0.5342	0.8719	-0.008
Mof_O 	O 	0.7206	0.1848	0.3285	-0.729
Mof_C 	C 	0.71978	0.1333	0.3784	0.135
Mof_H 	H 	0.6991	0.1459	0.3735	-0.043
Mof_C 	C 	0.71992	0.108	0.4041	-0.245
Mof_H 	H 	0.6994	0.1036	0.4171	0.08
Mof_C 	C 	0.7384	0.0279	0.4274	0.238
Mof_C 	C 	0.7323	0.01868	0.3938	-0.154
Mof_H 	H 	0.7287	0.0337	0.3745	0.058
Mof_C 	C 	0.7596	0.0261	0.4254	-0.176
Mof_C 	C 	0.7634	0.0187	0.391	0.031
Mof_H 	H 	0.7654	0.0342	0.3719	-0.008
Mof_O 	O 	0.7794	0.6848	0.1715	-0.729
Mof_C 	C 	0.78022	0.6333	0.1216	0.135
Mof_H 	H 	0.8009	0.6459	0.1265	-0.043
Mof_C 	C 	0.78008	0.608	0.0959	-0.245
Mof_H 	H 	0.8006	0.6036	0.0829	0.08
Mof_C 	C 	0.7616	0.5279	0.0726	0.236
Mof_C 	C 	0.7677	0.51868	0.1062	-0.147
Mof_H 	H 	0.7713	0.5337	0.1255	0.057
Mof_C 	C 	0.7404	0.5261	0.0746	-0.175
Mof_C 	C 	0.7366	0.5187	0.109	0.037
Mof_H 	H 	0.7346	0.5342	0.1281	-0.009
Mof_O 	O 	0.2794	0.1848	0.6715	-0.729
Mof_C 	C 	0.28022	0.1333	0.6216	0.135
Mof_H 	H 	0.3009	0.1459	0.6265	-0.043
Mof_C 	C 	0.28008	0.108	0.5959	-0.245
Mof_H 	H 	0.3006	0.1036	0.5829	0.08
Mof_C 	C 	0.2616	0.0279	0.5726	0.236
Mof_C 	C 	0.2677	0.01868	0.6062	-0.153
Mof_H 	H 	0.2713	0.0337	0.6255	0.058
Mof_C 	C 	0.2404	0.0261	0.5746	-0.174
Mof_C 	C 	0.2366	0.0187	0.609	0.03
Mof_H 	H 	0.2346	0.0342	0.6281	-0.008
Mof_O 	O 	0.7794	0.3152	0.8285	-0.728
Mof_C 	C 	0.78022	0.3667	0.8784	0.136
Mof_H 	H 	0.8009	0.3541	0.8735	-0.042
Mof_C 	C 	0.78008	0.392	0.9041	-0.245
Mof_H 	H 	0.8006	0.3964	0.9171	0.082
Mof_C 	C 	0.7616	0.4721	0.9274	0.233
Mof_C 	C 	0.7677	0.48132	0.8938	-0.145
Mof_H 	H 	0.7713	0.4663	0.8745	0.057
Mof_C 	C 	0.7404	0.4739	0.9254	-0.171
Mof_C 	C 	0.7366	0.4813	0.891	0.035
Mof_H 	H 	0.7346	0.4658	0.8719	-0.008
Mof_O 	O 	0.2794	0.8152	0.3285	-0.729
Mof_C 	C 	0.28022	0.8667	0.3784	0.136
Mof_H 	H 	0.3009	0.8541	0.3735	-0.043
Mof_C 	C 	0.28008	0.892	0.4041	-0.245
Mof_H 	H 	0.3006	0.8964	0.4171	0.081
Mof_C 	C 	0.2616	0.9721	0.4274	0.238
Mof_C 	C 	0.2677	0.98132	0.3938	-0.141
Mof_H 	H 	0.2713	0.9663	0.3745	0.057
Mof_C 	C 	0.2404	0.9739	0.4254	-0.173
Mof_C 	C 	0.2366	0.9813	0.391	0.043
Mof_H 	H 	0.2346	0.9658	0.3719	-0.009
Mof_O 	O 	0.1715	0.2206	0.3152	-0.729
Mof_C 	C 	0.1216	0.21978	0.3667	0.135
Mof_H 	H 	0.1265	0.1991	0.3541	-0.044
Mof_C 	C 	0.0959	0.21992	0.392	-0.245
Mof_H 	H 	0.0829	0.1994	0.3964	0.08
Mof_C 	C 	0.0726	0.2384	0.4721	0.239
Mof_C 	C 	0.1062	0.2323	0.48132	-0.148
Mof_H 	H 	0.1255	0.2287	0.4663	0.057
Mof_C 	C 	0.0746	0.2596	0.4739	-0.178
Mof_C 	C 	0.109	0.2634	0.4813	0.038
Mof_H 	H 	0.1281	0.2654	0.4658	-0.009
Mof_O 	O 	0.6715	0.7206	0.8152	-0.729
Mof_C 	C 	0.6216	0.71978	0.8667	0.135
Mof_H 	H 	0.6265	0.6991	0.8541	-0.043
Mof_C 	C 	0.5959	0.71992	0.892	-0.245
Mof_H 	H 	0.5829	0.6994	0.8964	0.081
Mof_C 	C 	0.5726	0.7384	0.9721	0.24
Mof_C 	C 	0.6062	0.7323	0.98132	-0.142
Mof_H 	H 	0.6255	0.7287	0.9663	0.057
Mof_C 	C 	0.5746	0.7596	0.9739	-0.175
Mof_C 	C 	0.609	0.7634	0.9813	0.044
Mof_H 	H 	0.6281	0.7654	0.9658	-0.009
Mof_O 	O 	0.8285	0.2206	0.6848	-0.728
Mof_C 	C 	0.8784	0.21978	0.6333	0.136
Mof_H 	H 	0.8735	0.1991	0.6459	-0.043
Mof_C 	C 	0.9041	0.21992	0.608	-0.245
Mof_H 	H 	0.9171	0.1994	0.6036	0.081
Mof_C 	C 	0.9274	0.2384	0.5279	0.236
Mof_C 	C 	0.8938	0.2323	0.51868	-0.146
Mof_H 	H 	0.8745	0.2287	0.5337	0.057
Mof_C 	C 	0.9254	0.2596	0.5261	-0.173
Mof_C 	C 	0.891	0.2634	0.5187	0.036
Mof_H 	H 	0.8719	0.2654	0.5342	-0.008
Mof_O 	O 	0.3285	0.7206	0.1848	-0.729
Mof_C 	C 	0.3784	0.71978	0.1333	0.135
Mof_H 	H 	0.3735	0.6991	0.1459	-0.043
Mof_C 	C 	0.4041	0.71992	0.108	-0.245
Mof_H 	H 	0.4171	0.6994	0.1036	0.08
Mof_C 	C 	0.4274	0.7384	0.0279	0.238
Mof_C 	C 	0.3938	0.7323	0.01868	-0.154
Mof_H 	H 	0.3745	0.7287	0.0337	0.058
Mof_C 	C 	0.4254	0.7596	0.0261	-0.176
Mof_C 	C 	0.391	0.7634	0.0187	0.031
Mof_H 	H 	0.3719	0.7654	0.0342	-0.008
Mof_O 	O 	0.1715	0.7794	0.6848	-0.729
Mof_C 	C 	0.1216	0.78022	0.6333	0.135
Mof_H 	H 	0.1265	0.8009	0.6459	-0.043
Mof_C 	C 	0.0959	0.78008	0.608	-0.245
Mof_H 	H 	0.0829	0.8006	0.6036	0.08
Mof_C 	C 	0.0726	0.7616	0.5279	0.236
Mof_C 	C 	0.1062	0.7677	0.51868	-0.147
Mof_H 	H 	0.1255	0.7713	0.5337	0.057
Mof_C 	C 	0.0746	0.7404	0.5261	-0.175
Mof_C 	C 	0.109	0.7366	0.5187	0.037
Mof_H 	H 	0.1281	0.7346	0.5342	-0.009
Mof_O 	O 	0.6715	0.2794	0.1848	-0.729
Mof_C 	C 	0.6216	0.28022	0.1333	0.135
Mof_H 	H 	0.6265	0.3009	0.1459	-0.043
Mof_C 	C 	0.5959	0.28008	0.108	-0.245
Mof_H 	H 	0.5829	0.3006	0.1036	0.08
Mof_C 	C 	0.5726	0.2616	0.0279	0.236
Mof_C 	C 	0.6062	0.2677	0.01868	-0.153
Mof_H 	H 	0.6255	0.2713	0.0337	0.058
Mof_C 	C 	0.5746	0.2404	0.0261	-0.174
Mof_C 	C 	0.609	0.2366	0.0187	0.03
Mof_H 	H 	0.6281	0.2346	0.0342	-0.008
Mof_O 	O 	0.8285	0.7794	0.3152	-0.728
Mof_C 	C 	0.8784	0.78022	0.3667	0.136
Mof_H 	H 	0.8735	0.8009	0.3541	-0.042
Mof_C 	C 	0.9041	0.78008	0.392	-0.245
Mof_H 	H 	0.9171	0.8006	0.3964	0.082
Mof_C 	C 	0.9274	0.7616	0.4721	0.233
Mof_C 	C 	0.8938	0.7677	0.48132	-0.145
Mof_H 	H 	0.8745	0.7713	0.4663	0.057
Mof_C 	C 	0.9254	0.7404	0.4739	-0.171
Mof_C 	C 	0.891	0.7366	0.4813	0.035
Mof_H 	H 	0.8719	0.7346	0.4658	-0.008
Mof_O 	O 	0.3285	0.2794	0.8152	-0.729
Mof_C 	C 	0.3784	0.28022	0.8667	0.136
Mof_H 	H 	0.3735	0.3009	0.8541	-0.043
Mof_C 	C 	0.4041	0.28008	0.892	-0.245
Mof_H 	H 	0.4171	0.3006	0.8964	0.081
Mof_C 	C 	0.4274	0.2616	0.9721	0.238
Mof_C 	C 	0.3938	0.2677	0.98132	-0.141
Mof_H 	H 	0.3745	0.2713	0.9663	0.057
Mof_C 	C 	0.4254	0.2404	0.9739	-0.173
Mof_C 	C 	0.391	0.2366	0.9813	0.043
Mof_H 	H 	0.3719	0.2346	0.9658	-0.009
Mof_O 	O 	0.1715	0.3152	0.7794	-0.729
Mof_C 	C 	0.1216	0.3667	0.78022	0.135
Mof_H 	H 	0.1265	0.3541	0.8009	-0.043
Mof_C 	C 	0.0959	0.392	0.78008	-0.245
Mof_H 	H 	0.0829	0.3964	0.8006	0.08
Mof_C 	C 	0.0726	0.4721	0.7616	0.236
Mof_C 	C 	0.1062	0.48132	0.7677	-0.147
Mof_H 	H 	0.1255	0.4663	0.7713	0.057
Mof_C 	C 	0.0746	0.4739	0.7404	-0.175
Mof_C 	C 	0.109	0.4813	0.7366	0.037
Mof_H 	H 	0.1281	0.4658	0.7346	-0.009
Mof_O 	O 	0.6715	0.8152	0.2794	-0.729
Mof_C 	C 	0.6216	0.8667	0.28022	0.135
Mof_H 	H 	0.6265	0.8541	0.3009	-0.043
Mof_C 	C 	0.5959	0.892	0.28008	-0.245
Mof_H 	H 	0.5829	0.8964	0.3006	0.081
Mof_C 	C 	0.5726	0.9721	0.2616	0.238
Mof_C 	C 	0.6062	0.98132	0.2677	-0.141
Mof_H 	H 	0.6255	0.9663	0.2713	0.057
Mof_C 	C 	0.5746	0.9739	0.2404	-0.173
Mof_C 	C 	0.609	0.9813	0.2366	0.043
Mof_H 	H 	0.6281	0.9658	0.2346	-0.009
Mof_O 	O 	0.8285	0.6848	0.7794	-0.728
Mof_C 	C 	0.8784	0.6333	0.78022	0.136
Mof_H 	H 	0.8735	0.6459	0.8009	-0.042
Mof_C 	C 	0.9041	0.608	0.78008	-0.245
Mof_H 	H 	0.9171	0.6036	0.8006	0.082
Mof_C 	C 	0.9274	0.5279	0.7616	0.233
Mof_C 	C 	0.8938	0.51868	0.7677	-0.145
Mof_H 	H 	0.8745	0.5337	0.7713	0.057
Mof_C 	C 	0.9254	0.5261	0.7404	-0.171
Mof_C 	C 	0.891	0.5187	0.7366	0.035
Mof_H 	H 	0.8719	0.5342	0.7346	-0.008
Mof_O 	O 	0.3285	0.1848	0.2794	-0.729
Mof_C 	C 	0.3784	0.1333	0.28022	0.135
Mof_H 	H 	0.3735	0.1459	0.3009	-0.043
Mof_C 	C 	0.4041	0.108	0.28008	-0.245
Mof_H 	H 	0.4171	0.1036	0.3006	0.08
Mof_C 	C 	0.4274	0.0279	0.2616	0.236
Mof_C 	C 	0.3938	0.01868	0.2677	-0.153
Mof_H 	H 	0.3745	0.0337	0.2713	0.058
Mof_C 	C 	0.4254	0.0261	0.2404	-0.174
Mof_C 	C 	0.391	0.0187	0.2366	0.029
Mof_H 	H 	0.3719	0.0342	0.2346	-0.008
Mof_O 	O 	0.1715	0.6848	0.2206	-0.729
Mof_C 	C 	0.1216	0.6333	0.21978	0.135
Mof_H 	H 	0.1265	0.6459	0.1991	-0.044
Mof_C 	C 	0.0959	0.608	0.21992	-0.245
Mof_H 	H 	0.0829	0.6036	0.1994	0.08
Mof_C 	C 	0.0726	0.5279	0.2384	0.239
Mof_C 	C 	0.1062	0.51868	0.2323	-0.148
Mof_H 	H 	0.1255	0.5337	0.2287	0.057
Mof_C 	C 	0.0746	0.5261	0.2596	-0.178
Mof_C 	C 	0.109	0.5187	0.2634	0.038
Mof_H 	H 	0.1281	0.5342	0.2654	-0.009
Mof_O 	O 	0.6715	0.1848	0.7206	-0.729
Mof_C 	C 	0.6216	0.1333	0.71978	0.135
Mof_H 	H 	0.6265	0.1459	0.6991	-0.043
Mof_C 	C 	0.5959	0.108	0.71992	-0.245
Mof_H 	H 	0.5829	0.1036	0.6994	0.08
Mof_C 	C 	0.5726	0.0279	0.7384	0.238
Mof_C 	C 	0.6062	0.01868	0.7323	-0.154
Mof_H 	H 	0.6255	0.0337	0.7287	0.058
Mof_C 	C 	0.5746	0.0261	0.7596	-0.176
Mof_C 	C 	0.609	0.0187	0.7634	0.031
Mof_H 	H 	0.6281	0.0342	0.7654	-0.008
Mof_O 	O 	0.8285	0.3152	0.2206	-0.729
Mof_C 	C 	0.8784	0.3667	0.21978	0.136
Mof_H 	H 	0.8735	0.3541	0.1991	-0.043
Mof_C 	C 	0.9041	0.392	0.21992	-0.245
Mof_H 	H 	0.9171	0.3964	0.1994	0.081
Mof_C 	C 	0.9274	0.4721	0.2384	0.236
Mof_C 	C 	0.8938	0.48132	0.2323	-0.146
Mof_H 	H 	0.8745	0.4663	0.2287	0.057
Mof_C 	C 	0.9254	0.4739	0.2596	-0.173
Mof_C 	C 	0.891	0.4813	0.2634	0.036
Mof_H 	H 	0.8719	0.4658	0.2654	-0.008
Mof_O 	O 	0.3285	0.8152	0.7206	-0.729
Mof_C 	C 	0.3784	0.8667	0.71978	0.136
Mof_H 	H 	0.3735	0.8541	0.6991	-0.043
Mof_C 	C 	0.4041	0.892	0.71992	-0.245
Mof_H 	H 	0.4171	0.8964	0.6994	0.081
Mof_C 	C 	0.4274	0.9721	0.7384	0.24
Mof_C 	C 	0.3938	0.98132	0.7323	-0.142
Mof_H 	H 	0.3745	0.9663	0.7287	0.057
Mof_C 	C 	0.4254	0.9739	0.7596	-0.175
Mof_C 	C 	0.391	0.9813	0.7634	0.044
Mof_H 	H 	0.3719	0.9658	0.7654	-0.009
Mof_O 	O 	0.3152	0.2206	0.8285	-0.729
Mof_C 	C 	0.3667	0.21978	0.8784	0.136
Mof_H 	H 	0.3541	0.1991	0.8735	-0.043
Mof_C 	C 	0.392	0.21992	0.9041	-0.245
Mof_H 	H 	0.3964	0.1994	0.9171	0.081
Mof_C 	C 	0.4721	0.2384	0.9274	0.236
Mof_C 	C 	0.48132	0.2323	0.8938	-0.146
Mof_H 	H 	0.4663	0.2287	0.8745	0.057
Mof_C 	C 	0.4739	0.2596	0.9254	-0.173
Mof_C 	C 	0.4813	0.2634	0.891	0.036
Mof_H 	H 	0.4658	0.2654	0.8719	-0.008
Mof_O 	O 	0.8152	0.7206	0.3285	-0.729
Mof_C 	C 	0.8667	0.71978	0.3784	0.136
Mof_H 	H 	0.8541	0.6991	0.3735	-0.043
Mof_C 	C 	0.892	0.71992	0.4041	-0.245
Mof_H 	H 	0.8964	0.6994	0.4171	0.081
Mof_C 	C 	0.9721	0.7384	0.4274	0.24
Mof_C 	C 	0.98132	0.7323	0.3938	-0.142
Mof_H 	H 	0.9663	0.7287	0.3745	0.057
Mof_C 	C 	0.9739	0.7596	0.4254	-0.175
Mof_C 	C 	0.9813	0.7634	0.391	0.044
Mof_H 	H 	0.9658	0.7654	0.3719	-0.009
Mof_O 	O 	0.6848	0.2206	0.1715	-0.729
Mof_C 	C 	0.6333	0.21978	0.1216	0.135
Mof_H 	H 	0.6459	0.1991	0.1265	-0.044
Mof_C 	C 	0.608	0.21992	0.0959	-0.245
Mof_H 	H 	0.6036	0.1994	0.0829	0.08
Mof_C 	C 	0.5279	0.2384	0.0726	0.239
Mof_C 	C 	0.51868	0.2323	0.1062	-0.148
Mof_H 	H 	0.5337	0.2287	0.1255	0.057
Mof_C 	C 	0.5261	0.2596	0.0746	-0.178
Mof_C 	C 	0.5187	0.2634	0.109	0.038
Mof_H 	H 	0.5342	0.2654	0.1281	-0.009
Mof_O 	O 	0.1848	0.7206	0.6715	-0.729
Mof_C 	C 	0.1333	0.71978	0.6216	0.135
Mof_H 	H 	0.1459	0.6991	0.6265	-0.043
Mof_C 	C 	0.108	0.71992	0.5959	-0.245
Mof_H 	H 	0.1036	0.6994	0.5829	0.08
Mof_C 	C 	0.0279	0.7384	0.5726	0.238
Mof_C 	C 	0.01868	0.7323	0.6062	-0.154
Mof_H 	H 	0.0337	0.7287	0.6255	0.058
Mof_C 	C 	0.0261	0.7596	0.5746	-0.176
Mof_C 	C 	0.0187	0.7634	0.609	0.031
Mof_H 	H 	0.0342	0.7654	0.6281	-0.008
Mof_O 	O 	0.6848	0.7794	0.8285	-0.728
Mof_C 	C 	0.6333	0.78022	0.8784	0.136
Mof_H 	H 	0.6459	0.8009	0.8735	-0.042
Mof_C 	C 	0.608	0.78008	0.9041	-0.245
Mof_H 	H 	0.6036	0.8006	0.9171	0.082
Mof_C 	C 	0.5279	0.7616	0.9274	0.233
Mof_C 	C 	0.51868	0.7677	0.8938	-0.145
Mof_H 	H 	0.5337	0.7713	0.8745	0.057
Mof_C 	C 	0.5261	0.7404	0.9254	-0.171
Mof_C 	C 	0.5187	0.7366	0.891	0.035
Mof_H 	H 	0.5342	0.7346	0.8719	-0.008
Mof_O 	O 	0.1848	0.2794	0.3285	-0.729
Mof_C 	C 	0.1333	0.28022	0.3784	0.135
Mof_H 	H 	0.1459	0.3009	0.3735	-0.043
Mof_C 	C 	0.108	0.28008	0.4041	-0.245
Mof_H 	H 	0.1036	0.3006	0.4171	0.08
Mof_C 	C 	0.0279	0.2616	0.4274	0.236
Mof_C 	C 	0.01868	0.2677	0.3938	-0.153
Mof_H 	H 	0.0337	0.2713	0.3745	0.058
Mof_C 	C 	0.0261	0.2404	0.4254	-0.174
Mof_C 	C 	0.0187	0.2366	0.391	0.029
Mof_H 	H 	0.0342	0.2346	0.3719	-0.008
Mof_O 	O 	0.3152	0.7794	0.1715	-0.729
Mof_C 	C 	0.3667	0.78022	0.1216	0.135
Mof_H 	H 	0.3541	0.8009	0.1265	-0.043
Mof_C 	C 	0.392	0.78008	0.0959	-0.245
Mof_H 	H 	0.3964	0.8006	0.0829	0.08
Mof_C 	C 	0.4721	0.7616	0.0726	0.236
Mof_C 	C 	0.48132	0.7677	0.1062	-0.147
Mof_H 	H 	0.4663	0.7713	0.1255	0.057
Mof_C 	C 	0.4739	0.7404	0.0746	-0.175
Mof_C 	C 	0.4813	0.7366	0.109	0.037
Mof_H 	H 	0.4658	0.7346	0.1281	-0.009
Mof_O 	O 	0.8152	0.2794	0.6715	-0.729
Mof_C 	C 	0.8667	0.28022	0.6216	0.135
Mof_H 	H 	0.8541	0.3009	0.6265	-0.043
Mof_C 	C 	0.892	0.28008	0.5959	-0.245
Mof_H 	H 	0.8964	0.3006	0.5829	0.081
Mof_C 	C 	0.9721	0.2616	0.5726	0.238
Mof_C 	C 	0.98132	0.2677	0.6062	-0.141
Mof_H 	H 	0.9663	0.2713	0.6255	0.057
Mof_C 	C 	0.9739	0.2404	0.5746	-0.173
Mof_C 	C 	0.9813	0.2366	0.609	0.043
Mof_H 	H 	0.9658	0.2346	0.6281	-0.009
Mof_O 	O 	0.2206	0.1715	0.6848	-0.729
Mof_C 	C 	0.21978	0.1216	0.6333	0.135
Mof_H 	H 	0.1991	0.1265	0.6459	-0.044
Mof_C 	C 	0.21992	0.0959	0.608	-0.245
Mof_H 	H 	0.1994	0.0829	0.6036	0.08
Mof_C 	C 	0.2384	0.0726	0.5279	0.239
Mof_C 	C 	0.2323	0.1062	0.51868	-0.148
Mof_H 	H 	0.2287	0.1255	0.5337	0.057
Mof_C 	C 	0.2596	0.0746	0.5261	-0.178
Mof_C 	C 	0.2634	0.109	0.5187	0.038
Mof_H 	H 	0.2654	0.1281	0.5342	-0.009
Mof_O 	O 	0.7206	0.6715	0.1848	-0.729
Mof_C 	C 	0.71978	0.6216	0.1333	0.135
Mof_H 	H 	0.6991	0.6265	0.1459	-0.043
Mof_C 	C 	0.71992	0.5959	0.108	-0.245
Mof_H 	H 	0.6994	0.5829	0.1036	0.08
Mof_C 	C 	0.7384	0.5726	0.0279	0.238
Mof_C 	C 	0.7323	0.6062	0.01868	-0.154
Mof_H 	H 	0.7287	0.6255	0.0337	0.058
Mof_C 	C 	0.7596	0.5746	0.0261	-0.176
Mof_C 	C 	0.7634	0.609	0.0187	0.031
Mof_H 	H 	0.7654	0.6281	0.0342	-0.008
Mof_O 	O 	0.2206	0.8285	0.3152	-0.729
Mof_C 	C 	0.21978	0.8784	0.3667	0.136
Mof_H 	H 	0.1991	0.8735	0.3541	-0.043
Mof_C 	C 	0.21992	0.9041	0.392	-0.245
Mof_H 	H 	0.1994	0.9171	0.3964	0.081
Mof_C 	C 	0.2384	0.9274	0.4721	0.236
Mof_C 	C 	0.2323	0.8938	0.48132	-0.146
Mof_H 	H 	0.2287	0.8745	0.4663	0.057
Mof_C 	C 	0.2596	0.9254	0.4739	-0.173
Mof_C 	C 	0.2634	0.891	0.4813	0.036
Mof_H 	H 	0.2654	0.8719	0.4658	-0.008
Mof_O 	O 	0.7206	0.3285	0.8152	-0.729
Mof_C 	C 	0.71978	0.3784	0.8667	0.136
Mof_H 	H 	0.6991	0.3735	0.8541	-0.043
Mof_C 	C 	0.71992	0.4041	0.892	-0.245
Mof_H 	H 	0.6994	0.4171	0.8964	0.081
Mof_C 	C 	0.7384	0.4274	0.9721	0.24
Mof_C 	C 	0.7323	0.3938	0.98132	-0.142
Mof_H 	H 	0.7287	0.3745	0.9663	0.057
Mof_C 	C 	0.7596	0.4254	0.9739	-0.175
Mof_C 	C 	0.7634	0.391	0.9813	0.044
Mof_H 	H 	0.7654	0.3719	0.9658	-0.009
Mof_O 	O 	0.7794	0.1715	0.3152	-0.729
Mof_C 	C 	0.78022	0.1216	0.3667	0.135
Mof_H 	H 	0.8009	0.1265	0.3541	-0.043
Mof_C 	C 	0.78008	0.0959	0.392	-0.245
Mof_H 	H 	0.8006	0.0829	0.3964	0.08
Mof_C 	C 	0.7616	0.0726	0.4721	0.236
Mof_C 	C 	0.7677	0.1062	0.48132	-0.147
Mof_H 	H 	0.7713	0.1255	0.4663	0.057
Mof_C 	C 	0.7404	0.0746	0.4739	-0.175
Mof_C 	C 	0.7366	0.109	0.4813	0.037
Mof_H 	H 	0.7346	0.1281	0.4658	-0.009
Mof_O 	O 	0.2794	0.6715	0.8152	-0.729
Mof_C 	C 	0.28022	0.6216	0.8667	0.135
Mof_H 	H 	0.3009	0.6265	0.8541	-0.043
Mof_C 	C 	0.28008	0.5959	0.892	-0.245
Mof_H 	H 	0.3006	0.5829	0.8964	0.081
Mof_C 	C 	0.2616	0.5726	0.9721	0.238
Mof_C 	C 	0.2677	0.6062	0.98132	-0.141
Mof_H 	H 	0.2713	0.6255	0.9663	0.057
Mof_C 	C 	0.2404	0.5746	0.9739	-0.173
Mof_C 	C 	0.2366	0.609	0.9813	0.043
Mof_H 	H 	0.2346	0.6281	0.9658	-0.009
Mof_O 	O 	0.7794	0.8285	0.6848	-0.728
Mof_C 	C 	0.78022	0.8784	0.6333	0.136
Mof_H 	H 	0.8009	0.8735	0.6459	-0.042
Mof_C 	C 	0.78008	0.9041	0.608	-0.245
Mof_H 	H 	0.8006	0.9171	0.6036	0.082
Mof_C 	C 	0.7616	0.9274	0.5279	0.233
Mof_C 	C 	0.7677	0.8938	0.51868	-0.145
Mof_H 	H 	0.7713	0.8745	0.5337	0.057
Mof_C 	C 	0.7404	0.9254	0.5261	-0.171
Mof_C 	C 	0.7366	0.891	0.5187	0.035
Mof_H 	H 	0.7346	0.8719	0.5342	-0.008
Mof_O 	O 	0.2794	0.3285	0.1848	-0.729
Mof_C 	C 	0.28022	0.3784	0.1333	0.135
Mof_H 	H 	0.3009	0.3735	0.1459	-0.043
Mof_C 	C 	0.28008	0.4041	0.108	-0.245
Mof_H 	H 	0.3006	0.4171	0.1036	0.08
Mof_C 	C 	0.2616	0.4274	0.0279	0.236
Mof_C 	C 	0.2677	0.3938	0.01868	-0.153
Mof_H 	H 	0.2713	0.3745	0.0337	0.058
Mof_C 	C 	0.2404	0.4254	0.0261	-0.174
Mof_C 	C 	0.2366	0.391	0.0187	0.029
Mof_H 	H 	0.2346	0.3719	0.0342	-0.008
Mof_O 	O 	0.6848	0.8285	0.7794	-0.728
Mof_C 	C 	0.6333	0.8784	0.78022	0.136
Mof_H 	H 	0.6459	0.8735	0.8009	-0.042
Mof_C 	C 	0.608	0.9041	0.78008	-0.245
Mof_H 	H 	0.6036	0.9171	0.8006	0.082
Mof_C 	C 	0.5279	0.9274	0.7616	0.233
Mof_C 	C 	0.51868	0.8938	0.7677	-0.145
Mof_H 	H 	0.5337	0.8745	0.7713	0.057
Mof_C 	C 	0.5261	0.9254	0.7404	-0.171
Mof_C 	C 	0.5187	0.891	0.7366	0.035
Mof_H 	H 	0.5342	0.8719	0.7346	-0.008
Mof_O 	O 	0.1848	0.3285	0.2794	-0.729
Mof_C 	C 	0.1333	0.3784	0.28022	0.135
Mof_H 	H 	0.1459	0.3735	0.3009	-0.043
Mof_C 	C 	0.108	0.4041	0.28008	-0.245
Mof_H 	H 	0.1036	0.4171	0.3006	0.08
Mof_C 	C 	0.0279	0.4274	0.2616	0.236
Mof_C 	C 	0.01868	0.3938	0.2677	-0.153
Mof_H 	H 	0.0337	0.3745	0.2713	0.058
Mof_C 	C 	0.0261	0.4254	0.2404	-0.174
Mof_C 	C 	0.0187	0.391	0.2366	0.029
Mof_H 	H 	0.0342	0.3719	0.2346	-0.008
Mof_O 	O 	0.3152	0.1715	0.7794	-0.729
Mof_C 	C 	0.3667	0.1216	0.78022	0.135
Mof_H 	H 	0.3541	0.1265	0.8009	-0.043
Mof_C 	C 	0.392	0.0959	0.78008	-0.245
Mof_H 	H 	0.3964	0.0829	0.8006	0.08
Mof_C 	C 	0.4721	0.0726	0.7616	0.236
Mof_C 	C 	0.48132	0.1062	0.7677	-0.147
Mof_H 	H 	0.4663	0.1255	0.7713	0.057
Mof_C 	C 	0.4739	0.0746	0.7404	-0.175
Mof_C 	C 	0.4813	0.109	0.7366	0.037
Mof_H 	H 	0.4658	0.1281	0.7346	-0.009
Mof_O 	O 	0.8152	0.6715	0.2794	-0.729
Mof_C 	C 	0.8667	0.6216	0.28022	0.135
Mof_H 	H 	0.8541	0.6265	0.3009	-0.043
Mof_C 	C 	0.892	0.5959	0.28008	-0.245
Mof_H 	H 	0.8964	0.5829	0.3006	0.081
Mof_C 	C 	0.9721	0.5726	0.2616	0.238
Mof_C 	C 	0.98132	0.6062	0.2677	-0.141
Mof_H 	H 	0.9663	0.6255	0.2713	0.057
Mof_C 	C 	0.9739	0.5746	0.2404	-0.173
Mof_C 	C 	0.9813	0.609	0.2366	0.043
Mof_H 	H 	0.9658	0.6281	0.2346	-0.009
Mof_O 	O 	0.3152	0.8285	0.2206	-0.729
Mof_C 	C 	0.3667	0.8784	0.21978	0.136
Mof_H 	H 	0.3541	0.8735	0.1991	-0.043
Mof_C 	C 	0.392	0.9041	0.21992	-0.245
Mof_H 	H 	0.3964	0.9171	0.1994	0.081
Mof_C 	C 	0.4721	0.9274	0.2384	0.236
Mof_C 	C 	0.48132	0.8938	0.2323	-0.146
Mof_H 	H 	0.4663	0.8745	0.2287	0.057
Mof_C 	C 	0.4739	0.9254	0.2596	-0.173
Mof_C 	C 	0.4813	0.891	0.2634	0.036
Mof_H 	H 	0.4658	0.8719	0.2654	-0.008
Mof_O 	O 	0.8152	0.3285	0.7206	-0.729
Mof_C 	C 	0.8667	0.3784	0.71978	0.136
Mof_H 	H 	0.8541	0.3735	0.6991	-0.043
Mof_C 	C 	0.892	0.4041	0.71992	-0.245
Mof_H 	H 	0.8964	0.4171	0.6994	0.081
Mof_C 	C 	0.9721	0.4274	0.7384	0.24
Mof_C 	C 	0.98132	0.3938	0.7323	-0.142
Mof_H 	H 	0.9663	0.3745	0.7287	0.057
Mof_C 	C 	0.9739	0.4254	0.7596	-0.175
Mof_C 	C 	0.9813	0.391	0.7634	0.044
Mof_H 	H 	0.9658	0.3719	0.7654	-0.009
Mof_O 	O 	0.6848	0.1715	0.2206	-0.729
Mof_C 	C 	0.6333	0.1216	0.21978	0.135
Mof_H 	H 	0.6459	0.1265	0.1991	-0.044
Mof_C 	C 	0.608	0.0959	0.21992	-0.245
Mof_H 	H 	0.6036	0.0829	0.1994	0.08
Mof_C 	C 	0.5279	0.0726	0.2384	0.239
Mof_C 	C 	0.51868	0.1062	0.2323	-0.148
Mof_H 	H 	0.5337	0.1255	0.2287	0.057
Mof_C 	C 	0.5261	0.0746	0.2596	-0.178
Mof_C 	C 	0.5187	0.109	0.2634	0.038
Mof_H 	H 	0.5342	0.1281	0.2654	-0.009
Mof_O 	O 	0.1848	0.6715	0.7206	-0.729
Mof_C 	C 	0.1333	0.6216	0.71978	0.135
Mof_H 	H 	0.1459	0.6265	0.6991	-0.043
Mof_C 	C 	0.108	0.5959	0.71992	-0.245
Mof_H 	H 	0.1036	0.5829	0.6994	0.08
Mof_C 	C 	0.0279	0.5726	0.7384	0.238
Mof_C 	C 	0.01868	0.6062	0.7323	-0.154
Mof_H 	H 	0.0337	0.6255	0.7287	0.058
Mof_C 	C 	0.0261	0.5746	0.7596	-0.176
Mof_C 	C 	0.0187	0.609	0.7634	0.031
Mof_H 	H 	0.0342	0.6281	0.7654	-0.008
Mof_O 	O 	0.7794	0.6848	0.8285	-0.728
Mof_C 	C 	0.78022	0.6333	0.8784	0.136
Mof_H 	H 	0.8009	0.6459	0.8735	-0.042
Mof_C 	C 	0.78008	0.608	0.9041	-0.245
Mof_H 	H 	0.8006	0.6036	0.9171	0.082
Mof_C 	C 	0.7616	0.5279	0.9274	0.233
Mof_C 	C 	0.7677	0.51868	0.8938	-0.145
Mof_H 	H 	0.7713	0.5337	0.8745	0.057
Mof_C 	C 	0.7404	0.5261	0.9254	-0.171
Mof_C 	C 	0.7366	0.5187	0.891	0.035
Mof_H 	H 	0.7346	0.5342	0.8719	-0.008
Mof_O 	O 	0.2794	0.1848	0.3285	-0.729
Mof_C 	C 	0.28022	0.1333	0.3784	0.135
Mof_H 	H 	0.3009	0.1459	0.3735	-0.043
Mof_C 	C 	0.28008	0.108	0.4041	-0.245
Mof_H 	H 	0.3006	0.1036	0.4171	0.08
Mof_C 	C 	0.2616	0.0279	0.4274	0.236
Mof_C 	C 	0.2677	0.01868	0.3938	-0.153
Mof_H 	H 	0.2713	0.0337	0.3745	0.058
Mof_C 	C 	0.2404	0.0261	0.4254	-0.174
Mof_C 	C 	0.2366	0.0187	0.391	0.029
Mof_H 	H 	0.2346	0.0342	0.3719	-0.008
Mof_O 	O 	0.7794	0.3152	0.1715	-0.729
Mof_C 	C 	0.78022	0.3667	0.1216	0.135
Mof_H 	H 	0.8009	0.3541	0.1265	-0.043
Mof_C 	C 	0.78008	0.392	0.0959	-0.245
Mof_H 	H 	0.8006	0.3964	0.0829	0.08
Mof_C 	C 	0.7616	0.4721	0.0726	0.236
Mof_C 	C 	0.7677	0.48132	0.1062	-0.147
Mof_H 	H 	0.7713	0.4663	0.1255	0.057
Mof_C 	C 	0.7404	0.4739	0.0746	-0.175
Mof_C 	C 	0.7366	0.4813	0.109	0.037
Mof_H 	H 	0.7346	0.4658	0.1281	-0.009
Mof_O 	O 	0.2794	0.8152	0.6715	-0.729
Mof_C 	C 	0.28022	0.8667	0.6216	0.135
Mof_H 	H 	0.3009	0.8541	0.6265	-0.043
Mof_C 	C 	0.28008	0.892	0.5959	-0.245
Mof_H 	H 	0.3006	0.8964	0.5829	0.081
Mof_C 	C 	0.2616	0.9721	0.5726	0.238
Mof_C 	C 	0.2677	0.98132	0.6062	-0.141
Mof_H 	H 	0.2713	0.9663	0.6255	0.057
Mof_C 	C 	0.2404	0.9739	0.5746	-0.173
Mof_C 	C 	0.2366	0.9813	0.609	0.043
Mof_H 	H 	0.2346	0.9658	0.6281	-0.009
Mof_O 	O 	0.2206	0.3152	0.8285	-0.729
Mof_C 	C 	0.21978	0.3667	0.8784	0.136
Mof_H 	H 	0.1991	0.3541	0.8735	-0.043
Mof_C 	C 	0.21992	0.392	0.9041	-0.245
Mof_H 	H 	0.1994	0.3964	0.9171	0.081
Mof_C 	C 	0.2384	0.4721	0.9274	0.236
Mof_C 	C 	0.2323	0.48132	0.8938	-0.146
Mof_H 	H 	0.2287	0.4663	0.8745	0.057
Mof_C 	C 	0.2596	0.4739	0.9254	-0.173
Mof_C 	C 	0.2634	0.4813	0.891	0.036
Mof_H 	H 	0.2654	0.4658	0.8719	-0.008
Mof_O 	O 	0.7206	0.8152	0.3285	-0.729
Mof_C 	C 	0.71978	0.8667	0.3784	0.136
Mof_H 	H 	0.6991	0.8541	0.3735	-0.043
Mof_C 	C 	0.71992	0.892	0.4041	-0.245
Mof_H 	H 	0.6994	0.8964	0.4171	0.081
Mof_C 	C 	0.7384	0.9721	0.4274	0.24
Mof_C 	C 	0.7323	0.98132	0.3938	-0.142
Mof_H 	H 	0.7287	0.9663	0.3745	0.057
Mof_C 	C 	0.7596	0.9739	0.4254	-0.175
Mof_C 	C 	0.7634	0.9813	0.391	0.044
Mof_H 	H 	0.7654	0.9658	0.3719	-0.009
Mof_O 	O 	0.2206	0.6848	0.1715	-0.729
Mof_C 	C 	0.21978	0.6333	0.1216	0.135
Mof_H 	H 	0.1991	0.6459	0.1265	-0.044
Mof_C 	C 	0.21992	0.608	0.0959	-0.245
Mof_H 	H 	0.1994	0.6036	0.0829	0.08
Mof_C 	C 	0.2384	0.5279	0.0726	0.239
Mof_C 	C 	0.2323	0.51868	0.1062	-0.148
Mof_H 	H 	0.2287	0.5337	0.1255	0.057
Mof_C 	C 	0.2596	0.5261	0.0746	-0.178
Mof_C 	C 	0.2634	0.5187	0.109	0.038
Mof_H 	H 	0.2654	0.5342	0.1281	-0.009
Mof_O 	O 	0.7206	0.1848	0.6715	-0.729
Mof_C 	C 	0.71978	0.1333	0.6216	0.135
Mof_H 	H 	0.6991	0.1459	0.6265	-0.043
Mof_C 	C 	0.71992	0.108	0.5959	-0.245
Mof_H 	H 	0.6994	0.1036	0.5829	0.08
Mof_C 	C 	0.7384	0.0279	0.5726	0.238
Mof_C 	C 	0.7323	0.01868	0.6062	-0.154
Mof_H 	H 	0.7287	0.0337	0.6255	0.058
Mof_C 	C 	0.7596	0.0261	0.5746	-0.176
Mof_C 	C 	0.7634	0.0187	0.609	0.031
Mof_H 	H 	0.7654	0.0342	0.6281	-0.008
Mof_O 	O 	0.8285	0.7794	0.6848	-0.728
Mof_C 	C 	0.8784	0.78022	0.6333	0.136
Mof_H 	H 	0.8735	0.8009	0.6459	-0.042
Mof_C 	C 	0.9041	0.78008	0.608	-0.245
Mof_H 	H 	0.9171	0.8006	0.6036	0.082
Mof_C 	C 	0.9274	0.7616	0.5279	0.233
Mof_C 	C 	0.8938	0.7677	0.51868	-0.145
Mof_H 	H 	0.8745	0.7713	0.5337	0.057
Mof_C 	C 	0.9254	0.7404	0.5261	-0.171
Mof_C 	C 	0.891	0.7366	0.5187	0.035
Mof_H 	H 	0.8719	0.7346	0.5342	-0.008
Mof_O 	O 	0.3285	0.2794	0.1848	-0.729
Mof_C 	C 	0.3784	0.28022	0.1333	0.135
Mof_H 	H 	0.3735	0.3009	0.1459	-0.043
Mof_C 	C 	0.4041	0.28008	0.108	-0.245
Mof_H 	H 	0.4171	0.3006	0.1036	0.08
Mof_C 	C 	0.4274	0.2616	0.0279	0.236
Mof_C 	C 	0.3938	0.2677	0.01868	-0.153
Mof_H 	H 	0.3745	0.2713	0.0337	0.058
Mof_C 	C 	0.4254	0.2404	0.0261	-0.174
Mof_C 	C 	0.391	0.2366	0.0187	0.029
Mof_H 	H 	0.3719	0.2346	0.0342	-0.008
Mof_O 	O 	0.1715	0.7794	0.3152	-0.729
Mof_C 	C 	0.1216	0.78022	0.3667	0.135
Mof_H 	H 	0.1265	0.8009	0.3541	-0.043
Mof_C 	C 	0.0959	0.78008	0.392	-0.245
Mof_H 	H 	0.0829	0.8006	0.3964	0.08
Mof_C 	C 	0.0726	0.7616	0.4721	0.236
Mof_C 	C 	0.1062	0.7677	0.48132	-0.147
Mof_H 	H 	0.1255	0.7713	0.4663	0.057
Mof_C 	C 	0.0746	0.7404	0.4739	-0.175
Mof_C 	C 	0.109	0.7366	0.4813	0.037
Mof_H 	H 	0.1281	0.7346	0.4658	-0.009
Mof_O 	O 	0.6715	0.2794	0.8152	-0.729
Mof_C 	C 	0.6216	0.28022	0.8667	0.135
Mof_H 	H 	0.6265	0.3009	0.8541	-0.043
Mof_C 	C 	0.5959	0.28008	0.892	-0.245
Mof_H 	H 	0.5829	0.3006	0.8964	0.081
Mof_C 	C 	0.5726	0.2616	0.9721	0.238
Mof_C 	C 	0.6062	0.2677	0.98132	-0.141
Mof_H 	H 	0.6255	0.2713	0.9663	0.057
Mof_C 	C 	0.5746	0.2404	0.9739	-0.173
Mof_C 	C 	0.609	0.2366	0.9813	0.043
Mof_H 	H 	0.6281	0.2346	0.9658	-0.009
Mof_O 	O 	0.8285	0.2206	0.3152	-0.729
Mof_C 	C 	0.8784	0.21978	0.3667	0.136
Mof_H 	H 	0.8735	0.1991	0.3541	-0.043
Mof_C 	C 	0.9041	0.21992	0.392	-0.245
Mof_H 	H 	0.9171	0.1994	0.3964	0.081
Mof_C 	C 	0.9274	0.2384	0.4721	0.236
Mof_C 	C 	0.8938	0.2323	0.48132	-0.146
Mof_H 	H 	0.8745	0.2287	0.4663	0.057
Mof_C 	C 	0.9254	0.2596	0.4739	-0.173
Mof_C 	C 	0.891	0.2634	0.4813	0.036
Mof_H 	H 	0.8719	0.2654	0.4658	-0.008
Mof_O 	O 	0.3285	0.7206	0.8152	-0.729
Mof_C 	C 	0.3784	0.71978	0.8667	0.136
Mof_H 	H 	0.3735	0.6991	0.8541	-0.043
Mof_C 	C 	0.4041	0.71992	0.892	-0.245
Mof_H 	H 	0.4171	0.6994	0.8964	0.081
Mof_C 	C 	0.4274	0.7384	0.9721	0.24
Mof_C 	C 	0.3938	0.7323	0.98132	-0.142
Mof_H 	H 	0.3745	0.7287	0.9663	0.057
Mof_C 	C 	0.4254	0.7596	0.9739	-0.175
Mof_C 	C 	0.391	0.7634	0.9813	0.044
Mof_H 	H 	0.3719	0.7654	0.9658	-0.009
Mof_O 	O 	0.1715	0.2206	0.6848	-0.729
Mof_C 	C 	0.1216	0.21978	0.6333	0.135
Mof_H 	H 	0.1265	0.1991	0.6459	-0.044
Mof_C 	C 	0.0959	0.21992	0.608	-0.245
Mof_H 	H 	0.0829	0.1994	0.6036	0.08
Mof_C 	C 	0.0726	0.2384	0.5279	0.239
Mof_C 	C 	0.1062	0.2323	0.51868	-0.148
Mof_H 	H 	0.1255	0.2287	0.5337	0.057
Mof_C 	C 	0.0746	0.2596	0.5261	-0.178
Mof_C 	C 	0.109	0.2634	0.5187	0.038
Mof_H 	H 	0.1281	0.2654	0.5342	-0.009
Mof_O 	O 	0.6715	0.7206	0.1848	-0.729
Mof_C 	C 	0.6216	0.71978	0.1333	0.135
Mof_H 	H 	0.6265	0.6991	0.1459	-0.043
Mof_C 	C 	0.5959	0.71992	0.108	-0.245
Mof_H 	H 	0.5829	0.6994	0.1036	0.08
Mof_C 	C 	0.5726	0.7384	0.0279	0.238
Mof_C 	C 	0.6062	0.7323	0.01868	-0.154
Mof_H 	H 	0.6255	0.7287	0.0337	0.058
Mof_C 	C 	0.5746	0.7596	0.0261	-0.176
Mof_C 	C 	0.609	0.7634	0.0187	0.031
Mof_H 	H 	0.6281	0.7654	0.0342	-0.008
Mof_O 	O 	0.8285	0.6848	0.2206	-0.728
Mof_C 	C 	0.8784	0.6333	0.21978	0.136
Mof_H 	H 	0.8735	0.6459	0.1991	-0.043
Mof_C 	C 	0.9041	0.608	0.21992	-0.245
Mof_H 	H 	0.9171	0.6036	0.1994	0.081
Mof_C 	C 	0.9274	0.5279	0.2384	0.236
Mof_C 	C 	0.8938	0.51868	0.2323	-0.146
Mof_H 	H 	0.8745	0.5337	0.2287	0.057
Mof_C 	C 	0.9254	0.5261	0.2596	-0.173
Mof_C 	C 	0.891	0.5187	0.2634	0.036
Mof_H 	H 	0.8719	0.5342	0.2654	-0.008
Mof_O 	O 	0.3285	0.1848	0.7206	-0.729
Mof_C 	C 	0.3784	0.1333	0.71978	0.135
Mof_H 	H 	0.3735	0.1459	0.6991	-0.043
Mof_C 	C 	0.4041	0.108	0.71992	-0.245
Mof_H 	H 	0.4171	0.1036	0.6994	0.08
Mof_C 	C 	0.4274	0.0279	0.7384	0.238
Mof_C 	C 	0.3938	0.01868	0.7323	-0.154
Mof_H 	H 	0.3745	0.0337	0.7287	0.058
Mof_C 	C 	0.4254	0.0261	0.7596	-0.176
Mof_C 	C 	0.391	0.0187	0.7634	0.031
Mof_H 	H 	0.3719	0.0342	0.7654	-0.008
Mof_O 	O 	0.1715	0.3152	0.2206	-0.729
Mof_C 	C 	0.1216	0.3667	0.21978	0.135
Mof_H 	H 	0.1265	0.3541	0.1991	-0.044
Mof_C 	C 	0.0959	0.392	0.21992	-0.245
Mof_H 	H 	0.0829	0.3964	0.1994	0.08
Mof_C 	C 	0.0726	0.4721	0.2384	0.239
Mof_C 	C 	0.1062	0.48132	0.2323	-0.148
Mof_H 	H 	0.1255	0.4663	0.2287	0.057
Mof_C 	C 	0.0746	0.4739	0.2596	-0.178
Mof_C 	C 	0.109	0.4813	0.2634	0.038
Mof_H 	H 	0.1281	0.4658	0.2654	-0.009
Mof_O 	O 	0.6715	0.8152	0.7206	-0.729
Mof_C 	C 	0.6216	0.8667	0.71978	0.135
Mof_H 	H 	0.6265	0.8541	0.6991	-0.043
Mof_C 	C 	0.5959	0.892	0.71992	-0.245
Mof_H 	H 	0.5829	0.8964	0.6994	0.081
Mof_C 	C 	0.5726	0.9721	0.7384	0.24
Mof_C 	C 	0.6062	0.98132	0.7323	-0.142
Mof_H 	H 	0.6255	0.9663	0.7287	0.057
Mof_C 	C 	0.5746	0.9739	0.7596	-0.175
Mof_C 	C 	0.609	0.9813	0.7634	0.044
Mof_H 	H 	0.6281	0.9658	0.7654	-0.009
Mof_O 	O 	0.8285	0.3152	0.7794	-0.728
Mof_C 	C 	0.8784	0.3667	0.78022	0.136
Mof_H 	H 	0.8735	0.3541	0.8009	-0.042
Mof_C 	C 	0.9041	0.392	0.78008	-0.245
Mof_H 	H 	0.9171	0.3964	0.8006	0.082
Mof_C 	C 	0.9274	0.4721	0.7616	0.233
Mof_C 	C 	0.8938	0.48132	0.7677	-0.145
Mof_H 	H 	0.8745	0.4663	0.7713	0.057
Mof_C 	C 	0.9254	0.4739	0.7404	-0.171
Mof_C 	C 	0.891	0.4813	0.7366	0.035
Mof_H 	H 	0.8719	0.4658	0.7346	-0.008
Mof_O 	O 	0.3285	0.8152	0.2794	-0.729
Mof_C 	C 	0.3784	0.8667	0.28022	0.136
Mof_H 	H 	0.3735	0.8541	0.3009	-0.043
Mof_C 	C 	0.4041	0.892	0.28008	-0.245
Mof_H 	H 	0.4171	0.8964	0.3006	0.081
Mof_C 	C 	0.4274	0.9721	0.2616	0.238
Mof_C 	C 	0.3938	0.98132	0.2677	-0.141
Mof_H 	H 	0.3745	0.9663	0.2713	0.057
Mof_C 	C 	0.4254	0.9739	0.2404	-0.173
Mof_C 	C 	0.391	0.9813	0.2366	0.043
Mof_H 	H 	0.3719	0.9658	0.2346	-0.009
Mof_O 	O 	0.1715	0.6848	0.7794	-0.729
Mof_C 	C 	0.1216	0.6333	0.78022	0.135
Mof_H 	H 	0.1265	0.6459	0.8009	-0.043
Mof_C 	C 	0.0959	0.608	0.78008	-0.245
Mof_H 	H 	0.0829	0.6036	0.8006	0.08
Mof_C 	C 	0.0726	0.5279	0.7616	0.236
Mof_C 	C 	0.1062	0.51868	0.7677	-0.147
Mof_H 	H 	0.1255	0.5337	0.7713	0.057
Mof_C 	C 	0.0746	0.5261	0.7404	-0.175
Mof_C 	C 	0.109	0.5187	0.7366	0.037
Mof_H 	H 	0.1281	0.5342	0.7346	-0.009
Mof_O 	O 	0.6715	0.1848	0.2794	-0.729
Mof_C 	C 	0.6216	0.1333	0.28022	0.135
Mof_H 	H 	0.6265	0.1459	0.3009	-0.043
Mof_C 	C 	0.5959	0.108	0.28008	-0.245
Mof_H 	H 	0.5829	0.1036	0.3006	0.08
Mof_C 	C 	0.5726	0.0279	0.2616	0.236
Mof_C 	C 	0.6062	0.01868	0.2677	-0.153
Mof_H 	H 	0.6255	0.0337	0.2713	0.058
Mof_C 	C 	0.5746	0.0261	0.2404	-0.174
Mof_C 	C 	0.609	0.0187	0.2366	0.03
Mof_H 	H 	0.6281	0.0342	0.2346	-0.008
Mof_O 	O 	0.6848	0.7794	0.1715	-0.729
Mof_C 	C 	0.6333	0.78022	0.1216	0.135
Mof_H 	H 	0.6459	0.8009	0.1265	-0.043
Mof_C 	C 	0.608	0.78008	0.0959	-0.245
Mof_H 	H 	0.6036	0.8006	0.0829	0.08
Mof_C 	C 	0.5279	0.7616	0.0726	0.236
Mof_C 	C 	0.51868	0.7677	0.1062	-0.147
Mof_H 	H 	0.5337	0.7713	0.1255	0.057
Mof_C 	C 	0.5261	0.7404	0.0746	-0.175
Mof_C 	C 	0.5187	0.7366	0.109	0.037
Mof_H 	H 	0.5342	0.7346	0.1281	-0.009
Mof_O 	O 	0.1848	0.2794	0.6715	-0.729
Mof_C 	C 	0.1333	0.28022	0.6216	0.135
Mof_H 	H 	0.1459	0.3009	0.6265	-0.043
Mof_C 	C 	0.108	0.28008	0.5959	-0.245
Mof_H 	H 	0.1036	0.3006	0.5829	0.08
Mof_C 	C 	0.0279	0.2616	0.5726	0.236
Mof_C 	C 	0.01868	0.2677	0.6062	-0.153
Mof_H 	H 	0.0337	0.2713	0.6255	0.058
Mof_C 	C 	0.0261	0.2404	0.5746	-0.174
Mof_C 	C 	0.0187	0.2366	0.609	0.03
Mof_H 	H 	0.0342	0.2346	0.6281	-0.008
Mof_O 	O 	0.3152	0.7794	0.8285	-0.728
Mof_C 	C 	0.3667	0.78022	0.8784	0.136
Mof_H 	H 	0.3541	0.8009	0.8735	-0.042
Mof_C 	C 	0.392	0.78008	0.9041	-0.245
Mof_H 	H 	0.3964	0.8006	0.9171	0.082
Mof_C 	C 	0.4721	0.7616	0.9274	0.233
Mof_C 	C 	0.48132	0.7677	0.8938	-0.145
Mof_H 	H 	0.4663	0.7713	0.8745	0.057
Mof_C 	C 	0.4739	0.7404	0.9254	-0.171
Mof_C 	C 	0.4813	0.7366	0.891	0.035
Mof_H 	H 	0.4658	0.7346	0.8719	-0.008
Mof_O 	O 	0.8152	0.2794	0.3285	-0.729
Mof_C 	C 	0.8667	0.28022	0.3784	0.136
Mof_H 	H 	0.8541	0.3009	0.3735	-0.043
Mof_C 	C 	0.892	0.28008	0.4041	-0.245
Mof_H 	H 	0.8964	0.3006	0.4171	0.081
Mof_C 	C 	0.9721	0.2616	0.4274	0.238
Mof_C 	C 	0.98132	0.2677	0.3938	-0.141
Mof_H 	H 	0.9663	0.2713	0.3745	0.057
Mof_C 	C 	0.9739	0.2404	0.4254	-0.173
Mof_C 	C 	0.9813	0.2366	0.391	0.043
Mof_H 	H 	0.9658	0.2346	0.3719	-0.009
Mof_O 	O 	0.3152	0.2206	0.1715	-0.729
Mof_C 	C 	0.3667	0.21978	0.1216	0.135
Mof_H 	H 	0.3541	0.1991	0.1265	-0.044
Mof_C 	C 	0.392	0.21992	0.0959	-0.245
Mof_H 	H 	0.3964	0.1994	0.0829	0.08
Mof_C 	C 	0.4721	0.2384	0.0726	0.239
Mof_C 	C 	0.48132	0.2323	0.1062	-0.148
Mof_H 	H 	0.4663	0.2287	0.1255	0.057
Mof_C 	C 	0.4739	0.2596	0.0746	-0.178
Mof_C 	C 	0.4813	0.2634	0.109	0.038
Mof_H 	H 	0.4658	0.2654	0.1281	-0.009
Mof_O 	O 	0.8152	0.7206	0.6715	-0.729
Mof_C 	C 	0.8667	0.71978	0.6216	0.135
Mof_H 	H 	0.8541	0.6991	0.6265	-0.043
Mof_C 	C 	0.892	0.71992	0.5959	-0.245
Mof_H 	H 	0.8964	0.6994	0.5829	0.081
Mof_C 	C 	0.9721	0.7384	0.5726	0.24
Mof_C 	C 	0.98132	0.7323	0.6062	-0.142
Mof_H 	H 	0.9663	0.7287	0.6255	0.057
Mof_C 	C 	0.9739	0.7596	0.5746	-0.175
Mof_C 	C 	0.9813	0.7634	0.609	0.044
Mof_H 	H 	0.9658	0.7654	0.6281	-0.009
Mof_O 	O 	0.6848	0.2206	0.8285	-0.728
Mof_C 	C 	0.6333	0.21978	0.8784	0.136
Mof_H 	H 	0.6459	0.1991	0.8735	-0.043
Mof_C 	C 	0.608	0.21992	0.9041	-0.245
Mof_H 	H 	0.6036	0.1994	0.9171	0.081
Mof_C 	C 	0.5279	0.2384	0.9274	0.236
Mof_C 	C 	0.51868	0.2323	0.8938	-0.146
Mof_H 	H 	0.5337	0.2287	0.8745	0.057
Mof_C 	C 	0.5261	0.2596	0.9254	-0.173
Mof_C 	C 	0.5187	0.2634	0.891	0.036
Mof_H 	H 	0.5342	0.2654	0.8719	-0.008
Mof_O 	O 	0.1848	0.7206	0.3285	-0.729
Mof_C 	C 	0.1333	0.71978	0.3784	0.135
Mof_H 	H 	0.1459	0.6991	0.3735	-0.043
Mof_C 	C 	0.108	0.71992	0.4041	-0.245
Mof_H 	H 	0.1036	0.6994	0.4171	0.08
Mof_C 	C 	0.0279	0.7384	0.4274	0.238
Mof_C 	C 	0.01868	0.7323	0.3938	-0.154
Mof_H 	H 	0.0337	0.7287	0.3745	0.058
Mof_C 	C 	0.0261	0.7596	0.4254	-0.176
Mof_C 	C 	0.0187	0.7634	0.391	0.031
Mof_H 	H 	0.0342	0.7654	0.3719	-0.008
Mof_O 	O 	0.7794	0.8285	0.3152	-0.728
Mof_C 	C 	0.78022	0.8784	0.3667	0.136
Mof_H 	H 	0.8009	0.8735	0.3541	-0.042
Mof_C 	C 	0.78008	0.9041	0.392	-0.245
Mof_H 	H 	0.8006	0.9171	0.3964	0.082
Mof_C 	C 	0.7616	0.9274	0.4721	0.233
Mof_C 	C 	0.7677	0.8938	0.48132	-0.145
Mof_H 	H 	0.7713	0.8745	0.4663	0.057
Mof_C 	C 	0.7404	0.9254	0.4739	-0.171
Mof_C 	C 	0.7366	0.891	0.4813	0.035
Mof_H 	H 	0.7346	0.8719	0.4658	-0.008
Mof_O 	O 	0.2794	0.3285	0.8152	-0.729
Mof_C 	C 	0.28022	0.3784	0.8667	0.136
Mof_H 	H 	0.3009	0.3735	0.8541	-0.043
Mof_C 	C 	0.28008	0.4041	0.892	-0.245
Mof_H 	H 	0.3006	0.4171	0.8964	0.081
Mof_C 	C 	0.2616	0.4274	0.9721	0.238
Mof_C 	C 	0.2677	0.3938	0.98132	-0.141
Mof_H 	H 	0.2713	0.3745	0.9663	0.057
Mof_C 	C 	0.2404	0.4254	0.9739	-0.173
Mof_C 	C 	0.2366	0.391	0.9813	0.043
Mof_H 	H 	0.2346	0.3719	0.9658	-0.009
Mof_O 	O 	0.7794	0.1715	0.6848	-0.729
Mof_C 	C 	0.78022	0.1216	0.6333	0.135
Mof_H 	H 	0.8009	0.1265	0.6459	-0.043
Mof_C 	C 	0.78008	0.0959	0.608	-0.245
Mof_H 	H 	0.8006	0.0829	0.6036	0.08
Mof_C 	C 	0.7616	0.0726	0.5279	0.236
Mof_C 	C 	0.7677	0.1062	0.51868	-0.147
Mof_H 	H 	0.7713	0.1255	0.5337	0.057
Mof_C 	C 	0.7404	0.0746	0.5261	-0.175
Mof_C 	C 	0.7366	0.109	0.5187	0.037
Mof_H 	H 	0.7346	0.1281	0.5342	-0.009
Mof_O 	O 	0.2794	0.6715	0.1848	-0.729
Mof_C 	C 	0.28022	0.6216	0.1333	0.135
Mof_H 	H 	0.3009	0.6265	0.1459	-0.043
Mof_C 	C 	0.28008	0.5959	0.108	-0.245
Mof_H 	H 	0.3006	0.5829	0.1036	0.08
Mof_C 	C 	0.2616	0.5726	0.0279	0.236
Mof_C 	C 	0.2677	0.6062	0.01868	-0.153
Mof_H 	H 	0.2713	0.6255	0.0337	0.058
Mof_C 	C 	0.2404	0.5746	0.0261	-0.174
Mof_C 	C 	0.2366	0.609	0.0187	0.03
Mof_H 	H 	0.2346	0.6281	0.0342	-0.008
Mof_O 	O 	0.2206	0.8285	0.6848	-0.728
Mof_C 	C 	0.21978	0.8784	0.6333	0.136
Mof_H 	H 	0.1991	0.8735	0.6459	-0.043
Mof_C 	C 	0.21992	0.9041	0.608	-0.245
Mof_H 	H 	0.1994	0.9171	0.6036	0.081
Mof_C 	C 	0.2384	0.9274	0.5279	0.236
Mof_C 	C 	0.2323	0.8938	0.51868	-0.146
Mof_H 	H 	0.2287	0.8745	0.5337	0.057
Mof_C 	C 	0.2596	0.9254	0.5261	-0.173
Mof_C 	C 	0.2634	0.891	0.5187	0.036
Mof_H 	H 	0.2654	0.8719	0.5342	-0.008
Mof_O 	O 	0.7206	0.3285	0.1848	-0.729
Mof_C 	C 	0.71978	0.3784	0.1333	0.135
Mof_H 	H 	0.6991	0.3735	0.1459	-0.043
Mof_C 	C 	0.71992	0.4041	0.108	-0.245
Mof_H 	H 	0.6994	0.4171	0.1036	0.08
Mof_C 	C 	0.7384	0.4274	0.0279	0.238
Mof_C 	C 	0.7323	0.3938	0.01868	-0.154
Mof_H 	H 	0.7287	0.3745	0.0337	0.058
Mof_C 	C 	0.7596	0.4254	0.0261	-0.176
Mof_C 	C 	0.7634	0.391	0.0187	0.031
Mof_H 	H 	0.7654	0.3719	0.0342	-0.008
Mof_O 	O 	0.2206	0.1715	0.3152	-0.729
Mof_C 	C 	0.21978	0.1216	0.3667	0.135
Mof_H 	H 	0.1991	0.1265	0.3541	-0.044
Mof_C 	C 	0.21992	0.0959	0.392	-0.245
Mof_H 	H 	0.1994	0.0829	0.3964	0.08
Mof_C 	C 	0.2384	0.0726	0.4721	0.239
Mof_C 	C 	0.2323	0.1062	0.48132	-0.148
Mof_H 	H 	0.2287	0.1255	0.4663	0.057
Mof_C 	C 	0.2596	0.0746	0.4739	-0.178
Mof_C 	C 	0.2634	0.109	0.4813	0.038
Mof_H 	H 	0.2654	0.1281	0.4658	-0.009
Mof_O 	O 	0.7206	0.6715	0.8152	-0.729
Mof_C 	C 	0.71978	0.6216	0.8667	0.135
Mof_H 	H 	0.6991	0.6265	0.8541	-0.043
Mof_C 	C 	0.71992	0.5959	0.892	-0.245
Mof_H 	H 	0.6994	0.5829	0.8964	0.081
Mof_C 	C 	0.7384	0.5726	0.9721	0.24
Mof_C 	C 	0.7323	0.6062	0.98132	-0.142
Mof_H 	H 	0.7287	0.6255	0.9663	0.057
Mof_C 	C 	0.7596	0.5746	0.9739	-0.175
Mof_C 	C 	0.7634	0.609	0.9813	0.044
Mof_H 	H 	0.7654	0.6281	0.9658	-0.009
Mof_Zr	Zr	0.27174	0.20715	0.20715	3.179
Mof_O 	O 	0.2989	0.2379	0.2379	-1.393
Mof_Zr	Zr	0.77174	0.70715	0.70715	3.179
Mof_O 	O 	0.7989	0.7379	0.7379	-1.392
Mof_Zr	Zr	0.72826	0.79285	0.20715	3.179
Mof_O 	O 	0.7011	0.7621	0.2379	-1.393
Mof_Zr	Zr	0.22826	0.29285	0.70715	3.179
Mof_O 	O 	0.2011	0.2621	0.7379	-1.393
Mof_Zr	Zr	0.72826	0.20715	0.79285	3.179
Mof_O 	O 	0.7011	0.2379	0.7621	-1.393
Mof_Zr	Zr	0.22826	0.70715	0.29285	3.179
Mof_O 	O 	0.2011	0.7379	0.2621	-1.393
Mof_Zr	Zr	0.27174	0.79285	0.79285	3.179
Mof_O 	O 	0.2989	0.7621	0.7621	-1.393
Mof_Zr	Zr	0.77174	0.29285	0.29285	3.179
Mof_O 	O 	0.7989	0.2621	0.2621	-1.393
Mof_Zr	Zr	0.20715	0.27174	0.20715	3.179
Mof_O 	O 	0.2379	0.2989	0.2379	-1.393
Mof_Zr	Zr	0.70715	0.77174	0.70715	3.179
Mof_O 	O 	0.7379	0.7989	0.7379	-1.392
Mof_Zr	Zr	0.20715	0.72826	0.79285	3.179
Mof_O 	O 	0.2379	0.7011	0.7621	-1.393
Mof_Zr	Zr	0.70715	0.22826	0.29285	3.179
Mof_O 	O 	0.7379	0.2011	0.2621	-1.393
Mof_Zr	Zr	0.79285	0.72826	0.20715	3.179
Mof_O 	O 	0.7621	0.7011	0.2379	-1.393
Mof_Zr	Zr	0.29285	0.22826	0.70715	3.179
Mof_O 	O 	0.2621	0.2011	0.7379	-1.393
Mof_Zr	Zr	0.79285	0.27174	0.79285	3.179
Mof_O 	O 	0.7621	0.2989	0.7621	-1.393
Mof_Zr	Zr	0.29285	0.77174	0.29285	3.179
Mof_O 	O 	0.2621	0.7989	0.2621	-1.393
Mof_Zr	Zr	0.20715	0.20715	0.27174	3.179
Mof_O 	O 	0.2379	0.2379	0.2989	-1.393
Mof_Zr	Zr	0.70715	0.70715	0.77174	3.179
Mof_O 	O 	0.7379	0.7379	0.7989	-1.392
Mof_Zr	Zr	0.79285	0.20715	0.72826	3.179
Mof_O 	O 	0.7621	0.2379	0.7011	-1.393
Mof_Zr	Zr	0.29285	0.70715	0.22826	3.179
Mof_O 	O 	0.2621	0.7379	0.2011	-1.393
Mof_Zr	Zr	0.20715	0.79285	0.72826	3.179
Mof_O 	O 	0.2379	0.7621	0.7011	-1.393
Mof_Zr	Zr	0.70715	0.29285	0.22826	3.179
Mof_O 	O 	0.7379	0.2621	0.2011	-1.393
Mof_Zr	Zr	0.79285	0.79285	0.27174	3.179
Mof_O 	O 	0.7621	0.7621	0.2989	-1.393
Mof_Zr	Zr	0.29285	0.29285	0.77174	3.179
Mof_O 	O 	0.2621	0.2621	0.7989	-1.393
Mof_Zr	Zr	0.20715	0.27174	0.79285	3.179
Mof_O 	O 	0.2379	0.2989	0.7621	-1.393
Mof_Zr	Zr	0.70715	0.77174	0.29285	3.179
Mof_O 	O 	0.7379	0.7989	0.2621	-1.393
Mof_Zr	Zr	0.79285	0.72826	0.79285	3.179
Mof_O 	O 	0.7621	0.7011	0.7621	-1.393
Mof_Zr	Zr	0.29285	0.22826	0.29285	3.179
Mof_O 	O 	0.2621	0.2011	0.2621	-1.393
Mof_Zr	Zr	0.20715	0.72826	0.20715	3.179
Mof_O 	O 	0.2379	0.7011	0.2379	-1.393
Mof_Zr	Zr	0.70715	0.22826	0.70715	3.179
Mof_O 	O 	0.7379	0.2011	0.7379	-1.393
Mof_Zr	Zr	0.79285	0.27174	0.20715	3.179
Mof_O 	O 	0.7621	0.2989	0.2379	-1.393
Mof_Zr	Zr	0.29285	0.77174	0.70715	3.179
Mof_O 	O 	0.2621	0.7989	0.7379	-1.393
Mof_Zr	Zr	0.27174	0.20715	0.79285	3.179
Mof_O 	O 	0.2989	0.2379	0.7621	-1.393
Mof_Zr	Zr	0.77174	0.70715	0.29285	3.179
Mof_O 	O 	0.7989	0.7379	0.2621	-1.393
Mof_Zr	Zr	0.72826	0.20715	0.20715	3.179
Mof_O 	O 	0.7011	0.2379	0.2379	-1.393
Mof_Zr	Zr	0.22826	0.70715	0.70715	3.179
Mof_O 	O 	0.2011	0.7379	0.7379	-1.393
Mof_Zr	Zr	0.72826	0.79285	0.79285	3.179
Mof_O 	O 	0.7011	0.7621	0.7621	-1.393
Mof_Zr	Zr	0.22826	0.29285	0.29285	3.179
Mof_O 	O 	0.2011	0.2621	0.2621	-1.393
Mof_Zr	Zr	0.27174	0.79285	0.20715	3.179
Mof_O 	O 	0.2989	0.7621	0.2379	-1.393
Mof_Zr	Zr	0.77174	0.29285	0.70715	3.179
Mof_O 	O 	0.7989	0.2621	0.7379	-1.393
Mof_Zr	Zr	0.20715	0.20715	0.72826	3.179
Mof_O 	O 	0.2379	0.2379	0.7011	-1.393
Mof_Zr	Zr	0.70715	0.70715	0.22826	3.179
Mof_O 	O 	0.7379	0.7379	0.2011	-1.393
Mof_Zr	Zr	0.20715	0.79285	0.27174	3.179
Mof_O 	O 	0.2379	0.7621	0.2989	-1.393
Mof_Zr	Zr	0.70715	0.29285	0.77174	3.179
Mof_O 	O 	0.7379	0.2621	0.7989	-1.393
Mof_Zr	Zr	0.79285	0.20715	0.27174	3.179
Mof_O 	O 	0.7621	0.2379	0.2989	-1.393
Mof_Zr	Zr	0.29285	0.70715	0.77174	3.179
Mof_O 	O 	0.2621	0.7379	0.7989	-1.393
Mof_Zr	Zr	0.79285	0.79285	0.72826	3.179
Mof_O 	O 	0.7621	0.7621	0.7011	-1.393
Mof_Zr	Zr	0.29285	0.29285	0.22826	3.179
Mof_O 	O 	0.2621	0.2621	0.2011	-1.393
Mof_Zr	Zr	0.5	0	0.25	3.158
Mof_Zr	Zr	0.5	-7.09697e-33	0.75	3.158
Mof_Zr	Zr	0.25	0.5	-0	3.158
Mof_Zr	Zr	0.75	0.5	-0	3.158
Mof_Zr	Zr	1.8747e-33	0.25	0.5	3.158
Mof_Zr	Zr	8.97167e-33	0.75	0.5	3.158
Mof_Zr	Zr	0.5	0.25	-0	3.158
Mof_Zr	Zr	9.90902e-33	0.5	0.75	3.158
Mof_Zr	Zr	9.3735e-34	0.5	0.25	3.158
Mof_Zr	Zr	0.5	0.75	-0	3.158
Mof_Zr	Zr	0.25	0	0.5	3.158
Mof_Zr	Zr	0.75	0	0.5	3.158
Mof_C 	C 	0.3329	0.1671	0.25	0.459
Mof_C 	C 	0.35964	0.14036	0.25	-0.251
Mof_C 	C 	0.4109	0.0891	0.25	0.202
Mof_C 	C 	0.4361	0.0639	0.25	-0.233
Mof_C 	C 	0.6671	0.8329	0.25	0.459
Mof_C 	C 	0.64036	0.85964	0.25	-0.25
Mof_C 	C 	0.5891	0.9109	0.25	0.203
Mof_C 	C 	0.5639	0.9361	0.25	-0.233
Mof_C 	C 	0.6671	0.1671	0.75	0.459
Mof_C 	C 	0.64036	0.14036	0.75	-0.251
Mof_C 	C 	0.5891	0.0891	0.75	0.202
Mof_C 	C 	0.5639	0.0639	0.75	-0.233
Mof_C 	C 	0.3329	0.8329	0.75	0.459
Mof_C 	C 	0.35964	0.85964	0.75	-0.25
Mof_C 	C 	0.4109	0.9109	0.75	0.203
Mof_C 	C 	0.4361	0.9361	0.75	-0.232
Mof_C 	C 	0.25	0.3329	0.1671	0.459
Mof_C 	C 	0.25	0.35964	0.14036	-0.251
Mof_C 	C 	0.25	0.4109	0.0891	0.202
Mof_C 	C 	0.25	0.4361	0.0639	-0.233
Mof_C 	C 	0.25	0.6671	0.8329	0.459
Mof_C 	C 	0.25	0.64036	0.85964	-0.25
Mof_C 	C 	0.25	0.5891	0.9109	0.203
Mof_C 	C 	0.25	0.5639	0.9361	-0.233
Mof_C 	C 	0.75	0.6671	0.1671	0.459
Mof_C 	C 	0.75	0.64036	0.14036	-0.251
Mof_C 	C 	0.75	0.5891	0.0891	0.202
Mof_C 	C 	0.75	0.5639	0.0639	-0.233
Mof_C 	C 	0.75	0.3329	0.8329	0.459
Mof_C 	C 	0.75	0.35964	0.85964	-0.25
Mof_C 	C 	0.75	0.4109	0.9109	0.203
Mof_C 	C 	0.75	0.4361	0.9361	-0.232
Mof_C 	C 	0.1671	0.25	0.3329	0.459
Mof_C 	C 	0.14036	0.25	0.35964	-0.251
Mof_C 	C 	0.0891	0.25	0.4109	0.202
Mof_C 	C 	0.0639	0.25	0.4361	-0.233
Mof_C 	C 	0.8329	0.25	0.6671	0.459
Mof_C 	C 	0.85964	0.25	0.64036	-0.25
Mof_C 	C 	0.9109	0.25	0.5891	0.203
Mof_C 	C 	0.9361	0.25	0.5639	-0.233
Mof_C 	C 	0.1671	0.75	0.6671	0.459
Mof_C 	C 	0.14036	0.75	0.64036	-0.251
Mof_C 	C 	0.0891	0.75	0.5891	0.202
Mof_C 	C 	0.0639	0.75	0.5639	-0.233
Mof_C 	C 	0.8329	0.75	0.3329	0.459
Mof_C 	C 	0.85964	0.75	0.35964	-0.25
Mof_C 	C 	0.9109	0.75	0.4109	0.203
Mof_C 	C 	0.9361	0.75	0.4361	-0.232
Mof_C 	C 	0.1671	0.3329	0.75	0.459
Mof_C 	C 	0.14036	0.35964	0.75	-0.251
Mof_C 	C 	0.0891	0.4109	0.75	0.202
Mof_C 	C 	0.0639	0.4361	0.75	-0.233
Mof_C 	C 	0.8329	0.6671	0.75	0.459
Mof_C 	C 	0.85964	0.64036	0.75	-0.25
Mof_C 	C 	0.9109	0.5891	0.75	0.203
Mof_C 	C 	0.9361	0.5639	0.75	-0.232
Mof_C 	C 	0.1671	0.6671	0.25	0.459
Mof_C 	C 	0.14036	0.64036	0.25	-0.251
Mof_C 	C 	0.0891	0.5891	0.25	0.202
Mof_C 	C 	0.0639	0.5639	0.25	-0.233
Mof_C 	C 	0.8329	0.3329	0.25	0.459
Mof_C 	C 	0.85964	0.35964	0.25	-0.251
Mof_C 	C 	0.9109	0.4109	0.25	0.203
Mof_C 	C 	0.9361	0.4361	0.25	-0.233
Mof_C 	C 	0.3329	0.25	0.8329	0.459
Mof_C 	C 	0.35964	0.25	0.85964	-0.251
Mof_C 	C 	0.4109	0.25	0.9109	0.203
Mof_C 	C 	0.4361	0.25	0.9361	-0.233
Mof_C 	C 	0.6671	0.25	0.1671	0.459
Mof_C 	C 	0.64036	0.25	0.14036	-0.251
Mof_C 	C 	0.5891	0.25	0.0891	0.202
Mof_C 	C 	0.5639	0.25	0.0639	-0.233
Mof_C 	C 	0.6671	0.75	0.8329	0.459
Mof_C 	C 	0.64036	0.75	0.85964	-0.25
Mof_C 	C 	0.5891	0.75	0.9109	0.203
Mof_C 	C 	0.5639	0.75	0.9361	-0.232
Mof_C 	C 	0.3329	0.75	0.1671	0.459
Mof_C 	C 	0.35964	0.75	0.14036	-0.251
Mof_C 	C 	0.4109	0.75	0.0891	0.202
Mof_C 	C 	0.4361	0.75	0.0639	-0.233
Mof_C 	C 	0.25	0.1671	0.6671	0.459
Mof_C 	C 	0.25	0.14036	0.64036	-0.251
Mof_C 	C 	0.25	0.0891	0.5891	0.202
Mof_C 	C 	0.25	0.0639	0.5639	-0.233
Mof_C 	C 	0.25	0.8329	0.3329	0.459
Mof_C 	C 	0.25	0.85964	0.35964	-0.251
Mof_C 	C 	0.25	0.9109	0.4109	0.203
Mof_C 	C 	0.25	0.9361	0.4361	-0.233
Mof_C 	C 	0.75	0.1671	0.3329	0.459
Mof_C 	C 	0.75	0.14036	0.35964	-0.251
Mof_C 	C 	0.75	0.0891	0.4109	0.202
Mof_C 	C 	0.75	0.0639	0.4361	-0.233
Mof_C 	C 	0.75	0.8329	0.6671	0.459
Mof_C 	C 	0.75	0.85964	0.64036	-0.25
Mof_C 	C 	0.75	0.9109	0.5891	0.203
Mof_C 	C 	0.75	0.9361	0.5639	-0.232
Mof_C 	C 	0.6671	0.8329	0.75	0.459
Mof_C 	C 	0.64036	0.85964	0.75	-0.25
Mof_C 	C 	0.5891	0.9109	0.75	0.203
Mof_C 	C 	0.5639	0.9361	0.75	-0.232
Mof_C 	C 	0.1671	0.3329	0.25	0.459
Mof_C 	C 	0.14036	0.35964	0.25	-0.251
Mof_C 	C 	0.0891	0.4109	0.25	0.202
Mof_C 	C 	0.0639	0.4361	0.25	-0.233
Mof_C 	C 	0.3329	0.1671	0.75	0.459
Mof_C 	C 	0.35964	0.14036	0.75	-0.251
Mof_C 	C 	0.4109	0.0891	0.75	0.202
Mof_C 	C 	0.4361	0.0639	0.75	-0.233
Mof_C 	C 	0.3329	0.8329	0.25	0.459
Mof_C 	C 	0.35964	0.85964	0.25	-0.251
Mof_C 	C 	0.4109	0.9109	0.25	0.203
Mof_C 	C 	0.4361	0.9361	0.25	-0.233
Mof_C 	C 	0.6671	0.1671	0.25	0.459
Mof_C 	C 	0.64036	0.14036	0.25	-0.251
Mof_C 	C 	0.5891	0.0891	0.25	0.202
Mof_C 	C 	0.5639	0.0639	0.25	-0.233
Mof_C 	C 	0.75	0.6671	0.8329	0.459
Mof_C 	C 	0.75	0.64036	0.85964	-0.25
Mof_C 	C 	0.75	0.5891	0.9109	0.203
Mof_C 	C 	0.75	0.5639	0.9361	-0.232
Mof_C 	C 	0.25	0.1671	0.3329	0.459
Mof_C 	C 	0.25	0.14036	0.35964	-0.251
Mof_C 	C 	0.25	0.0891	0.4109	0.202
Mof_C 	C 	0.25	0.0639	0.4361	-0.233
Mof_C 	C 	0.75	0.3329	0.1671	0.459
Mof_C 	C 	0.75	0.35964	0.14036	-0.251
Mof_C 	C 	0.75	0.4109	0.0891	0.202
Mof_C 	C 	0.75	0.4361	0.0639	-0.233
Mof_C 	C 	0.25	0.3329	0.8329	0.459
Mof_C 	C 	0.25	0.35964	0.85964	-0.251
Mof_C 	C 	0.25	0.4109	0.9109	0.203
Mof_C 	C 	0.25	0.4361	0.9361	-0.233
Mof_C 	C 	0.25	0.6671	0.1671	0.459
Mof_C 	C 	0.25	0.64036	0.14036	-0.251
Mof_C 	C 	0.25	0.5891	0.0891	0.202
Mof_C 	C 	0.25	0.5639	0.0639	-0.233
Mof_C 	C 	0.8329	0.75	0.6671	0.459
Mof_C 	C 	0.85964	0.75	0.64036	-0.25
Mof_C 	C 	0.9109	0.75	0.5891	0.203
Mof_C 	C 	0.9361	0.75	0.5639	-0.232
Mof_C 	C 	0.3329	0.25	0.1671	0.459
Mof_C 	C 	0.35964	0.25	0.14036	-0.251
Mof_C 	C 	0.4109	0.25	0.0891	0.202
Mof_C 	C 	0.4361	0.25	0.0639	-0.233
Mof_C 	C 	0.1671	0.75	0.3329	0.459
Mof_C 	C 	0.14036	0.75	0.35964	-0.251
Mof_C 	C 	0.0891	0.75	0.4109	0.202
Mof_C 	C 	0.0639	0.75	0.4361	-0.233
Mof_C 	C 	0.8329	0.25	0.3329	0.459
Mof_C 	C 	0.85964	0.25	0.35964	-0.251
Mof_C 	C 	0.9109	0.25	0.4109	0.203
Mof_C 	C 	0.9361	0.25	0.4361	-0.233
Mof_C 	C 	0.1671	0.25	0.6671	0.459
Mof_C 	C 	0.14036	0.25	0.64036	-0.251
Mof_C 	C 	0.0891	0.25	0.5891	0.202
Mof_C 	C 	0.0639	0.25	0.5639	-0.233
Mof_C 	C 	0.8329	0.6671	0.25	0.459
Mof_C 	C 	0.85964	0.64036	0.25	-0.25
Mof_C 	C 	0.9109	0.5891	0.25	0.203
Mof_C 	C 	0.9361	0.5639	0.25	-0.233
Mof_C 	C 	0.8329	0.3329	0.75	0.459
Mof_C 	C 	0.85964	0.35964	0.75	-0.25
Mof_C 	C 	0.9109	0.4109	0.75	0.203
Mof_C 	C 	0.9361	0.4361	0.75	-0.232
Mof_C 	C 	0.1671	0.6671	0.75	0.459
Mof_C 	C 	0.14036	0.64036	0.75	-0.251
Mof_C 	C 	0.0891	0.5891	0.75	0.202
Mof_C 	C 	0.0639	0.5639	0.75	-0.233
Mof_C 	C 	0.6671	0.75	0.1671	0.459
Mof_C 	C 	0.64036	0.75	0.14036	-0.251
Mof_C 	C 	0.5891	0.75	0.0891	0.202
Mof_C 	C 	0.5639	0.75	0.0639	-0.233
Mof_C 	C 	0.3329	0.75	0.8329	0.459
Mof_C 	C 	0.35964	0.75	0.85964	-0.25
Mof_C 	C 	0.4109	0.75	0.9109	0.203
Mof_C 	C 	0.4361	0.75	0.9361	-0.232
Mof_C 	C 	0.6671	0.25	0.8329	0.459
Mof_C 	C 	0.64036	0.25	0.85964	-0.25
Mof_C 	C 	0.5891	0.25	0.9109	0.203
Mof_C 	C 	0.5639	0.25	0.9361	-0.233
Mof_C 	C 	0.75	0.8329	0.3329	0.459
Mof_C 	C 	0.75	0.85964	0.35964	-0.25
Mof_C 	C 	0.75	0.9109	0.4109	0.203
Mof_C 	C 	0.75	0.9361	0.4361	-0.232
Mof_C 	C 	0.75	0.1671	0.6671	0.459
Mof_C 	C 	0.75	0.14036	0.64036	-0.251
Mof_C 	C 	0.75	0.0891	0.5891	0.202
Mof_C 	C 	0.75	0.0639	0.5639	-0.233
Mof_C 	C 	0.25	0.8329	0.6671	0.459
Mof_C 	C 	0.25	0.85964	0.64036	-0.25
Mof_C 	C 	0.25	0.9109	0.5891	0.203
Mof_C 	C 	0.25	0.9361	0.5639	-0.233
Mof_N 	N 	0.5	0.0499	0.2426	-0.514
Mof_N 	N 	0.5	0.0498	0.2569	-0.13
Mof_N 	N 	-4.31267e-33	0.5499	0.7426	-0.515
Mof_N 	N 	9.93489e-33	0.5498	0.7569	-0.132
Mof_N 	N 	0.5	0.9501	0.2426	-0.509
Mof_N 	N 	0.5	0.9502	0.2569	-0.132
Mof_N 	N 	-4.31267e-33	0.4501	0.7426	-0.515
Mof_N 	N 	2.83792e-33	0.4502	0.7569	-0.132
Mof_N 	N 	0.5	0.0499	0.7574	-0.511
Mof_N 	N 	0.5	0.0498	0.7431	-0.133
Mof_N 	N 	2.73934e-33	0.5499	0.2574	-0.513
Mof_N 	N 	-4.41125e-33	0.5498	0.2431	-0.135
Mof_N 	N 	0.5	0.9501	0.7574	-0.506
Mof_N 	N 	0.5	0.9502	0.7431	-0.135
Mof_N 	N 	2.73934e-33	0.4501	0.2574	-0.513
Mof_N 	N 	2.68572e-33	0.4502	0.2431	-0.135
Mof_N 	N 	0.2426	0.5	0.0499	-0.514
Mof_N 	N 	0.2569	0.5	0.0498	-0.13
Mof_N 	N 	0.7426	0	0.5499	-0.515
Mof_N 	N 	0.7569	-7.09697e-33	0.5498	-0.132
Mof_N 	N 	0.2426	0.5	0.9501	-0.509
Mof_N 	N 	0.2569	0.5	0.9502	-0.132
Mof_N 	N 	0.7426	0	0.4501	-0.515
Mof_N 	N 	0.7569	-3.54849e-33	0.4502	-0.132
Mof_N 	N 	0.7574	0.5	0.0499	-0.511
Mof_N 	N 	0.7431	0.5	0.0498	-0.133
Mof_N 	N 	0.2574	0	0.5499	-0.513
Mof_N 	N 	0.2431	-7.09697e-33	0.5498	-0.135
Mof_N 	N 	0.7574	0.5	0.9501	-0.506
Mof_N 	N 	0.7431	0.5	0.9502	-0.135
Mof_N 	N 	0.2574	0	0.4501	-0.513
Mof_N 	N 	0.2431	-3.54849e-33	0.4502	-0.135
Mof_N 	N 	0.0499	0.2426	0.5	-0.514
Mof_N 	N 	0.0498	0.2569	0.5	-0.13
Mof_N 	N 	0.5499	0.7426	-0	-0.515
Mof_N 	N 	0.5498	0.7569	-0	-0.132
Mof_N 	N 	0.9501	0.2426	0.5	-0.509
Mof_N 	N 	0.9502	0.2569	0.5	-0.132
Mof_N 	N 	0.4501	0.7426	-0	-0.515
Mof_N 	N 	0.4502	0.7569	-0	-0.132
Mof_N 	N 	0.0499	0.7574	0.5	-0.511
Mof_N 	N 	0.0498	0.7431	0.5	-0.133
Mof_N 	N 	0.5499	0.2574	-0	-0.513
Mof_N 	N 	0.5498	0.2431	-0	-0.135
Mof_N 	N 	0.9501	0.7574	0.5	-0.506
Mof_N 	N 	0.9502	0.7431	0.5	-0.135
Mof_N 	N 	0.4501	0.2574	-0	-0.513
Mof_N 	N 	0.4502	0.2431	-0	-0.135
Mof_N 	N 	0.0499	0.5	0.7574	-0.511
Mof_N 	N 	0.0498	0.5	0.7431	-0.133
Mof_N 	N 	0.5499	-1.77424e-33	0.2574	-0.513
Mof_N 	N 	0.5498	0	0.2431	-0.135
Mof_N 	N 	0.9501	0.5	0.7574	-0.506
Mof_N 	N 	0.9502	0.5	0.7431	-0.135
Mof_N 	N 	0.4501	-1.77424e-33	0.2574	-0.513
Mof_N 	N 	0.4502	0	0.2431	-0.135
Mof_N 	N 	0.0499	0.5	0.2426	-0.514
Mof_N 	N 	0.0498	0.5	0.2569	-0.13
Mof_N 	N 	0.5499	0	0.7426	-0.515
Mof_N 	N 	0.5498	0	0.7569	-0.132
Mof_N 	N 	0.9501	0.5	0.2426	-0.509
Mof_N 	N 	0.9502	0.5	0.2569	-0.132
Mof_N 	N 	0.4501	0	0.7426	-0.515
Mof_N 	N 	0.4502	0	0.7569	-0.132
Mof_N 	N 	0.5	0.2426	0.9501	-0.509
Mof_N 	N 	0.5	0.2569	0.9502	-0.132
Mof_N 	N 	-5.40937e-33	0.7426	0.4501	-0.515
Mof_N 	N 	8.78495e-33	0.7569	0.4502	-0.132
Mof_N 	N 	0.5	0.2426	0.0499	-0.514
Mof_N 	N 	0.5	0.2569	0.0498	-0.13
Mof_N 	N 	-5.03518e-33	0.7426	0.5499	-0.515
Mof_N 	N 	9.15839e-33	0.7569	0.5498	-0.132
Mof_N 	N 	0.5	0.7574	0.9501	-0.506
Mof_N 	N 	0.5	0.7431	0.9502	-0.135
Mof_N 	N 	1.6876e-33	0.2574	0.4501	-0.513
Mof_N 	N 	1.68798e-33	0.2431	0.4502	-0.135
Mof_N 	N 	0.5	0.7574	0.0499	-0.511
Mof_N 	N 	0.5	0.7431	0.0498	-0.133
Mof_N 	N 	2.06179e-33	0.2574	0.5499	-0.513
Mof_N 	N 	-5.03555e-33	0.2431	0.5498	-0.135
Mof_N 	N 	0.2426	0.0499	0.5	-0.514
Mof_N 	N 	0.2569	0.0498	0.5	-0.13
Mof_N 	N 	0.7426	0.5499	-0	-0.515
Mof_N 	N 	0.7569	0.5498	-0	-0.132
Mof_N 	N 	0.2426	0.9501	0.5	-0.509
Mof_N 	N 	0.2569	0.9502	0.5	-0.132
Mof_N 	N 	0.7426	0.4501	-0	-0.515
Mof_N 	N 	0.7569	0.4502	-0	-0.132
Mof_N 	N 	0.7574	0.0499	0.5	-0.511
Mof_N 	N 	0.7431	0.0498	0.5	-0.133
Mof_N 	N 	0.2574	0.5499	-0	-0.513
Mof_N 	N 	0.2431	0.5498	-0	-0.135
Mof_N 	N 	0.7574	0.9501	0.5	-0.506
Mof_N 	N 	0.7431	0.9502	0.5	-0.135
Mof_N 	N 	0.2574	0.4501	-0	-0.513
Mof_N 	N 	0.2431	0.4502	-0	-0.135
Mof_O 	O 	0.21653	0.21653	0.21653	-1.53
Mof_O 	O 	0.71653	0.71653	0.71653	-1.529
Mof_O 	O 	0.78347	0.78347	0.21653	-1.528
Mof_O 	O 	0.28347	0.28347	0.71653	-1.528
Mof_O 	O 	0.78347	0.21653	0.78347	-1.528
Mof_O 	O 	0.28347	0.71653	0.28347	-1.528
Mof_O 	O 	0.21653	0.78347	0.78347	-1.528
Mof_O 	O 	0.71653	0.28347	0.28347	-1.528
Mof_O 	O 	0.21653	0.21653	0.78347	-1.529
Mof_O 	O 	0.71653	0.71653	0.28347	-1.529
Mof_O 	O 	0.78347	0.78347	0.78347	-1.527
Mof_O 	O 	0.28347	0.28347	0.28347	-1.528
Mof_O 	O 	0.21653	0.78347	0.21653	-1.529
Mof_O 	O 	0.71653	0.28347	0.71653	-1.529
Mof_O 	O 	0.78347	0.21653	0.21653	-1.529
Mof_O 	O 	0.28347	0.71653	0.71653	-1.529
_end
