data_functionalizedCrystal
_audit_creation_method	'EQeq! by Chris Wilmer'
_symmetry_space_group_name_H-M	'P1'
_symmetry_Int_Tables_number	1
_symmetry_cell_setting	triclinic
loop_
_symmetry_equiv_pos_as_xyz
  x,y,z
_cell_length_a	16.304
_cell_length_b	27.649
_cell_length_c	16.4078
_cell_angle_alpha	90
_cell_angle_beta	117.32
_cell_angle_gamma	90
loop_
_atom_site_label
_atom_site_type_symbol
_atom_site_fract_x
_atom_site_fract_y
_atom_site_fract_z
_atom_site_charge
Mof_Zn	Zn	0.05511	0.52822	0.81119	1.223
Mof_O 	O 	0.9323	0.6157	0.7557	-0.681
Mof_O 	O 	0.9275	0.5361	0.7351	-0.547
Mof_O 	O 	0.1084	0.5472	0.9373	-0.545
Mof_O 	O 	0.0989	0.6271	0.9381	-0.618
Mof_O 	O 	0.1346	0.5301	0.7537	-0.529
Mof_O 	O 	0.1268	0.6076	0.7552	-0.523
Mof_N 	N 	0.0613	0.4549	0.8313	-0.249
Mof_C 	C 	0.2304	0.5336	0.6508	0.172
Mof_H 	H 	0.2162	0.5026	0.6658	-0.02
Mof_C 	C 	0.2976	0.582	0.5738	0.246
Mof_C 	C 	0.4443	0.5828	0.5622	0.31
Mof_C 	C 	0.2999	0.5875	0.4221	0.325
Mof_C 	C 	0.4438	0.5813	0.4137	0.314
Mof_C 	C 	0.4977	0.5798	0.6662	-0.651
Mof_H 	H 	0.5113	0.6125	0.692	0.21
Mof_H 	H 	0.5557	0.5623	0.6836	0.208
Mof_H 	H 	0.4606	0.5626	0.69	0.21
Mof_C 	C 	0.3481	0.584	0.5181	-0.313
Mof_C 	C 	0.2703	0.5453	0.2195	-0.246
Mof_H 	H 	0.2905	0.5155	0.2513	0.107
Mof_C 	C 	0.0722	0.3021	0.8629	-0.018
Mof_C 	C 	0.4926	0.5824	0.5093	-0.302
Mof_C 	C 	0.6432	0.5404	0.5654	-0.26
Mof_H 	H 	0.6109	0.5117	0.5363	0.114
Mof_C 	C 	0.4954	0.5773	0.3563	-0.651
Mof_H 	H 	0.5586	0.5892	0.392	0.214
Mof_H 	H 	0.4637	0.5968	0.3005	0.213
Mof_H 	H 	0.497	0.5434	0.3396	0.206
Mof_C 	C 	0.7397	0.6218	0.6536	0.144
Mof_H 	H 	0.772	0.6504	0.6834	-0.021
Mof_C 	C 	0.5941	0.5813	0.5571	0.221
Mof_C 	C 	0.1956	0.5927	0.3756	-0.679
Mof_H 	H 	0.1716	0.5818	0.4174	0.227
Mof_H 	H 	0.1688	0.5729	0.3198	0.23
Mof_H 	H 	0.179	0.6267	0.3595	0.222
Mof_C 	C 	0.7873	0.5796	0.6622	-0.24
Mof_C 	C 	0.2942	0.5877	0.2687	0.226
Mof_C 	C 	0.3482	0.5848	0.3703	-0.308
Mof_C 	C 	0.2042	0.5746	0.68	-0.255
Mof_C 	C 	0.8901	0.577	0.7235	0.492
Mof_C 	C 	0.2778	0.5378	0.5993	-0.277
Mof_H 	H 	0.2972	0.5092	0.581	0.116
Mof_C 	C 	0.1872	0.5891	0.0785	-0.236
Mof_C 	C 	0.069	0.3533	0.8541	0.068
Mof_C 	C 	0.6432	0.6227	0.6009	-0.245
Mof_H 	H 	0.6109	0.6522	0.5949	0.109
Mof_C 	C 	0.2699	0.6215	0.6014	-0.283
Mof_H 	H 	0.2833	0.6525	0.5856	0.122
Mof_C 	C 	0.2166	0.5447	0.123	0.138
Mof_H 	H 	0.2012	0.5152	0.0897	-0.013
Mof_C 	C 	0.2656	0.6302	0.2211	-0.264
Mof_H 	H 	0.2832	0.6599	0.2536	0.113
Mof_C 	C 	0.1126	0.4268	0.8046	0.06
Mof_H 	H 	0.1473	0.442	0.7785	0.006
Mof_C 	C 	0.9966	0.2751	0.8574	-0.047
Mof_H 	H 	0.9439	0.2918	0.8535	0.043
Mof_C 	C 	0.212	0.6312	0.1273	0.161
Mof_H 	H 	0.1923	0.6613	0.0965	-0.016
Mof_C 	C 	0.1517	0.5706	0.7339	0.499
Mof_C 	C 	0.7403	0.5387	0.6155	0.147
Mof_H 	H 	0.7729	0.5099	0.6172	-0.014
Mof_C 	C 	0.0154	0.4311	0.8712	0.07
Mof_H 	H 	0.9792	0.4497	0.8915	-0.011
Mof_C 	C 	0.2216	0.6179	0.6531	0.178
Mof_H 	H 	0.2006	0.6466	0.6696	-0.01
Mof_C 	C 	0.1277	0.5881	0.9761	0.492
Mof_C 	C 	0.0187	0.3822	0.8835	-0.14
Mof_H 	H 	0.986	0.3679	0.9126	0.063
Mof_C 	C 	0.1485	0.2753	0.8725	-0.047
Mof_H 	H 	0.2022	0.292	0.8792	0.039
Mof_C 	C 	0.1169	0.3773	0.8135	-0.132
Mof_H 	H 	0.1527	0.3592	0.792	0.071
Mof_Zn	Zn	0.97827	0.67473	0.84629	1.14
Mof_O 	O 	0.0295	0.7274	0.9358	-0.276
Mof_O 	O 	0.0626	0.6906	0.7877	-0.82
Mof_O 	O 	0.8763	0.7232	0.7571	-0.264
Mof_Zn	Zn	0.0548	0.64964	0.80343	1.276
Mof_Zn	Zn	0.05511	0.97178	0.81119	1.223
Mof_O 	O 	0.9323	0.8843	0.7557	-0.68
Mof_O 	O 	0.9275	0.9639	0.7351	-0.545
Mof_O 	O 	0.1084	0.9528	0.9373	-0.544
Mof_O 	O 	0.0989	0.8729	0.9381	-0.617
Mof_O 	O 	0.1346	0.9699	0.7537	-0.529
Mof_O 	O 	0.1268	0.8924	0.7552	-0.522
Mof_N 	N 	0.0613	0.0451	0.8313	-0.248
Mof_C 	C 	0.2304	0.9664	0.6508	0.173
Mof_H 	H 	0.2162	0.9974	0.6658	-0.02
Mof_C 	C 	0.2976	0.918	0.5738	0.246
Mof_C 	C 	0.4443	0.9172	0.5622	0.31
Mof_C 	C 	0.2999	0.9125	0.4221	0.325
Mof_C 	C 	0.4438	0.9187	0.4137	0.314
Mof_C 	C 	0.4977	0.9202	0.6662	-0.651
Mof_H 	H 	0.5113	0.8875	0.692	0.21
Mof_H 	H 	0.5557	0.9377	0.6836	0.208
Mof_H 	H 	0.4606	0.9374	0.69	0.21
Mof_C 	C 	0.3481	0.916	0.5181	-0.313
Mof_C 	C 	0.2703	0.9547	0.2195	-0.245
Mof_H 	H 	0.2905	0.9845	0.2513	0.107
Mof_C 	C 	0.0722	0.1979	0.8629	-0.017
Mof_C 	C 	0.4926	0.9176	0.5093	-0.302
Mof_C 	C 	0.6432	0.9596	0.5654	-0.26
Mof_H 	H 	0.6109	0.9883	0.5363	0.114
Mof_C 	C 	0.4954	0.9227	0.3563	-0.651
Mof_H 	H 	0.5586	0.9108	0.392	0.214
Mof_H 	H 	0.4637	0.9032	0.3005	0.213
Mof_H 	H 	0.497	0.9566	0.3396	0.206
Mof_C 	C 	0.7397	0.8782	0.6536	0.144
Mof_H 	H 	0.772	0.8496	0.6834	-0.021
Mof_C 	C 	0.5941	0.9187	0.5571	0.221
Mof_C 	C 	0.1956	0.9073	0.3756	-0.679
Mof_H 	H 	0.1716	0.9182	0.4174	0.227
Mof_H 	H 	0.1688	0.9271	0.3198	0.229
Mof_H 	H 	0.179	0.8733	0.3595	0.222
Mof_C 	C 	0.7873	0.9204	0.6622	-0.24
Mof_C 	C 	0.2942	0.9123	0.2687	0.226
Mof_C 	C 	0.3482	0.9152	0.3703	-0.308
Mof_C 	C 	0.2042	0.9254	0.68	-0.255
Mof_C 	C 	0.8901	0.923	0.7235	0.492
Mof_C 	C 	0.2778	0.9622	0.5993	-0.277
Mof_H 	H 	0.2972	0.9908	0.581	0.116
Mof_C 	C 	0.1872	0.9109	0.0785	-0.236
Mof_C 	C 	0.069	0.1467	0.8541	0.068
Mof_C 	C 	0.6432	0.8773	0.6009	-0.245
Mof_H 	H 	0.6109	0.8478	0.5949	0.109
Mof_C 	C 	0.2699	0.8785	0.6014	-0.283
Mof_H 	H 	0.2833	0.8475	0.5856	0.122
Mof_C 	C 	0.2166	0.9553	0.123	0.138
Mof_H 	H 	0.2012	0.9848	0.0897	-0.013
Mof_C 	C 	0.2656	0.8698	0.2211	-0.264
Mof_H 	H 	0.2832	0.8401	0.2536	0.113
Mof_C 	C 	0.1126	0.0732	0.8046	0.06
Mof_H 	H 	0.1473	0.058	0.7785	0.007
Mof_C 	C 	0.9966	0.2249	0.8574	-0.047
Mof_H 	H 	0.9439	0.2082	0.8535	0.043
Mof_C 	C 	0.212	0.8688	0.1273	0.16
Mof_H 	H 	0.1923	0.8387	0.0965	-0.016
Mof_C 	C 	0.1517	0.9294	0.7339	0.499
Mof_C 	C 	0.7403	0.9613	0.6155	0.147
Mof_H 	H 	0.7729	0.9901	0.6172	-0.014
Mof_C 	C 	0.0154	0.0689	0.8712	0.071
Mof_H 	H 	0.9792	0.0503	0.8915	-0.012
Mof_C 	C 	0.2216	0.8821	0.6531	0.178
Mof_H 	H 	0.2006	0.8534	0.6696	-0.01
Mof_C 	C 	0.1277	0.9119	0.9761	0.491
Mof_C 	C 	0.0187	0.1178	0.8835	-0.14
Mof_H 	H 	0.986	0.1321	0.9126	0.062
Mof_C 	C 	0.1485	0.2247	0.8725	-0.047
Mof_H 	H 	0.2022	0.208	0.8792	0.039
Mof_C 	C 	0.1169	0.1227	0.8135	-0.132
Mof_H 	H 	0.1527	0.1408	0.792	0.071
Mof_Zn	Zn	0.97827	0.82527	0.84629	1.14
Mof_O 	O 	0.0295	0.7726	0.9358	-0.276
Mof_O 	O 	0.0626	0.8094	0.7877	-0.82
Mof_O 	O 	0.8763	0.7768	0.7571	-0.264
Mof_Zn	Zn	0.0548	0.85036	0.80343	1.276
Mof_Zn	Zn	0.94489	0.02822	0.18881	1.223
Mof_O 	O 	0.0677	0.1157	0.2443	-0.68
Mof_O 	O 	0.0725	0.0361	0.2649	-0.545
Mof_O 	O 	0.8916	0.0472	0.0627	-0.544
Mof_O 	O 	0.9011	0.1271	0.0619	-0.617
Mof_O 	O 	0.8654	0.0301	0.2463	-0.529
Mof_O 	O 	0.8732	0.1076	0.2448	-0.522
Mof_N 	N 	0.9387	0.9549	0.1687	-0.248
Mof_C 	C 	0.7696	0.0336	0.3492	0.173
Mof_H 	H 	0.7838	0.0026	0.3342	-0.02
Mof_C 	C 	0.7024	0.082	0.4262	0.246
Mof_C 	C 	0.5557	0.0828	0.4378	0.31
Mof_C 	C 	0.7001	0.0875	0.5779	0.325
Mof_C 	C 	0.5562	0.0813	0.5863	0.314
Mof_C 	C 	0.5023	0.0798	0.3338	-0.651
Mof_H 	H 	0.4887	0.1125	0.308	0.21
Mof_H 	H 	0.4443	0.0623	0.3164	0.208
Mof_H 	H 	0.5394	0.0626	0.31	0.21
Mof_C 	C 	0.6519	0.084	0.4819	-0.313
Mof_C 	C 	0.7297	0.0453	0.7805	-0.245
Mof_H 	H 	0.7095	0.0155	0.7487	0.107
Mof_C 	C 	0.9278	0.8021	0.1371	-0.017
Mof_C 	C 	0.5074	0.0824	0.4907	-0.302
Mof_C 	C 	0.3568	0.0404	0.4346	-0.26
Mof_H 	H 	0.3891	0.0117	0.4637	0.114
Mof_C 	C 	0.5046	0.0773	0.6437	-0.651
Mof_H 	H 	0.4414	0.0892	0.608	0.214
Mof_H 	H 	0.5363	0.0968	0.6995	0.213
Mof_H 	H 	0.503	0.0434	0.6604	0.206
Mof_C 	C 	0.2603	0.1218	0.3464	0.144
Mof_H 	H 	0.228	0.1504	0.3166	-0.021
Mof_C 	C 	0.4059	0.0813	0.4429	0.221
Mof_C 	C 	0.8044	0.0927	0.6244	-0.679
Mof_H 	H 	0.8284	0.0818	0.5826	0.227
Mof_H 	H 	0.8312	0.0729	0.6802	0.229
Mof_H 	H 	0.821	0.1267	0.6405	0.222
Mof_C 	C 	0.2127	0.0796	0.3378	-0.24
Mof_C 	C 	0.7058	0.0877	0.7313	0.226
Mof_C 	C 	0.6518	0.0848	0.6297	-0.308
Mof_C 	C 	0.7958	0.0746	0.32	-0.255
Mof_C 	C 	0.1099	0.077	0.2765	0.492
Mof_C 	C 	0.7222	0.0378	0.4007	-0.277
Mof_H 	H 	0.7028	0.0092	0.419	0.116
Mof_C 	C 	0.8128	0.0891	0.9215	-0.236
Mof_C 	C 	0.931	0.8533	0.1459	0.068
Mof_C 	C 	0.3568	0.1227	0.3991	-0.245
Mof_H 	H 	0.3891	0.1522	0.4051	0.109
Mof_C 	C 	0.7301	0.1215	0.3986	-0.283
Mof_H 	H 	0.7167	0.1525	0.4144	0.122
Mof_C 	C 	0.7834	0.0447	0.877	0.138
Mof_H 	H 	0.7988	0.0152	0.9103	-0.013
Mof_C 	C 	0.7344	0.1302	0.7789	-0.264
Mof_H 	H 	0.7168	0.1599	0.7464	0.113
Mof_C 	C 	0.8874	0.9268	0.1954	0.06
Mof_H 	H 	0.8527	0.942	0.2215	0.007
Mof_C 	C 	0.0034	0.7751	0.1426	-0.047
Mof_H 	H 	0.0561	0.7918	0.1465	0.043
Mof_C 	C 	0.788	0.1312	0.8727	0.16
Mof_H 	H 	0.8077	0.1613	0.9035	-0.016
Mof_C 	C 	0.8483	0.0706	0.2661	0.499
Mof_C 	C 	0.2597	0.0387	0.3845	0.147
Mof_H 	H 	0.2271	0.0099	0.3828	-0.014
Mof_C 	C 	0.9846	0.9311	0.1288	0.071
Mof_H 	H 	0.0208	0.9497	0.1085	-0.012
Mof_C 	C 	0.7784	0.1179	0.3469	0.178
Mof_H 	H 	0.7994	0.1466	0.3304	-0.01
Mof_C 	C 	0.8723	0.0881	0.0239	0.491
Mof_C 	C 	0.9813	0.8822	0.1165	-0.14
Mof_H 	H 	0.014	0.8679	0.0874	0.062
Mof_C 	C 	0.8515	0.7753	0.1275	-0.047
Mof_H 	H 	0.7978	0.792	0.1208	0.039
Mof_C 	C 	0.8831	0.8773	0.1865	-0.132
Mof_H 	H 	0.8473	0.8592	0.208	0.071
Mof_Zn	Zn	0.02173	0.17473	0.15371	1.14
Mof_O 	O 	0.9705	0.2274	0.0642	-0.276
Mof_O 	O 	0.9374	0.1906	0.2123	-0.82
Mof_O 	O 	0.1237	0.2232	0.2429	-0.264
Mof_Zn	Zn	0.9452	0.14964	0.19657	1.276
Mof_Zn	Zn	0.94489	0.47178	0.18881	1.224
Mof_O 	O 	0.0677	0.3843	0.2443	-0.68
Mof_O 	O 	0.0725	0.4639	0.2649	-0.546
Mof_O 	O 	0.8916	0.4528	0.0627	-0.544
Mof_O 	O 	0.9011	0.3729	0.0619	-0.617
Mof_O 	O 	0.8654	0.4699	0.2463	-0.528
Mof_O 	O 	0.8732	0.3924	0.2448	-0.522
Mof_N 	N 	0.9387	0.5451	0.1687	-0.248
Mof_C 	C 	0.7696	0.4664	0.3492	0.173
Mof_H 	H 	0.7838	0.4974	0.3342	-0.019
Mof_C 	C 	0.7024	0.418	0.4262	0.246
Mof_C 	C 	0.5557	0.4172	0.4378	0.31
Mof_C 	C 	0.7001	0.4125	0.5779	0.325
Mof_C 	C 	0.5562	0.4187	0.5863	0.314
Mof_C 	C 	0.5023	0.4202	0.3338	-0.651
Mof_H 	H 	0.4887	0.3875	0.308	0.21
Mof_H 	H 	0.4443	0.4377	0.3164	0.208
Mof_H 	H 	0.5394	0.4374	0.31	0.21
Mof_C 	C 	0.6519	0.416	0.4819	-0.313
Mof_C 	C 	0.7297	0.4547	0.7805	-0.246
Mof_H 	H 	0.7095	0.4845	0.7487	0.107
Mof_C 	C 	0.9278	0.6979	0.1371	-0.018
Mof_C 	C 	0.5074	0.4176	0.4907	-0.302
Mof_C 	C 	0.3568	0.4596	0.4346	-0.26
Mof_H 	H 	0.3891	0.4883	0.4637	0.114
Mof_C 	C 	0.5046	0.4227	0.6437	-0.651
Mof_H 	H 	0.4414	0.4108	0.608	0.214
Mof_H 	H 	0.5363	0.4032	0.6995	0.213
Mof_H 	H 	0.503	0.4566	0.6604	0.206
Mof_C 	C 	0.2603	0.3782	0.3464	0.144
Mof_H 	H 	0.228	0.3496	0.3166	-0.021
Mof_C 	C 	0.4059	0.4187	0.4429	0.221
Mof_C 	C 	0.8044	0.4073	0.6244	-0.679
Mof_H 	H 	0.8284	0.4182	0.5826	0.227
Mof_H 	H 	0.8312	0.4271	0.6802	0.23
Mof_H 	H 	0.821	0.3733	0.6405	0.222
Mof_C 	C 	0.2127	0.4204	0.3378	-0.24
Mof_C 	C 	0.7058	0.4123	0.7313	0.226
Mof_C 	C 	0.6518	0.4152	0.6297	-0.308
Mof_C 	C 	0.7958	0.4254	0.32	-0.255
Mof_C 	C 	0.1099	0.423	0.2765	0.492
Mof_C 	C 	0.7222	0.4622	0.4007	-0.277
Mof_H 	H 	0.7028	0.4908	0.419	0.116
Mof_C 	C 	0.8128	0.4109	0.9215	-0.236
Mof_C 	C 	0.931	0.6467	0.1459	0.068
Mof_C 	C 	0.3568	0.3773	0.3991	-0.245
Mof_H 	H 	0.3891	0.3478	0.4051	0.109
Mof_C 	C 	0.7301	0.3785	0.3986	-0.283
Mof_H 	H 	0.7167	0.3475	0.4144	0.122
Mof_C 	C 	0.7834	0.4553	0.877	0.138
Mof_H 	H 	0.7988	0.4848	0.9103	-0.013
Mof_C 	C 	0.7344	0.3698	0.7789	-0.264
Mof_H 	H 	0.7168	0.3401	0.7464	0.113
Mof_C 	C 	0.8874	0.5732	0.1954	0.06
Mof_H 	H 	0.8527	0.558	0.2215	0.006
Mof_C 	C 	0.0034	0.7249	0.1426	-0.047
Mof_H 	H 	0.0561	0.7082	0.1465	0.043
Mof_C 	C 	0.788	0.3688	0.8727	0.161
Mof_H 	H 	0.8077	0.3387	0.9035	-0.016
Mof_C 	C 	0.8483	0.4294	0.2661	0.499
Mof_C 	C 	0.2597	0.4613	0.3845	0.147
Mof_H 	H 	0.2271	0.4901	0.3828	-0.014
Mof_C 	C 	0.9846	0.5689	0.1288	0.07
Mof_H 	H 	0.0208	0.5503	0.1085	-0.011
Mof_C 	C 	0.7784	0.3821	0.3469	0.178
Mof_H 	H 	0.7994	0.3534	0.3304	-0.01
Mof_C 	C 	0.8723	0.4119	0.0239	0.492
Mof_C 	C 	0.9813	0.6178	0.1165	-0.14
Mof_H 	H 	0.014	0.6321	0.0874	0.063
Mof_C 	C 	0.8515	0.7247	0.1275	-0.047
Mof_H 	H 	0.7978	0.708	0.1208	0.039
Mof_C 	C 	0.8831	0.6227	0.1865	-0.132
Mof_H 	H 	0.8473	0.6408	0.208	0.071
Mof_Zn	Zn	0.02173	0.32527	0.15371	1.14
Mof_O 	O 	0.9705	0.2726	0.0642	-0.276
Mof_O 	O 	0.9374	0.3094	0.2123	-0.82
Mof_O 	O 	0.1237	0.2768	0.2429	-0.264
Mof_Zn	Zn	0.9452	0.35036	0.19657	1.276
_end
