data_functionalizedCrystal
_audit_creation_method	'EQeq! by Chris Wilmer'
_symmetry_space_group_name_H-M	'P1'
_symmetry_Int_Tables_number	1
_symmetry_cell_setting	triclinic
loop_
_symmetry_equiv_pos_as_xyz
  x,y,z
_cell_length_a	14.589
_cell_length_b	15.285
_cell_length_c	22.758
_cell_angle_alpha	84.679
_cell_angle_beta	84.323
_cell_angle_gamma	86.396
loop_
_atom_site_label
_atom_site_type_symbol
_atom_site_fract_x
_atom_site_fract_y
_atom_site_fract_z
_atom_site_charge
Mof_C 	C 	0.0784	0.6815	0.1869	0.271
Mof_H 	H 	0.0949	0.7343	0.1991	-0.048
Mof_O 	O 	0.0986	0.75	0.6872	-0.59
Mof_O 	O 	0.1446	0.6237	0.7399	-0.644
Mof_C 	C 	0.0925	0.6708	0.7018	0.599
Mof_C 	C 	0.0271	0.6209	0.6789	-0.383
Mof_C 	C 	0.957	0.6672	0.648	0.299
Mof_H 	H 	0.958	0.7279	0.64	-0.067
Mof_C 	C 	0.0282	0.5311	0.6894	0.334
Mof_H 	H 	0.0739	0.5007	0.7101	-0.076
Mof_C 	C 	0.8879	0.623	0.6301	-0.387
Mof_H 	H 	0.8408	0.6531	0.6105	0.184
Mof_C 	C 	0.9605	0.4869	0.6688	-0.418
Mof_H 	H 	0.9635	0.4257	0.6733	0.189
Mof_O 	O 	0.8299	0.7049	0.2314	-0.646
Mof_O 	O 	0.9402	0.7951	0.2367	-0.509
Mof_C 	C 	0.9136	0.7204	0.2233	0.485
Mof_C 	C 	0.9865	0.6597	0.1949	-0.317
Mof_C 	C 	0.9609	0.5833	0.1764	0.284
Mof_H 	H 	0.8996	0.5687	0.1812	-0.076
Mof_C 	C 	0.0303	0.5266	0.1496	-0.406
Mof_H 	H 	0.0149	0.474	0.1366	0.181
Mof_O 	O 	0.9842	0.0934	0.2478	-0.503
Mof_O 	O 	0.8905	0.9991	0.2191	-0.639
Mof_C 	C 	0.9752	0.0333	0.2163	0.437
Mof_C 	C 	0.0496	0.9971	0.1742	-0.288
Mof_C 	C 	0.0324	0.9393	0.1324	0.27
Mof_H 	H 	0.9736	0.9196	0.1314	-0.052
Mof_C 	C 	0.1385	0.0238	0.1759	0.258
Mof_H 	H 	0.1505	0.0599	0.2046	-0.043
Mof_C 	C 	0.2077	0.998	0.1363	-0.389
Mof_H 	H 	0.2665	0.0183	0.1364	0.184
Mof_C 	C 	0.1024	0.9128	0.0937	-0.404
Mof_H 	H 	0.0917	0.8752	0.0655	0.174
Mof_O 	O 	0.6835	0.9801	0.2013	-0.587
Mof_O 	O 	0.6864	0.1012	0.2422	-0.622
Mof_C 	C 	0.6492	0.0594	0.2082	0.689
Mof_C 	C 	0.5713	0.0891	0.178	-0.577
Mof_C 	C 	0.5346	0.1768	0.188	0.491
Mof_H 	H 	0.5631	0.2108	0.2119	-0.136
Mof_O 	O 	0.6683	0.8004	0.2917	-0.69
Mof_O 	O 	0.5722	0.6972	0.3182	-0.519
Mof_C 	C 	0.5923	0.7756	0.3171	0.483
Mof_C 	C 	0.5231	0.8429	0.3429	-0.308
Mof_C 	C 	0.4399	0.8161	0.3718	0.25
Mof_H 	H 	0.4267	0.757	0.3776	-0.051
Mof_C 	C 	0.4595	0.2085	0.1629	-0.594
Mof_H 	H 	0.4321	0.2629	0.1717	0.257
Mof_O 	O 	0.7439	0.5485	0.2863	-0.635
Mof_O 	O 	0.6803	0.4336	0.3384	-0.544
Mof_C 	C 	0.7084	0.509	0.3362	0.468
Mof_Eu	Eu	0.17849	0.87216	0.71523	2.295
Mof_Eu	Eu	0.32717	0.33367	0.77222	2.251
Mof_Eu	Eu	0.20615	0.12089	0.75749	2.404
Mof_Eu	Eu	0.28959	0.59951	0.76387	2.61
Mof_C 	C 	0.2264	0.7594	0.8477	0.679
Mof_C 	C 	0.4302	0.753	0.6275	-0.273
Mof_C 	C 	0.2142	0.0766	0.6373	0.468
Mof_C 	C 	0.2421	0.0665	0.574	-0.336
Mof_C 	C 	0.2712	0.1722	0.9344	-0.347
Mof_C 	C 	0.1966	0.1064	0.528	0.276
Mof_H 	H 	0.1453	0.1438	0.5368	-0.063
Mof_C 	C 	0.1935	0.8868	0.9153	0.432
Mof_H 	H 	0.1605	0.9185	0.8866	-0.119
Mof_C 	C 	0.3365	0.7729	0.6591	0.498
Mof_C 	C 	0.3201	0.1846	0.0454	0.45
Mof_C 	C 	0.3894	0.1871	0.9997	-0.442
Mof_H 	H 	0.4506	0.1927	0.0063	0.186
Mof_C 	C 	0.3634	0.1808	0.9439	0.324
Mof_H 	H 	0.4081	0.1823	0.9118	-0.09
Mof_C 	C 	0.2229	0.0939	0.4694	-0.397
Mof_H 	H 	0.1884	0.1203	0.4398	0.184
Mof_C 	C 	0.2036	0.1694	0.9816	0.334
Mof_H 	H 	0.142	0.1634	0.9761	-0.08
Mof_C 	C 	0.6897	0.6506	0.4896	0.427
Mof_C 	C 	0.3002	0.0422	0.4555	0.4
Mof_C 	C 	0.7047	0.5564	0.389	-0.32
Mof_C 	C 	0.2015	0.9224	0.9659	-0.564
Mof_H 	H 	0.1739	0.9777	0.9722	0.235
Mof_C 	C 	0.6418	0.536	0.7505	0.229
Mof_H 	H 	0.6345	0.5657	0.7847	-0.042
Mof_C 	C 	0.5037	0.7155	0.6568	0.234
Mof_H 	H 	0.495	0.7015	0.6975	-0.054
Mof_C 	C 	0.4743	0.5217	0.7662	0.472
Mof_O 	O 	0.2364	0.5038	0.8447	-0.685
Mof_C 	C 	0.3173	0.0129	0.5599	0.272
Mof_H 	H 	0.348	0.9824	0.5901	-0.059
Mof_C 	C 	0.6461	0.5321	0.4396	0.277
Mof_H 	H 	0.6126	0.4822	0.4403	-0.056
Mof_C 	C 	0.751	0.6722	0.4436	-0.423
Mof_H 	H 	0.7893	0.7179	0.4457	0.199
Mof_C 	C 	0.7585	0.6272	0.3927	0.293
Mof_H 	H 	0.8	0.6449	0.3608	-0.08
Mof_C 	C 	0.393	0.969	0.3809	0.39
Mof_C 	C 	0.4719	0.9945	0.3513	-0.39
Mof_H 	H 	0.4822	0.0541	0.3437	0.18
Mof_C 	C 	0.2314	0.1756	0.036	-0.464
Mof_H 	H 	0.1873	0.1735	0.0685	0.206
Mof_C 	C 	0.447	0.7748	0.5661	0.208
Mof_H 	H 	0.4006	0.8043	0.5456	-0.032
Mof_C 	C 	0.2328	0.8041	0.9039	-0.436
Mof_C 	C 	0.6036	0.7166	0.5663	0.359
Mof_C 	C 	0.5782	0.4583	0.682	0.293
Mof_H 	H 	0.5282	0.4318	0.6702	-0.069
Mof_C 	C 	0.2856	0.7609	0.9458	0.36
Mof_H 	H 	0.3152	0.7067	0.9386	-0.087
Mof_C 	C 	0.2486	0.8788	0.0068	0.473
Mof_C 	C 	0.3498	0.0023	0.5004	-0.388
Mof_H 	H 	0.404	0.9689	0.4914	0.17
Mof_C 	C 	0.5664	0.5002	0.7311	-0.318
Mof_C 	C 	0.6367	0.58	0.4887	-0.411
Mof_H 	H 	0.5946	0.5645	0.5208	0.181
Mof_C 	C 	0.5895	0.6981	0.6274	-0.349
Mof_H 	H 	0.6378	0.6741	0.6485	0.167
Mof_C 	C 	0.4229	0.1606	0.124	0.539
Mof_C 	C 	0.295	0.7965	0.9977	-0.467
Mof_H 	H 	0.3307	0.7676	0.026	0.198
Mof_C 	C 	0.3775	0.8812	0.3916	-0.384
Mof_H 	H 	0.3227	0.8647	0.413	0.169
Mof_O 	O 	0.2365	0.0216	0.6763	-0.689
Mof_O 	O 	0.3167	0.7351	0.7101	-0.667
Mof_O 	O 	0.1652	0.1465	0.6518	-0.483
Mof_O 	O 	0.3002	0.1956	0.8278	-0.659
Mof_O 	O 	0.1722	0.134	0.8652	-0.48
Mof_O 	O 	0.2681	0.6929	0.8383	-0.687
Mof_O 	O 	0.2822	0.8297	0.6342	-0.542
Mof_O 	O 	0.17	0.8002	0.8136	-0.59
Mof_O 	O 	0.2954	0.3755	0.8675	-0.693
Mof_C 	C 	0.2474	0.1696	0.8747	0.479
Mof_O 	O 	0.3416	0.1952	0.1017	-0.411
Mof_O 	O 	0.6883	0.697	0.5379	-0.365
Mof_O 	O 	0.2644	0.9161	0.0589	-0.379
Mof_O 	O 	0.3255	0.0335	0.3975	-0.36
Mof_O 	O 	0.4128	0.4668	0.7625	-0.684
Mof_C 	C 	0.2621	0.4442	0.8829	0.772
Mof_C 	C 	0.2362	0.4607	0.9446	-0.664
Mof_O 	O 	0.4518	0.5934	0.7858	-0.537
Mof_C 	C 	0.5351	0.048	0.139	0.551
Mof_H 	H 	0.5623	0.9936	0.1301	-0.146
Mof_C 	C 	0.4605	0.079	0.1105	-0.619
Mof_H 	H 	0.4362	0.047	0.0835	0.254
Mof_C 	C 	0.6608	0.4524	0.6483	-0.407
Mof_H 	H 	0.6663	0.4233	0.6139	0.188
Mof_C 	C 	0.7344	0.4893	0.6653	0.376
Mof_C 	C 	0.5399	0.9311	0.3314	0.269
Mof_H 	H 	0.595	0.9485	0.3109	-0.077
Mof_C 	C 	0.1898	0.9414	0.0958	0.396
Mof_C 	C 	0.7298	0.5279	0.7187	-0.359
Mof_H 	H 	0.7821	0.5473	0.7328	0.17
Mof_C 	C 	0.187	0.5304	0.9631	0.614
Mof_H 	H 	0.1624	0.5707	0.9349	-0.174
Mof_O 	O 	0.8152	0.4845	0.6274	-0.34
Mof_C 	C 	0.8893	0.5297	0.6421	0.382
Mof_C 	C 	0.1994	0.4833	0.0627	0.622
Mof_C 	C 	0.2561	0.415	0.0439	-0.709
Mof_H 	H 	0.2842	0.3763	0.0716	0.298
Mof_C 	C 	0.5325	0.7532	0.5349	-0.34
Mof_H 	H 	0.5408	0.7634	0.4938	0.157
Mof_C 	C 	0.2718	0.4029	0.987	0.624
Mof_H 	H 	0.308	0.354	0.9755	-0.175
Mof_O 	O 	0.1889	0.492	0.1223	-0.427
Mof_C 	C 	0.1204	0.5499	0.143	0.429
Mof_C 	C 	0.1456	0.625	0.1609	-0.424
Mof_H 	H 	0.2071	0.6392	0.156	0.186
Mof_C 	C 	0.1703	0.5466	0.0218	-0.687
Mof_H 	H 	0.1403	0.5988	0.033	0.272
Mof_C 	C 	0.9216	0.3185	0.8131	0.27
Mof_H 	H 	0.9051	0.2657	0.8009	-0.049
Mof_O 	O 	0.9014	0.25	0.3128	-0.59
Mof_O 	O 	0.8554	0.3763	0.2601	-0.644
Mof_C 	C 	0.9075	0.3292	0.2982	0.599
Mof_C 	C 	0.9729	0.3791	0.3211	-0.383
Mof_C 	C 	0.043	0.3328	0.352	0.299
Mof_H 	H 	0.042	0.2721	0.36	-0.067
Mof_C 	C 	0.9718	0.4689	0.3106	0.334
Mof_H 	H 	0.9261	0.4993	0.2899	-0.076
Mof_C 	C 	0.1121	0.377	0.3699	-0.387
Mof_H 	H 	0.1592	0.3469	0.3895	0.184
Mof_C 	C 	0.0395	0.5131	0.3312	-0.418
Mof_H 	H 	0.0365	0.5743	0.3267	0.189
Mof_O 	O 	0.1701	0.2951	0.7686	-0.646
Mof_O 	O 	0.0598	0.2049	0.7633	-0.509
Mof_C 	C 	0.0864	0.2796	0.7767	0.485
Mof_C 	C 	0.0135	0.3403	0.8051	-0.317
Mof_C 	C 	0.0391	0.4167	0.8236	0.284
Mof_H 	H 	0.1004	0.4313	0.8188	-0.076
Mof_C 	C 	0.9697	0.4734	0.8504	-0.406
Mof_H 	H 	0.9851	0.526	0.8634	0.181
Mof_O 	O 	0.0158	0.9066	0.7522	-0.503
Mof_O 	O 	0.1095	0.0009	0.7809	-0.639
Mof_C 	C 	0.0248	0.9667	0.7837	0.437
Mof_C 	C 	0.9504	0.0029	0.8258	-0.288
Mof_C 	C 	0.9676	0.0607	0.8676	0.27
Mof_H 	H 	0.0264	0.0804	0.8686	-0.052
Mof_C 	C 	0.8615	0.9762	0.8241	0.258
Mof_H 	H 	0.8495	0.9401	0.7954	-0.043
Mof_C 	C 	0.7923	0.002	0.8637	-0.389
Mof_H 	H 	0.7335	0.9817	0.8636	0.184
Mof_C 	C 	0.8976	0.0872	0.9063	-0.404
Mof_H 	H 	0.9083	0.1248	0.9345	0.174
Mof_O 	O 	0.3165	0.0199	0.7987	-0.587
Mof_O 	O 	0.3136	0.8988	0.7578	-0.622
Mof_C 	C 	0.3508	0.9406	0.7918	0.689
Mof_C 	C 	0.4287	0.9109	0.822	-0.577
Mof_C 	C 	0.4654	0.8232	0.812	0.491
Mof_H 	H 	0.4369	0.7892	0.7881	-0.136
Mof_O 	O 	0.3317	0.1996	0.7083	-0.69
Mof_O 	O 	0.4278	0.3028	0.6818	-0.519
Mof_C 	C 	0.4077	0.2244	0.6829	0.483
Mof_C 	C 	0.4769	0.1571	0.6571	-0.308
Mof_C 	C 	0.5601	0.1839	0.6282	0.25
Mof_H 	H 	0.5733	0.243	0.6224	-0.051
Mof_C 	C 	0.5405	0.7915	0.8371	-0.594
Mof_H 	H 	0.5679	0.7371	0.8283	0.257
Mof_O 	O 	0.2561	0.4515	0.7137	-0.635
Mof_O 	O 	0.3197	0.5664	0.6616	-0.544
Mof_C 	C 	0.2916	0.491	0.6638	0.468
Mof_Eu	Eu	0.82151	0.12784	0.28477	2.295
Mof_Eu	Eu	0.67283	0.66633	0.22778	2.251
Mof_Eu	Eu	0.79385	0.87911	0.24251	2.404
Mof_Eu	Eu	0.71041	0.40049	0.23613	2.61
Mof_C 	C 	0.7736	0.2406	0.1523	0.679
Mof_C 	C 	0.5698	0.247	0.3725	-0.273
Mof_C 	C 	0.7858	0.9234	0.3627	0.468
Mof_C 	C 	0.7579	0.9335	0.426	-0.336
Mof_C 	C 	0.7288	0.8278	0.0656	-0.347
Mof_C 	C 	0.8034	0.8936	0.472	0.276
Mof_H 	H 	0.8547	0.8562	0.4632	-0.063
Mof_C 	C 	0.8065	0.1132	0.0847	0.432
Mof_H 	H 	0.8395	0.0815	0.1134	-0.119
Mof_C 	C 	0.6635	0.2271	0.3409	0.498
Mof_C 	C 	0.6799	0.8154	0.9546	0.45
Mof_C 	C 	0.6106	0.8129	0.0003	-0.442
Mof_H 	H 	0.5494	0.8073	0.9937	0.186
Mof_C 	C 	0.6366	0.8192	0.0561	0.324
Mof_H 	H 	0.5919	0.8177	0.0882	-0.09
Mof_C 	C 	0.7771	0.9061	0.5306	-0.397
Mof_H 	H 	0.8116	0.8797	0.5602	0.184
Mof_C 	C 	0.7964	0.8306	0.0184	0.334
Mof_H 	H 	0.858	0.8366	0.0239	-0.08
Mof_C 	C 	0.3103	0.3494	0.5104	0.427
Mof_C 	C 	0.6998	0.9578	0.5445	0.4
Mof_C 	C 	0.2953	0.4436	0.611	-0.32
Mof_C 	C 	0.7985	0.0776	0.0341	-0.564
Mof_H 	H 	0.8261	0.0223	0.0278	0.235
Mof_C 	C 	0.3582	0.464	0.2495	0.229
Mof_H 	H 	0.3655	0.4343	0.2153	-0.042
Mof_C 	C 	0.4963	0.2845	0.3432	0.234
Mof_H 	H 	0.505	0.2985	0.3025	-0.054
Mof_C 	C 	0.5257	0.4783	0.2338	0.472
Mof_O 	O 	0.7636	0.4962	0.1553	-0.685
Mof_C 	C 	0.6827	0.9871	0.4401	0.272
Mof_H 	H 	0.652	0.0176	0.4099	-0.059
Mof_C 	C 	0.3539	0.4679	0.5604	0.277
Mof_H 	H 	0.3874	0.5178	0.5597	-0.056
Mof_C 	C 	0.249	0.3278	0.5564	-0.423
Mof_H 	H 	0.2107	0.2821	0.5543	0.199
Mof_C 	C 	0.2415	0.3728	0.6073	0.293
Mof_H 	H 	0.2	0.3551	0.6392	-0.08
Mof_C 	C 	0.607	0.031	0.6191	0.39
Mof_C 	C 	0.5281	0.0055	0.6487	-0.39
Mof_H 	H 	0.5178	0.9459	0.6563	0.18
Mof_C 	C 	0.7686	0.8244	0.964	-0.464
Mof_H 	H 	0.8127	0.8265	0.9315	0.206
Mof_C 	C 	0.553	0.2252	0.4339	0.208
Mof_H 	H 	0.5994	0.1957	0.4544	-0.032
Mof_C 	C 	0.7672	0.1959	0.0961	-0.436
Mof_C 	C 	0.3964	0.2834	0.4337	0.359
Mof_C 	C 	0.4218	0.5417	0.318	0.293
Mof_H 	H 	0.4718	0.5682	0.3298	-0.069
Mof_C 	C 	0.7144	0.2391	0.0542	0.36
Mof_H 	H 	0.6848	0.2933	0.0614	-0.087
Mof_C 	C 	0.7514	0.1212	0.9932	0.473
Mof_C 	C 	0.6502	0.9977	0.4996	-0.388
Mof_H 	H 	0.596	0.0311	0.5086	0.17
Mof_C 	C 	0.4336	0.4998	0.2689	-0.318
Mof_C 	C 	0.3633	0.42	0.5113	-0.411
Mof_H 	H 	0.4054	0.4355	0.4792	0.181
Mof_C 	C 	0.4105	0.3019	0.3726	-0.349
Mof_H 	H 	0.3622	0.3259	0.3515	0.167
Mof_C 	C 	0.5771	0.8394	0.876	0.539
Mof_C 	C 	0.705	0.2035	0.0023	-0.467
Mof_H 	H 	0.6693	0.2324	0.974	0.198
Mof_C 	C 	0.6225	0.1188	0.6084	-0.384
Mof_H 	H 	0.6773	0.1353	0.587	0.169
Mof_O 	O 	0.7635	0.9784	0.3237	-0.689
Mof_O 	O 	0.6833	0.2649	0.2899	-0.667
Mof_O 	O 	0.8348	0.8535	0.3482	-0.483
Mof_O 	O 	0.6998	0.8044	0.1722	-0.659
Mof_O 	O 	0.8278	0.866	0.1348	-0.48
Mof_O 	O 	0.7319	0.3071	0.1617	-0.687
Mof_O 	O 	0.7178	0.1703	0.3658	-0.542
Mof_O 	O 	0.83	0.1998	0.1864	-0.59
Mof_O 	O 	0.7046	0.6245	0.1325	-0.693
Mof_C 	C 	0.7526	0.8304	0.1253	0.479
Mof_O 	O 	0.6584	0.8048	0.8983	-0.411
Mof_O 	O 	0.3117	0.303	0.4621	-0.365
Mof_O 	O 	0.7356	0.0839	0.9411	-0.379
Mof_O 	O 	0.6745	0.9665	0.6025	-0.36
Mof_O 	O 	0.5872	0.5332	0.2375	-0.684
Mof_C 	C 	0.7379	0.5558	0.1171	0.772
Mof_C 	C 	0.7638	0.5393	0.0554	-0.664
Mof_O 	O 	0.5482	0.4066	0.2142	-0.537
Mof_C 	C 	0.4649	0.952	0.861	0.551
Mof_H 	H 	0.4377	0.0064	0.8699	-0.146
Mof_C 	C 	0.5395	0.921	0.8895	-0.619
Mof_H 	H 	0.5638	0.953	0.9165	0.254
Mof_C 	C 	0.3392	0.5476	0.3517	-0.407
Mof_H 	H 	0.3337	0.5767	0.3861	0.188
Mof_C 	C 	0.2656	0.5107	0.3347	0.376
Mof_C 	C 	0.4601	0.0689	0.6686	0.269
Mof_H 	H 	0.405	0.0515	0.6891	-0.077
Mof_C 	C 	0.8102	0.0586	0.9042	0.396
Mof_C 	C 	0.2702	0.4721	0.2813	-0.359
Mof_H 	H 	0.2179	0.4527	0.2672	0.17
Mof_C 	C 	0.813	0.4696	0.0369	0.614
Mof_H 	H 	0.8376	0.4293	0.0651	-0.174
Mof_O 	O 	0.1848	0.5155	0.3726	-0.34
Mof_C 	C 	0.1107	0.4703	0.3579	0.382
Mof_C 	C 	0.8006	0.5167	0.9373	0.622
Mof_C 	C 	0.7439	0.585	0.9561	-0.709
Mof_H 	H 	0.7158	0.6237	0.9284	0.298
Mof_C 	C 	0.4675	0.2468	0.4651	-0.34
Mof_H 	H 	0.4592	0.2366	0.5062	0.157
Mof_C 	C 	0.7282	0.5971	0.013	0.624
Mof_H 	H 	0.692	0.646	0.0245	-0.175
Mof_O 	O 	0.8111	0.508	0.8777	-0.427
Mof_C 	C 	0.8796	0.4501	0.857	0.429
Mof_C 	C 	0.8544	0.375	0.8391	-0.424
Mof_H 	H 	0.7929	0.3608	0.844	0.186
Mof_C 	C 	0.8297	0.4534	0.9782	-0.687
Mof_H 	H 	0.8597	0.4012	0.967	0.272
_end
