data_functionalizedCrystal
_audit_creation_method	'EQeq! by Chris Wilmer'
_symmetry_space_group_name_H-M	'P1'
_symmetry_Int_Tables_number	1
_symmetry_cell_setting	triclinic
loop_
_symmetry_equiv_pos_as_xyz
  x,y,z
_cell_length_a	25.667
_cell_length_b	13.076
_cell_length_c	8.725
_cell_angle_alpha	90
_cell_angle_beta	95.07
_cell_angle_gamma	90
loop_
_atom_site_label
_atom_site_type_symbol
_atom_site_fract_x
_atom_site_fract_y
_atom_site_fract_z
_atom_site_charge
Mof_Cu	Cu	0.29264	0.29674	0.06182	0.917
Mof_O 	O 	0.25179	0.29209	0.2432	-0.446
Mof_O 	O 	0.17892	0.2172	0.1401	-0.445
Mof_O 	O 	0.18381	0.65509	0.3921	-0.454
Mof_O 	O 	0.25549	0.57623	0.4932	-0.446
Mof_N 	N 	0.35746	0.366	0.2035	-0.206
Mof_C 	C 	0.20543	0.2625	0.2483	0.487
Mof_C 	C 	0.17914	0.2847	0.3943	-0.576
Mof_H 	H 	0.1859	0.2285	0.4659	0.223
Mof_H 	H 	0.1416	0.2889	0.3692	0.206
Mof_C 	C 	0.19838	0.3843	0.4719	0.364
Mof_H 	H 	0.1812	0.3939	0.5655	-0.079
Mof_H 	H 	0.2357	0.3795	0.4999	-0.056
Mof_C 	C 	0.1873	0.4762	0.367	-0.575
Mof_H 	H 	0.2001	0.4609	0.2681	0.219
Mof_H 	H 	0.1497	0.4847	0.3501	0.206
Mof_C 	C 	0.21093	0.5772	0.4237	0.503
Mof_C 	C 	0.39522	0.3088	0.2712	0.11
Mof_H 	H 	0.3961	0.2399	0.2454	-0.004
Mof_C 	C 	0.43319	0.3458	0.3778	-0.212
Mof_H 	H 	0.4593	0.3023	0.4201	0.096
Mof_C 	C 	0.43277	0.4461	0.4219	0.155
Mof_C 	C 	0.39278	0.5066	0.3509	-0.209
Mof_H 	H 	0.3908	0.5756	0.3757	0.112
Mof_C 	C 	0.35666	0.4647	0.2455	0.117
Mof_H 	H 	0.3302	0.5065	0.2005	0.005
Mof_C 	C 	0.4748	0.4897	0.5354	-0.178
Mof_H 	H 	0.4623	0.553	0.577	0.084
Mof_H 	H 	0.4815	0.4421	0.6201	0.078
Mof_Cu	Cu	0.79264	0.79674	0.06182	0.917
Mof_O 	O 	0.75179	0.79209	0.2432	-0.445
Mof_O 	O 	0.67892	0.7172	0.1401	-0.445
Mof_O 	O 	0.68381	0.15509	0.3921	-0.453
Mof_O 	O 	0.75549	0.07623	0.4932	-0.446
Mof_N 	N 	0.85746	0.866	0.2035	-0.204
Mof_C 	C 	0.70543	0.7625	0.2483	0.487
Mof_C 	C 	0.67914	0.7847	0.3943	-0.576
Mof_H 	H 	0.6859	0.7285	0.4659	0.223
Mof_H 	H 	0.6416	0.7889	0.3692	0.205
Mof_C 	C 	0.69838	0.8843	0.4719	0.364
Mof_H 	H 	0.6812	0.8939	0.5655	-0.079
Mof_H 	H 	0.7357	0.8795	0.4999	-0.056
Mof_C 	C 	0.6873	0.9762	0.367	-0.575
Mof_H 	H 	0.7001	0.9609	0.2681	0.219
Mof_H 	H 	0.6497	0.9847	0.3501	0.206
Mof_C 	C 	0.71093	0.0772	0.4237	0.504
Mof_C 	C 	0.89522	0.8088	0.2712	0.109
Mof_H 	H 	0.8961	0.7399	0.2454	-0.004
Mof_C 	C 	0.93319	0.8458	0.3778	-0.21
Mof_H 	H 	0.9593	0.8023	0.4201	0.096
Mof_C 	C 	0.93277	0.9461	0.4219	0.152
Mof_C 	C 	0.89278	0.0066	0.3509	-0.203
Mof_H 	H 	0.8908	0.0756	0.3757	0.11
Mof_C 	C 	0.85666	0.9647	0.2455	0.111
Mof_H 	H 	0.8302	0.0065	0.2005	0.008
Mof_C 	C 	0.9748	0.9897	0.5354	-0.178
Mof_H 	H 	0.9623	0.053	0.577	0.084
Mof_H 	H 	0.9815	0.9421	0.6201	0.078
Mof_Cu	Cu	0.70736	0.29674	0.43818	0.918
Mof_O 	O 	0.74821	0.29209	0.2568	-0.445
Mof_O 	O 	0.82108	0.2172	0.3599	-0.445
Mof_O 	O 	0.81619	0.65509	0.1079	-0.453
Mof_O 	O 	0.74451	0.57623	0.0068	-0.445
Mof_N 	N 	0.64254	0.366	0.2965	-0.205
Mof_C 	C 	0.79457	0.2625	0.2517	0.487
Mof_C 	C 	0.82086	0.2847	0.1057	-0.578
Mof_H 	H 	0.8141	0.2285	0.0341	0.224
Mof_H 	H 	0.8584	0.2889	0.1308	0.206
Mof_C 	C 	0.80162	0.3843	0.0281	0.366
Mof_H 	H 	0.8188	0.3939	0.9345	-0.079
Mof_H 	H 	0.7643	0.3795	0.0001	-0.057
Mof_C 	C 	0.8127	0.4762	0.133	-0.576
Mof_H 	H 	0.7999	0.4609	0.2319	0.22
Mof_H 	H 	0.8503	0.4847	0.1499	0.206
Mof_C 	C 	0.78907	0.5772	0.0763	0.504
Mof_C 	C 	0.60478	0.3088	0.2288	0.111
Mof_H 	H 	0.6039	0.2399	0.2546	-0.005
Mof_C 	C 	0.56681	0.3458	0.1222	-0.212
Mof_H 	H 	0.5407	0.3023	0.0799	0.097
Mof_C 	C 	0.56723	0.4461	0.0781	0.155
Mof_C 	C 	0.60722	0.5066	0.1491	-0.209
Mof_H 	H 	0.6092	0.5756	0.1243	0.112
Mof_C 	C 	0.64334	0.4647	0.2545	0.117
Mof_H 	H 	0.6698	0.5065	0.2995	0.005
Mof_C 	C 	0.5252	0.4897	0.9646	-0.179
Mof_H 	H 	0.5377	0.553	0.923	0.084
Mof_H 	H 	0.5185	0.4421	0.8799	0.078
Mof_Cu	Cu	0.20736	0.79674	0.43818	0.918
Mof_O 	O 	0.24821	0.79209	0.2568	-0.445
Mof_O 	O 	0.32108	0.7172	0.3599	-0.445
Mof_O 	O 	0.31619	0.15509	0.1079	-0.452
Mof_O 	O 	0.24451	0.07623	0.0068	-0.444
Mof_N 	N 	0.14254	0.866	0.2965	-0.203
Mof_C 	C 	0.29457	0.7625	0.2517	0.486
Mof_C 	C 	0.32086	0.7847	0.1057	-0.574
Mof_H 	H 	0.3141	0.7285	0.0341	0.222
Mof_H 	H 	0.3584	0.7889	0.1308	0.205
Mof_C 	C 	0.30162	0.8843	0.0281	0.36
Mof_H 	H 	0.3188	0.8939	0.9345	-0.076
Mof_H 	H 	0.2643	0.8795	0.0001	-0.056
Mof_C 	C 	0.3127	0.9762	0.133	-0.576
Mof_H 	H 	0.2999	0.9609	0.2319	0.219
Mof_H 	H 	0.3503	0.9847	0.1499	0.206
Mof_C 	C 	0.28907	0.0772	0.0763	0.504
Mof_C 	C 	0.10478	0.8088	0.2288	0.107
Mof_H 	H 	0.1039	0.7399	0.2546	-0.003
Mof_C 	C 	0.06681	0.8458	0.1222	-0.207
Mof_H 	H 	0.0407	0.8023	0.0799	0.094
Mof_C 	C 	0.06723	0.9461	0.0781	0.146
Mof_C 	C 	0.10722	0.0066	0.1491	-0.198
Mof_H 	H 	0.1092	0.0756	0.1243	0.109
Mof_C 	C 	0.14334	0.9647	0.2545	0.108
Mof_H 	H 	0.1698	0.0065	0.2995	0.008
Mof_C 	C 	0.0252	0.9897	0.9646	-0.171
Mof_H 	H 	0.0377	0.053	0.923	0.081
Mof_H 	H 	0.0185	0.9421	0.8799	0.077
Mof_Cu	Cu	0.70736	0.70326	0.93818	0.918
Mof_O 	O 	0.74821	0.70791	0.7568	-0.445
Mof_O 	O 	0.82108	0.7828	0.8599	-0.444
Mof_O 	O 	0.81619	0.34491	0.6079	-0.453
Mof_O 	O 	0.74451	0.42377	0.5068	-0.445
Mof_N 	N 	0.64254	0.634	0.7965	-0.205
Mof_C 	C 	0.79457	0.7375	0.7517	0.487
Mof_C 	C 	0.82086	0.7153	0.6057	-0.576
Mof_H 	H 	0.8141	0.7715	0.5341	0.223
Mof_H 	H 	0.8584	0.7111	0.6308	0.206
Mof_C 	C 	0.80162	0.6157	0.5281	0.364
Mof_H 	H 	0.8188	0.6061	0.4345	-0.079
Mof_H 	H 	0.7643	0.6205	0.5001	-0.056
Mof_C 	C 	0.8127	0.5238	0.633	-0.575
Mof_H 	H 	0.7999	0.5391	0.7319	0.219
Mof_H 	H 	0.8503	0.5153	0.6499	0.206
Mof_C 	C 	0.78907	0.4228	0.5763	0.503
Mof_C 	C 	0.60478	0.6912	0.7288	0.11
Mof_H 	H 	0.6039	0.7601	0.7546	-0.004
Mof_C 	C 	0.56681	0.6542	0.6222	-0.212
Mof_H 	H 	0.5407	0.6977	0.5799	0.096
Mof_C 	C 	0.56723	0.5539	0.5781	0.155
Mof_C 	C 	0.60722	0.4934	0.6491	-0.209
Mof_H 	H 	0.6092	0.4244	0.6243	0.112
Mof_C 	C 	0.64334	0.5353	0.7545	0.117
Mof_H 	H 	0.6698	0.4935	0.7995	0.005
Mof_C 	C 	0.5252	0.5103	0.4646	-0.178
Mof_H 	H 	0.5377	0.447	0.423	0.084
Mof_H 	H 	0.5185	0.5579	0.3799	0.078
Mof_Cu	Cu	0.20736	0.20326	0.93818	0.917
Mof_O 	O 	0.24821	0.20791	0.7568	-0.445
Mof_O 	O 	0.32108	0.2828	0.8599	-0.445
Mof_O 	O 	0.31619	0.84491	0.6079	-0.453
Mof_O 	O 	0.24451	0.92377	0.5068	-0.446
Mof_N 	N 	0.14254	0.134	0.7965	-0.204
Mof_C 	C 	0.29457	0.2375	0.7517	0.487
Mof_C 	C 	0.32086	0.2153	0.6057	-0.576
Mof_H 	H 	0.3141	0.2715	0.5341	0.223
Mof_H 	H 	0.3584	0.2111	0.6308	0.205
Mof_C 	C 	0.30162	0.1157	0.5281	0.364
Mof_H 	H 	0.3188	0.1061	0.4345	-0.079
Mof_H 	H 	0.2643	0.1205	0.5001	-0.056
Mof_C 	C 	0.3127	0.0238	0.633	-0.575
Mof_H 	H 	0.2999	0.0391	0.7319	0.219
Mof_H 	H 	0.3503	0.0153	0.6499	0.206
Mof_C 	C 	0.28907	0.9228	0.5763	0.504
Mof_C 	C 	0.10478	0.1912	0.7288	0.109
Mof_H 	H 	0.1039	0.2601	0.7546	-0.004
Mof_C 	C 	0.06681	0.1542	0.6222	-0.21
Mof_H 	H 	0.0407	0.1977	0.5799	0.096
Mof_C 	C 	0.06723	0.0539	0.5781	0.152
Mof_C 	C 	0.10722	0.9934	0.6491	-0.203
Mof_H 	H 	0.1092	0.9244	0.6243	0.11
Mof_C 	C 	0.14334	0.0353	0.7545	0.111
Mof_H 	H 	0.1698	0.9935	0.7995	0.008
Mof_C 	C 	0.0252	0.0103	0.4646	-0.178
Mof_H 	H 	0.0377	0.947	0.423	0.084
Mof_H 	H 	0.0185	0.0579	0.3799	0.078
Mof_Cu	Cu	0.29264	0.70326	0.56182	0.918
Mof_O 	O 	0.25179	0.70791	0.7432	-0.445
Mof_O 	O 	0.17892	0.7828	0.6401	-0.445
Mof_O 	O 	0.18381	0.34491	0.8921	-0.453
Mof_O 	O 	0.25549	0.42377	0.9932	-0.445
Mof_N 	N 	0.35746	0.634	0.7035	-0.205
Mof_C 	C 	0.20543	0.7375	0.7483	0.487
Mof_C 	C 	0.17914	0.7153	0.8943	-0.578
Mof_H 	H 	0.1859	0.7715	0.9659	0.224
Mof_H 	H 	0.1416	0.7111	0.8692	0.206
Mof_C 	C 	0.19838	0.6157	0.9719	0.366
Mof_H 	H 	0.1812	0.6061	0.0655	-0.079
Mof_H 	H 	0.2357	0.6205	0.9999	-0.057
Mof_C 	C 	0.1873	0.5238	0.867	-0.576
Mof_H 	H 	0.2001	0.5391	0.7681	0.22
Mof_H 	H 	0.1497	0.5153	0.8501	0.206
Mof_C 	C 	0.21093	0.4228	0.9237	0.504
Mof_C 	C 	0.39522	0.6912	0.7712	0.111
Mof_H 	H 	0.3961	0.7601	0.7454	-0.005
Mof_C 	C 	0.43319	0.6542	0.8778	-0.212
Mof_H 	H 	0.4593	0.6977	0.9201	0.097
Mof_C 	C 	0.43277	0.5539	0.9219	0.155
Mof_C 	C 	0.39278	0.4934	0.8509	-0.209
Mof_H 	H 	0.3908	0.4244	0.8757	0.112
Mof_C 	C 	0.35666	0.5353	0.7455	0.117
Mof_H 	H 	0.3302	0.4935	0.7005	0.005
Mof_C 	C 	0.4748	0.5103	0.0354	-0.179
Mof_H 	H 	0.4623	0.447	0.077	0.084
Mof_H 	H 	0.4815	0.5579	0.1201	0.078
Mof_Cu	Cu	0.79264	0.20326	0.56182	0.918
Mof_O 	O 	0.75179	0.20791	0.7432	-0.445
Mof_O 	O 	0.67892	0.2828	0.6401	-0.445
Mof_O 	O 	0.68381	0.84491	0.8921	-0.452
Mof_O 	O 	0.75549	0.92377	0.9932	-0.444
Mof_N 	N 	0.85746	0.134	0.7035	-0.203
Mof_C 	C 	0.70543	0.2375	0.7483	0.486
Mof_C 	C 	0.67914	0.2153	0.8943	-0.574
Mof_H 	H 	0.6859	0.2715	0.9659	0.222
Mof_H 	H 	0.6416	0.2111	0.8692	0.205
Mof_C 	C 	0.69838	0.1157	0.9719	0.36
Mof_H 	H 	0.6812	0.1061	0.0655	-0.076
Mof_H 	H 	0.7357	0.1205	0.9999	-0.056
Mof_C 	C 	0.6873	0.0238	0.867	-0.576
Mof_H 	H 	0.7001	0.0391	0.7681	0.219
Mof_H 	H 	0.6497	0.0153	0.8501	0.206
Mof_C 	C 	0.71093	0.9228	0.9237	0.504
Mof_C 	C 	0.89522	0.1912	0.7712	0.107
Mof_H 	H 	0.8961	0.2601	0.7454	-0.003
Mof_C 	C 	0.93319	0.1542	0.8778	-0.207
Mof_H 	H 	0.9593	0.1977	0.9201	0.094
Mof_C 	C 	0.93277	0.0539	0.9219	0.146
Mof_C 	C 	0.89278	0.9934	0.8509	-0.198
Mof_H 	H 	0.8908	0.9244	0.8757	0.109
Mof_C 	C 	0.85666	0.0353	0.7455	0.108
Mof_H 	H 	0.8302	0.9935	0.7005	0.008
Mof_C 	C 	0.9748	0.0103	0.0354	-0.171
Mof_H 	H 	0.9623	0.947	0.077	0.081
Mof_H 	H 	0.9815	0.0579	0.1201	0.077
_end
