data_functionalizedCrystal
_audit_creation_method	'EQeq! by Chris Wilmer'
_symmetry_space_group_name_H-M	'P1'
_symmetry_Int_Tables_number	1
_symmetry_cell_setting	triclinic
loop_
_symmetry_equiv_pos_as_xyz
  x,y,z
_cell_length_a	11.0888
_cell_length_b	11.0888
_cell_length_c	11.0888
_cell_angle_alpha	107.557
_cell_angle_beta	109.112
_cell_angle_gamma	111.773
loop_
_atom_site_label
_atom_site_type_symbol
_atom_site_fract_x
_atom_site_fract_y
_atom_site_fract_z
_atom_site_charge
Mof_Cd	Cd	0.25	0.12772	0.87772	0.344
Mof_Ag	Ag	0.28025	0.64157	0.88548	0.397
Mof_Ag	Ag	0.21975	0.10523	0.36132	0.398
Mof_C 	C 	0.2813	0.8202	0.8597	-0.127
Mof_C 	C 	0.2792	0.4684	0.922	-0.127
Mof_C 	C 	0.9126	0.0174	0.6542	0.067
Mof_C 	C 	0.7572	0.9322	0.5754	-0.079
Mof_C 	C 	0.683	0.822	0.607	0.006
Mof_C 	C 	0.7688	0.8028	0.716	-0.071
Mof_C 	C 	0.9207	0.8889	0.7836	0.048
Mof_C 	C 	0.2187	0.0784	0.5389	-0.126
Mof_C 	C 	0.2208	0.1428	0.1892	-0.128
Mof_C 	C 	0.5874	0.2416	0.1048	0.047
Mof_C 	C 	0.7428	0.3182	0.175	-0.065
Mof_C 	C 	0.817	0.424	0.139	0.005
Mof_C 	C 	0.7312	0.4472	0.034	-0.072
Mof_C 	C 	0.5793	0.3629	0.9682	0.051
Mof_N 	N 	0.2687	0.9169	0.8522	-0.124
Mof_N 	N 	0.2672	0.3634	0.9226	-0.12
Mof_N 	N 	0.9928	0.9962	0.7554	-0.146
Mof_N 	N 	0.2313	0.0835	0.6482	-0.12
Mof_N 	N 	0.2328	0.1554	0.0962	-0.12
Mof_N 	N 	0.5072	0.2626	0.0034	-0.149
Mof_Cd	Cd	0.75	0.37228	0.62228	0.354
Mof_Ag	Ag	0.25609	0.39477	0.61452	0.403
Mof_Ag	Ag	0.24391	0.85843	0.13868	0.373
Mof_C 	C 	0.4605	0.4216	0.6403	-0.124
Mof_C 	C 	0.0464	0.3572	0.578	-0.17
Mof_C 	C 	0.8632	0.2584	0.8458	0.047
Mof_C 	C 	0.8568	0.1818	0.9246	-0.06
Mof_C 	C 	0.715	0.076	0.893	-0.001
Mof_C 	C 	0.5868	0.0528	0.784	-0.056
Mof_C 	C 	0.6053	0.1371	0.7164	0.042
Mof_C 	C 	0.0395	0.6798	0.9611	-0.159
Mof_C 	C 	0.4536	0.0316	0.3108	-0.11
Mof_C 	C 	0.6368	0.4826	0.3952	0.042
Mof_C 	C 	0.6432	0.5678	0.325	-0.058
Mof_C 	C 	0.785	0.678	0.361	-0.015
Mof_C 	C 	0.9132	0.6972	0.466	-0.022
Mof_C 	C 	0.8947	0.6111	0.5318	0.03
Mof_N 	N 	0.5647	0.4165	0.6478	-0.118
Mof_N 	N 	0.9408	0.3446	0.5774	-0.086
Mof_N 	N 	0.7408	0.2374	0.7446	-0.146
Mof_N 	N 	0.9353	0.5831	0.8518	-0.093
Mof_N 	N 	0.5592	0.1366	0.4038	-0.118
Mof_N 	N 	0.7592	0.5038	0.4966	-0.144
Mof_H 	H 	0.97532	0.10899	0.63288	0.017
Mof_H 	H 	0.69264	0.9521	0.4876	0.034
Mof_H 	H 	0.55566	0.75069	0.54429	0.005
Mof_H 	H 	0.71129	0.71705	0.7459	0.036
Mof_H 	H 	0.99395	0.87237	0.86888	0.017
Mof_H 	H 	0.52468	0.15756	0.13366	0.01
Mof_H 	H 	0.80736	0.29496	0.25946	0.039
Mof_H 	H 	0.94434	0.48863	0.19503	0.017
Mof_H 	H 	0.78871	0.53461	0.00575	0.038
Mof_H 	H 	0.50605	0.37492	0.87842	0.006
Mof_H 	H 	0.97611	0.34244	0.86712	0.018
Mof_H 	H 	0.96451	0.20504	0.0124	0.041
Mof_H 	H 	0.7064	0.01137	0.95571	0.014
Mof_H 	H 	0.47115	0.96539	0.7541	0.025
Mof_H 	H 	0.5035	0.12508	0.63112	0.008
Mof_H 	H 	0.52389	0.39101	0.36634	0.008
Mof_H 	H 	0.53549	0.5479	0.24054	0.03
Mof_H 	H 	0.7936	0.74931	0.30497	0.016
Mof_H 	H 	0.02885	0.78295	0.49425	-0
Mof_H 	H 	0.9965	0.62763	0.62158	0.021
_end
