data_functionalizedCrystal
_audit_creation_method	'EQeq! by Chris Wilmer'
_symmetry_space_group_name_H-M	'P1'
_symmetry_Int_Tables_number	1
_symmetry_cell_setting	triclinic
loop_
_symmetry_equiv_pos_as_xyz
  x,y,z
_cell_length_a	14.443
_cell_length_b	14.537
_cell_length_c	22.015
_cell_angle_alpha	90
_cell_angle_beta	99.973
_cell_angle_gamma	90
loop_
_atom_site_label
_atom_site_type_symbol
_atom_site_fract_x
_atom_site_fract_y
_atom_site_fract_z
_atom_site_charge
Mof_Co	Co	0.1899	0.8122	0.0607	1.128
Mof_Co	Co	0.8467	0.1646	0.068	1.131
Mof_Co	Co	0.5696	0.9921	0.2756	1.088
Mof_Co	Co	0.6026	0.1183	0.4122	1.082
Mof_Co	Co	0.6213	0.9127	0.4055	1.078
Mof_Co	Co	0.8101	0.3122	0.9393	1.13
Mof_Co	Co	0.1533	0.6646	0.932	1.13
Mof_Co	Co	0.4304	0.4921	0.7244	1.112
Mof_Co	Co	0.3974	0.6183	0.5878	1.081
Mof_Co	Co	0.3787	0.4127	0.5945	1.092
Mof_H 	H 	0.0583	0.691	0.0225	0.15
Mof_H 	H 	0.0401	0.7765	0.9785	0.151
Mof_H 	H 	0.7169	0.027	0.3533	0.165
Mof_H 	H 	0.301	0.444	0.0384	0.297
Mof_H 	H 	0.3961	0.4842	0.0249	0.304
Mof_H 	H 	0.3946	0.4263	0.0848	0.285
Mof_H 	H 	0.4774	0.5583	0.1469	0.235
Mof_H 	H 	0.4735	0.6205	0.0883	0.264
Mof_H 	H 	0.4287	0.655	0.1441	0.26
Mof_H 	H 	0.2327	0.5072	0.1303	0.251
Mof_H 	H 	0.3293	0.4971	0.175	0.243
Mof_H 	H 	0.2802	0.5934	0.1655	0.259
Mof_H 	H 	0.3339	0.8591	0.8344	0.081
Mof_H 	H 	0.3885	0.9491	0.8579	0.047
Mof_H 	H 	0.238	0.06	0.9273	0.183
Mof_H 	H 	0.3123	0.0078	0.9754	0.208
Mof_H 	H 	0.3422	0.0515	0.9167	0.168
Mof_H 	H 	0.145	0.8921	0.8389	0.147
Mof_H 	H 	0.1496	0.9985	0.8504	0.129
Mof_H 	H 	0.2093	0.9537	0.8051	0.122
Mof_H 	H 	0.4132	0.9131	0.9137	0.038
Mof_H 	H 	0.4729	0.2269	0.1697	0.452
Mof_H 	H 	0.3749	0.2096	0.189	0.451
Mof_H 	H 	0.4013	0.3082	0.1688	0.427
Mof_H 	H 	0.3688	0.3716	0.2715	0.413
Mof_H 	H 	0.3436	0.2723	0.291	0.413
Mof_H 	H 	0.4222	0.3288	0.3331	0.428
Mof_H 	H 	0.5932	0.3197	0.2404	0.457
Mof_H 	H 	0.5219	0.4003	0.243	0.438
Mof_H 	H 	0.5713	0.353	0.3041	0.436
Mof_H 	H 	0.7317	0.7564	0.2019	0.444
Mof_H 	H 	0.6972	0.6541	0.1946	0.438
Mof_H 	H 	0.6239	0.7345	0.1871	0.446
Mof_H 	H 	0.7635	0.672	0.3572	0.452
Mof_H 	H 	0.781	0.6133	0.3005	0.449
Mof_H 	H 	0.8203	0.7138	0.3092	0.446
Mof_H 	H 	0.596	0.6357	0.3251	0.443
Mof_H 	H 	0.5462	0.6601	0.2581	0.43
Mof_H 	H 	0.6215	0.5815	0.2687	0.423
Mof_H 	H 	0.8318	0.9232	0.6429	0.272
Mof_H 	H 	0.7296	0.8954	0.6121	0.285
Mof_H 	H 	0.8155	0.8654	0.5819	0.311
Mof_H 	H 	0.8736	0.0906	0.5322	0.247
Mof_H 	H 	0.9203	0.0414	0.5933	0.244
Mof_H 	H 	0.9041	0.9873	0.5307	0.218
Mof_H 	H 	0.7361	0.1365	0.5782	0.307
Mof_H 	H 	0.6731	0.0623	0.6029	0.323
Mof_H 	H 	0.772	0.0869	0.6411	0.294
Mof_H 	H 	0.3138	0.7784	0.1813	-0.033
Mof_H 	H 	0.4448	0.828	0.2442	-0.024
Mof_H 	H 	0.4409	0.0485	0.1475	0.064
Mof_H 	H 	0.3107	0.998	0.0824	-0.031
Mof_H 	H 	0.98	0.0346	0.1544	-0.042
Mof_H 	H 	0.096	0.9297	0.1534	0.003
Mof_H 	H 	0.0482	0.9343	0.975	0.022
Mof_H 	H 	0.9297	0.0396	0.9771	-0.042
Mof_H 	H 	0.8046	0.1957	0.197	-0.029
Mof_H 	H 	0.709	0.1443	0.2619	-0.008
Mof_H 	H 	0.6414	0.9342	0.1563	0.065
Mof_H 	H 	0.7304	0.9893	0.0892	-0.108
Mof_H 	H 	0.4271	0.2108	0.5812	-0.018
Mof_H 	H 	0.4978	0.1161	0.5237	-0.01
Mof_H 	H 	0.5699	0.3216	0.4332	-0.032
Mof_H 	H 	0.4888	0.4171	0.4862	-0.018
Mof_H 	H 	0.9417	0.191	0.9775	0.152
Mof_H 	H 	0.9599	0.2765	0.0215	0.152
Mof_H 	H 	0.2831	0.527	0.6467	0.158
Mof_H 	H 	0.699	0.944	0.9616	0.3
Mof_H 	H 	0.6039	0.9842	0.9751	0.308
Mof_H 	H 	0.6054	0.9263	0.9152	0.295
Mof_H 	H 	0.5226	0.0583	0.8531	0.255
Mof_H 	H 	0.5265	0.1205	0.9117	0.277
Mof_H 	H 	0.5713	0.155	0.8559	0.266
Mof_H 	H 	0.7673	0.0072	0.8697	0.222
Mof_H 	H 	0.6707	0.9971	0.825	0.17
Mof_H 	H 	0.7198	0.0934	0.8345	0.22
Mof_H 	H 	0.6661	0.3591	0.1656	0.098
Mof_H 	H 	0.6115	0.4491	0.1421	0.074
Mof_H 	H 	0.762	0.56	0.0727	0.204
Mof_H 	H 	0.6877	0.5078	0.0246	0.223
Mof_H 	H 	0.6578	0.5515	0.0833	0.191
Mof_H 	H 	0.855	0.3921	0.1611	0.179
Mof_H 	H 	0.8504	0.4985	0.1496	0.171
Mof_H 	H 	0.7907	0.4537	0.1949	0.161
Mof_H 	H 	0.5868	0.4131	0.0863	0.054
Mof_H 	H 	0.5271	0.7269	0.8303	0.418
Mof_H 	H 	0.6251	0.7096	0.811	0.412
Mof_H 	H 	0.5987	0.8082	0.8312	0.392
Mof_H 	H 	0.6312	0.8716	0.7285	0.374
Mof_H 	H 	0.6564	0.7723	0.709	0.375
Mof_H 	H 	0.5778	0.8288	0.6669	0.39
Mof_H 	H 	0.4068	0.8197	0.7596	0.42
Mof_H 	H 	0.4781	0.9003	0.757	0.395
Mof_H 	H 	0.4287	0.853	0.6959	0.397
Mof_H 	H 	0.2683	0.2564	0.7981	0.492
Mof_H 	H 	0.3028	0.1541	0.8054	0.488
Mof_H 	H 	0.3761	0.2345	0.8129	0.491
Mof_H 	H 	0.2365	0.172	0.6428	0.506
Mof_H 	H 	0.219	0.1133	0.6995	0.508
Mof_H 	H 	0.1797	0.2138	0.6908	0.502
Mof_H 	H 	0.404	0.1357	0.6749	0.493
Mof_H 	H 	0.4538	0.1601	0.7419	0.477
Mof_H 	H 	0.3785	0.0815	0.7313	0.479
Mof_H 	H 	0.1682	0.4232	0.3571	0.247
Mof_H 	H 	0.2704	0.3954	0.3879	0.251
Mof_H 	H 	0.1845	0.3654	0.4181	0.276
Mof_H 	H 	0.1264	0.5906	0.4678	0.258
Mof_H 	H 	0.0797	0.5414	0.4067	0.253
Mof_H 	H 	0.0959	0.4873	0.4693	0.269
Mof_H 	H 	0.2639	0.6365	0.4218	0.268
Mof_H 	H 	0.3269	0.5623	0.3971	0.276
Mof_H 	H 	0.228	0.5869	0.3589	0.252
Mof_H 	H 	0.6862	0.2784	0.8187	-0.028
Mof_H 	H 	0.5552	0.328	0.7558	-0.026
Mof_H 	H 	0.5591	0.5485	0.8525	-0.003
Mof_H 	H 	0.6893	0.498	0.9176	-0.001
Mof_H 	H 	0.02	0.5346	0.8456	-0.027
Mof_H 	H 	0.904	0.4297	0.8466	-0.012
Mof_H 	H 	0.9518	0.4343	0.025	0.003
Mof_H 	H 	0.0703	0.5396	0.0229	-0.025
Mof_H 	H 	0.1954	0.6957	0.803	-0.02
Mof_H 	H 	0.291	0.6443	0.7381	-0.02
Mof_H 	H 	0.3586	0.4342	0.8437	0.001
Mof_H 	H 	0.2696	0.4893	0.9108	0.004
Mof_H 	H 	0.5729	0.7108	0.4188	-0.017
Mof_H 	H 	0.5022	0.6161	0.4763	-0.016
Mof_H 	H 	0.4301	0.8216	0.5668	-0.034
Mof_H 	H 	0.5112	0.9171	0.5138	-0.032
Mof_C 	C 	0.287	0.628	0.048	0.181
Mof_C 	C 	0.344	0.557	0.091	0.512
Mof_C 	C 	0.361	0.47	0.057	-0.975
Mof_C 	C 	0.44	0.602	0.12	-0.869
Mof_C 	C 	0.292	0.537	0.146	-0.886
Mof_C 	C 	0.241	0.855	0.9394	0.308
Mof_C 	C 	0.268	0.931	0.897	0.17
Mof_C 	C 	0.355	0.897	0.87	-0.292
Mof_C 	C 	0.292	0.021	0.932	-0.562
Mof_C 	C 	0.185	0.945	0.843	-0.522
Mof_C 	C 	0.508	0.189	0.289	0.033
Mof_C 	C 	0.467	0.276	0.257	0.986
Mof_C 	C 	0.425	0.253	0.19	-1.466
Mof_C 	C 	0.394	0.316	0.291	-1.429
Mof_C 	C 	0.545	0.343	0.261	-1.513
Mof_C 	C 	0.651	0.799	0.302	-0.035
Mof_C 	C 	0.681	0.71	0.278	1.022
Mof_C 	C 	0.684	0.714	0.209	-1.483
Mof_C 	C 	0.769	0.674	0.314	-1.548
Mof_C 	C 	0.604	0.64	0.283	-1.469
Mof_C 	C 	0.716	0.985	0.504	0.14
Mof_C 	C 	0.782	0.004	0.566	0.586
Mof_C 	C 	0.791	0.913	0.604	-1.019
Mof_C 	C 	0.879	0.034	0.554	-0.847
Mof_C 	C 	0.736	0.08	0.6	-1.024
Mof_C 	C 	0.34	0.834	0.1728	0.002
Mof_C 	C 	0.418	0.865	0.2111	-0.032
Mof_C 	C 	0.416	0.991	0.155	-0.111
Mof_C 	C 	0.338	0.961	0.115	0.044
Mof_C 	C 	0.993	0.014	0.1166	0.086
Mof_C 	C 	0.063	0.952	0.1162	-0.109
Mof_C 	C 	0.035	0.954	0.0129	-0.107
Mof_C 	C 	0.963	0.018	0.0141	0.094
Mof_C 	C 	0.77	0.142	0.1871	0.03
Mof_C 	C 	0.712	0.111	0.2263	-0.028
Mof_C 	C 	0.673	0.99	0.1647	-0.216
Mof_C 	C 	0.728	0.022	0.125	0.221
Mof_C 	C 	0.455	0.236	0.55	-0.005
Mof_C 	C 	0.499	0.179	0.516	-0.023
Mof_C 	C 	0.539	0.297	0.463	-0.008
Mof_C 	C 	0.492	0.355	0.496	-0.025
Mof_C 	C 	0.713	0.128	0.952	0.18
Mof_C 	C 	0.656	0.057	0.909	0.525
Mof_C 	C 	0.639	0.97	0.943	-1.029
Mof_C 	C 	0.56	0.102	0.88	-0.886
Mof_C 	C 	0.708	0.037	0.854	-0.743
Mof_C 	C 	0.759	0.355	0.0606	0.283
Mof_C 	C 	0.732	0.431	0.103	0.258
Mof_C 	C 	0.645	0.397	0.13	-0.346
Mof_C 	C 	0.708	0.521	0.068	-0.682
Mof_C 	C 	0.815	0.445	0.157	-0.62
Mof_C 	C 	0.492	0.689	0.711	0.066
Mof_C 	C 	0.533	0.776	0.743	0.898
Mof_C 	C 	0.575	0.753	0.81	-1.361
Mof_C 	C 	0.606	0.816	0.709	-1.32
Mof_C 	C 	0.455	0.843	0.739	-1.397
Mof_C 	C 	0.349	0.299	0.698	-0.079
Mof_C 	C 	0.319	0.21	0.722	1.142
Mof_C 	C 	0.316	0.214	0.791	-1.625
Mof_C 	C 	0.231	0.174	0.686	-1.709
Mof_C 	C 	0.396	0.14	0.717	-1.615
Mof_C 	C 	0.284	0.485	0.496	0.277
Mof_C 	C 	0.218	0.504	0.434	0.465
Mof_C 	C 	0.209	0.413	0.396	-0.874
Mof_C 	C 	0.121	0.534	0.446	-0.904
Mof_C 	C 	0.264	0.58	0.4	-0.902
Mof_C 	C 	0.66	0.334	0.8272	-0.007
Mof_C 	C 	0.582	0.365	0.7889	-0.022
Mof_C 	C 	0.584	0.491	0.845	-0.002
Mof_C 	C 	0.662	0.461	0.885	-0.005
Mof_C 	C 	0.007	0.514	0.8834	0.018
Mof_C 	C 	0.937	0.452	0.8838	-0.043
Mof_C 	C 	0.965	0.454	0.9871	-0.039
Mof_C 	C 	0.037	0.518	0.9859	0.025
Mof_C 	C 	0.23	0.642	0.8129	-0.002
Mof_C 	C 	0.288	0.611	0.7737	-0.003
Mof_C 	C 	0.327	0.49	0.8353	-0.012
Mof_C 	C 	0.272	0.522	0.875	-0.004
Mof_C 	C 	0.545	0.736	0.45	-0.01
Mof_C 	C 	0.501	0.679	0.484	-0.022
Mof_C 	C 	0.461	0.797	0.537	-0.011
Mof_C 	C 	0.508	0.855	0.504	-0.025
Mof_N 	N 	0.301	0.881	0.1243	-0.227
Mof_N 	N 	0.458	0.944	0.2027	-0.205
Mof_N 	N 	0.943	0.047	0.066	-0.249
Mof_N 	N 	0.086	0.922	0.0635	-0.191
Mof_N 	N 	0.778	0.099	0.1367	-0.256
Mof_N 	N 	0.662	0.037	0.2155	-0.151
Mof_N 	N 	0.451	0.325	0.5409	-0.237
Mof_N 	N 	0.542	0.208	0.4713	-0.237
Mof_N 	N 	0.699	0.381	0.8757	-0.215
Mof_N 	N 	0.542	0.444	0.7973	-0.219
Mof_N 	N 	0.057	0.547	0.934	-0.229
Mof_N 	N 	0.914	0.422	0.9365	-0.21
Mof_N 	N 	0.222	0.599	0.8633	-0.216
Mof_N 	N 	0.338	0.537	0.7845	-0.214
Mof_N 	N 	0.549	0.825	0.4591	-0.24
Mof_N 	N 	0.458	0.708	0.5287	-0.237
Mof_O 	O 	0.2851	0.7068	0.0677	-0.426
Mof_O 	O 	0.0882	0.7353	0.9993	-0.672
Mof_O 	O 	0.242	0.5985	0.9981	-0.412
Mof_O 	O 	0.6501	0.021	0.3558	-0.769
Mof_O 	O 	0.229	0.8823	0.9914	-0.457
Mof_O 	O 	0.2329	0.7772	0.9193	-0.46
Mof_O 	O 	0.507	0.116	0.2612	-0.392
Mof_O 	O 	0.54	0.197	0.3452	-0.437
Mof_O 	O 	0.622	0.862	0.266	-0.39
Mof_O 	O 	0.656	0.804	0.3593	-0.404
Mof_O 	O 	0.734	0.921	0.476	-0.438
Mof_O 	O 	0.651	0.032	0.4886	-0.469
Mof_O 	O 	0.7149	0.2068	0.9323	-0.424
Mof_O 	O 	0.9118	0.2353	0.0007	-0.673
Mof_O 	O 	0.758	0.0985	0.0019	-0.399
Mof_O 	O 	0.3499	0.521	0.6442	-0.792
Mof_O 	O 	0.771	0.3823	0.0086	-0.444
Mof_O 	O 	0.7671	0.2772	0.0807	-0.451
Mof_O 	O 	0.493	0.616	0.7388	-0.416
Mof_O 	O 	0.46	0.697	0.6548	-0.449
Mof_O 	O 	0.378	0.362	0.734	-0.369
Mof_O 	O 	0.344	0.304	0.6407	-0.387
Mof_O 	O 	0.266	0.421	0.524	-0.465
Mof_O 	O 	0.349	0.532	0.5114	-0.543
_end
