data_functionalizedCrystal
_audit_creation_method	'EQeq! by Chris Wilmer'
_symmetry_space_group_name_H-M	'P1'
_symmetry_Int_Tables_number	1
_symmetry_cell_setting	triclinic
loop_
_symmetry_equiv_pos_as_xyz
  x,y,z
_cell_length_a	18.7447
_cell_length_b	18.7447
_cell_length_c	18.7447
_cell_angle_alpha	60
_cell_angle_beta	60
_cell_angle_gamma	60
loop_
_atom_site_label
_atom_site_type_symbol
_atom_site_fract_x
_atom_site_fract_y
_atom_site_fract_z
_atom_site_charge
Mof_Ca	Ca	0.5	0.5	0.5	1.617
Mof_Ca	Ca	-1.22056e-17	0	0.5	0.991
Mof_Ca	Ca	-4.88225e-17	0.5	-0	0.992
Mof_Ca	Ca	-1.22056e-17	0.5	0.5	1.302
Mof_Ca	Ca	0.5	0.5	-0	1.31
Mof_Ca	Ca	-0	0	-0	0.682
Mof_Ca	Ca	0.5	0	0.5	1.311
Mof_Ca	Ca	0.5	0	-0	1
Mof_Y 	Y 	0.75	0.25	0.25	1.625
Mof_Y 	Y 	0.75	0.25	0.75	1.636
Mof_Y 	Y 	0.75	0.75	0.25	1.636
Mof_Y 	Y 	0.25	0.25	0.25	1.614
Mof_Y 	Y 	0.25	0.75	0.75	1.635
Mof_Y 	Y 	0.25	0.75	0.25	1.624
Mof_Y 	Y 	0.25	0.25	0.75	1.624
Mof_Y 	Y 	0.75	0.75	0.75	1.645
Mof_H 	H 	0.5163	0.4155	0.3453	0.11
Mof_H 	H 	0.5757	0.4739	0.2953	0.107
Mof_H 	H 	0.9155	0.0163	0.7229	0.101
Mof_H 	H 	0.9739	0.0757	0.6551	0.14
Mof_H 	H 	0.8453	0.7229	0.0163	0.076
Mof_H 	H 	0.7953	0.6551	0.0757	0.077
Mof_H 	H 	0.2229	0.3453	0.4155	0.11
Mof_H 	H 	0.1551	0.2953	0.4739	0.091
Mof_H 	H 	0.5163	0.3453	0.7229	0.116
Mof_H 	H 	0.5757	0.2953	0.6551	0.108
Mof_H 	H 	0.9155	0.7229	0.3453	0.163
Mof_H 	H 	0.9739	0.6551	0.2953	0.177
Mof_H 	H 	0.8453	0.0163	0.4155	0.069
Mof_H 	H 	0.7953	0.0757	0.4739	0.076
Mof_H 	H 	0.2229	0.4155	0.0163	0.044
Mof_H 	H 	0.1551	0.4739	0.0757	0.052
Mof_H 	H 	0.5163	0.7229	0.4155	0.118
Mof_H 	H 	0.5757	0.6551	0.4739	0.113
Mof_H 	H 	0.9155	0.3453	0.0163	0.093
Mof_H 	H 	0.9739	0.2953	0.0757	0.134
Mof_H 	H 	0.8453	0.4155	0.7229	0.139
Mof_H 	H 	0.7953	0.4739	0.6551	0.118
Mof_H 	H 	0.2229	0.0163	0.3453	0.043
Mof_H 	H 	0.1551	0.0757	0.2953	0.046
Mof_H 	H 	0.5845	0.4837	0.1547	0.094
Mof_H 	H 	0.5261	0.4243	0.2047	0.111
Mof_H 	H 	0.9837	0.0845	0.7771	0.142
Mof_H 	H 	0.9243	0.0261	0.8449	0.122
Mof_H 	H 	0.2771	0.1547	0.4837	0.087
Mof_H 	H 	0.3449	0.2047	0.4243	0.109
Mof_H 	H 	0.6547	0.7771	0.0845	0.074
Mof_H 	H 	0.7047	0.8449	0.0261	0.079
Mof_H 	H 	0.6547	0.4837	0.7771	0.116
Mof_H 	H 	0.7047	0.4243	0.8449	0.137
Mof_H 	H 	0.2771	0.0845	0.1547	0.042
Mof_H 	H 	0.3449	0.0261	0.2047	0.047
Mof_H 	H 	0.9837	0.1547	0.0845	0.122
Mof_H 	H 	0.9243	0.2047	0.0261	0.102
Mof_H 	H 	0.5845	0.7771	0.4837	0.115
Mof_H 	H 	0.5261	0.8449	0.4243	0.132
Mof_H 	H 	0.2771	0.4837	0.0845	0.063
Mof_H 	H 	0.3449	0.4243	0.0261	0.047
Mof_H 	H 	0.6547	0.0845	0.4837	0.071
Mof_H 	H 	0.7047	0.0261	0.4243	0.056
Mof_H 	H 	0.5845	0.1547	0.7771	0.097
Mof_H 	H 	0.5261	0.2047	0.8449	0.133
Mof_H 	H 	0.9837	0.7771	0.1547	0.166
Mof_H 	H 	0.9243	0.8449	0.2047	0.182
Mof_H 	H 	0.4837	0.5845	0.6547	0.114
Mof_H 	H 	0.4243	0.5261	0.7047	0.116
Mof_H 	H 	0.0845	0.9837	0.2771	0.132
Mof_H 	H 	0.0261	0.9243	0.3449	0.097
Mof_H 	H 	0.1547	0.2771	0.9837	0.157
Mof_H 	H 	0.2047	0.3449	0.9243	0.16
Mof_H 	H 	0.7771	0.6547	0.5845	0.116
Mof_H 	H 	0.8449	0.7047	0.5261	0.138
Mof_H 	H 	0.4837	0.6547	0.2771	0.108
Mof_H 	H 	0.4243	0.7047	0.3449	0.114
Mof_H 	H 	0.0845	0.2771	0.6547	0.063
Mof_H 	H 	0.0261	0.3449	0.7047	0.052
Mof_H 	H 	0.1547	0.9837	0.5845	0.163
Mof_H 	H 	0.2047	0.9243	0.5261	0.162
Mof_H 	H 	0.7771	0.5845	0.9837	0.181
Mof_H 	H 	0.8449	0.5261	0.9243	0.18
Mof_H 	H 	0.4837	0.2771	0.5845	0.107
Mof_H 	H 	0.4243	0.3449	0.5261	0.109
Mof_H 	H 	0.0845	0.6547	0.9837	0.139
Mof_H 	H 	0.0261	0.7047	0.9243	0.104
Mof_H 	H 	0.1547	0.5845	0.2771	0.087
Mof_H 	H 	0.2047	0.5261	0.3449	0.109
Mof_H 	H 	0.7771	0.9837	0.6547	0.181
Mof_H 	H 	0.8449	0.9243	0.7047	0.183
Mof_H 	H 	0.4155	0.5163	0.8453	0.133
Mof_H 	H 	0.4739	0.5757	0.7953	0.118
Mof_H 	H 	0.0163	0.9155	0.2229	0.091
Mof_H 	H 	0.0757	0.9739	0.1551	0.121
Mof_H 	H 	0.7229	0.8453	0.5163	0.139
Mof_H 	H 	0.6551	0.7953	0.5757	0.119
Mof_H 	H 	0.3453	0.2229	0.9155	0.157
Mof_H 	H 	0.2953	0.1551	0.9739	0.161
Mof_H 	H 	0.3453	0.5163	0.2229	0.109
Mof_H 	H 	0.2953	0.5757	0.1551	0.092
Mof_H 	H 	0.7229	0.9155	0.8453	0.181
Mof_H 	H 	0.6551	0.9739	0.7953	0.183
Mof_H 	H 	0.0163	0.8453	0.9155	0.112
Mof_H 	H 	0.0757	0.7953	0.9739	0.141
Mof_H 	H 	0.4155	0.2229	0.5163	0.111
Mof_H 	H 	0.4739	0.1551	0.5757	0.097
Mof_H 	H 	0.7229	0.5163	0.9155	0.163
Mof_H 	H 	0.6551	0.5757	0.9739	0.18
Mof_H 	H 	0.3453	0.9155	0.5163	0.157
Mof_H 	H 	0.2953	0.9739	0.5757	0.175
Mof_H 	H 	0.4155	0.8453	0.2229	0.133
Mof_H 	H 	0.4739	0.7953	0.1551	0.103
Mof_H 	H 	0.0163	0.2229	0.8453	0.066
Mof_H 	H 	0.0757	0.1551	0.7953	0.058
Mof_C 	C 	0.57643	0.41437	0.31837	-0.264
Mof_C 	C 	0.62093	0.36025	0.38457	0.47
Mof_C 	C 	0.91437	0.07643	0.69083	-0.258
Mof_C 	C 	0.86025	0.12093	0.63425	0.446
Mof_C 	C 	0.81837	0.69083	0.07643	-0.204
Mof_C 	C 	0.88457	0.63425	0.12093	0.417
Mof_C 	C 	0.19083	0.31837	0.41437	-0.255
Mof_C 	C 	0.13425	0.38457	0.36025	0.453
Mof_C 	C 	0.57643	0.31837	0.69083	-0.268
Mof_C 	C 	0.62093	0.38457	0.63425	0.473
Mof_C 	C 	0.91437	0.69083	0.31837	-0.315
Mof_C 	C 	0.86025	0.63425	0.38457	0.486
Mof_C 	C 	0.81837	0.07643	0.41437	-0.2
Mof_C 	C 	0.88457	0.12093	0.36025	0.414
Mof_C 	C 	0.19083	0.41437	0.07643	-0.197
Mof_C 	C 	0.13425	0.36025	0.12093	0.412
Mof_C 	C 	0.57643	0.69083	0.41437	-0.272
Mof_C 	C 	0.62093	0.63425	0.36025	0.475
Mof_C 	C 	0.91437	0.31837	0.07643	-0.25
Mof_C 	C 	0.86025	0.38457	0.12093	0.441
Mof_C 	C 	0.81837	0.41437	0.69083	-0.264
Mof_C 	C 	0.88457	0.36025	0.63425	0.459
Mof_C 	C 	0.19083	0.07643	0.31837	-0.192
Mof_C 	C 	0.13425	0.12093	0.38457	0.41
Mof_C 	C 	0.58563	0.42357	0.18163	-0.261
Mof_C 	C 	0.63975	0.37907	0.11543	0.457
Mof_C 	C 	0.92357	0.08563	0.80917	-0.247
Mof_C 	C 	0.87907	0.13975	0.86575	0.43
Mof_C 	C 	0.30917	0.18163	0.42357	-0.255
Mof_C 	C 	0.36575	0.11543	0.37907	0.453
Mof_C 	C 	0.68163	0.80917	0.08563	-0.204
Mof_C 	C 	0.61543	0.86575	0.13975	0.418
Mof_C 	C 	0.68163	0.42357	0.80917	-0.265
Mof_C 	C 	0.61543	0.37907	0.86575	0.46
Mof_C 	C 	0.30917	0.08563	0.18163	-0.191
Mof_C 	C 	0.36575	0.13975	0.11543	0.41
Mof_C 	C 	0.92357	0.18163	0.08563	-0.245
Mof_C 	C 	0.87907	0.11543	0.13975	0.429
Mof_C 	C 	0.58563	0.80917	0.42357	-0.262
Mof_C 	C 	0.63975	0.86575	0.37907	0.458
Mof_C 	C 	0.30917	0.42357	0.08563	-0.201
Mof_C 	C 	0.36575	0.37907	0.13975	0.425
Mof_C 	C 	0.68163	0.08563	0.42357	-0.211
Mof_C 	C 	0.61543	0.13975	0.37907	0.431
Mof_C 	C 	0.58563	0.18163	0.80917	-0.254
Mof_C 	C 	0.63975	0.11543	0.86575	0.444
Mof_C 	C 	0.92357	0.80917	0.18163	-0.299
Mof_C 	C 	0.87907	0.86575	0.11543	0.457
Mof_C 	C 	0.42357	0.58563	0.68163	-0.272
Mof_C 	C 	0.37907	0.63975	0.61543	0.474
Mof_C 	C 	0.08563	0.92357	0.30917	-0.246
Mof_C 	C 	0.13975	0.87907	0.36575	0.44
Mof_C 	C 	0.18163	0.30917	0.92357	-0.301
Mof_C 	C 	0.11543	0.36575	0.87907	0.468
Mof_C 	C 	0.80917	0.68163	0.58563	-0.265
Mof_C 	C 	0.86575	0.61543	0.63975	0.46
Mof_C 	C 	0.42357	0.68163	0.30917	-0.267
Mof_C 	C 	0.37907	0.61543	0.36575	0.471
Mof_C 	C 	0.08563	0.30917	0.68163	-0.203
Mof_C 	C 	0.13975	0.36575	0.61543	0.428
Mof_C 	C 	0.18163	0.92357	0.58563	-0.306
Mof_C 	C 	0.11543	0.87907	0.63975	0.471
Mof_C 	C 	0.80917	0.58563	0.92357	-0.305
Mof_C 	C 	0.86575	0.63975	0.87907	0.471
Mof_C 	C 	0.42357	0.30917	0.58563	-0.264
Mof_C 	C 	0.37907	0.36575	0.63975	0.469
Mof_C 	C 	0.08563	0.68163	0.92357	-0.254
Mof_C 	C 	0.13975	0.61543	0.87907	0.445
Mof_C 	C 	0.18163	0.58563	0.30917	-0.255
Mof_C 	C 	0.11543	0.63975	0.36575	0.454
Mof_C 	C 	0.80917	0.92357	0.68163	-0.307
Mof_C 	C 	0.86575	0.87907	0.61543	0.472
Mof_C 	C 	0.41437	0.57643	0.81837	-0.261
Mof_C 	C 	0.36025	0.62093	0.88457	0.458
Mof_C 	C 	0.07643	0.91437	0.19083	-0.243
Mof_C 	C 	0.12093	0.86025	0.13425	0.426
Mof_C 	C 	0.69083	0.81837	0.57643	-0.265
Mof_C 	C 	0.63425	0.88457	0.62093	0.461
Mof_C 	C 	0.31837	0.19083	0.91437	-0.302
Mof_C 	C 	0.38457	0.13425	0.86025	0.468
Mof_C 	C 	0.31837	0.57643	0.19083	-0.255
Mof_C 	C 	0.38457	0.62093	0.13425	0.455
Mof_C 	C 	0.69083	0.91437	0.81837	-0.307
Mof_C 	C 	0.63425	0.86025	0.88457	0.472
Mof_C 	C 	0.07643	0.81837	0.91437	-0.244
Mof_C 	C 	0.12093	0.88457	0.86025	0.427
Mof_C 	C 	0.41437	0.19083	0.57643	-0.259
Mof_C 	C 	0.36025	0.13425	0.62093	0.457
Mof_C 	C 	0.69083	0.57643	0.91437	-0.317
Mof_C 	C 	0.63425	0.62093	0.86025	0.489
Mof_C 	C 	0.31837	0.91437	0.57643	-0.31
Mof_C 	C 	0.38457	0.86025	0.62093	0.484
Mof_C 	C 	0.41437	0.81837	0.19083	-0.252
Mof_C 	C 	0.36025	0.88457	0.13425	0.442
Mof_C 	C 	0.07643	0.19083	0.81837	-0.189
Mof_C 	C 	0.12093	0.13425	0.88457	0.398
Mof_O 	O 	0.68714	0.29528	0.37182	-0.407
Mof_O 	O 	0.58944	0.38116	0.4505	-0.465
Mof_O 	O 	0.79528	0.18714	0.64576	-0.403
Mof_O 	O 	0.88116	0.08944	0.5789	-0.387
Mof_O 	O 	0.87182	0.64576	0.18714	-0.375
Mof_O 	O 	0.9505	0.5789	0.08944	-0.34
Mof_O 	O 	0.14576	0.37182	0.29528	-0.428
Mof_O 	O 	0.0789	0.4505	0.38116	-0.479
Mof_O 	O 	0.68714	0.37182	0.64576	-0.407
Mof_O 	O 	0.58944	0.4505	0.5789	-0.464
Mof_O 	O 	0.79528	0.64576	0.37182	-0.407
Mof_O 	O 	0.88116	0.5789	0.4505	-0.393
Mof_O 	O 	0.87182	0.18714	0.29528	-0.374
Mof_O 	O 	0.9505	0.08944	0.38116	-0.34
Mof_O 	O 	0.14576	0.29528	0.18714	-0.425
Mof_O 	O 	0.0789	0.38116	0.08944	-0.477
Mof_O 	O 	0.68714	0.64576	0.29528	-0.408
Mof_O 	O 	0.58944	0.5789	0.38116	-0.466
Mof_O 	O 	0.79528	0.37182	0.18714	-0.401
Mof_O 	O 	0.88116	0.4505	0.08944	-0.387
Mof_O 	O 	0.87182	0.29528	0.64576	-0.38
Mof_O 	O 	0.9505	0.38116	0.5789	-0.346
Mof_O 	O 	0.14576	0.18714	0.37182	-0.423
Mof_O 	O 	0.0789	0.08944	0.4505	-0.474
Mof_O 	O 	0.70472	0.31286	0.12818	-0.429
Mof_O 	O 	0.61884	0.41056	0.0495	-0.492
Mof_O 	O 	0.81286	0.20472	0.85424	-0.366
Mof_O 	O 	0.91056	0.11884	0.9211	-0.255
Mof_O 	O 	0.35424	0.12818	0.31286	-0.43
Mof_O 	O 	0.4211	0.0495	0.41056	-0.495
Mof_O 	O 	0.62818	0.85424	0.20472	-0.374
Mof_O 	O 	0.5495	0.9211	0.11884	-0.342
Mof_O 	O 	0.62818	0.31286	0.85424	-0.383
Mof_O 	O 	0.5495	0.41056	0.9211	-0.365
Mof_O 	O 	0.35424	0.20472	0.12818	-0.421
Mof_O 	O 	0.4211	0.11884	0.0495	-0.474
Mof_O 	O 	0.81286	0.12818	0.20472	-0.414
Mof_O 	O 	0.91056	0.0495	0.11884	-0.382
Mof_O 	O 	0.70472	0.85424	0.31286	-0.381
Mof_O 	O 	0.61884	0.9211	0.41056	-0.363
Mof_O 	O 	0.35424	0.31286	0.20472	-0.405
Mof_O 	O 	0.4211	0.41056	0.11884	-0.448
Mof_O 	O 	0.62818	0.20472	0.31286	-0.407
Mof_O 	O 	0.5495	0.11884	0.41056	-0.449
Mof_O 	O 	0.70472	0.12818	0.85424	-0.397
Mof_O 	O 	0.61884	0.0495	0.9211	-0.385
Mof_O 	O 	0.81286	0.85424	0.12818	-0.391
Mof_O 	O 	0.91056	0.9211	0.0495	-0.3
Mof_O 	O 	0.31286	0.70472	0.62818	-0.412
Mof_O 	O 	0.41056	0.61884	0.5495	-0.466
Mof_O 	O 	0.20472	0.81286	0.35424	-0.394
Mof_O 	O 	0.11884	0.91056	0.4211	-0.356
Mof_O 	O 	0.12818	0.35424	0.81286	-0.42
Mof_O 	O 	0.0495	0.4211	0.91056	-0.403
Mof_O 	O 	0.85424	0.62818	0.70472	-0.379
Mof_O 	O 	0.9211	0.5495	0.61884	-0.36
Mof_O 	O 	0.31286	0.62818	0.35424	-0.412
Mof_O 	O 	0.41056	0.5495	0.4211	-0.468
Mof_O 	O 	0.20472	0.35424	0.62818	-0.402
Mof_O 	O 	0.11884	0.4211	0.5495	-0.446
Mof_O 	O 	0.12818	0.81286	0.70472	-0.42
Mof_O 	O 	0.0495	0.91056	0.61884	-0.402
Mof_O 	O 	0.85424	0.70472	0.81286	-0.372
Mof_O 	O 	0.9211	0.61884	0.91056	-0.277
Mof_O 	O 	0.31286	0.35424	0.70472	-0.41
Mof_O 	O 	0.41056	0.4211	0.61884	-0.466
Mof_O 	O 	0.20472	0.62818	0.81286	-0.396
Mof_O 	O 	0.11884	0.5495	0.91056	-0.357
Mof_O 	O 	0.12818	0.70472	0.35424	-0.426
Mof_O 	O 	0.0495	0.61884	0.4211	-0.491
Mof_O 	O 	0.85424	0.81286	0.62818	-0.374
Mof_O 	O 	0.9211	0.91056	0.5495	-0.277
Mof_O 	O 	0.29528	0.68714	0.87182	-0.376
Mof_O 	O 	0.38116	0.58944	0.9505	-0.346
Mof_O 	O 	0.18714	0.79528	0.14576	-0.419
Mof_O 	O 	0.08944	0.88116	0.0789	-0.4
Mof_O 	O 	0.64576	0.87182	0.68714	-0.377
Mof_O 	O 	0.5789	0.9505	0.58944	-0.347
Mof_O 	O 	0.37182	0.14576	0.79528	-0.422
Mof_O 	O 	0.4505	0.0789	0.88116	-0.403
Mof_O 	O 	0.37182	0.68714	0.14576	-0.423
Mof_O 	O 	0.4505	0.58944	0.0789	-0.474
Mof_O 	O 	0.64576	0.79528	0.87182	-0.376
Mof_O 	O 	0.5789	0.88116	0.9505	-0.281
Mof_O 	O 	0.18714	0.87182	0.79528	-0.37
Mof_O 	O 	0.08944	0.9505	0.88116	-0.272
Mof_O 	O 	0.29528	0.14576	0.68714	-0.424
Mof_O 	O 	0.38116	0.0789	0.58944	-0.476
Mof_O 	O 	0.64576	0.68714	0.79528	-0.404
Mof_O 	O 	0.5789	0.58944	0.88116	-0.393
Mof_O 	O 	0.37182	0.79528	0.68714	-0.402
Mof_O 	O 	0.4505	0.88116	0.58944	-0.392
Mof_O 	O 	0.29528	0.87182	0.14576	-0.396
Mof_O 	O 	0.38116	0.9505	0.0789	-0.358
Mof_O 	O 	0.18714	0.14576	0.87182	-0.391
Mof_O 	O 	0.08944	0.0789	0.9505	-0.353
Mof_O 	O 	0.6201	0.3799	0.25	-0.182
Mof_O 	O 	0.8799	0.1201	0.75	-0.177
Mof_O 	O 	0.75	0.75	0.1201	-0.204
Mof_O 	O 	0.25	0.25	0.3799	-0.187
Mof_O 	O 	0.6201	0.25	0.75	-0.179
Mof_O 	O 	0.8799	0.75	0.25	-0.15
Mof_O 	O 	0.75	0.1201	0.3799	-0.207
Mof_O 	O 	0.25	0.3799	0.1201	-0.216
Mof_O 	O 	0.6201	0.75	0.3799	-0.174
Mof_O 	O 	0.8799	0.25	0.1201	-0.185
Mof_O 	O 	0.75	0.3799	0.75	-0.171
Mof_O 	O 	0.25	0.1201	0.25	-0.222
Mof_O 	O 	0.3799	0.6201	0.75	-0.174
Mof_O 	O 	0.1201	0.8799	0.25	-0.186
Mof_O 	O 	0.25	0.25	0.8799	-0.157
Mof_O 	O 	0.75	0.75	0.6201	-0.171
Mof_O 	O 	0.3799	0.75	0.25	-0.178
Mof_O 	O 	0.1201	0.25	0.75	-0.213
Mof_O 	O 	0.25	0.8799	0.6201	-0.153
Mof_O 	O 	0.75	0.6201	0.8799	-0.146
Mof_O 	O 	0.3799	0.25	0.6201	-0.182
Mof_O 	O 	0.1201	0.75	0.8799	-0.178
Mof_O 	O 	0.25	0.6201	0.25	-0.187
Mof_O 	O 	0.75	0.8799	0.75	-0.144
_end
