data_functionalizedCrystal
_audit_creation_method	'EQeq! by Chris Wilmer'
_symmetry_space_group_name_H-M	'P1'
_symmetry_Int_Tables_number	1
_symmetry_cell_setting	triclinic
loop_
_symmetry_equiv_pos_as_xyz
  x,y,z
_cell_length_a	7.3352
_cell_length_b	11.32
_cell_length_c	17.676
_cell_angle_alpha	90
_cell_angle_beta	90.12
_cell_angle_gamma	90
loop_
_atom_site_label
_atom_site_type_symbol
_atom_site_fract_x
_atom_site_fract_y
_atom_site_fract_z
_atom_site_charge
Mof_Co	Co	-0	0.5	-0	1.033
Mof_Co	Co	4.52702e-33	0	0.5	1.052
Mof_Co	Co	0.5	0.5	-0	1.062
Mof_Co	Co	0.5	0	0.5	1.083
Mof_H 	H 	0.7094	0.4753	0.7329	0.055
Mof_H 	H 	0.9248	0.6995	0.5823	0.06
Mof_H 	H 	0.961	0.4922	0.8085	0.062
Mof_H 	H 	0.692	0.5832	0.6177	0.05
Mof_H 	H 	0.506	0.7951	0.6771	0.062
Mof_H 	H 	0.521	0.6901	0.792	0.065
Mof_H 	H 	0.2906	0.9753	0.7671	0.168
Mof_H 	H 	0.0752	0.1995	0.9177	0.102
Mof_H 	H 	0.039	0.9922	0.6915	0.21
Mof_H 	H 	0.308	0.0832	0.8823	0.004
Mof_H 	H 	0.494	0.2951	0.8229	0.042
Mof_H 	H 	0.479	0.1901	0.708	0.021
Mof_H 	H 	0.2906	0.5247	0.2671	0.033
Mof_H 	H 	0.0752	0.3005	0.4177	0.068
Mof_H 	H 	0.039	0.5078	0.1915	0.088
Mof_H 	H 	0.308	0.4168	0.3823	0.033
Mof_H 	H 	0.494	0.2049	0.3229	0.018
Mof_H 	H 	0.479	0.3099	0.208	0.014
Mof_H 	H 	0.7094	0.0247	0.2329	-0.083
Mof_H 	H 	0.9248	0.8005	0.0823	0.025
Mof_H 	H 	0.961	0.0078	0.3085	-0.046
Mof_H 	H 	0.692	0.9168	0.1177	0.083
Mof_H 	H 	0.506	0.7049	0.1771	0.041
Mof_H 	H 	0.521	0.8099	0.292	0.055
Mof_C 	C 	0.26333	0.62197	0.78913	-0.075
Mof_C 	C 	0.4006	0.74585	0.69327	-0.008
Mof_C 	C 	0.09259	0.67339	0.67346	-0.018
Mof_C 	C 	0.24434	0.74477	0.65072	-0.087
Mof_C 	C 	0.10196	0.61031	0.74355	-0.027
Mof_C 	C 	0.27349	0.57457	0.86923	0.367
Mof_C 	C 	0.23394	0.82853	0.58414	0.374
Mof_C 	C 	0.4093	0.68417	0.76254	-0.012
Mof_C 	C 	0.8049	0.52432	0.71842	-0.044
Mof_C 	C 	0.9336	0.65904	0.62796	0.026
Mof_C 	C 	0.9549	0.535	0.76365	0.032
Mof_C 	C 	0.7943	0.58736	0.64985	-0.038
Mof_C 	C 	0.73667	0.12197	0.71087	-0.159
Mof_C 	C 	0.5994	0.24585	0.80673	-0.02
Mof_C 	C 	0.90741	0.17339	0.82654	0.119
Mof_C 	C 	0.75566	0.24477	0.84928	-0.108
Mof_C 	C 	0.89804	0.11031	0.75645	0.16
Mof_C 	C 	0.72651	0.07457	0.63077	0.402
Mof_C 	C 	0.76606	0.32853	0.91586	0.383
Mof_C 	C 	0.5907	0.18417	0.73746	0.015
Mof_C 	C 	0.1951	0.02432	0.78158	-0.157
Mof_C 	C 	0.0664	0.15904	0.87204	-0.222
Mof_C 	C 	0.0451	0.035	0.73635	-0.319
Mof_C 	C 	0.2057	0.08736	0.85015	0.07
Mof_C 	C 	0.73667	0.37803	0.21087	-0.134
Mof_C 	C 	0.5994	0.25415	0.30673	-0.008
Mof_C 	C 	0.90741	0.32661	0.32654	0.114
Mof_C 	C 	0.75566	0.25523	0.34928	-0.127
Mof_C 	C 	0.89804	0.38969	0.25645	0.123
Mof_C 	C 	0.72651	0.42543	0.13077	0.397
Mof_C 	C 	0.76606	0.17147	0.41586	0.397
Mof_C 	C 	0.5907	0.31583	0.23746	-0.003
Mof_C 	C 	0.1951	0.47568	0.28158	0.001
Mof_C 	C 	0.0664	0.34096	0.37204	-0.187
Mof_C 	C 	0.0451	0.465	0.23635	-0.206
Mof_C 	C 	0.2057	0.41264	0.35015	-0.017
Mof_C 	C 	0.26333	0.87803	0.28913	-0.059
Mof_C 	C 	0.4006	0.75415	0.19327	-0.002
Mof_C 	C 	0.09259	0.82661	0.17346	-0.032
Mof_C 	C 	0.24434	0.75523	0.15072	-0.101
Mof_C 	C 	0.10196	0.88969	0.24355	-0.048
Mof_C 	C 	0.27349	0.92543	0.36923	0.369
Mof_C 	C 	0.23394	0.67147	0.08414	0.382
Mof_C 	C 	0.4093	0.81583	0.26254	-0.023
Mof_C 	C 	0.8049	0.97568	0.21842	0.126
Mof_C 	C 	0.9336	0.84096	0.12796	0.07
Mof_C 	C 	0.9549	0.965	0.26365	0.119
Mof_C 	C 	0.7943	0.91264	0.14985	-0.135
Mof_O 	O 	0.13034	0.58055	0.90803	-0.407
Mof_O 	O 	0.3778	0.8475	0.54748	-0.412
Mof_O 	O 	0.0823	0.87601	0.5729	-0.463
Mof_O 	O 	0.42577	0.53864	0.89176	-0.407
Mof_O 	O 	0.86966	0.08055	0.59197	-0.45
Mof_O 	O 	0.6222	0.3475	0.95252	-0.381
Mof_O 	O 	0.9177	0.37601	0.9271	-0.382
Mof_O 	O 	0.57423	0.03864	0.60824	-0.502
Mof_O 	O 	0.86966	0.41945	0.09197	-0.463
Mof_O 	O 	0.6222	0.1525	0.45252	-0.466
Mof_O 	O 	0.9177	0.12399	0.4271	-0.456
Mof_O 	O 	0.57423	0.46136	0.10824	-0.49
Mof_O 	O 	0.13034	0.91945	0.40803	-0.431
Mof_O 	O 	0.3778	0.6525	0.04748	-0.486
Mof_O 	O 	0.0823	0.62399	0.0729	-0.529
Mof_O 	O 	0.42577	0.96136	0.39176	-0.405
_end
