data_functionalizedCrystal
_audit_creation_method	'EQeq! by Chris Wilmer'
_symmetry_space_group_name_H-M	'P1'
_symmetry_Int_Tables_number	1
_symmetry_cell_setting	triclinic
loop_
_symmetry_equiv_pos_as_xyz
  x,y,z
_cell_length_a	24.1977
_cell_length_b	13.9528
_cell_length_c	25.1006
_cell_angle_alpha	90
_cell_angle_beta	96.677
_cell_angle_gamma	90
loop_
_atom_site_label
_atom_site_type_symbol
_atom_site_fract_x
_atom_site_fract_y
_atom_site_fract_z
_atom_site_charge
Mof_Cd	Cd	0.22996	0.2364	0.92103	0.459
Mof_O 	O 	0.2282	0.2322	0.8282	-0.282
Mof_O 	O 	0.8229	0.269	0.4275	-0.289
Mof_O 	O 	0.994	0.2641	0.339	-0.294
Mof_N 	N 	0.2286	0.4016	0.9251	-0.142
Mof_O 	O 	0.1191	0.242	0.5618	-0.25
Mof_O 	O 	0.1453	0.2355	0.855	-0.271
Mof_O 	O 	0.8273	0.2392	0.5137	-0.296
Mof_N 	N 	0.2257	0.0717	0.9285	-0.16
Mof_C 	C 	0.1512	0.2375	0.7605	-0.064
Mof_C 	C 	0.0946	0.2415	0.7468	-0.022
Mof_H 	H 	0.0712	0.2449	0.7736	0.044
Mof_C 	C 	0.072	0.2403	0.6934	-0.036
Mof_H 	H 	0.0336	0.2392	0.6847	0.034
Mof_C 	C 	0.1064	0.2407	0.653	-0.049
Mof_C 	C 	0.1627	0.2388	0.6677	-0.036
Mof_H 	H 	0.1865	0.2387	0.6412	0.05
Mof_C 	C 	0.1851	0.237	0.7208	-0.024
Mof_H 	H 	0.2235	0.2355	0.7295	0.048
Mof_C 	C 	0.0015	0.2495	0.5282	0.14
Mof_C 	C 	0.9438	0.2497	0.525	-0.111
Mof_H 	H 	0.9266	0.2468	0.5562	0.089
Mof_C 	C 	0.9118	0.2543	0.4758	-0.025
Mof_C 	C 	0.9376	0.2594	0.4292	-0.036
Mof_H 	H 	0.9161	0.2627	0.396	0.066
Mof_C 	C 	0.9951	0.2594	0.4321	-0.017
Mof_C 	C 	0.0272	0.2535	0.4816	-0.126
Mof_H 	H 	0.0658	0.2523	0.4835	0.109
Mof_C 	C 	0.1761	0.235	0.8181	0.285
Mof_C 	C 	0.8493	0.2541	0.4725	0.309
Mof_C 	C 	0.0233	0.2643	0.3823	0.343
Mof_C 	C 	0.0859	0.2446	0.5943	0.229
Mof_C 	C 	0.2694	0.0185	0.928	0.095
Mof_H 	H 	0.3039	0.0474	0.9271	0.011
Mof_C 	C 	0.266	0.9169	0.9289	-0.155
Mof_H 	H 	0.2982	0.8808	0.9284	0.112
Mof_C 	C 	0.217	0.872	0.9305	0.106
Mof_C 	C 	0.1715	0.9286	0.9327	-0.204
Mof_H 	H 	0.1368	0.9015	0.9354	0.103
Mof_C 	C 	0.1775	0.0253	0.931	0.119
Mof_H 	H 	0.1456	0.0623	0.9317	0.004
Mof_C 	C 	0.2021	0.77	0.9279	0.245
Mof_H 	H 	0.1649	0.7517	0.9228	0.272
Mof_C 	C 	0.2432	0.7017	0.9331	0.356
Mof_H 	H 	0.2801	0.7213	0.9387	0.223
Mof_C 	C 	0.1816	0.4492	0.9283	0.05
Mof_H 	H 	0.1484	0.416	0.9291	0.025
Mof_C 	C 	0.1821	0.5507	0.9303	-0.075
Mof_H 	H 	0.149	0.5837	0.9319	0.087
Mof_C 	C 	0.231	0.6014	0.93	-0.006
Mof_C 	C 	0.279	0.5484	0.9257	-0.119
Mof_H 	H 	0.3128	0.5793	0.9239	0.07
Mof_C 	C 	0.276	0.4504	0.9242	0.071
Mof_H 	H 	0.3087	0.416	0.9225	0.017
Mof_N 	N 	0.0309	0.2468	0.5804	-0.247
Mof_H 	H 	0.0108	0.2466	0.6065	0.131
Mof_C 	C 	0.2271	0.0061	0.2668	-0.045
Mof_H 	H 	0.2282	0.9574	0.2922	0.05
Mof_C 	C 	0.2718	0.0206	0.2427	-0.039
Mof_H 	H 	0.2699	0.0603	0.2128	0.045
Mof_C 	C 	0.4227	0.9427	0.2997	0.018
Mof_H 	H 	0.4512	0.9468	0.3278	0.035
Mof_C 	C 	0.3702	0.9785	0.3058	-0.087
Mof_H 	H 	0.3635	0.0065	0.3381	0.066
Mof_C 	C 	0.3276	0.9723	0.2637	0.045
Mof_C 	C 	0.3375	0.9304	0.2155	-0.072
Mof_H 	H 	0.309	0.9263	0.1874	0.056
Mof_C 	C 	0.39	0.8946	0.2094	0.034
Mof_H 	H 	0.3966	0.8666	0.1771	0.043
Mof_N 	N 	0.4326	0.9008	0.2515	-0.063
Mof_N 	N 	0.0777	0.1712	0.2531	-0.1
Mof_C 	C 	0.1197	0.1996	0.2231	0.056
Mof_H 	H 	0.1154	0.2546	0.2022	0.007
Mof_C 	C 	0.1681	0.1456	0.2245	-0.109
Mof_H 	H 	0.1962	0.1646	0.2044	0.083
Mof_C 	C 	0.1746	0.0633	0.2557	0.032
Mof_C 	C 	0.1326	0.0349	0.2857	-0.06
Mof_H 	H 	0.1369	0.9799	0.3067	0.053
Mof_C 	C 	0.0841	0.0889	0.2844	0.012
Mof_H 	H 	0.0561	0.0699	0.3044	0.03
Mof_O 	O 	0.0708	0.304	0.3874	-0.165
Mof_C 	C 	0.2425	0.7609	0.9343	-0.381
Mof_H 	H 	0.2796	0.7423	0.9406	-0.175
Mof_C 	C 	0.2021	0.7104	0.9269	-0.287
Mof_H 	H 	0.1647	0.7274	0.9211	-0.208
Mof_C 	C 	0.2262	0.0071	0.2379	-0.032
Mof_H 	H 	0.2289	0.9814	0.2041	0.037
Mof_C 	C 	0.2728	0	0.2717	-0.062
Mof_H 	H 	0.2754	0.013	0.3082	0.051
Mof_C 	C 	0.4136	0.9468	0.216	0.036
Mof_H 	H 	0.4418	0.9672	0.1965	0.023
Mof_C 	C 	0.3638	0.9974	0.213	-0.102
Mof_H 	H 	0.3588	0.0518	0.1916	0.072
Mof_C 	C 	0.3216	0.9668	0.2421	0.071
Mof_C 	C 	0.3291	0.8856	0.2742	-0.128
Mof_H 	H 	0.3009	0.8651	0.2936	0.091
Mof_C 	C 	0.3788	0.8349	0.2771	0.061
Mof_H 	H 	0.3839	0.7805	0.2986	0.009
Mof_N 	N 	0.4211	0.8655	0.2481	-0.091
Mof_N 	N 	0.0679	0.1358	0.2508	-0.049
Mof_C 	C 	0.0774	0.0861	0.2047	0.017
Mof_H 	H 	0.0495	0.0819	0.176	0.033
Mof_C 	C 	0.1286	0.0427	0.2015	-0.091
Mof_H 	H 	0.135	0.0095	0.1707	0.064
Mof_C 	C 	0.1704	0.049	0.2444	0.06
Mof_C 	C 	0.1609	0.0987	0.2904	-0.086
Mof_H 	H 	0.1888	0.1028	0.3191	0.063
Mof_C 	C 	0.1096	0.142	0.2936	0.042
Mof_H 	H 	0.1033	0.1753	0.3245	0.04
Mof_O 	O 	0.0717	0.232	0.3851	-0.189
Mof_Cd	Cd	0.72996	0.7364	0.92103	0.458
Mof_O 	O 	0.7282	0.7322	0.8282	-0.283
Mof_O 	O 	0.3229	0.769	0.4275	-0.291
Mof_O 	O 	0.494	0.7641	0.339	-0.312
Mof_N 	N 	0.7286	0.9016	0.9251	-0.141
Mof_O 	O 	0.6191	0.742	0.5618	-0.251
Mof_O 	O 	0.6453	0.7355	0.855	-0.271
Mof_O 	O 	0.3273	0.7392	0.5137	-0.296
Mof_N 	N 	0.7257	0.5717	0.9285	-0.158
Mof_C 	C 	0.6512	0.7375	0.7605	-0.064
Mof_C 	C 	0.5946	0.7415	0.7468	-0.022
Mof_H 	H 	0.5712	0.7449	0.7736	0.045
Mof_C 	C 	0.572	0.7403	0.6934	-0.036
Mof_H 	H 	0.5336	0.7392	0.6847	0.036
Mof_C 	C 	0.6064	0.7407	0.653	-0.049
Mof_C 	C 	0.6627	0.7388	0.6677	-0.037
Mof_H 	H 	0.6865	0.7387	0.6412	0.05
Mof_C 	C 	0.6851	0.737	0.7208	-0.024
Mof_H 	H 	0.7235	0.7355	0.7295	0.048
Mof_C 	C 	0.5015	0.7495	0.5282	0.143
Mof_C 	C 	0.4438	0.7497	0.525	-0.118
Mof_H 	H 	0.4266	0.7468	0.5562	0.089
Mof_C 	C 	0.4118	0.7543	0.4758	-0.029
Mof_C 	C 	0.4376	0.7594	0.4292	-0.023
Mof_H 	H 	0.4161	0.7627	0.396	0.06
Mof_C 	C 	0.4951	0.7594	0.4321	-0.048
Mof_C 	C 	0.5272	0.7535	0.4816	-0.104
Mof_H 	H 	0.5658	0.7523	0.4835	0.102
Mof_C 	C 	0.6761	0.735	0.8181	0.285
Mof_C 	C 	0.3493	0.7541	0.4725	0.31
Mof_C 	C 	0.5233	0.7643	0.3823	0.374
Mof_C 	C 	0.5859	0.7446	0.5943	0.23
Mof_C 	C 	0.7694	0.5185	0.928	0.09
Mof_H 	H 	0.8039	0.5474	0.9271	0.013
Mof_C 	C 	0.766	0.4169	0.9289	-0.15
Mof_H 	H 	0.7982	0.3808	0.9284	0.11
Mof_C 	C 	0.717	0.372	0.9305	0.103
Mof_C 	C 	0.6715	0.4286	0.9327	-0.197
Mof_H 	H 	0.6368	0.4015	0.9354	0.102
Mof_C 	C 	0.6775	0.5253	0.931	0.113
Mof_H 	H 	0.6456	0.5623	0.9317	0.006
Mof_C 	C 	0.7021	0.27	0.9279	0.238
Mof_H 	H 	0.6649	0.2517	0.9228	0.266
Mof_C 	C 	0.7432	0.2017	0.9331	0.347
Mof_H 	H 	0.7801	0.2213	0.9387	0.218
Mof_C 	C 	0.6816	0.9492	0.9283	0.046
Mof_H 	H 	0.6484	0.916	0.9291	0.027
Mof_C 	C 	0.6821	0.0507	0.9303	-0.072
Mof_H 	H 	0.649	0.0837	0.9319	0.087
Mof_C 	C 	0.731	0.1014	0.93	-0.006
Mof_C 	C 	0.779	0.0484	0.9257	-0.114
Mof_H 	H 	0.8128	0.0793	0.9239	0.069
Mof_C 	C 	0.776	0.9504	0.9242	0.066
Mof_H 	H 	0.8087	0.916	0.9225	0.019
Mof_N 	N 	0.5309	0.7468	0.5804	-0.247
Mof_H 	H 	0.5108	0.7466	0.6065	0.133
Mof_C 	C 	0.7271	0.5061	0.2668	-0.047
Mof_H 	H 	0.7282	0.4574	0.2922	0.052
Mof_C 	C 	0.7718	0.5206	0.2427	-0.039
Mof_H 	H 	0.7699	0.5603	0.2128	0.044
Mof_C 	C 	0.9227	0.4427	0.2997	0.016
Mof_H 	H 	0.9512	0.4468	0.3278	0.038
Mof_C 	C 	0.8702	0.4785	0.3058	-0.082
Mof_H 	H 	0.8635	0.5065	0.3381	0.062
Mof_C 	C 	0.8276	0.4723	0.2637	0.046
Mof_C 	C 	0.8375	0.4304	0.2155	-0.072
Mof_H 	H 	0.809	0.4263	0.1874	0.056
Mof_C 	C 	0.89	0.3946	0.2094	0.028
Mof_H 	H 	0.8966	0.3666	0.1771	0.046
Mof_N 	N 	0.9326	0.4008	0.2515	-0.063
Mof_N 	N 	0.5777	0.6712	0.2531	-0.105
Mof_C 	C 	0.6197	0.6996	0.2231	0.057
Mof_H 	H 	0.6154	0.7546	0.2022	0.007
Mof_C 	C 	0.6681	0.6456	0.2245	-0.111
Mof_H 	H 	0.6962	0.6646	0.2044	0.084
Mof_C 	C 	0.6746	0.5633	0.2557	0.033
Mof_C 	C 	0.6326	0.5349	0.2857	-0.066
Mof_H 	H 	0.6369	0.4799	0.3067	0.058
Mof_C 	C 	0.5841	0.5889	0.2844	0.01
Mof_H 	H 	0.5561	0.5699	0.3044	0.032
Mof_O 	O 	0.5708	0.804	0.3874	-0.168
Mof_C 	C 	0.7425	0.2609	0.9343	-0.371
Mof_H 	H 	0.7796	0.2423	0.9406	-0.17
Mof_C 	C 	0.7021	0.2104	0.9269	-0.28
Mof_H 	H 	0.6647	0.2274	0.9211	-0.201
Mof_C 	C 	0.7262	0.5071	0.2379	-0.034
Mof_H 	H 	0.7289	0.4814	0.2041	0.04
Mof_C 	C 	0.7728	0.5	0.2717	-0.062
Mof_H 	H 	0.7754	0.513	0.3082	0.05
Mof_C 	C 	0.9136	0.4468	0.216	0.039
Mof_H 	H 	0.9418	0.4672	0.1965	0.025
Mof_C 	C 	0.8638	0.4974	0.213	-0.098
Mof_H 	H 	0.8588	0.5518	0.1916	0.069
Mof_C 	C 	0.8216	0.4668	0.2421	0.069
Mof_C 	C 	0.8291	0.3856	0.2742	-0.129
Mof_H 	H 	0.8009	0.3651	0.2936	0.091
Mof_C 	C 	0.8788	0.3349	0.2771	0.061
Mof_H 	H 	0.8839	0.2805	0.2986	0.01
Mof_N 	N 	0.9211	0.3655	0.2481	-0.089
Mof_N 	N 	0.5679	0.6358	0.2508	-0.044
Mof_C 	C 	0.5774	0.5861	0.2047	0.016
Mof_H 	H 	0.5495	0.5819	0.176	0.035
Mof_C 	C 	0.6286	0.5427	0.2015	-0.09
Mof_H 	H 	0.635	0.5095	0.1707	0.063
Mof_C 	C 	0.6704	0.549	0.2444	0.06
Mof_C 	C 	0.6609	0.5987	0.2904	-0.083
Mof_H 	H 	0.6888	0.6028	0.3191	0.061
Mof_C 	C 	0.6096	0.642	0.2936	0.044
Mof_H 	H 	0.6033	0.6753	0.3245	0.04
Mof_O 	O 	0.5717	0.732	0.3851	-0.193
Mof_Cd	Cd	0.77004	0.2364	0.57897	0.458
Mof_O 	O 	0.7718	0.2322	0.6718	-0.283
Mof_O 	O 	0.1771	0.269	0.0725	-0.291
Mof_O 	O 	0.006	0.2641	0.161	-0.325
Mof_N 	N 	0.7714	0.4016	0.5749	-0.143
Mof_O 	O 	0.8809	0.242	0.9382	-0.251
Mof_O 	O 	0.8547	0.2355	0.645	-0.27
Mof_O 	O 	0.1727	0.2392	0.9863	-0.296
Mof_N 	N 	0.7743	0.0717	0.5715	-0.16
Mof_C 	C 	0.8488	0.2375	0.7395	-0.063
Mof_C 	C 	0.9054	0.2415	0.7532	-0.022
Mof_H 	H 	0.9288	0.2449	0.7264	0.048
Mof_C 	C 	0.928	0.2403	0.8066	-0.035
Mof_H 	H 	0.9664	0.2392	0.8153	0.039
Mof_C 	C 	0.8936	0.2407	0.847	-0.049
Mof_C 	C 	0.8373	0.2388	0.8323	-0.036
Mof_H 	H 	0.8135	0.2387	0.8588	0.05
Mof_C 	C 	0.8149	0.237	0.7792	-0.024
Mof_H 	H 	0.7765	0.2355	0.7705	0.048
Mof_C 	C 	0.9985	0.2495	0.9718	0.147
Mof_C 	C 	0.0562	0.2497	0.975	-0.126
Mof_H 	H 	0.0734	0.2468	0.9438	0.09
Mof_C 	C 	0.0882	0.2543	0.0242	-0.033
Mof_C 	C 	0.0624	0.2594	0.0708	-0.01
Mof_H 	H 	0.0839	0.2627	0.104	0.056
Mof_C 	C 	0.0049	0.2594	0.0679	-0.078
Mof_C 	C 	0.9728	0.2535	0.0184	-0.082
Mof_H 	H 	0.9342	0.2523	0.0165	0.096
Mof_C 	C 	0.8239	0.235	0.6819	0.284
Mof_C 	C 	0.1507	0.2541	0.0275	0.311
Mof_C 	C 	0.9767	0.2643	0.1177	0.403
Mof_C 	C 	0.9141	0.2446	0.9057	0.231
Mof_C 	C 	0.7306	0.0185	0.572	0.095
Mof_H 	H 	0.6961	0.0474	0.5729	0.011
Mof_C 	C 	0.734	0.9169	0.5711	-0.156
Mof_H 	H 	0.7018	0.8808	0.5716	0.112
Mof_C 	C 	0.783	0.872	0.5695	0.107
Mof_C 	C 	0.8285	0.9286	0.5673	-0.204
Mof_H 	H 	0.8632	0.9015	0.5646	0.105
Mof_C 	C 	0.8225	0.0253	0.569	0.12
Mof_H 	H 	0.8544	0.0623	0.5683	0.005
Mof_C 	C 	0.7979	0.77	0.5721	0.246
Mof_H 	H 	0.8351	0.7517	0.5772	0.273
Mof_C 	C 	0.7568	0.7017	0.5669	0.357
Mof_H 	H 	0.7199	0.7213	0.5613	0.223
Mof_C 	C 	0.8184	0.4492	0.5717	0.05
Mof_H 	H 	0.8516	0.416	0.5709	0.027
Mof_C 	C 	0.8179	0.5507	0.5697	-0.075
Mof_H 	H 	0.851	0.5837	0.5681	0.089
Mof_C 	C 	0.769	0.6014	0.57	-0.006
Mof_C 	C 	0.721	0.5484	0.5743	-0.119
Mof_H 	H 	0.6872	0.5793	0.5761	0.07
Mof_C 	C 	0.724	0.4504	0.5758	0.071
Mof_H 	H 	0.6913	0.416	0.5775	0.017
Mof_N 	N 	0.9691	0.2468	0.9196	-0.248
Mof_H 	H 	0.9892	0.2466	0.8935	0.136
Mof_C 	C 	0.7729	0.0061	0.2332	-0.044
Mof_H 	H 	0.7718	0.9574	0.2078	0.05
Mof_C 	C 	0.7282	0.0206	0.2573	-0.039
Mof_H 	H 	0.7301	0.0603	0.2872	0.045
Mof_C 	C 	0.5773	0.9427	0.2003	0.018
Mof_H 	H 	0.5488	0.9468	0.1722	0.035
Mof_C 	C 	0.6298	0.9785	0.1942	-0.087
Mof_H 	H 	0.6365	0.0065	0.1619	0.066
Mof_C 	C 	0.6724	0.9723	0.2363	0.046
Mof_C 	C 	0.6625	0.9304	0.2845	-0.072
Mof_H 	H 	0.691	0.9263	0.3126	0.056
Mof_C 	C 	0.61	0.8946	0.2906	0.034
Mof_H 	H 	0.6034	0.8666	0.3229	0.043
Mof_N 	N 	0.5674	0.9008	0.2485	-0.063
Mof_N 	N 	0.9223	0.1712	0.2469	-0.1
Mof_C 	C 	0.8803	0.1996	0.2769	0.057
Mof_H 	H 	0.8846	0.2546	0.2978	0.006
Mof_C 	C 	0.8319	0.1456	0.2755	-0.109
Mof_H 	H 	0.8038	0.1646	0.2956	0.083
Mof_C 	C 	0.8254	0.0633	0.2443	0.032
Mof_C 	C 	0.8674	0.0349	0.2143	-0.061
Mof_H 	H 	0.8631	0.9799	0.1933	0.055
Mof_C 	C 	0.9159	0.0889	0.2156	0.013
Mof_H 	H 	0.9439	0.0699	0.1956	0.034
Mof_O 	O 	0.9292	0.304	0.1126	-0.171
Mof_C 	C 	0.7575	0.7609	0.5657	-0.381
Mof_H 	H 	0.7204	0.7423	0.5594	-0.176
Mof_C 	C 	0.7979	0.7104	0.5731	-0.287
Mof_H 	H 	0.8353	0.7274	0.5789	-0.208
Mof_C 	C 	0.7738	0.0071	0.2621	-0.032
Mof_H 	H 	0.7711	0.9814	0.2959	0.037
Mof_C 	C 	0.7272	5.99814e-33	0.2283	-0.062
Mof_H 	H 	0.7246	0.013	0.1918	0.051
Mof_C 	C 	0.5864	0.9468	0.284	0.036
Mof_H 	H 	0.5582	0.9672	0.3035	0.023
Mof_C 	C 	0.6362	0.9974	0.287	-0.102
Mof_H 	H 	0.6412	0.0518	0.3084	0.072
Mof_C 	C 	0.6784	0.9668	0.2579	0.071
Mof_C 	C 	0.6709	0.8856	0.2258	-0.128
Mof_H 	H 	0.6991	0.8651	0.2064	0.091
Mof_C 	C 	0.6212	0.8349	0.2229	0.061
Mof_H 	H 	0.6161	0.7805	0.2014	0.009
Mof_N 	N 	0.5789	0.8655	0.2519	-0.091
Mof_N 	N 	0.9321	0.1358	0.2492	-0.046
Mof_C 	C 	0.9226	0.0861	0.2953	0.016
Mof_H 	H 	0.9505	0.0819	0.324	0.038
Mof_C 	C 	0.8714	0.0427	0.2985	-0.089
Mof_H 	H 	0.865	0.0095	0.3293	0.064
Mof_C 	C 	0.8296	0.049	0.2556	0.059
Mof_C 	C 	0.8391	0.0987	0.2096	-0.083
Mof_H 	H 	0.8112	0.1028	0.1809	0.062
Mof_C 	C 	0.8904	0.142	0.2064	0.039
Mof_H 	H 	0.8967	0.1753	0.1755	0.043
Mof_O 	O 	0.9283	0.232	0.1149	-0.197
Mof_Cd	Cd	0.27004	0.7364	0.57897	0.458
Mof_O 	O 	0.2718	0.7322	0.6718	-0.283
Mof_O 	O 	0.6771	0.769	0.0725	-0.291
Mof_O 	O 	0.506	0.7641	0.161	-0.312
Mof_N 	N 	0.2714	0.9016	0.5749	-0.141
Mof_O 	O 	0.3809	0.742	0.9382	-0.251
Mof_O 	O 	0.3547	0.7355	0.645	-0.271
Mof_O 	O 	0.6727	0.7392	0.9863	-0.296
Mof_N 	N 	0.2743	0.5717	0.5715	-0.158
Mof_C 	C 	0.3488	0.7375	0.7395	-0.064
Mof_C 	C 	0.4054	0.7415	0.7532	-0.022
Mof_H 	H 	0.4288	0.7449	0.7264	0.045
Mof_C 	C 	0.428	0.7403	0.8066	-0.036
Mof_H 	H 	0.4664	0.7392	0.8153	0.036
Mof_C 	C 	0.3936	0.7407	0.847	-0.049
Mof_C 	C 	0.3373	0.7388	0.8323	-0.037
Mof_H 	H 	0.3135	0.7387	0.8588	0.05
Mof_C 	C 	0.3149	0.737	0.7792	-0.024
Mof_H 	H 	0.2765	0.7355	0.7705	0.048
Mof_C 	C 	0.4985	0.7495	0.9718	0.143
Mof_C 	C 	0.5562	0.7497	0.975	-0.118
Mof_H 	H 	0.5734	0.7468	0.9438	0.089
Mof_C 	C 	0.5882	0.7543	0.0242	-0.029
Mof_C 	C 	0.5624	0.7594	0.0708	-0.023
Mof_H 	H 	0.5839	0.7627	0.104	0.06
Mof_C 	C 	0.5049	0.7594	0.0679	-0.048
Mof_C 	C 	0.4728	0.7535	0.0184	-0.104
Mof_H 	H 	0.4342	0.7523	0.0165	0.102
Mof_C 	C 	0.3239	0.735	0.6819	0.285
Mof_C 	C 	0.6507	0.7541	0.0275	0.31
Mof_C 	C 	0.4767	0.7643	0.1177	0.374
Mof_C 	C 	0.4141	0.7446	0.9057	0.23
Mof_C 	C 	0.2306	0.5185	0.572	0.09
Mof_H 	H 	0.1961	0.5474	0.5729	0.012
Mof_C 	C 	0.234	0.4169	0.5711	-0.15
Mof_H 	H 	0.2018	0.3808	0.5716	0.11
Mof_C 	C 	0.283	0.372	0.5695	0.103
Mof_C 	C 	0.3285	0.4286	0.5673	-0.197
Mof_H 	H 	0.3632	0.4015	0.5646	0.102
Mof_C 	C 	0.3225	0.5253	0.569	0.113
Mof_H 	H 	0.3544	0.5623	0.5683	0.006
Mof_C 	C 	0.2979	0.27	0.5721	0.238
Mof_H 	H 	0.3351	0.2517	0.5772	0.266
Mof_C 	C 	0.2568	0.2017	0.5669	0.346
Mof_H 	H 	0.2199	0.2213	0.5613	0.218
Mof_C 	C 	0.3184	0.9492	0.5717	0.046
Mof_H 	H 	0.3516	0.916	0.5709	0.027
Mof_C 	C 	0.3179	0.0507	0.5697	-0.071
Mof_H 	H 	0.351	0.0837	0.5681	0.087
Mof_C 	C 	0.269	0.1014	0.57	-0.007
Mof_C 	C 	0.221	0.0484	0.5743	-0.114
Mof_H 	H 	0.1872	0.0793	0.5761	0.069
Mof_C 	C 	0.224	0.9504	0.5758	0.066
Mof_H 	H 	0.1913	0.916	0.5775	0.019
Mof_N 	N 	0.4691	0.7468	0.9196	-0.247
Mof_H 	H 	0.4892	0.7466	0.8935	0.133
Mof_C 	C 	0.2729	0.5061	0.2332	-0.047
Mof_H 	H 	0.2718	0.4574	0.2078	0.052
Mof_C 	C 	0.2282	0.5206	0.2573	-0.04
Mof_H 	H 	0.2301	0.5603	0.2872	0.045
Mof_C 	C 	0.0773	0.4427	0.2003	0.017
Mof_H 	H 	0.0488	0.4468	0.1722	0.034
Mof_C 	C 	0.1298	0.4785	0.1942	-0.084
Mof_H 	H 	0.1365	0.5065	0.1619	0.063
Mof_C 	C 	0.1724	0.4723	0.2363	0.048
Mof_C 	C 	0.1625	0.4304	0.2845	-0.074
Mof_H 	H 	0.191	0.4263	0.3126	0.057
Mof_C 	C 	0.11	0.3946	0.2906	0.032
Mof_H 	H 	0.1034	0.3666	0.3229	0.043
Mof_N 	N 	0.0674	0.4008	0.2485	-0.066
Mof_N 	N 	0.4223	0.6712	0.2469	-0.105
Mof_C 	C 	0.3803	0.6996	0.2769	0.057
Mof_H 	H 	0.3846	0.7546	0.2978	0.007
Mof_C 	C 	0.3319	0.6456	0.2755	-0.111
Mof_H 	H 	0.3038	0.6646	0.2956	0.084
Mof_C 	C 	0.3254	0.5633	0.2443	0.033
Mof_C 	C 	0.3674	0.5349	0.2143	-0.066
Mof_H 	H 	0.3631	0.4799	0.1933	0.058
Mof_C 	C 	0.4159	0.5889	0.2156	0.01
Mof_H 	H 	0.4439	0.5699	0.1956	0.032
Mof_O 	O 	0.4292	0.804	0.1126	-0.168
Mof_C 	C 	0.2575	0.2609	0.5657	-0.371
Mof_H 	H 	0.2204	0.2423	0.5594	-0.17
Mof_C 	C 	0.2979	0.2104	0.5731	-0.279
Mof_H 	H 	0.3353	0.2274	0.5789	-0.201
Mof_C 	C 	0.2738	0.5071	0.2621	-0.034
Mof_H 	H 	0.2711	0.4814	0.2959	0.04
Mof_C 	C 	0.2272	0.5	0.2283	-0.061
Mof_H 	H 	0.2246	0.513	0.1918	0.05
Mof_C 	C 	0.0864	0.4468	0.284	0.037
Mof_H 	H 	0.0582	0.4672	0.3035	0.021
Mof_C 	C 	0.1362	0.4974	0.287	-0.097
Mof_H 	H 	0.1412	0.5518	0.3084	0.068
Mof_C 	C 	0.1784	0.4668	0.2579	0.069
Mof_C 	C 	0.1709	0.3856	0.2258	-0.128
Mof_H 	H 	0.1991	0.3651	0.2064	0.091
Mof_C 	C 	0.1212	0.3349	0.2229	0.06
Mof_H 	H 	0.1161	0.2805	0.2014	0.01
Mof_N 	N 	0.0789	0.3655	0.2519	-0.088
Mof_N 	N 	0.4321	0.6358	0.2492	-0.044
Mof_C 	C 	0.4226	0.5861	0.2953	0.016
Mof_H 	H 	0.4505	0.5819	0.324	0.035
Mof_C 	C 	0.3714	0.5427	0.2985	-0.09
Mof_H 	H 	0.365	0.5095	0.3293	0.063
Mof_C 	C 	0.3296	0.549	0.2556	0.06
Mof_C 	C 	0.3391	0.5987	0.2096	-0.083
Mof_H 	H 	0.3112	0.6028	0.1809	0.061
Mof_C 	C 	0.3904	0.642	0.2064	0.044
Mof_H 	H 	0.3967	0.6753	0.1755	0.04
Mof_O 	O 	0.4283	0.732	0.1149	-0.193
Mof_Cd	Cd	0.77004	0.7636	0.07897	0.458
Mof_O 	O 	0.7718	0.7678	0.1718	-0.283
Mof_O 	O 	0.1771	0.731	0.5725	-0.291
Mof_O 	O 	0.006	0.7359	0.661	-0.326
Mof_N 	N 	0.7714	0.5984	0.0749	-0.143
Mof_O 	O 	0.8809	0.758	0.4382	-0.251
Mof_O 	O 	0.8547	0.7645	0.145	-0.27
Mof_O 	O 	0.1727	0.7608	0.4863	-0.297
Mof_N 	N 	0.7743	0.9283	0.0715	-0.156
Mof_C 	C 	0.8488	0.7625	0.2395	-0.063
Mof_C 	C 	0.9054	0.7585	0.2532	-0.022
Mof_H 	H 	0.9288	0.7551	0.2264	0.047
Mof_C 	C 	0.928	0.7597	0.3066	-0.035
Mof_H 	H 	0.9664	0.7608	0.3153	0.038
Mof_C 	C 	0.8936	0.7593	0.347	-0.049
Mof_C 	C 	0.8373	0.7612	0.3323	-0.036
Mof_H 	H 	0.8135	0.7613	0.3588	0.05
Mof_C 	C 	0.8149	0.763	0.2792	-0.024
Mof_H 	H 	0.7765	0.7645	0.2705	0.048
Mof_C 	C 	0.9985	0.7505	0.4718	0.147
Mof_C 	C 	0.0562	0.7503	0.475	-0.126
Mof_H 	H 	0.0734	0.7532	0.4438	0.09
Mof_C 	C 	0.0882	0.7457	0.5242	-0.033
Mof_C 	C 	0.0624	0.7406	0.5708	-0.01
Mof_H 	H 	0.0839	0.7373	0.604	0.056
Mof_C 	C 	0.0049	0.7406	0.5679	-0.078
Mof_C 	C 	0.9728	0.7465	0.5184	-0.083
Mof_H 	H 	0.9342	0.7477	0.5165	0.096
Mof_C 	C 	0.8239	0.765	0.1819	0.284
Mof_C 	C 	0.1507	0.7459	0.5275	0.311
Mof_C 	C 	0.9767	0.7357	0.6177	0.403
Mof_C 	C 	0.9141	0.7554	0.4057	0.23
Mof_C 	C 	0.7306	0.9815	0.072	0.083
Mof_H 	H 	0.6961	0.9526	0.0729	0.014
Mof_C 	C 	0.734	0.0831	0.0711	-0.141
Mof_H 	H 	0.7018	0.1192	0.0716	0.107
Mof_C 	C 	0.783	0.128	0.0695	0.096
Mof_C 	C 	0.8285	0.0714	0.0673	-0.188
Mof_H 	H 	0.8632	0.0985	0.0646	0.1
Mof_C 	C 	0.8225	0.9747	0.069	0.106
Mof_H 	H 	0.8544	0.9377	0.0683	0.009
Mof_C 	C 	0.7979	0.23	0.0721	0.245
Mof_H 	H 	0.8351	0.2483	0.0772	0.271
Mof_C 	C 	0.7568	0.2983	0.0669	0.348
Mof_H 	H 	0.7199	0.2787	0.0613	0.219
Mof_C 	C 	0.8184	0.5508	0.0717	0.051
Mof_H 	H 	0.8516	0.584	0.0709	0.026
Mof_C 	C 	0.8179	0.4493	0.0697	-0.078
Mof_H 	H 	0.851	0.4163	0.0681	0.089
Mof_C 	C 	0.769	0.3986	0.07	-0.002
Mof_C 	C 	0.721	0.4516	0.0743	-0.121
Mof_H 	H 	0.6872	0.4207	0.0761	0.071
Mof_C 	C 	0.724	0.5496	0.0758	0.072
Mof_H 	H 	0.6913	0.584	0.0775	0.017
Mof_N 	N 	0.9691	0.7532	0.4196	-0.248
Mof_H 	H 	0.9892	0.7534	0.3935	0.136
Mof_C 	C 	0.7729	0.9939	0.7332	-0.06
Mof_H 	H 	0.7718	0.0426	0.7078	0.059
Mof_C 	C 	0.7282	0.9794	0.7573	-0.016
Mof_H 	H 	0.7301	0.9397	0.7872	0.035
Mof_C 	C 	0.5773	0.0573	0.7003	0.014
Mof_H 	H 	0.5488	0.0532	0.6722	0.038
Mof_C 	C 	0.6298	0.0215	0.6942	-0.076
Mof_H 	H 	0.6365	0.9935	0.6619	0.058
Mof_C 	C 	0.6724	0.0277	0.7363	0.043
Mof_C 	C 	0.6625	0.0696	0.7845	-0.075
Mof_H 	H 	0.691	0.0737	0.8126	0.057
Mof_C 	C 	0.61	0.1054	0.7906	0.025
Mof_H 	H 	0.6034	0.1334	0.8229	0.046
Mof_N 	N 	0.5674	0.0992	0.7485	-0.067
Mof_N 	N 	0.9223	0.8288	0.7469	-0.108
Mof_C 	C 	0.8803	0.8004	0.7769	0.059
Mof_H 	H 	0.8846	0.7454	0.7978	0.007
Mof_C 	C 	0.8319	0.8544	0.7755	-0.113
Mof_H 	H 	0.8038	0.8354	0.7956	0.085
Mof_C 	C 	0.8254	0.9367	0.7443	0.034
Mof_C 	C 	0.8674	0.9651	0.7143	-0.072
Mof_H 	H 	0.8631	0.0201	0.6933	0.062
Mof_C 	C 	0.9159	0.9111	0.7156	0.007
Mof_H 	H 	0.9439	0.9301	0.6956	0.035
Mof_O 	O 	0.9292	0.696	0.6126	-0.171
Mof_C 	C 	0.7575	0.2391	0.0657	-0.374
Mof_H 	H 	0.7204	0.2577	0.0594	-0.172
Mof_C 	C 	0.7979	0.2896	0.0731	-0.285
Mof_H 	H 	0.8353	0.2726	0.0789	-0.206
Mof_C 	C 	0.7738	0.9929	0.7621	-0.03
Mof_H 	H 	0.7711	0.0186	0.7959	0.039
Mof_C 	C 	0.7272	1.19963e-32	0.7283	-0.079
Mof_H 	H 	0.7246	0.987	0.6918	0.055
Mof_C 	C 	0.5864	0.0532	0.784	0.043
Mof_H 	H 	0.5582	0.0328	0.8035	0.022
Mof_C 	C 	0.6362	0.0026	0.787	-0.092
Mof_H 	H 	0.6412	0.9482	0.8084	0.066
Mof_C 	C 	0.6784	0.0332	0.7579	0.07
Mof_C 	C 	0.6709	0.1144	0.7258	-0.126
Mof_H 	H 	0.6991	0.1349	0.7064	0.09
Mof_C 	C 	0.6212	0.1651	0.7229	0.06
Mof_H 	H 	0.6161	0.2195	0.7014	0.009
Mof_N 	N 	0.5789	0.1345	0.7519	-0.086
Mof_N 	N 	0.9321	0.8642	0.7492	-0.039
Mof_C 	C 	0.9226	0.9139	0.7953	0.015
Mof_H 	H 	0.9505	0.9181	0.824	0.037
Mof_C 	C 	0.8714	0.9573	0.7985	-0.09
Mof_H 	H 	0.865	0.9905	0.8293	0.063
Mof_C 	C 	0.8296	0.951	0.7556	0.062
Mof_C 	C 	0.8391	0.9013	0.7096	-0.08
Mof_H 	H 	0.8112	0.8972	0.6809	0.06
Mof_C 	C 	0.8904	0.858	0.7064	0.047
Mof_H 	H 	0.8967	0.8247	0.6755	0.041
Mof_O 	O 	0.9283	0.768	0.6149	-0.197
Mof_Cd	Cd	0.27004	0.2636	0.07897	0.458
Mof_O 	O 	0.2718	0.2678	0.1718	-0.283
Mof_O 	O 	0.6771	0.231	0.5725	-0.29
Mof_O 	O 	0.506	0.2359	0.661	-0.312
Mof_N 	N 	0.2714	0.0984	0.0749	-0.144
Mof_O 	O 	0.3809	0.258	0.4382	-0.251
Mof_O 	O 	0.3547	0.2645	0.145	-0.271
Mof_O 	O 	0.6727	0.2608	0.4863	-0.296
Mof_N 	N 	0.2743	0.4283	0.0715	-0.158
Mof_C 	C 	0.3488	0.2625	0.2395	-0.063
Mof_C 	C 	0.4054	0.2585	0.2532	-0.022
Mof_H 	H 	0.4288	0.2551	0.2264	0.046
Mof_C 	C 	0.428	0.2597	0.3066	-0.036
Mof_H 	H 	0.4664	0.2608	0.3153	0.036
Mof_C 	C 	0.3936	0.2593	0.347	-0.049
Mof_C 	C 	0.3373	0.2612	0.3323	-0.036
Mof_H 	H 	0.3135	0.2613	0.3588	0.05
Mof_C 	C 	0.3149	0.263	0.2792	-0.024
Mof_H 	H 	0.2765	0.2645	0.2705	0.048
Mof_C 	C 	0.4985	0.2505	0.4718	0.143
Mof_C 	C 	0.5562	0.2503	0.475	-0.118
Mof_H 	H 	0.5734	0.2532	0.4438	0.09
Mof_C 	C 	0.5882	0.2457	0.5242	-0.029
Mof_C 	C 	0.5624	0.2406	0.5708	-0.022
Mof_H 	H 	0.5839	0.2373	0.604	0.061
Mof_C 	C 	0.5049	0.2406	0.5679	-0.048
Mof_C 	C 	0.4728	0.2465	0.5184	-0.104
Mof_H 	H 	0.4342	0.2477	0.5165	0.102
Mof_C 	C 	0.3239	0.265	0.1819	0.284
Mof_C 	C 	0.6507	0.2459	0.5275	0.31
Mof_C 	C 	0.4767	0.2357	0.6177	0.374
Mof_C 	C 	0.4141	0.2554	0.4057	0.23
Mof_C 	C 	0.2306	0.4815	0.072	0.089
Mof_H 	H 	0.1961	0.4526	0.0729	0.013
Mof_C 	C 	0.234	0.5831	0.0711	-0.147
Mof_H 	H 	0.2018	0.6192	0.0716	0.109
Mof_C 	C 	0.283	0.628	0.0695	0.099
Mof_C 	C 	0.3285	0.5714	0.0673	-0.195
Mof_H 	H 	0.3632	0.5985	0.0646	0.101
Mof_C 	C 	0.3225	0.4747	0.069	0.112
Mof_H 	H 	0.3544	0.4377	0.0683	0.007
Mof_C 	C 	0.2979	0.73	0.0721	0.252
Mof_H 	H 	0.3351	0.7483	0.0772	0.277
Mof_C 	C 	0.2568	0.7983	0.0669	0.358
Mof_H 	H 	0.2199	0.7787	0.0613	0.225
Mof_C 	C 	0.3184	0.0508	0.0717	0.055
Mof_H 	H 	0.3516	0.084	0.0709	0.025
Mof_C 	C 	0.3179	0.9493	0.0697	-0.081
Mof_H 	H 	0.351	0.9163	0.0681	0.09
Mof_C 	C 	0.269	0.8986	0.07	-0.002
Mof_C 	C 	0.221	0.9516	0.0743	-0.126
Mof_H 	H 	0.1872	0.9207	0.0761	0.072
Mof_C 	C 	0.224	0.0496	0.0758	0.077
Mof_H 	H 	0.1913	0.084	0.0775	0.015
Mof_N 	N 	0.4691	0.2532	0.4196	-0.247
Mof_H 	H 	0.4892	0.2534	0.3935	0.133
Mof_C 	C 	0.2729	0.4939	0.7332	-0.047
Mof_H 	H 	0.2718	0.5426	0.7078	0.052
Mof_C 	C 	0.2282	0.4794	0.7573	-0.04
Mof_H 	H 	0.2301	0.4397	0.7872	0.045
Mof_C 	C 	0.0773	0.5573	0.7003	0.017
Mof_H 	H 	0.0488	0.5532	0.6722	0.034
Mof_C 	C 	0.1298	0.5215	0.6942	-0.083
Mof_H 	H 	0.1365	0.4935	0.6619	0.062
Mof_C 	C 	0.1724	0.5277	0.7363	0.048
Mof_C 	C 	0.1625	0.5696	0.7845	-0.074
Mof_H 	H 	0.191	0.5737	0.8126	0.057
Mof_C 	C 	0.11	0.6054	0.7906	0.031
Mof_H 	H 	0.1034	0.6334	0.8229	0.043
Mof_N 	N 	0.0674	0.5992	0.7485	-0.066
Mof_N 	N 	0.4223	0.3288	0.7469	-0.104
Mof_C 	C 	0.3803	0.3004	0.7769	0.057
Mof_H 	H 	0.3846	0.2454	0.7978	0.007
Mof_C 	C 	0.3319	0.3544	0.7755	-0.11
Mof_H 	H 	0.3038	0.3354	0.7956	0.084
Mof_C 	C 	0.3254	0.4367	0.7443	0.033
Mof_C 	C 	0.3674	0.4651	0.7143	-0.066
Mof_H 	H 	0.3631	0.5201	0.6933	0.058
Mof_C 	C 	0.4159	0.4111	0.7156	0.01
Mof_H 	H 	0.4439	0.4301	0.6956	0.032
Mof_O 	O 	0.4292	0.196	0.6126	-0.168
Mof_C 	C 	0.2575	0.7391	0.0657	-0.383
Mof_H 	H 	0.2204	0.7577	0.0594	-0.177
Mof_C 	C 	0.2979	0.7896	0.0731	-0.292
Mof_H 	H 	0.3353	0.7726	0.0789	-0.213
Mof_C 	C 	0.2738	0.4929	0.7621	-0.034
Mof_H 	H 	0.2711	0.5186	0.7959	0.04
Mof_C 	C 	0.2272	0.5	0.7283	-0.062
Mof_H 	H 	0.2246	0.487	0.6918	0.05
Mof_C 	C 	0.0864	0.5532	0.784	0.038
Mof_H 	H 	0.0582	0.5328	0.8035	0.021
Mof_C 	C 	0.1362	0.5026	0.787	-0.097
Mof_H 	H 	0.1412	0.4482	0.8084	0.068
Mof_C 	C 	0.1784	0.5332	0.7579	0.069
Mof_C 	C 	0.1709	0.6144	0.7258	-0.129
Mof_H 	H 	0.1991	0.6349	0.7064	0.091
Mof_C 	C 	0.1212	0.6651	0.7229	0.061
Mof_H 	H 	0.1161	0.7195	0.7014	0.009
Mof_N 	N 	0.0789	0.6345	0.7519	-0.089
Mof_N 	N 	0.4321	0.3642	0.7492	-0.044
Mof_C 	C 	0.4226	0.4139	0.7953	0.016
Mof_H 	H 	0.4505	0.4181	0.824	0.035
Mof_C 	C 	0.3714	0.4573	0.7985	-0.09
Mof_H 	H 	0.365	0.4905	0.8293	0.063
Mof_C 	C 	0.3296	0.451	0.7556	0.06
Mof_C 	C 	0.3391	0.4013	0.7096	-0.083
Mof_H 	H 	0.3112	0.3972	0.6809	0.061
Mof_C 	C 	0.3904	0.358	0.7064	0.044
Mof_H 	H 	0.3967	0.3247	0.6755	0.04
Mof_O 	O 	0.4283	0.268	0.6149	-0.193
Mof_Cd	Cd	0.22996	0.7636	0.42103	0.458
Mof_O 	O 	0.2282	0.7678	0.3282	-0.283
Mof_O 	O 	0.8229	0.731	0.9275	-0.29
Mof_O 	O 	0.994	0.7359	0.839	-0.295
Mof_N 	N 	0.2286	0.5984	0.4251	-0.143
Mof_O 	O 	0.1191	0.758	0.0618	-0.252
Mof_O 	O 	0.1453	0.7645	0.355	-0.272
Mof_O 	O 	0.8273	0.7608	0.0137	-0.296
Mof_N 	N 	0.2257	0.9283	0.4285	-0.156
Mof_C 	C 	0.1512	0.7625	0.2605	-0.064
Mof_C 	C 	0.0946	0.7585	0.2468	-0.022
Mof_H 	H 	0.0712	0.7551	0.2736	0.043
Mof_C 	C 	0.072	0.7597	0.1934	-0.036
Mof_H 	H 	0.0336	0.7608	0.1847	0.034
Mof_C 	C 	0.1064	0.7593	0.153	-0.05
Mof_C 	C 	0.1627	0.7612	0.1677	-0.037
Mof_H 	H 	0.1865	0.7613	0.1412	0.05
Mof_C 	C 	0.1851	0.763	0.2208	-0.024
Mof_H 	H 	0.2235	0.7645	0.2295	0.048
Mof_C 	C 	0.0015	0.7505	0.0282	0.139
Mof_C 	C 	0.9438	0.7503	0.025	-0.111
Mof_H 	H 	0.9266	0.7532	0.0562	0.089
Mof_C 	C 	0.9118	0.7457	0.9758	-0.025
Mof_C 	C 	0.9376	0.7406	0.9292	-0.036
Mof_H 	H 	0.9161	0.7373	0.896	0.065
Mof_C 	C 	0.9951	0.7406	0.9321	-0.018
Mof_C 	C 	0.0272	0.7465	0.9816	-0.126
Mof_H 	H 	0.0658	0.7477	0.9835	0.109
Mof_C 	C 	0.1761	0.765	0.3181	0.285
Mof_C 	C 	0.8493	0.7459	0.9725	0.309
Mof_C 	C 	0.0233	0.7357	0.8823	0.344
Mof_C 	C 	0.0859	0.7554	0.0943	0.229
Mof_C 	C 	0.2694	0.9815	0.428	0.083
Mof_H 	H 	0.3039	0.9526	0.4271	0.014
Mof_C 	C 	0.266	0.0831	0.4289	-0.141
Mof_H 	H 	0.2982	0.1192	0.4284	0.107
Mof_C 	C 	0.217	0.128	0.4305	0.096
Mof_C 	C 	0.1715	0.0714	0.4327	-0.187
Mof_H 	H 	0.1368	0.0985	0.4354	0.099
Mof_C 	C 	0.1775	0.9747	0.431	0.106
Mof_H 	H 	0.1456	0.9377	0.4317	0.008
Mof_C 	C 	0.2021	0.23	0.4279	0.245
Mof_H 	H 	0.1649	0.2483	0.4228	0.27
Mof_C 	C 	0.2432	0.2983	0.4331	0.347
Mof_H 	H 	0.2801	0.2787	0.4387	0.219
Mof_C 	C 	0.1816	0.5508	0.4283	0.051
Mof_H 	H 	0.1484	0.584	0.4291	0.025
Mof_C 	C 	0.1821	0.4493	0.4303	-0.078
Mof_H 	H 	0.149	0.4163	0.4319	0.088
Mof_C 	C 	0.231	0.3986	0.43	-0.002
Mof_C 	C 	0.279	0.4516	0.4257	-0.121
Mof_H 	H 	0.3128	0.4207	0.4239	0.071
Mof_C 	C 	0.276	0.5496	0.4242	0.072
Mof_H 	H 	0.3087	0.584	0.4225	0.017
Mof_N 	N 	0.0309	0.7532	0.0804	-0.247
Mof_H 	H 	0.0108	0.7534	0.1065	0.13
Mof_C 	C 	0.2271	0.9939	0.7668	-0.061
Mof_H 	H 	0.2282	0.0426	0.7922	0.06
Mof_C 	C 	0.2718	0.9794	0.7427	-0.015
Mof_H 	H 	0.2699	0.9397	0.7128	0.035
Mof_C 	C 	0.4227	0.0573	0.7997	0.014
Mof_H 	H 	0.4512	0.0532	0.8278	0.038
Mof_C 	C 	0.3702	0.0215	0.8058	-0.076
Mof_H 	H 	0.3635	0.9935	0.8381	0.058
Mof_C 	C 	0.3276	0.0277	0.7637	0.042
Mof_C 	C 	0.3375	0.0696	0.7155	-0.075
Mof_H 	H 	0.309	0.0737	0.6874	0.057
Mof_C 	C 	0.39	0.1054	0.7094	0.025
Mof_H 	H 	0.3966	0.1334	0.6771	0.046
Mof_N 	N 	0.4326	0.0992	0.7515	-0.067
Mof_N 	N 	0.0777	0.8288	0.7531	-0.107
Mof_C 	C 	0.1197	0.8004	0.7231	0.058
Mof_H 	H 	0.1154	0.7454	0.7022	0.007
Mof_C 	C 	0.1681	0.8544	0.7245	-0.113
Mof_H 	H 	0.1962	0.8354	0.7044	0.085
Mof_C 	C 	0.1746	0.9367	0.7557	0.034
Mof_C 	C 	0.1326	0.9651	0.7857	-0.071
Mof_H 	H 	0.1369	0.0201	0.8067	0.061
Mof_C 	C 	0.0841	0.9111	0.7844	0.006
Mof_H 	H 	0.0561	0.9301	0.8044	0.031
Mof_O 	O 	0.0708	0.696	0.8874	-0.165
Mof_C 	C 	0.2425	0.2391	0.4343	-0.373
Mof_H 	H 	0.2796	0.2577	0.4406	-0.171
Mof_C 	C 	0.2021	0.2896	0.4269	-0.284
Mof_H 	H 	0.1647	0.2726	0.4211	-0.206
Mof_C 	C 	0.2262	0.9929	0.7379	-0.03
Mof_H 	H 	0.2289	0.0186	0.7041	0.039
Mof_C 	C 	0.2728	0	0.7717	-0.079
Mof_H 	H 	0.2754	0.987	0.8082	0.055
Mof_C 	C 	0.4136	0.0532	0.716	0.043
Mof_H 	H 	0.4418	0.0328	0.6965	0.022
Mof_C 	C 	0.3638	0.0026	0.713	-0.092
Mof_H 	H 	0.3588	0.9482	0.6916	0.065
Mof_C 	C 	0.3216	0.0332	0.7421	0.07
Mof_C 	C 	0.3291	0.1144	0.7742	-0.126
Mof_H 	H 	0.3009	0.1349	0.7936	0.09
Mof_C 	C 	0.3788	0.1651	0.7771	0.06
Mof_H 	H 	0.3839	0.2195	0.7986	0.009
Mof_N 	N 	0.4211	0.1345	0.7481	-0.086
Mof_N 	N 	0.0679	0.8642	0.7508	-0.042
Mof_C 	C 	0.0774	0.9139	0.7047	0.016
Mof_H 	H 	0.0495	0.9181	0.676	0.033
Mof_C 	C 	0.1286	0.9573	0.7015	-0.091
Mof_H 	H 	0.135	0.9905	0.6707	0.063
Mof_C 	C 	0.1704	0.951	0.7444	0.063
Mof_C 	C 	0.1609	0.9013	0.7904	-0.083
Mof_H 	H 	0.1888	0.8972	0.8191	0.061
Mof_C 	C 	0.1096	0.858	0.7936	0.05
Mof_H 	H 	0.1033	0.8247	0.8245	0.038
Mof_O 	O 	0.0717	0.768	0.8851	-0.189
Mof_Cd	Cd	0.72996	0.2636	0.42103	0.458
Mof_O 	O 	0.7282	0.2678	0.3282	-0.283
Mof_O 	O 	0.3229	0.231	0.9275	-0.29
Mof_O 	O 	0.494	0.2359	0.839	-0.312
Mof_N 	N 	0.7286	0.0984	0.4251	-0.144
Mof_O 	O 	0.6191	0.258	0.0618	-0.251
Mof_O 	O 	0.6453	0.2645	0.355	-0.271
Mof_O 	O 	0.3273	0.2608	0.0137	-0.296
Mof_N 	N 	0.7257	0.4283	0.4285	-0.158
Mof_C 	C 	0.6512	0.2625	0.2605	-0.063
Mof_C 	C 	0.5946	0.2585	0.2468	-0.022
Mof_H 	H 	0.5712	0.2551	0.2736	0.046
Mof_C 	C 	0.572	0.2597	0.1934	-0.036
Mof_H 	H 	0.5336	0.2608	0.1847	0.036
Mof_C 	C 	0.6064	0.2593	0.153	-0.049
Mof_C 	C 	0.6627	0.2612	0.1677	-0.036
Mof_H 	H 	0.6865	0.2613	0.1412	0.05
Mof_C 	C 	0.6851	0.263	0.2208	-0.024
Mof_H 	H 	0.7235	0.2645	0.2295	0.048
Mof_C 	C 	0.5015	0.2505	0.0282	0.143
Mof_C 	C 	0.4438	0.2503	0.025	-0.118
Mof_H 	H 	0.4266	0.2532	0.0562	0.09
Mof_C 	C 	0.4118	0.2457	0.9758	-0.029
Mof_C 	C 	0.4376	0.2406	0.9292	-0.022
Mof_H 	H 	0.4161	0.2373	0.896	0.061
Mof_C 	C 	0.4951	0.2406	0.9321	-0.048
Mof_C 	C 	0.5272	0.2465	0.9816	-0.104
Mof_H 	H 	0.5658	0.2477	0.9835	0.102
Mof_C 	C 	0.6761	0.265	0.3181	0.284
Mof_C 	C 	0.3493	0.2459	0.9725	0.31
Mof_C 	C 	0.5233	0.2357	0.8823	0.374
Mof_C 	C 	0.5859	0.2554	0.0943	0.23
Mof_C 	C 	0.7694	0.4815	0.428	0.089
Mof_H 	H 	0.8039	0.4526	0.4271	0.013
Mof_C 	C 	0.766	0.5831	0.4289	-0.147
Mof_H 	H 	0.7982	0.6192	0.4284	0.109
Mof_C 	C 	0.717	0.628	0.4305	0.099
Mof_C 	C 	0.6715	0.5714	0.4327	-0.195
Mof_H 	H 	0.6368	0.5985	0.4354	0.101
Mof_C 	C 	0.6775	0.4747	0.431	0.112
Mof_H 	H 	0.6456	0.4377	0.4317	0.007
Mof_C 	C 	0.7021	0.73	0.4279	0.252
Mof_H 	H 	0.6649	0.7483	0.4228	0.277
Mof_C 	C 	0.7432	0.7983	0.4331	0.358
Mof_H 	H 	0.7801	0.7787	0.4387	0.225
Mof_C 	C 	0.6816	0.0508	0.4283	0.055
Mof_H 	H 	0.6484	0.084	0.4291	0.025
Mof_C 	C 	0.6821	0.9493	0.4303	-0.081
Mof_H 	H 	0.649	0.9163	0.4319	0.09
Mof_C 	C 	0.731	0.8986	0.43	-0.002
Mof_C 	C 	0.779	0.9516	0.4257	-0.126
Mof_H 	H 	0.8128	0.9207	0.4239	0.072
Mof_C 	C 	0.776	0.0496	0.4242	0.077
Mof_H 	H 	0.8087	0.084	0.4225	0.016
Mof_N 	N 	0.5309	0.2532	0.0804	-0.247
Mof_H 	H 	0.5108	0.2534	0.1065	0.133
Mof_C 	C 	0.7271	0.4939	0.7668	-0.047
Mof_H 	H 	0.7282	0.5426	0.7922	0.052
Mof_C 	C 	0.7718	0.4794	0.7427	-0.039
Mof_H 	H 	0.7699	0.4397	0.7128	0.044
Mof_C 	C 	0.9227	0.5573	0.7997	0.016
Mof_H 	H 	0.9512	0.5532	0.8278	0.039
Mof_C 	C 	0.8702	0.5215	0.8058	-0.081
Mof_H 	H 	0.8635	0.4935	0.8381	0.062
Mof_C 	C 	0.8276	0.5277	0.7637	0.046
Mof_C 	C 	0.8375	0.5696	0.7155	-0.072
Mof_H 	H 	0.809	0.5737	0.6874	0.056
Mof_C 	C 	0.89	0.6054	0.7094	0.028
Mof_H 	H 	0.8966	0.6334	0.6771	0.046
Mof_N 	N 	0.9326	0.5992	0.7515	-0.063
Mof_N 	N 	0.5777	0.3288	0.7531	-0.104
Mof_C 	C 	0.6197	0.3004	0.7231	0.057
Mof_H 	H 	0.6154	0.2454	0.7022	0.007
Mof_C 	C 	0.6681	0.3544	0.7245	-0.11
Mof_H 	H 	0.6962	0.3354	0.7044	0.084
Mof_C 	C 	0.6746	0.4367	0.7557	0.033
Mof_C 	C 	0.6326	0.4651	0.7857	-0.066
Mof_H 	H 	0.6369	0.5201	0.8067	0.058
Mof_C 	C 	0.5841	0.4111	0.7844	0.01
Mof_H 	H 	0.5561	0.4301	0.8044	0.032
Mof_O 	O 	0.5708	0.196	0.8874	-0.168
Mof_C 	C 	0.7425	0.7391	0.4343	-0.384
Mof_H 	H 	0.7796	0.7577	0.4406	-0.177
Mof_C 	C 	0.7021	0.7896	0.4269	-0.292
Mof_H 	H 	0.6647	0.7726	0.4211	-0.213
Mof_C 	C 	0.7262	0.4929	0.7379	-0.034
Mof_H 	H 	0.7289	0.5186	0.7041	0.04
Mof_C 	C 	0.7728	0.5	0.7717	-0.062
Mof_H 	H 	0.7754	0.487	0.8082	0.05
Mof_C 	C 	0.9136	0.5532	0.716	0.039
Mof_H 	H 	0.9418	0.5328	0.6965	0.025
Mof_C 	C 	0.8638	0.5026	0.713	-0.098
Mof_H 	H 	0.8588	0.4482	0.6916	0.069
Mof_C 	C 	0.8216	0.5332	0.7421	0.07
Mof_C 	C 	0.8291	0.6144	0.7742	-0.13
Mof_H 	H 	0.8009	0.6349	0.7936	0.091
Mof_C 	C 	0.8788	0.6651	0.7771	0.062
Mof_H 	H 	0.8839	0.7195	0.7986	0.008
Mof_N 	N 	0.9211	0.6345	0.7481	-0.089
Mof_N 	N 	0.5679	0.3642	0.7508	-0.044
Mof_C 	C 	0.5774	0.4139	0.7047	0.016
Mof_H 	H 	0.5495	0.4181	0.676	0.035
Mof_C 	C 	0.6286	0.4573	0.7015	-0.09
Mof_H 	H 	0.635	0.4905	0.6707	0.063
Mof_C 	C 	0.6704	0.451	0.7444	0.06
Mof_C 	C 	0.6609	0.4013	0.7904	-0.083
Mof_H 	H 	0.6888	0.3972	0.8191	0.061
Mof_C 	C 	0.6096	0.358	0.7936	0.044
Mof_H 	H 	0.6033	0.3247	0.8245	0.04
Mof_O 	O 	0.5717	0.268	0.8851	-0.193
Mof_Cd	Cd	1.08538e-33	0.26758	0.25	0.425
Mof_Cd	Cd	0.5	0.76758	0.25	0.435
Mof_Cd	Cd	-1.35066e-17	0.73242	0.75	0.425
Mof_Cd	Cd	0.5	0.23242	0.75	0.434
_end
