data_functionalizedCrystal
_audit_creation_method	'EQeq! by Chris Wilmer'
_symmetry_space_group_name_H-M	'P1'
_symmetry_Int_Tables_number	1
_symmetry_cell_setting	triclinic
loop_
_symmetry_equiv_pos_as_xyz
  x,y,z
_cell_length_a	6.765
_cell_length_b	11.482
_cell_length_c	17.858
_cell_angle_alpha	90
_cell_angle_beta	104.06
_cell_angle_gamma	90
loop_
_atom_site_label
_atom_site_type_symbol
_atom_site_fract_x
_atom_site_fract_y
_atom_site_fract_z
_atom_site_charge
Mof_C 	C 	0.1935	0.9364	0.112	0.256
Mof_C 	C 	0.2191	0.8404	0.1716	0.026
Mof_C 	C 	0.2176	0.7247	0.1463	-0.158
Mof_H 	H 	0.1985	0.7077	0.0941	0.12
Mof_C 	C 	0.2454	0.6352	0.2012	0.188
Mof_C 	C 	0.2705	0.6589	0.2791	-0.153
Mof_H 	H 	0.29	0.5987	0.315	0.104
Mof_C 	C 	0.2662	0.7751	0.3029	0.023
Mof_C 	C 	0.242	0.8644	0.2501	-0.076
Mof_H 	H 	0.2407	0.9411	0.2667	0.092
Mof_C 	C 	0.2834	0.798	0.3878	0.256
Mof_C 	C 	0.1153	0.4839	0.1128	-0.196
Mof_H 	H 	0.132	0.5308	0.0696	0.115
Mof_H 	H 	0.9788	0.4966	0.1194	0.11
Mof_C 	C 	0.1422	0.3572	0.0959	0.353
Mof_Cd	Cd	0.79595	0.85558	0.97215	0.477
Mof_O 	O 	0.2125	0.0416	0.1374	-0.244
Mof_O 	O 	0.1622	0.9125	0.0413	-0.241
Mof_O 	O 	0.2521	0.9028	0.4073	-0.244
Mof_O 	O 	0.3164	0.7173	0.4353	-0.245
Mof_O 	O 	0.2607	0.5187	0.1809	-0.196
Mof_O 	O 	0.0177	0.3118	0.0391	-0.279
Mof_O 	O 	0.2921	0.3027	0.1336	-0.299
Mof_C 	C 	0.8065	0.9364	0.388	0.257
Mof_C 	C 	0.7809	0.8404	0.3284	0.027
Mof_C 	C 	0.7824	0.7247	0.3537	-0.157
Mof_H 	H 	0.8015	0.7077	0.4059	0.121
Mof_C 	C 	0.7546	0.6352	0.2988	0.189
Mof_C 	C 	0.7295	0.6589	0.2209	-0.153
Mof_H 	H 	0.71	0.5987	0.185	0.105
Mof_C 	C 	0.7338	0.7751	0.1971	0.024
Mof_C 	C 	0.758	0.8644	0.2499	-0.076
Mof_H 	H 	0.7593	0.9411	0.2333	0.092
Mof_C 	C 	0.7166	0.798	0.1122	0.256
Mof_C 	C 	0.8847	0.4839	0.3872	-0.196
Mof_H 	H 	0.868	0.5308	0.4304	0.115
Mof_H 	H 	0.0212	0.4966	0.3806	0.11
Mof_C 	C 	0.8578	0.3572	0.4041	0.353
Mof_Cd	Cd	0.20405	0.85558	0.52785	0.477
Mof_O 	O 	0.7875	0.0416	0.3626	-0.244
Mof_O 	O 	0.8378	0.9125	0.4587	-0.241
Mof_O 	O 	0.7479	0.9028	0.0927	-0.244
Mof_O 	O 	0.6836	0.7173	0.0647	-0.245
Mof_O 	O 	0.7393	0.5187	0.3191	-0.196
Mof_O 	O 	0.9823	0.3118	0.4609	-0.279
Mof_O 	O 	0.7079	0.3027	0.3664	-0.299
Mof_C 	C 	0.8065	0.0636	0.888	0.257
Mof_C 	C 	0.7809	0.1596	0.8284	0.027
Mof_C 	C 	0.7824	0.2753	0.8537	-0.157
Mof_H 	H 	0.8015	0.2923	0.9059	0.121
Mof_C 	C 	0.7546	0.3648	0.7988	0.189
Mof_C 	C 	0.7295	0.3411	0.7209	-0.152
Mof_H 	H 	0.71	0.4013	0.685	0.105
Mof_C 	C 	0.7338	0.2249	0.6971	0.024
Mof_C 	C 	0.758	0.1356	0.7499	-0.076
Mof_H 	H 	0.7593	0.0589	0.7333	0.092
Mof_C 	C 	0.7166	0.202	0.6122	0.256
Mof_C 	C 	0.8847	0.5161	0.8872	-0.196
Mof_H 	H 	0.868	0.4692	0.9304	0.115
Mof_H 	H 	0.0212	0.5034	0.8806	0.11
Mof_C 	C 	0.8578	0.6428	0.9041	0.353
Mof_Cd	Cd	0.20405	0.14442	0.02785	0.477
Mof_O 	O 	0.7875	0.9584	0.8626	-0.244
Mof_O 	O 	0.8378	0.0875	0.9587	-0.241
Mof_O 	O 	0.7479	0.0972	0.5927	-0.244
Mof_O 	O 	0.6836	0.2827	0.5647	-0.245
Mof_O 	O 	0.7393	0.4813	0.8191	-0.196
Mof_O 	O 	0.9823	0.6882	0.9609	-0.279
Mof_O 	O 	0.7079	0.6973	0.8664	-0.299
Mof_C 	C 	0.1935	0.0636	0.612	0.257
Mof_C 	C 	0.2191	0.1596	0.6716	0.027
Mof_C 	C 	0.2176	0.2753	0.6463	-0.157
Mof_H 	H 	0.1985	0.2923	0.5941	0.121
Mof_C 	C 	0.2454	0.3648	0.7012	0.189
Mof_C 	C 	0.2705	0.3411	0.7791	-0.153
Mof_H 	H 	0.29	0.4013	0.815	0.105
Mof_C 	C 	0.2662	0.2249	0.8029	0.024
Mof_C 	C 	0.242	0.1356	0.7501	-0.076
Mof_H 	H 	0.2407	0.0589	0.7667	0.092
Mof_C 	C 	0.2834	0.202	0.8878	0.256
Mof_C 	C 	0.1153	0.5161	0.6128	-0.196
Mof_H 	H 	0.132	0.4692	0.5696	0.115
Mof_H 	H 	0.9788	0.5034	0.6194	0.11
Mof_C 	C 	0.1422	0.6428	0.5959	0.353
Mof_Cd	Cd	0.79595	0.14442	0.47215	0.477
Mof_O 	O 	0.2125	0.9584	0.6374	-0.244
Mof_O 	O 	0.1622	0.0875	0.5413	-0.241
Mof_O 	O 	0.2521	0.0972	0.9073	-0.244
Mof_O 	O 	0.3164	0.2827	0.9353	-0.245
Mof_O 	O 	0.2607	0.4813	0.6809	-0.196
Mof_O 	O 	0.0177	0.6882	0.5391	-0.279
Mof_O 	O 	0.2921	0.6973	0.6336	-0.299
Mof_Cd	Cd	0.5	0.35121	0.25	0.411
Mof_Cd	Cd	0.5	0.64879	0.75	0.411
_end
