data_functionalizedCrystal
_audit_creation_method	'EQeq! by Chris Wilmer'
_symmetry_space_group_name_H-M	'P1'
_symmetry_Int_Tables_number	1
_symmetry_cell_setting	triclinic
loop_
_symmetry_equiv_pos_as_xyz
  x,y,z
_cell_length_a	7.1555
_cell_length_b	12.4238
_cell_length_c	11.7575
_cell_angle_alpha	90
_cell_angle_beta	91.782
_cell_angle_gamma	90
loop_
_atom_site_label
_atom_site_type_symbol
_atom_site_fract_x
_atom_site_fract_y
_atom_site_fract_z
_atom_site_charge
Mof_O 	O 	0.5313	0.07955	0.57876	-2.116
Mof_C 	C 	0.5421	0.15726	0.65226	0.974
Mof_N 	N 	0.5675	0.32677	0.81497	-0.865
Mof_C 	C 	0.4508	0.15355	0.75644	-0.791
Mof_H 	H 	0.379	0.0938	0.7742	0.173
Mof_C 	C 	0.6448	0.25154	0.63423	-0.755
Mof_H 	H 	0.707	0.2606	0.5666	0.169
Mof_C 	C 	0.6538	0.33004	0.71541	0.409
Mof_H 	H 	0.7254	0.3906	0.7005	-0.255
Mof_C 	C 	0.4671	0.23741	0.83185	0.452
Mof_H 	H 	0.404	0.2319	0.8996	-0.269
Mof_Li	Li	0.603	0.0525	0.4272	4.117
Mof_O 	O 	0.8733	0.01156	0.40659	-1.011
Mof_C 	C 	0.0165	0.08898	0.4304	0.271
Mof_H 	H 	0.974	0.1595	0.4056	-0.196
Mof_H 	H 	0.1267	0.0708	0.3885	-0.197
Mof_C 	C 	0.9345	0.90788	0.4454	0.135
Mof_H 	H 	0.043	0.8858	0.4037	-0.1
Mof_H 	H 	0.8361	0.8555	0.431	-0.146
Mof_O 	O 	0.4687	0.57955	0.92124	-2.116
Mof_C 	C 	0.4579	0.65726	0.84774	0.974
Mof_N 	N 	0.4325	0.82677	0.68503	-0.865
Mof_C 	C 	0.5492	0.65355	0.74356	-0.791
Mof_H 	H 	0.621	0.5938	0.7258	0.173
Mof_C 	C 	0.3552	0.75154	0.86577	-0.755
Mof_H 	H 	0.293	0.7606	0.9334	0.17
Mof_C 	C 	0.3462	0.83004	0.78459	0.409
Mof_H 	H 	0.2746	0.8906	0.7995	-0.253
Mof_C 	C 	0.5329	0.73741	0.66815	0.452
Mof_H 	H 	0.596	0.7319	0.6004	-0.27
Mof_Li	Li	0.397	0.5525	0.0728	4.117
Mof_O 	O 	0.1267	0.51156	0.09341	-1.016
Mof_C 	C 	0.9835	0.58898	0.0696	0.281
Mof_H 	H 	0.026	0.6595	0.0944	-0.2
Mof_H 	H 	0.8733	0.5708	0.1115	-0.199
Mof_C 	C 	0.0655	0.40788	0.0546	0.138
Mof_H 	H 	0.957	0.3858	0.0963	-0.102
Mof_H 	H 	0.1639	0.3555	0.069	-0.146
Mof_O 	O 	0.4687	0.92045	0.42124	-2.116
Mof_C 	C 	0.4579	0.84274	0.34774	0.974
Mof_N 	N 	0.4325	0.67323	0.18503	-0.865
Mof_C 	C 	0.5492	0.84645	0.24356	-0.791
Mof_H 	H 	0.621	0.9062	0.2258	0.173
Mof_C 	C 	0.3552	0.74846	0.36577	-0.755
Mof_H 	H 	0.293	0.7394	0.4334	0.169
Mof_C 	C 	0.3462	0.66996	0.28459	0.409
Mof_H 	H 	0.2746	0.6094	0.2995	-0.255
Mof_C 	C 	0.5329	0.76259	0.16815	0.452
Mof_H 	H 	0.596	0.7681	0.1004	-0.269
Mof_Li	Li	0.397	0.9475	0.5728	4.117
Mof_O 	O 	0.1267	0.98844	0.59341	-1.011
Mof_C 	C 	0.9835	0.91102	0.5696	0.271
Mof_H 	H 	0.026	0.8405	0.5944	-0.196
Mof_H 	H 	0.8733	0.9292	0.6115	-0.197
Mof_C 	C 	0.0655	0.09212	0.5546	0.135
Mof_H 	H 	0.957	0.1142	0.5963	-0.1
Mof_H 	H 	0.1639	0.1445	0.569	-0.146
Mof_O 	O 	0.5313	0.42045	0.07876	-2.116
Mof_C 	C 	0.5421	0.34274	0.15226	0.974
Mof_N 	N 	0.5675	0.17323	0.31497	-0.865
Mof_C 	C 	0.4508	0.34645	0.25644	-0.791
Mof_H 	H 	0.379	0.4062	0.2742	0.173
Mof_C 	C 	0.6448	0.24846	0.13423	-0.755
Mof_H 	H 	0.707	0.2394	0.0666	0.17
Mof_C 	C 	0.6538	0.16996	0.21541	0.409
Mof_H 	H 	0.7254	0.1094	0.2005	-0.253
Mof_C 	C 	0.4671	0.26259	0.33185	0.452
Mof_H 	H 	0.404	0.2681	0.3996	-0.27
Mof_Li	Li	0.603	0.4475	0.9272	4.117
Mof_O 	O 	0.8733	0.48844	0.90659	-1.016
Mof_C 	C 	0.0165	0.41102	0.9304	0.281
Mof_H 	H 	0.974	0.3405	0.9056	-0.2
Mof_H 	H 	0.1267	0.4292	0.8885	-0.199
Mof_C 	C 	0.9345	0.59212	0.9454	0.138
Mof_H 	H 	0.043	0.6142	0.9037	-0.102
Mof_H 	H 	0.8361	0.6445	0.931	-0.146
_end
