data_functionalizedCrystal
_audit_creation_method	'EQeq! by Chris Wilmer'
_symmetry_space_group_name_H-M	'P1'
_symmetry_Int_Tables_number	1
_symmetry_cell_setting	triclinic
loop_
_symmetry_equiv_pos_as_xyz
  x,y,z
_cell_length_a	18.744
_cell_length_b	15.6943
_cell_length_c	21.529
_cell_angle_alpha	90
_cell_angle_beta	112.251
_cell_angle_gamma	90
loop_
_atom_site_label
_atom_site_type_symbol
_atom_site_fract_x
_atom_site_fract_y
_atom_site_fract_z
_atom_site_charge
Mof_O 	O 	0.42709	0.2338	0.9079	-0.452
Mof_O 	O 	0.31645	0.2671	0.91942	-0.396
Mof_O 	O 	0.70976	0.8961	0.15347	-0.376
Mof_O 	O 	0.7895	0.8922	0.347	-0.373
Mof_O 	O 	0.15682	0.2817	0.60603	-0.363
Mof_O 	O 	0.04927	0.2329	0.61533	-0.437
Mof_C 	C 	0.0903	0.2506	0.5829	0.34
Mof_C 	C 	0.054	0.2329	0.5078	-0.038
Mof_O 	O 	0.9644	0.3177	0.1987	-0.387
Mof_H 	H 	0.9548	0.3463	0.2282	0.205
Mof_H 	H 	0.9813	0.3521	0.1769	0.161
Mof_O 	O 	0.0007	0.1261	0.1772	-0.558
Mof_H 	H 	0.9754	0.0807	0.176	0.29
Mof_H 	H 	0.0093	0.1502	0.2147	0.284
Mof_C 	C 	0.3814	0.2331	0.1726	0.38
Mof_C 	C 	0.4215	0.2169	0.1249	-0.065
Mof_C 	C 	0.385	0.2352	0.05686	-0.003
Mof_H 	H 	0.3345	0.2549	0.04	0.063
Mof_C 	C 	0.4244	0.2238	0.014	-0.07
Mof_C 	C 	0.4993	0.1938	0.0395	-0.093
Mof_H 	H 	0.5261	0.1874	0.0112	0.064
Mof_C 	C 	0.5345	0.1735	0.1061	0.093
Mof_C 	C 	0.4966	0.186	0.149	-0.093
Mof_H 	H 	0.5213	0.1737	0.1944	0.076
Mof_C 	C 	0.5662	0.9891	0.1108	-0.836
Mof_H 	H 	0.5172	0.0172	0.093	0.278
Mof_H 	H 	0.5685	0.9535	0.1478	0.281
Mof_H 	H 	0.5727	0.9546	0.0764	0.283
Mof_C 	C 	0.6286	0.0537	0.1342	0.321
Mof_C 	C 	0.679	0.1879	0.1585	0.297
Mof_C 	C 	0.6755	0.2829	0.1619	-0.821
Mof_H 	H 	0.7268	0.3054	0.1817	0.282
Mof_H 	H 	0.6467	0.2988	0.1887	0.264
Mof_H 	H 	0.6507	0.3055	0.1174	0.27
Mof_C 	C 	0.7392	0.1303	0.1778	-0.17
Mof_C 	C 	0.7084	0.0446	0.1633	-0.17
Mof_C 	C 	0.8208	0.1602	0.2077	0.366
Mof_C 	C 	0.1002	0.2445	0.3523	0.385
Mof_C 	C 	0.0582	0.2295	0.3983	-0.046
Mof_C 	C 	0.984	0.1971	0.3736	-0.124
Mof_H 	H 	0.9599	0.186	0.328	0.115
Mof_C 	C 	0.9455	0.1812	0.4151	0.121
Mof_C 	C 	0.9799	0.1994	0.4829	-0.122
Mof_H 	H 	0.9538	0.1893	0.5113	0.075
Mof_C 	C 	0.0937	0.2483	0.467	-0.025
Mof_H 	H 	0.1432	0.2709	0.4844	0.069
Mof_C 	C 	0.8587	0.0571	0.3792	0.294
Mof_C 	C 	0.7801	0.0425	0.3507	-0.121
Mof_C 	C 	0.7433	0.1248	0.3429	-0.2
Mof_C 	C 	0.8	0.1845	0.3667	0.357
Mof_C 	C 	0.7981	0.278	0.3715	-0.931
Mof_H 	H 	0.7456	0.2971	0.3548	0.32
Mof_H 	H 	0.8244	0.3029	0.3454	0.309
Mof_H 	H 	0.8232	0.2948	0.4176	0.305
Mof_C 	C 	0.9257	0.9952	0.3973	-0.788
Mof_H 	H 	0.9734	0.0258	0.4169	0.262
Mof_H 	H 	0.9244	0.9664	0.3575	0.281
Mof_H 	H 	0.9218	0.9541	0.4288	0.274
Mof_C 	C 	0.6605	0.1455	0.3144	0.413
Mof_C 	C 	0.7461	0.9627	0.1754	0.352
Mof_C 	C 	0.7465	0.9565	0.331	0.338
Mof_C 	C 	0.3855	0.2431	0.9414	0.359
Mof_Cu	Cu	0.24203	0.2668	0.33156	0.928
Mof_Cu	Cu	0.24333	0.27807	0.19458	0.921
Mof_Cu	Cu	0.4152	0.23786	0.31776	0.888
Mof_Cu	Cu	0.06734	0.24424	0.20637	0.952
Mof_N 	N 	0.61203	0.1389	0.13171	-0.227
Mof_N 	N 	0.87075	0.1409	0.38817	-0.236
Mof_O 	O 	0.42372	0.2224	0.2334	-0.452
Mof_O 	O 	0.31271	0.2512	0.14922	-0.408
Mof_O 	O 	0.30464	0.2214	0.28101	-0.572
Mof_O 	O 	0.16979	0.296	0.24175	-0.522
Mof_O 	O 	0.16693	0.2666	0.37532	-0.406
Mof_O 	O 	0.0626	0.2277	0.29239	-0.418
Mof_O 	O 	0.87465	0.1016	0.22718	-0.45
Mof_O 	O 	0.8383	0.2361	0.2129	-0.297
Mof_O 	O 	0.6389	0.2194	0.3149	-0.517
Mof_H 	H 	0.6083	0.2324	0.2754	0.246
Mof_O 	O 	0.6115	0.0841	0.2918	-0.26
Mof_O 	O 	0.8202	0.9595	0.2112	-0.291
Mof_O 	O 	0.6738	0.9494	0.2972	-0.26
Mof_H 	H 	0.851	0.055	0.21	0.272
Mof_H 	H 	0.316	0.276	0.282	0.042
Mof_H 	H 	0.189	0.251	0.231	0.02
Mof_O 	O 	0.9534	0.2491	0.1689	-0.516
Mof_O 	O 	0.091	0.1145	0.2087	-0.55
Mof_H 	H 	0.9062	0.2346	0.1526	0.286
Mof_H 	H 	0.9679	0.2569	0.1364	0.227
Mof_H 	H 	0.1221	0.0727	0.217	0.249
Mof_H 	H 	0.1032	0.1495	0.1842	0.182
Mof_O 	O 	0.57291	0.7338	0.5921	-0.453
Mof_O 	O 	0.68355	0.7671	0.58058	-0.397
Mof_O 	O 	0.29024	0.3961	0.34653	-0.376
Mof_O 	O 	0.2105	0.3922	0.153	-0.374
Mof_O 	O 	0.84318	0.7817	0.89397	-0.364
Mof_O 	O 	0.95073	0.7329	0.88467	-0.438
Mof_C 	C 	0.9097	0.7506	0.9171	0.341
Mof_C 	C 	0.946	0.7329	0.9922	-0.044
Mof_O 	O 	0.0356	0.8177	0.3013	-0.387
Mof_H 	H 	0.0452	0.8463	0.2718	0.205
Mof_H 	H 	0.0187	0.8521	0.3231	0.161
Mof_O 	O 	0.9993	0.6261	0.3228	-0.564
Mof_H 	H 	0.0246	0.5807	0.324	0.295
Mof_H 	H 	0.9907	0.6502	0.2853	0.285
Mof_C 	C 	0.6186	0.7331	0.3274	0.38
Mof_C 	C 	0.5785	0.7169	0.3751	-0.065
Mof_C 	C 	0.615	0.7352	0.44314	-0.004
Mof_H 	H 	0.6655	0.7549	0.46	0.063
Mof_C 	C 	0.5756	0.7238	0.486	-0.069
Mof_C 	C 	0.5007	0.6938	0.4605	-0.094
Mof_H 	H 	0.4739	0.6874	0.4888	0.065
Mof_C 	C 	0.4655	0.6735	0.3939	0.094
Mof_C 	C 	0.5034	0.686	0.351	-0.094
Mof_H 	H 	0.4787	0.6737	0.3056	0.076
Mof_C 	C 	0.4338	0.4891	0.3892	-0.851
Mof_H 	H 	0.4828	0.5172	0.407	0.283
Mof_H 	H 	0.4315	0.4535	0.3522	0.285
Mof_H 	H 	0.4273	0.4546	0.4236	0.286
Mof_C 	C 	0.3714	0.5537	0.3658	0.327
Mof_C 	C 	0.321	0.6879	0.3415	0.297
Mof_C 	C 	0.3245	0.7829	0.3381	-0.821
Mof_H 	H 	0.2732	0.8054	0.3183	0.282
Mof_H 	H 	0.3533	0.7988	0.3113	0.264
Mof_H 	H 	0.3493	0.8055	0.3826	0.27
Mof_C 	C 	0.2608	0.6303	0.3222	-0.17
Mof_C 	C 	0.2916	0.5446	0.3367	-0.168
Mof_C 	C 	0.1792	0.6602	0.2923	0.366
Mof_C 	C 	0.8998	0.7445	0.1477	0.387
Mof_C 	C 	0.9418	0.7295	0.1017	-0.051
Mof_C 	C 	0.016	0.6971	0.1264	-0.119
Mof_H 	H 	0.0401	0.686	0.172	0.114
Mof_C 	C 	0.0545	0.6812	0.0849	0.118
Mof_C 	C 	0.0201	0.6994	0.0171	-0.114
Mof_H 	H 	0.0462	0.6893	0.9887	0.071
Mof_C 	C 	0.9063	0.7483	0.033	-0.021
Mof_H 	H 	0.8568	0.7709	0.0156	0.068
Mof_C 	C 	0.1413	0.5571	0.1208	0.303
Mof_C 	C 	0.2199	0.5425	0.1493	-0.122
Mof_C 	C 	0.2567	0.6248	0.1571	-0.199
Mof_C 	C 	0.2	0.6845	0.1333	0.357
Mof_C 	C 	0.2019	0.778	0.1285	-0.931
Mof_H 	H 	0.2544	0.7971	0.1452	0.321
Mof_H 	H 	0.1756	0.8029	0.1546	0.309
Mof_H 	H 	0.1768	0.7948	0.0824	0.305
Mof_C 	C 	0.0743	0.4952	0.1027	-0.815
Mof_H 	H 	0.0266	0.5258	0.0831	0.272
Mof_H 	H 	0.0756	0.4664	0.1425	0.288
Mof_H 	H 	0.0782	0.4541	0.0712	0.281
Mof_C 	C 	0.3395	0.6455	0.1856	0.413
Mof_C 	C 	0.2539	0.4627	0.3246	0.35
Mof_C 	C 	0.2535	0.4565	0.169	0.337
Mof_C 	C 	0.6145	0.7431	0.5586	0.358
Mof_Cu	Cu	0.75797	0.7668	0.16844	0.928
Mof_Cu	Cu	0.75667	0.77807	0.30542	0.921
Mof_Cu	Cu	0.5848	0.73786	0.18224	0.888
Mof_Cu	Cu	0.93266	0.74424	0.29363	0.952
Mof_N 	N 	0.38797	0.6389	0.36829	-0.228
Mof_N 	N 	0.12925	0.6409	0.11183	-0.237
Mof_O 	O 	0.57628	0.7224	0.2666	-0.452
Mof_O 	O 	0.68729	0.7512	0.35078	-0.408
Mof_O 	O 	0.69536	0.7214	0.21899	-0.572
Mof_O 	O 	0.83021	0.796	0.25825	-0.522
Mof_O 	O 	0.83307	0.7666	0.12468	-0.406
Mof_O 	O 	0.9374	0.7277	0.20761	-0.419
Mof_O 	O 	0.12535	0.6016	0.27282	-0.45
Mof_O 	O 	0.1617	0.7361	0.2871	-0.297
Mof_O 	O 	0.3611	0.7194	0.1851	-0.517
Mof_H 	H 	0.3917	0.7324	0.2246	0.246
Mof_O 	O 	0.3885	0.5841	0.2082	-0.259
Mof_O 	O 	0.1798	0.4595	0.2888	-0.292
Mof_O 	O 	0.3262	0.4494	0.2028	-0.261
Mof_H 	H 	0.149	0.555	0.29	0.273
Mof_H 	H 	0.684	0.776	0.218	0.042
Mof_H 	H 	0.811	0.751	0.269	0.019
Mof_O 	O 	0.0466	0.7491	0.3311	-0.515
Mof_O 	O 	0.909	0.6145	0.2913	-0.549
Mof_H 	H 	0.0938	0.7346	0.3474	0.286
Mof_H 	H 	0.0321	0.7569	0.3636	0.227
Mof_H 	H 	0.8779	0.5727	0.283	0.249
Mof_H 	H 	0.8968	0.6495	0.3158	0.182
Mof_O 	O 	0.57291	0.7662	0.0921	-0.453
Mof_O 	O 	0.68355	0.7329	0.08058	-0.397
Mof_O 	O 	0.29024	0.1039	0.84653	-0.376
Mof_O 	O 	0.2105	0.1078	0.653	-0.373
Mof_O 	O 	0.84318	0.7183	0.39397	-0.363
Mof_O 	O 	0.95073	0.7671	0.38467	-0.437
Mof_C 	C 	0.9097	0.7494	0.4171	0.34
Mof_C 	C 	0.946	0.7671	0.4922	-0.038
Mof_O 	O 	0.0356	0.6823	0.8013	-0.387
Mof_H 	H 	0.0452	0.6537	0.7718	0.205
Mof_H 	H 	0.0187	0.6479	0.8231	0.161
Mof_O 	O 	0.9993	0.8739	0.8228	-0.558
Mof_H 	H 	0.0246	0.9193	0.824	0.29
Mof_H 	H 	0.9907	0.8498	0.7853	0.284
Mof_C 	C 	0.6186	0.7669	0.8274	0.38
Mof_C 	C 	0.5785	0.7831	0.8751	-0.065
Mof_C 	C 	0.615	0.7648	0.94314	-0.003
Mof_H 	H 	0.6655	0.7451	0.96	0.063
Mof_C 	C 	0.5756	0.7762	0.986	-0.07
Mof_C 	C 	0.5007	0.8062	0.9605	-0.093
Mof_H 	H 	0.4739	0.8126	0.9888	0.064
Mof_C 	C 	0.4655	0.8265	0.8939	0.093
Mof_C 	C 	0.5034	0.814	0.851	-0.093
Mof_H 	H 	0.4787	0.8263	0.8056	0.076
Mof_C 	C 	0.4338	0.0109	0.8892	-0.836
Mof_H 	H 	0.4828	0.9828	0.907	0.278
Mof_H 	H 	0.4315	0.0465	0.8522	0.281
Mof_H 	H 	0.4273	0.0454	0.9236	0.283
Mof_C 	C 	0.3714	0.9463	0.8658	0.321
Mof_C 	C 	0.321	0.8121	0.8415	0.297
Mof_C 	C 	0.3245	0.7171	0.8381	-0.821
Mof_H 	H 	0.2732	0.6946	0.8183	0.282
Mof_H 	H 	0.3533	0.7012	0.8113	0.264
Mof_H 	H 	0.3493	0.6945	0.8826	0.27
Mof_C 	C 	0.2608	0.8697	0.8222	-0.17
Mof_C 	C 	0.2916	0.9554	0.8367	-0.17
Mof_C 	C 	0.1792	0.8398	0.7923	0.366
Mof_C 	C 	0.8998	0.7555	0.6477	0.385
Mof_C 	C 	0.9418	0.7705	0.6017	-0.046
Mof_C 	C 	0.016	0.8029	0.6264	-0.124
Mof_H 	H 	0.0401	0.814	0.672	0.115
Mof_C 	C 	0.0545	0.8188	0.5849	0.121
Mof_C 	C 	0.0201	0.8006	0.5171	-0.122
Mof_H 	H 	0.0462	0.8107	0.4887	0.075
Mof_C 	C 	0.9063	0.7517	0.533	-0.025
Mof_H 	H 	0.8568	0.7291	0.5156	0.069
Mof_C 	C 	0.1413	0.9429	0.6208	0.294
Mof_C 	C 	0.2199	0.9575	0.6493	-0.121
Mof_C 	C 	0.2567	0.8752	0.6571	-0.2
Mof_C 	C 	0.2	0.8155	0.6333	0.357
Mof_C 	C 	0.2019	0.722	0.6285	-0.931
Mof_H 	H 	0.2544	0.7029	0.6452	0.32
Mof_H 	H 	0.1756	0.6971	0.6546	0.309
Mof_H 	H 	0.1768	0.7052	0.5824	0.305
Mof_C 	C 	0.0743	0.0048	0.6027	-0.788
Mof_H 	H 	0.0266	0.9742	0.5831	0.262
Mof_H 	H 	0.0756	0.0336	0.6425	0.281
Mof_H 	H 	0.0782	0.0459	0.5712	0.274
Mof_C 	C 	0.3395	0.8545	0.6856	0.413
Mof_C 	C 	0.2539	0.0373	0.8246	0.352
Mof_C 	C 	0.2535	0.0435	0.669	0.338
Mof_C 	C 	0.6145	0.7569	0.0586	0.359
Mof_Cu	Cu	0.75797	0.7332	0.66844	0.928
Mof_Cu	Cu	0.75667	0.72193	0.80542	0.921
Mof_Cu	Cu	0.5848	0.76214	0.68224	0.888
Mof_Cu	Cu	0.93266	0.75576	0.79363	0.952
Mof_N 	N 	0.38797	0.8611	0.86829	-0.227
Mof_N 	N 	0.12925	0.8591	0.61183	-0.236
Mof_O 	O 	0.57628	0.7776	0.7666	-0.452
Mof_O 	O 	0.68729	0.7488	0.85078	-0.408
Mof_O 	O 	0.69536	0.7786	0.71899	-0.572
Mof_O 	O 	0.83021	0.704	0.75825	-0.522
Mof_O 	O 	0.83307	0.7334	0.62468	-0.406
Mof_O 	O 	0.9374	0.7723	0.70761	-0.418
Mof_O 	O 	0.12535	0.8984	0.77282	-0.45
Mof_O 	O 	0.1617	0.7639	0.7871	-0.297
Mof_O 	O 	0.3611	0.7806	0.6851	-0.517
Mof_H 	H 	0.3917	0.7676	0.7246	0.246
Mof_O 	O 	0.3885	0.9159	0.7082	-0.26
Mof_O 	O 	0.1798	0.0405	0.7888	-0.291
Mof_O 	O 	0.3262	0.0506	0.7028	-0.26
Mof_H 	H 	0.149	0.945	0.79	0.272
Mof_H 	H 	0.684	0.724	0.718	0.042
Mof_H 	H 	0.811	0.749	0.769	0.02
Mof_O 	O 	0.0466	0.7509	0.8311	-0.516
Mof_O 	O 	0.909	0.8855	0.7913	-0.55
Mof_H 	H 	0.0938	0.7654	0.8474	0.286
Mof_H 	H 	0.0321	0.7431	0.8636	0.227
Mof_H 	H 	0.8779	0.9273	0.783	0.249
Mof_H 	H 	0.8968	0.8505	0.8158	0.182
Mof_O 	O 	0.42709	0.2662	0.4079	-0.453
Mof_O 	O 	0.31645	0.2329	0.41942	-0.397
Mof_O 	O 	0.70976	0.6039	0.65347	-0.376
Mof_O 	O 	0.7895	0.6078	0.847	-0.374
Mof_O 	O 	0.15682	0.2183	0.10603	-0.364
Mof_O 	O 	0.04927	0.2671	0.11533	-0.438
Mof_C 	C 	0.0903	0.2494	0.0829	0.341
Mof_C 	C 	0.054	0.2671	0.0078	-0.044
Mof_O 	O 	0.9644	0.1823	0.6987	-0.387
Mof_H 	H 	0.9548	0.1537	0.7282	0.205
Mof_H 	H 	0.9813	0.1479	0.6769	0.161
Mof_O 	O 	0.0007	0.3739	0.6772	-0.564
Mof_H 	H 	0.9754	0.4193	0.676	0.295
Mof_H 	H 	0.0093	0.3498	0.7147	0.285
Mof_C 	C 	0.3814	0.2669	0.6726	0.38
Mof_C 	C 	0.4215	0.2831	0.6249	-0.065
Mof_C 	C 	0.385	0.2648	0.55686	-0.004
Mof_H 	H 	0.3345	0.2451	0.54	0.063
Mof_C 	C 	0.4244	0.2762	0.514	-0.069
Mof_C 	C 	0.4993	0.3062	0.5395	-0.094
Mof_H 	H 	0.5261	0.3126	0.5112	0.065
Mof_C 	C 	0.5345	0.3265	0.6061	0.094
Mof_C 	C 	0.4966	0.314	0.649	-0.094
Mof_H 	H 	0.5213	0.3263	0.6944	0.076
Mof_C 	C 	0.5662	0.5109	0.6108	-0.851
Mof_H 	H 	0.5172	0.4828	0.593	0.283
Mof_H 	H 	0.5685	0.5465	0.6478	0.285
Mof_H 	H 	0.5727	0.5454	0.5764	0.286
Mof_C 	C 	0.6286	0.4463	0.6342	0.327
Mof_C 	C 	0.679	0.3121	0.6585	0.297
Mof_C 	C 	0.6755	0.2171	0.6619	-0.821
Mof_H 	H 	0.7268	0.1946	0.6817	0.282
Mof_H 	H 	0.6467	0.2012	0.6887	0.264
Mof_H 	H 	0.6507	0.1945	0.6174	0.27
Mof_C 	C 	0.7392	0.3697	0.6778	-0.17
Mof_C 	C 	0.7084	0.4554	0.6633	-0.168
Mof_C 	C 	0.8208	0.3398	0.7077	0.366
Mof_C 	C 	0.1002	0.2555	0.8523	0.387
Mof_C 	C 	0.0582	0.2705	0.8983	-0.051
Mof_C 	C 	0.984	0.3029	0.8736	-0.119
Mof_H 	H 	0.9599	0.314	0.828	0.114
Mof_C 	C 	0.9455	0.3188	0.9151	0.118
Mof_C 	C 	0.9799	0.3006	0.9829	-0.114
Mof_H 	H 	0.9538	0.3107	0.0113	0.071
Mof_C 	C 	0.0937	0.2517	0.967	-0.021
Mof_H 	H 	0.1432	0.2291	0.9844	0.068
Mof_C 	C 	0.8587	0.4429	0.8792	0.303
Mof_C 	C 	0.7801	0.4575	0.8507	-0.122
Mof_C 	C 	0.7433	0.3752	0.8429	-0.199
Mof_C 	C 	0.8	0.3155	0.8667	0.357
Mof_C 	C 	0.7981	0.222	0.8715	-0.931
Mof_H 	H 	0.7456	0.2029	0.8548	0.321
Mof_H 	H 	0.8244	0.1971	0.8454	0.309
Mof_H 	H 	0.8232	0.2052	0.9176	0.305
Mof_C 	C 	0.9257	0.5048	0.8973	-0.815
Mof_H 	H 	0.9734	0.4742	0.9169	0.272
Mof_H 	H 	0.9244	0.5336	0.8575	0.288
Mof_H 	H 	0.9218	0.5459	0.9288	0.281
Mof_C 	C 	0.6605	0.3545	0.8144	0.413
Mof_C 	C 	0.7461	0.5373	0.6754	0.35
Mof_C 	C 	0.7465	0.5435	0.831	0.337
Mof_C 	C 	0.3855	0.2569	0.4414	0.358
Mof_Cu	Cu	0.24203	0.2332	0.83156	0.928
Mof_Cu	Cu	0.24333	0.22193	0.69458	0.921
Mof_Cu	Cu	0.4152	0.26214	0.81776	0.888
Mof_Cu	Cu	0.06734	0.25576	0.70637	0.952
Mof_N 	N 	0.61203	0.3611	0.63171	-0.228
Mof_N 	N 	0.87075	0.3591	0.88817	-0.237
Mof_O 	O 	0.42372	0.2776	0.7334	-0.452
Mof_O 	O 	0.31271	0.2488	0.64922	-0.408
Mof_O 	O 	0.30464	0.2786	0.78101	-0.572
Mof_O 	O 	0.16979	0.204	0.74175	-0.522
Mof_O 	O 	0.16693	0.2334	0.87532	-0.406
Mof_O 	O 	0.0626	0.2723	0.79239	-0.419
Mof_O 	O 	0.87465	0.3984	0.72718	-0.45
Mof_O 	O 	0.8383	0.2639	0.7129	-0.297
Mof_O 	O 	0.6389	0.2806	0.8149	-0.517
Mof_H 	H 	0.6083	0.2676	0.7754	0.246
Mof_O 	O 	0.6115	0.4159	0.7918	-0.259
Mof_O 	O 	0.8202	0.5405	0.7112	-0.292
Mof_O 	O 	0.6738	0.5506	0.7972	-0.261
Mof_H 	H 	0.851	0.445	0.71	0.273
Mof_H 	H 	0.316	0.224	0.782	0.042
Mof_H 	H 	0.189	0.249	0.731	0.019
Mof_O 	O 	0.9534	0.2509	0.6689	-0.515
Mof_O 	O 	0.091	0.3855	0.7087	-0.549
Mof_H 	H 	0.9062	0.2654	0.6526	0.286
Mof_H 	H 	0.9679	0.2431	0.6364	0.227
Mof_H 	H 	0.1221	0.4273	0.717	0.249
Mof_H 	H 	0.1032	0.3505	0.6842	0.182
_end
