data_functionalizedCrystal
_audit_creation_method	'EQeq! by Chris Wilmer'
_symmetry_space_group_name_H-M	'P1'
_symmetry_Int_Tables_number	1
_symmetry_cell_setting	triclinic
loop_
_symmetry_equiv_pos_as_xyz
  x,y,z
_cell_length_a	15.074
_cell_length_b	24.9818
_cell_length_c	29.6125
_cell_angle_alpha	90
_cell_angle_beta	107.801
_cell_angle_gamma	90
loop_
_atom_site_label
_atom_site_type_symbol
_atom_site_fract_x
_atom_site_fract_y
_atom_site_fract_z
_atom_site_charge
Mof_Tb	Tb	0.96453	0.5799	0.51385	2.148
Mof_Tb	Tb	0.95628	0.90056	0.53456	2.115
Mof_Tb	Tb	0.03896	0.74163	0.49543	2.129
Mof_I 	I 	0.67522	0.56667	0.68517	-0.597
Mof_I 	I 	0.47961	0.64433	0.76343	-0.758
Mof_I 	I 	0.74229	0.71965	0.77156	-0.568
Mof_I 	I 	0.5132	0.71173	0.62817	-0.558
Mof_I 	I 	0.49934	0.81086	0.74238	-0.761
Mof_I 	I 	0.30946	0.74811	0.82972	-0.589
Mof_I 	I 	0.49103	0.89177	0.87495	-0.558
Mof_I 	I 	0.25514	0.8974	0.73655	-0.596
Mof_I 	I 	0.51297	0.97779	0.75104	-0.758
Mof_I 	I 	0.69633	0.90915	0.66384	-0.617
Mof_I 	I 	0.77551	0.05473	0.75311	-0.575
Mof_I 	I 	0.52969	0.0518	0.618	-0.577
Mof_Cu	Cu	0.5206	0.62222	0.68214	0.717
Mof_Cu	Cu	0.67927	0.67053	0.68768	0.716
Mof_Cu	Cu	0.65305	0.62281	0.76005	0.72
Mof_Cu	Cu	0.5645	0.71851	0.7228	0.731
Mof_Cu	Cu	0.3269	0.79799	0.74889	0.727
Mof_Cu	Cu	0.46338	0.79443	0.8264	0.722
Mof_Cu	Cu	0.31731	0.85314	0.82327	0.717
Mof_Cu	Cu	0.43339	0.89446	0.78229	0.749
Mof_Cu	Cu	0.53976	0.95687	0.66594	0.736
Mof_Cu	Cu	0.68264	0.96015	0.74308	0.729
Mof_Cu	Cu	0.70513	0.01476	0.66538	0.735
Mof_Cu	Cu	0.40553	0.55484	0.78877	0.737
Mof_O 	O 	0.0961	0.52891	0.54122	-0.586
Mof_O 	O 	0.17735	0.45668	0.53506	-0.527
Mof_O 	O 	0.01801	0.93354	0.94883	-0.552
Mof_O 	O 	0.0777	0.01394	0.93992	-0.536
Mof_O 	O 	0.0876	0.65964	0.54186	-0.597
Mof_O 	O 	0.03443	0.61546	0.59268	-0.477
Mof_O 	O 	0.91931	0.84291	0.96337	-0.589
Mof_O 	O 	0.97669	0.79469	0.91653	-0.48
Mof_O 	O 	0.98121	0.74246	0.56038	-0.549
Mof_O 	O 	0.91587	0.82173	0.56715	-0.564
Mof_O 	O 	0.17382	0.78352	0.54606	-0.534
Mof_O 	O 	0.09413	0.85112	0.56277	-0.563
Mof_O 	O 	0.92649	0.18703	0.54749	-0.532
Mof_O 	O 	0.98587	0.10967	0.53118	-0.517
Mof_O 	O 	0.89816	0.71739	0.96711	-0.562
Mof_O 	O 	0.82671	0.64219	0.97767	-0.511
Mof_O 	O 	0.93617	0.46857	0.94384	-0.568
Mof_O 	O 	0.88314	0.52881	0.98534	-0.542
Mof_N 	N 	0.4133	0.57769	0.64366	-0.215
Mof_N 	N 	0.2335	0.88818	0.8562	-0.212
Mof_N 	N 	0.2576	0.74597	0.69831	-0.221
Mof_N 	N 	0.7527	0.91322	0.79859	-0.218
Mof_N 	N 	0.7668	0.70227	0.65628	-0.213
Mof_N 	N 	0.4248	0.91317	0.63198	-0.211
Mof_N 	N 	0.7853	0.05273	0.63057	-0.215
Mof_N 	N 	0.5741	0.75322	0.8664	-0.215
Mof_N 	N 	0.7185	0.57786	0.81651	-0.212
Mof_C 	C 	0.3293	0.58426	0.64952	-0.009
Mof_H 	H 	0.3243	0.6064	0.6747	0.015
Mof_C 	C 	0.2495	0.5602	0.62058	-0.01
Mof_H 	H 	0.191	0.5662	0.6256	0.05
Mof_C 	C 	0.2562	0.52723	0.58422	-0.12
Mof_C 	C 	0.3433	0.51758	0.57938	-0.009
Mof_H 	H 	0.3506	0.4936	0.5559	0.049
Mof_C 	C 	0.4197	0.54366	0.60952	0.008
Mof_H 	H 	0.4793	0.5373	0.6059	0.024
Mof_C 	C 	0.1703	0.50239	0.55111	0.479
Mof_C 	C 	0.1766	0.8604	0.87376	-0.005
Mof_H 	H 	0.1733	0.8227	0.8693	0.014
Mof_C 	C 	0.1224	0.88355	0.89813	0.005
Mof_H 	H 	0.0838	0.8618	0.9107	0.017
Mof_C 	C 	0.1239	0.93835	0.90448	-0.135
Mof_C 	C 	0.1804	0.96789	0.8848	0.014
Mof_H 	H 	0.182	0.0058	0.8872	0.037
Mof_C 	C 	0.2343	0.94169	0.8615	-0.007
Mof_H 	H 	0.2737	0.9624	0.8486	0.033
Mof_C 	C 	0.068	0.96427	0.93313	0.494
Mof_C 	C 	0.2821	0.73742	0.65917	0.008
Mof_H 	H 	0.3377	0.7535	0.657	0.007
Mof_C 	C 	0.2302	0.70604	0.62143	-0.026
Mof_H 	H 	0.2499	0.7012	0.5941	0.039
Mof_C 	C 	0.1492	0.68194	0.62441	-0.08
Mof_C 	C 	0.1261	0.68831	0.66605	-0.025
Mof_H 	H 	0.0734	0.6704	0.6701	0.058
Mof_C 	C 	0.1802	0.72083	0.7014	0.015
Mof_H 	H 	0.1624	0.7258	0.7292	0.014
Mof_C 	C 	0.0859	0.65019	0.58401	0.386
Mof_C 	C 	0.7303	0.913	0.83906	0.012
Mof_H 	H 	0.6759	0.9316	0.84	0.012
Mof_C 	C 	0.7835	0.8867	0.87973	-0.028
Mof_H 	H 	0.7653	0.8873	0.9077	0.049
Mof_C 	C 	0.8632	0.85957	0.87903	-0.077
Mof_C 	C 	0.8843	0.85728	0.8365	-0.028
Mof_H 	H 	0.9362	0.8372	0.8341	0.058
Mof_C 	C 	0.8282	0.88481	0.79783	0.024
Mof_H 	H 	0.8437	0.8836	0.7691	0.011
Mof_C 	C 	0.9245	0.83079	0.9223	0.397
Mof_C 	C 	0.8245	0.67276	0.63999	-0.001
Mof_H 	H 	0.8268	0.6353	0.6456	0.016
Mof_C 	C 	0.8809	0.69378	0.61543	0.001
Mof_H 	H 	0.921	0.6713	0.6046	0.023
Mof_C 	C 	0.8777	0.74822	0.60691	-0.138
Mof_C 	C 	0.8224	0.78003	0.62576	0.008
Mof_H 	H 	0.8218	0.8178	0.622	0.033
Mof_C 	C 	0.7681	0.75608	0.65009	-0.003
Mof_H 	H 	0.7304	0.778	0.663	0.024
Mof_C 	C 	0.9298	0.77306	0.57592	0.494
Mof_C 	C 	0.4257	0.86584	0.6102	0.005
Mof_H 	H 	0.484	0.8515	0.6102	0.028
Mof_C 	C 	0.3453	0.83706	0.58773	-0.011
Mof_H 	H 	0.349	0.8041	0.5724	0.052
Mof_C 	C 	0.2592	0.85741	0.58807	-0.124
Mof_C 	C 	0.2584	0.90534	0.61141	0.003
Mof_H 	H 	0.2011	0.92	0.6128	0.037
Mof_C 	C 	0.3412	0.93183	0.63274	-0.009
Mof_H 	H 	0.3392	0.9646	0.6486	0.02
Mof_C 	C 	0.1691	0.82838	0.56392	0.48
Mof_C 	C 	0.7821	0.10685	0.62685	0.005
Mof_H 	H 	0.7453	0.1262	0.6422	0.024
Mof_C 	C 	0.8303	0.13507	0.60169	-0.005
Mof_H 	H 	0.8261	0.173	0.5998	0.047
Mof_C 	C 	0.885	0.10752	0.57903	-0.114
Mof_C 	C 	0.8897	0.05213	0.58356	-0.014
Mof_H 	H 	0.9268	0.0319	0.5689	0.017
Mof_C 	C 	0.84	0.02668	0.60956	0.017
Mof_H 	H 	0.8449	0.9889	0.6128	-0.031
Mof_C 	C 	0.9373	0.13678	0.55023	0.48
Mof_C 	C 	0.6585	0.7695	0.8656	-0.009
Mof_H 	H 	0.6618	0.7968	0.8438	0.017
Mof_C 	C 	0.7403	0.74863	0.89469	0.003
Mof_H 	H 	0.7984	0.7615	0.8928	0.048
Mof_C 	C 	0.7379	0.70889	0.92663	-0.123
Mof_C 	C 	0.6513	0.68998	0.92656	-0.006
Mof_H 	H 	0.6468	0.6616	0.9471	0.046
Mof_C 	C 	0.5714	0.71277	0.89625	0.002
Mof_H 	H 	0.5125	0.6995	0.8965	0.029
Mof_C 	C 	0.8278	0.68718	0.95986	0.493
Mof_C 	C 	0.7897	0.54504	0.81783	-0.009
Mof_H 	H 	0.8026	0.5376	0.789	0.03
Mof_C 	C 	0.8455	0.52138	0.8591	0.022
Mof_H 	H 	0.8951	0.4983	0.8584	0.016
Mof_C 	C 	0.8275	0.53208	0.90133	-0.148
Mof_C 	C 	0.7518	0.564	0.9001	0.019
Mof_H 	H 	0.7358	0.5705	0.9283	0.039
Mof_C 	C 	0.6993	0.58643	0.85734	-0.018
Mof_H 	H 	0.648	0.6087	0.857	0.023
Mof_C 	C 	0.888	0.50807	0.94751	0.525
Mof_Tb	Tb	0.03547	0.0799	0.98615	2.129
Mof_Tb	Tb	0.04372	0.40056	0.96544	2.105
Mof_Tb	Tb	0.96103	0.24163	0.00457	2.118
Mof_I 	I 	0.32478	0.06667	0.81483	-0.599
Mof_I 	I 	0.52039	0.14433	0.73657	-0.759
Mof_I 	I 	0.25771	0.21965	0.72844	-0.57
Mof_I 	I 	0.4868	0.21173	0.87183	-0.558
Mof_I 	I 	0.50066	0.31086	0.75762	-0.762
Mof_I 	I 	0.69054	0.24811	0.67028	-0.59
Mof_I 	I 	0.50897	0.39177	0.62505	-0.559
Mof_I 	I 	0.74486	0.3974	0.76345	-0.596
Mof_I 	I 	0.48703	0.47779	0.74896	-0.759
Mof_I 	I 	0.30367	0.40915	0.83616	-0.617
Mof_I 	I 	0.22449	0.55473	0.74689	-0.577
Mof_I 	I 	0.47031	0.5518	0.882	-0.575
Mof_Cu	Cu	0.4794	0.12222	0.81786	0.717
Mof_Cu	Cu	0.32073	0.17053	0.81232	0.716
Mof_Cu	Cu	0.34695	0.12281	0.73995	0.72
Mof_Cu	Cu	0.4355	0.21851	0.7772	0.731
Mof_Cu	Cu	0.6731	0.29799	0.75111	0.727
Mof_Cu	Cu	0.53662	0.29443	0.6736	0.721
Mof_Cu	Cu	0.68269	0.35314	0.67673	0.717
Mof_Cu	Cu	0.56661	0.39446	0.7177	0.749
Mof_Cu	Cu	0.46024	0.45687	0.83406	0.736
Mof_Cu	Cu	0.31736	0.46015	0.75692	0.729
Mof_Cu	Cu	0.29487	0.51476	0.83461	0.735
Mof_Cu	Cu	0.59447	0.05484	0.71123	0.737
Mof_O 	O 	0.9039	0.02891	0.95878	-0.579
Mof_O 	O 	0.82265	0.95668	0.96494	-0.523
Mof_O 	O 	0.98199	0.43354	0.55117	-0.552
Mof_O 	O 	0.9223	0.51394	0.56008	-0.534
Mof_O 	O 	0.9124	0.15964	0.95814	-0.591
Mof_O 	O 	0.96557	0.11546	0.90732	-0.471
Mof_O 	O 	0.08069	0.34291	0.53663	-0.595
Mof_O 	O 	0.02331	0.29469	0.58347	-0.484
Mof_O 	O 	0.01879	0.24246	0.93962	-0.55
Mof_O 	O 	0.08413	0.32173	0.93285	-0.564
Mof_O 	O 	0.82618	0.28352	0.95394	-0.53
Mof_O 	O 	0.90587	0.35112	0.93723	-0.559
Mof_O 	O 	0.07351	0.68703	0.95251	-0.532
Mof_O 	O 	0.01413	0.60967	0.96882	-0.519
Mof_O 	O 	0.10184	0.21739	0.53289	-0.567
Mof_O 	O 	0.17329	0.14219	0.52233	-0.515
Mof_O 	O 	0.06383	0.96857	0.55616	-0.569
Mof_O 	O 	0.11686	0.02881	0.51466	-0.546
Mof_N 	N 	0.5867	0.07769	0.85634	-0.215
Mof_N 	N 	0.7665	0.38818	0.6438	-0.212
Mof_N 	N 	0.7424	0.24597	0.80169	-0.221
Mof_N 	N 	0.2473	0.41322	0.70141	-0.218
Mof_N 	N 	0.2332	0.20227	0.84372	-0.213
Mof_N 	N 	0.5752	0.41317	0.86802	-0.211
Mof_N 	N 	0.2147	0.55273	0.86943	-0.215
Mof_N 	N 	0.4259	0.25322	0.6336	-0.214
Mof_N 	N 	0.2815	0.07786	0.68349	-0.212
Mof_C 	C 	0.6707	0.08426	0.85048	-0.008
Mof_H 	H 	0.6757	0.1064	0.8253	0.014
Mof_C 	C 	0.7505	0.0602	0.87942	-0.011
Mof_H 	H 	0.809	0.0662	0.8744	0.051
Mof_C 	C 	0.7438	0.02723	0.91578	-0.118
Mof_C 	C 	0.6567	0.01758	0.92062	-0.01
Mof_H 	H 	0.6494	0.9936	0.9441	0.051
Mof_C 	C 	0.5803	0.04366	0.89048	0.009
Mof_H 	H 	0.5207	0.0373	0.8941	0.024
Mof_C 	C 	0.8297	0.00239	0.94889	0.478
Mof_C 	C 	0.8234	0.3604	0.62624	-0.003
Mof_H 	H 	0.8267	0.3227	0.6307	0.014
Mof_C 	C 	0.8776	0.38355	0.60187	0.003
Mof_H 	H 	0.9162	0.3618	0.5893	0.019
Mof_C 	C 	0.8761	0.43835	0.59552	-0.132
Mof_C 	C 	0.8196	0.46789	0.6152	0.007
Mof_H 	H 	0.818	0.5058	0.6128	0.041
Mof_C 	C 	0.7657	0.44169	0.6385	-0.003
Mof_H 	H 	0.7263	0.4624	0.6514	0.032
Mof_C 	C 	0.932	0.46427	0.56687	0.491
Mof_C 	C 	0.7179	0.23742	0.84083	0.009
Mof_H 	H 	0.6623	0.2535	0.843	0.007
Mof_C 	C 	0.7698	0.20604	0.87857	-0.027
Mof_H 	H 	0.7501	0.2012	0.9059	0.04
Mof_C 	C 	0.8508	0.18194	0.87559	-0.078
Mof_C 	C 	0.8739	0.18831	0.83395	-0.026
Mof_H 	H 	0.9266	0.1704	0.8299	0.06
Mof_C 	C 	0.8198	0.22083	0.7986	0.016
Mof_H 	H 	0.8376	0.2258	0.7708	0.015
Mof_C 	C 	0.9141	0.15019	0.91599	0.384
Mof_C 	C 	0.2697	0.413	0.66094	0.011
Mof_H 	H 	0.3241	0.4316	0.66	0.012
Mof_C 	C 	0.2165	0.3867	0.62027	-0.027
Mof_H 	H 	0.2347	0.3873	0.5923	0.048
Mof_C 	C 	0.1368	0.35957	0.62097	-0.079
Mof_C 	C 	0.1157	0.35728	0.6635	-0.028
Mof_H 	H 	0.0638	0.3372	0.6659	0.056
Mof_C 	C 	0.1718	0.38481	0.70217	0.023
Mof_H 	H 	0.1563	0.3836	0.7309	0.011
Mof_C 	C 	0.0755	0.33079	0.5777	0.398
Mof_C 	C 	0.1755	0.17276	0.86001	-0.002
Mof_H 	H 	0.1732	0.1353	0.8544	0.015
Mof_C 	C 	0.1191	0.19378	0.88457	0.001
Mof_H 	H 	0.079	0.1713	0.8954	0.021
Mof_C 	C 	0.1223	0.24822	0.89309	-0.139
Mof_C 	C 	0.1776	0.28003	0.87424	0.008
Mof_H 	H 	0.1782	0.3178	0.878	0.033
Mof_C 	C 	0.2319	0.25608	0.84991	-0.003
Mof_H 	H 	0.2696	0.278	0.837	0.024
Mof_C 	C 	0.0702	0.27306	0.92408	0.493
Mof_C 	C 	0.5743	0.36584	0.8898	0.006
Mof_H 	H 	0.516	0.3515	0.8898	0.028
Mof_C 	C 	0.6547	0.33706	0.91227	-0.011
Mof_H 	H 	0.651	0.3041	0.9276	0.053
Mof_C 	C 	0.7408	0.35741	0.91193	-0.123
Mof_C 	C 	0.7416	0.40534	0.88859	0.002
Mof_H 	H 	0.7989	0.42	0.8872	0.037
Mof_C 	C 	0.6588	0.43183	0.86726	-0.009
Mof_H 	H 	0.6608	0.4646	0.8514	0.02
Mof_C 	C 	0.8309	0.32838	0.93608	0.479
Mof_C 	C 	0.2179	0.60685	0.87315	0.004
Mof_H 	H 	0.2547	0.6262	0.8578	0.025
Mof_C 	C 	0.1697	0.63507	0.89831	-0.004
Mof_H 	H 	0.1739	0.673	0.9002	0.047
Mof_C 	C 	0.115	0.60752	0.92097	-0.116
Mof_C 	C 	0.1103	0.55213	0.91644	-0.012
Mof_H 	H 	0.0732	0.5319	0.9311	0.014
Mof_C 	C 	0.16	0.52668	0.89044	0.013
Mof_H 	H 	0.1551	0.4889	0.8872	-0.029
Mof_C 	C 	0.0627	0.63678	0.94977	0.48
Mof_C 	C 	0.3415	0.2695	0.6344	-0.009
Mof_H 	H 	0.3382	0.2968	0.6562	0.017
Mof_C 	C 	0.2597	0.24863	0.60531	0.003
Mof_H 	H 	0.2016	0.2615	0.6072	0.047
Mof_C 	C 	0.2621	0.20889	0.57337	-0.125
Mof_C 	C 	0.3487	0.18998	0.57344	-0.005
Mof_H 	H 	0.3532	0.1616	0.5529	0.045
Mof_C 	C 	0.4286	0.21277	0.60375	0.001
Mof_H 	H 	0.4875	0.1995	0.6035	0.029
Mof_C 	C 	0.1722	0.18718	0.54014	0.494
Mof_C 	C 	0.2103	0.04504	0.68217	-0.008
Mof_H 	H 	0.1974	0.0376	0.711	0.029
Mof_C 	C 	0.1545	0.02138	0.6409	0.016
Mof_H 	H 	0.1049	0.9983	0.6416	0.019
Mof_C 	C 	0.1725	0.03208	0.59867	-0.147
Mof_C 	C 	0.2482	0.064	0.5999	0.018
Mof_H 	H 	0.2642	0.0705	0.5717	0.039
Mof_C 	C 	0.3007	0.08643	0.64266	-0.017
Mof_H 	H 	0.352	0.1087	0.643	0.022
Mof_C 	C 	0.112	0.00807	0.55249	0.522
Mof_Tb	Tb	0.03547	0.4201	0.48615	2.147
Mof_Tb	Tb	0.04372	0.09944	0.46544	2.114
Mof_Tb	Tb	0.96103	0.25837	0.50457	2.128
Mof_I 	I 	0.32478	0.43333	0.31483	-0.598
Mof_I 	I 	0.52039	0.35567	0.23657	-0.759
Mof_I 	I 	0.25771	0.28035	0.22844	-0.569
Mof_I 	I 	0.4868	0.28827	0.37183	-0.559
Mof_I 	I 	0.50066	0.18914	0.25762	-0.762
Mof_I 	I 	0.69054	0.25189	0.17028	-0.59
Mof_I 	I 	0.50897	0.10823	0.12505	-0.558
Mof_I 	I 	0.74486	0.1026	0.26345	-0.596
Mof_I 	I 	0.48703	0.02221	0.24896	-0.758
Mof_I 	I 	0.30367	0.09085	0.33616	-0.617
Mof_I 	I 	0.22449	0.94527	0.24689	-0.575
Mof_I 	I 	0.47031	0.9482	0.382	-0.577
Mof_Cu	Cu	0.4794	0.37778	0.31786	0.717
Mof_Cu	Cu	0.32073	0.32947	0.31232	0.716
Mof_Cu	Cu	0.34695	0.37719	0.23995	0.72
Mof_Cu	Cu	0.4355	0.28149	0.2772	0.731
Mof_Cu	Cu	0.6731	0.20201	0.25111	0.727
Mof_Cu	Cu	0.53662	0.20557	0.1736	0.722
Mof_Cu	Cu	0.68269	0.14686	0.17673	0.717
Mof_Cu	Cu	0.56661	0.10554	0.2177	0.749
Mof_Cu	Cu	0.46024	0.04313	0.33406	0.736
Mof_Cu	Cu	0.31736	0.03985	0.25692	0.729
Mof_Cu	Cu	0.29487	0.98524	0.33461	0.735
Mof_Cu	Cu	0.59447	0.44516	0.21123	0.737
Mof_O 	O 	0.9039	0.47109	0.45878	-0.586
Mof_O 	O 	0.82265	0.54332	0.46494	-0.527
Mof_O 	O 	0.98199	0.06646	0.05117	-0.552
Mof_O 	O 	0.9223	0.98606	0.06008	-0.536
Mof_O 	O 	0.9124	0.34036	0.45814	-0.597
Mof_O 	O 	0.96557	0.38454	0.40732	-0.477
Mof_O 	O 	0.08069	0.15709	0.03663	-0.589
Mof_O 	O 	0.02331	0.20531	0.08347	-0.48
Mof_O 	O 	0.01879	0.25754	0.43962	-0.549
Mof_O 	O 	0.08413	0.17827	0.43285	-0.564
Mof_O 	O 	0.82618	0.21648	0.45394	-0.534
Mof_O 	O 	0.90587	0.14888	0.43723	-0.563
Mof_O 	O 	0.07351	0.81297	0.45251	-0.532
Mof_O 	O 	0.01413	0.89033	0.46882	-0.517
Mof_O 	O 	0.10184	0.28261	0.03289	-0.562
Mof_O 	O 	0.17329	0.35781	0.02233	-0.511
Mof_O 	O 	0.06383	0.53143	0.05616	-0.568
Mof_O 	O 	0.11686	0.47119	0.01466	-0.542
Mof_N 	N 	0.5867	0.42231	0.35634	-0.215
Mof_N 	N 	0.7665	0.11182	0.1438	-0.212
Mof_N 	N 	0.7424	0.25403	0.30169	-0.221
Mof_N 	N 	0.2473	0.08678	0.20141	-0.218
Mof_N 	N 	0.2332	0.29773	0.34372	-0.213
Mof_N 	N 	0.5752	0.08683	0.36802	-0.211
Mof_N 	N 	0.2147	0.94727	0.36943	-0.215
Mof_N 	N 	0.4259	0.24678	0.1336	-0.215
Mof_N 	N 	0.2815	0.42214	0.18349	-0.212
Mof_C 	C 	0.6707	0.41574	0.35048	-0.009
Mof_H 	H 	0.6757	0.3936	0.3253	0.015
Mof_C 	C 	0.7505	0.4398	0.37942	-0.01
Mof_H 	H 	0.809	0.4338	0.3744	0.05
Mof_C 	C 	0.7438	0.47277	0.41578	-0.12
Mof_C 	C 	0.6567	0.48242	0.42062	-0.009
Mof_H 	H 	0.6494	0.5064	0.4441	0.049
Mof_C 	C 	0.5803	0.45634	0.39048	0.008
Mof_H 	H 	0.5207	0.4627	0.3941	0.024
Mof_C 	C 	0.8297	0.49761	0.44889	0.479
Mof_C 	C 	0.8234	0.1396	0.12624	-0.005
Mof_H 	H 	0.8267	0.1773	0.1307	0.014
Mof_C 	C 	0.8776	0.11645	0.10187	0.005
Mof_H 	H 	0.9162	0.1382	0.0893	0.017
Mof_C 	C 	0.8761	0.06165	0.09552	-0.135
Mof_C 	C 	0.8196	0.03211	0.1152	0.014
Mof_H 	H 	0.818	0.9942	0.1128	0.037
Mof_C 	C 	0.7657	0.05831	0.1385	-0.007
Mof_H 	H 	0.7263	0.0376	0.1514	0.033
Mof_C 	C 	0.932	0.03573	0.06687	0.494
Mof_C 	C 	0.7179	0.26258	0.34083	0.008
Mof_H 	H 	0.6623	0.2465	0.343	0.007
Mof_C 	C 	0.7698	0.29396	0.37857	-0.026
Mof_H 	H 	0.7501	0.2988	0.4059	0.039
Mof_C 	C 	0.8508	0.31806	0.37559	-0.08
Mof_C 	C 	0.8739	0.31169	0.33395	-0.025
Mof_H 	H 	0.9266	0.3296	0.3299	0.058
Mof_C 	C 	0.8198	0.27917	0.2986	0.015
Mof_H 	H 	0.8376	0.2742	0.2708	0.014
Mof_C 	C 	0.9141	0.34981	0.41599	0.386
Mof_C 	C 	0.2697	0.087	0.16094	0.012
Mof_H 	H 	0.3241	0.0684	0.16	0.012
Mof_C 	C 	0.2165	0.1133	0.12027	-0.028
Mof_H 	H 	0.2347	0.1127	0.0923	0.049
Mof_C 	C 	0.1368	0.14043	0.12097	-0.077
Mof_C 	C 	0.1157	0.14272	0.1635	-0.028
Mof_H 	H 	0.0638	0.1628	0.1659	0.058
Mof_C 	C 	0.1718	0.11519	0.20217	0.024
Mof_H 	H 	0.1563	0.1164	0.2309	0.011
Mof_C 	C 	0.0755	0.16921	0.0777	0.397
Mof_C 	C 	0.1755	0.32724	0.36001	-0.001
Mof_H 	H 	0.1732	0.3647	0.3544	0.016
Mof_C 	C 	0.1191	0.30622	0.38457	0.001
Mof_H 	H 	0.079	0.3287	0.3954	0.023
Mof_C 	C 	0.1223	0.25178	0.39309	-0.138
Mof_C 	C 	0.1776	0.21997	0.37424	0.008
Mof_H 	H 	0.1782	0.1822	0.378	0.033
Mof_C 	C 	0.2319	0.24392	0.34991	-0.003
Mof_H 	H 	0.2696	0.222	0.337	0.024
Mof_C 	C 	0.0702	0.22694	0.42408	0.494
Mof_C 	C 	0.5743	0.13416	0.3898	0.005
Mof_H 	H 	0.516	0.1485	0.3898	0.028
Mof_C 	C 	0.6547	0.16294	0.41227	-0.011
Mof_H 	H 	0.651	0.1959	0.4276	0.052
Mof_C 	C 	0.7408	0.14259	0.41193	-0.124
Mof_C 	C 	0.7416	0.09466	0.38859	0.003
Mof_H 	H 	0.7989	0.08	0.3872	0.037
Mof_C 	C 	0.6588	0.06817	0.36726	-0.009
Mof_H 	H 	0.6608	0.0354	0.3514	0.02
Mof_C 	C 	0.8309	0.17162	0.43608	0.48
Mof_C 	C 	0.2179	0.89315	0.37315	0.005
Mof_H 	H 	0.2547	0.8738	0.3578	0.024
Mof_C 	C 	0.1697	0.86493	0.39831	-0.005
Mof_H 	H 	0.1739	0.827	0.4002	0.047
Mof_C 	C 	0.115	0.89248	0.42097	-0.114
Mof_C 	C 	0.1103	0.94787	0.41644	-0.014
Mof_H 	H 	0.0732	0.9681	0.4311	0.017
Mof_C 	C 	0.16	0.97332	0.39044	0.017
Mof_H 	H 	0.1551	0.0111	0.3872	-0.031
Mof_C 	C 	0.0627	0.86322	0.44977	0.48
Mof_C 	C 	0.3415	0.2305	0.1344	-0.009
Mof_H 	H 	0.3382	0.2032	0.1562	0.017
Mof_C 	C 	0.2597	0.25137	0.10531	0.003
Mof_H 	H 	0.2016	0.2385	0.1072	0.048
Mof_C 	C 	0.2621	0.29111	0.07337	-0.123
Mof_C 	C 	0.3487	0.31002	0.07344	-0.006
Mof_H 	H 	0.3532	0.3384	0.0529	0.046
Mof_C 	C 	0.4286	0.28723	0.10375	0.002
Mof_H 	H 	0.4875	0.3005	0.1035	0.029
Mof_C 	C 	0.1722	0.31282	0.04014	0.493
Mof_C 	C 	0.2103	0.45496	0.18217	-0.009
Mof_H 	H 	0.1974	0.4624	0.211	0.03
Mof_C 	C 	0.1545	0.47862	0.1409	0.022
Mof_H 	H 	0.1049	0.5017	0.1416	0.016
Mof_C 	C 	0.1725	0.46792	0.09867	-0.148
Mof_C 	C 	0.2482	0.436	0.0999	0.019
Mof_H 	H 	0.2642	0.4295	0.0717	0.039
Mof_C 	C 	0.3007	0.41357	0.14266	-0.018
Mof_H 	H 	0.352	0.3913	0.143	0.023
Mof_C 	C 	0.112	0.49193	0.05249	0.525
Mof_Tb	Tb	0.96453	0.9201	0.01385	2.129
Mof_Tb	Tb	0.95628	0.59944	0.03456	2.105
Mof_Tb	Tb	0.03896	0.75837	0.99543	2.118
Mof_I 	I 	0.67522	0.93333	0.18517	-0.599
Mof_I 	I 	0.47961	0.85567	0.26343	-0.759
Mof_I 	I 	0.74229	0.78035	0.27156	-0.57
Mof_I 	I 	0.5132	0.78827	0.12817	-0.558
Mof_I 	I 	0.49934	0.68914	0.24238	-0.762
Mof_I 	I 	0.30946	0.75189	0.32972	-0.59
Mof_I 	I 	0.49103	0.60823	0.37495	-0.559
Mof_I 	I 	0.25514	0.6026	0.23655	-0.596
Mof_I 	I 	0.51297	0.52221	0.25104	-0.759
Mof_I 	I 	0.69633	0.59085	0.16384	-0.617
Mof_I 	I 	0.77551	0.44527	0.25311	-0.577
Mof_I 	I 	0.52969	0.4482	0.118	-0.575
Mof_Cu	Cu	0.5206	0.87778	0.18214	0.717
Mof_Cu	Cu	0.67927	0.82947	0.18768	0.716
Mof_Cu	Cu	0.65305	0.87719	0.26005	0.72
Mof_Cu	Cu	0.5645	0.78149	0.2228	0.731
Mof_Cu	Cu	0.3269	0.70201	0.24889	0.727
Mof_Cu	Cu	0.46338	0.70557	0.3264	0.721
Mof_Cu	Cu	0.31731	0.64686	0.32327	0.717
Mof_Cu	Cu	0.43339	0.60554	0.2823	0.749
Mof_Cu	Cu	0.53976	0.54313	0.16594	0.736
Mof_Cu	Cu	0.68264	0.53985	0.24308	0.729
Mof_Cu	Cu	0.70513	0.48524	0.16539	0.735
Mof_Cu	Cu	0.40553	0.94516	0.28877	0.737
Mof_O 	O 	0.0961	0.97109	0.04122	-0.579
Mof_O 	O 	0.17735	0.04332	0.03506	-0.523
Mof_O 	O 	0.01801	0.56646	0.44883	-0.552
Mof_O 	O 	0.0777	0.48606	0.43992	-0.534
Mof_O 	O 	0.0876	0.84036	0.04186	-0.591
Mof_O 	O 	0.03443	0.88454	0.09268	-0.471
Mof_O 	O 	0.91931	0.65709	0.46337	-0.595
Mof_O 	O 	0.97669	0.70531	0.41653	-0.484
Mof_O 	O 	0.98121	0.75754	0.06038	-0.55
Mof_O 	O 	0.91587	0.67827	0.06715	-0.564
Mof_O 	O 	0.17382	0.71648	0.04606	-0.53
Mof_O 	O 	0.09413	0.64888	0.06277	-0.559
Mof_O 	O 	0.92649	0.31297	0.04749	-0.532
Mof_O 	O 	0.98587	0.39033	0.03118	-0.519
Mof_O 	O 	0.89816	0.78261	0.46711	-0.568
Mof_O 	O 	0.82671	0.85781	0.47767	-0.515
Mof_O 	O 	0.93617	0.03143	0.44384	-0.569
Mof_O 	O 	0.88314	0.97119	0.48534	-0.546
Mof_N 	N 	0.4133	0.92231	0.14366	-0.215
Mof_N 	N 	0.2335	0.61182	0.3562	-0.212
Mof_N 	N 	0.2576	0.75403	0.19831	-0.221
Mof_N 	N 	0.7527	0.58678	0.29859	-0.218
Mof_N 	N 	0.7668	0.79773	0.15628	-0.213
Mof_N 	N 	0.4248	0.58683	0.13198	-0.211
Mof_N 	N 	0.7853	0.44727	0.13057	-0.215
Mof_N 	N 	0.5741	0.74678	0.3664	-0.214
Mof_N 	N 	0.7185	0.92214	0.31651	-0.212
Mof_C 	C 	0.3293	0.91574	0.14952	-0.008
Mof_H 	H 	0.3243	0.8936	0.1747	0.014
Mof_C 	C 	0.2495	0.9398	0.12058	-0.011
Mof_H 	H 	0.191	0.9338	0.1256	0.051
Mof_C 	C 	0.2562	0.97277	0.08422	-0.118
Mof_C 	C 	0.3433	0.98242	0.07938	-0.01
Mof_H 	H 	0.3506	0.0064	0.0559	0.051
Mof_C 	C 	0.4197	0.95634	0.10952	0.009
Mof_H 	H 	0.4793	0.9627	0.1059	0.024
Mof_C 	C 	0.1703	0.99761	0.05111	0.478
Mof_C 	C 	0.1766	0.6396	0.37376	-0.003
Mof_H 	H 	0.1733	0.6773	0.3693	0.014
Mof_C 	C 	0.1224	0.61645	0.39813	0.003
Mof_H 	H 	0.0838	0.6382	0.4107	0.019
Mof_C 	C 	0.1239	0.56165	0.40448	-0.132
Mof_C 	C 	0.1804	0.53211	0.3848	0.007
Mof_H 	H 	0.182	0.4942	0.3872	0.041
Mof_C 	C 	0.2343	0.55831	0.3615	-0.003
Mof_H 	H 	0.2737	0.5376	0.3486	0.032
Mof_C 	C 	0.068	0.53573	0.43313	0.491
Mof_C 	C 	0.2821	0.76258	0.15917	0.009
Mof_H 	H 	0.3377	0.7465	0.157	0.007
Mof_C 	C 	0.2302	0.79396	0.12143	-0.027
Mof_H 	H 	0.2499	0.7988	0.0941	0.04
Mof_C 	C 	0.1492	0.81806	0.12441	-0.078
Mof_C 	C 	0.1261	0.81169	0.16605	-0.026
Mof_H 	H 	0.0734	0.8296	0.1701	0.06
Mof_C 	C 	0.1802	0.77917	0.2014	0.016
Mof_H 	H 	0.1624	0.7742	0.2292	0.015
Mof_C 	C 	0.0859	0.84981	0.08401	0.384
Mof_C 	C 	0.7303	0.587	0.33906	0.011
Mof_H 	H 	0.6759	0.5684	0.34	0.012
Mof_C 	C 	0.7835	0.6133	0.37973	-0.027
Mof_H 	H 	0.7653	0.6127	0.4077	0.048
Mof_C 	C 	0.8632	0.64043	0.37903	-0.079
Mof_C 	C 	0.8843	0.64272	0.3365	-0.028
Mof_H 	H 	0.9362	0.6628	0.3341	0.056
Mof_C 	C 	0.8282	0.61519	0.29783	0.023
Mof_H 	H 	0.8437	0.6164	0.2691	0.011
Mof_C 	C 	0.9245	0.66921	0.4223	0.398
Mof_C 	C 	0.8245	0.82724	0.13999	-0.002
Mof_H 	H 	0.8268	0.8647	0.1456	0.015
Mof_C 	C 	0.8809	0.80622	0.11543	0.001
Mof_H 	H 	0.921	0.8287	0.1046	0.021
Mof_C 	C 	0.8777	0.75178	0.10691	-0.139
Mof_C 	C 	0.8224	0.71997	0.12576	0.008
Mof_H 	H 	0.8218	0.6822	0.122	0.033
Mof_C 	C 	0.7681	0.74392	0.15009	-0.003
Mof_H 	H 	0.7304	0.722	0.163	0.024
Mof_C 	C 	0.9298	0.72694	0.07592	0.493
Mof_C 	C 	0.4257	0.63416	0.1102	0.006
Mof_H 	H 	0.484	0.6485	0.1102	0.028
Mof_C 	C 	0.3453	0.66294	0.08773	-0.011
Mof_H 	H 	0.349	0.6959	0.0724	0.053
Mof_C 	C 	0.2592	0.64259	0.08807	-0.123
Mof_C 	C 	0.2584	0.59466	0.11141	0.002
Mof_H 	H 	0.2011	0.58	0.1128	0.037
Mof_C 	C 	0.3412	0.56817	0.13274	-0.009
Mof_H 	H 	0.3392	0.5354	0.1486	0.02
Mof_C 	C 	0.1691	0.67162	0.06392	0.479
Mof_C 	C 	0.7821	0.39315	0.12685	0.004
Mof_H 	H 	0.7453	0.3738	0.1422	0.025
Mof_C 	C 	0.8303	0.36493	0.10169	-0.004
Mof_H 	H 	0.8261	0.327	0.0998	0.047
Mof_C 	C 	0.885	0.39248	0.07903	-0.116
Mof_C 	C 	0.8897	0.44787	0.08356	-0.012
Mof_H 	H 	0.9268	0.4681	0.0689	0.014
Mof_C 	C 	0.84	0.47332	0.10956	0.013
Mof_H 	H 	0.8449	0.5111	0.1128	-0.029
Mof_C 	C 	0.9373	0.36322	0.05023	0.48
Mof_C 	C 	0.6585	0.7305	0.3656	-0.009
Mof_H 	H 	0.6618	0.7032	0.3438	0.017
Mof_C 	C 	0.7403	0.75137	0.39469	0.003
Mof_H 	H 	0.7984	0.7385	0.3928	0.047
Mof_C 	C 	0.7379	0.79111	0.42663	-0.125
Mof_C 	C 	0.6513	0.81002	0.42656	-0.005
Mof_H 	H 	0.6468	0.8384	0.4471	0.045
Mof_C 	C 	0.5714	0.78723	0.39625	0.001
Mof_H 	H 	0.5125	0.8005	0.3965	0.029
Mof_C 	C 	0.8278	0.81282	0.45986	0.494
Mof_C 	C 	0.7897	0.95496	0.31783	-0.008
Mof_H 	H 	0.8026	0.9624	0.289	0.029
Mof_C 	C 	0.8455	0.97862	0.3591	0.016
Mof_H 	H 	0.8951	0.0017	0.3584	0.019
Mof_C 	C 	0.8275	0.96792	0.40133	-0.147
Mof_C 	C 	0.7518	0.936	0.4001	0.018
Mof_H 	H 	0.7358	0.9295	0.4283	0.039
Mof_C 	C 	0.6993	0.91357	0.35734	-0.017
Mof_H 	H 	0.648	0.8913	0.357	0.022
Mof_C 	C 	0.888	0.99193	0.44751	0.522
_end
