data_functionalizedCrystal
_audit_creation_method	'EQeq! by Chris Wilmer'
_symmetry_space_group_name_H-M	'P1'
_symmetry_Int_Tables_number	1
_symmetry_cell_setting	triclinic
loop_
_symmetry_equiv_pos_as_xyz
  x,y,z
_cell_length_a	10.7731
_cell_length_b	12.4199
_cell_length_c	13.5326
_cell_angle_alpha	99.0989
_cell_angle_beta	90
_cell_angle_gamma	115.703
loop_
_atom_site_label
_atom_site_type_symbol
_atom_site_fract_x
_atom_site_fract_y
_atom_site_fract_z
_atom_site_charge
Mof_Cd	Cd	0.93517	0.4061	0.85865	0.441
Mof_Cd	Cd	0.52907	0.5939	0.64135	0.442
Mof_Cd	Cd	0.06483	0.5939	0.14135	0.44
Mof_Cd	Cd	0.47093	0.4061	0.35865	0.441
Mof_H 	H 	0.8048	0.1134	0.8373	0.017
Mof_H 	H 	0.6335	0.9542	0.8937	0.112
Mof_H 	H 	0.6869	0.3368	0.987	0.009
Mof_H 	H 	0.52	0.1852	0.0528	0.112
Mof_H 	H 	0.2959	0.5726	0.8321	0.012
Mof_H 	H 	0.6914	0.8866	0.6627	0.018
Mof_H 	H 	0.6793	0.0458	0.6063	0.11
Mof_H 	H 	0.3501	0.6632	0.513	0.009
Mof_H 	H 	0.3348	0.8148	0.4472	0.113
Mof_H 	H 	0.7233	0.4274	0.6679	0.012
Mof_H 	H 	0.1952	0.8866	0.1627	0.017
Mof_H 	H 	0.3665	0.0458	0.1063	0.112
Mof_H 	H 	0.3131	0.6632	0.013	0.009
Mof_H 	H 	0.48	0.8148	0.9472	0.112
Mof_H 	H 	0.7041	0.4274	0.1679	0.012
Mof_H 	H 	0.3086	0.1134	0.3373	0.018
Mof_H 	H 	0.3207	0.9542	0.3937	0.11
Mof_H 	H 	0.6499	0.3368	0.487	0.009
Mof_H 	H 	0.6652	0.1852	0.5528	0.113
Mof_H 	H 	0.2767	0.5726	0.3321	0.012
Mof_C 	C 	0.7466	0.1292	0.8819	0.116
Mof_C 	C 	0.6429	0.0324	0.9155	-0.158
Mof_C 	C 	0.6791	0.2586	0.9694	0.111
Mof_C 	C 	0.576	0.167	0.0075	-0.154
Mof_C 	C 	0.5554	0.0502	0.9796	0.088
Mof_C 	C 	0.2498	0.519	0.7736	0.115
Mof_C 	C 	0.2113	0.4206	0.6247	-0
Mof_C 	C 	0.2446	0.3834	0.523	0.29
Mof_C 	C 	0.0887	0.3818	0.6699	0.001
Mof_C 	C 	0.9489	0.2904	0.6353	0.276
Mof_C 	C 	0.6174	0.8708	0.6181	0.115
Mof_C 	C 	0.6105	0.9676	0.5845	-0.155
Mof_C 	C 	0.4205	0.7414	0.5306	0.113
Mof_C 	C 	0.409	0.833	0.4925	-0.157
Mof_C 	C 	0.5052	0.9498	0.5204	0.089
Mof_C 	C 	0.7308	0.481	0.7264	0.115
Mof_C 	C 	0.7907	0.5794	0.8753	0.001
Mof_C 	C 	0.8612	0.6166	0.977	0.287
Mof_C 	C 	0.7069	0.6182	0.8301	-0.001
Mof_C 	C 	0.6585	0.7096	0.8647	0.278
Mof_C 	C 	0.2534	0.8708	0.1181	0.116
Mof_C 	C 	0.3571	0.9676	0.0845	-0.158
Mof_C 	C 	0.3209	0.7414	0.0306	0.111
Mof_C 	C 	0.424	0.833	0.9925	-0.154
Mof_C 	C 	0.4446	0.9498	0.0204	0.088
Mof_C 	C 	0.7502	0.481	0.2264	0.115
Mof_C 	C 	0.7887	0.5794	0.3753	-0
Mof_C 	C 	0.7554	0.6166	0.477	0.29
Mof_C 	C 	0.9113	0.6182	0.3301	0.001
Mof_C 	C 	0.0511	0.7096	0.3647	0.276
Mof_C 	C 	0.3826	0.1292	0.3819	0.115
Mof_C 	C 	0.3895	0.0324	0.4155	-0.155
Mof_C 	C 	0.5795	0.2586	0.4694	0.113
Mof_C 	C 	0.591	0.167	0.5075	-0.157
Mof_C 	C 	0.4948	0.0502	0.4796	0.089
Mof_C 	C 	0.2692	0.519	0.2736	0.115
Mof_C 	C 	0.2093	0.4206	0.1247	0.001
Mof_C 	C 	0.1388	0.3834	0.023	0.287
Mof_C 	C 	0.2931	0.3818	0.1699	-0.001
Mof_C 	C 	0.3415	0.2904	0.1353	0.278
Mof_N 	N 	0.7673	0.2416	0.9095	-0.16
Mof_N 	N 	0.1145	0.4466	0.7652	-0.137
Mof_N 	N 	0.3127	0.5072	0.6909	-0.138
Mof_N 	N 	0.5257	0.7584	0.5905	-0.16
Mof_N 	N 	0.6679	0.5534	0.7348	-0.138
Mof_N 	N 	0.8055	0.4928	0.8091	-0.138
Mof_N 	N 	0.2327	0.7584	0.0905	-0.16
Mof_N 	N 	0.8855	0.5534	0.2348	-0.137
Mof_N 	N 	0.6873	0.4928	0.3091	-0.138
Mof_N 	N 	0.4743	0.2416	0.4095	-0.16
Mof_N 	N 	0.3321	0.4466	0.2652	-0.138
Mof_N 	N 	0.1945	0.5072	0.1909	-0.138
Mof_O 	O 	0.8547	0.2714	0.6918	-0.264
Mof_O 	O 	0.9306	0.2294	0.5466	-0.198
Mof_O 	O 	0.1529	0.298	0.4655	-0.209
Mof_O 	O 	0.3679	0.4394	0.5033	-0.282
Mof_O 	O 	0.5833	0.7286	0.8082	-0.264
Mof_O 	O 	0.7012	0.7706	0.9534	-0.199
Mof_O 	O 	0.8549	0.702	0.0345	-0.207
Mof_O 	O 	0.9285	0.5606	0.9967	-0.282
Mof_O 	O 	0.1453	0.7286	0.3082	-0.264
Mof_O 	O 	0.0694	0.7706	0.4534	-0.198
Mof_O 	O 	0.8471	0.702	0.5345	-0.209
Mof_O 	O 	0.6321	0.5606	0.4967	-0.282
Mof_O 	O 	0.4167	0.2714	0.1918	-0.264
Mof_O 	O 	0.2988	0.2294	0.0466	-0.199
Mof_O 	O 	0.1451	0.298	0.9655	-0.207
Mof_O 	O 	0.0715	0.4394	0.0033	-0.282
_end
