data_functionalizedCrystal
_audit_creation_method	'EQeq! by Chris Wilmer'
_symmetry_space_group_name_H-M	'P1'
_symmetry_Int_Tables_number	1
_symmetry_cell_setting	triclinic
loop_
_symmetry_equiv_pos_as_xyz
  x,y,z
_cell_length_a	9.9922
_cell_length_b	11.4136
_cell_length_c	14.9707
_cell_angle_alpha	91.1216
_cell_angle_beta	90
_cell_angle_gamma	90
loop_
_atom_site_label
_atom_site_type_symbol
_atom_site_fract_x
_atom_site_fract_y
_atom_site_fract_z
_atom_site_charge
Mof_Fe	Fe	0.92406	0.75482	0.13371	1.017
Mof_Fe	Fe	0.88419	0.26132	0.69274	0.959
Mof_Fe	Fe	0.42406	0.74518	0.36629	0.931
Mof_Fe	Fe	0.38419	0.23868	0.80726	0.917
Mof_Fe	Fe	0.07594	0.24518	0.86629	0.827
Mof_Fe	Fe	0.11581	0.73868	0.30726	0.894
Mof_Fe	Fe	0.57594	0.25482	0.63371	0.913
Mof_Fe	Fe	0.61581	0.76132	0.19274	0.935
Mof_Fe	Fe	7.39397e-33	0.5	-0	0.759
Mof_Fe	Fe	0.5	0	0.5	0.888
Mof_Fe	Fe	-0	0	-0	0.695
Mof_Fe	Fe	0.5	0.5	0.5	0.96
Mof_H 	H 	0.765	0.859	0.369	-0.074
Mof_H 	H 	0.054	0.478	0.259	-0.125
Mof_H 	H 	0.623	0.558	0.054	-0.133
Mof_H 	H 	0.221	0.974	0.218	-0.09
Mof_H 	H 	0.146	0.697	0.926	-0.136
Mof_H 	H 	0.71	0.993	0.02	-0.102
Mof_H 	H 	0.265	0.641	0.131	-0.102
Mof_H 	H 	0.554	0.022	0.241	-0.206
Mof_H 	H 	0.123	0.942	0.446	-0.118
Mof_H 	H 	0.721	0.526	0.282	-0.07
Mof_H 	H 	0.646	0.803	0.574	-0.097
Mof_H 	H 	0.21	0.507	0.48	-0.12
Mof_H 	H 	0.235	0.141	0.631	-0.101
Mof_H 	H 	0.946	0.522	0.741	-0.08
Mof_H 	H 	0.377	0.442	0.946	-0.085
Mof_H 	H 	0.779	0.026	0.782	-0.055
Mof_H 	H 	0.854	0.303	0.074	-0.054
Mof_H 	H 	0.29	0.007	0.98	-0.089
Mof_H 	H 	0.735	0.359	0.869	-0.069
Mof_H 	H 	0.446	0.978	0.759	-0.002
Mof_H 	H 	0.877	0.058	0.554	-0.107
Mof_H 	H 	0.279	0.474	0.718	-0.086
Mof_H 	H 	0.354	0.197	0.426	-0.126
Mof_H 	H 	0.79	0.493	0.52	-0.097
Mof_C 	C 	0.8354	0.8276	0.3295	0.465
Mof_C 	C 	0.0282	0.517	0.2064	0.521
Mof_C 	C 	0.7147	0.5709	0.0583	0.531
Mof_C 	C 	0.1425	0.9471	0.1787	0.519
Mof_C 	C 	0.0948	0.7427	0.9652	0.621
Mof_C 	C 	0.7255	0.9332	0.0595	0.496
Mof_C 	C 	0.3354	0.6724	0.1705	0.469
Mof_C 	C 	0.5282	0.983	0.2936	0.703
Mof_C 	C 	0.2147	0.9291	0.4417	0.519
Mof_C 	C 	0.6425	0.5529	0.3213	0.45
Mof_C 	C 	0.5948	0.7573	0.5348	0.517
Mof_C 	C 	0.2255	0.5668	0.4405	0.516
Mof_C 	C 	0.1646	0.1724	0.6705	0.468
Mof_C 	C 	0.9718	0.483	0.7936	0.479
Mof_C 	C 	0.2853	0.4291	0.9417	0.49
Mof_C 	C 	0.8575	0.0529	0.8213	0.349
Mof_C 	C 	0.9052	0.2573	0.0348	0.355
Mof_C 	C 	0.2745	0.0668	0.9405	0.489
Mof_C 	C 	0.6646	0.3276	0.8295	0.462
Mof_C 	C 	0.4718	0.017	0.7064	0.312
Mof_C 	C 	0.7853	0.0709	0.5583	0.524
Mof_C 	C 	0.3575	0.4471	0.6787	0.455
Mof_C 	C 	0.4052	0.2427	0.4652	0.53
Mof_C 	C 	0.7745	0.4332	0.5595	0.506
Mof_O 	O 	0.80685	0.80759	0.24839	-0.453
Mof_O 	O 	0.94605	0.8113	0.3653	-0.333
Mof_O 	O 	0.01183	0.62623	0.21553	-0.511
Mof_O 	O 	0.0165	0.45942	0.13672	-0.423
Mof_O 	O 	0.74605	0.65256	0.11276	-0.48
Mof_O 	O 	0.791	0.51348	0.01038	-0.398
Mof_O 	O 	0.08831	0.84886	0.19316	-0.5
Mof_O 	O 	0.1173	0.01262	0.11662	-0.446
Mof_O 	O 	0.02494	0.68654	0.02164	-0.562
Mof_O 	O 	0.1027	0.84918	0.95918	-0.369
Mof_O 	O 	0.84679	0.89897	0.06527	-0.432
Mof_O 	O 	0.62853	0.89417	0.10057	-0.391
Mof_O 	O 	0.30685	0.69241	0.25161	-0.462
Mof_O 	O 	0.44605	0.6887	0.1347	-0.395
Mof_O 	O 	0.51183	0.87377	0.28447	-0.521
Mof_O 	O 	0.5165	0.04058	0.36328	-0.479
Mof_O 	O 	0.24605	0.84744	0.38724	-0.474
Mof_O 	O 	0.291	0.98652	0.48962	-0.369
Mof_O 	O 	0.58831	0.65114	0.30684	-0.458
Mof_O 	O 	0.6173	0.48738	0.38338	-0.377
Mof_O 	O 	0.52494	0.81346	0.47836	-0.457
Mof_O 	O 	0.6027	0.65082	0.54082	-0.401
Mof_O 	O 	0.34679	0.60103	0.43473	-0.476
Mof_O 	O 	0.12853	0.60583	0.39943	-0.412
Mof_O 	O 	0.19315	0.19241	0.75161	-0.473
Mof_O 	O 	0.05395	0.1887	0.6347	-0.432
Mof_O 	O 	0.98817	0.37377	0.78447	-0.429
Mof_O 	O 	0.9835	0.54058	0.86328	-0.306
Mof_O 	O 	0.25395	0.34744	0.88724	-0.459
Mof_O 	O 	0.209	0.48652	0.98962	-0.337
Mof_O 	O 	0.91169	0.15114	0.80684	-0.397
Mof_O 	O 	0.8827	0.98738	0.88338	-0.224
Mof_O 	O 	0.97506	0.31346	0.97836	-0.304
Mof_O 	O 	0.8973	0.15082	0.04082	-0.342
Mof_O 	O 	0.15321	0.10103	0.93473	-0.433
Mof_O 	O 	0.37147	0.10583	0.89943	-0.388
Mof_O 	O 	0.69315	0.30759	0.74839	-0.462
Mof_O 	O 	0.55395	0.3113	0.8653	-0.366
Mof_O 	O 	0.48817	0.12623	0.71553	-0.429
Mof_O 	O 	0.4835	0.95942	0.63672	-0.293
Mof_O 	O 	0.75395	0.15256	0.61276	-0.476
Mof_O 	O 	0.709	0.01348	0.51038	-0.409
Mof_O 	O 	0.41169	0.34886	0.69316	-0.461
Mof_O 	O 	0.3827	0.51262	0.61662	-0.383
Mof_O 	O 	0.47506	0.18654	0.52164	-0.474
Mof_O 	O 	0.3973	0.34918	0.45918	-0.415
Mof_O 	O 	0.65321	0.39897	0.56527	-0.467
Mof_O 	O 	0.87147	0.39417	0.60057	-0.379
_end
