data_functionalizedCrystal
_audit_creation_method	'EQeq! by Chris Wilmer'
_symmetry_space_group_name_H-M	'P1'
_symmetry_Int_Tables_number	1
_symmetry_cell_setting	triclinic
loop_
_symmetry_equiv_pos_as_xyz
  x,y,z
_cell_length_a	29.6774
_cell_length_b	9.6295
_cell_length_c	7.9812
_cell_angle_alpha	90
_cell_angle_beta	97.69
_cell_angle_gamma	90
loop_
_atom_site_label
_atom_site_type_symbol
_atom_site_fract_x
_atom_site_fract_y
_atom_site_fract_z
_atom_site_charge
Mof_O 	O 	0.06556	0.9316	0.9919	-0.36
Mof_O 	O 	0.07419	0.7854	0.213	-0.316
Mof_H 	H 	0.0239	0.868	0.238	0.364
Mof_C 	C 	0.13664	0.8198	0.061	-0.054
Mof_C 	C 	0.16435	0.7348	0.1729	-0.09
Mof_H 	H 	0.1524	0.6956	0.2669	0.072
Mof_C 	C 	0.20863	0.7067	0.15	0.077
Mof_C 	C 	0.22636	0.7638	0.0134	-0.156
Mof_C 	C 	0.1987	0.8499	0.9003	0.115
Mof_C 	C 	0.15453	0.8763	0.9264	-0.047
Mof_H 	H 	0.1361	0.9349	0.8497	0.073
Mof_C 	C 	0.2353	0.5843	0.2415	-0.061
Mof_H 	H 	0.2242	0.5655	0.3507	0.022
Mof_H 	H 	0.2311	0.4993	0.1712	0.031
Mof_C 	C 	0.2429	0.6475	0.2955	-0.069
Mof_H 	H 	0.2588	0.7241	0.3617	0.035
Mof_H 	H 	0.2268	0.5907	0.3721	0.029
Mof_C 	C 	0.2155	0.8764	0.7293	-0.318
Mof_H 	H 	0.2114	0.7917	0.6587	0.129
Mof_H 	H 	0.1975	0.9522	0.6687	-0.153
Mof_C 	C 	0.2234	0.9409	0.7829	0.193
Mof_H 	H 	0.201	0.9816	0.6931	0.225
Mof_H 	H 	0.2394	0.0178	0.8482	-0.061
Mof_C 	C 	0.08859	0.8473	0.0906	0.257
Mof_O 	O 	0.56556	0.4316	0.9919	-0.381
Mof_O 	O 	0.57419	0.2854	0.213	-0.328
Mof_H 	H 	0.5239	0.368	0.238	0.361
Mof_C 	C 	0.63664	0.3198	0.061	-0.068
Mof_C 	C 	0.66435	0.2348	0.1729	-0.096
Mof_H 	H 	0.6524	0.1956	0.2669	0.066
Mof_C 	C 	0.70863	0.2067	0.15	0.072
Mof_C 	C 	0.72636	0.2638	0.0134	-0.165
Mof_C 	C 	0.6987	0.3499	0.9003	0.107
Mof_C 	C 	0.65453	0.3763	0.9264	-0.046
Mof_H 	H 	0.6361	0.4349	0.8497	0.062
Mof_C 	C 	0.7353	0.0843	0.2415	-0.226
Mof_H 	H 	0.7242	0.0655	0.3507	-0.041
Mof_H 	H 	0.7311	0.9993	0.1712	0.096
Mof_C 	C 	0.7429	0.1475	0.2955	0.075
Mof_H 	H 	0.7588	0.2241	0.3617	-0.007
Mof_H 	H 	0.7268	0.0907	0.3721	0.089
Mof_C 	C 	0.7155	0.3764	0.7293	-0.094
Mof_H 	H 	0.7114	0.2917	0.6587	0.047
Mof_H 	H 	0.6975	0.4522	0.6687	0.017
Mof_C 	C 	0.7234	0.4409	0.7829	-0.046
Mof_H 	H 	0.701	0.4816	0.6931	0.044
Mof_H 	H 	0.7394	0.5178	0.8482	0.038
Mof_C 	C 	0.58859	0.3473	0.0906	0.257
Mof_O 	O 	0.93444	0.9316	0.5081	-0.411
Mof_O 	O 	0.92581	0.7854	0.287	-0.327
Mof_H 	H 	0.9761	0.868	0.262	0.372
Mof_C 	C 	0.86336	0.8198	0.439	-0.036
Mof_C 	C 	0.83565	0.7348	0.3271	-0.059
Mof_H 	H 	0.8476	0.6956	0.2331	0.056
Mof_C 	C 	0.79137	0.7067	0.35	0.025
Mof_C 	C 	0.77364	0.7638	0.4866	-0.019
Mof_C 	C 	0.8013	0.8499	0.5997	0.037
Mof_C 	C 	0.84547	0.8763	0.5736	-0.064
Mof_H 	H 	0.8639	0.9349	0.6503	0.076
Mof_C 	C 	0.7647	0.5843	0.2585	-0.023
Mof_H 	H 	0.7758	0.5655	0.1493	0.014
Mof_H 	H 	0.7689	0.4993	0.3288	0.024
Mof_C 	C 	0.7571	0.6475	0.2045	-0.063
Mof_H 	H 	0.7412	0.7241	0.1383	0.024
Mof_H 	H 	0.7732	0.5907	0.1279	0.016
Mof_C 	C 	0.7845	0.8764	0.7707	-0.279
Mof_H 	H 	0.7886	0.7917	0.8413	0.123
Mof_H 	H 	0.8025	0.9522	0.8313	-0.152
Mof_C 	C 	0.7766	0.9409	0.7171	0.198
Mof_H 	H 	0.799	0.9816	0.8069	0.221
Mof_H 	H 	0.7606	0.0178	0.6518	-0.07
Mof_C 	C 	0.91141	0.8473	0.4094	0.313
Mof_O 	O 	0.43444	0.4316	0.5081	-0.435
Mof_O 	O 	0.42581	0.2854	0.287	-0.342
Mof_H 	H 	0.4761	0.368	0.262	0.364
Mof_C 	C 	0.36336	0.3198	0.439	-0.05
Mof_C 	C 	0.33565	0.2348	0.3271	-0.065
Mof_H 	H 	0.3476	0.1956	0.2331	0.05
Mof_C 	C 	0.29137	0.2067	0.35	0.019
Mof_C 	C 	0.27364	0.2638	0.4866	-0.027
Mof_C 	C 	0.3013	0.3499	0.5997	0.028
Mof_C 	C 	0.34547	0.3763	0.5736	-0.064
Mof_H 	H 	0.3639	0.4349	0.6503	0.065
Mof_C 	C 	0.2647	0.0843	0.2585	-0.191
Mof_H 	H 	0.2758	0.0655	0.1493	-0.05
Mof_H 	H 	0.2689	0.9993	0.3288	0.089
Mof_C 	C 	0.2571	0.1475	0.2045	0.084
Mof_H 	H 	0.2412	0.2241	0.1383	-0.02
Mof_H 	H 	0.2732	0.0907	0.1279	0.077
Mof_C 	C 	0.2845	0.3764	0.7707	-0.058
Mof_H 	H 	0.2886	0.2917	0.8413	0.042
Mof_H 	H 	0.3025	0.4522	0.8313	0.017
Mof_C 	C 	0.2766	0.4409	0.7171	-0.039
Mof_H 	H 	0.299	0.4816	0.8069	0.043
Mof_H 	H 	0.2606	0.5178	0.6518	0.028
Mof_C 	C 	0.41141	0.3473	0.4094	0.314
Mof_O 	O 	0.93444	0.0684	0.0081	-0.496
Mof_O 	O 	0.92581	0.2146	0.787	-0.342
Mof_H 	H 	0.9761	0.132	0.762	0.382
Mof_C 	C 	0.86336	0.1802	0.939	-0.033
Mof_C 	C 	0.83565	0.2652	0.8271	-0.043
Mof_H 	H 	0.8476	0.3044	0.7331	0.054
Mof_C 	C 	0.79137	0.2933	0.85	-0.025
Mof_C 	C 	0.77364	0.2362	0.9866	0.105
Mof_C 	C 	0.8013	0.1501	0.0997	-0.058
Mof_C 	C 	0.84547	0.1237	0.0736	-0.088
Mof_H 	H 	0.8639	0.0651	0.1503	0.053
Mof_C 	C 	0.7647	0.4157	0.7585	-0.014
Mof_H 	H 	0.7758	0.4345	0.6493	0.016
Mof_H 	H 	0.7689	0.5007	0.8288	0.026
Mof_C 	C 	0.7571	0.3525	0.7045	-0.035
Mof_H 	H 	0.7412	0.2759	0.6383	0.021
Mof_H 	H 	0.7732	0.4093	0.6279	0.018
Mof_C 	C 	0.7845	0.1236	0.2707	0.182
Mof_H 	H 	0.7886	0.2083	0.3413	-0.049
Mof_H 	H 	0.8025	0.0478	0.3313	0.181
Mof_C 	C 	0.7766	0.0591	0.2171	-0.253
Mof_H 	H 	0.799	0.0184	0.3069	-0.149
Mof_H 	H 	0.7606	0.9822	0.1518	0.112
Mof_C 	C 	0.91141	0.1527	0.9094	0.365
Mof_O 	O 	0.43444	0.5684	0.0081	-0.484
Mof_O 	O 	0.42581	0.7146	0.787	-0.332
Mof_H 	H 	0.4761	0.632	0.762	0.376
Mof_C 	C 	0.36336	0.6802	0.939	-0.022
Mof_C 	C 	0.33565	0.7652	0.8271	-0.036
Mof_H 	H 	0.3476	0.8044	0.7331	0.059
Mof_C 	C 	0.29137	0.7933	0.85	-0.02
Mof_C 	C 	0.27364	0.7362	0.9866	0.113
Mof_C 	C 	0.3013	0.6501	0.0997	-0.049
Mof_C 	C 	0.34547	0.6237	0.0736	-0.087
Mof_H 	H 	0.3639	0.5651	0.1503	0.063
Mof_C 	C 	0.2647	0.9157	0.7585	0.149
Mof_H 	H 	0.2758	0.9345	0.6493	0.078
Mof_H 	H 	0.2689	0.0007	0.8288	-0.037
Mof_C 	C 	0.2571	0.8525	0.7045	-0.177
Mof_H 	H 	0.2412	0.7759	0.6383	0.063
Mof_H 	H 	0.2732	0.9093	0.6279	-0.041
Mof_C 	C 	0.2845	0.6236	0.2707	-0.044
Mof_H 	H 	0.2886	0.7083	0.3413	0.033
Mof_H 	H 	0.3025	0.5478	0.3313	0.008
Mof_C 	C 	0.2766	0.5591	0.2171	-0.011
Mof_H 	H 	0.299	0.5184	0.3069	0.034
Mof_H 	H 	0.2606	0.4822	0.1518	0.011
Mof_C 	C 	0.41141	0.6527	0.9094	0.366
Mof_O 	O 	0.06556	0.0684	0.4919	-0.452
Mof_O 	O 	0.07419	0.2146	0.713	-0.33
Mof_H 	H 	0.0239	0.132	0.738	0.373
Mof_C 	C 	0.13664	0.1802	0.561	-0.052
Mof_C 	C 	0.16435	0.2652	0.6729	-0.073
Mof_H 	H 	0.1524	0.3044	0.7669	0.069
Mof_C 	C 	0.20863	0.2933	0.65	0.027
Mof_C 	C 	0.22636	0.2362	0.5134	-0.033
Mof_C 	C 	0.1987	0.1501	0.4003	0.021
Mof_C 	C 	0.15453	0.1237	0.4264	-0.07
Mof_H 	H 	0.1361	0.0651	0.3497	0.05
Mof_C 	C 	0.2353	0.4157	0.7415	-0.052
Mof_H 	H 	0.2242	0.4345	0.8507	0.024
Mof_H 	H 	0.2311	0.5007	0.6712	0.034
Mof_C 	C 	0.2429	0.3525	0.7955	-0.041
Mof_H 	H 	0.2588	0.2759	0.8617	0.032
Mof_H 	H 	0.2268	0.4093	0.8721	0.031
Mof_C 	C 	0.2155	0.1236	0.2293	0.149
Mof_H 	H 	0.2114	0.2083	0.1587	-0.045
Mof_H 	H 	0.1975	0.0478	0.1687	0.184
Mof_C 	C 	0.2234	0.0591	0.2829	-0.265
Mof_H 	H 	0.201	0.0184	0.1931	-0.151
Mof_H 	H 	0.2394	0.9822	0.3482	0.124
Mof_C 	C 	0.08859	0.1527	0.5906	0.31
Mof_O 	O 	0.56556	0.5684	0.4919	-0.437
Mof_O 	O 	0.57419	0.7146	0.713	-0.318
Mof_H 	H 	0.5239	0.632	0.738	0.372
Mof_C 	C 	0.63664	0.6802	0.561	-0.041
Mof_C 	C 	0.66435	0.7652	0.6729	-0.067
Mof_H 	H 	0.6524	0.8044	0.7669	0.074
Mof_C 	C 	0.70863	0.7933	0.65	0.032
Mof_C 	C 	0.72636	0.7362	0.5134	-0.025
Mof_C 	C 	0.6987	0.6501	0.4003	0.029
Mof_C 	C 	0.65453	0.6237	0.4264	-0.069
Mof_H 	H 	0.6361	0.5651	0.3497	0.06
Mof_C 	C 	0.7353	0.9157	0.7415	0.109
Mof_H 	H 	0.7242	0.9345	0.8507	0.085
Mof_H 	H 	0.7311	0.0007	0.6712	-0.028
Mof_C 	C 	0.7429	0.8525	0.7955	-0.182
Mof_H 	H 	0.7588	0.7759	0.8617	0.073
Mof_H 	H 	0.7268	0.9093	0.8721	-0.028
Mof_C 	C 	0.7155	0.6236	0.2293	-0.08
Mof_H 	H 	0.7114	0.7083	0.1587	0.038
Mof_H 	H 	0.6975	0.5478	0.1687	0.009
Mof_C 	C 	0.7234	0.5591	0.2829	-0.018
Mof_H 	H 	0.701	0.5184	0.1931	0.034
Mof_H 	H 	0.7394	0.4822	0.3482	0.021
Mof_C 	C 	0.58859	0.6527	0.5906	0.31
Mof_Co	Co	-0	0	-0	1.099
Mof_Co	Co	0.5	0.5	-0	1.118
Mof_Co	Co	5.71631e-34	0	0.5	1.12
Mof_Co	Co	0.5	0.5	0.5	1.139
Mof_O 	O 	2.85815e-34	0.915	0.25	-0.955
Mof_O 	O 	0.5	0.415	0.25	-0.972
Mof_O 	O 	8.57446e-34	0.085	0.75	-0.988
Mof_O 	O 	0.5	0.585	0.75	-0.966
_end
