data_functionalizedCrystal
_audit_creation_method	'EQeq! by Chris Wilmer'
_symmetry_space_group_name_H-M	'P1'
_symmetry_Int_Tables_number	1
_symmetry_cell_setting	triclinic
loop_
_symmetry_equiv_pos_as_xyz
  x,y,z
_cell_length_a	34.7285
_cell_length_b	14.8592
_cell_length_c	30.9411
_cell_angle_alpha	90
_cell_angle_beta	101.514
_cell_angle_gamma	90
loop_
_atom_site_label
_atom_site_type_symbol
_atom_site_fract_x
_atom_site_fract_y
_atom_site_fract_z
_atom_site_charge
Mof_I 	I 	0.52647	0.15177	0.13313	-0.35
Mof_I 	I 	0.62052	0.23941	0.05817	-0.382
Mof_I 	I 	0.88967	0.24065	0.40476	-0.379
Mof_I 	I 	0.85114	0.09016	0.51464	-0.37
Mof_I 	I 	0.74011	0.27388	0.3038	-0.384
Mof_Zn	Zn	0.58328	0.12495	0.09389	1.164
Mof_Zn	Zn	0.873	0.09726	0.44147	1.165
Mof_Zn	Zn	0.67616	0.35521	0.27502	1.16
Mof_N 	N 	0.7204	0.9495	0.2733	-0.142
Mof_N 	N 	0.6803	0.8222	0.2513	-0.136
Mof_N 	N 	0.733	0.8108	0.3124	-0.14
Mof_N 	N 	0.6222	0.0535	0.1406	-0.277
Mof_N 	N 	0.6852	0.4927	0.2803	-0.283
Mof_N 	N 	0.5378	0.3517	0.4122	-0.134
Mof_N 	N 	0.5741	0.2204	0.4379	-0.135
Mof_N 	N 	0.8305	0.0332	0.3964	-0.28
Mof_N 	N 	0.5221	0.2688	0.4718	-0.148
Mof_N 	N 	0.5693	0.9797	0.5487	-0.274
Mof_N 	N 	0.6417	0.3365	0.321	-0.285
Mof_C 	C 	0.69	0.9067	0.2476	0.098
Mof_C 	C 	0.6672	0.9595	0.2105	0.07
Mof_C 	C 	0.7036	0.777	0.2832	0.099
Mof_N 	N 	0.42	0.512	0.4444	-0.284
Mof_C 	C 	0.5167	0.336	0.4431	0.084
Mof_C 	C 	0.5572	0.1303	0.4956	0.066
Mof_C 	C 	0.7712	0.9456	0.338	0.062
Mof_C 	C 	0.6969	0.6777	0.2841	0.076
Mof_C 	C 	0.4832	0.3974	0.4439	0.072
Mof_C 	C 	0.6781	0.045	0.1994	-0.141
Mof_H 	H 	0.7008	0.0718	0.2153	0.084
Mof_C 	C 	0.5503	0.2112	0.4668	0.086
Mof_C 	C 	0.5303	0.1074	0.521	-0.132
Mof_H 	H 	0.5081	0.1425	0.5207	0.079
Mof_C 	C 	0.5666	0.2921	0.4116	0.101
Mof_C 	C 	0.7393	0.8998	0.3068	0.081
Mof_C 	C 	0.8102	0.0749	0.3608	0.084
Mof_H 	H 	0.8161	0.1345	0.3558	-0.006
Mof_C 	C 	0.781	0.0332	0.3315	-0.145
Mof_H 	H 	0.7677	0.0645	0.307	0.098
Mof_C 	C 	0.467	0.4054	0.4798	-0.148
Mof_H 	H 	0.4767	0.3712	0.5048	0.089
Mof_C 	C 	0.655	0.0895	0.1648	0.079
Mof_H 	H 	0.6624	0.1471	0.1579	-0.015
Mof_C 	C 	0.6677	0.6398	0.2538	-0.147
Mof_H 	H 	0.6511	0.6759	0.2336	0.095
Mof_C 	C 	0.5373	0.0307	0.5472	0.077
Mof_H 	H 	0.5192	0.0144	0.5641	-0.012
Mof_C 	C 	0.7207	0.6215	0.313	-0.145
Mof_H 	H 	0.7412	0.6447	0.3342	0.089
Mof_C 	C 	0.7137	0.5296	0.3101	0.087
Mof_H 	H 	0.7297	0.4918	0.3299	-0.017
Mof_C 	C 	0.6627	0.5475	0.2529	0.088
Mof_H 	H 	0.6425	0.523	0.2319	-0.021
Mof_C 	C 	0.7918	0.901	0.3746	-0.134
Mof_H 	H 	0.7867	0.841	0.38	0.093
Mof_C 	C 	0.436	0.4646	0.4798	0.092
Mof_H 	H 	0.4261	0.4711	0.5054	-0.012
Mof_C 	C 	0.5921	0.3068	0.38	0.076
Mof_C 	C 	0.589	0.0765	0.4973	-0.136
Mof_H 	H 	0.6073	0.0906	0.48	0.088
Mof_C 	C 	0.6345	0.9214	0.1847	-0.139
Mof_H 	H 	0.6272	0.8628	0.1898	0.101
Mof_C 	C 	0.6288	0.2661	0.386	-0.129
Mof_H 	H 	0.6373	0.2284	0.41	0.091
Mof_C 	C 	0.5949	0.002	0.5238	0.083
Mof_H 	H 	0.617	0.9665	0.5243	-0.018
Mof_C 	C 	0.5821	0.364	0.344	-0.141
Mof_H 	H 	0.5584	0.395	0.3394	0.094
Mof_C 	C 	0.8208	0.9498	0.4035	0.086
Mof_H 	H 	0.8339	0.9215	0.4291	-0.007
Mof_C 	C 	0.6125	0.9717	0.1509	0.092
Mof_H 	H 	0.5897	0.9463	0.1347	-0.013
Mof_C 	C 	0.6071	0.3749	0.3153	0.098
Mof_H 	H 	0.5992	0.4112	0.2907	-0.027
Mof_C 	C 	0.6526	0.2826	0.3557	0.081
Mof_H 	H 	0.677	0.2548	0.3598	-0.013
Mof_C 	C 	0.436	0.5015	0.4094	0.098
Mof_H 	H 	0.4249	0.5334	0.3841	-0.024
Mof_C 	C 	0.4677	0.4476	0.4071	-0.15
Mof_H 	H 	0.4782	0.4451	0.3817	0.097
Mof_I 	I 	0.6433	0.3206	0.20201	0.002
Mof_I 	I 	0.62809	0.3341	0.19622	-0.376
Mof_I 	I 	0.02647	0.65177	0.13313	-0.349
Mof_I 	I 	0.12052	0.73941	0.05817	-0.381
Mof_I 	I 	0.38967	0.74065	0.40476	-0.378
Mof_I 	I 	0.35114	0.59016	0.51464	-0.369
Mof_I 	I 	0.24011	0.77388	0.3038	-0.383
Mof_Zn	Zn	0.08328	0.62495	0.09389	1.165
Mof_Zn	Zn	0.373	0.59726	0.44147	1.166
Mof_Zn	Zn	0.17616	0.85521	0.27502	1.161
Mof_N 	N 	0.2204	0.4495	0.2733	-0.141
Mof_N 	N 	0.1803	0.3222	0.2513	-0.135
Mof_N 	N 	0.233	0.3108	0.3124	-0.139
Mof_N 	N 	0.1222	0.5535	0.1406	-0.276
Mof_N 	N 	0.1852	0.9927	0.2803	-0.282
Mof_N 	N 	0.0378	0.8517	0.4122	-0.133
Mof_N 	N 	0.0741	0.7204	0.4379	-0.134
Mof_N 	N 	0.3305	0.5332	0.3964	-0.279
Mof_N 	N 	0.0221	0.7688	0.4718	-0.147
Mof_N 	N 	0.0693	0.4797	0.5487	-0.273
Mof_N 	N 	0.1417	0.8365	0.321	-0.284
Mof_C 	C 	0.19	0.4067	0.2476	0.099
Mof_C 	C 	0.1672	0.4595	0.2105	0.071
Mof_C 	C 	0.2036	0.277	0.2832	0.1
Mof_N 	N 	0.92	0.012	0.4444	-0.283
Mof_C 	C 	0.0167	0.836	0.4431	0.085
Mof_C 	C 	0.0572	0.6303	0.4956	0.067
Mof_C 	C 	0.2712	0.4456	0.338	0.063
Mof_C 	C 	0.1969	0.1777	0.2841	0.077
Mof_C 	C 	0.9832	0.8974	0.4439	0.073
Mof_C 	C 	0.1781	0.545	0.1994	-0.141
Mof_H 	H 	0.2008	0.5718	0.2153	0.084
Mof_C 	C 	0.0503	0.7112	0.4668	0.086
Mof_C 	C 	0.0303	0.6074	0.521	-0.132
Mof_H 	H 	0.0081	0.6425	0.5207	0.079
Mof_C 	C 	0.0666	0.7921	0.4116	0.101
Mof_C 	C 	0.2393	0.3998	0.3068	0.081
Mof_C 	C 	0.3102	0.5749	0.3608	0.084
Mof_H 	H 	0.3161	0.6345	0.3558	-0.006
Mof_C 	C 	0.281	0.5332	0.3315	-0.145
Mof_H 	H 	0.2677	0.5645	0.307	0.098
Mof_C 	C 	0.967	0.9054	0.4798	-0.148
Mof_H 	H 	0.9767	0.8712	0.5048	0.089
Mof_C 	C 	0.155	0.5895	0.1648	0.079
Mof_H 	H 	0.1624	0.6471	0.1579	-0.015
Mof_C 	C 	0.1677	0.1398	0.2538	-0.146
Mof_H 	H 	0.1511	0.1759	0.2336	0.095
Mof_C 	C 	0.0373	0.5307	0.5472	0.077
Mof_H 	H 	0.0192	0.5144	0.5641	-0.012
Mof_C 	C 	0.2207	0.1215	0.313	-0.145
Mof_H 	H 	0.2412	0.1447	0.3342	0.089
Mof_C 	C 	0.2137	0.0296	0.3101	0.087
Mof_H 	H 	0.2297	0.9918	0.3299	-0.017
Mof_C 	C 	0.1627	0.0475	0.2529	0.088
Mof_H 	H 	0.1425	0.023	0.2319	-0.021
Mof_C 	C 	0.2918	0.401	0.3746	-0.134
Mof_H 	H 	0.2867	0.341	0.38	0.093
Mof_C 	C 	0.936	0.9646	0.4798	0.092
Mof_H 	H 	0.9261	0.9711	0.5054	-0.012
Mof_C 	C 	0.0921	0.8068	0.38	0.076
Mof_C 	C 	0.089	0.5765	0.4973	-0.136
Mof_H 	H 	0.1073	0.5906	0.48	0.088
Mof_C 	C 	0.1345	0.4214	0.1847	-0.138
Mof_H 	H 	0.1272	0.3628	0.1898	0.101
Mof_C 	C 	0.1288	0.7661	0.386	-0.129
Mof_H 	H 	0.1373	0.7284	0.41	0.091
Mof_C 	C 	0.0949	0.502	0.5238	0.083
Mof_H 	H 	0.117	0.4665	0.5243	-0.017
Mof_C 	C 	0.0821	0.864	0.344	-0.141
Mof_H 	H 	0.0584	0.895	0.3394	0.094
Mof_C 	C 	0.3208	0.4498	0.4035	0.086
Mof_H 	H 	0.3339	0.4215	0.4291	-0.007
Mof_C 	C 	0.1125	0.4717	0.1509	0.092
Mof_H 	H 	0.0897	0.4463	0.1347	-0.013
Mof_C 	C 	0.1071	0.8749	0.3153	0.098
Mof_H 	H 	0.0992	0.9112	0.2907	-0.027
Mof_C 	C 	0.1526	0.7826	0.3557	0.081
Mof_H 	H 	0.177	0.7548	0.3598	-0.013
Mof_C 	C 	0.936	0.0015	0.4094	0.098
Mof_H 	H 	0.9249	0.0334	0.3841	-0.024
Mof_C 	C 	0.9677	0.9476	0.4071	-0.15
Mof_H 	H 	0.9782	0.9451	0.3817	0.097
Mof_I 	I 	0.1433	0.8206	0.20201	0.002
Mof_I 	I 	0.12809	0.8341	0.19622	-0.376
Mof_I 	I 	0.52647	0.84823	0.63313	-0.349
Mof_I 	I 	0.62052	0.76059	0.55817	-0.381
Mof_I 	I 	0.88967	0.75935	0.90476	-0.378
Mof_I 	I 	0.85114	0.90984	0.01464	-0.369
Mof_I 	I 	0.74011	0.72612	0.8038	-0.383
Mof_Zn	Zn	0.58328	0.87505	0.59389	1.165
Mof_Zn	Zn	0.873	0.90274	0.94147	1.166
Mof_Zn	Zn	0.67616	0.64479	0.77502	1.161
Mof_N 	N 	0.7204	0.0505	0.7733	-0.141
Mof_N 	N 	0.6803	0.1778	0.7513	-0.135
Mof_N 	N 	0.733	0.1892	0.8124	-0.139
Mof_N 	N 	0.6222	0.9465	0.6406	-0.276
Mof_N 	N 	0.6852	0.5073	0.7803	-0.282
Mof_N 	N 	0.5378	0.6483	0.9122	-0.133
Mof_N 	N 	0.5741	0.7796	0.9379	-0.134
Mof_N 	N 	0.8305	0.9668	0.8964	-0.28
Mof_N 	N 	0.5221	0.7312	0.9718	-0.147
Mof_N 	N 	0.5693	0.0203	0.0487	-0.273
Mof_N 	N 	0.6417	0.6635	0.821	-0.284
Mof_C 	C 	0.69	0.0933	0.7476	0.099
Mof_C 	C 	0.6672	0.0405	0.7105	0.071
Mof_C 	C 	0.7036	0.223	0.7832	0.1
Mof_N 	N 	0.42	0.488	0.9444	-0.283
Mof_C 	C 	0.5167	0.664	0.9431	0.085
Mof_C 	C 	0.5572	0.8697	0.9956	0.067
Mof_C 	C 	0.7712	0.0544	0.838	0.064
Mof_C 	C 	0.6969	0.3223	0.7841	0.077
Mof_C 	C 	0.4832	0.6026	0.9439	0.073
Mof_C 	C 	0.6781	0.955	0.6994	-0.141
Mof_H 	H 	0.7008	0.9282	0.7153	0.084
Mof_C 	C 	0.5503	0.7888	0.9668	0.086
Mof_C 	C 	0.5303	0.8926	0.021	-0.132
Mof_H 	H 	0.5081	0.8575	0.0207	0.079
Mof_C 	C 	0.5666	0.7079	0.9116	0.101
Mof_C 	C 	0.7393	0.1002	0.8068	0.08
Mof_C 	C 	0.8102	0.9251	0.8608	0.084
Mof_H 	H 	0.8161	0.8655	0.8558	-0.007
Mof_C 	C 	0.781	0.9668	0.8315	-0.146
Mof_H 	H 	0.7677	0.9355	0.807	0.098
Mof_C 	C 	0.467	0.5946	0.9798	-0.148
Mof_H 	H 	0.4767	0.6288	0.0048	0.089
Mof_C 	C 	0.655	0.9105	0.6648	0.079
Mof_H 	H 	0.6624	0.8529	0.6579	-0.015
Mof_C 	C 	0.6677	0.3602	0.7538	-0.147
Mof_H 	H 	0.6511	0.3241	0.7336	0.095
Mof_C 	C 	0.5373	0.9693	0.0472	0.077
Mof_H 	H 	0.5192	0.9856	0.0641	-0.012
Mof_C 	C 	0.7207	0.3785	0.813	-0.145
Mof_H 	H 	0.7412	0.3553	0.8342	0.089
Mof_C 	C 	0.7137	0.4704	0.8101	0.087
Mof_H 	H 	0.7297	0.5082	0.8299	-0.017
Mof_C 	C 	0.6627	0.4525	0.7529	0.088
Mof_H 	H 	0.6425	0.477	0.7319	-0.021
Mof_C 	C 	0.7918	0.099	0.8746	-0.135
Mof_H 	H 	0.7867	0.159	0.88	0.093
Mof_C 	C 	0.436	0.5354	0.9798	0.092
Mof_H 	H 	0.4261	0.5289	0.0054	-0.012
Mof_C 	C 	0.5921	0.6932	0.88	0.076
Mof_C 	C 	0.589	0.9235	0.9973	-0.137
Mof_H 	H 	0.6073	0.9094	0.98	0.088
Mof_C 	C 	0.6345	0.0786	0.6847	-0.138
Mof_H 	H 	0.6272	0.1372	0.6898	0.101
Mof_C 	C 	0.6288	0.7339	0.886	-0.129
Mof_H 	H 	0.6373	0.7716	0.91	0.091
Mof_C 	C 	0.5949	0.998	0.0238	0.084
Mof_H 	H 	0.617	0.0335	0.0243	-0.018
Mof_C 	C 	0.5821	0.636	0.844	-0.141
Mof_H 	H 	0.5584	0.605	0.8394	0.094
Mof_C 	C 	0.8208	0.0502	0.9035	0.086
Mof_H 	H 	0.8339	0.0785	0.9291	-0.007
Mof_C 	C 	0.6125	0.0283	0.6509	0.092
Mof_H 	H 	0.5897	0.0537	0.6347	-0.013
Mof_C 	C 	0.6071	0.6251	0.8153	0.098
Mof_H 	H 	0.5992	0.5888	0.7907	-0.027
Mof_C 	C 	0.6526	0.7174	0.8557	0.081
Mof_H 	H 	0.677	0.7452	0.8598	-0.013
Mof_C 	C 	0.436	0.4985	0.9094	0.098
Mof_H 	H 	0.4249	0.4666	0.8841	-0.024
Mof_C 	C 	0.4677	0.5524	0.9071	-0.15
Mof_H 	H 	0.4782	0.5549	0.8817	0.097
Mof_I 	I 	0.6433	0.6794	0.70201	0.002
Mof_I 	I 	0.62809	0.6659	0.69622	-0.376
Mof_I 	I 	0.02647	0.34823	0.63313	-0.349
Mof_I 	I 	0.12052	0.26059	0.55817	-0.381
Mof_I 	I 	0.38967	0.25935	0.90476	-0.378
Mof_I 	I 	0.35114	0.40984	0.01464	-0.369
Mof_I 	I 	0.24011	0.22612	0.8038	-0.383
Mof_Zn	Zn	0.08328	0.37505	0.59389	1.165
Mof_Zn	Zn	0.373	0.40274	0.94147	1.166
Mof_Zn	Zn	0.17616	0.14479	0.77502	1.161
Mof_N 	N 	0.2204	0.5505	0.7733	-0.141
Mof_N 	N 	0.1803	0.6778	0.7513	-0.135
Mof_N 	N 	0.233	0.6892	0.8124	-0.139
Mof_N 	N 	0.1222	0.4465	0.6406	-0.276
Mof_N 	N 	0.1852	0.0073	0.7803	-0.281
Mof_N 	N 	0.0378	0.1483	0.9122	-0.133
Mof_N 	N 	0.0741	0.2796	0.9379	-0.134
Mof_N 	N 	0.3305	0.4668	0.8964	-0.279
Mof_N 	N 	0.0221	0.2312	0.9718	-0.147
Mof_N 	N 	0.0693	0.5203	0.0487	-0.273
Mof_N 	N 	0.1417	0.1635	0.821	-0.284
Mof_C 	C 	0.19	0.5933	0.7476	0.099
Mof_C 	C 	0.1672	0.5405	0.7105	0.071
Mof_C 	C 	0.2036	0.723	0.7832	0.1
Mof_N 	N 	0.92	0.988	0.9444	-0.283
Mof_C 	C 	0.0167	0.164	0.9431	0.086
Mof_C 	C 	0.0572	0.3697	0.9956	0.067
Mof_C 	C 	0.2712	0.5544	0.838	0.063
Mof_C 	C 	0.1969	0.8223	0.7841	0.077
Mof_C 	C 	0.9832	0.1026	0.9439	0.073
Mof_C 	C 	0.1781	0.455	0.6994	-0.141
Mof_H 	H 	0.2008	0.4282	0.7153	0.084
Mof_C 	C 	0.0503	0.2888	0.9668	0.086
Mof_C 	C 	0.0303	0.3926	0.021	-0.132
Mof_H 	H 	0.0081	0.3575	0.0207	0.079
Mof_C 	C 	0.0666	0.2079	0.9116	0.101
Mof_C 	C 	0.2393	0.6002	0.8068	0.081
Mof_C 	C 	0.3102	0.4251	0.8608	0.084
Mof_H 	H 	0.3161	0.3655	0.8558	-0.006
Mof_C 	C 	0.281	0.4668	0.8315	-0.145
Mof_H 	H 	0.2677	0.4355	0.807	0.098
Mof_C 	C 	0.967	0.0946	0.9798	-0.148
Mof_H 	H 	0.9767	0.1288	0.0048	0.089
Mof_C 	C 	0.155	0.4105	0.6648	0.079
Mof_H 	H 	0.1624	0.3529	0.6579	-0.015
Mof_C 	C 	0.1677	0.8602	0.7538	-0.146
Mof_H 	H 	0.1511	0.8241	0.7336	0.095
Mof_C 	C 	0.0373	0.4693	0.0472	0.077
Mof_H 	H 	0.0192	0.4856	0.0641	-0.012
Mof_C 	C 	0.2207	0.8785	0.813	-0.145
Mof_H 	H 	0.2412	0.8553	0.8342	0.089
Mof_C 	C 	0.2137	0.9704	0.8101	0.087
Mof_H 	H 	0.2297	0.0082	0.8299	-0.017
Mof_C 	C 	0.1627	0.9525	0.7529	0.088
Mof_H 	H 	0.1425	0.977	0.7319	-0.021
Mof_C 	C 	0.2918	0.599	0.8746	-0.134
Mof_H 	H 	0.2867	0.659	0.88	0.093
Mof_C 	C 	0.936	0.0354	0.9798	0.092
Mof_H 	H 	0.9261	0.0289	0.0054	-0.012
Mof_C 	C 	0.0921	0.1932	0.88	0.076
Mof_C 	C 	0.089	0.4235	0.9973	-0.136
Mof_H 	H 	0.1073	0.4094	0.98	0.088
Mof_C 	C 	0.1345	0.5786	0.6847	-0.138
Mof_H 	H 	0.1272	0.6372	0.6898	0.101
Mof_C 	C 	0.1288	0.2339	0.886	-0.129
Mof_H 	H 	0.1373	0.2716	0.91	0.091
Mof_C 	C 	0.0949	0.498	0.0238	0.083
Mof_H 	H 	0.117	0.5335	0.0243	-0.017
Mof_C 	C 	0.0821	0.136	0.844	-0.141
Mof_H 	H 	0.0584	0.105	0.8394	0.094
Mof_C 	C 	0.3208	0.5502	0.9035	0.086
Mof_H 	H 	0.3339	0.5785	0.9291	-0.007
Mof_C 	C 	0.1125	0.5283	0.6509	0.092
Mof_H 	H 	0.0897	0.5537	0.6347	-0.013
Mof_C 	C 	0.1071	0.1251	0.8153	0.098
Mof_H 	H 	0.0992	0.0888	0.7907	-0.027
Mof_C 	C 	0.1526	0.2174	0.8557	0.081
Mof_H 	H 	0.177	0.2452	0.8598	-0.013
Mof_C 	C 	0.936	0.9985	0.9094	0.097
Mof_H 	H 	0.9249	0.9666	0.8841	-0.023
Mof_C 	C 	0.9677	0.0524	0.9071	-0.149
Mof_H 	H 	0.9782	0.0549	0.8817	0.097
Mof_I 	I 	0.1433	0.1794	0.70201	0.002
Mof_I 	I 	0.12809	0.1659	0.69622	-0.376
Mof_I 	I 	0.47353	0.15177	0.36687	-0.349
Mof_I 	I 	0.37948	0.23941	0.44183	-0.381
Mof_I 	I 	0.11033	0.24065	0.09524	-0.378
Mof_I 	I 	0.14886	0.09016	0.98536	-0.369
Mof_I 	I 	0.25989	0.27388	0.1962	-0.383
Mof_Zn	Zn	0.41672	0.12495	0.40611	1.165
Mof_Zn	Zn	0.127	0.09726	0.05853	1.166
Mof_Zn	Zn	0.32384	0.35521	0.22498	1.161
Mof_N 	N 	0.2796	0.9495	0.2267	-0.141
Mof_N 	N 	0.3197	0.8222	0.2487	-0.135
Mof_N 	N 	0.267	0.8108	0.1876	-0.139
Mof_N 	N 	0.3778	0.0535	0.3594	-0.276
Mof_N 	N 	0.3148	0.4927	0.2197	-0.282
Mof_N 	N 	0.4622	0.3517	0.0878	-0.133
Mof_N 	N 	0.4259	0.2204	0.0621	-0.134
Mof_N 	N 	0.1695	0.0332	0.1036	-0.28
Mof_N 	N 	0.4779	0.2688	0.0282	-0.147
Mof_N 	N 	0.4307	0.9797	0.9513	-0.273
Mof_N 	N 	0.3583	0.3365	0.179	-0.284
Mof_C 	C 	0.31	0.9067	0.2524	0.099
Mof_C 	C 	0.3328	0.9595	0.2895	0.071
Mof_C 	C 	0.2964	0.777	0.2168	0.1
Mof_N 	N 	0.58	0.512	0.0556	-0.283
Mof_C 	C 	0.4833	0.336	0.0569	0.085
Mof_C 	C 	0.4428	0.1303	0.0044	0.067
Mof_C 	C 	0.2288	0.9456	0.162	0.064
Mof_C 	C 	0.3031	0.6777	0.2159	0.077
Mof_C 	C 	0.5168	0.3974	0.0561	0.073
Mof_C 	C 	0.3219	0.045	0.3006	-0.141
Mof_H 	H 	0.2992	0.0718	0.2847	0.084
Mof_C 	C 	0.4497	0.2112	0.0332	0.086
Mof_C 	C 	0.4697	0.1074	0.979	-0.132
Mof_H 	H 	0.4919	0.1425	0.9793	0.079
Mof_C 	C 	0.4334	0.2921	0.0884	0.101
Mof_C 	C 	0.2607	0.8998	0.1932	0.08
Mof_C 	C 	0.1898	0.0749	0.1392	0.084
Mof_H 	H 	0.1839	0.1345	0.1442	-0.007
Mof_C 	C 	0.219	0.0332	0.1685	-0.146
Mof_H 	H 	0.2323	0.0645	0.193	0.098
Mof_C 	C 	0.533	0.4054	0.0202	-0.148
Mof_H 	H 	0.5233	0.3712	0.9952	0.089
Mof_C 	C 	0.345	0.0895	0.3352	0.079
Mof_H 	H 	0.3376	0.1471	0.3421	-0.015
Mof_C 	C 	0.3323	0.6398	0.2462	-0.147
Mof_H 	H 	0.3489	0.6759	0.2664	0.095
Mof_C 	C 	0.4627	0.0307	0.9528	0.077
Mof_H 	H 	0.4808	0.0144	0.9359	-0.012
Mof_C 	C 	0.2793	0.6215	0.187	-0.145
Mof_H 	H 	0.2588	0.6447	0.1658	0.089
Mof_C 	C 	0.2863	0.5296	0.1899	0.087
Mof_H 	H 	0.2703	0.4918	0.1701	-0.017
Mof_C 	C 	0.3373	0.5475	0.2471	0.088
Mof_H 	H 	0.3575	0.523	0.2681	-0.021
Mof_C 	C 	0.2082	0.901	0.1254	-0.135
Mof_H 	H 	0.2133	0.841	0.12	0.093
Mof_C 	C 	0.564	0.4646	0.0202	0.092
Mof_H 	H 	0.5739	0.4711	0.9946	-0.012
Mof_C 	C 	0.4079	0.3068	0.12	0.076
Mof_C 	C 	0.411	0.0765	0.0027	-0.137
Mof_H 	H 	0.3927	0.0906	0.02	0.088
Mof_C 	C 	0.3655	0.9214	0.3153	-0.138
Mof_H 	H 	0.3728	0.8628	0.3102	0.101
Mof_C 	C 	0.3712	0.2661	0.114	-0.129
Mof_H 	H 	0.3627	0.2284	0.09	0.091
Mof_C 	C 	0.4051	0.002	0.9762	0.084
Mof_H 	H 	0.383	0.9665	0.9757	-0.018
Mof_C 	C 	0.4179	0.364	0.156	-0.141
Mof_H 	H 	0.4416	0.395	0.1606	0.094
Mof_C 	C 	0.1792	0.9498	0.0965	0.086
Mof_H 	H 	0.1661	0.9215	0.0709	-0.007
Mof_C 	C 	0.3875	0.9717	0.3491	0.092
Mof_H 	H 	0.4103	0.9463	0.3653	-0.013
Mof_C 	C 	0.3929	0.3749	0.1847	0.098
Mof_H 	H 	0.4008	0.4112	0.2093	-0.027
Mof_C 	C 	0.3474	0.2826	0.1443	0.081
Mof_H 	H 	0.323	0.2548	0.1402	-0.013
Mof_C 	C 	0.564	0.5015	0.0906	0.098
Mof_H 	H 	0.5751	0.5334	0.1159	-0.024
Mof_C 	C 	0.5323	0.4476	0.0929	-0.15
Mof_H 	H 	0.5218	0.4451	0.1183	0.097
Mof_I 	I 	0.3567	0.3206	0.29799	0.002
Mof_I 	I 	0.37191	0.3341	0.30378	-0.376
Mof_I 	I 	0.97353	0.65177	0.36687	-0.349
Mof_I 	I 	0.87948	0.73941	0.44183	-0.381
Mof_I 	I 	0.61033	0.74065	0.09524	-0.378
Mof_I 	I 	0.64886	0.59016	0.98536	-0.369
Mof_I 	I 	0.75989	0.77388	0.1962	-0.383
Mof_Zn	Zn	0.91672	0.62495	0.40611	1.165
Mof_Zn	Zn	0.627	0.59726	0.05853	1.166
Mof_Zn	Zn	0.82384	0.85521	0.22498	1.161
Mof_N 	N 	0.7796	0.4495	0.2267	-0.141
Mof_N 	N 	0.8197	0.3222	0.2487	-0.135
Mof_N 	N 	0.767	0.3108	0.1876	-0.139
Mof_N 	N 	0.8778	0.5535	0.3594	-0.276
Mof_N 	N 	0.8148	0.9927	0.2197	-0.281
Mof_N 	N 	0.9622	0.8517	0.0878	-0.133
Mof_N 	N 	0.9259	0.7204	0.0621	-0.134
Mof_N 	N 	0.6695	0.5332	0.1036	-0.279
Mof_N 	N 	0.9779	0.7688	0.0282	-0.147
Mof_N 	N 	0.9307	0.4797	0.9513	-0.273
Mof_N 	N 	0.8583	0.8365	0.179	-0.284
Mof_C 	C 	0.81	0.4067	0.2524	0.099
Mof_C 	C 	0.8328	0.4595	0.2895	0.071
Mof_C 	C 	0.7964	0.277	0.2168	0.1
Mof_N 	N 	0.08	0.012	0.0556	-0.283
Mof_C 	C 	0.9833	0.836	0.0569	0.086
Mof_C 	C 	0.9428	0.6303	0.0044	0.067
Mof_C 	C 	0.7288	0.4456	0.162	0.063
Mof_C 	C 	0.8031	0.1777	0.2159	0.077
Mof_C 	C 	0.0168	0.8974	0.0561	0.073
Mof_C 	C 	0.8219	0.545	0.3006	-0.141
Mof_H 	H 	0.7992	0.5718	0.2847	0.084
Mof_C 	C 	0.9497	0.7112	0.0332	0.086
Mof_C 	C 	0.9697	0.6074	0.979	-0.132
Mof_H 	H 	0.9919	0.6425	0.9793	0.079
Mof_C 	C 	0.9334	0.7921	0.0884	0.101
Mof_C 	C 	0.7607	0.3998	0.1932	0.081
Mof_C 	C 	0.6898	0.5749	0.1392	0.084
Mof_H 	H 	0.6839	0.6345	0.1442	-0.006
Mof_C 	C 	0.719	0.5332	0.1685	-0.145
Mof_H 	H 	0.7323	0.5645	0.193	0.098
Mof_C 	C 	0.033	0.9054	0.0202	-0.148
Mof_H 	H 	0.0233	0.8712	0.9952	0.089
Mof_C 	C 	0.845	0.5895	0.3352	0.079
Mof_H 	H 	0.8376	0.6471	0.3421	-0.015
Mof_C 	C 	0.8323	0.1398	0.2462	-0.146
Mof_H 	H 	0.8489	0.1759	0.2664	0.095
Mof_C 	C 	0.9627	0.5307	0.9528	0.077
Mof_H 	H 	0.9808	0.5144	0.9359	-0.012
Mof_C 	C 	0.7793	0.1215	0.187	-0.145
Mof_H 	H 	0.7588	0.1447	0.1658	0.089
Mof_C 	C 	0.7863	0.0296	0.1899	0.087
Mof_H 	H 	0.7703	0.9918	0.1701	-0.017
Mof_C 	C 	0.8373	0.0475	0.2471	0.088
Mof_H 	H 	0.8575	0.023	0.2681	-0.021
Mof_C 	C 	0.7082	0.401	0.1254	-0.134
Mof_H 	H 	0.7133	0.341	0.12	0.093
Mof_C 	C 	0.064	0.9646	0.0202	0.092
Mof_H 	H 	0.0739	0.9711	0.9946	-0.012
Mof_C 	C 	0.9079	0.8068	0.12	0.076
Mof_C 	C 	0.911	0.5765	0.0027	-0.136
Mof_H 	H 	0.8927	0.5906	0.02	0.088
Mof_C 	C 	0.8655	0.4214	0.3153	-0.138
Mof_H 	H 	0.8728	0.3628	0.3102	0.101
Mof_C 	C 	0.8712	0.7661	0.114	-0.129
Mof_H 	H 	0.8627	0.7284	0.09	0.091
Mof_C 	C 	0.9051	0.502	0.9762	0.083
Mof_H 	H 	0.883	0.4665	0.9757	-0.017
Mof_C 	C 	0.9179	0.864	0.156	-0.141
Mof_H 	H 	0.9416	0.895	0.1606	0.094
Mof_C 	C 	0.6792	0.4498	0.0965	0.086
Mof_H 	H 	0.6661	0.4215	0.0709	-0.007
Mof_C 	C 	0.8875	0.4717	0.3491	0.092
Mof_H 	H 	0.9103	0.4463	0.3653	-0.013
Mof_C 	C 	0.8929	0.8749	0.1847	0.098
Mof_H 	H 	0.9008	0.9112	0.2093	-0.027
Mof_C 	C 	0.8474	0.7826	0.1443	0.081
Mof_H 	H 	0.823	0.7548	0.1402	-0.013
Mof_C 	C 	0.064	0.0015	0.0906	0.097
Mof_H 	H 	0.0751	0.0334	0.1159	-0.023
Mof_C 	C 	0.0323	0.9476	0.0929	-0.149
Mof_H 	H 	0.0218	0.9451	0.1183	0.097
Mof_I 	I 	0.8567	0.8206	0.29799	0.002
Mof_I 	I 	0.87191	0.8341	0.30378	-0.376
Mof_I 	I 	0.47353	0.84823	0.86687	-0.349
Mof_I 	I 	0.37948	0.76059	0.94183	-0.381
Mof_I 	I 	0.11033	0.75935	0.59524	-0.378
Mof_I 	I 	0.14886	0.90984	0.48536	-0.369
Mof_I 	I 	0.25989	0.72612	0.6962	-0.383
Mof_Zn	Zn	0.41672	0.87505	0.90611	1.165
Mof_Zn	Zn	0.127	0.90274	0.55853	1.166
Mof_Zn	Zn	0.32384	0.64479	0.72498	1.161
Mof_N 	N 	0.2796	0.0505	0.7267	-0.141
Mof_N 	N 	0.3197	0.1778	0.7487	-0.135
Mof_N 	N 	0.267	0.1892	0.6876	-0.139
Mof_N 	N 	0.3778	0.9465	0.8594	-0.276
Mof_N 	N 	0.3148	0.5073	0.7197	-0.282
Mof_N 	N 	0.4622	0.6483	0.5878	-0.133
Mof_N 	N 	0.4259	0.7796	0.5621	-0.134
Mof_N 	N 	0.1695	0.9668	0.6036	-0.279
Mof_N 	N 	0.4779	0.7312	0.5282	-0.147
Mof_N 	N 	0.4307	0.0203	0.4513	-0.273
Mof_N 	N 	0.3583	0.6635	0.679	-0.284
Mof_C 	C 	0.31	0.0933	0.7524	0.099
Mof_C 	C 	0.3328	0.0405	0.7895	0.071
Mof_C 	C 	0.2964	0.223	0.7168	0.1
Mof_N 	N 	0.58	0.488	0.5556	-0.283
Mof_C 	C 	0.4833	0.664	0.5569	0.085
Mof_C 	C 	0.4428	0.8697	0.5044	0.067
Mof_C 	C 	0.2288	0.0544	0.662	0.063
Mof_C 	C 	0.3031	0.3223	0.7159	0.077
Mof_C 	C 	0.5168	0.6026	0.5561	0.073
Mof_C 	C 	0.3219	0.955	0.8006	-0.141
Mof_H 	H 	0.2992	0.9282	0.7847	0.084
Mof_C 	C 	0.4497	0.7888	0.5332	0.086
Mof_C 	C 	0.4697	0.8926	0.479	-0.132
Mof_H 	H 	0.4919	0.8575	0.4793	0.079
Mof_C 	C 	0.4334	0.7079	0.5884	0.101
Mof_C 	C 	0.2607	0.1002	0.6932	0.081
Mof_C 	C 	0.1898	0.9251	0.6392	0.084
Mof_H 	H 	0.1839	0.8655	0.6442	-0.006
Mof_C 	C 	0.219	0.9668	0.6685	-0.145
Mof_H 	H 	0.2323	0.9355	0.693	0.098
Mof_C 	C 	0.533	0.5946	0.5202	-0.148
Mof_H 	H 	0.5233	0.6288	0.4952	0.089
Mof_C 	C 	0.345	0.9105	0.8352	0.079
Mof_H 	H 	0.3376	0.8529	0.8421	-0.015
Mof_C 	C 	0.3323	0.3602	0.7462	-0.147
Mof_H 	H 	0.3489	0.3241	0.7664	0.095
Mof_C 	C 	0.4627	0.9693	0.4528	0.077
Mof_H 	H 	0.4808	0.9856	0.4359	-0.012
Mof_C 	C 	0.2793	0.3785	0.687	-0.145
Mof_H 	H 	0.2588	0.3553	0.6658	0.089
Mof_C 	C 	0.2863	0.4704	0.6899	0.087
Mof_H 	H 	0.2703	0.5082	0.6701	-0.017
Mof_C 	C 	0.3373	0.4525	0.7471	0.088
Mof_H 	H 	0.3575	0.477	0.7681	-0.021
Mof_C 	C 	0.2082	0.099	0.6254	-0.134
Mof_H 	H 	0.2133	0.159	0.62	0.093
Mof_C 	C 	0.564	0.5354	0.5202	0.092
Mof_H 	H 	0.5739	0.5289	0.4946	-0.012
Mof_C 	C 	0.4079	0.6932	0.62	0.076
Mof_C 	C 	0.411	0.9235	0.5027	-0.136
Mof_H 	H 	0.3927	0.9094	0.52	0.088
Mof_C 	C 	0.3655	0.0786	0.8153	-0.139
Mof_H 	H 	0.3728	0.1372	0.8102	0.101
Mof_C 	C 	0.3712	0.7339	0.614	-0.129
Mof_H 	H 	0.3627	0.7716	0.59	0.091
Mof_C 	C 	0.4051	0.998	0.4762	0.083
Mof_H 	H 	0.383	0.0335	0.4757	-0.018
Mof_C 	C 	0.4179	0.636	0.656	-0.141
Mof_H 	H 	0.4416	0.605	0.6606	0.094
Mof_C 	C 	0.1792	0.0502	0.5965	0.086
Mof_H 	H 	0.1661	0.0785	0.5709	-0.007
Mof_C 	C 	0.3875	0.0283	0.8491	0.092
Mof_H 	H 	0.4103	0.0537	0.8653	-0.013
Mof_C 	C 	0.3929	0.6251	0.6847	0.098
Mof_H 	H 	0.4008	0.5888	0.7093	-0.027
Mof_C 	C 	0.3474	0.7174	0.6443	0.081
Mof_H 	H 	0.323	0.7452	0.6402	-0.013
Mof_C 	C 	0.564	0.4985	0.5906	0.098
Mof_H 	H 	0.5751	0.4666	0.6159	-0.024
Mof_C 	C 	0.5323	0.5524	0.5929	-0.15
Mof_H 	H 	0.5218	0.5549	0.6183	0.097
Mof_I 	I 	0.3567	0.6794	0.79799	0.002
Mof_I 	I 	0.37191	0.6659	0.80378	-0.376
Mof_I 	I 	0.97353	0.34823	0.86687	-0.349
Mof_I 	I 	0.87948	0.26059	0.94183	-0.381
Mof_I 	I 	0.61033	0.25935	0.59524	-0.378
Mof_I 	I 	0.64886	0.40984	0.48536	-0.369
Mof_I 	I 	0.75989	0.22612	0.6962	-0.383
Mof_Zn	Zn	0.91672	0.37505	0.90611	1.165
Mof_Zn	Zn	0.627	0.40274	0.55853	1.166
Mof_Zn	Zn	0.82384	0.14479	0.72498	1.161
Mof_N 	N 	0.7796	0.5505	0.7267	-0.141
Mof_N 	N 	0.8197	0.6778	0.7487	-0.135
Mof_N 	N 	0.767	0.6892	0.6876	-0.139
Mof_N 	N 	0.8778	0.4465	0.8594	-0.276
Mof_N 	N 	0.8148	0.0073	0.7197	-0.282
Mof_N 	N 	0.9622	0.1483	0.5878	-0.133
Mof_N 	N 	0.9259	0.2796	0.5621	-0.134
Mof_N 	N 	0.6695	0.4668	0.6036	-0.279
Mof_N 	N 	0.9779	0.2312	0.5282	-0.147
Mof_N 	N 	0.9307	0.5203	0.4513	-0.273
Mof_N 	N 	0.8583	0.1635	0.679	-0.284
Mof_C 	C 	0.81	0.5933	0.7524	0.099
Mof_C 	C 	0.8328	0.5405	0.7895	0.071
Mof_C 	C 	0.7964	0.723	0.7168	0.1
Mof_N 	N 	0.08	0.988	0.5556	-0.283
Mof_C 	C 	0.9833	0.164	0.5569	0.085
Mof_C 	C 	0.9428	0.3697	0.5044	0.067
Mof_C 	C 	0.7288	0.5544	0.662	0.063
Mof_C 	C 	0.8031	0.8223	0.7159	0.077
Mof_C 	C 	0.0168	0.1026	0.5561	0.073
Mof_C 	C 	0.8219	0.455	0.8006	-0.141
Mof_H 	H 	0.7992	0.4282	0.7847	0.084
Mof_C 	C 	0.9497	0.2888	0.5332	0.086
Mof_C 	C 	0.9697	0.3926	0.479	-0.132
Mof_H 	H 	0.9919	0.3575	0.4793	0.079
Mof_C 	C 	0.9334	0.2079	0.5884	0.101
Mof_C 	C 	0.7607	0.6002	0.6932	0.081
Mof_C 	C 	0.6898	0.4251	0.6392	0.084
Mof_H 	H 	0.6839	0.3655	0.6442	-0.006
Mof_C 	C 	0.719	0.4668	0.6685	-0.145
Mof_H 	H 	0.7323	0.4355	0.693	0.098
Mof_C 	C 	0.033	0.0946	0.5202	-0.148
Mof_H 	H 	0.0233	0.1288	0.4952	0.089
Mof_C 	C 	0.845	0.4105	0.8352	0.079
Mof_H 	H 	0.8376	0.3529	0.8421	-0.015
Mof_C 	C 	0.8323	0.8602	0.7462	-0.146
Mof_H 	H 	0.8489	0.8241	0.7664	0.095
Mof_C 	C 	0.9627	0.4693	0.4528	0.077
Mof_H 	H 	0.9808	0.4856	0.4359	-0.012
Mof_C 	C 	0.7793	0.8785	0.687	-0.145
Mof_H 	H 	0.7588	0.8553	0.6658	0.089
Mof_C 	C 	0.7863	0.9704	0.6899	0.087
Mof_H 	H 	0.7703	0.0082	0.6701	-0.017
Mof_C 	C 	0.8373	0.9525	0.7471	0.088
Mof_H 	H 	0.8575	0.977	0.7681	-0.021
Mof_C 	C 	0.7082	0.599	0.6254	-0.134
Mof_H 	H 	0.7133	0.659	0.62	0.093
Mof_C 	C 	0.064	0.0354	0.5202	0.092
Mof_H 	H 	0.0739	0.0289	0.4946	-0.012
Mof_C 	C 	0.9079	0.1932	0.62	0.076
Mof_C 	C 	0.911	0.4235	0.5027	-0.136
Mof_H 	H 	0.8927	0.4094	0.52	0.088
Mof_C 	C 	0.8655	0.5786	0.8153	-0.138
Mof_H 	H 	0.8728	0.6372	0.8102	0.101
Mof_C 	C 	0.8712	0.2339	0.614	-0.129
Mof_H 	H 	0.8627	0.2716	0.59	0.091
Mof_C 	C 	0.9051	0.498	0.4762	0.083
Mof_H 	H 	0.883	0.5335	0.4757	-0.017
Mof_C 	C 	0.9179	0.136	0.656	-0.141
Mof_H 	H 	0.9416	0.105	0.6606	0.094
Mof_C 	C 	0.6792	0.5502	0.5965	0.086
Mof_H 	H 	0.6661	0.5785	0.5709	-0.007
Mof_C 	C 	0.8875	0.5283	0.8491	0.092
Mof_H 	H 	0.9103	0.5537	0.8653	-0.013
Mof_C 	C 	0.8929	0.1251	0.6847	0.098
Mof_H 	H 	0.9008	0.0888	0.7093	-0.027
Mof_C 	C 	0.8474	0.2174	0.6443	0.081
Mof_H 	H 	0.823	0.2452	0.6402	-0.013
Mof_C 	C 	0.064	0.9985	0.5906	0.098
Mof_H 	H 	0.0751	0.9666	0.6159	-0.024
Mof_C 	C 	0.0323	0.0524	0.5929	-0.15
Mof_H 	H 	0.0218	0.0549	0.6183	0.097
Mof_I 	I 	0.8567	0.1794	0.79799	0.002
Mof_I 	I 	0.87191	0.1659	0.80378	-0.376
_end
