data_functionalizedCrystal
_audit_creation_method	'EQeq! by Chris Wilmer'
_symmetry_space_group_name_H-M	'P1'
_symmetry_Int_Tables_number	1
_symmetry_cell_setting	triclinic
loop_
_symmetry_equiv_pos_as_xyz
  x,y,z
_cell_length_a	5.624
_cell_length_b	10.303
_cell_length_c	13.269
_cell_angle_alpha	79.445
_cell_angle_beta	83.893
_cell_angle_gamma	76.488
loop_
_atom_site_label
_atom_site_type_symbol
_atom_site_fract_x
_atom_site_fract_y
_atom_site_fract_z
_atom_site_charge
Mof_Mn	Mn	0.3204	0.07745	0.40549	0.934
Mof_Mn	Mn	0.6002	0.6175	0.34244	0.913
Mof_P 	P 	0.5127	0.8534	0.1192	0.469
Mof_P 	P 	0.7395	0.2243	0.4724	0.514
Mof_O 	O 	0.3305	0.857	0.0416	-0.324
Mof_O 	O 	0.7712	0.8534	0.073	-0.284
Mof_O 	O 	0.5147	0.7333	0.2034	-0.357
Mof_O 	O 	0.5531	0.0044	0.2627	-0.433
Mof_H 	H 	0.6304	0.927	0.2808	0.271
Mof_O 	O 	0.9822	0.0516	0.1521	-0.299
Mof_O 	O 	0.0874	0.0319	0.308	-0.395
Mof_O 	O 	0.6173	0.3334	0.5353	-0.403
Mof_O 	O 	0.0085	0.179	0.4873	-0.415
Mof_O 	O 	0.6086	0.1074	0.4858	-0.483
Mof_O 	O 	0.8305	0.4167	0.3165	-0.438
Mof_H 	H 	0.9791	0.3865	0.3152	0.302
Mof_O 	O 	0.3046	0.2858	0.3169	-0.383
Mof_O 	O 	0.3637	0.4912	0.3142	-0.361
Mof_C 	C 	0.409	0.007	0.1772	-0.152
Mof_H 	H 	0.4351	0.083	0.1259	0.086
Mof_C 	C 	0.14	0.0335	0.2148	0.324
Mof_C 	C 	0.707	0.3071	0.3384	-0.113
Mof_H 	H 	0.7742	0.2415	0.2921	0.102
Mof_C 	C 	0.437	0.3652	0.3226	0.373
Mof_Mn	Mn	0.6796	0.92255	0.59451	1.01
Mof_Mn	Mn	0.3998	0.3825	0.65756	0.89
Mof_P 	P 	0.4873	0.1466	0.8808	0.44
Mof_P 	P 	0.2605	0.7757	0.5276	0.453
Mof_O 	O 	0.6695	0.143	0.9584	-0.251
Mof_O 	O 	0.2288	0.1466	0.927	-0.277
Mof_O 	O 	0.4853	0.2667	0.7966	-0.347
Mof_O 	O 	0.4469	0.9956	0.7373	-0.307
Mof_H 	H 	0.3696	0.073	0.7192	0.143
Mof_O 	O 	0.0178	0.9484	0.8479	-0.332
Mof_O 	O 	0.9126	0.9681	0.692	-0.362
Mof_O 	O 	0.3827	0.6666	0.4647	-0.401
Mof_O 	O 	0.9915	0.821	0.5127	-0.327
Mof_O 	O 	0.3914	0.8926	0.5142	-0.445
Mof_O 	O 	0.1695	0.5833	0.6835	-0.431
Mof_H 	H 	0.0209	0.6135	0.6848	0.264
Mof_O 	O 	0.6954	0.7142	0.6831	-0.358
Mof_O 	O 	0.6363	0.5088	0.6858	-0.331
Mof_C 	C 	0.591	0.993	0.8228	-0.142
Mof_H 	H 	0.5649	0.917	0.8741	0.135
Mof_C 	C 	0.86	0.9665	0.7852	0.44
Mof_C 	C 	0.293	0.6929	0.6616	-0.113
Mof_H 	H 	0.2258	0.7585	0.7079	0.089
Mof_C 	C 	0.563	0.6348	0.6774	0.375
Mof_Mn	Mn	-0	0	-0	0.737
_end
