data_functionalizedCrystal
_audit_creation_method	'EQeq! by Chris Wilmer'
_symmetry_space_group_name_H-M	'P1'
_symmetry_Int_Tables_number	1
_symmetry_cell_setting	triclinic
loop_
_symmetry_equiv_pos_as_xyz
  x,y,z
_cell_length_a	25.5552
_cell_length_b	25.5552
_cell_length_c	51.403
_cell_angle_alpha	90
_cell_angle_beta	90
_cell_angle_gamma	90
loop_
_atom_site_label
_atom_site_type_symbol
_atom_site_fract_x
_atom_site_fract_y
_atom_site_fract_z
_atom_site_charge
Mof_Zn	Zn	0.22712	0.43927	0.12664	1.199
Mof_O 	O 	0.2769	0.4079	0.15229	-0.479
Mof_C 	C 	0.1882	0.6766	0.03323	0.425
Mof_O 	O 	0.1864	0.4822	0.1015	-0.488
Mof_N 	N 	0.0414	0.5515	0.0447	-0.113
Mof_O 	O 	0.3329	0.4758	0.15331	-0.477
Mof_O 	O 	0.1659	0.695	0.0137	-0.491
Mof_O 	O 	0.2276	0.6941	0.04406	-0.5
Mof_C 	C 	0.1644	0.6286	0.04539	-0.111
Mof_C 	C 	0.1941	0.5991	0.06231	0.052
Mof_H 	H 	0.2286	0.6102	0.0664	0.033
Mof_C 	C 	0.3384	0.4127	0.18622	-0.1
Mof_C 	C 	0.3144	0.4337	0.16215	0.393
Mof_C 	C 	0.2079	0.5224	0.09172	0.419
Mof_C 	C 	0.3727	0.4414	0.19991	0.043
Mof_H 	H 	0.3831	0.4745	0.1933	0.036
Mof_C 	C 	0.1146	0.6128	0.03893	-0.025
Mof_H 	H 	0.0941	0.6325	0.027	0.048
Mof_C 	C 	0.1747	0.5539	0.07334	-0.11
Mof_C 	C 	0.0948	0.5673	0.05025	0.048
Mof_C 	C 	0.1242	0.5371	0.0671	-0.029
Mof_H 	H 	0.1105	0.5057	0.0742	0.05
Mof_N 	N 	0.335	0.2919	0.22588	-0.134
Mof_C 	C 	0.3189	0.2752	0.2512	-0.001
Mof_H 	H 	0.3099	0.2972	0.2654	0.031
Mof_C 	C 	0.3802	0.3747	0.23237	-0.036
Mof_H 	H 	0.394	0.3618	0.2483	0.057
Mof_C 	C 	0.0262	0.5034	0.03566	-0.096
Mof_H 	H 	0.0485	0.4755	0.0304	0.054
Mof_C 	C 	0.3936	0.4243	0.22359	-0.1
Mof_C 	C 	0.3247	0.3626	0.19513	-0.042
Mof_H 	H 	0.3004	0.342	0.1856	0.057
Mof_C 	C 	0.346	0.3437	0.21739	0.067
Mof_O 	O 	0.4447	0.4995	0.22899	-0.491
Mof_O 	O 	0.2523	0.5375	0.09564	-0.493
Mof_O 	O 	0.447	0.4379	0.26018	-0.47
Mof_C 	C 	0.4309	0.4579	0.2382	0.397
Mof_Zn	Zn	0.72712	0.93927	0.62664	1.199
Mof_O 	O 	0.7769	0.9079	0.65229	-0.477
Mof_C 	C 	0.6882	0.1766	0.53323	0.422
Mof_O 	O 	0.6864	0.9822	0.6015	-0.484
Mof_N 	N 	0.5414	0.0515	0.5447	-0.135
Mof_O 	O 	0.8329	0.9758	0.65331	-0.473
Mof_O 	O 	0.6659	0.195	0.5137	-0.487
Mof_O 	O 	0.7276	0.1941	0.54406	-0.498
Mof_C 	C 	0.6644	0.1286	0.54539	-0.105
Mof_C 	C 	0.6941	0.0991	0.56231	0.046
Mof_H 	H 	0.7286	0.1102	0.5664	0.035
Mof_C 	C 	0.8384	0.9127	0.68622	-0.093
Mof_C 	C 	0.8144	0.9337	0.66215	0.39
Mof_C 	C 	0.7079	0.0224	0.59172	0.415
Mof_C 	C 	0.8727	0.9414	0.69991	0.039
Mof_H 	H 	0.8831	0.9745	0.6933	0.042
Mof_C 	C 	0.6146	0.1128	0.53893	-0.032
Mof_H 	H 	0.5941	0.1325	0.527	0.055
Mof_C 	C 	0.6747	0.0539	0.57334	-0.103
Mof_C 	C 	0.5948	0.0673	0.55025	0.061
Mof_C 	C 	0.6242	0.0371	0.5671	-0.035
Mof_H 	H 	0.6105	0.0057	0.5742	0.056
Mof_N 	N 	0.835	0.7919	0.72588	-0.134
Mof_C 	C 	0.8189	0.7752	0.7512	0.001
Mof_H 	H 	0.8099	0.7972	0.7654	0.033
Mof_C 	C 	0.8802	0.8747	0.73237	-0.039
Mof_H 	H 	0.894	0.8618	0.7483	0.064
Mof_C 	C 	0.5262	0.0034	0.53566	0.003
Mof_H 	H 	0.5485	0.9755	0.5304	0.03
Mof_C 	C 	0.8936	0.9243	0.72359	-0.09
Mof_C 	C 	0.8247	0.8626	0.69513	-0.045
Mof_H 	H 	0.8004	0.842	0.6856	0.06
Mof_C 	C 	0.846	0.8437	0.71739	0.073
Mof_O 	O 	0.9447	0.9995	0.72899	-0.469
Mof_O 	O 	0.7523	0.0375	0.59564	-0.49
Mof_O 	O 	0.947	0.9379	0.76018	-0.448
Mof_C 	C 	0.9309	0.9579	0.7382	0.393
Mof_Zn	Zn	0.27288	0.56073	0.62664	1.199
Mof_O 	O 	0.2231	0.5921	0.65229	-0.48
Mof_C 	C 	0.3118	0.3234	0.53323	0.423
Mof_O 	O 	0.3136	0.5178	0.6015	-0.485
Mof_N 	N 	0.4586	0.4485	0.5447	-0.135
Mof_O 	O 	0.1671	0.5242	0.65331	-0.482
Mof_O 	O 	0.3341	0.305	0.5137	-0.488
Mof_O 	O 	0.2724	0.3059	0.54406	-0.5
Mof_C 	C 	0.3356	0.3714	0.54539	-0.107
Mof_C 	C 	0.3059	0.4009	0.56231	0.048
Mof_H 	H 	0.2714	0.3898	0.5664	0.032
Mof_C 	C 	0.1616	0.5873	0.68622	-0.105
Mof_C 	C 	0.1856	0.5663	0.66215	0.392
Mof_C 	C 	0.2921	0.4776	0.59172	0.417
Mof_C 	C 	0.1273	0.5586	0.69991	0.045
Mof_H 	H 	0.1169	0.5255	0.6933	0.031
Mof_C 	C 	0.3854	0.3872	0.53893	-0.031
Mof_H 	H 	0.4059	0.3675	0.527	0.055
Mof_C 	C 	0.3253	0.4461	0.57334	-0.105
Mof_C 	C 	0.4052	0.4327	0.55025	0.06
Mof_C 	C 	0.3758	0.4629	0.5671	-0.034
Mof_H 	H 	0.3895	0.4943	0.5742	0.056
Mof_N 	N 	0.165	0.7081	0.72588	-0.134
Mof_C 	C 	0.1811	0.7248	0.7512	-0.003
Mof_H 	H 	0.1901	0.7028	0.7654	0.03
Mof_C 	C 	0.1198	0.6253	0.73237	-0.034
Mof_H 	H 	0.106	0.6382	0.7483	0.051
Mof_C 	C 	0.4738	0.4966	0.53566	0.003
Mof_H 	H 	0.4515	0.5245	0.5304	0.03
Mof_C 	C 	0.1064	0.5757	0.72359	-0.108
Mof_C 	C 	0.1753	0.6374	0.69513	-0.041
Mof_H 	H 	0.1996	0.658	0.6856	0.056
Mof_C 	C 	0.154	0.6563	0.71739	0.062
Mof_O 	O 	0.0553	0.5005	0.72899	-0.504
Mof_O 	O 	0.2477	0.4625	0.59564	-0.493
Mof_O 	O 	0.053	0.5621	0.76018	-0.484
Mof_C 	C 	0.0691	0.5421	0.7382	0.398
Mof_Zn	Zn	0.77288	0.06073	0.12664	1.2
Mof_O 	O 	0.7231	0.0921	0.15229	-0.477
Mof_C 	C 	0.8118	0.8234	0.03323	0.421
Mof_O 	O 	0.8136	0.0178	0.1015	-0.48
Mof_N 	N 	0.9586	0.9485	0.0447	-0.119
Mof_O 	O 	0.6671	0.0242	0.15331	-0.478
Mof_O 	O 	0.8341	0.805	0.0137	-0.482
Mof_O 	O 	0.7724	0.8059	0.04406	-0.497
Mof_C 	C 	0.8356	0.8714	0.04539	-0.1
Mof_C 	C 	0.8059	0.9009	0.06231	0.044
Mof_H 	H 	0.7714	0.8898	0.0664	0.035
Mof_C 	C 	0.6616	0.0873	0.18622	-0.099
Mof_C 	C 	0.6856	0.0663	0.16215	0.391
Mof_C 	C 	0.7921	0.9776	0.09172	0.414
Mof_C 	C 	0.6273	0.0586	0.19991	0.042
Mof_H 	H 	0.6169	0.0255	0.1933	0.037
Mof_C 	C 	0.8854	0.8872	0.03893	-0.034
Mof_H 	H 	0.9059	0.8675	0.027	0.066
Mof_C 	C 	0.8253	0.9461	0.07334	-0.099
Mof_C 	C 	0.9052	0.9327	0.05025	0.071
Mof_C 	C 	0.8758	0.9629	0.0671	-0.038
Mof_H 	H 	0.8895	0.9943	0.0742	0.062
Mof_N 	N 	0.665	0.2081	0.22588	-0.134
Mof_C 	C 	0.6811	0.2248	0.2512	-0.001
Mof_H 	H 	0.6901	0.2028	0.2654	0.031
Mof_C 	C 	0.6198	0.1253	0.23237	-0.037
Mof_H 	H 	0.606	0.1382	0.2483	0.057
Mof_C 	C 	0.9738	0.9966	0.03566	0.101
Mof_H 	H 	0.9515	0.0245	0.0304	0.008
Mof_C 	C 	0.6064	0.0757	0.22359	-0.099
Mof_C 	C 	0.6753	0.1374	0.19513	-0.043
Mof_H 	H 	0.6996	0.158	0.1856	0.059
Mof_C 	C 	0.654	0.1563	0.21739	0.068
Mof_O 	O 	0.5553	0.0005	0.22899	-0.49
Mof_O 	O 	0.7477	0.9625	0.09564	-0.491
Mof_O 	O 	0.553	0.0621	0.26018	-0.47
Mof_C 	C 	0.5691	0.0421	0.2382	0.397
Mof_Zn	Zn	0.81073	0.97712	0.37664	1.2
Mof_O 	O 	0.8421	0.0269	0.40229	-0.473
Mof_C 	C 	0.5734	0.9382	0.28323	0.422
Mof_O 	O 	0.7678	0.9364	0.3515	-0.482
Mof_N 	N 	0.6985	0.7914	0.2947	-0.135
Mof_O 	O 	0.7742	0.0829	0.40331	-0.477
Mof_O 	O 	0.555	0.9159	0.2637	-0.488
Mof_O 	O 	0.5559	0.9776	0.29406	-0.5
Mof_C 	C 	0.6214	0.9144	0.29539	-0.105
Mof_C 	C 	0.6509	0.9441	0.31231	0.046
Mof_H 	H 	0.6398	0.9786	0.3164	0.033
Mof_C 	C 	0.8373	0.0884	0.43622	-0.094
Mof_C 	C 	0.8163	0.0644	0.41215	0.39
Mof_C 	C 	0.7276	0.9579	0.34172	0.414
Mof_C 	C 	0.8086	0.1227	0.44991	0.04
Mof_H 	H 	0.7755	0.1331	0.4433	0.038
Mof_C 	C 	0.6372	0.8646	0.28893	-0.032
Mof_H 	H 	0.6175	0.8441	0.277	0.055
Mof_C 	C 	0.6961	0.9247	0.32334	-0.103
Mof_C 	C 	0.6827	0.8448	0.30025	0.061
Mof_C 	C 	0.7129	0.8742	0.3171	-0.036
Mof_H 	H 	0.7443	0.8605	0.3242	0.058
Mof_N 	N 	0.9581	0.085	0.47588	-0.119
Mof_C 	C 	0.9748	0.0689	0.5012	0.111
Mof_H 	H 	0.9528	0.0599	0.5154	0.003
Mof_C 	C 	0.8753	0.1302	0.48237	-0.039
Mof_H 	H 	0.8882	0.144	0.4983	0.063
Mof_C 	C 	0.7466	0.7762	0.28566	0.004
Mof_H 	H 	0.7745	0.7985	0.2804	0.032
Mof_C 	C 	0.8257	0.1436	0.47359	-0.095
Mof_C 	C 	0.8874	0.0747	0.44513	-0.045
Mof_H 	H 	0.908	0.0504	0.4356	0.069
Mof_C 	C 	0.9063	0.096	0.46739	0.078
Mof_O 	O 	0.7505	0.1947	0.47899	-0.49
Mof_O 	O 	0.7125	0.0023	0.34564	-0.49
Mof_O 	O 	0.8121	0.197	0.51018	-0.466
Mof_C 	C 	0.7921	0.1809	0.4882	0.396
Mof_Zn	Zn	0.31073	0.47712	0.87664	1.199
Mof_O 	O 	0.3421	0.5269	0.90229	-0.479
Mof_C 	C 	0.0734	0.4382	0.78323	0.425
Mof_O 	O 	0.2678	0.4364	0.8515	-0.486
Mof_N 	N 	0.1985	0.2914	0.7947	-0.135
Mof_O 	O 	0.2742	0.5829	0.90331	-0.48
Mof_O 	O 	0.055	0.4159	0.7637	-0.502
Mof_O 	O 	0.0559	0.4776	0.79406	-0.513
Mof_C 	C 	0.1214	0.4144	0.79539	-0.113
Mof_C 	C 	0.1509	0.4441	0.81231	0.05
Mof_H 	H 	0.1398	0.4786	0.8164	0.03
Mof_C 	C 	0.3373	0.5884	0.93622	-0.101
Mof_C 	C 	0.3163	0.5644	0.91215	0.392
Mof_C 	C 	0.2276	0.4579	0.84172	0.417
Mof_C 	C 	0.3086	0.6227	0.94991	0.044
Mof_H 	H 	0.2755	0.6331	0.9433	0.035
Mof_C 	C 	0.1372	0.3646	0.78893	-0.029
Mof_H 	H 	0.1175	0.3441	0.777	0.049
Mof_C 	C 	0.1961	0.4247	0.82334	-0.108
Mof_C 	C 	0.1827	0.3448	0.80025	0.057
Mof_C 	C 	0.2129	0.3742	0.8171	-0.033
Mof_H 	H 	0.2443	0.3605	0.8242	0.055
Mof_N 	N 	0.4581	0.585	0.97588	-0.134
Mof_C 	C 	0.4748	0.5689	0.0012	-0.001
Mof_H 	H 	0.4528	0.5599	0.0154	0.031
Mof_C 	C 	0.3753	0.6302	0.98237	-0.036
Mof_H 	H 	0.3882	0.644	0.9983	0.057
Mof_C 	C 	0.2466	0.2762	0.78566	0.003
Mof_H 	H 	0.2745	0.2985	0.7804	0.03
Mof_C 	C 	0.3257	0.6436	0.97359	-0.101
Mof_C 	C 	0.3874	0.5747	0.94513	-0.042
Mof_H 	H 	0.408	0.5504	0.9356	0.058
Mof_C 	C 	0.4063	0.596	0.96739	0.067
Mof_O 	O 	0.2505	0.6947	0.97899	-0.493
Mof_O 	O 	0.2125	0.5023	0.84564	-0.494
Mof_O 	O 	0.3121	0.697	0.01018	-0.471
Mof_C 	C 	0.2921	0.6809	0.9882	0.398
Mof_Zn	Zn	0.68927	0.02288	0.87664	1.199
Mof_O 	O 	0.6579	0.9731	0.90229	-0.479
Mof_C 	C 	0.9266	0.0618	0.78323	0.417
Mof_O 	O 	0.7322	0.0636	0.8515	-0.484
Mof_N 	N 	0.8015	0.2086	0.7947	-0.135
Mof_O 	O 	0.7258	0.9171	0.90331	-0.477
Mof_O 	O 	0.945	0.0841	0.7637	-0.465
Mof_O 	O 	0.9441	0.0224	0.79406	-0.478
Mof_C 	C 	0.8786	0.0856	0.79539	-0.096
Mof_C 	C 	0.8491	0.0559	0.81231	0.043
Mof_H 	H 	0.8602	0.0214	0.8164	0.038
Mof_C 	C 	0.6627	0.9116	0.93622	-0.099
Mof_C 	C 	0.6837	0.9356	0.91215	0.391
Mof_C 	C 	0.7724	0.0421	0.84172	0.414
Mof_C 	C 	0.6914	0.8773	0.94991	0.042
Mof_H 	H 	0.7245	0.8669	0.9433	0.038
Mof_C 	C 	0.8628	0.1354	0.78893	-0.036
Mof_H 	H 	0.8825	0.1559	0.777	0.062
Mof_C 	C 	0.8039	0.0753	0.82334	-0.099
Mof_C 	C 	0.8173	0.1552	0.80025	0.065
Mof_C 	C 	0.7871	0.1258	0.8171	-0.037
Mof_H 	H 	0.7557	0.1395	0.8242	0.057
Mof_N 	N 	0.5419	0.915	0.97588	-0.134
Mof_C 	C 	0.5252	0.9311	0.0012	-0.001
Mof_H 	H 	0.5472	0.9401	0.0154	0.031
Mof_C 	C 	0.6247	0.8698	0.98237	-0.037
Mof_H 	H 	0.6118	0.856	0.9983	0.057
Mof_C 	C 	0.7534	0.2238	0.78566	0.004
Mof_H 	H 	0.7255	0.2015	0.7804	0.03
Mof_C 	C 	0.6743	0.8564	0.97359	-0.099
Mof_C 	C 	0.6126	0.9253	0.94513	-0.043
Mof_H 	H 	0.592	0.9496	0.9356	0.058
Mof_C 	C 	0.5937	0.904	0.96739	0.068
Mof_O 	O 	0.7495	0.8053	0.97899	-0.489
Mof_O 	O 	0.7875	0.9977	0.84564	-0.488
Mof_O 	O 	0.6879	0.803	0.01018	-0.47
Mof_C 	C 	0.7079	0.8191	0.9882	0.397
Mof_Zn	Zn	0.18927	0.52288	0.37664	1.198
Mof_O 	O 	0.1579	0.4731	0.40229	-0.484
Mof_C 	C 	0.4266	0.5618	0.28323	0.423
Mof_O 	O 	0.2322	0.5636	0.3515	-0.488
Mof_N 	N 	0.3015	0.7086	0.2947	-0.135
Mof_O 	O 	0.2258	0.4171	0.40331	-0.48
Mof_O 	O 	0.445	0.5841	0.2637	-0.488
Mof_O 	O 	0.4441	0.5224	0.29406	-0.499
Mof_C 	C 	0.3786	0.5856	0.29539	-0.106
Mof_C 	C 	0.3491	0.5559	0.31231	0.048
Mof_H 	H 	0.3602	0.5214	0.3164	0.033
Mof_C 	C 	0.1627	0.4116	0.43622	-0.107
Mof_C 	C 	0.1837	0.4356	0.41215	0.393
Mof_C 	C 	0.2724	0.5421	0.34172	0.417
Mof_C 	C 	0.1914	0.3773	0.44991	0.047
Mof_H 	H 	0.2245	0.3669	0.4433	0.034
Mof_C 	C 	0.3628	0.6354	0.28893	-0.031
Mof_H 	H 	0.3825	0.6559	0.277	0.055
Mof_C 	C 	0.3039	0.5753	0.32334	-0.105
Mof_C 	C 	0.3173	0.6552	0.30025	0.059
Mof_C 	C 	0.2871	0.6258	0.3171	-0.034
Mof_H 	H 	0.2557	0.6395	0.3242	0.054
Mof_N 	N 	0.0419	0.415	0.47588	-0.113
Mof_C 	C 	0.0252	0.4311	0.5012	-0.113
Mof_H 	H 	0.0472	0.4401	0.5154	0.06
Mof_C 	C 	0.1247	0.3698	0.48237	-0.03
Mof_H 	H 	0.1118	0.356	0.4983	0.051
Mof_C 	C 	0.2534	0.7238	0.28566	0.002
Mof_H 	H 	0.2255	0.7015	0.2804	0.028
Mof_C 	C 	0.1743	0.3564	0.47359	-0.106
Mof_C 	C 	0.1126	0.4253	0.44513	-0.036
Mof_H 	H 	0.092	0.4496	0.4356	0.05
Mof_C 	C 	0.0937	0.404	0.46739	0.055
Mof_O 	O 	0.2495	0.3053	0.47899	-0.492
Mof_O 	O 	0.2875	0.4977	0.34564	-0.492
Mof_O 	O 	0.1879	0.303	0.51018	-0.474
Mof_C 	C 	0.2079	0.3191	0.4882	0.399
Mof_Zn	Zn	0.27288	0.43927	0.37336	1.199
Mof_O 	O 	0.2231	0.4079	0.34771	-0.48
Mof_C 	C 	0.3118	0.6766	0.46677	0.423
Mof_O 	O 	0.3136	0.4822	0.3985	-0.485
Mof_N 	N 	0.4586	0.5515	0.4553	-0.135
Mof_O 	O 	0.1671	0.4758	0.34669	-0.482
Mof_O 	O 	0.3341	0.695	0.4863	-0.488
Mof_O 	O 	0.2724	0.6941	0.45594	-0.5
Mof_C 	C 	0.3356	0.6286	0.45461	-0.107
Mof_C 	C 	0.3059	0.5991	0.43769	0.048
Mof_H 	H 	0.2714	0.6102	0.4336	0.032
Mof_C 	C 	0.1616	0.4127	0.31378	-0.105
Mof_C 	C 	0.1856	0.4337	0.33785	0.392
Mof_C 	C 	0.2921	0.5224	0.40828	0.417
Mof_C 	C 	0.1273	0.4414	0.30009	0.045
Mof_H 	H 	0.1169	0.4745	0.3067	0.031
Mof_C 	C 	0.3854	0.6128	0.46107	-0.031
Mof_H 	H 	0.4059	0.6325	0.473	0.055
Mof_C 	C 	0.3253	0.5539	0.42666	-0.105
Mof_C 	C 	0.4052	0.5673	0.44975	0.06
Mof_C 	C 	0.3758	0.5371	0.4329	-0.034
Mof_H 	H 	0.3895	0.5057	0.4258	0.056
Mof_N 	N 	0.165	0.2919	0.27412	-0.134
Mof_C 	C 	0.1811	0.2752	0.2488	-0.003
Mof_H 	H 	0.1901	0.2972	0.2346	0.03
Mof_C 	C 	0.1198	0.3747	0.26763	-0.034
Mof_H 	H 	0.106	0.3618	0.2517	0.051
Mof_C 	C 	0.4738	0.5034	0.46434	0.003
Mof_H 	H 	0.4515	0.4755	0.4696	0.03
Mof_C 	C 	0.1064	0.4243	0.27641	-0.108
Mof_C 	C 	0.1753	0.3626	0.30487	-0.041
Mof_H 	H 	0.1996	0.342	0.3144	0.056
Mof_C 	C 	0.154	0.3437	0.28261	0.062
Mof_O 	O 	0.0553	0.4995	0.27101	-0.504
Mof_O 	O 	0.2477	0.5375	0.40436	-0.493
Mof_O 	O 	0.053	0.4379	0.23982	-0.484
Mof_C 	C 	0.0691	0.4579	0.2618	0.398
Mof_Zn	Zn	0.77288	0.93927	0.87336	1.2
Mof_O 	O 	0.7231	0.9079	0.84771	-0.477
Mof_C 	C 	0.8118	0.1766	0.96677	0.421
Mof_O 	O 	0.8136	0.9822	0.8985	-0.48
Mof_N 	N 	0.9586	0.0515	0.9553	-0.119
Mof_O 	O 	0.6671	0.9758	0.84669	-0.478
Mof_O 	O 	0.8341	0.195	0.9863	-0.482
Mof_O 	O 	0.7724	0.1941	0.95594	-0.497
Mof_C 	C 	0.8356	0.1286	0.95461	-0.1
Mof_C 	C 	0.8059	0.0991	0.93769	0.044
Mof_H 	H 	0.7714	0.1102	0.9336	0.035
Mof_C 	C 	0.6616	0.9127	0.81378	-0.099
Mof_C 	C 	0.6856	0.9337	0.83785	0.391
Mof_C 	C 	0.7921	0.0224	0.90828	0.414
Mof_C 	C 	0.6273	0.9414	0.80009	0.042
Mof_H 	H 	0.6169	0.9745	0.8067	0.037
Mof_C 	C 	0.8854	0.1128	0.96107	-0.034
Mof_H 	H 	0.9059	0.1325	0.973	0.066
Mof_C 	C 	0.8253	0.0539	0.92666	-0.099
Mof_C 	C 	0.9052	0.0673	0.94975	0.071
Mof_C 	C 	0.8758	0.0371	0.9329	-0.038
Mof_H 	H 	0.8895	0.0057	0.9258	0.062
Mof_N 	N 	0.665	0.7919	0.77412	-0.134
Mof_C 	C 	0.6811	0.7752	0.7488	-0.001
Mof_H 	H 	0.6901	0.7972	0.7346	0.031
Mof_C 	C 	0.6198	0.8747	0.76763	-0.037
Mof_H 	H 	0.606	0.8618	0.7517	0.057
Mof_C 	C 	0.9738	0.0034	0.96434	0.101
Mof_H 	H 	0.9515	0.9755	0.9696	0.008
Mof_C 	C 	0.6064	0.9243	0.77641	-0.099
Mof_C 	C 	0.6753	0.8626	0.80487	-0.043
Mof_H 	H 	0.6996	0.842	0.8144	0.059
Mof_C 	C 	0.654	0.8437	0.78261	0.068
Mof_O 	O 	0.5553	0.9995	0.77101	-0.49
Mof_O 	O 	0.7477	0.0375	0.90436	-0.491
Mof_O 	O 	0.553	0.9379	0.73982	-0.47
Mof_C 	C 	0.5691	0.9579	0.7618	0.397
Mof_Zn	Zn	0.22712	0.56073	0.87336	1.198
Mof_O 	O 	0.2769	0.5921	0.84771	-0.48
Mof_C 	C 	0.1882	0.3234	0.96677	0.424
Mof_O 	O 	0.1864	0.5178	0.8985	-0.489
Mof_N 	N 	0.0414	0.4485	0.9553	-0.114
Mof_O 	O 	0.3329	0.5242	0.84669	-0.478
Mof_O 	O 	0.1659	0.305	0.9863	-0.492
Mof_O 	O 	0.2276	0.3059	0.95594	-0.501
Mof_C 	C 	0.1644	0.3714	0.95461	-0.112
Mof_C 	C 	0.1941	0.4009	0.93769	0.051
Mof_H 	H 	0.2286	0.3898	0.9336	0.032
Mof_C 	C 	0.3384	0.5873	0.81378	-0.101
Mof_C 	C 	0.3144	0.5663	0.83785	0.392
Mof_C 	C 	0.2079	0.4776	0.90828	0.418
Mof_C 	C 	0.3727	0.5586	0.80009	0.043
Mof_H 	H 	0.3831	0.5255	0.8067	0.036
Mof_C 	C 	0.1146	0.3872	0.96107	-0.025
Mof_H 	H 	0.0941	0.3675	0.973	0.048
Mof_C 	C 	0.1747	0.4461	0.92666	-0.11
Mof_C 	C 	0.0948	0.4327	0.94975	0.048
Mof_C 	C 	0.1242	0.4629	0.9329	-0.029
Mof_H 	H 	0.1105	0.4943	0.9258	0.05
Mof_N 	N 	0.335	0.7081	0.77412	-0.134
Mof_C 	C 	0.3189	0.7248	0.7488	-0.001
Mof_H 	H 	0.3099	0.7028	0.7346	0.031
Mof_C 	C 	0.3802	0.6253	0.76763	-0.036
Mof_H 	H 	0.394	0.6382	0.7517	0.057
Mof_C 	C 	0.0262	0.4966	0.96434	-0.096
Mof_H 	H 	0.0485	0.5245	0.9696	0.054
Mof_C 	C 	0.3936	0.5757	0.77641	-0.1
Mof_C 	C 	0.3247	0.6374	0.80487	-0.042
Mof_H 	H 	0.3004	0.658	0.8144	0.057
Mof_C 	C 	0.346	0.6563	0.78261	0.067
Mof_O 	O 	0.4447	0.5005	0.77101	-0.491
Mof_O 	O 	0.2523	0.4625	0.90436	-0.493
Mof_O 	O 	0.447	0.5621	0.73982	-0.47
Mof_C 	C 	0.4309	0.5421	0.7618	0.397
Mof_Zn	Zn	0.72712	0.06073	0.37336	1.199
Mof_O 	O 	0.7769	0.0921	0.34771	-0.477
Mof_C 	C 	0.6882	0.8234	0.46677	0.422
Mof_O 	O 	0.6864	0.0178	0.3985	-0.484
Mof_N 	N 	0.5414	0.9485	0.4553	-0.135
Mof_O 	O 	0.8329	0.0242	0.34669	-0.473
Mof_O 	O 	0.6659	0.805	0.4863	-0.487
Mof_O 	O 	0.7276	0.8059	0.45594	-0.498
Mof_C 	C 	0.6644	0.8714	0.45461	-0.105
Mof_C 	C 	0.6941	0.9009	0.43769	0.046
Mof_H 	H 	0.7286	0.8898	0.4336	0.035
Mof_C 	C 	0.8384	0.0873	0.31378	-0.093
Mof_C 	C 	0.8144	0.0663	0.33785	0.39
Mof_C 	C 	0.7079	0.9776	0.40828	0.415
Mof_C 	C 	0.8727	0.0586	0.30009	0.039
Mof_H 	H 	0.8831	0.0255	0.3067	0.042
Mof_C 	C 	0.6146	0.8872	0.46107	-0.032
Mof_H 	H 	0.5941	0.8675	0.473	0.055
Mof_C 	C 	0.6747	0.9461	0.42666	-0.103
Mof_C 	C 	0.5948	0.9327	0.44975	0.061
Mof_C 	C 	0.6242	0.9629	0.4329	-0.035
Mof_H 	H 	0.6105	0.9943	0.4258	0.056
Mof_N 	N 	0.835	0.2081	0.27412	-0.134
Mof_C 	C 	0.8189	0.2248	0.2488	0.001
Mof_H 	H 	0.8099	0.2028	0.2346	0.033
Mof_C 	C 	0.8802	0.1253	0.26763	-0.039
Mof_H 	H 	0.894	0.1382	0.2517	0.064
Mof_C 	C 	0.5262	0.9966	0.46434	0.003
Mof_H 	H 	0.5485	0.0245	0.4696	0.03
Mof_C 	C 	0.8936	0.0757	0.27641	-0.09
Mof_C 	C 	0.8247	0.1374	0.30487	-0.045
Mof_H 	H 	0.8004	0.158	0.3144	0.06
Mof_C 	C 	0.846	0.1563	0.28261	0.073
Mof_O 	O 	0.9447	0.0005	0.27101	-0.469
Mof_O 	O 	0.7523	0.9625	0.40436	-0.49
Mof_O 	O 	0.947	0.0621	0.23982	-0.448
Mof_C 	C 	0.9309	0.0421	0.2618	0.393
Mof_Zn	Zn	0.68927	0.97712	0.12336	1.199
Mof_O 	O 	0.6579	0.0269	0.09771	-0.479
Mof_C 	C 	0.9266	0.9382	0.21677	0.417
Mof_O 	O 	0.7322	0.9364	0.1485	-0.484
Mof_N 	N 	0.8015	0.7914	0.2053	-0.135
Mof_O 	O 	0.7258	0.0829	0.09669	-0.477
Mof_O 	O 	0.945	0.9159	0.2363	-0.465
Mof_O 	O 	0.9441	0.9776	0.20594	-0.478
Mof_C 	C 	0.8786	0.9144	0.20461	-0.096
Mof_C 	C 	0.8491	0.9441	0.18769	0.043
Mof_H 	H 	0.8602	0.9786	0.1836	0.038
Mof_C 	C 	0.6627	0.0884	0.06378	-0.099
Mof_C 	C 	0.6837	0.0644	0.08785	0.391
Mof_C 	C 	0.7724	0.9579	0.15828	0.414
Mof_C 	C 	0.6914	0.1227	0.05009	0.042
Mof_H 	H 	0.7245	0.1331	0.0567	0.038
Mof_C 	C 	0.8628	0.8646	0.21107	-0.036
Mof_H 	H 	0.8825	0.8441	0.223	0.062
Mof_C 	C 	0.8039	0.9247	0.17666	-0.099
Mof_C 	C 	0.8173	0.8448	0.19975	0.065
Mof_C 	C 	0.7871	0.8742	0.1829	-0.037
Mof_H 	H 	0.7557	0.8605	0.1758	0.057
Mof_N 	N 	0.5419	0.085	0.02412	-0.134
Mof_C 	C 	0.5252	0.0689	0.9988	-0.001
Mof_H 	H 	0.5472	0.0599	0.9846	0.031
Mof_C 	C 	0.6247	0.1302	0.01763	-0.037
Mof_H 	H 	0.6118	0.144	0.0017	0.057
Mof_C 	C 	0.7534	0.7762	0.21434	0.004
Mof_H 	H 	0.7255	0.7985	0.2196	0.03
Mof_C 	C 	0.6743	0.1436	0.02641	-0.099
Mof_C 	C 	0.6126	0.0747	0.05487	-0.043
Mof_H 	H 	0.592	0.0504	0.0644	0.058
Mof_C 	C 	0.5937	0.096	0.03261	0.068
Mof_O 	O 	0.7495	0.1947	0.02101	-0.489
Mof_O 	O 	0.7875	0.0023	0.15436	-0.488
Mof_O 	O 	0.6879	0.197	0.98982	-0.47
Mof_C 	C 	0.7079	0.1809	0.0118	0.397
Mof_Zn	Zn	0.18927	0.47712	0.62336	1.198
Mof_O 	O 	0.1579	0.5269	0.59771	-0.484
Mof_C 	C 	0.4266	0.4382	0.71677	0.423
Mof_O 	O 	0.2322	0.4364	0.6485	-0.488
Mof_N 	N 	0.3015	0.2914	0.7053	-0.135
Mof_O 	O 	0.2258	0.5829	0.59669	-0.48
Mof_O 	O 	0.445	0.4159	0.7363	-0.488
Mof_O 	O 	0.4441	0.4776	0.70594	-0.499
Mof_C 	C 	0.3786	0.4144	0.70461	-0.106
Mof_C 	C 	0.3491	0.4441	0.68769	0.048
Mof_H 	H 	0.3602	0.4786	0.6836	0.033
Mof_C 	C 	0.1627	0.5884	0.56378	-0.107
Mof_C 	C 	0.1837	0.5644	0.58785	0.393
Mof_C 	C 	0.2724	0.4579	0.65828	0.417
Mof_C 	C 	0.1914	0.6227	0.55009	0.047
Mof_H 	H 	0.2245	0.6331	0.5567	0.034
Mof_C 	C 	0.3628	0.3646	0.71107	-0.031
Mof_H 	H 	0.3825	0.3441	0.723	0.055
Mof_C 	C 	0.3039	0.4247	0.67666	-0.105
Mof_C 	C 	0.3173	0.3448	0.69975	0.059
Mof_C 	C 	0.2871	0.3742	0.6829	-0.034
Mof_H 	H 	0.2557	0.3605	0.6758	0.054
Mof_N 	N 	0.0419	0.585	0.52412	-0.113
Mof_C 	C 	0.0252	0.5689	0.4988	-0.113
Mof_H 	H 	0.0472	0.5599	0.4846	0.06
Mof_C 	C 	0.1247	0.6302	0.51763	-0.03
Mof_H 	H 	0.1118	0.644	0.5017	0.051
Mof_C 	C 	0.2534	0.2762	0.71434	0.002
Mof_H 	H 	0.2255	0.2985	0.7196	0.028
Mof_C 	C 	0.1743	0.6436	0.52641	-0.106
Mof_C 	C 	0.1126	0.5747	0.55487	-0.036
Mof_H 	H 	0.092	0.5504	0.5644	0.05
Mof_C 	C 	0.0937	0.596	0.53261	0.055
Mof_O 	O 	0.2495	0.6947	0.52101	-0.492
Mof_O 	O 	0.2875	0.5023	0.65436	-0.492
Mof_O 	O 	0.1879	0.697	0.48982	-0.474
Mof_C 	C 	0.2079	0.6809	0.5118	0.399
Mof_Zn	Zn	0.81073	0.02288	0.62336	1.2
Mof_O 	O 	0.8421	0.9731	0.59771	-0.473
Mof_C 	C 	0.5734	0.0618	0.71677	0.422
Mof_O 	O 	0.7678	0.0636	0.6485	-0.482
Mof_N 	N 	0.6985	0.2086	0.7053	-0.135
Mof_O 	O 	0.7742	0.9171	0.59669	-0.477
Mof_O 	O 	0.555	0.0841	0.7363	-0.488
Mof_O 	O 	0.5559	0.0224	0.70594	-0.5
Mof_C 	C 	0.6214	0.0856	0.70461	-0.105
Mof_C 	C 	0.6509	0.0559	0.68769	0.046
Mof_H 	H 	0.6398	0.0214	0.6836	0.033
Mof_C 	C 	0.8373	0.9116	0.56378	-0.094
Mof_C 	C 	0.8163	0.9356	0.58785	0.39
Mof_C 	C 	0.7276	0.0421	0.65828	0.414
Mof_C 	C 	0.8086	0.8773	0.55009	0.04
Mof_H 	H 	0.7755	0.8669	0.5567	0.038
Mof_C 	C 	0.6372	0.1354	0.71107	-0.032
Mof_H 	H 	0.6175	0.1559	0.723	0.055
Mof_C 	C 	0.6961	0.0753	0.67666	-0.103
Mof_C 	C 	0.6827	0.1552	0.69975	0.061
Mof_C 	C 	0.7129	0.1258	0.6829	-0.036
Mof_H 	H 	0.7443	0.1395	0.6758	0.058
Mof_N 	N 	0.9581	0.915	0.52412	-0.119
Mof_C 	C 	0.9748	0.9311	0.4988	0.111
Mof_H 	H 	0.9528	0.9401	0.4846	0.003
Mof_C 	C 	0.8753	0.8698	0.51763	-0.039
Mof_H 	H 	0.8882	0.856	0.5017	0.063
Mof_C 	C 	0.7466	0.2238	0.71434	0.004
Mof_H 	H 	0.7745	0.2015	0.7196	0.032
Mof_C 	C 	0.8257	0.8564	0.52641	-0.095
Mof_C 	C 	0.8874	0.9253	0.55487	-0.045
Mof_H 	H 	0.908	0.9496	0.5644	0.069
Mof_C 	C 	0.9063	0.904	0.53261	0.078
Mof_O 	O 	0.7505	0.8053	0.52101	-0.49
Mof_O 	O 	0.7125	0.9977	0.65436	-0.49
Mof_O 	O 	0.8121	0.803	0.48982	-0.466
Mof_C 	C 	0.7921	0.8191	0.5118	0.396
Mof_Zn	Zn	0.31073	0.52288	0.12336	1.199
Mof_O 	O 	0.3421	0.4731	0.09771	-0.479
Mof_C 	C 	0.0734	0.5618	0.21677	0.425
Mof_O 	O 	0.2678	0.5636	0.1485	-0.486
Mof_N 	N 	0.1985	0.7086	0.2053	-0.135
Mof_O 	O 	0.2742	0.4171	0.09669	-0.48
Mof_O 	O 	0.055	0.5841	0.2363	-0.502
Mof_O 	O 	0.0559	0.5224	0.20594	-0.513
Mof_C 	C 	0.1214	0.5856	0.20461	-0.113
Mof_C 	C 	0.1509	0.5559	0.18769	0.05
Mof_H 	H 	0.1398	0.5214	0.1836	0.03
Mof_C 	C 	0.3373	0.4116	0.06378	-0.101
Mof_C 	C 	0.3163	0.4356	0.08785	0.392
Mof_C 	C 	0.2276	0.5421	0.15828	0.417
Mof_C 	C 	0.3086	0.3773	0.05009	0.044
Mof_H 	H 	0.2755	0.3669	0.0567	0.035
Mof_C 	C 	0.1372	0.6354	0.21107	-0.029
Mof_H 	H 	0.1175	0.6559	0.223	0.049
Mof_C 	C 	0.1961	0.5753	0.17666	-0.108
Mof_C 	C 	0.1827	0.6552	0.19975	0.057
Mof_C 	C 	0.2129	0.6258	0.1829	-0.033
Mof_H 	H 	0.2443	0.6395	0.1758	0.055
Mof_N 	N 	0.4581	0.415	0.02412	-0.134
Mof_C 	C 	0.4748	0.4311	0.9988	-0.001
Mof_H 	H 	0.4528	0.4401	0.9846	0.031
Mof_C 	C 	0.3753	0.3698	0.01763	-0.036
Mof_H 	H 	0.3882	0.356	0.0017	0.057
Mof_C 	C 	0.2466	0.7238	0.21434	0.003
Mof_H 	H 	0.2745	0.7015	0.2196	0.03
Mof_C 	C 	0.3257	0.3564	0.02641	-0.101
Mof_C 	C 	0.3874	0.4253	0.05487	-0.042
Mof_H 	H 	0.408	0.4496	0.0644	0.058
Mof_C 	C 	0.4063	0.404	0.03261	0.067
Mof_O 	O 	0.2505	0.3053	0.02101	-0.493
Mof_O 	O 	0.2125	0.4977	0.15436	-0.494
Mof_O 	O 	0.3121	0.303	0.98982	-0.471
Mof_C 	C 	0.2921	0.3191	0.0118	0.398
Mof_Zn	Zn	0.77288	0.56073	0.87336	1.2
Mof_O 	O 	0.7231	0.5921	0.84771	-0.477
Mof_C 	C 	0.8118	0.3234	0.96677	0.421
Mof_O 	O 	0.8136	0.5178	0.8985	-0.481
Mof_N 	N 	0.9586	0.4485	0.9553	-0.119
Mof_O 	O 	0.6671	0.5242	0.84669	-0.478
Mof_O 	O 	0.8341	0.305	0.9863	-0.482
Mof_O 	O 	0.7724	0.3059	0.95594	-0.497
Mof_C 	C 	0.8356	0.3714	0.95461	-0.1
Mof_C 	C 	0.8059	0.4009	0.93769	0.044
Mof_H 	H 	0.7714	0.3898	0.9336	0.035
Mof_C 	C 	0.6616	0.5873	0.81378	-0.099
Mof_C 	C 	0.6856	0.5663	0.83785	0.391
Mof_C 	C 	0.7921	0.4776	0.90828	0.415
Mof_C 	C 	0.6273	0.5586	0.80009	0.043
Mof_H 	H 	0.6169	0.5255	0.8067	0.036
Mof_C 	C 	0.8854	0.3872	0.96107	-0.034
Mof_H 	H 	0.9059	0.3675	0.973	0.066
Mof_C 	C 	0.8253	0.4461	0.92666	-0.099
Mof_C 	C 	0.9052	0.4327	0.94975	0.071
Mof_C 	C 	0.8758	0.4629	0.9329	-0.038
Mof_H 	H 	0.8895	0.4943	0.9258	0.063
Mof_N 	N 	0.665	0.7081	0.77412	-0.134
Mof_C 	C 	0.6811	0.7248	0.7488	-0.001
Mof_H 	H 	0.6901	0.7028	0.7346	0.031
Mof_C 	C 	0.6198	0.6253	0.76763	-0.037
Mof_H 	H 	0.606	0.6382	0.7517	0.057
Mof_C 	C 	0.9738	0.4966	0.96434	0.103
Mof_H 	H 	0.9515	0.5245	0.9696	0.007
Mof_C 	C 	0.6064	0.5757	0.77641	-0.1
Mof_C 	C 	0.6753	0.6374	0.80487	-0.043
Mof_H 	H 	0.6996	0.658	0.8144	0.059
Mof_C 	C 	0.654	0.6563	0.78261	0.068
Mof_O 	O 	0.5553	0.5005	0.77101	-0.491
Mof_O 	O 	0.7477	0.4625	0.90436	-0.491
Mof_O 	O 	0.553	0.5621	0.73982	-0.47
Mof_C 	C 	0.5691	0.5421	0.7618	0.397
Mof_Zn	Zn	0.27288	0.06073	0.37336	1.199
Mof_O 	O 	0.2231	0.0921	0.34771	-0.48
Mof_C 	C 	0.3118	0.8234	0.46677	0.423
Mof_O 	O 	0.3136	0.0178	0.3985	-0.485
Mof_N 	N 	0.4586	0.9485	0.4553	-0.135
Mof_O 	O 	0.1671	0.0242	0.34669	-0.482
Mof_O 	O 	0.3341	0.805	0.4863	-0.488
Mof_O 	O 	0.2724	0.8059	0.45594	-0.5
Mof_C 	C 	0.3356	0.8714	0.45461	-0.107
Mof_C 	C 	0.3059	0.9009	0.43769	0.048
Mof_H 	H 	0.2714	0.8898	0.4336	0.032
Mof_C 	C 	0.1616	0.0873	0.31378	-0.105
Mof_C 	C 	0.1856	0.0663	0.33785	0.392
Mof_C 	C 	0.2921	0.9776	0.40828	0.416
Mof_C 	C 	0.1273	0.0586	0.30009	0.045
Mof_H 	H 	0.1169	0.0255	0.3067	0.032
Mof_C 	C 	0.3854	0.8872	0.46107	-0.031
Mof_H 	H 	0.4059	0.8675	0.473	0.055
Mof_C 	C 	0.3253	0.9461	0.42666	-0.105
Mof_C 	C 	0.4052	0.9327	0.44975	0.06
Mof_C 	C 	0.3758	0.9629	0.4329	-0.034
Mof_H 	H 	0.3895	0.9943	0.4258	0.056
Mof_N 	N 	0.165	0.2081	0.27412	-0.134
Mof_C 	C 	0.1811	0.2248	0.2488	-0.003
Mof_H 	H 	0.1901	0.2028	0.2346	0.03
Mof_C 	C 	0.1198	0.1253	0.26763	-0.035
Mof_H 	H 	0.106	0.1382	0.2517	0.051
Mof_C 	C 	0.4738	0.9966	0.46434	0.003
Mof_H 	H 	0.4515	0.0245	0.4696	0.03
Mof_C 	C 	0.1064	0.0757	0.27641	-0.107
Mof_C 	C 	0.1753	0.1374	0.30487	-0.041
Mof_H 	H 	0.1996	0.158	0.3144	0.057
Mof_C 	C 	0.154	0.1563	0.28261	0.062
Mof_O 	O 	0.0553	0.0005	0.27101	-0.503
Mof_O 	O 	0.2477	0.9625	0.40436	-0.493
Mof_O 	O 	0.053	0.0621	0.23982	-0.484
Mof_C 	C 	0.0691	0.0421	0.2618	0.398
Mof_Zn	Zn	0.72712	0.43927	0.37336	1.199
Mof_O 	O 	0.7769	0.4079	0.34771	-0.477
Mof_C 	C 	0.6882	0.6766	0.46677	0.422
Mof_O 	O 	0.6864	0.4822	0.3985	-0.485
Mof_N 	N 	0.5414	0.5515	0.4553	-0.135
Mof_O 	O 	0.8329	0.4758	0.34669	-0.473
Mof_O 	O 	0.6659	0.695	0.4863	-0.487
Mof_O 	O 	0.7276	0.6941	0.45594	-0.498
Mof_C 	C 	0.6644	0.6286	0.45461	-0.105
Mof_C 	C 	0.6941	0.5991	0.43769	0.046
Mof_H 	H 	0.7286	0.6102	0.4336	0.035
Mof_C 	C 	0.8384	0.4127	0.31378	-0.093
Mof_C 	C 	0.8144	0.4337	0.33785	0.39
Mof_C 	C 	0.7079	0.5224	0.40828	0.416
Mof_C 	C 	0.8727	0.4414	0.30009	0.039
Mof_H 	H 	0.8831	0.4745	0.3067	0.042
Mof_C 	C 	0.6146	0.6128	0.46107	-0.032
Mof_H 	H 	0.5941	0.6325	0.473	0.055
Mof_C 	C 	0.6747	0.5539	0.42666	-0.103
Mof_C 	C 	0.5948	0.5673	0.44975	0.061
Mof_C 	C 	0.6242	0.5371	0.4329	-0.035
Mof_H 	H 	0.6105	0.5057	0.4258	0.056
Mof_N 	N 	0.835	0.2919	0.27412	-0.134
Mof_C 	C 	0.8189	0.2752	0.2488	0.001
Mof_H 	H 	0.8099	0.2972	0.2346	0.033
Mof_C 	C 	0.8802	0.3747	0.26763	-0.039
Mof_H 	H 	0.894	0.3618	0.2517	0.064
Mof_C 	C 	0.5262	0.5034	0.46434	0.003
Mof_H 	H 	0.5485	0.4755	0.4696	0.03
Mof_C 	C 	0.8936	0.4243	0.27641	-0.09
Mof_C 	C 	0.8247	0.3626	0.30487	-0.045
Mof_H 	H 	0.8004	0.342	0.3144	0.06
Mof_C 	C 	0.846	0.3437	0.28261	0.073
Mof_O 	O 	0.9447	0.4995	0.27101	-0.47
Mof_O 	O 	0.7523	0.5375	0.40436	-0.49
Mof_O 	O 	0.947	0.4379	0.23982	-0.448
Mof_C 	C 	0.9309	0.4579	0.2618	0.393
Mof_Zn	Zn	0.22712	0.93927	0.87336	1.198
Mof_O 	O 	0.2769	0.9079	0.84771	-0.48
Mof_C 	C 	0.1882	0.1766	0.96677	0.424
Mof_O 	O 	0.1864	0.9822	0.8985	-0.488
Mof_N 	N 	0.0414	0.0515	0.9553	-0.115
Mof_O 	O 	0.3329	0.9758	0.84669	-0.478
Mof_O 	O 	0.1659	0.195	0.9863	-0.492
Mof_O 	O 	0.2276	0.1941	0.95594	-0.501
Mof_C 	C 	0.1644	0.1286	0.95461	-0.112
Mof_C 	C 	0.1941	0.0991	0.93769	0.051
Mof_H 	H 	0.2286	0.1102	0.9336	0.032
Mof_C 	C 	0.3384	0.9127	0.81378	-0.1
Mof_C 	C 	0.3144	0.9337	0.83785	0.392
Mof_C 	C 	0.2079	0.0224	0.90828	0.417
Mof_C 	C 	0.3727	0.9414	0.80009	0.043
Mof_H 	H 	0.3831	0.9745	0.8067	0.036
Mof_C 	C 	0.1146	0.1128	0.96107	-0.025
Mof_H 	H 	0.0941	0.1325	0.973	0.048
Mof_C 	C 	0.1747	0.0539	0.92666	-0.11
Mof_C 	C 	0.0948	0.0673	0.94975	0.048
Mof_C 	C 	0.1242	0.0371	0.9329	-0.029
Mof_H 	H 	0.1105	0.0057	0.9258	0.05
Mof_N 	N 	0.335	0.7919	0.77412	-0.134
Mof_C 	C 	0.3189	0.7752	0.7488	-0.001
Mof_H 	H 	0.3099	0.7972	0.7346	0.031
Mof_C 	C 	0.3802	0.8747	0.76763	-0.036
Mof_H 	H 	0.394	0.8618	0.7517	0.057
Mof_C 	C 	0.0262	0.0034	0.96434	-0.094
Mof_H 	H 	0.0485	0.9755	0.9696	0.054
Mof_C 	C 	0.3936	0.9243	0.77641	-0.1
Mof_C 	C 	0.3247	0.8626	0.80487	-0.042
Mof_H 	H 	0.3004	0.842	0.8144	0.057
Mof_C 	C 	0.346	0.8437	0.78261	0.067
Mof_O 	O 	0.4447	0.9995	0.77101	-0.49
Mof_O 	O 	0.2523	0.0375	0.90436	-0.493
Mof_O 	O 	0.447	0.9379	0.73982	-0.47
Mof_C 	C 	0.4309	0.9579	0.7618	0.397
Mof_Zn	Zn	0.18927	0.02288	0.62336	1.197
Mof_O 	O 	0.1579	0.9731	0.59771	-0.484
Mof_C 	C 	0.4266	0.0618	0.71677	0.423
Mof_O 	O 	0.2322	0.0636	0.6485	-0.487
Mof_N 	N 	0.3015	0.2086	0.7053	-0.135
Mof_O 	O 	0.2258	0.9171	0.59669	-0.48
Mof_O 	O 	0.445	0.0841	0.7363	-0.488
Mof_O 	O 	0.4441	0.0224	0.70594	-0.5
Mof_C 	C 	0.3786	0.0856	0.70461	-0.106
Mof_C 	C 	0.3491	0.0559	0.68769	0.047
Mof_H 	H 	0.3602	0.0214	0.6836	0.033
Mof_C 	C 	0.1627	0.9116	0.56378	-0.107
Mof_C 	C 	0.1837	0.9356	0.58785	0.393
Mof_C 	C 	0.2724	0.0421	0.65828	0.416
Mof_C 	C 	0.1914	0.8773	0.55009	0.047
Mof_H 	H 	0.2245	0.8669	0.5567	0.034
Mof_C 	C 	0.3628	0.1354	0.71107	-0.031
Mof_H 	H 	0.3825	0.1559	0.723	0.055
Mof_C 	C 	0.3039	0.0753	0.67666	-0.105
Mof_C 	C 	0.3173	0.1552	0.69975	0.059
Mof_C 	C 	0.2871	0.1258	0.6829	-0.034
Mof_H 	H 	0.2557	0.1395	0.6758	0.054
Mof_N 	N 	0.0419	0.915	0.52412	-0.113
Mof_C 	C 	0.0252	0.9311	0.4988	-0.112
Mof_H 	H 	0.0472	0.9401	0.4846	0.06
Mof_C 	C 	0.1247	0.8698	0.51763	-0.03
Mof_H 	H 	0.1118	0.856	0.5017	0.052
Mof_C 	C 	0.2534	0.2238	0.71434	0.002
Mof_H 	H 	0.2255	0.2015	0.7196	0.028
Mof_C 	C 	0.1743	0.8564	0.52641	-0.106
Mof_C 	C 	0.1126	0.9253	0.55487	-0.036
Mof_H 	H 	0.092	0.9496	0.5644	0.051
Mof_C 	C 	0.0937	0.904	0.53261	0.055
Mof_O 	O 	0.2495	0.8053	0.52101	-0.492
Mof_O 	O 	0.2875	0.9977	0.65436	-0.491
Mof_O 	O 	0.1879	0.803	0.48982	-0.474
Mof_C 	C 	0.2079	0.8191	0.5118	0.399
Mof_Zn	Zn	0.68927	0.52288	0.12336	1.199
Mof_O 	O 	0.6579	0.4731	0.09771	-0.479
Mof_C 	C 	0.9266	0.5618	0.21677	0.416
Mof_O 	O 	0.7322	0.5636	0.1485	-0.484
Mof_N 	N 	0.8015	0.7086	0.2053	-0.135
Mof_O 	O 	0.7258	0.4171	0.09669	-0.477
Mof_O 	O 	0.945	0.5841	0.2363	-0.465
Mof_O 	O 	0.9441	0.5224	0.20594	-0.477
Mof_C 	C 	0.8786	0.5856	0.20461	-0.096
Mof_C 	C 	0.8491	0.5559	0.18769	0.043
Mof_H 	H 	0.8602	0.5214	0.1836	0.038
Mof_C 	C 	0.6627	0.4116	0.06378	-0.099
Mof_C 	C 	0.6837	0.4356	0.08785	0.391
Mof_C 	C 	0.7724	0.5421	0.15828	0.415
Mof_C 	C 	0.6914	0.3773	0.05009	0.042
Mof_H 	H 	0.7245	0.3669	0.0567	0.038
Mof_C 	C 	0.8628	0.6354	0.21107	-0.036
Mof_H 	H 	0.8825	0.6559	0.223	0.062
Mof_C 	C 	0.8039	0.5753	0.17666	-0.099
Mof_C 	C 	0.8173	0.6552	0.19975	0.065
Mof_C 	C 	0.7871	0.6258	0.1829	-0.037
Mof_H 	H 	0.7557	0.6395	0.1758	0.057
Mof_N 	N 	0.5419	0.415	0.02412	-0.134
Mof_C 	C 	0.5252	0.4311	0.9988	-0.001
Mof_H 	H 	0.5472	0.4401	0.9846	0.031
Mof_C 	C 	0.6247	0.3698	0.01763	-0.037
Mof_H 	H 	0.6118	0.356	0.0017	0.057
Mof_C 	C 	0.7534	0.7238	0.21434	0.004
Mof_H 	H 	0.7255	0.7015	0.2196	0.03
Mof_C 	C 	0.6743	0.3564	0.02641	-0.099
Mof_C 	C 	0.6126	0.4253	0.05487	-0.043
Mof_H 	H 	0.592	0.4496	0.0644	0.058
Mof_C 	C 	0.5937	0.404	0.03261	0.068
Mof_O 	O 	0.7495	0.3053	0.02101	-0.489
Mof_O 	O 	0.7875	0.4977	0.15436	-0.489
Mof_O 	O 	0.6879	0.303	0.98982	-0.47
Mof_C 	C 	0.7079	0.3191	0.0118	0.397
Mof_Zn	Zn	0.31073	0.97712	0.12336	1.199
Mof_O 	O 	0.3421	0.0269	0.09771	-0.479
Mof_C 	C 	0.0734	0.9382	0.21677	0.425
Mof_O 	O 	0.2678	0.9364	0.1485	-0.486
Mof_N 	N 	0.1985	0.7914	0.2053	-0.135
Mof_O 	O 	0.2742	0.0829	0.09669	-0.479
Mof_O 	O 	0.055	0.9159	0.2363	-0.502
Mof_O 	O 	0.0559	0.9776	0.20594	-0.513
Mof_C 	C 	0.1214	0.9144	0.20461	-0.113
Mof_C 	C 	0.1509	0.9441	0.18769	0.05
Mof_H 	H 	0.1398	0.9786	0.1836	0.03
Mof_C 	C 	0.3373	0.0884	0.06378	-0.101
Mof_C 	C 	0.3163	0.0644	0.08785	0.392
Mof_C 	C 	0.2276	0.9579	0.15828	0.416
Mof_C 	C 	0.3086	0.1227	0.05009	0.044
Mof_H 	H 	0.2755	0.1331	0.0567	0.035
Mof_C 	C 	0.1372	0.8646	0.21107	-0.029
Mof_H 	H 	0.1175	0.8441	0.223	0.049
Mof_C 	C 	0.1961	0.9247	0.17666	-0.108
Mof_C 	C 	0.1827	0.8448	0.19975	0.057
Mof_C 	C 	0.2129	0.8742	0.1829	-0.033
Mof_H 	H 	0.2443	0.8605	0.1758	0.055
Mof_N 	N 	0.4581	0.085	0.02412	-0.134
Mof_C 	C 	0.4748	0.0689	0.9988	-0.001
Mof_H 	H 	0.4528	0.0599	0.9846	0.031
Mof_C 	C 	0.3753	0.1302	0.01763	-0.036
Mof_H 	H 	0.3882	0.144	0.0017	0.057
Mof_C 	C 	0.2466	0.7762	0.21434	0.003
Mof_H 	H 	0.2745	0.7985	0.2196	0.03
Mof_C 	C 	0.3257	0.1436	0.02641	-0.101
Mof_C 	C 	0.3874	0.0747	0.05487	-0.042
Mof_H 	H 	0.408	0.0504	0.0644	0.058
Mof_C 	C 	0.4063	0.096	0.03261	0.067
Mof_O 	O 	0.2505	0.1947	0.02101	-0.493
Mof_O 	O 	0.2125	0.0023	0.15436	-0.493
Mof_O 	O 	0.3121	0.197	0.98982	-0.471
Mof_C 	C 	0.2921	0.1809	0.0118	0.398
Mof_Zn	Zn	0.81073	0.47712	0.62336	1.2
Mof_O 	O 	0.8421	0.5269	0.59771	-0.473
Mof_C 	C 	0.5734	0.4382	0.71677	0.422
Mof_O 	O 	0.7678	0.4364	0.6485	-0.482
Mof_N 	N 	0.6985	0.2914	0.7053	-0.135
Mof_O 	O 	0.7742	0.5829	0.59669	-0.477
Mof_O 	O 	0.555	0.4159	0.7363	-0.487
Mof_O 	O 	0.5559	0.4776	0.70594	-0.499
Mof_C 	C 	0.6214	0.4144	0.70461	-0.105
Mof_C 	C 	0.6509	0.4441	0.68769	0.046
Mof_H 	H 	0.6398	0.4786	0.6836	0.034
Mof_C 	C 	0.8373	0.5884	0.56378	-0.094
Mof_C 	C 	0.8163	0.5644	0.58785	0.39
Mof_C 	C 	0.7276	0.4579	0.65828	0.415
Mof_C 	C 	0.8086	0.6227	0.55009	0.04
Mof_H 	H 	0.7755	0.6331	0.5567	0.038
Mof_C 	C 	0.6372	0.3646	0.71107	-0.032
Mof_H 	H 	0.6175	0.3441	0.723	0.055
Mof_C 	C 	0.6961	0.4247	0.67666	-0.103
Mof_C 	C 	0.6827	0.3448	0.69975	0.061
Mof_C 	C 	0.7129	0.3742	0.6829	-0.036
Mof_H 	H 	0.7443	0.3605	0.6758	0.058
Mof_N 	N 	0.9581	0.585	0.52412	-0.119
Mof_C 	C 	0.9748	0.5689	0.4988	0.112
Mof_H 	H 	0.9528	0.5599	0.4846	0.003
Mof_C 	C 	0.8753	0.6302	0.51763	-0.039
Mof_H 	H 	0.8882	0.644	0.5017	0.063
Mof_C 	C 	0.7466	0.2762	0.71434	0.004
Mof_H 	H 	0.7745	0.2985	0.7196	0.032
Mof_C 	C 	0.8257	0.6436	0.52641	-0.095
Mof_C 	C 	0.8874	0.5747	0.55487	-0.045
Mof_H 	H 	0.908	0.5504	0.5644	0.069
Mof_C 	C 	0.9063	0.596	0.53261	0.078
Mof_O 	O 	0.7505	0.6947	0.52101	-0.49
Mof_O 	O 	0.7125	0.5023	0.65436	-0.491
Mof_O 	O 	0.8121	0.697	0.48982	-0.466
Mof_C 	C 	0.7921	0.6809	0.5118	0.396
Mof_Zn	Zn	0.72712	0.56073	0.62664	1.199
Mof_O 	O 	0.7769	0.5921	0.65229	-0.477
Mof_C 	C 	0.6882	0.3234	0.53323	0.422
Mof_O 	O 	0.6864	0.5178	0.6015	-0.485
Mof_N 	N 	0.5414	0.4485	0.5447	-0.135
Mof_O 	O 	0.8329	0.5242	0.65331	-0.473
Mof_O 	O 	0.6659	0.305	0.5137	-0.487
Mof_O 	O 	0.7276	0.3059	0.54406	-0.498
Mof_C 	C 	0.6644	0.3714	0.54539	-0.105
Mof_C 	C 	0.6941	0.4009	0.56231	0.046
Mof_H 	H 	0.7286	0.3898	0.5664	0.035
Mof_C 	C 	0.8384	0.5873	0.68622	-0.093
Mof_C 	C 	0.8144	0.5663	0.66215	0.39
Mof_C 	C 	0.7079	0.4776	0.59172	0.416
Mof_C 	C 	0.8727	0.5586	0.69991	0.039
Mof_H 	H 	0.8831	0.5255	0.6933	0.042
Mof_C 	C 	0.6146	0.3872	0.53893	-0.032
Mof_H 	H 	0.5941	0.3675	0.527	0.055
Mof_C 	C 	0.6747	0.4461	0.57334	-0.103
Mof_C 	C 	0.5948	0.4327	0.55025	0.061
Mof_C 	C 	0.6242	0.4629	0.5671	-0.035
Mof_H 	H 	0.6105	0.4943	0.5742	0.056
Mof_N 	N 	0.835	0.7081	0.72588	-0.134
Mof_C 	C 	0.8189	0.7248	0.7512	0.001
Mof_H 	H 	0.8099	0.7028	0.7654	0.033
Mof_C 	C 	0.8802	0.6253	0.73237	-0.039
Mof_H 	H 	0.894	0.6382	0.7483	0.064
Mof_C 	C 	0.5262	0.4966	0.53566	0.003
Mof_H 	H 	0.5485	0.5245	0.5304	0.03
Mof_C 	C 	0.8936	0.5757	0.72359	-0.09
Mof_C 	C 	0.8247	0.6374	0.69513	-0.045
Mof_H 	H 	0.8004	0.658	0.6856	0.06
Mof_C 	C 	0.846	0.6563	0.71739	0.073
Mof_O 	O 	0.9447	0.5005	0.72899	-0.47
Mof_O 	O 	0.7523	0.4625	0.59564	-0.49
Mof_O 	O 	0.947	0.5621	0.76018	-0.448
Mof_C 	C 	0.9309	0.5421	0.7382	0.393
Mof_Zn	Zn	0.22712	0.06073	0.12664	1.198
Mof_O 	O 	0.2769	0.0921	0.15229	-0.48
Mof_C 	C 	0.1882	0.8234	0.03323	0.424
Mof_O 	O 	0.1864	0.0178	0.1015	-0.488
Mof_N 	N 	0.0414	0.9485	0.0447	-0.115
Mof_O 	O 	0.3329	0.0242	0.15331	-0.478
Mof_O 	O 	0.1659	0.805	0.0137	-0.492
Mof_O 	O 	0.2276	0.8059	0.04406	-0.501
Mof_C 	C 	0.1644	0.8714	0.04539	-0.112
Mof_C 	C 	0.1941	0.9009	0.06231	0.051
Mof_H 	H 	0.2286	0.8898	0.0664	0.032
Mof_C 	C 	0.3384	0.0873	0.18622	-0.1
Mof_C 	C 	0.3144	0.0663	0.16215	0.392
Mof_C 	C 	0.2079	0.9776	0.09172	0.417
Mof_C 	C 	0.3727	0.0586	0.19991	0.043
Mof_H 	H 	0.3831	0.0255	0.1933	0.036
Mof_C 	C 	0.1146	0.8872	0.03893	-0.025
Mof_H 	H 	0.0941	0.8675	0.027	0.048
Mof_C 	C 	0.1747	0.9461	0.07334	-0.11
Mof_C 	C 	0.0948	0.9327	0.05025	0.048
Mof_C 	C 	0.1242	0.9629	0.0671	-0.029
Mof_H 	H 	0.1105	0.9943	0.0742	0.05
Mof_N 	N 	0.335	0.2081	0.22588	-0.134
Mof_C 	C 	0.3189	0.2248	0.2512	-0.001
Mof_H 	H 	0.3099	0.2028	0.2654	0.031
Mof_C 	C 	0.3802	0.1253	0.23237	-0.036
Mof_H 	H 	0.394	0.1382	0.2483	0.057
Mof_C 	C 	0.0262	0.9966	0.03566	-0.094
Mof_H 	H 	0.0485	0.0245	0.0304	0.054
Mof_C 	C 	0.3936	0.0757	0.22359	-0.1
Mof_C 	C 	0.3247	0.1374	0.19513	-0.042
Mof_H 	H 	0.3004	0.158	0.1856	0.057
Mof_C 	C 	0.346	0.1563	0.21739	0.067
Mof_O 	O 	0.4447	0.0005	0.22899	-0.49
Mof_O 	O 	0.2523	0.9625	0.09564	-0.493
Mof_O 	O 	0.447	0.0621	0.26018	-0.47
Mof_C 	C 	0.4309	0.0421	0.2382	0.397
Mof_Zn	Zn	0.77288	0.43927	0.12664	1.2
Mof_O 	O 	0.7231	0.4079	0.15229	-0.477
Mof_C 	C 	0.8118	0.6766	0.03323	0.421
Mof_O 	O 	0.8136	0.4822	0.1015	-0.481
Mof_N 	N 	0.9586	0.5515	0.0447	-0.119
Mof_O 	O 	0.6671	0.4758	0.15331	-0.478
Mof_O 	O 	0.8341	0.695	0.0137	-0.482
Mof_O 	O 	0.7724	0.6941	0.04406	-0.497
Mof_C 	C 	0.8356	0.6286	0.04539	-0.1
Mof_C 	C 	0.8059	0.5991	0.06231	0.044
Mof_H 	H 	0.7714	0.6102	0.0664	0.035
Mof_C 	C 	0.6616	0.4127	0.18622	-0.099
Mof_C 	C 	0.6856	0.4337	0.16215	0.391
Mof_C 	C 	0.7921	0.5224	0.09172	0.415
Mof_C 	C 	0.6273	0.4414	0.19991	0.043
Mof_H 	H 	0.6169	0.4745	0.1933	0.036
Mof_C 	C 	0.8854	0.6128	0.03893	-0.034
Mof_H 	H 	0.9059	0.6325	0.027	0.066
Mof_C 	C 	0.8253	0.5539	0.07334	-0.099
Mof_C 	C 	0.9052	0.5673	0.05025	0.071
Mof_C 	C 	0.8758	0.5371	0.0671	-0.038
Mof_H 	H 	0.8895	0.5057	0.0742	0.063
Mof_N 	N 	0.665	0.2919	0.22588	-0.134
Mof_C 	C 	0.6811	0.2752	0.2512	-0.001
Mof_H 	H 	0.6901	0.2972	0.2654	0.031
Mof_C 	C 	0.6198	0.3747	0.23237	-0.037
Mof_H 	H 	0.606	0.3618	0.2483	0.057
Mof_C 	C 	0.9738	0.5034	0.03566	0.103
Mof_H 	H 	0.9515	0.4755	0.0304	0.007
Mof_C 	C 	0.6064	0.4243	0.22359	-0.1
Mof_C 	C 	0.6753	0.3626	0.19513	-0.043
Mof_H 	H 	0.6996	0.342	0.1856	0.059
Mof_C 	C 	0.654	0.3437	0.21739	0.068
Mof_O 	O 	0.5553	0.4995	0.22899	-0.491
Mof_O 	O 	0.7477	0.5375	0.09564	-0.491
Mof_O 	O 	0.553	0.4379	0.26018	-0.47
Mof_C 	C 	0.5691	0.4579	0.2382	0.397
Mof_Zn	Zn	0.27288	0.93927	0.62664	1.199
Mof_O 	O 	0.2231	0.9079	0.65229	-0.48
Mof_C 	C 	0.3118	0.1766	0.53323	0.423
Mof_O 	O 	0.3136	0.9822	0.6015	-0.485
Mof_N 	N 	0.4586	0.0515	0.5447	-0.135
Mof_O 	O 	0.1671	0.9758	0.65331	-0.482
Mof_O 	O 	0.3341	0.195	0.5137	-0.488
Mof_O 	O 	0.2724	0.1941	0.54406	-0.5
Mof_C 	C 	0.3356	0.1286	0.54539	-0.107
Mof_C 	C 	0.3059	0.0991	0.56231	0.048
Mof_H 	H 	0.2714	0.1102	0.5664	0.032
Mof_C 	C 	0.1616	0.9127	0.68622	-0.105
Mof_C 	C 	0.1856	0.9337	0.66215	0.392
Mof_C 	C 	0.2921	0.0224	0.59172	0.416
Mof_C 	C 	0.1273	0.9414	0.69991	0.045
Mof_H 	H 	0.1169	0.9745	0.6933	0.032
Mof_C 	C 	0.3854	0.1128	0.53893	-0.031
Mof_H 	H 	0.4059	0.1325	0.527	0.055
Mof_C 	C 	0.3253	0.0539	0.57334	-0.105
Mof_C 	C 	0.4052	0.0673	0.55025	0.06
Mof_C 	C 	0.3758	0.0371	0.5671	-0.034
Mof_H 	H 	0.3895	0.0057	0.5742	0.056
Mof_N 	N 	0.165	0.7919	0.72588	-0.134
Mof_C 	C 	0.1811	0.7752	0.7512	-0.003
Mof_H 	H 	0.1901	0.7972	0.7654	0.03
Mof_C 	C 	0.1198	0.8747	0.73237	-0.035
Mof_H 	H 	0.106	0.8618	0.7483	0.051
Mof_C 	C 	0.4738	0.0034	0.53566	0.003
Mof_H 	H 	0.4515	0.9755	0.5304	0.03
Mof_C 	C 	0.1064	0.9243	0.72359	-0.107
Mof_C 	C 	0.1753	0.8626	0.69513	-0.041
Mof_H 	H 	0.1996	0.842	0.6856	0.057
Mof_C 	C 	0.154	0.8437	0.71739	0.062
Mof_O 	O 	0.0553	0.9995	0.72899	-0.503
Mof_O 	O 	0.2477	0.0375	0.59564	-0.493
Mof_O 	O 	0.053	0.9379	0.76018	-0.484
Mof_C 	C 	0.0691	0.9579	0.7382	0.398
Mof_Zn	Zn	0.31073	0.02288	0.87664	1.199
Mof_O 	O 	0.3421	0.9731	0.90229	-0.479
Mof_C 	C 	0.0734	0.0618	0.78323	0.425
Mof_O 	O 	0.2678	0.0636	0.8515	-0.486
Mof_N 	N 	0.1985	0.2086	0.7947	-0.135
Mof_O 	O 	0.2742	0.9171	0.90331	-0.479
Mof_O 	O 	0.055	0.0841	0.7637	-0.502
Mof_O 	O 	0.0559	0.0224	0.79406	-0.513
Mof_C 	C 	0.1214	0.0856	0.79539	-0.113
Mof_C 	C 	0.1509	0.0559	0.81231	0.05
Mof_H 	H 	0.1398	0.0214	0.8164	0.03
Mof_C 	C 	0.3373	0.9116	0.93622	-0.101
Mof_C 	C 	0.3163	0.9356	0.91215	0.392
Mof_C 	C 	0.2276	0.0421	0.84172	0.416
Mof_C 	C 	0.3086	0.8773	0.94991	0.044
Mof_H 	H 	0.2755	0.8669	0.9433	0.035
Mof_C 	C 	0.1372	0.1354	0.78893	-0.029
Mof_H 	H 	0.1175	0.1559	0.777	0.049
Mof_C 	C 	0.1961	0.0753	0.82334	-0.108
Mof_C 	C 	0.1827	0.1552	0.80025	0.057
Mof_C 	C 	0.2129	0.1258	0.8171	-0.033
Mof_H 	H 	0.2443	0.1395	0.8242	0.055
Mof_N 	N 	0.4581	0.915	0.97588	-0.134
Mof_C 	C 	0.4748	0.9311	0.0012	-0.001
Mof_H 	H 	0.4528	0.9401	0.0154	0.031
Mof_C 	C 	0.3753	0.8698	0.98237	-0.036
Mof_H 	H 	0.3882	0.856	0.9983	0.057
Mof_C 	C 	0.2466	0.2238	0.78566	0.003
Mof_H 	H 	0.2745	0.2015	0.7804	0.03
Mof_C 	C 	0.3257	0.8564	0.97359	-0.101
Mof_C 	C 	0.3874	0.9253	0.94513	-0.042
Mof_H 	H 	0.408	0.9496	0.9356	0.058
Mof_C 	C 	0.4063	0.904	0.96739	0.067
Mof_O 	O 	0.2505	0.8053	0.97899	-0.493
Mof_O 	O 	0.2125	0.9977	0.84564	-0.493
Mof_O 	O 	0.3121	0.803	0.01018	-0.471
Mof_C 	C 	0.2921	0.8191	0.9882	0.398
Mof_Zn	Zn	0.81073	0.52288	0.37664	1.2
Mof_O 	O 	0.8421	0.4731	0.40229	-0.473
Mof_C 	C 	0.5734	0.5618	0.28323	0.422
Mof_O 	O 	0.7678	0.5636	0.3515	-0.482
Mof_N 	N 	0.6985	0.7086	0.2947	-0.135
Mof_O 	O 	0.7742	0.4171	0.40331	-0.477
Mof_O 	O 	0.555	0.5841	0.2637	-0.487
Mof_O 	O 	0.5559	0.5224	0.29406	-0.499
Mof_C 	C 	0.6214	0.5856	0.29539	-0.105
Mof_C 	C 	0.6509	0.5559	0.31231	0.046
Mof_H 	H 	0.6398	0.5214	0.3164	0.034
Mof_C 	C 	0.8373	0.4116	0.43622	-0.094
Mof_C 	C 	0.8163	0.4356	0.41215	0.39
Mof_C 	C 	0.7276	0.5421	0.34172	0.415
Mof_C 	C 	0.8086	0.3773	0.44991	0.04
Mof_H 	H 	0.7755	0.3669	0.4433	0.038
Mof_C 	C 	0.6372	0.6354	0.28893	-0.032
Mof_H 	H 	0.6175	0.6559	0.277	0.055
Mof_C 	C 	0.6961	0.5753	0.32334	-0.103
Mof_C 	C 	0.6827	0.6552	0.30025	0.061
Mof_C 	C 	0.7129	0.6258	0.3171	-0.036
Mof_H 	H 	0.7443	0.6395	0.3242	0.058
Mof_N 	N 	0.9581	0.415	0.47588	-0.119
Mof_C 	C 	0.9748	0.4311	0.5012	0.112
Mof_H 	H 	0.9528	0.4401	0.5154	0.003
Mof_C 	C 	0.8753	0.3698	0.48237	-0.039
Mof_H 	H 	0.8882	0.356	0.4983	0.063
Mof_C 	C 	0.7466	0.7238	0.28566	0.004
Mof_H 	H 	0.7745	0.7015	0.2804	0.032
Mof_C 	C 	0.8257	0.3564	0.47359	-0.095
Mof_C 	C 	0.8874	0.4253	0.44513	-0.045
Mof_H 	H 	0.908	0.4496	0.4356	0.069
Mof_C 	C 	0.9063	0.404	0.46739	0.078
Mof_O 	O 	0.7505	0.3053	0.47899	-0.49
Mof_O 	O 	0.7125	0.4977	0.34564	-0.491
Mof_O 	O 	0.8121	0.303	0.51018	-0.466
Mof_C 	C 	0.7921	0.3191	0.4882	0.396
Mof_Zn	Zn	0.18927	0.97712	0.37664	1.197
Mof_O 	O 	0.1579	0.0269	0.40229	-0.484
Mof_C 	C 	0.4266	0.9382	0.28323	0.423
Mof_O 	O 	0.2322	0.9364	0.3515	-0.487
Mof_N 	N 	0.3015	0.7914	0.2947	-0.135
Mof_O 	O 	0.2258	0.0829	0.40331	-0.48
Mof_O 	O 	0.445	0.9159	0.2637	-0.488
Mof_O 	O 	0.4441	0.9776	0.29406	-0.5
Mof_C 	C 	0.3786	0.9144	0.29539	-0.106
Mof_C 	C 	0.3491	0.9441	0.31231	0.047
Mof_H 	H 	0.3602	0.9786	0.3164	0.033
Mof_C 	C 	0.1627	0.0884	0.43622	-0.107
Mof_C 	C 	0.1837	0.0644	0.41215	0.393
Mof_C 	C 	0.2724	0.9579	0.34172	0.416
Mof_C 	C 	0.1914	0.1227	0.44991	0.047
Mof_H 	H 	0.2245	0.1331	0.4433	0.034
Mof_C 	C 	0.3628	0.8646	0.28893	-0.031
Mof_H 	H 	0.3825	0.8441	0.277	0.055
Mof_C 	C 	0.3039	0.9247	0.32334	-0.105
Mof_C 	C 	0.3173	0.8448	0.30025	0.059
Mof_C 	C 	0.2871	0.8742	0.3171	-0.034
Mof_H 	H 	0.2557	0.8605	0.3242	0.054
Mof_N 	N 	0.0419	0.085	0.47588	-0.113
Mof_C 	C 	0.0252	0.0689	0.5012	-0.112
Mof_H 	H 	0.0472	0.0599	0.5154	0.06
Mof_C 	C 	0.1247	0.1302	0.48237	-0.03
Mof_H 	H 	0.1118	0.144	0.4983	0.052
Mof_C 	C 	0.2534	0.7762	0.28566	0.002
Mof_H 	H 	0.2255	0.7985	0.2804	0.028
Mof_C 	C 	0.1743	0.1436	0.47359	-0.106
Mof_C 	C 	0.1126	0.0747	0.44513	-0.036
Mof_H 	H 	0.092	0.0504	0.4356	0.051
Mof_C 	C 	0.0937	0.096	0.46739	0.055
Mof_O 	O 	0.2495	0.1947	0.47899	-0.492
Mof_O 	O 	0.2875	0.0023	0.34564	-0.491
Mof_O 	O 	0.1879	0.197	0.51018	-0.474
Mof_C 	C 	0.2079	0.1809	0.4882	0.399
Mof_Zn	Zn	0.68927	0.47712	0.87664	1.199
Mof_O 	O 	0.6579	0.5269	0.90229	-0.479
Mof_C 	C 	0.9266	0.4382	0.78323	0.416
Mof_O 	O 	0.7322	0.4364	0.8515	-0.484
Mof_N 	N 	0.8015	0.2914	0.7947	-0.135
Mof_O 	O 	0.7258	0.5829	0.90331	-0.477
Mof_O 	O 	0.945	0.4159	0.7637	-0.465
Mof_O 	O 	0.9441	0.4776	0.79406	-0.477
Mof_C 	C 	0.8786	0.4144	0.79539	-0.096
Mof_C 	C 	0.8491	0.4441	0.81231	0.043
Mof_H 	H 	0.8602	0.4786	0.8164	0.038
Mof_C 	C 	0.6627	0.5884	0.93622	-0.099
Mof_C 	C 	0.6837	0.5644	0.91215	0.391
Mof_C 	C 	0.7724	0.4579	0.84172	0.415
Mof_C 	C 	0.6914	0.6227	0.94991	0.042
Mof_H 	H 	0.7245	0.6331	0.9433	0.038
Mof_C 	C 	0.8628	0.3646	0.78893	-0.036
Mof_H 	H 	0.8825	0.3441	0.777	0.062
Mof_C 	C 	0.8039	0.4247	0.82334	-0.099
Mof_C 	C 	0.8173	0.3448	0.80025	0.065
Mof_C 	C 	0.7871	0.3742	0.8171	-0.037
Mof_H 	H 	0.7557	0.3605	0.8242	0.057
Mof_N 	N 	0.5419	0.585	0.97588	-0.134
Mof_C 	C 	0.5252	0.5689	0.0012	-0.001
Mof_H 	H 	0.5472	0.5599	0.0154	0.031
Mof_C 	C 	0.6247	0.6302	0.98237	-0.037
Mof_H 	H 	0.6118	0.644	0.9983	0.057
Mof_C 	C 	0.7534	0.2762	0.78566	0.004
Mof_H 	H 	0.7255	0.2985	0.7804	0.03
Mof_C 	C 	0.6743	0.6436	0.97359	-0.099
Mof_C 	C 	0.6126	0.5747	0.94513	-0.043
Mof_H 	H 	0.592	0.5504	0.9356	0.058
Mof_C 	C 	0.5937	0.596	0.96739	0.068
Mof_O 	O 	0.7495	0.6947	0.97899	-0.489
Mof_O 	O 	0.7875	0.5023	0.84564	-0.489
Mof_O 	O 	0.6879	0.697	0.01018	-0.47
Mof_C 	C 	0.7079	0.6809	0.9882	0.397
Mof_Zn	Zn	0.279	0.75	0.03325	1.203
Mof_Zn	Zn	0.19784	0.75	0.99077	1.199
Mof_Zn	Zn	0.221	0.25	0.53325	1.202
Mof_Zn	Zn	0.30216	0.25	0.49077	1.2
Mof_Zn	Zn	0.5	0.029	0.28325	1.203
Mof_Zn	Zn	0.5	0.94784	0.24077	1.2
Mof_Zn	Zn	-6.12454e-33	0.529	0.78325	1.187
Mof_Zn	Zn	5.58669e-33	0.44784	0.74077	1.185
Mof_Zn	Zn	-1.81561e-32	0.971	0.78325	1.188
Mof_Zn	Zn	5.58669e-33	0.05216	0.74077	1.184
Mof_Zn	Zn	0.5	0.471	0.28325	1.203
Mof_Zn	Zn	0.5	0.55216	0.24077	1.2
Mof_Zn	Zn	0.221	0.75	0.46675	1.202
Mof_Zn	Zn	0.30216	0.75	0.50923	1.2
Mof_Zn	Zn	0.279	0.25	0.96675	1.203
Mof_Zn	Zn	0.19784	0.25	0.00923	1.199
Mof_Zn	Zn	-4.38113e-33	0.029	0.21675	1.188
Mof_Zn	Zn	1.39866e-32	0.94784	0.25923	1.184
Mof_Zn	Zn	0.5	0.529	0.71675	1.203
Mof_Zn	Zn	0.5	0.44784	0.75923	1.2
Mof_Zn	Zn	0.5	0.971	0.71675	1.203
Mof_Zn	Zn	0.5	0.05216	0.75923	1.2
Mof_Zn	Zn	-1.37323e-33	0.471	0.21675	1.187
Mof_Zn	Zn	-1.00766e-32	0.55216	0.25923	1.185
Mof_Zn	Zn	0.721	0.25	0.96675	1.203
Mof_Zn	Zn	0.80216	0.25	0.00923	1.202
Mof_Zn	Zn	0.779	0.75	0.46675	1.204
Mof_Zn	Zn	0.69784	0.75	0.50923	1.2
Mof_Zn	Zn	0.779	0.25	0.53325	1.204
Mof_Zn	Zn	0.69784	0.25	0.49077	1.2
Mof_Zn	Zn	0.721	0.75	0.03325	1.203
Mof_Zn	Zn	0.80216	0.75	0.99077	1.202
Mof_C 	C 	0.3445	0.25	0.2115	0.094
Mof_H 	H 	0.3561	0.25	0.194	0.005
Mof_C 	C 	0.1555	0.75	0.7115	0.091
Mof_H 	H 	0.1439	0.75	0.694	0.002
Mof_C 	C 	3.48051e-33	0.0945	0.4615	0.036
Mof_H 	H 	-8.68307e-33	0.1061	0.444	0.009
Mof_C 	C 	0.5	0.5945	0.9615	0.094
Mof_H 	H 	0.5	0.6061	0.944	0.005
Mof_C 	C 	0.5	0.9055	0.9615	0.094
Mof_H 	H 	0.5	0.8939	0.944	0.005
Mof_C 	C 	3.48051e-33	0.4055	0.4615	0.036
Mof_H 	H 	-8.68307e-33	0.3939	0.444	0.009
Mof_C 	C 	0.1555	0.25	0.2885	0.091
Mof_H 	H 	0.1439	0.25	0.306	0.002
Mof_C 	C 	0.3445	0.75	0.7885	0.094
Mof_H 	H 	0.3561	0.75	0.806	0.005
Mof_C 	C 	0.8445	0.25	0.2885	0.097
Mof_H 	H 	0.8561	0.25	0.306	0.009
Mof_C 	C 	0.5	0.0945	0.0385	0.094
Mof_H 	H 	0.5	0.1061	0.056	0.005
Mof_C 	C 	-3.20336e-32	0.5945	0.5385	0.036
Mof_H 	H 	-1.987e-32	0.6061	0.556	0.009
Mof_C 	C 	-7.97038e-33	0.9055	0.5385	0.036
Mof_H 	H 	4.1932e-33	0.8939	0.556	0.009
Mof_C 	C 	0.5	0.4055	0.0385	0.094
Mof_H 	H 	0.5	0.3939	0.056	0.005
Mof_C 	C 	0.6555	0.75	0.7885	0.095
Mof_H 	H 	0.6439	0.75	0.806	0.005
Mof_C 	C 	0.8445	0.75	0.7115	0.097
Mof_H 	H 	0.8561	0.75	0.694	0.009
Mof_C 	C 	0.6555	0.25	0.2115	0.095
Mof_H 	H 	0.6439	0.25	0.194	0.005
Mof_C 	C 	1.88405e-33	0.5794	0.0504	0.04
Mof_H 	H 	1.9376e-33	0.6137	0.0575	0.008
Mof_C 	C 	0.5	0.0794	0.5504	0.099
Mof_H 	H 	0.5	0.1137	0.5575	0.004
Mof_C 	C 	0.5	0.4206	0.5504	0.1
Mof_H 	H 	0.5	0.3863	0.5575	0.004
Mof_C 	C 	1.88405e-33	0.9206	0.0504	0.04
Mof_H 	H 	7.9534e-33	0.8863	0.0575	0.008
Mof_C 	C 	0.6706	0.75	0.3004	0.1
Mof_H 	H 	0.6363	0.75	0.3075	0.004
Mof_C 	C 	0.8294	0.25	0.8004	0.101
Mof_H 	H 	0.8637	0.25	0.8075	0.01
Mof_C 	C 	0.5	0.5794	0.4496	0.1
Mof_H 	H 	0.5	0.6137	0.4425	0.004
Mof_C 	C 	-1.69016e-32	0.0794	0.9496	0.04
Mof_H 	H 	-1.69551e-32	0.1137	0.9425	0.008
Mof_C 	C 	7.16163e-33	0.4206	0.9496	0.04
Mof_H 	H 	3.11713e-32	0.3863	0.9425	0.008
Mof_C 	C 	0.5	0.9206	0.4496	0.099
Mof_H 	H 	0.5	0.8863	0.4425	0.004
Mof_C 	C 	0.8294	0.75	0.1996	0.101
Mof_H 	H 	0.8637	0.75	0.1925	0.01
Mof_C 	C 	0.6706	0.25	0.6996	0.1
Mof_H 	H 	0.6363	0.25	0.6925	0.004
Mof_C 	C 	0.3294	0.25	0.6996	0.099
Mof_H 	H 	0.3637	0.25	0.6925	0.004
Mof_C 	C 	0.1706	0.75	0.1996	0.098
Mof_H 	H 	0.1363	0.75	0.1925	-0.001
Mof_C 	C 	0.1706	0.25	0.8004	0.098
Mof_H 	H 	0.1363	0.25	0.8075	-0.001
Mof_C 	C 	0.3294	0.75	0.3004	0.099
Mof_H 	H 	0.3637	0.75	0.3075	0.004
_end
