data_functionalizedCrystal
_audit_creation_method	'EQeq! by Chris Wilmer'
_symmetry_space_group_name_H-M	'P1'
_symmetry_Int_Tables_number	1
_symmetry_cell_setting	triclinic
loop_
_symmetry_equiv_pos_as_xyz
  x,y,z
_cell_length_a	14.5649
_cell_length_b	7.8001
_cell_length_c	16.8042
_cell_angle_alpha	90
_cell_angle_beta	105.718
_cell_angle_gamma	90
loop_
_atom_site_label
_atom_site_type_symbol
_atom_site_fract_x
_atom_site_fract_y
_atom_site_fract_z
_atom_site_charge
Mof_Cd	Cd	0.1333	0.34931	0.1598	0.461
Mof_Br	Br	0.57417	0.87434	0.91909	-0.27
Mof_C 	C 	0.8747	0.0998	0.0425	-0.118
Mof_C 	C 	0.8451	0.0746	0.9574	0.082
Mof_H 	H 	0.8863	0.1054	0.9246	0.031
Mof_C 	C 	0.7563	0.0052	0.92007	-0.156
Mof_C 	C 	0.6973	0.9626	0.9697	0.197
Mof_C 	C 	0.7263	0.9813	0.0545	-0.18
Mof_H 	H 	0.686	0.9466	0.0876	0.116
Mof_C 	C 	0.8153	0.0515	0.0907	0.084
Mof_H 	H 	0.8358	0.0666	0.1489	0.027
Mof_C 	C 	0.9691	0.1834	0.0796	0.301
Mof_C 	C 	0.7256	0.9945	0.8269	0.359
Mof_C 	C 	0.3035	0.5364	0.1055	0.103
Mof_H 	H 	0.3339	0.5698	0.1607	0.037
Mof_C 	C 	0.2088	0.4335	0.9993	0.101
Mof_H 	H 	0.1554	0.3755	0.9647	0.025
Mof_C 	C 	0.4214	0.6673	0.0384	-0.053
Mof_H 	H 	0.4392	0.7458	0.0865	0.08
Mof_H 	H 	0.4075	0.738	0.9876	0.079
Mof_C 	C 	0.5053	0.5492	0.04	-0.088
Mof_H 	H 	0.5644	0.6187	0.0514	0.084
Mof_H 	H 	0.5125	0.4663	0.0859	0.087
Mof_N 	N 	0.2237	0.4475	0.08218	-0.151
Mof_N 	N 	0.2747	0.5073	0.9711	-0.087
Mof_N 	N 	0.3348	0.5723	0.0407	-0.082
Mof_O 	O 	0.01338	0.2526	0.03468	-0.265
Mof_O 	O 	0.0024	0.1806	0.15839	-0.25
Mof_O 	O 	0.7701	0.8973	0.79154	-0.28
Mof_O 	O 	0.66182	0.0966	0.79173	-0.277
Mof_Cd	Cd	0.3667	0.84931	0.3402	0.462
Mof_Br	Br	0.92583	0.37434	0.58091	-0.269
Mof_C 	C 	0.6253	0.5998	0.4575	-0.116
Mof_C 	C 	0.6549	0.5746	0.5426	0.08
Mof_H 	H 	0.6137	0.6054	0.5754	0.032
Mof_C 	C 	0.7437	0.5052	0.57993	-0.157
Mof_C 	C 	0.8027	0.4626	0.5303	0.198
Mof_C 	C 	0.7737	0.4813	0.4455	-0.182
Mof_H 	H 	0.814	0.4466	0.4124	0.117
Mof_C 	C 	0.6847	0.5515	0.4093	0.086
Mof_H 	H 	0.6642	0.5666	0.3511	0.027
Mof_C 	C 	0.5309	0.6834	0.4204	0.308
Mof_C 	C 	0.7744	0.4945	0.6731	0.36
Mof_C 	C 	0.1965	0.0364	0.3945	0.103
Mof_H 	H 	0.1661	0.0698	0.3393	0.037
Mof_C 	C 	0.2912	0.9335	0.5007	0.102
Mof_H 	H 	0.3446	0.8755	0.5353	0.025
Mof_C 	C 	0.0786	0.1673	0.4616	-0.054
Mof_H 	H 	0.0608	0.2458	0.4135	0.08
Mof_H 	H 	0.0925	0.238	0.5124	0.08
Mof_C 	C 	0.9947	0.0492	0.46	-0.089
Mof_H 	H 	0.9356	0.1187	0.4486	0.084
Mof_H 	H 	0.9875	0.9663	0.4141	0.088
Mof_N 	N 	0.2763	0.9475	0.41782	-0.152
Mof_N 	N 	0.2253	0.0073	0.5289	-0.087
Mof_N 	N 	0.1652	0.0723	0.4593	-0.082
Mof_O 	O 	0.48662	0.7526	0.46532	-0.269
Mof_O 	O 	0.4976	0.6806	0.34161	-0.254
Mof_O 	O 	0.7299	0.3973	0.70846	-0.28
Mof_O 	O 	0.83818	0.5966	0.70827	-0.278
Mof_Cd	Cd	0.8667	0.65069	0.8402	0.462
Mof_Br	Br	0.42583	0.12566	0.08091	-0.269
Mof_C 	C 	0.1253	0.9002	0.9575	-0.117
Mof_C 	C 	0.1549	0.9254	0.0426	0.083
Mof_H 	H 	0.1137	0.8946	0.0754	0.032
Mof_C 	C 	0.2437	0.9948	0.07993	-0.155
Mof_C 	C 	0.3027	0.0374	0.0303	0.197
Mof_C 	C 	0.2737	0.0187	0.9455	-0.18
Mof_H 	H 	0.314	0.0534	0.9124	0.116
Mof_C 	C 	0.1847	0.9485	0.9093	0.084
Mof_H 	H 	0.1642	0.9334	0.8511	0.027
Mof_C 	C 	0.0309	0.8166	0.9204	0.301
Mof_C 	C 	0.2744	0.0055	0.1731	0.359
Mof_C 	C 	0.6965	0.4636	0.8945	0.103
Mof_H 	H 	0.6661	0.4302	0.8393	0.037
Mof_C 	C 	0.7912	0.5665	0.0007	0.101
Mof_H 	H 	0.8446	0.6245	0.0353	0.025
Mof_C 	C 	0.5786	0.3327	0.9616	-0.053
Mof_H 	H 	0.5608	0.2542	0.9135	0.08
Mof_H 	H 	0.5925	0.262	0.0124	0.079
Mof_C 	C 	0.4947	0.4508	0.96	-0.088
Mof_H 	H 	0.4356	0.3813	0.9486	0.084
Mof_H 	H 	0.4875	0.5337	0.9141	0.087
Mof_N 	N 	0.7763	0.5525	0.91782	-0.151
Mof_N 	N 	0.7253	0.4927	0.0289	-0.087
Mof_N 	N 	0.6652	0.4277	0.9593	-0.082
Mof_O 	O 	0.98662	0.7474	0.96532	-0.265
Mof_O 	O 	0.9976	0.8194	0.84161	-0.25
Mof_O 	O 	0.2299	0.1027	0.20846	-0.28
Mof_O 	O 	0.33818	0.9034	0.20827	-0.277
Mof_Cd	Cd	0.6333	0.15069	0.6598	0.462
Mof_Br	Br	0.07417	0.62566	0.41909	-0.269
Mof_C 	C 	0.3747	0.4002	0.5425	-0.116
Mof_C 	C 	0.3451	0.4254	0.4574	0.08
Mof_H 	H 	0.3863	0.3946	0.4246	0.032
Mof_C 	C 	0.2563	0.4948	0.42007	-0.157
Mof_C 	C 	0.1973	0.5374	0.4697	0.198
Mof_C 	C 	0.2263	0.5187	0.5545	-0.182
Mof_H 	H 	0.186	0.5534	0.5876	0.117
Mof_C 	C 	0.3153	0.4485	0.5907	0.086
Mof_H 	H 	0.3358	0.4334	0.6489	0.027
Mof_C 	C 	0.4691	0.3166	0.5796	0.308
Mof_C 	C 	0.2256	0.5055	0.3269	0.36
Mof_C 	C 	0.8035	0.9636	0.6055	0.103
Mof_H 	H 	0.8339	0.9302	0.6607	0.037
Mof_C 	C 	0.7088	0.0665	0.4993	0.102
Mof_H 	H 	0.6554	0.1245	0.4647	0.025
Mof_C 	C 	0.9214	0.8327	0.5384	-0.054
Mof_H 	H 	0.9392	0.7542	0.5865	0.08
Mof_H 	H 	0.9075	0.762	0.4876	0.08
Mof_C 	C 	0.0053	0.9508	0.54	-0.089
Mof_H 	H 	0.0644	0.8813	0.5514	0.084
Mof_H 	H 	0.0125	0.0337	0.5859	0.088
Mof_N 	N 	0.7237	0.0525	0.58218	-0.152
Mof_N 	N 	0.7747	0.9927	0.4711	-0.087
Mof_N 	N 	0.8348	0.9277	0.5407	-0.082
Mof_O 	O 	0.51338	0.2474	0.53468	-0.269
Mof_O 	O 	0.5024	0.3194	0.65839	-0.254
Mof_O 	O 	0.2701	0.6027	0.29154	-0.28
Mof_O 	O 	0.16182	0.4034	0.29173	-0.278
_end
