data_functionalizedCrystal
_audit_creation_method	'EQeq! by Chris Wilmer'
_symmetry_space_group_name_H-M	'P1'
_symmetry_Int_Tables_number	1
_symmetry_cell_setting	triclinic
loop_
_symmetry_equiv_pos_as_xyz
  x,y,z
_cell_length_a	6.5539
_cell_length_b	16.439
_cell_length_c	13.1379
_cell_angle_alpha	90
_cell_angle_beta	90
_cell_angle_gamma	90.5441
loop_
_atom_site_label
_atom_site_type_symbol
_atom_site_fract_x
_atom_site_fract_y
_atom_site_fract_z
_atom_site_charge
Mof_O 	O 	0.1587	0.17412	0.853	-1.334
Mof_O 	O 	0.8187	0.65915	0.1658	-1.334
Mof_C 	C 	0.7969	0.0245	0.9505	-0.105
Mof_C 	C 	0.0037	0.0626	0.9458	-0.053
Mof_C 	C 	0.0014	0.1363	0.8668	1.044
Mof_C 	C 	0.1933	0.5401	0.0244	0.007
Mof_O 	O 	0.6587	0.67412	0.353	-1.304
Mof_O 	O 	0.3187	0.15915	0.6658	-1.248
Mof_C 	C 	0.2969	0.5245	0.4505	0.069
Mof_C 	C 	0.5037	0.5626	0.4458	-0.205
Mof_C 	C 	0.5014	0.6363	0.3668	0.909
Mof_C 	C 	0.6933	0.0401	0.5244	0.027
Mof_O 	O 	0.8413	0.32588	0.853	-1.27
Mof_O 	O 	0.1813	0.84085	0.1658	-1.158
Mof_C 	C 	0.2031	0.4755	0.9505	0.181
Mof_C 	C 	0.9963	0.4374	0.9458	-0.362
Mof_C 	C 	0.9986	0.3637	0.8668	0.768
Mof_C 	C 	0.8067	0.9599	0.0244	0.107
Mof_O 	O 	0.3413	0.82588	0.353	-1.307
Mof_O 	O 	0.6813	0.34085	0.6658	-1.251
Mof_C 	C 	0.7031	0.9755	0.4505	-0.004
Mof_C 	C 	0.4963	0.9374	0.4458	-0.209
Mof_C 	C 	0.4986	0.8637	0.3668	0.912
Mof_C 	C 	0.3067	0.4599	0.5244	0.093
Mof_O 	O 	0.8413	0.82588	0.147	-1.27
Mof_O 	O 	0.1813	0.34085	0.8342	-1.158
Mof_C 	C 	0.2031	0.9755	0.0495	0.178
Mof_C 	C 	0.9963	0.9374	0.0542	-0.36
Mof_C 	C 	0.9986	0.8637	0.1332	0.767
Mof_C 	C 	0.8067	0.4599	0.9756	0.11
Mof_O 	O 	0.3413	0.32588	0.647	-1.307
Mof_O 	O 	0.6813	0.84085	0.3342	-1.25
Mof_C 	C 	0.7031	0.4755	0.5495	0.001
Mof_C 	C 	0.4963	0.4374	0.5542	-0.21
Mof_C 	C 	0.4986	0.3637	0.6332	0.913
Mof_C 	C 	0.3067	0.9599	0.4756	0.088
Mof_O 	O 	0.1587	0.67412	0.147	-1.333
Mof_O 	O 	0.8187	0.15915	0.8342	-1.333
Mof_C 	C 	0.7969	0.5245	0.0495	-0.108
Mof_C 	C 	0.0037	0.5626	0.0542	-0.05
Mof_C 	C 	0.0014	0.6363	0.1332	1.044
Mof_C 	C 	0.1933	0.0401	0.9756	0.009
Mof_O 	O 	0.6587	0.17412	0.647	-1.304
Mof_O 	O 	0.3187	0.65915	0.3342	-1.248
Mof_C 	C 	0.2969	0.0245	0.5495	0.072
Mof_C 	C 	0.5037	0.0626	0.5542	-0.207
Mof_C 	C 	0.5014	0.1363	0.6332	0.91
Mof_C 	C 	0.6933	0.5401	0.4756	0.022
Mof_Al	Al	0.25	0.25	0.75	5.561
Mof_Al	Al	0.75	0.25	0.75	5.249
Mof_Al	Al	0.75	0.75	0.25	5.247
Mof_Al	Al	0.25	0.75	0.25	5.561
Mof_F 	F 	-2.40048e-19	0.25	0.6906	-1.854
Mof_F 	F 	0.5	0.75	0.1906	-1.93
Mof_F 	F 	-6.91256e-19	0.75	0.3094	-1.853
Mof_F 	F 	0.5	0.25	0.8094	-1.93
_end
