data_functionalizedCrystal
_audit_creation_method	'EQeq! by Chris Wilmer'
_symmetry_space_group_name_H-M	'P1'
_symmetry_Int_Tables_number	1
_symmetry_cell_setting	triclinic
loop_
_symmetry_equiv_pos_as_xyz
  x,y,z
_cell_length_a	32.7465
_cell_length_b	32.7465
_cell_length_c	32.7465
_cell_angle_alpha	109.471
_cell_angle_beta	109.471
_cell_angle_gamma	109.471
loop_
_atom_site_label
_atom_site_type_symbol
_atom_site_fract_x
_atom_site_fract_y
_atom_site_fract_z
_atom_site_charge
Mof_Cd	Cd	0.05278	0.14064	0.41337	0.352
Mof_Cd	Cd	0.22727	0.63941	0.08663	0.352
Mof_Cd	Cd	0.27273	0.35936	0.41214	0.352
Mof_Cd	Cd	0.44722	0.86059	0.08786	0.352
Mof_Cd	Cd	0.91214	0.27273	0.85936	0.351
Mof_Cd	Cd	0.58786	0.44722	0.36059	0.351
Mof_Cd	Cd	0.91337	0.05278	0.64064	0.351
Mof_Cd	Cd	0.58663	0.22727	0.13941	0.351
Mof_Cd	Cd	0.63941	0.58663	0.72727	0.351
Mof_Cd	Cd	0.14064	0.91337	0.55278	0.351
Mof_Cd	Cd	0.86059	0.58786	0.94722	0.351
Mof_Cd	Cd	0.35936	0.91214	0.77273	0.351
Mof_Cd	Cd	0.35936	0.44722	0.08663	0.351
Mof_Cd	Cd	0.86059	0.27273	0.41337	0.351
Mof_Cd	Cd	0.14064	0.22727	0.08786	0.351
Mof_Cd	Cd	0.63941	0.05278	0.41214	0.351
Mof_Cd	Cd	0.22727	0.58786	0.64064	0.351
Mof_Cd	Cd	0.05278	0.91214	0.13941	0.35
Mof_Cd	Cd	0.44722	0.58663	0.85936	0.351
Mof_Cd	Cd	0.27273	0.91337	0.36059	0.351
Mof_Cd	Cd	0.91337	0.86059	0.77273	0.351
Mof_Cd	Cd	0.58663	0.35936	0.94722	0.351
Mof_Cd	Cd	0.91214	0.63941	0.55278	0.351
Mof_Cd	Cd	0.58786	0.14064	0.72727	0.351
Mof_Cd	Cd	0.94722	0.85936	0.58663	0.351
Mof_Cd	Cd	0.77273	0.36059	0.91337	0.351
Mof_Cd	Cd	0.72727	0.64064	0.58786	0.351
Mof_Cd	Cd	0.55278	0.13941	0.91214	0.351
Mof_Cd	Cd	0.08786	0.72727	0.14064	0.351
Mof_Cd	Cd	0.41214	0.55278	0.63941	0.351
Mof_Cd	Cd	0.08663	0.94722	0.35936	0.351
Mof_Cd	Cd	0.41337	0.77273	0.86059	0.351
Mof_Cd	Cd	0.36059	0.41337	0.27273	0.351
Mof_Cd	Cd	0.85936	0.08663	0.44722	0.351
Mof_Cd	Cd	0.13941	0.41214	0.05278	0.351
Mof_Cd	Cd	0.64064	0.08786	0.22727	0.351
Mof_Cd	Cd	0.64064	0.55278	0.91337	0.351
Mof_Cd	Cd	0.13941	0.72727	0.58663	0.351
Mof_Cd	Cd	0.85936	0.77273	0.91214	0.351
Mof_Cd	Cd	0.36059	0.94722	0.58786	0.351
Mof_Cd	Cd	0.77273	0.41214	0.35936	0.351
Mof_Cd	Cd	0.94722	0.08786	0.86059	0.35
Mof_Cd	Cd	0.55278	0.41337	0.14064	0.351
Mof_Cd	Cd	0.72727	0.08663	0.63941	0.351
Mof_Cd	Cd	0.08663	0.13941	0.22727	0.351
Mof_Cd	Cd	0.41337	0.64064	0.05278	0.351
Mof_Cd	Cd	0.08786	0.36059	0.44722	0.351
Mof_Cd	Cd	0.41214	0.85936	0.27273	0.351
Mof_H 	H 	0.0173	0.2502	0.3709	0.251
Mof_H 	H 	0.0145	0.1983	0.3572	0.256
Mof_H 	H 	0.0572	0.2408	0.3596	0.25
Mof_H 	H 	0.1346	0.3304	0.5394	0.032
Mof_H 	H 	0.1426	0.0493	0.4697	0.029
Mof_H 	H 	0.0194	0.0384	0.3186	0.258
Mof_H 	H 	0.0019	0.9862	0.3157	0.261
Mof_H 	H 	0.0449	0.0073	0.3044	0.249
Mof_H 	H 	0.1428	0.2746	0.5704	0.038
Mof_H 	H 	0.163	0.1512	0.5286	0.046
Mof_H 	H 	0.3793	0.6464	0.1291	0.251
Mof_H 	H 	0.3411	0.6573	0.1428	0.256
Mof_H 	H 	0.3812	0.6976	0.1404	0.25
Mof_H 	H 	0.291	0.5952	0.9606	0.032
Mof_H 	H 	0.0796	0.6729	0.0303	0.029
Mof_H 	H 	0.2198	0.7008	0.1814	0.259
Mof_H 	H 	0.1705	0.6862	0.1843	0.263
Mof_H 	H 	0.2029	0.7405	0.1956	0.25
Mof_H 	H 	0.2042	0.5724	0.9296	0.038
Mof_H 	H 	0.1226	0.6344	0.9714	0.048
Mof_H 	H 	0.1207	0.2498	0.2671	0.251
Mof_H 	H 	0.1589	0.3017	0.3162	0.256
Mof_H 	H 	0.1188	0.2592	0.3164	0.25
Mof_H 	H 	0.209	0.1696	0.3042	0.032
Mof_H 	H 	0.4204	0.4507	0.5933	0.029
Mof_H 	H 	0.2802	0.4616	0.481	0.259
Mof_H 	H 	0.3295	0.5138	0.5157	0.263
Mof_H 	H 	0.2971	0.4927	0.5376	0.25
Mof_H 	H 	0.2958	0.2254	0.3682	0.038
Mof_H 	H 	0.3774	0.3488	0.5118	0.046
Mof_H 	H 	0.4827	0.8536	0.2329	0.251
Mof_H 	H 	0.4855	0.8427	0.1838	0.256
Mof_H 	H 	0.4428	0.8024	0.1836	0.25
Mof_H 	H 	0.3654	0.9048	0.1958	0.032
Mof_H 	H 	0.3574	0.8271	0.9067	0.029
Mof_H 	H 	0.4806	0.7992	0.019	0.258
Mof_H 	H 	0.4981	0.8138	0.9843	0.263
Mof_H 	H 	0.4551	0.7595	0.9624	0.25
Mof_H 	H 	0.3572	0.9276	0.1318	0.038
Mof_H 	H 	0.337	0.8656	0.9882	0.047
Mof_H 	H 	0.7671	0.1207	0.7498	0.251
Mof_H 	H 	0.8162	0.1589	0.8017	0.256
Mof_H 	H 	0.8164	0.1188	0.7592	0.25
Mof_H 	H 	0.8042	0.209	0.6696	0.032
Mof_H 	H 	0.0933	0.4204	0.9507	0.029
Mof_H 	H 	0.981	0.2802	0.9616	0.255
Mof_H 	H 	0.0157	0.3295	0.0138	0.26
Mof_H 	H 	0.0376	0.2971	0.9927	0.248
Mof_H 	H 	0.8682	0.2958	0.7254	0.038
Mof_H 	H 	0.0118	0.3774	0.8488	0.048
Mof_H 	H 	0.7329	0.4827	0.3536	0.251
Mof_H 	H 	0.6838	0.4855	0.3427	0.256
Mof_H 	H 	0.6836	0.4428	0.3024	0.25
Mof_H 	H 	0.6958	0.3654	0.4048	0.032
Mof_H 	H 	0.4067	0.3574	0.3271	0.029
Mof_H 	H 	0.519	0.4806	0.2992	0.259
Mof_H 	H 	0.4843	0.4981	0.3138	0.263
Mof_H 	H 	0.4624	0.4551	0.2595	0.25
Mof_H 	H 	0.6318	0.3572	0.4276	0.038
Mof_H 	H 	0.4882	0.337	0.3656	0.046
Mof_H 	H 	0.8709	0.0173	0.7502	0.251
Mof_H 	H 	0.8572	0.0145	0.6983	0.256
Mof_H 	H 	0.8596	0.0572	0.7408	0.25
Mof_H 	H 	0.0394	0.1346	0.8304	0.031
Mof_H 	H 	0.9697	0.1426	0.5493	0.029
Mof_H 	H 	0.8186	0.0194	0.5384	0.258
Mof_H 	H 	0.8157	0.0019	0.4862	0.263
Mof_H 	H 	0.8044	0.0449	0.5073	0.25
Mof_H 	H 	0.0704	0.1428	0.7746	0.038
Mof_H 	H 	0.0286	0.163	0.6512	0.047
Mof_H 	H 	0.6291	0.3793	0.1464	0.251
Mof_H 	H 	0.6428	0.3411	0.1573	0.256
Mof_H 	H 	0.6404	0.3812	0.1976	0.25
Mof_H 	H 	0.4606	0.291	0.0952	0.032
Mof_H 	H 	0.5303	0.0796	0.1729	0.029
Mof_H 	H 	0.6814	0.2198	0.2008	0.259
Mof_H 	H 	0.6843	0.1705	0.1862	0.263
Mof_H 	H 	0.6956	0.2029	0.2405	0.25
Mof_H 	H 	0.4296	0.2042	0.0724	0.038
Mof_H 	H 	0.4714	0.1226	0.1344	0.046
Mof_H 	H 	0.6464	0.6291	0.8793	0.251
Mof_H 	H 	0.6573	0.6428	0.8411	0.256
Mof_H 	H 	0.6976	0.6404	0.8812	0.25
Mof_H 	H 	0.5952	0.4606	0.791	0.032
Mof_H 	H 	0.6729	0.5303	0.5796	0.029
Mof_H 	H 	0.7008	0.6814	0.7198	0.259
Mof_H 	H 	0.6862	0.6843	0.6705	0.263
Mof_H 	H 	0.7405	0.6956	0.7029	0.25
Mof_H 	H 	0.5724	0.4296	0.7042	0.038
Mof_H 	H 	0.6344	0.4714	0.6226	0.046
Mof_H 	H 	0.2502	0.8709	0.5173	0.251
Mof_H 	H 	0.1983	0.8572	0.5145	0.256
Mof_H 	H 	0.2408	0.8596	0.5572	0.25
Mof_H 	H 	0.3304	0.0394	0.6346	0.032
Mof_H 	H 	0.0493	0.9697	0.6426	0.029
Mof_H 	H 	0.0384	0.8186	0.5194	0.259
Mof_H 	H 	0.9862	0.8157	0.5019	0.264
Mof_H 	H 	0.0073	0.8044	0.5449	0.251
Mof_H 	H 	0.2746	0.0704	0.6428	0.038
Mof_H 	H 	0.1512	0.0286	0.663	0.047
Mof_H 	H 	0.8536	0.7329	0.9827	0.251
Mof_H 	H 	0.8427	0.6838	0.9855	0.256
Mof_H 	H 	0.8024	0.6836	0.9428	0.25
Mof_H 	H 	0.9048	0.6958	0.8654	0.032
Mof_H 	H 	0.8271	0.4067	0.8574	0.029
Mof_H 	H 	0.7992	0.519	0.9806	0.258
Mof_H 	H 	0.8138	0.4843	0.9981	0.263
Mof_H 	H 	0.7595	0.4624	0.9551	0.25
Mof_H 	H 	0.9276	0.6318	0.8572	0.038
Mof_H 	H 	0.8656	0.4882	0.837	0.046
Mof_H 	H 	0.2498	0.7671	0.6207	0.251
Mof_H 	H 	0.3017	0.8162	0.6589	0.256
Mof_H 	H 	0.2592	0.8164	0.6188	0.25
Mof_H 	H 	0.1696	0.8042	0.709	0.032
Mof_H 	H 	0.4507	0.0933	0.9204	0.029
Mof_H 	H 	0.4616	0.981	0.7802	0.259
Mof_H 	H 	0.5138	0.0157	0.8295	0.263
Mof_H 	H 	0.4927	0.0376	0.7971	0.25
Mof_H 	H 	0.2254	0.8682	0.7958	0.038
Mof_H 	H 	0.3488	0.0118	0.8774	0.047
Mof_H 	H 	0.2498	0.4827	0.1291	0.251
Mof_H 	H 	0.3017	0.4855	0.1428	0.256
Mof_H 	H 	0.2592	0.4428	0.1404	0.25
Mof_H 	H 	0.1696	0.3654	0.9606	0.032
Mof_H 	H 	0.4507	0.3574	0.0303	0.029
Mof_H 	H 	0.4616	0.4806	0.1814	0.259
Mof_H 	H 	0.5138	0.4981	0.1843	0.263
Mof_H 	H 	0.4927	0.4551	0.1956	0.25
Mof_H 	H 	0.2254	0.3572	0.9296	0.038
Mof_H 	H 	0.3488	0.337	0.9714	0.047
Mof_H 	H 	0.8536	0.1207	0.3709	0.251
Mof_H 	H 	0.8427	0.1589	0.3572	0.256
Mof_H 	H 	0.8024	0.1188	0.3596	0.25
Mof_H 	H 	0.9048	0.209	0.5394	0.032
Mof_H 	H 	0.8271	0.4204	0.4697	0.029
Mof_H 	H 	0.7992	0.2802	0.3186	0.259
Mof_H 	H 	0.8138	0.3295	0.3157	0.263
Mof_H 	H 	0.7595	0.2971	0.3044	0.25
Mof_H 	H 	0.9276	0.2958	0.5704	0.038
Mof_H 	H 	0.8656	0.3774	0.5286	0.046
Mof_H 	H 	0.2502	0.3793	0.2329	0.251
Mof_H 	H 	0.1983	0.3411	0.1838	0.256
Mof_H 	H 	0.2408	0.3812	0.1836	0.25
Mof_H 	H 	0.3304	0.291	0.1958	0.032
Mof_H 	H 	0.0493	0.0796	0.9067	0.029
Mof_H 	H 	0.0384	0.2198	0.019	0.255
Mof_H 	H 	0.9862	0.1705	0.9843	0.259
Mof_H 	H 	0.0073	0.2029	0.9624	0.248
Mof_H 	H 	0.2746	0.2042	0.1318	0.038
Mof_H 	H 	0.1512	0.1226	0.9882	0.048
Mof_H 	H 	0.6464	0.0173	0.2671	0.251
Mof_H 	H 	0.6573	0.0145	0.3162	0.256
Mof_H 	H 	0.6976	0.0572	0.3164	0.25
Mof_H 	H 	0.5952	0.1346	0.3042	0.032
Mof_H 	H 	0.6729	0.1426	0.5933	0.029
Mof_H 	H 	0.7008	0.0194	0.481	0.259
Mof_H 	H 	0.6862	0.0019	0.5157	0.263
Mof_H 	H 	0.7405	0.0449	0.5376	0.25
Mof_H 	H 	0.5724	0.1428	0.3682	0.038
Mof_H 	H 	0.6344	0.163	0.5118	0.046
Mof_H 	H 	0.3793	0.7329	0.7502	0.251
Mof_H 	H 	0.3411	0.6838	0.6983	0.256
Mof_H 	H 	0.3812	0.6836	0.7408	0.25
Mof_H 	H 	0.291	0.6958	0.8304	0.032
Mof_H 	H 	0.0796	0.4067	0.5493	0.029
Mof_H 	H 	0.2198	0.519	0.5384	0.259
Mof_H 	H 	0.1705	0.4843	0.4862	0.263
Mof_H 	H 	0.2029	0.4624	0.5073	0.25
Mof_H 	H 	0.2042	0.6318	0.7746	0.038
Mof_H 	H 	0.1226	0.4882	0.6512	0.046
Mof_H 	H 	0.0173	0.7671	0.1464	0.251
Mof_H 	H 	0.0145	0.8162	0.1573	0.255
Mof_H 	H 	0.0572	0.8164	0.1976	0.25
Mof_H 	H 	0.1346	0.8042	0.0952	0.032
Mof_H 	H 	0.1426	0.0933	0.1729	0.029
Mof_H 	H 	0.0194	0.981	0.2008	0.257
Mof_H 	H 	0.0019	0.0157	0.1862	0.262
Mof_H 	H 	0.0449	0.0376	0.2405	0.249
Mof_H 	H 	0.1428	0.8682	0.0724	0.038
Mof_H 	H 	0.163	0.0118	0.1344	0.047
Mof_H 	H 	0.4827	0.6291	0.7498	0.251
Mof_H 	H 	0.4855	0.6428	0.8017	0.256
Mof_H 	H 	0.4428	0.6404	0.7592	0.25
Mof_H 	H 	0.3654	0.4606	0.6696	0.032
Mof_H 	H 	0.3574	0.5303	0.9507	0.029
Mof_H 	H 	0.4806	0.6814	0.9616	0.259
Mof_H 	H 	0.4981	0.6843	0.0138	0.263
Mof_H 	H 	0.4551	0.6956	0.9927	0.25
Mof_H 	H 	0.3572	0.4296	0.7254	0.038
Mof_H 	H 	0.337	0.4714	0.8488	0.046
Mof_H 	H 	0.1207	0.8709	0.3536	0.251
Mof_H 	H 	0.1589	0.8572	0.3427	0.256
Mof_H 	H 	0.1188	0.8596	0.3024	0.25
Mof_H 	H 	0.209	0.0394	0.4048	0.032
Mof_H 	H 	0.4204	0.9697	0.3271	0.029
Mof_H 	H 	0.2802	0.8186	0.2992	0.259
Mof_H 	H 	0.3295	0.8157	0.3138	0.263
Mof_H 	H 	0.2971	0.8044	0.2595	0.25
Mof_H 	H 	0.2958	0.0704	0.4276	0.038
Mof_H 	H 	0.3774	0.0286	0.3656	0.047
Mof_H 	H 	0.8709	0.8536	0.6207	0.251
Mof_H 	H 	0.8572	0.8427	0.6589	0.256
Mof_H 	H 	0.8596	0.8024	0.6188	0.25
Mof_H 	H 	0.0394	0.9048	0.709	0.032
Mof_H 	H 	0.9697	0.8271	0.9204	0.029
Mof_H 	H 	0.8186	0.7992	0.7802	0.259
Mof_H 	H 	0.8157	0.8138	0.8295	0.263
Mof_H 	H 	0.8044	0.7595	0.7971	0.25
Mof_H 	H 	0.0704	0.9276	0.7958	0.038
Mof_H 	H 	0.0286	0.8656	0.8774	0.047
Mof_H 	H 	0.6291	0.2498	0.9827	0.251
Mof_H 	H 	0.6428	0.3017	0.9855	0.256
Mof_H 	H 	0.6404	0.2592	0.9428	0.25
Mof_H 	H 	0.4606	0.1696	0.8654	0.032
Mof_H 	H 	0.5303	0.4507	0.8574	0.029
Mof_H 	H 	0.6814	0.4616	0.9806	0.258
Mof_H 	H 	0.6843	0.5138	0.9981	0.263
Mof_H 	H 	0.6956	0.4927	0.9551	0.25
Mof_H 	H 	0.4296	0.2254	0.8572	0.038
Mof_H 	H 	0.4714	0.3488	0.837	0.046
Mof_H 	H 	0.7671	0.6464	0.5173	0.251
Mof_H 	H 	0.8162	0.6573	0.5145	0.256
Mof_H 	H 	0.8164	0.6976	0.5572	0.25
Mof_H 	H 	0.8042	0.5952	0.6346	0.032
Mof_H 	H 	0.0933	0.6729	0.6426	0.029
Mof_H 	H 	0.981	0.7008	0.5194	0.259
Mof_H 	H 	0.0157	0.6862	0.5019	0.263
Mof_H 	H 	0.0376	0.7405	0.5449	0.251
Mof_H 	H 	0.8682	0.5724	0.6428	0.038
Mof_H 	H 	0.0118	0.6344	0.663	0.047
Mof_H 	H 	0.7329	0.2502	0.8793	0.251
Mof_H 	H 	0.6838	0.1983	0.8411	0.256
Mof_H 	H 	0.6836	0.2408	0.8812	0.25
Mof_H 	H 	0.6958	0.3304	0.791	0.032
Mof_H 	H 	0.4067	0.0493	0.5796	0.029
Mof_H 	H 	0.519	0.0384	0.7198	0.259
Mof_H 	H 	0.4843	0.9862	0.6705	0.263
Mof_H 	H 	0.4624	0.0073	0.7029	0.25
Mof_H 	H 	0.6318	0.2746	0.7042	0.038
Mof_H 	H 	0.4882	0.1512	0.6226	0.046
Mof_H 	H 	0.9827	0.7498	0.6291	0.251
Mof_H 	H 	0.9855	0.8017	0.6428	0.256
Mof_H 	H 	0.9428	0.7592	0.6404	0.25
Mof_H 	H 	0.8654	0.6696	0.4606	0.032
Mof_H 	H 	0.8574	0.9507	0.5303	0.029
Mof_H 	H 	0.9806	0.9616	0.6814	0.258
Mof_H 	H 	0.9981	0.0138	0.6843	0.261
Mof_H 	H 	0.9551	0.9927	0.6956	0.249
Mof_H 	H 	0.8572	0.7254	0.4296	0.038
Mof_H 	H 	0.837	0.8488	0.4714	0.046
Mof_H 	H 	0.6207	0.3536	0.8709	0.251
Mof_H 	H 	0.6589	0.3427	0.8572	0.256
Mof_H 	H 	0.6188	0.3024	0.8596	0.25
Mof_H 	H 	0.709	0.4048	0.0394	0.032
Mof_H 	H 	0.9204	0.3271	0.9697	0.029
Mof_H 	H 	0.7802	0.2992	0.8186	0.259
Mof_H 	H 	0.8295	0.3138	0.8157	0.263
Mof_H 	H 	0.7971	0.2595	0.8044	0.25
Mof_H 	H 	0.7958	0.4276	0.0704	0.038
Mof_H 	H 	0.8774	0.3656	0.0286	0.048
Mof_H 	H 	0.8793	0.7502	0.7329	0.251
Mof_H 	H 	0.8411	0.6983	0.6838	0.256
Mof_H 	H 	0.8812	0.7408	0.6836	0.25
Mof_H 	H 	0.791	0.8304	0.6958	0.032
Mof_H 	H 	0.5796	0.5493	0.4067	0.029
Mof_H 	H 	0.7198	0.5384	0.519	0.259
Mof_H 	H 	0.6705	0.4862	0.4843	0.263
Mof_H 	H 	0.7029	0.5073	0.4624	0.25
Mof_H 	H 	0.7042	0.7746	0.6318	0.038
Mof_H 	H 	0.6226	0.6512	0.4882	0.046
Mof_H 	H 	0.5173	0.1464	0.7671	0.251
Mof_H 	H 	0.5145	0.1573	0.8162	0.256
Mof_H 	H 	0.5572	0.1976	0.8164	0.25
Mof_H 	H 	0.6346	0.0952	0.8042	0.032
Mof_H 	H 	0.6426	0.1729	0.0933	0.029
Mof_H 	H 	0.5194	0.2008	0.981	0.258
Mof_H 	H 	0.5019	0.1862	0.0157	0.263
Mof_H 	H 	0.5449	0.2405	0.0376	0.25
Mof_H 	H 	0.6428	0.0724	0.8682	0.038
Mof_H 	H 	0.663	0.1344	0.0118	0.047
Mof_H 	H 	0.2329	0.8793	0.2502	0.251
Mof_H 	H 	0.1838	0.8411	0.1983	0.256
Mof_H 	H 	0.1836	0.8812	0.2408	0.25
Mof_H 	H 	0.1958	0.791	0.3304	0.032
Mof_H 	H 	0.9067	0.5796	0.0493	0.029
Mof_H 	H 	0.019	0.7198	0.0384	0.255
Mof_H 	H 	0.9843	0.6705	0.9862	0.26
Mof_H 	H 	0.9624	0.7029	0.0073	0.248
Mof_H 	H 	0.1318	0.7042	0.2746	0.038
Mof_H 	H 	0.9882	0.6226	0.1512	0.048
Mof_H 	H 	0.2671	0.5173	0.6464	0.251
Mof_H 	H 	0.3162	0.5145	0.6573	0.256
Mof_H 	H 	0.3164	0.5572	0.6976	0.25
Mof_H 	H 	0.3042	0.6346	0.5952	0.032
Mof_H 	H 	0.5933	0.6426	0.6729	0.029
Mof_H 	H 	0.481	0.5194	0.7008	0.259
Mof_H 	H 	0.5157	0.5019	0.6862	0.263
Mof_H 	H 	0.5376	0.5449	0.7405	0.25
Mof_H 	H 	0.3682	0.6428	0.5724	0.038
Mof_H 	H 	0.5118	0.663	0.6344	0.046
Mof_H 	H 	0.1291	0.9827	0.2498	0.251
Mof_H 	H 	0.1428	0.9855	0.3017	0.256
Mof_H 	H 	0.1404	0.9428	0.2592	0.25
Mof_H 	H 	0.9606	0.8654	0.1696	0.031
Mof_H 	H 	0.0303	0.8574	0.4507	0.029
Mof_H 	H 	0.1814	0.9806	0.4616	0.258
Mof_H 	H 	0.1843	0.9981	0.5138	0.263
Mof_H 	H 	0.1956	0.9551	0.4927	0.25
Mof_H 	H 	0.9296	0.8572	0.2254	0.038
Mof_H 	H 	0.9714	0.837	0.3488	0.047
Mof_H 	H 	0.3709	0.6207	0.8536	0.251
Mof_H 	H 	0.3572	0.6589	0.8427	0.256
Mof_H 	H 	0.3596	0.6188	0.8024	0.25
Mof_H 	H 	0.5394	0.709	0.9048	0.032
Mof_H 	H 	0.4697	0.9204	0.8271	0.029
Mof_H 	H 	0.3186	0.7802	0.7992	0.259
Mof_H 	H 	0.3157	0.8295	0.8138	0.263
Mof_H 	H 	0.3044	0.7971	0.7595	0.25
Mof_H 	H 	0.5704	0.7958	0.9276	0.038
Mof_H 	H 	0.5286	0.8774	0.8656	0.046
Mof_H 	H 	0.3536	0.3709	0.1207	0.251
Mof_H 	H 	0.3427	0.3572	0.1589	0.256
Mof_H 	H 	0.3024	0.3596	0.1188	0.25
Mof_H 	H 	0.4048	0.5394	0.209	0.032
Mof_H 	H 	0.3271	0.4697	0.4204	0.029
Mof_H 	H 	0.2992	0.3186	0.2802	0.259
Mof_H 	H 	0.3138	0.3157	0.3295	0.263
Mof_H 	H 	0.2595	0.3044	0.2971	0.25
Mof_H 	H 	0.4276	0.5704	0.2958	0.038
Mof_H 	H 	0.3656	0.5286	0.3774	0.046
Mof_H 	H 	0.7498	0.1291	0.4827	0.251
Mof_H 	H 	0.8017	0.1428	0.4855	0.256
Mof_H 	H 	0.7592	0.1404	0.4428	0.25
Mof_H 	H 	0.6696	0.9606	0.3654	0.032
Mof_H 	H 	0.9507	0.0303	0.3574	0.029
Mof_H 	H 	0.9616	0.1814	0.4806	0.259
Mof_H 	H 	0.0138	0.1843	0.4981	0.264
Mof_H 	H 	0.9927	0.1956	0.4551	0.251
Mof_H 	H 	0.7254	0.9296	0.3572	0.038
Mof_H 	H 	0.8488	0.9714	0.337	0.047
Mof_H 	H 	0.1464	0.2671	0.0173	0.251
Mof_H 	H 	0.1573	0.3162	0.0145	0.256
Mof_H 	H 	0.1976	0.3164	0.0572	0.25
Mof_H 	H 	0.0952	0.3042	0.1346	0.032
Mof_H 	H 	0.1729	0.5933	0.1426	0.029
Mof_H 	H 	0.2008	0.481	0.0194	0.258
Mof_H 	H 	0.1862	0.5157	0.0019	0.263
Mof_H 	H 	0.2405	0.5376	0.0449	0.25
Mof_H 	H 	0.0724	0.3682	0.1428	0.038
Mof_H 	H 	0.1344	0.5118	0.163	0.046
Mof_H 	H 	0.7502	0.2329	0.3793	0.251
Mof_H 	H 	0.6983	0.1838	0.3411	0.256
Mof_H 	H 	0.7408	0.1836	0.3812	0.25
Mof_H 	H 	0.8304	0.1958	0.291	0.032
Mof_H 	H 	0.5493	0.9067	0.0796	0.029
Mof_H 	H 	0.5384	0.019	0.2198	0.259
Mof_H 	H 	0.4862	0.9843	0.1705	0.263
Mof_H 	H 	0.5073	0.9624	0.2029	0.25
Mof_H 	H 	0.7746	0.1318	0.2042	0.038
Mof_H 	H 	0.6512	0.9882	0.1226	0.047
Mof_H 	H 	0.7502	0.5173	0.8709	0.251
Mof_H 	H 	0.6983	0.5145	0.8572	0.256
Mof_H 	H 	0.7408	0.5572	0.8596	0.25
Mof_H 	H 	0.8304	0.6346	0.0394	0.032
Mof_H 	H 	0.5493	0.6426	0.9697	0.029
Mof_H 	H 	0.5384	0.5194	0.8186	0.259
Mof_H 	H 	0.4862	0.5019	0.8157	0.263
Mof_H 	H 	0.5073	0.5449	0.8044	0.25
Mof_H 	H 	0.7746	0.6428	0.0704	0.038
Mof_H 	H 	0.6512	0.663	0.0286	0.047
Mof_H 	H 	0.1464	0.8793	0.6291	0.251
Mof_H 	H 	0.1573	0.8411	0.6428	0.256
Mof_H 	H 	0.1976	0.8812	0.6404	0.25
Mof_H 	H 	0.0952	0.791	0.4606	0.032
Mof_H 	H 	0.1729	0.5796	0.5303	0.029
Mof_H 	H 	0.2008	0.7198	0.6814	0.259
Mof_H 	H 	0.1862	0.6705	0.6843	0.263
Mof_H 	H 	0.2405	0.7029	0.6956	0.25
Mof_H 	H 	0.0724	0.7042	0.4296	0.038
Mof_H 	H 	0.1344	0.6226	0.4714	0.046
Mof_H 	H 	0.7498	0.6207	0.7671	0.251
Mof_H 	H 	0.8017	0.6589	0.8162	0.256
Mof_H 	H 	0.7592	0.6188	0.8164	0.25
Mof_H 	H 	0.6696	0.709	0.8042	0.032
Mof_H 	H 	0.9507	0.9204	0.0933	0.029
Mof_H 	H 	0.9616	0.7802	0.981	0.255
Mof_H 	H 	0.0138	0.8295	0.0157	0.259
Mof_H 	H 	0.9927	0.7971	0.0376	0.248
Mof_H 	H 	0.7254	0.7958	0.8682	0.038
Mof_H 	H 	0.8488	0.8774	0.0118	0.048
Mof_H 	H 	0.3536	0.9827	0.7329	0.251
Mof_H 	H 	0.3427	0.9855	0.6838	0.256
Mof_H 	H 	0.3024	0.9428	0.6836	0.25
Mof_H 	H 	0.4048	0.8654	0.6958	0.032
Mof_H 	H 	0.3271	0.8574	0.4067	0.029
Mof_H 	H 	0.2992	0.9806	0.519	0.259
Mof_H 	H 	0.3138	0.9981	0.4843	0.263
Mof_H 	H 	0.2595	0.9551	0.4624	0.25
Mof_H 	H 	0.4276	0.8572	0.6318	0.038
Mof_H 	H 	0.3656	0.837	0.4882	0.046
Mof_H 	H 	0.6207	0.2671	0.2498	0.251
Mof_H 	H 	0.6589	0.3162	0.3017	0.256
Mof_H 	H 	0.6188	0.3164	0.2592	0.25
Mof_H 	H 	0.709	0.3042	0.1696	0.032
Mof_H 	H 	0.9204	0.5933	0.4507	0.029
Mof_H 	H 	0.7802	0.481	0.4616	0.259
Mof_H 	H 	0.8295	0.5157	0.5138	0.263
Mof_H 	H 	0.7971	0.5376	0.4927	0.25
Mof_H 	H 	0.7958	0.3682	0.2254	0.038
Mof_H 	H 	0.8774	0.5118	0.3488	0.046
Mof_H 	H 	0.9827	0.2329	0.8536	0.251
Mof_H 	H 	0.9855	0.1838	0.8427	0.255
Mof_H 	H 	0.9428	0.1836	0.8024	0.25
Mof_H 	H 	0.8654	0.1958	0.9048	0.032
Mof_H 	H 	0.8574	0.9067	0.8271	0.029
Mof_H 	H 	0.9806	0.019	0.7992	0.257
Mof_H 	H 	0.9981	0.9843	0.8138	0.262
Mof_H 	H 	0.9551	0.9624	0.7595	0.249
Mof_H 	H 	0.8572	0.1318	0.9276	0.038
Mof_H 	H 	0.837	0.9882	0.8656	0.047
Mof_H 	H 	0.5173	0.3709	0.2502	0.251
Mof_H 	H 	0.5145	0.3572	0.1983	0.256
Mof_H 	H 	0.5572	0.3596	0.2408	0.25
Mof_H 	H 	0.6346	0.5394	0.3304	0.032
Mof_H 	H 	0.6426	0.4697	0.0493	0.029
Mof_H 	H 	0.5194	0.3186	0.0384	0.259
Mof_H 	H 	0.5019	0.3157	0.9862	0.263
Mof_H 	H 	0.5449	0.3044	0.0073	0.25
Mof_H 	H 	0.6428	0.5704	0.2746	0.038
Mof_H 	H 	0.663	0.5286	0.1512	0.046
Mof_H 	H 	0.8793	0.1291	0.6464	0.251
Mof_H 	H 	0.8411	0.1428	0.6573	0.256
Mof_H 	H 	0.8812	0.1404	0.6976	0.25
Mof_H 	H 	0.791	0.9606	0.5952	0.032
Mof_H 	H 	0.5796	0.0303	0.6729	0.029
Mof_H 	H 	0.7198	0.1814	0.7008	0.259
Mof_H 	H 	0.6705	0.1843	0.6862	0.263
Mof_H 	H 	0.7029	0.1956	0.7405	0.25
Mof_H 	H 	0.7042	0.9296	0.5724	0.038
Mof_H 	H 	0.6226	0.9714	0.6344	0.047
Mof_H 	H 	0.1291	0.1464	0.3793	0.251
Mof_H 	H 	0.1428	0.1573	0.3411	0.256
Mof_H 	H 	0.1404	0.1976	0.3812	0.25
Mof_H 	H 	0.9606	0.0952	0.291	0.032
Mof_H 	H 	0.0303	0.1729	0.0796	0.029
Mof_H 	H 	0.1814	0.2008	0.2198	0.259
Mof_H 	H 	0.1843	0.1862	0.1705	0.263
Mof_H 	H 	0.1956	0.2405	0.2029	0.25
Mof_H 	H 	0.9296	0.0724	0.2042	0.038
Mof_H 	H 	0.9714	0.1344	0.1226	0.047
Mof_H 	H 	0.3709	0.7502	0.0173	0.251
Mof_H 	H 	0.3572	0.6983	0.0145	0.256
Mof_H 	H 	0.3596	0.7408	0.0572	0.25
Mof_H 	H 	0.5394	0.8304	0.1346	0.032
Mof_H 	H 	0.4697	0.5493	0.1426	0.029
Mof_H 	H 	0.3186	0.5384	0.0194	0.258
Mof_H 	H 	0.3157	0.4862	0.0019	0.263
Mof_H 	H 	0.3044	0.5073	0.0449	0.25
Mof_H 	H 	0.5704	0.7746	0.1428	0.038
Mof_H 	H 	0.5286	0.6512	0.163	0.046
Mof_H 	H 	0.2329	0.3536	0.4827	0.251
Mof_H 	H 	0.1838	0.3427	0.4855	0.256
Mof_H 	H 	0.1836	0.3024	0.4428	0.25
Mof_H 	H 	0.1958	0.4048	0.3654	0.032
Mof_H 	H 	0.9067	0.3271	0.3574	0.029
Mof_H 	H 	0.019	0.2992	0.4806	0.259
Mof_H 	H 	0.9843	0.3138	0.4981	0.263
Mof_H 	H 	0.9624	0.2595	0.4551	0.251
Mof_H 	H 	0.1318	0.4276	0.3572	0.038
Mof_H 	H 	0.9882	0.3656	0.337	0.047
Mof_H 	H 	0.2671	0.7498	0.1207	0.251
Mof_H 	H 	0.3162	0.8017	0.1589	0.256
Mof_H 	H 	0.3164	0.7592	0.1188	0.25
Mof_H 	H 	0.3042	0.6696	0.209	0.032
Mof_H 	H 	0.5933	0.9507	0.4204	0.029
Mof_H 	H 	0.481	0.9616	0.2802	0.259
Mof_H 	H 	0.5157	0.0138	0.3295	0.263
Mof_H 	H 	0.5376	0.9927	0.2971	0.25
Mof_H 	H 	0.3682	0.7254	0.2958	0.038
Mof_H 	H 	0.5118	0.8488	0.3774	0.046
Mof_C 	C 	0.06907	0.25235	0.4283	0.273
Mof_C 	C 	0.03662	0.23373	0.37415	-0.788
Mof_C 	C 	0.11579	0.30203	0.50786	-0.052
Mof_C 	C 	0.11023	0.25605	0.4974	0.043
Mof_C 	C 	0.11234	0.09276	0.4569	0.048
Mof_C 	C 	0.12069	0.05284	0.44633	-0.022
Mof_C 	C 	0.06795	0.0409	0.37847	0.294
Mof_C 	C 	0.03015	0.01593	0.32448	-0.797
Mof_C 	C 	0.134	0.2495	0.5397	-0.031
Mof_C 	C 	0.1361	0.1415	0.4988	-0.025
Mof_C 	C 	0.32405	0.64077	0.0717	0.273
Mof_C 	C 	0.35958	0.66247	0.12585	-0.788
Mof_C 	C 	0.29417	0.60793	0.99214	-0.05
Mof_C 	C 	0.25865	0.61283	0.0026	0.041
Mof_C 	C 	0.13586	0.65544	0.0431	0.048
Mof_C 	C 	0.10651	0.67436	0.05367	-0.022
Mof_C 	C 	0.16243	0.68948	0.12153	0.295
Mof_C 	C 	0.19145	0.70567	0.17552	-0.801
Mof_C 	C 	0.2098	0.5943	0.9603	-0.03
Mof_C 	C 	0.1427	0.6373	0.0012	-0.027
Mof_C 	C 	0.17595	0.24765	0.31672	0.273
Mof_C 	C 	0.14042	0.26627	0.30289	-0.788
Mof_C 	C 	0.20583	0.19797	0.31376	-0.052
Mof_C 	C 	0.24135	0.24395	0.35418	0.043
Mof_C 	C 	0.36414	0.40724	0.51958	0.048
Mof_C 	C 	0.39349	0.44716	0.56785	-0.022
Mof_C 	C 	0.33757	0.4591	0.52705	0.295
Mof_C 	C 	0.30855	0.48407	0.51422	-0.801
Mof_C 	C 	0.2902	0.2505	0.3845	-0.031
Mof_C 	C 	0.3573	0.3585	0.4946	-0.025
Mof_C 	C 	0.43093	0.85923	0.18328	0.273
Mof_C 	C 	0.46338	0.83753	0.19711	-0.788
Mof_C 	C 	0.38421	0.89207	0.18624	-0.052
Mof_C 	C 	0.38977	0.88717	0.14582	0.043
Mof_C 	C 	0.38766	0.84456	0.98042	0.049
Mof_C 	C 	0.37931	0.82564	0.93215	-0.022
Mof_C 	C 	0.43205	0.81052	0.97295	0.295
Mof_C 	C 	0.46985	0.79433	0.98578	-0.801
Mof_C 	C 	0.366	0.9057	0.1155	-0.031
Mof_C 	C 	0.3639	0.8627	0.0054	-0.027
Mof_C 	C 	0.81672	0.17595	0.74765	0.273
Mof_C 	C 	0.80289	0.14042	0.76627	-0.788
Mof_C 	C 	0.81376	0.20583	0.69797	-0.052
Mof_C 	C 	0.85418	0.24135	0.74395	0.042
Mof_C 	C 	0.01958	0.36414	0.90724	0.051
Mof_C 	C 	0.06785	0.39349	0.94716	-0.023
Mof_C 	C 	0.02705	0.33757	0.9591	0.294
Mof_C 	C 	0.01422	0.30855	0.98407	-0.791
Mof_C 	C 	0.8845	0.2902	0.7505	-0.031
Mof_C 	C 	0.9946	0.3573	0.8585	-0.029
Mof_C 	C 	0.68328	0.43093	0.35923	0.273
Mof_C 	C 	0.69711	0.46338	0.33753	-0.788
Mof_C 	C 	0.68624	0.38421	0.39207	-0.052
Mof_C 	C 	0.64582	0.38977	0.38717	0.043
Mof_C 	C 	0.48042	0.38766	0.34456	0.048
Mof_C 	C 	0.43215	0.37931	0.32564	-0.022
Mof_C 	C 	0.47295	0.43205	0.31052	0.295
Mof_C 	C 	0.48578	0.46985	0.29433	-0.801
Mof_C 	C 	0.6155	0.366	0.4057	-0.031
Mof_C 	C 	0.5054	0.3639	0.3627	-0.025
Mof_C 	C 	0.9283	0.06907	0.75235	0.273
Mof_C 	C 	0.87415	0.03662	0.73373	-0.787
Mof_C 	C 	0.00786	0.11579	0.80203	-0.048
Mof_C 	C 	0.9974	0.11023	0.75605	0.039
Mof_C 	C 	0.9569	0.11234	0.59276	0.048
Mof_C 	C 	0.94633	0.12069	0.55284	-0.022
Mof_C 	C 	0.87847	0.06795	0.5409	0.295
Mof_C 	C 	0.82448	0.03015	0.51593	-0.801
Mof_C 	C 	0.0397	0.134	0.7495	-0.028
Mof_C 	C 	0.9988	0.1361	0.6415	-0.027
Mof_C 	C 	0.5717	0.32405	0.14077	0.273
Mof_C 	C 	0.62585	0.35958	0.16247	-0.788
Mof_C 	C 	0.49214	0.29417	0.10793	-0.052
Mof_C 	C 	0.5026	0.25865	0.11283	0.043
Mof_C 	C 	0.5431	0.13586	0.15544	0.048
Mof_C 	C 	0.55367	0.10651	0.17436	-0.022
Mof_C 	C 	0.62153	0.16243	0.18948	0.295
Mof_C 	C 	0.67552	0.19145	0.20567	-0.801
Mof_C 	C 	0.4603	0.2098	0.0943	-0.031
Mof_C 	C 	0.5012	0.1427	0.1373	-0.025
Mof_C 	C 	0.64077	0.5717	0.82405	0.273
Mof_C 	C 	0.66247	0.62585	0.85958	-0.788
Mof_C 	C 	0.60793	0.49214	0.79417	-0.052
Mof_C 	C 	0.61283	0.5026	0.75865	0.043
Mof_C 	C 	0.65544	0.5431	0.63586	0.048
Mof_C 	C 	0.67436	0.55367	0.60651	-0.022
Mof_C 	C 	0.68948	0.62153	0.66243	0.295
Mof_C 	C 	0.70567	0.67552	0.69145	-0.801
Mof_C 	C 	0.5943	0.4603	0.7098	-0.031
Mof_C 	C 	0.6373	0.5012	0.6427	-0.025
Mof_C 	C 	0.25235	0.9283	0.56907	0.273
Mof_C 	C 	0.23373	0.87415	0.53662	-0.788
Mof_C 	C 	0.30203	0.00786	0.61579	-0.051
Mof_C 	C 	0.25605	0.9974	0.61023	0.042
Mof_C 	C 	0.09276	0.9569	0.61234	0.048
Mof_C 	C 	0.05284	0.94633	0.62069	-0.022
Mof_C 	C 	0.0409	0.87847	0.56795	0.295
Mof_C 	C 	0.01593	0.82448	0.53015	-0.803
Mof_C 	C 	0.2495	0.0397	0.634	-0.03
Mof_C 	C 	0.1415	0.9988	0.6361	-0.026
Mof_C 	C 	0.85923	0.68328	0.93093	0.272
Mof_C 	C 	0.83753	0.69711	0.96338	-0.787
Mof_C 	C 	0.89207	0.68624	0.88421	-0.052
Mof_C 	C 	0.88717	0.64582	0.88977	0.043
Mof_C 	C 	0.84456	0.48042	0.88766	0.048
Mof_C 	C 	0.82564	0.43215	0.87931	-0.022
Mof_C 	C 	0.81052	0.47295	0.93205	0.295
Mof_C 	C 	0.79433	0.48578	0.96985	-0.8
Mof_C 	C 	0.9057	0.6155	0.866	-0.031
Mof_C 	C 	0.8627	0.5054	0.8639	-0.025
Mof_C 	C 	0.24765	0.81672	0.67595	0.273
Mof_C 	C 	0.26627	0.80289	0.64042	-0.788
Mof_C 	C 	0.19797	0.81376	0.70583	-0.052
Mof_C 	C 	0.24395	0.85418	0.74135	0.043
Mof_C 	C 	0.40724	0.01958	0.86414	0.048
Mof_C 	C 	0.44716	0.06785	0.89349	-0.022
Mof_C 	C 	0.4591	0.02705	0.83757	0.295
Mof_C 	C 	0.48407	0.01422	0.80855	-0.801
Mof_C 	C 	0.2505	0.8845	0.7902	-0.031
Mof_C 	C 	0.3585	0.9946	0.8573	-0.025
Mof_C 	C 	0.24765	0.43093	0.0717	0.273
Mof_C 	C 	0.26627	0.46338	0.12585	-0.788
Mof_C 	C 	0.19797	0.38421	0.99214	-0.05
Mof_C 	C 	0.24395	0.38977	0.0026	0.041
Mof_C 	C 	0.40724	0.38766	0.0431	0.048
Mof_C 	C 	0.44716	0.37931	0.05367	-0.022
Mof_C 	C 	0.4591	0.43205	0.12153	0.295
Mof_C 	C 	0.48407	0.46985	0.17552	-0.801
Mof_C 	C 	0.2505	0.366	0.9603	-0.03
Mof_C 	C 	0.3585	0.3639	0.0012	-0.026
Mof_C 	C 	0.85923	0.17595	0.4283	0.273
Mof_C 	C 	0.83753	0.14042	0.37415	-0.788
Mof_C 	C 	0.89207	0.20583	0.50786	-0.052
Mof_C 	C 	0.88717	0.24135	0.4974	0.042
Mof_C 	C 	0.84456	0.36414	0.4569	0.048
Mof_C 	C 	0.82564	0.39349	0.44633	-0.022
Mof_C 	C 	0.81052	0.33757	0.37847	0.295
Mof_C 	C 	0.79433	0.30855	0.32448	-0.801
Mof_C 	C 	0.9057	0.2902	0.5397	-0.031
Mof_C 	C 	0.8627	0.3573	0.4988	-0.025
Mof_C 	C 	0.25235	0.32405	0.18328	0.273
Mof_C 	C 	0.23373	0.35958	0.19711	-0.788
Mof_C 	C 	0.30203	0.29417	0.18624	-0.052
Mof_C 	C 	0.25605	0.25865	0.14582	0.043
Mof_C 	C 	0.09276	0.13586	0.98042	0.05
Mof_C 	C 	0.05284	0.10651	0.93215	-0.023
Mof_C 	C 	0.0409	0.16243	0.97295	0.293
Mof_C 	C 	0.01593	0.19145	0.98578	-0.79
Mof_C 	C 	0.2495	0.2098	0.1155	-0.031
Mof_C 	C 	0.1415	0.1427	0.0054	-0.028
Mof_C 	C 	0.64077	0.06907	0.31672	0.273
Mof_C 	C 	0.66247	0.03662	0.30289	-0.787
Mof_C 	C 	0.60793	0.11579	0.31376	-0.052
Mof_C 	C 	0.61283	0.11023	0.35418	0.043
Mof_C 	C 	0.65544	0.11234	0.51958	0.048
Mof_C 	C 	0.67436	0.12069	0.56785	-0.022
Mof_C 	C 	0.68948	0.06795	0.52705	0.295
Mof_C 	C 	0.70567	0.03015	0.51422	-0.801
Mof_C 	C 	0.5943	0.134	0.3845	-0.031
Mof_C 	C 	0.6373	0.1361	0.4946	-0.025
Mof_C 	C 	0.32405	0.68328	0.75235	0.273
Mof_C 	C 	0.35958	0.69711	0.73373	-0.788
Mof_C 	C 	0.29417	0.68624	0.80203	-0.052
Mof_C 	C 	0.25865	0.64582	0.75605	0.043
Mof_C 	C 	0.13586	0.48042	0.59276	0.048
Mof_C 	C 	0.10651	0.43215	0.55284	-0.022
Mof_C 	C 	0.16243	0.47295	0.5409	0.295
Mof_C 	C 	0.19145	0.48578	0.51593	-0.801
Mof_C 	C 	0.2098	0.6155	0.7495	-0.031
Mof_C 	C 	0.1427	0.5054	0.6415	-0.025
Mof_C 	C 	0.06907	0.81672	0.14077	0.272
Mof_C 	C 	0.03662	0.80289	0.16247	-0.787
Mof_C 	C 	0.11579	0.81376	0.10793	-0.052
Mof_C 	C 	0.11023	0.85418	0.11283	0.042
Mof_C 	C 	0.11234	0.01958	0.15544	0.049
Mof_C 	C 	0.12069	0.06785	0.17436	-0.023
Mof_C 	C 	0.06795	0.02705	0.18948	0.295
Mof_C 	C 	0.03015	0.01422	0.20567	-0.797
Mof_C 	C 	0.134	0.8845	0.0943	-0.031
Mof_C 	C 	0.1361	0.9946	0.1373	-0.027
Mof_C 	C 	0.43093	0.5717	0.74765	0.273
Mof_C 	C 	0.46338	0.62585	0.76627	-0.788
Mof_C 	C 	0.38421	0.49214	0.69797	-0.052
Mof_C 	C 	0.38977	0.5026	0.74395	0.043
Mof_C 	C 	0.38766	0.5431	0.90724	0.048
Mof_C 	C 	0.37931	0.55367	0.94716	-0.022
Mof_C 	C 	0.43205	0.62153	0.9591	0.295
Mof_C 	C 	0.46985	0.67552	0.98407	-0.801
Mof_C 	C 	0.366	0.4603	0.7505	-0.031
Mof_C 	C 	0.3639	0.5012	0.8585	-0.025
Mof_C 	C 	0.17595	0.9283	0.35923	0.273
Mof_C 	C 	0.14042	0.87415	0.33753	-0.787
Mof_C 	C 	0.20583	0.00786	0.39207	-0.05
Mof_C 	C 	0.24135	0.9974	0.38717	0.041
Mof_C 	C 	0.36414	0.9569	0.34456	0.048
Mof_C 	C 	0.39349	0.94633	0.32564	-0.022
Mof_C 	C 	0.33757	0.87847	0.31052	0.295
Mof_C 	C 	0.30855	0.82448	0.29433	-0.801
Mof_C 	C 	0.2902	0.0397	0.4057	-0.03
Mof_C 	C 	0.3573	0.9988	0.3627	-0.026
Mof_C 	C 	0.9283	0.85923	0.67595	0.273
Mof_C 	C 	0.87415	0.83753	0.64042	-0.788
Mof_C 	C 	0.00786	0.89207	0.70583	-0.052
Mof_C 	C 	0.9974	0.88717	0.74135	0.043
Mof_C 	C 	0.9569	0.84456	0.86414	0.048
Mof_C 	C 	0.94633	0.82564	0.89349	-0.022
Mof_C 	C 	0.87847	0.81052	0.83757	0.295
Mof_C 	C 	0.82448	0.79433	0.80855	-0.801
Mof_C 	C 	0.0397	0.9057	0.7902	-0.031
Mof_C 	C 	0.9988	0.8627	0.8573	-0.026
Mof_C 	C 	0.5717	0.24765	0.93093	0.272
Mof_C 	C 	0.62585	0.26627	0.96338	-0.787
Mof_C 	C 	0.49214	0.19797	0.88421	-0.052
Mof_C 	C 	0.5026	0.24395	0.88977	0.043
Mof_C 	C 	0.5431	0.40724	0.88766	0.048
Mof_C 	C 	0.55367	0.44716	0.87931	-0.022
Mof_C 	C 	0.62153	0.4591	0.93205	0.295
Mof_C 	C 	0.67552	0.48407	0.96985	-0.801
Mof_C 	C 	0.4603	0.2505	0.866	-0.031
Mof_C 	C 	0.5012	0.3585	0.8639	-0.025
Mof_C 	C 	0.81672	0.64077	0.56907	0.273
Mof_C 	C 	0.80289	0.66247	0.53662	-0.788
Mof_C 	C 	0.81376	0.60793	0.61579	-0.052
Mof_C 	C 	0.85418	0.61283	0.61023	0.043
Mof_C 	C 	0.01958	0.65544	0.61234	0.048
Mof_C 	C 	0.06785	0.67436	0.62069	-0.022
Mof_C 	C 	0.02705	0.68948	0.56795	0.295
Mof_C 	C 	0.01422	0.70567	0.53015	-0.802
Mof_C 	C 	0.8845	0.5943	0.634	-0.031
Mof_C 	C 	0.9946	0.6373	0.6361	-0.026
Mof_C 	C 	0.68328	0.25235	0.82405	0.273
Mof_C 	C 	0.69711	0.23373	0.85958	-0.787
Mof_C 	C 	0.68624	0.30203	0.79417	-0.052
Mof_C 	C 	0.64582	0.25605	0.75865	0.043
Mof_C 	C 	0.48042	0.09276	0.63586	0.048
Mof_C 	C 	0.43215	0.05284	0.60651	-0.022
Mof_C 	C 	0.47295	0.0409	0.66243	0.295
Mof_C 	C 	0.48578	0.01593	0.69145	-0.801
Mof_C 	C 	0.6155	0.2495	0.7098	-0.031
Mof_C 	C 	0.5054	0.1415	0.6427	-0.025
Mof_C 	C 	0.93093	0.74765	0.5717	0.273
Mof_C 	C 	0.96338	0.76627	0.62585	-0.788
Mof_C 	C 	0.88421	0.69797	0.49214	-0.052
Mof_C 	C 	0.88977	0.74395	0.5026	0.043
Mof_C 	C 	0.88766	0.90724	0.5431	0.048
Mof_C 	C 	0.87931	0.94716	0.55367	-0.022
Mof_C 	C 	0.93205	0.9591	0.62153	0.294
Mof_C 	C 	0.96985	0.98407	0.67552	-0.797
Mof_C 	C 	0.866	0.7505	0.4603	-0.031
Mof_C 	C 	0.8639	0.8585	0.5012	-0.025
Mof_C 	C 	0.67595	0.35923	0.9283	0.273
Mof_C 	C 	0.64042	0.33753	0.87415	-0.788
Mof_C 	C 	0.70583	0.39207	0.00786	-0.05
Mof_C 	C 	0.74135	0.38717	0.9974	0.041
Mof_C 	C 	0.86414	0.34456	0.9569	0.048
Mof_C 	C 	0.89349	0.32564	0.94633	-0.022
Mof_C 	C 	0.83757	0.31052	0.87847	0.295
Mof_C 	C 	0.80855	0.29433	0.82448	-0.801
Mof_C 	C 	0.7902	0.4057	0.0397	-0.03
Mof_C 	C 	0.8573	0.3627	0.9988	-0.027
Mof_C 	C 	0.82405	0.75235	0.68328	0.273
Mof_C 	C 	0.85958	0.73373	0.69711	-0.788
Mof_C 	C 	0.79417	0.80203	0.68624	-0.052
Mof_C 	C 	0.75865	0.75605	0.64582	0.043
Mof_C 	C 	0.63586	0.59276	0.48042	0.048
Mof_C 	C 	0.60651	0.55284	0.43215	-0.022
Mof_C 	C 	0.66243	0.5409	0.47295	0.295
Mof_C 	C 	0.69145	0.51593	0.48578	-0.801
Mof_C 	C 	0.7098	0.7495	0.6155	-0.031
Mof_C 	C 	0.6427	0.6415	0.5054	-0.025
Mof_C 	C 	0.56907	0.14077	0.81672	0.273
Mof_C 	C 	0.53662	0.16247	0.80289	-0.788
Mof_C 	C 	0.61579	0.10793	0.81376	-0.052
Mof_C 	C 	0.61023	0.11283	0.85418	0.043
Mof_C 	C 	0.61234	0.15544	0.01958	0.049
Mof_C 	C 	0.62069	0.17436	0.06785	-0.022
Mof_C 	C 	0.56795	0.18948	0.02705	0.295
Mof_C 	C 	0.53015	0.20567	0.01422	-0.801
Mof_C 	C 	0.634	0.0943	0.8845	-0.031
Mof_C 	C 	0.6361	0.1373	0.9946	-0.027
Mof_C 	C 	0.18328	0.82405	0.25235	0.273
Mof_C 	C 	0.19711	0.85958	0.23373	-0.788
Mof_C 	C 	0.18624	0.79417	0.30203	-0.052
Mof_C 	C 	0.14582	0.75865	0.25605	0.042
Mof_C 	C 	0.98042	0.63586	0.09276	0.051
Mof_C 	C 	0.93215	0.60651	0.05284	-0.023
Mof_C 	C 	0.97295	0.66243	0.0409	0.294
Mof_C 	C 	0.98578	0.69145	0.01593	-0.791
Mof_C 	C 	0.1155	0.7098	0.2495	-0.031
Mof_C 	C 	0.0054	0.6427	0.1415	-0.029
Mof_C 	C 	0.31672	0.56907	0.64077	0.273
Mof_C 	C 	0.30289	0.53662	0.66247	-0.788
Mof_C 	C 	0.31376	0.61579	0.60793	-0.052
Mof_C 	C 	0.35418	0.61023	0.61283	0.043
Mof_C 	C 	0.51958	0.61234	0.65544	0.048
Mof_C 	C 	0.56785	0.62069	0.67436	-0.022
Mof_C 	C 	0.52705	0.56795	0.68948	0.295
Mof_C 	C 	0.51422	0.53015	0.70567	-0.801
Mof_C 	C 	0.3845	0.634	0.5943	-0.031
Mof_C 	C 	0.4946	0.6361	0.6373	-0.025
Mof_C 	C 	0.0717	0.93093	0.24765	0.273
Mof_C 	C 	0.12585	0.96338	0.26627	-0.787
Mof_C 	C 	0.99214	0.88421	0.19797	-0.048
Mof_C 	C 	0.0026	0.88977	0.24395	0.039
Mof_C 	C 	0.0431	0.88766	0.40724	0.048
Mof_C 	C 	0.05367	0.87931	0.44716	-0.022
Mof_C 	C 	0.12153	0.93205	0.4591	0.295
Mof_C 	C 	0.17552	0.96985	0.48407	-0.801
Mof_C 	C 	0.9603	0.866	0.2505	-0.028
Mof_C 	C 	0.0012	0.8639	0.3585	-0.027
Mof_C 	C 	0.4283	0.67595	0.85923	0.273
Mof_C 	C 	0.37415	0.64042	0.83753	-0.788
Mof_C 	C 	0.50786	0.70583	0.89207	-0.052
Mof_C 	C 	0.4974	0.74135	0.88717	0.043
Mof_C 	C 	0.4569	0.86414	0.84456	0.048
Mof_C 	C 	0.44633	0.89349	0.82564	-0.022
Mof_C 	C 	0.37847	0.83757	0.81052	0.295
Mof_C 	C 	0.32448	0.80855	0.79433	-0.801
Mof_C 	C 	0.5397	0.7902	0.9057	-0.031
Mof_C 	C 	0.4988	0.8573	0.8627	-0.025
Mof_C 	C 	0.35923	0.4283	0.17595	0.273
Mof_C 	C 	0.33753	0.37415	0.14042	-0.788
Mof_C 	C 	0.39207	0.50786	0.20583	-0.052
Mof_C 	C 	0.38717	0.4974	0.24135	0.043
Mof_C 	C 	0.34456	0.4569	0.36414	0.048
Mof_C 	C 	0.32564	0.44633	0.39349	-0.022
Mof_C 	C 	0.31052	0.37847	0.33757	0.295
Mof_C 	C 	0.29433	0.32448	0.30855	-0.801
Mof_C 	C 	0.4057	0.5397	0.2902	-0.031
Mof_C 	C 	0.3627	0.4988	0.3573	-0.025
Mof_C 	C 	0.74765	0.0717	0.43093	0.273
Mof_C 	C 	0.76627	0.12585	0.46338	-0.788
Mof_C 	C 	0.69797	0.99214	0.38421	-0.051
Mof_C 	C 	0.74395	0.0026	0.38977	0.042
Mof_C 	C 	0.90724	0.0431	0.38766	0.048
Mof_C 	C 	0.94716	0.05367	0.37931	-0.022
Mof_C 	C 	0.9591	0.12153	0.43205	0.295
Mof_C 	C 	0.98407	0.17552	0.46985	-0.803
Mof_C 	C 	0.7505	0.9603	0.366	-0.03
Mof_C 	C 	0.8585	0.0012	0.3639	-0.026
Mof_C 	C 	0.14077	0.31672	0.06907	0.272
Mof_C 	C 	0.16247	0.30289	0.03662	-0.787
Mof_C 	C 	0.10793	0.31376	0.11579	-0.052
Mof_C 	C 	0.11283	0.35418	0.11023	0.043
Mof_C 	C 	0.15544	0.51958	0.11234	0.048
Mof_C 	C 	0.17436	0.56785	0.12069	-0.022
Mof_C 	C 	0.18948	0.52705	0.06795	0.295
Mof_C 	C 	0.20567	0.51422	0.03015	-0.8
Mof_C 	C 	0.0943	0.3845	0.134	-0.031
Mof_C 	C 	0.1373	0.4946	0.1361	-0.025
Mof_C 	C 	0.75235	0.18328	0.32405	0.273
Mof_C 	C 	0.73373	0.19711	0.35958	-0.788
Mof_C 	C 	0.80203	0.18624	0.29417	-0.052
Mof_C 	C 	0.75605	0.14582	0.25865	0.043
Mof_C 	C 	0.59276	0.98042	0.13586	0.048
Mof_C 	C 	0.55284	0.93215	0.10651	-0.022
Mof_C 	C 	0.5409	0.97295	0.16243	0.295
Mof_C 	C 	0.51593	0.98578	0.19145	-0.801
Mof_C 	C 	0.7495	0.1155	0.2098	-0.031
Mof_C 	C 	0.6415	0.0054	0.1427	-0.025
Mof_C 	C 	0.75235	0.56907	0.9283	0.273
Mof_C 	C 	0.73373	0.53662	0.87415	-0.788
Mof_C 	C 	0.80203	0.61579	0.00786	-0.05
Mof_C 	C 	0.75605	0.61023	0.9974	0.041
Mof_C 	C 	0.59276	0.61234	0.9569	0.048
Mof_C 	C 	0.55284	0.62069	0.94633	-0.022
Mof_C 	C 	0.5409	0.56795	0.87847	0.295
Mof_C 	C 	0.51593	0.53015	0.82448	-0.801
Mof_C 	C 	0.7495	0.634	0.0397	-0.03
Mof_C 	C 	0.6415	0.6361	0.9988	-0.026
Mof_C 	C 	0.14077	0.82405	0.5717	0.273
Mof_C 	C 	0.16247	0.85958	0.62585	-0.788
Mof_C 	C 	0.10793	0.79417	0.49214	-0.052
Mof_C 	C 	0.11283	0.75865	0.5026	0.042
Mof_C 	C 	0.15544	0.63586	0.5431	0.048
Mof_C 	C 	0.17436	0.60651	0.55367	-0.022
Mof_C 	C 	0.18948	0.66243	0.62153	0.295
Mof_C 	C 	0.20567	0.69145	0.67552	-0.801
Mof_C 	C 	0.0943	0.7098	0.4603	-0.031
Mof_C 	C 	0.1373	0.6427	0.5012	-0.025
Mof_C 	C 	0.74765	0.67595	0.81672	0.273
Mof_C 	C 	0.76627	0.64042	0.80289	-0.788
Mof_C 	C 	0.69797	0.70583	0.81376	-0.052
Mof_C 	C 	0.74395	0.74135	0.85418	0.043
Mof_C 	C 	0.90724	0.86414	0.01958	0.05
Mof_C 	C 	0.94716	0.89349	0.06785	-0.023
Mof_C 	C 	0.9591	0.83757	0.02705	0.293
Mof_C 	C 	0.98407	0.80855	0.01422	-0.79
Mof_C 	C 	0.7505	0.7902	0.8845	-0.031
Mof_C 	C 	0.8585	0.8573	0.9946	-0.028
Mof_C 	C 	0.35923	0.93093	0.68328	0.273
Mof_C 	C 	0.33753	0.96338	0.69711	-0.787
Mof_C 	C 	0.39207	0.88421	0.68624	-0.052
Mof_C 	C 	0.38717	0.88977	0.64582	0.043
Mof_C 	C 	0.34456	0.88766	0.48042	0.048
Mof_C 	C 	0.32564	0.87931	0.43215	-0.022
Mof_C 	C 	0.31052	0.93205	0.47295	0.295
Mof_C 	C 	0.29433	0.96985	0.48578	-0.801
Mof_C 	C 	0.4057	0.866	0.6155	-0.031
Mof_C 	C 	0.3627	0.8639	0.5054	-0.025
Mof_C 	C 	0.67595	0.31672	0.24765	0.273
Mof_C 	C 	0.64042	0.30289	0.26627	-0.788
Mof_C 	C 	0.70583	0.31376	0.19797	-0.052
Mof_C 	C 	0.74135	0.35418	0.24395	0.043
Mof_C 	C 	0.86414	0.51958	0.40724	0.048
Mof_C 	C 	0.89349	0.56785	0.44716	-0.022
Mof_C 	C 	0.83757	0.52705	0.4591	0.295
Mof_C 	C 	0.80855	0.51422	0.48407	-0.801
Mof_C 	C 	0.7902	0.3845	0.2505	-0.031
Mof_C 	C 	0.8573	0.4946	0.3585	-0.025
Mof_C 	C 	0.93093	0.18328	0.85923	0.272
Mof_C 	C 	0.96338	0.19711	0.83753	-0.787
Mof_C 	C 	0.88421	0.18624	0.89207	-0.052
Mof_C 	C 	0.88977	0.14582	0.88717	0.042
Mof_C 	C 	0.88766	0.98042	0.84456	0.049
Mof_C 	C 	0.87931	0.93215	0.82564	-0.023
Mof_C 	C 	0.93205	0.97295	0.81052	0.295
Mof_C 	C 	0.96985	0.98578	0.79433	-0.797
Mof_C 	C 	0.866	0.1155	0.9057	-0.031
Mof_C 	C 	0.8639	0.0054	0.8627	-0.027
Mof_C 	C 	0.56907	0.4283	0.25235	0.273
Mof_C 	C 	0.53662	0.37415	0.23373	-0.788
Mof_C 	C 	0.61579	0.50786	0.30203	-0.052
Mof_C 	C 	0.61023	0.4974	0.25605	0.043
Mof_C 	C 	0.61234	0.4569	0.09276	0.048
Mof_C 	C 	0.62069	0.44633	0.05284	-0.022
Mof_C 	C 	0.56795	0.37847	0.0409	0.295
Mof_C 	C 	0.53015	0.32448	0.01593	-0.801
Mof_C 	C 	0.634	0.5397	0.2495	-0.031
Mof_C 	C 	0.6361	0.4988	0.1415	-0.025
Mof_C 	C 	0.82405	0.0717	0.64077	0.273
Mof_C 	C 	0.85958	0.12585	0.66247	-0.787
Mof_C 	C 	0.79417	0.99214	0.60793	-0.05
Mof_C 	C 	0.75865	0.0026	0.61283	0.041
Mof_C 	C 	0.63586	0.0431	0.65544	0.048
Mof_C 	C 	0.60651	0.05367	0.67436	-0.022
Mof_C 	C 	0.66243	0.12153	0.68948	0.295
Mof_C 	C 	0.69145	0.17552	0.70567	-0.801
Mof_C 	C 	0.7098	0.9603	0.5943	-0.03
Mof_C 	C 	0.6427	0.0012	0.6373	-0.026
Mof_C 	C 	0.0717	0.14077	0.32405	0.273
Mof_C 	C 	0.12585	0.16247	0.35958	-0.788
Mof_C 	C 	0.99214	0.10793	0.29417	-0.052
Mof_C 	C 	0.0026	0.11283	0.25865	0.043
Mof_C 	C 	0.0431	0.15544	0.13586	0.048
Mof_C 	C 	0.05367	0.17436	0.10651	-0.022
Mof_C 	C 	0.12153	0.18948	0.16243	0.295
Mof_C 	C 	0.17552	0.20567	0.19145	-0.801
Mof_C 	C 	0.9603	0.0943	0.2098	-0.031
Mof_C 	C 	0.0012	0.1373	0.1427	-0.026
Mof_C 	C 	0.4283	0.75235	0.06907	0.272
Mof_C 	C 	0.37415	0.73373	0.03662	-0.787
Mof_C 	C 	0.50786	0.80203	0.11579	-0.052
Mof_C 	C 	0.4974	0.75605	0.11023	0.043
Mof_C 	C 	0.4569	0.59276	0.11234	0.048
Mof_C 	C 	0.44633	0.55284	0.12069	-0.022
Mof_C 	C 	0.37847	0.5409	0.06795	0.295
Mof_C 	C 	0.32448	0.51593	0.03015	-0.801
Mof_C 	C 	0.5397	0.7495	0.134	-0.031
Mof_C 	C 	0.4988	0.6415	0.1361	-0.025
Mof_C 	C 	0.18328	0.35923	0.43093	0.273
Mof_C 	C 	0.19711	0.33753	0.46338	-0.788
Mof_C 	C 	0.18624	0.39207	0.38421	-0.052
Mof_C 	C 	0.14582	0.38717	0.38977	0.043
Mof_C 	C 	0.98042	0.34456	0.38766	0.048
Mof_C 	C 	0.93215	0.32564	0.37931	-0.022
Mof_C 	C 	0.97295	0.31052	0.43205	0.295
Mof_C 	C 	0.98578	0.29433	0.46985	-0.802
Mof_C 	C 	0.1155	0.4057	0.366	-0.031
Mof_C 	C 	0.0054	0.3627	0.3639	-0.026
Mof_C 	C 	0.31672	0.74765	0.17595	0.273
Mof_C 	C 	0.30289	0.76627	0.14042	-0.787
Mof_C 	C 	0.31376	0.69797	0.20583	-0.052
Mof_C 	C 	0.35418	0.74395	0.24135	0.043
Mof_C 	C 	0.51958	0.90724	0.36414	0.048
Mof_C 	C 	0.56785	0.94716	0.39349	-0.022
Mof_C 	C 	0.52705	0.9591	0.33757	0.295
Mof_C 	C 	0.51422	0.98407	0.30855	-0.801
Mof_C 	C 	0.3845	0.7505	0.2902	-0.031
Mof_C 	C 	0.4946	0.8585	0.3573	-0.025
Mof_N 	N 	0.0805	0.22375	0.44605	-0.199
Mof_N 	N 	0.08922	0.29944	0.46432	-0.194
Mof_N 	N 	0.07881	0.08473	0.41282	-0.199
Mof_N 	N 	0.09253	0.02036	0.39769	-0.191
Mof_N 	N 	0.1452	0.2156	0.5426	-0.084
Mof_N 	N 	0.1203	0.1723	0.4958	-0.098
Mof_N 	N 	0.2777	0.63445	0.05395	-0.199
Mof_N 	N 	0.33512	0.6249	0.03568	-0.194
Mof_N 	N 	0.17191	0.66599	0.08718	-0.199
Mof_N 	N 	0.12267	0.69484	0.10231	-0.191
Mof_N 	N 	0.173	0.6026	0.9574	-0.083
Mof_N 	N 	0.1765	0.6245	0.0042	-0.098
Mof_N 	N 	0.2223	0.27625	0.35675	-0.199
Mof_N 	N 	0.16488	0.20056	0.28978	-0.194
Mof_N 	N 	0.32809	0.41527	0.49408	-0.199
Mof_N 	N 	0.37733	0.47964	0.57217	-0.191
Mof_N 	N 	0.327	0.2844	0.4296	-0.084
Mof_N 	N 	0.3235	0.3277	0.448	-0.098
Mof_N 	N 	0.4195	0.86555	0.14325	-0.199
Mof_N 	N 	0.41078	0.8751	0.21022	-0.194
Mof_N 	N 	0.42119	0.83401	0.00592	-0.2
Mof_N 	N 	0.40747	0.80516	0.92783	-0.191
Mof_N 	N 	0.3548	0.8974	0.0704	-0.084
Mof_N 	N 	0.3797	0.8755	0.052	-0.098
Mof_N 	N 	0.85675	0.2223	0.77625	-0.199
Mof_N 	N 	0.78978	0.16488	0.70056	-0.194
Mof_N 	N 	0.99408	0.32809	0.91527	-0.2
Mof_N 	N 	0.07217	0.37733	0.97964	-0.19
Mof_N 	N 	0.9296	0.327	0.7844	-0.084
Mof_N 	N 	0.948	0.3235	0.8277	-0.097
Mof_N 	N 	0.64325	0.4195	0.36555	-0.199
Mof_N 	N 	0.71022	0.41078	0.3751	-0.194
Mof_N 	N 	0.50592	0.42119	0.33401	-0.199
Mof_N 	N 	0.42783	0.40747	0.30516	-0.191
Mof_N 	N 	0.5704	0.3548	0.3974	-0.084
Mof_N 	N 	0.552	0.3797	0.3755	-0.098
Mof_N 	N 	0.94605	0.0805	0.72375	-0.199
Mof_N 	N 	0.96432	0.08922	0.79944	-0.195
Mof_N 	N 	0.91282	0.07881	0.58473	-0.199
Mof_N 	N 	0.89769	0.09253	0.52036	-0.191
Mof_N 	N 	0.0426	0.1452	0.7156	-0.084
Mof_N 	N 	0.9958	0.1203	0.6723	-0.098
Mof_N 	N 	0.55395	0.2777	0.13445	-0.199
Mof_N 	N 	0.53568	0.33512	0.1249	-0.194
Mof_N 	N 	0.58718	0.17191	0.16599	-0.199
Mof_N 	N 	0.60231	0.12267	0.19484	-0.191
Mof_N 	N 	0.4574	0.173	0.1026	-0.084
Mof_N 	N 	0.5042	0.1765	0.1245	-0.098
Mof_N 	N 	0.63445	0.55395	0.7777	-0.199
Mof_N 	N 	0.6249	0.53568	0.83512	-0.194
Mof_N 	N 	0.66599	0.58718	0.67191	-0.199
Mof_N 	N 	0.69484	0.60231	0.62267	-0.191
Mof_N 	N 	0.6026	0.4574	0.673	-0.084
Mof_N 	N 	0.6245	0.5042	0.6765	-0.098
Mof_N 	N 	0.22375	0.94605	0.5805	-0.199
Mof_N 	N 	0.29944	0.96432	0.58922	-0.194
Mof_N 	N 	0.08473	0.91282	0.57881	-0.199
Mof_N 	N 	0.02036	0.89769	0.59253	-0.191
Mof_N 	N 	0.2156	0.0426	0.6452	-0.084
Mof_N 	N 	0.1723	0.9958	0.6203	-0.098
Mof_N 	N 	0.86555	0.64325	0.9195	-0.199
Mof_N 	N 	0.8751	0.71022	0.91078	-0.194
Mof_N 	N 	0.83401	0.50592	0.92119	-0.199
Mof_N 	N 	0.80516	0.42783	0.90747	-0.191
Mof_N 	N 	0.8974	0.5704	0.8548	-0.084
Mof_N 	N 	0.8755	0.552	0.8797	-0.098
Mof_N 	N 	0.27625	0.85675	0.7223	-0.199
Mof_N 	N 	0.20056	0.78978	0.66488	-0.194
Mof_N 	N 	0.41527	0.99408	0.82809	-0.199
Mof_N 	N 	0.47964	0.07217	0.87733	-0.191
Mof_N 	N 	0.2844	0.9296	0.827	-0.084
Mof_N 	N 	0.3277	0.948	0.8235	-0.098
Mof_N 	N 	0.27625	0.4195	0.05395	-0.199
Mof_N 	N 	0.20056	0.41078	0.03568	-0.195
Mof_N 	N 	0.41527	0.42119	0.08718	-0.199
Mof_N 	N 	0.47964	0.40747	0.10231	-0.191
Mof_N 	N 	0.2844	0.3548	0.9574	-0.084
Mof_N 	N 	0.3277	0.3797	0.0042	-0.098
Mof_N 	N 	0.86555	0.2223	0.44605	-0.199
Mof_N 	N 	0.8751	0.16488	0.46432	-0.194
Mof_N 	N 	0.83401	0.32809	0.41282	-0.199
Mof_N 	N 	0.80516	0.37733	0.39769	-0.191
Mof_N 	N 	0.8974	0.327	0.5426	-0.084
Mof_N 	N 	0.8755	0.3235	0.4958	-0.098
Mof_N 	N 	0.22375	0.2777	0.14325	-0.199
Mof_N 	N 	0.29944	0.33512	0.21022	-0.194
Mof_N 	N 	0.08473	0.17191	0.00592	-0.2
Mof_N 	N 	0.02036	0.12267	0.92783	-0.19
Mof_N 	N 	0.2156	0.173	0.0704	-0.084
Mof_N 	N 	0.1723	0.1765	0.052	-0.097
Mof_N 	N 	0.63445	0.0805	0.35675	-0.199
Mof_N 	N 	0.6249	0.08922	0.28978	-0.194
Mof_N 	N 	0.66599	0.07881	0.49408	-0.199
Mof_N 	N 	0.69484	0.09253	0.57217	-0.191
Mof_N 	N 	0.6026	0.1452	0.4296	-0.084
Mof_N 	N 	0.6245	0.1203	0.448	-0.098
Mof_N 	N 	0.2777	0.64325	0.72375	-0.199
Mof_N 	N 	0.33512	0.71022	0.79944	-0.194
Mof_N 	N 	0.17191	0.50592	0.58473	-0.199
Mof_N 	N 	0.12267	0.42783	0.52036	-0.191
Mof_N 	N 	0.173	0.5704	0.7156	-0.084
Mof_N 	N 	0.1765	0.552	0.6723	-0.098
Mof_N 	N 	0.0805	0.85675	0.13445	-0.199
Mof_N 	N 	0.08922	0.78978	0.1249	-0.194
Mof_N 	N 	0.07881	0.99408	0.16599	-0.2
Mof_N 	N 	0.09253	0.07217	0.19484	-0.191
Mof_N 	N 	0.1452	0.9296	0.1026	-0.084
Mof_N 	N 	0.1203	0.948	0.1245	-0.098
Mof_N 	N 	0.4195	0.55395	0.77625	-0.199
Mof_N 	N 	0.41078	0.53568	0.70056	-0.194
Mof_N 	N 	0.42119	0.58718	0.91527	-0.199
Mof_N 	N 	0.40747	0.60231	0.97964	-0.191
Mof_N 	N 	0.3548	0.4574	0.7844	-0.084
Mof_N 	N 	0.3797	0.5042	0.8277	-0.098
Mof_N 	N 	0.2223	0.94605	0.36555	-0.199
Mof_N 	N 	0.16488	0.96432	0.3751	-0.194
Mof_N 	N 	0.32809	0.91282	0.33401	-0.199
Mof_N 	N 	0.37733	0.89769	0.30516	-0.191
Mof_N 	N 	0.327	0.0426	0.3974	-0.084
Mof_N 	N 	0.3235	0.9958	0.3755	-0.098
Mof_N 	N 	0.94605	0.86555	0.7223	-0.199
Mof_N 	N 	0.96432	0.8751	0.66488	-0.194
Mof_N 	N 	0.91282	0.83401	0.82809	-0.199
Mof_N 	N 	0.89769	0.80516	0.87733	-0.191
Mof_N 	N 	0.0426	0.8974	0.827	-0.084
Mof_N 	N 	0.9958	0.8755	0.8235	-0.098
Mof_N 	N 	0.55395	0.27625	0.9195	-0.199
Mof_N 	N 	0.53568	0.20056	0.91078	-0.194
Mof_N 	N 	0.58718	0.41527	0.92119	-0.199
Mof_N 	N 	0.60231	0.47964	0.90747	-0.191
Mof_N 	N 	0.4574	0.2844	0.8548	-0.084
Mof_N 	N 	0.5042	0.3277	0.8797	-0.098
Mof_N 	N 	0.85675	0.63445	0.5805	-0.199
Mof_N 	N 	0.78978	0.6249	0.58922	-0.194
Mof_N 	N 	0.99408	0.66599	0.57881	-0.199
Mof_N 	N 	0.07217	0.69484	0.59253	-0.191
Mof_N 	N 	0.9296	0.6026	0.6452	-0.084
Mof_N 	N 	0.948	0.6245	0.6203	-0.098
Mof_N 	N 	0.64325	0.22375	0.7777	-0.199
Mof_N 	N 	0.71022	0.29944	0.83512	-0.194
Mof_N 	N 	0.50592	0.08473	0.67191	-0.199
Mof_N 	N 	0.42783	0.02036	0.62267	-0.191
Mof_N 	N 	0.5704	0.2156	0.673	-0.084
Mof_N 	N 	0.552	0.1723	0.6765	-0.098
Mof_N 	N 	0.9195	0.77625	0.55395	-0.199
Mof_N 	N 	0.91078	0.70056	0.53568	-0.194
Mof_N 	N 	0.92119	0.91527	0.58718	-0.199
Mof_N 	N 	0.90747	0.97964	0.60231	-0.191
Mof_N 	N 	0.8548	0.7844	0.4574	-0.084
Mof_N 	N 	0.8797	0.8277	0.5042	-0.098
Mof_N 	N 	0.7223	0.36555	0.94605	-0.199
Mof_N 	N 	0.66488	0.3751	0.96432	-0.194
Mof_N 	N 	0.82809	0.33401	0.91282	-0.199
Mof_N 	N 	0.87733	0.30516	0.89769	-0.191
Mof_N 	N 	0.827	0.3974	0.0426	-0.083
Mof_N 	N 	0.8235	0.3755	0.9958	-0.098
Mof_N 	N 	0.7777	0.72375	0.64325	-0.199
Mof_N 	N 	0.83512	0.79944	0.71022	-0.194
Mof_N 	N 	0.67191	0.58473	0.50592	-0.199
Mof_N 	N 	0.62267	0.52036	0.42783	-0.191
Mof_N 	N 	0.673	0.7156	0.5704	-0.084
Mof_N 	N 	0.6765	0.6723	0.552	-0.098
Mof_N 	N 	0.5805	0.13445	0.85675	-0.199
Mof_N 	N 	0.58922	0.1249	0.78978	-0.194
Mof_N 	N 	0.57881	0.16599	0.99408	-0.2
Mof_N 	N 	0.59253	0.19484	0.07217	-0.191
Mof_N 	N 	0.6452	0.1026	0.9296	-0.084
Mof_N 	N 	0.6203	0.1245	0.948	-0.098
Mof_N 	N 	0.14325	0.7777	0.22375	-0.199
Mof_N 	N 	0.21022	0.83512	0.29944	-0.194
Mof_N 	N 	0.00592	0.67191	0.08473	-0.2
Mof_N 	N 	0.92783	0.62267	0.02036	-0.19
Mof_N 	N 	0.0704	0.673	0.2156	-0.084
Mof_N 	N 	0.052	0.6765	0.1723	-0.097
Mof_N 	N 	0.35675	0.5805	0.63445	-0.199
Mof_N 	N 	0.28978	0.58922	0.6249	-0.194
Mof_N 	N 	0.49408	0.57881	0.66599	-0.199
Mof_N 	N 	0.57217	0.59253	0.69484	-0.191
Mof_N 	N 	0.4296	0.6452	0.6026	-0.084
Mof_N 	N 	0.448	0.6203	0.6245	-0.098
Mof_N 	N 	0.05395	0.9195	0.27625	-0.199
Mof_N 	N 	0.03568	0.91078	0.20056	-0.195
Mof_N 	N 	0.08718	0.92119	0.41527	-0.199
Mof_N 	N 	0.10231	0.90747	0.47964	-0.191
Mof_N 	N 	0.9574	0.8548	0.2844	-0.084
Mof_N 	N 	0.0042	0.8797	0.3277	-0.098
Mof_N 	N 	0.44605	0.7223	0.86555	-0.199
Mof_N 	N 	0.46432	0.66488	0.8751	-0.194
Mof_N 	N 	0.41282	0.82809	0.83401	-0.199
Mof_N 	N 	0.39769	0.87733	0.80516	-0.191
Mof_N 	N 	0.5426	0.827	0.8974	-0.084
Mof_N 	N 	0.4958	0.8235	0.8755	-0.098
Mof_N 	N 	0.36555	0.44605	0.2223	-0.199
Mof_N 	N 	0.3751	0.46432	0.16488	-0.194
Mof_N 	N 	0.33401	0.41282	0.32809	-0.199
Mof_N 	N 	0.30516	0.39769	0.37733	-0.191
Mof_N 	N 	0.3974	0.5426	0.327	-0.084
Mof_N 	N 	0.3755	0.4958	0.3235	-0.098
Mof_N 	N 	0.77625	0.05395	0.4195	-0.199
Mof_N 	N 	0.70056	0.03568	0.41078	-0.194
Mof_N 	N 	0.91527	0.08718	0.42119	-0.199
Mof_N 	N 	0.97964	0.10231	0.40747	-0.191
Mof_N 	N 	0.7844	0.9574	0.3548	-0.084
Mof_N 	N 	0.8277	0.0042	0.3797	-0.098
Mof_N 	N 	0.13445	0.35675	0.0805	-0.199
Mof_N 	N 	0.1249	0.28978	0.08922	-0.194
Mof_N 	N 	0.16599	0.49408	0.07881	-0.199
Mof_N 	N 	0.19484	0.57217	0.09253	-0.191
Mof_N 	N 	0.1026	0.4296	0.1452	-0.084
Mof_N 	N 	0.1245	0.448	0.1203	-0.098
Mof_N 	N 	0.72375	0.14325	0.2777	-0.199
Mof_N 	N 	0.79944	0.21022	0.33512	-0.194
Mof_N 	N 	0.58473	0.00592	0.17191	-0.199
Mof_N 	N 	0.52036	0.92783	0.12267	-0.191
Mof_N 	N 	0.7156	0.0704	0.173	-0.084
Mof_N 	N 	0.6723	0.052	0.1765	-0.098
Mof_N 	N 	0.72375	0.5805	0.94605	-0.199
Mof_N 	N 	0.79944	0.58922	0.96432	-0.195
Mof_N 	N 	0.58473	0.57881	0.91282	-0.199
Mof_N 	N 	0.52036	0.59253	0.89769	-0.191
Mof_N 	N 	0.7156	0.6452	0.0426	-0.084
Mof_N 	N 	0.6723	0.6203	0.9958	-0.098
Mof_N 	N 	0.13445	0.7777	0.55395	-0.199
Mof_N 	N 	0.1249	0.83512	0.53568	-0.194
Mof_N 	N 	0.16599	0.67191	0.58718	-0.199
Mof_N 	N 	0.19484	0.62267	0.60231	-0.191
Mof_N 	N 	0.1026	0.673	0.4574	-0.084
Mof_N 	N 	0.1245	0.6765	0.5042	-0.098
Mof_N 	N 	0.77625	0.7223	0.85675	-0.199
Mof_N 	N 	0.70056	0.66488	0.78978	-0.194
Mof_N 	N 	0.91527	0.82809	0.99408	-0.2
Mof_N 	N 	0.97964	0.87733	0.07217	-0.19
Mof_N 	N 	0.7844	0.827	0.9296	-0.084
Mof_N 	N 	0.8277	0.8235	0.948	-0.097
Mof_N 	N 	0.36555	0.9195	0.64325	-0.199
Mof_N 	N 	0.3751	0.91078	0.71022	-0.194
Mof_N 	N 	0.33401	0.92119	0.50592	-0.199
Mof_N 	N 	0.30516	0.90747	0.42783	-0.191
Mof_N 	N 	0.3974	0.8548	0.5704	-0.084
Mof_N 	N 	0.3755	0.8797	0.552	-0.098
Mof_N 	N 	0.7223	0.35675	0.27625	-0.199
Mof_N 	N 	0.66488	0.28978	0.20056	-0.194
Mof_N 	N 	0.82809	0.49408	0.41527	-0.199
Mof_N 	N 	0.87733	0.57217	0.47964	-0.191
Mof_N 	N 	0.827	0.4296	0.2844	-0.084
Mof_N 	N 	0.8235	0.448	0.3277	-0.098
Mof_N 	N 	0.9195	0.14325	0.86555	-0.199
Mof_N 	N 	0.91078	0.21022	0.8751	-0.194
Mof_N 	N 	0.92119	0.00592	0.83401	-0.2
Mof_N 	N 	0.90747	0.92783	0.80516	-0.191
Mof_N 	N 	0.8548	0.0704	0.8974	-0.084
Mof_N 	N 	0.8797	0.052	0.8755	-0.098
Mof_N 	N 	0.5805	0.44605	0.22375	-0.199
Mof_N 	N 	0.58922	0.46432	0.29944	-0.194
Mof_N 	N 	0.57881	0.41282	0.08473	-0.199
Mof_N 	N 	0.59253	0.39769	0.02036	-0.191
Mof_N 	N 	0.6452	0.5426	0.2156	-0.084
Mof_N 	N 	0.6203	0.4958	0.1723	-0.098
Mof_N 	N 	0.7777	0.05395	0.63445	-0.199
Mof_N 	N 	0.83512	0.03568	0.6249	-0.194
Mof_N 	N 	0.67191	0.08718	0.66599	-0.199
Mof_N 	N 	0.62267	0.10231	0.69484	-0.191
Mof_N 	N 	0.673	0.9574	0.6026	-0.084
Mof_N 	N 	0.6765	0.0042	0.6245	-0.098
Mof_N 	N 	0.05395	0.13445	0.2777	-0.199
Mof_N 	N 	0.03568	0.1249	0.33512	-0.194
Mof_N 	N 	0.08718	0.16599	0.17191	-0.199
Mof_N 	N 	0.10231	0.19484	0.12267	-0.191
Mof_N 	N 	0.9574	0.1026	0.173	-0.084
Mof_N 	N 	0.0042	0.1245	0.1765	-0.098
Mof_N 	N 	0.44605	0.72375	0.0805	-0.199
Mof_N 	N 	0.46432	0.79944	0.08922	-0.194
Mof_N 	N 	0.41282	0.58473	0.07881	-0.199
Mof_N 	N 	0.39769	0.52036	0.09253	-0.191
Mof_N 	N 	0.5426	0.7156	0.1452	-0.084
Mof_N 	N 	0.4958	0.6723	0.1203	-0.098
Mof_N 	N 	0.14325	0.36555	0.4195	-0.199
Mof_N 	N 	0.21022	0.3751	0.41078	-0.194
Mof_N 	N 	0.00592	0.33401	0.42119	-0.199
Mof_N 	N 	0.92783	0.30516	0.40747	-0.191
Mof_N 	N 	0.0704	0.3974	0.3548	-0.084
Mof_N 	N 	0.052	0.3755	0.3797	-0.098
Mof_N 	N 	0.35675	0.77625	0.2223	-0.199
Mof_N 	N 	0.28978	0.70056	0.16488	-0.194
Mof_N 	N 	0.49408	0.91527	0.32809	-0.199
Mof_N 	N 	0.57217	0.97964	0.37733	-0.191
Mof_N 	N 	0.4296	0.7844	0.327	-0.084
Mof_N 	N 	0.448	0.8277	0.3235	-0.098
_end
