data_functionalizedCrystal
_audit_creation_method	'EQeq! by Chris Wilmer'
_symmetry_space_group_name_H-M	'P1'
_symmetry_Int_Tables_number	1
_symmetry_cell_setting	triclinic
loop_
_symmetry_equiv_pos_as_xyz
  x,y,z
_cell_length_a	15.0535
_cell_length_b	15.0535
_cell_length_c	11.8737
_cell_angle_alpha	90
_cell_angle_beta	90
_cell_angle_gamma	90
loop_
_atom_site_label
_atom_site_type_symbol
_atom_site_fract_x
_atom_site_fract_y
_atom_site_fract_z
_atom_site_charge
Mof_O 	O 	0.0996	0.2858	0.9988	-0.775
Mof_O 	O 	0.1251	0.3807	0.1425	-0.931
Mof_C 	C 	0.0923	0.3619	0.0484	0.32
Mof_C 	C 	0.0411	0.4303	0.9897	0.307
Mof_C 	C 	0.038	0.4301	0.8709	-0.26
Mof_H 	H 	0.0623	0.3814	0.8303	0.091
Mof_O 	O 	0.5996	0.7858	0.4988	-1.105
Mof_O 	O 	0.6251	0.8807	0.6425	-1.047
Mof_C 	C 	0.5923	0.8619	0.5484	0.82
Mof_C 	C 	0.5411	0.9303	0.4897	-0.289
Mof_C 	C 	0.538	0.9301	0.3709	0.099
Mof_H 	H 	0.5623	0.8814	0.3303	-0.033
Mof_O 	O 	0.4004	0.2142	0.4988	-1.108
Mof_O 	O 	0.3749	0.1193	0.6425	-1.057
Mof_C 	C 	0.4077	0.1381	0.5484	0.822
Mof_C 	C 	0.4589	0.0697	0.4897	-0.314
Mof_C 	C 	0.462	0.0699	0.3709	0.071
Mof_H 	H 	0.4377	0.1186	0.3303	-0.029
Mof_O 	O 	0.9004	0.7142	0.9988	-0.765
Mof_O 	O 	0.8749	0.6193	0.1425	-0.93
Mof_C 	C 	0.9077	0.6381	0.0484	0.313
Mof_C 	C 	0.9589	0.5697	0.9897	0.31
Mof_C 	C 	0.962	0.5699	0.8709	-0.265
Mof_H 	H 	0.9377	0.6186	0.8303	0.093
Mof_O 	O 	0.7142	0.5996	0.2488	-1.114
Mof_O 	O 	0.6193	0.6251	0.3925	-1.07
Mof_C 	C 	0.6381	0.5923	0.2984	0.859
Mof_C 	C 	0.5697	0.5411	0.2397	-0.435
Mof_C 	C 	0.5699	0.538	0.1209	0.273
Mof_H 	H 	0.6186	0.5623	0.0803	-0.135
Mof_O 	O 	0.2142	0.0996	0.7488	-1.087
Mof_O 	O 	0.1193	0.1251	0.8925	-0.909
Mof_C 	C 	0.1381	0.0923	0.7984	0.789
Mof_C 	C 	0.0697	0.0411	0.7397	-0.315
Mof_C 	C 	0.0699	0.038	0.6209	0.129
Mof_H 	H 	0.1186	0.0623	0.5803	-0.049
Mof_O 	O 	0.7858	0.9004	0.7488	-1.08
Mof_O 	O 	0.8807	0.8749	0.8925	-0.896
Mof_C 	C 	0.8619	0.9077	0.7984	0.786
Mof_C 	C 	0.9303	0.9589	0.7397	-0.291
Mof_C 	C 	0.9301	0.962	0.6209	0.155
Mof_H 	H 	0.8814	0.9377	0.5803	-0.051
Mof_O 	O 	0.2858	0.4004	0.2488	-1.112
Mof_O 	O 	0.3807	0.3749	0.3925	-1.07
Mof_C 	C 	0.3619	0.4077	0.2984	0.859
Mof_C 	C 	0.4303	0.4589	0.2397	-0.435
Mof_C 	C 	0.4301	0.462	0.1209	0.273
Mof_H 	H 	0.3814	0.4377	0.0803	-0.134
Mof_O 	O 	0.4004	0.2858	0.7512	-1.096
Mof_O 	O 	0.3749	0.3807	0.6075	-1.054
Mof_C 	C 	0.4077	0.3619	0.7016	0.816
Mof_C 	C 	0.4589	0.4303	0.7603	-0.283
Mof_C 	C 	0.462	0.4301	0.8791	0.027
Mof_H 	H 	0.4377	0.3814	0.9197	0.032
Mof_O 	O 	0.9004	0.7858	0.2512	-1.085
Mof_O 	O 	0.8749	0.8807	0.1075	-0.989
Mof_C 	C 	0.9077	0.8619	0.2016	0.793
Mof_C 	C 	0.9589	0.9303	0.2603	-0.337
Mof_C 	C 	0.962	0.9301	0.3791	0.177
Mof_H 	H 	0.9377	0.8814	0.4197	-0.06
Mof_O 	O 	0.0996	0.2142	0.2512	-1.088
Mof_O 	O 	0.1251	0.1193	0.1075	-0.999
Mof_C 	C 	0.0923	0.1381	0.2016	0.795
Mof_C 	C 	0.0411	0.0697	0.2603	-0.356
Mof_C 	C 	0.038	0.0699	0.3791	0.151
Mof_H 	H 	0.0623	0.1186	0.4197	-0.056
Mof_O 	O 	0.5996	0.7142	0.7512	-1.094
Mof_O 	O 	0.6251	0.6193	0.6075	-1.055
Mof_C 	C 	0.5923	0.6381	0.7016	0.817
Mof_C 	C 	0.5411	0.5697	0.7603	-0.282
Mof_C 	C 	0.538	0.5699	0.8791	0.027
Mof_H 	H 	0.5623	0.6186	0.9197	0.034
Mof_O 	O 	0.7858	0.5996	0.5012	-1.113
Mof_O 	O 	0.8807	0.6251	0.3575	-1.062
Mof_C 	C 	0.8619	0.5923	0.4516	0.852
Mof_C 	C 	0.9303	0.5411	0.5103	-0.41
Mof_C 	C 	0.9301	0.538	0.6291	0.237
Mof_H 	H 	0.8814	0.5623	0.6697	-0.083
Mof_O 	O 	0.2858	0.0996	0.0012	-1.214
Mof_O 	O 	0.3807	0.1251	0.8575	-1.149
Mof_C 	C 	0.3619	0.0923	0.9516	1.265
Mof_C 	C 	0.4303	0.0411	0.0103	-0.971
Mof_C 	C 	0.4301	0.038	0.1291	0.523
Mof_H 	H 	0.3814	0.0623	0.1697	-0.186
Mof_O 	O 	0.7142	0.9004	0.0012	-1.212
Mof_O 	O 	0.6193	0.8749	0.8575	-1.142
Mof_C 	C 	0.6381	0.9077	0.9516	1.275
Mof_C 	C 	0.5697	0.9589	0.0103	-0.955
Mof_C 	C 	0.5699	0.962	0.1291	0.554
Mof_H 	H 	0.6186	0.9377	0.1697	-0.189
Mof_O 	O 	0.2142	0.4004	0.5012	-1.111
Mof_O 	O 	0.1193	0.3749	0.3575	-1.062
Mof_C 	C 	0.1381	0.4077	0.4516	0.851
Mof_C 	C 	0.0697	0.4589	0.5103	-0.407
Mof_C 	C 	0.0699	0.462	0.6291	0.24
Mof_H 	H 	0.1186	0.4377	0.6697	-0.083
Mof_Ga	Ga	0.19473	0.19473	-0	3.978
Mof_Ga	Ga	0.69473	0.69473	0.5	4.625
Mof_Ga	Ga	0.30527	0.30527	0.5	4.622
Mof_Ga	Ga	0.80527	0.69473	0.25	4.512
Mof_Ga	Ga	0.69473	0.80527	0.75	4.662
Mof_Ga	Ga	0.30527	0.19473	0.75	4.659
Mof_Ga	Ga	0.19473	0.30527	0.25	4.512
Mof_Ga	Ga	0.80527	0.80527	-0	3.961
Mof_O 	O 	0.2523	0.25	0.125	-2.138
Mof_H 	H 	0.3079	0.25	0.125	0.678
Mof_O 	O 	0.7523	0.75	0.625	-2.29
Mof_H 	H 	0.8079	0.75	0.625	0.739
Mof_O 	O 	0.2477	0.25	0.625	-2.289
Mof_H 	H 	0.1921	0.25	0.625	0.737
Mof_O 	O 	0.7477	0.75	0.125	-2.135
Mof_H 	H 	0.6921	0.75	0.125	0.678
Mof_O 	O 	0.75	0.7523	0.375	-2.259
Mof_H 	H 	0.75	0.8079	0.375	0.733
Mof_O 	O 	0.25	0.2523	0.875	-2.115
Mof_H 	H 	0.25	0.3079	0.875	0.711
Mof_O 	O 	0.75	0.7477	0.875	-2.111
Mof_H 	H 	0.75	0.6921	0.875	0.71
Mof_O 	O 	0.25	0.2477	0.375	-2.259
Mof_H 	H 	0.25	0.1921	0.375	0.73
Mof_C 	C 	1.3212e-33	0.5	0.0502	-0.508
Mof_H 	H 	3.85054e-34	0.5	0.1302	0.208
Mof_C 	C 	2.40614e-33	0.5	0.8136	0.229
Mof_C 	C 	0.5	0	0.5502	0.188
Mof_H 	H 	0.5	-4.69093e-33	0.6302	-0.003
Mof_C 	C 	0.5	-2.34547e-33	0.3136	-0.004
Mof_C 	C 	0.5	0.5	0.3002	0.325
Mof_H 	H 	0.5	0.5	0.3802	-0.051
Mof_C 	C 	0.5	0.5	0.0636	-0.361
Mof_C 	C 	-2.32442e-33	0	0.8002	0.195
Mof_H 	H 	-6.77876e-33	-9.38187e-33	0.8802	0.015
Mof_C 	C 	1.66679e-33	0	0.5636	-0.115
Mof_C 	C 	0.5	0.5	0.6998	0.208
Mof_H 	H 	0.5	0.5	0.6198	-0.01
Mof_C 	C 	0.5	0.5	0.9364	0.152
Mof_C 	C 	-5.81845e-34	0	0.1998	0.226
Mof_H 	H 	3.54297e-34	0	0.1198	-0.055
Mof_C 	C 	-1.05486e-33	0	0.4364	-0.137
Mof_C 	C 	-3.3607e-33	0.5	0.4498	0.313
Mof_H 	H 	-5.94275e-33	0.5	0.3698	-0.057
Mof_C 	C 	2.02996e-33	0.5	0.6864	-0.249
Mof_C 	C 	0.5	0	0.9498	0.964
Mof_H 	H 	0.5	0	0.8698	-0.25
Mof_C 	C 	0.5	0	0.1864	-0.435
_end
