data_functionalizedCrystal
_audit_creation_method	'EQeq! by Chris Wilmer'
_symmetry_space_group_name_H-M	'P1'
_symmetry_Int_Tables_number	1
_symmetry_cell_setting	triclinic
loop_
_symmetry_equiv_pos_as_xyz
  x,y,z
_cell_length_a	23.5303
_cell_length_b	23.5303
_cell_length_c	23.5303
_cell_angle_alpha	109.471
_cell_angle_beta	109.471
_cell_angle_gamma	109.471
loop_
_atom_site_label
_atom_site_type_symbol
_atom_site_fract_x
_atom_site_fract_y
_atom_site_fract_z
_atom_site_charge
Mof_Zn	Zn	0.27414	0	-0	1.168
Mof_Zn	Zn	0.5	0.27414	0.5	1.183
Mof_Zn	Zn	2.26713e-17	0.5	0.77414	1.174
Mof_Zn	Zn	0.22586	0.22586	0.72586	1.183
Mof_Zn	Zn	0.77414	0	-0	1.168
Mof_Zn	Zn	0.5	0.77414	0.5	1.183
Mof_Zn	Zn	0.72586	0.72586	0.22586	1.182
Mof_Zn	Zn	-2.83391e-17	0.5	0.27414	1.176
Mof_Zn	Zn	0.625	0.375	0.25	1.18
Mof_Zn	Zn	0.875	0.125	0.75	1.18
Mof_Zn	Zn	0.25	0.875	0.625	1.181
Mof_Zn	Zn	0.75	0.625	0.875	1.181
Mof_Zn	Zn	0.375	0.75	0.125	1.179
Mof_Zn	Zn	0.125	0.25	0.375	1.179
Mof_H 	H 	0.427	0.0267	0.0943	-0.014
Mof_H 	H 	0.5405	0.1187	0.1614	0.065
Mof_H 	H 	0.5628	0.2298	0.189	-0.014
Mof_H 	H 	0.1679	0.0577	0.9712	0.026
Mof_H 	H 	0.172	0.1643	0.0025	0.039
Mof_H 	H 	0.281	0.2679	0.0729	0.043
Mof_H 	H 	0.5243	0.427	0.2071	-0.013
Mof_H 	H 	0.4324	0.3327	0.4057	-0.002
Mof_H 	H 	0.4573	0.3791	0.3386	0.069
Mof_H 	H 	0.5408	0.3738	0.311	-0.013
Mof_H 	H 	0.5865	0.1967	0.5288	-0.004
Mof_H 	H 	0.6618	0.1695	0.4975	0.059
Mof_H 	H 	0.695	0.2081	0.4271	0.041
Mof_H 	H 	0.7199	0.3172	0.2929	-0.012
Mof_H 	H 	0.0676	0.4733	0.9003	0.001
Mof_H 	H 	0.0427	0.3813	0.9218	0.084
Mof_H 	H 	0.9592	0.2702	0.833	-0.023
Mof_H 	H 	0.9135	0.4423	0.6102	0.001
Mof_H 	H 	0.8382	0.3357	0.5077	0.063
Mof_H 	H 	0.805	0.2321	0.5131	0.042
Mof_H 	H 	0.7801	0.073	0.5973	-0.018
Mof_H 	H 	0.073	0.1673	0.5997	0.004
Mof_H 	H 	0.9595	0.1209	0.5782	0.059
Mof_H 	H 	0.9372	0.1262	0.667	-0.018
Mof_H 	H 	0.3321	0.3033	0.8898	-0
Mof_H 	H 	0.328	0.3305	0.9923	0.07
Mof_H 	H 	0.219	0.2919	0.9869	0.048
Mof_H 	H 	0.9757	0.1828	0.9027	0.031
Mof_H 	H 	0.4003	0.0676	0.9733	0.007
Mof_H 	H 	0.4218	0.0427	0.8813	0.081
Mof_H 	H 	0.333	0.9592	0.7702	-0.022
Mof_H 	H 	0.1102	0.9135	0.9423	0.004
Mof_H 	H 	0.0077	0.8382	0.8357	0.056
Mof_H 	H 	0.0131	0.805	0.7321	0.036
Mof_H 	H 	0.0973	0.7801	0.573	-0.015
Mof_H 	H 	0.0997	0.073	0.6673	0.002
Mof_H 	H 	0.0782	0.9595	0.6209	0.059
Mof_H 	H 	0.167	0.9372	0.6262	-0.016
Mof_H 	H 	0.3898	0.3321	0.8033	-0.002
Mof_H 	H 	0.4923	0.328	0.8305	0.065
Mof_H 	H 	0.4869	0.219	0.7919	0.043
Mof_H 	H 	0.4027	0.9757	0.6828	0.025
Mof_H 	H 	0.5943	0.427	0.5267	-0.002
Mof_H 	H 	0.6614	0.5405	0.6187	0.07
Mof_H 	H 	0.689	0.5628	0.7298	-0.014
Mof_H 	H 	0.4712	0.1679	0.5577	-0.005
Mof_H 	H 	0.5025	0.172	0.6643	0.06
Mof_H 	H 	0.5729	0.281	0.7679	0.044
Mof_H 	H 	0.7071	0.5243	0.927	-0.005
Mof_H 	H 	0.9057	0.4324	0.8327	0.003
Mof_H 	H 	0.8386	0.4573	0.8791	0.075
Mof_H 	H 	0.811	0.5408	0.8738	-0.011
Mof_H 	H 	0.0288	0.5865	0.6967	-0.041
Mof_H 	H 	0.9975	0.6618	0.6695	0.082
Mof_H 	H 	0.9271	0.695	0.7081	0.042
Mof_H 	H 	0.7929	0.7199	0.8172	-0.01
Mof_H 	H 	0.3327	0.9057	0.9324	0.002
Mof_H 	H 	0.3791	0.8386	0.9573	0.062
Mof_H 	H 	0.3738	0.811	0.0408	-0.004
Mof_H 	H 	0.1967	0.0288	0.0865	-0.045
Mof_H 	H 	0.1695	0.9975	0.1618	0.079
Mof_H 	H 	0.2081	0.9271	0.195	0.039
Mof_H 	H 	0.3172	0.7929	0.2199	-0.011
Mof_H 	H 	0.0267	0.5943	0.927	-0.017
Mof_H 	H 	0.1187	0.6614	0.0405	0.072
Mof_H 	H 	0.2298	0.689	0.0628	-0.012
Mof_H 	H 	0.0577	0.4712	0.6679	-0.01
Mof_H 	H 	0.1643	0.5025	0.672	0.06
Mof_H 	H 	0.2679	0.5729	0.781	0.043
Mof_H 	H 	0.427	0.7071	0.0243	-0.047
Mof_H 	H 	0.1673	0.0997	0.573	-0.006
Mof_H 	H 	0.1209	0.0782	0.4595	0.06
Mof_H 	H 	0.1262	0.167	0.4372	-0.016
Mof_H 	H 	0.3033	0.3898	0.8321	-0.001
Mof_H 	H 	0.3305	0.4923	0.828	0.064
Mof_H 	H 	0.2919	0.4869	0.719	0.042
Mof_H 	H 	0.1828	0.4027	0.4757	-0.012
Mof_H 	H 	0.4733	0.4003	0.5676	-0.002
Mof_H 	H 	0.3813	0.4218	0.5427	0.069
Mof_H 	H 	0.2702	0.333	0.4592	-0.013
Mof_H 	H 	0.4423	0.1102	0.4135	-0.006
Mof_H 	H 	0.3357	0.0077	0.3382	0.054
Mof_H 	H 	0.2321	0.0131	0.305	0.033
Mof_H 	H 	0.073	0.0973	0.2801	-0.022
Mof_H 	H 	0.8327	0.9324	0.9057	0.003
Mof_H 	H 	0.8791	0.9573	0.8386	0.066
Mof_H 	H 	0.8738	0.0408	0.811	-0.002
Mof_H 	H 	0.6967	0.0865	0.0288	-0.044
Mof_H 	H 	0.6695	0.1618	0.9975	0.081
Mof_H 	H 	0.7081	0.195	0.9271	0.04
Mof_H 	H 	0.8172	0.2199	0.7929	-0.011
Mof_H 	H 	0.5267	0.927	0.5943	-0.009
Mof_H 	H 	0.6187	0.0405	0.6614	0.075
Mof_H 	H 	0.7298	0.0628	0.689	-0.012
Mof_H 	H 	0.5577	0.6679	0.4712	-0.003
Mof_H 	H 	0.6643	0.672	0.5025	0.062
Mof_H 	H 	0.7679	0.781	0.5729	0.046
Mof_H 	H 	0.927	0.0243	0.7071	-0.04
Mof_H 	H 	0.6673	0.573	0.0997	-0.005
Mof_H 	H 	0.6209	0.4595	0.0782	0.064
Mof_H 	H 	0.6262	0.4372	0.167	-0.014
Mof_H 	H 	0.8033	0.8321	0.3898	0
Mof_H 	H 	0.8305	0.828	0.4923	0.067
Mof_H 	H 	0.7919	0.719	0.4869	0.044
Mof_H 	H 	0.6828	0.4757	0.4027	-0.011
Mof_H 	H 	0.9733	0.5676	0.4003	0.007
Mof_H 	H 	0.8813	0.5427	0.4218	0.072
Mof_H 	H 	0.7702	0.4592	0.333	-0.013
Mof_H 	H 	0.9423	0.4135	0.1102	0.002
Mof_H 	H 	0.8357	0.3382	0.0077	0.056
Mof_H 	H 	0.7321	0.305	0.0131	0.034
Mof_H 	H 	0.573	0.2801	0.0973	-0.016
Mof_H 	H 	0.927	0.0943	0.0267	-0.021
Mof_H 	H 	0.0405	0.1614	0.1187	0.071
Mof_H 	H 	0.0628	0.189	0.2298	-0.012
Mof_H 	H 	0.6679	0.9712	0.0577	0.029
Mof_H 	H 	0.672	0.0025	0.1643	0.041
Mof_H 	H 	0.781	0.0729	0.2679	0.045
Mof_H 	H 	0.0243	0.2071	0.427	-0.051
Mof_H 	H 	0.9324	0.4057	0.3327	-0.001
Mof_H 	H 	0.9573	0.3386	0.3791	0.059
Mof_H 	H 	0.0408	0.311	0.3738	-0.003
Mof_H 	H 	0.0865	0.5288	0.1967	-0.007
Mof_H 	H 	0.1618	0.4975	0.1695	0.058
Mof_H 	H 	0.195	0.4271	0.2081	0.04
Mof_H 	H 	0.2199	0.2929	0.3172	-0.013
Mof_H 	H 	0.5676	0.9003	0.4733	0.001
Mof_H 	H 	0.5427	0.9218	0.3813	0.074
Mof_H 	H 	0.4592	0.833	0.2702	-0.013
Mof_H 	H 	0.4135	0.6102	0.4423	-0.003
Mof_H 	H 	0.3382	0.5077	0.3357	0.062
Mof_H 	H 	0.305	0.5131	0.2321	0.04
Mof_H 	H 	0.2801	0.5973	0.073	-0.018
Mof_H 	H 	0.573	0.5997	0.1673	-0.003
Mof_H 	H 	0.4595	0.5782	0.1209	0.065
Mof_H 	H 	0.4372	0.667	0.1262	-0.015
Mof_H 	H 	0.8321	0.8898	0.3033	0.002
Mof_H 	H 	0.828	0.9923	0.3305	0.072
Mof_H 	H 	0.719	0.9869	0.2919	0.05
Mof_H 	H 	0.4757	0.9027	0.1828	-0.008
Mof_H 	H 	0.9003	0.9733	0.0676	0.009
Mof_H 	H 	0.9218	0.8813	0.0427	0.086
Mof_H 	H 	0.833	0.7702	0.9592	-0.022
Mof_H 	H 	0.6102	0.9423	0.9135	0.007
Mof_H 	H 	0.5077	0.8357	0.8382	0.064
Mof_H 	H 	0.5131	0.7321	0.805	0.044
Mof_H 	H 	0.5973	0.573	0.7801	-0.011
Mof_H 	H 	0.5997	0.6673	0.073	0.005
Mof_H 	H 	0.5782	0.6209	0.9595	0.063
Mof_H 	H 	0.667	0.6262	0.9372	-0.016
Mof_H 	H 	0.8898	0.8033	0.3321	0.001
Mof_H 	H 	0.9923	0.8305	0.328	0.072
Mof_H 	H 	0.9869	0.7919	0.219	0.05
Mof_H 	H 	0.9027	0.6828	0.9757	0.03
Mof_H 	H 	0.0943	0.5267	0.427	-0.005
Mof_H 	H 	0.1614	0.6187	0.5405	0.068
Mof_H 	H 	0.189	0.7298	0.5628	-0.014
Mof_H 	H 	0.9712	0.5577	0.1679	0.031
Mof_H 	H 	0.0025	0.6643	0.172	0.042
Mof_H 	H 	0.0729	0.7679	0.281	0.045
Mof_H 	H 	0.2071	0.927	0.5243	-0.006
Mof_H 	H 	0.4057	0.8327	0.4324	-0.001
Mof_H 	H 	0.3386	0.8791	0.4573	0.073
Mof_H 	H 	0.311	0.8738	0.5408	-0.011
Mof_H 	H 	0.5288	0.6967	0.5865	-0.002
Mof_H 	H 	0.4975	0.6695	0.6618	0.062
Mof_H 	H 	0.4271	0.7081	0.695	0.043
Mof_H 	H 	0.2929	0.8172	0.7199	-0.012
Mof_C 	C 	0.435	0.0721	0.1045	0.063
Mof_C 	C 	0.5031	0.1271	0.1452	-0.118
Mof_C 	C 	0.5162	0.1923	0.1617	0.019
Mof_C 	C 	0.4603	0.2053	0.1382	-0.064
Mof_C 	C 	0.3915	0.1446	0.0953	0.037
Mof_C 	C 	0.2119	0.0991	0.002	-0.01
Mof_C 	C 	0.2138	0.1628	0.0192	-0.059
Mof_C 	C 	0.2779	0.2238	0.0611	-0.038
Mof_C 	C 	0.3384	0.21851	0.08591	-0.008
Mof_C 	C 	0.33197	0.15289	0.06886	0.009
Mof_C 	C 	0.496	0.378	0.1856	0.074
Mof_C 	C 	0.4074	0.2777	0.1287	0.028
Mof_C 	C 	0.4652	0.2703	0.1515	0.044
Mof_C 	C 	0.4676	0.3305	0.3955	0.066
Mof_C 	C 	0.4819	0.3579	0.3548	-0.114
Mof_C 	C 	0.5306	0.3545	0.3383	0.02
Mof_C 	C 	0.5671	0.3221	0.3618	-0.062
Mof_C 	C 	0.5493	0.2962	0.4047	0.039
Mof_C 	C 	0.5971	0.2099	0.498	0.049
Mof_C 	C 	0.6436	0.1946	0.4808	-0.087
Mof_C 	C 	0.6627	0.2168	0.4389	-0.018
Mof_C 	C 	0.6326	0.25249	0.41409	-0.015
Mof_C 	C 	0.58403	0.26311	0.43114	0.017
Mof_C 	C 	0.6924	0.3104	0.3144	0.076
Mof_C 	C 	0.649	0.2787	0.3713	0.033
Mof_C 	C 	0.6188	0.3137	0.3485	0.044
Mof_C 	C 	0.0324	0.4279	0.8629	0.058
Mof_C 	C 	0.0181	0.3729	0.876	-0.163
Mof_C 	C 	0.9694	0.3077	0.8239	0.075
Mof_C 	C 	0.9329	0.2947	0.755	-0.076
Mof_C 	C 	0.9507	0.3554	0.7469	0.051
Mof_C 	C 	0.9029	0.4009	0.6128	0.052
Mof_C 	C 	0.8564	0.3372	0.551	-0.085
Mof_C 	C 	0.8373	0.2762	0.5541	-0.017
Mof_C 	C 	0.8674	0.28149	0.61989	-0.012
Mof_C 	C 	0.91597	0.34711	0.67908	0.017
Mof_C 	C 	0.8076	0.122	0.618	0.076
Mof_C 	C 	0.851	0.2223	0.6297	0.031
Mof_C 	C 	0.8812	0.2297	0.6949	0.052
Mof_C 	C 	0.065	0.1695	0.6371	0.027
Mof_C 	C 	0.9969	0.1421	0.624	-0.078
Mof_C 	C 	0.9838	0.1455	0.6761	0.036
Mof_C 	C 	0.0397	0.1779	0.745	-0.082
Mof_C 	C 	0.1085	0.2038	0.7531	0.039
Mof_C 	C 	0.2881	0.2901	0.8872	0.051
Mof_C 	C 	0.2862	0.3054	0.949	-0.084
Mof_C 	C 	0.2221	0.2832	0.9459	-0.014
Mof_C 	C 	0.1616	0.24751	0.88011	-0.015
Mof_C 	C 	0.16803	0.23689	0.82092	0.018
Mof_C 	C 	0.004	0.1896	0.882	0.005
Mof_C 	C 	0.0926	0.2213	0.8703	0.038
Mof_C 	C 	0.0348	0.1863	0.8051	0.027
Mof_C 	C 	0.3629	0.0324	0.9279	0.06
Mof_C 	C 	0.376	0.0181	0.8729	-0.155
Mof_C 	C 	0.3239	0.9694	0.8077	0.066
Mof_C 	C 	0.255	0.9329	0.7947	-0.074
Mof_C 	C 	0.2469	0.9507	0.8554	0.05
Mof_C 	C 	0.1128	0.9029	0.9009	0.05
Mof_C 	C 	0.051	0.8564	0.8372	-0.086
Mof_C 	C 	0.0541	0.8373	0.7762	-0.019
Mof_C 	C 	0.11989	0.8674	0.78149	-0.014
Mof_C 	C 	0.17908	0.91597	0.84711	0.018
Mof_C 	C 	0.118	0.8076	0.622	0.075
Mof_C 	C 	0.1297	0.851	0.7223	0.031
Mof_C 	C 	0.1949	0.8812	0.7297	0.051
Mof_C 	C 	0.1371	0.065	0.6695	0.031
Mof_C 	C 	0.124	0.9969	0.6421	-0.081
Mof_C 	C 	0.1761	0.9838	0.6455	0.035
Mof_C 	C 	0.245	0.0397	0.6779	-0.08
Mof_C 	C 	0.2531	0.1085	0.7038	0.04
Mof_C 	C 	0.3872	0.2881	0.7901	0.051
Mof_C 	C 	0.449	0.2862	0.8054	-0.086
Mof_C 	C 	0.4459	0.2221	0.7832	-0.015
Mof_C 	C 	0.38011	0.1616	0.74751	-0.016
Mof_C 	C 	0.32092	0.16803	0.73689	0.018
Mof_C 	C 	0.382	0.004	0.6896	0.012
Mof_C 	C 	0.3703	0.0926	0.7213	0.037
Mof_C 	C 	0.3051	0.0348	0.6863	0.029
Mof_C 	C 	0.6045	0.435	0.5721	0.067
Mof_C 	C 	0.6452	0.5031	0.6271	-0.114
Mof_C 	C 	0.6617	0.5162	0.6923	0.02
Mof_C 	C 	0.6382	0.4603	0.7053	-0.062
Mof_C 	C 	0.5953	0.3915	0.6446	0.04
Mof_C 	C 	0.502	0.2119	0.5991	0.049
Mof_C 	C 	0.5192	0.2138	0.6628	-0.086
Mof_C 	C 	0.5611	0.2779	0.7238	-0.018
Mof_C 	C 	0.58591	0.3384	0.71851	-0.014
Mof_C 	C 	0.56886	0.33197	0.65289	0.017
Mof_C 	C 	0.6856	0.496	0.878	0.076
Mof_C 	C 	0.6287	0.4074	0.7777	0.034
Mof_C 	C 	0.6515	0.4652	0.7703	0.044
Mof_C 	C 	0.8955	0.4676	0.8305	0.071
Mof_C 	C 	0.8548	0.4819	0.8579	-0.111
Mof_C 	C 	0.8383	0.5306	0.8545	0.022
Mof_C 	C 	0.8618	0.5671	0.8221	-0.059
Mof_C 	C 	0.9047	0.5493	0.7962	0.043
Mof_C 	C 	0.998	0.5971	0.7099	0.111
Mof_C 	C 	0.9808	0.6436	0.6946	-0.116
Mof_C 	C 	0.9389	0.6627	0.7168	0.004
Mof_C 	C 	0.91409	0.6326	0.75249	-0.021
Mof_C 	C 	0.93114	0.58403	0.76311	0.025
Mof_C 	C 	0.8144	0.6924	0.8104	0.079
Mof_C 	C 	0.8713	0.649	0.7787	0.04
Mof_C 	C 	0.8485	0.6188	0.8137	0.044
Mof_C 	C 	0.3305	0.8955	0.9676	0.076
Mof_C 	C 	0.3579	0.8548	0.9819	-0.071
Mof_C 	C 	0.3545	0.8383	0.0306	-0.024
Mof_C 	C 	0.3221	0.8618	0.0671	-0.047
Mof_C 	C 	0.2962	0.9047	0.0493	0.033
Mof_C 	C 	0.2099	0.998	0.0971	0.108
Mof_C 	C 	0.1946	0.9808	0.1436	-0.119
Mof_C 	C 	0.2168	0.9389	0.1627	0.003
Mof_C 	C 	0.25249	0.91409	0.1326	-0.025
Mof_C 	C 	0.26311	0.93114	0.08403	0.025
Mof_C 	C 	0.3104	0.8144	0.1924	0.077
Mof_C 	C 	0.2787	0.8713	0.149	0.04
Mof_C 	C 	0.3137	0.8485	0.1188	0.037
Mof_C 	C 	0.0721	0.6045	0.935	0.099
Mof_C 	C 	0.1271	0.6452	0.0031	-0.148
Mof_C 	C 	0.1923	0.6617	0.0162	0.005
Mof_C 	C 	0.2053	0.6382	0.9603	-0.044
Mof_C 	C 	0.1446	0.5953	0.8915	0.038
Mof_C 	C 	0.0991	0.502	0.7119	0.049
Mof_C 	C 	0.1628	0.5192	0.7138	-0.087
Mof_C 	C 	0.2238	0.5611	0.7779	-0.018
Mof_C 	C 	0.21851	0.58591	0.8384	-0.012
Mof_C 	C 	0.15289	0.56886	0.83197	0.016
Mof_C 	C 	0.378	0.6856	0.996	0.139
Mof_C 	C 	0.2777	0.6287	0.9074	0.031
Mof_C 	C 	0.2703	0.6515	0.9652	0.058
Mof_C 	C 	0.1695	0.1371	0.565	0.064
Mof_C 	C 	0.1421	0.124	0.4969	-0.116
Mof_C 	C 	0.1455	0.1761	0.4838	0.017
Mof_C 	C 	0.1779	0.245	0.5397	-0.062
Mof_C 	C 	0.2038	0.2531	0.6085	0.039
Mof_C 	C 	0.2901	0.3872	0.7881	0.05
Mof_C 	C 	0.3054	0.449	0.7862	-0.086
Mof_C 	C 	0.2832	0.4459	0.7221	-0.017
Mof_C 	C 	0.24751	0.38011	0.6616	-0.015
Mof_C 	C 	0.23689	0.32092	0.66803	0.017
Mof_C 	C 	0.1896	0.382	0.504	0.074
Mof_C 	C 	0.2213	0.3703	0.5926	0.033
Mof_C 	C 	0.1863	0.3051	0.5348	0.043
Mof_C 	C 	0.4279	0.3629	0.5324	0.067
Mof_C 	C 	0.3729	0.376	0.5181	-0.114
Mof_C 	C 	0.3077	0.3239	0.4694	0.02
Mof_C 	C 	0.2947	0.255	0.4329	-0.062
Mof_C 	C 	0.3554	0.2469	0.4507	0.039
Mof_C 	C 	0.4009	0.1128	0.4029	0.048
Mof_C 	C 	0.3372	0.051	0.3564	-0.09
Mof_C 	C 	0.2762	0.0541	0.3373	-0.019
Mof_C 	C 	0.28149	0.11989	0.3674	-0.018
Mof_C 	C 	0.34711	0.17908	0.41597	0.017
Mof_C 	C 	0.122	0.118	0.3076	0.074
Mof_C 	C 	0.2223	0.1297	0.351	0.032
Mof_C 	C 	0.2297	0.1949	0.3812	0.043
Mof_C 	C 	0.8305	0.9676	0.8955	0.079
Mof_C 	C 	0.8579	0.9819	0.8548	-0.069
Mof_C 	C 	0.8545	0.0306	0.8383	-0.024
Mof_C 	C 	0.8221	0.0671	0.8618	-0.046
Mof_C 	C 	0.7962	0.0493	0.9047	0.034
Mof_C 	C 	0.7099	0.0971	0.998	0.11
Mof_C 	C 	0.6946	0.1436	0.9808	-0.118
Mof_C 	C 	0.7168	0.1627	0.9389	0.005
Mof_C 	C 	0.75249	0.1326	0.91409	-0.024
Mof_C 	C 	0.76311	0.08403	0.93114	0.026
Mof_C 	C 	0.8104	0.1924	0.8144	0.078
Mof_C 	C 	0.7787	0.149	0.8713	0.042
Mof_C 	C 	0.8137	0.1188	0.8485	0.037
Mof_C 	C 	0.5721	0.935	0.6045	0.103
Mof_C 	C 	0.6271	0.0031	0.6452	-0.149
Mof_C 	C 	0.6923	0.0162	0.6617	0.005
Mof_C 	C 	0.7053	0.9603	0.6382	-0.043
Mof_C 	C 	0.6446	0.8915	0.5953	0.04
Mof_C 	C 	0.5991	0.7119	0.502	0.049
Mof_C 	C 	0.6628	0.7138	0.5192	-0.085
Mof_C 	C 	0.7238	0.7779	0.5611	-0.018
Mof_C 	C 	0.71851	0.8384	0.58591	-0.011
Mof_C 	C 	0.65289	0.83197	0.56886	0.017
Mof_C 	C 	0.878	0.996	0.6856	0.139
Mof_C 	C 	0.7777	0.9074	0.6287	0.032
Mof_C 	C 	0.7703	0.9652	0.6515	0.059
Mof_C 	C 	0.6695	0.565	0.1371	0.066
Mof_C 	C 	0.6421	0.4969	0.124	-0.114
Mof_C 	C 	0.6455	0.4838	0.1761	0.019
Mof_C 	C 	0.6779	0.5397	0.245	-0.061
Mof_C 	C 	0.7038	0.6085	0.2531	0.04
Mof_C 	C 	0.7901	0.7881	0.3872	0.051
Mof_C 	C 	0.8054	0.7862	0.449	-0.085
Mof_C 	C 	0.7832	0.7221	0.4459	-0.015
Mof_C 	C 	0.74751	0.6616	0.38011	-0.014
Mof_C 	C 	0.73689	0.66803	0.32092	0.018
Mof_C 	C 	0.6896	0.504	0.382	0.076
Mof_C 	C 	0.7213	0.5926	0.3703	0.035
Mof_C 	C 	0.6863	0.5348	0.3051	0.044
Mof_C 	C 	0.9279	0.5324	0.3629	0.068
Mof_C 	C 	0.8729	0.5181	0.376	-0.112
Mof_C 	C 	0.8077	0.4694	0.3239	0.02
Mof_C 	C 	0.7947	0.4329	0.255	-0.061
Mof_C 	C 	0.8554	0.4507	0.2469	0.041
Mof_C 	C 	0.9009	0.4029	0.1128	0.049
Mof_C 	C 	0.8372	0.3564	0.051	-0.087
Mof_C 	C 	0.7762	0.3373	0.0541	-0.019
Mof_C 	C 	0.78149	0.3674	0.11989	-0.017
Mof_C 	C 	0.84711	0.41597	0.17908	0.019
Mof_C 	C 	0.622	0.3076	0.118	0.074
Mof_C 	C 	0.7223	0.351	0.1297	0.032
Mof_C 	C 	0.7297	0.3812	0.1949	0.044
Mof_C 	C 	0.935	0.1045	0.0721	0.099
Mof_C 	C 	0.0031	0.1452	0.1271	-0.151
Mof_C 	C 	0.0162	0.1617	0.1923	0.003
Mof_C 	C 	0.9603	0.1382	0.2053	-0.044
Mof_C 	C 	0.8915	0.0953	0.1446	0.037
Mof_C 	C 	0.7119	0.002	0.0991	-0.011
Mof_C 	C 	0.7138	0.0192	0.1628	-0.057
Mof_C 	C 	0.7779	0.0611	0.2238	-0.039
Mof_C 	C 	0.8384	0.08591	0.21851	-0.005
Mof_C 	C 	0.83197	0.06886	0.15289	0.009
Mof_C 	C 	0.996	0.1856	0.378	0.143
Mof_C 	C 	0.9074	0.1287	0.2777	0.025
Mof_C 	C 	0.9652	0.1515	0.2703	0.06
Mof_C 	C 	0.9676	0.3955	0.3305	0.075
Mof_C 	C 	0.9819	0.3548	0.3579	-0.067
Mof_C 	C 	0.0306	0.3383	0.3545	-0.032
Mof_C 	C 	0.0671	0.3618	0.3221	-0.048
Mof_C 	C 	0.0493	0.4047	0.2962	0.03
Mof_C 	C 	0.0971	0.498	0.2099	0.047
Mof_C 	C 	0.1436	0.4808	0.1946	-0.089
Mof_C 	C 	0.1627	0.4389	0.2168	-0.018
Mof_C 	C 	0.1326	0.41409	0.25249	-0.019
Mof_C 	C 	0.08403	0.43114	0.26311	0.018
Mof_C 	C 	0.1924	0.3144	0.3104	0.075
Mof_C 	C 	0.149	0.3713	0.2787	0.035
Mof_C 	C 	0.1188	0.3485	0.3137	0.036
Mof_C 	C 	0.5324	0.8629	0.4279	0.068
Mof_C 	C 	0.5181	0.876	0.3729	-0.114
Mof_C 	C 	0.4694	0.8239	0.3077	0.021
Mof_C 	C 	0.4329	0.755	0.2947	-0.061
Mof_C 	C 	0.4507	0.7469	0.3554	0.04
Mof_C 	C 	0.4029	0.6128	0.4009	0.05
Mof_C 	C 	0.3564	0.551	0.3372	-0.087
Mof_C 	C 	0.3373	0.5541	0.2762	-0.016
Mof_C 	C 	0.3674	0.61989	0.28149	-0.015
Mof_C 	C 	0.41597	0.67908	0.34711	0.018
Mof_C 	C 	0.3076	0.618	0.122	0.075
Mof_C 	C 	0.351	0.6297	0.2223	0.033
Mof_C 	C 	0.3812	0.6949	0.2297	0.044
Mof_C 	C 	0.565	0.6371	0.1695	0.065
Mof_C 	C 	0.4969	0.624	0.1421	-0.115
Mof_C 	C 	0.4838	0.6761	0.1455	0.019
Mof_C 	C 	0.5397	0.745	0.1779	-0.062
Mof_C 	C 	0.6085	0.7531	0.2038	0.039
Mof_C 	C 	0.7881	0.8872	0.2901	0.052
Mof_C 	C 	0.7862	0.949	0.3054	-0.083
Mof_C 	C 	0.7221	0.9459	0.2832	-0.015
Mof_C 	C 	0.6616	0.88011	0.24751	-0.013
Mof_C 	C 	0.66803	0.82092	0.23689	0.018
Mof_C 	C 	0.504	0.882	0.1896	0.076
Mof_C 	C 	0.5926	0.8703	0.2213	0.035
Mof_C 	C 	0.5348	0.8051	0.1863	0.044
Mof_C 	C 	0.8629	0.9279	0.0324	0.061
Mof_C 	C 	0.876	0.8729	0.0181	-0.157
Mof_C 	C 	0.8239	0.8077	0.9694	0.07
Mof_C 	C 	0.755	0.7947	0.9329	-0.074
Mof_C 	C 	0.7469	0.8554	0.9507	0.052
Mof_C 	C 	0.6128	0.9009	0.9029	0.052
Mof_C 	C 	0.551	0.8372	0.8564	-0.082
Mof_C 	C 	0.5541	0.7762	0.8373	-0.017
Mof_C 	C 	0.61989	0.78149	0.8674	-0.011
Mof_C 	C 	0.67908	0.84711	0.91597	0.019
Mof_C 	C 	0.618	0.622	0.8076	0.076
Mof_C 	C 	0.6297	0.7223	0.851	0.032
Mof_C 	C 	0.6949	0.7297	0.8812	0.052
Mof_C 	C 	0.6371	0.6695	0.065	0.031
Mof_C 	C 	0.624	0.6421	0.9969	-0.08
Mof_C 	C 	0.6761	0.6455	0.9838	0.037
Mof_C 	C 	0.745	0.6779	0.0397	-0.08
Mof_C 	C 	0.7531	0.7038	0.1085	0.041
Mof_C 	C 	0.8872	0.7901	0.2881	0.053
Mof_C 	C 	0.949	0.8054	0.2862	-0.083
Mof_C 	C 	0.9459	0.7832	0.2221	-0.013
Mof_C 	C 	0.88011	0.74751	0.1616	-0.014
Mof_C 	C 	0.82092	0.73689	0.16803	0.019
Mof_C 	C 	0.882	0.6896	0.004	0.01
Mof_C 	C 	0.8703	0.7213	0.0926	0.039
Mof_C 	C 	0.8051	0.6863	0.0348	0.028
Mof_C 	C 	0.1045	0.5721	0.435	0.064
Mof_C 	C 	0.1452	0.6271	0.5031	-0.116
Mof_C 	C 	0.1617	0.6923	0.5162	0.019
Mof_C 	C 	0.1382	0.7053	0.4603	-0.064
Mof_C 	C 	0.0953	0.6446	0.3915	0.039
Mof_C 	C 	0.002	0.5991	0.2119	-0.007
Mof_C 	C 	0.0192	0.6628	0.2138	-0.058
Mof_C 	C 	0.0611	0.7238	0.2779	-0.037
Mof_C 	C 	0.08591	0.71851	0.3384	-0.007
Mof_C 	C 	0.06886	0.65289	0.33197	0.011
Mof_C 	C 	0.1856	0.878	0.496	0.075
Mof_C 	C 	0.1287	0.7777	0.4074	0.029
Mof_C 	C 	0.1515	0.7703	0.4652	0.044
Mof_C 	C 	0.3955	0.8305	0.4676	0.068
Mof_C 	C 	0.3548	0.8579	0.4819	-0.113
Mof_C 	C 	0.3383	0.8545	0.5306	0.021
Mof_C 	C 	0.3618	0.8221	0.5671	-0.061
Mof_C 	C 	0.4047	0.7962	0.5493	0.041
Mof_C 	C 	0.498	0.7099	0.5971	0.05
Mof_C 	C 	0.4808	0.6946	0.6436	-0.086
Mof_C 	C 	0.4389	0.7168	0.6627	-0.017
Mof_C 	C 	0.41409	0.75249	0.6326	-0.014
Mof_C 	C 	0.43114	0.76311	0.58403	0.018
Mof_C 	C 	0.3144	0.8104	0.6924	0.077
Mof_C 	C 	0.3713	0.7787	0.649	0.034
Mof_C 	C 	0.3485	0.8137	0.6188	0.045
Mof_N 	N 	0.38082	0.08041	0.07925	-0.247
Mof_N 	N 	0.26884	0.09335	0.02657	-0.238
Mof_N 	N 	0.52429	0.33649	0.1902	-0.284
Mof_N 	N 	0.427	0.3464	0.1498	-0.126
Mof_N 	N 	0.50116	0.30157	0.42075	-0.24
Mof_N 	N 	0.56678	0.24227	0.47343	-0.24
Mof_N 	N 	0.64629	0.33409	0.3098	-0.284
Mof_N 	N 	0.6966	0.2772	0.3502	-0.124
Mof_N 	N 	0.99884	0.41959	0.80041	-0.225
Mof_N 	N 	0.93322	0.40665	0.67549	-0.235
Mof_N 	N 	0.85371	0.16351	0.6878	-0.285
Mof_N 	N 	0.8034	0.1536	0.5806	-0.125
Mof_N 	N 	0.11918	0.19843	0.69959	-0.235
Mof_N 	N 	0.23116	0.25773	0.82451	-0.24
Mof_N 	N 	0.97571	0.16591	0.8122	-0.254
Mof_N 	N 	0.073	0.2228	0.9194	-0.112
Mof_N 	N 	0.30041	0.99884	0.91959	-0.222
Mof_N 	N 	0.17549	0.93322	0.90665	-0.231
Mof_N 	N 	0.1878	0.85371	0.66351	-0.284
Mof_N 	N 	0.0806	0.8034	0.6536	-0.127
Mof_N 	N 	0.19959	0.11918	0.69843	-0.236
Mof_N 	N 	0.32451	0.23116	0.75773	-0.24
Mof_N 	N 	0.3122	0.97571	0.66591	-0.256
Mof_N 	N 	0.4194	0.073	0.7228	-0.116
Mof_N 	N 	0.57925	0.38082	0.58041	-0.24
Mof_N 	N 	0.52657	0.26884	0.59335	-0.24
Mof_N 	N 	0.6902	0.52429	0.83649	-0.283
Mof_N 	N 	0.6498	0.427	0.8464	-0.121
Mof_N 	N 	0.92075	0.50116	0.80157	-0.235
Mof_N 	N 	0.97343	0.56678	0.74227	-0.244
Mof_N 	N 	0.8098	0.64629	0.83409	-0.283
Mof_N 	N 	0.8502	0.6966	0.7772	-0.121
Mof_N 	N 	0.30157	0.92075	0.00116	-0.246
Mof_N 	N 	0.24227	0.97343	0.06678	-0.248
Mof_N 	N 	0.33409	0.8098	0.14629	-0.283
Mof_N 	N 	0.2772	0.8502	0.1966	-0.123
Mof_N 	N 	0.08041	0.57925	0.88082	-0.248
Mof_N 	N 	0.09335	0.52657	0.76884	-0.244
Mof_N 	N 	0.33649	0.6902	0.02429	-0.311
Mof_N 	N 	0.3464	0.6498	0.927	-0.13
Mof_N 	N 	0.19843	0.19959	0.61918	-0.24
Mof_N 	N 	0.25773	0.32451	0.73116	-0.24
Mof_N 	N 	0.16591	0.3122	0.47571	-0.284
Mof_N 	N 	0.2228	0.4194	0.573	-0.124
Mof_N 	N 	0.41959	0.30041	0.49884	-0.24
Mof_N 	N 	0.40665	0.17549	0.43322	-0.241
Mof_N 	N 	0.16351	0.1878	0.35371	-0.285
Mof_N 	N 	0.1536	0.0806	0.3034	-0.131
Mof_N 	N 	0.80157	0.00116	0.92075	-0.246
Mof_N 	N 	0.74227	0.06678	0.97343	-0.247
Mof_N 	N 	0.83409	0.14629	0.8098	-0.282
Mof_N 	N 	0.7772	0.1966	0.8502	-0.122
Mof_N 	N 	0.58041	0.88082	0.57925	-0.244
Mof_N 	N 	0.59335	0.76884	0.52657	-0.24
Mof_N 	N 	0.83649	0.02429	0.6902	-0.31
Mof_N 	N 	0.8464	0.927	0.6498	-0.127
Mof_N 	N 	0.69843	0.61918	0.19959	-0.24
Mof_N 	N 	0.75773	0.73116	0.32451	-0.24
Mof_N 	N 	0.66591	0.47571	0.3122	-0.284
Mof_N 	N 	0.7228	0.573	0.4194	-0.123
Mof_N 	N 	0.91959	0.49884	0.30041	-0.234
Mof_N 	N 	0.90665	0.43322	0.17549	-0.235
Mof_N 	N 	0.66351	0.35371	0.1878	-0.284
Mof_N 	N 	0.6536	0.3034	0.0806	-0.129
Mof_N 	N 	0.88082	0.07925	0.08041	-0.251
Mof_N 	N 	0.76884	0.02657	0.09335	-0.237
Mof_N 	N 	0.02429	0.1902	0.33649	-0.314
Mof_N 	N 	0.927	0.1498	0.3464	-0.133
Mof_N 	N 	0.00116	0.42075	0.30157	-0.252
Mof_N 	N 	0.06678	0.47343	0.24227	-0.243
Mof_N 	N 	0.14629	0.3098	0.33409	-0.283
Mof_N 	N 	0.1966	0.3502	0.2772	-0.125
Mof_N 	N 	0.49884	0.80041	0.41959	-0.24
Mof_N 	N 	0.43322	0.67549	0.40665	-0.24
Mof_N 	N 	0.35371	0.6878	0.16351	-0.284
Mof_N 	N 	0.3034	0.5806	0.1536	-0.127
Mof_N 	N 	0.61918	0.69959	0.19843	-0.24
Mof_N 	N 	0.73116	0.82451	0.25773	-0.24
Mof_N 	N 	0.47571	0.8122	0.16591	-0.284
Mof_N 	N 	0.573	0.9194	0.2228	-0.119
Mof_N 	N 	0.80041	0.91959	0.99884	-0.221
Mof_N 	N 	0.67549	0.90665	0.93322	-0.23
Mof_N 	N 	0.6878	0.66351	0.85371	-0.284
Mof_N 	N 	0.5806	0.6536	0.8034	-0.123
Mof_N 	N 	0.69959	0.69843	0.11918	-0.235
Mof_N 	N 	0.82451	0.75773	0.23116	-0.24
Mof_N 	N 	0.8122	0.66591	0.97571	-0.254
Mof_N 	N 	0.9194	0.7228	0.073	-0.111
Mof_N 	N 	0.07925	0.58041	0.38082	-0.243
Mof_N 	N 	0.02657	0.59335	0.26884	-0.234
Mof_N 	N 	0.1902	0.83649	0.52429	-0.283
Mof_N 	N 	0.1498	0.8464	0.427	-0.123
Mof_N 	N 	0.42075	0.80157	0.50116	-0.24
Mof_N 	N 	0.47343	0.74227	0.56678	-0.24
Mof_N 	N 	0.3098	0.83409	0.64629	-0.283
Mof_N 	N 	0.3502	0.7772	0.6966	-0.123
_end
