data_functionalizedCrystal
_audit_creation_method	'EQeq! by Chris Wilmer'
_symmetry_space_group_name_H-M	'P1'
_symmetry_Int_Tables_number	1
_symmetry_cell_setting	triclinic
loop_
_symmetry_equiv_pos_as_xyz
  x,y,z
_cell_length_a	16.718
_cell_length_b	17.13
_cell_length_c	17.17
_cell_angle_alpha	90
_cell_angle_beta	90
_cell_angle_gamma	90
loop_
_atom_site_label
_atom_site_type_symbol
_atom_site_fract_x
_atom_site_fract_y
_atom_site_fract_z
_atom_site_charge
Mof_Er	Er	0.59044	0.91458	0.31016	1.834
Mof_Er	Er	0.41586	0.03985	0.34893	1.95
Mof_Er	Er	0.40406	0.88649	0.18476	1.625
Mof_Er	Er	0.53374	0.06027	0.15525	1.99
Mof_S 	S 	0.5246	0.11245	0.51682	0.906
Mof_S 	S 	0.41316	0.20649	0.22857	0.905
Mof_S 	S 	0.61831	0.98581	0.97522	0.939
Mof_S 	S 	0.73371	0.03406	0.21734	1.008
Mof_O 	O 	0.5021	0.1109	0.4338	-0.538
Mof_O 	O 	0.44887	0.9104	0.30949	-0.664
Mof_O 	O 	0.5698	0.0404	0.5367	-0.533
Mof_O 	O 	0.40872	0.0233	0.21099	-0.626
Mof_O 	O 	0.5757	0.1797	0.5326	-0.376
Mof_O 	O 	0.53766	0.9281	0.18136	-0.659
Mof_O 	O 	0.4514	0.1167	0.5647	-0.575
Mof_O 	O 	0.54186	0.03975	0.29451	-0.701
Mof_O 	O 	0.3913	0.166	0.3017	-0.549
Mof_O 	O 	0.4934	0.1796	0.2036	-0.591
Mof_O 	O 	0.3545	0.1901	0.1679	-0.373
Mof_O 	O 	0.4187	0.2911	0.243	-0.567
Mof_O 	O 	0.6103	0.9971	0.0591	-0.534
Mof_O 	O 	0.697	0.9533	0.9574	-0.367
Mof_O 	O 	0.5558	0.9323	0.9474	-0.568
Mof_O 	O 	0.6073	0.0626	0.9367	-0.587
Mof_O 	O 	0.7041	0.9599	0.2493	-0.596
Mof_O 	O 	0.6671	0.0813	0.1882	-0.587
Mof_O 	O 	0.7896	0.0167	0.1532	-0.575
Mof_O 	O 	0.7759	0.0789	0.2776	-0.588
Mof_Er	Er	0.90956	0.58542	0.31016	1.83
Mof_Er	Er	0.08414	0.46015	0.34893	1.951
Mof_Er	Er	0.09594	0.61351	0.18476	1.626
Mof_Er	Er	0.96626	0.43973	0.15525	1.986
Mof_S 	S 	0.9754	0.38755	0.51682	0.906
Mof_S 	S 	0.08684	0.29351	0.22857	0.905
Mof_S 	S 	0.88169	0.51419	0.97522	0.948
Mof_S 	S 	0.76629	0.46594	0.21734	1.011
Mof_O 	O 	0.9979	0.3891	0.4338	-0.539
Mof_O 	O 	0.05113	0.5896	0.30949	-0.664
Mof_O 	O 	0.9302	0.4596	0.5367	-0.533
Mof_O 	O 	0.09128	0.4767	0.21099	-0.625
Mof_O 	O 	0.9243	0.3203	0.5326	-0.376
Mof_O 	O 	0.96234	0.5719	0.18136	-0.661
Mof_O 	O 	0.0486	0.3833	0.5647	-0.575
Mof_O 	O 	0.95814	0.46025	0.29451	-0.701
Mof_O 	O 	0.1087	0.334	0.3017	-0.549
Mof_O 	O 	0.0066	0.3204	0.2036	-0.588
Mof_O 	O 	0.1455	0.3099	0.1679	-0.373
Mof_O 	O 	0.0813	0.2089	0.243	-0.567
Mof_O 	O 	0.8897	0.5029	0.0591	-0.54
Mof_O 	O 	0.803	0.5467	0.9574	-0.368
Mof_O 	O 	0.9442	0.5677	0.9474	-0.566
Mof_O 	O 	0.8927	0.4374	0.9367	-0.589
Mof_O 	O 	0.7959	0.5401	0.2493	-0.599
Mof_O 	O 	0.8329	0.4187	0.1882	-0.587
Mof_O 	O 	0.7104	0.4833	0.1532	-0.573
Mof_O 	O 	0.7241	0.4211	0.2776	-0.588
Mof_Er	Er	0.40956	0.41458	0.18984	1.831
Mof_Er	Er	0.58414	0.53985	0.15107	1.948
Mof_Er	Er	0.59594	0.38649	0.31524	1.622
Mof_Er	Er	0.46626	0.56027	0.34475	1.994
Mof_S 	S 	0.4754	0.61245	0.98318	0.904
Mof_S 	S 	0.58684	0.70649	0.27143	0.905
Mof_S 	S 	0.38169	0.48581	0.52478	0.945
Mof_S 	S 	0.26629	0.53406	0.28266	1.011
Mof_O 	O 	0.4979	0.6109	0.0662	-0.538
Mof_O 	O 	0.55113	0.4104	0.19051	-0.664
Mof_O 	O 	0.4302	0.5404	0.9633	-0.533
Mof_O 	O 	0.59128	0.5233	0.28901	-0.626
Mof_O 	O 	0.4243	0.6797	0.9674	-0.376
Mof_O 	O 	0.46234	0.4281	0.31864	-0.66
Mof_O 	O 	0.5486	0.6167	0.9353	-0.575
Mof_O 	O 	0.45814	0.53975	0.20549	-0.7
Mof_O 	O 	0.6087	0.666	0.1983	-0.549
Mof_O 	O 	0.5066	0.6796	0.2964	-0.591
Mof_O 	O 	0.6455	0.6901	0.3321	-0.373
Mof_O 	O 	0.5813	0.7911	0.257	-0.568
Mof_O 	O 	0.3897	0.4971	0.4409	-0.537
Mof_O 	O 	0.303	0.4533	0.5426	-0.368
Mof_O 	O 	0.4442	0.4323	0.5526	-0.568
Mof_O 	O 	0.3927	0.5626	0.5633	-0.59
Mof_O 	O 	0.2959	0.4599	0.2507	-0.599
Mof_O 	O 	0.3329	0.5813	0.3118	-0.587
Mof_O 	O 	0.2104	0.5167	0.3468	-0.573
Mof_O 	O 	0.2241	0.5789	0.2224	-0.589
Mof_Er	Er	0.09044	0.08542	0.18984	1.835
Mof_Er	Er	0.91586	0.96015	0.15107	1.954
Mof_Er	Er	0.90406	0.11351	0.31524	1.617
Mof_Er	Er	0.03374	0.93973	0.34475	1.992
Mof_S 	S 	0.0246	0.88755	0.98318	0.89
Mof_S 	S 	0.91316	0.79351	0.27143	0.905
Mof_S 	S 	0.11831	0.01419	0.52478	0.948
Mof_S 	S 	0.23371	0.96594	0.28266	1.011
Mof_O 	O 	0.0021	0.8891	0.0662	-0.532
Mof_O 	O 	0.94887	0.0896	0.19051	-0.667
Mof_O 	O 	0.0698	0.9596	0.9633	-0.534
Mof_O 	O 	0.90872	0.9767	0.28901	-0.624
Mof_O 	O 	0.0757	0.8203	0.9674	-0.375
Mof_O 	O 	0.03766	0.0719	0.31864	-0.658
Mof_O 	O 	0.9514	0.8833	0.9353	-0.569
Mof_O 	O 	0.04186	0.96025	0.20549	-0.7
Mof_O 	O 	0.8913	0.834	0.1983	-0.55
Mof_O 	O 	0.9934	0.8204	0.2964	-0.591
Mof_O 	O 	0.8545	0.8099	0.3321	-0.373
Mof_O 	O 	0.9187	0.7089	0.257	-0.568
Mof_O 	O 	0.1103	0.0029	0.4409	-0.536
Mof_O 	O 	0.197	0.0467	0.5426	-0.368
Mof_O 	O 	0.0558	0.0677	0.5526	-0.568
Mof_O 	O 	0.1073	0.9374	0.5633	-0.591
Mof_O 	O 	0.2041	0.0401	0.2507	-0.599
Mof_O 	O 	0.1671	0.9187	0.3118	-0.587
Mof_O 	O 	0.2896	0.9833	0.3468	-0.573
Mof_O 	O 	0.2759	0.9211	0.2224	-0.588
Mof_Er	Er	0.40956	0.08542	0.68984	1.833
Mof_Er	Er	0.58414	0.96015	0.65107	1.949
Mof_Er	Er	0.59594	0.11351	0.81524	1.624
Mof_Er	Er	0.46626	0.93973	0.84475	1.989
Mof_S 	S 	0.4754	0.88755	0.48318	0.906
Mof_S 	S 	0.58684	0.79351	0.77143	0.905
Mof_S 	S 	0.38169	0.01419	0.02478	0.939
Mof_S 	S 	0.26629	0.96594	0.78266	1.008
Mof_O 	O 	0.4979	0.8891	0.5662	-0.538
Mof_O 	O 	0.55113	0.0896	0.69051	-0.664
Mof_O 	O 	0.4302	0.9596	0.4633	-0.533
Mof_O 	O 	0.59128	0.9767	0.78901	-0.626
Mof_O 	O 	0.4243	0.8203	0.4674	-0.376
Mof_O 	O 	0.46234	0.0719	0.81864	-0.659
Mof_O 	O 	0.5486	0.8833	0.4353	-0.575
Mof_O 	O 	0.45814	0.96025	0.70549	-0.701
Mof_O 	O 	0.6087	0.834	0.6983	-0.549
Mof_O 	O 	0.5066	0.8204	0.7964	-0.591
Mof_O 	O 	0.6455	0.8099	0.8321	-0.373
Mof_O 	O 	0.5813	0.7089	0.757	-0.567
Mof_O 	O 	0.3897	0.0029	0.9409	-0.534
Mof_O 	O 	0.303	0.0467	0.0426	-0.367
Mof_O 	O 	0.4442	0.0677	0.0526	-0.568
Mof_O 	O 	0.3927	0.9374	0.0633	-0.587
Mof_O 	O 	0.2959	0.0401	0.7507	-0.596
Mof_O 	O 	0.3329	0.9187	0.8118	-0.587
Mof_O 	O 	0.2104	0.9833	0.8468	-0.575
Mof_O 	O 	0.2241	0.9211	0.7224	-0.588
Mof_Er	Er	0.09044	0.41458	0.68984	1.83
Mof_Er	Er	0.91586	0.53985	0.65107	1.951
Mof_Er	Er	0.90406	0.38649	0.81524	1.626
Mof_Er	Er	0.03374	0.56027	0.84475	1.986
Mof_S 	S 	0.0246	0.61245	0.48318	0.906
Mof_S 	S 	0.91316	0.70649	0.77143	0.905
Mof_S 	S 	0.11831	0.48581	0.02478	0.948
Mof_S 	S 	0.23371	0.53406	0.78266	1.011
Mof_O 	O 	0.0021	0.6109	0.5662	-0.539
Mof_O 	O 	0.94887	0.4104	0.69051	-0.664
Mof_O 	O 	0.0698	0.5404	0.4633	-0.533
Mof_O 	O 	0.90872	0.5233	0.78901	-0.625
Mof_O 	O 	0.0757	0.6797	0.4674	-0.376
Mof_O 	O 	0.03766	0.4281	0.81864	-0.661
Mof_O 	O 	0.9514	0.6167	0.4353	-0.575
Mof_O 	O 	0.04186	0.53975	0.70549	-0.701
Mof_O 	O 	0.8913	0.666	0.6983	-0.549
Mof_O 	O 	0.9934	0.6796	0.7964	-0.588
Mof_O 	O 	0.8545	0.6901	0.8321	-0.373
Mof_O 	O 	0.9187	0.7911	0.757	-0.567
Mof_O 	O 	0.1103	0.4971	0.9409	-0.54
Mof_O 	O 	0.197	0.4533	0.0426	-0.368
Mof_O 	O 	0.0558	0.4323	0.0526	-0.566
Mof_O 	O 	0.1073	0.5626	0.0633	-0.589
Mof_O 	O 	0.2041	0.4599	0.7507	-0.599
Mof_O 	O 	0.1671	0.5813	0.8118	-0.587
Mof_O 	O 	0.2896	0.5167	0.8468	-0.573
Mof_O 	O 	0.2759	0.5789	0.7224	-0.588
Mof_Er	Er	0.59044	0.58542	0.81016	1.831
Mof_Er	Er	0.41586	0.46015	0.84893	1.948
Mof_Er	Er	0.40406	0.61351	0.68476	1.622
Mof_Er	Er	0.53374	0.43973	0.65525	1.994
Mof_S 	S 	0.5246	0.38755	0.01682	0.904
Mof_S 	S 	0.41316	0.29351	0.72857	0.905
Mof_S 	S 	0.61831	0.51419	0.47522	0.945
Mof_S 	S 	0.73371	0.46594	0.71734	1.011
Mof_O 	O 	0.5021	0.3891	0.9338	-0.538
Mof_O 	O 	0.44887	0.5896	0.80949	-0.664
Mof_O 	O 	0.5698	0.4596	0.0367	-0.533
Mof_O 	O 	0.40872	0.4767	0.71099	-0.626
Mof_O 	O 	0.5757	0.3203	0.0326	-0.376
Mof_O 	O 	0.53766	0.5719	0.68136	-0.66
Mof_O 	O 	0.4514	0.3833	0.0647	-0.575
Mof_O 	O 	0.54186	0.46025	0.79451	-0.7
Mof_O 	O 	0.3913	0.334	0.8017	-0.549
Mof_O 	O 	0.4934	0.3204	0.7036	-0.591
Mof_O 	O 	0.3545	0.3099	0.6679	-0.373
Mof_O 	O 	0.4187	0.2089	0.743	-0.568
Mof_O 	O 	0.6103	0.5029	0.5591	-0.537
Mof_O 	O 	0.697	0.5467	0.4574	-0.368
Mof_O 	O 	0.5558	0.5677	0.4474	-0.568
Mof_O 	O 	0.6073	0.4374	0.4367	-0.59
Mof_O 	O 	0.7041	0.5401	0.7493	-0.599
Mof_O 	O 	0.6671	0.4187	0.6882	-0.587
Mof_O 	O 	0.7896	0.4833	0.6532	-0.573
Mof_O 	O 	0.7759	0.4211	0.7776	-0.589
Mof_Er	Er	0.90956	0.91458	0.81016	1.835
Mof_Er	Er	0.08414	0.03985	0.84893	1.954
Mof_Er	Er	0.09594	0.88649	0.68476	1.617
Mof_Er	Er	0.96626	0.06027	0.65525	1.992
Mof_S 	S 	0.9754	0.11245	0.01682	0.89
Mof_S 	S 	0.08684	0.20649	0.72857	0.905
Mof_S 	S 	0.88169	0.98581	0.47522	0.948
Mof_S 	S 	0.76629	0.03406	0.71734	1.011
Mof_O 	O 	0.9979	0.1109	0.9338	-0.532
Mof_O 	O 	0.05113	0.9104	0.80949	-0.667
Mof_O 	O 	0.9302	0.0404	0.0367	-0.534
Mof_O 	O 	0.09128	0.0233	0.71099	-0.624
Mof_O 	O 	0.9243	0.1797	0.0326	-0.375
Mof_O 	O 	0.96234	0.9281	0.68136	-0.658
Mof_O 	O 	0.0486	0.1167	0.0647	-0.569
Mof_O 	O 	0.95814	0.03975	0.79451	-0.7
Mof_O 	O 	0.1087	0.166	0.8017	-0.55
Mof_O 	O 	0.0066	0.1796	0.7036	-0.591
Mof_O 	O 	0.1455	0.1901	0.6679	-0.373
Mof_O 	O 	0.0813	0.2911	0.743	-0.568
Mof_O 	O 	0.8897	0.9971	0.5591	-0.536
Mof_O 	O 	0.803	0.9533	0.4574	-0.368
Mof_O 	O 	0.9442	0.9323	0.4474	-0.568
Mof_O 	O 	0.8927	0.0626	0.4367	-0.591
Mof_O 	O 	0.7959	0.9599	0.7493	-0.599
Mof_O 	O 	0.8329	0.0813	0.6882	-0.587
Mof_O 	O 	0.7104	0.0167	0.6532	-0.573
Mof_O 	O 	0.7241	0.0789	0.7776	-0.588
_end
