data_functionalizedCrystal
_audit_creation_method	'EQeq! by Chris Wilmer'
_symmetry_space_group_name_H-M	'P1'
_symmetry_Int_Tables_number	1
_symmetry_cell_setting	triclinic
loop_
_symmetry_equiv_pos_as_xyz
  x,y,z
_cell_length_a	15.745
_cell_length_b	16.907
_cell_length_c	18.167
_cell_angle_alpha	90
_cell_angle_beta	90
_cell_angle_gamma	90
loop_
_atom_site_label
_atom_site_type_symbol
_atom_site_fract_x
_atom_site_fract_y
_atom_site_fract_z
_atom_site_charge
Mof_Zn	Zn	0.4341	0.8231	0.6444	1.229
Mof_Zn	Zn	0.4793	0.6421	0.5892	1.186
Mof_Zn	Zn	0.0659	0.1769	0.1444	1.227
Mof_Zn	Zn	0.0207	0.3579	0.0892	1.183
Mof_Zn	Zn	0.5659	0.3231	0.8556	1.228
Mof_Zn	Zn	0.5207	0.1421	0.9108	1.185
Mof_Zn	Zn	0.9341	0.6769	0.3556	1.228
Mof_Zn	Zn	0.9793	0.8579	0.4108	1.184
Mof_Zn	Zn	0.5659	0.1769	0.3556	1.228
Mof_Zn	Zn	0.5207	0.3579	0.4108	1.185
Mof_Zn	Zn	0.9341	0.8231	0.8556	1.227
Mof_Zn	Zn	0.9793	0.6421	0.9108	1.183
Mof_Zn	Zn	0.4341	0.6769	0.1444	1.228
Mof_Zn	Zn	0.4793	0.8579	0.0892	1.185
Mof_Zn	Zn	0.0659	0.3231	0.6444	1.228
Mof_Zn	Zn	0.0207	0.1421	0.5892	1.184
Mof_H 	H 	0.4694	0.7952	0.3685	0.06
Mof_H 	H 	0.5334	0.7214	0.3654	0.072
Mof_H 	H 	0.595	0.9318	0.2617	0.067
Mof_H 	H 	0.507	0.9234	0.3054	0.062
Mof_H 	H 	0.7327	0.9371	0.3333	0.06
Mof_H 	H 	0.7321	0.9322	0.4212	0.067
Mof_H 	H 	0.6729	0.7277	0.4348	0.065
Mof_H 	H 	0.696	0.8034	0.4839	0.054
Mof_H 	H 	0.5919	0.9209	0.4905	0.079
Mof_H 	H 	0.505	0.9168	0.4445	0.075
Mof_H 	H 	0.6973	0.8167	0.2588	0.061
Mof_H 	H 	0.6739	0.7358	0.3	0.067
Mof_H 	H 	0.0306	0.2048	0.8685	0.059
Mof_H 	H 	0.9666	0.2786	0.8654	0.071
Mof_H 	H 	0.905	0.0682	0.7617	0.069
Mof_H 	H 	0.993	0.0766	0.8054	0.064
Mof_H 	H 	0.7673	0.0629	0.8333	0.062
Mof_H 	H 	0.7679	0.0678	0.9212	0.069
Mof_H 	H 	0.8271	0.2723	0.9348	0.064
Mof_H 	H 	0.804	0.1966	0.9839	0.053
Mof_H 	H 	0.9081	0.0791	0.9905	0.079
Mof_H 	H 	0.995	0.0832	0.9445	0.076
Mof_H 	H 	0.8027	0.1833	0.7588	0.061
Mof_H 	H 	0.8261	0.2642	0.8	0.067
Mof_H 	H 	0.5306	0.2952	0.1315	0.061
Mof_H 	H 	0.4666	0.2214	0.1346	0.072
Mof_H 	H 	0.405	0.4318	0.2383	0.068
Mof_H 	H 	0.493	0.4234	0.1946	0.062
Mof_H 	H 	0.2673	0.4371	0.1667	0.061
Mof_H 	H 	0.2679	0.4322	0.0788	0.068
Mof_H 	H 	0.3271	0.2277	0.0652	0.065
Mof_H 	H 	0.304	0.3034	0.0161	0.053
Mof_H 	H 	0.4081	0.4209	0.0095	0.079
Mof_H 	H 	0.495	0.4168	0.0555	0.076
Mof_H 	H 	0.3027	0.3167	0.2412	0.061
Mof_H 	H 	0.3261	0.2358	0.2	0.067
Mof_H 	H 	0.9694	0.7048	0.6315	0.055
Mof_H 	H 	0.0334	0.7786	0.6346	0.071
Mof_H 	H 	0.095	0.5682	0.7383	0.068
Mof_H 	H 	0.007	0.5766	0.6946	0.063
Mof_H 	H 	0.2327	0.5629	0.6667	0.061
Mof_H 	H 	0.2321	0.5678	0.5788	0.068
Mof_H 	H 	0.1729	0.7723	0.5652	0.065
Mof_H 	H 	0.196	0.6966	0.5161	0.054
Mof_H 	H 	0.0919	0.5791	0.5095	0.079
Mof_H 	H 	0.005	0.5832	0.5555	0.075
Mof_H 	H 	0.1973	0.6833	0.7412	0.061
Mof_H 	H 	0.1739	0.7642	0.7	0.068
Mof_H 	H 	0.5306	0.2048	0.6315	0.06
Mof_H 	H 	0.4666	0.2786	0.6346	0.072
Mof_H 	H 	0.405	0.0682	0.7383	0.067
Mof_H 	H 	0.493	0.0766	0.6946	0.062
Mof_H 	H 	0.2673	0.0629	0.6667	0.06
Mof_H 	H 	0.2679	0.0678	0.5788	0.067
Mof_H 	H 	0.3271	0.2723	0.5652	0.065
Mof_H 	H 	0.304	0.1966	0.5161	0.054
Mof_H 	H 	0.4081	0.0791	0.5095	0.079
Mof_H 	H 	0.495	0.0832	0.5555	0.075
Mof_H 	H 	0.3027	0.1833	0.7412	0.061
Mof_H 	H 	0.3261	0.2642	0.7	0.067
Mof_H 	H 	0.9694	0.7952	0.1315	0.059
Mof_H 	H 	0.0334	0.7214	0.1346	0.071
Mof_H 	H 	0.095	0.9318	0.2383	0.069
Mof_H 	H 	0.007	0.9234	0.1946	0.064
Mof_H 	H 	0.2327	0.9371	0.1667	0.062
Mof_H 	H 	0.2321	0.9322	0.0788	0.069
Mof_H 	H 	0.1729	0.7277	0.0652	0.064
Mof_H 	H 	0.196	0.8034	0.0161	0.053
Mof_H 	H 	0.0919	0.9209	0.0095	0.079
Mof_H 	H 	0.005	0.9168	0.0555	0.076
Mof_H 	H 	0.1973	0.8167	0.2412	0.061
Mof_H 	H 	0.1739	0.7358	0.2	0.067
Mof_H 	H 	0.4694	0.7048	0.8685	0.061
Mof_H 	H 	0.5334	0.7786	0.8654	0.072
Mof_H 	H 	0.595	0.5682	0.7617	0.068
Mof_H 	H 	0.507	0.5766	0.8054	0.062
Mof_H 	H 	0.7327	0.5629	0.8333	0.061
Mof_H 	H 	0.7321	0.5678	0.9212	0.068
Mof_H 	H 	0.6729	0.7723	0.9348	0.065
Mof_H 	H 	0.696	0.6966	0.9839	0.053
Mof_H 	H 	0.5919	0.5791	0.9905	0.079
Mof_H 	H 	0.505	0.5832	0.9445	0.076
Mof_H 	H 	0.6973	0.6833	0.7588	0.061
Mof_H 	H 	0.6739	0.7642	0.8	0.067
Mof_H 	H 	0.0306	0.2952	0.3685	0.055
Mof_H 	H 	0.9666	0.2214	0.3654	0.071
Mof_H 	H 	0.905	0.4318	0.2617	0.068
Mof_H 	H 	0.993	0.4234	0.3054	0.063
Mof_H 	H 	0.7673	0.4371	0.3333	0.061
Mof_H 	H 	0.7679	0.4322	0.4212	0.068
Mof_H 	H 	0.8271	0.2277	0.4348	0.065
Mof_H 	H 	0.804	0.3034	0.4839	0.054
Mof_H 	H 	0.9081	0.4209	0.4905	0.079
Mof_H 	H 	0.995	0.4168	0.4445	0.075
Mof_H 	H 	0.8027	0.3167	0.2588	0.061
Mof_H 	H 	0.8261	0.2358	0.3	0.068
Mof_C 	C 	0.5303	0.7701	0.5059	0.391
Mof_C 	C 	0.5736	0.8092	0.4403	-0.021
Mof_C 	C 	0.53	0.7798	0.3684	-0.113
Mof_C 	C 	0.5751	0.8169	0.3015	-0.015
Mof_C 	C 	0.5676	0.9079	0.3054	-0.123
Mof_C 	C 	0.6114	0.939	0.3768	0.011
Mof_C 	C 	0.7037	0.9129	0.376	-0.119
Mof_C 	C 	0.7128	0.8236	0.3718	-0.023
Mof_C 	C 	0.6679	0.786	0.4379	-0.108
Mof_C 	C 	0.5657	0.9014	0.4444	-0.128
Mof_C 	C 	0.6688	0.7941	0.3026	-0.108
Mof_C 	C 	0.5328	0.7899	0.2306	0.36
Mof_C 	C 	0.6064	0.0289	0.3818	0.283
Mof_C 	C 	0.8061	0.7993	0.3741	0.393
Mof_C 	C 	0.9697	0.2299	0.0059	0.396
Mof_C 	C 	0.9264	0.1908	0.9403	-0.025
Mof_C 	C 	0.97	0.2202	0.8684	-0.111
Mof_C 	C 	0.9249	0.1831	0.8015	-0.015
Mof_C 	C 	0.9324	0.0921	0.8054	-0.126
Mof_C 	C 	0.8886	0.061	0.8768	0.017
Mof_C 	C 	0.7963	0.0871	0.876	-0.122
Mof_C 	C 	0.7872	0.1764	0.8718	-0.022
Mof_C 	C 	0.8321	0.214	0.9379	-0.107
Mof_C 	C 	0.9343	0.0986	0.9444	-0.129
Mof_C 	C 	0.8312	0.2059	0.8026	-0.109
Mof_C 	C 	0.9672	0.2101	0.7306	0.361
Mof_C 	C 	0.8936	0.9711	0.8818	0.276
Mof_C 	C 	0.6939	0.2007	0.8741	0.393
Mof_C 	C 	0.4697	0.2701	0.9941	0.391
Mof_C 	C 	0.4264	0.3092	0.0597	-0.021
Mof_C 	C 	0.47	0.2798	0.1316	-0.114
Mof_C 	C 	0.4249	0.3169	0.1985	-0.015
Mof_C 	C 	0.4324	0.4079	0.1946	-0.124
Mof_C 	C 	0.3886	0.439	0.1232	0.013
Mof_C 	C 	0.2963	0.4129	0.124	-0.12
Mof_C 	C 	0.2872	0.3236	0.1282	-0.022
Mof_C 	C 	0.3321	0.286	0.0621	-0.108
Mof_C 	C 	0.4343	0.4014	0.0556	-0.129
Mof_C 	C 	0.3312	0.2941	0.1974	-0.109
Mof_C 	C 	0.4672	0.2899	0.2694	0.36
Mof_C 	C 	0.3936	0.5289	0.1182	0.281
Mof_C 	C 	0.1939	0.2993	0.1259	0.393
Mof_C 	C 	0.0303	0.7299	0.4941	0.392
Mof_C 	C 	0.0736	0.6908	0.5597	-0.023
Mof_C 	C 	0.03	0.7202	0.6316	-0.104
Mof_C 	C 	0.0751	0.6831	0.6985	-0.019
Mof_C 	C 	0.0676	0.5921	0.6946	-0.123
Mof_C 	C 	0.1114	0.561	0.6232	0.012
Mof_C 	C 	0.2037	0.5871	0.624	-0.12
Mof_C 	C 	0.2128	0.6764	0.6282	-0.023
Mof_C 	C 	0.1679	0.714	0.5621	-0.107
Mof_C 	C 	0.0657	0.5986	0.5556	-0.128
Mof_C 	C 	0.1688	0.7059	0.6974	-0.107
Mof_C 	C 	0.0328	0.7101	0.7694	0.368
Mof_C 	C 	0.1064	0.4711	0.6182	0.281
Mof_C 	C 	0.3061	0.7007	0.6259	0.393
Mof_C 	C 	0.4697	0.2299	0.4941	0.391
Mof_C 	C 	0.4264	0.1908	0.5597	-0.021
Mof_C 	C 	0.47	0.2202	0.6316	-0.113
Mof_C 	C 	0.4249	0.1831	0.6985	-0.015
Mof_C 	C 	0.4324	0.0921	0.6946	-0.123
Mof_C 	C 	0.3886	0.061	0.6232	0.011
Mof_C 	C 	0.2963	0.0871	0.624	-0.119
Mof_C 	C 	0.2872	0.1764	0.6282	-0.023
Mof_C 	C 	0.3321	0.214	0.5621	-0.108
Mof_C 	C 	0.4343	0.0986	0.5556	-0.128
Mof_C 	C 	0.3312	0.2059	0.6974	-0.108
Mof_C 	C 	0.4672	0.2101	0.7694	0.36
Mof_C 	C 	0.3936	0.9711	0.6182	0.283
Mof_C 	C 	0.1939	0.2007	0.6259	0.393
Mof_C 	C 	0.0303	0.7701	0.9941	0.396
Mof_C 	C 	0.0736	0.8092	0.0597	-0.025
Mof_C 	C 	0.03	0.7798	0.1316	-0.111
Mof_C 	C 	0.0751	0.8169	0.1985	-0.015
Mof_C 	C 	0.0676	0.9079	0.1946	-0.126
Mof_C 	C 	0.1114	0.939	0.1232	0.017
Mof_C 	C 	0.2037	0.9129	0.124	-0.122
Mof_C 	C 	0.2128	0.8236	0.1282	-0.022
Mof_C 	C 	0.1679	0.786	0.0621	-0.107
Mof_C 	C 	0.0657	0.9014	0.0556	-0.129
Mof_C 	C 	0.1688	0.7941	0.1974	-0.109
Mof_C 	C 	0.0328	0.7899	0.2694	0.361
Mof_C 	C 	0.1064	0.0289	0.1182	0.276
Mof_C 	C 	0.3061	0.7993	0.1259	0.393
Mof_C 	C 	0.5303	0.7299	0.0059	0.391
Mof_C 	C 	0.5736	0.6908	0.9403	-0.021
Mof_C 	C 	0.53	0.7202	0.8684	-0.114
Mof_C 	C 	0.5751	0.6831	0.8015	-0.015
Mof_C 	C 	0.5676	0.5921	0.8054	-0.124
Mof_C 	C 	0.6114	0.561	0.8768	0.013
Mof_C 	C 	0.7037	0.5871	0.876	-0.12
Mof_C 	C 	0.7128	0.6764	0.8718	-0.022
Mof_C 	C 	0.6679	0.714	0.9379	-0.108
Mof_C 	C 	0.5657	0.5986	0.9444	-0.129
Mof_C 	C 	0.6688	0.7059	0.8026	-0.109
Mof_C 	C 	0.5328	0.7101	0.7306	0.36
Mof_C 	C 	0.6064	0.4711	0.8818	0.281
Mof_C 	C 	0.8061	0.7007	0.8741	0.393
Mof_C 	C 	0.9697	0.2701	0.5059	0.392
Mof_C 	C 	0.9264	0.3092	0.4403	-0.023
Mof_C 	C 	0.97	0.2798	0.3684	-0.104
Mof_C 	C 	0.9249	0.3169	0.3015	-0.019
Mof_C 	C 	0.9324	0.4079	0.3054	-0.123
Mof_C 	C 	0.8886	0.439	0.3768	0.012
Mof_C 	C 	0.7963	0.4129	0.376	-0.12
Mof_C 	C 	0.7872	0.3236	0.3718	-0.023
Mof_C 	C 	0.8321	0.286	0.4379	-0.107
Mof_C 	C 	0.9343	0.4014	0.4444	-0.128
Mof_C 	C 	0.8312	0.2941	0.3026	-0.107
Mof_C 	C 	0.9672	0.2899	0.2306	0.368
Mof_C 	C 	0.8936	0.5289	0.3818	0.281
Mof_C 	C 	0.6939	0.2993	0.3741	0.393
Mof_O 	O 	0.5081	0.8138	0.5579	-0.515
Mof_O 	O 	0.5208	0.6976	0.504	-0.539
Mof_O 	O 	0.4898	0.7283	0.2305	-0.486
Mof_O 	O 	0.5497	0.8304	0.1739	-0.523
Mof_O 	O 	0.5666	0.066	0.3301	-0.441
Mof_O 	O 	0.6368	0.0643	0.4338	-0.324
Mof_O 	O 	0.8593	0.8502	0.392	-0.557
Mof_O 	O 	0.8227	0.7295	0.3582	-0.5
Mof_O 	O 	0.9919	0.1862	0.0579	-0.511
Mof_O 	O 	0.9792	0.3024	0.004	-0.536
Mof_O 	O 	0.0102	0.2717	0.7305	-0.487
Mof_O 	O 	0.9503	0.1696	0.6739	-0.522
Mof_O 	O 	0.9334	0.934	0.8301	-0.442
Mof_O 	O 	0.8632	0.9357	0.9338	-0.326
Mof_O 	O 	0.6407	0.1498	0.892	-0.555
Mof_O 	O 	0.6773	0.2705	0.8582	-0.5
Mof_O 	O 	0.4919	0.3138	0.9421	-0.515
Mof_O 	O 	0.4792	0.1976	0.996	-0.539
Mof_O 	O 	0.5102	0.2283	0.2695	-0.485
Mof_O 	O 	0.4503	0.3304	0.3261	-0.523
Mof_O 	O 	0.4334	0.566	0.1699	-0.441
Mof_O 	O 	0.3632	0.5643	0.0662	-0.325
Mof_O 	O 	0.1407	0.3502	0.108	-0.557
Mof_O 	O 	0.1773	0.2295	0.1418	-0.501
Mof_O 	O 	0.0081	0.6862	0.4421	-0.515
Mof_O 	O 	0.0208	0.8024	0.496	-0.537
Mof_O 	O 	0.9898	0.7717	0.7695	-0.492
Mof_O 	O 	0.0497	0.6696	0.8261	-0.523
Mof_O 	O 	0.0666	0.434	0.6699	-0.441
Mof_O 	O 	0.1368	0.4357	0.5662	-0.325
Mof_O 	O 	0.3593	0.6498	0.608	-0.555
Mof_O 	O 	0.3227	0.7705	0.6418	-0.5
Mof_O 	O 	0.4919	0.1862	0.4421	-0.515
Mof_O 	O 	0.4792	0.3024	0.496	-0.539
Mof_O 	O 	0.5102	0.2717	0.7695	-0.486
Mof_O 	O 	0.4503	0.1696	0.8261	-0.523
Mof_O 	O 	0.4334	0.934	0.6699	-0.441
Mof_O 	O 	0.3632	0.9357	0.5662	-0.324
Mof_O 	O 	0.1407	0.1498	0.608	-0.557
Mof_O 	O 	0.1773	0.2705	0.6418	-0.5
Mof_O 	O 	0.0081	0.8138	0.9421	-0.511
Mof_O 	O 	0.0208	0.6976	0.996	-0.536
Mof_O 	O 	0.9898	0.7283	0.2695	-0.487
Mof_O 	O 	0.0497	0.8304	0.3261	-0.522
Mof_O 	O 	0.0666	0.066	0.1699	-0.442
Mof_O 	O 	0.1368	0.0643	0.0662	-0.326
Mof_O 	O 	0.3593	0.8502	0.108	-0.555
Mof_O 	O 	0.3227	0.7295	0.1418	-0.5
Mof_O 	O 	0.5081	0.6862	0.0579	-0.515
Mof_O 	O 	0.5208	0.8024	0.004	-0.539
Mof_O 	O 	0.4898	0.7717	0.7305	-0.485
Mof_O 	O 	0.5497	0.6696	0.6739	-0.523
Mof_O 	O 	0.5666	0.434	0.8301	-0.441
Mof_O 	O 	0.6368	0.4357	0.9338	-0.325
Mof_O 	O 	0.8593	0.6498	0.892	-0.557
Mof_O 	O 	0.8227	0.7705	0.8582	-0.501
Mof_O 	O 	0.9919	0.3138	0.5579	-0.515
Mof_O 	O 	0.9792	0.1976	0.504	-0.537
Mof_O 	O 	0.0102	0.2283	0.2305	-0.492
Mof_O 	O 	0.9503	0.3304	0.1739	-0.523
Mof_O 	O 	0.9334	0.566	0.3301	-0.441
Mof_O 	O 	0.8632	0.5643	0.4338	-0.325
Mof_O 	O 	0.6407	0.3502	0.392	-0.555
Mof_O 	O 	0.6773	0.2295	0.3582	-0.5
_end
