data_functionalizedCrystal
_audit_creation_method	'EQeq! by Chris Wilmer'
_symmetry_space_group_name_H-M	'P1'
_symmetry_Int_Tables_number	1
_symmetry_cell_setting	triclinic
loop_
_symmetry_equiv_pos_as_xyz
  x,y,z
_cell_length_a	24.836
_cell_length_b	9.6903
_cell_length_c	21.6527
_cell_angle_alpha	90
_cell_angle_beta	103.244
_cell_angle_gamma	90
loop_
_atom_site_label
_atom_site_type_symbol
_atom_site_fract_x
_atom_site_fract_y
_atom_site_fract_z
_atom_site_charge
Mof_Cu	Cu	0.70213	0.08463	0.53012	0.923
Mof_Cl	Cl	0.7141	0.3185	0.8015	-5.817
Mof_O 	O 	0.73536	0.2999	0.56535	-0.332
Mof_O 	O 	0.81001	0.4248	0.56186	-0.342
Mof_O 	O 	0.79391	0.5509	0.8801	-0.408
Mof_O 	O 	0.8574	0.3823	0.89941	-0.414
Mof_N 	N 	0.62457	0.1554	0.51774	-0.218
Mof_N 	N 	0.2767	0.4963	0.54019	-0.211
Mof_C 	C 	0.77691	0.3692	0.59039	0.181
Mof_C 	C 	0.78861	0.3904	0.66019	0.26
Mof_C 	C 	0.8112	0.4316	0.79378	-0.735
Mof_C 	C 	0.75115	0.3509	0.695	1.654
Mof_H 	H 	0.7174	0.3092	0.6737	-0.514
Mof_C 	C 	0.7614	0.3704	0.7611	0.495
Mof_C 	C 	0.8509	0.4716	0.759	0.867
Mof_H 	H 	0.885	0.5114	0.7804	-0.291
Mof_C 	C 	0.8394	0.4519	0.6927	-0.125
Mof_H 	H 	0.8657	0.4799	0.6695	-0.051
Mof_C 	C 	0.82246	0.4524	0.86397	0.631
Mof_C 	C 	0.58318	0.1078	0.4723	0.11
Mof_H 	H 	0.5916	0.0455	0.442	0.032
Mof_C 	C 	0.52846	0.1451	0.4672	-0.165
Mof_H 	H 	0.5	0.1067	0.4348	0.127
Mof_C 	C 	0.51565	0.2394	0.51004	0.144
Mof_C 	C 	0.55924	0.2899	0.5566	-0.153
Mof_H 	H 	0.5525	0.355	0.5868	0.132
Mof_C 	C 	0.61211	0.2456	0.5588	0.119
Mof_H 	H 	0.6413	0.281	0.5912	0.034
Mof_C 	C 	0.45756	0.2776	0.5061	-0.082
Mof_H 	H 	0.4298	0.2356	0.4741	0.087
Mof_C 	C 	0.44182	0.3675	0.5448	-0.064
Mof_H 	H 	0.47	0.4097	0.5762	0.088
Mof_C 	C 	0.38444	0.4068	0.543	0.156
Mof_C 	C 	0.37364	0.5029	0.5859	-0.11
Mof_H 	H 	0.4033	0.5417	0.6167	0.143
Mof_C 	C 	0.31997	0.5423	0.58412	0.163
Mof_H 	H 	0.3134	0.6048	0.6154	0.081
Mof_C 	C 	0.28679	0.4021	0.49841	0.099
Mof_H 	H 	0.2565	0.3673	0.4673	-0.059
Mof_C 	C 	0.33899	0.354	0.49873	-0.171
Mof_H 	H 	0.3441	0.2856	0.4692	0.064
Mof_Cl	Cl	0.7346	0.2493	0.8096	8.553
Mof_Cl	Cl	0.8917	0.6221	0.7936	-0.626
Mof_Cl	Cl	0.826	0.6561	0.6481	-0.863
Mof_C 	C 	0.75821	0.3149	0.69795	0.013
Mof_H 	H 	0.7304	0.2511	0.6786	0.197
Mof_C 	C 	0.77013	0.3364	0.76383	0.622
Mof_C 	C 	0.84106	0.5046	0.75601	0.176
Mof_H 	H 	0.869	0.568	0.7754	0.456
Mof_C 	C 	0.82979	0.4841	0.68999	-0.141
Mof_H 	H 	0.8502	0.5341	0.6652	0.364
Mof_H 	H 	0.7502	0.2859	0.7889	-2.863
Mof_C 	C 	0.7782	0.2874	0.7003	-2.646
Mof_H 	H 	0.7638	0.2017	0.6826	0.902
Mof_C 	C 	0.7885	0.3058	0.7666	1.274
Mof_H 	H 	0.7801	0.2341	0.7929	-0.998
Mof_C 	C 	0.8217	0.5388	0.7535	-1.088
Mof_H 	H 	0.8356	0.6249	0.7711	0.379
Mof_C 	C 	0.8114	0.5178	0.6875	-0.029
Mof_Cu	Cu	0.20213	0.58463	0.53012	0.922
Mof_Cl	Cl	0.2141	0.8185	0.8015	-5.816
Mof_O 	O 	0.23536	0.7999	0.56535	-0.333
Mof_O 	O 	0.31001	0.9248	0.56186	-0.344
Mof_O 	O 	0.29391	0.0509	0.8801	-0.41
Mof_O 	O 	0.3574	0.8823	0.89941	-0.415
Mof_N 	N 	0.12457	0.6554	0.51774	-0.216
Mof_N 	N 	0.7767	0.9963	0.54019	-0.211
Mof_C 	C 	0.27691	0.8692	0.59039	0.181
Mof_C 	C 	0.28861	0.8904	0.66019	0.259
Mof_C 	C 	0.3112	0.9316	0.79378	-0.734
Mof_C 	C 	0.25115	0.8509	0.695	1.653
Mof_H 	H 	0.2174	0.8092	0.6737	-0.514
Mof_C 	C 	0.2614	0.8704	0.7611	0.496
Mof_C 	C 	0.3509	0.9716	0.759	0.864
Mof_H 	H 	0.385	0.0114	0.7804	-0.292
Mof_C 	C 	0.3394	0.9519	0.6927	-0.123
Mof_H 	H 	0.3657	0.9799	0.6695	-0.052
Mof_C 	C 	0.32246	0.9524	0.86397	0.632
Mof_C 	C 	0.08318	0.6078	0.4723	0.103
Mof_H 	H 	0.0916	0.5455	0.442	0.034
Mof_C 	C 	0.02846	0.6451	0.4672	-0.154
Mof_H 	H 	-1.12062e-17	0.6067	0.4348	0.12
Mof_C 	C 	0.01565	0.7394	0.51004	0.123
Mof_C 	C 	0.05924	0.7899	0.5566	-0.142
Mof_H 	H 	0.0525	0.855	0.5868	0.126
Mof_C 	C 	0.11211	0.7456	0.5588	0.112
Mof_H 	H 	0.1413	0.781	0.5912	0.036
Mof_C 	C 	0.95756	0.7776	0.5061	-0.059
Mof_H 	H 	0.9298	0.7356	0.4741	0.081
Mof_C 	C 	0.94182	0.8675	0.5448	-0.077
Mof_H 	H 	0.97	0.9097	0.5762	0.095
Mof_C 	C 	0.88444	0.9068	0.543	0.164
Mof_C 	C 	0.87364	0.0029	0.5859	-0.115
Mof_H 	H 	0.9033	0.0417	0.6167	0.146
Mof_C 	C 	0.81997	0.0423	0.58412	0.165
Mof_H 	H 	0.8134	0.1048	0.6154	0.081
Mof_C 	C 	0.78679	0.9021	0.49841	0.101
Mof_H 	H 	0.7565	0.8673	0.4673	-0.059
Mof_C 	C 	0.83899	0.854	0.49873	-0.175
Mof_H 	H 	0.8441	0.7856	0.4692	0.066
Mof_Cl	Cl	0.2346	0.7493	0.8096	8.55
Mof_Cl	Cl	0.3917	0.1221	0.7936	-0.632
Mof_Cl	Cl	0.326	0.1561	0.6481	-0.863
Mof_C 	C 	0.25821	0.8149	0.69795	0.013
Mof_H 	H 	0.2304	0.7511	0.6786	0.197
Mof_C 	C 	0.27013	0.8364	0.76383	0.622
Mof_C 	C 	0.34106	0.0046	0.75601	0.176
Mof_H 	H 	0.369	0.068	0.7754	0.46
Mof_C 	C 	0.32979	0.9841	0.68999	-0.14
Mof_H 	H 	0.3502	0.0341	0.6652	0.364
Mof_H 	H 	0.2502	0.7859	0.7889	-2.862
Mof_C 	C 	0.2782	0.7874	0.7003	-2.646
Mof_H 	H 	0.2638	0.7017	0.6826	0.902
Mof_C 	C 	0.2885	0.8058	0.7666	1.272
Mof_H 	H 	0.2801	0.7341	0.7929	-0.998
Mof_C 	C 	0.3217	0.0388	0.7535	-1.087
Mof_H 	H 	0.3356	0.1249	0.7711	0.378
Mof_C 	C 	0.3114	0.0178	0.6875	-0.03
Mof_Cu	Cu	0.29787	0.08463	0.96988	0.922
Mof_Cl	Cl	0.2859	0.3185	0.6985	-5.82
Mof_O 	O 	0.26464	0.2999	0.93465	-0.333
Mof_O 	O 	0.18999	0.4248	0.93814	-0.343
Mof_O 	O 	0.20609	0.5509	0.6199	-0.409
Mof_O 	O 	0.1426	0.3823	0.60059	-0.416
Mof_N 	N 	0.37543	0.1554	0.98226	-0.218
Mof_N 	N 	0.7233	0.4963	0.95981	-0.211
Mof_C 	C 	0.22309	0.3692	0.90961	0.181
Mof_C 	C 	0.21139	0.3904	0.83981	0.259
Mof_C 	C 	0.1888	0.4316	0.70622	-0.735
Mof_C 	C 	0.24885	0.3509	0.805	1.655
Mof_H 	H 	0.2826	0.3092	0.8263	-0.514
Mof_C 	C 	0.2386	0.3704	0.7389	0.496
Mof_C 	C 	0.1491	0.4716	0.741	0.865
Mof_H 	H 	0.115	0.5114	0.7196	-0.293
Mof_C 	C 	0.1606	0.4519	0.8073	-0.126
Mof_H 	H 	0.1343	0.4799	0.8305	-0.052
Mof_C 	C 	0.17754	0.4524	0.63603	0.631
Mof_C 	C 	0.41682	0.1078	0.0277	0.11
Mof_H 	H 	0.4084	0.0455	0.058	0.032
Mof_C 	C 	0.47154	0.1451	0.0328	-0.164
Mof_H 	H 	0.5	0.1067	0.0652	0.127
Mof_C 	C 	0.48435	0.2394	0.98996	0.144
Mof_C 	C 	0.44076	0.2899	0.9434	-0.153
Mof_H 	H 	0.4475	0.355	0.9132	0.132
Mof_C 	C 	0.38789	0.2456	0.9412	0.119
Mof_H 	H 	0.3587	0.281	0.9088	0.034
Mof_C 	C 	0.54244	0.2776	0.9939	-0.082
Mof_H 	H 	0.5702	0.2356	0.0259	0.088
Mof_C 	C 	0.55818	0.3675	0.9552	-0.063
Mof_H 	H 	0.53	0.4097	0.9238	0.088
Mof_C 	C 	0.61556	0.4068	0.957	0.155
Mof_C 	C 	0.62636	0.5029	0.9141	-0.109
Mof_H 	H 	0.5967	0.5417	0.8833	0.143
Mof_C 	C 	0.68003	0.5423	0.91588	0.163
Mof_H 	H 	0.6866	0.6048	0.8846	0.081
Mof_C 	C 	0.71321	0.4021	0.00159	0.099
Mof_H 	H 	0.7435	0.3673	0.0327	-0.059
Mof_C 	C 	0.66101	0.354	0.00127	-0.17
Mof_H 	H 	0.6559	0.2856	0.0308	0.064
Mof_Cl	Cl	0.2654	0.2493	0.6904	8.555
Mof_Cl	Cl	0.1083	0.6221	0.7064	-0.636
Mof_Cl	Cl	0.174	0.6561	0.8519	-0.863
Mof_C 	C 	0.24179	0.3149	0.80205	0.013
Mof_H 	H 	0.2696	0.2511	0.8214	0.197
Mof_C 	C 	0.22987	0.3364	0.73617	0.622
Mof_C 	C 	0.15894	0.5046	0.74399	0.176
Mof_H 	H 	0.131	0.568	0.7246	0.463
Mof_C 	C 	0.17021	0.4841	0.81001	-0.141
Mof_H 	H 	0.1498	0.5341	0.8348	0.364
Mof_H 	H 	0.2498	0.2859	0.7111	-2.864
Mof_C 	C 	0.2218	0.2874	0.7997	-2.648
Mof_H 	H 	0.2362	0.2017	0.8174	0.902
Mof_C 	C 	0.2115	0.3058	0.7334	1.273
Mof_H 	H 	0.2199	0.2341	0.7071	-0.998
Mof_C 	C 	0.1783	0.5388	0.7465	-1.088
Mof_H 	H 	0.1644	0.6249	0.7289	0.378
Mof_C 	C 	0.1886	0.5178	0.8125	-0.027
Mof_Cu	Cu	0.79787	0.58463	0.96988	0.922
Mof_Cl	Cl	0.7859	0.8185	0.6985	-5.824
Mof_O 	O 	0.76464	0.7999	0.93465	-0.333
Mof_O 	O 	0.68999	0.9248	0.93814	-0.343
Mof_O 	O 	0.70609	0.0509	0.6199	-0.41
Mof_O 	O 	0.6426	0.8823	0.60059	-0.416
Mof_N 	N 	0.87543	0.6554	0.98226	-0.216
Mof_N 	N 	0.2233	0.9963	0.95981	-0.209
Mof_C 	C 	0.72309	0.8692	0.90961	0.181
Mof_C 	C 	0.71139	0.8904	0.83981	0.26
Mof_C 	C 	0.6888	0.9316	0.70622	-0.735
Mof_C 	C 	0.74885	0.8509	0.805	1.656
Mof_H 	H 	0.7826	0.8092	0.8263	-0.515
Mof_C 	C 	0.7386	0.8704	0.7389	0.497
Mof_C 	C 	0.6491	0.9716	0.741	0.867
Mof_H 	H 	0.615	0.0114	0.7196	-0.292
Mof_C 	C 	0.6606	0.9519	0.8073	-0.125
Mof_H 	H 	0.6343	0.9799	0.8305	-0.051
Mof_C 	C 	0.67754	0.9524	0.63603	0.632
Mof_C 	C 	0.91682	0.6078	0.0277	0.102
Mof_H 	H 	0.9084	0.5455	0.058	0.036
Mof_C 	C 	0.97154	0.6451	0.0328	-0.146
Mof_H 	H 	2.61955e-34	0.6067	0.0652	0.114
Mof_C 	C 	0.98435	0.7394	0.98996	0.148
Mof_C 	C 	0.94076	0.7899	0.9434	-0.153
Mof_H 	H 	0.9475	0.855	0.9132	0.135
Mof_C 	C 	0.88789	0.7456	0.9412	0.119
Mof_H 	H 	0.8587	0.781	0.9088	0.034
Mof_C 	C 	0.04244	0.7776	0.9939	-0.09
Mof_H 	H 	0.0702	0.7356	0.0259	0.088
Mof_C 	C 	0.05818	0.8675	0.9552	-0.061
Mof_H 	H 	0.03	0.9097	0.9238	0.084
Mof_C 	C 	0.11556	0.9068	0.957	0.156
Mof_C 	C 	0.12636	0.0029	0.9141	-0.11
Mof_H 	H 	0.0967	0.0417	0.8833	0.142
Mof_C 	C 	0.18003	0.0423	0.91588	0.162
Mof_H 	H 	0.1866	0.1048	0.8846	0.081
Mof_C 	C 	0.21321	0.9021	0.00159	0.098
Mof_H 	H 	0.2435	0.8673	0.0327	-0.059
Mof_C 	C 	0.16101	0.854	0.00127	-0.171
Mof_H 	H 	0.1559	0.7856	0.0308	0.064
Mof_Cl	Cl	0.7654	0.7493	0.6904	8.562
Mof_Cl	Cl	0.6083	0.1221	0.7064	-0.631
Mof_Cl	Cl	0.674	0.1561	0.8519	-0.863
Mof_C 	C 	0.74179	0.8149	0.80205	0.013
Mof_H 	H 	0.7696	0.7511	0.8214	0.197
Mof_C 	C 	0.72987	0.8364	0.73617	0.623
Mof_C 	C 	0.65894	0.0046	0.74399	0.176
Mof_H 	H 	0.631	0.068	0.7246	0.46
Mof_C 	C 	0.67021	0.9841	0.81001	-0.141
Mof_H 	H 	0.6498	0.0341	0.8348	0.363
Mof_H 	H 	0.7498	0.7859	0.7111	-2.866
Mof_C 	C 	0.7218	0.7874	0.7997	-2.65
Mof_H 	H 	0.7362	0.7017	0.8174	0.903
Mof_C 	C 	0.7115	0.8058	0.7334	1.274
Mof_H 	H 	0.7199	0.7341	0.7071	-0.999
Mof_C 	C 	0.6783	0.0388	0.7465	-1.089
Mof_H 	H 	0.6644	0.1249	0.7289	0.379
Mof_C 	C 	0.6886	0.0178	0.8125	-0.028
Mof_Cu	Cu	0.29787	0.91537	0.46988	0.922
Mof_Cl	Cl	0.2859	0.6815	0.1985	-5.821
Mof_O 	O 	0.26464	0.7001	0.43465	-0.333
Mof_O 	O 	0.18999	0.5752	0.43814	-0.344
Mof_O 	O 	0.20609	0.4491	0.1199	-0.409
Mof_O 	O 	0.1426	0.6177	0.10059	-0.416
Mof_N 	N 	0.37543	0.8446	0.48226	-0.218
Mof_N 	N 	0.7233	0.5037	0.45981	-0.211
Mof_C 	C 	0.22309	0.6308	0.40961	0.181
Mof_C 	C 	0.21139	0.6096	0.33981	0.259
Mof_C 	C 	0.1888	0.5684	0.20622	-0.735
Mof_C 	C 	0.24885	0.6491	0.305	1.655
Mof_H 	H 	0.2826	0.6908	0.3263	-0.515
Mof_C 	C 	0.2386	0.6296	0.2389	0.496
Mof_C 	C 	0.1491	0.5284	0.241	0.865
Mof_H 	H 	0.115	0.4886	0.2196	-0.293
Mof_C 	C 	0.1606	0.5481	0.3073	-0.126
Mof_H 	H 	0.1343	0.5201	0.3305	-0.052
Mof_C 	C 	0.17754	0.5476	0.13603	0.631
Mof_C 	C 	0.41682	0.8922	0.5277	0.11
Mof_H 	H 	0.4084	0.9545	0.558	0.032
Mof_C 	C 	0.47154	0.8549	0.5328	-0.165
Mof_H 	H 	0.5	0.8933	0.5652	0.127
Mof_C 	C 	0.48435	0.7606	0.48996	0.144
Mof_C 	C 	0.44076	0.7101	0.4434	-0.153
Mof_H 	H 	0.4475	0.645	0.4132	0.132
Mof_C 	C 	0.38789	0.7544	0.4412	0.119
Mof_H 	H 	0.3587	0.719	0.4088	0.034
Mof_C 	C 	0.54244	0.7224	0.4939	-0.082
Mof_H 	H 	0.5702	0.7644	0.5259	0.087
Mof_C 	C 	0.55818	0.6325	0.4552	-0.064
Mof_H 	H 	0.53	0.5903	0.4238	0.088
Mof_C 	C 	0.61556	0.5932	0.457	0.156
Mof_C 	C 	0.62636	0.4971	0.4141	-0.11
Mof_H 	H 	0.5967	0.4583	0.3833	0.143
Mof_C 	C 	0.68003	0.4577	0.41588	0.163
Mof_H 	H 	0.6866	0.3952	0.3846	0.081
Mof_C 	C 	0.71321	0.5979	0.50159	0.099
Mof_H 	H 	0.7435	0.6327	0.5327	-0.059
Mof_C 	C 	0.66101	0.646	0.50127	-0.171
Mof_H 	H 	0.6559	0.7144	0.5308	0.064
Mof_Cl	Cl	0.2654	0.7507	0.1904	8.557
Mof_Cl	Cl	0.1083	0.3779	0.2064	-0.636
Mof_Cl	Cl	0.174	0.3439	0.3519	-0.864
Mof_C 	C 	0.24179	0.6851	0.30205	0.013
Mof_H 	H 	0.2696	0.7489	0.3214	0.197
Mof_C 	C 	0.22987	0.6636	0.23617	0.622
Mof_C 	C 	0.15894	0.4954	0.24399	0.176
Mof_H 	H 	0.131	0.432	0.2246	0.463
Mof_C 	C 	0.17021	0.5159	0.31001	-0.141
Mof_H 	H 	0.1498	0.4659	0.3348	0.364
Mof_H 	H 	0.2498	0.7141	0.2111	-2.864
Mof_C 	C 	0.2218	0.7126	0.2997	-2.648
Mof_H 	H 	0.2362	0.7983	0.3174	0.902
Mof_C 	C 	0.2115	0.6942	0.2334	1.273
Mof_H 	H 	0.2199	0.7659	0.2071	-0.999
Mof_C 	C 	0.1783	0.4612	0.2465	-1.088
Mof_H 	H 	0.1644	0.3751	0.2289	0.378
Mof_C 	C 	0.1886	0.4822	0.3125	-0.027
Mof_Cu	Cu	0.79787	0.41537	0.46988	0.922
Mof_Cl	Cl	0.7859	0.1815	0.1985	-5.824
Mof_O 	O 	0.76464	0.2001	0.43465	-0.333
Mof_O 	O 	0.68999	0.0752	0.43814	-0.344
Mof_O 	O 	0.70609	0.9491	0.1199	-0.41
Mof_O 	O 	0.6426	0.1177	0.10059	-0.416
Mof_N 	N 	0.87543	0.3446	0.48226	-0.217
Mof_N 	N 	0.2233	0.0037	0.45981	-0.21
Mof_C 	C 	0.72309	0.1308	0.40961	0.181
Mof_C 	C 	0.71139	0.1096	0.33981	0.26
Mof_C 	C 	0.6888	0.0684	0.20622	-0.736
Mof_C 	C 	0.74885	0.1491	0.305	1.656
Mof_H 	H 	0.7826	0.1908	0.3263	-0.515
Mof_C 	C 	0.7386	0.1296	0.2389	0.497
Mof_C 	C 	0.6491	0.0284	0.241	0.865
Mof_H 	H 	0.615	0.9886	0.2196	-0.292
Mof_C 	C 	0.6606	0.0481	0.3073	-0.124
Mof_H 	H 	0.6343	0.0201	0.3305	-0.052
Mof_C 	C 	0.67754	0.0476	0.13603	0.632
Mof_C 	C 	0.91682	0.3922	0.5277	0.104
Mof_H 	H 	0.9084	0.4545	0.558	0.036
Mof_C 	C 	0.97154	0.3549	0.5328	-0.149
Mof_H 	H 	2.27081e-33	0.3933	0.5652	0.115
Mof_C 	C 	0.98435	0.2606	0.48996	0.152
Mof_C 	C 	0.94076	0.2101	0.4434	-0.156
Mof_H 	H 	0.9475	0.145	0.4132	0.136
Mof_C 	C 	0.88789	0.2544	0.4412	0.12
Mof_H 	H 	0.8587	0.219	0.4088	0.034
Mof_C 	C 	0.04244	0.2224	0.4939	-0.096
Mof_H 	H 	0.0702	0.2644	0.5259	0.091
Mof_C 	C 	0.05818	0.1325	0.4552	-0.056
Mof_H 	H 	0.03	0.0903	0.4238	0.082
Mof_C 	C 	0.11556	0.0932	0.457	0.152
Mof_C 	C 	0.12636	0.9971	0.4141	-0.107
Mof_H 	H 	0.0967	0.9583	0.3833	0.141
Mof_C 	C 	0.18003	0.9577	0.41588	0.161
Mof_H 	H 	0.1866	0.8952	0.3846	0.081
Mof_C 	C 	0.21321	0.0979	0.50159	0.098
Mof_H 	H 	0.2435	0.1327	0.5327	-0.058
Mof_C 	C 	0.16101	0.146	0.50127	-0.168
Mof_H 	H 	0.1559	0.2144	0.5308	0.063
Mof_Cl	Cl	0.7654	0.2507	0.1904	8.563
Mof_Cl	Cl	0.6083	0.8779	0.2064	-0.632
Mof_Cl	Cl	0.674	0.8439	0.3519	-0.863
Mof_C 	C 	0.74179	0.1851	0.30205	0.013
Mof_H 	H 	0.7696	0.2489	0.3214	0.197
Mof_C 	C 	0.72987	0.1636	0.23617	0.623
Mof_C 	C 	0.65894	0.9954	0.24399	0.176
Mof_H 	H 	0.631	0.932	0.2246	0.46
Mof_C 	C 	0.67021	0.0159	0.31001	-0.14
Mof_H 	H 	0.6498	0.9659	0.3348	0.364
Mof_H 	H 	0.7498	0.2141	0.2111	-2.867
Mof_C 	C 	0.7218	0.2126	0.2997	-2.65
Mof_H 	H 	0.7362	0.2983	0.3174	0.903
Mof_C 	C 	0.7115	0.1942	0.2334	1.274
Mof_H 	H 	0.7199	0.2659	0.2071	-0.999
Mof_C 	C 	0.6783	0.9612	0.2465	-1.087
Mof_H 	H 	0.6644	0.8751	0.2289	0.378
Mof_C 	C 	0.6886	0.9822	0.3125	-0.03
Mof_Cu	Cu	0.70213	0.91537	0.03012	0.922
Mof_Cl	Cl	0.7141	0.6815	0.3015	-5.817
Mof_O 	O 	0.73536	0.7001	0.06535	-0.333
Mof_O 	O 	0.81001	0.5752	0.06186	-0.343
Mof_O 	O 	0.79391	0.4491	0.3801	-0.409
Mof_O 	O 	0.8574	0.6177	0.39941	-0.414
Mof_N 	N 	0.62457	0.8446	0.01774	-0.218
Mof_N 	N 	0.2767	0.5037	0.04019	-0.211
Mof_C 	C 	0.77691	0.6308	0.09039	0.181
Mof_C 	C 	0.78861	0.6096	0.16019	0.26
Mof_C 	C 	0.8112	0.5684	0.29378	-0.735
Mof_C 	C 	0.75115	0.6491	0.195	1.654
Mof_H 	H 	0.7174	0.6908	0.1737	-0.514
Mof_C 	C 	0.7614	0.6296	0.2611	0.495
Mof_C 	C 	0.8509	0.5284	0.259	0.867
Mof_H 	H 	0.885	0.4886	0.2804	-0.291
Mof_C 	C 	0.8394	0.5481	0.1927	-0.125
Mof_H 	H 	0.8657	0.5201	0.1695	-0.051
Mof_C 	C 	0.82246	0.5476	0.36397	0.631
Mof_C 	C 	0.58318	0.8922	0.9723	0.11
Mof_H 	H 	0.5916	0.9545	0.942	0.032
Mof_C 	C 	0.52846	0.8549	0.9672	-0.164
Mof_H 	H 	0.5	0.8933	0.9348	0.127
Mof_C 	C 	0.51565	0.7606	0.01004	0.144
Mof_C 	C 	0.55924	0.7101	0.0566	-0.153
Mof_H 	H 	0.5525	0.645	0.0868	0.132
Mof_C 	C 	0.61211	0.7544	0.0588	0.119
Mof_H 	H 	0.6413	0.719	0.0912	0.034
Mof_C 	C 	0.45756	0.7224	0.0061	-0.083
Mof_H 	H 	0.4298	0.7644	0.9741	0.088
Mof_C 	C 	0.44182	0.6325	0.0448	-0.063
Mof_H 	H 	0.47	0.5903	0.0762	0.087
Mof_C 	C 	0.38444	0.5932	0.043	0.155
Mof_C 	C 	0.37364	0.4971	0.0859	-0.109
Mof_H 	H 	0.4033	0.4583	0.1167	0.143
Mof_C 	C 	0.31997	0.4577	0.08412	0.163
Mof_H 	H 	0.3134	0.3952	0.1154	0.081
Mof_C 	C 	0.28679	0.5979	0.99841	0.099
Mof_H 	H 	0.2565	0.6327	0.9673	-0.059
Mof_C 	C 	0.33899	0.646	0.99873	-0.169
Mof_H 	H 	0.3441	0.7144	0.9692	0.064
Mof_Cl	Cl	0.7346	0.7507	0.3096	8.551
Mof_Cl	Cl	0.8917	0.3779	0.2936	-0.626
Mof_Cl	Cl	0.826	0.3439	0.1481	-0.863
Mof_C 	C 	0.75821	0.6851	0.19795	0.013
Mof_H 	H 	0.7304	0.7489	0.1786	0.197
Mof_C 	C 	0.77013	0.6636	0.26383	0.622
Mof_C 	C 	0.84106	0.4954	0.25601	0.176
Mof_H 	H 	0.869	0.432	0.2754	0.456
Mof_C 	C 	0.82979	0.5159	0.18999	-0.141
Mof_H 	H 	0.8502	0.4659	0.1652	0.364
Mof_H 	H 	0.7502	0.7141	0.2889	-2.862
Mof_C 	C 	0.7782	0.7126	0.2003	-2.646
Mof_H 	H 	0.7638	0.7983	0.1826	0.902
Mof_C 	C 	0.7885	0.6942	0.2666	1.273
Mof_H 	H 	0.7801	0.7659	0.2929	-0.998
Mof_C 	C 	0.8217	0.4612	0.2535	-1.088
Mof_H 	H 	0.8356	0.3751	0.2711	0.379
Mof_C 	C 	0.8114	0.4822	0.1875	-0.029
Mof_Cu	Cu	0.20213	0.41537	0.03012	0.922
Mof_Cl	Cl	0.2141	0.1815	0.3015	-5.816
Mof_O 	O 	0.23536	0.2001	0.06535	-0.333
Mof_O 	O 	0.31001	0.0752	0.06186	-0.343
Mof_O 	O 	0.29391	0.9491	0.3801	-0.41
Mof_O 	O 	0.3574	0.1177	0.39941	-0.415
Mof_N 	N 	0.12457	0.3446	0.01774	-0.215
Mof_N 	N 	0.7767	0.0037	0.04019	-0.211
Mof_C 	C 	0.27691	0.1308	0.09039	0.181
Mof_C 	C 	0.28861	0.1096	0.16019	0.259
Mof_C 	C 	0.3112	0.0684	0.29378	-0.734
Mof_C 	C 	0.25115	0.1491	0.195	1.654
Mof_H 	H 	0.2174	0.1908	0.1737	-0.514
Mof_C 	C 	0.2614	0.1296	0.2611	0.496
Mof_C 	C 	0.3509	0.0284	0.259	0.866
Mof_H 	H 	0.385	0.9886	0.2804	-0.292
Mof_C 	C 	0.3394	0.0481	0.1927	-0.124
Mof_H 	H 	0.3657	0.0201	0.1695	-0.051
Mof_C 	C 	0.32246	0.0476	0.36397	0.631
Mof_C 	C 	0.08318	0.3922	0.9723	0.103
Mof_H 	H 	0.0916	0.4545	0.942	0.034
Mof_C 	C 	0.02846	0.3549	0.9672	-0.152
Mof_H 	H 	3.75576e-33	0.3933	0.9348	0.119
Mof_C 	C 	0.01565	0.2606	0.01004	0.121
Mof_C 	C 	0.05924	0.2101	0.0566	-0.14
Mof_H 	H 	0.0525	0.145	0.0868	0.125
Mof_C 	C 	0.11211	0.2544	0.0588	0.112
Mof_H 	H 	0.1413	0.219	0.0912	0.036
Mof_C 	C 	0.95756	0.2224	0.0061	-0.054
Mof_H 	H 	0.9298	0.2644	0.9741	0.079
Mof_C 	C 	0.94182	0.1325	0.0448	-0.08
Mof_H 	H 	0.97	0.0903	0.0762	0.097
Mof_C 	C 	0.88444	0.0932	0.043	0.168
Mof_C 	C 	0.87364	0.9971	0.0859	-0.117
Mof_H 	H 	0.9033	0.9583	0.1167	0.147
Mof_C 	C 	0.81997	0.9577	0.08412	0.166
Mof_H 	H 	0.8134	0.8952	0.1154	0.08
Mof_C 	C 	0.78679	0.0979	0.99841	0.102
Mof_H 	H 	0.7565	0.1327	0.9673	-0.06
Mof_C 	C 	0.83899	0.146	0.99873	-0.178
Mof_H 	H 	0.8441	0.2144	0.9692	0.067
Mof_Cl	Cl	0.2346	0.2507	0.3096	8.549
Mof_Cl	Cl	0.3917	0.8779	0.2936	-0.631
Mof_Cl	Cl	0.326	0.8439	0.1481	-0.863
Mof_C 	C 	0.25821	0.1851	0.19795	0.013
Mof_H 	H 	0.2304	0.2489	0.1786	0.197
Mof_C 	C 	0.27013	0.1636	0.26383	0.622
Mof_C 	C 	0.34106	0.9954	0.25601	0.176
Mof_H 	H 	0.369	0.932	0.2754	0.46
Mof_C 	C 	0.32979	0.0159	0.18999	-0.141
Mof_H 	H 	0.3502	0.9659	0.1652	0.364
Mof_H 	H 	0.2502	0.2141	0.2889	-2.861
Mof_C 	C 	0.2782	0.2126	0.2003	-2.646
Mof_H 	H 	0.2638	0.2983	0.1826	0.902
Mof_C 	C 	0.2885	0.1942	0.2666	1.272
Mof_H 	H 	0.2801	0.2659	0.2929	-0.998
Mof_C 	C 	0.3217	0.9612	0.2535	-1.089
Mof_H 	H 	0.3356	0.8751	0.2711	0.379
Mof_C 	C 	0.3114	0.9822	0.1875	-0.029
_end
