data_functionalizedCrystal
_audit_creation_method	'EQeq! by Chris Wilmer'
_symmetry_space_group_name_H-M	'P1'
_symmetry_Int_Tables_number	1
_symmetry_cell_setting	triclinic
loop_
_symmetry_equiv_pos_as_xyz
  x,y,z
_cell_length_a	35.0087
_cell_length_b	14.9458
_cell_length_c	30.6949
_cell_angle_alpha	90
_cell_angle_beta	100.8
_cell_angle_gamma	90
loop_
_atom_site_label
_atom_site_type_symbol
_atom_site_fract_x
_atom_site_fract_y
_atom_site_fract_z
_atom_site_charge
Mof_I 	I 	0.38396	0.23726	0.43965	-0.273
Mof_I 	I 	0.47889	0.15581	0.36602	-0.359
Mof_I 	I 	0.61087	0.271	0.59806	-0.035
Mof_I 	I 	0.25658	0.72426	0.69	-0.331
Mof_Zn	Zn	0.4209	0.12396	0.40206	1.164
Mof_Zn	Zn	0.62907	0.4101	0.5619	1.154
Mof_Zn	Zn	0.32204	0.64978	0.72175	1.159
Mof_N 	N 	0.4339	0.0168	0.4452	-0.271
Mof_N 	N 	0.5833	0.4975	0.5583	-0.277
Mof_N 	N 	0.3573	0.6663	0.6754	-0.278
Mof_N 	N 	0.4631	0.6508	0.5857	-0.132
Mof_N 	N 	0.4791	0.7303	0.5244	-0.145
Mof_N 	N 	0.4251	0.7761	0.5558	-0.138
Mof_N 	N 	0.3825	0.9486	0.8551	-0.274
Mof_N 	N 	0.1717	0.9747	0.6068	-0.275
Mof_N 	N 	0.3137	0.5123	0.7189	-0.277
Mof_N 	N 	0.3207	0.1843	0.7489	-0.135
Mof_N 	N 	0.2673	0.1955	0.6899	-0.14
Mof_N 	N 	0.2819	0.0569	0.7278	-0.141
Mof_C 	C 	0.5648	0.5338	0.5203	0.081
Mof_H 	H 	0.5742	0.5215	0.4946	-0.006
Mof_C 	C 	0.5327	0.5884	0.5171	-0.133
Mof_H 	H 	0.5205	0.6116	0.49	0.086
Mof_C 	C 	0.5191	0.6077	0.5562	0.06
Mof_C 	C 	0.5384	0.5733	0.5952	-0.136
Mof_H 	H 	0.5297	0.5851	0.6215	0.091
Mof_C 	C 	0.5713	0.5199	0.5957	0.077
Mof_H 	H 	0.5852	0.4996	0.6227	-0.017
Mof_C 	C 	0.4439	0.8644	0.4984	0.056
Mof_C 	C 	0.4716	0.8905	0.4741	-0.135
Mof_H 	H 	0.4943	0.8573	0.4754	0.081
Mof_C 	C 	0.4654	0.965	0.4484	0.085
Mof_H 	H 	0.4841	0.9808	0.432	-0.012
Mof_C 	C 	0.4064	0.9916	0.4689	0.062
Mof_H 	H 	0.3842	0.0264	0.4672	-0.011
Mof_C 	C 	0.4105	0.9159	0.4954	-0.123
Mof_H 	H 	0.3911	0.8997	0.5109	0.08
Mof_C 	C 	0.4072	0.6929	0.6157	0.072
Mof_C 	C 	0.3699	0.7316	0.6094	-0.128
Mof_H 	H 	0.3615	0.7684	0.5851	0.088
Mof_C 	C 	0.3462	0.7153	0.6387	0.083
Mof_H 	H 	0.3212	0.7392	0.6332	-0.016
Mof_C 	C 	0.3928	0.6295	0.6825	0.082
Mof_H 	H 	0.4007	0.595	0.7078	-0.021
Mof_C 	C 	0.418	0.6415	0.6535	-0.13
Mof_H 	H 	0.4424	0.6149	0.6594	0.091
Mof_C 	C 	0.433	0.7066	0.5838	0.1
Mof_C 	C 	0.4492	0.7857	0.5277	0.084
Mof_C 	C 	0.4852	0.6661	0.5553	0.086
Mof_C 	C 	0.336	0.0458	0.7891	0.071
Mof_C 	C 	0.3727	0.0782	0.8093	-0.14
Mof_H 	H 	0.3821	0.1325	0.8009	0.1
Mof_C 	C 	0.3941	0.0261	0.842	0.095
Mof_H 	H 	0.4184	0.0471	0.8557	-0.018
Mof_C 	C 	0.3473	0.9178	0.8352	0.078
Mof_H 	H 	0.3388	0.8629	0.844	-0.014
Mof_C 	C 	0.324	0.9649	0.8024	-0.142
Mof_H 	H 	0.2999	0.9419	0.7891	0.084
Mof_C 	C 	0.2305	0.0616	0.6641	0.053
Mof_C 	C 	0.2224	0.9718	0.6705	-0.132
Mof_H 	H 	0.2368	0.9399	0.694	0.092
Mof_C 	C 	0.1928	0.9312	0.6417	0.07
Mof_H 	H 	0.187	0.8716	0.6463	-0.006
Mof_C 	C 	0.1798	0.0595	0.5999	0.079
Mof_H 	H 	0.1656	0.089	0.5754	-0.005
Mof_C 	C 	0.2087	0.1057	0.628	-0.129
Mof_H 	H 	0.2135	0.1655	0.6228	0.089
Mof_C 	C 	0.3036	0.3276	0.717	0.065
Mof_C 	C 	0.2795	0.3822	0.6869	-0.135
Mof_H 	H 	0.2596	0.3579	0.6659	0.086
Mof_C 	C 	0.286	0.4739	0.689	0.08
Mof_H 	H 	0.2703	0.5104	0.6685	-0.016
Mof_C 	C 	0.3362	0.4595	0.7478	0.077
Mof_H 	H 	0.3555	0.486	0.7688	-0.019
Mof_C 	C 	0.3324	0.3667	0.7484	-0.135
Mof_H 	H 	0.3487	0.332	0.7691	0.093
Mof_C 	C 	0.297	0.2295	0.7185	0.104
Mof_C 	C 	0.2617	0.1063	0.6955	0.083
Mof_C 	C 	0.3118	0.0993	0.7537	0.097
Mof_I 	I 	0.65075	0.42135	0.48578	-0.516
Mof_I 	I 	0.36845	0.6826	0.7996	-0.292
Mof_I 	I 	0.35711	0.6827	0.7953	-0.076
Mof_I 	I 	0.6063	0.2757	0.6125	-0.3
Mof_I 	I 	0.64924	0.3864	0.4974	0.136
Mof_I 	I 	0.266	0.736	0.7029	-0.039
Mof_I 	I 	0.3943	0.212	0.4554	-0.092
Mof_I 	I 	0.88396	0.73726	0.43965	-0.272
Mof_I 	I 	0.97889	0.65581	0.36602	-0.358
Mof_I 	I 	0.11087	0.771	0.59806	-0.035
Mof_I 	I 	0.75658	0.22426	0.69	-0.331
Mof_Zn	Zn	0.9209	0.62396	0.40206	1.164
Mof_Zn	Zn	0.12907	0.9101	0.5619	1.154
Mof_Zn	Zn	0.82204	0.14978	0.72175	1.159
Mof_N 	N 	0.9339	0.5168	0.4452	-0.271
Mof_N 	N 	0.0833	0.9975	0.5583	-0.277
Mof_N 	N 	0.8573	0.1663	0.6754	-0.278
Mof_N 	N 	0.9631	0.1508	0.5857	-0.132
Mof_N 	N 	0.9791	0.2303	0.5244	-0.145
Mof_N 	N 	0.9251	0.2761	0.5558	-0.138
Mof_N 	N 	0.8825	0.4486	0.8551	-0.274
Mof_N 	N 	0.6717	0.4747	0.6068	-0.275
Mof_N 	N 	0.8137	0.0123	0.7189	-0.277
Mof_N 	N 	0.8207	0.6843	0.7489	-0.135
Mof_N 	N 	0.7673	0.6955	0.6899	-0.14
Mof_N 	N 	0.7819	0.5569	0.7278	-0.141
Mof_C 	C 	0.0648	0.0338	0.5203	0.081
Mof_H 	H 	0.0742	0.0215	0.4946	-0.006
Mof_C 	C 	0.0327	0.0884	0.5171	-0.134
Mof_H 	H 	0.0205	0.1116	0.49	0.086
Mof_C 	C 	0.0191	0.1077	0.5562	0.06
Mof_C 	C 	0.0384	0.0733	0.5952	-0.136
Mof_H 	H 	0.0297	0.0851	0.6215	0.091
Mof_C 	C 	0.0713	0.0199	0.5957	0.077
Mof_H 	H 	0.0852	0.9996	0.6227	-0.017
Mof_C 	C 	0.9439	0.3644	0.4984	0.056
Mof_C 	C 	0.9716	0.3905	0.4741	-0.135
Mof_H 	H 	0.9943	0.3573	0.4754	0.081
Mof_C 	C 	0.9654	0.465	0.4484	0.085
Mof_H 	H 	0.9841	0.4808	0.432	-0.012
Mof_C 	C 	0.9064	0.4916	0.4689	0.062
Mof_H 	H 	0.8842	0.5264	0.4672	-0.011
Mof_C 	C 	0.9105	0.4159	0.4954	-0.123
Mof_H 	H 	0.8911	0.3997	0.5109	0.08
Mof_C 	C 	0.9072	0.1929	0.6157	0.072
Mof_C 	C 	0.8699	0.2316	0.6094	-0.128
Mof_H 	H 	0.8615	0.2684	0.5851	0.088
Mof_C 	C 	0.8462	0.2153	0.6387	0.083
Mof_H 	H 	0.8212	0.2392	0.6332	-0.016
Mof_C 	C 	0.8928	0.1295	0.6825	0.082
Mof_H 	H 	0.9007	0.095	0.7078	-0.021
Mof_C 	C 	0.918	0.1415	0.6535	-0.13
Mof_H 	H 	0.9424	0.1149	0.6594	0.091
Mof_C 	C 	0.933	0.2066	0.5838	0.1
Mof_C 	C 	0.9492	0.2857	0.5277	0.084
Mof_C 	C 	0.9852	0.1661	0.5553	0.086
Mof_C 	C 	0.836	0.5458	0.7891	0.071
Mof_C 	C 	0.8727	0.5782	0.8093	-0.139
Mof_H 	H 	0.8821	0.6325	0.8009	0.1
Mof_C 	C 	0.8941	0.5261	0.842	0.095
Mof_H 	H 	0.9184	0.5471	0.8557	-0.018
Mof_C 	C 	0.8473	0.4178	0.8352	0.078
Mof_H 	H 	0.8388	0.3629	0.844	-0.014
Mof_C 	C 	0.824	0.4649	0.8024	-0.142
Mof_H 	H 	0.7999	0.4419	0.7891	0.084
Mof_C 	C 	0.7305	0.5616	0.6641	0.053
Mof_C 	C 	0.7224	0.4718	0.6705	-0.132
Mof_H 	H 	0.7368	0.4399	0.694	0.092
Mof_C 	C 	0.6928	0.4312	0.6417	0.07
Mof_H 	H 	0.687	0.3716	0.6463	-0.006
Mof_C 	C 	0.6798	0.5595	0.5999	0.078
Mof_H 	H 	0.6656	0.589	0.5754	-0.005
Mof_C 	C 	0.7087	0.6057	0.628	-0.129
Mof_H 	H 	0.7135	0.6655	0.6228	0.089
Mof_C 	C 	0.8036	0.8276	0.717	0.065
Mof_C 	C 	0.7795	0.8822	0.6869	-0.135
Mof_H 	H 	0.7596	0.8579	0.6659	0.086
Mof_C 	C 	0.786	0.9739	0.689	0.079
Mof_H 	H 	0.7703	0.0104	0.6685	-0.016
Mof_C 	C 	0.8362	0.9595	0.7478	0.077
Mof_H 	H 	0.8555	0.986	0.7688	-0.019
Mof_C 	C 	0.8324	0.8667	0.7484	-0.134
Mof_H 	H 	0.8487	0.832	0.7691	0.093
Mof_C 	C 	0.797	0.7295	0.7185	0.104
Mof_C 	C 	0.7617	0.6063	0.6955	0.083
Mof_C 	C 	0.8118	0.5993	0.7537	0.097
Mof_I 	I 	0.15075	0.92135	0.48578	-0.516
Mof_I 	I 	0.86845	0.1826	0.7996	-0.292
Mof_I 	I 	0.85711	0.1827	0.7953	-0.076
Mof_I 	I 	0.1063	0.7757	0.6125	-0.3
Mof_I 	I 	0.14924	0.8864	0.4974	0.136
Mof_I 	I 	0.766	0.236	0.7029	-0.039
Mof_I 	I 	0.8943	0.712	0.4554	-0.092
Mof_I 	I 	0.38396	0.76274	0.93965	-0.273
Mof_I 	I 	0.47889	0.84419	0.86602	-0.358
Mof_I 	I 	0.61087	0.729	0.09806	-0.035
Mof_I 	I 	0.25658	0.27574	0.19	-0.331
Mof_Zn	Zn	0.4209	0.87604	0.90206	1.164
Mof_Zn	Zn	0.62907	0.5899	0.0619	1.154
Mof_Zn	Zn	0.32204	0.35022	0.22175	1.159
Mof_N 	N 	0.4339	0.9832	0.9452	-0.271
Mof_N 	N 	0.5833	0.5025	0.0583	-0.277
Mof_N 	N 	0.3573	0.3337	0.1754	-0.278
Mof_N 	N 	0.4631	0.3492	0.0857	-0.132
Mof_N 	N 	0.4791	0.2697	0.0244	-0.145
Mof_N 	N 	0.4251	0.2239	0.0558	-0.138
Mof_N 	N 	0.3825	0.0514	0.3551	-0.274
Mof_N 	N 	0.1717	0.0253	0.1068	-0.275
Mof_N 	N 	0.3137	0.4877	0.2189	-0.277
Mof_N 	N 	0.3207	0.8157	0.2489	-0.135
Mof_N 	N 	0.2673	0.8045	0.1899	-0.14
Mof_N 	N 	0.2819	0.9431	0.2278	-0.141
Mof_C 	C 	0.5648	0.4662	0.0203	0.081
Mof_H 	H 	0.5742	0.4785	0.9946	-0.006
Mof_C 	C 	0.5327	0.4116	0.0171	-0.134
Mof_H 	H 	0.5205	0.3884	0.99	0.086
Mof_C 	C 	0.5191	0.3923	0.0562	0.06
Mof_C 	C 	0.5384	0.4267	0.0952	-0.136
Mof_H 	H 	0.5297	0.4149	0.1215	0.091
Mof_C 	C 	0.5713	0.4801	0.0957	0.077
Mof_H 	H 	0.5852	0.5004	0.1227	-0.017
Mof_C 	C 	0.4439	0.1356	0.9984	0.056
Mof_C 	C 	0.4716	0.1095	0.9741	-0.136
Mof_H 	H 	0.4943	0.1427	0.9754	0.082
Mof_C 	C 	0.4654	0.035	0.9484	0.085
Mof_H 	H 	0.4841	0.0192	0.932	-0.012
Mof_C 	C 	0.4064	0.0084	0.9689	0.063
Mof_H 	H 	0.3842	0.9736	0.9672	-0.011
Mof_C 	C 	0.4105	0.0841	0.9954	-0.123
Mof_H 	H 	0.3911	0.1003	0.0109	0.08
Mof_C 	C 	0.4072	0.3071	0.1157	0.072
Mof_C 	C 	0.3699	0.2684	0.1094	-0.128
Mof_H 	H 	0.3615	0.2316	0.0851	0.088
Mof_C 	C 	0.3462	0.2847	0.1387	0.083
Mof_H 	H 	0.3212	0.2608	0.1332	-0.016
Mof_C 	C 	0.3928	0.3705	0.1825	0.082
Mof_H 	H 	0.4007	0.405	0.2078	-0.021
Mof_C 	C 	0.418	0.3585	0.1535	-0.13
Mof_H 	H 	0.4424	0.3851	0.1594	0.091
Mof_C 	C 	0.433	0.2934	0.0838	0.1
Mof_C 	C 	0.4492	0.2143	0.0277	0.084
Mof_C 	C 	0.4852	0.3339	0.0553	0.086
Mof_C 	C 	0.336	0.9542	0.2891	0.071
Mof_C 	C 	0.3727	0.9218	0.3093	-0.14
Mof_H 	H 	0.3821	0.8675	0.3009	0.1
Mof_C 	C 	0.3941	0.9739	0.342	0.095
Mof_H 	H 	0.4184	0.9529	0.3557	-0.018
Mof_C 	C 	0.3473	0.0822	0.3352	0.078
Mof_H 	H 	0.3388	0.1371	0.344	-0.014
Mof_C 	C 	0.324	0.0351	0.3024	-0.142
Mof_H 	H 	0.2999	0.0581	0.2891	0.084
Mof_C 	C 	0.2305	0.9384	0.1641	0.054
Mof_C 	C 	0.2224	0.0282	0.1705	-0.133
Mof_H 	H 	0.2368	0.0601	0.194	0.092
Mof_C 	C 	0.1928	0.0688	0.1417	0.07
Mof_H 	H 	0.187	0.1284	0.1463	-0.006
Mof_C 	C 	0.1798	0.9405	0.0999	0.079
Mof_H 	H 	0.1656	0.911	0.0754	-0.005
Mof_C 	C 	0.2087	0.8943	0.128	-0.129
Mof_H 	H 	0.2135	0.8345	0.1228	0.089
Mof_C 	C 	0.3036	0.6724	0.217	0.065
Mof_C 	C 	0.2795	0.6178	0.1869	-0.135
Mof_H 	H 	0.2596	0.6421	0.1659	0.086
Mof_C 	C 	0.286	0.5261	0.189	0.08
Mof_H 	H 	0.2703	0.4896	0.1685	-0.016
Mof_C 	C 	0.3362	0.5405	0.2478	0.077
Mof_H 	H 	0.3555	0.514	0.2688	-0.019
Mof_C 	C 	0.3324	0.6333	0.2484	-0.135
Mof_H 	H 	0.3487	0.668	0.2691	0.093
Mof_C 	C 	0.297	0.7705	0.2185	0.104
Mof_C 	C 	0.2617	0.8937	0.1955	0.083
Mof_C 	C 	0.3118	0.9007	0.2537	0.097
Mof_I 	I 	0.65075	0.57865	0.98578	-0.516
Mof_I 	I 	0.36845	0.3174	0.2996	-0.292
Mof_I 	I 	0.35711	0.3173	0.2953	-0.076
Mof_I 	I 	0.6063	0.7243	0.1125	-0.3
Mof_I 	I 	0.64924	0.6136	0.9974	0.136
Mof_I 	I 	0.266	0.264	0.2029	-0.039
Mof_I 	I 	0.3943	0.788	0.9554	-0.092
Mof_I 	I 	0.88396	0.26274	0.93965	-0.272
Mof_I 	I 	0.97889	0.34419	0.86602	-0.358
Mof_I 	I 	0.11087	0.229	0.09806	-0.035
Mof_I 	I 	0.75658	0.77574	0.19	-0.331
Mof_Zn	Zn	0.9209	0.37604	0.90206	1.164
Mof_Zn	Zn	0.12907	0.0899	0.0619	1.154
Mof_Zn	Zn	0.82204	0.85022	0.22175	1.159
Mof_N 	N 	0.9339	0.4832	0.9452	-0.271
Mof_N 	N 	0.0833	0.0025	0.0583	-0.278
Mof_N 	N 	0.8573	0.8337	0.1754	-0.278
Mof_N 	N 	0.9631	0.8492	0.0857	-0.132
Mof_N 	N 	0.9791	0.7697	0.0244	-0.145
Mof_N 	N 	0.9251	0.7239	0.0558	-0.138
Mof_N 	N 	0.8825	0.5514	0.3551	-0.274
Mof_N 	N 	0.6717	0.5253	0.1068	-0.275
Mof_N 	N 	0.8137	0.9877	0.2189	-0.277
Mof_N 	N 	0.8207	0.3157	0.2489	-0.135
Mof_N 	N 	0.7673	0.3045	0.1899	-0.14
Mof_N 	N 	0.7819	0.4431	0.2278	-0.141
Mof_C 	C 	0.0648	0.9662	0.0203	0.082
Mof_H 	H 	0.0742	0.9785	0.9946	-0.007
Mof_C 	C 	0.0327	0.9116	0.0171	-0.134
Mof_H 	H 	0.0205	0.8884	0.99	0.086
Mof_C 	C 	0.0191	0.8923	0.0562	0.06
Mof_C 	C 	0.0384	0.9267	0.0952	-0.136
Mof_H 	H 	0.0297	0.9149	0.1215	0.091
Mof_C 	C 	0.0713	0.9801	0.0957	0.078
Mof_H 	H 	0.0852	0.0004	0.1227	-0.017
Mof_C 	C 	0.9439	0.6356	0.9984	0.056
Mof_C 	C 	0.9716	0.6095	0.9741	-0.135
Mof_H 	H 	0.9943	0.6427	0.9754	0.081
Mof_C 	C 	0.9654	0.535	0.9484	0.085
Mof_H 	H 	0.9841	0.5192	0.932	-0.012
Mof_C 	C 	0.9064	0.5084	0.9689	0.062
Mof_H 	H 	0.8842	0.4736	0.9672	-0.011
Mof_C 	C 	0.9105	0.5841	0.9954	-0.123
Mof_H 	H 	0.8911	0.6003	0.0109	0.08
Mof_C 	C 	0.9072	0.8071	0.1157	0.072
Mof_C 	C 	0.8699	0.7684	0.1094	-0.128
Mof_H 	H 	0.8615	0.7316	0.0851	0.088
Mof_C 	C 	0.8462	0.7847	0.1387	0.083
Mof_H 	H 	0.8212	0.7608	0.1332	-0.016
Mof_C 	C 	0.8928	0.8705	0.1825	0.082
Mof_H 	H 	0.9007	0.905	0.2078	-0.021
Mof_C 	C 	0.918	0.8585	0.1535	-0.13
Mof_H 	H 	0.9424	0.8851	0.1594	0.091
Mof_C 	C 	0.933	0.7934	0.0838	0.1
Mof_C 	C 	0.9492	0.7143	0.0277	0.084
Mof_C 	C 	0.9852	0.8339	0.0553	0.086
Mof_C 	C 	0.836	0.4542	0.2891	0.071
Mof_C 	C 	0.8727	0.4218	0.3093	-0.139
Mof_H 	H 	0.8821	0.3675	0.3009	0.1
Mof_C 	C 	0.8941	0.4739	0.342	0.095
Mof_H 	H 	0.9184	0.4529	0.3557	-0.018
Mof_C 	C 	0.8473	0.5822	0.3352	0.078
Mof_H 	H 	0.8388	0.6371	0.344	-0.014
Mof_C 	C 	0.824	0.5351	0.3024	-0.142
Mof_H 	H 	0.7999	0.5581	0.2891	0.084
Mof_C 	C 	0.7305	0.4384	0.1641	0.053
Mof_C 	C 	0.7224	0.5282	0.1705	-0.132
Mof_H 	H 	0.7368	0.5601	0.194	0.092
Mof_C 	C 	0.6928	0.5688	0.1417	0.07
Mof_H 	H 	0.687	0.6284	0.1463	-0.006
Mof_C 	C 	0.6798	0.4405	0.0999	0.078
Mof_H 	H 	0.6656	0.411	0.0754	-0.005
Mof_C 	C 	0.7087	0.3943	0.128	-0.129
Mof_H 	H 	0.7135	0.3345	0.1228	0.089
Mof_C 	C 	0.8036	0.1724	0.217	0.065
Mof_C 	C 	0.7795	0.1178	0.1869	-0.135
Mof_H 	H 	0.7596	0.1421	0.1659	0.086
Mof_C 	C 	0.786	0.0261	0.189	0.079
Mof_H 	H 	0.7703	0.9896	0.1685	-0.016
Mof_C 	C 	0.8362	0.0405	0.2478	0.077
Mof_H 	H 	0.8555	0.014	0.2688	-0.019
Mof_C 	C 	0.8324	0.1333	0.2484	-0.134
Mof_H 	H 	0.8487	0.168	0.2691	0.093
Mof_C 	C 	0.797	0.2705	0.2185	0.104
Mof_C 	C 	0.7617	0.3937	0.1955	0.083
Mof_C 	C 	0.8118	0.4007	0.2537	0.097
Mof_I 	I 	0.15075	0.07865	0.98578	-0.516
Mof_I 	I 	0.86845	0.8174	0.2996	-0.292
Mof_I 	I 	0.85711	0.8173	0.2953	-0.076
Mof_I 	I 	0.1063	0.2243	0.1125	-0.3
Mof_I 	I 	0.14924	0.1136	0.9974	0.136
Mof_I 	I 	0.766	0.764	0.2029	-0.039
Mof_I 	I 	0.8943	0.288	0.9554	-0.092
Mof_I 	I 	0.61604	0.23726	0.06035	-0.273
Mof_I 	I 	0.52111	0.15581	0.13398	-0.358
Mof_I 	I 	0.38913	0.271	0.90194	-0.035
Mof_I 	I 	0.74342	0.72426	0.81	-0.331
Mof_Zn	Zn	0.5791	0.12396	0.09794	1.164
Mof_Zn	Zn	0.37093	0.4101	0.9381	1.154
Mof_Zn	Zn	0.67796	0.64978	0.77825	1.159
Mof_N 	N 	0.5661	0.0168	0.0548	-0.271
Mof_N 	N 	0.4167	0.4975	0.9417	-0.277
Mof_N 	N 	0.6427	0.6663	0.8246	-0.278
Mof_N 	N 	0.5369	0.6508	0.9143	-0.132
Mof_N 	N 	0.5209	0.7303	0.9756	-0.145
Mof_N 	N 	0.5749	0.7761	0.9442	-0.138
Mof_N 	N 	0.6175	0.9486	0.6449	-0.274
Mof_N 	N 	0.8283	0.9747	0.8932	-0.275
Mof_N 	N 	0.6863	0.5123	0.7811	-0.277
Mof_N 	N 	0.6793	0.1843	0.7511	-0.135
Mof_N 	N 	0.7327	0.1955	0.8101	-0.14
Mof_N 	N 	0.7181	0.0569	0.7722	-0.141
Mof_C 	C 	0.4352	0.5338	0.9797	0.081
Mof_H 	H 	0.4258	0.5215	0.0054	-0.006
Mof_C 	C 	0.4673	0.5884	0.9829	-0.134
Mof_H 	H 	0.4795	0.6116	0.01	0.086
Mof_C 	C 	0.4809	0.6077	0.9438	0.06
Mof_C 	C 	0.4616	0.5733	0.9048	-0.136
Mof_H 	H 	0.4703	0.5851	0.8785	0.091
Mof_C 	C 	0.4287	0.5199	0.9043	0.077
Mof_H 	H 	0.4148	0.4996	0.8773	-0.017
Mof_C 	C 	0.5561	0.8644	0.0016	0.056
Mof_C 	C 	0.5284	0.8905	0.0259	-0.136
Mof_H 	H 	0.5057	0.8573	0.0246	0.082
Mof_C 	C 	0.5346	0.965	0.0516	0.085
Mof_H 	H 	0.5159	0.9808	0.068	-0.012
Mof_C 	C 	0.5936	0.9916	0.0311	0.063
Mof_H 	H 	0.6158	0.0264	0.0328	-0.011
Mof_C 	C 	0.5895	0.9159	0.0046	-0.123
Mof_H 	H 	0.6089	0.8997	0.9891	0.08
Mof_C 	C 	0.5928	0.6929	0.8843	0.072
Mof_C 	C 	0.6301	0.7316	0.8906	-0.128
Mof_H 	H 	0.6385	0.7684	0.9149	0.088
Mof_C 	C 	0.6538	0.7153	0.8613	0.083
Mof_H 	H 	0.6788	0.7392	0.8668	-0.016
Mof_C 	C 	0.6072	0.6295	0.8175	0.082
Mof_H 	H 	0.5993	0.595	0.7922	-0.021
Mof_C 	C 	0.582	0.6415	0.8465	-0.13
Mof_H 	H 	0.5576	0.6149	0.8406	0.091
Mof_C 	C 	0.567	0.7066	0.9162	0.1
Mof_C 	C 	0.5508	0.7857	0.9723	0.084
Mof_C 	C 	0.5148	0.6661	0.9447	0.086
Mof_C 	C 	0.664	0.0458	0.7109	0.071
Mof_C 	C 	0.6273	0.0782	0.6907	-0.14
Mof_H 	H 	0.6179	0.1325	0.6991	0.1
Mof_C 	C 	0.6059	0.0261	0.658	0.095
Mof_H 	H 	0.5816	0.0471	0.6443	-0.018
Mof_C 	C 	0.6527	0.9178	0.6648	0.078
Mof_H 	H 	0.6612	0.8629	0.656	-0.014
Mof_C 	C 	0.676	0.9649	0.6976	-0.142
Mof_H 	H 	0.7001	0.9419	0.7109	0.084
Mof_C 	C 	0.7695	0.0616	0.8359	0.054
Mof_C 	C 	0.7776	0.9718	0.8295	-0.133
Mof_H 	H 	0.7632	0.9399	0.806	0.092
Mof_C 	C 	0.8072	0.9312	0.8583	0.07
Mof_H 	H 	0.813	0.8716	0.8537	-0.006
Mof_C 	C 	0.8202	0.0595	0.9001	0.079
Mof_H 	H 	0.8344	0.089	0.9246	-0.005
Mof_C 	C 	0.7913	0.1057	0.872	-0.129
Mof_H 	H 	0.7865	0.1655	0.8772	0.089
Mof_C 	C 	0.6964	0.3276	0.783	0.065
Mof_C 	C 	0.7205	0.3822	0.8131	-0.135
Mof_H 	H 	0.7404	0.3579	0.8341	0.086
Mof_C 	C 	0.714	0.4739	0.811	0.08
Mof_H 	H 	0.7297	0.5104	0.8315	-0.016
Mof_C 	C 	0.6638	0.4595	0.7522	0.077
Mof_H 	H 	0.6445	0.486	0.7312	-0.019
Mof_C 	C 	0.6676	0.3667	0.7516	-0.135
Mof_H 	H 	0.6513	0.332	0.7309	0.093
Mof_C 	C 	0.703	0.2295	0.7815	0.104
Mof_C 	C 	0.7383	0.1063	0.8045	0.083
Mof_C 	C 	0.6882	0.0993	0.7463	0.097
Mof_I 	I 	0.34925	0.42135	0.01422	-0.516
Mof_I 	I 	0.63155	0.6826	0.7004	-0.292
Mof_I 	I 	0.64289	0.6827	0.7047	-0.076
Mof_I 	I 	0.3937	0.2757	0.8875	-0.3
Mof_I 	I 	0.35076	0.3864	0.0026	0.136
Mof_I 	I 	0.734	0.736	0.7971	-0.039
Mof_I 	I 	0.6057	0.212	0.0446	-0.092
Mof_I 	I 	0.11604	0.73726	0.06035	-0.272
Mof_I 	I 	0.02111	0.65581	0.13398	-0.358
Mof_I 	I 	0.88913	0.771	0.90194	-0.035
Mof_I 	I 	0.24342	0.22426	0.81	-0.331
Mof_Zn	Zn	0.0791	0.62396	0.09794	1.164
Mof_Zn	Zn	0.87093	0.9101	0.9381	1.154
Mof_Zn	Zn	0.17796	0.14978	0.77825	1.159
Mof_N 	N 	0.0661	0.5168	0.0548	-0.271
Mof_N 	N 	0.9167	0.9975	0.9417	-0.278
Mof_N 	N 	0.1427	0.1663	0.8246	-0.278
Mof_N 	N 	0.0369	0.1508	0.9143	-0.132
Mof_N 	N 	0.0209	0.2303	0.9756	-0.145
Mof_N 	N 	0.0749	0.2761	0.9442	-0.138
Mof_N 	N 	0.1175	0.4486	0.6449	-0.274
Mof_N 	N 	0.3283	0.4747	0.8932	-0.275
Mof_N 	N 	0.1863	0.0123	0.7811	-0.277
Mof_N 	N 	0.1793	0.6843	0.7511	-0.135
Mof_N 	N 	0.2327	0.6955	0.8101	-0.14
Mof_N 	N 	0.2181	0.5569	0.7722	-0.141
Mof_C 	C 	0.9352	0.0338	0.9797	0.082
Mof_H 	H 	0.9258	0.0215	0.0054	-0.007
Mof_C 	C 	0.9673	0.0884	0.9829	-0.134
Mof_H 	H 	0.9795	0.1116	0.01	0.086
Mof_C 	C 	0.9809	0.1077	0.9438	0.06
Mof_C 	C 	0.9616	0.0733	0.9048	-0.136
Mof_H 	H 	0.9703	0.0851	0.8785	0.091
Mof_C 	C 	0.9287	0.0199	0.9043	0.078
Mof_H 	H 	0.9148	0.9996	0.8773	-0.017
Mof_C 	C 	0.0561	0.3644	0.0016	0.056
Mof_C 	C 	0.0284	0.3905	0.0259	-0.135
Mof_H 	H 	0.0057	0.3573	0.0246	0.081
Mof_C 	C 	0.0346	0.465	0.0516	0.085
Mof_H 	H 	0.0159	0.4808	0.068	-0.012
Mof_C 	C 	0.0936	0.4916	0.0311	0.062
Mof_H 	H 	0.1158	0.5264	0.0328	-0.011
Mof_C 	C 	0.0895	0.4159	0.0046	-0.123
Mof_H 	H 	0.1089	0.3997	0.9891	0.08
Mof_C 	C 	0.0928	0.1929	0.8843	0.072
Mof_C 	C 	0.1301	0.2316	0.8906	-0.128
Mof_H 	H 	0.1385	0.2684	0.9149	0.088
Mof_C 	C 	0.1538	0.2153	0.8613	0.083
Mof_H 	H 	0.1788	0.2392	0.8668	-0.016
Mof_C 	C 	0.1072	0.1295	0.8175	0.082
Mof_H 	H 	0.0993	0.095	0.7922	-0.021
Mof_C 	C 	0.082	0.1415	0.8465	-0.13
Mof_H 	H 	0.0576	0.1149	0.8406	0.091
Mof_C 	C 	0.067	0.2066	0.9162	0.1
Mof_C 	C 	0.0508	0.2857	0.9723	0.084
Mof_C 	C 	0.0148	0.1661	0.9447	0.086
Mof_C 	C 	0.164	0.5458	0.7109	0.071
Mof_C 	C 	0.1273	0.5782	0.6907	-0.139
Mof_H 	H 	0.1179	0.6325	0.6991	0.1
Mof_C 	C 	0.1059	0.5261	0.658	0.095
Mof_H 	H 	0.0816	0.5471	0.6443	-0.018
Mof_C 	C 	0.1527	0.4178	0.6648	0.078
Mof_H 	H 	0.1612	0.3629	0.656	-0.014
Mof_C 	C 	0.176	0.4649	0.6976	-0.142
Mof_H 	H 	0.2001	0.4419	0.7109	0.084
Mof_C 	C 	0.2695	0.5616	0.8359	0.053
Mof_C 	C 	0.2776	0.4718	0.8295	-0.132
Mof_H 	H 	0.2632	0.4399	0.806	0.092
Mof_C 	C 	0.3072	0.4312	0.8583	0.07
Mof_H 	H 	0.313	0.3716	0.8537	-0.006
Mof_C 	C 	0.3202	0.5595	0.9001	0.078
Mof_H 	H 	0.3344	0.589	0.9246	-0.005
Mof_C 	C 	0.2913	0.6057	0.872	-0.129
Mof_H 	H 	0.2865	0.6655	0.8772	0.089
Mof_C 	C 	0.1964	0.8276	0.783	0.065
Mof_C 	C 	0.2205	0.8822	0.8131	-0.135
Mof_H 	H 	0.2404	0.8579	0.8341	0.086
Mof_C 	C 	0.214	0.9739	0.811	0.079
Mof_H 	H 	0.2297	0.0104	0.8315	-0.016
Mof_C 	C 	0.1638	0.9595	0.7522	0.077
Mof_H 	H 	0.1445	0.986	0.7312	-0.019
Mof_C 	C 	0.1676	0.8667	0.7516	-0.134
Mof_H 	H 	0.1513	0.832	0.7309	0.093
Mof_C 	C 	0.203	0.7295	0.7815	0.104
Mof_C 	C 	0.2383	0.6063	0.8045	0.083
Mof_C 	C 	0.1882	0.5993	0.7463	0.097
Mof_I 	I 	0.84925	0.92135	0.01422	-0.516
Mof_I 	I 	0.13155	0.1826	0.7004	-0.292
Mof_I 	I 	0.14289	0.1827	0.7047	-0.076
Mof_I 	I 	0.8937	0.7757	0.8875	-0.3
Mof_I 	I 	0.85076	0.8864	0.0026	0.136
Mof_I 	I 	0.234	0.236	0.7971	-0.039
Mof_I 	I 	0.1057	0.712	0.0446	-0.092
Mof_I 	I 	0.61604	0.76274	0.56035	-0.272
Mof_I 	I 	0.52111	0.84419	0.63398	-0.358
Mof_I 	I 	0.38913	0.729	0.40194	-0.035
Mof_I 	I 	0.74342	0.27574	0.31	-0.331
Mof_Zn	Zn	0.5791	0.87604	0.59794	1.164
Mof_Zn	Zn	0.37093	0.5899	0.4381	1.154
Mof_Zn	Zn	0.67796	0.35022	0.27825	1.159
Mof_N 	N 	0.5661	0.9832	0.5548	-0.271
Mof_N 	N 	0.4167	0.5025	0.4417	-0.277
Mof_N 	N 	0.6427	0.3337	0.3246	-0.278
Mof_N 	N 	0.5369	0.3492	0.4143	-0.132
Mof_N 	N 	0.5209	0.2697	0.4756	-0.145
Mof_N 	N 	0.5749	0.2239	0.4442	-0.138
Mof_N 	N 	0.6175	0.0514	0.1449	-0.274
Mof_N 	N 	0.8283	0.0253	0.3932	-0.275
Mof_N 	N 	0.6863	0.4877	0.2811	-0.277
Mof_N 	N 	0.6793	0.8157	0.2511	-0.135
Mof_N 	N 	0.7327	0.8045	0.3101	-0.14
Mof_N 	N 	0.7181	0.9431	0.2722	-0.141
Mof_C 	C 	0.4352	0.4662	0.4797	0.081
Mof_H 	H 	0.4258	0.4785	0.5054	-0.006
Mof_C 	C 	0.4673	0.4116	0.4829	-0.133
Mof_H 	H 	0.4795	0.3884	0.51	0.086
Mof_C 	C 	0.4809	0.3923	0.4438	0.06
Mof_C 	C 	0.4616	0.4267	0.4048	-0.136
Mof_H 	H 	0.4703	0.4149	0.3785	0.091
Mof_C 	C 	0.4287	0.4801	0.4043	0.077
Mof_H 	H 	0.4148	0.5004	0.3773	-0.017
Mof_C 	C 	0.5561	0.1356	0.5016	0.056
Mof_C 	C 	0.5284	0.1095	0.5259	-0.135
Mof_H 	H 	0.5057	0.1427	0.5246	0.081
Mof_C 	C 	0.5346	0.035	0.5516	0.085
Mof_H 	H 	0.5159	0.0192	0.568	-0.012
Mof_C 	C 	0.5936	0.0084	0.5311	0.062
Mof_H 	H 	0.6158	0.9736	0.5328	-0.011
Mof_C 	C 	0.5895	0.0841	0.5046	-0.123
Mof_H 	H 	0.6089	0.1003	0.4891	0.08
Mof_C 	C 	0.5928	0.3071	0.3843	0.072
Mof_C 	C 	0.6301	0.2684	0.3906	-0.128
Mof_H 	H 	0.6385	0.2316	0.4149	0.088
Mof_C 	C 	0.6538	0.2847	0.3613	0.083
Mof_H 	H 	0.6788	0.2608	0.3668	-0.016
Mof_C 	C 	0.6072	0.3705	0.3175	0.082
Mof_H 	H 	0.5993	0.405	0.2922	-0.021
Mof_C 	C 	0.582	0.3585	0.3465	-0.13
Mof_H 	H 	0.5576	0.3851	0.3406	0.091
Mof_C 	C 	0.567	0.2934	0.4162	0.1
Mof_C 	C 	0.5508	0.2143	0.4723	0.084
Mof_C 	C 	0.5148	0.3339	0.4447	0.086
Mof_C 	C 	0.664	0.9542	0.2109	0.071
Mof_C 	C 	0.6273	0.9218	0.1907	-0.14
Mof_H 	H 	0.6179	0.8675	0.1991	0.1
Mof_C 	C 	0.6059	0.9739	0.158	0.095
Mof_H 	H 	0.5816	0.9529	0.1443	-0.018
Mof_C 	C 	0.6527	0.0822	0.1648	0.078
Mof_H 	H 	0.6612	0.1371	0.156	-0.014
Mof_C 	C 	0.676	0.0351	0.1976	-0.142
Mof_H 	H 	0.7001	0.0581	0.2109	0.084
Mof_C 	C 	0.7695	0.9384	0.3359	0.053
Mof_C 	C 	0.7776	0.0282	0.3295	-0.132
Mof_H 	H 	0.7632	0.0601	0.306	0.092
Mof_C 	C 	0.8072	0.0688	0.3583	0.07
Mof_H 	H 	0.813	0.1284	0.3537	-0.006
Mof_C 	C 	0.8202	0.9405	0.4001	0.079
Mof_H 	H 	0.8344	0.911	0.4246	-0.005
Mof_C 	C 	0.7913	0.8943	0.372	-0.129
Mof_H 	H 	0.7865	0.8345	0.3772	0.089
Mof_C 	C 	0.6964	0.6724	0.283	0.065
Mof_C 	C 	0.7205	0.6178	0.3131	-0.135
Mof_H 	H 	0.7404	0.6421	0.3341	0.086
Mof_C 	C 	0.714	0.5261	0.311	0.08
Mof_H 	H 	0.7297	0.4896	0.3315	-0.016
Mof_C 	C 	0.6638	0.5405	0.2522	0.077
Mof_H 	H 	0.6445	0.514	0.2312	-0.019
Mof_C 	C 	0.6676	0.6333	0.2516	-0.135
Mof_H 	H 	0.6513	0.668	0.2309	0.093
Mof_C 	C 	0.703	0.7705	0.2815	0.104
Mof_C 	C 	0.7383	0.8937	0.3045	0.083
Mof_C 	C 	0.6882	0.9007	0.2463	0.097
Mof_I 	I 	0.34925	0.57865	0.51422	-0.516
Mof_I 	I 	0.63155	0.3174	0.2004	-0.292
Mof_I 	I 	0.64289	0.3173	0.2047	-0.076
Mof_I 	I 	0.3937	0.7243	0.3875	-0.3
Mof_I 	I 	0.35076	0.6136	0.5026	0.136
Mof_I 	I 	0.734	0.264	0.2971	-0.039
Mof_I 	I 	0.6057	0.788	0.5446	-0.092
Mof_I 	I 	0.11604	0.26274	0.56035	-0.272
Mof_I 	I 	0.02111	0.34419	0.63398	-0.358
Mof_I 	I 	0.88913	0.229	0.40194	-0.035
Mof_I 	I 	0.24342	0.77574	0.31	-0.331
Mof_Zn	Zn	0.0791	0.37604	0.59794	1.164
Mof_Zn	Zn	0.87093	0.0899	0.4381	1.154
Mof_Zn	Zn	0.17796	0.85022	0.27825	1.159
Mof_N 	N 	0.0661	0.4832	0.5548	-0.271
Mof_N 	N 	0.9167	0.0025	0.4417	-0.277
Mof_N 	N 	0.1427	0.8337	0.3246	-0.278
Mof_N 	N 	0.0369	0.8492	0.4143	-0.132
Mof_N 	N 	0.0209	0.7697	0.4756	-0.145
Mof_N 	N 	0.0749	0.7239	0.4442	-0.138
Mof_N 	N 	0.1175	0.5514	0.1449	-0.274
Mof_N 	N 	0.3283	0.5253	0.3932	-0.275
Mof_N 	N 	0.1863	0.9877	0.2811	-0.277
Mof_N 	N 	0.1793	0.3157	0.2511	-0.135
Mof_N 	N 	0.2327	0.3045	0.3101	-0.14
Mof_N 	N 	0.2181	0.4431	0.2722	-0.141
Mof_C 	C 	0.9352	0.9662	0.4797	0.081
Mof_H 	H 	0.9258	0.9785	0.5054	-0.006
Mof_C 	C 	0.9673	0.9116	0.4829	-0.134
Mof_H 	H 	0.9795	0.8884	0.51	0.086
Mof_C 	C 	0.9809	0.8923	0.4438	0.06
Mof_C 	C 	0.9616	0.9267	0.4048	-0.136
Mof_H 	H 	0.9703	0.9149	0.3785	0.091
Mof_C 	C 	0.9287	0.9801	0.4043	0.077
Mof_H 	H 	0.9148	0.0004	0.3773	-0.017
Mof_C 	C 	0.0561	0.6356	0.5016	0.056
Mof_C 	C 	0.0284	0.6095	0.5259	-0.135
Mof_H 	H 	0.0057	0.6427	0.5246	0.081
Mof_C 	C 	0.0346	0.535	0.5516	0.085
Mof_H 	H 	0.0159	0.5192	0.568	-0.012
Mof_C 	C 	0.0936	0.5084	0.5311	0.062
Mof_H 	H 	0.1158	0.4736	0.5328	-0.011
Mof_C 	C 	0.0895	0.5841	0.5046	-0.123
Mof_H 	H 	0.1089	0.6003	0.4891	0.08
Mof_C 	C 	0.0928	0.8071	0.3843	0.072
Mof_C 	C 	0.1301	0.7684	0.3906	-0.128
Mof_H 	H 	0.1385	0.7316	0.4149	0.088
Mof_C 	C 	0.1538	0.7847	0.3613	0.083
Mof_H 	H 	0.1788	0.7608	0.3668	-0.016
Mof_C 	C 	0.1072	0.8705	0.3175	0.082
Mof_H 	H 	0.0993	0.905	0.2922	-0.021
Mof_C 	C 	0.082	0.8585	0.3465	-0.13
Mof_H 	H 	0.0576	0.8851	0.3406	0.091
Mof_C 	C 	0.067	0.7934	0.4162	0.1
Mof_C 	C 	0.0508	0.7143	0.4723	0.084
Mof_C 	C 	0.0148	0.8339	0.4447	0.086
Mof_C 	C 	0.164	0.4542	0.2109	0.071
Mof_C 	C 	0.1273	0.4218	0.1907	-0.139
Mof_H 	H 	0.1179	0.3675	0.1991	0.1
Mof_C 	C 	0.1059	0.4739	0.158	0.095
Mof_H 	H 	0.0816	0.4529	0.1443	-0.018
Mof_C 	C 	0.1527	0.5822	0.1648	0.078
Mof_H 	H 	0.1612	0.6371	0.156	-0.014
Mof_C 	C 	0.176	0.5351	0.1976	-0.142
Mof_H 	H 	0.2001	0.5581	0.2109	0.084
Mof_C 	C 	0.2695	0.4384	0.3359	0.053
Mof_C 	C 	0.2776	0.5282	0.3295	-0.132
Mof_H 	H 	0.2632	0.5601	0.306	0.092
Mof_C 	C 	0.3072	0.5688	0.3583	0.07
Mof_H 	H 	0.313	0.6284	0.3537	-0.006
Mof_C 	C 	0.3202	0.4405	0.4001	0.078
Mof_H 	H 	0.3344	0.411	0.4246	-0.005
Mof_C 	C 	0.2913	0.3943	0.372	-0.129
Mof_H 	H 	0.2865	0.3345	0.3772	0.089
Mof_C 	C 	0.1964	0.1724	0.283	0.065
Mof_C 	C 	0.2205	0.1178	0.3131	-0.135
Mof_H 	H 	0.2404	0.1421	0.3341	0.086
Mof_C 	C 	0.214	0.0261	0.311	0.079
Mof_H 	H 	0.2297	0.9896	0.3315	-0.016
Mof_C 	C 	0.1638	0.0405	0.2522	0.077
Mof_H 	H 	0.1445	0.014	0.2312	-0.019
Mof_C 	C 	0.1676	0.1333	0.2516	-0.134
Mof_H 	H 	0.1513	0.168	0.2309	0.093
Mof_C 	C 	0.203	0.2705	0.2815	0.104
Mof_C 	C 	0.2383	0.3937	0.3045	0.083
Mof_C 	C 	0.1882	0.4007	0.2463	0.097
Mof_I 	I 	0.84925	0.07865	0.51422	-0.516
Mof_I 	I 	0.13155	0.8174	0.2004	-0.292
Mof_I 	I 	0.14289	0.8173	0.2047	-0.076
Mof_I 	I 	0.8937	0.2243	0.3875	-0.3
Mof_I 	I 	0.85076	0.1136	0.5026	0.136
Mof_I 	I 	0.234	0.764	0.2971	-0.039
Mof_I 	I 	0.1057	0.288	0.5446	-0.092
_end
