data_functionalizedCrystal
_audit_creation_method	'EQeq! by Chris Wilmer'
_symmetry_space_group_name_H-M	'P1'
_symmetry_Int_Tables_number	1
_symmetry_cell_setting	triclinic
loop_
_symmetry_equiv_pos_as_xyz
  x,y,z
_cell_length_a	20.9357
_cell_length_b	20.9357
_cell_length_c	34.8126
_cell_angle_alpha	90
_cell_angle_beta	90
_cell_angle_gamma	120
loop_
_atom_site_label
_atom_site_type_symbol
_atom_site_fract_x
_atom_site_fract_y
_atom_site_fract_z
_atom_site_charge
Mof_Al	Al	0.27673	0.07328	0.51482	6.96
Mof_O 	O 	0.3091	0.1041	0.56894	-1.491
Mof_C 	C 	0.3246	0.1015	0.64753	0.082
Mof_O 	O 	0.35413	0.05828	0.5115	-1.527
Mof_C 	C 	0.4407	0.9428	0.4856	0.111
Mof_O 	O 	0.2498	0.0272	0.47231	-2.784
Mof_C 	C 	0.2799	0.0607	0.4383	0.399
Mof_N 	N 	0.32927	0.04213	0.62283	-0.138
Mof_N 	N 	0.3714	0.8754	0.4712	-0.112
Mof_Al	Al	0.9434	0.40661	0.84815	7.01
Mof_O 	O 	0.97577	0.43743	0.90227	-1.494
Mof_C 	C 	0.99127	0.43483	0.98086	0.103
Mof_O 	O 	0.0208	0.39161	0.84483	-1.54
Mof_C 	C 	0.10737	0.27613	0.81893	0.097
Mof_O 	O 	0.91647	0.36053	0.80564	-2.783
Mof_C 	C 	0.94657	0.39403	0.77163	0.411
Mof_N 	N 	0.99594	0.37546	0.95616	-0.133
Mof_N 	N 	0.03807	0.20873	0.80453	-0.118
Mof_Al	Al	0.61006	0.73995	0.18149	6.994
Mof_O 	O 	0.64243	0.77077	0.23561	-1.492
Mof_C 	C 	0.65793	0.76817	0.3142	0.086
Mof_O 	O 	0.68746	0.72495	0.17817	-1.53
Mof_C 	C 	0.77403	0.60947	0.15227	0.101
Mof_O 	O 	0.58313	0.69387	0.13898	-2.781
Mof_C 	C 	0.61323	0.72737	0.10497	0.407
Mof_N 	N 	0.6626	0.7088	0.2895	-0.133
Mof_N 	N 	0.70473	0.54207	0.13787	-0.111
Mof_Al	Al	0.92672	0.20345	0.51482	7.011
Mof_O 	O 	0.8959	0.205	0.56894	-1.493
Mof_C 	C 	0.8985	0.2231	0.64753	0.086
Mof_O 	O 	0.94172	0.29585	0.5115	-1.525
Mof_C 	C 	0.0572	0.4979	0.4856	0.102
Mof_O 	O 	0.9728	0.2226	0.47231	-2.774
Mof_C 	C 	0.9393	0.2192	0.4383	0.41
Mof_N 	N 	0.95787	0.28714	0.62283	-0.131
Mof_N 	N 	0.1246	0.496	0.4712	-0.112
Mof_Al	Al	0.59339	0.53678	0.84815	6.992
Mof_O 	O 	0.56257	0.53833	0.90227	-1.492
Mof_C 	C 	0.56517	0.55643	0.98086	0.086
Mof_O 	O 	0.60839	0.62918	0.84483	-1.53
Mof_C 	C 	0.72387	0.83123	0.81893	0.101
Mof_O 	O 	0.63947	0.55593	0.80564	-2.781
Mof_C 	C 	0.60597	0.55253	0.77163	0.406
Mof_N 	N 	0.62454	0.62047	0.95616	-0.133
Mof_N 	N 	0.79127	0.82933	0.80453	-0.109
Mof_Al	Al	0.26005	0.87012	0.18149	6.989
Mof_O 	O 	0.22923	0.87167	0.23561	-1.491
Mof_C 	C 	0.23183	0.88977	0.3142	0.086
Mof_O 	O 	0.27505	0.96252	0.17817	-1.521
Mof_C 	C 	0.39053	0.16457	0.15227	0.099
Mof_O 	O 	0.30613	0.88927	0.13898	-2.782
Mof_C 	C 	0.27263	0.88587	0.10497	0.407
Mof_N 	N 	0.2912	0.95381	0.2895	-0.132
Mof_N 	N 	0.45793	0.16267	0.13787	-0.113
Mof_Al	Al	0.79655	0.72327	0.51482	6.993
Mof_O 	O 	0.795	0.6909	0.56894	-1.492
Mof_C 	C 	0.7769	0.6754	0.64753	0.087
Mof_O 	O 	0.70415	0.64587	0.5115	-1.53
Mof_C 	C 	0.5021	0.5593	0.4856	0.101
Mof_O 	O 	0.7774	0.7502	0.47231	-2.78
Mof_C 	C 	0.7808	0.7201	0.4383	0.408
Mof_N 	N 	0.71286	0.67073	0.62283	-0.133
Mof_N 	N 	0.504	0.6286	0.4712	-0.112
Mof_Al	Al	0.46322	0.0566	0.84815	6.966
Mof_O 	O 	0.46167	0.02423	0.90227	-1.49
Mof_C 	C 	0.44357	0.00873	0.98086	0.067
Mof_O 	O 	0.37082	0.9792	0.84483	-1.519
Mof_C 	C 	0.16877	0.89263	0.81893	0.105
Mof_O 	O 	0.44407	0.08353	0.80564	-2.776
Mof_C 	C 	0.44747	0.05343	0.77163	0.399
Mof_N 	N 	0.37953	0.00406	0.95616	-0.137
Mof_N 	N 	0.17067	0.96193	0.80453	-0.109
Mof_Al	Al	0.12988	0.38994	0.18149	6.991
Mof_O 	O 	0.12833	0.35757	0.23561	-1.493
Mof_C 	C 	0.11023	0.34207	0.3142	0.085
Mof_O 	O 	0.03748	0.31254	0.17817	-1.541
Mof_C 	C 	0.83543	0.22597	0.15227	0.103
Mof_O 	O 	0.11073	0.41687	0.13898	-2.777
Mof_C 	C 	0.11413	0.38677	0.10497	0.402
Mof_N 	N 	0.04619	0.3374	0.2895	-0.137
Mof_N 	N 	0.83733	0.29527	0.13787	-0.111
Mof_Al	Al	0.07328	0.27673	0.48518	6.961
Mof_O 	O 	0.1041	0.3091	0.43106	-1.49
Mof_C 	C 	0.1015	0.3246	0.35247	0.083
Mof_O 	O 	0.05828	0.35413	0.4885	-1.526
Mof_C 	C 	0.9428	0.4407	0.5144	0.112
Mof_O 	O 	0.0272	0.2498	0.52769	-2.783
Mof_C 	C 	0.0607	0.2799	0.5617	0.4
Mof_N 	N 	0.04213	0.32927	0.37717	-0.137
Mof_N 	N 	0.8754	0.3714	0.5288	-0.111
Mof_Al	Al	0.73995	0.61006	0.81851	6.994
Mof_O 	O 	0.77077	0.64243	0.76439	-1.492
Mof_C 	C 	0.76817	0.65793	0.6858	0.086
Mof_O 	O 	0.72495	0.68746	0.82183	-1.53
Mof_C 	C 	0.60947	0.77403	0.84773	0.101
Mof_O 	O 	0.69387	0.58313	0.86102	-2.781
Mof_C 	C 	0.72737	0.61323	0.89503	0.407
Mof_N 	N 	0.7088	0.6626	0.7105	-0.133
Mof_N 	N 	0.54207	0.70473	0.86213	-0.111
Mof_Al	Al	0.40661	0.9434	0.15185	7.011
Mof_O 	O 	0.43743	0.97577	0.09773	-1.494
Mof_C 	C 	0.43483	0.99127	0.01914	0.103
Mof_O 	O 	0.39161	0.0208	0.15517	-1.54
Mof_C 	C 	0.27613	0.10737	0.18107	0.097
Mof_O 	O 	0.36053	0.91647	0.19436	-2.783
Mof_C 	C 	0.39403	0.94657	0.22837	0.411
Mof_N 	N 	0.37546	0.99594	0.04384	-0.133
Mof_N 	N 	0.20873	0.03807	0.19547	-0.118
Mof_Al	Al	0.20345	0.92672	0.48518	7.011
Mof_O 	O 	0.205	0.8959	0.43106	-1.493
Mof_C 	C 	0.2231	0.8985	0.35247	0.086
Mof_O 	O 	0.29585	0.94172	0.4885	-1.525
Mof_C 	C 	0.4979	0.0572	0.5144	0.102
Mof_O 	O 	0.2226	0.9728	0.52769	-2.774
Mof_C 	C 	0.2192	0.9393	0.5617	0.41
Mof_N 	N 	0.28714	0.95787	0.37717	-0.131
Mof_N 	N 	0.496	0.1246	0.5288	-0.112
Mof_Al	Al	0.87012	0.26005	0.81851	6.989
Mof_O 	O 	0.87167	0.22923	0.76439	-1.491
Mof_C 	C 	0.88977	0.23183	0.6858	0.086
Mof_O 	O 	0.96252	0.27505	0.82183	-1.521
Mof_C 	C 	0.16457	0.39053	0.84773	0.099
Mof_O 	O 	0.88927	0.30613	0.86102	-2.782
Mof_C 	C 	0.88587	0.27263	0.89503	0.407
Mof_N 	N 	0.95381	0.2912	0.7105	-0.132
Mof_N 	N 	0.16267	0.45793	0.86213	-0.113
Mof_Al	Al	0.53678	0.59339	0.15185	6.992
Mof_O 	O 	0.53833	0.56257	0.09773	-1.492
Mof_C 	C 	0.55643	0.56517	0.01914	0.086
Mof_O 	O 	0.62918	0.60839	0.15517	-1.53
Mof_C 	C 	0.83123	0.72387	0.18107	0.101
Mof_O 	O 	0.55593	0.63947	0.19436	-2.781
Mof_C 	C 	0.55253	0.60597	0.22837	0.406
Mof_N 	N 	0.62047	0.62454	0.04384	-0.133
Mof_N 	N 	0.82933	0.79127	0.19547	-0.109
Mof_Al	Al	0.72327	0.79655	0.48518	6.993
Mof_O 	O 	0.6909	0.795	0.43106	-1.492
Mof_C 	C 	0.6754	0.7769	0.35247	0.087
Mof_O 	O 	0.64587	0.70415	0.4885	-1.53
Mof_C 	C 	0.5593	0.5021	0.5144	0.101
Mof_O 	O 	0.7502	0.7774	0.52769	-2.78
Mof_C 	C 	0.7201	0.7808	0.5617	0.408
Mof_N 	N 	0.67073	0.71286	0.37717	-0.133
Mof_N 	N 	0.6286	0.504	0.5288	-0.112
Mof_Al	Al	0.38994	0.12988	0.81851	6.991
Mof_O 	O 	0.35757	0.12833	0.76439	-1.493
Mof_C 	C 	0.34207	0.11023	0.6858	0.085
Mof_O 	O 	0.31254	0.03748	0.82183	-1.541
Mof_C 	C 	0.22597	0.83543	0.84773	0.103
Mof_O 	O 	0.41687	0.11073	0.86102	-2.777
Mof_C 	C 	0.38677	0.11413	0.89503	0.402
Mof_N 	N 	0.3374	0.04619	0.7105	-0.137
Mof_N 	N 	0.29527	0.83733	0.86213	-0.111
Mof_Al	Al	0.0566	0.46322	0.15185	6.966
Mof_O 	O 	0.02423	0.46167	0.09773	-1.49
Mof_C 	C 	0.00873	0.44357	0.01914	0.067
Mof_O 	O 	0.9792	0.37082	0.15517	-1.519
Mof_C 	C 	0.89263	0.16877	0.18107	0.105
Mof_O 	O 	0.08353	0.44407	0.19436	-2.776
Mof_C 	C 	0.05343	0.44747	0.22837	0.399
Mof_N 	N 	0.00406	0.37953	0.04384	-0.137
Mof_N 	N 	0.96193	0.17067	0.19547	-0.109
Mof_Al	Al	0.72327	0.92672	0.48518	7.013
Mof_O 	O 	0.6909	0.8959	0.43106	-1.493
Mof_C 	C 	0.6754	0.8985	0.35247	0.088
Mof_O 	O 	0.64587	0.94172	0.4885	-1.524
Mof_C 	C 	0.5593	0.0572	0.5144	0.102
Mof_O 	O 	0.7502	0.9728	0.52769	-2.774
Mof_C 	C 	0.7201	0.9393	0.5617	0.412
Mof_N 	N 	0.67073	0.95787	0.37717	-0.13
Mof_N 	N 	0.6286	0.1246	0.5288	-0.112
Mof_Al	Al	0.38994	0.26005	0.81851	6.989
Mof_O 	O 	0.35757	0.22923	0.76439	-1.492
Mof_C 	C 	0.34207	0.23183	0.6858	0.086
Mof_O 	O 	0.31254	0.27505	0.82183	-1.53
Mof_C 	C 	0.22597	0.39053	0.84773	0.101
Mof_O 	O 	0.41687	0.30613	0.86102	-2.779
Mof_C 	C 	0.38677	0.27263	0.89503	0.404
Mof_N 	N 	0.3374	0.2912	0.7105	-0.135
Mof_N 	N 	0.29527	0.45793	0.86213	-0.112
Mof_Al	Al	0.0566	0.59339	0.15185	6.966
Mof_O 	O 	0.02423	0.56257	0.09773	-1.49
Mof_C 	C 	0.00873	0.56517	0.01914	0.067
Mof_O 	O 	0.9792	0.60839	0.15517	-1.519
Mof_C 	C 	0.89263	0.72387	0.18107	0.105
Mof_O 	O 	0.08353	0.63947	0.19436	-2.776
Mof_C 	C 	0.05343	0.60597	0.22837	0.399
Mof_N 	N 	0.00406	0.62454	0.04384	-0.136
Mof_N 	N 	0.96193	0.79127	0.19547	-0.106
Mof_Al	Al	0.07328	0.79655	0.48518	6.96
Mof_O 	O 	0.1041	0.795	0.43106	-1.49
Mof_C 	C 	0.1015	0.7769	0.35247	0.084
Mof_O 	O 	0.05828	0.70415	0.4885	-1.525
Mof_C 	C 	0.9428	0.5021	0.5144	0.112
Mof_O 	O 	0.0272	0.7774	0.52769	-2.784
Mof_C 	C 	0.0607	0.7808	0.5617	0.401
Mof_N 	N 	0.04213	0.71286	0.37717	-0.137
Mof_N 	N 	0.8754	0.504	0.5288	-0.111
Mof_Al	Al	0.73995	0.12988	0.81851	6.993
Mof_O 	O 	0.77077	0.12833	0.76439	-1.493
Mof_C 	C 	0.76817	0.11023	0.6858	0.085
Mof_O 	O 	0.72495	0.03748	0.82183	-1.542
Mof_C 	C 	0.60947	0.83543	0.84773	0.103
Mof_O 	O 	0.69387	0.11073	0.86102	-2.778
Mof_C 	C 	0.72737	0.11413	0.89503	0.403
Mof_N 	N 	0.7088	0.04619	0.7105	-0.137
Mof_N 	N 	0.54207	0.83733	0.86213	-0.11
Mof_Al	Al	0.40661	0.46322	0.15185	6.99
Mof_O 	O 	0.43743	0.46167	0.09773	-1.492
Mof_C 	C 	0.43483	0.44357	0.01914	0.085
Mof_O 	O 	0.39161	0.37082	0.15517	-1.53
Mof_C 	C 	0.27613	0.16877	0.18107	0.101
Mof_O 	O 	0.36053	0.44407	0.19436	-2.78
Mof_C 	C 	0.39403	0.44747	0.22837	0.405
Mof_N 	N 	0.37546	0.37953	0.04384	-0.135
Mof_N 	N 	0.20873	0.17067	0.19547	-0.115
Mof_Al	Al	0.20345	0.27673	0.48518	6.991
Mof_O 	O 	0.205	0.3091	0.43106	-1.492
Mof_C 	C 	0.2231	0.3246	0.35247	0.084
Mof_O 	O 	0.29585	0.35413	0.4885	-1.53
Mof_C 	C 	0.4979	0.4407	0.5144	0.101
Mof_O 	O 	0.2226	0.2498	0.52769	-2.781
Mof_C 	C 	0.2192	0.2799	0.5617	0.404
Mof_N 	N 	0.28714	0.32927	0.37717	-0.134
Mof_N 	N 	0.496	0.3714	0.5288	-0.112
Mof_Al	Al	0.87012	0.61006	0.81851	6.992
Mof_O 	O 	0.87167	0.64243	0.76439	-1.491
Mof_C 	C 	0.88977	0.65793	0.6858	0.086
Mof_O 	O 	0.96252	0.68746	0.82183	-1.52
Mof_C 	C 	0.16457	0.77403	0.84773	0.099
Mof_O 	O 	0.88927	0.58313	0.86102	-2.783
Mof_C 	C 	0.88587	0.61323	0.89503	0.409
Mof_N 	N 	0.95381	0.6626	0.7105	-0.131
Mof_N 	N 	0.16267	0.70473	0.86213	-0.112
Mof_Al	Al	0.53678	0.9434	0.15185	7.014
Mof_O 	O 	0.53833	0.97577	0.09773	-1.494
Mof_C 	C 	0.55643	0.99127	0.01914	0.104
Mof_O 	O 	0.62918	0.0208	0.15517	-1.54
Mof_C 	C 	0.83123	0.10737	0.18107	0.097
Mof_O 	O 	0.55593	0.91647	0.19436	-2.784
Mof_C 	C 	0.55253	0.94657	0.22837	0.411
Mof_N 	N 	0.62047	0.99594	0.04384	-0.131
Mof_N 	N 	0.82933	0.03807	0.19547	-0.115
Mof_Al	Al	0.92672	0.72327	0.51482	7.013
Mof_O 	O 	0.8959	0.6909	0.56894	-1.493
Mof_C 	C 	0.8985	0.6754	0.64753	0.088
Mof_O 	O 	0.94172	0.64587	0.5115	-1.524
Mof_C 	C 	0.0572	0.5593	0.4856	0.102
Mof_O 	O 	0.9728	0.7502	0.47231	-2.774
Mof_C 	C 	0.9393	0.7201	0.4383	0.412
Mof_N 	N 	0.95787	0.67073	0.62283	-0.13
Mof_N 	N 	0.1246	0.6286	0.4712	-0.112
Mof_Al	Al	0.59339	0.0566	0.84815	6.966
Mof_O 	O 	0.56257	0.02423	0.90227	-1.49
Mof_C 	C 	0.56517	0.00873	0.98086	0.067
Mof_O 	O 	0.60839	0.9792	0.84483	-1.519
Mof_C 	C 	0.72387	0.89263	0.81893	0.105
Mof_O 	O 	0.63947	0.08353	0.80564	-2.776
Mof_C 	C 	0.60597	0.05343	0.77163	0.399
Mof_N 	N 	0.62454	0.00406	0.95616	-0.136
Mof_N 	N 	0.79127	0.96193	0.80453	-0.106
Mof_Al	Al	0.26005	0.38994	0.18149	6.989
Mof_O 	O 	0.22923	0.35757	0.23561	-1.492
Mof_C 	C 	0.23183	0.34207	0.3142	0.086
Mof_O 	O 	0.27505	0.31254	0.17817	-1.53
Mof_C 	C 	0.39053	0.22597	0.15227	0.101
Mof_O 	O 	0.30613	0.41687	0.13898	-2.779
Mof_C 	C 	0.27263	0.38677	0.10497	0.404
Mof_N 	N 	0.2912	0.3374	0.2895	-0.135
Mof_N 	N 	0.45793	0.29527	0.13787	-0.112
Mof_Al	Al	0.79655	0.07328	0.51482	6.96
Mof_O 	O 	0.795	0.1041	0.56894	-1.49
Mof_C 	C 	0.7769	0.1015	0.64753	0.084
Mof_O 	O 	0.70415	0.05828	0.5115	-1.525
Mof_C 	C 	0.5021	0.9428	0.4856	0.112
Mof_O 	O 	0.7774	0.0272	0.47231	-2.784
Mof_C 	C 	0.7808	0.0607	0.4383	0.401
Mof_N 	N 	0.71286	0.04213	0.62283	-0.137
Mof_N 	N 	0.504	0.8754	0.4712	-0.111
Mof_Al	Al	0.46322	0.40661	0.84815	6.99
Mof_O 	O 	0.46167	0.43743	0.90227	-1.492
Mof_C 	C 	0.44357	0.43483	0.98086	0.085
Mof_O 	O 	0.37082	0.39161	0.84483	-1.53
Mof_C 	C 	0.16877	0.27613	0.81893	0.101
Mof_O 	O 	0.44407	0.36053	0.80564	-2.78
Mof_C 	C 	0.44747	0.39403	0.77163	0.405
Mof_N 	N 	0.37953	0.37546	0.95616	-0.135
Mof_N 	N 	0.17067	0.20873	0.80453	-0.115
Mof_Al	Al	0.12988	0.73995	0.18149	6.993
Mof_O 	O 	0.12833	0.77077	0.23561	-1.493
Mof_C 	C 	0.11023	0.76817	0.3142	0.085
Mof_O 	O 	0.03748	0.72495	0.17817	-1.542
Mof_C 	C 	0.83543	0.60947	0.15227	0.103
Mof_O 	O 	0.11073	0.69387	0.13898	-2.778
Mof_C 	C 	0.11413	0.72737	0.10497	0.403
Mof_N 	N 	0.04619	0.7088	0.2895	-0.137
Mof_N 	N 	0.83733	0.54207	0.13787	-0.11
Mof_Al	Al	0.27673	0.20345	0.51482	6.991
Mof_O 	O 	0.3091	0.205	0.56894	-1.492
Mof_C 	C 	0.3246	0.2231	0.64753	0.084
Mof_O 	O 	0.35413	0.29585	0.5115	-1.53
Mof_C 	C 	0.4407	0.4979	0.4856	0.101
Mof_O 	O 	0.2498	0.2226	0.47231	-2.781
Mof_C 	C 	0.2799	0.2192	0.4383	0.404
Mof_N 	N 	0.32927	0.28714	0.62283	-0.134
Mof_N 	N 	0.3714	0.496	0.4712	-0.112
Mof_Al	Al	0.9434	0.53678	0.84815	7.014
Mof_O 	O 	0.97577	0.53833	0.90227	-1.494
Mof_C 	C 	0.99127	0.55643	0.98086	0.104
Mof_O 	O 	0.0208	0.62918	0.84483	-1.54
Mof_C 	C 	0.10737	0.83123	0.81893	0.097
Mof_O 	O 	0.91647	0.55593	0.80564	-2.784
Mof_C 	C 	0.94657	0.55253	0.77163	0.411
Mof_N 	N 	0.99594	0.62047	0.95616	-0.131
Mof_N 	N 	0.03807	0.82933	0.80453	-0.115
Mof_Al	Al	0.61006	0.87012	0.18149	6.992
Mof_O 	O 	0.64243	0.87167	0.23561	-1.491
Mof_C 	C 	0.65793	0.88977	0.3142	0.086
Mof_O 	O 	0.68746	0.96252	0.17817	-1.52
Mof_C 	C 	0.77403	0.16457	0.15227	0.099
Mof_O 	O 	0.58313	0.88927	0.13898	-2.783
Mof_C 	C 	0.61323	0.88587	0.10497	0.409
Mof_N 	N 	0.6626	0.95381	0.2895	-0.131
Mof_N 	N 	0.70473	0.16267	0.13787	-0.112
Mof_C 	C 	0.3158	0.1579	0.5868	1.138
Mof_C 	C 	0.3319	0.16595	0.632	-0.303
Mof_O 	O 	0.3315	0.16575	0.5019	-3.083
Mof_C 	C 	0.3864	0.1932	0.4773	0.617
Mof_O 	O 	0.1967	0.09835	0.52002	-2.064
Mof_C 	C 	0.98247	0.49123	0.92013	1.144
Mof_C 	C 	0.99857	0.49928	0.96533	-0.31
Mof_O 	O 	0.99817	0.49908	0.83523	-3.087
Mof_C 	C 	0.05307	0.52653	0.81063	0.606
Mof_O 	O 	0.86337	0.43168	0.85335	-2.069
Mof_C 	C 	0.64913	0.82457	0.25347	1.14
Mof_C 	C 	0.66523	0.83262	0.29867	-0.302
Mof_O 	O 	0.66483	0.83242	0.16857	-3.091
Mof_C 	C 	0.71973	0.85987	0.14397	0.623
Mof_O 	O 	0.53003	0.76502	0.18669	-2.063
Mof_C 	C 	0.8421	0.1579	0.5868	1.139
Mof_C 	C 	0.83405	0.16595	0.632	-0.303
Mof_O 	O 	0.83425	0.16575	0.5019	-3.087
Mof_C 	C 	0.8068	0.1932	0.4773	0.619
Mof_O 	O 	0.90165	0.09835	0.52002	-2.062
Mof_C 	C 	0.50877	0.49123	0.92013	1.14
Mof_C 	C 	0.50072	0.49928	0.96533	-0.303
Mof_O 	O 	0.50092	0.49908	0.83523	-3.09
Mof_C 	C 	0.47347	0.52653	0.81063	0.619
Mof_O 	O 	0.56832	0.43168	0.85335	-2.063
Mof_C 	C 	0.17543	0.82457	0.25347	1.14
Mof_C 	C 	0.16738	0.83262	0.29867	-0.304
Mof_O 	O 	0.16758	0.83242	0.16857	-3.089
Mof_C 	C 	0.14013	0.85987	0.14397	0.617
Mof_O 	O 	0.23498	0.76502	0.18669	-2.063
Mof_C 	C 	0.8421	0.6842	0.5868	1.142
Mof_C 	C 	0.83405	0.6681	0.632	-0.304
Mof_O 	O 	0.83425	0.6685	0.5019	-3.095
Mof_C 	C 	0.8068	0.6136	0.4773	0.621
Mof_O 	O 	0.90165	0.8033	0.52002	-2.061
Mof_C 	C 	0.50877	0.01753	0.92013	1.135
Mof_C 	C 	0.50072	0.00143	0.96533	-0.297
Mof_O 	O 	0.50092	0.00183	0.83523	-3.092
Mof_C 	C 	0.47347	0.94693	0.81063	0.633
Mof_O 	O 	0.56832	0.13663	0.85335	-2.056
Mof_C 	C 	0.17543	0.35087	0.25347	1.139
Mof_C 	C 	0.16738	0.33477	0.29867	-0.305
Mof_O 	O 	0.16758	0.33517	0.16857	-3.088
Mof_C 	C 	0.14013	0.28027	0.14397	0.613
Mof_O 	O 	0.23498	0.46997	0.18669	-2.062
Mof_C 	C 	0.1579	0.3158	0.4132	1.138
Mof_C 	C 	0.16595	0.3319	0.368	-0.303
Mof_O 	O 	0.16575	0.3315	0.4981	-3.083
Mof_C 	C 	0.1932	0.3864	0.5227	0.617
Mof_O 	O 	0.09835	0.1967	0.47998	-2.064
Mof_C 	C 	0.82457	0.64913	0.74653	1.14
Mof_C 	C 	0.83262	0.66523	0.70133	-0.302
Mof_O 	O 	0.83242	0.66483	0.83143	-3.091
Mof_C 	C 	0.85987	0.71973	0.85603	0.623
Mof_O 	O 	0.76502	0.53003	0.81331	-2.063
Mof_C 	C 	0.49123	0.98247	0.07987	1.144
Mof_C 	C 	0.49928	0.99857	0.03467	-0.31
Mof_O 	O 	0.49908	0.99817	0.16477	-3.087
Mof_C 	C 	0.52653	0.05307	0.18937	0.606
Mof_O 	O 	0.43168	0.86337	0.14665	-2.069
Mof_C 	C 	0.1579	0.8421	0.4132	1.139
Mof_C 	C 	0.16595	0.83405	0.368	-0.303
Mof_O 	O 	0.16575	0.83425	0.4981	-3.087
Mof_C 	C 	0.1932	0.8068	0.5227	0.619
Mof_O 	O 	0.09835	0.90165	0.47998	-2.062
Mof_C 	C 	0.82457	0.17543	0.74653	1.14
Mof_C 	C 	0.83262	0.16738	0.70133	-0.304
Mof_O 	O 	0.83242	0.16758	0.83143	-3.089
Mof_C 	C 	0.85987	0.14013	0.85603	0.617
Mof_O 	O 	0.76502	0.23498	0.81331	-2.063
Mof_C 	C 	0.49123	0.50877	0.07987	1.14
Mof_C 	C 	0.49928	0.50072	0.03467	-0.303
Mof_O 	O 	0.49908	0.50092	0.16477	-3.09
Mof_C 	C 	0.52653	0.47347	0.18937	0.619
Mof_O 	O 	0.43168	0.56832	0.14665	-2.063
Mof_C 	C 	0.6842	0.8421	0.4132	1.142
Mof_C 	C 	0.6681	0.83405	0.368	-0.304
Mof_O 	O 	0.6685	0.83425	0.4981	-3.095
Mof_C 	C 	0.6136	0.8068	0.5227	0.621
Mof_O 	O 	0.8033	0.90165	0.47998	-2.061
Mof_C 	C 	0.35087	0.17543	0.74653	1.139
Mof_C 	C 	0.33477	0.16738	0.70133	-0.305
Mof_O 	O 	0.33517	0.16758	0.83143	-3.088
Mof_C 	C 	0.28027	0.14013	0.85603	0.613
Mof_O 	O 	0.46997	0.23498	0.81331	-2.062
Mof_C 	C 	0.01753	0.50877	0.07987	1.135
Mof_C 	C 	0.00143	0.50072	0.03467	-0.297
Mof_O 	O 	0.00183	0.50092	0.16477	-3.092
Mof_C 	C 	0.94693	0.47347	0.18937	0.633
Mof_O 	O 	0.13663	0.56832	0.14665	-2.056
Mof_C 	C 	0.3644	-1.52826e-32	0.5	0.932
Mof_C 	C 	0.4375	-1.52826e-32	0.5	-0.326
Mof_C 	C 	0.03107	0.33333	0.83333	0.932
Mof_C 	C 	0.10417	0.33333	0.83333	-0.312
Mof_C 	C 	0.69773	0.66667	0.16667	0.943
Mof_C 	C 	0.77083	0.66667	0.16667	-0.312
Mof_C 	C 	-3.29924e-17	0.3644	0.5	0.932
Mof_C 	C 	-3.29924e-17	0.4375	0.5	-0.326
Mof_C 	C 	0.66667	0.69773	0.83333	0.943
Mof_C 	C 	0.66667	0.77083	0.83333	-0.312
Mof_C 	C 	0.33333	0.03107	0.16667	0.932
Mof_C 	C 	0.33333	0.10417	0.16667	-0.312
Mof_C 	C 	0.6356	0.6356	0.5	0.942
Mof_C 	C 	0.5625	0.5625	0.5	-0.313
Mof_C 	C 	0.30227	0.96893	0.83333	0.953
Mof_C 	C 	0.22917	0.89583	0.83333	-0.316
Mof_C 	C 	0.96893	0.30227	0.16667	0.953
Mof_C 	C 	0.89583	0.22917	0.16667	-0.316
Mof_C 	C 	0.6356	-1.52826e-32	0.5	0.931
Mof_C 	C 	0.5625	-1.52826e-32	0.5	-0.326
Mof_C 	C 	0.30227	0.33333	0.83333	0.942
Mof_C 	C 	0.22917	0.33333	0.83333	-0.314
Mof_C 	C 	0.96893	0.66667	0.16667	0.954
Mof_C 	C 	0.89583	0.66667	0.16667	-0.315
Mof_C 	C 	-3.29924e-17	0.6356	0.5	0.931
Mof_C 	C 	-3.29924e-17	0.5625	0.5	-0.326
Mof_C 	C 	0.66667	0.96893	0.83333	0.954
Mof_C 	C 	0.66667	0.89583	0.83333	-0.315
Mof_C 	C 	0.33333	0.30227	0.16667	0.942
Mof_C 	C 	0.33333	0.22917	0.16667	-0.314
Mof_C 	C 	0.3644	0.3644	0.5	0.942
Mof_C 	C 	0.4375	0.4375	0.5	-0.313
Mof_C 	C 	0.03107	0.69773	0.83333	0.932
Mof_C 	C 	0.10417	0.77083	0.83333	-0.31
Mof_C 	C 	0.69773	0.03107	0.16667	0.932
Mof_C 	C 	0.77083	0.10417	0.16667	-0.31
_end
