data_functionalizedCrystal
_audit_creation_method	'EQeq! by Chris Wilmer'
_symmetry_space_group_name_H-M	'P1'
_symmetry_Int_Tables_number	1
_symmetry_cell_setting	triclinic
loop_
_symmetry_equiv_pos_as_xyz
  x,y,z
_cell_length_a	8.1455
_cell_length_b	13.1869
_cell_length_c	19.3665
_cell_angle_alpha	109.905
_cell_angle_beta	99.4392
_cell_angle_gamma	90
loop_
_atom_site_label
_atom_site_type_symbol
_atom_site_fract_x
_atom_site_fract_y
_atom_site_fract_z
_atom_site_charge
Mof_Co	Co	-0	0	-0	1.075
Mof_Co	Co	0.5	0	-0	1.088
Mof_H 	H 	0.045	0.6437	0.7506	-0.047
Mof_H 	H 	0.8968	0.5456	0.636	0.155
Mof_H 	H 	0.5137	0.732	0.6786	0.112
Mof_H 	H 	0.6631	0.8313	0.7934	0.009
Mof_H 	H 	0.6559	0.4395	0.6544	0.096
Mof_H 	H 	0.8089	0.3263	0.6938	0.12
Mof_H 	H 	0.6595	0.3416	0.7374	0.111
Mof_H 	H 	0.7617	0.2381	0.7258	0.117
Mof_H 	H 	0.4086	0.0588	0.4024	0.173
Mof_H 	H 	0.3294	0.9882	0.4406	0.254
Mof_H 	H 	0.2398	0.089	0.431	0.173
Mof_H 	H 	0.344	0.2389	0.4258	0.07
Mof_H 	H 	0.455	0.8931	0.2494	0.017
Mof_H 	H 	0.6032	0.9096	0.364	0.124
Mof_H 	H 	0.9863	0.0534	0.3214	0.101
Mof_H 	H 	0.8369	0.0379	0.2066	0.023
Mof_H 	H 	0.8441	0.7851	0.3456	0.092
Mof_H 	H 	0.6911	0.6325	0.3062	0.101
Mof_H 	H 	0.8405	0.6042	0.2626	0.098
Mof_H 	H 	0.7383	0.5123	0.2742	0.099
Mof_H 	H 	0.0914	0.6564	0.5976	0.107
Mof_H 	H 	0.1706	0.5476	0.5594	0.125
Mof_H 	H 	0.2602	0.658	0.569	0.112
Mof_H 	H 	0.156	0.8131	0.5742	0.096
Mof_H 	H 	0.955	0.3563	0.2494	0.065
Mof_H 	H 	0.1032	0.4544	0.364	0.084
Mof_H 	H 	0.4863	0.268	0.3214	0.072
Mof_H 	H 	0.3369	0.1687	0.2066	0.008
Mof_H 	H 	0.3441	0.5605	0.3456	0.079
Mof_H 	H 	0.1911	0.6737	0.3062	0.09
Mof_H 	H 	0.3405	0.6584	0.2626	0.086
Mof_H 	H 	0.2383	0.7619	0.2742	0.093
Mof_H 	H 	0.5914	0.9412	0.5976	0.061
Mof_H 	H 	0.6706	0.0118	0.5594	0.019
Mof_H 	H 	0.7602	0.911	0.569	0.056
Mof_H 	H 	0.656	0.7611	0.5742	0.1
Mof_H 	H 	0.545	0.1069	0.7506	-0.002
Mof_H 	H 	0.3968	0.0904	0.636	0.117
Mof_H 	H 	0.0137	0.9466	0.6786	0.084
Mof_H 	H 	0.1631	0.9621	0.7934	-0.002
Mof_H 	H 	0.1559	0.2149	0.6544	0.082
Mof_H 	H 	0.3089	0.3675	0.6938	0.109
Mof_H 	H 	0.1595	0.3958	0.7374	0.1
Mof_H 	H 	0.2617	0.4877	0.7258	0.11
Mof_H 	H 	0.9086	0.3436	0.4024	0.126
Mof_H 	H 	0.8294	0.4524	0.4406	0.142
Mof_H 	H 	0.7398	0.342	0.431	0.116
Mof_H 	H 	0.844	0.1869	0.4258	0.076
Mof_C 	C 	0.9661	0.80846	0.86012	0.412
Mof_C 	C 	0.8692	0.74657	0.78494	-0.207
Mof_C 	C 	0.9373	0.66143	0.73646	0.216
Mof_C 	C 	0.8485	0.60274	0.66768	-0.27
Mof_C 	C 	0.6892	0.62712	0.64484	0.18
Mof_C 	C 	0.621	0.71386	0.69312	-0.223
Mof_C 	C 	0.7101	0.773	0.762	0.143
Mof_C 	C 	0.593	0.56193	0.57046	-0.11
Mof_C 	C 	0.5484	0.45294	0.55488	0.07
Mof_C 	C 	0.5972	0.39967	0.60734	-0.158
Mof_C 	C 	0.561	0.29365	0.5909	0.119
Mof_C 	C 	0.7185	0.28986	0.70372	-0.242
Mof_C 	C 	0.4646	0.23135	0.5205	0.074
Mof_C 	C 	0.346	0.06026	0.44052	-0.523
Mof_C 	C 	0.4111	0.27926	0.47052	-0.117
Mof_C 	C 	0.454	0.39041	0.48382	0.017
Mof_C 	C 	0.5339	0.94834	0.13988	0.34
Mof_C 	C 	0.6308	0.96163	0.21506	-0.073
Mof_C 	C 	0.5627	0.92497	0.26354	0.079
Mof_C 	C 	0.6515	0.93506	0.33232	-0.19
Mof_C 	C 	0.8108	0.98228	0.35516	0.185
Mof_C 	C 	0.879	0.02074	0.30688	-0.232
Mof_C 	C 	0.7899	0.011	0.238	0.005
Mof_C 	C 	0.907	0.99147	0.42954	-0.027
Mof_C 	C 	0.9516	0.89806	0.44512	0.06
Mof_C 	C 	0.9028	0.79233	0.39266	-0.147
Mof_C 	C 	0.939	0.70275	0.4091	0.139
Mof_C 	C 	0.7815	0.58614	0.29628	-0.213
Mof_C 	C 	0.0354	0.71085	0.4795	0.076
Mof_C 	C 	0.154	0.61974	0.55948	-0.247
Mof_C 	C 	0.0889	0.80874	0.52948	-0.151
Mof_C 	C 	0.046	0.90659	0.51618	0.083
Mof_C 	C 	0.0339	0.19154	0.13988	0.301
Mof_C 	C 	0.1308	0.25343	0.21506	-0.11
Mof_C 	C 	0.0627	0.33857	0.26354	-0.021
Mof_C 	C 	0.1515	0.39726	0.33232	-0.126
Mof_C 	C 	0.3108	0.37288	0.35516	0.083
Mof_C 	C 	0.379	0.28614	0.30688	-0.143
Mof_C 	C 	0.2899	0.227	0.238	0.041
Mof_C 	C 	0.407	0.43807	0.42954	-0.057
Mof_C 	C 	0.4516	0.54706	0.44512	0.027
Mof_C 	C 	0.4028	0.60033	0.39266	-0.124
Mof_C 	C 	0.439	0.70635	0.4091	0.09
Mof_C 	C 	0.2815	0.71014	0.29628	-0.199
Mof_C 	C 	0.5354	0.76865	0.4795	0.133
Mof_C 	C 	0.654	0.93974	0.55948	-0.003
Mof_C 	C 	0.5889	0.72074	0.52948	-0.166
Mof_C 	C 	0.546	0.60959	0.51618	0.066
Mof_C 	C 	0.4661	0.05166	0.86012	0.378
Mof_C 	C 	0.3692	0.03837	0.78494	-0.24
Mof_C 	C 	0.4373	0.07503	0.73646	0.122
Mof_C 	C 	0.3485	0.06494	0.66768	-0.209
Mof_C 	C 	0.1892	0.01772	0.64484	0.08
Mof_C 	C 	0.121	0.97926	0.69312	-0.132
Mof_C 	C 	0.2101	0.989	0.762	0.173
Mof_C 	C 	0.093	0.00853	0.57046	-0.143
Mof_C 	C 	0.0484	0.10194	0.55488	0.033
Mof_C 	C 	0.0972	0.20767	0.60734	-0.131
Mof_C 	C 	0.061	0.29725	0.5909	0.066
Mof_C 	C 	0.2185	0.41386	0.70372	-0.229
Mof_C 	C 	0.9646	0.28915	0.5205	0.136
Mof_C 	C 	0.846	0.38026	0.44052	-0.268
Mof_C 	C 	0.9111	0.19126	0.47052	-0.137
Mof_C 	C 	0.954	0.09341	0.48382	0.008
Mof_O 	O 	0.8924	0.87955	0.90484	-0.38
Mof_O 	O 	0.1127	0.78798	0.87576	-0.284
Mof_O 	O 	0.609	0.23628	0.63666	-0.162
Mof_O 	O 	0.4352	0.12646	0.51108	-0.104
Mof_O 	O 	0.6076	0.97471	0.09516	-0.403
Mof_O 	O 	0.3873	0.91222	0.12424	-0.277
Mof_O 	O 	0.891	0.59962	0.36334	-0.161
Mof_O 	O 	0.0648	0.61538	0.48892	-0.155
Mof_O 	O 	0.1076	0.12045	0.09516	-0.462
Mof_O 	O 	0.8873	0.21202	0.12424	-0.266
Mof_O 	O 	0.391	0.76372	0.36334	-0.163
Mof_O 	O 	0.5648	0.87354	0.48892	-0.191
Mof_O 	O 	0.3924	0.02529	0.90484	-0.435
Mof_O 	O 	0.6127	0.08778	0.87576	-0.274
Mof_O 	O 	0.109	0.40038	0.63666	-0.163
Mof_O 	O 	0.9352	0.38462	0.51108	-0.143
Mof_O 	O 	0.75	0.0666	-0	-0.431
Mof_O 	O 	0.25	0.9334	-0	-0.385
_end
