data_functionalizedCrystal
_audit_creation_method	'EQeq! by Chris Wilmer'
_symmetry_space_group_name_H-M	'P1'
_symmetry_Int_Tables_number	1
_symmetry_cell_setting	triclinic
loop_
_symmetry_equiv_pos_as_xyz
  x,y,z
_cell_length_a	11.727
_cell_length_b	13.451
_cell_length_c	15.565
_cell_angle_alpha	113.39
_cell_angle_beta	98.71
_cell_angle_gamma	102.97
loop_
_atom_site_label
_atom_site_type_symbol
_atom_site_fract_x
_atom_site_fract_y
_atom_site_fract_z
_atom_site_charge
Mof_Zn	Zn	0.34864	0.34572	0.65291	1.234
Mof_Zn	Zn	0.48042	0.80835	0.3094	1.217
Mof_Zn	Zn	0.07657	0.4203	0.68807	1.21
Mof_Zn	Zn	0.65136	0.65428	0.34709	1.234
Mof_Zn	Zn	0.51958	0.19165	0.6906	1.218
Mof_Zn	Zn	0.92343	0.5797	0.31193	1.212
Mof_H 	H 	0.1032	0.0057	0.3721	0.047
Mof_H 	H 	0.9002	0.8489	0.2987	0.057
Mof_H 	H 	0.5512	0.6493	0.9533	0.061
Mof_H 	H 	0.6626	0.7299	0.131	0.046
Mof_H 	H 	0.1891	0.7266	0.6375	0.054
Mof_H 	H 	0.2674	0.8132	0.5327	0.085
Mof_H 	H 	0.0106	0.4502	0.412	-0.036
Mof_H 	H 	0.1623	0.3745	0.4292	0.145
Mof_H 	H 	0.1271	0.5322	0.2194	-0.04
Mof_H 	H 	0.285	0.4612	0.2351	0.15
Mof_H 	H 	0.3466	0.3443	0.4031	0.213
Mof_H 	H 	0.4265	0.432	0.3763	0.227
Mof_H 	H 	0.3496	0.2953	0.2119	-0.074
Mof_H 	H 	0.4357	0.2635	0.2766	-0.061
Mof_H 	H 	0.1987	0.1749	0.2665	0.19
Mof_H 	H 	0.2222	0.1309	0.1634	0.187
Mof_H 	H 	0.3259	0.9938	0.1184	0.149
Mof_H 	H 	0.3203	0.1327	0.3926	0.154
Mof_H 	H 	0.401	0.0019	0.4169	-0.03
Mof_H 	H 	0.4031	0.8643	0.1455	-0.039
Mof_H 	H 	0.8968	0.9943	0.6279	0.045
Mof_H 	H 	0.0998	0.1511	0.7013	0.057
Mof_H 	H 	0.4488	0.3507	0.0467	0.05
Mof_H 	H 	0.3374	0.2701	0.869	0.059
Mof_H 	H 	0.8109	0.2734	0.3625	0.056
Mof_H 	H 	0.7326	0.1868	0.4673	0.085
Mof_H 	H 	0.9894	0.5498	0.588	-0.035
Mof_H 	H 	0.8377	0.6255	0.5708	0.145
Mof_H 	H 	0.8729	0.4678	0.7806	-0.042
Mof_H 	H 	0.715	0.5388	0.7649	0.149
Mof_H 	H 	0.6534	0.6557	0.5969	0.212
Mof_H 	H 	0.5735	0.568	0.6237	0.227
Mof_H 	H 	0.6504	0.7047	0.7881	-0.076
Mof_H 	H 	0.5643	0.7365	0.7234	-0.061
Mof_H 	H 	0.8013	0.8251	0.7335	0.187
Mof_H 	H 	0.7778	0.8691	0.8366	0.182
Mof_H 	H 	0.6741	0.0062	0.8816	0.143
Mof_H 	H 	0.6797	0.8673	0.6074	0.152
Mof_H 	H 	0.599	0.9981	0.5831	-0.027
Mof_H 	H 	0.5969	0.1357	0.8545	-0.044
Mof_C 	C 	0.0937	0.2208	0.5184	0.365
Mof_C 	C 	0.0135	0.1038	0.4499	0.002
Mof_C 	C 	0.0304	0.0118	0.3869	-0.024
Mof_C 	C 	0.9163	0.9233	0.3457	-0.059
Mof_C 	C 	0.8375	0.9689	0.3881	0.039
Mof_C 	C 	0.7082	0.922	0.3828	0.286
Mof_C 	C 	0.5596	0.4199	0.8355	0.355
Mof_C 	C 	0.6111	0.5127	0.9356	0.006
Mof_C 	C 	0.5948	0.615	0.9815	-0.054
Mof_C 	C 	0.657	0.6601	0.0812	-0.017
Mof_C 	C 	0.7068	0.5812	0.0897	0.009
Mof_C 	C 	0.7822	0.5786	0.1718	0.318
Mof_C 	C 	0.2842	0.547	0.6399	0.354
Mof_C 	C 	0.3044	0.632	0.6022	0.009
Mof_C 	C 	0.2467	0.709	0.604	-0.025
Mof_C 	C 	0.2907	0.7577	0.5454	-0.055
Mof_C 	C 	0.3741	0.7075	0.5111	0.025
Mof_C 	C 	0.446	0.7229	0.4452	0.35
Mof_C 	C 	0.067	0.4536	0.3764	0.174
Mof_C 	C 	0.1585	0.4079	0.3873	-0.308
Mof_C 	C 	0.2458	0.4112	0.336	0.323
Mof_C 	C 	0.1352	0.5024	0.2638	0.167
Mof_C 	C 	0.2306	0.4586	0.2725	-0.305
Mof_C 	C 	0.3517	0.3692	0.3529	-0.553
Mof_C 	C 	0.3567	0.2739	0.2646	0.354
Mof_C 	C 	0.2605	0.1619	0.2323	-0.533
Mof_C 	C 	0.3099	0.0761	0.2504	0.335
Mof_C 	C 	0.3386	0.9967	0.1799	-0.331
Mof_C 	C 	0.336	0.0779	0.3407	-0.318
Mof_C 	C 	0.3854	0.9989	0.3554	0.182
Mof_C 	C 	0.3866	0.9193	0.1969	0.184
Mof_C 	C 	0.9063	0.7792	0.4816	0.365
Mof_C 	C 	0.9865	0.8962	0.5501	0.001
Mof_C 	C 	0.9696	0.9882	0.6131	-0.02
Mof_C 	C 	0.0837	0.0767	0.6543	-0.065
Mof_C 	C 	0.1625	0.0311	0.6119	0.039
Mof_C 	C 	0.2918	0.078	0.6172	0.285
Mof_C 	C 	0.4404	0.5801	0.1645	0.359
Mof_C 	C 	0.3889	0.4873	0.0644	0.004
Mof_C 	C 	0.4052	0.385	0.0185	-0.002
Mof_C 	C 	0.343	0.3399	0.9188	-0.067
Mof_C 	C 	0.2932	0.4188	0.9103	0.011
Mof_C 	C 	0.2178	0.4214	0.8282	0.315
Mof_C 	C 	0.7158	0.453	0.3601	0.354
Mof_C 	C 	0.6956	0.368	0.3978	0.01
Mof_C 	C 	0.7533	0.291	0.396	-0.025
Mof_C 	C 	0.7093	0.2423	0.4546	-0.054
Mof_C 	C 	0.6259	0.2925	0.4889	0.025
Mof_C 	C 	0.554	0.2771	0.5548	0.35
Mof_C 	C 	0.933	0.5464	0.6236	0.174
Mof_C 	C 	0.8415	0.5921	0.6127	-0.308
Mof_C 	C 	0.7542	0.5888	0.664	0.322
Mof_C 	C 	0.8648	0.4976	0.7362	0.166
Mof_C 	C 	0.7694	0.5414	0.7275	-0.306
Mof_C 	C 	0.6483	0.6308	0.6471	-0.553
Mof_C 	C 	0.6433	0.7261	0.7354	0.352
Mof_C 	C 	0.7395	0.8381	0.7677	-0.529
Mof_C 	C 	0.6901	0.9239	0.7496	0.331
Mof_C 	C 	0.6614	0.0033	0.8201	-0.33
Mof_C 	C 	0.664	0.9221	0.6593	-0.314
Mof_C 	C 	0.6146	0.0011	0.6446	0.177
Mof_C 	C 	0.6134	0.0807	0.8031	0.181
Mof_N 	N 	0.054	0.5037	0.3164	-0.294
Mof_N 	N 	0.4107	0.9199	0.2844	-0.305
Mof_N 	N 	0.946	0.4963	0.6836	-0.294
Mof_N 	N 	0.5893	0.0801	0.7156	-0.305
Mof_O 	O 	0.2069	0.2339	0.5354	-0.445
Mof_O 	O 	0.0457	0.2959	0.5534	-0.468
Mof_O 	O 	0.8934	0.0819	0.4524	-0.166
Mof_O 	O 	0.6533	0.8183	0.3179	-0.514
Mof_O 	O 	0.6578	0.982	0.4351	-0.322
Mof_O 	O 	0.593	0.3324	0.8166	-0.45
Mof_O 	O 	0.4866	0.4368	0.779	-0.449
Mof_O 	O 	0.6828	0.49	-0	-0.134
Mof_O 	O 	0.7798	0.6418	0.2561	-0.502
Mof_O 	O 	0.8505	0.5174	0.1583	-0.384
Mof_O 	O 	0.1984	0.5473	0.6806	-0.447
Mof_O 	O 	0.351	0.4841	0.6302	-0.432
Mof_O 	O 	0.3858	0.6307	0.5466	-0.164
Mof_O 	O 	0.5308	0.6823	0.4335	-0.442
Mof_O 	O 	0.4096	0.7803	0.4044	-0.47
Mof_O 	O 	0.7931	0.7661	0.4646	-0.445
Mof_O 	O 	0.9543	0.7041	0.4466	-0.467
Mof_O 	O 	0.1066	0.9181	0.5476	-0.166
Mof_O 	O 	0.3467	0.1817	0.6821	-0.515
Mof_O 	O 	0.3422	0.018	0.5649	-0.322
Mof_O 	O 	0.407	0.6676	0.1834	-0.447
Mof_O 	O 	0.5134	0.5632	0.221	-0.45
Mof_O 	O 	0.3172	0.51	-0	-0.134
Mof_O 	O 	0.2202	0.3582	0.7439	-0.501
Mof_O 	O 	0.1495	0.4826	0.8417	-0.39
Mof_O 	O 	0.8016	0.4527	0.3194	-0.445
Mof_O 	O 	0.649	0.5159	0.3698	-0.432
Mof_O 	O 	0.6142	0.3693	0.4534	-0.164
Mof_O 	O 	0.4692	0.3177	0.5665	-0.442
Mof_O 	O 	0.5904	0.2197	0.5956	-0.47
_end
