data_functionalizedCrystal
_audit_creation_method	'EQeq! by Chris Wilmer'
_symmetry_space_group_name_H-M	'P1'
_symmetry_Int_Tables_number	1
_symmetry_cell_setting	triclinic
loop_
_symmetry_equiv_pos_as_xyz
  x,y,z
_cell_length_a	20.2937
_cell_length_b	20.2937
_cell_length_c	20.2937
_cell_angle_alpha	85.0058
_cell_angle_beta	85.0058
_cell_angle_gamma	85.0058
loop_
_atom_site_label
_atom_site_type_symbol
_atom_site_fract_x
_atom_site_fract_y
_atom_site_fract_z
_atom_site_charge
Mof_Co	Co	0.72207	0.02539	0.02539	1.172
Mof_Co	Co	0.55572	0.07663	0.07663	1.131
Mof_Co	Co	0.02539	0.72207	0.02539	1.172
Mof_Co	Co	0.07663	0.55572	0.07663	1.131
Mof_Co	Co	0.02539	0.02539	0.72207	1.172
Mof_Co	Co	0.07663	0.07663	0.55572	1.131
Mof_Co	Co	0.97461	0.27793	0.97461	1.181
Mof_Co	Co	0.92337	0.44428	0.92337	1.135
Mof_Co	Co	0.27793	0.97461	0.97461	1.181
Mof_Co	Co	0.44428	0.92337	0.92337	1.135
Mof_Co	Co	0.97461	0.97461	0.27793	1.181
Mof_Co	Co	0.92337	0.92337	0.44428	1.135
Mof_Co	Co	0.56243	0.56243	0.0132	1.145
Mof_Co	Co	0.0132	0.56243	0.56243	1.145
Mof_Co	Co	0.56243	0.0132	0.56243	1.145
Mof_Co	Co	0.43757	0.43757	0.9868	1.15
Mof_Co	Co	0.43757	0.9868	0.43757	1.15
Mof_Co	Co	0.9868	0.43757	0.43757	1.15
Mof_H 	H 	0.3869	0.121	0.2674	0.092
Mof_H 	H 	0.4776	0.0698	0.2117	-0
Mof_H 	H 	0.5828	0.2823	0.0164	0.019
Mof_H 	H 	0.5182	0.6648	0.7846	0.087
Mof_H 	H 	0.4962	0.6386	0.8949	0.004
Mof_H 	H 	0.6295	0.7763	0.0161	0.041
Mof_H 	H 	0.2674	0.3869	0.121	0.092
Mof_H 	H 	0.2117	0.4776	0.0698	-0
Mof_H 	H 	0.0164	0.5828	0.2823	0.019
Mof_H 	H 	0.7846	0.5182	0.6648	0.087
Mof_H 	H 	0.8949	0.4962	0.6386	0.004
Mof_H 	H 	0.0161	0.6295	0.7763	0.041
Mof_H 	H 	0.121	0.2674	0.3869	0.092
Mof_H 	H 	0.0698	0.2117	0.4776	-0
Mof_H 	H 	0.2823	0.0164	0.5828	0.019
Mof_H 	H 	0.6648	0.7846	0.5182	0.087
Mof_H 	H 	0.6386	0.8949	0.4962	0.004
Mof_H 	H 	0.7763	0.0161	0.6295	0.041
Mof_H 	H 	0.879	0.6131	0.7326	0.098
Mof_H 	H 	0.9302	0.5224	0.7883	0.005
Mof_H 	H 	0.7177	0.4172	0.9836	0.022
Mof_H 	H 	0.3352	0.4818	0.2154	0.087
Mof_H 	H 	0.3614	0.5038	0.1051	-0
Mof_H 	H 	0.2237	0.3705	0.9839	0.046
Mof_H 	H 	0.6131	0.7326	0.879	0.098
Mof_H 	H 	0.5224	0.7883	0.9302	0.005
Mof_H 	H 	0.4172	0.9836	0.7177	0.022
Mof_H 	H 	0.4818	0.2154	0.3352	0.087
Mof_H 	H 	0.5038	0.1051	0.3614	-0
Mof_H 	H 	0.3705	0.9839	0.2237	0.046
Mof_H 	H 	0.7326	0.879	0.6131	0.098
Mof_H 	H 	0.7883	0.9302	0.5224	0.005
Mof_H 	H 	0.9836	0.7177	0.4172	0.022
Mof_H 	H 	0.2154	0.3352	0.4818	0.087
Mof_H 	H 	0.1051	0.3614	0.5038	-0
Mof_H 	H 	0.9839	0.2237	0.3705	0.046
Mof_H 	H 	0.6131	0.879	0.7326	0.098
Mof_H 	H 	0.5224	0.9302	0.7883	0.005
Mof_H 	H 	0.4172	0.7177	0.9836	0.022
Mof_H 	H 	0.4818	0.3352	0.2154	0.087
Mof_H 	H 	0.5038	0.3614	0.1051	-0
Mof_H 	H 	0.3705	0.2237	0.9839	0.046
Mof_H 	H 	0.7326	0.6131	0.879	0.098
Mof_H 	H 	0.7883	0.5224	0.9302	0.005
Mof_H 	H 	0.9836	0.4172	0.7177	0.022
Mof_H 	H 	0.2154	0.4818	0.3352	0.087
Mof_H 	H 	0.1051	0.5038	0.3614	-0
Mof_H 	H 	0.9839	0.3705	0.2237	0.046
Mof_H 	H 	0.879	0.7326	0.6131	0.098
Mof_H 	H 	0.9302	0.7883	0.5224	0.005
Mof_H 	H 	0.7177	0.9836	0.4172	0.022
Mof_H 	H 	0.3352	0.2154	0.4818	0.087
Mof_H 	H 	0.3614	0.1051	0.5038	-0
Mof_H 	H 	0.2237	0.9839	0.3705	0.046
Mof_H 	H 	0.121	0.3869	0.2674	0.092
Mof_H 	H 	0.0698	0.4776	0.2117	-0
Mof_H 	H 	0.2823	0.5828	0.0164	0.019
Mof_H 	H 	0.6648	0.5182	0.7846	0.087
Mof_H 	H 	0.6386	0.4962	0.8949	0.004
Mof_H 	H 	0.7763	0.6295	0.0161	0.041
Mof_H 	H 	0.3869	0.2674	0.121	0.092
Mof_H 	H 	0.4776	0.2117	0.0698	-0
Mof_H 	H 	0.5828	0.0164	0.2823	0.019
Mof_H 	H 	0.5182	0.7846	0.6648	0.087
Mof_H 	H 	0.4962	0.8949	0.6386	0.004
Mof_H 	H 	0.6295	0.0161	0.7763	0.041
Mof_H 	H 	0.2674	0.121	0.3869	0.092
Mof_H 	H 	0.2117	0.0698	0.4776	-0
Mof_H 	H 	0.0164	0.2823	0.5828	0.019
Mof_H 	H 	0.7846	0.6648	0.5182	0.087
Mof_H 	H 	0.8949	0.6386	0.4962	0.004
Mof_H 	H 	0.0161	0.7763	0.6295	0.041
Mof_H 	H 	0.7769	0.2231	-0	0.022
Mof_H 	H 	1.00982e-17	0.7769	0.2231	0.022
Mof_H 	H 	0.2231	0	0.7769	0.022
Mof_H 	H 	0.2231	0.7769	-0	0.022
Mof_H 	H 	8.59424e-19	0.2231	0.7769	0.022
Mof_H 	H 	0.7769	3.4377e-18	0.2231	0.022
Mof_H 	H 	0.818	0.818	0.028	0.044
Mof_H 	H 	0.028	0.818	0.818	0.044
Mof_H 	H 	0.818	0.028	0.818	0.044
Mof_H 	H 	0.182	0.182	0.972	0.042
Mof_H 	H 	0.182	0.972	0.182	0.042
Mof_H 	H 	0.972	0.182	0.182	0.042
Mof_C 	C 	0.66229	0.17007	0.02643	0.413
Mof_C 	C 	0.4042	0.1402	0.22703	-0.132
Mof_C 	C 	0.45814	0.10945	0.19292	0.08
Mof_C 	C 	0.67756	0.24134	0.01156	-0.156
Mof_C 	C 	0.62684	0.29231	0.01032	0.091
Mof_C 	C 	0.5439	0.6309	0.8063	-0.133
Mof_C 	C 	0.69721	0.87971	0.02681	0.311
Mof_C 	C 	0.53103	0.61483	0.87223	0.073
Mof_C 	C 	0.72019	0.80839	0.02379	-0.095
Mof_C 	C 	0.67425	0.76229	0.01797	0.032
Mof_C 	C 	0.02643	0.66229	0.17007	0.413
Mof_C 	C 	0.22703	0.4042	0.1402	-0.132
Mof_C 	C 	0.19292	0.45814	0.10945	0.08
Mof_C 	C 	0.01156	0.67756	0.24134	-0.156
Mof_C 	C 	0.01032	0.62684	0.29231	0.091
Mof_C 	C 	0.8063	0.5439	0.6309	-0.133
Mof_C 	C 	0.02681	0.69721	0.87971	0.311
Mof_C 	C 	0.87223	0.53103	0.61483	0.073
Mof_C 	C 	0.02379	0.72019	0.80839	-0.095
Mof_C 	C 	0.01797	0.67425	0.76229	0.032
Mof_C 	C 	0.17007	0.02643	0.66229	0.413
Mof_C 	C 	0.1402	0.22703	0.4042	-0.132
Mof_C 	C 	0.10945	0.19292	0.45814	0.08
Mof_C 	C 	0.24134	0.01156	0.67756	-0.156
Mof_C 	C 	0.29231	0.01032	0.62684	0.091
Mof_C 	C 	0.6309	0.8063	0.5439	-0.133
Mof_C 	C 	0.87971	0.02681	0.69721	0.311
Mof_C 	C 	0.61483	0.87223	0.53103	0.073
Mof_C 	C 	0.80839	0.02379	0.72019	-0.095
Mof_C 	C 	0.76229	0.01797	0.67425	0.032
Mof_C 	C 	0.82993	0.33771	0.97357	0.412
Mof_C 	C 	0.8598	0.5958	0.77297	-0.13
Mof_C 	C 	0.89055	0.54186	0.80708	0.084
Mof_C 	C 	0.75866	0.32244	0.98844	-0.144
Mof_C 	C 	0.70769	0.37316	0.98968	0.105
Mof_C 	C 	0.3691	0.4561	0.1937	-0.133
Mof_C 	C 	0.12029	0.30279	0.97319	0.311
Mof_C 	C 	0.38517	0.46897	0.12777	0.072
Mof_C 	C 	0.19161	0.27981	0.97621	-0.093
Mof_C 	C 	0.23771	0.32575	0.98203	0.03
Mof_C 	C 	0.33771	0.97357	0.82993	0.412
Mof_C 	C 	0.5958	0.77297	0.8598	-0.13
Mof_C 	C 	0.54186	0.80708	0.89055	0.084
Mof_C 	C 	0.32244	0.98844	0.75866	-0.144
Mof_C 	C 	0.37316	0.98968	0.70769	0.105
Mof_C 	C 	0.4561	0.1937	0.3691	-0.133
Mof_C 	C 	0.30279	0.97319	0.12029	0.311
Mof_C 	C 	0.46897	0.12777	0.38517	0.072
Mof_C 	C 	0.27981	0.97621	0.19161	-0.093
Mof_C 	C 	0.32575	0.98203	0.23771	0.03
Mof_C 	C 	0.97357	0.82993	0.33771	0.412
Mof_C 	C 	0.77297	0.8598	0.5958	-0.13
Mof_C 	C 	0.80708	0.89055	0.54186	0.084
Mof_C 	C 	0.98844	0.75866	0.32244	-0.144
Mof_C 	C 	0.98968	0.70769	0.37316	0.105
Mof_C 	C 	0.1937	0.3691	0.4561	-0.133
Mof_C 	C 	0.97319	0.12029	0.30279	0.311
Mof_C 	C 	0.12777	0.38517	0.46897	0.072
Mof_C 	C 	0.97621	0.19161	0.27981	-0.093
Mof_C 	C 	0.98203	0.23771	0.32575	0.03
Mof_C 	C 	0.33771	0.82993	0.97357	0.412
Mof_C 	C 	0.5958	0.8598	0.77297	-0.13
Mof_C 	C 	0.54186	0.89055	0.80708	0.084
Mof_C 	C 	0.32244	0.75866	0.98844	-0.144
Mof_C 	C 	0.37316	0.70769	0.98968	0.105
Mof_C 	C 	0.4561	0.3691	0.1937	-0.133
Mof_C 	C 	0.30279	0.12029	0.97319	0.311
Mof_C 	C 	0.46897	0.38517	0.12777	0.072
Mof_C 	C 	0.27981	0.19161	0.97621	-0.093
Mof_C 	C 	0.32575	0.23771	0.98203	0.03
Mof_C 	C 	0.97357	0.33771	0.82993	0.412
Mof_C 	C 	0.77297	0.5958	0.8598	-0.13
Mof_C 	C 	0.80708	0.54186	0.89055	0.084
Mof_C 	C 	0.98844	0.32244	0.75866	-0.144
Mof_C 	C 	0.98968	0.37316	0.70769	0.105
Mof_C 	C 	0.1937	0.4561	0.3691	-0.133
Mof_C 	C 	0.97319	0.30279	0.12029	0.311
Mof_C 	C 	0.12777	0.46897	0.38517	0.072
Mof_C 	C 	0.97621	0.27981	0.19161	-0.093
Mof_C 	C 	0.98203	0.32575	0.23771	0.03
Mof_C 	C 	0.82993	0.97357	0.33771	0.412
Mof_C 	C 	0.8598	0.77297	0.5958	-0.13
Mof_C 	C 	0.89055	0.80708	0.54186	0.084
Mof_C 	C 	0.75866	0.98844	0.32244	-0.144
Mof_C 	C 	0.70769	0.98968	0.37316	0.105
Mof_C 	C 	0.3691	0.1937	0.4561	-0.133
Mof_C 	C 	0.12029	0.97319	0.30279	0.311
Mof_C 	C 	0.38517	0.12777	0.46897	0.072
Mof_C 	C 	0.19161	0.97621	0.27981	-0.093
Mof_C 	C 	0.23771	0.98203	0.32575	0.03
Mof_C 	C 	0.17007	0.66229	0.02643	0.413
Mof_C 	C 	0.1402	0.4042	0.22703	-0.132
Mof_C 	C 	0.10945	0.45814	0.19292	0.08
Mof_C 	C 	0.24134	0.67756	0.01156	-0.156
Mof_C 	C 	0.29231	0.62684	0.01032	0.091
Mof_C 	C 	0.6309	0.5439	0.8063	-0.133
Mof_C 	C 	0.87971	0.69721	0.02681	0.311
Mof_C 	C 	0.61483	0.53103	0.87223	0.073
Mof_C 	C 	0.80839	0.72019	0.02379	-0.095
Mof_C 	C 	0.76229	0.67425	0.01797	0.032
Mof_C 	C 	0.66229	0.02643	0.17007	0.413
Mof_C 	C 	0.4042	0.22703	0.1402	-0.132
Mof_C 	C 	0.45814	0.19292	0.10945	0.08
Mof_C 	C 	0.67756	0.01156	0.24134	-0.156
Mof_C 	C 	0.62684	0.01032	0.29231	0.091
Mof_C 	C 	0.5439	0.8063	0.6309	-0.133
Mof_C 	C 	0.69721	0.02681	0.87971	0.311
Mof_C 	C 	0.53103	0.87223	0.61483	0.073
Mof_C 	C 	0.72019	0.02379	0.80839	-0.095
Mof_C 	C 	0.67425	0.01797	0.76229	0.032
Mof_C 	C 	0.02643	0.17007	0.66229	0.413
Mof_C 	C 	0.22703	0.1402	0.4042	-0.132
Mof_C 	C 	0.19292	0.10945	0.45814	0.08
Mof_C 	C 	0.01156	0.24134	0.67756	-0.156
Mof_C 	C 	0.01032	0.29231	0.62684	0.091
Mof_C 	C 	0.8063	0.6309	0.5439	-0.133
Mof_C 	C 	0.02681	0.87971	0.69721	0.311
Mof_C 	C 	0.87223	0.61483	0.53103	0.073
Mof_C 	C 	0.02379	0.80839	0.72019	-0.095
Mof_C 	C 	0.01797	0.76229	0.67425	0.032
Mof_C 	C 	0.642	0.358	-0	-0.166
Mof_C 	C 	0.743	0.257	-0	0.077
Mof_C 	C 	0.5861	0.4139	-0	0.406
Mof_C 	C 	9.88338e-18	0.642	0.358	-0.166
Mof_C 	C 	-8.59424e-18	0.743	0.257	0.077
Mof_C 	C 	1.50399e-17	0.5861	0.4139	0.406
Mof_C 	C 	0.358	0	0.642	-0.166
Mof_C 	C 	0.257	0	0.743	0.077
Mof_C 	C 	0.4139	6.87539e-18	0.5861	0.406
Mof_C 	C 	0.358	0.642	-0	-0.166
Mof_C 	C 	0.257	0.743	-0	0.077
Mof_C 	C 	0.4139	0.5861	-0	0.406
Mof_C 	C 	1.46102e-17	0.358	0.642	-0.166
Mof_C 	C 	-1.80479e-17	0.257	0.743	0.077
Mof_C 	C 	1.63291e-17	0.4139	0.5861	0.406
Mof_C 	C 	0.642	3.4377e-18	0.358	-0.166
Mof_C 	C 	0.743	6.87539e-18	0.257	0.077
Mof_C 	C 	0.5861	6.87539e-18	0.4139	0.406
Mof_C 	C 	0.31557	0.23312	0.23312	0.103
Mof_C 	C 	0.37587	0.20042	0.20042	0.064
Mof_C 	C 	0.23312	0.31557	0.23312	0.103
Mof_C 	C 	0.20042	0.37587	0.20042	0.064
Mof_C 	C 	0.23312	0.23312	0.31557	0.103
Mof_C 	C 	0.20042	0.20042	0.37587	0.064
Mof_C 	C 	0.76688	0.68443	0.76688	0.106
Mof_C 	C 	0.79958	0.62413	0.79958	0.068
Mof_C 	C 	0.68443	0.76688	0.76688	0.106
Mof_C 	C 	0.62413	0.79958	0.79958	0.068
Mof_C 	C 	0.76688	0.76688	0.68443	0.106
Mof_C 	C 	0.79958	0.79958	0.62413	0.068
Mof_C 	C 	0.69532	0.69532	0.01482	-0.096
Mof_C 	C 	0.6474	0.6474	0.0074	0.279
Mof_C 	C 	0.78715	0.78715	0.0255	0.038
Mof_C 	C 	0.01482	0.69532	0.69532	-0.096
Mof_C 	C 	0.0074	0.6474	0.6474	0.279
Mof_C 	C 	0.0255	0.78715	0.78715	0.038
Mof_C 	C 	0.69532	0.01482	0.69532	-0.096
Mof_C 	C 	0.6474	0.0074	0.6474	0.279
Mof_C 	C 	0.78715	0.0255	0.78715	0.038
Mof_C 	C 	0.30468	0.30468	0.98518	-0.089
Mof_C 	C 	0.3526	0.3526	0.9926	0.279
Mof_C 	C 	0.21285	0.21285	0.9745	0.038
Mof_C 	C 	0.30468	0.98518	0.30468	-0.089
Mof_C 	C 	0.3526	0.9926	0.3526	0.279
Mof_C 	C 	0.21285	0.9745	0.21285	0.038
Mof_C 	C 	0.98518	0.30468	0.30468	-0.089
Mof_C 	C 	0.9926	0.3526	0.3526	0.279
Mof_C 	C 	0.9745	0.21285	0.21285	0.038
Mof_C 	C 	0.59608	0.59608	0.77118	0.061
Mof_C 	C 	0.6218	0.6218	0.703	0.099
Mof_C 	C 	0.77118	0.59608	0.59608	0.061
Mof_C 	C 	0.703	0.6218	0.6218	0.099
Mof_C 	C 	0.59608	0.77118	0.59608	0.061
Mof_C 	C 	0.6218	0.703	0.6218	0.099
Mof_C 	C 	0.40392	0.40392	0.22882	0.061
Mof_C 	C 	0.3782	0.3782	0.297	0.099
Mof_C 	C 	0.40392	0.22882	0.40392	0.061
Mof_C 	C 	0.3782	0.297	0.3782	0.099
Mof_C 	C 	0.22882	0.40392	0.40392	0.061
Mof_C 	C 	0.297	0.3782	0.3782	0.099
Mof_N 	N 	0.48375	0.13405	0.13405	-0.241
Mof_N 	N 	0.13405	0.48375	0.13405	-0.241
Mof_N 	N 	0.13404	0.13405	0.48375	-0.241
Mof_N 	N 	0.86596	0.51625	0.86596	-0.239
Mof_N 	N 	0.51625	0.86596	0.86596	-0.239
Mof_N 	N 	0.86596	0.86596	0.51625	-0.239
Mof_N 	N 	0.5661	0.5661	0.9062	-0.231
Mof_N 	N 	0.9062	0.5661	0.5661	-0.231
Mof_N 	N 	0.5661	0.9062	0.5661	-0.231
Mof_N 	N 	0.4339	0.4339	0.0938	-0.238
Mof_N 	N 	0.4339	0.0938	0.4339	-0.238
Mof_N 	N 	0.0938	0.4339	0.4339	-0.238
Mof_N 	N 	0.67776	0.59	0.67776	-0.138
Mof_N 	N 	0.67776	0.67776	0.59	-0.138
Mof_N 	N 	0.59	0.67776	0.67776	-0.138
Mof_N 	N 	0.41	0.32224	0.32224	-0.138
Mof_N 	N 	0.32224	0.32224	0.41	-0.138
Mof_N 	N 	0.32224	0.41	0.32224	-0.138
Mof_N 	N 	0.28948	0.20318	0.28948	-0.137
Mof_N 	N 	0.28948	0.28948	0.20318	-0.137
Mof_N 	N 	0.20318	0.28948	0.28948	-0.137
Mof_N 	N 	0.79682	0.71052	0.71052	-0.135
Mof_N 	N 	0.71052	0.71052	0.79682	-0.135
Mof_N 	N 	0.71052	0.79682	0.71052	-0.135
Mof_O 	O 	0.60345	0.15988	0.04698	-0.459
Mof_O 	O 	0.70957	0.12718	0.01766	-0.455
Mof_O 	O 	0.5992	0.46728	0.01992	-0.482
Mof_O 	O 	0.73834	0.92145	0.02722	-0.379
Mof_O 	O 	0.63444	0.89834	0.01104	-0.239
Mof_O 	O 	0.58603	0.66675	0.00643	-0.365
Mof_O 	O 	0.04698	0.60345	0.15988	-0.459
Mof_O 	O 	0.01766	0.70957	0.12718	-0.455
Mof_O 	O 	0.01992	0.5992	0.46728	-0.482
Mof_O 	O 	0.02722	0.73834	0.92145	-0.379
Mof_O 	O 	0.01104	0.63444	0.89834	-0.239
Mof_O 	O 	0.00643	0.58603	0.66675	-0.365
Mof_O 	O 	0.15988	0.04698	0.60345	-0.459
Mof_O 	O 	0.12718	0.01766	0.70957	-0.455
Mof_O 	O 	0.46728	0.01992	0.5992	-0.482
Mof_O 	O 	0.92145	0.02722	0.73834	-0.379
Mof_O 	O 	0.89834	0.01104	0.63444	-0.239
Mof_O 	O 	0.66675	0.00643	0.58603	-0.365
Mof_O 	O 	0.84012	0.39655	0.95302	-0.454
Mof_O 	O 	0.87282	0.29043	0.98234	-0.446
Mof_O 	O 	0.53272	0.4008	0.98008	-0.467
Mof_O 	O 	0.07855	0.26166	0.97278	-0.388
Mof_O 	O 	0.10166	0.36556	0.98896	-0.241
Mof_O 	O 	0.33325	0.41397	0.99357	-0.356
Mof_O 	O 	0.39655	0.95302	0.84012	-0.454
Mof_O 	O 	0.29043	0.98234	0.87282	-0.446
Mof_O 	O 	0.4008	0.98008	0.53272	-0.467
Mof_O 	O 	0.26166	0.97278	0.07855	-0.388
Mof_O 	O 	0.36556	0.98896	0.10166	-0.241
Mof_O 	O 	0.41397	0.99357	0.33325	-0.356
Mof_O 	O 	0.95302	0.84012	0.39655	-0.454
Mof_O 	O 	0.98234	0.87282	0.29043	-0.446
Mof_O 	O 	0.98008	0.53272	0.4008	-0.467
Mof_O 	O 	0.97278	0.07855	0.26166	-0.388
Mof_O 	O 	0.98896	0.10166	0.36556	-0.241
Mof_O 	O 	0.99357	0.33325	0.41397	-0.356
Mof_O 	O 	0.39655	0.84012	0.95302	-0.454
Mof_O 	O 	0.29043	0.87282	0.98234	-0.446
Mof_O 	O 	0.4008	0.53272	0.98008	-0.467
Mof_O 	O 	0.26166	0.07855	0.97278	-0.388
Mof_O 	O 	0.36556	0.10166	0.98896	-0.241
Mof_O 	O 	0.41397	0.33325	0.99357	-0.356
Mof_O 	O 	0.95302	0.39655	0.84012	-0.454
Mof_O 	O 	0.98234	0.29043	0.87282	-0.446
Mof_O 	O 	0.98008	0.4008	0.53272	-0.467
Mof_O 	O 	0.97278	0.26166	0.07855	-0.388
Mof_O 	O 	0.98896	0.36556	0.10166	-0.241
Mof_O 	O 	0.99357	0.41397	0.33325	-0.356
Mof_O 	O 	0.84012	0.95302	0.39655	-0.454
Mof_O 	O 	0.87282	0.98234	0.29043	-0.446
Mof_O 	O 	0.53272	0.98008	0.4008	-0.467
Mof_O 	O 	0.07855	0.97278	0.26166	-0.388
Mof_O 	O 	0.10166	0.98896	0.36556	-0.241
Mof_O 	O 	0.33325	0.99357	0.41397	-0.356
Mof_O 	O 	0.15988	0.60345	0.04698	-0.459
Mof_O 	O 	0.12718	0.70957	0.01766	-0.455
Mof_O 	O 	0.46728	0.5992	0.01992	-0.482
Mof_O 	O 	0.92145	0.73834	0.02722	-0.379
Mof_O 	O 	0.89834	0.63444	0.01104	-0.239
Mof_O 	O 	0.66675	0.58603	0.00643	-0.365
Mof_O 	O 	0.60345	0.04698	0.15988	-0.459
Mof_O 	O 	0.70957	0.01766	0.12718	-0.455
Mof_O 	O 	0.5992	0.01992	0.46728	-0.482
Mof_O 	O 	0.73834	0.02722	0.92145	-0.379
Mof_O 	O 	0.63444	0.01104	0.89834	-0.239
Mof_O 	O 	0.58603	0.00643	0.66675	-0.365
Mof_O 	O 	0.04698	0.15988	0.60345	-0.459
Mof_O 	O 	0.01766	0.12718	0.70957	-0.455
Mof_O 	O 	0.01992	0.46728	0.5992	-0.482
Mof_O 	O 	0.02722	0.92145	0.73834	-0.379
Mof_O 	O 	0.01104	0.89834	0.63444	-0.239
Mof_O 	O 	0.00643	0.66675	0.58603	-0.365
Mof_O 	O 	0.61848	0.01705	0.01705	-0.423
Mof_O 	O 	0.01704	0.61848	0.01705	-0.423
Mof_O 	O 	0.01704	0.01705	0.61848	-0.423
Mof_O 	O 	0.98296	0.38152	0.98296	-0.404
Mof_O 	O 	0.38152	0.98296	0.98296	-0.404
Mof_O 	O 	0.98296	0.98296	0.38152	-0.404
_end
