data_functionalizedCrystal
_audit_creation_method	'EQeq! by Chris Wilmer'
_symmetry_space_group_name_H-M	'P1'
_symmetry_Int_Tables_number	1
_symmetry_cell_setting	triclinic
loop_
_symmetry_equiv_pos_as_xyz
  x,y,z
_cell_length_a	15.4168
_cell_length_b	15.4168
_cell_length_c	27.623
_cell_angle_alpha	90
_cell_angle_beta	90
_cell_angle_gamma	90
loop_
_atom_site_label
_atom_site_type_symbol
_atom_site_fract_x
_atom_site_fract_y
_atom_site_fract_z
_atom_site_charge
Mof_O 	O 	0.10524	0.07781	0.21099	-0.47
Mof_C 	C 	0.17159	0.26354	0.2243	0.1
Mof_C 	C 	0.08825	0.2784	0.19742	-0.444
Mof_H 	H 	0.0898	0.3354	0.1818	0.131
Mof_H 	H 	0.0395	0.2761	0.2202	0.137
Mof_H 	H 	0.081	0.2333	0.1727	0.158
Mof_C 	C 	0.9398	0.0572	0.0511	0.07
Mof_C 	C 	0.9879	0.0794	0.1051	0.256
Mof_C 	C 	0.0403	0.0625	0.1035	-0.452
Mof_C 	C 	0.9222	0.0034	0.9472	-0.426
Mof_O 	O 	0.60524	0.57781	0.71099	-0.457
Mof_C 	C 	0.67159	0.76354	0.7243	0.11
Mof_C 	C 	0.58825	0.7784	0.69742	-0.471
Mof_H 	H 	0.5898	0.8354	0.6818	0.148
Mof_H 	H 	0.5395	0.7761	0.7202	0.159
Mof_H 	H 	0.581	0.7333	0.6727	0.172
Mof_C 	C 	0.4398	0.5572	0.5511	-0.006
Mof_C 	C 	0.4879	0.5794	0.6051	0.035
Mof_C 	C 	0.5403	0.5625	0.6035	-0.017
Mof_C 	C 	0.4222	0.5034	0.4472	-0.012
Mof_O 	O 	0.89476	0.92219	0.21099	-0.433
Mof_C 	C 	0.82841	0.73646	0.2243	0.122
Mof_C 	C 	0.91175	0.7216	0.19742	-0.49
Mof_H 	H 	0.9102	0.6646	0.1818	0.157
Mof_H 	H 	0.9605	0.7239	0.2202	0.174
Mof_H 	H 	0.919	0.7667	0.1727	0.181
Mof_C 	C 	0.0602	0.9428	0.0511	-0.064
Mof_C 	C 	0.0121	0.9206	0.1051	-0.155
Mof_C 	C 	0.9597	0.9375	0.1035	0.412
Mof_C 	C 	0.0778	0.9966	0.9472	0.438
Mof_O 	O 	0.39476	0.42219	0.71099	-0.457
Mof_C 	C 	0.32841	0.23646	0.7243	0.116
Mof_C 	C 	0.41175	0.2216	0.69742	-0.469
Mof_H 	H 	0.4102	0.1646	0.6818	0.143
Mof_H 	H 	0.4605	0.2239	0.7202	0.155
Mof_H 	H 	0.419	0.2667	0.6727	0.17
Mof_C 	C 	0.5602	0.4428	0.5511	-0.011
Mof_C 	C 	0.5121	0.4206	0.6051	0.035
Mof_C 	C 	0.4597	0.4375	0.6035	-0.016
Mof_C 	C 	0.5778	0.4966	0.4472	-0.005
Mof_O 	O 	0.92219	0.10524	0.21099	-0.446
Mof_C 	C 	0.73646	0.17159	0.2243	0.106
Mof_C 	C 	0.7216	0.08825	0.19742	-0.451
Mof_H 	H 	0.6646	0.0898	0.1818	0.136
Mof_H 	H 	0.7239	0.0395	0.2202	0.143
Mof_H 	H 	0.7667	0.081	0.1727	0.163
Mof_C 	C 	0.9428	0.9398	0.0511	0.557
Mof_C 	C 	0.9206	0.9879	0.1051	-0.309
Mof_C 	C 	0.9375	0.0403	0.1035	0.156
Mof_C 	C 	0.9966	0.9222	0.9472	-0.384
Mof_O 	O 	0.42219	0.60524	0.71099	-0.456
Mof_C 	C 	0.23646	0.67159	0.7243	0.113
Mof_C 	C 	0.2216	0.58825	0.69742	-0.466
Mof_H 	H 	0.1646	0.5898	0.6818	0.142
Mof_H 	H 	0.2239	0.5395	0.7202	0.155
Mof_H 	H 	0.2667	0.581	0.6727	0.17
Mof_C 	C 	0.4428	0.4398	0.5511	-0.008
Mof_C 	C 	0.4206	0.4879	0.6051	0.033
Mof_C 	C 	0.4375	0.5403	0.6035	-0.015
Mof_C 	C 	0.4966	0.4222	0.4472	-0.008
Mof_O 	O 	0.07781	0.89476	0.21099	-0.45
Mof_C 	C 	0.26354	0.82841	0.2243	0.12
Mof_C 	C 	0.2784	0.91175	0.19742	-0.489
Mof_H 	H 	0.3354	0.9102	0.1818	0.156
Mof_H 	H 	0.2761	0.9605	0.2202	0.175
Mof_H 	H 	0.2333	0.919	0.1727	0.181
Mof_C 	C 	0.0572	0.0602	0.0511	-0.55
Mof_C 	C 	0.0794	0.0121	0.1051	0.373
Mof_C 	C 	0.0625	0.9597	0.1035	-0.171
Mof_C 	C 	0.0034	0.0778	0.9472	0.364
Mof_O 	O 	0.57781	0.39476	0.71099	-0.457
Mof_C 	C 	0.76354	0.32841	0.7243	0.112
Mof_C 	C 	0.7784	0.41175	0.69742	-0.471
Mof_H 	H 	0.8354	0.4102	0.6818	0.149
Mof_H 	H 	0.7761	0.4605	0.7202	0.16
Mof_H 	H 	0.7333	0.419	0.6727	0.173
Mof_C 	C 	0.5572	0.5602	0.5511	-0.009
Mof_C 	C 	0.5794	0.5121	0.6051	0.037
Mof_C 	C 	0.5625	0.4597	0.6035	-0.018
Mof_C 	C 	0.5034	0.5778	0.4472	-0.009
Mof_O 	O 	0.89476	0.07781	0.28901	-0.45
Mof_C 	C 	0.82841	0.26354	0.2757	0.12
Mof_C 	C 	0.91175	0.2784	0.30258	-0.489
Mof_H 	H 	0.9102	0.3354	0.3182	0.156
Mof_H 	H 	0.9605	0.2761	0.2798	0.175
Mof_H 	H 	0.919	0.2333	0.3273	0.181
Mof_C 	C 	0.0602	0.0572	0.4489	-0.552
Mof_C 	C 	0.0121	0.0794	0.3949	0.374
Mof_C 	C 	0.9597	0.0625	0.3965	-0.172
Mof_C 	C 	0.0778	0.0034	0.5528	0.365
Mof_O 	O 	0.39476	0.57781	0.78901	-0.457
Mof_C 	C 	0.32841	0.76354	0.7757	0.112
Mof_C 	C 	0.41175	0.7784	0.80258	-0.471
Mof_H 	H 	0.4102	0.8354	0.8182	0.149
Mof_H 	H 	0.4605	0.7761	0.7798	0.16
Mof_H 	H 	0.419	0.7333	0.8273	0.173
Mof_C 	C 	0.5602	0.5572	0.9489	-0.009
Mof_C 	C 	0.5121	0.5794	0.8949	0.037
Mof_C 	C 	0.4597	0.5625	0.8965	-0.018
Mof_C 	C 	0.5778	0.5034	0.0528	-0.009
Mof_O 	O 	0.10524	0.92219	0.28901	-0.446
Mof_C 	C 	0.17159	0.73646	0.2757	0.106
Mof_C 	C 	0.08825	0.7216	0.30258	-0.451
Mof_H 	H 	0.0898	0.6646	0.3182	0.136
Mof_H 	H 	0.0395	0.7239	0.2798	0.143
Mof_H 	H 	0.081	0.7667	0.3273	0.163
Mof_C 	C 	0.9398	0.9428	0.4489	0.559
Mof_C 	C 	0.9879	0.9206	0.3949	-0.311
Mof_C 	C 	0.0403	0.9375	0.3965	0.157
Mof_C 	C 	0.9222	0.9966	0.5528	-0.385
Mof_O 	O 	0.60524	0.42219	0.78901	-0.456
Mof_C 	C 	0.67159	0.23646	0.7757	0.113
Mof_C 	C 	0.58825	0.2216	0.80258	-0.466
Mof_H 	H 	0.5898	0.1646	0.8182	0.142
Mof_H 	H 	0.5395	0.2239	0.7798	0.155
Mof_H 	H 	0.581	0.2667	0.8273	0.17
Mof_C 	C 	0.4398	0.4428	0.9489	-0.008
Mof_C 	C 	0.4879	0.4206	0.8949	0.033
Mof_C 	C 	0.5403	0.4375	0.8965	-0.015
Mof_C 	C 	0.4222	0.4966	0.0528	-0.008
Mof_O 	O 	0.07781	0.10524	0.28901	-0.469
Mof_C 	C 	0.26354	0.17159	0.2757	0.101
Mof_C 	C 	0.2784	0.08825	0.30258	-0.444
Mof_H 	H 	0.3354	0.0898	0.3182	0.132
Mof_H 	H 	0.2761	0.0395	0.2798	0.138
Mof_H 	H 	0.2333	0.081	0.3273	0.159
Mof_C 	C 	0.0572	0.9398	0.4489	0.072
Mof_C 	C 	0.0794	0.9879	0.3949	0.257
Mof_C 	C 	0.0625	0.0403	0.3965	-0.453
Mof_C 	C 	0.0034	0.9222	0.5528	-0.427
Mof_O 	O 	0.57781	0.60524	0.78901	-0.456
Mof_C 	C 	0.76354	0.67159	0.7757	0.111
Mof_C 	C 	0.7784	0.58825	0.80258	-0.47
Mof_H 	H 	0.8354	0.5898	0.8182	0.148
Mof_H 	H 	0.7761	0.5395	0.7798	0.16
Mof_H 	H 	0.7333	0.581	0.8273	0.173
Mof_C 	C 	0.5572	0.4398	0.9489	-0.006
Mof_C 	C 	0.5794	0.4879	0.8949	0.035
Mof_C 	C 	0.5625	0.5403	0.8965	-0.017
Mof_C 	C 	0.5034	0.4222	0.0528	-0.012
Mof_O 	O 	0.92219	0.89476	0.28901	-0.433
Mof_C 	C 	0.73646	0.82841	0.2757	0.122
Mof_C 	C 	0.7216	0.91175	0.30258	-0.49
Mof_H 	H 	0.6646	0.9102	0.3182	0.157
Mof_H 	H 	0.7239	0.9605	0.2798	0.174
Mof_H 	H 	0.7667	0.919	0.3273	0.181
Mof_C 	C 	0.9428	0.0602	0.4489	-0.065
Mof_C 	C 	0.9206	0.0121	0.3949	-0.155
Mof_C 	C 	0.9375	0.9597	0.3965	0.414
Mof_C 	C 	0.9966	0.0778	0.5528	0.44
Mof_O 	O 	0.42219	0.39476	0.78901	-0.457
Mof_C 	C 	0.23646	0.32841	0.7757	0.116
Mof_C 	C 	0.2216	0.41175	0.80258	-0.469
Mof_H 	H 	0.1646	0.4102	0.8182	0.143
Mof_H 	H 	0.2239	0.4605	0.7798	0.155
Mof_H 	H 	0.2667	0.419	0.8273	0.17
Mof_C 	C 	0.4428	0.5602	0.9489	-0.011
Mof_C 	C 	0.4206	0.5121	0.8949	0.035
Mof_C 	C 	0.4375	0.4597	0.8965	-0.016
Mof_C 	C 	0.4966	0.5778	0.0528	-0.005
Mof_O 	O 	0.89476	0.92219	0.78901	-0.433
Mof_C 	C 	0.82841	0.73646	0.7757	0.122
Mof_C 	C 	0.91175	0.7216	0.80258	-0.49
Mof_H 	H 	0.9102	0.6646	0.8182	0.157
Mof_H 	H 	0.9605	0.7239	0.7798	0.174
Mof_H 	H 	0.919	0.7667	0.8273	0.181
Mof_C 	C 	0.0602	0.9428	0.9489	-0.064
Mof_C 	C 	0.0121	0.9206	0.8949	-0.155
Mof_C 	C 	0.9597	0.9375	0.8965	0.412
Mof_C 	C 	0.0778	0.9966	0.0528	0.438
Mof_O 	O 	0.39476	0.42219	0.28901	-0.457
Mof_C 	C 	0.32841	0.23646	0.2757	0.116
Mof_C 	C 	0.41175	0.2216	0.30258	-0.469
Mof_H 	H 	0.4102	0.1646	0.3182	0.143
Mof_H 	H 	0.4605	0.2239	0.2798	0.155
Mof_H 	H 	0.419	0.2667	0.3273	0.17
Mof_C 	C 	0.5602	0.4428	0.4489	-0.011
Mof_C 	C 	0.5121	0.4206	0.3949	0.035
Mof_C 	C 	0.4597	0.4375	0.3965	-0.016
Mof_C 	C 	0.5778	0.4966	0.5528	-0.005
Mof_O 	O 	0.10524	0.07781	0.78901	-0.469
Mof_C 	C 	0.17159	0.26354	0.7757	0.101
Mof_C 	C 	0.08825	0.2784	0.80258	-0.443
Mof_H 	H 	0.0898	0.3354	0.8182	0.132
Mof_H 	H 	0.0395	0.2761	0.7798	0.138
Mof_H 	H 	0.081	0.2333	0.8273	0.159
Mof_C 	C 	0.9398	0.0572	0.9489	0.071
Mof_C 	C 	0.9879	0.0794	0.8949	0.257
Mof_C 	C 	0.0403	0.0625	0.8965	-0.451
Mof_C 	C 	0.9222	0.0034	0.0528	-0.425
Mof_O 	O 	0.60524	0.57781	0.28901	-0.456
Mof_C 	C 	0.67159	0.76354	0.2757	0.111
Mof_C 	C 	0.58825	0.7784	0.30258	-0.47
Mof_H 	H 	0.5898	0.8354	0.3182	0.149
Mof_H 	H 	0.5395	0.7761	0.2798	0.16
Mof_H 	H 	0.581	0.7333	0.3273	0.173
Mof_C 	C 	0.4398	0.5572	0.4489	-0.006
Mof_C 	C 	0.4879	0.5794	0.3949	0.035
Mof_C 	C 	0.5403	0.5625	0.3965	-0.017
Mof_C 	C 	0.4222	0.5034	0.5528	-0.012
Mof_O 	O 	0.07781	0.89476	0.78901	-0.45
Mof_C 	C 	0.26354	0.82841	0.7757	0.12
Mof_C 	C 	0.2784	0.91175	0.80258	-0.489
Mof_H 	H 	0.3354	0.9102	0.8182	0.156
Mof_H 	H 	0.2761	0.9605	0.7798	0.175
Mof_H 	H 	0.2333	0.919	0.8273	0.181
Mof_C 	C 	0.0572	0.0602	0.9489	-0.55
Mof_C 	C 	0.0794	0.0121	0.8949	0.373
Mof_C 	C 	0.0625	0.9597	0.8965	-0.171
Mof_C 	C 	0.0034	0.0778	0.0528	0.364
Mof_O 	O 	0.57781	0.39476	0.28901	-0.457
Mof_C 	C 	0.76354	0.32841	0.2757	0.112
Mof_C 	C 	0.7784	0.41175	0.30258	-0.471
Mof_H 	H 	0.8354	0.4102	0.3182	0.149
Mof_H 	H 	0.7761	0.4605	0.2798	0.16
Mof_H 	H 	0.7333	0.419	0.3273	0.173
Mof_C 	C 	0.5572	0.5602	0.4489	-0.009
Mof_C 	C 	0.5794	0.5121	0.3949	0.037
Mof_C 	C 	0.5625	0.4597	0.3965	-0.018
Mof_C 	C 	0.5034	0.5778	0.5528	-0.009
Mof_O 	O 	0.92219	0.10524	0.78901	-0.446
Mof_C 	C 	0.73646	0.17159	0.7757	0.106
Mof_C 	C 	0.7216	0.08825	0.80258	-0.451
Mof_H 	H 	0.6646	0.0898	0.8182	0.136
Mof_H 	H 	0.7239	0.0395	0.7798	0.143
Mof_H 	H 	0.7667	0.081	0.8273	0.163
Mof_C 	C 	0.9428	0.9398	0.9489	0.557
Mof_C 	C 	0.9206	0.9879	0.8949	-0.309
Mof_C 	C 	0.9375	0.0403	0.8965	0.156
Mof_C 	C 	0.9966	0.9222	0.0528	-0.384
Mof_O 	O 	0.42219	0.60524	0.28901	-0.456
Mof_C 	C 	0.23646	0.67159	0.2757	0.113
Mof_C 	C 	0.2216	0.58825	0.30258	-0.466
Mof_H 	H 	0.1646	0.5898	0.3182	0.142
Mof_H 	H 	0.2239	0.5395	0.2798	0.155
Mof_H 	H 	0.2667	0.581	0.3273	0.17
Mof_C 	C 	0.4428	0.4398	0.4489	-0.008
Mof_C 	C 	0.4206	0.4879	0.3949	0.033
Mof_C 	C 	0.4375	0.5403	0.3965	-0.015
Mof_C 	C 	0.4966	0.4222	0.5528	-0.008
Mof_O 	O 	0.10524	0.92219	0.71099	-0.446
Mof_C 	C 	0.17159	0.73646	0.7243	0.106
Mof_C 	C 	0.08825	0.7216	0.69742	-0.451
Mof_H 	H 	0.0898	0.6646	0.6818	0.136
Mof_H 	H 	0.0395	0.7239	0.7202	0.143
Mof_H 	H 	0.081	0.7667	0.6727	0.163
Mof_C 	C 	0.9398	0.9428	0.5511	0.559
Mof_C 	C 	0.9879	0.9206	0.6051	-0.311
Mof_C 	C 	0.0403	0.9375	0.6035	0.157
Mof_C 	C 	0.9222	0.9966	0.4472	-0.385
Mof_O 	O 	0.60524	0.42219	0.21099	-0.456
Mof_C 	C 	0.67159	0.23646	0.2243	0.113
Mof_C 	C 	0.58825	0.2216	0.19742	-0.466
Mof_H 	H 	0.5898	0.1646	0.1818	0.142
Mof_H 	H 	0.5395	0.2239	0.2202	0.155
Mof_H 	H 	0.581	0.2667	0.1727	0.17
Mof_C 	C 	0.4398	0.4428	0.0511	-0.008
Mof_C 	C 	0.4879	0.4206	0.1051	0.033
Mof_C 	C 	0.5403	0.4375	0.1035	-0.015
Mof_C 	C 	0.4222	0.4966	0.9472	-0.008
Mof_O 	O 	0.89476	0.07781	0.71099	-0.45
Mof_C 	C 	0.82841	0.26354	0.7243	0.12
Mof_C 	C 	0.91175	0.2784	0.69742	-0.489
Mof_H 	H 	0.9102	0.3354	0.6818	0.156
Mof_H 	H 	0.9605	0.2761	0.7202	0.175
Mof_H 	H 	0.919	0.2333	0.6727	0.181
Mof_C 	C 	0.0602	0.0572	0.5511	-0.552
Mof_C 	C 	0.0121	0.0794	0.6051	0.374
Mof_C 	C 	0.9597	0.0625	0.6035	-0.172
Mof_C 	C 	0.0778	0.0034	0.4472	0.365
Mof_O 	O 	0.39476	0.57781	0.21099	-0.457
Mof_C 	C 	0.32841	0.76354	0.2243	0.112
Mof_C 	C 	0.41175	0.7784	0.19742	-0.471
Mof_H 	H 	0.4102	0.8354	0.1818	0.149
Mof_H 	H 	0.4605	0.7761	0.2202	0.16
Mof_H 	H 	0.419	0.7333	0.1727	0.173
Mof_C 	C 	0.5602	0.5572	0.0511	-0.009
Mof_C 	C 	0.5121	0.5794	0.1051	0.037
Mof_C 	C 	0.4597	0.5625	0.1035	-0.018
Mof_C 	C 	0.5778	0.5034	0.9472	-0.009
Mof_O 	O 	0.92219	0.89476	0.71099	-0.433
Mof_C 	C 	0.73646	0.82841	0.7243	0.122
Mof_C 	C 	0.7216	0.91175	0.69742	-0.49
Mof_H 	H 	0.6646	0.9102	0.6818	0.157
Mof_H 	H 	0.7239	0.9605	0.7202	0.174
Mof_H 	H 	0.7667	0.919	0.6727	0.181
Mof_C 	C 	0.9428	0.0602	0.5511	-0.065
Mof_C 	C 	0.9206	0.0121	0.6051	-0.155
Mof_C 	C 	0.9375	0.9597	0.6035	0.414
Mof_C 	C 	0.9966	0.0778	0.4472	0.44
Mof_O 	O 	0.42219	0.39476	0.21099	-0.457
Mof_C 	C 	0.23646	0.32841	0.2243	0.116
Mof_C 	C 	0.2216	0.41175	0.19742	-0.469
Mof_H 	H 	0.1646	0.4102	0.1818	0.143
Mof_H 	H 	0.2239	0.4605	0.2202	0.155
Mof_H 	H 	0.2667	0.419	0.1727	0.17
Mof_C 	C 	0.4428	0.5602	0.0511	-0.011
Mof_C 	C 	0.4206	0.5121	0.1051	0.035
Mof_C 	C 	0.4375	0.4597	0.1035	-0.016
Mof_C 	C 	0.4966	0.5778	0.9472	-0.005
Mof_O 	O 	0.07781	0.10524	0.71099	-0.469
Mof_C 	C 	0.26354	0.17159	0.7243	0.101
Mof_C 	C 	0.2784	0.08825	0.69742	-0.444
Mof_H 	H 	0.3354	0.0898	0.6818	0.132
Mof_H 	H 	0.2761	0.0395	0.7202	0.138
Mof_H 	H 	0.2333	0.081	0.6727	0.159
Mof_C 	C 	0.0572	0.9398	0.5511	0.072
Mof_C 	C 	0.0794	0.9879	0.6051	0.257
Mof_C 	C 	0.0625	0.0403	0.6035	-0.453
Mof_C 	C 	0.0034	0.9222	0.4472	-0.427
Mof_O 	O 	0.57781	0.60524	0.21099	-0.456
Mof_C 	C 	0.76354	0.67159	0.2243	0.111
Mof_C 	C 	0.7784	0.58825	0.19742	-0.47
Mof_H 	H 	0.8354	0.5898	0.1818	0.148
Mof_H 	H 	0.7761	0.5395	0.2202	0.16
Mof_H 	H 	0.7333	0.581	0.1727	0.173
Mof_C 	C 	0.5572	0.4398	0.0511	-0.006
Mof_C 	C 	0.5794	0.4879	0.1051	0.035
Mof_C 	C 	0.5625	0.5403	0.1035	-0.017
Mof_C 	C 	0.5034	0.4222	0.9472	-0.012
Mof_Co	Co	1.35421e-33	0	0.20158	1.12
Mof_N 	N 	2.78103e-33	1.92248e-33	0.1278	-0.263
Mof_C 	C 	1.75339e-34	0	0.0261	-0.053
Mof_Co	Co	0.5	0.5	0.70158	1.145
Mof_N 	N 	0.5	0.5	0.6278	-0.223
Mof_C 	C 	0.5	0.5	0.5261	0.012
Mof_Co	Co	2.00478e-33	0	0.29842	1.12
Mof_N 	N 	2.50043e-33	-7.68991e-33	0.3722	-0.263
Mof_C 	C 	3.18365e-33	0	0.4739	-0.053
Mof_Co	Co	0.5	0.5	0.79842	1.145
Mof_N 	N 	0.5	0.5	0.8722	-0.223
Mof_C 	C 	0.5	0.5	0.9739	0.012
Mof_Co	Co	5.36376e-33	0	0.79842	1.12
Mof_N 	N 	2.12392e-32	1.53798e-32	0.8722	-0.263
Mof_C 	C 	2.19224e-32	1.53798e-32	0.9739	-0.053
Mof_Co	Co	0.5	0.5	0.29842	1.145
Mof_N 	N 	0.5	0.5	0.3722	-0.223
Mof_C 	C 	0.5	0.5	0.4739	0.012
Mof_Co	Co	4.7132e-33	0	0.70158	1.12
Mof_N 	N 	-1.11623e-32	0	0.6278	-0.263
Mof_C 	C 	3.53433e-33	7.68991e-33	0.5261	-0.053
Mof_Co	Co	0.5	0.5	0.20158	1.145
Mof_N 	N 	0.5	0.5	0.1278	-0.223
Mof_C 	C 	0.5	0.5	0.0261	0.012
Mof_C 	C 	0.11809	0.11809	0.25	0.383
Mof_C 	C 	0.18687	0.18687	0.25	-0.176
Mof_C 	C 	0.61809	0.61809	0.75	0.385
Mof_C 	C 	0.68687	0.68687	0.75	-0.177
Mof_C 	C 	0.88191	0.88191	0.25	0.384
Mof_C 	C 	0.81313	0.81313	0.25	-0.181
Mof_C 	C 	0.38191	0.38191	0.75	0.387
Mof_C 	C 	0.31313	0.31313	0.75	-0.184
Mof_C 	C 	0.88191	0.11809	0.25	0.383
Mof_C 	C 	0.81313	0.18687	0.25	-0.179
Mof_C 	C 	0.38191	0.61809	0.75	0.386
Mof_C 	C 	0.31313	0.68687	0.75	-0.18
Mof_C 	C 	0.11809	0.88191	0.25	0.383
Mof_C 	C 	0.18687	0.81313	0.25	-0.179
Mof_C 	C 	0.61809	0.38191	0.75	0.386
Mof_C 	C 	0.68687	0.31313	0.75	-0.18
Mof_C 	C 	0.88191	0.88191	0.75	0.384
Mof_C 	C 	0.81313	0.81313	0.75	-0.181
Mof_C 	C 	0.38191	0.38191	0.25	0.387
Mof_C 	C 	0.31313	0.31313	0.25	-0.184
Mof_C 	C 	0.11809	0.11809	0.75	0.383
Mof_C 	C 	0.18687	0.18687	0.75	-0.176
Mof_C 	C 	0.61809	0.61809	0.25	0.385
Mof_C 	C 	0.68687	0.68687	0.25	-0.177
Mof_C 	C 	0.11809	0.88191	0.75	0.383
Mof_C 	C 	0.18687	0.81313	0.75	-0.179
Mof_C 	C 	0.61809	0.38191	0.25	0.386
Mof_C 	C 	0.68687	0.31313	0.25	-0.18
Mof_C 	C 	0.88191	0.11809	0.75	0.383
Mof_C 	C 	0.81313	0.18687	0.75	-0.179
Mof_C 	C 	0.38191	0.61809	0.25	0.386
Mof_C 	C 	0.31313	0.68687	0.25	-0.18
_end
