data_functionalizedCrystal
_audit_creation_method	'EQeq! by Chris Wilmer'
_symmetry_space_group_name_H-M	'P1'
_symmetry_Int_Tables_number	1
_symmetry_cell_setting	triclinic
loop_
_symmetry_equiv_pos_as_xyz
  x,y,z
_cell_length_a	32.47
_cell_length_b	22.115
_cell_length_c	20.273
_cell_angle_alpha	90
_cell_angle_beta	90
_cell_angle_gamma	90
loop_
_atom_site_label
_atom_site_type_symbol
_atom_site_fract_x
_atom_site_fract_y
_atom_site_fract_z
_atom_site_charge
Mof_Cu	Cu	0.96242	0.85432	0.72297	0.916
Mof_Cu	Cu	0.96112	0.92377	0.58648	0.925
Mof_Cu	Cu	0.01624	0.81573	0.61089	0.925
Mof_Cu	Cu	0.96681	0.98549	0.44975	0.933
Mof_C 	C 	0.76425	0.8827	0.4603	-0.038
Mof_C 	C 	0.7891	0.9087	0.4092	0.109
Mof_C 	C 	0.7812	0.8748	0.5208	0.107
Mof_C 	C 	0.82932	0.924	0.421	-0.092
Mof_H 	H 	0.8452	0.9401	0.3872	0.11
Mof_C 	C 	0.84654	0.9158	0.483	-0.008
Mof_C 	C 	0.88991	0.9342	0.4967	0.335
Mof_C 	C 	0.82258	0.8905	0.5321	-0.08
Mof_H 	H 	0.8341	0.8836	0.5734	0.102
Mof_C 	C 	0.701	0.8195	0.4318	0.076
Mof_C 	C 	0.71891	0.8726	0.4476	0.059
Mof_C 	C 	0.6936	0.9222	0.4542	-0.07
Mof_H 	H 	0.7051	0.9591	0.4661	0.083
Mof_C 	C 	0.65141	0.9189	0.4435	0.017
Mof_H 	H 	0.6352	0.9534	0.4468	0.054
Mof_C 	C 	0.63351	0.8635	0.4278	-0.056
Mof_C 	C 	0.6584	0.8138	0.4224	-0.035
Mof_H 	H 	0.6471	0.7763	0.4125	0.095
Mof_C 	C 	0.58807	0.8589	0.417	0.341
Mof_C 	C 	0.87957	0.8728	0.761	0.339
Mof_C 	C 	0.84091	0.9128	0.7547	-0.022
Mof_C 	C 	0.8089	0.904	0.7984	-0.001
Mof_H 	H 	0.8105	0.8751	0.8316	0.075
Mof_C 	C 	0.7737	0.9404	0.7908	-0.049
Mof_H 	H 	0.7521	0.9359	0.8205	0.083
Mof_C 	C 	0.77013	0.9811	0.7428	0.023
Mof_C 	C 	0.80203	0.9884	0.7015	0.084
Mof_C 	C 	0.83835	0.955	0.7069	-0.055
Mof_H 	H 	0.8602	0.9617	0.6782	0.089
Mof_C 	C 	0.99073	0.8327	0.4803	0.373
Mof_C 	C 	0.98434	0.809	0.411	-0.074
Mof_C 	C 	0.95068	0.8288	0.3732	-0.046
Mof_H 	H 	0.9328	0.858	0.3896	0.083
Mof_C 	C 	0.9447	0.8041	0.3114	0.074
Mof_C 	C 	0.9719	0.7627	0.2837	0.021
Mof_C 	C 	0.00518	0.745	0.3226	-0.076
Mof_H 	H 	0.0243	0.7177	0.3057	0.085
Mof_C 	C 	0.01035	0.7671	0.3855	0.017
Mof_H 	H 	0.0321	0.7531	0.4111	0.062
Mof_C 	C 	0.9956	0.8341	0.8545	0.365
Mof_C 	C 	0.00104	0.8572	0.9236	-0.072
Mof_C 	C 	0.9726	0.8966	0.9492	0.013
Mof_H 	H 	0.95	0.9081	0.924	0.066
Mof_C 	C 	0.9775	0.9196	0.0128	-0.072
Mof_H 	H 	0.9582	0.9469	0.0291	0.085
Mof_C 	C 	0.01027	0.9028	0.0522	0.022
Mof_C 	C 	0.03843	0.863	0.0236	0.073
Mof_C 	C 	0.03446	0.8404	0.961	-0.044
Mof_H 	H 	0.0541	0.814	0.9441	0.086
Mof_C 	C 	0.01047	0.9275	0.1205	0.021
Mof_C 	C 	0.9755	0.914	0.1604	-0.078
Mof_H 	H 	0.9554	0.8882	0.1439	0.086
Mof_C 	C 	0.97052	0.9379	0.2223	0.02
Mof_H 	H 	0.9472	0.928	0.2466	0.062
Mof_C 	C 	0.99878	0.9756	0.2487	-0.079
Mof_C 	C 	0.99362	0.0019	0.3162	0.369
Mof_C 	C 	0.03383	0.9894	0.2116	-0.046
Mof_H 	H 	0.0539	0.0148	0.229	0.081
Mof_C 	C 	0.0388	0.966	0.1504	0.073
Mof_O 	O 	0.90923	0.95898	0.45085	-0.38
Mof_O 	O 	0.90268	0.92258	0.55421	-0.378
Mof_O 	O 	0.7881	0.9543	0.3045	-0.074
Mof_O 	O 	0.7508	0.8769	0.3183	-0.069
Mof_O 	O 	0.7616	0.7695	0.4041	-0.04
Mof_O 	O 	0.7064	0.7108	0.4385	-0.046
Mof_O 	O 	0.57512	0.80829	0.39861	-0.383
Mof_O 	O 	0.56579	0.90373	0.42651	-0.366
Mof_O 	O 	0.90943	0.89116	0.72638	-0.394
Mof_O 	O 	0.87923	0.8304	0.7992	-0.267
Mof_O 	O 	0.8272	0.0382	0.6079	-0.103
Mof_O 	O 	0.7825	0.0851	0.6592	-0.069
Mof_O 	O 	0.00751	0.79652	0.51966	-0.402
Mof_O 	O 	0.97946	0.88505	0.49344	-0.45
Mof_O 	O 	0.90496	0.8154	0.2174	-0.089
Mof_O 	O 	0.88188	0.8506	0.3061	-0.087
Mof_O 	O 	0.01429	0.78665	0.83951	-0.472
Mof_O 	O 	0.97273	0.8647	0.81685	-0.405
Mof_O 	O 	0.1045	0.8228	0.0281	-0.085
Mof_O 	O 	0.07618	0.8472	0.1202	-0.096
Mof_O 	O 	0.07968	0.9775	0.0545	-0.096
Mof_O 	O 	0.10574	0.0008	0.1461	-0.095
Mof_O 	O 	0.01482	0.04752	0.32947	-0.467
Mof_O 	O 	0.96902	0.97506	0.35439	-0.392
Mof_O 	O 	0.97331	0.99926	0.54415	-0.632
Mof_H 	H 	0.9566	0.0329	0.5607	0.187
Mof_O 	O 	0.95951	0.84411	0.62631	-0.636
Mof_H 	H 	0.9377	0.8173	0.6103	0.19
Mof_O 	O 	0.01859	0.82652	0.70669	-0.655
Mof_H 	H 	0.0396	0.8556	0.7208	0.186
Mof_O 	O 	0.7713	0.8561	0.6417	-0.058
Mof_O 	O 	0.7347	0.7987	0.5656	-0.031
Mof_N 	N 	0.7752	0.914	0.3396	-0.012
Mof_N 	N 	0.7656	0.8336	0.5824	-0
Mof_N 	N 	0.7247	0.7609	0.4257	0.005
Mof_N 	N 	0.8002	0.0316	0.6467	-0.014
Mof_N 	N 	0.9086	0.8236	0.2757	-0.006
Mof_N 	N 	0.07609	0.8423	0.0598	-0.004
Mof_N 	N 	0.07741	0.9823	0.1155	-0.003
Mof_O 	O 	0.7597	0.7571	0.4476	-0.041
Mof_O 	O 	0.7103	0.7173	0.3853	-0.048
Mof_O 	O 	0.7874	0.8012	0.6322	-0.06
Mof_O 	O 	0.7264	0.8259	0.5766	-0.039
Mof_Cu	Cu	0.53758	0.14568	0.72297	0.917
Mof_Cu	Cu	0.53888	0.07623	0.58648	0.926
Mof_Cu	Cu	0.48376	0.18427	0.61089	0.926
Mof_Cu	Cu	0.53319	0.01451	0.44975	0.934
Mof_C 	C 	0.73575	0.1173	0.4603	-0.038
Mof_C 	C 	0.7109	0.0913	0.4092	0.109
Mof_C 	C 	0.7188	0.1252	0.5208	0.107
Mof_C 	C 	0.67068	0.076	0.421	-0.092
Mof_H 	H 	0.6548	0.0599	0.3872	0.11
Mof_C 	C 	0.65346	0.0842	0.483	-0.008
Mof_C 	C 	0.61009	0.0658	0.4967	0.335
Mof_C 	C 	0.67742	0.1095	0.5321	-0.08
Mof_H 	H 	0.6659	0.1164	0.5734	0.102
Mof_C 	C 	0.799	0.1805	0.4318	0.076
Mof_C 	C 	0.78109	0.1274	0.4476	0.059
Mof_C 	C 	0.8064	0.0778	0.4542	-0.07
Mof_H 	H 	0.7949	0.0409	0.4661	0.083
Mof_C 	C 	0.84859	0.0811	0.4435	0.017
Mof_H 	H 	0.8648	0.0466	0.4468	0.054
Mof_C 	C 	0.86649	0.1365	0.4278	-0.056
Mof_C 	C 	0.8416	0.1862	0.4224	-0.035
Mof_H 	H 	0.8529	0.2237	0.4125	0.095
Mof_C 	C 	0.91193	0.1411	0.417	0.341
Mof_C 	C 	0.62043	0.1272	0.761	0.339
Mof_C 	C 	0.65909	0.0872	0.7547	-0.022
Mof_C 	C 	0.6911	0.096	0.7984	-0.001
Mof_H 	H 	0.6895	0.1249	0.8316	0.075
Mof_C 	C 	0.7263	0.0596	0.7908	-0.049
Mof_H 	H 	0.7479	0.0641	0.8205	0.083
Mof_C 	C 	0.72987	0.0189	0.7428	0.023
Mof_C 	C 	0.69797	0.0116	0.7015	0.084
Mof_C 	C 	0.66165	0.045	0.7069	-0.055
Mof_H 	H 	0.6398	0.0383	0.6782	0.089
Mof_C 	C 	0.50927	0.1673	0.4803	0.373
Mof_C 	C 	0.51566	0.191	0.411	-0.074
Mof_C 	C 	0.54932	0.1712	0.3732	-0.046
Mof_H 	H 	0.5672	0.142	0.3896	0.083
Mof_C 	C 	0.5553	0.1959	0.3114	0.074
Mof_C 	C 	0.5281	0.2373	0.2837	0.021
Mof_C 	C 	0.49482	0.255	0.3226	-0.076
Mof_H 	H 	0.4757	0.2823	0.3057	0.085
Mof_C 	C 	0.48965	0.2329	0.3855	0.017
Mof_H 	H 	0.4679	0.2469	0.4111	0.062
Mof_C 	C 	0.5044	0.1659	0.8545	0.364
Mof_C 	C 	0.49896	0.1428	0.9236	-0.071
Mof_C 	C 	0.5274	0.1034	0.9492	0.011
Mof_H 	H 	0.55	0.0919	0.924	0.067
Mof_C 	C 	0.5225	0.0804	0.0128	-0.071
Mof_H 	H 	0.5418	0.0531	0.0291	0.085
Mof_C 	C 	0.48973	0.0972	0.0522	0.021
Mof_C 	C 	0.46157	0.137	0.0236	0.074
Mof_C 	C 	0.46554	0.1596	0.961	-0.045
Mof_H 	H 	0.4459	0.186	0.9441	0.086
Mof_C 	C 	0.48953	0.0725	0.1205	0.021
Mof_C 	C 	0.5245	0.086	0.1604	-0.078
Mof_H 	H 	0.5446	0.1118	0.1439	0.086
Mof_C 	C 	0.52948	0.0621	0.2223	0.02
Mof_H 	H 	0.5528	0.072	0.2466	0.062
Mof_C 	C 	0.50122	0.0244	0.2487	-0.079
Mof_C 	C 	0.50638	0.9981	0.3162	0.369
Mof_C 	C 	0.46617	0.0106	0.2116	-0.046
Mof_H 	H 	0.4461	0.9852	0.229	0.081
Mof_C 	C 	0.4612	0.034	0.1504	0.073
Mof_O 	O 	0.59077	0.04102	0.45085	-0.38
Mof_O 	O 	0.59732	0.07742	0.55421	-0.378
Mof_O 	O 	0.7119	0.0457	0.3045	-0.074
Mof_O 	O 	0.7492	0.1231	0.3183	-0.069
Mof_O 	O 	0.7384	0.2305	0.4041	-0.04
Mof_O 	O 	0.7936	0.2892	0.4385	-0.046
Mof_O 	O 	0.92488	0.19171	0.39861	-0.383
Mof_O 	O 	0.93421	0.09627	0.42651	-0.366
Mof_O 	O 	0.59057	0.10884	0.72638	-0.394
Mof_O 	O 	0.62077	0.1696	0.7992	-0.267
Mof_O 	O 	0.6728	0.9618	0.6079	-0.103
Mof_O 	O 	0.7175	0.9149	0.6592	-0.069
Mof_O 	O 	0.49249	0.20348	0.51966	-0.402
Mof_O 	O 	0.52054	0.11495	0.49344	-0.45
Mof_O 	O 	0.59504	0.1846	0.2174	-0.089
Mof_O 	O 	0.61812	0.1494	0.3061	-0.087
Mof_O 	O 	0.48571	0.21335	0.83951	-0.472
Mof_O 	O 	0.52727	0.1353	0.81685	-0.405
Mof_O 	O 	0.3955	0.1772	0.0281	-0.085
Mof_O 	O 	0.42382	0.1528	0.1202	-0.096
Mof_O 	O 	0.42032	0.0225	0.0545	-0.096
Mof_O 	O 	0.39426	0.9992	0.1461	-0.095
Mof_O 	O 	0.48518	0.95248	0.32947	-0.467
Mof_O 	O 	0.53098	0.02494	0.35439	-0.392
Mof_O 	O 	0.52669	0.00074	0.54415	-0.632
Mof_H 	H 	0.5434	0.9671	0.5607	0.187
Mof_O 	O 	0.54049	0.15589	0.62631	-0.636
Mof_H 	H 	0.5623	0.1827	0.6103	0.19
Mof_O 	O 	0.48141	0.17348	0.70669	-0.655
Mof_H 	H 	0.4604	0.1444	0.7208	0.186
Mof_O 	O 	0.7287	0.1439	0.6417	-0.058
Mof_O 	O 	0.7653	0.2013	0.5656	-0.031
Mof_N 	N 	0.7248	0.086	0.3396	-0.012
Mof_N 	N 	0.7344	0.1664	0.5824	-0
Mof_N 	N 	0.7753	0.2391	0.4257	0.005
Mof_N 	N 	0.6998	0.9684	0.6467	-0.014
Mof_N 	N 	0.5914	0.1764	0.2757	-0.006
Mof_N 	N 	0.42391	0.1577	0.0598	-0.004
Mof_N 	N 	0.42259	0.0177	0.1155	-0.003
Mof_O 	O 	0.7403	0.2429	0.4476	-0.041
Mof_O 	O 	0.7897	0.2827	0.3853	-0.048
Mof_O 	O 	0.7126	0.1988	0.6322	-0.06
Mof_O 	O 	0.7736	0.1741	0.5766	-0.039
Mof_Cu	Cu	0.53758	0.35432	0.77703	0.917
Mof_Cu	Cu	0.53888	0.42377	0.91352	0.926
Mof_Cu	Cu	0.48376	0.31573	0.88911	0.926
Mof_Cu	Cu	0.53319	0.48549	0.05025	0.934
Mof_C 	C 	0.73575	0.3827	0.0397	-0.038
Mof_C 	C 	0.7109	0.4087	0.0908	0.11
Mof_C 	C 	0.7188	0.3748	0.9792	0.107
Mof_C 	C 	0.67068	0.424	0.079	-0.092
Mof_H 	H 	0.6548	0.4401	0.1128	0.11
Mof_C 	C 	0.65346	0.4158	0.017	-0.008
Mof_C 	C 	0.61009	0.4342	0.0033	0.335
Mof_C 	C 	0.67742	0.3905	0.9679	-0.08
Mof_H 	H 	0.6659	0.3836	0.9266	0.102
Mof_C 	C 	0.799	0.3195	0.0682	0.076
Mof_C 	C 	0.78109	0.3726	0.0524	0.059
Mof_C 	C 	0.8064	0.4222	0.0458	-0.07
Mof_H 	H 	0.7949	0.4591	0.0339	0.083
Mof_C 	C 	0.84859	0.4189	0.0565	0.017
Mof_H 	H 	0.8648	0.4534	0.0532	0.054
Mof_C 	C 	0.86649	0.3635	0.0722	-0.056
Mof_C 	C 	0.8416	0.3138	0.0776	-0.035
Mof_H 	H 	0.8529	0.2763	0.0875	0.095
Mof_C 	C 	0.91193	0.3589	0.083	0.341
Mof_C 	C 	0.62043	0.3728	0.739	0.339
Mof_C 	C 	0.65909	0.4128	0.7453	-0.022
Mof_C 	C 	0.6911	0.404	0.7016	-0.001
Mof_H 	H 	0.6895	0.3751	0.6684	0.075
Mof_C 	C 	0.7263	0.4404	0.7092	-0.049
Mof_H 	H 	0.7479	0.4359	0.6795	0.083
Mof_C 	C 	0.72987	0.4811	0.7572	0.023
Mof_C 	C 	0.69797	0.4884	0.7985	0.084
Mof_C 	C 	0.66165	0.455	0.7931	-0.055
Mof_H 	H 	0.6398	0.4617	0.8218	0.089
Mof_C 	C 	0.50927	0.3327	0.0197	0.373
Mof_C 	C 	0.51566	0.309	0.089	-0.074
Mof_C 	C 	0.54932	0.3288	0.1268	-0.046
Mof_H 	H 	0.5672	0.358	0.1104	0.083
Mof_C 	C 	0.5553	0.3041	0.1886	0.074
Mof_C 	C 	0.5281	0.2627	0.2163	0.021
Mof_C 	C 	0.49482	0.245	0.1774	-0.076
Mof_H 	H 	0.4757	0.2177	0.1943	0.085
Mof_C 	C 	0.48965	0.2671	0.1145	0.017
Mof_H 	H 	0.4679	0.2531	0.0889	0.062
Mof_C 	C 	0.5044	0.3341	0.6455	0.364
Mof_C 	C 	0.49896	0.3572	0.5764	-0.071
Mof_C 	C 	0.5274	0.3966	0.5508	0.011
Mof_H 	H 	0.55	0.4081	0.576	0.067
Mof_C 	C 	0.5225	0.4196	0.4872	-0.071
Mof_H 	H 	0.5418	0.4469	0.4709	0.085
Mof_C 	C 	0.48973	0.4028	0.4478	0.021
Mof_C 	C 	0.46157	0.363	0.4764	0.074
Mof_C 	C 	0.46554	0.3404	0.539	-0.045
Mof_H 	H 	0.4459	0.314	0.5559	0.086
Mof_C 	C 	0.48953	0.4275	0.3795	0.021
Mof_C 	C 	0.5245	0.414	0.3396	-0.078
Mof_H 	H 	0.5446	0.3882	0.3561	0.086
Mof_C 	C 	0.52948	0.4379	0.2777	0.02
Mof_H 	H 	0.5528	0.428	0.2534	0.062
Mof_C 	C 	0.50122	0.4756	0.2513	-0.079
Mof_C 	C 	0.50638	0.5019	0.1838	0.369
Mof_C 	C 	0.46617	0.4894	0.2884	-0.046
Mof_H 	H 	0.4461	0.5148	0.271	0.081
Mof_C 	C 	0.4612	0.466	0.3496	0.073
Mof_O 	O 	0.59077	0.45898	0.04915	-0.38
Mof_O 	O 	0.59732	0.42258	0.94579	-0.378
Mof_O 	O 	0.7119	0.4543	0.1955	-0.074
Mof_O 	O 	0.7492	0.3769	0.1817	-0.069
Mof_O 	O 	0.7384	0.2695	0.0959	-0.04
Mof_O 	O 	0.7936	0.2108	0.0615	-0.046
Mof_O 	O 	0.92488	0.30829	0.10139	-0.383
Mof_O 	O 	0.93421	0.40373	0.07349	-0.366
Mof_O 	O 	0.59057	0.39116	0.77362	-0.394
Mof_O 	O 	0.62077	0.3304	0.7008	-0.267
Mof_O 	O 	0.6728	0.5382	0.8921	-0.103
Mof_O 	O 	0.7175	0.5851	0.8408	-0.069
Mof_O 	O 	0.49249	0.29652	0.98034	-0.402
Mof_O 	O 	0.52054	0.38505	0.00656	-0.45
Mof_O 	O 	0.59504	0.3154	0.2826	-0.089
Mof_O 	O 	0.61812	0.3506	0.1939	-0.087
Mof_O 	O 	0.48571	0.28665	0.66049	-0.472
Mof_O 	O 	0.52727	0.3647	0.68315	-0.405
Mof_O 	O 	0.3955	0.3228	0.4719	-0.085
Mof_O 	O 	0.42382	0.3472	0.3798	-0.096
Mof_O 	O 	0.42032	0.4775	0.4455	-0.096
Mof_O 	O 	0.39426	0.5008	0.3539	-0.095
Mof_O 	O 	0.48518	0.54752	0.17053	-0.467
Mof_O 	O 	0.53098	0.47506	0.14561	-0.392
Mof_O 	O 	0.52669	0.49926	0.95585	-0.632
Mof_H 	H 	0.5434	0.5329	0.9393	0.187
Mof_O 	O 	0.54049	0.34411	0.87369	-0.636
Mof_H 	H 	0.5623	0.3173	0.8897	0.19
Mof_O 	O 	0.48141	0.32652	0.79331	-0.655
Mof_H 	H 	0.4604	0.3556	0.7792	0.186
Mof_O 	O 	0.7287	0.3561	0.8583	-0.058
Mof_O 	O 	0.7653	0.2987	0.9344	-0.031
Mof_N 	N 	0.7248	0.414	0.1604	-0.012
Mof_N 	N 	0.7344	0.3336	0.9176	-0
Mof_N 	N 	0.7753	0.2609	0.0743	0.005
Mof_N 	N 	0.6998	0.5316	0.8533	-0.014
Mof_N 	N 	0.5914	0.3236	0.2243	-0.006
Mof_N 	N 	0.42391	0.3423	0.4402	-0.004
Mof_N 	N 	0.42259	0.4823	0.3845	-0.003
Mof_O 	O 	0.7403	0.2571	0.0524	-0.041
Mof_O 	O 	0.7897	0.2173	0.1147	-0.048
Mof_O 	O 	0.7126	0.3012	0.8678	-0.06
Mof_O 	O 	0.7736	0.3259	0.9234	-0.039
Mof_Cu	Cu	0.96242	0.64568	0.77703	0.917
Mof_Cu	Cu	0.96112	0.57623	0.91352	0.926
Mof_Cu	Cu	0.01624	0.68427	0.88911	0.926
Mof_Cu	Cu	0.96681	0.51451	0.05025	0.934
Mof_C 	C 	0.76425	0.6173	0.0397	-0.038
Mof_C 	C 	0.7891	0.5913	0.0908	0.11
Mof_C 	C 	0.7812	0.6252	0.9792	0.107
Mof_C 	C 	0.82932	0.576	0.079	-0.092
Mof_H 	H 	0.8452	0.5599	0.1128	0.11
Mof_C 	C 	0.84654	0.5842	0.017	-0.008
Mof_C 	C 	0.88991	0.5658	0.0033	0.335
Mof_C 	C 	0.82258	0.6095	0.9679	-0.08
Mof_H 	H 	0.8341	0.6164	0.9266	0.102
Mof_C 	C 	0.701	0.6805	0.0682	0.076
Mof_C 	C 	0.71891	0.6274	0.0524	0.059
Mof_C 	C 	0.6936	0.5778	0.0458	-0.07
Mof_H 	H 	0.7051	0.5409	0.0339	0.083
Mof_C 	C 	0.65141	0.5811	0.0565	0.017
Mof_H 	H 	0.6352	0.5466	0.0532	0.054
Mof_C 	C 	0.63351	0.6365	0.0722	-0.056
Mof_C 	C 	0.6584	0.6862	0.0776	-0.035
Mof_H 	H 	0.6471	0.7237	0.0875	0.095
Mof_C 	C 	0.58807	0.6411	0.083	0.341
Mof_C 	C 	0.87957	0.6272	0.739	0.339
Mof_C 	C 	0.84091	0.5872	0.7453	-0.022
Mof_C 	C 	0.8089	0.596	0.7016	-0.001
Mof_H 	H 	0.8105	0.6249	0.6684	0.075
Mof_C 	C 	0.7737	0.5596	0.7092	-0.049
Mof_H 	H 	0.7521	0.5641	0.6795	0.083
Mof_C 	C 	0.77013	0.5189	0.7572	0.023
Mof_C 	C 	0.80203	0.5116	0.7985	0.084
Mof_C 	C 	0.83835	0.545	0.7931	-0.055
Mof_H 	H 	0.8602	0.5383	0.8218	0.089
Mof_C 	C 	0.99073	0.6673	0.0197	0.373
Mof_C 	C 	0.98434	0.691	0.089	-0.075
Mof_C 	C 	0.95068	0.6712	0.1268	-0.046
Mof_H 	H 	0.9328	0.642	0.1104	0.083
Mof_C 	C 	0.9447	0.6959	0.1886	0.074
Mof_C 	C 	0.9719	0.7373	0.2163	0.021
Mof_C 	C 	0.00518	0.755	0.1774	-0.076
Mof_H 	H 	0.0243	0.7823	0.1943	0.085
Mof_C 	C 	0.01035	0.7329	0.1145	0.018
Mof_H 	H 	0.0321	0.7469	0.0889	0.062
Mof_C 	C 	0.9956	0.6659	0.6455	0.365
Mof_C 	C 	0.00104	0.6428	0.5764	-0.071
Mof_C 	C 	0.9726	0.6034	0.5508	0.011
Mof_H 	H 	0.95	0.5919	0.576	0.067
Mof_C 	C 	0.9775	0.5804	0.4872	-0.071
Mof_H 	H 	0.9582	0.5531	0.4709	0.085
Mof_C 	C 	0.01027	0.5972	0.4478	0.021
Mof_C 	C 	0.03843	0.637	0.4764	0.074
Mof_C 	C 	0.03446	0.6596	0.539	-0.045
Mof_H 	H 	0.0541	0.686	0.5559	0.086
Mof_C 	C 	0.01047	0.5725	0.3795	0.022
Mof_C 	C 	0.9755	0.586	0.3396	-0.078
Mof_H 	H 	0.9554	0.6118	0.3561	0.086
Mof_C 	C 	0.97052	0.5621	0.2777	0.02
Mof_H 	H 	0.9472	0.572	0.2534	0.062
Mof_C 	C 	0.99878	0.5244	0.2513	-0.079
Mof_C 	C 	0.99362	0.4981	0.1838	0.369
Mof_C 	C 	0.03383	0.5106	0.2884	-0.046
Mof_H 	H 	0.0539	0.4852	0.271	0.081
Mof_C 	C 	0.0388	0.534	0.3496	0.073
Mof_O 	O 	0.90923	0.54102	0.04915	-0.38
Mof_O 	O 	0.90268	0.57742	0.94579	-0.378
Mof_O 	O 	0.7881	0.5457	0.1955	-0.074
Mof_O 	O 	0.7508	0.6231	0.1817	-0.069
Mof_O 	O 	0.7616	0.7305	0.0959	-0.04
Mof_O 	O 	0.7064	0.7892	0.0615	-0.046
Mof_O 	O 	0.57512	0.69171	0.10139	-0.383
Mof_O 	O 	0.56579	0.59627	0.07349	-0.366
Mof_O 	O 	0.90943	0.60884	0.77362	-0.394
Mof_O 	O 	0.87923	0.6696	0.7008	-0.267
Mof_O 	O 	0.8272	0.4618	0.8921	-0.103
Mof_O 	O 	0.7825	0.4149	0.8408	-0.069
Mof_O 	O 	0.00751	0.70348	0.98034	-0.402
Mof_O 	O 	0.97946	0.61495	0.00656	-0.45
Mof_O 	O 	0.90496	0.6846	0.2826	-0.089
Mof_O 	O 	0.88188	0.6494	0.1939	-0.087
Mof_O 	O 	0.01429	0.71335	0.66049	-0.472
Mof_O 	O 	0.97273	0.6353	0.68315	-0.405
Mof_O 	O 	0.1045	0.6772	0.4719	-0.085
Mof_O 	O 	0.07618	0.6528	0.3798	-0.096
Mof_O 	O 	0.07968	0.5225	0.4455	-0.096
Mof_O 	O 	0.10574	0.4992	0.3539	-0.095
Mof_O 	O 	0.01482	0.45248	0.17053	-0.467
Mof_O 	O 	0.96902	0.52494	0.14561	-0.392
Mof_O 	O 	0.97331	0.50074	0.95585	-0.632
Mof_H 	H 	0.9566	0.4671	0.9393	0.187
Mof_O 	O 	0.95951	0.65589	0.87369	-0.635
Mof_H 	H 	0.9377	0.6827	0.8897	0.19
Mof_O 	O 	0.01859	0.67348	0.79331	-0.655
Mof_H 	H 	0.0396	0.6444	0.7792	0.186
Mof_O 	O 	0.7713	0.6439	0.8583	-0.058
Mof_O 	O 	0.7347	0.7013	0.9344	-0.031
Mof_N 	N 	0.7752	0.586	0.1604	-0.012
Mof_N 	N 	0.7656	0.6664	0.9176	-0
Mof_N 	N 	0.7247	0.7391	0.0743	0.005
Mof_N 	N 	0.8002	0.4684	0.8533	-0.014
Mof_N 	N 	0.9086	0.6764	0.2243	-0.006
Mof_N 	N 	0.07609	0.6577	0.4402	-0.004
Mof_N 	N 	0.07741	0.5177	0.3845	-0.003
Mof_O 	O 	0.7597	0.7429	0.0524	-0.041
Mof_O 	O 	0.7103	0.7827	0.1147	-0.048
Mof_O 	O 	0.7874	0.6988	0.8678	-0.06
Mof_O 	O 	0.7264	0.6741	0.9234	-0.039
Mof_Cu	Cu	0.03758	0.14568	0.27703	0.917
Mof_Cu	Cu	0.03888	0.07623	0.41352	0.926
Mof_Cu	Cu	0.98376	0.18427	0.38911	0.926
Mof_Cu	Cu	0.03319	0.01451	0.55025	0.934
Mof_C 	C 	0.23575	0.1173	0.5397	-0.038
Mof_C 	C 	0.2109	0.0913	0.5908	0.109
Mof_C 	C 	0.2188	0.1252	0.4792	0.107
Mof_C 	C 	0.17068	0.076	0.579	-0.092
Mof_H 	H 	0.1548	0.0599	0.6128	0.11
Mof_C 	C 	0.15346	0.0842	0.517	-0.008
Mof_C 	C 	0.11009	0.0658	0.5033	0.335
Mof_C 	C 	0.17742	0.1095	0.4679	-0.08
Mof_H 	H 	0.1659	0.1164	0.4266	0.102
Mof_C 	C 	0.299	0.1805	0.5682	0.076
Mof_C 	C 	0.28109	0.1274	0.5524	0.059
Mof_C 	C 	0.3064	0.0778	0.5458	-0.07
Mof_H 	H 	0.2949	0.0409	0.5339	0.083
Mof_C 	C 	0.34859	0.0811	0.5565	0.017
Mof_H 	H 	0.3648	0.0466	0.5532	0.054
Mof_C 	C 	0.36649	0.1365	0.5722	-0.056
Mof_C 	C 	0.3416	0.1862	0.5776	-0.035
Mof_H 	H 	0.3529	0.2237	0.5875	0.095
Mof_C 	C 	0.41193	0.1411	0.583	0.341
Mof_C 	C 	0.12043	0.1272	0.239	0.339
Mof_C 	C 	0.15909	0.0872	0.2453	-0.022
Mof_C 	C 	0.1911	0.096	0.2016	-0.001
Mof_H 	H 	0.1895	0.1249	0.1684	0.075
Mof_C 	C 	0.2263	0.0596	0.2092	-0.049
Mof_H 	H 	0.2479	0.0641	0.1795	0.083
Mof_C 	C 	0.22987	0.0189	0.2572	0.023
Mof_C 	C 	0.19797	0.0116	0.2985	0.084
Mof_C 	C 	0.16165	0.045	0.2931	-0.055
Mof_H 	H 	0.1398	0.0383	0.3218	0.089
Mof_C 	C 	0.00927	0.1673	0.5197	0.373
Mof_C 	C 	0.01566	0.191	0.589	-0.074
Mof_C 	C 	0.04932	0.1712	0.6268	-0.046
Mof_H 	H 	0.0672	0.142	0.6104	0.083
Mof_C 	C 	0.0553	0.1959	0.6886	0.074
Mof_C 	C 	0.0281	0.2373	0.7163	0.021
Mof_C 	C 	0.99482	0.255	0.6774	-0.076
Mof_H 	H 	0.9757	0.2823	0.6943	0.085
Mof_C 	C 	0.98965	0.2329	0.6145	0.017
Mof_H 	H 	0.9679	0.2469	0.5889	0.062
Mof_C 	C 	0.0044	0.1659	0.1455	0.365
Mof_C 	C 	0.99896	0.1428	0.0764	-0.072
Mof_C 	C 	0.0274	0.1034	0.0508	0.013
Mof_H 	H 	0.05	0.0919	0.076	0.066
Mof_C 	C 	0.0225	0.0804	0.9872	-0.072
Mof_H 	H 	0.0418	0.0531	0.9709	0.085
Mof_C 	C 	0.98973	0.0972	0.9478	0.022
Mof_C 	C 	0.96157	0.137	0.9764	0.073
Mof_C 	C 	0.96554	0.1596	0.039	-0.044
Mof_H 	H 	0.9459	0.186	0.0559	0.086
Mof_C 	C 	0.98953	0.0725	0.8795	0.021
Mof_C 	C 	0.0245	0.086	0.8396	-0.078
Mof_H 	H 	0.0446	0.1118	0.8561	0.086
Mof_C 	C 	0.02948	0.0621	0.7777	0.02
Mof_H 	H 	0.0528	0.072	0.7534	0.062
Mof_C 	C 	0.00122	0.0244	0.7513	-0.079
Mof_C 	C 	0.00638	0.9981	0.6838	0.369
Mof_C 	C 	0.96617	0.0106	0.7884	-0.046
Mof_H 	H 	0.9461	0.9852	0.771	0.081
Mof_C 	C 	0.9612	0.034	0.8496	0.073
Mof_O 	O 	0.09077	0.04102	0.54915	-0.38
Mof_O 	O 	0.09732	0.07742	0.44579	-0.378
Mof_O 	O 	0.2119	0.0457	0.6955	-0.074
Mof_O 	O 	0.2492	0.1231	0.6817	-0.069
Mof_O 	O 	0.2384	0.2305	0.5959	-0.04
Mof_O 	O 	0.2936	0.2892	0.5615	-0.046
Mof_O 	O 	0.42488	0.19171	0.60139	-0.383
Mof_O 	O 	0.43421	0.09627	0.57349	-0.366
Mof_O 	O 	0.09057	0.10884	0.27362	-0.394
Mof_O 	O 	0.12077	0.1696	0.2008	-0.267
Mof_O 	O 	0.1728	0.9618	0.3921	-0.103
Mof_O 	O 	0.2175	0.9149	0.3408	-0.069
Mof_O 	O 	0.99249	0.20348	0.48034	-0.402
Mof_O 	O 	0.02054	0.11495	0.50656	-0.45
Mof_O 	O 	0.09504	0.1846	0.7826	-0.089
Mof_O 	O 	0.11812	0.1494	0.6939	-0.087
Mof_O 	O 	0.98571	0.21335	0.16049	-0.472
Mof_O 	O 	0.02727	0.1353	0.18315	-0.405
Mof_O 	O 	0.8955	0.1772	0.9719	-0.085
Mof_O 	O 	0.92382	0.1528	0.8798	-0.096
Mof_O 	O 	0.92032	0.0225	0.9455	-0.096
Mof_O 	O 	0.89426	0.9992	0.8539	-0.095
Mof_O 	O 	0.98518	0.95248	0.67053	-0.467
Mof_O 	O 	0.03098	0.02494	0.64561	-0.392
Mof_O 	O 	0.02669	0.00074	0.45585	-0.632
Mof_H 	H 	0.0434	0.9671	0.4393	0.187
Mof_O 	O 	0.04049	0.15589	0.37369	-0.636
Mof_H 	H 	0.0623	0.1827	0.3897	0.19
Mof_O 	O 	0.98141	0.17348	0.29331	-0.655
Mof_H 	H 	0.9604	0.1444	0.2792	0.186
Mof_O 	O 	0.2287	0.1439	0.3583	-0.058
Mof_O 	O 	0.2653	0.2013	0.4344	-0.031
Mof_N 	N 	0.2248	0.086	0.6604	-0.012
Mof_N 	N 	0.2344	0.1664	0.4176	-0
Mof_N 	N 	0.2753	0.2391	0.5743	0.005
Mof_N 	N 	0.1998	0.9684	0.3533	-0.014
Mof_N 	N 	0.0914	0.1764	0.7243	-0.006
Mof_N 	N 	0.92391	0.1577	0.9402	-0.004
Mof_N 	N 	0.92259	0.0177	0.8845	-0.003
Mof_O 	O 	0.2403	0.2429	0.5524	-0.041
Mof_O 	O 	0.2897	0.2827	0.6147	-0.048
Mof_O 	O 	0.2126	0.1988	0.3678	-0.06
Mof_O 	O 	0.2736	0.1741	0.4234	-0.039
Mof_Cu	Cu	0.46242	0.85432	0.27703	0.917
Mof_Cu	Cu	0.46112	0.92377	0.41352	0.926
Mof_Cu	Cu	0.51624	0.81573	0.38911	0.926
Mof_Cu	Cu	0.46681	0.98549	0.55025	0.934
Mof_C 	C 	0.26425	0.8827	0.5397	-0.038
Mof_C 	C 	0.2891	0.9087	0.5908	0.109
Mof_C 	C 	0.2812	0.8748	0.4792	0.107
Mof_C 	C 	0.32932	0.924	0.579	-0.092
Mof_H 	H 	0.3452	0.9401	0.6128	0.11
Mof_C 	C 	0.34654	0.9158	0.517	-0.008
Mof_C 	C 	0.38991	0.9342	0.5033	0.335
Mof_C 	C 	0.32258	0.8905	0.4679	-0.08
Mof_H 	H 	0.3341	0.8836	0.4266	0.102
Mof_C 	C 	0.201	0.8195	0.5682	0.076
Mof_C 	C 	0.21891	0.8726	0.5524	0.059
Mof_C 	C 	0.1936	0.9222	0.5458	-0.07
Mof_H 	H 	0.2051	0.9591	0.5339	0.083
Mof_C 	C 	0.15141	0.9189	0.5565	0.017
Mof_H 	H 	0.1352	0.9534	0.5532	0.054
Mof_C 	C 	0.13351	0.8635	0.5722	-0.056
Mof_C 	C 	0.1584	0.8138	0.5776	-0.035
Mof_H 	H 	0.1471	0.7763	0.5875	0.095
Mof_C 	C 	0.08807	0.8589	0.583	0.341
Mof_C 	C 	0.37957	0.8728	0.239	0.339
Mof_C 	C 	0.34091	0.9128	0.2453	-0.022
Mof_C 	C 	0.3089	0.904	0.2016	-0.001
Mof_H 	H 	0.3105	0.8751	0.1684	0.075
Mof_C 	C 	0.2737	0.9404	0.2092	-0.049
Mof_H 	H 	0.2521	0.9359	0.1795	0.083
Mof_C 	C 	0.27013	0.9811	0.2572	0.023
Mof_C 	C 	0.30203	0.9884	0.2985	0.084
Mof_C 	C 	0.33835	0.955	0.2931	-0.055
Mof_H 	H 	0.3602	0.9617	0.3218	0.089
Mof_C 	C 	0.49073	0.8327	0.5197	0.373
Mof_C 	C 	0.48434	0.809	0.589	-0.074
Mof_C 	C 	0.45068	0.8288	0.6268	-0.046
Mof_H 	H 	0.4328	0.858	0.6104	0.083
Mof_C 	C 	0.4447	0.8041	0.6886	0.074
Mof_C 	C 	0.4719	0.7627	0.7163	0.021
Mof_C 	C 	0.50518	0.745	0.6774	-0.076
Mof_H 	H 	0.5243	0.7177	0.6943	0.085
Mof_C 	C 	0.51035	0.7671	0.6145	0.017
Mof_H 	H 	0.5321	0.7531	0.5889	0.062
Mof_C 	C 	0.4956	0.8341	0.1455	0.364
Mof_C 	C 	0.50104	0.8572	0.0764	-0.071
Mof_C 	C 	0.4726	0.8966	0.0508	0.011
Mof_H 	H 	0.45	0.9081	0.076	0.067
Mof_C 	C 	0.4775	0.9196	0.9872	-0.071
Mof_H 	H 	0.4582	0.9469	0.9709	0.085
Mof_C 	C 	0.51027	0.9028	0.9478	0.021
Mof_C 	C 	0.53843	0.863	0.9764	0.074
Mof_C 	C 	0.53446	0.8404	0.039	-0.045
Mof_H 	H 	0.5541	0.814	0.0559	0.086
Mof_C 	C 	0.51047	0.9275	0.8795	0.021
Mof_C 	C 	0.4755	0.914	0.8396	-0.078
Mof_H 	H 	0.4554	0.8882	0.8561	0.086
Mof_C 	C 	0.47052	0.9379	0.7777	0.02
Mof_H 	H 	0.4472	0.928	0.7534	0.062
Mof_C 	C 	0.49878	0.9756	0.7513	-0.079
Mof_C 	C 	0.49362	0.0019	0.6838	0.369
Mof_C 	C 	0.53383	0.9894	0.7884	-0.046
Mof_H 	H 	0.5539	0.0148	0.771	0.081
Mof_C 	C 	0.5388	0.966	0.8496	0.073
Mof_O 	O 	0.40923	0.95898	0.54915	-0.38
Mof_O 	O 	0.40268	0.92258	0.44579	-0.378
Mof_O 	O 	0.2881	0.9543	0.6955	-0.074
Mof_O 	O 	0.2508	0.8769	0.6817	-0.069
Mof_O 	O 	0.2616	0.7695	0.5959	-0.04
Mof_O 	O 	0.2064	0.7108	0.5615	-0.046
Mof_O 	O 	0.07512	0.80829	0.60139	-0.383
Mof_O 	O 	0.06579	0.90373	0.57349	-0.366
Mof_O 	O 	0.40943	0.89116	0.27362	-0.394
Mof_O 	O 	0.37923	0.8304	0.2008	-0.267
Mof_O 	O 	0.3272	0.0382	0.3921	-0.103
Mof_O 	O 	0.2825	0.0851	0.3408	-0.069
Mof_O 	O 	0.50751	0.79652	0.48034	-0.402
Mof_O 	O 	0.47946	0.88505	0.50656	-0.45
Mof_O 	O 	0.40496	0.8154	0.7826	-0.089
Mof_O 	O 	0.38188	0.8506	0.6939	-0.087
Mof_O 	O 	0.51429	0.78665	0.16049	-0.472
Mof_O 	O 	0.47273	0.8647	0.18315	-0.405
Mof_O 	O 	0.6045	0.8228	0.9719	-0.085
Mof_O 	O 	0.57618	0.8472	0.8798	-0.096
Mof_O 	O 	0.57968	0.9775	0.9455	-0.096
Mof_O 	O 	0.60574	0.0008	0.8539	-0.095
Mof_O 	O 	0.51482	0.04752	0.67053	-0.467
Mof_O 	O 	0.46902	0.97506	0.64561	-0.392
Mof_O 	O 	0.47331	0.99926	0.45585	-0.632
Mof_H 	H 	0.4566	0.0329	0.4393	0.187
Mof_O 	O 	0.45951	0.84411	0.37369	-0.636
Mof_H 	H 	0.4377	0.8173	0.3897	0.19
Mof_O 	O 	0.51859	0.82652	0.29331	-0.655
Mof_H 	H 	0.5396	0.8556	0.2792	0.186
Mof_O 	O 	0.2713	0.8561	0.3583	-0.058
Mof_O 	O 	0.2347	0.7987	0.4344	-0.031
Mof_N 	N 	0.2752	0.914	0.6604	-0.012
Mof_N 	N 	0.2656	0.8336	0.4176	-0
Mof_N 	N 	0.2247	0.7609	0.5743	0.005
Mof_N 	N 	0.3002	0.0316	0.3533	-0.014
Mof_N 	N 	0.4086	0.8236	0.7243	-0.006
Mof_N 	N 	0.57609	0.8423	0.9402	-0.004
Mof_N 	N 	0.57741	0.9823	0.8845	-0.003
Mof_O 	O 	0.2597	0.7571	0.5524	-0.041
Mof_O 	O 	0.2103	0.7173	0.6147	-0.048
Mof_O 	O 	0.2874	0.8012	0.3678	-0.06
Mof_O 	O 	0.2264	0.8259	0.4234	-0.039
Mof_Cu	Cu	0.46242	0.64568	0.22297	0.917
Mof_Cu	Cu	0.46112	0.57623	0.08648	0.926
Mof_Cu	Cu	0.51624	0.68427	0.11089	0.926
Mof_Cu	Cu	0.46681	0.51451	0.94975	0.934
Mof_C 	C 	0.26425	0.6173	0.9603	-0.038
Mof_C 	C 	0.2891	0.5913	0.9092	0.11
Mof_C 	C 	0.2812	0.6252	0.0208	0.107
Mof_C 	C 	0.32932	0.576	0.921	-0.092
Mof_H 	H 	0.3452	0.5599	0.8872	0.11
Mof_C 	C 	0.34654	0.5842	0.983	-0.008
Mof_C 	C 	0.38991	0.5658	0.9967	0.335
Mof_C 	C 	0.32258	0.6095	0.0321	-0.08
Mof_H 	H 	0.3341	0.6164	0.0734	0.102
Mof_C 	C 	0.201	0.6805	0.9318	0.076
Mof_C 	C 	0.21891	0.6274	0.9476	0.059
Mof_C 	C 	0.1936	0.5778	0.9542	-0.07
Mof_H 	H 	0.2051	0.5409	0.9661	0.083
Mof_C 	C 	0.15141	0.5811	0.9435	0.017
Mof_H 	H 	0.1352	0.5466	0.9468	0.054
Mof_C 	C 	0.13351	0.6365	0.9278	-0.056
Mof_C 	C 	0.1584	0.6862	0.9224	-0.035
Mof_H 	H 	0.1471	0.7237	0.9125	0.095
Mof_C 	C 	0.08807	0.6411	0.917	0.341
Mof_C 	C 	0.37957	0.6272	0.261	0.339
Mof_C 	C 	0.34091	0.5872	0.2547	-0.022
Mof_C 	C 	0.3089	0.596	0.2984	-0.001
Mof_H 	H 	0.3105	0.6249	0.3316	0.075
Mof_C 	C 	0.2737	0.5596	0.2908	-0.049
Mof_H 	H 	0.2521	0.5641	0.3205	0.083
Mof_C 	C 	0.27013	0.5189	0.2428	0.023
Mof_C 	C 	0.30203	0.5116	0.2015	0.084
Mof_C 	C 	0.33835	0.545	0.2069	-0.055
Mof_H 	H 	0.3602	0.5383	0.1782	0.089
Mof_C 	C 	0.49073	0.6673	0.9803	0.373
Mof_C 	C 	0.48434	0.691	0.911	-0.074
Mof_C 	C 	0.45068	0.6712	0.8732	-0.046
Mof_H 	H 	0.4328	0.642	0.8896	0.083
Mof_C 	C 	0.4447	0.6959	0.8114	0.074
Mof_C 	C 	0.4719	0.7373	0.7837	0.021
Mof_C 	C 	0.50518	0.755	0.8226	-0.076
Mof_H 	H 	0.5243	0.7823	0.8057	0.085
Mof_C 	C 	0.51035	0.7329	0.8855	0.017
Mof_H 	H 	0.5321	0.7469	0.9111	0.062
Mof_C 	C 	0.4956	0.6659	0.3545	0.364
Mof_C 	C 	0.50104	0.6428	0.4236	-0.071
Mof_C 	C 	0.4726	0.6034	0.4492	0.011
Mof_H 	H 	0.45	0.5919	0.424	0.067
Mof_C 	C 	0.4775	0.5804	0.5128	-0.071
Mof_H 	H 	0.4582	0.5531	0.5291	0.085
Mof_C 	C 	0.51027	0.5972	0.5522	0.021
Mof_C 	C 	0.53843	0.637	0.5236	0.074
Mof_C 	C 	0.53446	0.6596	0.461	-0.045
Mof_H 	H 	0.5541	0.686	0.4441	0.086
Mof_C 	C 	0.51047	0.5725	0.6205	0.021
Mof_C 	C 	0.4755	0.586	0.6604	-0.078
Mof_H 	H 	0.4554	0.6118	0.6439	0.086
Mof_C 	C 	0.47052	0.5621	0.7223	0.02
Mof_H 	H 	0.4472	0.572	0.7466	0.062
Mof_C 	C 	0.49878	0.5244	0.7487	-0.079
Mof_C 	C 	0.49362	0.4981	0.8162	0.369
Mof_C 	C 	0.53383	0.5106	0.7116	-0.046
Mof_H 	H 	0.5539	0.4852	0.729	0.081
Mof_C 	C 	0.5388	0.534	0.6504	0.073
Mof_O 	O 	0.40923	0.54102	0.95085	-0.38
Mof_O 	O 	0.40268	0.57742	0.05421	-0.378
Mof_O 	O 	0.2881	0.5457	0.8045	-0.074
Mof_O 	O 	0.2508	0.6231	0.8183	-0.069
Mof_O 	O 	0.2616	0.7305	0.9041	-0.04
Mof_O 	O 	0.2064	0.7892	0.9385	-0.046
Mof_O 	O 	0.07512	0.69171	0.89861	-0.383
Mof_O 	O 	0.06579	0.59627	0.92651	-0.366
Mof_O 	O 	0.40943	0.60884	0.22638	-0.394
Mof_O 	O 	0.37923	0.6696	0.2992	-0.267
Mof_O 	O 	0.3272	0.4618	0.1079	-0.103
Mof_O 	O 	0.2825	0.4149	0.1592	-0.069
Mof_O 	O 	0.50751	0.70348	0.01966	-0.402
Mof_O 	O 	0.47946	0.61495	0.99344	-0.45
Mof_O 	O 	0.40496	0.6846	0.7174	-0.089
Mof_O 	O 	0.38188	0.6494	0.8061	-0.087
Mof_O 	O 	0.51429	0.71335	0.33951	-0.472
Mof_O 	O 	0.47273	0.6353	0.31685	-0.405
Mof_O 	O 	0.6045	0.6772	0.5281	-0.085
Mof_O 	O 	0.57618	0.6528	0.6202	-0.096
Mof_O 	O 	0.57968	0.5225	0.5545	-0.096
Mof_O 	O 	0.60574	0.4992	0.6461	-0.095
Mof_O 	O 	0.51482	0.45248	0.82947	-0.467
Mof_O 	O 	0.46902	0.52494	0.85439	-0.392
Mof_O 	O 	0.47331	0.50074	0.04415	-0.632
Mof_H 	H 	0.4566	0.4671	0.0607	0.187
Mof_O 	O 	0.45951	0.65589	0.12631	-0.636
Mof_H 	H 	0.4377	0.6827	0.1103	0.19
Mof_O 	O 	0.51859	0.67348	0.20669	-0.655
Mof_H 	H 	0.5396	0.6444	0.2208	0.186
Mof_O 	O 	0.2713	0.6439	0.1417	-0.058
Mof_O 	O 	0.2347	0.7013	0.0656	-0.031
Mof_N 	N 	0.2752	0.586	0.8396	-0.012
Mof_N 	N 	0.2656	0.6664	0.0824	-0
Mof_N 	N 	0.2247	0.7391	0.9257	0.005
Mof_N 	N 	0.3002	0.4684	0.1467	-0.014
Mof_N 	N 	0.4086	0.6764	0.7757	-0.006
Mof_N 	N 	0.57609	0.6577	0.5598	-0.004
Mof_N 	N 	0.57741	0.5177	0.6155	-0.003
Mof_O 	O 	0.2597	0.7429	0.9476	-0.041
Mof_O 	O 	0.2103	0.7827	0.8853	-0.048
Mof_O 	O 	0.2874	0.6988	0.1322	-0.06
Mof_O 	O 	0.2264	0.6741	0.0766	-0.039
Mof_Cu	Cu	0.03758	0.35432	0.22297	0.917
Mof_Cu	Cu	0.03888	0.42377	0.08648	0.926
Mof_Cu	Cu	0.98376	0.31573	0.11089	0.926
Mof_Cu	Cu	0.03319	0.48549	0.94975	0.934
Mof_C 	C 	0.23575	0.3827	0.9603	-0.038
Mof_C 	C 	0.2109	0.4087	0.9092	0.11
Mof_C 	C 	0.2188	0.3748	0.0208	0.107
Mof_C 	C 	0.17068	0.424	0.921	-0.092
Mof_H 	H 	0.1548	0.4401	0.8872	0.11
Mof_C 	C 	0.15346	0.4158	0.983	-0.008
Mof_C 	C 	0.11009	0.4342	0.9967	0.335
Mof_C 	C 	0.17742	0.3905	0.0321	-0.08
Mof_H 	H 	0.1659	0.3836	0.0734	0.102
Mof_C 	C 	0.299	0.3195	0.9318	0.076
Mof_C 	C 	0.28109	0.3726	0.9476	0.059
Mof_C 	C 	0.3064	0.4222	0.9542	-0.07
Mof_H 	H 	0.2949	0.4591	0.9661	0.083
Mof_C 	C 	0.34859	0.4189	0.9435	0.017
Mof_H 	H 	0.3648	0.4534	0.9468	0.054
Mof_C 	C 	0.36649	0.3635	0.9278	-0.056
Mof_C 	C 	0.3416	0.3138	0.9224	-0.035
Mof_H 	H 	0.3529	0.2763	0.9125	0.095
Mof_C 	C 	0.41193	0.3589	0.917	0.341
Mof_C 	C 	0.12043	0.3728	0.261	0.339
Mof_C 	C 	0.15909	0.4128	0.2547	-0.022
Mof_C 	C 	0.1911	0.404	0.2984	-0.001
Mof_H 	H 	0.1895	0.3751	0.3316	0.075
Mof_C 	C 	0.2263	0.4404	0.2908	-0.049
Mof_H 	H 	0.2479	0.4359	0.3205	0.083
Mof_C 	C 	0.22987	0.4811	0.2428	0.023
Mof_C 	C 	0.19797	0.4884	0.2015	0.084
Mof_C 	C 	0.16165	0.455	0.2069	-0.055
Mof_H 	H 	0.1398	0.4617	0.1782	0.089
Mof_C 	C 	0.00927	0.3327	0.9803	0.373
Mof_C 	C 	0.01566	0.309	0.911	-0.075
Mof_C 	C 	0.04932	0.3288	0.8732	-0.046
Mof_H 	H 	0.0672	0.358	0.8896	0.083
Mof_C 	C 	0.0553	0.3041	0.8114	0.074
Mof_C 	C 	0.0281	0.2627	0.7837	0.021
Mof_C 	C 	0.99482	0.245	0.8226	-0.076
Mof_H 	H 	0.9757	0.2177	0.8057	0.085
Mof_C 	C 	0.98965	0.2671	0.8855	0.018
Mof_H 	H 	0.9679	0.2531	0.9111	0.062
Mof_C 	C 	0.0044	0.3341	0.3545	0.365
Mof_C 	C 	0.99896	0.3572	0.4236	-0.071
Mof_C 	C 	0.0274	0.3966	0.4492	0.011
Mof_H 	H 	0.05	0.4081	0.424	0.067
Mof_C 	C 	0.0225	0.4196	0.5128	-0.071
Mof_H 	H 	0.0418	0.4469	0.5291	0.085
Mof_C 	C 	0.98973	0.4028	0.5522	0.021
Mof_C 	C 	0.96157	0.363	0.5236	0.074
Mof_C 	C 	0.96554	0.3404	0.461	-0.045
Mof_H 	H 	0.9459	0.314	0.4441	0.086
Mof_C 	C 	0.98953	0.4275	0.6205	0.022
Mof_C 	C 	0.0245	0.414	0.6604	-0.078
Mof_H 	H 	0.0446	0.3882	0.6439	0.086
Mof_C 	C 	0.02948	0.4379	0.7223	0.02
Mof_H 	H 	0.0528	0.428	0.7466	0.062
Mof_C 	C 	0.00122	0.4756	0.7487	-0.079
Mof_C 	C 	0.00638	0.5019	0.8162	0.369
Mof_C 	C 	0.96617	0.4894	0.7116	-0.046
Mof_H 	H 	0.9461	0.5148	0.729	0.081
Mof_C 	C 	0.9612	0.466	0.6504	0.073
Mof_O 	O 	0.09077	0.45898	0.95085	-0.38
Mof_O 	O 	0.09732	0.42258	0.05421	-0.378
Mof_O 	O 	0.2119	0.4543	0.8045	-0.074
Mof_O 	O 	0.2492	0.3769	0.8183	-0.069
Mof_O 	O 	0.2384	0.2695	0.9041	-0.04
Mof_O 	O 	0.2936	0.2108	0.9385	-0.046
Mof_O 	O 	0.42488	0.30829	0.89861	-0.383
Mof_O 	O 	0.43421	0.40373	0.92651	-0.366
Mof_O 	O 	0.09057	0.39116	0.22638	-0.394
Mof_O 	O 	0.12077	0.3304	0.2992	-0.267
Mof_O 	O 	0.1728	0.5382	0.1079	-0.103
Mof_O 	O 	0.2175	0.5851	0.1592	-0.069
Mof_O 	O 	0.99249	0.29652	0.01966	-0.402
Mof_O 	O 	0.02054	0.38505	0.99344	-0.45
Mof_O 	O 	0.09504	0.3154	0.7174	-0.089
Mof_O 	O 	0.11812	0.3506	0.8061	-0.087
Mof_O 	O 	0.98571	0.28665	0.33951	-0.472
Mof_O 	O 	0.02727	0.3647	0.31685	-0.405
Mof_O 	O 	0.8955	0.3228	0.5281	-0.085
Mof_O 	O 	0.92382	0.3472	0.6202	-0.096
Mof_O 	O 	0.92032	0.4775	0.5545	-0.096
Mof_O 	O 	0.89426	0.5008	0.6461	-0.095
Mof_O 	O 	0.98518	0.54752	0.82947	-0.467
Mof_O 	O 	0.03098	0.47506	0.85439	-0.392
Mof_O 	O 	0.02669	0.49926	0.04415	-0.632
Mof_H 	H 	0.0434	0.5329	0.0607	0.187
Mof_O 	O 	0.04049	0.34411	0.12631	-0.635
Mof_H 	H 	0.0623	0.3173	0.1103	0.19
Mof_O 	O 	0.98141	0.32652	0.20669	-0.655
Mof_H 	H 	0.9604	0.3556	0.2208	0.186
Mof_O 	O 	0.2287	0.3561	0.1417	-0.058
Mof_O 	O 	0.2653	0.2987	0.0656	-0.031
Mof_N 	N 	0.2248	0.414	0.8396	-0.012
Mof_N 	N 	0.2344	0.3336	0.0824	-0
Mof_N 	N 	0.2753	0.2609	0.9257	0.005
Mof_N 	N 	0.1998	0.5316	0.1467	-0.014
Mof_N 	N 	0.0914	0.3236	0.7757	-0.006
Mof_N 	N 	0.92391	0.3423	0.5598	-0.004
Mof_N 	N 	0.92259	0.4823	0.6155	-0.003
Mof_O 	O 	0.2403	0.2571	0.9476	-0.041
Mof_O 	O 	0.2897	0.2173	0.8853	-0.048
Mof_O 	O 	0.2126	0.3012	0.1322	-0.06
Mof_O 	O 	0.2736	0.3259	0.0766	-0.039
Mof_Cu	Cu	0.02288	0.75	0.75	0.896
Mof_Cu	Cu	0.47712	0.25	0.75	0.896
Mof_Cu	Cu	0.97712	0.25	0.25	0.896
Mof_Cu	Cu	0.52288	0.75	0.25	0.896
_end
