data_functionalizedCrystal
_audit_creation_method	'EQeq! by Chris Wilmer'
_symmetry_space_group_name_H-M	'P1'
_symmetry_Int_Tables_number	1
_symmetry_cell_setting	triclinic
loop_
_symmetry_equiv_pos_as_xyz
  x,y,z
_cell_length_a	11.6164
_cell_length_b	16.3416
_cell_length_c	24.198
_cell_angle_alpha	90
_cell_angle_beta	99.02
_cell_angle_gamma	90
loop_
_atom_site_label
_atom_site_type_symbol
_atom_site_fract_x
_atom_site_fract_y
_atom_site_fract_z
_atom_site_charge
Mof_Co	Co	0.75508	0.64948	0.26112	1.147
Mof_Co	Co	0.627	0.50288	0.48782	1.09
Mof_C 	C 	0.0433	0.5139	0.3423	-0.01
Mof_H 	H 	0.1236	0.507	0.3505	0.038
Mof_C 	C 	0.9614	0.4637	0.35911	0.057
Mof_C 	C 	0.8544	0.4995	0.3369	-0.02
Mof_H 	H 	0.782	0.4789	0.3417	0.04
Mof_C 	C 	0.9808	0.3848	0.3912	-0.244
Mof_H 	H 	0.0598	0.3835	0.4114	0.108
Mof_H 	H 	0.9277	0.3819	0.4183	0.11
Mof_C 	C 	0.9616	0.3124	0.3526	0.063
Mof_C 	C 	0.0401	0.2715	0.3275	-0.008
Mof_H 	H 	0.1203	0.28	0.3335	0.036
Mof_C 	C 	0.8562	0.2803	0.3272	-0.019
Mof_H 	H 	0.7842	0.2984	0.3344	0.049
Mof_C 	C 	0.7859	0.7971	0.3461	-0.014
Mof_H 	H 	0.8526	0.8166	0.3338	0.034
Mof_C 	C 	0.73	0.8362	0.3863	0.05
Mof_C 	C 	0.6378	0.787	0.3915	-0
Mof_H 	H 	0.5828	0.7963	0.4148	0.035
Mof_C 	C 	0.7649	0.9146	0.4176	-0.221
Mof_H 	H 	0.8484	0.9141	0.43	0.091
Mof_H 	H 	0.7272	0.9169	0.4506	0.095
Mof_C 	C 	0.7332	0.9905	0.3829	0.057
Mof_C 	C 	0.7582	0.0089	0.3293	-0.019
Mof_H 	H 	0.7965	0.9733	0.3083	0.042
Mof_C 	C 	0.6774	0.0593	0.397	-0.005
Mof_H 	H 	0.6491	0.0676	0.4304	0.038
Mof_C 	C 	0.8132	0.2805	0.486	-0.006
Mof_H 	H 	0.8175	0.2255	0.4768	0.036
Mof_C 	C 	0.891	0.3224	0.5245	0.045
Mof_C 	C 	0.8475	0.4017	0.5225	-0.023
Mof_H 	H 	0.8827	0.4447	0.544	0.03
Mof_C 	C 	0.0034	0.2906	0.5582	-0.217
Mof_H 	H 	0.0086	0.3084	0.5967	0.096
Mof_H 	H 	0.0028	0.2312	0.5578	0.091
Mof_C 	C 	0.1079	0.3212	0.5345	0.049
Mof_C 	C 	0.1633	0.3962	0.5434	-0.019
Mof_H 	H 	0.1419	0.4364	0.567	0.028
Mof_C 	C 	0.1669	0.2822	0.4969	-0.005
Mof_H 	H 	0.151	0.2301	0.4822	0.033
Mof_C 	C 	0.5241	0.5555	0.2902	0.3
Mof_C 	C 	0.4601	0.4734	0.2883	-0.073
Mof_H 	H 	0.4075	0.4735	0.2524	0.058
Mof_C 	C 	0.5372	0.3977	0.286	-0.078
Mof_H 	H 	0.5911	0.3924	0.3207	0.08
Mof_H 	H 	0.582	0.403	0.2555	0.063
Mof_C 	C 	0.458	0.3216	0.2768	-0.095
Mof_H 	H 	0.4004	0.3337	0.2437	0.065
Mof_C 	C 	0.3885	0.3116	0.3249	-0.106
Mof_H 	H 	0.3362	0.2649	0.3154	0.077
Mof_C 	C 	0.3103	0.387	0.3272	-0.046
Mof_H 	H 	0.2684	0.3815	0.3587	0.053
Mof_H 	H 	0.2531	0.3889	0.2934	0.046
Mof_C 	C 	0.3788	0.4683	0.3329	-0.134
Mof_H 	H 	0.3209	0.5117	0.3238	0.086
Mof_C 	C 	0.4665	0.2898	0.38	0.314
Mof_C 	C 	0.4331	0.482	0.3938	0.384
Mof_C 	C 	0.5151	0.2411	0.264	0.337
Mof_O 	O 	0.6236	0.5585	0.27578	-0.389
Mof_O 	O 	0.4483	0.1787	0.26018	-0.277
Mof_O 	O 	0.6179	0.23886	0.25623	-0.405
Mof_O 	O 	0.5419	0.48702	0.40718	-0.474
Mof_O 	O 	0.3593	0.4873	0.42672	-0.487
Mof_O 	O 	0.4245	0.2977	0.42464	-0.287
Mof_O 	O 	0.5679	0.2652	0.37831	-0.271
Mof_N 	N 	0.8699	0.5669	0.30812	-0.178
Mof_N 	N 	0.9876	0.5749	0.3119	-0.16
Mof_H 	H 	0.0217	0.6139	0.2969	0.134
Mof_N 	N 	0.8693	0.2208	0.2912	-0.169
Mof_N 	N 	0.9819	0.216	0.2919	-0.153
Mof_H 	H 	0.0149	0.1819	0.2723	0.124
Mof_N 	N 	0.7309	0.7286	0.32796	-0.176
Mof_N 	N 	0.64	0.7229	0.35707	-0.156
Mof_H 	H 	0.5905	0.6834	0.3538	0.124
Mof_N 	N 	0.7209	0.0824	0.31218	-0.167
Mof_N 	N 	0.6703	0.1132	0.35425	-0.154
Mof_H 	H 	0.638	0.1606	0.3539	0.14
Mof_N 	N 	0.7494	0.4088	0.48609	-0.192
Mof_N 	N 	0.7298	0.3332	0.46396	-0.161
Mof_H 	H 	0.6714	0.3205	0.439	0.13
Mof_N 	N 	0.2513	0.4041	0.51408	-0.194
Mof_N 	N 	0.2514	0.3325	0.48537	-0.162
Mof_H 	H 	0.2994	0.321	0.4628	0.128
Mof_O 	O 	0.4748	0.6196	0.3092	-0.178
Mof_O 	O 	0.4604	0.6167	0.2911	-0.082
Mof_Co	Co	0.74492	0.14948	0.23888	1.147
Mof_Co	Co	0.873	0.00288	0.01218	1.088
Mof_C 	C 	0.4567	0.0139	0.1577	-0.014
Mof_H 	H 	0.3764	0.007	0.1495	0.04
Mof_C 	C 	0.5386	0.9637	0.14089	0.062
Mof_C 	C 	0.6456	0.9995	0.1631	-0.016
Mof_H 	H 	0.718	0.9789	0.1583	0.041
Mof_C 	C 	0.5192	0.8848	0.1088	-0.247
Mof_H 	H 	0.4402	0.8835	0.0886	0.109
Mof_H 	H 	0.5723	0.8819	0.0817	0.112
Mof_C 	C 	0.5384	0.8124	0.1474	0.068
Mof_C 	C 	0.4599	0.7715	0.1725	-0.014
Mof_H 	H 	0.3797	0.78	0.1665	0.038
Mof_C 	C 	0.6438	0.7803	0.1728	-0.021
Mof_H 	H 	0.7158	0.7984	0.1656	0.05
Mof_C 	C 	0.7141	0.2971	0.1539	-0.013
Mof_H 	H 	0.6474	0.3166	0.1662	0.033
Mof_C 	C 	0.77	0.3362	0.1137	0.047
Mof_C 	C 	0.8622	0.287	0.1085	0.001
Mof_H 	H 	0.9172	0.2963	0.0852	0.034
Mof_C 	C 	0.7351	0.4146	0.0824	-0.213
Mof_H 	H 	0.6516	0.4141	0.07	0.088
Mof_H 	H 	0.7728	0.4169	0.0494	0.092
Mof_C 	C 	0.7668	0.4905	0.1171	0.045
Mof_C 	C 	0.7418	0.5089	0.1707	-0.005
Mof_H 	H 	0.7035	0.4733	0.1917	0.035
Mof_C 	C 	0.8226	0.5593	0.103	0.002
Mof_H 	H 	0.8509	0.5676	0.0696	0.036
Mof_C 	C 	0.6868	0.7805	0.014	-0.002
Mof_H 	H 	0.6825	0.7255	0.0232	0.036
Mof_C 	C 	0.609	0.8224	0.9755	0.043
Mof_C 	C 	0.6525	0.9017	0.9775	-0.026
Mof_H 	H 	0.6173	0.9447	0.956	0.03
Mof_C 	C 	0.4966	0.7906	0.9418	-0.215
Mof_H 	H 	0.4914	0.8084	0.9033	0.095
Mof_H 	H 	0.4972	0.7312	0.9422	0.089
Mof_C 	C 	0.3921	0.8212	0.9655	0.044
Mof_C 	C 	0.3367	0.8962	0.9566	-0.017
Mof_H 	H 	0.3581	0.9364	0.933	0.027
Mof_C 	C 	0.3331	0.7822	0.0031	-0
Mof_H 	H 	0.349	0.7301	0.0178	0.032
Mof_C 	C 	0.9759	0.0555	0.2098	0.294
Mof_C 	C 	0.0399	0.9734	0.2117	-0.075
Mof_H 	H 	0.0925	0.9735	0.2476	0.058
Mof_C 	C 	0.9628	0.8977	0.214	-0.071
Mof_H 	H 	0.9089	0.8924	0.1793	0.078
Mof_H 	H 	0.918	0.903	0.2445	0.062
Mof_C 	C 	0.042	0.8216	0.2232	-0.102
Mof_H 	H 	0.0996	0.8337	0.2563	0.066
Mof_C 	C 	0.1115	0.8116	0.1751	-0.103
Mof_H 	H 	0.1638	0.7649	0.1846	0.076
Mof_C 	C 	0.1897	0.887	0.1728	-0.049
Mof_H 	H 	0.2316	0.8815	0.1413	0.054
Mof_H 	H 	0.2469	0.8889	0.2066	0.047
Mof_C 	C 	0.1212	0.9683	0.1671	-0.131
Mof_H 	H 	0.1791	0.0117	0.1762	0.085
Mof_C 	C 	0.0335	0.7898	0.12	0.311
Mof_C 	C 	0.0669	0.982	0.1062	0.379
Mof_C 	C 	0.9849	0.7411	0.236	0.341
Mof_O 	O 	0.8764	0.0585	0.22422	-0.39
Mof_O 	O 	0.0517	0.6787	0.23982	-0.278
Mof_O 	O 	0.8821	0.73886	0.24377	-0.405
Mof_O 	O 	0.9581	0.98702	0.09282	-0.468
Mof_O 	O 	0.1407	0.9873	0.07328	-0.484
Mof_O 	O 	0.0755	0.7977	0.07536	-0.286
Mof_O 	O 	0.9321	0.7652	0.12169	-0.269
Mof_N 	N 	0.6301	0.0669	0.19188	-0.18
Mof_N 	N 	0.5124	0.0749	0.1881	-0.159
Mof_H 	H 	0.4783	0.1139	0.2031	0.135
Mof_N 	N 	0.6307	0.7208	0.2088	-0.169
Mof_N 	N 	0.5181	0.716	0.2081	-0.149
Mof_H 	H 	0.4851	0.6819	0.2277	0.122
Mof_N 	N 	0.7691	0.2286	0.17204	-0.177
Mof_N 	N 	0.86	0.2229	0.14293	-0.156
Mof_H 	H 	0.9095	0.1834	0.1462	0.123
Mof_N 	N 	0.7791	0.5824	0.18782	-0.169
Mof_N 	N 	0.8297	0.6132	0.14575	-0.156
Mof_H 	H 	0.862	0.6606	0.1461	0.14
Mof_N 	N 	0.7506	0.9088	0.01391	-0.189
Mof_N 	N 	0.7702	0.8332	0.03604	-0.161
Mof_H 	H 	0.8286	0.8205	0.061	0.131
Mof_N 	N 	0.2487	0.9041	0.98592	-0.197
Mof_N 	N 	0.2486	0.8325	0.01463	-0.161
Mof_H 	H 	0.2006	0.821	0.0372	0.128
Mof_O 	O 	0.0252	0.1196	0.1908	-0.176
Mof_O 	O 	0.0396	0.1167	0.2089	-0.081
Mof_Co	Co	0.24492	0.35052	0.73888	1.148
Mof_Co	Co	0.373	0.49712	0.51218	1.091
Mof_C 	C 	0.9567	0.4861	0.6577	-0.009
Mof_H 	H 	0.8764	0.493	0.6495	0.039
Mof_C 	C 	0.0386	0.5363	0.64089	0.058
Mof_C 	C 	0.1456	0.5005	0.6631	-0.019
Mof_H 	H 	0.218	0.5211	0.6583	0.04
Mof_C 	C 	0.0192	0.6152	0.6088	-0.244
Mof_H 	H 	0.9402	0.6165	0.5886	0.108
Mof_H 	H 	0.0723	0.6181	0.5817	0.11
Mof_C 	C 	0.0384	0.6876	0.6474	0.063
Mof_C 	C 	0.9599	0.7285	0.6725	-0.008
Mof_H 	H 	0.8797	0.72	0.6665	0.036
Mof_C 	C 	0.1438	0.7197	0.6728	-0.019
Mof_H 	H 	0.2158	0.7016	0.6656	0.049
Mof_C 	C 	0.2141	0.2029	0.6539	-0.014
Mof_H 	H 	0.1474	0.1834	0.6662	0.034
Mof_C 	C 	0.27	0.1638	0.6137	0.05
Mof_C 	C 	0.3622	0.213	0.6085	-0
Mof_H 	H 	0.4172	0.2037	0.5852	0.035
Mof_C 	C 	0.2351	0.0854	0.5824	-0.221
Mof_H 	H 	0.1516	0.0859	0.57	0.091
Mof_H 	H 	0.2728	0.0831	0.5494	0.095
Mof_C 	C 	0.2668	0.0095	0.6171	0.057
Mof_C 	C 	0.2418	0.9911	0.6707	-0.019
Mof_H 	H 	0.2035	0.0267	0.6917	0.042
Mof_C 	C 	0.3226	0.9407	0.603	-0.005
Mof_H 	H 	0.3509	0.9324	0.5696	0.038
Mof_C 	C 	0.1868	0.7195	0.514	-0.006
Mof_H 	H 	0.1825	0.7745	0.5232	0.036
Mof_C 	C 	0.109	0.6776	0.4755	0.045
Mof_C 	C 	0.1525	0.5983	0.4775	-0.023
Mof_H 	H 	0.1173	0.5553	0.456	0.03
Mof_C 	C 	0.9966	0.7094	0.4418	-0.217
Mof_H 	H 	0.9914	0.6916	0.4033	0.096
Mof_H 	H 	0.9972	0.7688	0.4422	0.091
Mof_C 	C 	0.8921	0.6788	0.4655	0.049
Mof_C 	C 	0.8367	0.6038	0.4566	-0.019
Mof_H 	H 	0.8581	0.5636	0.433	0.028
Mof_C 	C 	0.8331	0.7178	0.5031	-0.005
Mof_H 	H 	0.849	0.7699	0.5178	0.033
Mof_C 	C 	0.4759	0.4445	0.7098	0.3
Mof_C 	C 	0.5399	0.5266	0.7117	-0.073
Mof_H 	H 	0.5925	0.5265	0.7476	0.058
Mof_C 	C 	0.4628	0.6023	0.714	-0.078
Mof_H 	H 	0.4089	0.6076	0.6793	0.08
Mof_H 	H 	0.418	0.597	0.7445	0.063
Mof_C 	C 	0.542	0.6784	0.7232	-0.095
Mof_H 	H 	0.5996	0.6663	0.7563	0.065
Mof_C 	C 	0.6115	0.6884	0.6751	-0.106
Mof_H 	H 	0.6638	0.7351	0.6846	0.077
Mof_C 	C 	0.6897	0.613	0.6728	-0.046
Mof_H 	H 	0.7316	0.6185	0.6413	0.053
Mof_H 	H 	0.7469	0.6111	0.7066	0.046
Mof_C 	C 	0.6212	0.5317	0.6671	-0.134
Mof_H 	H 	0.6791	0.4883	0.6762	0.086
Mof_C 	C 	0.5335	0.7102	0.62	0.314
Mof_C 	C 	0.5669	0.518	0.6062	0.384
Mof_C 	C 	0.4849	0.7589	0.736	0.337
Mof_O 	O 	0.3764	0.4415	0.72422	-0.389
Mof_O 	O 	0.5517	0.8213	0.73982	-0.277
Mof_O 	O 	0.3821	0.76114	0.74377	-0.405
Mof_O 	O 	0.4581	0.51298	0.59282	-0.474
Mof_O 	O 	0.6407	0.5127	0.57328	-0.487
Mof_O 	O 	0.5755	0.7023	0.57536	-0.287
Mof_O 	O 	0.4321	0.7348	0.62169	-0.271
Mof_N 	N 	0.1301	0.4331	0.69188	-0.178
Mof_N 	N 	0.0124	0.4251	0.6881	-0.16
Mof_H 	H 	0.9783	0.3861	0.7031	0.134
Mof_N 	N 	0.1307	0.7792	0.7088	-0.169
Mof_N 	N 	0.0181	0.784	0.7081	-0.153
Mof_H 	H 	0.9851	0.8181	0.7277	0.124
Mof_N 	N 	0.2691	0.2714	0.67204	-0.176
Mof_N 	N 	0.36	0.2771	0.64293	-0.156
Mof_H 	H 	0.4095	0.3166	0.6462	0.124
Mof_N 	N 	0.2791	0.9176	0.68782	-0.167
Mof_N 	N 	0.3297	0.8868	0.64575	-0.154
Mof_H 	H 	0.362	0.8394	0.6461	0.14
Mof_N 	N 	0.2506	0.5912	0.51391	-0.192
Mof_N 	N 	0.2702	0.6668	0.53604	-0.161
Mof_H 	H 	0.3286	0.6795	0.561	0.13
Mof_N 	N 	0.7487	0.5959	0.48592	-0.194
Mof_N 	N 	0.7486	0.6675	0.51463	-0.162
Mof_H 	H 	0.7006	0.679	0.5372	0.128
Mof_O 	O 	0.5252	0.3804	0.6908	-0.178
Mof_O 	O 	0.5396	0.3833	0.7089	-0.082
Mof_Co	Co	0.25508	0.85052	0.76112	1.147
Mof_Co	Co	0.127	0.99712	0.98782	1.088
Mof_C 	C 	0.5433	0.9861	0.8423	-0.014
Mof_H 	H 	0.6236	0.993	0.8505	0.04
Mof_C 	C 	0.4614	0.0363	0.85911	0.062
Mof_C 	C 	0.3544	0.0005	0.8369	-0.016
Mof_H 	H 	0.282	0.0211	0.8417	0.041
Mof_C 	C 	0.4808	0.1152	0.8912	-0.247
Mof_H 	H 	0.5598	0.1165	0.9114	0.109
Mof_H 	H 	0.4277	0.1181	0.9183	0.112
Mof_C 	C 	0.4616	0.1876	0.8526	0.068
Mof_C 	C 	0.5401	0.2285	0.8275	-0.014
Mof_H 	H 	0.6203	0.22	0.8335	0.038
Mof_C 	C 	0.3562	0.2197	0.8272	-0.021
Mof_H 	H 	0.2842	0.2016	0.8344	0.05
Mof_C 	C 	0.2859	0.7029	0.8461	-0.013
Mof_H 	H 	0.3526	0.6834	0.8338	0.033
Mof_C 	C 	0.23	0.6638	0.8863	0.047
Mof_C 	C 	0.1378	0.713	0.8915	0.001
Mof_H 	H 	0.0828	0.7037	0.9148	0.034
Mof_C 	C 	0.2649	0.5854	0.9176	-0.213
Mof_H 	H 	0.3484	0.5859	0.93	0.088
Mof_H 	H 	0.2272	0.5831	0.9506	0.092
Mof_C 	C 	0.2332	0.5095	0.8829	0.045
Mof_C 	C 	0.2582	0.4911	0.8293	-0.005
Mof_H 	H 	0.2965	0.5267	0.8083	0.035
Mof_C 	C 	0.1774	0.4407	0.897	0.002
Mof_H 	H 	0.1491	0.4324	0.9304	0.036
Mof_C 	C 	0.3132	0.2195	0.986	-0.002
Mof_H 	H 	0.3175	0.2745	0.9768	0.036
Mof_C 	C 	0.391	0.1776	0.0245	0.043
Mof_C 	C 	0.3475	0.0983	0.0225	-0.026
Mof_H 	H 	0.3827	0.0553	0.044	0.03
Mof_C 	C 	0.5034	0.2094	0.0582	-0.215
Mof_H 	H 	0.5086	0.1916	0.0967	0.095
Mof_H 	H 	0.5028	0.2688	0.0578	0.089
Mof_C 	C 	0.6079	0.1788	0.0345	0.044
Mof_C 	C 	0.6633	0.1038	0.0434	-0.017
Mof_H 	H 	0.6419	0.0636	0.067	0.027
Mof_C 	C 	0.6669	0.2178	0.9969	-0
Mof_H 	H 	0.651	0.2699	0.9822	0.032
Mof_C 	C 	0.0241	0.9445	0.7902	0.294
Mof_C 	C 	0.9601	0.0266	0.7883	-0.075
Mof_H 	H 	0.9075	0.0265	0.7524	0.058
Mof_C 	C 	0.0372	0.1023	0.786	-0.071
Mof_H 	H 	0.0911	0.1076	0.8207	0.078
Mof_H 	H 	0.082	0.097	0.7555	0.062
Mof_C 	C 	0.958	0.1784	0.7768	-0.102
Mof_H 	H 	0.9004	0.1663	0.7437	0.066
Mof_C 	C 	0.8885	0.1884	0.8249	-0.103
Mof_H 	H 	0.8362	0.2351	0.8154	0.076
Mof_C 	C 	0.8103	0.113	0.8272	-0.049
Mof_H 	H 	0.7684	0.1185	0.8587	0.054
Mof_H 	H 	0.7531	0.1111	0.7934	0.047
Mof_C 	C 	0.8788	0.0317	0.8329	-0.131
Mof_H 	H 	0.8209	0.9883	0.8238	0.085
Mof_C 	C 	0.9665	0.2102	0.88	0.311
Mof_C 	C 	0.9331	0.018	0.8938	0.379
Mof_C 	C 	0.0151	0.2589	0.764	0.341
Mof_O 	O 	0.1236	0.9415	0.77578	-0.39
Mof_O 	O 	0.9483	0.3213	0.76018	-0.278
Mof_O 	O 	0.1179	0.26114	0.75623	-0.405
Mof_O 	O 	0.0419	0.01298	0.90718	-0.468
Mof_O 	O 	0.8593	0.0127	0.92672	-0.484
Mof_O 	O 	0.9245	0.2023	0.92464	-0.286
Mof_O 	O 	0.0679	0.2348	0.87831	-0.269
Mof_N 	N 	0.3699	0.9331	0.80812	-0.18
Mof_N 	N 	0.4876	0.9251	0.8119	-0.159
Mof_H 	H 	0.5217	0.8861	0.7969	0.135
Mof_N 	N 	0.3693	0.2792	0.7912	-0.169
Mof_N 	N 	0.4819	0.284	0.7919	-0.149
Mof_H 	H 	0.5149	0.3181	0.7723	0.122
Mof_N 	N 	0.2309	0.7714	0.82796	-0.177
Mof_N 	N 	0.14	0.7771	0.85707	-0.156
Mof_H 	H 	0.0905	0.8166	0.8538	0.123
Mof_N 	N 	0.2209	0.4176	0.81218	-0.169
Mof_N 	N 	0.1703	0.3868	0.85425	-0.156
Mof_H 	H 	0.138	0.3394	0.8539	0.14
Mof_N 	N 	0.2494	0.0912	0.98609	-0.189
Mof_N 	N 	0.2298	0.1668	0.96396	-0.161
Mof_H 	H 	0.1714	0.1795	0.939	0.131
Mof_N 	N 	0.7513	0.0959	0.01408	-0.197
Mof_N 	N 	0.7514	0.1675	0.98537	-0.161
Mof_H 	H 	0.7994	0.179	0.9628	0.128
Mof_O 	O 	0.9748	0.8804	0.8092	-0.176
Mof_O 	O 	0.9604	0.8833	0.7911	-0.081
_end
