data_functionalizedCrystal
_audit_creation_method	'EQeq! by Chris Wilmer'
_symmetry_space_group_name_H-M	'P1'
_symmetry_Int_Tables_number	1
_symmetry_cell_setting	triclinic
loop_
_symmetry_equiv_pos_as_xyz
  x,y,z
_cell_length_a	17.058
_cell_length_b	19.073
_cell_length_c	19.073
_cell_angle_alpha	90
_cell_angle_beta	90
_cell_angle_gamma	90
loop_
_atom_site_label
_atom_site_type_symbol
_atom_site_fract_x
_atom_site_fract_y
_atom_site_fract_z
_atom_site_charge
Mof_Zn	Zn	0.82358	0.88612	0.33491	1.17
Mof_Zn	Zn	0.82358	0.11388	0.66509	1.17
Mof_Zn	Zn	0.32358	0.16509	0.38612	1.169
Mof_Zn	Zn	0.32358	0.83491	0.61388	1.169
Mof_Zn	Zn	0.67642	0.61388	0.83491	1.17
Mof_Zn	Zn	0.67642	0.38612	0.16509	1.17
Mof_Zn	Zn	0.17642	0.33491	0.88612	1.17
Mof_Zn	Zn	0.17642	0.66509	0.11388	1.17
Mof_Zn	Zn	0.17642	0.11388	0.66509	1.17
Mof_Zn	Zn	0.17642	0.88612	0.33491	1.17
Mof_Zn	Zn	0.67642	0.83491	0.61388	1.17
Mof_Zn	Zn	0.67642	0.16509	0.38612	1.17
Mof_Zn	Zn	0.32358	0.38612	0.16509	1.17
Mof_Zn	Zn	0.32358	0.61388	0.83491	1.17
Mof_Zn	Zn	0.82358	0.66509	0.11388	1.171
Mof_Zn	Zn	0.82358	0.33491	0.88612	1.171
Mof_H 	H 	0.9286	0.7703	0.4063	-0.006
Mof_H 	H 	0.6914	0.8757	0.2151	-0.002
Mof_H 	H 	0.8569	0.0227	0.2378	-0.007
Mof_H 	H 	0.7115	0.7552	0.3659	0.002
Mof_H 	H 	0.7181	0.0029	0.3972	-0.066
Mof_H 	H 	0.9286	0.2297	0.5937	-0.006
Mof_H 	H 	0.6914	0.1243	0.7849	-0.002
Mof_H 	H 	0.8569	0.9773	0.7622	-0.007
Mof_H 	H 	0.7115	0.2448	0.6341	0.002
Mof_H 	H 	0.7181	0.9971	0.6028	-0.066
Mof_H 	H 	0.4286	0.0937	0.2703	-0.004
Mof_H 	H 	0.1914	0.2849	0.3757	-0.003
Mof_H 	H 	0.3569	0.2622	0.5227	-0.008
Mof_H 	H 	0.2115	0.1341	0.2552	0.002
Mof_H 	H 	0.2181	0.1028	0.5029	-0.066
Mof_H 	H 	0.4286	0.9063	0.7297	-0.004
Mof_H 	H 	0.1914	0.7151	0.6243	-0.003
Mof_H 	H 	0.3569	0.7378	0.4773	-0.008
Mof_H 	H 	0.2115	0.8659	0.7448	0.002
Mof_H 	H 	0.2181	0.8972	0.4971	-0.066
Mof_H 	H 	0.5714	0.7297	0.9063	-0.004
Mof_H 	H 	0.8086	0.6243	0.7151	-0.002
Mof_H 	H 	0.6431	0.4773	0.7378	-0.008
Mof_H 	H 	0.7885	0.7448	0.8659	0.002
Mof_H 	H 	0.7819	0.4971	0.8972	-0.066
Mof_H 	H 	0.5714	0.2703	0.0937	-0.004
Mof_H 	H 	0.8086	0.3757	0.2849	-0.002
Mof_H 	H 	0.6431	0.5227	0.2622	-0.008
Mof_H 	H 	0.7885	0.2552	0.1341	0.002
Mof_H 	H 	0.7819	0.5029	0.1028	-0.066
Mof_H 	H 	0.0714	0.4063	0.7703	-0.003
Mof_H 	H 	0.3086	0.2151	0.8757	-0.002
Mof_H 	H 	0.1431	0.2378	0.0227	-0.008
Mof_H 	H 	0.2885	0.3659	0.7552	0.002
Mof_H 	H 	0.2819	0.3972	0.0029	-0.066
Mof_H 	H 	0.0714	0.5937	0.2297	-0.003
Mof_H 	H 	0.3086	0.7849	0.1243	-0.002
Mof_H 	H 	0.1431	0.7622	0.9773	-0.008
Mof_H 	H 	0.2885	0.6341	0.2448	0.002
Mof_H 	H 	0.2819	0.6028	0.9971	-0.066
Mof_H 	H 	0.0714	0.2297	0.5937	-0.003
Mof_H 	H 	0.3086	0.1243	0.7849	-0.002
Mof_H 	H 	0.1431	0.9773	0.7622	-0.008
Mof_H 	H 	0.2885	0.2448	0.6341	0.002
Mof_H 	H 	0.2819	0.9971	0.6028	-0.066
Mof_H 	H 	0.0714	0.7703	0.4063	-0.003
Mof_H 	H 	0.3086	0.8757	0.2151	-0.002
Mof_H 	H 	0.1431	0.0227	0.2378	-0.008
Mof_H 	H 	0.2885	0.7552	0.3659	0.002
Mof_H 	H 	0.2819	0.0029	0.3972	-0.066
Mof_H 	H 	0.5714	0.9063	0.7297	-0.004
Mof_H 	H 	0.8086	0.7151	0.6243	-0.002
Mof_H 	H 	0.6431	0.7378	0.4773	-0.008
Mof_H 	H 	0.7885	0.8659	0.7448	0.002
Mof_H 	H 	0.7819	0.8972	0.4971	-0.066
Mof_H 	H 	0.5714	0.0937	0.2703	-0.004
Mof_H 	H 	0.8086	0.2849	0.3757	-0.002
Mof_H 	H 	0.6431	0.2622	0.5227	-0.008
Mof_H 	H 	0.7885	0.1341	0.2552	0.002
Mof_H 	H 	0.7819	0.1028	0.5029	-0.066
Mof_H 	H 	0.4286	0.2703	0.0937	-0.004
Mof_H 	H 	0.1914	0.3757	0.2849	-0.003
Mof_H 	H 	0.3569	0.5227	0.2622	-0.008
Mof_H 	H 	0.2115	0.2552	0.1341	0.002
Mof_H 	H 	0.2181	0.5029	0.1028	-0.066
Mof_H 	H 	0.4286	0.7297	0.9063	-0.004
Mof_H 	H 	0.1914	0.6243	0.7151	-0.003
Mof_H 	H 	0.3569	0.4773	0.7378	-0.008
Mof_H 	H 	0.2115	0.7448	0.8659	0.002
Mof_H 	H 	0.2181	0.4971	0.8972	-0.066
Mof_H 	H 	0.9286	0.5937	0.2297	-0.006
Mof_H 	H 	0.6914	0.7849	0.1243	-0.002
Mof_H 	H 	0.8569	0.7622	0.9773	-0.007
Mof_H 	H 	0.7115	0.6341	0.2448	0.002
Mof_H 	H 	0.7181	0.6028	0.9971	-0.066
Mof_H 	H 	0.9286	0.4063	0.7703	-0.006
Mof_H 	H 	0.6914	0.2151	0.8757	-0.002
Mof_H 	H 	0.8569	0.2378	0.0227	-0.007
Mof_H 	H 	0.7115	0.3659	0.7552	0.002
Mof_H 	H 	0.7181	0.3972	0.0029	-0.066
Mof_H 	H 	-2.79734e-33	0.9319	0.3031	-0.064
Mof_H 	H 	1.10577e-32	0.0681	0.6969	-0.064
Mof_H 	H 	0.5	0.1969	0.4319	-0.064
Mof_H 	H 	0.5	0.8031	0.5681	-0.064
Mof_H 	H 	0.5	0.5681	0.8031	-0.064
Mof_H 	H 	0.5	0.4319	0.1969	-0.064
Mof_H 	H 	-4.22926e-33	0.3031	0.9319	-0.064
Mof_H 	H 	8.42156e-33	0.6969	0.0681	-0.064
Mof_H 	H 	0.8732	0.7557	0.2443	-0.057
Mof_H 	H 	0.8732	0.2443	0.7557	-0.057
Mof_H 	H 	0.3732	0.2557	0.2557	-0.057
Mof_H 	H 	0.3732	0.7443	0.7443	-0.057
Mof_H 	H 	0.6268	0.7443	0.7443	-0.057
Mof_H 	H 	0.6268	0.2557	0.2557	-0.057
Mof_H 	H 	0.1268	0.2443	0.7557	-0.057
Mof_H 	H 	0.1268	0.7557	0.2443	-0.057
Mof_C 	C 	0.9602	0.8058	0.3886	-0.005
Mof_C 	C 	0.7307	0.8427	0.2078	-0.012
Mof_C 	C 	0.8223	0.0327	0.2742	0
Mof_C 	C 	0.714	0.7846	0.4047	-0.02
Mof_C 	C 	0.7489	0.0231	0.3624	0.095
Mof_C 	C 	0.9602	0.1942	0.6114	-0.005
Mof_C 	C 	0.7307	0.1573	0.7922	-0.012
Mof_C 	C 	0.8223	0.9673	0.7258	0
Mof_C 	C 	0.714	0.2154	0.5953	-0.02
Mof_C 	C 	0.7489	0.9769	0.6376	0.095
Mof_C 	C 	0.4602	0.1114	0.3058	-0.011
Mof_C 	C 	0.2307	0.2922	0.3427	-0.012
Mof_C 	C 	0.3223	0.2258	0.5327	0
Mof_C 	C 	0.214	0.0953	0.2846	-0.021
Mof_C 	C 	0.2489	0.1376	0.5231	0.095
Mof_C 	C 	0.4602	0.8886	0.6942	-0.011
Mof_C 	C 	0.2307	0.7078	0.6573	-0.012
Mof_C 	C 	0.3223	0.7742	0.4673	0
Mof_C 	C 	0.214	0.9047	0.7154	-0.021
Mof_C 	C 	0.2489	0.8624	0.4769	0.095
Mof_C 	C 	0.5398	0.6942	0.8886	-0.011
Mof_C 	C 	0.7693	0.6573	0.7078	-0.012
Mof_C 	C 	0.6777	0.4673	0.7742	0
Mof_C 	C 	0.786	0.7154	0.9047	-0.02
Mof_C 	C 	0.7511	0.4769	0.8624	0.095
Mof_C 	C 	0.5398	0.3058	0.1114	-0.011
Mof_C 	C 	0.7693	0.3427	0.2922	-0.012
Mof_C 	C 	0.6777	0.5327	0.2258	0
Mof_C 	C 	0.786	0.2846	0.0953	-0.02
Mof_C 	C 	0.7511	0.5231	0.1376	0.095
Mof_C 	C 	0.0398	0.3886	0.8058	-0.017
Mof_C 	C 	0.2693	0.2078	0.8427	-0.012
Mof_C 	C 	0.1777	0.2742	0.0327	0
Mof_C 	C 	0.286	0.4047	0.7846	-0.02
Mof_C 	C 	0.2511	0.3624	0.0231	0.095
Mof_C 	C 	0.0398	0.6114	0.1942	-0.017
Mof_C 	C 	0.2693	0.7922	0.1573	-0.012
Mof_C 	C 	0.1777	0.7258	0.9673	0
Mof_C 	C 	0.286	0.5953	0.2154	-0.02
Mof_C 	C 	0.2511	0.6376	0.9769	0.095
Mof_C 	C 	0.0398	0.1942	0.6114	-0.017
Mof_C 	C 	0.2693	0.1573	0.7922	-0.012
Mof_C 	C 	0.1777	0.9673	0.7258	0
Mof_C 	C 	0.286	0.2154	0.5953	-0.02
Mof_C 	C 	0.2511	0.9769	0.6376	0.095
Mof_C 	C 	0.0398	0.8058	0.3886	-0.017
Mof_C 	C 	0.2693	0.8427	0.2078	-0.012
Mof_C 	C 	0.1777	0.0327	0.2742	0
Mof_C 	C 	0.286	0.7846	0.4047	-0.02
Mof_C 	C 	0.2511	0.0231	0.3624	0.095
Mof_C 	C 	0.5398	0.8886	0.6942	-0.011
Mof_C 	C 	0.7693	0.7078	0.6573	-0.012
Mof_C 	C 	0.6777	0.7742	0.4673	0
Mof_C 	C 	0.786	0.9047	0.7154	-0.02
Mof_C 	C 	0.7511	0.8624	0.4769	0.095
Mof_C 	C 	0.5398	0.1114	0.3058	-0.011
Mof_C 	C 	0.7693	0.2922	0.3427	-0.012
Mof_C 	C 	0.6777	0.2258	0.5327	0
Mof_C 	C 	0.786	0.0953	0.2846	-0.02
Mof_C 	C 	0.7511	0.1376	0.5231	0.095
Mof_C 	C 	0.4602	0.3058	0.1114	-0.011
Mof_C 	C 	0.2307	0.3427	0.2922	-0.012
Mof_C 	C 	0.3223	0.5327	0.2258	0
Mof_C 	C 	0.214	0.2846	0.0953	-0.021
Mof_C 	C 	0.2489	0.5231	0.1376	0.095
Mof_C 	C 	0.4602	0.6942	0.8886	-0.011
Mof_C 	C 	0.2307	0.6573	0.7078	-0.012
Mof_C 	C 	0.3223	0.4673	0.7742	0
Mof_C 	C 	0.214	0.7154	0.9047	-0.021
Mof_C 	C 	0.2489	0.4769	0.8624	0.095
Mof_C 	C 	0.9602	0.6114	0.1942	-0.005
Mof_C 	C 	0.7307	0.7922	0.1573	-0.012
Mof_C 	C 	0.8223	0.7258	0.9673	0
Mof_C 	C 	0.714	0.5953	0.2154	-0.02
Mof_C 	C 	0.7489	0.6376	0.9769	0.095
Mof_C 	C 	0.9602	0.3886	0.8058	-0.005
Mof_C 	C 	0.7307	0.2078	0.8427	-0.012
Mof_C 	C 	0.8223	0.2742	0.0327	0
Mof_C 	C 	0.714	0.4047	0.7846	-0.02
Mof_C 	C 	0.7489	0.3624	0.0231	0.095
Mof_C 	C 	5.47036e-33	0.8946	0.3345	0.093
Mof_C 	C 	1.0926e-32	0.1054	0.6655	0.093
Mof_C 	C 	0.5	0.1655	0.3946	0.096
Mof_C 	C 	0.5	0.8345	0.6054	0.096
Mof_C 	C 	0.5	0.6054	0.8345	0.096
Mof_C 	C 	0.5	0.3946	0.1655	0.096
Mof_C 	C 	3.75043e-33	0.3345	0.8946	0.093
Mof_C 	C 	9.59494e-33	0.6655	0.1054	0.093
Mof_C 	C 	0.8315	0.7779	0.2221	0.089
Mof_C 	C 	0.8315	0.2221	0.7779	0.089
Mof_C 	C 	0.3315	0.2779	0.2779	0.089
Mof_C 	C 	0.3315	0.7221	0.7221	0.089
Mof_C 	C 	0.6685	0.7221	0.7221	0.089
Mof_C 	C 	0.6685	0.2779	0.2779	0.089
Mof_C 	C 	0.1685	0.2221	0.7779	0.089
Mof_C 	C 	0.1685	0.7779	0.2221	0.089
Mof_N 	N 	0.9343	0.8658	0.3587	-0.295
Mof_N 	N 	0.7987	0.8366	0.2461	-0.29
Mof_N 	N 	0.8004	0.987	0.325	-0.299
Mof_N 	N 	0.7548	0.846	0.4092	-0.29
Mof_N 	N 	0.9343	0.1342	0.6413	-0.295
Mof_N 	N 	0.7987	0.1634	0.7539	-0.29
Mof_N 	N 	0.8004	0.013	0.675	-0.299
Mof_N 	N 	0.7548	0.154	0.5908	-0.29
Mof_N 	N 	0.4343	0.1413	0.3658	-0.296
Mof_N 	N 	0.2987	0.2539	0.3366	-0.29
Mof_N 	N 	0.3004	0.175	0.487	-0.299
Mof_N 	N 	0.2548	0.0908	0.346	-0.29
Mof_N 	N 	0.4343	0.8587	0.6342	-0.296
Mof_N 	N 	0.2987	0.7461	0.6634	-0.29
Mof_N 	N 	0.3004	0.825	0.513	-0.299
Mof_N 	N 	0.2548	0.9092	0.654	-0.29
Mof_N 	N 	0.5657	0.6342	0.8587	-0.296
Mof_N 	N 	0.7013	0.6634	0.7461	-0.29
Mof_N 	N 	0.6996	0.513	0.825	-0.299
Mof_N 	N 	0.7452	0.654	0.9092	-0.29
Mof_N 	N 	0.5657	0.3658	0.1413	-0.296
Mof_N 	N 	0.7013	0.3366	0.2539	-0.29
Mof_N 	N 	0.6996	0.487	0.175	-0.299
Mof_N 	N 	0.7452	0.346	0.0908	-0.29
Mof_N 	N 	0.0657	0.3587	0.8658	-0.295
Mof_N 	N 	0.2013	0.2461	0.8366	-0.29
Mof_N 	N 	0.1996	0.325	0.987	-0.3
Mof_N 	N 	0.2452	0.4092	0.846	-0.29
Mof_N 	N 	0.0657	0.6413	0.1342	-0.295
Mof_N 	N 	0.2013	0.7539	0.1634	-0.29
Mof_N 	N 	0.1996	0.675	0.013	-0.3
Mof_N 	N 	0.2452	0.5908	0.154	-0.29
Mof_N 	N 	0.0657	0.1342	0.6413	-0.295
Mof_N 	N 	0.2013	0.1634	0.7539	-0.29
Mof_N 	N 	0.1996	0.013	0.675	-0.3
Mof_N 	N 	0.2452	0.154	0.5908	-0.29
Mof_N 	N 	0.0657	0.8658	0.3587	-0.295
Mof_N 	N 	0.2013	0.8366	0.2461	-0.29
Mof_N 	N 	0.1996	0.987	0.325	-0.3
Mof_N 	N 	0.2452	0.846	0.4092	-0.29
Mof_N 	N 	0.5657	0.8587	0.6342	-0.296
Mof_N 	N 	0.7013	0.7461	0.6634	-0.29
Mof_N 	N 	0.6996	0.825	0.513	-0.299
Mof_N 	N 	0.7452	0.9092	0.654	-0.29
Mof_N 	N 	0.5657	0.1413	0.3658	-0.296
Mof_N 	N 	0.7013	0.2539	0.3366	-0.29
Mof_N 	N 	0.6996	0.175	0.487	-0.299
Mof_N 	N 	0.7452	0.0908	0.346	-0.29
Mof_N 	N 	0.4343	0.3658	0.1413	-0.296
Mof_N 	N 	0.2987	0.3366	0.2539	-0.29
Mof_N 	N 	0.3004	0.487	0.175	-0.299
Mof_N 	N 	0.2548	0.346	0.0908	-0.29
Mof_N 	N 	0.4343	0.6342	0.8587	-0.296
Mof_N 	N 	0.2987	0.6634	0.7461	-0.29
Mof_N 	N 	0.3004	0.513	0.825	-0.299
Mof_N 	N 	0.2548	0.654	0.9092	-0.29
Mof_N 	N 	0.9343	0.6413	0.1342	-0.295
Mof_N 	N 	0.7987	0.7539	0.1634	-0.29
Mof_N 	N 	0.8004	0.675	0.013	-0.299
Mof_N 	N 	0.7548	0.5908	0.154	-0.29
Mof_N 	N 	0.9343	0.3587	0.8658	-0.295
Mof_N 	N 	0.7987	0.2461	0.8366	-0.29
Mof_N 	N 	0.8004	0.325	0.987	-0.299
Mof_N 	N 	0.7548	0.4092	0.846	-0.29
_end
