data_functionalizedCrystal
_audit_creation_method	'EQeq! by Chris Wilmer'
_symmetry_space_group_name_H-M	'P1'
_symmetry_Int_Tables_number	1
_symmetry_cell_setting	triclinic
loop_
_symmetry_equiv_pos_as_xyz
  x,y,z
_cell_length_a	8.855
_cell_length_b	17.267
_cell_length_c	33.5041
_cell_angle_alpha	90
_cell_angle_beta	92.6925
_cell_angle_gamma	90
loop_
_atom_site_label
_atom_site_type_symbol
_atom_site_fract_x
_atom_site_fract_y
_atom_site_fract_z
_atom_site_charge
Mof_Co	Co	0.32241	0.21388	0.80336	1.182
Mof_Co	Co	0.29127	0.8221	0.16261	1.191
Mof_Co	Co	0.17759	0.71388	0.69664	1.182
Mof_Co	Co	0.67759	0.78612	0.19664	1.182
Mof_Co	Co	0.20873	0.3221	0.33739	1.19
Mof_Co	Co	0.82241	0.28612	0.30336	1.182
Mof_Co	Co	0.79127	0.6779	0.66261	1.189
Mof_Co	Co	0.70873	0.1779	0.83739	1.19
Mof_H 	H 	0.2463	0.1228	0.4069	-0.018
Mof_H 	H 	0.7602	0.1176	0.5431	0.051
Mof_H 	H 	0.6128	0.3039	0.6288	0.144
Mof_H 	H 	0.4852	0.9479	0.4419	0.064
Mof_H 	H 	0.8864	0.6068	0.045	0.149
Mof_H 	H 	0.7537	0.8772	0.5931	-0.018
Mof_H 	H 	0.2431	0.0139	0.4475	0.144
Mof_H 	H 	0.3734	0.0441	0.1944	0.062
Mof_H 	H 	0.9578	0.4571	0.1753	0.032
Mof_H 	H 	0.6053	0.9524	0.8933	-0.026
Mof_H 	H 	0.3716	0.2331	0.5404	0.039
Mof_H 	H 	0.9077	0.4467	0.2514	0.026
Mof_H 	H 	0.7811	0.952	0.1491	-0.021
Mof_H 	H 	0.2475	0.1707	0.5288	0.045
Mof_H 	H 	0.3576	0.7324	0.8702	0.042
Mof_H 	H 	0.9742	0.6694	0.1956	-0.008
Mof_H 	H 	0.8352	0.127	0.7168	-0.014
Mof_H 	H 	0.6659	0.1703	0.3969	-0.03
Mof_H 	H 	0.6789	0.5791	0.9955	0.037
Mof_H 	H 	0.2469	0.7745	0.7884	0.037
Mof_H 	H 	0.3947	0.0476	0.1067	-0.026
Mof_H 	H 	0.9165	0.136	0.6524	0.142
Mof_H 	H 	0.7722	0.0499	0.2648	0.042
Mof_H 	H 	0.0205	0.269	0.4315	0.031
Mof_H 	H 	0.5949	0.5674	0.3625	0.139
Mof_H 	H 	0.1735	0.0346	0.5961	0.155
Mof_H 	H 	0.9492	0.3826	0.4622	0.054
Mof_H 	H 	0.0258	0.3306	0.8044	-0.008
Mof_H 	H 	0.5193	0.6535	0.038	0.07
Mof_H 	H 	0.4578	0.0429	0.6753	0.042
Mof_H 	H 	0.0633	0.5071	0.1192	0.058
Mof_H 	H 	0.8341	0.6703	0.1031	-0.029
Mof_H 	H 	0.8437	0.1758	0.9174	-0.052
Mof_H 	H 	0.0131	0.1237	0.7843	0.013
Mof_H 	H 	0.0923	0.5533	0.7486	0.026
Mof_H 	H 	0.9807	0.1535	0.462	0.074
Mof_H 	H 	0.665	0.8774	0.9777	0.052
Mof_H 	H 	0.6424	0.2676	0.1298	0.042
Mof_H 	H 	0.3045	0.2672	0.4783	0.15
Mof_H 	H 	0.1128	0.1961	0.1288	0.143
Mof_H 	H 	0.1053	0.5476	0.3933	-0.016
Mof_H 	H 	0.2278	0.9501	0.7352	0.042
Mof_H 	H 	0.2398	0.8824	0.4569	0.051
Mof_H 	H 	0.4492	0.1174	0.9622	0.05
Mof_H 	H 	0.2722	0.4501	0.7648	0.041
Mof_H 	H 	0.3864	0.8932	0.545	0.151
Mof_H 	H 	0.0508	0.6174	0.5378	0.054
Mof_H 	H 	0.3265	0.5346	0.9039	0.155
Mof_H 	H 	0.8533	0.0211	0.8091	0.061
Mof_H 	H 	0.3211	0.4209	0.0045	0.037
Mof_H 	H 	0.9841	0.6619	0.4044	0.149
Mof_H 	H 	0.4165	0.364	0.1524	0.143
Mof_H 	H 	0.9852	0.5521	0.9419	0.052
Mof_H 	H 	0.1596	0.2362	0.5833	0.044
Mof_H 	H 	0.8947	0.4524	0.6067	-0.016
Mof_H 	H 	0.2525	0.6707	0.9712	0.042
Mof_H 	H 	0.1648	0.873	0.2832	-0.014
Mof_H 	H 	0.9704	0.7925	0.8073	-0.018
Mof_H 	H 	0.6596	0.2638	0.0833	0.046
Mof_H 	H 	0.2744	0.6851	0.4262	0.028
Mof_H 	H 	0.8734	0.4559	0.6944	0.06
Mof_H 	H 	0.3872	0.6961	0.3712	0.144
Mof_H 	H 	0.2189	0.048	0.8509	-0.021
Mof_H 	H 	0.1659	0.3297	0.8969	-0.029
Mof_H 	H 	0.4671	0.8482	0.8126	0.037
Mof_H 	H 	0.5381	0.4247	0.794	0.073
Mof_H 	H 	0.5131	0.3763	0.2843	0.011
Mof_H 	H 	0.6266	0.9559	0.8056	0.062
Mof_H 	H 	0.5296	0.2925	0.6927	-0.017
Mof_H 	H 	0.7365	0.8556	0.7037	0.057
Mof_H 	H 	0.3341	0.8297	0.6031	-0.03
Mof_H 	H 	0.3352	0.373	0.2168	-0.012
Mof_H 	H 	0.0296	0.2075	0.1927	-0.018
Mof_H 	H 	0.3306	0.4295	0.863	-0.025
Mof_H 	H 	0.165	0.6226	0.4777	0.049
Mof_H 	H 	0.3099	0.1511	0.671	0.059
Mof_H 	H 	0.6467	0.5211	0.6909	0.062
Mof_H 	H 	0.7469	0.7255	0.2884	0.038
Mof_H 	H 	0.1789	0.9209	0.4955	0.038
Mof_H 	H 	0.3511	0.7641	0.4388	0.043
Mof_H 	H 	0.6284	0.7669	0.4596	0.039
Mof_H 	H 	0.2256	0.1851	0.0738	0.029
Mof_H 	H 	0.0381	0.0753	0.294	0.069
Mof_H 	H 	0.0329	0.3482	0.6874	0.037
Mof_H 	H 	0.2531	0.2745	0.7116	0.038
Mof_H 	H 	0.1284	0.7331	0.9596	0.037
Mof_H 	H 	0.8306	0.0705	0.363	-0.027
Mof_H 	H 	0.7635	0.3556	0.7963	0.055
Mof_H 	H 	0.6735	0.4654	0.0961	0.155
Mof_H 	H 	0.5258	0.1694	0.3044	-0.008
Mof_H 	H 	0.0422	0.5429	0.8247	0.032
Mof_H 	H 	0.6694	0.5705	0.137	-0.025
Mof_H 	H 	0.7463	0.3772	0.9069	-0.018
Mof_H 	H 	0.1489	0.2641	0.0612	0.043
Mof_H 	H 	0.4841	0.8381	0.9044	0.157
Mof_H 	H 	0.6489	0.2359	0.5612	0.043
Mof_H 	H 	0.6901	0.8489	0.329	0.059
Mof_H 	H 	0.8716	0.2669	0.0404	0.037
Mof_H 	H 	0.8576	0.7676	0.3702	0.041
Mof_H 	H 	0.4077	0.0533	0.7514	0.025
Mof_H 	H 	0.9869	0.8763	0.2157	0.013
Mof_H 	H 	0.6955	0.7328	0.5217	0.15
Mof_H 	H 	0.6563	0.6758	0.5826	-0.054
Mof_H 	H 	0.1424	0.2324	0.6298	0.041
Mof_H 	H 	0.0193	0.8465	0.538	0.074
Mof_H 	H 	0.9619	0.9247	0.706	0.069
Mof_H 	H 	0.5633	0.9929	0.6192	0.046
Mof_H 	H 	0.4795	0.769	0.0685	0.038
Mof_H 	H 	0.2537	0.6228	0.0931	-0.018
Mof_H 	H 	0.7475	0.3293	0.0288	0.042
Mof_H 	H 	0.7189	0.452	0.3509	-0.016
Mof_H 	H 	0.2365	0.6444	0.2037	0.055
Mof_H 	H 	0.7398	0.6176	0.9569	0.05
Mof_H 	H 	0.2635	0.1444	0.2963	0.057
Mof_H 	H 	0.1901	0.6511	0.829	0.066
Mof_H 	H 	0.5205	0.231	0.9315	0.038
Mof_H 	H 	0.7525	0.8293	0.4712	0.045
Mof_H 	H 	0.2811	0.548	0.6491	-0.016
Mof_H 	H 	0.7431	0.4861	0.9475	0.144
Mof_H 	H 	0.4367	0.0071	0.3808	0.046
Mof_H 	H 	0.9671	0.6518	0.3126	0.037
Mof_H 	H 	0.9367	0.4929	0.8808	0.058
Mof_H 	H 	0.5508	0.8826	0.0378	0.05
Mof_H 	H 	0.0835	0.864	0.3476	0.142
Mof_H 	H 	0.4807	0.3465	0.962	0.07
Mof_H 	H 	0.1955	0.7672	0.0217	0.149
Mof_H 	H 	0.4051	0.4326	0.6375	0.139
Mof_H 	H 	0.1266	0.5441	0.3056	0.06
Mof_H 	H 	0.7744	0.8149	0.9262	0.029
Mof_H 	H 	0.5148	0.0521	0.5581	0.064
Mof_H 	H 	0.5159	0.1619	0.0956	0.157
Mof_H 	H 	0.5923	0.9467	0.2486	0.025
Mof_H 	H 	0.5329	0.1518	0.1874	0.037
Mof_H 	H 	0.2602	0.3824	0.0431	0.05
Mof_H 	H 	0.9051	0.0674	0.1375	0.146
Mof_H 	H 	0.4704	0.7075	0.3073	-0.017
Mof_H 	H 	0.8099	0.3489	0.171	0.066
Mof_H 	H 	0.3437	0.3242	0.4174	-0.054
Mof_H 	H 	0.7531	0.2255	0.2116	0.037
Mof_H 	H 	0.335	0.1226	0.0223	0.052
Mof_H 	H 	0.8872	0.8039	0.8712	0.143
Mof_H 	H 	0.8511	0.7359	0.9388	0.043
Mof_H 	H 	0.0148	0.4479	0.0581	0.052
Mof_H 	H 	0.5835	0.636	0.8476	0.143
Mof_H 	H 	0.6648	0.627	0.7832	-0.012
Mof_H 	H 	0.7569	0.9861	0.5525	0.144
Mof_H 	H 	0.1694	0.9295	0.637	-0.027
Mof_H 	H 	0.4869	0.6237	0.7157	0.011
Mof_H 	H 	0.8045	0.2328	0.9783	0.149
Mof_H 	H 	0.7278	0.5499	0.2352	0.041
Mof_H 	H 	0.3404	0.7362	0.9167	0.046
Mof_H 	H 	0.7256	0.3149	0.5738	0.028
Mof_H 	H 	0.2569	0.5139	0.0525	0.144
Mof_H 	H 	0.3533	0.4789	0.3091	0.062
Mof_H 	H 	0.5422	0.9571	0.3247	0.042
Mof_H 	H 	0.8265	0.9654	0.4039	0.155
Mof_H 	H 	0.4619	0.5753	0.206	0.073
Mof_H 	H 	0.1467	0.9789	0.1909	0.061
Mof_H 	H 	0.4742	0.8306	0.6956	-0.008
Mof_H 	H 	0.9795	0.731	0.5685	0.031
Mof_H 	H 	0.8211	0.0791	0.5045	0.038
Mof_H 	H 	0.0949	0.9326	0.8625	0.146
Mof_H 	H 	0.835	0.3774	0.5223	0.049
Mof_H 	H 	0.0159	0.3381	0.5956	0.149
Mof_H 	H 	0.1136	0.3932	0.955	0.149
Mof_H 	H 	0.1563	0.8242	0.0826	-0.052
Mof_H 	H 	0.6136	0.1068	0.455	0.151
Mof_H 	H 	0.8404	0.7638	0.4167	0.044
Mof_C 	C 	0.51452	0.0809	0.85882	0.412
Mof_C 	C 	0.24523	0.2381	0.06593	0.008
Mof_C 	C 	0.5912	0.1893	0.4129	0.214
Mof_C 	C 	0.0912	0.3107	0.9129	0.21
Mof_C 	C 	0.8458	0.1149	0.5261	-0.005
Mof_C 	C 	0.3015	0.4364	0.6321	-0.276
Mof_C 	C 	0.779	0.6277	0.3828	0.29
Mof_C 	C 	0.11522	0.2998	0.25292	0.415
Mof_C 	C 	0.62314	0.7527	0.53814	-0.329
Mof_C 	C 	0.12314	0.7473	0.03814	-0.324
Mof_C 	C 	0.9418	0.6641	0.2861	0.014
Mof_C 	C 	0.9366	0.6525	0.0518	-0.313
Mof_C 	C 	0.90175	0.2185	0.92545	0.209
Mof_C 	C 	0.00962	0.2457	0.90072	-0.265
Mof_C 	C 	0.05526	0.3257	0.77826	0.114
Mof_C 	C 	0.03931	0.1087	0.38041	-0.241
Mof_C 	C 	0.221	0.3723	0.6172	0.29
Mof_C 	C 	0.37708	0.3069	0.00958	0.034
Mof_C 	C 	0.83978	0.9747	0.56958	-0.308
Mof_C 	C 	0.1542	0.8851	0.4739	-0.005
Mof_C 	C 	0.16105	0.8322	0.33945	-0.283
Mof_C 	C 	0.7724	0.4944	0.3613	0.167
Mof_C 	C 	0.6057	0.4306	0.7738	-0.085
Mof_C 	C 	0.42717	0.0115	0.87017	-0.242
Mof_C 	C 	0.03645	0.1804	0.35535	0.427
Mof_C 	C 	0.7934	0.0028	0.2529	-0.001
Mof_C 	C 	0.68036	0.8325	0.38846	0.012
Mof_C 	C 	0.1602	0.6008	0.2543	0.084
Mof_C 	C 	0.39217	0.7391	0.31527	0.184
Mof_C 	C 	0.0582	0.3359	0.7139	0.014
Mof_C 	C 	0.2066	0.9972	0.7471	-0.001
Mof_C 	C 	0.69503	0.9491	0.78563	-0.076
Mof_C 	C 	0.74523	0.2619	0.56593	0.011
Mof_C 	C 	0.82825	0.7087	0.78855	-0.217
Mof_C 	C 	0.49038	0.7457	0.59928	-0.27
Mof_C 	C 	0.9975	0.4482	0.6135	0.17
Mof_C 	C 	0.32918	0.5114	0.28758	-0.08
Mof_C 	C 	0.17082	0.0114	0.21242	-0.077
Mof_C 	C 	0.9977	0.5367	0.8827	-0.073
Mof_C 	C 	0.89217	0.7609	0.81527	0.181
Mof_C 	C 	0.721	0.1277	0.1172	0.303
Mof_C 	C 	0.6985	0.5636	0.3679	-0.276
Mof_C 	C 	0.0634	0.3475	0.9482	-0.313
Mof_C 	C 	0.55526	0.1743	0.27826	0.108
Mof_C 	C 	0.2276	0.5056	0.6387	0.167
Mof_C 	C 	0.62292	0.6931	0.99042	0.034
Mof_C 	C 	0.53645	0.3196	0.85535	0.433
Mof_C 	C 	0.46355	0.6804	0.14465	0.433
Mof_C 	C 	0.3398	0.1008	0.2457	0.087
Mof_C 	C 	0.1985	0.9364	0.8679	-0.291
Mof_C 	C 	0.4487	0.3012	0.9741	-0.079
Mof_C 	C 	0.58599	0.5597	0.11999	0.195
Mof_C 	C 	0.9105	0.9066	0.2257	0.096
Mof_C 	C 	0.88478	0.7002	0.74708	0.415
Mof_C 	C 	0.31964	0.1675	0.61154	0.012
Mof_C 	C 	0.92717	0.4885	0.37017	-0.217
Mof_C 	C 	0.88384	0.3619	0.07704	0.001
Mof_C 	C 	0.5895	0.4066	0.2743	0.096
Mof_C 	C 	0.4418	0.8359	0.7861	0.007
Mof_C 	C 	0.0879	0.0034	0.5959	-0.314
Mof_C 	C 	0.84295	0.7678	0.85365	-0.289
Mof_C 	C 	0.40175	0.2815	0.42545	0.217
Mof_C 	C 	0.9307	0.6204	0.393	-0.298
Mof_C 	C 	0.7106	0.6622	0.801	0.169
Mof_C 	C 	0.83895	0.1678	0.66055	-0.283
Mof_C 	C 	0.0684	0.665	0.5259	-0.052
Mof_C 	C 	0.1376	0.6684	0.49	-0.048
Mof_C 	C 	0.4121	0.5034	0.9041	-0.314
Mof_C 	C 	0.5634	0.1525	0.4482	-0.319
Mof_C 	C 	0.14745	0.6779	0.96235	0.013
Mof_C 	C 	0.35255	0.1779	0.53765	0.004
Mof_C 	C 	0.66105	0.6678	0.83945	-0.281
Mof_C 	C 	0.4745	0.2324	0.9559	-0.014
Mof_C 	C 	0.11616	0.6381	0.92296	0.001
Mof_C 	C 	0.0025	0.5518	0.3865	0.17
Mof_C 	C 	0.7593	0.8895	0.7247	-0.072
Mof_C 	C 	0.60783	0.2609	0.68473	0.184
Mof_C 	C 	0.7148	0.2642	0.109	-0.003
Mof_C 	C 	0.5879	0.4966	0.0959	-0.314
Mof_C 	C 	0.0513	0.8012	0.5259	-0.09
Mof_C 	C 	0.66022	0.4747	0.93042	-0.307
Mof_C 	C 	0.59825	0.7185	0.57455	0.217
Mof_C 	C 	0.04	0.6838	0.0266	0.313
Mof_C 	C 	0.5605	0.9332	0.3493	-0.026
Mof_C 	C 	0.41401	0.4403	0.88001	0.195
Mof_C 	C 	0.0255	0.7324	0.5441	0.001
Mof_C 	C 	0.2106	0.8378	0.301	0.171
Mof_C 	C 	0.6602	0.8992	0.7543	0.087
Mof_C 	C 	0.44474	0.8257	0.72174	0.108
Mof_C 	C 	0.46069	0.6087	0.11959	-0.236
Mof_C 	C 	0.37686	0.2473	0.46186	-0.329
Mof_C 	C 	0.8505	0.3688	0.148	-0.085
Mof_C 	C 	0.61522	0.2002	0.75292	0.424
Mof_C 	C 	0.6542	0.6149	0.9739	-0.001
Mof_C 	C 	0.67175	0.2087	0.71145	-0.22
Mof_C 	C 	0.9731	0.4274	0.0808	-0.029
Mof_C 	C 	0.5513	0.6988	0.0259	-0.079
Mof_C 	C 	0.4105	0.5934	0.7257	0.096
Mof_C 	C 	0.15705	0.2322	0.14635	-0.289
Mof_C 	C 	0.2934	0.4972	0.7529	-0.002
Mof_C 	C 	0.8398	0.3992	0.7457	0.084
Mof_C 	C 	0.87686	0.2527	0.96186	-0.324
Mof_C 	C 	0.3624	0.1684	0.01	-0.056
Mof_C 	C 	0.3505	0.1312	0.648	-0.064
Mof_C 	C 	0.54	0.8162	0.5266	0.318
Mof_C 	C 	0.33895	0.3322	0.16055	-0.281
Mof_C 	C 	0.57179	0.4799	0.74259	0.096
Mof_C 	C 	0.7852	0.7642	0.391	0.003
Mof_C 	C 	0.80497	0.4491	0.71437	-0.073
Mof_C 	C 	0.53818	0.2922	0.36138	0.447
Mof_C 	C 	0.66176	0.4092	0.90596	0.182
Mof_C 	C 	0.53931	0.3913	0.88041	-0.236
Mof_C 	C 	0.96182	0.7922	0.13862	0.45
Mof_C 	C 	0.5693	0.1204	0.107	-0.322
Mof_C 	C 	0.64745	0.8221	0.46235	0.004
Mof_C 	C 	0.8624	0.3316	0.51	-0.048
Mof_C 	C 	0.16176	0.0908	0.40596	0.183
Mof_C 	C 	0.4088	0.8107	0.5871	0.214
Mof_C 	C 	0.16753	0.7387	0.47183	0.001
Mof_C 	C 	0.81964	0.3325	0.11154	0.027
Mof_C 	C 	0.4307	0.8796	0.893	-0.322
Mof_C 	C 	0.2593	0.6105	0.2247	-0.068
Mof_C 	C 	0.0023	0.4633	0.1173	-0.073
Mof_C 	C 	0.12292	0.8069	0.49042	0.04
Mof_C 	C 	0.75477	0.7619	0.93407	0.008
Mof_C 	C 	0.4731	0.0726	0.5808	-0.061
Mof_C 	C 	0.3051	0.0544	0.7561	0.011
Mof_C 	C 	0.03649	0.9782	0.42909	0.309
Mof_C 	C 	0.50962	0.2543	0.40072	-0.27
Mof_C 	C 	0.22735	0.7792	0.36575	0.291
Mof_C 	C 	0.34295	0.7322	0.35365	-0.29
Mof_C 	C 	0.8943	0.9306	0.7262	-0.08
Mof_C 	C 	0.98548	0.5809	0.64118	0.394
Mof_C 	C 	0.33978	0.5253	0.06958	-0.307
Mof_C 	C 	0.8051	0.4456	0.2561	0.011
Mof_C 	C 	0.67082	0.4886	0.71242	-0.08
Mof_C 	C 	0.0269	0.5726	0.9192	-0.029
Mof_C 	C 	0.6949	0.9456	0.2439	0.011
Mof_C 	C 	0.99038	0.7543	0.09928	-0.265
Mof_C 	C 	0.65705	0.2678	0.64635	-0.29
Mof_C 	C 	0.1792	0.2949	0.7274	-0.003
Mof_C 	C 	0.83247	0.2613	0.52817	0.001
Mof_C 	C 	0.92821	0.9799	0.75741	0.089
Mof_C 	C 	0.42821	0.5201	0.25741	0.096
Mof_C 	C 	0.9395	0.4332	0.1507	0.005
Mof_C 	C 	0.7894	0.1622	0.699	0.171
Mof_C 	C 	0.4316	0.165	0.9741	-0.041
Mof_C 	C 	0.7407	0.3895	0.7753	-0.068
Mof_C 	C 	0.9316	0.335	0.4741	-0.052
Mof_C 	C 	0.16022	0.0253	0.43042	-0.308
Mof_C 	C 	0.38384	0.1381	0.57704	0.017
Mof_C 	C 	0.46351	0.4782	0.07091	0.311
Mof_C 	C 	0.10783	0.2391	0.18473	0.181
Mof_C 	C 	0.5582	0.1641	0.2139	0.007
Mof_C 	C 	0.4977	0.9633	0.3827	-0.037
Mof_C 	C 	0.5023	0.0367	0.6173	-0.037
Mof_C 	C 	0.08599	0.9403	0.61999	0.202
Mof_C 	C 	0.5684	0.835	0.0259	-0.041
Mof_C 	C 	0.1495	0.6312	0.852	-0.085
Mof_C 	C 	0.0605	0.5668	0.8493	0.005
Mof_C 	C 	0.9745	0.2676	0.4559	0.001
Mof_C 	C 	0.2852	0.7358	0.891	-0.003
Mof_C 	C 	0.4395	0.0668	0.6507	-0.026
Mof_C 	C 	0.5025	0.9482	0.8865	0.201
Mof_C 	C 	0.6495	0.8688	0.352	-0.064
Mof_C 	C 	0.4975	0.0518	0.1135	0.201
Mof_C 	C 	0.3458	0.3851	0.0261	-0.001
Mof_C 	C 	0.8208	0.7051	0.2726	-0.003
Mof_C 	C 	0.32825	0.7913	0.28855	-0.22
Mof_C 	C 	0.0693	0.3796	0.607	-0.298
Mof_C 	C 	0.07283	0.5115	0.62983	-0.217
Mof_C 	C 	0.2407	0.1105	0.2753	-0.072
Mof_C 	C 	0.72735	0.7208	0.86575	0.29
Mof_C 	C 	0.57283	0.9885	0.12983	-0.242
Mof_C 	C 	0.83824	0.9092	0.59404	0.183
Mof_C 	C 	0.7066	0.5028	0.2471	-0.002
Mof_C 	C 	0.2724	0.0056	0.8613	0.185
Mof_C 	C 	0.9088	0.6893	0.0871	0.21
Mof_C 	C 	0.8015	0.0636	0.1321	-0.291
Mof_C 	C 	0.1949	0.5544	0.7439	0.011
Mof_C 	C 	0.5255	0.7676	0.0441	-0.014
Mof_C 	C 	0.30497	0.0509	0.21437	-0.076
Mof_C 	C 	0.48548	0.9191	0.14118	0.412
Mof_C 	C 	0.85255	0.3221	0.03765	0.013
Mof_C 	C 	0.18036	0.6675	0.88846	0.027
Mof_C 	C 	0.3208	0.7949	0.7726	-0
Mof_C 	C 	0.25477	0.7381	0.43407	0.011
Mof_C 	C 	0.46182	0.7078	0.63862	0.447
Mof_C 	C 	0.96069	0.8913	0.61959	-0.241
Mof_C 	C 	0.07179	0.0201	0.24259	0.089
Mof_C 	C 	0.3943	0.5694	0.2262	-0.085
Mof_C 	C 	0.03818	0.2078	0.86138	0.45
Mof_C 	C 	0.2894	0.3378	0.199	0.169
Mof_C 	C 	0.1057	0.0694	0.2738	-0.08
Mof_C 	C 	0.5269	0.9274	0.4192	-0.061
Mof_C 	C 	0.19503	0.5509	0.28563	-0.073
Mof_C 	C 	0.279	0.8723	0.8828	0.303
Mof_C 	C 	0.87708	0.1931	0.50958	0.04
Mof_C 	C 	0.01452	0.4191	0.35882	0.394
Mof_C 	C 	0.94474	0.6743	0.22174	0.114
Mof_C 	C 	0.09825	0.7815	0.07455	0.209
Mof_C 	C 	0.9121	0.9966	0.4041	-0.314
Mof_C 	C 	0.4366	0.8475	0.5518	-0.319
Mof_C 	C 	0.46	0.1838	0.4734	0.318
Mof_C 	C 	0.9487	0.1988	0.4741	-0.09
Mof_C 	C 	0.6792	0.2051	0.2274	-0
Mof_C 	C 	0.96351	0.0218	0.57091	0.309
Mof_C 	C 	0.33824	0.5908	0.09404	0.182
Mof_C 	C 	0.0895	0.0934	0.7743	0.096
Mof_C 	C 	0.82918	0.9886	0.78758	-0.077
Mof_C 	C 	0.61616	0.8619	0.42296	0.017
Mof_C 	C 	0.77265	0.2208	0.63425	0.291
Mof_C 	C 	0.96355	0.8196	0.64465	0.427
Mof_C 	C 	0.33247	0.2387	0.02817	0.006
Mof_C 	C 	0.91401	0.0597	0.38001	0.202
Mof_C 	C 	0.6376	0.8316	0.99	-0.056
Mof_C 	C 	0.53649	0.5218	0.92909	0.311
Mof_C 	C 	0.38478	0.7998	0.24708	0.424
Mof_C 	C 	0.27265	0.2792	0.13425	0.29
Mof_C 	C 	0.66753	0.7613	0.97183	0.006
Mof_C 	C 	0.17175	0.2913	0.21145	-0.217
Mof_C 	C 	0.2148	0.2358	0.609	0.003
Mof_C 	C 	0.7276	0.9944	0.1387	0.185
Mof_C 	C 	0.96	0.3162	0.9734	0.313
Mof_N 	N 	0.02106	0.6439	0.25336	-0.145
Mof_N 	N 	0.17637	0.288	0.76827	-0.218
Mof_N 	N 	0.47894	0.1439	0.24664	-0.139
Mof_N 	N 	0.56813	0.4779	0.25903	-0.135
Mof_N 	N 	0.93187	0.9779	0.24097	-0.131
Mof_N 	N 	0.73094	0.385	0.27334	-0.22
Mof_N 	N 	0.97894	0.3561	0.74664	-0.145
Mof_N 	N 	0.43187	0.5221	0.74097	-0.135
Mof_N 	N 	0.67637	0.212	0.26827	-0.217
Mof_N 	N 	0.32363	0.788	0.73173	-0.217
Mof_N 	N 	0.26906	0.615	0.72666	-0.22
Mof_N 	N 	0.52106	0.8561	0.75336	-0.139
Mof_N 	N 	0.06813	0.0221	0.75903	-0.131
Mof_N 	N 	0.23094	0.115	0.77334	-0.22
Mof_N 	N 	0.82363	0.712	0.23173	-0.218
Mof_N 	N 	0.76906	0.885	0.22666	-0.22
Mof_O 	O 	0.33221	0.2769	0.09701	-0.247
Mof_O 	O 	0.19869	0.8052	0.88619	-0.253
Mof_O 	O 	0.5438	0.8641	0.1599	-0.505
Mof_O 	O 	0.0438	0.6359	0.6599	-0.496
Mof_O 	O 	0.15708	0.2213	0.35798	-0.477
Mof_O 	O 	0.69869	0.6948	0.38619	-0.252
Mof_O 	O 	0.34292	0.7213	0.14202	-0.478
Mof_O 	O 	0.9562	0.3641	0.3401	-0.496
Mof_O 	O 	0.65708	0.2787	0.85798	-0.478
Mof_O 	O 	0.43185	0.328	0.34275	-0.456
Mof_O 	O 	0.57878	0.6934	0.16598	-0.444
Mof_O 	O 	0.06815	0.828	0.15725	-0.46
Mof_O 	O 	0.44959	0.1452	0.50919	-0.259
Mof_O 	O 	0.97717	0.0879	0.54887	-0.244
Mof_O 	O 	0.84444	0.5825	0.63194	-0.431
Mof_O 	O 	0.56815	0.672	0.65725	-0.456
Mof_O 	O 	0.47717	0.4121	0.04887	-0.244
Mof_O 	O 	0.02283	0.9121	0.45113	-0.244
Mof_O 	O 	0.20758	0.3284	0.27888	-0.462
Mof_O 	O 	0.52283	0.5879	0.95113	-0.244
Mof_O 	O 	0.4838	0.2218	0.7588	-0.446
Mof_O 	O 	0.34444	0.9175	0.13194	-0.435
Mof_O 	O 	0.84292	0.7787	0.64202	-0.477
Mof_O 	O 	0.65556	0.0825	0.86806	-0.435
Mof_O 	O 	0.70758	0.1716	0.77888	-0.463
Mof_O 	O 	0.1674	0.2152	0.8486	-0.424
Mof_O 	O 	0.83221	0.2231	0.59701	-0.248
Mof_O 	O 	0.66779	0.7231	0.90299	-0.247
Mof_O 	O 	0.92122	0.1934	0.33402	-0.439
Mof_O 	O 	0.07878	0.8066	0.66598	-0.439
Mof_O 	O 	0.80131	0.1948	0.11381	-0.253
Mof_O 	O 	0.5162	0.7782	0.2412	-0.446
Mof_O 	O 	0.42122	0.3066	0.83402	-0.444
Mof_O 	O 	0.6674	0.2848	0.3486	-0.424
Mof_O 	O 	0.16779	0.7769	0.40299	-0.248
Mof_O 	O 	0.29242	0.8284	0.22112	-0.463
Mof_O 	O 	0.0162	0.7218	0.7412	-0.439
Mof_O 	O 	0.4562	0.1359	0.8401	-0.505
Mof_O 	O 	0.3326	0.7152	0.6514	-0.424
Mof_O 	O 	0.9838	0.2782	0.2588	-0.439
Mof_O 	O 	0.15556	0.4175	0.36806	-0.431
Mof_O 	O 	0.93185	0.172	0.84275	-0.46
Mof_O 	O 	0.55041	0.8548	0.49081	-0.259
Mof_O 	O 	0.05041	0.6452	0.99081	-0.258
Mof_O 	O 	0.8326	0.7848	0.1514	-0.424
Mof_O 	O 	0.30131	0.3052	0.61381	-0.252
Mof_O 	O 	0.79242	0.6716	0.72112	-0.462
Mof_O 	O 	0.94959	0.3548	0.00919	-0.258
_end
