data_functionalizedCrystal
_audit_creation_method	'EQeq! by Chris Wilmer'
_symmetry_space_group_name_H-M	'P1'
_symmetry_Int_Tables_number	1
_symmetry_cell_setting	triclinic
loop_
_symmetry_equiv_pos_as_xyz
  x,y,z
_cell_length_a	12.265
_cell_length_b	12.265
_cell_length_c	12.421
_cell_angle_alpha	90
_cell_angle_beta	90
_cell_angle_gamma	90
loop_
_atom_site_label
_atom_site_type_symbol
_atom_site_fract_x
_atom_site_fract_y
_atom_site_fract_z
_atom_site_charge
Mof_Eu	Eu	-0	0	-0	1.216
Mof_Na	Na	0.5289	0.2724	0.4908	2.33
Mof_Na	Na	0.4711	0.7276	0.4908	2.371
Mof_Na	Na	0.2724	0.4711	0.5092	2.34
Mof_Na	Na	0.7276	0.5289	0.5092	2.38
Mof_Na	Na	1.53631e-32	0.5	0.488	1.944
Mof_Na	Na	0.5	0	0.512	1.943
Mof_H 	H 	0.8928	0.2801	0.8768	0.102
Mof_H 	H 	0.8829	0.3506	0.705	-0.032
Mof_H 	H 	0.7779	0.0555	0.5978	-0.051
Mof_H 	H 	0.6085	0.9796	0.7326	0.103
Mof_H 	H 	0.6663	0.6745	0.8382	0.041
Mof_H 	H 	0.8456	0.7236	0.8761	0.071
Mof_H 	H 	0.1072	0.7199	0.8768	0.035
Mof_H 	H 	0.1171	0.6494	0.705	-0.056
Mof_H 	H 	0.2221	0.9445	0.5978	0.106
Mof_H 	H 	0.3915	0.0204	0.7326	-0.085
Mof_H 	H 	0.3337	0.3255	0.8382	0.007
Mof_H 	H 	0.1544	0.2764	0.8761	0.053
Mof_H 	H 	0.2801	0.1072	0.1232	0.025
Mof_H 	H 	0.3506	0.1171	0.295	-0.088
Mof_H 	H 	0.0555	0.2221	0.4022	-0.069
Mof_H 	H 	0.9796	0.3915	0.2674	0.103
Mof_H 	H 	0.6745	0.3337	0.1618	0.014
Mof_H 	H 	0.7236	0.1544	0.1239	0.004
Mof_H 	H 	0.7199	0.8928	0.1232	0.051
Mof_H 	H 	0.6494	0.8829	0.295	-0.012
Mof_H 	H 	0.9445	0.7779	0.4022	0.119
Mof_H 	H 	0.0204	0.6085	0.2674	-0.09
Mof_H 	H 	0.3255	0.6663	0.1618	-0.01
Mof_H 	H 	0.2764	0.8456	0.1239	0.07
Mof_C 	C 	0.8679	0.2353	0.8194	-0.021
Mof_C 	C 	0.8632	0.2768	0.718	0.101
Mof_C 	C 	0.8291	0.2102	0.6327	-0.208
Mof_C 	C 	0.8003	0.1025	0.6544	0.115
Mof_C 	C 	0.8048	0.0648	0.7594	-0.139
Mof_C 	C 	0.7634	0.9556	0.7867	0.27
Mof_C 	C 	0.6568	0.9263	0.761	-0.094
Mof_C 	C 	0.6205	0.8211	0.7763	-0.061
Mof_C 	C 	0.6909	0.7462	0.8227	-0.037
Mof_C 	C 	0.7971	0.7761	0.8465	0.057
Mof_C 	C 	0.1321	0.7647	0.8194	-0.011
Mof_C 	C 	0.1368	0.7232	0.718	0.017
Mof_C 	C 	0.1709	0.7898	0.6327	-0.147
Mof_C 	C 	0.1997	0.8975	0.6544	-0.083
Mof_C 	C 	0.1952	0.9352	0.7594	0.249
Mof_C 	C 	0.2366	0.0444	0.7867	-0.16
Mof_C 	C 	0.3432	0.0737	0.761	0.111
Mof_C 	C 	0.3795	0.1789	0.7763	-0.191
Mof_C 	C 	0.3091	0.2538	0.8227	0.044
Mof_C 	C 	0.2029	0.2239	0.8465	-0.02
Mof_C 	C 	0.2353	0.1321	0.1806	-0.083
Mof_C 	C 	0.2768	0.1368	0.282	0.093
Mof_C 	C 	0.2102	0.1709	0.3673	-0.263
Mof_C 	C 	0.1025	0.1997	0.3456	0.118
Mof_C 	C 	0.0648	0.1952	0.2406	-0.186
Mof_C 	C 	0.9556	0.2366	0.2133	0.264
Mof_C 	C 	0.9263	0.3432	0.239	-0.099
Mof_C 	C 	0.8211	0.3795	0.2237	-0.076
Mof_C 	C 	0.7462	0.3091	0.1773	-0.046
Mof_C 	C 	0.7761	0.2029	0.1535	0.027
Mof_C 	C 	0.7647	0.8679	0.1806	0.036
Mof_C 	C 	0.7232	0.8632	0.282	0.021
Mof_C 	C 	0.7898	0.8291	0.3673	-0.098
Mof_C 	C 	0.8975	0.8003	0.3456	-0.078
Mof_C 	C 	0.9352	0.8048	0.2406	0.277
Mof_C 	C 	0.0444	0.7634	0.2133	-0.165
Mof_C 	C 	0.0737	0.6568	0.239	0.107
Mof_C 	C 	0.1789	0.6205	0.2237	-0.206
Mof_C 	C 	0.2538	0.6909	0.1773	0.042
Mof_C 	C 	0.2239	0.7971	0.1535	-0.033
Mof_S 	S 	0.81724	0.26471	0.5003	0.744
Mof_S 	S 	0.48511	0.78728	0.7387	0.593
Mof_S 	S 	0.18276	0.73529	0.5003	0.723
Mof_S 	S 	0.51489	0.21272	0.7387	0.641
Mof_S 	S 	0.26471	0.18276	0.4997	0.763
Mof_S 	S 	0.78728	0.51489	0.2613	0.597
Mof_S 	S 	0.73529	0.81724	0.4997	0.705
Mof_S 	S 	0.21272	0.48511	0.2613	0.646
Mof_N 	N 	0.838	0.1318	0.8395	-0.011
Mof_N 	N 	0.8325	0.8781	0.8283	-0.082
Mof_N 	N 	0.162	0.8682	0.8395	-0.084
Mof_N 	N 	0.1675	0.1219	0.8283	-0.014
Mof_N 	N 	0.1318	0.162	0.1605	-0.015
Mof_N 	N 	0.8781	0.1675	0.1717	-0.083
Mof_N 	N 	0.8682	0.838	0.1605	-0.076
Mof_N 	N 	0.1219	0.8325	0.1717	-0.023
Mof_Cl	Cl	0.5	0.5	0.5	-1.401
Mof_O 	O 	0.8426	0.0952	0.9398	-0.209
Mof_O 	O 	0.9339	0.9033	0.8452	-0.07
Mof_O 	O 	0.9141	0.3302	0.4868	-0.581
Mof_O 	O 	0.8102	0.1721	0.4285	-0.347
Mof_O 	O 	0.7178	0.3303	0.502	-0.902
Mof_O 	O 	0.459	0.8593	0.6505	-0.679
Mof_O 	O 	0.4909	0.6751	0.704	-0.516
Mof_O 	O 	0.4176	0.8048	0.8318	-0.244
Mof_O 	O 	0.116	0.4156	0.6155	-0.718
Mof_O 	O 	0.1574	0.9048	0.9398	-0.148
Mof_O 	O 	0.0661	0.0967	0.8452	-0.31
Mof_O 	O 	0.0859	0.6698	0.4868	-0.688
Mof_O 	O 	0.1898	0.8279	0.4285	-0.328
Mof_O 	O 	0.2822	0.6697	0.502	-0.895
Mof_O 	O 	0.541	0.1407	0.6505	-0.764
Mof_O 	O 	0.5091	0.3249	0.704	-0.522
Mof_O 	O 	0.5824	0.1952	0.8318	-0.304
Mof_O 	O 	0.884	0.5844	0.6155	-0.62
Mof_O 	O 	0.0952	0.1574	0.0602	-0.335
Mof_O 	O 	0.9033	0.0661	0.1548	-0.227
Mof_O 	O 	0.3302	0.0859	0.5132	-0.702
Mof_O 	O 	0.1721	0.1898	0.5715	-0.392
Mof_O 	O 	0.3303	0.2822	0.498	-0.902
Mof_O 	O 	0.8593	0.541	0.3495	-0.683
Mof_O 	O 	0.6751	0.5091	0.296	-0.528
Mof_O 	O 	0.8048	0.5824	0.1682	-0.28
Mof_O 	O 	0.4156	0.884	0.3845	-0.623
Mof_O 	O 	0.9048	0.8426	0.0602	-0.171
Mof_O 	O 	0.0967	0.9339	0.1548	-0.198
Mof_O 	O 	0.6698	0.9141	0.5132	-0.571
Mof_O 	O 	0.8279	0.8102	0.5715	-0.288
Mof_O 	O 	0.6697	0.7178	0.498	-0.898
Mof_O 	O 	0.1407	0.459	0.3495	-0.765
Mof_O 	O 	0.3249	0.4909	0.296	-0.533
Mof_O 	O 	0.1952	0.4176	0.1682	-0.339
Mof_O 	O 	0.5844	0.116	0.3845	-0.722
_end
