data_functionalizedCrystal
_audit_creation_method	'EQeq! by Chris Wilmer'
_symmetry_space_group_name_H-M	'P1'
_symmetry_Int_Tables_number	1
_symmetry_cell_setting	triclinic
loop_
_symmetry_equiv_pos_as_xyz
  x,y,z
_cell_length_a	16.9982
_cell_length_b	12.8924
_cell_length_c	24.7143
_cell_angle_alpha	90
_cell_angle_beta	90
_cell_angle_gamma	90
loop_
_atom_site_label
_atom_site_type_symbol
_atom_site_fract_x
_atom_site_fract_y
_atom_site_fract_z
_atom_site_charge
Mof_C 	C 	0.822	0.1895	0.9428	0.092
Mof_H 	H 	0.7759	0.182	0.923	-0.014
Mof_C 	C 	0.931	0.2484	0.96956	0.087
Mof_H 	H 	0.9765	0.2878	0.9736	-0.007
Mof_C 	C 	0.9584	0.1161	0.04126	-0.049
Mof_H 	H 	0.9234	0.0787	0.0653	0.045
Mof_H 	H 	0.9862	0.1677	0.0625	0.041
Mof_C 	C 	0.0169	0.0415	0.0173	-0.097
Mof_H 	H 	0.0543	0.0807	0.9959	0.059
Mof_H 	H 	0.0457	0.009	0.0466	0.062
Mof_N 	N 	0.8758	0.265	0.93287	-0.243
Mof_N 	N 	0.912	0.168	0.99945	-0.096
Mof_N 	N 	0.8413	0.1284	0.98284	-0.105
Mof_C 	C 	0.822	0.6895	0.4428	0.092
Mof_H 	H 	0.7759	0.682	0.423	-0.014
Mof_C 	C 	0.931	0.7484	0.46956	0.087
Mof_H 	H 	0.9765	0.7878	0.4736	-0.007
Mof_C 	C 	0.9584	0.6161	0.54126	-0.048
Mof_H 	H 	0.9234	0.5787	0.5653	0.045
Mof_H 	H 	0.9862	0.6677	0.5625	0.041
Mof_C 	C 	0.0169	0.5415	0.5173	-0.098
Mof_H 	H 	0.0543	0.5807	0.4959	0.06
Mof_H 	H 	0.0457	0.509	0.5466	0.062
Mof_N 	N 	0.8758	0.765	0.43287	-0.243
Mof_N 	N 	0.912	0.668	0.49945	-0.096
Mof_N 	N 	0.8413	0.6284	0.48284	-0.105
Mof_C 	C 	0.322	0.1895	0.4428	0.092
Mof_H 	H 	0.2759	0.182	0.423	-0.014
Mof_C 	C 	0.431	0.2484	0.46956	0.087
Mof_H 	H 	0.4765	0.2878	0.4736	-0.007
Mof_C 	C 	0.4584	0.1161	0.54126	-0.048
Mof_H 	H 	0.4234	0.0787	0.5653	0.045
Mof_H 	H 	0.4862	0.1677	0.5625	0.041
Mof_C 	C 	0.5169	0.0415	0.5173	-0.098
Mof_H 	H 	0.5543	0.0807	0.4959	0.06
Mof_H 	H 	0.5457	0.009	0.5466	0.062
Mof_N 	N 	0.3758	0.265	0.43287	-0.243
Mof_N 	N 	0.412	0.168	0.49945	-0.096
Mof_N 	N 	0.3413	0.1284	0.48284	-0.105
Mof_C 	C 	0.322	0.6895	0.9428	0.092
Mof_H 	H 	0.2759	0.682	0.923	-0.014
Mof_C 	C 	0.431	0.7484	0.96956	0.087
Mof_H 	H 	0.4765	0.7878	0.9736	-0.007
Mof_C 	C 	0.4584	0.6161	0.04126	-0.048
Mof_H 	H 	0.4234	0.5787	0.0653	0.045
Mof_H 	H 	0.4862	0.6677	0.0625	0.041
Mof_C 	C 	0.5169	0.5415	0.0173	-0.098
Mof_H 	H 	0.5543	0.5807	0.9959	0.06
Mof_H 	H 	0.5457	0.509	0.0466	0.062
Mof_N 	N 	0.3758	0.765	0.93287	-0.243
Mof_N 	N 	0.412	0.668	0.99945	-0.096
Mof_N 	N 	0.3413	0.6284	0.98284	-0.105
Mof_C 	C 	0.928	0.5605	0.9428	0.092
Mof_H 	H 	0.9741	0.568	0.923	-0.014
Mof_C 	C 	0.819	0.5016	0.96956	0.087
Mof_H 	H 	0.7735	0.4622	0.9736	-0.007
Mof_C 	C 	0.7916	0.6339	0.04126	-0.046
Mof_H 	H 	0.8266	0.6713	0.0653	0.045
Mof_H 	H 	0.7638	0.5823	0.0625	0.042
Mof_C 	C 	0.7331	0.7085	0.0173	-0.099
Mof_H 	H 	0.6957	0.6693	0.9959	0.061
Mof_H 	H 	0.7043	0.741	0.0466	0.064
Mof_N 	N 	0.8742	0.485	0.93287	-0.242
Mof_N 	N 	0.838	0.582	0.99945	-0.095
Mof_N 	N 	0.9087	0.6216	0.98284	-0.104
Mof_C 	C 	0.928	0.0605	0.4428	0.093
Mof_H 	H 	0.9741	0.068	0.423	-0.013
Mof_C 	C 	0.819	0.0016	0.46956	0.088
Mof_H 	H 	0.7735	0.9622	0.4736	-0.006
Mof_C 	C 	0.7916	0.1339	0.54126	-0.047
Mof_H 	H 	0.8266	0.1713	0.5653	0.046
Mof_H 	H 	0.7638	0.0823	0.5625	0.042
Mof_C 	C 	0.7331	0.2085	0.5173	-0.097
Mof_H 	H 	0.6957	0.1693	0.4959	0.061
Mof_H 	H 	0.7043	0.241	0.5466	0.063
Mof_N 	N 	0.8742	0.985	0.43287	-0.242
Mof_N 	N 	0.838	0.082	0.49945	-0.095
Mof_N 	N 	0.9087	0.1216	0.48284	-0.104
Mof_C 	C 	0.428	0.5605	0.4428	0.093
Mof_H 	H 	0.4741	0.568	0.423	-0.013
Mof_C 	C 	0.319	0.5016	0.46956	0.088
Mof_H 	H 	0.2735	0.4622	0.4736	-0.006
Mof_C 	C 	0.2916	0.6339	0.54126	-0.047
Mof_H 	H 	0.3266	0.6713	0.5653	0.046
Mof_H 	H 	0.2638	0.5823	0.5625	0.042
Mof_C 	C 	0.2331	0.7085	0.5173	-0.097
Mof_H 	H 	0.1957	0.6693	0.4959	0.061
Mof_H 	H 	0.2043	0.741	0.5466	0.063
Mof_N 	N 	0.3742	0.485	0.43287	-0.242
Mof_N 	N 	0.338	0.582	0.49945	-0.095
Mof_N 	N 	0.4087	0.6216	0.48284	-0.104
Mof_C 	C 	0.428	0.0605	0.9428	0.093
Mof_H 	H 	0.4741	0.068	0.923	-0.013
Mof_C 	C 	0.319	0.0016	0.96956	0.087
Mof_H 	H 	0.2735	0.9622	0.9736	-0.006
Mof_C 	C 	0.2916	0.1339	0.04126	-0.048
Mof_H 	H 	0.3266	0.1713	0.0653	0.046
Mof_H 	H 	0.2638	0.0823	0.0625	0.042
Mof_C 	C 	0.2331	0.2085	0.0173	-0.095
Mof_H 	H 	0.1957	0.1693	0.9959	0.06
Mof_H 	H 	0.2043	0.241	0.0466	0.062
Mof_N 	N 	0.3742	0.985	0.93287	-0.242
Mof_N 	N 	0.338	0.082	0.99945	-0.095
Mof_N 	N 	0.4087	0.1216	0.98284	-0.104
Mof_C 	C 	0.928	0.1895	0.8072	0.093
Mof_H 	H 	0.9741	0.182	0.827	-0.013
Mof_C 	C 	0.819	0.2484	0.78044	0.088
Mof_H 	H 	0.7735	0.2878	0.7764	-0.006
Mof_C 	C 	0.7916	0.1161	0.70874	-0.047
Mof_H 	H 	0.8266	0.0787	0.6847	0.046
Mof_H 	H 	0.7638	0.1677	0.6875	0.042
Mof_C 	C 	0.7331	0.0415	0.7327	-0.097
Mof_H 	H 	0.6957	0.0807	0.7541	0.061
Mof_H 	H 	0.7043	0.009	0.7034	0.063
Mof_N 	N 	0.8742	0.265	0.81713	-0.242
Mof_N 	N 	0.838	0.168	0.75055	-0.095
Mof_N 	N 	0.9087	0.1284	0.76716	-0.104
Mof_C 	C 	0.928	0.6895	0.3072	0.093
Mof_H 	H 	0.9741	0.682	0.327	-0.013
Mof_C 	C 	0.819	0.7484	0.28044	0.088
Mof_H 	H 	0.7735	0.7878	0.2764	-0.006
Mof_C 	C 	0.7916	0.6161	0.20874	-0.047
Mof_H 	H 	0.8266	0.5787	0.1847	0.046
Mof_H 	H 	0.7638	0.6677	0.1875	0.042
Mof_C 	C 	0.7331	0.5415	0.2327	-0.097
Mof_H 	H 	0.6957	0.5807	0.2541	0.061
Mof_H 	H 	0.7043	0.509	0.2034	0.063
Mof_N 	N 	0.8742	0.765	0.31713	-0.242
Mof_N 	N 	0.838	0.668	0.25055	-0.095
Mof_N 	N 	0.9087	0.6284	0.26716	-0.104
Mof_C 	C 	0.428	0.1895	0.3072	0.093
Mof_H 	H 	0.4741	0.182	0.327	-0.013
Mof_C 	C 	0.319	0.2484	0.28044	0.088
Mof_H 	H 	0.2735	0.2878	0.2764	-0.006
Mof_C 	C 	0.2916	0.1161	0.20874	-0.047
Mof_H 	H 	0.3266	0.0787	0.1847	0.046
Mof_H 	H 	0.2638	0.1677	0.1875	0.042
Mof_C 	C 	0.2331	0.0415	0.2327	-0.097
Mof_H 	H 	0.1957	0.0807	0.2541	0.061
Mof_H 	H 	0.2043	0.009	0.2034	0.063
Mof_N 	N 	0.3742	0.265	0.31713	-0.242
Mof_N 	N 	0.338	0.168	0.25055	-0.095
Mof_N 	N 	0.4087	0.1284	0.26716	-0.104
Mof_C 	C 	0.428	0.6895	0.8072	0.093
Mof_H 	H 	0.4741	0.682	0.827	-0.013
Mof_C 	C 	0.319	0.7484	0.78044	0.088
Mof_H 	H 	0.2735	0.7878	0.7764	-0.006
Mof_C 	C 	0.2916	0.6161	0.70874	-0.047
Mof_H 	H 	0.3266	0.5787	0.6847	0.046
Mof_H 	H 	0.2638	0.6677	0.6875	0.042
Mof_C 	C 	0.2331	0.5415	0.7327	-0.097
Mof_H 	H 	0.1957	0.5807	0.7541	0.061
Mof_H 	H 	0.2043	0.509	0.7034	0.063
Mof_N 	N 	0.3742	0.765	0.81713	-0.242
Mof_N 	N 	0.338	0.668	0.75055	-0.095
Mof_N 	N 	0.4087	0.6284	0.76716	-0.104
Mof_C 	C 	0.822	0.5605	0.8072	0.093
Mof_H 	H 	0.7759	0.568	0.827	-0.013
Mof_C 	C 	0.931	0.5016	0.78044	0.088
Mof_H 	H 	0.9765	0.4622	0.7764	-0.006
Mof_C 	C 	0.9584	0.6339	0.70874	-0.046
Mof_H 	H 	0.9234	0.6713	0.6847	0.045
Mof_H 	H 	0.9862	0.5823	0.6875	0.042
Mof_C 	C 	0.0169	0.7085	0.7327	-0.098
Mof_H 	H 	0.0543	0.6693	0.7541	0.061
Mof_H 	H 	0.0457	0.741	0.7034	0.063
Mof_N 	N 	0.8758	0.485	0.81713	-0.242
Mof_N 	N 	0.912	0.582	0.75055	-0.095
Mof_N 	N 	0.8413	0.6216	0.76716	-0.104
Mof_C 	C 	0.822	0.0605	0.3072	0.093
Mof_H 	H 	0.7759	0.068	0.327	-0.013
Mof_C 	C 	0.931	0.0016	0.28044	0.087
Mof_H 	H 	0.9765	0.9622	0.2764	-0.006
Mof_C 	C 	0.9584	0.1339	0.20874	-0.048
Mof_H 	H 	0.9234	0.1713	0.1847	0.046
Mof_H 	H 	0.9862	0.0823	0.1875	0.042
Mof_C 	C 	0.0169	0.2085	0.2327	-0.095
Mof_H 	H 	0.0543	0.1693	0.2541	0.06
Mof_H 	H 	0.0457	0.241	0.2034	0.062
Mof_N 	N 	0.8758	0.985	0.31713	-0.242
Mof_N 	N 	0.912	0.082	0.25055	-0.095
Mof_N 	N 	0.8413	0.1216	0.26716	-0.104
Mof_C 	C 	0.322	0.5605	0.3072	0.093
Mof_H 	H 	0.2759	0.568	0.327	-0.013
Mof_C 	C 	0.431	0.5016	0.28044	0.088
Mof_H 	H 	0.4765	0.4622	0.2764	-0.006
Mof_C 	C 	0.4584	0.6339	0.20874	-0.047
Mof_H 	H 	0.4234	0.6713	0.1847	0.046
Mof_H 	H 	0.4862	0.5823	0.1875	0.042
Mof_C 	C 	0.5169	0.7085	0.2327	-0.097
Mof_H 	H 	0.5543	0.6693	0.2541	0.061
Mof_H 	H 	0.5457	0.741	0.2034	0.063
Mof_N 	N 	0.3758	0.485	0.31713	-0.242
Mof_N 	N 	0.412	0.582	0.25055	-0.095
Mof_N 	N 	0.3413	0.6216	0.26716	-0.104
Mof_C 	C 	0.322	0.0605	0.8072	0.093
Mof_H 	H 	0.2759	0.068	0.827	-0.013
Mof_C 	C 	0.431	0.0016	0.78044	0.087
Mof_H 	H 	0.4765	0.9622	0.7764	-0.006
Mof_C 	C 	0.4584	0.1339	0.70874	-0.047
Mof_H 	H 	0.4234	0.1713	0.6847	0.046
Mof_H 	H 	0.4862	0.0823	0.6875	0.042
Mof_C 	C 	0.5169	0.2085	0.7327	-0.097
Mof_H 	H 	0.5543	0.1693	0.7541	0.061
Mof_H 	H 	0.5457	0.241	0.7034	0.063
Mof_N 	N 	0.3758	0.985	0.81713	-0.242
Mof_N 	N 	0.412	0.082	0.75055	-0.095
Mof_N 	N 	0.3413	0.1216	0.76716	-0.104
Mof_C 	C 	0.178	0.8105	0.0572	0.093
Mof_H 	H 	0.2241	0.818	0.077	-0.013
Mof_C 	C 	0.069	0.7516	0.03044	0.088
Mof_H 	H 	0.0235	0.7122	0.0264	-0.006
Mof_C 	C 	0.0416	0.8839	0.95874	-0.048
Mof_H 	H 	0.0766	0.9213	0.9347	0.046
Mof_H 	H 	0.0138	0.8323	0.9375	0.042
Mof_C 	C 	0.9831	0.9585	0.9827	-0.096
Mof_H 	H 	0.9457	0.9193	0.0041	0.06
Mof_H 	H 	0.9543	0.991	0.9534	0.063
Mof_N 	N 	0.1242	0.735	0.06713	-0.242
Mof_N 	N 	0.088	0.832	0.00055	-0.095
Mof_N 	N 	0.1587	0.8716	0.01716	-0.104
Mof_C 	C 	0.178	0.3105	0.5572	0.093
Mof_H 	H 	0.2241	0.318	0.577	-0.013
Mof_C 	C 	0.069	0.2516	0.53044	0.088
Mof_H 	H 	0.0235	0.2122	0.5264	-0.006
Mof_C 	C 	0.0416	0.3839	0.45874	-0.047
Mof_H 	H 	0.0766	0.4213	0.4347	0.046
Mof_H 	H 	0.0138	0.3323	0.4375	0.042
Mof_C 	C 	0.9831	0.4585	0.4827	-0.097
Mof_H 	H 	0.9457	0.4193	0.5041	0.061
Mof_H 	H 	0.9543	0.491	0.4534	0.063
Mof_N 	N 	0.1242	0.235	0.56713	-0.242
Mof_N 	N 	0.088	0.332	0.50055	-0.095
Mof_N 	N 	0.1587	0.3716	0.51716	-0.104
Mof_C 	C 	0.678	0.8105	0.5572	0.093
Mof_H 	H 	0.7241	0.818	0.577	-0.013
Mof_C 	C 	0.569	0.7516	0.53044	0.088
Mof_H 	H 	0.5235	0.7122	0.5264	-0.006
Mof_C 	C 	0.5416	0.8839	0.45874	-0.047
Mof_H 	H 	0.5766	0.9213	0.4347	0.046
Mof_H 	H 	0.5138	0.8323	0.4375	0.042
Mof_C 	C 	0.4831	0.9585	0.4827	-0.097
Mof_H 	H 	0.4457	0.9193	0.5041	0.061
Mof_H 	H 	0.4543	0.991	0.4534	0.063
Mof_N 	N 	0.6242	0.735	0.56713	-0.242
Mof_N 	N 	0.588	0.832	0.50055	-0.095
Mof_N 	N 	0.6587	0.8716	0.51716	-0.104
Mof_C 	C 	0.678	0.3105	0.0572	0.093
Mof_H 	H 	0.7241	0.318	0.077	-0.013
Mof_C 	C 	0.569	0.2516	0.03044	0.088
Mof_H 	H 	0.5235	0.2122	0.0264	-0.006
Mof_C 	C 	0.5416	0.3839	0.95874	-0.047
Mof_H 	H 	0.5766	0.4213	0.9347	0.046
Mof_H 	H 	0.5138	0.3323	0.9375	0.042
Mof_C 	C 	0.4831	0.4585	0.9827	-0.097
Mof_H 	H 	0.4457	0.4193	0.0041	0.061
Mof_H 	H 	0.4543	0.491	0.9534	0.063
Mof_N 	N 	0.6242	0.235	0.06713	-0.242
Mof_N 	N 	0.588	0.332	0.00055	-0.095
Mof_N 	N 	0.6587	0.3716	0.01716	-0.104
Mof_C 	C 	0.072	0.4395	0.0572	0.093
Mof_H 	H 	0.0259	0.432	0.077	-0.013
Mof_C 	C 	0.181	0.4984	0.03044	0.088
Mof_H 	H 	0.2265	0.5378	0.0264	-0.006
Mof_C 	C 	0.2084	0.3661	0.95874	-0.046
Mof_H 	H 	0.1734	0.3287	0.9347	0.045
Mof_H 	H 	0.2362	0.4177	0.9375	0.042
Mof_C 	C 	0.2669	0.2915	0.9827	-0.099
Mof_H 	H 	0.3043	0.3307	0.0041	0.061
Mof_H 	H 	0.2957	0.259	0.9534	0.064
Mof_N 	N 	0.1258	0.515	0.06713	-0.242
Mof_N 	N 	0.162	0.418	0.00055	-0.095
Mof_N 	N 	0.0913	0.3784	0.01716	-0.104
Mof_C 	C 	0.072	0.9395	0.5572	0.093
Mof_H 	H 	0.0259	0.932	0.577	-0.013
Mof_C 	C 	0.181	0.9984	0.53044	0.088
Mof_H 	H 	0.2265	0.0378	0.5264	-0.006
Mof_C 	C 	0.2084	0.8661	0.45874	-0.047
Mof_H 	H 	0.1734	0.8287	0.4347	0.046
Mof_H 	H 	0.2362	0.9177	0.4375	0.042
Mof_C 	C 	0.2669	0.7915	0.4827	-0.097
Mof_H 	H 	0.3043	0.8307	0.5041	0.061
Mof_H 	H 	0.2957	0.759	0.4534	0.063
Mof_N 	N 	0.1258	0.015	0.56713	-0.242
Mof_N 	N 	0.162	0.918	0.50055	-0.095
Mof_N 	N 	0.0913	0.8784	0.51716	-0.104
Mof_C 	C 	0.572	0.4395	0.5572	0.093
Mof_H 	H 	0.5259	0.432	0.577	-0.013
Mof_C 	C 	0.681	0.4984	0.53044	0.088
Mof_H 	H 	0.7265	0.5378	0.5264	-0.006
Mof_C 	C 	0.7084	0.3661	0.45874	-0.047
Mof_H 	H 	0.6734	0.3287	0.4347	0.046
Mof_H 	H 	0.7362	0.4177	0.4375	0.042
Mof_C 	C 	0.7669	0.2915	0.4827	-0.097
Mof_H 	H 	0.8043	0.3307	0.5041	0.061
Mof_H 	H 	0.7957	0.259	0.4534	0.063
Mof_N 	N 	0.6258	0.515	0.56713	-0.242
Mof_N 	N 	0.662	0.418	0.50055	-0.095
Mof_N 	N 	0.5913	0.3784	0.51716	-0.104
Mof_C 	C 	0.572	0.9395	0.0572	0.093
Mof_H 	H 	0.5259	0.932	0.077	-0.013
Mof_C 	C 	0.681	0.9984	0.03044	0.087
Mof_H 	H 	0.7265	0.0378	0.0264	-0.006
Mof_C 	C 	0.7084	0.8661	0.95874	-0.048
Mof_H 	H 	0.6734	0.8287	0.9347	0.046
Mof_H 	H 	0.7362	0.9177	0.9375	0.042
Mof_C 	C 	0.7669	0.7915	0.9827	-0.095
Mof_H 	H 	0.8043	0.8307	0.0041	0.06
Mof_H 	H 	0.7957	0.759	0.9534	0.062
Mof_N 	N 	0.6258	0.015	0.06713	-0.242
Mof_N 	N 	0.662	0.918	0.00055	-0.095
Mof_N 	N 	0.5913	0.8784	0.01716	-0.104
Mof_C 	C 	0.072	0.8105	0.1928	0.093
Mof_H 	H 	0.0259	0.818	0.173	-0.013
Mof_C 	C 	0.181	0.7516	0.21956	0.088
Mof_H 	H 	0.2265	0.7122	0.2236	-0.006
Mof_C 	C 	0.2084	0.8839	0.29126	-0.047
Mof_H 	H 	0.1734	0.9213	0.3153	0.046
Mof_H 	H 	0.2362	0.8323	0.3125	0.042
Mof_C 	C 	0.2669	0.9585	0.2673	-0.097
Mof_H 	H 	0.3043	0.9193	0.2459	0.061
Mof_H 	H 	0.2957	0.991	0.2966	0.063
Mof_N 	N 	0.1258	0.735	0.18287	-0.242
Mof_N 	N 	0.162	0.832	0.24945	-0.095
Mof_N 	N 	0.0913	0.8716	0.23284	-0.104
Mof_C 	C 	0.072	0.3105	0.6928	0.093
Mof_H 	H 	0.0259	0.318	0.673	-0.013
Mof_C 	C 	0.181	0.2516	0.71956	0.088
Mof_H 	H 	0.2265	0.2122	0.7236	-0.006
Mof_C 	C 	0.2084	0.3839	0.79126	-0.047
Mof_H 	H 	0.1734	0.4213	0.8153	0.046
Mof_H 	H 	0.2362	0.3323	0.8125	0.042
Mof_C 	C 	0.2669	0.4585	0.7673	-0.097
Mof_H 	H 	0.3043	0.4193	0.7459	0.061
Mof_H 	H 	0.2957	0.491	0.7966	0.063
Mof_N 	N 	0.1258	0.235	0.68287	-0.242
Mof_N 	N 	0.162	0.332	0.74945	-0.095
Mof_N 	N 	0.0913	0.3716	0.73284	-0.104
Mof_C 	C 	0.572	0.8105	0.6928	0.093
Mof_H 	H 	0.5259	0.818	0.673	-0.013
Mof_C 	C 	0.681	0.7516	0.71956	0.088
Mof_H 	H 	0.7265	0.7122	0.7236	-0.006
Mof_C 	C 	0.7084	0.8839	0.79126	-0.047
Mof_H 	H 	0.6734	0.9213	0.8153	0.046
Mof_H 	H 	0.7362	0.8323	0.8125	0.042
Mof_C 	C 	0.7669	0.9585	0.7673	-0.097
Mof_H 	H 	0.8043	0.9193	0.7459	0.061
Mof_H 	H 	0.7957	0.991	0.7966	0.063
Mof_N 	N 	0.6258	0.735	0.68287	-0.242
Mof_N 	N 	0.662	0.832	0.74945	-0.095
Mof_N 	N 	0.5913	0.8716	0.73284	-0.104
Mof_C 	C 	0.572	0.3105	0.1928	0.093
Mof_H 	H 	0.5259	0.318	0.173	-0.013
Mof_C 	C 	0.681	0.2516	0.21956	0.088
Mof_H 	H 	0.7265	0.2122	0.2236	-0.006
Mof_C 	C 	0.7084	0.3839	0.29126	-0.047
Mof_H 	H 	0.6734	0.4213	0.3153	0.046
Mof_H 	H 	0.7362	0.3323	0.3125	0.042
Mof_C 	C 	0.7669	0.4585	0.2673	-0.097
Mof_H 	H 	0.8043	0.4193	0.2459	0.061
Mof_H 	H 	0.7957	0.491	0.2966	0.063
Mof_N 	N 	0.6258	0.235	0.18287	-0.242
Mof_N 	N 	0.662	0.332	0.24945	-0.095
Mof_N 	N 	0.5913	0.3716	0.23284	-0.104
Mof_C 	C 	0.178	0.4395	0.1928	0.093
Mof_H 	H 	0.2241	0.432	0.173	-0.013
Mof_C 	C 	0.069	0.4984	0.21956	0.088
Mof_H 	H 	0.0235	0.5378	0.2236	-0.006
Mof_C 	C 	0.0416	0.3661	0.29126	-0.046
Mof_H 	H 	0.0766	0.3287	0.3153	0.045
Mof_H 	H 	0.0138	0.4177	0.3125	0.042
Mof_C 	C 	0.9831	0.2915	0.2673	-0.098
Mof_H 	H 	0.9457	0.3307	0.2459	0.061
Mof_H 	H 	0.9543	0.259	0.2966	0.063
Mof_N 	N 	0.1242	0.515	0.18287	-0.242
Mof_N 	N 	0.088	0.418	0.24945	-0.095
Mof_N 	N 	0.1587	0.3784	0.23284	-0.104
Mof_C 	C 	0.178	0.9395	0.6928	0.093
Mof_H 	H 	0.2241	0.932	0.673	-0.013
Mof_C 	C 	0.069	0.9984	0.71956	0.087
Mof_H 	H 	0.0235	0.0378	0.7236	-0.006
Mof_C 	C 	0.0416	0.8661	0.79126	-0.048
Mof_H 	H 	0.0766	0.8287	0.8153	0.046
Mof_H 	H 	0.0138	0.9177	0.8125	0.042
Mof_C 	C 	0.9831	0.7915	0.7673	-0.095
Mof_H 	H 	0.9457	0.8307	0.7459	0.06
Mof_H 	H 	0.9543	0.759	0.7966	0.062
Mof_N 	N 	0.1242	0.015	0.68287	-0.242
Mof_N 	N 	0.088	0.918	0.74945	-0.095
Mof_N 	N 	0.1587	0.8784	0.73284	-0.104
Mof_C 	C 	0.678	0.4395	0.6928	0.093
Mof_H 	H 	0.7241	0.432	0.673	-0.013
Mof_C 	C 	0.569	0.4984	0.71956	0.088
Mof_H 	H 	0.5235	0.5378	0.7236	-0.006
Mof_C 	C 	0.5416	0.3661	0.79126	-0.047
Mof_H 	H 	0.5766	0.3287	0.8153	0.046
Mof_H 	H 	0.5138	0.4177	0.8125	0.042
Mof_C 	C 	0.4831	0.2915	0.7673	-0.097
Mof_H 	H 	0.4457	0.3307	0.7459	0.061
Mof_H 	H 	0.4543	0.259	0.7966	0.063
Mof_N 	N 	0.6242	0.515	0.68287	-0.242
Mof_N 	N 	0.588	0.418	0.74945	-0.095
Mof_N 	N 	0.6587	0.3784	0.73284	-0.104
Mof_C 	C 	0.678	0.9395	0.1928	0.093
Mof_H 	H 	0.7241	0.932	0.173	-0.013
Mof_C 	C 	0.569	0.9984	0.21956	0.087
Mof_H 	H 	0.5235	0.0378	0.2236	-0.006
Mof_C 	C 	0.5416	0.8661	0.29126	-0.047
Mof_H 	H 	0.5766	0.8287	0.3153	0.046
Mof_H 	H 	0.5138	0.9177	0.3125	0.042
Mof_C 	C 	0.4831	0.7915	0.2673	-0.097
Mof_H 	H 	0.4457	0.8307	0.2459	0.061
Mof_H 	H 	0.4543	0.759	0.2966	0.063
Mof_N 	N 	0.6242	0.015	0.18287	-0.242
Mof_N 	N 	0.588	0.918	0.24945	-0.095
Mof_N 	N 	0.6587	0.8784	0.23284	-0.104
Mof_Cu	Cu	0.875	0.375	0.875	0.853
Mof_Cu	Cu	0.875	0.875	0.375	0.853
Mof_Cu	Cu	0.375	0.375	0.375	0.853
Mof_Cu	Cu	0.375	0.875	0.875	0.853
Mof_Cu	Cu	0.125	0.625	0.125	0.853
Mof_Cu	Cu	0.125	0.125	0.625	0.853
Mof_Cu	Cu	0.625	0.625	0.625	0.853
Mof_Cu	Cu	0.625	0.125	0.125	0.853
_end
