data_functionalizedCrystal
_audit_creation_method	'EQeq! by Chris Wilmer'
_symmetry_space_group_name_H-M	'P1'
_symmetry_Int_Tables_number	1
_symmetry_cell_setting	triclinic
loop_
_symmetry_equiv_pos_as_xyz
  x,y,z
_cell_length_a	9.599
_cell_length_b	13.367
_cell_length_c	14.4683
_cell_angle_alpha	95.0699
_cell_angle_beta	109.374
_cell_angle_gamma	74.55
loop_
_atom_site_label
_atom_site_type_symbol
_atom_site_fract_x
_atom_site_fract_y
_atom_site_fract_z
_atom_site_charge
Mof_Cu	Cu	0.18429	0.9815	0.22678	0.895
Mof_Cu	Cu	0.95751	0.4815	0.77322	0.875
Mof_H 	H 	0.5787	0.6739	0.1506	0.043
Mof_H 	H 	0.5693	0.822	0.864	0.125
Mof_H 	H 	0.7472	0.512	0.1524	-0.004
Mof_H 	H 	0.8225	0.5437	0.0866	-0.225
Mof_H 	H 	0.7496	0.4676	0.0346	-0.09
Mof_H 	H 	0.4277	0.9773	0.9206	0.439
Mof_H 	H 	0.3003	0.9234	0.8622	0.374
Mof_H 	H 	0.3117	0.9622	0.9682	0.365
Mof_H 	H 	0.2268	0.8473	0.5568	0.267
Mof_H 	H 	0.9022	0.6339	0.4458	0.065
Mof_H 	H 	0.303	0.7501	0.7294	0.472
Mof_H 	H 	0.1617	0.7307	0.7474	0.61
Mof_H 	H 	0.1625	0.8419	0.7252	0.576
Mof_H 	H 	0.8682	0.7739	0.26	0.192
Mof_H 	H 	0.8696	0.6604	0.2762	0.293
Mof_H 	H 	0.0096	0.6843	0.2604	0.189
Mof_H 	H 	0.4281	0.1739	0.8494	0.027
Mof_H 	H 	0.7053	0.322	0.136	0.119
Mof_H 	H 	0.5948	0.012	0.8476	-0.052
Mof_H 	H 	0.7359	0.0437	0.9134	-0.31
Mof_H 	H 	0.715	0.9676	0.9654	-0.081
Mof_H 	H 	0.5071	0.4773	0.0794	0.398
Mof_H 	H 	0.4381	0.4234	0.1378	0.347
Mof_H 	H 	0.3435	0.4622	0.0318	0.332
Mof_H 	H 	0.67	0.3473	0.4432	0.228
Mof_H 	H 	0.4564	0.1339	0.5542	0.093
Mof_H 	H 	0.5736	0.2501	0.2706	0.422
Mof_H 	H 	0.4143	0.2307	0.2526	0.543
Mof_H 	H 	0.4373	0.3419	0.2748	0.515
Mof_H 	H 	0.6082	0.2739	0.74	0.208
Mof_H 	H 	0.5934	0.1604	0.7238	0.323
Mof_H 	H 	0.7492	0.1843	0.7396	0.216
Mof_C 	C 	0.384	0.854	0.11	0.195
Mof_C 	C 	0.482	0.788	0.052	-0.263
Mof_C 	C 	0.5767	0.698	0.0934	0.115
Mof_C 	C 	0.6691	0.631	0.0422	-0.181
Mof_C 	C 	0.6623	0.668	0.9526	0.106
Mof_C 	C 	0.5674	0.77	0.9168	-0.275
Mof_C 	C 	0.4732	0.8272	0.9664	0.4
Mof_C 	C 	0.7498	0.61	0.8996	0.031
Mof_C 	C 	0.7704	0.529	0.0808	0.413
Mof_C 	C 	0.3721	0.934	0.9262	-1.126
Mof_C 	C 	0.1349	0.84	0.3718	0.087
Mof_C 	C 	0.095	0.788	0.44	0.13
Mof_C 	C 	0.1643	0.802	0.5406	-0.493
Mof_C 	C 	0.1335	0.753	0.609	0.735
Mof_C 	C 	0.0257	0.691	0.5694	-0.336
Mof_C 	C 	0.9681	0.673	0.4702	0.11
Mof_C 	C 	0.0064	0.724	0.4068	0.031
Mof_C 	C 	0.9971	0.629	0.6382	0.247
Mof_C 	C 	0.1877	0.769	0.7114	-1.697
Mof_C 	C 	0.9277	0.703	0.2914	-0.55
Mof_C 	C 	0.274	0.354	0.89	0.185
Mof_C 	C 	0.43	0.288	0.948	-0.272
Mof_C 	C 	0.4833	0.198	0.9066	0.132
Mof_C 	C 	0.6269	0.131	0.9578	-0.231
Mof_C 	C 	0.7097	0.168	0.0474	0.122
Mof_C 	C 	0.6506	0.27	0.0832	-0.277
Mof_C 	C 	0.5068	0.3272	0.0336	0.384
Mof_C 	C 	0.8502	0.11	0.1004	0.014
Mof_C 	C 	0.6896	0.029	0.9192	0.519
Mof_C 	C 	0.4459	0.434	0.0738	-1.059
Mof_C 	C 	0.7631	0.34	0.6282	0.095
Mof_C 	C 	0.655	0.288	0.56	0.063
Mof_C 	C 	0.6237	0.302	0.4594	-0.414
Mof_C 	C 	0.5245	0.253	0.391	0.628
Mof_C 	C 	0.4563	0.191	0.4306	-0.26
Mof_C 	C 	0.4979	0.173	0.5298	0.006
Mof_C 	C 	0.5996	0.224	0.5932	0.109
Mof_C 	C 	0.3589	0.129	0.3618	0.202
Mof_C 	C 	0.4763	0.269	0.2886	-1.521
Mof_C 	C 	0.6363	0.203	0.7086	-0.654
Mof_N 	N 	0.3147	0.8966	0.1514	-0.281
Mof_N 	N 	0.8319	0.5566	0.8558	-0.229
Mof_N 	N 	0.1569	0.887	0.3158	-0.204
Mof_N 	N 	0.973	0.5836	0.686	-0.285
Mof_N 	N 	0.1633	0.3966	0.8486	-0.293
Mof_N 	N 	0.9761	0.0566	0.1442	-0.244
Mof_N 	N 	0.8411	0.387	0.6842	-0.219
Mof_N 	N 	0.287	0.0836	0.314	-0.294
Mof_B 	B 	0.2619	0.061	0.6538	4.144
Mof_F 	F 	0.3899	0.996	0.6978	-1.296
Mof_F 	F 	0.2383	0.0486	0.5546	-1.237
Mof_F 	F 	0.296	0.152	0.682	-1.299
Mof_F 	F 	0.1585	0.038	0.681	-1.426
Mof_B 	B 	0.6081	0.561	0.3462	4.263
Mof_F 	F 	0.6921	0.496	0.3022	-1.365
Mof_F 	F 	0.6837	0.5486	0.4454	-1.237
Mof_F 	F 	0.614	0.652	0.318	-1.312
Mof_F 	F 	0.4775	0.538	0.319	-1.425
_end
