data_functionalizedCrystal
_audit_creation_method	'EQeq! by Chris Wilmer'
_symmetry_space_group_name_H-M	'P1'
_symmetry_Int_Tables_number	1
_symmetry_cell_setting	triclinic
loop_
_symmetry_equiv_pos_as_xyz
  x,y,z
_cell_length_a	16.9643
_cell_length_b	16.9643
_cell_length_c	7.6067
_cell_angle_alpha	90
_cell_angle_beta	90
_cell_angle_gamma	90
loop_
_atom_site_label
_atom_site_type_symbol
_atom_site_fract_x
_atom_site_fract_y
_atom_site_fract_z
_atom_site_charge
Mof_O 	O 	0.5348	0.3807	0.0169	-0.569
Mof_N 	N 	0.423	0.3135	0.0777	-0.303
Mof_H 	H 	0.398	0.3556	0.0486	0.128
Mof_C 	C 	0.5038	0.3168	0.072	0.4
Mof_O 	O 	0.0348	0.8807	0.5169	-0.499
Mof_N 	N 	0.923	0.8135	0.5777	-0.219
Mof_H 	H 	0.898	0.8556	0.5486	0.165
Mof_C 	C 	0.0038	0.8168	0.572	0.266
Mof_O 	O 	0.4652	0.6193	0.0169	-0.567
Mof_N 	N 	0.577	0.6865	0.0777	-0.3
Mof_H 	H 	0.602	0.6444	0.0486	0.129
Mof_C 	C 	0.4962	0.6832	0.072	0.401
Mof_O 	O 	0.9652	0.1193	0.5169	-0.553
Mof_N 	N 	0.077	0.1865	0.5777	-0.389
Mof_H 	H 	0.102	0.1444	0.5486	0.142
Mof_C 	C 	0.9962	0.1832	0.572	0.559
Mof_O 	O 	0.3807	0.4652	0.9831	-0.493
Mof_N 	N 	0.3135	0.577	0.9223	-0.304
Mof_H 	H 	0.3556	0.602	0.9514	0.175
Mof_C 	C 	0.3168	0.4962	0.928	0.415
Mof_O 	O 	0.8807	0.9652	0.4831	-0.478
Mof_N 	N 	0.8135	0.077	0.4223	-0.383
Mof_H 	H 	0.8556	0.102	0.4514	0.156
Mof_C 	C 	0.8168	0.9962	0.428	0.552
Mof_O 	O 	0.6193	0.5348	0.9831	-0.491
Mof_N 	N 	0.6865	0.423	0.9223	-0.304
Mof_H 	H 	0.6444	0.398	0.9514	0.175
Mof_C 	C 	0.6832	0.5038	0.928	0.417
Mof_O 	O 	0.1193	0.0348	0.4831	-0.572
Mof_N 	N 	0.1865	0.923	0.4223	-0.222
Mof_H 	H 	0.1444	0.898	0.4514	0.147
Mof_C 	C 	0.1832	0.0038	0.428	0.259
Mof_O 	O 	0.9652	0.3807	0.7331	-0.516
Mof_N 	N 	0.077	0.3135	0.6723	-0.387
Mof_H 	H 	0.102	0.3556	0.7014	0.149
Mof_C 	C 	0.9962	0.3168	0.678	0.559
Mof_O 	O 	0.4652	0.8807	0.2331	-0.492
Mof_N 	N 	0.577	0.8135	0.1723	-0.3
Mof_H 	H 	0.602	0.8556	0.2014	0.159
Mof_C 	C 	0.4962	0.8168	0.178	0.403
Mof_O 	O 	0.0348	0.6193	0.7331	-0.535
Mof_N 	N 	0.923	0.6865	0.6723	-0.219
Mof_H 	H 	0.898	0.6444	0.7014	0.158
Mof_C 	C 	0.0038	0.6832	0.678	0.265
Mof_O 	O 	0.5348	0.1193	0.2331	-0.567
Mof_N 	N 	0.423	0.1865	0.1723	-0.307
Mof_H 	H 	0.398	0.1444	0.2014	0.142
Mof_C 	C 	0.5038	0.1832	0.178	0.402
Mof_O 	O 	0.1193	0.4652	0.7669	-0.565
Mof_N 	N 	0.1865	0.577	0.8277	-0.303
Mof_H 	H 	0.1444	0.602	0.7986	0.146
Mof_C 	C 	0.1832	0.4962	0.822	0.413
Mof_O 	O 	0.6193	0.9652	0.2669	-0.519
Mof_N 	N 	0.6865	0.077	0.3277	-0.385
Mof_H 	H 	0.6444	0.102	0.2986	0.147
Mof_C 	C 	0.6832	0.9962	0.322	0.554
Mof_O 	O 	0.8807	0.5348	0.7669	-0.489
Mof_N 	N 	0.8135	0.423	0.8277	-0.301
Mof_H 	H 	0.8556	0.398	0.7986	0.162
Mof_C 	C 	0.8168	0.5038	0.822	0.415
Mof_O 	O 	0.3807	0.0348	0.2669	-0.542
Mof_N 	N 	0.3135	0.923	0.3277	-0.221
Mof_H 	H 	0.3556	0.898	0.2986	0.155
Mof_C 	C 	0.3168	0.0038	0.322	0.259
Mof_Mg	Mg	0.5	0.5	-0	1.451
Mof_Mg	Mg	8.40605e-34	0	0.5	1.433
Mof_Mg	Mg	4.14376e-33	0.5	0.75	1.446
Mof_Mg	Mg	0.5	0	0.25	1.445
Mof_S 	S 	0.28243	0.25	0.125	-0.16
Mof_C 	C 	0.3784	0.25	0.125	0.167
Mof_C 	C 	0.5458	0.25	0.125	-0.475
Mof_H 	H 	0.6006	0.25	0.125	0.19
Mof_S 	S 	0.71757	0.75	0.125	-0.105
Mof_C 	C 	0.6216	0.75	0.125	0.165
Mof_C 	C 	0.4542	0.75	0.125	-0.46
Mof_H 	H 	0.3994	0.75	0.125	0.193
Mof_S 	S 	0.21757	0.25	0.625	-0.099
Mof_C 	C 	0.1216	0.25	0.625	0.161
Mof_C 	C 	0.9542	0.25	0.625	-0.553
Mof_H 	H 	0.8994	0.25	0.625	0.237
Mof_S 	S 	0.25	0.71757	0.875	-0.043
Mof_C 	C 	0.25	0.6216	0.875	0.168
Mof_C 	C 	0.25	0.4542	0.875	-0.467
Mof_H 	H 	0.25	0.3994	0.875	0.214
Mof_S 	S 	0.75	0.21757	0.375	-0.119
Mof_C 	C 	0.75	0.1216	0.375	0.168
Mof_C 	C 	0.75	0.9542	0.375	-0.537
Mof_H 	H 	0.75	0.8994	0.375	0.239
Mof_S 	S 	0.75	0.28243	0.875	-0.063
Mof_C 	C 	0.75	0.3784	0.875	0.18
Mof_C 	C 	0.75	0.5458	0.875	-0.453
Mof_H 	H 	0.75	0.6006	0.875	0.22
Mof_S 	S 	0.25	0.78243	0.375	-0.103
Mof_C 	C 	0.25	0.8784	0.375	0.175
Mof_C 	C 	0.25	0.0458	0.375	-0.389
Mof_H 	H 	0.25	0.1006	0.375	0.168
Mof_S 	S 	0.78243	0.75	0.625	-0.049
Mof_C 	C 	0.8784	0.75	0.625	0.178
Mof_C 	C 	0.0458	0.75	0.625	-0.376
Mof_H 	H 	0.1006	0.75	0.625	0.173
_end
