data_functionalizedCrystal
_audit_creation_method	'EQeq! by Chris Wilmer'
_symmetry_space_group_name_H-M	'P1'
_symmetry_Int_Tables_number	1
_symmetry_cell_setting	triclinic
loop_
_symmetry_equiv_pos_as_xyz
  x,y,z
_cell_length_a	9.8601
_cell_length_b	12.7307
_cell_length_c	17.6478
_cell_angle_alpha	90
_cell_angle_beta	90
_cell_angle_gamma	90
loop_
_atom_site_label
_atom_site_type_symbol
_atom_site_fract_x
_atom_site_fract_y
_atom_site_fract_z
_atom_site_charge
Mof_Cu	Cu	1.07426e-33	0.25	0.16008	0.889
Mof_Cu	Cu	0.5	0.75	0.66008	0.908
Mof_H 	H 	0.5791	0.1993	0.0173	0.026
Mof_H 	H 	0.3698	0.678	0.8174	0.013
Mof_H 	H 	0.6302	0.822	0.8174	0.015
Mof_H 	H 	0.6389	0.5267	0.6935	0.015
Mof_H 	H 	0.4209	0.3007	0.0173	0.022
Mof_H 	H 	0.0364	0.6196	0.4165	0.033
Mof_H 	H 	0.8611	0.0267	0.1935	0.015
Mof_H 	H 	0.6072	0.5025	0.487	0.046
Mof_H 	H 	0.7807	0.9221	0.887	0.103
Mof_H 	H 	0.1302	0.178	0.3174	0.023
Mof_H 	H 	0.8698	0.322	0.3174	0.005
Mof_H 	H 	0.5364	0.3804	0.9165	0.108
Mof_H 	H 	0.3928	0.9975	0.487	0.02
Mof_H 	H 	0.8928	0.0025	0.987	0.047
Mof_H 	H 	0.2193	0.5779	0.887	0.093
Mof_H 	H 	0.1389	0.4733	0.1935	0.012
Mof_H 	H 	0.1072	0.4975	0.987	0.017
Mof_H 	H 	0.4636	0.1196	0.9165	0.102
Mof_H 	H 	0.0791	0.8007	0.5173	-0.018
Mof_H 	H 	0.3611	0.9733	0.6935	0.012
Mof_H 	H 	0.7193	0.4221	0.387	0.084
Mof_H 	H 	0.9209	0.6993	0.5173	0.062
Mof_H 	H 	0.2807	0.0779	0.387	0.107
Mof_H 	H 	0.9636	0.8804	0.4165	0.176
Mof_C 	C 	0.7398	0.979	0.9133	-0.158
Mof_C 	C 	0.886	0.5151	0.3927	0.118
Mof_C 	C 	0.1946	0.4732	0.9727	0.082
Mof_C 	C 	0.4485	0.4038	0.9308	-0.169
Mof_C 	C 	0.0694	0.1263	0.2986	0.046
Mof_C 	C 	0.0763	0.4574	0.2327	0.09
Mof_C 	C 	0.9237	0.0426	0.2327	0.111
Mof_C 	C 	0.3214	0.8353	0.575	0.343
Mof_C 	C 	0.9485	0.5962	0.4308	-0.03
Mof_C 	C 	0.114	0.9849	0.3927	0.2
Mof_C 	C 	0.3795	0.357	0.9907	0.078
Mof_C 	C 	0.7476	0.1093	0.0123	-0.108
Mof_C 	C 	0.7524	0.6093	0.5123	-0.079
Mof_C 	C 	0.8054	0.0268	0.9727	0.071
Mof_C 	C 	0.6786	0.6647	0.575	0.313
Mof_C 	C 	0.0515	0.9038	0.4308	-0.295
Mof_C 	C 	0.5515	0.0962	0.9308	-0.158
Mof_C 	C 	0.614	0.0151	0.8927	0.163
Mof_C 	C 	0.2476	0.8907	0.5123	-0.165
Mof_C 	C 	0.5694	0.8737	0.7986	0.095
Mof_C 	C 	0.2524	0.3907	0.0123	-0.131
Mof_C 	C 	0.8795	0.643	0.4907	0.003
Mof_C 	C 	0.4237	0.9574	0.7327	0.098
Mof_C 	C 	0.2398	0.021	0.4133	-0.195
Mof_C 	C 	0.6946	0.5268	0.4727	0.038
Mof_C 	C 	0.5763	0.5426	0.7327	0.099
Mof_C 	C 	0.386	0.4849	0.8927	0.167
Mof_C 	C 	0.2602	0.521	0.9133	-0.173
Mof_C 	C 	0.1786	0.3353	0.075	0.332
Mof_C 	C 	0.7602	0.479	0.4133	-0.121
Mof_C 	C 	0.9306	0.3737	0.2986	0.144
Mof_C 	C 	0.8214	0.1647	0.075	0.323
Mof_C 	C 	0.3054	0.9732	0.4727	0.108
Mof_C 	C 	0.6205	0.143	0.9907	0.065
Mof_C 	C 	0.4306	0.6263	0.7986	0.094
Mof_C 	C 	0.1205	0.857	0.4907	0.146
Mof_N 	N 	0.9527	0.4681	0.3294	-0.096
Mof_N 	N 	0.0473	0.0319	0.3294	-0.134
Mof_N 	N 	0.0078	0.364	0.2374	-0.255
Mof_N 	N 	0.5078	0.636	0.7374	-0.226
Mof_N 	N 	0.9529	0.9774	0.2877	-0.07
Mof_N 	N 	0.5473	0.9681	0.8294	-0.117
Mof_N 	N 	0.0471	0.5226	0.2877	-0.108
Mof_N 	N 	0.4529	0.0226	0.7877	-0.086
Mof_N 	N 	0.5471	0.4774	0.7877	-0.087
Mof_N 	N 	0.4922	0.864	0.7374	-0.226
Mof_N 	N 	0.9922	0.136	0.2374	-0.193
Mof_N 	N 	0.4527	0.5319	0.8294	-0.118
Mof_O 	O 	0.9487	0.1481	0.08041	-0.344
Mof_O 	O 	0.4487	0.8519	0.58041	-0.375
Mof_O 	O 	0.2587	0.7759	0.6179	-0.334
Mof_O 	O 	0.7413	0.7241	0.6179	-0.314
Mof_O 	O 	0.0513	0.3519	0.08041	-0.39
Mof_O 	O 	0.7587	0.2241	0.1179	-0.315
Mof_O 	O 	0.5513	0.6481	0.58041	-0.367
Mof_O 	O 	0.2413	0.2759	0.1179	-0.328
Mof_Cu	Cu	0.5	0.25	0.33992	0.909
Mof_Cu	Cu	5.63649e-33	0.75	0.83992	0.889
Mof_H 	H 	0.6389	0.0267	0.3065	0.014
Mof_H 	H 	0.5791	0.6993	0.9827	0.023
Mof_H 	H 	0.1389	0.9733	0.8065	0.013
Mof_H 	H 	0.7807	0.4221	0.113	0.104
Mof_H 	H 	0.0364	0.1196	0.5835	0.037
Mof_H 	H 	0.4636	0.6196	0.0835	0.103
Mof_H 	H 	0.8611	0.5267	0.8065	0.015
Mof_H 	H 	0.6302	0.322	0.1826	0.015
Mof_H 	H 	0.5364	0.8804	0.0835	0.103
Mof_H 	H 	0.3928	0.4975	0.513	0.016
Mof_H 	H 	0.1302	0.678	0.6826	0.023
Mof_H 	H 	0.7193	0.9221	0.613	0.087
Mof_H 	H 	0.8698	0.822	0.6826	0.004
Mof_H 	H 	0.3611	0.4733	0.3065	0.012
Mof_H 	H 	0.3698	0.178	0.1826	0.014
Mof_H 	H 	0.4209	0.8007	0.9827	0.025
Mof_H 	H 	0.6072	0.0025	0.513	0.044
Mof_H 	H 	0.9636	0.3804	0.5835	0.179
Mof_H 	H 	0.8928	0.5025	0.013	0.046
Mof_H 	H 	0.2193	0.0779	0.113	0.085
Mof_H 	H 	0.1072	0.9975	0.013	0.022
Mof_H 	H 	0.0791	0.3007	0.4827	-0.02
Mof_H 	H 	0.9209	0.1993	0.4827	0.06
Mof_H 	H 	0.2807	0.5779	0.613	0.113
Mof_C 	C 	0.886	0.0151	0.6073	0.126
Mof_C 	C 	0.1946	0.9732	0.0273	0.06
Mof_C 	C 	0.1205	0.357	0.5093	0.154
Mof_C 	C 	0.2602	0.021	0.0867	-0.147
Mof_C 	C 	0.0515	0.4038	0.5692	-0.303
Mof_C 	C 	0.9306	0.8737	0.7014	0.145
Mof_C 	C 	0.7602	0.979	0.5867	-0.132
Mof_C 	C 	0.0763	0.9574	0.7673	0.088
Mof_C 	C 	0.2398	0.521	0.5867	-0.215
Mof_C 	C 	0.1786	0.8353	0.925	0.327
Mof_C 	C 	0.2476	0.3907	0.4877	-0.172
Mof_C 	C 	0.4306	0.1263	0.2014	0.093
Mof_C 	C 	0.5763	0.0426	0.2673	0.103
Mof_C 	C 	0.4237	0.4574	0.2673	0.1
Mof_C 	C 	0.9237	0.5426	0.7673	0.109
Mof_C 	C 	0.6205	0.643	0.0093	0.074
Mof_C 	C 	0.386	0.9849	0.1073	0.148
Mof_C 	C 	0.8795	0.143	0.5093	0.01
Mof_C 	C 	0.114	0.4849	0.6073	0.215
Mof_C 	C 	0.6946	0.0268	0.5273	0.047
Mof_C 	C 	0.5694	0.3737	0.2014	0.096
Mof_C 	C 	0.4485	0.9038	0.0692	-0.156
Mof_C 	C 	0.614	0.5151	0.1073	0.164
Mof_C 	C 	0.8214	0.6647	0.925	0.325
Mof_C 	C 	0.6786	0.1647	0.425	0.315
Mof_C 	C 	0.3214	0.3353	0.425	0.346
Mof_C 	C 	0.5515	0.5962	0.0692	-0.162
Mof_C 	C 	0.3054	0.4732	0.5273	0.123
Mof_C 	C 	0.9485	0.0962	0.5692	-0.039
Mof_C 	C 	0.0694	0.6263	0.7014	0.045
Mof_C 	C 	0.7524	0.1093	0.4877	-0.084
Mof_C 	C 	0.2524	0.8907	0.9877	-0.119
Mof_C 	C 	0.3795	0.857	0.0093	0.066
Mof_C 	C 	0.7476	0.6093	0.9877	-0.116
Mof_C 	C 	0.7398	0.479	0.0867	-0.16
Mof_C 	C 	0.8054	0.5268	0.0273	0.076
Mof_N 	N 	0.4922	0.364	0.2626	-0.226
Mof_N 	N 	0.4529	0.5226	0.2123	-0.088
Mof_N 	N 	0.0471	0.0226	0.7123	-0.105
Mof_N 	N 	0.5473	0.4681	0.1706	-0.116
Mof_N 	N 	0.0078	0.864	0.7626	-0.255
Mof_N 	N 	0.0473	0.5319	0.6706	-0.139
Mof_N 	N 	0.9529	0.4774	0.7123	-0.067
Mof_N 	N 	0.9922	0.636	0.7626	-0.192
Mof_N 	N 	0.9527	0.9681	0.6706	-0.098
Mof_N 	N 	0.5078	0.136	0.2626	-0.226
Mof_N 	N 	0.5471	0.9774	0.2123	-0.091
Mof_N 	N 	0.4527	0.0319	0.1706	-0.112
Mof_O 	O 	0.5513	0.1481	0.41959	-0.367
Mof_O 	O 	0.7587	0.7241	0.8821	-0.316
Mof_O 	O 	0.2413	0.7759	0.8821	-0.327
Mof_O 	O 	0.4487	0.3519	0.41959	-0.375
Mof_O 	O 	0.9487	0.6481	0.91959	-0.345
Mof_O 	O 	0.0513	0.8519	0.91959	-0.389
Mof_O 	O 	0.2587	0.2759	0.3821	-0.334
Mof_O 	O 	0.7413	0.2241	0.3821	-0.314
_end
