data_functionalizedCrystal
_audit_creation_method	'EQeq! by Chris Wilmer'
_symmetry_space_group_name_H-M	'P1'
_symmetry_Int_Tables_number	1
_symmetry_cell_setting	triclinic
loop_
_symmetry_equiv_pos_as_xyz
  x,y,z
_cell_length_a	16.792
_cell_length_b	41.0465
_cell_length_c	41.0465
_cell_angle_alpha	120
_cell_angle_beta	90
_cell_angle_gamma	90
loop_
_atom_site_label
_atom_site_type_symbol
_atom_site_fract_x
_atom_site_fract_y
_atom_site_fract_z
_atom_site_charge
Mof_Zr	Zr	0.10288	0.45821	0.45821	3.22
Mof_Zr	Zr	-0	0.9333	0.46665	3.212
Mof_Zr	Zr	0.89712	0.45821	-0	3.22
Mof_Zr	Zr	0.10288	3.71206e-17	0.45821	3.217
Mof_Zr	Zr	0.89712	0.54179	0.54179	3.222
Mof_Zr	Zr	0.89712	0	0.54179	3.22
Mof_Zr	Zr	0.89712	3.71206e-17	0.45821	3.22
Mof_Zr	Zr	0.10288	0.54179	0.54179	3.22
Mof_Zr	Zr	0.10288	0.45821	-0	3.217
Mof_Zr	Zr	0.89712	0.45821	0.45821	3.223
Mof_Zr	Zr	0.10288	0	0.54179	3.218
Mof_Zr	Zr	0.10288	0.54179	-0	3.218
Mof_Zr	Zr	0.89712	0.54179	-0	3.221
Mof_Zr	Zr	1.64849e-32	0.0667	0.53335	3.214
Mof_Zr	Zr	1.64849e-32	0.53335	0.46665	3.214
Mof_Zr	Zr	-1.13333e-32	0.53335	0.0667	3.214
Mof_Zr	Zr	-0	0.46665	0.9333	3.213
Mof_Zr	Zr	3.29697e-32	0.46665	0.53335	3.214
Mof_H 	H 	0.85407	0.60174	-0	0.166
Mof_H 	H 	0.18268	0.78188	0.31295	0.045
Mof_H 	H 	0.85407	0.39826	0.39826	0.169
Mof_H 	H 	0.18268	0.68705	0.46893	0.045
Mof_H 	H 	0.24925	0	0.43964	0.167
Mof_H 	H 	0.65592	0.13608	0.68579	0.052
Mof_H 	H 	0.34408	0.54971	0.86392	0.054
Mof_H 	H 	0.78158	0.75217	0.24783	0.046
Mof_H 	H 	0.73205	0.54885	0.63453	0.039
Mof_H 	H 	0.4282	0.33241	0.50126	0.046
Mof_H 	H 	0.4282	0.66759	0.49874	0.046
Mof_H 	H 	0.5718	0.49874	0.66759	0.046
Mof_H 	H 	0.18268	0.46893	0.78188	0.045
Mof_H 	H 	0.81732	0.21812	0.53107	0.052
Mof_H 	H 	0.4282	0.83115	0.49874	0.047
Mof_H 	H 	0.26795	0.91432	0.54885	0.042
Mof_H 	H 	0.89288	0.53219	0.16769	0.046
Mof_H 	H 	0.4282	0.50126	0.16885	0.045
Mof_H 	H 	0.4282	0.33241	0.83115	0.047
Mof_H 	H 	0.75075	0	0.43964	0.168
Mof_H 	H 	0.34408	0.86392	0.54971	0.054
Mof_H 	H 	0.89288	0.16769	0.53219	0.046
Mof_H 	H 	0.24925	7.42412e-17	0.56036	0.167
Mof_H 	H 	0.10712	0.83231	0.46781	0.033
Mof_H 	H 	0.4282	0.16885	0.50126	0.045
Mof_H 	H 	0.26795	0.54885	0.63453	0.037
Mof_H 	H 	0.78158	0.50434	0.75217	0.046
Mof_H 	H 	0.81732	0.46893	0.68705	0.052
Mof_H 	H 	0.73205	0.45115	0.36547	0.038
Mof_H 	H 	0.26795	0.36547	0.91432	0.041
Mof_H 	H 	0.81732	0.31295	0.53107	0.052
Mof_H 	H 	0.18268	0.31295	0.53107	0.045
Mof_H 	H 	0.73205	0.45115	0.08568	0.036
Mof_H 	H 	0.89288	0.46781	0.83231	0.047
Mof_H 	H 	0.34408	0.68579	0.54971	0.052
Mof_H 	H 	0.89288	0.83231	0.46781	0.047
Mof_H 	H 	0.34408	0.31421	0.45029	0.05
Mof_H 	H 	0.5718	0.16885	0.66759	0.045
Mof_H 	H 	0.34408	0.45029	0.13608	0.049
Mof_H 	H 	0.4282	0.16885	0.66759	0.045
Mof_H 	H 	0.81732	0.21812	0.68705	0.052
Mof_H 	H 	0.26795	0.45115	0.08568	0.034
Mof_H 	H 	0.85407	0	0.60174	0.166
Mof_H 	H 	0.18268	0.21812	0.68705	0.045
Mof_H 	H 	0.85407	0.39826	-0	0.165
Mof_H 	H 	0.4282	0.49874	0.66759	0.046
Mof_H 	H 	0.89288	0.6355	0.16769	0.047
Mof_H 	H 	0.10712	0.53219	0.16769	0.032
Mof_H 	H 	0.73205	0.36547	0.91432	0.044
Mof_H 	H 	0.10712	0.53219	0.3645	0.032
Mof_H 	H 	0.73205	0.63453	0.54885	0.039
Mof_H 	H 	0.81732	0.78188	0.31295	0.052
Mof_H 	H 	0.89288	0.53219	0.3645	0.046
Mof_H 	H 	0.26795	0.45115	0.36547	0.035
Mof_H 	H 	0.4282	0.50126	0.33241	0.046
Mof_H 	H 	0.34408	0.13608	0.68579	0.05
Mof_H 	H 	0.18268	0.21812	0.53107	0.045
Mof_H 	H 	0.89288	0.3645	0.53219	0.046
Mof_H 	H 	0.14593	0.39826	0.39826	0.168
Mof_H 	H 	0.26795	0.63453	0.08568	0.034
Mof_H 	H 	0.5718	0.16885	0.50126	0.045
Mof_H 	H 	0.10712	0.16769	0.53219	0.032
Mof_H 	H 	0.5718	0.49874	0.83115	0.047
Mof_H 	H 	0.34408	0.31421	0.86392	0.053
Mof_H 	H 	0.73205	0.63453	0.08568	0.037
Mof_H 	H 	0.78158	0.24783	0.49566	0.045
Mof_H 	H 	0.10712	0.3645	0.53219	0.032
Mof_H 	H 	0.18268	0.31295	0.78188	0.045
Mof_H 	H 	0.75075	0.56036	0.56036	0.173
Mof_H 	H 	0.24925	0.43964	-0	0.167
Mof_H 	H 	0.73205	0.54885	0.91432	0.044
Mof_H 	H 	0.34408	0.45029	0.31421	0.05
Mof_H 	H 	0.21842	0.75217	0.50434	0.039
Mof_H 	H 	0.26795	0.08568	0.45115	0.034
Mof_H 	H 	0.65592	0.31421	0.86392	0.054
Mof_H 	H 	0.10712	0.6355	0.46781	0.033
Mof_H 	H 	0.75075	7.42412e-17	0.56036	0.168
Mof_H 	H 	0.5718	0.83115	0.49874	0.047
Mof_H 	H 	0.78158	0.24783	0.75217	0.046
Mof_H 	H 	0.18268	0.68705	0.21812	0.045
Mof_H 	H 	0.10712	0.16769	0.6355	0.032
Mof_H 	H 	0.5718	0.33241	0.50126	0.046
Mof_H 	H 	0.89288	0.46781	0.6355	0.047
Mof_H 	H 	0.89288	0.83231	0.3645	0.047
Mof_H 	H 	0.65592	0.68579	0.54971	0.054
Mof_H 	H 	0.21842	0.49566	0.24783	0.038
Mof_H 	H 	0.21842	0.50434	0.75217	0.039
Mof_H 	H 	0.24925	0.56036	-0	0.167
Mof_H 	H 	0.81732	0.68705	0.46893	0.052
Mof_H 	H 	0.65592	0.86392	0.31421	0.054
Mof_H 	H 	0.10712	0.6355	0.16769	0.032
Mof_H 	H 	0.73205	0.36547	0.45115	0.038
Mof_H 	H 	0.5718	0.50126	0.16885	0.045
Mof_H 	H 	0.34408	0.68579	0.13608	0.05
Mof_H 	H 	0.65592	0.45029	0.31421	0.052
Mof_H 	H 	0.81732	0.68705	0.21812	0.052
Mof_H 	H 	0.5718	0.66759	0.49874	0.046
Mof_H 	H 	0.65592	0.45029	0.13608	0.051
Mof_H 	H 	0.65592	0.31421	0.45029	0.052
Mof_H 	H 	0.18268	0.53107	0.21812	0.045
Mof_H 	H 	0.4282	0.49874	0.83115	0.047
Mof_H 	H 	0.75075	0.43964	-0	0.168
Mof_H 	H 	0.5718	0.50126	0.33241	0.046
Mof_H 	H 	0.10712	0.83231	0.3645	0.033
Mof_H 	H 	0.89288	0.3645	0.83231	0.047
Mof_H 	H 	0.89288	0.16769	0.6355	0.047
Mof_H 	H 	0.65592	0.86392	0.54971	0.055
Mof_H 	H 	0.10712	0.46781	0.6355	0.033
Mof_H 	H 	0.5718	0.83115	0.33241	0.047
Mof_H 	H 	0.78158	0.49566	0.24783	0.045
Mof_H 	H 	0.18268	0.46893	0.68705	0.045
Mof_H 	H 	0.14593	0	0.60174	0.164
Mof_H 	H 	0.73205	0.08568	0.63453	0.037
Mof_H 	H 	0.14593	0.60174	0.60174	0.169
Mof_H 	H 	0.73205	0.91432	0.36547	0.044
Mof_H 	H 	0.26795	0.54885	0.91432	0.042
Mof_H 	H 	0.73205	0.91432	0.54885	0.044
Mof_H 	H 	0.10712	0.3645	0.83231	0.033
Mof_H 	H 	0.89288	0.6355	0.46781	0.047
Mof_H 	H 	0.65592	0.68579	0.13608	0.052
Mof_H 	H 	0.21842	0.75217	0.24783	0.039
Mof_H 	H 	0.26795	0.36547	0.45115	0.035
Mof_H 	H 	0.81732	0.53107	0.21812	0.052
Mof_H 	H 	0.21842	0.24783	0.49566	0.038
Mof_H 	H 	0.24925	0.43964	0.43964	0.171
Mof_H 	H 	0.81732	0.46893	0.78188	0.052
Mof_H 	H 	0.26795	0.91432	0.36547	0.041
Mof_H 	H 	0.34408	0.86392	0.31421	0.053
Mof_H 	H 	0.14593	7.42412e-17	0.39826	0.164
Mof_H 	H 	0.5718	0.66759	0.16885	0.045
Mof_H 	H 	0.65592	0.54971	0.86392	0.055
Mof_H 	H 	0.24925	0.56036	0.56036	0.172
Mof_H 	H 	0.26795	0.08568	0.63453	0.034
Mof_H 	H 	0.73205	0.08568	0.45115	0.036
Mof_H 	H 	0.4282	0.66759	0.16885	0.045
Mof_H 	H 	0.4282	0.83115	0.33241	0.047
Mof_H 	H 	0.81732	0.53107	0.31295	0.052
Mof_H 	H 	0.10712	0.46781	0.83231	0.033
Mof_H 	H 	0.14593	0.60174	-0	0.164
Mof_H 	H 	0.85407	7.42412e-17	0.39826	0.165
Mof_H 	H 	0.78158	0.75217	0.50434	0.046
Mof_H 	H 	0.18268	0.78188	0.46893	0.045
Mof_H 	H 	0.75075	0.56036	-0	0.168
Mof_H 	H 	0.75075	0.43964	0.43964	0.172
Mof_H 	H 	0.5718	0.33241	0.83115	0.047
Mof_H 	H 	0.65592	0.13608	0.45029	0.051
Mof_H 	H 	0.14593	0.39826	-0	0.164
Mof_H 	H 	0.34408	0.54971	0.68579	0.052
Mof_H 	H 	0.81732	0.78188	0.46893	0.052
Mof_H 	H 	0.34408	0.13608	0.45029	0.049
Mof_H 	H 	0.85407	0.60174	0.60174	0.171
Mof_H 	H 	0.65592	0.54971	0.68579	0.054
Mof_H 	H 	0.26795	0.63453	0.54885	0.037
Mof_H 	H 	0.21842	0.24783	0.75217	0.039
Mof_H 	H 	0.81732	0.31295	0.78188	0.052
Mof_H 	H 	0.18268	0.53107	0.31295	0.045
Mof_C 	C 	0.32237	0.50769	0.7853	-0.016
Mof_C 	C 	0.79678	0.18956	0.67634	-0.067
Mof_C 	C 	0.72553	0.69151	0.18333	0.036
Mof_C 	C 	0.70607	0.14421	0.67487	-0.069
Mof_C 	C 	0.13339	0.49331	0.09024	0.459
Mof_C 	C 	0.72553	0.49182	0.30849	0.036
Mof_C 	C 	0.86661	0.90976	0.40307	0.458
Mof_C 	C 	0.84108	0.5141	0.35431	0.036
Mof_C 	C 	0.28282	0.50527	0.75263	-0.037
Mof_C 	C 	0.54421	0.49481	0.30612	-0.042
Mof_C 	C 	0.84108	0.4859	0.84021	0.036
Mof_C 	C 	0.54421	0.50519	0.69388	-0.041
Mof_C 	C 	0.67763	0.49231	0.2147	-0.015
Mof_C 	C 	0.59043	0.72436	0.21498	0.013
Mof_C 	C 	0.79678	0.81044	0.32366	-0.066
Mof_C 	C 	0.17941	0.50786	0.62872	-0.123
Mof_C 	C 	0.24817	0.53073	0.88567	0.037
Mof_C 	C 	0.86661	0.59693	0.50669	0.459
Mof_C 	C 	0.86661	0.90976	0.50669	0.458
Mof_C 	C 	0.15892	0.4859	0.84021	0.034
Mof_C 	C 	0.71718	0.49473	0.24737	-0.037
Mof_C 	C 	0.27447	0.18333	0.49182	0.035
Mof_C 	C 	0.75183	0.88567	0.53073	0.038
Mof_C 	C 	0.59043	0.27564	0.78502	0.013
Mof_C 	C 	0.70607	0.85579	0.32513	-0.067
Mof_C 	C 	0.71718	0.50527	0.75263	-0.037
Mof_C 	C 	0.32237	0.72239	0.50769	-0.016
Mof_C 	C 	0.29393	0.46934	0.32513	-0.073
Mof_C 	C 	0.17941	0.62872	0.12086	-0.124
Mof_C 	C 	0.20322	0.67634	0.18956	-0.073
Mof_C 	C 	0.17941	0.12086	0.62872	-0.124
Mof_C 	C 	0.17941	0.62872	0.50786	-0.123
Mof_C 	C 	0.13339	0.40307	0.90976	0.458
Mof_C 	C 	0.45579	0.30612	0.81131	-0.041
Mof_C 	C 	0.13339	0.09024	0.49331	0.459
Mof_C 	C 	0.54699	0.75538	0.24463	-0.005
Mof_C 	C 	0.29393	0.67487	0.14421	-0.073
Mof_C 	C 	0.72553	0.18333	0.69151	0.036
Mof_C 	C 	0.54421	0.69388	0.50519	-0.041
Mof_C 	C 	0.84108	0.35431	0.84021	0.036
Mof_C 	C 	0.20322	0.51322	0.18956	-0.073
Mof_C 	C 	0.72553	0.49182	0.18333	0.036
Mof_C 	C 	0.32237	0.7853	0.50769	-0.016
Mof_C 	C 	0.20322	0.32366	0.51322	-0.073
Mof_C 	C 	0.70607	0.53066	0.67487	-0.069
Mof_C 	C 	0.40957	0.78502	0.27564	0.013
Mof_C 	C 	0.70607	0.53066	0.85579	-0.067
Mof_C 	C 	0.40957	0.49062	0.27564	0.013
Mof_C 	C 	0.70607	0.46934	0.14421	-0.07
Mof_C 	C 	0.79678	0.67634	0.18956	-0.067
Mof_C 	C 	0.71718	0.75264	0.24737	-0.037
Mof_C 	C 	0.45579	0.18869	0.69388	-0.042
Mof_C 	C 	0.67763	0.72239	0.2147	-0.014
Mof_C 	C 	0.86661	0.40307	0.49331	0.459
Mof_C 	C 	0.67763	0.50769	0.72239	-0.014
Mof_C 	C 	0.15892	0.35431	0.84021	0.034
Mof_C 	C 	0.28282	0.49473	0.24737	-0.038
Mof_C 	C 	0.54421	0.81131	0.30612	-0.041
Mof_C 	C 	0.70607	0.67487	0.14421	-0.069
Mof_C 	C 	0.45579	0.30612	0.49481	-0.042
Mof_C 	C 	0.29393	0.85579	0.53066	-0.07
Mof_C 	C 	0.84108	0.15979	0.5141	0.036
Mof_C 	C 	0.15892	0.15979	0.64569	0.034
Mof_C 	C 	0.84108	0.4859	0.64569	0.037
Mof_C 	C 	0.67763	0.49231	0.27761	-0.014
Mof_C 	C 	0.15892	0.5141	0.15979	0.034
Mof_C 	C 	0.28282	0.24736	0.49473	-0.038
Mof_C 	C 	0.40957	0.21498	0.72436	0.013
Mof_C 	C 	0.75183	0.35494	0.88567	0.037
Mof_C 	C 	0.54421	0.50519	0.81131	-0.04
Mof_C 	C 	0.15892	0.4859	0.64569	0.034
Mof_C 	C 	0.24817	0.88567	0.53073	0.037
Mof_C 	C 	0.84108	0.84021	0.4859	0.036
Mof_C 	C 	0.72553	0.30849	0.49182	0.036
Mof_C 	C 	0.45579	0.49481	0.18869	-0.043
Mof_C 	C 	0.82059	0.62872	0.50786	-0.115
Mof_C 	C 	0.28282	0.24736	0.75263	-0.038
Mof_C 	C 	0.40957	0.50938	0.72436	0.013
Mof_C 	C 	0.82059	0.12086	0.62872	-0.116
Mof_C 	C 	0.72553	0.30849	0.81667	0.036
Mof_C 	C 	0.82059	0.62872	0.12086	-0.116
Mof_C 	C 	0.79678	0.81044	0.48678	-0.066
Mof_C 	C 	0.86661	0.50669	0.59693	0.459
Mof_C 	C 	0.40957	0.50938	0.78502	0.014
Mof_C 	C 	0.54421	0.30612	0.49481	-0.042
Mof_C 	C 	0.86661	0.09024	0.49331	0.459
Mof_C 	C 	0.86661	0.50669	0.90976	0.458
Mof_C 	C 	0.15892	0.84021	0.4859	0.034
Mof_C 	C 	0.45579	0.18869	0.49481	-0.043
Mof_C 	C 	0.86661	0.49331	0.09024	0.459
Mof_C 	C 	0.82059	0.37128	0.49214	-0.116
Mof_C 	C 	0.32237	0.50769	0.72239	-0.016
Mof_C 	C 	0.75183	0.88567	0.35494	0.037
Mof_C 	C 	0.29393	0.46934	0.14421	-0.073
Mof_C 	C 	0.54421	0.18869	0.69388	-0.042
Mof_C 	C 	0.45579	0.50519	0.81131	-0.041
Mof_C 	C 	0.20322	0.48678	0.81044	-0.071
Mof_C 	C 	0.27447	0.69151	0.18333	0.035
Mof_C 	C 	0.20322	0.18956	0.67634	-0.073
Mof_C 	C 	0.82059	0.49214	0.12086	-0.116
Mof_C 	C 	0.45579	0.69388	0.18869	-0.042
Mof_C 	C 	0.13339	0.40307	0.49331	0.459
Mof_C 	C 	0.29393	0.53066	0.67487	-0.072
Mof_C 	C 	0.15892	0.35431	0.5141	0.034
Mof_C 	C 	0.70607	0.46934	0.32513	-0.069
Mof_C 	C 	0.59043	0.49062	0.21498	0.013
Mof_C 	C 	0.45579	0.81131	0.50519	-0.041
Mof_C 	C 	0.29393	0.85579	0.32513	-0.071
Mof_C 	C 	0.45301	0.24462	0.75537	-0.006
Mof_C 	C 	0.67763	0.7853	0.27761	-0.014
Mof_C 	C 	0.75183	0.64506	0.53073	0.037
Mof_C 	C 	0.84108	0.5141	0.15979	0.036
Mof_C 	C 	0.86661	0.09024	0.59693	0.459
Mof_C 	C 	0.17941	0.49214	0.37128	-0.123
Mof_C 	C 	0.72553	0.81667	0.50818	0.036
Mof_C 	C 	0.24817	0.88567	0.35494	0.036
Mof_C 	C 	0.40957	0.27564	0.78502	0.013
Mof_C 	C 	0.15892	0.64569	0.4859	0.034
Mof_C 	C 	0.15892	0.84021	0.35431	0.034
Mof_C 	C 	0.59043	0.72436	0.50938	0.013
Mof_C 	C 	0.54699	0.75537	0.51075	-0.005
Mof_C 	C 	0.40957	0.21498	0.49062	0.013
Mof_C 	C 	0.24817	0.11433	0.64506	0.036
Mof_C 	C 	0.79678	0.32366	0.51322	-0.067
Mof_C 	C 	0.27447	0.69151	0.50818	0.035
Mof_C 	C 	0.84108	0.15979	0.64569	0.037
Mof_C 	C 	0.86661	0.40307	0.90976	0.458
Mof_C 	C 	0.54699	0.48925	0.24463	-0.006
Mof_C 	C 	0.79678	0.32366	0.81044	-0.066
Mof_C 	C 	0.27447	0.81667	0.30849	0.035
Mof_C 	C 	0.13339	0.59693	0.09024	0.459
Mof_C 	C 	0.71718	0.24736	0.49472	-0.037
Mof_C 	C 	0.24817	0.35494	0.88567	0.036
Mof_C 	C 	0.13339	0.90976	0.40307	0.458
Mof_C 	C 	0.27447	0.30849	0.81667	0.035
Mof_C 	C 	0.79678	0.48678	0.81044	-0.066
Mof_C 	C 	0.20322	0.81044	0.48678	-0.071
Mof_C 	C 	0.59043	0.27564	0.49062	0.013
Mof_C 	C 	0.29393	0.14421	0.67487	-0.073
Mof_C 	C 	0.59043	0.78502	0.50938	0.013
Mof_C 	C 	0.86661	0.49331	0.40307	0.459
Mof_C 	C 	0.17941	0.12086	0.49214	-0.124
Mof_C 	C 	0.84108	0.64569	0.4859	0.037
Mof_C 	C 	0.70607	0.32513	0.46934	-0.069
Mof_C 	C 	0.82059	0.87914	0.37128	-0.112
Mof_C 	C 	0.27447	0.50818	0.69151	0.035
Mof_C 	C 	0.27447	0.30849	0.49182	0.035
Mof_C 	C 	0.84108	0.64569	0.15979	0.037
Mof_C 	C 	0.67763	0.27761	0.49231	-0.014
Mof_C 	C 	0.75183	0.11433	0.46927	0.036
Mof_C 	C 	0.15892	0.64569	0.15979	0.034
Mof_C 	C 	0.71718	0.24736	0.75263	-0.037
Mof_C 	C 	0.13339	0.50669	0.59693	0.459
Mof_C 	C 	0.29393	0.32513	0.85579	-0.071
Mof_C 	C 	0.75183	0.53073	0.64506	0.037
Mof_C 	C 	0.13339	0.59693	0.50669	0.459
Mof_C 	C 	0.82059	0.37128	0.87914	-0.112
Mof_C 	C 	0.54421	0.49481	0.18869	-0.042
Mof_C 	C 	0.45579	0.81131	0.30612	-0.041
Mof_C 	C 	0.27447	0.49182	0.18333	0.035
Mof_C 	C 	0.24817	0.46927	0.11433	0.035
Mof_C 	C 	0.67763	0.2147	0.49231	-0.015
Mof_C 	C 	0.72553	0.81667	0.30849	0.036
Mof_C 	C 	0.54421	0.69388	0.18869	-0.042
Mof_C 	C 	0.54699	0.24462	0.75537	-0.005
Mof_C 	C 	0.67763	0.72239	0.50769	-0.014
Mof_C 	C 	0.24817	0.64506	0.11433	0.036
Mof_C 	C 	0.59043	0.21498	0.49062	0.013
Mof_C 	C 	0.59043	0.50938	0.72436	0.013
Mof_C 	C 	0.67763	0.50769	0.7853	-0.013
Mof_C 	C 	0.70607	0.67487	0.53066	-0.069
Mof_C 	C 	0.72553	0.50818	0.81667	0.036
Mof_C 	C 	0.70607	0.14421	0.46934	-0.07
Mof_C 	C 	0.24817	0.35494	0.46927	0.036
Mof_C 	C 	0.24817	0.64506	0.53073	0.036
Mof_C 	C 	0.54421	0.81131	0.50519	-0.04
Mof_C 	C 	0.24817	0.46927	0.35494	0.036
Mof_C 	C 	0.27447	0.49182	0.30849	0.035
Mof_C 	C 	0.82059	0.87914	0.50786	-0.112
Mof_C 	C 	0.40957	0.72436	0.21498	0.013
Mof_C 	C 	0.32237	0.27761	0.7853	-0.017
Mof_C 	C 	0.75183	0.11433	0.64506	0.037
Mof_C 	C 	0.24817	0.53073	0.64506	0.036
Mof_C 	C 	0.17941	0.50786	0.87914	-0.12
Mof_C 	C 	0.27447	0.18333	0.69151	0.035
Mof_C 	C 	0.54699	0.51075	0.75538	-0.005
Mof_C 	C 	0.86661	0.59693	0.09024	0.459
Mof_C 	C 	0.13339	0.50669	0.90976	0.458
Mof_C 	C 	0.54699	0.24462	0.48924	-0.006
Mof_C 	C 	0.17941	0.87914	0.50786	-0.12
Mof_C 	C 	0.40957	0.72436	0.50938	0.013
Mof_C 	C 	0.59043	0.21498	0.72436	0.013
Mof_C 	C 	0.54421	0.18869	0.49481	-0.042
Mof_C 	C 	0.20322	0.51322	0.32366	-0.073
Mof_C 	C 	0.79678	0.48678	0.67634	-0.067
Mof_C 	C 	0.79678	0.67634	0.48678	-0.067
Mof_C 	C 	0.54421	0.30612	0.81131	-0.041
Mof_C 	C 	0.67763	0.2147	0.72239	-0.014
Mof_C 	C 	0.29393	0.32513	0.46934	-0.073
Mof_C 	C 	0.28282	0.75264	0.50528	-0.037
Mof_C 	C 	0.59043	0.78502	0.27564	0.013
Mof_C 	C 	0.82059	0.50786	0.87914	-0.112
Mof_C 	C 	0.45301	0.75538	0.51075	-0.006
Mof_C 	C 	0.40957	0.27564	0.49062	0.013
Mof_C 	C 	0.84108	0.35431	0.5141	0.036
Mof_C 	C 	0.72553	0.69151	0.50818	0.036
Mof_C 	C 	0.82059	0.50786	0.62872	-0.115
Mof_C 	C 	0.59043	0.50938	0.78502	0.013
Mof_C 	C 	0.24817	0.11433	0.46927	0.035
Mof_C 	C 	0.45579	0.50519	0.69388	-0.042
Mof_C 	C 	0.40957	0.78502	0.50938	0.014
Mof_C 	C 	0.72553	0.50818	0.69151	0.036
Mof_C 	C 	0.45301	0.48925	0.24463	-0.007
Mof_C 	C 	0.75183	0.46927	0.11433	0.036
Mof_C 	C 	0.75183	0.64506	0.11433	0.037
Mof_C 	C 	0.27447	0.50818	0.81667	0.035
Mof_C 	C 	0.32237	0.7853	0.27761	-0.017
Mof_C 	C 	0.70607	0.32513	0.85579	-0.067
Mof_C 	C 	0.40957	0.49062	0.21498	0.013
Mof_C 	C 	0.67763	0.7853	0.50769	-0.013
Mof_C 	C 	0.79678	0.51322	0.18956	-0.067
Mof_C 	C 	0.72553	0.18333	0.49182	0.036
Mof_C 	C 	0.32237	0.49231	0.2147	-0.017
Mof_C 	C 	0.82059	0.12086	0.49214	-0.116
Mof_C 	C 	0.13339	0.90976	0.50669	0.458
Mof_C 	C 	0.13339	0.09024	0.59693	0.459
Mof_C 	C 	0.67763	0.27761	0.7853	-0.014
Mof_C 	C 	0.71718	0.75263	0.50527	-0.037
Mof_C 	C 	0.75183	0.35494	0.46927	0.036
Mof_C 	C 	0.45579	0.49481	0.30612	-0.042
Mof_C 	C 	0.82059	0.49214	0.37128	-0.116
Mof_C 	C 	0.20322	0.32366	0.81044	-0.072
Mof_C 	C 	0.29393	0.14421	0.46934	-0.073
Mof_C 	C 	0.75183	0.53073	0.88567	0.038
Mof_C 	C 	0.13339	0.49331	0.40307	0.459
Mof_C 	C 	0.29393	0.67487	0.53066	-0.072
Mof_C 	C 	0.75183	0.46927	0.35494	0.036
Mof_C 	C 	0.15892	0.5141	0.35431	0.034
Mof_C 	C 	0.32237	0.72239	0.2147	-0.017
Mof_C 	C 	0.17941	0.37128	0.87914	-0.12
Mof_C 	C 	0.20322	0.48678	0.67634	-0.072
Mof_C 	C 	0.17941	0.37128	0.49214	-0.123
Mof_C 	C 	0.32237	0.2147	0.72239	-0.017
Mof_C 	C 	0.45301	0.24462	0.48925	-0.007
Mof_C 	C 	0.28282	0.75263	0.24736	-0.038
Mof_C 	C 	0.27447	0.81667	0.50818	0.035
Mof_C 	C 	0.32237	0.2147	0.49231	-0.017
Mof_C 	C 	0.20322	0.18956	0.51322	-0.073
Mof_C 	C 	0.29393	0.53066	0.85579	-0.07
Mof_C 	C 	0.20322	0.67634	0.48678	-0.072
Mof_C 	C 	0.17941	0.87914	0.37128	-0.12
Mof_C 	C 	0.84108	0.84021	0.35431	0.036
Mof_C 	C 	0.32237	0.27761	0.49231	-0.017
Mof_C 	C 	0.79678	0.51322	0.32366	-0.067
Mof_C 	C 	0.79678	0.18956	0.51322	-0.067
Mof_C 	C 	0.15892	0.15979	0.5141	0.034
Mof_C 	C 	0.32237	0.49231	0.27761	-0.017
Mof_C 	C 	0.20322	0.81044	0.32366	-0.072
Mof_C 	C 	0.45301	0.51075	0.75537	-0.006
Mof_C 	C 	0.45301	0.75537	0.24462	-0.006
Mof_C 	C 	0.17941	0.49214	0.12086	-0.124
Mof_C 	C 	0.45579	0.69388	0.50519	-0.042
Mof_C 	C 	0.59043	0.49062	0.27564	0.013
Mof_C 	C 	0.70607	0.85579	0.53066	-0.067
Mof_O 	O 	0.10545	0.48302	0.96604	-1.269
Mof_O 	O 	0.85	0.41465	0.94533	-0.576
Mof_O 	O 	0.07719	0.58103	0.09965	-0.617
Mof_O 	O 	0.22834	0.46221	-0	-0.596
Mof_O 	O 	0.22834	3.71206e-17	0.53779	-0.596
Mof_O 	O 	0.10545	0.51698	0.03396	-1.288
Mof_O 	O 	0.22834	0	0.46221	-0.596
Mof_O 	O 	0.89455	0.51698	0.03396	-1.273
Mof_O 	O 	0.15	0.58535	0.53068	-0.597
Mof_O 	O 	0.07719	0.51862	0.41897	-0.617
Mof_O 	O 	0.15	0.05467	0.46932	-0.599
Mof_O 	O 	0.89455	0.96604	0.48302	-1.254
Mof_O 	O 	0.07719	0.90035	0.48138	-0.616
Mof_O 	O 	0.15	0.41465	0.94533	-0.584
Mof_O 	O 	-0	0.03397	0.47374	-1.297
Mof_O 	O 	-4.12121e-33	0.47374	0.43977	-1.292
Mof_O 	O 	0.07719	0.09965	0.58103	-0.617
Mof_O 	O 	0.89455	0.03396	0.51698	-1.273
Mof_O 	O 	-0	0.43977	0.47374	-1.292
Mof_O 	O 	0.92281	0.58103	0.48138	-0.591
Mof_O 	O 	0.90903	0.40701	-0	-0.588
Mof_O 	O 	0.77166	0.46221	-0	-0.596
Mof_O 	O 	1.33939e-32	0.47374	0.03397	-1.297
Mof_O 	O 	0.92281	0.41897	0.51862	-0.591
Mof_O 	O 	0.90903	0	0.59299	-0.587
Mof_O 	O 	0.92281	0.09965	0.51862	-0.591
Mof_O 	O 	0.92281	0.51862	0.09965	-0.591
Mof_O 	O 	0.90903	0.59299	0.59299	-0.577
Mof_O 	O 	0.15	0.94533	0.41465	-0.584
Mof_O 	O 	8.24243e-33	0.96603	0.52626	-1.278
Mof_O 	O 	0.92281	0.48138	0.58103	-0.591
Mof_O 	O 	8.24243e-33	0.52626	0.96603	-1.278
Mof_O 	O 	0.77166	3.71206e-17	0.53779	-0.596
Mof_O 	O 	0.07719	0.48138	0.58103	-0.617
Mof_O 	O 	0.85	0.53068	0.94533	-0.576
Mof_O 	O 	0.85	0.46932	0.41465	-0.589
Mof_O 	O 	0.85	0.46932	0.05467	-0.591
Mof_O 	O 	0.92281	0.41897	0.90035	-0.59
Mof_O 	O 	0.85	0.05467	0.58535	-0.591
Mof_O 	O 	0.10545	0.48302	0.51698	-1.282
Mof_O 	O 	0.09097	0.40701	-0	-0.615
Mof_O 	O 	-2.06061e-32	0.96603	0.43977	-1.278
Mof_O 	O 	0.90903	0.59299	-0	-0.587
Mof_O 	O 	0.92281	0.90035	0.48138	-0.59
Mof_O 	O 	0.10545	0.03396	0.51698	-1.288
Mof_O 	O 	0.85	0.41465	0.46932	-0.589
Mof_O 	O 	0.92281	0.51862	0.41897	-0.591
Mof_O 	O 	0.09097	0.59299	-0	-0.614
Mof_O 	O 	0.15	0.53068	0.94533	-0.584
Mof_O 	O 	0.92281	0.48138	0.90035	-0.59
Mof_O 	O 	0.07719	0.51862	0.09965	-0.617
Mof_O 	O 	0.07719	0.48138	0.90035	-0.616
Mof_O 	O 	0.10545	0.51698	0.48302	-1.282
Mof_O 	O 	0.15	0.58535	0.05467	-0.599
Mof_O 	O 	0.15	0.94533	0.53068	-0.584
Mof_O 	O 	0.89455	0.48302	0.96604	-1.254
Mof_O 	O 	0.15	0.05467	0.58535	-0.599
Mof_O 	O 	8.24243e-33	0.56023	0.52626	-1.291
Mof_O 	O 	0.89455	0.51698	0.48302	-1.267
Mof_O 	O 	0.85	0.58535	0.53068	-0.589
Mof_O 	O 	0.89455	0.48302	0.51698	-1.267
Mof_O 	O 	0.07719	0.41897	0.90035	-0.616
Mof_O 	O 	0.92281	0.09965	0.58103	-0.591
Mof_O 	O 	0.77166	0.53779	0.53779	-0.586
Mof_O 	O 	0.07719	0.09965	0.51862	-0.617
Mof_O 	O 	0.07719	0.41897	0.51862	-0.617
Mof_O 	O 	0.15	0.46932	0.05467	-0.599
Mof_O 	O 	-1.64849e-32	0.52626	0.56023	-1.291
Mof_O 	O 	0.77166	0.53779	-0	-0.596
Mof_O 	O 	0.09097	0.59299	0.59299	-0.604
Mof_O 	O 	0.85	0.94533	0.53068	-0.576
Mof_O 	O 	0.07719	0.90035	0.41897	-0.616
Mof_O 	O 	0.22834	0.53779	0.53779	-0.586
Mof_O 	O 	5.15152e-33	0.56023	0.03397	-1.297
Mof_O 	O 	0.09097	3.71206e-17	0.40701	-0.615
Mof_O 	O 	0.15	0.53068	0.58535	-0.597
Mof_O 	O 	0.22834	0.53779	-0	-0.596
Mof_O 	O 	0.77166	0	0.46221	-0.596
Mof_O 	O 	0.85	0.58535	0.05467	-0.591
Mof_O 	O 	0.90903	0.40701	0.40701	-0.579
Mof_O 	O 	0.09097	0.40701	0.40701	-0.606
Mof_O 	O 	0.90903	3.71206e-17	0.40701	-0.588
Mof_O 	O 	0.92281	0.58103	0.09965	-0.591
Mof_O 	O 	0.85	0.94533	0.41465	-0.576
Mof_O 	O 	0.09097	0	0.59299	-0.614
Mof_O 	O 	0.77166	0.46221	0.46221	-0.586
Mof_O 	O 	0.15	0.41465	0.46932	-0.597
Mof_O 	O 	0.85	0.53068	0.58535	-0.589
Mof_O 	O 	0.07719	0.58103	0.48138	-0.617
Mof_O 	O 	0.15	0.46932	0.41465	-0.597
Mof_O 	O 	0.85	0.05467	0.46932	-0.591
Mof_O 	O 	0.22834	0.46221	0.46221	-0.586
Mof_O 	O 	0.10545	0.96604	0.48302	-1.269
Mof_O 	O 	-1.64849e-32	0.03397	0.56023	-1.297
Mof_O 	O 	8.24243e-33	0.43977	0.96603	-1.278
Mof_O 	O 	0.92281	0.90035	0.41897	-0.59
_end
