data_functionalizedCrystal
_audit_creation_method	'EQeq! by Chris Wilmer'
_symmetry_space_group_name_H-M	'P1'
_symmetry_Int_Tables_number	1
_symmetry_cell_setting	triclinic
loop_
_symmetry_equiv_pos_as_xyz
  x,y,z
_cell_length_a	48.448
_cell_length_b	48.898
_cell_length_c	35.851
_cell_angle_alpha	90
_cell_angle_beta	131.502
_cell_angle_gamma	90
loop_
_atom_site_label
_atom_site_type_symbol
_atom_site_fract_x
_atom_site_fract_y
_atom_site_fract_z
_atom_site_charge
Mof_C 	C 	0.3342	0.5169	0.6231	0.006
Mof_C 	C 	0.3063	0.5024	0.5805	-0.026
Mof_C 	C 	0.3033	0.4743	0.5831	0.004
Mof_C 	C 	0.3282	0.4608	0.6284	-0.005
Mof_C 	C 	0.3561	0.4754	0.671	0.003
Mof_C 	C 	0.3591	0.5034	0.6684	-0.011
Mof_C 	C 	0.056	0.5563	0.6025	0.026
Mof_C 	C 	0.0269	0.5467	0.5981	-0.014
Mof_C 	C 	0.9996	0.5306	0.5576	0.003
Mof_C 	C 	0.0013	0.5241	0.5214	-0.007
Mof_C 	C 	0.0304	0.5337	0.5258	0.006
Mof_C 	C 	0.0577	0.5498	0.5663	-0.034
Mof_C 	C 	0.0925	0.6363	0.7522	0.021
Mof_C 	C 	0.0563	0.6456	0.7186	-0.023
Mof_C 	C 	0.0356	0.6471	0.7327	0.005
Mof_C 	C 	0.0512	0.6393	0.7804	-0.006
Mof_C 	C 	0.0873	0.63	0.814	0.006
Mof_C 	C 	0.108	0.6285	0.7999	-0.022
Mof_C 	C 	0.1346	0.56331	0.4758	0.013
Mof_C 	C 	0.1169	0.5675	0.4261	-0.009
Mof_C 	C 	0.0933	0.5477	0.3908	0.002
Mof_C 	C 	0.0873	0.52366	0.4053	-0.005
Mof_C 	C 	0.1049	0.51947	0.455	0.005
Mof_C 	C 	0.1286	0.5393	0.4903	-0.029
Mof_C 	C 	0.4159	0.7276	0.0429	0.008
Mof_C 	C 	0.4284	0.7399	0.0867	-0.008
Mof_C 	C 	0.4568	0.7279	0.1324	0.001
Mof_C 	C 	0.4726	0.7036	0.1343	-0.005
Mof_C 	C 	0.4601	0.6913	0.0905	0.007
Mof_C 	C 	0.4317	0.7033	0.0448	-0.032
Mof_C 	C 	0.2133	0.4672	0.6906	0.011
Mof_C 	C 	0.2249	0.441	0.6916	-0.008
Mof_C 	C 	0.1991	0.421	0.6598	0.002
Mof_C 	C 	0.1617	0.4272	0.627	-0.006
Mof_C 	C 	0.1501	0.4534	0.626	0.005
Mof_C 	C 	0.1759	0.4734	0.6578	-0.03
Mof_C 	C 	0.3434	0.578	0.5135	0.01
Mof_C 	C 	0.3733	0.5618	0.5503	-0.023
Mof_C 	C 	0.409	0.5717	0.5777	0.004
Mof_C 	C 	0.4147	0.5976	0.5682	-0.005
Mof_C 	C 	0.3848	0.6138	0.5313	0.002
Mof_C 	C 	0.3491	0.6039	0.504	-0.011
Mof_C 	C 	0.14	0.496	0.7061	0.014
Mof_C 	C 	0.1439	0.4715	0.7288	-0.015
Mof_C 	C 	0.1156	0.4523	0.7029	0.005
Mof_C 	C 	0.0835	0.4577	0.6543	-0.005
Mof_C 	C 	0.0796	0.4822	0.6316	0.006
Mof_C 	C 	0.1079	0.5013	0.6575	-0.022
Mof_C 	C 	0.364	0.4885	0.8447	0.018
Mof_C 	C 	0.3948	0.4808	0.8928	-0.019
Mof_C 	C 	0.4178	0.4602	0.9002	0.005
Mof_C 	C 	0.4099	0.4473	0.8596	-0.004
Mof_C 	C 	0.3791	0.455	0.8115	0.005
Mof_C 	C 	0.3561	0.4756	0.804	-0.013
Mof_C 	C 	0.1554	0.716	0.8102	0.01
Mof_C 	C 	0.1542	0.6928	0.8314	-0.031
Mof_C 	C 	0.1457	0.6951	0.8615	0.006
Mof_C 	C 	0.1385	0.7206	0.8704	-0.005
Mof_C 	C 	0.1396	0.7439	0.8491	0.002
Mof_C 	C 	0.1481	0.7416	0.819	-0.007
Mof_C 	C 	0.058	0.5908	0.4909	0.018
Mof_C 	C 	0.0257	0.6019	0.455	-0.013
Mof_C 	C 	0.0089	0.5619	0.4075	-0.005
Mof_C 	C 	0.0638	0.5687	0.4765	-0.023
Mof_C 	C 	0.2323	0.4987	0.594	0.016
Mof_C 	C 	0.2016	0.4929	0.5447	-0.022
Mof_C 	C 	0.1929	0.4659	0.5284	0.006
Mof_C 	C 	0.2149	0.4448	0.5615	-0.005
Mof_C 	C 	0.2455	0.4506	0.6108	0.004
Mof_C 	C 	0.2542	0.4776	0.627	-0.012
Mof_C 	C 	0.4009	0.5332	0.788	0.005
Mof_C 	C 	0.4243	0.5582	0.8035	-0.025
Mof_C 	C 	0.4663	0.5497	0.8507	0.002
Mof_C 	C 	0.4255	0.5137	0.832	-0.007
Mof_C 	C 	0.3316	0.6823	0.0084	-0.008
Mof_C 	C 	0.2949	0.6845	0.9951	-0.016
Mof_C 	C 	0.2988	0.7058	0.029	0
Mof_C 	C 	0.3414	0.6998	0.0776	-0
Mof_C 	C 	0.3648	0.6859	0.061	-0.001
Mof_C 	C 	0.4239	0.5526	0.9839	0.008
Mof_C 	C 	0.4481	0.5502	0.0373	-0.006
Mof_C 	C 	0.4845	0.5365	0.0588	0.001
Mof_C 	C 	0.4902	0.5288	0.0271	-0.003
Mof_C 	C 	0.4688	0.5314	0.9775	0.003
Mof_C 	C 	0.4305	0.5433	0.9552	-0.029
Mof_C 	C 	0.9338	0.6893	0.5424	0.011
Mof_C 	C 	0.9573	0.6917	0.5949	-0.018
Mof_C 	C 	0.9447	0.6836	0.6182	0.005
Mof_C 	C 	0.9073	0.675	0.592	-0.003
Mof_C 	C 	0.8789	0.676	0.5356	0.002
Mof_C 	C 	0.896	0.6832	0.5135	-0.011
Mof_C 	C 	0.3411	0.7597	0.7352	0.015
Mof_C 	C 	0.2553	0.8384	0.7306	0.002
Mof_C 	C 	0.3003	0.6432	0.5243	0.023
Mof_C 	C 	0.2592	0.8353	0.6954	-0.004
Mof_C 	C 	0.1209	0.8159	0.5724	-0.005
Mof_C 	C 	0.5265	0.6678	0.9277	0.002
Mof_C 	C 	0.1389	0.5083	0.3604	-0.003
Mof_C 	C 	0.1343	0.7375	0.5267	-0.029
Mof_C 	C 	0.126	0.7618	0.4993	0.006
Mof_C 	C 	0.2769	0.5805	0.0063	-0.019
Mof_C 	C 	0.2539	0.813	0.7549	-0.005
Mof_C 	C 	0.2641	0.8109	0.6835	0.006
Mof_C 	C 	0.3444	0.853	0.8924	0.002
Mof_C 	C 	0.2285	0.6848	0.4937	-0.018
Mof_C 	C 	0.1866	0.4991	0.3586	-0.028
Mof_C 	C 	0.5383	0.6169	0.049	-0.003
Mof_C 	C 	0.4685	0.6064	0.9927	-0.019
Mof_C 	C 	0.1653	0.5046	0.4125	0.003
Mof_C 	C 	0.0937	0.7986	0.561	0.006
Mof_C 	C 	0.1956	0.606	0.4556	-0.031
Mof_C 	C 	0.9659	0.6674	0.3748	-0.005
Mof_C 	C 	0.1741	0.6229	0.4131	0.007
Mof_C 	C 	0.5093	0.5954	0.0207	0.003
Mof_C 	C 	0.3485	0.8052	0.8807	0.009
Mof_C 	C 	0.1023	0.7738	0.5838	-0.018
Mof_C 	C 	0.2132	0.7311	0.4661	-0.004
Mof_C 	C 	0.5074	0.6222	0.9354	0.005
Mof_C 	C 	0.3207	0.6036	0.3552	-0.003
Mof_C 	C 	0.4944	0.7491	0.8865	-0.003
Mof_C 	C 	0.321	0.7982	0.8818	-0.025
Mof_C 	C 	0.3192	0.6834	0.4991	0.002
Mof_C 	C 	0.1158	0.7141	0.4996	0.011
Mof_C 	C 	0.3217	0.5762	0.3386	0.005
Mof_C 	C 	0.1854	0.6176	0.9367	0.005
Mof_C 	C 	0.1484	0.5064	0.3322	0.006
Mof_C 	C 	0.1719	0.5862	0.3654	0.002
Mof_C 	C 	0.1664	0.7805	0.6304	-0.022
Mof_C 	C 	0.3203	0.7858	0.6619	0.006
Mof_C 	C 	0.2901	0.6753	0.447	-0.004
Mof_C 	C 	0.0835	0.7379	0.4228	0.003
Mof_C 	C 	0.2285	0.7066	0.4689	0.005
Mof_C 	C 	0.4885	0.6769	0.8967	-0.007
Mof_C 	C 	0.194	0.6086	0.9082	-0.026
Mof_C 	C 	0.1011	0.7612	0.4481	-0.004
Mof_C 	C 	0.3198	0.7619	0.6833	-0.019
Mof_C 	C 	0.1633	0.5983	0.9396	-0.003
Mof_C 	C 	0.2629	0.7866	0.7048	-0.028
Mof_C 	C 	0.5186	0.7433	0.9389	0.002
Mof_C 	C 	0.2654	0.6534	0.4318	0.005
Mof_C 	C 	0.2107	0.4947	0.4103	0.01
Mof_C 	C 	0.3154	0.8464	0.891	-0.004
Mof_C 	C 	0.3626	0.8066	0.7431	0.004
Mof_C 	C 	0.5339	0.642	0.9488	-0.003
Mof_C 	C 	0.9517	0.6831	0.3905	0.005
Mof_C 	C 	0.2001	0.4971	0.4371	-0.009
Mof_C 	C 	0.1801	0.5851	0.8823	0.01
Mof_C 	C 	0.4152	0.6173	0.7481	0.024
Mof_C 	C 	0.1995	0.7123	0.5157	-0.021
Mof_C 	C 	0.5288	0.6447	0.0508	0.004
Mof_C 	C 	0.3636	0.7819	0.7665	-0.013
Mof_C 	C 	0.4607	0.6581	0.8842	0.01
Mof_C 	C 	0.4636	0.6351	0.9972	0.015
Mof_C 	C 	0.505	0.7352	0.96	-0.008
Mof_C 	C 	0.3405	0.8083	0.6914	-0.004
Mof_C 	C 	0.975	0.6952	0.437	-0.024
Mof_C 	C 	0.4667	0.7329	0.9317	0.01
Mof_C 	C 	0.0904	0.7133	0.4483	-0.006
Mof_C 	C 	0.2142	0.6879	0.5178	0.014
Mof_C 	C 	0.302	0.6093	0.3708	0.003
Mof_C 	C 	0.2041	0.5792	0.4528	0.012
Mof_C 	C 	0.0128	0.6907	0.4691	0.013
Mof_C 	C 	0.4901	0.6527	0.0191	-0.017
Mof_C 	C 	0.2594	0.7884	0.7396	0.01
Mof_C 	C 	0.1978	0.7344	0.4891	0.006
Mof_C 	C 	0.4427	0.7393	0.8819	-0.028
Mof_C 	C 	0.1372	0.7645	0.6179	0.017
Mof_C 	C 	0.36	0.8312	0.8851	-0.008
Mof_C 	C 	0.4558	0.7476	0.8583	0.008
Mof_C 	C 	0.3273	0.6647	0.5425	-0.011
Mof_C 	C 	0.2975	0.5557	0.3347	-0.026
Mof_C 	C 	0.9846	0.6194	0.515	0.002
Mof_C 	C 	0.1475	0.575	0.9134	0.002
Mof_C 	C 	0.1935	0.5684	0.4096	-0.015
Mof_C 	C 	0.3055	0.82	0.8897	0.006
Mof_C 	C 	0.1571	0.8062	0.6056	0.006
Mof_C 	C 	0.1627	0.6129	0.367	-0.004
Mof_C 	C 	0.2727	0.6378	0.4715	-0.022
Mof_C 	C 	0.4692	0.6315	0.9021	-0.025
Mof_C 	C 	0.2771	0.5614	0.345	0.012
Mof_C 	C 	0.2787	0.5871	0.3659	-0.012
Mof_C 	C 	0.0047	0.6634	0.4069	0.007
Mof_C 	C 	0.1556	0.5672	0.8819	-0.005
Mof_C 	C 	0.0282	0.6753	0.4543	-0.022
Mof_C 	C 	0.269	0.7461	0.9086	0.011
Mof_C 	C 	0.0815	0.783	0.6916	0.003
Mof_C 	C 	0.292	0.7561	0.9512	-0.018
Mof_C 	C 	0.0797	0.754	0.6944	-0.011
Mof_C 	C 	0.033	0.7835	0.5996	0.003
Mof_C 	C 	0.0592	0.798	0.6436	-0.003
Mof_C 	C 	0.0323	0.7528	0.6027	-0.028
Mof_C 	C 	0.4194	0.7182	0.7117	-0.003
Mof_C 	C 	0.3917	0.7237	0.6622	0.003
Mof_C 	C 	0.3538	0.7145	0.6347	-0.007
Mof_C 	C 	0.4149	0.7038	0.7426	0.006
Mof_C 	C 	0.3767	0.6948	0.7148	-0.026
Mof_C 	C 	0.0566	0.7403	0.6482	0.01
Mof_C 	C 	0.3482	0.6997	0.6654	0.016
Mof_C 	C 	0.2986	0.598	0.9973	0.011
Mof_C 	C 	0.2732	0.5905	0.0399	0.004
Mof_S 	S 	0.34175	0.69872	0.86162	-0.256
Mof_S 	S 	0.19799	0.63117	0.63675	-0.262
Mof_S 	S 	0.23103	0.68091	0.75433	-0.265
Mof_S 	S 	0.19554	0.6012	0.74393	-0.262
Mof_S 	S 	0.30752	0.65255	0.74546	-0.264
Mof_S 	S 	0.27246	0.57268	0.73826	-0.266
Mof_S 	S 	0.30655	0.62231	0.85456	-0.265
Mof_S 	S 	0.45119	0.72168	0.9623	-0.118
Mof_S 	S 	0.26993	0.54461	0.84472	-0.254
Mof_S 	S 	0.12396	0.65998	0.64571	-0.254
Mof_S 	S 	0.34285	0.72994	0.7648	-0.125
Mof_S 	S 	0.08926	0.61395	0.53951	-0.13
Mof_S 	S 	0.23052	0.71566	0.64489	-0.196
Mof_S 	S 	0.27577	0.60005	0.63473	-0.254
Mof_S 	S 	0.16051	0.58965	0.5185	-0.121
Mof_S 	S 	0.21347	0.65813	0.54567	-0.122
Mof_S 	S 	0.36978	0.77983	0.87147	-0.114
Mof_S 	S 	0.04096	0.70687	0.52794	-0.122
Mof_S 	S 	0.25841	0.75849	0.76761	-0.12
Mof_S 	S 	0.17342	0.52214	0.74597	-0.127
Mof_S 	S 	0.14808	0.73228	0.64875	-0.131
Mof_S 	S 	0.1612	0.54869	0.62324	-0.198
Mof_S 	S 	0.12554	0.6821	0.53124	-0.119
Mof_S 	S 	0.41458	0.67079	0.8435	-0.12
Mof_S 	S 	0.23046	0.55711	0.50346	-0.121
Mof_S 	S 	0.22897	0.65166	0.86479	-0.2
Mof_S 	S 	0.41543	0.64604	0.95925	-0.126
Mof_S 	S 	0.38031	0.74431	0.9859	-0.116
Mof_S 	S 	0.30251	0.69134	0.63453	-0.119
Mof_S 	S 	0.3859	0.59136	0.84881	-0.199
Mof_S 	S 	0.16376	0.71644	0.76926	-0.12
Mof_S 	S 	0.05378	0.70404	0.65359	-0.116
Mof_S 	S 	0.25772	0.48524	0.44194	-0.12
Mof_S 	S 	0.27471	0.72762	0.87162	-0.132
Mof_S 	S 	0.1853	0.57377	0.83914	-0.122
Mof_S 	S 	0.35029	0.53569	0.74066	-0.118
Mof_S 	S 	0.2464	0.4932	0.7271	-0.119
Mof_S 	S 	0.24709	0.53768	0.33912	-0.115
Mof_S 	S 	0.24814	0.53015	0.62563	-0.136
Mof_S 	S 	0.34611	0.66346	0.97392	-0.119
Mof_S 	S 	0.11718	0.63535	0.73286	-0.135
Mof_S 	S 	0.36899	0.61942	0.72145	-0.137
Mof_S 	S 	0.38114	0.56991	0.95862	-0.122
Mof_S 	S 	0.30797	0.62375	0.56652	-0.129
Mof_S 	S 	0.34819	0.50416	0.46445	-0.123
Mof_S 	S 	0.01972	0.63475	0.57344	-0.12
Mof_S 	S 	0.33539	0.5159	0.83646	-0.137
Mof_S 	S 	0.30268	0.5885	0.95546	-0.13
Mof_S 	S 	0.3444	0.55345	0.62659	-0.115
Mof_S 	S 	0.09156	0.57545	0.645	-0.127
Mof_S 	S 	0.94855	0.69692	0.50987	-0.108
Mof_S 	S 	0.29984	0.5666	0.47808	-0.111
Mof_Cd	Cd	0.18922	0.64258	0.69696	0.252
Mof_Cd	Cd	0.26324	0.61453	0.69029	0.252
Mof_Cd	Cd	0.2613	0.58592	0.79532	0.253
Mof_Cd	Cd	0.21701	0.72175	0.69976	0.27
Mof_Cd	Cd	0.15243	0.59278	0.58272	0.271
Mof_Cd	Cd	0.29518	0.66263	0.80206	0.252
Mof_Cd	Cd	0.37071	0.63037	0.79393	0.269
Mof_Cd	Cd	0.37244	0.60695	0.90095	0.27
Mof_Cd	Cd	0.15683	0.56104	0.6865	0.271
Mof_Cd	Cd	0.22722	0.53689	0.67492	0.269
Mof_Cd	Cd	0.10907	0.69468	0.58261	0.276
Mof_Cd	Cd	0.32306	0.74291	0.81326	0.276
Mof_Cd	Cd	0.1957	0.67442	0.59531	0.27
Mof_Cd	Cd	0.33841	0.55647	0.794	0.271
Mof_Cd	Cd	0.08066	0.61954	0.60263	0.279
Mof_Cd	Cd	0.29106	0.63281	0.90841	0.269
Mof_Cd	Cd	0.33802	0.70586	0.928	0.276
Mof_Cd	Cd	0.01677	0.68615	0.56583	0.287
Mof_Cd	Cd	0.29388	0.69675	0.6975	0.268
Mof_Cd	Cd	0.40616	0.68374	0.90328	0.277
Mof_Cd	Cd	0.28265	0.64321	0.60355	0.28
Mof_Cd	Cd	0.28721	0.52323	0.43046	0.286
Mof_Cd	Cd	0.22523	0.69096	0.81837	0.269
Mof_Cd	Cd	0.23729	0.5036	0.78728	0.277
Mof_Cd	Cd	0.22373	0.57006	0.56557	0.277
Mof_Cd	Cd	0.18391	0.61778	0.79989	0.272
Mof_Cd	Cd	0.25019	0.55636	0.89279	0.277
Mof_Cd	Cd	0.11754	0.68273	0.70295	0.275
Mof_Cd	Cd	0.33722	0.53178	0.90551	0.277
Mof_Cd	Cd	0.29345	0.57414	0.5421	0.288
Mof_Cd	Cd	0.41441	0.75986	0.95899	0.286
Mof_Cd	Cd	0.33568	0.57389	0.68333	0.278
Mof_C 	C 	0.2999	0.6228	0.025	-0.012
Mof_C 	C 	0.467	0.5225	0.853	-0.001
Mof_C 	C 	0.9592	0.6246	0.4569	-0.012
Mof_C 	C 	0.0359	0.5509	0.442	0.008
Mof_C 	C 	0.3848	0.5251	0.4823	0.001
Mof_C 	C 	0.4794	0.6318	0.8014	0.006
Mof_C 	C 	0.9936	0.583	0.404	0.003
Mof_C 	C 	0.4149	0.5926	0.717	-0.022
Mof_C 	C 	0.2503	0.7887	0.9276	-0.003
Mof_C 	C 	0.4391	0.6301	0.7788	-0.024
Mof_C 	C 	0.4891	0.6119	0.7922	-0.003
Mof_C 	C 	0.2886	0.7785	0.9722	0.004
Mof_C 	C 	0.8342	0.0169	0.6231	0.007
Mof_C 	C 	0.8063	0.0024	0.5805	-0.025
Mof_C 	C 	0.8033	0.9743	0.5831	0.005
Mof_C 	C 	0.8282	0.9608	0.6284	-0.004
Mof_C 	C 	0.8561	0.9754	0.671	0.004
Mof_C 	C 	0.8591	0.0034	0.6684	-0.01
Mof_C 	C 	0.556	0.0563	0.6025	0.027
Mof_C 	C 	0.5269	0.0467	0.5981	-0.013
Mof_C 	C 	0.4996	0.0306	0.5576	0.004
Mof_C 	C 	0.5013	0.0241	0.5214	-0.006
Mof_C 	C 	0.5304	0.0337	0.5258	0.007
Mof_C 	C 	0.5577	0.0498	0.5663	-0.033
Mof_C 	C 	0.5925	0.1363	0.7522	0.022
Mof_C 	C 	0.5563	0.1456	0.7186	-0.022
Mof_C 	C 	0.5356	0.1471	0.7327	0.006
Mof_C 	C 	0.5512	0.1393	0.7804	-0.005
Mof_C 	C 	0.5873	0.13	0.814	0.007
Mof_C 	C 	0.608	0.1285	0.7999	-0.021
Mof_C 	C 	0.6346	0.06331	0.4758	0.014
Mof_C 	C 	0.6169	0.0675	0.4261	-0.008
Mof_C 	C 	0.5933	0.0477	0.3908	0.004
Mof_C 	C 	0.5873	0.02366	0.4053	-0.004
Mof_C 	C 	0.6049	0.01947	0.455	0.006
Mof_C 	C 	0.6286	0.0393	0.4903	-0.028
Mof_C 	C 	0.9159	0.2276	0.0429	0.009
Mof_C 	C 	0.9284	0.2399	0.0867	-0.007
Mof_C 	C 	0.9568	0.2279	0.1324	0.002
Mof_C 	C 	0.9726	0.2036	0.1343	-0.004
Mof_C 	C 	0.9601	0.1913	0.0905	0.008
Mof_C 	C 	0.9317	0.2033	0.0448	-0.031
Mof_C 	C 	0.7133	0.9672	0.6906	0.012
Mof_C 	C 	0.7249	0.941	0.6916	-0.007
Mof_C 	C 	0.6991	0.921	0.6598	0.003
Mof_C 	C 	0.6617	0.9272	0.627	-0.005
Mof_C 	C 	0.6501	0.9534	0.626	0.006
Mof_C 	C 	0.6759	0.9734	0.6578	-0.029
Mof_C 	C 	0.8434	0.078	0.5135	0.011
Mof_C 	C 	0.8733	0.0618	0.5503	-0.022
Mof_C 	C 	0.909	0.0717	0.5777	0.005
Mof_C 	C 	0.9147	0.0976	0.5682	-0.004
Mof_C 	C 	0.8848	0.1138	0.5313	0.003
Mof_C 	C 	0.8491	0.1039	0.504	-0.01
Mof_C 	C 	0.64	0.996	0.7061	0.014
Mof_C 	C 	0.6439	0.9715	0.7288	-0.015
Mof_C 	C 	0.6156	0.9523	0.7029	0.005
Mof_C 	C 	0.5835	0.9577	0.6543	-0.005
Mof_C 	C 	0.5796	0.9822	0.6316	0.006
Mof_C 	C 	0.6079	0.0013	0.6575	-0.022
Mof_C 	C 	0.864	0.9885	0.8447	0.018
Mof_C 	C 	0.8948	0.9808	0.8928	-0.019
Mof_C 	C 	0.9178	0.9602	0.9002	0.005
Mof_C 	C 	0.9099	0.9473	0.8596	-0.004
Mof_C 	C 	0.8791	0.955	0.8115	0.005
Mof_C 	C 	0.8561	0.9756	0.804	-0.013
Mof_C 	C 	0.6554	0.216	0.8102	0.01
Mof_C 	C 	0.6542	0.1928	0.8314	-0.031
Mof_C 	C 	0.6457	0.1951	0.8615	0.006
Mof_C 	C 	0.6385	0.2206	0.8704	-0.005
Mof_C 	C 	0.6396	0.2439	0.8491	0.002
Mof_C 	C 	0.6481	0.2416	0.819	-0.007
Mof_C 	C 	0.558	0.0908	0.4909	0.018
Mof_C 	C 	0.5257	0.1019	0.455	-0.013
Mof_C 	C 	0.5089	0.0619	0.4075	-0.005
Mof_C 	C 	0.5638	0.0687	0.4765	-0.023
Mof_C 	C 	0.7323	0.9987	0.594	0.016
Mof_C 	C 	0.7016	0.9929	0.5447	-0.022
Mof_C 	C 	0.6929	0.9659	0.5284	0.006
Mof_C 	C 	0.7149	0.9448	0.5615	-0.005
Mof_C 	C 	0.7455	0.9506	0.6108	0.004
Mof_C 	C 	0.7542	0.9776	0.627	-0.012
Mof_C 	C 	0.9009	0.0332	0.788	0.005
Mof_C 	C 	0.9243	0.0582	0.8035	-0.025
Mof_C 	C 	0.9663	0.0497	0.8507	0.002
Mof_C 	C 	0.9255	0.0137	0.832	-0.007
Mof_C 	C 	0.8316	0.1823	0.0084	-0.008
Mof_C 	C 	0.7949	0.1845	0.9951	-0.015
Mof_C 	C 	0.7988	0.2058	0.029	0
Mof_C 	C 	0.8414	0.1998	0.0776	-0
Mof_C 	C 	0.8648	0.1859	0.061	-0.001
Mof_C 	C 	0.9239	0.0526	0.9839	0.008
Mof_C 	C 	0.9481	0.0502	0.0373	-0.006
Mof_C 	C 	0.9845	0.0365	0.0588	0.001
Mof_C 	C 	0.9902	0.0288	0.0271	-0.003
Mof_C 	C 	0.9688	0.0314	0.9775	0.003
Mof_C 	C 	0.9305	0.0433	0.9552	-0.029
Mof_C 	C 	0.4338	0.1893	0.5424	0.011
Mof_C 	C 	0.4573	0.1917	0.5949	-0.018
Mof_C 	C 	0.4447	0.1836	0.6182	0.005
Mof_C 	C 	0.4073	0.175	0.592	-0.003
Mof_C 	C 	0.3789	0.176	0.5356	0.002
Mof_C 	C 	0.396	0.1832	0.5135	-0.011
Mof_C 	C 	0.8411	0.2597	0.7352	0.015
Mof_C 	C 	0.7553	0.3384	0.7306	0.002
Mof_C 	C 	0.8003	0.1432	0.5243	0.023
Mof_C 	C 	0.7592	0.3353	0.6954	-0.004
Mof_C 	C 	0.6209	0.3159	0.5724	-0.005
Mof_C 	C 	0.0265	0.1678	0.9277	0.002
Mof_C 	C 	0.6389	0.0083	0.3604	-0.003
Mof_C 	C 	0.6343	0.2375	0.5267	-0.029
Mof_C 	C 	0.626	0.2618	0.4993	0.006
Mof_C 	C 	0.7769	0.0805	0.0063	-0.019
Mof_C 	C 	0.7539	0.313	0.7549	-0.005
Mof_C 	C 	0.7641	0.3109	0.6835	0.006
Mof_C 	C 	0.8444	0.353	0.8924	0.002
Mof_C 	C 	0.7285	0.1848	0.4937	-0.018
Mof_C 	C 	0.6866	0.9991	0.3586	-0.028
Mof_C 	C 	0.0383	0.1169	0.049	-0.003
Mof_C 	C 	0.9685	0.1064	0.9927	-0.019
Mof_C 	C 	0.6653	0.0046	0.4125	0.003
Mof_C 	C 	0.5937	0.2986	0.561	0.006
Mof_C 	C 	0.6956	0.106	0.4556	-0.031
Mof_C 	C 	0.4659	0.1674	0.3748	-0.005
Mof_C 	C 	0.6741	0.1229	0.4131	0.007
Mof_C 	C 	0.0093	0.0954	0.0207	0.003
Mof_C 	C 	0.8485	0.3052	0.8807	0.009
Mof_C 	C 	0.6023	0.2738	0.5838	-0.018
Mof_C 	C 	0.7132	0.2311	0.4661	-0.004
Mof_C 	C 	0.0074	0.1222	0.9354	0.005
Mof_C 	C 	0.8207	0.1036	0.3552	-0.003
Mof_C 	C 	0.9944	0.2491	0.8865	-0.003
Mof_C 	C 	0.821	0.2982	0.8818	-0.025
Mof_C 	C 	0.8192	0.1834	0.4991	0.002
Mof_C 	C 	0.6158	0.2141	0.4996	0.011
Mof_C 	C 	0.8217	0.0762	0.3386	0.005
Mof_C 	C 	0.6854	0.1176	0.9367	0.005
Mof_C 	C 	0.6484	0.0064	0.3322	0.006
Mof_C 	C 	0.6719	0.0862	0.3654	0.002
Mof_C 	C 	0.6664	0.2805	0.6304	-0.022
Mof_C 	C 	0.8203	0.2858	0.6619	0.006
Mof_C 	C 	0.7901	0.1753	0.447	-0.004
Mof_C 	C 	0.5835	0.2379	0.4228	0.003
Mof_C 	C 	0.7285	0.2066	0.4689	0.005
Mof_C 	C 	0.9885	0.1769	0.8967	-0.007
Mof_C 	C 	0.694	0.1086	0.9082	-0.026
Mof_C 	C 	0.6011	0.2612	0.4481	-0.004
Mof_C 	C 	0.8198	0.2619	0.6833	-0.019
Mof_C 	C 	0.6633	0.0983	0.9396	-0.003
Mof_C 	C 	0.7629	0.2866	0.7048	-0.028
Mof_C 	C 	0.0186	0.2433	0.9389	0.002
Mof_C 	C 	0.7654	0.1534	0.4318	0.005
Mof_C 	C 	0.7107	0.9947	0.4103	0.01
Mof_C 	C 	0.8154	0.3464	0.891	-0.004
Mof_C 	C 	0.8626	0.3066	0.7431	0.004
Mof_C 	C 	0.0339	0.142	0.9488	-0.003
Mof_C 	C 	0.4517	0.1831	0.3905	0.005
Mof_C 	C 	0.7001	0.9971	0.4371	-0.009
Mof_C 	C 	0.6801	0.0851	0.8823	0.01
Mof_C 	C 	0.9152	0.1173	0.7481	0.024
Mof_C 	C 	0.6995	0.2123	0.5157	-0.021
Mof_C 	C 	0.0288	0.1447	0.0508	0.004
Mof_C 	C 	0.8636	0.2819	0.7665	-0.013
Mof_C 	C 	0.9607	0.1581	0.8842	0.01
Mof_C 	C 	0.9636	0.1351	0.9972	0.015
Mof_C 	C 	0.005	0.2352	0.96	-0.008
Mof_C 	C 	0.8405	0.3083	0.6914	-0.004
Mof_C 	C 	0.475	0.1952	0.437	-0.024
Mof_C 	C 	0.9667	0.2329	0.9317	0.01
Mof_C 	C 	0.5904	0.2133	0.4483	-0.006
Mof_C 	C 	0.7142	0.1879	0.5178	0.014
Mof_C 	C 	0.802	0.1093	0.3708	0.003
Mof_C 	C 	0.7041	0.0792	0.4528	0.012
Mof_C 	C 	0.5128	0.1907	0.4691	0.013
Mof_C 	C 	0.9901	0.1527	0.0191	-0.017
Mof_C 	C 	0.7594	0.2884	0.7396	0.01
Mof_C 	C 	0.6978	0.2344	0.4891	0.006
Mof_C 	C 	0.9427	0.2393	0.8819	-0.028
Mof_C 	C 	0.6372	0.2645	0.6179	0.017
Mof_C 	C 	0.86	0.3312	0.8851	-0.008
Mof_C 	C 	0.9558	0.2476	0.8583	0.008
Mof_C 	C 	0.8273	0.1647	0.5425	-0.011
Mof_C 	C 	0.7975	0.0557	0.3347	-0.026
Mof_C 	C 	0.4846	0.1194	0.515	0.002
Mof_C 	C 	0.6475	0.075	0.9134	0.002
Mof_C 	C 	0.6935	0.0684	0.4096	-0.015
Mof_C 	C 	0.8055	0.32	0.8897	0.006
Mof_C 	C 	0.6571	0.3062	0.6056	0.006
Mof_C 	C 	0.6627	0.1129	0.367	-0.004
Mof_C 	C 	0.7727	0.1378	0.4715	-0.022
Mof_C 	C 	0.9692	0.1315	0.9021	-0.025
Mof_C 	C 	0.7771	0.0614	0.345	0.012
Mof_C 	C 	0.7787	0.0871	0.3659	-0.012
Mof_C 	C 	0.5047	0.1634	0.4069	0.007
Mof_C 	C 	0.6556	0.0672	0.8819	-0.005
Mof_C 	C 	0.5282	0.1753	0.4543	-0.022
Mof_C 	C 	0.769	0.2461	0.9086	0.011
Mof_C 	C 	0.5815	0.283	0.6916	0.003
Mof_C 	C 	0.792	0.2561	0.9512	-0.018
Mof_C 	C 	0.5797	0.254	0.6944	-0.011
Mof_C 	C 	0.533	0.2835	0.5996	0.003
Mof_C 	C 	0.5592	0.298	0.6436	-0.003
Mof_C 	C 	0.5323	0.2528	0.6027	-0.028
Mof_C 	C 	0.9194	0.2182	0.7117	-0.003
Mof_C 	C 	0.8917	0.2237	0.6622	0.003
Mof_C 	C 	0.8538	0.2145	0.6347	-0.007
Mof_C 	C 	0.9149	0.2038	0.7426	0.006
Mof_C 	C 	0.8767	0.1948	0.7148	-0.026
Mof_C 	C 	0.5566	0.2403	0.6482	0.01
Mof_C 	C 	0.8482	0.1997	0.6654	0.016
Mof_C 	C 	0.7986	0.098	0.9973	0.011
Mof_C 	C 	0.7732	0.0905	0.0399	0.004
Mof_S 	S 	0.84175	0.19872	0.86162	-0.256
Mof_S 	S 	0.69799	0.13117	0.63675	-0.262
Mof_S 	S 	0.73103	0.18091	0.75433	-0.265
Mof_S 	S 	0.69554	0.1012	0.74393	-0.262
Mof_S 	S 	0.80752	0.15255	0.74546	-0.264
Mof_S 	S 	0.77246	0.07268	0.73826	-0.266
Mof_S 	S 	0.80655	0.12231	0.85456	-0.265
Mof_S 	S 	0.95119	0.22168	0.9623	-0.118
Mof_S 	S 	0.76993	0.04461	0.84472	-0.254
Mof_S 	S 	0.62396	0.15998	0.64571	-0.254
Mof_S 	S 	0.84285	0.22994	0.7648	-0.125
Mof_S 	S 	0.58926	0.11395	0.53951	-0.13
Mof_S 	S 	0.73052	0.21566	0.64489	-0.196
Mof_S 	S 	0.77577	0.10005	0.63473	-0.254
Mof_S 	S 	0.66051	0.08965	0.5185	-0.121
Mof_S 	S 	0.71347	0.15813	0.54567	-0.122
Mof_S 	S 	0.86978	0.27983	0.87147	-0.114
Mof_S 	S 	0.54096	0.20687	0.52794	-0.122
Mof_S 	S 	0.75841	0.25849	0.76761	-0.12
Mof_S 	S 	0.67342	0.02214	0.74597	-0.127
Mof_S 	S 	0.64808	0.23228	0.64875	-0.131
Mof_S 	S 	0.6612	0.04869	0.62324	-0.198
Mof_S 	S 	0.62554	0.1821	0.53124	-0.119
Mof_S 	S 	0.91458	0.17079	0.8435	-0.12
Mof_S 	S 	0.73046	0.05711	0.50346	-0.121
Mof_S 	S 	0.72897	0.15166	0.86479	-0.2
Mof_S 	S 	0.91543	0.14604	0.95925	-0.126
Mof_S 	S 	0.88031	0.24431	0.9859	-0.116
Mof_S 	S 	0.80251	0.19134	0.63453	-0.119
Mof_S 	S 	0.8859	0.09136	0.84881	-0.199
Mof_S 	S 	0.66376	0.21644	0.76926	-0.12
Mof_S 	S 	0.55378	0.20404	0.65359	-0.116
Mof_S 	S 	0.75772	0.98524	0.44194	-0.12
Mof_S 	S 	0.77471	0.22762	0.87162	-0.132
Mof_S 	S 	0.6853	0.07377	0.83914	-0.122
Mof_S 	S 	0.85029	0.03569	0.74066	-0.118
Mof_S 	S 	0.7464	0.9932	0.7271	-0.119
Mof_S 	S 	0.74709	0.03768	0.33912	-0.115
Mof_S 	S 	0.74814	0.03015	0.62563	-0.136
Mof_S 	S 	0.84611	0.16346	0.97392	-0.119
Mof_S 	S 	0.61718	0.13535	0.73286	-0.135
Mof_S 	S 	0.86899	0.11942	0.72145	-0.137
Mof_S 	S 	0.88114	0.06991	0.95862	-0.122
Mof_S 	S 	0.80797	0.12375	0.56652	-0.129
Mof_S 	S 	0.84819	0.00416	0.46445	-0.123
Mof_S 	S 	0.51972	0.13475	0.57344	-0.12
Mof_S 	S 	0.83539	0.0159	0.83646	-0.137
Mof_S 	S 	0.80268	0.0885	0.95546	-0.13
Mof_S 	S 	0.8444	0.05345	0.62659	-0.115
Mof_S 	S 	0.59156	0.07545	0.645	-0.127
Mof_S 	S 	0.44855	0.19692	0.50987	-0.108
Mof_S 	S 	0.79984	0.0666	0.47808	-0.111
Mof_Cd	Cd	0.68922	0.14258	0.69696	0.252
Mof_Cd	Cd	0.76324	0.11453	0.69029	0.252
Mof_Cd	Cd	0.7613	0.08592	0.79532	0.253
Mof_Cd	Cd	0.71701	0.22175	0.69976	0.27
Mof_Cd	Cd	0.65243	0.09278	0.58272	0.271
Mof_Cd	Cd	0.79518	0.16263	0.80206	0.252
Mof_Cd	Cd	0.87071	0.13037	0.79393	0.269
Mof_Cd	Cd	0.87244	0.10695	0.90095	0.27
Mof_Cd	Cd	0.65683	0.06104	0.6865	0.271
Mof_Cd	Cd	0.72722	0.03689	0.67492	0.269
Mof_Cd	Cd	0.60907	0.19468	0.58261	0.276
Mof_Cd	Cd	0.82306	0.24291	0.81326	0.276
Mof_Cd	Cd	0.6957	0.17442	0.59531	0.27
Mof_Cd	Cd	0.83841	0.05647	0.794	0.271
Mof_Cd	Cd	0.58066	0.11954	0.60263	0.279
Mof_Cd	Cd	0.79106	0.13281	0.90841	0.269
Mof_Cd	Cd	0.83802	0.20586	0.928	0.276
Mof_Cd	Cd	0.51677	0.18615	0.56583	0.287
Mof_Cd	Cd	0.79388	0.19675	0.6975	0.268
Mof_Cd	Cd	0.90616	0.18374	0.90328	0.277
Mof_Cd	Cd	0.78265	0.14321	0.60355	0.28
Mof_Cd	Cd	0.78721	0.02323	0.43046	0.286
Mof_Cd	Cd	0.72523	0.19096	0.81837	0.269
Mof_Cd	Cd	0.73729	0.0036	0.78728	0.277
Mof_Cd	Cd	0.72373	0.07006	0.56557	0.277
Mof_Cd	Cd	0.68391	0.11778	0.79989	0.272
Mof_Cd	Cd	0.75019	0.05636	0.89279	0.277
Mof_Cd	Cd	0.61754	0.18273	0.70295	0.275
Mof_Cd	Cd	0.83722	0.03178	0.90551	0.277
Mof_Cd	Cd	0.79345	0.07414	0.5421	0.288
Mof_Cd	Cd	0.91441	0.25986	0.95899	0.286
Mof_Cd	Cd	0.83568	0.07389	0.68333	0.278
Mof_C 	C 	0.7999	0.1228	0.025	-0.012
Mof_C 	C 	0.967	0.0225	0.853	-0.001
Mof_C 	C 	0.4592	0.1246	0.4569	-0.012
Mof_C 	C 	0.5359	0.0509	0.442	0.008
Mof_C 	C 	0.8848	0.0251	0.4823	0.001
Mof_C 	C 	0.9794	0.1318	0.8014	0.006
Mof_C 	C 	0.4936	0.083	0.404	0.003
Mof_C 	C 	0.9149	0.0926	0.717	-0.022
Mof_C 	C 	0.7503	0.2887	0.9276	-0.003
Mof_C 	C 	0.9391	0.1301	0.7788	-0.024
Mof_C 	C 	0.9891	0.1119	0.7922	-0.003
Mof_C 	C 	0.7886	0.2785	0.9722	0.004
Mof_C 	C 	0.3342	0.4831	0.1231	0.007
Mof_C 	C 	0.3063	0.4976	0.0805	-0.025
Mof_C 	C 	0.3033	0.5257	0.0831	0.005
Mof_C 	C 	0.3282	0.5392	0.1284	-0.004
Mof_C 	C 	0.3561	0.5246	0.171	0.004
Mof_C 	C 	0.3591	0.4966	0.1684	-0.01
Mof_C 	C 	0.056	0.4437	0.1025	0.027
Mof_C 	C 	0.0269	0.4533	0.0981	-0.013
Mof_C 	C 	0.9996	0.4694	0.0576	0.004
Mof_C 	C 	0.0013	0.4759	0.0214	-0.006
Mof_C 	C 	0.0304	0.4663	0.0258	0.007
Mof_C 	C 	0.0577	0.4502	0.0663	-0.032
Mof_C 	C 	0.0925	0.3637	0.2522	0.022
Mof_C 	C 	0.0563	0.3544	0.2186	-0.022
Mof_C 	C 	0.0356	0.3529	0.2327	0.006
Mof_C 	C 	0.0512	0.3607	0.2804	-0.005
Mof_C 	C 	0.0873	0.37	0.314	0.007
Mof_C 	C 	0.108	0.3715	0.2999	-0.021
Mof_C 	C 	0.1346	0.43669	0.9758	0.013
Mof_C 	C 	0.1169	0.4325	0.9261	-0.008
Mof_C 	C 	0.0933	0.4523	0.8908	0.003
Mof_C 	C 	0.0873	0.47634	0.9053	-0.004
Mof_C 	C 	0.1049	0.48053	0.955	0.006
Mof_C 	C 	0.1286	0.4607	0.9903	-0.028
Mof_C 	C 	0.4159	0.2724	0.5429	0.009
Mof_C 	C 	0.4284	0.2601	0.5867	-0.007
Mof_C 	C 	0.4568	0.2721	0.6324	0.002
Mof_C 	C 	0.4726	0.2964	0.6343	-0.004
Mof_C 	C 	0.4601	0.3087	0.5905	0.008
Mof_C 	C 	0.4317	0.2967	0.5448	-0.031
Mof_C 	C 	0.2133	0.5328	0.1906	0.012
Mof_C 	C 	0.2249	0.559	0.1916	-0.007
Mof_C 	C 	0.1991	0.579	0.1598	0.003
Mof_C 	C 	0.1617	0.5728	0.127	-0.005
Mof_C 	C 	0.1501	0.5466	0.126	0.006
Mof_C 	C 	0.1759	0.5266	0.1578	-0.029
Mof_C 	C 	0.3434	0.422	0.0135	0.011
Mof_C 	C 	0.3733	0.4382	0.0503	-0.022
Mof_C 	C 	0.409	0.4283	0.0777	0.005
Mof_C 	C 	0.4147	0.4024	0.0682	-0.004
Mof_C 	C 	0.3848	0.3862	0.0313	0.003
Mof_C 	C 	0.3491	0.3961	0.004	-0.01
Mof_C 	C 	0.14	0.504	0.2061	0.014
Mof_C 	C 	0.1439	0.5285	0.2288	-0.015
Mof_C 	C 	0.1156	0.5477	0.2029	0.005
Mof_C 	C 	0.0835	0.5423	0.1543	-0.005
Mof_C 	C 	0.0796	0.5178	0.1316	0.006
Mof_C 	C 	0.1079	0.4987	0.1575	-0.022
Mof_C 	C 	0.364	0.5115	0.3447	0.018
Mof_C 	C 	0.3948	0.5192	0.3928	-0.019
Mof_C 	C 	0.4178	0.5398	0.4002	0.005
Mof_C 	C 	0.4099	0.5527	0.3596	-0.004
Mof_C 	C 	0.3791	0.545	0.3115	0.005
Mof_C 	C 	0.3561	0.5244	0.304	-0.013
Mof_C 	C 	0.1554	0.284	0.3102	0.01
Mof_C 	C 	0.1542	0.3072	0.3314	-0.031
Mof_C 	C 	0.1457	0.3049	0.3615	0.006
Mof_C 	C 	0.1385	0.2794	0.3704	-0.005
Mof_C 	C 	0.1396	0.2561	0.3491	0.002
Mof_C 	C 	0.1481	0.2584	0.319	-0.007
Mof_C 	C 	0.058	0.4092	0.9909	0.018
Mof_C 	C 	0.0257	0.3981	0.955	-0.013
Mof_C 	C 	0.0089	0.4381	0.9075	-0.005
Mof_C 	C 	0.0638	0.4313	0.9765	-0.023
Mof_C 	C 	0.2323	0.5013	0.094	0.016
Mof_C 	C 	0.2016	0.5071	0.0447	-0.022
Mof_C 	C 	0.1929	0.5341	0.0284	0.006
Mof_C 	C 	0.2149	0.5552	0.0615	-0.005
Mof_C 	C 	0.2455	0.5494	0.1108	0.004
Mof_C 	C 	0.2542	0.5224	0.127	-0.012
Mof_C 	C 	0.4009	0.4668	0.288	0.005
Mof_C 	C 	0.4243	0.4418	0.3035	-0.025
Mof_C 	C 	0.4663	0.4503	0.3507	0.002
Mof_C 	C 	0.4255	0.4863	0.332	-0.007
Mof_C 	C 	0.3316	0.3177	0.5084	-0.008
Mof_C 	C 	0.2949	0.3155	0.4951	-0.015
Mof_C 	C 	0.2988	0.2942	0.529	0
Mof_C 	C 	0.3414	0.3002	0.5776	-0
Mof_C 	C 	0.3648	0.3141	0.561	-0.001
Mof_C 	C 	0.4239	0.4474	0.4839	0.008
Mof_C 	C 	0.4481	0.4498	0.5373	-0.006
Mof_C 	C 	0.4845	0.4635	0.5588	0.001
Mof_C 	C 	0.4902	0.4712	0.5271	-0.003
Mof_C 	C 	0.4688	0.4686	0.4775	0.003
Mof_C 	C 	0.4305	0.4567	0.4552	-0.029
Mof_C 	C 	0.9338	0.3107	0.0424	0.011
Mof_C 	C 	0.9573	0.3083	0.0949	-0.018
Mof_C 	C 	0.9447	0.3164	0.1182	0.005
Mof_C 	C 	0.9073	0.325	0.092	-0.003
Mof_C 	C 	0.8789	0.324	0.0356	0.002
Mof_C 	C 	0.896	0.3168	0.0135	-0.011
Mof_C 	C 	0.3411	0.2403	0.2352	0.015
Mof_C 	C 	0.2553	0.1616	0.2306	0.002
Mof_C 	C 	0.3003	0.3568	0.0243	0.023
Mof_C 	C 	0.2592	0.1647	0.1954	-0.004
Mof_C 	C 	0.1209	0.1841	0.0724	-0.005
Mof_C 	C 	0.5265	0.3322	0.4277	0.002
Mof_C 	C 	0.1389	0.4917	0.8604	-0.003
Mof_C 	C 	0.1343	0.2625	0.0267	-0.029
Mof_C 	C 	0.126	0.2382	0.9993	0.006
Mof_C 	C 	0.2769	0.4195	0.5063	-0.019
Mof_C 	C 	0.2539	0.187	0.2549	-0.005
Mof_C 	C 	0.2641	0.1891	0.1835	0.006
Mof_C 	C 	0.3444	0.147	0.3924	0.002
Mof_C 	C 	0.2285	0.3152	0.9937	-0.018
Mof_C 	C 	0.1866	0.5009	0.8586	-0.028
Mof_C 	C 	0.5383	0.3831	0.549	-0.003
Mof_C 	C 	0.4685	0.3936	0.4927	-0.019
Mof_C 	C 	0.1653	0.4954	0.9125	0.003
Mof_C 	C 	0.0937	0.2014	0.061	0.006
Mof_C 	C 	0.1956	0.394	0.9556	-0.031
Mof_C 	C 	0.9659	0.3326	0.8748	-0.005
Mof_C 	C 	0.1741	0.3771	0.9131	0.007
Mof_C 	C 	0.5093	0.4046	0.5207	0.003
Mof_C 	C 	0.3485	0.1948	0.3807	0.009
Mof_C 	C 	0.1023	0.2262	0.0838	-0.018
Mof_C 	C 	0.2132	0.2689	0.9661	-0.004
Mof_C 	C 	0.5074	0.3778	0.4354	0.005
Mof_C 	C 	0.3207	0.3964	0.8552	-0.004
Mof_C 	C 	0.4944	0.2509	0.3865	-0.003
Mof_C 	C 	0.321	0.2018	0.3818	-0.025
Mof_C 	C 	0.3192	0.3166	0.9991	0.002
Mof_C 	C 	0.1158	0.2859	0.9996	0.011
Mof_C 	C 	0.3217	0.4238	0.8386	0.005
Mof_C 	C 	0.1854	0.3824	0.4367	0.005
Mof_C 	C 	0.1484	0.4936	0.8322	0.006
Mof_C 	C 	0.1719	0.4138	0.8654	0.002
Mof_C 	C 	0.1664	0.2195	0.1304	-0.022
Mof_C 	C 	0.3203	0.2142	0.1619	0.006
Mof_C 	C 	0.2901	0.3247	0.947	-0.004
Mof_C 	C 	0.0835	0.2621	0.9228	0.003
Mof_C 	C 	0.2285	0.2934	0.9689	0.005
Mof_C 	C 	0.4885	0.3231	0.3967	-0.007
Mof_C 	C 	0.194	0.3914	0.4082	-0.026
Mof_C 	C 	0.1011	0.2388	0.9481	-0.004
Mof_C 	C 	0.3198	0.2381	0.1833	-0.019
Mof_C 	C 	0.1633	0.4017	0.4396	-0.003
Mof_C 	C 	0.2629	0.2134	0.2048	-0.028
Mof_C 	C 	0.5186	0.2567	0.4389	0.002
Mof_C 	C 	0.2654	0.3466	0.9318	0.005
Mof_C 	C 	0.2107	0.5053	0.9103	0.01
Mof_C 	C 	0.3154	0.1536	0.391	-0.004
Mof_C 	C 	0.3626	0.1934	0.2431	0.004
Mof_C 	C 	0.5339	0.358	0.4488	-0.003
Mof_C 	C 	0.9517	0.3169	0.8905	0.005
Mof_C 	C 	0.2001	0.5029	0.9371	-0.009
Mof_C 	C 	0.1801	0.4149	0.3823	0.01
Mof_C 	C 	0.4152	0.3827	0.2481	0.024
Mof_C 	C 	0.1995	0.2877	0.0157	-0.021
Mof_C 	C 	0.5288	0.3553	0.5508	0.004
Mof_C 	C 	0.3636	0.2181	0.2665	-0.013
Mof_C 	C 	0.4607	0.3419	0.3842	0.01
Mof_C 	C 	0.4636	0.3649	0.4972	0.015
Mof_C 	C 	0.505	0.2648	0.46	-0.008
Mof_C 	C 	0.3405	0.1917	0.1914	-0.004
Mof_C 	C 	0.975	0.3048	0.937	-0.024
Mof_C 	C 	0.4667	0.2671	0.4317	0.01
Mof_C 	C 	0.0904	0.2867	0.9483	-0.006
Mof_C 	C 	0.2142	0.3121	0.0178	0.014
Mof_C 	C 	0.302	0.3907	0.8708	0.003
Mof_C 	C 	0.2041	0.4208	0.9528	0.012
Mof_C 	C 	0.0128	0.3093	0.9691	0.013
Mof_C 	C 	0.4901	0.3473	0.5191	-0.017
Mof_C 	C 	0.2594	0.2116	0.2396	0.01
Mof_C 	C 	0.1978	0.2656	0.9891	0.006
Mof_C 	C 	0.4427	0.2607	0.3819	-0.028
Mof_C 	C 	0.1372	0.2355	0.1179	0.017
Mof_C 	C 	0.36	0.1688	0.3851	-0.008
Mof_C 	C 	0.4558	0.2524	0.3583	0.008
Mof_C 	C 	0.3273	0.3353	0.0425	-0.011
Mof_C 	C 	0.2975	0.4443	0.8347	-0.026
Mof_C 	C 	0.9846	0.3806	0.015	0.002
Mof_C 	C 	0.1475	0.425	0.4134	0.002
Mof_C 	C 	0.1935	0.4316	0.9096	-0.015
Mof_C 	C 	0.3055	0.18	0.3897	0.006
Mof_C 	C 	0.1571	0.1938	0.1056	0.006
Mof_C 	C 	0.1627	0.3871	0.867	-0.004
Mof_C 	C 	0.2727	0.3622	0.9715	-0.022
Mof_C 	C 	0.4692	0.3685	0.4021	-0.025
Mof_C 	C 	0.2771	0.4386	0.845	0.012
Mof_C 	C 	0.2787	0.4129	0.8659	-0.012
Mof_C 	C 	0.0047	0.3366	0.9069	0.006
Mof_C 	C 	0.1556	0.4328	0.3819	-0.005
Mof_C 	C 	0.0282	0.3247	0.9543	-0.022
Mof_C 	C 	0.269	0.2539	0.4086	0.011
Mof_C 	C 	0.0815	0.217	0.1916	0.003
Mof_C 	C 	0.292	0.2439	0.4512	-0.018
Mof_C 	C 	0.0797	0.246	0.1944	-0.011
Mof_C 	C 	0.033	0.2165	0.0996	0.003
Mof_C 	C 	0.0592	0.202	0.1436	-0.003
Mof_C 	C 	0.0323	0.2472	0.1027	-0.028
Mof_C 	C 	0.4194	0.2818	0.2117	-0.003
Mof_C 	C 	0.3917	0.2763	0.1622	0.003
Mof_C 	C 	0.3538	0.2855	0.1347	-0.007
Mof_C 	C 	0.4149	0.2962	0.2426	0.006
Mof_C 	C 	0.3767	0.3052	0.2148	-0.026
Mof_C 	C 	0.0566	0.2597	0.1482	0.01
Mof_C 	C 	0.3482	0.3003	0.1654	0.016
Mof_C 	C 	0.2986	0.402	0.4973	0.011
Mof_C 	C 	0.2732	0.4095	0.5399	0.004
Mof_S 	S 	0.34175	0.30128	0.36162	-0.256
Mof_S 	S 	0.19799	0.36883	0.13675	-0.262
Mof_S 	S 	0.23103	0.31909	0.25433	-0.265
Mof_S 	S 	0.19554	0.3988	0.24393	-0.262
Mof_S 	S 	0.30752	0.34745	0.24546	-0.264
Mof_S 	S 	0.27246	0.42732	0.23826	-0.266
Mof_S 	S 	0.30655	0.37769	0.35456	-0.265
Mof_S 	S 	0.45119	0.27832	0.4623	-0.118
Mof_S 	S 	0.26993	0.45539	0.34472	-0.254
Mof_S 	S 	0.12396	0.34002	0.14571	-0.254
Mof_S 	S 	0.34285	0.27006	0.2648	-0.125
Mof_S 	S 	0.08926	0.38605	0.03951	-0.13
Mof_S 	S 	0.23052	0.28434	0.14489	-0.196
Mof_S 	S 	0.27577	0.39995	0.13473	-0.254
Mof_S 	S 	0.16051	0.41035	0.0185	-0.121
Mof_S 	S 	0.21347	0.34187	0.04567	-0.122
Mof_S 	S 	0.36978	0.22017	0.37147	-0.114
Mof_S 	S 	0.04096	0.29313	0.02794	-0.122
Mof_S 	S 	0.25841	0.24151	0.26761	-0.12
Mof_S 	S 	0.17342	0.47786	0.24597	-0.127
Mof_S 	S 	0.14808	0.26772	0.14875	-0.131
Mof_S 	S 	0.1612	0.45131	0.12324	-0.198
Mof_S 	S 	0.12554	0.3179	0.03124	-0.119
Mof_S 	S 	0.41458	0.32921	0.3435	-0.12
Mof_S 	S 	0.23046	0.44289	0.00346	-0.121
Mof_S 	S 	0.22897	0.34834	0.36479	-0.2
Mof_S 	S 	0.41543	0.35396	0.45925	-0.126
Mof_S 	S 	0.38031	0.25569	0.4859	-0.116
Mof_S 	S 	0.30251	0.30866	0.13453	-0.119
Mof_S 	S 	0.3859	0.40864	0.34881	-0.199
Mof_S 	S 	0.16376	0.28356	0.26926	-0.12
Mof_S 	S 	0.05378	0.29596	0.15359	-0.116
Mof_S 	S 	0.25772	0.51476	0.94194	-0.12
Mof_S 	S 	0.27471	0.27238	0.37162	-0.132
Mof_S 	S 	0.1853	0.42623	0.33914	-0.122
Mof_S 	S 	0.35029	0.46431	0.24066	-0.118
Mof_S 	S 	0.2464	0.5068	0.2271	-0.119
Mof_S 	S 	0.24709	0.46232	0.83912	-0.115
Mof_S 	S 	0.24814	0.46985	0.12563	-0.136
Mof_S 	S 	0.34611	0.33654	0.47392	-0.119
Mof_S 	S 	0.11718	0.36465	0.23286	-0.135
Mof_S 	S 	0.36899	0.38058	0.22145	-0.137
Mof_S 	S 	0.38114	0.43009	0.45862	-0.122
Mof_S 	S 	0.30797	0.37625	0.06652	-0.129
Mof_S 	S 	0.34819	0.49584	0.96445	-0.123
Mof_S 	S 	0.01972	0.36525	0.07344	-0.12
Mof_S 	S 	0.33539	0.4841	0.33646	-0.137
Mof_S 	S 	0.30268	0.4115	0.45546	-0.13
Mof_S 	S 	0.3444	0.44655	0.12659	-0.115
Mof_S 	S 	0.09156	0.42455	0.145	-0.127
Mof_S 	S 	0.94855	0.30308	0.00987	-0.108
Mof_S 	S 	0.29984	0.4334	0.97808	-0.111
Mof_Cd	Cd	0.18922	0.35742	0.19696	0.252
Mof_Cd	Cd	0.26324	0.38547	0.19029	0.252
Mof_Cd	Cd	0.2613	0.41408	0.29532	0.253
Mof_Cd	Cd	0.21701	0.27825	0.19976	0.27
Mof_Cd	Cd	0.15243	0.40722	0.08272	0.271
Mof_Cd	Cd	0.29518	0.33737	0.30206	0.252
Mof_Cd	Cd	0.37071	0.36963	0.29393	0.269
Mof_Cd	Cd	0.37244	0.39305	0.40095	0.27
Mof_Cd	Cd	0.15683	0.43896	0.1865	0.271
Mof_Cd	Cd	0.22722	0.46311	0.17492	0.269
Mof_Cd	Cd	0.10907	0.30532	0.08261	0.276
Mof_Cd	Cd	0.32306	0.25709	0.31326	0.276
Mof_Cd	Cd	0.1957	0.32558	0.09531	0.27
Mof_Cd	Cd	0.33841	0.44352	0.294	0.271
Mof_Cd	Cd	0.08066	0.38046	0.10263	0.279
Mof_Cd	Cd	0.29106	0.36719	0.40841	0.269
Mof_Cd	Cd	0.33802	0.29414	0.428	0.276
Mof_Cd	Cd	0.01677	0.31385	0.06583	0.287
Mof_Cd	Cd	0.29388	0.30325	0.1975	0.268
Mof_Cd	Cd	0.40616	0.31626	0.40328	0.277
Mof_Cd	Cd	0.28265	0.35679	0.10355	0.28
Mof_Cd	Cd	0.28721	0.47677	0.93046	0.286
Mof_Cd	Cd	0.22523	0.30904	0.31837	0.269
Mof_Cd	Cd	0.23729	0.4964	0.28728	0.277
Mof_Cd	Cd	0.22373	0.42994	0.06557	0.277
Mof_Cd	Cd	0.18391	0.38222	0.29989	0.272
Mof_Cd	Cd	0.25019	0.44364	0.39279	0.277
Mof_Cd	Cd	0.11754	0.31727	0.20295	0.275
Mof_Cd	Cd	0.33722	0.46822	0.40551	0.277
Mof_Cd	Cd	0.29345	0.42586	0.0421	0.288
Mof_Cd	Cd	0.41441	0.24014	0.45899	0.286
Mof_Cd	Cd	0.33568	0.42611	0.18333	0.278
Mof_C 	C 	0.2999	0.3772	0.525	-0.012
Mof_C 	C 	0.467	0.4775	0.353	-0.001
Mof_C 	C 	0.9592	0.3754	0.9569	-0.012
Mof_C 	C 	0.0359	0.4491	0.942	0.008
Mof_C 	C 	0.3848	0.4749	0.9823	0.001
Mof_C 	C 	0.4794	0.3682	0.3014	0.006
Mof_C 	C 	0.9936	0.417	0.904	0.003
Mof_C 	C 	0.4149	0.4074	0.217	-0.022
Mof_C 	C 	0.2503	0.2113	0.4276	-0.003
Mof_C 	C 	0.4391	0.3699	0.2788	-0.024
Mof_C 	C 	0.4891	0.3881	0.2922	-0.003
Mof_C 	C 	0.2886	0.2215	0.4722	0.004
Mof_C 	C 	0.8342	0.9831	0.1231	0.007
Mof_C 	C 	0.8063	0.9976	0.0805	-0.025
Mof_C 	C 	0.8033	0.0257	0.0831	0.005
Mof_C 	C 	0.8282	0.0392	0.1284	-0.004
Mof_C 	C 	0.8561	0.0246	0.171	0.004
Mof_C 	C 	0.8591	0.9966	0.1684	-0.01
Mof_C 	C 	0.556	0.9437	0.1025	0.027
Mof_C 	C 	0.5269	0.9533	0.0981	-0.013
Mof_C 	C 	0.4996	0.9694	0.0576	0.004
Mof_C 	C 	0.5013	0.9759	0.0214	-0.006
Mof_C 	C 	0.5304	0.9663	0.0258	0.007
Mof_C 	C 	0.5577	0.9502	0.0663	-0.033
Mof_C 	C 	0.5925	0.8637	0.2522	0.022
Mof_C 	C 	0.5563	0.8544	0.2186	-0.022
Mof_C 	C 	0.5356	0.8529	0.2327	0.006
Mof_C 	C 	0.5512	0.8607	0.2804	-0.005
Mof_C 	C 	0.5873	0.87	0.314	0.007
Mof_C 	C 	0.608	0.8715	0.2999	-0.021
Mof_C 	C 	0.6346	0.93669	0.9758	0.014
Mof_C 	C 	0.6169	0.9325	0.9261	-0.008
Mof_C 	C 	0.5933	0.9523	0.8908	0.004
Mof_C 	C 	0.5873	0.97634	0.9053	-0.004
Mof_C 	C 	0.6049	0.98053	0.955	0.006
Mof_C 	C 	0.6286	0.9607	0.9903	-0.028
Mof_C 	C 	0.9159	0.7724	0.5429	0.009
Mof_C 	C 	0.9284	0.7601	0.5867	-0.007
Mof_C 	C 	0.9568	0.7721	0.6324	0.002
Mof_C 	C 	0.9726	0.7964	0.6343	-0.004
Mof_C 	C 	0.9601	0.8087	0.5905	0.008
Mof_C 	C 	0.9317	0.7967	0.5448	-0.031
Mof_C 	C 	0.7133	0.0328	0.1906	0.012
Mof_C 	C 	0.7249	0.059	0.1916	-0.007
Mof_C 	C 	0.6991	0.079	0.1598	0.003
Mof_C 	C 	0.6617	0.0728	0.127	-0.005
Mof_C 	C 	0.6501	0.0466	0.126	0.006
Mof_C 	C 	0.6759	0.0266	0.1578	-0.029
Mof_C 	C 	0.8434	0.922	0.0135	0.011
Mof_C 	C 	0.8733	0.9382	0.0503	-0.022
Mof_C 	C 	0.909	0.9283	0.0777	0.005
Mof_C 	C 	0.9147	0.9024	0.0682	-0.004
Mof_C 	C 	0.8848	0.8862	0.0313	0.003
Mof_C 	C 	0.8491	0.8961	0.004	-0.01
Mof_C 	C 	0.64	0.004	0.2061	0.014
Mof_C 	C 	0.6439	0.0285	0.2288	-0.015
Mof_C 	C 	0.6156	0.0477	0.2029	0.005
Mof_C 	C 	0.5835	0.0423	0.1543	-0.005
Mof_C 	C 	0.5796	0.0178	0.1316	0.006
Mof_C 	C 	0.6079	0.9987	0.1575	-0.022
Mof_C 	C 	0.864	0.0115	0.3447	0.018
Mof_C 	C 	0.8948	0.0192	0.3928	-0.019
Mof_C 	C 	0.9178	0.0398	0.4002	0.005
Mof_C 	C 	0.9099	0.0527	0.3596	-0.004
Mof_C 	C 	0.8791	0.045	0.3115	0.005
Mof_C 	C 	0.8561	0.0244	0.304	-0.013
Mof_C 	C 	0.6554	0.784	0.3102	0.01
Mof_C 	C 	0.6542	0.8072	0.3314	-0.031
Mof_C 	C 	0.6457	0.8049	0.3615	0.006
Mof_C 	C 	0.6385	0.7794	0.3704	-0.005
Mof_C 	C 	0.6396	0.7561	0.3491	0.002
Mof_C 	C 	0.6481	0.7584	0.319	-0.007
Mof_C 	C 	0.558	0.9092	0.9909	0.018
Mof_C 	C 	0.5257	0.8981	0.955	-0.013
Mof_C 	C 	0.5089	0.9381	0.9075	-0.005
Mof_C 	C 	0.5638	0.9313	0.9765	-0.023
Mof_C 	C 	0.7323	0.0013	0.094	0.016
Mof_C 	C 	0.7016	0.0071	0.0447	-0.022
Mof_C 	C 	0.6929	0.0341	0.0284	0.006
Mof_C 	C 	0.7149	0.0552	0.0615	-0.005
Mof_C 	C 	0.7455	0.0494	0.1108	0.004
Mof_C 	C 	0.7542	0.0224	0.127	-0.012
Mof_C 	C 	0.9009	0.9668	0.288	0.005
Mof_C 	C 	0.9243	0.9418	0.3035	-0.025
Mof_C 	C 	0.9663	0.9503	0.3507	0.002
Mof_C 	C 	0.9255	0.9863	0.332	-0.007
Mof_C 	C 	0.8316	0.8177	0.5084	-0.008
Mof_C 	C 	0.7949	0.8155	0.4951	-0.015
Mof_C 	C 	0.7988	0.7942	0.529	0
Mof_C 	C 	0.8414	0.8002	0.5776	-0
Mof_C 	C 	0.8648	0.8141	0.561	-0.001
Mof_C 	C 	0.9239	0.9474	0.4839	0.008
Mof_C 	C 	0.9481	0.9498	0.5373	-0.006
Mof_C 	C 	0.9845	0.9635	0.5588	0.001
Mof_C 	C 	0.9902	0.9712	0.5271	-0.003
Mof_C 	C 	0.9688	0.9686	0.4775	0.003
Mof_C 	C 	0.9305	0.9567	0.4552	-0.029
Mof_C 	C 	0.4338	0.8107	0.0424	0.011
Mof_C 	C 	0.4573	0.8083	0.0949	-0.018
Mof_C 	C 	0.4447	0.8164	0.1182	0.005
Mof_C 	C 	0.4073	0.825	0.092	-0.003
Mof_C 	C 	0.3789	0.824	0.0356	0.002
Mof_C 	C 	0.396	0.8168	0.0135	-0.011
Mof_C 	C 	0.8411	0.7403	0.2352	0.015
Mof_C 	C 	0.7553	0.6616	0.2306	0.002
Mof_C 	C 	0.8003	0.8568	0.0243	0.023
Mof_C 	C 	0.7592	0.6647	0.1954	-0.004
Mof_C 	C 	0.6209	0.6841	0.0724	-0.005
Mof_C 	C 	0.0265	0.8322	0.4277	0.002
Mof_C 	C 	0.6389	0.9917	0.8604	-0.003
Mof_C 	C 	0.6343	0.7625	0.0267	-0.029
Mof_C 	C 	0.626	0.7382	0.9993	0.006
Mof_C 	C 	0.7769	0.9195	0.5063	-0.019
Mof_C 	C 	0.7539	0.687	0.2549	-0.005
Mof_C 	C 	0.7641	0.6891	0.1835	0.006
Mof_C 	C 	0.8444	0.647	0.3924	0.002
Mof_C 	C 	0.7285	0.8152	0.9937	-0.018
Mof_C 	C 	0.6866	0.0009	0.8586	-0.028
Mof_C 	C 	0.0383	0.8831	0.549	-0.003
Mof_C 	C 	0.9685	0.8936	0.4927	-0.019
Mof_C 	C 	0.6653	0.9954	0.9125	0.003
Mof_C 	C 	0.5937	0.7014	0.061	0.006
Mof_C 	C 	0.6956	0.894	0.9556	-0.031
Mof_C 	C 	0.4659	0.8326	0.8748	-0.005
Mof_C 	C 	0.6741	0.8771	0.9131	0.007
Mof_C 	C 	0.0093	0.9046	0.5207	0.003
Mof_C 	C 	0.8485	0.6948	0.3807	0.009
Mof_C 	C 	0.6023	0.7262	0.0838	-0.018
Mof_C 	C 	0.7132	0.7689	0.9661	-0.004
Mof_C 	C 	0.0074	0.8778	0.4354	0.005
Mof_C 	C 	0.8207	0.8964	0.8552	-0.004
Mof_C 	C 	0.9944	0.7509	0.3865	-0.003
Mof_C 	C 	0.821	0.7018	0.3818	-0.025
Mof_C 	C 	0.8192	0.8166	0.9991	0.002
Mof_C 	C 	0.6158	0.7859	0.9996	0.011
Mof_C 	C 	0.8217	0.9238	0.8386	0.005
Mof_C 	C 	0.6854	0.8824	0.4367	0.005
Mof_C 	C 	0.6484	0.9936	0.8322	0.006
Mof_C 	C 	0.6719	0.9138	0.8654	0.002
Mof_C 	C 	0.6664	0.7195	0.1304	-0.022
Mof_C 	C 	0.8203	0.7142	0.1619	0.006
Mof_C 	C 	0.7901	0.8247	0.947	-0.004
Mof_C 	C 	0.5835	0.7621	0.9228	0.003
Mof_C 	C 	0.7285	0.7934	0.9689	0.005
Mof_C 	C 	0.9885	0.8231	0.3967	-0.007
Mof_C 	C 	0.694	0.8914	0.4082	-0.026
Mof_C 	C 	0.6011	0.7388	0.9481	-0.004
Mof_C 	C 	0.8198	0.7381	0.1833	-0.019
Mof_C 	C 	0.6633	0.9017	0.4396	-0.003
Mof_C 	C 	0.7629	0.7134	0.2048	-0.028
Mof_C 	C 	0.0186	0.7567	0.4389	0.002
Mof_C 	C 	0.7654	0.8466	0.9318	0.005
Mof_C 	C 	0.7107	0.0053	0.9103	0.01
Mof_C 	C 	0.8154	0.6536	0.391	-0.004
Mof_C 	C 	0.8626	0.6934	0.2431	0.004
Mof_C 	C 	0.0339	0.858	0.4488	-0.003
Mof_C 	C 	0.4517	0.8169	0.8905	0.005
Mof_C 	C 	0.7001	0.0029	0.9371	-0.009
Mof_C 	C 	0.6801	0.9149	0.3823	0.01
Mof_C 	C 	0.9152	0.8827	0.2481	0.024
Mof_C 	C 	0.6995	0.7877	0.0157	-0.021
Mof_C 	C 	0.0288	0.8553	0.5508	0.004
Mof_C 	C 	0.8636	0.7181	0.2665	-0.013
Mof_C 	C 	0.9607	0.8419	0.3842	0.01
Mof_C 	C 	0.9636	0.8649	0.4972	0.015
Mof_C 	C 	0.005	0.7648	0.46	-0.008
Mof_C 	C 	0.8405	0.6917	0.1914	-0.004
Mof_C 	C 	0.475	0.8048	0.937	-0.024
Mof_C 	C 	0.9667	0.7671	0.4317	0.01
Mof_C 	C 	0.5904	0.7867	0.9483	-0.006
Mof_C 	C 	0.7142	0.8121	0.0178	0.014
Mof_C 	C 	0.802	0.8907	0.8708	0.003
Mof_C 	C 	0.7041	0.9208	0.9528	0.012
Mof_C 	C 	0.5128	0.8093	0.9691	0.013
Mof_C 	C 	0.9901	0.8473	0.5191	-0.017
Mof_C 	C 	0.7594	0.7116	0.2396	0.01
Mof_C 	C 	0.6978	0.7656	0.9891	0.006
Mof_C 	C 	0.9427	0.7607	0.3819	-0.028
Mof_C 	C 	0.6372	0.7355	0.1179	0.017
Mof_C 	C 	0.86	0.6688	0.3851	-0.008
Mof_C 	C 	0.9558	0.7524	0.3583	0.008
Mof_C 	C 	0.8273	0.8353	0.0425	-0.011
Mof_C 	C 	0.7975	0.9443	0.8347	-0.026
Mof_C 	C 	0.4846	0.8806	0.015	0.002
Mof_C 	C 	0.6475	0.925	0.4134	0.002
Mof_C 	C 	0.6935	0.9316	0.9096	-0.015
Mof_C 	C 	0.8055	0.68	0.3897	0.006
Mof_C 	C 	0.6571	0.6938	0.1056	0.006
Mof_C 	C 	0.6627	0.8871	0.867	-0.004
Mof_C 	C 	0.7727	0.8622	0.9715	-0.022
Mof_C 	C 	0.9692	0.8685	0.4021	-0.025
Mof_C 	C 	0.7771	0.9386	0.845	0.012
Mof_C 	C 	0.7787	0.9129	0.8659	-0.012
Mof_C 	C 	0.5047	0.8366	0.9069	0.007
Mof_C 	C 	0.6556	0.9328	0.3819	-0.005
Mof_C 	C 	0.5282	0.8247	0.9543	-0.022
Mof_C 	C 	0.769	0.7539	0.4086	0.011
Mof_C 	C 	0.5815	0.717	0.1916	0.003
Mof_C 	C 	0.792	0.7439	0.4512	-0.018
Mof_C 	C 	0.5797	0.746	0.1944	-0.011
Mof_C 	C 	0.533	0.7165	0.0996	0.003
Mof_C 	C 	0.5592	0.702	0.1436	-0.003
Mof_C 	C 	0.5323	0.7472	0.1027	-0.028
Mof_C 	C 	0.9194	0.7818	0.2117	-0.003
Mof_C 	C 	0.8917	0.7763	0.1622	0.003
Mof_C 	C 	0.8538	0.7855	0.1347	-0.007
Mof_C 	C 	0.9149	0.7962	0.2426	0.006
Mof_C 	C 	0.8767	0.8052	0.2148	-0.026
Mof_C 	C 	0.5566	0.7597	0.1482	0.01
Mof_C 	C 	0.8482	0.8003	0.1654	0.016
Mof_C 	C 	0.7986	0.902	0.4973	0.011
Mof_C 	C 	0.7732	0.9095	0.5399	0.004
Mof_S 	S 	0.84175	0.80128	0.36162	-0.256
Mof_S 	S 	0.69799	0.86883	0.13675	-0.262
Mof_S 	S 	0.73103	0.81909	0.25433	-0.265
Mof_S 	S 	0.69554	0.8988	0.24393	-0.262
Mof_S 	S 	0.80752	0.84745	0.24546	-0.264
Mof_S 	S 	0.77246	0.92732	0.23826	-0.266
Mof_S 	S 	0.80655	0.87769	0.35456	-0.265
Mof_S 	S 	0.95119	0.77832	0.4623	-0.118
Mof_S 	S 	0.76993	0.95539	0.34472	-0.254
Mof_S 	S 	0.62396	0.84002	0.14571	-0.254
Mof_S 	S 	0.84285	0.77006	0.2648	-0.125
Mof_S 	S 	0.58926	0.88605	0.03951	-0.13
Mof_S 	S 	0.73052	0.78434	0.14489	-0.196
Mof_S 	S 	0.77577	0.89995	0.13473	-0.254
Mof_S 	S 	0.66051	0.91035	0.0185	-0.121
Mof_S 	S 	0.71347	0.84187	0.04567	-0.122
Mof_S 	S 	0.86978	0.72017	0.37147	-0.114
Mof_S 	S 	0.54096	0.79313	0.02794	-0.122
Mof_S 	S 	0.75841	0.74151	0.26761	-0.12
Mof_S 	S 	0.67342	0.97786	0.24597	-0.127
Mof_S 	S 	0.64808	0.76772	0.14875	-0.131
Mof_S 	S 	0.6612	0.95131	0.12324	-0.198
Mof_S 	S 	0.62554	0.8179	0.03124	-0.119
Mof_S 	S 	0.91458	0.82921	0.3435	-0.12
Mof_S 	S 	0.73046	0.94289	0.00346	-0.121
Mof_S 	S 	0.72897	0.84834	0.36479	-0.2
Mof_S 	S 	0.91543	0.85396	0.45925	-0.126
Mof_S 	S 	0.88031	0.75569	0.4859	-0.116
Mof_S 	S 	0.80251	0.80866	0.13453	-0.119
Mof_S 	S 	0.8859	0.90864	0.34881	-0.199
Mof_S 	S 	0.66376	0.78356	0.26926	-0.12
Mof_S 	S 	0.55378	0.79596	0.15359	-0.116
Mof_S 	S 	0.75772	0.01476	0.94194	-0.12
Mof_S 	S 	0.77471	0.77238	0.37162	-0.132
Mof_S 	S 	0.6853	0.92623	0.33914	-0.122
Mof_S 	S 	0.85029	0.96431	0.24066	-0.118
Mof_S 	S 	0.7464	0.0068	0.2271	-0.119
Mof_S 	S 	0.74709	0.96232	0.83912	-0.115
Mof_S 	S 	0.74814	0.96985	0.12563	-0.136
Mof_S 	S 	0.84611	0.83654	0.47392	-0.119
Mof_S 	S 	0.61718	0.86465	0.23286	-0.135
Mof_S 	S 	0.86899	0.88058	0.22145	-0.137
Mof_S 	S 	0.88114	0.93009	0.45862	-0.122
Mof_S 	S 	0.80797	0.87625	0.06652	-0.129
Mof_S 	S 	0.84819	0.99584	0.96445	-0.123
Mof_S 	S 	0.51972	0.86525	0.07344	-0.12
Mof_S 	S 	0.83539	0.9841	0.33646	-0.137
Mof_S 	S 	0.80268	0.9115	0.45546	-0.13
Mof_S 	S 	0.8444	0.94655	0.12659	-0.115
Mof_S 	S 	0.59156	0.92455	0.145	-0.127
Mof_S 	S 	0.44855	0.80308	0.00987	-0.108
Mof_S 	S 	0.79984	0.9334	0.97808	-0.111
Mof_Cd	Cd	0.68922	0.85742	0.19696	0.252
Mof_Cd	Cd	0.76324	0.88547	0.19029	0.252
Mof_Cd	Cd	0.7613	0.91408	0.29532	0.253
Mof_Cd	Cd	0.71701	0.77825	0.19976	0.27
Mof_Cd	Cd	0.65243	0.90722	0.08272	0.271
Mof_Cd	Cd	0.79518	0.83737	0.30206	0.252
Mof_Cd	Cd	0.87071	0.86963	0.29393	0.269
Mof_Cd	Cd	0.87244	0.89305	0.40095	0.27
Mof_Cd	Cd	0.65683	0.93896	0.1865	0.271
Mof_Cd	Cd	0.72722	0.96311	0.17492	0.269
Mof_Cd	Cd	0.60907	0.80532	0.08261	0.276
Mof_Cd	Cd	0.82306	0.75709	0.31326	0.276
Mof_Cd	Cd	0.6957	0.82558	0.09531	0.27
Mof_Cd	Cd	0.83841	0.94352	0.294	0.271
Mof_Cd	Cd	0.58066	0.88046	0.10263	0.279
Mof_Cd	Cd	0.79106	0.86719	0.40841	0.269
Mof_Cd	Cd	0.83802	0.79414	0.428	0.276
Mof_Cd	Cd	0.51677	0.81385	0.06583	0.287
Mof_Cd	Cd	0.79388	0.80325	0.1975	0.268
Mof_Cd	Cd	0.90616	0.81625	0.40328	0.277
Mof_Cd	Cd	0.78265	0.85679	0.10355	0.28
Mof_Cd	Cd	0.78721	0.97677	0.93046	0.286
Mof_Cd	Cd	0.72523	0.80904	0.31837	0.269
Mof_Cd	Cd	0.73729	0.9964	0.28728	0.277
Mof_Cd	Cd	0.72373	0.92993	0.06557	0.277
Mof_Cd	Cd	0.68391	0.88222	0.29989	0.272
Mof_Cd	Cd	0.75019	0.94364	0.39279	0.277
Mof_Cd	Cd	0.61754	0.81727	0.20295	0.275
Mof_Cd	Cd	0.83722	0.96822	0.40551	0.277
Mof_Cd	Cd	0.79345	0.92586	0.0421	0.288
Mof_Cd	Cd	0.91441	0.74014	0.45899	0.286
Mof_Cd	Cd	0.83568	0.92611	0.18333	0.278
Mof_C 	C 	0.7999	0.8772	0.525	-0.012
Mof_C 	C 	0.967	0.9775	0.353	-0.001
Mof_C 	C 	0.4592	0.8754	0.9569	-0.012
Mof_C 	C 	0.5359	0.9491	0.942	0.007
Mof_C 	C 	0.8848	0.9749	0.9823	0.001
Mof_C 	C 	0.9794	0.8682	0.3014	0.006
Mof_C 	C 	0.4936	0.917	0.904	0.003
Mof_C 	C 	0.9149	0.9074	0.217	-0.022
Mof_C 	C 	0.7503	0.7113	0.4276	-0.003
Mof_C 	C 	0.9391	0.8699	0.2788	-0.024
Mof_C 	C 	0.9891	0.8881	0.2922	-0.003
Mof_C 	C 	0.7886	0.7215	0.4722	0.004
Mof_C 	C 	0.6658	0.5169	0.8769	0.007
Mof_C 	C 	0.6937	0.5024	0.9195	-0.025
Mof_C 	C 	0.6967	0.4743	0.9169	0.005
Mof_C 	C 	0.6718	0.4608	0.8716	-0.004
Mof_C 	C 	0.6439	0.4754	0.829	0.004
Mof_C 	C 	0.6409	0.5034	0.8316	-0.01
Mof_C 	C 	0.944	0.5563	0.8975	0.027
Mof_C 	C 	0.9731	0.5467	0.9019	-0.013
Mof_C 	C 	0.0004	0.5306	0.9424	0.004
Mof_C 	C 	0.9987	0.5241	0.9786	-0.006
Mof_C 	C 	0.9696	0.5337	0.9742	0.007
Mof_C 	C 	0.9423	0.5498	0.9337	-0.032
Mof_C 	C 	0.9075	0.6363	0.7478	0.022
Mof_C 	C 	0.9437	0.6456	0.7814	-0.022
Mof_C 	C 	0.9644	0.6471	0.7673	0.006
Mof_C 	C 	0.9488	0.6393	0.7196	-0.005
Mof_C 	C 	0.9127	0.63	0.686	0.007
Mof_C 	C 	0.892	0.6285	0.7001	-0.021
Mof_C 	C 	0.8654	0.56331	0.0242	0.013
Mof_C 	C 	0.8831	0.5675	0.0739	-0.008
Mof_C 	C 	0.9067	0.5477	0.1092	0.003
Mof_C 	C 	0.9127	0.52366	0.0947	-0.004
Mof_C 	C 	0.8951	0.51947	0.045	0.006
Mof_C 	C 	0.8714	0.5393	0.0097	-0.028
Mof_C 	C 	0.5841	0.7276	0.4571	0.009
Mof_C 	C 	0.5716	0.7399	0.4133	-0.007
Mof_C 	C 	0.5432	0.7279	0.3676	0.002
Mof_C 	C 	0.5274	0.7036	0.3657	-0.004
Mof_C 	C 	0.5399	0.6913	0.4095	0.008
Mof_C 	C 	0.5683	0.7033	0.4552	-0.031
Mof_C 	C 	0.7867	0.4672	0.8094	0.012
Mof_C 	C 	0.7751	0.441	0.8084	-0.007
Mof_C 	C 	0.8009	0.421	0.8402	0.003
Mof_C 	C 	0.8383	0.4272	0.873	-0.005
Mof_C 	C 	0.8499	0.4534	0.874	0.006
Mof_C 	C 	0.8241	0.4734	0.8422	-0.029
Mof_C 	C 	0.6566	0.578	0.9865	0.011
Mof_C 	C 	0.6267	0.5618	0.9497	-0.022
Mof_C 	C 	0.591	0.5717	0.9223	0.005
Mof_C 	C 	0.5853	0.5976	0.9318	-0.004
Mof_C 	C 	0.6152	0.6138	0.9687	0.003
Mof_C 	C 	0.6509	0.6039	0.996	-0.01
Mof_C 	C 	0.86	0.496	0.7939	0.014
Mof_C 	C 	0.8561	0.4715	0.7712	-0.015
Mof_C 	C 	0.8844	0.4523	0.7971	0.005
Mof_C 	C 	0.9165	0.4577	0.8457	-0.005
Mof_C 	C 	0.9204	0.4822	0.8684	0.006
Mof_C 	C 	0.8921	0.5013	0.8425	-0.022
Mof_C 	C 	0.636	0.4885	0.6553	0.018
Mof_C 	C 	0.6052	0.4808	0.6072	-0.019
Mof_C 	C 	0.5822	0.4602	0.5998	0.005
Mof_C 	C 	0.5901	0.4473	0.6404	-0.004
Mof_C 	C 	0.6209	0.455	0.6885	0.005
Mof_C 	C 	0.6439	0.4756	0.696	-0.013
Mof_C 	C 	0.8446	0.716	0.6898	0.01
Mof_C 	C 	0.8458	0.6928	0.6686	-0.031
Mof_C 	C 	0.8543	0.6951	0.6385	0.006
Mof_C 	C 	0.8615	0.7206	0.6296	-0.005
Mof_C 	C 	0.8604	0.7439	0.6509	0.002
Mof_C 	C 	0.8519	0.7416	0.681	-0.007
Mof_C 	C 	0.942	0.5908	0.0091	0.018
Mof_C 	C 	0.9743	0.6019	0.045	-0.013
Mof_C 	C 	0.9911	0.5619	0.0925	-0.005
Mof_C 	C 	0.9362	0.5687	0.0235	-0.023
Mof_C 	C 	0.7677	0.4987	0.906	0.016
Mof_C 	C 	0.7984	0.4929	0.9553	-0.022
Mof_C 	C 	0.8071	0.4659	0.9716	0.006
Mof_C 	C 	0.7851	0.4448	0.9385	-0.005
Mof_C 	C 	0.7545	0.4506	0.8892	0.004
Mof_C 	C 	0.7458	0.4776	0.873	-0.012
Mof_C 	C 	0.5991	0.5332	0.712	0.005
Mof_C 	C 	0.5757	0.5582	0.6965	-0.025
Mof_C 	C 	0.5337	0.5497	0.6493	0.002
Mof_C 	C 	0.5745	0.5137	0.668	-0.007
Mof_C 	C 	0.6684	0.6823	0.4916	-0.008
Mof_C 	C 	0.7051	0.6845	0.5049	-0.015
Mof_C 	C 	0.7012	0.7058	0.471	0
Mof_C 	C 	0.6586	0.6998	0.4224	-0
Mof_C 	C 	0.6352	0.6859	0.439	-0.001
Mof_C 	C 	0.5761	0.5526	0.5161	0.008
Mof_C 	C 	0.5519	0.5502	0.4627	-0.006
Mof_C 	C 	0.5155	0.5365	0.4412	0.001
Mof_C 	C 	0.5098	0.5288	0.4729	-0.003
Mof_C 	C 	0.5312	0.5314	0.5225	0.003
Mof_C 	C 	0.5695	0.5433	0.5448	-0.029
Mof_C 	C 	0.0662	0.6893	0.9576	0.011
Mof_C 	C 	0.0427	0.6917	0.9051	-0.018
Mof_C 	C 	0.0553	0.6836	0.8818	0.005
Mof_C 	C 	0.0927	0.675	0.908	-0.003
Mof_C 	C 	0.1211	0.676	0.9644	0.002
Mof_C 	C 	0.104	0.6832	0.9865	-0.011
Mof_C 	C 	0.6589	0.7597	0.7648	0.015
Mof_C 	C 	0.7447	0.8384	0.7694	0.002
Mof_C 	C 	0.6997	0.6432	0.9757	0.023
Mof_C 	C 	0.7408	0.8353	0.8046	-0.004
Mof_C 	C 	0.8791	0.8159	0.9276	-0.005
Mof_C 	C 	0.4735	0.6678	0.5723	0.002
Mof_C 	C 	0.8611	0.5083	0.1396	-0.003
Mof_C 	C 	0.8657	0.7375	0.9733	-0.029
Mof_C 	C 	0.874	0.7618	0.0007	0.006
Mof_C 	C 	0.7231	0.5805	0.4937	-0.019
Mof_C 	C 	0.7461	0.813	0.7451	-0.005
Mof_C 	C 	0.7359	0.8109	0.8165	0.006
Mof_C 	C 	0.6556	0.853	0.6076	0.002
Mof_C 	C 	0.7715	0.6848	0.0063	-0.018
Mof_C 	C 	0.8134	0.4991	0.1414	-0.028
Mof_C 	C 	0.4617	0.6169	0.451	-0.003
Mof_C 	C 	0.5315	0.6064	0.5073	-0.019
Mof_C 	C 	0.8347	0.5046	0.0875	0.003
Mof_C 	C 	0.9063	0.7986	0.939	0.006
Mof_C 	C 	0.8044	0.606	0.0444	-0.031
Mof_C 	C 	0.0341	0.6674	0.1252	-0.005
Mof_C 	C 	0.8259	0.6229	0.0869	0.007
Mof_C 	C 	0.4907	0.5954	0.4793	0.003
Mof_C 	C 	0.6515	0.8052	0.6193	0.009
Mof_C 	C 	0.8977	0.7738	0.9162	-0.018
Mof_C 	C 	0.7868	0.7311	0.0339	-0.004
Mof_C 	C 	0.4926	0.6222	0.5646	0.005
Mof_C 	C 	0.6793	0.6036	0.1448	-0.004
Mof_C 	C 	0.5056	0.7491	0.6135	-0.003
Mof_C 	C 	0.679	0.7982	0.6182	-0.025
Mof_C 	C 	0.6808	0.6834	0.0009	0.002
Mof_C 	C 	0.8842	0.7141	0.0004	0.011
Mof_C 	C 	0.6783	0.5762	0.1614	0.005
Mof_C 	C 	0.8146	0.6176	0.5633	0.005
Mof_C 	C 	0.8516	0.5064	0.1678	0.006
Mof_C 	C 	0.8281	0.5862	0.1346	0.002
Mof_C 	C 	0.8336	0.7805	0.8696	-0.022
Mof_C 	C 	0.6797	0.7858	0.8381	0.006
Mof_C 	C 	0.7099	0.6753	0.053	-0.004
Mof_C 	C 	0.9165	0.7379	0.0772	0.003
Mof_C 	C 	0.7715	0.7066	0.0311	0.005
Mof_C 	C 	0.5115	0.6769	0.6033	-0.007
Mof_C 	C 	0.806	0.6086	0.5918	-0.026
Mof_C 	C 	0.8989	0.7612	0.0519	-0.004
Mof_C 	C 	0.6802	0.7619	0.8167	-0.019
Mof_C 	C 	0.8367	0.5983	0.5604	-0.003
Mof_C 	C 	0.7371	0.7866	0.7952	-0.028
Mof_C 	C 	0.4814	0.7433	0.5611	0.002
Mof_C 	C 	0.7346	0.6534	0.0682	0.005
Mof_C 	C 	0.7893	0.4947	0.0897	0.01
Mof_C 	C 	0.6846	0.8464	0.609	-0.004
Mof_C 	C 	0.6374	0.8066	0.7569	0.004
Mof_C 	C 	0.4661	0.642	0.5512	-0.003
Mof_C 	C 	0.0483	0.6831	0.1095	0.005
Mof_C 	C 	0.7999	0.4971	0.0629	-0.009
Mof_C 	C 	0.8199	0.5851	0.6177	0.01
Mof_C 	C 	0.5848	0.6173	0.7519	0.024
Mof_C 	C 	0.8005	0.7123	0.9843	-0.021
Mof_C 	C 	0.4712	0.6447	0.4492	0.004
Mof_C 	C 	0.6364	0.7819	0.7335	-0.013
Mof_C 	C 	0.5393	0.6581	0.6158	0.01
Mof_C 	C 	0.5364	0.6351	0.5028	0.015
Mof_C 	C 	0.495	0.7352	0.54	-0.008
Mof_C 	C 	0.6595	0.8083	0.8086	-0.004
Mof_C 	C 	0.025	0.6952	0.063	-0.024
Mof_C 	C 	0.5333	0.7329	0.5683	0.01
Mof_C 	C 	0.9096	0.7133	0.0517	-0.006
Mof_C 	C 	0.7858	0.6879	0.9822	0.014
Mof_C 	C 	0.698	0.6093	0.1292	0.003
Mof_C 	C 	0.7959	0.5792	0.0472	0.012
Mof_C 	C 	0.9872	0.6907	0.0309	0.013
Mof_C 	C 	0.5099	0.6527	0.4809	-0.017
Mof_C 	C 	0.7406	0.7884	0.7604	0.01
Mof_C 	C 	0.8022	0.7344	0.0109	0.006
Mof_C 	C 	0.5573	0.7393	0.6181	-0.028
Mof_C 	C 	0.8628	0.7645	0.8821	0.017
Mof_C 	C 	0.64	0.8312	0.6149	-0.008
Mof_C 	C 	0.5442	0.7476	0.6417	0.008
Mof_C 	C 	0.6727	0.6647	0.9575	-0.011
Mof_C 	C 	0.7025	0.5557	0.1653	-0.026
Mof_C 	C 	0.0154	0.6194	0.985	0.002
Mof_C 	C 	0.8525	0.575	0.5866	0.002
Mof_C 	C 	0.8065	0.5684	0.0904	-0.015
Mof_C 	C 	0.6945	0.82	0.6103	0.006
Mof_C 	C 	0.8429	0.8062	0.8944	0.006
Mof_C 	C 	0.8373	0.6129	0.133	-0.004
Mof_C 	C 	0.7273	0.6378	0.0285	-0.022
Mof_C 	C 	0.5308	0.6315	0.5979	-0.025
Mof_C 	C 	0.7229	0.5614	0.155	0.012
Mof_C 	C 	0.7213	0.5871	0.1341	-0.012
Mof_C 	C 	0.9953	0.6634	0.0931	0.006
Mof_C 	C 	0.8444	0.5672	0.6181	-0.005
Mof_C 	C 	0.9718	0.6753	0.0457	-0.022
Mof_C 	C 	0.731	0.7461	0.5914	0.011
Mof_C 	C 	0.9185	0.783	0.8084	0.003
Mof_C 	C 	0.708	0.7561	0.5488	-0.018
Mof_C 	C 	0.9203	0.754	0.8056	-0.011
Mof_C 	C 	0.967	0.7835	0.9004	0.003
Mof_C 	C 	0.9408	0.798	0.8564	-0.003
Mof_C 	C 	0.9677	0.7528	0.8973	-0.028
Mof_C 	C 	0.5806	0.7182	0.7883	-0.003
Mof_C 	C 	0.6083	0.7237	0.8378	0.003
Mof_C 	C 	0.6462	0.7145	0.8653	-0.007
Mof_C 	C 	0.5851	0.7038	0.7574	0.006
Mof_C 	C 	0.6233	0.6948	0.7852	-0.026
Mof_C 	C 	0.9434	0.7403	0.8518	0.01
Mof_C 	C 	0.6518	0.6997	0.8346	0.016
Mof_C 	C 	0.7014	0.598	0.5027	0.011
Mof_C 	C 	0.7268	0.5905	0.4601	0.004
Mof_S 	S 	0.65825	0.69872	0.63838	-0.256
Mof_S 	S 	0.80201	0.63117	0.86325	-0.262
Mof_S 	S 	0.76897	0.68091	0.74567	-0.265
Mof_S 	S 	0.80446	0.6012	0.75607	-0.262
Mof_S 	S 	0.69248	0.65255	0.75454	-0.264
Mof_S 	S 	0.72754	0.57268	0.76174	-0.266
Mof_S 	S 	0.69345	0.62231	0.64544	-0.265
Mof_S 	S 	0.54881	0.72168	0.5377	-0.118
Mof_S 	S 	0.73007	0.54461	0.65528	-0.254
Mof_S 	S 	0.87604	0.65998	0.85429	-0.254
Mof_S 	S 	0.65715	0.72994	0.7352	-0.125
Mof_S 	S 	0.91074	0.61395	0.96049	-0.13
Mof_S 	S 	0.76948	0.71566	0.85511	-0.196
Mof_S 	S 	0.72423	0.60005	0.86527	-0.254
Mof_S 	S 	0.83949	0.58965	0.9815	-0.121
Mof_S 	S 	0.78653	0.65813	0.95433	-0.122
Mof_S 	S 	0.63022	0.77983	0.62853	-0.114
Mof_S 	S 	0.95904	0.70687	0.97206	-0.122
Mof_S 	S 	0.74159	0.75849	0.73239	-0.12
Mof_S 	S 	0.82658	0.52214	0.75403	-0.127
Mof_S 	S 	0.85192	0.73228	0.85125	-0.131
Mof_S 	S 	0.8388	0.54869	0.87676	-0.198
Mof_S 	S 	0.87446	0.6821	0.96876	-0.119
Mof_S 	S 	0.58542	0.67079	0.6565	-0.12
Mof_S 	S 	0.76954	0.55711	0.99654	-0.121
Mof_S 	S 	0.77103	0.65166	0.63521	-0.2
Mof_S 	S 	0.58457	0.64604	0.54075	-0.126
Mof_S 	S 	0.61969	0.74431	0.5141	-0.116
Mof_S 	S 	0.69749	0.69134	0.86547	-0.119
Mof_S 	S 	0.6141	0.59136	0.65119	-0.199
Mof_S 	S 	0.83624	0.71644	0.73074	-0.12
Mof_S 	S 	0.94622	0.70404	0.84641	-0.116
Mof_S 	S 	0.74228	0.48524	0.05806	-0.12
Mof_S 	S 	0.72529	0.72762	0.62838	-0.132
Mof_S 	S 	0.8147	0.57377	0.66086	-0.122
Mof_S 	S 	0.64971	0.53569	0.75934	-0.118
Mof_S 	S 	0.7536	0.4932	0.7729	-0.119
Mof_S 	S 	0.75291	0.53768	0.16088	-0.115
Mof_S 	S 	0.75186	0.53015	0.87437	-0.136
Mof_S 	S 	0.65389	0.66346	0.52608	-0.119
Mof_S 	S 	0.88282	0.63535	0.76714	-0.135
Mof_S 	S 	0.63101	0.61942	0.77855	-0.137
Mof_S 	S 	0.61886	0.56991	0.54138	-0.122
Mof_S 	S 	0.69203	0.62375	0.93348	-0.129
Mof_S 	S 	0.65181	0.50416	0.03555	-0.123
Mof_S 	S 	0.98028	0.63475	0.92656	-0.12
Mof_S 	S 	0.66461	0.5159	0.66354	-0.137
Mof_S 	S 	0.69732	0.5885	0.54454	-0.13
Mof_S 	S 	0.6556	0.55345	0.87341	-0.115
Mof_S 	S 	0.90844	0.57545	0.855	-0.127
Mof_S 	S 	0.05145	0.69692	0.99013	-0.108
Mof_S 	S 	0.70016	0.5666	0.02192	-0.111
Mof_Cd	Cd	0.81078	0.64258	0.80304	0.252
Mof_Cd	Cd	0.73676	0.61453	0.80971	0.252
Mof_Cd	Cd	0.7387	0.58592	0.70468	0.253
Mof_Cd	Cd	0.78299	0.72175	0.80024	0.27
Mof_Cd	Cd	0.84757	0.59278	0.91728	0.271
Mof_Cd	Cd	0.70482	0.66263	0.69794	0.252
Mof_Cd	Cd	0.62929	0.63037	0.70607	0.269
Mof_Cd	Cd	0.62756	0.60695	0.59905	0.27
Mof_Cd	Cd	0.84317	0.56104	0.8135	0.271
Mof_Cd	Cd	0.77278	0.53689	0.82508	0.269
Mof_Cd	Cd	0.89093	0.69468	0.91739	0.276
Mof_Cd	Cd	0.67694	0.74291	0.68674	0.276
Mof_Cd	Cd	0.8043	0.67442	0.90469	0.27
Mof_Cd	Cd	0.66159	0.55647	0.706	0.271
Mof_Cd	Cd	0.91934	0.61954	0.89737	0.279
Mof_Cd	Cd	0.70894	0.63281	0.59159	0.269
Mof_Cd	Cd	0.66198	0.70586	0.572	0.276
Mof_Cd	Cd	0.98323	0.68615	0.93417	0.287
Mof_Cd	Cd	0.70612	0.69675	0.8025	0.268
Mof_Cd	Cd	0.59384	0.68374	0.59672	0.277
Mof_Cd	Cd	0.71735	0.64321	0.89645	0.28
Mof_Cd	Cd	0.71279	0.52323	0.06954	0.286
Mof_Cd	Cd	0.77477	0.69096	0.68163	0.269
Mof_Cd	Cd	0.76271	0.5036	0.71272	0.277
Mof_Cd	Cd	0.77627	0.57006	0.93443	0.277
Mof_Cd	Cd	0.81609	0.61778	0.70011	0.272
Mof_Cd	Cd	0.74981	0.55636	0.60721	0.277
Mof_Cd	Cd	0.88246	0.68273	0.79705	0.275
Mof_Cd	Cd	0.66278	0.53178	0.59449	0.277
Mof_Cd	Cd	0.70655	0.57414	0.9579	0.288
Mof_Cd	Cd	0.58559	0.75986	0.54101	0.286
Mof_Cd	Cd	0.66432	0.57389	0.81667	0.278
Mof_C 	C 	0.7001	0.6228	0.475	-0.012
Mof_C 	C 	0.533	0.5225	0.647	-0.001
Mof_C 	C 	0.0408	0.6246	0.0431	-0.012
Mof_C 	C 	0.9641	0.5509	0.058	0.008
Mof_C 	C 	0.6152	0.5251	0.0177	0.001
Mof_C 	C 	0.5206	0.6318	0.6986	0.006
Mof_C 	C 	0.0064	0.583	0.096	0.003
Mof_C 	C 	0.5851	0.5926	0.783	-0.022
Mof_C 	C 	0.7497	0.7887	0.5724	-0.003
Mof_C 	C 	0.5609	0.6301	0.7212	-0.024
Mof_C 	C 	0.5109	0.6119	0.7078	-0.003
Mof_C 	C 	0.7114	0.7785	0.5278	0.004
Mof_C 	C 	0.1658	0.0169	0.8769	0.007
Mof_C 	C 	0.1937	0.0024	0.9195	-0.025
Mof_C 	C 	0.1967	0.9743	0.9169	0.005
Mof_C 	C 	0.1718	0.9608	0.8716	-0.004
Mof_C 	C 	0.1439	0.9754	0.829	0.004
Mof_C 	C 	0.1409	0.0034	0.8316	-0.01
Mof_C 	C 	0.444	0.0563	0.8975	0.027
Mof_C 	C 	0.4731	0.0467	0.9019	-0.013
Mof_C 	C 	0.5004	0.0306	0.9424	0.004
Mof_C 	C 	0.4987	0.0241	0.9786	-0.006
Mof_C 	C 	0.4696	0.0337	0.9742	0.007
Mof_C 	C 	0.4423	0.0498	0.9337	-0.033
Mof_C 	C 	0.4075	0.1363	0.7478	0.022
Mof_C 	C 	0.4437	0.1456	0.7814	-0.022
Mof_C 	C 	0.4644	0.1471	0.7673	0.006
Mof_C 	C 	0.4488	0.1393	0.7196	-0.005
Mof_C 	C 	0.4127	0.13	0.686	0.007
Mof_C 	C 	0.392	0.1285	0.7001	-0.021
Mof_C 	C 	0.3654	0.06331	0.0242	0.014
Mof_C 	C 	0.3831	0.0675	0.0739	-0.008
Mof_C 	C 	0.4067	0.0477	0.1092	0.004
Mof_C 	C 	0.4127	0.02366	0.0947	-0.004
Mof_C 	C 	0.3951	0.01947	0.045	0.006
Mof_C 	C 	0.3714	0.0393	0.0097	-0.028
Mof_C 	C 	0.0841	0.2276	0.4571	0.009
Mof_C 	C 	0.0716	0.2399	0.4133	-0.007
Mof_C 	C 	0.0432	0.2279	0.3676	0.002
Mof_C 	C 	0.0274	0.2036	0.3657	-0.004
Mof_C 	C 	0.0399	0.1913	0.4095	0.008
Mof_C 	C 	0.0683	0.2033	0.4552	-0.031
Mof_C 	C 	0.2867	0.9672	0.8094	0.012
Mof_C 	C 	0.2751	0.941	0.8084	-0.007
Mof_C 	C 	0.3009	0.921	0.8402	0.003
Mof_C 	C 	0.3383	0.9272	0.873	-0.005
Mof_C 	C 	0.3499	0.9534	0.874	0.006
Mof_C 	C 	0.3241	0.9734	0.8422	-0.029
Mof_C 	C 	0.1566	0.078	0.9865	0.011
Mof_C 	C 	0.1267	0.0618	0.9497	-0.022
Mof_C 	C 	0.091	0.0717	0.9223	0.005
Mof_C 	C 	0.0853	0.0976	0.9318	-0.004
Mof_C 	C 	0.1152	0.1138	0.9687	0.003
Mof_C 	C 	0.1509	0.1039	0.996	-0.01
Mof_C 	C 	0.36	0.996	0.7939	0.014
Mof_C 	C 	0.3561	0.9715	0.7712	-0.015
Mof_C 	C 	0.3844	0.9523	0.7971	0.005
Mof_C 	C 	0.4165	0.9577	0.8457	-0.005
Mof_C 	C 	0.4204	0.9822	0.8684	0.006
Mof_C 	C 	0.3921	0.0013	0.8425	-0.022
Mof_C 	C 	0.136	0.9885	0.6553	0.018
Mof_C 	C 	0.1052	0.9808	0.6072	-0.019
Mof_C 	C 	0.0822	0.9602	0.5998	0.005
Mof_C 	C 	0.0901	0.9473	0.6404	-0.004
Mof_C 	C 	0.1209	0.955	0.6885	0.005
Mof_C 	C 	0.1439	0.9756	0.696	-0.013
Mof_C 	C 	0.3446	0.216	0.6898	0.01
Mof_C 	C 	0.3458	0.1928	0.6686	-0.031
Mof_C 	C 	0.3543	0.1951	0.6385	0.006
Mof_C 	C 	0.3615	0.2206	0.6296	-0.005
Mof_C 	C 	0.3604	0.2439	0.6509	0.002
Mof_C 	C 	0.3519	0.2416	0.681	-0.007
Mof_C 	C 	0.442	0.0908	0.0091	0.018
Mof_C 	C 	0.4743	0.1019	0.045	-0.013
Mof_C 	C 	0.4911	0.0619	0.0925	-0.005
Mof_C 	C 	0.4362	0.0687	0.0235	-0.023
Mof_C 	C 	0.2677	0.9987	0.906	0.016
Mof_C 	C 	0.2984	0.9929	0.9553	-0.022
Mof_C 	C 	0.3071	0.9659	0.9716	0.006
Mof_C 	C 	0.2851	0.9448	0.9385	-0.005
Mof_C 	C 	0.2545	0.9506	0.8892	0.004
Mof_C 	C 	0.2458	0.9776	0.873	-0.012
Mof_C 	C 	0.0991	0.0332	0.712	0.005
Mof_C 	C 	0.0757	0.0582	0.6965	-0.025
Mof_C 	C 	0.0337	0.0497	0.6493	0.002
Mof_C 	C 	0.0745	0.0137	0.668	-0.007
Mof_C 	C 	0.1684	0.1823	0.4916	-0.008
Mof_C 	C 	0.2051	0.1845	0.5049	-0.015
Mof_C 	C 	0.2012	0.2058	0.471	0
Mof_C 	C 	0.1586	0.1998	0.4224	-0
Mof_C 	C 	0.1352	0.1859	0.439	-0.001
Mof_C 	C 	0.0761	0.0526	0.5161	0.008
Mof_C 	C 	0.0519	0.0502	0.4627	-0.006
Mof_C 	C 	0.0155	0.0365	0.4412	0.001
Mof_C 	C 	0.0098	0.0288	0.4729	-0.003
Mof_C 	C 	0.0312	0.0314	0.5225	0.003
Mof_C 	C 	0.0695	0.0433	0.5448	-0.029
Mof_C 	C 	0.5662	0.1893	0.9576	0.011
Mof_C 	C 	0.5427	0.1917	0.9051	-0.018
Mof_C 	C 	0.5553	0.1836	0.8818	0.005
Mof_C 	C 	0.5927	0.175	0.908	-0.003
Mof_C 	C 	0.6211	0.176	0.9644	0.002
Mof_C 	C 	0.604	0.1832	0.9865	-0.011
Mof_C 	C 	0.1589	0.2597	0.7648	0.015
Mof_C 	C 	0.2447	0.3384	0.7694	0.002
Mof_C 	C 	0.1997	0.1432	0.9757	0.023
Mof_C 	C 	0.2408	0.3353	0.8046	-0.004
Mof_C 	C 	0.3791	0.3159	0.9276	-0.005
Mof_C 	C 	0.9735	0.1678	0.5723	0.002
Mof_C 	C 	0.3611	0.0083	0.1396	-0.003
Mof_C 	C 	0.3657	0.2375	0.9733	-0.029
Mof_C 	C 	0.374	0.2618	0.0007	0.006
Mof_C 	C 	0.2231	0.0805	0.4937	-0.019
Mof_C 	C 	0.2461	0.313	0.7451	-0.005
Mof_C 	C 	0.2359	0.3109	0.8165	0.006
Mof_C 	C 	0.1556	0.353	0.6076	0.002
Mof_C 	C 	0.2715	0.1848	0.0063	-0.018
Mof_C 	C 	0.3134	0.9991	0.1414	-0.028
Mof_C 	C 	0.9617	0.1169	0.451	-0.003
Mof_C 	C 	0.0315	0.1064	0.5073	-0.019
Mof_C 	C 	0.3347	0.0046	0.0875	0.003
Mof_C 	C 	0.4063	0.2986	0.939	0.006
Mof_C 	C 	0.3044	0.106	0.0444	-0.031
Mof_C 	C 	0.5341	0.1674	0.1252	-0.005
Mof_C 	C 	0.3259	0.1229	0.0869	0.007
Mof_C 	C 	0.9907	0.0954	0.4793	0.003
Mof_C 	C 	0.1515	0.3052	0.6193	0.009
Mof_C 	C 	0.3977	0.2738	0.9162	-0.018
Mof_C 	C 	0.2868	0.2311	0.0339	-0.004
Mof_C 	C 	0.9926	0.1222	0.5646	0.005
Mof_C 	C 	0.1793	0.1036	0.1448	-0.004
Mof_C 	C 	0.0056	0.2491	0.6135	-0.003
Mof_C 	C 	0.179	0.2982	0.6182	-0.025
Mof_C 	C 	0.1808	0.1834	0.0009	0.002
Mof_C 	C 	0.3842	0.2141	0.0004	0.011
Mof_C 	C 	0.1783	0.0762	0.1614	0.005
Mof_C 	C 	0.3146	0.1176	0.5633	0.005
Mof_C 	C 	0.3516	0.0064	0.1678	0.006
Mof_C 	C 	0.3281	0.0862	0.1346	0.002
Mof_C 	C 	0.3336	0.2805	0.8696	-0.022
Mof_C 	C 	0.1797	0.2858	0.8381	0.006
Mof_C 	C 	0.2099	0.1753	0.053	-0.004
Mof_C 	C 	0.4165	0.2379	0.0772	0.003
Mof_C 	C 	0.2715	0.2066	0.0311	0.005
Mof_C 	C 	0.0115	0.1769	0.6033	-0.007
Mof_C 	C 	0.306	0.1086	0.5918	-0.026
Mof_C 	C 	0.3989	0.2612	0.0519	-0.004
Mof_C 	C 	0.1802	0.2619	0.8167	-0.019
Mof_C 	C 	0.3367	0.0983	0.5604	-0.003
Mof_C 	C 	0.2371	0.2866	0.7952	-0.028
Mof_C 	C 	0.9814	0.2433	0.5611	0.002
Mof_C 	C 	0.2346	0.1534	0.0682	0.005
Mof_C 	C 	0.2893	0.9947	0.0897	0.01
Mof_C 	C 	0.1846	0.3464	0.609	-0.004
Mof_C 	C 	0.1374	0.3066	0.7569	0.004
Mof_C 	C 	0.9661	0.142	0.5512	-0.003
Mof_C 	C 	0.5483	0.1831	0.1095	0.005
Mof_C 	C 	0.2999	0.9971	0.0629	-0.009
Mof_C 	C 	0.3199	0.0851	0.6177	0.01
Mof_C 	C 	0.0848	0.1173	0.7519	0.024
Mof_C 	C 	0.3005	0.2123	0.9843	-0.021
Mof_C 	C 	0.9712	0.1447	0.4492	0.004
Mof_C 	C 	0.1364	0.2819	0.7335	-0.013
Mof_C 	C 	0.0393	0.1581	0.6158	0.01
Mof_C 	C 	0.0364	0.1351	0.5028	0.015
Mof_C 	C 	0.995	0.2352	0.54	-0.008
Mof_C 	C 	0.1595	0.3083	0.8086	-0.004
Mof_C 	C 	0.525	0.1952	0.063	-0.024
Mof_C 	C 	0.0333	0.2329	0.5683	0.01
Mof_C 	C 	0.4096	0.2133	0.0517	-0.006
Mof_C 	C 	0.2858	0.1879	0.9822	0.014
Mof_C 	C 	0.198	0.1093	0.1292	0.003
Mof_C 	C 	0.2959	0.0792	0.0472	0.012
Mof_C 	C 	0.4872	0.1907	0.0309	0.013
Mof_C 	C 	0.0099	0.1527	0.4809	-0.017
Mof_C 	C 	0.2406	0.2884	0.7604	0.01
Mof_C 	C 	0.3022	0.2344	0.0109	0.006
Mof_C 	C 	0.0573	0.2393	0.6181	-0.028
Mof_C 	C 	0.3628	0.2645	0.8821	0.017
Mof_C 	C 	0.14	0.3312	0.6149	-0.008
Mof_C 	C 	0.0442	0.2476	0.6417	0.008
Mof_C 	C 	0.1727	0.1647	0.9575	-0.011
Mof_C 	C 	0.2025	0.0557	0.1653	-0.026
Mof_C 	C 	0.5154	0.1194	0.985	0.002
Mof_C 	C 	0.3525	0.075	0.5866	0.002
Mof_C 	C 	0.3065	0.0684	0.0904	-0.015
Mof_C 	C 	0.1945	0.32	0.6103	0.006
Mof_C 	C 	0.3429	0.3062	0.8944	0.006
Mof_C 	C 	0.3373	0.1129	0.133	-0.004
Mof_C 	C 	0.2273	0.1378	0.0285	-0.022
Mof_C 	C 	0.0308	0.1315	0.5979	-0.025
Mof_C 	C 	0.2229	0.0614	0.155	0.012
Mof_C 	C 	0.2213	0.0871	0.1341	-0.012
Mof_C 	C 	0.4953	0.1634	0.0931	0.007
Mof_C 	C 	0.3444	0.0672	0.6181	-0.005
Mof_C 	C 	0.4718	0.1753	0.0457	-0.022
Mof_C 	C 	0.231	0.2461	0.5914	0.011
Mof_C 	C 	0.4185	0.283	0.8084	0.003
Mof_C 	C 	0.208	0.2561	0.5488	-0.018
Mof_C 	C 	0.4203	0.254	0.8056	-0.011
Mof_C 	C 	0.467	0.2835	0.9004	0.003
Mof_C 	C 	0.4408	0.298	0.8564	-0.003
Mof_C 	C 	0.4677	0.2528	0.8973	-0.028
Mof_C 	C 	0.0806	0.2182	0.7883	-0.003
Mof_C 	C 	0.1083	0.2237	0.8378	0.003
Mof_C 	C 	0.1462	0.2145	0.8653	-0.007
Mof_C 	C 	0.0851	0.2038	0.7574	0.006
Mof_C 	C 	0.1233	0.1948	0.7852	-0.026
Mof_C 	C 	0.4434	0.2403	0.8518	0.01
Mof_C 	C 	0.1518	0.1997	0.8346	0.016
Mof_C 	C 	0.2014	0.098	0.5027	0.011
Mof_C 	C 	0.2268	0.0905	0.4601	0.004
Mof_S 	S 	0.15825	0.19872	0.63838	-0.256
Mof_S 	S 	0.30201	0.13117	0.86325	-0.262
Mof_S 	S 	0.26897	0.18091	0.74567	-0.265
Mof_S 	S 	0.30446	0.1012	0.75607	-0.262
Mof_S 	S 	0.19248	0.15255	0.75454	-0.264
Mof_S 	S 	0.22754	0.07268	0.76174	-0.266
Mof_S 	S 	0.19345	0.12231	0.64544	-0.265
Mof_S 	S 	0.04881	0.22168	0.5377	-0.118
Mof_S 	S 	0.23007	0.04461	0.65528	-0.254
Mof_S 	S 	0.37604	0.15998	0.85429	-0.254
Mof_S 	S 	0.15715	0.22994	0.7352	-0.125
Mof_S 	S 	0.41074	0.11395	0.96049	-0.13
Mof_S 	S 	0.26948	0.21566	0.85511	-0.196
Mof_S 	S 	0.22423	0.10005	0.86527	-0.254
Mof_S 	S 	0.33949	0.08965	0.9815	-0.121
Mof_S 	S 	0.28653	0.15813	0.95433	-0.122
Mof_S 	S 	0.13022	0.27983	0.62853	-0.114
Mof_S 	S 	0.45904	0.20687	0.97206	-0.122
Mof_S 	S 	0.24159	0.25849	0.73239	-0.12
Mof_S 	S 	0.32658	0.02214	0.75403	-0.127
Mof_S 	S 	0.35192	0.23228	0.85125	-0.131
Mof_S 	S 	0.3388	0.04869	0.87676	-0.198
Mof_S 	S 	0.37446	0.1821	0.96876	-0.119
Mof_S 	S 	0.08542	0.17079	0.6565	-0.12
Mof_S 	S 	0.26954	0.05711	0.99654	-0.121
Mof_S 	S 	0.27103	0.15166	0.63521	-0.2
Mof_S 	S 	0.08457	0.14604	0.54075	-0.126
Mof_S 	S 	0.11969	0.24431	0.5141	-0.116
Mof_S 	S 	0.19749	0.19134	0.86547	-0.119
Mof_S 	S 	0.1141	0.09136	0.65119	-0.199
Mof_S 	S 	0.33624	0.21644	0.73074	-0.12
Mof_S 	S 	0.44622	0.20404	0.84641	-0.116
Mof_S 	S 	0.24228	0.98524	0.05806	-0.12
Mof_S 	S 	0.22529	0.22762	0.62838	-0.132
Mof_S 	S 	0.3147	0.07377	0.66086	-0.122
Mof_S 	S 	0.14971	0.03569	0.75934	-0.118
Mof_S 	S 	0.2536	0.9932	0.7729	-0.119
Mof_S 	S 	0.25291	0.03768	0.16088	-0.115
Mof_S 	S 	0.25186	0.03015	0.87437	-0.136
Mof_S 	S 	0.15389	0.16346	0.52608	-0.119
Mof_S 	S 	0.38282	0.13535	0.76714	-0.135
Mof_S 	S 	0.13101	0.11942	0.77855	-0.137
Mof_S 	S 	0.11886	0.06991	0.54138	-0.122
Mof_S 	S 	0.19203	0.12375	0.93348	-0.129
Mof_S 	S 	0.15181	0.00416	0.03555	-0.123
Mof_S 	S 	0.48028	0.13475	0.92656	-0.12
Mof_S 	S 	0.16461	0.0159	0.66354	-0.137
Mof_S 	S 	0.19732	0.0885	0.54454	-0.13
Mof_S 	S 	0.1556	0.05345	0.87341	-0.115
Mof_S 	S 	0.40844	0.07545	0.855	-0.127
Mof_S 	S 	0.55145	0.19692	0.99013	-0.108
Mof_S 	S 	0.20016	0.0666	0.02192	-0.111
Mof_Cd	Cd	0.31078	0.14258	0.80304	0.252
Mof_Cd	Cd	0.23676	0.11453	0.80971	0.252
Mof_Cd	Cd	0.2387	0.08592	0.70468	0.253
Mof_Cd	Cd	0.28299	0.22175	0.80024	0.27
Mof_Cd	Cd	0.34757	0.09278	0.91728	0.271
Mof_Cd	Cd	0.20482	0.16263	0.69794	0.252
Mof_Cd	Cd	0.12929	0.13037	0.70607	0.269
Mof_Cd	Cd	0.12756	0.10695	0.59905	0.27
Mof_Cd	Cd	0.34317	0.06104	0.8135	0.271
Mof_Cd	Cd	0.27278	0.03689	0.82508	0.269
Mof_Cd	Cd	0.39093	0.19468	0.91739	0.276
Mof_Cd	Cd	0.17694	0.24291	0.68674	0.276
Mof_Cd	Cd	0.3043	0.17442	0.90469	0.27
Mof_Cd	Cd	0.16159	0.05647	0.706	0.271
Mof_Cd	Cd	0.41934	0.11954	0.89737	0.279
Mof_Cd	Cd	0.20894	0.13281	0.59159	0.269
Mof_Cd	Cd	0.16198	0.20586	0.572	0.276
Mof_Cd	Cd	0.48323	0.18615	0.93417	0.287
Mof_Cd	Cd	0.20612	0.19675	0.8025	0.268
Mof_Cd	Cd	0.09384	0.18374	0.59672	0.277
Mof_Cd	Cd	0.21735	0.14321	0.89645	0.28
Mof_Cd	Cd	0.21279	0.02323	0.06954	0.286
Mof_Cd	Cd	0.27477	0.19096	0.68163	0.269
Mof_Cd	Cd	0.26271	0.0036	0.71272	0.277
Mof_Cd	Cd	0.27627	0.07006	0.93443	0.277
Mof_Cd	Cd	0.31609	0.11778	0.70011	0.272
Mof_Cd	Cd	0.24981	0.05636	0.60721	0.277
Mof_Cd	Cd	0.38246	0.18273	0.79705	0.275
Mof_Cd	Cd	0.16278	0.03178	0.59449	0.277
Mof_Cd	Cd	0.20655	0.07414	0.9579	0.288
Mof_Cd	Cd	0.08559	0.25986	0.54101	0.286
Mof_Cd	Cd	0.16432	0.07389	0.81667	0.278
Mof_C 	C 	0.2001	0.1228	0.475	-0.012
Mof_C 	C 	0.033	0.0225	0.647	-0.001
Mof_C 	C 	0.5408	0.1246	0.0431	-0.012
Mof_C 	C 	0.4641	0.0509	0.058	0.007
Mof_C 	C 	0.1152	0.0251	0.0177	0.001
Mof_C 	C 	0.0206	0.1318	0.6986	0.006
Mof_C 	C 	0.5064	0.083	0.096	0.003
Mof_C 	C 	0.0851	0.0926	0.783	-0.022
Mof_C 	C 	0.2497	0.2887	0.5724	-0.003
Mof_C 	C 	0.0609	0.1301	0.7212	-0.024
Mof_C 	C 	0.0109	0.1119	0.7078	-0.003
Mof_C 	C 	0.2114	0.2785	0.5278	0.004
Mof_C 	C 	0.6658	0.4831	0.3769	0.007
Mof_C 	C 	0.6937	0.4976	0.4195	-0.025
Mof_C 	C 	0.6967	0.5257	0.4169	0.005
Mof_C 	C 	0.6718	0.5392	0.3716	-0.004
Mof_C 	C 	0.6439	0.5246	0.329	0.004
Mof_C 	C 	0.6409	0.4966	0.3316	-0.01
Mof_C 	C 	0.944	0.4437	0.3975	0.027
Mof_C 	C 	0.9731	0.4533	0.4019	-0.013
Mof_C 	C 	0.0004	0.4694	0.4424	0.004
Mof_C 	C 	0.9987	0.4759	0.4786	-0.006
Mof_C 	C 	0.9696	0.4663	0.4742	0.007
Mof_C 	C 	0.9423	0.4502	0.4337	-0.033
Mof_C 	C 	0.9075	0.3637	0.2478	0.022
Mof_C 	C 	0.9437	0.3544	0.2814	-0.022
Mof_C 	C 	0.9644	0.3529	0.2673	0.006
Mof_C 	C 	0.9488	0.3607	0.2196	-0.005
Mof_C 	C 	0.9127	0.37	0.186	0.007
Mof_C 	C 	0.892	0.3715	0.2001	-0.021
Mof_C 	C 	0.8654	0.43669	0.5242	0.014
Mof_C 	C 	0.8831	0.4325	0.5739	-0.008
Mof_C 	C 	0.9067	0.4523	0.6092	0.003
Mof_C 	C 	0.9127	0.47634	0.5947	-0.004
Mof_C 	C 	0.8951	0.48053	0.545	0.006
Mof_C 	C 	0.8714	0.4607	0.5097	-0.028
Mof_C 	C 	0.5841	0.2724	0.9571	0.009
Mof_C 	C 	0.5716	0.2601	0.9133	-0.007
Mof_C 	C 	0.5432	0.2721	0.8676	0.002
Mof_C 	C 	0.5274	0.2964	0.8657	-0.004
Mof_C 	C 	0.5399	0.3087	0.9095	0.008
Mof_C 	C 	0.5683	0.2967	0.9552	-0.031
Mof_C 	C 	0.7867	0.5328	0.3094	0.012
Mof_C 	C 	0.7751	0.559	0.3084	-0.007
Mof_C 	C 	0.8009	0.579	0.3402	0.003
Mof_C 	C 	0.8383	0.5728	0.373	-0.005
Mof_C 	C 	0.8499	0.5466	0.374	0.006
Mof_C 	C 	0.8241	0.5266	0.3422	-0.029
Mof_C 	C 	0.6566	0.422	0.4865	0.011
Mof_C 	C 	0.6267	0.4382	0.4497	-0.022
Mof_C 	C 	0.591	0.4283	0.4223	0.005
Mof_C 	C 	0.5853	0.4024	0.4318	-0.004
Mof_C 	C 	0.6152	0.3862	0.4687	0.003
Mof_C 	C 	0.6509	0.3961	0.496	-0.01
Mof_C 	C 	0.86	0.504	0.2939	0.014
Mof_C 	C 	0.8561	0.5285	0.2712	-0.015
Mof_C 	C 	0.8844	0.5477	0.2971	0.005
Mof_C 	C 	0.9165	0.5423	0.3457	-0.005
Mof_C 	C 	0.9204	0.5178	0.3684	0.006
Mof_C 	C 	0.8921	0.4987	0.3425	-0.022
Mof_C 	C 	0.636	0.5115	0.1553	0.018
Mof_C 	C 	0.6052	0.5192	0.1072	-0.019
Mof_C 	C 	0.5822	0.5398	0.0998	0.005
Mof_C 	C 	0.5901	0.5527	0.1404	-0.004
Mof_C 	C 	0.6209	0.545	0.1885	0.005
Mof_C 	C 	0.6439	0.5244	0.196	-0.013
Mof_C 	C 	0.8446	0.284	0.1898	0.01
Mof_C 	C 	0.8458	0.3072	0.1686	-0.031
Mof_C 	C 	0.8543	0.3049	0.1385	0.006
Mof_C 	C 	0.8615	0.2794	0.1296	-0.005
Mof_C 	C 	0.8604	0.2561	0.1509	0.002
Mof_C 	C 	0.8519	0.2584	0.181	-0.007
Mof_C 	C 	0.942	0.4092	0.5091	0.018
Mof_C 	C 	0.9743	0.3981	0.545	-0.013
Mof_C 	C 	0.9911	0.4381	0.5925	-0.005
Mof_C 	C 	0.9362	0.4313	0.5235	-0.023
Mof_C 	C 	0.7677	0.5013	0.406	0.016
Mof_C 	C 	0.7984	0.5071	0.4553	-0.022
Mof_C 	C 	0.8071	0.5341	0.4716	0.006
Mof_C 	C 	0.7851	0.5552	0.4385	-0.005
Mof_C 	C 	0.7545	0.5494	0.3892	0.004
Mof_C 	C 	0.7458	0.5224	0.373	-0.012
Mof_C 	C 	0.5991	0.4668	0.212	0.005
Mof_C 	C 	0.5757	0.4418	0.1965	-0.025
Mof_C 	C 	0.5337	0.4503	0.1493	0.002
Mof_C 	C 	0.5745	0.4863	0.168	-0.007
Mof_C 	C 	0.6684	0.3177	0.9916	-0.008
Mof_C 	C 	0.7051	0.3155	0.0049	-0.016
Mof_C 	C 	0.7012	0.2942	0.971	0
Mof_C 	C 	0.6586	0.3002	0.9224	-0
Mof_C 	C 	0.6352	0.3141	0.939	-0.001
Mof_C 	C 	0.5761	0.4474	0.0161	0.008
Mof_C 	C 	0.5519	0.4498	0.9627	-0.006
Mof_C 	C 	0.5155	0.4635	0.9412	0.001
Mof_C 	C 	0.5098	0.4712	0.9729	-0.003
Mof_C 	C 	0.5312	0.4686	0.0225	0.003
Mof_C 	C 	0.5695	0.4567	0.0448	-0.029
Mof_C 	C 	0.0662	0.3107	0.4576	0.011
Mof_C 	C 	0.0427	0.3083	0.4051	-0.018
Mof_C 	C 	0.0553	0.3164	0.3818	0.005
Mof_C 	C 	0.0927	0.325	0.408	-0.003
Mof_C 	C 	0.1211	0.324	0.4644	0.002
Mof_C 	C 	0.104	0.3168	0.4865	-0.011
Mof_C 	C 	0.6589	0.2403	0.2648	0.015
Mof_C 	C 	0.7447	0.1616	0.2694	0.002
Mof_C 	C 	0.6997	0.3568	0.4757	0.023
Mof_C 	C 	0.7408	0.1647	0.3046	-0.004
Mof_C 	C 	0.8791	0.1841	0.4276	-0.005
Mof_C 	C 	0.4735	0.3322	0.0723	0.002
Mof_C 	C 	0.8611	0.4917	0.6396	-0.003
Mof_C 	C 	0.8657	0.2625	0.4733	-0.029
Mof_C 	C 	0.874	0.2382	0.5007	0.006
Mof_C 	C 	0.7231	0.4195	0.9937	-0.019
Mof_C 	C 	0.7461	0.187	0.2451	-0.005
Mof_C 	C 	0.7359	0.1891	0.3165	0.006
Mof_C 	C 	0.6556	0.147	0.1076	0.002
Mof_C 	C 	0.7715	0.3152	0.5063	-0.018
Mof_C 	C 	0.8134	0.5009	0.6414	-0.028
Mof_C 	C 	0.4617	0.3831	0.951	-0.003
Mof_C 	C 	0.5315	0.3936	0.0073	-0.019
Mof_C 	C 	0.8347	0.4954	0.5875	0.003
Mof_C 	C 	0.9063	0.2014	0.439	0.006
Mof_C 	C 	0.8044	0.394	0.5444	-0.031
Mof_C 	C 	0.0341	0.3326	0.6252	-0.005
Mof_C 	C 	0.8259	0.3771	0.5869	0.007
Mof_C 	C 	0.4907	0.4046	0.9793	0.003
Mof_C 	C 	0.6515	0.1948	0.1193	0.009
Mof_C 	C 	0.8977	0.2262	0.4162	-0.018
Mof_C 	C 	0.7868	0.2689	0.5339	-0.004
Mof_C 	C 	0.4926	0.3778	0.0646	0.005
Mof_C 	C 	0.6793	0.3964	0.6448	-0.003
Mof_C 	C 	0.5056	0.2509	0.1135	-0.003
Mof_C 	C 	0.679	0.2018	0.1182	-0.025
Mof_C 	C 	0.6808	0.3166	0.5009	0.002
Mof_C 	C 	0.8842	0.2859	0.5004	0.011
Mof_C 	C 	0.6783	0.4238	0.6614	0.005
Mof_C 	C 	0.8146	0.3824	0.0633	0.005
Mof_C 	C 	0.8516	0.4936	0.6678	0.006
Mof_C 	C 	0.8281	0.4138	0.6346	0.002
Mof_C 	C 	0.8336	0.2195	0.3696	-0.022
Mof_C 	C 	0.6797	0.2142	0.3381	0.006
Mof_C 	C 	0.7099	0.3247	0.553	-0.004
Mof_C 	C 	0.9165	0.2621	0.5772	0.003
Mof_C 	C 	0.7715	0.2934	0.5311	0.005
Mof_C 	C 	0.5115	0.3231	0.1033	-0.007
Mof_C 	C 	0.806	0.3914	0.0918	-0.026
Mof_C 	C 	0.8989	0.2388	0.5519	-0.004
Mof_C 	C 	0.6802	0.2381	0.3167	-0.019
Mof_C 	C 	0.8367	0.4017	0.0604	-0.003
Mof_C 	C 	0.7371	0.2134	0.2952	-0.028
Mof_C 	C 	0.4814	0.2567	0.0611	0.002
Mof_C 	C 	0.7346	0.3466	0.5682	0.005
Mof_C 	C 	0.7893	0.5053	0.5897	0.01
Mof_C 	C 	0.6846	0.1536	0.109	-0.004
Mof_C 	C 	0.6374	0.1934	0.2569	0.004
Mof_C 	C 	0.4661	0.358	0.0512	-0.003
Mof_C 	C 	0.0483	0.3169	0.6095	0.005
Mof_C 	C 	0.7999	0.5029	0.5629	-0.009
Mof_C 	C 	0.8199	0.4149	0.1177	0.01
Mof_C 	C 	0.5848	0.3827	0.2519	0.024
Mof_C 	C 	0.8005	0.2877	0.4843	-0.021
Mof_C 	C 	0.4712	0.3553	0.9492	0.004
Mof_C 	C 	0.6364	0.2181	0.2335	-0.013
Mof_C 	C 	0.5393	0.3419	0.1158	0.01
Mof_C 	C 	0.5364	0.3649	0.0028	0.015
Mof_C 	C 	0.495	0.2648	0.04	-0.008
Mof_C 	C 	0.6595	0.1917	0.3086	-0.004
Mof_C 	C 	0.025	0.3048	0.563	-0.024
Mof_C 	C 	0.5333	0.2671	0.0683	0.01
Mof_C 	C 	0.9096	0.2867	0.5517	-0.006
Mof_C 	C 	0.7858	0.3121	0.4822	0.014
Mof_C 	C 	0.698	0.3907	0.6292	0.003
Mof_C 	C 	0.7959	0.4208	0.5472	0.012
Mof_C 	C 	0.9872	0.3093	0.5309	0.013
Mof_C 	C 	0.5099	0.3473	0.9809	-0.017
Mof_C 	C 	0.7406	0.2116	0.2604	0.01
Mof_C 	C 	0.8022	0.2656	0.5109	0.006
Mof_C 	C 	0.5573	0.2607	0.1181	-0.028
Mof_C 	C 	0.8628	0.2355	0.3821	0.017
Mof_C 	C 	0.64	0.1688	0.1149	-0.008
Mof_C 	C 	0.5442	0.2524	0.1417	0.008
Mof_C 	C 	0.6727	0.3353	0.4575	-0.011
Mof_C 	C 	0.7025	0.4443	0.6653	-0.026
Mof_C 	C 	0.0154	0.3806	0.485	0.002
Mof_C 	C 	0.8525	0.425	0.0866	0.002
Mof_C 	C 	0.8065	0.4316	0.5904	-0.015
Mof_C 	C 	0.6945	0.18	0.1103	0.006
Mof_C 	C 	0.8429	0.1938	0.3944	0.006
Mof_C 	C 	0.8373	0.3871	0.633	-0.004
Mof_C 	C 	0.7273	0.3622	0.5285	-0.022
Mof_C 	C 	0.5308	0.3685	0.0979	-0.025
Mof_C 	C 	0.7229	0.4386	0.655	0.012
Mof_C 	C 	0.7213	0.4129	0.6341	-0.012
Mof_C 	C 	0.9953	0.3366	0.5931	0.007
Mof_C 	C 	0.8444	0.4328	0.1181	-0.005
Mof_C 	C 	0.9718	0.3247	0.5457	-0.022
Mof_C 	C 	0.731	0.2539	0.0914	0.011
Mof_C 	C 	0.9185	0.217	0.3084	0.003
Mof_C 	C 	0.708	0.2439	0.0488	-0.018
Mof_C 	C 	0.9203	0.246	0.3056	-0.011
Mof_C 	C 	0.967	0.2165	0.4004	0.003
Mof_C 	C 	0.9408	0.202	0.3564	-0.003
Mof_C 	C 	0.9677	0.2472	0.3973	-0.028
Mof_C 	C 	0.5806	0.2818	0.2883	-0.003
Mof_C 	C 	0.6083	0.2763	0.3378	0.003
Mof_C 	C 	0.6462	0.2855	0.3653	-0.007
Mof_C 	C 	0.5851	0.2962	0.2574	0.006
Mof_C 	C 	0.6233	0.3052	0.2852	-0.026
Mof_C 	C 	0.9434	0.2597	0.3518	0.01
Mof_C 	C 	0.6518	0.3003	0.3346	0.016
Mof_C 	C 	0.7014	0.402	0.0027	0.011
Mof_C 	C 	0.7268	0.4095	0.9601	0.004
Mof_S 	S 	0.65825	0.30128	0.13838	-0.256
Mof_S 	S 	0.80201	0.36883	0.36325	-0.262
Mof_S 	S 	0.76897	0.31909	0.24567	-0.265
Mof_S 	S 	0.80446	0.3988	0.25607	-0.262
Mof_S 	S 	0.69248	0.34745	0.25454	-0.264
Mof_S 	S 	0.72754	0.42732	0.26174	-0.266
Mof_S 	S 	0.69345	0.37769	0.14544	-0.265
Mof_S 	S 	0.54881	0.27832	0.0377	-0.118
Mof_S 	S 	0.73007	0.45539	0.15528	-0.254
Mof_S 	S 	0.87604	0.34002	0.35429	-0.254
Mof_S 	S 	0.65715	0.27006	0.2352	-0.125
Mof_S 	S 	0.91074	0.38605	0.46049	-0.13
Mof_S 	S 	0.76948	0.28434	0.35511	-0.196
Mof_S 	S 	0.72423	0.39995	0.36527	-0.254
Mof_S 	S 	0.83949	0.41035	0.4815	-0.121
Mof_S 	S 	0.78653	0.34187	0.45433	-0.122
Mof_S 	S 	0.63022	0.22017	0.12853	-0.114
Mof_S 	S 	0.95904	0.29313	0.47206	-0.122
Mof_S 	S 	0.74159	0.24151	0.23239	-0.12
Mof_S 	S 	0.82658	0.47786	0.25403	-0.127
Mof_S 	S 	0.85192	0.26772	0.35125	-0.131
Mof_S 	S 	0.8388	0.45131	0.37676	-0.198
Mof_S 	S 	0.87446	0.3179	0.46876	-0.119
Mof_S 	S 	0.58542	0.32921	0.1565	-0.12
Mof_S 	S 	0.76954	0.44289	0.49654	-0.121
Mof_S 	S 	0.77103	0.34834	0.13521	-0.2
Mof_S 	S 	0.58457	0.35396	0.04075	-0.126
Mof_S 	S 	0.61969	0.25569	0.0141	-0.116
Mof_S 	S 	0.69749	0.30866	0.36547	-0.119
Mof_S 	S 	0.6141	0.40864	0.15119	-0.199
Mof_S 	S 	0.83624	0.28356	0.23074	-0.12
Mof_S 	S 	0.94622	0.29596	0.34641	-0.116
Mof_S 	S 	0.74228	0.51476	0.55806	-0.12
Mof_S 	S 	0.72529	0.27238	0.12838	-0.132
Mof_S 	S 	0.8147	0.42623	0.16086	-0.122
Mof_S 	S 	0.64971	0.46431	0.25934	-0.118
Mof_S 	S 	0.7536	0.5068	0.2729	-0.119
Mof_S 	S 	0.75291	0.46232	0.66088	-0.115
Mof_S 	S 	0.75186	0.46985	0.37437	-0.136
Mof_S 	S 	0.65389	0.33654	0.02608	-0.119
Mof_S 	S 	0.88282	0.36465	0.26714	-0.135
Mof_S 	S 	0.63101	0.38058	0.27855	-0.137
Mof_S 	S 	0.61886	0.43009	0.04138	-0.122
Mof_S 	S 	0.69203	0.37625	0.43348	-0.129
Mof_S 	S 	0.65181	0.49584	0.53555	-0.123
Mof_S 	S 	0.98028	0.36525	0.42656	-0.12
Mof_S 	S 	0.66461	0.4841	0.16354	-0.137
Mof_S 	S 	0.69732	0.4115	0.04454	-0.13
Mof_S 	S 	0.6556	0.44655	0.37341	-0.115
Mof_S 	S 	0.90844	0.42455	0.355	-0.127
Mof_S 	S 	0.05145	0.30308	0.49013	-0.108
Mof_S 	S 	0.70016	0.4334	0.52192	-0.111
Mof_Cd	Cd	0.81078	0.35742	0.30304	0.252
Mof_Cd	Cd	0.73676	0.38547	0.30971	0.252
Mof_Cd	Cd	0.7387	0.41408	0.20468	0.253
Mof_Cd	Cd	0.78299	0.27825	0.30024	0.27
Mof_Cd	Cd	0.84757	0.40722	0.41728	0.271
Mof_Cd	Cd	0.70482	0.33737	0.19794	0.252
Mof_Cd	Cd	0.62929	0.36963	0.20607	0.269
Mof_Cd	Cd	0.62756	0.39305	0.09905	0.27
Mof_Cd	Cd	0.84317	0.43896	0.3135	0.271
Mof_Cd	Cd	0.77278	0.46311	0.32508	0.269
Mof_Cd	Cd	0.89093	0.30532	0.41739	0.276
Mof_Cd	Cd	0.67694	0.25709	0.18674	0.276
Mof_Cd	Cd	0.8043	0.32558	0.40469	0.27
Mof_Cd	Cd	0.66159	0.44353	0.206	0.271
Mof_Cd	Cd	0.91934	0.38046	0.39737	0.279
Mof_Cd	Cd	0.70894	0.36719	0.09159	0.269
Mof_Cd	Cd	0.66198	0.29414	0.072	0.276
Mof_Cd	Cd	0.98323	0.31385	0.43417	0.287
Mof_Cd	Cd	0.70612	0.30325	0.3025	0.268
Mof_Cd	Cd	0.59384	0.31626	0.09672	0.277
Mof_Cd	Cd	0.71735	0.35679	0.39645	0.28
Mof_Cd	Cd	0.71279	0.47677	0.56954	0.286
Mof_Cd	Cd	0.77477	0.30904	0.18163	0.269
Mof_Cd	Cd	0.76271	0.4964	0.21272	0.277
Mof_Cd	Cd	0.77627	0.42994	0.43443	0.277
Mof_Cd	Cd	0.81609	0.38222	0.20011	0.272
Mof_Cd	Cd	0.74981	0.44364	0.10721	0.277
Mof_Cd	Cd	0.88246	0.31727	0.29705	0.275
Mof_Cd	Cd	0.66278	0.46822	0.09449	0.277
Mof_Cd	Cd	0.70655	0.42586	0.4579	0.288
Mof_Cd	Cd	0.58559	0.24014	0.04101	0.286
Mof_Cd	Cd	0.66432	0.42611	0.31667	0.278
Mof_C 	C 	0.7001	0.3772	0.975	-0.012
Mof_C 	C 	0.533	0.4775	0.147	-0.001
Mof_C 	C 	0.0408	0.3754	0.5431	-0.012
Mof_C 	C 	0.9641	0.4491	0.558	0.008
Mof_C 	C 	0.6152	0.4749	0.5177	0.001
Mof_C 	C 	0.5206	0.3682	0.1986	0.006
Mof_C 	C 	0.0064	0.417	0.596	0.003
Mof_C 	C 	0.5851	0.4074	0.283	-0.022
Mof_C 	C 	0.7497	0.2113	0.0724	-0.003
Mof_C 	C 	0.5609	0.3699	0.2212	-0.024
Mof_C 	C 	0.5109	0.3881	0.2078	-0.003
Mof_C 	C 	0.7114	0.2215	0.0278	0.004
Mof_C 	C 	0.1658	0.9831	0.3769	0.007
Mof_C 	C 	0.1937	0.9976	0.4195	-0.025
Mof_C 	C 	0.1967	0.0257	0.4169	0.005
Mof_C 	C 	0.1718	0.0392	0.3716	-0.004
Mof_C 	C 	0.1439	0.0246	0.329	0.004
Mof_C 	C 	0.1409	0.9966	0.3316	-0.01
Mof_C 	C 	0.444	0.9437	0.3975	0.027
Mof_C 	C 	0.4731	0.9533	0.4019	-0.013
Mof_C 	C 	0.5004	0.9694	0.4424	0.004
Mof_C 	C 	0.4987	0.9759	0.4786	-0.006
Mof_C 	C 	0.4696	0.9663	0.4742	0.007
Mof_C 	C 	0.4423	0.9502	0.4337	-0.033
Mof_C 	C 	0.4075	0.8637	0.2478	0.022
Mof_C 	C 	0.4437	0.8544	0.2814	-0.022
Mof_C 	C 	0.4644	0.8529	0.2673	0.006
Mof_C 	C 	0.4488	0.8607	0.2196	-0.005
Mof_C 	C 	0.4127	0.87	0.186	0.007
Mof_C 	C 	0.392	0.8715	0.2001	-0.021
Mof_C 	C 	0.3654	0.93669	0.5242	0.014
Mof_C 	C 	0.3831	0.9325	0.5739	-0.008
Mof_C 	C 	0.4067	0.9523	0.6092	0.004
Mof_C 	C 	0.4127	0.97634	0.5947	-0.004
Mof_C 	C 	0.3951	0.98053	0.545	0.006
Mof_C 	C 	0.3714	0.9607	0.5097	-0.028
Mof_C 	C 	0.0841	0.7724	0.9571	0.009
Mof_C 	C 	0.0716	0.7601	0.9133	-0.007
Mof_C 	C 	0.0432	0.7721	0.8676	0.002
Mof_C 	C 	0.0274	0.7964	0.8657	-0.004
Mof_C 	C 	0.0399	0.8087	0.9095	0.008
Mof_C 	C 	0.0683	0.7967	0.9552	-0.031
Mof_C 	C 	0.2867	0.0328	0.3094	0.012
Mof_C 	C 	0.2751	0.059	0.3084	-0.007
Mof_C 	C 	0.3009	0.079	0.3402	0.003
Mof_C 	C 	0.3383	0.0728	0.373	-0.005
Mof_C 	C 	0.3499	0.0466	0.374	0.006
Mof_C 	C 	0.3241	0.0266	0.3422	-0.029
Mof_C 	C 	0.1566	0.922	0.4865	0.011
Mof_C 	C 	0.1267	0.9382	0.4497	-0.022
Mof_C 	C 	0.091	0.9283	0.4223	0.005
Mof_C 	C 	0.0853	0.9024	0.4318	-0.004
Mof_C 	C 	0.1152	0.8862	0.4687	0.003
Mof_C 	C 	0.1509	0.8961	0.496	-0.01
Mof_C 	C 	0.36	0.004	0.2939	0.014
Mof_C 	C 	0.3561	0.0285	0.2712	-0.015
Mof_C 	C 	0.3844	0.0477	0.2971	0.005
Mof_C 	C 	0.4165	0.0423	0.3457	-0.005
Mof_C 	C 	0.4204	0.0178	0.3684	0.006
Mof_C 	C 	0.3921	0.9987	0.3425	-0.022
Mof_C 	C 	0.136	0.0115	0.1553	0.018
Mof_C 	C 	0.1052	0.0192	0.1072	-0.019
Mof_C 	C 	0.0822	0.0398	0.0998	0.005
Mof_C 	C 	0.0901	0.0527	0.1404	-0.004
Mof_C 	C 	0.1209	0.045	0.1885	0.005
Mof_C 	C 	0.1439	0.0244	0.196	-0.013
Mof_C 	C 	0.3446	0.784	0.1898	0.01
Mof_C 	C 	0.3458	0.8072	0.1686	-0.031
Mof_C 	C 	0.3543	0.8049	0.1385	0.006
Mof_C 	C 	0.3615	0.7794	0.1296	-0.005
Mof_C 	C 	0.3604	0.7561	0.1509	0.002
Mof_C 	C 	0.3519	0.7584	0.181	-0.007
Mof_C 	C 	0.442	0.9092	0.5091	0.018
Mof_C 	C 	0.4743	0.8981	0.545	-0.013
Mof_C 	C 	0.4911	0.9381	0.5925	-0.005
Mof_C 	C 	0.4362	0.9313	0.5235	-0.023
Mof_C 	C 	0.2677	0.0013	0.406	0.016
Mof_C 	C 	0.2984	0.0071	0.4553	-0.022
Mof_C 	C 	0.3071	0.0341	0.4716	0.006
Mof_C 	C 	0.2851	0.0552	0.4385	-0.005
Mof_C 	C 	0.2545	0.0494	0.3892	0.004
Mof_C 	C 	0.2458	0.0224	0.373	-0.012
Mof_C 	C 	0.0991	0.9668	0.212	0.005
Mof_C 	C 	0.0757	0.9418	0.1965	-0.025
Mof_C 	C 	0.0337	0.9503	0.1493	0.002
Mof_C 	C 	0.0745	0.9863	0.168	-0.007
Mof_C 	C 	0.1684	0.8177	0.9916	-0.008
Mof_C 	C 	0.2051	0.8155	0.0049	-0.015
Mof_C 	C 	0.2012	0.7942	0.971	0
Mof_C 	C 	0.1586	0.8002	0.9224	-0
Mof_C 	C 	0.1352	0.8141	0.939	-0.001
Mof_C 	C 	0.0761	0.9474	0.0161	0.008
Mof_C 	C 	0.0519	0.9498	0.9627	-0.006
Mof_C 	C 	0.0155	0.9635	0.9412	0.001
Mof_C 	C 	0.0098	0.9712	0.9729	-0.003
Mof_C 	C 	0.0312	0.9686	0.0225	0.003
Mof_C 	C 	0.0695	0.9567	0.0448	-0.029
Mof_C 	C 	0.5662	0.8107	0.4576	0.011
Mof_C 	C 	0.5427	0.8083	0.4051	-0.018
Mof_C 	C 	0.5553	0.8164	0.3818	0.005
Mof_C 	C 	0.5927	0.825	0.408	-0.003
Mof_C 	C 	0.6211	0.824	0.4644	0.002
Mof_C 	C 	0.604	0.8168	0.4865	-0.011
Mof_C 	C 	0.1589	0.7403	0.2648	0.015
Mof_C 	C 	0.2447	0.6616	0.2694	0.002
Mof_C 	C 	0.1997	0.8568	0.4757	0.023
Mof_C 	C 	0.2408	0.6647	0.3046	-0.004
Mof_C 	C 	0.3791	0.6841	0.4276	-0.005
Mof_C 	C 	0.9735	0.8322	0.0723	0.002
Mof_C 	C 	0.3611	0.9917	0.6396	-0.003
Mof_C 	C 	0.3657	0.7625	0.4733	-0.029
Mof_C 	C 	0.374	0.7382	0.5007	0.006
Mof_C 	C 	0.2231	0.9195	0.9937	-0.019
Mof_C 	C 	0.2461	0.687	0.2451	-0.005
Mof_C 	C 	0.2359	0.6891	0.3165	0.006
Mof_C 	C 	0.1556	0.647	0.1076	0.002
Mof_C 	C 	0.2715	0.8152	0.5063	-0.018
Mof_C 	C 	0.3134	0.0009	0.6414	-0.028
Mof_C 	C 	0.9617	0.8831	0.951	-0.003
Mof_C 	C 	0.0315	0.8936	0.0073	-0.019
Mof_C 	C 	0.3347	0.9954	0.5875	0.003
Mof_C 	C 	0.4063	0.7014	0.439	0.006
Mof_C 	C 	0.3044	0.894	0.5444	-0.031
Mof_C 	C 	0.5341	0.8326	0.6252	-0.005
Mof_C 	C 	0.3259	0.8771	0.5869	0.007
Mof_C 	C 	0.9907	0.9046	0.9793	0.003
Mof_C 	C 	0.1515	0.6948	0.1193	0.009
Mof_C 	C 	0.3977	0.7262	0.4162	-0.018
Mof_C 	C 	0.2868	0.7689	0.5339	-0.004
Mof_C 	C 	0.9926	0.8778	0.0646	0.005
Mof_C 	C 	0.1793	0.8964	0.6448	-0.003
Mof_C 	C 	0.0056	0.7509	0.1135	-0.003
Mof_C 	C 	0.179	0.7018	0.1182	-0.025
Mof_C 	C 	0.1808	0.8166	0.5009	0.002
Mof_C 	C 	0.3842	0.7859	0.5004	0.011
Mof_C 	C 	0.1783	0.9238	0.6614	0.005
Mof_C 	C 	0.3146	0.8824	0.0633	0.005
Mof_C 	C 	0.3516	0.9936	0.6678	0.006
Mof_C 	C 	0.3281	0.9138	0.6346	0.002
Mof_C 	C 	0.3336	0.7195	0.3696	-0.022
Mof_C 	C 	0.1797	0.7142	0.3381	0.006
Mof_C 	C 	0.2099	0.8247	0.553	-0.004
Mof_C 	C 	0.4165	0.7621	0.5772	0.003
Mof_C 	C 	0.2715	0.7934	0.5311	0.005
Mof_C 	C 	0.0115	0.8231	0.1033	-0.007
Mof_C 	C 	0.306	0.8914	0.0918	-0.026
Mof_C 	C 	0.3989	0.7388	0.5519	-0.004
Mof_C 	C 	0.1802	0.7381	0.3167	-0.019
Mof_C 	C 	0.3367	0.9017	0.0604	-0.003
Mof_C 	C 	0.2371	0.7134	0.2952	-0.028
Mof_C 	C 	0.9814	0.7567	0.0611	0.002
Mof_C 	C 	0.2346	0.8466	0.5682	0.005
Mof_C 	C 	0.2893	0.0053	0.5897	0.01
Mof_C 	C 	0.1846	0.6536	0.109	-0.004
Mof_C 	C 	0.1374	0.6934	0.2569	0.004
Mof_C 	C 	0.9661	0.858	0.0512	-0.003
Mof_C 	C 	0.5483	0.8169	0.6095	0.005
Mof_C 	C 	0.2999	0.0029	0.5629	-0.009
Mof_C 	C 	0.3199	0.9149	0.1177	0.01
Mof_C 	C 	0.0848	0.8827	0.2519	0.024
Mof_C 	C 	0.3005	0.7877	0.4843	-0.021
Mof_C 	C 	0.9712	0.8553	0.9492	0.004
Mof_C 	C 	0.1364	0.7181	0.2335	-0.013
Mof_C 	C 	0.0393	0.8419	0.1158	0.01
Mof_C 	C 	0.0364	0.8649	0.0028	0.015
Mof_C 	C 	0.995	0.7648	0.04	-0.008
Mof_C 	C 	0.1595	0.6917	0.3086	-0.004
Mof_C 	C 	0.525	0.8048	0.563	-0.024
Mof_C 	C 	0.0333	0.7671	0.0683	0.01
Mof_C 	C 	0.4096	0.7867	0.5517	-0.006
Mof_C 	C 	0.2858	0.8121	0.4822	0.014
Mof_C 	C 	0.198	0.8907	0.6292	0.003
Mof_C 	C 	0.2959	0.9208	0.5472	0.012
Mof_C 	C 	0.4872	0.8093	0.5309	0.013
Mof_C 	C 	0.0099	0.8473	0.9809	-0.017
Mof_C 	C 	0.2406	0.7116	0.2604	0.01
Mof_C 	C 	0.3022	0.7656	0.5109	0.006
Mof_C 	C 	0.0573	0.7607	0.1181	-0.028
Mof_C 	C 	0.3628	0.7355	0.3821	0.017
Mof_C 	C 	0.14	0.6688	0.1149	-0.008
Mof_C 	C 	0.0442	0.7524	0.1417	0.008
Mof_C 	C 	0.1727	0.8353	0.4575	-0.011
Mof_C 	C 	0.2025	0.9443	0.6653	-0.026
Mof_C 	C 	0.5154	0.8806	0.485	0.002
Mof_C 	C 	0.3525	0.925	0.0866	0.002
Mof_C 	C 	0.3065	0.9316	0.5904	-0.015
Mof_C 	C 	0.1945	0.68	0.1103	0.006
Mof_C 	C 	0.3429	0.6938	0.3944	0.006
Mof_C 	C 	0.3373	0.8871	0.633	-0.004
Mof_C 	C 	0.2273	0.8622	0.5285	-0.022
Mof_C 	C 	0.0308	0.8685	0.0979	-0.025
Mof_C 	C 	0.2229	0.9386	0.655	0.012
Mof_C 	C 	0.2213	0.9129	0.6341	-0.012
Mof_C 	C 	0.4953	0.8366	0.5931	0.007
Mof_C 	C 	0.3444	0.9328	0.1181	-0.005
Mof_C 	C 	0.4718	0.8247	0.5457	-0.022
Mof_C 	C 	0.231	0.7539	0.0914	0.011
Mof_C 	C 	0.4185	0.717	0.3084	0.003
Mof_C 	C 	0.208	0.7439	0.0488	-0.018
Mof_C 	C 	0.4203	0.746	0.3056	-0.011
Mof_C 	C 	0.467	0.7165	0.4004	0.003
Mof_C 	C 	0.4408	0.702	0.3564	-0.003
Mof_C 	C 	0.4677	0.7472	0.3973	-0.028
Mof_C 	C 	0.0806	0.7818	0.2883	-0.003
Mof_C 	C 	0.1083	0.7763	0.3378	0.003
Mof_C 	C 	0.1462	0.7855	0.3653	-0.007
Mof_C 	C 	0.0851	0.7962	0.2574	0.006
Mof_C 	C 	0.1233	0.8052	0.2852	-0.026
Mof_C 	C 	0.4434	0.7597	0.3518	0.01
Mof_C 	C 	0.1518	0.8003	0.3346	0.016
Mof_C 	C 	0.2014	0.902	0.0027	0.011
Mof_C 	C 	0.2268	0.9095	0.9601	0.004
Mof_S 	S 	0.15825	0.80128	0.13838	-0.256
Mof_S 	S 	0.30201	0.86883	0.36325	-0.262
Mof_S 	S 	0.26897	0.81909	0.24567	-0.265
Mof_S 	S 	0.30446	0.8988	0.25607	-0.262
Mof_S 	S 	0.19248	0.84745	0.25454	-0.264
Mof_S 	S 	0.22754	0.92732	0.26174	-0.266
Mof_S 	S 	0.19345	0.87769	0.14544	-0.265
Mof_S 	S 	0.04881	0.77832	0.0377	-0.118
Mof_S 	S 	0.23007	0.95539	0.15528	-0.254
Mof_S 	S 	0.37604	0.84002	0.35429	-0.254
Mof_S 	S 	0.15715	0.77006	0.2352	-0.125
Mof_S 	S 	0.41074	0.88605	0.46049	-0.13
Mof_S 	S 	0.26948	0.78434	0.35511	-0.196
Mof_S 	S 	0.22423	0.89995	0.36527	-0.254
Mof_S 	S 	0.33949	0.91035	0.4815	-0.121
Mof_S 	S 	0.28653	0.84187	0.45433	-0.122
Mof_S 	S 	0.13022	0.72017	0.12853	-0.114
Mof_S 	S 	0.45904	0.79313	0.47206	-0.122
Mof_S 	S 	0.24159	0.74151	0.23239	-0.12
Mof_S 	S 	0.32658	0.97786	0.25403	-0.127
Mof_S 	S 	0.35192	0.76772	0.35125	-0.131
Mof_S 	S 	0.3388	0.95131	0.37676	-0.198
Mof_S 	S 	0.37446	0.8179	0.46876	-0.119
Mof_S 	S 	0.08542	0.82921	0.1565	-0.12
Mof_S 	S 	0.26954	0.94289	0.49654	-0.121
Mof_S 	S 	0.27103	0.84834	0.13521	-0.2
Mof_S 	S 	0.08457	0.85396	0.04075	-0.126
Mof_S 	S 	0.11969	0.75569	0.0141	-0.116
Mof_S 	S 	0.19749	0.80866	0.36547	-0.119
Mof_S 	S 	0.1141	0.90864	0.15119	-0.199
Mof_S 	S 	0.33624	0.78356	0.23074	-0.12
Mof_S 	S 	0.44622	0.79596	0.34641	-0.116
Mof_S 	S 	0.24228	0.01476	0.55806	-0.12
Mof_S 	S 	0.22529	0.77238	0.12838	-0.132
Mof_S 	S 	0.3147	0.92623	0.16086	-0.122
Mof_S 	S 	0.14971	0.96431	0.25934	-0.118
Mof_S 	S 	0.2536	0.0068	0.2729	-0.119
Mof_S 	S 	0.25291	0.96232	0.66088	-0.115
Mof_S 	S 	0.25186	0.96985	0.37437	-0.136
Mof_S 	S 	0.15389	0.83654	0.02608	-0.119
Mof_S 	S 	0.38282	0.86465	0.26714	-0.135
Mof_S 	S 	0.13101	0.88058	0.27855	-0.137
Mof_S 	S 	0.11886	0.93009	0.04138	-0.122
Mof_S 	S 	0.19203	0.87625	0.43348	-0.129
Mof_S 	S 	0.15181	0.99584	0.53555	-0.123
Mof_S 	S 	0.48028	0.86525	0.42656	-0.12
Mof_S 	S 	0.16461	0.9841	0.16354	-0.137
Mof_S 	S 	0.19732	0.9115	0.04454	-0.13
Mof_S 	S 	0.1556	0.94655	0.37341	-0.115
Mof_S 	S 	0.40844	0.92455	0.355	-0.127
Mof_S 	S 	0.55145	0.80308	0.49013	-0.108
Mof_S 	S 	0.20016	0.9334	0.52192	-0.111
Mof_Cd	Cd	0.31078	0.85742	0.30304	0.252
Mof_Cd	Cd	0.23676	0.88547	0.30971	0.252
Mof_Cd	Cd	0.2387	0.91408	0.20468	0.253
Mof_Cd	Cd	0.28299	0.77825	0.30024	0.27
Mof_Cd	Cd	0.34757	0.90722	0.41728	0.271
Mof_Cd	Cd	0.20482	0.83737	0.19794	0.252
Mof_Cd	Cd	0.12929	0.86963	0.20607	0.269
Mof_Cd	Cd	0.12756	0.89305	0.09905	0.27
Mof_Cd	Cd	0.34317	0.93896	0.3135	0.271
Mof_Cd	Cd	0.27278	0.96311	0.32508	0.269
Mof_Cd	Cd	0.39093	0.80532	0.41739	0.276
Mof_Cd	Cd	0.17694	0.75709	0.18674	0.276
Mof_Cd	Cd	0.3043	0.82558	0.40469	0.27
Mof_Cd	Cd	0.16159	0.94352	0.206	0.271
Mof_Cd	Cd	0.41934	0.88046	0.39737	0.279
Mof_Cd	Cd	0.20894	0.86719	0.09159	0.269
Mof_Cd	Cd	0.16198	0.79414	0.072	0.276
Mof_Cd	Cd	0.48323	0.81385	0.43417	0.287
Mof_Cd	Cd	0.20612	0.80325	0.3025	0.268
Mof_Cd	Cd	0.09384	0.81625	0.09672	0.277
Mof_Cd	Cd	0.21735	0.85679	0.39645	0.28
Mof_Cd	Cd	0.21279	0.97677	0.56954	0.286
Mof_Cd	Cd	0.27477	0.80904	0.18163	0.269
Mof_Cd	Cd	0.26271	0.9964	0.21272	0.277
Mof_Cd	Cd	0.27627	0.92993	0.43443	0.277
Mof_Cd	Cd	0.31609	0.88222	0.20011	0.272
Mof_Cd	Cd	0.24981	0.94364	0.10721	0.277
Mof_Cd	Cd	0.38246	0.81727	0.29705	0.275
Mof_Cd	Cd	0.16278	0.96822	0.09449	0.277
Mof_Cd	Cd	0.20655	0.92586	0.4579	0.288
Mof_Cd	Cd	0.08559	0.74014	0.04101	0.286
Mof_Cd	Cd	0.16432	0.92611	0.31667	0.278
Mof_C 	C 	0.2001	0.8772	0.975	-0.012
Mof_C 	C 	0.033	0.9775	0.147	-0.001
Mof_C 	C 	0.5408	0.8754	0.5431	-0.012
Mof_C 	C 	0.4641	0.9491	0.558	0.008
Mof_C 	C 	0.1152	0.9749	0.5177	0.001
Mof_C 	C 	0.0206	0.8682	0.1986	0.006
Mof_C 	C 	0.5064	0.917	0.596	0.003
Mof_C 	C 	0.0851	0.9074	0.283	-0.022
Mof_C 	C 	0.2497	0.7113	0.0724	-0.003
Mof_C 	C 	0.0609	0.8699	0.2212	-0.024
Mof_C 	C 	0.0109	0.8881	0.2078	-0.003
Mof_C 	C 	0.2114	0.7215	0.0278	0.004
_end
