data_functionalizedCrystal
_audit_creation_method	'EQeq! by Chris Wilmer'
_symmetry_space_group_name_H-M	'P1'
_symmetry_Int_Tables_number	1
_symmetry_cell_setting	triclinic
loop_
_symmetry_equiv_pos_as_xyz
  x,y,z
_cell_length_a	15.7742
_cell_length_b	19.9751
_cell_length_c	16.2065
_cell_angle_alpha	90
_cell_angle_beta	106.398
_cell_angle_gamma	90
loop_
_atom_site_label
_atom_site_type_symbol
_atom_site_fract_x
_atom_site_fract_y
_atom_site_fract_z
_atom_site_charge
Mof_N 	N 	0.5333	0.9765	0.5663	0.071
Mof_O 	O 	0.572	0.0302	0.5732	-0.106
Mof_O 	O 	0.5018	0.9535	0.4935	-0.082
Mof_O 	O 	0.53115	0.94653	0.63271	-0.28
Mof_N 	N 	0.3622	0.95374	0.6829	-0.227
Mof_C 	C 	0.4537	0.0925	0.6825	0.094
Mof_H 	H 	0.4204	0.0683	0.6336	0.01
Mof_C 	C 	0.4509	0.1616	0.6792	-0.139
Mof_H 	H 	0.4161	0.1838	0.6294	0.081
Mof_C 	C 	0.4231	0.3083	0.7125	-0.028
Mof_H 	H 	0.3699	0.285	0.686	0.04
Mof_C 	C 	0.423	0.3777	0.7132	-0.063
Mof_H 	H 	0.3694	0.401	0.6882	0.054
Mof_C 	C 	0.4424	0.5242	0.6838	-0.065
Mof_H 	H 	0.4024	0.5009	0.6379	0.054
Mof_C 	C 	0.4424	0.5936	0.6839	-0.031
Mof_H 	H 	0.4026	0.6172	0.6381	0.041
Mof_C 	C 	0.4853	0.8093	0.6765	0.07
Mof_H 	H 	0.475	0.8328	0.6236	0.013
Mof_C 	C 	0.4845	0.7402	0.6742	-0.134
Mof_H 	H 	0.4733	0.7176	0.6207	0.079
Mof_C 	C 	0.3033	0.975	0.7225	0.08
Mof_H 	H 	0.3231	0.9828	0.7827	0.014
Mof_C 	C 	0.2156	0.9863	0.6808	-0.155
Mof_H 	H 	0.1768	0.0022	0.7119	0.088
Mof_C 	C 	0.184	0.9743	0.5933	0.106
Mof_C 	C 	0.2434	0.9516	0.5523	-0.154
Mof_H 	H 	0.2246	0.9422	0.4924	0.087
Mof_C 	C 	0.3309	0.9422	0.5985	0.082
Mof_H 	H 	0.3709	0.9268	0.5686	0.019
Mof_C 	C 	0.0286	0.9343	0.5268	0.035
Mof_C 	C 	0.0623	0.054	0.5195	0.03
Mof_C 	C 	0.1218	0.1084	0.5347	-0.102
Mof_H 	H 	0.1825	0.1007	0.563	0.069
Mof_C 	C 	0.094	0.1715	0.5097	0.025
Mof_H 	H 	0.1347	0.2076	0.5225	0.019
Mof_C 	C 	0.0046	0.1835	0.4647	-0.128
Mof_H 	H 	0.9856	0.2278	0.4474	0.089
Mof_C 	C 	0.0539	0.8676	0.5539	-0.133
Mof_H 	H 	0.1133	0.8588	0.5858	0.079
Mof_C 	C 	0.0887	0.9877	0.5455	-0.071
Mof_N 	N 	0.4667	0.9765	0.9337	0.07
Mof_O 	O 	0.428	0.0302	0.9268	-0.107
Mof_O 	O 	0.4982	0.9535	0.0065	-0.084
Mof_O 	O 	0.46885	0.94653	0.86729	-0.281
Mof_N 	N 	0.6378	0.95374	0.8171	-0.226
Mof_C 	C 	0.5463	0.0925	0.8175	0.093
Mof_H 	H 	0.5796	0.0683	0.8664	0.009
Mof_C 	C 	0.5491	0.1616	0.8208	-0.139
Mof_H 	H 	0.5839	0.1838	0.8706	0.081
Mof_C 	C 	0.5769	0.3083	0.7875	-0.028
Mof_H 	H 	0.6301	0.285	0.814	0.041
Mof_C 	C 	0.577	0.3777	0.7868	-0.063
Mof_H 	H 	0.6306	0.401	0.8118	0.054
Mof_C 	C 	0.5576	0.5242	0.8162	-0.064
Mof_H 	H 	0.5976	0.5009	0.8621	0.054
Mof_C 	C 	0.5576	0.5936	0.8161	-0.031
Mof_H 	H 	0.5974	0.6172	0.8619	0.042
Mof_C 	C 	0.5147	0.8093	0.8235	0.07
Mof_H 	H 	0.525	0.8328	0.8764	0.013
Mof_C 	C 	0.5155	0.7402	0.8258	-0.134
Mof_H 	H 	0.5267	0.7176	0.8793	0.079
Mof_C 	C 	0.6967	0.975	0.7775	0.077
Mof_H 	H 	0.6769	0.9828	0.7173	0.015
Mof_C 	C 	0.7844	0.9863	0.8192	-0.148
Mof_H 	H 	0.8232	0.0022	0.7881	0.088
Mof_C 	C 	0.816	0.9743	0.9067	0.097
Mof_C 	C 	0.7566	0.9516	0.9477	-0.145
Mof_H 	H 	0.7754	0.9422	0.0076	0.084
Mof_C 	C 	0.6691	0.9422	0.9015	0.079
Mof_H 	H 	0.6291	0.9268	0.9314	0.02
Mof_C 	C 	0.9714	0.9343	0.9732	0.012
Mof_C 	C 	0.9377	0.054	0.9805	0.022
Mof_C 	C 	0.8782	0.1084	0.9653	-0.042
Mof_H 	H 	0.8175	0.1007	0.937	0.05
Mof_C 	C 	0.906	0.1715	0.9903	-0.071
Mof_H 	H 	0.8653	0.2076	0.9775	0.056
Mof_C 	C 	0.9954	0.1835	0.0353	0.058
Mof_H 	H 	0.0144	0.2278	0.0526	0.003
Mof_C 	C 	0.9461	0.8676	0.9461	0.001
Mof_H 	H 	0.8867	0.8588	0.9142	0.037
Mof_C 	C 	0.9113	0.9877	0.9545	-0.049
Mof_N 	N 	0.4667	0.0235	0.4337	0.07
Mof_O 	O 	0.428	0.9698	0.4268	-0.107
Mof_O 	O 	0.4982	0.0465	0.5065	-0.083
Mof_O 	O 	0.46885	0.05347	0.36729	-0.281
Mof_N 	N 	0.6378	0.04626	0.3171	-0.227
Mof_C 	C 	0.5463	0.9075	0.3175	0.093
Mof_H 	H 	0.5796	0.9317	0.3664	0.009
Mof_C 	C 	0.5491	0.8384	0.3208	-0.139
Mof_H 	H 	0.5839	0.8162	0.3706	0.081
Mof_C 	C 	0.5769	0.6917	0.2875	-0.028
Mof_H 	H 	0.6301	0.715	0.314	0.041
Mof_C 	C 	0.577	0.6223	0.2868	-0.063
Mof_H 	H 	0.6306	0.599	0.3118	0.054
Mof_C 	C 	0.5576	0.4758	0.3162	-0.064
Mof_H 	H 	0.5976	0.4991	0.3621	0.054
Mof_C 	C 	0.5576	0.4064	0.3161	-0.031
Mof_H 	H 	0.5974	0.3828	0.3619	0.041
Mof_C 	C 	0.5147	0.1907	0.3235	0.07
Mof_H 	H 	0.525	0.1672	0.3764	0.013
Mof_C 	C 	0.5155	0.2598	0.3258	-0.134
Mof_H 	H 	0.5267	0.2824	0.3793	0.079
Mof_C 	C 	0.6967	0.025	0.2775	0.077
Mof_H 	H 	0.6769	0.0172	0.2173	0.015
Mof_C 	C 	0.7844	0.0137	0.3192	-0.149
Mof_H 	H 	0.8232	0.9978	0.2881	0.088
Mof_C 	C 	0.816	0.0257	0.4067	0.097
Mof_C 	C 	0.7566	0.0484	0.4477	-0.147
Mof_H 	H 	0.7754	0.0578	0.5076	0.085
Mof_C 	C 	0.6691	0.0578	0.4015	0.08
Mof_H 	H 	0.6291	0.0732	0.4314	0.02
Mof_C 	C 	0.9714	0.0657	0.4732	0.01
Mof_C 	C 	0.9377	0.946	0.4805	0.019
Mof_C 	C 	0.8782	0.8916	0.4653	-0.038
Mof_H 	H 	0.8175	0.8993	0.437	0.049
Mof_C 	C 	0.906	0.8285	0.4903	-0.077
Mof_H 	H 	0.8653	0.7924	0.4775	0.058
Mof_C 	C 	0.9954	0.8165	0.5353	0.065
Mof_H 	H 	0.0144	0.7722	0.5526	0
Mof_C 	C 	0.9461	0.1324	0.4461	0.003
Mof_H 	H 	0.8867	0.1412	0.4142	0.036
Mof_C 	C 	0.9113	0.0123	0.4545	-0.048
Mof_N 	N 	0.5333	0.0235	0.0663	0.069
Mof_O 	O 	0.572	0.9698	0.0732	-0.107
Mof_O 	O 	0.5018	0.0465	0.9935	-0.082
Mof_O 	O 	0.53115	0.05347	0.13271	-0.281
Mof_N 	N 	0.3622	0.04626	0.1829	-0.228
Mof_C 	C 	0.4537	0.9075	0.1825	0.093
Mof_H 	H 	0.4204	0.9317	0.1336	0.009
Mof_C 	C 	0.4509	0.8384	0.1792	-0.139
Mof_H 	H 	0.4161	0.8162	0.1294	0.081
Mof_C 	C 	0.4231	0.6917	0.2125	-0.028
Mof_H 	H 	0.3699	0.715	0.186	0.04
Mof_C 	C 	0.423	0.6223	0.2132	-0.063
Mof_H 	H 	0.3694	0.599	0.1882	0.054
Mof_C 	C 	0.4424	0.4758	0.1838	-0.065
Mof_H 	H 	0.4024	0.4991	0.1379	0.054
Mof_C 	C 	0.4424	0.4064	0.1839	-0.031
Mof_H 	H 	0.4026	0.3828	0.1381	0.041
Mof_C 	C 	0.4853	0.1907	0.1765	0.07
Mof_H 	H 	0.475	0.1672	0.1236	0.013
Mof_C 	C 	0.4845	0.2598	0.1742	-0.134
Mof_H 	H 	0.4733	0.2824	0.1207	0.079
Mof_C 	C 	0.3033	0.025	0.2225	0.08
Mof_H 	H 	0.3231	0.0172	0.2827	0.014
Mof_C 	C 	0.2156	0.0137	0.1808	-0.155
Mof_H 	H 	0.1768	0.9978	0.2119	0.088
Mof_C 	C 	0.184	0.0257	0.0933	0.107
Mof_C 	C 	0.2434	0.0484	0.0523	-0.156
Mof_H 	H 	0.2246	0.0578	0.9924	0.088
Mof_C 	C 	0.3309	0.0578	0.0985	0.083
Mof_H 	H 	0.3709	0.0732	0.0686	0.018
Mof_C 	C 	0.0286	0.0657	0.0268	0.031
Mof_C 	C 	0.0623	0.946	0.0195	0.028
Mof_C 	C 	0.1218	0.8916	0.0347	-0.1
Mof_H 	H 	0.1825	0.8993	0.063	0.069
Mof_C 	C 	0.094	0.8285	0.0097	0.023
Mof_H 	H 	0.1347	0.7924	0.0225	0.019
Mof_C 	C 	0.0046	0.8165	0.9647	-0.126
Mof_H 	H 	0.9856	0.7722	0.9474	0.088
Mof_C 	C 	0.0539	0.1324	0.0539	-0.128
Mof_H 	H 	0.1133	0.1412	0.0858	0.078
Mof_C 	C 	0.0887	0.0123	0.0455	-0.07
Mof_Ni	Ni	0.5	0.95153	0.75	1.08
Mof_N 	N 	0.5	0.0579	0.75	-0.229
Mof_C 	C 	0.5	0.1985	0.75	0.084
Mof_C 	C 	0.5	0.2721	0.75	-0.022
Mof_C 	C 	0.5	0.4137	0.75	0.023
Mof_C 	C 	0.5	0.4879	0.75	0.018
Mof_C 	C 	0.5	0.6292	0.75	-0.017
Mof_N 	N 	0.5	0.8455	0.75	-0.224
Mof_C 	C 	0.5	0.7036	0.75	0.079
Mof_Ni	Ni	0.5	0.04847	0.25	1.08
Mof_N 	N 	0.5	0.9421	0.25	-0.229
Mof_C 	C 	0.5	0.8015	0.25	0.084
Mof_C 	C 	0.5	0.7279	0.25	-0.022
Mof_C 	C 	0.5	0.5863	0.25	0.023
Mof_C 	C 	0.5	0.5121	0.25	0.018
Mof_C 	C 	0.5	0.3708	0.25	-0.017
Mof_N 	N 	0.5	0.1545	0.25	-0.224
Mof_C 	C 	0.5	0.2964	0.25	0.079
Mof_N 	N 	0.0333	0.4765	0.5663	0.07
Mof_O 	O 	0.072	0.5302	0.5732	-0.117
Mof_O 	O 	0.0018	0.4535	0.4935	-0.098
Mof_O 	O 	0.03115	0.44653	0.63271	-0.287
Mof_N 	N 	0.8622	0.45374	0.6829	-0.223
Mof_C 	C 	0.9537	0.5925	0.6825	0.105
Mof_H 	H 	0.9204	0.5683	0.6336	0.008
Mof_C 	C 	0.9509	0.6616	0.6792	-0.119
Mof_H 	H 	0.9161	0.6838	0.6294	0.078
Mof_C 	C 	0.9231	0.8083	0.7125	-0.014
Mof_H 	H 	0.8699	0.785	0.686	0.038
Mof_C 	C 	0.923	0.8777	0.7132	-0.047
Mof_H 	H 	0.8694	0.901	0.6882	0.05
Mof_C 	C 	0.9424	0.0242	0.6838	-0.048
Mof_H 	H 	0.9024	0.0009	0.6379	0.051
Mof_C 	C 	0.9424	0.0936	0.6839	-0.015
Mof_H 	H 	0.9026	0.1172	0.6381	0.039
Mof_C 	C 	0.9853	0.3093	0.6765	0.081
Mof_H 	H 	0.975	0.3328	0.6236	0.015
Mof_C 	C 	0.9845	0.2402	0.6742	-0.113
Mof_H 	H 	0.9733	0.2176	0.6207	0.078
Mof_C 	C 	0.8033	0.475	0.7225	0.079
Mof_H 	H 	0.8231	0.4828	0.7827	0.016
Mof_C 	C 	0.7156	0.4863	0.6808	-0.151
Mof_H 	H 	0.6768	0.5022	0.7119	0.087
Mof_C 	C 	0.684	0.4743	0.5933	0.101
Mof_C 	C 	0.7434	0.4516	0.5523	-0.15
Mof_H 	H 	0.7246	0.4422	0.4924	0.086
Mof_C 	C 	0.8309	0.4422	0.5985	0.081
Mof_H 	H 	0.8709	0.4268	0.5686	0.023
Mof_C 	C 	0.5286	0.4343	0.5268	0.022
Mof_C 	C 	0.5623	0.554	0.5195	0.024
Mof_C 	C 	0.6218	0.6084	0.5347	-0.07
Mof_H 	H 	0.6825	0.6007	0.563	0.059
Mof_C 	C 	0.594	0.6715	0.5097	-0.026
Mof_H 	H 	0.6347	0.7076	0.5225	0.038
Mof_C 	C 	0.5046	0.6835	0.4647	-0.032
Mof_H 	H 	0.4856	0.7278	0.4474	0.044
Mof_C 	C 	0.5539	0.3676	0.5539	-0.066
Mof_H 	H 	0.6133	0.3588	0.5858	0.058
Mof_C 	C 	0.5887	0.4877	0.5455	-0.059
Mof_N 	N 	0.9667	0.4765	0.9337	0.069
Mof_O 	O 	0.928	0.5302	0.9268	-0.096
Mof_O 	O 	0.9982	0.4535	0.0065	-0.069
Mof_O 	O 	0.96885	0.44653	0.86729	-0.27
Mof_N 	N 	0.1378	0.45374	0.8171	-0.228
Mof_C 	C 	0.0463	0.5925	0.8175	0.086
Mof_H 	H 	0.0796	0.5683	0.8664	0.009
Mof_C 	C 	0.0491	0.6616	0.8208	-0.135
Mof_H 	H 	0.0839	0.6838	0.8706	0.078
Mof_C 	C 	0.0769	0.8083	0.7875	-0.029
Mof_H 	H 	0.1301	0.785	0.814	0.04
Mof_C 	C 	0.077	0.8777	0.7868	-0.061
Mof_H 	H 	0.1306	0.901	0.8118	0.053
Mof_C 	C 	0.0576	0.0242	0.8162	-0.064
Mof_H 	H 	0.0976	0.0009	0.8621	0.053
Mof_C 	C 	0.0576	0.0936	0.8161	-0.031
Mof_H 	H 	0.0974	0.1172	0.8619	0.041
Mof_C 	C 	0.0147	0.3093	0.8235	0.062
Mof_H 	H 	0.025	0.3328	0.8764	0.011
Mof_C 	C 	0.0155	0.2402	0.8258	-0.129
Mof_H 	H 	0.0267	0.2176	0.8793	0.074
Mof_C 	C 	0.1967	0.475	0.7775	0.078
Mof_H 	H 	0.1769	0.4828	0.7173	0.014
Mof_C 	C 	0.2844	0.4863	0.8192	-0.152
Mof_H 	H 	0.3232	0.5022	0.7881	0.087
Mof_C 	C 	0.316	0.4743	0.9067	0.102
Mof_C 	C 	0.2566	0.4516	0.9477	-0.15
Mof_H 	H 	0.2754	0.4422	0.0076	0.085
Mof_C 	C 	0.1691	0.4422	0.9015	0.081
Mof_H 	H 	0.1291	0.4268	0.9314	0.017
Mof_C 	C 	0.4714	0.4343	0.9732	0.025
Mof_C 	C 	0.4377	0.554	0.9805	0.027
Mof_C 	C 	0.3782	0.6084	0.9653	-0.073
Mof_H 	H 	0.3175	0.6007	0.937	0.06
Mof_C 	C 	0.406	0.6715	0.9903	-0.023
Mof_H 	H 	0.3653	0.7076	0.9775	0.037
Mof_C 	C 	0.4954	0.6835	0.0353	-0.035
Mof_H 	H 	0.5144	0.7278	0.0526	0.045
Mof_C 	C 	0.4461	0.3676	0.9461	-0.068
Mof_H 	H 	0.3867	0.3588	0.9142	0.059
Mof_C 	C 	0.4113	0.4877	0.9545	-0.061
Mof_N 	N 	0.9667	0.5235	0.4337	0.069
Mof_O 	O 	0.928	0.4698	0.4268	-0.096
Mof_O 	O 	0.9982	0.5465	0.5065	-0.067
Mof_O 	O 	0.96885	0.55347	0.36729	-0.27
Mof_N 	N 	0.1378	0.54626	0.3171	-0.228
Mof_C 	C 	0.0463	0.4075	0.3175	0.086
Mof_H 	H 	0.0796	0.4317	0.3664	0.009
Mof_C 	C 	0.0491	0.3384	0.3208	-0.135
Mof_H 	H 	0.0839	0.3162	0.3706	0.078
Mof_C 	C 	0.0769	0.1917	0.2875	-0.028
Mof_H 	H 	0.1301	0.215	0.314	0.04
Mof_C 	C 	0.077	0.1223	0.2868	-0.061
Mof_H 	H 	0.1306	0.099	0.3118	0.053
Mof_C 	C 	0.0576	0.9758	0.3162	-0.064
Mof_H 	H 	0.0976	0.9991	0.3621	0.053
Mof_C 	C 	0.0576	0.9064	0.3161	-0.031
Mof_H 	H 	0.0974	0.8828	0.3619	0.041
Mof_C 	C 	0.0147	0.6907	0.3235	0.062
Mof_H 	H 	0.025	0.6672	0.3764	0.011
Mof_C 	C 	0.0155	0.7598	0.3258	-0.129
Mof_H 	H 	0.0267	0.7824	0.3793	0.074
Mof_C 	C 	0.1967	0.525	0.2775	0.078
Mof_H 	H 	0.1769	0.5172	0.2173	0.014
Mof_C 	C 	0.2844	0.5137	0.3192	-0.152
Mof_H 	H 	0.3232	0.4978	0.2881	0.087
Mof_C 	C 	0.316	0.5257	0.4067	0.102
Mof_C 	C 	0.2566	0.5484	0.4477	-0.151
Mof_H 	H 	0.2754	0.5578	0.5076	0.086
Mof_C 	C 	0.1691	0.5578	0.4015	0.081
Mof_H 	H 	0.1291	0.5732	0.4314	0.016
Mof_C 	C 	0.4714	0.5657	0.4732	0.022
Mof_C 	C 	0.4377	0.446	0.4805	0.024
Mof_C 	C 	0.3782	0.3916	0.4653	-0.07
Mof_H 	H 	0.3175	0.3993	0.437	0.059
Mof_C 	C 	0.406	0.3285	0.4903	-0.026
Mof_H 	H 	0.3653	0.2924	0.4775	0.038
Mof_C 	C 	0.4954	0.3165	0.5353	-0.032
Mof_H 	H 	0.5144	0.2722	0.5526	0.044
Mof_C 	C 	0.4461	0.6324	0.4461	-0.065
Mof_H 	H 	0.3867	0.6412	0.4142	0.058
Mof_C 	C 	0.4113	0.5123	0.4545	-0.06
Mof_N 	N 	0.0333	0.5235	0.0663	0.07
Mof_O 	O 	0.072	0.4698	0.0732	-0.117
Mof_O 	O 	0.0018	0.5465	0.9935	-0.098
Mof_O 	O 	0.03115	0.55347	0.13271	-0.287
Mof_N 	N 	0.8622	0.54626	0.1829	-0.224
Mof_C 	C 	0.9537	0.4075	0.1825	0.105
Mof_H 	H 	0.9204	0.4317	0.1336	0.008
Mof_C 	C 	0.9509	0.3384	0.1792	-0.119
Mof_H 	H 	0.9161	0.3162	0.1294	0.078
Mof_C 	C 	0.9231	0.1917	0.2125	-0.014
Mof_H 	H 	0.8699	0.215	0.186	0.038
Mof_C 	C 	0.923	0.1223	0.2132	-0.047
Mof_H 	H 	0.8694	0.099	0.1882	0.05
Mof_C 	C 	0.9424	0.9758	0.1838	-0.048
Mof_H 	H 	0.9024	0.9991	0.1379	0.051
Mof_C 	C 	0.9424	0.9064	0.1839	-0.015
Mof_H 	H 	0.9026	0.8828	0.1381	0.039
Mof_C 	C 	0.9853	0.6907	0.1765	0.081
Mof_H 	H 	0.975	0.6672	0.1236	0.015
Mof_C 	C 	0.9845	0.7598	0.1742	-0.114
Mof_H 	H 	0.9733	0.7824	0.1207	0.078
Mof_C 	C 	0.8033	0.525	0.2225	0.079
Mof_H 	H 	0.8231	0.5172	0.2827	0.015
Mof_C 	C 	0.7156	0.5137	0.1808	-0.151
Mof_H 	H 	0.6768	0.4978	0.2119	0.088
Mof_C 	C 	0.684	0.5257	0.0933	0.102
Mof_C 	C 	0.7434	0.5484	0.0523	-0.152
Mof_H 	H 	0.7246	0.5578	0.9924	0.087
Mof_C 	C 	0.8309	0.5578	0.0985	0.082
Mof_H 	H 	0.8709	0.5732	0.0686	0.022
Mof_C 	C 	0.5286	0.5657	0.0268	0.019
Mof_C 	C 	0.5623	0.446	0.0195	0.021
Mof_C 	C 	0.6218	0.3916	0.0347	-0.067
Mof_H 	H 	0.6825	0.3993	0.063	0.058
Mof_C 	C 	0.594	0.3285	0.0097	-0.03
Mof_H 	H 	0.6347	0.2924	0.0225	0.039
Mof_C 	C 	0.5046	0.3165	0.9647	-0.028
Mof_H 	H 	0.4856	0.2722	0.9474	0.043
Mof_C 	C 	0.5539	0.6324	0.0539	-0.063
Mof_H 	H 	0.6133	0.6412	0.0858	0.057
Mof_C 	C 	0.5887	0.5123	0.0455	-0.058
Mof_Ni	Ni	-4.6414e-17	0.45153	0.75	1.075
Mof_N 	N 	3.70474e-33	0.5579	0.75	-0.238
Mof_C 	C 	3.70474e-33	0.6985	0.75	0.066
Mof_C 	C 	3.70474e-33	0.7721	0.75	-0.036
Mof_C 	C 	-4.6414e-17	0.9137	0.75	0.007
Mof_C 	C 	-4.6414e-17	0.9879	0.75	0.003
Mof_C 	C 	-4.6414e-17	0.1292	0.75	-0.031
Mof_N 	N 	-4.6414e-17	0.3455	0.75	-0.233
Mof_C 	C 	3.70474e-33	0.2036	0.75	0.061
Mof_Ni	Ni	1.23491e-33	0.54847	0.25	1.075
Mof_N 	N 	-1.16035e-17	0.4421	0.25	-0.238
Mof_C 	C 	1.23491e-33	0.3015	0.25	0.066
Mof_C 	C 	-1.16035e-17	0.2279	0.25	-0.035
Mof_C 	C 	-1.16035e-17	0.0863	0.25	0.007
Mof_C 	C 	1.23491e-33	0.0121	0.25	0.003
Mof_C 	C 	1.23491e-33	0.8708	0.25	-0.031
Mof_N 	N 	1.16035e-17	0.6545	0.25	-0.233
Mof_C 	C 	1.23491e-33	0.7964	0.25	0.061
_end
