data_functionalizedCrystal
_audit_creation_method	'EQeq! by Chris Wilmer'
_symmetry_space_group_name_H-M	'P1'
_symmetry_Int_Tables_number	1
_symmetry_cell_setting	triclinic
loop_
_symmetry_equiv_pos_as_xyz
  x,y,z
_cell_length_a	27.2959
_cell_length_b	27.2959
_cell_length_c	28.0896
_cell_angle_alpha	90
_cell_angle_beta	90
_cell_angle_gamma	120
loop_
_atom_site_label
_atom_site_type_symbol
_atom_site_fract_x
_atom_site_fract_y
_atom_site_fract_z
_atom_site_charge
Mof_In	In	0.2102	0.7278	0.4281	2.884
Mof_In	In	0.8484	0.4582	0.426	3.266
Mof_In	In	0.9422	0.81613	0.5265	2.782
Mof_In	In	0.7278	0.2102	0.9281	2.893
Mof_In	In	0.4582	0.8484	0.926	3.276
Mof_In	In	0.81613	0.9422	0.0265	2.755
Mof_H 	H 	0.864	0.623	0.494	0.043
Mof_H 	H 	0.7027	0.5158	0.4683	0.058
Mof_H 	H 	0.7503	0.6693	0.5238	0.081
Mof_H 	H 	0.0426	0.5651	0.4293	0.009
Mof_H 	H 	0.1592	0.5308	0.4821	0.037
Mof_H 	H 	0.0055	0.4076	0.4507	0.055
Mof_H 	H 	0.0882	0.798	0.472	0.066
Mof_H 	H 	0.1512	0.969	0.4967	0.077
Mof_H 	H 	0.9317	0.8082	0.3497	-0.173
Mof_H 	H 	0.9325	0.8454	0.2816	0.253
Mof_H 	H 	0.8987	0.9555	0.3397	0.22
Mof_H 	H 	0.9045	0.9176	0.4126	-0.135
Mof_H 	H 	0.9554	0.9117	0.2229	0.013
Mof_H 	H 	0.9208	0.9028	0.1355	0.084
Mof_H 	H 	0.8094	0.9511	0.1949	0.078
Mof_H 	H 	0.8307	0.9271	0.2773	0.026
Mof_H 	H 	0.4569	0.8538	0.1233	-0.01
Mof_H 	H 	0.4154	0.8221	0.1975	0.092
Mof_H 	H 	0.2735	0.7285	0.1215	0.084
Mof_H 	H 	0.3176	0.7526	0.0472	0.012
Mof_H 	H 	0.3892	0.787	0.2462	0.041
Mof_H 	H 	0.3546	0.772	0.3223	0.063
Mof_H 	H 	0.2039	0.7141	0.2679	0.062
Mof_H 	H 	0.2335	0.7321	0.1905	0.047
Mof_H 	H 	0.3202	0.7379	0.8246	-0.045
Mof_H 	H 	0.2839	0.7187	0.7465	0.118
Mof_H 	H 	0.4325	0.8352	0.6921	0.117
Mof_H 	H 	0.4726	0.8562	0.7689	-0.038
Mof_H 	H 	0.2487	0.7355	0.6824	0.058
Mof_H 	H 	0.2117	0.7338	0.6087	0.029
Mof_H 	H 	0.3585	0.7703	0.5461	0.051
Mof_H 	H 	0.3847	0.7541	0.6198	0.065
Mof_H 	H 	0.623	0.864	0.994	0.042
Mof_H 	H 	0.5158	0.7027	0.9683	0.062
Mof_H 	H 	0.6693	0.7503	0.0238	0.085
Mof_H 	H 	0.5651	0.0426	0.9293	0.012
Mof_H 	H 	0.5308	0.1592	0.9821	0.043
Mof_H 	H 	0.4076	0.0055	0.9507	0.059
Mof_H 	H 	0.798	0.0882	0.972	0.071
Mof_H 	H 	0.969	0.1512	0.9967	0.083
Mof_H 	H 	0.8082	0.9317	0.8497	-0.168
Mof_H 	H 	0.8454	0.9325	0.7816	0.25
Mof_H 	H 	0.9555	0.8987	0.8397	0.217
Mof_H 	H 	0.9176	0.9045	0.9126	-0.13
Mof_H 	H 	0.9117	0.9554	0.7229	0.014
Mof_H 	H 	0.9028	0.9208	0.6355	0.084
Mof_H 	H 	0.9511	0.8094	0.6949	0.078
Mof_H 	H 	0.9271	0.8307	0.7773	0.026
Mof_H 	H 	0.8538	0.4569	0.6233	-0.01
Mof_H 	H 	0.8221	0.4154	0.6975	0.093
Mof_H 	H 	0.7285	0.2735	0.6215	0.085
Mof_H 	H 	0.7526	0.3176	0.5472	0.015
Mof_H 	H 	0.787	0.3892	0.7462	0.04
Mof_H 	H 	0.772	0.3546	0.8223	0.063
Mof_H 	H 	0.7141	0.2039	0.7679	0.063
Mof_H 	H 	0.7321	0.2335	0.6905	0.047
Mof_H 	H 	0.7379	0.3202	0.3246	-0.045
Mof_H 	H 	0.7187	0.2839	0.2465	0.118
Mof_H 	H 	0.8352	0.4325	0.1921	0.116
Mof_H 	H 	0.8562	0.4726	0.2689	-0.039
Mof_H 	H 	0.7355	0.2487	0.1824	0.057
Mof_H 	H 	0.7338	0.2117	0.1087	0.03
Mof_H 	H 	0.7703	0.3585	0.0461	0.048
Mof_H 	H 	0.7541	0.3847	0.1198	0.065
Mof_C 	C 	0.8586	0.7149	0.5235	0.378
Mof_C 	C 	0.8163	0.6575	0.5084	-0.077
Mof_C 	C 	0.827	0.6159	0.4915	0.063
Mof_C 	C 	0.7877	0.5647	0.4711	-0.152
Mof_C 	C 	0.8032	0.5288	0.4496	0.475
Mof_C 	C 	0.7318	0.5514	0.4772	-0.008
Mof_C 	C 	0.7187	0.5904	0.4964	0.059
Mof_C 	C 	0.76	0.6436	0.5117	-0.046
Mof_C 	C 	0.9561	0.4739	0.4346	0.398
Mof_C 	C 	0.0092	0.4832	0.448	-0.16
Mof_C 	C 	0.0516	0.5392	0.4422	0.14
Mof_C 	C 	0.107	0.557	0.4552	-0.276
Mof_C 	C 	0.148	0.6185	0.4434	0.924
Mof_C 	C 	0.1218	0.5192	0.4744	0.077
Mof_C 	C 	0.0793	0.4636	0.4817	0.012
Mof_C 	C 	0.0279	0.4456	0.4589	0.023
Mof_C 	C 	0.1915	0.8172	0.4498	0.244
Mof_C 	C 	0.1738	0.8511	0.455	-0.074
Mof_C 	C 	0.1176	0.8353	0.4732	0.01
Mof_C 	C 	0.1084	0.883	0.4946	-0.067
Mof_C 	C 	0.0544	0.8704	0.5024	0.318
Mof_C 	C 	0.1543	0.9388	0.4849	-0.038
Mof_C 	C 	0.203	0.9517	0.4595	0.046
Mof_C 	C 	0.2291	0.9195	0.4549	0.03
Mof_C 	C 	0.9243	0.8438	0.4329	0.658
Mof_C 	C 	0.9202	0.863	0.39	-0.685
Mof_C 	C 	0.9257	0.8389	0.3484	0.62
Mof_C 	C 	0.9225	0.8588	0.3082	-0.651
Mof_C 	C 	0.9066	0.897	0.3004	0.424
Mof_C 	C 	0.9039	0.9243	0.3411	-0.52
Mof_C 	C 	0.9094	0.9018	0.385	0.576
Mof_C 	C 	0.8935	0.9104	0.2511	-0.159
Mof_C 	C 	0.9218	0.9114	0.2164	0.05
Mof_C 	C 	0.9067	0.9125	0.1618	-0.082
Mof_C 	C 	0.864	0.9332	0.1624	0.016
Mof_C 	C 	0.8357	0.9393	0.1995	-0.078
Mof_C 	C 	0.8492	0.9256	0.25	0.016
Mof_C 	C 	0.8472	0.9368	0.1113	0.225
Mof_C 	C 	0.4132	0.8221	0.0331	0.43
Mof_C 	C 	0.3928	0.8102	0.0796	-0.221
Mof_C 	C 	0.4187	0.8268	0.1239	0.123
Mof_C 	C 	0.3957	0.8088	0.169	-0.175
Mof_C 	C 	0.3387	0.7679	0.1652	0.098
Mof_C 	C 	0.3125	0.7525	0.1209	-0.149
Mof_C 	C 	0.3365	0.7681	0.0757	0.092
Mof_C 	C 	0.3162	0.7608	0.2109	-0.011
Mof_C 	C 	0.3506	0.7725	0.2507	-0.04
Mof_C 	C 	0.3298	0.7635	0.2969	-0.042
Mof_C 	C 	0.2725	0.742	0.306	0.012
Mof_C 	C 	0.2428	0.731	0.2635	-0.042
Mof_C 	C 	0.2583	0.7395	0.2157	-0.048
Mof_C 	C 	0.2474	0.7338	0.3506	0.159
Mof_C 	C 	0.424	0.812	0.8455	0.804
Mof_C 	C 	0.399	0.7977	0.8007	-0.401
Mof_C 	C 	0.3423	0.7559	0.798	0.249
Mof_C 	C 	0.3221	0.744	0.7516	-0.248
Mof_C 	C 	0.3573	0.7688	0.7125	0.144
Mof_C 	C 	0.4119	0.8144	0.7183	-0.246
Mof_C 	C 	0.4353	0.8283	0.7636	0.23
Mof_C 	C 	0.3251	0.7493	0.662	0
Mof_C 	C 	0.2707	0.7402	0.6556	-0.081
Mof_C 	C 	0.2475	0.7378	0.611	0.023
Mof_C 	C 	0.277	0.7412	0.5696	-0.116
Mof_C 	C 	0.3342	0.758	0.5721	0.025
Mof_C 	C 	0.3505	0.7538	0.6181	-0.076
Mof_C 	C 	0.2542	0.7427	0.5258	0.344
Mof_C 	C 	0.7149	0.8586	0.0235	0.381
Mof_C 	C 	0.6575	0.8163	0.0084	-0.089
Mof_C 	C 	0.6159	0.827	0.9915	0.08
Mof_C 	C 	0.5647	0.7877	0.9711	-0.151
Mof_C 	C 	0.5288	0.8032	0.9496	0.475
Mof_C 	C 	0.5514	0.7318	0.9772	-0.015
Mof_C 	C 	0.5904	0.7187	0.9964	0.084
Mof_C 	C 	0.6436	0.76	0.0117	-0.066
Mof_C 	C 	0.4739	0.9561	0.9346	0.398
Mof_C 	C 	0.4832	0.0092	0.948	-0.154
Mof_C 	C 	0.5392	0.0516	0.9422	0.136
Mof_C 	C 	0.557	0.107	0.9552	-0.268
Mof_C 	C 	0.6185	0.148	0.9434	0.919
Mof_C 	C 	0.5192	0.1218	0.9744	0.07
Mof_C 	C 	0.4636	0.0793	0.9817	0.026
Mof_C 	C 	0.4456	0.0279	0.9589	0.016
Mof_C 	C 	0.8172	0.1915	0.9498	0.245
Mof_C 	C 	0.8511	0.1738	0.955	-0.072
Mof_C 	C 	0.8353	0.1176	0.9732	0.005
Mof_C 	C 	0.883	0.1084	0.9946	-0.046
Mof_C 	C 	0.8704	0.0544	0.0024	0.298
Mof_C 	C 	0.9388	0.1543	0.9849	-0.046
Mof_C 	C 	0.9517	0.203	0.9595	0.05
Mof_C 	C 	0.9195	0.2291	0.9549	0.031
Mof_C 	C 	0.8438	0.9243	0.9329	0.65
Mof_C 	C 	0.863	0.9202	0.89	-0.671
Mof_C 	C 	0.8389	0.9257	0.8484	0.607
Mof_C 	C 	0.8588	0.9225	0.8082	-0.639
Mof_C 	C 	0.897	0.9066	0.8004	0.416
Mof_C 	C 	0.9243	0.9039	0.8411	-0.51
Mof_C 	C 	0.9018	0.9094	0.885	0.564
Mof_C 	C 	0.9104	0.8935	0.7511	-0.155
Mof_C 	C 	0.9114	0.9218	0.7164	0.048
Mof_C 	C 	0.9125	0.9067	0.6618	-0.081
Mof_C 	C 	0.9332	0.864	0.6624	0.016
Mof_C 	C 	0.9393	0.8357	0.6995	-0.078
Mof_C 	C 	0.9256	0.8492	0.75	0.015
Mof_C 	C 	0.9368	0.8472	0.6113	0.224
Mof_C 	C 	0.8221	0.4132	0.5331	0.441
Mof_C 	C 	0.8102	0.3928	0.5796	-0.225
Mof_C 	C 	0.8268	0.4187	0.6239	0.127
Mof_C 	C 	0.8088	0.3957	0.669	-0.177
Mof_C 	C 	0.7679	0.3387	0.6652	0.099
Mof_C 	C 	0.7525	0.3125	0.6209	-0.15
Mof_C 	C 	0.7681	0.3365	0.5757	0.095
Mof_C 	C 	0.7608	0.3162	0.7109	-0.012
Mof_C 	C 	0.7725	0.3506	0.7507	-0.039
Mof_C 	C 	0.7635	0.3298	0.7969	-0.043
Mof_C 	C 	0.742	0.2725	0.806	0.013
Mof_C 	C 	0.731	0.2428	0.7635	-0.042
Mof_C 	C 	0.7395	0.2583	0.7157	-0.048
Mof_C 	C 	0.7338	0.2474	0.8506	0.159
Mof_C 	C 	0.812	0.424	0.3455	0.803
Mof_C 	C 	0.7977	0.399	0.3007	-0.401
Mof_C 	C 	0.7559	0.3423	0.298	0.249
Mof_C 	C 	0.744	0.3221	0.2516	-0.248
Mof_C 	C 	0.7688	0.3573	0.2125	0.144
Mof_C 	C 	0.8144	0.4119	0.2183	-0.246
Mof_C 	C 	0.8283	0.4353	0.2636	0.23
Mof_C 	C 	0.7493	0.3251	0.162	-0.001
Mof_C 	C 	0.7402	0.2707	0.1556	-0.08
Mof_C 	C 	0.7378	0.2475	0.111	0.02
Mof_C 	C 	0.7412	0.277	0.0696	-0.113
Mof_C 	C 	0.758	0.3342	0.0721	0.022
Mof_C 	C 	0.7538	0.3505	0.1181	-0.075
Mof_C 	C 	0.7427	0.2542	0.0258	0.331
Mof_N 	N 	0.2421	0.0178	0.4604	-0.09
Mof_N 	N 	0.6544	0.57	0.5039	-0.088
Mof_N 	N 	0.09	0.4183	0.5033	-0.087
Mof_N 	N 	0.0178	0.2421	0.9604	-0.086
Mof_N 	N 	0.57	0.6544	0.0039	-0.1
Mof_N 	N 	0.4183	0.09	0.0033	-0.097
Mof_O 	O 	0.1456	0.7569	0.4415	-0.446
Mof_O 	O 	0.2393	0.8237	0.4335	-0.463
Mof_O 	O 	0.9416	0.8119	0.4503	-0.652
Mof_O 	O 	0.8041	0.9477	0.1101	-0.439
Mof_O 	O 	0.9238	0.8676	0.4764	-0.546
Mof_O 	O 	0.9095	0.4266	0.4329	-0.578
Mof_O 	O 	0.9055	0.7222	0.5243	-0.563
Mof_O 	O 	0.8504	0.5416	0.4494	-0.61
Mof_O 	O 	0.4585	0.8555	0.0059	-0.551
Mof_O 	O 	0.8664	0.9267	0.0742	-0.57
Mof_O 	O 	0.8466	0.7523	0.5287	-0.525
Mof_O 	O 	0.0326	0.899	0.5096	-0.438
Mof_O 	O 	0.0207	0.8157	0.5222	-0.543
Mof_O 	O 	0.3933	0.8027	0.989	-0.456
Mof_O 	O 	0.1925	0.6317	0.449	-0.671
Mof_O 	O 	0.1343	0.6476	0.4443	-0.876
Mof_O 	O 	0.7706	0.4743	0.4506	-0.498
Mof_O 	O 	0.9425	0.5132	0.4419	-0.558
Mof_O 	O 	0.4027	0.8036	0.8818	-1.017
Mof_O 	O 	0.4747	0.8525	0.8577	-0.852
Mof_O 	O 	0.2794	0.7458	0.4838	-0.462
Mof_O 	O 	0.2009	0.7167	0.5085	-0.483
Mof_O 	O 	0.2799	0.7523	0.3899	-0.615
Mof_O 	O 	0.1965	0.7302	0.3556	-0.577
Mof_O 	O 	0.7569	0.1456	0.9415	-0.444
Mof_O 	O 	0.8237	0.2393	0.9335	-0.462
Mof_O 	O 	0.8119	0.9416	0.9503	-0.64
Mof_O 	O 	0.9477	0.8041	0.6101	-0.44
Mof_O 	O 	0.8676	0.9238	0.9764	-0.535
Mof_O 	O 	0.4266	0.9095	0.9329	-0.576
Mof_O 	O 	0.7222	0.9055	0.0243	-0.566
Mof_O 	O 	0.5416	0.8504	0.9494	-0.607
Mof_O 	O 	0.8555	0.4585	0.5059	-0.543
Mof_O 	O 	0.9267	0.8664	0.5742	-0.57
Mof_O 	O 	0.7523	0.8466	0.0287	-0.528
Mof_O 	O 	0.899	0.0326	0.0096	-0.436
Mof_O 	O 	0.8157	0.0207	0.0222	-0.541
Mof_O 	O 	0.8027	0.3933	0.489	-0.468
Mof_O 	O 	0.6317	0.1925	0.949	-0.667
Mof_O 	O 	0.6476	0.1343	0.9443	-0.871
Mof_O 	O 	0.4743	0.7706	0.9506	-0.496
Mof_O 	O 	0.5132	0.9425	0.9419	-0.555
Mof_O 	O 	0.8036	0.4027	0.3818	-1.015
Mof_O 	O 	0.8525	0.4747	0.3577	-0.851
Mof_O 	O 	0.7458	0.2794	0.9838	-0.452
Mof_O 	O 	0.7167	0.2009	0.0085	-0.49
Mof_O 	O 	0.7523	0.2799	0.8899	-0.616
Mof_O 	O 	0.7302	0.1965	0.8556	-0.578
Mof_In	In	0.5176	0.7898	0.4281	2.883
Mof_In	In	0.6098	0.1516	0.426	3.265
Mof_In	In	0.87393	0.0578	0.5265	2.781
Mof_In	In	0.4824	0.2722	0.9281	2.892
Mof_In	In	0.3902	0.5418	0.926	3.275
Mof_In	In	0.12607	0.18387	0.0265	2.756
Mof_H 	H 	0.759	0.136	0.494	0.043
Mof_H 	H 	0.8131	0.2973	0.4683	0.058
Mof_H 	H 	0.919	0.2497	0.5238	0.081
Mof_H 	H 	0.5225	0.9574	0.4293	0.009
Mof_H 	H 	0.3716	0.8408	0.4821	0.038
Mof_H 	H 	0.4021	0.9945	0.4507	0.055
Mof_H 	H 	0.7098	0.9118	0.472	0.066
Mof_H 	H 	0.8178	0.8488	0.4967	0.077
Mof_H 	H 	0.8765	0.0683	0.3497	-0.172
Mof_H 	H 	0.9129	0.0675	0.2816	0.253
Mof_H 	H 	0.0568	0.1013	0.3397	0.22
Mof_H 	H 	0.0131	0.0955	0.4126	-0.135
Mof_H 	H 	0.9563	0.0446	0.2229	0.013
Mof_H 	H 	0.982	0.0792	0.1355	0.084
Mof_H 	H 	0.1417	0.1906	0.1949	0.078
Mof_H 	H 	0.0964	0.1693	0.2773	0.026
Mof_H 	H 	0.3969	0.5431	0.1233	-0.01
Mof_H 	H 	0.4067	0.5846	0.1975	0.092
Mof_H 	H 	0.455	0.7265	0.1215	0.084
Mof_H 	H 	0.435	0.6824	0.0472	0.012
Mof_H 	H 	0.3978	0.6108	0.2462	0.041
Mof_H 	H 	0.4174	0.6454	0.3223	0.063
Mof_H 	H 	0.5102	0.7961	0.2679	0.062
Mof_H 	H 	0.4986	0.7665	0.1905	0.047
Mof_H 	H 	0.4177	0.6798	0.8246	-0.045
Mof_H 	H 	0.4348	0.7161	0.7465	0.118
Mof_H 	H 	0.4027	0.5675	0.6921	0.117
Mof_H 	H 	0.3836	0.5274	0.7689	-0.038
Mof_H 	H 	0.4868	0.7513	0.6824	0.058
Mof_H 	H 	0.5221	0.7883	0.6087	0.029
Mof_H 	H 	0.4118	0.6415	0.5461	0.051
Mof_H 	H 	0.3694	0.6153	0.6198	0.065
Mof_H 	H 	0.241	0.377	0.994	0.042
Mof_H 	H 	0.1869	0.4842	0.9683	0.062
Mof_H 	H 	0.081	0.3307	0.0238	0.085
Mof_H 	H 	0.4775	0.4349	0.9293	0.012
Mof_H 	H 	0.6284	0.4692	0.9821	0.043
Mof_H 	H 	0.5979	0.5924	0.9507	0.06
Mof_H 	H 	0.2902	0.202	0.972	0.072
Mof_H 	H 	0.1822	0.031	0.9967	0.084
Mof_H 	H 	0.1235	0.1918	0.8497	-0.173
Mof_H 	H 	0.0871	0.1546	0.7816	0.255
Mof_H 	H 	0.9432	0.0445	0.8397	0.222
Mof_H 	H 	0.9869	0.0824	0.9126	-0.136
Mof_H 	H 	0.0437	0.0883	0.7229	0.012
Mof_H 	H 	0.018	0.0972	0.6355	0.086
Mof_H 	H 	0.8583	0.0489	0.6949	0.079
Mof_H 	H 	0.9036	0.0729	0.7773	0.025
Mof_H 	H 	0.6031	0.1462	0.6233	-0.01
Mof_H 	H 	0.5933	0.1779	0.6975	0.093
Mof_H 	H 	0.545	0.2715	0.6215	0.085
Mof_H 	H 	0.565	0.2474	0.5472	0.015
Mof_H 	H 	0.6022	0.213	0.7462	0.04
Mof_H 	H 	0.5826	0.228	0.8223	0.063
Mof_H 	H 	0.4898	0.2859	0.7679	0.063
Mof_H 	H 	0.5014	0.2679	0.6905	0.047
Mof_H 	H 	0.5823	0.2621	0.3246	-0.045
Mof_H 	H 	0.5652	0.2813	0.2465	0.118
Mof_H 	H 	0.5973	0.1648	0.1921	0.116
Mof_H 	H 	0.6164	0.1438	0.2689	-0.039
Mof_H 	H 	0.5132	0.2645	0.1824	0.057
Mof_H 	H 	0.4779	0.2662	0.1087	0.03
Mof_H 	H 	0.5882	0.2297	0.0461	0.048
Mof_H 	H 	0.6306	0.2459	0.1198	0.065
Mof_C 	C 	0.8563	0.1414	0.5235	0.378
Mof_C 	C 	0.8412	0.1837	0.5084	-0.077
Mof_C 	C 	0.7889	0.173	0.4915	0.063
Mof_C 	C 	0.777	0.2123	0.4711	-0.152
Mof_C 	C 	0.7256	0.1968	0.4496	0.475
Mof_C 	C 	0.8196	0.2682	0.4772	-0.008
Mof_C 	C 	0.8717	0.2813	0.4964	0.059
Mof_C 	C 	0.8836	0.24	0.5117	-0.046
Mof_C 	C 	0.5178	0.0439	0.4346	0.398
Mof_C 	C 	0.474	0.9908	0.448	-0.159
Mof_C 	C 	0.4876	0.9484	0.4422	0.14
Mof_C 	C 	0.45	0.893	0.4552	-0.276
Mof_C 	C 	0.4705	0.852	0.4434	0.924
Mof_C 	C 	0.3974	0.8782	0.4744	0.077
Mof_C 	C 	0.3843	0.9207	0.4817	0.012
Mof_C 	C 	0.4177	0.9721	0.4589	0.023
Mof_C 	C 	0.6257	0.8085	0.4498	0.244
Mof_C 	C 	0.6773	0.8262	0.455	-0.074
Mof_C 	C 	0.7177	0.8824	0.4732	0.01
Mof_C 	C 	0.7746	0.8916	0.4946	-0.067
Mof_C 	C 	0.816	0.9456	0.5024	0.318
Mof_C 	C 	0.7845	0.8457	0.4849	-0.038
Mof_C 	C 	0.7487	0.797	0.4595	0.046
Mof_C 	C 	0.6904	0.7709	0.4549	0.03
Mof_C 	C 	0.9195	0.0757	0.4329	0.658
Mof_C 	C 	0.9428	0.0798	0.39	-0.683
Mof_C 	C 	0.9132	0.0743	0.3484	0.618
Mof_C 	C 	0.9363	0.0775	0.3082	-0.649
Mof_C 	C 	0.9904	0.0934	0.3004	0.423
Mof_C 	C 	0.0204	0.0961	0.3411	-0.518
Mof_C 	C 	0.9924	0.0906	0.385	0.573
Mof_C 	C 	0.0169	0.1065	0.2511	-0.158
Mof_C 	C 	0.9896	0.0782	0.2164	0.05
Mof_C 	C 	0.0058	0.0933	0.1618	-0.082
Mof_C 	C 	0.0692	0.136	0.1624	0.016
Mof_C 	C 	0.1036	0.1643	0.1995	-0.078
Mof_C 	C 	0.0764	0.1508	0.25	0.016
Mof_C 	C 	0.0896	0.1528	0.1113	0.225
Mof_C 	C 	0.4089	0.5868	0.0331	0.43
Mof_C 	C 	0.4174	0.6072	0.0796	-0.221
Mof_C 	C 	0.4081	0.5813	0.1239	0.123
Mof_C 	C 	0.4131	0.6043	0.169	-0.175
Mof_C 	C 	0.4292	0.6613	0.1652	0.098
Mof_C 	C 	0.44	0.6875	0.1209	-0.149
Mof_C 	C 	0.4316	0.6635	0.0757	0.092
Mof_C 	C 	0.4446	0.6838	0.2109	-0.011
Mof_C 	C 	0.4219	0.6494	0.2507	-0.04
Mof_C 	C 	0.4337	0.6702	0.2969	-0.042
Mof_C 	C 	0.4695	0.7275	0.306	0.012
Mof_C 	C 	0.4882	0.7572	0.2635	-0.042
Mof_C 	C 	0.4812	0.7417	0.2157	-0.048
Mof_C 	C 	0.4864	0.7526	0.3506	0.159
Mof_C 	C 	0.388	0.576	0.8455	0.804
Mof_C 	C 	0.3987	0.601	0.8007	-0.401
Mof_C 	C 	0.4136	0.6577	0.798	0.249
Mof_C 	C 	0.4219	0.6779	0.7516	-0.248
Mof_C 	C 	0.4115	0.6427	0.7125	0.144
Mof_C 	C 	0.4025	0.5881	0.7183	-0.246
Mof_C 	C 	0.393	0.5647	0.7636	0.23
Mof_C 	C 	0.4242	0.6749	0.662	0
Mof_C 	C 	0.4695	0.7293	0.6556	-0.081
Mof_C 	C 	0.4903	0.7525	0.611	0.023
Mof_C 	C 	0.4642	0.723	0.5696	-0.116
Mof_C 	C 	0.4238	0.6658	0.5721	0.025
Mof_C 	C 	0.4033	0.6495	0.6181	-0.076
Mof_C 	C 	0.4885	0.7458	0.5258	0.344
Mof_C 	C 	0.1437	0.2851	0.0235	0.381
Mof_C 	C 	0.1588	0.3425	0.0084	-0.089
Mof_C 	C 	0.2111	0.3841	0.9915	0.079
Mof_C 	C 	0.223	0.4353	0.9711	-0.151
Mof_C 	C 	0.2744	0.4712	0.9496	0.475
Mof_C 	C 	0.1804	0.4486	0.9772	-0.015
Mof_C 	C 	0.1283	0.4096	0.9964	0.084
Mof_C 	C 	0.1164	0.3564	0.0117	-0.066
Mof_C 	C 	0.4822	0.5261	0.9346	0.396
Mof_C 	C 	0.526	0.5168	0.948	-0.152
Mof_C 	C 	0.5124	0.4608	0.9422	0.135
Mof_C 	C 	0.55	0.443	0.9552	-0.267
Mof_C 	C 	0.5295	0.3815	0.9434	0.919
Mof_C 	C 	0.6026	0.4808	0.9744	0.069
Mof_C 	C 	0.6157	0.5364	0.9817	0.027
Mof_C 	C 	0.5823	0.5544	0.9589	0.015
Mof_C 	C 	0.3743	0.1828	0.9498	0.245
Mof_C 	C 	0.3227	0.1489	0.955	-0.071
Mof_C 	C 	0.2823	0.1647	0.9732	0.005
Mof_C 	C 	0.2254	0.117	0.9946	-0.045
Mof_C 	C 	0.184	0.1296	0.0024	0.296
Mof_C 	C 	0.2155	0.0612	0.9849	-0.047
Mof_C 	C 	0.2513	0.0483	0.9595	0.05
Mof_C 	C 	0.3096	0.0805	0.9549	0.031
Mof_C 	C 	0.0805	0.1562	0.9329	0.657
Mof_C 	C 	0.0572	0.137	0.89	-0.685
Mof_C 	C 	0.0868	0.1611	0.8484	0.623
Mof_C 	C 	0.0637	0.1412	0.8082	-0.655
Mof_C 	C 	0.0096	0.103	0.8004	0.429
Mof_C 	C 	0.9796	0.0757	0.8411	-0.524
Mof_C 	C 	0.0076	0.0982	0.885	0.58
Mof_C 	C 	0.9831	0.0896	0.7511	-0.163
Mof_C 	C 	0.0104	0.0886	0.7164	0.055
Mof_C 	C 	0.9942	0.0875	0.6618	-0.085
Mof_C 	C 	0.9308	0.0668	0.6624	0.018
Mof_C 	C 	0.8964	0.0607	0.6995	-0.08
Mof_C 	C 	0.9236	0.0744	0.75	0.019
Mof_C 	C 	0.9104	0.0632	0.6113	0.224
Mof_C 	C 	0.5911	0.1779	0.5331	0.441
Mof_C 	C 	0.5826	0.1898	0.5796	-0.225
Mof_C 	C 	0.5919	0.1732	0.6239	0.127
Mof_C 	C 	0.5869	0.1912	0.669	-0.177
Mof_C 	C 	0.5708	0.2321	0.6652	0.099
Mof_C 	C 	0.56	0.2475	0.6209	-0.15
Mof_C 	C 	0.5684	0.2319	0.5757	0.095
Mof_C 	C 	0.5554	0.2392	0.7109	-0.012
Mof_C 	C 	0.5781	0.2275	0.7507	-0.039
Mof_C 	C 	0.5663	0.2365	0.7969	-0.043
Mof_C 	C 	0.5305	0.258	0.806	0.013
Mof_C 	C 	0.5118	0.269	0.7635	-0.042
Mof_C 	C 	0.5188	0.2605	0.7157	-0.048
Mof_C 	C 	0.5136	0.2662	0.8506	0.159
Mof_C 	C 	0.612	0.188	0.3455	0.803
Mof_C 	C 	0.6013	0.2023	0.3007	-0.401
Mof_C 	C 	0.5864	0.2441	0.298	0.249
Mof_C 	C 	0.5781	0.256	0.2516	-0.248
Mof_C 	C 	0.5885	0.2312	0.2125	0.144
Mof_C 	C 	0.5975	0.1856	0.2183	-0.246
Mof_C 	C 	0.607	0.1717	0.2636	0.23
Mof_C 	C 	0.5758	0.2507	0.162	-0.001
Mof_C 	C 	0.5305	0.2598	0.1556	-0.08
Mof_C 	C 	0.5097	0.2622	0.111	0.02
Mof_C 	C 	0.5358	0.2588	0.0696	-0.113
Mof_C 	C 	0.5762	0.242	0.0721	0.022
Mof_C 	C 	0.5967	0.2462	0.1181	-0.075
Mof_C 	C 	0.5115	0.2573	0.0258	0.331
Mof_N 	N 	0.7757	0.7579	0.4604	-0.09
Mof_N 	N 	0.9156	0.3456	0.5039	-0.088
Mof_N 	N 	0.3283	0.91	0.5033	-0.087
Mof_N 	N 	0.2243	0.9822	0.9604	-0.086
Mof_N 	N 	0.0844	0.43	0.0039	-0.1
Mof_N 	N 	0.6717	0.5817	0.0033	-0.098
Mof_O 	O 	0.6113	0.8544	0.4415	-0.446
Mof_O 	O 	0.5844	0.7607	0.4335	-0.463
Mof_O 	O 	0.8703	0.0584	0.4503	-0.652
Mof_O 	O 	0.1436	0.1959	0.1101	-0.439
Mof_O 	O 	0.9438	0.0762	0.4764	-0.546
Mof_O 	O 	0.5171	0.0905	0.4329	-0.578
Mof_O 	O 	0.8167	0.0945	0.5243	-0.563
Mof_O 	O 	0.6912	0.1496	0.4494	-0.61
Mof_O 	O 	0.397	0.5415	0.0059	-0.551
Mof_O 	O 	0.0603	0.1336	0.0742	-0.571
Mof_O 	O 	0.9057	0.1534	0.5287	-0.525
Mof_O 	O 	0.8664	0.9674	0.5096	-0.437
Mof_O 	O 	0.795	0.9793	0.5222	-0.543
Mof_O 	O 	0.4094	0.6067	0.989	-0.456
Mof_O 	O 	0.4392	0.8075	0.449	-0.671
Mof_O 	O 	0.5133	0.8657	0.4443	-0.876
Mof_O 	O 	0.7037	0.2294	0.4506	-0.498
Mof_O 	O 	0.5707	0.0575	0.4419	-0.558
Mof_O 	O 	0.4009	0.5973	0.8818	-1.017
Mof_O 	O 	0.3778	0.5253	0.8577	-0.852
Mof_O 	O 	0.4664	0.7206	0.4838	-0.462
Mof_O 	O 	0.5158	0.7991	0.5085	-0.483
Mof_O 	O 	0.4724	0.7201	0.3899	-0.615
Mof_O 	O 	0.5337	0.8035	0.3556	-0.577
Mof_O 	O 	0.3887	0.2431	0.9415	-0.444
Mof_O 	O 	0.4156	0.1763	0.9335	-0.462
Mof_O 	O 	0.1297	0.1881	0.9503	-0.642
Mof_O 	O 	0.8564	0.0523	0.6101	-0.44
Mof_O 	O 	0.0562	0.1324	0.9764	-0.536
Mof_O 	O 	0.4829	0.5734	0.9329	-0.576
Mof_O 	O 	0.1833	0.2778	0.0243	-0.566
Mof_O 	O 	0.3088	0.4584	0.9494	-0.607
Mof_O 	O 	0.603	0.1445	0.5059	-0.543
Mof_O 	O 	0.9397	0.0733	0.5742	-0.57
Mof_O 	O 	0.0943	0.2477	0.0287	-0.528
Mof_O 	O 	0.1336	0.101	0.0096	-0.436
Mof_O 	O 	0.205	0.1843	0.0222	-0.541
Mof_O 	O 	0.5906	0.1973	0.489	-0.468
Mof_O 	O 	0.5608	0.3683	0.949	-0.666
Mof_O 	O 	0.4867	0.3524	0.9443	-0.871
Mof_O 	O 	0.2963	0.5257	0.9506	-0.496
Mof_O 	O 	0.4293	0.4868	0.9419	-0.555
Mof_O 	O 	0.5991	0.1964	0.3818	-1.015
Mof_O 	O 	0.6222	0.1475	0.3577	-0.851
Mof_O 	O 	0.5336	0.2542	0.9838	-0.451
Mof_O 	O 	0.4842	0.2833	0.0085	-0.49
Mof_O 	O 	0.5276	0.2477	0.8899	-0.616
Mof_O 	O 	0.4663	0.2698	0.8556	-0.578
Mof_In	In	0.2722	0.4824	0.4281	2.883
Mof_In	In	0.5418	0.3902	0.426	3.265
Mof_In	In	0.18387	0.12607	0.5265	2.781
Mof_In	In	0.7898	0.5176	0.9281	2.892
Mof_In	In	0.1516	0.6098	0.926	3.275
Mof_In	In	0.0578	0.87393	0.0265	2.755
Mof_H 	H 	0.377	0.241	0.494	0.043
Mof_H 	H 	0.4842	0.1869	0.4683	0.058
Mof_H 	H 	0.3307	0.081	0.5238	0.081
Mof_H 	H 	0.4349	0.4775	0.4293	0.009
Mof_H 	H 	0.4692	0.6284	0.4821	0.037
Mof_H 	H 	0.5924	0.5979	0.4507	0.055
Mof_H 	H 	0.202	0.2902	0.472	0.066
Mof_H 	H 	0.031	0.1822	0.4967	0.077
Mof_H 	H 	0.1918	0.1235	0.3497	-0.172
Mof_H 	H 	0.1546	0.0871	0.2816	0.253
Mof_H 	H 	0.0445	0.9432	0.3397	0.22
Mof_H 	H 	0.0824	0.9869	0.4126	-0.135
Mof_H 	H 	0.0883	0.0437	0.2229	0.013
Mof_H 	H 	0.0972	0.018	0.1355	0.084
Mof_H 	H 	0.0489	0.8583	0.1949	0.078
Mof_H 	H 	0.0729	0.9036	0.2773	0.026
Mof_H 	H 	0.1462	0.6031	0.1233	-0.01
Mof_H 	H 	0.1779	0.5933	0.1975	0.092
Mof_H 	H 	0.2715	0.545	0.1215	0.084
Mof_H 	H 	0.2474	0.565	0.0472	0.012
Mof_H 	H 	0.213	0.6022	0.2462	0.041
Mof_H 	H 	0.228	0.5826	0.3223	0.063
Mof_H 	H 	0.2859	0.4898	0.2679	0.062
Mof_H 	H 	0.2679	0.5014	0.1905	0.047
Mof_H 	H 	0.2621	0.5823	0.8246	-0.045
Mof_H 	H 	0.2813	0.5652	0.7465	0.118
Mof_H 	H 	0.1648	0.5973	0.6921	0.117
Mof_H 	H 	0.1438	0.6164	0.7689	-0.038
Mof_H 	H 	0.2645	0.5132	0.6824	0.058
Mof_H 	H 	0.2662	0.4779	0.6087	0.029
Mof_H 	H 	0.2297	0.5882	0.5461	0.051
Mof_H 	H 	0.2459	0.6306	0.6198	0.065
Mof_H 	H 	0.136	0.759	0.994	0.042
Mof_H 	H 	0.2973	0.8131	0.9683	0.062
Mof_H 	H 	0.2497	0.919	0.0238	0.085
Mof_H 	H 	0.9574	0.5225	0.9293	0.012
Mof_H 	H 	0.8408	0.3716	0.9821	0.043
Mof_H 	H 	0.9945	0.4021	0.9507	0.059
Mof_H 	H 	0.9118	0.7098	0.972	0.072
Mof_H 	H 	0.8488	0.8178	0.9967	0.084
Mof_H 	H 	0.0683	0.8765	0.8497	-0.172
Mof_H 	H 	0.0675	0.9129	0.7816	0.254
Mof_H 	H 	0.1013	0.0568	0.8397	0.221
Mof_H 	H 	0.0955	0.0131	0.9126	-0.135
Mof_H 	H 	0.0446	0.9563	0.7229	0.013
Mof_H 	H 	0.0792	0.982	0.6355	0.085
Mof_H 	H 	0.1906	0.1417	0.6949	0.079
Mof_H 	H 	0.1693	0.0964	0.7773	0.025
Mof_H 	H 	0.5431	0.3969	0.6233	-0.01
Mof_H 	H 	0.5846	0.4067	0.6975	0.093
Mof_H 	H 	0.7265	0.455	0.6215	0.085
Mof_H 	H 	0.6824	0.435	0.5472	0.015
Mof_H 	H 	0.6108	0.3978	0.7462	0.04
Mof_H 	H 	0.6454	0.4174	0.8223	0.063
Mof_H 	H 	0.7961	0.5102	0.7679	0.063
Mof_H 	H 	0.7665	0.4986	0.6905	0.047
Mof_H 	H 	0.6798	0.4177	0.3246	-0.045
Mof_H 	H 	0.7161	0.4348	0.2465	0.118
Mof_H 	H 	0.5675	0.4027	0.1921	0.116
Mof_H 	H 	0.5274	0.3836	0.2689	-0.039
Mof_H 	H 	0.7513	0.4868	0.1824	0.057
Mof_H 	H 	0.7883	0.5221	0.1087	0.03
Mof_H 	H 	0.6415	0.4118	0.0461	0.048
Mof_H 	H 	0.6153	0.3694	0.1198	0.065
Mof_C 	C 	0.2851	0.1437	0.5235	0.378
Mof_C 	C 	0.3425	0.1588	0.5084	-0.077
Mof_C 	C 	0.3841	0.2111	0.4915	0.063
Mof_C 	C 	0.4353	0.223	0.4711	-0.152
Mof_C 	C 	0.4712	0.2744	0.4496	0.475
Mof_C 	C 	0.4486	0.1804	0.4772	-0.008
Mof_C 	C 	0.4096	0.1283	0.4964	0.059
Mof_C 	C 	0.3564	0.1164	0.5117	-0.046
Mof_C 	C 	0.5261	0.4822	0.4346	0.398
Mof_C 	C 	0.5168	0.526	0.448	-0.16
Mof_C 	C 	0.4608	0.5124	0.4422	0.14
Mof_C 	C 	0.443	0.55	0.4552	-0.276
Mof_C 	C 	0.3815	0.5295	0.4434	0.924
Mof_C 	C 	0.4808	0.6026	0.4744	0.077
Mof_C 	C 	0.5364	0.6157	0.4817	0.012
Mof_C 	C 	0.5544	0.5823	0.4589	0.023
Mof_C 	C 	0.1828	0.3743	0.4498	0.244
Mof_C 	C 	0.1489	0.3227	0.455	-0.074
Mof_C 	C 	0.1647	0.2823	0.4732	0.01
Mof_C 	C 	0.117	0.2254	0.4946	-0.067
Mof_C 	C 	0.1296	0.184	0.5024	0.318
Mof_C 	C 	0.0612	0.2155	0.4849	-0.038
Mof_C 	C 	0.0483	0.2513	0.4595	0.046
Mof_C 	C 	0.0805	0.3096	0.4549	0.03
Mof_C 	C 	0.1562	0.0805	0.4329	0.658
Mof_C 	C 	0.137	0.0572	0.39	-0.683
Mof_C 	C 	0.1611	0.0868	0.3484	0.618
Mof_C 	C 	0.1412	0.0637	0.3082	-0.649
Mof_C 	C 	0.103	0.0096	0.3004	0.423
Mof_C 	C 	0.0757	0.9796	0.3411	-0.518
Mof_C 	C 	0.0982	0.0076	0.385	0.574
Mof_C 	C 	0.0896	0.9831	0.2511	-0.158
Mof_C 	C 	0.0886	0.0104	0.2164	0.05
Mof_C 	C 	0.0875	0.9942	0.1618	-0.082
Mof_C 	C 	0.0668	0.9308	0.1624	0.016
Mof_C 	C 	0.0607	0.8964	0.1995	-0.078
Mof_C 	C 	0.0744	0.9236	0.25	0.016
Mof_C 	C 	0.0632	0.9104	0.1113	0.225
Mof_C 	C 	0.1779	0.5911	0.0331	0.43
Mof_C 	C 	0.1898	0.5826	0.0796	-0.221
Mof_C 	C 	0.1732	0.5919	0.1239	0.123
Mof_C 	C 	0.1912	0.5869	0.169	-0.175
Mof_C 	C 	0.2321	0.5708	0.1652	0.098
Mof_C 	C 	0.2475	0.56	0.1209	-0.149
Mof_C 	C 	0.2319	0.5684	0.0757	0.092
Mof_C 	C 	0.2392	0.5554	0.2109	-0.011
Mof_C 	C 	0.2275	0.5781	0.2507	-0.04
Mof_C 	C 	0.2365	0.5663	0.2969	-0.042
Mof_C 	C 	0.258	0.5305	0.306	0.012
Mof_C 	C 	0.269	0.5118	0.2635	-0.042
Mof_C 	C 	0.2605	0.5188	0.2157	-0.048
Mof_C 	C 	0.2662	0.5136	0.3506	0.159
Mof_C 	C 	0.188	0.612	0.8455	0.804
Mof_C 	C 	0.2023	0.6013	0.8007	-0.401
Mof_C 	C 	0.2441	0.5864	0.798	0.249
Mof_C 	C 	0.256	0.5781	0.7516	-0.248
Mof_C 	C 	0.2312	0.5885	0.7125	0.144
Mof_C 	C 	0.1856	0.5975	0.7183	-0.246
Mof_C 	C 	0.1717	0.607	0.7636	0.23
Mof_C 	C 	0.2507	0.5758	0.662	0
Mof_C 	C 	0.2598	0.5305	0.6556	-0.081
Mof_C 	C 	0.2622	0.5097	0.611	0.023
Mof_C 	C 	0.2588	0.5358	0.5696	-0.116
Mof_C 	C 	0.242	0.5762	0.5721	0.025
Mof_C 	C 	0.2462	0.5967	0.6181	-0.076
Mof_C 	C 	0.2573	0.5115	0.5258	0.344
Mof_C 	C 	0.1414	0.8563	0.0235	0.382
Mof_C 	C 	0.1837	0.8412	0.0084	-0.089
Mof_C 	C 	0.173	0.7889	0.9915	0.08
Mof_C 	C 	0.2123	0.777	0.9711	-0.151
Mof_C 	C 	0.1968	0.7256	0.9496	0.475
Mof_C 	C 	0.2682	0.8196	0.9772	-0.015
Mof_C 	C 	0.2813	0.8717	0.9964	0.084
Mof_C 	C 	0.24	0.8836	0.0117	-0.066
Mof_C 	C 	0.0439	0.5178	0.9346	0.397
Mof_C 	C 	0.9908	0.474	0.948	-0.153
Mof_C 	C 	0.9484	0.4876	0.9422	0.135
Mof_C 	C 	0.893	0.45	0.9552	-0.268
Mof_C 	C 	0.852	0.4705	0.9434	0.919
Mof_C 	C 	0.8782	0.3974	0.9744	0.07
Mof_C 	C 	0.9207	0.3843	0.9817	0.026
Mof_C 	C 	0.9721	0.4177	0.9589	0.016
Mof_C 	C 	0.8085	0.6257	0.9498	0.245
Mof_C 	C 	0.8262	0.6773	0.955	-0.071
Mof_C 	C 	0.8824	0.7177	0.9732	0.005
Mof_C 	C 	0.8916	0.7746	0.9946	-0.045
Mof_C 	C 	0.9456	0.816	0.0024	0.296
Mof_C 	C 	0.8457	0.7845	0.9849	-0.047
Mof_C 	C 	0.797	0.7487	0.9595	0.051
Mof_C 	C 	0.7709	0.6904	0.9549	0.031
Mof_C 	C 	0.0757	0.9195	0.9329	0.655
Mof_C 	C 	0.0798	0.9428	0.89	-0.681
Mof_C 	C 	0.0743	0.9132	0.8484	0.619
Mof_C 	C 	0.0775	0.9363	0.8082	-0.651
Mof_C 	C 	0.0934	0.9904	0.8004	0.426
Mof_C 	C 	0.0961	0.0204	0.8411	-0.521
Mof_C 	C 	0.0906	0.9924	0.885	0.576
Mof_C 	C 	0.1065	0.0169	0.7511	-0.161
Mof_C 	C 	0.0782	0.9896	0.7164	0.053
Mof_C 	C 	0.0933	0.0058	0.6618	-0.084
Mof_C 	C 	0.136	0.0692	0.6624	0.017
Mof_C 	C 	0.1643	0.1036	0.6995	-0.079
Mof_C 	C 	0.1508	0.0764	0.75	0.018
Mof_C 	C 	0.1528	0.0896	0.6113	0.224
Mof_C 	C 	0.5868	0.4089	0.5331	0.441
Mof_C 	C 	0.6072	0.4174	0.5796	-0.225
Mof_C 	C 	0.5813	0.4081	0.6239	0.127
Mof_C 	C 	0.6043	0.4131	0.669	-0.177
Mof_C 	C 	0.6613	0.4292	0.6652	0.099
Mof_C 	C 	0.6875	0.44	0.6209	-0.15
Mof_C 	C 	0.6635	0.4316	0.5757	0.095
Mof_C 	C 	0.6838	0.4446	0.7109	-0.012
Mof_C 	C 	0.6494	0.4219	0.7507	-0.039
Mof_C 	C 	0.6702	0.4337	0.7969	-0.043
Mof_C 	C 	0.7275	0.4695	0.806	0.013
Mof_C 	C 	0.7572	0.4882	0.7635	-0.042
Mof_C 	C 	0.7417	0.4812	0.7157	-0.048
Mof_C 	C 	0.7526	0.4864	0.8506	0.159
Mof_C 	C 	0.576	0.388	0.3455	0.803
Mof_C 	C 	0.601	0.3987	0.3007	-0.401
Mof_C 	C 	0.6577	0.4136	0.298	0.249
Mof_C 	C 	0.6779	0.4219	0.2516	-0.248
Mof_C 	C 	0.6427	0.4115	0.2125	0.144
Mof_C 	C 	0.5881	0.4025	0.2183	-0.246
Mof_C 	C 	0.5647	0.393	0.2636	0.23
Mof_C 	C 	0.6749	0.4242	0.162	-0.001
Mof_C 	C 	0.7293	0.4695	0.1556	-0.08
Mof_C 	C 	0.7525	0.4903	0.111	0.02
Mof_C 	C 	0.723	0.4642	0.0696	-0.113
Mof_C 	C 	0.6658	0.4238	0.0721	0.022
Mof_C 	C 	0.6495	0.4033	0.1181	-0.075
Mof_C 	C 	0.7458	0.4885	0.0258	0.331
Mof_N 	N 	0.9822	0.2243	0.4604	-0.09
Mof_N 	N 	0.43	0.0844	0.5039	-0.088
Mof_N 	N 	0.5817	0.6717	0.5033	-0.087
Mof_N 	N 	0.7579	0.7757	0.9604	-0.086
Mof_N 	N 	0.3456	0.9156	0.0039	-0.1
Mof_N 	N 	0.91	0.3283	0.0033	-0.097
Mof_O 	O 	0.2431	0.3887	0.4415	-0.446
Mof_O 	O 	0.1763	0.4156	0.4335	-0.463
Mof_O 	O 	0.1881	0.1297	0.4503	-0.652
Mof_O 	O 	0.0523	0.8564	0.1101	-0.439
Mof_O 	O 	0.1324	0.0562	0.4764	-0.546
Mof_O 	O 	0.5734	0.4829	0.4329	-0.578
Mof_O 	O 	0.2778	0.1833	0.5243	-0.563
Mof_O 	O 	0.4584	0.3088	0.4494	-0.61
Mof_O 	O 	0.1445	0.603	0.0059	-0.551
Mof_O 	O 	0.0733	0.9397	0.0742	-0.571
Mof_O 	O 	0.2477	0.0943	0.5287	-0.525
Mof_O 	O 	0.101	0.1336	0.5096	-0.438
Mof_O 	O 	0.1843	0.205	0.5222	-0.543
Mof_O 	O 	0.1973	0.5906	0.989	-0.456
Mof_O 	O 	0.3683	0.5608	0.449	-0.671
Mof_O 	O 	0.3524	0.4867	0.4443	-0.876
Mof_O 	O 	0.5257	0.2963	0.4506	-0.498
Mof_O 	O 	0.4868	0.4293	0.4419	-0.558
Mof_O 	O 	0.1964	0.5991	0.8818	-1.017
Mof_O 	O 	0.1475	0.6222	0.8577	-0.852
Mof_O 	O 	0.2542	0.5336	0.4838	-0.462
Mof_O 	O 	0.2833	0.4842	0.5085	-0.483
Mof_O 	O 	0.2477	0.5276	0.3899	-0.615
Mof_O 	O 	0.2698	0.4663	0.3556	-0.577
Mof_O 	O 	0.8544	0.6113	0.9415	-0.444
Mof_O 	O 	0.7607	0.5844	0.9335	-0.462
Mof_O 	O 	0.0584	0.8703	0.9503	-0.641
Mof_O 	O 	0.1959	0.1436	0.6101	-0.44
Mof_O 	O 	0.0762	0.9438	0.9764	-0.535
Mof_O 	O 	0.0905	0.5171	0.9329	-0.576
Mof_O 	O 	0.0945	0.8167	0.0243	-0.566
Mof_O 	O 	0.1496	0.6912	0.9494	-0.607
Mof_O 	O 	0.5415	0.397	0.5059	-0.543
Mof_O 	O 	0.1336	0.0603	0.5742	-0.57
Mof_O 	O 	0.1534	0.9057	0.0287	-0.528
Mof_O 	O 	0.9674	0.8664	0.0096	-0.436
Mof_O 	O 	0.9793	0.795	0.0222	-0.541
Mof_O 	O 	0.6067	0.4094	0.489	-0.468
Mof_O 	O 	0.8075	0.4392	0.949	-0.667
Mof_O 	O 	0.8657	0.5133	0.9443	-0.871
Mof_O 	O 	0.2294	0.7037	0.9506	-0.496
Mof_O 	O 	0.0575	0.5707	0.9419	-0.555
Mof_O 	O 	0.5973	0.4009	0.3818	-1.015
Mof_O 	O 	0.5253	0.3778	0.3577	-0.851
Mof_O 	O 	0.7206	0.4664	0.9838	-0.451
Mof_O 	O 	0.7991	0.5158	0.0085	-0.49
Mof_O 	O 	0.7201	0.4724	0.8899	-0.616
Mof_O 	O 	0.8035	0.5337	0.8556	-0.578
Mof_H 	H 	0.6377	0.0787	0.0348	0.2
Mof_H 	H 	0.6251	0.0889	0.0872	0.178
Mof_H 	H 	0.575	0.0543	0.0518	0.183
Mof_H 	H 	0.6133	0.9441	0.0402	0.185
Mof_H 	H 	0.5511	0.9313	0.0481	0.189
Mof_H 	H 	0.5847	0.9243	0.0903	0.175
Mof_C 	C 	0.6122	0.0625	0.0612	-0.453
Mof_C 	C 	0.5877	0.9461	0.0625	-0.447
Mof_N 	N 	0.6102	0.0079	0.0768	-0.008
Mof_H 	H 	0.441	0.3623	0.0348	0.2
Mof_H 	H 	0.4638	0.3749	0.0872	0.177
Mof_H 	H 	0.4793	0.425	0.0518	0.183
Mof_H 	H 	0.3308	0.3867	0.0402	0.185
Mof_H 	H 	0.3802	0.4489	0.0481	0.189
Mof_H 	H 	0.3396	0.4153	0.0903	0.175
Mof_C 	C 	0.4503	0.3878	0.0612	-0.453
Mof_C 	C 	0.3584	0.4123	0.0625	-0.447
Mof_N 	N 	0.3977	0.3898	0.0768	-0.008
Mof_H 	H 	0.9213	0.559	0.0348	0.2
Mof_H 	H 	0.9111	0.5362	0.0872	0.178
Mof_H 	H 	0.9457	0.5207	0.0518	0.184
Mof_H 	H 	0.0559	0.6692	0.0402	0.185
Mof_H 	H 	0.0687	0.6198	0.0481	0.189
Mof_H 	H 	0.0757	0.6604	0.0903	0.175
Mof_C 	C 	0.9375	0.5497	0.0612	-0.453
Mof_C 	C 	0.0539	0.6416	0.0625	-0.447
Mof_N 	N 	0.9921	0.6023	0.0768	-0.008
Mof_H 	H 	0.559	0.9213	0.5348	0.206
Mof_H 	H 	0.5362	0.9111	0.5872	0.181
Mof_H 	H 	0.5207	0.9457	0.5518	0.189
Mof_H 	H 	0.6692	0.0559	0.5402	0.191
Mof_H 	H 	0.6198	0.0687	0.5481	0.194
Mof_H 	H 	0.6604	0.0757	0.5903	0.178
Mof_C 	C 	0.5497	0.9375	0.5612	-0.461
Mof_C 	C 	0.6416	0.0539	0.5625	-0.454
Mof_N 	N 	0.6023	0.9921	0.5768	-0.005
Mof_H 	H 	0.0787	0.6377	0.5348	0.206
Mof_H 	H 	0.0889	0.6251	0.5872	0.181
Mof_H 	H 	0.0543	0.575	0.5518	0.189
Mof_H 	H 	0.9441	0.6133	0.5402	0.191
Mof_H 	H 	0.9313	0.5511	0.5481	0.194
Mof_H 	H 	0.9243	0.5847	0.5903	0.178
Mof_C 	C 	0.0625	0.6122	0.5612	-0.461
Mof_C 	C 	0.9461	0.5877	0.5625	-0.453
Mof_N 	N 	0.0079	0.6102	0.5768	-0.005
Mof_H 	H 	0.3623	0.441	0.5348	0.206
Mof_H 	H 	0.3749	0.4638	0.5872	0.181
Mof_H 	H 	0.425	0.4793	0.5518	0.189
Mof_H 	H 	0.3867	0.3308	0.5402	0.191
Mof_H 	H 	0.4489	0.3802	0.5481	0.194
Mof_H 	H 	0.4153	0.3396	0.5903	0.178
Mof_C 	C 	0.3878	0.4503	0.5612	-0.461
Mof_C 	C 	0.4123	0.3584	0.5625	-0.453
Mof_N 	N 	0.3898	0.3977	0.5768	-0.005
_end
