data_functionalizedCrystal
_audit_creation_method	'EQeq! by Chris Wilmer'
_symmetry_space_group_name_H-M	'P1'
_symmetry_Int_Tables_number	1
_symmetry_cell_setting	triclinic
loop_
_symmetry_equiv_pos_as_xyz
  x,y,z
_cell_length_a	11.5976
_cell_length_b	12.213
_cell_length_c	13.5187
_cell_angle_alpha	65.039
_cell_angle_beta	68.351
_cell_angle_gamma	87.858
loop_
_atom_site_label
_atom_site_type_symbol
_atom_site_fract_x
_atom_site_fract_y
_atom_site_fract_z
_atom_site_charge
Mof_O 	O 	0.9715	0.5286	0.312	-0.549
Mof_O 	O 	0.0647	0.3448	0.4443	-0.635
Mof_O 	O 	0.7895	0.4534	0.572	-0.511
Mof_O 	O 	0.0393	0.6847	0.3217	-0.465
Mof_Dy	Dy	0.07124	0.66999	0.67256	1.925
Mof_C 	C 	0.9937	0.3591	0.7335	0.509
Mof_C 	C 	0.2653	0.6278	0.4378	0.456
Mof_O 	O 	0.2362	0.5572	0.7062	-0.45
Mof_O 	O 	0.9789	0.8278	0.5548	-0.399
Mof_O 	O 	0.058	0.6296	0.8692	-0.408
Mof_O 	O 	0.995	0.7999	0.7756	-0.3
Mof_O 	O 	0.2082	0.6943	0.483	-0.499
Mof_O 	O 	0.2338	0.8225	0.601	-0.454
Mof_C 	C 	0.9947	0.2748	0.8522	-0.119
Mof_C 	C 	0.406	0.6383	0.3939	-0.13
Mof_C 	C 	0.9974	0.1503	0.8794	-0.033
Mof_C 	C 	0.9927	0.3166	0.9338	0.063
Mof_C 	C 	0.4747	0.7227	0.403	0.007
Mof_C 	C 	0.4655	0.5533	0.3573	0.064
Mof_C 	C 	0.9983	0.0657	0.987	0.096
Mof_H 	H 	0.9986	0.124	0.8237	0.083
Mof_C 	C 	0.9884	0.2326	0.0437	-0.069
Mof_H 	H 	0.9942	0.3993	0.915	0.032
Mof_C 	C 	0.6013	0.7195	0.3783	-0.005
Mof_H 	H 	0.4353	0.781	0.4257	0.055
Mof_C 	C 	0.5904	0.5498	0.3322	-0.116
Mof_H 	H 	0.4199	0.4983	0.3499	0.036
Mof_C 	C 	0.9942	0.1081	0.0684	-0.057
Mof_C 	C 	0.9791	0.2706	0.1379	0.387
Mof_C 	C 	0.6754	0.8006	0.3974	0.005
Mof_C 	C 	0.659	0.6343	0.3415	0.004
Mof_C 	C 	0.6543	0.4494	0.3069	0.401
Mof_H 	H 	0.9953	0.0535	0.1411	0.093
Mof_C 	C 	0.7626	0.7517	0.4488	0.014
Mof_C 	C 	0.6597	0.9215	0.3707	-0.008
Mof_H 	H 	0.7446	0.6332	0.3227	0.048
Mof_O 	O 	0.5836	0.3712	0.3048	-0.235
Mof_C 	C 	0.8338	0.8222	0.4697	-0.104
Mof_H 	H 	0.7728	0.6702	0.4693	0.036
Mof_H 	H 	0.6019	0.9554	0.3376	0.059
Mof_C 	C 	0.7288	0.9928	0.3925	-0.09
Mof_C 	C 	0.9227	0.767	0.5283	0.423
Mof_C 	C 	0.8173	0.9433	0.4404	0.053
Mof_C 	C 	0.7116	0.1223	0.3654	0.387
Mof_H 	H 	0.8654	0.9919	0.4526	0.063
Mof_O 	O 	0.6416	0.1716	0.3115	-0.241
Mof_O 	O 	0.0285	0.4714	0.688	-0.68
Mof_O 	O 	0.9353	0.6552	0.5557	-0.548
Mof_O 	O 	0.2105	0.5466	0.428	-0.529
Mof_O 	O 	0.9607	0.3153	0.6783	-0.447
Mof_Dy	Dy	0.92876	0.33001	0.32744	2.187
Mof_C 	C 	0.0063	0.6409	0.2665	0.358
Mof_C 	C 	0.7347	0.3722	0.5622	0.46
Mof_O 	O 	0.7638	0.4428	0.2938	-0.46
Mof_O 	O 	0.0211	0.1722	0.4452	-0.499
Mof_O 	O 	0.942	0.3704	0.1308	-0.424
Mof_O 	O 	0.005	0.2001	0.2244	-0.499
Mof_O 	O 	0.7918	0.3057	0.517	-0.501
Mof_O 	O 	0.7662	0.1775	0.399	-0.462
Mof_C 	C 	0.0053	0.7252	0.1478	-0.147
Mof_C 	C 	0.594	0.3617	0.6061	-0.133
Mof_C 	C 	0.0026	0.8497	0.1206	0.03
Mof_C 	C 	0.0073	0.6834	0.0662	0.062
Mof_C 	C 	0.5253	0.2773	0.597	0.007
Mof_C 	C 	0.5345	0.4467	0.6427	0.064
Mof_C 	C 	0.0017	0.9343	0.013	-0.09
Mof_H 	H 	0.0014	0.876	0.1763	0.015
Mof_C 	C 	0.0116	0.7674	0.9563	-0.088
Mof_H 	H 	0.0058	0.6007	0.085	-0.012
Mof_C 	C 	0.3987	0.2805	0.6217	-0.01
Mof_H 	H 	0.5647	0.219	0.5743	0.054
Mof_C 	C 	0.4096	0.4502	0.6678	-0.122
Mof_H 	H 	0.5801	0.5017	0.6501	0.036
Mof_C 	C 	0.0058	0.8919	0.9316	-0.002
Mof_C 	C 	0.0209	0.7294	0.8621	0.226
Mof_C 	C 	0.3246	0.1994	0.6026	-0.016
Mof_C 	C 	0.341	0.3657	0.6585	0.005
Mof_C 	C 	0.3457	0.5506	0.6931	0.388
Mof_H 	H 	0.0047	0.9465	0.8589	0.024
Mof_C 	C 	0.2374	0.2483	0.5512	0.022
Mof_C 	C 	0.3403	0.0785	0.6293	0.005
Mof_H 	H 	0.2554	0.3668	0.6773	0.025
Mof_O 	O 	0.4164	0.6288	0.6952	-0.233
Mof_C 	C 	0.1662	0.1778	0.5303	-0.149
Mof_H 	H 	0.2272	0.3298	0.5307	0.021
Mof_H 	H 	0.3981	0.0446	0.6624	0.05
Mof_C 	C 	0.2712	0.0072	0.6075	-0.124
Mof_C 	C 	0.0773	0.233	0.4717	0.438
Mof_C 	C 	0.1827	0.0567	0.5596	0.073
Mof_C 	C 	0.2884	0.8777	0.6346	0.393
Mof_H 	H 	0.1346	0.0081	0.5474	0.023
Mof_O 	O 	0.3584	0.8284	0.6885	-0.239
Mof_Dy	Dy	3.33583e-18	0.5	0.5	2.026
_end
