data_functionalizedCrystal
_audit_creation_method	'EQeq! by Chris Wilmer'
_symmetry_space_group_name_H-M	'P1'
_symmetry_Int_Tables_number	1
_symmetry_cell_setting	triclinic
loop_
_symmetry_equiv_pos_as_xyz
  x,y,z
_cell_length_a	8.8853
_cell_length_b	12.0782
_cell_length_c	16.5903
_cell_angle_alpha	90
_cell_angle_beta	90
_cell_angle_gamma	109.33
loop_
_atom_site_label
_atom_site_type_symbol
_atom_site_fract_x
_atom_site_fract_y
_atom_site_fract_z
_atom_site_charge
Mof_Eu	Eu	0.56684	0.54759	0.38247	2.378
Mof_Eu	Eu	0.43316	0.4524	0.61753	2.378
Mof_Eu	Eu	0.06684	0.54759	0.11753	2.375
Mof_Eu	Eu	0.93316	0.4524	0.88247	2.375
Mof_H 	H 	0.4035	0.8469	0.3061	0.105
Mof_H 	H 	0.012	0.1656	0.0739	0.05
Mof_H 	H 	0.488	0.8344	0.5739	0.048
Mof_H 	H 	0.3792	0.3615	0.009	0.101
Mof_H 	H 	0.6722	0.6794	0.1677	0.111
Mof_H 	H 	0.7525	0.7049	0.9289	0.086
Mof_H 	H 	0.3224	0.1415	0.5995	0.088
Mof_H 	H 	0.4708	0.7808	0.9331	0.129
Mof_H 	H 	0.5965	0.1531	0.6939	0.105
Mof_H 	H 	0.7033	0.0046	0.5874	0.078
Mof_H 	H 	0.628	0.9652	0.9336	0.05
Mof_H 	H 	0.2525	0.7049	0.5711	0.085
Mof_H 	H 	0.372	0.0348	0.0664	0.05
Mof_H 	H 	0.3278	0.3206	0.8323	0.111
Mof_H 	H 	0.4107	0.2247	0.8224	0.118
Mof_H 	H 	0.8278	0.3206	0.6677	0.111
Mof_H 	H 	0.9044	0.9743	0.7746	0.058
Mof_H 	H 	0.1776	0.8585	0.0995	0.089
Mof_H 	H 	0.872	0.0348	0.4336	0.051
Mof_H 	H 	0.9107	0.2247	0.6776	0.118
Mof_H 	H 	0.6204	0.138	0.0332	0.13
Mof_H 	H 	0.0956	0.0257	0.2254	0.058
Mof_H 	H 	0.128	0.9652	0.5664	0.051
Mof_H 	H 	0.1722	0.6794	0.3323	0.111
Mof_H 	H 	0.7967	0.9954	0.0874	0.077
Mof_H 	H 	0.5292	0.2192	0.0669	0.129
Mof_H 	H 	0.7475	0.2951	0.4289	0.085
Mof_H 	H 	0.3796	0.862	0.9668	0.13
Mof_H 	H 	0.2967	0.9954	0.4126	0.078
Mof_H 	H 	0.1208	0.6385	0.509	0.1
Mof_H 	H 	0.5956	0.0257	0.2746	0.055
Mof_H 	H 	0.9708	0.7808	0.5669	0.129
Mof_H 	H 	0.5893	0.7753	0.1776	0.118
Mof_H 	H 	0.988	0.8344	0.9261	0.05
Mof_H 	H 	0.6208	0.6385	0.991	0.101
Mof_H 	H 	0.8796	0.862	0.5332	0.13
Mof_H 	H 	0.512	0.1656	0.4261	0.048
Mof_H 	H 	0.6776	0.8585	0.4005	0.088
Mof_H 	H 	0.2033	0.0046	0.9126	0.077
Mof_H 	H 	0.0965	0.1531	0.8061	0.103
Mof_H 	H 	0.8792	0.3615	0.491	0.1
Mof_H 	H 	0.2475	0.2951	0.0711	0.086
Mof_H 	H 	0.1204	0.138	0.4668	0.13
Mof_H 	H 	0.9035	0.8469	0.1939	0.103
Mof_H 	H 	0.0292	0.2192	0.4331	0.129
Mof_H 	H 	0.0893	0.7753	0.3224	0.118
Mof_H 	H 	0.4044	0.9743	0.7254	0.055
Mof_H 	H 	0.8224	0.1415	0.9005	0.089
Mof_C 	C 	0.275	0.8351	0.20446	0.208
Mof_C 	C 	0.6247	0.1979	0.07293	-0.295
Mof_C 	C 	0.496	0.9535	0.83318	0.087
Mof_C 	C 	0.1305	0.1025	0.99138	0.134
Mof_C 	C 	0.1213	0.0029	0.94791	-0.098
Mof_C 	C 	0.4008	0.2958	0.79925	-0.24
Mof_C 	C 	0.7305	0.6953	0.55653	0.557
Mof_C 	C 	0.0077	0.0994	0.04411	-0.084
Mof_C 	C 	0.1576	0.3593	0.97584	0.501
Mof_C 	C 	0.0992	0.7042	0.29925	-0.241
Mof_C 	C 	0.2305	0.6953	0.94347	0.558
Mof_C 	C 	0.1212	0.0028	0.61455	-0.051
Mof_C 	C 	0.8424	0.6407	0.02416	0.501
Mof_C 	C 	0.2283	0.6934	0.5141	-0.244
Mof_C 	C 	0.2631	0.8913	0.13408	-0.152
Mof_C 	C 	0.3424	0.6407	0.47584	0.497
Mof_C 	C 	0.1023	0.1155	0.75789	-0.152
Mof_C 	C 	0.4923	0.9006	0.54411	-0.076
Mof_C 	C 	0.6576	0.3593	0.52416	0.497
Mof_C 	C 	0.3753	0.8021	0.92707	-0.295
Mof_C 	C 	0.5611	0.3904	0.79662	0.498
Mof_C 	C 	0.8788	0.9972	0.38545	-0.051
Mof_C 	C 	0.6305	0.1025	0.50862	0.132
Mof_C 	C 	0.2717	0.3066	0.0141	-0.25
Mof_C 	C 	0.004	0.0465	0.33318	0.092
Mof_C 	C 	0.8753	0.8021	0.57293	-0.295
Mof_C 	C 	0.2695	0.3047	0.44347	0.557
Mof_C 	C 	0.5127	0.9914	0.2388	-0.04
Mof_C 	C 	0.3788	0.9972	0.11455	-0.048
Mof_C 	C 	0.6212	0.0028	0.88545	-0.048
Mof_C 	C 	0.6023	0.1155	0.74211	-0.161
Mof_C 	C 	0.4873	0.0086	0.7612	-0.04
Mof_C 	C 	0.725	0.1649	0.79554	0.208
Mof_C 	C 	0.3787	0.9971	0.44791	-0.103
Mof_C 	C 	0.2369	0.1087	0.63408	-0.148
Mof_C 	C 	0.775	0.8351	0.29554	0.204
Mof_C 	C 	0.8695	0.8975	0.00862	0.134
Mof_C 	C 	0.1247	0.1979	0.42707	-0.295
Mof_C 	C 	0.5077	0.0994	0.45589	-0.076
Mof_C 	C 	0.4389	0.6096	0.20338	0.498
Mof_C 	C 	0.7717	0.3066	0.4859	-0.244
Mof_C 	C 	0.3977	0.8845	0.25789	-0.161
Mof_C 	C 	0.7283	0.6934	0.9859	-0.25
Mof_C 	C 	0.9873	0.0086	0.7388	-0.05
Mof_C 	C 	0.9008	0.2958	0.70075	-0.241
Mof_C 	C 	0.7369	0.1087	0.86592	-0.152
Mof_C 	C 	0.0611	0.3904	0.70338	0.5
Mof_C 	C 	0.996	0.9535	0.66682	0.092
Mof_C 	C 	0.8977	0.8845	0.24211	-0.152
Mof_C 	C 	0.225	0.1649	0.70446	0.204
Mof_C 	C 	0.3695	0.8975	0.49138	0.132
Mof_C 	C 	0.5992	0.7042	0.20075	-0.24
Mof_C 	C 	0.8787	0.9971	0.05209	-0.098
Mof_C 	C 	0.6213	0.0029	0.55209	-0.103
Mof_C 	C 	0.7631	0.8913	0.36592	-0.148
Mof_C 	C 	0.9389	0.6096	0.29662	0.5
Mof_C 	C 	0.0127	0.9914	0.2612	-0.05
Mof_C 	C 	0.504	0.0465	0.16682	0.087
Mof_C 	C 	0.7695	0.3047	0.05653	0.558
Mof_C 	C 	0.9923	0.9006	0.95589	-0.084
Mof_O 	O 	0.8401	0.36865	0.11409	-0.566
Mof_O 	O 	0.698	0.68056	0.48339	-0.587
Mof_O 	O 	0.3511	0.60015	0.14335	-0.549
Mof_O 	O 	0.8737	0.84888	0.65102	-0.148
Mof_O 	O 	0.4055	0.54478	0.26466	-0.562
Mof_O 	O 	0.6263	0.15112	0.15102	-0.147
Mof_O 	O 	0.5945	0.45522	0.73534	-0.562
Mof_O 	O 	0.8692	0.55777	0.98804	-0.675
Mof_O 	O 	0.841	0.27386	0.78202	-0.336
Mof_O 	O 	0.6489	0.39985	0.85665	-0.549
Mof_O 	O 	0.1489	0.39985	0.64335	-0.549
Mof_O 	O 	0.1263	0.15112	0.34898	-0.148
Mof_O 	O 	0.3737	0.84888	0.84898	-0.147
Mof_O 	O 	0.302	0.31944	0.51661	-0.587
Mof_O 	O 	0.9055	0.54478	0.23534	-0.562
Mof_O 	O 	0.3401	0.36865	0.38591	-0.567
Mof_O 	O 	0.4009	0.67393	0.40855	-0.503
Mof_O 	O 	0.3692	0.55777	0.51196	-0.673
Mof_O 	O 	0.2663	0.19782	0.97969	-0.171
Mof_O 	O 	0.6599	0.63135	0.61409	-0.567
Mof_O 	O 	0.0945	0.45522	0.76466	-0.562
Mof_O 	O 	0.5991	0.32607	0.59145	-0.503
Mof_O 	O 	0.159	0.72614	0.21798	-0.336
Mof_O 	O 	0.1308	0.44223	0.01196	-0.675
Mof_O 	O 	0.6308	0.44223	0.48804	-0.673
Mof_O 	O 	0.802	0.31944	0.98339	-0.588
Mof_O 	O 	0.341	0.27386	0.71798	-0.335
Mof_O 	O 	0.8511	0.60015	0.35665	-0.549
Mof_O 	O 	0.1599	0.63135	0.88591	-0.566
Mof_O 	O 	0.198	0.68056	0.01661	-0.588
Mof_O 	O 	0.7663	0.19782	0.52031	-0.172
Mof_O 	O 	0.7337	0.80218	0.02031	-0.171
Mof_O 	O 	0.9009	0.67393	0.09145	-0.503
Mof_O 	O 	0.0991	0.32607	0.90855	-0.503
Mof_O 	O 	0.659	0.72614	0.28202	-0.335
Mof_O 	O 	0.2337	0.80218	0.47969	-0.172
_end
