data_functionalizedCrystal
_audit_creation_method	'EQeq! by Chris Wilmer'
_symmetry_space_group_name_H-M	'P1'
_symmetry_Int_Tables_number	1
_symmetry_cell_setting	triclinic
loop_
_symmetry_equiv_pos_as_xyz
  x,y,z
_cell_length_a	10.246
_cell_length_b	16.147
_cell_length_c	19.161
_cell_angle_alpha	90
_cell_angle_beta	99.98
_cell_angle_gamma	90
loop_
_atom_site_label
_atom_site_type_symbol
_atom_site_fract_x
_atom_site_fract_y
_atom_site_fract_z
_atom_site_charge
Mof_Zn	Zn	0.72129	0.13247	0.01071	1.176
Mof_Zn	Zn	0.96487	0.22661	0.12545	1.233
Mof_S 	S 	0.79717	0.37626	0.53212	0.074
Mof_C 	C 	0.2178	0.2328	0.1551	0.263
Mof_C 	C 	0.3572	0.2495	0.1892	-0.012
Mof_C 	C 	0.4584	0.2378	0.1505	-0.037
Mof_H 	H 	0.4396	0.2198	0.1037	0.05
Mof_C 	C 	0.59	0.2535	0.1833	-0.047
Mof_C 	C 	0.6997	0.2394	0.1426	0.356
Mof_C 	C 	0.6195	0.2782	0.2532	-0.112
Mof_H 	H 	0.7071	0.2876	0.2743	0.111
Mof_C 	C 	0.5169	0.2893	0.2924	0.151
Mof_C 	C 	0.3855	0.2754	0.26	-0.128
Mof_H 	H 	0.317	0.2833	0.2855	0.093
Mof_C 	C 	0.6524	0.3354	0.4025	0.25
Mof_C 	C 	0.6517	0.3476	0.4809	-0.073
Mof_C 	C 	0.5576	0.3396	0.52	-0.022
Mof_H 	H 	0.4712	0.3239	0.5014	0.036
Mof_C 	C 	0.6016	0.3572	0.5931	-0.022
Mof_H 	H 	0.5475	0.3551	0.6273	0.034
Mof_C 	C 	0.7303	0.3773	0.6066	-0.074
Mof_C 	C 	0.8209	0.3925	0.6744	0.234
Mof_C 	C 	0.8421	0.3916	0.8033	0.115
Mof_C 	C 	0.8356	0.3301	0.8539	-0.072
Mof_H 	H 	0.7874	0.2821	0.8408	0.061
Mof_C 	C 	0.8994	0.3396	0.9228	-0.09
Mof_C 	C 	0.9772	0.4132	0.9413	0.019
Mof_H 	H 	0.0231	0.4205	0.9872	0.046
Mof_C 	C 	0.9828	0.4714	0.8913	-0.069
Mof_C 	C 	0.9129	0.4644	0.8207	-0.08
Mof_H 	H 	0.9144	0.5064	0.7877	0.091
Mof_C 	C 	0.0593	0.5494	0.9102	0.355
Mof_C 	C 	0.8868	0.2781	0.9779	0.409
Mof_N 	N 	0.5381	0.3128	0.363	-0.257
Mof_H 	H 	0.4699	0.3127	0.3836	0.137
Mof_N 	N 	0.7668	0.3808	0.734	-0.24
Mof_H 	H 	0.6849	0.3665	0.7296	0.129
Mof_O 	O 	0.6699	0.2127	0.07963	-0.522
Mof_O 	O 	0.8168	0.2564	0.17408	-0.446
Mof_O 	O 	0.1267	0.2601	0.18981	-0.402
Mof_O 	O 	0.1919	0.1977	0.09698	-0.321
Mof_O 	O 	0.9414	0.2945	0.04086	-0.488
Mof_O 	O 	0.822	0.2148	0.95865	-0.499
Mof_O 	O 	0.1285	0.5537	0.97187	-0.495
Mof_O 	O 	0.0519	0.6059	0.86417	-0.485
Mof_O 	O 	0.7556	0.344	0.3827	-0.239
Mof_O 	O 	0.934	0.4141	0.6754	-0.228
Mof_Zn	Zn	0.27871	0.63247	0.98929	1.176
Mof_Zn	Zn	0.03513	0.72661	0.87455	1.233
Mof_S 	S 	0.20283	0.87626	0.46788	0.08
Mof_C 	C 	0.7822	0.7328	0.8449	0.262
Mof_C 	C 	0.6428	0.7495	0.8108	-0.008
Mof_C 	C 	0.5416	0.7378	0.8495	-0.038
Mof_H 	H 	0.5604	0.7198	0.8963	0.053
Mof_C 	C 	0.41	0.7535	0.8167	-0.044
Mof_C 	C 	0.3003	0.7394	0.8574	0.356
Mof_C 	C 	0.3805	0.7782	0.7468	-0.113
Mof_H 	H 	0.2929	0.7876	0.7257	0.113
Mof_C 	C 	0.4831	0.7893	0.7076	0.155
Mof_C 	C 	0.6145	0.7754	0.74	-0.129
Mof_H 	H 	0.683	0.7833	0.7145	0.096
Mof_C 	C 	0.3476	0.8354	0.5975	0.253
Mof_C 	C 	0.3483	0.8476	0.5191	-0.072
Mof_C 	C 	0.4424	0.8396	0.48	-0.019
Mof_H 	H 	0.5288	0.8239	0.4986	0.039
Mof_C 	C 	0.3984	0.8572	0.4069	-0.02
Mof_H 	H 	0.4525	0.8551	0.3727	0.037
Mof_C 	C 	0.2697	0.8773	0.3934	-0.073
Mof_C 	C 	0.1791	0.8925	0.3256	0.237
Mof_C 	C 	0.1579	0.8916	0.1967	0.105
Mof_C 	C 	0.1644	0.8301	0.1461	-0.066
Mof_H 	H 	0.2126	0.7821	0.1592	0.062
Mof_C 	C 	0.1006	0.8396	0.0772	-0.087
Mof_C 	C 	0.0228	0.9132	0.0587	0.011
Mof_H 	H 	0.9769	0.9205	0.0128	0.057
Mof_C 	C 	0.0172	0.9714	0.1087	-0.06
Mof_C 	C 	0.0871	0.9644	0.1793	-0.042
Mof_H 	H 	0.0856	0.0064	0.2123	0.062
Mof_C 	C 	0.9407	0.0494	0.0898	0.342
Mof_C 	C 	0.1132	0.7781	0.0221	0.411
Mof_N 	N 	0.4619	0.8128	0.637	-0.258
Mof_H 	H 	0.5301	0.8127	0.6164	0.139
Mof_N 	N 	0.2332	0.8808	0.266	-0.237
Mof_H 	H 	0.3151	0.8665	0.2704	0.131
Mof_O 	O 	0.3301	0.7127	0.92037	-0.52
Mof_O 	O 	0.1832	0.7564	0.82592	-0.444
Mof_O 	O 	0.8733	0.7601	0.81019	-0.398
Mof_O 	O 	0.8081	0.6977	0.90302	-0.316
Mof_O 	O 	0.0586	0.7945	0.95914	-0.489
Mof_O 	O 	0.178	0.7148	0.04135	-0.496
Mof_O 	O 	0.8715	0.0537	0.02813	-0.499
Mof_O 	O 	0.9481	0.1059	0.13583	-0.485
Mof_O 	O 	0.2444	0.844	0.6173	-0.237
Mof_O 	O 	0.066	0.9141	0.3246	-0.223
_end
