data_functionalizedCrystal
_audit_creation_method	'EQeq! by Chris Wilmer'
_symmetry_space_group_name_H-M	'P1'
_symmetry_Int_Tables_number	1
_symmetry_cell_setting	triclinic
loop_
_symmetry_equiv_pos_as_xyz
  x,y,z
_cell_length_a	29.5862
_cell_length_b	29.5862
_cell_length_c	3.4563
_cell_angle_alpha	90
_cell_angle_beta	90
_cell_angle_gamma	90
loop_
_atom_site_label
_atom_site_type_symbol
_atom_site_fract_x
_atom_site_fract_y
_atom_site_fract_z
_atom_site_charge
Mof_N 	N 	0.11699	0.72652	0.3262	-0.283
Mof_C 	C 	0.1571	0.7149	0.453	0.558
Mof_N 	N 	0.1692	0.6692	0.485	0.622
Mof_H 	H 	0.1503	0.6485	0.4203	-0.148
Mof_H 	H 	0.1956	0.6619	0.5682	-0.13
Mof_H 	H 	0.1662	0.6851	0.4817	-0.725
Mof_N 	N 	0.61699	0.22652	0.8262	-0.288
Mof_C 	C 	0.6571	0.2149	0.953	0.557
Mof_N 	N 	0.6692	0.1692	0.985	0.647
Mof_H 	H 	0.6503	0.1485	0.9203	-0.157
Mof_H 	H 	0.6956	0.1619	0.0682	-0.129
Mof_H 	H 	0.6662	0.1851	0.9817	-0.755
Mof_N 	N 	0.38301	0.27348	0.8262	-0.289
Mof_C 	C 	0.3429	0.2851	0.953	0.556
Mof_N 	N 	0.3308	0.3308	0.985	0.647
Mof_H 	H 	0.3497	0.3515	0.9203	-0.156
Mof_H 	H 	0.3044	0.3381	0.0682	-0.129
Mof_H 	H 	0.3338	0.3149	0.9817	-0.755
Mof_N 	N 	0.88301	0.77348	0.3262	-0.283
Mof_C 	C 	0.8429	0.7851	0.453	0.558
Mof_N 	N 	0.8308	0.8308	0.485	0.622
Mof_H 	H 	0.8497	0.8515	0.4203	-0.149
Mof_H 	H 	0.8044	0.8381	0.5682	-0.13
Mof_H 	H 	0.8338	0.8149	0.4817	-0.727
Mof_N 	N 	0.52348	0.86699	0.5762	-0.288
Mof_C 	C 	0.5351	0.9071	0.703	0.57
Mof_N 	N 	0.5808	0.9192	0.735	0.63
Mof_H 	H 	0.6015	0.9003	0.6703	-0.143
Mof_H 	H 	0.5881	0.9456	0.8182	-0.121
Mof_H 	H 	0.5649	0.9162	0.7317	-0.735
Mof_N 	N 	0.02348	0.36699	0.0762	-0.274
Mof_C 	C 	0.0351	0.4071	0.203	0.559
Mof_N 	N 	0.0808	0.4192	0.235	0.624
Mof_H 	H 	0.1015	0.4003	0.1703	-0.144
Mof_H 	H 	0.0881	0.4456	0.3182	-0.133
Mof_H 	H 	0.0649	0.4162	0.2317	-0.729
Mof_N 	N 	0.97652	0.13301	0.0762	-0.278
Mof_C 	C 	0.9649	0.0929	0.203	0.554
Mof_N 	N 	0.9192	0.0808	0.235	0.63
Mof_H 	H 	0.8985	0.0997	0.1703	-0.146
Mof_H 	H 	0.9119	0.0544	0.3182	-0.137
Mof_H 	H 	0.9351	0.0838	0.2317	-0.731
Mof_N 	N 	0.47652	0.63301	0.5762	-0.288
Mof_C 	C 	0.4649	0.5929	0.703	0.567
Mof_N 	N 	0.4192	0.5808	0.735	0.628
Mof_H 	H 	0.3985	0.5997	0.6703	-0.143
Mof_H 	H 	0.4119	0.5544	0.8182	-0.125
Mof_H 	H 	0.4351	0.5838	0.7317	-0.733
Mof_N 	N 	0.38301	0.72652	0.1738	-0.291
Mof_C 	C 	0.3429	0.7149	0.047	0.559
Mof_N 	N 	0.3308	0.6692	0.015	0.684
Mof_H 	H 	0.3497	0.6485	0.0797	-0.175
Mof_H 	H 	0.3044	0.6619	0.9318	-0.122
Mof_H 	H 	0.3338	0.6851	0.0183	-0.798
Mof_N 	N 	0.88301	0.22652	0.6738	-0.284
Mof_C 	C 	0.8429	0.2149	0.547	0.557
Mof_N 	N 	0.8308	0.1692	0.515	0.621
Mof_H 	H 	0.8497	0.1485	0.5797	-0.148
Mof_H 	H 	0.8044	0.1619	0.4318	-0.131
Mof_H 	H 	0.8338	0.1851	0.5183	-0.726
Mof_N 	N 	0.11699	0.27348	0.6738	-0.285
Mof_C 	C 	0.1571	0.2851	0.547	0.557
Mof_N 	N 	0.1692	0.3308	0.515	0.621
Mof_H 	H 	0.1503	0.3515	0.5797	-0.148
Mof_H 	H 	0.1956	0.3381	0.4318	-0.131
Mof_H 	H 	0.1662	0.3149	0.5183	-0.726
Mof_N 	N 	0.61699	0.77348	0.1738	-0.291
Mof_C 	C 	0.6571	0.7851	0.047	0.56
Mof_N 	N 	0.6692	0.8308	0.015	0.684
Mof_H 	H 	0.6503	0.8515	0.0797	-0.174
Mof_H 	H 	0.6956	0.8381	0.9318	-0.121
Mof_H 	H 	0.6662	0.8149	0.0183	-0.798
Mof_N 	N 	0.97652	0.86699	0.9238	-0.273
Mof_C 	C 	0.9649	0.9071	0.797	0.561
Mof_N 	N 	0.9192	0.9192	0.765	0.635
Mof_H 	H 	0.8985	0.9003	0.8297	-0.142
Mof_H 	H 	0.9119	0.9456	0.6818	-0.132
Mof_H 	H 	0.9351	0.9162	0.7683	-0.737
Mof_N 	N 	0.47652	0.36699	0.4238	-0.286
Mof_C 	C 	0.4649	0.4071	0.297	0.559
Mof_N 	N 	0.4192	0.4192	0.265	0.621
Mof_H 	H 	0.3985	0.4003	0.3297	-0.145
Mof_H 	H 	0.4119	0.4456	0.1818	-0.132
Mof_H 	H 	0.4351	0.4162	0.2683	-0.726
Mof_N 	N 	0.52348	0.13301	0.4238	-0.286
Mof_C 	C 	0.5351	0.0929	0.297	0.558
Mof_N 	N 	0.5808	0.0808	0.265	0.621
Mof_H 	H 	0.6015	0.0997	0.3297	-0.146
Mof_H 	H 	0.5881	0.0544	0.1818	-0.133
Mof_H 	H 	0.5649	0.0838	0.2683	-0.725
Mof_N 	N 	0.02348	0.63301	0.9238	-0.269
Mof_C 	C 	0.0351	0.5929	0.797	0.562
Mof_N 	N 	0.0808	0.5808	0.765	0.627
Mof_H 	H 	0.1015	0.5997	0.8297	-0.141
Mof_H 	H 	0.0881	0.5544	0.6818	-0.133
Mof_H 	H 	0.0649	0.5838	0.7683	-0.731
Mof_N 	N 	0.88301	0.27348	0.6738	-0.284
Mof_C 	C 	0.8429	0.2851	0.547	0.558
Mof_N 	N 	0.8308	0.3308	0.515	0.622
Mof_H 	H 	0.8497	0.3515	0.5797	-0.148
Mof_H 	H 	0.8044	0.3381	0.4318	-0.131
Mof_H 	H 	0.8338	0.3149	0.5183	-0.726
Mof_N 	N 	0.38301	0.77348	0.1738	-0.291
Mof_C 	C 	0.3429	0.7851	0.047	0.56
Mof_N 	N 	0.3308	0.8308	0.015	0.684
Mof_H 	H 	0.3497	0.8515	0.0797	-0.174
Mof_H 	H 	0.3044	0.8381	0.9318	-0.121
Mof_H 	H 	0.3338	0.8149	0.0183	-0.798
Mof_N 	N 	0.61699	0.72652	0.1738	-0.291
Mof_C 	C 	0.6571	0.7149	0.047	0.559
Mof_N 	N 	0.6692	0.6692	0.015	0.684
Mof_H 	H 	0.6503	0.6485	0.0797	-0.175
Mof_H 	H 	0.6956	0.6619	0.9318	-0.122
Mof_H 	H 	0.6662	0.6851	0.0183	-0.798
Mof_N 	N 	0.11699	0.22652	0.6738	-0.285
Mof_C 	C 	0.1571	0.2149	0.547	0.557
Mof_N 	N 	0.1692	0.1692	0.515	0.621
Mof_H 	H 	0.1503	0.1485	0.5797	-0.148
Mof_H 	H 	0.1956	0.1619	0.4318	-0.131
Mof_H 	H 	0.1662	0.1851	0.5183	-0.725
Mof_N 	N 	0.47652	0.13301	0.4238	-0.286
Mof_C 	C 	0.4649	0.0929	0.297	0.558
Mof_N 	N 	0.4192	0.0808	0.265	0.621
Mof_H 	H 	0.3985	0.0997	0.3297	-0.146
Mof_H 	H 	0.4119	0.0544	0.1818	-0.133
Mof_H 	H 	0.4351	0.0838	0.2683	-0.725
Mof_N 	N 	0.97652	0.63301	0.9238	-0.273
Mof_C 	C 	0.9649	0.5929	0.797	0.557
Mof_N 	N 	0.9192	0.5808	0.765	0.632
Mof_H 	H 	0.8985	0.5997	0.8297	-0.142
Mof_H 	H 	0.9119	0.5544	0.6818	-0.136
Mof_H 	H 	0.9351	0.5838	0.7683	-0.735
Mof_N 	N 	0.02348	0.86699	0.9238	-0.269
Mof_C 	C 	0.0351	0.9071	0.797	0.565
Mof_N 	N 	0.0808	0.9192	0.765	0.629
Mof_H 	H 	0.1015	0.9003	0.8297	-0.141
Mof_H 	H 	0.0881	0.9456	0.6818	-0.13
Mof_H 	H 	0.0649	0.9162	0.7683	-0.734
Mof_N 	N 	0.52348	0.36699	0.4238	-0.286
Mof_C 	C 	0.5351	0.4071	0.297	0.559
Mof_N 	N 	0.5808	0.4192	0.265	0.621
Mof_H 	H 	0.6015	0.4003	0.3297	-0.145
Mof_H 	H 	0.5881	0.4456	0.1818	-0.132
Mof_H 	H 	0.5649	0.4162	0.2683	-0.726
Mof_N 	N 	0.61699	0.27348	0.8262	-0.289
Mof_C 	C 	0.6571	0.2851	0.953	0.556
Mof_N 	N 	0.6692	0.3308	0.985	0.647
Mof_H 	H 	0.6503	0.3515	0.9203	-0.156
Mof_H 	H 	0.6956	0.3381	0.0682	-0.129
Mof_H 	H 	0.6662	0.3149	0.9817	-0.755
Mof_N 	N 	0.11699	0.77348	0.3262	-0.284
Mof_C 	C 	0.1571	0.7851	0.453	0.557
Mof_N 	N 	0.1692	0.8308	0.485	0.622
Mof_H 	H 	0.1503	0.8515	0.4203	-0.149
Mof_H 	H 	0.1956	0.8381	0.5682	-0.13
Mof_H 	H 	0.1662	0.8149	0.4817	-0.726
Mof_N 	N 	0.88301	0.72652	0.3262	-0.283
Mof_C 	C 	0.8429	0.7149	0.453	0.557
Mof_N 	N 	0.8308	0.6692	0.485	0.622
Mof_H 	H 	0.8497	0.6485	0.4203	-0.149
Mof_H 	H 	0.8044	0.6619	0.5682	-0.131
Mof_H 	H 	0.8338	0.6851	0.4817	-0.726
Mof_N 	N 	0.38301	0.22652	0.8262	-0.289
Mof_C 	C 	0.3429	0.2149	0.953	0.556
Mof_N 	N 	0.3308	0.1692	0.985	0.647
Mof_H 	H 	0.3497	0.1485	0.9203	-0.157
Mof_H 	H 	0.3044	0.1619	0.0682	-0.129
Mof_H 	H 	0.3338	0.1851	0.9817	-0.755
Mof_N 	N 	0.02348	0.13301	0.0762	-0.273
Mof_C 	C 	0.0351	0.0929	0.203	0.559
Mof_N 	N 	0.0808	0.0808	0.235	0.624
Mof_H 	H 	0.1015	0.0997	0.1703	-0.144
Mof_H 	H 	0.0881	0.0544	0.3182	-0.135
Mof_H 	H 	0.0649	0.0838	0.2317	-0.728
Mof_N 	N 	0.52348	0.63301	0.5762	-0.288
Mof_C 	C 	0.5351	0.5929	0.703	0.567
Mof_N 	N 	0.5808	0.5808	0.735	0.628
Mof_H 	H 	0.6015	0.5997	0.6703	-0.143
Mof_H 	H 	0.5881	0.5544	0.8182	-0.125
Mof_H 	H 	0.5649	0.5838	0.7317	-0.733
Mof_N 	N 	0.47652	0.86699	0.5762	-0.288
Mof_C 	C 	0.4649	0.9071	0.703	0.57
Mof_N 	N 	0.4192	0.9192	0.735	0.63
Mof_H 	H 	0.3985	0.9003	0.6703	-0.143
Mof_H 	H 	0.4119	0.9456	0.8182	-0.121
Mof_H 	H 	0.4351	0.9162	0.7317	-0.735
Mof_N 	N 	0.97652	0.36699	0.0762	-0.278
Mof_C 	C 	0.9649	0.4071	0.203	0.555
Mof_N 	N 	0.9192	0.4192	0.235	0.63
Mof_H 	H 	0.8985	0.4003	0.1703	-0.145
Mof_H 	H 	0.9119	0.4456	0.3182	-0.136
Mof_H 	H 	0.9351	0.4162	0.2317	-0.732
Mof_Ag	Ag	0.06044	0.68956	0.125	0.338
Mof_Ag	Ag	0.43956	0.31044	0.625	0.366
Mof_Ag	Ag	0.56044	0.81044	0.375	0.365
Mof_Ag	Ag	0.93956	0.18956	0.875	0.341
Mof_Ag	Ag	0.43956	0.68956	0.375	0.365
Mof_Ag	Ag	0.06044	0.31044	0.875	0.348
Mof_Ag	Ag	0.93956	0.81044	0.125	0.332
Mof_Ag	Ag	0.56044	0.18956	0.625	0.366
Mof_Ag	Ag	0.93956	0.31044	0.875	0.341
Mof_Ag	Ag	0.56044	0.68956	0.375	0.365
Mof_Ag	Ag	0.43956	0.18956	0.625	0.366
Mof_Ag	Ag	0.06044	0.81044	0.125	0.338
Mof_Ag	Ag	0.56044	0.31044	0.625	0.366
Mof_Ag	Ag	0.93956	0.68956	0.125	0.331
Mof_Ag	Ag	0.06044	0.18956	0.875	0.348
Mof_Ag	Ag	0.43956	0.81044	0.375	0.365
Mof_Ag	Ag	0.25	0.75	0.75	0.565
Mof_Ag	Ag	0.25	0.25	0.25	0.556
Mof_Ag	Ag	0.5	0	-0	0.497
Mof_Ag	Ag	-1.86693e-33	0.5	0.5	0.544
Mof_Ag	Ag	2.19005e-34	-5.21484e-34	0.5	0.528
Mof_Ag	Ag	0.5	0.5	-0	0.512
Mof_Ag	Ag	0.75	0.25	0.25	0.556
Mof_Ag	Ag	0.75	0.75	0.75	0.565
Mof_N 	N 	0.1836	0.75	0.537	-0.412
Mof_N 	N 	0.3164	0.25	0.037	-0.399
Mof_N 	N 	0.5	0.9336	0.787	-0.399
Mof_N 	N 	3.86451e-34	0.4336	0.287	-0.409
Mof_N 	N 	3.86451e-34	0.0664	0.287	-0.407
Mof_N 	N 	0.5	0.5664	0.787	-0.403
Mof_N 	N 	0.3164	0.75	0.963	-0.384
Mof_N 	N 	0.1836	0.25	0.463	-0.411
Mof_N 	N 	8.65604e-33	0.9336	0.713	-0.405
Mof_N 	N 	0.5	0.4336	0.213	-0.407
Mof_N 	N 	0.5	0.0664	0.213	-0.405
Mof_N 	N 	-3.85957e-33	0.5664	0.713	-0.409
Mof_N 	N 	0.8164	0.25	0.463	-0.411
Mof_N 	N 	0.6836	0.75	0.963	-0.384
Mof_N 	N 	0.6836	0.25	0.037	-0.399
Mof_N 	N 	0.8164	0.75	0.537	-0.412
_end
