data_functionalizedCrystal
_audit_creation_method	'EQeq! by Chris Wilmer'
_symmetry_space_group_name_H-M	'P1'
_symmetry_Int_Tables_number	1
_symmetry_cell_setting	triclinic
loop_
_symmetry_equiv_pos_as_xyz
  x,y,z
_cell_length_a	28.159
_cell_length_b	28.159
_cell_length_c	11.9365
_cell_angle_alpha	90
_cell_angle_beta	90
_cell_angle_gamma	120
loop_
_atom_site_label
_atom_site_type_symbol
_atom_site_fract_x
_atom_site_fract_y
_atom_site_fract_z
_atom_site_charge
Mof_Ag	Ag	0.58905	0.06801	0.19037	0.566
Mof_C 	C 	0.6445	0.0369	0.9909	0.004
Mof_H 	H 	0.6099	0.0042	0.9898	0.005
Mof_C 	C 	0.7654	0.2004	0.289	-0.052
Mof_H 	H 	0.7943	0.2279	0.2454	0.029
Mof_N 	N 	0.6509	0.0806	0.0488	-0.186
Mof_N 	N 	0.7377	0.0836	0.9328	-0.153
Mof_C 	C 	0.717	0.1669	0.2395	0.112
Mof_C 	C 	0.6834	0.1203	0.3982	0.026
Mof_H 	H 	0.6546	0.091	0.4388	0.007
Mof_C 	C 	0.6888	0.0395	0.9321	-0.001
Mof_H 	H 	0.6834	0.0084	0.8905	0.02
Mof_C 	C 	0.7004	0.126	0.0487	0.112
Mof_N 	N 	0.6758	0.1267	0.2943	-0.176
Mof_C 	C 	0.7425	0.1259	0.9895	-0.051
Mof_H 	H 	0.7772	0.1586	0.9896	0.027
Mof_C 	C 	0.7322	0.1545	0.4529	-0.022
Mof_H 	H 	0.7365	0.1492	0.53	0.008
Mof_N 	N 	0.7739	0.1961	0.3946	-0.162
Mof_C 	C 	0.7072	0.1732	0.1157	-0.259
Mof_H 	H 	0.6739	0.1764	0.1083	0.077
Mof_H 	H 	0.7386	0.2073	0.0862	0.088
Mof_Ag	Ag	0.25572	0.40134	0.5237	0.566
Mof_C 	C 	0.31117	0.37023	0.32423	0.004
Mof_H 	H 	0.27657	0.33753	0.32313	0.005
Mof_C 	C 	0.43207	0.53373	0.62233	-0.052
Mof_H 	H 	0.46097	0.56123	0.57873	0.029
Mof_N 	N 	0.31757	0.41393	0.38213	-0.186
Mof_N 	N 	0.40437	0.41693	0.26613	-0.153
Mof_C 	C 	0.38367	0.50023	0.57283	0.112
Mof_C 	C 	0.35007	0.45363	0.73153	0.026
Mof_H 	H 	0.32127	0.42433	0.77213	0.007
Mof_C 	C 	0.35547	0.37283	0.26543	-0.001
Mof_H 	H 	0.35007	0.34173	0.22383	0.02
Mof_C 	C 	0.36707	0.45933	0.38203	0.112
Mof_N 	N 	0.34247	0.46003	0.62763	-0.176
Mof_C 	C 	0.40917	0.45923	0.32283	-0.051
Mof_H 	H 	0.44387	0.49193	0.32293	0.027
Mof_C 	C 	0.39887	0.48783	0.78623	-0.022
Mof_H 	H 	0.40317	0.48253	0.86333	0.008
Mof_N 	N 	0.44057	0.52943	0.72793	-0.162
Mof_C 	C 	0.37387	0.50653	0.44903	-0.259
Mof_H 	H 	0.34057	0.50973	0.44163	0.077
Mof_H 	H 	0.40527	0.54063	0.41953	0.088
Mof_Ag	Ag	0.92238	0.73468	0.85704	0.566
Mof_C 	C 	0.97783	0.70357	0.65757	0.005
Mof_H 	H 	0.94323	0.67087	0.65647	0.005
Mof_C 	C 	0.09873	0.86707	0.95567	-0.052
Mof_H 	H 	0.12763	0.89457	0.91207	0.029
Mof_N 	N 	0.98423	0.74727	0.71547	-0.186
Mof_N 	N 	0.07103	0.75027	0.59947	-0.154
Mof_C 	C 	0.05033	0.83357	0.90617	0.111
Mof_C 	C 	0.01673	0.78697	0.06487	0.025
Mof_H 	H 	0.98793	0.75767	0.10547	0.006
Mof_C 	C 	0.02213	0.70617	0.59877	-0.002
Mof_H 	H 	0.01673	0.67507	0.55717	0.019
Mof_C 	C 	0.03373	0.79267	0.71537	0.111
Mof_N 	N 	0.00913	0.79337	0.96097	-0.177
Mof_C 	C 	0.07583	0.79257	0.65617	-0.052
Mof_H 	H 	0.11053	0.82527	0.65627	0.026
Mof_C 	C 	0.06553	0.82117	0.11957	-0.023
Mof_H 	H 	0.06983	0.81587	0.19667	0.007
Mof_N 	N 	0.10723	0.86277	0.06127	-0.163
Mof_C 	C 	0.04053	0.83987	0.78237	-0.26
Mof_H 	H 	0.00723	0.84307	0.77497	0.076
Mof_H 	H 	0.07193	0.87397	0.75287	0.087
Mof_Ag	Ag	0.93199	0.52104	0.19037	0.565
Mof_C 	C 	0.9631	0.6076	0.9909	0.003
Mof_H 	H 	0.9958	0.6057	0.9898	0.004
Mof_C 	C 	0.7996	0.565	0.289	-0.053
Mof_H 	H 	0.7721	0.5664	0.2454	0.028
Mof_N 	N 	0.9194	0.5703	0.0488	-0.187
Mof_N 	N 	0.9164	0.6541	0.9328	-0.154
Mof_C 	C 	0.8331	0.5501	0.2395	0.111
Mof_C 	C 	0.8797	0.5631	0.3982	0.025
Mof_H 	H 	0.909	0.5636	0.4388	0.006
Mof_C 	C 	0.9605	0.6493	0.9321	-0.002
Mof_H 	H 	0.9916	0.675	0.8905	0.019
Mof_C 	C 	0.874	0.5744	0.0487	0.111
Mof_N 	N 	0.8733	0.5491	0.2943	-0.177
Mof_C 	C 	0.8741	0.6166	0.9895	-0.052
Mof_H 	H 	0.8414	0.6186	0.9896	0.026
Mof_C 	C 	0.8455	0.5777	0.4529	-0.023
Mof_H 	H 	0.8508	0.5873	0.53	0.007
Mof_N 	N 	0.8039	0.5778	0.3946	-0.163
Mof_C 	C 	0.8268	0.534	0.1157	-0.26
Mof_H 	H 	0.8236	0.4975	0.1083	0.076
Mof_H 	H 	0.7927	0.5313	0.0862	0.087
Mof_Ag	Ag	0.59866	0.85437	0.5237	0.565
Mof_C 	C 	0.62977	0.94093	0.32423	0.003
Mof_H 	H 	0.66247	0.93903	0.32313	0.004
Mof_C 	C 	0.46627	0.89833	0.62233	-0.053
Mof_H 	H 	0.43877	0.89973	0.57873	0.028
Mof_N 	N 	0.58607	0.90363	0.38213	-0.187
Mof_N 	N 	0.58307	0.98743	0.26613	-0.154
Mof_C 	C 	0.49977	0.88343	0.57283	0.111
Mof_C 	C 	0.54637	0.89643	0.73153	0.025
Mof_H 	H 	0.57567	0.89693	0.77213	0.006
Mof_C 	C 	0.62717	0.98263	0.26543	-0.002
Mof_H 	H 	0.65827	0.00833	0.22383	0.019
Mof_C 	C 	0.54067	0.90773	0.38203	0.111
Mof_N 	N 	0.53997	0.88243	0.62763	-0.177
Mof_C 	C 	0.54077	0.94993	0.32283	-0.052
Mof_H 	H 	0.50807	0.95193	0.32293	0.026
Mof_C 	C 	0.51217	0.91103	0.78623	-0.023
Mof_H 	H 	0.51747	0.92063	0.86333	0.007
Mof_N 	N 	0.47057	0.91113	0.72793	-0.163
Mof_C 	C 	0.49347	0.86733	0.44903	-0.26
Mof_H 	H 	0.49027	0.83083	0.44163	0.076
Mof_H 	H 	0.45937	0.86463	0.41953	0.087
Mof_Ag	Ag	0.26532	0.18771	0.85704	0.565
Mof_C 	C 	0.29643	0.27427	0.65757	0.003
Mof_H 	H 	0.32913	0.27237	0.65647	0.004
Mof_C 	C 	0.13293	0.23167	0.95567	-0.053
Mof_H 	H 	0.10543	0.23307	0.91207	0.028
Mof_N 	N 	0.25273	0.23697	0.71547	-0.187
Mof_N 	N 	0.24973	0.32077	0.59947	-0.154
Mof_C 	C 	0.16643	0.21677	0.90617	0.111
Mof_C 	C 	0.21303	0.22977	0.06487	0.025
Mof_H 	H 	0.24233	0.23027	0.10547	0.006
Mof_C 	C 	0.29383	0.31597	0.59877	-0.002
Mof_H 	H 	0.32493	0.34167	0.55717	0.019
Mof_C 	C 	0.20733	0.24107	0.71537	0.111
Mof_N 	N 	0.20663	0.21577	0.96097	-0.177
Mof_C 	C 	0.20743	0.28327	0.65617	-0.052
Mof_H 	H 	0.17473	0.28527	0.65627	0.026
Mof_C 	C 	0.17883	0.24437	0.11957	-0.023
Mof_H 	H 	0.18413	0.25397	0.19667	0.007
Mof_N 	N 	0.13723	0.24447	0.06127	-0.163
Mof_C 	C 	0.16013	0.20067	0.78237	-0.26
Mof_H 	H 	0.15693	0.16417	0.77497	0.076
Mof_H 	H 	0.12603	0.19797	0.75287	0.087
Mof_Ag	Ag	0.47896	0.41095	0.19037	0.565
Mof_C 	C 	0.3924	0.3555	0.9909	0.003
Mof_H 	H 	0.3943	0.3901	0.9898	0.004
Mof_C 	C 	0.435	0.2346	0.289	-0.053
Mof_H 	H 	0.4336	0.2057	0.2454	0.028
Mof_N 	N 	0.4297	0.3491	0.0488	-0.187
Mof_N 	N 	0.3459	0.2623	0.9328	-0.154
Mof_C 	C 	0.4499	0.283	0.2395	0.111
Mof_C 	C 	0.4369	0.3166	0.3982	0.025
Mof_H 	H 	0.4364	0.3454	0.4388	0.006
Mof_C 	C 	0.3507	0.3112	0.9321	-0.002
Mof_H 	H 	0.325	0.3166	0.8905	0.019
Mof_C 	C 	0.4256	0.2996	0.0487	0.111
Mof_N 	N 	0.4509	0.3242	0.2943	-0.177
Mof_C 	C 	0.3834	0.2575	0.9895	-0.052
Mof_H 	H 	0.3814	0.2228	0.9896	0.026
Mof_C 	C 	0.4223	0.2678	0.4529	-0.023
Mof_H 	H 	0.4127	0.2635	0.53	0.007
Mof_N 	N 	0.4222	0.2261	0.3946	-0.163
Mof_C 	C 	0.466	0.2928	0.1157	-0.26
Mof_H 	H 	0.5025	0.3261	0.1083	0.076
Mof_H 	H 	0.4687	0.2614	0.0862	0.087
Mof_Ag	Ag	0.14563	0.74428	0.5237	0.565
Mof_C 	C 	0.05907	0.68883	0.32423	0.004
Mof_H 	H 	0.06097	0.72343	0.32313	0.004
Mof_C 	C 	0.10167	0.56793	0.62233	-0.053
Mof_H 	H 	0.10027	0.53903	0.57873	0.028
Mof_N 	N 	0.09637	0.68243	0.38213	-0.187
Mof_N 	N 	0.01257	0.59563	0.26613	-0.154
Mof_C 	C 	0.11657	0.61633	0.57283	0.111
Mof_C 	C 	0.10357	0.64993	0.73153	0.025
Mof_H 	H 	0.10307	0.67873	0.77213	0.006
Mof_C 	C 	0.01737	0.64453	0.26543	-0.002
Mof_H 	H 	0.99167	0.64993	0.22383	0.019
Mof_C 	C 	0.09227	0.63293	0.38203	0.111
Mof_N 	N 	0.11757	0.65753	0.62763	-0.177
Mof_C 	C 	0.05007	0.59083	0.32283	-0.052
Mof_H 	H 	0.04807	0.55613	0.32293	0.026
Mof_C 	C 	0.08897	0.60113	0.78623	-0.023
Mof_H 	H 	0.07937	0.59683	0.86333	0.007
Mof_N 	N 	0.08887	0.55943	0.72793	-0.163
Mof_C 	C 	0.13267	0.62613	0.44903	-0.26
Mof_H 	H 	0.16917	0.65943	0.44163	0.076
Mof_H 	H 	0.13537	0.59473	0.41953	0.087
Mof_Ag	Ag	0.81229	0.07762	0.85704	0.565
Mof_C 	C 	0.72573	0.02217	0.65757	0.003
Mof_H 	H 	0.72763	0.05677	0.65647	0.004
Mof_C 	C 	0.76833	0.90127	0.95567	-0.053
Mof_H 	H 	0.76693	0.87237	0.91207	0.028
Mof_N 	N 	0.76303	0.01577	0.71547	-0.187
Mof_N 	N 	0.67923	0.92897	0.59947	-0.154
Mof_C 	C 	0.78323	0.94967	0.90617	0.111
Mof_C 	C 	0.77023	0.98327	0.06487	0.025
Mof_H 	H 	0.76973	0.01207	0.10547	0.006
Mof_C 	C 	0.68403	0.97787	0.59877	-0.002
Mof_H 	H 	0.65833	0.98327	0.55717	0.019
Mof_C 	C 	0.75893	0.96627	0.71537	0.111
Mof_N 	N 	0.78423	0.99087	0.96097	-0.177
Mof_C 	C 	0.71673	0.92417	0.65617	-0.052
Mof_H 	H 	0.71473	0.88947	0.65627	0.026
Mof_C 	C 	0.75563	0.93447	0.11957	-0.023
Mof_H 	H 	0.74603	0.93017	0.19667	0.007
Mof_N 	N 	0.75553	0.89277	0.06127	-0.163
Mof_C 	C 	0.79933	0.95947	0.78237	-0.26
Mof_H 	H 	0.83583	0.99277	0.77497	0.076
Mof_H 	H 	0.80203	0.92807	0.75287	0.087
Mof_Ag	Ag	0.41095	0.93199	0.80963	0.565
Mof_C 	C 	0.3555	0.9631	0.0091	0.003
Mof_H 	H 	0.3901	0.9958	0.0102	0.004
Mof_C 	C 	0.2346	0.7996	0.711	-0.053
Mof_H 	H 	0.2057	0.7721	0.7546	0.028
Mof_N 	N 	0.3491	0.9194	0.9512	-0.187
Mof_N 	N 	0.2623	0.9164	0.0672	-0.154
Mof_C 	C 	0.283	0.8331	0.7605	0.111
Mof_C 	C 	0.3166	0.8797	0.6018	0.025
Mof_H 	H 	0.3454	0.909	0.5612	0.006
Mof_C 	C 	0.3112	0.9605	0.0679	-0.002
Mof_H 	H 	0.3166	0.9916	0.1095	0.019
Mof_C 	C 	0.2996	0.874	0.9513	0.111
Mof_N 	N 	0.3242	0.8733	0.7057	-0.177
Mof_C 	C 	0.2575	0.8741	0.0105	-0.052
Mof_H 	H 	0.2228	0.8414	0.0104	0.026
Mof_C 	C 	0.2678	0.8455	0.5471	-0.023
Mof_H 	H 	0.2635	0.8508	0.47	0.007
Mof_N 	N 	0.2261	0.8039	0.6054	-0.163
Mof_C 	C 	0.2928	0.8268	0.8843	-0.26
Mof_H 	H 	0.3261	0.8236	0.8917	0.076
Mof_H 	H 	0.2614	0.7927	0.9138	0.087
Mof_Ag	Ag	0.07762	0.26532	0.14296	0.565
Mof_C 	C 	0.02217	0.29643	0.34243	0.004
Mof_H 	H 	0.05677	0.32913	0.34353	0.004
Mof_C 	C 	0.90127	0.13293	0.04433	-0.053
Mof_H 	H 	0.87237	0.10543	0.08793	0.028
Mof_N 	N 	0.01577	0.25273	0.28453	-0.187
Mof_N 	N 	0.92897	0.24973	0.40053	-0.154
Mof_C 	C 	0.94967	0.16643	0.09383	0.111
Mof_C 	C 	0.98327	0.21303	0.93513	0.025
Mof_H 	H 	0.01207	0.24233	0.89453	0.006
Mof_C 	C 	0.97787	0.29383	0.40123	-0.002
Mof_H 	H 	0.98327	0.32493	0.44283	0.019
Mof_C 	C 	0.96627	0.20733	0.28463	0.111
Mof_N 	N 	0.99087	0.20663	0.03903	-0.177
Mof_C 	C 	0.92417	0.20743	0.34383	-0.052
Mof_H 	H 	0.88947	0.17473	0.34373	0.026
Mof_C 	C 	0.93447	0.17883	0.88043	-0.023
Mof_H 	H 	0.93017	0.18413	0.80333	0.007
Mof_N 	N 	0.89277	0.13723	0.93873	-0.163
Mof_C 	C 	0.95947	0.16013	0.21763	-0.26
Mof_H 	H 	0.99277	0.15693	0.22503	0.076
Mof_H 	H 	0.92807	0.12603	0.24713	0.087
Mof_Ag	Ag	0.74428	0.59866	0.4763	0.565
Mof_C 	C 	0.68883	0.62977	0.67577	0.003
Mof_H 	H 	0.72343	0.66247	0.67687	0.004
Mof_C 	C 	0.56793	0.46627	0.37767	-0.053
Mof_H 	H 	0.53903	0.43877	0.42127	0.028
Mof_N 	N 	0.68243	0.58607	0.61787	-0.187
Mof_N 	N 	0.59563	0.58307	0.73387	-0.154
Mof_C 	C 	0.61633	0.49977	0.42717	0.111
Mof_C 	C 	0.64993	0.54637	0.26847	0.025
Mof_H 	H 	0.67873	0.57567	0.22787	0.006
Mof_C 	C 	0.64453	0.62717	0.73457	-0.002
Mof_H 	H 	0.64993	0.65827	0.77617	0.019
Mof_C 	C 	0.63293	0.54067	0.61797	0.111
Mof_N 	N 	0.65753	0.53997	0.37237	-0.177
Mof_C 	C 	0.59083	0.54077	0.67717	-0.052
Mof_H 	H 	0.55613	0.50807	0.67707	0.026
Mof_C 	C 	0.60113	0.51217	0.21377	-0.023
Mof_H 	H 	0.59683	0.51747	0.13667	0.007
Mof_N 	N 	0.55943	0.47057	0.27207	-0.163
Mof_C 	C 	0.62613	0.49347	0.55097	-0.26
Mof_H 	H 	0.65943	0.49027	0.55837	0.076
Mof_H 	H 	0.59473	0.45937	0.58047	0.087
Mof_Ag	Ag	0.06801	0.47896	0.80963	0.565
Mof_C 	C 	0.0369	0.3924	0.0091	0.003
Mof_H 	H 	0.0042	0.3943	0.0102	0.004
Mof_C 	C 	0.2004	0.435	0.711	-0.053
Mof_H 	H 	0.2279	0.4336	0.7546	0.028
Mof_N 	N 	0.0806	0.4297	0.9512	-0.187
Mof_N 	N 	0.0836	0.3459	0.0672	-0.154
Mof_C 	C 	0.1669	0.4499	0.7605	0.111
Mof_C 	C 	0.1203	0.4369	0.6018	0.025
Mof_H 	H 	0.091	0.4364	0.5612	0.006
Mof_C 	C 	0.0395	0.3507	0.0679	-0.002
Mof_H 	H 	0.0084	0.325	0.1095	0.019
Mof_C 	C 	0.126	0.4256	0.9513	0.111
Mof_N 	N 	0.1267	0.4509	0.7057	-0.177
Mof_C 	C 	0.1259	0.3834	0.0105	-0.052
Mof_H 	H 	0.1586	0.3814	0.0104	0.026
Mof_C 	C 	0.1545	0.4223	0.5471	-0.023
Mof_H 	H 	0.1492	0.4127	0.47	0.007
Mof_N 	N 	0.1961	0.4222	0.6054	-0.163
Mof_C 	C 	0.1732	0.466	0.8843	-0.26
Mof_H 	H 	0.1764	0.5025	0.8917	0.076
Mof_H 	H 	0.2073	0.4687	0.9138	0.087
Mof_Ag	Ag	0.73468	0.81229	0.14296	0.565
Mof_C 	C 	0.70357	0.72573	0.34243	0.003
Mof_H 	H 	0.67087	0.72763	0.34353	0.004
Mof_C 	C 	0.86707	0.76833	0.04433	-0.053
Mof_H 	H 	0.89457	0.76693	0.08793	0.028
Mof_N 	N 	0.74727	0.76303	0.28453	-0.187
Mof_N 	N 	0.75027	0.67923	0.40053	-0.154
Mof_C 	C 	0.83357	0.78323	0.09383	0.111
Mof_C 	C 	0.78697	0.77023	0.93513	0.025
Mof_H 	H 	0.75767	0.76973	0.89453	0.006
Mof_C 	C 	0.70617	0.68403	0.40123	-0.002
Mof_H 	H 	0.67507	0.65833	0.44283	0.019
Mof_C 	C 	0.79267	0.75893	0.28463	0.111
Mof_N 	N 	0.79337	0.78423	0.03903	-0.177
Mof_C 	C 	0.79257	0.71673	0.34383	-0.052
Mof_H 	H 	0.82527	0.71473	0.34373	0.026
Mof_C 	C 	0.82117	0.75563	0.88043	-0.023
Mof_H 	H 	0.81587	0.74603	0.80333	0.007
Mof_N 	N 	0.86277	0.75553	0.93873	-0.163
Mof_C 	C 	0.83987	0.79933	0.21763	-0.26
Mof_H 	H 	0.84307	0.83583	0.22503	0.076
Mof_H 	H 	0.87397	0.80203	0.24713	0.087
Mof_Ag	Ag	0.40134	0.14563	0.4763	0.565
Mof_C 	C 	0.37023	0.05907	0.67577	0.003
Mof_H 	H 	0.33753	0.06097	0.67687	0.004
Mof_C 	C 	0.53373	0.10167	0.37767	-0.053
Mof_H 	H 	0.56123	0.10027	0.42127	0.028
Mof_N 	N 	0.41393	0.09637	0.61787	-0.187
Mof_N 	N 	0.41693	0.01257	0.73387	-0.154
Mof_C 	C 	0.50023	0.11657	0.42717	0.111
Mof_C 	C 	0.45363	0.10357	0.26847	0.025
Mof_H 	H 	0.42433	0.10307	0.22787	0.006
Mof_C 	C 	0.37283	0.01737	0.73457	-0.002
Mof_H 	H 	0.34173	0.99167	0.77617	0.019
Mof_C 	C 	0.45933	0.09227	0.61797	0.111
Mof_N 	N 	0.46003	0.11757	0.37237	-0.177
Mof_C 	C 	0.45923	0.05007	0.67717	-0.052
Mof_H 	H 	0.49193	0.04807	0.67707	0.026
Mof_C 	C 	0.48783	0.08897	0.21377	-0.023
Mof_H 	H 	0.48253	0.07937	0.13667	0.007
Mof_N 	N 	0.52943	0.08887	0.27207	-0.163
Mof_C 	C 	0.50653	0.13267	0.55097	-0.26
Mof_H 	H 	0.50973	0.16917	0.55837	0.076
Mof_H 	H 	0.54063	0.13537	0.58047	0.087
Mof_Ag	Ag	0.52104	0.58905	0.80963	0.565
Mof_C 	C 	0.6076	0.6445	0.0091	0.003
Mof_H 	H 	0.6057	0.6099	0.0102	0.004
Mof_C 	C 	0.565	0.7654	0.711	-0.053
Mof_H 	H 	0.5664	0.7943	0.7546	0.028
Mof_N 	N 	0.5703	0.6509	0.9512	-0.187
Mof_N 	N 	0.6541	0.7377	0.0672	-0.154
Mof_C 	C 	0.5501	0.717	0.7605	0.111
Mof_C 	C 	0.5631	0.6834	0.6018	0.025
Mof_H 	H 	0.5636	0.6546	0.5612	0.006
Mof_C 	C 	0.6493	0.6888	0.0679	-0.002
Mof_H 	H 	0.675	0.6834	0.1095	0.019
Mof_C 	C 	0.5744	0.7004	0.9513	0.111
Mof_N 	N 	0.5491	0.6758	0.7057	-0.177
Mof_C 	C 	0.6166	0.7425	0.0105	-0.052
Mof_H 	H 	0.6186	0.7772	0.0104	0.026
Mof_C 	C 	0.5777	0.7322	0.5471	-0.023
Mof_H 	H 	0.5873	0.7365	0.47	0.007
Mof_N 	N 	0.5778	0.7739	0.6054	-0.163
Mof_C 	C 	0.534	0.7072	0.8843	-0.26
Mof_H 	H 	0.4975	0.6739	0.8917	0.076
Mof_H 	H 	0.5313	0.7386	0.9138	0.087
Mof_Ag	Ag	0.18771	0.92238	0.14296	0.565
Mof_C 	C 	0.27427	0.97783	0.34243	0.003
Mof_H 	H 	0.27237	0.94323	0.34353	0.004
Mof_C 	C 	0.23167	0.09873	0.04433	-0.053
Mof_H 	H 	0.23307	0.12763	0.08793	0.028
Mof_N 	N 	0.23697	0.98423	0.28453	-0.187
Mof_N 	N 	0.32077	0.07103	0.40053	-0.154
Mof_C 	C 	0.21677	0.05033	0.09383	0.111
Mof_C 	C 	0.22977	0.01673	0.93513	0.025
Mof_H 	H 	0.23027	0.98793	0.89453	0.006
Mof_C 	C 	0.31597	0.02213	0.40123	-0.002
Mof_H 	H 	0.34167	0.01673	0.44283	0.019
Mof_C 	C 	0.24107	0.03373	0.28463	0.111
Mof_N 	N 	0.21577	0.00913	0.03903	-0.177
Mof_C 	C 	0.28327	0.07583	0.34383	-0.052
Mof_H 	H 	0.28527	0.11053	0.34373	0.026
Mof_C 	C 	0.24437	0.06553	0.88043	-0.023
Mof_H 	H 	0.25397	0.06983	0.80333	0.007
Mof_N 	N 	0.24447	0.10723	0.93873	-0.163
Mof_C 	C 	0.20067	0.04053	0.21763	-0.26
Mof_H 	H 	0.16417	0.00723	0.22503	0.076
Mof_H 	H 	0.19797	0.07193	0.24713	0.087
Mof_Ag	Ag	0.85437	0.25572	0.4763	0.565
Mof_C 	C 	0.94093	0.31117	0.67577	0.004
Mof_H 	H 	0.93903	0.27657	0.67687	0.004
Mof_C 	C 	0.89833	0.43207	0.37767	-0.053
Mof_H 	H 	0.89973	0.46097	0.42127	0.028
Mof_N 	N 	0.90363	0.31757	0.61787	-0.187
Mof_N 	N 	0.98743	0.40437	0.73387	-0.154
Mof_C 	C 	0.88343	0.38367	0.42717	0.111
Mof_C 	C 	0.89643	0.35007	0.26847	0.025
Mof_H 	H 	0.89693	0.32127	0.22787	0.006
Mof_C 	C 	0.98263	0.35547	0.73457	-0.002
Mof_H 	H 	0.00833	0.35007	0.77617	0.019
Mof_C 	C 	0.90773	0.36707	0.61797	0.111
Mof_N 	N 	0.88243	0.34247	0.37237	-0.177
Mof_C 	C 	0.94993	0.40917	0.67717	-0.052
Mof_H 	H 	0.95193	0.44387	0.67707	0.026
Mof_C 	C 	0.91103	0.39887	0.21377	-0.023
Mof_H 	H 	0.92063	0.40317	0.13667	0.007
Mof_N 	N 	0.91113	0.44057	0.27207	-0.163
Mof_C 	C 	0.86733	0.37387	0.55097	-0.26
Mof_H 	H 	0.83083	0.34057	0.55837	0.076
Mof_H 	H 	0.86463	0.40527	0.58047	0.087
_end
