data_functionalizedCrystal
_audit_creation_method	'EQeq! by Chris Wilmer'
_symmetry_space_group_name_H-M	'P1'
_symmetry_Int_Tables_number	1
_symmetry_cell_setting	triclinic
loop_
_symmetry_equiv_pos_as_xyz
  x,y,z
_cell_length_a	43.52
_cell_length_b	12.546
_cell_length_c	21.894
_cell_angle_alpha	90
_cell_angle_beta	105.053
_cell_angle_gamma	90
loop_
_atom_site_label
_atom_site_type_symbol
_atom_site_fract_x
_atom_site_fract_y
_atom_site_fract_z
_atom_site_charge
Mof_Ag	Ag	0.20464	0.8865	0.31717	0.512
Mof_Ag	Ag	0.0522	0.6559	0.1896	0.534
Mof_N 	N 	0.1635	0.782	0.2636	-0.17
Mof_C 	C 	0.1455	0.803	0.2081	-0.015
Mof_H 	H 	0.1538	0.8436	0.1806	0.014
Mof_C 	C 	0.1497	0.725	0.2939	-0.011
Mof_H 	H 	0.1605	0.7039	0.3345	-0.003
Mof_N 	N 	0.1018	0.72	0.2234	-0.197
Mof_C 	C 	0.032	0.417	0.2117	0.018
Mof_H 	H 	0.0489	0.4194	0.2479	0.001
Mof_N 	N 	0.025	0.507	0.1817	-0.183
Mof_C 	C 	0.1216	0.694	0.272	0.034
Mof_H 	H 	0.1147	0.6429	0.2963	-0.017
Mof_C 	C 	0.0173	0.314	0.1965	-0.01
Mof_H 	H 	0.0247	0.2564	0.2227	0.006
Mof_C 	C 	0.9847	0.404	0.1144	-0.015
Mof_H 	H 	0.9669	0.4054	0.0801	0.008
Mof_C 	C 	0.1136	0.768	0.187	0.03
Mof_H 	H 	0.1018	0.7816	0.1458	-0.014
Mof_C 	C 	0.9994	0.499	0.13	-0.009
Mof_H 	H 	0.9923	0.5586	0.1048	0.005
Mof_N 	N 	0.9927	0.302	0.1439	-0.178
Mof_N 	N 	0.7348	0.409	0.2367	-0.149
Mof_C 	C 	0.7401	0.304	0.2104	-0.028
Mof_H 	H 	0.728	0.2444	0.2148	0.017
Mof_C 	C 	0.7648	0.297	0.1778	-0.011
Mof_H 	H 	0.7712	0.2325	0.1648	0.004
Mof_N 	N 	0.7791	0.396	0.1662	-0.179
Mof_C 	C 	0.7501	0.497	0.2266	-0.025
Mof_H 	H 	0.7458	0.5641	0.2409	0.016
Mof_C 	C 	0.7751	0.48	0.1902	0.041
Mof_H 	H 	0.788	0.5376	0.1861	-0.015
Mof_Ag	Ag	0.3092	0.1305	0.59642	0.522
Mof_Ag	Ag	0.46558	0.3407	0.60932	0.534
Mof_N 	N 	0.2634	0.082	0.5116	-0.169
Mof_N 	N 	0.3502	0.223	0.5849	-0.19
Mof_C 	C 	0.2297	0.938	0.4659	-0.017
Mof_H 	H 	0.2205	0.8741	0.4732	0.006
Mof_C 	C 	0.3652	0.285	0.6251	0.032
Mof_H 	H 	0.3548	0.3111	0.6542	-0.015
Mof_C 	C 	0.3952	0.319	0.6312	-0.019
Mof_H 	H 	0.4029	0.3727	0.6607	0.008
Mof_C 	C 	0.2472	0.003	0.5189	0.014
Mof_H 	H 	0.2463	0.9844	0.5596	0.006
Mof_C 	C 	0.3708	0.193	0.5534	-0.009
Mof_H 	H 	0.3636	0.1366	0.5256	0.005
Mof_C 	C 	0.2437	0.057	0.401	-0.016
Mof_H 	H 	0.243	0.0834	0.3614	0.007
Mof_N 	N 	0.4143	0.283	0.5982	-0.179
Mof_C 	C 	0.4879	0.684	0.6691	0.015
Mof_H 	H 	0.4783	0.7334	0.6895	-0.004
Mof_C 	C 	0.4732	0.583	0.6568	-0.019
Mof_H 	H 	0.455	0.568	0.6703	0.008
Mof_N 	N 	0.2269	0.971	0.406	-0.176
Mof_N 	N 	0.4854	0.506	0.6253	-0.179
Mof_C 	C 	0.5087	0.538	0.602	0.01
Mof_H 	H 	0.5155	0.4923	0.5748	-0.007
Mof_C 	C 	0.263	0.11	0.4558	0.009
Mof_H 	H 	0.2757	0.1669	0.45	0.003
Mof_N 	N 	0.5142	0.714	0.6541	-0.17
Mof_C 	C 	0.4012	0.228	0.554	0.025
Mof_H 	H 	0.4108	0.2107	0.5216	-0.013
Mof_C 	C 	0.5242	0.639	0.616	-0.028
Mof_H 	H 	0.5412	0.6557	0.5994	0.004
Mof_Ag	Ag	0.8092	0.3695	0.09642	0.521
Mof_Ag	Ag	0.96558	0.1593	0.10932	0.534
Mof_N 	N 	0.7634	0.418	0.0116	-0.169
Mof_N 	N 	0.8502	0.277	0.0849	-0.19
Mof_C 	C 	0.7297	0.562	0.9659	-0.017
Mof_H 	H 	0.7205	0.6259	0.9732	0.006
Mof_C 	C 	0.8652	0.215	0.1251	0.032
Mof_H 	H 	0.8548	0.1889	0.1542	-0.015
Mof_C 	C 	0.8952	0.181	0.1312	-0.019
Mof_H 	H 	0.9029	0.1273	0.1607	0.008
Mof_C 	C 	0.7472	0.497	0.0189	0.014
Mof_H 	H 	0.7463	0.5156	0.0596	0.006
Mof_C 	C 	0.8708	0.307	0.0534	-0.009
Mof_H 	H 	0.8636	0.3634	0.0256	0.005
Mof_C 	C 	0.7437	0.443	0.901	-0.016
Mof_H 	H 	0.743	0.4166	0.8614	0.007
Mof_N 	N 	0.9143	0.217	0.0982	-0.179
Mof_C 	C 	0.9879	0.816	0.1691	0.015
Mof_H 	H 	0.9783	0.7666	0.1895	-0.004
Mof_C 	C 	0.9732	0.917	0.1568	-0.019
Mof_H 	H 	0.955	0.932	0.1703	0.009
Mof_N 	N 	0.7269	0.529	0.906	-0.176
Mof_N 	N 	0.9854	0.994	0.1253	-0.179
Mof_C 	C 	0.0087	0.962	0.102	0.011
Mof_H 	H 	0.0155	0.0077	0.0748	-0.008
Mof_C 	C 	0.763	0.39	0.9558	0.009
Mof_H 	H 	0.7757	0.3331	0.95	0.003
Mof_N 	N 	0.0142	0.786	0.1541	-0.17
Mof_C 	C 	0.9012	0.272	0.054	0.025
Mof_H 	H 	0.9108	0.2893	0.0216	-0.013
Mof_C 	C 	0.0242	0.861	0.116	-0.028
Mof_H 	H 	0.0412	0.8443	0.0994	0.004
Mof_N 	N 	0.2348	0.091	0.7367	-0.149
Mof_C 	C 	0.2401	0.196	0.7104	-0.028
Mof_H 	H 	0.228	0.2556	0.7148	0.018
Mof_C 	C 	0.2648	0.203	0.6778	-0.011
Mof_H 	H 	0.2712	0.2675	0.6648	0.004
Mof_N 	N 	0.2791	0.104	0.6662	-0.179
Mof_C 	C 	0.2501	0.003	0.7266	-0.025
Mof_H 	H 	0.2458	0.9359	0.7409	0.016
Mof_C 	C 	0.2751	0.02	0.6902	0.041
Mof_H 	H 	0.288	0.9624	0.6861	-0.016
Mof_Ag	Ag	0.70464	0.6135	0.81717	0.511
Mof_Ag	Ag	0.5522	0.8441	0.6896	0.533
Mof_N 	N 	0.6635	0.718	0.7636	-0.171
Mof_C 	C 	0.6455	0.697	0.7081	-0.016
Mof_H 	H 	0.6538	0.6564	0.6806	0.013
Mof_C 	C 	0.6497	0.775	0.7939	-0.012
Mof_H 	H 	0.6605	0.7961	0.8345	-0.004
Mof_N 	N 	0.6018	0.78	0.7234	-0.198
Mof_C 	C 	0.532	0.083	0.7117	0.017
Mof_H 	H 	0.5489	0.0806	0.7479	0
Mof_N 	N 	0.525	0.993	0.6817	-0.184
Mof_C 	C 	0.6216	0.806	0.772	0.034
Mof_H 	H 	0.6147	0.8571	0.7963	-0.017
Mof_C 	C 	0.5173	0.186	0.6965	-0.01
Mof_H 	H 	0.5247	0.2436	0.7227	0.006
Mof_C 	C 	0.4847	0.096	0.6144	-0.015
Mof_H 	H 	0.4669	0.0946	0.5801	0.008
Mof_C 	C 	0.6136	0.732	0.687	0.03
Mof_H 	H 	0.6018	0.7184	0.6458	-0.014
Mof_C 	C 	0.4994	0.001	0.63	-0.009
Mof_H 	H 	0.4923	0.9414	0.6048	0.004
Mof_N 	N 	0.4927	0.198	0.6439	-0.178
Mof_Ag	Ag	0.1908	0.6305	0.90358	0.521
Mof_Ag	Ag	0.03442	0.8407	0.89068	0.534
Mof_N 	N 	0.2366	0.582	0.9884	-0.169
Mof_N 	N 	0.1498	0.723	0.9151	-0.19
Mof_C 	C 	0.2703	0.438	0.0341	-0.017
Mof_H 	H 	0.2795	0.3741	0.0268	0.006
Mof_C 	C 	0.1348	0.785	0.8749	0.032
Mof_H 	H 	0.1452	0.8111	0.8458	-0.015
Mof_C 	C 	0.1048	0.819	0.8688	-0.019
Mof_H 	H 	0.0971	0.8727	0.8393	0.008
Mof_C 	C 	0.2528	0.503	0.9811	0.014
Mof_H 	H 	0.2537	0.4844	0.9404	0.006
Mof_C 	C 	0.1292	0.693	0.9466	-0.009
Mof_H 	H 	0.1364	0.6366	0.9744	0.005
Mof_C 	C 	0.2563	0.557	0.099	-0.016
Mof_H 	H 	0.257	0.5834	0.1386	0.007
Mof_N 	N 	0.0857	0.783	0.9018	-0.179
Mof_C 	C 	0.0121	0.184	0.8309	0.015
Mof_H 	H 	0.0217	0.2334	0.8105	-0.004
Mof_C 	C 	0.0268	0.083	0.8432	-0.019
Mof_H 	H 	0.045	0.068	0.8297	0.009
Mof_N 	N 	0.2731	0.471	0.094	-0.176
Mof_N 	N 	0.0146	0.006	0.8747	-0.179
Mof_C 	C 	0.9913	0.038	0.898	0.011
Mof_H 	H 	0.9845	0.9923	0.9252	-0.008
Mof_C 	C 	0.237	0.61	0.0442	0.009
Mof_H 	H 	0.2243	0.6669	0.05	0.003
Mof_N 	N 	0.9858	0.214	0.8459	-0.17
Mof_C 	C 	0.0988	0.728	0.946	0.025
Mof_H 	H 	0.0892	0.7107	0.9784	-0.013
Mof_C 	C 	0.9758	0.139	0.884	-0.028
Mof_H 	H 	0.9588	0.1557	0.9006	0.004
Mof_N 	N 	0.7652	0.909	0.2633	-0.149
Mof_C 	C 	0.7599	0.804	0.2896	-0.028
Mof_H 	H 	0.772	0.7444	0.2852	0.018
Mof_C 	C 	0.7352	0.797	0.3222	-0.011
Mof_H 	H 	0.7288	0.7325	0.3352	0.004
Mof_N 	N 	0.7209	0.896	0.3338	-0.179
Mof_C 	C 	0.7499	0.997	0.2734	-0.025
Mof_H 	H 	0.7542	0.0641	0.2591	0.016
Mof_C 	C 	0.7249	0.98	0.3098	0.041
Mof_H 	H 	0.712	0.0376	0.3139	-0.016
Mof_Ag	Ag	0.29536	0.3865	0.18283	0.511
Mof_Ag	Ag	0.4478	0.1559	0.3104	0.533
Mof_N 	N 	0.3365	0.282	0.2364	-0.171
Mof_C 	C 	0.3545	0.303	0.2919	-0.016
Mof_H 	H 	0.3462	0.3436	0.3194	0.013
Mof_C 	C 	0.3503	0.225	0.2061	-0.012
Mof_H 	H 	0.3395	0.2039	0.1655	-0.004
Mof_N 	N 	0.3982	0.22	0.2766	-0.198
Mof_C 	C 	0.468	0.917	0.2883	0.017
Mof_H 	H 	0.4511	0.9194	0.2521	0
Mof_N 	N 	0.475	0.007	0.3183	-0.184
Mof_C 	C 	0.3784	0.194	0.228	0.034
Mof_H 	H 	0.3853	0.1429	0.2037	-0.017
Mof_C 	C 	0.4827	0.814	0.3035	-0.01
Mof_H 	H 	0.4753	0.7564	0.2773	0.006
Mof_C 	C 	0.5153	0.904	0.3856	-0.015
Mof_H 	H 	0.5331	0.9054	0.4199	0.008
Mof_C 	C 	0.3864	0.268	0.313	0.03
Mof_H 	H 	0.3982	0.2816	0.3542	-0.014
Mof_C 	C 	0.5006	0.999	0.37	-0.009
Mof_H 	H 	0.5077	0.0586	0.3952	0.004
Mof_N 	N 	0.5073	0.802	0.3561	-0.178
Mof_Ag	Ag	0.79536	0.1135	0.68283	0.511
Mof_Ag	Ag	0.9478	0.3441	0.8104	0.533
Mof_N 	N 	0.8365	0.218	0.7364	-0.171
Mof_C 	C 	0.8545	0.197	0.7919	-0.016
Mof_H 	H 	0.8462	0.1564	0.8194	0.013
Mof_C 	C 	0.8503	0.275	0.7061	-0.012
Mof_H 	H 	0.8395	0.2961	0.6655	-0.004
Mof_N 	N 	0.8982	0.28	0.7766	-0.198
Mof_C 	C 	0.968	0.583	0.7883	0.017
Mof_H 	H 	0.9511	0.5806	0.7521	0
Mof_N 	N 	0.975	0.493	0.8183	-0.183
Mof_C 	C 	0.8784	0.306	0.728	0.034
Mof_H 	H 	0.8853	0.3571	0.7037	-0.017
Mof_C 	C 	0.9827	0.686	0.8035	-0.01
Mof_H 	H 	0.9753	0.7436	0.7773	0.006
Mof_C 	C 	0.0153	0.596	0.8856	-0.015
Mof_H 	H 	0.0331	0.5946	0.9199	0.008
Mof_C 	C 	0.8864	0.232	0.813	0.03
Mof_H 	H 	0.8982	0.2184	0.8542	-0.014
Mof_C 	C 	0.0006	0.501	0.87	-0.009
Mof_H 	H 	0.0077	0.4414	0.8952	0.005
Mof_N 	N 	0.0073	0.698	0.8561	-0.178
Mof_N 	N 	0.2652	0.591	0.7633	-0.149
Mof_C 	C 	0.2599	0.696	0.7896	-0.028
Mof_H 	H 	0.272	0.7556	0.7852	0.017
Mof_C 	C 	0.2352	0.703	0.8222	-0.011
Mof_H 	H 	0.2288	0.7675	0.8352	0.004
Mof_N 	N 	0.2209	0.604	0.8338	-0.179
Mof_C 	C 	0.2499	0.503	0.7734	-0.025
Mof_H 	H 	0.2542	0.4359	0.7591	0.016
Mof_C 	C 	0.2249	0.52	0.8098	0.041
Mof_H 	H 	0.212	0.4624	0.8139	-0.015
Mof_Ag	Ag	0.6908	0.8695	0.40358	0.522
Mof_Ag	Ag	0.53442	0.6593	0.39068	0.534
Mof_N 	N 	0.7366	0.918	0.4884	-0.169
Mof_N 	N 	0.6498	0.777	0.4151	-0.19
Mof_C 	C 	0.7703	0.062	0.5341	-0.017
Mof_H 	H 	0.7795	0.1259	0.5268	0.006
Mof_C 	C 	0.6348	0.715	0.3749	0.032
Mof_H 	H 	0.6452	0.6889	0.3458	-0.015
Mof_C 	C 	0.6048	0.681	0.3688	-0.019
Mof_H 	H 	0.5971	0.6273	0.3393	0.008
Mof_C 	C 	0.7528	0.997	0.4811	0.014
Mof_H 	H 	0.7537	0.0156	0.4404	0.006
Mof_C 	C 	0.6292	0.807	0.4466	-0.009
Mof_H 	H 	0.6364	0.8634	0.4744	0.005
Mof_C 	C 	0.7563	0.943	0.599	-0.016
Mof_H 	H 	0.757	0.9166	0.6386	0.007
Mof_N 	N 	0.5857	0.717	0.4018	-0.179
Mof_C 	C 	0.5121	0.316	0.3309	0.015
Mof_H 	H 	0.5217	0.2666	0.3105	-0.004
Mof_C 	C 	0.5268	0.417	0.3432	-0.019
Mof_H 	H 	0.545	0.432	0.3297	0.008
Mof_N 	N 	0.7731	0.029	0.594	-0.176
Mof_N 	N 	0.5146	0.494	0.3747	-0.179
Mof_C 	C 	0.4913	0.462	0.398	0.01
Mof_H 	H 	0.4845	0.5077	0.4252	-0.007
Mof_C 	C 	0.737	0.89	0.5442	0.009
Mof_H 	H 	0.7243	0.8331	0.55	0.003
Mof_N 	N 	0.4858	0.286	0.3459	-0.17
Mof_C 	C 	0.5988	0.772	0.446	0.025
Mof_H 	H 	0.5892	0.7893	0.4784	-0.013
Mof_C 	C 	0.4758	0.361	0.384	-0.028
Mof_H 	H 	0.4588	0.3443	0.4006	0.004
Mof_N 	N 	0.2348	0.909	0.2367	-0.149
Mof_C 	C 	0.2401	0.804	0.2104	-0.028
Mof_H 	H 	0.228	0.7444	0.2148	0.018
Mof_C 	C 	0.2648	0.797	0.1778	-0.011
Mof_H 	H 	0.2712	0.7325	0.1648	0.004
Mof_N 	N 	0.2791	0.896	0.1662	-0.179
Mof_C 	C 	0.2501	0.997	0.2266	-0.025
Mof_H 	H 	0.2458	0.0641	0.2409	0.016
Mof_C 	C 	0.2751	0.98	0.1902	0.042
Mof_H 	H 	0.288	0.0376	0.1861	-0.016
Mof_Ag	Ag	0.70464	0.3865	0.31717	0.511
Mof_Ag	Ag	0.5522	0.1559	0.1896	0.533
Mof_N 	N 	0.6635	0.282	0.2636	-0.171
Mof_C 	C 	0.6455	0.303	0.2081	-0.016
Mof_H 	H 	0.6538	0.3436	0.1806	0.013
Mof_C 	C 	0.6497	0.225	0.2939	-0.012
Mof_H 	H 	0.6605	0.2039	0.3345	-0.004
Mof_N 	N 	0.6018	0.22	0.2234	-0.198
Mof_C 	C 	0.532	0.917	0.2117	0.017
Mof_H 	H 	0.5489	0.9194	0.2479	0
Mof_N 	N 	0.525	0.007	0.1817	-0.184
Mof_C 	C 	0.6216	0.194	0.272	0.034
Mof_H 	H 	0.6147	0.1429	0.2963	-0.017
Mof_C 	C 	0.5173	0.814	0.1965	-0.01
Mof_H 	H 	0.5247	0.7564	0.2227	0.006
Mof_C 	C 	0.4847	0.904	0.1144	-0.015
Mof_H 	H 	0.4669	0.9054	0.0801	0.008
Mof_C 	C 	0.6136	0.268	0.187	0.03
Mof_H 	H 	0.6018	0.2816	0.1458	-0.014
Mof_C 	C 	0.4994	0.999	0.13	-0.008
Mof_H 	H 	0.4923	0.0586	0.1048	0.004
Mof_N 	N 	0.4927	0.802	0.1439	-0.178
Mof_Ag	Ag	0.8092	0.6305	0.59642	0.521
Mof_Ag	Ag	0.96558	0.8407	0.60932	0.534
Mof_N 	N 	0.7634	0.582	0.5116	-0.169
Mof_N 	N 	0.8502	0.723	0.5849	-0.19
Mof_C 	C 	0.7297	0.438	0.4659	-0.017
Mof_H 	H 	0.7205	0.3741	0.4732	0.006
Mof_C 	C 	0.8652	0.785	0.6251	0.032
Mof_H 	H 	0.8548	0.8111	0.6542	-0.015
Mof_C 	C 	0.8952	0.819	0.6312	-0.019
Mof_H 	H 	0.9029	0.8727	0.6607	0.008
Mof_C 	C 	0.7472	0.503	0.5189	0.014
Mof_H 	H 	0.7463	0.4844	0.5596	0.006
Mof_C 	C 	0.8708	0.693	0.5534	-0.009
Mof_H 	H 	0.8636	0.6366	0.5256	0.005
Mof_C 	C 	0.7437	0.557	0.401	-0.016
Mof_H 	H 	0.743	0.5834	0.3614	0.007
Mof_N 	N 	0.9143	0.783	0.5982	-0.179
Mof_C 	C 	0.9879	0.184	0.6691	0.015
Mof_H 	H 	0.9783	0.2334	0.6895	-0.004
Mof_C 	C 	0.9732	0.083	0.6568	-0.019
Mof_H 	H 	0.955	0.068	0.6703	0.009
Mof_N 	N 	0.7269	0.471	0.406	-0.176
Mof_N 	N 	0.9854	0.006	0.6253	-0.179
Mof_C 	C 	0.0087	0.038	0.602	0.011
Mof_H 	H 	0.0155	0.9923	0.5748	-0.007
Mof_C 	C 	0.763	0.61	0.4558	0.009
Mof_H 	H 	0.7757	0.6669	0.45	0.003
Mof_N 	N 	0.0142	0.214	0.6541	-0.17
Mof_C 	C 	0.9012	0.728	0.554	0.025
Mof_H 	H 	0.9108	0.7107	0.5216	-0.013
Mof_C 	C 	0.0242	0.139	0.616	-0.028
Mof_H 	H 	0.0412	0.1557	0.5994	0.004
Mof_Ag	Ag	0.3092	0.8695	0.09642	0.522
Mof_Ag	Ag	0.46558	0.6593	0.10932	0.534
Mof_N 	N 	0.2634	0.918	0.0116	-0.169
Mof_N 	N 	0.3502	0.777	0.0849	-0.19
Mof_C 	C 	0.2297	0.062	0.9659	-0.017
Mof_H 	H 	0.2205	0.1259	0.9732	0.006
Mof_C 	C 	0.3652	0.715	0.1251	0.032
Mof_H 	H 	0.3548	0.6889	0.1542	-0.015
Mof_C 	C 	0.3952	0.681	0.1312	-0.019
Mof_H 	H 	0.4029	0.6273	0.1607	0.008
Mof_C 	C 	0.2472	0.997	0.0189	0.015
Mof_H 	H 	0.2463	0.0156	0.0596	0.005
Mof_C 	C 	0.3708	0.807	0.0534	-0.009
Mof_H 	H 	0.3636	0.8634	0.0256	0.005
Mof_C 	C 	0.2437	0.943	0.901	-0.016
Mof_H 	H 	0.243	0.9166	0.8614	0.007
Mof_N 	N 	0.4143	0.717	0.0982	-0.179
Mof_C 	C 	0.4879	0.316	0.1691	0.015
Mof_H 	H 	0.4783	0.2666	0.1895	-0.004
Mof_C 	C 	0.4732	0.417	0.1568	-0.019
Mof_H 	H 	0.455	0.432	0.1703	0.008
Mof_N 	N 	0.2269	0.029	0.906	-0.176
Mof_N 	N 	0.4854	0.494	0.1253	-0.179
Mof_C 	C 	0.5087	0.462	0.102	0.01
Mof_H 	H 	0.5155	0.5077	0.0748	-0.007
Mof_C 	C 	0.263	0.89	0.9558	0.009
Mof_H 	H 	0.2757	0.8331	0.95	0.003
Mof_N 	N 	0.5142	0.286	0.1541	-0.17
Mof_C 	C 	0.4012	0.772	0.054	0.025
Mof_H 	H 	0.4108	0.7893	0.0216	-0.013
Mof_C 	C 	0.5242	0.361	0.116	-0.028
Mof_H 	H 	0.5412	0.3443	0.0994	0.004
Mof_Ag	Ag	0.20464	0.1135	0.81717	0.511
Mof_Ag	Ag	0.0522	0.3441	0.6896	0.533
Mof_N 	N 	0.1635	0.218	0.7636	-0.171
Mof_C 	C 	0.1455	0.197	0.7081	-0.016
Mof_H 	H 	0.1538	0.1564	0.6806	0.013
Mof_C 	C 	0.1497	0.275	0.7939	-0.012
Mof_H 	H 	0.1605	0.2961	0.8345	-0.004
Mof_N 	N 	0.1018	0.28	0.7234	-0.198
Mof_C 	C 	0.032	0.583	0.7117	0.017
Mof_H 	H 	0.0489	0.5806	0.7479	0
Mof_N 	N 	0.025	0.493	0.6817	-0.183
Mof_C 	C 	0.1216	0.306	0.772	0.034
Mof_H 	H 	0.1147	0.3571	0.7963	-0.017
Mof_C 	C 	0.0173	0.686	0.6965	-0.01
Mof_H 	H 	0.0247	0.7436	0.7227	0.006
Mof_C 	C 	0.9847	0.596	0.6144	-0.015
Mof_H 	H 	0.9669	0.5946	0.5801	0.008
Mof_C 	C 	0.1136	0.232	0.687	0.03
Mof_H 	H 	0.1018	0.2184	0.6458	-0.014
Mof_C 	C 	0.9994	0.501	0.63	-0.009
Mof_H 	H 	0.9923	0.4414	0.6048	0.005
Mof_N 	N 	0.9927	0.698	0.6439	-0.178
Mof_N 	N 	0.7348	0.591	0.7367	-0.149
Mof_C 	C 	0.7401	0.696	0.7104	-0.028
Mof_H 	H 	0.728	0.7556	0.7148	0.017
Mof_C 	C 	0.7648	0.703	0.6778	-0.011
Mof_H 	H 	0.7712	0.7675	0.6648	0.004
Mof_N 	N 	0.7791	0.604	0.6662	-0.179
Mof_C 	C 	0.7501	0.503	0.7266	-0.025
Mof_H 	H 	0.7458	0.4359	0.7409	0.016
Mof_C 	C 	0.7751	0.52	0.6902	0.041
Mof_H 	H 	0.788	0.4624	0.6861	-0.015
Mof_Ag	Ag	0.6908	0.1305	0.90358	0.522
Mof_Ag	Ag	0.53442	0.3407	0.89068	0.534
Mof_N 	N 	0.7366	0.082	0.9884	-0.169
Mof_N 	N 	0.6498	0.223	0.9151	-0.19
Mof_C 	C 	0.7703	0.938	0.0341	-0.017
Mof_H 	H 	0.7795	0.8741	0.0268	0.006
Mof_C 	C 	0.6348	0.285	0.8749	0.032
Mof_H 	H 	0.6452	0.3111	0.8458	-0.015
Mof_C 	C 	0.6048	0.319	0.8688	-0.019
Mof_H 	H 	0.5971	0.3727	0.8393	0.008
Mof_C 	C 	0.7528	0.003	0.9811	0.015
Mof_H 	H 	0.7537	0.9844	0.9404	0.005
Mof_C 	C 	0.6292	0.193	0.9466	-0.009
Mof_H 	H 	0.6364	0.1366	0.9744	0.005
Mof_C 	C 	0.7563	0.057	0.099	-0.016
Mof_H 	H 	0.757	0.0834	0.1386	0.007
Mof_N 	N 	0.5857	0.283	0.9018	-0.179
Mof_C 	C 	0.5121	0.684	0.8309	0.015
Mof_H 	H 	0.5217	0.7334	0.8105	-0.004
Mof_C 	C 	0.5268	0.583	0.8432	-0.019
Mof_H 	H 	0.545	0.568	0.8297	0.008
Mof_N 	N 	0.7731	0.971	0.094	-0.176
Mof_N 	N 	0.5146	0.506	0.8747	-0.179
Mof_C 	C 	0.4913	0.538	0.898	0.01
Mof_H 	H 	0.4845	0.4923	0.9252	-0.007
Mof_C 	C 	0.737	0.11	0.0442	0.009
Mof_H 	H 	0.7243	0.1669	0.05	0.003
Mof_N 	N 	0.4858	0.714	0.8459	-0.17
Mof_C 	C 	0.5988	0.228	0.946	0.025
Mof_H 	H 	0.5892	0.2107	0.9784	-0.013
Mof_C 	C 	0.4758	0.639	0.884	-0.028
Mof_H 	H 	0.4588	0.6557	0.9006	0.004
Mof_Ag	Ag	0.79536	0.8865	0.18283	0.511
Mof_Ag	Ag	0.9478	0.6559	0.3104	0.533
Mof_N 	N 	0.8365	0.782	0.2364	-0.171
Mof_C 	C 	0.8545	0.803	0.2919	-0.016
Mof_H 	H 	0.8462	0.8436	0.3194	0.013
Mof_C 	C 	0.8503	0.725	0.2061	-0.012
Mof_H 	H 	0.8395	0.7039	0.1655	-0.004
Mof_N 	N 	0.8982	0.72	0.2766	-0.198
Mof_C 	C 	0.968	0.417	0.2883	0.017
Mof_H 	H 	0.9511	0.4194	0.2521	0
Mof_N 	N 	0.975	0.507	0.3183	-0.183
Mof_C 	C 	0.8784	0.694	0.228	0.034
Mof_H 	H 	0.8853	0.6429	0.2037	-0.017
Mof_C 	C 	0.9827	0.314	0.3035	-0.01
Mof_H 	H 	0.9753	0.2564	0.2773	0.006
Mof_C 	C 	0.0153	0.404	0.3856	-0.015
Mof_H 	H 	0.0331	0.4054	0.4199	0.008
Mof_C 	C 	0.8864	0.768	0.313	0.03
Mof_H 	H 	0.8982	0.7816	0.3542	-0.014
Mof_C 	C 	0.0006	0.499	0.37	-0.009
Mof_H 	H 	0.0077	0.5586	0.3952	0.005
Mof_N 	N 	0.0073	0.302	0.3561	-0.178
Mof_N 	N 	0.2652	0.409	0.2633	-0.149
Mof_C 	C 	0.2599	0.304	0.2896	-0.028
Mof_H 	H 	0.272	0.2444	0.2852	0.017
Mof_C 	C 	0.2352	0.297	0.3222	-0.011
Mof_H 	H 	0.2288	0.2325	0.3352	0.004
Mof_N 	N 	0.2209	0.396	0.3338	-0.179
Mof_C 	C 	0.2499	0.497	0.2734	-0.025
Mof_H 	H 	0.2542	0.5641	0.2591	0.016
Mof_C 	C 	0.2249	0.48	0.3098	0.041
Mof_H 	H 	0.212	0.5376	0.3139	-0.015
Mof_N 	N 	0.7652	0.091	0.7633	-0.149
Mof_C 	C 	0.7599	0.196	0.7896	-0.028
Mof_H 	H 	0.772	0.2556	0.7852	0.018
Mof_C 	C 	0.7352	0.203	0.8222	-0.011
Mof_H 	H 	0.7288	0.2675	0.8352	0.004
Mof_N 	N 	0.7209	0.104	0.8338	-0.179
Mof_C 	C 	0.7499	0.003	0.7734	-0.025
Mof_H 	H 	0.7542	0.9359	0.7591	0.016
Mof_C 	C 	0.7249	0.02	0.8098	0.042
Mof_H 	H 	0.712	0.9624	0.8139	-0.016
Mof_Ag	Ag	0.29536	0.6135	0.68283	0.511
Mof_Ag	Ag	0.4478	0.8441	0.8104	0.533
Mof_N 	N 	0.3365	0.718	0.7364	-0.171
Mof_C 	C 	0.3545	0.697	0.7919	-0.016
Mof_H 	H 	0.3462	0.6564	0.8194	0.013
Mof_C 	C 	0.3503	0.775	0.7061	-0.012
Mof_H 	H 	0.3395	0.7961	0.6655	-0.004
Mof_N 	N 	0.3982	0.78	0.7766	-0.198
Mof_C 	C 	0.468	0.083	0.7883	0.017
Mof_H 	H 	0.4511	0.0806	0.7521	0
Mof_N 	N 	0.475	0.993	0.8183	-0.184
Mof_C 	C 	0.3784	0.806	0.728	0.034
Mof_H 	H 	0.3853	0.8571	0.7037	-0.017
Mof_C 	C 	0.4827	0.186	0.8035	-0.01
Mof_H 	H 	0.4753	0.2436	0.7773	0.006
Mof_C 	C 	0.5153	0.096	0.8856	-0.015
Mof_H 	H 	0.5331	0.0946	0.9199	0.008
Mof_C 	C 	0.3864	0.732	0.813	0.03
Mof_H 	H 	0.3982	0.7184	0.8542	-0.014
Mof_C 	C 	0.5006	0.001	0.87	-0.008
Mof_H 	H 	0.5077	0.9414	0.8952	0.004
Mof_N 	N 	0.5073	0.198	0.8561	-0.178
Mof_Ag	Ag	0.1908	0.3695	0.40358	0.521
Mof_Ag	Ag	0.03442	0.1593	0.39068	0.534
Mof_N 	N 	0.2366	0.418	0.4884	-0.169
Mof_N 	N 	0.1498	0.277	0.4151	-0.19
Mof_C 	C 	0.2703	0.562	0.5341	-0.017
Mof_H 	H 	0.2795	0.6259	0.5268	0.006
Mof_C 	C 	0.1348	0.215	0.3749	0.032
Mof_H 	H 	0.1452	0.1889	0.3458	-0.015
Mof_C 	C 	0.1048	0.181	0.3688	-0.019
Mof_H 	H 	0.0971	0.1273	0.3393	0.008
Mof_C 	C 	0.2528	0.497	0.4811	0.014
Mof_H 	H 	0.2537	0.5156	0.4404	0.006
Mof_C 	C 	0.1292	0.307	0.4466	-0.009
Mof_H 	H 	0.1364	0.3634	0.4744	0.005
Mof_C 	C 	0.2563	0.443	0.599	-0.016
Mof_H 	H 	0.257	0.4166	0.6386	0.007
Mof_N 	N 	0.0857	0.217	0.4018	-0.179
Mof_C 	C 	0.0121	0.816	0.3309	0.015
Mof_H 	H 	0.0217	0.7666	0.3105	-0.004
Mof_C 	C 	0.0268	0.917	0.3432	-0.019
Mof_H 	H 	0.045	0.932	0.3297	0.009
Mof_N 	N 	0.2731	0.529	0.594	-0.176
Mof_N 	N 	0.0146	0.994	0.3747	-0.179
Mof_C 	C 	0.9913	0.962	0.398	0.011
Mof_H 	H 	0.9845	0.0077	0.4252	-0.007
Mof_C 	C 	0.237	0.39	0.5442	0.009
Mof_H 	H 	0.2243	0.3331	0.55	0.003
Mof_N 	N 	0.9858	0.786	0.3459	-0.17
Mof_C 	C 	0.0988	0.272	0.446	0.025
Mof_H 	H 	0.0892	0.2893	0.4784	-0.013
Mof_C 	C 	0.9758	0.861	0.384	-0.028
Mof_H 	H 	0.9588	0.8443	0.4006	0.004
_end
