data_functionalizedCrystal
_audit_creation_method	'EQeq! by Chris Wilmer'
_symmetry_space_group_name_H-M	'P1'
_symmetry_Int_Tables_number	1
_symmetry_cell_setting	triclinic
loop_
_symmetry_equiv_pos_as_xyz
  x,y,z
_cell_length_a	11.34
_cell_length_b	15.77
_cell_length_c	22.9
_cell_angle_alpha	90
_cell_angle_beta	97.98
_cell_angle_gamma	90
loop_
_atom_site_label
_atom_site_type_symbol
_atom_site_fract_x
_atom_site_fract_y
_atom_site_fract_z
_atom_site_charge
Mof_Cu	Cu	0.387	0.75661	0.72854	0.854
Mof_N 	N 	0.2661	0.6736	0.6888	-0.242
Mof_N 	N 	0.1762	0.5506	0.6676	-0.094
Mof_N 	N 	0.1082	0.613	0.6418	-0.08
Mof_N 	N 	0.4897	0.7297	0.6683	-0.246
Mof_N 	N 	0.6405	0.666	0.6318	-0.099
Mof_N 	N 	0.5589	0.6952	0.5874	-0.085
Mof_N 	N 	0.5175	0.8338	0.7688	-0.243
Mof_C 	C 	0.5645	0.8401	0.8244	0.104
Mof_H 	H 	0.5407	0.8101	0.8558	-0.016
Mof_N 	N 	0.6508	0.8963	0.828	-0.1
Mof_N 	N 	0.6573	0.9248	0.7746	-0.079
Mof_C 	C 	0.5749	0.8862	0.738	0.09
Mof_H 	H 	0.5598	0.8944	0.6974	-0.014
Mof_N 	N 	0.2736	0.7888	0.784	-0.246
Mof_C 	C 	0.2417	0.8675	0.7949	0.09
Mof_H 	H 	0.2735	0.9167	0.7811	-0.007
Mof_N 	N 	0.1566	0.8638	0.8291	-0.094
Mof_N 	N 	0.1358	0.7827	0.8393	-0.081
Mof_C 	C 	0.2081	0.7364	0.8114	0.086
Mof_H 	H 	0.2122	0.6775	0.8112	-0.011
Mof_C 	C 	0.27	0.5897	0.6951	0.097
Mof_H 	H 	0.3333	0.5614	0.7169	-0.019
Mof_C 	C 	0.163	0.6857	0.6536	0.085
Mof_H 	H 	0.1342	0.7381	0.6396	-0.015
Mof_C 	C 	0.9927	0.5945	0.607	-0.135
Mof_H 	H 	0.9527	0.6478	0.5961	0.072
Mof_H 	H 	0.9444	0.5636	0.6315	0.085
Mof_C 	C 	0.9991	0.5449	0.5525	0.074
Mof_C 	C 	0.0781	0.566	0.5129	-0.064
Mof_H 	H 	0.1312	0.6107	0.5214	0.056
Mof_C 	C 	0.9225	0.4786	0.538	-0.082
Mof_H 	H 	0.8693	0.4637	0.5637	0.065
Mof_C 	C 	0.5953	0.6879	0.6792	0.086
Mof_H 	H 	0.6324	0.6759	0.7171	-0.014
Mof_C 	C 	0.4721	0.7323	0.6095	0.09
Mof_H 	H 	0.4065	0.7572	0.5871	-0.016
Mof_C 	C 	0.5667	0.6753	0.526	-0.124
Mof_H 	H 	0.6476	0.6846	0.5181	0.072
Mof_H 	H 	0.5146	0.7128	0.5006	0.063
Mof_C 	C 	0.5317	0.584	0.512	0.071
Mof_C 	C 	0.4257	0.5532	0.5233	-0.067
Mof_H 	H 	0.3732	0.5886	0.5395	0.059
Mof_C 	C 	0.6053	0.5307	0.489	-0.077
Mof_H 	H 	0.6788	0.5504	0.4812	0.063
Mof_C 	C 	0.7405	0.9918	0.7613	-0.135
Mof_H 	H 	0.7981	0.9683	0.7382	0.071
Mof_H 	H 	0.7833	0.0139	0.7977	0.082
Mof_C 	C 	0.6714	0.0634	0.7269	0.067
Mof_C 	C 	0.6403	0.0553	0.6665	-0.078
Mof_H 	H 	0.6667	0.0086	0.6471	0.053
Mof_C 	C 	0.571	0.1154	0.6351	-0.071
Mof_H 	H 	0.549	0.1085	0.5948	0.047
Mof_C 	C 	0.5333	0.1863	0.6629	0.055
Mof_C 	C 	0.5691	0.1959	0.7232	-0.06
Mof_H 	H 	0.5479	0.2444	0.7423	0.059
Mof_C 	C 	0.636	0.1336	0.7546	-0.08
Mof_H 	H 	0.6571	0.1395	0.7951	0.064
Mof_C 	C 	0.043	0.7532	0.8714	-0.123
Mof_H 	H 	0.9933	0.8007	0.8794	0.077
Mof_H 	H 	0.0786	0.7296	0.9089	0.065
Mof_Cu	Cu	0.113	0.25661	0.77146	0.853
Mof_N 	N 	0.2339	0.1736	0.8112	-0.243
Mof_N 	N 	0.3238	0.0506	0.8324	-0.096
Mof_N 	N 	0.3918	0.113	0.8582	-0.081
Mof_N 	N 	0.0103	0.2297	0.8317	-0.247
Mof_N 	N 	0.8595	0.166	0.8682	-0.1
Mof_N 	N 	0.9411	0.1952	0.9126	-0.085
Mof_N 	N 	0.9825	0.3338	0.7312	-0.243
Mof_C 	C 	0.9355	0.3401	0.6756	0.104
Mof_H 	H 	0.9593	0.3101	0.6442	-0.016
Mof_N 	N 	0.8492	0.3963	0.672	-0.1
Mof_N 	N 	0.8427	0.4248	0.7254	-0.079
Mof_C 	C 	0.9251	0.3862	0.762	0.09
Mof_H 	H 	0.9402	0.3944	0.8026	-0.014
Mof_N 	N 	0.2264	0.2888	0.716	-0.246
Mof_C 	C 	0.2583	0.3675	0.7051	0.09
Mof_H 	H 	0.2265	0.4167	0.7189	-0.007
Mof_N 	N 	0.3434	0.3638	0.6709	-0.095
Mof_N 	N 	0.3642	0.2827	0.6607	-0.081
Mof_C 	C 	0.2919	0.2364	0.6886	0.086
Mof_H 	H 	0.2878	0.1775	0.6888	-0.011
Mof_C 	C 	0.23	0.0897	0.8049	0.097
Mof_H 	H 	0.1667	0.0614	0.7831	-0.019
Mof_C 	C 	0.337	0.1857	0.8464	0.085
Mof_H 	H 	0.3658	0.2381	0.8604	-0.015
Mof_C 	C 	0.5073	0.0945	0.893	-0.134
Mof_H 	H 	0.5473	0.1478	0.9039	0.072
Mof_H 	H 	0.5556	0.0636	0.8685	0.085
Mof_C 	C 	0.5009	0.0449	0.9475	0.073
Mof_C 	C 	0.4219	0.066	0.9871	-0.065
Mof_H 	H 	0.3688	0.1107	0.9786	0.056
Mof_C 	C 	0.5775	0.9786	0.962	-0.081
Mof_H 	H 	0.6307	0.9637	0.9363	0.065
Mof_C 	C 	0.9047	0.1879	0.8208	0.087
Mof_H 	H 	0.8676	0.1759	0.7829	-0.014
Mof_C 	C 	0.0279	0.2323	0.8905	0.09
Mof_H 	H 	0.0935	0.2572	0.9129	-0.016
Mof_C 	C 	0.9333	0.1753	0.974	-0.124
Mof_H 	H 	0.8524	0.1846	0.9819	0.072
Mof_H 	H 	0.9854	0.2128	0.9994	0.064
Mof_C 	C 	0.9683	0.084	0.988	0.071
Mof_C 	C 	0.0743	0.0532	0.9767	-0.069
Mof_H 	H 	0.1268	0.0886	0.9605	0.06
Mof_C 	C 	0.8947	0.0307	0.011	-0.074
Mof_H 	H 	0.8212	0.0504	0.0188	0.063
Mof_C 	C 	0.7595	0.4918	0.7387	-0.135
Mof_H 	H 	0.7019	0.4683	0.7618	0.071
Mof_H 	H 	0.7167	0.5139	0.7023	0.082
Mof_C 	C 	0.8286	0.5634	0.7731	0.067
Mof_C 	C 	0.8597	0.5553	0.8335	-0.079
Mof_H 	H 	0.8333	0.5086	0.8529	0.053
Mof_C 	C 	0.929	0.6154	0.8649	-0.07
Mof_H 	H 	0.951	0.6085	0.9052	0.047
Mof_C 	C 	0.9667	0.6863	0.8371	0.054
Mof_C 	C 	0.9309	0.6959	0.7768	-0.06
Mof_H 	H 	0.9521	0.7444	0.7577	0.059
Mof_C 	C 	0.864	0.6336	0.7454	-0.081
Mof_H 	H 	0.8429	0.6395	0.7049	0.064
Mof_C 	C 	0.457	0.2532	0.6286	-0.124
Mof_H 	H 	0.5067	0.3007	0.6206	0.077
Mof_H 	H 	0.4214	0.2296	0.5911	0.065
Mof_Cu	Cu	0.613	0.24339	0.27146	0.853
Mof_N 	N 	0.7339	0.3264	0.3112	-0.243
Mof_N 	N 	0.8238	0.4494	0.3324	-0.095
Mof_N 	N 	0.8918	0.387	0.3582	-0.081
Mof_N 	N 	0.5103	0.2703	0.3317	-0.247
Mof_N 	N 	0.3595	0.334	0.3682	-0.1
Mof_N 	N 	0.4411	0.3048	0.4126	-0.085
Mof_N 	N 	0.4825	0.1662	0.2312	-0.243
Mof_C 	C 	0.4355	0.1599	0.1756	0.104
Mof_H 	H 	0.4593	0.1899	0.1442	-0.016
Mof_N 	N 	0.3492	0.1037	0.172	-0.1
Mof_N 	N 	0.3427	0.0752	0.2254	-0.079
Mof_C 	C 	0.4251	0.1138	0.262	0.09
Mof_H 	H 	0.4402	0.1056	0.3026	-0.014
Mof_N 	N 	0.7264	0.2112	0.216	-0.246
Mof_C 	C 	0.7583	0.1325	0.2051	0.09
Mof_H 	H 	0.7265	0.0833	0.2189	-0.007
Mof_N 	N 	0.8434	0.1362	0.1709	-0.094
Mof_N 	N 	0.8642	0.2173	0.1607	-0.081
Mof_C 	C 	0.7919	0.2636	0.1886	0.086
Mof_H 	H 	0.7878	0.3225	0.1888	-0.011
Mof_C 	C 	0.73	0.4103	0.3049	0.097
Mof_H 	H 	0.6667	0.4386	0.2831	-0.019
Mof_C 	C 	0.837	0.3143	0.3464	0.085
Mof_H 	H 	0.8658	0.2619	0.3604	-0.015
Mof_C 	C 	0.0073	0.4055	0.393	-0.135
Mof_H 	H 	0.0473	0.3522	0.4039	0.072
Mof_H 	H 	0.0556	0.4364	0.3685	0.085
Mof_C 	C 	0.0009	0.4551	0.4475	0.074
Mof_C 	C 	0.9219	0.434	0.4871	-0.064
Mof_H 	H 	0.8688	0.3893	0.4786	0.056
Mof_C 	C 	0.0775	0.5214	0.462	-0.082
Mof_H 	H 	0.1307	0.5363	0.4363	0.065
Mof_C 	C 	0.4047	0.3121	0.3208	0.086
Mof_H 	H 	0.3676	0.3241	0.2829	-0.014
Mof_C 	C 	0.5279	0.2677	0.3905	0.09
Mof_H 	H 	0.5935	0.2428	0.4129	-0.016
Mof_C 	C 	0.4333	0.3247	0.474	-0.124
Mof_H 	H 	0.3524	0.3154	0.4819	0.072
Mof_H 	H 	0.4854	0.2872	0.4994	0.063
Mof_C 	C 	0.4683	0.416	0.488	0.071
Mof_C 	C 	0.5743	0.4468	0.4767	-0.067
Mof_H 	H 	0.6268	0.4114	0.4605	0.059
Mof_C 	C 	0.3947	0.4693	0.511	-0.077
Mof_H 	H 	0.3212	0.4496	0.5188	0.063
Mof_C 	C 	0.2595	0.0082	0.2387	-0.135
Mof_H 	H 	0.2019	0.0317	0.2618	0.071
Mof_H 	H 	0.2167	0.9861	0.2023	0.082
Mof_C 	C 	0.3286	0.9366	0.2731	0.067
Mof_C 	C 	0.3597	0.9447	0.3335	-0.078
Mof_H 	H 	0.3333	0.9914	0.3529	0.053
Mof_C 	C 	0.429	0.8846	0.3649	-0.071
Mof_H 	H 	0.451	0.8915	0.4052	0.047
Mof_C 	C 	0.4667	0.8137	0.3371	0.055
Mof_C 	C 	0.4309	0.8041	0.2768	-0.06
Mof_H 	H 	0.4521	0.7556	0.2577	0.059
Mof_C 	C 	0.364	0.8664	0.2454	-0.08
Mof_H 	H 	0.3429	0.8605	0.2049	0.064
Mof_C 	C 	0.957	0.2468	0.1286	-0.123
Mof_H 	H 	0.0067	0.1993	0.1206	0.077
Mof_H 	H 	0.9214	0.2704	0.0911	0.065
Mof_Cu	Cu	0.887	0.74339	0.22854	0.853
Mof_N 	N 	0.7661	0.8264	0.1888	-0.243
Mof_N 	N 	0.6762	0.9494	0.1676	-0.096
Mof_N 	N 	0.6082	0.887	0.1418	-0.081
Mof_N 	N 	0.9897	0.7703	0.1683	-0.247
Mof_N 	N 	0.1405	0.834	0.1318	-0.1
Mof_N 	N 	0.0589	0.8048	0.0874	-0.085
Mof_N 	N 	0.0175	0.6662	0.2688	-0.243
Mof_C 	C 	0.0645	0.6599	0.3244	0.104
Mof_H 	H 	0.0407	0.6899	0.3558	-0.016
Mof_N 	N 	0.1508	0.6037	0.328	-0.1
Mof_N 	N 	0.1573	0.5752	0.2746	-0.079
Mof_C 	C 	0.0749	0.6138	0.238	0.09
Mof_H 	H 	0.0598	0.6056	0.1974	-0.014
Mof_N 	N 	0.7736	0.7112	0.284	-0.246
Mof_C 	C 	0.7417	0.6325	0.2949	0.09
Mof_H 	H 	0.7735	0.5833	0.2811	-0.007
Mof_N 	N 	0.6566	0.6362	0.3291	-0.095
Mof_N 	N 	0.6358	0.7173	0.3393	-0.081
Mof_C 	C 	0.7081	0.7636	0.3114	0.086
Mof_H 	H 	0.7122	0.8225	0.3112	-0.011
Mof_C 	C 	0.77	0.9103	0.1951	0.097
Mof_H 	H 	0.8333	0.9386	0.2169	-0.019
Mof_C 	C 	0.663	0.8143	0.1536	0.085
Mof_H 	H 	0.6342	0.7619	0.1396	-0.015
Mof_C 	C 	0.4927	0.9055	0.107	-0.134
Mof_H 	H 	0.4527	0.8522	0.0961	0.072
Mof_H 	H 	0.4444	0.9364	0.1315	0.085
Mof_C 	C 	0.4991	0.9551	0.0525	0.073
Mof_C 	C 	0.5781	0.934	0.0129	-0.065
Mof_H 	H 	0.6312	0.8893	0.0214	0.056
Mof_C 	C 	0.4225	0.0214	0.038	-0.081
Mof_H 	H 	0.3693	0.0363	0.0637	0.065
Mof_C 	C 	0.0953	0.8121	0.1792	0.087
Mof_H 	H 	0.1324	0.8241	0.2171	-0.014
Mof_C 	C 	0.9721	0.7677	0.1095	0.09
Mof_H 	H 	0.9065	0.7428	0.0871	-0.016
Mof_C 	C 	0.0667	0.8247	0.026	-0.124
Mof_H 	H 	0.1476	0.8154	0.0181	0.072
Mof_H 	H 	0.0146	0.7872	0.0006	0.064
Mof_C 	C 	0.0317	0.916	0.012	0.071
Mof_C 	C 	0.9257	0.9468	0.0233	-0.069
Mof_H 	H 	0.8732	0.9114	0.0395	0.06
Mof_C 	C 	0.1053	0.9693	0.989	-0.074
Mof_H 	H 	0.1788	0.9496	0.9812	0.063
Mof_C 	C 	0.2405	0.5082	0.2613	-0.135
Mof_H 	H 	0.2981	0.5317	0.2382	0.071
Mof_H 	H 	0.2833	0.4861	0.2977	0.082
Mof_C 	C 	0.1714	0.4366	0.2269	0.067
Mof_C 	C 	0.1403	0.4447	0.1665	-0.079
Mof_H 	H 	0.1667	0.4914	0.1471	0.053
Mof_C 	C 	0.071	0.3846	0.1351	-0.07
Mof_H 	H 	0.049	0.3915	0.0948	0.047
Mof_C 	C 	0.0333	0.3137	0.1629	0.054
Mof_C 	C 	0.0691	0.3041	0.2232	-0.06
Mof_H 	H 	0.0479	0.2556	0.2423	0.059
Mof_C 	C 	0.136	0.3664	0.2546	-0.081
Mof_H 	H 	0.1571	0.3605	0.2951	0.064
Mof_C 	C 	0.543	0.7468	0.3714	-0.124
Mof_H 	H 	0.4933	0.6993	0.3794	0.077
Mof_H 	H 	0.5786	0.7704	0.4089	0.065
_end
