data_functionalizedCrystal
_audit_creation_method	'EQeq! by Chris Wilmer'
_symmetry_space_group_name_H-M	'P1'
_symmetry_Int_Tables_number	1
_symmetry_cell_setting	triclinic
loop_
_symmetry_equiv_pos_as_xyz
  x,y,z
_cell_length_a	21.9285
_cell_length_b	21.9285
_cell_length_c	16.7265
_cell_angle_alpha	90
_cell_angle_beta	90
_cell_angle_gamma	90
loop_
_atom_site_label
_atom_site_type_symbol
_atom_site_fract_x
_atom_site_fract_y
_atom_site_fract_z
_atom_site_charge
Mof_La	La	0.32215	0.35802	0.86356	1.628
Mof_O 	O 	0.2485	0.389	0.7555	-0.513
Mof_O 	O 	0.2213	0.4314	0.6401	-0.474
Mof_O 	O 	0.5153	0.4242	0.7987	-0.525
Mof_O 	O 	0.4334	0.385	0.8567	-0.511
Mof_N 	N 	0.3629	0.4172	0.736	-0.169
Mof_C 	C 	0.4216	0.4333	0.731	-0.099
Mof_C 	C 	0.4442	0.467	0.6682	0.014
Mof_H 	H 	0.4853	0.4775	0.6664	0.001
Mof_C 	C 	0.4054	0.485	0.6081	-0.101
Mof_H 	H 	0.4197	0.5079	0.5653	0.04
Mof_C 	C 	0.3443	0.4681	0.6127	0.006
Mof_H 	H 	0.317	0.4788	0.5724	0.012
Mof_C 	C 	0.3252	0.4353	0.6779	-0.087
Mof_C 	C 	0.26	0.4171	0.6906	0.392
Mof_C 	C 	0.4596	0.4127	0.8001	0.396
Mof_La	La	0.82215	0.85802	0.36356	1.628
Mof_O 	O 	0.7485	0.889	0.2555	-0.514
Mof_O 	O 	0.7213	0.9314	0.1401	-0.476
Mof_O 	O 	0.0153	0.9242	0.2987	-0.527
Mof_O 	O 	0.9334	0.885	0.3567	-0.512
Mof_N 	N 	0.8629	0.9172	0.236	-0.169
Mof_C 	C 	0.9216	0.9333	0.231	-0.101
Mof_C 	C 	0.9442	0.967	0.1682	0.015
Mof_H 	H 	0.9853	0.9775	0.1664	-0.001
Mof_C 	C 	0.9054	0.985	0.1081	-0.105
Mof_H 	H 	0.9197	0.0079	0.0653	0.04
Mof_C 	C 	0.8443	0.9681	0.1127	0.007
Mof_H 	H 	0.817	0.9788	0.0724	0.011
Mof_C 	C 	0.8252	0.9353	0.1779	-0.087
Mof_C 	C 	0.76	0.9171	0.1906	0.392
Mof_C 	C 	0.9596	0.9127	0.3001	0.398
Mof_La	La	0.17785	0.64198	0.36356	1.628
Mof_O 	O 	0.2515	0.611	0.2555	-0.514
Mof_O 	O 	0.2787	0.5686	0.1401	-0.475
Mof_O 	O 	0.9847	0.5758	0.2987	-0.526
Mof_O 	O 	0.0666	0.615	0.3567	-0.512
Mof_N 	N 	0.1371	0.5828	0.236	-0.17
Mof_C 	C 	0.0784	0.5667	0.231	-0.1
Mof_C 	C 	0.0558	0.533	0.1682	0.013
Mof_H 	H 	0.0147	0.5225	0.1664	-0
Mof_C 	C 	0.0946	0.515	0.1081	-0.102
Mof_H 	H 	0.0803	0.4921	0.0653	0.039
Mof_C 	C 	0.1557	0.5319	0.1127	0.005
Mof_H 	H 	0.183	0.5212	0.0724	0.012
Mof_C 	C 	0.1748	0.5647	0.1779	-0.087
Mof_C 	C 	0.24	0.5829	0.1906	0.392
Mof_C 	C 	0.0404	0.5873	0.3001	0.396
Mof_La	La	0.67785	0.14198	0.86356	1.627
Mof_O 	O 	0.7515	0.111	0.7555	-0.514
Mof_O 	O 	0.7787	0.0686	0.6401	-0.475
Mof_O 	O 	0.4847	0.0758	0.7987	-0.526
Mof_O 	O 	0.5666	0.115	0.8567	-0.512
Mof_N 	N 	0.6371	0.0828	0.736	-0.169
Mof_C 	C 	0.5784	0.0667	0.731	-0.1
Mof_C 	C 	0.5558	0.033	0.6682	0.014
Mof_H 	H 	0.5147	0.0225	0.6664	-0.001
Mof_C 	C 	0.5946	0.015	0.6081	-0.104
Mof_H 	H 	0.5803	0.9921	0.5653	0.04
Mof_C 	C 	0.6557	0.0319	0.6127	0.006
Mof_H 	H 	0.683	0.0212	0.5724	0.012
Mof_C 	C 	0.6748	0.0647	0.6779	-0.087
Mof_C 	C 	0.74	0.0829	0.6906	0.392
Mof_C 	C 	0.5404	0.0873	0.8001	0.396
Mof_La	La	0.39198	0.57215	0.11356	1.628
Mof_O 	O 	0.361	0.4985	0.0055	-0.514
Mof_O 	O 	0.3186	0.4713	0.8901	-0.475
Mof_O 	O 	0.3258	0.7653	0.0487	-0.526
Mof_O 	O 	0.365	0.6834	0.1067	-0.511
Mof_N 	N 	0.3328	0.6129	0.986	-0.17
Mof_C 	C 	0.3167	0.6716	0.981	-0.099
Mof_C 	C 	0.283	0.6942	0.9182	0.012
Mof_H 	H 	0.2725	0.7353	0.9164	0
Mof_C 	C 	0.265	0.6554	0.8581	-0.102
Mof_H 	H 	0.2421	0.6697	0.8153	0.039
Mof_C 	C 	0.2819	0.5943	0.8627	0.005
Mof_H 	H 	0.2712	0.567	0.8224	0.012
Mof_C 	C 	0.3147	0.5752	0.9279	-0.086
Mof_C 	C 	0.3329	0.51	0.9406	0.392
Mof_C 	C 	0.3373	0.7096	0.0501	0.395
Mof_La	La	0.89198	0.07215	0.61356	1.626
Mof_O 	O 	0.861	0.9985	0.5055	-0.512
Mof_O 	O 	0.8186	0.9713	0.3901	-0.475
Mof_O 	O 	0.8258	0.2653	0.5487	-0.526
Mof_O 	O 	0.865	0.1834	0.6067	-0.512
Mof_N 	N 	0.8328	0.1129	0.486	-0.17
Mof_C 	C 	0.8167	0.1716	0.481	-0.1
Mof_C 	C 	0.783	0.1942	0.4182	0.013
Mof_H 	H 	0.7725	0.2353	0.4164	-0
Mof_C 	C 	0.765	0.1554	0.3581	-0.102
Mof_H 	H 	0.7421	0.1697	0.3153	0.039
Mof_C 	C 	0.7819	0.0943	0.3627	0.005
Mof_H 	H 	0.7712	0.067	0.3224	0.013
Mof_C 	C 	0.8147	0.0752	0.4279	-0.086
Mof_C 	C 	0.8329	0.01	0.4406	0.39
Mof_C 	C 	0.8373	0.2096	0.5501	0.396
Mof_La	La	0.10802	0.42785	0.61356	1.628
Mof_O 	O 	0.139	0.5015	0.5055	-0.514
Mof_O 	O 	0.1814	0.5287	0.3901	-0.475
Mof_O 	O 	0.1742	0.2347	0.5487	-0.526
Mof_O 	O 	0.135	0.3166	0.6067	-0.512
Mof_N 	N 	0.1672	0.3871	0.486	-0.17
Mof_C 	C 	0.1833	0.3284	0.481	-0.1
Mof_C 	C 	0.217	0.3058	0.4182	0.013
Mof_H 	H 	0.2275	0.2647	0.4164	-0
Mof_C 	C 	0.235	0.3446	0.3581	-0.102
Mof_H 	H 	0.2579	0.3303	0.3153	0.039
Mof_C 	C 	0.2181	0.4057	0.3627	0.005
Mof_H 	H 	0.2288	0.433	0.3224	0.012
Mof_C 	C 	0.1853	0.4248	0.4279	-0.087
Mof_C 	C 	0.1671	0.49	0.4406	0.392
Mof_C 	C 	0.1627	0.2904	0.5501	0.396
Mof_La	La	0.60802	0.92785	0.11356	1.625
Mof_O 	O 	0.639	0.0015	0.0055	-0.513
Mof_O 	O 	0.6814	0.0287	0.8901	-0.478
Mof_O 	O 	0.6742	0.7347	0.0487	-0.526
Mof_O 	O 	0.635	0.8166	0.1067	-0.511
Mof_N 	N 	0.6672	0.8871	0.986	-0.169
Mof_C 	C 	0.6833	0.8284	0.981	-0.098
Mof_C 	C 	0.717	0.8058	0.9182	0.012
Mof_H 	H 	0.7275	0.7647	0.9164	0
Mof_C 	C 	0.735	0.8446	0.8581	-0.102
Mof_H 	H 	0.7579	0.8303	0.8153	0.039
Mof_C 	C 	0.7181	0.9057	0.8627	0.006
Mof_H 	H 	0.7288	0.933	0.8224	0.013
Mof_C 	C 	0.6853	0.9248	0.9279	-0.087
Mof_C 	C 	0.6671	0.99	0.9406	0.395
Mof_C 	C 	0.6627	0.7904	0.0501	0.395
Mof_La	La	0.67785	0.64198	0.13644	1.627
Mof_O 	O 	0.7515	0.611	0.2445	-0.514
Mof_O 	O 	0.7787	0.5686	0.3599	-0.475
Mof_O 	O 	0.4847	0.5758	0.2013	-0.526
Mof_O 	O 	0.5666	0.615	0.1433	-0.512
Mof_N 	N 	0.6371	0.5828	0.264	-0.17
Mof_C 	C 	0.5784	0.5667	0.269	-0.1
Mof_C 	C 	0.5558	0.533	0.3318	0.013
Mof_H 	H 	0.5147	0.5225	0.3336	-0
Mof_C 	C 	0.5946	0.515	0.3919	-0.102
Mof_H 	H 	0.5803	0.4921	0.4347	0.039
Mof_C 	C 	0.6557	0.5319	0.3873	0.005
Mof_H 	H 	0.683	0.5212	0.4276	0.012
Mof_C 	C 	0.6748	0.5647	0.3221	-0.087
Mof_C 	C 	0.74	0.5829	0.3094	0.392
Mof_C 	C 	0.5404	0.5873	0.1999	0.396
Mof_La	La	0.17785	0.14198	0.63644	1.628
Mof_O 	O 	0.2515	0.111	0.7445	-0.514
Mof_O 	O 	0.2787	0.0686	0.8599	-0.476
Mof_O 	O 	0.9847	0.0758	0.7013	-0.527
Mof_O 	O 	0.0666	0.115	0.6433	-0.512
Mof_N 	N 	0.1371	0.0828	0.764	-0.169
Mof_C 	C 	0.0784	0.0667	0.769	-0.101
Mof_C 	C 	0.0558	0.033	0.8318	0.015
Mof_H 	H 	0.0147	0.0225	0.8336	-0.001
Mof_C 	C 	0.0946	0.015	0.8919	-0.105
Mof_H 	H 	0.0803	0.9921	0.9347	0.04
Mof_C 	C 	0.1557	0.0319	0.8873	0.007
Mof_H 	H 	0.183	0.0212	0.9276	0.011
Mof_C 	C 	0.1748	0.0647	0.8221	-0.087
Mof_C 	C 	0.24	0.0829	0.8094	0.392
Mof_C 	C 	0.0404	0.0873	0.6999	0.398
Mof_La	La	0.82215	0.35802	0.63644	1.628
Mof_O 	O 	0.7485	0.389	0.7445	-0.514
Mof_O 	O 	0.7213	0.4314	0.8599	-0.475
Mof_O 	O 	0.0153	0.4242	0.7013	-0.526
Mof_O 	O 	0.9334	0.385	0.6433	-0.512
Mof_N 	N 	0.8629	0.4172	0.764	-0.17
Mof_C 	C 	0.9216	0.4333	0.769	-0.1
Mof_C 	C 	0.9442	0.467	0.8318	0.013
Mof_H 	H 	0.9853	0.4775	0.8336	-0
Mof_C 	C 	0.9054	0.485	0.8919	-0.102
Mof_H 	H 	0.9197	0.5079	0.9347	0.039
Mof_C 	C 	0.8443	0.4681	0.8873	0.005
Mof_H 	H 	0.817	0.4788	0.9276	0.012
Mof_C 	C 	0.8252	0.4353	0.8221	-0.087
Mof_C 	C 	0.76	0.4171	0.8094	0.392
Mof_C 	C 	0.9596	0.4127	0.6999	0.396
Mof_La	La	0.32215	0.85802	0.13644	1.627
Mof_O 	O 	0.2485	0.889	0.2445	-0.514
Mof_O 	O 	0.2213	0.9314	0.3599	-0.475
Mof_O 	O 	0.5153	0.9242	0.2013	-0.526
Mof_O 	O 	0.4334	0.885	0.1433	-0.512
Mof_N 	N 	0.3629	0.9172	0.264	-0.169
Mof_C 	C 	0.4216	0.9333	0.269	-0.1
Mof_C 	C 	0.4442	0.967	0.3318	0.014
Mof_H 	H 	0.4853	0.9775	0.3336	-0.001
Mof_C 	C 	0.4054	0.985	0.3919	-0.104
Mof_H 	H 	0.4197	0.0079	0.4347	0.04
Mof_C 	C 	0.3443	0.9681	0.3873	0.006
Mof_H 	H 	0.317	0.9788	0.4276	0.012
Mof_C 	C 	0.3252	0.9353	0.3221	-0.087
Mof_C 	C 	0.26	0.9171	0.3094	0.392
Mof_C 	C 	0.4596	0.9127	0.1999	0.396
Mof_La	La	0.60802	0.42785	0.88644	1.628
Mof_O 	O 	0.639	0.5015	0.9945	-0.514
Mof_O 	O 	0.6814	0.5287	0.1099	-0.475
Mof_O 	O 	0.6742	0.2347	0.9513	-0.526
Mof_O 	O 	0.635	0.3166	0.8933	-0.511
Mof_N 	N 	0.6672	0.3871	0.014	-0.17
Mof_C 	C 	0.6833	0.3284	0.019	-0.099
Mof_C 	C 	0.717	0.3058	0.0818	0.012
Mof_H 	H 	0.7275	0.2647	0.0836	0
Mof_C 	C 	0.735	0.3446	0.1419	-0.102
Mof_H 	H 	0.7579	0.3303	0.1847	0.039
Mof_C 	C 	0.7181	0.4057	0.1373	0.005
Mof_H 	H 	0.7288	0.433	0.1776	0.012
Mof_C 	C 	0.6853	0.4248	0.0721	-0.086
Mof_C 	C 	0.6671	0.49	0.0594	0.392
Mof_C 	C 	0.6627	0.2904	0.9499	0.395
Mof_La	La	0.10802	0.92785	0.38644	1.626
Mof_O 	O 	0.139	0.0015	0.4945	-0.512
Mof_O 	O 	0.1814	0.0287	0.6099	-0.475
Mof_O 	O 	0.1742	0.7347	0.4513	-0.526
Mof_O 	O 	0.135	0.8166	0.3933	-0.512
Mof_N 	N 	0.1672	0.8871	0.514	-0.17
Mof_C 	C 	0.1833	0.8284	0.519	-0.1
Mof_C 	C 	0.217	0.8058	0.5818	0.013
Mof_H 	H 	0.2275	0.7647	0.5836	-0
Mof_C 	C 	0.235	0.8446	0.6419	-0.102
Mof_H 	H 	0.2579	0.8303	0.6847	0.039
Mof_C 	C 	0.2181	0.9057	0.6373	0.005
Mof_H 	H 	0.2288	0.933	0.6776	0.013
Mof_C 	C 	0.1853	0.9248	0.5721	-0.086
Mof_C 	C 	0.1671	0.99	0.5594	0.39
Mof_C 	C 	0.1627	0.7904	0.4499	0.396
Mof_La	La	0.89198	0.57215	0.38644	1.628
Mof_O 	O 	0.861	0.4985	0.4945	-0.514
Mof_O 	O 	0.8186	0.4713	0.6099	-0.475
Mof_O 	O 	0.8258	0.7653	0.4513	-0.526
Mof_O 	O 	0.865	0.6834	0.3933	-0.512
Mof_N 	N 	0.8328	0.6129	0.514	-0.17
Mof_C 	C 	0.8167	0.6716	0.519	-0.1
Mof_C 	C 	0.783	0.6942	0.5818	0.013
Mof_H 	H 	0.7725	0.7353	0.5836	-0
Mof_C 	C 	0.765	0.6554	0.6419	-0.102
Mof_H 	H 	0.7421	0.6697	0.6847	0.039
Mof_C 	C 	0.7819	0.5943	0.6373	0.005
Mof_H 	H 	0.7712	0.567	0.6776	0.012
Mof_C 	C 	0.8147	0.5752	0.5721	-0.087
Mof_C 	C 	0.8329	0.51	0.5594	0.392
Mof_C 	C 	0.8373	0.7096	0.4499	0.396
Mof_La	La	0.39198	0.07215	0.88644	1.625
Mof_O 	O 	0.361	0.9985	0.9945	-0.513
Mof_O 	O 	0.3186	0.9713	0.1099	-0.478
Mof_O 	O 	0.3258	0.2653	0.9513	-0.526
Mof_O 	O 	0.365	0.1834	0.8933	-0.511
Mof_N 	N 	0.3328	0.1129	0.014	-0.169
Mof_C 	C 	0.3167	0.1716	0.019	-0.098
Mof_C 	C 	0.283	0.1942	0.0818	0.012
Mof_H 	H 	0.2725	0.2353	0.0836	0
Mof_C 	C 	0.265	0.1554	0.1419	-0.102
Mof_H 	H 	0.2421	0.1697	0.1847	0.039
Mof_C 	C 	0.2819	0.0943	0.1373	0.006
Mof_H 	H 	0.2712	0.067	0.1776	0.013
Mof_C 	C 	0.3147	0.0752	0.0721	-0.087
Mof_C 	C 	0.3329	0.01	0.0594	0.395
Mof_C 	C 	0.3373	0.2096	0.9499	0.395
_end
