data_functionalizedCrystal
_audit_creation_method	'EQeq! by Chris Wilmer'
_symmetry_space_group_name_H-M	'P1'
_symmetry_Int_Tables_number	1
_symmetry_cell_setting	triclinic
loop_
_symmetry_equiv_pos_as_xyz
  x,y,z
_cell_length_a	10.5136
_cell_length_b	11.465
_cell_length_c	13.4175
_cell_angle_alpha	69.084
_cell_angle_beta	78.607
_cell_angle_gamma	63.542
loop_
_atom_site_label
_atom_site_type_symbol
_atom_site_fract_x
_atom_site_fract_y
_atom_site_fract_z
_atom_site_charge
Mof_U 	U 	0.62304	0.71343	0.8364	0.006
Mof_Er	Er	0.59886	0.23045	0.75015	1.375
Mof_O 	O 	0.8495	0.5374	0.9137	-0.193
Mof_O 	O 	0.7608	0.4964	0.8017	-0.19
Mof_O 	O 	0.8131	0.2357	0.7709	-0.44
Mof_O 	O 	0.8861	0.3636	0.6269	-0.226
Mof_O 	O 	0.4185	0.92	0.8193	-0.21
Mof_O 	O 	0.5039	0.0784	0.7536	-0.42
Mof_O 	O 	0.4841	0.1769	0.9168	-0.407
Mof_O 	O 	0.327	0.1971	0.0514	-0.209
Mof_O 	O 	0.5008	0.6939	0.7181	-0.19
Mof_O 	O 	0.4097	0.7016	0.5808	-0.267
Mof_O 	O 	0.7329	0.634	0.534	-0.201
Mof_O 	O 	0.8654	0.7496	0.4788	-0.199
Mof_C 	C 	0.9979	0.3435	0.8528	-0.01
Mof_C 	C 	0.1111	0.3129	0.9095	-0.032
Mof_H 	H 	0.0968	0.3586	0.9584	0.08
Mof_C 	C 	0.246	0.2151	0.8948	-0.057
Mof_C 	C 	0.2657	0.1413	0.8247	-0.084
Mof_C 	C 	0.1468	0.1661	0.7745	0.026
Mof_H 	H 	0.158	0.1126	0.7325	0.043
Mof_C 	C 	0.0133	0.2673	0.7854	-0.074
Mof_C 	C 	0.6263	0.9994	0.4501	-0.012
Mof_H 	H 	0.7126	0.9985	0.4158	0.058
Mof_C 	C 	0.6164	0.8759	0.5054	-0.035
Mof_C 	C 	0.487	0.8762	0.5561	-0.035
Mof_C 	C 	0.8609	0.4618	0.8592	0.263
Mof_C 	C 	0.3622	0.1944	0.9557	0.335
Mof_C 	C 	0.4068	0.0416	0.7958	0.361
Mof_C 	C 	0.8937	0.2912	0.7255	0.377
Mof_C 	C 	0.468	0.7475	0.6213	0.29
Mof_C 	C 	0.7445	0.7454	0.5079	0.273
Mof_U 	U 	0.37696	0.28657	0.1636	0.007
Mof_Er	Er	0.40114	0.76955	0.24985	1.376
Mof_O 	O 	0.1505	0.4626	0.0863	-0.192
Mof_O 	O 	0.2392	0.5036	0.1983	-0.189
Mof_O 	O 	0.1869	0.7643	0.2291	-0.44
Mof_O 	O 	0.1139	0.6364	0.3731	-0.226
Mof_O 	O 	0.5815	0.08	0.1807	-0.21
Mof_O 	O 	0.4961	0.9216	0.2464	-0.419
Mof_O 	O 	0.5159	0.8231	0.0832	-0.407
Mof_O 	O 	0.673	0.8029	0.9486	-0.209
Mof_O 	O 	0.4992	0.3061	0.2819	-0.19
Mof_O 	O 	0.5903	0.2984	0.4192	-0.267
Mof_O 	O 	0.2671	0.366	0.466	-0.201
Mof_O 	O 	0.1346	0.2504	0.5212	-0.199
Mof_C 	C 	0.0021	0.6565	0.1472	-0.011
Mof_C 	C 	0.8889	0.6871	0.0905	-0.031
Mof_H 	H 	0.9032	0.6414	0.0416	0.08
Mof_C 	C 	0.754	0.7849	0.1052	-0.058
Mof_C 	C 	0.7343	0.8587	0.1753	-0.084
Mof_C 	C 	0.8532	0.8339	0.2255	0.025
Mof_H 	H 	0.842	0.8874	0.2675	0.043
Mof_C 	C 	0.9867	0.7327	0.2146	-0.073
Mof_C 	C 	0.3737	0.0006	0.5499	-0.012
Mof_H 	H 	0.2874	0.0015	0.5842	0.058
Mof_C 	C 	0.3836	0.1241	0.4946	-0.035
Mof_C 	C 	0.513	0.1238	0.4439	-0.035
Mof_C 	C 	0.1391	0.5382	0.1408	0.264
Mof_C 	C 	0.6378	0.8056	0.0443	0.335
Mof_C 	C 	0.5932	0.9584	0.2042	0.361
Mof_C 	C 	0.1063	0.7088	0.2745	0.376
Mof_C 	C 	0.532	0.2525	0.3787	0.29
Mof_C 	C 	0.2555	0.2546	0.4921	0.273
Mof_U 	U 	-2.10362e-17	0.5	0.5	0.004
_end
