data_functionalizedCrystal
_audit_creation_method	'EQeq! by Chris Wilmer'
_symmetry_space_group_name_H-M	'P1'
_symmetry_Int_Tables_number	1
_symmetry_cell_setting	triclinic
loop_
_symmetry_equiv_pos_as_xyz
  x,y,z
_cell_length_a	23.833
_cell_length_b	23.833
_cell_length_c	23.833
_cell_angle_alpha	109.471
_cell_angle_beta	109.471
_cell_angle_gamma	109.471
loop_
_atom_site_label
_atom_site_type_symbol
_atom_site_fract_x
_atom_site_fract_y
_atom_site_fract_z
_atom_site_charge
Mof_Eu	Eu	0.45234	0.45234	0.95234	2.562
Mof_Eu	Eu	-4.36367e-17	0.5	0.54766	2.392
Mof_Eu	Eu	0.5	0.04766	0.5	2.433
Mof_Eu	Eu	0.04766	0	-0	2.247
Mof_Eu	Eu	-2.04547e-17	0.5	0.04766	2.345
Mof_Eu	Eu	0.95234	0.95234	0.45234	2.62
Mof_Eu	Eu	0.5	0.54766	0.5	2.498
Mof_Eu	Eu	0.54766	0	-0	2.321
Mof_H 	H 	0.646	0.5008	0.1808	0.157
Mof_H 	H 	0.7012	0.3806	0.2214	0.063
Mof_H 	H 	0.6302	0.3125	0.1665	0.057
Mof_H 	H 	0.6738	0.3149	0.1045	0.077
Mof_H 	H 	0.6909	0.3042	0.0091	0.079
Mof_H 	H 	0.6593	0.3564	0.9529	0.015
Mof_H 	H 	0.6071	0.4145	0.9832	0.105
Mof_H 	H 	0.6185	0.5947	0.1754	0.094
Mof_H 	H 	0.5428	0.5328	0.1358	0.084
Mof_H 	H 	0.5192	0.4677	0.2119	0.083
Mof_H 	H 	0.547	0.5301	0.3345	0.06
Mof_H 	H 	0.6505	0.6487	0.3928	0.046
Mof_H 	H 	0.82	0.4652	0.3192	0.162
Mof_H 	H 	0.6592	0.4798	0.2786	0.056
Mof_H 	H 	0.646	0.4637	0.3335	0.05
Mof_H 	H 	0.7104	0.5693	0.3955	0.146
Mof_H 	H 	0.7951	0.6818	0.4909	-0.024
Mof_H 	H 	0.9035	0.7064	0.5471	0.153
Mof_H 	H 	0.9313	0.6239	0.5168	-0.021
Mof_H 	H 	0.9193	0.4431	0.3246	0.103
Mof_H 	H 	0.897	0.407	0.3642	0.09
Mof_H 	H 	0.7558	0.3073	0.2881	0.084
Mof_H 	H 	0.6956	0.2125	0.1655	0.061
Mof_H 	H 	0.7559	0.2577	0.1072	0.04
Mof_H 	H 	0.68	0.9992	0.6452	0.168
Mof_H 	H 	0.8408	0.1194	0.8206	0.054
Mof_H 	H 	0.854	0.1875	0.8177	0.051
Mof_H 	H 	0.7896	0.1851	0.8589	0.146
Mof_H 	H 	0.7049	0.1958	0.8867	-0.022
Mof_H 	H 	0.5965	0.1436	0.8029	0.146
Mof_H 	H 	0.5687	0.0855	0.6926	-0.035
Mof_H 	H 	0.5807	0.9053	0.5238	0.089
Mof_H 	H 	0.603	0.9672	0.51	0.089
Mof_H 	H 	0.7442	0.0323	0.5515	0.042
Mof_H 	H 	0.8044	0.9699	0.5169	0.079
Mof_H 	H 	0.7441	0.8513	0.5018	0.041
Mof_H 	H 	0.854	0.0348	0.8548	0.157
Mof_H 	H 	0.7988	0.0202	0.6794	0.041
Mof_H 	H 	0.8698	0.0363	0.6823	0.04
Mof_H 	H 	0.8262	0.9307	0.6411	0.16
Mof_H 	H 	0.8091	0.8182	0.6133	-0.031
Mof_H 	H 	0.8407	0.7936	0.6971	0.156
Mof_H 	H 	0.8929	0.8761	0.8074	-0.033
Mof_H 	H 	0.8815	0.0569	0.9762	0.103
Mof_H 	H 	0.9572	0.093	0.99	0.109
Mof_H 	H 	0.9808	0.1927	0.9485	0.098
Mof_H 	H 	0.953	0.2875	0.9831	0.074
Mof_H 	H 	0.8495	0.2423	0.9982	0.053
Mof_H 	H 	0.1452	0.68	0.4992	0.161
Mof_H 	H 	0.3206	0.8408	0.6194	0.057
Mof_H 	H 	0.3177	0.854	0.6875	0.052
Mof_H 	H 	0.3589	0.7896	0.6851	0.147
Mof_H 	H 	0.3867	0.7049	0.6958	-0.026
Mof_H 	H 	0.3029	0.5965	0.6436	0.15
Mof_H 	H 	0.1926	0.5687	0.5855	-0.033
Mof_H 	H 	0.0238	0.5807	0.4053	0.083
Mof_H 	H 	0.01	0.603	0.4672	0.073
Mof_H 	H 	0.0515	0.7442	0.5323	0.079
Mof_H 	H 	0.0169	0.8044	0.4699	0.055
Mof_H 	H 	0.0018	0.7441	0.3513	0.039
Mof_H 	H 	0.3548	0.854	0.5348	0.16
Mof_H 	H 	0.1794	0.7988	0.5202	0.057
Mof_H 	H 	0.1823	0.8698	0.5363	0.052
Mof_H 	H 	0.1411	0.8262	0.4307	0.146
Mof_H 	H 	0.1133	0.8091	0.3182	-0.028
Mof_H 	H 	0.1971	0.8407	0.2936	0.15
Mof_H 	H 	0.3074	0.8929	0.3761	-0.03
Mof_H 	H 	0.4762	0.8815	0.5569	0.097
Mof_H 	H 	0.49	0.9572	0.593	0.096
Mof_H 	H 	0.4485	0.9808	0.6927	0.092
Mof_H 	H 	0.4831	0.953	0.7875	0.068
Mof_H 	H 	0.4982	0.8495	0.7423	0.046
Mof_H 	H 	0.6808	0.646	0.0008	0.154
Mof_H 	H 	0.7214	0.7012	0.8806	0.058
Mof_H 	H 	0.6665	0.6302	0.8125	0.05
Mof_H 	H 	0.6045	0.6738	0.8149	0.15
Mof_H 	H 	0.5091	0.6909	0.8042	-0.029
Mof_H 	H 	0.4529	0.6593	0.8564	0.155
Mof_H 	H 	0.4832	0.6071	0.9145	-0.033
Mof_H 	H 	0.6754	0.6185	0.0947	0.096
Mof_H 	H 	0.6358	0.5428	0.0328	0.079
Mof_H 	H 	0.7119	0.5192	0.9677	0.127
Mof_H 	H 	0.8345	0.547	0.0301	0.041
Mof_H 	H 	0.8928	0.6505	0.1487	0.057
Mof_H 	H 	0.8192	0.82	0.9652	0.168
Mof_H 	H 	0.7786	0.6592	0.9798	0.067
Mof_H 	H 	0.8335	0.646	0.9637	0.057
Mof_H 	H 	0.8955	0.7104	0.0693	0.195
Mof_H 	H 	0.9909	0.7951	0.1818	-0.112
Mof_H 	H 	0.0471	0.9035	0.2064	0.271
Mof_H 	H 	0.0168	0.9313	0.1239	-0.14
Mof_H 	H 	0.8246	0.9193	0.9431	0.109
Mof_H 	H 	0.8642	0.897	0.907	0.096
Mof_H 	H 	0.7881	0.7558	0.8073	0.086
Mof_H 	H 	0.6655	0.6956	0.7125	0.06
Mof_H 	H 	0.6072	0.7559	0.7577	0.047
Mof_H 	H 	0.4652	0.8192	0.32	0.166
Mof_H 	H 	0.4798	0.7786	0.1592	0.049
Mof_H 	H 	0.4637	0.8335	0.146	0.042
Mof_H 	H 	0.5693	0.8955	0.2104	0.217
Mof_H 	H 	0.6818	0.9909	0.2951	-0.129
Mof_H 	H 	0.7064	0.0471	0.4035	0.284
Mof_H 	H 	0.6239	0.0168	0.4313	-0.168
Mof_H 	H 	0.4431	0.8246	0.4193	0.092
Mof_H 	H 	0.407	0.8642	0.397	0.084
Mof_H 	H 	0.3073	0.7881	0.2558	0.084
Mof_H 	H 	0.2125	0.6655	0.1956	0.062
Mof_H 	H 	0.2577	0.6072	0.2559	0.045
Mof_H 	H 	0.5008	0.6808	0.146	0.162
Mof_H 	H 	0.3806	0.7214	0.2012	0.054
Mof_H 	H 	0.3125	0.6665	0.1302	0.046
Mof_H 	H 	0.3149	0.6045	0.1738	0.15
Mof_H 	H 	0.3042	0.5091	0.1909	-0.03
Mof_H 	H 	0.3564	0.4529	0.1593	0.152
Mof_H 	H 	0.4145	0.4832	0.1071	-0.039
Mof_H 	H 	0.5947	0.6754	0.1185	0.088
Mof_H 	H 	0.5328	0.6358	0.0428	0.072
Mof_H 	H 	0.4677	0.7119	0.0192	0.075
Mof_H 	H 	0.5301	0.8345	0.047	0.055
Mof_H 	H 	0.6487	0.8928	0.1505	0.051
Mof_H 	H 	0.0348	0.3548	0.354	0.158
Mof_H 	H 	0.0202	0.1794	0.2988	0.035
Mof_H 	H 	0.0363	0.1823	0.3698	0.032
Mof_H 	H 	0.9307	0.1411	0.3262	0.17
Mof_H 	H 	0.8182	0.1133	0.3091	-0.043
Mof_H 	H 	0.7936	0.1971	0.3407	0.164
Mof_H 	H 	0.8761	0.3074	0.3929	-0.044
Mof_H 	H 	0.0569	0.4762	0.3815	0.084
Mof_H 	H 	0.093	0.49	0.4572	0.079
Mof_H 	H 	0.1927	0.4485	0.4808	0.082
Mof_H 	H 	0.2875	0.4831	0.453	0.061
Mof_H 	H 	0.2423	0.4982	0.3495	0.045
Mof_H 	H 	0.9992	0.1452	0.18	0.169
Mof_H 	H 	0.1194	0.3206	0.3408	0.053
Mof_H 	H 	0.1875	0.3177	0.354	0.049
Mof_H 	H 	0.1851	0.3589	0.2896	0.145
Mof_H 	H 	0.1958	0.3867	0.2049	-0.025
Mof_H 	H 	0.1436	0.3029	0.0965	0.139
Mof_H 	H 	0.0855	0.1926	0.0687	-0.042
Mof_H 	H 	0.9053	0.0238	0.0807	0.073
Mof_H 	H 	0.9672	0.01	0.103	0.079
Mof_H 	H 	0.0323	0.0515	0.2442	0.024
Mof_H 	H 	0.9699	0.0169	0.3044	0.082
Mof_H 	H 	0.8513	0.0018	0.2441	0.033
Mof_H 	H 	0.9652	0.32	0.8192	0.168
Mof_H 	H 	0.9798	0.1592	0.7786	0.069
Mof_H 	H 	0.9637	0.146	0.8335	0.058
Mof_H 	H 	0.0693	0.2104	0.8955	0.196
Mof_H 	H 	0.1818	0.2951	0.9909	-0.118
Mof_H 	H 	0.2064	0.4035	0.0471	0.273
Mof_H 	H 	0.1239	0.4313	0.0168	-0.159
Mof_H 	H 	0.9431	0.4193	0.8246	0.101
Mof_H 	H 	0.907	0.397	0.8642	0.092
Mof_H 	H 	0.8073	0.2558	0.7881	0.085
Mof_H 	H 	0.7125	0.1956	0.6655	0.061
Mof_H 	H 	0.7577	0.2559	0.6072	0.046
Mof_H 	H 	0.0008	0.146	0.6808	0.153
Mof_H 	H 	0.8806	0.2012	0.7214	0.057
Mof_H 	H 	0.8125	0.1302	0.6665	0.048
Mof_H 	H 	0.8149	0.1738	0.6045	0.152
Mof_H 	H 	0.8042	0.1909	0.5091	-0.032
Mof_H 	H 	0.8564	0.1593	0.4529	0.157
Mof_H 	H 	0.9145	0.1071	0.4832	-0.037
Mof_H 	H 	0.0947	0.1185	0.6754	0.091
Mof_H 	H 	0.0328	0.0428	0.6358	0.066
Mof_H 	H 	0.9677	0.0192	0.7119	0.129
Mof_H 	H 	0.0301	0.047	0.8345	0.03
Mof_H 	H 	0.1487	0.1505	0.8928	0.057
Mof_H 	H 	0.5348	0.354	0.3548	0.16
Mof_H 	H 	0.5202	0.2988	0.1794	0.055
Mof_H 	H 	0.5363	0.3698	0.1823	0.049
Mof_H 	H 	0.4307	0.3262	0.1411	0.148
Mof_H 	H 	0.3182	0.3091	0.1133	-0.031
Mof_H 	H 	0.2936	0.3407	0.1971	0.151
Mof_H 	H 	0.3761	0.3929	0.3074	-0.035
Mof_H 	H 	0.5569	0.3815	0.4762	0.092
Mof_H 	H 	0.593	0.4572	0.49	0.084
Mof_H 	H 	0.6927	0.4808	0.4485	0.083
Mof_H 	H 	0.7875	0.453	0.4831	0.061
Mof_H 	H 	0.7423	0.3495	0.4982	0.046
Mof_H 	H 	0.4992	0.18	0.1452	0.159
Mof_H 	H 	0.6194	0.3408	0.3206	0.056
Mof_H 	H 	0.6875	0.354	0.3177	0.05
Mof_H 	H 	0.6851	0.2896	0.3589	0.147
Mof_H 	H 	0.6958	0.2049	0.3867	-0.027
Mof_H 	H 	0.6436	0.0965	0.3029	0.144
Mof_H 	H 	0.5855	0.0687	0.1926	-0.041
Mof_H 	H 	0.4053	0.0807	0.0238	0.075
Mof_H 	H 	0.4672	0.103	0.01	0.072
Mof_H 	H 	0.5323	0.2442	0.0515	0.079
Mof_H 	H 	0.4699	0.3044	0.0169	0.056
Mof_H 	H 	0.3513	0.2441	0.0018	0.038
Mof_H 	H 	0.146	0.1808	0.5008	0.156
Mof_H 	H 	0.2012	0.2214	0.3806	0.06
Mof_H 	H 	0.1302	0.1665	0.3125	0.053
Mof_H 	H 	0.1738	0.1045	0.3149	0.07
Mof_H 	H 	0.1909	0.0091	0.3042	0.087
Mof_H 	H 	0.1593	0.9529	0.3564	-0.001
Mof_H 	H 	0.1071	0.9832	0.4145	0.115
Mof_H 	H 	0.1185	0.1754	0.5947	0.087
Mof_H 	H 	0.0428	0.1358	0.5328	0.07
Mof_H 	H 	0.0192	0.2119	0.4677	0.073
Mof_H 	H 	0.047	0.3345	0.5301	0.053
Mof_H 	H 	0.1505	0.3928	0.6487	0.044
Mof_H 	H 	0.32	0.3192	0.4652	0.161
Mof_H 	H 	0.1592	0.2786	0.4798	0.054
Mof_H 	H 	0.146	0.3335	0.4637	0.048
Mof_H 	H 	0.2104	0.3955	0.5693	0.148
Mof_H 	H 	0.2951	0.4909	0.6818	-0.027
Mof_H 	H 	0.4035	0.5471	0.7064	0.151
Mof_H 	H 	0.4313	0.5168	0.6239	-0.034
Mof_H 	H 	0.4193	0.3246	0.4431	0.092
Mof_H 	H 	0.397	0.3642	0.407	0.084
Mof_H 	H 	0.2558	0.2881	0.3073	0.083
Mof_H 	H 	0.1956	0.1655	0.2125	0.063
Mof_H 	H 	0.2559	0.1072	0.2577	0.038
Mof_H 	H 	0.18	0.6452	0.9992	0.167
Mof_H 	H 	0.3408	0.8206	0.1194	0.052
Mof_H 	H 	0.354	0.8177	0.1875	0.049
Mof_H 	H 	0.2896	0.8589	0.1851	0.146
Mof_H 	H 	0.2049	0.8867	0.1958	-0.022
Mof_H 	H 	0.0965	0.8029	0.1436	0.141
Mof_H 	H 	0.0687	0.6926	0.0855	-0.043
Mof_H 	H 	0.0807	0.5238	0.9053	0.08
Mof_H 	H 	0.103	0.51	0.9672	0.087
Mof_H 	H 	0.2442	0.5515	0.0323	0.039
Mof_H 	H 	0.3044	0.5169	0.9699	0.081
Mof_H 	H 	0.2441	0.5018	0.8513	0.04
Mof_H 	H 	0.354	0.8548	0.0348	0.158
Mof_H 	H 	0.2988	0.6794	0.0202	0.038
Mof_H 	H 	0.3698	0.6823	0.0363	0.036
Mof_H 	H 	0.3262	0.6411	0.9307	0.164
Mof_H 	H 	0.3091	0.6133	0.8182	-0.036
Mof_H 	H 	0.3407	0.6971	0.7936	0.159
Mof_H 	H 	0.3929	0.8074	0.8761	-0.039
Mof_H 	H 	0.3815	0.9762	0.0569	0.097
Mof_H 	H 	0.4572	0.99	0.093	0.094
Mof_H 	H 	0.4808	0.9485	0.1927	0.087
Mof_H 	H 	0.453	0.9831	0.2875	0.065
Mof_H 	H 	0.3495	0.9982	0.2423	0.053
Mof_H 	H 	0.6452	0.4992	0.68	0.161
Mof_H 	H 	0.8206	0.6194	0.8408	0.056
Mof_H 	H 	0.8177	0.6875	0.854	0.052
Mof_H 	H 	0.8589	0.6851	0.7896	0.148
Mof_H 	H 	0.8867	0.6958	0.7049	-0.024
Mof_H 	H 	0.8029	0.6436	0.5965	0.151
Mof_H 	H 	0.6926	0.5855	0.5687	-0.034
Mof_H 	H 	0.5238	0.4053	0.5807	0.092
Mof_H 	H 	0.51	0.4672	0.603	0.084
Mof_H 	H 	0.5515	0.5323	0.7442	0.083
Mof_H 	H 	0.5169	0.4699	0.8044	0.06
Mof_H 	H 	0.5018	0.3513	0.7441	0.045
Mof_H 	H 	0.8548	0.5348	0.854	0.159
Mof_H 	H 	0.6794	0.5202	0.7988	0.056
Mof_H 	H 	0.6823	0.5363	0.8698	0.051
Mof_H 	H 	0.6411	0.4307	0.8262	0.145
Mof_H 	H 	0.6133	0.3182	0.8091	-0.023
Mof_H 	H 	0.6971	0.2936	0.8407	0.148
Mof_H 	H 	0.8074	0.3761	0.8929	-0.027
Mof_H 	H 	0.9762	0.5569	0.8815	0.108
Mof_H 	H 	0.99	0.593	0.9572	0.11
Mof_H 	H 	0.9485	0.6927	0.9808	0.096
Mof_H 	H 	0.9831	0.7875	0.953	0.073
Mof_H 	H 	0.9982	0.7423	0.8495	0.053
Mof_H 	H 	0.1808	0.0008	0.646	0.148
Mof_H 	H 	0.2214	0.8806	0.7012	0.064
Mof_H 	H 	0.1665	0.8125	0.6302	0.057
Mof_H 	H 	0.1045	0.8149	0.6738	0.08
Mof_H 	H 	0.0091	0.8042	0.6909	0.074
Mof_H 	H 	0.9529	0.8564	0.6593	0.021
Mof_H 	H 	0.9832	0.9145	0.6071	0.102
Mof_H 	H 	0.1754	0.0947	0.6185	0.096
Mof_H 	H 	0.1358	0.0328	0.5428	0.079
Mof_H 	H 	0.2119	0.9677	0.5192	0.131
Mof_H 	H 	0.3345	0.0301	0.547	0.038
Mof_H 	H 	0.3928	0.1487	0.6505	0.051
Mof_H 	H 	0.3192	0.9652	0.82	0.163
Mof_H 	H 	0.2786	0.9798	0.6592	0.074
Mof_H 	H 	0.3335	0.9637	0.646	0.064
Mof_H 	H 	0.3955	0.0693	0.7104	0.126
Mof_H 	H 	0.4909	0.1818	0.7951	-0.012
Mof_H 	H 	0.5471	0.2064	0.9035	0.141
Mof_H 	H 	0.5168	0.1239	0.9313	-0.01
Mof_H 	H 	0.3246	0.9431	0.9193	0.11
Mof_H 	H 	0.3642	0.907	0.897	0.096
Mof_H 	H 	0.2881	0.8073	0.7558	0.085
Mof_H 	H 	0.1655	0.7125	0.6956	0.061
Mof_H 	H 	0.1072	0.7577	0.7559	0.04
Mof_C 	C 	0.6518	0.3613	0.1975	-0.03
Mof_C 	C 	0.6428	0.3846	0.105	0.157
Mof_C 	C 	0.6645	0.339	0.0825	-0.097
Mof_C 	C 	0.6721	0.3307	0.0234	-0.101
Mof_C 	C 	0.6529	0.3602	0.9901	0.096
Mof_C 	C 	0.6229	0.3967	0.0102	-0.12
Mof_C 	C 	0.6137	0.4099	0.0648	-0.105
Mof_C 	C 	0.587	0.4601	0.0855	0.371
Mof_C 	C 	0.5897	0.5513	0.1704	-0.151
Mof_C 	C 	0.5937	0.5608	0.2311	0.17
Mof_C 	C 	0.5521	0.5136	0.2439	-0.122
Mof_C 	C 	0.569	0.548	0.3138	-0.033
Mof_C 	C 	0.6267	0.6159	0.3464	0.071
Mof_C 	C 	0.6638	0.4543	0.3025	-0.017
Mof_C 	C 	0.7796	0.5378	0.395	0.279
Mof_C 	C 	0.7565	0.582	0.4175	-0.291
Mof_C 	C 	0.8073	0.6487	0.4766	0.22
Mof_C 	C 	0.8701	0.6628	0.5099	-0.3
Mof_C 	C 	0.8865	0.6127	0.4898	0.219
Mof_C 	C 	0.8451	0.5489	0.4352	-0.262
Mof_C 	C 	0.8746	0.5015	0.4145	0.417
Mof_C 	C 	0.8809	0.4193	0.3296	-0.156
Mof_C 	C 	0.8297	0.3626	0.2689	0.173
Mof_C 	C 	0.7697	0.3082	0.2561	-0.122
Mof_C 	C 	0.7342	0.2552	0.1862	-0.034
Mof_C 	C 	0.7695	0.2803	0.1536	0.074
Mof_C 	C 	0.8362	0.1387	0.7905	-0.014
Mof_C 	C 	0.7204	0.1154	0.7582	0.274
Mof_C 	C 	0.7435	0.161	0.8255	-0.291
Mof_C 	C 	0.6927	0.1693	0.8414	0.218
Mof_C 	C 	0.6299	0.1398	0.7927	-0.303
Mof_C 	C 	0.6135	0.1033	0.7262	0.216
Mof_C 	C 	0.6549	0.0901	0.7038	-0.265
Mof_C 	C 	0.6254	0.0399	0.6269	0.394
Mof_C 	C 	0.6191	0.9487	0.5384	-0.132
Mof_C 	C 	0.6703	0.9392	0.5329	0.147
Mof_C 	C 	0.7303	0.9864	0.5385	-0.049
Mof_C 	C 	0.7658	0.952	0.521	-0.064
Mof_C 	C 	0.7305	0.8841	0.5108	0.084
Mof_C 	C 	0.8482	0.0457	0.7095	-0.001
Mof_C 	C 	0.8572	0.9622	0.7418	0.317
Mof_C 	C 	0.8355	0.918	0.6745	-0.314
Mof_C 	C 	0.8279	0.8513	0.6586	0.246
Mof_C 	C 	0.8471	0.8372	0.7073	-0.319
Mof_C 	C 	0.8771	0.8873	0.7738	0.238
Mof_C 	C 	0.8863	0.9511	0.7962	-0.272
Mof_C 	C 	0.913	0.9985	0.8731	0.435
Mof_C 	C 	0.9103	0.0807	0.9616	-0.171
Mof_C 	C 	0.9063	0.1374	0.9671	0.186
Mof_C 	C 	0.9479	0.1918	0.9615	-0.121
Mof_C 	C 	0.931	0.2448	0.979	-0.024
Mof_C 	C 	0.8733	0.2197	0.9892	0.075
Mof_C 	C 	0.2905	0.8362	0.6387	-0.021
Mof_C 	C 	0.2582	0.7204	0.6154	0.281
Mof_C 	C 	0.3255	0.7435	0.661	-0.295
Mof_C 	C 	0.3414	0.6927	0.6693	0.224
Mof_C 	C 	0.2927	0.6299	0.6398	-0.308
Mof_C 	C 	0.2262	0.6135	0.6033	0.224
Mof_C 	C 	0.2038	0.6549	0.5901	-0.269
Mof_C 	C 	0.1269	0.6254	0.5399	0.419
Mof_C 	C 	0.0384	0.6191	0.4487	-0.139
Mof_C 	C 	0.0329	0.6703	0.4392	0.16
Mof_C 	C 	0.0385	0.7303	0.4864	-0.121
Mof_C 	C 	0.021	0.7658	0.452	-0.038
Mof_C 	C 	0.0108	0.7305	0.3841	0.068
Mof_C 	C 	0.2095	0.8482	0.5457	-0.021
Mof_C 	C 	0.2418	0.8572	0.4622	0.28
Mof_C 	C 	0.1745	0.8355	0.418	-0.295
Mof_C 	C 	0.1586	0.8279	0.3513	0.227
Mof_C 	C 	0.2073	0.8471	0.3372	-0.304
Mof_C 	C 	0.2738	0.8771	0.3873	0.224
Mof_C 	C 	0.2962	0.8863	0.4511	-0.263
Mof_C 	C 	0.3731	0.913	0.4985	0.419
Mof_C 	C 	0.4616	0.9103	0.5807	-0.158
Mof_C 	C 	0.4671	0.9063	0.6374	0.176
Mof_C 	C 	0.4615	0.9479	0.6918	-0.121
Mof_C 	C 	0.479	0.931	0.7448	-0.031
Mof_C 	C 	0.4892	0.8733	0.7197	0.073
Mof_C 	C 	0.6975	0.6518	0.8613	-0.017
Mof_C 	C 	0.605	0.6428	0.8846	0.291
Mof_C 	C 	0.5825	0.6645	0.839	-0.302
Mof_C 	C 	0.5234	0.6721	0.8307	0.235
Mof_C 	C 	0.4901	0.6529	0.8602	-0.318
Mof_C 	C 	0.5102	0.6229	0.8967	0.238
Mof_C 	C 	0.5648	0.6137	0.9099	-0.279
Mof_C 	C 	0.5855	0.587	0.9601	0.453
Mof_C 	C 	0.6704	0.5897	0.0513	-0.165
Mof_C 	C 	0.7311	0.5937	0.0608	0.191
Mof_C 	C 	0.7439	0.5521	0.0136	-0.198
Mof_C 	C 	0.8138	0.569	0.048	0.002
Mof_C 	C 	0.8464	0.6267	0.1159	0.053
Mof_C 	C 	0.8025	0.6638	0.9543	-0.02
Mof_C 	C 	0.895	0.7796	0.0378	0.349
Mof_C 	C 	0.9175	0.7565	0.082	-0.449
Mof_C 	C 	0.9766	0.8073	0.1487	0.497
Mof_C 	C 	0.0099	0.8701	0.1628	-0.652
Mof_C 	C 	0.9898	0.8865	0.1127	0.515
Mof_C 	C 	0.9352	0.8451	0.0489	-0.394
Mof_C 	C 	0.9145	0.8746	0.0015	0.425
Mof_C 	C 	0.8296	0.8809	0.9193	-0.159
Mof_C 	C 	0.7689	0.8297	0.8626	0.176
Mof_C 	C 	0.7561	0.7697	0.8082	-0.125
Mof_C 	C 	0.6862	0.7342	0.7552	-0.031
Mof_C 	C 	0.6536	0.7695	0.7803	0.07
Mof_C 	C 	0.4543	0.8025	0.1638	0.005
Mof_C 	C 	0.5378	0.895	0.2796	0.405
Mof_C 	C 	0.582	0.9175	0.2565	-0.492
Mof_C 	C 	0.6487	0.9766	0.3073	0.545
Mof_C 	C 	0.6628	0.0099	0.3701	-0.706
Mof_C 	C 	0.6127	0.9898	0.3865	0.565
Mof_C 	C 	0.5489	0.9352	0.3451	-0.435
Mof_C 	C 	0.5015	0.9145	0.3746	0.474
Mof_C 	C 	0.4193	0.8296	0.3809	-0.145
Mof_C 	C 	0.3626	0.7689	0.3297	0.167
Mof_C 	C 	0.3082	0.7561	0.2697	-0.12
Mof_C 	C 	0.2552	0.6862	0.2342	-0.034
Mof_C 	C 	0.2803	0.6536	0.2695	0.071
Mof_C 	C 	0.3613	0.6975	0.1518	-0.008
Mof_C 	C 	0.3846	0.605	0.1428	0.286
Mof_C 	C 	0.339	0.5825	0.1645	-0.303
Mof_C 	C 	0.3307	0.5234	0.1721	0.23
Mof_C 	C 	0.3602	0.4901	0.1529	-0.322
Mof_C 	C 	0.3967	0.5102	0.1229	0.233
Mof_C 	C 	0.4099	0.5648	0.1137	-0.282
Mof_C 	C 	0.4601	0.5855	0.087	0.428
Mof_C 	C 	0.5513	0.6704	0.0897	-0.138
Mof_C 	C 	0.5608	0.7311	0.0937	0.16
Mof_C 	C 	0.5136	0.7439	0.0521	-0.12
Mof_C 	C 	0.548	0.8138	0.069	-0.036
Mof_C 	C 	0.6159	0.8464	0.1267	0.065
Mof_C 	C 	0.0457	0.2095	0.3482	0.007
Mof_C 	C 	0.9622	0.2418	0.3572	0.34
Mof_C 	C 	0.918	0.1745	0.3355	-0.335
Mof_C 	C 	0.8513	0.1586	0.3279	0.266
Mof_C 	C 	0.8372	0.2073	0.3471	-0.349
Mof_C 	C 	0.8873	0.2738	0.3771	0.26
Mof_C 	C 	0.9511	0.2962	0.3863	-0.297
Mof_C 	C 	0.9985	0.3731	0.413	0.461
Mof_C 	C 	0.0807	0.4616	0.4103	-0.145
Mof_C 	C 	0.1374	0.4671	0.4063	0.166
Mof_C 	C 	0.1918	0.4615	0.4479	-0.12
Mof_C 	C 	0.2448	0.479	0.431	-0.034
Mof_C 	C 	0.2197	0.4892	0.3733	0.071
Mof_C 	C 	0.1387	0.2905	0.3362	-0.011
Mof_C 	C 	0.1154	0.2582	0.2204	0.271
Mof_C 	C 	0.161	0.3255	0.2435	-0.29
Mof_C 	C 	0.1693	0.3414	0.1927	0.214
Mof_C 	C 	0.1398	0.2927	0.1299	-0.303
Mof_C 	C 	0.1033	0.2262	0.1135	0.211
Mof_C 	C 	0.0901	0.2038	0.1549	-0.262
Mof_C 	C 	0.0399	0.1269	0.1254	0.377
Mof_C 	C 	0.9487	0.0384	0.1191	-0.116
Mof_C 	C 	0.9392	0.0329	0.1703	0.13
Mof_C 	C 	0.9864	0.0385	0.2303	-0.022
Mof_C 	C 	0.952	0.021	0.2658	-0.081
Mof_C 	C 	0.8841	0.0108	0.2305	0.087
Mof_C 	C 	0.9543	0.1638	0.8025	-0.019
Mof_C 	C 	0.0378	0.2796	0.895	0.349
Mof_C 	C 	0.082	0.2565	0.9175	-0.458
Mof_C 	C 	0.1487	0.3073	0.9766	0.512
Mof_C 	C 	0.1628	0.3701	0.0099	-0.676
Mof_C 	C 	0.1127	0.3865	0.9898	0.536
Mof_C 	C 	0.0489	0.3451	0.9352	-0.408
Mof_C 	C 	0.0015	0.3746	0.9145	0.427
Mof_C 	C 	0.9193	0.3809	0.8296	-0.154
Mof_C 	C 	0.8626	0.3297	0.7689	0.172
Mof_C 	C 	0.8082	0.2697	0.7561	-0.123
Mof_C 	C 	0.7552	0.2342	0.6862	-0.032
Mof_C 	C 	0.7803	0.2695	0.6536	0.07
Mof_C 	C 	0.8613	0.1518	0.6975	-0.013
Mof_C 	C 	0.8846	0.1428	0.605	0.295
Mof_C 	C 	0.839	0.1645	0.5825	-0.308
Mof_C 	C 	0.8307	0.1721	0.5234	0.238
Mof_C 	C 	0.8602	0.1529	0.4901	-0.328
Mof_C 	C 	0.8967	0.1229	0.5102	0.244
Mof_C 	C 	0.9099	0.1137	0.5648	-0.289
Mof_C 	C 	0.9601	0.087	0.5855	0.463
Mof_C 	C 	0.0513	0.0897	0.6704	-0.16
Mof_C 	C 	0.0608	0.0937	0.7311	0.189
Mof_C 	C 	0.0136	0.0521	0.7439	-0.215
Mof_C 	C 	0.048	0.069	0.8138	0.005
Mof_C 	C 	0.1159	0.1267	0.8464	0.047
Mof_C 	C 	0.5457	0.3482	0.2095	-0.016
Mof_C 	C 	0.4622	0.3572	0.2418	0.283
Mof_C 	C 	0.418	0.3355	0.1745	-0.3
Mof_C 	C 	0.3513	0.3279	0.1586	0.229
Mof_C 	C 	0.3372	0.3471	0.2073	-0.314
Mof_C 	C 	0.3873	0.3771	0.2738	0.229
Mof_C 	C 	0.4511	0.3863	0.2962	-0.273
Mof_C 	C 	0.4985	0.413	0.3731	0.423
Mof_C 	C 	0.5807	0.4103	0.4616	-0.148
Mof_C 	C 	0.6374	0.4063	0.4671	0.168
Mof_C 	C 	0.6918	0.4479	0.4615	-0.121
Mof_C 	C 	0.7448	0.431	0.479	-0.034
Mof_C 	C 	0.7197	0.3733	0.4892	0.071
Mof_C 	C 	0.6387	0.3362	0.2905	-0.016
Mof_C 	C 	0.6154	0.2204	0.2582	0.28
Mof_C 	C 	0.661	0.2435	0.3255	-0.296
Mof_C 	C 	0.6693	0.1927	0.3414	0.223
Mof_C 	C 	0.6398	0.1299	0.2927	-0.311
Mof_C 	C 	0.6033	0.1135	0.2262	0.223
Mof_C 	C 	0.5901	0.1549	0.2038	-0.271
Mof_C 	C 	0.5399	0.1254	0.1269	0.413
Mof_C 	C 	0.4487	0.1191	0.0384	-0.137
Mof_C 	C 	0.4392	0.1703	0.0329	0.158
Mof_C 	C 	0.4864	0.2303	0.0385	-0.12
Mof_C 	C 	0.452	0.2658	0.021	-0.039
Mof_C 	C 	0.3841	0.2305	0.0108	0.069
Mof_C 	C 	0.1518	0.1975	0.3613	-0.026
Mof_C 	C 	0.1428	0.105	0.3846	0.145
Mof_C 	C 	0.1645	0.0825	0.339	-0.079
Mof_C 	C 	0.1721	0.0234	0.3307	-0.137
Mof_C 	C 	0.1529	0.9901	0.3602	0.133
Mof_C 	C 	0.1229	0.0102	0.3967	-0.156
Mof_C 	C 	0.1137	0.0648	0.4099	-0.096
Mof_C 	C 	0.087	0.0855	0.4601	0.368
Mof_C 	C 	0.0897	0.1704	0.5513	-0.14
Mof_C 	C 	0.0937	0.2311	0.5608	0.16
Mof_C 	C 	0.0521	0.2439	0.5136	-0.121
Mof_C 	C 	0.069	0.3138	0.548	-0.038
Mof_C 	C 	0.1267	0.3464	0.6159	0.068
Mof_C 	C 	0.1638	0.3025	0.4543	-0.011
Mof_C 	C 	0.2796	0.395	0.5378	0.283
Mof_C 	C 	0.2565	0.4175	0.582	-0.298
Mof_C 	C 	0.3073	0.4766	0.6487	0.227
Mof_C 	C 	0.3701	0.5099	0.6628	-0.311
Mof_C 	C 	0.3865	0.4898	0.6127	0.227
Mof_C 	C 	0.3451	0.4352	0.5489	-0.272
Mof_C 	C 	0.3746	0.4145	0.5015	0.423
Mof_C 	C 	0.3809	0.3296	0.4193	-0.148
Mof_C 	C 	0.3297	0.2689	0.3626	0.168
Mof_C 	C 	0.2697	0.2561	0.3082	-0.119
Mof_C 	C 	0.2342	0.1862	0.2552	-0.036
Mof_C 	C 	0.2695	0.1536	0.2803	0.075
Mof_C 	C 	0.3362	0.7905	0.1387	-0.009
Mof_C 	C 	0.2204	0.7582	0.1154	0.274
Mof_C 	C 	0.2435	0.8255	0.161	-0.291
Mof_C 	C 	0.1927	0.8414	0.1693	0.217
Mof_C 	C 	0.1299	0.7927	0.1398	-0.305
Mof_C 	C 	0.1135	0.7262	0.1033	0.215
Mof_C 	C 	0.1549	0.7038	0.0901	-0.266
Mof_C 	C 	0.1254	0.6269	0.0399	0.388
Mof_C 	C 	0.1191	0.5384	0.9487	-0.128
Mof_C 	C 	0.1703	0.5329	0.9392	0.143
Mof_C 	C 	0.2303	0.5385	0.9864	-0.042
Mof_C 	C 	0.2658	0.521	0.952	-0.068
Mof_C 	C 	0.2305	0.5108	0.8841	0.085
Mof_C 	C 	0.3482	0.7095	0.0457	0.006
Mof_C 	C 	0.3572	0.7418	0.9622	0.324
Mof_C 	C 	0.3355	0.6745	0.918	-0.323
Mof_C 	C 	0.3279	0.6586	0.8513	0.252
Mof_C 	C 	0.3471	0.7073	0.8372	-0.334
Mof_C 	C 	0.3771	0.7738	0.8873	0.247
Mof_C 	C 	0.3863	0.7962	0.9511	-0.285
Mof_C 	C 	0.413	0.8731	0.9985	0.444
Mof_C 	C 	0.4103	0.9616	0.0807	-0.16
Mof_C 	C 	0.4063	0.9671	0.1374	0.177
Mof_C 	C 	0.4479	0.9615	0.1918	-0.121
Mof_C 	C 	0.431	0.979	0.2448	-0.028
Mof_C 	C 	0.3733	0.9892	0.2197	0.072
Mof_C 	C 	0.7905	0.6387	0.8362	-0.017
Mof_C 	C 	0.7582	0.6154	0.7204	0.282
Mof_C 	C 	0.8255	0.661	0.7435	-0.295
Mof_C 	C 	0.8414	0.6693	0.6927	0.225
Mof_C 	C 	0.7927	0.6398	0.6299	-0.309
Mof_C 	C 	0.7262	0.6033	0.6135	0.226
Mof_C 	C 	0.7038	0.5901	0.6549	-0.271
Mof_C 	C 	0.6269	0.5399	0.6254	0.423
Mof_C 	C 	0.5384	0.4487	0.6191	-0.148
Mof_C 	C 	0.5329	0.4392	0.6703	0.168
Mof_C 	C 	0.5385	0.4864	0.7303	-0.121
Mof_C 	C 	0.521	0.452	0.7658	-0.033
Mof_C 	C 	0.5108	0.3841	0.7305	0.07
Mof_C 	C 	0.7095	0.5457	0.8482	-0.018
Mof_C 	C 	0.7418	0.4622	0.8572	0.277
Mof_C 	C 	0.6745	0.418	0.8355	-0.29
Mof_C 	C 	0.6586	0.3513	0.8279	0.221
Mof_C 	C 	0.7073	0.3372	0.8471	-0.296
Mof_C 	C 	0.7738	0.3873	0.8771	0.217
Mof_C 	C 	0.7962	0.4511	0.8863	-0.257
Mof_C 	C 	0.8731	0.4985	0.913	0.411
Mof_C 	C 	0.9616	0.5807	0.9103	-0.172
Mof_C 	C 	0.9671	0.6374	0.9063	0.186
Mof_C 	C 	0.9615	0.6918	0.9479	-0.122
Mof_C 	C 	0.979	0.7448	0.931	-0.025
Mof_C 	C 	0.9892	0.7197	0.8733	0.075
Mof_C 	C 	0.1975	0.8613	0.6518	-0.034
Mof_C 	C 	0.105	0.8846	0.6428	0.167
Mof_C 	C 	0.0825	0.839	0.6645	-0.106
Mof_C 	C 	0.0234	0.8307	0.6721	-0.087
Mof_C 	C 	0.9901	0.8602	0.6529	0.082
Mof_C 	C 	0.0102	0.8967	0.6229	-0.103
Mof_C 	C 	0.0648	0.9099	0.6137	-0.115
Mof_C 	C 	0.0855	0.9601	0.587	0.404
Mof_C 	C 	0.1704	0.0513	0.5897	-0.17
Mof_C 	C 	0.2311	0.0608	0.5937	0.194
Mof_C 	C 	0.2439	0.0136	0.5521	-0.206
Mof_C 	C 	0.3138	0.048	0.569	0.004
Mof_C 	C 	0.3464	0.1159	0.6267	0.055
Mof_C 	C 	0.3025	0.9543	0.6638	-0.037
Mof_C 	C 	0.395	0.0378	0.7796	0.228
Mof_C 	C 	0.4175	0.082	0.7565	-0.258
Mof_C 	C 	0.4766	0.1487	0.8073	0.184
Mof_C 	C 	0.5099	0.1628	0.8701	-0.265
Mof_C 	C 	0.4898	0.1127	0.8865	0.186
Mof_C 	C 	0.4352	0.0489	0.8451	-0.235
Mof_C 	C 	0.4145	0.0015	0.8746	0.375
Mof_C 	C 	0.3296	0.9193	0.8809	-0.163
Mof_C 	C 	0.2689	0.8626	0.8297	0.177
Mof_C 	C 	0.2561	0.8082	0.7697	-0.124
Mof_C 	C 	0.1862	0.7552	0.7342	-0.033
Mof_C 	C 	0.1536	0.7803	0.7695	0.074
Mof_C 	C 	0.625	0.375	0.25	0.046
Mof_C 	C 	0.875	0.125	0.75	0.042
Mof_C 	C 	0.25	0.875	0.625	0.054
Mof_C 	C 	0.75	0.625	0.875	0.047
Mof_C 	C 	0.375	0.75	0.125	0.033
Mof_C 	C 	0.125	0.25	0.375	0.037
Mof_N 	N 	0.6147	0.5017	0.1504	-0.249
Mof_N 	N 	0.3474	0.3617	0.9641	0.086
Mof_N 	N 	0.8513	0.4643	0.3496	-0.256
Mof_N 	N 	0.8976	0.3833	0.5359	0.069
Mof_N 	N 	0.6487	0.9983	0.613	-0.246
Mof_N 	N 	0.6024	0.1383	0.4857	0.071
Mof_N 	N 	0.8853	0.0357	0.887	-0.267
Mof_N 	N 	0.1526	0.1167	0.0143	0.055
Mof_N 	N 	0.113	0.6487	0.4983	-0.262
Mof_N 	N 	0.9857	0.6024	0.6383	0.086
Mof_N 	N 	0.387	0.8853	0.5357	-0.258
Mof_N 	N 	0.5143	0.1526	0.6167	0.072
Mof_N 	N 	0.6504	0.6147	0.0017	-0.277
Mof_N 	N 	0.4641	0.3474	0.8617	0.072
Mof_N 	N 	0.8496	0.8513	0.9643	-0.248
Mof_N 	N 	0.0359	0.8976	0.8833	0.054
Mof_N 	N 	0.4643	0.8496	0.3513	-0.273
Mof_N 	N 	0.3833	0.0359	0.3976	0.056
Mof_N 	N 	0.5017	0.6504	0.1147	-0.265
Mof_N 	N 	0.3617	0.4641	0.8474	0.071
Mof_N 	N 	0.0357	0.387	0.3853	-0.283
Mof_N 	N 	0.1167	0.5143	0.6526	0.071
Mof_N 	N 	0.9983	0.113	0.1487	-0.242
Mof_N 	N 	0.1383	0.9857	0.1024	0.088
Mof_N 	N 	0.9643	0.3513	0.8496	-0.249
Mof_N 	N 	0.8833	0.3976	0.0359	0.056
Mof_N 	N 	0.0017	0.1147	0.6504	-0.284
Mof_N 	N 	0.8617	0.8474	0.4641	0.071
Mof_N 	N 	0.5357	0.3853	0.387	-0.261
Mof_N 	N 	0.6167	0.6526	0.5143	0.071
Mof_N 	N 	0.4983	0.1487	0.113	-0.262
Mof_N 	N 	0.6383	0.1024	0.9857	0.086
Mof_N 	N 	0.1147	0.1504	0.5017	-0.251
Mof_N 	N 	0.8474	0.9641	0.3617	0.084
Mof_N 	N 	0.3513	0.3496	0.4643	-0.261
Mof_N 	N 	0.3976	0.5359	0.3833	0.072
Mof_N 	N 	0.1487	0.613	0.9983	-0.246
Mof_N 	N 	0.1024	0.4857	0.1383	0.072
Mof_N 	N 	0.3853	0.887	0.0357	-0.273
Mof_N 	N 	0.6526	0.0143	0.1167	0.055
Mof_N 	N 	0.613	0.4983	0.6487	-0.261
Mof_N 	N 	0.4857	0.6383	0.6024	0.072
Mof_N 	N 	0.887	0.5357	0.8853	-0.253
Mof_N 	N 	0.0143	0.6167	0.1526	0.055
Mof_N 	N 	0.1504	0.0017	0.6147	-0.267
Mof_N 	N 	0.9641	0.8617	0.3474	0.086
Mof_N 	N 	0.3496	0.9643	0.8513	-0.235
Mof_N 	N 	0.5359	0.8833	0.8976	0.068
Mof_O 	O 	0.5454	0.4626	0.0406	-0.548
Mof_O 	O 	0.6407	0.624	0.2951	-0.199
Mof_O 	O 	0.6323	0.3958	0.1603	-0.217
Mof_O 	O 	0.4087	0.3867	0.006	-0.344
Mof_O 	O 	0.3325	0.3829	0.9234	-0.312
Mof_O 	O 	0.3011	0.3218	0.9693	-0.094
Mof_O 	O 	0.922	0.5048	0.4594	-0.518
Mof_O 	O 	0.8289	0.3456	0.2049	-0.198
Mof_O 	O 	0.7355	0.472	0.3397	-0.244
Mof_O 	O 	0.8807	0.4027	0.494	-0.303
Mof_O 	O 	0.9595	0.4091	0.5766	-0.286
Mof_O 	O 	0.8525	0.3318	0.5307	-0.105
Mof_O 	O 	0.578	0.0374	0.5828	-0.541
Mof_O 	O 	0.6711	0.876	0.5167	-0.197
Mof_O 	O 	0.7645	0.1042	0.7365	-0.249
Mof_O 	O 	0.6193	0.1133	0.522	-0.311
Mof_O 	O 	0.5405	0.1171	0.4496	-0.312
Mof_O 	O 	0.6475	0.1782	0.4793	-0.11
Mof_O 	O 	0.9546	0.9952	0.9172	-0.488
Mof_O 	O 	0.8593	0.1544	0.9833	-0.196
Mof_O 	O 	0.8677	0.028	0.7635	-0.266
Mof_O 	O 	0.0913	0.0973	0.978	-0.284
Mof_O 	O 	0.1675	0.0909	0.0504	-0.303
Mof_O 	O 	0.1989	0.1682	0.0207	-0.121
Mof_O 	O 	0.0828	0.578	0.5374	-0.536
Mof_O 	O 	0.0167	0.6711	0.376	-0.204
Mof_O 	O 	0.2365	0.7645	0.6042	-0.245
Mof_O 	O 	0.022	0.6193	0.6133	-0.331
Mof_O 	O 	0.9496	0.5405	0.6171	-0.293
Mof_O 	O 	0.9793	0.6475	0.6782	-0.098
Mof_O 	O 	0.4172	0.9546	0.4952	-0.524
Mof_O 	O 	0.4833	0.8593	0.6544	-0.199
Mof_O 	O 	0.2635	0.8677	0.528	-0.243
Mof_O 	O 	0.478	0.0913	0.5973	-0.318
Mof_O 	O 	0.5504	0.1675	0.5909	-0.305
Mof_O 	O 	0.5207	0.1989	0.6682	-0.109
Mof_O 	O 	0.5406	0.5454	0.9626	-0.547
Mof_O 	O 	0.7951	0.6407	0.124	-0.199
Mof_O 	O 	0.6603	0.6323	0.8958	-0.243
Mof_O 	O 	0.506	0.4087	0.8867	-0.321
Mof_O 	O 	0.4234	0.3325	0.8829	-0.309
Mof_O 	O 	0.4693	0.3011	0.8218	-0.107
Mof_O 	O 	0.9594	0.922	0.0048	-0.506
Mof_O 	O 	0.7049	0.8289	0.8456	-0.195
Mof_O 	O 	0.8397	0.7355	0.972	-0.243
Mof_O 	O 	0.994	0.8807	0.9027	-0.262
Mof_O 	O 	0.0766	0.9595	0.9091	-0.269
Mof_O 	O 	0.0307	0.8525	0.8318	-0.118
Mof_O 	O 	0.5048	0.9594	0.422	-0.539
Mof_O 	O 	0.3456	0.7049	0.3289	-0.199
Mof_O 	O 	0.472	0.8397	0.2355	-0.275
Mof_O 	O 	0.4027	0.994	0.3807	-0.287
Mof_O 	O 	0.4091	0.0766	0.4595	-0.309
Mof_O 	O 	0.3318	0.0307	0.3525	-0.124
Mof_O 	O 	0.4626	0.5406	0.0454	-0.563
Mof_O 	O 	0.624	0.7951	0.1407	-0.197
Mof_O 	O 	0.3958	0.6603	0.1323	-0.25
Mof_O 	O 	0.3867	0.506	0.9087	-0.314
Mof_O 	O 	0.3829	0.4234	0.8325	-0.315
Mof_O 	O 	0.3218	0.4693	0.8011	-0.108
Mof_O 	O 	0.9952	0.4172	0.4546	-0.525
Mof_O 	O 	0.1544	0.4833	0.3593	-0.201
Mof_O 	O 	0.028	0.2635	0.3677	-0.281
Mof_O 	O 	0.0973	0.478	0.5913	-0.315
Mof_O 	O 	0.0909	0.5504	0.6675	-0.31
Mof_O 	O 	0.1682	0.5207	0.6989	-0.11
Mof_O 	O 	0.0374	0.0828	0.078	-0.531
Mof_O 	O 	0.876	0.0167	0.1711	-0.203
Mof_O 	O 	0.1042	0.2365	0.2645	-0.25
Mof_O 	O 	0.1133	0.022	0.1193	-0.324
Mof_O 	O 	0.1171	0.9496	0.0405	-0.297
Mof_O 	O 	0.1782	0.9793	0.1475	-0.101
Mof_O 	O 	0.0048	0.422	0.9594	-0.531
Mof_O 	O 	0.8456	0.3289	0.7049	-0.197
Mof_O 	O 	0.972	0.2355	0.8397	-0.24
Mof_O 	O 	0.9027	0.3807	0.994	-0.271
Mof_O 	O 	0.9091	0.4595	0.0766	-0.289
Mof_O 	O 	0.8318	0.3525	0.0307	-0.119
Mof_O 	O 	0.9626	0.0454	0.5406	-0.563
Mof_O 	O 	0.124	0.1407	0.7951	-0.2
Mof_O 	O 	0.8958	0.1323	0.6603	-0.245
Mof_O 	O 	0.8867	0.9087	0.506	-0.319
Mof_O 	O 	0.8829	0.8325	0.4234	-0.313
Mof_O 	O 	0.8218	0.8011	0.4693	-0.106
Mof_O 	O 	0.4952	0.4546	0.4172	-0.544
Mof_O 	O 	0.6544	0.3593	0.4833	-0.2
Mof_O 	O 	0.528	0.3677	0.2635	-0.246
Mof_O 	O 	0.5973	0.5913	0.478	-0.316
Mof_O 	O 	0.5909	0.6675	0.5504	-0.31
Mof_O 	O 	0.6682	0.6989	0.5207	-0.108
Mof_O 	O 	0.5374	0.078	0.0828	-0.535
Mof_O 	O 	0.376	0.1711	0.0167	-0.207
Mof_O 	O 	0.6042	0.2645	0.2365	-0.246
Mof_O 	O 	0.6133	0.1193	0.022	-0.326
Mof_O 	O 	0.6171	0.0405	0.9496	-0.297
Mof_O 	O 	0.6782	0.1475	0.9793	-0.1
Mof_O 	O 	0.0454	0.0406	0.4626	-0.568
Mof_O 	O 	0.1407	0.2951	0.624	-0.199
Mof_O 	O 	0.1323	0.1603	0.3958	-0.218
Mof_O 	O 	0.9087	0.006	0.3867	-0.337
Mof_O 	O 	0.8325	0.9234	0.3829	-0.316
Mof_O 	O 	0.8011	0.9693	0.3218	-0.094
Mof_O 	O 	0.422	0.4594	0.5048	-0.544
Mof_O 	O 	0.3289	0.2049	0.3456	-0.202
Mof_O 	O 	0.2355	0.3397	0.472	-0.247
Mof_O 	O 	0.3807	0.494	0.4027	-0.316
Mof_O 	O 	0.4595	0.5766	0.4091	-0.31
Mof_O 	O 	0.3525	0.5307	0.3318	-0.108
Mof_O 	O 	0.078	0.5828	0.0374	-0.538
Mof_O 	O 	0.1711	0.5167	0.876	-0.2
Mof_O 	O 	0.2645	0.7365	0.1042	-0.25
Mof_O 	O 	0.1193	0.522	0.1133	-0.306
Mof_O 	O 	0.0405	0.4496	0.1171	-0.316
Mof_O 	O 	0.1475	0.4793	0.1782	-0.112
Mof_O 	O 	0.4546	0.9172	0.9952	-0.509
Mof_O 	O 	0.3593	0.9833	0.1544	-0.196
Mof_O 	O 	0.3677	0.7635	0.028	-0.273
Mof_O 	O 	0.5913	0.978	0.0973	-0.283
Mof_O 	O 	0.6675	0.0504	0.0909	-0.307
Mof_O 	O 	0.6989	0.0207	0.1682	-0.119
Mof_O 	O 	0.5828	0.5374	0.578	-0.544
Mof_O 	O 	0.5167	0.376	0.6711	-0.199
Mof_O 	O 	0.7365	0.6042	0.7645	-0.246
Mof_O 	O 	0.522	0.6133	0.6193	-0.316
Mof_O 	O 	0.4496	0.6171	0.5405	-0.31
Mof_O 	O 	0.4793	0.6782	0.6475	-0.108
Mof_O 	O 	0.9172	0.4952	0.9546	-0.505
Mof_O 	O 	0.9833	0.6544	0.8593	-0.195
Mof_O 	O 	0.7635	0.528	0.8677	-0.242
Mof_O 	O 	0.978	0.5973	0.0913	-0.284
Mof_O 	O 	0.0504	0.5909	0.1675	-0.303
Mof_O 	O 	0.0207	0.6682	0.1989	-0.118
Mof_O 	O 	0.0406	0.9626	0.5454	-0.55
Mof_O 	O 	0.2951	0.124	0.6407	-0.202
Mof_O 	O 	0.1603	0.8958	0.6323	-0.214
Mof_O 	O 	0.006	0.8867	0.4087	-0.348
Mof_O 	O 	0.9234	0.8829	0.3325	-0.31
Mof_O 	O 	0.9693	0.8218	0.3011	-0.093
Mof_O 	O 	0.4594	0.0048	0.922	-0.512
Mof_O 	O 	0.2049	0.8456	0.8289	-0.197
Mof_O 	O 	0.3397	0.972	0.7355	-0.214
Mof_O 	O 	0.494	0.9027	0.8807	-0.29
Mof_O 	O 	0.5766	0.9091	0.9595	-0.273
Mof_O 	O 	0.5307	0.8318	0.8525	-0.103
_end
