data_functionalizedCrystal
_audit_creation_method	'EQeq! by Chris Wilmer'
_symmetry_space_group_name_H-M	'P1'
_symmetry_Int_Tables_number	1
_symmetry_cell_setting	triclinic
loop_
_symmetry_equiv_pos_as_xyz
  x,y,z
_cell_length_a	11.5675
_cell_length_b	20.924
_cell_length_c	23.7993
_cell_angle_alpha	90
_cell_angle_beta	90
_cell_angle_gamma	90
loop_
_atom_site_label
_atom_site_type_symbol
_atom_site_fract_x
_atom_site_fract_y
_atom_site_fract_z
_atom_site_charge
Mof_Nd	Nd	0.42159	0.03639	0.73102	2.584
Mof_Nd	Nd	0.24365	0.1238	0.84952	2.576
Mof_Nd	Nd	0.08007	0.02635	0.73418	2.595
Mof_Nd	Nd	0.26569	0.93224	0.84401	2.573
Mof_Nd	Nd	0.07841	0.96361	0.23102	2.591
Mof_Nd	Nd	0.25635	0.8762	0.34952	2.579
Mof_Nd	Nd	0.41993	0.97365	0.23418	2.603
Mof_Nd	Nd	0.23431	0.06776	0.34401	2.568
Mof_Nd	Nd	0.57841	0.53639	0.76898	2.586
Mof_Nd	Nd	0.75635	0.6238	0.65048	2.578
Mof_Nd	Nd	0.91993	0.52635	0.76582	2.601
Mof_Nd	Nd	0.73431	0.43224	0.65599	2.569
Mof_Nd	Nd	0.92159	0.46361	0.26898	2.583
Mof_Nd	Nd	0.74365	0.3762	0.15048	2.578
Mof_Nd	Nd	0.58007	0.47365	0.26582	2.603
Mof_Nd	Nd	0.76569	0.56776	0.15599	2.568
Mof_H 	H 	0.3501	0.783	0.7909	0.176
Mof_H 	H 	0.3394	0.7337	0.7481	0.181
Mof_H 	H 	0.3794	0.7172	0.8042	0.186
Mof_H 	H 	0.9028	0.8526	0.6837	0.189
Mof_H 	H 	0.8703	0.7857	0.6881	0.192
Mof_H 	H 	0.8506	0.8287	0.7351	0.186
Mof_H 	H 	0.5877	0.8179	0.7073	0.199
Mof_H 	H 	0.4601	0.805	0.6886	0.183
Mof_H 	H 	0.5476	0.77	0.7932	0.042
Mof_H 	H 	0.3646	0.917	0.9932	0.19
Mof_H 	H 	0.4267	0.9414	0.0417	0.182
Mof_H 	H 	0.3707	0.8793	0.0444	0.174
Mof_H 	H 	0.0664	0.792	0.698	0.043
Mof_H 	H 	0.9554	0.7567	0.7994	0.186
Mof_H 	H 	0.0837	0.739	0.7858	0.2
Mof_H 	H 	0.1803	0.0374	0.0447	0.193
Mof_H 	H 	0.3153	0.0414	0.0449	0.187
Mof_H 	H 	0.1889	0.9258	0.0387	0.062
Mof_H 	H 	0.2601	0.9302	0.7181	0.216
Mof_H 	H 	0.2419	0.1336	0.726	0.222
Mof_H 	H 	0.0685	0.0209	0.8563	0.26
Mof_H 	H 	0.4457	0.0334	0.8537	0.248
Mof_H 	H 	0.1499	0.217	0.2909	0.176
Mof_H 	H 	0.1606	0.2663	0.2481	0.181
Mof_H 	H 	0.1206	0.2828	0.3042	0.186
Mof_H 	H 	0.5972	0.1474	0.1837	0.19
Mof_H 	H 	0.6297	0.2143	0.1881	0.192
Mof_H 	H 	0.6494	0.1713	0.2351	0.186
Mof_H 	H 	0.9123	0.1821	0.2073	0.198
Mof_H 	H 	0.0399	0.195	0.1886	0.18
Mof_H 	H 	0.9524	0.23	0.2932	0.043
Mof_H 	H 	0.1354	0.083	0.4932	0.188
Mof_H 	H 	0.0733	0.0586	0.5417	0.182
Mof_H 	H 	0.1293	0.1207	0.5444	0.174
Mof_H 	H 	0.4336	0.208	0.198	0.042
Mof_H 	H 	0.5446	0.2433	0.2994	0.189
Mof_H 	H 	0.4163	0.261	0.2858	0.202
Mof_H 	H 	0.3197	0.9626	0.5447	0.194
Mof_H 	H 	0.1847	0.9586	0.5449	0.188
Mof_H 	H 	0.3111	0.0742	0.5387	0.061
Mof_H 	H 	0.2399	0.0698	0.2181	0.216
Mof_H 	H 	0.2581	0.8664	0.226	0.222
Mof_H 	H 	0.4315	0.9791	0.3563	0.261
Mof_H 	H 	0.0543	0.9666	0.3537	0.249
Mof_H 	H 	0.6499	0.283	0.7091	0.176
Mof_H 	H 	0.6606	0.2337	0.7519	0.181
Mof_H 	H 	0.6206	0.2172	0.6958	0.186
Mof_H 	H 	0.0972	0.3526	0.8163	0.19
Mof_H 	H 	0.1297	0.2857	0.8119	0.192
Mof_H 	H 	0.1494	0.3287	0.7649	0.186
Mof_H 	H 	0.4123	0.3179	0.7927	0.199
Mof_H 	H 	0.5399	0.305	0.8114	0.183
Mof_H 	H 	0.4524	0.27	0.7068	0.042
Mof_H 	H 	0.6354	0.417	0.5068	0.189
Mof_H 	H 	0.5733	0.4414	0.4583	0.182
Mof_H 	H 	0.6293	0.3793	0.4556	0.175
Mof_H 	H 	0.9336	0.292	0.802	0.043
Mof_H 	H 	0.0446	0.2567	0.7006	0.187
Mof_H 	H 	0.9163	0.239	0.7142	0.201
Mof_H 	H 	0.8197	0.5374	0.4553	0.194
Mof_H 	H 	0.6847	0.5414	0.4551	0.188
Mof_H 	H 	0.8111	0.4258	0.4613	0.061
Mof_H 	H 	0.7399	0.4302	0.7819	0.216
Mof_H 	H 	0.7581	0.6336	0.774	0.222
Mof_H 	H 	0.9315	0.5209	0.6437	0.26
Mof_H 	H 	0.5543	0.5334	0.6463	0.248
Mof_H 	H 	0.8501	0.717	0.2091	0.176
Mof_H 	H 	0.8394	0.7663	0.2519	0.181
Mof_H 	H 	0.8794	0.7828	0.1958	0.186
Mof_H 	H 	0.4028	0.6474	0.3163	0.19
Mof_H 	H 	0.3703	0.7143	0.3119	0.192
Mof_H 	H 	0.3506	0.6713	0.2649	0.186
Mof_H 	H 	0.0877	0.6821	0.2927	0.197
Mof_H 	H 	0.9601	0.695	0.3114	0.179
Mof_H 	H 	0.0476	0.73	0.2068	0.043
Mof_H 	H 	0.8646	0.583	0.0068	0.188
Mof_H 	H 	0.9267	0.5586	0.9583	0.182
Mof_H 	H 	0.8707	0.6207	0.9556	0.174
Mof_H 	H 	0.5664	0.708	0.302	0.042
Mof_H 	H 	0.4554	0.7433	0.2006	0.188
Mof_H 	H 	0.5837	0.761	0.2142	0.202
Mof_H 	H 	0.6803	0.4626	0.9553	0.194
Mof_H 	H 	0.8153	0.4586	0.9551	0.188
Mof_H 	H 	0.6889	0.5742	0.9613	0.061
Mof_H 	H 	0.7601	0.5698	0.2819	0.216
Mof_H 	H 	0.7419	0.3664	0.274	0.222
Mof_H 	H 	0.5685	0.4791	0.1437	0.261
Mof_H 	H 	0.9457	0.4666	0.1463	0.248
Mof_C 	C 	0.4722	0.8782	0.746	0.597
Mof_C 	C 	0.5089	0.814	0.7208	-0.463
Mof_C 	C 	0.503	0.759	0.7596	0.059
Mof_C 	C 	0.5516	0.6966	0.7362	0.432
Mof_C 	C 	0.0667	0.8632	0.7579	0.448
Mof_C 	C 	0.0163	0.8036	0.7296	0.048
Mof_C 	C 	0.0082	0.7461	0.7692	-0.477
Mof_C 	C 	0.9687	0.6849	0.7428	0.618
Mof_C 	C 	0.2499	0.0244	0.9666	0.606
Mof_C 	C 	0.25	0.0178	0.03	-0.457
Mof_C 	C 	0.2565	0.95	0.0514	0.033
Mof_C 	C 	0.2589	0.9529	0.1154	0.448
Mof_C 	C 	0.0278	0.1218	0.246	0.592
Mof_C 	C 	0.9911	0.186	0.2208	-0.456
Mof_C 	C 	0.997	0.241	0.2596	0.057
Mof_C 	C 	0.9484	0.3034	0.2362	0.432
Mof_C 	C 	0.4333	0.1368	0.2579	0.447
Mof_C 	C 	0.4837	0.1964	0.2296	0.049
Mof_C 	C 	0.4918	0.2539	0.2692	-0.484
Mof_C 	C 	0.5313	0.3151	0.2428	0.621
Mof_C 	C 	0.2501	0.9756	0.4666	0.615
Mof_C 	C 	0.25	0.9822	0.53	-0.462
Mof_C 	C 	0.2435	0.05	0.5514	0.036
Mof_C 	C 	0.2411	0.0471	0.6154	0.447
Mof_C 	C 	0.5278	0.3782	0.754	0.597
Mof_C 	C 	0.4911	0.314	0.7792	-0.463
Mof_C 	C 	0.497	0.259	0.7404	0.059
Mof_C 	C 	0.4484	0.1966	0.7638	0.432
Mof_C 	C 	0.9333	0.3632	0.7421	0.448
Mof_C 	C 	0.9837	0.3036	0.7704	0.047
Mof_C 	C 	0.9918	0.2461	0.7308	-0.479
Mof_C 	C 	0.0313	0.1849	0.7572	0.619
Mof_C 	C 	0.7501	0.5244	0.5334	0.613
Mof_C 	C 	0.75	0.5178	0.47	-0.464
Mof_C 	C 	0.7435	0.45	0.4486	0.037
Mof_C 	C 	0.7411	0.4529	0.3846	0.447
Mof_C 	C 	0.9722	0.6218	0.254	0.591
Mof_C 	C 	0.0089	0.686	0.2792	-0.455
Mof_C 	C 	0.003	0.741	0.2404	0.058
Mof_C 	C 	0.0516	0.8034	0.2638	0.433
Mof_C 	C 	0.5667	0.6368	0.2421	0.448
Mof_C 	C 	0.5163	0.6964	0.2704	0.048
Mof_C 	C 	0.5082	0.7539	0.2308	-0.484
Mof_C 	C 	0.4687	0.8151	0.2572	0.621
Mof_C 	C 	0.7499	0.4756	0.0334	0.613
Mof_C 	C 	0.75	0.4822	0.97	-0.464
Mof_C 	C 	0.7565	0.55	0.9486	0.037
Mof_C 	C 	0.7589	0.5471	0.8846	0.447
Mof_N 	N 	0.3805	0.747	0.7775	-0.387
Mof_N 	N 	0.8979	0.8193	0.7068	-0.391
Mof_N 	N 	0.3659	0.9187	0.0306	-0.385
Mof_N 	N 	0.1195	0.253	0.2775	-0.386
Mof_N 	N 	0.6021	0.1807	0.2068	-0.391
Mof_N 	N 	0.1341	0.0813	0.5306	-0.384
Mof_N 	N 	0.6195	0.247	0.7225	-0.387
Mof_N 	N 	0.1021	0.3193	0.7932	-0.391
Mof_N 	N 	0.6341	0.4187	0.4694	-0.384
Mof_N 	N 	0.8805	0.753	0.2225	-0.387
Mof_N 	N 	0.3979	0.6807	0.2932	-0.391
Mof_N 	N 	0.8659	0.5813	0.9694	-0.383
Mof_O 	O 	0.2575	0.96673	0.74384	-0.998
Mof_O 	O 	0.2464	0.0953	0.7496	-1
Mof_O 	O 	0.1362	0.0242	0.83176	-1.004
Mof_O 	O 	0.3761	0.0319	0.83022	-0.984
Mof_O 	O 	0.5008	0.9274	0.7206	-0.587
Mof_O 	O 	0.419	0.8765	0.7918	-0.592
Mof_O 	O 	0.5109	0.6456	0.7542	-0.557
Mof_O 	O 	0.6312	0.7024	0.7011	-0.527
Mof_O 	O 	0.1506	0.8541	0.7891	-0.547
Mof_O 	O 	0.0214	0.9153	0.7463	-0.57
Mof_O 	O 	0.9988	0.6338	0.7649	-0.609
Mof_O 	O 	0.9021	0.6887	0.7011	-0.583
Mof_O 	O 	0.255	0.9739	0.93837	-0.6
Mof_O 	O 	0.2426	0.0799	0.9466	-0.554
Mof_O 	O 	0.1607	0.9583	0.1385	-0.578
Mof_O 	O 	0.3542	0.9536	0.1389	-0.585
Mof_O 	O 	0.617	0.0329	0.7803	-0.308
Mof_O 	O 	0.5785	0.0543	0.6563	-0.284
Mof_O 	O 	0.2332	0.2306	0.8981	-0.296
Mof_O 	O 	0.4343	0.1437	0.9026	-0.294
Mof_O 	O 	0.0497	0.1365	0.9015	-0.279
Mof_O 	O 	0.8963	0.0276	0.7946	-0.295
Mof_O 	O 	0.9109	0.0141	0.6689	-0.317
Mof_O 	O 	0.4566	0.9171	0.904	-0.286
Mof_O 	O 	0.2882	0.82	0.8874	-0.293
Mof_O 	O 	0.0755	0.9038	0.8949	-0.289
Mof_O 	O 	0.2425	0.03327	0.24384	-1
Mof_O 	O 	0.2536	0.9047	0.2496	-1.001
Mof_O 	O 	0.3638	0.9758	0.33176	-1.003
Mof_O 	O 	0.1239	0.9681	0.33022	-0.984
Mof_O 	O 	0.9992	0.0726	0.2206	-0.584
Mof_O 	O 	0.081	0.1235	0.2918	-0.591
Mof_O 	O 	0.9891	0.3544	0.2542	-0.557
Mof_O 	O 	0.8688	0.2976	0.2011	-0.527
Mof_O 	O 	0.3494	0.1459	0.2891	-0.547
Mof_O 	O 	0.4786	0.0847	0.2463	-0.571
Mof_O 	O 	0.5012	0.3662	0.2649	-0.609
Mof_O 	O 	0.5979	0.3113	0.2011	-0.583
Mof_O 	O 	0.245	0.0261	0.43837	-0.605
Mof_O 	O 	0.2574	0.9201	0.4466	-0.555
Mof_O 	O 	0.3393	0.0417	0.6385	-0.577
Mof_O 	O 	0.1458	0.0464	0.6389	-0.584
Mof_O 	O 	0.883	0.9671	0.2803	-0.311
Mof_O 	O 	0.9215	0.9457	0.1563	-0.287
Mof_O 	O 	0.2668	0.7694	0.3981	-0.295
Mof_O 	O 	0.0657	0.8563	0.4026	-0.293
Mof_O 	O 	0.4503	0.8635	0.4015	-0.277
Mof_O 	O 	0.6037	0.9724	0.2946	-0.297
Mof_O 	O 	0.5891	0.9859	0.1689	-0.32
Mof_O 	O 	0.0434	0.0829	0.404	-0.287
Mof_O 	O 	0.2118	0.18	0.3874	-0.293
Mof_O 	O 	0.4245	0.0962	0.3949	-0.29
Mof_O 	O 	0.7425	0.46673	0.75616	-1
Mof_O 	O 	0.7536	0.5953	0.7504	-1.001
Mof_O 	O 	0.8638	0.5242	0.66824	-1.003
Mof_O 	O 	0.6239	0.5319	0.66978	-0.984
Mof_O 	O 	0.4992	0.4274	0.7794	-0.588
Mof_O 	O 	0.581	0.3765	0.7082	-0.592
Mof_O 	O 	0.4891	0.1456	0.7458	-0.557
Mof_O 	O 	0.3688	0.2024	0.7989	-0.527
Mof_O 	O 	0.8494	0.3541	0.7109	-0.547
Mof_O 	O 	0.9786	0.4153	0.7537	-0.572
Mof_O 	O 	0.0012	0.1338	0.7351	-0.609
Mof_O 	O 	0.0979	0.1887	0.7989	-0.583
Mof_O 	O 	0.745	0.4739	0.56163	-0.605
Mof_O 	O 	0.7574	0.5799	0.5534	-0.555
Mof_O 	O 	0.8393	0.4583	0.3615	-0.577
Mof_O 	O 	0.6458	0.4536	0.3611	-0.584
Mof_O 	O 	0.383	0.5329	0.7197	-0.308
Mof_O 	O 	0.4215	0.5543	0.8437	-0.285
Mof_O 	O 	0.7668	0.7306	0.6019	-0.296
Mof_O 	O 	0.5657	0.6437	0.5974	-0.293
Mof_O 	O 	0.9503	0.6365	0.5985	-0.278
Mof_O 	O 	0.1037	0.5276	0.7054	-0.296
Mof_O 	O 	0.0891	0.5141	0.8311	-0.319
Mof_O 	O 	0.5434	0.4171	0.596	-0.286
Mof_O 	O 	0.7118	0.32	0.6126	-0.292
Mof_O 	O 	0.9245	0.4038	0.6051	-0.291
Mof_O 	O 	0.7575	0.53327	0.25616	-1
Mof_O 	O 	0.7464	0.4047	0.2504	-1.001
Mof_O 	O 	0.6362	0.4758	0.16824	-1.003
Mof_O 	O 	0.8761	0.4681	0.16978	-0.983
Mof_O 	O 	0.0008	0.5726	0.2794	-0.585
Mof_O 	O 	0.919	0.6235	0.2082	-0.591
Mof_O 	O 	0.0109	0.8544	0.2458	-0.557
Mof_O 	O 	0.1312	0.7976	0.2989	-0.527
Mof_O 	O 	0.6506	0.6459	0.2109	-0.547
Mof_O 	O 	0.5214	0.5847	0.2537	-0.572
Mof_O 	O 	0.4988	0.8662	0.2351	-0.609
Mof_O 	O 	0.4021	0.8113	0.2989	-0.583
Mof_O 	O 	0.755	0.5261	0.06163	-0.605
Mof_O 	O 	0.7426	0.4201	0.0534	-0.555
Mof_O 	O 	0.6607	0.5417	0.8615	-0.577
Mof_O 	O 	0.8542	0.5464	0.8611	-0.584
Mof_O 	O 	0.117	0.4671	0.2197	-0.308
Mof_O 	O 	0.0785	0.4457	0.3437	-0.284
Mof_O 	O 	0.7332	0.2694	0.1019	-0.295
Mof_O 	O 	0.9343	0.3563	0.0974	-0.293
Mof_O 	O 	0.5497	0.3635	0.0985	-0.277
Mof_O 	O 	0.3963	0.4724	0.2054	-0.297
Mof_O 	O 	0.4109	0.4859	0.3311	-0.319
Mof_O 	O 	0.9566	0.5829	0.096	-0.287
Mof_O 	O 	0.7882	0.68	0.1126	-0.293
Mof_O 	O 	0.5755	0.5962	0.1051	-0.291
Mof_Cl	Cl	0.4877	0.21219	0.55021	-0.233
Mof_O 	O 	0.5122	0.1873	0.6028	-0.017
Mof_O 	O 	0.5147	0.2773	0.5487	0.011
Mof_O 	O 	0.369	0.2035	0.5431	-0.007
Mof_O 	O 	0.5423	0.1842	0.5039	0.027
Mof_Cl	Cl	0.7465	0.18246	0.86082	-0.239
Mof_O 	O 	0.7487	0.116	0.8565	0.024
Mof_O 	O 	0.7861	0.2044	0.8089	-0.044
Mof_O 	O 	0.789	0.1943	0.9147	0.034
Mof_O 	O 	0.6399	0.2104	0.8685	-0.01
Mof_Cl	Cl	0.7539	0.87035	0.84525	-0.235
Mof_O 	O 	0.7467	0.9365	0.8521	0.021
Mof_O 	O 	0.8612	0.8467	0.8599	-0.008
Mof_O 	O 	0.7252	0.8516	0.7907	-0.052
Mof_O 	O 	0.6659	0.8443	0.8786	0.016
Mof_Cl	Cl	0.9059	0.01404	0.99725	-0.236
Mof_O 	O 	0.985	0.9636	0.0065	0.002
Mof_O 	O 	0.984	0.0646	0.9867	-0.002
Mof_O 	O 	0.846	0.0184	0.0494	0.023
Mof_O 	O 	0.806	0.0053	0.9638	0.031
Mof_Cl	Cl	0.9686	0.8534	0.55268	-0.226
Mof_O 	O 	0.0128	0.8742	0.6049	-0.053
Mof_O 	O 	0.0092	0.8984	0.5124	-0.01
Mof_O 	O 	0.924	0.7989	0.525	0.03
Mof_O 	O 	0.8563	0.8799	0.5603	0.013
Mof_Cl	Cl	0.0123	0.78781	0.05021	-0.226
Mof_O 	O 	0.9878	0.8127	0.1028	-0.02
Mof_O 	O 	0.9853	0.7227	0.0487	0.008
Mof_O 	O 	0.131	0.7965	0.0431	-0.008
Mof_O 	O 	0.9577	0.8158	0.0039	0.023
Mof_Cl	Cl	0.7535	0.81754	0.36082	-0.239
Mof_O 	O 	0.7513	0.884	0.3565	0.023
Mof_O 	O 	0.7139	0.7956	0.3089	-0.045
Mof_O 	O 	0.711	0.8057	0.4147	0.034
Mof_O 	O 	0.8601	0.7896	0.3685	-0.011
Mof_Cl	Cl	0.7461	0.12965	0.34525	-0.235
Mof_O 	O 	0.7533	0.0635	0.3521	0.022
Mof_O 	O 	0.6388	0.1533	0.3599	-0.007
Mof_O 	O 	0.7748	0.1484	0.2907	-0.052
Mof_O 	O 	0.8341	0.1557	0.3786	0.016
Mof_Cl	Cl	0.5941	0.98596	0.49725	-0.236
Mof_O 	O 	0.515	0.0364	0.5065	0.007
Mof_O 	O 	0.516	0.9354	0.4867	-0.002
Mof_O 	O 	0.654	0.9816	0.5494	0.021
Mof_O 	O 	0.694	0.9947	0.4638	0.031
Mof_Cl	Cl	0.5314	0.1466	0.05268	-0.221
Mof_O 	O 	0.4872	0.1258	0.1049	-0.055
Mof_O 	O 	0.4908	0.1016	0.0124	-0.012
Mof_O 	O 	0.576	0.2011	0.025	0.03
Mof_O 	O 	0.6437	0.1201	0.0603	0.014
Mof_Cl	Cl	0.5123	0.71219	0.94979	-0.233
Mof_O 	O 	0.4878	0.6873	0.8972	-0.017
Mof_O 	O 	0.4853	0.7773	0.9513	0.011
Mof_O 	O 	0.631	0.7035	0.9569	-0.007
Mof_O 	O 	0.4577	0.6842	0.9961	0.027
Mof_Cl	Cl	0.2535	0.68246	0.63918	-0.239
Mof_O 	O 	0.2513	0.616	0.6435	0.024
Mof_O 	O 	0.2139	0.7044	0.6911	-0.044
Mof_O 	O 	0.211	0.6943	0.5853	0.035
Mof_O 	O 	0.3601	0.7104	0.6315	-0.01
Mof_Cl	Cl	0.2461	0.37035	0.65475	-0.235
Mof_O 	O 	0.2533	0.4365	0.6479	0.021
Mof_O 	O 	0.1388	0.3467	0.6401	-0.008
Mof_O 	O 	0.2748	0.3516	0.7093	-0.052
Mof_O 	O 	0.3341	0.3443	0.6214	0.015
Mof_Cl	Cl	0.0941	0.51404	0.50275	-0.236
Mof_O 	O 	0.015	0.4636	0.4935	0.006
Mof_O 	O 	0.016	0.5646	0.5133	-0.002
Mof_O 	O 	0.154	0.5184	0.4506	0.021
Mof_O 	O 	0.194	0.5053	0.5362	0.032
Mof_Cl	Cl	0.0314	0.3534	0.94732	-0.221
Mof_O 	O 	0.9872	0.3742	0.8951	-0.055
Mof_O 	O 	0.9908	0.3984	0.9876	-0.013
Mof_O 	O 	0.076	0.2989	0.975	0.028
Mof_O 	O 	0.1437	0.3799	0.9397	0.013
Mof_Cl	Cl	0.9877	0.28781	0.44979	-0.231
Mof_O 	O 	0.0122	0.3127	0.3972	-0.018
Mof_O 	O 	0.0147	0.2227	0.4513	0.01
Mof_O 	O 	0.869	0.2965	0.4569	-0.007
Mof_O 	O 	0.0423	0.3158	0.4961	0.026
Mof_Cl	Cl	0.2465	0.31754	0.13918	-0.239
Mof_O 	O 	0.2487	0.384	0.1435	0.024
Mof_O 	O 	0.2861	0.2956	0.1911	-0.044
Mof_O 	O 	0.289	0.3057	0.0853	0.034
Mof_O 	O 	0.1399	0.2896	0.1315	-0.01
Mof_Cl	Cl	0.2539	0.62965	0.15475	-0.235
Mof_O 	O 	0.2467	0.5635	0.1479	0.021
Mof_O 	O 	0.3612	0.6533	0.1401	-0.008
Mof_O 	O 	0.2252	0.6484	0.2093	-0.052
Mof_O 	O 	0.1659	0.6557	0.1214	0.016
Mof_Cl	Cl	0.4059	0.48596	0.00275	-0.237
Mof_O 	O 	0.485	0.5364	0.9935	0.006
Mof_O 	O 	0.484	0.4354	0.0133	-0.002
Mof_O 	O 	0.346	0.4816	0.9506	0.02
Mof_O 	O 	0.306	0.4947	0.0362	0.032
Mof_Cl	Cl	0.4686	0.6466	0.44732	-0.221
Mof_O 	O 	0.5128	0.6258	0.3951	-0.055
Mof_O 	O 	0.5092	0.6016	0.4876	-0.013
Mof_O 	O 	0.424	0.7011	0.475	0.03
Mof_O 	O 	0.3563	0.6201	0.4397	0.013
_end
