data_functionalizedCrystal
_audit_creation_method	'EQeq! by Chris Wilmer'
_symmetry_space_group_name_H-M	'P1'
_symmetry_Int_Tables_number	1
_symmetry_cell_setting	triclinic
loop_
_symmetry_equiv_pos_as_xyz
  x,y,z
_cell_length_a	7.302
_cell_length_b	10.267
_cell_length_c	18.15
_cell_angle_alpha	90
_cell_angle_beta	90
_cell_angle_gamma	94.01
loop_
_atom_site_label
_atom_site_type_symbol
_atom_site_fract_x
_atom_site_fract_y
_atom_site_fract_z
_atom_site_charge
Mof_Cu	Cu	0.8641	0.215	0.90526	0.914
Mof_Cu	Cu	0.0375	0.9292	0.93166	0.935
Mof_Cu	Cu	0.6359	0.285	0.40526	0.914
Mof_Cu	Cu	0.4625	0.5708	0.43166	0.94
Mof_Cu	Cu	0.1359	0.785	0.09474	0.914
Mof_Cu	Cu	0.9625	0.0708	0.06834	0.935
Mof_Cu	Cu	0.3641	0.715	0.59474	0.914
Mof_Cu	Cu	0.5375	0.4292	0.56834	0.94
Mof_H 	H 	0.7808	0.168	0.6904	0.052
Mof_H 	H 	0.9402	0.8027	0.7066	0.037
Mof_H 	H 	0.777	0.9463	0.5107	0.031
Mof_H 	H 	0.7192	0.332	0.1904	0.049
Mof_H 	H 	0.5598	0.6973	0.2066	0.035
Mof_H 	H 	0.723	0.5537	0.0107	0.031
Mof_H 	H 	0.2192	0.832	0.3096	0.052
Mof_H 	H 	0.0598	0.1973	0.2934	0.037
Mof_H 	H 	0.223	0.0537	0.4893	0.031
Mof_H 	H 	0.2808	0.668	0.8096	0.049
Mof_H 	H 	0.4402	0.3027	0.7934	0.035
Mof_H 	H 	0.277	0.4463	0.9893	0.031
Mof_C 	C 	0.855	0.8514	0.6036	-0.137
Mof_C 	C 	0.765	0.067	0.5945	-0.127
Mof_C 	C 	0.799	0.088	0.669	0.054
Mof_C 	C 	0.861	0.9851	0.7115	-0.109
Mof_C 	C 	0.896	0.0046	0.793	0.371
Mof_C 	C 	0.893	0.8692	0.6792	0.052
Mof_C 	C 	0.795	0.956	0.5612	0.065
Mof_C 	C 	0.695	0.185	0.5533	0.417
Mof_C 	C 	0.645	0.6486	0.1036	-0.138
Mof_C 	C 	0.735	0.433	0.0945	-0.125
Mof_C 	C 	0.701	0.412	0.169	0.06
Mof_C 	C 	0.639	0.5149	0.2115	-0.119
Mof_C 	C 	0.604	0.4954	0.293	0.382
Mof_C 	C 	0.607	0.6308	0.1792	0.056
Mof_C 	C 	0.705	0.544	0.0612	0.061
Mof_C 	C 	0.805	0.315	0.0533	0.413
Mof_C 	C 	0.145	0.1486	0.3964	-0.137
Mof_C 	C 	0.235	0.933	0.4055	-0.127
Mof_C 	C 	0.201	0.912	0.331	0.054
Mof_C 	C 	0.139	0.0149	0.2885	-0.109
Mof_C 	C 	0.104	0.9954	0.207	0.371
Mof_C 	C 	0.107	0.1308	0.3208	0.052
Mof_C 	C 	0.205	0.044	0.4388	0.065
Mof_C 	C 	0.305	0.815	0.4467	0.417
Mof_C 	C 	0.355	0.3514	0.8964	-0.138
Mof_C 	C 	0.265	0.567	0.9055	-0.125
Mof_C 	C 	0.299	0.588	0.831	0.06
Mof_C 	C 	0.361	0.4851	0.7885	-0.119
Mof_C 	C 	0.396	0.5046	0.707	0.382
Mof_C 	C 	0.393	0.3692	0.8208	0.056
Mof_C 	C 	0.295	0.456	0.9388	0.061
Mof_C 	C 	0.195	0.685	0.9467	0.413
Mof_S 	S 	0.8733	0.6907	0.565	0.526
Mof_S 	S 	0.6267	0.8093	0.065	0.524
Mof_S 	S 	0.1267	0.3093	0.435	0.526
Mof_S 	S 	0.3733	0.1907	0.935	0.524
Mof_O 	O 	0.941	0.9156	0.8318	-0.383
Mof_O 	O 	0.8703	0.0554	0.9657	-0.487
Mof_O 	O 	0.6552	0.1602	0.4855	-0.428
Mof_O 	O 	0.8784	0.1258	0.8134	-0.4
Mof_O 	O 	0.852	0.7012	0.4872	-0.285
Mof_O 	O 	0.673	0.2775	0.5896	-0.422
Mof_O 	O 	0.7257	0.6094	0.599	-0.366
Mof_O 	O 	0.0467	0.644	0.59	-0.311
Mof_O 	O 	0.559	0.5844	0.3318	-0.39
Mof_O 	O 	0.6297	0.4446	0.4657	-0.488
Mof_O 	O 	0.8448	0.3398	0.9855	-0.423
Mof_O 	O 	0.6216	0.3742	0.3134	-0.402
Mof_O 	O 	0.648	0.7988	0.9872	-0.285
Mof_O 	O 	0.827	0.2225	0.0896	-0.423
Mof_O 	O 	0.7743	0.8906	0.099	-0.363
Mof_O 	O 	0.4533	0.856	0.09	-0.308
Mof_O 	O 	0.059	0.0844	0.1682	-0.383
Mof_O 	O 	0.1297	0.9446	0.0343	-0.487
Mof_O 	O 	0.3448	0.8398	0.5145	-0.428
Mof_O 	O 	0.1216	0.8742	0.1866	-0.4
Mof_O 	O 	0.148	0.2988	0.5128	-0.285
Mof_O 	O 	0.327	0.7225	0.4104	-0.422
Mof_O 	O 	0.2743	0.3906	0.401	-0.366
Mof_O 	O 	0.9533	0.356	0.41	-0.311
Mof_O 	O 	0.441	0.4156	0.6682	-0.39
Mof_O 	O 	0.3703	0.5554	0.5343	-0.488
Mof_O 	O 	0.1552	0.6602	0.0145	-0.423
Mof_O 	O 	0.3784	0.6258	0.6866	-0.402
Mof_O 	O 	0.352	0.2012	0.0128	-0.285
Mof_O 	O 	0.173	0.7775	0.9104	-0.423
Mof_O 	O 	0.2257	0.1094	0.901	-0.363
Mof_O 	O 	0.5467	0.144	0.91	-0.308
_end
