data_functionalizedCrystal
_audit_creation_method	'EQeq! by Chris Wilmer'
_symmetry_space_group_name_H-M	'P1'
_symmetry_Int_Tables_number	1
_symmetry_cell_setting	triclinic
loop_
_symmetry_equiv_pos_as_xyz
  x,y,z
_cell_length_a	28.1747
_cell_length_b	28.1747
_cell_length_c	28.1747
_cell_angle_alpha	60
_cell_angle_beta	60
_cell_angle_gamma	60
loop_
_atom_site_label
_atom_site_type_symbol
_atom_site_fract_x
_atom_site_fract_y
_atom_site_fract_z
_atom_site_charge
Mof_H 	H 	0.18202	0.02714	0.33552	0.03
Mof_H 	H 	0.19083	0.92891	0.34461	0.049
Mof_C 	C 	0.21903	0.00505	0.30251	0.065
Mof_C 	C 	0.22408	0.95074	0.30772	-0.091
Mof_C 	C 	0.3228	0.7426	0.2444	-0.042
Mof_O 	O 	0.21009	0.11141	0.29115	-0.652
Mof_H 	H 	0.36067	0.75973	0.21274	0.037
Mof_H 	H 	0.72286	0.56798	0.41448	0.03
Mof_H 	H 	0.82109	0.55917	0.40539	0.048
Mof_C 	C 	0.74495	0.53097	0.44749	0.061
Mof_C 	C 	0.79926	0.52592	0.44228	-0.087
Mof_C 	C 	0.0074	0.4272	0.5056	-0.032
Mof_O 	O 	0.63859	0.53991	0.45885	-0.654
Mof_H 	H 	0.99027	0.38933	0.53726	0.035
Mof_H 	H 	0.02714	0.18202	0.45532	0.031
Mof_H 	H 	0.92891	0.19083	0.53565	0.05
Mof_C 	C 	0.00505	0.21903	0.47341	0.066
Mof_C 	C 	0.95074	0.22408	0.51746	-0.09
Mof_C 	C 	0.7426	0.3228	0.6902	-0.041
Mof_O 	O 	0.11141	0.21009	0.38735	-0.651
Mof_H 	H 	0.75973	0.36067	0.66687	0.038
Mof_H 	H 	0.56798	0.72286	0.29468	0.031
Mof_H 	H 	0.55917	0.82109	0.21435	0.049
Mof_C 	C 	0.53097	0.74495	0.27659	0.062
Mof_C 	C 	0.52592	0.79926	0.23254	-0.086
Mof_C 	C 	0.4272	0.0074	0.0598	-0.036
Mof_O 	O 	0.53991	0.63859	0.36265	-0.653
Mof_H 	H 	0.38933	0.99027	0.08313	0.036
Mof_H 	H 	0.33552	0.45532	0.18202	0.031
Mof_H 	H 	0.34461	0.53565	0.19083	0.049
Mof_C 	C 	0.30251	0.47341	0.21903	0.062
Mof_C 	C 	0.30772	0.51746	0.22408	-0.086
Mof_C 	C 	0.2444	0.6902	0.3228	-0.041
Mof_O 	O 	0.29115	0.38735	0.21009	-0.651
Mof_H 	H 	0.21274	0.66687	0.36067	0.038
Mof_H 	H 	0.41448	0.29468	0.72286	0.031
Mof_H 	H 	0.40539	0.21435	0.82109	0.049
Mof_C 	C 	0.44749	0.27659	0.74495	0.062
Mof_C 	C 	0.44228	0.23254	0.79926	-0.086
Mof_C 	C 	0.5056	0.0598	0.0074	-0.036
Mof_O 	O 	0.45885	0.36265	0.63859	-0.653
Mof_H 	H 	0.53726	0.08313	0.99027	0.036
Mof_H 	H 	0.45532	0.33552	0.02714	0.031
Mof_H 	H 	0.53565	0.34461	0.92891	0.05
Mof_C 	C 	0.47341	0.30251	0.00505	0.066
Mof_C 	C 	0.51746	0.30772	0.95074	-0.09
Mof_C 	C 	0.6902	0.2444	0.7426	-0.041
Mof_O 	O 	0.38735	0.29115	0.11141	-0.651
Mof_H 	H 	0.66687	0.21274	0.75973	0.038
Mof_H 	H 	0.29468	0.41448	0.56798	0.031
Mof_H 	H 	0.21435	0.40539	0.55917	0.049
Mof_C 	C 	0.27659	0.44749	0.53097	0.061
Mof_C 	C 	0.23254	0.44228	0.52592	-0.085
Mof_C 	C 	0.0598	0.5056	0.4272	-0.046
Mof_O 	O 	0.36265	0.45885	0.53991	-0.653
Mof_H 	H 	0.08313	0.53726	0.38933	0.039
Mof_H 	H 	0.33552	0.18202	0.02714	0.031
Mof_H 	H 	0.34461	0.19083	0.92891	0.05
Mof_C 	C 	0.30251	0.21903	0.00505	0.066
Mof_C 	C 	0.30772	0.22408	0.95074	-0.09
Mof_C 	C 	0.2444	0.3228	0.7426	-0.041
Mof_O 	O 	0.29115	0.21009	0.11141	-0.651
Mof_H 	H 	0.21274	0.36067	0.75973	0.038
Mof_H 	H 	0.41448	0.72286	0.56798	0.031
Mof_H 	H 	0.40539	0.82109	0.55917	0.049
Mof_C 	C 	0.44749	0.74495	0.53097	0.062
Mof_C 	C 	0.44228	0.79926	0.52592	-0.086
Mof_C 	C 	0.5056	0.0074	0.4272	-0.031
Mof_O 	O 	0.45885	0.63859	0.53991	-0.653
Mof_H 	H 	0.53726	0.99027	0.38933	0.035
Mof_H 	H 	0.45532	0.02714	0.18202	0.031
Mof_H 	H 	0.53565	0.92891	0.19083	0.05
Mof_C 	C 	0.47341	0.00505	0.21903	0.066
Mof_C 	C 	0.51746	0.95074	0.22408	-0.09
Mof_C 	C 	0.6902	0.7426	0.3228	-0.041
Mof_O 	O 	0.38735	0.11141	0.21009	-0.651
Mof_H 	H 	0.66687	0.75973	0.36067	0.038
Mof_H 	H 	0.29468	0.56798	0.72286	0.031
Mof_H 	H 	0.21435	0.55917	0.82109	0.049
Mof_C 	C 	0.27659	0.53097	0.74495	0.062
Mof_C 	C 	0.23254	0.52592	0.79926	-0.086
Mof_C 	C 	0.0598	0.4272	0.0074	-0.036
Mof_O 	O 	0.36265	0.53991	0.63859	-0.653
Mof_H 	H 	0.08313	0.38933	0.99027	0.036
Mof_H 	H 	0.18202	0.33552	0.45532	0.031
Mof_H 	H 	0.19083	0.34461	0.53565	0.049
Mof_C 	C 	0.21903	0.30251	0.47341	0.062
Mof_C 	C 	0.22408	0.30772	0.51746	-0.086
Mof_C 	C 	0.3228	0.2444	0.6902	-0.041
Mof_O 	O 	0.21009	0.29115	0.38735	-0.651
Mof_H 	H 	0.36067	0.21274	0.66687	0.038
Mof_H 	H 	0.72286	0.41448	0.29468	0.031
Mof_H 	H 	0.82109	0.40539	0.21435	0.049
Mof_C 	C 	0.74495	0.44749	0.27659	0.062
Mof_C 	C 	0.79926	0.44228	0.23254	-0.086
Mof_C 	C 	0.0074	0.5056	0.0598	-0.036
Mof_O 	O 	0.63859	0.45885	0.36265	-0.653
Mof_H 	H 	0.99027	0.53726	0.08313	0.036
Mof_H 	H 	0.02714	0.45532	0.33552	0.031
Mof_H 	H 	0.92891	0.53565	0.34461	0.05
Mof_C 	C 	0.00505	0.47341	0.30251	0.066
Mof_C 	C 	0.95074	0.51746	0.30772	-0.09
Mof_C 	C 	0.7426	0.6902	0.2444	-0.041
Mof_O 	O 	0.11141	0.38735	0.29115	-0.651
Mof_H 	H 	0.75973	0.66687	0.21274	0.038
Mof_H 	H 	0.56798	0.29468	0.41448	0.031
Mof_H 	H 	0.55917	0.21435	0.40539	0.049
Mof_C 	C 	0.53097	0.27659	0.44749	0.061
Mof_C 	C 	0.52592	0.23254	0.44228	-0.085
Mof_C 	C 	0.4272	0.0598	0.5056	-0.046
Mof_O 	O 	0.53991	0.36265	0.45885	-0.653
Mof_H 	H 	0.38933	0.08313	0.53726	0.039
Mof_H 	H 	0.02714	0.33552	0.18202	0.031
Mof_H 	H 	0.92891	0.34461	0.19083	0.05
Mof_C 	C 	0.00505	0.30251	0.21903	0.066
Mof_C 	C 	0.95074	0.30772	0.22408	-0.09
Mof_C 	C 	0.7426	0.2444	0.3228	-0.041
Mof_O 	O 	0.11141	0.29115	0.21009	-0.651
Mof_H 	H 	0.75973	0.21274	0.36067	0.038
Mof_H 	H 	0.56798	0.41448	0.72286	0.031
Mof_H 	H 	0.55917	0.40539	0.82109	0.049
Mof_C 	C 	0.53097	0.44749	0.74495	0.062
Mof_C 	C 	0.52592	0.44228	0.79926	-0.086
Mof_C 	C 	0.4272	0.5056	0.0074	-0.031
Mof_O 	O 	0.53991	0.45885	0.63859	-0.653
Mof_H 	H 	0.38933	0.53726	0.99027	0.035
Mof_H 	H 	0.18202	0.45532	0.02714	0.031
Mof_H 	H 	0.19083	0.53565	0.92891	0.05
Mof_C 	C 	0.21903	0.47341	0.00505	0.066
Mof_C 	C 	0.22408	0.51746	0.95074	-0.09
Mof_C 	C 	0.3228	0.6902	0.7426	-0.041
Mof_O 	O 	0.21009	0.38735	0.11141	-0.651
Mof_H 	H 	0.36067	0.66687	0.75973	0.038
Mof_H 	H 	0.72286	0.29468	0.56798	0.031
Mof_H 	H 	0.82109	0.21435	0.55917	0.049
Mof_C 	C 	0.74495	0.27659	0.53097	0.062
Mof_C 	C 	0.79926	0.23254	0.52592	-0.086
Mof_C 	C 	0.0074	0.0598	0.4272	-0.036
Mof_O 	O 	0.63859	0.36265	0.53991	-0.653
Mof_H 	H 	0.99027	0.08313	0.38933	0.036
Mof_H 	H 	0.45532	0.18202	0.33552	0.031
Mof_H 	H 	0.53565	0.19083	0.34461	0.049
Mof_C 	C 	0.47341	0.21903	0.30251	0.062
Mof_C 	C 	0.51746	0.22408	0.30772	-0.086
Mof_C 	C 	0.6902	0.3228	0.2444	-0.041
Mof_O 	O 	0.38735	0.21009	0.29115	-0.651
Mof_H 	H 	0.66687	0.36067	0.21274	0.038
Mof_H 	H 	0.29468	0.72286	0.41448	0.031
Mof_H 	H 	0.21435	0.82109	0.40539	0.049
Mof_C 	C 	0.27659	0.74495	0.44749	0.062
Mof_C 	C 	0.23254	0.79926	0.44228	-0.086
Mof_C 	C 	0.0598	0.0074	0.5056	-0.036
Mof_O 	O 	0.36265	0.63859	0.45885	-0.653
Mof_H 	H 	0.08313	0.99027	0.53726	0.036
Mof_H 	H 	0.33552	0.02714	0.45532	0.031
Mof_H 	H 	0.34461	0.92891	0.53565	0.05
Mof_C 	C 	0.30251	0.00505	0.47341	0.066
Mof_C 	C 	0.30772	0.95074	0.51746	-0.09
Mof_C 	C 	0.2444	0.7426	0.6902	-0.041
Mof_O 	O 	0.29115	0.11141	0.38735	-0.651
Mof_H 	H 	0.21274	0.75973	0.66687	0.038
Mof_H 	H 	0.41448	0.56798	0.29468	0.031
Mof_H 	H 	0.40539	0.55917	0.21435	0.049
Mof_C 	C 	0.44749	0.53097	0.27659	0.061
Mof_C 	C 	0.44228	0.52592	0.23254	-0.085
Mof_C 	C 	0.5056	0.4272	0.0598	-0.046
Mof_O 	O 	0.45885	0.53991	0.36265	-0.653
Mof_H 	H 	0.53726	0.38933	0.08313	0.039
Mof_H 	H 	0.02714	0.18202	0.33552	0.031
Mof_H 	H 	0.92891	0.19083	0.34461	0.05
Mof_C 	C 	0.00505	0.21903	0.30251	0.066
Mof_C 	C 	0.95074	0.22408	0.30772	-0.09
Mof_C 	C 	0.7426	0.3228	0.2444	-0.041
Mof_O 	O 	0.11141	0.21009	0.29115	-0.651
Mof_H 	H 	0.75973	0.36067	0.21274	0.038
Mof_H 	H 	0.56798	0.72286	0.41448	0.031
Mof_H 	H 	0.55917	0.82109	0.40539	0.049
Mof_C 	C 	0.53097	0.74495	0.44749	0.062
Mof_C 	C 	0.52592	0.79926	0.44228	-0.086
Mof_C 	C 	0.4272	0.0074	0.5056	-0.031
Mof_O 	O 	0.53991	0.63859	0.45885	-0.653
Mof_H 	H 	0.38933	0.99027	0.53726	0.035
Mof_H 	H 	0.18202	0.02714	0.45532	0.031
Mof_H 	H 	0.19083	0.92891	0.53565	0.05
Mof_C 	C 	0.21903	0.00505	0.47341	0.066
Mof_C 	C 	0.22408	0.95074	0.51746	-0.09
Mof_C 	C 	0.3228	0.7426	0.6902	-0.041
Mof_O 	O 	0.21009	0.11141	0.38735	-0.651
Mof_H 	H 	0.36067	0.75973	0.66687	0.038
Mof_H 	H 	0.72286	0.56798	0.29468	0.031
Mof_H 	H 	0.82109	0.55917	0.21435	0.049
Mof_C 	C 	0.74495	0.53097	0.27659	0.062
Mof_C 	C 	0.79926	0.52592	0.23254	-0.086
Mof_C 	C 	0.0074	0.4272	0.0598	-0.036
Mof_O 	O 	0.63859	0.53991	0.36265	-0.653
Mof_H 	H 	0.99027	0.38933	0.08313	0.036
Mof_H 	H 	0.45532	0.33552	0.18202	0.031
Mof_H 	H 	0.53565	0.34461	0.19083	0.049
Mof_C 	C 	0.47341	0.30251	0.21903	0.062
Mof_C 	C 	0.51746	0.30772	0.22408	-0.086
Mof_C 	C 	0.6902	0.2444	0.3228	-0.041
Mof_O 	O 	0.38735	0.29115	0.21009	-0.651
Mof_H 	H 	0.66687	0.21274	0.36067	0.038
Mof_H 	H 	0.29468	0.41448	0.72286	0.031
Mof_H 	H 	0.21435	0.40539	0.82109	0.049
Mof_C 	C 	0.27659	0.44749	0.74495	0.062
Mof_C 	C 	0.23254	0.44228	0.79926	-0.086
Mof_C 	C 	0.0598	0.5056	0.0074	-0.036
Mof_O 	O 	0.36265	0.45885	0.63859	-0.653
Mof_H 	H 	0.08313	0.53726	0.99027	0.036
Mof_H 	H 	0.33552	0.45532	0.02714	0.031
Mof_H 	H 	0.34461	0.53565	0.92891	0.05
Mof_C 	C 	0.30251	0.47341	0.00505	0.066
Mof_C 	C 	0.30772	0.51746	0.95074	-0.09
Mof_C 	C 	0.2444	0.6902	0.7426	-0.041
Mof_O 	O 	0.29115	0.38735	0.11141	-0.651
Mof_H 	H 	0.21274	0.66687	0.75973	0.038
Mof_H 	H 	0.41448	0.29468	0.56798	0.031
Mof_H 	H 	0.40539	0.21435	0.55917	0.049
Mof_C 	C 	0.44749	0.27659	0.53097	0.061
Mof_C 	C 	0.44228	0.23254	0.52592	-0.085
Mof_C 	C 	0.5056	0.0598	0.4272	-0.046
Mof_O 	O 	0.45885	0.36265	0.53991	-0.653
Mof_H 	H 	0.53726	0.08313	0.38933	0.039
Mof_H 	H 	0.18202	0.33552	0.02714	0.031
Mof_H 	H 	0.19083	0.34461	0.92891	0.05
Mof_C 	C 	0.21903	0.30251	0.00505	0.066
Mof_C 	C 	0.22408	0.30772	0.95074	-0.09
Mof_C 	C 	0.3228	0.2444	0.7426	-0.041
Mof_O 	O 	0.21009	0.29115	0.11141	-0.651
Mof_H 	H 	0.36067	0.21274	0.75973	0.038
Mof_H 	H 	0.72286	0.41448	0.56798	0.031
Mof_H 	H 	0.82109	0.40539	0.55917	0.049
Mof_C 	C 	0.74495	0.44749	0.53097	0.062
Mof_C 	C 	0.79926	0.44228	0.52592	-0.086
Mof_C 	C 	0.0074	0.5056	0.4272	-0.031
Mof_O 	O 	0.63859	0.45885	0.53991	-0.653
Mof_H 	H 	0.99027	0.53726	0.38933	0.035
Mof_H 	H 	0.02714	0.45532	0.18202	0.031
Mof_H 	H 	0.92891	0.53565	0.19083	0.05
Mof_C 	C 	0.00505	0.47341	0.21903	0.066
Mof_C 	C 	0.95074	0.51746	0.22408	-0.09
Mof_C 	C 	0.7426	0.6902	0.3228	-0.041
Mof_O 	O 	0.11141	0.38735	0.21009	-0.651
Mof_H 	H 	0.75973	0.66687	0.36067	0.038
Mof_H 	H 	0.56798	0.29468	0.72286	0.031
Mof_H 	H 	0.55917	0.21435	0.82109	0.049
Mof_C 	C 	0.53097	0.27659	0.74495	0.062
Mof_C 	C 	0.52592	0.23254	0.79926	-0.086
Mof_C 	C 	0.4272	0.0598	0.0074	-0.036
Mof_O 	O 	0.53991	0.36265	0.63859	-0.653
Mof_H 	H 	0.38933	0.08313	0.99027	0.036
Mof_H 	H 	0.33552	0.18202	0.45532	0.031
Mof_H 	H 	0.34461	0.19083	0.53565	0.049
Mof_C 	C 	0.30251	0.21903	0.47341	0.062
Mof_C 	C 	0.30772	0.22408	0.51746	-0.086
Mof_C 	C 	0.2444	0.3228	0.6902	-0.041
Mof_O 	O 	0.29115	0.21009	0.38735	-0.651
Mof_H 	H 	0.21274	0.36067	0.66687	0.038
Mof_H 	H 	0.41448	0.72286	0.29468	0.031
Mof_H 	H 	0.40539	0.82109	0.21435	0.049
Mof_C 	C 	0.44749	0.74495	0.27659	0.062
Mof_C 	C 	0.44228	0.79926	0.23254	-0.086
Mof_C 	C 	0.5056	0.0074	0.0598	-0.036
Mof_O 	O 	0.45885	0.63859	0.36265	-0.653
Mof_H 	H 	0.53726	0.99027	0.08313	0.036
Mof_H 	H 	0.45532	0.02714	0.33552	0.031
Mof_H 	H 	0.53565	0.92891	0.34461	0.05
Mof_C 	C 	0.47341	0.00505	0.30251	0.066
Mof_C 	C 	0.51746	0.95074	0.30772	-0.09
Mof_C 	C 	0.6902	0.7426	0.2444	-0.041
Mof_O 	O 	0.38735	0.11141	0.29115	-0.651
Mof_H 	H 	0.66687	0.75973	0.21274	0.038
Mof_H 	H 	0.29468	0.56798	0.41448	0.031
Mof_H 	H 	0.21435	0.55917	0.40539	0.049
Mof_C 	C 	0.27659	0.53097	0.44749	0.061
Mof_C 	C 	0.23254	0.52592	0.44228	-0.085
Mof_C 	C 	0.0598	0.4272	0.5056	-0.046
Mof_O 	O 	0.36265	0.53991	0.45885	-0.653
Mof_H 	H 	0.08313	0.38933	0.53726	0.039
Mof_H 	H 	0.33552	0.02714	0.18202	0.031
Mof_H 	H 	0.34461	0.92891	0.19083	0.05
Mof_C 	C 	0.30251	0.00505	0.21903	0.066
Mof_C 	C 	0.30772	0.95074	0.22408	-0.09
Mof_C 	C 	0.2444	0.7426	0.3228	-0.041
Mof_O 	O 	0.29115	0.11141	0.21009	-0.651
Mof_H 	H 	0.21274	0.75973	0.36067	0.038
Mof_H 	H 	0.41448	0.56798	0.72286	0.031
Mof_H 	H 	0.40539	0.55917	0.82109	0.049
Mof_C 	C 	0.44749	0.53097	0.74495	0.062
Mof_C 	C 	0.44228	0.52592	0.79926	-0.086
Mof_C 	C 	0.5056	0.4272	0.0074	-0.031
Mof_O 	O 	0.45885	0.53991	0.63859	-0.653
Mof_H 	H 	0.53726	0.38933	0.99027	0.035
Mof_H 	H 	0.45532	0.18202	0.02714	0.031
Mof_H 	H 	0.53565	0.19083	0.92891	0.05
Mof_C 	C 	0.47341	0.21903	0.00505	0.066
Mof_C 	C 	0.51746	0.22408	0.95074	-0.09
Mof_C 	C 	0.6902	0.3228	0.7426	-0.041
Mof_O 	O 	0.38735	0.21009	0.11141	-0.651
Mof_H 	H 	0.66687	0.36067	0.75973	0.038
Mof_H 	H 	0.29468	0.72286	0.56798	0.031
Mof_H 	H 	0.21435	0.82109	0.55917	0.049
Mof_C 	C 	0.27659	0.74495	0.53097	0.062
Mof_C 	C 	0.23254	0.79926	0.52592	-0.086
Mof_C 	C 	0.0598	0.0074	0.4272	-0.036
Mof_O 	O 	0.36265	0.63859	0.53991	-0.653
Mof_H 	H 	0.08313	0.99027	0.38933	0.036
Mof_H 	H 	0.18202	0.45532	0.33552	0.031
Mof_H 	H 	0.19083	0.53565	0.34461	0.049
Mof_C 	C 	0.21903	0.47341	0.30251	0.062
Mof_C 	C 	0.22408	0.51746	0.30772	-0.086
Mof_C 	C 	0.3228	0.6902	0.2444	-0.041
Mof_O 	O 	0.21009	0.38735	0.29115	-0.651
Mof_H 	H 	0.36067	0.66687	0.21274	0.038
Mof_H 	H 	0.72286	0.29468	0.41448	0.031
Mof_H 	H 	0.82109	0.21435	0.40539	0.049
Mof_C 	C 	0.74495	0.27659	0.44749	0.062
Mof_C 	C 	0.79926	0.23254	0.44228	-0.086
Mof_C 	C 	0.0074	0.0598	0.5056	-0.036
Mof_O 	O 	0.63859	0.36265	0.45885	-0.653
Mof_H 	H 	0.99027	0.08313	0.53726	0.036
Mof_H 	H 	0.02714	0.33552	0.45532	0.031
Mof_H 	H 	0.92891	0.34461	0.53565	0.05
Mof_C 	C 	0.00505	0.30251	0.47341	0.066
Mof_C 	C 	0.95074	0.30772	0.51746	-0.09
Mof_C 	C 	0.7426	0.2444	0.6902	-0.041
Mof_O 	O 	0.11141	0.29115	0.38735	-0.651
Mof_H 	H 	0.75973	0.21274	0.66687	0.038
Mof_H 	H 	0.56798	0.41448	0.29468	0.031
Mof_H 	H 	0.55917	0.40539	0.21435	0.049
Mof_C 	C 	0.53097	0.44749	0.27659	0.061
Mof_C 	C 	0.52592	0.44228	0.23254	-0.085
Mof_C 	C 	0.4272	0.5056	0.0598	-0.046
Mof_O 	O 	0.53991	0.45885	0.36265	-0.653
Mof_H 	H 	0.38933	0.53726	0.08313	0.039
Mof_Zr	Zr	0.18779	0.18779	0.31221	3.216
Mof_Zr	Zr	0.31221	0.31221	0.18779	3.216
Mof_Zr	Zr	0.31221	0.18779	0.18779	3.216
Mof_Zr	Zr	0.18779	0.31221	0.31221	3.216
Mof_Zr	Zr	0.18779	0.31221	0.18779	3.216
Mof_Zr	Zr	0.31221	0.18779	0.31221	3.216
Mof_Zr	Zr	0.56221	0.56221	0.43779	3.22
Mof_Zr	Zr	0.43779	0.43779	0.56221	3.22
Mof_Zr	Zr	0.43779	0.56221	0.56221	3.22
Mof_Zr	Zr	0.56221	0.43779	0.43779	3.22
Mof_Zr	Zr	0.56221	0.43779	0.56221	3.22
Mof_Zr	Zr	0.43779	0.56221	0.43779	3.22
Mof_C 	C 	0.25339	0.08893	0.25339	0.499
Mof_C 	C 	0.25816	0.03158	0.25816	-0.164
Mof_C 	C 	0.08893	0.25339	0.40429	0.499
Mof_C 	C 	0.03158	0.25816	0.4521	-0.164
Mof_C 	C 	0.25339	0.40429	0.25339	0.498
Mof_C 	C 	0.25816	0.4521	0.25816	-0.161
Mof_C 	C 	0.40429	0.25339	0.08893	0.499
Mof_C 	C 	0.4521	0.25816	0.03158	-0.164
Mof_C 	C 	0.25339	0.25339	0.08893	0.499
Mof_C 	C 	0.25816	0.25816	0.03158	-0.164
Mof_C 	C 	0.40429	0.08893	0.25339	0.499
Mof_C 	C 	0.4521	0.03158	0.25816	-0.164
Mof_C 	C 	0.25339	0.25339	0.40429	0.498
Mof_C 	C 	0.25816	0.25816	0.4521	-0.161
Mof_C 	C 	0.08893	0.40429	0.25339	0.499
Mof_C 	C 	0.03158	0.4521	0.25816	-0.164
Mof_C 	C 	0.08893	0.25339	0.25339	0.499
Mof_C 	C 	0.03158	0.25816	0.25816	-0.164
Mof_C 	C 	0.25339	0.40429	0.08893	0.499
Mof_C 	C 	0.25816	0.4521	0.03158	-0.164
Mof_C 	C 	0.40429	0.25339	0.25339	0.498
Mof_C 	C 	0.4521	0.25816	0.25816	-0.161
Mof_C 	C 	0.25339	0.08893	0.40429	0.499
Mof_C 	C 	0.25816	0.03158	0.4521	-0.164
Mof_C 	C 	0.2688	0.92312	0.2688	0.06
Mof_C 	C 	0.274	0.86792	0.274	-0.034
Mof_C 	C 	0.2781	0.82192	0.2781	-0.014
Mof_C 	C 	0.2801	0.76968	0.2801	0.02
Mof_C 	C 	0.92312	0.2688	0.53928	0.06
Mof_C 	C 	0.86792	0.274	0.58408	-0.034
Mof_C 	C 	0.82192	0.2781	0.62188	-0.014
Mof_C 	C 	0.76968	0.2801	0.67012	0.02
Mof_C 	C 	0.2688	0.53928	0.2688	0.058
Mof_C 	C 	0.274	0.58408	0.274	-0.033
Mof_C 	C 	0.2781	0.62188	0.2781	-0.014
Mof_C 	C 	0.2801	0.67012	0.2801	0.02
Mof_C 	C 	0.53928	0.2688	0.92312	0.06
Mof_C 	C 	0.58408	0.274	0.86792	-0.034
Mof_C 	C 	0.62188	0.2781	0.82192	-0.014
Mof_C 	C 	0.67012	0.2801	0.76968	0.02
Mof_C 	C 	0.2688	0.2688	0.92312	0.06
Mof_C 	C 	0.274	0.274	0.86792	-0.034
Mof_C 	C 	0.2781	0.2781	0.82192	-0.014
Mof_C 	C 	0.2801	0.2801	0.76968	0.02
Mof_C 	C 	0.53928	0.92312	0.2688	0.06
Mof_C 	C 	0.58408	0.86792	0.274	-0.034
Mof_C 	C 	0.62188	0.82192	0.2781	-0.014
Mof_C 	C 	0.67012	0.76968	0.2801	0.02
Mof_C 	C 	0.2688	0.2688	0.53928	0.058
Mof_C 	C 	0.274	0.274	0.58408	-0.033
Mof_C 	C 	0.2781	0.2781	0.62188	-0.014
Mof_C 	C 	0.2801	0.2801	0.67012	0.02
Mof_C 	C 	0.92312	0.53928	0.2688	0.06
Mof_C 	C 	0.86792	0.58408	0.274	-0.034
Mof_C 	C 	0.82192	0.62188	0.2781	-0.014
Mof_C 	C 	0.76968	0.67012	0.2801	0.02
Mof_C 	C 	0.92312	0.2688	0.2688	0.06
Mof_C 	C 	0.86792	0.274	0.274	-0.034
Mof_C 	C 	0.82192	0.2781	0.2781	-0.014
Mof_C 	C 	0.76968	0.2801	0.2801	0.02
Mof_C 	C 	0.2688	0.53928	0.92312	0.06
Mof_C 	C 	0.274	0.58408	0.86792	-0.034
Mof_C 	C 	0.2781	0.62188	0.82192	-0.014
Mof_C 	C 	0.2801	0.67012	0.76968	0.02
Mof_C 	C 	0.53928	0.2688	0.2688	0.058
Mof_C 	C 	0.58408	0.274	0.274	-0.033
Mof_C 	C 	0.62188	0.2781	0.2781	-0.014
Mof_C 	C 	0.67012	0.2801	0.2801	0.02
Mof_C 	C 	0.2688	0.92312	0.53928	0.06
Mof_C 	C 	0.274	0.86792	0.58408	-0.034
Mof_C 	C 	0.2781	0.82192	0.62188	-0.014
Mof_C 	C 	0.2801	0.76968	0.67012	0.02
Mof_C 	C 	0.66107	0.49661	0.49661	0.494
Mof_C 	C 	0.71842	0.49184	0.49184	-0.161
Mof_C 	C 	0.82688	0.4812	0.4812	0.059
Mof_C 	C 	0.88208	0.476	0.476	-0.036
Mof_C 	C 	0.92808	0.4719	0.4719	-0.01
Mof_C 	C 	0.98032	0.4699	0.4699	0.008
Mof_C 	C 	0.49661	0.66107	0.34571	0.494
Mof_C 	C 	0.49184	0.71842	0.2979	-0.161
Mof_C 	C 	0.4812	0.82688	0.21072	0.058
Mof_C 	C 	0.476	0.88208	0.16592	-0.035
Mof_C 	C 	0.4719	0.92808	0.12812	-0.012
Mof_C 	C 	0.4699	0.98032	0.07988	0.013
Mof_C 	C 	0.49661	0.34571	0.66107	0.494
Mof_C 	C 	0.49184	0.2979	0.71842	-0.161
Mof_C 	C 	0.4812	0.21072	0.82688	0.058
Mof_C 	C 	0.476	0.16592	0.88208	-0.035
Mof_C 	C 	0.4719	0.12812	0.92808	-0.012
Mof_C 	C 	0.4699	0.07988	0.98032	0.013
Mof_C 	C 	0.34571	0.49661	0.49661	0.494
Mof_C 	C 	0.2979	0.49184	0.49184	-0.161
Mof_C 	C 	0.21072	0.4812	0.4812	0.057
Mof_C 	C 	0.16592	0.476	0.476	-0.032
Mof_C 	C 	0.12812	0.4719	0.4719	-0.016
Mof_C 	C 	0.07988	0.4699	0.4699	0.024
Mof_C 	C 	0.49661	0.66107	0.49661	0.494
Mof_C 	C 	0.49184	0.71842	0.49184	-0.161
Mof_C 	C 	0.4812	0.82688	0.4812	0.059
Mof_C 	C 	0.476	0.88208	0.476	-0.036
Mof_C 	C 	0.4719	0.92808	0.4719	-0.01
Mof_C 	C 	0.4699	0.98032	0.4699	0.008
Mof_C 	C 	0.34571	0.49661	0.66107	0.494
Mof_C 	C 	0.2979	0.49184	0.71842	-0.161
Mof_C 	C 	0.21072	0.4812	0.82688	0.058
Mof_C 	C 	0.16592	0.476	0.88208	-0.035
Mof_C 	C 	0.12812	0.4719	0.92808	-0.012
Mof_C 	C 	0.07988	0.4699	0.98032	0.013
Mof_C 	C 	0.66107	0.49661	0.34571	0.494
Mof_C 	C 	0.71842	0.49184	0.2979	-0.161
Mof_C 	C 	0.82688	0.4812	0.21072	0.058
Mof_C 	C 	0.88208	0.476	0.16592	-0.035
Mof_C 	C 	0.92808	0.4719	0.12812	-0.012
Mof_C 	C 	0.98032	0.4699	0.07988	0.013
Mof_C 	C 	0.49661	0.34571	0.49661	0.494
Mof_C 	C 	0.49184	0.2979	0.49184	-0.161
Mof_C 	C 	0.4812	0.21072	0.4812	0.057
Mof_C 	C 	0.476	0.16592	0.476	-0.032
Mof_C 	C 	0.4719	0.12812	0.4719	-0.016
Mof_C 	C 	0.4699	0.07988	0.4699	0.024
Mof_C 	C 	0.49661	0.49661	0.66107	0.494
Mof_C 	C 	0.49184	0.49184	0.71842	-0.161
Mof_C 	C 	0.4812	0.4812	0.82688	0.059
Mof_C 	C 	0.476	0.476	0.88208	-0.036
Mof_C 	C 	0.4719	0.4719	0.92808	-0.01
Mof_C 	C 	0.4699	0.4699	0.98032	0.008
Mof_C 	C 	0.66107	0.34571	0.49661	0.494
Mof_C 	C 	0.71842	0.2979	0.49184	-0.161
Mof_C 	C 	0.82688	0.21072	0.4812	0.058
Mof_C 	C 	0.88208	0.16592	0.476	-0.035
Mof_C 	C 	0.92808	0.12812	0.4719	-0.012
Mof_C 	C 	0.98032	0.07988	0.4699	0.013
Mof_C 	C 	0.34571	0.66107	0.49661	0.494
Mof_C 	C 	0.2979	0.71842	0.49184	-0.161
Mof_C 	C 	0.21072	0.82688	0.4812	0.058
Mof_C 	C 	0.16592	0.88208	0.476	-0.035
Mof_C 	C 	0.12812	0.92808	0.4719	-0.012
Mof_C 	C 	0.07988	0.98032	0.4699	0.013
Mof_C 	C 	0.49661	0.49661	0.34571	0.494
Mof_C 	C 	0.49184	0.49184	0.2979	-0.161
Mof_C 	C 	0.4812	0.4812	0.21072	0.057
Mof_C 	C 	0.476	0.476	0.16592	-0.032
Mof_C 	C 	0.4719	0.4719	0.12812	-0.016
Mof_C 	C 	0.4699	0.4699	0.07988	0.024
Mof_O 	O 	0.16267	0.27911	0.27911	-1.309
Mof_O 	O 	0.27911	0.16267	0.27911	-1.309
Mof_O 	O 	0.27911	0.27911	0.16267	-1.309
Mof_O 	O 	0.27911	0.27911	0.27911	-1.309
Mof_O 	O 	0.47089	0.58733	0.47089	-1.278
Mof_O 	O 	0.58733	0.47089	0.47089	-1.278
Mof_O 	O 	0.47089	0.47089	0.47089	-1.278
Mof_O 	O 	0.47089	0.47089	0.58733	-1.278
Mof_O 	O 	0.21741	0.21741	0.34777	-1.359
Mof_H 	H 	0.20353	0.20353	0.38941	0.324
Mof_O 	O 	0.21741	0.21741	0.21741	-1.359
Mof_H 	H 	0.20353	0.20353	0.20353	0.324
Mof_O 	O 	0.34777	0.21741	0.21741	-1.359
Mof_H 	H 	0.38941	0.20353	0.20353	0.324
Mof_O 	O 	0.21741	0.34777	0.21741	-1.359
Mof_H 	H 	0.20353	0.38941	0.20353	0.324
Mof_O 	O 	0.53259	0.53259	0.40223	-1.613
Mof_O 	O 	0.53259	0.53259	0.53259	-1.613
Mof_O 	O 	0.40223	0.53259	0.53259	-1.613
Mof_O 	O 	0.53259	0.40223	0.53259	-1.613
Mof_H 	H 	0.54422	0.54422	0.54422	0.577
Mof_H 	H 	0.54422	0.54422	0.36734	0.577
Mof_H 	H 	0.54422	0.36734	0.54422	0.577
Mof_H 	H 	0.36734	0.54422	0.54422	0.577
_end
