data_functionalizedCrystal
_audit_creation_method	'EQeq! by Chris Wilmer'
_symmetry_space_group_name_H-M	'P1'
_symmetry_Int_Tables_number	1
_symmetry_cell_setting	triclinic
loop_
_symmetry_equiv_pos_as_xyz
  x,y,z
_cell_length_a	14.932
_cell_length_b	17.072
_cell_length_c	21.282
_cell_angle_alpha	90
_cell_angle_beta	90
_cell_angle_gamma	90
loop_
_atom_site_label
_atom_site_type_symbol
_atom_site_fract_x
_atom_site_fract_y
_atom_site_fract_z
_atom_site_charge
Mof_Co	Co	0.59889	0.46863	0.48766	1.134
Mof_Co	Co	0.44266	0.38951	0.3915	1.172
Mof_O 	O 	0.88202	0.57294	0.0815	-0.417
Mof_O 	O 	0.83671	0.46204	0.1286	-0.431
Mof_O 	O 	0.59924	0.81688	0.18809	-0.363
Mof_O 	O 	0.64868	0.79047	0.09308	-0.362
Mof_O 	O 	0.85256	0.86044	0.45922	-0.448
Mof_O 	O 	0.95936	0.8054	0.39986	-0.432
Mof_O 	O 	0.46295	0.4307	0.48043	-0.742
Mof_H 	H 	0.4491	0.3909	0.5066	0.214
Mof_N 	N 	0.61822	0.54729	0.29534	-0.196
Mof_N 	N 	0.5928	0.51029	0.39169	-0.216
Mof_N 	N 	0.53525	0.46972	0.35228	-0.26
Mof_C 	C 	0.64127	0.55732	0.35688	0.097
Mof_C 	C 	0.55091	0.49285	0.29472	0.34
Mof_C 	C 	0.65857	0.5845	0.24141	0.108
Mof_C 	C 	0.72297	0.54362	0.2078	-0.106
Mof_H 	H 	0.7397	0.4934	0.22	0.076
Mof_C 	C 	0.76236	0.57862	0.15545	-0.042
Mof_C 	C 	0.73464	0.65279	0.13685	-0.034
Mof_H 	H 	0.7593	0.6756	0.1011	0.064
Mof_C 	C 	0.67023	0.69324	0.17133	-0.025
Mof_C 	C 	0.6323	0.65949	0.22481	-0.105
Mof_H 	H 	0.5904	0.6867	0.2487	0.084
Mof_C 	C 	0.83306	0.53498	0.11889	0.315
Mof_C 	C 	0.63829	0.77207	0.1498	0.288
Mof_C 	C 	0.7066	0.61747	0.37795	-0.012
Mof_C 	C 	0.67526	0.67988	0.41309	-0.085
Mof_H 	H 	0.6154	0.6819	0.4251	0.043
Mof_C 	C 	0.73348	0.73949	0.43043	0.017
Mof_H 	H 	0.7127	0.7807	0.455	0.037
Mof_C 	C 	0.8226	0.73825	0.41149	-0.104
Mof_C 	C 	0.85423	0.67463	0.37693	0.013
Mof_H 	H 	0.9141	0.6726	0.3649	0.037
Mof_C 	C 	0.79658	0.61434	0.36045	-0.077
Mof_H 	H 	0.8179	0.5718	0.3377	0.048
Mof_C 	C 	0.88338	0.80698	0.42529	0.38
Mof_C 	C 	0.50215	0.46782	0.23707	-0.908
Mof_H 	H 	0.5261	0.4949	0.2013	0.3
Mof_H 	H 	0.4397	0.4801	0.2414	0.296
Mof_H 	H 	0.5092	0.4124	0.2314	0.3
Mof_Co	Co	0.90111	0.53137	0.98766	1.134
Mof_Co	Co	0.05734	0.61049	0.8915	1.174
Mof_O 	O 	0.61798	0.42706	0.5815	-0.417
Mof_O 	O 	0.66329	0.53796	0.6286	-0.43
Mof_O 	O 	0.90076	0.18312	0.68809	-0.364
Mof_O 	O 	0.85132	0.20953	0.59308	-0.362
Mof_O 	O 	0.64744	0.13956	0.95922	-0.449
Mof_O 	O 	0.54064	0.1946	0.89986	-0.432
Mof_O 	O 	0.03705	0.5693	0.98043	-0.737
Mof_H 	H 	0.0509	0.6091	0.0066	0.209
Mof_N 	N 	0.88178	0.45271	0.79534	-0.196
Mof_N 	N 	0.9072	0.48971	0.89169	-0.217
Mof_N 	N 	0.96475	0.53028	0.85228	-0.261
Mof_C 	C 	0.85873	0.44268	0.85688	0.096
Mof_C 	C 	0.94909	0.50715	0.79472	0.342
Mof_C 	C 	0.84143	0.4155	0.74141	0.108
Mof_C 	C 	0.77703	0.45638	0.7078	-0.105
Mof_H 	H 	0.7603	0.5066	0.72	0.076
Mof_C 	C 	0.73764	0.42138	0.65545	-0.043
Mof_C 	C 	0.76536	0.34721	0.63685	-0.033
Mof_H 	H 	0.7407	0.3244	0.6011	0.064
Mof_C 	C 	0.82977	0.30676	0.67133	-0.026
Mof_C 	C 	0.8677	0.34051	0.72481	-0.105
Mof_H 	H 	0.9096	0.3133	0.7487	0.083
Mof_C 	C 	0.66694	0.46502	0.61889	0.315
Mof_C 	C 	0.86171	0.22793	0.6498	0.288
Mof_C 	C 	0.7934	0.38253	0.87795	-0.012
Mof_C 	C 	0.82474	0.32012	0.91309	-0.086
Mof_H 	H 	0.8846	0.3181	0.9251	0.042
Mof_C 	C 	0.76652	0.26051	0.93043	0.018
Mof_H 	H 	0.7873	0.2193	0.955	0.036
Mof_C 	C 	0.6774	0.26175	0.91149	-0.104
Mof_C 	C 	0.64577	0.32537	0.87693	0.014
Mof_H 	H 	0.5859	0.3274	0.8649	0.037
Mof_C 	C 	0.70342	0.38566	0.86045	-0.077
Mof_H 	H 	0.6821	0.4282	0.8377	0.048
Mof_C 	C 	0.61662	0.19302	0.92529	0.38
Mof_C 	C 	0.99785	0.53218	0.73707	-0.915
Mof_H 	H 	0.9739	0.5051	0.7013	0.302
Mof_H 	H 	0.0603	0.5199	0.7414	0.299
Mof_H 	H 	0.9908	0.5876	0.7314	0.301
Mof_Co	Co	0.40111	0.96863	0.01234	1.134
Mof_Co	Co	0.55734	0.88951	0.1085	1.173
Mof_O 	O 	0.11798	0.07294	0.4185	-0.417
Mof_O 	O 	0.16329	0.96204	0.3714	-0.431
Mof_O 	O 	0.40076	0.31688	0.31191	-0.364
Mof_O 	O 	0.35132	0.29047	0.40692	-0.362
Mof_O 	O 	0.14744	0.36044	0.04078	-0.449
Mof_O 	O 	0.04064	0.3054	0.10014	-0.434
Mof_O 	O 	0.53705	0.9307	0.01957	-0.744
Mof_H 	H 	0.5509	0.8909	0.9934	0.216
Mof_N 	N 	0.38178	0.04729	0.20466	-0.195
Mof_N 	N 	0.4072	0.01029	0.10831	-0.215
Mof_N 	N 	0.46475	0.96972	0.14772	-0.26
Mof_C 	C 	0.35873	0.05732	0.14312	0.097
Mof_C 	C 	0.44909	0.99285	0.20528	0.339
Mof_C 	C 	0.34143	0.0845	0.25859	0.107
Mof_C 	C 	0.27703	0.04362	0.2922	-0.102
Mof_H 	H 	0.2603	0.9934	0.28	0.074
Mof_C 	C 	0.23764	0.07862	0.34455	-0.045
Mof_C 	C 	0.26536	0.15279	0.36315	-0.032
Mof_H 	H 	0.2407	0.1756	0.3989	0.064
Mof_C 	C 	0.32977	0.19324	0.32867	-0.027
Mof_C 	C 	0.3677	0.15949	0.27519	-0.104
Mof_H 	H 	0.4096	0.1867	0.2513	0.083
Mof_C 	C 	0.16694	0.03498	0.38111	0.317
Mof_C 	C 	0.36171	0.27207	0.3502	0.289
Mof_C 	C 	0.2934	0.11747	0.12205	-0.011
Mof_C 	C 	0.32474	0.17988	0.08691	-0.086
Mof_H 	H 	0.3846	0.1819	0.0749	0.043
Mof_C 	C 	0.26652	0.23949	0.06957	0.018
Mof_H 	H 	0.2873	0.2807	0.045	0.037
Mof_C 	C 	0.1774	0.23825	0.08851	-0.104
Mof_C 	C 	0.14577	0.17463	0.12307	0.014
Mof_H 	H 	0.0859	0.1726	0.1351	0.036
Mof_C 	C 	0.20342	0.11434	0.13955	-0.077
Mof_H 	H 	0.1821	0.0718	0.1623	0.048
Mof_C 	C 	0.11662	0.30698	0.07471	0.381
Mof_C 	C 	0.49785	0.96782	0.26293	-0.906
Mof_H 	H 	0.4739	0.9949	0.2987	0.299
Mof_H 	H 	0.5603	0.9801	0.2586	0.296
Mof_H 	H 	0.4908	0.9124	0.2686	0.299
Mof_Co	Co	0.09889	0.03137	0.51234	1.135
Mof_Co	Co	0.94266	0.11049	0.6085	1.173
Mof_O 	O 	0.38202	0.92706	0.9185	-0.416
Mof_O 	O 	0.33671	0.03796	0.8714	-0.431
Mof_O 	O 	0.09924	0.68312	0.81191	-0.363
Mof_O 	O 	0.14868	0.70953	0.90692	-0.36
Mof_O 	O 	0.35256	0.63956	0.54078	-0.448
Mof_O 	O 	0.45936	0.6946	0.60014	-0.432
Mof_O 	O 	0.96295	0.0693	0.51957	-0.743
Mof_H 	H 	0.9491	0.1091	0.4934	0.214
Mof_N 	N 	0.11822	0.95271	0.70466	-0.195
Mof_N 	N 	0.0928	0.98971	0.60831	-0.216
Mof_N 	N 	0.03525	0.03028	0.64772	-0.259
Mof_C 	C 	0.14127	0.94268	0.64312	0.097
Mof_C 	C 	0.05091	0.00715	0.70528	0.338
Mof_C 	C 	0.15857	0.9155	0.75859	0.107
Mof_C 	C 	0.22297	0.95638	0.7922	-0.102
Mof_H 	H 	0.2397	0.0066	0.78	0.074
Mof_C 	C 	0.26236	0.92138	0.84455	-0.044
Mof_C 	C 	0.23464	0.84721	0.86315	-0.033
Mof_H 	H 	0.2593	0.8244	0.8989	0.064
Mof_C 	C 	0.17023	0.80676	0.82867	-0.026
Mof_C 	C 	0.1323	0.84051	0.77519	-0.104
Mof_H 	H 	0.0904	0.8133	0.7513	0.084
Mof_C 	C 	0.33306	0.96502	0.88111	0.317
Mof_C 	C 	0.13829	0.72793	0.8502	0.288
Mof_C 	C 	0.2066	0.88253	0.62205	-0.012
Mof_C 	C 	0.17526	0.82012	0.58691	-0.085
Mof_H 	H 	0.1154	0.8181	0.5749	0.043
Mof_C 	C 	0.23348	0.76051	0.56957	0.018
Mof_H 	H 	0.2127	0.7193	0.545	0.037
Mof_C 	C 	0.3226	0.76175	0.58851	-0.104
Mof_C 	C 	0.35423	0.82537	0.62307	0.014
Mof_H 	H 	0.4141	0.8274	0.6351	0.037
Mof_C 	C 	0.29658	0.88566	0.63955	-0.077
Mof_H 	H 	0.3179	0.9282	0.6623	0.048
Mof_C 	C 	0.38338	0.69302	0.57471	0.38
Mof_C 	C 	0.00215	0.03218	0.76293	-0.897
Mof_H 	H 	0.0261	0.0051	0.7987	0.297
Mof_H 	H 	0.9397	0.0199	0.7586	0.291
Mof_H 	H 	0.0092	0.0876	0.7686	0.297
Mof_Co	Co	0.40111	0.53137	0.51234	1.135
Mof_Co	Co	0.55734	0.61049	0.6085	1.173
Mof_O 	O 	0.11798	0.42706	0.9185	-0.416
Mof_O 	O 	0.16329	0.53796	0.8714	-0.43
Mof_O 	O 	0.40076	0.18312	0.81191	-0.363
Mof_O 	O 	0.35132	0.20953	0.90692	-0.362
Mof_O 	O 	0.14744	0.13956	0.54078	-0.448
Mof_O 	O 	0.04064	0.1946	0.60014	-0.432
Mof_O 	O 	0.53705	0.5693	0.51957	-0.742
Mof_H 	H 	0.5509	0.6091	0.4934	0.214
Mof_N 	N 	0.38178	0.45271	0.70466	-0.196
Mof_N 	N 	0.4072	0.48971	0.60831	-0.216
Mof_N 	N 	0.46475	0.53028	0.64772	-0.26
Mof_C 	C 	0.35873	0.44268	0.64312	0.097
Mof_C 	C 	0.44909	0.50715	0.70528	0.34
Mof_C 	C 	0.34143	0.4155	0.75859	0.108
Mof_C 	C 	0.27703	0.45638	0.7922	-0.106
Mof_H 	H 	0.2603	0.5066	0.78	0.076
Mof_C 	C 	0.23764	0.42138	0.84455	-0.042
Mof_C 	C 	0.26536	0.34721	0.86315	-0.034
Mof_H 	H 	0.2407	0.3244	0.8989	0.064
Mof_C 	C 	0.32977	0.30676	0.82867	-0.025
Mof_C 	C 	0.3677	0.34051	0.77519	-0.105
Mof_H 	H 	0.4096	0.3133	0.7513	0.084
Mof_C 	C 	0.16694	0.46502	0.88111	0.315
Mof_C 	C 	0.36171	0.22793	0.8502	0.288
Mof_C 	C 	0.2934	0.38253	0.62205	-0.012
Mof_C 	C 	0.32474	0.32012	0.58691	-0.085
Mof_H 	H 	0.3846	0.3181	0.5749	0.043
Mof_C 	C 	0.26652	0.26051	0.56957	0.017
Mof_H 	H 	0.2873	0.2193	0.545	0.037
Mof_C 	C 	0.1774	0.26175	0.58851	-0.104
Mof_C 	C 	0.14577	0.32537	0.62307	0.013
Mof_H 	H 	0.0859	0.3274	0.6351	0.037
Mof_C 	C 	0.20342	0.38566	0.63955	-0.077
Mof_H 	H 	0.1821	0.4282	0.6623	0.048
Mof_C 	C 	0.11662	0.19302	0.57471	0.38
Mof_C 	C 	0.49785	0.53218	0.76293	-0.908
Mof_H 	H 	0.4739	0.5051	0.7987	0.3
Mof_H 	H 	0.5603	0.5199	0.7586	0.296
Mof_H 	H 	0.4908	0.5876	0.7686	0.3
Mof_Co	Co	0.09889	0.46863	0.01234	1.134
Mof_Co	Co	0.94266	0.38951	0.1085	1.174
Mof_O 	O 	0.38202	0.57294	0.4185	-0.417
Mof_O 	O 	0.33671	0.46204	0.3714	-0.43
Mof_O 	O 	0.09924	0.81688	0.31191	-0.364
Mof_O 	O 	0.14868	0.79047	0.40692	-0.362
Mof_O 	O 	0.35256	0.86044	0.04078	-0.449
Mof_O 	O 	0.45936	0.8054	0.10014	-0.432
Mof_O 	O 	0.96295	0.4307	0.01957	-0.737
Mof_H 	H 	0.9491	0.3909	0.9934	0.209
Mof_N 	N 	0.11822	0.54729	0.20466	-0.196
Mof_N 	N 	0.0928	0.51029	0.10831	-0.217
Mof_N 	N 	0.03525	0.46972	0.14772	-0.261
Mof_C 	C 	0.14127	0.55732	0.14312	0.096
Mof_C 	C 	0.05091	0.49285	0.20528	0.342
Mof_C 	C 	0.15857	0.5845	0.25859	0.108
Mof_C 	C 	0.22297	0.54362	0.2922	-0.105
Mof_H 	H 	0.2397	0.4934	0.28	0.076
Mof_C 	C 	0.26236	0.57862	0.34455	-0.043
Mof_C 	C 	0.23464	0.65279	0.36315	-0.033
Mof_H 	H 	0.2593	0.6756	0.3989	0.064
Mof_C 	C 	0.17023	0.69324	0.32867	-0.026
Mof_C 	C 	0.1323	0.65949	0.27519	-0.105
Mof_H 	H 	0.0904	0.6867	0.2513	0.083
Mof_C 	C 	0.33306	0.53498	0.38111	0.315
Mof_C 	C 	0.13829	0.77207	0.3502	0.288
Mof_C 	C 	0.2066	0.61747	0.12205	-0.012
Mof_C 	C 	0.17526	0.67988	0.08691	-0.086
Mof_H 	H 	0.1154	0.6819	0.0749	0.042
Mof_C 	C 	0.23348	0.73949	0.06957	0.018
Mof_H 	H 	0.2127	0.7807	0.045	0.036
Mof_C 	C 	0.3226	0.73825	0.08851	-0.104
Mof_C 	C 	0.35423	0.67463	0.12307	0.014
Mof_H 	H 	0.4141	0.6726	0.1351	0.037
Mof_C 	C 	0.29658	0.61434	0.13955	-0.077
Mof_H 	H 	0.3179	0.5718	0.1623	0.048
Mof_C 	C 	0.38338	0.80698	0.07471	0.38
Mof_C 	C 	0.00215	0.46782	0.26293	-0.915
Mof_H 	H 	0.0261	0.4949	0.2987	0.302
Mof_H 	H 	0.9397	0.4801	0.2586	0.299
Mof_H 	H 	0.0092	0.4124	0.2686	0.301
Mof_Co	Co	0.59889	0.03137	0.98766	1.134
Mof_Co	Co	0.44266	0.11049	0.8915	1.173
Mof_O 	O 	0.88202	0.92706	0.5815	-0.417
Mof_O 	O 	0.83671	0.03796	0.6286	-0.431
Mof_O 	O 	0.59924	0.68312	0.68809	-0.364
Mof_O 	O 	0.64868	0.70953	0.59308	-0.362
Mof_O 	O 	0.85256	0.63956	0.95922	-0.449
Mof_O 	O 	0.95936	0.6946	0.89986	-0.434
Mof_O 	O 	0.46295	0.0693	0.98043	-0.744
Mof_H 	H 	0.4491	0.1091	0.0066	0.216
Mof_N 	N 	0.61822	0.95271	0.79534	-0.195
Mof_N 	N 	0.5928	0.98971	0.89169	-0.215
Mof_N 	N 	0.53525	0.03028	0.85228	-0.26
Mof_C 	C 	0.64127	0.94268	0.85688	0.097
Mof_C 	C 	0.55091	0.00715	0.79472	0.339
Mof_C 	C 	0.65857	0.9155	0.74141	0.107
Mof_C 	C 	0.72297	0.95638	0.7078	-0.102
Mof_H 	H 	0.7397	0.0066	0.72	0.074
Mof_C 	C 	0.76236	0.92138	0.65545	-0.045
Mof_C 	C 	0.73464	0.84721	0.63685	-0.032
Mof_H 	H 	0.7593	0.8244	0.6011	0.064
Mof_C 	C 	0.67023	0.80676	0.67133	-0.027
Mof_C 	C 	0.6323	0.84051	0.72481	-0.104
Mof_H 	H 	0.5904	0.8133	0.7487	0.083
Mof_C 	C 	0.83306	0.96502	0.61889	0.317
Mof_C 	C 	0.63829	0.72793	0.6498	0.289
Mof_C 	C 	0.7066	0.88253	0.87795	-0.011
Mof_C 	C 	0.67526	0.82012	0.91309	-0.086
Mof_H 	H 	0.6154	0.8181	0.9251	0.043
Mof_C 	C 	0.73348	0.76051	0.93043	0.018
Mof_H 	H 	0.7127	0.7193	0.955	0.037
Mof_C 	C 	0.8226	0.76175	0.91149	-0.104
Mof_C 	C 	0.85423	0.82537	0.87693	0.014
Mof_H 	H 	0.9141	0.8274	0.8649	0.036
Mof_C 	C 	0.79658	0.88566	0.86045	-0.077
Mof_H 	H 	0.8179	0.9282	0.8377	0.048
Mof_C 	C 	0.88338	0.69302	0.92529	0.381
Mof_C 	C 	0.50215	0.03218	0.73707	-0.906
Mof_H 	H 	0.5261	0.0051	0.7013	0.299
Mof_H 	H 	0.4397	0.0199	0.7414	0.296
Mof_H 	H 	0.5092	0.0876	0.7314	0.299
Mof_Co	Co	0.90111	0.96863	0.48766	1.135
Mof_Co	Co	0.05734	0.88951	0.3915	1.173
Mof_O 	O 	0.61798	0.07294	0.0815	-0.416
Mof_O 	O 	0.66329	0.96204	0.1286	-0.431
Mof_O 	O 	0.90076	0.31688	0.18809	-0.363
Mof_O 	O 	0.85132	0.29047	0.09308	-0.36
Mof_O 	O 	0.64744	0.36044	0.45922	-0.448
Mof_O 	O 	0.54064	0.3054	0.39986	-0.432
Mof_O 	O 	0.03705	0.9307	0.48043	-0.743
Mof_H 	H 	0.0509	0.8909	0.5066	0.214
Mof_N 	N 	0.88178	0.04729	0.29534	-0.195
Mof_N 	N 	0.9072	0.01029	0.39169	-0.216
Mof_N 	N 	0.96475	0.96972	0.35228	-0.259
Mof_C 	C 	0.85873	0.05732	0.35688	0.097
Mof_C 	C 	0.94909	0.99285	0.29472	0.338
Mof_C 	C 	0.84143	0.0845	0.24141	0.107
Mof_C 	C 	0.77703	0.04362	0.2078	-0.102
Mof_H 	H 	0.7603	0.9934	0.22	0.074
Mof_C 	C 	0.73764	0.07862	0.15545	-0.044
Mof_C 	C 	0.76536	0.15279	0.13685	-0.033
Mof_H 	H 	0.7407	0.1756	0.1011	0.064
Mof_C 	C 	0.82977	0.19324	0.17133	-0.026
Mof_C 	C 	0.8677	0.15949	0.22481	-0.104
Mof_H 	H 	0.9096	0.1867	0.2487	0.084
Mof_C 	C 	0.66694	0.03498	0.11889	0.317
Mof_C 	C 	0.86171	0.27207	0.1498	0.288
Mof_C 	C 	0.7934	0.11747	0.37795	-0.012
Mof_C 	C 	0.82474	0.17988	0.41309	-0.085
Mof_H 	H 	0.8846	0.1819	0.4251	0.043
Mof_C 	C 	0.76652	0.23949	0.43043	0.018
Mof_H 	H 	0.7873	0.2807	0.455	0.037
Mof_C 	C 	0.6774	0.23825	0.41149	-0.104
Mof_C 	C 	0.64577	0.17463	0.37693	0.014
Mof_H 	H 	0.5859	0.1726	0.3649	0.037
Mof_C 	C 	0.70342	0.11434	0.36045	-0.077
Mof_H 	H 	0.6821	0.0718	0.3377	0.048
Mof_C 	C 	0.61662	0.30698	0.42529	0.38
Mof_C 	C 	0.99785	0.96782	0.23707	-0.897
Mof_H 	H 	0.9739	0.9949	0.2013	0.297
Mof_H 	H 	0.0603	0.9801	0.2414	0.291
Mof_H 	H 	0.9908	0.9124	0.2314	0.297
_end
