data_functionalizedCrystal
_audit_creation_method	'EQeq! by Chris Wilmer'
_symmetry_space_group_name_H-M	'P1'
_symmetry_Int_Tables_number	1
_symmetry_cell_setting	triclinic
loop_
_symmetry_equiv_pos_as_xyz
  x,y,z
_cell_length_a	20.7677
_cell_length_b	11.7553
_cell_length_c	28.509
_cell_angle_alpha	90
_cell_angle_beta	90
_cell_angle_gamma	90
loop_
_atom_site_label
_atom_site_type_symbol
_atom_site_fract_x
_atom_site_fract_y
_atom_site_fract_z
_atom_site_charge
Mof_C 	C 	0.73777	0.67835	0.82101	0.066
Mof_H 	H 	0.7182	0.7445	0.8102	-0.027
Mof_C 	C 	0.70597	0.60903	0.85276	-0.155
Mof_H 	H 	0.665	0.6283	0.8633	0.08
Mof_C 	C 	0.73579	0.51023	0.86881	0.095
Mof_C 	C 	0.79719	0.48154	0.85312	-0.153
Mof_H 	H 	0.817	0.4157	0.864	0.079
Mof_C 	C 	0.82863	0.55058	0.82142	0.065
Mof_H 	H 	0.8696	0.5313	0.8109	-0.027
Mof_C 	C 	0.69676	0.44175	0.90351	-0.061
Mof_C 	C 	0.72211	0.41671	0.9475	0.022
Mof_H 	H 	0.7629	0.4425	0.9557	0.019
Mof_C 	C 	0.68652	0.35341	0.97903	-0.154
Mof_H 	H 	0.7033	0.3365	0.0085	0.087
Mof_C 	C 	0.62522	0.31479	0.96659	0.128
Mof_C 	C 	0.59991	0.34013	0.92255	-0.146
Mof_H 	H 	0.5589	0.315	0.9144	0.082
Mof_C 	C 	0.63577	0.40261	0.89104	0.017
Mof_H 	H 	0.6193	0.4186	0.8614	0.02
Mof_C 	C 	0.48408	0.15674	0.98213	-0.112
Mof_H 	H 	0.5064	0.0955	0.9694	0.071
Mof_C 	C 	0.41704	0.15589	0.98347	-0.036
Mof_H 	H 	0.3946	0.092	0.9733	0.046
Mof_C 	C 	0.27817	0.27053	0.04129	-0.009
Mof_H 	H 	0.3006	0.2839	0.069	0.034
Mof_H 	H 	0.1888	0.2857	0.0688	0.081
Mof_C 	C 	0.21127	0.2711	0.04137	-0.128
Mof_C 	C 	0.07328	0.17748	0.96536	0.121
Mof_C 	C 	0.01847	0.21945	0.9428	-0.144
Mof_H 	H 	0.0042	0.2931	0.9486	0.085
Mof_C 	C 	0.98618	0.15063	0.91206	0.025
Mof_H 	H 	0.9501	0.1788	0.8967	0.012
Mof_C 	C 	0.00584	0.04007	0.90327	-0.067
Mof_C 	C 	0.06024	0.99857	0.92563	0.02
Mof_H 	H 	0.0742	0.9247	0.9198	0.014
Mof_C 	C 	0.09398	0.06745	0.95682	-0.142
Mof_H 	H 	0.1304	0.0396	0.9719	0.082
Mof_C 	C 	0.87956	0.93505	0.8183	0.056
Mof_H 	H 	0.8402	0.9607	0.8068	-0.032
Mof_C 	C 	0.91334	0.99648	0.85246	-0.149
Mof_H 	H 	0.8951	0.0631	0.864	0.076
Mof_C 	C 	0.97172	0.96335	0.86965	0.101
Mof_C 	C 	0.99739	0.86496	0.85272	-0.156
Mof_H 	H 	0.0374	0.8415	0.8638	0.077
Mof_C 	C 	0.96599	0.79806	0.8195	0.07
Mof_H 	H 	0.9842	0.7303	0.8091	-0.02
Mof_N 	N 	0.79894	0.64903	0.8053	-0.25
Mof_N 	N 	0.90687	0.83436	0.8021	-0.247
Mof_C 	C 	0.73777	0.82165	0.17899	0.065
Mof_H 	H 	0.7182	0.7555	0.1898	-0.027
Mof_C 	C 	0.70597	0.89097	0.14724	-0.154
Mof_H 	H 	0.665	0.8717	0.1367	0.08
Mof_C 	C 	0.73579	0.98977	0.13119	0.094
Mof_C 	C 	0.79719	0.01846	0.14688	-0.153
Mof_H 	H 	0.817	0.0843	0.136	0.079
Mof_C 	C 	0.82863	0.94942	0.17858	0.065
Mof_H 	H 	0.8696	0.9687	0.1891	-0.027
Mof_C 	C 	0.69676	0.05825	0.09649	-0.057
Mof_C 	C 	0.72211	0.08329	0.0525	0.014
Mof_H 	H 	0.7629	0.0575	0.0443	0.023
Mof_C 	C 	0.68652	0.14659	0.02097	-0.14
Mof_H 	H 	0.7033	0.1635	0.9915	0.079
Mof_C 	C 	0.62522	0.18521	0.03341	0.125
Mof_C 	C 	0.59991	0.15987	0.07745	-0.142
Mof_H 	H 	0.5589	0.185	0.0856	0.081
Mof_C 	C 	0.63577	0.09739	0.10896	0.014
Mof_H 	H 	0.6193	0.0814	0.1386	0.021
Mof_C 	C 	0.48408	0.34326	0.01787	-0.109
Mof_H 	H 	0.5064	0.4045	0.0306	0.071
Mof_C 	C 	0.41704	0.34411	0.01653	-0.033
Mof_H 	H 	0.3946	0.408	0.0267	0.046
Mof_C 	C 	0.27817	0.22947	0.95871	-0.012
Mof_H 	H 	0.3006	0.2161	0.931	0.034
Mof_H 	H 	0.1888	0.2143	0.9312	0.082
Mof_C 	C 	0.21127	0.2289	0.95863	-0.131
Mof_C 	C 	0.07328	0.32252	0.03464	0.128
Mof_C 	C 	0.01847	0.28055	0.0572	-0.15
Mof_H 	H 	0.0042	0.2069	0.0514	0.088
Mof_C 	C 	0.98618	0.34937	0.08794	0.033
Mof_H 	H 	0.9501	0.3212	0.1033	0.009
Mof_C 	C 	0.00584	0.45993	0.09673	-0.073
Mof_C 	C 	0.06024	0.50143	0.07437	0.028
Mof_H 	H 	0.0742	0.5753	0.0802	0.012
Mof_C 	C 	0.09398	0.43255	0.04318	-0.148
Mof_H 	H 	0.1304	0.4604	0.0281	0.085
Mof_C 	C 	0.87956	0.56495	0.1817	0.058
Mof_H 	H 	0.8402	0.5393	0.1932	-0.033
Mof_C 	C 	0.91334	0.50352	0.14754	-0.154
Mof_H 	H 	0.8951	0.4369	0.136	0.079
Mof_C 	C 	0.97172	0.53665	0.13035	0.106
Mof_C 	C 	0.99739	0.63504	0.14728	-0.16
Mof_H 	H 	0.0374	0.6585	0.1362	0.079
Mof_C 	C 	0.96599	0.70194	0.1805	0.072
Mof_H 	H 	0.9842	0.7697	0.1909	-0.021
Mof_N 	N 	0.79894	0.85097	0.1947	-0.249
Mof_N 	N 	0.90687	0.66564	0.1979	-0.248
Mof_C 	C 	0.73777	0.67835	0.67899	0.066
Mof_H 	H 	0.7182	0.7445	0.6898	-0.027
Mof_C 	C 	0.70597	0.60903	0.64724	-0.154
Mof_H 	H 	0.665	0.6283	0.6367	0.08
Mof_C 	C 	0.73579	0.51023	0.63119	0.094
Mof_C 	C 	0.79719	0.48154	0.64688	-0.153
Mof_H 	H 	0.817	0.4157	0.636	0.078
Mof_C 	C 	0.82863	0.55058	0.67858	0.065
Mof_H 	H 	0.8696	0.5313	0.6891	-0.027
Mof_C 	C 	0.69676	0.44175	0.59649	-0.06
Mof_C 	C 	0.72211	0.41671	0.5525	0.018
Mof_H 	H 	0.7629	0.4425	0.5443	0.021
Mof_C 	C 	0.68652	0.35341	0.52097	-0.148
Mof_H 	H 	0.7033	0.3365	0.4915	0.083
Mof_C 	C 	0.62522	0.31479	0.53341	0.127
Mof_C 	C 	0.59991	0.34013	0.57745	-0.145
Mof_H 	H 	0.5589	0.315	0.5856	0.082
Mof_C 	C 	0.63577	0.40261	0.60896	0.016
Mof_H 	H 	0.6193	0.4186	0.6386	0.021
Mof_C 	C 	0.48408	0.15674	0.51787	-0.108
Mof_H 	H 	0.5064	0.0955	0.5306	0.07
Mof_C 	C 	0.41704	0.15589	0.51653	-0.034
Mof_H 	H 	0.3946	0.092	0.5267	0.046
Mof_C 	C 	0.27817	0.27053	0.45871	-0.01
Mof_H 	H 	0.3006	0.2839	0.431	0.034
Mof_H 	H 	0.1888	0.2857	0.4312	0.081
Mof_C 	C 	0.21127	0.2711	0.45863	-0.128
Mof_C 	C 	0.07328	0.17748	0.53464	0.124
Mof_C 	C 	0.01847	0.21945	0.5572	-0.145
Mof_H 	H 	0.0042	0.2931	0.5514	0.086
Mof_C 	C 	0.98618	0.15063	0.58794	0.026
Mof_H 	H 	0.9501	0.1788	0.6033	0.011
Mof_C 	C 	0.00584	0.04007	0.59673	-0.066
Mof_C 	C 	0.06024	0.99857	0.57437	0.02
Mof_H 	H 	0.0742	0.9247	0.5802	0.014
Mof_C 	C 	0.09398	0.06745	0.54318	-0.143
Mof_H 	H 	0.1304	0.0396	0.5281	0.083
Mof_C 	C 	0.87956	0.93505	0.6817	0.056
Mof_H 	H 	0.8402	0.9607	0.6932	-0.032
Mof_C 	C 	0.91334	0.99648	0.64754	-0.149
Mof_H 	H 	0.8951	0.0631	0.636	0.076
Mof_C 	C 	0.97172	0.96335	0.63035	0.102
Mof_C 	C 	0.99739	0.86496	0.64728	-0.156
Mof_H 	H 	0.0374	0.8415	0.6362	0.077
Mof_C 	C 	0.96599	0.79806	0.6805	0.07
Mof_H 	H 	0.9842	0.7303	0.6909	-0.02
Mof_N 	N 	0.79894	0.64903	0.6947	-0.249
Mof_N 	N 	0.90687	0.83436	0.6979	-0.247
Mof_C 	C 	0.73777	0.82165	0.32101	0.066
Mof_H 	H 	0.7182	0.7555	0.3102	-0.027
Mof_C 	C 	0.70597	0.89097	0.35276	-0.155
Mof_H 	H 	0.665	0.8717	0.3633	0.08
Mof_C 	C 	0.73579	0.98977	0.36881	0.096
Mof_C 	C 	0.79719	0.01846	0.35312	-0.154
Mof_H 	H 	0.817	0.0843	0.364	0.079
Mof_C 	C 	0.82863	0.94942	0.32142	0.066
Mof_H 	H 	0.8696	0.9687	0.3109	-0.027
Mof_C 	C 	0.69676	0.05825	0.40351	-0.06
Mof_C 	C 	0.72211	0.08329	0.4475	0.019
Mof_H 	H 	0.7629	0.0575	0.4557	0.021
Mof_C 	C 	0.68652	0.14659	0.47903	-0.148
Mof_H 	H 	0.7033	0.1635	0.5085	0.083
Mof_C 	C 	0.62522	0.18521	0.46659	0.128
Mof_C 	C 	0.59991	0.15987	0.42255	-0.145
Mof_H 	H 	0.5589	0.185	0.4144	0.082
Mof_C 	C 	0.63577	0.09739	0.39104	0.016
Mof_H 	H 	0.6193	0.0814	0.3614	0.02
Mof_C 	C 	0.48408	0.34326	0.48213	-0.109
Mof_H 	H 	0.5064	0.4045	0.4694	0.07
Mof_C 	C 	0.41704	0.34411	0.48347	-0.034
Mof_H 	H 	0.3946	0.408	0.4733	0.046
Mof_C 	C 	0.27817	0.22947	0.54129	-0.01
Mof_H 	H 	0.3006	0.2161	0.569	0.034
Mof_H 	H 	0.1888	0.2143	0.5688	0.081
Mof_C 	C 	0.21127	0.2289	0.54137	-0.128
Mof_C 	C 	0.07328	0.32252	0.46536	0.127
Mof_C 	C 	0.01847	0.28055	0.4428	-0.15
Mof_H 	H 	0.0042	0.2069	0.4486	0.087
Mof_C 	C 	0.98618	0.34937	0.41206	0.032
Mof_H 	H 	0.9501	0.3212	0.3967	0.009
Mof_C 	C 	0.00584	0.45993	0.40327	-0.073
Mof_C 	C 	0.06024	0.50143	0.42563	0.027
Mof_H 	H 	0.0742	0.5753	0.4198	0.012
Mof_C 	C 	0.09398	0.43255	0.45682	-0.148
Mof_H 	H 	0.1304	0.4604	0.4719	0.084
Mof_C 	C 	0.87956	0.56495	0.3183	0.058
Mof_H 	H 	0.8402	0.5393	0.3068	-0.033
Mof_C 	C 	0.91334	0.50352	0.35246	-0.154
Mof_H 	H 	0.8951	0.4369	0.364	0.079
Mof_C 	C 	0.97172	0.53665	0.36965	0.106
Mof_C 	C 	0.99739	0.63504	0.35272	-0.16
Mof_H 	H 	0.0374	0.6585	0.3638	0.079
Mof_C 	C 	0.96599	0.70194	0.3195	0.072
Mof_H 	H 	0.9842	0.7697	0.3091	-0.021
Mof_N 	N 	0.79894	0.85097	0.3053	-0.25
Mof_N 	N 	0.90687	0.66564	0.3021	-0.248
Mof_C 	C 	0.51745	0.25	-0	0.101
Mof_C 	C 	0.38345	0.25	-0	0.007
Mof_C 	C 	0.3117	0.25	-0	-0.012
Mof_C 	C 	0.17756	0.25	-0	0.12
Mof_N 	N 	0.58873	0.25	-0	-0.162
Mof_N 	N 	0.10831	0.25	-0	-0.159
Mof_C 	C 	0.51745	0.25	0.5	0.098
Mof_C 	C 	0.38345	0.25	0.5	0.005
Mof_C 	C 	0.3117	0.25	0.5	-0.014
Mof_C 	C 	0.17756	0.25	0.5	0.117
Mof_N 	N 	0.58873	0.25	0.5	-0.163
Mof_N 	N 	0.10831	0.25	0.5	-0.16
Mof_Co	Co	0.84807	0.74539	0.75	1.065
Mof_Co	Co	0.84807	0.75461	0.25	1.065
Mof_C 	C 	0.26223	0.32165	0.32101	0.066
Mof_H 	H 	0.2818	0.2555	0.3102	-0.027
Mof_C 	C 	0.29403	0.39097	0.35276	-0.154
Mof_H 	H 	0.335	0.3717	0.3633	0.08
Mof_C 	C 	0.26421	0.48977	0.36881	0.094
Mof_C 	C 	0.20281	0.51846	0.35312	-0.153
Mof_H 	H 	0.183	0.5843	0.364	0.078
Mof_C 	C 	0.17137	0.44942	0.32142	0.065
Mof_H 	H 	0.1304	0.4687	0.3109	-0.027
Mof_C 	C 	0.30324	0.55825	0.40351	-0.06
Mof_C 	C 	0.27789	0.58329	0.4475	0.018
Mof_H 	H 	0.2371	0.5575	0.4557	0.021
Mof_C 	C 	0.31348	0.64659	0.47903	-0.148
Mof_H 	H 	0.2967	0.6635	0.5085	0.083
Mof_C 	C 	0.37478	0.68521	0.46659	0.127
Mof_C 	C 	0.40009	0.65987	0.42255	-0.145
Mof_H 	H 	0.4411	0.685	0.4144	0.082
Mof_C 	C 	0.36423	0.59739	0.39104	0.016
Mof_H 	H 	0.3807	0.5814	0.3614	0.021
Mof_C 	C 	0.51592	0.84326	0.48213	-0.108
Mof_H 	H 	0.4936	0.9045	0.4694	0.07
Mof_C 	C 	0.58296	0.84411	0.48347	-0.034
Mof_H 	H 	0.6054	0.908	0.4733	0.046
Mof_C 	C 	0.72183	0.72947	0.54129	-0.01
Mof_H 	H 	0.6994	0.7161	0.569	0.034
Mof_H 	H 	0.8112	0.7143	0.5688	0.081
Mof_C 	C 	0.78873	0.7289	0.54137	-0.128
Mof_C 	C 	0.92672	0.82252	0.46536	0.124
Mof_C 	C 	0.98153	0.78055	0.4428	-0.145
Mof_H 	H 	0.9958	0.7069	0.4486	0.085
Mof_C 	C 	0.01382	0.84937	0.41206	0.026
Mof_H 	H 	0.0499	0.8212	0.3967	0.012
Mof_C 	C 	0.99416	0.95993	0.40327	-0.066
Mof_C 	C 	0.93976	0.00143	0.42563	0.02
Mof_H 	H 	0.9258	0.0753	0.4198	0.014
Mof_C 	C 	0.90602	0.93255	0.45682	-0.143
Mof_H 	H 	0.8696	0.9604	0.4719	0.083
Mof_C 	C 	0.12044	0.06495	0.3183	0.056
Mof_H 	H 	0.1598	0.0393	0.3068	-0.032
Mof_C 	C 	0.08666	0.00352	0.35246	-0.149
Mof_H 	H 	0.1049	0.9369	0.364	0.076
Mof_C 	C 	0.02828	0.03665	0.36965	0.101
Mof_C 	C 	0.00261	0.13504	0.35272	-0.156
Mof_H 	H 	0.9626	0.1585	0.3638	0.077
Mof_C 	C 	0.03401	0.20194	0.3195	0.07
Mof_H 	H 	0.0158	0.2697	0.3091	-0.02
Mof_N 	N 	0.20106	0.35097	0.3053	-0.249
Mof_N 	N 	0.09313	0.16564	0.3021	-0.247
Mof_C 	C 	0.26223	0.17835	0.67899	0.066
Mof_H 	H 	0.2818	0.2445	0.6898	-0.027
Mof_C 	C 	0.29403	0.10903	0.64724	-0.155
Mof_H 	H 	0.335	0.1283	0.6367	0.08
Mof_C 	C 	0.26421	0.01023	0.63119	0.095
Mof_C 	C 	0.20281	0.98154	0.64688	-0.154
Mof_H 	H 	0.183	0.9157	0.636	0.079
Mof_C 	C 	0.17137	0.05058	0.67858	0.065
Mof_H 	H 	0.1304	0.0313	0.6891	-0.027
Mof_C 	C 	0.30324	0.94175	0.59649	-0.06
Mof_C 	C 	0.27789	0.91671	0.5525	0.019
Mof_H 	H 	0.2371	0.9425	0.5443	0.021
Mof_C 	C 	0.31348	0.85341	0.52097	-0.148
Mof_H 	H 	0.2967	0.8365	0.4915	0.083
Mof_C 	C 	0.37478	0.81479	0.53341	0.128
Mof_C 	C 	0.40009	0.84013	0.57745	-0.145
Mof_H 	H 	0.4411	0.815	0.5856	0.082
Mof_C 	C 	0.36423	0.90261	0.60896	0.016
Mof_H 	H 	0.3807	0.9186	0.6386	0.021
Mof_C 	C 	0.51592	0.65674	0.51787	-0.109
Mof_H 	H 	0.4936	0.5955	0.5306	0.07
Mof_C 	C 	0.58296	0.65589	0.51653	-0.034
Mof_H 	H 	0.6054	0.592	0.5267	0.046
Mof_C 	C 	0.72183	0.77053	0.45871	-0.01
Mof_H 	H 	0.6994	0.7839	0.431	0.034
Mof_H 	H 	0.8112	0.7857	0.4312	0.081
Mof_C 	C 	0.78873	0.7711	0.45863	-0.128
Mof_C 	C 	0.92672	0.67748	0.53464	0.127
Mof_C 	C 	0.98153	0.71945	0.5572	-0.15
Mof_H 	H 	0.9958	0.7931	0.5514	0.087
Mof_C 	C 	0.01382	0.65063	0.58794	0.033
Mof_H 	H 	0.0499	0.6788	0.6033	0.009
Mof_C 	C 	0.99416	0.54007	0.59673	-0.073
Mof_C 	C 	0.93976	0.49857	0.57437	0.027
Mof_H 	H 	0.9258	0.4247	0.5802	0.012
Mof_C 	C 	0.90602	0.56745	0.54318	-0.148
Mof_H 	H 	0.8696	0.5396	0.5281	0.084
Mof_C 	C 	0.12044	0.43505	0.6817	0.058
Mof_H 	H 	0.1598	0.4607	0.6932	-0.033
Mof_C 	C 	0.08666	0.49648	0.64754	-0.154
Mof_H 	H 	0.1049	0.5631	0.636	0.079
Mof_C 	C 	0.02828	0.46335	0.63035	0.106
Mof_C 	C 	0.00261	0.36496	0.64728	-0.16
Mof_H 	H 	0.9626	0.3415	0.6362	0.079
Mof_C 	C 	0.03401	0.29806	0.6805	0.072
Mof_H 	H 	0.0158	0.2303	0.6909	-0.021
Mof_N 	N 	0.20106	0.14903	0.6947	-0.25
Mof_N 	N 	0.09313	0.33436	0.6979	-0.248
Mof_C 	C 	0.26223	0.32165	0.17899	0.065
Mof_H 	H 	0.2818	0.2555	0.1898	-0.027
Mof_C 	C 	0.29403	0.39097	0.14724	-0.153
Mof_H 	H 	0.335	0.3717	0.1367	0.08
Mof_C 	C 	0.26421	0.48977	0.13119	0.093
Mof_C 	C 	0.20281	0.51846	0.14688	-0.152
Mof_H 	H 	0.183	0.5843	0.136	0.078
Mof_C 	C 	0.17137	0.44942	0.17858	0.064
Mof_H 	H 	0.1304	0.4687	0.1891	-0.027
Mof_C 	C 	0.30324	0.55825	0.09649	-0.057
Mof_C 	C 	0.27789	0.58329	0.0525	0.014
Mof_H 	H 	0.2371	0.5575	0.0443	0.023
Mof_C 	C 	0.31348	0.64659	0.02097	-0.141
Mof_H 	H 	0.2967	0.6635	0.9915	0.079
Mof_C 	C 	0.37478	0.68521	0.03341	0.125
Mof_C 	C 	0.40009	0.65987	0.07745	-0.142
Mof_H 	H 	0.4411	0.685	0.0856	0.081
Mof_C 	C 	0.36423	0.59739	0.10896	0.014
Mof_H 	H 	0.3807	0.5814	0.1386	0.021
Mof_C 	C 	0.51592	0.84326	0.01787	-0.109
Mof_H 	H 	0.4936	0.9045	0.0306	0.071
Mof_C 	C 	0.58296	0.84411	0.01653	-0.033
Mof_H 	H 	0.6054	0.908	0.0267	0.046
Mof_C 	C 	0.72183	0.72947	0.95871	-0.012
Mof_H 	H 	0.6994	0.7161	0.931	0.034
Mof_H 	H 	0.8112	0.7143	0.9312	0.082
Mof_C 	C 	0.78873	0.7289	0.95863	-0.13
Mof_C 	C 	0.92672	0.82252	0.03464	0.125
Mof_C 	C 	0.98153	0.78055	0.0572	-0.146
Mof_H 	H 	0.9958	0.7069	0.0514	0.086
Mof_C 	C 	0.01382	0.84937	0.08794	0.027
Mof_H 	H 	0.0499	0.8212	0.1033	0.011
Mof_C 	C 	0.99416	0.95993	0.09673	-0.067
Mof_C 	C 	0.93976	0.00143	0.07437	0.022
Mof_H 	H 	0.9258	0.0753	0.0802	0.014
Mof_C 	C 	0.90602	0.93255	0.04318	-0.144
Mof_H 	H 	0.8696	0.9604	0.0281	0.083
Mof_C 	C 	0.12044	0.06495	0.1817	0.056
Mof_H 	H 	0.1598	0.0393	0.1932	-0.032
Mof_C 	C 	0.08666	0.00352	0.14754	-0.149
Mof_H 	H 	0.1049	0.9369	0.136	0.076
Mof_C 	C 	0.02828	0.03665	0.13035	0.102
Mof_C 	C 	0.00261	0.13504	0.14728	-0.156
Mof_H 	H 	0.9626	0.1585	0.1362	0.077
Mof_C 	C 	0.03401	0.20194	0.1805	0.07
Mof_H 	H 	0.0158	0.2697	0.1909	-0.02
Mof_N 	N 	0.20106	0.35097	0.1947	-0.249
Mof_N 	N 	0.09313	0.16564	0.1979	-0.247
Mof_C 	C 	0.26223	0.17835	0.82101	0.066
Mof_H 	H 	0.2818	0.2445	0.8102	-0.028
Mof_C 	C 	0.29403	0.10903	0.85276	-0.155
Mof_H 	H 	0.335	0.1283	0.8633	0.08
Mof_C 	C 	0.26421	0.01023	0.86881	0.095
Mof_C 	C 	0.20281	0.98154	0.85312	-0.154
Mof_H 	H 	0.183	0.9157	0.864	0.079
Mof_C 	C 	0.17137	0.05058	0.82142	0.065
Mof_H 	H 	0.1304	0.0313	0.8109	-0.027
Mof_C 	C 	0.30324	0.94175	0.90351	-0.061
Mof_C 	C 	0.27789	0.91671	0.9475	0.021
Mof_H 	H 	0.2371	0.9425	0.9557	0.019
Mof_C 	C 	0.31348	0.85341	0.97903	-0.154
Mof_H 	H 	0.2967	0.8365	0.0085	0.087
Mof_C 	C 	0.37478	0.81479	0.96659	0.128
Mof_C 	C 	0.40009	0.84013	0.92255	-0.146
Mof_H 	H 	0.4411	0.815	0.9144	0.082
Mof_C 	C 	0.36423	0.90261	0.89104	0.017
Mof_H 	H 	0.3807	0.9186	0.8614	0.02
Mof_C 	C 	0.51592	0.65674	0.98213	-0.111
Mof_H 	H 	0.4936	0.5955	0.9694	0.071
Mof_C 	C 	0.58296	0.65589	0.98347	-0.036
Mof_H 	H 	0.6054	0.592	0.9733	0.046
Mof_C 	C 	0.72183	0.77053	0.04129	-0.009
Mof_H 	H 	0.6994	0.7839	0.069	0.034
Mof_H 	H 	0.8112	0.7857	0.0688	0.081
Mof_C 	C 	0.78873	0.7711	0.04137	-0.128
Mof_C 	C 	0.92672	0.67748	0.96536	0.124
Mof_C 	C 	0.98153	0.71945	0.9428	-0.149
Mof_H 	H 	0.9958	0.7931	0.9486	0.086
Mof_C 	C 	0.01382	0.65063	0.91206	0.031
Mof_H 	H 	0.0499	0.6788	0.8967	0.01
Mof_C 	C 	0.99416	0.54007	0.90327	-0.072
Mof_C 	C 	0.93976	0.49857	0.92563	0.026
Mof_H 	H 	0.9258	0.4247	0.9198	0.012
Mof_C 	C 	0.90602	0.56745	0.95682	-0.147
Mof_H 	H 	0.8696	0.5396	0.9719	0.083
Mof_C 	C 	0.12044	0.43505	0.8183	0.058
Mof_H 	H 	0.1598	0.4607	0.8068	-0.033
Mof_C 	C 	0.08666	0.49648	0.85246	-0.154
Mof_H 	H 	0.1049	0.5631	0.864	0.078
Mof_C 	C 	0.02828	0.46335	0.86965	0.105
Mof_C 	C 	0.00261	0.36496	0.85272	-0.159
Mof_H 	H 	0.9626	0.3415	0.8638	0.079
Mof_C 	C 	0.03401	0.29806	0.8195	0.072
Mof_H 	H 	0.0158	0.2303	0.8091	-0.021
Mof_N 	N 	0.20106	0.14903	0.8053	-0.25
Mof_N 	N 	0.09313	0.33436	0.8021	-0.248
Mof_C 	C 	0.48255	0.75	0.5	0.098
Mof_C 	C 	0.61655	0.75	0.5	0.005
Mof_C 	C 	0.6883	0.75	0.5	-0.014
Mof_C 	C 	0.82244	0.75	0.5	0.117
Mof_N 	N 	0.41127	0.75	0.5	-0.163
Mof_N 	N 	0.89169	0.75	0.5	-0.16
Mof_C 	C 	0.48255	0.75	-0	0.101
Mof_C 	C 	0.61655	0.75	-0	0.007
Mof_C 	C 	0.6883	0.75	-0	-0.013
Mof_C 	C 	0.82244	0.75	-0	0.12
Mof_N 	N 	0.41127	0.75	-0	-0.162
Mof_N 	N 	0.89169	0.75	-0	-0.159
Mof_Co	Co	0.15193	0.25461	0.25	1.065
Mof_Co	Co	0.15193	0.24539	0.75	1.065
_end
