data_functionalizedCrystal
_audit_creation_method	'EQeq! by Chris Wilmer'
_symmetry_space_group_name_H-M	'P1'
_symmetry_Int_Tables_number	1
_symmetry_cell_setting	triclinic
loop_
_symmetry_equiv_pos_as_xyz
  x,y,z
_cell_length_a	15.3745
_cell_length_b	23.4023
_cell_length_c	25.3443
_cell_angle_alpha	90
_cell_angle_beta	90
_cell_angle_gamma	90
loop_
_atom_site_label
_atom_site_type_symbol
_atom_site_fract_x
_atom_site_fract_y
_atom_site_fract_z
_atom_site_charge
Mof_Br	Br	0.39305	0.62701	0.76485	-0.38
Mof_C 	C 	0.3459	0.5533	0.7521	0.042
Mof_C 	C 	0.258	0.5526	0.7429	0.053
Mof_C 	C 	0.4007	0.5054	0.759	-0.045
Mof_C 	C 	0.1996	0.6043	0.7406	-0.142
Mof_N 	N 	0.2084	0.5041	0.7386	-0.242
Mof_C 	C 	0.4908	0.5042	0.7841	0.304
Mof_N 	N 	0.3735	0.4523	0.7498	-0.235
Mof_C 	C 	0.1165	0.5786	0.7685	0.213
Mof_H 	H 	0.2244	0.6363	0.762	0.049
Mof_C 	C 	0.1801	0.6242	0.6845	0.058
Mof_C 	C 	0.1219	0.5171	0.7492	-0.04
Mof_Co	Co	0.25556	0.42933	0.73348	1.176
Mof_C 	C 	0.5258	0.4475	0.7618	-0.195
Mof_C 	C 	0.5562	0.5527	0.7776	-0.617
Mof_C 	C 	0.4752	0.4958	0.8445	-0.582
Mof_C 	C 	0.4416	0.4123	0.7541	0.06
Mof_C 	C 	0.1318	0.5766	0.8297	-0.443
Mof_C 	C 	0.0338	0.6132	0.7551	-0.485
Mof_H 	H 	0.1449	0.5945	0.6667	0.012
Mof_H 	H 	0.1443	0.6593	0.6865	-0.004
Mof_C 	C 	0.2592	0.6366	0.6508	-0.327
Mof_C 	C 	0.0552	0.4784	0.7461	0.013
Mof_N 	N 	0.1428	0.3988	0.7183	-0.256
Mof_N 	N 	0.2277	0.4239	0.8081	-0.208
Mof_N 	N 	0.2876	0.3515	0.7316	-0.238
Mof_N 	N 	0.2815	0.4423	0.6581	-0.26
Mof_H 	H 	0.5655	0.4285	0.7876	0.07
Mof_C 	C 	0.5692	0.4525	0.7073	0.063
Mof_H 	H 	0.6137	0.5398	0.7893	0.174
Mof_H 	H 	0.5379	0.5855	0.7989	0.21
Mof_H 	H 	0.559	0.5639	0.7404	0.208
Mof_H 	H 	0.5311	0.4902	0.8623	0.161
Mof_H 	H 	0.4383	0.4622	0.8502	0.193
Mof_H 	H 	0.4463	0.5297	0.859	0.183
Mof_C 	C 	0.441	0.3552	0.7485	-0.013
Mof_H 	H 	0.0867	0.5521	0.8461	0.129
Mof_H 	H 	0.1891	0.559	0.8369	0.154
Mof_C 	C 	0.1289	0.6351	0.855	0.437
Mof_H 	H 	0.0162	0.6052	0.7187	0.149
Mof_H 	H 	0.0459	0.6541	0.7589	0.138
Mof_H 	H 	0.9868	0.6023	0.7792	0.131
Mof_H 	H 	0.2987	0.6625	0.6702	0.114
Mof_H 	H 	0.2908	0.6005	0.644	0.126
Mof_C 	C 	0.2343	0.6637	0.599	0.307
Mof_C 	C 	0.0674	0.4224	0.727	0.069
Mof_C 	C 	0.9664	0.4943	0.7691	-0.34
Mof_C 	C 	0.1389	0.337	0.7034	0.077
Mof_N 	N 	0.2691	0.3958	0.8346	-0.051
Mof_C 	C 	0.3605	0.3246	0.7404	0.029
Mof_C 	C 	0.215	0.3113	0.7346	-0.068
Mof_C 	C 	0.3547	0.4275	0.6357	0.112
Mof_C 	C 	0.2345	0.4704	0.6171	0.064
Mof_H 	H 	0.5427	0.4854	0.6887	0.011
Mof_H 	H 	0.5545	0.4178	0.6869	0.018
Mof_C 	C 	0.6693	0.4601	0.706	-0.349
Mof_C 	C 	0.5257	0.3229	0.7526	-0.269
Mof_N 	N 	0.0565	0.6469	0.8807	-0.379
Mof_O 	O 	0.1898	0.6686	0.8515	-0.617
Mof_N 	N 	0.2851	0.6503	0.5577	-0.338
Mof_O 	O 	0.1736	0.6974	0.595	-0.3
Mof_C 	C 	0.996	0.3795	0.7137	-0.176
Mof_H 	H 	0.9747	0.517	0.8013	0.087
Mof_H 	H 	0.9341	0.4594	0.7776	0.104
Mof_H 	H 	0.9337	0.5168	0.7433	0.098
Mof_C 	C 	0.0429	0.3214	0.7207	0.168
Mof_C 	C 	0.155	0.3298	0.6439	-0.417
Mof_N 	N 	0.3116	0.3681	0.8635	-0.103
Mof_C 	C 	0.3482	0.2593	0.7422	0.062
Mof_C 	C 	0.2559	0.255	0.7181	0.044
Mof_H 	H 	0.1969	0.308	0.7724	0.04
Mof_H 	H 	0.3981	0.4062	0.6537	-0.003
Mof_N 	N 	0.364	0.4447	0.5857	-0.141
Mof_C 	C 	0.1546	0.4958	0.6154	-0.17
Mof_C 	C 	0.2885	0.4727	0.5724	0.069
Mof_H 	H 	0.6871	0.4754	0.6712	0.121
Mof_H 	H 	0.6871	0.4879	0.7334	0.097
Mof_C 	C 	0.7149	0.4026	0.7159	0.385
Mof_H 	H 	0.5714	0.3487	0.7653	0.076
Mof_H 	H 	0.5418	0.3079	0.7178	0.067
Mof_H 	H 	0.519	0.2911	0.7774	0.079
Mof_H 	H 	0.0504	0.6802	0.8965	0.142
Mof_H 	H 	0.0144	0.6215	0.8822	0.086
Mof_Na	Na	0.27044	0.75784	0.83861	2.126
Mof_H 	H 	0.2754	0.6659	0.5267	0.146
Mof_H 	H 	0.3283	0.626	0.5617	0.139
Mof_H 	H 	0.9499	0.3824	0.7414	0.08
Mof_C 	C 	0.9531	0.3892	0.6597	0.097
Mof_C 	C 	0.0003	0.2736	0.6902	-0.387
Mof_C 	C 	0.0421	0.3066	0.7805	-0.371
Mof_H 	H 	0.1124	0.3525	0.6241	0.15
Mof_H 	H 	0.1489	0.2894	0.6343	0.127
Mof_H 	H 	0.2139	0.3429	0.6352	0.143
Mof_C 	C 	0.35	0.2421	0.801	-0.417
Mof_C 	C 	0.4134	0.2231	0.7117	-0.052
Mof_H 	H 	0.2617	0.2551	0.6788	0.006
Mof_C 	C 	0.2031	0.2014	0.7341	-0.345
Mof_C 	C 	0.4329	0.4254	0.5492	0.108
Mof_H 	H 	0.1181	0.4947	0.6457	0.081
Mof_C 	C 	0.1264	0.5228	0.5705	0.093
Mof_C 	C 	0.2614	0.4977	0.5254	-0.175
Mof_N 	N 	0.7589	0.3995	0.7612	-0.371
Mof_O 	O 	0.7099	0.3639	0.684	-0.56
Mof_H 	H 	0.9985	0.3855	0.6322	-0.003
Mof_H 	H 	0.9102	0.3583	0.6538	-0.046
Mof_C 	C 	0.9072	0.4464	0.6521	-0.327
Mof_H 	H 	0.9395	0.2698	0.7012	0.072
Mof_H 	H 	0.0311	0.2377	0.6971	0.102
Mof_H 	H 	0.0028	0.2821	0.6523	0.119
Mof_H 	H 	0.0841	0.2752	0.7868	0.116
Mof_H 	H 	0.063	0.3404	0.8004	0.132
Mof_C 	C 	0.9543	0.2887	0.8031	0.323
Mof_H 	H 	0.4041	0.2557	0.8171	0.139
Mof_H 	H 	0.3469	0.2004	0.804	0.131
Mof_H 	H 	0.3002	0.2592	0.8191	0.144
Mof_H 	H 	0.4699	0.2247	0.7303	0.038
Mof_H 	H 	0.3934	0.1829	0.7123	0.034
Mof_C 	C 	0.4278	0.2404	0.6545	-0.28
Mof_H 	H 	0.2149	0.1924	0.7716	0.104
Mof_H 	H 	0.1402	0.2098	0.7307	0.095
Mof_C 	C 	0.2255	0.1495	0.7001	0.4
Mof_C 	C 	0.4148	0.3644	0.5303	0.034
Mof_H 	H 	0.4364	0.4518	0.5183	-0.011
Mof_O 	O 	0.5128	0.42519	0.57665	-0.186
Mof_C 	C 	0.1817	0.5224	0.5239	0.1
Mof_C 	C 	0.0392	0.5526	0.5687	-0.445
Mof_H 	H 	0.2978	0.4975	0.4951	0.078
Mof_H 	H 	0.7867	0.3679	0.7696	0.138
Mof_H 	H 	0.7601	0.429	0.7827	0.12
Mof_H 	H 	0.9506	0.4776	0.6543	0.107
Mof_H 	H 	0.8646	0.452	0.6809	0.103
Mof_C 	C 	0.8598	0.4502	0.5989	0.3
Mof_N 	N 	0.9579	0.2481	0.8395	-0.358
Mof_O 	O 	0.885	0.3111	0.7907	-0.349
Mof_H 	H 	0.3773	0.2284	0.6331	0.063
Mof_H 	H 	0.4327	0.2825	0.6522	0.112
Mof_C 	C 	0.5094	0.2134	0.6328	0.372
Mof_N 	N 	0.2214	0.1	0.7248	-0.37
Mof_O 	O 	0.2452	0.1546	0.6527	-0.698
Mof_C 	C 	0.5075	0.3429	0.5237	0.135
Mof_H 	H 	0.3824	0.364	0.4961	-0.002
Mof_O 	O 	0.3706	0.33425	0.56938	-0.34
Mof_C 	C 	0.5545	0.3706	0.5699	-0.081
Mof_C 	C 	0.1473	0.5485	0.4737	-0.47
Mof_H 	H 	0.0114	0.5501	0.6034	0.14
Mof_H 	H 	0.0021	0.5341	0.5423	0.134
Mof_H 	H 	0.0476	0.5928	0.5593	0.146
Mof_O 	O 	0.5824	0.2309	0.6468	-0.58
Mof_N 	N 	0.8197	0.4988	0.5909	-0.339
Mof_O 	O 	0.8605	0.4096	0.5669	-0.339
Mof_H 	H 	0.91	0.2366	0.8553	0.176
Mof_H 	H 	0.0082	0.2326	0.8479	0.136
Mof_N 	N 	0.4982	0.1694	0.6001	-0.215
Mof_H 	H 	0.233	0.0681	0.7077	0.096
Mof_H 	H 	0.2071	0.0988	0.7584	0.12
Mof_Na	Na	0.2122	0.14309	0.56683	2.158
Mof_H 	H 	0.5322	0.3572	0.4897	-0.069
Mof_O 	O 	0.5151	0.28328	0.52605	-0.313
Mof_H 	H 	0.3612	0.3007	0.559	0.165
Mof_H 	H 	0.5467	0.3469	0.6024	0.045
Mof_C 	C 	0.6517	0.3802	0.5593	0.294
Mof_H 	H 	0.0883	0.5629	0.4797	0.146
Mof_H 	H 	0.1462	0.5195	0.4459	0.147
Mof_H 	H 	0.1852	0.5801	0.463	0.161
Mof_H 	H 	0.7908	0.5045	0.5614	0.117
Mof_H 	H 	0.8217	0.5258	0.615	0.121
Mof_C 	C 	0.5718	0.1392	0.5764	-0.194
Mof_H 	H 	0.445	0.1583	0.5924	0.047
Mof_P 	P 	0.54432	0.25021	0.47375	0.557
Mof_H 	H 	0.6766	0.4039	0.588	-0.067
Mof_H 	H 	0.6822	0.3429	0.5594	-0.168
Mof_O 	O 	0.6655	0.4073	0.511	-0.656
Mof_H 	H 	0.5507	0.1028	0.561	0.062
Mof_H 	H 	0.6142	0.1296	0.6044	0.062
Mof_C 	C 	0.6171	0.173	0.5342	0.367
Mof_O 	O 	0.5524	0.1876	0.49453	-0.34
Mof_O 	O 	0.6291	0.27469	0.4555	-0.595
Mof_O 	O 	0.4717	0.2511	0.4352	-0.352
Mof_H 	H 	0.6825	0.4461	0.5065	0.153
Mof_H 	H 	0.6448	0.2081	0.5491	-0.136
Mof_C 	C 	0.6837	0.1356	0.5071	-0.672
Mof_H 	H 	0.7248	0.1208	0.5333	0.198
Mof_H 	H 	0.7153	0.1581	0.4808	0.213
Mof_H 	H 	0.6543	0.1036	0.4897	0.224
Mof_Br	Br	0.10695	0.37299	0.26485	-0.382
Mof_C 	C 	0.1541	0.4467	0.2521	0.041
Mof_C 	C 	0.242	0.4474	0.2429	0.052
Mof_C 	C 	0.0993	0.4946	0.259	-0.046
Mof_C 	C 	0.3004	0.3957	0.2406	-0.143
Mof_N 	N 	0.2916	0.4959	0.2386	-0.243
Mof_C 	C 	0.0092	0.4958	0.2841	0.302
Mof_N 	N 	0.1265	0.5477	0.2498	-0.236
Mof_C 	C 	0.3835	0.4214	0.2685	0.213
Mof_H 	H 	0.2756	0.3637	0.262	0.048
Mof_C 	C 	0.3199	0.3758	0.1845	0.058
Mof_C 	C 	0.3781	0.4829	0.2492	-0.041
Mof_Co	Co	0.24444	0.57067	0.23348	1.175
Mof_C 	C 	0.9742	0.5525	0.2618	-0.194
Mof_C 	C 	0.9438	0.4473	0.2776	-0.616
Mof_C 	C 	0.0248	0.5042	0.3445	-0.583
Mof_C 	C 	0.0584	0.5877	0.2541	0.059
Mof_C 	C 	0.3682	0.4234	0.3297	-0.444
Mof_C 	C 	0.4662	0.3868	0.2551	-0.489
Mof_H 	H 	0.3551	0.4055	0.1667	0.012
Mof_H 	H 	0.3557	0.3407	0.1865	-0.004
Mof_C 	C 	0.2408	0.3634	0.1508	-0.327
Mof_C 	C 	0.4448	0.5216	0.2461	0.012
Mof_N 	N 	0.3572	0.6012	0.2183	-0.256
Mof_N 	N 	0.2723	0.5761	0.3081	-0.208
Mof_N 	N 	0.2124	0.6485	0.2316	-0.238
Mof_N 	N 	0.2185	0.5577	0.1581	-0.26
Mof_H 	H 	0.9345	0.5715	0.2876	0.069
Mof_C 	C 	0.9308	0.5475	0.2073	0.063
Mof_H 	H 	0.8863	0.4602	0.2893	0.173
Mof_H 	H 	0.9621	0.4145	0.2989	0.21
Mof_H 	H 	0.941	0.4361	0.2404	0.208
Mof_H 	H 	0.9689	0.5098	0.3623	0.161
Mof_H 	H 	0.0617	0.5378	0.3502	0.193
Mof_H 	H 	0.0537	0.4703	0.359	0.183
Mof_C 	C 	0.059	0.6448	0.2485	-0.013
Mof_H 	H 	0.4133	0.4479	0.3461	0.129
Mof_H 	H 	0.3109	0.441	0.3369	0.155
Mof_C 	C 	0.3711	0.3649	0.355	0.437
Mof_H 	H 	0.4838	0.3948	0.2187	0.15
Mof_H 	H 	0.4541	0.3459	0.2589	0.139
Mof_H 	H 	0.5132	0.3977	0.2792	0.133
Mof_H 	H 	0.2013	0.3375	0.1702	0.114
Mof_H 	H 	0.2092	0.3995	0.144	0.126
Mof_C 	C 	0.2657	0.3363	0.099	0.307
Mof_C 	C 	0.4326	0.5776	0.227	0.068
Mof_C 	C 	0.5336	0.5057	0.2691	-0.339
Mof_C 	C 	0.3611	0.663	0.2034	0.077
Mof_N 	N 	0.2309	0.6042	0.3346	-0.051
Mof_C 	C 	0.1395	0.6754	0.2404	0.029
Mof_C 	C 	0.285	0.6887	0.2346	-0.068
Mof_C 	C 	0.1453	0.5725	0.1357	0.112
Mof_C 	C 	0.2655	0.5296	0.1171	0.063
Mof_H 	H 	0.9573	0.5146	0.1887	0.011
Mof_H 	H 	0.9455	0.5822	0.1869	0.018
Mof_C 	C 	0.8307	0.5399	0.206	-0.349
Mof_C 	C 	0.9743	0.6771	0.2526	-0.268
Mof_N 	N 	0.4435	0.3531	0.3807	-0.379
Mof_O 	O 	0.3102	0.3314	0.3515	-0.617
Mof_N 	N 	0.2149	0.3497	0.0577	-0.338
Mof_O 	O 	0.3264	0.3026	0.095	-0.3
Mof_C 	C 	0.504	0.6205	0.2137	-0.175
Mof_H 	H 	0.5253	0.483	0.3013	0.087
Mof_H 	H 	0.5659	0.5406	0.2776	0.104
Mof_H 	H 	0.5663	0.4832	0.2433	0.098
Mof_C 	C 	0.4571	0.6786	0.2207	0.167
Mof_C 	C 	0.345	0.6702	0.1439	-0.417
Mof_N 	N 	0.1884	0.6319	0.3635	-0.103
Mof_C 	C 	0.1518	0.7407	0.2422	0.062
Mof_C 	C 	0.2441	0.745	0.2181	0.044
Mof_H 	H 	0.3031	0.692	0.2724	0.04
Mof_H 	H 	0.1019	0.5938	0.1537	-0.003
Mof_N 	N 	0.136	0.5553	0.0857	-0.141
Mof_C 	C 	0.3454	0.5042	0.1154	-0.17
Mof_C 	C 	0.2115	0.5273	0.0724	0.069
Mof_H 	H 	0.8129	0.5246	0.1712	0.12
Mof_H 	H 	0.8129	0.5121	0.2334	0.097
Mof_C 	C 	0.7851	0.5974	0.2159	0.385
Mof_H 	H 	0.9286	0.6513	0.2653	0.076
Mof_H 	H 	0.9582	0.6921	0.2178	0.067
Mof_H 	H 	0.981	0.7089	0.2774	0.078
Mof_H 	H 	0.4496	0.3198	0.3965	0.141
Mof_H 	H 	0.4856	0.3785	0.3822	0.085
Mof_Na	Na	0.22956	0.24216	0.33861	2.125
Mof_H 	H 	0.2246	0.3341	0.0267	0.146
Mof_H 	H 	0.1717	0.374	0.0617	0.138
Mof_H 	H 	0.5501	0.6176	0.2414	0.08
Mof_C 	C 	0.5469	0.6108	0.1597	0.097
Mof_C 	C 	0.4997	0.7264	0.1902	-0.386
Mof_C 	C 	0.4579	0.6934	0.2805	-0.371
Mof_H 	H 	0.3876	0.6475	0.1241	0.15
Mof_H 	H 	0.3511	0.7106	0.1343	0.127
Mof_H 	H 	0.2861	0.6571	0.1352	0.144
Mof_C 	C 	0.15	0.7579	0.301	-0.417
Mof_C 	C 	0.0866	0.7769	0.2117	-0.052
Mof_H 	H 	0.2383	0.7449	0.1788	0.006
Mof_C 	C 	0.2969	0.7986	0.2341	-0.345
Mof_C 	C 	0.0671	0.5746	0.0492	0.108
Mof_H 	H 	0.3819	0.5053	0.1457	0.081
Mof_C 	C 	0.3736	0.4772	0.0705	0.092
Mof_C 	C 	0.2386	0.5023	0.0254	-0.177
Mof_N 	N 	0.7411	0.6005	0.2612	-0.371
Mof_O 	O 	0.7901	0.6361	0.184	-0.56
Mof_H 	H 	0.5015	0.6145	0.1322	-0.002
Mof_H 	H 	0.5898	0.6417	0.1538	-0.046
Mof_C 	C 	0.5928	0.5536	0.1521	-0.327
Mof_H 	H 	0.5605	0.7302	0.2012	0.071
Mof_H 	H 	0.4689	0.7623	0.1971	0.102
Mof_H 	H 	0.4972	0.7179	0.1523	0.119
Mof_H 	H 	0.4159	0.7248	0.2868	0.116
Mof_H 	H 	0.437	0.6596	0.3004	0.132
Mof_C 	C 	0.5457	0.7113	0.3031	0.324
Mof_H 	H 	0.0959	0.7443	0.3171	0.14
Mof_H 	H 	0.1531	0.7996	0.304	0.131
Mof_H 	H 	0.1998	0.7408	0.3191	0.144
Mof_H 	H 	0.0301	0.7753	0.2303	0.038
Mof_H 	H 	0.1066	0.8171	0.2123	0.034
Mof_C 	C 	0.0722	0.7596	0.1545	-0.28
Mof_H 	H 	0.2851	0.8076	0.2716	0.104
Mof_H 	H 	0.3598	0.7902	0.2307	0.095
Mof_C 	C 	0.2745	0.8505	0.2001	0.4
Mof_C 	C 	0.0852	0.6356	0.0303	0.03
Mof_H 	H 	0.0636	0.5482	0.0183	-0.011
Mof_O 	O 	0.9872	0.57481	0.07665	-0.185
Mof_C 	C 	0.3183	0.4776	0.0239	0.101
Mof_C 	C 	0.4608	0.4474	0.0687	-0.445
Mof_H 	H 	0.2022	0.5025	0.9951	0.079
Mof_H 	H 	0.7133	0.6321	0.2696	0.138
Mof_H 	H 	0.7399	0.571	0.2827	0.12
Mof_H 	H 	0.5494	0.5224	0.1543	0.107
Mof_H 	H 	0.6354	0.548	0.1809	0.103
Mof_C 	C 	0.6402	0.5498	0.0989	0.3
Mof_N 	N 	0.5421	0.7519	0.3395	-0.358
Mof_O 	O 	0.615	0.6889	0.2907	-0.349
Mof_H 	H 	0.1227	0.7716	0.1331	0.063
Mof_H 	H 	0.0673	0.7175	0.1522	0.112
Mof_C 	C 	0.9906	0.7866	0.1328	0.372
Mof_N 	N 	0.2786	0.9	0.2248	-0.37
Mof_O 	O 	0.2548	0.8454	0.1527	-0.698
Mof_C 	C 	0.9925	0.6571	0.0237	0.139
Mof_H 	H 	0.1176	0.636	0.9961	0
Mof_O 	O 	0.1294	0.66575	0.06938	-0.339
Mof_C 	C 	0.9455	0.6294	0.0699	-0.082
Mof_C 	C 	0.3527	0.4515	0.9737	-0.471
Mof_H 	H 	0.4886	0.4499	0.1034	0.14
Mof_H 	H 	0.4979	0.4659	0.0423	0.134
Mof_H 	H 	0.4524	0.4072	0.0593	0.146
Mof_O 	O 	0.9176	0.7691	0.1468	-0.58
Mof_N 	N 	0.6803	0.5012	0.0909	-0.339
Mof_O 	O 	0.6395	0.5904	0.0669	-0.339
Mof_H 	H 	0.59	0.7634	0.3553	0.176
Mof_H 	H 	0.4918	0.7674	0.3479	0.136
Mof_N 	N 	0.0018	0.8306	0.1001	-0.215
Mof_H 	H 	0.267	0.9319	0.2077	0.096
Mof_H 	H 	0.2929	0.9012	0.2584	0.12
Mof_Na	Na	0.2878	0.85691	0.06683	2.156
Mof_H 	H 	0.9678	0.6428	0.9897	-0.072
Mof_O 	O 	0.9849	0.71672	0.02605	-0.313
Mof_H 	H 	0.1388	0.6993	0.059	0.165
Mof_H 	H 	0.9533	0.6531	0.1024	0.046
Mof_C 	C 	0.8483	0.6198	0.0593	0.295
Mof_H 	H 	0.4117	0.4371	0.9797	0.146
Mof_H 	H 	0.3538	0.4805	0.9459	0.148
Mof_H 	H 	0.3148	0.4199	0.963	0.162
Mof_H 	H 	0.7092	0.4955	0.0614	0.117
Mof_H 	H 	0.6783	0.4742	0.115	0.121
Mof_C 	C 	0.9282	0.8608	0.0764	-0.194
Mof_H 	H 	0.055	0.8417	0.0924	0.047
Mof_P 	P 	0.95568	0.74979	0.97375	0.554
Mof_H 	H 	0.8234	0.5961	0.088	-0.067
Mof_H 	H 	0.8178	0.6571	0.0594	-0.168
Mof_O 	O 	0.8345	0.5927	0.011	-0.656
Mof_H 	H 	0.9493	0.8972	0.061	0.062
Mof_H 	H 	0.8858	0.8704	0.1044	0.062
Mof_C 	C 	0.8829	0.827	0.0342	0.367
Mof_O 	O 	0.9476	0.8124	0.99453	-0.341
Mof_O 	O 	0.8709	0.72531	0.9555	-0.594
Mof_O 	O 	0.0283	0.7489	0.9352	-0.35
Mof_H 	H 	0.8175	0.5539	0.0065	0.154
Mof_H 	H 	0.8552	0.7919	0.0491	-0.136
Mof_C 	C 	0.8163	0.8644	0.0071	-0.671
Mof_H 	H 	0.7752	0.8792	0.0333	0.197
Mof_H 	H 	0.7847	0.8419	0.9808	0.212
Mof_H 	H 	0.8457	0.8964	0.9897	0.223
Mof_Br	Br	0.60695	0.12701	0.73515	-0.381
Mof_C 	C 	0.6541	0.0533	0.7479	0.041
Mof_C 	C 	0.742	0.0526	0.7571	0.052
Mof_C 	C 	0.5993	0.0054	0.741	-0.046
Mof_C 	C 	0.8004	0.1043	0.7594	-0.143
Mof_N 	N 	0.7916	0.0041	0.7614	-0.243
Mof_C 	C 	0.5092	0.0042	0.7159	0.301
Mof_N 	N 	0.6265	0.9523	0.7502	-0.236
Mof_C 	C 	0.8835	0.0786	0.7315	0.211
Mof_H 	H 	0.7756	0.1363	0.738	0.048
Mof_C 	C 	0.8199	0.1242	0.8155	0.057
Mof_C 	C 	0.8781	0.0171	0.7508	-0.037
Mof_Co	Co	0.74444	0.92933	0.76652	1.175
Mof_C 	C 	0.4742	0.9475	0.7382	-0.195
Mof_C 	C 	0.4438	0.0527	0.7224	-0.616
Mof_C 	C 	0.5248	0.9958	0.6555	-0.58
Mof_C 	C 	0.5584	0.9123	0.7459	0.06
Mof_C 	C 	0.8682	0.0766	0.6703	-0.443
Mof_C 	C 	0.9662	0.1132	0.7449	-0.486
Mof_H 	H 	0.8551	0.0945	0.8333	0.012
Mof_H 	H 	0.8557	0.1593	0.8135	-0.004
Mof_C 	C 	0.7408	0.1366	0.8492	-0.327
Mof_C 	C 	0.9448	0.9784	0.7539	0.004
Mof_N 	N 	0.8572	0.8988	0.7817	-0.257
Mof_N 	N 	0.7723	0.9239	0.6919	-0.208
Mof_N 	N 	0.7124	0.8515	0.7684	-0.238
Mof_N 	N 	0.7185	0.9423	0.8419	-0.26
Mof_H 	H 	0.4345	0.9285	0.7124	0.069
Mof_C 	C 	0.4308	0.9525	0.7927	0.063
Mof_H 	H 	0.3863	0.0398	0.7107	0.173
Mof_H 	H 	0.4621	0.0855	0.7011	0.21
Mof_H 	H 	0.441	0.0639	0.7596	0.208
Mof_H 	H 	0.4689	0.9902	0.6377	0.16
Mof_H 	H 	0.5617	0.9622	0.6498	0.192
Mof_H 	H 	0.5537	0.0297	0.641	0.183
Mof_C 	C 	0.559	0.8552	0.7515	-0.013
Mof_H 	H 	0.9133	0.0521	0.6539	0.129
Mof_H 	H 	0.8109	0.059	0.6631	0.154
Mof_C 	C 	0.8711	0.1351	0.645	0.437
Mof_H 	H 	0.9838	0.1052	0.7813	0.149
Mof_H 	H 	0.9541	0.1541	0.7411	0.138
Mof_H 	H 	0.0132	0.1023	0.7208	0.132
Mof_H 	H 	0.7013	0.1625	0.8298	0.114
Mof_H 	H 	0.7092	0.1005	0.856	0.126
Mof_C 	C 	0.7657	0.1637	0.901	0.307
Mof_C 	C 	0.9326	0.9224	0.773	0.069
Mof_C 	C 	0.0336	0.9943	0.7309	-0.316
Mof_C 	C 	0.8611	0.837	0.7966	0.076
Mof_N 	N 	0.7309	0.8958	0.6654	-0.051
Mof_C 	C 	0.6395	0.8246	0.7596	0.029
Mof_C 	C 	0.785	0.8113	0.7654	-0.067
Mof_C 	C 	0.6453	0.9275	0.8643	0.112
Mof_C 	C 	0.7655	0.9704	0.8829	0.065
Mof_H 	H 	0.4573	0.9854	0.8113	0.011
Mof_H 	H 	0.4455	0.9178	0.8131	0.018
Mof_C 	C 	0.3307	0.9601	0.794	-0.349
Mof_C 	C 	0.4743	0.8229	0.7474	-0.269
Mof_N 	N 	0.9435	0.1469	0.6193	-0.379
Mof_O 	O 	0.8102	0.1686	0.6485	-0.617
Mof_N 	N 	0.7149	0.1503	0.9423	-0.338
Mof_O 	O 	0.8264	0.1974	0.905	-0.3
Mof_C 	C 	0.004	0.8795	0.7863	-0.173
Mof_H 	H 	0.0253	0.017	0.6987	0.079
Mof_H 	H 	0.0659	0.9594	0.7224	0.098
Mof_H 	H 	0.0663	0.0168	0.7567	0.09
Mof_C 	C 	0.9571	0.8214	0.7793	0.167
Mof_C 	C 	0.845	0.8298	0.8561	-0.416
Mof_N 	N 	0.6884	0.8681	0.6365	-0.103
Mof_C 	C 	0.6518	0.7593	0.7578	0.062
Mof_C 	C 	0.7441	0.755	0.7819	0.044
Mof_H 	H 	0.8031	0.808	0.7276	0.04
Mof_H 	H 	0.6019	0.9062	0.8463	-0.003
Mof_N 	N 	0.636	0.9447	0.9143	-0.14
Mof_C 	C 	0.8454	0.9958	0.8846	-0.172
Mof_C 	C 	0.7115	0.9727	0.9276	0.067
Mof_H 	H 	0.3129	0.9754	0.8288	0.121
Mof_H 	H 	0.3129	0.9879	0.7666	0.098
Mof_C 	C 	0.2851	0.9026	0.7841	0.386
Mof_H 	H 	0.4286	0.8487	0.7347	0.077
Mof_H 	H 	0.4582	0.8079	0.7822	0.067
Mof_H 	H 	0.481	0.7911	0.7226	0.079
Mof_H 	H 	0.9496	0.1802	0.6035	0.141
Mof_H 	H 	0.9856	0.1215	0.6178	0.086
Mof_Na	Na	0.72956	0.25784	0.66139	2.126
Mof_H 	H 	0.7246	0.1659	0.9733	0.145
Mof_H 	H 	0.6717	0.126	0.9383	0.138
Mof_H 	H 	0.0501	0.8824	0.7586	0.08
Mof_C 	C 	0.0469	0.8892	0.8403	0.096
Mof_C 	C 	0.9997	0.7736	0.8098	-0.392
Mof_C 	C 	0.9579	0.8066	0.7195	-0.374
Mof_H 	H 	0.8876	0.8525	0.8759	0.15
Mof_H 	H 	0.8511	0.7894	0.8657	0.127
Mof_H 	H 	0.7861	0.8429	0.8648	0.143
Mof_C 	C 	0.65	0.7421	0.699	-0.417
Mof_C 	C 	0.5866	0.7231	0.7883	-0.053
Mof_H 	H 	0.7383	0.7551	0.8212	0.006
Mof_C 	C 	0.7969	0.7014	0.7659	-0.345
Mof_C 	C 	0.5671	0.9254	0.9508	0.107
Mof_H 	H 	0.8819	0.9947	0.8543	0.081
Mof_C 	C 	0.8736	0.0228	0.9295	0.094
Mof_C 	C 	0.7386	0.9977	0.9746	-0.171
Mof_N 	N 	0.2411	0.8995	0.7388	-0.371
Mof_O 	O 	0.2901	0.8639	0.816	-0.561
Mof_H 	H 	0.0015	0.8855	0.8678	-0.001
Mof_H 	H 	0.0898	0.8583	0.8462	-0.045
Mof_C 	C 	0.0928	0.9464	0.8479	-0.326
Mof_H 	H 	0.0605	0.7698	0.7988	0.074
Mof_H 	H 	0.9689	0.7377	0.8029	0.103
Mof_H 	H 	0.9972	0.7821	0.8477	0.12
Mof_H 	H 	0.9159	0.7752	0.7132	0.117
Mof_H 	H 	0.937	0.8404	0.6996	0.132
Mof_C 	C 	0.0457	0.7887	0.6969	0.325
Mof_H 	H 	0.5959	0.7557	0.6829	0.14
Mof_H 	H 	0.6531	0.7004	0.696	0.131
Mof_H 	H 	0.6998	0.7592	0.6809	0.144
Mof_H 	H 	0.5301	0.7247	0.7697	0.038
Mof_H 	H 	0.6066	0.6829	0.7877	0.034
Mof_C 	C 	0.5722	0.7404	0.8455	-0.28
Mof_H 	H 	0.7851	0.6924	0.7284	0.104
Mof_H 	H 	0.8598	0.7098	0.7693	0.095
Mof_C 	C 	0.7745	0.6495	0.7999	0.4
Mof_C 	C 	0.5852	0.8644	0.9697	0.035
Mof_H 	H 	0.5636	0.9518	0.9817	-0.01
Mof_O 	O 	0.4872	0.92519	0.92335	-0.186
Mof_C 	C 	0.8183	0.0224	0.9761	0.095
Mof_C 	C 	0.9608	0.0526	0.9313	-0.446
Mof_H 	H 	0.7022	0.9975	0.0049	0.075
Mof_H 	H 	0.2133	0.8679	0.7304	0.139
Mof_H 	H 	0.2399	0.929	0.7173	0.121
Mof_H 	H 	0.0494	0.9776	0.8457	0.108
Mof_H 	H 	0.1354	0.952	0.8191	0.104
Mof_C 	C 	0.1402	0.9502	0.9011	0.3
Mof_N 	N 	0.0421	0.7481	0.6605	-0.357
Mof_O 	O 	0.115	0.8111	0.7093	-0.349
Mof_H 	H 	0.6227	0.7284	0.8669	0.063
Mof_H 	H 	0.5673	0.7825	0.8478	0.112
Mof_C 	C 	0.4906	0.7134	0.8672	0.372
Mof_N 	N 	0.7786	0.6	0.7752	-0.37
Mof_O 	O 	0.7548	0.6546	0.8473	-0.698
Mof_C 	C 	0.4925	0.8429	0.9763	0.136
Mof_H 	H 	0.6176	0.864	0.0039	-0.003
Mof_O 	O 	0.6294	0.83425	0.93062	-0.34
Mof_C 	C 	0.4455	0.8706	0.9301	-0.081
Mof_C 	C 	0.8527	0.0485	0.0263	-0.464
Mof_H 	H 	0.9886	0.0501	0.8966	0.14
Mof_H 	H 	0.9979	0.0341	0.9577	0.134
Mof_H 	H 	0.9524	0.0928	0.9407	0.145
Mof_O 	O 	0.4176	0.7309	0.8532	-0.58
Mof_N 	N 	0.1803	0.9988	0.9091	-0.335
Mof_O 	O 	0.1395	0.9096	0.9331	-0.338
Mof_H 	H 	0.09	0.7366	0.6447	0.176
Mof_H 	H 	0.9918	0.7326	0.6521	0.135
Mof_N 	N 	0.5018	0.6694	0.8999	-0.215
Mof_H 	H 	0.767	0.5681	0.7923	0.096
Mof_H 	H 	0.7929	0.5988	0.7416	0.12
Mof_Na	Na	0.7878	0.64309	0.93317	2.156
Mof_H 	H 	0.4678	0.8572	0.0103	-0.07
Mof_O 	O 	0.4849	0.78328	0.97395	-0.313
Mof_H 	H 	0.6388	0.8007	0.941	0.165
Mof_H 	H 	0.4533	0.8469	0.8976	0.045
Mof_C 	C 	0.3483	0.8802	0.9407	0.294
Mof_H 	H 	0.9117	0.0629	0.0203	0.146
Mof_H 	H 	0.8538	0.0195	0.0541	0.147
Mof_H 	H 	0.8148	0.0801	0.037	0.161
Mof_H 	H 	0.2092	0.0045	0.9386	0.114
Mof_H 	H 	0.1783	0.0258	0.885	0.118
Mof_C 	C 	0.4282	0.6392	0.9236	-0.193
Mof_H 	H 	0.555	0.6583	0.9076	0.047
Mof_P 	P 	0.45568	0.75021	0.02625	0.556
Mof_H 	H 	0.3234	0.9039	0.912	-0.066
Mof_H 	H 	0.3178	0.8429	0.9406	-0.167
Mof_O 	O 	0.3345	0.9073	0.989	-0.655
Mof_H 	H 	0.4493	0.6028	0.939	0.062
Mof_H 	H 	0.3858	0.6296	0.8956	0.062
Mof_C 	C 	0.3829	0.673	0.9658	0.365
Mof_O 	O 	0.4476	0.6876	0.00547	-0.34
Mof_O 	O 	0.3709	0.77469	0.0445	-0.594
Mof_O 	O 	0.5283	0.7511	0.0648	-0.352
Mof_H 	H 	0.3175	0.9461	0.9935	0.154
Mof_H 	H 	0.3552	0.7081	0.9509	-0.135
Mof_C 	C 	0.3163	0.6356	0.9929	-0.665
Mof_H 	H 	0.2752	0.6208	0.9667	0.196
Mof_H 	H 	0.2847	0.6581	0.0192	0.21
Mof_H 	H 	0.3457	0.6036	0.0103	0.221
Mof_Br	Br	0.89305	0.87299	0.23515	-0.381
Mof_C 	C 	0.8459	0.9467	0.2479	0.04
Mof_C 	C 	0.758	0.9474	0.2571	0.052
Mof_C 	C 	0.9007	0.9946	0.241	-0.045
Mof_C 	C 	0.6996	0.8957	0.2594	-0.144
Mof_N 	N 	0.7084	0.9959	0.2614	-0.243
Mof_C 	C 	0.9908	0.9958	0.2159	0.293
Mof_N 	N 	0.8735	0.0477	0.2502	-0.235
Mof_C 	C 	0.6165	0.9214	0.2315	0.214
Mof_H 	H 	0.7244	0.8637	0.238	0.048
Mof_C 	C 	0.6801	0.8758	0.3155	0.058
Mof_C 	C 	0.6219	0.9829	0.2508	-0.042
Mof_Co	Co	0.75556	0.07067	0.26652	1.175
Mof_C 	C 	0.0258	0.0525	0.2382	-0.194
Mof_C 	C 	0.0562	0.9473	0.2224	-0.608
Mof_C 	C 	0.9752	0.0042	0.1555	-0.557
Mof_C 	C 	0.9416	0.0877	0.2459	0.061
Mof_C 	C 	0.6318	0.9234	0.1703	-0.444
Mof_C 	C 	0.5338	0.8868	0.2449	-0.489
Mof_H 	H 	0.6449	0.9055	0.3333	0.012
Mof_H 	H 	0.6443	0.8407	0.3135	-0.004
Mof_C 	C 	0.7592	0.8634	0.3492	-0.327
Mof_C 	C 	0.5552	0.0216	0.2539	0.013
Mof_N 	N 	0.6428	0.1012	0.2817	-0.256
Mof_N 	N 	0.7277	0.0761	0.1919	-0.208
Mof_N 	N 	0.7876	0.1485	0.2684	-0.238
Mof_N 	N 	0.7815	0.0577	0.3419	-0.26
Mof_H 	H 	0.0655	0.0715	0.2124	0.069
Mof_C 	C 	0.0692	0.0475	0.2927	0.063
Mof_H 	H 	0.1137	0.9602	0.2107	0.171
Mof_H 	H 	0.0379	0.9145	0.2011	0.208
Mof_H 	H 	0.059	0.9361	0.2596	0.206
Mof_H 	H 	0.0311	0.0098	0.1377	0.152
Mof_H 	H 	0.9383	0.0378	0.1498	0.186
Mof_H 	H 	0.9463	0.9703	0.141	0.175
Mof_C 	C 	0.941	0.1448	0.2515	-0.011
Mof_H 	H 	0.5867	0.9479	0.1539	0.129
Mof_H 	H 	0.6891	0.941	0.1631	0.154
Mof_C 	C 	0.6289	0.8649	0.145	0.437
Mof_H 	H 	0.5162	0.8948	0.2813	0.15
Mof_H 	H 	0.5459	0.8459	0.2411	0.139
Mof_H 	H 	0.4868	0.8977	0.2208	0.133
Mof_H 	H 	0.7987	0.8375	0.3298	0.114
Mof_H 	H 	0.7908	0.8995	0.356	0.126
Mof_C 	C 	0.7343	0.8363	0.401	0.307
Mof_C 	C 	0.5674	0.0776	0.273	0.068
Mof_C 	C 	0.4664	0.0057	0.2309	-0.335
Mof_C 	C 	0.6389	0.163	0.2966	0.077
Mof_N 	N 	0.7691	0.1042	0.1654	-0.05
Mof_C 	C 	0.8605	0.1754	0.2596	0.029
Mof_C 	C 	0.715	0.1887	0.2654	-0.068
Mof_C 	C 	0.8547	0.0725	0.3643	0.112
Mof_C 	C 	0.7345	0.0296	0.3829	0.064
Mof_H 	H 	0.0427	0.0146	0.3113	0.011
Mof_H 	H 	0.0545	0.0822	0.3131	0.017
Mof_C 	C 	0.1693	0.0399	0.294	-0.348
Mof_C 	C 	0.0257	0.1771	0.2474	-0.272
Mof_N 	N 	0.5565	0.8531	0.1193	-0.379
Mof_O 	O 	0.6898	0.8314	0.1485	-0.617
Mof_N 	N 	0.7851	0.8497	0.4423	-0.338
Mof_O 	O 	0.6736	0.8026	0.405	-0.3
Mof_C 	C 	0.496	0.1205	0.2863	-0.175
Mof_H 	H 	0.4747	0.983	0.1987	0.086
Mof_H 	H 	0.4341	0.0406	0.2224	0.103
Mof_H 	H 	0.4337	0.9832	0.2567	0.096
Mof_C 	C 	0.5429	0.1786	0.2793	0.167
Mof_C 	C 	0.655	0.1702	0.3561	-0.417
Mof_N 	N 	0.8116	0.1319	0.1365	-0.103
Mof_C 	C 	0.8482	0.2407	0.2578	0.064
Mof_C 	C 	0.7559	0.245	0.2819	0.044
Mof_H 	H 	0.6969	0.192	0.2276	0.04
Mof_H 	H 	0.8981	0.0938	0.3463	-0.002
Mof_N 	N 	0.864	0.0553	0.4143	-0.14
Mof_C 	C 	0.6546	0.0042	0.3846	-0.169
Mof_C 	C 	0.7885	0.0273	0.4276	0.068
Mof_H 	H 	0.1871	0.0246	0.3288	0.12
Mof_H 	H 	0.1871	0.0121	0.2666	0.097
Mof_C 	C 	0.2149	0.0974	0.2841	0.385
Mof_H 	H 	0.0714	0.1513	0.2347	0.077
Mof_H 	H 	0.0418	0.1921	0.2822	0.068
Mof_H 	H 	0.019	0.2089	0.2226	0.079
Mof_H 	H 	0.5504	0.8198	0.1035	0.141
Mof_H 	H 	0.5144	0.8785	0.1178	0.085
Mof_Na	Na	0.77044	0.74216	0.16139	2.126
Mof_H 	H 	0.7754	0.8341	0.4733	0.146
Mof_H 	H 	0.8283	0.874	0.4383	0.138
Mof_H 	H 	0.4499	0.1176	0.2586	0.08
Mof_C 	C 	0.4531	0.1108	0.3403	0.097
Mof_C 	C 	0.5003	0.2264	0.3098	-0.386
Mof_C 	C 	0.5421	0.1934	0.2195	-0.372
Mof_H 	H 	0.6124	0.1475	0.3759	0.15
Mof_H 	H 	0.6489	0.2106	0.3657	0.127
Mof_H 	H 	0.7139	0.1571	0.3648	0.143
Mof_C 	C 	0.85	0.2579	0.199	-0.418
Mof_C 	C 	0.9134	0.2769	0.2883	-0.054
Mof_H 	H 	0.7617	0.2449	0.3212	0.006
Mof_C 	C 	0.7031	0.2986	0.2659	-0.345
Mof_C 	C 	0.9329	0.0746	0.4508	0.109
Mof_H 	H 	0.6181	0.0053	0.3543	0.081
Mof_C 	C 	0.6264	0.9772	0.4295	0.092
Mof_C 	C 	0.7614	0.0023	0.4746	-0.174
Mof_N 	N 	0.2589	0.1005	0.2388	-0.371
Mof_O 	O 	0.2099	0.1361	0.316	-0.56
Mof_H 	H 	0.4985	0.1145	0.3678	-0.003
Mof_H 	H 	0.4102	0.1417	0.3462	-0.046
Mof_C 	C 	0.4072	0.0536	0.3479	-0.327
Mof_H 	H 	0.4395	0.2302	0.2988	0.071
Mof_H 	H 	0.5311	0.2623	0.3029	0.102
Mof_H 	H 	0.5028	0.2179	0.3477	0.119
Mof_H 	H 	0.5841	0.2248	0.2132	0.116
Mof_H 	H 	0.563	0.1596	0.1996	0.132
Mof_C 	C 	0.4543	0.2113	0.1969	0.324
Mof_H 	H 	0.9041	0.2443	0.1829	0.14
Mof_H 	H 	0.8469	0.2996	0.196	0.131
Mof_H 	H 	0.8002	0.2408	0.1809	0.145
Mof_H 	H 	0.9699	0.2753	0.2697	0.039
Mof_H 	H 	0.8934	0.3171	0.2877	0.034
Mof_C 	C 	0.9278	0.2596	0.3455	-0.277
Mof_H 	H 	0.7149	0.3076	0.2284	0.104
Mof_H 	H 	0.6402	0.2902	0.2693	0.095
Mof_C 	C 	0.7255	0.3505	0.2999	0.4
Mof_C 	C 	0.9148	0.1356	0.4697	0.035
Mof_H 	H 	0.9364	0.0482	0.4817	-0.011
Mof_O 	O 	0.0128	0.07481	0.42335	-0.188
Mof_C 	C 	0.6817	0.9776	0.4761	0.099
Mof_C 	C 	0.5392	0.9474	0.4313	-0.445
Mof_H 	H 	0.7978	0.0025	0.5049	0.077
Mof_H 	H 	0.2867	0.1321	0.2304	0.138
Mof_H 	H 	0.2601	0.071	0.2173	0.12
Mof_H 	H 	0.4506	0.0224	0.3457	0.108
Mof_H 	H 	0.3646	0.048	0.3191	0.103
Mof_C 	C 	0.3598	0.0498	0.4011	0.3
Mof_N 	N 	0.4579	0.2519	0.1605	-0.358
Mof_O 	O 	0.385	0.1889	0.2093	-0.349
Mof_H 	H 	0.8773	0.2716	0.3669	0.063
Mof_H 	H 	0.9327	0.2175	0.3478	0.112
Mof_C 	C 	0.0094	0.2866	0.3672	0.369
Mof_N 	N 	0.7214	0.4	0.2752	-0.37
Mof_O 	O 	0.7452	0.3454	0.3473	-0.698
Mof_C 	C 	0.0075	0.1571	0.4763	0.133
Mof_H 	H 	0.8824	0.136	0.5039	-0.003
Mof_O 	O 	0.8706	0.16575	0.43062	-0.34
Mof_C 	C 	0.0545	0.1294	0.4301	-0.08
Mof_C 	C 	0.6473	0.9515	0.5263	-0.469
Mof_H 	H 	0.5114	0.9499	0.3966	0.139
Mof_H 	H 	0.5021	0.9659	0.4577	0.134
Mof_H 	H 	0.5476	0.9072	0.4407	0.146
Mof_O 	O 	0.0824	0.2691	0.3532	-0.579
Mof_N 	N 	0.3197	0.0012	0.4091	-0.34
Mof_O 	O 	0.3605	0.0904	0.4331	-0.339
Mof_H 	H 	0.41	0.2634	0.1447	0.176
Mof_H 	H 	0.5082	0.2674	0.1521	0.136
Mof_N 	N 	0.9982	0.3306	0.3999	-0.213
Mof_H 	H 	0.733	0.4319	0.2923	0.096
Mof_H 	H 	0.7071	0.4012	0.2416	0.12
Mof_Na	Na	0.7122	0.35691	0.43317	2.159
Mof_H 	H 	0.0322	0.1428	0.5103	-0.069
Mof_O 	O 	0.0151	0.21672	0.47395	-0.313
Mof_H 	H 	0.8612	0.1993	0.441	0.165
Mof_H 	H 	0.0467	0.1531	0.3976	0.045
Mof_C 	C 	0.1517	0.1198	0.4407	0.293
Mof_H 	H 	0.5883	0.9371	0.5203	0.146
Mof_H 	H 	0.6462	0.9805	0.5541	0.147
Mof_H 	H 	0.6852	0.9199	0.537	0.161
Mof_H 	H 	0.2908	0.9955	0.4386	0.118
Mof_H 	H 	0.3217	0.9742	0.385	0.121
Mof_C 	C 	0.0718	0.3608	0.4236	-0.195
Mof_H 	H 	0.945	0.3417	0.4076	0.047
Mof_P 	P 	0.04432	0.24979	0.52625	0.556
Mof_H 	H 	0.1766	0.0961	0.412	-0.066
Mof_H 	H 	0.1822	0.1571	0.4406	-0.167
Mof_O 	O 	0.1655	0.0927	0.489	-0.656
Mof_H 	H 	0.0507	0.3972	0.439	0.062
Mof_H 	H 	0.1142	0.3704	0.3956	0.063
Mof_C 	C 	0.1171	0.327	0.4658	0.368
Mof_O 	O 	0.0524	0.3124	0.50547	-0.341
Mof_O 	O 	0.1291	0.22531	0.5445	-0.594
Mof_O 	O 	0.9717	0.2489	0.5648	-0.352
Mof_H 	H 	0.1825	0.0539	0.4935	0.153
Mof_H 	H 	0.1448	0.2919	0.4509	-0.136
Mof_C 	C 	0.1837	0.3644	0.4929	-0.672
Mof_H 	H 	0.2248	0.3792	0.4667	0.198
Mof_H 	H 	0.2153	0.3419	0.5192	0.213
Mof_H 	H 	0.1543	0.3964	0.5103	0.224
_end
