data_functionalizedCrystal
_audit_creation_method	'EQeq! by Chris Wilmer'
_symmetry_space_group_name_H-M	'P1'
_symmetry_Int_Tables_number	1
_symmetry_cell_setting	triclinic
loop_
_symmetry_equiv_pos_as_xyz
  x,y,z
_cell_length_a	18.4852
_cell_length_b	18.4852
_cell_length_c	18.4852
_cell_angle_alpha	90
_cell_angle_beta	90
_cell_angle_gamma	90
loop_
_atom_site_label
_atom_site_type_symbol
_atom_site_fract_x
_atom_site_fract_y
_atom_site_fract_z
_atom_site_charge
Mof_N 	N 	0.4203	0.3697	0.075	-0.293
Mof_N 	N 	0.4095	0.3247	0.1304	-0.301
Mof_N 	N 	0.5797	0.6303	0.075	-0.286
Mof_N 	N 	0.5905	0.6753	0.1304	-0.291
Mof_N 	N 	0.5797	0.3697	0.925	-0.225
Mof_N 	N 	0.5905	0.3247	0.8696	-0.279
Mof_N 	N 	0.4203	0.6303	0.925	-0.222
Mof_N 	N 	0.4095	0.6753	0.8696	-0.274
Mof_N 	N 	0.075	0.4203	0.3697	-0.293
Mof_N 	N 	0.1304	0.4095	0.3247	-0.301
Mof_N 	N 	0.075	0.5797	0.6303	-0.286
Mof_N 	N 	0.1304	0.5905	0.6753	-0.291
Mof_N 	N 	0.925	0.5797	0.3697	-0.225
Mof_N 	N 	0.8696	0.5905	0.3247	-0.279
Mof_N 	N 	0.925	0.4203	0.6303	-0.222
Mof_N 	N 	0.8696	0.4095	0.6753	-0.274
Mof_N 	N 	0.3697	0.075	0.4203	-0.293
Mof_N 	N 	0.3247	0.1304	0.4095	-0.301
Mof_N 	N 	0.6303	0.075	0.5797	-0.286
Mof_N 	N 	0.6753	0.1304	0.5905	-0.291
Mof_N 	N 	0.3697	0.925	0.5797	-0.225
Mof_N 	N 	0.3247	0.8696	0.5905	-0.279
Mof_N 	N 	0.6303	0.925	0.4203	-0.222
Mof_N 	N 	0.6753	0.8696	0.4095	-0.274
Mof_N 	N 	0.3697	0.4203	0.925	-0.227
Mof_N 	N 	0.3247	0.4095	0.8696	-0.282
Mof_N 	N 	0.6303	0.5797	0.925	-0.22
Mof_N 	N 	0.6753	0.5905	0.8696	-0.271
Mof_N 	N 	0.3697	0.5797	0.075	-0.291
Mof_N 	N 	0.3247	0.5905	0.1304	-0.298
Mof_N 	N 	0.6303	0.4203	0.075	-0.288
Mof_N 	N 	0.6753	0.4095	0.1304	-0.293
Mof_N 	N 	0.4203	0.075	0.6303	-0.288
Mof_N 	N 	0.4095	0.1304	0.6753	-0.293
Mof_N 	N 	0.5797	0.075	0.3697	-0.291
Mof_N 	N 	0.5905	0.1304	0.3247	-0.298
Mof_N 	N 	0.5797	0.925	0.6303	-0.22
Mof_N 	N 	0.5905	0.8696	0.6753	-0.271
Mof_N 	N 	0.4203	0.925	0.3697	-0.227
Mof_N 	N 	0.4095	0.8696	0.3247	-0.282
Mof_N 	N 	0.075	0.3697	0.5797	-0.291
Mof_N 	N 	0.1304	0.3247	0.5905	-0.298
Mof_N 	N 	0.075	0.6303	0.4203	-0.288
Mof_N 	N 	0.1304	0.6753	0.4095	-0.293
Mof_N 	N 	0.925	0.3697	0.4203	-0.227
Mof_N 	N 	0.8696	0.3247	0.4095	-0.282
Mof_N 	N 	0.925	0.6303	0.5797	-0.22
Mof_N 	N 	0.8696	0.6753	0.5905	-0.271
Mof_N 	N 	0.5797	0.6303	0.925	-0.22
Mof_N 	N 	0.5905	0.6753	0.8696	-0.271
Mof_N 	N 	0.4203	0.3697	0.925	-0.227
Mof_N 	N 	0.4095	0.3247	0.8696	-0.282
Mof_N 	N 	0.4203	0.6303	0.075	-0.288
Mof_N 	N 	0.4095	0.6753	0.1304	-0.293
Mof_N 	N 	0.5797	0.3697	0.075	-0.291
Mof_N 	N 	0.5905	0.3247	0.1304	-0.298
Mof_N 	N 	0.925	0.5797	0.6303	-0.22
Mof_N 	N 	0.8696	0.5905	0.6753	-0.271
Mof_N 	N 	0.925	0.4203	0.3697	-0.227
Mof_N 	N 	0.8696	0.4095	0.3247	-0.282
Mof_N 	N 	0.075	0.4203	0.6303	-0.288
Mof_N 	N 	0.1304	0.4095	0.6753	-0.293
Mof_N 	N 	0.075	0.5797	0.3697	-0.291
Mof_N 	N 	0.1304	0.5905	0.3247	-0.298
Mof_N 	N 	0.6303	0.925	0.5797	-0.22
Mof_N 	N 	0.6753	0.8696	0.5905	-0.271
Mof_N 	N 	0.3697	0.925	0.4203	-0.227
Mof_N 	N 	0.3247	0.8696	0.4095	-0.282
Mof_N 	N 	0.6303	0.075	0.4203	-0.288
Mof_N 	N 	0.6753	0.1304	0.4095	-0.293
Mof_N 	N 	0.3697	0.075	0.5797	-0.291
Mof_N 	N 	0.3247	0.1304	0.5905	-0.298
Mof_N 	N 	0.6303	0.5797	0.075	-0.286
Mof_N 	N 	0.6753	0.5905	0.1304	-0.291
Mof_N 	N 	0.3697	0.4203	0.075	-0.293
Mof_N 	N 	0.3247	0.4095	0.1304	-0.301
Mof_N 	N 	0.6303	0.4203	0.925	-0.222
Mof_N 	N 	0.6753	0.4095	0.8696	-0.274
Mof_N 	N 	0.3697	0.5797	0.925	-0.225
Mof_N 	N 	0.3247	0.5905	0.8696	-0.279
Mof_N 	N 	0.5797	0.925	0.3697	-0.225
Mof_N 	N 	0.5905	0.8696	0.3247	-0.279
Mof_N 	N 	0.4203	0.925	0.6303	-0.222
Mof_N 	N 	0.4095	0.8696	0.6753	-0.274
Mof_N 	N 	0.4203	0.075	0.3697	-0.293
Mof_N 	N 	0.4095	0.1304	0.3247	-0.301
Mof_N 	N 	0.5797	0.075	0.6303	-0.286
Mof_N 	N 	0.5905	0.1304	0.6753	-0.291
Mof_N 	N 	0.925	0.6303	0.4203	-0.222
Mof_N 	N 	0.8696	0.6753	0.4095	-0.274
Mof_N 	N 	0.925	0.3697	0.5797	-0.225
Mof_N 	N 	0.8696	0.3247	0.5905	-0.279
Mof_N 	N 	0.075	0.6303	0.5797	-0.286
Mof_N 	N 	0.1304	0.6753	0.5905	-0.291
Mof_N 	N 	0.075	0.3697	0.4203	-0.293
Mof_N 	N 	0.1304	0.3247	0.4095	-0.301
Mof_Cu	Cu	0.5	0.3636	-0	-0.934
Mof_Mn	Mn	0.5	0.348	-0	2.321
Mof_Cu	Cu	0.5	0.6364	-0	-0.913
Mof_Mn	Mn	0.5	0.652	-0	2.301
Mof_Cu	Cu	1.36328e-33	0.5	0.3636	-0.934
Mof_Mn	Mn	-2.69169e-33	0.5	0.348	2.321
Mof_Cu	Cu	2.38612e-33	0.5	0.6364	-0.913
Mof_Mn	Mn	-5.54836e-33	0.5	0.652	2.301
Mof_Cu	Cu	0.3636	0	0.5	-0.934
Mof_Mn	Mn	0.348	0	0.5	2.321
Mof_Cu	Cu	0.6364	0	0.5	-0.913
Mof_Mn	Mn	0.652	0	0.5	2.301
Mof_Cu	Cu	0.3636	0.5	-0	-0.934
Mof_Mn	Mn	0.348	0.5	-0	2.321
Mof_Cu	Cu	0.6364	0.5	-0	-0.913
Mof_Mn	Mn	0.652	0.5	-0	2.301
Mof_Cu	Cu	0.5	0	0.6364	-0.913
Mof_Mn	Mn	0.5	-7.99297e-33	0.652	2.301
Mof_Cu	Cu	0.5	-3.99648e-33	0.3636	-0.934
Mof_Mn	Mn	0.5	0	0.348	2.321
Mof_Cu	Cu	-2.12178e-33	0.3636	0.5	-0.934
Mof_Mn	Mn	-6.11827e-33	0.348	0.5	2.321
Mof_Cu	Cu	5.87118e-33	0.6364	0.5	-0.913
Mof_Mn	Mn	-2.12178e-33	0.652	0.5	2.301
Mof_Cl	Cl	0.5	0.5	-0	-0.789
Mof_Cl	Cl	1.8747e-33	0.5	0.5	-0.789
Mof_Cl	Cl	0.5	0	0.5	-0.789
Mof_Cu	Cu	0.5	0.2565	0.137	0.599
Mof_Cu	Cu	0.5	0.7435	0.137	0.619
Mof_Cu	Cu	0.5	0.2565	0.863	0.64
Mof_Cu	Cu	0.5	0.7435	0.863	0.66
Mof_Cu	Cu	0.137	0.5	0.2565	0.599
Mof_Cu	Cu	0.137	0.5	0.7435	0.619
Mof_Cu	Cu	0.863	0.5	0.2565	0.64
Mof_Cu	Cu	0.863	0.5	0.7435	0.66
Mof_Cu	Cu	0.2565	0.137	0.5	0.599
Mof_Cu	Cu	0.7435	0.137	0.5	0.619
Mof_Cu	Cu	0.2565	0.863	0.5	0.64
Mof_Cu	Cu	0.7435	0.863	0.5	0.66
Mof_Cu	Cu	0.2565	0.5	0.863	0.64
Mof_Cu	Cu	0.7435	0.5	0.863	0.66
Mof_Cu	Cu	0.2565	0.5	0.137	0.599
Mof_Cu	Cu	0.7435	0.5	0.137	0.619
Mof_Cu	Cu	0.5	0.137	0.7435	0.619
Mof_Cu	Cu	0.5	0.137	0.2565	0.599
Mof_Cu	Cu	0.5	0.863	0.7435	0.66
Mof_Cu	Cu	0.5	0.863	0.2565	0.64
Mof_Cu	Cu	0.137	0.2565	0.5	0.599
Mof_Cu	Cu	0.137	0.7435	0.5	0.619
Mof_Cu	Cu	0.863	0.2565	0.5	0.64
Mof_Cu	Cu	0.863	0.7435	0.5	0.66
Mof_C 	C 	0.3508	0.3508	0.1623	0.125
Mof_C 	C 	0.3191	0.3191	0.2276	-0.27
Mof_C 	C 	0.6492	0.6492	0.1623	0.138
Mof_C 	C 	0.6809	0.6809	0.2276	-0.25
Mof_C 	C 	0.6492	0.3508	0.8377	0.151
Mof_C 	C 	0.6809	0.3191	0.7724	-0.245
Mof_C 	C 	0.3508	0.6492	0.8377	0.151
Mof_C 	C 	0.3191	0.6809	0.7724	-0.245
Mof_C 	C 	0.1623	0.3508	0.3508	0.125
Mof_C 	C 	0.2276	0.3191	0.3191	-0.27
Mof_C 	C 	0.1623	0.6492	0.6492	0.138
Mof_C 	C 	0.2276	0.6809	0.6809	-0.25
Mof_C 	C 	0.8377	0.6492	0.3508	0.151
Mof_C 	C 	0.7724	0.6809	0.3191	-0.245
Mof_C 	C 	0.8377	0.3508	0.6492	0.151
Mof_C 	C 	0.7724	0.3191	0.6809	-0.245
Mof_C 	C 	0.3508	0.1623	0.3508	0.125
Mof_C 	C 	0.3191	0.2276	0.3191	-0.27
Mof_C 	C 	0.6492	0.1623	0.6492	0.138
Mof_C 	C 	0.6809	0.2276	0.6809	-0.25
Mof_C 	C 	0.3508	0.8377	0.6492	0.151
Mof_C 	C 	0.3191	0.7724	0.6809	-0.245
Mof_C 	C 	0.6492	0.8377	0.3508	0.151
Mof_C 	C 	0.6809	0.7724	0.3191	-0.245
Mof_C 	C 	0.3508	0.3508	0.8377	0.145
Mof_C 	C 	0.3191	0.3191	0.7724	-0.255
Mof_C 	C 	0.6492	0.6492	0.8377	0.158
Mof_C 	C 	0.6809	0.6809	0.7724	-0.235
Mof_C 	C 	0.3508	0.6492	0.1623	0.131
Mof_C 	C 	0.3191	0.6809	0.2276	-0.26
Mof_C 	C 	0.6492	0.3508	0.1623	0.131
Mof_C 	C 	0.6809	0.3191	0.2276	-0.26
Mof_C 	C 	0.3508	0.1623	0.6492	0.131
Mof_C 	C 	0.3191	0.2276	0.6809	-0.26
Mof_C 	C 	0.6492	0.1623	0.3508	0.131
Mof_C 	C 	0.6809	0.2276	0.3191	-0.26
Mof_C 	C 	0.6492	0.8377	0.6492	0.158
Mof_C 	C 	0.6809	0.7724	0.6809	-0.235
Mof_C 	C 	0.3508	0.8377	0.3508	0.145
Mof_C 	C 	0.3191	0.7724	0.3191	-0.255
Mof_C 	C 	0.1623	0.3508	0.6492	0.131
Mof_C 	C 	0.2276	0.3191	0.6809	-0.26
Mof_C 	C 	0.1623	0.6492	0.3508	0.131
Mof_C 	C 	0.2276	0.6809	0.3191	-0.26
Mof_C 	C 	0.8377	0.3508	0.3508	0.145
Mof_C 	C 	0.7724	0.3191	0.3191	-0.255
Mof_C 	C 	0.8377	0.6492	0.6492	0.158
Mof_C 	C 	0.7724	0.6809	0.6809	-0.235
Mof_C 	C 	0.3484	0.2577	0.2577	0.13
Mof_H 	H 	0.3885	0.23615	0.23615	-0.178
Mof_C 	C 	0.6516	0.7423	0.2577	0.135
Mof_H 	H 	0.6115	0.76385	0.23615	-0.16
Mof_C 	C 	0.6516	0.2577	0.7423	0.135
Mof_H 	H 	0.6115	0.23615	0.76385	-0.16
Mof_C 	C 	0.3484	0.7423	0.7423	0.136
Mof_H 	H 	0.3885	0.76385	0.76385	-0.15
Mof_C 	C 	0.2577	0.3484	0.2577	0.13
Mof_H 	H 	0.23615	0.3885	0.23615	-0.178
Mof_C 	C 	0.2577	0.6516	0.7423	0.135
Mof_H 	H 	0.23615	0.6115	0.76385	-0.16
Mof_C 	C 	0.7423	0.6516	0.2577	0.135
Mof_H 	H 	0.76385	0.6115	0.23615	-0.16
Mof_C 	C 	0.7423	0.3484	0.7423	0.136
Mof_H 	H 	0.76385	0.3885	0.76385	-0.15
Mof_C 	C 	0.2577	0.2577	0.3484	0.13
Mof_H 	H 	0.23615	0.23615	0.3885	-0.178
Mof_C 	C 	0.7423	0.2577	0.6516	0.135
Mof_H 	H 	0.76385	0.23615	0.6115	-0.16
Mof_C 	C 	0.2577	0.7423	0.6516	0.135
Mof_H 	H 	0.23615	0.76385	0.6115	-0.16
Mof_C 	C 	0.7423	0.7423	0.3484	0.136
Mof_H 	H 	0.76385	0.76385	0.3885	-0.15
Mof_C 	C 	0.2577	0.3484	0.7423	0.133
Mof_H 	H 	0.23615	0.3885	0.76385	-0.164
Mof_C 	C 	0.7423	0.6516	0.7423	0.137
Mof_H 	H 	0.76385	0.6115	0.76385	-0.146
Mof_C 	C 	0.2577	0.6516	0.2577	0.132
Mof_H 	H 	0.23615	0.6115	0.23615	-0.174
Mof_C 	C 	0.7423	0.3484	0.2577	0.133
Mof_H 	H 	0.76385	0.3885	0.23615	-0.164
Mof_C 	C 	0.3484	0.2577	0.7423	0.133
Mof_H 	H 	0.3885	0.23615	0.76385	-0.164
Mof_C 	C 	0.6516	0.2577	0.2577	0.132
Mof_H 	H 	0.6115	0.23615	0.23615	-0.174
Mof_C 	C 	0.6516	0.7423	0.7423	0.137
Mof_H 	H 	0.6115	0.76385	0.76385	-0.146
Mof_C 	C 	0.3484	0.7423	0.2577	0.133
Mof_H 	H 	0.3885	0.76385	0.23615	-0.164
Mof_C 	C 	0.2577	0.2577	0.6516	0.132
Mof_H 	H 	0.23615	0.23615	0.6115	-0.174
Mof_C 	C 	0.2577	0.7423	0.3484	0.133
Mof_H 	H 	0.23615	0.76385	0.3885	-0.164
Mof_C 	C 	0.7423	0.2577	0.3484	0.133
Mof_H 	H 	0.76385	0.23615	0.3885	-0.164
Mof_C 	C 	0.7423	0.7423	0.6516	0.137
Mof_H 	H 	0.76385	0.76385	0.6115	-0.146
_end
