data_functionalizedCrystal
_audit_creation_method	'EQeq! by Chris Wilmer'
_symmetry_space_group_name_H-M	'P1'
_symmetry_Int_Tables_number	1
_symmetry_cell_setting	triclinic
loop_
_symmetry_equiv_pos_as_xyz
  x,y,z
_cell_length_a	9.851
_cell_length_b	17.3273
_cell_length_c	17.7341
_cell_angle_alpha	98.9467
_cell_angle_beta	90
_cell_angle_gamma	106.515
loop_
_atom_site_label
_atom_site_type_symbol
_atom_site_fract_x
_atom_site_fract_y
_atom_site_fract_z
_atom_site_charge
Mof_Co	Co	0.67153	0.7013	0.0344	1.171
Mof_Co	Co	0.97023	0.2987	0.4656	1.2
Mof_Co	Co	0.32847	0.2987	0.9656	1.204
Mof_Co	Co	0.02977	0.7013	0.5344	1.175
Mof_Co	Co	0.5	0.5	-0	1.177
Mof_Co	Co	-9.92468e-18	0.5	0.5	1.178
Mof_H 	H 	0.3748	0.504	0.2296	0.056
Mof_H 	H 	0.2669	0.514	0.3445	0.051
Mof_H 	H 	0.3158	0.7504	0.3432	0.044
Mof_H 	H 	0.4283	0.7418	0.2299	0.046
Mof_H 	H 	0.0493	0.5984	0.1087	0.057
Mof_H 	H 	0.8013	0.4812	0.9215	0.055
Mof_H 	H 	0.0502	0.889	0.9267	0.05
Mof_H 	H 	0.8198	0.978	0.0855	0.045
Mof_H 	H 	0.8708	0.496	0.2704	0.065
Mof_H 	H 	0.7529	0.486	0.1555	0.055
Mof_H 	H 	0.5654	0.2496	0.1568	0.043
Mof_H 	H 	0.6865	0.2582	0.2701	0.05
Mof_H 	H 	0.4509	0.4016	0.3913	0.054
Mof_H 	H 	0.3201	0.5188	0.5785	0.054
Mof_H 	H 	0.1612	0.111	0.5733	0.024
Mof_H 	H 	0.8418	0.022	0.4145	0.008
Mof_H 	H 	0.6252	0.496	0.7704	0.059
Mof_H 	H 	0.7331	0.486	0.6555	0.06
Mof_H 	H 	0.6842	0.2496	0.6568	0.05
Mof_H 	H 	0.5717	0.2582	0.7701	0.05
Mof_H 	H 	0.9507	0.4016	0.8913	0.055
Mof_H 	H 	0.1987	0.5188	0.0785	0.055
Mof_H 	H 	0.9498	0.111	0.0733	0.051
Mof_H 	H 	0.1802	0.022	0.9145	0.037
Mof_H 	H 	0.1292	0.504	0.7296	0.049
Mof_H 	H 	0.2471	0.514	0.8445	0.055
Mof_H 	H 	0.4346	0.7504	0.8432	0.051
Mof_H 	H 	0.3135	0.7418	0.7299	0.046
Mof_H 	H 	0.5491	0.5984	0.6087	0.06
Mof_H 	H 	0.6799	0.4812	0.4215	0.058
Mof_H 	H 	0.8388	0.889	0.4267	0.078
Mof_H 	H 	0.1582	0.978	0.5855	0.074
Mof_C 	C 	0.4145	0.6224	0.2183	-0.076
Mof_C 	C 	0.3642	0.5538	0.2526	-0.02
Mof_C 	C 	0.2982	0.5598	0.3211	-0.014
Mof_C 	C 	0.2781	0.6322	0.3551	-0.078
Mof_C 	C 	0.3279	0.7008	0.3205	-0.018
Mof_C 	C 	0.3953	0.6956	0.2527	-0.02
Mof_C 	C 	0.4878	0.6168	0.1449	0.367
Mof_C 	C 	0.199	0.6366	0.4272	0.365
Mof_C 	C 	0.0299	0.559	0.0649	-0.062
Mof_C 	C 	0.9109	0.549	0.0178	-0.051
Mof_C 	C 	0.8813	0.4888	0.9528	0.01
Mof_C 	C 	0.8179	0.6026	0.0358	0.257
Mof_C 	C 	0.0299	0.9334	0.9561	-0.041
Mof_C 	C 	0.9221	0.9212	0.0074	-0.042
Mof_C 	C 	0.8919	0.9866	0.0512	-0.042
Mof_C 	C 	0.8381	0.836	0.0145	0.236
Mof_C 	C 	0.7921	0.3776	0.2817	-0.068
Mof_C 	C 	0.8104	0.4462	0.2474	-0.022
Mof_C 	C 	0.7384	0.4402	0.1789	-0.006
Mof_C 	C 	0.6459	0.3678	0.1449	-0.08
Mof_C 	C 	0.6271	0.2992	0.1795	-0.012
Mof_C 	C 	0.6997	0.3044	0.2473	-0.023
Mof_C 	C 	0.871	0.3832	0.3551	0.366
Mof_C 	C 	0.5624	0.3634	0.0728	0.37
Mof_C 	C 	0.4709	0.441	0.4351	-0.014
Mof_C 	C 	0.3619	0.451	0.4822	-0.065
Mof_C 	C 	0.3925	0.5112	0.5472	-0.013
Mof_C 	C 	0.2153	0.3974	0.4642	0.309
Mof_C 	C 	0.0965	0.0666	0.5439	0.042
Mof_C 	C 	0.0009	0.0788	0.4926	-0.141
Mof_C 	C 	0.9053	0.0134	0.4488	0.079
Mof_C 	C 	0.0021	0.164	0.4855	0.278
Mof_C 	C 	0.5855	0.3776	0.7817	-0.074
Mof_C 	C 	0.6358	0.4462	0.7474	-0.015
Mof_C 	C 	0.7018	0.4402	0.6789	-0.013
Mof_C 	C 	0.7219	0.3678	0.6449	-0.068
Mof_C 	C 	0.6721	0.2992	0.6795	-0.017
Mof_C 	C 	0.6047	0.3044	0.7473	-0.015
Mof_C 	C 	0.5122	0.3832	0.8551	0.368
Mof_C 	C 	0.801	0.3634	0.5728	0.366
Mof_C 	C 	0.9701	0.441	0.9351	0.028
Mof_C 	C 	0.0891	0.451	0.9822	-0.074
Mof_C 	C 	0.1187	0.5112	0.0472	-0.042
Mof_C 	C 	0.1821	0.3974	0.9642	0.352
Mof_C 	C 	0.9701	0.0666	0.0439	-0.02
Mof_C 	C 	0.0779	0.0788	0.9926	-0.07
Mof_C 	C 	0.1081	0.0134	0.9488	-0.015
Mof_C 	C 	0.1619	0.164	0.9855	0.343
Mof_C 	C 	0.2079	0.6224	0.7183	-0.083
Mof_C 	C 	0.1896	0.5538	0.7526	-0.013
Mof_C 	C 	0.2616	0.5598	0.8211	-0.022
Mof_C 	C 	0.3541	0.6322	0.8551	-0.065
Mof_C 	C 	0.3729	0.7008	0.8205	-0.024
Mof_C 	C 	0.3003	0.6956	0.7527	-0.012
Mof_C 	C 	0.129	0.6168	0.6449	0.369
Mof_C 	C 	0.4376	0.6366	0.9272	0.359
Mof_C 	C 	0.5291	0.559	0.5649	-0.024
Mof_C 	C 	0.6381	0.549	0.5178	-0.054
Mof_C 	C 	0.6075	0.4888	0.4528	-0.023
Mof_C 	C 	0.7847	0.6026	0.5358	0.301
Mof_C 	C 	0.9035	0.9334	0.4561	-0.105
Mof_C 	C 	0.9991	0.9212	0.5074	0.033
Mof_C 	C 	0.0947	0.9866	0.5512	-0.136
Mof_C 	C 	0.9979	0.836	0.5145	0.308
Mof_O 	O 	0.5492	0.6836	0.1225	-0.444
Mof_O 	O 	0.48451	0.54702	0.1114	-0.431
Mof_O 	O 	0.1622	0.7	0.4481	-0.435
Mof_O 	O 	0.174	0.5756	0.4608	-0.44
Mof_O 	O 	0.8491	0.6618	0.0885	-0.328
Mof_O 	O 	0.70553	0.58986	0.9919	-0.435
Mof_O 	O 	0.84818	0.77696	0.9672	-0.273
Mof_O 	O 	0.75377	0.82514	0.0683	-0.374
Mof_O 	O 	0.8656	0.3164	0.3775	-0.43
Mof_O 	O 	0.93749	0.45298	0.3886	-0.409
Mof_O 	O 	0.4622	0.3	0.0519	-0.441
Mof_O 	O 	0.5984	0.4244	0.0392	-0.448
Mof_O 	O 	0.1873	0.3382	0.4115	-0.357
Mof_O 	O 	0.11567	0.41014	0.5081	-0.498
Mof_O 	O 	0.07122	0.22304	0.5328	-0.339
Mof_O 	O 	0.92863	0.17486	0.4317	-0.356
Mof_O 	O 	0.4508	0.3164	0.8775	-0.429
Mof_O 	O 	0.51549	0.45298	0.8886	-0.416
Mof_O 	O 	0.8378	0.3	0.5519	-0.416
Mof_O 	O 	0.826	0.4244	0.5392	-0.423
Mof_O 	O 	0.1509	0.3382	0.9115	-0.359
Mof_O 	O 	0.29447	0.41014	0.0081	-0.525
Mof_O 	O 	0.15182	0.22304	0.0328	-0.382
Mof_O 	O 	0.24623	0.17486	0.9317	-0.389
Mof_O 	O 	0.1344	0.6836	0.6225	-0.443
Mof_O 	O 	0.06251	0.54702	0.6114	-0.438
Mof_O 	O 	0.5378	0.7	0.9481	-0.408
Mof_O 	O 	0.4016	0.5756	0.9608	-0.415
Mof_O 	O 	0.8127	0.6618	0.5885	-0.328
Mof_O 	O 	0.88433	0.58986	0.4919	-0.465
Mof_O 	O 	0.92878	0.77696	0.4672	-0.322
Mof_O 	O 	0.07137	0.82514	0.5683	-0.409
Mof_H 	H 	0.476	0.9634	0.3025	0.088
Mof_H 	H 	0.4166	0.8754	0.2907	0.089
Mof_H 	H 	0.6543	0.9088	0.2764	0.142
Mof_H 	H 	0.6075	0.8638	0.3464	0.145
Mof_H 	H 	0.6718	0.959	0.3591	0.14
Mof_H 	H 	0.3098	0.9292	0.3892	0.135
Mof_H 	H 	0.4563	0.97	0.4338	0.133
Mof_H 	H 	0.3921	0.875	0.4211	0.141
Mof_C 	C 	0.6132	0.9124	0.325	-0.367
Mof_C 	C 	0.4017	0.9234	0.399	-0.362
Mof_N 	N 	0.4693	0.9186	0.3233	-0.135
Mof_H 	H 	0.5126	0.0366	0.1975	0.089
Mof_H 	H 	0.5412	0.1246	0.2093	0.092
Mof_H 	H 	0.7455	0.0912	0.2236	0.142
Mof_H 	H 	0.7437	0.1362	0.1536	0.144
Mof_H 	H 	0.7128	0.041	0.1409	0.134
Mof_H 	H 	0.3806	0.0708	0.1108	0.125
Mof_H 	H 	0.4863	0.03	0.0662	0.116
Mof_H 	H 	0.5171	0.125	0.0789	0.13
Mof_C 	C 	0.7008	0.0876	0.175	-0.362
Mof_C 	C 	0.4783	0.0766	0.101	-0.341
Mof_N 	N 	0.5507	0.0814	0.1767	-0.14
Mof_H 	H 	0.524	0.0366	0.6975	0.093
Mof_H 	H 	0.5834	0.1246	0.7093	0.097
Mof_H 	H 	0.3457	0.0912	0.7236	0.137
Mof_H 	H 	0.3925	0.1362	0.6536	0.141
Mof_H 	H 	0.3282	0.041	0.6409	0.131
Mof_H 	H 	0.6902	0.0708	0.6108	0.15
Mof_H 	H 	0.5437	0.03	0.5662	0.137
Mof_H 	H 	0.6079	0.125	0.5789	0.148
Mof_C 	C 	0.3868	0.0876	0.675	-0.356
Mof_C 	C 	0.5983	0.0766	0.601	-0.373
Mof_N 	N 	0.5307	0.0814	0.6767	-0.137
Mof_H 	H 	0.4874	0.9634	0.8025	0.094
Mof_H 	H 	0.4588	0.8754	0.7907	0.094
Mof_H 	H 	0.2545	0.9088	0.7764	0.138
Mof_H 	H 	0.2563	0.8638	0.8464	0.142
Mof_H 	H 	0.2872	0.959	0.8591	0.138
Mof_H 	H 	0.6194	0.9292	0.8892	0.163
Mof_H 	H 	0.5137	0.97	0.9338	0.157
Mof_H 	H 	0.4829	0.875	0.9211	0.161
Mof_C 	C 	0.2992	0.9124	0.825	-0.362
Mof_C 	C 	0.5217	0.9234	0.899	-0.398
Mof_N 	N 	0.4493	0.9186	0.8233	-0.132
_end
