data_functionalizedCrystal
_audit_creation_method	'EQeq! by Chris Wilmer'
_symmetry_space_group_name_H-M	'P1'
_symmetry_Int_Tables_number	1
_symmetry_cell_setting	triclinic
loop_
_symmetry_equiv_pos_as_xyz
  x,y,z
_cell_length_a	21.9717
_cell_length_b	16.6692
_cell_length_c	25.6289
_cell_angle_alpha	90
_cell_angle_beta	115.344
_cell_angle_gamma	90
loop_
_atom_site_label
_atom_site_type_symbol
_atom_site_fract_x
_atom_site_fract_y
_atom_site_fract_z
_atom_site_charge
Mof_Ag	Ag	0.27371	0.20896	0.86808	0.523
Mof_Ag	Ag	0.29539	0.00244	0.36756	0.534
Mof_C 	C 	0.9221	0.3997	0.392	0.062
Mof_H 	H 	0.9017	0.4034	0.3519	-0.026
Mof_C 	C 	0.1535	0.22	0.5008	0.098
Mof_C 	C 	0.1276	0.0614	0.9109	-0.154
Mof_H 	H 	0.0849	0.0401	0.8896	0.085
Mof_C 	C 	0.128	0.0072	0.0019	0.094
Mof_C 	C 	0.9817	0.387	0.509	-0.136
Mof_H 	H 	0.0009	0.3836	0.5491	0.074
Mof_C 	C 	0.903	0.8154	0.8889	0.082
Mof_H 	H 	0.8853	0.8083	0.8491	-0.01
Mof_C 	C 	0.0748	0.3015	0.5063	0.094
Mof_C 	C 	0.2434	0.1334	0.4965	-0.138
Mof_H 	H 	0.2637	0.1323	0.5367	0.087
Mof_C 	C 	0.2711	0.0932	0.4648	0.089
Mof_H 	H 	0.3113	0.0658	0.4848	-0.014
Mof_C 	C 	0.2228	0.085	0.999	-0.156
Mof_H 	H 	0.246	0.0799	0.0388	0.078
Mof_C 	C 	0.1596	0.0517	0.9695	0.071
Mof_C 	C 	0.1274	0.9759	0.0875	0.099
Mof_C 	C 	0.1583	0.9856	0.1512	0.061
Mof_C 	C 	0.9606	0.8613	0.9153	-0.131
Mof_H 	H 	0.9804	0.8844	0.8934	0.083
Mof_C 	C 	0.1839	0.1757	0.4663	0.07
Mof_C 	C 	0.19	0.2424	0.6514	0.059
Mof_C 	C 	0.2507	0.1259	0.9678	0.085
Mof_H 	H 	0.2928	0.149	0.9881	-0.025
Mof_C 	C 	0.9821	0.358	0.4183	-0.134
Mof_H 	H 	0.0017	0.3355	0.396	0.077
Mof_C 	C 	0.9572	0.8338	0.0051	-0.13
Mof_H 	H 	0.975	0.8371	0.0452	0.083
Mof_C 	C 	0.252	0.2073	0.6805	-0.14
Mof_H 	H 	0.2759	0.1896	0.6602	0.082
Mof_C 	C 	0.0495	0.9228	0.0051	0.104
Mof_C 	C 	0.2791	0.1982	0.7399	0.08
Mof_H 	H 	0.3211	0.1743	0.7589	-0.015
Mof_C 	C 	0.1606	0.1039	0.8843	0.08
Mof_H 	H 	0.1382	0.1114	0.8446	-0.022
Mof_C 	C 	0.0126	0.3499	0.477	0.053
Mof_C 	C 	0.1558	0.2682	0.6832	-0.149
Mof_H 	H 	0.1136	0.2921	0.6654	0.075
Mof_C 	C 	0.1583	0.2516	0.5874	0.095
Mof_C 	C 	0.899	0.7907	0.9743	0.088
Mof_H 	H 	0.8777	0.7669	0.9949	-0.014
Mof_C 	C 	0.1871	0.2566	0.7424	0.082
Mof_H 	H 	0.1643	0.2741	0.7637	-0.028
Mof_C 	C 	0.1552	0.1752	0.407	-0.144
Mof_H 	H 	0.116	0.204	0.386	0.082
Mof_C 	C 	0.9222	0.4286	0.4793	0.078
Mof_H 	H 	0.9022	0.4534	0.5005	-0.013
Mof_C 	C 	0.2412	0.0439	0.2368	0.066
Mof_H 	H 	0.2767	0.0796	0.2542	-0.015
Mof_C 	C 	0.2118	0.0377	0.1774	-0.134
Mof_H 	H 	0.2277	0.068	0.1554	0.069
Mof_C 	C 	0.1333	0.9449	0.1846	-0.143
Mof_H 	H 	0.0951	0.9128	0.168	0.084
Mof_C 	C 	0.9888	0.8727	0.9747	0.065
Mof_C 	C 	0.1674	0.9538	0.2442	0.088
Mof_H 	H 	0.1516	0.9249	0.267	-0.022
Mof_C 	C 	0.1859	0.1312	0.3795	0.088
Mof_H 	H 	0.1652	0.1292	0.3394	-0.009
Mof_N 	N 	0.222	0.1346	0.9116	-0.219
Mof_N 	N 	0.8714	0.7808	0.9175	-0.193
Mof_N 	N 	0.2206	0.0002	0.2709	-0.199
Mof_N 	N 	0.074	0.9607	0.9721	-0.136
Mof_N 	N 	0.0747	0.9274	0.0626	-0.138
Mof_N 	N 	0.1558	0.0175	0.0587	-0.141
Mof_N 	N 	0.2438	0.091	0.4072	-0.19
Mof_N 	N 	0.892	0.4352	0.422	-0.208
Mof_N 	N 	0.2464	0.223	0.7711	-0.2
Mof_N 	N 	0.0971	0.2608	0.4727	-0.141
Mof_N 	N 	0.1036	0.2993	0.564	-0.149
Mof_N 	N 	0.1861	0.2126	0.5584	-0.138
Mof_Ag	Ag	0.77371	0.70896	0.86808	0.524
Mof_Ag	Ag	0.79539	0.50244	0.36756	0.535
Mof_C 	C 	0.4221	0.8997	0.392	0.063
Mof_H 	H 	0.4017	0.9034	0.3519	-0.025
Mof_C 	C 	0.6535	0.72	0.5008	0.099
Mof_C 	C 	0.6276	0.5614	0.9109	-0.153
Mof_H 	H 	0.5849	0.5401	0.8896	0.085
Mof_C 	C 	0.628	0.5072	0.0019	0.095
Mof_C 	C 	0.4817	0.887	0.509	-0.136
Mof_H 	H 	0.5009	0.8836	0.5491	0.074
Mof_C 	C 	0.403	0.3154	0.8889	0.083
Mof_H 	H 	0.3853	0.3083	0.8491	-0.01
Mof_C 	C 	0.5748	0.8015	0.5063	0.094
Mof_C 	C 	0.7434	0.6334	0.4965	-0.138
Mof_H 	H 	0.7637	0.6323	0.5367	0.087
Mof_C 	C 	0.7711	0.5932	0.4648	0.089
Mof_H 	H 	0.8113	0.5658	0.4848	-0.014
Mof_C 	C 	0.7228	0.585	0.999	-0.158
Mof_H 	H 	0.746	0.5799	0.0388	0.08
Mof_C 	C 	0.6596	0.5517	0.9695	0.07
Mof_C 	C 	0.6274	0.4759	0.0875	0.099
Mof_C 	C 	0.6583	0.4856	0.1512	0.061
Mof_C 	C 	0.4606	0.3613	0.9153	-0.133
Mof_H 	H 	0.4804	0.3844	0.8934	0.084
Mof_C 	C 	0.6839	0.6757	0.4663	0.07
Mof_C 	C 	0.69	0.7424	0.6514	0.059
Mof_C 	C 	0.7507	0.6259	0.9678	0.085
Mof_H 	H 	0.7928	0.649	0.9881	-0.026
Mof_C 	C 	0.4821	0.858	0.4183	-0.134
Mof_H 	H 	0.5017	0.8355	0.396	0.077
Mof_C 	C 	0.4572	0.3338	0.0051	-0.133
Mof_H 	H 	0.475	0.3371	0.0452	0.084
Mof_C 	C 	0.752	0.7073	0.6805	-0.14
Mof_H 	H 	0.7759	0.6896	0.6602	0.082
Mof_C 	C 	0.5495	0.4228	0.0051	0.103
Mof_C 	C 	0.7791	0.6982	0.7399	0.08
Mof_H 	H 	0.8211	0.6743	0.7589	-0.016
Mof_C 	C 	0.6606	0.6039	0.8843	0.08
Mof_H 	H 	0.6382	0.6114	0.8446	-0.022
Mof_C 	C 	0.5126	0.8499	0.477	0.054
Mof_C 	C 	0.6558	0.7682	0.6832	-0.149
Mof_H 	H 	0.6136	0.7921	0.6654	0.075
Mof_C 	C 	0.6583	0.7516	0.5874	0.095
Mof_C 	C 	0.399	0.2907	0.9743	0.09
Mof_H 	H 	0.3777	0.2669	0.9949	-0.014
Mof_C 	C 	0.6871	0.7566	0.7424	0.082
Mof_H 	H 	0.6643	0.7741	0.7637	-0.028
Mof_C 	C 	0.6552	0.6752	0.407	-0.144
Mof_H 	H 	0.616	0.704	0.386	0.082
Mof_C 	C 	0.4222	0.9286	0.4793	0.078
Mof_H 	H 	0.4022	0.9534	0.5005	-0.013
Mof_C 	C 	0.7412	0.5439	0.2368	0.066
Mof_H 	H 	0.7767	0.5796	0.2542	-0.015
Mof_C 	C 	0.7118	0.5377	0.1774	-0.134
Mof_H 	H 	0.7277	0.568	0.1554	0.069
Mof_C 	C 	0.6333	0.4449	0.1846	-0.143
Mof_H 	H 	0.5951	0.4128	0.168	0.084
Mof_C 	C 	0.4888	0.3727	0.9747	0.067
Mof_C 	C 	0.6674	0.4538	0.2442	0.088
Mof_H 	H 	0.6516	0.4249	0.267	-0.022
Mof_C 	C 	0.6859	0.6312	0.3795	0.088
Mof_H 	H 	0.6652	0.6292	0.3394	-0.009
Mof_N 	N 	0.722	0.6346	0.9116	-0.219
Mof_N 	N 	0.3714	0.2808	0.9175	-0.194
Mof_N 	N 	0.7206	0.5002	0.2709	-0.199
Mof_N 	N 	0.574	0.4607	0.9721	-0.137
Mof_N 	N 	0.5747	0.4274	0.0626	-0.138
Mof_N 	N 	0.6558	0.5175	0.0587	-0.141
Mof_N 	N 	0.7438	0.591	0.4072	-0.19
Mof_N 	N 	0.392	0.9352	0.422	-0.208
Mof_N 	N 	0.7464	0.723	0.7711	-0.2
Mof_N 	N 	0.5971	0.7608	0.4727	-0.141
Mof_N 	N 	0.6036	0.7993	0.564	-0.149
Mof_N 	N 	0.6861	0.7126	0.5584	-0.138
Mof_Ag	Ag	0.72629	0.20896	0.63192	0.524
Mof_Ag	Ag	0.70461	0.00244	0.13244	0.535
Mof_C 	C 	0.0779	0.3997	0.108	0.064
Mof_H 	H 	0.0983	0.4034	0.1481	-0.025
Mof_C 	C 	0.8465	0.22	0.9992	0.098
Mof_C 	C 	0.8724	0.0614	0.5891	-0.153
Mof_H 	H 	0.9151	0.0401	0.6104	0.085
Mof_C 	C 	0.872	0.0072	0.4981	0.095
Mof_C 	C 	0.0183	0.387	0.991	-0.133
Mof_H 	H 	0.9991	0.3836	0.9509	0.072
Mof_C 	C 	0.097	0.8154	0.6111	0.083
Mof_H 	H 	0.1147	0.8083	0.6509	-0.01
Mof_C 	C 	0.9252	0.3015	0.9937	0.092
Mof_C 	C 	0.7566	0.1334	0.0035	-0.138
Mof_H 	H 	0.7363	0.1323	0.9633	0.087
Mof_C 	C 	0.7289	0.0932	0.0352	0.089
Mof_H 	H 	0.6887	0.0658	0.0152	-0.014
Mof_C 	C 	0.7772	0.085	0.501	-0.156
Mof_H 	H 	0.754	0.0799	0.4612	0.079
Mof_C 	C 	0.8404	0.0517	0.5305	0.07
Mof_C 	C 	0.8726	0.9759	0.4125	0.099
Mof_C 	C 	0.8417	0.9856	0.3488	0.061
Mof_C 	C 	0.0394	0.8613	0.5847	-0.132
Mof_H 	H 	0.0196	0.8844	0.6066	0.084
Mof_C 	C 	0.8161	0.1757	0.0337	0.071
Mof_C 	C 	0.81	0.2424	0.8486	0.059
Mof_C 	C 	0.7493	0.1259	0.5322	0.085
Mof_H 	H 	0.7072	0.149	0.5119	-0.025
Mof_C 	C 	0.0179	0.358	0.0817	-0.137
Mof_H 	H 	0.9983	0.3355	0.104	0.079
Mof_C 	C 	0.0428	0.8338	0.4949	-0.133
Mof_H 	H 	0.025	0.8371	0.4548	0.084
Mof_C 	C 	0.748	0.2073	0.8195	-0.14
Mof_H 	H 	0.7241	0.1896	0.8398	0.082
Mof_C 	C 	0.9505	0.9228	0.4949	0.104
Mof_C 	C 	0.7209	0.1982	0.7601	0.08
Mof_H 	H 	0.6789	0.1743	0.7411	-0.015
Mof_C 	C 	0.8394	0.1039	0.6157	0.08
Mof_H 	H 	0.8618	0.1114	0.6554	-0.022
Mof_C 	C 	0.9874	0.3499	0.023	0.055
Mof_C 	C 	0.8442	0.2682	0.8168	-0.149
Mof_H 	H 	0.8864	0.2921	0.8346	0.075
Mof_C 	C 	0.8417	0.2516	0.9126	0.095
Mof_C 	C 	0.101	0.7907	0.5257	0.09
Mof_H 	H 	0.1223	0.7669	0.5051	-0.014
Mof_C 	C 	0.8129	0.2566	0.7576	0.082
Mof_H 	H 	0.8357	0.2741	0.7363	-0.028
Mof_C 	C 	0.8448	0.1752	0.093	-0.144
Mof_H 	H 	0.884	0.204	0.114	0.082
Mof_C 	C 	0.0778	0.4286	0.0207	0.075
Mof_H 	H 	0.0978	0.4534	0.9995	-0.011
Mof_C 	C 	0.7588	0.0439	0.2632	0.066
Mof_H 	H 	0.7233	0.0796	0.2458	-0.015
Mof_C 	C 	0.7882	0.0377	0.3226	-0.134
Mof_H 	H 	0.7723	0.068	0.3446	0.069
Mof_C 	C 	0.8667	0.9449	0.3154	-0.143
Mof_H 	H 	0.9049	0.9128	0.332	0.084
Mof_C 	C 	0.0112	0.8727	0.5253	0.067
Mof_C 	C 	0.8326	0.9538	0.2558	0.089
Mof_H 	H 	0.8484	0.9249	0.233	-0.022
Mof_C 	C 	0.8141	0.1312	0.1205	0.088
Mof_H 	H 	0.8348	0.1292	0.1606	-0.009
Mof_N 	N 	0.778	0.1346	0.5884	-0.219
Mof_N 	N 	0.1286	0.7808	0.5825	-0.194
Mof_N 	N 	0.7794	0.0002	0.2291	-0.199
Mof_N 	N 	0.926	0.9607	0.5279	-0.137
Mof_N 	N 	0.9253	0.9274	0.4374	-0.138
Mof_N 	N 	0.8442	0.0175	0.4413	-0.141
Mof_N 	N 	0.7562	0.091	0.0928	-0.19
Mof_N 	N 	0.108	0.4352	0.078	-0.208
Mof_N 	N 	0.7536	0.223	0.7289	-0.2
Mof_N 	N 	0.9029	0.2608	0.0273	-0.14
Mof_N 	N 	0.8964	0.2993	0.936	-0.148
Mof_N 	N 	0.8139	0.2126	0.9416	-0.138
Mof_Ag	Ag	0.22629	0.70896	0.63192	0.524
Mof_Ag	Ag	0.20461	0.50244	0.13244	0.535
Mof_C 	C 	0.5779	0.8997	0.108	0.064
Mof_H 	H 	0.5983	0.9034	0.1481	-0.025
Mof_C 	C 	0.3465	0.72	0.9992	0.099
Mof_C 	C 	0.3724	0.5614	0.5891	-0.153
Mof_H 	H 	0.4151	0.5401	0.6104	0.085
Mof_C 	C 	0.372	0.5072	0.4981	0.095
Mof_C 	C 	0.5183	0.887	0.991	-0.137
Mof_H 	H 	0.4991	0.8836	0.9509	0.074
Mof_C 	C 	0.597	0.3154	0.6111	0.083
Mof_H 	H 	0.6147	0.3083	0.6509	-0.01
Mof_C 	C 	0.4252	0.8015	0.9937	0.093
Mof_C 	C 	0.2566	0.6334	0.0035	-0.14
Mof_H 	H 	0.2363	0.6323	0.9633	0.088
Mof_C 	C 	0.2289	0.5932	0.0352	0.09
Mof_H 	H 	0.1887	0.5658	0.0152	-0.014
Mof_C 	C 	0.2772	0.585	0.501	-0.156
Mof_H 	H 	0.254	0.5799	0.4612	0.079
Mof_C 	C 	0.3404	0.5517	0.5305	0.07
Mof_C 	C 	0.3726	0.4759	0.4125	0.099
Mof_C 	C 	0.3417	0.4856	0.3488	0.061
Mof_C 	C 	0.5394	0.3613	0.5847	-0.132
Mof_H 	H 	0.5196	0.3844	0.6066	0.084
Mof_C 	C 	0.3161	0.6757	0.0337	0.071
Mof_C 	C 	0.31	0.7424	0.8486	0.059
Mof_C 	C 	0.2493	0.6259	0.5322	0.085
Mof_H 	H 	0.2072	0.649	0.5119	-0.025
Mof_C 	C 	0.5179	0.858	0.0817	-0.135
Mof_H 	H 	0.4983	0.8355	0.104	0.078
Mof_C 	C 	0.5428	0.3338	0.4949	-0.133
Mof_H 	H 	0.525	0.3371	0.4548	0.084
Mof_C 	C 	0.248	0.7073	0.8195	-0.14
Mof_H 	H 	0.2241	0.6896	0.8398	0.082
Mof_C 	C 	0.4505	0.4228	0.4949	0.104
Mof_C 	C 	0.2209	0.6982	0.7601	0.08
Mof_H 	H 	0.1789	0.6743	0.7411	-0.015
Mof_C 	C 	0.3394	0.6039	0.6157	0.08
Mof_H 	H 	0.3618	0.6114	0.6554	-0.022
Mof_C 	C 	0.4874	0.8499	0.023	0.054
Mof_C 	C 	0.3442	0.7682	0.8168	-0.149
Mof_H 	H 	0.3864	0.7921	0.8346	0.075
Mof_C 	C 	0.3417	0.7516	0.9126	0.095
Mof_C 	C 	0.601	0.2907	0.5257	0.09
Mof_H 	H 	0.6223	0.2669	0.5051	-0.014
Mof_C 	C 	0.3129	0.7566	0.7576	0.082
Mof_H 	H 	0.3357	0.7741	0.7363	-0.028
Mof_C 	C 	0.3448	0.6752	0.093	-0.144
Mof_H 	H 	0.384	0.704	0.114	0.082
Mof_C 	C 	0.5778	0.9286	0.0207	0.079
Mof_H 	H 	0.5978	0.9534	0.9995	-0.013
Mof_C 	C 	0.2588	0.5439	0.2632	0.066
Mof_H 	H 	0.2233	0.5796	0.2458	-0.015
Mof_C 	C 	0.2882	0.5377	0.3226	-0.134
Mof_H 	H 	0.2723	0.568	0.3446	0.069
Mof_C 	C 	0.3667	0.4449	0.3154	-0.143
Mof_H 	H 	0.4049	0.4128	0.332	0.084
Mof_C 	C 	0.5112	0.3727	0.5253	0.067
Mof_C 	C 	0.3326	0.4538	0.2558	0.088
Mof_H 	H 	0.3484	0.4249	0.233	-0.022
Mof_C 	C 	0.3141	0.6312	0.1205	0.088
Mof_H 	H 	0.3348	0.6292	0.1606	-0.009
Mof_N 	N 	0.278	0.6346	0.5884	-0.219
Mof_N 	N 	0.6286	0.2808	0.5825	-0.194
Mof_N 	N 	0.2794	0.5002	0.2291	-0.199
Mof_N 	N 	0.426	0.4607	0.5279	-0.137
Mof_N 	N 	0.4253	0.4274	0.4374	-0.138
Mof_N 	N 	0.3442	0.5175	0.4413	-0.141
Mof_N 	N 	0.2562	0.591	0.0928	-0.19
Mof_N 	N 	0.608	0.9352	0.078	-0.208
Mof_N 	N 	0.2536	0.723	0.7289	-0.2
Mof_N 	N 	0.4029	0.7608	0.0273	-0.141
Mof_N 	N 	0.3964	0.7993	0.936	-0.149
Mof_N 	N 	0.3139	0.7126	0.9416	-0.138
Mof_Ag	Ag	0.72629	0.79104	0.13192	0.524
Mof_Ag	Ag	0.70461	0.99756	0.63244	0.535
Mof_C 	C 	0.0779	0.6003	0.608	0.063
Mof_H 	H 	0.0983	0.5966	0.6481	-0.025
Mof_C 	C 	0.8465	0.78	0.4992	0.099
Mof_C 	C 	0.8724	0.9386	0.0891	-0.153
Mof_H 	H 	0.9151	0.9599	0.1104	0.085
Mof_C 	C 	0.872	0.9928	0.9981	0.094
Mof_C 	C 	0.0183	0.613	0.491	-0.136
Mof_H 	H 	0.9991	0.6164	0.4509	0.074
Mof_C 	C 	0.097	0.1846	0.1111	0.082
Mof_H 	H 	0.1147	0.1917	0.1509	-0.01
Mof_C 	C 	0.9252	0.6985	0.4937	0.094
Mof_C 	C 	0.7566	0.8666	0.5035	-0.138
Mof_H 	H 	0.7363	0.8677	0.4633	0.087
Mof_C 	C 	0.7289	0.9068	0.5352	0.089
Mof_H 	H 	0.6887	0.9342	0.5152	-0.014
Mof_C 	C 	0.7772	0.915	0.001	-0.156
Mof_H 	H 	0.754	0.9201	0.9612	0.078
Mof_C 	C 	0.8404	0.9483	0.0305	0.071
Mof_C 	C 	0.8726	0.0241	0.9125	0.099
Mof_C 	C 	0.8417	0.0144	0.8488	0.061
Mof_C 	C 	0.0394	0.1387	0.0847	-0.131
Mof_H 	H 	0.0196	0.1156	0.1066	0.083
Mof_C 	C 	0.8161	0.8243	0.5337	0.07
Mof_C 	C 	0.81	0.7576	0.3486	0.059
Mof_C 	C 	0.7493	0.8741	0.0322	0.085
Mof_H 	H 	0.7072	0.851	0.0119	-0.025
Mof_C 	C 	0.0179	0.642	0.5817	-0.134
Mof_H 	H 	0.9983	0.6645	0.604	0.077
Mof_C 	C 	0.0428	0.1662	0.9949	-0.13
Mof_H 	H 	0.025	0.1629	0.9548	0.083
Mof_C 	C 	0.748	0.7927	0.3195	-0.14
Mof_H 	H 	0.7241	0.8104	0.3398	0.082
Mof_C 	C 	0.9505	0.0772	0.9949	0.104
Mof_C 	C 	0.7209	0.8018	0.2601	0.08
Mof_H 	H 	0.6789	0.8257	0.2411	-0.015
Mof_C 	C 	0.8394	0.8961	0.1157	0.08
Mof_H 	H 	0.8618	0.8886	0.1554	-0.022
Mof_C 	C 	0.9874	0.6501	0.523	0.053
Mof_C 	C 	0.8442	0.7318	0.3168	-0.149
Mof_H 	H 	0.8864	0.7079	0.3346	0.075
Mof_C 	C 	0.8417	0.7484	0.4126	0.095
Mof_C 	C 	0.101	0.2093	0.0257	0.088
Mof_H 	H 	0.1223	0.2331	0.0051	-0.014
Mof_C 	C 	0.8129	0.7434	0.2576	0.082
Mof_H 	H 	0.8357	0.7259	0.2363	-0.028
Mof_C 	C 	0.8448	0.8248	0.593	-0.144
Mof_H 	H 	0.884	0.796	0.614	0.082
Mof_C 	C 	0.0778	0.5714	0.5207	0.078
Mof_H 	H 	0.0978	0.5466	0.4995	-0.013
Mof_C 	C 	0.7588	0.9561	0.7632	0.066
Mof_H 	H 	0.7233	0.9204	0.7458	-0.015
Mof_C 	C 	0.7882	0.9623	0.8226	-0.134
Mof_H 	H 	0.7723	0.932	0.8446	0.069
Mof_C 	C 	0.8667	0.0551	0.8154	-0.143
Mof_H 	H 	0.9049	0.0872	0.832	0.084
Mof_C 	C 	0.0112	0.1273	0.0253	0.065
Mof_C 	C 	0.8326	0.0462	0.7558	0.088
Mof_H 	H 	0.8484	0.0751	0.733	-0.022
Mof_C 	C 	0.8141	0.8688	0.6205	0.088
Mof_H 	H 	0.8348	0.8708	0.6606	-0.009
Mof_N 	N 	0.778	0.8654	0.0884	-0.219
Mof_N 	N 	0.1286	0.2192	0.0825	-0.193
Mof_N 	N 	0.7794	0.9998	0.7291	-0.199
Mof_N 	N 	0.926	0.0393	0.0279	-0.136
Mof_N 	N 	0.9253	0.0726	0.9374	-0.138
Mof_N 	N 	0.8442	0.9825	0.9413	-0.141
Mof_N 	N 	0.7562	0.909	0.5928	-0.19
Mof_N 	N 	0.108	0.5648	0.578	-0.208
Mof_N 	N 	0.7536	0.777	0.2289	-0.2
Mof_N 	N 	0.9029	0.7392	0.5273	-0.141
Mof_N 	N 	0.8964	0.7007	0.436	-0.149
Mof_N 	N 	0.8139	0.7874	0.4416	-0.138
Mof_Ag	Ag	0.22629	0.29104	0.13192	0.524
Mof_Ag	Ag	0.20461	0.49756	0.63244	0.535
Mof_C 	C 	0.5779	0.1003	0.608	0.063
Mof_H 	H 	0.5983	0.0966	0.6481	-0.025
Mof_C 	C 	0.3465	0.28	0.4992	0.099
Mof_C 	C 	0.3724	0.4386	0.0891	-0.153
Mof_H 	H 	0.4151	0.4599	0.1104	0.085
Mof_C 	C 	0.372	0.4928	0.9981	0.095
Mof_C 	C 	0.5183	0.113	0.491	-0.136
Mof_H 	H 	0.4991	0.1164	0.4509	0.074
Mof_C 	C 	0.597	0.6846	0.1111	0.083
Mof_H 	H 	0.6147	0.6917	0.1509	-0.01
Mof_C 	C 	0.4252	0.1985	0.4937	0.094
Mof_C 	C 	0.2566	0.3666	0.5035	-0.138
Mof_H 	H 	0.2363	0.3677	0.4633	0.087
Mof_C 	C 	0.2289	0.4068	0.5352	0.089
Mof_H 	H 	0.1887	0.4342	0.5152	-0.014
Mof_C 	C 	0.2772	0.415	0.001	-0.158
Mof_H 	H 	0.254	0.4201	0.9612	0.08
Mof_C 	C 	0.3404	0.4483	0.0305	0.07
Mof_C 	C 	0.3726	0.5241	0.9125	0.099
Mof_C 	C 	0.3417	0.5144	0.8488	0.061
Mof_C 	C 	0.5394	0.6387	0.0847	-0.133
Mof_H 	H 	0.5196	0.6156	0.1066	0.084
Mof_C 	C 	0.3161	0.3243	0.5337	0.07
Mof_C 	C 	0.31	0.2576	0.3486	0.059
Mof_C 	C 	0.2493	0.3741	0.0322	0.085
Mof_H 	H 	0.2072	0.351	0.0119	-0.026
Mof_C 	C 	0.5179	0.142	0.5817	-0.134
Mof_H 	H 	0.4983	0.1645	0.604	0.077
Mof_C 	C 	0.5428	0.6662	0.9949	-0.133
Mof_H 	H 	0.525	0.6629	0.9548	0.084
Mof_C 	C 	0.248	0.2927	0.3195	-0.14
Mof_H 	H 	0.2241	0.3104	0.3398	0.082
Mof_C 	C 	0.4505	0.5772	0.9949	0.103
Mof_C 	C 	0.2209	0.3018	0.2601	0.08
Mof_H 	H 	0.1789	0.3257	0.2411	-0.016
Mof_C 	C 	0.3394	0.3961	0.1157	0.08
Mof_H 	H 	0.3618	0.3886	0.1554	-0.022
Mof_C 	C 	0.4874	0.1501	0.523	0.054
Mof_C 	C 	0.3442	0.2318	0.3168	-0.149
Mof_H 	H 	0.3864	0.2079	0.3346	0.075
Mof_C 	C 	0.3417	0.2484	0.4126	0.095
Mof_C 	C 	0.601	0.7093	0.0257	0.09
Mof_H 	H 	0.6223	0.7331	0.0051	-0.014
Mof_C 	C 	0.3129	0.2434	0.2576	0.082
Mof_H 	H 	0.3357	0.2259	0.2363	-0.028
Mof_C 	C 	0.3448	0.3248	0.593	-0.144
Mof_H 	H 	0.384	0.296	0.614	0.082
Mof_C 	C 	0.5778	0.0714	0.5207	0.078
Mof_H 	H 	0.5978	0.0466	0.4995	-0.013
Mof_C 	C 	0.2588	0.4561	0.7632	0.066
Mof_H 	H 	0.2233	0.4204	0.7458	-0.015
Mof_C 	C 	0.2882	0.4623	0.8226	-0.134
Mof_H 	H 	0.2723	0.432	0.8446	0.069
Mof_C 	C 	0.3667	0.5551	0.8154	-0.143
Mof_H 	H 	0.4049	0.5872	0.832	0.084
Mof_C 	C 	0.5112	0.6273	0.0253	0.067
Mof_C 	C 	0.3326	0.5462	0.7558	0.088
Mof_H 	H 	0.3484	0.5751	0.733	-0.022
Mof_C 	C 	0.3141	0.3688	0.6205	0.088
Mof_H 	H 	0.3348	0.3708	0.6606	-0.009
Mof_N 	N 	0.278	0.3654	0.0884	-0.219
Mof_N 	N 	0.6286	0.7192	0.0825	-0.194
Mof_N 	N 	0.2794	0.4998	0.7291	-0.199
Mof_N 	N 	0.426	0.5393	0.0279	-0.137
Mof_N 	N 	0.4253	0.5726	0.9374	-0.138
Mof_N 	N 	0.3442	0.4825	0.9413	-0.141
Mof_N 	N 	0.2562	0.409	0.5928	-0.19
Mof_N 	N 	0.608	0.0648	0.578	-0.208
Mof_N 	N 	0.2536	0.277	0.2289	-0.2
Mof_N 	N 	0.4029	0.2392	0.5273	-0.141
Mof_N 	N 	0.3964	0.2007	0.436	-0.149
Mof_N 	N 	0.3139	0.2874	0.4416	-0.138
Mof_Ag	Ag	0.27371	0.79104	0.36808	0.524
Mof_Ag	Ag	0.29539	0.99756	0.86756	0.535
Mof_C 	C 	0.9221	0.6003	0.892	0.064
Mof_H 	H 	0.9017	0.5966	0.8519	-0.025
Mof_C 	C 	0.1535	0.78	0.0008	0.098
Mof_C 	C 	0.1276	0.9386	0.4109	-0.153
Mof_H 	H 	0.0849	0.9599	0.3896	0.085
Mof_C 	C 	0.128	0.9928	0.5019	0.095
Mof_C 	C 	0.9817	0.613	0.009	-0.133
Mof_H 	H 	0.0009	0.6164	0.0491	0.072
Mof_C 	C 	0.903	0.1846	0.3889	0.083
Mof_H 	H 	0.8853	0.1917	0.3491	-0.01
Mof_C 	C 	0.0748	0.6985	0.0063	0.092
Mof_C 	C 	0.2434	0.8666	0.9965	-0.138
Mof_H 	H 	0.2637	0.8677	0.0367	0.087
Mof_C 	C 	0.2711	0.9068	0.9648	0.089
Mof_H 	H 	0.3113	0.9342	0.9848	-0.014
Mof_C 	C 	0.2228	0.915	0.499	-0.156
Mof_H 	H 	0.246	0.9201	0.5388	0.079
Mof_C 	C 	0.1596	0.9483	0.4695	0.07
Mof_C 	C 	0.1274	0.0241	0.5875	0.099
Mof_C 	C 	0.1583	0.0144	0.6512	0.061
Mof_C 	C 	0.9606	0.1387	0.4153	-0.132
Mof_H 	H 	0.9804	0.1156	0.3934	0.084
Mof_C 	C 	0.1839	0.8243	0.9663	0.071
Mof_C 	C 	0.19	0.7576	0.1514	0.059
Mof_C 	C 	0.2507	0.8741	0.4678	0.085
Mof_H 	H 	0.2928	0.851	0.4881	-0.025
Mof_C 	C 	0.9821	0.642	0.9183	-0.137
Mof_H 	H 	0.0017	0.6645	0.896	0.079
Mof_C 	C 	0.9572	0.1662	0.5051	-0.133
Mof_H 	H 	0.975	0.1629	0.5452	0.084
Mof_C 	C 	0.252	0.7927	0.1805	-0.14
Mof_H 	H 	0.2759	0.8104	0.1602	0.082
Mof_C 	C 	0.0495	0.0772	0.5051	0.104
Mof_C 	C 	0.2791	0.8018	0.2399	0.08
Mof_H 	H 	0.3211	0.8257	0.2589	-0.015
Mof_C 	C 	0.1606	0.8961	0.3843	0.08
Mof_H 	H 	0.1382	0.8886	0.3446	-0.022
Mof_C 	C 	0.0126	0.6501	0.977	0.055
Mof_C 	C 	0.1558	0.7318	0.1832	-0.149
Mof_H 	H 	0.1136	0.7079	0.1654	0.075
Mof_C 	C 	0.1583	0.7484	0.0874	0.095
Mof_C 	C 	0.899	0.2093	0.4743	0.09
Mof_H 	H 	0.8777	0.2331	0.4949	-0.014
Mof_C 	C 	0.1871	0.7434	0.2424	0.082
Mof_H 	H 	0.1643	0.7259	0.2637	-0.028
Mof_C 	C 	0.1552	0.8248	0.907	-0.144
Mof_H 	H 	0.116	0.796	0.886	0.082
Mof_C 	C 	0.9222	0.5714	0.9793	0.075
Mof_H 	H 	0.9022	0.5466	0.0005	-0.011
Mof_C 	C 	0.2412	0.9561	0.7368	0.066
Mof_H 	H 	0.2767	0.9204	0.7542	-0.015
Mof_C 	C 	0.2118	0.9623	0.6774	-0.134
Mof_H 	H 	0.2277	0.932	0.6554	0.069
Mof_C 	C 	0.1333	0.0551	0.6846	-0.143
Mof_H 	H 	0.0951	0.0872	0.668	0.084
Mof_C 	C 	0.9888	0.1273	0.4747	0.067
Mof_C 	C 	0.1674	0.0462	0.7442	0.089
Mof_H 	H 	0.1516	0.0751	0.767	-0.022
Mof_C 	C 	0.1859	0.8688	0.8795	0.088
Mof_H 	H 	0.1652	0.8708	0.8394	-0.009
Mof_N 	N 	0.222	0.8654	0.4116	-0.219
Mof_N 	N 	0.8714	0.2192	0.4175	-0.194
Mof_N 	N 	0.2206	0.9998	0.7709	-0.199
Mof_N 	N 	0.074	0.0393	0.4721	-0.137
Mof_N 	N 	0.0747	0.0726	0.5626	-0.138
Mof_N 	N 	0.1558	0.9825	0.5587	-0.141
Mof_N 	N 	0.2438	0.909	0.9072	-0.19
Mof_N 	N 	0.892	0.5648	0.922	-0.208
Mof_N 	N 	0.2464	0.777	0.2711	-0.2
Mof_N 	N 	0.0971	0.7392	0.9727	-0.14
Mof_N 	N 	0.1036	0.7007	0.064	-0.148
Mof_N 	N 	0.1861	0.7874	0.0584	-0.138
Mof_Ag	Ag	0.77371	0.29104	0.36808	0.524
Mof_Ag	Ag	0.79539	0.49756	0.86756	0.535
Mof_C 	C 	0.4221	0.1003	0.892	0.064
Mof_H 	H 	0.4017	0.0966	0.8519	-0.025
Mof_C 	C 	0.6535	0.28	0.0008	0.099
Mof_C 	C 	0.6276	0.4386	0.4109	-0.153
Mof_H 	H 	0.5849	0.4599	0.3896	0.085
Mof_C 	C 	0.628	0.4928	0.5019	0.095
Mof_C 	C 	0.4817	0.113	0.009	-0.137
Mof_H 	H 	0.5009	0.1164	0.0491	0.074
Mof_C 	C 	0.403	0.6846	0.3889	0.083
Mof_H 	H 	0.3853	0.6917	0.3491	-0.01
Mof_C 	C 	0.5748	0.1985	0.0063	0.093
Mof_C 	C 	0.7434	0.3666	0.9965	-0.14
Mof_H 	H 	0.7637	0.3677	0.0367	0.088
Mof_C 	C 	0.7711	0.4068	0.9648	0.09
Mof_H 	H 	0.8113	0.4342	0.9848	-0.014
Mof_C 	C 	0.7228	0.415	0.499	-0.156
Mof_H 	H 	0.746	0.4201	0.5388	0.079
Mof_C 	C 	0.6596	0.4483	0.4695	0.07
Mof_C 	C 	0.6274	0.5241	0.5875	0.099
Mof_C 	C 	0.6583	0.5144	0.6512	0.061
Mof_C 	C 	0.4606	0.6387	0.4153	-0.132
Mof_H 	H 	0.4804	0.6156	0.3934	0.084
Mof_C 	C 	0.6839	0.3243	0.9663	0.071
Mof_C 	C 	0.69	0.2576	0.1514	0.059
Mof_C 	C 	0.7507	0.3741	0.4678	0.085
Mof_H 	H 	0.7928	0.351	0.4881	-0.025
Mof_C 	C 	0.4821	0.142	0.9183	-0.135
Mof_H 	H 	0.5017	0.1645	0.896	0.078
Mof_C 	C 	0.4572	0.6662	0.5051	-0.133
Mof_H 	H 	0.475	0.6629	0.5452	0.084
Mof_C 	C 	0.752	0.2927	0.1805	-0.14
Mof_H 	H 	0.7759	0.3104	0.1602	0.082
Mof_C 	C 	0.5495	0.5772	0.5051	0.104
Mof_C 	C 	0.7791	0.3018	0.2399	0.08
Mof_H 	H 	0.8211	0.3257	0.2589	-0.015
Mof_C 	C 	0.6606	0.3961	0.3843	0.08
Mof_H 	H 	0.6382	0.3886	0.3446	-0.022
Mof_C 	C 	0.5126	0.1501	0.977	0.054
Mof_C 	C 	0.6558	0.2318	0.1832	-0.149
Mof_H 	H 	0.6136	0.2079	0.1654	0.075
Mof_C 	C 	0.6583	0.2484	0.0874	0.095
Mof_C 	C 	0.399	0.7093	0.4743	0.09
Mof_H 	H 	0.3777	0.7331	0.4949	-0.014
Mof_C 	C 	0.6871	0.2434	0.2424	0.082
Mof_H 	H 	0.6643	0.2259	0.2637	-0.028
Mof_C 	C 	0.6552	0.3248	0.907	-0.144
Mof_H 	H 	0.616	0.296	0.886	0.082
Mof_C 	C 	0.4222	0.0714	0.9793	0.079
Mof_H 	H 	0.4022	0.0466	0.0005	-0.013
Mof_C 	C 	0.7412	0.4561	0.7368	0.066
Mof_H 	H 	0.7767	0.4204	0.7542	-0.015
Mof_C 	C 	0.7118	0.4623	0.6774	-0.134
Mof_H 	H 	0.7277	0.432	0.6554	0.069
Mof_C 	C 	0.6333	0.5551	0.6846	-0.143
Mof_H 	H 	0.5951	0.5872	0.668	0.084
Mof_C 	C 	0.4888	0.6273	0.4747	0.067
Mof_C 	C 	0.6674	0.5462	0.7442	0.088
Mof_H 	H 	0.6516	0.5751	0.767	-0.022
Mof_C 	C 	0.6859	0.3688	0.8795	0.088
Mof_H 	H 	0.6652	0.3708	0.8394	-0.009
Mof_N 	N 	0.722	0.3654	0.4116	-0.219
Mof_N 	N 	0.3714	0.7192	0.4175	-0.194
Mof_N 	N 	0.7206	0.4998	0.7709	-0.199
Mof_N 	N 	0.574	0.5393	0.4721	-0.137
Mof_N 	N 	0.5747	0.5726	0.5626	-0.138
Mof_N 	N 	0.6558	0.4825	0.5587	-0.141
Mof_N 	N 	0.7438	0.409	0.9072	-0.19
Mof_N 	N 	0.392	0.0648	0.922	-0.208
Mof_N 	N 	0.7464	0.277	0.2711	-0.2
Mof_N 	N 	0.5971	0.2392	0.9727	-0.141
Mof_N 	N 	0.6036	0.2007	0.064	-0.149
Mof_N 	N 	0.6861	0.2874	0.0584	-0.138
_end
