data_functionalizedCrystal
_audit_creation_method	'EQeq! by Chris Wilmer'
_symmetry_space_group_name_H-M	'P1'
_symmetry_Int_Tables_number	1
_symmetry_cell_setting	triclinic
loop_
_symmetry_equiv_pos_as_xyz
  x,y,z
_cell_length_a	13.1562
_cell_length_b	13.1562
_cell_length_c	15.912
_cell_angle_alpha	90
_cell_angle_beta	90
_cell_angle_gamma	101.781
loop_
_atom_site_label
_atom_site_type_symbol
_atom_site_fract_x
_atom_site_fract_y
_atom_site_fract_z
_atom_site_charge
Mof_Cu	Cu	0.57567	0.28715	0.50309	0.886
Mof_Cu	Cu	0.59669	0.88577	0.32926	0.872
Mof_Cu	Cu	0.42433	0.71285	0.00309	0.822
Mof_Cu	Cu	0.40331	0.11423	0.82926	0.887
Mof_Cu	Cu	0.71285	0.42433	0.00309	0.822
Mof_Cu	Cu	0.11423	0.40331	0.82926	0.888
Mof_Cu	Cu	0.28715	0.57567	0.50309	0.887
Mof_Cu	Cu	0.88577	0.59669	0.32926	0.873
Mof_H 	H 	0.5944	0.0706	0.4501	0.007
Mof_H 	H 	0.6118	0.0546	0.2076	0.033
Mof_H 	H 	0.6152	0.2286	0.1961	0.137
Mof_H 	H 	0.5861	0.3159	0.3201	0.098
Mof_H 	H 	0.4702	0.2302	0.6647	0.029
Mof_H 	H 	0.7229	0.1693	0.5772	0.034
Mof_H 	H 	0.7472	0.0846	0.7027	0.111
Mof_H 	H 	0.384	0.9336	0.3012	0.046
Mof_H 	H 	0.7743	0.9647	0.2101	0.027
Mof_H 	H 	0.7317	0.4245	0.3923	-0.025
Mof_H 	H 	0.6392	0.4758	0.6167	0.073
Mof_H 	H 	0.7558	0.6262	0.6237	0.14
Mof_H 	H 	0.6748	0.8628	0.5066	-0.028
Mof_H 	H 	0.3617	0.1671	0.4687	0.032
Mof_H 	H 	0.4056	0.9294	0.9501	0.058
Mof_H 	H 	0.3882	0.9454	0.7076	0.029
Mof_H 	H 	0.3848	0.7714	0.6961	0.138
Mof_H 	H 	0.4139	0.6841	0.8201	0.111
Mof_H 	H 	0.5298	0.7698	0.1647	0.015
Mof_H 	H 	0.2771	0.8307	0.0772	0.004
Mof_H 	H 	0.2528	0.9154	0.2027	0.1
Mof_H 	H 	0.616	0.0664	0.8012	0.055
Mof_H 	H 	0.2257	0.0353	0.7101	0.036
Mof_H 	H 	0.2683	0.5755	0.8923	-0.062
Mof_H 	H 	0.3608	0.5242	0.1167	0.092
Mof_H 	H 	0.2442	0.3738	0.1237	0.102
Mof_H 	H 	0.3252	0.1372	0.0066	0.001
Mof_H 	H 	0.6383	0.8329	0.9687	0.076
Mof_H 	H 	0.9294	0.4056	0.9501	0.058
Mof_H 	H 	0.9454	0.3882	0.7076	0.029
Mof_H 	H 	0.7714	0.3848	0.6961	0.138
Mof_H 	H 	0.6841	0.4139	0.8201	0.111
Mof_H 	H 	0.7698	0.5298	0.1647	0.015
Mof_H 	H 	0.8307	0.2771	0.0772	0.004
Mof_H 	H 	0.9154	0.2528	0.2027	0.1
Mof_H 	H 	0.0664	0.616	0.8012	0.055
Mof_H 	H 	0.0353	0.2257	0.7101	0.036
Mof_H 	H 	0.5755	0.2683	0.8923	-0.062
Mof_H 	H 	0.5242	0.3608	0.1167	0.092
Mof_H 	H 	0.3738	0.2442	0.1237	0.102
Mof_H 	H 	0.1372	0.3252	0.0066	0.001
Mof_H 	H 	0.8329	0.6383	0.9687	0.076
Mof_H 	H 	0.0706	0.5944	0.4501	0.007
Mof_H 	H 	0.0546	0.6118	0.2076	0.033
Mof_H 	H 	0.2286	0.6152	0.1961	0.137
Mof_H 	H 	0.3159	0.5861	0.3201	0.098
Mof_H 	H 	0.2302	0.4702	0.6647	0.029
Mof_H 	H 	0.1693	0.7229	0.5772	0.034
Mof_H 	H 	0.0846	0.7472	0.7027	0.111
Mof_H 	H 	0.9336	0.384	0.3012	0.046
Mof_H 	H 	0.9647	0.7743	0.2101	0.027
Mof_H 	H 	0.4245	0.7317	0.3923	-0.025
Mof_H 	H 	0.4758	0.6392	0.6167	0.073
Mof_H 	H 	0.6262	0.7558	0.6237	0.14
Mof_H 	H 	0.8628	0.6748	0.5066	-0.028
Mof_H 	H 	0.1671	0.3617	0.4687	0.032
Mof_H 	H 	0.1972	0.1972	0.4392	0.128
Mof_H 	H 	0.4556	0.4556	0.5157	-0.013
Mof_H 	H 	0.8028	0.8028	0.9392	0.124
Mof_H 	H 	0.5444	0.5444	0.0157	0.067
Mof_H 	H 	0.72	0.72	0.3469	0.007
Mof_H 	H 	0.9223	0.9223	0.1568	0.106
Mof_H 	H 	0.28	0.28	0.8469	0.031
Mof_H 	H 	0.0777	0.0777	0.6568	0.133
Mof_C 	C 	0.598	0.1028	0.3978	0.151
Mof_C 	C 	0.6095	0.0931	0.2563	0.096
Mof_C 	C 	0.6078	0.1954	0.2479	-0.106
Mof_C 	C 	0.5942	0.2474	0.3225	0.075
Mof_C 	C 	0.5267	0.1987	0.6717	0.202
Mof_C 	C 	0.6746	0.165	0.6204	0.137
Mof_C 	C 	0.6886	0.1126	0.6939	-0.137
Mof_C 	C 	0.3888	0.8956	0.2525	0.11
Mof_C 	C 	0.792	0.9034	0.228	0.118
Mof_C 	C 	0.7368	0.4662	0.4399	0.21
Mof_C 	C 	0.6829	0.4953	0.571	0.14
Mof_C 	C 	0.7506	0.5846	0.576	-0.173
Mof_C 	C 	0.6129	0.8139	0.5053	0.168
Mof_C 	C 	0.3497	0.2341	0.4722	0.15
Mof_C 	C 	0.402	0.8972	0.8978	0.149
Mof_C 	C 	0.3905	0.9069	0.7563	0.1
Mof_C 	C 	0.3922	0.8046	0.7479	-0.104
Mof_C 	C 	0.4058	0.7526	0.8225	0.079
Mof_C 	C 	0.4733	0.8013	0.1717	0.197
Mof_C 	C 	0.3254	0.835	0.1204	0.132
Mof_C 	C 	0.3114	0.8874	0.1939	-0.145
Mof_C 	C 	0.6112	0.1044	0.7525	0.116
Mof_C 	C 	0.208	0.0966	0.728	0.14
Mof_C 	C 	0.2632	0.5338	0.9399	0.39
Mof_C 	C 	0.3171	0.5047	0.071	0.067
Mof_C 	C 	0.2494	0.4154	0.076	-0.082
Mof_C 	C 	0.3871	0.1861	0.0053	-0.046
Mof_C 	C 	0.6503	0.7659	0.9722	0.127
Mof_C 	C 	0.8972	0.402	0.8978	0.149
Mof_C 	C 	0.9069	0.3905	0.7563	0.1
Mof_C 	C 	0.8046	0.3922	0.7479	-0.104
Mof_C 	C 	0.7526	0.4058	0.8225	0.079
Mof_C 	C 	0.8013	0.4733	0.1717	0.197
Mof_C 	C 	0.835	0.3254	0.1204	0.132
Mof_C 	C 	0.8874	0.3114	0.1939	-0.145
Mof_C 	C 	0.1044	0.6112	0.7525	0.116
Mof_C 	C 	0.0966	0.208	0.728	0.14
Mof_C 	C 	0.5338	0.2632	0.9399	0.39
Mof_C 	C 	0.5047	0.3171	0.071	0.067
Mof_C 	C 	0.4154	0.2494	0.076	-0.082
Mof_C 	C 	0.1861	0.3871	0.0053	-0.046
Mof_C 	C 	0.7659	0.6503	0.9722	0.127
Mof_C 	C 	0.1028	0.598	0.3978	0.151
Mof_C 	C 	0.0931	0.6095	0.2563	0.096
Mof_C 	C 	0.1954	0.6078	0.2479	-0.106
Mof_C 	C 	0.2474	0.5942	0.3225	0.075
Mof_C 	C 	0.1987	0.5267	0.6717	0.202
Mof_C 	C 	0.165	0.6746	0.6204	0.137
Mof_C 	C 	0.1126	0.6886	0.6939	-0.137
Mof_C 	C 	0.8956	0.3888	0.2525	0.11
Mof_C 	C 	0.9034	0.792	0.228	0.118
Mof_C 	C 	0.4662	0.7368	0.4399	0.21
Mof_C 	C 	0.4953	0.6829	0.571	0.14
Mof_C 	C 	0.5846	0.7506	0.576	-0.173
Mof_C 	C 	0.8139	0.6129	0.5053	0.168
Mof_C 	C 	0.2341	0.3497	0.4722	0.15
Mof_C 	C 	0.2503	0.2503	0.4577	-0.15
Mof_C 	C 	0.4016	0.4016	0.5001	0.198
Mof_C 	C 	0.7497	0.7497	0.9577	-0.064
Mof_C 	C 	0.5984	0.5984	0.0001	-0.148
Mof_C 	C 	0.7611	0.7611	0.3073	0.135
Mof_C 	C 	0.881	0.881	0.1962	-0.157
Mof_C 	C 	0.2389	0.2389	0.8073	0.151
Mof_C 	C 	0.119	0.119	0.6962	-0.153
Mof_N 	N 	0.5924	0.2004	0.397	-0.225
Mof_N 	N 	0.6728	0.4308	0.5044	-0.222
Mof_N 	N 	0.5931	0.2089	0.6111	-0.227
Mof_N 	N 	0.426	0.3096	0.4903	-0.239
Mof_N 	N 	0.6081	0.0439	0.3304	-0.232
Mof_N 	N 	0.4687	0.8525	0.2432	-0.217
Mof_N 	N 	0.729	0.8464	0.2817	-0.236
Mof_N 	N 	0.5552	0.8066	0.4376	-0.251
Mof_N 	N 	0.4076	0.7996	0.897	-0.189
Mof_N 	N 	0.3272	0.5692	0.0044	-0.307
Mof_N 	N 	0.4069	0.7911	0.1111	-0.244
Mof_N 	N 	0.574	0.6904	0.9903	-0.078
Mof_N 	N 	0.3919	0.9561	0.8304	-0.227
Mof_N 	N 	0.5313	0.1475	0.7432	-0.214
Mof_N 	N 	0.271	0.1536	0.7817	-0.227
Mof_N 	N 	0.4448	0.1934	0.9376	-0.167
Mof_N 	N 	0.7996	0.4076	0.897	-0.189
Mof_N 	N 	0.5692	0.3272	0.0044	-0.307
Mof_N 	N 	0.7911	0.4069	0.1111	-0.244
Mof_N 	N 	0.6904	0.574	0.9903	-0.078
Mof_N 	N 	0.9561	0.3919	0.8304	-0.227
Mof_N 	N 	0.1475	0.5313	0.7432	-0.214
Mof_N 	N 	0.1536	0.271	0.7817	-0.227
Mof_N 	N 	0.1934	0.4448	0.9376	-0.167
Mof_N 	N 	0.2004	0.5924	0.397	-0.225
Mof_N 	N 	0.4308	0.6728	0.5044	-0.222
Mof_N 	N 	0.2089	0.5931	0.6111	-0.227
Mof_N 	N 	0.3096	0.426	0.4903	-0.239
Mof_N 	N 	0.0439	0.6081	0.3304	-0.232
Mof_N 	N 	0.8525	0.4687	0.2432	-0.217
Mof_N 	N 	0.8464	0.729	0.2817	-0.236
Mof_N 	N 	0.8066	0.5552	0.4376	-0.251
Mof_B 	B 	0.6363	0.0475	0.0297	3.627
Mof_F 	F 	0.6199	0.0147	0.947	-1.053
Mof_F 	F 	0.6863	0.9873	0.0723	-1.262
Mof_F 	F 	0.5285	0.0249	0.0617	-1.022
Mof_F 	F 	0.6719	0.1405	0.0424	-1.418
Mof_B 	B 	0.3637	0.9525	0.5297	3.89
Mof_F 	F 	0.3801	0.9853	0.447	-1.191
Mof_F 	F 	0.3137	0.0127	0.5723	-1.276
Mof_F 	F 	0.4715	0.9751	0.5617	-1.028
Mof_F 	F 	0.3281	0.8595	0.5424	-1.449
Mof_B 	B 	0.9525	0.3637	0.5297	3.89
Mof_F 	F 	0.9853	0.3801	0.447	-1.191
Mof_F 	F 	0.0127	0.3137	0.5723	-1.276
Mof_F 	F 	0.9751	0.4715	0.5617	-1.028
Mof_F 	F 	0.8595	0.3281	0.5424	-1.449
Mof_B 	B 	0.0475	0.6363	0.0297	3.627
Mof_F 	F 	0.0147	0.6199	0.947	-1.053
Mof_F 	F 	0.9873	0.6863	0.0723	-1.262
Mof_F 	F 	0.0249	0.5285	0.0617	-1.022
Mof_F 	F 	0.1405	0.6719	0.0424	-1.418
Mof_B 	B 	0.4715	0.4715	0.7644	6.295
Mof_F 	F 	0.5343	0.4187	0.7455	-1.953
Mof_F 	F 	0.4187	0.5343	0.7455	-1.953
Mof_F 	F 	0.4009	0.4009	0.699	-1.049
Mof_F 	F 	0.5567	0.5567	0.7549	-1.301
Mof_F 	F 	0.4402	0.4402	0.8405	-1.722
Mof_B 	B 	0.5285	0.5285	0.2644	6.307
Mof_F 	F 	0.4657	0.5813	0.2455	-1.962
Mof_F 	F 	0.5813	0.4657	0.2455	-1.962
Mof_F 	F 	0.5991	0.5991	0.199	-1.059
Mof_F 	F 	0.4433	0.4433	0.2549	-1.313
Mof_F 	F 	0.5598	0.5598	0.3405	-1.752
_end
