data_functionalizedCrystal
_audit_creation_method	'EQeq! by Chris Wilmer'
_symmetry_space_group_name_H-M	'P1'
_symmetry_Int_Tables_number	1
_symmetry_cell_setting	triclinic
loop_
_symmetry_equiv_pos_as_xyz
  x,y,z
_cell_length_a	8.8979
_cell_length_b	21.4587
_cell_length_c	13.4851
_cell_angle_alpha	90
_cell_angle_beta	96.7804
_cell_angle_gamma	90
loop_
_atom_site_label
_atom_site_type_symbol
_atom_site_fract_x
_atom_site_fract_y
_atom_site_fract_z
_atom_site_charge
Mof_O 	O 	0.6028	0.70593	0.84632	-0.447
Mof_O 	O 	0.7071	0.62298	0.9219	-0.323
Mof_N 	N 	0.3533	0.5949	0.81818	-0.295
Mof_C 	C 	0.6871	0.67905	0.9168	0.344
Mof_C 	C 	0.761	0.72009	0.9967	-0.093
Mof_H 	H 	0.8284	0.7016	0.046	0.1
Mof_C 	C 	0.3977	0.54151	0.8652	0.139
Mof_H 	H 	0.4952	0.527	0.861	-0.03
Mof_C 	C 	0.3041	0.5075	0.9193	-0.255
Mof_H 	H 	0.3383	0.4706	0.9503	0.134
Mof_C 	C 	0.1598	0.52854	0.9274	0.225
Mof_C 	C 	0.1143	0.58322	0.8781	-0.261
Mof_H 	H 	0.0178	0.599	0.8819	0.101
Mof_C 	C 	0.2128	0.6141	0.8233	0.142
Mof_H 	H 	0.1792	0.6499	0.7886	-0.051
Mof_C 	C 	0.0672	0.4923	0.9908	-0.294
Mof_H 	H 	0.1084	0.4558	0.0194	0.125
Mof_O 	O 	0.1028	0.20593	0.84632	-0.476
Mof_O 	O 	0.2071	0.12298	0.9219	-0.352
Mof_N 	N 	0.8533	0.0949	0.81818	-0.261
Mof_C 	C 	0.1871	0.17905	0.9168	0.341
Mof_C 	C 	0.261	0.22009	0.9967	-0.1
Mof_H 	H 	0.3284	0.2016	0.046	0.086
Mof_C 	C 	0.8977	0.04151	0.8652	0.117
Mof_H 	H 	0.9952	0.027	0.861	0.011
Mof_C 	C 	0.8041	0.0075	0.9193	-0.177
Mof_H 	H 	0.8383	0.9706	0.9503	0.123
Mof_C 	C 	0.6598	0.02854	0.9274	0.135
Mof_C 	C 	0.6143	0.08322	0.8781	-0.184
Mof_H 	H 	0.5178	0.099	0.8819	0.105
Mof_C 	C 	0.7128	0.1141	0.8233	0.12
Mof_H 	H 	0.6792	0.1499	0.7886	-0.021
Mof_C 	C 	0.5672	0.9923	0.9908	-0.05
Mof_H 	H 	0.6084	0.9558	0.0194	0.065
Mof_O 	O 	0.3972	0.70593	0.65368	-0.453
Mof_O 	O 	0.2929	0.62298	0.5781	-0.352
Mof_N 	N 	0.6467	0.5949	0.68182	-0.27
Mof_C 	C 	0.3129	0.67905	0.5832	0.345
Mof_C 	C 	0.239	0.72009	0.5033	-0.123
Mof_H 	H 	0.1716	0.7016	0.454	0.086
Mof_C 	C 	0.6023	0.54151	0.6348	0.086
Mof_H 	H 	0.5048	0.527	0.639	-0.015
Mof_C 	C 	0.6959	0.5075	0.5807	-0.132
Mof_H 	H 	0.6617	0.4706	0.5497	0.092
Mof_C 	C 	0.8402	0.52854	0.5726	0.054
Mof_C 	C 	0.8857	0.58322	0.6219	-0.125
Mof_H 	H 	0.9822	0.599	0.6181	0.113
Mof_C 	C 	0.7872	0.6141	0.6767	0.095
Mof_H 	H 	0.8208	0.6499	0.7114	-0.002
Mof_C 	C 	0.9328	0.4923	0.5092	0.158
Mof_H 	H 	0.8916	0.4558	0.4806	0.017
Mof_O 	O 	0.8972	0.20593	0.65368	-0.413
Mof_O 	O 	0.7929	0.12298	0.5781	-0.318
Mof_N 	N 	0.1467	0.0949	0.68182	-0.297
Mof_C 	C 	0.8129	0.17905	0.5832	0.343
Mof_C 	C 	0.739	0.22009	0.5033	-0.109
Mof_H 	H 	0.6716	0.2016	0.454	0.097
Mof_C 	C 	0.1023	0.04151	0.6348	0.107
Mof_H 	H 	0.0048	0.027	0.639	-0.054
Mof_C 	C 	0.1959	0.0075	0.5807	-0.21
Mof_H 	H 	0.1617	0.9706	0.5497	0.101
Mof_C 	C 	0.3402	0.02854	0.5726	0.153
Mof_C 	C 	0.3857	0.08322	0.6219	-0.207
Mof_H 	H 	0.4822	0.099	0.6181	0.111
Mof_C 	C 	0.2872	0.1141	0.6767	0.118
Mof_H 	H 	0.3208	0.1499	0.7114	-0.031
Mof_C 	C 	0.4328	0.9923	0.5092	-0.106
Mof_H 	H 	0.3916	0.9558	0.4806	0.083
Mof_O 	O 	0.3972	0.29407	0.15368	-0.457
Mof_O 	O 	0.2929	0.37702	0.0781	-0.357
Mof_N 	N 	0.6467	0.4051	0.18182	-0.273
Mof_C 	C 	0.3129	0.32095	0.0832	0.359
Mof_C 	C 	0.239	0.27991	0.0033	-0.165
Mof_H 	H 	0.1716	0.2984	0.954	0.104
Mof_C 	C 	0.6023	0.45849	0.1348	0.094
Mof_H 	H 	0.5048	0.473	0.139	-0.018
Mof_C 	C 	0.6959	0.4925	0.0807	-0.15
Mof_H 	H 	0.6617	0.5294	0.0497	0.096
Mof_C 	C 	0.8402	0.47146	0.0726	0.08
Mof_C 	C 	0.8857	0.41678	0.1219	-0.143
Mof_H 	H 	0.9822	0.401	0.1181	0.119
Mof_C 	C 	0.7872	0.3859	0.1767	0.104
Mof_H 	H 	0.8208	0.3501	0.2114	-0.005
Mof_C 	C 	0.9328	0.5077	0.0092	0.103
Mof_H 	H 	0.8916	0.5442	0.9806	0.039
Mof_O 	O 	0.8972	0.79407	0.15368	-0.416
Mof_O 	O 	0.7929	0.87702	0.0781	-0.323
Mof_N 	N 	0.1467	0.9051	0.18182	-0.3
Mof_C 	C 	0.8129	0.82095	0.0832	0.357
Mof_C 	C 	0.739	0.77991	0.0033	-0.148
Mof_H 	H 	0.6716	0.7984	0.954	0.113
Mof_C 	C 	0.1023	0.95849	0.1348	0.115
Mof_H 	H 	0.0048	0.973	0.139	-0.057
Mof_C 	C 	0.1959	0.9925	0.0807	-0.227
Mof_H 	H 	0.1617	0.0294	0.0497	0.106
Mof_C 	C 	0.3402	0.97146	0.0726	0.17
Mof_C 	C 	0.3857	0.91678	0.1219	-0.219
Mof_H 	H 	0.4822	0.901	0.1181	0.115
Mof_C 	C 	0.2872	0.8859	0.1767	0.124
Mof_H 	H 	0.3208	0.8501	0.2114	-0.034
Mof_C 	C 	0.4328	0.0077	0.0092	-0.143
Mof_H 	H 	0.3916	0.0442	0.9806	0.1
Mof_O 	O 	0.6028	0.29407	0.34632	-0.451
Mof_O 	O 	0.7071	0.37702	0.4219	-0.328
Mof_N 	N 	0.3533	0.4051	0.31818	-0.299
Mof_C 	C 	0.6871	0.32095	0.4168	0.357
Mof_C 	C 	0.761	0.27991	0.4967	-0.131
Mof_H 	H 	0.8284	0.2984	0.546	0.116
Mof_C 	C 	0.3977	0.45849	0.3652	0.147
Mof_H 	H 	0.4952	0.473	0.361	-0.034
Mof_C 	C 	0.3041	0.4925	0.4193	-0.273
Mof_H 	H 	0.3383	0.5294	0.4503	0.138
Mof_C 	C 	0.1598	0.47146	0.4274	0.251
Mof_C 	C 	0.1143	0.41678	0.3781	-0.279
Mof_H 	H 	0.0178	0.401	0.3819	0.107
Mof_C 	C 	0.2128	0.3859	0.3233	0.15
Mof_H 	H 	0.1792	0.3501	0.2886	-0.054
Mof_C 	C 	0.0672	0.5077	0.4908	-0.35
Mof_H 	H 	0.1084	0.5442	0.5194	0.147
Mof_O 	O 	0.1028	0.79407	0.34632	-0.481
Mof_O 	O 	0.2071	0.87702	0.4219	-0.358
Mof_N 	N 	0.8533	0.9051	0.31818	-0.264
Mof_C 	C 	0.1871	0.82095	0.4168	0.356
Mof_C 	C 	0.261	0.77991	0.4967	-0.142
Mof_H 	H 	0.3284	0.7984	0.546	0.104
Mof_C 	C 	0.8977	0.95849	0.3652	0.125
Mof_H 	H 	0.9952	0.973	0.361	0.008
Mof_C 	C 	0.8041	0.9925	0.4193	-0.195
Mof_H 	H 	0.8383	0.0294	0.4503	0.129
Mof_C 	C 	0.6598	0.97146	0.4274	0.151
Mof_C 	C 	0.6143	0.91678	0.3781	-0.196
Mof_H 	H 	0.5178	0.901	0.3819	0.109
Mof_C 	C 	0.7128	0.8859	0.3233	0.126
Mof_H 	H 	0.6792	0.8501	0.2886	-0.023
Mof_C 	C 	0.5672	0.0077	0.4908	-0.086
Mof_H 	H 	0.6084	0.0442	0.5194	0.081
Mof_Zn	Zn	0.5	0.64732	0.75	1.211
Mof_Zn	Zn	4.76493e-33	0.14732	0.75	1.186
Mof_Zn	Zn	0.5	0.35268	0.25	1.211
Mof_Zn	Zn	-5.55806e-18	0.85268	0.25	1.186
_end
