data_functionalizedCrystal
_audit_creation_method	'EQeq! by Chris Wilmer'
_symmetry_space_group_name_H-M	'P1'
_symmetry_Int_Tables_number	1
_symmetry_cell_setting	triclinic
loop_
_symmetry_equiv_pos_as_xyz
  x,y,z
_cell_length_a	11.6976
_cell_length_b	10.2455
_cell_length_c	15.1724
_cell_angle_alpha	90
_cell_angle_beta	91.621
_cell_angle_gamma	90
loop_
_atom_site_label
_atom_site_type_symbol
_atom_site_fract_x
_atom_site_fract_y
_atom_site_fract_z
_atom_site_charge
Mof_Mn	Mn	0.75606	0.4239	0.13133	1.026
Mof_Mn	Mn	0.73955	0.61325	0.30894	1.044
Mof_O 	O 	0.68624	0.5293	0.02062	-0.592
Mof_O 	O 	0.8447	0.5957	0.95743	-0.396
Mof_O 	O 	0.4775	0.7077	0.99252	-0.345
Mof_O 	O 	0.3436	0.7547	0.89034	-0.491
Mof_O 	O 	0.6265	0.5128	0.21479	-0.512
Mof_O 	O 	0.4622	0.5074	0.1388	-0.438
Mof_O 	O 	0.8078	0.4406	0.36515	-0.418
Mof_O 	O 	0.8034	0.3057	0.25008	-0.491
Mof_O 	O 	0.0028	0.6243	0.11486	-0.487
Mof_O 	O 	0.85003	0.5846	0.19392	-0.532
Mof_O 	O 	0.59556	0.8448	0.43272	-0.485
Mof_O 	O 	0.6	0.6348	0.39525	-0.421
Mof_C 	C 	0.7412	0.5957	0.9655	0.686
Mof_H 	H 	0.6987	0.6494	0.9276	-0.148
Mof_C 	C 	0.4232	0.7846	0.9447	0.515
Mof_H 	H 	0.4426	0.8724	0.9491	-0.078
Mof_C 	C 	0.5192	0.5223	0.2059	0.566
Mof_H 	H 	0.4796	0.5431	0.2563	-0.136
Mof_C 	C 	0.8222	0.3327	0.3305	0.534
Mof_H 	H 	0.8492	0.2656	0.3667	-0.127
Mof_C 	C 	0.941	0.6442	0.1766	0.631
Mof_H 	H 	0.9633	0.7106	0.2152	-0.153
Mof_C 	C 	0.5586	0.7297	0.4331	0.538
Mof_H 	H 	0.4933	0.7143	0.4652	-0.117
Mof_Mn	Mn	0.74394	0.9239	0.36867	1.144
Mof_Mn	Mn	0.76045	0.11325	0.19106	1.004
Mof_O 	O 	0.81376	0.0293	0.47938	-0.534
Mof_O 	O 	0.6553	0.0957	0.54257	-0.442
Mof_O 	O 	0.0225	0.2077	0.50748	-0.427
Mof_O 	O 	0.1564	0.2547	0.60966	-0.511
Mof_O 	O 	0.8735	0.0128	0.28521	-0.59
Mof_O 	O 	0.0378	0.0074	0.3612	-0.533
Mof_O 	O 	0.6922	0.9406	0.13485	-0.393
Mof_O 	O 	0.6966	0.8057	0.24992	-0.495
Mof_O 	O 	0.4972	0.1243	0.38514	-0.448
Mof_O 	O 	0.64997	0.0846	0.30608	-0.554
Mof_O 	O 	0.90444	0.3448	0.06728	-0.527
Mof_O 	O 	0.9	0.1348	0.10475	-0.464
Mof_C 	C 	0.7588	0.0957	0.5345	0.551
Mof_H 	H 	0.8013	0.1494	0.5724	-0.128
Mof_C 	C 	0.0768	0.2846	0.5553	0.528
Mof_H 	H 	0.0574	0.3724	0.5509	-0.133
Mof_C 	C 	0.9808	0.0223	0.2941	0.745
Mof_H 	H 	0.0204	0.0431	0.2437	-0.239
Mof_C 	C 	0.6778	0.8327	0.1695	0.538
Mof_H 	H 	0.6508	0.7656	0.1333	-0.146
Mof_C 	C 	0.559	0.1442	0.3234	0.572
Mof_H 	H 	0.5367	0.2106	0.2848	-0.157
Mof_C 	C 	0.9414	0.2297	0.0669	0.631
Mof_H 	H 	0.0067	0.2143	0.0348	-0.208
Mof_Mn	Mn	0.24394	0.5761	0.86867	1.019
Mof_Mn	Mn	0.26045	0.38675	0.69106	1.037
Mof_O 	O 	0.31376	0.4707	0.97938	-0.391
Mof_O 	O 	0.1553	0.4043	0.04257	-0.408
Mof_O 	O 	0.5225	0.2923	0.00748	-0.453
Mof_O 	O 	0.6564	0.2453	0.10966	-0.526
Mof_O 	O 	0.3735	0.4872	0.78521	-0.503
Mof_O 	O 	0.5378	0.4926	0.8612	-0.389
Mof_O 	O 	0.1922	0.5594	0.63485	-0.43
Mof_O 	O 	0.1966	0.6943	0.74992	-0.505
Mof_O 	O 	0.9972	0.3757	0.88514	-0.318
Mof_O 	O 	0.14997	0.4154	0.80608	-0.489
Mof_O 	O 	0.40444	0.1552	0.56728	-0.507
Mof_O 	O 	0.4	0.3652	0.60475	-0.42
Mof_C 	C 	0.2588	0.4043	0.0345	0.391
Mof_H 	H 	0.3013	0.3506	0.0724	-0.09
Mof_C 	C 	0.5768	0.2154	0.0553	0.551
Mof_H 	H 	0.5574	0.1276	0.0509	-0.17
Mof_C 	C 	0.4808	0.4777	0.7941	0.549
Mof_H 	H 	0.5204	0.4569	0.7437	-0.124
Mof_C 	C 	0.1778	0.6673	0.6695	0.537
Mof_H 	H 	0.1508	0.7344	0.6333	-0.139
Mof_C 	C 	0.059	0.3558	0.8234	0.469
Mof_H 	H 	0.0367	0.2894	0.7848	-0.132
Mof_C 	C 	0.4414	0.2703	0.5669	0.539
Mof_H 	H 	0.5067	0.2857	0.5348	-0.119
Mof_Mn	Mn	0.25606	0.0761	0.63133	0.902
Mof_Mn	Mn	0.23955	0.88675	0.80894	1.078
Mof_O 	O 	0.18624	0.9707	0.52062	-0.439
Mof_O 	O 	0.3447	0.9043	0.45743	-0.385
Mof_O 	O 	0.9775	0.7923	0.49252	-0.357
Mof_O 	O 	0.8436	0.7453	0.39034	-0.503
Mof_O 	O 	0.1265	0.9872	0.71479	-0.419
Mof_O 	O 	0.9622	0.9926	0.6388	-0.276
Mof_O 	O 	0.3078	0.0594	0.86515	-0.456
Mof_O 	O 	0.3034	0.1943	0.75008	-0.501
Mof_O 	O 	0.5028	0.8757	0.61486	-0.386
Mof_O 	O 	0.35003	0.9154	0.69392	-0.475
Mof_O 	O 	0.09556	0.6552	0.93272	-0.442
Mof_O 	O 	0.1	0.8652	0.89525	-0.372
Mof_C 	C 	0.2412	0.9043	0.4655	0.529
Mof_H 	H 	0.1987	0.8506	0.4276	-0.109
Mof_C 	C 	0.9232	0.7154	0.4447	0.531
Mof_H 	H 	0.9426	0.6276	0.4491	-0.112
Mof_C 	C 	0.0192	0.9777	0.7059	0.354
Mof_H 	H 	0.9796	0.9569	0.7563	-0.013
Mof_C 	C 	0.3222	0.1673	0.8305	0.534
Mof_H 	H 	0.3492	0.2344	0.8667	-0.121
Mof_C 	C 	0.441	0.8558	0.6766	0.549
Mof_H 	H 	0.4633	0.7894	0.7152	-0.135
Mof_C 	C 	0.0586	0.7703	0.9331	0.424
Mof_H 	H 	0.9933	0.7857	0.9652	-0.013
Mof_Mn	Mn	0.5	0.5	-0	0.94
Mof_Mn	Mn	2.50037e-33	0	0.5	0.896
Mof_Mn	Mn	3.472e-33	0.5	-0	0.885
Mof_Mn	Mn	0.5	0	0.5	0.956
_end
