data_functionalizedCrystal
_audit_creation_method	'EQeq! by Chris Wilmer'
_symmetry_space_group_name_H-M	'P1'
_symmetry_Int_Tables_number	1
_symmetry_cell_setting	triclinic
loop_
_symmetry_equiv_pos_as_xyz
  x,y,z
_cell_length_a	29.536
_cell_length_b	29.536
_cell_length_c	41.76
_cell_angle_alpha	90
_cell_angle_beta	90
_cell_angle_gamma	120
loop_
_atom_site_label
_atom_site_type_symbol
_atom_site_fract_x
_atom_site_fract_y
_atom_site_fract_z
_atom_site_charge
Mof_Zn	Zn	0.02208	0.72961	0.97558	1.217
Mof_Zn	Zn	0.03425	0.63	0.97482	1.213
Mof_Zn	Zn	0.98225	0.65119	0.03474	1.194
Mof_Zn	Zn	0.92211	0.61651	0.96831	1.208
Mof_Zn	Zn	0.70753	0.97792	0.64225	1.217
Mof_Zn	Zn	0.59575	0.96575	0.64149	1.213
Mof_Zn	Zn	0.66894	0.01775	0.70141	1.193
Mof_Zn	Zn	0.6944	0.07789	0.63498	1.207
Mof_Zn	Zn	0.27039	0.29247	0.30891	1.218
Mof_Zn	Zn	0.37	0.40425	0.30815	1.213
Mof_Zn	Zn	0.34881	0.33106	0.36807	1.192
Mof_Zn	Zn	0.38349	0.3056	0.30164	1.207
Mof_H 	H 	0.1202	0.8695	0.0307	0.028
Mof_H 	H 	0.1619	0.9363	0.0684	0.085
Mof_H 	H 	0.0835	0.8335	0.1397	0.078
Mof_H 	H 	0.0418	0.7666	0.1019	0.018
Mof_H 	H 	0.2989	0.1215	0.1954	0.085
Mof_H 	H 	0.3307	0.1954	0.2282	0.017
Mof_H 	H 	0.1894	0.1338	0.2716	0.017
Mof_H 	H 	0.1576	0.0599	0.2388	0.085
Mof_H 	H 	0.1872	0.7119	0.9352	0.016
Mof_H 	H 	0.2584	0.7511	0.9	0.085
Mof_H 	H 	0.2045	0.8433	0.865	0.085
Mof_H 	H 	0.1333	0.8041	0.9001	0.022
Mof_H 	H 	0.4838	0.8839	0.8018	0.082
Mof_H 	H 	0.5514	0.917	0.7641	0.015
Mof_H 	H 	0.4508	0.9115	0.6961	0.026
Mof_H 	H 	0.3832	0.8784	0.7339	0.086
Mof_H 	H 	0.8919	0.5414	0.8808	0.006
Mof_H 	H 	0.8739	0.4882	0.8357	0.088
Mof_H 	H 	0.9931	0.4636	0.859	0.088
Mof_H 	H 	0.0112	0.5169	0.9042	0.005
Mof_H 	H 	0.8274	0.3064	0.7012	0.08
Mof_H 	H 	0.7819	0.2283	0.6723	0.014
Mof_H 	H 	0.7752	0.1461	0.7517	0.008
Mof_H 	H 	0.8207	0.2242	0.7806	0.082
Mof_H 	H 	0.7493	0.8798	0.69737	0.028
Mof_H 	H 	0.7744	0.8381	0.73507	0.088
Mof_H 	H 	0.75	0.9165	0.80637	0.08
Mof_H 	H 	0.7248	0.9582	0.76857	0.018
Mof_H 	H 	0.8226	0.7011	0.86207	0.084
Mof_H 	H 	0.8647	0.6693	0.89487	0.018
Mof_H 	H 	0.9444	0.8106	0.93827	0.019
Mof_H 	H 	0.9023	0.8424	0.90547	0.084
Mof_H 	H 	0.5247	0.8128	0.60187	0.016
Mof_H 	H 	0.4927	0.7416	0.56667	0.085
Mof_H 	H 	0.6388	0.7955	0.53167	0.085
Mof_H 	H 	0.6708	0.8667	0.56677	0.022
Mof_H 	H 	0.4001	0.5162	0.46847	0.083
Mof_H 	H 	0.3656	0.4486	0.43077	0.016
Mof_H 	H 	0.4607	0.5492	0.36277	0.026
Mof_H 	H 	0.4952	0.6168	0.40057	0.086
Mof_H 	H 	0.6495	0.1081	0.54747	0.006
Mof_H 	H 	0.6143	0.1261	0.50237	0.088
Mof_H 	H 	0.4705	0.0069	0.52567	0.088
Mof_H 	H 	0.5057	0.9888	0.57087	0.005
Mof_H 	H 	0.479	0.1726	0.36787	0.08
Mof_H 	H 	0.4464	0.2181	0.33897	0.014
Mof_H 	H 	0.3709	0.2248	0.41837	0.007
Mof_H 	H 	0.4035	0.1793	0.44727	0.081
Mof_H 	H 	0.1305	0.2507	0.36403	0.029
Mof_H 	H 	0.0637	0.2256	0.40173	0.085
Mof_H 	H 	0.1665	0.25	0.47303	0.079
Mof_H 	H 	0.2334	0.2752	0.43523	0.019
Mof_H 	H 	0.8785	0.1774	0.52873	0.085
Mof_H 	H 	0.8046	0.1353	0.56153	0.017
Mof_H 	H 	0.8662	0.0556	0.60493	0.019
Mof_H 	H 	0.9401	0.0977	0.57213	0.087
Mof_H 	H 	0.2881	0.4753	0.26853	0.016
Mof_H 	H 	0.2489	0.5073	0.23333	0.085
Mof_H 	H 	0.1567	0.3612	0.19833	0.085
Mof_H 	H 	0.1959	0.3292	0.23343	0.023
Mof_H 	H 	0.1161	0.5999	0.13513	0.082
Mof_H 	H 	0.083	0.6344	0.09743	0.015
Mof_H 	H 	0.0885	0.5393	0.02943	0.026
Mof_H 	H 	0.1216	0.5048	0.06723	0.086
Mof_H 	H 	0.4586	0.3505	0.21413	0.008
Mof_H 	H 	0.5118	0.3857	0.16903	0.085
Mof_H 	H 	0.5364	0.5295	0.19233	0.082
Mof_H 	H 	0.4831	0.4943	0.23753	0.015
Mof_H 	H 	0.6936	0.521	0.03453	0.08
Mof_H 	H 	0.7717	0.5536	0.00563	0.014
Mof_H 	H 	0.8539	0.6291	0.08503	0.008
Mof_H 	H 	0.7758	0.5965	0.11393	0.081
Mof_C 	C 	0.0513	0.7688	0.0393	0.391
Mof_C 	C 	0.0771	0.8118	0.06274	-0.142
Mof_C 	C 	0.1127	0.8621	0.05279	0.066
Mof_C 	C 	0.1375	0.9019	0.0752	-0.138
Mof_C 	C 	0.1266	0.8912	0.10763	0.094
Mof_C 	C 	0.0909	0.8407	0.11758	-0.141
Mof_C 	C 	0.0662	0.8011	0.09514	0.067
Mof_C 	C 	0.15	0.9337	0.1306	-0.044
Mof_C 	C 	0.1674	0.9661	0.1508	-0.005
Mof_C 	C 	0.1861	0.0037	0.174	0.019
Mof_C 	C 	0.2037	0.0403	0.192	-0.056
Mof_C 	C 	0.2253	0.0838	0.214	0.107
Mof_C 	C 	0.2767	0.1241	0.21084	-0.15
Mof_C 	C 	0.2956	0.1679	0.2304	0.081
Mof_C 	C 	0.263	0.1715	0.253	-0.161
Mof_C 	C 	0.2116	0.1313	0.25613	0.082
Mof_C 	C 	0.1927	0.0874	0.2366	-0.149
Mof_C 	C 	0.2842	0.2184	0.2742	0.435
Mof_C 	C 	0.1073	0.7278	0.942	0.426
Mof_C 	C 	0.1535	0.7543	0.92095	-0.162
Mof_C 	C 	0.1907	0.7386	0.92092	0.082
Mof_C 	C 	0.233	0.7618	0.9001	-0.146
Mof_C 	C 	0.2381	0.8008	0.87924	0.105
Mof_C 	C 	0.201	0.8166	0.87926	-0.144
Mof_C 	C 	0.1587	0.7934	0.90012	0.079
Mof_C 	C 	0.282	0.8229	0.8573	-0.044
Mof_C 	C 	0.3147	0.8344	0.8372	0.011
Mof_C 	C 	0.3545	0.8518	0.8161	0.009
Mof_C 	C 	0.3873	0.8655	0.7959	-0.05
Mof_C 	C 	0.4272	0.8781	0.77141	0.099
Mof_C 	C 	0.4771	0.8895	0.78037	-0.147
Mof_C 	C 	0.5173	0.9092	0.75794	0.071
Mof_C 	C 	0.5075	0.9174	0.72654	-0.155
Mof_C 	C 	0.4575	0.9059	0.71758	0.069
Mof_C 	C 	0.4174	0.8863	0.74002	-0.141
Mof_C 	C 	0.5511	0.9431	0.7034	0.403
Mof_C 	C 	0.9711	0.5737	0.9224	0.494
Mof_C 	C 	0.9532	0.5341	0.8968	-0.203
Mof_C 	C 	0.9125	0.5256	0.8764	0.104
Mof_C 	C 	0.9018	0.494	0.8496	-0.168
Mof_C 	C 	0.9318	0.4709	0.8431	0.115
Mof_C 	C 	0.9726	0.4794	0.8635	-0.171
Mof_C 	C 	0.9833	0.511	0.8903	0.108
Mof_C 	C 	0.9136	0.4329	0.8178	-0.065
Mof_C 	C 	0.8959	0.3928	0.8034	0.008
Mof_C 	C 	0.861	0.3507	0.7848	-0.002
Mof_C 	C 	0.8522	0.3194	0.7628	-0.053
Mof_C 	C 	0.8283	0.2726	0.7436	0.1
Mof_C 	C 	0.8168	0.2739	0.7114	-0.15
Mof_C 	C 	0.7898	0.2275	0.6943	0.078
Mof_C 	C 	0.7743	0.1799	0.7093	-0.172
Mof_C 	C 	0.7858	0.1787	0.7414	0.081
Mof_C 	C 	0.8128	0.225	0.7586	-0.151
Mof_C 	C 	0.7507	0.1315	0.6883	0.453
Mof_C 	C 	0.7175	0.9487	0.70597	0.392
Mof_C 	C 	0.7347	0.9229	0.72941	-0.143
Mof_C 	C 	0.7494	0.8873	0.71946	0.068
Mof_C 	C 	0.7644	0.8625	0.74187	-0.14
Mof_C 	C 	0.7646	0.8734	0.7743	0.099
Mof_C 	C 	0.7498	0.9091	0.78425	-0.144
Mof_C 	C 	0.7349	0.9338	0.76181	0.069
Mof_C 	C 	0.7837	0.85	0.79727	-0.049
Mof_C 	C 	0.7987	0.8326	0.81747	0.008
Mof_C 	C 	0.8176	0.8139	0.84067	0.008
Mof_C 	C 	0.8366	0.7963	0.85867	-0.05
Mof_C 	C 	0.8585	0.7747	0.88067	0.103
Mof_C 	C 	0.8474	0.7233	0.87751	-0.147
Mof_C 	C 	0.8723	0.7044	0.89707	0.079
Mof_C 	C 	0.9085	0.737	0.91967	-0.158
Mof_C 	C 	0.9197	0.7884	0.9228	0.08
Mof_C 	C 	0.8947	0.8073	0.90327	-0.146
Mof_C 	C 	0.9342	0.7158	0.94087	0.434
Mof_C 	C 	0.6205	0.8927	0.60867	0.426
Mof_C 	C 	0.6008	0.8465	0.58762	-0.162
Mof_C 	C 	0.5479	0.8093	0.58759	0.082
Mof_C 	C 	0.5288	0.767	0.56677	-0.146
Mof_C 	C 	0.5627	0.7619	0.54591	0.105
Mof_C 	C 	0.6156	0.799	0.54593	-0.144
Mof_C 	C 	0.6347	0.8413	0.56679	0.079
Mof_C 	C 	0.5409	0.718	0.52397	-0.044
Mof_C 	C 	0.5197	0.6853	0.50387	0.012
Mof_C 	C 	0.4973	0.6455	0.48277	0.009
Mof_C 	C 	0.4782	0.6127	0.46257	-0.049
Mof_C 	C 	0.4509	0.5728	0.43808	0.099
Mof_C 	C 	0.4124	0.5229	0.44704	-0.147
Mof_C 	C 	0.3919	0.4827	0.42461	0.071
Mof_C 	C 	0.4099	0.4925	0.39321	-0.154
Mof_C 	C 	0.4484	0.5425	0.38425	0.069
Mof_C 	C 	0.4689	0.5826	0.40669	-0.141
Mof_C 	C 	0.392	0.4489	0.37007	0.403
Mof_C 	C 	0.6026	0.0289	0.58907	0.495
Mof_C 	C 	0.5809	0.0468	0.56347	-0.203
Mof_C 	C 	0.6131	0.0875	0.54307	0.104
Mof_C 	C 	0.5922	0.0982	0.51627	-0.168
Mof_C 	C 	0.5391	0.0682	0.50977	0.115
Mof_C 	C 	0.5068	0.0274	0.53017	-0.171
Mof_C 	C 	0.5277	0.0167	0.55697	0.108
Mof_C 	C 	0.5193	0.0864	0.48447	-0.065
Mof_C 	C 	0.4969	0.1041	0.47007	0.008
Mof_C 	C 	0.4897	0.139	0.45147	-0.003
Mof_C 	C 	0.4672	0.1478	0.42947	-0.053
Mof_C 	C 	0.4443	0.1717	0.41027	0.1
Mof_C 	C 	0.4571	0.1832	0.37807	-0.15
Mof_C 	C 	0.4377	0.2102	0.36097	0.078
Mof_C 	C 	0.4056	0.2257	0.37597	-0.173
Mof_C 	C 	0.3929	0.2142	0.40807	0.081
Mof_C 	C 	0.4122	0.1872	0.42527	-0.151
Mof_C 	C 	0.3808	0.2493	0.35497	0.453
Mof_C 	C 	0.2312	0.2825	0.37263	0.391
Mof_C 	C 	0.1882	0.2653	0.39607	-0.141
Mof_C 	C 	0.1379	0.2506	0.38612	0.066
Mof_C 	C 	0.0981	0.2356	0.40853	-0.137
Mof_C 	C 	0.1088	0.2354	0.44096	0.094
Mof_C 	C 	0.1593	0.2502	0.45091	-0.141
Mof_C 	C 	0.1989	0.2651	0.42847	0.067
Mof_C 	C 	0.0663	0.2163	0.46393	-0.044
Mof_C 	C 	0.0339	0.2013	0.48413	-0.005
Mof_C 	C 	0.9963	0.1824	0.50733	0.02
Mof_C 	C 	0.9597	0.1634	0.52533	-0.055
Mof_C 	C 	0.9162	0.1415	0.54733	0.108
Mof_C 	C 	0.8759	0.1526	0.54417	-0.149
Mof_C 	C 	0.8321	0.1277	0.56373	0.081
Mof_C 	C 	0.8285	0.0915	0.58633	-0.159
Mof_C 	C 	0.8687	0.0803	0.58946	0.082
Mof_C 	C 	0.9126	0.1053	0.56993	-0.148
Mof_C 	C 	0.7816	0.0658	0.60753	0.434
Mof_C 	C 	0.2722	0.3795	0.27533	0.426
Mof_C 	C 	0.2457	0.3992	0.25428	-0.162
Mof_C 	C 	0.2614	0.4521	0.25425	0.081
Mof_C 	C 	0.2382	0.4712	0.23343	-0.145
Mof_C 	C 	0.1992	0.4373	0.21257	0.104
Mof_C 	C 	0.1834	0.3844	0.21259	-0.144
Mof_C 	C 	0.2066	0.3653	0.23345	0.079
Mof_C 	C 	0.1771	0.4591	0.19063	-0.044
Mof_C 	C 	0.1656	0.4803	0.17053	0.011
Mof_C 	C 	0.1482	0.5027	0.14943	0.009
Mof_C 	C 	0.1345	0.5218	0.12923	-0.05
Mof_C 	C 	0.1219	0.5491	0.10474	0.099
Mof_C 	C 	0.1105	0.5876	0.1137	-0.147
Mof_C 	C 	0.0908	0.6081	0.09127	0.071
Mof_C 	C 	0.0826	0.5901	0.05987	-0.155
Mof_C 	C 	0.0941	0.5516	0.05091	0.069
Mof_C 	C 	0.1137	0.5311	0.07335	-0.141
Mof_C 	C 	0.0569	0.608	0.03673	0.403
Mof_C 	C 	0.4263	0.3974	0.25573	0.482
Mof_C 	C 	0.4659	0.4191	0.23013	-0.192
Mof_C 	C 	0.4744	0.3869	0.20973	0.096
Mof_C 	C 	0.506	0.4078	0.18293	-0.161
Mof_C 	C 	0.5291	0.4609	0.17643	0.108
Mof_C 	C 	0.5206	0.4932	0.19683	-0.16
Mof_C 	C 	0.489	0.4723	0.22363	0.088
Mof_C 	C 	0.5671	0.4807	0.15113	-0.063
Mof_C 	C 	0.6072	0.5031	0.13673	0.006
Mof_C 	C 	0.6493	0.5103	0.11813	-0.002
Mof_C 	C 	0.6806	0.5328	0.09613	-0.054
Mof_C 	C 	0.7274	0.5557	0.07693	0.1
Mof_C 	C 	0.7261	0.5429	0.04473	-0.15
Mof_C 	C 	0.7725	0.5623	0.02763	0.078
Mof_C 	C 	0.8201	0.5944	0.04263	-0.173
Mof_C 	C 	0.8213	0.6071	0.07473	0.081
Mof_C 	C 	0.775	0.5878	0.09193	-0.151
Mof_C 	C 	0.8685	0.6192	0.02163	0.453
Mof_O 	O 	0.9917	0.6579	0.98757	-0.956
Mof_O 	O 	0.058	0.781	0.01018	-0.484
Mof_O 	O 	0.0189	0.7235	0.05062	-0.495
Mof_O 	O 	0.3318	0.2495	0.273	-0.502
Mof_O 	O 	0.2522	0.2258	0.2894	-0.509
Mof_O 	O 	0.0766	0.7456	0.94338	-0.503
Mof_O 	O 	0.0994	0.6874	0.95612	-0.507
Mof_O 	O 	0.5411	0.9414	0.6746	-0.506
Mof_O 	O 	0.5974	0.9627	0.7149	-0.524
Mof_O 	O 	0.0058	0.5802	0.94	-0.557
Mof_O 	O 	0.9361	0.583	0.9313	-0.537
Mof_O 	O 	0.7371	0.1358	0.6616	-0.556
Mof_O 	O 	0.7361	0.0897	0.7027	-0.53
Mof_O 	O 	0.6662	0.0083	0.65424	-0.956
Mof_O 	O 	0.723	0.942	0.67685	-0.484
Mof_O 	O 	0.7046	0.9811	0.71729	-0.495
Mof_O 	O 	0.9177	0.6682	0.93967	-0.501
Mof_O 	O 	0.9736	0.7478	0.95607	-0.506
Mof_O 	O 	0.669	0.9234	0.61005	-0.504
Mof_O 	O 	0.588	0.9006	0.62279	-0.507
Mof_O 	O 	0.4003	0.4589	0.34127	-0.506
Mof_O 	O 	0.3653	0.4026	0.38157	-0.522
Mof_O 	O 	0.5744	0.9942	0.60667	-0.557
Mof_O 	O 	0.6469	0.0639	0.59797	-0.537
Mof_O 	O 	0.3987	0.2629	0.32827	-0.557
Mof_O 	O 	0.3536	0.2639	0.36937	-0.531
Mof_O 	O 	0.3421	0.3338	0.3209	-0.96
Mof_O 	O 	0.219	0.277	0.34351	-0.483
Mof_O 	O 	0.2765	0.2954	0.38395	-0.493
Mof_O 	O 	0.7505	0.0823	0.60633	-0.501
Mof_O 	O 	0.7742	0.0264	0.62273	-0.505
Mof_O 	O 	0.2544	0.331	0.27671	-0.502
Mof_O 	O 	0.3126	0.412	0.28945	-0.507
Mof_O 	O 	0.0586	0.5997	0.00793	-0.506
Mof_O 	O 	0.0373	0.6347	0.04823	-0.524
Mof_O 	O 	0.4198	0.4256	0.27333	-0.55
Mof_O 	O 	0.417	0.3531	0.26463	-0.535
Mof_O 	O 	0.8642	0.6013	0.99493	-0.556
Mof_O 	O 	0.9103	0.6464	0.03603	-0.53
Mof_Zn	Zn	0.70753	0.72961	0.35775	1.218
Mof_Zn	Zn	0.59575	0.63	0.35851	1.213
Mof_Zn	Zn	0.66894	0.65119	0.29859	1.192
Mof_Zn	Zn	0.6944	0.61651	0.36502	1.207
Mof_Zn	Zn	0.27039	0.97792	0.69109	1.216
Mof_Zn	Zn	0.37	0.96575	0.69185	1.212
Mof_Zn	Zn	0.34881	0.01775	0.63193	1.193
Mof_Zn	Zn	0.38349	0.07789	0.69836	1.207
Mof_Zn	Zn	0.02208	0.29247	0.02442	1.216
Mof_Zn	Zn	0.03425	0.40425	0.02518	1.212
Mof_Zn	Zn	0.98225	0.33106	0.96526	1.193
Mof_Zn	Zn	0.92211	0.3056	0.03169	1.207
Mof_H 	H 	0.7493	0.8695	0.30263	0.029
Mof_H 	H 	0.7744	0.9363	0.26493	0.085
Mof_H 	H 	0.75	0.8335	0.19363	0.079
Mof_H 	H 	0.7248	0.7666	0.23143	0.019
Mof_H 	H 	0.8226	0.1215	0.13793	0.085
Mof_H 	H 	0.8647	0.1954	0.10513	0.017
Mof_H 	H 	0.9444	0.1338	0.06173	0.019
Mof_H 	H 	0.9023	0.0599	0.09453	0.087
Mof_H 	H 	0.5247	0.7119	0.39813	0.016
Mof_H 	H 	0.4927	0.7511	0.43333	0.085
Mof_H 	H 	0.6388	0.8433	0.46833	0.085
Mof_H 	H 	0.6708	0.8041	0.43323	0.023
Mof_H 	H 	0.4001	0.8839	0.53153	0.082
Mof_H 	H 	0.3656	0.917	0.56923	0.015
Mof_H 	H 	0.4607	0.9115	0.63723	0.026
Mof_H 	H 	0.4952	0.8784	0.59943	0.086
Mof_H 	H 	0.6495	0.5414	0.45253	0.008
Mof_H 	H 	0.6143	0.4882	0.49763	0.085
Mof_H 	H 	0.4705	0.4636	0.47433	0.082
Mof_H 	H 	0.5057	0.5169	0.42913	0.015
Mof_H 	H 	0.479	0.3064	0.63213	0.08
Mof_H 	H 	0.4464	0.2283	0.66103	0.014
Mof_H 	H 	0.3709	0.1461	0.58163	0.008
Mof_H 	H 	0.4035	0.2242	0.55273	0.081
Mof_H 	H 	0.1305	0.8798	0.63597	0.028
Mof_H 	H 	0.0637	0.8381	0.59827	0.085
Mof_H 	H 	0.1665	0.9165	0.52697	0.078
Mof_H 	H 	0.2334	0.9582	0.56477	0.018
Mof_H 	H 	0.8785	0.7011	0.47127	0.085
Mof_H 	H 	0.8046	0.6693	0.43847	0.017
Mof_H 	H 	0.8662	0.8106	0.39507	0.017
Mof_H 	H 	0.9401	0.8424	0.42787	0.085
Mof_H 	H 	0.2881	0.8128	0.73147	0.016
Mof_H 	H 	0.2489	0.7416	0.76667	0.085
Mof_H 	H 	0.1567	0.7955	0.80167	0.085
Mof_H 	H 	0.1959	0.8667	0.76657	0.022
Mof_H 	H 	0.1161	0.5162	0.86487	0.082
Mof_H 	H 	0.083	0.4486	0.90257	0.015
Mof_H 	H 	0.0885	0.5492	0.97057	0.026
Mof_H 	H 	0.1216	0.6168	0.93277	0.086
Mof_H 	H 	0.4586	0.1081	0.78587	0.006
Mof_H 	H 	0.5118	0.1261	0.83097	0.088
Mof_H 	H 	0.5364	0.0069	0.80767	0.088
Mof_H 	H 	0.4831	0.9888	0.76247	0.005
Mof_H 	H 	0.6936	0.1726	0.96547	0.08
Mof_H 	H 	0.7717	0.2181	0.99437	0.014
Mof_H 	H 	0.8539	0.2248	0.91497	0.008
Mof_H 	H 	0.7758	0.1793	0.88607	0.082
Mof_H 	H 	0.1202	0.2507	0.9693	0.028
Mof_H 	H 	0.1619	0.2256	0.9316	0.088
Mof_H 	H 	0.0835	0.25	0.8603	0.08
Mof_H 	H 	0.0418	0.2752	0.8981	0.018
Mof_H 	H 	0.2989	0.1774	0.8046	0.084
Mof_H 	H 	0.3307	0.1353	0.7718	0.018
Mof_H 	H 	0.1894	0.0556	0.7284	0.019
Mof_H 	H 	0.1576	0.0977	0.7612	0.084
Mof_H 	H 	0.1872	0.4753	0.0648	0.016
Mof_H 	H 	0.2584	0.5073	0.1	0.085
Mof_H 	H 	0.2045	0.3612	0.135	0.085
Mof_H 	H 	0.1333	0.3292	0.0999	0.022
Mof_H 	H 	0.4838	0.5999	0.1982	0.083
Mof_H 	H 	0.5514	0.6344	0.2359	0.016
Mof_H 	H 	0.4508	0.5393	0.3039	0.026
Mof_H 	H 	0.3832	0.5048	0.2661	0.086
Mof_H 	H 	0.8919	0.3505	0.1192	0.006
Mof_H 	H 	0.8739	0.3857	0.1643	0.088
Mof_H 	H 	0.9931	0.5295	0.141	0.088
Mof_H 	H 	0.0112	0.4943	0.0958	0.005
Mof_H 	H 	0.8274	0.521	0.2988	0.08
Mof_H 	H 	0.7819	0.5536	0.3277	0.014
Mof_H 	H 	0.7752	0.6291	0.2483	0.007
Mof_H 	H 	0.8207	0.5965	0.2194	0.081
Mof_C 	C 	0.7175	0.7688	0.29403	0.391
Mof_C 	C 	0.7347	0.8118	0.27059	-0.141
Mof_C 	C 	0.7494	0.8621	0.28054	0.066
Mof_C 	C 	0.7644	0.9019	0.25813	-0.137
Mof_C 	C 	0.7646	0.8912	0.2257	0.094
Mof_C 	C 	0.7498	0.8407	0.21575	-0.141
Mof_C 	C 	0.7349	0.8011	0.23819	0.067
Mof_C 	C 	0.7837	0.9337	0.20273	-0.044
Mof_C 	C 	0.7987	0.9661	0.18253	-0.005
Mof_C 	C 	0.8176	0.0037	0.15933	0.02
Mof_C 	C 	0.8366	0.0403	0.14133	-0.055
Mof_C 	C 	0.8585	0.0838	0.11933	0.108
Mof_C 	C 	0.8474	0.1241	0.12249	-0.149
Mof_C 	C 	0.8723	0.1679	0.10293	0.081
Mof_C 	C 	0.9085	0.1715	0.08033	-0.159
Mof_C 	C 	0.9197	0.1313	0.0772	0.082
Mof_C 	C 	0.8947	0.0874	0.09673	-0.148
Mof_C 	C 	0.9342	0.2184	0.05913	0.434
Mof_C 	C 	0.6205	0.7278	0.39133	0.426
Mof_C 	C 	0.6008	0.7543	0.41238	-0.162
Mof_C 	C 	0.5479	0.7386	0.41241	0.081
Mof_C 	C 	0.5288	0.7618	0.43323	-0.145
Mof_C 	C 	0.5627	0.8008	0.45409	0.104
Mof_C 	C 	0.6156	0.8166	0.45407	-0.144
Mof_C 	C 	0.6347	0.7934	0.43321	0.079
Mof_C 	C 	0.5409	0.8229	0.47603	-0.044
Mof_C 	C 	0.5197	0.8344	0.49613	0.011
Mof_C 	C 	0.4973	0.8518	0.51723	0.009
Mof_C 	C 	0.4782	0.8655	0.53743	-0.05
Mof_C 	C 	0.4509	0.8781	0.56192	0.099
Mof_C 	C 	0.4124	0.8895	0.55296	-0.147
Mof_C 	C 	0.3919	0.9092	0.57539	0.071
Mof_C 	C 	0.4099	0.9174	0.60679	-0.155
Mof_C 	C 	0.4484	0.9059	0.61575	0.069
Mof_C 	C 	0.4689	0.8863	0.59331	-0.141
Mof_C 	C 	0.392	0.9431	0.62993	0.403
Mof_C 	C 	0.6026	0.5737	0.41093	0.482
Mof_C 	C 	0.5809	0.5341	0.43653	-0.192
Mof_C 	C 	0.6131	0.5256	0.45693	0.096
Mof_C 	C 	0.5922	0.494	0.48373	-0.161
Mof_C 	C 	0.5391	0.4709	0.49023	0.108
Mof_C 	C 	0.5068	0.4794	0.46983	-0.16
Mof_C 	C 	0.5277	0.511	0.44303	0.088
Mof_C 	C 	0.5193	0.4329	0.51553	-0.063
Mof_C 	C 	0.4969	0.3928	0.52993	0.006
Mof_C 	C 	0.4897	0.3507	0.54853	-0.002
Mof_C 	C 	0.4672	0.3194	0.57053	-0.054
Mof_C 	C 	0.4443	0.2726	0.58973	0.1
Mof_C 	C 	0.4571	0.2739	0.62193	-0.15
Mof_C 	C 	0.4377	0.2275	0.63903	0.078
Mof_C 	C 	0.4056	0.1799	0.62403	-0.173
Mof_C 	C 	0.3929	0.1787	0.59193	0.081
Mof_C 	C 	0.4122	0.225	0.57473	-0.151
Mof_C 	C 	0.3808	0.1315	0.64503	0.453
Mof_C 	C 	0.2312	0.9487	0.62737	0.391
Mof_C 	C 	0.1882	0.9229	0.60393	-0.142
Mof_C 	C 	0.1379	0.8873	0.61388	0.066
Mof_C 	C 	0.0981	0.8625	0.59147	-0.138
Mof_C 	C 	0.1088	0.8734	0.55904	0.094
Mof_C 	C 	0.1593	0.9091	0.54909	-0.141
Mof_C 	C 	0.1989	0.9338	0.57153	0.067
Mof_C 	C 	0.0663	0.85	0.53607	-0.044
Mof_C 	C 	0.0339	0.8326	0.51587	-0.005
Mof_C 	C 	0.9963	0.8139	0.49267	0.019
Mof_C 	C 	0.9597	0.7963	0.47467	-0.056
Mof_C 	C 	0.9162	0.7747	0.45267	0.107
Mof_C 	C 	0.8759	0.7233	0.45583	-0.15
Mof_C 	C 	0.8321	0.7044	0.43627	0.081
Mof_C 	C 	0.8285	0.737	0.41367	-0.161
Mof_C 	C 	0.8687	0.7884	0.41054	0.082
Mof_C 	C 	0.9126	0.8073	0.43007	-0.149
Mof_C 	C 	0.7816	0.7158	0.39247	0.435
Mof_C 	C 	0.2722	0.8927	0.72467	0.426
Mof_C 	C 	0.2457	0.8465	0.74572	-0.162
Mof_C 	C 	0.2614	0.8093	0.74575	0.082
Mof_C 	C 	0.2382	0.767	0.76657	-0.146
Mof_C 	C 	0.1992	0.7619	0.78743	0.105
Mof_C 	C 	0.1834	0.799	0.78741	-0.144
Mof_C 	C 	0.2066	0.8413	0.76655	0.079
Mof_C 	C 	0.1771	0.718	0.80937	-0.044
Mof_C 	C 	0.1656	0.6853	0.82947	0.011
Mof_C 	C 	0.1482	0.6455	0.85057	0.009
Mof_C 	C 	0.1345	0.6127	0.87077	-0.05
Mof_C 	C 	0.1219	0.5728	0.89526	0.099
Mof_C 	C 	0.1105	0.5229	0.8863	-0.147
Mof_C 	C 	0.0908	0.4827	0.90873	0.071
Mof_C 	C 	0.0826	0.4925	0.94013	-0.155
Mof_C 	C 	0.0941	0.5425	0.94909	0.069
Mof_C 	C 	0.1137	0.5826	0.92665	-0.141
Mof_C 	C 	0.0569	0.4489	0.96327	0.403
Mof_C 	C 	0.4263	0.0289	0.74427	0.495
Mof_C 	C 	0.4659	0.0468	0.76987	-0.203
Mof_C 	C 	0.4744	0.0875	0.79027	0.104
Mof_C 	C 	0.506	0.0982	0.81707	-0.168
Mof_C 	C 	0.5291	0.0682	0.82357	0.115
Mof_C 	C 	0.5206	0.0274	0.80317	-0.171
Mof_C 	C 	0.489	0.0167	0.77637	0.108
Mof_C 	C 	0.5671	0.0864	0.84887	-0.065
Mof_C 	C 	0.6072	0.1041	0.86327	0.008
Mof_C 	C 	0.6493	0.139	0.88187	-0.002
Mof_C 	C 	0.6806	0.1478	0.90387	-0.053
Mof_C 	C 	0.7274	0.1717	0.92307	0.1
Mof_C 	C 	0.7261	0.1832	0.95527	-0.15
Mof_C 	C 	0.7725	0.2102	0.97237	0.078
Mof_C 	C 	0.8201	0.2257	0.95737	-0.172
Mof_C 	C 	0.8213	0.2142	0.92527	0.081
Mof_C 	C 	0.775	0.1872	0.90807	-0.151
Mof_C 	C 	0.8685	0.2493	0.97837	0.453
Mof_C 	C 	0.0513	0.2825	0.9607	0.392
Mof_C 	C 	0.0771	0.2653	0.93726	-0.143
Mof_C 	C 	0.1127	0.2506	0.94721	0.068
Mof_C 	C 	0.1375	0.2356	0.9248	-0.14
Mof_C 	C 	0.1266	0.2354	0.89237	0.099
Mof_C 	C 	0.0909	0.2502	0.88242	-0.144
Mof_C 	C 	0.0662	0.2651	0.90486	0.069
Mof_C 	C 	0.15	0.2163	0.8694	-0.049
Mof_C 	C 	0.1674	0.2013	0.8492	0.008
Mof_C 	C 	0.1861	0.1824	0.826	0.008
Mof_C 	C 	0.2037	0.1634	0.808	-0.05
Mof_C 	C 	0.2253	0.1415	0.786	0.103
Mof_C 	C 	0.2767	0.1526	0.78916	-0.147
Mof_C 	C 	0.2956	0.1277	0.7696	0.079
Mof_C 	C 	0.263	0.0915	0.747	-0.158
Mof_C 	C 	0.2116	0.0803	0.74387	0.08
Mof_C 	C 	0.1927	0.1053	0.7634	-0.146
Mof_C 	C 	0.2842	0.0658	0.7258	0.434
Mof_C 	C 	0.1073	0.3795	0.058	0.426
Mof_C 	C 	0.1535	0.3992	0.07905	-0.162
Mof_C 	C 	0.1907	0.4521	0.07908	0.082
Mof_C 	C 	0.233	0.4712	0.0999	-0.146
Mof_C 	C 	0.2381	0.4373	0.12076	0.105
Mof_C 	C 	0.201	0.3844	0.12074	-0.144
Mof_C 	C 	0.1587	0.3653	0.09988	0.079
Mof_C 	C 	0.282	0.4591	0.1427	-0.044
Mof_C 	C 	0.3147	0.4803	0.1628	0.012
Mof_C 	C 	0.3545	0.5027	0.1839	0.009
Mof_C 	C 	0.3873	0.5218	0.2041	-0.049
Mof_C 	C 	0.4272	0.5491	0.22859	0.099
Mof_C 	C 	0.4771	0.5876	0.21963	-0.147
Mof_C 	C 	0.5173	0.6081	0.24206	0.071
Mof_C 	C 	0.5075	0.5901	0.27346	-0.154
Mof_C 	C 	0.4575	0.5516	0.28242	0.069
Mof_C 	C 	0.4174	0.5311	0.25998	-0.141
Mof_C 	C 	0.5511	0.608	0.2966	0.403
Mof_C 	C 	0.9711	0.3974	0.0776	0.495
Mof_C 	C 	0.9532	0.4191	0.1032	-0.203
Mof_C 	C 	0.9125	0.3869	0.1236	0.104
Mof_C 	C 	0.9018	0.4078	0.1504	-0.168
Mof_C 	C 	0.9318	0.4609	0.1569	0.115
Mof_C 	C 	0.9726	0.4932	0.1365	-0.171
Mof_C 	C 	0.9833	0.4723	0.1097	0.107
Mof_C 	C 	0.9136	0.4807	0.1822	-0.065
Mof_C 	C 	0.8959	0.5031	0.1966	0.008
Mof_C 	C 	0.861	0.5103	0.2152	-0.003
Mof_C 	C 	0.8522	0.5328	0.2372	-0.053
Mof_C 	C 	0.8283	0.5557	0.2564	0.1
Mof_C 	C 	0.8168	0.5429	0.2886	-0.15
Mof_C 	C 	0.7898	0.5623	0.3057	0.078
Mof_C 	C 	0.7743	0.5944	0.2907	-0.173
Mof_C 	C 	0.7858	0.6071	0.2586	0.081
Mof_C 	C 	0.8128	0.5878	0.2414	-0.151
Mof_C 	C 	0.7507	0.6192	0.3117	0.453
Mof_O 	O 	0.6662	0.6579	0.34576	-0.96
Mof_O 	O 	0.723	0.781	0.32315	-0.483
Mof_O 	O 	0.7046	0.7235	0.28271	-0.493
Mof_O 	O 	0.9177	0.2495	0.06033	-0.501
Mof_O 	O 	0.9736	0.2258	0.04393	-0.505
Mof_O 	O 	0.669	0.7456	0.38995	-0.502
Mof_O 	O 	0.588	0.6874	0.37721	-0.507
Mof_O 	O 	0.4003	0.9414	0.65873	-0.506
Mof_O 	O 	0.3653	0.9627	0.61843	-0.524
Mof_O 	O 	0.5744	0.5802	0.39333	-0.55
Mof_O 	O 	0.6469	0.583	0.40203	-0.535
Mof_O 	O 	0.3987	0.1358	0.67173	-0.556
Mof_O 	O 	0.3536	0.0897	0.63063	-0.53
Mof_O 	O 	0.3421	0.0083	0.6791	-0.956
Mof_O 	O 	0.219	0.942	0.65649	-0.484
Mof_O 	O 	0.2765	0.9811	0.61605	-0.495
Mof_O 	O 	0.7505	0.6682	0.39367	-0.502
Mof_O 	O 	0.7742	0.7478	0.37727	-0.509
Mof_O 	O 	0.2544	0.9234	0.72329	-0.503
Mof_O 	O 	0.3126	0.9006	0.71055	-0.507
Mof_O 	O 	0.0586	0.4589	0.99207	-0.506
Mof_O 	O 	0.0373	0.4026	0.95177	-0.524
Mof_O 	O 	0.4198	0.9942	0.72667	-0.557
Mof_O 	O 	0.417	0.0639	0.73537	-0.537
Mof_O 	O 	0.8642	0.2629	0.00507	-0.556
Mof_O 	O 	0.9103	0.2639	0.96397	-0.53
Mof_O 	O 	0.9917	0.3338	0.01243	-0.956
Mof_O 	O 	0.058	0.277	0.98982	-0.484
Mof_O 	O 	0.0189	0.2954	0.94938	-0.495
Mof_O 	O 	0.3318	0.0823	0.727	-0.501
Mof_O 	O 	0.2522	0.0264	0.7106	-0.506
Mof_O 	O 	0.0766	0.331	0.05662	-0.503
Mof_O 	O 	0.0994	0.412	0.04388	-0.507
Mof_O 	O 	0.5411	0.5997	0.3254	-0.506
Mof_O 	O 	0.5974	0.6347	0.2851	-0.522
Mof_O 	O 	0.0058	0.4256	0.06	-0.557
Mof_O 	O 	0.9361	0.3531	0.0687	-0.537
Mof_O 	O 	0.7371	0.6013	0.3384	-0.557
Mof_O 	O 	0.7361	0.6464	0.2973	-0.531
Mof_Zn	Zn	0.37527	0.31007	0.98149	1.213
Mof_Zn	Zn	0.37062	0.41599	0.9889	1.179
Mof_Zn	Zn	0.2652	0.30169	0.97914	1.215
Mof_Zn	Zn	0.32869	0.33011	0.04285	1.207
Mof_Zn	Zn	0.9348	0.62473	0.64816	1.214
Mof_Zn	Zn	0.04537	0.62938	0.65557	1.179
Mof_Zn	Zn	0.03649	0.7348	0.64581	1.215
Mof_Zn	Zn	0.00142	0.67131	0.70952	1.206
Mof_Zn	Zn	0.68993	0.0652	0.31482	1.214
Mof_Zn	Zn	0.58401	0.95463	0.32223	1.179
Mof_Zn	Zn	0.69831	0.96351	0.31247	1.215
Mof_Zn	Zn	0.66989	0.99858	0.37618	1.206
Mof_H 	H 	0.46	0.4703	0.9027	0.015
Mof_H 	H 	0.5296	0.5138	0.8668	0.079
Mof_H 	H 	0.5967	0.4333	0.9019	0.079
Mof_H 	H 	0.5271	0.3898	0.9378	0.018
Mof_H 	H 	0.7133	0.541	0.7305	0.088
Mof_H 	H 	0.7852	0.5701	0.6961	0.027
Mof_H 	H 	0.8799	0.5966	0.7725	0.023
Mof_H 	H 	0.808	0.5675	0.8069	0.078
Mof_H 	H 	0.1889	0.1564	0.9289	0.02
Mof_H 	H 	0.1597	0.0882	0.8917	0.085
Mof_H 	H 	0.3099	0.1307	0.871	0.084
Mof_H 	H 	0.3391	0.1988	0.9083	0.027
Mof_H 	H 	0.0742	0.8635	0.8017	0.083
Mof_H 	H 	0.033	0.7934	0.7661	0.024
Mof_H 	H 	0.1308	0.883	0.6953	0.026
Mof_H 	H 	0.172	0.9531	0.731	0.086
Mof_H 	H 	0.041	0.5901	0.776	0.02
Mof_H 	H 	0.0774	0.547	0.8035	0.078
Mof_H 	H 	0.2045	0.6152	0.7457	0.075
Mof_H 	H 	0.1682	0.6583	0.7182	0.019
Mof_H 	H 	0.1685	0.3837	0.8678	0.081
Mof_H 	H 	0.1958	0.3462	0.9072	0.026
Mof_H 	H 	0.3244	0.4872	0.9236	0.011
Mof_H 	H 	0.297	0.5248	0.8843	0.081
Mof_H 	H 	0.0103	0.54	0.56937	0.005
Mof_H 	H 	0.9842	0.4704	0.53347	0.084
Mof_H 	H 	0.8366	0.4033	0.56857	0.081
Mof_H 	H 	0.8627	0.4729	0.60447	0.015
Mof_H 	H 	0.8277	0.2867	0.39717	0.088
Mof_H 	H 	0.7849	0.2148	0.36277	0.027
Mof_H 	H 	0.7167	0.1201	0.43917	0.023
Mof_H 	H 	0.7595	0.192	0.47357	0.078
Mof_H 	H 	0.9675	0.8111	0.59557	0.021
Mof_H 	H 	0.9285	0.8403	0.55837	0.084
Mof_H 	H 	0.8208	0.6901	0.53767	0.082
Mof_H 	H 	0.8597	0.6609	0.57497	0.028
Mof_H 	H 	0.7893	0.9258	0.46837	0.084
Mof_H 	H 	0.7604	0.967	0.43277	0.023
Mof_H 	H 	0.7522	0.8692	0.36197	0.025
Mof_H 	H 	0.7811	0.828	0.39767	0.088
Mof_H 	H 	0.5491	0.959	0.44267	0.02
Mof_H 	H 	0.4696	0.9226	0.47017	0.078
Mof_H 	H 	0.4107	0.7955	0.41237	0.075
Mof_H 	H 	0.4901	0.8318	0.38487	0.019
Mof_H 	H 	0.2152	0.8315	0.53447	0.081
Mof_H 	H 	0.1504	0.8042	0.57387	0.026
Mof_H 	H 	0.1628	0.6756	0.59027	0.01
Mof_H 	H 	0.2278	0.703	0.55097	0.081
Mof_H 	H 	0.5297	0.9897	0.23603	0.005
Mof_H 	H 	0.4862	0.0158	0.20013	0.084
Mof_H 	H 	0.5667	0.1634	0.23523	0.081
Mof_H 	H 	0.6102	0.1373	0.27113	0.015
Mof_H 	H 	0.459	0.1723	0.06383	0.088
Mof_H 	H 	0.4299	0.2151	0.02943	0.027
Mof_H 	H 	0.4034	0.2833	0.10583	0.022
Mof_H 	H 	0.4325	0.2405	0.14023	0.078
Mof_H 	H 	0.8436	0.0325	0.26223	0.021
Mof_H 	H 	0.9118	0.0715	0.22503	0.086
Mof_H 	H 	0.8693	0.1792	0.20433	0.084
Mof_H 	H 	0.8012	0.1403	0.24163	0.027
Mof_H 	H 	0.1365	0.2107	0.13503	0.083
Mof_H 	H 	0.2066	0.2396	0.09943	0.025
Mof_H 	H 	0.117	0.2478	0.02863	0.026
Mof_H 	H 	0.0469	0.2189	0.06433	0.086
Mof_H 	H 	0.4099	0.4509	0.10933	0.021
Mof_H 	H 	0.453	0.5304	0.13683	0.079
Mof_H 	H 	0.3848	0.5893	0.07903	0.075
Mof_H 	H 	0.3417	0.5099	0.05153	0.019
Mof_H 	H 	0.6163	0.7848	0.20113	0.081
Mof_H 	H 	0.6538	0.8496	0.24053	0.026
Mof_H 	H 	0.5128	0.8372	0.25693	0.01
Mof_H 	H 	0.4752	0.7722	0.21763	0.081
Mof_C 	C 	0.4418	0.3964	0.9464	0.406
Mof_C 	C 	0.4871	0.4261	0.9236	-0.151
Mof_C 	C 	0.4878	0.4628	0.9026	0.066
Mof_C 	C 	0.5291	0.4886	0.8812	-0.141
Mof_C 	C 	0.5697	0.4776	0.881	0.095
Mof_C 	C 	0.5689	0.4407	0.902	-0.141
Mof_C 	C 	0.5276	0.415	0.9234	0.067
Mof_C 	C 	0.6075	0.4983	0.8554	-0.048
Mof_C 	C 	0.6424	0.5107	0.8371	0.005
Mof_C 	C 	0.6758	0.5247	0.8113	0.01
Mof_C 	C 	0.7099	0.538	0.7923	-0.052
Mof_C 	C 	0.7539	0.5516	0.77191	0.098
Mof_C 	C 	0.7471	0.5523	0.73901	-0.142
Mof_C 	C 	0.7898	0.5696	0.71861	0.064
Mof_C 	C 	0.8393	0.5861	0.7311	-0.14
Mof_C 	C 	0.8461	0.5854	0.764	0.063
Mof_C 	C 	0.8034	0.5681	0.7844	-0.142
Mof_C 	C 	0.8857	0.6089	0.7094	0.392
Mof_C 	C 	0.2853	0.2287	0.9444	0.407
Mof_C 	C 	0.2667	0.184	0.92208	-0.151
Mof_C 	C 	0.2135	0.1512	0.9172	0.075
Mof_C 	C 	0.1961	0.1106	0.895	-0.143
Mof_C 	C 	0.2321	0.1031	0.87786	0.104
Mof_C 	C 	0.2853	0.1358	0.8828	-0.142
Mof_C 	C 	0.3027	0.1764	0.9049	0.072
Mof_C 	C 	0.2144	0.0607	0.8551	-0.054
Mof_C 	C 	0.1957	0.0271	0.8355	0.02
Mof_C 	C 	0.1749	0.9901	0.8129	-0.008
Mof_C 	C 	0.156	0.9559	0.7929	-0.045
Mof_C 	C 	0.127	0.9149	0.76974	0.097
Mof_C 	C 	0.0857	0.8675	0.78014	-0.144
Mof_C 	C 	0.0612	0.8258	0.75895	0.072
Mof_C 	C 	0.078	0.8316	0.72734	-0.152
Mof_C 	C 	0.1193	0.879	0.71694	0.073
Mof_C 	C 	0.1438	0.9207	0.73814	-0.142
Mof_C 	C 	0.0517	0.7854	0.7063	0.415
Mof_C 	C 	0.0786	0.6557	0.7257	0.358
Mof_C 	C 	0.1012	0.6283	0.7445	-0.142
Mof_C 	C 	0.0742	0.5952	0.7698	0.056
Mof_C 	C 	0.0958	0.5696	0.7862	-0.136
Mof_C 	C 	0.1444	0.577	0.7772	0.09
Mof_C 	C 	0.1713	0.6101	0.7519	-0.137
Mof_C 	C 	0.1497	0.6357	0.73545	0.051
Mof_C 	C 	0.1628	0.5487	0.796	-0.052
Mof_C 	C 	0.1823	0.5278	0.8107	0.001
Mof_C 	C 	0.1996	0.4995	0.8269	0.002
Mof_C 	C 	0.2142	0.4816	0.8479	-0.052
Mof_C 	C 	0.2302	0.4578	0.8724	0.099
Mof_C 	C 	0.2001	0.4047	0.8792	-0.142
Mof_C 	C 	0.2164	0.3824	0.9025	0.074
Mof_C 	C 	0.2627	0.4132	0.91904	-0.156
Mof_C 	C 	0.2927	0.4662	0.9123	0.079
Mof_C 	C 	0.2765	0.4885	0.8889	-0.147
Mof_C 	C 	0.2772	0.3888	0.9452	0.428
Mof_C 	C 	0.9546	0.5582	0.61307	0.416
Mof_C 	C 	0.939	0.5129	0.59027	-0.16
Mof_C 	C 	0.975	0.5122	0.56927	0.085
Mof_C 	C 	0.9595	0.4709	0.54787	-0.151
Mof_C 	C 	0.9079	0.4303	0.54767	0.102
Mof_C 	C 	0.8718	0.4311	0.56867	-0.147
Mof_C 	C 	0.8874	0.4724	0.59007	0.074
Mof_C 	C 	0.8908	0.3925	0.52207	-0.05
Mof_C 	C 	0.8683	0.3576	0.50377	0.007
Mof_C 	C 	0.8489	0.3242	0.47797	0.009
Mof_C 	C 	0.8281	0.2901	0.45897	-0.051
Mof_C 	C 	0.7977	0.2461	0.43858	0.098
Mof_C 	C 	0.8052	0.2529	0.40568	-0.142
Mof_C 	C 	0.7798	0.2102	0.38528	0.064
Mof_C 	C 	0.7468	0.1607	0.39777	-0.14
Mof_C 	C 	0.7393	0.1539	0.43067	0.063
Mof_C 	C 	0.7647	0.1966	0.45107	-0.142
Mof_C 	C 	0.7232	0.1143	0.37607	0.392
Mof_C 	C 	0.9434	0.7147	0.61107	0.406
Mof_C 	C 	0.9173	0.7333	0.58875	-0.148
Mof_C 	C 	0.9377	0.7865	0.58387	0.073
Mof_C 	C 	0.9145	0.8039	0.56167	-0.14
Mof_C 	C 	0.871	0.7679	0.54453	0.099
Mof_C 	C 	0.8505	0.7147	0.54947	-0.139
Mof_C 	C 	0.8737	0.6973	0.57157	0.069
Mof_C 	C 	0.8463	0.7856	0.52177	-0.048
Mof_C 	C 	0.8314	0.8043	0.50217	0.007
Mof_C 	C 	0.8152	0.8251	0.47957	0.005
Mof_C 	C 	0.7999	0.844	0.45957	-0.05
Mof_C 	C 	0.7879	0.873	0.43641	0.102
Mof_C 	C 	0.7818	0.9143	0.44681	-0.147
Mof_C 	C 	0.7646	0.9388	0.42562	0.074
Mof_C 	C 	0.7536	0.922	0.39401	-0.153
Mof_C 	C 	0.7597	0.8807	0.38361	0.076
Mof_C 	C 	0.7769	0.8562	0.40481	-0.145
Mof_C 	C 	0.7337	0.9483	0.37297	0.416
Mof_C 	C 	0.5771	0.9214	0.39237	0.358
Mof_C 	C 	0.5271	0.8988	0.41117	-0.142
Mof_C 	C 	0.521	0.9258	0.43647	0.056
Mof_C 	C 	0.4738	0.9042	0.45287	-0.136
Mof_C 	C 	0.4326	0.8556	0.44387	0.09
Mof_C 	C 	0.4388	0.8287	0.41857	-0.137
Mof_C 	C 	0.486	0.8503	0.40212	0.051
Mof_C 	C 	0.3859	0.8372	0.46267	-0.053
Mof_C 	C 	0.3455	0.8177	0.47737	0.001
Mof_C 	C 	0.2999	0.8004	0.49357	0.002
Mof_C 	C 	0.2674	0.7858	0.51457	-0.052
Mof_C 	C 	0.2276	0.7698	0.53907	0.099
Mof_C 	C 	0.2046	0.7999	0.54587	-0.142
Mof_C 	C 	0.166	0.7836	0.56917	0.073
Mof_C 	C 	0.1505	0.7373	0.58571	-0.156
Mof_C 	C 	0.1735	0.7073	0.57897	0.079
Mof_C 	C 	0.212	0.7235	0.55557	-0.147
Mof_C 	C 	0.1116	0.7228	0.61187	0.428
Mof_C 	C 	0.6036	0.0454	0.27973	0.416
Mof_C 	C 	0.5739	0.061	0.25693	-0.16
Mof_C 	C 	0.5372	0.025	0.23593	0.085
Mof_C 	C 	0.5114	0.0405	0.21453	-0.151
Mof_C 	C 	0.5224	0.0921	0.21433	0.102
Mof_C 	C 	0.5593	0.1282	0.23533	-0.147
Mof_C 	C 	0.585	0.1126	0.25673	0.074
Mof_C 	C 	0.5017	0.1092	0.18873	-0.05
Mof_C 	C 	0.4893	0.1317	0.17043	0.007
Mof_C 	C 	0.4753	0.1511	0.14463	0.009
Mof_C 	C 	0.462	0.1719	0.12563	-0.051
Mof_C 	C 	0.4484	0.2023	0.10524	0.098
Mof_C 	C 	0.4477	0.1948	0.07234	-0.142
Mof_C 	C 	0.4304	0.2202	0.05194	0.065
Mof_C 	C 	0.4139	0.2532	0.06443	-0.14
Mof_C 	C 	0.4146	0.2607	0.09733	0.063
Mof_C 	C 	0.4319	0.2353	0.11773	-0.142
Mof_C 	C 	0.3911	0.2768	0.04273	0.393
Mof_C 	C 	0.7713	0.0566	0.27773	0.407
Mof_C 	C 	0.816	0.0827	0.25541	-0.15
Mof_C 	C 	0.8488	0.0623	0.25053	0.075
Mof_C 	C 	0.8894	0.0855	0.22833	-0.143
Mof_C 	C 	0.8969	0.129	0.21119	0.104
Mof_C 	C 	0.8642	0.1495	0.21613	-0.141
Mof_C 	C 	0.8236	0.1263	0.23823	0.071
Mof_C 	C 	0.9393	0.1537	0.18843	-0.054
Mof_C 	C 	0.9729	0.1686	0.16883	0.02
Mof_C 	C 	0.0099	0.1848	0.14623	-0.008
Mof_C 	C 	0.0441	0.2001	0.12623	-0.044
Mof_C 	C 	0.0851	0.2121	0.10307	0.097
Mof_C 	C 	0.1325	0.2182	0.11347	-0.143
Mof_C 	C 	0.1742	0.2354	0.09228	0.071
Mof_C 	C 	0.1684	0.2464	0.06067	-0.151
Mof_C 	C 	0.121	0.2403	0.05027	0.073
Mof_C 	C 	0.0793	0.2231	0.07147	-0.142
Mof_C 	C 	0.2146	0.2663	0.03963	0.415
Mof_C 	C 	0.3443	0.4229	0.05903	0.358
Mof_C 	C 	0.3717	0.4729	0.07783	-0.141
Mof_C 	C 	0.4048	0.479	0.10313	0.056
Mof_C 	C 	0.4304	0.5262	0.11953	-0.135
Mof_C 	C 	0.423	0.5674	0.11053	0.09
Mof_C 	C 	0.3899	0.5612	0.08523	-0.137
Mof_C 	C 	0.3643	0.514	0.06878	0.051
Mof_C 	C 	0.4513	0.6141	0.12933	-0.052
Mof_C 	C 	0.4722	0.6545	0.14403	0.001
Mof_C 	C 	0.5005	0.7001	0.16023	0.003
Mof_C 	C 	0.5184	0.7326	0.18123	-0.052
Mof_C 	C 	0.5422	0.7724	0.20573	0.099
Mof_C 	C 	0.5953	0.7954	0.21253	-0.143
Mof_C 	C 	0.6176	0.834	0.23583	0.074
Mof_C 	C 	0.5868	0.8495	0.25237	-0.157
Mof_C 	C 	0.5338	0.8265	0.24563	0.079
Mof_C 	C 	0.5115	0.788	0.22223	-0.147
Mof_C 	C 	0.6112	0.8884	0.27853	0.428
Mof_O 	O 	0.3355	0.3398	0.99686	-0.959
Mof_O 	O 	0.4389	0.3578	0.95974	-0.519
Mof_O 	O 	0.411	0.4137	0.9504	-0.525
Mof_O 	O 	0.9294	0.6304	0.72386	-0.51
Mof_O 	O 	0.8787	0.6043	0.67968	-0.499
Mof_O 	O 	0.3336	0.2548	0.94966	-0.496
Mof_O 	O 	0.2517	0.238	0.95668	-0.497
Mof_O 	O 	0.0672	0.7916	0.67748	-0.494
Mof_O 	O 	0.0185	0.7443	0.71867	-0.511
Mof_O 	O 	0.0951	0.6711	0.6991	-0.487
Mof_O 	O 	0.0408	0.657	0.7397	-0.489
Mof_O 	O 	0.3156	0.4192	0.9619	-0.503
Mof_O 	O 	0.2527	0.3401	0.94619	-0.501
Mof_O 	O 	0.0043	0.6645	0.66353	-0.962
Mof_O 	O 	0.9189	0.5611	0.62641	-0.521
Mof_O 	O 	0.0027	0.589	0.61707	-0.532
Mof_O 	O 	0.701	0.0706	0.39053	-0.51
Mof_O 	O 	0.7256	0.1213	0.34635	-0.499
Mof_O 	O 	0.9212	0.6664	0.61633	-0.495
Mof_O 	O 	0.9863	0.7483	0.62335	-0.494
Mof_O 	O 	0.7244	0.9328	0.34415	-0.494
Mof_O 	O 	0.7258	0.9815	0.38534	-0.511
Mof_O 	O 	0.576	0.9049	0.36577	-0.487
Mof_O 	O 	0.6162	0.9592	0.40637	-0.489
Mof_O 	O 	0.1036	0.6844	0.62857	-0.504
Mof_O 	O 	0.0874	0.7473	0.61286	-0.502
Mof_O 	O 	0.6602	0.9957	0.33019	-0.962
Mof_O 	O 	0.6422	0.0811	0.29307	-0.521
Mof_O 	O 	0.5863	0.9973	0.28373	-0.532
Mof_O 	O 	0.3696	0.299	0.05719	-0.512
Mof_O 	O 	0.3957	0.2744	0.01301	-0.5
Mof_O 	O 	0.7452	0.0788	0.28299	-0.495
Mof_O 	O 	0.762	0.0137	0.29001	-0.494
Mof_O 	O 	0.2084	0.2756	0.01081	-0.493
Mof_O 	O 	0.2557	0.2742	0.052	-0.509
Mof_O 	O 	0.3289	0.424	0.03243	-0.487
Mof_O 	O 	0.343	0.3838	0.07303	-0.488
Mof_O 	O 	0.5808	0.8964	0.29523	-0.504
Mof_O 	O 	0.6599	0.9126	0.27952	-0.502
Mof_Zn	Zn	0.9348	0.31007	0.35184	1.214
Mof_Zn	Zn	0.04537	0.41599	0.34443	1.179
Mof_Zn	Zn	0.03649	0.30169	0.35419	1.215
Mof_Zn	Zn	0.00142	0.33011	0.29048	1.206
Mof_Zn	Zn	0.68993	0.62473	0.68518	1.213
Mof_Zn	Zn	0.58401	0.62938	0.67777	1.179
Mof_Zn	Zn	0.69831	0.7348	0.68753	1.215
Mof_Zn	Zn	0.66989	0.67131	0.62382	1.207
Mof_Zn	Zn	0.37527	0.0652	0.01851	1.214
Mof_Zn	Zn	0.37062	0.95463	0.0111	1.179
Mof_Zn	Zn	0.2652	0.96351	0.02086	1.215
Mof_Zn	Zn	0.32869	0.99858	0.95715	1.206
Mof_H 	H 	0.0103	0.4703	0.43063	0.005
Mof_H 	H 	0.9842	0.5138	0.46653	0.084
Mof_H 	H 	0.8366	0.4333	0.43143	0.081
Mof_H 	H 	0.8627	0.3898	0.39553	0.015
Mof_H 	H 	0.8277	0.541	0.60283	0.088
Mof_H 	H 	0.7849	0.5701	0.63723	0.027
Mof_H 	H 	0.7167	0.5966	0.56083	0.022
Mof_H 	H 	0.7595	0.5675	0.52643	0.078
Mof_H 	H 	0.9675	0.1564	0.40443	0.021
Mof_H 	H 	0.9285	0.0882	0.44163	0.086
Mof_H 	H 	0.8208	0.1307	0.46233	0.084
Mof_H 	H 	0.8597	0.1988	0.42503	0.027
Mof_H 	H 	0.7893	0.8635	0.53163	0.083
Mof_H 	H 	0.7604	0.7934	0.56723	0.025
Mof_H 	H 	0.7522	0.883	0.63803	0.026
Mof_H 	H 	0.7811	0.9531	0.60233	0.086
Mof_H 	H 	0.5491	0.5901	0.55733	0.021
Mof_H 	H 	0.4696	0.547	0.52983	0.079
Mof_H 	H 	0.4107	0.6152	0.58763	0.075
Mof_H 	H 	0.4901	0.6583	0.61513	0.019
Mof_H 	H 	0.2152	0.3837	0.46553	0.081
Mof_H 	H 	0.1504	0.3462	0.42613	0.026
Mof_H 	H 	0.1628	0.4872	0.40973	0.01
Mof_H 	H 	0.2278	0.5248	0.44903	0.081
Mof_H 	H 	0.5297	0.54	0.76397	0.015
Mof_H 	H 	0.4862	0.4704	0.79987	0.079
Mof_H 	H 	0.5667	0.4033	0.76477	0.079
Mof_H 	H 	0.6102	0.4729	0.72887	0.018
Mof_H 	H 	0.459	0.2867	0.93617	0.088
Mof_H 	H 	0.4299	0.2148	0.97057	0.027
Mof_H 	H 	0.4034	0.1201	0.89417	0.023
Mof_H 	H 	0.4325	0.192	0.85977	0.078
Mof_H 	H 	0.8436	0.8111	0.73777	0.019
Mof_H 	H 	0.9118	0.8403	0.77497	0.085
Mof_H 	H 	0.8693	0.6901	0.79567	0.084
Mof_H 	H 	0.8012	0.6609	0.75837	0.027
Mof_H 	H 	0.1365	0.9258	0.86497	0.083
Mof_H 	H 	0.2066	0.967	0.90057	0.024
Mof_H 	H 	0.117	0.8692	0.97137	0.026
Mof_H 	H 	0.0469	0.828	0.93567	0.086
Mof_H 	H 	0.4099	0.959	0.89067	0.02
Mof_H 	H 	0.453	0.9226	0.86317	0.078
Mof_H 	H 	0.3848	0.7955	0.92097	0.075
Mof_H 	H 	0.3417	0.8318	0.94847	0.019
Mof_H 	H 	0.6163	0.8315	0.79887	0.081
Mof_H 	H 	0.6538	0.8042	0.75947	0.026
Mof_H 	H 	0.5128	0.6756	0.74307	0.011
Mof_H 	H 	0.4752	0.703	0.78237	0.081
Mof_H 	H 	0.46	0.9897	0.0973	0.005
Mof_H 	H 	0.5296	0.0158	0.1332	0.084
Mof_H 	H 	0.5967	0.1634	0.0981	0.081
Mof_H 	H 	0.5271	0.1373	0.0622	0.015
Mof_H 	H 	0.7133	0.1723	0.2695	0.088
Mof_H 	H 	0.7852	0.2151	0.3039	0.027
Mof_H 	H 	0.8799	0.2833	0.2275	0.023
Mof_H 	H 	0.808	0.2405	0.1931	0.078
Mof_H 	H 	0.1889	0.0325	0.0711	0.021
Mof_H 	H 	0.1597	0.0715	0.1083	0.084
Mof_H 	H 	0.3099	0.1792	0.129	0.082
Mof_H 	H 	0.3391	0.1403	0.0917	0.028
Mof_H 	H 	0.0742	0.2107	0.1983	0.084
Mof_H 	H 	0.033	0.2396	0.2339	0.023
Mof_H 	H 	0.1308	0.2478	0.3047	0.025
Mof_H 	H 	0.172	0.2189	0.269	0.088
Mof_H 	H 	0.041	0.4509	0.224	0.02
Mof_H 	H 	0.0774	0.5304	0.1965	0.078
Mof_H 	H 	0.2045	0.5893	0.2543	0.075
Mof_H 	H 	0.1682	0.5099	0.2818	0.019
Mof_H 	H 	0.1685	0.7848	0.1322	0.081
Mof_H 	H 	0.1958	0.8496	0.0928	0.026
Mof_H 	H 	0.3244	0.8372	0.0764	0.01
Mof_H 	H 	0.297	0.7722	0.1157	0.081
Mof_C 	C 	0.9546	0.3964	0.38693	0.416
Mof_C 	C 	0.939	0.4261	0.40973	-0.16
Mof_C 	C 	0.975	0.4628	0.43073	0.085
Mof_C 	C 	0.9595	0.4886	0.45213	-0.151
Mof_C 	C 	0.9079	0.4776	0.45233	0.102
Mof_C 	C 	0.8718	0.4407	0.43133	-0.147
Mof_C 	C 	0.8874	0.415	0.40993	0.074
Mof_C 	C 	0.8908	0.4983	0.47793	-0.05
Mof_C 	C 	0.8683	0.5107	0.49623	0.007
Mof_C 	C 	0.8489	0.5247	0.52203	0.009
Mof_C 	C 	0.8281	0.538	0.54103	-0.051
Mof_C 	C 	0.7977	0.5516	0.56142	0.098
Mof_C 	C 	0.8052	0.5523	0.59432	-0.142
Mof_C 	C 	0.7798	0.5696	0.61472	0.065
Mof_C 	C 	0.7468	0.5861	0.60223	-0.14
Mof_C 	C 	0.7393	0.5854	0.56933	0.063
Mof_C 	C 	0.7647	0.5681	0.54893	-0.142
Mof_C 	C 	0.7232	0.6089	0.62393	0.393
Mof_C 	C 	0.9434	0.2287	0.38893	0.407
Mof_C 	C 	0.9173	0.184	0.41125	-0.15
Mof_C 	C 	0.9377	0.1512	0.41613	0.075
Mof_C 	C 	0.9145	0.1106	0.43833	-0.143
Mof_C 	C 	0.871	0.1031	0.45547	0.104
Mof_C 	C 	0.8505	0.1358	0.45053	-0.141
Mof_C 	C 	0.8737	0.1764	0.42843	0.071
Mof_C 	C 	0.8463	0.0607	0.47823	-0.054
Mof_C 	C 	0.8314	0.0271	0.49783	0.02
Mof_C 	C 	0.8152	0.9901	0.52043	-0.008
Mof_C 	C 	0.7999	0.9559	0.54043	-0.044
Mof_C 	C 	0.7879	0.9149	0.56359	0.097
Mof_C 	C 	0.7818	0.8675	0.55319	-0.143
Mof_C 	C 	0.7646	0.8258	0.57438	0.071
Mof_C 	C 	0.7536	0.8316	0.60599	-0.151
Mof_C 	C 	0.7597	0.879	0.61639	0.073
Mof_C 	C 	0.7769	0.9207	0.59519	-0.142
Mof_C 	C 	0.7337	0.7854	0.62703	0.415
Mof_C 	C 	0.5771	0.6557	0.60763	0.358
Mof_C 	C 	0.5271	0.6283	0.58883	-0.141
Mof_C 	C 	0.521	0.5952	0.56353	0.056
Mof_C 	C 	0.4738	0.5696	0.54713	-0.135
Mof_C 	C 	0.4326	0.577	0.55613	0.09
Mof_C 	C 	0.4388	0.6101	0.58143	-0.137
Mof_C 	C 	0.486	0.6357	0.59788	0.051
Mof_C 	C 	0.3859	0.5487	0.53733	-0.052
Mof_C 	C 	0.3455	0.5278	0.52263	0.001
Mof_C 	C 	0.2999	0.4995	0.50643	0.003
Mof_C 	C 	0.2674	0.4816	0.48543	-0.052
Mof_C 	C 	0.2276	0.4578	0.46093	0.099
Mof_C 	C 	0.2046	0.4047	0.45413	-0.143
Mof_C 	C 	0.166	0.3824	0.43083	0.074
Mof_C 	C 	0.1505	0.4132	0.41429	-0.157
Mof_C 	C 	0.1735	0.4662	0.42103	0.079
Mof_C 	C 	0.212	0.4885	0.44443	-0.147
Mof_C 	C 	0.1116	0.3888	0.38813	0.428
Mof_C 	C 	0.6036	0.5582	0.72027	0.406
Mof_C 	C 	0.5739	0.5129	0.74307	-0.151
Mof_C 	C 	0.5372	0.5122	0.76407	0.066
Mof_C 	C 	0.5114	0.4709	0.78547	-0.141
Mof_C 	C 	0.5224	0.4303	0.78567	0.095
Mof_C 	C 	0.5593	0.4311	0.76467	-0.141
Mof_C 	C 	0.585	0.4724	0.74327	0.067
Mof_C 	C 	0.5017	0.3925	0.81127	-0.048
Mof_C 	C 	0.4893	0.3576	0.82957	0.005
Mof_C 	C 	0.4753	0.3242	0.85537	0.01
Mof_C 	C 	0.462	0.2901	0.87437	-0.052
Mof_C 	C 	0.4484	0.2461	0.89476	0.098
Mof_C 	C 	0.4477	0.2529	0.92766	-0.142
Mof_C 	C 	0.4304	0.2102	0.94806	0.064
Mof_C 	C 	0.4139	0.1607	0.93557	-0.14
Mof_C 	C 	0.4146	0.1539	0.90267	0.063
Mof_C 	C 	0.4319	0.1966	0.88227	-0.142
Mof_C 	C 	0.3911	0.1143	0.95727	0.392
Mof_C 	C 	0.7713	0.7147	0.72227	0.407
Mof_C 	C 	0.816	0.7333	0.74459	-0.151
Mof_C 	C 	0.8488	0.7865	0.74947	0.075
Mof_C 	C 	0.8894	0.8039	0.77167	-0.143
Mof_C 	C 	0.8969	0.7679	0.78881	0.104
Mof_C 	C 	0.8642	0.7147	0.78387	-0.142
Mof_C 	C 	0.8236	0.6973	0.76177	0.072
Mof_C 	C 	0.9393	0.7856	0.81157	-0.054
Mof_C 	C 	0.9729	0.8043	0.83117	0.02
Mof_C 	C 	0.0099	0.8251	0.85377	-0.008
Mof_C 	C 	0.0441	0.844	0.87377	-0.045
Mof_C 	C 	0.0851	0.873	0.89693	0.097
Mof_C 	C 	0.1325	0.9143	0.88653	-0.144
Mof_C 	C 	0.1742	0.9388	0.90772	0.072
Mof_C 	C 	0.1684	0.922	0.93933	-0.152
Mof_C 	C 	0.121	0.8807	0.94973	0.073
Mof_C 	C 	0.0793	0.8562	0.92853	-0.142
Mof_C 	C 	0.2146	0.9483	0.96037	0.415
Mof_C 	C 	0.3443	0.9214	0.94097	0.358
Mof_C 	C 	0.3717	0.8988	0.92217	-0.142
Mof_C 	C 	0.4048	0.9258	0.89687	0.056
Mof_C 	C 	0.4304	0.9042	0.88047	-0.136
Mof_C 	C 	0.423	0.8556	0.88947	0.09
Mof_C 	C 	0.3899	0.8287	0.91477	-0.137
Mof_C 	C 	0.3643	0.8503	0.93122	0.051
Mof_C 	C 	0.4513	0.8372	0.87067	-0.052
Mof_C 	C 	0.4722	0.8177	0.85597	0.001
Mof_C 	C 	0.5005	0.8004	0.83977	0.002
Mof_C 	C 	0.5184	0.7858	0.81877	-0.052
Mof_C 	C 	0.5422	0.7698	0.79427	0.099
Mof_C 	C 	0.5953	0.7999	0.78747	-0.142
Mof_C 	C 	0.6176	0.7836	0.76417	0.074
Mof_C 	C 	0.5868	0.7373	0.74763	-0.156
Mof_C 	C 	0.5338	0.7073	0.75437	0.079
Mof_C 	C 	0.5115	0.7235	0.77777	-0.147
Mof_C 	C 	0.6112	0.7228	0.72147	0.428
Mof_C 	C 	0.4418	0.0454	0.0536	0.416
Mof_C 	C 	0.4871	0.061	0.0764	-0.16
Mof_C 	C 	0.4878	0.025	0.0974	0.084
Mof_C 	C 	0.5291	0.0405	0.1188	-0.151
Mof_C 	C 	0.5697	0.0921	0.119	0.102
Mof_C 	C 	0.5689	0.1282	0.098	-0.147
Mof_C 	C 	0.5276	0.1126	0.0766	0.074
Mof_C 	C 	0.6075	0.1092	0.1446	-0.05
Mof_C 	C 	0.6424	0.1317	0.1629	0.007
Mof_C 	C 	0.6758	0.1511	0.1887	0.009
Mof_C 	C 	0.7099	0.1719	0.2077	-0.051
Mof_C 	C 	0.7539	0.2023	0.22809	0.098
Mof_C 	C 	0.7471	0.1948	0.26099	-0.142
Mof_C 	C 	0.7898	0.2202	0.28139	0.064
Mof_C 	C 	0.8393	0.2532	0.2689	-0.14
Mof_C 	C 	0.8461	0.2607	0.236	0.063
Mof_C 	C 	0.8034	0.2353	0.2156	-0.142
Mof_C 	C 	0.8857	0.2768	0.2906	0.392
Mof_C 	C 	0.2853	0.0566	0.0556	0.406
Mof_C 	C 	0.2667	0.0827	0.07792	-0.148
Mof_C 	C 	0.2135	0.0623	0.0828	0.073
Mof_C 	C 	0.1961	0.0855	0.105	-0.14
Mof_C 	C 	0.2321	0.129	0.12214	0.099
Mof_C 	C 	0.2853	0.1495	0.1172	-0.139
Mof_C 	C 	0.3027	0.1263	0.0951	0.069
Mof_C 	C 	0.2144	0.1537	0.1449	-0.048
Mof_C 	C 	0.1957	0.1686	0.1645	0.007
Mof_C 	C 	0.1749	0.1848	0.1871	0.005
Mof_C 	C 	0.156	0.2001	0.2071	-0.05
Mof_C 	C 	0.127	0.2121	0.23026	0.102
Mof_C 	C 	0.0857	0.2182	0.21986	-0.147
Mof_C 	C 	0.0612	0.2354	0.24105	0.074
Mof_C 	C 	0.078	0.2464	0.27266	-0.153
Mof_C 	C 	0.1193	0.2403	0.28306	0.076
Mof_C 	C 	0.1438	0.2231	0.26186	-0.145
Mof_C 	C 	0.0517	0.2663	0.2937	0.416
Mof_C 	C 	0.0786	0.4229	0.2743	0.358
Mof_C 	C 	0.1012	0.4729	0.2555	-0.142
Mof_C 	C 	0.0742	0.479	0.2302	0.056
Mof_C 	C 	0.0958	0.5262	0.2138	-0.136
Mof_C 	C 	0.1444	0.5674	0.2228	0.09
Mof_C 	C 	0.1713	0.5612	0.2481	-0.137
Mof_C 	C 	0.1497	0.514	0.26455	0.051
Mof_C 	C 	0.1628	0.6141	0.204	-0.053
Mof_C 	C 	0.1823	0.6545	0.1893	0.001
Mof_C 	C 	0.1996	0.7001	0.1731	0.002
Mof_C 	C 	0.2142	0.7326	0.1521	-0.052
Mof_C 	C 	0.2302	0.7724	0.1276	0.099
Mof_C 	C 	0.2001	0.7954	0.1208	-0.142
Mof_C 	C 	0.2164	0.834	0.0975	0.073
Mof_C 	C 	0.2627	0.8495	0.08096	-0.156
Mof_C 	C 	0.2927	0.8265	0.0877	0.079
Mof_C 	C 	0.2765	0.788	0.1111	-0.147
Mof_C 	C 	0.2772	0.8884	0.0548	0.428
Mof_O 	O 	0.0043	0.3398	0.33647	-0.962
Mof_O 	O 	0.9189	0.3578	0.37359	-0.521
Mof_O 	O 	0.0027	0.4137	0.38293	-0.532
Mof_O 	O 	0.701	0.6304	0.60947	-0.512
Mof_O 	O 	0.7256	0.6043	0.65365	-0.5
Mof_O 	O 	0.9212	0.2548	0.38367	-0.495
Mof_O 	O 	0.9863	0.238	0.37665	-0.494
Mof_O 	O 	0.7244	0.7916	0.65585	-0.493
Mof_O 	O 	0.7258	0.7443	0.61466	-0.509
Mof_O 	O 	0.576	0.6711	0.63423	-0.487
Mof_O 	O 	0.6162	0.657	0.59363	-0.487
Mof_O 	O 	0.1036	0.4192	0.37143	-0.504
Mof_O 	O 	0.0874	0.3401	0.38714	-0.502
Mof_O 	O 	0.6602	0.6645	0.66981	-0.959
Mof_O 	O 	0.6422	0.5611	0.70693	-0.519
Mof_O 	O 	0.5863	0.589	0.71627	-0.525
Mof_O 	O 	0.3696	0.0706	0.94281	-0.51
Mof_O 	O 	0.3957	0.1213	0.98699	-0.499
Mof_O 	O 	0.7452	0.6664	0.71701	-0.496
Mof_O 	O 	0.762	0.7483	0.70999	-0.497
Mof_O 	O 	0.2084	0.9328	0.98919	-0.494
Mof_O 	O 	0.2557	0.9815	0.948	-0.511
Mof_O 	O 	0.3289	0.9049	0.96757	-0.487
Mof_O 	O 	0.343	0.9592	0.92697	-0.489
Mof_O 	O 	0.5808	0.6844	0.70477	-0.503
Mof_O 	O 	0.6599	0.7473	0.72048	-0.502
Mof_O 	O 	0.3355	0.9957	0.00314	-0.961
Mof_O 	O 	0.4389	0.0811	0.04026	-0.521
Mof_O 	O 	0.411	0.9973	0.0496	-0.532
Mof_O 	O 	0.9294	0.299	0.27614	-0.51
Mof_O 	O 	0.8787	0.2744	0.32032	-0.499
Mof_O 	O 	0.3336	0.0788	0.05034	-0.495
Mof_O 	O 	0.2517	0.0137	0.04332	-0.494
Mof_O 	O 	0.0672	0.2756	0.32252	-0.494
Mof_O 	O 	0.0185	0.2742	0.28133	-0.511
Mof_O 	O 	0.0951	0.424	0.3009	-0.487
Mof_O 	O 	0.0408	0.3838	0.2603	-0.489
Mof_O 	O 	0.3156	0.8964	0.0381	-0.504
Mof_O 	O 	0.2527	0.9126	0.05381	-0.502
_end
