data_functionalizedCrystal
_audit_creation_method	'EQeq! by Chris Wilmer'
_symmetry_space_group_name_H-M	'P1'
_symmetry_Int_Tables_number	1
_symmetry_cell_setting	triclinic
loop_
_symmetry_equiv_pos_as_xyz
  x,y,z
_cell_length_a	10.1
_cell_length_b	30.1381
_cell_length_c	12.6679
_cell_angle_alpha	90
_cell_angle_beta	126.597
_cell_angle_gamma	90
loop_
_atom_site_label
_atom_site_type_symbol
_atom_site_fract_x
_atom_site_fract_y
_atom_site_fract_z
_atom_site_charge
Mof_Cd	Cd	0.12821	0.30677	0.07976	0.433
Mof_Cd	Cd	0.96967	0.40848	0.89017	0.478
Mof_S 	S 	0.47021	0.40497	0.40271	0.056
Mof_S 	S 	0.56018	0.31498	0.00382	0.078
Mof_C 	C 	0.1677	0.4132	0.1629	0.308
Mof_C 	C 	0.2753	0.4259	0.3035	-0.083
Mof_C 	C 	0.2439	0.45357	0.3705	-0.018
Mof_H 	H 	0.1442	0.4683	0.3326	0.046
Mof_C 	C 	0.3787	0.45747	0.5033	-0.012
Mof_H 	H 	0.3771	0.475	0.563	0.036
Mof_C 	C 	0.5113	0.43335	0.5362	-0.084
Mof_C 	C 	0.6753	0.42806	0.6636	0.304
Mof_C 	C 	0.2462	0.33762	0.9218	0.328
Mof_C 	C 	0.3814	0.34459	0.9083	-0.094
Mof_C 	C 	0.3879	0.37355	0.8298	-0.008
Mof_H 	H 	0.3022	0.3927	0.7717	0.04
Mof_C 	C 	0.5371	0.37168	0.845	-0.023
Mof_H 	H 	0.5604	0.3893	0.7976	0.059
Mof_C 	C 	0.6437	0.34153	0.9361	-0.086
Mof_C 	C 	0.8117	0.33012	0.9815	0.311
Mof_C 	C 	0.0116	0.2175	0.8984	0.16
Mof_H 	H 	0.0198	0.2363	0.8444	-0.004
Mof_C 	C 	0.9541	0.1752	0.8554	-0.281
Mof_H 	H 	0.9253	0.1659	0.7742	0.15
Mof_C 	C 	0.9389	0.14634	0.9328	0.282
Mof_C 	C 	0.9855	0.16219	0.0514	-0.286
Mof_H 	H 	0.9777	0.1441	0.107	0.157
Mof_C 	C 	0.0438	0.20475	0.089	0.167
Mof_H 	H 	0.0763	0.2143	0.1711	-0.012
Mof_C 	C 	0.8689	0.10036	0.8851	-0.444
Mof_H 	H 	0.9467	0.0828	0.8816	0.163
Mof_H 	H 	0.8572	0.0865	0.9483	0.163
Mof_C 	C 	0.7051	0.09952	0.7523	0.24
Mof_H 	H 	0.7195	0.1111	0.6883	-0.036
Mof_H 	H 	0.6307	0.1194	0.754	-0.032
Mof_C 	C 	0.6244	0.05431	0.7065	-0.448
Mof_H 	H 	0.6161	0.0417	0.7728	0.163
Mof_H 	H 	0.5133	0.0579	0.6265	0.17
Mof_C 	C 	0.7173	0.02229	0.6805	0.284
Mof_C 	C 	0.8175	0.98993	0.7711	-0.3
Mof_H 	H 	0.8291	0.9875	0.8494	0.125
Mof_C 	C 	0.8996	0.96157	0.7441	0.163
Mof_H 	H 	0.9657	0.9397	0.8055	-0.02
Mof_C 	C 	0.7961	0.99529	0.5497	0.167
Mof_H 	H 	0.7891	0.9979	0.4734	-0.001
Mof_C 	C 	0.7085	0.02465	0.5694	-0.295
Mof_H 	H 	0.643	0.0462	0.5065	0.144
Mof_O 	O 	0.2139	0.38167	0.1267	-0.291
Mof_O 	O 	0.0392	0.4348	0.0854	-0.279
Mof_O 	O 	0.7792	0.40514	0.6636	-0.273
Mof_O 	O 	0.7017	0.44527	0.7638	-0.273
Mof_O 	O 	0.274	0.30776	0.0027	-0.283
Mof_O 	O 	0.1204	0.36053	0.8534	-0.287
Mof_O 	O 	0.9005	0.30746	0.082	-0.285
Mof_O 	O 	0.8609	0.34336	0.9149	-0.282
Mof_N 	N 	0.0565	0.23317	0.0149	-0.179
Mof_N 	N 	0.89	0.9635	0.6345	-0.181
Mof_Cd	Cd	0.87179	0.80677	0.42024	0.433
Mof_Cd	Cd	0.03033	0.90848	0.60983	0.481
Mof_S 	S 	0.52979	0.90497	0.09729	0.054
Mof_S 	S 	0.43982	0.81498	0.49618	0.073
Mof_C 	C 	0.8323	0.9132	0.3371	0.308
Mof_C 	C 	0.7247	0.9259	0.1965	-0.082
Mof_C 	C 	0.7561	0.95357	0.1295	-0.02
Mof_H 	H 	0.8558	0.9683	0.1674	0.047
Mof_C 	C 	0.6213	0.95747	0.9967	-0.012
Mof_H 	H 	0.6229	0.975	0.937	0.036
Mof_C 	C 	0.4887	0.93335	0.9638	-0.082
Mof_C 	C 	0.3247	0.92806	0.8364	0.304
Mof_C 	C 	0.7538	0.83762	0.5782	0.33
Mof_C 	C 	0.6186	0.84459	0.5917	-0.092
Mof_C 	C 	0.6121	0.87355	0.6702	-0.009
Mof_H 	H 	0.6978	0.8927	0.7283	0.04
Mof_C 	C 	0.4629	0.87168	0.655	-0.022
Mof_H 	H 	0.4396	0.8893	0.7024	0.059
Mof_C 	C 	0.3563	0.84153	0.5639	-0.084
Mof_C 	C 	0.1883	0.83012	0.5185	0.316
Mof_C 	C 	0.9884	0.7175	0.6016	0.164
Mof_H 	H 	0.9802	0.7363	0.6556	-0.006
Mof_C 	C 	0.0459	0.6752	0.6446	-0.286
Mof_H 	H 	0.0747	0.6659	0.7258	0.153
Mof_C 	C 	0.0611	0.64634	0.5672	0.294
Mof_C 	C 	0.0145	0.66219	0.4486	-0.302
Mof_H 	H 	0.0223	0.6441	0.393	0.161
Mof_C 	C 	0.9562	0.70475	0.411	0.176
Mof_H 	H 	0.9237	0.7143	0.3289	-0.015
Mof_C 	C 	0.1311	0.60036	0.6149	-0.454
Mof_H 	H 	0.0533	0.5828	0.6184	0.166
Mof_H 	H 	0.1428	0.5865	0.5517	0.167
Mof_C 	C 	0.2949	0.59952	0.7477	0.247
Mof_H 	H 	0.2805	0.6111	0.8117	-0.038
Mof_H 	H 	0.3693	0.6194	0.746	-0.034
Mof_C 	C 	0.3756	0.55431	0.7935	-0.453
Mof_H 	H 	0.3839	0.5417	0.7272	0.165
Mof_H 	H 	0.4867	0.5579	0.8735	0.171
Mof_C 	C 	0.2827	0.52229	0.8195	0.287
Mof_C 	C 	0.1825	0.48993	0.7289	-0.302
Mof_H 	H 	0.1709	0.4875	0.6506	0.126
Mof_C 	C 	0.1004	0.46157	0.7559	0.165
Mof_H 	H 	0.0343	0.4397	0.6945	-0.02
Mof_C 	C 	0.2039	0.49529	0.9503	0.171
Mof_H 	H 	0.2109	0.4979	0.0266	-0.003
Mof_C 	C 	0.2915	0.52465	0.9306	-0.298
Mof_H 	H 	0.357	0.5462	0.9935	0.146
Mof_O 	O 	0.7861	0.88167	0.3733	-0.292
Mof_O 	O 	0.9608	0.9348	0.4146	-0.279
Mof_O 	O 	0.2208	0.90514	0.8364	-0.271
Mof_O 	O 	0.2983	0.94527	0.7362	-0.272
Mof_O 	O 	0.726	0.80776	0.4973	-0.285
Mof_O 	O 	0.8796	0.86053	0.6466	-0.288
Mof_O 	O 	0.0995	0.80746	0.418	-0.289
Mof_O 	O 	0.1391	0.84336	0.5851	-0.282
Mof_N 	N 	0.9435	0.73317	0.4851	-0.182
Mof_N 	N 	0.11	0.4635	0.8655	-0.182
Mof_Cd	Cd	0.87179	0.69323	0.92024	0.434
Mof_Cd	Cd	0.03033	0.59152	0.10983	0.479
Mof_S 	S 	0.52979	0.59503	0.59729	0.056
Mof_S 	S 	0.43982	0.68502	0.99618	0.078
Mof_C 	C 	0.8323	0.5868	0.8371	0.308
Mof_C 	C 	0.7247	0.5741	0.6965	-0.083
Mof_C 	C 	0.7561	0.54643	0.6295	-0.018
Mof_H 	H 	0.8558	0.5317	0.6674	0.046
Mof_C 	C 	0.6213	0.54253	0.4967	-0.012
Mof_H 	H 	0.6229	0.525	0.437	0.036
Mof_C 	C 	0.4887	0.56665	0.4638	-0.084
Mof_C 	C 	0.3247	0.57194	0.3364	0.304
Mof_C 	C 	0.7538	0.66238	0.0782	0.328
Mof_C 	C 	0.6186	0.65541	0.0917	-0.094
Mof_C 	C 	0.6121	0.62645	0.1702	-0.008
Mof_H 	H 	0.6978	0.6073	0.2283	0.04
Mof_C 	C 	0.4629	0.62832	0.155	-0.023
Mof_H 	H 	0.4396	0.6107	0.2024	0.059
Mof_C 	C 	0.3563	0.65847	0.0639	-0.086
Mof_C 	C 	0.1883	0.66988	0.0185	0.311
Mof_C 	C 	0.9884	0.7825	0.1016	0.16
Mof_H 	H 	0.9802	0.7637	0.1556	-0.004
Mof_C 	C 	0.0459	0.8248	0.1446	-0.281
Mof_H 	H 	0.0747	0.8341	0.2258	0.15
Mof_C 	C 	0.0611	0.85366	0.0672	0.282
Mof_C 	C 	0.0145	0.83781	0.9486	-0.286
Mof_H 	H 	0.0223	0.8559	0.893	0.157
Mof_C 	C 	0.9562	0.79525	0.911	0.167
Mof_H 	H 	0.9237	0.7857	0.8289	-0.012
Mof_C 	C 	0.1311	0.89964	0.1149	-0.444
Mof_H 	H 	0.0533	0.9172	0.1184	0.163
Mof_H 	H 	0.1428	0.9135	0.0517	0.163
Mof_C 	C 	0.2949	0.90048	0.2477	0.24
Mof_H 	H 	0.2805	0.8889	0.3117	-0.036
Mof_H 	H 	0.3693	0.8806	0.246	-0.032
Mof_C 	C 	0.3756	0.94569	0.2935	-0.448
Mof_H 	H 	0.3839	0.9583	0.2272	0.163
Mof_H 	H 	0.4867	0.9421	0.3735	0.17
Mof_C 	C 	0.2827	0.97771	0.3195	0.284
Mof_C 	C 	0.1825	0.01007	0.2289	-0.3
Mof_H 	H 	0.1709	0.0125	0.1506	0.125
Mof_C 	C 	0.1004	0.03843	0.2559	0.163
Mof_H 	H 	0.0343	0.0603	0.1945	-0.02
Mof_C 	C 	0.2039	0.00471	0.4503	0.167
Mof_H 	H 	0.2109	0.0021	0.5266	-0.001
Mof_C 	C 	0.2915	0.97535	0.4306	-0.295
Mof_H 	H 	0.357	0.9538	0.4935	0.144
Mof_O 	O 	0.7861	0.61833	0.8733	-0.291
Mof_O 	O 	0.9608	0.5652	0.9146	-0.279
Mof_O 	O 	0.2208	0.59486	0.3364	-0.273
Mof_O 	O 	0.2983	0.55473	0.2362	-0.273
Mof_O 	O 	0.726	0.69224	0.9973	-0.283
Mof_O 	O 	0.8796	0.63947	0.1466	-0.287
Mof_O 	O 	0.0995	0.69254	0.918	-0.285
Mof_O 	O 	0.1391	0.65664	0.0851	-0.282
Mof_N 	N 	0.9435	0.76683	0.9851	-0.179
Mof_N 	N 	0.11	0.0365	0.3655	-0.181
Mof_Cd	Cd	0.12821	0.19323	0.57976	0.433
Mof_Cd	Cd	0.96967	0.09152	0.39017	0.481
Mof_S 	S 	0.47021	0.09503	0.90271	0.054
Mof_S 	S 	0.56018	0.18502	0.50382	0.073
Mof_C 	C 	0.1677	0.0868	0.6629	0.308
Mof_C 	C 	0.2753	0.0741	0.8035	-0.082
Mof_C 	C 	0.2439	0.04643	0.8705	-0.02
Mof_H 	H 	0.1442	0.0317	0.8326	0.047
Mof_C 	C 	0.3787	0.04253	0.0033	-0.012
Mof_H 	H 	0.3771	0.025	0.063	0.036
Mof_C 	C 	0.5113	0.06665	0.0362	-0.082
Mof_C 	C 	0.6753	0.07194	0.1636	0.304
Mof_C 	C 	0.2462	0.16238	0.4218	0.33
Mof_C 	C 	0.3814	0.15541	0.4083	-0.092
Mof_C 	C 	0.3879	0.12645	0.3298	-0.009
Mof_H 	H 	0.3022	0.1073	0.2717	0.04
Mof_C 	C 	0.5371	0.12832	0.345	-0.022
Mof_H 	H 	0.5604	0.1107	0.2976	0.059
Mof_C 	C 	0.6437	0.15847	0.4361	-0.084
Mof_C 	C 	0.8117	0.16988	0.4815	0.316
Mof_C 	C 	0.0116	0.2825	0.3984	0.164
Mof_H 	H 	0.0198	0.2637	0.3444	-0.006
Mof_C 	C 	0.9541	0.3248	0.3554	-0.286
Mof_H 	H 	0.9253	0.3341	0.2742	0.153
Mof_C 	C 	0.9389	0.35366	0.4328	0.294
Mof_C 	C 	0.9855	0.33781	0.5514	-0.302
Mof_H 	H 	0.9777	0.3559	0.607	0.161
Mof_C 	C 	0.0438	0.29525	0.589	0.176
Mof_H 	H 	0.0763	0.2857	0.6711	-0.015
Mof_C 	C 	0.8689	0.39964	0.3851	-0.454
Mof_H 	H 	0.9467	0.4172	0.3816	0.166
Mof_H 	H 	0.8572	0.4135	0.4483	0.167
Mof_C 	C 	0.7051	0.40048	0.2523	0.247
Mof_H 	H 	0.7195	0.3889	0.1883	-0.038
Mof_H 	H 	0.6307	0.3806	0.254	-0.034
Mof_C 	C 	0.6244	0.44569	0.2065	-0.453
Mof_H 	H 	0.6161	0.4583	0.2728	0.165
Mof_H 	H 	0.5133	0.4421	0.1265	0.171
Mof_C 	C 	0.7173	0.47771	0.1805	0.287
Mof_C 	C 	0.8175	0.51007	0.2711	-0.302
Mof_H 	H 	0.8291	0.5125	0.3494	0.126
Mof_C 	C 	0.8996	0.53843	0.2441	0.165
Mof_H 	H 	0.9657	0.5603	0.3055	-0.02
Mof_C 	C 	0.7961	0.50471	0.0497	0.171
Mof_H 	H 	0.7891	0.5021	0.9734	-0.003
Mof_C 	C 	0.7085	0.47535	0.0694	-0.298
Mof_H 	H 	0.643	0.4538	0.0065	0.146
Mof_O 	O 	0.2139	0.11833	0.6267	-0.292
Mof_O 	O 	0.0392	0.0652	0.5854	-0.279
Mof_O 	O 	0.7792	0.09486	0.1636	-0.271
Mof_O 	O 	0.7017	0.05473	0.2638	-0.272
Mof_O 	O 	0.274	0.19224	0.5027	-0.285
Mof_O 	O 	0.1204	0.13947	0.3534	-0.288
Mof_O 	O 	0.9005	0.19254	0.582	-0.289
Mof_O 	O 	0.8609	0.15664	0.4149	-0.282
Mof_N 	N 	0.0565	0.26683	0.5149	-0.182
Mof_N 	N 	0.89	0.5365	0.1345	-0.182
_end
