data_functionalizedCrystal
_audit_creation_method	'EQeq! by Chris Wilmer'
_symmetry_space_group_name_H-M	'P1'
_symmetry_Int_Tables_number	1
_symmetry_cell_setting	triclinic
loop_
_symmetry_equiv_pos_as_xyz
  x,y,z
_cell_length_a	31.978
_cell_length_b	6.5812
_cell_length_c	16.862
_cell_angle_alpha	90
_cell_angle_beta	90
_cell_angle_gamma	90
loop_
_atom_site_label
_atom_site_type_symbol
_atom_site_fract_x
_atom_site_fract_y
_atom_site_fract_z
_atom_site_charge
Mof_O 	O 	0.7795	0.1588	0.9182	-1.147
Mof_C 	C 	0.8479	0.1804	0.7884	0.452
Mof_C 	C 	0.87823	0.1804	0.7309	-0.407
Mof_H 	H 	0.8369	0.312	0.8094	-0.075
Mof_H 	H 	0.88929	0.312	0.71	0.155
Mof_O 	O 	0.2795	0.6588	0.9182	-1.137
Mof_C 	C 	0.3479	0.6804	0.7884	0.452
Mof_C 	C 	0.37823	0.6804	0.7309	-0.392
Mof_H 	H 	0.3369	0.812	0.8094	-0.091
Mof_H 	H 	0.38929	0.812	0.71	0.139
Mof_O 	O 	0.2205	0.8412	0.9182	-1.163
Mof_C 	C 	0.1521	0.8196	0.7884	0.405
Mof_C 	C 	0.12177	0.8196	0.7309	-0.451
Mof_H 	H 	0.1631	0.688	0.8094	-0.067
Mof_H 	H 	0.11071	0.688	0.71	0.162
Mof_O 	O 	0.7205	0.3412	0.9182	-1.151
Mof_C 	C 	0.6521	0.3196	0.7884	0.458
Mof_C 	C 	0.62177	0.3196	0.7309	-0.386
Mof_H 	H 	0.6631	0.188	0.8094	-0.06
Mof_H 	H 	0.61071	0.188	0.71	0.172
Mof_O 	O 	0.2205	0.1588	0.0818	-1.474
Mof_C 	C 	0.1521	0.1804	0.2116	0.442
Mof_C 	C 	0.12177	0.1804	0.2691	-0.455
Mof_H 	H 	0.1631	0.312	0.1906	-0.14
Mof_H 	H 	0.11071	0.312	0.29	0.143
Mof_O 	O 	0.7205	0.6588	0.0818	-1.468
Mof_C 	C 	0.6521	0.6804	0.2116	0.44
Mof_C 	C 	0.62177	0.6804	0.2691	-0.44
Mof_H 	H 	0.6631	0.812	0.1906	-0.158
Mof_H 	H 	0.61071	0.812	0.29	0.125
Mof_O 	O 	0.7795	0.8412	0.0818	-1.498
Mof_C 	C 	0.8479	0.8196	0.2116	0.39
Mof_C 	C 	0.87823	0.8196	0.2691	-0.504
Mof_H 	H 	0.8369	0.688	0.1906	-0.133
Mof_H 	H 	0.88929	0.688	0.29	0.148
Mof_O 	O 	0.2795	0.3412	0.0818	-1.481
Mof_C 	C 	0.3479	0.3196	0.2116	0.447
Mof_C 	C 	0.37823	0.3196	0.2691	-0.433
Mof_H 	H 	0.3369	0.188	0.1906	-0.124
Mof_H 	H 	0.38929	0.188	0.29	0.16
Mof_O 	O 	0.2205	0.8412	0.0818	-1.497
Mof_C 	C 	0.1521	0.8196	0.2116	0.39
Mof_C 	C 	0.12177	0.8196	0.2691	-0.503
Mof_H 	H 	0.1631	0.688	0.1906	-0.133
Mof_H 	H 	0.11071	0.688	0.29	0.149
Mof_O 	O 	0.7205	0.3412	0.0818	-1.481
Mof_C 	C 	0.6521	0.3196	0.2116	0.447
Mof_C 	C 	0.62177	0.3196	0.2691	-0.433
Mof_H 	H 	0.6631	0.188	0.1906	-0.124
Mof_H 	H 	0.61071	0.188	0.29	0.16
Mof_O 	O 	0.7795	0.1588	0.0818	-1.474
Mof_C 	C 	0.8479	0.1804	0.2116	0.442
Mof_C 	C 	0.87823	0.1804	0.2691	-0.455
Mof_H 	H 	0.8369	0.312	0.1906	-0.141
Mof_H 	H 	0.88929	0.312	0.29	0.143
Mof_O 	O 	0.2795	0.6588	0.0818	-1.468
Mof_C 	C 	0.3479	0.6804	0.2116	0.44
Mof_C 	C 	0.37823	0.6804	0.2691	-0.44
Mof_H 	H 	0.3369	0.812	0.1906	-0.158
Mof_H 	H 	0.38929	0.812	0.29	0.125
Mof_O 	O 	0.7795	0.8412	0.9182	-1.163
Mof_C 	C 	0.8479	0.8196	0.7884	0.405
Mof_C 	C 	0.87823	0.8196	0.7309	-0.452
Mof_H 	H 	0.8369	0.688	0.8094	-0.067
Mof_H 	H 	0.88929	0.688	0.71	0.162
Mof_O 	O 	0.2795	0.3412	0.9182	-1.151
Mof_C 	C 	0.3479	0.3196	0.7884	0.458
Mof_C 	C 	0.37823	0.3196	0.7309	-0.386
Mof_H 	H 	0.3369	0.188	0.8094	-0.06
Mof_H 	H 	0.38929	0.188	0.71	0.172
Mof_O 	O 	0.2205	0.1588	0.9182	-1.146
Mof_C 	C 	0.1521	0.1804	0.7884	0.453
Mof_C 	C 	0.12177	0.1804	0.7309	-0.405
Mof_H 	H 	0.1631	0.312	0.8094	-0.074
Mof_H 	H 	0.11071	0.312	0.71	0.157
Mof_O 	O 	0.7205	0.6588	0.9182	-1.136
Mof_C 	C 	0.6521	0.6804	0.7884	0.452
Mof_C 	C 	0.62177	0.6804	0.7309	-0.392
Mof_H 	H 	0.6631	0.812	0.8094	-0.091
Mof_H 	H 	0.61071	0.812	0.71	0.139
Mof_Al	Al	0.75	0.25	-0	6.504
Mof_Al	Al	0.25	0.75	-0	6.34
Mof_Al	Al	0.25	0.25	-0	6.504
Mof_Al	Al	0.75	0.75	-0	6.339
Mof_O 	O 	0.7251	0	-0	-2.769
Mof_H 	H 	0.6938	0	-0	0.446
Mof_O 	O 	0.2251	0.5	-0	-2.803
Mof_H 	H 	0.1938	0.5	-0	0.428
Mof_O 	O 	0.2749	0	-0	-2.769
Mof_H 	H 	0.3062	0	-0	0.446
Mof_O 	O 	0.7749	0.5	-0	-2.803
Mof_H 	H 	0.8062	0.5	-0	0.427
Mof_C 	C 	0.8062	2.84541e-32	0.8675	0.993
Mof_C 	C 	0.8328	2.84541e-32	0.8171	-0.675
Mof_C 	C 	0.89338	2.84541e-32	0.7022	0.404
Mof_C 	C 	0.92369	1.42271e-32	0.6447	-0.251
Mof_C 	C 	0.9666	1.42271e-32	0.6714	0.189
Mof_C 	C 	0.90959	1.42271e-32	0.5633	0.181
Mof_C 	C 	0.9794	1.42271e-32	0.7458	-0.095
Mof_C 	C 	0.8704	0	0.5391	-0.099
Mof_H 	H 	0.961	2.84541e-32	0.7938	0.123
Mof_H 	H 	0.8451	1.42271e-32	0.574	0.074
Mof_C 	C 	0.3062	0.5	0.8675	0.97
Mof_C 	C 	0.3328	0.5	0.8171	-0.724
Mof_C 	C 	0.39338	0.5	0.7022	0.339
Mof_C 	C 	0.42369	0.5	0.6447	-0.23
Mof_C 	C 	0.4666	0.5	0.6714	0.177
Mof_C 	C 	0.40959	0.5	0.5633	0.168
Mof_C 	C 	0.4794	0.5	0.7458	-0.088
Mof_C 	C 	0.3704	0.5	0.5391	-0.099
Mof_H 	H 	0.461	0.5	0.7938	0.115
Mof_H 	H 	0.3451	0.5	0.574	0.063
Mof_C 	C 	0.1938	2.84541e-32	0.8675	0.993
Mof_C 	C 	0.1672	2.84541e-32	0.8171	-0.675
Mof_C 	C 	0.10662	2.84541e-32	0.7022	0.403
Mof_C 	C 	0.07631	1.42271e-32	0.6447	-0.25
Mof_C 	C 	0.0334	1.42271e-32	0.6714	0.187
Mof_C 	C 	0.09041	1.42271e-32	0.5633	0.181
Mof_C 	C 	0.0206	1.42271e-32	0.7458	-0.083
Mof_C 	C 	0.1296	0	0.5391	-0.099
Mof_H 	H 	0.039	2.84541e-32	0.7938	0.121
Mof_H 	H 	0.1549	1.42271e-32	0.574	0.074
Mof_C 	C 	0.6938	0.5	0.8675	0.97
Mof_C 	C 	0.6672	0.5	0.8171	-0.724
Mof_C 	C 	0.60662	0.5	0.7022	0.339
Mof_C 	C 	0.57631	0.5	0.6447	-0.23
Mof_C 	C 	0.5334	0.5	0.6714	0.177
Mof_C 	C 	0.59041	0.5	0.5633	0.168
Mof_C 	C 	0.5206	0.5	0.7458	-0.088
Mof_C 	C 	0.6296	0.5	0.5391	-0.099
Mof_H 	H 	0.539	0.5	0.7938	0.115
Mof_H 	H 	0.6549	0.5	0.574	0.063
Mof_C 	C 	0.1938	0	0.1325	0.958
Mof_C 	C 	0.1672	3.55676e-33	0.1829	-0.757
Mof_C 	C 	0.10662	7.11353e-33	0.2978	0.416
Mof_C 	C 	0.07631	7.11353e-33	0.3553	-0.265
Mof_C 	C 	0.0334	0	0.3286	0.172
Mof_C 	C 	0.09041	1.42271e-32	0.4367	0.188
Mof_C 	C 	0.0206	0	0.2542	-0.115
Mof_C 	C 	0.1296	1.42271e-32	0.4609	-0.106
Mof_H 	H 	0.039	7.11353e-33	0.2062	0.005
Mof_H 	H 	0.1549	1.42271e-32	0.426	0.081
Mof_C 	C 	0.6938	0.5	0.1325	0.928
Mof_C 	C 	0.6672	0.5	0.1829	-0.812
Mof_C 	C 	0.60662	0.5	0.2978	0.345
Mof_C 	C 	0.57631	0.5	0.3553	-0.244
Mof_C 	C 	0.5334	0.5	0.3286	0.159
Mof_C 	C 	0.59041	0.5	0.4367	0.173
Mof_C 	C 	0.5206	0.5	0.2542	-0.12
Mof_C 	C 	0.6296	0.5	0.4609	-0.105
Mof_H 	H 	0.539	0.5	0.2062	-0.004
Mof_H 	H 	0.6549	0.5	0.426	0.068
Mof_C 	C 	0.8062	0	0.1325	0.958
Mof_C 	C 	0.8328	3.55676e-33	0.1829	-0.758
Mof_C 	C 	0.89338	7.11353e-33	0.2978	0.416
Mof_C 	C 	0.92369	7.11353e-33	0.3553	-0.266
Mof_C 	C 	0.9666	0	0.3286	0.173
Mof_C 	C 	0.90959	1.42271e-32	0.4367	0.187
Mof_C 	C 	0.9794	0	0.2542	-0.127
Mof_C 	C 	0.8704	1.42271e-32	0.4609	-0.106
Mof_H 	H 	0.961	7.11353e-33	0.2062	0.007
Mof_H 	H 	0.8451	1.42271e-32	0.426	0.081
Mof_C 	C 	0.3062	0.5	0.1325	0.928
Mof_C 	C 	0.3328	0.5	0.1829	-0.812
Mof_C 	C 	0.39338	0.5	0.2978	0.345
Mof_C 	C 	0.42369	0.5	0.3553	-0.244
Mof_C 	C 	0.4666	0.5	0.3286	0.159
Mof_C 	C 	0.40959	0.5	0.4367	0.173
Mof_C 	C 	0.4794	0.5	0.2542	-0.12
Mof_C 	C 	0.3704	0.5	0.4609	-0.105
Mof_H 	H 	0.461	0.5	0.2062	-0.004
Mof_H 	H 	0.3451	0.5	0.426	0.068
Mof_N 	N 	1.23665e-33	0	0.6255	-0.215
Mof_H 	H 	4.67617e-33	1.42271e-32	0.5662	0.092
Mof_N 	N 	0.5	0.5	0.6255	-0.213
Mof_H 	H 	0.5	0.5	0.5662	0.089
Mof_N 	N 	7.40408e-34	1.42271e-32	0.3745	-0.215
Mof_H 	H 	8.57648e-34	0	0.4338	0.09
Mof_N 	N 	0.5	0.5	0.3745	-0.213
Mof_H 	H 	0.5	0.5	0.4338	0.086
Mof_N 	N 	0.9338	1.42271e-32	0.5	-0.217
Mof_H 	H 	0.9651	1.42271e-32	0.5	0.088
Mof_N 	N 	0.4338	0.5	0.5	-0.213
Mof_H 	H 	0.4651	0.5	0.5	0.088
Mof_N 	N 	0.0662	1.42271e-32	0.5	-0.217
Mof_H 	H 	0.0349	1.42271e-32	0.5	0.09
Mof_N 	N 	0.5662	0.5	0.5	-0.213
Mof_H 	H 	0.5349	0.5	0.5	0.088
_end
