data_functionalizedCrystal
_audit_creation_method	'EQeq! by Chris Wilmer'
_symmetry_space_group_name_H-M	'P1'
_symmetry_Int_Tables_number	1
_symmetry_cell_setting	triclinic
loop_
_symmetry_equiv_pos_as_xyz
  x,y,z
_cell_length_a	20.862
_cell_length_b	19.931
_cell_length_c	6.1895
_cell_angle_alpha	90
_cell_angle_beta	114.55
_cell_angle_gamma	90
loop_
_atom_site_label
_atom_site_type_symbol
_atom_site_fract_x
_atom_site_fract_y
_atom_site_fract_z
_atom_site_charge
Mof_N 	N 	0.5923	0.0492	0.104	-0.309
Mof_H 	H 	0.6059	0.0639	0.2536	0.074
Mof_H 	H 	0.6257	0.0211	0.1	0.064
Mof_N 	N 	0.6473	0.2026	0.865	-0.251
Mof_H 	H 	0.6146	0.2319	0.8662	0.085
Mof_H 	H 	0.6349	0.1885	0.7152	0.074
Mof_N 	N 	0.8478	0.196	0.617	-0.295
Mof_H 	H 	0.8831	0.2236	0.6267	0.093
Mof_H 	H 	0.8587	0.1776	0.7607	0.09
Mof_N 	N 	0.9001	0.0575	0.358	-0.256
Mof_H 	H 	0.8932	0.0766	0.218	0.069
Mof_H 	H 	0.8634	0.0304	0.3353	0.069
Mof_C 	C 	0.5845	0.1059	0.946	0.064
Mof_H 	H 	0.5475	0.1352	0.9467	-0.016
Mof_H 	H 	0.5709	0.0897	0.7852	-0.042
Mof_C 	C 	0.6524	0.1449	0.023	-0.146
Mof_H 	H 	0.6656	0.1612	0.1834	0.014
Mof_H 	H 	0.6894	0.115	0.0252	0.021
Mof_C 	C 	0.8369	0.1442	0.44	-0.007
Mof_H 	H 	0.8262	0.1635	0.2847	-0.028
Mof_H 	H 	0.7994	0.1138	0.4289	-0.013
Mof_C 	C 	0.9075	0.1095	0.538	-0.076
Mof_H 	H 	0.945	0.1407	0.5554	0.031
Mof_H 	H 	0.9173	0.0893	0.6911	0.018
Mof_N 	N 	0.0923	0.5492	0.104	-0.316
Mof_H 	H 	0.1059	0.5639	0.2536	0.078
Mof_H 	H 	0.1257	0.5211	0.1	0.077
Mof_N 	N 	0.1473	0.7026	0.865	-0.249
Mof_H 	H 	0.1146	0.7319	0.8662	0.081
Mof_H 	H 	0.1349	0.6885	0.7152	0.071
Mof_N 	N 	0.3478	0.696	0.617	-0.291
Mof_H 	H 	0.3831	0.7236	0.6267	0.087
Mof_H 	H 	0.3587	0.6776	0.7607	0.087
Mof_N 	N 	0.4001	0.5575	0.358	-0.275
Mof_H 	H 	0.3932	0.5766	0.218	0.066
Mof_H 	H 	0.3634	0.5304	0.3353	0.077
Mof_C 	C 	0.0845	0.6059	0.946	0.077
Mof_H 	H 	0.0475	0.6352	0.9467	-0.03
Mof_H 	H 	0.0709	0.5897	0.7852	-0.048
Mof_C 	C 	0.1524	0.6449	0.023	-0.155
Mof_H 	H 	0.1656	0.6612	0.1834	0.017
Mof_H 	H 	0.1894	0.615	0.0252	0.027
Mof_C 	C 	0.3369	0.6442	0.44	-0.019
Mof_H 	H 	0.3262	0.6635	0.2847	-0.024
Mof_H 	H 	0.2994	0.6138	0.4289	-0.006
Mof_C 	C 	0.4075	0.6095	0.538	-0.058
Mof_H 	H 	0.445	0.6407	0.5554	0.01
Mof_H 	H 	0.4173	0.5893	0.6911	0.001
Mof_N 	N 	0.4077	0.0492	0.396	-0.288
Mof_H 	H 	0.3941	0.0639	0.2464	0.063
Mof_H 	H 	0.3743	0.0211	0.4	0.064
Mof_N 	N 	0.3527	0.2026	0.635	-0.288
Mof_H 	H 	0.3854	0.2319	0.6338	0.087
Mof_H 	H 	0.3651	0.1885	0.7848	0.086
Mof_N 	N 	0.1522	0.196	0.883	-0.251
Mof_H 	H 	0.1169	0.2236	0.8733	0.08
Mof_H 	H 	0.1413	0.1776	0.7393	0.071
Mof_N 	N 	0.0999	0.0575	0.142	-0.29
Mof_H 	H 	0.1068	0.0766	0.282	0.071
Mof_H 	H 	0.1366	0.0304	0.1647	0.07
Mof_C 	C 	0.4155	0.1059	0.554	-0.049
Mof_H 	H 	0.4525	0.1352	0.5533	0.008
Mof_H 	H 	0.4291	0.0897	0.7148	-0.005
Mof_C 	C 	0.3476	0.1449	0.477	-0.036
Mof_H 	H 	0.3344	0.1612	0.3166	-0.016
Mof_H 	H 	0.3106	0.115	0.4748	-0.003
Mof_C 	C 	0.1631	0.1442	0.06	-0.13
Mof_H 	H 	0.1738	0.1635	0.2153	0.005
Mof_H 	H 	0.2006	0.1138	0.0711	0.016
Mof_C 	C 	0.0925	0.1095	0.962	0.053
Mof_H 	H 	0.055	0.1407	0.9446	-0.021
Mof_H 	H 	0.0827	0.0893	0.8089	-0.036
Mof_N 	N 	0.9077	0.5492	0.396	-0.282
Mof_H 	H 	0.8941	0.5639	0.2464	0.074
Mof_H 	H 	0.8743	0.5211	0.4	0.079
Mof_N 	N 	0.8527	0.7026	0.635	-0.292
Mof_H 	H 	0.8854	0.7319	0.6338	0.093
Mof_H 	H 	0.8651	0.6885	0.7848	0.092
Mof_N 	N 	0.6522	0.696	0.883	-0.253
Mof_H 	H 	0.6169	0.7236	0.8733	0.085
Mof_H 	H 	0.6413	0.6776	0.7393	0.074
Mof_N 	N 	0.5999	0.5575	0.142	-0.299
Mof_H 	H 	0.6068	0.5766	0.282	0.076
Mof_H 	H 	0.6366	0.5304	0.1647	0.08
Mof_C 	C 	0.9155	0.6059	0.554	-0.058
Mof_H 	H 	0.9525	0.6352	0.5533	0.024
Mof_H 	H 	0.9291	0.5897	0.7148	0.012
Mof_C 	C 	0.8476	0.6449	0.477	-0.029
Mof_H 	H 	0.8344	0.6612	0.3166	-0.016
Mof_H 	H 	0.8106	0.615	0.4748	-0.001
Mof_C 	C 	0.6631	0.6442	0.06	-0.132
Mof_H 	H 	0.6738	0.6635	0.2153	0.006
Mof_H 	H 	0.7006	0.6138	0.0711	0.02
Mof_C 	C 	0.5925	0.6095	0.962	0.056
Mof_H 	H 	0.555	0.6407	0.9446	-0.015
Mof_H 	H 	0.5827	0.5893	0.8089	-0.036
Mof_N 	N 	0.4077	0.9508	0.896	-0.254
Mof_H 	H 	0.3941	0.9361	0.7464	0.085
Mof_H 	H 	0.3743	0.9789	0.9	0.1
Mof_N 	N 	0.3527	0.7974	0.135	-0.303
Mof_H 	H 	0.3854	0.7681	0.1338	0.079
Mof_H 	H 	0.3651	0.8115	0.2848	0.081
Mof_N 	N 	0.1522	0.804	0.383	-0.282
Mof_H 	H 	0.1169	0.7764	0.3733	0.074
Mof_H 	H 	0.1413	0.8224	0.2393	0.07
Mof_N 	N 	0.0999	0.9425	0.642	-0.271
Mof_H 	H 	0.1068	0.9234	0.782	0.092
Mof_H 	H 	0.1366	0.9696	0.6647	0.103
Mof_C 	C 	0.4155	0.8941	0.054	-0.136
Mof_H 	H 	0.4525	0.8648	0.0533	0.027
Mof_H 	H 	0.4291	0.9103	0.2148	0.021
Mof_C 	C 	0.3476	0.8551	0.977	0.053
Mof_H 	H 	0.3344	0.8388	0.8166	-0.032
Mof_H 	H 	0.3106	0.885	0.9748	-0.009
Mof_C 	C 	0.1631	0.8558	0.56	-0.042
Mof_H 	H 	0.1738	0.8365	0.7153	-0.007
Mof_H 	H 	0.2006	0.8862	0.5711	0.008
Mof_C 	C 	0.0925	0.8905	0.462	-0.036
Mof_H 	H 	0.055	0.8593	0.4446	-0.002
Mof_H 	H 	0.0827	0.9107	0.3089	-0.003
Mof_N 	N 	0.9077	0.4508	0.896	-0.25
Mof_H 	H 	0.8941	0.4361	0.7464	0.08
Mof_H 	H 	0.8743	0.4789	0.9	0.086
Mof_N 	N 	0.8527	0.2974	0.135	-0.306
Mof_H 	H 	0.8854	0.2681	0.1338	0.085
Mof_H 	H 	0.8651	0.3115	0.2848	0.083
Mof_N 	N 	0.6522	0.304	0.383	-0.283
Mof_H 	H 	0.6169	0.2764	0.3733	0.078
Mof_H 	H 	0.6413	0.3224	0.2393	0.069
Mof_N 	N 	0.5999	0.4425	0.642	-0.282
Mof_H 	H 	0.6068	0.4234	0.782	0.084
Mof_H 	H 	0.6366	0.4696	0.6647	0.087
Mof_C 	C 	0.9155	0.3941	0.054	-0.147
Mof_H 	H 	0.9525	0.3648	0.0533	0.042
Mof_H 	H 	0.9291	0.4103	0.2148	0.026
Mof_C 	C 	0.8476	0.3551	0.977	0.061
Mof_H 	H 	0.8344	0.3388	0.8166	-0.035
Mof_H 	H 	0.8106	0.385	0.9748	-0.016
Mof_C 	C 	0.6631	0.3558	0.56	-0.039
Mof_H 	H 	0.6738	0.3365	0.7153	-0.008
Mof_H 	H 	0.7006	0.3862	0.5711	0.002
Mof_C 	C 	0.5925	0.3905	0.462	-0.039
Mof_H 	H 	0.555	0.3593	0.4446	0.002
Mof_H 	H 	0.5827	0.4107	0.3089	-0.015
Mof_N 	N 	0.5923	0.9508	0.604	-0.294
Mof_H 	H 	0.6059	0.9361	0.7536	0.098
Mof_H 	H 	0.6257	0.9789	0.6	0.101
Mof_N 	N 	0.6473	0.7974	0.365	-0.281
Mof_H 	H 	0.6146	0.7681	0.3662	0.078
Mof_H 	H 	0.6349	0.8115	0.2152	0.071
Mof_N 	N 	0.8478	0.804	0.117	-0.311
Mof_H 	H 	0.8831	0.7764	0.1267	0.086
Mof_H 	H 	0.8587	0.8224	0.2607	0.086
Mof_N 	N 	0.9001	0.9425	0.858	-0.226
Mof_H 	H 	0.8932	0.9234	0.718	0.087
Mof_H 	H 	0.8634	0.9696	0.8353	0.101
Mof_C 	C 	0.5845	0.8941	0.446	-0.026
Mof_H 	H 	0.5475	0.8648	0.4467	0.003
Mof_H 	H 	0.5709	0.9103	0.2852	-0.009
Mof_C 	C 	0.6524	0.8551	0.523	-0.059
Mof_H 	H 	0.6656	0.8388	0.6834	0.002
Mof_H 	H 	0.6894	0.885	0.5252	0.013
Mof_C 	C 	0.8369	0.8558	0.94	0.082
Mof_H 	H 	0.8262	0.8365	0.7847	-0.046
Mof_H 	H 	0.7994	0.8862	0.9289	-0.02
Mof_C 	C 	0.9075	0.8905	0.038	-0.161
Mof_H 	H 	0.945	0.8593	0.0554	0.05
Mof_H 	H 	0.9173	0.9107	0.1911	0.046
Mof_N 	N 	0.0923	0.4508	0.604	-0.301
Mof_H 	H 	0.1059	0.4361	0.7536	0.086
Mof_H 	H 	0.1257	0.4789	0.6	0.085
Mof_N 	N 	0.1473	0.2974	0.365	-0.278
Mof_H 	H 	0.1146	0.2681	0.3662	0.073
Mof_H 	H 	0.1349	0.3115	0.2152	0.066
Mof_N 	N 	0.3478	0.304	0.117	-0.308
Mof_H 	H 	0.3831	0.2764	0.1267	0.079
Mof_H 	H 	0.3587	0.3224	0.2607	0.079
Mof_N 	N 	0.4001	0.4425	0.858	-0.245
Mof_H 	H 	0.3932	0.4234	0.718	0.071
Mof_H 	H 	0.3634	0.4696	0.8353	0.084
Mof_C 	C 	0.0845	0.3941	0.446	-0.017
Mof_H 	H 	0.0475	0.3648	0.4467	-0.014
Mof_H 	H 	0.0709	0.4103	0.2852	-0.027
Mof_C 	C 	0.1524	0.3551	0.523	-0.065
Mof_H 	H 	0.1656	0.3388	0.6834	0.003
Mof_H 	H 	0.1894	0.385	0.5252	0.01
Mof_C 	C 	0.3369	0.3558	0.94	0.079
Mof_H 	H 	0.3262	0.3365	0.7847	-0.047
Mof_H 	H 	0.2994	0.3862	0.9289	-0.024
Mof_C 	C 	0.4075	0.3905	0.038	-0.152
Mof_H 	H 	0.445	0.3593	0.0554	0.029
Mof_H 	H 	0.4173	0.4107	0.1911	0.016
Mof_Ag	Ag	0.5	0	-0	0.293
Mof_Ag	Ag	-0	0.5	-0	0.297
Mof_Ag	Ag	0.5	0	0.5	0.373
Mof_Ag	Ag	1.21411e-17	0.5	0.5	0.375
Mof_Ag	Ag	0.75	0.25	-0	0.308
Mof_Ag	Ag	0.25	0.25	0.5	0.383
Mof_Ag	Ag	0.25	0.75	-0	0.309
Mof_Ag	Ag	0.75	0.75	0.5	0.388
Mof_Ag	Ag	0.75	0.25	0.5	0.383
Mof_Ag	Ag	0.25	0.25	-0	0.303
Mof_Ag	Ag	0.25	0.75	0.5	0.384
Mof_Ag	Ag	0.75	0.75	-0	0.31
Mof_Ag	Ag	7.87295e-34	0	0.5	0.272
Mof_Ag	Ag	0.5	0.5	0.5	0.368
Mof_Ag	Ag	-0	0	-0	0.199
Mof_Ag	Ag	0.5	0.5	-0	0.29
_end
