data_functionalizedCrystal
_audit_creation_method	'EQeq! by Chris Wilmer'
_symmetry_space_group_name_H-M	'P1'
_symmetry_Int_Tables_number	1
_symmetry_cell_setting	triclinic
loop_
_symmetry_equiv_pos_as_xyz
  x,y,z
_cell_length_a	18.873
_cell_length_b	19.329
_cell_length_c	25.911
_cell_angle_alpha	90
_cell_angle_beta	101.04
_cell_angle_gamma	90
loop_
_atom_site_label
_atom_site_type_symbol
_atom_site_fract_x
_atom_site_fract_y
_atom_site_fract_z
_atom_site_charge
Mof_O 	O 	0.2343	0.0594	0.5173	-0.283
Mof_O 	O 	0.3132	0.0292	0.4695	-0.288
Mof_C 	C 	0.2969	0.0475	0.5118	0.341
Mof_O 	O 	0.3057	0.0816	0.7065	-0.295
Mof_O 	O 	0.4098	0.1101	0.7409	-0.288
Mof_C 	C 	0.3697	0.0905	0.7034	0.374
Mof_O 	O 	0.6708	0.4315	0.4524	-0.269
Mof_O 	O 	0.7633	0.3692	0.4955	-0.264
Mof_C 	C 	0.6993	0.3902	0.4885	0.306
Mof_O 	O 	0.4445	0.3941	0.6011	-0.298
Mof_O 	O 	0.4451	0.4426	0.5297	-0.288
Mof_C 	C 	0.4725	0.4046	0.5629	0.368
Mof_C 	C 	0.5448	0.372	0.562	-0.094
Mof_C 	C 	0.8646	0.9385	0.8007	-0.011
Mof_H 	H 	0.8767	0.932	0.8369	0.053
Mof_Cd	Cd	0.69654	0.07855	0.57095	0.482
Mof_Cd	Cd	0.67811	0.11975	0.70645	0.458
Mof_Cd	Cd	0.83646	0.9474	0.56226	0.458
Mof_O 	O 	0.575	0.0854	0.5515	-0.262
Mof_C 	C 	0.4809	0.0691	0.5989	-0.095
Mof_C 	C 	0.462	0.0772	0.6477	0.051
Mof_H 	H 	0.4978	0.0839	0.6774	0.057
Mof_C 	C 	0.3377	0.0674	0.6073	0.059
Mof_H 	H 	0.2894	0.0698	0.6102	0.046
Mof_C 	C 	0.5589	0.0694	0.5955	0.321
Mof_N 	N 	0.7683	0.0281	0.6436	-0.064
Mof_O 	O 	0.7036	0.1829	0.6179	-0.272
Mof_O 	O 	0.619	0.2098	0.6636	-0.263
Mof_C 	C 	0.6741	0.3065	0.5572	0.027
Mof_H 	H 	0.7177	0.2846	0.5561	0.059
Mof_C 	C 	0.654	0.3619	0.5262	-0.07
Mof_N 	N 	0.7581	0.0412	0.6917	-0.11
Mof_C 	C 	0.6307	0.2818	0.5906	-0.081
Mof_C 	C 	0.3544	0.0561	0.559	-0.107
Mof_C 	C 	0.6522	0.2221	0.6258	0.293
Mof_C 	C 	0.427	0.0572	0.5553	0.05
Mof_H 	H 	0.4397	0.0499	0.5228	0.051
Mof_C 	C 	0.5874	0.396	0.5274	0.024
Mof_H 	H 	0.5727	0.4336	0.5056	0.067
Mof_N 	N 	0.816	0.9812	0.6418	-0.108
Mof_O 	O 	0.6058	0.0553	0.6344	-0.278
Mof_C 	C 	0.5675	0.316	0.5942	0.03
Mof_H 	H 	0.5401	0.3013	0.6184	0.05
Mof_C 	C 	0.3906	0.0755	0.6523	-0.117
Mof_C 	C 	0.8389	0.9593	0.6909	0.078
Mof_C 	C 	0.8021	0.9978	0.7214	0.076
Mof_C 	C 	0.8155	0.9876	0.7796	-0.087
Mof_H 	H 	0.7911	0.0137	0.8008	0.095
Mof_C 	C 	0.8885	0.9067	0.7087	-0.092
Mof_H 	H 	0.9127	0.8811	0.6871	0.09
Mof_C 	C 	0.8973	0.8971	0.7652	-0.019
Mof_H 	H 	0.9268	0.8608	0.7799	0.055
Mof_O 	O 	0.7343	0.5594	0.5173	-0.284
Mof_O 	O 	0.8132	0.5292	0.4695	-0.289
Mof_C 	C 	0.7969	0.5475	0.5118	0.34
Mof_O 	O 	0.8057	0.5816	0.7065	-0.296
Mof_O 	O 	0.9098	0.6101	0.7409	-0.289
Mof_C 	C 	0.8697	0.5905	0.7034	0.373
Mof_O 	O 	0.1708	0.9315	0.4524	-0.27
Mof_O 	O 	0.2633	0.8692	0.4955	-0.265
Mof_C 	C 	0.1993	0.8902	0.4885	0.305
Mof_O 	O 	0.9445	0.8941	0.6011	-0.299
Mof_O 	O 	0.9451	0.9426	0.5297	-0.289
Mof_C 	C 	0.9725	0.9046	0.5629	0.367
Mof_C 	C 	0.0448	0.872	0.562	-0.095
Mof_C 	C 	0.3646	0.4385	0.8007	-0.012
Mof_H 	H 	0.3767	0.432	0.8369	0.052
Mof_Cd	Cd	0.19654	0.57855	0.57095	0.481
Mof_Cd	Cd	0.17811	0.61975	0.70645	0.457
Mof_Cd	Cd	0.33646	0.4474	0.56226	0.457
Mof_O 	O 	0.075	0.5854	0.5515	-0.262
Mof_C 	C 	0.9809	0.5691	0.5989	-0.095
Mof_C 	C 	0.962	0.5772	0.6477	0.051
Mof_H 	H 	0.9978	0.5839	0.6774	0.057
Mof_C 	C 	0.8377	0.5674	0.6073	0.059
Mof_H 	H 	0.7894	0.5698	0.6102	0.046
Mof_C 	C 	0.0589	0.5694	0.5955	0.321
Mof_N 	N 	0.2683	0.5281	0.6436	-0.064
Mof_O 	O 	0.2036	0.6829	0.6179	-0.272
Mof_O 	O 	0.119	0.7098	0.6636	-0.263
Mof_C 	C 	0.1741	0.8065	0.5572	0.027
Mof_H 	H 	0.2177	0.7846	0.5561	0.059
Mof_C 	C 	0.154	0.8619	0.5262	-0.07
Mof_N 	N 	0.2581	0.5412	0.6917	-0.11
Mof_C 	C 	0.1307	0.7818	0.5906	-0.081
Mof_C 	C 	0.8544	0.5561	0.559	-0.107
Mof_C 	C 	0.1522	0.7221	0.6258	0.293
Mof_C 	C 	0.927	0.5572	0.5553	0.05
Mof_H 	H 	0.9397	0.5499	0.5228	0.051
Mof_C 	C 	0.0874	0.896	0.5274	0.024
Mof_H 	H 	0.0727	0.9336	0.5056	0.067
Mof_N 	N 	0.316	0.4812	0.6418	-0.108
Mof_O 	O 	0.1058	0.5553	0.6344	-0.278
Mof_C 	C 	0.0675	0.816	0.5942	0.03
Mof_H 	H 	0.0401	0.8013	0.6184	0.05
Mof_C 	C 	0.8906	0.5755	0.6523	-0.117
Mof_C 	C 	0.3389	0.4593	0.6909	0.078
Mof_C 	C 	0.3021	0.4978	0.7214	0.076
Mof_C 	C 	0.3155	0.4876	0.7796	-0.087
Mof_H 	H 	0.2911	0.5137	0.8008	0.095
Mof_C 	C 	0.3885	0.4067	0.7087	-0.092
Mof_H 	H 	0.4127	0.3811	0.6871	0.09
Mof_C 	C 	0.3973	0.3971	0.7652	-0.019
Mof_H 	H 	0.4268	0.3608	0.7799	0.055
Mof_O 	O 	0.7657	0.0594	0.9827	-0.284
Mof_O 	O 	0.6868	0.0292	0.0305	-0.289
Mof_C 	C 	0.7031	0.0475	0.9882	0.339
Mof_O 	O 	0.6943	0.0816	0.7935	-0.296
Mof_O 	O 	0.5902	0.1101	0.7591	-0.289
Mof_C 	C 	0.6303	0.0905	0.7966	0.373
Mof_O 	O 	0.3292	0.4315	0.0476	-0.27
Mof_O 	O 	0.2367	0.3692	0.0045	-0.265
Mof_C 	C 	0.3007	0.3902	0.0115	0.306
Mof_O 	O 	0.5555	0.3941	0.8989	-0.299
Mof_O 	O 	0.5549	0.4426	0.9703	-0.289
Mof_C 	C 	0.5275	0.4046	0.9371	0.367
Mof_C 	C 	0.4552	0.372	0.938	-0.095
Mof_C 	C 	0.1354	0.9385	0.6993	-0.012
Mof_H 	H 	0.1233	0.932	0.6631	0.052
Mof_Cd	Cd	0.30346	0.07855	0.92905	0.481
Mof_Cd	Cd	0.32189	0.11975	0.79355	0.457
Mof_Cd	Cd	0.16354	0.9474	0.93774	0.457
Mof_O 	O 	0.425	0.0854	0.9485	-0.262
Mof_C 	C 	0.5191	0.0691	0.9011	-0.095
Mof_C 	C 	0.538	0.0772	0.8523	0.051
Mof_H 	H 	0.5022	0.0839	0.8226	0.057
Mof_C 	C 	0.6623	0.0674	0.8927	0.059
Mof_H 	H 	0.7106	0.0698	0.8898	0.046
Mof_C 	C 	0.4411	0.0694	0.9045	0.321
Mof_N 	N 	0.2317	0.0281	0.8564	-0.064
Mof_O 	O 	0.2964	0.1829	0.8821	-0.272
Mof_O 	O 	0.381	0.2098	0.8364	-0.263
Mof_C 	C 	0.3259	0.3065	0.9428	0.027
Mof_H 	H 	0.2823	0.2846	0.9439	0.059
Mof_C 	C 	0.346	0.3619	0.9738	-0.071
Mof_N 	N 	0.2419	0.0412	0.8083	-0.11
Mof_C 	C 	0.3693	0.2818	0.9094	-0.081
Mof_C 	C 	0.6456	0.0561	0.941	-0.107
Mof_C 	C 	0.3478	0.2221	0.8742	0.293
Mof_C 	C 	0.573	0.0572	0.9447	0.05
Mof_H 	H 	0.5603	0.0499	0.9772	0.051
Mof_C 	C 	0.4126	0.396	0.9726	0.024
Mof_H 	H 	0.4273	0.4336	0.9944	0.067
Mof_N 	N 	0.184	0.9812	0.8582	-0.108
Mof_O 	O 	0.3942	0.0553	0.8656	-0.278
Mof_C 	C 	0.4325	0.316	0.9058	0.03
Mof_H 	H 	0.4599	0.3013	0.8816	0.05
Mof_C 	C 	0.6094	0.0755	0.8477	-0.117
Mof_C 	C 	0.1611	0.9593	0.8091	0.078
Mof_C 	C 	0.1979	0.9978	0.7786	0.076
Mof_C 	C 	0.1845	0.9876	0.7204	-0.087
Mof_H 	H 	0.2089	0.0137	0.6992	0.095
Mof_C 	C 	0.1115	0.9067	0.7913	-0.092
Mof_H 	H 	0.0873	0.8811	0.8129	0.09
Mof_C 	C 	0.1027	0.8971	0.7348	-0.019
Mof_H 	H 	0.0732	0.8608	0.7201	0.055
Mof_O 	O 	0.2657	0.5594	0.9827	-0.284
Mof_O 	O 	0.1868	0.5292	0.0305	-0.289
Mof_C 	C 	0.2031	0.5475	0.9882	0.339
Mof_O 	O 	0.1943	0.5816	0.7935	-0.296
Mof_O 	O 	0.0902	0.6101	0.7591	-0.289
Mof_C 	C 	0.1303	0.5905	0.7966	0.373
Mof_O 	O 	0.8292	0.9315	0.0476	-0.27
Mof_O 	O 	0.7367	0.8692	0.0045	-0.265
Mof_C 	C 	0.8007	0.8902	0.0115	0.305
Mof_O 	O 	0.0555	0.8941	0.8989	-0.299
Mof_O 	O 	0.0549	0.9426	0.9703	-0.289
Mof_C 	C 	0.0275	0.9046	0.9371	0.367
Mof_C 	C 	0.9552	0.872	0.938	-0.095
Mof_C 	C 	0.6354	0.4385	0.6993	-0.012
Mof_H 	H 	0.6233	0.432	0.6631	0.052
Mof_Cd	Cd	0.80346	0.57855	0.92905	0.481
Mof_Cd	Cd	0.82189	0.61975	0.79355	0.457
Mof_Cd	Cd	0.66354	0.4474	0.93774	0.458
Mof_O 	O 	0.925	0.5854	0.9485	-0.262
Mof_C 	C 	0.0191	0.5691	0.9011	-0.095
Mof_C 	C 	0.038	0.5772	0.8523	0.051
Mof_H 	H 	0.0022	0.5839	0.8226	0.057
Mof_C 	C 	0.1623	0.5674	0.8927	0.06
Mof_H 	H 	0.2106	0.5698	0.8898	0.046
Mof_C 	C 	0.9411	0.5694	0.9045	0.321
Mof_N 	N 	0.7317	0.5281	0.8564	-0.064
Mof_O 	O 	0.7964	0.6829	0.8821	-0.272
Mof_O 	O 	0.881	0.7098	0.8364	-0.263
Mof_C 	C 	0.8259	0.8065	0.9428	0.027
Mof_H 	H 	0.7823	0.7846	0.9439	0.059
Mof_C 	C 	0.846	0.8619	0.9738	-0.07
Mof_N 	N 	0.7419	0.5412	0.8083	-0.11
Mof_C 	C 	0.8693	0.7818	0.9094	-0.081
Mof_C 	C 	0.1456	0.5561	0.941	-0.107
Mof_C 	C 	0.8478	0.7221	0.8742	0.292
Mof_C 	C 	0.073	0.5572	0.9447	0.05
Mof_H 	H 	0.0603	0.5499	0.9772	0.051
Mof_C 	C 	0.9126	0.896	0.9726	0.024
Mof_H 	H 	0.9273	0.9336	0.9944	0.067
Mof_N 	N 	0.684	0.4812	0.8582	-0.108
Mof_O 	O 	0.8942	0.5553	0.8656	-0.278
Mof_C 	C 	0.9325	0.816	0.9058	0.03
Mof_H 	H 	0.9599	0.8013	0.8816	0.05
Mof_C 	C 	0.1094	0.5755	0.8477	-0.117
Mof_C 	C 	0.6611	0.4593	0.8091	0.078
Mof_C 	C 	0.6979	0.4978	0.7786	0.076
Mof_C 	C 	0.6845	0.4876	0.7204	-0.087
Mof_H 	H 	0.7089	0.5137	0.6992	0.095
Mof_C 	C 	0.6115	0.4067	0.7913	-0.092
Mof_H 	H 	0.5873	0.3811	0.8129	0.09
Mof_C 	C 	0.6027	0.3971	0.7348	-0.019
Mof_H 	H 	0.5732	0.3608	0.7201	0.055
Mof_O 	O 	0.7657	0.9406	0.4827	-0.284
Mof_O 	O 	0.6868	0.9708	0.5305	-0.289
Mof_C 	C 	0.7031	0.9525	0.4882	0.34
Mof_O 	O 	0.6943	0.9184	0.2935	-0.296
Mof_O 	O 	0.5902	0.8899	0.2591	-0.289
Mof_C 	C 	0.6303	0.9095	0.2966	0.373
Mof_O 	O 	0.3292	0.5685	0.5476	-0.27
Mof_O 	O 	0.2367	0.6308	0.5045	-0.265
Mof_C 	C 	0.3007	0.6098	0.5115	0.305
Mof_O 	O 	0.5555	0.6059	0.3989	-0.299
Mof_O 	O 	0.5549	0.5574	0.4703	-0.289
Mof_C 	C 	0.5275	0.5954	0.4371	0.367
Mof_C 	C 	0.4552	0.628	0.438	-0.095
Mof_C 	C 	0.1354	0.0615	0.1993	-0.012
Mof_H 	H 	0.1233	0.068	0.1631	0.052
Mof_Cd	Cd	0.30346	0.92145	0.42905	0.481
Mof_Cd	Cd	0.32189	0.88025	0.29355	0.457
Mof_Cd	Cd	0.16354	0.0526	0.43774	0.457
Mof_O 	O 	0.425	0.9146	0.4485	-0.262
Mof_C 	C 	0.5191	0.9309	0.4011	-0.095
Mof_C 	C 	0.538	0.9228	0.3523	0.051
Mof_H 	H 	0.5022	0.9161	0.3226	0.057
Mof_C 	C 	0.6623	0.9326	0.3927	0.059
Mof_H 	H 	0.7106	0.9302	0.3898	0.046
Mof_C 	C 	0.4411	0.9306	0.4045	0.321
Mof_N 	N 	0.2317	0.9719	0.3564	-0.064
Mof_O 	O 	0.2964	0.8171	0.3821	-0.272
Mof_O 	O 	0.381	0.7902	0.3364	-0.263
Mof_C 	C 	0.3259	0.6935	0.4428	0.027
Mof_H 	H 	0.2823	0.7154	0.4439	0.059
Mof_C 	C 	0.346	0.6381	0.4738	-0.07
Mof_N 	N 	0.2419	0.9588	0.3083	-0.11
Mof_C 	C 	0.3693	0.7182	0.4094	-0.081
Mof_C 	C 	0.6456	0.9439	0.441	-0.107
Mof_C 	C 	0.3478	0.7779	0.3742	0.293
Mof_C 	C 	0.573	0.9428	0.4447	0.05
Mof_H 	H 	0.5603	0.9501	0.4772	0.051
Mof_C 	C 	0.4126	0.604	0.4726	0.024
Mof_H 	H 	0.4273	0.5664	0.4944	0.067
Mof_N 	N 	0.184	0.0188	0.3582	-0.108
Mof_O 	O 	0.3942	0.9447	0.3656	-0.278
Mof_C 	C 	0.4325	0.684	0.4058	0.03
Mof_H 	H 	0.4599	0.6987	0.3816	0.05
Mof_C 	C 	0.6094	0.9245	0.3477	-0.117
Mof_C 	C 	0.1611	0.0407	0.3091	0.078
Mof_C 	C 	0.1979	0.0022	0.2786	0.076
Mof_C 	C 	0.1845	0.0124	0.2204	-0.087
Mof_H 	H 	0.2089	0.9863	0.1992	0.095
Mof_C 	C 	0.1115	0.0933	0.2913	-0.092
Mof_H 	H 	0.0873	0.1189	0.3129	0.09
Mof_C 	C 	0.1027	0.1029	0.2348	-0.019
Mof_H 	H 	0.0732	0.1392	0.2201	0.055
Mof_O 	O 	0.2657	0.4406	0.4827	-0.284
Mof_O 	O 	0.1868	0.4708	0.5305	-0.289
Mof_C 	C 	0.2031	0.4525	0.4882	0.34
Mof_O 	O 	0.1943	0.4184	0.2935	-0.296
Mof_O 	O 	0.0902	0.3899	0.2591	-0.289
Mof_C 	C 	0.1303	0.4095	0.2966	0.373
Mof_O 	O 	0.8292	0.0685	0.5476	-0.27
Mof_O 	O 	0.7367	0.1308	0.5045	-0.265
Mof_C 	C 	0.8007	0.1098	0.5115	0.305
Mof_O 	O 	0.0555	0.1059	0.3989	-0.299
Mof_O 	O 	0.0549	0.0574	0.4703	-0.289
Mof_C 	C 	0.0275	0.0954	0.4371	0.367
Mof_C 	C 	0.9552	0.128	0.438	-0.095
Mof_C 	C 	0.6354	0.5615	0.1993	-0.012
Mof_H 	H 	0.6233	0.568	0.1631	0.052
Mof_Cd	Cd	0.80346	0.42145	0.42905	0.481
Mof_Cd	Cd	0.82189	0.38025	0.29355	0.457
Mof_Cd	Cd	0.66354	0.5526	0.43774	0.457
Mof_O 	O 	0.925	0.4146	0.4485	-0.262
Mof_C 	C 	0.0191	0.4309	0.4011	-0.095
Mof_C 	C 	0.038	0.4228	0.3523	0.051
Mof_H 	H 	0.0022	0.4161	0.3226	0.057
Mof_C 	C 	0.1623	0.4326	0.3927	0.059
Mof_H 	H 	0.2106	0.4302	0.3898	0.046
Mof_C 	C 	0.9411	0.4306	0.4045	0.321
Mof_N 	N 	0.7317	0.4719	0.3564	-0.064
Mof_O 	O 	0.7964	0.3171	0.3821	-0.272
Mof_O 	O 	0.881	0.2902	0.3364	-0.263
Mof_C 	C 	0.8259	0.1935	0.4428	0.027
Mof_H 	H 	0.7823	0.2154	0.4439	0.059
Mof_C 	C 	0.846	0.1381	0.4738	-0.07
Mof_N 	N 	0.7419	0.4588	0.3083	-0.11
Mof_C 	C 	0.8693	0.2182	0.4094	-0.081
Mof_C 	C 	0.1456	0.4439	0.441	-0.107
Mof_C 	C 	0.8478	0.2779	0.3742	0.293
Mof_C 	C 	0.073	0.4428	0.4447	0.05
Mof_H 	H 	0.0603	0.4501	0.4772	0.051
Mof_C 	C 	0.9126	0.104	0.4726	0.024
Mof_H 	H 	0.9273	0.0664	0.4944	0.067
Mof_N 	N 	0.684	0.5188	0.3582	-0.108
Mof_O 	O 	0.8942	0.4447	0.3656	-0.278
Mof_C 	C 	0.9325	0.184	0.4058	0.03
Mof_H 	H 	0.9599	0.1987	0.3816	0.05
Mof_C 	C 	0.1094	0.4245	0.3477	-0.117
Mof_C 	C 	0.6611	0.5407	0.3091	0.078
Mof_C 	C 	0.6979	0.5022	0.2786	0.076
Mof_C 	C 	0.6845	0.5124	0.2204	-0.087
Mof_H 	H 	0.7089	0.4863	0.1992	0.095
Mof_C 	C 	0.6115	0.5933	0.2913	-0.092
Mof_H 	H 	0.5873	0.6189	0.3129	0.09
Mof_C 	C 	0.6027	0.6029	0.2348	-0.019
Mof_H 	H 	0.5732	0.6392	0.2201	0.055
Mof_O 	O 	0.2343	0.9406	0.0173	-0.284
Mof_O 	O 	0.3132	0.9708	0.9695	-0.289
Mof_C 	C 	0.2969	0.9525	0.0118	0.339
Mof_O 	O 	0.3057	0.9184	0.2065	-0.296
Mof_O 	O 	0.4098	0.8899	0.2409	-0.289
Mof_C 	C 	0.3697	0.9095	0.2034	0.373
Mof_O 	O 	0.6708	0.5685	0.9524	-0.27
Mof_O 	O 	0.7633	0.6308	0.9955	-0.265
Mof_C 	C 	0.6993	0.6098	0.9885	0.306
Mof_O 	O 	0.4445	0.6059	0.1011	-0.299
Mof_O 	O 	0.4451	0.5574	0.0297	-0.289
Mof_C 	C 	0.4725	0.5954	0.0629	0.367
Mof_C 	C 	0.5448	0.628	0.062	-0.095
Mof_C 	C 	0.8646	0.0615	0.3007	-0.012
Mof_H 	H 	0.8767	0.068	0.3369	0.052
Mof_Cd	Cd	0.69654	0.92145	0.07095	0.481
Mof_Cd	Cd	0.67811	0.88025	0.20645	0.457
Mof_Cd	Cd	0.83646	0.0526	0.06226	0.457
Mof_O 	O 	0.575	0.9146	0.0515	-0.262
Mof_C 	C 	0.4809	0.9309	0.0989	-0.095
Mof_C 	C 	0.462	0.9228	0.1477	0.051
Mof_H 	H 	0.4978	0.9161	0.1774	0.057
Mof_C 	C 	0.3377	0.9326	0.1073	0.059
Mof_H 	H 	0.2894	0.9302	0.1102	0.046
Mof_C 	C 	0.5589	0.9306	0.0955	0.321
Mof_N 	N 	0.7683	0.9719	0.1436	-0.064
Mof_O 	O 	0.7036	0.8171	0.1179	-0.272
Mof_O 	O 	0.619	0.7902	0.1636	-0.263
Mof_C 	C 	0.6741	0.6935	0.0572	0.027
Mof_H 	H 	0.7177	0.7154	0.0561	0.059
Mof_C 	C 	0.654	0.6381	0.0262	-0.071
Mof_N 	N 	0.7581	0.9588	0.1917	-0.11
Mof_C 	C 	0.6307	0.7182	0.0906	-0.081
Mof_C 	C 	0.3544	0.9439	0.059	-0.107
Mof_C 	C 	0.6522	0.7779	0.1258	0.293
Mof_C 	C 	0.427	0.9428	0.0553	0.05
Mof_H 	H 	0.4397	0.9501	0.0228	0.051
Mof_C 	C 	0.5874	0.604	0.0274	0.024
Mof_H 	H 	0.5727	0.5664	0.0056	0.067
Mof_N 	N 	0.816	0.0188	0.1418	-0.108
Mof_O 	O 	0.6058	0.9447	0.1344	-0.278
Mof_C 	C 	0.5675	0.684	0.0942	0.03
Mof_H 	H 	0.5401	0.6987	0.1184	0.05
Mof_C 	C 	0.3906	0.9245	0.1523	-0.117
Mof_C 	C 	0.8389	0.0407	0.1909	0.078
Mof_C 	C 	0.8021	0.0022	0.2214	0.076
Mof_C 	C 	0.8155	0.0124	0.2796	-0.087
Mof_H 	H 	0.7911	0.9863	0.3008	0.095
Mof_C 	C 	0.8885	0.0933	0.2087	-0.092
Mof_H 	H 	0.9127	0.1189	0.1871	0.09
Mof_C 	C 	0.8973	0.1029	0.2652	-0.019
Mof_H 	H 	0.9268	0.1392	0.2799	0.055
Mof_O 	O 	0.7343	0.4406	0.0173	-0.284
Mof_O 	O 	0.8132	0.4708	0.9695	-0.289
Mof_C 	C 	0.7969	0.4525	0.0118	0.339
Mof_O 	O 	0.8057	0.4184	0.2065	-0.296
Mof_O 	O 	0.9098	0.3899	0.2409	-0.289
Mof_C 	C 	0.8697	0.4095	0.2034	0.373
Mof_O 	O 	0.1708	0.0685	0.9524	-0.27
Mof_O 	O 	0.2633	0.1308	0.9955	-0.265
Mof_C 	C 	0.1993	0.1098	0.9885	0.305
Mof_O 	O 	0.9445	0.1059	0.1011	-0.299
Mof_O 	O 	0.9451	0.0574	0.0297	-0.289
Mof_C 	C 	0.9725	0.0954	0.0629	0.367
Mof_C 	C 	0.0448	0.128	0.062	-0.095
Mof_C 	C 	0.3646	0.5615	0.3007	-0.012
Mof_H 	H 	0.3767	0.568	0.3369	0.052
Mof_Cd	Cd	0.19654	0.42145	0.07095	0.481
Mof_Cd	Cd	0.17811	0.38025	0.20645	0.457
Mof_Cd	Cd	0.33646	0.5526	0.06226	0.458
Mof_O 	O 	0.075	0.4146	0.0515	-0.262
Mof_C 	C 	0.9809	0.4309	0.0989	-0.095
Mof_C 	C 	0.962	0.4228	0.1477	0.051
Mof_H 	H 	0.9978	0.4161	0.1774	0.057
Mof_C 	C 	0.8377	0.4326	0.1073	0.06
Mof_H 	H 	0.7894	0.4302	0.1102	0.046
Mof_C 	C 	0.0589	0.4306	0.0955	0.321
Mof_N 	N 	0.2683	0.4719	0.1436	-0.064
Mof_O 	O 	0.2036	0.3171	0.1179	-0.272
Mof_O 	O 	0.119	0.2902	0.1636	-0.263
Mof_C 	C 	0.1741	0.1935	0.0572	0.027
Mof_H 	H 	0.2177	0.2154	0.0561	0.059
Mof_C 	C 	0.154	0.1381	0.0262	-0.07
Mof_N 	N 	0.2581	0.4588	0.1917	-0.11
Mof_C 	C 	0.1307	0.2182	0.0906	-0.081
Mof_C 	C 	0.8544	0.4439	0.059	-0.107
Mof_C 	C 	0.1522	0.2779	0.1258	0.292
Mof_C 	C 	0.927	0.4428	0.0553	0.05
Mof_H 	H 	0.9397	0.4501	0.0228	0.051
Mof_C 	C 	0.0874	0.104	0.0274	0.024
Mof_H 	H 	0.0727	0.0664	0.0056	0.067
Mof_N 	N 	0.316	0.5188	0.1418	-0.108
Mof_O 	O 	0.1058	0.4447	0.1344	-0.278
Mof_C 	C 	0.0675	0.184	0.0942	0.03
Mof_H 	H 	0.0401	0.1987	0.1184	0.05
Mof_C 	C 	0.8906	0.4245	0.1523	-0.117
Mof_C 	C 	0.3389	0.5407	0.1909	0.078
Mof_C 	C 	0.3021	0.5022	0.2214	0.076
Mof_C 	C 	0.3155	0.5124	0.2796	-0.087
Mof_H 	H 	0.2911	0.4863	0.3008	0.095
Mof_C 	C 	0.3885	0.5933	0.2087	-0.092
Mof_H 	H 	0.4127	0.6189	0.1871	0.09
Mof_C 	C 	0.3973	0.6029	0.2652	-0.019
Mof_H 	H 	0.4268	0.6392	0.2799	0.055
_end
