data_functionalizedCrystal
_audit_creation_method	'EQeq! by Chris Wilmer'
_symmetry_space_group_name_H-M	'P1'
_symmetry_Int_Tables_number	1
_symmetry_cell_setting	triclinic
loop_
_symmetry_equiv_pos_as_xyz
  x,y,z
_cell_length_a	9.1561
_cell_length_b	28.1078
_cell_length_c	28.1078
_cell_angle_alpha	88.4798
_cell_angle_beta	80.6262
_cell_angle_gamma	80.626
loop_
_atom_site_label
_atom_site_type_symbol
_atom_site_fract_x
_atom_site_fract_y
_atom_site_fract_z
_atom_site_charge
Mof_Cd	Cd	-7.78806e-18	-6.15861e-23	0.5	0.475
Mof_Cd	Cd	-0	0	-0	0.466
Mof_Cd	Cd	3.22889e-17	0.5	-0	0.478
Mof_Cd	Cd	0.5	0.5	0.5	0.492
Mof_Co	Co	0.92002	0.73159	0.51361	1.174
Mof_Co	Co	0.65161	0.01361	0.26841	1.168
Mof_Co	Co	0.66522	0.76841	0.98639	1.176
Mof_Co	Co	0.07998	0.26841	0.48639	1.17
Mof_Co	Co	0.33478	0.23159	0.01361	1.168
Mof_Co	Co	0.43363	0.48639	0.23159	1.171
Mof_Co	Co	0.34839	0.98639	0.73159	1.175
Mof_Co	Co	0.56637	0.51361	0.76841	1.171
Mof_H 	H 	0.5704	0.2968	0.3108	0.206
Mof_H 	H 	0.0055	0.5321	0.8847	-0.007
Mof_H 	H 	0.7429	0.0575	0.0737	0.017
Mof_H 	H 	0.75	0.4474	0.5456	0.008
Mof_H 	H 	0.3813	0.3263	0.6563	0.172
Mof_H 	H 	0.4747	0.3508	0.8604	0.042
Mof_H 	H 	0.757	0.9474	0.0456	0.015
Mof_H 	H 	0.3252	0.6898	0.5202	0.118
Mof_H 	H 	0.6658	0.8761	0.0619	0.13
Mof_H 	H 	0.3323	0.4746	0.6042	0.01
Mof_H 	H 	0.5359	0.3933	0.0861	0.102
Mof_H 	H 	0.0635	0.6042	0.0254	0.018
Mof_H 	H 	0.3389	0.197	0.2398	-0.045
Mof_H 	H 	0.5253	0.6492	0.1396	0.045
Mof_H 	H 	0.0708	0.4139	0.3933	0.109
Mof_H 	H 	0.5999	0.3558	0.7028	0.072
Mof_H 	H 	0.2846	0.7914	0.9498	0.193
Mof_H 	H 	0.7174	0.334	0.1122	0.044
Mof_H 	H 	0.1859	0.1492	0.6396	0.04
Mof_H 	H 	0.0777	0.0321	0.3847	0.009
Mof_H 	H 	0.4954	0.0684	0.858	0.079
Mof_H 	H 	0.5144	0.2845	0.5937	-0.072
Mof_H 	H 	0.5153	0.1067	0.4139	0.103
Mof_H 	H 	0.0514	0.6122	0.666	0.049
Mof_H 	H 	0.0773	0.1173	0.3129	-0.118
Mof_H 	H 	0.985	0.9798	0.6898	0.131
Mof_H 	H 	0.9925	0.6173	0.8129	-0.116
Mof_H 	H 	0.076	0.4498	0.2086	0.187
Mof_H 	H 	0.4362	0.642	0.0684	0.079
Mof_H 	H 	0.1946	0.8129	0.8827	-0.12
Mof_H 	H 	0.8919	0.5937	0.2155	-0.11
Mof_H 	H 	0.1038	0.6239	0.4381	0.136
Mof_H 	H 	0.4742	0.2914	0.4498	0.19
Mof_H 	H 	0.7891	0.162	0.3118	0.085
Mof_H 	H 	0.4213	0.2398	0.303	-0.045
Mof_H 	H 	0.5638	0.358	0.9316	0.086
Mof_H 	H 	0.8705	0.6438	0.3488	-0.034
Mof_H 	H 	0.1996	0.4263	0.0575	0.014
Mof_H 	H 	0.8991	0.3118	0.338	0.09
Mof_H 	H 	0.0489	0.1882	0.162	0.08
Mof_H 	H 	0.0376	0.3437	0.8263	0.126
Mof_H 	H 	0.5359	0.7398	0.803	-0.046
Mof_H 	H 	0.2877	0.9774	0.288	0.162
Mof_H 	H 	0.2344	0.0502	0.2914	0.187
Mof_H 	H 	0.5143	0.8488	0.3562	-0.036
Mof_H 	H 	0.0889	0.9746	0.1042	0.007
Mof_H 	H 	0.2109	0.838	0.6882	0.081
Mof_H 	H 	0.9557	0.2028	0.6442	0.082
Mof_H 	H 	0.1585	0.1442	0.7972	0.069
Mof_H 	H 	0.0197	0.9933	0.1835	0.14
Mof_H 	H 	0.924	0.5502	0.7914	0.194
Mof_H 	H 	0.3741	0.4425	0.4263	0.019
Mof_H 	H 	0.2723	0.0619	0.6239	0.139
Mof_H 	H 	0.8454	0.4798	0.1898	0.119
Mof_H 	H 	0.015	0.0202	0.3102	0.097
Mof_H 	H 	0.1745	0.6396	0.3508	0.043
Mof_H 	H 	0.3902	0.6871	0.6173	-0.117
Mof_H 	H 	0.8812	0.6892	0.7968	0.208
Mof_H 	H 	0.25	0.5526	0.4544	0.007
Mof_H 	H 	0.3307	0.9188	0.8466	0.13
Mof_H 	H 	0.4624	0.6153	0.5321	-0.004
Mof_H 	H 	0.8902	0.1153	0.0321	-0.016
Mof_H 	H 	0.8026	0.9544	0.4474	0.012
Mof_H 	H 	0.3534	0.142	0.5684	0.084
Mof_H 	H 	0.1974	0.0456	0.5526	0.005
Mof_H 	H 	0.0531	0.5226	0.212	0.182
Mof_H 	H 	0.6611	0.803	0.7602	-0.045
Mof_H 	H 	0.3351	0.1396	0.8508	0.045
Mof_H 	H 	0.9223	0.9679	0.6153	-0.014
Mof_H 	H 	0.6466	0.858	0.4316	0.081
Mof_H 	H 	0.0352	0.8102	0.9798	0.095
Mof_H 	H 	0.7044	0.5456	0.0526	0.006
Mof_H 	H 	0.1098	0.8847	0.9679	0.008
Mof_H 	H 	0.6259	0.5575	0.5737	0.019
Mof_H 	H 	0.4243	0.288	0.5226	0.157
Mof_H 	H 	0.378	0.0861	0.1067	0.101
Mof_H 	H 	0.1773	0.1534	0.4188	0.136
Mof_H 	H 	0.7656	0.9498	0.7086	0.193
Mof_H 	H 	0.2011	0.9063	0.2845	-0.075
Mof_H 	H 	0.9227	0.8827	0.6871	-0.116
Mof_H 	H 	0.987	0.3165	0.9933	0.166
Mof_H 	H 	0.4641	0.6067	0.9139	0.104
Mof_H 	H 	0.7505	0.6534	0.9188	0.126
Mof_H 	H 	0.7349	0.212	0.9774	0.162
Mof_H 	H 	0.1009	0.6882	0.662	0.077
Mof_H 	H 	0.1188	0.3108	0.2032	0.205
Mof_H 	H 	0.5757	0.712	0.4774	0.157
Mof_H 	H 	0.6098	0.3129	0.3827	-0.117
Mof_H 	H 	0.5961	0.5812	0.6534	0.133
Mof_H 	H 	0.9624	0.6563	0.1737	0.213
Mof_H 	H 	0.5258	0.7086	0.5502	0.19
Mof_H 	H 	0.7968	0.1835	0.5067	0.135
Mof_H 	H 	0.9486	0.3878	0.334	0.036
Mof_H 	H 	0.6693	0.0812	0.1534	0.134
Mof_H 	H 	0.8227	0.8466	0.5812	0.13
Mof_H 	H 	0.1704	0.1122	0.166	0.042
Mof_H 	H 	0.7154	0.2086	0.0502	0.187
Mof_H 	H 	0.4641	0.2602	0.197	-0.044
Mof_H 	H 	0.2032	0.8165	0.4933	0.131
Mof_H 	H 	0.5787	0.7602	0.697	-0.045
Mof_H 	H 	0.5046	0.9316	0.142	0.087
Mof_H 	H 	0.5419	0.5619	0.1239	0.137
Mof_H 	H 	0.5376	0.3847	0.4679	-0.005
Mof_H 	H 	0.2571	0.9425	0.9263	0.022
Mof_H 	H 	0.9365	0.3958	0.9746	0.003
Mof_H 	H 	0.2757	0.303	0.2602	-0.045
Mof_H 	H 	0.4856	0.7155	0.4063	-0.072
Mof_H 	H 	0.7076	0.1563	0.6737	0.171
Mof_H 	H 	0.1328	0.1892	0.2968	0.204
Mof_H 	H 	0.2651	0.788	0.0226	0.154
Mof_H 	H 	0.8054	0.1871	0.1173	-0.113
Mof_H 	H 	0.8166	0.9263	0.5575	0.021
Mof_H 	H 	0.2193	0.6512	0.1438	-0.055
Mof_H 	H 	0.8415	0.8558	0.2028	0.074
Mof_H 	H 	0.9111	0.0254	0.8958	0.016
Mof_H 	H 	0.2371	0.662	0.8118	0.081
Mof_H 	H 	0.8639	0.1737	0.8437	0.174
Mof_H 	H 	0.3631	0.8562	0.1512	-0.035
Mof_H 	H 	0.3364	0.834	0.6122	0.044
Mof_H 	H 	0.8962	0.3761	0.5619	0.14
Mof_H 	H 	0.6748	0.3102	0.4798	0.118
Mof_H 	H 	0.1081	0.4063	0.7845	-0.03
Mof_H 	H 	0.6187	0.6737	0.3437	0.172
Mof_H 	H 	0.9648	0.1898	0.0202	0.142
Mof_H 	H 	0.9292	0.5861	0.6067	0.098
Mof_H 	H 	0.2826	0.666	0.8878	0.043
Mof_H 	H 	0.7989	0.0937	0.7155	-0.07
Mof_H 	H 	0.2924	0.8437	0.3263	0.173
Mof_H 	H 	0.8296	0.8878	0.834	0.045
Mof_H 	H 	0.6677	0.5254	0.3958	0.011
Mof_H 	H 	0.8069	0.1042	0.5254	0.01
Mof_H 	H 	0.1361	0.8263	0.1563	0.169
Mof_H 	H 	0.3342	0.1239	0.9381	0.145
Mof_H 	H 	0.7807	0.3488	0.8562	-0.014
Mof_H 	H 	0.6973	0.7028	0.1442	0.07
Mof_H 	H 	0.4296	0.7032	0.6892	0.206
Mof_H 	H 	0.243	0.0526	0.9544	0.002
Mof_H 	H 	0.322	0.7968	0.8108	0.208
Mof_H 	H 	0.4001	0.6442	0.2972	0.071
Mof_H 	H 	0.8672	0.8108	0.7032	0.209
Mof_H 	H 	0.1295	0.3562	0.6512	-0.037
Mof_H 	H 	0.2956	0.4544	0.9474	0.01
Mof_H 	H 	0.9511	0.8118	0.838	0.085
Mof_H 	H 	0.9469	0.4774	0.788	0.13
Mof_H 	H 	0.4039	0.4188	0.3466	0.133
Mof_H 	H 	0.9218	0.4316	0.642	0.084
Mof_H 	H 	0.4857	0.1512	0.6438	-0.035
Mof_H 	H 	0.8141	0.8508	0.3604	0.047
Mof_H 	H 	0.9803	0.0067	0.8165	0.125
Mof_H 	H 	0.0443	0.7972	0.3558	0.062
Mof_H 	H 	0.9945	0.4679	0.1153	-0.001
Mof_H 	H 	0.1931	0.8958	0.4746	0.012
Mof_H 	H 	0.2495	0.3466	0.0812	0.14
Mof_H 	H 	0.8004	0.5737	0.9425	0.025
Mof_H 	H 	0.6965	0.5067	0.3165	0.134
Mof_H 	H 	0.7629	0.338	0.1882	0.084
Mof_H 	H 	0.1834	0.0737	0.4425	0.018
Mof_H 	H 	0.7243	0.697	0.7398	-0.045
Mof_H 	H 	0.3035	0.4933	0.6835	0.132
Mof_H 	H 	0.3027	0.2972	0.8558	0.073
Mof_H 	H 	0.013	0.6835	0.0067	0.102
Mof_H 	H 	0.8255	0.3604	0.6492	0.044
Mof_H 	H 	0.0782	0.5684	0.358	0.081
Mof_H 	H 	0.1546	0.5202	0.8102	0.117
Mof_H 	H 	0.678	0.2032	0.1892	0.205
Mof_H 	H 	0.4847	0.8933	0.5861	0.102
Mof_H 	H 	0.7277	0.9381	0.3761	0.134
Mof_H 	H 	0.6369	0.1438	0.8488	-0.036
Mof_H 	H 	0.1074	0.7845	0.0937	-0.074
Mof_H 	H 	0.4581	0.4381	0.8761	0.138
Mof_H 	H 	0.7123	0.0226	0.712	0.153
Mof_H 	H 	0.8926	0.2155	0.9063	-0.071
Mof_H 	H 	0.6649	0.8604	0.1492	0.042
Mof_H 	H 	0.0075	0.3827	0.1871	-0.118
Mof_H 	H 	0.6636	0.166	0.3878	0.043
Mof_H 	H 	0.622	0.9139	0.8933	0.104
Mof_C 	C 	0.6095	0.3828	0.488	0.161
Mof_C 	C 	0.1512	0.033	0.581	0.163
Mof_C 	C 	0.3422	0.859	0.6326	0.039
Mof_C 	C 	0.1861	0.3552	0.0586	-0.276
Mof_C 	C 	0.1652	0.1683	0.6133	0.02
Mof_C 	C 	0.9134	0.4503	0.8029	-0.298
Mof_C 	C 	0.3066	0.6379	0.8229	-0.092
Mof_C 	C 	0.7756	0.7695	0.0741	0.161
Mof_C 	C 	0.1866	0.5054	0.8374	-0.256
Mof_C 	C 	0.1538	0.4036	0.0446	0.16
Mof_C 	C 	0.5122	0.2486	0.167	0.24
Mof_C 	C 	0.4502	0.9544	0.3248	0.298
Mof_C 	C 	0.9971	0.614	0.0038	0.132
Mof_C 	C 	0.6252	0.3988	0.2074	0.032
Mof_C 	C 	0.7348	0.533	0.081	0.162
Mof_C 	C 	0.8134	0.4946	0.1626	-0.256
Mof_C 	C 	0.8038	0.0942	0.243	0.166
Mof_C 	C 	0.102	0.0964	0.4554	0.145
Mof_C 	C 	0.8488	0.967	0.419	0.156
Mof_C 	C 	0.4406	0.6058	0.883	-0.105
Mof_C 	C 	0.0819	0.3801	0.2061	0.447
Mof_C 	C 	0.5722	0.7486	0.667	0.243
Mof_C 	C 	0.3396	0.8426	0.1242	0.224
Mof_C 	C 	0.2349	0.195	0.5344	0.036
Mof_C 	C 	0.0323	0.3383	0.0077	-0.327
Mof_C 	C 	0.7163	0.1971	0.9503	-0.384
Mof_C 	C 	0.1681	0.1199	0.2939	0.447
Mof_C 	C 	0.9888	0.5919	0.1985	0.456
Mof_C 	C 	0.0999	0.1448	0.4414	-0.269
Mof_C 	C 	0.1963	0.1623	0.2831	-0.454
Mof_C 	C 	0.5413	0.5586	0.6448	-0.255
Mof_C 	C 	0.6611	0.22	0.0798	-0.466
Mof_C 	C 	0.0133	0.8217	0.5395	0.228
Mof_C 	C 	0.3456	0.299	0.8834	-0.078
Mof_C 	C 	0.4979	0.6645	0.0715	-0.08
Mof_C 	C 	0.7966	0.3348	0.523	0.22
Mof_C 	C 	0.3399	0.2	0.4878	0.168
Mof_C 	C 	0.4601	0.0122	0.2	0.157
Mof_C 	C 	0.8851	0.114	0.5038	0.173
Mof_C 	C 	0.5837	0.4229	0.7303	0.028
Mof_C 	C 	0.5362	0.1242	0.6574	0.224
Mof_C 	C 	0.3423	0.3232	0.6282	-0.373
Mof_C 	C 	0.4819	0.1393	0.0289	0.118
Mof_C 	C 	0.6655	0.1282	0.6768	-0.369
Mof_C 	C 	0.9991	0.0038	0.886	0.153
Mof_C 	C 	0.0066	0.2303	0.5771	0.026
Mof_C 	C 	0.976	0.2926	0.3988	0.046
Mof_C 	C 	0.7587	0.8766	0.0428	-0.223
Mof_C 	C 	0.8158	0.919	0.033	0.148
Mof_C 	C 	0.5021	0.3355	0.9285	-0.092
Mof_C 	C 	0.3637	0.3029	0.5497	-0.383
Mof_C 	C 	0.0077	0.012	0.3828	0.112
Mof_C 	C 	0.6212	0.5289	0.8607	0.123
Mof_C 	C 	0.6662	0.359	0.1326	0.041
Mof_C 	C 	0.8127	0.1985	0.9081	0.347
Mof_C 	C 	0.7409	0.9202	0.72	-0.474
Mof_C 	C 	0.712	0.2061	0.1199	0.444
Mof_C 	C 	0.8016	0.0446	0.0964	0.151
Mof_C 	C 	0.2674	0.8621	0.6771	-0.09
Mof_C 	C 	0.028	0.201	0.6166	-0.091
Mof_C 	C 	0.6446	0.3834	0.701	-0.075
Mof_C 	C 	0.1417	0.3377	0.2169	-0.455
Mof_C 	C 	0.6666	0.0497	0.6971	-0.38
Mof_C 	C 	0.3706	0.5077	0.6617	-0.262
Mof_C 	C 	0.2307	0.5344	0.305	0.034
Mof_C 	C 	0.0112	0.4081	0.8015	0.22
Mof_C 	C 	0.898	0.9036	0.5446	0.151
Mof_C 	C 	0.1873	0.8015	0.0919	0.341
Mof_C 	C 	0.2591	0.0798	0.28	-0.47
Mof_C 	C 	0.2369	0.0771	0.7697	0.025
Mof_C 	C 	0.4723	0.7	0.9878	0.177
Mof_C 	C 	0.1723	0.4878	0.3	0.168
Mof_C 	C 	0.8745	0.6783	0.9605	0.212
Mof_C 	C 	0.3905	0.6172	0.512	0.16
Mof_C 	C 	0.102	0.257	0.0942	0.166
Mof_C 	C 	0.4294	0.8942	0.617	-0.102
Mof_C 	C 	0.8705	0.8229	0.8621	-0.091
Mof_C 	C 	0.9001	0.8552	0.5586	-0.245
Mof_C 	C 	0.9025	0.488	0.1172	0.161
Mof_C 	C 	0.538	0.2939	0.3801	0.449
Mof_C 	C 	0.2034	0.6652	0.477	0.217
Mof_C 	C 	0.6353	0.5428	0.1234	-0.244
Mof_C 	C 	0.9181	0.6199	0.7939	0.452
Mof_C 	C 	0.568	0.0695	0.3511	0.063
Mof_C 	C 	0.1255	0.3217	0.0395	0.264
Mof_C 	C 	0.2294	0.5456	0.1752	0.327
Mof_C 	C 	0.024	0.1626	0.0054	-0.317
Mof_C 	C 	0.7651	0.805	0.4656	0.033
Mof_C 	C 	0.1985	0.0428	0.6234	-0.25
Mof_C 	C 	0.3788	0.4711	0.1393	0.126
Mof_C 	C 	0.5954	0.1752	0.9544	0.297
Mof_C 	C 	0.5108	0.9711	0.6393	0.132
Mof_C 	C 	0.2837	0.8029	0.0497	-0.382
Mof_C 	C 	0.4426	0.4554	0.4036	0.149
Mof_C 	C 	0.2686	0.8988	0.7074	0.03
Mof_C 	C 	0.3625	0.1489	0.0695	0.062
Mof_C 	C 	0.024	0.7074	0.6012	0.02
Mof_C 	C 	0.7208	0.0919	0.6985	0.339
Mof_C 	C 	0.229	0.1166	0.799	-0.072
Mof_C 	C 	0.2792	0.9081	0.3015	0.349
Mof_C 	C 	0.6577	0.6768	0.3718	-0.372
Mof_C 	C 	0.7339	0.8355	0.4285	-0.081
Mof_C 	C 	0.0809	0.3511	0.4305	0.069
Mof_C 	C 	0.308	0.6626	0.5054	-0.256
Mof_C 	C 	0.3834	0.0817	0.2499	0.294
Mof_C 	C 	0.462	0.7061	0.6199	0.45
Mof_C 	C 	0.1624	0.5715	0.3355	-0.086
Mof_C 	C 	0.9677	0.6617	0.9923	-0.2
Mof_C 	C 	0.1842	0.081	0.967	0.176
Mof_C 	C 	0.4794	0.7169	0.6623	-0.456
Mof_C 	C 	0.5451	0.5741	0.2305	0.161
Mof_C 	C 	0.4638	0.8758	0.3426	0.228
Mof_C 	C 	0.8583	0.6623	0.7831	-0.457
Mof_C 	C 	0.3647	0.4572	0.8766	-0.243
Mof_C 	C 	0.8462	0.5964	0.9554	0.137
Mof_C 	C 	0.6375	0.8511	0.9305	0.061
Mof_C 	C 	0.5706	0.1058	0.383	-0.106
Mof_C 	C 	0.5532	0.6683	0.1133	0.008
Mof_C 	C 	0.04	0.9923	0.8383	-0.244
Mof_C 	C 	0.8319	0.8801	0.7061	0.452
Mof_C 	C 	0.1189	0.4202	0.22	-0.47
Mof_C 	C 	0.7553	0.0586	0.1448	-0.26
Mof_C 	C 	0.775	0.6752	0.4544	0.295
Mof_C 	C 	0.2012	0.1326	0.141	0.04
Mof_C 	C 	0.359	0.5942	0.743	0.165
Mof_C 	C 	0.7693	0.4656	0.695	0.035
Mof_C 	C 	0.7937	0.1768	0.8718	-0.374
Mof_C 	C 	0.0866	0.5497	0.1971	-0.459
Mof_C 	C 	0.9867	0.1783	0.4605	0.252
Mof_C 	C 	0.6363	0.6971	0.4503	-0.383
Mof_C 	C 	0.7322	0.419	0.533	0.163
Mof_C 	C 	0.0294	0.9946	0.6626	-0.277
Mof_C 	C 	0.288	0.7939	0.8801	0.454
Mof_C 	C 	0.1962	0.9058	0.757	0.166
Mof_C 	C 	0.4549	0.4259	0.7695	0.161
Mof_C 	C 	0.1822	0.6242	0.1574	0.279
Mof_C 	C 	0.6934	0.3621	0.1771	-0.091
Mof_C 	C 	0.0029	0.386	0.9962	0.206
Mof_C 	C 	0.9705	0.3718	0.8232	-0.255
Mof_C 	C 	0.3345	0.8718	0.3232	-0.377
Mof_C 	C 	0.9934	0.7697	0.4229	0.029
Mof_C 	C 	0.4163	0.5771	0.2697	0.028
Mof_C 	C 	0.5181	0.8607	0.9711	0.13
Mof_C 	C 	0.225	0.3248	0.5456	0.294
Mof_C 	C 	0.1295	0.1771	0.1379	-0.091
Mof_C 	C 	0.9748	0.3674	0.359	0.068
Mof_C 	C 	0.4468	0.3317	0.8867	0.016
Mof_C 	C 	0.2678	0.581	0.467	0.161
Mof_C 	C 	0.8139	0.6448	0.9414	-0.234
Mof_C 	C 	0.3586	0.7831	0.8377	-0.461
Mof_C 	C 	0.0009	0.9962	0.114	0.18
Mof_C 	C 	0.6601	0.8	0.5122	0.169
Mof_C 	C 	0.4651	0.7499	0.9183	0.299
Mof_C 	C 	0.2063	0.8232	0.1282	-0.371
Mof_C 	C 	0.1936	0.3426	0.6242	0.226
Mof_C 	C 	0.1984	0.9554	0.9036	0.145
Mof_C 	C 	0.6665	0.8867	0.1683	0.018
Mof_C 	C 	0.4587	0.4414	0.3552	-0.255
Mof_C 	C 	0.9536	0.617	0.6058	-0.086
Mof_C 	C 	0.3667	0.2499	0.4183	0.296
Mof_C 	C 	0.0252	0.6326	0.641	0.02
Mof_C 	C 	0.9532	0.243	0.4058	0.163
Mof_C 	C 	0.9191	0.6489	0.5695	0.055
Mof_C 	C 	0.8456	0.8348	0.023	0.188
Mof_C 	C 	0.2244	0.2305	0.9259	0.161
Mof_C 	C 	0.6333	0.7501	0.5817	0.297
Mof_C 	C 	0.6111	0.5038	0.386	0.168
Mof_C 	C 	0.1781	0.6234	0.4572	-0.244
Mof_C 	C 	0.5498	0.0456	0.6752	0.292
Mof_C 	C 	0.7706	0.4544	0.8248	0.259
Mof_C 	C 	0.5114	0.5695	0.8511	0.062
Mof_C 	C 	0.432	0.9305	0.6489	0.06
Mof_C 	C 	0.5357	0.695	0.0344	0.025
Mof_C 	C 	0.4878	0.7514	0.833	0.245
Mof_C 	C 	0.5694	0.9285	0.1645	-0.093
Mof_C 	C 	0.5349	0.2501	0.0817	0.294
Mof_C 	C 	0.4193	0.3015	0.5919	0.344
Mof_C 	C 	0.976	0.8374	0.9946	-0.199
Mof_C 	C 	0.6792	0.833	0.7486	0.244
Mof_C 	C 	0.5594	0.3942	0.117	-0.104
Mof_C 	C 	0.1544	0.1652	0.977	0.251
Mof_C 	C 	0.7314	0.1012	0.2926	0.033
Mof_C 	C 	0.3335	0.1133	0.8317	0.006
Mof_C 	C 	0.0197	0.8828	0.988	0.127
Mof_C 	C 	0.641	0.4058	0.257	0.166
Mof_C 	C 	0.8499	0.6393	0.5289	0.128
Mof_C 	C 	0.3338	0.641	0.8674	0.041
Mof_C 	C 	0.1217	0.8383	0.5077	-0.258
Mof_C 	C 	0.3889	0.4962	0.614	0.167
Mof_C 	C 	0.2413	0.1234	0.9572	-0.265
Mof_C 	C 	0.6414	0.2169	0.1623	-0.451
Mof_C 	C 	0.785	0.5817	0.7499	0.298
Mof_C 	C 	0.8376	0.4285	0.6645	-0.086
Mof_C 	C 	0.0464	0.383	0.3942	-0.127
Mof_C 	C 	0.96	0.0077	0.1617	-0.276
Mof_C 	C 	0.6764	0.883	0.8942	-0.103
Mof_C 	C 	0.9445	0.3229	0.3621	-0.109
Mof_C 	C 	0.8178	0.3758	0.8426	0.167
Mof_C 	C 	0.972	0.799	0.3834	-0.061
Mof_C 	C 	0.5277	0.3	0.0122	0.159
Mof_C 	C 	0.8037	0.8377	0.7169	-0.458
Mof_C 	C 	0.4886	0.4305	0.1489	0.061
Mof_C 	C 	0.0555	0.6771	0.6379	-0.077
Mof_C 	C 	0.8811	0.5798	0.78	-0.473
Mof_C 	C 	0.686	0.7303	0.0771	0.027
Mof_C 	C 	0.8348	0.8317	0.3867	0.004
Mof_C 	C 	0.4299	0.0344	0.805	0.023
Mof_C 	C 	0.5574	0.5446	0.5964	0.148
Mof_C 	C 	0.4472	0.5395	0.6783	0.237
Mof_C 	C 	0.4046	0.8248	0.0456	0.292
Mof_C 	C 	0.1503	0.0741	0.7305	0.161
Mof_C 	C 	0.4306	0.0715	0.8355	-0.079
Mof_C 	C 	0.6544	0.701	0.1166	-0.073
Mof_C 	C 	0.2392	0.333	0.2486	0.241
Mof_C 	C 	0.7326	0.1379	0.3229	-0.093
Mof_C 	C 	0.3196	0.477	0.8348	0.218
Mof_C 	C 	0.7631	0.9229	0.2303	0.032
Mof_C 	C 	0.0975	0.512	0.8828	0.16
Mof_C 	C 	0.2447	0.9414	0.8552	-0.248
Mof_C 	C 	0.2215	0.6133	0.3317	0.011
Mof_C 	C 	0.2661	0.1645	0.5715	-0.091
Mof_C 	C 	0.1149	0.886	0.4962	0.164
Mof_C 	C 	0.5528	0.4605	0.3217	0.238
Mof_C 	C 	0.5701	0.9656	0.195	0.048
Mof_C 	C 	0.8015	0.9572	0.3766	-0.232
Mof_C 	C 	0.8783	0.1617	0.4923	-0.268
Mof_C 	C 	0.6804	0.523	0.1652	0.219
Mof_C 	C 	0.2652	0.467	0.919	0.161
Mof_C 	C 	0.4278	0.2514	0.333	0.242
Mof_C 	C 	0.7988	0.8674	0.859	0.042
Mof_C 	C 	0.692	0.3374	0.4946	-0.257
Mof_C 	C 	0.3334	0.9503	0.3029	-0.387
Mof_C 	C 	0.3208	0.167	0.2514	0.241
Mof_C 	C 	0.8326	0.7926	0.8988	0.033
Mof_C 	C 	0.0468	0.757	0.5942	0.168
Mof_C 	C 	0.6578	0.141	0.3674	0.043
Mof_C 	C 	0.215	0.4183	0.2501	0.295
Mof_C 	C 	0.898	0.743	0.9058	0.166
Mof_C 	C 	0.314	0.2697	0.9229	0.03
Mof_C 	C 	0.7785	0.3867	0.6683	0.012
Mof_C 	C 	0.8219	0.3766	0.5428	-0.244
Mof_C 	C 	0.9803	0.1172	0.012	0.194
Mof_C 	C 	0.8064	0.6574	0.3758	0.226
Mof_C 	C 	0.4609	0.28	0.4202	-0.471
Mof_C 	C 	0.6294	0.4923	0.3383	-0.262
Mof_C 	C 	0.9923	0.988	0.6172	0.197
Mof_C 	C 	0.8808	0.2695	0.5741	0.167
Mof_C 	C 	0.1314	0.023	0.6652	0.218
Mof_C 	C 	0.0295	0.6282	0.1768	-0.479
Mof_C 	C 	0.3389	0.78	0.9202	-0.476
Mof_C 	C 	0.165	0.9605	0.8217	0.23
Mof_C 	C 	0.1192	0.7305	0.4259	0.157
Mof_C 	C 	0.8497	0.9259	0.2695	0.161
Mof_C 	C 	0.5807	0.6985	0.4081	0.344
Mof_C 	C 	0.8277	0.5122	0.7	0.169
Mof_C 	C 	0.5399	0.9878	0.8	0.179
Mof_C 	C 	0.835	0.0395	0.1783	0.244
Mof_C 	C 	0.4892	0.0289	0.3607	0.116
Mof_C 	C 	0.1501	0.3607	0.4711	0.12
Mof_C 	C 	0.1674	0.2074	0.1012	0.029
Mof_C 	C 	0.3748	0.6012	0.7926	0.031
Mof_C 	C 	0.5391	0.72	0.5798	-0.472
Mof_C 	C 	0.7608	0.667	0.7514	0.244
Mof_C 	C 	0.771	0.8834	0.201	-0.079
Mof_C 	C 	0.3236	0.117	0.1058	-0.105
Mof_C 	C 	0.6166	0.9183	0.7501	0.298
Mof_C 	C 	0.8686	0.977	0.3348	0.211
Mof_C 	C 	0.4643	0.305	0.9656	0.045
Mof_C 	C 	0.3554	0.6166	0.299	-0.075
Mof_C 	C 	0.9706	0.0054	0.3374	-0.219
Mof_C 	C 	0.6604	0.1574	0.8758	0.227
Mof_C 	C 	0.5206	0.2831	0.3377	-0.455
Mof_N 	N 	0.3514	0.5384	0.2734	-0.254
Mof_N 	N 	0.5154	0.9602	0.765	-0.305
Mof_N 	N 	0.4846	0.0398	0.235	-0.304
Mof_N 	N 	0.5779	0.53	0.21	-0.286
Mof_N 	N 	0.1637	0.3234	0.5048	-0.294
Mof_N 	N 	0.8898	0.7734	0.4616	-0.253
Mof_N 	N 	0.2594	0.4602	0.265	-0.304
Mof_N 	N 	0.3402	0.2364	0.3752	-0.194
Mof_N 	N 	0.1102	0.2266	0.5384	-0.256
Mof_N 	N 	0.6486	0.4616	0.7266	-0.254
Mof_N 	N 	0.5138	0.9162	0.3422	-0.208
Mof_N 	N 	0.9962	0.0821	0.4855	-0.172
Mof_N 	N 	0.5646	0.4506	0.2728	-0.294
Mof_N 	N 	0.1079	0.71	0.47	-0.287
Mof_N 	N 	0.8363	0.6766	0.4952	-0.294
Mof_N 	N 	0.7278	0.4162	0.8422	-0.188
Mof_N 	N 	0.144	0.3422	0.5838	-0.209
Mof_N 	N 	0.9848	0.2272	0.4506	-0.293
Mof_N 	N 	0.4817	0.5145	0.5821	-0.177
Mof_N 	N 	0.4234	0.1248	0.2364	-0.193
Mof_N 	N 	0.3738	0.5779	0.4921	-0.176
Mof_N 	N 	0.0152	0.7728	0.5494	-0.295
Mof_N 	N 	0.8659	0.5079	0.0779	-0.175
Mof_N 	N 	0.0562	0.0779	0.9921	-0.184
Mof_N 	N 	0.4919	0.1766	0.9952	-0.288
Mof_N 	N 	0.6632	0.9616	0.2266	-0.254
Mof_N 	N 	0.2121	0.21	0.97	-0.289
Mof_N 	N 	0.7154	0.8089	0.9329	-0.253
Mof_N 	N 	0.8179	0.97	0.29	-0.281
Mof_N 	N 	0.5244	0.735	0.9602	-0.305
Mof_N 	N 	0.9572	0.6911	0.5671	-0.248
Mof_N 	N 	0.0483	0.0079	0.5779	-0.191
Mof_N 	N 	0.8921	0.29	0.53	-0.285
Mof_N 	N 	0.4871	0.0048	0.6766	-0.3
Mof_N 	N 	0.5081	0.8234	0.0048	-0.298
Mof_N 	N 	0.0038	0.9179	0.5145	-0.177
Mof_N 	N 	0.4354	0.5494	0.7272	-0.294
Mof_N 	N 	0.1821	0.03	0.71	-0.29
Mof_N 	N 	0.2846	0.1911	0.0671	-0.254
Mof_N 	N 	0.4221	0.47	0.79	-0.286
Mof_N 	N 	0.3315	0.5048	0.1766	-0.3
Mof_N 	N 	0.5183	0.4855	0.4179	-0.177
Mof_N 	N 	0.4756	0.265	0.0398	-0.304
Mof_N 	N 	0.3517	0.9329	0.6911	-0.252
Mof_N 	N 	0.1341	0.4921	0.9221	-0.175
Mof_N 	N 	0.6685	0.4952	0.8234	-0.287
Mof_N 	N 	0.9438	0.9221	0.0079	-0.163
Mof_N 	N 	0.4518	0.2636	0.1248	-0.193
Mof_N 	N 	0.7879	0.79	0.03	-0.283
Mof_N 	N 	0.6598	0.7636	0.6248	-0.193
Mof_N 	N 	0.57	0.1578	0.9162	-0.208
Mof_N 	N 	0.5129	0.9952	0.3234	-0.287
Mof_N 	N 	0.5243	0.4329	0.1911	-0.253
Mof_N 	N 	0.6248	0.7266	0.0384	-0.254
Mof_N 	N 	0.4757	0.5671	0.8089	-0.254
Mof_N 	N 	0.9517	0.9921	0.4221	-0.155
Mof_N 	N 	0.2722	0.5838	0.1578	-0.226
Mof_N 	N 	0.1626	0.2728	0.0494	-0.301
Mof_N 	N 	0.5482	0.7364	0.8752	-0.194
Mof_N 	N 	0.788	0.0494	0.2272	-0.296
Mof_N 	N 	0.2804	0.235	0.4602	-0.305
Mof_N 	N 	0.2846	0.3752	0.2636	-0.194
Mof_N 	N 	0.7196	0.765	0.5398	-0.304
Mof_N 	N 	0.9217	0.0145	0.0821	-0.18
Mof_N 	N 	0.6262	0.4221	0.5079	-0.176
Mof_N 	N 	0.9362	0.5821	0.9855	-0.161
Mof_N 	N 	0.43	0.8422	0.0838	-0.207
Mof_N 	N 	0.0783	0.9855	0.9179	-0.168
Mof_N 	N 	0.7406	0.5398	0.735	-0.304
Mof_N 	N 	0.8374	0.7272	0.9506	-0.287
Mof_N 	N 	0.3752	0.2734	0.9616	-0.254
Mof_N 	N 	0.6483	0.0671	0.3089	-0.255
Mof_N 	N 	0.0428	0.3089	0.4329	-0.261
Mof_N 	N 	0.856	0.6578	0.4162	-0.207
Mof_N 	N 	0.5766	0.8752	0.7636	-0.194
Mof_N 	N 	0.7154	0.6248	0.7364	-0.194
Mof_N 	N 	0.0638	0.4179	0.0145	-0.191
Mof_N 	N 	0.4862	0.0838	0.6578	-0.207
Mof_N 	N 	0.3368	0.0384	0.7734	-0.254
Mof_N 	N 	0.212	0.9506	0.7728	-0.292
Mof_Cl	Cl	0.2152	0.5185	0.0277	-0.335
Mof_Cl	Cl	0.2429	0.9723	0.0185	-0.327
Mof_Cl	Cl	0.7337	0.5277	0.4815	-0.328
Mof_Cl	Cl	0.2663	0.4723	0.5185	-0.332
Mof_Cl	Cl	0.7386	0.0185	0.5277	-0.333
Mof_Cl	Cl	0.7571	0.0277	0.9815	-0.322
Mof_Cl	Cl	0.2614	0.9815	0.4723	-0.32
Mof_Cl	Cl	0.7848	0.4815	0.9723	-0.32
Mof_O 	O 	0.2019	0.3997	0.4751	-0.153
Mof_O 	O 	0.8276	0.7815	0.1093	-0.212
Mof_O 	O 	0.9369	0.8907	0.2815	-0.211
Mof_O 	O 	0.5767	0.1003	0.0249	-0.155
Mof_O 	O 	0.7816	0.2815	0.6093	-0.215
Mof_O 	O 	0.2798	0.623	0.721	-0.222
Mof_O 	O 	0.0634	0.4781	0.3273	-0.217
Mof_O 	O 	0.3984	0.0249	0.3997	-0.156
Mof_O 	O 	0.6016	0.9751	0.6003	-0.15
Mof_O 	O 	0.3688	0.0219	0.1727	-0.217
Mof_O 	O 	0.677	0.5249	0.8997	-0.151
Mof_O 	O 	0.0972	0.779	0.623	-0.223
Mof_O 	O 	0.6312	0.9781	0.8273	-0.213
Mof_O 	O 	0.9366	0.5219	0.6727	-0.212
Mof_O 	O 	0.4233	0.8997	0.9751	-0.15
Mof_O 	O 	0.0631	0.1093	0.7185	-0.217
Mof_O 	O 	0.1238	0.877	0.779	-0.223
Mof_O 	O 	0.4585	0.1727	0.4781	-0.215
Mof_O 	O 	0.6093	0.3273	0.0219	-0.215
Mof_O 	O 	0.323	0.4751	0.1003	-0.154
Mof_O 	O 	0.7981	0.6003	0.5249	-0.153
Mof_O 	O 	0.3909	0.3907	0.7815	-0.216
Mof_O 	O 	0.5415	0.8273	0.5219	-0.215
Mof_O 	O 	0.7202	0.377	0.279	-0.22
Mof_O 	O 	0.8762	0.123	0.221	-0.218
Mof_O 	O 	0.6091	0.6093	0.2185	-0.213
Mof_O 	O 	0.2184	0.7185	0.3907	-0.214
Mof_O 	O 	0.9028	0.221	0.377	-0.218
Mof_O 	O 	0.3907	0.6727	0.9781	-0.214
Mof_O 	O 	0.1724	0.2185	0.8907	-0.216
Mof_O 	O 	0.9992	0.721	0.877	-0.218
Mof_O 	O 	0.0008	0.279	0.123	-0.225
_end
