data_functionalizedCrystal
_audit_creation_method	'EQeq! by Chris Wilmer'
_symmetry_space_group_name_H-M	'P1'
_symmetry_Int_Tables_number	1
_symmetry_cell_setting	triclinic
loop_
_symmetry_equiv_pos_as_xyz
  x,y,z
_cell_length_a	5.224
_cell_length_b	8.8
_cell_length_c	26.055
_cell_angle_alpha	90
_cell_angle_beta	90
_cell_angle_gamma	97.38
loop_
_atom_site_label
_atom_site_type_symbol
_atom_site_fract_x
_atom_site_fract_y
_atom_site_fract_z
_atom_site_charge
Mof_Lu	Lu	0.59652	0.47856	0.65917	2.779
Mof_Lu	Lu	0.40348	0.02144	0.15917	2.714
Mof_Lu	Lu	0.40348	0.52144	0.34083	2.779
Mof_Lu	Lu	0.59652	0.97856	0.84083	2.714
Mof_H 	H 	0.995	0.88	0.6442	0.135
Mof_H 	H 	0.944	0.851	0.7016	0.149
Mof_H 	H 	0.414	0.987	0.6647	0.003
Mof_H 	H 	0.231	0.079	0.6943	-0.008
Mof_H 	H 	0.7762	0.55	0.483	0.065
Mof_H 	H 	0.9995	0.6526	0.5111	0.077
Mof_H 	H 	0.005	0.62	0.1442	0.154
Mof_H 	H 	0.056	0.649	0.2016	0.168
Mof_H 	H 	0.586	0.513	0.1647	-0.012
Mof_H 	H 	0.769	0.421	0.1943	-0.035
Mof_H 	H 	0.2238	0.95	0.983	0.062
Mof_H 	H 	0.0005	0.8474	0.0111	0.079
Mof_H 	H 	0.005	0.12	0.3558	0.134
Mof_H 	H 	0.056	0.149	0.2984	0.148
Mof_H 	H 	0.586	0.013	0.3353	0.002
Mof_H 	H 	0.769	0.921	0.3057	-0.009
Mof_H 	H 	0.2238	0.45	0.517	0.065
Mof_H 	H 	0.0005	0.3474	0.4889	0.077
Mof_H 	H 	0.995	0.38	0.8558	0.154
Mof_H 	H 	0.944	0.351	0.7984	0.168
Mof_H 	H 	0.414	0.487	0.8353	-0.012
Mof_H 	H 	0.231	0.579	0.8057	-0.035
Mof_H 	H 	0.7762	0.05	0.017	0.062
Mof_H 	H 	0.9995	0.1526	0.9889	0.079
Mof_C 	C 	0.165	0.7046	0.6685	0.696
Mof_C 	C 	0.0764	0.8583	0.67597	-0.468
Mof_C 	C 	0.29	0.9841	0.68985	-0.034
Mof_C 	C 	0.4132	0.967	0.7414	0.295
Mof_C 	C 	0.7803	0.5105	0.55961	0.358
Mof_C 	C 	0.9097	0.5492	0.50886	-0.194
Mof_C 	C 	0.835	0.7954	0.1685	0.696
Mof_C 	C 	0.9236	0.6417	0.17597	-0.514
Mof_C 	C 	0.71	0.5159	0.18985	0.02
Mof_C 	C 	0.5868	0.533	0.2414	0.304
Mof_C 	C 	0.2197	0.9895	0.05961	0.376
Mof_C 	C 	0.0903	0.9508	0.00886	-0.193
Mof_C 	C 	0.835	0.2954	0.3315	0.696
Mof_C 	C 	0.9236	0.1417	0.32403	-0.468
Mof_C 	C 	0.71	0.0159	0.31015	-0.034
Mof_C 	C 	0.5868	0.033	0.2586	0.295
Mof_C 	C 	0.2197	0.4895	0.44039	0.358
Mof_C 	C 	0.0903	0.4508	0.49114	-0.194
Mof_C 	C 	0.165	0.2046	0.8315	0.696
Mof_C 	C 	0.0764	0.3583	0.82403	-0.514
Mof_C 	C 	0.29	0.4841	0.81015	0.02
Mof_C 	C 	0.4132	0.467	0.7586	0.304
Mof_C 	C 	0.7803	0.0105	0.94039	0.376
Mof_C 	C 	0.9097	0.0492	0.99114	-0.193
Mof_O 	O 	0.4	0.6924	0.66646	-0.718
Mof_O 	O 	0.9959	0.5897	0.66387	-0.816
Mof_O 	O 	0.6269	0.0461	0.75162	-0.535
Mof_O 	O 	0.3023	0.8802	0.77586	-0.597
Mof_O 	O 	0.8113	0.3901	0.58401	-0.602
Mof_O 	O 	0.6422	0.6037	0.57821	-0.568
Mof_O 	O 	0.6	0.8076	0.16646	-0.706
Mof_O 	O 	0.0041	0.9103	0.16387	-0.793
Mof_O 	O 	0.3731	0.4539	0.25162	-0.559
Mof_O 	O 	0.6977	0.6198	0.27586	-0.604
Mof_O 	O 	0.1887	0.1099	0.08401	-0.61
Mof_O 	O 	0.3578	0.8963	0.07821	-0.562
Mof_O 	O 	0.6	0.3076	0.33354	-0.718
Mof_O 	O 	0.0041	0.4103	0.33613	-0.816
Mof_O 	O 	0.3731	0.9539	0.24838	-0.535
Mof_O 	O 	0.6977	0.1198	0.22414	-0.597
Mof_O 	O 	0.1887	0.6099	0.41599	-0.602
Mof_O 	O 	0.3578	0.3963	0.42179	-0.568
Mof_O 	O 	0.4	0.1924	0.83354	-0.706
Mof_O 	O 	0.9959	0.0897	0.83613	-0.793
Mof_O 	O 	0.6269	0.5461	0.74838	-0.559
Mof_O 	O 	0.3023	0.3802	0.72414	-0.604
Mof_O 	O 	0.8113	0.8901	0.91599	-0.61
Mof_O 	O 	0.6422	0.1037	0.92179	-0.562
_end
