data_functionalizedCrystal
_audit_creation_method	'EQeq! by Chris Wilmer'
_symmetry_space_group_name_H-M	'P1'
_symmetry_Int_Tables_number	1
_symmetry_cell_setting	triclinic
loop_
_symmetry_equiv_pos_as_xyz
  x,y,z
_cell_length_a	17.588
_cell_length_b	29.836
_cell_length_c	29.836
_cell_angle_alpha	85.0161
_cell_angle_beta	72.8577
_cell_angle_gamma	72.8577
loop_
_atom_site_label
_atom_site_type_symbol
_atom_site_fract_x
_atom_site_fract_y
_atom_site_fract_z
_atom_site_charge
Mof_Mn	Mn	0.91556	0.08564	0.6435	1.063
Mof_Mn	Mn	0.75743	0.12161	0.52951	1.013
Mof_Mn	Mn	0.20461	0.00254	0.5773	1.057
Mof_Mn	Mn	0.1447	0.41436	0.85651	1.063
Mof_Mn	Mn	0.90855	0.37839	0.97049	1.012
Mof_Mn	Mn	0.28445	0.49746	0.9227	1.058
Mof_Mn	Mn	0.55905	0.35651	0.58564	1.063
Mof_Mn	Mn	0.28694	0.47049	0.62161	1.014
Mof_Mn	Mn	0.78191	0.4227	0.50254	1.059
Mof_Mn	Mn	0.0012	0.14349	0.91437	1.064
Mof_Mn	Mn	0.87904	0.02951	0.87839	1.012
Mof_Mn	Mn	0.20715	0.0773	0.99746	1.056
Mof_Mn	Mn	0.08444	0.91436	0.3565	1.064
Mof_Mn	Mn	0.24257	0.87839	0.47049	1.014
Mof_Mn	Mn	0.79539	0.99746	0.4227	1.058
Mof_Mn	Mn	0.8553	0.58564	0.14349	1.064
Mof_Mn	Mn	0.09145	0.62161	0.02951	1.013
Mof_Mn	Mn	0.71555	0.50254	0.0773	1.059
Mof_Mn	Mn	0.44094	0.64349	0.41437	1.064
Mof_Mn	Mn	0.71305	0.52952	0.37839	1.014
Mof_Mn	Mn	0.21809	0.5773	0.49746	1.059
Mof_Mn	Mn	0.99879	0.85651	0.08564	1.064
Mof_Mn	Mn	0.12097	0.97048	0.12161	1.012
Mof_Mn	Mn	0.79285	0.9227	0.00254	1.056
Mof_H 	H 	0.8988	0.2186	0.699	0.148
Mof_H 	H 	0.8212	0.2929	0.6901	-0.039
Mof_H 	H 	0.7396	0.3088	0.6368	0.124
Mof_H 	H 	0.7385	0.2476	0.5966	-0.001
Mof_H 	H 	0.8499	0.0104	0.5324	0.111
Mof_H 	H 	0.9198	0.9754	0.5534	0.113
Mof_H 	H 	0.8463	0.0868	0.7544	0.001
Mof_H 	H 	0.7368	0.0765	0.8153	0.1
Mof_H 	H 	0.6222	0.0663	0.7195	0.094
Mof_H 	H 	0.7331	0.0779	0.6619	-0.009
Mof_H 	H 	0.6128	0.0536	0.8422	0.071
Mof_H 	H 	0.5808	0.0328	0.806	0.065
Mof_H 	H 	0.5487	0.1116	0.6492	0.13
Mof_H 	H 	0.448	0.074	0.6562	-0.026
Mof_H 	H 	0.454	0.0265	0.5979	0.106
Mof_H 	H 	0.5665	0.0158	0.529	0.001
Mof_H 	H 	0.9746	0.0467	0.4057	0.075
Mof_H 	H 	0.9136	0.073	0.375	0.065
Mof_H 	H 	0.9949	0.1196	0.4174	0.106
Mof_H 	H 	0.0243	0.1062	0.363	0.1
Mof_H 	H 	0.9374	0.1443	0.3843	0.102
Mof_H 	H 	0.289	0.922	0.6914	0.133
Mof_H 	H 	0.227	0.9204	0.7708	-0.033
Mof_H 	H 	0.0885	0.9649	0.8015	0.106
Mof_H 	H 	0.0168	0.0114	0.7514	0.001
Mof_H 	H 	0.0237	0.0902	0.5018	0.061
Mof_H 	H 	0.9966	0.1288	0.5416	0.056
Mof_H 	H 	0.117	0.1506	0.5078	0.109
Mof_H 	H 	0.0652	0.155	0.4708	0.102
Mof_H 	H 	0.1456	0.1114	0.4682	0.117
Mof_H 	H 	0.2866	0.1494	0.931	-0.031
Mof_H 	H 	0.3922	0.1594	0.8702	0.11
Mof_H 	H 	0.478	0.0187	0.8635	0.09
Mof_H 	H 	0.3706	0.0167	0.9317	0
Mof_H 	H 	0.5044	0.1052	0.793	0.072
Mof_H 	H 	0.5385	0.1272	0.8274	0.075
Mof_H 	H 	0.3164	0.2814	0.801	0.148
Mof_H 	H 	0.3042	0.2071	0.8099	-0.039
Mof_H 	H 	0.1852	0.1912	0.8632	0.124
Mof_H 	H 	0.0827	0.2524	0.9034	-0.001
Mof_H 	H 	0.8927	0.4896	0.9676	0.111
Mof_H 	H 	0.9486	0.5246	0.9466	0.113
Mof_H 	H 	0.1875	0.4132	0.7456	0.001
Mof_H 	H 	0.1286	0.4235	0.6847	0.1
Mof_H 	H 	0.908	0.4337	0.7805	0.094
Mof_H 	H 	0.9729	0.4221	0.8381	-0.009
Mof_H 	H 	0.0086	0.4464	0.6578	0.071
Mof_H 	H 	0.9196	0.4672	0.694	0.065
Mof_H 	H 	0.8095	0.3884	0.8508	0.13
Mof_H 	H 	0.6782	0.426	0.8438	-0.026
Mof_H 	H 	0.5784	0.4735	0.9021	0.106
Mof_H 	H 	0.6113	0.4842	0.971	0.001
Mof_H 	H 	0.927	0.4533	0.0943	0.075
Mof_H 	H 	0.8616	0.427	0.125	0.065
Mof_H 	H 	0.0319	0.3804	0.0826	0.106
Mof_H 	H 	0.9935	0.3938	0.137	0.101
Mof_H 	H 	0.966	0.3557	0.1157	0.102
Mof_H 	H 	0.4024	0.578	0.8086	0.133
Mof_H 	H 	0.4182	0.5796	0.7292	-0.033
Mof_H 	H 	0.3549	0.5351	0.6985	0.105
Mof_H 	H 	0.2796	0.4886	0.7486	0.002
Mof_H 	H 	0.1157	0.4098	0.9982	0.061
Mof_H 	H 	0.167	0.3712	0.9584	0.056
Mof_H 	H 	0.2754	0.3494	0.9922	0.108
Mof_H 	H 	0.191	0.345	0.0292	0.102
Mof_H 	H 	0.2252	0.3886	0.0318	0.116
Mof_H 	H 	0.867	0.3506	0.569	-0.031
Mof_H 	H 	0.9218	0.3406	0.6298	0.11
Mof_H 	H 	0.8602	0.4813	0.6365	0.09
Mof_H 	H 	0.819	0.4833	0.5683	0
Mof_H 	H 	0.9026	0.3948	0.707	0.072
Mof_H 	H 	0.9931	0.3728	0.6726	0.075
Mof_H 	H 	0.5978	0.301	0.7186	0.148
Mof_H 	H 	0.5113	0.3099	0.7929	-0.039
Mof_H 	H 	0.3764	0.3632	0.8088	0.124
Mof_H 	H 	0.3351	0.4034	0.7476	-0.001
Mof_H 	H 	0.3823	0.4676	0.5104	0.111
Mof_H 	H 	0.4732	0.4466	0.4754	0.113
Mof_H 	H 	0.6007	0.2456	0.5868	0.001
Mof_H 	H 	0.5521	0.1847	0.5765	0.1
Mof_H 	H 	0.3417	0.2805	0.5663	0.094
Mof_H 	H 	0.395	0.3381	0.5779	-0.009
Mof_H 	H 	0.455	0.1578	0.5536	0.071
Mof_H 	H 	0.3868	0.194	0.5328	0.065
Mof_H 	H 	0.1979	0.3508	0.6116	0.13
Mof_H 	H 	0.1042	0.3438	0.574	-0.026
Mof_H 	H 	0.0519	0.4021	0.5265	0.106
Mof_H 	H 	0.0955	0.471	0.5158	0.001
Mof_H 	H 	0.3803	0.5943	0.5467	0.075
Mof_H 	H 	0.2886	0.625	0.573	0.065
Mof_H 	H 	0.4123	0.5826	0.6196	0.106
Mof_H 	H 	0.3873	0.637	0.6062	0.101
Mof_H 	H 	0.3217	0.6157	0.6443	0.102
Mof_H 	H 	0.9804	0.3086	0.422	0.133
Mof_H 	H 	0.9978	0.2292	0.4204	-0.033
Mof_H 	H 	0.89	0.1985	0.4649	0.105
Mof_H 	H 	0.7682	0.2486	0.5114	0.002
Mof_H 	H 	0.5255	0.4982	0.5902	0.061
Mof_H 	H 	0.5382	0.4584	0.6288	0.055
Mof_H 	H 	0.6248	0.4922	0.6506	0.109
Mof_H 	H 	0.536	0.5292	0.655	0.102
Mof_H 	H 	0.6138	0.5318	0.6114	0.117
Mof_H 	H 	0.2176	0.069	0.6494	-0.031
Mof_H 	H 	0.2624	0.1298	0.6594	0.11
Mof_H 	H 	0.3415	0.1365	0.5187	0.09
Mof_H 	H 	0.3023	0.0683	0.5167	0
Mof_H 	H 	0.2974	0.207	0.6052	0.072
Mof_H 	H 	0.3659	0.1726	0.6272	0.075
Mof_H 	H 	0.1174	0.199	0.7814	0.148
Mof_H 	H 	0.1141	0.1901	0.7071	-0.039
Mof_H 	H 	0.0484	0.1368	0.6912	0.123
Mof_H 	H 	0.9861	0.0966	0.7524	-0.001
Mof_H 	H 	0.8603	0.0324	0.9896	0.108
Mof_H 	H 	0.8952	0.0534	0.0246	0.112
Mof_H 	H 	0.9331	0.2544	0.9132	0.001
Mof_H 	H 	0.8133	0.3153	0.9235	0.1
Mof_H 	H 	0.6885	0.2195	0.9337	0.094
Mof_H 	H 	0.811	0.1619	0.9221	-0.009
Mof_H 	H 	0.6664	0.3422	0.9464	0.071
Mof_H 	H 	0.6136	0.306	0.9672	0.065
Mof_H 	H 	0.6603	0.1492	0.8884	0.129
Mof_H 	H 	0.522	0.1562	0.926	-0.026
Mof_H 	H 	0.4805	0.0979	0.9735	0.106
Mof_H 	H 	0.5823	0.029	0.9842	0.001
Mof_H 	H 	0.0213	0.9057	0.9533	0.075
Mof_H 	H 	0.9866	0.875	0.927	0.065
Mof_H 	H 	0.1145	0.9174	0.8804	0.106
Mof_H 	H 	0.1305	0.863	0.8938	0.101
Mof_H 	H 	0.0817	0.8843	0.8557	0.103
Mof_H 	H 	0.211	0.1914	0.078	0.133
Mof_H 	H 	0.1474	0.2708	0.0796	-0.033
Mof_H 	H 	0.0534	0.3015	0.0351	0.105
Mof_H 	H 	0.0282	0.2514	0.9886	0.001
Mof_H 	H 	0.1139	0.0018	0.9098	0.062
Mof_H 	H 	0.1254	0.0416	0.8712	0.057
Mof_H 	H 	0.2676	0.0078	0.8494	0.106
Mof_H 	H 	0.2202	0.9708	0.845	0.1
Mof_H 	H 	0.257	0.9682	0.8886	0.115
Mof_H 	H 	0.436	0.431	0.8506	-0.031
Mof_H 	H 	0.5516	0.3702	0.8406	0.11
Mof_H 	H 	0.4967	0.3635	0.9813	0.09
Mof_H 	H 	0.3873	0.4317	0.9833	0
Mof_H 	H 	0.6096	0.293	0.8948	0.072
Mof_H 	H 	0.6657	0.3274	0.8728	0.075
Mof_H 	H 	0.1012	0.7814	0.301	0.148
Mof_H 	H 	0.1788	0.7071	0.3099	-0.039
Mof_H 	H 	0.2604	0.6912	0.3632	0.124
Mof_H 	H 	0.2615	0.7524	0.4034	-0.001
Mof_H 	H 	0.1501	0.9896	0.4676	0.111
Mof_H 	H 	0.0802	0.0246	0.4466	0.113
Mof_H 	H 	0.1537	0.9132	0.2456	0.001
Mof_H 	H 	0.2632	0.9235	0.1847	0.1
Mof_H 	H 	0.3778	0.9337	0.2805	0.094
Mof_H 	H 	0.2669	0.9221	0.3381	-0.009
Mof_H 	H 	0.3872	0.9464	0.1578	0.071
Mof_H 	H 	0.4192	0.9672	0.194	0.065
Mof_H 	H 	0.4513	0.8884	0.3508	0.13
Mof_H 	H 	0.552	0.926	0.3438	-0.026
Mof_H 	H 	0.546	0.9735	0.4021	0.106
Mof_H 	H 	0.4335	0.9842	0.471	0.001
Mof_H 	H 	0.0254	0.9533	0.5943	0.075
Mof_H 	H 	0.0864	0.927	0.625	0.065
Mof_H 	H 	0.0051	0.8804	0.5826	0.106
Mof_H 	H 	0.9757	0.8938	0.637	0.1
Mof_H 	H 	0.0626	0.8557	0.6157	0.102
Mof_H 	H 	0.711	0.078	0.3086	0.133
Mof_H 	H 	0.773	0.0796	0.2292	-0.033
Mof_H 	H 	0.9115	0.0351	0.1985	0.106
Mof_H 	H 	0.9832	0.9886	0.2486	0.001
Mof_H 	H 	0.9763	0.9098	0.4982	0.061
Mof_H 	H 	0.0034	0.8712	0.4584	0.056
Mof_H 	H 	0.883	0.8494	0.4922	0.109
Mof_H 	H 	0.9348	0.845	0.5292	0.102
Mof_H 	H 	0.8544	0.8886	0.5318	0.117
Mof_H 	H 	0.7134	0.8506	0.069	-0.031
Mof_H 	H 	0.6078	0.8406	0.1298	0.11
Mof_H 	H 	0.522	0.9813	0.1365	0.09
Mof_H 	H 	0.6294	0.9833	0.0683	0
Mof_H 	H 	0.4956	0.8948	0.207	0.072
Mof_H 	H 	0.4615	0.8728	0.1726	0.075
Mof_H 	H 	0.6836	0.7186	0.199	0.148
Mof_H 	H 	0.6958	0.7929	0.1901	-0.039
Mof_H 	H 	0.8148	0.8088	0.1368	0.124
Mof_H 	H 	0.9173	0.7476	0.0966	-0.001
Mof_H 	H 	0.1073	0.5104	0.0324	0.111
Mof_H 	H 	0.0514	0.4754	0.0534	0.113
Mof_H 	H 	0.8125	0.5868	0.2544	0.001
Mof_H 	H 	0.8714	0.5765	0.3153	0.1
Mof_H 	H 	0.092	0.5663	0.2195	0.094
Mof_H 	H 	0.0271	0.5779	0.1619	-0.009
Mof_H 	H 	0.9914	0.5536	0.3422	0.071
Mof_H 	H 	0.0804	0.5328	0.306	0.065
Mof_H 	H 	0.1905	0.6116	0.1492	0.13
Mof_H 	H 	0.3218	0.574	0.1562	-0.026
Mof_H 	H 	0.4216	0.5265	0.0979	0.106
Mof_H 	H 	0.3887	0.5158	0.029	0.001
Mof_H 	H 	0.073	0.5467	0.9057	0.075
Mof_H 	H 	0.1384	0.573	0.875	0.065
Mof_H 	H 	0.9681	0.6196	0.9174	0.106
Mof_H 	H 	0.0065	0.6062	0.863	0.101
Mof_H 	H 	0.034	0.6443	0.8843	0.102
Mof_H 	H 	0.5976	0.422	0.1914	0.133
Mof_H 	H 	0.5818	0.4204	0.2708	-0.033
Mof_H 	H 	0.6451	0.4649	0.3015	0.105
Mof_H 	H 	0.7204	0.5114	0.2514	0.002
Mof_H 	H 	0.8843	0.5902	0.0018	0.061
Mof_H 	H 	0.833	0.6288	0.0416	0.056
Mof_H 	H 	0.7246	0.6506	0.0078	0.108
Mof_H 	H 	0.809	0.655	0.9708	0.102
Mof_H 	H 	0.7748	0.6114	0.9682	0.116
Mof_H 	H 	0.133	0.6494	0.431	-0.031
Mof_H 	H 	0.0782	0.6594	0.3702	0.11
Mof_H 	H 	0.1398	0.5187	0.3635	0.09
Mof_H 	H 	0.181	0.5167	0.4317	0
Mof_H 	H 	0.0974	0.6052	0.293	0.072
Mof_H 	H 	0.0069	0.6272	0.3274	0.075
Mof_H 	H 	0.4022	0.699	0.2814	0.148
Mof_H 	H 	0.4887	0.6901	0.2071	-0.039
Mof_H 	H 	0.6236	0.6368	0.1912	0.124
Mof_H 	H 	0.6649	0.5966	0.2524	-0.001
Mof_H 	H 	0.6177	0.5324	0.4896	0.111
Mof_H 	H 	0.5268	0.5534	0.5246	0.113
Mof_H 	H 	0.3993	0.7544	0.4132	0.001
Mof_H 	H 	0.4479	0.8153	0.4235	0.1
Mof_H 	H 	0.6583	0.7195	0.4337	0.094
Mof_H 	H 	0.605	0.6619	0.4221	-0.009
Mof_H 	H 	0.545	0.8422	0.4464	0.071
Mof_H 	H 	0.6132	0.806	0.4672	0.065
Mof_H 	H 	0.8021	0.6492	0.3884	0.13
Mof_H 	H 	0.8958	0.6562	0.426	-0.026
Mof_H 	H 	0.9481	0.5979	0.4735	0.106
Mof_H 	H 	0.9045	0.529	0.4842	0.001
Mof_H 	H 	0.6197	0.4057	0.4533	0.075
Mof_H 	H 	0.7114	0.375	0.427	0.065
Mof_H 	H 	0.5877	0.4174	0.3804	0.106
Mof_H 	H 	0.6127	0.363	0.3938	0.101
Mof_H 	H 	0.6783	0.3843	0.3557	0.102
Mof_H 	H 	0.0196	0.6914	0.578	0.133
Mof_H 	H 	0.0022	0.7708	0.5796	-0.033
Mof_H 	H 	0.11	0.8015	0.5351	0.105
Mof_H 	H 	0.2318	0.7514	0.4886	0.002
Mof_H 	H 	0.4745	0.5018	0.4098	0.061
Mof_H 	H 	0.4618	0.5416	0.3712	0.055
Mof_H 	H 	0.3752	0.5078	0.3494	0.109
Mof_H 	H 	0.464	0.4708	0.345	0.102
Mof_H 	H 	0.3862	0.4682	0.3886	0.117
Mof_H 	H 	0.7824	0.931	0.3506	-0.031
Mof_H 	H 	0.7376	0.8702	0.3406	0.11
Mof_H 	H 	0.6585	0.8635	0.4813	0.09
Mof_H 	H 	0.6977	0.9317	0.4833	0
Mof_H 	H 	0.7026	0.793	0.3948	0.072
Mof_H 	H 	0.6341	0.8274	0.3728	0.075
Mof_H 	H 	0.8826	0.801	0.2186	0.148
Mof_H 	H 	0.8859	0.8099	0.2929	-0.039
Mof_H 	H 	0.9516	0.8632	0.3088	0.123
Mof_H 	H 	0.0139	0.9034	0.2476	-0.001
Mof_H 	H 	0.1397	0.9676	0.0104	0.108
Mof_H 	H 	0.1048	0.9466	0.9754	0.112
Mof_H 	H 	0.0669	0.7456	0.0868	0.001
Mof_H 	H 	0.1867	0.6847	0.0765	0.1
Mof_H 	H 	0.3115	0.7805	0.0663	0.094
Mof_H 	H 	0.189	0.8381	0.0779	-0.009
Mof_H 	H 	0.3336	0.6578	0.0536	0.071
Mof_H 	H 	0.3864	0.694	0.0328	0.065
Mof_H 	H 	0.3397	0.8508	0.1116	0.13
Mof_H 	H 	0.478	0.8438	0.074	-0.026
Mof_H 	H 	0.5195	0.9021	0.0265	0.106
Mof_H 	H 	0.4177	0.971	0.0158	0.001
Mof_H 	H 	0.9787	0.0943	0.0467	0.075
Mof_H 	H 	0.0134	0.125	0.073	0.065
Mof_H 	H 	0.8855	0.0826	0.1196	0.106
Mof_H 	H 	0.8695	0.137	0.1062	0.101
Mof_H 	H 	0.9183	0.1157	0.1443	0.103
Mof_H 	H 	0.789	0.8086	0.922	0.133
Mof_H 	H 	0.8526	0.7292	0.9204	-0.033
Mof_H 	H 	0.9466	0.6985	0.9649	0.105
Mof_H 	H 	0.9718	0.7486	0.0114	0.001
Mof_H 	H 	0.8861	0.9982	0.0902	0.062
Mof_H 	H 	0.8746	0.9584	0.1288	0.057
Mof_H 	H 	0.7324	0.9922	0.1506	0.106
Mof_H 	H 	0.7798	0.0292	0.155	0.1
Mof_H 	H 	0.743	0.0318	0.1114	0.115
Mof_H 	H 	0.564	0.569	0.1494	-0.031
Mof_H 	H 	0.4484	0.6298	0.1594	0.11
Mof_H 	H 	0.5033	0.6365	0.0187	0.09
Mof_H 	H 	0.6127	0.5683	0.0167	0
Mof_H 	H 	0.3904	0.707	0.1052	0.072
Mof_H 	H 	0.3343	0.6726	0.1272	0.075
Mof_C 	C 	0.8667	0.18636	0.65344	0.345
Mof_C 	C 	0.86601	0.224	0.67778	-0.321
Mof_C 	C 	0.82028	0.26813	0.67251	0.188
Mof_C 	C 	0.7715	0.27784	0.64116	-0.248
Mof_C 	C 	0.77184	0.24135	0.61757	0.176
Mof_C 	C 	0.81747	0.19517	0.62169	-0.273
Mof_C 	C 	0.81403	0.159	0.59394	0.316
Mof_C 	C 	0.87217	0.03959	0.58487	0.279
Mof_C 	C 	0.866	0.99988	0.56152	-0.278
Mof_C 	C 	0.79959	0.08251	0.74731	0.117
Mof_C 	C 	0.73519	0.07588	0.78374	-0.194
Mof_C 	C 	0.66624	0.0681	0.77382	0.138
Mof_C 	C 	0.66804	0.07005	0.72787	-0.2
Mof_C 	C 	0.73423	0.07721	0.69353	0.124
Mof_C 	C 	0.595	0.06054	0.81326	-0.147
Mof_C 	C 	0.61397	0.09007	0.58119	0.303
Mof_C 	C 	0.55076	0.09351	0.62397	-0.278
Mof_C 	C 	0.4925	0.0702	0.6282	0.156
Mof_C 	C 	0.4956	0.0419	0.5941	-0.214
Mof_C 	C 	0.56261	0.03609	0.55289	0.137
Mof_C 	C 	0.62216	0.05916	0.54632	-0.25
Mof_C 	C 	0.68881	0.05071	0.50267	0.302
Mof_C 	C 	0.86163	0.08551	0.44543	0.232
Mof_C 	C 	0.93355	0.0766	0.4019	-0.151
Mof_C 	C 	0.9763	0.1151	0.3907	-0.258
Mof_C 	C 	0.19382	0.96934	0.67222	0.327
Mof_C 	C 	0.23368	0.94104	0.7036	-0.285
Mof_C 	C 	0.19703	0.93936	0.75078	0.155
Mof_C 	C 	0.11542	0.96575	0.76881	-0.215
Mof_C 	C 	0.07279	0.99374	0.73868	0.146
Mof_C 	C 	0.10925	0.99632	0.69158	-0.253
Mof_C 	C 	0.06219	0.02777	0.66305	0.303
Mof_C 	C 	0.0828	0.06999	0.55201	0.226
Mof_C 	C 	0.04507	0.10603	0.52123	-0.123
Mof_C 	C 	0.0977	0.13309	0.48931	-0.281
Mof_C 	C 	0.3299	0.1218	0.919	0.171
Mof_C 	C 	0.3924	0.1287	0.8819	-0.253
Mof_C 	C 	0.4522	0.0926	0.863	0.163
Mof_C 	C 	0.4418	0.0468	0.8792	-0.193
Mof_C 	C 	0.3762	0.0462	0.9188	0.115
Mof_C 	C 	0.5235	0.0992	0.8216	-0.164
Mof_C 	C 	0.2065	0.31364	0.84656	0.345
Mof_C 	C 	0.26779	0.276	0.82222	-0.321
Mof_C 	C 	0.26092	0.23187	0.82749	0.188
Mof_C 	C 	0.1905	0.22216	0.85884	-0.248
Mof_C 	C 	0.13076	0.25865	0.88243	0.176
Mof_C 	C 	0.13433	0.30483	0.87831	-0.273
Mof_C 	C 	0.06697	0.341	0.90606	0.316
Mof_C 	C 	0.99663	0.46041	0.91513	0.279
Mof_C 	C 	0.9274	0.50012	0.93848	-0.278
Mof_C 	C 	0.12941	0.41749	0.75269	0.117
Mof_C 	C 	0.09481	0.42412	0.71626	-0.194
Mof_C 	C 	0.00816	0.4319	0.72618	0.138
Mof_C 	C 	0.96596	0.42995	0.77213	-0.201
Mof_C 	C 	0.00497	0.42279	0.80647	0.124
Mof_C 	C 	0.9688	0.43946	0.68674	-0.147
Mof_C 	C 	0.78523	0.40993	0.91881	0.303
Mof_C 	C 	0.76824	0.40649	0.87603	-0.278
Mof_C 	C 	0.6909	0.4298	0.8718	0.155
Mof_C 	C 	0.6316	0.4581	0.9059	-0.214
Mof_C 	C 	0.65159	0.46391	0.94711	0.137
Mof_C 	C 	0.72764	0.44084	0.95368	-0.25
Mof_C 	C 	0.74219	0.44929	0.99733	0.302
Mof_C 	C 	0.89257	0.41449	0.05457	0.232
Mof_C 	C 	0.91205	0.4234	0.0981	-0.15
Mof_C 	C 	0.9821	0.3849	0.1093	-0.259
Mof_C 	C 	0.33538	0.53066	0.82778	0.326
Mof_C 	C 	0.37832	0.55896	0.7964	-0.285
Mof_C 	C 	0.38717	0.56064	0.74922	0.154
Mof_C 	C 	0.34998	0.53425	0.73119	-0.214
Mof_C 	C 	0.30521	0.50626	0.76132	0.144
Mof_C 	C 	0.29715	0.50368	0.80842	-0.253
Mof_C 	C 	0.25301	0.47223	0.83695	0.304
Mof_C 	C 	0.2048	0.43001	0.94799	0.227
Mof_C 	C 	0.17233	0.39397	0.97877	-0.125
Mof_C 	C 	0.2201	0.36691	0.01069	-0.278
Mof_C 	C 	0.8707	0.3782	0.581	0.171
Mof_C 	C 	0.903	0.3713	0.6181	-0.253
Mof_C 	C 	0.9078	0.4074	0.637	0.163
Mof_C 	C 	0.8678	0.4532	0.6208	-0.193
Mof_C 	C 	0.8412	0.4538	0.5812	0.115
Mof_C 	C 	0.9443	0.4008	0.6784	-0.164
Mof_C 	C 	0.52014	0.34656	0.68636	0.345
Mof_C 	C 	0.54379	0.32222	0.724	-0.321
Mof_C 	C 	0.49279	0.32749	0.76813	0.188
Mof_C 	C 	0.41266	0.35884	0.77784	-0.248
Mof_C 	C 	0.38941	0.38243	0.74135	0.176
Mof_C 	C 	0.43916	0.37831	0.69517	-0.273
Mof_C 	C 	0.40797	0.40606	0.659	0.316
Mof_C 	C 	0.45704	0.41513	0.53959	0.279
Mof_C 	C 	0.42752	0.43848	0.49988	-0.278
Mof_C 	C 	0.5469	0.25269	0.58251	0.117
Mof_C 	C 	0.51893	0.21626	0.57588	-0.194
Mof_C 	C 	0.44006	0.22618	0.5681	0.138
Mof_C 	C 	0.39591	0.27213	0.57005	-0.201
Mof_C 	C 	0.42776	0.30647	0.57721	0.124
Mof_C 	C 	0.40826	0.18674	0.56054	-0.147
Mof_C 	C 	0.19516	0.41881	0.59007	0.303
Mof_C 	C 	0.17473	0.37603	0.59351	-0.278
Mof_C 	C 	0.1207	0.3718	0.5702	0.156
Mof_C 	C 	0.0897	0.4059	0.5419	-0.214
Mof_C 	C 	0.1155	0.44711	0.53609	0.137
Mof_C 	C 	0.16848	0.45368	0.55916	-0.25
Mof_C 	C 	0.19148	0.49733	0.55071	0.302
Mof_C 	C 	0.30706	0.55457	0.58551	0.232
Mof_C 	C 	0.33545	0.5981	0.5766	-0.15
Mof_C 	C 	0.367	0.6093	0.6151	-0.259
Mof_C 	C 	0.86604	0.32778	0.46934	0.326
Mof_C 	C 	0.93728	0.2964	0.44104	-0.285
Mof_C 	C 	0.94781	0.24922	0.43936	0.154
Mof_C 	C 	0.88423	0.23119	0.46575	-0.214
Mof_C 	C 	0.81147	0.26132	0.49374	0.144
Mof_C 	C 	0.80083	0.30842	0.49632	-0.253
Mof_C 	C 	0.72524	0.33695	0.52777	0.304
Mof_C 	C 	0.63481	0.44799	0.56999	0.226
Mof_C 	C 	0.5663	0.47877	0.60603	-0.123
Mof_C 	C 	0.58701	0.51069	0.63309	-0.282
Mof_C 	C 	0.2489	0.081	0.6218	0.171
Mof_C 	C 	0.2743	0.1181	0.6287	-0.253
Mof_C 	C 	0.3152	0.137	0.5926	0.163
Mof_C 	C 	0.321	0.1208	0.5468	-0.193
Mof_C 	C 	0.295	0.0812	0.5462	0.115
Mof_C 	C 	0.3451	0.1784	0.5992	-0.164
Mof_C 	C 	0.05306	0.15344	0.81364	0.345
Mof_C 	C 	0.09001	0.17778	0.776	-0.32
Mof_C 	C 	0.08841	0.17251	0.73187	0.188
Mof_C 	C 	0.04934	0.14116	0.72216	-0.247
Mof_C 	C 	0.01319	0.11757	0.75865	0.175
Mof_C 	C 	0.01264	0.12169	0.80483	-0.273
Mof_C 	C 	0.97303	0.09394	0.841	0.316
Mof_C 	C 	0.91176	0.08487	0.96041	0.277
Mof_C 	C 	0.86588	0.06152	0.00012	-0.274
Mof_C 	C 	0.8821	0.24731	0.91749	0.117
Mof_C 	C 	0.81107	0.28374	0.92412	-0.194
Mof_C 	C 	0.73434	0.27382	0.9319	0.138
Mof_C 	C 	0.73809	0.22787	0.92995	-0.2
Mof_C 	C 	0.81144	0.19353	0.92279	0.124
Mof_C 	C 	0.65554	0.31326	0.93946	-0.147
Mof_C 	C 	0.70404	0.08119	0.90993	0.303
Mof_C 	C 	0.64427	0.12397	0.90649	-0.277
Mof_C 	C 	0.5627	0.1282	0.9298	0.155
Mof_C 	C 	0.5375	0.0941	0.9581	-0.213
Mof_C 	C 	0.5987	0.05289	0.96391	0.137
Mof_C 	C 	0.68132	0.04632	0.94084	-0.249
Mof_C 	C 	0.73952	0.00267	0.94929	0.299
Mof_C 	C 	0.94714	0.94543	0.91449	0.232
Mof_C 	C 	0.01015	0.9019	0.9234	-0.15
Mof_C 	C 	0.0914	0.8907	0.8849	-0.26
Mof_C 	C 	0.16316	0.17222	0.03066	0.326
Mof_C 	C 	0.17472	0.2036	0.05896	-0.285
Mof_C 	C 	0.13639	0.25078	0.06064	0.154
Mof_C 	C 	0.08117	0.26881	0.03425	-0.214
Mof_C 	C 	0.06653	0.23868	0.00626	0.145
Mof_C 	C 	0.10557	0.19158	0.00368	-0.252
Mof_C 	C 	0.08996	0.16305	0.97223	0.303
Mof_C 	C 	0.15279	0.05201	0.93001	0.228
Mof_C 	C 	0.1511	0.02123	0.89397	-0.129
Mof_C 	C 	0.23079	0.98931	0.86691	-0.272
Mof_C 	C 	0.4517	0.419	0.8782	0.171
Mof_C 	C 	0.5211	0.3819	0.8713	-0.253
Mof_C 	C 	0.5448	0.363	0.9074	0.163
Mof_C 	C 	0.4886	0.3792	0.9532	-0.193
Mof_C 	C 	0.4224	0.4188	0.9538	0.115
Mof_C 	C 	0.6227	0.3216	0.9008	-0.164
Mof_C 	C 	0.1333	0.81364	0.34656	0.345
Mof_C 	C 	0.13399	0.776	0.32222	-0.321
Mof_C 	C 	0.17972	0.73187	0.32749	0.188
Mof_C 	C 	0.2285	0.72216	0.35884	-0.248
Mof_C 	C 	0.22816	0.75865	0.38243	0.176
Mof_C 	C 	0.18253	0.80483	0.37831	-0.273
Mof_C 	C 	0.18597	0.841	0.40606	0.316
Mof_C 	C 	0.12783	0.96041	0.41513	0.279
Mof_C 	C 	0.134	0.00012	0.43848	-0.278
Mof_C 	C 	0.20041	0.91749	0.25269	0.117
Mof_C 	C 	0.26481	0.92412	0.21626	-0.194
Mof_C 	C 	0.33376	0.9319	0.22618	0.138
Mof_C 	C 	0.33196	0.92995	0.27213	-0.2
Mof_C 	C 	0.26577	0.92279	0.30647	0.124
Mof_C 	C 	0.405	0.93946	0.18674	-0.147
Mof_C 	C 	0.38603	0.90993	0.41881	0.303
Mof_C 	C 	0.44924	0.90649	0.37603	-0.278
Mof_C 	C 	0.5075	0.9298	0.3718	0.156
Mof_C 	C 	0.5044	0.9581	0.4059	-0.214
Mof_C 	C 	0.43739	0.96391	0.44711	0.137
Mof_C 	C 	0.37784	0.94084	0.45368	-0.25
Mof_C 	C 	0.31119	0.94929	0.49733	0.302
Mof_C 	C 	0.13837	0.91449	0.55457	0.232
Mof_C 	C 	0.06645	0.9234	0.5981	-0.151
Mof_C 	C 	0.0237	0.8849	0.6093	-0.258
Mof_C 	C 	0.80618	0.03066	0.32778	0.327
Mof_C 	C 	0.76632	0.05896	0.2964	-0.285
Mof_C 	C 	0.80297	0.06064	0.24922	0.155
Mof_C 	C 	0.88458	0.03425	0.23119	-0.215
Mof_C 	C 	0.92721	0.00626	0.26132	0.146
Mof_C 	C 	0.89075	0.00368	0.30842	-0.253
Mof_C 	C 	0.93781	0.97223	0.33695	0.303
Mof_C 	C 	0.9172	0.93001	0.44799	0.226
Mof_C 	C 	0.95493	0.89397	0.47877	-0.123
Mof_C 	C 	0.9023	0.86691	0.51069	-0.281
Mof_C 	C 	0.6701	0.8782	0.081	0.171
Mof_C 	C 	0.6076	0.8713	0.1181	-0.253
Mof_C 	C 	0.5478	0.9074	0.137	0.163
Mof_C 	C 	0.5582	0.9532	0.1208	-0.193
Mof_C 	C 	0.6238	0.9538	0.0812	0.115
Mof_C 	C 	0.4765	0.9008	0.1784	-0.164
Mof_C 	C 	0.7935	0.68636	0.15344	0.345
Mof_C 	C 	0.73221	0.724	0.17778	-0.321
Mof_C 	C 	0.73908	0.76813	0.17251	0.188
Mof_C 	C 	0.8095	0.77784	0.14116	-0.248
Mof_C 	C 	0.86924	0.74135	0.11757	0.176
Mof_C 	C 	0.86567	0.69517	0.12169	-0.273
Mof_C 	C 	0.93303	0.659	0.09394	0.316
Mof_C 	C 	0.00337	0.53959	0.08487	0.279
Mof_C 	C 	0.0726	0.49988	0.06152	-0.278
Mof_C 	C 	0.87059	0.58251	0.24731	0.117
Mof_C 	C 	0.90519	0.57588	0.28374	-0.194
Mof_C 	C 	0.99184	0.5681	0.27382	0.138
Mof_C 	C 	0.03404	0.57005	0.22787	-0.201
Mof_C 	C 	0.99503	0.57721	0.19353	0.124
Mof_C 	C 	0.0312	0.56054	0.31326	-0.147
Mof_C 	C 	0.21477	0.59007	0.08119	0.303
Mof_C 	C 	0.23176	0.59351	0.12397	-0.278
Mof_C 	C 	0.3091	0.5702	0.1282	0.155
Mof_C 	C 	0.3684	0.5419	0.0941	-0.214
Mof_C 	C 	0.34841	0.53609	0.05289	0.137
Mof_C 	C 	0.27236	0.55916	0.04632	-0.25
Mof_C 	C 	0.25781	0.55071	0.00267	0.302
Mof_C 	C 	0.10743	0.58551	0.94543	0.232
Mof_C 	C 	0.08795	0.5766	0.9019	-0.15
Mof_C 	C 	0.0179	0.6151	0.8907	-0.259
Mof_C 	C 	0.66462	0.46934	0.17222	0.326
Mof_C 	C 	0.62168	0.44104	0.2036	-0.285
Mof_C 	C 	0.61283	0.43936	0.25078	0.154
Mof_C 	C 	0.65002	0.46575	0.26881	-0.214
Mof_C 	C 	0.69479	0.49374	0.23868	0.144
Mof_C 	C 	0.70285	0.49632	0.19158	-0.253
Mof_C 	C 	0.74699	0.52777	0.16305	0.304
Mof_C 	C 	0.7952	0.56999	0.05201	0.227
Mof_C 	C 	0.82767	0.60603	0.02123	-0.125
Mof_C 	C 	0.7799	0.63309	0.98931	-0.278
Mof_C 	C 	0.1293	0.6218	0.419	0.171
Mof_C 	C 	0.097	0.6287	0.3819	-0.253
Mof_C 	C 	0.0922	0.5926	0.363	0.163
Mof_C 	C 	0.1322	0.5468	0.3792	-0.193
Mof_C 	C 	0.1588	0.5462	0.4188	0.115
Mof_C 	C 	0.0557	0.5992	0.3216	-0.164
Mof_C 	C 	0.47986	0.65344	0.31364	0.345
Mof_C 	C 	0.45621	0.67778	0.276	-0.321
Mof_C 	C 	0.50721	0.67251	0.23187	0.188
Mof_C 	C 	0.58734	0.64116	0.22216	-0.248
Mof_C 	C 	0.61059	0.61757	0.25865	0.176
Mof_C 	C 	0.56084	0.62169	0.30483	-0.273
Mof_C 	C 	0.59203	0.59394	0.341	0.316
Mof_C 	C 	0.54296	0.58487	0.46041	0.279
Mof_C 	C 	0.57248	0.56152	0.50012	-0.279
Mof_C 	C 	0.4531	0.74731	0.41749	0.117
Mof_C 	C 	0.48107	0.78374	0.42412	-0.194
Mof_C 	C 	0.55994	0.77382	0.4319	0.138
Mof_C 	C 	0.60409	0.72787	0.42995	-0.201
Mof_C 	C 	0.57224	0.69353	0.42279	0.124
Mof_C 	C 	0.59174	0.81326	0.43946	-0.147
Mof_C 	C 	0.80484	0.58119	0.40993	0.303
Mof_C 	C 	0.82527	0.62397	0.40649	-0.278
Mof_C 	C 	0.8793	0.6282	0.4298	0.156
Mof_C 	C 	0.9103	0.5941	0.4581	-0.214
Mof_C 	C 	0.8845	0.55289	0.46391	0.137
Mof_C 	C 	0.83152	0.54632	0.44084	-0.25
Mof_C 	C 	0.80852	0.50267	0.44929	0.302
Mof_C 	C 	0.69294	0.44543	0.41449	0.232
Mof_C 	C 	0.66455	0.4019	0.4234	-0.15
Mof_C 	C 	0.633	0.3907	0.3849	-0.259
Mof_C 	C 	0.13396	0.67222	0.53066	0.326
Mof_C 	C 	0.06272	0.7036	0.55896	-0.285
Mof_C 	C 	0.05219	0.75078	0.56064	0.154
Mof_C 	C 	0.11577	0.76881	0.53425	-0.214
Mof_C 	C 	0.18853	0.73868	0.50626	0.144
Mof_C 	C 	0.19917	0.69158	0.50368	-0.253
Mof_C 	C 	0.27476	0.66305	0.47223	0.304
Mof_C 	C 	0.36519	0.55201	0.43001	0.226
Mof_C 	C 	0.4337	0.52123	0.39397	-0.123
Mof_C 	C 	0.41299	0.48931	0.36691	-0.282
Mof_C 	C 	0.7511	0.919	0.3782	0.171
Mof_C 	C 	0.7257	0.8819	0.3713	-0.253
Mof_C 	C 	0.6848	0.863	0.4074	0.163
Mof_C 	C 	0.679	0.8792	0.4532	-0.193
Mof_C 	C 	0.705	0.9188	0.4538	0.115
Mof_C 	C 	0.6549	0.8216	0.4008	-0.164
Mof_C 	C 	0.94694	0.84656	0.18636	0.345
Mof_C 	C 	0.90999	0.82222	0.224	-0.32
Mof_C 	C 	0.91159	0.82749	0.26813	0.188
Mof_C 	C 	0.95066	0.85884	0.27784	-0.247
Mof_C 	C 	0.98681	0.88243	0.24135	0.175
Mof_C 	C 	0.98736	0.87831	0.19517	-0.273
Mof_C 	C 	0.02697	0.90606	0.159	0.316
Mof_C 	C 	0.08824	0.91513	0.03959	0.277
Mof_C 	C 	0.13412	0.93848	0.99988	-0.274
Mof_C 	C 	0.1179	0.75269	0.08251	0.117
Mof_C 	C 	0.18893	0.71626	0.07588	-0.194
Mof_C 	C 	0.26566	0.72618	0.0681	0.138
Mof_C 	C 	0.26191	0.77213	0.07005	-0.2
Mof_C 	C 	0.18856	0.80647	0.07721	0.124
Mof_C 	C 	0.34446	0.68674	0.06054	-0.147
Mof_C 	C 	0.29596	0.91881	0.09007	0.303
Mof_C 	C 	0.35573	0.87603	0.09351	-0.277
Mof_C 	C 	0.4373	0.8718	0.0702	0.155
Mof_C 	C 	0.4625	0.9059	0.0419	-0.213
Mof_C 	C 	0.4013	0.94711	0.03609	0.137
Mof_C 	C 	0.31868	0.95368	0.05916	-0.249
Mof_C 	C 	0.26048	0.99733	0.05071	0.299
Mof_C 	C 	0.05286	0.05457	0.08551	0.232
Mof_C 	C 	0.98985	0.0981	0.0766	-0.149
Mof_C 	C 	0.9086	0.1093	0.1151	-0.26
Mof_C 	C 	0.83684	0.82778	0.96934	0.326
Mof_C 	C 	0.82528	0.7964	0.94104	-0.285
Mof_C 	C 	0.86361	0.74922	0.93936	0.154
Mof_C 	C 	0.91883	0.73119	0.96575	-0.214
Mof_C 	C 	0.93347	0.76132	0.99374	0.145
Mof_C 	C 	0.89443	0.80842	0.99632	-0.252
Mof_C 	C 	0.91004	0.83695	0.02777	0.303
Mof_C 	C 	0.84721	0.94799	0.06999	0.228
Mof_C 	C 	0.8489	0.97877	0.10603	-0.129
Mof_C 	C 	0.76921	0.01069	0.13309	-0.272
Mof_C 	C 	0.5483	0.581	0.1218	0.171
Mof_C 	C 	0.4789	0.6181	0.1287	-0.253
Mof_C 	C 	0.4552	0.637	0.0926	0.163
Mof_C 	C 	0.5114	0.6208	0.0468	-0.193
Mof_C 	C 	0.5776	0.5812	0.0462	0.115
Mof_C 	C 	0.3773	0.6784	0.0992	-0.164
Mof_N 	N 	0.85129	0.11452	0.6005	-0.253
Mof_N 	N 	0.8409	0.08232	0.57248	-0.198
Mof_N 	N 	0.80017	0.08323	0.70243	-0.205
Mof_N 	N 	0.74742	0.0725	0.49526	-0.252
Mof_N 	N 	0.80945	0.06067	0.45183	-0.194
Mof_N 	N 	0.0955	0.03395	0.61865	-0.25
Mof_N 	N 	0.04657	0.0683	0.59556	-0.191
Mof_N 	N 	0.32101	0.08461	0.93957	-0.219
Mof_N 	N 	0.06631	0.38548	0.8995	-0.253
Mof_N 	N 	0.9957	0.41768	0.92752	-0.198
Mof_N 	N 	0.08583	0.41677	0.79757	-0.205
Mof_N 	N 	0.81518	0.4275	0.00474	-0.251
Mof_N 	N 	0.82195	0.43933	0.04817	-0.194
Mof_N 	N 	0.2481	0.46605	0.88135	-0.25
Mof_N 	N 	0.21043	0.4317	0.90444	-0.191
Mof_N 	N 	0.84519	0.41539	0.56043	-0.219
Mof_N 	N 	0.45179	0.3995	0.61452	-0.253
Mof_N 	N 	0.41338	0.42752	0.58232	-0.198
Mof_N 	N 	0.5026	0.29757	0.58323	-0.205
Mof_N 	N 	0.24268	0.50474	0.5725	-0.252
Mof_N 	N 	0.26128	0.54817	0.56067	-0.194
Mof_N 	N 	0.71415	0.38135	0.53395	-0.25
Mof_N 	N 	0.64213	0.40444	0.5683	-0.191
Mof_N 	N 	0.26058	0.06043	0.58461	-0.219
Mof_N 	N 	0.96581	0.1005	0.88548	-0.253
Mof_N 	N 	0.92322	0.07248	0.91768	-0.197
Mof_N 	N 	0.8834	0.20243	0.91677	-0.205
Mof_N 	N 	0.81992	0.99526	0.9275	-0.25
Mof_N 	N 	0.87012	0.95183	0.93933	-0.194
Mof_N 	N 	0.12945	0.11865	0.96605	-0.25
Mof_N 	N 	0.11487	0.09556	0.9317	-0.192
Mof_N 	N 	0.40562	0.43957	0.91539	-0.219
Mof_N 	N 	0.14871	0.88548	0.3995	-0.253
Mof_N 	N 	0.1591	0.91768	0.42752	-0.198
Mof_N 	N 	0.19983	0.91677	0.29757	-0.205
Mof_N 	N 	0.25258	0.9275	0.50474	-0.252
Mof_N 	N 	0.19055	0.93933	0.54817	-0.194
Mof_N 	N 	0.9045	0.96605	0.38135	-0.25
Mof_N 	N 	0.95343	0.9317	0.40444	-0.191
Mof_N 	N 	0.67899	0.91539	0.06043	-0.219
Mof_N 	N 	0.93369	0.61452	0.1005	-0.253
Mof_N 	N 	0.0043	0.58232	0.07248	-0.198
Mof_N 	N 	0.91417	0.58323	0.20243	-0.205
Mof_N 	N 	0.18482	0.5725	0.99526	-0.251
Mof_N 	N 	0.17805	0.56067	0.95183	-0.194
Mof_N 	N 	0.7519	0.53395	0.11865	-0.25
Mof_N 	N 	0.78957	0.5683	0.09556	-0.191
Mof_N 	N 	0.15481	0.58461	0.43957	-0.219
Mof_N 	N 	0.54821	0.6005	0.38548	-0.253
Mof_N 	N 	0.58662	0.57248	0.41768	-0.198
Mof_N 	N 	0.4974	0.70243	0.41677	-0.205
Mof_N 	N 	0.75732	0.49526	0.4275	-0.251
Mof_N 	N 	0.73872	0.45183	0.43933	-0.194
Mof_N 	N 	0.28585	0.61865	0.46605	-0.25
Mof_N 	N 	0.35787	0.59556	0.4317	-0.191
Mof_N 	N 	0.73942	0.93957	0.41539	-0.219
Mof_N 	N 	0.03419	0.8995	0.11452	-0.253
Mof_N 	N 	0.07678	0.92752	0.08232	-0.197
Mof_N 	N 	0.1166	0.79757	0.08323	-0.205
Mof_N 	N 	0.18008	0.00474	0.0725	-0.25
Mof_N 	N 	0.12988	0.04817	0.06067	-0.194
Mof_N 	N 	0.87055	0.88135	0.03395	-0.25
Mof_N 	N 	0.88513	0.90444	0.0683	-0.192
Mof_N 	N 	0.59438	0.56043	0.08461	-0.219
Mof_O 	O 	0.91305	0.14417	0.66133	-0.44
Mof_O 	O 	0.77373	0.17039	0.56275	-0.387
Mof_O 	O 	0.90985	0.03037	0.61793	-0.398
Mof_O 	O 	0.66357	0.11823	0.57703	-0.423
Mof_O 	O 	0.69085	0.02199	0.47237	-0.378
Mof_O 	O 	0.85304	0.11704	0.47512	-0.391
Mof_O 	O 	0.23486	0.96975	0.62793	-0.438
Mof_O 	O 	0.9855	0.04996	0.68292	-0.38
Mof_O 	O 	0.15718	0.04237	0.53247	-0.382
Mof_O 	O 	0.21855	0.35583	0.83867	-0.44
Mof_O 	O 	0.00687	0.32961	0.93725	-0.388
Mof_O 	O 	0.05815	0.46963	0.88207	-0.398
Mof_O 	O 	0.85883	0.38177	0.92297	-0.422
Mof_O 	O 	0.68521	0.47801	0.02763	-0.379
Mof_O 	O 	0.9452	0.38296	0.02488	-0.39
Mof_O 	O 	0.33254	0.53025	0.87207	-0.438
Mof_O 	O 	0.21838	0.45004	0.81708	-0.38
Mof_O 	O 	0.23202	0.45763	0.96753	-0.382
Mof_O 	O 	0.57438	0.33867	0.64417	-0.439
Mof_O 	O 	0.33648	0.43725	0.67039	-0.387
Mof_O 	O 	0.52778	0.38207	0.53037	-0.398
Mof_O 	O 	0.2406	0.42297	0.61823	-0.423
Mof_O 	O 	0.16322	0.52763	0.52199	-0.379
Mof_O 	O 	0.32816	0.52488	0.61704	-0.391
Mof_O 	O 	0.86279	0.37207	0.46975	-0.438
Mof_O 	O 	0.66842	0.31708	0.54996	-0.38
Mof_O 	O 	0.68965	0.46753	0.54237	-0.382
Mof_O 	O 	0.05722	0.16133	0.85583	-0.439
Mof_O 	O 	0.94412	0.06275	0.82961	-0.387
Mof_O 	O 	0.94022	0.11793	0.96963	-0.398
Mof_O 	O 	0.7818	0.07703	0.88177	-0.422
Mof_O 	O 	0.71284	0.97237	0.97801	-0.376
Mof_O 	O 	0.97008	0.97512	0.88296	-0.39
Mof_O 	O 	0.20461	0.12793	0.03025	-0.437
Mof_O 	O 	0.03546	0.18292	0.95004	-0.38
Mof_O 	O 	0.19955	0.03247	0.95763	-0.382
Mof_O 	O 	0.08695	0.85583	0.33867	-0.44
Mof_O 	O 	0.22627	0.82961	0.43725	-0.387
Mof_O 	O 	0.09015	0.96963	0.38207	-0.398
Mof_O 	O 	0.33643	0.88177	0.42297	-0.423
Mof_O 	O 	0.30915	0.97801	0.52763	-0.378
Mof_O 	O 	0.14696	0.88296	0.52488	-0.391
Mof_O 	O 	0.76514	0.03025	0.37207	-0.438
Mof_O 	O 	0.0145	0.95004	0.31708	-0.38
Mof_O 	O 	0.84282	0.95763	0.46753	-0.382
Mof_O 	O 	0.78145	0.64417	0.16133	-0.44
Mof_O 	O 	0.99313	0.67039	0.06275	-0.388
Mof_O 	O 	0.94185	0.53037	0.11793	-0.398
Mof_O 	O 	0.14117	0.61823	0.07703	-0.422
Mof_O 	O 	0.31479	0.52199	0.97237	-0.379
Mof_O 	O 	0.0548	0.61704	0.97512	-0.39
Mof_O 	O 	0.66746	0.46975	0.12793	-0.438
Mof_O 	O 	0.78162	0.54996	0.18292	-0.38
Mof_O 	O 	0.76798	0.54237	0.03247	-0.382
Mof_O 	O 	0.42562	0.66133	0.35583	-0.439
Mof_O 	O 	0.66352	0.56275	0.32961	-0.388
Mof_O 	O 	0.47222	0.61793	0.46963	-0.398
Mof_O 	O 	0.7594	0.57703	0.38177	-0.423
Mof_O 	O 	0.83678	0.47237	0.47801	-0.379
Mof_O 	O 	0.67184	0.47512	0.38296	-0.39
Mof_O 	O 	0.13721	0.62793	0.53025	-0.438
Mof_O 	O 	0.33158	0.68292	0.45004	-0.38
Mof_O 	O 	0.31035	0.53247	0.45763	-0.382
Mof_O 	O 	0.94278	0.83867	0.14417	-0.439
Mof_O 	O 	0.05588	0.93725	0.17039	-0.387
Mof_O 	O 	0.05978	0.88207	0.03037	-0.397
Mof_O 	O 	0.2182	0.92297	0.11823	-0.422
Mof_O 	O 	0.28716	0.02763	0.02199	-0.376
Mof_O 	O 	0.02992	0.02488	0.11704	-0.39
Mof_O 	O 	0.79539	0.87207	0.96975	-0.437
Mof_O 	O 	0.96454	0.81708	0.04996	-0.38
Mof_O 	O 	0.80045	0.96753	0.04237	-0.382
_end
