data_functionalizedCrystal
_audit_creation_method	'EQeq! by Chris Wilmer'
_symmetry_space_group_name_H-M	'P1'
_symmetry_Int_Tables_number	1
_symmetry_cell_setting	triclinic
loop_
_symmetry_equiv_pos_as_xyz
  x,y,z
_cell_length_a	28.3006
_cell_length_b	20.085
_cell_length_c	15.4335
_cell_angle_alpha	90
_cell_angle_beta	92.498
_cell_angle_gamma	90
loop_
_atom_site_label
_atom_site_type_symbol
_atom_site_fract_x
_atom_site_fract_y
_atom_site_fract_z
_atom_site_charge
Mof_Zn	Zn	0.06489	0.00518	0.01129	1.205
Mof_C 	C 	0.03607	0.1201	0.8995	0.171
Mof_C 	C 	0.96257	0.1096	0.8791	0.199
Mof_C 	C 	0.37618	0.1882	0.2845	-0.149
Mof_C 	C 	0.36108	0.1416	0.3427	0.087
Mof_H 	H 	0.3829	0.1244	0.3836	0.022
Mof_C 	C 	0.31533	0.1196	0.3429	-0.158
Mof_H 	H 	0.3063	0.0889	0.3842	0.095
Mof_C 	C 	0.28213	0.1435	0.2803	0.11
Mof_C 	C 	0.29709	0.1892	0.2232	-0.161
Mof_H 	H 	0.2756	0.2055	0.1811	0.093
Mof_C 	C 	0.34359	0.213	0.2251	0.088
Mof_H 	H 	0.3523	0.2455	0.186	0.012
Mof_C 	C 	0.42629	0.2124	0.2887	0.379
Mof_C 	C 	0.23197	0.1194	0.2773	-0.048
Mof_C 	C 	0.20961	0.1049	0.3531	0.016
Mof_H 	H 	0.2251	0.1133	0.4063	0.042
Mof_C 	C 	0.16436	0.0778	0.3508	-0.114
Mof_C 	C 	0.14033	0.0697	0.2694	0.049
Mof_H 	H 	0.1098	0.0524	0.2667	0.035
Mof_C 	C 	0.16134	0.0867	0.1953	-0.104
Mof_C 	C 	0.20712	0.1142	0.1995	0.012
Mof_H 	H 	0.2206	0.129	0.149	0.042
Mof_C 	C 	0.13984	0.0598	0.4314	0.392
Mof_C 	C 	0.13449	0.0767	0.1089	0.372
Mof_O 	O 	0.43677	0.2567	0.2351	-0.487
Mof_O 	O 	0.45543	0.1887	0.3404	-0.317
Mof_O 	O 	0.15649	0.0757	0.502	-0.315
Mof_O 	O 	0.10193	0.0286	0.4199	-0.498
Mof_O 	O 	0.14792	0.1035	0.0427	-0.312
Mof_O 	O 	0.09906	0.0395	0.1122	-0.491
Mof_N 	N 	0.02345	0.0704	0.9529	-0.288
Mof_N 	N 	0.97471	0.0645	0.9379	-0.263
Mof_N 	N 	0.99883	0.1473	0.8525	-0.286
Mof_N 	N 	0.08068	0.1416	0.8941	-0.347
Mof_H 	H 	0.103	0.1237	0.9256	0.164
Mof_H 	H 	0.087	0.1734	0.8591	0.165
Mof_N 	N 	0.91681	0.1199	0.8477	-0.341
Mof_H 	H 	0.8942	0.0962	0.8665	0.161
Mof_H 	H 	0.9109	0.1502	0.8092	0.15
Mof_Zn	Zn	0.56489	0.50518	0.01129	1.208
Mof_C 	C 	0.53607	0.6201	0.8995	0.197
Mof_C 	C 	0.46257	0.6096	0.8791	0.192
Mof_C 	C 	0.87618	0.6882	0.2845	-0.143
Mof_C 	C 	0.86108	0.6416	0.3427	0.084
Mof_H 	H 	0.8829	0.6244	0.3836	0.026
Mof_C 	C 	0.81533	0.6196	0.3429	-0.154
Mof_H 	H 	0.8063	0.5889	0.3842	0.094
Mof_C 	C 	0.78213	0.6435	0.2803	0.108
Mof_C 	C 	0.79709	0.6892	0.2232	-0.157
Mof_H 	H 	0.7756	0.7055	0.1811	0.093
Mof_C 	C 	0.84359	0.713	0.2251	0.085
Mof_H 	H 	0.8523	0.7455	0.186	0.014
Mof_C 	C 	0.92629	0.7124	0.2887	0.375
Mof_C 	C 	0.73197	0.6194	0.2773	-0.045
Mof_C 	C 	0.70961	0.6049	0.3531	0.014
Mof_H 	H 	0.7251	0.6133	0.4063	0.044
Mof_C 	C 	0.66436	0.5778	0.3508	-0.11
Mof_C 	C 	0.64033	0.5697	0.2694	0.047
Mof_H 	H 	0.6098	0.5524	0.2667	0.038
Mof_C 	C 	0.66134	0.5867	0.1953	-0.101
Mof_C 	C 	0.70712	0.6142	0.1995	0.01
Mof_H 	H 	0.7206	0.629	0.149	0.044
Mof_C 	C 	0.63984	0.5598	0.4314	0.391
Mof_C 	C 	0.63449	0.5767	0.1089	0.371
Mof_O 	O 	0.93677	0.7567	0.2351	-0.476
Mof_O 	O 	0.95543	0.6887	0.3404	-0.304
Mof_O 	O 	0.65649	0.5757	0.502	-0.314
Mof_O 	O 	0.60193	0.5286	0.4199	-0.494
Mof_O 	O 	0.64792	0.6035	0.0427	-0.31
Mof_O 	O 	0.59906	0.5395	0.1122	-0.486
Mof_N 	N 	0.52345	0.5704	0.9529	-0.279
Mof_N 	N 	0.47471	0.5645	0.9379	-0.276
Mof_N 	N 	0.49883	0.6473	0.8525	-0.309
Mof_N 	N 	0.58068	0.6416	0.8941	-0.352
Mof_H 	H 	0.603	0.6237	0.9256	0.165
Mof_H 	H 	0.587	0.6734	0.8591	0.169
Mof_N 	N 	0.41681	0.6199	0.8477	-0.34
Mof_H 	H 	0.3942	0.5962	0.8665	0.159
Mof_H 	H 	0.4109	0.6502	0.8092	0.149
Mof_Zn	Zn	0.93511	0.00518	0.48871	1.21
Mof_C 	C 	0.96393	0.1201	0.6005	0.225
Mof_C 	C 	0.03743	0.1096	0.6209	0.187
Mof_C 	C 	0.62382	0.1882	0.2155	-0.149
Mof_C 	C 	0.63892	0.1416	0.1573	0.087
Mof_H 	H 	0.6171	0.1244	0.1164	0.022
Mof_C 	C 	0.68467	0.1196	0.1571	-0.157
Mof_H 	H 	0.6937	0.0889	0.1158	0.094
Mof_C 	C 	0.71787	0.1435	0.2197	0.109
Mof_C 	C 	0.70291	0.1892	0.2768	-0.16
Mof_H 	H 	0.7244	0.2055	0.3189	0.094
Mof_C 	C 	0.65641	0.213	0.2749	0.088
Mof_H 	H 	0.6477	0.2455	0.314	0.012
Mof_C 	C 	0.57371	0.2124	0.2113	0.379
Mof_C 	C 	0.76803	0.1194	0.2227	-0.045
Mof_C 	C 	0.79039	0.1049	0.1469	0.014
Mof_H 	H 	0.7749	0.1133	0.0937	0.043
Mof_C 	C 	0.83564	0.0778	0.1492	-0.109
Mof_C 	C 	0.85967	0.0697	0.2306	0.046
Mof_H 	H 	0.8902	0.0524	0.2333	0.041
Mof_C 	C 	0.83866	0.0867	0.3047	-0.099
Mof_C 	C 	0.79288	0.1142	0.3005	0.01
Mof_H 	H 	0.7794	0.129	0.351	0.043
Mof_C 	C 	0.86016	0.0598	0.0686	0.389
Mof_C 	C 	0.86551	0.0767	0.3911	0.371
Mof_O 	O 	0.56323	0.2567	0.2649	-0.487
Mof_O 	O 	0.54457	0.1887	0.1596	-0.317
Mof_O 	O 	0.84351	0.0757	0.998	-0.312
Mof_O 	O 	0.89807	0.0286	0.0801	-0.491
Mof_O 	O 	0.85208	0.1035	0.4573	-0.309
Mof_O 	O 	0.90094	0.0395	0.3878	-0.483
Mof_N 	N 	0.97655	0.0704	0.5471	-0.269
Mof_N 	N 	0.02529	0.0645	0.5621	-0.289
Mof_N 	N 	0.00117	0.1473	0.6475	-0.328
Mof_N 	N 	0.91932	0.1416	0.6059	-0.358
Mof_H 	H 	0.897	0.1237	0.5744	0.167
Mof_H 	H 	0.913	0.1734	0.6409	0.173
Mof_N 	N 	0.08319	0.1199	0.6523	-0.34
Mof_H 	H 	0.1058	0.0962	0.6335	0.159
Mof_H 	H 	0.0891	0.1502	0.6908	0.148
Mof_Zn	Zn	0.43511	0.50518	0.48871	1.208
Mof_C 	C 	0.46393	0.6201	0.6005	0.197
Mof_C 	C 	0.53743	0.6096	0.6209	0.192
Mof_C 	C 	0.12382	0.6882	0.2155	-0.154
Mof_C 	C 	0.13892	0.6416	0.1573	0.09
Mof_H 	H 	0.1171	0.6244	0.1164	0.018
Mof_C 	C 	0.18467	0.6196	0.1571	-0.161
Mof_H 	H 	0.1937	0.5889	0.1158	0.094
Mof_C 	C 	0.21787	0.6435	0.2197	0.111
Mof_C 	C 	0.20291	0.6892	0.2768	-0.163
Mof_H 	H 	0.2244	0.7055	0.3189	0.094
Mof_C 	C 	0.15641	0.713	0.2749	0.09
Mof_H 	H 	0.1477	0.7455	0.314	0.01
Mof_C 	C 	0.07371	0.7124	0.2113	0.381
Mof_C 	C 	0.26803	0.6194	0.2227	-0.049
Mof_C 	C 	0.29039	0.6049	0.1469	0.016
Mof_H 	H 	0.2749	0.6133	0.0937	0.042
Mof_C 	C 	0.33564	0.5778	0.1492	-0.112
Mof_C 	C 	0.35967	0.5697	0.2306	0.049
Mof_H 	H 	0.3902	0.5524	0.2333	0.038
Mof_C 	C 	0.33866	0.5867	0.3047	-0.103
Mof_C 	C 	0.29288	0.6142	0.3005	0.012
Mof_H 	H 	0.2794	0.629	0.351	0.042
Mof_C 	C 	0.36016	0.5598	0.0686	0.392
Mof_C 	C 	0.36551	0.5767	0.3911	0.372
Mof_O 	O 	0.06323	0.7567	0.2649	-0.493
Mof_O 	O 	0.04457	0.6887	0.1596	-0.328
Mof_O 	O 	0.34351	0.5757	0.998	-0.316
Mof_O 	O 	0.39807	0.5286	0.0801	-0.495
Mof_O 	O 	0.35208	0.6035	0.4573	-0.311
Mof_O 	O 	0.40094	0.5395	0.3878	-0.487
Mof_N 	N 	0.47655	0.5704	0.5471	-0.279
Mof_N 	N 	0.52529	0.5645	0.5621	-0.276
Mof_N 	N 	0.50117	0.6473	0.6475	-0.309
Mof_N 	N 	0.41932	0.6416	0.6059	-0.352
Mof_H 	H 	0.397	0.6237	0.5744	0.165
Mof_H 	H 	0.413	0.6734	0.6409	0.169
Mof_N 	N 	0.58319	0.6199	0.6523	-0.341
Mof_H 	H 	0.6058	0.5962	0.6335	0.16
Mof_H 	H 	0.5891	0.6502	0.6908	0.149
Mof_Zn	Zn	0.93511	0.99482	0.98871	1.209
Mof_C 	C 	0.96393	0.8799	0.1005	0.226
Mof_C 	C 	0.03743	0.8904	0.1209	0.187
Mof_C 	C 	0.62382	0.8118	0.7155	-0.149
Mof_C 	C 	0.63892	0.8584	0.6573	0.087
Mof_H 	H 	0.6171	0.8756	0.6164	0.022
Mof_C 	C 	0.68467	0.8804	0.6571	-0.157
Mof_H 	H 	0.6937	0.9111	0.6158	0.094
Mof_C 	C 	0.71787	0.8565	0.7197	0.109
Mof_C 	C 	0.70291	0.8108	0.7768	-0.16
Mof_H 	H 	0.7244	0.7945	0.8189	0.094
Mof_C 	C 	0.65641	0.787	0.7749	0.088
Mof_H 	H 	0.6477	0.7545	0.814	0.012
Mof_C 	C 	0.57371	0.7876	0.7113	0.379
Mof_C 	C 	0.76803	0.8806	0.7227	-0.046
Mof_C 	C 	0.79039	0.8951	0.6469	0.014
Mof_H 	H 	0.7749	0.8867	0.5937	0.043
Mof_C 	C 	0.83564	0.9222	0.6492	-0.109
Mof_C 	C 	0.85967	0.9303	0.7306	0.047
Mof_H 	H 	0.8902	0.9476	0.7333	0.041
Mof_C 	C 	0.83866	0.9133	0.8047	-0.1
Mof_C 	C 	0.79288	0.8858	0.8005	0.01
Mof_H 	H 	0.7794	0.871	0.851	0.043
Mof_C 	C 	0.86016	0.9402	0.5686	0.391
Mof_C 	C 	0.86551	0.9233	0.8911	0.371
Mof_O 	O 	0.56323	0.7433	0.7649	-0.487
Mof_O 	O 	0.54457	0.8113	0.6596	-0.317
Mof_O 	O 	0.84351	0.9243	0.498	-0.313
Mof_O 	O 	0.89807	0.9714	0.5801	-0.491
Mof_O 	O 	0.85208	0.8965	0.9573	-0.311
Mof_O 	O 	0.90094	0.9605	0.8878	-0.484
Mof_N 	N 	0.97655	0.9296	0.0471	-0.268
Mof_N 	N 	0.02529	0.9355	0.0621	-0.288
Mof_N 	N 	0.00117	0.8527	0.1475	-0.329
Mof_N 	N 	0.91932	0.8584	0.1059	-0.358
Mof_H 	H 	0.897	0.8763	0.0744	0.168
Mof_H 	H 	0.913	0.8266	0.1409	0.174
Mof_N 	N 	0.08319	0.8801	0.1523	-0.34
Mof_H 	H 	0.1058	0.9038	0.1335	0.159
Mof_H 	H 	0.0891	0.8498	0.1908	0.148
Mof_Zn	Zn	0.43511	0.49482	0.98871	1.208
Mof_C 	C 	0.46393	0.3799	0.1005	0.197
Mof_C 	C 	0.53743	0.3904	0.1209	0.192
Mof_C 	C 	0.12382	0.3118	0.7155	-0.154
Mof_C 	C 	0.13892	0.3584	0.6573	0.09
Mof_H 	H 	0.1171	0.3756	0.6164	0.017
Mof_C 	C 	0.18467	0.3804	0.6571	-0.161
Mof_H 	H 	0.1937	0.4111	0.6158	0.094
Mof_C 	C 	0.21787	0.3565	0.7197	0.111
Mof_C 	C 	0.20291	0.3108	0.7768	-0.163
Mof_H 	H 	0.2244	0.2945	0.8189	0.094
Mof_C 	C 	0.15641	0.287	0.7749	0.09
Mof_H 	H 	0.1477	0.2545	0.814	0.011
Mof_C 	C 	0.07371	0.2876	0.7113	0.381
Mof_C 	C 	0.26803	0.3806	0.7227	-0.048
Mof_C 	C 	0.29039	0.3951	0.6469	0.016
Mof_H 	H 	0.2749	0.3867	0.5937	0.042
Mof_C 	C 	0.33564	0.4222	0.6492	-0.112
Mof_C 	C 	0.35967	0.4303	0.7306	0.048
Mof_H 	H 	0.3902	0.4476	0.7333	0.038
Mof_C 	C 	0.33866	0.4133	0.8047	-0.102
Mof_C 	C 	0.29288	0.3858	0.8005	0.012
Mof_H 	H 	0.2794	0.371	0.851	0.042
Mof_C 	C 	0.36016	0.4402	0.5686	0.391
Mof_C 	C 	0.36551	0.4233	0.8911	0.372
Mof_O 	O 	0.06323	0.2433	0.7649	-0.493
Mof_O 	O 	0.04457	0.3113	0.6596	-0.328
Mof_O 	O 	0.34351	0.4243	0.498	-0.315
Mof_O 	O 	0.39807	0.4714	0.5801	-0.495
Mof_O 	O 	0.35208	0.3965	0.9573	-0.311
Mof_O 	O 	0.40094	0.4605	0.8878	-0.487
Mof_N 	N 	0.47655	0.4296	0.0471	-0.279
Mof_N 	N 	0.52529	0.4355	0.0621	-0.276
Mof_N 	N 	0.50117	0.3527	0.1475	-0.309
Mof_N 	N 	0.41932	0.3584	0.1059	-0.352
Mof_H 	H 	0.397	0.3763	0.0744	0.165
Mof_H 	H 	0.413	0.3266	0.1409	0.169
Mof_N 	N 	0.58319	0.3801	0.1523	-0.341
Mof_H 	H 	0.6058	0.4038	0.1335	0.16
Mof_H 	H 	0.5891	0.3498	0.1908	0.149
Mof_Zn	Zn	0.06489	0.99482	0.51129	1.206
Mof_C 	C 	0.03607	0.8799	0.3995	0.17
Mof_C 	C 	0.96257	0.8904	0.3791	0.199
Mof_C 	C 	0.37618	0.8118	0.7845	-0.149
Mof_C 	C 	0.36108	0.8584	0.8427	0.087
Mof_H 	H 	0.3829	0.8756	0.8836	0.022
Mof_C 	C 	0.31533	0.8804	0.8429	-0.158
Mof_H 	H 	0.3063	0.9111	0.8842	0.094
Mof_C 	C 	0.28213	0.8565	0.7803	0.11
Mof_C 	C 	0.29709	0.8108	0.7232	-0.161
Mof_H 	H 	0.2756	0.7945	0.6811	0.093
Mof_C 	C 	0.34359	0.787	0.7251	0.088
Mof_H 	H 	0.3523	0.7545	0.686	0.012
Mof_C 	C 	0.42629	0.7876	0.7887	0.379
Mof_C 	C 	0.23197	0.8806	0.7773	-0.048
Mof_C 	C 	0.20961	0.8951	0.8531	0.015
Mof_H 	H 	0.2251	0.8867	0.9063	0.042
Mof_C 	C 	0.16436	0.9222	0.8508	-0.113
Mof_C 	C 	0.14033	0.9303	0.7694	0.048
Mof_H 	H 	0.1098	0.9476	0.7667	0.035
Mof_C 	C 	0.16134	0.9133	0.6953	-0.104
Mof_C 	C 	0.20712	0.8858	0.6995	0.011
Mof_H 	H 	0.2206	0.871	0.649	0.042
Mof_C 	C 	0.13984	0.9402	0.9314	0.388
Mof_C 	C 	0.13449	0.9233	0.6089	0.372
Mof_O 	O 	0.43677	0.7433	0.7351	-0.487
Mof_O 	O 	0.45543	0.8113	0.8404	-0.317
Mof_O 	O 	0.15649	0.9243	0.002	-0.312
Mof_O 	O 	0.10193	0.9714	0.9199	-0.497
Mof_O 	O 	0.14792	0.8965	0.5427	-0.312
Mof_O 	O 	0.09906	0.9605	0.6122	-0.49
Mof_N 	N 	0.02345	0.9296	0.4529	-0.289
Mof_N 	N 	0.97471	0.9355	0.4379	-0.263
Mof_N 	N 	0.99883	0.8527	0.3525	-0.286
Mof_N 	N 	0.08068	0.8584	0.3941	-0.347
Mof_H 	H 	0.103	0.8763	0.4256	0.163
Mof_H 	H 	0.087	0.8266	0.3591	0.165
Mof_N 	N 	0.91681	0.8801	0.3477	-0.341
Mof_H 	H 	0.8942	0.9038	0.3665	0.161
Mof_H 	H 	0.9109	0.8498	0.3092	0.151
Mof_Zn	Zn	0.56489	0.49482	0.51129	1.208
Mof_C 	C 	0.53607	0.3799	0.3995	0.197
Mof_C 	C 	0.46257	0.3904	0.3791	0.192
Mof_C 	C 	0.87618	0.3118	0.7845	-0.144
Mof_C 	C 	0.86108	0.3584	0.8427	0.084
Mof_H 	H 	0.8829	0.3756	0.8836	0.026
Mof_C 	C 	0.81533	0.3804	0.8429	-0.154
Mof_H 	H 	0.8063	0.4111	0.8842	0.094
Mof_C 	C 	0.78213	0.3565	0.7803	0.108
Mof_C 	C 	0.79709	0.3108	0.7232	-0.157
Mof_H 	H 	0.7756	0.2945	0.6811	0.093
Mof_C 	C 	0.84359	0.287	0.7251	0.085
Mof_H 	H 	0.8523	0.2545	0.686	0.014
Mof_C 	C 	0.92629	0.2876	0.7887	0.375
Mof_C 	C 	0.73197	0.3806	0.7773	-0.045
Mof_C 	C 	0.70961	0.3951	0.8531	0.014
Mof_H 	H 	0.7251	0.3867	0.9063	0.044
Mof_C 	C 	0.66436	0.4222	0.8508	-0.11
Mof_C 	C 	0.64033	0.4303	0.7694	0.047
Mof_H 	H 	0.6098	0.4476	0.7667	0.038
Mof_C 	C 	0.66134	0.4133	0.6953	-0.101
Mof_C 	C 	0.70712	0.3858	0.6995	0.01
Mof_H 	H 	0.7206	0.371	0.649	0.044
Mof_C 	C 	0.63984	0.4402	0.9314	0.391
Mof_C 	C 	0.63449	0.4233	0.6089	0.371
Mof_O 	O 	0.93677	0.2433	0.7351	-0.476
Mof_O 	O 	0.95543	0.3113	0.8404	-0.304
Mof_O 	O 	0.65649	0.4243	0.002	-0.314
Mof_O 	O 	0.60193	0.4714	0.9199	-0.494
Mof_O 	O 	0.64792	0.3965	0.5427	-0.31
Mof_O 	O 	0.59906	0.4605	0.6122	-0.487
Mof_N 	N 	0.52345	0.4296	0.4529	-0.279
Mof_N 	N 	0.47471	0.4355	0.4379	-0.276
Mof_N 	N 	0.49883	0.3527	0.3525	-0.309
Mof_N 	N 	0.58068	0.3584	0.3941	-0.352
Mof_H 	H 	0.603	0.3763	0.4256	0.165
Mof_H 	H 	0.587	0.3266	0.3591	0.169
Mof_N 	N 	0.41681	0.3801	0.3477	-0.34
Mof_H 	H 	0.3942	0.4038	0.3665	0.159
Mof_H 	H 	0.4109	0.3498	0.3092	0.149
Mof_Zn	Zn	0.5	0.29271	0.25	1.216
Mof_Zn	Zn	8.10721e-19	0.79271	0.25	1.206
Mof_Zn	Zn	0.5	0.70729	0.75	1.216
Mof_Zn	Zn	1.60037e-33	0.20729	0.75	1.206
_end
