data_functionalizedCrystal
_audit_creation_method	'EQeq! by Chris Wilmer'
_symmetry_space_group_name_H-M	'P1'
_symmetry_Int_Tables_number	1
_symmetry_cell_setting	triclinic
loop_
_symmetry_equiv_pos_as_xyz
  x,y,z
_cell_length_a	41.9716
_cell_length_b	41.9716
_cell_length_c	41.9716
_cell_angle_alpha	90
_cell_angle_beta	90
_cell_angle_gamma	90
loop_
_atom_site_label
_atom_site_type_symbol
_atom_site_fract_x
_atom_site_fract_y
_atom_site_fract_z
_atom_site_charge
Mof_C 	C 	0.6301	0.8753	0.0798	-0.23
Mof_N 	N 	0.6331	0.8758	0.0532	-0.138
Mof_C 	C 	0.6878	0.9126	0.024	0.022
Mof_C 	C 	0.709	0.9374	0.0296	-0.043
Mof_C 	C 	0.7076	0.9648	0.0111	-0.052
Mof_C 	C 	0.7174	0.935	0.013	0.013
Mof_C 	C 	0.6638	0.9426	0.9815	0.007
Mof_C 	C 	0.6446	0.8301	0.9938	-0.122
Mof_C 	C 	0.6648	0.8221	0.9687	0.059
Mof_C 	C 	0.676	0.7911	0.9658	0.168
Mof_C 	C 	0.6671	0.7681	0.9879	-0.419
Mof_C 	C 	0.6469	0.7762	0.0129	-0.143
Mof_C 	C 	0.6357	0.8072	0.0158	-0.203
Mof_C 	C 	0.6387	0.8304	0.9975	-0.001
Mof_C 	C 	0.6595	0.8187	0.9745	-0.091
Mof_C 	C 	0.665	0.7861	0.9723	-0.052
Mof_C 	C 	0.6497	0.7653	0.9931	0.498
Mof_C 	C 	0.629	0.7771	0.0161	-0.052
Mof_C 	C 	0.6235	0.8097	0.0183	0.209
Mof_C 	C 	0.6301	0.3753	0.5798	-0.23
Mof_N 	N 	0.6331	0.3758	0.5532	-0.138
Mof_C 	C 	0.6878	0.4126	0.524	0.021
Mof_C 	C 	0.709	0.4374	0.5296	-0.083
Mof_C 	C 	0.7076	0.4648	0.5111	-0.016
Mof_C 	C 	0.7174	0.435	0.513	0.047
Mof_C 	C 	0.6638	0.4426	0.4815	-0.003
Mof_C 	C 	0.6446	0.3301	0.4938	-0.125
Mof_C 	C 	0.6648	0.3221	0.4687	0.06
Mof_C 	C 	0.676	0.2911	0.4658	0.183
Mof_C 	C 	0.6671	0.2681	0.4879	-0.456
Mof_C 	C 	0.6469	0.2762	0.5129	-0.163
Mof_C 	C 	0.6357	0.3072	0.5158	-0.213
Mof_C 	C 	0.6387	0.3304	0.4975	0.002
Mof_C 	C 	0.6595	0.3187	0.4745	-0.095
Mof_C 	C 	0.665	0.2861	0.4723	-0.057
Mof_C 	C 	0.6497	0.2653	0.4931	0.543
Mof_C 	C 	0.629	0.2771	0.5161	-0.046
Mof_C 	C 	0.6235	0.3097	0.5183	0.223
Mof_C 	C 	0.1301	0.8753	0.5798	-0.23
Mof_N 	N 	0.1331	0.8758	0.5532	-0.138
Mof_C 	C 	0.1878	0.9126	0.524	0.021
Mof_C 	C 	0.209	0.9374	0.5296	-0.08
Mof_C 	C 	0.2076	0.9648	0.5111	-0.019
Mof_C 	C 	0.2174	0.935	0.513	0.045
Mof_C 	C 	0.1638	0.9426	0.4815	-0.001
Mof_C 	C 	0.1446	0.8301	0.4938	-0.126
Mof_C 	C 	0.1648	0.8221	0.4687	0.06
Mof_C 	C 	0.176	0.7911	0.4658	0.185
Mof_C 	C 	0.1671	0.7681	0.4879	-0.462
Mof_C 	C 	0.1469	0.7762	0.5129	-0.164
Mof_C 	C 	0.1357	0.8072	0.5158	-0.215
Mof_C 	C 	0.1387	0.8304	0.4975	0.002
Mof_C 	C 	0.1595	0.8187	0.4745	-0.096
Mof_C 	C 	0.165	0.7861	0.4723	-0.057
Mof_C 	C 	0.1497	0.7653	0.4931	0.549
Mof_C 	C 	0.129	0.7771	0.5161	-0.048
Mof_C 	C 	0.1235	0.8097	0.5183	0.225
Mof_C 	C 	0.1301	0.3753	0.0798	-0.231
Mof_N 	N 	0.1331	0.3758	0.0532	-0.138
Mof_C 	C 	0.1878	0.4126	0.024	0.022
Mof_C 	C 	0.209	0.4374	0.0296	-0.046
Mof_C 	C 	0.2076	0.4648	0.0111	-0.049
Mof_C 	C 	0.2174	0.435	0.013	0.016
Mof_C 	C 	0.1638	0.4426	0.9815	0.005
Mof_C 	C 	0.1446	0.3301	0.9938	-0.122
Mof_C 	C 	0.1648	0.3221	0.9687	0.059
Mof_C 	C 	0.176	0.2911	0.9658	0.17
Mof_C 	C 	0.1671	0.2681	0.9879	-0.424
Mof_C 	C 	0.1469	0.2762	0.0129	-0.144
Mof_C 	C 	0.1357	0.3072	0.0158	-0.204
Mof_C 	C 	0.1387	0.3304	0.9975	0
Mof_C 	C 	0.1595	0.3187	0.9745	-0.091
Mof_C 	C 	0.165	0.2861	0.9723	-0.052
Mof_C 	C 	0.1497	0.2653	0.9931	0.503
Mof_C 	C 	0.129	0.2771	0.0161	-0.053
Mof_C 	C 	0.1235	0.3097	0.0183	0.211
Mof_C 	C 	0.6199	0.8747	0.5798	-0.23
Mof_N 	N 	0.6169	0.8742	0.5532	-0.138
Mof_C 	C 	0.5622	0.8374	0.524	0.022
Mof_C 	C 	0.541	0.8126	0.5296	-0.082
Mof_C 	C 	0.5424	0.7852	0.5111	-0.015
Mof_C 	C 	0.5326	0.815	0.513	0.048
Mof_C 	C 	0.5862	0.8074	0.4815	-0.002
Mof_C 	C 	0.6054	0.9199	0.4938	-0.124
Mof_C 	C 	0.5852	0.9279	0.4687	0.06
Mof_C 	C 	0.574	0.9589	0.4658	0.182
Mof_C 	C 	0.5829	0.9819	0.4879	-0.456
Mof_C 	C 	0.6031	0.9738	0.5129	-0.162
Mof_C 	C 	0.6143	0.9428	0.5158	-0.211
Mof_C 	C 	0.6113	0.9196	0.4975	0.003
Mof_C 	C 	0.5905	0.9313	0.4745	-0.093
Mof_C 	C 	0.585	0.9639	0.4723	-0.052
Mof_C 	C 	0.6003	0.9847	0.4931	0.545
Mof_C 	C 	0.621	0.9729	0.5161	-0.045
Mof_C 	C 	0.6265	0.9403	0.5183	0.224
Mof_C 	C 	0.6199	0.3747	0.0798	-0.229
Mof_N 	N 	0.6169	0.3742	0.0532	-0.137
Mof_C 	C 	0.5622	0.3374	0.024	0.023
Mof_C 	C 	0.541	0.3126	0.0296	-0.045
Mof_C 	C 	0.5424	0.2852	0.0111	-0.048
Mof_C 	C 	0.5326	0.315	0.013	0.017
Mof_C 	C 	0.5862	0.3074	0.9815	0.006
Mof_C 	C 	0.6054	0.4199	0.9938	-0.121
Mof_C 	C 	0.5852	0.4279	0.9687	0.06
Mof_C 	C 	0.574	0.4589	0.9658	0.169
Mof_C 	C 	0.5829	0.4819	0.9879	-0.418
Mof_C 	C 	0.6031	0.4738	0.0129	-0.142
Mof_C 	C 	0.6143	0.4428	0.0158	-0.201
Mof_C 	C 	0.6113	0.4196	0.9975	0
Mof_C 	C 	0.5905	0.4313	0.9745	-0.09
Mof_C 	C 	0.585	0.4639	0.9723	-0.051
Mof_C 	C 	0.6003	0.4847	0.9931	0.498
Mof_C 	C 	0.621	0.4729	0.0161	-0.05
Mof_C 	C 	0.6265	0.4403	0.0183	0.21
Mof_C 	C 	0.1199	0.8747	0.0798	-0.229
Mof_N 	N 	0.1169	0.8742	0.0532	-0.137
Mof_C 	C 	0.0622	0.8374	0.024	0.022
Mof_C 	C 	0.041	0.8126	0.0296	-0.04
Mof_C 	C 	0.0424	0.7852	0.0111	-0.051
Mof_C 	C 	0.0326	0.815	0.013	0.01
Mof_C 	C 	0.0862	0.8074	0.9815	0.006
Mof_C 	C 	0.1054	0.9199	0.9938	-0.121
Mof_C 	C 	0.0852	0.9279	0.9687	0.06
Mof_C 	C 	0.074	0.9589	0.9658	0.167
Mof_C 	C 	0.0829	0.9819	0.9879	-0.415
Mof_C 	C 	0.1031	0.9738	0.0129	-0.14
Mof_C 	C 	0.1143	0.9428	0.0158	-0.199
Mof_C 	C 	0.1113	0.9196	0.9975	-0
Mof_C 	C 	0.0905	0.9313	0.9745	-0.089
Mof_C 	C 	0.085	0.9639	0.9723	-0.048
Mof_C 	C 	0.1003	0.9847	0.9931	0.494
Mof_C 	C 	0.121	0.9729	0.0161	-0.051
Mof_C 	C 	0.1265	0.9403	0.0183	0.208
Mof_C 	C 	0.1199	0.3747	0.5798	-0.229
Mof_N 	N 	0.1169	0.3742	0.5532	-0.137
Mof_C 	C 	0.0622	0.3374	0.524	0.021
Mof_C 	C 	0.041	0.3126	0.5296	-0.076
Mof_C 	C 	0.0424	0.2852	0.5111	-0.018
Mof_C 	C 	0.0326	0.315	0.513	0.042
Mof_C 	C 	0.0862	0.3074	0.4815	-0.001
Mof_C 	C 	0.1054	0.4199	0.4938	-0.124
Mof_C 	C 	0.0852	0.4279	0.4687	0.061
Mof_C 	C 	0.074	0.4589	0.4658	0.183
Mof_C 	C 	0.0829	0.4819	0.4879	-0.451
Mof_C 	C 	0.1031	0.4738	0.5129	-0.159
Mof_C 	C 	0.1143	0.4428	0.5158	-0.21
Mof_C 	C 	0.1113	0.4196	0.4975	0.003
Mof_C 	C 	0.0905	0.4313	0.4745	-0.094
Mof_C 	C 	0.085	0.4639	0.4723	-0.056
Mof_C 	C 	0.1003	0.4847	0.4931	0.538
Mof_C 	C 	0.121	0.4729	0.5161	-0.046
Mof_C 	C 	0.1265	0.4403	0.5183	0.222
Mof_C 	C 	0.1199	0.3753	0.1702	-0.229
Mof_N 	N 	0.1169	0.3758	0.1968	-0.137
Mof_C 	C 	0.0622	0.4126	0.226	0.021
Mof_C 	C 	0.041	0.4374	0.2204	-0.076
Mof_C 	C 	0.0424	0.4648	0.2389	-0.018
Mof_C 	C 	0.0326	0.435	0.237	0.042
Mof_C 	C 	0.0862	0.4426	0.2685	-0.001
Mof_C 	C 	0.1054	0.3301	0.2562	-0.124
Mof_C 	C 	0.0852	0.3221	0.2813	0.061
Mof_C 	C 	0.074	0.2911	0.2842	0.183
Mof_C 	C 	0.0829	0.2681	0.2621	-0.451
Mof_C 	C 	0.1031	0.2762	0.2371	-0.159
Mof_C 	C 	0.1143	0.3072	0.2342	-0.211
Mof_C 	C 	0.1113	0.3304	0.2525	0.003
Mof_C 	C 	0.0905	0.3187	0.2755	-0.095
Mof_C 	C 	0.085	0.2861	0.2777	-0.056
Mof_C 	C 	0.1003	0.2653	0.2569	0.539
Mof_C 	C 	0.121	0.2771	0.2339	-0.046
Mof_C 	C 	0.1265	0.3097	0.2317	0.222
Mof_C 	C 	0.1199	0.8753	0.6702	-0.229
Mof_N 	N 	0.1169	0.8758	0.6968	-0.137
Mof_C 	C 	0.0622	0.9126	0.726	0.021
Mof_C 	C 	0.041	0.9374	0.7204	-0.073
Mof_C 	C 	0.0424	0.9648	0.7389	-0.021
Mof_C 	C 	0.0326	0.935	0.737	0.039
Mof_C 	C 	0.0862	0.9426	0.7685	0
Mof_C 	C 	0.1054	0.8301	0.7562	-0.124
Mof_C 	C 	0.0852	0.8221	0.7813	0.061
Mof_C 	C 	0.074	0.7911	0.7842	0.183
Mof_C 	C 	0.0829	0.7681	0.7621	-0.452
Mof_C 	C 	0.1031	0.7762	0.7371	-0.159
Mof_C 	C 	0.1143	0.8072	0.7342	-0.211
Mof_C 	C 	0.1113	0.8304	0.7525	0.003
Mof_C 	C 	0.0905	0.8187	0.7755	-0.095
Mof_C 	C 	0.085	0.7861	0.7777	-0.057
Mof_C 	C 	0.1003	0.7653	0.7569	0.539
Mof_C 	C 	0.121	0.7771	0.7339	-0.046
Mof_C 	C 	0.1265	0.8097	0.7317	0.223
Mof_C 	C 	0.6199	0.3753	0.6702	-0.229
Mof_N 	N 	0.6169	0.3758	0.6968	-0.137
Mof_C 	C 	0.5622	0.4126	0.726	0.022
Mof_C 	C 	0.541	0.4374	0.7204	-0.082
Mof_C 	C 	0.5424	0.4648	0.7389	-0.015
Mof_C 	C 	0.5326	0.435	0.737	0.048
Mof_C 	C 	0.5862	0.4426	0.7685	-0.002
Mof_C 	C 	0.6054	0.3301	0.7562	-0.124
Mof_C 	C 	0.5852	0.3221	0.7813	0.061
Mof_C 	C 	0.574	0.2911	0.7842	0.184
Mof_C 	C 	0.5829	0.2681	0.7621	-0.455
Mof_C 	C 	0.6031	0.2762	0.7371	-0.162
Mof_C 	C 	0.6143	0.3072	0.7342	-0.212
Mof_C 	C 	0.6113	0.3304	0.7525	0.003
Mof_C 	C 	0.5905	0.3187	0.7755	-0.094
Mof_C 	C 	0.585	0.2861	0.7777	-0.056
Mof_C 	C 	0.6003	0.2653	0.7569	0.544
Mof_C 	C 	0.621	0.2771	0.7339	-0.045
Mof_C 	C 	0.6265	0.3097	0.7317	0.224
Mof_C 	C 	0.6199	0.8753	0.1702	-0.229
Mof_N 	N 	0.6169	0.8758	0.1968	-0.137
Mof_C 	C 	0.5622	0.9126	0.226	0.022
Mof_C 	C 	0.541	0.9374	0.2204	-0.078
Mof_C 	C 	0.5424	0.9648	0.2389	-0.018
Mof_C 	C 	0.5326	0.935	0.237	0.046
Mof_C 	C 	0.5862	0.9426	0.2685	-0
Mof_C 	C 	0.6054	0.8301	0.2562	-0.124
Mof_C 	C 	0.5852	0.8221	0.2813	0.061
Mof_C 	C 	0.574	0.7911	0.2842	0.184
Mof_C 	C 	0.5829	0.7681	0.2621	-0.456
Mof_C 	C 	0.6031	0.7762	0.2371	-0.162
Mof_C 	C 	0.6143	0.8072	0.2342	-0.212
Mof_C 	C 	0.6113	0.8304	0.2525	0.003
Mof_C 	C 	0.5905	0.8187	0.2755	-0.094
Mof_C 	C 	0.585	0.7861	0.2777	-0.056
Mof_C 	C 	0.6003	0.7653	0.2569	0.545
Mof_C 	C 	0.621	0.7771	0.2339	-0.046
Mof_C 	C 	0.6265	0.8097	0.2317	0.224
Mof_C 	C 	0.1301	0.3747	0.6702	-0.229
Mof_N 	N 	0.1331	0.3742	0.6968	-0.137
Mof_C 	C 	0.1878	0.3374	0.726	0.022
Mof_C 	C 	0.209	0.3126	0.7204	-0.082
Mof_C 	C 	0.2076	0.2852	0.7389	-0.015
Mof_C 	C 	0.2174	0.315	0.737	0.049
Mof_C 	C 	0.1638	0.3074	0.7685	-0.002
Mof_C 	C 	0.1446	0.4199	0.7562	-0.124
Mof_C 	C 	0.1648	0.4279	0.7813	0.061
Mof_C 	C 	0.176	0.4589	0.7842	0.186
Mof_C 	C 	0.1671	0.4819	0.7621	-0.46
Mof_C 	C 	0.1469	0.4738	0.7371	-0.163
Mof_C 	C 	0.1357	0.4428	0.7342	-0.214
Mof_C 	C 	0.1387	0.4196	0.7525	0.003
Mof_C 	C 	0.1595	0.4313	0.7755	-0.095
Mof_C 	C 	0.165	0.4639	0.7777	-0.056
Mof_C 	C 	0.1497	0.4847	0.7569	0.549
Mof_C 	C 	0.129	0.4729	0.7339	-0.047
Mof_C 	C 	0.1235	0.4403	0.7317	0.226
Mof_C 	C 	0.1301	0.8747	0.1702	-0.229
Mof_N 	N 	0.1331	0.8742	0.1968	-0.137
Mof_C 	C 	0.1878	0.8374	0.226	0.022
Mof_C 	C 	0.209	0.8126	0.2204	-0.082
Mof_C 	C 	0.2076	0.7852	0.2389	-0.015
Mof_C 	C 	0.2174	0.815	0.237	0.048
Mof_C 	C 	0.1638	0.8074	0.2685	-0.002
Mof_C 	C 	0.1446	0.9199	0.2562	-0.124
Mof_C 	C 	0.1648	0.9279	0.2813	0.06
Mof_C 	C 	0.176	0.9589	0.2842	0.184
Mof_C 	C 	0.1671	0.9819	0.2621	-0.462
Mof_C 	C 	0.1469	0.9738	0.2371	-0.163
Mof_C 	C 	0.1357	0.9428	0.2342	-0.213
Mof_C 	C 	0.1387	0.9196	0.2525	0.003
Mof_C 	C 	0.1595	0.9313	0.2755	-0.094
Mof_C 	C 	0.165	0.9639	0.2777	-0.053
Mof_C 	C 	0.1497	0.9847	0.2569	0.55
Mof_C 	C 	0.129	0.9729	0.2339	-0.047
Mof_C 	C 	0.1235	0.9403	0.2317	0.226
Mof_C 	C 	0.6301	0.3747	0.1702	-0.229
Mof_N 	N 	0.6331	0.3742	0.1968	-0.137
Mof_C 	C 	0.6878	0.3374	0.226	0.022
Mof_C 	C 	0.709	0.3126	0.2204	-0.082
Mof_C 	C 	0.7076	0.2852	0.2389	-0.015
Mof_C 	C 	0.7174	0.315	0.237	0.048
Mof_C 	C 	0.6638	0.3074	0.2685	-0.002
Mof_C 	C 	0.6446	0.4199	0.2562	-0.124
Mof_C 	C 	0.6648	0.4279	0.2813	0.061
Mof_C 	C 	0.676	0.4589	0.2842	0.184
Mof_C 	C 	0.6671	0.4819	0.2621	-0.455
Mof_C 	C 	0.6469	0.4738	0.2371	-0.162
Mof_C 	C 	0.6357	0.4428	0.2342	-0.212
Mof_C 	C 	0.6387	0.4196	0.2525	0.003
Mof_C 	C 	0.6595	0.4313	0.2755	-0.094
Mof_C 	C 	0.665	0.4639	0.2777	-0.056
Mof_C 	C 	0.6497	0.4847	0.2569	0.544
Mof_C 	C 	0.629	0.4729	0.2339	-0.046
Mof_C 	C 	0.6235	0.4403	0.2317	0.224
Mof_C 	C 	0.6301	0.8747	0.6702	-0.229
Mof_N 	N 	0.6331	0.8742	0.6968	-0.137
Mof_C 	C 	0.6878	0.8374	0.726	0.022
Mof_C 	C 	0.709	0.8126	0.7204	-0.082
Mof_C 	C 	0.7076	0.7852	0.7389	-0.015
Mof_C 	C 	0.7174	0.815	0.737	0.048
Mof_C 	C 	0.6638	0.8074	0.7685	-0.002
Mof_C 	C 	0.6446	0.9199	0.7562	-0.124
Mof_C 	C 	0.6648	0.9279	0.7813	0.06
Mof_C 	C 	0.676	0.9589	0.7842	0.182
Mof_C 	C 	0.6671	0.9819	0.7621	-0.456
Mof_C 	C 	0.6469	0.9738	0.7371	-0.162
Mof_C 	C 	0.6357	0.9428	0.7342	-0.211
Mof_C 	C 	0.6387	0.9196	0.7525	0.003
Mof_C 	C 	0.6595	0.9313	0.7755	-0.093
Mof_C 	C 	0.665	0.9639	0.7777	-0.052
Mof_C 	C 	0.6497	0.9847	0.7569	0.544
Mof_C 	C 	0.629	0.9729	0.7339	-0.045
Mof_C 	C 	0.6235	0.9403	0.7317	0.224
Mof_C 	C 	0.0798	0.6301	0.8753	-0.229
Mof_N 	N 	0.0532	0.6331	0.8758	-0.137
Mof_C 	C 	0.024	0.6878	0.9126	0.023
Mof_C 	C 	0.0296	0.709	0.9374	-0.042
Mof_C 	C 	0.0111	0.7076	0.9648	-0.051
Mof_C 	C 	0.013	0.7174	0.935	0.014
Mof_C 	C 	0.9815	0.6638	0.9426	0.008
Mof_C 	C 	0.9938	0.6446	0.8301	-0.121
Mof_C 	C 	0.9687	0.6648	0.8221	0.06
Mof_C 	C 	0.9658	0.676	0.7911	0.169
Mof_C 	C 	0.9879	0.6671	0.7681	-0.418
Mof_C 	C 	0.0129	0.6469	0.7762	-0.142
Mof_C 	C 	0.0158	0.6357	0.8072	-0.202
Mof_C 	C 	0.9975	0.6387	0.8304	0
Mof_C 	C 	0.9745	0.6595	0.8187	-0.09
Mof_C 	C 	0.9723	0.665	0.7861	-0.051
Mof_C 	C 	0.9931	0.6497	0.7653	0.499
Mof_C 	C 	0.0161	0.629	0.7771	-0.051
Mof_C 	C 	0.0183	0.6235	0.8097	0.21
Mof_C 	C 	0.0798	0.1301	0.3753	-0.23
Mof_N 	N 	0.0532	0.1331	0.3758	-0.137
Mof_C 	C 	0.024	0.1878	0.4126	0.023
Mof_C 	C 	0.0296	0.209	0.4374	-0.045
Mof_C 	C 	0.0111	0.2076	0.4648	-0.048
Mof_C 	C 	0.013	0.2174	0.435	0.017
Mof_C 	C 	0.9815	0.1638	0.4426	0.006
Mof_C 	C 	0.9938	0.1446	0.3301	-0.121
Mof_C 	C 	0.9687	0.1648	0.3221	0.06
Mof_C 	C 	0.9658	0.176	0.2911	0.171
Mof_C 	C 	0.9879	0.1671	0.2681	-0.423
Mof_C 	C 	0.0129	0.1469	0.2762	-0.143
Mof_C 	C 	0.0158	0.1357	0.3072	-0.203
Mof_C 	C 	0.9975	0.1387	0.3304	0.001
Mof_C 	C 	0.9745	0.1595	0.3187	-0.09
Mof_C 	C 	0.9723	0.165	0.2861	-0.051
Mof_C 	C 	0.9931	0.1497	0.2653	0.504
Mof_C 	C 	0.0161	0.129	0.2771	-0.052
Mof_C 	C 	0.0183	0.1235	0.3097	0.212
Mof_C 	C 	0.5798	0.6301	0.3753	-0.229
Mof_N 	N 	0.5532	0.6331	0.3758	-0.137
Mof_C 	C 	0.524	0.6878	0.4126	0.022
Mof_C 	C 	0.5296	0.709	0.4374	-0.082
Mof_C 	C 	0.5111	0.7076	0.4648	-0.015
Mof_C 	C 	0.513	0.7174	0.435	0.048
Mof_C 	C 	0.4815	0.6638	0.4426	-0.002
Mof_C 	C 	0.4938	0.6446	0.3301	-0.124
Mof_C 	C 	0.4687	0.6648	0.3221	0.061
Mof_C 	C 	0.4658	0.676	0.2911	0.184
Mof_C 	C 	0.4879	0.6671	0.2681	-0.455
Mof_C 	C 	0.5129	0.6469	0.2762	-0.162
Mof_C 	C 	0.5158	0.6357	0.3072	-0.212
Mof_C 	C 	0.4975	0.6387	0.3304	0.003
Mof_C 	C 	0.4745	0.6595	0.3187	-0.094
Mof_C 	C 	0.4723	0.665	0.2861	-0.056
Mof_C 	C 	0.4931	0.6497	0.2653	0.544
Mof_C 	C 	0.5161	0.629	0.2771	-0.045
Mof_C 	C 	0.5183	0.6235	0.3097	0.224
Mof_C 	C 	0.5798	0.1301	0.8753	-0.229
Mof_N 	N 	0.5532	0.1331	0.8758	-0.137
Mof_C 	C 	0.524	0.1878	0.9126	0.022
Mof_C 	C 	0.5296	0.209	0.9374	-0.079
Mof_C 	C 	0.5111	0.2076	0.9648	-0.018
Mof_C 	C 	0.513	0.2174	0.935	0.046
Mof_C 	C 	0.4815	0.1638	0.9426	-0
Mof_C 	C 	0.4938	0.1446	0.8301	-0.125
Mof_C 	C 	0.4687	0.1648	0.8221	0.061
Mof_C 	C 	0.4658	0.176	0.7911	0.186
Mof_C 	C 	0.4879	0.1671	0.7681	-0.461
Mof_C 	C 	0.5129	0.1469	0.7762	-0.163
Mof_C 	C 	0.5158	0.1357	0.8072	-0.214
Mof_C 	C 	0.4975	0.1387	0.8304	0.003
Mof_C 	C 	0.4745	0.1595	0.8187	-0.095
Mof_C 	C 	0.4723	0.165	0.7861	-0.056
Mof_C 	C 	0.4931	0.1497	0.7653	0.55
Mof_C 	C 	0.5161	0.129	0.7771	-0.047
Mof_C 	C 	0.5183	0.1235	0.8097	0.226
Mof_C 	C 	0.5798	0.6199	0.8747	-0.229
Mof_N 	N 	0.5532	0.6169	0.8742	-0.137
Mof_C 	C 	0.524	0.5622	0.8374	0.022
Mof_C 	C 	0.5296	0.541	0.8126	-0.082
Mof_C 	C 	0.5111	0.5424	0.7852	-0.015
Mof_C 	C 	0.513	0.5326	0.815	0.048
Mof_C 	C 	0.4815	0.5862	0.8074	-0.002
Mof_C 	C 	0.4938	0.6054	0.9199	-0.124
Mof_C 	C 	0.4687	0.5852	0.9279	0.06
Mof_C 	C 	0.4658	0.574	0.9589	0.182
Mof_C 	C 	0.4879	0.5829	0.9819	-0.456
Mof_C 	C 	0.5129	0.6031	0.9738	-0.162
Mof_C 	C 	0.5158	0.6143	0.9428	-0.211
Mof_C 	C 	0.4975	0.6113	0.9196	0.003
Mof_C 	C 	0.4745	0.5905	0.9313	-0.093
Mof_C 	C 	0.4723	0.585	0.9639	-0.052
Mof_C 	C 	0.4931	0.6003	0.9847	0.545
Mof_C 	C 	0.5161	0.621	0.9729	-0.045
Mof_C 	C 	0.5183	0.6265	0.9403	0.224
Mof_C 	C 	0.5798	0.1199	0.3747	-0.229
Mof_N 	N 	0.5532	0.1169	0.3742	-0.137
Mof_C 	C 	0.524	0.0622	0.3374	0.021
Mof_C 	C 	0.5296	0.041	0.3126	-0.076
Mof_C 	C 	0.5111	0.0424	0.2852	-0.018
Mof_C 	C 	0.513	0.0326	0.315	0.042
Mof_C 	C 	0.4815	0.0862	0.3074	-0.001
Mof_C 	C 	0.4938	0.1054	0.4199	-0.124
Mof_C 	C 	0.4687	0.0852	0.4279	0.061
Mof_C 	C 	0.4658	0.074	0.4589	0.183
Mof_C 	C 	0.4879	0.0829	0.4819	-0.451
Mof_C 	C 	0.5129	0.1031	0.4738	-0.159
Mof_C 	C 	0.5158	0.1143	0.4428	-0.21
Mof_C 	C 	0.4975	0.1113	0.4196	0.003
Mof_C 	C 	0.4745	0.0905	0.4313	-0.094
Mof_C 	C 	0.4723	0.085	0.4639	-0.056
Mof_C 	C 	0.4931	0.1003	0.4847	0.538
Mof_C 	C 	0.5161	0.121	0.4729	-0.046
Mof_C 	C 	0.5183	0.1265	0.4403	0.222
Mof_C 	C 	0.0798	0.6199	0.3747	-0.229
Mof_N 	N 	0.0532	0.6169	0.3742	-0.137
Mof_C 	C 	0.024	0.5622	0.3374	0.023
Mof_C 	C 	0.0296	0.541	0.3126	-0.045
Mof_C 	C 	0.0111	0.5424	0.2852	-0.048
Mof_C 	C 	0.013	0.5326	0.315	0.017
Mof_C 	C 	0.9815	0.5862	0.3074	0.006
Mof_C 	C 	0.9938	0.6054	0.4199	-0.121
Mof_C 	C 	0.9687	0.5852	0.4279	0.06
Mof_C 	C 	0.9658	0.574	0.4589	0.169
Mof_C 	C 	0.9879	0.5829	0.4819	-0.418
Mof_C 	C 	0.0129	0.6031	0.4738	-0.142
Mof_C 	C 	0.0158	0.6143	0.4428	-0.201
Mof_C 	C 	0.9975	0.6113	0.4196	0
Mof_C 	C 	0.9745	0.5905	0.4313	-0.09
Mof_C 	C 	0.9723	0.585	0.4639	-0.051
Mof_C 	C 	0.9931	0.6003	0.4847	0.498
Mof_C 	C 	0.0161	0.621	0.4729	-0.05
Mof_C 	C 	0.0183	0.6265	0.4403	0.21
Mof_C 	C 	0.0798	0.1199	0.8747	-0.229
Mof_N 	N 	0.0532	0.1169	0.8742	-0.137
Mof_C 	C 	0.024	0.0622	0.8374	0.022
Mof_C 	C 	0.0296	0.041	0.8126	-0.04
Mof_C 	C 	0.0111	0.0424	0.7852	-0.051
Mof_C 	C 	0.013	0.0326	0.815	0.01
Mof_C 	C 	0.9815	0.0862	0.8074	0.006
Mof_C 	C 	0.9938	0.1054	0.9199	-0.121
Mof_C 	C 	0.9687	0.0852	0.9279	0.06
Mof_C 	C 	0.9658	0.074	0.9589	0.167
Mof_C 	C 	0.9879	0.0829	0.9819	-0.415
Mof_C 	C 	0.0129	0.1031	0.9738	-0.14
Mof_C 	C 	0.0158	0.1143	0.9428	-0.199
Mof_C 	C 	0.9975	0.1113	0.9196	-0
Mof_C 	C 	0.9745	0.0905	0.9313	-0.089
Mof_C 	C 	0.9723	0.085	0.9639	-0.048
Mof_C 	C 	0.9931	0.1003	0.9847	0.494
Mof_C 	C 	0.0161	0.121	0.9729	-0.051
Mof_C 	C 	0.0183	0.1265	0.9403	0.208
Mof_C 	C 	0.1702	0.1199	0.3753	-0.229
Mof_N 	N 	0.1968	0.1169	0.3758	-0.137
Mof_C 	C 	0.226	0.0622	0.4126	0.021
Mof_C 	C 	0.2204	0.041	0.4374	-0.076
Mof_C 	C 	0.2389	0.0424	0.4648	-0.018
Mof_C 	C 	0.237	0.0326	0.435	0.042
Mof_C 	C 	0.2685	0.0862	0.4426	-0.001
Mof_C 	C 	0.2562	0.1054	0.3301	-0.124
Mof_C 	C 	0.2813	0.0852	0.3221	0.061
Mof_C 	C 	0.2842	0.074	0.2911	0.183
Mof_C 	C 	0.2621	0.0829	0.2681	-0.451
Mof_C 	C 	0.2371	0.1031	0.2762	-0.159
Mof_C 	C 	0.2342	0.1143	0.3072	-0.211
Mof_C 	C 	0.2525	0.1113	0.3304	0.003
Mof_C 	C 	0.2755	0.0905	0.3187	-0.095
Mof_C 	C 	0.2777	0.085	0.2861	-0.056
Mof_C 	C 	0.2569	0.1003	0.2653	0.539
Mof_C 	C 	0.2339	0.121	0.2771	-0.046
Mof_C 	C 	0.2317	0.1265	0.3097	0.222
Mof_C 	C 	0.1702	0.6199	0.8753	-0.229
Mof_N 	N 	0.1968	0.6169	0.8758	-0.137
Mof_C 	C 	0.226	0.5622	0.9126	0.022
Mof_C 	C 	0.2204	0.541	0.9374	-0.078
Mof_C 	C 	0.2389	0.5424	0.9648	-0.018
Mof_C 	C 	0.237	0.5326	0.935	0.046
Mof_C 	C 	0.2685	0.5862	0.9426	-0
Mof_C 	C 	0.2562	0.6054	0.8301	-0.124
Mof_C 	C 	0.2813	0.5852	0.8221	0.061
Mof_C 	C 	0.2842	0.574	0.7911	0.184
Mof_C 	C 	0.2621	0.5829	0.7681	-0.456
Mof_C 	C 	0.2371	0.6031	0.7762	-0.162
Mof_C 	C 	0.2342	0.6143	0.8072	-0.212
Mof_C 	C 	0.2525	0.6113	0.8304	0.003
Mof_C 	C 	0.2755	0.5905	0.8187	-0.094
Mof_C 	C 	0.2777	0.585	0.7861	-0.056
Mof_C 	C 	0.2569	0.6003	0.7653	0.545
Mof_C 	C 	0.2339	0.621	0.7771	-0.046
Mof_C 	C 	0.2317	0.6265	0.8097	0.224
Mof_C 	C 	0.6702	0.1199	0.8753	-0.229
Mof_N 	N 	0.6968	0.1169	0.8758	-0.137
Mof_C 	C 	0.726	0.0622	0.9126	0.021
Mof_C 	C 	0.7204	0.041	0.9374	-0.073
Mof_C 	C 	0.7389	0.0424	0.9648	-0.021
Mof_C 	C 	0.737	0.0326	0.935	0.039
Mof_C 	C 	0.7685	0.0862	0.9426	0
Mof_C 	C 	0.7562	0.1054	0.8301	-0.124
Mof_C 	C 	0.7813	0.0852	0.8221	0.061
Mof_C 	C 	0.7842	0.074	0.7911	0.183
Mof_C 	C 	0.7621	0.0829	0.7681	-0.452
Mof_C 	C 	0.7371	0.1031	0.7762	-0.159
Mof_C 	C 	0.7342	0.1143	0.8072	-0.211
Mof_C 	C 	0.7525	0.1113	0.8304	0.003
Mof_C 	C 	0.7755	0.0905	0.8187	-0.095
Mof_C 	C 	0.7777	0.085	0.7861	-0.057
Mof_C 	C 	0.7569	0.1003	0.7653	0.539
Mof_C 	C 	0.7339	0.121	0.7771	-0.046
Mof_C 	C 	0.7317	0.1265	0.8097	0.223
Mof_C 	C 	0.6702	0.6199	0.3753	-0.229
Mof_N 	N 	0.6968	0.6169	0.3758	-0.137
Mof_C 	C 	0.726	0.5622	0.4126	0.022
Mof_C 	C 	0.7204	0.541	0.4374	-0.082
Mof_C 	C 	0.7389	0.5424	0.4648	-0.015
Mof_C 	C 	0.737	0.5326	0.435	0.048
Mof_C 	C 	0.7685	0.5862	0.4426	-0.002
Mof_C 	C 	0.7562	0.6054	0.3301	-0.124
Mof_C 	C 	0.7813	0.5852	0.3221	0.061
Mof_C 	C 	0.7842	0.574	0.2911	0.184
Mof_C 	C 	0.7621	0.5829	0.2681	-0.455
Mof_C 	C 	0.7371	0.6031	0.2762	-0.162
Mof_C 	C 	0.7342	0.6143	0.3072	-0.212
Mof_C 	C 	0.7525	0.6113	0.3304	0.003
Mof_C 	C 	0.7755	0.5905	0.3187	-0.094
Mof_C 	C 	0.7777	0.585	0.2861	-0.056
Mof_C 	C 	0.7569	0.6003	0.2653	0.544
Mof_C 	C 	0.7339	0.621	0.2771	-0.045
Mof_C 	C 	0.7317	0.6265	0.3097	0.224
Mof_C 	C 	0.6702	0.1301	0.3747	-0.229
Mof_N 	N 	0.6968	0.1331	0.3742	-0.137
Mof_C 	C 	0.726	0.1878	0.3374	0.022
Mof_C 	C 	0.7204	0.209	0.3126	-0.082
Mof_C 	C 	0.7389	0.2076	0.2852	-0.015
Mof_C 	C 	0.737	0.2174	0.315	0.049
Mof_C 	C 	0.7685	0.1638	0.3074	-0.002
Mof_C 	C 	0.7562	0.1446	0.4199	-0.124
Mof_C 	C 	0.7813	0.1648	0.4279	0.061
Mof_C 	C 	0.7842	0.176	0.4589	0.186
Mof_C 	C 	0.7621	0.1671	0.4819	-0.46
Mof_C 	C 	0.7371	0.1469	0.4738	-0.163
Mof_C 	C 	0.7342	0.1357	0.4428	-0.214
Mof_C 	C 	0.7525	0.1387	0.4196	0.003
Mof_C 	C 	0.7755	0.1595	0.4313	-0.095
Mof_C 	C 	0.7777	0.165	0.4639	-0.056
Mof_C 	C 	0.7569	0.1497	0.4847	0.549
Mof_C 	C 	0.7339	0.129	0.4729	-0.047
Mof_C 	C 	0.7317	0.1235	0.4403	0.226
Mof_C 	C 	0.6702	0.6301	0.8747	-0.229
Mof_N 	N 	0.6968	0.6331	0.8742	-0.137
Mof_C 	C 	0.726	0.6878	0.8374	0.022
Mof_C 	C 	0.7204	0.709	0.8126	-0.082
Mof_C 	C 	0.7389	0.7076	0.7852	-0.015
Mof_C 	C 	0.737	0.7174	0.815	0.048
Mof_C 	C 	0.7685	0.6638	0.8074	-0.002
Mof_C 	C 	0.7562	0.6446	0.9199	-0.124
Mof_C 	C 	0.7813	0.6648	0.9279	0.06
Mof_C 	C 	0.7842	0.676	0.9589	0.182
Mof_C 	C 	0.7621	0.6671	0.9819	-0.456
Mof_C 	C 	0.7371	0.6469	0.9738	-0.162
Mof_C 	C 	0.7342	0.6357	0.9428	-0.211
Mof_C 	C 	0.7525	0.6387	0.9196	0.003
Mof_C 	C 	0.7755	0.6595	0.9313	-0.093
Mof_C 	C 	0.7777	0.665	0.9639	-0.052
Mof_C 	C 	0.7569	0.6497	0.9847	0.544
Mof_C 	C 	0.7339	0.629	0.9729	-0.045
Mof_C 	C 	0.7317	0.6235	0.9403	0.224
Mof_C 	C 	0.1702	0.1301	0.8747	-0.229
Mof_N 	N 	0.1968	0.1331	0.8742	-0.137
Mof_C 	C 	0.226	0.1878	0.8374	0.022
Mof_C 	C 	0.2204	0.209	0.8126	-0.082
Mof_C 	C 	0.2389	0.2076	0.7852	-0.015
Mof_C 	C 	0.237	0.2174	0.815	0.048
Mof_C 	C 	0.2685	0.1638	0.8074	-0.002
Mof_C 	C 	0.2562	0.1446	0.9199	-0.124
Mof_C 	C 	0.2813	0.1648	0.9279	0.06
Mof_C 	C 	0.2842	0.176	0.9589	0.184
Mof_C 	C 	0.2621	0.1671	0.9819	-0.462
Mof_C 	C 	0.2371	0.1469	0.9738	-0.163
Mof_C 	C 	0.2342	0.1357	0.9428	-0.213
Mof_C 	C 	0.2525	0.1387	0.9196	0.003
Mof_C 	C 	0.2755	0.1595	0.9313	-0.094
Mof_C 	C 	0.2777	0.165	0.9639	-0.053
Mof_C 	C 	0.2569	0.1497	0.9847	0.55
Mof_C 	C 	0.2339	0.129	0.9729	-0.047
Mof_C 	C 	0.2317	0.1235	0.9403	0.226
Mof_C 	C 	0.1702	0.6301	0.3747	-0.229
Mof_N 	N 	0.1968	0.6331	0.3742	-0.137
Mof_C 	C 	0.226	0.6878	0.3374	0.022
Mof_C 	C 	0.2204	0.709	0.3126	-0.082
Mof_C 	C 	0.2389	0.7076	0.2852	-0.015
Mof_C 	C 	0.237	0.7174	0.315	0.048
Mof_C 	C 	0.2685	0.6638	0.3074	-0.002
Mof_C 	C 	0.2562	0.6446	0.4199	-0.124
Mof_C 	C 	0.2813	0.6648	0.4279	0.061
Mof_C 	C 	0.2842	0.676	0.4589	0.184
Mof_C 	C 	0.2621	0.6671	0.4819	-0.455
Mof_C 	C 	0.2371	0.6469	0.4738	-0.162
Mof_C 	C 	0.2342	0.6357	0.4428	-0.212
Mof_C 	C 	0.2525	0.6387	0.4196	0.003
Mof_C 	C 	0.2755	0.6595	0.4313	-0.094
Mof_C 	C 	0.2777	0.665	0.4639	-0.056
Mof_C 	C 	0.2569	0.6497	0.4847	0.544
Mof_C 	C 	0.2339	0.629	0.4729	-0.046
Mof_C 	C 	0.2317	0.6235	0.4403	0.224
Mof_C 	C 	0.8753	0.0798	0.6301	-0.229
Mof_N 	N 	0.8758	0.0532	0.6331	-0.137
Mof_C 	C 	0.9126	0.024	0.6878	0.023
Mof_C 	C 	0.9374	0.0296	0.709	-0.042
Mof_C 	C 	0.9648	0.0111	0.7076	-0.051
Mof_C 	C 	0.935	0.013	0.7174	0.014
Mof_C 	C 	0.9426	0.9815	0.6638	0.008
Mof_C 	C 	0.8301	0.9938	0.6446	-0.121
Mof_C 	C 	0.8221	0.9687	0.6648	0.06
Mof_C 	C 	0.7911	0.9658	0.676	0.169
Mof_C 	C 	0.7681	0.9879	0.6671	-0.418
Mof_C 	C 	0.7762	0.0129	0.6469	-0.142
Mof_C 	C 	0.8072	0.0158	0.6357	-0.202
Mof_C 	C 	0.8304	0.9975	0.6387	0
Mof_C 	C 	0.8187	0.9745	0.6595	-0.09
Mof_C 	C 	0.7861	0.9723	0.665	-0.051
Mof_C 	C 	0.7653	0.9931	0.6497	0.499
Mof_C 	C 	0.7771	0.0161	0.629	-0.051
Mof_C 	C 	0.8097	0.0183	0.6235	0.21
Mof_C 	C 	0.8753	0.5798	0.1301	-0.229
Mof_N 	N 	0.8758	0.5532	0.1331	-0.137
Mof_C 	C 	0.9126	0.524	0.1878	0.022
Mof_C 	C 	0.9374	0.5296	0.209	-0.079
Mof_C 	C 	0.9648	0.5111	0.2076	-0.018
Mof_C 	C 	0.935	0.513	0.2174	0.046
Mof_C 	C 	0.9426	0.4815	0.1638	-0
Mof_C 	C 	0.8301	0.4938	0.1446	-0.125
Mof_C 	C 	0.8221	0.4687	0.1648	0.061
Mof_C 	C 	0.7911	0.4658	0.176	0.186
Mof_C 	C 	0.7681	0.4879	0.1671	-0.461
Mof_C 	C 	0.7762	0.5129	0.1469	-0.163
Mof_C 	C 	0.8072	0.5158	0.1357	-0.214
Mof_C 	C 	0.8304	0.4975	0.1387	0.003
Mof_C 	C 	0.8187	0.4745	0.1595	-0.095
Mof_C 	C 	0.7861	0.4723	0.165	-0.056
Mof_C 	C 	0.7653	0.4931	0.1497	0.55
Mof_C 	C 	0.7771	0.5161	0.129	-0.047
Mof_C 	C 	0.8097	0.5183	0.1235	0.226
Mof_C 	C 	0.3753	0.0798	0.1301	-0.23
Mof_N 	N 	0.3758	0.0532	0.1331	-0.137
Mof_C 	C 	0.4126	0.024	0.1878	0.023
Mof_C 	C 	0.4374	0.0296	0.209	-0.045
Mof_C 	C 	0.4648	0.0111	0.2076	-0.048
Mof_C 	C 	0.435	0.013	0.2174	0.017
Mof_C 	C 	0.4426	0.9815	0.1638	0.006
Mof_C 	C 	0.3301	0.9938	0.1446	-0.121
Mof_C 	C 	0.3221	0.9687	0.1648	0.06
Mof_C 	C 	0.2911	0.9658	0.176	0.171
Mof_C 	C 	0.2681	0.9879	0.1671	-0.423
Mof_C 	C 	0.2762	0.0129	0.1469	-0.143
Mof_C 	C 	0.3072	0.0158	0.1357	-0.203
Mof_C 	C 	0.3304	0.9975	0.1387	0.001
Mof_C 	C 	0.3187	0.9745	0.1595	-0.09
Mof_C 	C 	0.2861	0.9723	0.165	-0.051
Mof_C 	C 	0.2653	0.9931	0.1497	0.504
Mof_C 	C 	0.2771	0.0161	0.129	-0.052
Mof_C 	C 	0.3097	0.0183	0.1235	0.212
Mof_C 	C 	0.3753	0.5798	0.6301	-0.229
Mof_N 	N 	0.3758	0.5532	0.6331	-0.137
Mof_C 	C 	0.4126	0.524	0.6878	0.022
Mof_C 	C 	0.4374	0.5296	0.709	-0.082
Mof_C 	C 	0.4648	0.5111	0.7076	-0.015
Mof_C 	C 	0.435	0.513	0.7174	0.048
Mof_C 	C 	0.4426	0.4815	0.6638	-0.002
Mof_C 	C 	0.3301	0.4938	0.6446	-0.124
Mof_C 	C 	0.3221	0.4687	0.6648	0.061
Mof_C 	C 	0.2911	0.4658	0.676	0.184
Mof_C 	C 	0.2681	0.4879	0.6671	-0.455
Mof_C 	C 	0.2762	0.5129	0.6469	-0.162
Mof_C 	C 	0.3072	0.5158	0.6357	-0.212
Mof_C 	C 	0.3304	0.4975	0.6387	0.003
Mof_C 	C 	0.3187	0.4745	0.6595	-0.094
Mof_C 	C 	0.2861	0.4723	0.665	-0.056
Mof_C 	C 	0.2653	0.4931	0.6497	0.544
Mof_C 	C 	0.2771	0.5161	0.629	-0.045
Mof_C 	C 	0.3097	0.5183	0.6235	0.224
Mof_C 	C 	0.8747	0.5798	0.6199	-0.229
Mof_N 	N 	0.8742	0.5532	0.6169	-0.137
Mof_C 	C 	0.8374	0.524	0.5622	0.022
Mof_C 	C 	0.8126	0.5296	0.541	-0.082
Mof_C 	C 	0.7852	0.5111	0.5424	-0.015
Mof_C 	C 	0.815	0.513	0.5326	0.048
Mof_C 	C 	0.8074	0.4815	0.5862	-0.002
Mof_C 	C 	0.9199	0.4938	0.6054	-0.124
Mof_C 	C 	0.9279	0.4687	0.5852	0.06
Mof_C 	C 	0.9589	0.4658	0.574	0.182
Mof_C 	C 	0.9819	0.4879	0.5829	-0.456
Mof_C 	C 	0.9738	0.5129	0.6031	-0.162
Mof_C 	C 	0.9428	0.5158	0.6143	-0.211
Mof_C 	C 	0.9196	0.4975	0.6113	0.003
Mof_C 	C 	0.9313	0.4745	0.5905	-0.093
Mof_C 	C 	0.9639	0.4723	0.585	-0.052
Mof_C 	C 	0.9847	0.4931	0.6003	0.545
Mof_C 	C 	0.9729	0.5161	0.621	-0.045
Mof_C 	C 	0.9403	0.5183	0.6265	0.224
Mof_C 	C 	0.8747	0.0798	0.1199	-0.229
Mof_N 	N 	0.8742	0.0532	0.1169	-0.137
Mof_C 	C 	0.8374	0.024	0.0622	0.022
Mof_C 	C 	0.8126	0.0296	0.041	-0.04
Mof_C 	C 	0.7852	0.0111	0.0424	-0.051
Mof_C 	C 	0.815	0.013	0.0326	0.01
Mof_C 	C 	0.8074	0.9815	0.0862	0.006
Mof_C 	C 	0.9199	0.9938	0.1054	-0.121
Mof_C 	C 	0.9279	0.9687	0.0852	0.06
Mof_C 	C 	0.9589	0.9658	0.074	0.167
Mof_C 	C 	0.9819	0.9879	0.0829	-0.415
Mof_C 	C 	0.9738	0.0129	0.1031	-0.14
Mof_C 	C 	0.9428	0.0158	0.1143	-0.199
Mof_C 	C 	0.9196	0.9975	0.1113	-0
Mof_C 	C 	0.9313	0.9745	0.0905	-0.089
Mof_C 	C 	0.9639	0.9723	0.085	-0.048
Mof_C 	C 	0.9847	0.9931	0.1003	0.494
Mof_C 	C 	0.9729	0.0161	0.121	-0.051
Mof_C 	C 	0.9403	0.0183	0.1265	0.208
Mof_C 	C 	0.3747	0.5798	0.1199	-0.229
Mof_N 	N 	0.3742	0.5532	0.1169	-0.137
Mof_C 	C 	0.3374	0.524	0.0622	0.021
Mof_C 	C 	0.3126	0.5296	0.041	-0.076
Mof_C 	C 	0.2852	0.5111	0.0424	-0.018
Mof_C 	C 	0.315	0.513	0.0326	0.042
Mof_C 	C 	0.3074	0.4815	0.0862	-0.001
Mof_C 	C 	0.4199	0.4938	0.1054	-0.124
Mof_C 	C 	0.4279	0.4687	0.0852	0.061
Mof_C 	C 	0.4589	0.4658	0.074	0.183
Mof_C 	C 	0.4819	0.4879	0.0829	-0.451
Mof_C 	C 	0.4738	0.5129	0.1031	-0.159
Mof_C 	C 	0.4428	0.5158	0.1143	-0.21
Mof_C 	C 	0.4196	0.4975	0.1113	0.003
Mof_C 	C 	0.4313	0.4745	0.0905	-0.094
Mof_C 	C 	0.4639	0.4723	0.085	-0.056
Mof_C 	C 	0.4847	0.4931	0.1003	0.538
Mof_C 	C 	0.4729	0.5161	0.121	-0.046
Mof_C 	C 	0.4403	0.5183	0.1265	0.222
Mof_C 	C 	0.3747	0.0798	0.6199	-0.229
Mof_N 	N 	0.3742	0.0532	0.6169	-0.137
Mof_C 	C 	0.3374	0.024	0.5622	0.023
Mof_C 	C 	0.3126	0.0296	0.541	-0.045
Mof_C 	C 	0.2852	0.0111	0.5424	-0.048
Mof_C 	C 	0.315	0.013	0.5326	0.017
Mof_C 	C 	0.3074	0.9815	0.5862	0.006
Mof_C 	C 	0.4199	0.9938	0.6054	-0.121
Mof_C 	C 	0.4279	0.9687	0.5852	0.06
Mof_C 	C 	0.4589	0.9658	0.574	0.169
Mof_C 	C 	0.4819	0.9879	0.5829	-0.418
Mof_C 	C 	0.4738	0.0129	0.6031	-0.142
Mof_C 	C 	0.4428	0.0158	0.6143	-0.201
Mof_C 	C 	0.4196	0.9975	0.6113	0
Mof_C 	C 	0.4313	0.9745	0.5905	-0.09
Mof_C 	C 	0.4639	0.9723	0.585	-0.051
Mof_C 	C 	0.4847	0.9931	0.6003	0.498
Mof_C 	C 	0.4729	0.0161	0.621	-0.05
Mof_C 	C 	0.4403	0.0183	0.6265	0.21
Mof_C 	C 	0.3753	0.1702	0.1199	-0.229
Mof_N 	N 	0.3758	0.1968	0.1169	-0.137
Mof_C 	C 	0.4126	0.226	0.0622	0.021
Mof_C 	C 	0.4374	0.2204	0.041	-0.076
Mof_C 	C 	0.4648	0.2389	0.0424	-0.018
Mof_C 	C 	0.435	0.237	0.0326	0.042
Mof_C 	C 	0.4426	0.2685	0.0862	-0.001
Mof_C 	C 	0.3301	0.2562	0.1054	-0.124
Mof_C 	C 	0.3221	0.2813	0.0852	0.061
Mof_C 	C 	0.2911	0.2842	0.074	0.183
Mof_C 	C 	0.2681	0.2621	0.0829	-0.451
Mof_C 	C 	0.2762	0.2371	0.1031	-0.159
Mof_C 	C 	0.3072	0.2342	0.1143	-0.211
Mof_C 	C 	0.3304	0.2525	0.1113	0.003
Mof_C 	C 	0.3187	0.2755	0.0905	-0.095
Mof_C 	C 	0.2861	0.2777	0.085	-0.056
Mof_C 	C 	0.2653	0.2569	0.1003	0.539
Mof_C 	C 	0.2771	0.2339	0.121	-0.046
Mof_C 	C 	0.3097	0.2317	0.1265	0.222
Mof_C 	C 	0.3753	0.6702	0.6199	-0.229
Mof_N 	N 	0.3758	0.6968	0.6169	-0.137
Mof_C 	C 	0.4126	0.726	0.5622	0.022
Mof_C 	C 	0.4374	0.7204	0.541	-0.082
Mof_C 	C 	0.4648	0.7389	0.5424	-0.015
Mof_C 	C 	0.435	0.737	0.5326	0.048
Mof_C 	C 	0.4426	0.7685	0.5862	-0.002
Mof_C 	C 	0.3301	0.7562	0.6054	-0.124
Mof_C 	C 	0.3221	0.7813	0.5852	0.061
Mof_C 	C 	0.2911	0.7842	0.574	0.184
Mof_C 	C 	0.2681	0.7621	0.5829	-0.455
Mof_C 	C 	0.2762	0.7371	0.6031	-0.162
Mof_C 	C 	0.3072	0.7342	0.6143	-0.212
Mof_C 	C 	0.3304	0.7525	0.6113	0.003
Mof_C 	C 	0.3187	0.7755	0.5905	-0.094
Mof_C 	C 	0.2861	0.7777	0.585	-0.056
Mof_C 	C 	0.2653	0.7569	0.6003	0.544
Mof_C 	C 	0.2771	0.7339	0.621	-0.045
Mof_C 	C 	0.3097	0.7317	0.6265	0.224
Mof_C 	C 	0.8753	0.1702	0.6199	-0.229
Mof_N 	N 	0.8758	0.1968	0.6169	-0.137
Mof_C 	C 	0.9126	0.226	0.5622	0.022
Mof_C 	C 	0.9374	0.2204	0.541	-0.078
Mof_C 	C 	0.9648	0.2389	0.5424	-0.018
Mof_C 	C 	0.935	0.237	0.5326	0.046
Mof_C 	C 	0.9426	0.2685	0.5862	-0
Mof_C 	C 	0.8301	0.2562	0.6054	-0.124
Mof_C 	C 	0.8221	0.2813	0.5852	0.061
Mof_C 	C 	0.7911	0.2842	0.574	0.184
Mof_C 	C 	0.7681	0.2621	0.5829	-0.456
Mof_C 	C 	0.7762	0.2371	0.6031	-0.162
Mof_C 	C 	0.8072	0.2342	0.6143	-0.212
Mof_C 	C 	0.8304	0.2525	0.6113	0.003
Mof_C 	C 	0.8187	0.2755	0.5905	-0.094
Mof_C 	C 	0.7861	0.2777	0.585	-0.056
Mof_C 	C 	0.7653	0.2569	0.6003	0.545
Mof_C 	C 	0.7771	0.2339	0.621	-0.046
Mof_C 	C 	0.8097	0.2317	0.6265	0.224
Mof_C 	C 	0.8753	0.6702	0.1199	-0.229
Mof_N 	N 	0.8758	0.6968	0.1169	-0.137
Mof_C 	C 	0.9126	0.726	0.0622	0.021
Mof_C 	C 	0.9374	0.7204	0.041	-0.073
Mof_C 	C 	0.9648	0.7389	0.0424	-0.021
Mof_C 	C 	0.935	0.737	0.0326	0.039
Mof_C 	C 	0.9426	0.7685	0.0862	0
Mof_C 	C 	0.8301	0.7562	0.1054	-0.124
Mof_C 	C 	0.8221	0.7813	0.0852	0.061
Mof_C 	C 	0.7911	0.7842	0.074	0.183
Mof_C 	C 	0.7681	0.7621	0.0829	-0.452
Mof_C 	C 	0.7762	0.7371	0.1031	-0.159
Mof_C 	C 	0.8072	0.7342	0.1143	-0.211
Mof_C 	C 	0.8304	0.7525	0.1113	0.003
Mof_C 	C 	0.8187	0.7755	0.0905	-0.095
Mof_C 	C 	0.7861	0.7777	0.085	-0.057
Mof_C 	C 	0.7653	0.7569	0.1003	0.539
Mof_C 	C 	0.7771	0.7339	0.121	-0.046
Mof_C 	C 	0.8097	0.7317	0.1265	0.223
Mof_C 	C 	0.3747	0.6702	0.1301	-0.229
Mof_N 	N 	0.3742	0.6968	0.1331	-0.137
Mof_C 	C 	0.3374	0.726	0.1878	0.022
Mof_C 	C 	0.3126	0.7204	0.209	-0.082
Mof_C 	C 	0.2852	0.7389	0.2076	-0.015
Mof_C 	C 	0.315	0.737	0.2174	0.049
Mof_C 	C 	0.3074	0.7685	0.1638	-0.002
Mof_C 	C 	0.4199	0.7562	0.1446	-0.124
Mof_C 	C 	0.4279	0.7813	0.1648	0.061
Mof_C 	C 	0.4589	0.7842	0.176	0.186
Mof_C 	C 	0.4819	0.7621	0.1671	-0.46
Mof_C 	C 	0.4738	0.7371	0.1469	-0.163
Mof_C 	C 	0.4428	0.7342	0.1357	-0.214
Mof_C 	C 	0.4196	0.7525	0.1387	0.003
Mof_C 	C 	0.4313	0.7755	0.1595	-0.095
Mof_C 	C 	0.4639	0.7777	0.165	-0.056
Mof_C 	C 	0.4847	0.7569	0.1497	0.549
Mof_C 	C 	0.4729	0.7339	0.129	-0.047
Mof_C 	C 	0.4403	0.7317	0.1235	0.226
Mof_C 	C 	0.3747	0.1702	0.6301	-0.229
Mof_N 	N 	0.3742	0.1968	0.6331	-0.137
Mof_C 	C 	0.3374	0.226	0.6878	0.022
Mof_C 	C 	0.3126	0.2204	0.709	-0.082
Mof_C 	C 	0.2852	0.2389	0.7076	-0.015
Mof_C 	C 	0.315	0.237	0.7174	0.048
Mof_C 	C 	0.3074	0.2685	0.6638	-0.002
Mof_C 	C 	0.4199	0.2562	0.6446	-0.124
Mof_C 	C 	0.4279	0.2813	0.6648	0.061
Mof_C 	C 	0.4589	0.2842	0.676	0.184
Mof_C 	C 	0.4819	0.2621	0.6671	-0.455
Mof_C 	C 	0.4738	0.2371	0.6469	-0.162
Mof_C 	C 	0.4428	0.2342	0.6357	-0.212
Mof_C 	C 	0.4196	0.2525	0.6387	0.003
Mof_C 	C 	0.4313	0.2755	0.6595	-0.094
Mof_C 	C 	0.4639	0.2777	0.665	-0.056
Mof_C 	C 	0.4847	0.2569	0.6497	0.544
Mof_C 	C 	0.4729	0.2339	0.629	-0.046
Mof_C 	C 	0.4403	0.2317	0.6235	0.224
Mof_C 	C 	0.8747	0.6702	0.6301	-0.229
Mof_N 	N 	0.8742	0.6968	0.6331	-0.137
Mof_C 	C 	0.8374	0.726	0.6878	0.022
Mof_C 	C 	0.8126	0.7204	0.709	-0.082
Mof_C 	C 	0.7852	0.7389	0.7076	-0.015
Mof_C 	C 	0.815	0.737	0.7174	0.048
Mof_C 	C 	0.8074	0.7685	0.6638	-0.002
Mof_C 	C 	0.9199	0.7562	0.6446	-0.124
Mof_C 	C 	0.9279	0.7813	0.6648	0.06
Mof_C 	C 	0.9589	0.7842	0.676	0.182
Mof_C 	C 	0.9819	0.7621	0.6671	-0.456
Mof_C 	C 	0.9738	0.7371	0.6469	-0.162
Mof_C 	C 	0.9428	0.7342	0.6357	-0.211
Mof_C 	C 	0.9196	0.7525	0.6387	0.003
Mof_C 	C 	0.9313	0.7755	0.6595	-0.093
Mof_C 	C 	0.9639	0.7777	0.665	-0.052
Mof_C 	C 	0.9847	0.7569	0.6497	0.544
Mof_C 	C 	0.9729	0.7339	0.629	-0.045
Mof_C 	C 	0.9403	0.7317	0.6235	0.224
Mof_C 	C 	0.8747	0.1702	0.1301	-0.229
Mof_N 	N 	0.8742	0.1968	0.1331	-0.137
Mof_C 	C 	0.8374	0.226	0.1878	0.022
Mof_C 	C 	0.8126	0.2204	0.209	-0.082
Mof_C 	C 	0.7852	0.2389	0.2076	-0.015
Mof_C 	C 	0.815	0.237	0.2174	0.048
Mof_C 	C 	0.8074	0.2685	0.1638	-0.002
Mof_C 	C 	0.9199	0.2562	0.1446	-0.124
Mof_C 	C 	0.9279	0.2813	0.1648	0.06
Mof_C 	C 	0.9589	0.2842	0.176	0.184
Mof_C 	C 	0.9819	0.2621	0.1671	-0.462
Mof_C 	C 	0.9738	0.2371	0.1469	-0.163
Mof_C 	C 	0.9428	0.2342	0.1357	-0.213
Mof_C 	C 	0.9196	0.2525	0.1387	0.003
Mof_C 	C 	0.9313	0.2755	0.1595	-0.094
Mof_C 	C 	0.9639	0.2777	0.165	-0.053
Mof_C 	C 	0.9847	0.2569	0.1497	0.55
Mof_C 	C 	0.9729	0.2339	0.129	-0.047
Mof_C 	C 	0.9403	0.2317	0.1235	0.226
Mof_C 	C 	0.6253	0.8801	0.9202	-0.228
Mof_N 	N 	0.6258	0.8831	0.9468	-0.136
Mof_C 	C 	0.6626	0.9378	0.976	0.022
Mof_C 	C 	0.6874	0.959	0.9704	-0.125
Mof_C 	C 	0.7148	0.9576	0.9889	0.021
Mof_C 	C 	0.685	0.9674	0.987	0.086
Mof_C 	C 	0.6926	0.9138	0.0185	-0.008
Mof_C 	C 	0.5801	0.8946	0.0062	-0.126
Mof_C 	C 	0.5721	0.9148	0.0313	0.061
Mof_C 	C 	0.5411	0.926	0.0342	0.198
Mof_C 	C 	0.5181	0.9171	0.0121	-0.494
Mof_C 	C 	0.5262	0.8969	0.9871	-0.183
Mof_C 	C 	0.5572	0.8857	0.9842	-0.223
Mof_C 	C 	0.5804	0.8887	0.0025	0.006
Mof_C 	C 	0.5687	0.9095	0.0255	-0.098
Mof_C 	C 	0.5361	0.915	0.0277	-0.059
Mof_C 	C 	0.5153	0.8997	0.0069	0.591
Mof_C 	C 	0.5271	0.879	0.9839	-0.039
Mof_C 	C 	0.5597	0.8735	0.9817	0.238
Mof_C 	C 	0.6253	0.3801	0.4202	-0.229
Mof_N 	N 	0.6258	0.3831	0.4468	-0.137
Mof_C 	C 	0.6626	0.4378	0.476	0.022
Mof_C 	C 	0.6874	0.459	0.4704	-0.082
Mof_C 	C 	0.7148	0.4576	0.4889	-0.015
Mof_C 	C 	0.685	0.4674	0.487	0.048
Mof_C 	C 	0.6926	0.4138	0.5185	-0.002
Mof_C 	C 	0.5801	0.3946	0.5062	-0.124
Mof_C 	C 	0.5721	0.4148	0.5313	0.061
Mof_C 	C 	0.5411	0.426	0.5342	0.184
Mof_C 	C 	0.5181	0.4171	0.5121	-0.455
Mof_C 	C 	0.5262	0.3969	0.4871	-0.162
Mof_C 	C 	0.5572	0.3857	0.4842	-0.212
Mof_C 	C 	0.5804	0.3887	0.5025	0.003
Mof_C 	C 	0.5687	0.4095	0.5255	-0.094
Mof_C 	C 	0.5361	0.415	0.5277	-0.056
Mof_C 	C 	0.5153	0.3997	0.5069	0.544
Mof_C 	C 	0.5271	0.379	0.4839	-0.045
Mof_C 	C 	0.5597	0.3735	0.4817	0.224
Mof_C 	C 	0.1253	0.8801	0.4202	-0.229
Mof_N 	N 	0.1258	0.8831	0.4468	-0.137
Mof_C 	C 	0.1626	0.9378	0.476	0.022
Mof_C 	C 	0.1874	0.959	0.4704	-0.087
Mof_C 	C 	0.2148	0.9576	0.4889	-0.012
Mof_C 	C 	0.185	0.9674	0.487	0.054
Mof_C 	C 	0.1926	0.9138	0.5185	-0.002
Mof_C 	C 	0.0801	0.8946	0.5062	-0.124
Mof_C 	C 	0.0721	0.9148	0.5313	0.062
Mof_C 	C 	0.0411	0.926	0.5342	0.186
Mof_C 	C 	0.0181	0.9171	0.5121	-0.457
Mof_C 	C 	0.0262	0.8969	0.4871	-0.163
Mof_C 	C 	0.0572	0.8857	0.4842	-0.214
Mof_C 	C 	0.0804	0.8887	0.5025	0.004
Mof_C 	C 	0.0687	0.9095	0.5255	-0.095
Mof_C 	C 	0.0361	0.915	0.5277	-0.059
Mof_C 	C 	0.0153	0.8997	0.5069	0.547
Mof_C 	C 	0.0271	0.879	0.4839	-0.045
Mof_C 	C 	0.0597	0.8735	0.4817	0.226
Mof_C 	C 	0.1253	0.3801	0.9202	-0.228
Mof_N 	N 	0.1258	0.3831	0.9468	-0.136
Mof_C 	C 	0.1626	0.4378	0.976	0.022
Mof_C 	C 	0.1874	0.459	0.9704	-0.12
Mof_C 	C 	0.2148	0.4576	0.9889	0.019
Mof_C 	C 	0.185	0.4674	0.987	0.08
Mof_C 	C 	0.1926	0.4138	0.0185	-0.008
Mof_C 	C 	0.0801	0.3946	0.0062	-0.126
Mof_C 	C 	0.0721	0.4148	0.0313	0.062
Mof_C 	C 	0.0411	0.426	0.0342	0.198
Mof_C 	C 	0.0181	0.4171	0.0121	-0.487
Mof_C 	C 	0.0262	0.3969	0.9871	-0.179
Mof_C 	C 	0.0572	0.3857	0.9842	-0.221
Mof_C 	C 	0.0804	0.3887	0.0025	0.006
Mof_C 	C 	0.0687	0.4095	0.0255	-0.099
Mof_C 	C 	0.0361	0.415	0.0277	-0.063
Mof_C 	C 	0.0153	0.3997	0.0069	0.583
Mof_C 	C 	0.0271	0.379	0.9839	-0.041
Mof_C 	C 	0.0597	0.3735	0.9817	0.236
Mof_C 	C 	0.6247	0.8699	0.4202	-0.228
Mof_N 	N 	0.6242	0.8669	0.4468	-0.137
Mof_C 	C 	0.5874	0.8122	0.476	0.022
Mof_C 	C 	0.5626	0.791	0.4704	-0.082
Mof_C 	C 	0.5352	0.7924	0.4889	-0.015
Mof_C 	C 	0.565	0.7826	0.487	0.048
Mof_C 	C 	0.5574	0.8362	0.5185	-0.002
Mof_C 	C 	0.6699	0.8554	0.5062	-0.124
Mof_C 	C 	0.6779	0.8352	0.5313	0.061
Mof_C 	C 	0.7089	0.824	0.5342	0.182
Mof_C 	C 	0.7319	0.8329	0.5121	-0.449
Mof_C 	C 	0.7238	0.8531	0.4871	-0.161
Mof_C 	C 	0.6928	0.8643	0.4842	-0.21
Mof_C 	C 	0.6696	0.8613	0.5025	0.002
Mof_C 	C 	0.6813	0.8405	0.5255	-0.094
Mof_C 	C 	0.7139	0.835	0.5277	-0.055
Mof_C 	C 	0.7347	0.8503	0.5069	0.537
Mof_C 	C 	0.7229	0.871	0.4839	-0.044
Mof_C 	C 	0.6903	0.8765	0.4817	0.222
Mof_C 	C 	0.6247	0.3699	0.9202	-0.228
Mof_N 	N 	0.6242	0.3669	0.9468	-0.136
Mof_C 	C 	0.5874	0.3122	0.976	0.022
Mof_C 	C 	0.5626	0.291	0.9704	-0.12
Mof_C 	C 	0.5352	0.2924	0.9889	0.019
Mof_C 	C 	0.565	0.2826	0.987	0.08
Mof_C 	C 	0.5574	0.3362	0.0185	-0.008
Mof_C 	C 	0.6699	0.3554	0.0062	-0.126
Mof_C 	C 	0.6779	0.3352	0.0313	0.061
Mof_C 	C 	0.7089	0.324	0.0342	0.197
Mof_C 	C 	0.7319	0.3329	0.0121	-0.489
Mof_C 	C 	0.7238	0.3531	0.9871	-0.18
Mof_C 	C 	0.6928	0.3643	0.9842	-0.221
Mof_C 	C 	0.6696	0.3613	0.0025	0.006
Mof_C 	C 	0.6813	0.3405	0.0255	-0.098
Mof_C 	C 	0.7139	0.335	0.0277	-0.059
Mof_C 	C 	0.7347	0.3503	0.0069	0.585
Mof_C 	C 	0.7229	0.371	0.9839	-0.04
Mof_C 	C 	0.6903	0.3765	0.9817	0.236
Mof_C 	C 	0.1247	0.8699	0.9202	-0.228
Mof_N 	N 	0.1242	0.8669	0.9468	-0.136
Mof_C 	C 	0.0874	0.8122	0.976	0.022
Mof_C 	C 	0.0626	0.791	0.9704	-0.123
Mof_C 	C 	0.0352	0.7924	0.9889	0.022
Mof_C 	C 	0.065	0.7826	0.987	0.082
Mof_C 	C 	0.0574	0.8362	0.0185	-0.009
Mof_C 	C 	0.1699	0.8554	0.0062	-0.126
Mof_C 	C 	0.1779	0.8352	0.0313	0.061
Mof_C 	C 	0.2089	0.824	0.0342	0.195
Mof_C 	C 	0.2319	0.8329	0.0121	-0.483
Mof_C 	C 	0.2238	0.8531	0.9871	-0.179
Mof_C 	C 	0.1928	0.8643	0.9842	-0.219
Mof_C 	C 	0.1696	0.8613	0.0025	0.005
Mof_C 	C 	0.1813	0.8405	0.0255	-0.097
Mof_C 	C 	0.2139	0.835	0.0277	-0.059
Mof_C 	C 	0.2347	0.8503	0.0069	0.578
Mof_C 	C 	0.2229	0.871	0.9839	-0.039
Mof_C 	C 	0.1903	0.8765	0.9817	0.234
Mof_C 	C 	0.1247	0.3699	0.4202	-0.229
Mof_N 	N 	0.1242	0.3669	0.4468	-0.137
Mof_C 	C 	0.0874	0.3122	0.476	0.022
Mof_C 	C 	0.0626	0.291	0.4704	-0.086
Mof_C 	C 	0.0352	0.2924	0.4889	-0.012
Mof_C 	C 	0.065	0.2826	0.487	0.051
Mof_C 	C 	0.0574	0.3362	0.5185	-0.003
Mof_C 	C 	0.1699	0.3554	0.5062	-0.124
Mof_C 	C 	0.1779	0.3352	0.5313	0.061
Mof_C 	C 	0.2089	0.324	0.5342	0.184
Mof_C 	C 	0.2319	0.3329	0.5121	-0.455
Mof_C 	C 	0.2238	0.3531	0.4871	-0.162
Mof_C 	C 	0.1928	0.3643	0.4842	-0.212
Mof_C 	C 	0.1696	0.3613	0.5025	0.003
Mof_C 	C 	0.1813	0.3405	0.5255	-0.094
Mof_C 	C 	0.2139	0.335	0.5277	-0.055
Mof_C 	C 	0.2347	0.3503	0.5069	0.543
Mof_C 	C 	0.2229	0.371	0.4839	-0.045
Mof_C 	C 	0.1903	0.3765	0.4817	0.224
Mof_C 	C 	0.1253	0.3699	0.8298	-0.229
Mof_N 	N 	0.1258	0.3669	0.8032	-0.137
Mof_C 	C 	0.1626	0.3122	0.774	0.022
Mof_C 	C 	0.1874	0.291	0.7796	-0.082
Mof_C 	C 	0.2148	0.2924	0.7611	-0.015
Mof_C 	C 	0.185	0.2826	0.763	0.048
Mof_C 	C 	0.1926	0.3362	0.7315	-0.002
Mof_C 	C 	0.0801	0.3554	0.7438	-0.124
Mof_C 	C 	0.0721	0.3352	0.7187	0.062
Mof_C 	C 	0.0411	0.324	0.7158	0.185
Mof_C 	C 	0.0181	0.3329	0.7379	-0.452
Mof_C 	C 	0.0262	0.3531	0.7629	-0.16
Mof_C 	C 	0.0572	0.3643	0.7658	-0.212
Mof_C 	C 	0.0804	0.3613	0.7475	0.003
Mof_C 	C 	0.0687	0.3405	0.7245	-0.095
Mof_C 	C 	0.0361	0.335	0.7223	-0.059
Mof_C 	C 	0.0153	0.3503	0.7431	0.541
Mof_C 	C 	0.0271	0.371	0.7661	-0.046
Mof_C 	C 	0.0597	0.3765	0.7683	0.224
Mof_C 	C 	0.1253	0.8699	0.3298	-0.228
Mof_N 	N 	0.1258	0.8669	0.3032	-0.137
Mof_C 	C 	0.1626	0.8122	0.274	0.022
Mof_C 	C 	0.1874	0.791	0.2796	-0.082
Mof_C 	C 	0.2148	0.7924	0.2611	-0.015
Mof_C 	C 	0.185	0.7826	0.263	0.048
Mof_C 	C 	0.1926	0.8362	0.2315	-0.002
Mof_C 	C 	0.0801	0.8554	0.2438	-0.124
Mof_C 	C 	0.0721	0.8352	0.2187	0.062
Mof_C 	C 	0.0411	0.824	0.2158	0.183
Mof_C 	C 	0.0181	0.8329	0.2379	-0.447
Mof_C 	C 	0.0262	0.8531	0.2629	-0.16
Mof_C 	C 	0.0572	0.8643	0.2658	-0.21
Mof_C 	C 	0.0804	0.8613	0.2475	0.003
Mof_C 	C 	0.0687	0.8405	0.2245	-0.095
Mof_C 	C 	0.0361	0.835	0.2223	-0.058
Mof_C 	C 	0.0153	0.8503	0.2431	0.535
Mof_C 	C 	0.0271	0.871	0.2661	-0.044
Mof_C 	C 	0.0597	0.8765	0.2683	0.222
Mof_C 	C 	0.6253	0.3699	0.3298	-0.229
Mof_N 	N 	0.6258	0.3669	0.3032	-0.137
Mof_C 	C 	0.6626	0.3122	0.274	0.022
Mof_C 	C 	0.6874	0.291	0.2796	-0.082
Mof_C 	C 	0.7148	0.2924	0.2611	-0.015
Mof_C 	C 	0.685	0.2826	0.263	0.048
Mof_C 	C 	0.6926	0.3362	0.2315	-0.002
Mof_C 	C 	0.5801	0.3554	0.2438	-0.124
Mof_C 	C 	0.5721	0.3352	0.2187	0.061
Mof_C 	C 	0.5411	0.324	0.2158	0.184
Mof_C 	C 	0.5181	0.3329	0.2379	-0.455
Mof_C 	C 	0.5262	0.3531	0.2629	-0.162
Mof_C 	C 	0.5572	0.3643	0.2658	-0.212
Mof_C 	C 	0.5804	0.3613	0.2475	0.003
Mof_C 	C 	0.5687	0.3405	0.2245	-0.094
Mof_C 	C 	0.5361	0.335	0.2223	-0.055
Mof_C 	C 	0.5153	0.3503	0.2431	0.544
Mof_C 	C 	0.5271	0.371	0.2661	-0.045
Mof_C 	C 	0.5597	0.3765	0.2683	0.224
Mof_C 	C 	0.6253	0.8699	0.8298	-0.228
Mof_N 	N 	0.6258	0.8669	0.8032	-0.137
Mof_C 	C 	0.6626	0.8122	0.774	0.022
Mof_C 	C 	0.6874	0.791	0.7796	-0.082
Mof_C 	C 	0.7148	0.7924	0.7611	-0.015
Mof_C 	C 	0.685	0.7826	0.763	0.048
Mof_C 	C 	0.6926	0.8362	0.7315	-0.002
Mof_C 	C 	0.5801	0.8554	0.7438	-0.124
Mof_C 	C 	0.5721	0.8352	0.7187	0.061
Mof_C 	C 	0.5411	0.824	0.7158	0.182
Mof_C 	C 	0.5181	0.8329	0.7379	-0.449
Mof_C 	C 	0.5262	0.8531	0.7629	-0.161
Mof_C 	C 	0.5572	0.8643	0.7658	-0.21
Mof_C 	C 	0.5804	0.8613	0.7475	0.002
Mof_C 	C 	0.5687	0.8405	0.7245	-0.094
Mof_C 	C 	0.5361	0.835	0.7223	-0.055
Mof_C 	C 	0.5153	0.8503	0.7431	0.537
Mof_C 	C 	0.5271	0.871	0.7661	-0.044
Mof_C 	C 	0.5597	0.8765	0.7683	0.222
Mof_C 	C 	0.1247	0.3801	0.3298	-0.229
Mof_N 	N 	0.1242	0.3831	0.3032	-0.137
Mof_C 	C 	0.0874	0.4378	0.274	0.022
Mof_C 	C 	0.0626	0.459	0.2796	-0.086
Mof_C 	C 	0.0352	0.4576	0.2611	-0.012
Mof_C 	C 	0.065	0.4674	0.263	0.051
Mof_C 	C 	0.0574	0.4138	0.2315	-0.003
Mof_C 	C 	0.1699	0.3946	0.2438	-0.124
Mof_C 	C 	0.1779	0.4148	0.2187	0.061
Mof_C 	C 	0.2089	0.426	0.2158	0.184
Mof_C 	C 	0.2319	0.4171	0.2379	-0.455
Mof_C 	C 	0.2238	0.3969	0.2629	-0.162
Mof_C 	C 	0.1928	0.3857	0.2658	-0.212
Mof_C 	C 	0.1696	0.3887	0.2475	0.003
Mof_C 	C 	0.1813	0.4095	0.2245	-0.094
Mof_C 	C 	0.2139	0.415	0.2223	-0.055
Mof_C 	C 	0.2347	0.3997	0.2431	0.543
Mof_C 	C 	0.2229	0.379	0.2661	-0.045
Mof_C 	C 	0.1903	0.3735	0.2683	0.224
Mof_C 	C 	0.1247	0.8801	0.8298	-0.228
Mof_N 	N 	0.1242	0.8831	0.8032	-0.137
Mof_C 	C 	0.0874	0.9378	0.774	0.022
Mof_C 	C 	0.0626	0.959	0.7796	-0.091
Mof_C 	C 	0.0352	0.9576	0.7611	-0.009
Mof_C 	C 	0.065	0.9674	0.763	0.057
Mof_C 	C 	0.0574	0.9138	0.7315	-0.003
Mof_C 	C 	0.1699	0.8946	0.7438	-0.124
Mof_C 	C 	0.1779	0.9148	0.7187	0.061
Mof_C 	C 	0.2089	0.926	0.7158	0.184
Mof_C 	C 	0.2319	0.9171	0.7379	-0.459
Mof_C 	C 	0.2238	0.8969	0.7629	-0.164
Mof_C 	C 	0.1928	0.8857	0.7658	-0.213
Mof_C 	C 	0.1696	0.8887	0.7475	0.003
Mof_C 	C 	0.1813	0.9095	0.7245	-0.094
Mof_C 	C 	0.2139	0.915	0.7223	-0.055
Mof_C 	C 	0.2347	0.8997	0.7431	0.549
Mof_C 	C 	0.2229	0.879	0.7661	-0.044
Mof_C 	C 	0.1903	0.8735	0.7683	0.226
Mof_C 	C 	0.6247	0.3801	0.8298	-0.229
Mof_N 	N 	0.6242	0.3831	0.8032	-0.137
Mof_C 	C 	0.5874	0.4378	0.774	0.022
Mof_C 	C 	0.5626	0.459	0.7796	-0.082
Mof_C 	C 	0.5352	0.4576	0.7611	-0.015
Mof_C 	C 	0.565	0.4674	0.763	0.048
Mof_C 	C 	0.5574	0.4138	0.7315	-0.002
Mof_C 	C 	0.6699	0.3946	0.7438	-0.124
Mof_C 	C 	0.6779	0.4148	0.7187	0.061
Mof_C 	C 	0.7089	0.426	0.7158	0.184
Mof_C 	C 	0.7319	0.4171	0.7379	-0.455
Mof_C 	C 	0.7238	0.3969	0.7629	-0.162
Mof_C 	C 	0.6928	0.3857	0.7658	-0.212
Mof_C 	C 	0.6696	0.3887	0.7475	0.003
Mof_C 	C 	0.6813	0.4095	0.7245	-0.094
Mof_C 	C 	0.7139	0.415	0.7223	-0.056
Mof_C 	C 	0.7347	0.3997	0.7431	0.543
Mof_C 	C 	0.7229	0.379	0.7661	-0.045
Mof_C 	C 	0.6903	0.3735	0.7683	0.224
Mof_C 	C 	0.6247	0.8801	0.3298	-0.228
Mof_N 	N 	0.6242	0.8831	0.3032	-0.137
Mof_C 	C 	0.5874	0.9378	0.274	0.022
Mof_C 	C 	0.5626	0.959	0.2796	-0.087
Mof_C 	C 	0.5352	0.9576	0.2611	-0.012
Mof_C 	C 	0.565	0.9674	0.263	0.054
Mof_C 	C 	0.5574	0.9138	0.2315	-0.002
Mof_C 	C 	0.6699	0.8946	0.2438	-0.124
Mof_C 	C 	0.6779	0.9148	0.2187	0.061
Mof_C 	C 	0.7089	0.926	0.2158	0.185
Mof_C 	C 	0.7319	0.9171	0.2379	-0.459
Mof_C 	C 	0.7238	0.8969	0.2629	-0.164
Mof_C 	C 	0.6928	0.8857	0.2658	-0.214
Mof_C 	C 	0.6696	0.8887	0.2475	0.003
Mof_C 	C 	0.6813	0.9095	0.2245	-0.094
Mof_C 	C 	0.7139	0.915	0.2223	-0.055
Mof_C 	C 	0.7347	0.8997	0.2431	0.549
Mof_C 	C 	0.7229	0.879	0.2661	-0.045
Mof_C 	C 	0.6903	0.8735	0.2683	0.226
Mof_C 	C 	0.3801	0.3298	0.1247	-0.229
Mof_N 	N 	0.3831	0.3032	0.1242	-0.137
Mof_C 	C 	0.4378	0.274	0.0874	0.022
Mof_C 	C 	0.459	0.2796	0.0626	-0.086
Mof_C 	C 	0.4576	0.2611	0.0352	-0.012
Mof_C 	C 	0.4674	0.263	0.065	0.051
Mof_C 	C 	0.4138	0.2315	0.0574	-0.003
Mof_C 	C 	0.3946	0.2438	0.1699	-0.124
Mof_C 	C 	0.4148	0.2187	0.1779	0.061
Mof_C 	C 	0.426	0.2158	0.2089	0.184
Mof_C 	C 	0.4171	0.2379	0.2319	-0.455
Mof_C 	C 	0.3969	0.2629	0.2238	-0.162
Mof_C 	C 	0.3857	0.2658	0.1928	-0.212
Mof_C 	C 	0.3887	0.2475	0.1696	0.003
Mof_C 	C 	0.4095	0.2245	0.1813	-0.094
Mof_C 	C 	0.415	0.2223	0.2139	-0.055
Mof_C 	C 	0.3997	0.2431	0.2347	0.543
Mof_C 	C 	0.379	0.2661	0.2229	-0.045
Mof_C 	C 	0.3735	0.2683	0.1903	0.224
Mof_C 	C 	0.3801	0.8298	0.6247	-0.229
Mof_N 	N 	0.3831	0.8032	0.6242	-0.137
Mof_C 	C 	0.4378	0.774	0.5874	0.022
Mof_C 	C 	0.459	0.7796	0.5626	-0.082
Mof_C 	C 	0.4576	0.7611	0.5352	-0.015
Mof_C 	C 	0.4674	0.763	0.565	0.048
Mof_C 	C 	0.4138	0.7315	0.5574	-0.002
Mof_C 	C 	0.3946	0.7438	0.6699	-0.124
Mof_C 	C 	0.4148	0.7187	0.6779	0.061
Mof_C 	C 	0.426	0.7158	0.7089	0.184
Mof_C 	C 	0.4171	0.7379	0.7319	-0.455
Mof_C 	C 	0.3969	0.7629	0.7238	-0.162
Mof_C 	C 	0.3857	0.7658	0.6928	-0.212
Mof_C 	C 	0.3887	0.7475	0.6696	0.003
Mof_C 	C 	0.4095	0.7245	0.6813	-0.094
Mof_C 	C 	0.415	0.7223	0.7139	-0.056
Mof_C 	C 	0.3997	0.7431	0.7347	0.543
Mof_C 	C 	0.379	0.7661	0.7229	-0.045
Mof_C 	C 	0.3735	0.7683	0.6903	0.224
Mof_C 	C 	0.8801	0.3298	0.6247	-0.228
Mof_N 	N 	0.8831	0.3032	0.6242	-0.137
Mof_C 	C 	0.9378	0.274	0.5874	0.022
Mof_C 	C 	0.959	0.2796	0.5626	-0.087
Mof_C 	C 	0.9576	0.2611	0.5352	-0.012
Mof_C 	C 	0.9674	0.263	0.565	0.054
Mof_C 	C 	0.9138	0.2315	0.5574	-0.002
Mof_C 	C 	0.8946	0.2438	0.6699	-0.124
Mof_C 	C 	0.9148	0.2187	0.6779	0.061
Mof_C 	C 	0.926	0.2158	0.7089	0.185
Mof_C 	C 	0.9171	0.2379	0.7319	-0.459
Mof_C 	C 	0.8969	0.2629	0.7238	-0.164
Mof_C 	C 	0.8857	0.2658	0.6928	-0.214
Mof_C 	C 	0.8887	0.2475	0.6696	0.003
Mof_C 	C 	0.9095	0.2245	0.6813	-0.094
Mof_C 	C 	0.915	0.2223	0.7139	-0.055
Mof_C 	C 	0.8997	0.2431	0.7347	0.549
Mof_C 	C 	0.879	0.2661	0.7229	-0.045
Mof_C 	C 	0.8735	0.2683	0.6903	0.226
Mof_C 	C 	0.8801	0.8298	0.1247	-0.228
Mof_N 	N 	0.8831	0.8032	0.1242	-0.137
Mof_C 	C 	0.9378	0.774	0.0874	0.022
Mof_C 	C 	0.959	0.7796	0.0626	-0.091
Mof_C 	C 	0.9576	0.7611	0.0352	-0.009
Mof_C 	C 	0.9674	0.763	0.065	0.057
Mof_C 	C 	0.9138	0.7315	0.0574	-0.003
Mof_C 	C 	0.8946	0.7438	0.1699	-0.124
Mof_C 	C 	0.9148	0.7187	0.1779	0.061
Mof_C 	C 	0.926	0.7158	0.2089	0.184
Mof_C 	C 	0.9171	0.7379	0.2319	-0.459
Mof_C 	C 	0.8969	0.7629	0.2238	-0.164
Mof_C 	C 	0.8857	0.7658	0.1928	-0.213
Mof_C 	C 	0.8887	0.7475	0.1696	0.003
Mof_C 	C 	0.9095	0.7245	0.1813	-0.094
Mof_C 	C 	0.915	0.7223	0.2139	-0.055
Mof_C 	C 	0.8997	0.7431	0.2347	0.549
Mof_C 	C 	0.879	0.7661	0.2229	-0.044
Mof_C 	C 	0.8735	0.7683	0.1903	0.226
Mof_C 	C 	0.3699	0.8298	0.1253	-0.229
Mof_N 	N 	0.3669	0.8032	0.1258	-0.137
Mof_C 	C 	0.3122	0.774	0.1626	0.022
Mof_C 	C 	0.291	0.7796	0.1874	-0.082
Mof_C 	C 	0.2924	0.7611	0.2148	-0.015
Mof_C 	C 	0.2826	0.763	0.185	0.048
Mof_C 	C 	0.3362	0.7315	0.1926	-0.002
Mof_C 	C 	0.3554	0.7438	0.0801	-0.124
Mof_C 	C 	0.3352	0.7187	0.0721	0.062
Mof_C 	C 	0.324	0.7158	0.0411	0.185
Mof_C 	C 	0.3329	0.7379	0.0181	-0.452
Mof_C 	C 	0.3531	0.7629	0.0262	-0.16
Mof_C 	C 	0.3643	0.7658	0.0572	-0.212
Mof_C 	C 	0.3613	0.7475	0.0804	0.003
Mof_C 	C 	0.3405	0.7245	0.0687	-0.095
Mof_C 	C 	0.335	0.7223	0.0361	-0.059
Mof_C 	C 	0.3503	0.7431	0.0153	0.541
Mof_C 	C 	0.371	0.7661	0.0271	-0.046
Mof_C 	C 	0.3765	0.7683	0.0597	0.224
Mof_C 	C 	0.3699	0.3298	0.6253	-0.229
Mof_N 	N 	0.3669	0.3032	0.6258	-0.137
Mof_C 	C 	0.3122	0.274	0.6626	0.022
Mof_C 	C 	0.291	0.2796	0.6874	-0.082
Mof_C 	C 	0.2924	0.2611	0.7148	-0.015
Mof_C 	C 	0.2826	0.263	0.685	0.048
Mof_C 	C 	0.3362	0.2315	0.6926	-0.002
Mof_C 	C 	0.3554	0.2438	0.5801	-0.124
Mof_C 	C 	0.3352	0.2187	0.5721	0.061
Mof_C 	C 	0.324	0.2158	0.5411	0.184
Mof_C 	C 	0.3329	0.2379	0.5181	-0.455
Mof_C 	C 	0.3531	0.2629	0.5262	-0.162
Mof_C 	C 	0.3643	0.2658	0.5572	-0.212
Mof_C 	C 	0.3613	0.2475	0.5804	0.003
Mof_C 	C 	0.3405	0.2245	0.5687	-0.094
Mof_C 	C 	0.335	0.2223	0.5361	-0.055
Mof_C 	C 	0.3503	0.2431	0.5153	0.544
Mof_C 	C 	0.371	0.2661	0.5271	-0.045
Mof_C 	C 	0.3765	0.2683	0.5597	0.224
Mof_C 	C 	0.8699	0.8298	0.6253	-0.228
Mof_N 	N 	0.8669	0.8032	0.6258	-0.137
Mof_C 	C 	0.8122	0.774	0.6626	0.022
Mof_C 	C 	0.791	0.7796	0.6874	-0.082
Mof_C 	C 	0.7924	0.7611	0.7148	-0.015
Mof_C 	C 	0.7826	0.763	0.685	0.048
Mof_C 	C 	0.8362	0.7315	0.6926	-0.002
Mof_C 	C 	0.8554	0.7438	0.5801	-0.124
Mof_C 	C 	0.8352	0.7187	0.5721	0.061
Mof_C 	C 	0.824	0.7158	0.5411	0.182
Mof_C 	C 	0.8329	0.7379	0.5181	-0.449
Mof_C 	C 	0.8531	0.7629	0.5262	-0.161
Mof_C 	C 	0.8643	0.7658	0.5572	-0.21
Mof_C 	C 	0.8613	0.7475	0.5804	0.002
Mof_C 	C 	0.8405	0.7245	0.5687	-0.094
Mof_C 	C 	0.835	0.7223	0.5361	-0.055
Mof_C 	C 	0.8503	0.7431	0.5153	0.537
Mof_C 	C 	0.871	0.7661	0.5271	-0.044
Mof_C 	C 	0.8765	0.7683	0.5597	0.222
Mof_C 	C 	0.8699	0.3298	0.1253	-0.228
Mof_N 	N 	0.8669	0.3032	0.1258	-0.137
Mof_C 	C 	0.8122	0.274	0.1626	0.022
Mof_C 	C 	0.791	0.2796	0.1874	-0.082
Mof_C 	C 	0.7924	0.2611	0.2148	-0.015
Mof_C 	C 	0.7826	0.263	0.185	0.048
Mof_C 	C 	0.8362	0.2315	0.1926	-0.002
Mof_C 	C 	0.8554	0.2438	0.0801	-0.124
Mof_C 	C 	0.8352	0.2187	0.0721	0.062
Mof_C 	C 	0.824	0.2158	0.0411	0.183
Mof_C 	C 	0.8329	0.2379	0.0181	-0.447
Mof_C 	C 	0.8531	0.2629	0.0262	-0.16
Mof_C 	C 	0.8643	0.2658	0.0572	-0.21
Mof_C 	C 	0.8613	0.2475	0.0804	0.003
Mof_C 	C 	0.8405	0.2245	0.0687	-0.095
Mof_C 	C 	0.835	0.2223	0.0361	-0.058
Mof_C 	C 	0.8503	0.2431	0.0153	0.535
Mof_C 	C 	0.871	0.2661	0.0271	-0.044
Mof_C 	C 	0.8765	0.2683	0.0597	0.222
Mof_C 	C 	0.8699	0.4202	0.6247	-0.228
Mof_N 	N 	0.8669	0.4468	0.6242	-0.137
Mof_C 	C 	0.8122	0.476	0.5874	0.022
Mof_C 	C 	0.791	0.4704	0.5626	-0.082
Mof_C 	C 	0.7924	0.4889	0.5352	-0.015
Mof_C 	C 	0.7826	0.487	0.565	0.048
Mof_C 	C 	0.8362	0.5185	0.5574	-0.002
Mof_C 	C 	0.8554	0.5062	0.6699	-0.124
Mof_C 	C 	0.8352	0.5313	0.6779	0.061
Mof_C 	C 	0.824	0.5342	0.7089	0.182
Mof_C 	C 	0.8329	0.5121	0.7319	-0.449
Mof_C 	C 	0.8531	0.4871	0.7238	-0.161
Mof_C 	C 	0.8643	0.4842	0.6928	-0.21
Mof_C 	C 	0.8613	0.5025	0.6696	0.002
Mof_C 	C 	0.8405	0.5255	0.6813	-0.094
Mof_C 	C 	0.835	0.5277	0.7139	-0.055
Mof_C 	C 	0.8503	0.5069	0.7347	0.537
Mof_C 	C 	0.871	0.4839	0.7229	-0.044
Mof_C 	C 	0.8765	0.4817	0.6903	0.222
Mof_C 	C 	0.8699	0.9202	0.1247	-0.228
Mof_N 	N 	0.8669	0.9468	0.1242	-0.136
Mof_C 	C 	0.8122	0.976	0.0874	0.022
Mof_C 	C 	0.791	0.9704	0.0626	-0.123
Mof_C 	C 	0.7924	0.9889	0.0352	0.022
Mof_C 	C 	0.7826	0.987	0.065	0.082
Mof_C 	C 	0.8362	0.0185	0.0574	-0.009
Mof_C 	C 	0.8554	0.0062	0.1699	-0.126
Mof_C 	C 	0.8352	0.0313	0.1779	0.061
Mof_C 	C 	0.824	0.0342	0.2089	0.195
Mof_C 	C 	0.8329	0.0121	0.2319	-0.483
Mof_C 	C 	0.8531	0.9871	0.2238	-0.179
Mof_C 	C 	0.8643	0.9842	0.1928	-0.219
Mof_C 	C 	0.8613	0.0025	0.1696	0.005
Mof_C 	C 	0.8405	0.0255	0.1813	-0.097
Mof_C 	C 	0.835	0.0277	0.2139	-0.059
Mof_C 	C 	0.8503	0.0069	0.2347	0.578
Mof_C 	C 	0.871	0.9839	0.2229	-0.039
Mof_C 	C 	0.8765	0.9817	0.1903	0.234
Mof_C 	C 	0.3699	0.4202	0.1247	-0.229
Mof_N 	N 	0.3669	0.4468	0.1242	-0.137
Mof_C 	C 	0.3122	0.476	0.0874	0.022
Mof_C 	C 	0.291	0.4704	0.0626	-0.086
Mof_C 	C 	0.2924	0.4889	0.0352	-0.012
Mof_C 	C 	0.2826	0.487	0.065	0.051
Mof_C 	C 	0.3362	0.5185	0.0574	-0.003
Mof_C 	C 	0.3554	0.5062	0.1699	-0.124
Mof_C 	C 	0.3352	0.5313	0.1779	0.061
Mof_C 	C 	0.324	0.5342	0.2089	0.184
Mof_C 	C 	0.3329	0.5121	0.2319	-0.455
Mof_C 	C 	0.3531	0.4871	0.2238	-0.162
Mof_C 	C 	0.3643	0.4842	0.1928	-0.212
Mof_C 	C 	0.3613	0.5025	0.1696	0.003
Mof_C 	C 	0.3405	0.5255	0.1813	-0.094
Mof_C 	C 	0.335	0.5277	0.2139	-0.055
Mof_C 	C 	0.3503	0.5069	0.2347	0.543
Mof_C 	C 	0.371	0.4839	0.2229	-0.045
Mof_C 	C 	0.3765	0.4817	0.1903	0.224
Mof_C 	C 	0.3699	0.9202	0.6247	-0.228
Mof_N 	N 	0.3669	0.9468	0.6242	-0.136
Mof_C 	C 	0.3122	0.976	0.5874	0.022
Mof_C 	C 	0.291	0.9704	0.5626	-0.12
Mof_C 	C 	0.2924	0.9889	0.5352	0.019
Mof_C 	C 	0.2826	0.987	0.565	0.08
Mof_C 	C 	0.3362	0.0185	0.5574	-0.008
Mof_C 	C 	0.3554	0.0062	0.6699	-0.126
Mof_C 	C 	0.3352	0.0313	0.6779	0.061
Mof_C 	C 	0.324	0.0342	0.7089	0.197
Mof_C 	C 	0.3329	0.0121	0.7319	-0.489
Mof_C 	C 	0.3531	0.9871	0.7238	-0.18
Mof_C 	C 	0.3643	0.9842	0.6928	-0.221
Mof_C 	C 	0.3613	0.0025	0.6696	0.006
Mof_C 	C 	0.3405	0.0255	0.6813	-0.098
Mof_C 	C 	0.335	0.0277	0.7139	-0.059
Mof_C 	C 	0.3503	0.0069	0.7347	0.585
Mof_C 	C 	0.371	0.9839	0.7229	-0.04
Mof_C 	C 	0.3765	0.9817	0.6903	0.236
Mof_C 	C 	0.8801	0.9202	0.6253	-0.228
Mof_N 	N 	0.8831	0.9468	0.6258	-0.136
Mof_C 	C 	0.9378	0.976	0.6626	0.022
Mof_C 	C 	0.959	0.9704	0.6874	-0.125
Mof_C 	C 	0.9576	0.9889	0.7148	0.021
Mof_C 	C 	0.9674	0.987	0.685	0.086
Mof_C 	C 	0.9138	0.0185	0.6926	-0.008
Mof_C 	C 	0.8946	0.0062	0.5801	-0.126
Mof_C 	C 	0.9148	0.0313	0.5721	0.061
Mof_C 	C 	0.926	0.0342	0.5411	0.198
Mof_C 	C 	0.9171	0.0121	0.5181	-0.494
Mof_C 	C 	0.8969	0.9871	0.5262	-0.183
Mof_C 	C 	0.8857	0.9842	0.5572	-0.223
Mof_C 	C 	0.8887	0.0025	0.5804	0.006
Mof_C 	C 	0.9095	0.0255	0.5687	-0.098
Mof_C 	C 	0.915	0.0277	0.5361	-0.059
Mof_C 	C 	0.8997	0.0069	0.5153	0.591
Mof_C 	C 	0.879	0.9839	0.5271	-0.039
Mof_C 	C 	0.8735	0.9817	0.5597	0.238
Mof_C 	C 	0.8801	0.4202	0.1253	-0.229
Mof_N 	N 	0.8831	0.4468	0.1258	-0.137
Mof_C 	C 	0.9378	0.476	0.1626	0.022
Mof_C 	C 	0.959	0.4704	0.1874	-0.087
Mof_C 	C 	0.9576	0.4889	0.2148	-0.012
Mof_C 	C 	0.9674	0.487	0.185	0.054
Mof_C 	C 	0.9138	0.5185	0.1926	-0.002
Mof_C 	C 	0.8946	0.5062	0.0801	-0.124
Mof_C 	C 	0.9148	0.5313	0.0721	0.062
Mof_C 	C 	0.926	0.5342	0.0411	0.186
Mof_C 	C 	0.9171	0.5121	0.0181	-0.457
Mof_C 	C 	0.8969	0.4871	0.0262	-0.163
Mof_C 	C 	0.8857	0.4842	0.0572	-0.214
Mof_C 	C 	0.8887	0.5025	0.0804	0.004
Mof_C 	C 	0.9095	0.5255	0.0687	-0.095
Mof_C 	C 	0.915	0.5277	0.0361	-0.059
Mof_C 	C 	0.8997	0.5069	0.0153	0.547
Mof_C 	C 	0.879	0.4839	0.0271	-0.045
Mof_C 	C 	0.8735	0.4817	0.0597	0.226
Mof_C 	C 	0.3801	0.9202	0.1253	-0.228
Mof_N 	N 	0.3831	0.9468	0.1258	-0.136
Mof_C 	C 	0.4378	0.976	0.1626	0.022
Mof_C 	C 	0.459	0.9704	0.1874	-0.12
Mof_C 	C 	0.4576	0.9889	0.2148	0.019
Mof_C 	C 	0.4674	0.987	0.185	0.08
Mof_C 	C 	0.4138	0.0185	0.1926	-0.008
Mof_C 	C 	0.3946	0.0062	0.0801	-0.126
Mof_C 	C 	0.4148	0.0313	0.0721	0.062
Mof_C 	C 	0.426	0.0342	0.0411	0.198
Mof_C 	C 	0.4171	0.0121	0.0181	-0.487
Mof_C 	C 	0.3969	0.9871	0.0262	-0.179
Mof_C 	C 	0.3857	0.9842	0.0572	-0.221
Mof_C 	C 	0.3887	0.0025	0.0804	0.006
Mof_C 	C 	0.4095	0.0255	0.0687	-0.099
Mof_C 	C 	0.415	0.0277	0.0361	-0.063
Mof_C 	C 	0.3997	0.0069	0.0153	0.583
Mof_C 	C 	0.379	0.9839	0.0271	-0.041
Mof_C 	C 	0.3735	0.9817	0.0597	0.236
Mof_C 	C 	0.3801	0.4202	0.6253	-0.229
Mof_N 	N 	0.3831	0.4468	0.6258	-0.137
Mof_C 	C 	0.4378	0.476	0.6626	0.022
Mof_C 	C 	0.459	0.4704	0.6874	-0.082
Mof_C 	C 	0.4576	0.4889	0.7148	-0.015
Mof_C 	C 	0.4674	0.487	0.685	0.048
Mof_C 	C 	0.4138	0.5185	0.6926	-0.002
Mof_C 	C 	0.3946	0.5062	0.5801	-0.124
Mof_C 	C 	0.4148	0.5313	0.5721	0.061
Mof_C 	C 	0.426	0.5342	0.5411	0.184
Mof_C 	C 	0.4171	0.5121	0.5181	-0.455
Mof_C 	C 	0.3969	0.4871	0.5262	-0.162
Mof_C 	C 	0.3857	0.4842	0.5572	-0.212
Mof_C 	C 	0.3887	0.5025	0.5804	0.003
Mof_C 	C 	0.4095	0.5255	0.5687	-0.094
Mof_C 	C 	0.415	0.5277	0.5361	-0.056
Mof_C 	C 	0.3997	0.5069	0.5153	0.544
Mof_C 	C 	0.379	0.4839	0.5271	-0.045
Mof_C 	C 	0.3735	0.4817	0.5597	0.224
Mof_C 	C 	0.8298	0.1253	0.3699	-0.229
Mof_N 	N 	0.8032	0.1258	0.3669	-0.137
Mof_C 	C 	0.774	0.1626	0.3122	0.022
Mof_C 	C 	0.7796	0.1874	0.291	-0.082
Mof_C 	C 	0.7611	0.2148	0.2924	-0.015
Mof_C 	C 	0.763	0.185	0.2826	0.048
Mof_C 	C 	0.7315	0.1926	0.3362	-0.002
Mof_C 	C 	0.7438	0.0801	0.3554	-0.124
Mof_C 	C 	0.7187	0.0721	0.3352	0.062
Mof_C 	C 	0.7158	0.0411	0.324	0.185
Mof_C 	C 	0.7379	0.0181	0.3329	-0.452
Mof_C 	C 	0.7629	0.0262	0.3531	-0.16
Mof_C 	C 	0.7658	0.0572	0.3643	-0.212
Mof_C 	C 	0.7475	0.0804	0.3613	0.003
Mof_C 	C 	0.7245	0.0687	0.3405	-0.095
Mof_C 	C 	0.7223	0.0361	0.335	-0.059
Mof_C 	C 	0.7431	0.0153	0.3503	0.541
Mof_C 	C 	0.7661	0.0271	0.371	-0.046
Mof_C 	C 	0.7683	0.0597	0.3765	0.224
Mof_C 	C 	0.8298	0.6253	0.8699	-0.228
Mof_N 	N 	0.8032	0.6258	0.8669	-0.137
Mof_C 	C 	0.774	0.6626	0.8122	0.022
Mof_C 	C 	0.7796	0.6874	0.791	-0.082
Mof_C 	C 	0.7611	0.7148	0.7924	-0.015
Mof_C 	C 	0.763	0.685	0.7826	0.048
Mof_C 	C 	0.7315	0.6926	0.8362	-0.002
Mof_C 	C 	0.7438	0.5801	0.8554	-0.124
Mof_C 	C 	0.7187	0.5721	0.8352	0.061
Mof_C 	C 	0.7158	0.5411	0.824	0.182
Mof_C 	C 	0.7379	0.5181	0.8329	-0.449
Mof_C 	C 	0.7629	0.5262	0.8531	-0.161
Mof_C 	C 	0.7658	0.5572	0.8643	-0.21
Mof_C 	C 	0.7475	0.5804	0.8613	0.002
Mof_C 	C 	0.7245	0.5687	0.8405	-0.094
Mof_C 	C 	0.7223	0.5361	0.835	-0.055
Mof_C 	C 	0.7431	0.5153	0.8503	0.537
Mof_C 	C 	0.7661	0.5271	0.871	-0.044
Mof_C 	C 	0.7683	0.5597	0.8765	0.222
Mof_C 	C 	0.3298	0.1253	0.8699	-0.228
Mof_N 	N 	0.3032	0.1258	0.8669	-0.137
Mof_C 	C 	0.274	0.1626	0.8122	0.022
Mof_C 	C 	0.2796	0.1874	0.791	-0.082
Mof_C 	C 	0.2611	0.2148	0.7924	-0.015
Mof_C 	C 	0.263	0.185	0.7826	0.048
Mof_C 	C 	0.2315	0.1926	0.8362	-0.002
Mof_C 	C 	0.2438	0.0801	0.8554	-0.124
Mof_C 	C 	0.2187	0.0721	0.8352	0.062
Mof_C 	C 	0.2158	0.0411	0.824	0.183
Mof_C 	C 	0.2379	0.0181	0.8329	-0.447
Mof_C 	C 	0.2629	0.0262	0.8531	-0.16
Mof_C 	C 	0.2658	0.0572	0.8643	-0.21
Mof_C 	C 	0.2475	0.0804	0.8613	0.003
Mof_C 	C 	0.2245	0.0687	0.8405	-0.095
Mof_C 	C 	0.2223	0.0361	0.835	-0.058
Mof_C 	C 	0.2431	0.0153	0.8503	0.535
Mof_C 	C 	0.2661	0.0271	0.871	-0.044
Mof_C 	C 	0.2683	0.0597	0.8765	0.222
Mof_C 	C 	0.3298	0.6253	0.3699	-0.229
Mof_N 	N 	0.3032	0.6258	0.3669	-0.137
Mof_C 	C 	0.274	0.6626	0.3122	0.022
Mof_C 	C 	0.2796	0.6874	0.291	-0.082
Mof_C 	C 	0.2611	0.7148	0.2924	-0.015
Mof_C 	C 	0.263	0.685	0.2826	0.048
Mof_C 	C 	0.2315	0.6926	0.3362	-0.002
Mof_C 	C 	0.2438	0.5801	0.3554	-0.124
Mof_C 	C 	0.2187	0.5721	0.3352	0.061
Mof_C 	C 	0.2158	0.5411	0.324	0.184
Mof_C 	C 	0.2379	0.5181	0.3329	-0.455
Mof_C 	C 	0.2629	0.5262	0.3531	-0.162
Mof_C 	C 	0.2658	0.5572	0.3643	-0.212
Mof_C 	C 	0.2475	0.5804	0.3613	0.003
Mof_C 	C 	0.2245	0.5687	0.3405	-0.094
Mof_C 	C 	0.2223	0.5361	0.335	-0.055
Mof_C 	C 	0.2431	0.5153	0.3503	0.544
Mof_C 	C 	0.2661	0.5271	0.371	-0.045
Mof_C 	C 	0.2683	0.5597	0.3765	0.224
Mof_C 	C 	0.3298	0.1247	0.3801	-0.229
Mof_N 	N 	0.3032	0.1242	0.3831	-0.137
Mof_C 	C 	0.274	0.0874	0.4378	0.022
Mof_C 	C 	0.2796	0.0626	0.459	-0.086
Mof_C 	C 	0.2611	0.0352	0.4576	-0.012
Mof_C 	C 	0.263	0.065	0.4674	0.051
Mof_C 	C 	0.2315	0.0574	0.4138	-0.003
Mof_C 	C 	0.2438	0.1699	0.3946	-0.124
Mof_C 	C 	0.2187	0.1779	0.4148	0.061
Mof_C 	C 	0.2158	0.2089	0.426	0.184
Mof_C 	C 	0.2379	0.2319	0.4171	-0.455
Mof_C 	C 	0.2629	0.2238	0.3969	-0.162
Mof_C 	C 	0.2658	0.1928	0.3857	-0.212
Mof_C 	C 	0.2475	0.1696	0.3887	0.003
Mof_C 	C 	0.2245	0.1813	0.4095	-0.094
Mof_C 	C 	0.2223	0.2139	0.415	-0.055
Mof_C 	C 	0.2431	0.2347	0.3997	0.543
Mof_C 	C 	0.2661	0.2229	0.379	-0.045
Mof_C 	C 	0.2683	0.1903	0.3735	0.224
Mof_C 	C 	0.3298	0.6247	0.8801	-0.228
Mof_N 	N 	0.3032	0.6242	0.8831	-0.137
Mof_C 	C 	0.274	0.5874	0.9378	0.022
Mof_C 	C 	0.2796	0.5626	0.959	-0.087
Mof_C 	C 	0.2611	0.5352	0.9576	-0.012
Mof_C 	C 	0.263	0.565	0.9674	0.054
Mof_C 	C 	0.2315	0.5574	0.9138	-0.002
Mof_C 	C 	0.2438	0.6699	0.8946	-0.124
Mof_C 	C 	0.2187	0.6779	0.9148	0.061
Mof_C 	C 	0.2158	0.7089	0.926	0.185
Mof_C 	C 	0.2379	0.7319	0.9171	-0.459
Mof_C 	C 	0.2629	0.7238	0.8969	-0.164
Mof_C 	C 	0.2658	0.6928	0.8857	-0.214
Mof_C 	C 	0.2475	0.6696	0.8887	0.003
Mof_C 	C 	0.2245	0.6813	0.9095	-0.094
Mof_C 	C 	0.2223	0.7139	0.915	-0.055
Mof_C 	C 	0.2431	0.7347	0.8997	0.549
Mof_C 	C 	0.2661	0.7229	0.879	-0.045
Mof_C 	C 	0.2683	0.6903	0.8735	0.226
Mof_C 	C 	0.8298	0.1247	0.8801	-0.228
Mof_N 	N 	0.8032	0.1242	0.8831	-0.137
Mof_C 	C 	0.774	0.0874	0.9378	0.022
Mof_C 	C 	0.7796	0.0626	0.959	-0.091
Mof_C 	C 	0.7611	0.0352	0.9576	-0.009
Mof_C 	C 	0.763	0.065	0.9674	0.057
Mof_C 	C 	0.7315	0.0574	0.9138	-0.003
Mof_C 	C 	0.7438	0.1699	0.8946	-0.124
Mof_C 	C 	0.7187	0.1779	0.9148	0.061
Mof_C 	C 	0.7158	0.2089	0.926	0.184
Mof_C 	C 	0.7379	0.2319	0.9171	-0.459
Mof_C 	C 	0.7629	0.2238	0.8969	-0.164
Mof_C 	C 	0.7658	0.1928	0.8857	-0.213
Mof_C 	C 	0.7475	0.1696	0.8887	0.003
Mof_C 	C 	0.7245	0.1813	0.9095	-0.094
Mof_C 	C 	0.7223	0.2139	0.915	-0.055
Mof_C 	C 	0.7431	0.2347	0.8997	0.549
Mof_C 	C 	0.7661	0.2229	0.879	-0.044
Mof_C 	C 	0.7683	0.1903	0.8735	0.226
Mof_C 	C 	0.8298	0.6247	0.3801	-0.229
Mof_N 	N 	0.8032	0.6242	0.3831	-0.137
Mof_C 	C 	0.774	0.5874	0.4378	0.022
Mof_C 	C 	0.7796	0.5626	0.459	-0.082
Mof_C 	C 	0.7611	0.5352	0.4576	-0.015
Mof_C 	C 	0.763	0.565	0.4674	0.048
Mof_C 	C 	0.7315	0.5574	0.4138	-0.002
Mof_C 	C 	0.7438	0.6699	0.3946	-0.124
Mof_C 	C 	0.7187	0.6779	0.4148	0.061
Mof_C 	C 	0.7158	0.7089	0.426	0.184
Mof_C 	C 	0.7379	0.7319	0.4171	-0.455
Mof_C 	C 	0.7629	0.7238	0.3969	-0.162
Mof_C 	C 	0.7658	0.6928	0.3857	-0.212
Mof_C 	C 	0.7475	0.6696	0.3887	0.003
Mof_C 	C 	0.7245	0.6813	0.4095	-0.094
Mof_C 	C 	0.7223	0.7139	0.415	-0.056
Mof_C 	C 	0.7431	0.7347	0.3997	0.543
Mof_C 	C 	0.7661	0.7229	0.379	-0.045
Mof_C 	C 	0.7683	0.6903	0.3735	0.224
Mof_C 	C 	0.9202	0.6253	0.8801	-0.228
Mof_N 	N 	0.9468	0.6258	0.8831	-0.136
Mof_C 	C 	0.976	0.6626	0.9378	0.022
Mof_C 	C 	0.9704	0.6874	0.959	-0.125
Mof_C 	C 	0.9889	0.7148	0.9576	0.021
Mof_C 	C 	0.987	0.685	0.9674	0.086
Mof_C 	C 	0.0185	0.6926	0.9138	-0.008
Mof_C 	C 	0.0062	0.5801	0.8946	-0.126
Mof_C 	C 	0.0313	0.5721	0.9148	0.061
Mof_C 	C 	0.0342	0.5411	0.926	0.198
Mof_C 	C 	0.0121	0.5181	0.9171	-0.494
Mof_C 	C 	0.9871	0.5262	0.8969	-0.183
Mof_C 	C 	0.9842	0.5572	0.8857	-0.223
Mof_C 	C 	0.0025	0.5804	0.8887	0.006
Mof_C 	C 	0.0255	0.5687	0.9095	-0.098
Mof_C 	C 	0.0277	0.5361	0.915	-0.059
Mof_C 	C 	0.0069	0.5153	0.8997	0.591
Mof_C 	C 	0.9839	0.5271	0.879	-0.039
Mof_C 	C 	0.9817	0.5597	0.8735	0.238
Mof_C 	C 	0.9202	0.1253	0.3801	-0.228
Mof_N 	N 	0.9468	0.1258	0.3831	-0.136
Mof_C 	C 	0.976	0.1626	0.4378	0.022
Mof_C 	C 	0.9704	0.1874	0.459	-0.12
Mof_C 	C 	0.9889	0.2148	0.4576	0.019
Mof_C 	C 	0.987	0.185	0.4674	0.08
Mof_C 	C 	0.0185	0.1926	0.4138	-0.008
Mof_C 	C 	0.0062	0.0801	0.3946	-0.126
Mof_C 	C 	0.0313	0.0721	0.4148	0.062
Mof_C 	C 	0.0342	0.0411	0.426	0.198
Mof_C 	C 	0.0121	0.0181	0.4171	-0.487
Mof_C 	C 	0.9871	0.0262	0.3969	-0.179
Mof_C 	C 	0.9842	0.0572	0.3857	-0.221
Mof_C 	C 	0.0025	0.0804	0.3887	0.006
Mof_C 	C 	0.0255	0.0687	0.4095	-0.099
Mof_C 	C 	0.0277	0.0361	0.415	-0.063
Mof_C 	C 	0.0069	0.0153	0.3997	0.583
Mof_C 	C 	0.9839	0.0271	0.379	-0.041
Mof_C 	C 	0.9817	0.0597	0.3735	0.236
Mof_C 	C 	0.4202	0.6253	0.3801	-0.229
Mof_N 	N 	0.4468	0.6258	0.3831	-0.137
Mof_C 	C 	0.476	0.6626	0.4378	0.022
Mof_C 	C 	0.4704	0.6874	0.459	-0.082
Mof_C 	C 	0.4889	0.7148	0.4576	-0.015
Mof_C 	C 	0.487	0.685	0.4674	0.048
Mof_C 	C 	0.5185	0.6926	0.4138	-0.002
Mof_C 	C 	0.5062	0.5801	0.3946	-0.124
Mof_C 	C 	0.5313	0.5721	0.4148	0.061
Mof_C 	C 	0.5342	0.5411	0.426	0.184
Mof_C 	C 	0.5121	0.5181	0.4171	-0.455
Mof_C 	C 	0.4871	0.5262	0.3969	-0.162
Mof_C 	C 	0.4842	0.5572	0.3857	-0.212
Mof_C 	C 	0.5025	0.5804	0.3887	0.003
Mof_C 	C 	0.5255	0.5687	0.4095	-0.094
Mof_C 	C 	0.5277	0.5361	0.415	-0.056
Mof_C 	C 	0.5069	0.5153	0.3997	0.544
Mof_C 	C 	0.4839	0.5271	0.379	-0.045
Mof_C 	C 	0.4817	0.5597	0.3735	0.224
Mof_C 	C 	0.4202	0.1253	0.8801	-0.229
Mof_N 	N 	0.4468	0.1258	0.8831	-0.137
Mof_C 	C 	0.476	0.1626	0.9378	0.022
Mof_C 	C 	0.4704	0.1874	0.959	-0.087
Mof_C 	C 	0.4889	0.2148	0.9576	-0.012
Mof_C 	C 	0.487	0.185	0.9674	0.054
Mof_C 	C 	0.5185	0.1926	0.9138	-0.002
Mof_C 	C 	0.5062	0.0801	0.8946	-0.124
Mof_C 	C 	0.5313	0.0721	0.9148	0.062
Mof_C 	C 	0.5342	0.0411	0.926	0.186
Mof_C 	C 	0.5121	0.0181	0.9171	-0.457
Mof_C 	C 	0.4871	0.0262	0.8969	-0.163
Mof_C 	C 	0.4842	0.0572	0.8857	-0.214
Mof_C 	C 	0.5025	0.0804	0.8887	0.004
Mof_C 	C 	0.5255	0.0687	0.9095	-0.095
Mof_C 	C 	0.5277	0.0361	0.915	-0.059
Mof_C 	C 	0.5069	0.0153	0.8997	0.547
Mof_C 	C 	0.4839	0.0271	0.879	-0.045
Mof_C 	C 	0.4817	0.0597	0.8735	0.226
Mof_C 	C 	0.4202	0.6247	0.8699	-0.228
Mof_N 	N 	0.4468	0.6242	0.8669	-0.137
Mof_C 	C 	0.476	0.5874	0.8122	0.022
Mof_C 	C 	0.4704	0.5626	0.791	-0.082
Mof_C 	C 	0.4889	0.5352	0.7924	-0.015
Mof_C 	C 	0.487	0.565	0.7826	0.048
Mof_C 	C 	0.5185	0.5574	0.8362	-0.002
Mof_C 	C 	0.5062	0.6699	0.8554	-0.124
Mof_C 	C 	0.5313	0.6779	0.8352	0.061
Mof_C 	C 	0.5342	0.7089	0.824	0.182
Mof_C 	C 	0.5121	0.7319	0.8329	-0.449
Mof_C 	C 	0.4871	0.7238	0.8531	-0.161
Mof_C 	C 	0.4842	0.6928	0.8643	-0.21
Mof_C 	C 	0.5025	0.6696	0.8613	0.002
Mof_C 	C 	0.5255	0.6813	0.8405	-0.094
Mof_C 	C 	0.5277	0.7139	0.835	-0.055
Mof_C 	C 	0.5069	0.7347	0.8503	0.537
Mof_C 	C 	0.4839	0.7229	0.871	-0.044
Mof_C 	C 	0.4817	0.6903	0.8765	0.222
Mof_C 	C 	0.4202	0.1247	0.3699	-0.229
Mof_N 	N 	0.4468	0.1242	0.3669	-0.137
Mof_C 	C 	0.476	0.0874	0.3122	0.022
Mof_C 	C 	0.4704	0.0626	0.291	-0.086
Mof_C 	C 	0.4889	0.0352	0.2924	-0.012
Mof_C 	C 	0.487	0.065	0.2826	0.051
Mof_C 	C 	0.5185	0.0574	0.3362	-0.003
Mof_C 	C 	0.5062	0.1699	0.3554	-0.124
Mof_C 	C 	0.5313	0.1779	0.3352	0.061
Mof_C 	C 	0.5342	0.2089	0.324	0.184
Mof_C 	C 	0.5121	0.2319	0.3329	-0.455
Mof_C 	C 	0.4871	0.2238	0.3531	-0.162
Mof_C 	C 	0.4842	0.1928	0.3643	-0.212
Mof_C 	C 	0.5025	0.1696	0.3613	0.003
Mof_C 	C 	0.5255	0.1813	0.3405	-0.094
Mof_C 	C 	0.5277	0.2139	0.335	-0.055
Mof_C 	C 	0.5069	0.2347	0.3503	0.543
Mof_C 	C 	0.4839	0.2229	0.371	-0.045
Mof_C 	C 	0.4817	0.1903	0.3765	0.224
Mof_C 	C 	0.9202	0.6247	0.3699	-0.228
Mof_N 	N 	0.9468	0.6242	0.3669	-0.136
Mof_C 	C 	0.976	0.5874	0.3122	0.022
Mof_C 	C 	0.9704	0.5626	0.291	-0.12
Mof_C 	C 	0.9889	0.5352	0.2924	0.019
Mof_C 	C 	0.987	0.565	0.2826	0.08
Mof_C 	C 	0.0185	0.5574	0.3362	-0.008
Mof_C 	C 	0.0062	0.6699	0.3554	-0.126
Mof_C 	C 	0.0313	0.6779	0.3352	0.061
Mof_C 	C 	0.0342	0.7089	0.324	0.197
Mof_C 	C 	0.0121	0.7319	0.3329	-0.489
Mof_C 	C 	0.9871	0.7238	0.3531	-0.18
Mof_C 	C 	0.9842	0.6928	0.3643	-0.221
Mof_C 	C 	0.0025	0.6696	0.3613	0.006
Mof_C 	C 	0.0255	0.6813	0.3405	-0.098
Mof_C 	C 	0.0277	0.7139	0.335	-0.059
Mof_C 	C 	0.0069	0.7347	0.3503	0.585
Mof_C 	C 	0.9839	0.7229	0.371	-0.04
Mof_C 	C 	0.9817	0.6903	0.3765	0.236
Mof_C 	C 	0.9202	0.1247	0.8699	-0.228
Mof_N 	N 	0.9468	0.1242	0.8669	-0.136
Mof_C 	C 	0.976	0.0874	0.8122	0.022
Mof_C 	C 	0.9704	0.0626	0.791	-0.123
Mof_C 	C 	0.9889	0.0352	0.7924	0.022
Mof_C 	C 	0.987	0.065	0.7826	0.082
Mof_C 	C 	0.0185	0.0574	0.8362	-0.009
Mof_C 	C 	0.0062	0.1699	0.8554	-0.126
Mof_C 	C 	0.0313	0.1779	0.8352	0.061
Mof_C 	C 	0.0342	0.2089	0.824	0.195
Mof_C 	C 	0.0121	0.2319	0.8329	-0.483
Mof_C 	C 	0.9871	0.2238	0.8531	-0.179
Mof_C 	C 	0.9842	0.1928	0.8643	-0.219
Mof_C 	C 	0.0025	0.1696	0.8613	0.005
Mof_C 	C 	0.0255	0.1813	0.8405	-0.097
Mof_C 	C 	0.0277	0.2139	0.835	-0.059
Mof_C 	C 	0.0069	0.2347	0.8503	0.578
Mof_C 	C 	0.9839	0.2229	0.871	-0.039
Mof_C 	C 	0.9817	0.1903	0.8765	0.234
Mof_C 	C 	0.3699	0.1247	0.9202	-0.228
Mof_N 	N 	0.3669	0.1242	0.9468	-0.136
Mof_C 	C 	0.3122	0.0874	0.976	0.022
Mof_C 	C 	0.291	0.0626	0.9704	-0.123
Mof_C 	C 	0.2924	0.0352	0.9889	0.022
Mof_C 	C 	0.2826	0.065	0.987	0.083
Mof_C 	C 	0.3362	0.0574	0.0185	-0.009
Mof_C 	C 	0.3554	0.1699	0.0062	-0.126
Mof_C 	C 	0.3352	0.1779	0.0313	0.061
Mof_C 	C 	0.324	0.2089	0.0342	0.197
Mof_C 	C 	0.3329	0.2319	0.0121	-0.489
Mof_C 	C 	0.3531	0.2238	0.9871	-0.18
Mof_C 	C 	0.3643	0.1928	0.9842	-0.221
Mof_C 	C 	0.3613	0.1696	0.0025	0.006
Mof_C 	C 	0.3405	0.1813	0.0255	-0.098
Mof_C 	C 	0.335	0.2139	0.0277	-0.059
Mof_C 	C 	0.3503	0.2347	0.0069	0.585
Mof_C 	C 	0.371	0.2229	0.9839	-0.04
Mof_C 	C 	0.3765	0.1903	0.9817	0.236
Mof_C 	C 	0.3699	0.6247	0.4202	-0.229
Mof_N 	N 	0.3669	0.6242	0.4468	-0.137
Mof_C 	C 	0.3122	0.5874	0.476	0.022
Mof_C 	C 	0.291	0.5626	0.4704	-0.082
Mof_C 	C 	0.2924	0.5352	0.4889	-0.015
Mof_C 	C 	0.2826	0.565	0.487	0.048
Mof_C 	C 	0.3362	0.5574	0.5185	-0.002
Mof_C 	C 	0.3554	0.6699	0.5062	-0.124
Mof_C 	C 	0.3352	0.6779	0.5313	0.061
Mof_C 	C 	0.324	0.7089	0.5342	0.184
Mof_C 	C 	0.3329	0.7319	0.5121	-0.455
Mof_C 	C 	0.3531	0.7238	0.4871	-0.162
Mof_C 	C 	0.3643	0.6928	0.4842	-0.212
Mof_C 	C 	0.3613	0.6696	0.5025	0.003
Mof_C 	C 	0.3405	0.6813	0.5255	-0.094
Mof_C 	C 	0.335	0.7139	0.5277	-0.056
Mof_C 	C 	0.3503	0.7347	0.5069	0.543
Mof_C 	C 	0.371	0.7229	0.4839	-0.045
Mof_C 	C 	0.3765	0.6903	0.4817	0.224
Mof_C 	C 	0.8699	0.1247	0.4202	-0.228
Mof_N 	N 	0.8669	0.1242	0.4468	-0.137
Mof_C 	C 	0.8122	0.0874	0.476	0.022
Mof_C 	C 	0.791	0.0626	0.4704	-0.086
Mof_C 	C 	0.7924	0.0352	0.4889	-0.012
Mof_C 	C 	0.7826	0.065	0.487	0.051
Mof_C 	C 	0.8362	0.0574	0.5185	-0.003
Mof_C 	C 	0.8554	0.1699	0.5062	-0.124
Mof_C 	C 	0.8352	0.1779	0.5313	0.061
Mof_C 	C 	0.824	0.2089	0.5342	0.181
Mof_C 	C 	0.8329	0.2319	0.5121	-0.449
Mof_C 	C 	0.8531	0.2238	0.4871	-0.161
Mof_C 	C 	0.8643	0.1928	0.4842	-0.21
Mof_C 	C 	0.8613	0.1696	0.5025	0.002
Mof_C 	C 	0.8405	0.1813	0.5255	-0.094
Mof_C 	C 	0.835	0.2139	0.5277	-0.055
Mof_C 	C 	0.8503	0.2347	0.5069	0.537
Mof_C 	C 	0.871	0.2229	0.4839	-0.044
Mof_C 	C 	0.8765	0.1903	0.4817	0.222
Mof_C 	C 	0.8699	0.6247	0.9202	-0.228
Mof_N 	N 	0.8669	0.6242	0.9468	-0.136
Mof_C 	C 	0.8122	0.5874	0.976	0.022
Mof_C 	C 	0.791	0.5626	0.9704	-0.12
Mof_C 	C 	0.7924	0.5352	0.9889	0.019
Mof_C 	C 	0.7826	0.565	0.987	0.08
Mof_C 	C 	0.8362	0.5574	0.0185	-0.008
Mof_C 	C 	0.8554	0.6699	0.0062	-0.126
Mof_C 	C 	0.8352	0.6779	0.0313	0.062
Mof_C 	C 	0.824	0.7089	0.0342	0.195
Mof_C 	C 	0.8329	0.7319	0.0121	-0.484
Mof_C 	C 	0.8531	0.7238	0.9871	-0.179
Mof_C 	C 	0.8643	0.6928	0.9842	-0.219
Mof_C 	C 	0.8613	0.6696	0.0025	0.005
Mof_C 	C 	0.8405	0.6813	0.0255	-0.097
Mof_C 	C 	0.835	0.7139	0.0277	-0.059
Mof_C 	C 	0.8503	0.7347	0.0069	0.579
Mof_C 	C 	0.871	0.7229	0.9839	-0.039
Mof_C 	C 	0.8765	0.6903	0.9817	0.234
Mof_C 	C 	0.3801	0.1253	0.4202	-0.229
Mof_N 	N 	0.3831	0.1258	0.4468	-0.137
Mof_C 	C 	0.4378	0.1626	0.476	0.022
Mof_C 	C 	0.459	0.1874	0.4704	-0.082
Mof_C 	C 	0.4576	0.2148	0.4889	-0.015
Mof_C 	C 	0.4674	0.185	0.487	0.048
Mof_C 	C 	0.4138	0.1926	0.5185	-0.002
Mof_C 	C 	0.3946	0.0801	0.5062	-0.124
Mof_C 	C 	0.4148	0.0721	0.5313	0.062
Mof_C 	C 	0.426	0.0411	0.5342	0.185
Mof_C 	C 	0.4171	0.0181	0.5121	-0.453
Mof_C 	C 	0.3969	0.0262	0.4871	-0.16
Mof_C 	C 	0.3857	0.0572	0.4842	-0.212
Mof_C 	C 	0.3887	0.0804	0.5025	0.003
Mof_C 	C 	0.4095	0.0687	0.5255	-0.095
Mof_C 	C 	0.415	0.0361	0.5277	-0.059
Mof_C 	C 	0.3997	0.0153	0.5069	0.541
Mof_C 	C 	0.379	0.0271	0.4839	-0.046
Mof_C 	C 	0.3735	0.0597	0.4817	0.224
Mof_C 	C 	0.3801	0.6253	0.9202	-0.228
Mof_N 	N 	0.3831	0.6258	0.9468	-0.136
Mof_C 	C 	0.4378	0.6626	0.976	0.022
Mof_C 	C 	0.459	0.6874	0.9704	-0.12
Mof_C 	C 	0.4576	0.7148	0.9889	0.019
Mof_C 	C 	0.4674	0.685	0.987	0.08
Mof_C 	C 	0.4138	0.6926	0.0185	-0.008
Mof_C 	C 	0.3946	0.5801	0.0062	-0.126
Mof_C 	C 	0.4148	0.5721	0.0313	0.061
Mof_C 	C 	0.426	0.5411	0.0342	0.197
Mof_C 	C 	0.4171	0.5181	0.0121	-0.49
Mof_C 	C 	0.3969	0.5262	0.9871	-0.18
Mof_C 	C 	0.3857	0.5572	0.9842	-0.221
Mof_C 	C 	0.3887	0.5804	0.0025	0.006
Mof_C 	C 	0.4095	0.5687	0.0255	-0.098
Mof_C 	C 	0.415	0.5361	0.0277	-0.059
Mof_C 	C 	0.3997	0.5153	0.0069	0.585
Mof_C 	C 	0.379	0.5271	0.9839	-0.04
Mof_C 	C 	0.3735	0.5597	0.9817	0.236
Mof_C 	C 	0.8801	0.1253	0.9202	-0.228
Mof_N 	N 	0.8831	0.1258	0.9468	-0.136
Mof_C 	C 	0.9378	0.1626	0.976	0.022
Mof_C 	C 	0.959	0.1874	0.9704	-0.125
Mof_C 	C 	0.9576	0.2148	0.9889	0.021
Mof_C 	C 	0.9674	0.185	0.987	0.086
Mof_C 	C 	0.9138	0.1926	0.0185	-0.008
Mof_C 	C 	0.8946	0.0801	0.0062	-0.127
Mof_C 	C 	0.9148	0.0721	0.0313	0.062
Mof_C 	C 	0.926	0.0411	0.0342	0.199
Mof_C 	C 	0.9171	0.0181	0.0121	-0.491
Mof_C 	C 	0.8969	0.0262	0.9871	-0.182
Mof_C 	C 	0.8857	0.0572	0.9842	-0.223
Mof_C 	C 	0.8887	0.0804	0.0025	0.006
Mof_C 	C 	0.9095	0.0687	0.0255	-0.099
Mof_C 	C 	0.915	0.0361	0.0277	-0.062
Mof_C 	C 	0.8997	0.0153	0.0069	0.589
Mof_C 	C 	0.879	0.0271	0.9839	-0.04
Mof_C 	C 	0.8735	0.0597	0.9817	0.238
Mof_C 	C 	0.8801	0.6253	0.4202	-0.228
Mof_N 	N 	0.8831	0.6258	0.4468	-0.137
Mof_C 	C 	0.9378	0.6626	0.476	0.022
Mof_C 	C 	0.959	0.6874	0.4704	-0.087
Mof_C 	C 	0.9576	0.7148	0.4889	-0.012
Mof_C 	C 	0.9674	0.685	0.487	0.054
Mof_C 	C 	0.9138	0.6926	0.5185	-0.002
Mof_C 	C 	0.8946	0.5801	0.5062	-0.124
Mof_C 	C 	0.9148	0.5721	0.5313	0.061
Mof_C 	C 	0.926	0.5411	0.5342	0.185
Mof_C 	C 	0.9171	0.5181	0.5121	-0.46
Mof_C 	C 	0.8969	0.5262	0.4871	-0.164
Mof_C 	C 	0.8857	0.5572	0.4842	-0.214
Mof_C 	C 	0.8887	0.5804	0.5025	0.003
Mof_C 	C 	0.9095	0.5687	0.5255	-0.094
Mof_C 	C 	0.915	0.5361	0.5277	-0.055
Mof_C 	C 	0.8997	0.5153	0.5069	0.55
Mof_C 	C 	0.879	0.5271	0.4839	-0.045
Mof_C 	C 	0.8735	0.5597	0.4817	0.226
Mof_C 	C 	0.8801	0.6247	0.8298	-0.228
Mof_N 	N 	0.8831	0.6242	0.8032	-0.137
Mof_C 	C 	0.9378	0.5874	0.774	0.022
Mof_C 	C 	0.959	0.5626	0.7796	-0.087
Mof_C 	C 	0.9576	0.5352	0.7611	-0.012
Mof_C 	C 	0.9674	0.565	0.763	0.054
Mof_C 	C 	0.9138	0.5574	0.7315	-0.002
Mof_C 	C 	0.8946	0.6699	0.7438	-0.124
Mof_C 	C 	0.9148	0.6779	0.7187	0.061
Mof_C 	C 	0.926	0.7089	0.7158	0.185
Mof_C 	C 	0.9171	0.7319	0.7379	-0.459
Mof_C 	C 	0.8969	0.7238	0.7629	-0.164
Mof_C 	C 	0.8857	0.6928	0.7658	-0.214
Mof_C 	C 	0.8887	0.6696	0.7475	0.003
Mof_C 	C 	0.9095	0.6813	0.7245	-0.094
Mof_C 	C 	0.915	0.7139	0.7223	-0.055
Mof_C 	C 	0.8997	0.7347	0.7431	0.549
Mof_C 	C 	0.879	0.7229	0.7661	-0.044
Mof_C 	C 	0.8735	0.6903	0.7683	0.226
Mof_C 	C 	0.8801	0.1247	0.3298	-0.229
Mof_N 	N 	0.8831	0.1242	0.3032	-0.137
Mof_C 	C 	0.9378	0.0874	0.274	0.022
Mof_C 	C 	0.959	0.0626	0.2796	-0.091
Mof_C 	C 	0.9576	0.0352	0.2611	-0.009
Mof_C 	C 	0.9674	0.065	0.263	0.057
Mof_C 	C 	0.9138	0.0574	0.2315	-0.003
Mof_C 	C 	0.8946	0.1699	0.2438	-0.124
Mof_C 	C 	0.9148	0.1779	0.2187	0.061
Mof_C 	C 	0.926	0.2089	0.2158	0.184
Mof_C 	C 	0.9171	0.2319	0.2379	-0.459
Mof_C 	C 	0.8969	0.2238	0.2629	-0.164
Mof_C 	C 	0.8857	0.1928	0.2658	-0.213
Mof_C 	C 	0.8887	0.1696	0.2475	0.003
Mof_C 	C 	0.9095	0.1813	0.2245	-0.094
Mof_C 	C 	0.915	0.2139	0.2223	-0.055
Mof_C 	C 	0.8997	0.2347	0.2431	0.549
Mof_C 	C 	0.879	0.2229	0.2661	-0.044
Mof_C 	C 	0.8735	0.1903	0.2683	0.226
Mof_C 	C 	0.3801	0.6247	0.3298	-0.229
Mof_N 	N 	0.3831	0.6242	0.3032	-0.137
Mof_C 	C 	0.4378	0.5874	0.274	0.022
Mof_C 	C 	0.459	0.5626	0.2796	-0.082
Mof_C 	C 	0.4576	0.5352	0.2611	-0.015
Mof_C 	C 	0.4674	0.565	0.263	0.048
Mof_C 	C 	0.4138	0.5574	0.2315	-0.002
Mof_C 	C 	0.3946	0.6699	0.2438	-0.124
Mof_C 	C 	0.4148	0.6779	0.2187	0.061
Mof_C 	C 	0.426	0.7089	0.2158	0.184
Mof_C 	C 	0.4171	0.7319	0.2379	-0.455
Mof_C 	C 	0.3969	0.7238	0.2629	-0.162
Mof_C 	C 	0.3857	0.6928	0.2658	-0.212
Mof_C 	C 	0.3887	0.6696	0.2475	0.003
Mof_C 	C 	0.4095	0.6813	0.2245	-0.094
Mof_C 	C 	0.415	0.7139	0.2223	-0.055
Mof_C 	C 	0.3997	0.7347	0.2431	0.543
Mof_C 	C 	0.379	0.7229	0.2661	-0.045
Mof_C 	C 	0.3735	0.6903	0.2683	0.224
Mof_C 	C 	0.3801	0.1247	0.8298	-0.229
Mof_N 	N 	0.3831	0.1242	0.8032	-0.137
Mof_C 	C 	0.4378	0.0874	0.774	0.022
Mof_C 	C 	0.459	0.0626	0.7796	-0.086
Mof_C 	C 	0.4576	0.0352	0.7611	-0.012
Mof_C 	C 	0.4674	0.065	0.763	0.051
Mof_C 	C 	0.4138	0.0574	0.7315	-0.003
Mof_C 	C 	0.3946	0.1699	0.7438	-0.124
Mof_C 	C 	0.4148	0.1779	0.7187	0.061
Mof_C 	C 	0.426	0.2089	0.7158	0.183
Mof_C 	C 	0.4171	0.2319	0.7379	-0.454
Mof_C 	C 	0.3969	0.2238	0.7629	-0.162
Mof_C 	C 	0.3857	0.1928	0.7658	-0.212
Mof_C 	C 	0.3887	0.1696	0.7475	0.003
Mof_C 	C 	0.4095	0.1813	0.7245	-0.094
Mof_C 	C 	0.415	0.2139	0.7223	-0.055
Mof_C 	C 	0.3997	0.2347	0.7431	0.543
Mof_C 	C 	0.379	0.2229	0.7661	-0.045
Mof_C 	C 	0.3735	0.1903	0.7683	0.224
Mof_C 	C 	0.8699	0.6253	0.3298	-0.228
Mof_N 	N 	0.8669	0.6258	0.3032	-0.137
Mof_C 	C 	0.8122	0.6626	0.274	0.022
Mof_C 	C 	0.791	0.6874	0.2796	-0.082
Mof_C 	C 	0.7924	0.7148	0.2611	-0.015
Mof_C 	C 	0.7826	0.685	0.263	0.048
Mof_C 	C 	0.8362	0.6926	0.2315	-0.002
Mof_C 	C 	0.8554	0.5801	0.2438	-0.124
Mof_C 	C 	0.8352	0.5721	0.2187	0.061
Mof_C 	C 	0.824	0.5411	0.2158	0.182
Mof_C 	C 	0.8329	0.5181	0.2379	-0.45
Mof_C 	C 	0.8531	0.5262	0.2629	-0.161
Mof_C 	C 	0.8643	0.5572	0.2658	-0.21
Mof_C 	C 	0.8613	0.5804	0.2475	0.002
Mof_C 	C 	0.8405	0.5687	0.2245	-0.094
Mof_C 	C 	0.835	0.5361	0.2223	-0.055
Mof_C 	C 	0.8503	0.5153	0.2431	0.538
Mof_C 	C 	0.871	0.5271	0.2661	-0.044
Mof_C 	C 	0.8765	0.5597	0.2683	0.222
Mof_C 	C 	0.8699	0.1253	0.8298	-0.228
Mof_N 	N 	0.8669	0.1258	0.8032	-0.137
Mof_C 	C 	0.8122	0.1626	0.774	0.022
Mof_C 	C 	0.791	0.1874	0.7796	-0.082
Mof_C 	C 	0.7924	0.2148	0.7611	-0.015
Mof_C 	C 	0.7826	0.185	0.763	0.048
Mof_C 	C 	0.8362	0.1926	0.7315	-0.002
Mof_C 	C 	0.8554	0.0801	0.7438	-0.124
Mof_C 	C 	0.8352	0.0721	0.7187	0.062
Mof_C 	C 	0.824	0.0411	0.7158	0.183
Mof_C 	C 	0.8329	0.0181	0.7379	-0.447
Mof_C 	C 	0.8531	0.0262	0.7629	-0.16
Mof_C 	C 	0.8643	0.0572	0.7658	-0.21
Mof_C 	C 	0.8613	0.0804	0.7475	0.003
Mof_C 	C 	0.8405	0.0687	0.7245	-0.095
Mof_C 	C 	0.835	0.0361	0.7223	-0.059
Mof_C 	C 	0.8503	0.0153	0.7431	0.535
Mof_C 	C 	0.871	0.0271	0.7661	-0.044
Mof_C 	C 	0.8765	0.0597	0.7683	0.222
Mof_C 	C 	0.3699	0.6253	0.8298	-0.229
Mof_N 	N 	0.3669	0.6258	0.8032	-0.137
Mof_C 	C 	0.3122	0.6626	0.774	0.022
Mof_C 	C 	0.291	0.6874	0.7796	-0.082
Mof_C 	C 	0.2924	0.7148	0.7611	-0.015
Mof_C 	C 	0.2826	0.685	0.763	0.048
Mof_C 	C 	0.3362	0.6926	0.7315	-0.002
Mof_C 	C 	0.3554	0.5801	0.7438	-0.124
Mof_C 	C 	0.3352	0.5721	0.7187	0.061
Mof_C 	C 	0.324	0.5411	0.7158	0.184
Mof_C 	C 	0.3329	0.5181	0.7379	-0.455
Mof_C 	C 	0.3531	0.5262	0.7629	-0.162
Mof_C 	C 	0.3643	0.5572	0.7658	-0.212
Mof_C 	C 	0.3613	0.5804	0.7475	0.003
Mof_C 	C 	0.3405	0.5687	0.7245	-0.094
Mof_C 	C 	0.335	0.5361	0.7223	-0.056
Mof_C 	C 	0.3503	0.5153	0.7431	0.544
Mof_C 	C 	0.371	0.5271	0.7661	-0.045
Mof_C 	C 	0.3765	0.5597	0.7683	0.224
Mof_C 	C 	0.3699	0.1253	0.3298	-0.229
Mof_N 	N 	0.3669	0.1258	0.3032	-0.137
Mof_C 	C 	0.3122	0.1626	0.274	0.022
Mof_C 	C 	0.291	0.1874	0.2796	-0.082
Mof_C 	C 	0.2924	0.2148	0.2611	-0.015
Mof_C 	C 	0.2826	0.185	0.263	0.048
Mof_C 	C 	0.3362	0.1926	0.2315	-0.002
Mof_C 	C 	0.3554	0.0801	0.2438	-0.124
Mof_C 	C 	0.3352	0.0721	0.2187	0.062
Mof_C 	C 	0.324	0.0411	0.2158	0.185
Mof_C 	C 	0.3329	0.0181	0.2379	-0.453
Mof_C 	C 	0.3531	0.0262	0.2629	-0.161
Mof_C 	C 	0.3643	0.0572	0.2658	-0.212
Mof_C 	C 	0.3613	0.0804	0.2475	0.003
Mof_C 	C 	0.3405	0.0687	0.2245	-0.095
Mof_C 	C 	0.335	0.0361	0.2223	-0.059
Mof_C 	C 	0.3503	0.0153	0.2431	0.541
Mof_C 	C 	0.371	0.0271	0.2661	-0.046
Mof_C 	C 	0.3765	0.0597	0.2683	0.224
Mof_C 	C 	0.9202	0.3699	0.1247	-0.228
Mof_N 	N 	0.9468	0.3669	0.1242	-0.136
Mof_C 	C 	0.976	0.3122	0.0874	0.022
Mof_C 	C 	0.9704	0.291	0.0626	-0.123
Mof_C 	C 	0.9889	0.2924	0.0352	0.022
Mof_C 	C 	0.987	0.2826	0.065	0.083
Mof_C 	C 	0.0185	0.3362	0.0574	-0.009
Mof_C 	C 	0.0062	0.3554	0.1699	-0.126
Mof_C 	C 	0.0313	0.3352	0.1779	0.061
Mof_C 	C 	0.0342	0.324	0.2089	0.197
Mof_C 	C 	0.0121	0.3329	0.2319	-0.489
Mof_C 	C 	0.9871	0.3531	0.2238	-0.18
Mof_C 	C 	0.9842	0.3643	0.1928	-0.221
Mof_C 	C 	0.0025	0.3613	0.1696	0.006
Mof_C 	C 	0.0255	0.3405	0.1813	-0.098
Mof_C 	C 	0.0277	0.335	0.2139	-0.059
Mof_C 	C 	0.0069	0.3503	0.2347	0.585
Mof_C 	C 	0.9839	0.371	0.2229	-0.04
Mof_C 	C 	0.9817	0.3765	0.1903	0.236
Mof_C 	C 	0.9202	0.8699	0.6247	-0.228
Mof_N 	N 	0.9468	0.8669	0.6242	-0.136
Mof_C 	C 	0.976	0.8122	0.5874	0.022
Mof_C 	C 	0.9704	0.791	0.5626	-0.12
Mof_C 	C 	0.9889	0.7924	0.5352	0.019
Mof_C 	C 	0.987	0.7826	0.565	0.08
Mof_C 	C 	0.0185	0.8362	0.5574	-0.008
Mof_C 	C 	0.0062	0.8554	0.6699	-0.126
Mof_C 	C 	0.0313	0.8352	0.6779	0.062
Mof_C 	C 	0.0342	0.824	0.7089	0.195
Mof_C 	C 	0.0121	0.8329	0.7319	-0.484
Mof_C 	C 	0.9871	0.8531	0.7238	-0.179
Mof_C 	C 	0.9842	0.8643	0.6928	-0.219
Mof_C 	C 	0.0025	0.8613	0.6696	0.005
Mof_C 	C 	0.0255	0.8405	0.6813	-0.097
Mof_C 	C 	0.0277	0.835	0.7139	-0.059
Mof_C 	C 	0.0069	0.8503	0.7347	0.579
Mof_C 	C 	0.9839	0.871	0.7229	-0.039
Mof_C 	C 	0.9817	0.8765	0.6903	0.234
Mof_C 	C 	0.4202	0.3699	0.6247	-0.229
Mof_N 	N 	0.4468	0.3669	0.6242	-0.137
Mof_C 	C 	0.476	0.3122	0.5874	0.022
Mof_C 	C 	0.4704	0.291	0.5626	-0.082
Mof_C 	C 	0.4889	0.2924	0.5352	-0.015
Mof_C 	C 	0.487	0.2826	0.565	0.048
Mof_C 	C 	0.5185	0.3362	0.5574	-0.002
Mof_C 	C 	0.5062	0.3554	0.6699	-0.124
Mof_C 	C 	0.5313	0.3352	0.6779	0.061
Mof_C 	C 	0.5342	0.324	0.7089	0.184
Mof_C 	C 	0.5121	0.3329	0.7319	-0.455
Mof_C 	C 	0.4871	0.3531	0.7238	-0.162
Mof_C 	C 	0.4842	0.3643	0.6928	-0.212
Mof_C 	C 	0.5025	0.3613	0.6696	0.003
Mof_C 	C 	0.5255	0.3405	0.6813	-0.094
Mof_C 	C 	0.5277	0.335	0.7139	-0.056
Mof_C 	C 	0.5069	0.3503	0.7347	0.543
Mof_C 	C 	0.4839	0.371	0.7229	-0.045
Mof_C 	C 	0.4817	0.3765	0.6903	0.224
Mof_C 	C 	0.4202	0.8699	0.1247	-0.228
Mof_N 	N 	0.4468	0.8669	0.1242	-0.137
Mof_C 	C 	0.476	0.8122	0.0874	0.022
Mof_C 	C 	0.4704	0.791	0.0626	-0.086
Mof_C 	C 	0.4889	0.7924	0.0352	-0.012
Mof_C 	C 	0.487	0.7826	0.065	0.051
Mof_C 	C 	0.5185	0.8362	0.0574	-0.003
Mof_C 	C 	0.5062	0.8554	0.1699	-0.124
Mof_C 	C 	0.5313	0.8352	0.1779	0.061
Mof_C 	C 	0.5342	0.824	0.2089	0.181
Mof_C 	C 	0.5121	0.8329	0.2319	-0.449
Mof_C 	C 	0.4871	0.8531	0.2238	-0.161
Mof_C 	C 	0.4842	0.8643	0.1928	-0.21
Mof_C 	C 	0.5025	0.8613	0.1696	0.002
Mof_C 	C 	0.5255	0.8405	0.1813	-0.094
Mof_C 	C 	0.5277	0.835	0.2139	-0.055
Mof_C 	C 	0.5069	0.8503	0.2347	0.537
Mof_C 	C 	0.4839	0.871	0.2229	-0.044
Mof_C 	C 	0.4817	0.8765	0.1903	0.222
Mof_C 	C 	0.4202	0.3801	0.1253	-0.229
Mof_N 	N 	0.4468	0.3831	0.1258	-0.137
Mof_C 	C 	0.476	0.4378	0.1626	0.022
Mof_C 	C 	0.4704	0.459	0.1874	-0.082
Mof_C 	C 	0.4889	0.4576	0.2148	-0.015
Mof_C 	C 	0.487	0.4674	0.185	0.048
Mof_C 	C 	0.5185	0.4138	0.1926	-0.002
Mof_C 	C 	0.5062	0.3946	0.0801	-0.124
Mof_C 	C 	0.5313	0.4148	0.0721	0.062
Mof_C 	C 	0.5342	0.426	0.0411	0.185
Mof_C 	C 	0.5121	0.4171	0.0181	-0.453
Mof_C 	C 	0.4871	0.3969	0.0262	-0.16
Mof_C 	C 	0.4842	0.3857	0.0572	-0.212
Mof_C 	C 	0.5025	0.3887	0.0804	0.003
Mof_C 	C 	0.5255	0.4095	0.0687	-0.095
Mof_C 	C 	0.5277	0.415	0.0361	-0.059
Mof_C 	C 	0.5069	0.3997	0.0153	0.541
Mof_C 	C 	0.4839	0.379	0.0271	-0.046
Mof_C 	C 	0.4817	0.3735	0.0597	0.224
Mof_C 	C 	0.4202	0.8801	0.6253	-0.228
Mof_N 	N 	0.4468	0.8831	0.6258	-0.137
Mof_C 	C 	0.476	0.9378	0.6626	0.022
Mof_C 	C 	0.4704	0.959	0.6874	-0.087
Mof_C 	C 	0.4889	0.9576	0.7148	-0.012
Mof_C 	C 	0.487	0.9674	0.685	0.054
Mof_C 	C 	0.5185	0.9138	0.6926	-0.002
Mof_C 	C 	0.5062	0.8946	0.5801	-0.124
Mof_C 	C 	0.5313	0.9148	0.5721	0.061
Mof_C 	C 	0.5342	0.926	0.5411	0.185
Mof_C 	C 	0.5121	0.9171	0.5181	-0.46
Mof_C 	C 	0.4871	0.8969	0.5262	-0.164
Mof_C 	C 	0.4842	0.8857	0.5572	-0.214
Mof_C 	C 	0.5025	0.8887	0.5804	0.003
Mof_C 	C 	0.5255	0.9095	0.5687	-0.094
Mof_C 	C 	0.5277	0.915	0.5361	-0.055
Mof_C 	C 	0.5069	0.8997	0.5153	0.55
Mof_C 	C 	0.4839	0.879	0.5271	-0.045
Mof_C 	C 	0.4817	0.8735	0.5597	0.226
Mof_C 	C 	0.9202	0.3801	0.6253	-0.228
Mof_N 	N 	0.9468	0.3831	0.6258	-0.136
Mof_C 	C 	0.976	0.4378	0.6626	0.022
Mof_C 	C 	0.9704	0.459	0.6874	-0.12
Mof_C 	C 	0.9889	0.4576	0.7148	0.019
Mof_C 	C 	0.987	0.4674	0.685	0.08
Mof_C 	C 	0.0185	0.4138	0.6926	-0.008
Mof_C 	C 	0.0062	0.3946	0.5801	-0.126
Mof_C 	C 	0.0313	0.4148	0.5721	0.061
Mof_C 	C 	0.0342	0.426	0.5411	0.197
Mof_C 	C 	0.0121	0.4171	0.5181	-0.49
Mof_C 	C 	0.9871	0.3969	0.5262	-0.18
Mof_C 	C 	0.9842	0.3857	0.5572	-0.221
Mof_C 	C 	0.0025	0.3887	0.5804	0.006
Mof_C 	C 	0.0255	0.4095	0.5687	-0.098
Mof_C 	C 	0.0277	0.415	0.5361	-0.059
Mof_C 	C 	0.0069	0.3997	0.5153	0.585
Mof_C 	C 	0.9839	0.379	0.5271	-0.04
Mof_C 	C 	0.9817	0.3735	0.5597	0.236
Mof_C 	C 	0.9202	0.8801	0.1253	-0.228
Mof_N 	N 	0.9468	0.8831	0.1258	-0.136
Mof_C 	C 	0.976	0.9378	0.1626	0.022
Mof_C 	C 	0.9704	0.959	0.1874	-0.125
Mof_C 	C 	0.9889	0.9576	0.2148	0.021
Mof_C 	C 	0.987	0.9674	0.185	0.086
Mof_C 	C 	0.0185	0.9138	0.1926	-0.008
Mof_C 	C 	0.0062	0.8946	0.0801	-0.127
Mof_C 	C 	0.0313	0.9148	0.0721	0.062
Mof_C 	C 	0.0342	0.926	0.0411	0.199
Mof_C 	C 	0.0121	0.9171	0.0181	-0.491
Mof_C 	C 	0.9871	0.8969	0.0262	-0.182
Mof_C 	C 	0.9842	0.8857	0.0572	-0.223
Mof_C 	C 	0.0025	0.8887	0.0804	0.006
Mof_C 	C 	0.0255	0.9095	0.0687	-0.099
Mof_C 	C 	0.0277	0.915	0.0361	-0.062
Mof_C 	C 	0.0069	0.8997	0.0153	0.589
Mof_C 	C 	0.9839	0.879	0.0271	-0.04
Mof_C 	C 	0.9817	0.8735	0.0597	0.238
Mof_C 	C 	0.8298	0.8801	0.6247	-0.228
Mof_N 	N 	0.8032	0.8831	0.6242	-0.137
Mof_C 	C 	0.774	0.9378	0.5874	0.022
Mof_C 	C 	0.7796	0.959	0.5626	-0.087
Mof_C 	C 	0.7611	0.9576	0.5352	-0.012
Mof_C 	C 	0.763	0.9674	0.565	0.054
Mof_C 	C 	0.7315	0.9138	0.5574	-0.002
Mof_C 	C 	0.7438	0.8946	0.6699	-0.124
Mof_C 	C 	0.7187	0.9148	0.6779	0.061
Mof_C 	C 	0.7158	0.926	0.7089	0.185
Mof_C 	C 	0.7379	0.9171	0.7319	-0.459
Mof_C 	C 	0.7629	0.8969	0.7238	-0.164
Mof_C 	C 	0.7658	0.8857	0.6928	-0.214
Mof_C 	C 	0.7475	0.8887	0.6696	0.003
Mof_C 	C 	0.7245	0.9095	0.6813	-0.094
Mof_C 	C 	0.7223	0.915	0.7139	-0.055
Mof_C 	C 	0.7431	0.8997	0.7347	0.549
Mof_C 	C 	0.7661	0.879	0.7229	-0.044
Mof_C 	C 	0.7683	0.8735	0.6903	0.226
Mof_C 	C 	0.8298	0.3801	0.1247	-0.229
Mof_N 	N 	0.8032	0.3831	0.1242	-0.137
Mof_C 	C 	0.774	0.4378	0.0874	0.022
Mof_C 	C 	0.7796	0.459	0.0626	-0.086
Mof_C 	C 	0.7611	0.4576	0.0352	-0.012
Mof_C 	C 	0.763	0.4674	0.065	0.051
Mof_C 	C 	0.7315	0.4138	0.0574	-0.003
Mof_C 	C 	0.7438	0.3946	0.1699	-0.124
Mof_C 	C 	0.7187	0.4148	0.1779	0.061
Mof_C 	C 	0.7158	0.426	0.2089	0.183
Mof_C 	C 	0.7379	0.4171	0.2319	-0.454
Mof_C 	C 	0.7629	0.3969	0.2238	-0.162
Mof_C 	C 	0.7658	0.3857	0.1928	-0.212
Mof_C 	C 	0.7475	0.3887	0.1696	0.003
Mof_C 	C 	0.7245	0.4095	0.1813	-0.094
Mof_C 	C 	0.7223	0.415	0.2139	-0.055
Mof_C 	C 	0.7431	0.3997	0.2347	0.543
Mof_C 	C 	0.7661	0.379	0.2229	-0.045
Mof_C 	C 	0.7683	0.3735	0.1903	0.224
Mof_C 	C 	0.3298	0.8801	0.1247	-0.229
Mof_N 	N 	0.3032	0.8831	0.1242	-0.137
Mof_C 	C 	0.274	0.9378	0.0874	0.022
Mof_C 	C 	0.2796	0.959	0.0626	-0.091
Mof_C 	C 	0.2611	0.9576	0.0352	-0.009
Mof_C 	C 	0.263	0.9674	0.065	0.057
Mof_C 	C 	0.2315	0.9138	0.0574	-0.003
Mof_C 	C 	0.2438	0.8946	0.1699	-0.124
Mof_C 	C 	0.2187	0.9148	0.1779	0.061
Mof_C 	C 	0.2158	0.926	0.2089	0.184
Mof_C 	C 	0.2379	0.9171	0.2319	-0.459
Mof_C 	C 	0.2629	0.8969	0.2238	-0.164
Mof_C 	C 	0.2658	0.8857	0.1928	-0.213
Mof_C 	C 	0.2475	0.8887	0.1696	0.003
Mof_C 	C 	0.2245	0.9095	0.1813	-0.094
Mof_C 	C 	0.2223	0.915	0.2139	-0.055
Mof_C 	C 	0.2431	0.8997	0.2347	0.549
Mof_C 	C 	0.2661	0.879	0.2229	-0.044
Mof_C 	C 	0.2683	0.8735	0.1903	0.226
Mof_C 	C 	0.3298	0.3801	0.6247	-0.229
Mof_N 	N 	0.3032	0.3831	0.6242	-0.137
Mof_C 	C 	0.274	0.4378	0.5874	0.022
Mof_C 	C 	0.2796	0.459	0.5626	-0.082
Mof_C 	C 	0.2611	0.4576	0.5352	-0.015
Mof_C 	C 	0.263	0.4674	0.565	0.048
Mof_C 	C 	0.2315	0.4138	0.5574	-0.002
Mof_C 	C 	0.2438	0.3946	0.6699	-0.124
Mof_C 	C 	0.2187	0.4148	0.6779	0.061
Mof_C 	C 	0.2158	0.426	0.7089	0.184
Mof_C 	C 	0.2379	0.4171	0.7319	-0.455
Mof_C 	C 	0.2629	0.3969	0.7238	-0.162
Mof_C 	C 	0.2658	0.3857	0.6928	-0.212
Mof_C 	C 	0.2475	0.3887	0.6696	0.003
Mof_C 	C 	0.2245	0.4095	0.6813	-0.094
Mof_C 	C 	0.2223	0.415	0.7139	-0.055
Mof_C 	C 	0.2431	0.3997	0.7347	0.543
Mof_C 	C 	0.2661	0.379	0.7229	-0.045
Mof_C 	C 	0.2683	0.3735	0.6903	0.224
Mof_C 	C 	0.3298	0.8699	0.6253	-0.228
Mof_N 	N 	0.3032	0.8669	0.6258	-0.137
Mof_C 	C 	0.274	0.8122	0.6626	0.022
Mof_C 	C 	0.2796	0.791	0.6874	-0.082
Mof_C 	C 	0.2611	0.7924	0.7148	-0.015
Mof_C 	C 	0.263	0.7826	0.685	0.048
Mof_C 	C 	0.2315	0.8362	0.6926	-0.002
Mof_C 	C 	0.2438	0.8554	0.5801	-0.124
Mof_C 	C 	0.2187	0.8352	0.5721	0.061
Mof_C 	C 	0.2158	0.824	0.5411	0.182
Mof_C 	C 	0.2379	0.8329	0.5181	-0.45
Mof_C 	C 	0.2629	0.8531	0.5262	-0.161
Mof_C 	C 	0.2658	0.8643	0.5572	-0.21
Mof_C 	C 	0.2475	0.8613	0.5804	0.002
Mof_C 	C 	0.2245	0.8405	0.5687	-0.094
Mof_C 	C 	0.2223	0.835	0.5361	-0.055
Mof_C 	C 	0.2431	0.8503	0.5153	0.538
Mof_C 	C 	0.2661	0.871	0.5271	-0.044
Mof_C 	C 	0.2683	0.8765	0.5597	0.222
Mof_C 	C 	0.3298	0.3699	0.1253	-0.229
Mof_N 	N 	0.3032	0.3669	0.1258	-0.137
Mof_C 	C 	0.274	0.3122	0.1626	0.022
Mof_C 	C 	0.2796	0.291	0.1874	-0.082
Mof_C 	C 	0.2611	0.2924	0.2148	-0.015
Mof_C 	C 	0.263	0.2826	0.185	0.048
Mof_C 	C 	0.2315	0.3362	0.1926	-0.002
Mof_C 	C 	0.2438	0.3554	0.0801	-0.124
Mof_C 	C 	0.2187	0.3352	0.0721	0.062
Mof_C 	C 	0.2158	0.324	0.0411	0.185
Mof_C 	C 	0.2379	0.3329	0.0181	-0.453
Mof_C 	C 	0.2629	0.3531	0.0262	-0.161
Mof_C 	C 	0.2658	0.3643	0.0572	-0.212
Mof_C 	C 	0.2475	0.3613	0.0804	0.003
Mof_C 	C 	0.2245	0.3405	0.0687	-0.095
Mof_C 	C 	0.2223	0.335	0.0361	-0.059
Mof_C 	C 	0.2431	0.3503	0.0153	0.541
Mof_C 	C 	0.2661	0.371	0.0271	-0.046
Mof_C 	C 	0.2683	0.3765	0.0597	0.224
Mof_C 	C 	0.8298	0.8699	0.1253	-0.228
Mof_N 	N 	0.8032	0.8669	0.1258	-0.137
Mof_C 	C 	0.774	0.8122	0.1626	0.022
Mof_C 	C 	0.7796	0.791	0.1874	-0.082
Mof_C 	C 	0.7611	0.7924	0.2148	-0.015
Mof_C 	C 	0.763	0.7826	0.185	0.048
Mof_C 	C 	0.7315	0.8362	0.1926	-0.002
Mof_C 	C 	0.7438	0.8554	0.0801	-0.124
Mof_C 	C 	0.7187	0.8352	0.0721	0.062
Mof_C 	C 	0.7158	0.824	0.0411	0.183
Mof_C 	C 	0.7379	0.8329	0.0181	-0.447
Mof_C 	C 	0.7629	0.8531	0.0262	-0.16
Mof_C 	C 	0.7658	0.8643	0.0572	-0.21
Mof_C 	C 	0.7475	0.8613	0.0804	0.003
Mof_C 	C 	0.7245	0.8405	0.0687	-0.095
Mof_C 	C 	0.7223	0.835	0.0361	-0.059
Mof_C 	C 	0.7431	0.8503	0.0153	0.535
Mof_C 	C 	0.7661	0.871	0.0271	-0.044
Mof_C 	C 	0.7683	0.8765	0.0597	0.222
Mof_C 	C 	0.8298	0.3699	0.6253	-0.229
Mof_N 	N 	0.8032	0.3669	0.6258	-0.137
Mof_C 	C 	0.774	0.3122	0.6626	0.022
Mof_C 	C 	0.7796	0.291	0.6874	-0.082
Mof_C 	C 	0.7611	0.2924	0.7148	-0.015
Mof_C 	C 	0.763	0.2826	0.685	0.048
Mof_C 	C 	0.7315	0.3362	0.6926	-0.002
Mof_C 	C 	0.7438	0.3554	0.5801	-0.124
Mof_C 	C 	0.7187	0.3352	0.5721	0.061
Mof_C 	C 	0.7158	0.324	0.5411	0.184
Mof_C 	C 	0.7379	0.3329	0.5181	-0.455
Mof_C 	C 	0.7629	0.3531	0.5262	-0.162
Mof_C 	C 	0.7658	0.3643	0.5572	-0.212
Mof_C 	C 	0.7475	0.3613	0.5804	0.003
Mof_C 	C 	0.7245	0.3405	0.5687	-0.094
Mof_C 	C 	0.7223	0.335	0.5361	-0.056
Mof_C 	C 	0.7431	0.3503	0.5153	0.544
Mof_C 	C 	0.7661	0.371	0.5271	-0.045
Mof_C 	C 	0.7683	0.3765	0.5597	0.224
Mof_C 	C 	0.1247	0.9202	0.3699	-0.228
Mof_N 	N 	0.1242	0.9468	0.3669	-0.136
Mof_C 	C 	0.0874	0.976	0.3122	0.022
Mof_C 	C 	0.0626	0.9704	0.291	-0.123
Mof_C 	C 	0.0352	0.9889	0.2924	0.022
Mof_C 	C 	0.065	0.987	0.2826	0.083
Mof_C 	C 	0.0574	0.0185	0.3362	-0.009
Mof_C 	C 	0.1699	0.0062	0.3554	-0.126
Mof_C 	C 	0.1779	0.0313	0.3352	0.061
Mof_C 	C 	0.2089	0.0342	0.324	0.197
Mof_C 	C 	0.2319	0.0121	0.3329	-0.489
Mof_C 	C 	0.2238	0.9871	0.3531	-0.18
Mof_C 	C 	0.1928	0.9842	0.3643	-0.221
Mof_C 	C 	0.1696	0.0025	0.3613	0.006
Mof_C 	C 	0.1813	0.0255	0.3405	-0.098
Mof_C 	C 	0.2139	0.0277	0.335	-0.059
Mof_C 	C 	0.2347	0.0069	0.3503	0.585
Mof_C 	C 	0.2229	0.9839	0.371	-0.04
Mof_C 	C 	0.1903	0.9817	0.3765	0.236
Mof_C 	C 	0.1247	0.4202	0.8699	-0.228
Mof_N 	N 	0.1242	0.4468	0.8669	-0.137
Mof_C 	C 	0.0874	0.476	0.8122	0.022
Mof_C 	C 	0.0626	0.4704	0.791	-0.086
Mof_C 	C 	0.0352	0.4889	0.7924	-0.012
Mof_C 	C 	0.065	0.487	0.7826	0.051
Mof_C 	C 	0.0574	0.5185	0.8362	-0.003
Mof_C 	C 	0.1699	0.5062	0.8554	-0.124
Mof_C 	C 	0.1779	0.5313	0.8352	0.061
Mof_C 	C 	0.2089	0.5342	0.824	0.181
Mof_C 	C 	0.2319	0.5121	0.8329	-0.449
Mof_C 	C 	0.2238	0.4871	0.8531	-0.161
Mof_C 	C 	0.1928	0.4842	0.8643	-0.21
Mof_C 	C 	0.1696	0.5025	0.8613	0.002
Mof_C 	C 	0.1813	0.5255	0.8405	-0.094
Mof_C 	C 	0.2139	0.5277	0.835	-0.055
Mof_C 	C 	0.2347	0.5069	0.8503	0.537
Mof_C 	C 	0.2229	0.4839	0.871	-0.044
Mof_C 	C 	0.1903	0.4817	0.8765	0.222
Mof_C 	C 	0.6247	0.9202	0.8699	-0.228
Mof_N 	N 	0.6242	0.9468	0.8669	-0.136
Mof_C 	C 	0.5874	0.976	0.8122	0.022
Mof_C 	C 	0.5626	0.9704	0.791	-0.12
Mof_C 	C 	0.5352	0.9889	0.7924	0.019
Mof_C 	C 	0.565	0.987	0.7826	0.08
Mof_C 	C 	0.5574	0.0185	0.8362	-0.008
Mof_C 	C 	0.6699	0.0062	0.8554	-0.126
Mof_C 	C 	0.6779	0.0313	0.8352	0.062
Mof_C 	C 	0.7089	0.0342	0.824	0.195
Mof_C 	C 	0.7319	0.0121	0.8329	-0.484
Mof_C 	C 	0.7238	0.9871	0.8531	-0.179
Mof_C 	C 	0.6928	0.9842	0.8643	-0.219
Mof_C 	C 	0.6696	0.0025	0.8613	0.005
Mof_C 	C 	0.6813	0.0255	0.8405	-0.097
Mof_C 	C 	0.7139	0.0277	0.835	-0.059
Mof_C 	C 	0.7347	0.0069	0.8503	0.579
Mof_C 	C 	0.7229	0.9839	0.871	-0.039
Mof_C 	C 	0.6903	0.9817	0.8765	0.234
Mof_C 	C 	0.6247	0.4202	0.3699	-0.229
Mof_N 	N 	0.6242	0.4468	0.3669	-0.137
Mof_C 	C 	0.5874	0.476	0.3122	0.022
Mof_C 	C 	0.5626	0.4704	0.291	-0.082
Mof_C 	C 	0.5352	0.4889	0.2924	-0.015
Mof_C 	C 	0.565	0.487	0.2826	0.048
Mof_C 	C 	0.5574	0.5185	0.3362	-0.002
Mof_C 	C 	0.6699	0.5062	0.3554	-0.124
Mof_C 	C 	0.6779	0.5313	0.3352	0.061
Mof_C 	C 	0.7089	0.5342	0.324	0.184
Mof_C 	C 	0.7319	0.5121	0.3329	-0.455
Mof_C 	C 	0.7238	0.4871	0.3531	-0.162
Mof_C 	C 	0.6928	0.4842	0.3643	-0.212
Mof_C 	C 	0.6696	0.5025	0.3613	0.003
Mof_C 	C 	0.6813	0.5255	0.3405	-0.094
Mof_C 	C 	0.7139	0.5277	0.335	-0.056
Mof_C 	C 	0.7347	0.5069	0.3503	0.543
Mof_C 	C 	0.7229	0.4839	0.371	-0.045
Mof_C 	C 	0.6903	0.4817	0.3765	0.224
Mof_C 	C 	0.1253	0.4202	0.3801	-0.229
Mof_N 	N 	0.1258	0.4468	0.3831	-0.137
Mof_C 	C 	0.1626	0.476	0.4378	0.022
Mof_C 	C 	0.1874	0.4704	0.459	-0.082
Mof_C 	C 	0.2148	0.4889	0.4576	-0.015
Mof_C 	C 	0.185	0.487	0.4674	0.048
Mof_C 	C 	0.1926	0.5185	0.4138	-0.002
Mof_C 	C 	0.0801	0.5062	0.3946	-0.124
Mof_C 	C 	0.0721	0.5313	0.4148	0.062
Mof_C 	C 	0.0411	0.5342	0.426	0.185
Mof_C 	C 	0.0181	0.5121	0.4171	-0.453
Mof_C 	C 	0.0262	0.4871	0.3969	-0.16
Mof_C 	C 	0.0572	0.4842	0.3857	-0.212
Mof_C 	C 	0.0804	0.5025	0.3887	0.003
Mof_C 	C 	0.0687	0.5255	0.4095	-0.095
Mof_C 	C 	0.0361	0.5277	0.415	-0.059
Mof_C 	C 	0.0153	0.5069	0.3997	0.541
Mof_C 	C 	0.0271	0.4839	0.379	-0.046
Mof_C 	C 	0.0597	0.4817	0.3735	0.224
Mof_C 	C 	0.1253	0.9202	0.8801	-0.228
Mof_N 	N 	0.1258	0.9468	0.8831	-0.136
Mof_C 	C 	0.1626	0.976	0.9378	0.022
Mof_C 	C 	0.1874	0.9704	0.959	-0.125
Mof_C 	C 	0.2148	0.9889	0.9576	0.021
Mof_C 	C 	0.185	0.987	0.9674	0.086
Mof_C 	C 	0.1926	0.0185	0.9138	-0.008
Mof_C 	C 	0.0801	0.0062	0.8946	-0.127
Mof_C 	C 	0.0721	0.0313	0.9148	0.062
Mof_C 	C 	0.0411	0.0342	0.926	0.199
Mof_C 	C 	0.0181	0.0121	0.9171	-0.491
Mof_C 	C 	0.0262	0.9871	0.8969	-0.182
Mof_C 	C 	0.0572	0.9842	0.8857	-0.223
Mof_C 	C 	0.0804	0.0025	0.8887	0.006
Mof_C 	C 	0.0687	0.0255	0.9095	-0.099
Mof_C 	C 	0.0361	0.0277	0.915	-0.062
Mof_C 	C 	0.0153	0.0069	0.8997	0.589
Mof_C 	C 	0.0271	0.9839	0.879	-0.04
Mof_C 	C 	0.0597	0.9817	0.8735	0.238
Mof_C 	C 	0.6253	0.4202	0.8801	-0.228
Mof_N 	N 	0.6258	0.4468	0.8831	-0.137
Mof_C 	C 	0.6626	0.476	0.9378	0.022
Mof_C 	C 	0.6874	0.4704	0.959	-0.087
Mof_C 	C 	0.7148	0.4889	0.9576	-0.012
Mof_C 	C 	0.685	0.487	0.9674	0.054
Mof_C 	C 	0.6926	0.5185	0.9138	-0.002
Mof_C 	C 	0.5801	0.5062	0.8946	-0.124
Mof_C 	C 	0.5721	0.5313	0.9148	0.061
Mof_C 	C 	0.5411	0.5342	0.926	0.185
Mof_C 	C 	0.5181	0.5121	0.9171	-0.46
Mof_C 	C 	0.5262	0.4871	0.8969	-0.164
Mof_C 	C 	0.5572	0.4842	0.8857	-0.214
Mof_C 	C 	0.5804	0.5025	0.8887	0.003
Mof_C 	C 	0.5687	0.5255	0.9095	-0.094
Mof_C 	C 	0.5361	0.5277	0.915	-0.055
Mof_C 	C 	0.5153	0.5069	0.8997	0.55
Mof_C 	C 	0.5271	0.4839	0.879	-0.045
Mof_C 	C 	0.5597	0.4817	0.8735	0.226
Mof_C 	C 	0.6253	0.9202	0.3801	-0.228
Mof_N 	N 	0.6258	0.9468	0.3831	-0.136
Mof_C 	C 	0.6626	0.976	0.4378	0.022
Mof_C 	C 	0.6874	0.9704	0.459	-0.12
Mof_C 	C 	0.7148	0.9889	0.4576	0.019
Mof_C 	C 	0.685	0.987	0.4674	0.08
Mof_C 	C 	0.6926	0.0185	0.4138	-0.008
Mof_C 	C 	0.5801	0.0062	0.3946	-0.126
Mof_C 	C 	0.5721	0.0313	0.4148	0.061
Mof_C 	C 	0.5411	0.0342	0.426	0.197
Mof_C 	C 	0.5181	0.0121	0.4171	-0.49
Mof_C 	C 	0.5262	0.9871	0.3969	-0.18
Mof_C 	C 	0.5572	0.9842	0.3857	-0.221
Mof_C 	C 	0.5804	0.0025	0.3887	0.006
Mof_C 	C 	0.5687	0.0255	0.4095	-0.098
Mof_C 	C 	0.5361	0.0277	0.415	-0.059
Mof_C 	C 	0.5153	0.0069	0.3997	0.585
Mof_C 	C 	0.5271	0.9839	0.379	-0.04
Mof_C 	C 	0.5597	0.9817	0.3735	0.236
Mof_C 	C 	0.6247	0.8298	0.8801	-0.228
Mof_N 	N 	0.6242	0.8032	0.8831	-0.137
Mof_C 	C 	0.5874	0.774	0.9378	0.022
Mof_C 	C 	0.5626	0.7796	0.959	-0.087
Mof_C 	C 	0.5352	0.7611	0.9576	-0.012
Mof_C 	C 	0.565	0.763	0.9674	0.054
Mof_C 	C 	0.5574	0.7315	0.9138	-0.002
Mof_C 	C 	0.6699	0.7438	0.8946	-0.124
Mof_C 	C 	0.6779	0.7187	0.9148	0.061
Mof_C 	C 	0.7089	0.7158	0.926	0.185
Mof_C 	C 	0.7319	0.7379	0.9171	-0.459
Mof_C 	C 	0.7238	0.7629	0.8969	-0.164
Mof_C 	C 	0.6928	0.7658	0.8857	-0.214
Mof_C 	C 	0.6696	0.7475	0.8887	0.003
Mof_C 	C 	0.6813	0.7245	0.9095	-0.094
Mof_C 	C 	0.7139	0.7223	0.915	-0.055
Mof_C 	C 	0.7347	0.7431	0.8997	0.549
Mof_C 	C 	0.7229	0.7661	0.879	-0.044
Mof_C 	C 	0.6903	0.7683	0.8735	0.226
Mof_C 	C 	0.6247	0.3298	0.3801	-0.229
Mof_N 	N 	0.6242	0.3032	0.3831	-0.137
Mof_C 	C 	0.5874	0.274	0.4378	0.022
Mof_C 	C 	0.5626	0.2796	0.459	-0.082
Mof_C 	C 	0.5352	0.2611	0.4576	-0.015
Mof_C 	C 	0.565	0.263	0.4674	0.048
Mof_C 	C 	0.5574	0.2315	0.4138	-0.002
Mof_C 	C 	0.6699	0.2438	0.3946	-0.124
Mof_C 	C 	0.6779	0.2187	0.4148	0.061
Mof_C 	C 	0.7089	0.2158	0.426	0.184
Mof_C 	C 	0.7319	0.2379	0.4171	-0.455
Mof_C 	C 	0.7238	0.2629	0.3969	-0.162
Mof_C 	C 	0.6928	0.2658	0.3857	-0.212
Mof_C 	C 	0.6696	0.2475	0.3887	0.003
Mof_C 	C 	0.6813	0.2245	0.4095	-0.094
Mof_C 	C 	0.7139	0.2223	0.415	-0.055
Mof_C 	C 	0.7347	0.2431	0.3997	0.543
Mof_C 	C 	0.7229	0.2661	0.379	-0.045
Mof_C 	C 	0.6903	0.2683	0.3735	0.224
Mof_C 	C 	0.1247	0.8298	0.3801	-0.229
Mof_N 	N 	0.1242	0.8032	0.3831	-0.137
Mof_C 	C 	0.0874	0.774	0.4378	0.022
Mof_C 	C 	0.0626	0.7796	0.459	-0.086
Mof_C 	C 	0.0352	0.7611	0.4576	-0.012
Mof_C 	C 	0.065	0.763	0.4674	0.051
Mof_C 	C 	0.0574	0.7315	0.4138	-0.003
Mof_C 	C 	0.1699	0.7438	0.3946	-0.124
Mof_C 	C 	0.1779	0.7187	0.4148	0.061
Mof_C 	C 	0.2089	0.7158	0.426	0.183
Mof_C 	C 	0.2319	0.7379	0.4171	-0.454
Mof_C 	C 	0.2238	0.7629	0.3969	-0.162
Mof_C 	C 	0.1928	0.7658	0.3857	-0.212
Mof_C 	C 	0.1696	0.7475	0.3887	0.003
Mof_C 	C 	0.1813	0.7245	0.4095	-0.094
Mof_C 	C 	0.2139	0.7223	0.415	-0.055
Mof_C 	C 	0.2347	0.7431	0.3997	0.543
Mof_C 	C 	0.2229	0.7661	0.379	-0.045
Mof_C 	C 	0.1903	0.7683	0.3735	0.224
Mof_C 	C 	0.1247	0.3298	0.8801	-0.229
Mof_N 	N 	0.1242	0.3032	0.8831	-0.137
Mof_C 	C 	0.0874	0.274	0.9378	0.022
Mof_C 	C 	0.0626	0.2796	0.959	-0.091
Mof_C 	C 	0.0352	0.2611	0.9576	-0.009
Mof_C 	C 	0.065	0.263	0.9674	0.057
Mof_C 	C 	0.0574	0.2315	0.9138	-0.003
Mof_C 	C 	0.1699	0.2438	0.8946	-0.124
Mof_C 	C 	0.1779	0.2187	0.9148	0.061
Mof_C 	C 	0.2089	0.2158	0.926	0.184
Mof_C 	C 	0.2319	0.2379	0.9171	-0.459
Mof_C 	C 	0.2238	0.2629	0.8969	-0.164
Mof_C 	C 	0.1928	0.2658	0.8857	-0.213
Mof_C 	C 	0.1696	0.2475	0.8887	0.003
Mof_C 	C 	0.1813	0.2245	0.9095	-0.094
Mof_C 	C 	0.2139	0.2223	0.915	-0.055
Mof_C 	C 	0.2347	0.2431	0.8997	0.549
Mof_C 	C 	0.2229	0.2661	0.879	-0.044
Mof_C 	C 	0.1903	0.2683	0.8735	0.226
Mof_C 	C 	0.6253	0.3298	0.8699	-0.228
Mof_N 	N 	0.6258	0.3032	0.8669	-0.137
Mof_C 	C 	0.6626	0.274	0.8122	0.022
Mof_C 	C 	0.6874	0.2796	0.791	-0.082
Mof_C 	C 	0.7148	0.2611	0.7924	-0.015
Mof_C 	C 	0.685	0.263	0.7826	0.048
Mof_C 	C 	0.6926	0.2315	0.8362	-0.002
Mof_C 	C 	0.5801	0.2438	0.8554	-0.124
Mof_C 	C 	0.5721	0.2187	0.8352	0.061
Mof_C 	C 	0.5411	0.2158	0.824	0.182
Mof_C 	C 	0.5181	0.2379	0.8329	-0.45
Mof_C 	C 	0.5262	0.2629	0.8531	-0.161
Mof_C 	C 	0.5572	0.2658	0.8643	-0.21
Mof_C 	C 	0.5804	0.2475	0.8613	0.002
Mof_C 	C 	0.5687	0.2245	0.8405	-0.094
Mof_C 	C 	0.5361	0.2223	0.835	-0.055
Mof_C 	C 	0.5153	0.2431	0.8503	0.538
Mof_C 	C 	0.5271	0.2661	0.871	-0.044
Mof_C 	C 	0.5597	0.2683	0.8765	0.222
Mof_C 	C 	0.6253	0.8298	0.3699	-0.229
Mof_N 	N 	0.6258	0.8032	0.3669	-0.137
Mof_C 	C 	0.6626	0.774	0.3122	0.022
Mof_C 	C 	0.6874	0.7796	0.291	-0.082
Mof_C 	C 	0.7148	0.7611	0.2924	-0.015
Mof_C 	C 	0.685	0.763	0.2826	0.048
Mof_C 	C 	0.6926	0.7315	0.3362	-0.002
Mof_C 	C 	0.5801	0.7438	0.3554	-0.124
Mof_C 	C 	0.5721	0.7187	0.3352	0.061
Mof_C 	C 	0.5411	0.7158	0.324	0.184
Mof_C 	C 	0.5181	0.7379	0.3329	-0.455
Mof_C 	C 	0.5262	0.7629	0.3531	-0.162
Mof_C 	C 	0.5572	0.7658	0.3643	-0.212
Mof_C 	C 	0.5804	0.7475	0.3613	0.003
Mof_C 	C 	0.5687	0.7245	0.3405	-0.094
Mof_C 	C 	0.5361	0.7223	0.335	-0.056
Mof_C 	C 	0.5153	0.7431	0.3503	0.544
Mof_C 	C 	0.5271	0.7661	0.371	-0.045
Mof_C 	C 	0.5597	0.7683	0.3765	0.224
Mof_C 	C 	0.1253	0.3298	0.3699	-0.229
Mof_N 	N 	0.1258	0.3032	0.3669	-0.137
Mof_C 	C 	0.1626	0.274	0.3122	0.022
Mof_C 	C 	0.1874	0.2796	0.291	-0.082
Mof_C 	C 	0.2148	0.2611	0.2924	-0.015
Mof_C 	C 	0.185	0.263	0.2826	0.048
Mof_C 	C 	0.1926	0.2315	0.3362	-0.002
Mof_C 	C 	0.0801	0.2438	0.3554	-0.124
Mof_C 	C 	0.0721	0.2187	0.3352	0.062
Mof_C 	C 	0.0411	0.2158	0.324	0.185
Mof_C 	C 	0.0181	0.2379	0.3329	-0.453
Mof_C 	C 	0.0262	0.2629	0.3531	-0.161
Mof_C 	C 	0.0572	0.2658	0.3643	-0.212
Mof_C 	C 	0.0804	0.2475	0.3613	0.003
Mof_C 	C 	0.0687	0.2245	0.3405	-0.095
Mof_C 	C 	0.0361	0.2223	0.335	-0.059
Mof_C 	C 	0.0153	0.2431	0.3503	0.541
Mof_C 	C 	0.0271	0.2661	0.371	-0.046
Mof_C 	C 	0.0597	0.2683	0.3765	0.224
Mof_C 	C 	0.1253	0.8298	0.8699	-0.228
Mof_N 	N 	0.1258	0.8032	0.8669	-0.137
Mof_C 	C 	0.1626	0.774	0.8122	0.022
Mof_C 	C 	0.1874	0.7796	0.791	-0.082
Mof_C 	C 	0.2148	0.7611	0.7924	-0.015
Mof_C 	C 	0.185	0.763	0.7826	0.048
Mof_C 	C 	0.1926	0.7315	0.8362	-0.002
Mof_C 	C 	0.0801	0.7438	0.8554	-0.124
Mof_C 	C 	0.0721	0.7187	0.8352	0.062
Mof_C 	C 	0.0411	0.7158	0.824	0.183
Mof_C 	C 	0.0181	0.7379	0.8329	-0.447
Mof_C 	C 	0.0262	0.7629	0.8531	-0.16
Mof_C 	C 	0.0572	0.7658	0.8643	-0.21
Mof_C 	C 	0.0804	0.7475	0.8613	0.003
Mof_C 	C 	0.0687	0.7245	0.8405	-0.095
Mof_C 	C 	0.0361	0.7223	0.835	-0.059
Mof_C 	C 	0.0153	0.7431	0.8503	0.535
Mof_C 	C 	0.0271	0.7661	0.871	-0.044
Mof_C 	C 	0.0597	0.7683	0.8765	0.222
Mof_C 	C 	0.3747	0.1199	0.0798	-0.23
Mof_N 	N 	0.3742	0.1169	0.0532	-0.137
Mof_C 	C 	0.3374	0.0622	0.024	0.022
Mof_C 	C 	0.3126	0.041	0.0296	-0.04
Mof_C 	C 	0.2852	0.0424	0.0111	-0.051
Mof_C 	C 	0.315	0.0326	0.013	0.011
Mof_C 	C 	0.3074	0.0862	0.9815	0.006
Mof_C 	C 	0.4199	0.1054	0.9938	-0.121
Mof_C 	C 	0.4279	0.0852	0.9687	0.06
Mof_C 	C 	0.4589	0.074	0.9658	0.168
Mof_C 	C 	0.4819	0.0829	0.9879	-0.414
Mof_C 	C 	0.4738	0.1031	0.0129	-0.14
Mof_C 	C 	0.4428	0.1143	0.0158	-0.2
Mof_C 	C 	0.4196	0.1113	0.9975	0
Mof_C 	C 	0.4313	0.0905	0.9745	-0.09
Mof_C 	C 	0.4639	0.085	0.9723	-0.052
Mof_C 	C 	0.4847	0.1003	0.9931	0.493
Mof_C 	C 	0.4729	0.121	0.0161	-0.051
Mof_C 	C 	0.4403	0.1265	0.0183	0.208
Mof_C 	C 	0.3747	0.6199	0.5798	-0.229
Mof_N 	N 	0.3742	0.6169	0.5532	-0.137
Mof_C 	C 	0.3374	0.5622	0.524	0.022
Mof_C 	C 	0.3126	0.541	0.5296	-0.082
Mof_C 	C 	0.2852	0.5424	0.5111	-0.015
Mof_C 	C 	0.315	0.5326	0.513	0.048
Mof_C 	C 	0.3074	0.5862	0.4815	-0.002
Mof_C 	C 	0.4199	0.6054	0.4938	-0.124
Mof_C 	C 	0.4279	0.5852	0.4687	0.061
Mof_C 	C 	0.4589	0.574	0.4658	0.184
Mof_C 	C 	0.4819	0.5829	0.4879	-0.455
Mof_C 	C 	0.4738	0.6031	0.5129	-0.162
Mof_C 	C 	0.4428	0.6143	0.5158	-0.212
Mof_C 	C 	0.4196	0.6113	0.4975	0.003
Mof_C 	C 	0.4313	0.5905	0.4745	-0.094
Mof_C 	C 	0.4639	0.585	0.4723	-0.056
Mof_C 	C 	0.4847	0.6003	0.4931	0.544
Mof_C 	C 	0.4729	0.621	0.5161	-0.045
Mof_C 	C 	0.4403	0.6265	0.5183	0.224
Mof_C 	C 	0.8747	0.1199	0.5798	-0.229
Mof_N 	N 	0.8742	0.1169	0.5532	-0.137
Mof_C 	C 	0.8374	0.0622	0.524	0.021
Mof_C 	C 	0.8126	0.041	0.5296	-0.076
Mof_C 	C 	0.7852	0.0424	0.5111	-0.018
Mof_C 	C 	0.815	0.0326	0.513	0.042
Mof_C 	C 	0.8074	0.0862	0.4815	-0.001
Mof_C 	C 	0.9199	0.1054	0.4938	-0.124
Mof_C 	C 	0.9279	0.0852	0.4687	0.061
Mof_C 	C 	0.9589	0.074	0.4658	0.182
Mof_C 	C 	0.9819	0.0829	0.4879	-0.452
Mof_C 	C 	0.9738	0.1031	0.5129	-0.16
Mof_C 	C 	0.9428	0.1143	0.5158	-0.21
Mof_C 	C 	0.9196	0.1113	0.4975	0.002
Mof_C 	C 	0.9313	0.0905	0.4745	-0.094
Mof_C 	C 	0.9639	0.085	0.4723	-0.053
Mof_C 	C 	0.9847	0.1003	0.4931	0.539
Mof_C 	C 	0.9729	0.121	0.5161	-0.046
Mof_C 	C 	0.9403	0.1265	0.5183	0.222
Mof_C 	C 	0.8747	0.6199	0.0798	-0.229
Mof_N 	N 	0.8742	0.6169	0.0532	-0.137
Mof_C 	C 	0.8374	0.5622	0.024	0.023
Mof_C 	C 	0.8126	0.541	0.0296	-0.045
Mof_C 	C 	0.7852	0.5424	0.0111	-0.048
Mof_C 	C 	0.815	0.5326	0.013	0.017
Mof_C 	C 	0.8074	0.5862	0.9815	0.006
Mof_C 	C 	0.9199	0.6054	0.9938	-0.121
Mof_C 	C 	0.9279	0.5852	0.9687	0.059
Mof_C 	C 	0.9589	0.574	0.9658	0.168
Mof_C 	C 	0.9819	0.5829	0.9879	-0.419
Mof_C 	C 	0.9738	0.6031	0.0129	-0.143
Mof_C 	C 	0.9428	0.6143	0.0158	-0.201
Mof_C 	C 	0.9196	0.6113	0.9975	0
Mof_C 	C 	0.9313	0.5905	0.9745	-0.089
Mof_C 	C 	0.9639	0.585	0.9723	-0.048
Mof_C 	C 	0.9847	0.6003	0.9931	0.499
Mof_C 	C 	0.9729	0.621	0.0161	-0.05
Mof_C 	C 	0.9403	0.6265	0.0183	0.21
Mof_C 	C 	0.3753	0.1301	0.5798	-0.229
Mof_N 	N 	0.3758	0.1331	0.5532	-0.137
Mof_C 	C 	0.4126	0.1878	0.524	0.022
Mof_C 	C 	0.4374	0.209	0.5296	-0.082
Mof_C 	C 	0.4648	0.2076	0.5111	-0.015
Mof_C 	C 	0.435	0.2174	0.513	0.048
Mof_C 	C 	0.4426	0.1638	0.4815	-0.002
Mof_C 	C 	0.3301	0.1446	0.4938	-0.124
Mof_C 	C 	0.3221	0.1648	0.4687	0.061
Mof_C 	C 	0.2911	0.176	0.4658	0.186
Mof_C 	C 	0.2681	0.1671	0.4879	-0.461
Mof_C 	C 	0.2762	0.1469	0.5129	-0.163
Mof_C 	C 	0.3072	0.1357	0.5158	-0.214
Mof_C 	C 	0.3304	0.1387	0.4975	0.003
Mof_C 	C 	0.3187	0.1595	0.4745	-0.095
Mof_C 	C 	0.2861	0.165	0.4723	-0.056
Mof_C 	C 	0.2653	0.1497	0.4931	0.55
Mof_C 	C 	0.2771	0.129	0.5161	-0.047
Mof_C 	C 	0.3097	0.1235	0.5183	0.226
Mof_C 	C 	0.3753	0.6301	0.0798	-0.229
Mof_N 	N 	0.3758	0.6331	0.0532	-0.137
Mof_C 	C 	0.4126	0.6878	0.024	0.023
Mof_C 	C 	0.4374	0.709	0.0296	-0.045
Mof_C 	C 	0.4648	0.7076	0.0111	-0.048
Mof_C 	C 	0.435	0.7174	0.013	0.017
Mof_C 	C 	0.4426	0.6638	0.9815	0.006
Mof_C 	C 	0.3301	0.6446	0.9938	-0.121
Mof_C 	C 	0.3221	0.6648	0.9687	0.06
Mof_C 	C 	0.2911	0.676	0.9658	0.169
Mof_C 	C 	0.2681	0.6671	0.9879	-0.418
Mof_C 	C 	0.2762	0.6469	0.0129	-0.142
Mof_C 	C 	0.3072	0.6357	0.0158	-0.201
Mof_C 	C 	0.3304	0.6387	0.9975	0
Mof_C 	C 	0.3187	0.6595	0.9745	-0.09
Mof_C 	C 	0.2861	0.665	0.9723	-0.051
Mof_C 	C 	0.2653	0.6497	0.9931	0.499
Mof_C 	C 	0.2771	0.629	0.0161	-0.05
Mof_C 	C 	0.3097	0.6235	0.0183	0.21
Mof_C 	C 	0.8753	0.1301	0.0798	-0.23
Mof_N 	N 	0.8758	0.1331	0.0532	-0.137
Mof_C 	C 	0.9126	0.1878	0.024	0.023
Mof_C 	C 	0.9374	0.209	0.0296	-0.042
Mof_C 	C 	0.9648	0.2076	0.0111	-0.051
Mof_C 	C 	0.935	0.2174	0.013	0.015
Mof_C 	C 	0.9426	0.1638	0.9815	0.008
Mof_C 	C 	0.8301	0.1446	0.9938	-0.121
Mof_C 	C 	0.8221	0.1648	0.9687	0.06
Mof_C 	C 	0.7911	0.176	0.9658	0.172
Mof_C 	C 	0.7681	0.1671	0.9879	-0.424
Mof_C 	C 	0.7762	0.1469	0.0129	-0.143
Mof_C 	C 	0.8072	0.1357	0.0158	-0.203
Mof_C 	C 	0.8304	0.1387	0.9975	0.001
Mof_C 	C 	0.8187	0.1595	0.9745	-0.09
Mof_C 	C 	0.7861	0.165	0.9723	-0.052
Mof_C 	C 	0.7653	0.1497	0.9931	0.505
Mof_C 	C 	0.7771	0.129	0.0161	-0.052
Mof_C 	C 	0.8097	0.1235	0.0183	0.212
Mof_C 	C 	0.8753	0.6301	0.5798	-0.229
Mof_N 	N 	0.8758	0.6331	0.5532	-0.137
Mof_C 	C 	0.9126	0.6878	0.524	0.022
Mof_C 	C 	0.9374	0.709	0.5296	-0.078
Mof_C 	C 	0.9648	0.7076	0.5111	-0.018
Mof_C 	C 	0.935	0.7174	0.513	0.046
Mof_C 	C 	0.9426	0.6638	0.4815	-0
Mof_C 	C 	0.8301	0.6446	0.4938	-0.124
Mof_C 	C 	0.8221	0.6648	0.4687	0.061
Mof_C 	C 	0.7911	0.676	0.4658	0.184
Mof_C 	C 	0.7681	0.6671	0.4879	-0.456
Mof_C 	C 	0.7762	0.6469	0.5129	-0.162
Mof_C 	C 	0.8072	0.6357	0.5158	-0.212
Mof_C 	C 	0.8304	0.6387	0.4975	0.003
Mof_C 	C 	0.8187	0.6595	0.4745	-0.094
Mof_C 	C 	0.7861	0.665	0.4723	-0.056
Mof_C 	C 	0.7653	0.6497	0.4931	0.545
Mof_C 	C 	0.7771	0.629	0.5161	-0.046
Mof_C 	C 	0.8097	0.6235	0.5183	0.224
Mof_C 	C 	0.8747	0.6301	0.1702	-0.229
Mof_N 	N 	0.8742	0.6331	0.1968	-0.137
Mof_C 	C 	0.8374	0.6878	0.226	0.022
Mof_C 	C 	0.8126	0.709	0.2204	-0.082
Mof_C 	C 	0.7852	0.7076	0.2389	-0.015
Mof_C 	C 	0.815	0.7174	0.237	0.048
Mof_C 	C 	0.8074	0.6638	0.2685	-0.002
Mof_C 	C 	0.9199	0.6446	0.2562	-0.124
Mof_C 	C 	0.9279	0.6648	0.2813	0.06
Mof_C 	C 	0.9589	0.676	0.2842	0.182
Mof_C 	C 	0.9819	0.6671	0.2621	-0.457
Mof_C 	C 	0.9738	0.6469	0.2371	-0.162
Mof_C 	C 	0.9428	0.6357	0.2342	-0.212
Mof_C 	C 	0.9196	0.6387	0.2525	0.003
Mof_C 	C 	0.9313	0.6595	0.2755	-0.093
Mof_C 	C 	0.9639	0.665	0.2777	-0.052
Mof_C 	C 	0.9847	0.6497	0.2569	0.545
Mof_C 	C 	0.9729	0.629	0.2339	-0.045
Mof_C 	C 	0.9403	0.6235	0.2317	0.224
Mof_C 	C 	0.8747	0.1301	0.6702	-0.229
Mof_N 	N 	0.8742	0.1331	0.6968	-0.137
Mof_C 	C 	0.8374	0.1878	0.726	0.022
Mof_C 	C 	0.8126	0.209	0.7204	-0.082
Mof_C 	C 	0.7852	0.2076	0.7389	-0.015
Mof_C 	C 	0.815	0.2174	0.737	0.048
Mof_C 	C 	0.8074	0.1638	0.7685	-0.002
Mof_C 	C 	0.9199	0.1446	0.7562	-0.124
Mof_C 	C 	0.9279	0.1648	0.7813	0.06
Mof_C 	C 	0.9589	0.176	0.7842	0.184
Mof_C 	C 	0.9819	0.1671	0.7621	-0.461
Mof_C 	C 	0.9738	0.1469	0.7371	-0.163
Mof_C 	C 	0.9428	0.1357	0.7342	-0.213
Mof_C 	C 	0.9196	0.1387	0.7525	0.003
Mof_C 	C 	0.9313	0.1595	0.7755	-0.094
Mof_C 	C 	0.9639	0.165	0.7777	-0.053
Mof_C 	C 	0.9847	0.1497	0.7569	0.55
Mof_C 	C 	0.9729	0.129	0.7339	-0.046
Mof_C 	C 	0.9403	0.1235	0.7317	0.225
Mof_C 	C 	0.3747	0.6301	0.6702	-0.229
Mof_N 	N 	0.3742	0.6331	0.6968	-0.137
Mof_C 	C 	0.3374	0.6878	0.726	0.022
Mof_C 	C 	0.3126	0.709	0.7204	-0.082
Mof_C 	C 	0.2852	0.7076	0.7389	-0.015
Mof_C 	C 	0.315	0.7174	0.737	0.048
Mof_C 	C 	0.3074	0.6638	0.7685	-0.002
Mof_C 	C 	0.4199	0.6446	0.7562	-0.124
Mof_C 	C 	0.4279	0.6648	0.7813	0.061
Mof_C 	C 	0.4589	0.676	0.7842	0.184
Mof_C 	C 	0.4819	0.6671	0.7621	-0.455
Mof_C 	C 	0.4738	0.6469	0.7371	-0.162
Mof_C 	C 	0.4428	0.6357	0.7342	-0.212
Mof_C 	C 	0.4196	0.6387	0.7525	0.003
Mof_C 	C 	0.4313	0.6595	0.7755	-0.094
Mof_C 	C 	0.4639	0.665	0.7777	-0.056
Mof_C 	C 	0.4847	0.6497	0.7569	0.544
Mof_C 	C 	0.4729	0.629	0.7339	-0.045
Mof_C 	C 	0.4403	0.6235	0.7317	0.224
Mof_C 	C 	0.3747	0.1301	0.1702	-0.229
Mof_N 	N 	0.3742	0.1331	0.1968	-0.137
Mof_C 	C 	0.3374	0.1878	0.226	0.022
Mof_C 	C 	0.3126	0.209	0.2204	-0.082
Mof_C 	C 	0.2852	0.2076	0.2389	-0.015
Mof_C 	C 	0.315	0.2174	0.237	0.048
Mof_C 	C 	0.3074	0.1638	0.2685	-0.002
Mof_C 	C 	0.4199	0.1446	0.2562	-0.124
Mof_C 	C 	0.4279	0.1648	0.2813	0.061
Mof_C 	C 	0.4589	0.176	0.2842	0.186
Mof_C 	C 	0.4819	0.1671	0.2621	-0.461
Mof_C 	C 	0.4738	0.1469	0.2371	-0.163
Mof_C 	C 	0.4428	0.1357	0.2342	-0.214
Mof_C 	C 	0.4196	0.1387	0.2525	0.003
Mof_C 	C 	0.4313	0.1595	0.2755	-0.095
Mof_C 	C 	0.4639	0.165	0.2777	-0.056
Mof_C 	C 	0.4847	0.1497	0.2569	0.55
Mof_C 	C 	0.4729	0.129	0.2339	-0.047
Mof_C 	C 	0.4403	0.1235	0.2317	0.226
Mof_C 	C 	0.8753	0.6199	0.6702	-0.229
Mof_N 	N 	0.8758	0.6169	0.6968	-0.137
Mof_C 	C 	0.9126	0.5622	0.726	0.022
Mof_C 	C 	0.9374	0.541	0.7204	-0.078
Mof_C 	C 	0.9648	0.5424	0.7389	-0.018
Mof_C 	C 	0.935	0.5326	0.737	0.046
Mof_C 	C 	0.9426	0.5862	0.7685	-0
Mof_C 	C 	0.8301	0.6054	0.7562	-0.124
Mof_C 	C 	0.8221	0.5852	0.7813	0.061
Mof_C 	C 	0.7911	0.574	0.7842	0.184
Mof_C 	C 	0.7681	0.5829	0.7621	-0.456
Mof_C 	C 	0.7762	0.6031	0.7371	-0.162
Mof_C 	C 	0.8072	0.6143	0.7342	-0.212
Mof_C 	C 	0.8304	0.6113	0.7525	0.003
Mof_C 	C 	0.8187	0.5905	0.7755	-0.094
Mof_C 	C 	0.7861	0.585	0.7777	-0.056
Mof_C 	C 	0.7653	0.6003	0.7569	0.545
Mof_C 	C 	0.7771	0.621	0.7339	-0.046
Mof_C 	C 	0.8097	0.6265	0.7317	0.224
Mof_C 	C 	0.8753	0.1199	0.1702	-0.229
Mof_N 	N 	0.8758	0.1169	0.1968	-0.137
Mof_C 	C 	0.9126	0.0622	0.226	0.021
Mof_C 	C 	0.9374	0.041	0.2204	-0.073
Mof_C 	C 	0.9648	0.0424	0.2389	-0.021
Mof_C 	C 	0.935	0.0326	0.237	0.039
Mof_C 	C 	0.9426	0.0862	0.2685	0
Mof_C 	C 	0.8301	0.1054	0.2562	-0.124
Mof_C 	C 	0.8221	0.0852	0.2813	0.061
Mof_C 	C 	0.7911	0.074	0.2842	0.183
Mof_C 	C 	0.7681	0.0829	0.2621	-0.452
Mof_C 	C 	0.7762	0.1031	0.2371	-0.159
Mof_C 	C 	0.8072	0.1143	0.2342	-0.211
Mof_C 	C 	0.8304	0.1113	0.2525	0.003
Mof_C 	C 	0.8187	0.0905	0.2755	-0.095
Mof_C 	C 	0.7861	0.085	0.2777	-0.056
Mof_C 	C 	0.7653	0.1003	0.2569	0.539
Mof_C 	C 	0.7771	0.121	0.2339	-0.047
Mof_C 	C 	0.8097	0.1265	0.2317	0.223
Mof_C 	C 	0.3753	0.6199	0.1702	-0.229
Mof_N 	N 	0.3758	0.6169	0.1968	-0.137
Mof_C 	C 	0.4126	0.5622	0.226	0.022
Mof_C 	C 	0.4374	0.541	0.2204	-0.082
Mof_C 	C 	0.4648	0.5424	0.2389	-0.015
Mof_C 	C 	0.435	0.5326	0.237	0.048
Mof_C 	C 	0.4426	0.5862	0.2685	-0.002
Mof_C 	C 	0.3301	0.6054	0.2562	-0.124
Mof_C 	C 	0.3221	0.5852	0.2813	0.061
Mof_C 	C 	0.2911	0.574	0.2842	0.184
Mof_C 	C 	0.2681	0.5829	0.2621	-0.456
Mof_C 	C 	0.2762	0.6031	0.2371	-0.162
Mof_C 	C 	0.3072	0.6143	0.2342	-0.212
Mof_C 	C 	0.3304	0.6113	0.2525	0.003
Mof_C 	C 	0.3187	0.5905	0.2755	-0.094
Mof_C 	C 	0.2861	0.585	0.2777	-0.056
Mof_C 	C 	0.2653	0.6003	0.2569	0.544
Mof_C 	C 	0.2771	0.621	0.2339	-0.046
Mof_C 	C 	0.3097	0.6265	0.2317	0.224
Mof_C 	C 	0.3753	0.1199	0.6702	-0.229
Mof_N 	N 	0.3758	0.1169	0.6968	-0.137
Mof_C 	C 	0.4126	0.0622	0.726	0.021
Mof_C 	C 	0.4374	0.041	0.7204	-0.076
Mof_C 	C 	0.4648	0.0424	0.7389	-0.018
Mof_C 	C 	0.435	0.0326	0.737	0.042
Mof_C 	C 	0.4426	0.0862	0.7685	-0.001
Mof_C 	C 	0.3301	0.1054	0.7562	-0.124
Mof_C 	C 	0.3221	0.0852	0.7813	0.061
Mof_C 	C 	0.2911	0.074	0.7842	0.183
Mof_C 	C 	0.2681	0.0829	0.7621	-0.451
Mof_C 	C 	0.2762	0.1031	0.7371	-0.159
Mof_C 	C 	0.3072	0.1143	0.7342	-0.211
Mof_C 	C 	0.3304	0.1113	0.7525	0.003
Mof_C 	C 	0.3187	0.0905	0.7755	-0.094
Mof_C 	C 	0.2861	0.085	0.7777	-0.056
Mof_C 	C 	0.2653	0.1003	0.7569	0.538
Mof_C 	C 	0.2771	0.121	0.7339	-0.046
Mof_C 	C 	0.3097	0.1265	0.7317	0.222
Mof_C 	C 	0.6199	0.6702	0.8753	-0.229
Mof_N 	N 	0.6169	0.6968	0.8758	-0.137
Mof_C 	C 	0.5622	0.726	0.9126	0.022
Mof_C 	C 	0.541	0.7204	0.9374	-0.078
Mof_C 	C 	0.5424	0.7389	0.9648	-0.018
Mof_C 	C 	0.5326	0.737	0.935	0.046
Mof_C 	C 	0.5862	0.7685	0.9426	-0
Mof_C 	C 	0.6054	0.7562	0.8301	-0.124
Mof_C 	C 	0.5852	0.7813	0.8221	0.061
Mof_C 	C 	0.574	0.7842	0.7911	0.184
Mof_C 	C 	0.5829	0.7621	0.7681	-0.456
Mof_C 	C 	0.6031	0.7371	0.7762	-0.162
Mof_C 	C 	0.6143	0.7342	0.8072	-0.212
Mof_C 	C 	0.6113	0.7525	0.8304	0.003
Mof_C 	C 	0.5905	0.7755	0.8187	-0.094
Mof_C 	C 	0.585	0.7777	0.7861	-0.056
Mof_C 	C 	0.6003	0.7569	0.7653	0.545
Mof_C 	C 	0.621	0.7339	0.7771	-0.046
Mof_C 	C 	0.6265	0.7317	0.8097	0.224
Mof_C 	C 	0.6199	0.1702	0.3753	-0.229
Mof_N 	N 	0.6169	0.1968	0.3758	-0.137
Mof_C 	C 	0.5622	0.226	0.4126	0.022
Mof_C 	C 	0.541	0.2204	0.4374	-0.082
Mof_C 	C 	0.5424	0.2389	0.4648	-0.015
Mof_C 	C 	0.5326	0.237	0.435	0.048
Mof_C 	C 	0.5862	0.2685	0.4426	-0.002
Mof_C 	C 	0.6054	0.2562	0.3301	-0.124
Mof_C 	C 	0.5852	0.2813	0.3221	0.061
Mof_C 	C 	0.574	0.2842	0.2911	0.184
Mof_C 	C 	0.5829	0.2621	0.2681	-0.456
Mof_C 	C 	0.6031	0.2371	0.2762	-0.162
Mof_C 	C 	0.6143	0.2342	0.3072	-0.212
Mof_C 	C 	0.6113	0.2525	0.3304	0.003
Mof_C 	C 	0.5905	0.2755	0.3187	-0.094
Mof_C 	C 	0.585	0.2777	0.2861	-0.056
Mof_C 	C 	0.6003	0.2569	0.2653	0.544
Mof_C 	C 	0.621	0.2339	0.2771	-0.046
Mof_C 	C 	0.6265	0.2317	0.3097	0.224
Mof_C 	C 	0.1199	0.6702	0.3753	-0.229
Mof_N 	N 	0.1169	0.6968	0.3758	-0.137
Mof_C 	C 	0.0622	0.726	0.4126	0.021
Mof_C 	C 	0.041	0.7204	0.4374	-0.076
Mof_C 	C 	0.0424	0.7389	0.4648	-0.018
Mof_C 	C 	0.0326	0.737	0.435	0.042
Mof_C 	C 	0.0862	0.7685	0.4426	-0.001
Mof_C 	C 	0.1054	0.7562	0.3301	-0.124
Mof_C 	C 	0.0852	0.7813	0.3221	0.061
Mof_C 	C 	0.074	0.7842	0.2911	0.183
Mof_C 	C 	0.0829	0.7621	0.2681	-0.451
Mof_C 	C 	0.1031	0.7371	0.2762	-0.159
Mof_C 	C 	0.1143	0.7342	0.3072	-0.211
Mof_C 	C 	0.1113	0.7525	0.3304	0.003
Mof_C 	C 	0.0905	0.7755	0.3187	-0.094
Mof_C 	C 	0.085	0.7777	0.2861	-0.056
Mof_C 	C 	0.1003	0.7569	0.2653	0.538
Mof_C 	C 	0.121	0.7339	0.2771	-0.046
Mof_C 	C 	0.1265	0.7317	0.3097	0.222
Mof_C 	C 	0.1199	0.1702	0.8753	-0.229
Mof_N 	N 	0.1169	0.1968	0.8758	-0.137
Mof_C 	C 	0.0622	0.226	0.9126	0.021
Mof_C 	C 	0.041	0.2204	0.9374	-0.073
Mof_C 	C 	0.0424	0.2389	0.9648	-0.021
Mof_C 	C 	0.0326	0.237	0.935	0.039
Mof_C 	C 	0.0862	0.2685	0.9426	0
Mof_C 	C 	0.1054	0.2562	0.8301	-0.124
Mof_C 	C 	0.0852	0.2813	0.8221	0.061
Mof_C 	C 	0.074	0.2842	0.7911	0.183
Mof_C 	C 	0.0829	0.2621	0.7681	-0.452
Mof_C 	C 	0.1031	0.2371	0.7762	-0.159
Mof_C 	C 	0.1143	0.2342	0.8072	-0.211
Mof_C 	C 	0.1113	0.2525	0.8304	0.003
Mof_C 	C 	0.0905	0.2755	0.8187	-0.095
Mof_C 	C 	0.085	0.2777	0.7861	-0.056
Mof_C 	C 	0.1003	0.2569	0.7653	0.539
Mof_C 	C 	0.121	0.2339	0.7771	-0.047
Mof_C 	C 	0.1265	0.2317	0.8097	0.223
Mof_C 	C 	0.6301	0.1702	0.8747	-0.229
Mof_N 	N 	0.6331	0.1968	0.8742	-0.137
Mof_C 	C 	0.6878	0.226	0.8374	0.022
Mof_C 	C 	0.709	0.2204	0.8126	-0.082
Mof_C 	C 	0.7076	0.2389	0.7852	-0.015
Mof_C 	C 	0.7174	0.237	0.815	0.048
Mof_C 	C 	0.6638	0.2685	0.8074	-0.002
Mof_C 	C 	0.6446	0.2562	0.9199	-0.124
Mof_C 	C 	0.6648	0.2813	0.9279	0.06
Mof_C 	C 	0.676	0.2842	0.9589	0.182
Mof_C 	C 	0.6671	0.2621	0.9819	-0.457
Mof_C 	C 	0.6469	0.2371	0.9738	-0.162
Mof_C 	C 	0.6357	0.2342	0.9428	-0.212
Mof_C 	C 	0.6387	0.2525	0.9196	0.003
Mof_C 	C 	0.6595	0.2755	0.9313	-0.093
Mof_C 	C 	0.665	0.2777	0.9639	-0.052
Mof_C 	C 	0.6497	0.2569	0.9847	0.545
Mof_C 	C 	0.629	0.2339	0.9729	-0.045
Mof_C 	C 	0.6235	0.2317	0.9403	0.224
Mof_C 	C 	0.6301	0.6702	0.3747	-0.229
Mof_N 	N 	0.6331	0.6968	0.3742	-0.137
Mof_C 	C 	0.6878	0.726	0.3374	0.022
Mof_C 	C 	0.709	0.7204	0.3126	-0.082
Mof_C 	C 	0.7076	0.7389	0.2852	-0.015
Mof_C 	C 	0.7174	0.737	0.315	0.048
Mof_C 	C 	0.6638	0.7685	0.3074	-0.002
Mof_C 	C 	0.6446	0.7562	0.4199	-0.124
Mof_C 	C 	0.6648	0.7813	0.4279	0.061
Mof_C 	C 	0.676	0.7842	0.4589	0.184
Mof_C 	C 	0.6671	0.7621	0.4819	-0.455
Mof_C 	C 	0.6469	0.7371	0.4738	-0.162
Mof_C 	C 	0.6357	0.7342	0.4428	-0.212
Mof_C 	C 	0.6387	0.7525	0.4196	0.003
Mof_C 	C 	0.6595	0.7755	0.4313	-0.094
Mof_C 	C 	0.665	0.7777	0.4639	-0.056
Mof_C 	C 	0.6497	0.7569	0.4847	0.544
Mof_C 	C 	0.629	0.7339	0.4729	-0.045
Mof_C 	C 	0.6235	0.7317	0.4403	0.224
Mof_C 	C 	0.1301	0.1702	0.3747	-0.229
Mof_N 	N 	0.1331	0.1968	0.3742	-0.137
Mof_C 	C 	0.1878	0.226	0.3374	0.022
Mof_C 	C 	0.209	0.2204	0.3126	-0.082
Mof_C 	C 	0.2076	0.2389	0.2852	-0.015
Mof_C 	C 	0.2174	0.237	0.315	0.048
Mof_C 	C 	0.1638	0.2685	0.3074	-0.002
Mof_C 	C 	0.1446	0.2562	0.4199	-0.124
Mof_C 	C 	0.1648	0.2813	0.4279	0.061
Mof_C 	C 	0.176	0.2842	0.4589	0.186
Mof_C 	C 	0.1671	0.2621	0.4819	-0.461
Mof_C 	C 	0.1469	0.2371	0.4738	-0.163
Mof_C 	C 	0.1357	0.2342	0.4428	-0.214
Mof_C 	C 	0.1387	0.2525	0.4196	0.003
Mof_C 	C 	0.1595	0.2755	0.4313	-0.095
Mof_C 	C 	0.165	0.2777	0.4639	-0.056
Mof_C 	C 	0.1497	0.2569	0.4847	0.55
Mof_C 	C 	0.129	0.2339	0.4729	-0.047
Mof_C 	C 	0.1235	0.2317	0.4403	0.226
Mof_C 	C 	0.1301	0.6702	0.8747	-0.229
Mof_N 	N 	0.1331	0.6968	0.8742	-0.137
Mof_C 	C 	0.1878	0.726	0.8374	0.022
Mof_C 	C 	0.209	0.7204	0.8126	-0.082
Mof_C 	C 	0.2076	0.7389	0.7852	-0.015
Mof_C 	C 	0.2174	0.737	0.815	0.048
Mof_C 	C 	0.1638	0.7685	0.8074	-0.002
Mof_C 	C 	0.1446	0.7562	0.9199	-0.124
Mof_C 	C 	0.1648	0.7813	0.9279	0.06
Mof_C 	C 	0.176	0.7842	0.9589	0.184
Mof_C 	C 	0.1671	0.7621	0.9819	-0.461
Mof_C 	C 	0.1469	0.7371	0.9738	-0.163
Mof_C 	C 	0.1357	0.7342	0.9428	-0.213
Mof_C 	C 	0.1387	0.7525	0.9196	0.003
Mof_C 	C 	0.1595	0.7755	0.9313	-0.094
Mof_C 	C 	0.165	0.7777	0.9639	-0.053
Mof_C 	C 	0.1497	0.7569	0.9847	0.55
Mof_C 	C 	0.129	0.7339	0.9729	-0.046
Mof_C 	C 	0.1235	0.7317	0.9403	0.225
Mof_C 	C 	0.1301	0.5798	0.3753	-0.229
Mof_N 	N 	0.1331	0.5532	0.3758	-0.137
Mof_C 	C 	0.1878	0.524	0.4126	0.022
Mof_C 	C 	0.209	0.5296	0.4374	-0.082
Mof_C 	C 	0.2076	0.5111	0.4648	-0.015
Mof_C 	C 	0.2174	0.513	0.435	0.048
Mof_C 	C 	0.1638	0.4815	0.4426	-0.002
Mof_C 	C 	0.1446	0.4938	0.3301	-0.124
Mof_C 	C 	0.1648	0.4687	0.3221	0.061
Mof_C 	C 	0.176	0.4658	0.2911	0.186
Mof_C 	C 	0.1671	0.4879	0.2681	-0.461
Mof_C 	C 	0.1469	0.5129	0.2762	-0.163
Mof_C 	C 	0.1357	0.5158	0.3072	-0.214
Mof_C 	C 	0.1387	0.4975	0.3304	0.003
Mof_C 	C 	0.1595	0.4745	0.3187	-0.095
Mof_C 	C 	0.165	0.4723	0.2861	-0.056
Mof_C 	C 	0.1497	0.4931	0.2653	0.55
Mof_C 	C 	0.129	0.5161	0.2771	-0.047
Mof_C 	C 	0.1235	0.5183	0.3097	0.226
Mof_C 	C 	0.1301	0.0798	0.8753	-0.23
Mof_N 	N 	0.1331	0.0532	0.8758	-0.137
Mof_C 	C 	0.1878	0.024	0.9126	0.023
Mof_C 	C 	0.209	0.0296	0.9374	-0.042
Mof_C 	C 	0.2076	0.0111	0.9648	-0.051
Mof_C 	C 	0.2174	0.013	0.935	0.015
Mof_C 	C 	0.1638	0.9815	0.9426	0.008
Mof_C 	C 	0.1446	0.9938	0.8301	-0.121
Mof_C 	C 	0.1648	0.9687	0.8221	0.06
Mof_C 	C 	0.176	0.9658	0.7911	0.172
Mof_C 	C 	0.1671	0.9879	0.7681	-0.424
Mof_C 	C 	0.1469	0.0129	0.7762	-0.143
Mof_C 	C 	0.1357	0.0158	0.8072	-0.203
Mof_C 	C 	0.1387	0.9975	0.8304	0.001
Mof_C 	C 	0.1595	0.9745	0.8187	-0.09
Mof_C 	C 	0.165	0.9723	0.7861	-0.052
Mof_C 	C 	0.1497	0.9931	0.7653	0.505
Mof_C 	C 	0.129	0.0161	0.7771	-0.052
Mof_C 	C 	0.1235	0.0183	0.8097	0.212
Mof_C 	C 	0.6301	0.5798	0.8753	-0.229
Mof_N 	N 	0.6331	0.5532	0.8758	-0.137
Mof_C 	C 	0.6878	0.524	0.9126	0.022
Mof_C 	C 	0.709	0.5296	0.9374	-0.078
Mof_C 	C 	0.7076	0.5111	0.9648	-0.018
Mof_C 	C 	0.7174	0.513	0.935	0.046
Mof_C 	C 	0.6638	0.4815	0.9426	-0
Mof_C 	C 	0.6446	0.4938	0.8301	-0.124
Mof_C 	C 	0.6648	0.4687	0.8221	0.061
Mof_C 	C 	0.676	0.4658	0.7911	0.184
Mof_C 	C 	0.6671	0.4879	0.7681	-0.456
Mof_C 	C 	0.6469	0.5129	0.7762	-0.162
Mof_C 	C 	0.6357	0.5158	0.8072	-0.212
Mof_C 	C 	0.6387	0.4975	0.8304	0.003
Mof_C 	C 	0.6595	0.4745	0.8187	-0.094
Mof_C 	C 	0.665	0.4723	0.7861	-0.056
Mof_C 	C 	0.6497	0.4931	0.7653	0.545
Mof_C 	C 	0.629	0.5161	0.7771	-0.046
Mof_C 	C 	0.6235	0.5183	0.8097	0.224
Mof_C 	C 	0.6301	0.0798	0.3753	-0.229
Mof_N 	N 	0.6331	0.0532	0.3758	-0.137
Mof_C 	C 	0.6878	0.024	0.4126	0.023
Mof_C 	C 	0.709	0.0296	0.4374	-0.045
Mof_C 	C 	0.7076	0.0111	0.4648	-0.048
Mof_C 	C 	0.7174	0.013	0.435	0.017
Mof_C 	C 	0.6638	0.9815	0.4426	0.006
Mof_C 	C 	0.6446	0.9938	0.3301	-0.121
Mof_C 	C 	0.6648	0.9687	0.3221	0.06
Mof_C 	C 	0.676	0.9658	0.2911	0.169
Mof_C 	C 	0.6671	0.9879	0.2681	-0.418
Mof_C 	C 	0.6469	0.0129	0.2762	-0.142
Mof_C 	C 	0.6357	0.0158	0.3072	-0.201
Mof_C 	C 	0.6387	0.9975	0.3304	0
Mof_C 	C 	0.6595	0.9745	0.3187	-0.09
Mof_C 	C 	0.665	0.9723	0.2861	-0.051
Mof_C 	C 	0.6497	0.9931	0.2653	0.499
Mof_C 	C 	0.629	0.0161	0.2771	-0.05
Mof_C 	C 	0.6235	0.0183	0.3097	0.21
Mof_C 	C 	0.1199	0.0798	0.3747	-0.23
Mof_N 	N 	0.1169	0.0532	0.3742	-0.137
Mof_C 	C 	0.0622	0.024	0.3374	0.022
Mof_C 	C 	0.041	0.0296	0.3126	-0.04
Mof_C 	C 	0.0424	0.0111	0.2852	-0.051
Mof_C 	C 	0.0326	0.013	0.315	0.011
Mof_C 	C 	0.0862	0.9815	0.3074	0.006
Mof_C 	C 	0.1054	0.9938	0.4199	-0.121
Mof_C 	C 	0.0852	0.9687	0.4279	0.06
Mof_C 	C 	0.074	0.9658	0.4589	0.168
Mof_C 	C 	0.0829	0.9879	0.4819	-0.414
Mof_C 	C 	0.1031	0.0129	0.4738	-0.14
Mof_C 	C 	0.1143	0.0158	0.4428	-0.2
Mof_C 	C 	0.1113	0.9975	0.4196	0
Mof_C 	C 	0.0905	0.9745	0.4313	-0.09
Mof_C 	C 	0.085	0.9723	0.4639	-0.052
Mof_C 	C 	0.1003	0.9931	0.4847	0.493
Mof_C 	C 	0.121	0.0161	0.4729	-0.051
Mof_C 	C 	0.1265	0.0183	0.4403	0.208
Mof_C 	C 	0.1199	0.5798	0.8747	-0.229
Mof_N 	N 	0.1169	0.5532	0.8742	-0.137
Mof_C 	C 	0.0622	0.524	0.8374	0.021
Mof_C 	C 	0.041	0.5296	0.8126	-0.076
Mof_C 	C 	0.0424	0.5111	0.7852	-0.018
Mof_C 	C 	0.0326	0.513	0.815	0.042
Mof_C 	C 	0.0862	0.4815	0.8074	-0.001
Mof_C 	C 	0.1054	0.4938	0.9199	-0.124
Mof_C 	C 	0.0852	0.4687	0.9279	0.061
Mof_C 	C 	0.074	0.4658	0.9589	0.182
Mof_C 	C 	0.0829	0.4879	0.9819	-0.452
Mof_C 	C 	0.1031	0.5129	0.9738	-0.16
Mof_C 	C 	0.1143	0.5158	0.9428	-0.21
Mof_C 	C 	0.1113	0.4975	0.9196	0.002
Mof_C 	C 	0.0905	0.4745	0.9313	-0.094
Mof_C 	C 	0.085	0.4723	0.9639	-0.053
Mof_C 	C 	0.1003	0.4931	0.9847	0.539
Mof_C 	C 	0.121	0.5161	0.9729	-0.046
Mof_C 	C 	0.1265	0.5183	0.9403	0.222
Mof_C 	C 	0.6199	0.0798	0.8747	-0.229
Mof_N 	N 	0.6169	0.0532	0.8742	-0.137
Mof_C 	C 	0.5622	0.024	0.8374	0.023
Mof_C 	C 	0.541	0.0296	0.8126	-0.045
Mof_C 	C 	0.5424	0.0111	0.7852	-0.048
Mof_C 	C 	0.5326	0.013	0.815	0.017
Mof_C 	C 	0.5862	0.9815	0.8074	0.006
Mof_C 	C 	0.6054	0.9938	0.9199	-0.121
Mof_C 	C 	0.5852	0.9687	0.9279	0.059
Mof_C 	C 	0.574	0.9658	0.9589	0.168
Mof_C 	C 	0.5829	0.9879	0.9819	-0.419
Mof_C 	C 	0.6031	0.0129	0.9738	-0.143
Mof_C 	C 	0.6143	0.0158	0.9428	-0.201
Mof_C 	C 	0.6113	0.9975	0.9196	0
Mof_C 	C 	0.5905	0.9745	0.9313	-0.089
Mof_C 	C 	0.585	0.9723	0.9639	-0.048
Mof_C 	C 	0.6003	0.9931	0.9847	0.499
Mof_C 	C 	0.621	0.0161	0.9729	-0.05
Mof_C 	C 	0.6265	0.0183	0.9403	0.21
Mof_C 	C 	0.6199	0.5798	0.3747	-0.229
Mof_N 	N 	0.6169	0.5532	0.3742	-0.137
Mof_C 	C 	0.5622	0.524	0.3374	0.022
Mof_C 	C 	0.541	0.5296	0.3126	-0.082
Mof_C 	C 	0.5424	0.5111	0.2852	-0.015
Mof_C 	C 	0.5326	0.513	0.315	0.048
Mof_C 	C 	0.5862	0.4815	0.3074	-0.002
Mof_C 	C 	0.6054	0.4938	0.4199	-0.124
Mof_C 	C 	0.5852	0.4687	0.4279	0.061
Mof_C 	C 	0.574	0.4658	0.4589	0.184
Mof_C 	C 	0.5829	0.4879	0.4819	-0.455
Mof_C 	C 	0.6031	0.5129	0.4738	-0.162
Mof_C 	C 	0.6143	0.5158	0.4428	-0.212
Mof_C 	C 	0.6113	0.4975	0.4196	0.003
Mof_C 	C 	0.5905	0.4745	0.4313	-0.094
Mof_C 	C 	0.585	0.4723	0.4639	-0.056
Mof_C 	C 	0.6003	0.4931	0.4847	0.544
Mof_C 	C 	0.621	0.5161	0.4729	-0.045
Mof_C 	C 	0.6265	0.5183	0.4403	0.224
Mof_C 	C 	0.1702	0.8747	0.6301	-0.229
Mof_N 	N 	0.1968	0.8742	0.6331	-0.137
Mof_C 	C 	0.226	0.8374	0.6878	0.022
Mof_C 	C 	0.2204	0.8126	0.709	-0.082
Mof_C 	C 	0.2389	0.7852	0.7076	-0.015
Mof_C 	C 	0.237	0.815	0.7174	0.048
Mof_C 	C 	0.2685	0.8074	0.6638	-0.002
Mof_C 	C 	0.2562	0.9199	0.6446	-0.124
Mof_C 	C 	0.2813	0.9279	0.6648	0.06
Mof_C 	C 	0.2842	0.9589	0.676	0.182
Mof_C 	C 	0.2621	0.9819	0.6671	-0.457
Mof_C 	C 	0.2371	0.9738	0.6469	-0.162
Mof_C 	C 	0.2342	0.9428	0.6357	-0.212
Mof_C 	C 	0.2525	0.9196	0.6387	0.003
Mof_C 	C 	0.2755	0.9313	0.6595	-0.093
Mof_C 	C 	0.2777	0.9639	0.665	-0.052
Mof_C 	C 	0.2569	0.9847	0.6497	0.545
Mof_C 	C 	0.2339	0.9729	0.629	-0.045
Mof_C 	C 	0.2317	0.9403	0.6235	0.224
Mof_C 	C 	0.1702	0.3747	0.1301	-0.229
Mof_N 	N 	0.1968	0.3742	0.1331	-0.137
Mof_C 	C 	0.226	0.3374	0.1878	0.022
Mof_C 	C 	0.2204	0.3126	0.209	-0.082
Mof_C 	C 	0.2389	0.2852	0.2076	-0.015
Mof_C 	C 	0.237	0.315	0.2174	0.048
Mof_C 	C 	0.2685	0.3074	0.1638	-0.002
Mof_C 	C 	0.2562	0.4199	0.1446	-0.124
Mof_C 	C 	0.2813	0.4279	0.1648	0.061
Mof_C 	C 	0.2842	0.4589	0.176	0.186
Mof_C 	C 	0.2621	0.4819	0.1671	-0.461
Mof_C 	C 	0.2371	0.4738	0.1469	-0.163
Mof_C 	C 	0.2342	0.4428	0.1357	-0.214
Mof_C 	C 	0.2525	0.4196	0.1387	0.003
Mof_C 	C 	0.2755	0.4313	0.1595	-0.095
Mof_C 	C 	0.2777	0.4639	0.165	-0.056
Mof_C 	C 	0.2569	0.4847	0.1497	0.55
Mof_C 	C 	0.2339	0.4729	0.129	-0.047
Mof_C 	C 	0.2317	0.4403	0.1235	0.226
Mof_C 	C 	0.6702	0.8747	0.1301	-0.229
Mof_N 	N 	0.6968	0.8742	0.1331	-0.137
Mof_C 	C 	0.726	0.8374	0.1878	0.022
Mof_C 	C 	0.7204	0.8126	0.209	-0.082
Mof_C 	C 	0.7389	0.7852	0.2076	-0.015
Mof_C 	C 	0.737	0.815	0.2174	0.048
Mof_C 	C 	0.7685	0.8074	0.1638	-0.002
Mof_C 	C 	0.7562	0.9199	0.1446	-0.124
Mof_C 	C 	0.7813	0.9279	0.1648	0.06
Mof_C 	C 	0.7842	0.9589	0.176	0.184
Mof_C 	C 	0.7621	0.9819	0.1671	-0.461
Mof_C 	C 	0.7371	0.9738	0.1469	-0.163
Mof_C 	C 	0.7342	0.9428	0.1357	-0.213
Mof_C 	C 	0.7525	0.9196	0.1387	0.003
Mof_C 	C 	0.7755	0.9313	0.1595	-0.094
Mof_C 	C 	0.7777	0.9639	0.165	-0.053
Mof_C 	C 	0.7569	0.9847	0.1497	0.55
Mof_C 	C 	0.7339	0.9729	0.129	-0.046
Mof_C 	C 	0.7317	0.9403	0.1235	0.225
Mof_C 	C 	0.6702	0.3747	0.6301	-0.229
Mof_N 	N 	0.6968	0.3742	0.6331	-0.137
Mof_C 	C 	0.726	0.3374	0.6878	0.022
Mof_C 	C 	0.7204	0.3126	0.709	-0.082
Mof_C 	C 	0.7389	0.2852	0.7076	-0.015
Mof_C 	C 	0.737	0.315	0.7174	0.048
Mof_C 	C 	0.7685	0.3074	0.6638	-0.002
Mof_C 	C 	0.7562	0.4199	0.6446	-0.124
Mof_C 	C 	0.7813	0.4279	0.6648	0.061
Mof_C 	C 	0.7842	0.4589	0.676	0.184
Mof_C 	C 	0.7621	0.4819	0.6671	-0.455
Mof_C 	C 	0.7371	0.4738	0.6469	-0.162
Mof_C 	C 	0.7342	0.4428	0.6357	-0.212
Mof_C 	C 	0.7525	0.4196	0.6387	0.003
Mof_C 	C 	0.7755	0.4313	0.6595	-0.094
Mof_C 	C 	0.7777	0.4639	0.665	-0.056
Mof_C 	C 	0.7569	0.4847	0.6497	0.544
Mof_C 	C 	0.7339	0.4729	0.629	-0.045
Mof_C 	C 	0.7317	0.4403	0.6235	0.224
Mof_C 	C 	0.6702	0.8753	0.6199	-0.229
Mof_N 	N 	0.6968	0.8758	0.6169	-0.137
Mof_C 	C 	0.726	0.9126	0.5622	0.022
Mof_C 	C 	0.7204	0.9374	0.541	-0.078
Mof_C 	C 	0.7389	0.9648	0.5424	-0.018
Mof_C 	C 	0.737	0.935	0.5326	0.046
Mof_C 	C 	0.7685	0.9426	0.5862	-0
Mof_C 	C 	0.7562	0.8301	0.6054	-0.124
Mof_C 	C 	0.7813	0.8221	0.5852	0.061
Mof_C 	C 	0.7842	0.7911	0.574	0.184
Mof_C 	C 	0.7621	0.7681	0.5829	-0.456
Mof_C 	C 	0.7371	0.7762	0.6031	-0.162
Mof_C 	C 	0.7342	0.8072	0.6143	-0.212
Mof_C 	C 	0.7525	0.8304	0.6113	0.003
Mof_C 	C 	0.7755	0.8187	0.5905	-0.094
Mof_C 	C 	0.7777	0.7861	0.585	-0.056
Mof_C 	C 	0.7569	0.7653	0.6003	0.545
Mof_C 	C 	0.7339	0.7771	0.621	-0.046
Mof_C 	C 	0.7317	0.8097	0.6265	0.224
Mof_C 	C 	0.6702	0.3753	0.1199	-0.229
Mof_N 	N 	0.6968	0.3758	0.1169	-0.137
Mof_C 	C 	0.726	0.4126	0.0622	0.021
Mof_C 	C 	0.7204	0.4374	0.041	-0.076
Mof_C 	C 	0.7389	0.4648	0.0424	-0.018
Mof_C 	C 	0.737	0.435	0.0326	0.042
Mof_C 	C 	0.7685	0.4426	0.0862	-0.001
Mof_C 	C 	0.7562	0.3301	0.1054	-0.124
Mof_C 	C 	0.7813	0.3221	0.0852	0.061
Mof_C 	C 	0.7842	0.2911	0.074	0.183
Mof_C 	C 	0.7621	0.2681	0.0829	-0.451
Mof_C 	C 	0.7371	0.2762	0.1031	-0.159
Mof_C 	C 	0.7342	0.3072	0.1143	-0.211
Mof_C 	C 	0.7525	0.3304	0.1113	0.003
Mof_C 	C 	0.7755	0.3187	0.0905	-0.094
Mof_C 	C 	0.7777	0.2861	0.085	-0.056
Mof_C 	C 	0.7569	0.2653	0.1003	0.538
Mof_C 	C 	0.7339	0.2771	0.121	-0.046
Mof_C 	C 	0.7317	0.3097	0.1265	0.222
Mof_C 	C 	0.1702	0.8753	0.1199	-0.229
Mof_N 	N 	0.1968	0.8758	0.1169	-0.137
Mof_C 	C 	0.226	0.9126	0.0622	0.021
Mof_C 	C 	0.2204	0.9374	0.041	-0.073
Mof_C 	C 	0.2389	0.9648	0.0424	-0.021
Mof_C 	C 	0.237	0.935	0.0326	0.039
Mof_C 	C 	0.2685	0.9426	0.0862	0
Mof_C 	C 	0.2562	0.8301	0.1054	-0.124
Mof_C 	C 	0.2813	0.8221	0.0852	0.061
Mof_C 	C 	0.2842	0.7911	0.074	0.183
Mof_C 	C 	0.2621	0.7681	0.0829	-0.452
Mof_C 	C 	0.2371	0.7762	0.1031	-0.159
Mof_C 	C 	0.2342	0.8072	0.1143	-0.211
Mof_C 	C 	0.2525	0.8304	0.1113	0.003
Mof_C 	C 	0.2755	0.8187	0.0905	-0.095
Mof_C 	C 	0.2777	0.7861	0.085	-0.056
Mof_C 	C 	0.2569	0.7653	0.1003	0.539
Mof_C 	C 	0.2339	0.7771	0.121	-0.047
Mof_C 	C 	0.2317	0.8097	0.1265	0.223
Mof_C 	C 	0.1702	0.3753	0.6199	-0.229
Mof_N 	N 	0.1968	0.3758	0.6169	-0.137
Mof_C 	C 	0.226	0.4126	0.5622	0.022
Mof_C 	C 	0.2204	0.4374	0.541	-0.082
Mof_C 	C 	0.2389	0.4648	0.5424	-0.015
Mof_C 	C 	0.237	0.435	0.5326	0.048
Mof_C 	C 	0.2685	0.4426	0.5862	-0.002
Mof_C 	C 	0.2562	0.3301	0.6054	-0.124
Mof_C 	C 	0.2813	0.3221	0.5852	0.061
Mof_C 	C 	0.2842	0.2911	0.574	0.184
Mof_C 	C 	0.2621	0.2681	0.5829	-0.456
Mof_C 	C 	0.2371	0.2762	0.6031	-0.162
Mof_C 	C 	0.2342	0.3072	0.6143	-0.212
Mof_C 	C 	0.2525	0.3304	0.6113	0.003
Mof_C 	C 	0.2755	0.3187	0.5905	-0.094
Mof_C 	C 	0.2777	0.2861	0.585	-0.056
Mof_C 	C 	0.2569	0.2653	0.6003	0.544
Mof_C 	C 	0.2339	0.2771	0.621	-0.046
Mof_C 	C 	0.2317	0.3097	0.6265	0.224
Mof_C 	C 	0.0798	0.3747	0.1199	-0.23
Mof_N 	N 	0.0532	0.3742	0.1169	-0.137
Mof_C 	C 	0.024	0.3374	0.0622	0.022
Mof_C 	C 	0.0296	0.3126	0.041	-0.04
Mof_C 	C 	0.0111	0.2852	0.0424	-0.051
Mof_C 	C 	0.013	0.315	0.0326	0.011
Mof_C 	C 	0.9815	0.3074	0.0862	0.006
Mof_C 	C 	0.9938	0.4199	0.1054	-0.121
Mof_C 	C 	0.9687	0.4279	0.0852	0.06
Mof_C 	C 	0.9658	0.4589	0.074	0.168
Mof_C 	C 	0.9879	0.4819	0.0829	-0.414
Mof_C 	C 	0.0129	0.4738	0.1031	-0.14
Mof_C 	C 	0.0158	0.4428	0.1143	-0.2
Mof_C 	C 	0.9975	0.4196	0.1113	0
Mof_C 	C 	0.9745	0.4313	0.0905	-0.09
Mof_C 	C 	0.9723	0.4639	0.085	-0.052
Mof_C 	C 	0.9931	0.4847	0.1003	0.493
Mof_C 	C 	0.0161	0.4729	0.121	-0.051
Mof_C 	C 	0.0183	0.4403	0.1265	0.208
Mof_C 	C 	0.0798	0.8747	0.6199	-0.229
Mof_N 	N 	0.0532	0.8742	0.6169	-0.137
Mof_C 	C 	0.024	0.8374	0.5622	0.023
Mof_C 	C 	0.0296	0.8126	0.541	-0.045
Mof_C 	C 	0.0111	0.7852	0.5424	-0.048
Mof_C 	C 	0.013	0.815	0.5326	0.017
Mof_C 	C 	0.9815	0.8074	0.5862	0.006
Mof_C 	C 	0.9938	0.9199	0.6054	-0.121
Mof_C 	C 	0.9687	0.9279	0.5852	0.059
Mof_C 	C 	0.9658	0.9589	0.574	0.168
Mof_C 	C 	0.9879	0.9819	0.5829	-0.419
Mof_C 	C 	0.0129	0.9738	0.6031	-0.143
Mof_C 	C 	0.0158	0.9428	0.6143	-0.201
Mof_C 	C 	0.9975	0.9196	0.6113	0
Mof_C 	C 	0.9745	0.9313	0.5905	-0.089
Mof_C 	C 	0.9723	0.9639	0.585	-0.048
Mof_C 	C 	0.9931	0.9847	0.6003	0.499
Mof_C 	C 	0.0161	0.9729	0.621	-0.05
Mof_C 	C 	0.0183	0.9403	0.6265	0.21
Mof_C 	C 	0.5798	0.3747	0.6199	-0.229
Mof_N 	N 	0.5532	0.3742	0.6169	-0.137
Mof_C 	C 	0.524	0.3374	0.5622	0.022
Mof_C 	C 	0.5296	0.3126	0.541	-0.082
Mof_C 	C 	0.5111	0.2852	0.5424	-0.015
Mof_C 	C 	0.513	0.315	0.5326	0.048
Mof_C 	C 	0.4815	0.3074	0.5862	-0.002
Mof_C 	C 	0.4938	0.4199	0.6054	-0.124
Mof_C 	C 	0.4687	0.4279	0.5852	0.061
Mof_C 	C 	0.4658	0.4589	0.574	0.184
Mof_C 	C 	0.4879	0.4819	0.5829	-0.455
Mof_C 	C 	0.5129	0.4738	0.6031	-0.162
Mof_C 	C 	0.5158	0.4428	0.6143	-0.212
Mof_C 	C 	0.4975	0.4196	0.6113	0.003
Mof_C 	C 	0.4745	0.4313	0.5905	-0.094
Mof_C 	C 	0.4723	0.4639	0.585	-0.056
Mof_C 	C 	0.4931	0.4847	0.6003	0.544
Mof_C 	C 	0.5161	0.4729	0.621	-0.045
Mof_C 	C 	0.5183	0.4403	0.6265	0.224
Mof_C 	C 	0.5798	0.8747	0.1199	-0.229
Mof_N 	N 	0.5532	0.8742	0.1169	-0.137
Mof_C 	C 	0.524	0.8374	0.0622	0.021
Mof_C 	C 	0.5296	0.8126	0.041	-0.076
Mof_C 	C 	0.5111	0.7852	0.0424	-0.018
Mof_C 	C 	0.513	0.815	0.0326	0.042
Mof_C 	C 	0.4815	0.8074	0.0862	-0.001
Mof_C 	C 	0.4938	0.9199	0.1054	-0.124
Mof_C 	C 	0.4687	0.9279	0.0852	0.061
Mof_C 	C 	0.4658	0.9589	0.074	0.182
Mof_C 	C 	0.4879	0.9819	0.0829	-0.452
Mof_C 	C 	0.5129	0.9738	0.1031	-0.16
Mof_C 	C 	0.5158	0.9428	0.1143	-0.21
Mof_C 	C 	0.4975	0.9196	0.1113	0.002
Mof_C 	C 	0.4745	0.9313	0.0905	-0.094
Mof_C 	C 	0.4723	0.9639	0.085	-0.053
Mof_C 	C 	0.4931	0.9847	0.1003	0.539
Mof_C 	C 	0.5161	0.9729	0.121	-0.046
Mof_C 	C 	0.5183	0.9403	0.1265	0.222
Mof_C 	C 	0.5798	0.3753	0.1301	-0.229
Mof_N 	N 	0.5532	0.3758	0.1331	-0.137
Mof_C 	C 	0.524	0.4126	0.1878	0.022
Mof_C 	C 	0.5296	0.4374	0.209	-0.082
Mof_C 	C 	0.5111	0.4648	0.2076	-0.015
Mof_C 	C 	0.513	0.435	0.2174	0.048
Mof_C 	C 	0.4815	0.4426	0.1638	-0.002
Mof_C 	C 	0.4938	0.3301	0.1446	-0.124
Mof_C 	C 	0.4687	0.3221	0.1648	0.061
Mof_C 	C 	0.4658	0.2911	0.176	0.186
Mof_C 	C 	0.4879	0.2681	0.1671	-0.461
Mof_C 	C 	0.5129	0.2762	0.1469	-0.163
Mof_C 	C 	0.5158	0.3072	0.1357	-0.214
Mof_C 	C 	0.4975	0.3304	0.1387	0.003
Mof_C 	C 	0.4745	0.3187	0.1595	-0.095
Mof_C 	C 	0.4723	0.2861	0.165	-0.056
Mof_C 	C 	0.4931	0.2653	0.1497	0.55
Mof_C 	C 	0.5161	0.2771	0.129	-0.047
Mof_C 	C 	0.5183	0.3097	0.1235	0.226
Mof_C 	C 	0.5798	0.8753	0.6301	-0.229
Mof_N 	N 	0.5532	0.8758	0.6331	-0.137
Mof_C 	C 	0.524	0.9126	0.6878	0.022
Mof_C 	C 	0.5296	0.9374	0.709	-0.078
Mof_C 	C 	0.5111	0.9648	0.7076	-0.018
Mof_C 	C 	0.513	0.935	0.7174	0.046
Mof_C 	C 	0.4815	0.9426	0.6638	-0
Mof_C 	C 	0.4938	0.8301	0.6446	-0.124
Mof_C 	C 	0.4687	0.8221	0.6648	0.061
Mof_C 	C 	0.4658	0.7911	0.676	0.184
Mof_C 	C 	0.4879	0.7681	0.6671	-0.456
Mof_C 	C 	0.5129	0.7762	0.6469	-0.162
Mof_C 	C 	0.5158	0.8072	0.6357	-0.212
Mof_C 	C 	0.4975	0.8304	0.6387	0.003
Mof_C 	C 	0.4745	0.8187	0.6595	-0.094
Mof_C 	C 	0.4723	0.7861	0.665	-0.056
Mof_C 	C 	0.4931	0.7653	0.6497	0.545
Mof_C 	C 	0.5161	0.7771	0.629	-0.046
Mof_C 	C 	0.5183	0.8097	0.6235	0.224
Mof_C 	C 	0.0798	0.3753	0.6301	-0.229
Mof_N 	N 	0.0532	0.3758	0.6331	-0.137
Mof_C 	C 	0.024	0.4126	0.6878	0.023
Mof_C 	C 	0.0296	0.4374	0.709	-0.045
Mof_C 	C 	0.0111	0.4648	0.7076	-0.048
Mof_C 	C 	0.013	0.435	0.7174	0.017
Mof_C 	C 	0.9815	0.4426	0.6638	0.006
Mof_C 	C 	0.9938	0.3301	0.6446	-0.121
Mof_C 	C 	0.9687	0.3221	0.6648	0.06
Mof_C 	C 	0.9658	0.2911	0.676	0.169
Mof_C 	C 	0.9879	0.2681	0.6671	-0.418
Mof_C 	C 	0.0129	0.2762	0.6469	-0.142
Mof_C 	C 	0.0158	0.3072	0.6357	-0.201
Mof_C 	C 	0.9975	0.3304	0.6387	0
Mof_C 	C 	0.9745	0.3187	0.6595	-0.09
Mof_C 	C 	0.9723	0.2861	0.665	-0.051
Mof_C 	C 	0.9931	0.2653	0.6497	0.499
Mof_C 	C 	0.0161	0.2771	0.629	-0.05
Mof_C 	C 	0.0183	0.3097	0.6235	0.21
Mof_C 	C 	0.0798	0.8753	0.1301	-0.23
Mof_N 	N 	0.0532	0.8758	0.1331	-0.137
Mof_C 	C 	0.024	0.9126	0.1878	0.023
Mof_C 	C 	0.0296	0.9374	0.209	-0.042
Mof_C 	C 	0.0111	0.9648	0.2076	-0.051
Mof_C 	C 	0.013	0.935	0.2174	0.015
Mof_C 	C 	0.9815	0.9426	0.1638	0.008
Mof_C 	C 	0.9938	0.8301	0.1446	-0.121
Mof_C 	C 	0.9687	0.8221	0.1648	0.06
Mof_C 	C 	0.9658	0.7911	0.176	0.172
Mof_C 	C 	0.9879	0.7681	0.1671	-0.424
Mof_C 	C 	0.0129	0.7762	0.1469	-0.143
Mof_C 	C 	0.0158	0.8072	0.1357	-0.203
Mof_C 	C 	0.9975	0.8304	0.1387	0.001
Mof_C 	C 	0.9745	0.8187	0.1595	-0.09
Mof_C 	C 	0.9723	0.7861	0.165	-0.052
Mof_C 	C 	0.9931	0.7653	0.1497	0.505
Mof_C 	C 	0.0161	0.7771	0.129	-0.052
Mof_C 	C 	0.0183	0.8097	0.1235	0.212
Mof_Sn	Sn	0.62963	0.87963	-0	0.738
Mof_C 	C 	0.6652	0.9152	-0	-0.208
Mof_Sn	Sn	0.62963	0.37963	0.5	0.741
Mof_C 	C 	0.6652	0.4152	0.5	-0.206
Mof_Sn	Sn	0.12963	0.87963	0.5	0.741
Mof_C 	C 	0.1652	0.9152	0.5	-0.206
Mof_Sn	Sn	0.12963	0.37963	-0	0.737
Mof_C 	C 	0.1652	0.4152	-0	-0.208
Mof_Sn	Sn	0.62037	0.87037	0.5	0.742
Mof_C 	C 	0.5848	0.8348	0.5	-0.206
Mof_Sn	Sn	0.62037	0.37037	-0	0.738
Mof_C 	C 	0.5848	0.3348	-0	-0.208
Mof_Sn	Sn	0.12037	0.87037	-0	0.738
Mof_C 	C 	0.0848	0.8348	-0	-0.208
Mof_Sn	Sn	0.12037	0.37037	0.5	0.741
Mof_C 	C 	0.0848	0.3348	0.5	-0.206
Mof_Sn	Sn	0.12037	0.37963	0.25	0.741
Mof_C 	C 	0.0848	0.4152	0.25	-0.206
Mof_Sn	Sn	0.12037	0.87963	0.75	0.741
Mof_C 	C 	0.0848	0.9152	0.75	-0.206
Mof_Sn	Sn	0.62037	0.37963	0.75	0.741
Mof_C 	C 	0.5848	0.4152	0.75	-0.206
Mof_Sn	Sn	0.62037	0.87963	0.25	0.742
Mof_C 	C 	0.5848	0.9152	0.25	-0.206
Mof_Sn	Sn	0.12963	0.37037	0.75	0.741
Mof_C 	C 	0.1652	0.3348	0.75	-0.206
Mof_Sn	Sn	0.12963	0.87037	0.25	0.741
Mof_C 	C 	0.1652	0.8348	0.25	-0.206
Mof_Sn	Sn	0.62963	0.37037	0.25	0.741
Mof_C 	C 	0.6652	0.3348	0.25	-0.206
Mof_Sn	Sn	0.62963	0.87037	0.75	0.742
Mof_C 	C 	0.6652	0.8348	0.75	-0.206
Mof_Sn	Sn	3.29808e-33	0.62963	0.87963	0.738
Mof_C 	C 	3.43145e-33	0.6652	0.9152	-0.208
Mof_Sn	Sn	1.42338e-33	0.12963	0.37963	0.737
Mof_C 	C 	1.55675e-33	0.1652	0.4152	-0.208
Mof_Sn	Sn	0.5	0.62963	0.37963	0.741
Mof_C 	C 	0.5	0.6652	0.4152	-0.206
Mof_Sn	Sn	0.5	0.12963	0.87963	0.741
Mof_C 	C 	0.5	0.1652	0.9152	-0.206
Mof_Sn	Sn	0.5	0.62037	0.87037	0.742
Mof_C 	C 	0.5	0.5848	0.8348	-0.206
Mof_Sn	Sn	0.5	0.12037	0.37037	0.741
Mof_C 	C 	0.5	0.0848	0.3348	-0.206
Mof_Sn	Sn	1.38867e-33	0.62037	0.37037	0.738
Mof_C 	C 	3.98663e-33	0.5848	0.3348	-0.208
Mof_Sn	Sn	3.26336e-33	0.12037	0.87037	0.738
Mof_C 	C 	3.13e-33	0.0848	0.8348	-0.208
Mof_Sn	Sn	0.25	0.12037	0.37963	0.741
Mof_C 	C 	0.25	0.0848	0.4152	-0.206
Mof_Sn	Sn	0.25	0.62037	0.87963	0.742
Mof_C 	C 	0.25	0.5848	0.9152	-0.206
Mof_Sn	Sn	0.75	0.12037	0.87963	0.741
Mof_C 	C 	0.75	0.0848	0.9152	-0.206
Mof_Sn	Sn	0.75	0.62037	0.37963	0.741
Mof_C 	C 	0.75	0.5848	0.4152	-0.206
Mof_Sn	Sn	0.75	0.12963	0.37037	0.741
Mof_C 	C 	0.75	0.1652	0.3348	-0.206
Mof_Sn	Sn	0.75	0.62963	0.87037	0.742
Mof_C 	C 	0.75	0.6652	0.8348	-0.206
Mof_Sn	Sn	0.25	0.12963	0.87037	0.741
Mof_C 	C 	0.25	0.1652	0.8348	-0.206
Mof_Sn	Sn	0.25	0.62963	0.37037	0.741
Mof_C 	C 	0.25	0.6652	0.3348	-0.206
Mof_Sn	Sn	0.87963	0	0.62963	0.738
Mof_C 	C 	0.9152	5.46266e-33	0.6652	-0.208
Mof_Sn	Sn	0.87963	0.5	0.12963	0.741
Mof_C 	C 	0.9152	0.5	0.1652	-0.206
Mof_Sn	Sn	0.37963	0	0.12963	0.737
Mof_C 	C 	0.4152	0	0.1652	-0.208
Mof_Sn	Sn	0.37963	0.5	0.62963	0.741
Mof_C 	C 	0.4152	0.5	0.6652	-0.206
Mof_Sn	Sn	0.87037	0.5	0.62037	0.742
Mof_C 	C 	0.8348	0.5	0.5848	-0.206
Mof_Sn	Sn	0.87037	1.36566e-33	0.12037	0.738
Mof_C 	C 	0.8348	6.82832e-34	0.0848	-0.208
Mof_Sn	Sn	0.37037	0.5	0.12037	0.741
Mof_C 	C 	0.3348	0.5	0.0848	-0.206
Mof_Sn	Sn	0.37037	5.46266e-33	0.62037	0.738
Mof_C 	C 	0.3348	0	0.5848	-0.208
Mof_Sn	Sn	0.37963	0.25	0.12037	0.741
Mof_C 	C 	0.4152	0.25	0.0848	-0.206
Mof_Sn	Sn	0.37963	0.75	0.62037	0.741
Mof_C 	C 	0.4152	0.75	0.5848	-0.206
Mof_Sn	Sn	0.87963	0.25	0.62037	0.742
Mof_C 	C 	0.9152	0.25	0.5848	-0.206
Mof_Sn	Sn	0.87963	0.75	0.12037	0.741
Mof_C 	C 	0.9152	0.75	0.0848	-0.206
Mof_Sn	Sn	0.37037	0.75	0.12963	0.741
Mof_C 	C 	0.3348	0.75	0.1652	-0.206
Mof_Sn	Sn	0.37037	0.25	0.62963	0.741
Mof_C 	C 	0.3348	0.25	0.6652	-0.206
Mof_Sn	Sn	0.87037	0.75	0.62963	0.742
Mof_C 	C 	0.8348	0.75	0.6652	-0.206
Mof_Sn	Sn	0.87037	0.25	0.12963	0.741
Mof_C 	C 	0.8348	0.25	0.1652	-0.206
Mof_Sn	Sn	0.37037	0.12037	-0	0.737
Mof_C 	C 	0.3348	0.0848	-0	-0.208
Mof_Sn	Sn	0.37037	0.62037	0.5	0.741
Mof_C 	C 	0.3348	0.5848	0.5	-0.206
Mof_Sn	Sn	0.87037	0.12037	0.5	0.741
Mof_C 	C 	0.8348	0.0848	0.5	-0.206
Mof_Sn	Sn	0.87037	0.62037	-0	0.738
Mof_C 	C 	0.8348	0.5848	-0	-0.208
Mof_Sn	Sn	0.37963	0.12963	0.5	0.741
Mof_C 	C 	0.4152	0.1652	0.5	-0.206
Mof_Sn	Sn	0.37963	0.62963	-0	0.738
Mof_C 	C 	0.4152	0.6652	-0	-0.208
Mof_Sn	Sn	0.87963	0.12963	-0	0.738
Mof_C 	C 	0.9152	0.1652	-0	-0.208
Mof_Sn	Sn	0.87963	0.62963	0.5	0.742
Mof_C 	C 	0.9152	0.6652	0.5	-0.206
Mof_Sn	Sn	0.87963	0.62037	0.75	0.742
Mof_C 	C 	0.9152	0.5848	0.75	-0.206
Mof_Sn	Sn	0.87963	0.12037	0.25	0.741
Mof_C 	C 	0.9152	0.0848	0.25	-0.206
Mof_Sn	Sn	0.37963	0.62037	0.25	0.741
Mof_C 	C 	0.4152	0.5848	0.25	-0.206
Mof_Sn	Sn	0.37963	0.12037	0.75	0.741
Mof_C 	C 	0.4152	0.0848	0.75	-0.206
Mof_Sn	Sn	0.87037	0.62963	0.25	0.742
Mof_C 	C 	0.8348	0.6652	0.25	-0.206
Mof_Sn	Sn	0.87037	0.12963	0.75	0.741
Mof_C 	C 	0.8348	0.1652	0.75	-0.206
Mof_Sn	Sn	0.37037	0.62963	0.75	0.741
Mof_C 	C 	0.3348	0.6652	0.75	-0.206
Mof_Sn	Sn	0.37037	0.12963	0.25	0.741
Mof_C 	C 	0.3348	0.1652	0.25	-0.206
Mof_Sn	Sn	3.18264e-33	0.37037	0.12037	0.737
Mof_C 	C 	-1.04771e-33	0.3348	0.0848	-0.208
Mof_Sn	Sn	1.8714e-32	0.87037	0.62037	0.738
Mof_C 	C 	2.19265e-33	0.8348	0.5848	-0.208
Mof_Sn	Sn	0.5	0.37037	0.62037	0.741
Mof_C 	C 	0.5	0.3348	0.5848	-0.206
Mof_Sn	Sn	0.5	0.87037	0.12037	0.741
Mof_C 	C 	0.5	0.8348	0.0848	-0.206
Mof_Sn	Sn	0.5	0.37963	0.12963	0.741
Mof_C 	C 	0.5	0.4152	0.1652	-0.206
Mof_Sn	Sn	0.5	0.87963	0.62963	0.742
Mof_C 	C 	0.5	0.9152	0.6652	-0.206
Mof_Sn	Sn	2.36073e-33	0.37963	0.62963	0.738
Mof_C 	C 	2.4941e-33	0.4152	0.6652	-0.208
Mof_Sn	Sn	4.86035e-34	0.87963	0.12963	0.738
Mof_C 	C 	1.15447e-32	0.9152	0.1652	-0.208
Mof_Sn	Sn	0.75	0.87963	0.62037	0.742
Mof_C 	C 	0.75	0.9152	0.5848	-0.206
Mof_Sn	Sn	0.75	0.37963	0.12037	0.741
Mof_C 	C 	0.75	0.4152	0.0848	-0.206
Mof_Sn	Sn	0.25	0.87963	0.12037	0.741
Mof_C 	C 	0.25	0.9152	0.0848	-0.206
Mof_Sn	Sn	0.25	0.37963	0.62037	0.741
Mof_C 	C 	0.25	0.4152	0.5848	-0.206
Mof_Sn	Sn	0.25	0.87037	0.62963	0.742
Mof_C 	C 	0.25	0.8348	0.6652	-0.206
Mof_Sn	Sn	0.25	0.37037	0.12963	0.741
Mof_C 	C 	0.25	0.3348	0.1652	-0.206
Mof_Sn	Sn	0.75	0.87037	0.12963	0.741
Mof_C 	C 	0.75	0.8348	0.1652	-0.206
Mof_Sn	Sn	0.75	0.37037	0.62963	0.741
Mof_C 	C 	0.75	0.3348	0.6652	-0.206
Mof_Sn	Sn	0.12037	0	0.37037	0.737
Mof_C 	C 	0.0848	0	0.3348	-0.208
Mof_Sn	Sn	0.12037	0.5	0.87037	0.741
Mof_C 	C 	0.0848	0.5	0.8348	-0.206
Mof_Sn	Sn	0.62037	1.09253e-32	0.87037	0.738
Mof_C 	C 	0.5848	1.09253e-32	0.8348	-0.208
Mof_Sn	Sn	0.62037	0.5	0.37037	0.741
Mof_C 	C 	0.5848	0.5	0.3348	-0.206
Mof_Sn	Sn	0.12963	0.5	0.37963	0.741
Mof_C 	C 	0.1652	0.5	0.4152	-0.206
Mof_Sn	Sn	0.12963	0	0.87963	0.738
Mof_C 	C 	0.1652	1.09253e-32	0.9152	-0.208
Mof_Sn	Sn	0.62963	0.5	0.87963	0.742
Mof_C 	C 	0.6652	0.5	0.9152	-0.206
Mof_Sn	Sn	0.62963	2.73133e-33	0.37963	0.738
Mof_C 	C 	0.6652	0	0.4152	-0.208
Mof_Sn	Sn	0.62037	0.75	0.87963	0.742
Mof_C 	C 	0.5848	0.75	0.9152	-0.206
Mof_Sn	Sn	0.62037	0.25	0.37963	0.741
Mof_C 	C 	0.5848	0.25	0.4152	-0.206
Mof_Sn	Sn	0.12037	0.75	0.37963	0.741
Mof_C 	C 	0.0848	0.75	0.4152	-0.206
Mof_Sn	Sn	0.12037	0.25	0.87963	0.741
Mof_C 	C 	0.0848	0.25	0.9152	-0.206
Mof_Sn	Sn	0.62963	0.25	0.87037	0.742
Mof_C 	C 	0.6652	0.25	0.8348	-0.206
Mof_Sn	Sn	0.62963	0.75	0.37037	0.741
Mof_C 	C 	0.6652	0.75	0.3348	-0.206
Mof_Sn	Sn	0.12963	0.25	0.37037	0.741
Mof_C 	C 	0.1652	0.25	0.3348	-0.206
Mof_Sn	Sn	0.12963	0.75	0.87037	0.741
Mof_C 	C 	0.1652	0.75	0.8348	-0.206
Mof_Ni	Ni	0.625	0.875	0.125	1.04
Mof_Ni	Ni	0.625	0.375	0.625	1.04
Mof_Ni	Ni	0.625	0.875	0.625	1.04
Mof_Ni	Ni	0.125	0.375	0.125	1.04
Mof_Ni	Ni	0.125	0.375	0.625	1.04
Mof_Ni	Ni	0.125	0.875	0.125	1.04
Mof_Ni	Ni	0.125	0.625	0.875	1.04
Mof_Ni	Ni	0.625	0.625	0.875	1.04
Mof_Ni	Ni	0.125	0.125	0.375	1.04
Mof_Ni	Ni	0.625	0.125	0.375	1.04
Mof_Ni	Ni	0.875	0.125	0.625	1.04
Mof_Ni	Ni	0.375	0.625	0.625	1.04
Mof_Ni	Ni	0.875	0.625	0.625	1.04
Mof_Ni	Ni	0.875	0.125	0.125	1.04
Mof_Ni	Ni	0.375	0.125	0.125	1.04
Mof_Ni	Ni	0.375	0.625	0.125	1.04
Mof_Ni	Ni	0.625	0.875	0.875	1.04
Mof_Ni	Ni	0.625	0.375	0.375	1.04
Mof_Ni	Ni	0.625	0.875	0.375	1.04
Mof_Ni	Ni	0.125	0.375	0.875	1.04
Mof_Ni	Ni	0.125	0.375	0.375	1.04
Mof_Ni	Ni	0.125	0.875	0.875	1.04
Mof_Ni	Ni	0.375	0.375	0.125	1.04
Mof_Ni	Ni	0.375	0.875	0.125	1.04
Mof_Ni	Ni	0.375	0.375	0.625	1.04
Mof_Ni	Ni	0.875	0.375	0.625	1.04
Mof_Ni	Ni	0.875	0.875	0.125	1.04
Mof_Ni	Ni	0.875	0.875	0.625	1.04
Mof_Ni	Ni	0.875	0.125	0.375	1.04
Mof_Ni	Ni	0.375	0.125	0.375	1.04
Mof_Ni	Ni	0.875	0.625	0.875	1.04
Mof_Ni	Ni	0.375	0.625	0.875	1.04
Mof_Ni	Ni	0.375	0.125	0.875	1.04
Mof_Ni	Ni	0.375	0.625	0.375	1.04
Mof_Ni	Ni	0.875	0.625	0.375	1.04
Mof_Ni	Ni	0.875	0.125	0.875	1.04
Mof_Ni	Ni	0.875	0.375	0.125	1.04
Mof_Ni	Ni	0.375	0.875	0.625	1.04
Mof_Ni	Ni	0.125	0.875	0.375	1.04
Mof_Ni	Ni	0.625	0.375	0.875	1.04
Mof_Ni	Ni	0.875	0.625	0.125	1.04
Mof_Ni	Ni	0.375	0.125	0.625	1.04
Mof_Ni	Ni	0.625	0.125	0.875	1.04
Mof_Ni	Ni	0.625	0.625	0.375	1.04
Mof_Ni	Ni	0.125	0.625	0.375	1.04
Mof_Ni	Ni	0.125	0.125	0.875	1.04
Mof_Ni	Ni	0.125	0.875	0.625	1.04
Mof_Ni	Ni	0.625	0.375	0.125	1.04
_end
