data_functionalizedCrystal
_audit_creation_method	'EQeq! by Chris Wilmer'
_symmetry_space_group_name_H-M	'P1'
_symmetry_Int_Tables_number	1
_symmetry_cell_setting	triclinic
loop_
_symmetry_equiv_pos_as_xyz
  x,y,z
_cell_length_a	21.1658
_cell_length_b	29.0549
_cell_length_c	29.0549
_cell_angle_alpha	120
_cell_angle_beta	90
_cell_angle_gamma	90
loop_
_atom_site_label
_atom_site_type_symbol
_atom_site_fract_x
_atom_site_fract_y
_atom_site_fract_z
_atom_site_charge
Mof_Cu	Cu	6.52539e-33	0.48136	0.6741	0.889
Mof_Cu	Cu	0.5	0.86473	0.35411	0.929
Mof_Cu	Cu	0.2509	0.81768	0.8327	0.933
Mof_Cu	Cu	0.5	0.16922	0.51737	0.948
Mof_Cu	Cu	0.7491	0.81768	0.8327	0.933
Mof_Cu	Cu	0.5	0.64589	0.51062	0.929
Mof_Cu	Cu	0.25219	0.63352	0.49675	0.935
Mof_Cu	Cu	0.5	0.00579	0.17227	0.921
Mof_Cu	Cu	0.5	0.34815	0.83078	0.949
Mof_Cu	Cu	-1.63135e-33	0.02916	0.19473	0.883
Mof_Cu	Cu	-0	0.80527	0.83443	0.884
Mof_Cu	Cu	-3.26269e-33	0.61758	0.48676	0.881
Mof_Cu	Cu	0.25223	0.48409	0.66269	0.949
Mof_Cu	Cu	-6.52539e-33	0.86918	0.38242	0.882
Mof_Cu	Cu	0.74781	0.86323	0.36648	0.935
Mof_Cu	Cu	0.25219	0.50325	0.13677	0.936
Mof_Cu	Cu	0.74781	0.50325	0.13677	0.935
Mof_Cu	Cu	0.2509	0.1673	0.98498	0.929
Mof_Cu	Cu	0.7491	0.1673	0.98498	0.928
Mof_Cu	Cu	0.25223	0.1786	0.51591	0.949
Mof_Cu	Cu	6.52539e-33	0.19274	0.51864	0.89
Mof_Cu	Cu	0.25219	0.86323	0.36648	0.936
Mof_Cu	Cu	0.5	0.48938	0.13527	0.93
Mof_Cu	Cu	0.74777	0.48409	0.66269	0.948
Mof_Cu	Cu	1.95762e-32	0.16557	0.97084	0.882
Mof_Cu	Cu	0.25223	0.33731	0.8214	0.949
Mof_Cu	Cu	0.7491	0.01502	0.18232	0.929
Mof_Cu	Cu	0.2509	0.01502	0.18232	0.929
Mof_Cu	Cu	0.74777	0.1786	0.51591	0.948
Mof_Cu	Cu	-0	0.3259	0.80726	0.89
Mof_Cu	Cu	0.74781	0.63352	0.49675	0.935
Mof_Cu	Cu	0.5	0.82773	0.83352	0.928
Mof_Cu	Cu	0.5	0.16648	0.99421	0.92
Mof_Cu	Cu	0.74777	0.33731	0.8214	0.948
Mof_Cu	Cu	0.5	0.48263	0.65185	0.949
Mof_Cu	Cu	-4.89404e-33	0.51324	0.13082	0.882
Mof_P 	P 	0.36514	0.43891	0.09125	0.251
Mof_P 	P 	0.61513	0.2161	0.96688	0.259
Mof_P 	P 	0.38487	0.2161	0.96688	0.259
Mof_P 	P 	0.85804	0.62305	0.42426	0.248
Mof_P 	P 	0.13912	0.31976	0.76369	0.25
Mof_P 	P 	0.38675	0.23448	0.55703	0.261
Mof_P 	P 	0.36514	0.90875	0.34766	0.251
Mof_P 	P 	0.38675	0.44297	0.67745	0.261
Mof_P 	P 	0.14131	0.74746	0.78214	0.245
Mof_P 	P 	0.63437	0.3526	0.88203	0.251
Mof_P 	P 	0.63437	0.52943	0.6474	0.252
Mof_P 	P 	0.88097	0.44317	0.09086	0.256
Mof_P 	P 	0.6368	0.88669	0.88507	0.253
Mof_P 	P 	0.88169	0.35075	0.87894	0.26
Mof_P 	P 	0.14196	0.80121	0.37695	0.242
Mof_P 	P 	0.85869	0.03468	0.25254	0.243
Mof_P 	P 	0.85804	0.57574	0.19879	0.248
Mof_P 	P 	0.11903	0.90914	0.35231	0.249
Mof_P 	P 	0.61187	0.6261	0.42626	0.252
Mof_P 	P 	0.85869	0.74746	0.78214	0.25
Mof_P 	P 	0.61513	0.75078	0.7839	0.266
Mof_P 	P 	0.11831	0.52819	0.64925	0.255
Mof_P 	P 	0.88097	0.90914	0.35231	0.256
Mof_P 	P 	0.11706	0.88515	0.88536	0.255
Mof_P 	P 	0.86088	0.23631	0.55607	0.253
Mof_P 	P 	0.3632	0.88669	0.88507	0.254
Mof_P 	P 	0.61187	0.57374	0.19984	0.252
Mof_P 	P 	0.85869	0.21786	0.96532	0.243
Mof_P 	P 	0.13912	0.44393	0.68024	0.25
Mof_P 	P 	0.14196	0.62305	0.42426	0.242
Mof_P 	P 	0.85804	0.80121	0.37695	0.248
Mof_P 	P 	0.88169	0.12106	0.47181	0.26
Mof_P 	P 	0.38813	0.80016	0.3739	0.252
Mof_P 	P 	0.63486	0.90875	0.34766	0.251
Mof_P 	P 	0.63437	0.11797	0.47057	0.251
Mof_P 	P 	0.86088	0.31976	0.76369	0.253
Mof_P 	P 	0.11706	0.11464	0.99979	0.243
Mof_P 	P 	0.36514	0.65234	0.56109	0.252
Mof_P 	P 	0.36563	0.52943	0.6474	0.252
Mof_P 	P 	0.61187	0.80016	0.3739	0.252
Mof_P 	P 	0.61325	0.23448	0.55703	0.261
Mof_P 	P 	0.11831	0.12106	0.47181	0.254
Mof_P 	P 	0.36563	0.3526	0.88203	0.252
Mof_P 	P 	0.38675	0.32255	0.76552	0.261
Mof_P 	P 	0.36563	0.11797	0.47057	0.252
Mof_P 	P 	0.61325	0.44297	0.67745	0.261
Mof_P 	P 	0.88294	0.11464	0.99979	0.251
Mof_P 	P 	0.88169	0.52819	0.64925	0.26
Mof_P 	P 	0.38487	0.03312	0.24922	0.259
Mof_P 	P 	0.38487	0.75078	0.7839	0.266
Mof_P 	P 	0.14131	0.03468	0.25254	0.238
Mof_P 	P 	0.14131	0.21786	0.96532	0.238
Mof_P 	P 	0.3632	0.11493	0.00162	0.28
Mof_P 	P 	0.13912	0.23631	0.55607	0.25
Mof_P 	P 	0.11903	0.44317	0.09086	0.249
Mof_P 	P 	0.3632	0.99838	0.11331	0.281
Mof_P 	P 	0.63486	0.43891	0.09125	0.251
Mof_P 	P 	0.11903	0.64769	0.55683	0.249
Mof_P 	P 	0.63486	0.65234	0.56109	0.252
Mof_P 	P 	0.14196	0.57574	0.19879	0.242
Mof_P 	P 	0.38813	0.57374	0.19984	0.252
Mof_P 	P 	0.88097	0.64769	0.55683	0.257
Mof_P 	P 	0.88294	0.00021	0.11485	0.251
Mof_P 	P 	0.11706	0.00021	0.11485	0.243
Mof_P 	P 	0.6368	0.11493	0.00162	0.28
Mof_P 	P 	0.86088	0.44393	0.68024	0.253
Mof_P 	P 	0.61325	0.32255	0.76552	0.261
Mof_P 	P 	0.88294	0.88515	0.88536	0.263
Mof_P 	P 	0.6368	0.99838	0.11331	0.28
Mof_P 	P 	0.11831	0.35075	0.87894	0.254
Mof_P 	P 	0.38813	0.6261	0.42626	0.252
Mof_P 	P 	0.61513	0.03312	0.24922	0.259
Mof_H 	H 	0.19046	0.22087	0.34176	0.057
Mof_H 	H 	0.40119	0.82425	0.23661	-0.008
Mof_H 	H 	0.85872	0.41382	0.75857	0.042
Mof_H 	H 	0.20169	0.88415	0.214	0.074
Mof_H 	H 	0.44512	0.88383	0.21334	0.066
Mof_H 	H 	0.82843	0.49701	0.30189	0.073
Mof_H 	H 	0.83862	0.89034	0.10226	0.005
Mof_H 	H 	0.79693	0.46263	0.40324	0.062
Mof_H 	H 	0.30923	0.53597	0.98855	0.052
Mof_H 	H 	0.06646	0.84045	0.16835	0.041
Mof_H 	H 	0.1444	0.00668	0.83137	0.04
Mof_H 	H 	0.85915	0.56651	0.30164	0.046
Mof_H 	H 	0.62288	0.75775	0.68804	0.103
Mof_H 	H 	0.19691	0.16253	0.73313	0.065
Mof_H 	H 	0.66554	0.83555	0.61319	0.056
Mof_H 	H 	0.62454	0.00395	0.4516	0.085
Mof_H 	H 	0.96245	0.90211	0.76036	0.099
Mof_H 	H 	0.97096	0.49536	0.92106	0.11
Mof_H 	H 	0.72925	0.07744	0.57309	0.067
Mof_H 	H 	0.38866	0.82492	0.99307	0.057
Mof_H 	H 	0.8295	0.43643	0.8119	0.103
Mof_H 	H 	0.40246	0.43975	0.5363	-0.009
Mof_H 	H 	0.55946	0.26678	0.43049	0.074
Mof_H 	H 	0.84156	0.82678	0.24087	0.001
Mof_H 	H 	0.36258	0.61108	0.05539	0.054
Mof_H 	H 	0.79727	0.07069	0.8261	0.068
Mof_H 	H 	0.09883	0.07099	0.60871	0.037
Mof_H 	H 	0.09694	0.29884	0.52031	-0.026
Mof_H 	H 	0.44434	0.88214	0.02371	0.067
Mof_H 	H 	0.55488	0.32951	0.11617	0.066
Mof_H 	H 	0.8961	0.93078	0.74074	0.062
Mof_H 	H 	0.30923	0.45258	0.46403	0.059
Mof_H 	H 	0.64441	0.14712	0.7166	0.057
Mof_H 	H 	0.6346	0.99981	0.88977	0.086
Mof_H 	H 	0.76667	0.85688	0.52174	0.068
Mof_H 	H 	0.02904	0.49536	0.92106	0.021
Mof_H 	H 	0.38562	0.5669	0.30307	0.042
Mof_H 	H 	0.69077	0.53597	0.98855	0.052
Mof_H 	H 	0.52439	0.47939	0.33514	0.057
Mof_H 	H 	0.85881	0.63206	0.74733	0.044
Mof_H 	H 	0.33965	0.39119	0.4614	0.052
Mof_H 	H 	0.23471	0.48478	0.82325	0.079
Mof_H 	H 	0.62281	0.98361	0.50302	0.071
Mof_H 	H 	0.69089	0.83978	0.16606	0.059
Mof_H 	H 	0.88804	0.2835	0.42945	0.068
Mof_H 	H 	0.97299	0.79013	0.60678	0.116
Mof_H 	H 	0.40779	0.13221	0.6411	0.059
Mof_H 	H 	0.09461	0.77877	0.16635	0.041
Mof_H 	H 	0.1444	0.16863	0.17531	0.06
Mof_H 	H 	0.122	0.1102	0.11034	0.082
Mof_H 	H 	0.41288	0.49793	0.30247	0.068
Mof_H 	H 	0.55566	0.97629	0.85843	0.066
Mof_H 	H 	0.20099	0.88131	0.02293	0.07
Mof_H 	H 	0.90117	0.07099	0.60871	0.059
Mof_H 	H 	0.86588	0.31195	0.06892	0.107
Mof_H 	H 	0.29595	0.82402	0.02452	0.069
Mof_H 	H 	0.80954	0.65824	0.87911	0.059
Mof_H 	H 	0.87746	0.14921	0.21687	0.079
Mof_H 	H 	0.17157	0.69811	0.19512	0.068
Mof_H 	H 	0.20307	0.46263	0.40324	0.061
Mof_H 	H 	0.62166	0.57233	0.79246	0.091
Mof_H 	H 	0.83915	0.87149	0.56307	0.061
Mof_H 	H 	0.6274	0.87335	0.173	0.072
Mof_H 	H 	0.85872	0.24143	0.65525	0.042
Mof_H 	H 	0.40427	0.21327	0.11177	-0.006
Mof_H 	H 	0.83915	0.69158	0.12851	0.061
Mof_H 	H 	0.97299	0.81665	0.20987	0.115
Mof_H 	H 	0.86833	0.21391	0.27957	0.062
Mof_H 	H 	0.37712	0.75775	0.68804	0.103
Mof_H 	H 	0.66035	0.07021	0.60881	0.05
Mof_H 	H 	0.35559	0.2834	0.43052	0.058
Mof_H 	H 	0.3654	0.88996	0.00019	0.087
Mof_H 	H 	0.38442	0.34309	0.58525	0.041
Mof_H 	H 	0.52353	0.48203	0.82178	0.065
Mof_H 	H 	0.69277	0.91468	0.99813	0.013
Mof_H 	H 	0.12842	0.87323	0.17437	0.069
Mof_H 	H 	0.09595	0.70358	0.84122	-0.028
Mof_H 	H 	0.23333	0.85688	0.52174	0.069
Mof_H 	H 	0.61438	0.94946	0.49642	0.062
Mof_H 	H 	0.44054	0.56951	0.83629	0.073
Mof_H 	H 	0.878	0.1102	0.11034	0.083
Mof_H 	H 	0.65509	0.56272	0.57742	0.021
Mof_H 	H 	0.72029	0.90281	0.76085	0.067
Mof_H 	H 	0.3869	0.73088	0.67207	-0.009
Mof_H 	H 	0.20307	0.94061	0.53737	0.065
Mof_H 	H 	0.88804	0.57055	0.85405	0.066
Mof_H 	H 	0.63742	0.61108	0.05539	0.054
Mof_H 	H 	0.05347	0.97484	0.79882	0.042
Mof_H 	H 	0.72925	0.49565	0.92256	0.067
Mof_H 	H 	0.09595	0.13764	0.29642	-0.028
Mof_H 	H 	0.36258	0.44431	0.38892	0.05
Mof_H 	H 	0.30911	0.32628	0.16022	0.058
Mof_H 	H 	0.12254	0.06766	0.85079	0.066
Mof_H 	H 	0.70405	0.97548	0.7995	0.069
Mof_H 	H 	0.05347	0.20118	0.17602	0.037
Mof_H 	H 	0.88804	0.14595	0.7165	0.066
Mof_H 	H 	0.6346	0.88996	0.00019	0.086
Mof_H 	H 	0.06675	0.53533	0.98744	0.034
Mof_H 	H 	0.40246	0.4637	0.90345	-0.011
Mof_H 	H 	0.1039	0.93078	0.74074	0.045
Mof_H 	H 	0.66035	0.39119	0.4614	0.052
Mof_H 	H 	0.13412	0.93108	0.24303	0.098
Mof_H 	H 	0.89456	0.56069	0.57623	0.032
Mof_H 	H 	0.52439	0.66486	0.14425	0.057
Mof_H 	H 	0.16469	0.36197	0.49396	0.061
Mof_H 	H 	0.34037	0.22347	0.70274	-0.003
Mof_H 	H 	0.23337	0.66384	0.82619	0.08
Mof_H 	H 	0.73151	0.81788	0.20868	0.071
Mof_H 	H 	0.84166	0.18974	0.81515	0.066
Mof_H 	H 	0.17157	0.80488	0.50299	0.068
Mof_H 	H 	0.16138	0.21192	0.10966	0.004
Mof_H 	H 	0.88169	0.44383	0.38853	0.061
Mof_H 	H 	0.55488	0.88383	0.21334	0.066
Mof_H 	H 	0.93325	0.45211	0.46467	0.08
Mof_H 	H 	0.09461	0.38758	0.22123	0.04
Mof_H 	H 	0.90405	0.15878	0.86236	-0.001
Mof_H 	H 	0.69077	0.45258	0.46403	0.06
Mof_H 	H 	0.76667	0.47826	0.33514	0.068
Mof_H 	H 	0.5914	0.43798	0.81408	0.098
Mof_H 	H 	0.47561	0.85575	0.52061	0.057
Mof_H 	H 	0.11196	0.57055	0.85405	0.044
Mof_H 	H 	0.38562	0.54696	0.05054	0.062
Mof_H 	H 	0.96245	0.23964	0.14175	0.1
Mof_H 	H 	0.15844	0.82678	0.24087	0.002
Mof_H 	H 	0.20099	0.14162	0.11869	0.074
Mof_H 	H 	0.14128	0.54744	0.05068	0.058
Mof_H 	H 	0.40427	0.88823	0.1015	-0.004
Mof_H 	H 	0.37712	0.93029	0.24225	0.108
Mof_H 	H 	0.33965	0.07021	0.60881	0.05
Mof_H 	H 	0.33965	0.5386	0.92979	0.05
Mof_H 	H 	0.83531	0.50604	0.86801	0.064
Mof_H 	H 	0.34491	0.56272	0.57742	0.021
Mof_H 	H 	0.90461	0.52102	0.37712	0.001
Mof_H 	H 	0.09883	0.53772	0.92901	0.037
Mof_H 	H 	0.6131	0.94119	0.26912	-0.014
Mof_H 	H 	0.14337	0.94178	0.27059	-0.002
Mof_H 	H 	0.37719	0.98361	0.50302	0.071
Mof_H 	H 	0.86682	0.44924	0.99706	0.085
Mof_H 	H 	0.61558	0.34309	0.58525	0.041
Mof_H 	H 	0.85663	0.32881	0.05822	-0.006
Mof_H 	H 	0.83915	0.43693	0.30842	0.06
Mof_H 	H 	0.90117	0.39129	0.46228	0.061
Mof_H 	H 	0.88169	0.61147	0.0553	0.065
Mof_H 	H 	0.09694	0.22147	0.70116	-0.026
Mof_H 	H 	0.40246	0.09655	0.56025	-0.011
Mof_H 	H 	0.79901	0.97707	0.85838	0.067
Mof_H 	H 	0.44434	0.14157	0.11786	0.068
Mof_H 	H 	0.16469	0.13199	0.63803	0.06
Mof_H 	H 	0.122	0.00014	0.8898	0.06
Mof_H 	H 	0.44725	0.93965	0.53643	0.065
Mof_H 	H 	0.61134	0.82492	0.99307	0.058
Mof_H 	H 	0.58712	0.49793	0.30247	0.068
Mof_H 	H 	0.26849	0.81788	0.20868	0.071
Mof_H 	H 	0.15834	0.62541	0.81026	0.061
Mof_H 	H 	0.86833	0.06566	0.78609	0.058
Mof_H 	H 	0.87746	0.06766	0.85079	0.078
Mof_H 	H 	0.13167	0.72043	0.93434	0.041
Mof_H 	H 	0.38562	0.50358	0.45304	0.064
Mof_H 	H 	0.8556	0.16863	0.17531	0.063
Mof_H 	H 	0.36258	0.94461	0.55569	0.054
Mof_H 	H 	0.03755	0.23964	0.14175	0.036
Mof_H 	H 	0.20313	0.5036	0.52214	0.074
Mof_H 	H 	0.61438	0.54696	0.05054	0.062
Mof_H 	H 	0.13472	0.57297	0.7934	0.069
Mof_H 	H 	0.85872	0.34475	0.58618	0.042
Mof_H 	H 	0.19691	0.26687	0.4294	0.066
Mof_H 	H 	0.30911	0.83978	0.16606	0.059
Mof_H 	H 	0.55387	0.4762	0.98128	0.062
Mof_H 	H 	0.63742	0.44431	0.38892	0.051
Mof_H 	H 	0.03755	0.85825	0.09789	0.036
Mof_H 	H 	0.44054	0.26678	0.43049	0.074
Mof_H 	H 	0.16085	0.43693	0.30842	0.051
Mof_H 	H 	0.10544	0.42377	0.98446	0.022
Mof_H 	H 	0.6131	0.73088	0.67207	-0.009
Mof_H 	H 	0.5914	0.18592	0.6239	0.098
Mof_H 	H 	0.85915	0.73513	0.43349	0.047
Mof_H 	H 	0.69277	0.08345	0.08532	0.032
Mof_H 	H 	0.13472	0.2066	0.77957	0.069
Mof_H 	H 	0.122	0.88966	0.99986	0.06
Mof_H 	H 	0.70405	0.82402	0.02452	0.069
Mof_H 	H 	0.1705	0.43643	0.8119	0.102
Mof_H 	H 	0.55275	0.93965	0.53643	0.065
Mof_H 	H 	0.878	0.00014	0.8898	0.062
Mof_H 	H 	0.27075	0.07744	0.57309	0.067
Mof_H 	H 	0.93325	0.53533	0.98744	0.073
Mof_H 	H 	0.79901	0.88131	0.02293	0.069
Mof_H 	H 	0.69277	0.00187	0.91655	0.014
Mof_H 	H 	0.6131	0.32793	0.05881	-0.014
Mof_H 	H 	0.80309	0.5706	0.83747	0.066
Mof_H 	H 	0.20313	0.01854	0.4964	0.074
Mof_H 	H 	0.33446	0.83555	0.61319	0.056
Mof_H 	H 	0.66554	0.77764	0.16445	0.056
Mof_H 	H 	0.64441	0.56948	0.85288	0.057
Mof_H 	H 	0.1039	0.80996	0.06922	0.044
Mof_H 	H 	0.79693	0.59676	0.05939	0.066
Mof_H 	H 	0.3726	0.827	0.70035	0.071
Mof_H 	H 	0.37834	0.22013	0.42767	0.091
Mof_H 	H 	0.59573	0.88823	0.1015	-0.004
Mof_H 	H 	0.85872	0.54744	0.05068	0.063
Mof_H 	H 	0.55946	0.56951	0.83629	0.073
Mof_H 	H 	0.33815	0.85648	0.47806	-0.003
Mof_H 	H 	0.12254	0.78313	0.93234	0.065
Mof_H 	H 	0.62288	0.93029	0.24225	0.108
Mof_H 	H 	0.3869	0.94119	0.26912	-0.014
Mof_H 	H 	0.37834	0.20754	0.77987	0.091
Mof_H 	H 	0.73151	0.79132	0.6092	0.071
Mof_H 	H 	0.3654	0.11023	0.11004	0.083
Mof_H 	H 	0.83862	0.21192	0.10966	0.002
Mof_H 	H 	0.61187	0.63403	0.74807	0.051
Mof_H 	H 	0.72029	0.23915	0.14196	0.067
Mof_H 	H 	0.02701	0.79013	0.60678	0.016
Mof_H 	H 	0.61438	0.50358	0.45304	0.064
Mof_H 	H 	0.79687	0.5036	0.52214	0.072
Mof_H 	H 	0.47647	0.17822	0.66025	0.065
Mof_H 	H 	0.02904	0.4257	0.50464	0.021
Mof_H 	H 	0.06355	0.08379	0.08578	0.021
Mof_H 	H 	0.97096	0.4257	0.50464	0.111
Mof_H 	H 	0.94653	0.97484	0.79882	0.09
Mof_H 	H 	0.1705	0.1881	0.62453	0.102
Mof_H 	H 	0.29595	0.97548	0.7995	0.069
Mof_H 	H 	0.33446	0.77764	0.16445	0.056
Mof_H 	H 	0.4086	0.3761	0.56202	0.099
Mof_H 	H 	0.19046	0.12089	0.77913	0.055
Mof_H 	H 	0.90405	0.70358	0.84122	-0.001
Mof_H 	H 	0.59881	0.82425	0.23661	-0.008
Mof_H 	H 	0.55566	0.14157	0.11786	0.068
Mof_H 	H 	0.93645	0.00199	0.91621	0.038
Mof_H 	H 	0.41288	0.80454	0.50207	0.068
Mof_H 	H 	0.09539	0.52102	0.37712	-0.026
Mof_H 	H 	0.84166	0.62541	0.81026	0.066
Mof_H 	H 	0.44054	0.16371	0.73322	0.073
Mof_H 	H 	0.86682	0.00294	0.45218	0.085
Mof_H 	H 	0.66554	0.38681	0.22236	0.055
Mof_H 	H 	0.34554	0.80923	0.06847	0.057
Mof_H 	H 	0.27971	0.85804	0.09719	0.067
Mof_H 	H 	0.09539	0.62288	0.1439	-0.025
Mof_H 	H 	0.40119	0.41236	0.17575	-0.008
Mof_H 	H 	0.13318	0.44924	0.99706	0.088
Mof_H 	H 	0.4086	0.43798	0.81408	0.099
Mof_H 	H 	0.14119	0.25267	0.88473	0.038
Mof_H 	H 	0.79687	0.47786	0.98146	0.072
Mof_H 	H 	0.55566	0.88214	0.02371	0.067
Mof_H 	H 	0.62166	0.22013	0.42767	0.091
Mof_H 	H 	0.61438	0.69693	0.26383	0.042
Mof_H 	H 	0.8295	0.37547	0.56357	0.104
Mof_H 	H 	0.55387	0.50508	0.5238	0.062
Mof_H 	H 	0.09883	0.39129	0.46228	0.039
Mof_H 	H 	0.55488	0.78666	0.67049	0.065
Mof_H 	H 	0.65963	0.47927	0.77653	-0.003
Mof_H 	H 	0.69077	0.01145	0.54742	0.053
Mof_H 	H 	0.3726	0.29965	0.12665	0.072
Mof_H 	H 	0.12842	0.30114	0.12677	0.068
Mof_H 	H 	0.14128	0.50324	0.45256	0.06
Mof_H 	H 	0.47561	0.47939	0.33514	0.057
Mof_H 	H 	0.59754	0.4637	0.90345	-0.011
Mof_H 	H 	0.79693	0.94061	0.53737	0.066
Mof_H 	H 	0.86528	0.57297	0.7934	0.079
Mof_H 	H 	0.41288	0.69753	0.19546	0.068
Mof_H 	H 	0.30723	0.00187	0.91655	0.014
Mof_H 	H 	0.16469	0.50604	0.86801	0.06
Mof_H 	H 	0.33815	0.52194	0.37842	-0.003
Mof_H 	H 	0.15844	0.75913	0.58591	0.002
Mof_H 	H 	0.97299	0.39322	0.18335	0.115
Mof_H 	H 	0.38813	0.11404	0.36597	0.051
Mof_H 	H 	0.14119	0.11527	0.36794	0.038
Mof_H 	H 	0.30723	0.91468	0.99813	0.013
Mof_H 	H 	0.8961	0.80996	0.06922	0.062
Mof_H 	H 	0.61438	0.5669	0.30307	0.042
Mof_H 	H 	0.69089	0.83394	0.67372	0.059
Mof_H 	H 	0.11196	0.14595	0.7165	0.044
Mof_H 	H 	0.65509	0.42258	0.9853	0.023
Mof_H 	H 	0.14128	0.94932	0.49676	0.058
Mof_H 	H 	0.1039	0.25926	0.19004	0.042
Mof_H 	H 	0.94653	0.82398	0.02516	0.09
Mof_H 	H 	0.93645	0.91422	0.99801	0.037
Mof_H 	H 	0.85915	0.69836	0.26487	0.046
Mof_H 	H 	0.20169	0.32985	0.11585	0.074
Mof_H 	H 	0.09461	0.83365	0.61242	0.041
Mof_H 	H 	0.80954	0.12089	0.77913	0.059
Mof_H 	H 	0.76529	0.33847	0.51522	0.078
Mof_H 	H 	0.86528	0.22043	0.42703	0.079
Mof_H 	H 	0.878	0.88966	0.99986	0.063
Mof_H 	H 	0.61134	0.00693	0.83185	0.058
Mof_H 	H 	0.66185	0.62158	0.14352	-0.003
Mof_H 	H 	0.12842	0.82563	0.69886	0.068
Mof_H 	H 	0.23337	0.16235	0.33616	0.081
Mof_H 	H 	0.44613	0.01872	0.49492	0.063
Mof_H 	H 	0.13318	0.54782	0.55076	0.088
Mof_H 	H 	0.6346	0.11023	0.11004	0.083
Mof_H 	H 	0.38866	0.16815	0.17508	0.075
Mof_H 	H 	0.86588	0.93108	0.24303	0.107
Mof_H 	H 	0.15912	0.44117	0.53968	-0.002
Mof_H 	H 	0.15834	0.18974	0.81515	0.061
Mof_H 	H 	0.11831	0.61147	0.0553	0.046
Mof_H 	H 	0.55387	0.01872	0.49492	0.063
Mof_H 	H 	0.30911	0.83394	0.67372	0.058
Mof_H 	H 	0.44434	0.97629	0.85843	0.066
Mof_H 	H 	0.61187	0.25193	0.88596	0.051
Mof_H 	H 	0.06675	0.45211	0.46467	0.041
Mof_H 	H 	0.80309	0.26687	0.4294	0.067
Mof_H 	H 	0.59221	0.3589	0.49111	0.06
Mof_H 	H 	0.55275	0.59678	0.06035	0.065
Mof_H 	H 	0.76663	0.66384	0.82619	0.079
Mof_H 	H 	0.40779	0.50889	0.86779	0.059
Mof_H 	H 	0.82843	0.80488	0.50299	0.074
Mof_H 	H 	0.93645	0.08379	0.08578	0.052
Mof_H 	H 	0.06646	0.83165	0.6721	0.041
Mof_H 	H 	0.79831	0.88415	0.214	0.074
Mof_H 	H 	0.23471	0.33847	0.51522	0.079
Mof_H 	H 	0.76529	0.48478	0.82325	0.078
Mof_H 	H 	0.65963	0.22347	0.70274	-0.003
Mof_H 	H 	0.62454	0.44765	0.99605	0.085
Mof_H 	H 	0.59221	0.50889	0.86779	0.059
Mof_H 	H 	0.10544	0.56069	0.57623	0.019
Mof_H 	H 	0.40119	0.76339	0.58764	-0.008
Mof_H 	H 	0.85872	0.94932	0.49676	0.063
Mof_H 	H 	0.20273	0.1739	0.24459	0.071
Mof_H 	H 	0.80309	0.16253	0.73313	0.066
Mof_H 	H 	0.86682	0.54782	0.55076	0.086
Mof_H 	H 	0.80954	0.22087	0.34176	0.06
Mof_H 	H 	0.20313	0.47786	0.98146	0.074
Mof_H 	H 	0.40307	0.43796	0.30933	0.053
Mof_H 	H 	0.29595	0.2005	0.17598	0.063
Mof_H 	H 	0.61134	0.16815	0.17508	0.075
Mof_H 	H 	0.16085	0.87149	0.56307	0.052
Mof_H 	H 	0.64441	0.2834	0.43052	0.059
Mof_H 	H 	0.97096	0.07894	0.5743	0.11
Mof_H 	H 	0.76663	0.16235	0.33616	0.08
Mof_H 	H 	0.62281	0.49698	0.48059	0.054
Mof_H 	H 	0.58712	0.80454	0.50207	0.068
Mof_H 	H 	0.59221	0.13221	0.6411	0.059
Mof_H 	H 	0.72925	0.42691	0.50435	0.068
Mof_H 	H 	0.35559	0.14712	0.7166	0.057
Mof_H 	H 	0.09595	0.15878	0.86236	-0.028
Mof_H 	H 	0.86833	0.72043	0.93434	0.058
Mof_H 	H 	0.87746	0.78313	0.93234	0.078
Mof_H 	H 	0.34037	0.29726	0.52073	-0.003
Mof_H 	H 	0.10544	0.01554	0.43931	0.022
Mof_H 	H 	0.11831	0.9447	0.55617	0.046
Mof_H 	H 	0.90306	0.29884	0.52031	-0.001
Mof_H 	H 	0.19691	0.5706	0.83747	0.065
Mof_H 	H 	0.52353	0.17822	0.66025	0.065
Mof_H 	H 	0.84088	0.44117	0.53968	-0.002
Mof_H 	H 	0.93354	0.83165	0.6721	0.078
Mof_H 	H 	0.90539	0.83365	0.61242	0.067
Mof_H 	H 	0.02701	0.81665	0.20987	0.017
Mof_H 	H 	0.61558	0.24216	0.65691	0.041
Mof_H 	H 	0.90306	0.22147	0.70116	-0.001
Mof_H 	H 	0.11831	0.44383	0.38853	0.042
Mof_H 	H 	0.59881	0.41236	0.17575	-0.008
Mof_H 	H 	0.65446	0.80923	0.06847	0.057
Mof_H 	H 	0.14337	0.72941	0.67119	0.003
Mof_H 	H 	0.87158	0.30114	0.12677	0.074
Mof_H 	H 	0.86665	0.98462	0.50509	0.071
Mof_H 	H 	0.69089	0.32628	0.16022	0.059
Mof_H 	H 	0.26849	0.79132	0.6092	0.071
Mof_H 	H 	0.88169	0.9447	0.55617	0.065
Mof_H 	H 	0.47561	0.66486	0.14425	0.057
Mof_H 	H 	0.5914	0.3761	0.56202	0.099
Mof_H 	H 	0.86528	0.2066	0.77957	0.079
Mof_H 	H 	0.27075	0.49565	0.92256	0.067
Mof_H 	H 	0.66185	0.52194	0.37842	-0.004
Mof_H 	H 	0.37712	0.31196	0.06971	0.108
Mof_H 	H 	0.70405	0.2005	0.17598	0.063
Mof_H 	H 	0.34554	0.93153	0.74076	0.057
Mof_H 	H 	0.83862	0.89774	0.78808	0.003
Mof_H 	H 	0.62454	0.5484	0.55235	0.086
Mof_H 	H 	0.02701	0.39322	0.18335	0.016
Mof_H 	H 	0.8961	0.25926	0.19004	0.06
Mof_H 	H 	0.02904	0.07894	0.5743	0.021
Mof_H 	H 	0.38562	0.73617	0.4331	0.042
Mof_H 	H 	0.55275	0.46357	0.40322	0.063
Mof_H 	H 	0.83531	0.13199	0.63803	0.064
Mof_H 	H 	0.84166	0.18485	0.37459	0.066
Mof_H 	H 	0.73151	0.3908	0.18212	0.071
Mof_H 	H 	0.13335	0.52047	0.01538	0.069
Mof_H 	H 	0.79687	0.01854	0.4964	0.072
Mof_H 	H 	0.84088	0.46032	0.90149	-0.004
Mof_H 	H 	0.62288	0.31196	0.06971	0.108
Mof_H 	H 	0.1444	0.82469	0.99332	0.039
Mof_H 	H 	0.47647	0.48203	0.82178	0.065
Mof_H 	H 	0.3654	0.99981	0.88977	0.086
Mof_H 	H 	0.85663	0.72941	0.67119	-0.001
Mof_H 	H 	0.59881	0.76339	0.58764	-0.008
Mof_H 	H 	0.14085	0.73513	0.43349	0.037
Mof_H 	H 	0.05347	0.82398	0.02516	0.043
Mof_H 	H 	0.79831	0.786	0.67015	0.073
Mof_H 	H 	0.33815	0.62158	0.14352	-0.003
Mof_H 	H 	0.30723	0.08345	0.08532	0.032
Mof_H 	H 	0.58712	0.69753	0.19546	0.068
Mof_H 	H 	0.15912	0.46032	0.90149	-0.003
Mof_H 	H 	0.72029	0.85804	0.09719	0.068
Mof_H 	H 	0.84156	0.75913	0.58591	0.001
Mof_H 	H 	0.83531	0.36197	0.49396	0.065
Mof_H 	H 	0.96245	0.85825	0.09789	0.099
Mof_H 	H 	0.16138	0.89034	0.10226	0.006
Mof_H 	H 	0.38866	0.00693	0.83185	0.058
Mof_H 	H 	0.06675	0.01256	0.54789	0.034
Mof_H 	H 	0.52439	0.85575	0.52061	0.057
Mof_H 	H 	0.8556	0.82469	0.99332	0.043
Mof_H 	H 	0.37546	0.44765	0.99605	0.085
Mof_H 	H 	0.13167	0.21391	0.27957	0.045
Mof_H 	H 	0.93354	0.3279	0.15955	0.078
Mof_H 	H 	0.87158	0.87323	0.17437	0.074
Mof_H 	H 	0.37719	0.49698	0.48059	0.054
Mof_H 	H 	0.94653	0.20118	0.17602	0.085
Mof_H 	H 	0.4086	0.18592	0.6239	0.099
Mof_H 	H 	0.13412	0.75697	0.68805	0.092
Mof_H 	H 	0.44613	0.50508	0.5238	0.062
Mof_H 	H 	0.84088	0.09851	0.55883	-0.004
Mof_H 	H 	0.33446	0.38681	0.22236	0.055
Mof_H 	H 	0.90461	0.8561	0.47898	0.002
Mof_H 	H 	0.90539	0.38758	0.22123	0.066
Mof_H 	H 	0.37546	0.5484	0.55235	0.086
Mof_H 	H 	0.35559	0.56948	0.85288	0.057
Mof_H 	H 	0.76663	0.17381	0.83765	0.079
Mof_H 	H 	0.06355	0.91422	0.99801	0.005
Mof_H 	H 	0.79727	0.75541	0.92931	0.068
Mof_H 	H 	0.26849	0.3908	0.18212	0.071
Mof_H 	H 	0.20273	0.75541	0.92931	0.067
Mof_H 	H 	0.82843	0.69811	0.19512	0.074
Mof_H 	H 	0.59754	0.09655	0.56025	-0.011
Mof_H 	H 	0.59693	0.43796	0.30933	0.053
Mof_H 	H 	0.23333	0.47826	0.33514	0.068
Mof_H 	H 	0.66185	0.85648	0.47806	-0.003
Mof_H 	H 	0.85872	0.50324	0.45256	0.064
Mof_H 	H 	0.61187	0.11404	0.36597	0.051
Mof_H 	H 	0.76529	0.17675	0.66153	0.078
Mof_H 	H 	0.3869	0.32793	0.05881	-0.014
Mof_H 	H 	0.76667	0.66486	0.14312	0.068
Mof_H 	H 	0.44512	0.32951	0.11617	0.066
Mof_H 	H 	0.90539	0.77877	0.16635	0.067
Mof_H 	H 	0.13318	0.00294	0.45218	0.087
Mof_H 	H 	0.44725	0.46357	0.40322	0.062
Mof_H 	H 	0.59693	0.87137	0.56204	0.054
Mof_H 	H 	0.86665	0.49491	0.47953	0.054
Mof_H 	H 	0.23471	0.17675	0.66153	0.079
Mof_H 	H 	0.27075	0.42691	0.50435	0.067
Mof_H 	H 	0.23337	0.17381	0.83765	0.08
Mof_H 	H 	0.59754	0.43975	0.5363	-0.009
Mof_H 	H 	0.59573	0.21327	0.11177	-0.006
Mof_H 	H 	0.30923	0.01145	0.54742	0.052
Mof_H 	H 	0.90461	0.62288	0.1439	0.002
Mof_H 	H 	0.15834	0.18485	0.37459	0.061
Mof_H 	H 	0.23333	0.66486	0.14312	0.069
Mof_H 	H 	0.37546	0.00395	0.4516	0.085
Mof_H 	H 	0.65446	0.25924	0.19077	0.055
Mof_H 	H 	0.90117	0.53772	0.92901	0.059
Mof_H 	H 	0.85881	0.25267	0.88473	0.044
Mof_H 	H 	0.16085	0.69158	0.12851	0.052
Mof_H 	H 	0.87158	0.82563	0.69886	0.073
Mof_H 	H 	0.86588	0.75697	0.68805	0.102
Mof_H 	H 	0.90405	0.13764	0.29642	-0.001
Mof_H 	H 	0.40307	0.87137	0.56204	0.054
Mof_H 	H 	0.14128	0.24143	0.65525	0.038
Mof_H 	H 	0.15844	0.41409	0.17322	0.002
Mof_H 	H 	0.27971	0.90281	0.76085	0.067
Mof_H 	H 	0.14119	0.63206	0.74733	0.038
Mof_H 	H 	0.38562	0.69693	0.26383	0.042
Mof_H 	H 	0.16138	0.89774	0.78808	0.004
Mof_H 	H 	0.37834	0.57233	0.79246	0.091
Mof_H 	H 	0.06355	0.00199	0.91621	0.006
Mof_H 	H 	0.44613	0.4762	0.98128	0.063
Mof_H 	H 	0.34554	0.25924	0.19077	0.054
Mof_H 	H 	0.14337	0.32881	0.05822	-0.002
Mof_H 	H 	0.12254	0.14921	0.21687	0.067
Mof_H 	H 	0.40307	0.69067	0.12863	0.054
Mof_H 	H 	0.65446	0.93153	0.74076	0.057
Mof_H 	H 	0.44512	0.78666	0.67049	0.065
Mof_H 	H 	0.3726	0.87335	0.173	0.072
Mof_H 	H 	0.14085	0.69836	0.26487	0.037
Mof_H 	H 	0.8556	0.00668	0.83137	0.043
Mof_H 	H 	0.38813	0.25193	0.88596	0.051
Mof_H 	H 	0.06646	0.3279	0.15955	0.041
Mof_H 	H 	0.85881	0.11527	0.36794	0.044
Mof_H 	H 	0.79727	0.1739	0.24459	0.071
Mof_H 	H 	0.61438	0.73617	0.4331	0.042
Mof_H 	H 	0.1705	0.37547	0.56357	0.102
Mof_H 	H 	0.6274	0.827	0.70035	0.071
Mof_H 	H 	0.86665	0.52047	0.01538	0.071
Mof_H 	H 	0.20273	0.07069	0.8261	0.067
Mof_H 	H 	0.14085	0.56651	0.30164	0.037
Mof_H 	H 	0.09694	0.47969	0.77853	-0.026
Mof_H 	H 	0.52353	0.33975	0.51797	0.065
Mof_H 	H 	0.14128	0.34475	0.58618	0.038
Mof_H 	H 	0.79901	0.14162	0.11869	0.072
Mof_H 	H 	0.38442	0.41475	0.75784	0.041
Mof_H 	H 	0.38813	0.63403	0.74807	0.051
Mof_H 	H 	0.84156	0.41409	0.17322	0.001
Mof_H 	H 	0.34491	0.0147	0.43728	0.023
Mof_H 	H 	0.93354	0.84045	0.16835	0.078
Mof_H 	H 	0.63742	0.94461	0.55569	0.054
Mof_H 	H 	0.13335	0.98462	0.50509	0.069
Mof_H 	H 	0.13412	0.31195	0.06892	0.098
Mof_H 	H 	0.59573	0.8985	0.78673	-0.005
Mof_H 	H 	0.13335	0.49491	0.47953	0.052
Mof_H 	H 	0.34037	0.47927	0.77653	-0.003
Mof_H 	H 	0.59693	0.69067	0.12863	0.054
Mof_H 	H 	0.19046	0.65824	0.87911	0.055
Mof_H 	H 	0.27971	0.23915	0.14196	0.067
Mof_H 	H 	0.8295	0.1881	0.62453	0.103
Mof_H 	H 	0.37719	0.51941	0.01639	0.071
Mof_H 	H 	0.20099	0.97707	0.85838	0.069
Mof_H 	H 	0.61558	0.41475	0.75784	0.041
Mof_H 	H 	0.55946	0.16371	0.73322	0.073
Mof_H 	H 	0.44725	0.59678	0.06035	0.065
Mof_H 	H 	0.38562	0.94946	0.49642	0.062
Mof_H 	H 	0.20169	0.786	0.67015	0.073
Mof_H 	H 	0.40427	0.8985	0.78673	-0.005
Mof_H 	H 	0.34491	0.42258	0.9853	0.023
Mof_H 	H 	0.90306	0.47969	0.77853	-0.001
Mof_H 	H 	0.17157	0.49701	0.30189	0.068
Mof_H 	H 	0.13167	0.06566	0.78609	0.042
Mof_H 	H 	0.89456	0.42377	0.98446	0.034
Mof_H 	H 	0.15912	0.09851	0.55883	-0.003
Mof_H 	H 	0.89456	0.01554	0.43931	0.034
Mof_H 	H 	0.38442	0.24216	0.65691	0.041
Mof_H 	H 	0.13472	0.22043	0.42703	0.069
Mof_H 	H 	0.85663	0.94178	0.27059	-0.006
Mof_H 	H 	0.03755	0.90211	0.76036	0.035
Mof_H 	H 	0.79831	0.32985	0.11585	0.074
Mof_H 	H 	0.40779	0.3589	0.49111	0.06
Mof_H 	H 	0.14128	0.41382	0.75857	0.038
Mof_H 	H 	0.66035	0.5386	0.92979	0.05
Mof_H 	H 	0.62166	0.20754	0.77987	0.091
Mof_H 	H 	0.47647	0.33975	0.51797	0.065
Mof_H 	H 	0.65509	0.0147	0.43728	0.023
Mof_H 	H 	0.09539	0.8561	0.47898	-0.026
Mof_H 	H 	0.93325	0.01256	0.54789	0.073
Mof_H 	H 	0.20307	0.59676	0.05939	0.065
Mof_H 	H 	0.11196	0.2835	0.42945	0.045
Mof_H 	H 	0.62281	0.51941	0.01639	0.071
Mof_H 	H 	0.65963	0.29726	0.52073	-0.003
Mof_H 	H 	0.6274	0.29965	0.12665	0.072
Mof_C 	C 	0.12056	0.46667	0.53623	0.142
Mof_C 	C 	0.11494	0.59762	0.61635	0.006
Mof_C 	C 	0.81844	0.34561	0.52025	-0.207
Mof_C 	C 	0.12056	0.06956	0.53333	0.147
Mof_C 	C 	0.68169	0.84155	0.0656	-0.189
Mof_C 	C 	0.60859	0.32751	0.11284	-0.2
Mof_C 	C 	0.3905	0.29142	0.5044	0.161
Mof_C 	C 	0.11874	0.33886	0.93249	-0.032
Mof_C 	C 	0.36349	0.33861	0.93357	-0.036
Mof_C 	C 	0.6095	0.29142	0.5044	0.161
Mof_C 	C 	0.64288	0.5993	0.61708	0.012
Mof_C 	C 	0.39129	0.18089	0.73624	-0.198
Mof_C 	C 	0.87971	0.38529	0.14678	0.15
Mof_C 	C 	0.36343	0.46625	0.53525	0.147
Mof_C 	C 	0.85563	0.64786	0.37204	-0.012
Mof_C 	C 	0.42251	0.67099	0.15118	-0.182
Mof_C 	C 	0.07578	0.43158	0.48876	-0.168
Mof_C 	C 	0.92422	0.05718	0.56842	-0.191
Mof_C 	C 	0.86377	0.28874	0.92622	0.011
Mof_C 	C 	0.3905	0.21298	0.70858	0.16
Mof_C 	C 	0.13769	0.33209	0.02095	0.034
Mof_C 	C 	0.68425	0.81967	0.19082	-0.186
Mof_C 	C 	0.18477	0.18025	0.33833	-0.198
Mof_C 	C 	0.57701	0.3451	0.5199	-0.196
Mof_C 	C 	0.39242	0.01537	0.49322	-0.205
Mof_C 	C 	0.61191	0.28358	0.66194	0.025
Mof_C 	C 	0.68234	0.4319	0.48805	-0.187
Mof_C 	C 	0.13623	0.63748	0.71126	0.001
Mof_C 	C 	0.8779	0.97453	0.35616	0
Mof_C 	C 	0.9089	0.94947	0.00132	0.037
Mof_C 	C 	0.12137	0.18701	0.11221	0.141
Mof_C 	C 	0.88506	0.38365	0.98127	-0.009
Mof_C 	C 	0.39129	0.55535	0.81911	-0.198
Mof_C 	C 	0.39242	0.47785	0.98463	-0.206
Mof_C 	C 	0.148	0.32821	0.11225	-0.191
Mof_C 	C 	0.60321	0.59121	0.07039	-0.178
Mof_C 	C 	0.9259	0.37268	0.17987	-0.189
Mof_C 	C 	0.15124	0.74502	0.91693	-0.197
Mof_C 	C 	0.61008	0.61661	0.13108	0.146
Mof_C 	C 	0.14689	0.14422	0.8569	0.161
Mof_C 	C 	0.68234	0.05615	0.5681	-0.188
Mof_C 	C 	0.42251	0.84882	0.51981	-0.182
Mof_C 	C 	0.14682	0.02898	0.31413	-0.061
Mof_C 	C 	0.3575	0.0488	0.99839	-0.075
Mof_C 	C 	0.39679	0.92961	0.52082	-0.178
Mof_C 	C 	0.57749	0.84882	0.51981	-0.182
Mof_C 	C 	0.149	0.86968	0.01908	-0.15
Mof_C 	C 	0.42251	0.48019	0.32901	-0.182
Mof_C 	C 	0.31575	0.80918	0.62885	-0.186
Mof_C 	C 	0.851	0.98092	0.8506	-0.152
Mof_C 	C 	0.64288	0.38292	0.98222	-0.012
Mof_C 	C 	0.15277	0.92988	0.52148	-0.188
Mof_C 	C 	0.13769	0.68886	0.66791	0.016
Mof_C 	C 	0.60321	0.47918	0.40879	-0.181
Mof_C 	C 	0.11268	0.94944	0.95078	-0.051
Mof_C 	C 	0.07603	0.84192	0.06619	-0.174
Mof_C 	C 	0.14437	0.64786	0.37204	-0.025
Mof_C 	C 	0.85318	0.28515	0.97102	-0.055
Mof_C 	C 	0.38992	0.86892	0.48553	0.146
Mof_C 	C 	0.13623	0.28874	0.92622	0.003
Mof_C 	C 	0.12137	0.88779	0.0748	0.131
Mof_C 	C 	0.92397	0.84192	0.06619	-0.187
Mof_C 	C 	0.1494	0.50575	0.5212	-0.185
Mof_C 	C 	0.38809	0.33806	0.62164	0.025
Mof_C 	C 	0.12029	0.85322	0.23851	0.138
Mof_C 	C 	0.64288	0.01778	0.4007	-0.012
Mof_C 	C 	0.39242	0.50678	0.52215	-0.183
Mof_C 	C 	0.88732	0.04922	0.99866	-0.053
Mof_C 	C 	0.14693	0.51342	0.38261	0.155
Mof_C 	C 	0.60871	0.18089	0.73624	-0.198
Mof_C 	C 	0.18156	0.47975	0.82536	-0.209
Mof_C 	C 	0.84723	0.92988	0.52148	-0.187
Mof_C 	C 	0.60758	0.50678	0.52215	-0.183
Mof_C 	C 	0.88506	0.01873	0.40238	-0.009
Mof_C 	C 	0.60746	0.98074	0.85064	-0.178
Mof_C 	C 	0.85294	0.29218	0.50383	0.167
Mof_C 	C 	0.6095	0.4956	0.78702	0.16
Mof_C 	C 	0.92397	0.93381	0.77573	-0.188
Mof_C 	C 	0.63674	0.85167	0.23575	0.15
Mof_C 	C 	0.39039	0.38171	0.67125	-0.042
Mof_C 	C 	0.61981	0.33093	0.02146	0.04
Mof_C 	C 	0.14476	0.28315	0.66104	0.018
Mof_C 	C 	0.63651	0.59496	0.66139	-0.04
Mof_C 	C 	0.3575	0.94959	0.9512	-0.054
Mof_C 	C 	0.12029	0.38529	0.14678	0.138
Mof_C 	C 	0.85307	0.51342	0.38261	0.156
Mof_C 	C 	0.36506	0.38001	0.02582	-0.022
Mof_C 	C 	0.38844	0.70507	0.3891	-0.018
Mof_C 	C 	0.60859	0.78533	0.67249	-0.198
Mof_C 	C 	0.63651	0.06643	0.40504	-0.036
Mof_C 	C 	0.60746	0.8699	0.01926	-0.178
Mof_C 	C 	0.81962	0.47914	0.32843	-0.193
Mof_C 	C 	0.18038	0.67157	0.15071	-0.195
Mof_C 	C 	0.57701	0.1748	0.6549	-0.196
Mof_C 	C 	0.60983	0.72391	0.3513	-0.018
Mof_C 	C 	0.31831	0.22405	0.15845	-0.191
Mof_C 	C 	0.6425	0.00161	0.05041	-0.061
Mof_C 	C 	0.31575	0.37115	0.18033	-0.186
Mof_C 	C 	0.85305	0.29003	0.61792	-0.042
Mof_C 	C 	0.6095	0.21298	0.70858	0.16
Mof_C 	C 	0.15277	0.47852	0.4084	-0.19
Mof_C 	C 	0.1477	0.55628	0.82029	-0.201
Mof_C 	C 	0.84876	0.74502	0.91693	-0.196
Mof_C 	C 	0.36326	0.38408	0.14833	0.15
Mof_C 	C 	0.85305	0.38208	0.67211	-0.042
Mof_C 	C 	0.61949	0.63882	0.71185	0.007
Mof_C 	C 	0.36434	0.92538	0.81248	0.145
Mof_C 	C 	0.61981	0.97854	0.30947	0.039
Mof_C 	C 	0.85524	0.28315	0.66104	0.027
Mof_C 	C 	0.38992	0.61661	0.13108	0.146
Mof_C 	C 	0.31831	0.9344	0.77595	-0.189
Mof_C 	C 	0.12056	0.46377	0.93044	0.147
Mof_C 	C 	0.8523	0.17971	0.73599	-0.201
Mof_C 	C 	0.61949	0.28815	0.92697	0.008
Mof_C 	C 	0.148	0.78404	0.67179	-0.189
Mof_C 	C 	0.851	0.86968	0.01908	-0.151
Mof_C 	C 	0.3575	0.00161	0.05041	-0.062
Mof_C 	C 	0.07578	0.05718	0.56842	-0.17
Mof_C 	C 	0.84723	0.47852	0.4084	-0.189
Mof_C 	C 	0.38809	0.28358	0.66194	0.025
Mof_C 	C 	0.18038	0.47914	0.32843	-0.195
Mof_C 	C 	0.36506	0.97418	0.35419	-0.022
Mof_C 	C 	0.11268	0.04922	0.99866	-0.062
Mof_C 	C 	0.81844	0.17464	0.65439	-0.207
Mof_C 	C 	0.11874	0.59363	0.66114	-0.037
Mof_C 	C 	0.81523	0.18025	0.33833	-0.196
Mof_C 	C 	0.852	0.78404	0.67179	-0.191
Mof_C 	C 	0.85697	0.61068	0.31514	-0.015
Mof_C 	C 	0.68169	0.22405	0.15845	-0.191
Mof_C 	C 	0.84876	0.17191	0.25498	-0.197
Mof_C 	C 	0.81523	0.15808	0.81975	-0.195
Mof_C 	C 	0.61191	0.33806	0.62164	0.025
Mof_C 	C 	0.61008	0.51447	0.38339	0.147
Mof_C 	C 	0.14706	0.29218	0.50383	0.167
Mof_C 	C 	0.14303	0.68486	0.29554	-0.023
Mof_C 	C 	0.9259	0.80719	0.62732	-0.189
Mof_C 	C 	0.8506	0.4788	0.98455	-0.202
Mof_C 	C 	0.13623	0.07378	0.36252	0.003
Mof_C 	C 	0.18156	0.34561	0.52025	-0.209
Mof_C 	C 	0.14689	0.1431	0.28732	0.162
Mof_C 	C 	0.14689	0.71268	0.85578	0.161
Mof_C 	C 	0.85563	0.72418	0.35214	-0.012
Mof_C 	C 	0.88506	0.59762	0.61635	0.014
Mof_C 	C 	0.39679	0.47918	0.40879	-0.18
Mof_C 	C 	0.63566	0.18752	0.1129	0.149
Mof_C 	C 	0.39141	0.78533	0.67249	-0.198
Mof_C 	C 	0.14695	0.38208	0.67211	-0.047
Mof_C 	C 	0.14303	0.70446	0.38932	-0.023
Mof_C 	C 	0.63566	0.92538	0.81248	0.145
Mof_C 	C 	0.36349	0.59496	0.66139	-0.04
Mof_C 	C 	0.87944	0.06956	0.53333	0.154
Mof_C 	C 	0.85697	0.68486	0.29554	-0.015
Mof_C 	C 	0.18156	0.17464	0.65439	-0.209
Mof_C 	C 	0.14695	0.29003	0.61792	-0.047
Mof_C 	C 	0.15124	0.17191	0.25498	-0.198
Mof_C 	C 	0.86231	0.68886	0.66791	0.027
Mof_C 	C 	0.39039	0.28954	0.61829	-0.042
Mof_C 	C 	0.85305	0.32789	0.70997	-0.042
Mof_C 	C 	0.149	0.1494	0.13032	-0.195
Mof_C 	C 	0.852	0.88775	0.21596	-0.193
Mof_C 	C 	0.9259	0.82013	0.19281	-0.189
Mof_C 	C 	0.149	0.98092	0.8506	-0.152
Mof_C 	C 	0.86377	0.63748	0.71126	0.009
Mof_C 	C 	0.92422	0.43158	0.48876	-0.19
Mof_C 	C 	0.8506	0.01545	0.49425	-0.202
Mof_C 	C 	0.14695	0.32789	0.70997	-0.047
Mof_C 	C 	0.60758	0.47785	0.98463	-0.205
Mof_C 	C 	0.35712	0.5993	0.61708	0.012
Mof_C 	C 	0.14693	0.61739	0.13081	0.155
Mof_C 	C 	0.60871	0.55535	0.81911	-0.198
Mof_C 	C 	0.14706	0.49617	0.78835	0.167
Mof_C 	C 	0.1494	0.01545	0.49425	-0.207
Mof_C 	C 	0.39017	0.6487	0.37261	-0.018
Mof_C 	C 	0.31766	0.51195	0.94385	-0.188
Mof_C 	C 	0.0741	0.80719	0.62732	-0.162
Mof_C 	C 	0.1494	0.4788	0.98455	-0.207
Mof_C 	C 	0.92422	0.51124	0.94282	-0.191
Mof_C 	C 	0.88732	0.94944	0.95078	-0.041
Mof_C 	C 	0.851	0.1494	0.13032	-0.193
Mof_C 	C 	0.07578	0.51124	0.94282	-0.17
Mof_C 	C 	0.85311	0.1431	0.28732	0.163
Mof_C 	C 	0.88126	0.06751	0.40637	-0.015
Mof_C 	C 	0.1477	0.17971	0.73599	-0.201
Mof_C 	C 	0.39129	0.26376	0.44465	-0.198
Mof_C 	C 	0.42299	0.1748	0.6549	-0.196
Mof_C 	C 	0.81962	0.67157	0.15071	-0.194
Mof_C 	C 	0.39254	0.98074	0.85064	-0.178
Mof_C 	C 	0.85318	0.68587	0.71485	-0.038
Mof_C 	C 	0.60961	0.32875	0.71046	-0.042
Mof_C 	C 	0.61156	0.70507	0.3891	-0.019
Mof_C 	C 	0.61156	0.6109	0.31597	-0.019
Mof_C 	C 	0.88126	0.33886	0.93249	-0.015
Mof_C 	C 	0.85563	0.62796	0.27582	-0.012
Mof_C 	C 	0.14706	0.21165	0.70782	0.167
Mof_C 	C 	0.60758	0.01537	0.49322	-0.205
Mof_C 	C 	0.38051	0.28815	0.92697	0.008
Mof_C 	C 	0.85294	0.49617	0.78835	0.167
Mof_C 	C 	0.14476	0.33896	0.62211	0.018
Mof_C 	C 	0.07603	0.22427	0.15808	-0.178
Mof_C 	C 	0.1221	0.38163	0.02547	-0.012
Mof_C 	C 	0.85311	0.14422	0.8569	0.162
Mof_C 	C 	0.87863	0.88779	0.0748	0.138
Mof_C 	C 	0.14437	0.72418	0.35214	-0.025
Mof_C 	C 	0.68425	0.37115	0.18033	-0.186
Mof_C 	C 	0.13769	0.97905	0.31114	0.034
Mof_C 	C 	0.36434	0.18752	0.1129	0.149
Mof_C 	C 	0.61981	0.69053	0.66907	0.022
Mof_C 	C 	0.60983	0.62739	0.27609	-0.018
Mof_C 	C 	0.33532	0.94974	0.00155	0.033
Mof_C 	C 	0.81962	0.84929	0.52086	-0.194
Mof_C 	C 	0.33532	0.99845	0.94819	0.019
Mof_C 	C 	0.85318	0.02898	0.31413	-0.055
Mof_C 	C 	0.63494	0.64581	0.61999	-0.041
Mof_C 	C 	0.38051	0.63882	0.71185	0.007
Mof_C 	C 	0.852	0.32821	0.11225	-0.193
Mof_C 	C 	0.66468	0.94974	0.00155	0.031
Mof_C 	C 	0.42299	0.3451	0.5199	-0.196
Mof_C 	C 	0.31766	0.05615	0.5681	-0.188
Mof_C 	C 	0.0741	0.82013	0.19281	-0.163
Mof_C 	C 	0.60859	0.88716	0.21467	-0.2
Mof_C 	C 	0.31766	0.4319	0.48805	-0.187
Mof_C 	C 	0.63657	0.069	0.53375	0.152
Mof_C 	C 	0.88126	0.59363	0.66114	-0.019
Mof_C 	C 	0.33532	0.05181	0.05026	0.004
Mof_C 	C 	0.12137	0.9252	0.81299	0.132
Mof_C 	C 	0.61156	0.68403	0.29493	-0.019
Mof_C 	C 	0.63657	0.46475	0.931	0.152
Mof_C 	C 	0.38809	0.37836	0.71642	0.025
Mof_C 	C 	0.39254	0.14936	0.1301	-0.199
Mof_C 	C 	0.57749	0.48019	0.32901	-0.182
Mof_C 	C 	0.68425	0.80918	0.62885	-0.186
Mof_C 	C 	0.85524	0.37789	0.71685	0.027
Mof_C 	C 	0.85307	0.61739	0.13081	0.156
Mof_C 	C 	0.60983	0.6487	0.37261	-0.018
Mof_C 	C 	0.92397	0.22427	0.15808	-0.191
Mof_C 	C 	0.66468	0.05181	0.05026	0.003
Mof_C 	C 	0.11494	0.01873	0.40238	-0.018
Mof_C 	C 	0.36343	0.46475	0.931	0.152
Mof_C 	C 	0.63674	0.76425	0.61592	0.149
Mof_C 	C 	0.0911	0.94947	0.00132	0.022
Mof_C 	C 	0.8779	0.38163	0.02547	0
Mof_C 	C 	0.85311	0.71268	0.85578	0.162
Mof_C 	C 	0.35712	0.38292	0.98222	-0.012
Mof_C 	C 	0.87971	0.76149	0.61471	0.149
Mof_C 	C 	0.63494	0.38001	0.02582	-0.022
Mof_C 	C 	0.88732	0.00134	0.05056	-0.04
Mof_C 	C 	0.36434	0.8871	0.07462	0.145
Mof_C 	C 	0.84723	0.5916	0.07012	-0.187
Mof_C 	C 	0.36326	0.76425	0.61592	0.149
Mof_C 	C 	0.63674	0.38408	0.14833	0.15
Mof_C 	C 	0.81523	0.66167	0.84192	-0.195
Mof_C 	C 	0.14682	0.68587	0.71485	-0.044
Mof_C 	C 	0.36506	0.64581	0.61999	-0.04
Mof_C 	C 	0.38019	0.33093	0.02146	0.04
Mof_C 	C 	0.0911	0.99868	0.94815	0.007
Mof_C 	C 	0.61191	0.37836	0.71642	0.025
Mof_C 	C 	0.36326	0.85167	0.23575	0.15
Mof_C 	C 	0.61223	0.02778	0.31161	-0.056
Mof_C 	C 	0.36343	0.069	0.53375	0.152
Mof_C 	C 	0.39254	0.8699	0.01926	-0.178
Mof_C 	C 	0.9089	0.05185	0.05053	0.005
Mof_C 	C 	0.39017	0.72391	0.3513	-0.018
Mof_C 	C 	0.66468	0.99845	0.94819	0.018
Mof_C 	C 	0.61223	0.68839	0.71617	-0.038
Mof_C 	C 	0.8506	0.50575	0.5212	-0.18
Mof_C 	C 	0.36349	0.06643	0.40504	-0.036
Mof_C 	C 	0.86377	0.07378	0.36252	0.011
Mof_C 	C 	0.35712	0.01778	0.4007	-0.012
Mof_C 	C 	0.60961	0.28954	0.61829	-0.042
Mof_C 	C 	0.14693	0.86919	0.48658	0.155
Mof_C 	C 	0.86231	0.33209	0.02095	0.044
Mof_C 	C 	0.85294	0.21165	0.70782	0.167
Mof_C 	C 	0.31831	0.84155	0.0656	-0.189
Mof_C 	C 	0.148	0.88775	0.21596	-0.191
Mof_C 	C 	0.38844	0.68403	0.29493	-0.018
Mof_C 	C 	0.87863	0.9252	0.81299	0.139
Mof_C 	C 	0.85524	0.33896	0.62211	0.027
Mof_C 	C 	0.8779	0.64384	0.61837	-0.018
Mof_C 	C 	0.39039	0.32875	0.71046	-0.042
Mof_C 	C 	0.38777	0.68839	0.71617	-0.038
Mof_C 	C 	0.1477	0.26401	0.44372	-0.201
Mof_C 	C 	0.39679	0.59121	0.07039	-0.178
Mof_C 	C 	0.68234	0.51195	0.94385	-0.188
Mof_C 	C 	0.86231	0.97905	0.31114	0.044
Mof_C 	C 	0.61949	0.07303	0.36118	0.008
Mof_C 	C 	0.60321	0.92961	0.52082	-0.178
Mof_C 	C 	0.9089	0.99868	0.94815	0.024
Mof_C 	C 	0.61008	0.86892	0.48553	0.146
Mof_C 	C 	0.1221	0.97453	0.35616	-0.012
Mof_C 	C 	0.11268	0.00134	0.05056	-0.049
Mof_C 	C 	0.14476	0.37789	0.71685	0.018
Mof_C 	C 	0.39141	0.88716	0.21467	-0.2
Mof_C 	C 	0.38019	0.97854	0.30947	0.04
Mof_C 	C 	0.38019	0.69053	0.66907	0.022
Mof_C 	C 	0.11494	0.38365	0.98127	-0.018
Mof_C 	C 	0.39141	0.32751	0.11284	-0.2
Mof_C 	C 	0.63657	0.46625	0.53525	0.147
Mof_C 	C 	0.15277	0.5916	0.07012	-0.188
Mof_C 	C 	0.60746	0.14936	0.1301	-0.199
Mof_C 	C 	0.18038	0.84929	0.52086	-0.195
Mof_C 	C 	0.38777	0.02778	0.31161	-0.056
Mof_C 	C 	0.87944	0.46377	0.93044	0.154
Mof_C 	C 	0.12029	0.76149	0.61471	0.137
Mof_C 	C 	0.42299	0.4801	0.8252	-0.196
Mof_C 	C 	0.0741	0.37268	0.17987	-0.162
Mof_C 	C 	0.8523	0.55628	0.82029	-0.201
Mof_C 	C 	0.87863	0.18701	0.11221	0.147
Mof_C 	C 	0.38844	0.6109	0.31597	-0.018
Mof_C 	C 	0.85307	0.86919	0.48658	0.156
Mof_C 	C 	0.87971	0.85322	0.23851	0.15
Mof_C 	C 	0.84876	0.08307	0.82809	-0.196
Mof_C 	C 	0.18477	0.66167	0.84192	-0.197
Mof_C 	C 	0.3905	0.4956	0.78702	0.16
Mof_C 	C 	0.57701	0.4801	0.8252	-0.196
Mof_C 	C 	0.63494	0.97418	0.35419	-0.022
Mof_C 	C 	0.14682	0.28515	0.97102	-0.061
Mof_C 	C 	0.0911	0.05185	0.05053	-0.013
Mof_C 	C 	0.60871	0.26376	0.44465	-0.199
Mof_C 	C 	0.18477	0.15808	0.81975	-0.197
Mof_C 	C 	0.57749	0.67099	0.15118	-0.182
Mof_C 	C 	0.14437	0.62796	0.27582	-0.025
Mof_C 	C 	0.85697	0.70446	0.38932	-0.015
Mof_C 	C 	0.63566	0.8871	0.07462	0.145
Mof_C 	C 	0.1221	0.64384	0.61837	-0.031
Mof_C 	C 	0.38051	0.07303	0.36118	0.008
Mof_C 	C 	0.68169	0.9344	0.77595	-0.189
Mof_C 	C 	0.81844	0.47975	0.82536	-0.207
Mof_C 	C 	0.15124	0.08307	0.82809	-0.197
Mof_C 	C 	0.8523	0.26401	0.44372	-0.201
Mof_C 	C 	0.87944	0.46667	0.53623	0.15
Mof_C 	C 	0.11874	0.06751	0.40637	-0.032
Mof_C 	C 	0.14303	0.61068	0.31514	-0.023
Mof_C 	C 	0.6425	0.0488	0.99839	-0.075
Mof_C 	C 	0.6425	0.94959	0.9512	-0.054
Mof_C 	C 	0.61223	0.28383	0.97222	-0.056
Mof_C 	C 	0.63651	0.33861	0.93357	-0.036
Mof_C 	C 	0.60961	0.38171	0.67125	-0.042
Mof_C 	C 	0.38992	0.51447	0.38339	0.146
Mof_C 	C 	0.07603	0.93381	0.77573	-0.174
Mof_C 	C 	0.39017	0.62739	0.27609	-0.018
Mof_C 	C 	0.31575	0.81967	0.19082	-0.186
Mof_C 	C 	0.38777	0.28383	0.97222	-0.056
Mof_O 	O 	0.56588	0.51759	0.19122	-0.304
Mof_O 	O 	0.81052	0.4354	0.62867	-0.338
Mof_O 	O 	0.57171	0.25958	0.73952	-0.238
Mof_O 	O 	0.18948	0.37133	0.80673	-0.338
Mof_O 	O 	0.32679	0.4875	0.58358	-0.266
Mof_O 	O 	0.19495	0.10961	0.97211	-0.309
Mof_O 	O 	0.19688	0.5388	0.67501	-0.317
Mof_O 	O 	0.42829	0.25958	0.73952	-0.238
Mof_O 	O 	0.41999	0.16757	0.91074	-0.208
Mof_O 	O 	0.93546	0.00741	0.22655	-0.276
Mof_O 	O 	0.67063	0.9366	0.10282	-0.262
Mof_O 	O 	0.08484	0.89879	0.83539	-0.248
Mof_O 	O 	0.56588	0.67363	0.48241	-0.304
Mof_O 	O 	0.5765	0.56372	0.41576	-0.236
Mof_O 	O 	0.06455	0.92345	0.40559	-0.328
Mof_O 	O 	0.18351	0.26045	0.51896	-0.269
Mof_O 	O 	0.56275	0.02817	0.14136	-0.318
Mof_O 	O 	0.42829	0.26048	0.52006	-0.238
Mof_O 	O 	0.06401	0.30024	0.83682	-0.338
Mof_O 	O 	0.43453	0.98023	0.20252	-0.293
Mof_O 	O 	0.1807	0.56244	0.41441	-0.27
Mof_O 	O 	0.80341	0.9205	0.38036	-0.306
Mof_O 	O 	0.93545	0.59441	0.51786	-0.278
Mof_O 	O 	0.31786	0.04803	0.16524	-0.313
Mof_O 	O 	0.93545	0.92345	0.40559	-0.273
Mof_O 	O 	0.18351	0.48104	0.74149	-0.269
Mof_O 	O 	0.91806	0.41658	0.90708	-0.218
Mof_O 	O 	0.93599	0.53658	0.69976	-0.28
Mof_O 	O 	0.06564	0.83783	0.88908	-0.333
Mof_O 	O 	0.41999	0.74317	0.83243	-0.207
Mof_O 	O 	0.43725	0.11319	0.97183	-0.322
Mof_O 	O 	0.06454	0.00741	0.22655	-0.334
Mof_O 	O 	0.41999	0.08926	0.25683	-0.206
Mof_O 	O 	0.06463	0.64047	0.4541	-0.328
Mof_O 	O 	0.68958	0.00047	0.22652	-0.306
Mof_O 	O 	0.80505	0.02789	0.1375	-0.308
Mof_O 	O 	0.31591	0.1641	0.46646	-0.319
Mof_O 	O 	0.19495	0.02789	0.1375	-0.306
Mof_O 	O 	0.43725	0.85864	0.88681	-0.311
Mof_O 	O 	0.68214	0.04803	0.16524	-0.313
Mof_O 	O 	0.81496	0.8117	0.32967	-0.302
Mof_O 	O 	0.06463	0.81363	0.35953	-0.328
Mof_O 	O 	0.08242	0.87812	0.28712	-0.246
Mof_O 	O 	0.67063	0.16622	0.0634	-0.264
Mof_O 	O 	0.43893	0.32271	0.85658	-0.325
Mof_O 	O 	0.43412	0.67363	0.48241	-0.304
Mof_O 	O 	0.58001	0.16757	0.91074	-0.208
Mof_O 	O 	0.08194	0.4905	0.58342	-0.251
Mof_O 	O 	0.19659	0.61964	0.54014	-0.307
Mof_O 	O 	0.32679	0.09608	0.5125	-0.267
Mof_O 	O 	0.31042	0.00047	0.22652	-0.305
Mof_O 	O 	0.93639	0.22064	0.57019	-0.287
Mof_O 	O 	0.69232	0.34727	0.77639	-0.312
Mof_O 	O 	0.08484	0.9366	0.10121	-0.238
Mof_O 	O 	0.68958	0.22605	0.99953	-0.306
Mof_O 	O 	0.91758	0.71288	0.591	-0.211
Mof_O 	O 	0.43893	0.14342	0.46613	-0.325
Mof_O 	O 	0.68518	0.48407	0.08504	-0.311
Mof_O 	O 	0.93545	0.48214	0.07655	-0.273
Mof_O 	O 	0.56175	0.19396	0.56918	-0.34
Mof_O 	O 	0.81052	0.19327	0.5646	-0.338
Mof_O 	O 	0.43737	0.46408	0.08358	-0.319
Mof_O 	O 	0.31591	0.30236	0.8359	-0.319
Mof_O 	O 	0.81496	0.51797	0.1883	-0.302
Mof_O 	O 	0.19688	0.13621	0.4612	-0.318
Mof_O 	O 	0.56107	0.32271	0.85658	-0.325
Mof_O 	O 	0.93599	0.16318	0.46342	-0.281
Mof_O 	O 	0.68409	0.1641	0.46646	-0.319
Mof_O 	O 	0.80341	0.61964	0.54014	-0.31
Mof_O 	O 	0.67321	0.09608	0.5125	-0.267
Mof_O 	O 	0.31482	0.48407	0.08504	-0.311
Mof_O 	O 	0.68409	0.53354	0.69764	-0.319
Mof_O 	O 	0.4235	0.85204	0.43628	-0.235
Mof_O 	O 	0.80505	0.8625	0.89039	-0.307
Mof_O 	O 	0.82056	0.74226	0.83572	-0.27
Mof_O 	O 	0.31591	0.53354	0.69764	-0.319
Mof_O 	O 	0.80312	0.32499	0.86379	-0.32
Mof_O 	O 	0.8193	0.56244	0.41441	-0.269
Mof_O 	O 	0.56263	0.6195	0.53592	-0.323
Mof_O 	O 	0.30768	0.42912	0.65273	-0.312
Mof_O 	O 	0.1807	0.85197	0.43756	-0.269
Mof_O 	O 	0.18504	0.8117	0.32967	-0.303
Mof_O 	O 	0.91758	0.87812	0.28712	-0.211
Mof_O 	O 	0.56107	0.53387	0.67729	-0.324
Mof_O 	O 	0.19495	0.8625	0.89039	-0.304
Mof_O 	O 	0.56547	0.22229	0.01977	-0.293
Mof_O 	O 	0.06564	0.11092	0.94875	-0.333
Mof_O 	O 	0.56547	0.98023	0.20252	-0.293
Mof_O 	O 	0.80341	0.45986	0.0795	-0.306
Mof_O 	O 	0.30974	0.54642	0.19383	-0.307
Mof_O 	O 	0.91516	0.16461	0.0634	-0.211
Mof_O 	O 	0.68214	0.83476	0.88279	-0.307
Mof_O 	O 	0.93599	0.30024	0.83682	-0.281
Mof_O 	O 	0.80312	0.5388	0.67501	-0.32
Mof_O 	O 	0.30974	0.64741	0.45358	-0.307
Mof_O 	O 	0.56175	0.37522	0.80604	-0.34
Mof_O 	O 	0.06361	0.42981	0.65045	-0.346
Mof_O 	O 	0.17944	0.16428	0.90654	-0.271
Mof_O 	O 	0.1807	0.58559	0.14803	-0.269
Mof_O 	O 	0.68518	0.91496	0.39903	-0.311
Mof_O 	O 	0.93537	0.64047	0.4541	-0.268
Mof_O 	O 	0.69026	0.80617	0.35259	-0.307
Mof_O 	O 	0.31786	0.83476	0.88279	-0.307
Mof_O 	O 	0.81539	0.98298	0.1999	-0.298
Mof_O 	O 	0.18461	0.21692	0.01702	-0.297
Mof_O 	O 	0.69026	0.64741	0.45358	-0.307
Mof_O 	O 	0.58001	0.74317	0.83243	-0.207
Mof_O 	O 	0.06455	0.59441	0.51786	-0.334
Mof_O 	O 	0.30768	0.34727	0.77639	-0.312
Mof_O 	O 	0.5765	0.85204	0.43628	-0.235
Mof_O 	O 	0.56263	0.91642	0.3805	-0.319
Mof_O 	O 	0.43453	0.22229	0.01977	-0.293
Mof_O 	O 	0.69232	0.42912	0.65273	-0.312
Mof_O 	O 	0.67401	0.71579	0.59029	-0.257
Mof_O 	O 	0.43412	0.51759	0.19122	-0.304
Mof_O 	O 	0.93546	0.77345	0.78086	-0.269
Mof_O 	O 	0.56175	0.43082	0.62478	-0.34
Mof_O 	O 	0.19659	0.45986	0.0795	-0.303
Mof_O 	O 	0.68409	0.30236	0.8359	-0.319
Mof_O 	O 	0.68958	0.77348	0.77395	-0.297
Mof_O 	O 	0.32599	0.71579	0.59029	-0.257
Mof_O 	O 	0.58001	0.08926	0.25683	-0.206
Mof_O 	O 	0.57171	0.26048	0.52006	-0.238
Mof_O 	O 	0.81649	0.26045	0.51896	-0.268
Mof_O 	O 	0.18948	0.4354	0.62867	-0.338
Mof_O 	O 	0.19688	0.32499	0.86379	-0.318
Mof_O 	O 	0.31482	0.60097	0.51593	-0.315
Mof_O 	O 	0.19659	0.9205	0.38036	-0.303
Mof_O 	O 	0.81649	0.25851	0.73955	-0.268
Mof_O 	O 	0.80505	0.10961	0.97211	-0.311
Mof_O 	O 	0.18461	0.8001	0.78308	-0.313
Mof_O 	O 	0.5765	0.58424	0.14796	-0.235
Mof_O 	O 	0.69026	0.54642	0.19383	-0.307
Mof_O 	O 	0.06361	0.22064	0.57019	-0.346
Mof_O 	O 	0.43453	0.79748	0.77771	-0.306
Mof_O 	O 	0.43825	0.19396	0.56918	-0.34
Mof_O 	O 	0.82056	0.09346	0.25774	-0.269
Mof_O 	O 	0.57171	0.47994	0.74042	-0.238
Mof_O 	O 	0.67401	0.8745	0.28421	-0.257
Mof_O 	O 	0.18461	0.98298	0.1999	-0.297
Mof_O 	O 	0.81496	0.67033	0.48203	-0.302
Mof_O 	O 	0.31042	0.22605	0.99953	-0.305
Mof_O 	O 	0.93436	0.05125	0.16217	-0.279
Mof_O 	O 	0.32599	0.8745	0.28421	-0.256
Mof_O 	O 	0.91516	0.89879	0.83539	-0.217
Mof_O 	O 	0.30974	0.80617	0.35259	-0.307
Mof_O 	O 	0.8193	0.85197	0.43756	-0.268
Mof_O 	O 	0.08194	0.09292	0.5095	-0.252
Mof_O 	O 	0.32679	0.41642	0.90392	-0.267
Mof_O 	O 	0.08194	0.41658	0.90708	-0.252
Mof_O 	O 	0.56547	0.79748	0.77771	-0.306
Mof_O 	O 	0.93436	0.83783	0.88908	-0.28
Mof_O 	O 	0.18948	0.19327	0.5646	-0.338
Mof_O 	O 	0.32937	0.9366	0.10282	-0.262
Mof_O 	O 	0.31482	0.91496	0.39903	-0.311
Mof_O 	O 	0.81052	0.37133	0.80673	-0.338
Mof_O 	O 	0.32599	0.40971	0.1255	-0.256
Mof_O 	O 	0.06564	0.05125	0.16217	-0.332
Mof_O 	O 	0.06463	0.5459	0.18637	-0.328
Mof_O 	O 	0.68518	0.60097	0.51593	-0.315
Mof_O 	O 	0.43725	0.02817	0.14136	-0.318
Mof_O 	O 	0.91758	0.409	0.12188	-0.211
Mof_O 	O 	0.17944	0.09346	0.25774	-0.271
Mof_O 	O 	0.93537	0.81363	0.35953	-0.269
Mof_O 	O 	0.93639	0.34955	0.77936	-0.287
Mof_O 	O 	0.32937	0.89718	0.83378	-0.265
Mof_O 	O 	0.06361	0.34955	0.77936	-0.346
Mof_O 	O 	0.43737	0.6195	0.53592	-0.323
Mof_O 	O 	0.30768	0.22361	0.57088	-0.312
Mof_O 	O 	0.17944	0.74226	0.83572	-0.271
Mof_O 	O 	0.43893	0.53387	0.67729	-0.324
Mof_O 	O 	0.67321	0.41642	0.90392	-0.267
Mof_O 	O 	0.4235	0.56372	0.41576	-0.236
Mof_O 	O 	0.56588	0.80878	0.32637	-0.304
Mof_O 	O 	0.67321	0.4875	0.58358	-0.266
Mof_O 	O 	0.43825	0.37522	0.80604	-0.34
Mof_O 	O 	0.08484	0.16461	0.0634	-0.242
Mof_O 	O 	0.67063	0.89718	0.83378	-0.265
Mof_O 	O 	0.06454	0.21914	0.99259	-0.334
Mof_O 	O 	0.93436	0.11092	0.94875	-0.28
Mof_O 	O 	0.93546	0.21914	0.99259	-0.276
Mof_O 	O 	0.67401	0.40971	0.1255	-0.257
Mof_O 	O 	0.81539	0.21692	0.01702	-0.298
Mof_O 	O 	0.18351	0.25851	0.73955	-0.269
Mof_O 	O 	0.68214	0.11721	0.95197	-0.315
Mof_O 	O 	0.18504	0.51797	0.1883	-0.303
Mof_O 	O 	0.91806	0.09292	0.5095	-0.218
Mof_O 	O 	0.06454	0.77345	0.78086	-0.327
Mof_O 	O 	0.4235	0.58424	0.14796	-0.235
Mof_O 	O 	0.18504	0.67033	0.48203	-0.303
Mof_O 	O 	0.81649	0.48104	0.74149	-0.268
Mof_O 	O 	0.31786	0.11721	0.95197	-0.315
Mof_O 	O 	0.56263	0.46408	0.08358	-0.319
Mof_O 	O 	0.69232	0.22361	0.57088	-0.312
Mof_O 	O 	0.8193	0.58559	0.14803	-0.268
Mof_O 	O 	0.81539	0.8001	0.78308	-0.313
Mof_O 	O 	0.91806	0.4905	0.58342	-0.216
Mof_O 	O 	0.43737	0.91642	0.3805	-0.319
Mof_O 	O 	0.42829	0.47994	0.74042	-0.238
Mof_O 	O 	0.93639	0.42981	0.65045	-0.287
Mof_O 	O 	0.06401	0.53658	0.69976	-0.338
Mof_O 	O 	0.06401	0.16318	0.46342	-0.338
Mof_O 	O 	0.82056	0.16428	0.90654	-0.27
Mof_O 	O 	0.32937	0.16622	0.0634	-0.264
Mof_O 	O 	0.06455	0.48214	0.07655	-0.328
Mof_O 	O 	0.08242	0.71288	0.591	-0.246
Mof_O 	O 	0.91516	0.9366	0.10121	-0.208
Mof_O 	O 	0.08242	0.409	0.12188	-0.246
Mof_O 	O 	0.80312	0.13621	0.4612	-0.32
Mof_O 	O 	0.56275	0.11319	0.97183	-0.322
Mof_O 	O 	0.93537	0.5459	0.18637	-0.269
Mof_O 	O 	0.43412	0.80878	0.32637	-0.304
Mof_O 	O 	0.56107	0.14342	0.46613	-0.325
Mof_O 	O 	0.31042	0.77348	0.77395	-0.296
Mof_O 	O 	0.43825	0.43082	0.62478	-0.34
Mof_O 	O 	0.56275	0.85864	0.88681	-0.31
_end
