data_functionalizedCrystal
_audit_creation_method	'EQeq! by Chris Wilmer'
_symmetry_space_group_name_H-M	'P1'
_symmetry_Int_Tables_number	1
_symmetry_cell_setting	triclinic
loop_
_symmetry_equiv_pos_as_xyz
  x,y,z
_cell_length_a	16.2469
_cell_length_b	11.8775
_cell_length_c	18.028
_cell_angle_alpha	90
_cell_angle_beta	103.749
_cell_angle_gamma	90
loop_
_atom_site_label
_atom_site_type_symbol
_atom_site_fract_x
_atom_site_fract_y
_atom_site_fract_z
_atom_site_charge
Mof_Mo	Mo	0.61768	0.2673	0.96685	1.182
Mof_Mo	Mo	0.47931	0.14621	0.80525	1.103
Mof_Mo	Mo	0.47622	0.9296	0.78693	1.164
Mof_Mo	Mo	0.61101	0.75571	0.92163	1.172
Mof_Mo	Mo	0.71561	0.84817	0.03684	1.081
Mof_Mo	Mo	0.71678	0.14143	0.06753	1.039
Mof_Mn	Mn	0.87551	0.00304	0.86546	0.967
Mof_P 	P 	0.67256	0.02521	0.88577	0.565
Mof_P 	P 	0.62316	0.3371	0.78995	0.554
Mof_P 	P 	0.56102	0.70151	0.73712	0.547
Mof_P 	P 	0.88903	0.008	0.05862	0.487
Mof_O 	O 	0.74	0.0403	0.8421	-0.32
Mof_O 	O 	0.6137	0.9226	0.8585	-0.405
Mof_O 	O 	0.6154	0.1324	0.8768	-0.416
Mof_O 	O 	0.7118	0.01	0.9732	-0.424
Mof_O 	O 	0.6301	0.4444	0.748	-0.331
Mof_O 	O 	0.5385	0.2758	0.7605	-0.394
Mof_O 	O 	0.6994	0.2595	0.7802	-0.185
Mof_O 	O 	0.6344	0.3632	0.8762	-0.404
Mof_O 	O 	0.6083	0.6704	0.6771	-0.288
Mof_O 	O 	0.4849	0.6225	0.7339	-0.265
Mof_O 	O 	0.5292	0.8249	0.7218	-0.382
Mof_O 	O 	0.6218	0.6961	0.818	-0.379
Mof_O 	O 	0.9775	0.9964	0.1174	-0.237
Mof_O 	O 	0.9019	0.039	0.9817	-0.325
Mof_O 	O 	0.8411	0.1011	0.0917	-0.416
Mof_O 	O 	0.8431	0.894	0.0605	-0.37
Mof_O 	O 	0.7388	0.2457	0.9924	-0.497
Mof_O 	O 	0.593	0.1353	0.0242	-0.637
Mof_O 	O 	0.4918	0.2548	0.9011	-0.48
Mof_O 	O 	0.5173	0.0506	0.733	-0.52
Mof_O 	O 	0.4642	0.0233	0.8751	-0.613
Mof_O 	O 	0.486	0.791	0.8624	-0.485
Mof_O 	O 	0.5917	0.8609	0.0008	-0.615
Mof_O 	O 	0.7337	0.7739	0.9461	-0.502
Mof_O 	O 	0.7041	0.9803	0.1145	-0.441
Mof_Mo	Mo	0.88232	0.7673	0.53315	1.162
Mof_Mo	Mo	0.02069	0.64621	0.69475	1.058
Mof_Mo	Mo	0.02378	0.4296	0.71307	1.07
Mof_Mo	Mo	0.88899	0.25571	0.57837	1.151
Mof_Mo	Mo	0.78439	0.34817	0.46316	1.108
Mof_Mo	Mo	0.78322	0.64143	0.43247	1.13
Mof_Mn	Mn	0.62449	0.50304	0.63454	0.977
Mof_P 	P 	0.82744	0.52521	0.61423	0.579
Mof_P 	P 	0.87684	0.8371	0.71005	0.553
Mof_P 	P 	0.93898	0.20151	0.76288	0.561
Mof_P 	P 	0.61097	0.508	0.44138	0.574
Mof_O 	O 	0.76	0.5403	0.6579	-0.316
Mof_O 	O 	0.8863	0.4226	0.6415	-0.409
Mof_O 	O 	0.8846	0.6324	0.6232	-0.407
Mof_O 	O 	0.7882	0.51	0.5268	-0.444
Mof_O 	O 	0.8699	0.9444	0.752	-0.307
Mof_O 	O 	0.9615	0.7758	0.7395	-0.365
Mof_O 	O 	0.8006	0.7595	0.7198	-0.179
Mof_O 	O 	0.8656	0.8632	0.6238	-0.391
Mof_O 	O 	0.8917	0.1704	0.8229	-0.287
Mof_O 	O 	0.0151	0.1225	0.7661	-0.289
Mof_O 	O 	0.9708	0.3249	0.7782	-0.361
Mof_O 	O 	0.8782	0.1961	0.682	-0.382
Mof_O 	O 	0.5225	0.4964	0.3826	-0.284
Mof_O 	O 	0.5981	0.539	0.5183	-0.363
Mof_O 	O 	0.6589	0.6011	0.4083	-0.419
Mof_O 	O 	0.6569	0.394	0.4395	-0.401
Mof_O 	O 	0.7612	0.7457	0.5076	-0.524
Mof_O 	O 	0.907	0.6353	0.4758	-0.614
Mof_O 	O 	0.0082	0.7548	0.5989	-0.496
Mof_O 	O 	0.9827	0.5506	0.767	-0.464
Mof_O 	O 	0.0358	0.5233	0.6249	-0.603
Mof_O 	O 	0.014	0.291	0.6376	-0.494
Mof_O 	O 	0.9083	0.3609	0.4992	-0.608
Mof_O 	O 	0.7663	0.2739	0.5539	-0.525
Mof_O 	O 	0.7959	0.4803	0.3855	-0.476
Mof_Mo	Mo	0.38232	0.7327	0.03315	1.087
Mof_Mo	Mo	0.52069	0.85379	0.19475	1.131
Mof_Mo	Mo	0.52378	0.0704	0.21307	1.052
Mof_Mo	Mo	0.38899	0.24429	0.07837	1.092
Mof_Mo	Mo	0.28439	0.15183	0.96316	1.153
Mof_Mo	Mo	0.28322	0.85857	0.93247	1.177
Mof_Mn	Mn	0.12449	0.99696	0.13454	0.982
Mof_P 	P 	0.32744	0.97479	0.11423	0.601
Mof_P 	P 	0.37684	0.6629	0.21005	0.553
Mof_P 	P 	0.43898	0.29849	0.26288	0.544
Mof_P 	P 	0.11097	0.992	0.94138	0.606
Mof_O 	O 	0.26	0.9597	0.1579	-0.313
Mof_O 	O 	0.3863	0.0774	0.1415	-0.437
Mof_O 	O 	0.3846	0.8676	0.1232	-0.417
Mof_O 	O 	0.2882	0.99	0.0268	-0.454
Mof_O 	O 	0.3699	0.5556	0.252	-0.333
Mof_O 	O 	0.4615	0.7242	0.2395	-0.395
Mof_O 	O 	0.3006	0.7405	0.2198	-0.183
Mof_O 	O 	0.3656	0.6368	0.1238	-0.398
Mof_O 	O 	0.3917	0.3296	0.3229	-0.292
Mof_O 	O 	0.5151	0.3775	0.2661	-0.265
Mof_O 	O 	0.4708	0.1751	0.2782	-0.379
Mof_O 	O 	0.3782	0.3039	0.182	-0.373
Mof_O 	O 	0.0225	0.0036	0.8826	-0.309
Mof_O 	O 	0.0981	0.961	0.0183	-0.381
Mof_O 	O 	0.1589	0.8989	0.9083	-0.425
Mof_O 	O 	0.1569	0.106	0.9395	-0.412
Mof_O 	O 	0.2612	0.7543	0.0076	-0.537
Mof_O 	O 	0.407	0.8647	0.9758	-0.594
Mof_O 	O 	0.5082	0.7452	0.0989	-0.483
Mof_O 	O 	0.4827	0.9494	0.267	-0.479
Mof_O 	O 	0.5358	0.9767	0.1249	-0.577
Mof_O 	O 	0.514	0.209	0.1376	-0.477
Mof_O 	O 	0.4083	0.1391	0.9992	-0.59
Mof_O 	O 	0.2663	0.2261	0.0539	-0.54
Mof_O 	O 	0.2959	0.0197	0.8855	-0.493
Mof_Mo	Mo	0.11768	0.2327	0.46685	1.097
Mof_Mo	Mo	0.97931	0.35379	0.30525	1.148
Mof_Mo	Mo	0.97622	0.5704	0.28693	1.164
Mof_Mo	Mo	0.11101	0.74429	0.42163	1.117
Mof_Mo	Mo	0.21561	0.65183	0.53684	1.122
Mof_Mo	Mo	0.21678	0.35857	0.56753	1.131
Mof_Mn	Mn	0.37551	0.49696	0.36546	0.978
Mof_P 	P 	0.17256	0.47479	0.38577	0.582
Mof_P 	P 	0.12316	0.1629	0.28995	0.553
Mof_P 	P 	0.06102	0.79849	0.23712	0.525
Mof_P 	P 	0.38903	0.492	0.55862	0.575
Mof_O 	O 	0.24	0.4597	0.3421	-0.318
Mof_O 	O 	0.1137	0.5774	0.3585	-0.43
Mof_O 	O 	0.1154	0.3676	0.3768	-0.425
Mof_O 	O 	0.2118	0.49	0.4732	-0.446
Mof_O 	O 	0.1301	0.0556	0.248	-0.355
Mof_O 	O 	0.0385	0.2242	0.2605	-0.415
Mof_O 	O 	0.1994	0.2405	0.2802	-0.189
Mof_O 	O 	0.1344	0.1368	0.3762	-0.407
Mof_O 	O 	0.1083	0.8296	0.1771	-0.293
Mof_O 	O 	0.9849	0.8775	0.2339	-0.236
Mof_O 	O 	0.0292	0.6751	0.2218	-0.4
Mof_O 	O 	0.1218	0.8039	0.318	-0.372
Mof_O 	O 	0.4775	0.5036	0.6174	-0.284
Mof_O 	O 	0.4019	0.461	0.4817	-0.364
Mof_O 	O 	0.3411	0.3989	0.5917	-0.422
Mof_O 	O 	0.3431	0.606	0.5605	-0.4
Mof_O 	O 	0.2388	0.2543	0.4924	-0.523
Mof_O 	O 	0.093	0.3647	0.5242	-0.623
Mof_O 	O 	0.9918	0.2452	0.4011	-0.474
Mof_O 	O 	0.0173	0.4494	0.233	-0.532
Mof_O 	O 	0.9642	0.4767	0.3751	-0.609
Mof_O 	O 	0.986	0.709	0.3624	-0.467
Mof_O 	O 	0.0917	0.6391	0.5008	-0.619
Mof_O 	O 	0.2337	0.7261	0.4461	-0.516
Mof_O 	O 	0.2041	0.5197	0.6145	-0.475
Mof_Mn	Mn	0.5	0	-0	1.03
Mof_Mn	Mn	1.68214e-17	0.5	0.5	1.085
_end
