data_functionalizedCrystal
_audit_creation_method	'EQeq! by Chris Wilmer'
_symmetry_space_group_name_H-M	'P1'
_symmetry_Int_Tables_number	1
_symmetry_cell_setting	triclinic
loop_
_symmetry_equiv_pos_as_xyz
  x,y,z
_cell_length_a	19.259
_cell_length_b	19.259
_cell_length_c	61.2256
_cell_angle_alpha	90
_cell_angle_beta	90
_cell_angle_gamma	90
loop_
_atom_site_label
_atom_site_type_symbol
_atom_site_fract_x
_atom_site_fract_y
_atom_site_fract_z
_atom_site_charge
Mof_O 	O 	0.57032	0.44654	0.52481	-0.397
Mof_O 	O 	0.5711	0.5614	0.52058	-0.402
Mof_O 	O 	0.9288	0.67867	0.60665	-0.375
Mof_C 	C 	0.76203	0.54031	0.60621	0.012
Mof_C 	C 	0.63632	0.51408	0.54928	-0.108
Mof_C 	C 	0.71907	0.53055	0.58638	0.057
Mof_C 	C 	0.58946	0.5065	0.53008	0.366
Mof_C 	C 	0.81398	0.59072	0.60625	-0.035
Mof_H 	H 	0.8228	0.6169	0.5934	0.063
Mof_C 	C 	0.69809	0.58816	0.5744	-0.103
Mof_H 	H 	0.712	0.6333	0.5789	0.071
Mof_C 	C 	0.65668	0.58033	0.55579	0.041
Mof_H 	H 	0.6425	0.6199	0.5477	0.037
Mof_C 	C 	0.65769	0.4567	0.56098	0.043
Mof_H 	H 	0.6444	0.4115	0.5563	0.036
Mof_C 	C 	0.69861	0.46472	0.57953	-0.106
Mof_H 	H 	0.7127	0.425	0.5876	0.072
Mof_C 	C 	0.55804	0.71429	0.49624	0.015
Mof_H 	H 	0.6011	0.6903	0.4961	0.038
Mof_O 	O 	0.07032	0.94654	0.02481	-0.41
Mof_O 	O 	0.0711	0.0614	0.02058	-0.413
Mof_O 	O 	0.4288	0.17867	0.10665	-0.403
Mof_C 	C 	0.26203	0.04031	0.10621	0.002
Mof_C 	C 	0.13632	0.01408	0.04928	-0.117
Mof_C 	C 	0.21907	0.03055	0.08638	0.056
Mof_C 	C 	0.08946	0.0065	0.03008	0.363
Mof_C 	C 	0.31398	0.09072	0.10625	-0.032
Mof_H 	H 	0.3228	0.1169	0.0934	0.056
Mof_C 	C 	0.19809	0.08816	0.0744	-0.111
Mof_H 	H 	0.212	0.1333	0.0789	0.067
Mof_C 	C 	0.15668	0.08033	0.05579	0.039
Mof_H 	H 	0.1425	0.1199	0.0477	0.031
Mof_C 	C 	0.15769	0.9567	0.06098	0.042
Mof_H 	H 	0.1444	0.9115	0.0563	0.029
Mof_C 	C 	0.19861	0.96472	0.07953	-0.112
Mof_H 	H 	0.2127	0.925	0.0876	0.068
Mof_C 	C 	0.05804	0.21429	0.99624	0.007
Mof_H 	H 	0.1011	0.1903	0.9961	0.036
Mof_O 	O 	0.92968	0.55346	0.02481	-0.373
Mof_O 	O 	0.9289	0.4386	0.02058	-0.378
Mof_O 	O 	0.5712	0.32133	0.10665	-0.402
Mof_C 	C 	0.73797	0.45969	0.10621	0.009
Mof_C 	C 	0.86368	0.48592	0.04928	-0.1
Mof_C 	C 	0.78093	0.46945	0.08638	0.055
Mof_C 	C 	0.91054	0.4935	0.03008	0.36
Mof_C 	C 	0.68602	0.40928	0.10625	-0.034
Mof_H 	H 	0.6772	0.3831	0.0934	0.058
Mof_C 	C 	0.80191	0.41184	0.0744	-0.1
Mof_H 	H 	0.788	0.3667	0.0789	0.071
Mof_C 	C 	0.84332	0.41967	0.05579	0.037
Mof_H 	H 	0.8575	0.3801	0.0477	0.042
Mof_C 	C 	0.84231	0.5433	0.06098	0.04
Mof_H 	H 	0.8556	0.5885	0.0563	0.041
Mof_C 	C 	0.80139	0.53528	0.07953	-0.102
Mof_H 	H 	0.7873	0.575	0.0876	0.071
Mof_C 	C 	0.94196	0.28571	0.99624	0.062
Mof_H 	H 	0.8989	0.3097	0.9961	0.027
Mof_O 	O 	0.42968	0.05346	0.52481	-0.4
Mof_O 	O 	0.4289	0.9386	0.52058	-0.404
Mof_O 	O 	0.0712	0.82133	0.60665	-0.416
Mof_C 	C 	0.23797	0.95969	0.60621	0.001
Mof_C 	C 	0.36368	0.98592	0.54928	-0.112
Mof_C 	C 	0.28093	0.96945	0.58638	0.056
Mof_C 	C 	0.41054	0.9935	0.53008	0.364
Mof_C 	C 	0.18602	0.90928	0.60625	-0.031
Mof_H 	H 	0.1772	0.8831	0.5934	0.052
Mof_C 	C 	0.30191	0.91184	0.5744	-0.108
Mof_H 	H 	0.288	0.8667	0.5789	0.068
Mof_C 	C 	0.34332	0.91967	0.55579	0.038
Mof_H 	H 	0.3575	0.8801	0.5477	0.035
Mof_C 	C 	0.34231	0.0433	0.56098	0.041
Mof_H 	H 	0.3556	0.0885	0.5563	0.033
Mof_C 	C 	0.30139	0.03528	0.57953	-0.11
Mof_H 	H 	0.2873	0.075	0.5876	0.067
Mof_C 	C 	0.44196	0.78571	0.49624	0.015
Mof_H 	H 	0.3989	0.8097	0.4961	0.034
Mof_O 	O 	0.80346	0.32032	0.77481	-0.395
Mof_O 	O 	0.6886	0.3211	0.77058	-0.403
Mof_O 	O 	0.57133	0.6788	0.85665	-0.402
Mof_C 	C 	0.70969	0.51203	0.85621	0.008
Mof_C 	C 	0.73592	0.38632	0.79928	-0.108
Mof_C 	C 	0.71945	0.46907	0.83638	0.057
Mof_C 	C 	0.7435	0.33946	0.78008	0.364
Mof_C 	C 	0.65928	0.56398	0.85625	-0.033
Mof_H 	H 	0.6331	0.5728	0.8434	0.058
Mof_C 	C 	0.66184	0.44809	0.8244	-0.105
Mof_H 	H 	0.6167	0.462	0.8289	0.069
Mof_C 	C 	0.66967	0.40668	0.80579	0.039
Mof_H 	H 	0.6301	0.3925	0.7977	0.036
Mof_C 	C 	0.7933	0.40769	0.81098	0.043
Mof_H 	H 	0.8385	0.3944	0.8063	0.042
Mof_C 	C 	0.78528	0.44861	0.82953	-0.105
Mof_H 	H 	0.825	0.4627	0.8376	0.076
Mof_C 	C 	0.53571	0.30804	0.74624	0.015
Mof_H 	H 	0.5597	0.3511	0.7461	0.036
Mof_O 	O 	0.30346	0.82032	0.27481	-0.4
Mof_O 	O 	0.1886	0.8211	0.27058	-0.407
Mof_O 	O 	0.07133	0.1788	0.35665	-0.416
Mof_C 	C 	0.20969	0.01203	0.35621	0.001
Mof_C 	C 	0.23592	0.88632	0.29928	-0.113
Mof_C 	C 	0.21945	0.96907	0.33638	0.055
Mof_C 	C 	0.2435	0.83946	0.28008	0.364
Mof_C 	C 	0.15928	0.06398	0.35625	-0.031
Mof_H 	H 	0.1331	0.0728	0.3434	0.05
Mof_C 	C 	0.16184	0.94809	0.3244	-0.109
Mof_H 	H 	0.1167	0.962	0.3289	0.06
Mof_C 	C 	0.16967	0.90668	0.30579	0.037
Mof_H 	H 	0.1301	0.8925	0.2977	0.028
Mof_C 	C 	0.2933	0.90769	0.31098	0.042
Mof_H 	H 	0.3385	0.8944	0.3063	0.034
Mof_C 	C 	0.28528	0.94861	0.32953	-0.109
Mof_H 	H 	0.325	0.9627	0.3376	0.07
Mof_C 	C 	0.03571	0.80804	0.24624	-0.102
Mof_H 	H 	0.0597	0.8511	0.2461	0.062
Mof_O 	O 	0.69654	0.67968	0.27481	-0.398
Mof_O 	O 	0.8114	0.6789	0.27058	-0.399
Mof_O 	O 	0.92867	0.3212	0.35665	-0.377
Mof_C 	C 	0.79031	0.48797	0.35621	0.011
Mof_C 	C 	0.76408	0.61368	0.29928	-0.108
Mof_C 	C 	0.78055	0.53093	0.33638	0.057
Mof_C 	C 	0.7565	0.66054	0.28008	0.364
Mof_C 	C 	0.84072	0.43602	0.35625	-0.036
Mof_H 	H 	0.8669	0.4272	0.3434	0.064
Mof_C 	C 	0.83816	0.55191	0.3244	-0.103
Mof_H 	H 	0.8833	0.538	0.3289	0.078
Mof_C 	C 	0.83033	0.59332	0.30579	0.041
Mof_H 	H 	0.8699	0.6075	0.2977	0.044
Mof_C 	C 	0.7067	0.59231	0.31098	0.042
Mof_H 	H 	0.6615	0.6056	0.3063	0.035
Mof_C 	C 	0.71472	0.55139	0.32953	-0.106
Mof_H 	H 	0.675	0.5373	0.3376	0.07
Mof_C 	C 	0.96429	0.69196	0.24624	0.133
Mof_H 	H 	0.9403	0.6489	0.2461	0.01
Mof_O 	O 	0.19654	0.17968	0.77481	-0.403
Mof_O 	O 	0.3114	0.1789	0.77058	-0.404
Mof_O 	O 	0.42867	0.8212	0.85665	-0.404
Mof_C 	C 	0.29031	0.98797	0.85621	0.003
Mof_C 	C 	0.26408	0.11368	0.79928	-0.113
Mof_C 	C 	0.28055	0.03093	0.83638	0.055
Mof_C 	C 	0.2565	0.16054	0.78008	0.364
Mof_C 	C 	0.34072	0.93602	0.85625	-0.033
Mof_H 	H 	0.3669	0.9272	0.8434	0.056
Mof_C 	C 	0.33816	0.05191	0.8244	-0.107
Mof_H 	H 	0.3833	0.038	0.8289	0.069
Mof_C 	C 	0.33033	0.09332	0.80579	0.039
Mof_H 	H 	0.3699	0.1075	0.7977	0.035
Mof_C 	C 	0.2067	0.09231	0.81098	0.041
Mof_H 	H 	0.1615	0.1056	0.8063	0.028
Mof_C 	C 	0.21472	0.05139	0.82953	-0.11
Mof_H 	H 	0.175	0.0373	0.8376	0.063
Mof_C 	C 	0.46429	0.19196	0.74624	0.015
Mof_H 	H 	0.4403	0.1489	0.7461	0.035
Mof_O 	O 	0.92968	0.44654	0.97519	-0.373
Mof_O 	O 	0.9289	0.5614	0.97942	-0.378
Mof_O 	O 	0.5712	0.67867	0.89335	-0.402
Mof_C 	C 	0.73797	0.54031	0.89379	0.009
Mof_C 	C 	0.86368	0.51408	0.95072	-0.1
Mof_C 	C 	0.78093	0.53055	0.91362	0.055
Mof_C 	C 	0.91054	0.5065	0.96992	0.36
Mof_C 	C 	0.68602	0.59072	0.89375	-0.034
Mof_H 	H 	0.6772	0.6169	0.9066	0.058
Mof_C 	C 	0.80191	0.58816	0.9256	-0.1
Mof_H 	H 	0.788	0.6333	0.9211	0.071
Mof_C 	C 	0.84332	0.58033	0.94421	0.037
Mof_H 	H 	0.8575	0.6199	0.9523	0.042
Mof_C 	C 	0.84231	0.4567	0.93902	0.04
Mof_H 	H 	0.8556	0.4115	0.9437	0.041
Mof_C 	C 	0.80139	0.46472	0.92047	-0.102
Mof_H 	H 	0.7873	0.425	0.9124	0.071
Mof_C 	C 	0.94196	0.71429	0.00376	0.062
Mof_H 	H 	0.8989	0.6903	0.0039	0.027
Mof_O 	O 	0.42968	0.94654	0.47519	-0.4
Mof_O 	O 	0.4289	0.0614	0.47942	-0.404
Mof_O 	O 	0.0712	0.17867	0.39335	-0.416
Mof_C 	C 	0.23797	0.04031	0.39379	0.001
Mof_C 	C 	0.36368	0.01408	0.45072	-0.112
Mof_C 	C 	0.28093	0.03055	0.41362	0.056
Mof_C 	C 	0.41054	0.0065	0.46992	0.364
Mof_C 	C 	0.18602	0.09072	0.39375	-0.031
Mof_H 	H 	0.1772	0.1169	0.4066	0.052
Mof_C 	C 	0.30191	0.08816	0.4256	-0.108
Mof_H 	H 	0.288	0.1333	0.4211	0.068
Mof_C 	C 	0.34332	0.08033	0.44421	0.038
Mof_H 	H 	0.3575	0.1199	0.4523	0.035
Mof_C 	C 	0.34231	0.9567	0.43902	0.041
Mof_H 	H 	0.3556	0.9115	0.4437	0.033
Mof_C 	C 	0.30139	0.96472	0.42047	-0.11
Mof_H 	H 	0.2873	0.925	0.4124	0.067
Mof_C 	C 	0.44196	0.21429	0.50376	0.015
Mof_H 	H 	0.3989	0.1903	0.5039	0.034
Mof_O 	O 	0.57032	0.55346	0.47519	-0.398
Mof_O 	O 	0.5711	0.4386	0.47942	-0.403
Mof_O 	O 	0.9288	0.32133	0.39335	-0.376
Mof_C 	C 	0.76203	0.45969	0.39379	0.011
Mof_C 	C 	0.63632	0.48592	0.45072	-0.109
Mof_C 	C 	0.71907	0.46945	0.41362	0.056
Mof_C 	C 	0.58946	0.4935	0.46992	0.365
Mof_C 	C 	0.81398	0.40928	0.39375	-0.036
Mof_H 	H 	0.8228	0.3831	0.4066	0.062
Mof_C 	C 	0.69809	0.41184	0.4256	-0.104
Mof_H 	H 	0.712	0.3667	0.4211	0.07
Mof_C 	C 	0.65668	0.41967	0.44421	0.04
Mof_H 	H 	0.6425	0.3801	0.4523	0.037
Mof_C 	C 	0.65769	0.5433	0.43902	0.043
Mof_H 	H 	0.6444	0.5885	0.4437	0.036
Mof_C 	C 	0.69861	0.53528	0.42047	-0.106
Mof_H 	H 	0.7127	0.575	0.4124	0.072
Mof_C 	C 	0.55804	0.28571	0.50376	0.015
Mof_H 	H 	0.6011	0.3097	0.5039	0.038
Mof_O 	O 	0.07032	0.05346	0.97519	-0.41
Mof_O 	O 	0.0711	0.9386	0.97942	-0.413
Mof_O 	O 	0.4288	0.82133	0.89335	-0.403
Mof_C 	C 	0.26203	0.95969	0.89379	0.002
Mof_C 	C 	0.13632	0.98592	0.95072	-0.117
Mof_C 	C 	0.21907	0.96945	0.91362	0.056
Mof_C 	C 	0.08946	0.9935	0.96992	0.363
Mof_C 	C 	0.31398	0.90928	0.89375	-0.032
Mof_H 	H 	0.3228	0.8831	0.9066	0.056
Mof_C 	C 	0.19809	0.91184	0.9256	-0.111
Mof_H 	H 	0.212	0.8667	0.9211	0.067
Mof_C 	C 	0.15668	0.91967	0.94421	0.039
Mof_H 	H 	0.1425	0.8801	0.9523	0.031
Mof_C 	C 	0.15769	0.0433	0.93902	0.042
Mof_H 	H 	0.1444	0.0885	0.9437	0.029
Mof_C 	C 	0.19861	0.03528	0.92047	-0.112
Mof_H 	H 	0.2127	0.075	0.9124	0.068
Mof_C 	C 	0.05804	0.78571	0.00376	0.007
Mof_H 	H 	0.1011	0.8097	0.0039	0.036
Mof_O 	O 	0.69654	0.32032	0.72519	-0.398
Mof_O 	O 	0.8114	0.3211	0.72942	-0.399
Mof_O 	O 	0.92867	0.6788	0.64335	-0.377
Mof_C 	C 	0.79031	0.51203	0.64379	0.011
Mof_C 	C 	0.76408	0.38632	0.70072	-0.108
Mof_C 	C 	0.78055	0.46907	0.66362	0.057
Mof_C 	C 	0.7565	0.33946	0.71992	0.364
Mof_C 	C 	0.84072	0.56398	0.64375	-0.036
Mof_H 	H 	0.8669	0.5728	0.6566	0.064
Mof_C 	C 	0.83816	0.44809	0.6756	-0.103
Mof_H 	H 	0.8833	0.462	0.6711	0.078
Mof_C 	C 	0.83033	0.40668	0.69421	0.041
Mof_H 	H 	0.8699	0.3925	0.7023	0.044
Mof_C 	C 	0.7067	0.40769	0.68902	0.042
Mof_H 	H 	0.6615	0.3944	0.6937	0.035
Mof_C 	C 	0.71472	0.44861	0.67047	-0.106
Mof_H 	H 	0.675	0.4627	0.6624	0.07
Mof_C 	C 	0.96429	0.30804	0.75376	0.133
Mof_H 	H 	0.9403	0.3511	0.7539	0.01
Mof_O 	O 	0.19654	0.82032	0.22519	-0.403
Mof_O 	O 	0.3114	0.8211	0.22942	-0.404
Mof_O 	O 	0.42867	0.1788	0.14335	-0.404
Mof_C 	C 	0.29031	0.01203	0.14379	0.003
Mof_C 	C 	0.26408	0.88632	0.20072	-0.113
Mof_C 	C 	0.28055	0.96907	0.16362	0.055
Mof_C 	C 	0.2565	0.83946	0.21992	0.364
Mof_C 	C 	0.34072	0.06398	0.14375	-0.033
Mof_H 	H 	0.3669	0.0728	0.1566	0.056
Mof_C 	C 	0.33816	0.94809	0.1756	-0.107
Mof_H 	H 	0.3833	0.962	0.1711	0.069
Mof_C 	C 	0.33033	0.90668	0.19421	0.039
Mof_H 	H 	0.3699	0.8925	0.2023	0.035
Mof_C 	C 	0.2067	0.90769	0.18902	0.041
Mof_H 	H 	0.1615	0.8944	0.1937	0.028
Mof_C 	C 	0.21472	0.94861	0.17047	-0.11
Mof_H 	H 	0.175	0.9627	0.1624	0.063
Mof_C 	C 	0.46429	0.80804	0.25376	0.015
Mof_H 	H 	0.4403	0.8511	0.2539	0.035
Mof_O 	O 	0.80346	0.67968	0.22519	-0.395
Mof_O 	O 	0.6886	0.6789	0.22942	-0.403
Mof_O 	O 	0.57133	0.3212	0.14335	-0.402
Mof_C 	C 	0.70969	0.48797	0.14379	0.008
Mof_C 	C 	0.73592	0.61368	0.20072	-0.108
Mof_C 	C 	0.71945	0.53093	0.16362	0.057
Mof_C 	C 	0.7435	0.66054	0.21992	0.364
Mof_C 	C 	0.65928	0.43602	0.14375	-0.033
Mof_H 	H 	0.6331	0.4272	0.1566	0.058
Mof_C 	C 	0.66184	0.55191	0.1756	-0.105
Mof_H 	H 	0.6167	0.538	0.1711	0.069
Mof_C 	C 	0.66967	0.59332	0.19421	0.039
Mof_H 	H 	0.6301	0.6075	0.2023	0.036
Mof_C 	C 	0.7933	0.59231	0.18902	0.043
Mof_H 	H 	0.8385	0.6056	0.1937	0.042
Mof_C 	C 	0.78528	0.55139	0.17047	-0.105
Mof_H 	H 	0.825	0.5373	0.1624	0.076
Mof_C 	C 	0.53571	0.69196	0.25376	0.015
Mof_H 	H 	0.5597	0.6489	0.2539	0.036
Mof_O 	O 	0.30346	0.17968	0.72519	-0.4
Mof_O 	O 	0.1886	0.1789	0.72942	-0.407
Mof_O 	O 	0.07133	0.8212	0.64335	-0.416
Mof_C 	C 	0.20969	0.98797	0.64379	0.001
Mof_C 	C 	0.23592	0.11368	0.70072	-0.113
Mof_C 	C 	0.21945	0.03093	0.66362	0.055
Mof_C 	C 	0.2435	0.16054	0.71992	0.364
Mof_C 	C 	0.15928	0.93602	0.64375	-0.031
Mof_H 	H 	0.1331	0.9272	0.6566	0.05
Mof_C 	C 	0.16184	0.05191	0.6756	-0.109
Mof_H 	H 	0.1167	0.038	0.6711	0.06
Mof_C 	C 	0.16967	0.09332	0.69421	0.037
Mof_H 	H 	0.1301	0.1075	0.7023	0.028
Mof_C 	C 	0.2933	0.09231	0.68902	0.042
Mof_H 	H 	0.3385	0.1056	0.6937	0.034
Mof_C 	C 	0.28528	0.05139	0.67047	-0.109
Mof_H 	H 	0.325	0.0373	0.6624	0.07
Mof_C 	C 	0.03571	0.19196	0.75376	-0.102
Mof_H 	H 	0.0597	0.1489	0.7539	0.062
Mof_O 	O 	0.42968	0.55346	0.47519	-0.4
Mof_O 	O 	0.4289	0.4386	0.47942	-0.404
Mof_O 	O 	0.0712	0.32133	0.39335	-0.417
Mof_C 	C 	0.23797	0.45969	0.39379	0.001
Mof_C 	C 	0.36368	0.48592	0.45072	-0.112
Mof_C 	C 	0.28093	0.46945	0.41362	0.055
Mof_C 	C 	0.41054	0.4935	0.46992	0.364
Mof_C 	C 	0.18602	0.40928	0.39375	-0.031
Mof_H 	H 	0.1772	0.3831	0.4066	0.052
Mof_C 	C 	0.30191	0.41184	0.4256	-0.108
Mof_H 	H 	0.288	0.3667	0.4211	0.068
Mof_C 	C 	0.34332	0.41967	0.44421	0.038
Mof_H 	H 	0.3575	0.3801	0.4523	0.035
Mof_C 	C 	0.34231	0.5433	0.43902	0.041
Mof_H 	H 	0.3556	0.5885	0.4437	0.033
Mof_C 	C 	0.30139	0.53528	0.42047	-0.11
Mof_H 	H 	0.2873	0.575	0.4124	0.067
Mof_C 	C 	0.44196	0.28571	0.50376	0.015
Mof_H 	H 	0.3989	0.3097	0.5039	0.034
Mof_O 	O 	0.92968	0.05346	0.97519	-0.374
Mof_O 	O 	0.9289	0.9386	0.97942	-0.378
Mof_O 	O 	0.5712	0.82133	0.89335	-0.402
Mof_C 	C 	0.73797	0.95969	0.89379	0.009
Mof_C 	C 	0.86368	0.98592	0.95072	-0.1
Mof_C 	C 	0.78093	0.96945	0.91362	0.055
Mof_C 	C 	0.91054	0.9935	0.96992	0.359
Mof_C 	C 	0.68602	0.90928	0.89375	-0.034
Mof_H 	H 	0.6772	0.8831	0.9066	0.058
Mof_C 	C 	0.80191	0.91184	0.9256	-0.1
Mof_H 	H 	0.788	0.8667	0.9211	0.071
Mof_C 	C 	0.84332	0.91967	0.94421	0.037
Mof_H 	H 	0.8575	0.8801	0.9523	0.042
Mof_C 	C 	0.84231	0.0433	0.93902	0.04
Mof_H 	H 	0.8556	0.0885	0.9437	0.041
Mof_C 	C 	0.80139	0.03528	0.92047	-0.102
Mof_H 	H 	0.7873	0.075	0.9124	0.071
Mof_C 	C 	0.94196	0.78571	0.00376	0.061
Mof_H 	H 	0.8989	0.8097	0.0039	0.027
Mof_O 	O 	0.07032	0.44654	0.97519	-0.41
Mof_O 	O 	0.0711	0.5614	0.97942	-0.413
Mof_O 	O 	0.4288	0.67867	0.89335	-0.403
Mof_C 	C 	0.26203	0.54031	0.89379	0.002
Mof_C 	C 	0.13632	0.51408	0.95072	-0.117
Mof_C 	C 	0.21907	0.53055	0.91362	0.056
Mof_C 	C 	0.08946	0.5065	0.96992	0.362
Mof_C 	C 	0.31398	0.59072	0.89375	-0.032
Mof_H 	H 	0.3228	0.6169	0.9066	0.056
Mof_C 	C 	0.19809	0.58816	0.9256	-0.11
Mof_H 	H 	0.212	0.6333	0.9211	0.067
Mof_C 	C 	0.15668	0.58033	0.94421	0.039
Mof_H 	H 	0.1425	0.6199	0.9523	0.031
Mof_C 	C 	0.15769	0.4567	0.93902	0.042
Mof_H 	H 	0.1444	0.4115	0.9437	0.029
Mof_C 	C 	0.19861	0.46472	0.92047	-0.112
Mof_H 	H 	0.2127	0.425	0.9124	0.068
Mof_C 	C 	0.05804	0.71429	0.00376	0.007
Mof_H 	H 	0.1011	0.6903	0.0039	0.036
Mof_O 	O 	0.57032	0.94654	0.47519	-0.398
Mof_O 	O 	0.5711	0.0614	0.47942	-0.403
Mof_O 	O 	0.9288	0.17867	0.39335	-0.376
Mof_C 	C 	0.76203	0.04031	0.39379	0.01
Mof_C 	C 	0.63632	0.01408	0.45072	-0.109
Mof_C 	C 	0.71907	0.03055	0.41362	0.057
Mof_C 	C 	0.58946	0.0065	0.46992	0.365
Mof_C 	C 	0.81398	0.09072	0.39375	-0.036
Mof_H 	H 	0.8228	0.1169	0.4066	0.062
Mof_C 	C 	0.69809	0.08816	0.4256	-0.104
Mof_H 	H 	0.712	0.1333	0.4211	0.07
Mof_C 	C 	0.65668	0.08033	0.44421	0.04
Mof_H 	H 	0.6425	0.1199	0.4523	0.037
Mof_C 	C 	0.65769	0.9567	0.43902	0.043
Mof_H 	H 	0.6444	0.9115	0.4437	0.036
Mof_C 	C 	0.69861	0.96472	0.42047	-0.106
Mof_H 	H 	0.7127	0.925	0.4124	0.072
Mof_C 	C 	0.55804	0.21429	0.50376	0.015
Mof_H 	H 	0.6011	0.1903	0.5039	0.038
Mof_O 	O 	0.19654	0.67968	0.22519	-0.403
Mof_O 	O 	0.3114	0.6789	0.22942	-0.404
Mof_O 	O 	0.42867	0.3212	0.14335	-0.404
Mof_C 	C 	0.29031	0.48797	0.14379	0.003
Mof_C 	C 	0.26408	0.61368	0.20072	-0.113
Mof_C 	C 	0.28055	0.53093	0.16362	0.055
Mof_C 	C 	0.2565	0.66054	0.21992	0.365
Mof_C 	C 	0.34072	0.43602	0.14375	-0.033
Mof_H 	H 	0.3669	0.4272	0.1566	0.056
Mof_C 	C 	0.33816	0.55191	0.1756	-0.108
Mof_H 	H 	0.3833	0.538	0.1711	0.069
Mof_C 	C 	0.33033	0.59332	0.19421	0.039
Mof_H 	H 	0.3699	0.6075	0.2023	0.035
Mof_C 	C 	0.2067	0.59231	0.18902	0.041
Mof_H 	H 	0.1615	0.6056	0.1937	0.027
Mof_C 	C 	0.21472	0.55139	0.17047	-0.111
Mof_H 	H 	0.175	0.5373	0.1624	0.063
Mof_C 	C 	0.46429	0.69196	0.25376	0.015
Mof_H 	H 	0.4403	0.6489	0.2539	0.035
Mof_O 	O 	0.69654	0.17968	0.72519	-0.398
Mof_O 	O 	0.8114	0.1789	0.72942	-0.4
Mof_O 	O 	0.92867	0.8212	0.64335	-0.377
Mof_C 	C 	0.79031	0.98797	0.64379	0.011
Mof_C 	C 	0.76408	0.11368	0.70072	-0.108
Mof_C 	C 	0.78055	0.03093	0.66362	0.056
Mof_C 	C 	0.7565	0.16054	0.71992	0.364
Mof_C 	C 	0.84072	0.93602	0.64375	-0.036
Mof_H 	H 	0.8669	0.9272	0.6566	0.064
Mof_C 	C 	0.83816	0.05191	0.6756	-0.103
Mof_H 	H 	0.8833	0.038	0.6711	0.078
Mof_C 	C 	0.83033	0.09332	0.69421	0.041
Mof_H 	H 	0.8699	0.1075	0.7023	0.044
Mof_C 	C 	0.7067	0.09231	0.68902	0.042
Mof_H 	H 	0.6615	0.1056	0.6937	0.035
Mof_C 	C 	0.71472	0.05139	0.67047	-0.106
Mof_H 	H 	0.675	0.0373	0.6624	0.069
Mof_C 	C 	0.96429	0.19196	0.75376	0.132
Mof_H 	H 	0.9403	0.1489	0.7539	0.01
Mof_O 	O 	0.30346	0.32032	0.72519	-0.4
Mof_O 	O 	0.1886	0.3211	0.72942	-0.407
Mof_O 	O 	0.07133	0.6788	0.64335	-0.416
Mof_C 	C 	0.20969	0.51203	0.64379	0.001
Mof_C 	C 	0.23592	0.38632	0.70072	-0.113
Mof_C 	C 	0.21945	0.46907	0.66362	0.055
Mof_C 	C 	0.2435	0.33946	0.71992	0.364
Mof_C 	C 	0.15928	0.56398	0.64375	-0.031
Mof_H 	H 	0.1331	0.5728	0.6566	0.05
Mof_C 	C 	0.16184	0.44809	0.6756	-0.109
Mof_H 	H 	0.1167	0.462	0.6711	0.06
Mof_C 	C 	0.16967	0.40668	0.69421	0.037
Mof_H 	H 	0.1301	0.3925	0.7023	0.028
Mof_C 	C 	0.2933	0.40769	0.68902	0.042
Mof_H 	H 	0.3385	0.3944	0.6937	0.034
Mof_C 	C 	0.28528	0.44861	0.67047	-0.11
Mof_H 	H 	0.325	0.4627	0.6624	0.07
Mof_C 	C 	0.03571	0.30804	0.75376	-0.102
Mof_H 	H 	0.0597	0.3511	0.7539	0.062
Mof_O 	O 	0.80346	0.82032	0.22519	-0.395
Mof_O 	O 	0.6886	0.8211	0.22942	-0.403
Mof_O 	O 	0.57133	0.1788	0.14335	-0.402
Mof_C 	C 	0.70969	0.01203	0.14379	0.009
Mof_C 	C 	0.73592	0.88632	0.20072	-0.108
Mof_C 	C 	0.71945	0.96907	0.16362	0.056
Mof_C 	C 	0.7435	0.83946	0.21992	0.364
Mof_C 	C 	0.65928	0.06398	0.14375	-0.034
Mof_H 	H 	0.6331	0.0728	0.1566	0.058
Mof_C 	C 	0.66184	0.94809	0.1756	-0.105
Mof_H 	H 	0.6167	0.962	0.1711	0.069
Mof_C 	C 	0.66967	0.90668	0.19421	0.039
Mof_H 	H 	0.6301	0.8925	0.2023	0.036
Mof_C 	C 	0.7933	0.90769	0.18902	0.043
Mof_H 	H 	0.8385	0.8944	0.1937	0.041
Mof_C 	C 	0.78528	0.94861	0.17047	-0.105
Mof_H 	H 	0.825	0.9627	0.1624	0.076
Mof_C 	C 	0.53571	0.80804	0.25376	0.015
Mof_H 	H 	0.5597	0.8511	0.2539	0.036
Mof_O 	O 	0.07032	0.55346	0.02481	-0.41
Mof_O 	O 	0.0711	0.4386	0.02058	-0.413
Mof_O 	O 	0.4288	0.32133	0.10665	-0.403
Mof_C 	C 	0.26203	0.45969	0.10621	0.002
Mof_C 	C 	0.13632	0.48592	0.04928	-0.117
Mof_C 	C 	0.21907	0.46945	0.08638	0.056
Mof_C 	C 	0.08946	0.4935	0.03008	0.362
Mof_C 	C 	0.31398	0.40928	0.10625	-0.032
Mof_H 	H 	0.3228	0.3831	0.0934	0.056
Mof_C 	C 	0.19809	0.41184	0.0744	-0.11
Mof_H 	H 	0.212	0.3667	0.0789	0.067
Mof_C 	C 	0.15668	0.41967	0.05579	0.039
Mof_H 	H 	0.1425	0.3801	0.0477	0.031
Mof_C 	C 	0.15769	0.5433	0.06098	0.042
Mof_H 	H 	0.1444	0.5885	0.0563	0.029
Mof_C 	C 	0.19861	0.53528	0.07953	-0.112
Mof_H 	H 	0.2127	0.575	0.0876	0.068
Mof_C 	C 	0.05804	0.28571	0.99624	0.007
Mof_H 	H 	0.1011	0.3097	0.9961	0.036
Mof_O 	O 	0.57032	0.05346	0.52481	-0.398
Mof_O 	O 	0.5711	0.9386	0.52058	-0.403
Mof_O 	O 	0.9288	0.82133	0.60665	-0.376
Mof_C 	C 	0.76203	0.95969	0.60621	0.01
Mof_C 	C 	0.63632	0.98592	0.54928	-0.109
Mof_C 	C 	0.71907	0.96945	0.58638	0.057
Mof_C 	C 	0.58946	0.9935	0.53008	0.365
Mof_C 	C 	0.81398	0.90928	0.60625	-0.036
Mof_H 	H 	0.8228	0.8831	0.5934	0.062
Mof_C 	C 	0.69809	0.91184	0.5744	-0.104
Mof_H 	H 	0.712	0.8667	0.5789	0.07
Mof_C 	C 	0.65668	0.91967	0.55579	0.04
Mof_H 	H 	0.6425	0.8801	0.5477	0.037
Mof_C 	C 	0.65769	0.0433	0.56098	0.043
Mof_H 	H 	0.6444	0.0885	0.5563	0.036
Mof_C 	C 	0.69861	0.03528	0.57953	-0.106
Mof_H 	H 	0.7127	0.075	0.5876	0.072
Mof_C 	C 	0.55804	0.78571	0.49624	0.015
Mof_H 	H 	0.6011	0.8097	0.4961	0.038
Mof_O 	O 	0.42968	0.44654	0.52481	-0.4
Mof_O 	O 	0.4289	0.5614	0.52058	-0.404
Mof_O 	O 	0.0712	0.67867	0.60665	-0.417
Mof_C 	C 	0.23797	0.54031	0.60621	0.001
Mof_C 	C 	0.36368	0.51408	0.54928	-0.112
Mof_C 	C 	0.28093	0.53055	0.58638	0.055
Mof_C 	C 	0.41054	0.5065	0.53008	0.364
Mof_C 	C 	0.18602	0.59072	0.60625	-0.031
Mof_H 	H 	0.1772	0.6169	0.5934	0.052
Mof_C 	C 	0.30191	0.58816	0.5744	-0.108
Mof_H 	H 	0.288	0.6333	0.5789	0.068
Mof_C 	C 	0.34332	0.58033	0.55579	0.038
Mof_H 	H 	0.3575	0.6199	0.5477	0.035
Mof_C 	C 	0.34231	0.4567	0.56098	0.041
Mof_H 	H 	0.3556	0.4115	0.5563	0.033
Mof_C 	C 	0.30139	0.46472	0.57953	-0.11
Mof_H 	H 	0.2873	0.425	0.5876	0.067
Mof_C 	C 	0.44196	0.71429	0.49624	0.015
Mof_H 	H 	0.3989	0.6903	0.4961	0.034
Mof_O 	O 	0.92968	0.94654	0.02481	-0.374
Mof_O 	O 	0.9289	0.0614	0.02058	-0.378
Mof_O 	O 	0.5712	0.17867	0.10665	-0.402
Mof_C 	C 	0.73797	0.04031	0.10621	0.009
Mof_C 	C 	0.86368	0.01408	0.04928	-0.1
Mof_C 	C 	0.78093	0.03055	0.08638	0.055
Mof_C 	C 	0.91054	0.0065	0.03008	0.359
Mof_C 	C 	0.68602	0.09072	0.10625	-0.034
Mof_H 	H 	0.6772	0.1169	0.0934	0.058
Mof_C 	C 	0.80191	0.08816	0.0744	-0.1
Mof_H 	H 	0.788	0.1333	0.0789	0.071
Mof_C 	C 	0.84332	0.08033	0.05579	0.037
Mof_H 	H 	0.8575	0.1199	0.0477	0.042
Mof_C 	C 	0.84231	0.9567	0.06098	0.04
Mof_H 	H 	0.8556	0.9115	0.0563	0.041
Mof_C 	C 	0.80139	0.96472	0.07953	-0.102
Mof_H 	H 	0.7873	0.925	0.0876	0.071
Mof_C 	C 	0.94196	0.21429	0.99624	0.061
Mof_H 	H 	0.8989	0.1903	0.9961	0.027
Mof_O 	O 	0.30346	0.67968	0.27481	-0.4
Mof_O 	O 	0.1886	0.6789	0.27058	-0.407
Mof_O 	O 	0.07133	0.3212	0.35665	-0.416
Mof_C 	C 	0.20969	0.48797	0.35621	0.001
Mof_C 	C 	0.23592	0.61368	0.29928	-0.113
Mof_C 	C 	0.21945	0.53093	0.33638	0.055
Mof_C 	C 	0.2435	0.66054	0.28008	0.364
Mof_C 	C 	0.15928	0.43602	0.35625	-0.031
Mof_H 	H 	0.1331	0.4272	0.3434	0.05
Mof_C 	C 	0.16184	0.55191	0.3244	-0.109
Mof_H 	H 	0.1167	0.538	0.3289	0.06
Mof_C 	C 	0.16967	0.59332	0.30579	0.037
Mof_H 	H 	0.1301	0.6075	0.2977	0.028
Mof_C 	C 	0.2933	0.59231	0.31098	0.042
Mof_H 	H 	0.3385	0.6056	0.3063	0.034
Mof_C 	C 	0.28528	0.55139	0.32953	-0.11
Mof_H 	H 	0.325	0.5373	0.3376	0.07
Mof_C 	C 	0.03571	0.69196	0.24624	-0.102
Mof_H 	H 	0.0597	0.6489	0.2461	0.062
Mof_O 	O 	0.80346	0.17968	0.77481	-0.395
Mof_O 	O 	0.6886	0.1789	0.77058	-0.403
Mof_O 	O 	0.57133	0.8212	0.85665	-0.402
Mof_C 	C 	0.70969	0.98797	0.85621	0.009
Mof_C 	C 	0.73592	0.11368	0.79928	-0.108
Mof_C 	C 	0.71945	0.03093	0.83638	0.056
Mof_C 	C 	0.7435	0.16054	0.78008	0.364
Mof_C 	C 	0.65928	0.93602	0.85625	-0.034
Mof_H 	H 	0.6331	0.9272	0.8434	0.058
Mof_C 	C 	0.66184	0.05191	0.8244	-0.105
Mof_H 	H 	0.6167	0.038	0.8289	0.069
Mof_C 	C 	0.66967	0.09332	0.80579	0.039
Mof_H 	H 	0.6301	0.1075	0.7977	0.036
Mof_C 	C 	0.7933	0.09231	0.81098	0.043
Mof_H 	H 	0.8385	0.1056	0.8063	0.041
Mof_C 	C 	0.78528	0.05139	0.82953	-0.105
Mof_H 	H 	0.825	0.0373	0.8376	0.076
Mof_C 	C 	0.53571	0.19196	0.74624	0.015
Mof_H 	H 	0.5597	0.1489	0.7461	0.036
Mof_O 	O 	0.19654	0.32032	0.77481	-0.403
Mof_O 	O 	0.3114	0.3211	0.77058	-0.404
Mof_O 	O 	0.42867	0.6788	0.85665	-0.404
Mof_C 	C 	0.29031	0.51203	0.85621	0.003
Mof_C 	C 	0.26408	0.38632	0.79928	-0.113
Mof_C 	C 	0.28055	0.46907	0.83638	0.055
Mof_C 	C 	0.2565	0.33946	0.78008	0.365
Mof_C 	C 	0.34072	0.56398	0.85625	-0.033
Mof_H 	H 	0.3669	0.5728	0.8434	0.056
Mof_C 	C 	0.33816	0.44809	0.8244	-0.108
Mof_H 	H 	0.3833	0.462	0.8289	0.069
Mof_C 	C 	0.33033	0.40668	0.80579	0.039
Mof_H 	H 	0.3699	0.3925	0.7977	0.035
Mof_C 	C 	0.2067	0.40769	0.81098	0.041
Mof_H 	H 	0.1615	0.3944	0.8063	0.027
Mof_C 	C 	0.21472	0.44861	0.82953	-0.111
Mof_H 	H 	0.175	0.4627	0.8376	0.063
Mof_C 	C 	0.46429	0.30804	0.74624	0.015
Mof_H 	H 	0.4403	0.3511	0.7461	0.035
Mof_O 	O 	0.69654	0.82032	0.27481	-0.398
Mof_O 	O 	0.8114	0.8211	0.27058	-0.4
Mof_O 	O 	0.92867	0.1788	0.35665	-0.377
Mof_C 	C 	0.79031	0.01203	0.35621	0.011
Mof_C 	C 	0.76408	0.88632	0.29928	-0.108
Mof_C 	C 	0.78055	0.96907	0.33638	0.056
Mof_C 	C 	0.7565	0.83946	0.28008	0.364
Mof_C 	C 	0.84072	0.06398	0.35625	-0.036
Mof_H 	H 	0.8669	0.0728	0.3434	0.064
Mof_C 	C 	0.83816	0.94809	0.3244	-0.103
Mof_H 	H 	0.8833	0.962	0.3289	0.078
Mof_C 	C 	0.83033	0.90668	0.30579	0.041
Mof_H 	H 	0.8699	0.8925	0.2977	0.044
Mof_C 	C 	0.7067	0.90769	0.31098	0.042
Mof_H 	H 	0.6615	0.8944	0.3063	0.035
Mof_C 	C 	0.71472	0.94861	0.32953	-0.106
Mof_H 	H 	0.675	0.9627	0.3376	0.069
Mof_C 	C 	0.96429	0.80804	0.24624	0.132
Mof_H 	H 	0.9403	0.8511	0.2461	0.01
Mof_Cu	Cu	0.5	0.56706	0.49777	0.918
Mof_N 	N 	0.5	0.67843	0.49643	-0.165
Mof_Cu	Cu	1.1893e-32	0.06706	0.99777	0.897
Mof_N 	N 	1.1877e-32	0.17843	0.99643	-0.2
Mof_Cu	Cu	1.1893e-32	0.43294	0.99777	0.897
Mof_N 	N 	4.74483e-32	0.32157	0.99643	-0.2
Mof_Cu	Cu	0.5	0.93294	0.49777	0.918
Mof_N 	N 	0.5	0.82157	0.49643	-0.165
Mof_Cu	Cu	0.68294	0.25	0.74777	0.918
Mof_N 	N 	0.57157	0.25	0.74643	-0.165
Mof_Cu	Cu	0.81706	0.75	0.24777	0.919
Mof_N 	N 	0.92843	0.75	0.24643	-0.199
Mof_Cu	Cu	5.51512e-33	0.56706	0.00223	0.897
Mof_N 	N 	8.65748e-33	0.67843	0.00357	-0.2
Mof_Cu	Cu	0.5	0.06706	0.50223	0.918
Mof_N 	N 	0.5	0.17843	0.50357	-0.165
Mof_Cu	Cu	0.5	0.43294	0.50223	0.918
Mof_N 	N 	0.5	0.32157	0.50357	-0.165
Mof_Cu	Cu	-3.3777e-33	0.93294	0.00223	0.897
Mof_N 	N 	8.65748e-33	0.82157	0.00357	-0.2
Mof_Cu	Cu	0.81706	0.25	0.75223	0.919
Mof_N 	N 	0.92843	0.25	0.75357	-0.199
Mof_Cu	Cu	0.68294	0.75	0.25223	0.918
Mof_N 	N 	0.57157	0.75	0.25357	-0.165
Mof_Cu	Cu	0.31706	0.75	0.25223	0.918
Mof_N 	N 	0.42843	0.75	0.25357	-0.165
Mof_Cu	Cu	0.18294	0.25	0.75223	0.917
Mof_N 	N 	0.07157	0.25	0.75357	-0.13
Mof_Cu	Cu	0.18294	0.75	0.24777	0.917
Mof_N 	N 	0.07157	0.75	0.24643	-0.13
Mof_Cu	Cu	0.31706	0.25	0.74777	0.918
Mof_N 	N 	0.42843	0.25	0.74643	-0.165
Mof_Cu	Cu	-1.05947e-32	0.75	0.60329	0.882
Mof_Cu	Cu	0.5	0.25	0.10329	0.906
Mof_Cu	Cu	0.5	0.75	0.85329	0.906
Mof_Cu	Cu	-1.35746e-32	0.25	0.35329	0.882
Mof_Cu	Cu	0.5	0.75	0.89671	0.906
Mof_Cu	Cu	3.14071e-32	0.25	0.39671	0.882
Mof_Cu	Cu	-1.00771e-32	0.75	0.64671	0.882
Mof_Cu	Cu	0.5	0.25	0.14671	0.906
Mof_C 	C 	0.75129	0.50129	0.625	-0.07
Mof_H 	H 	0.7164	0.4664	0.625	0.057
Mof_C 	C 	0.85301	0.60301	0.625	-0.048
Mof_C 	C 	0.90759	0.65759	0.625	0.338
Mof_C 	C 	0.25129	0.00129	0.125	-0.067
Mof_H 	H 	0.2164	0.9664	0.125	0.051
Mof_C 	C 	0.35301	0.10301	0.125	-0.061
Mof_C 	C 	0.40759	0.15759	0.125	0.343
Mof_C 	C 	0.74871	0.49871	0.125	-0.07
Mof_H 	H 	0.7836	0.5336	0.125	0.06
Mof_C 	C 	0.64699	0.39699	0.125	-0.057
Mof_C 	C 	0.59241	0.34241	0.125	0.343
Mof_C 	C 	0.24871	0.99871	0.625	-0.067
Mof_H 	H 	0.2836	0.0336	0.625	0.054
Mof_C 	C 	0.14699	0.89699	0.625	-0.067
Mof_C 	C 	0.09241	0.84241	0.625	0.344
Mof_C 	C 	0.74871	0.50129	0.875	-0.07
Mof_H 	H 	0.7836	0.4664	0.875	0.06
Mof_C 	C 	0.64699	0.60301	0.875	-0.057
Mof_C 	C 	0.59241	0.65759	0.875	0.343
Mof_C 	C 	0.24871	0.00129	0.375	-0.067
Mof_H 	H 	0.2836	0.9664	0.375	0.054
Mof_C 	C 	0.14699	0.10301	0.375	-0.067
Mof_C 	C 	0.09241	0.15759	0.375	0.344
Mof_C 	C 	0.75129	0.49871	0.375	-0.07
Mof_H 	H 	0.7164	0.5336	0.375	0.057
Mof_C 	C 	0.85301	0.39699	0.375	-0.048
Mof_C 	C 	0.90759	0.34241	0.375	0.338
Mof_C 	C 	0.25129	0.99871	0.875	-0.067
Mof_H 	H 	0.2164	0.0336	0.875	0.051
Mof_C 	C 	0.35301	0.89699	0.875	-0.061
Mof_C 	C 	0.40759	0.84241	0.875	0.343
Mof_C 	C 	0.24871	0.49871	0.375	-0.068
Mof_H 	H 	0.2836	0.5336	0.375	0.054
Mof_C 	C 	0.14699	0.39699	0.375	-0.067
Mof_C 	C 	0.09241	0.34241	0.375	0.344
Mof_C 	C 	0.74871	0.99871	0.875	-0.069
Mof_H 	H 	0.7836	0.0336	0.875	0.06
Mof_C 	C 	0.64699	0.89699	0.875	-0.057
Mof_C 	C 	0.59241	0.84241	0.875	0.343
Mof_C 	C 	0.25129	0.50129	0.875	-0.068
Mof_H 	H 	0.2164	0.4664	0.875	0.051
Mof_C 	C 	0.35301	0.60301	0.875	-0.061
Mof_C 	C 	0.40759	0.65759	0.875	0.343
Mof_C 	C 	0.75129	0.00129	0.375	-0.07
Mof_H 	H 	0.7164	0.9664	0.375	0.057
Mof_C 	C 	0.85301	0.10301	0.375	-0.048
Mof_C 	C 	0.90759	0.15759	0.375	0.338
Mof_C 	C 	0.25129	0.49871	0.125	-0.068
Mof_H 	H 	0.2164	0.5336	0.125	0.051
Mof_C 	C 	0.35301	0.39699	0.125	-0.061
Mof_C 	C 	0.40759	0.34241	0.125	0.343
Mof_C 	C 	0.75129	0.99871	0.625	-0.07
Mof_H 	H 	0.7164	0.0336	0.625	0.057
Mof_C 	C 	0.85301	0.89699	0.625	-0.048
Mof_C 	C 	0.90759	0.84241	0.625	0.338
Mof_C 	C 	0.24871	0.50129	0.625	-0.068
Mof_H 	H 	0.2836	0.4664	0.625	0.054
Mof_C 	C 	0.14699	0.60301	0.625	-0.067
Mof_C 	C 	0.09241	0.65759	0.625	0.344
Mof_C 	C 	0.74871	0.00129	0.125	-0.069
Mof_H 	H 	0.7836	0.9664	0.125	0.06
Mof_C 	C 	0.64699	0.10301	0.125	-0.057
Mof_C 	C 	0.59241	0.15759	0.125	0.343
_end
