data_functionalizedCrystal
_audit_creation_method	'EQeq! by Chris Wilmer'
_symmetry_space_group_name_H-M	'P1'
_symmetry_Int_Tables_number	1
_symmetry_cell_setting	triclinic
loop_
_symmetry_equiv_pos_as_xyz
  x,y,z
_cell_length_a	18.798
_cell_length_b	18.798
_cell_length_c	18.798
_cell_angle_alpha	90
_cell_angle_beta	90
_cell_angle_gamma	90
loop_
_atom_site_label
_atom_site_type_symbol
_atom_site_fract_x
_atom_site_fract_y
_atom_site_fract_z
_atom_site_charge
Mof_Cd	Cd	0.5	0.25	-0	0.433
Mof_Cd	Cd	0.5	0.75	-0	0.435
Mof_Cd	Cd	4.73763e-33	0.5	0.25	0.433
Mof_Cd	Cd	2.81205e-33	0.5	0.75	0.434
Mof_Cd	Cd	0.25	3.80028e-33	0.5	0.432
Mof_Cd	Cd	0.75	3.80028e-33	0.5	0.434
Mof_Cd	Cd	0.25	0.5	-0	0.432
Mof_Cd	Cd	0.75	0.5	-0	0.434
Mof_Cd	Cd	0.5	7.60056e-33	0.75	0.434
Mof_Cd	Cd	0.5	1.90014e-33	0.25	0.432
Mof_Cd	Cd	1.8747e-33	0.25	0.5	0.432
Mof_Cd	Cd	1.8747e-33	0.75	0.5	0.434
Mof_Cd	Cd	0.68858	0	-0	3.669
Mof_O 	O 	0.5686	0	-0	0.596
Mof_Cd	Cd	0.6469	0	-0	-3.425
Mof_Cd	Cd	0.18858	0.5	0.5	3.093
Mof_O 	O 	0.0686	0.5	0.5	0.474
Mof_Cd	Cd	0.1469	0.5	0.5	-2.748
Mof_Cd	Cd	0.31142	0	-0	3.91
Mof_O 	O 	0.4314	0	-0	0.657
Mof_Cd	Cd	0.3531	0	-0	-3.691
Mof_Cd	Cd	0.81142	0.5	0.5	2.943
Mof_O 	O 	0.9314	0.5	0.5	0.481
Mof_Cd	Cd	0.8531	0.5	0.5	-2.585
Mof_Cd	Cd	-0	0.68858	-0	3.669
Mof_O 	O 	-0	0.5686	-0	0.596
Mof_Cd	Cd	-0	0.6469	-0	-3.425
Mof_Cd	Cd	0.5	0.18858	0.5	3.093
Mof_O 	O 	0.5	0.0686	0.5	0.474
Mof_Cd	Cd	0.5	0.1469	0.5	-2.748
Mof_Cd	Cd	-0	0.31142	-0	3.91
Mof_O 	O 	3.80028e-33	0.4314	-0	0.657
Mof_Cd	Cd	-0	0.3531	-0	-3.691
Mof_Cd	Cd	0.5	0.81142	0.5	2.943
Mof_O 	O 	0.5	0.9314	0.5	0.481
Mof_Cd	Cd	0.5	0.8531	0.5	-2.585
Mof_Cd	Cd	2.58176e-33	7.60056e-33	0.68858	3.669
Mof_O 	O 	2.13191e-33	0	0.5686	0.596
Mof_Cd	Cd	2.42549e-33	7.60056e-33	0.6469	-3.425
Mof_Cd	Cd	0.5	0.5	0.18858	3.093
Mof_O 	O 	0.5	0.5	0.0686	0.474
Mof_Cd	Cd	0.5	0.5	0.1469	-2.748
Mof_Cd	Cd	1.16764e-33	3.80028e-33	0.31142	3.91
Mof_O 	O 	5.41777e-33	3.80028e-33	0.4314	0.657
Mof_Cd	Cd	1.32391e-33	0	0.3531	-3.691
Mof_Cd	Cd	0.5	0.5	0.81142	2.943
Mof_O 	O 	0.5	0.5	0.9314	0.481
Mof_Cd	Cd	0.5	0.5	0.8531	-2.585
Mof_N 	N 	0.6227	0.2879	-0	-0.123
Mof_C 	C 	0.6725	0.2383	-0	-0.04
Mof_C 	C 	0.6473	0.1617	-0	0.384
Mof_O 	O 	0.5823	0.1502	-0	-0.26
Mof_O 	O 	0.6961	0.1168	-0	-0.432
Mof_N 	N 	0.1227	0.7879	0.5	-0.117
Mof_C 	C 	0.1725	0.7383	0.5	-0.017
Mof_C 	C 	0.1473	0.6617	0.5	0.371
Mof_O 	O 	0.0823	0.6502	0.5	-0.251
Mof_O 	O 	0.1961	0.6168	0.5	-0.393
Mof_N 	N 	0.3773	0.7121	-0	-0.123
Mof_C 	C 	0.3275	0.7617	-0	-0.038
Mof_C 	C 	0.3527	0.8383	-0	0.387
Mof_O 	O 	0.4177	0.8498	-0	-0.241
Mof_O 	O 	0.3039	0.8832	-0	-0.411
Mof_N 	N 	0.8773	0.2121	0.5	-0.101
Mof_C 	C 	0.8275	0.2617	0.5	-0.007
Mof_C 	C 	0.8527	0.3383	0.5	0.362
Mof_O 	O 	0.9177	0.3498	0.5	-0.207
Mof_O 	O 	0.8039	0.3832	0.5	-0.381
Mof_N 	N 	0.3773	0.2879	-0	-0.122
Mof_C 	C 	0.3275	0.2383	-0	-0.049
Mof_C 	C 	0.3527	0.1617	-0	0.392
Mof_O 	O 	0.4177	0.1502	-0	-0.26
Mof_O 	O 	0.3039	0.1168	-0	-0.45
Mof_N 	N 	0.8773	0.7879	0.5	-0.101
Mof_C 	C 	0.8275	0.7383	0.5	-0.003
Mof_C 	C 	0.8527	0.6617	0.5	0.362
Mof_O 	O 	0.9177	0.6502	0.5	-0.208
Mof_O 	O 	0.8039	0.6168	0.5	-0.38
Mof_N 	N 	0.6227	0.7121	-0	-0.124
Mof_C 	C 	0.6725	0.7617	-0	-0.03
Mof_C 	C 	0.6473	0.8383	-0	0.379
Mof_O 	O 	0.5823	0.8498	-0	-0.241
Mof_O 	O 	0.6961	0.8832	-0	-0.394
Mof_N 	N 	0.1227	0.2121	0.5	-0.118
Mof_C 	C 	0.1725	0.2617	0.5	-0.022
Mof_C 	C 	0.1473	0.3383	0.5	0.371
Mof_O 	O 	0.0823	0.3498	0.5	-0.252
Mof_O 	O 	0.1961	0.3832	0.5	-0.394
Mof_N 	N 	8.68001e-33	0.6227	0.2879	-0.123
Mof_C 	C 	1.03942e-32	0.6725	0.2383	-0.04
Mof_C 	C 	2.50642e-33	0.6473	0.1617	0.384
Mof_O 	O 	8.16372e-33	0.5823	0.1502	-0.26
Mof_O 	O 	1.388e-33	0.6961	0.1168	-0.432
Mof_N 	N 	0.5	0.1227	0.7879	-0.117
Mof_C 	C 	0.5	0.1725	0.7383	-0.017
Mof_C 	C 	0.5	0.1473	0.6617	0.371
Mof_O 	O 	0.5	0.0823	0.6502	-0.251
Mof_O 	O 	0.5	0.1961	0.6168	-0.393
Mof_N 	N 	2.66995e-33	0.3773	0.7121	-0.123
Mof_C 	C 	2.85592e-33	0.3275	0.7617	-0.038
Mof_C 	C 	1.83442e-32	0.3527	0.8383	0.387
Mof_O 	O 	3.18624e-33	0.4177	0.8498	-0.241
Mof_O 	O 	3.31147e-33	0.3039	0.8832	-0.411
Mof_N 	N 	0.5	0.8773	0.2121	-0.101
Mof_C 	C 	0.5	0.8275	0.2617	-0.007
Mof_C 	C 	0.5	0.8527	0.3383	0.362
Mof_O 	O 	0.5	0.9177	0.3498	-0.207
Mof_O 	O 	0.5	0.8039	0.3832	-0.381
Mof_N 	N 	1.07945e-33	0.3773	0.2879	-0.122
Mof_C 	C 	2.79362e-33	0.3275	0.2383	-0.049
Mof_C 	C 	2.50642e-33	0.3527	0.1617	0.392
Mof_O 	O 	5.6316e-34	0.4177	0.1502	-0.26
Mof_O 	O 	5.18828e-33	0.3039	0.1168	-0.45
Mof_N 	N 	0.5	0.8773	0.7879	-0.101
Mof_C 	C 	0.5	0.8275	0.7383	-0.003
Mof_C 	C 	0.5	0.8527	0.6617	0.362
Mof_O 	O 	0.5	0.9177	0.6502	-0.208
Mof_O 	O 	0.5	0.8039	0.6168	-0.38
Mof_N 	N 	1.02705e-32	0.6227	0.7121	-0.124
Mof_C 	C 	1.8057e-32	0.6725	0.7617	-0.03
Mof_C 	C 	-4.45744e-33	0.6473	0.8383	0.379
Mof_O 	O 	-4.41432e-33	0.5823	0.8498	-0.241
Mof_O 	O 	-4.28909e-33	0.6961	0.8832	-0.394
Mof_N 	N 	0.5	0.1227	0.2121	-0.118
Mof_C 	C 	0.5	0.1725	0.2617	-0.022
Mof_C 	C 	0.5	0.1473	0.3383	0.371
Mof_O 	O 	0.5	0.0823	0.3498	-0.252
Mof_O 	O 	0.5	0.1961	0.3832	-0.394
Mof_N 	N 	0.2879	0	0.6227	-0.123
Mof_C 	C 	0.2383	0	0.6725	-0.04
Mof_C 	C 	0.1617	0	0.6473	0.384
Mof_O 	O 	0.1502	0	0.5823	-0.26
Mof_O 	O 	0.1168	7.60056e-33	0.6961	-0.432
Mof_N 	N 	0.7879	0.5	0.1227	-0.117
Mof_C 	C 	0.7383	0.5	0.1725	-0.017
Mof_C 	C 	0.6617	0.5	0.1473	0.371
Mof_O 	O 	0.6502	0.5	0.0823	-0.251
Mof_O 	O 	0.6168	0.5	0.1961	-0.393
Mof_N 	N 	0.7121	0	0.3773	-0.123
Mof_C 	C 	0.7617	3.80028e-33	0.3275	-0.038
Mof_C 	C 	0.8383	0	0.3527	0.387
Mof_O 	O 	0.8498	0	0.4177	-0.241
Mof_O 	O 	0.8832	3.80028e-33	0.3039	-0.411
Mof_N 	N 	0.2121	0.5	0.8773	-0.101
Mof_C 	C 	0.2617	0.5	0.8275	-0.007
Mof_C 	C 	0.3383	0.5	0.8527	0.362
Mof_O 	O 	0.3498	0.5	0.9177	-0.207
Mof_O 	O 	0.3832	0.5	0.8039	-0.381
Mof_N 	N 	0.2879	0	0.3773	-0.122
Mof_C 	C 	0.2383	3.80028e-33	0.3275	-0.049
Mof_C 	C 	0.1617	0	0.3527	0.392
Mof_O 	O 	0.1502	0	0.4177	-0.26
Mof_O 	O 	0.1168	3.80028e-33	0.3039	-0.45
Mof_N 	N 	0.7879	0.5	0.8773	-0.101
Mof_C 	C 	0.7383	0.5	0.8275	-0.003
Mof_C 	C 	0.6617	0.5	0.8527	0.362
Mof_O 	O 	0.6502	0.5	0.9177	-0.208
Mof_O 	O 	0.6168	0.5	0.8039	-0.38
Mof_N 	N 	0.7121	0	0.6227	-0.124
Mof_C 	C 	0.7617	0	0.6725	-0.03
Mof_C 	C 	0.8383	0	0.6473	0.379
Mof_O 	O 	0.8498	0	0.5823	-0.241
Mof_O 	O 	0.8832	7.60056e-33	0.6961	-0.394
Mof_N 	N 	0.2121	0.5	0.1227	-0.118
Mof_C 	C 	0.2617	0.5	0.1725	-0.022
Mof_C 	C 	0.3383	0.5	0.1473	0.371
Mof_O 	O 	0.3498	0.5	0.0823	-0.252
Mof_O 	O 	0.3832	0.5	0.1961	-0.394
Mof_N 	N 	0.2879	0.6227	-0	-0.123
Mof_C 	C 	0.2383	0.6725	-0	-0.04
Mof_C 	C 	0.1617	0.6473	-0	0.384
Mof_O 	O 	0.1502	0.5823	-0	-0.26
Mof_O 	O 	0.1168	0.6961	-0	-0.432
Mof_N 	N 	0.7879	0.1227	0.5	-0.117
Mof_C 	C 	0.7383	0.1725	0.5	-0.017
Mof_C 	C 	0.6617	0.1473	0.5	0.371
Mof_O 	O 	0.6502	0.0823	0.5	-0.251
Mof_O 	O 	0.6168	0.1961	0.5	-0.393
Mof_N 	N 	0.7121	0.3773	-0	-0.123
Mof_C 	C 	0.7617	0.3275	-0	-0.038
Mof_C 	C 	0.8383	0.3527	-0	0.387
Mof_O 	O 	0.8498	0.4177	-0	-0.241
Mof_O 	O 	0.8832	0.3039	-0	-0.411
Mof_N 	N 	0.2121	0.8773	0.5	-0.101
Mof_C 	C 	0.2617	0.8275	0.5	-0.007
Mof_C 	C 	0.3383	0.8527	0.5	0.362
Mof_O 	O 	0.3498	0.9177	0.5	-0.207
Mof_O 	O 	0.3832	0.8039	0.5	-0.381
Mof_N 	N 	0.2879	0.3773	-0	-0.122
Mof_C 	C 	0.2383	0.3275	-0	-0.049
Mof_C 	C 	0.1617	0.3527	-0	0.392
Mof_O 	O 	0.1502	0.4177	-0	-0.26
Mof_O 	O 	0.1168	0.3039	-0	-0.45
Mof_N 	N 	0.7879	0.8773	0.5	-0.101
Mof_C 	C 	0.7383	0.8275	0.5	-0.003
Mof_C 	C 	0.6617	0.8527	0.5	0.362
Mof_O 	O 	0.6502	0.9177	0.5	-0.208
Mof_O 	O 	0.6168	0.8039	0.5	-0.38
Mof_N 	N 	0.7121	0.6227	-0	-0.124
Mof_C 	C 	0.7617	0.6725	-0	-0.03
Mof_C 	C 	0.8383	0.6473	-0	0.379
Mof_O 	O 	0.8498	0.5823	-0	-0.241
Mof_O 	O 	0.8832	0.6961	-0	-0.394
Mof_N 	N 	0.2121	0.1227	0.5	-0.118
Mof_C 	C 	0.2617	0.1725	0.5	-0.022
Mof_C 	C 	0.3383	0.1473	0.5	0.371
Mof_O 	O 	0.3498	0.0823	0.5	-0.252
Mof_O 	O 	0.3832	0.1961	0.5	-0.394
Mof_N 	N 	0.6227	0	0.7121	-0.124
Mof_C 	C 	0.6725	0	0.7617	-0.03
Mof_C 	C 	0.6473	7.60056e-33	0.8383	0.379
Mof_O 	O 	0.5823	0	0.8498	-0.241
Mof_O 	O 	0.6961	0	0.8832	-0.394
Mof_N 	N 	0.1227	0.5	0.2121	-0.118
Mof_C 	C 	0.1725	0.5	0.2617	-0.022
Mof_C 	C 	0.1473	0.5	0.3383	0.371
Mof_O 	O 	0.0823	0.5	0.3498	-0.252
Mof_O 	O 	0.1961	0.5	0.3832	-0.394
Mof_N 	N 	0.3773	3.80028e-33	0.2879	-0.122
Mof_C 	C 	0.3275	0	0.2383	-0.049
Mof_C 	C 	0.3527	0	0.1617	0.392
Mof_O 	O 	0.4177	1.90014e-33	0.1502	-0.26
Mof_O 	O 	0.3039	0	0.1168	-0.45
Mof_N 	N 	0.8773	0.5	0.7879	-0.101
Mof_C 	C 	0.8275	0.5	0.7383	-0.003
Mof_C 	C 	0.8527	0.5	0.6617	0.362
Mof_O 	O 	0.9177	0.5	0.6502	-0.208
Mof_O 	O 	0.8039	0.5	0.6168	-0.38
Mof_N 	N 	0.3773	0	0.7121	-0.123
Mof_C 	C 	0.3275	0	0.7617	-0.038
Mof_C 	C 	0.3527	7.60056e-33	0.8383	0.387
Mof_O 	O 	0.4177	0	0.8498	-0.241
Mof_O 	O 	0.3039	0	0.8832	-0.411
Mof_N 	N 	0.8773	0.5	0.2121	-0.101
Mof_C 	C 	0.8275	0.5	0.2617	-0.007
Mof_C 	C 	0.8527	0.5	0.3383	0.362
Mof_O 	O 	0.9177	0.5	0.3498	-0.207
Mof_O 	O 	0.8039	0.5	0.3832	-0.381
Mof_N 	N 	0.6227	3.80028e-33	0.2879	-0.123
Mof_C 	C 	0.6725	0	0.2383	-0.04
Mof_C 	C 	0.6473	0	0.1617	0.384
Mof_O 	O 	0.5823	1.90014e-33	0.1502	-0.26
Mof_O 	O 	0.6961	0	0.1168	-0.432
Mof_N 	N 	0.1227	0.5	0.7879	-0.117
Mof_C 	C 	0.1725	0.5	0.7383	-0.017
Mof_C 	C 	0.1473	0.5	0.6617	0.371
Mof_O 	O 	0.0823	0.5	0.6502	-0.251
Mof_O 	O 	0.1961	0.5	0.6168	-0.393
Mof_N 	N 	1.41465e-33	0.2879	0.3773	-0.122
Mof_C 	C 	1.22793e-33	0.2383	0.3275	-0.049
Mof_C 	C 	1.32241e-33	0.1617	0.3527	0.392
Mof_O 	O 	1.56612e-33	0.1502	0.4177	-0.26
Mof_O 	O 	4.93972e-33	0.1168	0.3039	-0.45
Mof_N 	N 	0.5	0.7879	0.8773	-0.101
Mof_C 	C 	0.5	0.7383	0.8275	-0.003
Mof_C 	C 	0.5	0.6617	0.8527	0.362
Mof_O 	O 	0.5	0.6502	0.9177	-0.208
Mof_O 	O 	0.5	0.6168	0.8039	-0.38
Mof_N 	N 	9.93531e-33	0.7121	0.6227	-0.124
Mof_C 	C 	1.77226e-32	0.7617	0.6725	-0.03
Mof_C 	C 	2.42699e-33	0.8383	0.6473	0.379
Mof_O 	O 	2.18328e-33	0.8498	0.5823	-0.241
Mof_O 	O 	-4.9906e-33	0.8832	0.6961	-0.394
Mof_N 	N 	0.5	0.2121	0.1227	-0.118
Mof_C 	C 	0.5	0.2617	0.1725	-0.022
Mof_C 	C 	0.5	0.3383	0.1473	0.371
Mof_O 	O 	0.5	0.3498	0.0823	-0.252
Mof_O 	O 	0.5	0.3832	0.1961	-0.394
Mof_N 	N 	9.93531e-33	0.2879	0.6227	-0.123
Mof_C 	C 	1.0122e-32	0.2383	0.6725	-0.04
Mof_C 	C 	2.42699e-33	0.1617	0.6473	0.384
Mof_O 	O 	2.18328e-33	0.1502	0.5823	-0.26
Mof_O 	O 	2.60996e-33	0.1168	0.6961	-0.432
Mof_N 	N 	0.5	0.7879	0.1227	-0.117
Mof_C 	C 	0.5	0.7383	0.1725	-0.017
Mof_C 	C 	0.5	0.6617	0.1473	0.371
Mof_O 	O 	0.5	0.6502	0.0823	-0.251
Mof_O 	O 	0.5	0.6168	0.1961	-0.393
Mof_N 	N 	1.41465e-33	0.7121	0.3773	-0.123
Mof_C 	C 	1.22793e-33	0.7617	0.3275	-0.038
Mof_C 	C 	2.03238e-32	0.8383	0.3527	0.387
Mof_O 	O 	1.56612e-33	0.8498	0.4177	-0.241
Mof_O 	O 	4.93972e-33	0.8832	0.3039	-0.411
Mof_N 	N 	0.5	0.2121	0.8773	-0.101
Mof_C 	C 	0.5	0.2617	0.8275	-0.007
Mof_C 	C 	0.5	0.3383	0.8527	0.362
Mof_O 	O 	0.5	0.3498	0.9177	-0.207
Mof_O 	O 	0.5	0.3832	0.8039	-0.381
Mof_C 	C 	0.6449	0.3551	-0	0.094
Mof_H 	H 	0.6099	0.3901	-0	0.045
Mof_C 	C 	0.7436	0.2564	-0	-0.01
Mof_H 	H 	0.7786	0.2214	-0	0.026
Mof_C 	C 	0.1449	0.8551	0.5	0.11
Mof_H 	H 	0.1099	0.8901	0.5	0.079
Mof_C 	C 	0.2436	0.7564	0.5	-0.023
Mof_H 	H 	0.2786	0.7214	0.5	0.044
Mof_C 	C 	0.3551	0.6449	-0	0.094
Mof_H 	H 	0.3901	0.6099	-0	0.045
Mof_C 	C 	0.2564	0.7436	-0	-0.01
Mof_H 	H 	0.2214	0.7786	-0	0.026
Mof_C 	C 	0.8551	0.1449	0.5	0.11
Mof_H 	H 	0.8901	0.1099	0.5	0.079
Mof_C 	C 	0.7564	0.2436	0.5	-0.023
Mof_H 	H 	0.7214	0.2786	0.5	0.044
Mof_C 	C 	0.3551	0.3551	-0	0.092
Mof_H 	H 	0.3901	0.3901	-0	0.045
Mof_C 	C 	0.2564	0.2564	-0	-0.004
Mof_H 	H 	0.2214	0.2214	-0	0.013
Mof_C 	C 	0.8551	0.8551	0.5	0.114
Mof_H 	H 	0.8901	0.8901	0.5	0.098
Mof_C 	C 	0.7564	0.7564	0.5	-0.026
Mof_H 	H 	0.7214	0.7214	0.5	0.048
Mof_C 	C 	0.6449	0.6449	-0	0.096
Mof_H 	H 	0.6099	0.6099	-0	0.045
Mof_C 	C 	0.7436	0.7436	-0	-0.016
Mof_H 	H 	0.7786	0.7786	-0	0.038
Mof_C 	C 	0.1449	0.1449	0.5	0.105
Mof_H 	H 	0.1099	0.1099	0.5	0.059
Mof_C 	C 	0.2436	0.2436	0.5	-0.02
Mof_H 	H 	0.2786	0.2786	0.5	0.04
Mof_C 	C 	5.13169e-33	0.6449	0.3551	0.094
Mof_H 	H 	1.46264e-33	0.6099	0.3901	0.045
Mof_C 	C 	4.76162e-33	0.7436	0.2564	-0.01
Mof_H 	H 	4.6304e-33	0.7786	0.2214	0.026
Mof_C 	C 	0.5	0.1449	0.8551	0.11
Mof_H 	H 	0.5	0.1099	0.8901	0.079
Mof_C 	C 	0.5	0.2436	0.7564	-0.023
Mof_H 	H 	0.5	0.2786	0.7214	0.044
Mof_C 	C 	2.41799e-33	0.3551	0.6449	0.094
Mof_H 	H 	2.28676e-33	0.3901	0.6099	0.045
Mof_C 	C 	2.78805e-33	0.2564	0.7436	-0.01
Mof_H 	H 	2.91928e-33	0.2214	0.7786	0.026
Mof_C 	C 	0.5	0.8551	0.1449	0.11
Mof_H 	H 	0.5	0.8901	0.1099	0.079
Mof_C 	C 	0.5	0.7564	0.2436	-0.023
Mof_H 	H 	0.5	0.7214	0.2786	0.044
Mof_C 	C 	8.93197e-33	0.3551	0.3551	0.092
Mof_H 	H 	1.46264e-33	0.3901	0.3901	0.045
Mof_C 	C 	4.76162e-33	0.2564	0.2564	-0.004
Mof_H 	H 	-2.97016e-33	0.2214	0.2214	0.013
Mof_C 	C 	0.5	0.8551	0.8551	0.114
Mof_H 	H 	0.5	0.8901	0.8901	0.098
Mof_C 	C 	0.5	0.7564	0.7564	-0.026
Mof_H 	H 	0.5	0.7214	0.7214	0.048
Mof_C 	C 	1.76191e-32	0.6449	0.6449	0.096
Mof_H 	H 	2.28676e-33	0.6099	0.6099	0.045
Mof_C 	C 	1.79892e-32	0.7436	0.7436	-0.016
Mof_H 	H 	1.05198e-32	0.7786	0.7786	0.038
Mof_C 	C 	0.5	0.1449	0.1449	0.105
Mof_H 	H 	0.5	0.1099	0.1099	0.059
Mof_C 	C 	0.5	0.2436	0.2436	-0.02
Mof_H 	H 	0.5	0.2786	0.2786	0.04
Mof_C 	C 	0.3551	0	0.6449	0.094
Mof_H 	H 	0.3901	0	0.6099	0.045
Mof_C 	C 	0.2564	7.60056e-33	0.7436	-0.01
Mof_H 	H 	0.2214	0	0.7786	0.026
Mof_C 	C 	0.8551	0.5	0.1449	0.11
Mof_H 	H 	0.8901	0.5	0.1099	0.079
Mof_C 	C 	0.7564	0.5	0.2436	-0.023
Mof_H 	H 	0.7214	0.5	0.2786	0.044
Mof_C 	C 	0.6449	0	0.3551	0.094
Mof_H 	H 	0.6099	0	0.3901	0.045
Mof_C 	C 	0.7436	0	0.2564	-0.01
Mof_H 	H 	0.7786	0	0.2214	0.026
Mof_C 	C 	0.1449	0.5	0.8551	0.11
Mof_H 	H 	0.1099	0.5	0.8901	0.079
Mof_C 	C 	0.2436	0.5	0.7564	-0.023
Mof_H 	H 	0.2786	0.5	0.7214	0.044
Mof_C 	C 	0.3551	0	0.3551	0.092
Mof_H 	H 	0.3901	0	0.3901	0.045
Mof_C 	C 	0.2564	0	0.2564	-0.004
Mof_H 	H 	0.2214	0	0.2214	0.013
Mof_C 	C 	0.8551	0.5	0.8551	0.114
Mof_H 	H 	0.8901	0.5	0.8901	0.098
Mof_C 	C 	0.7564	0.5	0.7564	-0.026
Mof_H 	H 	0.7214	0.5	0.7214	0.048
Mof_C 	C 	0.6449	0	0.6449	0.096
Mof_H 	H 	0.6099	0	0.6099	0.045
Mof_C 	C 	0.7436	7.60056e-33	0.7436	-0.016
Mof_H 	H 	0.7786	0	0.7786	0.038
Mof_C 	C 	0.1449	0.5	0.1449	0.105
Mof_H 	H 	0.1099	0.5	0.1099	0.059
Mof_C 	C 	0.2436	0.5	0.2436	-0.02
Mof_H 	H 	0.2786	0.5	0.2786	0.04
_end
