data_functionalizedCrystal
_audit_creation_method	'EQeq! by Chris Wilmer'
_symmetry_space_group_name_H-M	'P1'
_symmetry_Int_Tables_number	1
_symmetry_cell_setting	triclinic
loop_
_symmetry_equiv_pos_as_xyz
  x,y,z
_cell_length_a	43.7247
_cell_length_b	12.9362
_cell_length_c	8.4965
_cell_angle_alpha	90
_cell_angle_beta	94.3334
_cell_angle_gamma	90
loop_
_atom_site_label
_atom_site_type_symbol
_atom_site_fract_x
_atom_site_fract_y
_atom_site_fract_z
_atom_site_charge
Mof_O 	O 	0.4464	0.5885	0.7947	-0.6
Mof_O 	O 	0.02794	0.9566	0.5024	-0.708
Mof_O 	O 	0.05478	0.9439	0.7288	-0.516
Mof_O 	O 	0.46954	0.5201	0.0054	-0.731
Mof_O 	O 	0.2533	0.1198	0.3568	-0.157
Mof_O 	O 	0.24718	0.344	0.2155	-0.155
Mof_O 	O 	0.19737	0.3884	0.3414	-0.182
Mof_O 	O 	0.30461	0.0751	0.2446	-0.176
Mof_C 	C 	0.22501	0.1474	0.4214	-0.187
Mof_H 	H 	0.2077	0.1269	0.3478	0.09
Mof_H 	H 	0.2244	0.2223	0.4381	0.112
Mof_H 	H 	0.2235	0.1118	0.5224	0.092
Mof_C 	C 	0.16967	0.4093	0.4159	-0.133
Mof_H 	H 	0.1562	0.4529	0.3466	0.058
Mof_H 	H 	0.1747	0.4452	0.5161	0.07
Mof_H 	H 	0.1593	0.344	0.4359	0.063
Mof_C 	C 	0.27425	0.3167	0.1416	-0.188
Mof_H 	H 	0.2735	0.347	0.0357	0.093
Mof_H 	H 	0.2756	0.2413	0.1336	0.113
Mof_H 	H 	0.2923	0.343	0.2047	0.091
Mof_C 	C 	0.1349	0.8495	0.5052	-0.064
Mof_C 	C 	0.05364	0.9363	0.5823	0.449
Mof_C 	C 	0.31476	0.7209	0.0035	-0.106
Mof_H 	H 	0.3004	0.7639	0.9449	0.089
Mof_C 	C 	0.18609	0.7798	0.5487	-0.129
Mof_H 	H 	0.2019	0.7531	0.6203	0.099
Mof_C 	C 	0.10659	0.881	0.5723	0.085
Mof_H 	H 	0.1075	0.8862	0.6841	0.003
Mof_C 	C 	0.15881	0.8113	0.6046	0.013
Mof_H 	H 	0.1563	0.8066	0.7145	0.02
Mof_C 	C 	0.34262	0.6977	0.9427	-0.01
Mof_H 	H 	0.347	0.7252	0.8431	0.027
Mof_C 	C 	0.39346	0.6159	0.955	0.079
Mof_H 	H 	0.395	0.6409	0.8508	0.003
Mof_C 	C 	0.33146	0.0562	0.1657	-0.139
Mof_H 	H 	0.3258	0.0244	0.0628	0.078
Mof_H 	H 	0.345	0.0094	0.2292	0.062
Mof_H 	H 	0.3421	0.1216	0.1503	0.067
Mof_C 	C 	0.07991	0.9032	0.4976	-0.308
Mof_H 	H 	0.0776	0.8975	0.3858	0.104
Mof_C 	C 	0.23657	0.9412	0.3491	-0.135
Mof_H 	H 	0.2175	0.9587	0.3888	0.082
Mof_C 	C 	0.41758	0.5682	0.0203	-0.308
Mof_H 	H 	0.4172	0.5397	0.1231	0.126
Mof_C 	C 	0.19078	0.7863	0.3922	0.082
Mof_C 	C 	0.28599	0.9918	0.2639	0.1
Mof_C 	C 	0.25639	0.6289	0.2364	0.029
Mof_C 	C 	0.26242	0.523	0.2028	-0.122
Mof_H 	H 	0.2806	0.5053	0.1545	0.078
Mof_C 	C 	0.30759	0.6819	0.1488	0.065
Mof_C 	C 	0.36414	0.6354	0.0245	-0.048
Mof_C 	C 	0.29276	0.8925	0.2329	-0.126
Mof_H 	H 	0.3124	0.8764	0.1981	0.077
Mof_C 	C 	0.13897	0.8521	0.3449	0.005
Mof_H 	H 	0.1227	0.8747	0.2724	0.015
Mof_C 	C 	0.32938	0.6171	0.2299	-0.103
Mof_H 	H 	0.325	0.5883	0.3286	0.062
Mof_C 	C 	0.44591	0.5588	0.9316	0.511
Mof_C 	C 	0.27134	0.8111	0.2509	0.033
Mof_C 	C 	0.21449	0.4721	0.3098	0.112
Mof_C 	C 	0.24259	0.8359	0.3143	0.038
Mof_C 	C 	0.25711	0.0177	0.3277	0.107
Mof_C 	C 	0.35687	0.5946	0.1691	-0.01
Mof_H 	H 	0.3711	0.5507	0.2263	0.028
Mof_C 	C 	0.20714	0.5719	0.3321	-0.137
Mof_H 	H 	0.1878	0.588	0.3702	0.08
Mof_C 	C 	0.22096	0.7581	0.3322	-0.067
Mof_C 	C 	0.2276	0.6546	0.2998	0.043
Mof_C 	C 	0.24264	0.447	0.2384	0.095
Mof_C 	C 	0.16654	0.8218	0.2905	-0.119
Mof_H 	H 	0.1691	0.8253	0.1806	0.064
Mof_C 	C 	0.27804	0.7079	0.2142	-0.055
Mof_H 	H 	0.4892	0.3146	0.8314	0.372
Mof_O 	O 	0.5265	0.3676	0.69	-0.487
Mof_H 	H 	0.5455	0.3444	0.7385	0.163
Mof_H 	H 	0.5188	0.3178	0.6152	-0.129
Mof_O 	O 	0.5536	0.5885	0.7053	-0.6
Mof_O 	O 	0.97206	0.9566	0.9976	-0.7
Mof_O 	O 	0.94522	0.9439	0.7712	-0.514
Mof_O 	O 	0.53046	0.5201	0.4946	-0.733
Mof_O 	O 	0.7467	0.1198	0.1432	-0.158
Mof_O 	O 	0.75282	0.344	0.2845	-0.156
Mof_O 	O 	0.80263	0.3884	0.1586	-0.181
Mof_O 	O 	0.69539	0.0751	0.2554	-0.177
Mof_C 	C 	0.77499	0.1474	0.0786	-0.185
Mof_H 	H 	0.7923	0.1269	0.1522	0.089
Mof_H 	H 	0.7756	0.2223	0.0619	0.112
Mof_H 	H 	0.7765	0.1118	0.9776	0.091
Mof_C 	C 	0.83033	0.4093	0.0841	-0.138
Mof_H 	H 	0.8438	0.4529	0.1534	0.06
Mof_H 	H 	0.8253	0.4452	0.9839	0.073
Mof_H 	H 	0.8407	0.344	0.0641	0.064
Mof_C 	C 	0.72575	0.3167	0.3584	-0.186
Mof_H 	H 	0.7265	0.347	0.4643	0.092
Mof_H 	H 	0.7244	0.2413	0.3664	0.111
Mof_H 	H 	0.7077	0.343	0.2953	0.09
Mof_C 	C 	0.8651	0.8495	0.9948	-0.059
Mof_C 	C 	0.94636	0.9363	0.9177	0.454
Mof_C 	C 	0.68524	0.7209	0.4965	-0.117
Mof_H 	H 	0.6996	0.7639	0.5551	0.093
Mof_C 	C 	0.81391	0.7798	0.9513	-0.119
Mof_H 	H 	0.7981	0.7531	0.8797	0.096
Mof_C 	C 	0.89341	0.881	0.9277	0.091
Mof_H 	H 	0.8925	0.8862	0.8159	0.002
Mof_C 	C 	0.84119	0.8113	0.8954	0.007
Mof_H 	H 	0.8437	0.8066	0.7855	0.022
Mof_C 	C 	0.65738	0.6977	0.5573	0.002
Mof_H 	H 	0.653	0.7252	0.6569	0.023
Mof_C 	C 	0.60654	0.6159	0.545	0.091
Mof_H 	H 	0.605	0.6409	0.6492	-0
Mof_C 	C 	0.66854	0.0562	0.3343	-0.136
Mof_H 	H 	0.6742	0.0244	0.4372	0.075
Mof_H 	H 	0.655	0.0094	0.2708	0.06
Mof_H 	H 	0.6579	0.1216	0.3497	0.065
Mof_C 	C 	0.92009	0.9032	0.0024	-0.316
Mof_H 	H 	0.9224	0.8975	0.1142	0.107
Mof_C 	C 	0.76343	0.9412	0.1509	-0.135
Mof_H 	H 	0.7825	0.9587	0.1112	0.081
Mof_C 	C 	0.58242	0.5682	0.4797	-0.317
Mof_H 	H 	0.5828	0.5397	0.3769	0.129
Mof_C 	C 	0.80922	0.7863	0.1078	0.073
Mof_C 	C 	0.71401	0.9918	0.2361	0.1
Mof_C 	C 	0.74361	0.6289	0.2636	0.03
Mof_C 	C 	0.73758	0.523	0.2972	-0.124
Mof_H 	H 	0.7194	0.5053	0.3455	0.078
Mof_C 	C 	0.69241	0.6819	0.3512	0.071
Mof_C 	C 	0.63586	0.6354	0.4755	-0.059
Mof_C 	C 	0.70724	0.8925	0.2671	-0.127
Mof_H 	H 	0.6876	0.8764	0.3019	0.078
Mof_C 	C 	0.86103	0.8521	0.1551	-0.004
Mof_H 	H 	0.8773	0.8747	0.2276	0.018
Mof_C 	C 	0.67062	0.6171	0.2701	-0.109
Mof_H 	H 	0.675	0.5883	0.1714	0.064
Mof_C 	C 	0.55409	0.5588	0.5684	0.516
Mof_C 	C 	0.72866	0.8111	0.2491	0.034
Mof_C 	C 	0.78551	0.4721	0.1902	0.11
Mof_C 	C 	0.75741	0.8359	0.1857	0.036
Mof_C 	C 	0.74289	0.0177	0.1723	0.106
Mof_C 	C 	0.64313	0.5946	0.3309	-0.002
Mof_H 	H 	0.6289	0.5507	0.2737	0.025
Mof_C 	C 	0.79286	0.5719	0.1679	-0.136
Mof_H 	H 	0.8122	0.588	0.1298	0.079
Mof_C 	C 	0.77904	0.7581	0.1678	-0.064
Mof_C 	C 	0.7724	0.6546	0.2002	0.04
Mof_C 	C 	0.75736	0.447	0.2616	0.096
Mof_C 	C 	0.83346	0.8218	0.2095	-0.112
Mof_H 	H 	0.8309	0.8253	0.3194	0.062
Mof_C 	C 	0.72196	0.7079	0.2858	-0.059
Mof_H 	H 	0.5108	0.3146	0.6686	0.372
Mof_O 	O 	0.4735	0.3676	0.81	-0.487
Mof_H 	H 	0.4545	0.3444	0.7615	0.163
Mof_H 	H 	0.4812	0.3178	0.8848	-0.13
Mof_O 	O 	0.5536	0.4115	0.2053	-0.599
Mof_O 	O 	0.97206	0.0434	0.4976	-0.7
Mof_O 	O 	0.94522	0.0561	0.2712	-0.512
Mof_O 	O 	0.53046	0.4799	0.9946	-0.731
Mof_O 	O 	0.7467	0.8802	0.6432	-0.157
Mof_O 	O 	0.75282	0.656	0.7845	-0.155
Mof_O 	O 	0.80263	0.6116	0.6586	-0.182
Mof_O 	O 	0.69539	0.9249	0.7554	-0.176
Mof_C 	C 	0.77499	0.8526	0.5786	-0.187
Mof_H 	H 	0.7923	0.8731	0.6522	0.09
Mof_H 	H 	0.7756	0.7777	0.5619	0.112
Mof_H 	H 	0.7765	0.8882	0.4776	0.092
Mof_C 	C 	0.83033	0.5907	0.5841	-0.134
Mof_H 	H 	0.8438	0.5471	0.6534	0.059
Mof_H 	H 	0.8253	0.5548	0.4839	0.071
Mof_H 	H 	0.8407	0.656	0.5641	0.063
Mof_C 	C 	0.72575	0.6833	0.8584	-0.188
Mof_H 	H 	0.7265	0.653	0.9643	0.093
Mof_H 	H 	0.7244	0.7587	0.8664	0.113
Mof_H 	H 	0.7077	0.657	0.7953	0.091
Mof_C 	C 	0.8651	0.1505	0.4948	-0.064
Mof_C 	C 	0.94636	0.0637	0.4177	0.448
Mof_C 	C 	0.68524	0.2791	0.9965	-0.106
Mof_H 	H 	0.6996	0.2361	0.0551	0.089
Mof_C 	C 	0.81391	0.2202	0.4513	-0.128
Mof_H 	H 	0.7981	0.2469	0.3797	0.099
Mof_C 	C 	0.89341	0.119	0.4277	0.084
Mof_H 	H 	0.8925	0.1138	0.3159	0.004
Mof_C 	C 	0.84119	0.1887	0.3954	0.013
Mof_H 	H 	0.8437	0.1934	0.2855	0.02
Mof_C 	C 	0.65738	0.3023	0.0573	-0.01
Mof_H 	H 	0.653	0.2748	0.1569	0.027
Mof_C 	C 	0.60654	0.3841	0.045	0.079
Mof_H 	H 	0.605	0.3591	0.1492	0.003
Mof_C 	C 	0.66854	0.9438	0.8343	-0.139
Mof_H 	H 	0.6742	0.9756	0.9372	0.077
Mof_H 	H 	0.655	0.9906	0.7708	0.062
Mof_H 	H 	0.6579	0.8784	0.8497	0.067
Mof_C 	C 	0.92009	0.0968	0.5024	-0.306
Mof_H 	H 	0.9224	0.1025	0.6142	0.105
Mof_C 	C 	0.76343	0.0588	0.6509	-0.135
Mof_H 	H 	0.7825	0.0413	0.6112	0.082
Mof_C 	C 	0.58242	0.4318	0.9797	-0.308
Mof_H 	H 	0.5828	0.4603	0.8769	0.126
Mof_C 	C 	0.80922	0.2137	0.6078	0.082
Mof_C 	C 	0.71401	0.0082	0.7361	0.1
Mof_C 	C 	0.74361	0.3711	0.7636	0.029
Mof_C 	C 	0.73758	0.477	0.7972	-0.122
Mof_H 	H 	0.7194	0.4947	0.8455	0.078
Mof_C 	C 	0.69241	0.3181	0.8512	0.066
Mof_C 	C 	0.63586	0.3646	0.9755	-0.048
Mof_C 	C 	0.70724	0.1075	0.7671	-0.126
Mof_H 	H 	0.6876	0.1236	0.8019	0.077
Mof_C 	C 	0.86103	0.1479	0.6551	0.004
Mof_H 	H 	0.8773	0.1253	0.7276	0.016
Mof_C 	C 	0.67062	0.3829	0.7701	-0.103
Mof_H 	H 	0.675	0.4117	0.6714	0.062
Mof_C 	C 	0.55409	0.4412	0.0684	0.511
Mof_C 	C 	0.72866	0.1889	0.7491	0.033
Mof_C 	C 	0.78551	0.5279	0.6902	0.112
Mof_C 	C 	0.75741	0.1641	0.6857	0.038
Mof_C 	C 	0.74289	0.9823	0.6723	0.107
Mof_C 	C 	0.64313	0.4054	0.8309	-0.01
Mof_H 	H 	0.6289	0.4493	0.7737	0.028
Mof_C 	C 	0.79286	0.4281	0.6679	-0.137
Mof_H 	H 	0.8122	0.412	0.6298	0.08
Mof_C 	C 	0.77904	0.2419	0.6678	-0.066
Mof_C 	C 	0.7724	0.3454	0.7002	0.043
Mof_C 	C 	0.75736	0.553	0.7616	0.095
Mof_C 	C 	0.83346	0.1782	0.7095	-0.119
Mof_H 	H 	0.8309	0.1747	0.8194	0.064
Mof_C 	C 	0.72196	0.2921	0.7858	-0.056
Mof_H 	H 	0.5108	0.6854	0.1686	0.372
Mof_O 	O 	0.4735	0.6324	0.31	-0.487
Mof_H 	H 	0.4545	0.6556	0.2615	0.163
Mof_H 	H 	0.4812	0.6822	0.3848	-0.129
Mof_O 	O 	0.4464	0.4115	0.2947	-0.6
Mof_O 	O 	0.02794	0.0434	0.0024	-0.707
Mof_O 	O 	0.05478	0.0561	0.2288	-0.517
Mof_O 	O 	0.46954	0.4799	0.5054	-0.733
Mof_O 	O 	0.2533	0.8802	0.8568	-0.158
Mof_O 	O 	0.24718	0.656	0.7155	-0.156
Mof_O 	O 	0.19737	0.6116	0.8414	-0.181
Mof_O 	O 	0.30461	0.9249	0.7446	-0.177
Mof_C 	C 	0.22501	0.8526	0.9214	-0.185
Mof_H 	H 	0.2077	0.8731	0.8478	0.089
Mof_H 	H 	0.2244	0.7777	0.9381	0.112
Mof_H 	H 	0.2235	0.8882	0.0224	0.091
Mof_C 	C 	0.16967	0.5907	0.9159	-0.137
Mof_H 	H 	0.1562	0.5471	0.8466	0.059
Mof_H 	H 	0.1747	0.5548	0.0161	0.072
Mof_H 	H 	0.1593	0.656	0.9359	0.064
Mof_C 	C 	0.27425	0.6833	0.6416	-0.186
Mof_H 	H 	0.2735	0.653	0.5357	0.092
Mof_H 	H 	0.2756	0.7587	0.6336	0.111
Mof_H 	H 	0.2923	0.657	0.7047	0.09
Mof_C 	C 	0.1349	0.1505	0.0052	-0.059
Mof_C 	C 	0.05364	0.0637	0.0823	0.455
Mof_C 	C 	0.31476	0.2791	0.5035	-0.117
Mof_H 	H 	0.3004	0.2361	0.4449	0.093
Mof_C 	C 	0.18609	0.2202	0.0487	-0.119
Mof_H 	H 	0.2019	0.2469	0.1203	0.096
Mof_C 	C 	0.10659	0.119	0.0723	0.092
Mof_H 	H 	0.1075	0.1138	0.1841	0.001
Mof_C 	C 	0.15881	0.1887	0.1046	0.008
Mof_H 	H 	0.1563	0.1934	0.2145	0.022
Mof_C 	C 	0.34262	0.3023	0.4427	0.002
Mof_H 	H 	0.347	0.2748	0.3431	0.023
Mof_C 	C 	0.39346	0.3841	0.455	0.091
Mof_H 	H 	0.395	0.3591	0.3508	-0
Mof_C 	C 	0.33146	0.9438	0.6657	-0.136
Mof_H 	H 	0.3258	0.9756	0.5628	0.075
Mof_H 	H 	0.345	0.9906	0.7292	0.06
Mof_H 	H 	0.3421	0.8784	0.6503	0.065
Mof_C 	C 	0.07991	0.0968	0.9976	-0.32
Mof_H 	H 	0.0776	0.1025	0.8858	0.107
Mof_C 	C 	0.23657	0.0588	0.8491	-0.135
Mof_H 	H 	0.2175	0.0413	0.8888	0.081
Mof_C 	C 	0.41758	0.4318	0.5203	-0.317
Mof_H 	H 	0.4172	0.4603	0.6231	0.129
Mof_C 	C 	0.19078	0.2137	0.8922	0.073
Mof_C 	C 	0.28599	0.0082	0.7639	0.1
Mof_C 	C 	0.25639	0.3711	0.7364	0.03
Mof_C 	C 	0.26242	0.477	0.7028	-0.124
Mof_H 	H 	0.2806	0.4947	0.6545	0.078
Mof_C 	C 	0.30759	0.3181	0.6488	0.071
Mof_C 	C 	0.36414	0.3646	0.5245	-0.059
Mof_C 	C 	0.29276	0.1075	0.7329	-0.127
Mof_H 	H 	0.3124	0.1236	0.6981	0.078
Mof_C 	C 	0.13897	0.1479	0.8449	-0.004
Mof_H 	H 	0.1227	0.1253	0.7724	0.018
Mof_C 	C 	0.32938	0.3829	0.7299	-0.109
Mof_H 	H 	0.325	0.4117	0.8286	0.064
Mof_C 	C 	0.44591	0.4412	0.4316	0.516
Mof_C 	C 	0.27134	0.1889	0.7509	0.034
Mof_C 	C 	0.21449	0.5279	0.8098	0.11
Mof_C 	C 	0.24259	0.1641	0.8143	0.036
Mof_C 	C 	0.25711	0.9823	0.8277	0.106
Mof_C 	C 	0.35687	0.4054	0.6691	-0.002
Mof_H 	H 	0.3711	0.4493	0.7263	0.025
Mof_C 	C 	0.20714	0.4281	0.8321	-0.136
Mof_H 	H 	0.1878	0.412	0.8702	0.079
Mof_C 	C 	0.22096	0.2419	0.8322	-0.063
Mof_C 	C 	0.2276	0.3454	0.7998	0.04
Mof_C 	C 	0.24264	0.553	0.7384	0.096
Mof_C 	C 	0.16654	0.1782	0.7905	-0.112
Mof_H 	H 	0.1691	0.1747	0.6806	0.062
Mof_C 	C 	0.27804	0.2921	0.7142	-0.059
Mof_H 	H 	0.4892	0.6854	0.3314	0.372
Mof_O 	O 	0.5265	0.6324	0.19	-0.487
Mof_H 	H 	0.5455	0.6556	0.2385	0.163
Mof_H 	H 	0.5188	0.6822	0.1152	-0.13
Mof_Pr	Pr	5.87721e-34	0.0053	0.75	1.908
Mof_Pr	Pr	1.95907e-34	0.9947	0.25	1.909
Mof_Pr	Pr	0.5	0.53222	0.75	2.718
Mof_O 	O 	0.5	0.3683	0.75	-0.612
Mof_Pr	Pr	0.5	0.46778	0.25	2.718
Mof_O 	O 	0.5	0.6317	0.25	-0.612
_end
