data_functionalizedCrystal
_audit_creation_method	'EQeq! by Chris Wilmer'
_symmetry_space_group_name_H-M	'P1'
_symmetry_Int_Tables_number	1
_symmetry_cell_setting	triclinic
loop_
_symmetry_equiv_pos_as_xyz
  x,y,z
_cell_length_a	7.3077
_cell_length_b	23.3444
_cell_length_c	18.8151
_cell_angle_alpha	90
_cell_angle_beta	90
_cell_angle_gamma	90
loop_
_atom_site_label
_atom_site_type_symbol
_atom_site_fract_x
_atom_site_fract_y
_atom_site_fract_z
_atom_site_charge
Mof_Zn	Zn	0.84966	0.91321	0.45132	1.207
Mof_H 	H 	0.7717	0.0257	0.7061	0.065
Mof_H 	H 	0.9887	0.8711	0.6663	0.121
Mof_H 	H 	0.9119	0.9214	0.8673	0.153
Mof_H 	H 	0.9261	0.8045	0.8049	0.263
Mof_H 	H 	0.1076	0.8127	0.7616	0.272
Mof_H 	H 	0.0953	0.8342	0.8404	0.313
Mof_H 	H 	0.19	0.8358	0.5502	-0.276
Mof_H 	H 	0.8905	0.7753	0.5604	-0.589
Mof_C 	C 	0.8204	0.99131	0.72228	-0.071
Mof_C 	C 	0.8732	0.94966	0.67412	0.031
Mof_C 	C 	0.9477	0.8982	0.69882	-0.246
Mof_C 	C 	0.8347	0.95748	0.59615	0.298
Mof_C 	C 	0.7798	0.02685	0.8451	0.241
Mof_C 	C 	0.8405	0.98165	0.79512	0.071
Mof_C 	C 	0.9057	0.92872	0.81874	-0.266
Mof_C 	C 	0.9614	0.88692	0.771	0.339
Mof_C 	C 	0.0288	0.82933	0.79685	-0.854
Mof_C 	C 	0.516	0.85656	0.48999	0.512
Mof_C 	C 	0.4193	0.80151	0.50745	-0.544
Mof_C 	C 	0.2467	0.80122	0.53927	0.818
Mof_O 	O 	0.7271	0.99695	0.57893	-0.311
Mof_O 	O 	0.9072	0.92265	0.5537	-0.44
Mof_O 	O 	0.7734	0.01563	0.91287	-0.427
Mof_O 	O 	0.7305	0.07432	0.82343	-0.33
Mof_O 	O 	0.4402	0.90294	0.504	-0.368
Mof_O 	O 	0.673	0.85084	0.46219	-0.478
Mof_Zn	Zn	0.65034	0.08679	0.95132	1.206
Mof_H 	H 	0.7283	0.9743	0.2061	0.109
Mof_H 	H 	0.5113	0.1289	0.1663	0.127
Mof_H 	H 	0.5881	0.0786	0.3673	0.149
Mof_H 	H 	0.5739	0.1955	0.3049	0.273
Mof_H 	H 	0.3924	0.1873	0.2616	0.28
Mof_H 	H 	0.4047	0.1658	0.3404	0.318
Mof_H 	H 	0.31	0.1642	0.0502	-0.264
Mof_H 	H 	0.6095	0.2247	0.0604	-0.527
Mof_C 	C 	0.6796	0.00869	0.22228	-0.136
Mof_C 	C 	0.6268	0.05034	0.17412	0.054
Mof_C 	C 	0.5523	0.1018	0.19882	-0.264
Mof_C 	C 	0.6653	0.04252	0.09615	0.288
Mof_C 	C 	0.7202	0.97315	0.3451	0.271
Mof_C 	C 	0.6595	0.01835	0.29512	0.061
Mof_C 	C 	0.5943	0.07128	0.31874	-0.271
Mof_C 	C 	0.5386	0.11308	0.271	0.357
Mof_C 	C 	0.4712	0.17067	0.29685	-0.881
Mof_C 	C 	0.984	0.14344	0.98999	0.556
Mof_C 	C 	0.0807	0.19849	0.00745	-0.587
Mof_C 	C 	0.2533	0.19878	0.03927	0.786
Mof_O 	O 	0.7729	0.00305	0.07893	-0.325
Mof_O 	O 	0.5928	0.07735	0.0537	-0.446
Mof_O 	O 	0.7266	0.98437	0.41287	-0.419
Mof_O 	O 	0.7695	0.92568	0.32343	-0.331
Mof_O 	O 	0.0598	0.09706	0.004	-0.396
Mof_O 	O 	0.827	0.14916	0.96219	-0.487
Mof_Zn	Zn	0.15034	0.41321	0.54868	1.204
Mof_H 	H 	0.2283	0.5257	0.2939	0.082
Mof_H 	H 	0.0113	0.3711	0.3337	0.109
Mof_H 	H 	0.0881	0.4214	0.1327	0.135
Mof_H 	H 	0.0739	0.3045	0.1951	0.226
Mof_H 	H 	0.8924	0.3127	0.2384	0.24
Mof_H 	H 	0.9047	0.3342	0.1596	0.276
Mof_H 	H 	0.81	0.3358	0.4498	-0.29
Mof_H 	H 	0.1095	0.2753	0.4396	-0.623
Mof_C 	C 	0.1796	0.49131	0.27772	-0.09
Mof_C 	C 	0.1268	0.44966	0.32588	0.022
Mof_C 	C 	0.0523	0.3982	0.30118	-0.219
Mof_C 	C 	0.1653	0.45748	0.40385	0.299
Mof_C 	C 	0.2202	0.52685	0.1549	0.266
Mof_C 	C 	0.1595	0.48165	0.20488	0.042
Mof_C 	C 	0.0943	0.42872	0.18126	-0.232
Mof_C 	C 	0.0386	0.38692	0.229	0.289
Mof_C 	C 	0.9712	0.32933	0.20315	-0.746
Mof_C 	C 	0.484	0.35656	0.51001	0.522
Mof_C 	C 	0.5807	0.30151	0.49255	-0.567
Mof_C 	C 	0.7533	0.30122	0.46073	0.862
Mof_O 	O 	0.2729	0.49695	0.42107	-0.325
Mof_O 	O 	0.0928	0.42265	0.4463	-0.446
Mof_O 	O 	0.2266	0.51563	0.08713	-0.432
Mof_O 	O 	0.2695	0.57432	0.17657	-0.336
Mof_O 	O 	0.5598	0.40294	0.496	-0.375
Mof_O 	O 	0.327	0.35084	0.53781	-0.481
Mof_Zn	Zn	0.34966	0.58679	0.04868	1.202
Mof_H 	H 	0.2717	0.4743	0.7939	0.09
Mof_H 	H 	0.4887	0.6289	0.8337	0.124
Mof_H 	H 	0.4119	0.5786	0.6327	0.149
Mof_H 	H 	0.4261	0.6955	0.6951	0.267
Mof_H 	H 	0.6076	0.6873	0.7384	0.272
Mof_H 	H 	0.5953	0.6658	0.6596	0.311
Mof_H 	H 	0.69	0.6642	0.9498	-0.29
Mof_H 	H 	0.3905	0.7247	0.9396	-0.651
Mof_C 	C 	0.3204	0.50869	0.77772	-0.109
Mof_C 	C 	0.3732	0.55034	0.82588	0.044
Mof_C 	C 	0.4477	0.6018	0.80118	-0.255
Mof_C 	C 	0.3347	0.54252	0.90385	0.29
Mof_C 	C 	0.2798	0.47315	0.6549	0.259
Mof_C 	C 	0.3405	0.51835	0.70488	0.063
Mof_C 	C 	0.4057	0.57128	0.68126	-0.267
Mof_C 	C 	0.4614	0.61308	0.729	0.347
Mof_C 	C 	0.5288	0.67067	0.70315	-0.865
Mof_C 	C 	0.016	0.64344	0.01001	0.467
Mof_C 	C 	0.9193	0.69849	0.99255	-0.503
Mof_C 	C 	0.7467	0.69878	0.96073	0.856
Mof_O 	O 	0.2271	0.50305	0.92107	-0.315
Mof_O 	O 	0.4072	0.57735	0.9463	-0.435
Mof_O 	O 	0.2734	0.48437	0.58713	-0.428
Mof_O 	O 	0.2305	0.42568	0.67657	-0.333
Mof_O 	O 	0.9402	0.59706	0.996	-0.347
Mof_O 	O 	0.173	0.64916	0.03781	-0.472
Mof_H 	H 	0.60042	0.25	0.11357	-1.217
Mof_Zn	Zn	0.15034	0.08679	0.54868	1.204
Mof_H 	H 	0.2283	0.9743	0.2939	0.105
Mof_H 	H 	0.0113	0.1289	0.3337	0.111
Mof_H 	H 	0.0881	0.0786	0.1327	0.134
Mof_H 	H 	0.0739	0.1955	0.1951	0.227
Mof_H 	H 	0.8924	0.1873	0.2384	0.241
Mof_H 	H 	0.9047	0.1658	0.1596	0.277
Mof_H 	H 	0.81	0.1642	0.4498	-0.29
Mof_H 	H 	0.1095	0.2247	0.4396	-0.623
Mof_C 	C 	0.1796	0.00869	0.27772	-0.122
Mof_C 	C 	0.1268	0.05034	0.32588	0.032
Mof_C 	C 	0.0523	0.1018	0.30118	-0.226
Mof_C 	C 	0.1653	0.04252	0.40385	0.293
Mof_C 	C 	0.2202	0.97315	0.1549	0.277
Mof_C 	C 	0.1595	0.01835	0.20488	0.04
Mof_C 	C 	0.0943	0.07128	0.18126	-0.234
Mof_C 	C 	0.0386	0.11308	0.229	0.293
Mof_C 	C 	0.9712	0.17067	0.20315	-0.749
Mof_C 	C 	0.484	0.14344	0.51001	0.523
Mof_C 	C 	0.5807	0.19849	0.49255	-0.568
Mof_C 	C 	0.7533	0.19878	0.46073	0.862
Mof_O 	O 	0.2729	0.00305	0.42107	-0.33
Mof_O 	O 	0.0928	0.07735	0.4463	-0.447
Mof_O 	O 	0.2266	0.98437	0.08713	-0.427
Mof_O 	O 	0.2695	0.92568	0.17657	-0.336
Mof_O 	O 	0.5598	0.09706	0.496	-0.377
Mof_O 	O 	0.327	0.14916	0.53781	-0.481
Mof_H 	H 	0.89958	0.75	0.61357	-1.358
Mof_Zn	Zn	0.34966	0.91321	0.04868	1.202
Mof_H 	H 	0.2717	0.0257	0.7939	0.061
Mof_H 	H 	0.4887	0.8711	0.8337	0.121
Mof_H 	H 	0.4119	0.9214	0.6327	0.151
Mof_H 	H 	0.4261	0.8045	0.6951	0.265
Mof_H 	H 	0.6076	0.8127	0.7384	0.27
Mof_H 	H 	0.5953	0.8342	0.6596	0.31
Mof_H 	H 	0.69	0.8358	0.9498	-0.289
Mof_H 	H 	0.3905	0.7753	0.9396	-0.651
Mof_C 	C 	0.3204	0.99131	0.77772	-0.067
Mof_C 	C 	0.3732	0.94966	0.82588	0.031
Mof_C 	C 	0.4477	0.8982	0.80118	-0.246
Mof_C 	C 	0.3347	0.95748	0.90385	0.296
Mof_C 	C 	0.2798	0.02685	0.6549	0.243
Mof_C 	C 	0.3405	0.98165	0.70488	0.068
Mof_C 	C 	0.4057	0.92872	0.68126	-0.266
Mof_C 	C 	0.4614	0.88692	0.729	0.342
Mof_C 	C 	0.5288	0.82933	0.70315	-0.859
Mof_C 	C 	0.016	0.85656	0.01001	0.461
Mof_C 	C 	0.9193	0.80151	0.99255	-0.5
Mof_C 	C 	0.7467	0.80122	0.96073	0.854
Mof_O 	O 	0.2271	0.99695	0.92107	-0.302
Mof_O 	O 	0.4072	0.92265	0.9463	-0.432
Mof_O 	O 	0.2734	0.01563	0.58713	-0.431
Mof_O 	O 	0.2305	0.07432	0.67657	-0.332
Mof_O 	O 	0.9402	0.90294	0.996	-0.338
Mof_O 	O 	0.173	0.85084	0.03781	-0.47
Mof_Zn	Zn	0.84966	0.58679	0.45132	1.205
Mof_H 	H 	0.7717	0.4743	0.7061	0.09
Mof_H 	H 	0.9887	0.6289	0.6663	0.123
Mof_H 	H 	0.9119	0.5786	0.8673	0.149
Mof_H 	H 	0.9261	0.6955	0.8049	0.265
Mof_H 	H 	0.1076	0.6873	0.7616	0.273
Mof_H 	H 	0.0953	0.6658	0.8404	0.315
Mof_H 	H 	0.19	0.6642	0.5502	-0.277
Mof_H 	H 	0.8905	0.7247	0.5604	-0.589
Mof_C 	C 	0.8204	0.50869	0.72228	-0.108
Mof_C 	C 	0.8732	0.55034	0.67412	0.043
Mof_C 	C 	0.9477	0.6018	0.69882	-0.254
Mof_C 	C 	0.8347	0.54252	0.59615	0.293
Mof_C 	C 	0.7798	0.47315	0.8451	0.258
Mof_C 	C 	0.8405	0.51835	0.79512	0.064
Mof_C 	C 	0.9057	0.57128	0.81874	-0.267
Mof_C 	C 	0.9614	0.61308	0.771	0.344
Mof_C 	C 	0.0288	0.67067	0.79685	-0.861
Mof_C 	C 	0.516	0.64344	0.48999	0.514
Mof_C 	C 	0.4193	0.69849	0.50745	-0.545
Mof_C 	C 	0.2467	0.69878	0.53927	0.818
Mof_O 	O 	0.7271	0.50305	0.57893	-0.322
Mof_O 	O 	0.9072	0.57735	0.5537	-0.442
Mof_O 	O 	0.7734	0.48437	0.91287	-0.422
Mof_O 	O 	0.7305	0.42568	0.82343	-0.33
Mof_O 	O 	0.4402	0.59706	0.504	-0.374
Mof_O 	O 	0.673	0.64916	0.46219	-0.48
Mof_H 	H 	0.10042	0.25	0.38643	-1.433
Mof_Zn	Zn	0.65034	0.41321	0.95132	1.208
Mof_H 	H 	0.7283	0.5257	0.2061	0.09
Mof_H 	H 	0.5113	0.3711	0.1663	0.126
Mof_H 	H 	0.5881	0.4214	0.3673	0.151
Mof_H 	H 	0.5739	0.3045	0.3049	0.272
Mof_H 	H 	0.3924	0.3127	0.2616	0.279
Mof_H 	H 	0.4047	0.3342	0.3404	0.317
Mof_H 	H 	0.31	0.3358	0.0502	-0.264
Mof_H 	H 	0.6095	0.2753	0.0604	-0.527
Mof_C 	C 	0.6796	0.49131	0.22228	-0.109
Mof_C 	C 	0.6268	0.44966	0.17412	0.045
Mof_C 	C 	0.5523	0.3982	0.19882	-0.259
Mof_C 	C 	0.6653	0.45748	0.09615	0.293
Mof_C 	C 	0.7202	0.52685	0.3451	0.259
Mof_C 	C 	0.6595	0.48165	0.29512	0.066
Mof_C 	C 	0.5943	0.42872	0.31874	-0.27
Mof_C 	C 	0.5386	0.38692	0.271	0.353
Mof_C 	C 	0.4712	0.32933	0.29685	-0.878
Mof_C 	C 	0.984	0.35656	0.98999	0.56
Mof_C 	C 	0.0807	0.30151	0.00745	-0.589
Mof_C 	C 	0.2533	0.30122	0.03927	0.787
Mof_O 	O 	0.7729	0.49695	0.07893	-0.322
Mof_O 	O 	0.5928	0.42265	0.0537	-0.447
Mof_O 	O 	0.7266	0.51563	0.41287	-0.426
Mof_O 	O 	0.7695	0.57432	0.32343	-0.331
Mof_O 	O 	0.0598	0.40294	0.004	-0.398
Mof_O 	O 	0.827	0.35084	0.96219	-0.487
Mof_H 	H 	0.39958	0.75	0.88643	-1.503
Mof_Cd	Cd	0.5	0	0.5	0.434
Mof_Cd	Cd	-0	0	-0	0.418
Mof_Cd	Cd	0.5	0.5	0.5	0.451
Mof_Cd	Cd	1.57293e-32	0.5	-0	0.431
Mof_H 	H 	0.6173	0.75	0.469	-0.069
Mof_C 	C 	0.5035	0.75	0.4911	0.474
Mof_C 	C 	0.1587	0.75	0.5548	-1.366
Mof_C 	C 	0.968	0.75	0.587	2.932
Mof_H 	H 	0.8827	0.25	0.969	-0.091
Mof_C 	C 	0.9965	0.25	0.9911	0.538
Mof_C 	C 	0.3413	0.25	0.0548	-1.268
Mof_C 	C 	0.532	0.25	0.087	2.633
Mof_H 	H 	0.3827	0.25	0.531	-0.075
Mof_C 	C 	0.4965	0.25	0.5089	0.498
Mof_C 	C 	0.8413	0.25	0.4452	-1.432
Mof_C 	C 	0.032	0.25	0.413	3.094
Mof_H 	H 	0.1173	0.75	0.031	-0.047
Mof_C 	C 	0.0035	0.75	0.0089	0.409
Mof_C 	C 	0.6587	0.75	0.9452	-1.473
Mof_C 	C 	0.468	0.75	0.913	3.249
_end
