data_functionalizedCrystal
_audit_creation_method	'EQeq! by Chris Wilmer'
_symmetry_space_group_name_H-M	'P1'
_symmetry_Int_Tables_number	1
_symmetry_cell_setting	triclinic
loop_
_symmetry_equiv_pos_as_xyz
  x,y,z
_cell_length_a	12.3275
_cell_length_b	12.3275
_cell_length_c	12.5415
_cell_angle_alpha	90
_cell_angle_beta	90
_cell_angle_gamma	120
loop_
_atom_site_label
_atom_site_type_symbol
_atom_site_fract_x
_atom_site_fract_y
_atom_site_fract_z
_atom_site_charge
Mof_N 	N 	0.3511	0.2267	0.0932	-0.116
Mof_N 	N 	0.4458	0.3089	0.0326	-0.194
Mof_N 	N 	0.503	0.2505	0.9965	-0.062
Mof_N 	N 	0.4467	0.1338	0.033	-0.244
Mof_N 	N 	0.5274	0.4735	0.8361	-0.161
Mof_N 	N 	0.5879	0.4126	0.8016	-0.137
Mof_C 	C 	0.3515	0.1205	0.0928	0.082
Mof_H 	H 	0.2947	0.0478	0.1285	-0.033
Mof_N 	N 	0.7733	0.1244	0.0932	-0.113
Mof_N 	N 	0.6911	0.1369	0.0326	-0.199
Mof_N 	N 	0.7495	0.2525	0.9965	-0.061
Mof_N 	N 	0.8662	0.3129	0.033	-0.216
Mof_N 	N 	0.5265	0.0539	0.8361	-0.218
Mof_N 	N 	0.5874	0.1753	0.8016	-0.141
Mof_C 	C 	0.8795	0.231	0.0928	0.094
Mof_H 	H 	0.9522	0.2469	0.1285	0.012
Mof_N 	N 	0.8756	0.6489	0.0932	-0.084
Mof_N 	N 	0.8631	0.5542	0.0326	-0.171
Mof_N 	N 	0.7475	0.497	0.9965	-0.059
Mof_N 	N 	0.6871	0.5533	0.033	-0.232
Mof_N 	N 	0.9461	0.4726	0.8361	-0.087
Mof_N 	N 	0.8247	0.4121	0.8016	-0.133
Mof_C 	C 	0.769	0.6485	0.0928	0.096
Mof_H 	H 	0.7531	0.7053	0.1285	0.007
Mof_N 	N 	0.7733	0.6489	0.4068	-0.084
Mof_N 	N 	0.6911	0.5542	0.4674	-0.134
Mof_N 	N 	0.7495	0.497	0.5035	-0.14
Mof_N 	N 	0.8662	0.5533	0.467	-0.164
Mof_N 	N 	0.5265	0.4726	0.6639	-0.18
Mof_N 	N 	0.5874	0.4121	0.6984	-0.143
Mof_C 	C 	0.8795	0.6485	0.4072	0.115
Mof_H 	H 	0.9522	0.7053	0.3715	0.031
Mof_N 	N 	0.8756	0.2267	0.4068	-0.082
Mof_N 	N 	0.8631	0.3089	0.4674	-0.119
Mof_N 	N 	0.7475	0.2505	0.5035	-0.142
Mof_N 	N 	0.6871	0.1338	0.467	-0.19
Mof_N 	N 	0.9461	0.4735	0.6639	-0.104
Mof_N 	N 	0.8247	0.4126	0.6984	-0.138
Mof_C 	C 	0.769	0.1205	0.4072	0.104
Mof_H 	H 	0.7531	0.0478	0.3715	-0.011
Mof_N 	N 	0.3511	0.1244	0.4068	-0.113
Mof_N 	N 	0.4458	0.1369	0.4674	-0.147
Mof_N 	N 	0.503	0.2525	0.5035	-0.146
Mof_N 	N 	0.4467	0.3129	0.467	-0.185
Mof_N 	N 	0.5274	0.0539	0.6639	-0.237
Mof_N 	N 	0.5879	0.1753	0.6984	-0.147
Mof_C 	C 	0.3515	0.231	0.4072	0.101
Mof_H 	H 	0.2947	0.2469	0.3715	-0.013
Mof_N 	N 	0.6489	0.7733	0.9068	-0.069
Mof_N 	N 	0.5542	0.6911	0.9674	-0.07
Mof_N 	N 	0.497	0.7495	0.0035	-0.221
Mof_N 	N 	0.5533	0.8662	0.967	-0.105
Mof_N 	N 	0.4726	0.5265	0.1639	-0.19
Mof_N 	N 	0.4121	0.5874	0.1984	-0.15
Mof_C 	C 	0.6485	0.8795	0.9072	0.129
Mof_H 	H 	0.7053	0.9522	0.8715	0.043
Mof_N 	N 	0.2267	0.8756	0.9068	-0.07
Mof_N 	N 	0.3089	0.8631	0.9674	-0.058
Mof_N 	N 	0.2505	0.7475	0.0035	-0.224
Mof_N 	N 	0.1338	0.6871	0.967	-0.129
Mof_N 	N 	0.4735	0.9461	0.1639	-0.124
Mof_N 	N 	0.4126	0.8247	0.1984	-0.146
Mof_C 	C 	0.1205	0.769	0.9072	0.118
Mof_H 	H 	0.0478	0.7531	0.8715	-0
Mof_N 	N 	0.1244	0.3511	0.9068	-0.098
Mof_N 	N 	0.1369	0.4458	0.9674	-0.083
Mof_N 	N 	0.2525	0.503	0.0035	-0.228
Mof_N 	N 	0.3129	0.4467	0.967	-0.122
Mof_N 	N 	0.0539	0.5274	0.1639	-0.259
Mof_N 	N 	0.1753	0.5879	0.1984	-0.154
Mof_C 	C 	0.231	0.3515	0.9072	0.117
Mof_H 	H 	0.2469	0.2947	0.8715	0.003
Mof_N 	N 	0.2267	0.3511	0.5932	-0.101
Mof_N 	N 	0.3089	0.4458	0.5326	-0.139
Mof_N 	N 	0.2505	0.503	0.4965	-0.146
Mof_N 	N 	0.1338	0.4467	0.533	-0.193
Mof_N 	N 	0.4735	0.5274	0.3361	-0.182
Mof_N 	N 	0.4126	0.5879	0.3016	-0.145
Mof_C 	C 	0.1205	0.3515	0.5928	0.097
Mof_H 	H 	0.0478	0.2947	0.6285	-0.022
Mof_N 	N 	0.1244	0.7733	0.5932	-0.102
Mof_N 	N 	0.1369	0.6911	0.5326	-0.146
Mof_N 	N 	0.2525	0.7495	0.4965	-0.144
Mof_N 	N 	0.3129	0.8662	0.533	-0.168
Mof_N 	N 	0.0539	0.5265	0.3361	-0.251
Mof_N 	N 	0.1753	0.5874	0.3016	-0.15
Mof_C 	C 	0.231	0.8795	0.5928	0.108
Mof_H 	H 	0.2469	0.9522	0.6285	0.02
Mof_N 	N 	0.6489	0.8756	0.5932	-0.072
Mof_N 	N 	0.5542	0.8631	0.5326	-0.12
Mof_N 	N 	0.497	0.7475	0.4965	-0.141
Mof_N 	N 	0.5533	0.6871	0.533	-0.181
Mof_N 	N 	0.4726	0.9461	0.3361	-0.117
Mof_N 	N 	0.4121	0.8247	0.3016	-0.141
Mof_C 	C 	0.6485	0.769	0.5928	0.111
Mof_H 	H 	0.7053	0.7531	0.6285	0.02
Mof_Cu	Cu	0.5	0.5	-0	0.825
Mof_Cu	Cu	0.5	0	-0	0.797
Mof_Cu	Cu	-3.4439e-17	0.5	-0	0.791
Mof_Cu	Cu	0.5	0.5	0.5	0.869
Mof_Cu	Cu	-2.78563e-17	0.5	0.5	0.835
Mof_Cu	Cu	0.5	7.64699e-33	0.5	0.84
Mof_Cu	Cu	0.66667	0.33333	0.90079	0.874
Mof_Cu	Cu	0.66667	0.33333	0.59921	0.862
Mof_Cu	Cu	0.33333	0.66667	0.09921	0.852
Mof_Cu	Cu	0.33333	0.66667	0.40079	0.861
Mof_C 	C 	0.4908	0.5092	0.75	0.114
Mof_H 	H 	0.4473	0.5527	0.75	-0.005
Mof_C 	C 	0.4908	0.9816	0.75	0.255
Mof_H 	H 	0.4473	0.8946	0.75	-0.045
Mof_C 	C 	0.0184	0.5092	0.75	-0.053
Mof_H 	H 	0.1054	0.5527	0.75	0.045
Mof_C 	C 	0.5092	0.4908	0.25	0.112
Mof_H 	H 	0.5527	0.4473	0.25	-0.014
Mof_C 	C 	0.5092	0.0184	0.25	-0.032
Mof_H 	H 	0.5527	0.1054	0.25	0.029
Mof_C 	C 	0.9816	0.4908	0.25	0.284
Mof_H 	H 	0.8946	0.4473	0.25	-0.063
_end
