data_functionalizedCrystal
_audit_creation_method	'EQeq! by Chris Wilmer'
_symmetry_space_group_name_H-M	'P1'
_symmetry_Int_Tables_number	1
_symmetry_cell_setting	triclinic
loop_
_symmetry_equiv_pos_as_xyz
  x,y,z
_cell_length_a	13.7377
_cell_length_b	27.394
_cell_length_c	45.072
_cell_angle_alpha	90
_cell_angle_beta	90
_cell_angle_gamma	90
loop_
_atom_site_label
_atom_site_type_symbol
_atom_site_fract_x
_atom_site_fract_y
_atom_site_fract_z
_atom_site_charge
Mof_Zn	Zn	0.829	0.25695	0.8167	1.163
Mof_Zn	Zn	0.85259	0.45403	0.0813	1.164
Mof_Zn	Zn	0.12407	0.52598	0.58518	1.165
Mof_Zn	Zn	0.171	0.24305	0.3167	1.163
Mof_Zn	Zn	0.14741	0.04597	0.5813	1.164
Mof_Zn	Zn	0.87593	0.97402	0.08518	1.164
Mof_Zn	Zn	0.329	0.74305	0.6833	1.163
Mof_Zn	Zn	0.35259	0.54597	0.4187	1.164
Mof_Zn	Zn	0.62407	0.47402	0.91482	1.165
Mof_Zn	Zn	0.671	0.75695	0.1833	1.163
Mof_Zn	Zn	0.64741	0.95403	0.9187	1.164
Mof_Zn	Zn	0.37593	0.02598	0.41482	1.165
Mof_H 	H 	0.038	0.2721	0.8349	-0.02
Mof_H 	H 	0.1265	0.3108	0.8709	0.081
Mof_H 	H 	0.8752	0.3518	0.9085	0.086
Mof_H 	H 	0.7929	0.3154	0.8706	-0.012
Mof_H 	H 	0.7996	0.417	0.0209	-0.012
Mof_H 	H 	0.8766	0.3903	0.9779	0.082
Mof_H 	H 	0.1221	0.4516	0.0079	0.093
Mof_H 	H 	0.0418	0.4715	0.0517	-0.014
Mof_H 	H 	0.4826	0.4614	0.9653	-0.005
Mof_H 	H 	0.3268	0.4331	0.9738	0.089
Mof_H 	H 	0.3161	0.3892	0.8884	0.096
Mof_H 	H 	0.4712	0.4177	0.8821	-0.008
Mof_H 	H 	0.0611	0.0801	0.6388	-0.008
Mof_H 	H 	0.0323	0.15	0.6649	0.082
Mof_H 	H 	0.1032	0.2274	0.5916	0.083
Mof_H 	H 	0.1322	0.1539	0.5675	-0.02
Mof_H 	H 	0.1052	0.4191	0.5702	-0.008
Mof_H 	H 	0.0858	0.3444	0.5937	0.081
Mof_H 	H 	0.0426	0.4159	0.6705	0.084
Mof_H 	H 	0.068	0.4878	0.6455	-0.01
Mof_H 	H 	0.9014	0.3376	0.7774	-0.012
Mof_H 	H 	0.9586	0.3482	0.7299	0.083
Mof_H 	H 	0.9998	0.2033	0.7253	0.085
Mof_H 	H 	0.9435	0.1968	0.7731	-0.003
Mof_H 	H 	0.962	0.2279	0.3349	-0.02
Mof_H 	H 	0.8735	0.1892	0.3709	0.082
Mof_H 	H 	0.1248	0.1482	0.4085	0.086
Mof_H 	H 	0.2071	0.1846	0.3706	-0.012
Mof_H 	H 	0.2004	0.083	0.5209	-0.012
Mof_H 	H 	0.1234	0.1097	0.4779	0.083
Mof_H 	H 	0.8779	0.0484	0.5079	0.094
Mof_H 	H 	0.9582	0.0285	0.5517	-0.015
Mof_H 	H 	0.5174	0.0386	0.4653	-0.005
Mof_H 	H 	0.6732	0.0669	0.4738	0.089
Mof_H 	H 	0.6839	0.1108	0.3884	0.096
Mof_H 	H 	0.5288	0.0823	0.3821	-0.008
Mof_H 	H 	0.9389	0.4199	0.1388	-0.008
Mof_H 	H 	0.9677	0.35	0.1649	0.082
Mof_H 	H 	0.8968	0.2726	0.0916	0.083
Mof_H 	H 	0.8678	0.3461	0.0675	-0.019
Mof_H 	H 	0.8948	0.0809	0.0702	-0.008
Mof_H 	H 	0.9142	0.1556	0.0937	0.081
Mof_H 	H 	0.9574	0.0841	0.1705	0.084
Mof_H 	H 	0.932	0.0122	0.1455	-0.01
Mof_H 	H 	0.0986	0.1624	0.2774	-0.011
Mof_H 	H 	0.0414	0.1518	0.2299	0.083
Mof_H 	H 	0.0002	0.2967	0.2253	0.085
Mof_H 	H 	0.0565	0.3032	0.2731	-0.003
Mof_H 	H 	0.538	0.7279	0.6651	-0.02
Mof_H 	H 	0.6265	0.6892	0.6291	0.082
Mof_H 	H 	0.3752	0.6482	0.5915	0.086
Mof_H 	H 	0.2929	0.6846	0.6294	-0.012
Mof_H 	H 	0.2996	0.583	0.4791	-0.012
Mof_H 	H 	0.3766	0.6097	0.5221	0.083
Mof_H 	H 	0.6221	0.5484	0.4921	0.093
Mof_H 	H 	0.5418	0.5285	0.4483	-0.014
Mof_H 	H 	0.9826	0.5386	0.5347	-0.005
Mof_H 	H 	0.8268	0.5669	0.5262	0.089
Mof_H 	H 	0.8161	0.6108	0.6116	0.096
Mof_H 	H 	0.9712	0.5823	0.6179	-0.008
Mof_H 	H 	0.5611	0.9199	0.8612	-0.008
Mof_H 	H 	0.5323	0.85	0.8351	0.082
Mof_H 	H 	0.6032	0.7726	0.9084	0.083
Mof_H 	H 	0.6322	0.8461	0.9325	-0.019
Mof_H 	H 	0.6052	0.5809	0.9298	-0.008
Mof_H 	H 	0.5858	0.6556	0.9063	0.081
Mof_H 	H 	0.5426	0.5841	0.8295	0.084
Mof_H 	H 	0.568	0.5122	0.8545	-0.01
Mof_H 	H 	0.4014	0.6624	0.7226	-0.011
Mof_H 	H 	0.4586	0.6518	0.7701	0.083
Mof_H 	H 	0.4998	0.7967	0.7747	0.085
Mof_H 	H 	0.4435	0.8032	0.7269	-0.003
Mof_H 	H 	0.462	0.7721	0.1651	-0.02
Mof_H 	H 	0.3735	0.8108	0.1291	0.082
Mof_H 	H 	0.6248	0.8518	0.0915	0.086
Mof_H 	H 	0.7071	0.8154	0.1294	-0.012
Mof_H 	H 	0.7004	0.917	0.9791	-0.012
Mof_H 	H 	0.6234	0.8903	0.0221	0.083
Mof_H 	H 	0.3779	0.9516	0.9921	0.094
Mof_H 	H 	0.4582	0.9715	0.9483	-0.014
Mof_H 	H 	0.0174	0.9614	0.0347	-0.004
Mof_H 	H 	0.1732	0.9331	0.0262	0.089
Mof_H 	H 	0.1839	0.8892	0.1116	0.096
Mof_H 	H 	0.0288	0.9177	0.1179	-0.008
Mof_H 	H 	0.4389	0.5801	0.3612	-0.008
Mof_H 	H 	0.4677	0.65	0.3351	0.082
Mof_H 	H 	0.3968	0.7274	0.4084	0.083
Mof_H 	H 	0.3678	0.6539	0.4325	-0.019
Mof_H 	H 	0.3948	0.9191	0.4298	-0.008
Mof_H 	H 	0.4142	0.8444	0.4063	0.081
Mof_H 	H 	0.4574	0.9159	0.3295	0.084
Mof_H 	H 	0.432	0.9878	0.3545	-0.01
Mof_H 	H 	0.5986	0.8376	0.2226	-0.011
Mof_H 	H 	0.5414	0.8482	0.2701	0.083
Mof_H 	H 	0.5002	0.7033	0.2747	0.085
Mof_H 	H 	0.5565	0.6968	0.2269	-0.003
Mof_C 	C 	0.0044	0.2894	0.8501	0.084
Mof_C 	C 	0.0574	0.3115	0.8716	-0.131
Mof_C 	C 	0.0099	0.3351	0.8946	0.069
Mof_C 	C 	0.9108	0.3357	0.8933	-0.123
Mof_C 	C 	0.862	0.314	0.8709	0.08
Mof_C 	C 	0.8673	0.4229	0.0187	0.085
Mof_C 	C 	0.9123	0.4074	0.9926	-0.129
Mof_C 	C 	0.009	0.4174	0.9889	0.063
Mof_C 	C 	0.0559	0.4426	0.0105	-0.13
Mof_C 	C 	0.0072	0.4553	0.0363	0.073
Mof_C 	C 	0.448	0.4466	0.9495	0.07
Mof_C 	C 	0.3551	0.4299	0.9547	-0.127
Mof_C 	C 	0.3032	0.4085	0.9318	0.053
Mof_C 	C 	0.3491	0.4041	0.9046	-0.132
Mof_C 	C 	0.4413	0.4212	0.901	0.076
Mof_C 	C 	0.0649	0.3603	0.9185	0.101
Mof_C 	C 	0.0615	0.3996	0.9623	0.094
Mof_C 	C 	0.2	0.3935	0.936	0.09
Mof_C 	C 	0.0709	0.1107	0.6293	0.063
Mof_C 	C 	0.0536	0.1517	0.6449	-0.123
Mof_C 	C 	0.0675	0.1962	0.6311	0.06
Mof_C 	C 	0.0955	0.1973	0.6018	-0.131
Mof_C 	C 	0.1121	0.1534	0.5877	0.086
Mof_C 	C 	0.0941	0.4184	0.591	0.074
Mof_C 	C 	0.0809	0.3738	0.6049	-0.116
Mof_C 	C 	0.0609	0.372	0.6346	0.059
Mof_C 	C 	0.0563	0.4154	0.6499	-0.124
Mof_C 	C 	0.0718	0.458	0.6348	0.079
Mof_C 	C 	0.9201	0.3097	0.7662	0.073
Mof_C 	C 	0.9544	0.3163	0.7381	-0.125
Mof_C 	C 	0.9829	0.2767	0.7218	0.059
Mof_C 	C 	0.9786	0.2317	0.7355	-0.124
Mof_C 	C 	0.944	0.2279	0.7639	0.076
Mof_C 	C 	0.0518	0.2431	0.6477	0.102
Mof_C 	C 	0.0496	0.3244	0.6496	0.102
Mof_C 	C 	0.0136	0.2801	0.6901	0.104
Mof_C 	C 	0.9956	0.2106	0.3501	0.086
Mof_C 	C 	0.9426	0.1885	0.3716	-0.132
Mof_C 	C 	0.9901	0.1649	0.3946	0.071
Mof_C 	C 	0.0892	0.1643	0.3933	-0.125
Mof_C 	C 	0.138	0.186	0.3709	0.081
Mof_C 	C 	0.1327	0.0771	0.5187	0.086
Mof_C 	C 	0.0877	0.0926	0.4926	-0.131
Mof_C 	C 	0.991	0.0826	0.4889	0.065
Mof_C 	C 	0.9441	0.0574	0.5105	-0.132
Mof_C 	C 	0.9928	0.0447	0.5363	0.075
Mof_C 	C 	0.552	0.0534	0.4495	0.07
Mof_C 	C 	0.6449	0.0701	0.4547	-0.127
Mof_C 	C 	0.6968	0.0915	0.4318	0.053
Mof_C 	C 	0.6509	0.0959	0.4046	-0.132
Mof_C 	C 	0.5587	0.0788	0.401	0.076
Mof_C 	C 	0.9351	0.1397	0.4185	0.101
Mof_C 	C 	0.9385	0.1004	0.4623	0.094
Mof_C 	C 	0.8	0.1065	0.436	0.09
Mof_C 	C 	0.9291	0.3893	0.1293	0.063
Mof_C 	C 	0.9464	0.3483	0.1449	-0.123
Mof_C 	C 	0.9325	0.3038	0.1311	0.06
Mof_C 	C 	0.9045	0.3027	0.1018	-0.131
Mof_C 	C 	0.8879	0.3466	0.0877	0.086
Mof_C 	C 	0.9059	0.0816	0.091	0.074
Mof_C 	C 	0.9191	0.1262	0.1049	-0.116
Mof_C 	C 	0.9391	0.128	0.1346	0.059
Mof_C 	C 	0.9437	0.0846	0.1499	-0.124
Mof_C 	C 	0.9282	0.042	0.1348	0.079
Mof_C 	C 	0.0799	0.1903	0.2662	0.073
Mof_C 	C 	0.0456	0.1837	0.2381	-0.124
Mof_C 	C 	0.0171	0.2233	0.2218	0.058
Mof_C 	C 	0.0214	0.2683	0.2355	-0.123
Mof_C 	C 	0.056	0.2721	0.2639	0.076
Mof_C 	C 	0.9482	0.2569	0.1477	0.102
Mof_C 	C 	0.9504	0.1756	0.1496	0.102
Mof_C 	C 	0.9864	0.2199	0.1901	0.105
Mof_C 	C 	0.5044	0.7106	0.6499	0.086
Mof_C 	C 	0.5574	0.6885	0.6284	-0.132
Mof_C 	C 	0.5099	0.6649	0.6054	0.071
Mof_C 	C 	0.4108	0.6643	0.6067	-0.125
Mof_C 	C 	0.362	0.686	0.6291	0.081
Mof_C 	C 	0.3673	0.5771	0.4813	0.085
Mof_C 	C 	0.4123	0.5926	0.5074	-0.13
Mof_C 	C 	0.509	0.5826	0.5111	0.064
Mof_C 	C 	0.5559	0.5574	0.4895	-0.131
Mof_C 	C 	0.5072	0.5447	0.4637	0.073
Mof_C 	C 	0.948	0.5534	0.5505	0.07
Mof_C 	C 	0.8551	0.5701	0.5453	-0.127
Mof_C 	C 	0.8032	0.5915	0.5682	0.053
Mof_C 	C 	0.8491	0.5959	0.5954	-0.132
Mof_C 	C 	0.9413	0.5788	0.599	0.076
Mof_C 	C 	0.5649	0.6397	0.5815	0.101
Mof_C 	C 	0.5615	0.6004	0.5377	0.094
Mof_C 	C 	0.7	0.6065	0.564	0.09
Mof_C 	C 	0.5709	0.8893	0.8707	0.064
Mof_C 	C 	0.5536	0.8483	0.8551	-0.123
Mof_C 	C 	0.5675	0.8038	0.8689	0.06
Mof_C 	C 	0.5955	0.8027	0.8982	-0.131
Mof_C 	C 	0.6121	0.8466	0.9123	0.086
Mof_C 	C 	0.5941	0.5816	0.909	0.074
Mof_C 	C 	0.5809	0.6262	0.8951	-0.116
Mof_C 	C 	0.5609	0.628	0.8654	0.059
Mof_C 	C 	0.5563	0.5846	0.8501	-0.124
Mof_C 	C 	0.5718	0.542	0.8652	0.079
Mof_C 	C 	0.4201	0.6903	0.7338	0.073
Mof_C 	C 	0.4544	0.6837	0.7619	-0.124
Mof_C 	C 	0.4829	0.7233	0.7782	0.058
Mof_C 	C 	0.4786	0.7683	0.7645	-0.123
Mof_C 	C 	0.444	0.7721	0.7361	0.076
Mof_C 	C 	0.5518	0.7569	0.8523	0.102
Mof_C 	C 	0.5496	0.6756	0.8504	0.102
Mof_C 	C 	0.5136	0.7199	0.8099	0.105
Mof_C 	C 	0.4956	0.7894	0.1499	0.086
Mof_C 	C 	0.4426	0.8115	0.1284	-0.132
Mof_C 	C 	0.4901	0.8351	0.1054	0.071
Mof_C 	C 	0.5892	0.8357	0.1067	-0.125
Mof_C 	C 	0.638	0.814	0.1291	0.081
Mof_C 	C 	0.6327	0.9229	0.9813	0.085
Mof_C 	C 	0.5877	0.9074	0.0074	-0.13
Mof_C 	C 	0.491	0.9174	0.0111	0.064
Mof_C 	C 	0.4441	0.9426	0.9895	-0.131
Mof_C 	C 	0.4928	0.9553	0.9637	0.073
Mof_C 	C 	0.052	0.9466	0.0505	0.07
Mof_C 	C 	0.1449	0.9299	0.0453	-0.127
Mof_C 	C 	0.1968	0.9085	0.0682	0.053
Mof_C 	C 	0.1509	0.9041	0.0954	-0.132
Mof_C 	C 	0.0587	0.9212	0.099	0.076
Mof_C 	C 	0.4351	0.8603	0.0815	0.101
Mof_C 	C 	0.4385	0.8996	0.0377	0.094
Mof_C 	C 	0.3	0.8935	0.064	0.09
Mof_C 	C 	0.4291	0.6107	0.3707	0.064
Mof_C 	C 	0.4464	0.6517	0.3551	-0.123
Mof_C 	C 	0.4325	0.6962	0.3689	0.06
Mof_C 	C 	0.4045	0.6973	0.3982	-0.131
Mof_C 	C 	0.3879	0.6534	0.4123	0.086
Mof_C 	C 	0.4059	0.9184	0.409	0.074
Mof_C 	C 	0.4191	0.8738	0.3951	-0.116
Mof_C 	C 	0.4391	0.872	0.3654	0.059
Mof_C 	C 	0.4437	0.9154	0.3501	-0.124
Mof_C 	C 	0.4282	0.958	0.3652	0.079
Mof_C 	C 	0.5799	0.8097	0.2338	0.073
Mof_C 	C 	0.5456	0.8163	0.2619	-0.124
Mof_C 	C 	0.5171	0.7767	0.2782	0.058
Mof_C 	C 	0.5214	0.7317	0.2645	-0.123
Mof_C 	C 	0.556	0.7279	0.2361	0.076
Mof_C 	C 	0.4482	0.7431	0.3523	0.102
Mof_C 	C 	0.4504	0.8244	0.3504	0.102
Mof_C 	C 	0.4864	0.7801	0.3099	0.105
Mof_I 	I 	0.81495	0.1663	0.82741	-0.376
Mof_I 	I 	0.67432	0.30677	0.80774	-0.368
Mof_I 	I 	0.67003	0.4423	0.07722	-0.386
Mof_I 	I 	0.9416	0.51959	0.10962	-0.365
Mof_I 	I 	0.20065	0.50592	0.53499	-0.391
Mof_I 	I 	0.20962	0.57457	0.62441	-0.374
Mof_I 	I 	0.18505	0.3337	0.32741	-0.376
Mof_I 	I 	0.32568	0.19323	0.30774	-0.368
Mof_I 	I 	0.32997	0.0577	0.57722	-0.386
Mof_I 	I 	0.0584	0.98041	0.60962	-0.364
Mof_I 	I 	0.79935	0.99408	0.03499	-0.391
Mof_I 	I 	0.79038	0.92543	0.12441	-0.375
Mof_I 	I 	0.31495	0.8337	0.67259	-0.376
Mof_I 	I 	0.17432	0.69323	0.69226	-0.368
Mof_I 	I 	0.17003	0.5577	0.42278	-0.385
Mof_I 	I 	0.4416	0.48041	0.39038	-0.365
Mof_I 	I 	0.70065	0.49408	0.96501	-0.391
Mof_I 	I 	0.70962	0.42543	0.87559	-0.374
Mof_I 	I 	0.68505	0.6663	0.17259	-0.376
Mof_I 	I 	0.82568	0.80677	0.19226	-0.368
Mof_I 	I 	0.82997	0.9423	0.92278	-0.386
Mof_I 	I 	0.5584	0.01959	0.89038	-0.365
Mof_I 	I 	0.29935	0.00592	0.46501	-0.391
Mof_I 	I 	0.29038	0.07457	0.37559	-0.374
Mof_N 	N 	0.9079	0.2908	0.8491	-0.281
Mof_N 	N 	0.9127	0.4451	0.0401	-0.28
Mof_N 	N 	0.4923	0.4428	0.9227	-0.277
Mof_N 	N 	0.1592	0.3676	0.9146	-0.134
Mof_N 	N 	0.011	0.3749	0.9423	-0.137
Mof_N 	N 	0.1555	0.4114	0.96047	-0.144
Mof_N 	N 	0.1017	0.1109	0.6007	-0.273
Mof_N 	N 	0.0917	0.4603	0.6059	-0.27
Mof_N 	N 	0.9115	0.2657	0.77882	-0.275
Mof_N 	N 	0.0263	0.2385	0.67633	-0.141
Mof_N 	N 	0.062	0.285	0.63353	-0.142
Mof_N 	N 	0.0234	0.3246	0.67856	-0.139
Mof_N 	N 	0.0921	0.2092	0.3491	-0.282
Mof_N 	N 	0.0873	0.0549	0.5401	-0.281
Mof_N 	N 	0.5077	0.0572	0.4227	-0.277
Mof_N 	N 	0.8408	0.1324	0.4146	-0.134
Mof_N 	N 	0.989	0.1251	0.4423	-0.136
Mof_N 	N 	0.8445	0.0886	0.46047	-0.144
Mof_N 	N 	0.8983	0.3891	0.1007	-0.273
Mof_N 	N 	0.9083	0.0397	0.1059	-0.27
Mof_N 	N 	0.0885	0.2343	0.27882	-0.275
Mof_N 	N 	0.9737	0.2615	0.17633	-0.141
Mof_N 	N 	0.938	0.215	0.13353	-0.142
Mof_N 	N 	0.9766	0.1754	0.17856	-0.139
Mof_N 	N 	0.4079	0.7092	0.6509	-0.282
Mof_N 	N 	0.4127	0.5549	0.4599	-0.28
Mof_N 	N 	0.9923	0.5572	0.5773	-0.277
Mof_N 	N 	0.6592	0.6324	0.5854	-0.134
Mof_N 	N 	0.511	0.6251	0.5577	-0.136
Mof_N 	N 	0.6555	0.5886	0.53953	-0.144
Mof_N 	N 	0.6017	0.8891	0.8993	-0.273
Mof_N 	N 	0.5917	0.5397	0.8941	-0.27
Mof_N 	N 	0.4115	0.7343	0.72118	-0.275
Mof_N 	N 	0.5263	0.7615	0.82367	-0.141
Mof_N 	N 	0.562	0.715	0.86647	-0.142
Mof_N 	N 	0.5234	0.6754	0.82144	-0.139
Mof_N 	N 	0.5921	0.7908	0.1509	-0.282
Mof_N 	N 	0.5873	0.9451	0.9599	-0.28
Mof_N 	N 	0.0077	0.9428	0.0773	-0.277
Mof_N 	N 	0.3408	0.8676	0.0854	-0.134
Mof_N 	N 	0.489	0.8749	0.0577	-0.136
Mof_N 	N 	0.3445	0.9114	0.03953	-0.144
Mof_N 	N 	0.3983	0.6109	0.3993	-0.273
Mof_N 	N 	0.4083	0.9603	0.3941	-0.27
Mof_N 	N 	0.5885	0.7657	0.22118	-0.275
Mof_N 	N 	0.4737	0.7385	0.32367	-0.141
Mof_N 	N 	0.438	0.785	0.36647	-0.142
Mof_N 	N 	0.4766	0.8246	0.32144	-0.139
Mof_Zn	Zn	0.171	0.74305	0.1833	1.164
Mof_Zn	Zn	0.14741	0.54597	0.9187	1.165
Mof_Zn	Zn	0.87593	0.47402	0.41482	1.166
Mof_Zn	Zn	0.829	0.75695	0.6833	1.164
Mof_Zn	Zn	0.85259	0.95403	0.4187	1.165
Mof_Zn	Zn	0.12407	0.02598	0.91482	1.165
Mof_Zn	Zn	0.671	0.25695	0.3167	1.164
Mof_Zn	Zn	0.64741	0.45403	0.5813	1.165
Mof_Zn	Zn	0.37593	0.52598	0.08518	1.166
Mof_Zn	Zn	0.329	0.24305	0.8167	1.164
Mof_Zn	Zn	0.35259	0.04597	0.0813	1.165
Mof_Zn	Zn	0.62407	0.97402	0.58518	1.166
Mof_H 	H 	0.962	0.7279	0.1651	-0.02
Mof_H 	H 	0.8735	0.6892	0.1291	0.081
Mof_H 	H 	0.1248	0.6482	0.0915	0.086
Mof_H 	H 	0.2071	0.6846	0.1294	-0.012
Mof_H 	H 	0.2004	0.583	0.9791	-0.012
Mof_H 	H 	0.1234	0.6097	0.0221	0.082
Mof_H 	H 	0.8779	0.5484	0.9921	0.093
Mof_H 	H 	0.9582	0.5285	0.9483	-0.014
Mof_H 	H 	0.5174	0.5386	0.0347	-0.005
Mof_H 	H 	0.6732	0.5669	0.0262	0.089
Mof_H 	H 	0.6839	0.6108	0.1116	0.096
Mof_H 	H 	0.5288	0.5823	0.1179	-0.008
Mof_H 	H 	0.9389	0.9199	0.3612	-0.008
Mof_H 	H 	0.9677	0.85	0.3351	0.082
Mof_H 	H 	0.8968	0.7726	0.4084	0.083
Mof_H 	H 	0.8678	0.8461	0.4325	-0.02
Mof_H 	H 	0.8948	0.5809	0.4298	-0.008
Mof_H 	H 	0.9142	0.6556	0.4063	0.081
Mof_H 	H 	0.9574	0.5841	0.3295	0.084
Mof_H 	H 	0.932	0.5122	0.3545	-0.01
Mof_H 	H 	0.0986	0.6624	0.2226	-0.012
Mof_H 	H 	0.0414	0.6518	0.2701	0.083
Mof_H 	H 	0.0002	0.7967	0.2747	0.085
Mof_H 	H 	0.0565	0.8032	0.2269	-0.003
Mof_H 	H 	0.038	0.7721	0.6651	-0.02
Mof_H 	H 	0.1265	0.8108	0.6291	0.082
Mof_H 	H 	0.8752	0.8518	0.5915	0.086
Mof_H 	H 	0.7929	0.8154	0.6294	-0.012
Mof_H 	H 	0.7996	0.917	0.4791	-0.012
Mof_H 	H 	0.8766	0.8903	0.5221	0.083
Mof_H 	H 	0.1221	0.9516	0.4921	0.094
Mof_H 	H 	0.0418	0.9715	0.4483	-0.015
Mof_H 	H 	0.4826	0.9614	0.5347	-0.005
Mof_H 	H 	0.3268	0.9331	0.5262	0.089
Mof_H 	H 	0.3161	0.8892	0.6116	0.096
Mof_H 	H 	0.4712	0.9177	0.6179	-0.008
Mof_H 	H 	0.0611	0.5801	0.8612	-0.008
Mof_H 	H 	0.0323	0.65	0.8351	0.082
Mof_H 	H 	0.1032	0.7274	0.9084	0.083
Mof_H 	H 	0.1322	0.6539	0.9325	-0.019
Mof_H 	H 	0.1052	0.9191	0.9298	-0.008
Mof_H 	H 	0.0858	0.8444	0.9063	0.081
Mof_H 	H 	0.0426	0.9159	0.8295	0.084
Mof_H 	H 	0.068	0.9878	0.8545	-0.01
Mof_H 	H 	0.9014	0.8376	0.7226	-0.011
Mof_H 	H 	0.9586	0.8482	0.7701	0.083
Mof_H 	H 	0.9998	0.7033	0.7747	0.085
Mof_H 	H 	0.9435	0.6968	0.7269	-0.003
Mof_H 	H 	0.462	0.2721	0.3349	-0.02
Mof_H 	H 	0.3735	0.3108	0.3709	0.082
Mof_H 	H 	0.6248	0.3518	0.4085	0.086
Mof_H 	H 	0.7071	0.3154	0.3706	-0.012
Mof_H 	H 	0.7004	0.417	0.5209	-0.012
Mof_H 	H 	0.6234	0.3903	0.4779	0.083
Mof_H 	H 	0.3779	0.4516	0.5079	0.093
Mof_H 	H 	0.4582	0.4715	0.5517	-0.014
Mof_H 	H 	0.0174	0.4614	0.4653	-0.005
Mof_H 	H 	0.1732	0.4331	0.4738	0.089
Mof_H 	H 	0.1839	0.3892	0.3884	0.096
Mof_H 	H 	0.0288	0.4177	0.3821	-0.008
Mof_H 	H 	0.4389	0.0801	0.1388	-0.008
Mof_H 	H 	0.4677	0.15	0.1649	0.082
Mof_H 	H 	0.3968	0.2274	0.0916	0.083
Mof_H 	H 	0.3678	0.1539	0.0675	-0.019
Mof_H 	H 	0.3948	0.4191	0.0702	-0.008
Mof_H 	H 	0.4142	0.3444	0.0937	0.081
Mof_H 	H 	0.4574	0.4159	0.1705	0.084
Mof_H 	H 	0.432	0.4878	0.1455	-0.01
Mof_H 	H 	0.5986	0.3376	0.2774	-0.011
Mof_H 	H 	0.5414	0.3482	0.2299	0.083
Mof_H 	H 	0.5002	0.2033	0.2253	0.085
Mof_H 	H 	0.5565	0.1968	0.2731	-0.003
Mof_H 	H 	0.538	0.2279	0.8349	-0.02
Mof_H 	H 	0.6265	0.1892	0.8709	0.082
Mof_H 	H 	0.3752	0.1482	0.9085	0.086
Mof_H 	H 	0.2929	0.1846	0.8706	-0.012
Mof_H 	H 	0.2996	0.083	0.0209	-0.012
Mof_H 	H 	0.3766	0.1097	0.9779	0.083
Mof_H 	H 	0.6221	0.0484	0.0079	0.094
Mof_H 	H 	0.5418	0.0285	0.0517	-0.014
Mof_H 	H 	0.9826	0.0386	0.9653	-0.004
Mof_H 	H 	0.8268	0.0669	0.9738	0.089
Mof_H 	H 	0.8161	0.1108	0.8884	0.096
Mof_H 	H 	0.9712	0.0823	0.8821	-0.008
Mof_H 	H 	0.5611	0.4199	0.6388	-0.008
Mof_H 	H 	0.5323	0.35	0.6649	0.082
Mof_H 	H 	0.6032	0.2726	0.5916	0.083
Mof_H 	H 	0.6322	0.3461	0.5675	-0.019
Mof_H 	H 	0.6052	0.0809	0.5702	-0.008
Mof_H 	H 	0.5858	0.1556	0.5937	0.081
Mof_H 	H 	0.5426	0.0841	0.6705	0.084
Mof_H 	H 	0.568	0.0122	0.6455	-0.01
Mof_H 	H 	0.4014	0.1624	0.7774	-0.011
Mof_H 	H 	0.4586	0.1518	0.7299	0.083
Mof_H 	H 	0.4998	0.2967	0.7253	0.085
Mof_H 	H 	0.4435	0.3032	0.7731	-0.003
Mof_C 	C 	0.9956	0.7106	0.1499	0.084
Mof_C 	C 	0.9426	0.6885	0.1284	-0.131
Mof_C 	C 	0.9901	0.6649	0.1054	0.069
Mof_C 	C 	0.0892	0.6643	0.1067	-0.123
Mof_C 	C 	0.138	0.686	0.1291	0.08
Mof_C 	C 	0.1327	0.5771	0.9813	0.085
Mof_C 	C 	0.0877	0.5926	0.0074	-0.129
Mof_C 	C 	0.991	0.5826	0.0111	0.063
Mof_C 	C 	0.9441	0.5574	0.9895	-0.13
Mof_C 	C 	0.9928	0.5447	0.9637	0.073
Mof_C 	C 	0.552	0.5534	0.0505	0.07
Mof_C 	C 	0.6449	0.5701	0.0453	-0.127
Mof_C 	C 	0.6968	0.5915	0.0682	0.053
Mof_C 	C 	0.6509	0.5959	0.0954	-0.132
Mof_C 	C 	0.5587	0.5788	0.099	0.076
Mof_C 	C 	0.9351	0.6397	0.0815	0.101
Mof_C 	C 	0.9385	0.6004	0.0377	0.094
Mof_C 	C 	0.8	0.6065	0.064	0.09
Mof_C 	C 	0.9291	0.8893	0.3707	0.063
Mof_C 	C 	0.9464	0.8483	0.3551	-0.123
Mof_C 	C 	0.9325	0.8038	0.3689	0.06
Mof_C 	C 	0.9045	0.8027	0.3982	-0.131
Mof_C 	C 	0.8879	0.8466	0.4123	0.086
Mof_C 	C 	0.9059	0.5816	0.409	0.074
Mof_C 	C 	0.9191	0.6262	0.3951	-0.116
Mof_C 	C 	0.9391	0.628	0.3654	0.059
Mof_C 	C 	0.9437	0.5846	0.3501	-0.124
Mof_C 	C 	0.9282	0.542	0.3652	0.079
Mof_C 	C 	0.0799	0.6903	0.2338	0.073
Mof_C 	C 	0.0456	0.6837	0.2619	-0.125
Mof_C 	C 	0.0171	0.7233	0.2782	0.059
Mof_C 	C 	0.0214	0.7683	0.2645	-0.124
Mof_C 	C 	0.056	0.7721	0.2361	0.076
Mof_C 	C 	0.9482	0.7569	0.3523	0.102
Mof_C 	C 	0.9504	0.6756	0.3504	0.102
Mof_C 	C 	0.9864	0.7199	0.3099	0.104
Mof_C 	C 	0.0044	0.7894	0.6499	0.086
Mof_C 	C 	0.0574	0.8115	0.6284	-0.132
Mof_C 	C 	0.0099	0.8351	0.6054	0.071
Mof_C 	C 	0.9108	0.8357	0.6067	-0.125
Mof_C 	C 	0.862	0.814	0.6291	0.081
Mof_C 	C 	0.8673	0.9229	0.4813	0.086
Mof_C 	C 	0.9123	0.9074	0.5074	-0.131
Mof_C 	C 	0.009	0.9174	0.5111	0.065
Mof_C 	C 	0.0559	0.9426	0.4895	-0.132
Mof_C 	C 	0.0072	0.9553	0.4637	0.075
Mof_C 	C 	0.448	0.9466	0.5505	0.07
Mof_C 	C 	0.3551	0.9299	0.5453	-0.127
Mof_C 	C 	0.3032	0.9085	0.5682	0.053
Mof_C 	C 	0.3491	0.9041	0.5954	-0.132
Mof_C 	C 	0.4413	0.9212	0.599	0.076
Mof_C 	C 	0.0649	0.8603	0.5815	0.101
Mof_C 	C 	0.0615	0.8996	0.5377	0.094
Mof_C 	C 	0.2	0.8935	0.564	0.09
Mof_C 	C 	0.0709	0.6107	0.8707	0.063
Mof_C 	C 	0.0536	0.6517	0.8551	-0.123
Mof_C 	C 	0.0675	0.6962	0.8689	0.06
Mof_C 	C 	0.0955	0.6973	0.8982	-0.131
Mof_C 	C 	0.1121	0.6534	0.9123	0.086
Mof_C 	C 	0.0941	0.9184	0.909	0.074
Mof_C 	C 	0.0809	0.8738	0.8951	-0.116
Mof_C 	C 	0.0609	0.872	0.8654	0.059
Mof_C 	C 	0.0563	0.9154	0.8501	-0.124
Mof_C 	C 	0.0718	0.958	0.8652	0.079
Mof_C 	C 	0.9201	0.8097	0.7338	0.073
Mof_C 	C 	0.9544	0.8163	0.7619	-0.124
Mof_C 	C 	0.9829	0.7767	0.7782	0.058
Mof_C 	C 	0.9786	0.7317	0.7645	-0.123
Mof_C 	C 	0.944	0.7279	0.7361	0.076
Mof_C 	C 	0.0518	0.7431	0.8523	0.102
Mof_C 	C 	0.0496	0.8244	0.8504	0.102
Mof_C 	C 	0.0136	0.7801	0.8099	0.105
Mof_C 	C 	0.4956	0.2894	0.3501	0.086
Mof_C 	C 	0.4426	0.3115	0.3716	-0.132
Mof_C 	C 	0.4901	0.3351	0.3946	0.071
Mof_C 	C 	0.5892	0.3357	0.3933	-0.125
Mof_C 	C 	0.638	0.314	0.3709	0.081
Mof_C 	C 	0.6327	0.4229	0.5187	0.085
Mof_C 	C 	0.5877	0.4074	0.4926	-0.13
Mof_C 	C 	0.491	0.4174	0.4889	0.064
Mof_C 	C 	0.4441	0.4426	0.5105	-0.131
Mof_C 	C 	0.4928	0.4553	0.5363	0.073
Mof_C 	C 	0.052	0.4466	0.4495	0.07
Mof_C 	C 	0.1449	0.4299	0.4547	-0.127
Mof_C 	C 	0.1968	0.4085	0.4318	0.053
Mof_C 	C 	0.1509	0.4041	0.4046	-0.132
Mof_C 	C 	0.0587	0.4212	0.401	0.076
Mof_C 	C 	0.4351	0.3603	0.4185	0.101
Mof_C 	C 	0.4385	0.3996	0.4623	0.094
Mof_C 	C 	0.3	0.3935	0.436	0.09
Mof_C 	C 	0.4291	0.1107	0.1293	0.064
Mof_C 	C 	0.4464	0.1517	0.1449	-0.123
Mof_C 	C 	0.4325	0.1962	0.1311	0.06
Mof_C 	C 	0.4045	0.1973	0.1018	-0.131
Mof_C 	C 	0.3879	0.1534	0.0877	0.086
Mof_C 	C 	0.4059	0.4184	0.091	0.074
Mof_C 	C 	0.4191	0.3738	0.1049	-0.116
Mof_C 	C 	0.4391	0.372	0.1346	0.059
Mof_C 	C 	0.4437	0.4154	0.1499	-0.124
Mof_C 	C 	0.4282	0.458	0.1348	0.079
Mof_C 	C 	0.5799	0.3097	0.2662	0.073
Mof_C 	C 	0.5456	0.3163	0.2381	-0.124
Mof_C 	C 	0.5171	0.2767	0.2218	0.058
Mof_C 	C 	0.5214	0.2317	0.2355	-0.123
Mof_C 	C 	0.556	0.2279	0.2639	0.076
Mof_C 	C 	0.4482	0.2431	0.1477	0.102
Mof_C 	C 	0.4504	0.3244	0.1496	0.102
Mof_C 	C 	0.4864	0.2801	0.1901	0.105
Mof_C 	C 	0.5044	0.2106	0.8501	0.086
Mof_C 	C 	0.5574	0.1885	0.8716	-0.132
Mof_C 	C 	0.5099	0.1649	0.8946	0.071
Mof_C 	C 	0.4108	0.1643	0.8933	-0.125
Mof_C 	C 	0.362	0.186	0.8709	0.081
Mof_C 	C 	0.3673	0.0771	0.0187	0.085
Mof_C 	C 	0.4123	0.0926	0.9926	-0.13
Mof_C 	C 	0.509	0.0826	0.9889	0.064
Mof_C 	C 	0.5559	0.0574	0.0105	-0.131
Mof_C 	C 	0.5072	0.0447	0.0363	0.073
Mof_C 	C 	0.948	0.0534	0.9495	0.07
Mof_C 	C 	0.8551	0.0701	0.9547	-0.127
Mof_C 	C 	0.8032	0.0915	0.9318	0.053
Mof_C 	C 	0.8491	0.0959	0.9046	-0.132
Mof_C 	C 	0.9413	0.0788	0.901	0.076
Mof_C 	C 	0.5649	0.1397	0.9185	0.101
Mof_C 	C 	0.5615	0.1004	0.9623	0.094
Mof_C 	C 	0.7	0.1065	0.936	0.09
Mof_C 	C 	0.5709	0.3893	0.6293	0.064
Mof_C 	C 	0.5536	0.3483	0.6449	-0.123
Mof_C 	C 	0.5675	0.3038	0.6311	0.06
Mof_C 	C 	0.5955	0.3027	0.6018	-0.131
Mof_C 	C 	0.6121	0.3466	0.5877	0.086
Mof_C 	C 	0.5941	0.0816	0.591	0.074
Mof_C 	C 	0.5809	0.1262	0.6049	-0.116
Mof_C 	C 	0.5609	0.128	0.6346	0.059
Mof_C 	C 	0.5563	0.0846	0.6499	-0.124
Mof_C 	C 	0.5718	0.042	0.6348	0.079
Mof_C 	C 	0.4201	0.1903	0.7662	0.073
Mof_C 	C 	0.4544	0.1837	0.7381	-0.124
Mof_C 	C 	0.4829	0.2233	0.7218	0.058
Mof_C 	C 	0.4786	0.2683	0.7355	-0.123
Mof_C 	C 	0.444	0.2721	0.7639	0.076
Mof_C 	C 	0.5518	0.2569	0.6477	0.102
Mof_C 	C 	0.5496	0.1756	0.6496	0.102
Mof_C 	C 	0.5136	0.2199	0.6901	0.105
Mof_I 	I 	0.18505	0.8337	0.17259	-0.376
Mof_I 	I 	0.32568	0.69323	0.19226	-0.368
Mof_I 	I 	0.32997	0.5577	0.92278	-0.386
Mof_I 	I 	0.0584	0.48041	0.89038	-0.365
Mof_I 	I 	0.79935	0.49408	0.46501	-0.391
Mof_I 	I 	0.79038	0.42543	0.37559	-0.374
Mof_I 	I 	0.81495	0.6663	0.67259	-0.376
Mof_I 	I 	0.67432	0.80677	0.69226	-0.368
Mof_I 	I 	0.67003	0.9423	0.42278	-0.386
Mof_I 	I 	0.9416	0.01959	0.39038	-0.364
Mof_I 	I 	0.20065	0.00592	0.96501	-0.391
Mof_I 	I 	0.20962	0.07457	0.87559	-0.375
Mof_I 	I 	0.68505	0.1663	0.32741	-0.376
Mof_I 	I 	0.82568	0.30677	0.30774	-0.368
Mof_I 	I 	0.82997	0.4423	0.57722	-0.385
Mof_I 	I 	0.5584	0.51959	0.60962	-0.365
Mof_I 	I 	0.29935	0.50592	0.03499	-0.391
Mof_I 	I 	0.29038	0.57457	0.12441	-0.374
Mof_I 	I 	0.31495	0.3337	0.82741	-0.376
Mof_I 	I 	0.17432	0.19323	0.80774	-0.368
Mof_I 	I 	0.17003	0.0577	0.07722	-0.386
Mof_I 	I 	0.4416	0.98041	0.10962	-0.365
Mof_I 	I 	0.70065	0.99408	0.53499	-0.391
Mof_I 	I 	0.70962	0.92543	0.62441	-0.374
Mof_N 	N 	0.0921	0.7092	0.1509	-0.281
Mof_N 	N 	0.0873	0.5549	0.9599	-0.28
Mof_N 	N 	0.5077	0.5572	0.0773	-0.277
Mof_N 	N 	0.8408	0.6324	0.0854	-0.134
Mof_N 	N 	0.989	0.6251	0.0577	-0.137
Mof_N 	N 	0.8445	0.5886	0.03953	-0.144
Mof_N 	N 	0.8983	0.8891	0.3993	-0.273
Mof_N 	N 	0.9083	0.5397	0.3941	-0.27
Mof_N 	N 	0.0885	0.7343	0.22118	-0.275
Mof_N 	N 	0.9737	0.7615	0.32367	-0.141
Mof_N 	N 	0.938	0.715	0.36647	-0.142
Mof_N 	N 	0.9766	0.6754	0.32144	-0.139
Mof_N 	N 	0.9079	0.7908	0.6509	-0.282
Mof_N 	N 	0.9127	0.9451	0.4599	-0.281
Mof_N 	N 	0.4923	0.9428	0.5773	-0.277
Mof_N 	N 	0.1592	0.8676	0.5854	-0.134
Mof_N 	N 	0.011	0.8749	0.5577	-0.136
Mof_N 	N 	0.1555	0.9114	0.53953	-0.144
Mof_N 	N 	0.1017	0.6109	0.8993	-0.273
Mof_N 	N 	0.0917	0.9603	0.8941	-0.27
Mof_N 	N 	0.9115	0.7657	0.72118	-0.275
Mof_N 	N 	0.0263	0.7385	0.82367	-0.141
Mof_N 	N 	0.062	0.785	0.86647	-0.142
Mof_N 	N 	0.0234	0.8246	0.82144	-0.139
Mof_N 	N 	0.5921	0.2908	0.3491	-0.282
Mof_N 	N 	0.5873	0.4451	0.5401	-0.28
Mof_N 	N 	0.0077	0.4428	0.4227	-0.277
Mof_N 	N 	0.3408	0.3676	0.4146	-0.134
Mof_N 	N 	0.489	0.3749	0.4423	-0.136
Mof_N 	N 	0.3445	0.4114	0.46047	-0.144
Mof_N 	N 	0.3983	0.1109	0.1007	-0.273
Mof_N 	N 	0.4083	0.4603	0.1059	-0.27
Mof_N 	N 	0.5885	0.2657	0.27882	-0.275
Mof_N 	N 	0.4737	0.2385	0.17633	-0.141
Mof_N 	N 	0.438	0.285	0.13353	-0.142
Mof_N 	N 	0.4766	0.3246	0.17856	-0.139
Mof_N 	N 	0.4079	0.2092	0.8491	-0.282
Mof_N 	N 	0.4127	0.0549	0.0401	-0.28
Mof_N 	N 	0.9923	0.0572	0.9227	-0.277
Mof_N 	N 	0.6592	0.1324	0.9146	-0.134
Mof_N 	N 	0.511	0.1251	0.9423	-0.136
Mof_N 	N 	0.6555	0.0886	0.96047	-0.144
Mof_N 	N 	0.6017	0.3891	0.6007	-0.273
Mof_N 	N 	0.5917	0.0397	0.6059	-0.27
Mof_N 	N 	0.4115	0.2343	0.77882	-0.275
Mof_N 	N 	0.5263	0.2615	0.67633	-0.141
Mof_N 	N 	0.562	0.215	0.63353	-0.142
Mof_N 	N 	0.5234	0.1754	0.67856	-0.139
_end
