data_functionalizedCrystal
_audit_creation_method	'EQeq! by Chris Wilmer'
_symmetry_space_group_name_H-M	'P1'
_symmetry_Int_Tables_number	1
_symmetry_cell_setting	triclinic
loop_
_symmetry_equiv_pos_as_xyz
  x,y,z
_cell_length_a	6.6218
_cell_length_b	16.2148
_cell_length_c	13.5886
_cell_angle_alpha	90
_cell_angle_beta	90
_cell_angle_gamma	90
loop_
_atom_site_label
_atom_site_type_symbol
_atom_site_fract_x
_atom_site_fract_y
_atom_site_fract_z
_atom_site_charge
Mof_C 	C 	0.81356	0.03438	0.96783	0.163
Mof_O 	O 	0.16601	0.17184	0.83543	-4.58
Mof_H 	H 	0.67034	0.05881	0.94342	-0.085
Mof_C 	C 	0.31405	0.53464	0.4675	0.159
Mof_O 	O 	0.66825	0.6718	0.33554	-4.487
Mof_H 	H 	0.17122	0.55915	0.4426	-0.13
Mof_C 	C 	0.17751	0.4674	0.96962	0.043
Mof_O 	O 	0.82258	0.33077	0.83719	-4.515
Mof_H 	H 	0.32034	0.44244	0.94536	-0.071
Mof_C 	C 	0.67797	0.96756	0.47005	0.18
Mof_O 	O 	0.32478	0.83063	0.33721	-4.477
Mof_H 	H 	0.82117	0.94268	0.4462	-0.052
Mof_C 	C 	0.17802	0.53555	0.03414	0.041
Mof_O 	O 	0.82463	0.67255	0.16686	-4.518
Mof_H 	H 	0.32122	0.56036	0.05813	-0.07
Mof_C 	C 	0.67745	0.03601	0.5341	0.18
Mof_O 	O 	0.32248	0.17285	0.66604	-4.478
Mof_H 	H 	0.82025	0.06116	0.55813	-0.052
Mof_C 	C 	0.81416	0.96665	0.03287	0.172
Mof_O 	O 	0.16809	0.8314	0.16746	-4.582
Mof_H 	H 	0.67135	0.94166	0.05713	-0.089
Mof_C 	C 	0.31346	0.467	0.53273	0.166
Mof_O 	O 	0.66579	0.33132	0.66775	-4.496
Mof_H 	H 	0.17027	0.44223	0.55671	-0.134
Mof_C 	C 	0.17786	0.96695	0.03264	0.046
Mof_O 	O 	0.82498	0.83086	0.16671	-4.528
Mof_H 	H 	0.32106	0.9422	0.05668	-0.074
Mof_C 	C 	0.67714	0.46697	0.53339	0.185
Mof_O 	O 	0.32265	0.33102	0.66679	-4.485
Mof_H 	H 	0.81992	0.44216	0.55792	-0.053
Mof_C 	C 	0.81435	0.53577	0.03441	0.168
Mof_O 	O 	0.1682	0.67251	0.16704	-4.578
Mof_H 	H 	0.67154	0.56074	0.05862	-0.085
Mof_C 	C 	0.31375	0.03573	0.53383	0.162
Mof_O 	O 	0.66595	0.17272	0.66692	-4.49
Mof_H 	H 	0.17056	0.0606	0.55765	-0.131
Mof_C 	C 	0.81384	0.46766	0.96991	0.168
Mof_O 	O 	0.1659	0.33088	0.83633	-4.577
Mof_H 	H 	0.67064	0.44295	0.94588	-0.086
Mof_C 	C 	0.31427	0.96732	0.46981	0.163
Mof_O 	O 	0.66801	0.8307	0.337	-4.489
Mof_H 	H 	0.17145	0.94226	0.44575	-0.133
Mof_C 	C 	0.17728	0.03469	0.96755	0.04
Mof_O 	O 	0.82251	0.17213	0.83641	-4.518
Mof_H 	H 	0.32008	0.0594	0.94292	-0.07
Mof_C 	C 	0.67773	0.5346	0.46811	0.176
Mof_O 	O 	0.32472	0.67232	0.33626	-4.481
Mof_H 	H 	0.82092	0.55909	0.44375	-0.049
Mof_Al	Al	0.24389	0.25169	0.75134	19.412
Mof_Al	Al	0.74409	0.25175	0.75206	19.732
Mof_Al	Al	0.74585	0.75182	0.25153	19.736
Mof_Al	Al	0.24601	0.75185	0.25188	19.413
Mof_O 	O 	0.99362	0.25219	0.699	-8.649
Mof_O 	O 	0.49579	0.75299	0.19897	-8.716
Mof_O 	O 	0.99578	0.75251	0.3044	-8.635
Mof_O 	O 	0.49363	0.25163	0.80446	-8.696
Mof_C 	C 	0.99625	0.93167	0.06659	-0.743
Mof_C 	C 	0.99656	0.86012	0.13765	3.115
Mof_C 	C 	0.49502	0.43188	0.56694	-0.87
Mof_C 	C 	0.49444	0.36024	0.63793	2.975
Mof_C 	C 	0.99639	0.57119	0.06756	-0.73
Mof_C 	C 	0.99648	0.64336	0.13781	3.094
Mof_C 	C 	0.49528	0.07153	0.56703	-0.863
Mof_C 	C 	0.49452	0.14369	0.63723	2.962
Mof_C 	C 	0.99536	0.43201	0.93645	-0.733
Mof_C 	C 	0.99456	0.35995	0.86603	3.099
Mof_C 	C 	0.49633	0.93181	0.43681	-0.866
Mof_C 	C 	0.49645	0.85973	0.36646	2.967
Mof_C 	C 	0.99511	0.07012	0.93451	-0.731
Mof_C 	C 	0.99449	0.14262	0.86478	3.094
Mof_C 	C 	0.49613	0.57017	0.43453	-0.858
Mof_C 	C 	0.49649	0.64266	0.36475	2.955
Mof_H 	H 	0.49329	0.25148	0.86792	2.472
Mof_H 	H 	0.99328	0.25295	0.63556	2.51
Mof_H 	H 	0.99561	0.75342	0.36783	2.505
Mof_H 	H 	0.49563	0.75467	0.13555	2.48
_end
