data_functionalizedCrystal
_audit_creation_method	'EQeq! by Chris Wilmer'
_symmetry_space_group_name_H-M	'P1'
_symmetry_Int_Tables_number	1
_symmetry_cell_setting	triclinic
loop_
_symmetry_equiv_pos_as_xyz
  x,y,z
_cell_length_a	10.6489
_cell_length_b	10.8857
_cell_length_c	11.0782
_cell_angle_alpha	84.005
_cell_angle_beta	89.826
_cell_angle_gamma	63.605
loop_
_atom_site_label
_atom_site_type_symbol
_atom_site_fract_x
_atom_site_fract_y
_atom_site_fract_z
_atom_site_charge
Mof_Co	Co	0.0972	0.8879	0.25445	1.148
Mof_Co	Co	0.9614	0.8722	0.00024	1.125
Mof_Co	Co	0.8438	0.0272	0.47758	1.122
Mof_O 	O 	0.1059	0.9174	0.0695	-0.726
Mof_H 	H 	0.2071	0.872	0.0762	0.164
Mof_O 	O 	0.0511	0.8955	0.4293	-0.73
Mof_H 	H 	0.0716	0.8088	0.4763	0.164
Mof_O 	O 	0.355	0.8876	0.4586	-0.445
Mof_O 	O 	0.32	0.8	0.2953	-0.429
Mof_O 	O 	0.0389	0.6715	0.0725	-0.446
Mof_O 	O 	0.112	0.6931	0.2574	-0.442
Mof_N 	N 	0.8186	0.9272	0.1326	-0.227
Mof_N 	N 	0.8663	0.9596	0.23	-0.186
Mof_N 	N 	0.7912	0.9578	0.3258	-0.209
Mof_N 	N 	0.087	0.169	0.1657	-0.216
Mof_N 	N 	0.1001	0.0783	0.2608	-0.194
Mof_N 	N 	0.1131	0.1193	0.3665	-0.215
Mof_C 	C 	0.6894	0.9237	0.2906	0.038
Mof_C 	C 	0.7069	0.9045	0.1667	0.082
Mof_C 	C 	0.513	0.8523	0.1669	0.043
Mof_H 	H 	0.4521	0.829	0.126	0.007
Mof_C 	C 	0.619	0.8673	0.1045	-0.151
Mof_H 	H 	0.6304	0.8529	0.0231	0.068
Mof_C 	C 	0.496	0.8713	0.2908	-0.103
Mof_C 	C 	0.5863	0.9049	0.3541	-0.049
Mof_H 	H 	0.5778	0.9145	0.4365	0.057
Mof_C 	C 	0.382	0.8514	0.3528	0.363
Mof_C 	C 	0.0921	0.2788	0.2124	0.043
Mof_C 	C 	0.1083	0.2463	0.3387	0.076
Mof_C 	C 	0.1173	0.3354	0.4151	-0.144
Mof_H 	H 	0.1288	0.3132	0.499	0.07
Mof_C 	C 	0.1085	0.4585	0.3599	0.036
Mof_H 	H 	0.1133	0.5214	0.4081	0.025
Mof_C 	C 	0.0925	0.4915	0.235	-0.085
Mof_C 	C 	0.0838	0.4029	0.1581	-0.062
Mof_H 	H 	0.073	0.4256	0.0742	0.067
Mof_C 	C 	0.084	0.6289	0.1826	0.361
Mof_Co	Co	0.9028	0.1121	0.74555	1.148
Mof_Co	Co	0.0386	0.1278	0.99976	1.125
Mof_Co	Co	0.1562	0.9728	0.52242	1.122
Mof_O 	O 	0.8941	0.0826	0.9305	-0.726
Mof_H 	H 	0.7929	0.128	0.9238	0.164
Mof_O 	O 	0.9489	0.1045	0.5707	-0.73
Mof_H 	H 	0.9284	0.1912	0.5237	0.164
Mof_O 	O 	0.645	0.1124	0.5414	-0.445
Mof_O 	O 	0.68	0.2	0.7047	-0.429
Mof_O 	O 	0.9611	0.3285	0.9275	-0.446
Mof_O 	O 	0.888	0.3069	0.7426	-0.442
Mof_N 	N 	0.1814	0.0728	0.8674	-0.227
Mof_N 	N 	0.1337	0.0404	0.77	-0.186
Mof_N 	N 	0.2088	0.0422	0.6742	-0.209
Mof_N 	N 	0.913	0.831	0.8343	-0.216
Mof_N 	N 	0.8999	0.9217	0.7392	-0.194
Mof_N 	N 	0.8869	0.8807	0.6335	-0.215
Mof_C 	C 	0.3106	0.0763	0.7094	0.038
Mof_C 	C 	0.2931	0.0955	0.8333	0.082
Mof_C 	C 	0.487	0.1477	0.8331	0.043
Mof_H 	H 	0.5479	0.171	0.874	0.007
Mof_C 	C 	0.381	0.1327	0.8955	-0.151
Mof_H 	H 	0.3696	0.1471	0.9769	0.068
Mof_C 	C 	0.504	0.1287	0.7092	-0.103
Mof_C 	C 	0.4137	0.0951	0.6459	-0.049
Mof_H 	H 	0.4222	0.0855	0.5635	0.057
Mof_C 	C 	0.618	0.1486	0.6472	0.363
Mof_C 	C 	0.9079	0.7212	0.7876	0.043
Mof_C 	C 	0.8917	0.7537	0.6613	0.076
Mof_C 	C 	0.8827	0.6646	0.5849	-0.144
Mof_H 	H 	0.8712	0.6868	0.501	0.07
Mof_C 	C 	0.8915	0.5415	0.6401	0.036
Mof_H 	H 	0.8867	0.4786	0.5919	0.025
Mof_C 	C 	0.9075	0.5085	0.765	-0.085
Mof_C 	C 	0.9162	0.5971	0.8419	-0.062
Mof_H 	H 	0.927	0.5744	0.9258	0.067
Mof_C 	C 	0.916	0.3711	0.8174	0.361
_end
