data_functionalizedCrystal
_audit_creation_method	'EQeq! by Chris Wilmer'
_symmetry_space_group_name_H-M	'P1'
_symmetry_Int_Tables_number	1
_symmetry_cell_setting	triclinic
loop_
_symmetry_equiv_pos_as_xyz
  x,y,z
_cell_length_a	5.1646
_cell_length_b	24.466
_cell_length_c	11.585
_cell_angle_alpha	90
_cell_angle_beta	101.559
_cell_angle_gamma	90
loop_
_atom_site_label
_atom_site_type_symbol
_atom_site_fract_x
_atom_site_fract_y
_atom_site_fract_z
_atom_site_charge
Mof_Cu	Cu	0.05799	0.11343	0.78326	0.906
Mof_O 	O 	0.8665	0.17304	0.6861	-0.36
Mof_O 	O 	0.1892	0.16186	0.5871	-0.308
Mof_O 	O 	0.2941	0.05855	0.8715	-0.4
Mof_O 	O 	0.6883	0.0977	0.8739	-0.351
Mof_N 	N 	0.7092	0.32642	0.3953	-0.212
Mof_N 	N 	0.8935	0.94341	0.1646	-0.153
Mof_C 	C 	0.6	0.31156	0.485	0.076
Mof_H 	H 	0.4591	0.3325	0.5014	0.009
Mof_C 	C 	0.684	0.26663	0.5555	-0.106
Mof_H 	H 	0.6032	0.2579	0.6189	0.087
Mof_C 	C 	0.887	0.23504	0.5315	0.041
Mof_C 	C 	0.0017	0.25013	0.437	-0.163
Mof_H 	H 	0.1416	0.2295	0.4186	0.1
Mof_C 	C 	0.9087	0.29555	0.3705	0.11
Mof_H 	H 	0.9858	0.3052	0.3064	0.013
Mof_C 	C 	0.9894	0.1854	0.6061	0.308
Mof_C 	C 	0.6526	0.93595	0.0994	0.007
Mof_H 	H 	0.5598	0.904	0.1109	0.044
Mof_C 	C 	0.5335	0.97303	0.016	0.001
Mof_H 	H 	0.3613	0.9666	0.9733	0.044
Mof_C 	C 	0.669	0.02008	0.9949	-0.113
Mof_C 	C 	0.9188	0.02705	0.06	0.105
Mof_H 	H 	0.0183	0.0579	0.0476	-0.011
Mof_C 	C 	0.0251	0.98855	0.1442	-0.089
Mof_H 	H 	0.196	0.9943	0.1888	0.065
Mof_C 	C 	0.5446	0.06266	0.9058	0.359
Mof_Cu	Cu	0.55799	0.61343	0.78326	0.919
Mof_O 	O 	0.3665	0.67304	0.6861	-0.369
Mof_O 	O 	0.6892	0.66186	0.5871	-0.281
Mof_O 	O 	0.7941	0.55855	0.8715	-0.371
Mof_O 	O 	0.1883	0.5977	0.8739	-0.349
Mof_N 	N 	0.2092	0.82642	0.3953	-0.192
Mof_N 	N 	0.3935	0.44341	0.1646	-0.202
Mof_C 	C 	0.1	0.81156	0.485	-0.006
Mof_H 	H 	0.9591	0.8325	0.5014	0.058
Mof_C 	C 	0.184	0.76663	0.5555	-0.045
Mof_H 	H 	0.1032	0.7579	0.6189	0.06
Mof_C 	C 	0.387	0.73504	0.5315	-0.024
Mof_C 	C 	0.5017	0.75013	0.437	-0.065
Mof_H 	H 	0.6416	0.7295	0.4186	0.076
Mof_C 	C 	0.4087	0.79555	0.3705	0.04
Mof_H 	H 	0.4858	0.8052	0.3064	0.027
Mof_C 	C 	0.4894	0.6854	0.6061	0.295
Mof_C 	C 	0.1526	0.43595	0.0994	0.062
Mof_H 	H 	0.0598	0.404	0.1109	0.018
Mof_C 	C 	0.0335	0.47303	0.016	-0.104
Mof_H 	H 	0.8613	0.4666	0.9733	0.095
Mof_C 	C 	0.169	0.52008	0.9949	-0.024
Mof_C 	C 	0.4188	0.52705	0.06	-0.067
Mof_H 	H 	0.5183	0.5579	0.0476	0.067
Mof_C 	C 	0.5251	0.48855	0.1442	0.046
Mof_H 	H 	0.696	0.4943	0.1888	0.025
Mof_C 	C 	0.0446	0.56266	0.9058	0.3
Mof_Cu	Cu	0.05799	0.88657	0.28326	0.908
Mof_O 	O 	0.8665	0.82696	0.1861	-0.36
Mof_O 	O 	0.1892	0.83814	0.0871	-0.306
Mof_O 	O 	0.2941	0.94145	0.3715	-0.4
Mof_O 	O 	0.6883	0.9023	0.3739	-0.35
Mof_N 	N 	0.7092	0.67358	0.8953	-0.211
Mof_N 	N 	0.8935	0.05659	0.6646	-0.153
Mof_C 	C 	0.6	0.68844	0.985	0.068
Mof_H 	H 	0.4591	0.6675	0.0014	0.013
Mof_C 	C 	0.684	0.73337	0.0555	-0.101
Mof_H 	H 	0.6032	0.7421	0.1189	0.086
Mof_C 	C 	0.887	0.76496	0.0315	0.042
Mof_C 	C 	0.0017	0.74987	0.937	-0.166
Mof_H 	H 	0.1416	0.7705	0.9186	0.1
Mof_C 	C 	0.9087	0.70445	0.8705	0.111
Mof_H 	H 	0.9858	0.6948	0.8064	0.013
Mof_C 	C 	0.9894	0.8146	0.1061	0.307
Mof_C 	C 	0.6526	0.06405	0.5994	0.011
Mof_H 	H 	0.5598	0.096	0.6109	0.042
Mof_C 	C 	0.5335	0.02697	0.516	-0.007
Mof_H 	H 	0.3613	0.0334	0.4733	0.049
Mof_C 	C 	0.669	0.97992	0.4949	-0.109
Mof_C 	C 	0.9188	0.97295	0.56	0.104
Mof_H 	H 	0.0183	0.9421	0.5476	-0.011
Mof_C 	C 	0.0251	0.01145	0.6442	-0.09
Mof_H 	H 	0.196	0.0057	0.6888	0.065
Mof_C 	C 	0.5446	0.93734	0.4058	0.357
Mof_Cu	Cu	0.55799	0.38657	0.28326	0.919
Mof_O 	O 	0.3665	0.32696	0.1861	-0.369
Mof_O 	O 	0.6892	0.33814	0.0871	-0.281
Mof_O 	O 	0.7941	0.44145	0.3715	-0.37
Mof_O 	O 	0.1883	0.4023	0.3739	-0.348
Mof_N 	N 	0.2092	0.17358	0.8953	-0.191
Mof_N 	N 	0.3935	0.55659	0.6646	-0.204
Mof_C 	C 	0.1	0.18844	0.985	-0.013
Mof_H 	H 	0.9591	0.1675	0.0014	0.061
Mof_C 	C 	0.184	0.23337	0.0555	-0.04
Mof_H 	H 	0.1032	0.2421	0.1189	0.059
Mof_C 	C 	0.387	0.26496	0.0315	-0.023
Mof_C 	C 	0.5017	0.24987	0.937	-0.067
Mof_H 	H 	0.6416	0.2705	0.9186	0.076
Mof_C 	C 	0.4087	0.20445	0.8705	0.04
Mof_H 	H 	0.4858	0.1948	0.8064	0.027
Mof_C 	C 	0.4894	0.3146	0.1061	0.296
Mof_C 	C 	0.1526	0.56405	0.5994	0.068
Mof_H 	H 	0.0598	0.596	0.6109	0.015
Mof_C 	C 	0.0335	0.52697	0.516	-0.118
Mof_H 	H 	0.8613	0.5334	0.4733	0.101
Mof_C 	C 	0.169	0.47992	0.4949	-0.013
Mof_C 	C 	0.4188	0.47295	0.56	-0.076
Mof_H 	H 	0.5183	0.4421	0.5476	0.069
Mof_C 	C 	0.5251	0.51145	0.6442	0.051
Mof_H 	H 	0.696	0.5057	0.6888	0.024
Mof_C 	C 	0.0446	0.43734	0.4058	0.297
_end
