data_functionalizedCrystal
_audit_creation_method	'EQeq! by Chris Wilmer'
_symmetry_space_group_name_H-M	'P1'
_symmetry_Int_Tables_number	1
_symmetry_cell_setting	triclinic
loop_
_symmetry_equiv_pos_as_xyz
  x,y,z
_cell_length_a	19.7244
_cell_length_b	17.0814
_cell_length_c	9.9554
_cell_angle_alpha	90
_cell_angle_beta	90
_cell_angle_gamma	90
loop_
_atom_site_label
_atom_site_type_symbol
_atom_site_fract_x
_atom_site_fract_y
_atom_site_fract_z
_atom_site_charge
Mof_In	In	0.18128	0.84014	0.91388	2.548
Mof_O 	O 	0.29948	0.85524	0.9265	-0.46
Mof_O 	O 	0.22936	0.95496	0.9302	-0.525
Mof_O 	O 	0.29863	0.21519	0.0695	-0.544
Mof_O 	O 	0.40554	0.24392	0.1003	-0.45
Mof_O 	O 	0.19374	0.8345	0.6838	-0.488
Mof_O 	O 	0.11067	0.90145	0.774	-0.498
Mof_O 	O 	0.1971	0.8341	0.1587	-0.434
Mof_O 	O 	0.1104	0.8881	0.0619	-0.531
Mof_H 	H 	0.4235	0.9068	0.9517	0.07
Mof_H 	H 	0.2821	0.0761	0.0078	0.081
Mof_H 	H 	0.4799	0.1259	0.0654	0.071
Mof_H 	H 	0.0395	0.9669	0.614	0.073
Mof_H 	H 	0.1833	0.8401	0.4175	0.067
Mof_H 	H 	0.0418	0.9598	0.2082	0.074
Mof_C 	C 	0.4639	0.0119	0.0096	0.02
Mof_C 	C 	0.4124	0.9591	0.9752	-0.049
Mof_C 	C 	0.3459	0.9828	0.9754	-0.025
Mof_C 	C 	0.3281	0.0599	0.0083	-0.021
Mof_C 	C 	0.3796	0.1121	0.0416	-0.029
Mof_C 	C 	0.4456	0.0892	0.0423	-0.049
Mof_C 	C 	0.2892	0.9273	0.9391	0.299
Mof_C 	C 	0.3603	0.1955	0.0741	0.306
Mof_C 	C 	0.0296	0.9736	0.4137	0.018
Mof_C 	C 	0.0589	0.9494	0.532	-0.041
Mof_C 	C 	0.1161	0.9003	0.5384	-0.036
Mof_C 	C 	0.1447	0.8734	0.4174	-0.008
Mof_C 	C 	0.1152	0.8969	0.2994	-0.045
Mof_C 	C 	0.0599	0.9452	0.293	-0.037
Mof_C 	C 	0.1422	0.8766	0.6725	0.31
Mof_C 	C 	0.1429	0.8703	0.1664	0.333
Mof_In	In	0.81872	0.15986	0.91388	2.548
Mof_O 	O 	0.70052	0.14476	0.9265	-0.46
Mof_O 	O 	0.77064	0.04504	0.9302	-0.525
Mof_O 	O 	0.70137	0.78481	0.0695	-0.544
Mof_O 	O 	0.59446	0.75608	0.1003	-0.45
Mof_O 	O 	0.80626	0.1655	0.6838	-0.488
Mof_O 	O 	0.88933	0.09855	0.774	-0.498
Mof_O 	O 	0.8029	0.1659	0.1587	-0.434
Mof_O 	O 	0.8896	0.1119	0.0619	-0.531
Mof_H 	H 	0.5765	0.0932	0.9517	0.07
Mof_H 	H 	0.7179	0.9239	0.0078	0.081
Mof_H 	H 	0.5201	0.8741	0.0654	0.071
Mof_H 	H 	0.9605	0.0331	0.614	0.073
Mof_H 	H 	0.8167	0.1599	0.4175	0.067
Mof_H 	H 	0.9582	0.0402	0.2082	0.074
Mof_C 	C 	0.5361	0.9881	0.0096	0.02
Mof_C 	C 	0.5876	0.0409	0.9752	-0.049
Mof_C 	C 	0.6541	0.0172	0.9754	-0.025
Mof_C 	C 	0.6719	0.9401	0.0083	-0.021
Mof_C 	C 	0.6204	0.8879	0.0416	-0.029
Mof_C 	C 	0.5544	0.9108	0.0423	-0.049
Mof_C 	C 	0.7108	0.0727	0.9391	0.299
Mof_C 	C 	0.6397	0.8045	0.0741	0.306
Mof_C 	C 	0.9704	0.0264	0.4137	0.018
Mof_C 	C 	0.9411	0.0506	0.532	-0.041
Mof_C 	C 	0.8839	0.0997	0.5384	-0.036
Mof_C 	C 	0.8553	0.1266	0.4174	-0.008
Mof_C 	C 	0.8848	0.1031	0.2994	-0.045
Mof_C 	C 	0.9401	0.0548	0.293	-0.037
Mof_C 	C 	0.8578	0.1234	0.6725	0.31
Mof_C 	C 	0.8571	0.1297	0.1664	0.333
Mof_In	In	0.31872	0.34014	0.08612	2.547
Mof_O 	O 	0.20052	0.35524	0.0735	-0.46
Mof_O 	O 	0.27064	0.45496	0.0698	-0.526
Mof_O 	O 	0.20137	0.71519	0.9305	-0.544
Mof_O 	O 	0.09446	0.74392	0.8997	-0.45
Mof_O 	O 	0.30626	0.3345	0.3162	-0.488
Mof_O 	O 	0.38933	0.40145	0.226	-0.498
Mof_O 	O 	0.3029	0.3341	0.8413	-0.434
Mof_O 	O 	0.3896	0.3881	0.9381	-0.53
Mof_H 	H 	0.0765	0.4068	0.0483	0.07
Mof_H 	H 	0.2179	0.5761	0.9922	0.081
Mof_H 	H 	0.0201	0.6259	0.9346	0.071
Mof_H 	H 	0.4605	0.4669	0.386	0.073
Mof_H 	H 	0.3167	0.3401	0.5825	0.067
Mof_H 	H 	0.4582	0.4598	0.7918	0.074
Mof_C 	C 	0.0361	0.5119	0.9904	0.021
Mof_C 	C 	0.0876	0.4591	0.0248	-0.05
Mof_C 	C 	0.1541	0.4828	0.0246	-0.026
Mof_C 	C 	0.1719	0.5599	0.9917	-0.019
Mof_C 	C 	0.1204	0.6121	0.9584	-0.029
Mof_C 	C 	0.0544	0.5892	0.9577	-0.049
Mof_C 	C 	0.2108	0.4273	0.0609	0.299
Mof_C 	C 	0.1397	0.6955	0.9259	0.306
Mof_C 	C 	0.4704	0.4736	0.5863	0.018
Mof_C 	C 	0.4411	0.4494	0.468	-0.041
Mof_C 	C 	0.3839	0.4003	0.4616	-0.036
Mof_C 	C 	0.3553	0.3734	0.5826	-0.008
Mof_C 	C 	0.3848	0.3969	0.7006	-0.045
Mof_C 	C 	0.4401	0.4452	0.707	-0.037
Mof_C 	C 	0.3578	0.3766	0.3275	0.31
Mof_C 	C 	0.3571	0.3703	0.8336	0.333
Mof_In	In	0.68128	0.65986	0.08612	2.547
Mof_O 	O 	0.79948	0.64476	0.0735	-0.46
Mof_O 	O 	0.72936	0.54504	0.0698	-0.526
Mof_O 	O 	0.79863	0.28481	0.9305	-0.544
Mof_O 	O 	0.90554	0.25608	0.8997	-0.45
Mof_O 	O 	0.69374	0.6655	0.3162	-0.488
Mof_O 	O 	0.61067	0.59855	0.226	-0.498
Mof_O 	O 	0.6971	0.6659	0.8413	-0.434
Mof_O 	O 	0.6104	0.6119	0.9381	-0.53
Mof_H 	H 	0.9235	0.5932	0.0483	0.07
Mof_H 	H 	0.7821	0.4239	0.9922	0.081
Mof_H 	H 	0.9799	0.3741	0.9346	0.071
Mof_H 	H 	0.5395	0.5331	0.386	0.073
Mof_H 	H 	0.6833	0.6599	0.5825	0.067
Mof_H 	H 	0.5418	0.5402	0.7918	0.074
Mof_C 	C 	0.9639	0.4881	0.9904	0.021
Mof_C 	C 	0.9124	0.5409	0.0248	-0.05
Mof_C 	C 	0.8459	0.5172	0.0246	-0.026
Mof_C 	C 	0.8281	0.4401	0.9917	-0.019
Mof_C 	C 	0.8796	0.3879	0.9584	-0.029
Mof_C 	C 	0.9456	0.4108	0.9577	-0.049
Mof_C 	C 	0.7892	0.5727	0.0609	0.299
Mof_C 	C 	0.8603	0.3045	0.9259	0.306
Mof_C 	C 	0.5296	0.5264	0.5863	0.018
Mof_C 	C 	0.5589	0.5506	0.468	-0.041
Mof_C 	C 	0.6161	0.5997	0.4616	-0.036
Mof_C 	C 	0.6447	0.6266	0.5826	-0.008
Mof_C 	C 	0.6152	0.6031	0.7006	-0.045
Mof_C 	C 	0.5599	0.5548	0.707	-0.037
Mof_C 	C 	0.6422	0.6234	0.3275	0.31
Mof_C 	C 	0.6429	0.6297	0.8336	0.333
_end
