data_functionalizedCrystal
_audit_creation_method	'EQeq! by Chris Wilmer'
_symmetry_space_group_name_H-M	'P1'
_symmetry_Int_Tables_number	1
_symmetry_cell_setting	triclinic
loop_
_symmetry_equiv_pos_as_xyz
  x,y,z
_cell_length_a	15.4901
_cell_length_b	15.4901
_cell_length_c	15.4901
_cell_angle_alpha	90
_cell_angle_beta	90
_cell_angle_gamma	90
loop_
_atom_site_label
_atom_site_type_symbol
_atom_site_fract_x
_atom_site_fract_y
_atom_site_fract_z
_atom_site_charge
Mof_Mn	Mn	0.8535	0.3535	0.1465	1.188
Mof_Mn	Mn	0.6465	0.6465	0.6465	1.189
Mof_Mn	Mn	0.1465	0.8535	0.3535	1.189
Mof_Mn	Mn	0.3535	0.1465	0.8535	1.189
Mof_Cr	Cr	0.5973	0.4027	0.9027	1.407
Mof_Cr	Cr	0.9027	0.5973	0.4027	1.407
Mof_Cr	Cr	0.4027	0.9027	0.5973	1.407
Mof_Cr	Cr	0.0973	0.0973	0.0973	1.401
Mof_C 	C 	0.763	0.378	0.993	0.268
Mof_C 	C 	0.695	0.375	0.066	0.229
Mof_C 	C 	0.737	0.622	0.493	0.272
Mof_C 	C 	0.805	0.625	0.566	0.227
Mof_C 	C 	0.237	0.878	0.507	0.272
Mof_C 	C 	0.305	0.875	0.434	0.227
Mof_C 	C 	0.263	0.122	0.007	0.268
Mof_C 	C 	0.195	0.125	0.934	0.23
Mof_C 	C 	0.993	0.763	0.378	0.268
Mof_C 	C 	0.066	0.695	0.375	0.229
Mof_C 	C 	0.493	0.737	0.622	0.272
Mof_C 	C 	0.566	0.805	0.625	0.227
Mof_C 	C 	0.507	0.237	0.878	0.272
Mof_C 	C 	0.434	0.305	0.875	0.227
Mof_C 	C 	0.007	0.263	0.122	0.268
Mof_C 	C 	0.934	0.195	0.125	0.23
Mof_C 	C 	0.378	0.993	0.763	0.268
Mof_C 	C 	0.375	0.066	0.695	0.229
Mof_C 	C 	0.622	0.493	0.737	0.272
Mof_C 	C 	0.625	0.566	0.805	0.227
Mof_C 	C 	0.878	0.507	0.237	0.272
Mof_C 	C 	0.875	0.434	0.305	0.227
Mof_C 	C 	0.122	0.007	0.263	0.268
Mof_C 	C 	0.125	0.934	0.195	0.23
Mof_O 	O 	0.8421	0.3658	0.0203	-0.334
Mof_O 	O 	0.726	0.3593	0.1433	-0.325
Mof_O 	O 	0.74	0.3873	0.9198	-0.362
Mof_O 	O 	0.618	0.3896	0.0474	-0.341
Mof_O 	O 	0.6579	0.6342	0.5203	-0.336
Mof_O 	O 	0.774	0.6407	0.6433	-0.325
Mof_O 	O 	0.76	0.6127	0.4198	-0.363
Mof_O 	O 	0.882	0.6104	0.5474	-0.342
Mof_O 	O 	0.1579	0.8658	0.4797	-0.336
Mof_O 	O 	0.274	0.8593	0.3567	-0.324
Mof_O 	O 	0.26	0.8873	0.5802	-0.363
Mof_O 	O 	0.382	0.8896	0.4526	-0.341
Mof_O 	O 	0.3421	0.1342	0.9797	-0.334
Mof_O 	O 	0.226	0.1407	0.8567	-0.325
Mof_O 	O 	0.24	0.1127	0.0802	-0.362
Mof_O 	O 	0.118	0.1104	0.9526	-0.339
Mof_O 	O 	0.0203	0.8421	0.3658	-0.334
Mof_O 	O 	0.1433	0.726	0.3593	-0.325
Mof_O 	O 	0.9198	0.74	0.3873	-0.362
Mof_O 	O 	0.0474	0.618	0.3896	-0.341
Mof_O 	O 	0.5203	0.6579	0.6342	-0.336
Mof_O 	O 	0.6433	0.774	0.6407	-0.325
Mof_O 	O 	0.4198	0.76	0.6127	-0.363
Mof_O 	O 	0.5474	0.882	0.6104	-0.342
Mof_O 	O 	0.4797	0.1579	0.8658	-0.336
Mof_O 	O 	0.3567	0.274	0.8593	-0.324
Mof_O 	O 	0.5802	0.26	0.8873	-0.363
Mof_O 	O 	0.4526	0.382	0.8896	-0.341
Mof_O 	O 	0.9797	0.3421	0.1342	-0.334
Mof_O 	O 	0.8567	0.226	0.1407	-0.325
Mof_O 	O 	0.0802	0.24	0.1127	-0.362
Mof_O 	O 	0.9526	0.118	0.1104	-0.339
Mof_O 	O 	0.3658	0.0203	0.8421	-0.334
Mof_O 	O 	0.3593	0.1433	0.726	-0.325
Mof_O 	O 	0.3873	0.9198	0.74	-0.362
Mof_O 	O 	0.3896	0.0474	0.618	-0.341
Mof_O 	O 	0.6342	0.5203	0.6579	-0.336
Mof_O 	O 	0.6407	0.6433	0.774	-0.325
Mof_O 	O 	0.6127	0.4198	0.76	-0.363
Mof_O 	O 	0.6104	0.5474	0.882	-0.342
Mof_O 	O 	0.8658	0.4797	0.1579	-0.336
Mof_O 	O 	0.8593	0.3567	0.274	-0.324
Mof_O 	O 	0.8873	0.5802	0.26	-0.363
Mof_O 	O 	0.8896	0.4526	0.382	-0.341
Mof_O 	O 	0.1342	0.9797	0.3421	-0.334
Mof_O 	O 	0.1407	0.8567	0.226	-0.325
Mof_O 	O 	0.1127	0.0802	0.24	-0.362
Mof_O 	O 	0.1104	0.9526	0.118	-0.339
_end
