data_functionalizedCrystal
_audit_creation_method	'EQeq! by Chris Wilmer'
_symmetry_space_group_name_H-M	'P1'
_symmetry_Int_Tables_number	1
_symmetry_cell_setting	triclinic
loop_
_symmetry_equiv_pos_as_xyz
  x,y,z
_cell_length_a	11.2213
_cell_length_b	39.8468
_cell_length_c	22.4948
_cell_angle_alpha	90
_cell_angle_beta	104.135
_cell_angle_gamma	90
loop_
_atom_site_label
_atom_site_type_symbol
_atom_site_fract_x
_atom_site_fract_y
_atom_site_fract_z
_atom_site_charge
Mof_Pb	Pb	0.18604	0.4857	0.75442	0.582
Mof_P 	P 	0.66656	0.49529	0.32151	0.208
Mof_P 	P 	0.87259	0.40591	0.29365	0.207
Mof_P 	P 	0.1357	0.20108	0.49647	0.199
Mof_P 	P 	0.24429	0.25938	0.32488	0.205
Mof_P 	P 	0.81763	0.78015	0.07283	0.207
Mof_P 	P 	0.5338	0.80812	0.90918	0.209
Mof_Na	Na	0.4935	0.49631	0.74453	3.455
Mof_Na	Na	0.9178	0.43089	0.6564	1.843
Mof_O 	O 	0.7488	0.47938	0.3761	-0.228
Mof_O 	O 	0.7382	0.41111	0.2686	-0.221
Mof_O 	O 	0.386	0.48433	0.8187	-0.782
Mof_O 	O 	0.2883	0.44612	0.8615	-0.366
Mof_O 	O 	0.6723	0.5431	0.6161	-0.338
Mof_O 	O 	0.5796	0.50561	0.6617	-0.768
Mof_O 	O 	0.1607	0.18822	0.5609	-0.217
Mof_O 	O 	0.1415	0.26914	0.3526	-0.227
Mof_O 	O 	0.3104	0.45447	0.7009	-0.684
Mof_O 	O 	0.1184	0.44427	0.6497	-0.704
Mof_O 	O 	0.8831	0.03776	0.332	-0.38
Mof_O 	O 	0.6965	0.02602	0.2792	-0.758
Mof_O 	O 	0.7612	0.8136	0.0747	-0.215
Mof_O 	O 	0.6396	0.78643	0.9057	-0.222
Mof_O 	O 	0.6435	0.53984	0.7858	-0.662
Mof_O 	O 	0.7548	0.57852	0.7541	-0.306
Mof_O 	O 	0.3107	0.96978	0.2315	-0.747
Mof_O 	O 	0.1581	0.94478	0.2608	-0.703
Mof_C 	C 	0.7074	0.48819	0.2491	-0.042
Mof_C 	C 	0.8253	0.47997	0.2465	0.004
Mof_C 	C 	0.8517	0.47593	0.1869	0.007
Mof_C 	C 	0.9765	0.47235	0.1822	-0.076
Mof_H 	H 	0.0417	0.4727	0.2182	0.06
Mof_C 	C 	0.0015	0.4685	0.1271	-0.005
Mof_H 	H 	0.0847	0.4672	0.1246	0.03
Mof_C 	C 	0.9089	0.4662	0.0741	-0.052
Mof_H 	H 	0.929	0.4627	0.036	0.043
Mof_C 	C 	0.7878	0.4691	0.076	-0.044
Mof_C 	C 	0.7579	0.47606	0.1344	0.025
Mof_C 	C 	0.6378	0.48416	0.1382	-0.076
Mof_H 	H 	0.5731	0.485	0.102	0.057
Mof_C 	C 	0.6138	0.49083	0.194	-0.021
Mof_H 	H 	0.5333	0.4973	0.1958	0.035
Mof_C 	C 	0.9582	0.44316	0.326	-0.054
Mof_C 	C 	0.9285	0.4747	0.3026	0.016
Mof_C 	C 	0.9967	0.50356	0.3302	-0.009
Mof_C 	C 	0.9684	0.5363	0.3063	-0.051
Mof_H 	H 	0.8995	0.5394	0.2726	0.05
Mof_C 	C 	0.0357	0.5626	0.3299	-0.034
Mof_H 	H 	0.0178	0.5841	0.3118	0.04
Mof_C 	C 	0.1347	0.5584	0.3825	-0.03
Mof_H 	H 	0.1807	0.5775	0.3999	0.038
Mof_C 	C 	0.1654	0.52802	0.4084	-0.059
Mof_C 	C 	0.0981	0.49934	0.3825	0.039
Mof_C 	C 	0.1269	0.46619	0.4036	-0.089
Mof_H 	H 	0.1944	0.4627	0.4379	0.055
Mof_C 	C 	0.0625	0.43935	0.377	-0.01
Mof_H 	H 	0.0866	0.4175	0.3924	0.028
Mof_C 	C 	0.6856	0.46549	0.0193	0.126
Mof_C 	C 	0.6895	0.4844	0.9669	-0.218
Mof_H 	H 	0.7587	0.4982	0.9671	0.096
Mof_C 	C 	0.5939	0.483	0.9156	0.183
Mof_H 	H 	0.5958	0.4964	0.8809	-0.122
Mof_C 	C 	0.4935	0.46183	0.9143	-0.264
Mof_C 	C 	0.4939	0.44163	0.9651	0.137
Mof_H 	H 	0.4284	0.4264	0.9643	-0.009
Mof_C 	C 	0.5897	0.44397	0.0162	-0.203
Mof_H 	H 	0.5893	0.4301	0.0506	0.099
Mof_C 	C 	0.381	0.46371	0.8617	0.489
Mof_C 	C 	0.2704	0.52578	0.4623	0.131
Mof_C 	C 	0.383	0.54082	0.4594	-0.202
Mof_H 	H 	0.3903	0.5512	0.4225	0.096
Mof_C 	C 	0.4817	0.54058	0.5093	0.144
Mof_H 	H 	0.5559	0.5513	0.5068	-0.018
Mof_C 	C 	0.4747	0.52465	0.5641	-0.288
Mof_C 	C 	0.364	0.50981	0.567	0.193
Mof_H 	H 	0.3572	0.4991	0.6038	-0.126
Mof_C 	C 	0.264	0.5104	0.5172	-0.228
Mof_H 	H 	0.1893	0.5001	0.5203	0.092
Mof_C 	C 	0.5837	0.52446	0.6172	0.515
Mof_C 	C 	0.5102	0.48088	0.3066	-0.026
Mof_C 	C 	0.4918	0.44638	0.2976	-0.052
Mof_H 	H 	0.5601	0.4319	0.3	0.063
Mof_C 	C 	0.3743	0.4333	0.285	-0.031
Mof_H 	H 	0.361	0.4099	0.2787	0.039
Mof_C 	C 	0.2756	0.455	0.2819	-0.045
Mof_H 	H 	0.195	0.446	0.2749	0.045
Mof_C 	C 	0.2914	0.4889	0.2884	-0.033
Mof_H 	H 	0.2227	0.5034	0.2845	0.042
Mof_C 	C 	0.4091	0.5016	0.3008	-0.047
Mof_H 	H 	0.421	0.5252	0.3054	0.044
Mof_C 	C 	0.6562	0.53994	0.33	-0.032
Mof_C 	C 	0.6508	0.5625	0.2833	-0.042
Mof_H 	H 	0.6537	0.5547	0.2438	0.041
Mof_C 	C 	0.641	0.5967	0.2938	-0.037
Mof_H 	H 	0.6414	0.6123	0.262	0.041
Mof_C 	C 	0.6308	0.6077	0.3496	-0.036
Mof_H 	H 	0.6228	0.6311	0.3561	0.045
Mof_C 	C 	0.6319	0.586	0.3961	-0.041
Mof_H 	H 	0.6235	0.5939	0.4347	0.041
Mof_C 	C 	0.6459	0.5518	0.3858	-0.037
Mof_H 	H 	0.6483	0.5364	0.4183	0.042
Mof_C 	C 	0.9069	0.37648	0.3558	-0.023
Mof_C 	C 	0.872	0.38565	0.409	-0.071
Mof_H 	H 	0.8351	0.407	0.4109	0.045
Mof_C 	C 	0.8898	0.36454	0.4583	-0.01
Mof_H 	H 	0.8657	0.3715	0.494	-0.03
Mof_C 	C 	0.9434	0.3328	0.4568	-0.067
Mof_H 	H 	0.9549	0.3179	0.4908	0.035
Mof_C 	C 	0.9783	0.32397	0.4045	-0.034
Mof_H 	H 	0.0159	0.3028	0.4026	0.058
Mof_C 	C 	0.9602	0.34533	0.3542	-0.05
Mof_H 	H 	0.9845	0.3385	0.3185	0.049
Mof_C 	C 	0.9458	0.39132	0.235	-0.036
Mof_C 	C 	0.8728	0.3902	0.176	-0.033
Mof_H 	H 	0.7882	0.396	0.1679	0.051
Mof_C 	C 	0.9254	0.3803	0.1277	-0.049
Mof_H 	H 	0.8764	0.3796	0.0868	0.044
Mof_C 	C 	0.0451	0.3719	0.1397	-0.024
Mof_H 	H 	0.0793	0.3651	0.107	0.04
Mof_C 	C 	0.1195	0.3731	0.1987	-0.047
Mof_H 	H 	0.2039	0.3672	0.2061	0.049
Mof_C 	C 	0.0702	0.38293	0.247	-0.033
Mof_H 	H 	0.1205	0.3839	0.2876	0.036
Mof_C 	C 	0.2199	0.23938	0.493	-0.048
Mof_C 	C 	0.3166	0.24549	0.4676	0.011
Mof_C 	C 	0.387	0.27688	0.4822	-0.009
Mof_C 	C 	0.4986	0.28208	0.4654	-0.04
Mof_H 	H 	0.5301	0.2649	0.4442	0.046
Mof_C 	C 	0.5616	0.3111	0.4789	-0.054
Mof_H 	H 	0.6373	0.314	0.4677	0.04
Mof_C 	C 	0.5159	0.33706	0.5093	-0.016
Mof_H 	H 	0.5609	0.3574	0.5184	0.002
Mof_C 	C 	0.4067	0.3334	0.5263	-0.074
Mof_C 	C 	0.3408	0.3022	0.5156	0.042
Mof_C 	C 	0.2364	0.29514	0.5367	-0.086
Mof_H 	H 	0.2042	0.3122	0.5579	0.051
Mof_C 	C 	0.1795	0.26522	0.5281	-0.009
Mof_H 	H 	0.1117	0.2611	0.5454	0.033
Mof_C 	C 	0.3402	0.22539	0.3652	-0.05
Mof_C 	C 	0.3633	0.22109	0.4275	0.003
Mof_C 	C 	0.4388	0.19352	0.4564	-0.002
Mof_C 	C 	0.4675	0.1887	0.5204	-0.056
Mof_H 	H 	0.4388	0.2044	0.5456	0.055
Mof_C 	C 	0.5358	0.16188	0.5466	-0.034
Mof_H 	H 	0.5536	0.1589	0.5898	0.038
Mof_C 	C 	0.58	0.1387	0.5107	-0.035
Mof_H 	H 	0.626	0.1199	0.5299	0.039
Mof_C 	C 	0.5589	0.1423	0.449	-0.053
Mof_C 	C 	0.4852	0.1703	0.4195	0.033
Mof_C 	C 	0.4638	0.17667	0.3559	-0.081
Mof_H 	H 	0.4992	0.1624	0.331	0.059
Mof_C 	C 	0.3927	0.20313	0.3299	-0.017
Mof_H 	H 	0.3781	0.2067	0.287	0.033
Mof_C 	C 	0.3629	0.36176	0.5595	0.147
Mof_C 	C 	0.2431	0.37447	0.5387	-0.254
Mof_H 	H 	0.1904	0.3658	0.5023	0.11
Mof_C 	C 	0.2018	0.39941	0.5707	0.195
Mof_H 	H 	0.1198	0.4073	0.5569	-0.09
Mof_C 	C 	0.278	0.41328	0.6231	-0.351
Mof_C 	C 	0.3986	0.40195	0.6414	0.207
Mof_H 	H 	0.4532	0.4123	0.6754	-0.112
Mof_C 	C 	0.4404	0.37625	0.6116	-0.259
Mof_H 	H 	0.522	0.3682	0.6263	0.078
Mof_C 	C 	0.23	0.43948	0.6593	0.595
Mof_C 	C 	0.6121	0.11805	0.4124	0.136
Mof_C 	C 	0.7391	0.11188	0.4299	-0.199
Mof_H 	H 	0.7893	0.1238	0.4634	0.099
Mof_C 	C 	0.7915	0.08839	0.3985	0.147
Mof_H 	H 	0.8776	0.0845	0.4104	-0.01
Mof_C 	C 	0.7186	0.07034	0.3494	-0.287
Mof_C 	C 	0.5927	0.07749	0.3318	0.203
Mof_H 	H 	0.5422	0.0659	0.298	-0.137
Mof_C 	C 	0.541	0.10096	0.3624	-0.233
Mof_H 	H 	0.4556	0.1056	0.3493	0.113
Mof_C 	C 	0.7717	0.04291	0.3195	0.526
Mof_C 	C 	0.977	0.21307	0.4659	-0.013
Mof_C 	C 	0.8905	0.19969	0.4947	-0.056
Mof_H 	H 	0.9149	0.1858	0.5299	0.055
Mof_C 	C 	0.7666	0.2075	0.4698	-0.025
Mof_H 	H 	0.7053	0.1987	0.488	0.041
Mof_C 	C 	0.7333	0.2279	0.4192	-0.055
Mof_H 	H 	0.6488	0.2325	0.402	0.048
Mof_C 	C 	0.8196	0.24163	0.3934	-0.015
Mof_H 	H 	0.7958	0.2562	0.3592	0.034
Mof_C 	C 	0.9417	0.23419	0.4172	-0.071
Mof_H 	H 	0.0022	0.2439	0.3995	0.068
Mof_C 	C 	0.1634	0.16842	0.4458	-0.009
Mof_C 	C 	0.1321	0.17238	0.3828	-0.057
Mof_H 	H 	0.0965	0.1928	0.3653	0.051
Mof_C 	C 	0.1524	0.14663	0.3452	-0.01
Mof_H 	H 	0.1307	0.1493	0.3019	0.039
Mof_C 	C 	0.2049	0.11678	0.3714	-0.062
Mof_H 	H 	0.2198	0.0991	0.3458	0.083
Mof_C 	C 	0.2354	0.11273	0.4337	-0.01
Mof_H 	H 	0.2707	0.0923	0.4513	0.046
Mof_C 	C 	0.2142	0.13878	0.4711	-0.056
Mof_H 	H 	0.235	0.136	0.5143	0.06
Mof_C 	C 	0.3489	0.29408	0.3231	-0.022
Mof_C 	C 	0.4584	0.28991	0.305	-0.048
Mof_H 	H 	0.4783	0.2687	0.2907	0.042
Mof_C 	C 	0.5388	0.31696	0.3078	-0.029
Mof_H 	H 	0.6131	0.3143	0.2952	0.043
Mof_C 	C 	0.5092	0.3475	0.3289	-0.047
Mof_H 	H 	0.5645	0.3658	0.3321	0.049
Mof_C 	C 	0.3972	0.35162	0.3459	-0.031
Mof_H 	H 	0.3755	0.3729	0.3591	0.035
Mof_C 	C 	0.3195	0.32469	0.3433	-0.044
Mof_H 	H 	0.2448	0.3273	0.3555	0.054
Mof_C 	C 	0.1872	0.24346	0.2482	-0.033
Mof_C 	C 	0.2328	0.25287	0.1982	-0.038
Mof_H 	H 	0.2951	0.2695	0.2028	0.05
Mof_C 	C 	0.1867	0.2379	0.1423	-0.043
Mof_H 	H 	0.2206	0.2437	0.1089	0.062
Mof_C 	C 	0.0931	0.2147	0.1332	-0.036
Mof_H 	H 	0.0612	0.2048	0.0941	0.04
Mof_C 	C 	0.0472	0.2065	0.1833	-0.037
Mof_H 	H 	0.9826	0.1905	0.1784	0.04
Mof_C 	C 	0.0921	0.2205	0.2386	-0.037
Mof_H 	H 	0.0577	0.2145	0.2718	0.043
Mof_C 	C 	0.717	0.74909	0.0285	-0.045
Mof_C 	C 	0.5917	0.75248	0.0117	0.009
Mof_C 	C 	0.5152	0.72619	0.9775	0.001
Mof_C 	C 	0.3879	0.72737	0.9661	-0.055
Mof_H 	H 	0.3499	0.7458	0.981	0.051
Mof_C 	C 	0.3168	0.7027	0.9342	-0.031
Mof_H 	H 	0.2301	0.7034	0.9283	0.039
Mof_C 	C 	0.3728	0.6758	0.9096	-0.038
Mof_H 	H 	0.3226	0.6589	0.8863	0.04
Mof_C 	C 	0.496	0.67386	0.9187	-0.047
Mof_C 	C 	0.5732	0.69803	0.957	0.031
Mof_C 	C 	0.7022	0.69546	0.9732	-0.08
Mof_H 	H 	0.7414	0.6768	0.9597	0.057
Mof_C 	C 	0.7719	0.72007	0.0088	-0.018
Mof_H 	H 	0.8587	0.7177	0.0205	0.032
Mof_C 	C 	0.501	0.8094	0.9847	-0.048
Mof_C 	C 	0.5283	0.78325	0.0265	0.016
Mof_C 	C 	0.4968	0.78533	0.0838	-0.01
Mof_C 	C 	0.5144	0.75798	0.1248	-0.042
Mof_H 	H 	0.5513	0.7379	0.1149	0.048
Mof_C 	C 	0.4789	0.76007	0.1785	-0.052
Mof_H 	H 	0.4853	0.741	0.2045	0.045
Mof_C 	C 	0.4326	0.79081	0.1953	-0.011
Mof_H 	H 	0.4118	0.7923	0.2337	0.026
Mof_C 	C 	0.417	0.81794	0.1584	-0.087
Mof_C 	C 	0.4457	0.81615	0.1011	0.049
Mof_C 	C 	0.4178	0.84194	0.0556	-0.09
Mof_H 	H 	0.3808	0.8621	0.065	0.062
Mof_C 	C 	0.4418	0.83885	0.0004	-0.007
Mof_H 	H 	0.4192	0.8564	0.9712	0.03
Mof_C 	C 	0.5493	0.64593	0.8873	0.118
Mof_C 	C 	0.5227	0.61264	0.8961	-0.191
Mof_H 	H 	0.4756	0.6067	0.9244	0.088
Mof_C 	C 	0.5671	0.58758	0.8623	0.133
Mof_H 	H 	0.5498	0.5646	0.8679	-0.048
Mof_C 	C 	0.634	0.59617	0.8218	-0.226
Mof_C 	C 	0.6587	0.63016	0.8134	0.121
Mof_H 	H 	0.7035	0.6365	0.7844	-0.004
Mof_C 	C 	0.6184	0.6537	0.8467	-0.191
Mof_H 	H 	0.6386	0.6765	0.8419	0.096
Mof_C 	C 	0.6795	0.56956	0.7842	0.481
Mof_C 	C 	0.3715	0.85033	0.1797	0.193
Mof_C 	C 	0.2694	0.85104	0.2041	-0.293
Mof_H 	H 	0.2261	0.8309	0.2073	0.114
Mof_C 	C 	0.2302	0.88146	0.2238	0.247
Mof_H 	H 	0.1604	0.8817	0.2407	-0.135
Mof_C 	C 	0.2914	0.9112	0.2192	-0.419
Mof_C 	C 	0.3966	0.90961	0.1956	0.29
Mof_H 	H 	0.4411	0.9295	0.1925	-0.174
Mof_C 	C 	0.435	0.87994	0.1771	-0.317
Mof_H 	H 	0.5071	0.8795	0.1621	0.129
Mof_C 	C 	0.2486	0.94393	0.2383	0.64
Mof_C 	C 	0.8749	0.7623	0.1473	-0.026
Mof_C 	C 	0.9013	0.73	0.1584	-0.048
Mof_H 	H 	0.8807	0.7145	0.1254	0.043
Mof_C 	C 	0.9585	0.7179	0.2172	-0.03
Mof_H 	H 	0.9768	0.6947	0.2226	0.038
Mof_C 	C 	0.987	0.7381	0.2651	-0.046
Mof_H 	H 	0.0223	0.7299	0.3053	0.04
Mof_C 	C 	0.963	0.773	0.2533	-0.031
Mof_H 	H 	0.9842	0.7885	0.2863	0.017
Mof_C 	C 	0.9095	0.7849	0.1951	-0.05
Mof_H 	H 	0.8967	0.8083	0.1881	0.042
Mof_C 	C 	0.9485	0.78191	0.0398	-0.017
Mof_C 	C 	0.0654	0.7754	0.0732	-0.054
Mof_H 	H 	0.0795	0.769	0.115	0.046
Mof_C 	C 	0.1669	0.7783	0.0449	-0.033
Mof_H 	H 	0.2481	0.7732	0.0674	0.044
Mof_C 	C 	0.1445	0.7887	0.985	-0.043
Mof_H 	H 	0.2112	0.7915	0.9663	0.045
Mof_C 	C 	0.0282	0.795	0.9522	-0.03
Mof_H 	H 	0.0142	0.8015	0.9104	0.041
Mof_C 	C 	0.9276	0.7921	0.9793	-0.051
Mof_H 	H 	0.8467	0.7971	0.9563	0.066
Mof_C 	C 	0.5623	0.8517	0.8949	-0.026
Mof_C 	C 	0.6603	0.86659	0.935	-0.046
Mof_H 	H 	0.708	0.854	0.9683	0.059
Mof_C 	C 	0.6898	0.8994	0.9273	-0.034
Mof_H 	H 	0.7595	0.909	0.9545	0.041
Mof_C 	C 	0.6193	0.9187	0.8802	-0.039
Mof_H 	H 	0.64	0.9415	0.8752	0.041
Mof_C 	C 	0.5175	0.904	0.8404	-0.043
Mof_H 	H 	0.4664	0.9168	0.8086	0.059
Mof_C 	C 	0.4918	0.87047	0.8478	-0.041
Mof_H 	H 	0.4243	0.8602	0.8199	0.049
Mof_C 	C 	0.3943	0.79491	0.857	-0.031
Mof_C 	C 	0.2826	0.8105	0.8507	-0.042
Mof_H 	H 	0.2764	0.8294	0.8755	0.04
Mof_C 	C 	0.1778	0.7989	0.8081	-0.037
Mof_H 	H 	0.1015	0.8104	0.8022	0.045
Mof_C 	C 	0.1888	0.7703	0.775	-0.039
Mof_H 	H 	0.118	0.7619	0.7467	0.047
Mof_C 	C 	0.2923	0.7543	0.7813	-0.034
Mof_H 	H 	0.2955	0.7346	0.7578	0.039
Mof_C 	C 	0.3977	0.7658	0.8217	-0.04
Mof_H 	H 	0.4729	0.754	0.8259	0.052
Mof_Pb	Pb	0.81396	0.9857	0.24558	0.574
Mof_P 	P 	0.33344	0.99529	0.67849	0.21
Mof_P 	P 	0.12741	0.90591	0.70635	0.206
Mof_P 	P 	0.8643	0.70108	0.50353	0.2
Mof_P 	P 	0.75571	0.75938	0.67512	0.204
Mof_P 	P 	0.18237	0.28015	0.92717	0.207
Mof_P 	P 	0.4662	0.30812	0.09082	0.209
Mof_Na	Na	0.5065	0.99631	0.25547	3.408
Mof_Na	Na	0.0822	0.93089	0.3436	1.834
Mof_O 	O 	0.2512	0.97938	0.6239	-0.232
Mof_O 	O 	0.2618	0.91111	0.7314	-0.22
Mof_O 	O 	0.614	0.98433	0.1813	-0.778
Mof_O 	O 	0.7117	0.94612	0.1385	-0.365
Mof_O 	O 	0.3277	0.0431	0.3839	-0.336
Mof_O 	O 	0.4204	0.00561	0.3383	-0.755
Mof_O 	O 	0.8393	0.68822	0.4391	-0.217
Mof_O 	O 	0.8585	0.76914	0.6474	-0.227
Mof_O 	O 	0.6896	0.95447	0.2991	-0.68
Mof_O 	O 	0.8816	0.94427	0.3503	-0.703
Mof_O 	O 	0.1169	0.53776	0.668	-0.386
Mof_O 	O 	0.3035	0.52602	0.7208	-0.772
Mof_O 	O 	0.2388	0.3136	0.9253	-0.215
Mof_O 	O 	0.3604	0.28643	0.0943	-0.222
Mof_O 	O 	0.3565	0.03984	0.2142	-0.65
Mof_O 	O 	0.2452	0.07852	0.2459	-0.303
Mof_O 	O 	0.6893	0.46978	0.7685	-0.75
Mof_O 	O 	0.8419	0.44478	0.7392	-0.703
Mof_C 	C 	0.2926	0.98819	0.7509	-0.049
Mof_C 	C 	0.1747	0.97997	0.7535	0.012
Mof_C 	C 	0.1483	0.97593	0.8131	0.002
Mof_C 	C 	0.0235	0.97235	0.8178	-0.077
Mof_H 	H 	0.9583	0.9727	0.7818	0.058
Mof_C 	C 	0.9985	0.9685	0.8729	-0.006
Mof_H 	H 	0.9153	0.9672	0.8754	0.029
Mof_C 	C 	0.0911	0.9662	0.9259	-0.053
Mof_H 	H 	0.071	0.9627	0.964	0.043
Mof_C 	C 	0.2122	0.9691	0.924	-0.045
Mof_C 	C 	0.2421	0.97606	0.8656	0.027
Mof_C 	C 	0.3622	0.98416	0.8618	-0.08
Mof_H 	H 	0.4269	0.985	0.898	0.057
Mof_C 	C 	0.3862	0.99083	0.806	-0.018
Mof_H 	H 	0.4667	0.9973	0.8042	0.031
Mof_C 	C 	0.0418	0.94316	0.674	-0.038
Mof_C 	C 	0.0715	0.9747	0.6974	-0.012
Mof_C 	C 	0.0033	0.00356	0.6698	0.039
Mof_C 	C 	0.0316	0.0363	0.6937	-0.085
Mof_H 	H 	0.1005	0.0394	0.7274	0.065
Mof_C 	C 	0.9643	0.0626	0.6701	-0.002
Mof_H 	H 	0.9822	0.0841	0.6882	0.03
Mof_C 	C 	0.8653	0.0584	0.6175	-0.058
Mof_H 	H 	0.8193	0.0775	0.6001	0.047
Mof_C 	C 	0.8346	0.02802	0.5916	-0.026
Mof_C 	C 	0.9019	0.99934	0.6175	-0.01
Mof_C 	C 	0.8731	0.96619	0.5964	-0.06
Mof_H 	H 	0.8056	0.9627	0.5621	0.042
Mof_C 	C 	0.9375	0.93935	0.623	-0.032
Mof_H 	H 	0.9134	0.9175	0.6076	0.035
Mof_C 	C 	0.3144	0.96549	0.9807	0.125
Mof_C 	C 	0.3105	0.9844	0.0331	-0.218
Mof_H 	H 	0.2413	0.9982	0.0329	0.094
Mof_C 	C 	0.4061	0.983	0.0844	0.181
Mof_H 	H 	0.4042	0.9964	0.1191	-0.122
Mof_C 	C 	0.5065	0.96183	0.0857	-0.263
Mof_C 	C 	0.5061	0.94163	0.0349	0.135
Mof_H 	H 	0.5716	0.9264	0.0357	-0.009
Mof_C 	C 	0.4103	0.94397	0.9838	-0.202
Mof_H 	H 	0.4107	0.9301	0.9494	0.099
Mof_C 	C 	0.619	0.96371	0.1383	0.487
Mof_C 	C 	0.7296	0.02578	0.5377	0.126
Mof_C 	C 	0.617	0.04082	0.5406	-0.201
Mof_H 	H 	0.6097	0.0512	0.5775	0.096
Mof_C 	C 	0.5183	0.04058	0.4907	0.148
Mof_H 	H 	0.4441	0.0513	0.4932	-0.019
Mof_C 	C 	0.5253	0.02465	0.4359	-0.294
Mof_C 	C 	0.636	0.00981	0.433	0.219
Mof_H 	H 	0.6428	0.9991	0.3962	-0.143
Mof_C 	C 	0.736	0.0104	0.4828	-0.234
Mof_H 	H 	0.8107	0.0001	0.4797	0.099
Mof_C 	C 	0.4163	0.02446	0.3828	0.516
Mof_C 	C 	0.4898	0.98088	0.6934	-0.076
Mof_C 	C 	0.5082	0.94638	0.7024	-0.007
Mof_H 	H 	0.4399	0.9319	0.7	0.048
Mof_C 	C 	0.6257	0.9333	0.715	-0.085
Mof_H 	H 	0.639	0.9099	0.7213	0.057
Mof_C 	C 	0.7244	0.955	0.7181	0.023
Mof_H 	H 	0.805	0.946	0.7251	0.021
Mof_C 	C 	0.7086	0.9889	0.7116	-0.133
Mof_H 	H 	0.7773	0.0034	0.7155	0.084
Mof_C 	C 	0.5909	0.0016	0.6992	0.041
Mof_H 	H 	0.579	0.0252	0.6946	0.017
Mof_C 	C 	0.3438	0.03994	0.67	-0.02
Mof_C 	C 	0.3492	0.0625	0.7167	-0.049
Mof_H 	H 	0.3463	0.0547	0.7562	0.047
Mof_C 	C 	0.359	0.0967	0.7062	-0.03
Mof_H 	H 	0.3586	0.1123	0.738	0.039
Mof_C 	C 	0.3692	0.1077	0.6504	-0.042
Mof_H 	H 	0.3772	0.1311	0.6439	0.047
Mof_C 	C 	0.3681	0.086	0.6039	-0.035
Mof_H 	H 	0.3765	0.0939	0.5653	0.039
Mof_C 	C 	0.3541	0.0518	0.6142	-0.044
Mof_H 	H 	0.3517	0.0364	0.5817	0.047
Mof_C 	C 	0.0931	0.87648	0.6442	-0.023
Mof_C 	C 	0.128	0.88565	0.591	-0.071
Mof_H 	H 	0.1649	0.907	0.5891	0.045
Mof_C 	C 	0.1102	0.86454	0.5417	-0.01
Mof_H 	H 	0.1343	0.8715	0.506	-0.03
Mof_C 	C 	0.0566	0.8328	0.5432	-0.066
Mof_H 	H 	0.0451	0.8179	0.5092	0.035
Mof_C 	C 	0.0217	0.82397	0.5955	-0.035
Mof_H 	H 	0.9841	0.8028	0.5974	0.059
Mof_C 	C 	0.0398	0.84533	0.6458	-0.049
Mof_H 	H 	0.0155	0.8385	0.6815	0.049
Mof_C 	C 	0.0542	0.89132	0.765	-0.036
Mof_C 	C 	0.1272	0.8902	0.824	-0.032
Mof_H 	H 	0.2118	0.896	0.8321	0.051
Mof_C 	C 	0.0746	0.8803	0.8723	-0.051
Mof_H 	H 	0.1236	0.8796	0.9132	0.045
Mof_C 	C 	0.9549	0.8719	0.8603	-0.023
Mof_H 	H 	0.9207	0.8651	0.893	0.04
Mof_C 	C 	0.8805	0.8731	0.8013	-0.048
Mof_H 	H 	0.7961	0.8672	0.7939	0.049
Mof_C 	C 	0.9298	0.88293	0.753	-0.032
Mof_H 	H 	0.8795	0.8839	0.7124	0.036
Mof_C 	C 	0.7801	0.73938	0.507	-0.048
Mof_C 	C 	0.6834	0.74549	0.5324	0.011
Mof_C 	C 	0.613	0.77688	0.5178	-0.009
Mof_C 	C 	0.5014	0.78208	0.5346	-0.04
Mof_H 	H 	0.4699	0.7649	0.5558	0.046
Mof_C 	C 	0.4384	0.8111	0.5211	-0.054
Mof_H 	H 	0.3627	0.814	0.5323	0.04
Mof_C 	C 	0.4841	0.83706	0.4907	-0.016
Mof_H 	H 	0.4391	0.8574	0.4816	0.001
Mof_C 	C 	0.5933	0.8334	0.4737	-0.074
Mof_C 	C 	0.6592	0.8022	0.4844	0.042
Mof_C 	C 	0.7636	0.79514	0.4633	-0.086
Mof_H 	H 	0.7958	0.8122	0.4421	0.051
Mof_C 	C 	0.8205	0.76522	0.4719	-0.009
Mof_H 	H 	0.8883	0.7611	0.4546	0.033
Mof_C 	C 	0.6598	0.72539	0.6348	-0.05
Mof_C 	C 	0.6367	0.72109	0.5725	0.003
Mof_C 	C 	0.5612	0.69352	0.5436	-0.002
Mof_C 	C 	0.5325	0.6887	0.4796	-0.056
Mof_H 	H 	0.5612	0.7044	0.4544	0.055
Mof_C 	C 	0.4642	0.66188	0.4534	-0.035
Mof_H 	H 	0.4464	0.6589	0.4102	0.037
Mof_C 	C 	0.42	0.6387	0.4893	-0.035
Mof_H 	H 	0.374	0.6199	0.4701	0.039
Mof_C 	C 	0.4411	0.6423	0.551	-0.053
Mof_C 	C 	0.5148	0.6703	0.5805	0.033
Mof_C 	C 	0.5362	0.67667	0.6441	-0.081
Mof_H 	H 	0.5008	0.6624	0.669	0.059
Mof_C 	C 	0.6073	0.70313	0.6701	-0.017
Mof_H 	H 	0.6219	0.7067	0.713	0.033
Mof_C 	C 	0.6371	0.86176	0.4405	0.146
Mof_C 	C 	0.7569	0.87447	0.4613	-0.253
Mof_H 	H 	0.8096	0.8658	0.4977	0.11
Mof_C 	C 	0.7982	0.89941	0.4293	0.194
Mof_H 	H 	0.8802	0.9073	0.4431	-0.09
Mof_C 	C 	0.722	0.91328	0.3769	-0.35
Mof_C 	C 	0.6014	0.90195	0.3586	0.206
Mof_H 	H 	0.5468	0.9123	0.3246	-0.111
Mof_C 	C 	0.5596	0.87625	0.3884	-0.258
Mof_H 	H 	0.478	0.8682	0.3737	0.078
Mof_C 	C 	0.77	0.93948	0.3407	0.592
Mof_C 	C 	0.3879	0.61805	0.5876	0.137
Mof_C 	C 	0.2609	0.61188	0.5701	-0.2
Mof_H 	H 	0.2107	0.6238	0.5366	0.099
Mof_C 	C 	0.2085	0.58839	0.6015	0.15
Mof_H 	H 	0.1224	0.5845	0.5896	-0.011
Mof_C 	C 	0.2814	0.57034	0.6506	-0.292
Mof_C 	C 	0.4073	0.57749	0.6682	0.206
Mof_H 	H 	0.4578	0.5659	0.702	-0.141
Mof_C 	C 	0.459	0.60096	0.6376	-0.235
Mof_H 	H 	0.5444	0.6056	0.6507	0.114
Mof_C 	C 	0.2283	0.54291	0.6805	0.53
Mof_C 	C 	0.023	0.71307	0.5341	-0.013
Mof_C 	C 	0.1095	0.69969	0.5053	-0.057
Mof_H 	H 	0.0851	0.6858	0.4701	0.055
Mof_C 	C 	0.2334	0.7075	0.5302	-0.024
Mof_H 	H 	0.2947	0.6987	0.512	0.041
Mof_C 	C 	0.2667	0.7279	0.5808	-0.055
Mof_H 	H 	0.3512	0.7325	0.598	0.048
Mof_C 	C 	0.1804	0.74163	0.6066	-0.015
Mof_H 	H 	0.2042	0.7562	0.6408	0.034
Mof_C 	C 	0.0583	0.73419	0.5828	-0.072
Mof_H 	H 	0.9978	0.7439	0.6005	0.068
Mof_C 	C 	0.8366	0.66842	0.5542	-0.009
Mof_C 	C 	0.8679	0.67238	0.6172	-0.057
Mof_H 	H 	0.9035	0.6928	0.6347	0.051
Mof_C 	C 	0.8476	0.64663	0.6548	-0.01
Mof_H 	H 	0.8693	0.6493	0.6981	0.039
Mof_C 	C 	0.7951	0.61678	0.6286	-0.062
Mof_H 	H 	0.7802	0.5991	0.6542	0.083
Mof_C 	C 	0.7646	0.61273	0.5663	-0.01
Mof_H 	H 	0.7293	0.5923	0.5487	0.045
Mof_C 	C 	0.7858	0.63878	0.5289	-0.056
Mof_H 	H 	0.765	0.636	0.4857	0.06
Mof_C 	C 	0.6511	0.79408	0.6769	-0.022
Mof_C 	C 	0.5416	0.78991	0.695	-0.048
Mof_H 	H 	0.5217	0.7687	0.7093	0.042
Mof_C 	C 	0.4612	0.81696	0.6922	-0.029
Mof_H 	H 	0.3869	0.8143	0.7048	0.043
Mof_C 	C 	0.4908	0.8475	0.6711	-0.048
Mof_H 	H 	0.4355	0.8658	0.6679	0.049
Mof_C 	C 	0.6028	0.85162	0.6541	-0.031
Mof_H 	H 	0.6245	0.8729	0.6409	0.034
Mof_C 	C 	0.6805	0.82469	0.6567	-0.044
Mof_H 	H 	0.7552	0.8273	0.6445	0.054
Mof_C 	C 	0.8128	0.74346	0.7518	-0.032
Mof_C 	C 	0.7672	0.75287	0.8018	-0.039
Mof_H 	H 	0.7049	0.7695	0.7972	0.051
Mof_C 	C 	0.8133	0.7379	0.8577	-0.042
Mof_H 	H 	0.7794	0.7437	0.8911	0.062
Mof_C 	C 	0.9069	0.7147	0.8668	-0.037
Mof_H 	H 	0.9388	0.7048	0.9059	0.04
Mof_C 	C 	0.9528	0.7065	0.8167	-0.036
Mof_H 	H 	0.0174	0.6905	0.8216	0.039
Mof_C 	C 	0.9079	0.7205	0.7614	-0.037
Mof_H 	H 	0.9423	0.7145	0.7282	0.044
Mof_C 	C 	0.283	0.24909	0.9715	-0.045
Mof_C 	C 	0.4083	0.25248	0.9883	0.009
Mof_C 	C 	0.4848	0.22619	0.0225	0.001
Mof_C 	C 	0.6121	0.22737	0.0339	-0.055
Mof_H 	H 	0.6501	0.2458	0.019	0.051
Mof_C 	C 	0.6832	0.2027	0.0658	-0.031
Mof_H 	H 	0.7699	0.2034	0.0717	0.039
Mof_C 	C 	0.6272	0.1758	0.0904	-0.038
Mof_H 	H 	0.6774	0.1589	0.1137	0.041
Mof_C 	C 	0.504	0.17386	0.0813	-0.046
Mof_C 	C 	0.4268	0.19803	0.043	0.03
Mof_C 	C 	0.2978	0.19546	0.0268	-0.079
Mof_H 	H 	0.2586	0.1768	0.0403	0.058
Mof_C 	C 	0.2281	0.22007	0.9912	-0.018
Mof_H 	H 	0.1413	0.2177	0.9795	0.032
Mof_C 	C 	0.499	0.3094	0.0153	-0.049
Mof_C 	C 	0.4717	0.28325	0.9735	0.017
Mof_C 	C 	0.5032	0.28533	0.9162	-0.011
Mof_C 	C 	0.4856	0.25798	0.8752	-0.042
Mof_H 	H 	0.4487	0.2379	0.8851	0.048
Mof_C 	C 	0.5211	0.26007	0.8215	-0.052
Mof_H 	H 	0.5147	0.241	0.7955	0.045
Mof_C 	C 	0.5674	0.29081	0.8047	-0.011
Mof_H 	H 	0.5882	0.2923	0.7663	0.026
Mof_C 	C 	0.583	0.31794	0.8416	-0.087
Mof_C 	C 	0.5543	0.31615	0.8989	0.05
Mof_C 	C 	0.5822	0.34194	0.9444	-0.091
Mof_H 	H 	0.6192	0.3621	0.935	0.063
Mof_C 	C 	0.5582	0.33885	0.9996	-0.006
Mof_H 	H 	0.5808	0.3564	0.0288	0.029
Mof_C 	C 	0.4507	0.14593	0.1127	0.117
Mof_C 	C 	0.4773	0.11264	0.1039	-0.188
Mof_H 	H 	0.5244	0.1067	0.0756	0.089
Mof_C 	C 	0.4329	0.08758	0.1377	0.131
Mof_H 	H 	0.4502	0.0646	0.1321	-0.044
Mof_C 	C 	0.366	0.09617	0.1782	-0.221
Mof_C 	C 	0.3413	0.13016	0.1866	0.118
Mof_H 	H 	0.2965	0.1365	0.2156	-0.003
Mof_C 	C 	0.3816	0.1537	0.1533	-0.189
Mof_H 	H 	0.3614	0.1765	0.1581	0.096
Mof_C 	C 	0.3205	0.06956	0.2158	0.478
Mof_C 	C 	0.6285	0.35033	0.8203	0.194
Mof_C 	C 	0.7306	0.35104	0.7959	-0.295
Mof_H 	H 	0.7739	0.3309	0.7927	0.115
Mof_C 	C 	0.7698	0.38146	0.7762	0.249
Mof_H 	H 	0.8396	0.3817	0.7593	-0.136
Mof_C 	C 	0.7086	0.4112	0.7808	-0.421
Mof_C 	C 	0.6034	0.40961	0.8044	0.293
Mof_H 	H 	0.5589	0.4295	0.8075	-0.176
Mof_C 	C 	0.565	0.37994	0.8229	-0.318
Mof_H 	H 	0.4929	0.3795	0.8379	0.129
Mof_C 	C 	0.7514	0.44393	0.7617	0.643
Mof_C 	C 	0.1251	0.2623	0.8527	-0.025
Mof_C 	C 	0.0987	0.23	0.8416	-0.049
Mof_H 	H 	0.1193	0.2145	0.8746	0.043
Mof_C 	C 	0.0415	0.2179	0.7828	-0.029
Mof_H 	H 	0.0232	0.1947	0.7774	0.038
Mof_C 	C 	0.013	0.2381	0.7349	-0.047
Mof_H 	H 	0.9777	0.2299	0.6947	0.041
Mof_C 	C 	0.037	0.273	0.7467	-0.03
Mof_H 	H 	0.0158	0.2885	0.7137	0.017
Mof_C 	C 	0.0905	0.2849	0.8049	-0.051
Mof_H 	H 	0.1033	0.3083	0.8119	0.042
Mof_C 	C 	0.0515	0.28191	0.9602	-0.017
Mof_C 	C 	0.9346	0.2754	0.9268	-0.053
Mof_H 	H 	0.9205	0.269	0.885	0.046
Mof_C 	C 	0.8331	0.2783	0.9551	-0.033
Mof_H 	H 	0.7519	0.2732	0.9326	0.044
Mof_C 	C 	0.8555	0.2887	0.015	-0.044
Mof_H 	H 	0.7888	0.2915	0.0337	0.045
Mof_C 	C 	0.9718	0.295	0.0478	-0.03
Mof_H 	H 	0.9858	0.3015	0.0896	0.041
Mof_C 	C 	0.0724	0.2921	0.0207	-0.051
Mof_H 	H 	0.1533	0.2971	0.0437	0.066
Mof_C 	C 	0.4377	0.3517	0.1051	-0.026
Mof_C 	C 	0.3397	0.36659	0.065	-0.046
Mof_H 	H 	0.292	0.354	0.0317	0.059
Mof_C 	C 	0.3102	0.3994	0.0727	-0.033
Mof_H 	H 	0.2405	0.409	0.0455	0.041
Mof_C 	C 	0.3807	0.4187	0.1198	-0.04
Mof_H 	H 	0.36	0.4415	0.1248	0.042
Mof_C 	C 	0.4825	0.404	0.1596	-0.042
Mof_H 	H 	0.5336	0.4168	0.1914	0.059
Mof_C 	C 	0.5082	0.37047	0.1522	-0.041
Mof_H 	H 	0.5757	0.3602	0.1801	0.049
Mof_C 	C 	0.6057	0.29491	0.143	-0.031
Mof_C 	C 	0.7174	0.3105	0.1493	-0.042
Mof_H 	H 	0.7236	0.3294	0.1245	0.04
Mof_C 	C 	0.8222	0.2989	0.1919	-0.037
Mof_H 	H 	0.8985	0.3104	0.1978	0.045
Mof_C 	C 	0.8112	0.2703	0.225	-0.039
Mof_H 	H 	0.882	0.2619	0.2533	0.047
Mof_C 	C 	0.7077	0.2543	0.2187	-0.034
Mof_H 	H 	0.7045	0.2346	0.2422	0.039
Mof_C 	C 	0.6023	0.2658	0.1783	-0.04
Mof_H 	H 	0.5271	0.254	0.1741	0.052
_end
