data_functionalizedCrystal
_audit_creation_method	'EQeq! by Chris Wilmer'
_symmetry_space_group_name_H-M	'P1'
_symmetry_Int_Tables_number	1
_symmetry_cell_setting	triclinic
loop_
_symmetry_equiv_pos_as_xyz
  x,y,z
_cell_length_a	10.741
_cell_length_b	11.284
_cell_length_c	26.152
_cell_angle_alpha	84.97
_cell_angle_beta	87.963
_cell_angle_gamma	62.568
loop_
_atom_site_label
_atom_site_type_symbol
_atom_site_fract_x
_atom_site_fract_y
_atom_site_fract_z
_atom_site_charge
Mof_Ho	Ho	0.38087	0.03533	0.56029	2.039
Mof_Ho	Ho	0.34418	0.84616	0.7418	1.82
Mof_Ho	Ho	0.4114	0.61727	0.89967	1.933
Mof_Ho	Ho	0.61913	0.96467	0.43971	2.04
Mof_Ho	Ho	0.65582	0.15384	0.2582	1.821
Mof_Ho	Ho	0.5886	0.38273	0.10033	1.933
Mof_H 	H 	0.4534	0.4081	0.5757	0.039
Mof_H 	H 	0.5443	0.3875	0.4261	0.041
Mof_H 	H 	0.3389	0.3555	0.6465	0.029
Mof_H 	H 	0.3649	0.5198	0.6871	0.051
Mof_H 	H 	0.4389	0.1183	0.777	0.015
Mof_H 	H 	0.4544	0.2863	0.8187	0.047
Mof_H 	H 	0.0361	0.0061	0.5489	0.005
Mof_H 	H 	0.824	0.0181	0.5276	0.022
Mof_H 	H 	0.8531	0.7687	0.6513	0.041
Mof_H 	H 	0.0725	0.7501	0.6701	0.031
Mof_H 	H 	0.7109	0.8242	0.7583	0.022
Mof_H 	H 	0.9224	0.8336	0.7504	0.039
Mof_H 	H 	0.0183	0.6865	0.8958	0.039
Mof_H 	H 	0.8161	0.6631	0.9024	0.043
Mof_H 	H 	0.3622	0.0647	0.9271	0.044
Mof_H 	H 	0.5949	0.7805	0.0348	0.06
Mof_H 	H 	0.1304	0.374	0.9353	0.048
Mof_H 	H 	0.0518	0.6578	0.0313	0.05
Mof_H 	H 	0.5466	0.5919	0.4243	0.039
Mof_H 	H 	0.4557	0.6125	0.5739	0.041
Mof_H 	H 	0.6611	0.6445	0.3535	0.029
Mof_H 	H 	0.6351	0.4802	0.3129	0.051
Mof_H 	H 	0.5611	0.8817	0.223	0.015
Mof_H 	H 	0.5456	0.7137	0.1813	0.047
Mof_H 	H 	0.9639	0.9939	0.4511	0.005
Mof_H 	H 	0.176	0.9819	0.4724	0.022
Mof_H 	H 	0.1469	0.2313	0.3487	0.041
Mof_H 	H 	0.9275	0.2499	0.3299	0.031
Mof_H 	H 	0.2891	0.1758	0.2417	0.022
Mof_H 	H 	0.0776	0.1664	0.2496	0.039
Mof_H 	H 	0.9817	0.3135	0.1042	0.039
Mof_H 	H 	0.1839	0.3369	0.0976	0.043
Mof_H 	H 	0.6378	0.9353	0.0729	0.044
Mof_H 	H 	0.4051	0.2195	0.9652	0.06
Mof_H 	H 	0.8696	0.626	0.0647	0.048
Mof_H 	H 	0.9482	0.3422	0.9687	0.05
Mof_C 	C 	0.4887	0.2471	0.50066	0.473
Mof_C 	C 	0.4948	0.379	0.50065	-0.118
Mof_C 	C 	0.4714	0.4457	0.54499	-0.011
Mof_C 	C 	0.5256	0.4325	0.45576	-0.011
Mof_C 	C 	0.6751	0.9153	0.57548	0.398
Mof_C 	C 	0.3699	0.116	0.68064	0.499
Mof_C 	C 	0.3822	0.225	0.7076	-0.15
Mof_C 	C 	0.3633	0.341	0.68111	0.02
Mof_C 	C 	0.3801	0.4393	0.70502	-0.035
Mof_C 	C 	0.4218	0.1994	0.75923	0.012
Mof_C 	C 	0.4352	0.2986	0.78369	-0.027
Mof_C 	C 	0.2113	0.8775	0.6264	0.519
Mof_C 	C 	0.0752	0.8785	0.61147	-0.159
Mof_C 	C 	0.0002	0.9574	0.56928	0.025
Mof_C 	C 	0.8729	0.9658	0.55665	-0.04
Mof_C 	C 	0.8186	0.895	0.5879	-0.101
Mof_C 	C 	0.8907	0.8153	0.63049	-0.034
Mof_C 	C 	0.0214	0.8055	0.64197	0.012
Mof_C 	C 	0.4202	0.4124	0.75659	-0.099
Mof_C 	C 	0.4401	0.5187	0.78275	0.469
Mof_C 	C 	0.1296	0.7662	0.81665	0.474
Mof_C 	C 	0.993	0.759	0.82226	-0.123
Mof_C 	C 	0.6127	0.7235	0.83556	0.482
Mof_C 	C 	0.7413	0.7405	0.83132	-0.14
Mof_C 	C 	0.7735	0.7935	0.78582	0.007
Mof_C 	C 	0.9002	0.8006	0.78132	-0.016
Mof_C 	C 	0.9587	0.7113	0.86754	-0.003
Mof_C 	C 	0.8356	0.6994	0.87172	0.001
Mof_C 	C 	0.4376	0.808	0.95274	0.337
Mof_C 	C 	0.4698	0.9078	0.97729	-0.061
Mof_C 	C 	0.4171	0.0382	0.95669	-0.019
Mof_C 	C 	0.5558	0.8689	0.02084	-0.032
Mof_C 	C 	0.2303	0.5395	0.95666	0.308
Mof_C 	C 	0.116	0.5135	0.97993	-0.062
Mof_C 	C 	0.0785	0.4244	0.96184	-0.023
Mof_C 	C 	0.0318	0.5936	0.01894	-0.03
Mof_C 	C 	0.5113	0.7529	0.49934	0.473
Mof_C 	C 	0.5052	0.621	0.49935	-0.118
Mof_C 	C 	0.5286	0.5543	0.45501	-0.011
Mof_C 	C 	0.4744	0.5675	0.54424	-0.011
Mof_C 	C 	0.3249	0.0847	0.42452	0.398
Mof_C 	C 	0.6301	0.884	0.31936	0.499
Mof_C 	C 	0.6178	0.775	0.2924	-0.15
Mof_C 	C 	0.6367	0.659	0.31889	0.02
Mof_C 	C 	0.6199	0.5607	0.29498	-0.035
Mof_C 	C 	0.5782	0.8006	0.24077	0.012
Mof_C 	C 	0.5648	0.7014	0.21631	-0.027
Mof_C 	C 	0.7887	0.1225	0.3736	0.519
Mof_C 	C 	0.9248	0.1215	0.38853	-0.159
Mof_C 	C 	0.9998	0.0426	0.43072	0.025
Mof_C 	C 	0.1271	0.0342	0.44335	-0.04
Mof_C 	C 	0.1814	0.105	0.4121	-0.101
Mof_C 	C 	0.1093	0.1847	0.36951	-0.034
Mof_C 	C 	0.9786	0.1945	0.35803	0.012
Mof_C 	C 	0.5798	0.5876	0.24341	-0.099
Mof_C 	C 	0.5599	0.4813	0.21725	0.469
Mof_C 	C 	0.8704	0.2338	0.18335	0.474
Mof_C 	C 	0.007	0.241	0.17774	-0.123
Mof_C 	C 	0.3873	0.2765	0.16444	0.482
Mof_C 	C 	0.2587	0.2595	0.16868	-0.14
Mof_C 	C 	0.2265	0.2065	0.21418	0.007
Mof_C 	C 	0.0998	0.1994	0.21868	-0.016
Mof_C 	C 	0.0413	0.2887	0.13246	-0.003
Mof_C 	C 	0.1644	0.3006	0.12828	0.001
Mof_C 	C 	0.5624	0.192	0.04726	0.337
Mof_C 	C 	0.5302	0.0922	0.02271	-0.061
Mof_C 	C 	0.5829	0.9618	0.04331	-0.019
Mof_C 	C 	0.4442	0.1311	0.97916	-0.032
Mof_C 	C 	0.7697	0.4605	0.04334	0.308
Mof_C 	C 	0.884	0.4865	0.02007	-0.062
Mof_C 	C 	0.9215	0.5756	0.03816	-0.023
Mof_C 	C 	0.9682	0.4064	0.98106	-0.03
Mof_O 	O 	0.4264	0.2184	0.53809	-0.513
Mof_O 	O 	0.5435	0.1795	0.46429	-0.524
Mof_O 	O 	0.6305	0.9511	0.52948	-0.62
Mof_O 	O 	0.5938	0.9116	0.61058	-0.453
Mof_O 	O 	0.2452	0.9535	0.60001	-0.593
Mof_O 	O 	0.3347	0.1442	0.63319	-0.543
Mof_O 	O 	0.1591	0.8031	0.77403	-0.519
Mof_O 	O 	0.3942	0.0091	0.70516	-0.575
Mof_O 	O 	0.273	0.8057	0.66583	-0.533
Mof_O 	O 	0.4369	0.6173	0.75471	-0.512
Mof_O 	O 	0.5122	0.7941	0.80409	-0.542
Mof_O 	O 	0.6053	0.6447	0.87004	-0.515
Mof_O 	O 	0.2072	0.734	0.85617	-0.543
Mof_O 	O 	0.3556	0.846	0.91573	-0.429
Mof_O 	O 	0.4945	0.6902	0.97164	-0.427
Mof_O 	O 	0.25615	0.6282	0.97186	-0.419
Mof_O 	O 	0.3024	0.4682	0.92137	-0.404
Mof_O 	O 	0.4633	0.4977	0.83008	-0.537
Mof_O 	O 	0.5736	0.7816	0.46191	-0.513
Mof_O 	O 	0.4565	0.8205	0.53571	-0.524
Mof_O 	O 	0.3695	0.0489	0.47052	-0.62
Mof_O 	O 	0.4062	0.0884	0.38942	-0.453
Mof_O 	O 	0.7548	0.0465	0.39999	-0.593
Mof_O 	O 	0.6653	0.8558	0.36681	-0.543
Mof_O 	O 	0.8409	0.1969	0.22597	-0.519
Mof_O 	O 	0.6058	0.9909	0.29484	-0.575
Mof_O 	O 	0.727	0.1943	0.33417	-0.533
Mof_O 	O 	0.5631	0.3827	0.24529	-0.512
Mof_O 	O 	0.4878	0.2059	0.19591	-0.542
Mof_O 	O 	0.3947	0.3553	0.12996	-0.515
Mof_O 	O 	0.7928	0.266	0.14383	-0.543
Mof_O 	O 	0.6444	0.154	0.08427	-0.429
Mof_O 	O 	0.5055	0.3098	0.02836	-0.427
Mof_O 	O 	0.74385	0.3718	0.02814	-0.419
Mof_O 	O 	0.6976	0.5318	0.07863	-0.404
Mof_O 	O 	0.5367	0.5023	0.16992	-0.537
_end
