data_functionalizedCrystal
_audit_creation_method	'EQeq! by Chris Wilmer'
_symmetry_space_group_name_H-M	'P1'
_symmetry_Int_Tables_number	1
_symmetry_cell_setting	triclinic
loop_
_symmetry_equiv_pos_as_xyz
  x,y,z
_cell_length_a	19.113
_cell_length_b	18.617
_cell_length_c	15.959
_cell_angle_alpha	90
_cell_angle_beta	90
_cell_angle_gamma	90
loop_
_atom_site_label
_atom_site_type_symbol
_atom_site_fract_x
_atom_site_fract_y
_atom_site_fract_z
_atom_site_charge
Mof_Mo	Mo	0.42039	0.90974	0.14083	1.654
Mof_Mo	Mo	0.46992	0.83938	0.32244	1.087
Mof_Mo	Mo	0.4913	0.83691	0.94374	1.567
Mof_Cu	Cu	0.55773	0.0213	0.21896	0.9
Mof_O 	O 	0.4888	0.9708	0.1494	-0.683
Mof_O 	O 	0.409	0.898	0.2597	-0.647
Mof_O 	O 	0.4503	0.88	0.863	-0.595
Mof_O 	O 	0.4981	0.8178	0.1796	-0.462
Mof_O 	O 	0.4402	0.8768	0.0328	-0.709
Mof_O 	O 	0.8527	0.6843	0.3563	-0.417
Mof_N 	N 	0.6404	0.9857	0.1594	-0.245
Mof_N 	N 	0.4892	0.0545	0.3005	-0.26
Mof_N 	N 	0.6279	0.0462	0.3107	-0.159
Mof_C 	C 	0.647	0.9751	0.0773	0.096
Mof_H 	H 	0.608	0.9832	0.0416	-0.056
Mof_C 	C 	0.6956	0.9776	0.2104	0.105
Mof_C 	C 	0.7612	0.957	0.1796	-0.163
Mof_H 	H 	0.8005	0.9523	0.2157	0.069
Mof_C 	C 	0.6832	0.9896	0.302	-0.177
Mof_H 	H 	0.7269	0.0055	0.3296	0.057
Mof_H 	H 	0.6676	0.9444	0.3289	0.046
Mof_C 	C 	0.6602	0.1182	0.2989	-0.027
Mof_H 	H 	0.6984	0.1234	0.3404	0.025
Mof_H 	H 	0.6817	0.1196	0.2426	0.032
Mof_C 	C 	0.6132	0.1811	0.3071	-0.162
Mof_H 	H 	0.5943	0.1838	0.3648	0.06
Mof_H 	H 	0.5734	0.1766	0.2677	0.08
Mof_C 	C 	0.4226	0.0718	0.2844	0.108
Mof_H 	H 	0.4066	0.0705	0.228	-0.065
Mof_C 	C 	0.3771	0.0912	0.3458	-0.169
Mof_H 	H 	0.3293	0.1005	0.3333	0.075
Mof_C 	C 	0.7665	0.9438	0.0946	0.075
Mof_H 	H 	0.8099	0.9285	0.0718	-0.019
Mof_C 	C 	0.71	0.9525	0.043	-0.165
Mof_H 	H 	0.7138	0.9432	0.9846	0.039
Mof_C 	C 	0.5143	0.0602	0.3791	0.093
Mof_C 	C 	0.5896	0.0423	0.3913	-0.175
Mof_H 	H 	0.6107	0.0763	0.4317	0.065
Mof_H 	H 	0.5938	0.9933	0.4148	0.047
Mof_C 	C 	0.4714	0.0813	0.4431	-0.158
Mof_H 	H 	0.4895	0.0851	0.4983	0.029
Mof_C 	C 	0.4023	0.0971	0.4283	0.054
Mof_H 	H 	0.3723	0.1116	0.4726	-0.009
Mof_C 	C 	0.7435	0.7836	0.1849	-0.016
Mof_C 	C 	0.6587	0.797	0.174	0.025
Mof_Mo	Mo	0.07961	0.09026	0.64083	1.648
Mof_Mo	Mo	0.03008	0.16062	0.82244	1.084
Mof_Mo	Mo	0.0087	0.16309	0.44374	1.567
Mof_Cu	Cu	0.94227	0.9787	0.71896	0.897
Mof_O 	O 	0.0112	0.0292	0.6494	-0.685
Mof_O 	O 	0.091	0.102	0.7597	-0.647
Mof_O 	O 	0.0497	0.12	0.363	-0.596
Mof_O 	O 	0.0019	0.1822	0.6796	-0.464
Mof_O 	O 	0.0598	0.1232	0.5328	-0.712
Mof_O 	O 	0.6473	0.3157	0.8563	-0.416
Mof_N 	N 	0.8596	0.0143	0.6594	-0.244
Mof_N 	N 	0.0108	0.9455	0.8005	-0.251
Mof_N 	N 	0.8721	0.9538	0.8107	-0.163
Mof_C 	C 	0.853	0.0249	0.5773	0.104
Mof_H 	H 	0.892	0.0168	0.5416	-0.058
Mof_C 	C 	0.8044	0.0224	0.7104	0.103
Mof_C 	C 	0.7388	0.043	0.6796	-0.164
Mof_H 	H 	0.6995	0.0477	0.7157	0.071
Mof_C 	C 	0.8168	0.0104	0.802	-0.152
Mof_H 	H 	0.7731	0.9945	0.8296	0.044
Mof_H 	H 	0.8324	0.0556	0.8289	0.041
Mof_C 	C 	0.8398	0.8818	0.7989	-0.026
Mof_H 	H 	0.8016	0.8766	0.8404	0.024
Mof_H 	H 	0.8183	0.8804	0.7426	0.031
Mof_C 	C 	0.8868	0.8189	0.8071	-0.162
Mof_H 	H 	0.9057	0.8162	0.8648	0.059
Mof_H 	H 	0.9266	0.8234	0.7677	0.079
Mof_C 	C 	0.0774	0.9282	0.7844	0.105
Mof_H 	H 	0.0934	0.9295	0.728	-0.061
Mof_C 	C 	0.1229	0.9088	0.8458	-0.161
Mof_H 	H 	0.1707	0.8995	0.8333	0.073
Mof_C 	C 	0.7335	0.0562	0.5946	0.083
Mof_H 	H 	0.6901	0.0715	0.5718	-0.022
Mof_C 	C 	0.79	0.0475	0.543	-0.181
Mof_H 	H 	0.7862	0.0568	0.4846	0.05
Mof_C 	C 	0.9857	0.9398	0.8791	0.078
Mof_C 	C 	0.9104	0.9577	0.8913	-0.187
Mof_H 	H 	0.8893	0.9237	0.9317	0.065
Mof_H 	H 	0.9062	0.0067	0.9148	0.058
Mof_C 	C 	0.0286	0.9187	0.9431	-0.141
Mof_H 	H 	0.0105	0.9149	0.9983	0.024
Mof_C 	C 	0.0977	0.9029	0.9283	0.044
Mof_H 	H 	0.1277	0.8884	0.9726	-0.006
Mof_C 	C 	0.7565	0.2164	0.6849	-0.016
Mof_C 	C 	0.8413	0.203	0.674	0.026
Mof_Mo	Mo	0.57961	0.40974	0.85917	1.65
Mof_Mo	Mo	0.53008	0.33938	0.67756	1.086
Mof_Mo	Mo	0.5087	0.33691	0.05626	1.572
Mof_Cu	Cu	0.44227	0.5213	0.78104	0.901
Mof_O 	O 	0.5112	0.4708	0.8506	-0.684
Mof_O 	O 	0.591	0.398	0.7403	-0.647
Mof_O 	O 	0.5497	0.38	0.137	-0.595
Mof_O 	O 	0.5019	0.3178	0.8204	-0.462
Mof_O 	O 	0.5598	0.3768	0.9672	-0.711
Mof_O 	O 	0.1473	0.1843	0.6437	-0.417
Mof_N 	N 	0.3596	0.4857	0.8406	-0.247
Mof_N 	N 	0.5108	0.5545	0.6995	-0.259
Mof_N 	N 	0.3721	0.5462	0.6893	-0.159
Mof_C 	C 	0.353	0.4751	0.9227	0.102
Mof_H 	H 	0.392	0.4832	0.9584	-0.06
Mof_C 	C 	0.3044	0.4776	0.7896	0.107
Mof_C 	C 	0.2388	0.457	0.8204	-0.167
Mof_H 	H 	0.1995	0.4523	0.7843	0.071
Mof_C 	C 	0.3168	0.4896	0.698	-0.176
Mof_H 	H 	0.2731	0.5055	0.6704	0.056
Mof_H 	H 	0.3324	0.4444	0.6711	0.046
Mof_C 	C 	0.3398	0.6182	0.7011	-0.027
Mof_H 	H 	0.3016	0.6234	0.6596	0.025
Mof_H 	H 	0.3183	0.6196	0.7574	0.033
Mof_C 	C 	0.3868	0.6811	0.6929	-0.162
Mof_H 	H 	0.4057	0.6838	0.6352	0.06
Mof_H 	H 	0.4266	0.6766	0.7323	0.08
Mof_C 	C 	0.5774	0.5718	0.7156	0.109
Mof_H 	H 	0.5934	0.5705	0.772	-0.064
Mof_C 	C 	0.6229	0.5912	0.6542	-0.169
Mof_H 	H 	0.6707	0.6005	0.6667	0.076
Mof_C 	C 	0.2335	0.4438	0.9054	0.083
Mof_H 	H 	0.1901	0.4285	0.9282	-0.022
Mof_C 	C 	0.29	0.4525	0.957	-0.179
Mof_H 	H 	0.2862	0.4432	0.0154	0.048
Mof_C 	C 	0.4857	0.5602	0.6209	0.094
Mof_C 	C 	0.4104	0.5423	0.6087	-0.176
Mof_H 	H 	0.3893	0.5763	0.5683	0.065
Mof_H 	H 	0.4062	0.4933	0.5852	0.048
Mof_C 	C 	0.5286	0.5813	0.5569	-0.158
Mof_H 	H 	0.5105	0.5851	0.5017	0.028
Mof_C 	C 	0.5977	0.5971	0.5717	0.054
Mof_H 	H 	0.6277	0.6116	0.5274	-0.009
Mof_C 	C 	0.2565	0.2836	0.8151	-0.016
Mof_C 	C 	0.3413	0.297	0.826	0.025
Mof_Mo	Mo	0.92039	0.59026	0.35917	1.651
Mof_Mo	Mo	0.96992	0.66062	0.17756	1.085
Mof_Mo	Mo	0.9913	0.66309	0.55626	1.57
Mof_Cu	Cu	0.05773	0.4787	0.28104	0.901
Mof_O 	O 	0.9888	0.5292	0.3506	-0.683
Mof_O 	O 	0.909	0.602	0.2403	-0.647
Mof_O 	O 	0.9503	0.62	0.637	-0.595
Mof_O 	O 	0.9981	0.6822	0.3204	-0.464
Mof_O 	O 	0.9402	0.6232	0.4672	-0.711
Mof_O 	O 	0.3527	0.8157	0.1437	-0.416
Mof_N 	N 	0.1404	0.5143	0.3406	-0.248
Mof_N 	N 	0.9892	0.4455	0.1995	-0.256
Mof_N 	N 	0.1279	0.4538	0.1893	-0.159
Mof_C 	C 	0.147	0.5249	0.4227	0.104
Mof_H 	H 	0.108	0.5168	0.4584	-0.06
Mof_C 	C 	0.1956	0.5224	0.2896	0.108
Mof_C 	C 	0.2612	0.543	0.3204	-0.169
Mof_H 	H 	0.3005	0.5477	0.2843	0.071
Mof_C 	C 	0.1832	0.5104	0.198	-0.177
Mof_H 	H 	0.2269	0.4945	0.1704	0.056
Mof_H 	H 	0.1676	0.5556	0.1711	0.046
Mof_C 	C 	0.1602	0.3818	0.2011	-0.027
Mof_H 	H 	0.1984	0.3766	0.1596	0.025
Mof_H 	H 	0.1817	0.3804	0.2574	0.033
Mof_C 	C 	0.1132	0.3189	0.1929	-0.161
Mof_H 	H 	0.0943	0.3162	0.1352	0.059
Mof_H 	H 	0.0734	0.3234	0.2323	0.079
Mof_C 	C 	0.9226	0.4282	0.2156	0.108
Mof_H 	H 	0.9066	0.4295	0.272	-0.064
Mof_C 	C 	0.8771	0.4088	0.1542	-0.166
Mof_H 	H 	0.8293	0.3995	0.1667	0.075
Mof_C 	C 	0.2665	0.5562	0.4054	0.086
Mof_H 	H 	0.3099	0.5715	0.4282	-0.023
Mof_C 	C 	0.21	0.5475	0.457	-0.184
Mof_H 	H 	0.2138	0.5568	0.5154	0.05
Mof_C 	C 	0.0143	0.4398	0.1209	0.088
Mof_C 	C 	0.0896	0.4577	0.1087	-0.173
Mof_H 	H 	0.1107	0.4237	0.0683	0.063
Mof_H 	H 	0.0938	0.5067	0.0852	0.046
Mof_C 	C 	0.9714	0.4187	0.0569	-0.151
Mof_H 	H 	0.9895	0.4149	0.0017	0.027
Mof_C 	C 	0.9023	0.4029	0.0717	0.051
Mof_H 	H 	0.8723	0.3884	0.0274	-0.007
Mof_C 	C 	0.2435	0.7164	0.3151	-0.016
Mof_C 	C 	0.1587	0.703	0.326	0.025
Mof_Mo	Mo	0.57961	0.09026	0.85917	1.653
Mof_Mo	Mo	0.53008	0.16062	0.67756	1.086
Mof_Mo	Mo	0.5087	0.16309	0.05626	1.567
Mof_Cu	Cu	0.44227	0.9787	0.78104	0.9
Mof_O 	O 	0.5112	0.0292	0.8506	-0.683
Mof_O 	O 	0.591	0.102	0.7403	-0.647
Mof_O 	O 	0.5497	0.12	0.137	-0.595
Mof_O 	O 	0.5019	0.1822	0.8204	-0.462
Mof_O 	O 	0.5598	0.1232	0.9672	-0.709
Mof_O 	O 	0.1473	0.3157	0.6437	-0.417
Mof_N 	N 	0.3596	0.0143	0.8406	-0.245
Mof_N 	N 	0.5108	0.9455	0.6995	-0.26
Mof_N 	N 	0.3721	0.9538	0.6893	-0.159
Mof_C 	C 	0.353	0.0249	0.9227	0.096
Mof_H 	H 	0.392	0.0168	0.9584	-0.056
Mof_C 	C 	0.3044	0.0224	0.7896	0.105
Mof_C 	C 	0.2388	0.043	0.8204	-0.163
Mof_H 	H 	0.1995	0.0477	0.7843	0.069
Mof_C 	C 	0.3168	0.0104	0.698	-0.177
Mof_H 	H 	0.2731	0.9945	0.6704	0.057
Mof_H 	H 	0.3324	0.0556	0.6711	0.046
Mof_C 	C 	0.3398	0.8818	0.7011	-0.027
Mof_H 	H 	0.3016	0.8766	0.6596	0.025
Mof_H 	H 	0.3183	0.8804	0.7574	0.032
Mof_C 	C 	0.3868	0.8189	0.6929	-0.162
Mof_H 	H 	0.4057	0.8162	0.6352	0.06
Mof_H 	H 	0.4266	0.8234	0.7323	0.08
Mof_C 	C 	0.5774	0.9282	0.7156	0.108
Mof_H 	H 	0.5934	0.9295	0.772	-0.065
Mof_C 	C 	0.6229	0.9088	0.6542	-0.169
Mof_H 	H 	0.6707	0.8995	0.6667	0.075
Mof_C 	C 	0.2335	0.0562	0.9054	0.075
Mof_H 	H 	0.1901	0.0715	0.9282	-0.019
Mof_C 	C 	0.29	0.0475	0.957	-0.165
Mof_H 	H 	0.2862	0.0568	0.0154	0.039
Mof_C 	C 	0.4857	0.9398	0.6209	0.093
Mof_C 	C 	0.4104	0.9577	0.6087	-0.175
Mof_H 	H 	0.3893	0.9237	0.5683	0.065
Mof_H 	H 	0.4062	0.0067	0.5852	0.047
Mof_C 	C 	0.5286	0.9187	0.5569	-0.158
Mof_H 	H 	0.5105	0.9149	0.5017	0.029
Mof_C 	C 	0.5977	0.9029	0.5717	0.054
Mof_H 	H 	0.6277	0.8884	0.5274	-0.009
Mof_C 	C 	0.2565	0.2164	0.8151	-0.016
Mof_C 	C 	0.3413	0.203	0.826	0.025
Mof_Mo	Mo	0.92039	0.90974	0.35917	1.648
Mof_Mo	Mo	0.96992	0.83938	0.17756	1.084
Mof_Mo	Mo	0.9913	0.83691	0.55626	1.567
Mof_Cu	Cu	0.05773	0.0213	0.28104	0.897
Mof_O 	O 	0.9888	0.9708	0.3506	-0.685
Mof_O 	O 	0.909	0.898	0.2403	-0.647
Mof_O 	O 	0.9503	0.88	0.637	-0.596
Mof_O 	O 	0.9981	0.8178	0.3204	-0.464
Mof_O 	O 	0.9402	0.8768	0.4672	-0.712
Mof_O 	O 	0.3527	0.6843	0.1437	-0.416
Mof_N 	N 	0.1404	0.9857	0.3406	-0.244
Mof_N 	N 	0.9892	0.0545	0.1995	-0.251
Mof_N 	N 	0.1279	0.0462	0.1893	-0.163
Mof_C 	C 	0.147	0.9751	0.4227	0.104
Mof_H 	H 	0.108	0.9832	0.4584	-0.058
Mof_C 	C 	0.1956	0.9776	0.2896	0.103
Mof_C 	C 	0.2612	0.957	0.3204	-0.164
Mof_H 	H 	0.3005	0.9523	0.2843	0.071
Mof_C 	C 	0.1832	0.9896	0.198	-0.152
Mof_H 	H 	0.2269	0.0055	0.1704	0.044
Mof_H 	H 	0.1676	0.9444	0.1711	0.041
Mof_C 	C 	0.1602	0.1182	0.2011	-0.026
Mof_H 	H 	0.1984	0.1234	0.1596	0.024
Mof_H 	H 	0.1817	0.1196	0.2574	0.031
Mof_C 	C 	0.1132	0.1811	0.1929	-0.162
Mof_H 	H 	0.0943	0.1838	0.1352	0.059
Mof_H 	H 	0.0734	0.1766	0.2323	0.079
Mof_C 	C 	0.9226	0.0718	0.2156	0.105
Mof_H 	H 	0.9066	0.0705	0.272	-0.061
Mof_C 	C 	0.8771	0.0912	0.1542	-0.161
Mof_H 	H 	0.8293	0.1005	0.1667	0.073
Mof_C 	C 	0.2665	0.9438	0.4054	0.083
Mof_H 	H 	0.3099	0.9285	0.4282	-0.022
Mof_C 	C 	0.21	0.9525	0.457	-0.181
Mof_H 	H 	0.2138	0.9432	0.5154	0.05
Mof_C 	C 	0.0143	0.0602	0.1209	0.078
Mof_C 	C 	0.0896	0.0423	0.1087	-0.187
Mof_H 	H 	0.1107	0.0763	0.0683	0.065
Mof_H 	H 	0.0938	0.9933	0.0852	0.058
Mof_C 	C 	0.9714	0.0813	0.0569	-0.141
Mof_H 	H 	0.9895	0.0851	0.0017	0.024
Mof_C 	C 	0.9023	0.0971	0.0717	0.044
Mof_H 	H 	0.8723	0.1116	0.0274	-0.006
Mof_C 	C 	0.2435	0.7836	0.3151	-0.016
Mof_C 	C 	0.1587	0.797	0.326	0.026
Mof_Mo	Mo	0.42039	0.59026	0.14083	1.65
Mof_Mo	Mo	0.46992	0.66062	0.32244	1.086
Mof_Mo	Mo	0.4913	0.66309	0.94374	1.572
Mof_Cu	Cu	0.55773	0.4787	0.21896	0.901
Mof_O 	O 	0.4888	0.5292	0.1494	-0.684
Mof_O 	O 	0.409	0.602	0.2597	-0.647
Mof_O 	O 	0.4503	0.62	0.863	-0.595
Mof_O 	O 	0.4981	0.6822	0.1796	-0.462
Mof_O 	O 	0.4402	0.6232	0.0328	-0.711
Mof_O 	O 	0.8527	0.8157	0.3563	-0.417
Mof_N 	N 	0.6404	0.5143	0.1594	-0.247
Mof_N 	N 	0.4892	0.4455	0.3005	-0.259
Mof_N 	N 	0.6279	0.4538	0.3107	-0.159
Mof_C 	C 	0.647	0.5249	0.0773	0.102
Mof_H 	H 	0.608	0.5168	0.0416	-0.06
Mof_C 	C 	0.6956	0.5224	0.2104	0.107
Mof_C 	C 	0.7612	0.543	0.1796	-0.167
Mof_H 	H 	0.8005	0.5477	0.2157	0.071
Mof_C 	C 	0.6832	0.5104	0.302	-0.176
Mof_H 	H 	0.7269	0.4945	0.3296	0.056
Mof_H 	H 	0.6676	0.5556	0.3289	0.046
Mof_C 	C 	0.6602	0.3818	0.2989	-0.027
Mof_H 	H 	0.6984	0.3766	0.3404	0.025
Mof_H 	H 	0.6817	0.3804	0.2426	0.033
Mof_C 	C 	0.6132	0.3189	0.3071	-0.162
Mof_H 	H 	0.5943	0.3162	0.3648	0.06
Mof_H 	H 	0.5734	0.3234	0.2677	0.08
Mof_C 	C 	0.4226	0.4282	0.2844	0.109
Mof_H 	H 	0.4066	0.4295	0.228	-0.064
Mof_C 	C 	0.3771	0.4088	0.3458	-0.169
Mof_H 	H 	0.3293	0.3995	0.3333	0.076
Mof_C 	C 	0.7665	0.5562	0.0946	0.083
Mof_H 	H 	0.8099	0.5715	0.0718	-0.022
Mof_C 	C 	0.71	0.5475	0.043	-0.179
Mof_H 	H 	0.7138	0.5568	0.9846	0.048
Mof_C 	C 	0.5143	0.4398	0.3791	0.094
Mof_C 	C 	0.5896	0.4577	0.3913	-0.176
Mof_H 	H 	0.6107	0.4237	0.4317	0.065
Mof_H 	H 	0.5938	0.5067	0.4148	0.048
Mof_C 	C 	0.4714	0.4187	0.4431	-0.158
Mof_H 	H 	0.4895	0.4149	0.4983	0.028
Mof_C 	C 	0.4023	0.4029	0.4283	0.054
Mof_H 	H 	0.3723	0.3884	0.4726	-0.009
Mof_C 	C 	0.7435	0.7164	0.1849	-0.016
Mof_C 	C 	0.6587	0.703	0.174	0.025
Mof_Mo	Mo	0.07961	0.40974	0.64083	1.651
Mof_Mo	Mo	0.03008	0.33938	0.82244	1.085
Mof_Mo	Mo	0.0087	0.33691	0.44374	1.57
Mof_Cu	Cu	0.94227	0.5213	0.71896	0.901
Mof_O 	O 	0.0112	0.4708	0.6494	-0.683
Mof_O 	O 	0.091	0.398	0.7597	-0.647
Mof_O 	O 	0.0497	0.38	0.363	-0.595
Mof_O 	O 	0.0019	0.3178	0.6796	-0.464
Mof_O 	O 	0.0598	0.3768	0.5328	-0.711
Mof_O 	O 	0.6473	0.1843	0.8563	-0.416
Mof_N 	N 	0.8596	0.4857	0.6594	-0.248
Mof_N 	N 	0.0108	0.5545	0.8005	-0.256
Mof_N 	N 	0.8721	0.5462	0.8107	-0.159
Mof_C 	C 	0.853	0.4751	0.5773	0.104
Mof_H 	H 	0.892	0.4832	0.5416	-0.06
Mof_C 	C 	0.8044	0.4776	0.7104	0.108
Mof_C 	C 	0.7388	0.457	0.6796	-0.169
Mof_H 	H 	0.6995	0.4523	0.7157	0.071
Mof_C 	C 	0.8168	0.4896	0.802	-0.177
Mof_H 	H 	0.7731	0.5055	0.8296	0.056
Mof_H 	H 	0.8324	0.4444	0.8289	0.046
Mof_C 	C 	0.8398	0.6182	0.7989	-0.027
Mof_H 	H 	0.8016	0.6234	0.8404	0.025
Mof_H 	H 	0.8183	0.6196	0.7426	0.033
Mof_C 	C 	0.8868	0.6811	0.8071	-0.161
Mof_H 	H 	0.9057	0.6838	0.8648	0.059
Mof_H 	H 	0.9266	0.6766	0.7677	0.079
Mof_C 	C 	0.0774	0.5718	0.7844	0.108
Mof_H 	H 	0.0934	0.5705	0.728	-0.064
Mof_C 	C 	0.1229	0.5912	0.8458	-0.166
Mof_H 	H 	0.1707	0.6005	0.8333	0.075
Mof_C 	C 	0.7335	0.4438	0.5946	0.086
Mof_H 	H 	0.6901	0.4285	0.5718	-0.023
Mof_C 	C 	0.79	0.4525	0.543	-0.184
Mof_H 	H 	0.7862	0.4432	0.4846	0.05
Mof_C 	C 	0.9857	0.5602	0.8791	0.088
Mof_C 	C 	0.9104	0.5423	0.8913	-0.173
Mof_H 	H 	0.8893	0.5763	0.9317	0.063
Mof_H 	H 	0.9062	0.4933	0.9148	0.046
Mof_C 	C 	0.0286	0.5813	0.9431	-0.151
Mof_H 	H 	0.0105	0.5851	0.9983	0.027
Mof_C 	C 	0.0977	0.5971	0.9283	0.051
Mof_H 	H 	0.1277	0.6116	0.9726	-0.007
Mof_C 	C 	0.7565	0.2836	0.6849	-0.016
Mof_C 	C 	0.8413	0.297	0.674	0.025
Mof_P 	P 	0.52772	0.75	0.1402	0.528
Mof_P 	P 	0.84509	0.75	0.3019	0.512
Mof_O 	O 	0.3945	0.75	0.9617	-0.281
Mof_O 	O 	0.8946	0.75	0.2247	-0.437
Mof_O 	O 	0.5188	0.75	0.3354	-0.581
Mof_O 	O 	0.5157	0.75	0.8873	-0.686
Mof_O 	O 	0.5153	0.75	0.0447	-0.514
Mof_C 	C 	0.6179	0.75	0.1577	-0.174
Mof_C 	C 	0.757	0.75	0.2639	-0.093
Mof_P 	P 	0.97228	0.25	0.6402	0.532
Mof_P 	P 	0.65491	0.25	0.8019	0.512
Mof_O 	O 	0.1055	0.25	0.4617	-0.28
Mof_O 	O 	0.6054	0.25	0.7247	-0.437
Mof_O 	O 	0.9812	0.25	0.8354	-0.577
Mof_O 	O 	0.9843	0.25	0.3873	-0.682
Mof_O 	O 	0.9847	0.25	0.5447	-0.514
Mof_C 	C 	0.8821	0.25	0.6577	-0.175
Mof_C 	C 	0.743	0.25	0.7639	-0.093
Mof_P 	P 	0.47228	0.25	0.8598	0.528
Mof_P 	P 	0.15491	0.25	0.6981	0.512
Mof_O 	O 	0.6055	0.25	0.0383	-0.281
Mof_O 	O 	0.1054	0.25	0.7753	-0.437
Mof_O 	O 	0.4812	0.25	0.6646	-0.581
Mof_O 	O 	0.4843	0.25	0.1127	-0.686
Mof_O 	O 	0.4847	0.25	0.9553	-0.514
Mof_C 	C 	0.3821	0.25	0.8423	-0.174
Mof_C 	C 	0.243	0.25	0.7361	-0.093
Mof_P 	P 	0.02772	0.75	0.3598	0.532
Mof_P 	P 	0.34509	0.75	0.1981	0.512
Mof_O 	O 	0.8945	0.75	0.5383	-0.28
Mof_O 	O 	0.3946	0.75	0.2753	-0.437
Mof_O 	O 	0.0188	0.75	0.1646	-0.577
Mof_O 	O 	0.0157	0.75	0.6127	-0.682
Mof_O 	O 	0.0153	0.75	0.4553	-0.514
Mof_C 	C 	0.1179	0.75	0.3423	-0.175
Mof_C 	C 	0.257	0.75	0.2361	-0.093
Mof_C 	C 	0.6561	0.25	0.2869	0.023
Mof_C 	C 	0.8439	0.75	0.7869	0.022
Mof_C 	C 	0.3439	0.75	0.7131	0.023
Mof_C 	C 	0.1561	0.25	0.2131	0.022
_end
