data_functionalizedCrystal
_audit_creation_method	'EQeq! by Chris Wilmer'
_symmetry_space_group_name_H-M	'P1'
_symmetry_Int_Tables_number	1
_symmetry_cell_setting	triclinic
loop_
_symmetry_equiv_pos_as_xyz
  x,y,z
_cell_length_a	7.281
_cell_length_b	7.441
_cell_length_c	7.46
_cell_angle_alpha	90
_cell_angle_beta	90
_cell_angle_gamma	95.814
loop_
_atom_site_label
_atom_site_type_symbol
_atom_site_fract_x
_atom_site_fract_y
_atom_site_fract_z
_atom_site_charge
Mof_Fe	Fe	-8.39771e-18	0.5	0.5	0.574
Mof_H 	H 	0.6584	0.4912	0.7612	0.037
Mof_H 	H 	0.3416	0.5088	0.7612	0.018
Mof_H 	H 	0.3416	0.5088	0.2388	0.02
Mof_H 	H 	0.6584	0.4912	0.2388	0.038
Mof_Pt	Pt	-0	0	-0	-0.033
Mof_C 	C 	0.596	0.495	0.653	0.008
Mof_C 	C 	0.9914	0.189	0.811	0.106
Mof_C 	C 	0.404	0.505	0.653	0.01
Mof_C 	C 	0.0086	0.811	0.811	0.035
Mof_C 	C 	0.404	0.505	0.347	0.01
Mof_C 	C 	0.0086	0.811	0.189	0.04
Mof_C 	C 	0.596	0.495	0.347	0.008
Mof_C 	C 	0.9914	0.189	0.189	0.111
Mof_N 	N 	0.9905	0.3	0.7047	-0.16
Mof_N 	N 	0.0095	0.7	0.7047	-0.188
Mof_N 	N 	0.0095	0.7	0.2953	-0.188
Mof_N 	N 	0.9905	0.3	0.2953	-0.16
Mof_N 	N 	0.6897	0.489	0.5	-0.132
Mof_N 	N 	0.3103	0.511	0.5	-0.154
_end
