data_functionalizedCrystal
_audit_creation_method	'EQeq! by Chris Wilmer'
_symmetry_space_group_name_H-M	'P1'
_symmetry_Int_Tables_number	1
_symmetry_cell_setting	triclinic
loop_
_symmetry_equiv_pos_as_xyz
  x,y,z
_cell_length_a	22.212
_cell_length_b	31.832
_cell_length_c	32.448
_cell_angle_alpha	90
_cell_angle_beta	101.594
_cell_angle_gamma	90
loop_
_atom_site_label
_atom_site_type_symbol
_atom_site_fract_x
_atom_site_fract_y
_atom_site_fract_z
_atom_site_charge
Mof_Zn	Zn	0.01348	0.25	0.2963	1.221
Mof_Zn	Zn	0.48652	0.25	0.2037	1.221
Mof_H 	H 	0.13863	0.35267	0.32006	0.038
Mof_H 	H 	0.20404	0.41697	0.31981	0.055
Mof_H 	H 	0.16366	0.41475	0.18245	0.055
Mof_H 	H 	0.10196	0.35086	0.18254	0.036
Mof_H 	H 	0.36137	0.35267	0.17994	0.038
Mof_H 	H 	0.29596	0.41697	0.18019	0.055
Mof_H 	H 	0.33634	0.41475	0.31755	0.055
Mof_H 	H 	0.39826	0.35055	0.31725	0.037
Mof_H 	H 	0.36137	0.14733	0.17994	0.038
Mof_H 	H 	0.29596	0.08303	0.18019	0.055
Mof_H 	H 	0.33634	0.08525	0.31755	0.055
Mof_H 	H 	0.39826	0.14945	0.31725	0.037
Mof_H 	H 	0.13863	0.14733	0.32006	0.038
Mof_H 	H 	0.20404	0.08303	0.31981	0.055
Mof_H 	H 	0.16366	0.08525	0.18245	0.055
Mof_H 	H 	0.10196	0.14914	0.18254	0.037
Mof_H 	H 	0.42693	0.25	0.35025	0.021
Mof_H 	H 	0.42783	0.25	0.42938	0.045
Mof_H 	H 	0.12133	0.25	0.37507	0.02
Mof_H 	H 	0.08152	0.25	0.01286	0.043
Mof_H 	H 	0.07307	0.25	0.14975	0.021
Mof_H 	H 	0.07217	0.25	0.07062	0.045
Mof_H 	H 	0.37867	0.25	0.12493	0.02
Mof_H 	H 	0.41848	0.25	0.48714	0.043
Mof_C 	C 	0.0776	0.30835	0.25215	0.43
Mof_C 	C 	0.1197	0.34725	0.25195	-0.114
Mof_C 	C 	0.14545	0.36645	0.2889	0.045
Mof_C 	C 	0.1797	0.40245	0.2888	-0.071
Mof_C 	C 	0.1844	0.42095	0.2507	0.067
Mof_C 	C 	0.158	0.40115	0.21395	-0.073
Mof_C 	C 	0.1251	0.36565	0.2137	0.044
Mof_C 	C 	0.22005	0.46125	0.25155	-0.034
Mof_C 	C 	0.4224	0.30835	0.24785	0.43
Mof_C 	C 	0.3803	0.34725	0.24805	-0.114
Mof_C 	C 	0.35455	0.36645	0.2111	0.045
Mof_C 	C 	0.3203	0.40245	0.2112	-0.071
Mof_C 	C 	0.3156	0.42095	0.2493	0.067
Mof_C 	C 	0.342	0.40115	0.28605	-0.073
Mof_C 	C 	0.3749	0.36565	0.2863	0.044
Mof_C 	C 	0.27995	0.46125	0.24845	-0.034
Mof_C 	C 	0.4224	0.19165	0.24785	0.431
Mof_C 	C 	0.3803	0.15275	0.24805	-0.113
Mof_C 	C 	0.35455	0.13355	0.2111	0.046
Mof_C 	C 	0.3203	0.09755	0.2112	-0.07
Mof_C 	C 	0.3156	0.07905	0.2493	0.068
Mof_C 	C 	0.342	0.09885	0.28605	-0.072
Mof_C 	C 	0.3749	0.13435	0.2863	0.045
Mof_C 	C 	0.27995	0.03875	0.24845	-0.033
Mof_C 	C 	0.0776	0.19165	0.25215	0.431
Mof_C 	C 	0.1197	0.15275	0.25195	-0.113
Mof_C 	C 	0.14545	0.13355	0.2889	0.046
Mof_C 	C 	0.1797	0.09755	0.2888	-0.07
Mof_C 	C 	0.1844	0.07905	0.2507	0.069
Mof_C 	C 	0.158	0.09885	0.21395	-0.073
Mof_C 	C 	0.1251	0.13435	0.2137	0.046
Mof_C 	C 	0.22005	0.03875	0.25155	-0.033
Mof_C 	C 	0.18905	0	0.2516	0.097
Mof_C 	C 	0.31095	0	0.2484	0.097
Mof_C 	C 	0.4725	0.25	0.37385	0.027
Mof_C 	C 	0.473	0.25	0.4178	-0.064
Mof_C 	C 	0.0263	0.25	0.4483	0.047
Mof_C 	C 	0.0795	0.25	0.4315	-0.044
Mof_C 	C 	0.077	0.25	0.3877	0.049
Mof_C 	C 	0.0335	0.25	0.4922	-0.05
Mof_C 	C 	0.137	0.25	0.4585	0.023
Mof_C 	C 	0.19	0.25	0.477	-0.054
Mof_C 	C 	0.0275	0.25	0.12615	0.027
Mof_C 	C 	0.027	0.25	0.0822	-0.064
Mof_C 	C 	0.4737	0.25	0.0517	0.047
Mof_C 	C 	0.4205	0.25	0.0685	-0.045
Mof_C 	C 	0.423	0.25	0.1123	0.049
Mof_C 	C 	0.4665	0.25	0.0078	-0.05
Mof_C 	C 	0.363	0.25	0.0415	0.025
Mof_C 	C 	0.31	0.25	0.023	-0.057
Mof_Br	Br	0.10355	0	0.2518	-0.222
Mof_Br	Br	0.39645	0	0.2482	-0.222
Mof_N 	N 	0.0261	0.25	0.35605	-0.252
Mof_N 	N 	0.4739	0.25	0.14395	-0.252
Mof_O 	O 	0.07385	0.2952	0.28695	-0.476
Mof_O 	O 	0.05345	0.2949	0.21755	-0.479
Mof_O 	O 	0.42615	0.2952	0.21305	-0.476
Mof_O 	O 	0.44655	0.2949	0.28245	-0.48
Mof_O 	O 	0.42615	0.2048	0.21305	-0.476
Mof_O 	O 	0.44655	0.2051	0.28245	-0.479
Mof_O 	O 	0.07385	0.2048	0.28695	-0.476
Mof_O 	O 	0.05345	0.2051	0.21755	-0.479
Mof_Zn	Zn	0.51348	0.25	0.2963	1.222
Mof_Zn	Zn	0.98652	0.25	0.2037	1.222
Mof_H 	H 	0.63863	0.35267	0.32006	0.039
Mof_H 	H 	0.70404	0.41697	0.31981	0.056
Mof_H 	H 	0.66366	0.41475	0.18245	0.056
Mof_H 	H 	0.60196	0.35086	0.18254	0.037
Mof_H 	H 	0.86137	0.35267	0.17994	0.039
Mof_H 	H 	0.79596	0.41697	0.18019	0.056
Mof_H 	H 	0.83634	0.41475	0.31755	0.056
Mof_H 	H 	0.89826	0.35055	0.31725	0.038
Mof_H 	H 	0.86137	0.14733	0.17994	0.039
Mof_H 	H 	0.79596	0.08303	0.18019	0.056
Mof_H 	H 	0.83634	0.08525	0.31755	0.056
Mof_H 	H 	0.89826	0.14945	0.31725	0.038
Mof_H 	H 	0.63863	0.14733	0.32006	0.039
Mof_H 	H 	0.70404	0.08303	0.31981	0.056
Mof_H 	H 	0.66366	0.08525	0.18245	0.056
Mof_H 	H 	0.60196	0.14914	0.18254	0.037
Mof_H 	H 	0.92693	0.25	0.35025	0.022
Mof_H 	H 	0.92783	0.25	0.42938	0.046
Mof_H 	H 	0.62133	0.25	0.37507	0.021
Mof_H 	H 	0.58152	0.25	0.01286	0.044
Mof_H 	H 	0.57307	0.25	0.14975	0.022
Mof_H 	H 	0.57217	0.25	0.07062	0.046
Mof_H 	H 	0.87867	0.25	0.12493	0.021
Mof_H 	H 	0.91848	0.25	0.48714	0.044
Mof_C 	C 	0.5776	0.30835	0.25215	0.431
Mof_C 	C 	0.6197	0.34725	0.25195	-0.113
Mof_C 	C 	0.64545	0.36645	0.2889	0.046
Mof_C 	C 	0.6797	0.40245	0.2888	-0.07
Mof_C 	C 	0.6844	0.42095	0.2507	0.068
Mof_C 	C 	0.658	0.40115	0.21395	-0.072
Mof_C 	C 	0.6251	0.36565	0.2137	0.045
Mof_C 	C 	0.72005	0.46125	0.25155	-0.033
Mof_C 	C 	0.9224	0.30835	0.24785	0.431
Mof_C 	C 	0.8803	0.34725	0.24805	-0.113
Mof_C 	C 	0.85455	0.36645	0.2111	0.046
Mof_C 	C 	0.8203	0.40245	0.2112	-0.07
Mof_C 	C 	0.8156	0.42095	0.2493	0.068
Mof_C 	C 	0.842	0.40115	0.28605	-0.072
Mof_C 	C 	0.8749	0.36565	0.2863	0.045
Mof_C 	C 	0.77995	0.46125	0.24845	-0.033
Mof_C 	C 	0.9224	0.19165	0.24785	0.431
Mof_C 	C 	0.8803	0.15275	0.24805	-0.113
Mof_C 	C 	0.85455	0.13355	0.2111	0.046
Mof_C 	C 	0.8203	0.09755	0.2112	-0.07
Mof_C 	C 	0.8156	0.07905	0.2493	0.068
Mof_C 	C 	0.842	0.09885	0.28605	-0.072
Mof_C 	C 	0.8749	0.13435	0.2863	0.045
Mof_C 	C 	0.77995	0.03875	0.24845	-0.033
Mof_C 	C 	0.5776	0.19165	0.25215	0.431
Mof_C 	C 	0.6197	0.15275	0.25195	-0.113
Mof_C 	C 	0.64545	0.13355	0.2889	0.046
Mof_C 	C 	0.6797	0.09755	0.2888	-0.07
Mof_C 	C 	0.6844	0.07905	0.2507	0.069
Mof_C 	C 	0.658	0.09885	0.21395	-0.073
Mof_C 	C 	0.6251	0.13435	0.2137	0.046
Mof_C 	C 	0.72005	0.03875	0.25155	-0.033
Mof_C 	C 	0.68905	0	0.2516	0.097
Mof_C 	C 	0.81095	0	0.2484	0.097
Mof_C 	C 	0.9725	0.25	0.37385	0.027
Mof_C 	C 	0.973	0.25	0.4178	-0.064
Mof_C 	C 	0.5263	0.25	0.4483	0.046
Mof_C 	C 	0.5795	0.25	0.4315	-0.044
Mof_C 	C 	0.577	0.25	0.3877	0.049
Mof_C 	C 	0.5335	0.25	0.4922	-0.05
Mof_C 	C 	0.637	0.25	0.4585	0.023
Mof_C 	C 	0.69	0.25	0.477	-0.054
Mof_C 	C 	0.5275	0.25	0.12615	0.027
Mof_C 	C 	0.527	0.25	0.0822	-0.064
Mof_C 	C 	0.9737	0.25	0.0517	0.046
Mof_C 	C 	0.9205	0.25	0.0685	-0.043
Mof_C 	C 	0.923	0.25	0.1123	0.049
Mof_C 	C 	0.9665	0.25	0.0078	-0.05
Mof_C 	C 	0.863	0.25	0.0415	0.022
Mof_C 	C 	0.81	0.25	0.023	-0.051
Mof_Br	Br	0.60355	0	0.2518	-0.222
Mof_Br	Br	0.89645	0	0.2482	-0.222
Mof_N 	N 	0.5261	0.25	0.35605	-0.252
Mof_N 	N 	0.9739	0.25	0.14395	-0.252
Mof_O 	O 	0.57385	0.2952	0.28695	-0.476
Mof_O 	O 	0.55345	0.2949	0.21755	-0.479
Mof_O 	O 	0.92615	0.2952	0.21305	-0.476
Mof_O 	O 	0.94655	0.2949	0.28245	-0.479
Mof_O 	O 	0.92615	0.2048	0.21305	-0.476
Mof_O 	O 	0.94655	0.2051	0.28245	-0.479
Mof_O 	O 	0.57385	0.2048	0.28695	-0.476
Mof_O 	O 	0.55345	0.2051	0.21755	-0.479
Mof_Zn	Zn	0.01348	0.75	0.2963	1.222
Mof_Zn	Zn	0.48652	0.75	0.2037	1.222
Mof_H 	H 	0.13863	0.85267	0.32006	0.038
Mof_H 	H 	0.20404	0.91697	0.31981	0.055
Mof_H 	H 	0.16366	0.91475	0.18245	0.055
Mof_H 	H 	0.10196	0.85086	0.18254	0.037
Mof_H 	H 	0.36137	0.85267	0.17994	0.038
Mof_H 	H 	0.29596	0.91697	0.18019	0.055
Mof_H 	H 	0.33634	0.91475	0.31755	0.055
Mof_H 	H 	0.39826	0.85055	0.31725	0.037
Mof_H 	H 	0.36137	0.64733	0.17994	0.039
Mof_H 	H 	0.29596	0.58303	0.18019	0.056
Mof_H 	H 	0.33634	0.58525	0.31755	0.056
Mof_H 	H 	0.39826	0.64945	0.31725	0.038
Mof_H 	H 	0.13863	0.64733	0.32006	0.039
Mof_H 	H 	0.20404	0.58303	0.31981	0.056
Mof_H 	H 	0.16366	0.58525	0.18245	0.056
Mof_H 	H 	0.10196	0.64914	0.18254	0.037
Mof_H 	H 	0.42693	0.75	0.35025	0.022
Mof_H 	H 	0.42783	0.75	0.42938	0.046
Mof_H 	H 	0.12133	0.75	0.37507	0.021
Mof_H 	H 	0.08152	0.75	0.01286	0.044
Mof_H 	H 	0.07307	0.75	0.14975	0.022
Mof_H 	H 	0.07217	0.75	0.07062	0.046
Mof_H 	H 	0.37867	0.75	0.12493	0.021
Mof_H 	H 	0.41848	0.75	0.48714	0.044
Mof_C 	C 	0.0776	0.80835	0.25215	0.431
Mof_C 	C 	0.1197	0.84725	0.25195	-0.113
Mof_C 	C 	0.14545	0.86645	0.2889	0.046
Mof_C 	C 	0.1797	0.90245	0.2888	-0.071
Mof_C 	C 	0.1844	0.92095	0.2507	0.069
Mof_C 	C 	0.158	0.90115	0.21395	-0.073
Mof_C 	C 	0.1251	0.86565	0.2137	0.045
Mof_C 	C 	0.22005	0.96125	0.25155	-0.037
Mof_C 	C 	0.4224	0.80835	0.24785	0.431
Mof_C 	C 	0.3803	0.84725	0.24805	-0.113
Mof_C 	C 	0.35455	0.86645	0.2111	0.046
Mof_C 	C 	0.3203	0.90245	0.2112	-0.071
Mof_C 	C 	0.3156	0.92095	0.2493	0.068
Mof_C 	C 	0.342	0.90115	0.28605	-0.073
Mof_C 	C 	0.3749	0.86565	0.2863	0.045
Mof_C 	C 	0.27995	0.96125	0.24845	-0.037
Mof_C 	C 	0.4224	0.69165	0.24785	0.431
Mof_C 	C 	0.3803	0.65275	0.24805	-0.113
Mof_C 	C 	0.35455	0.63355	0.2111	0.046
Mof_C 	C 	0.3203	0.59755	0.2112	-0.07
Mof_C 	C 	0.3156	0.57905	0.2493	0.068
Mof_C 	C 	0.342	0.59885	0.28605	-0.072
Mof_C 	C 	0.3749	0.63435	0.2863	0.045
Mof_C 	C 	0.27995	0.53875	0.24845	-0.033
Mof_C 	C 	0.0776	0.69165	0.25215	0.431
Mof_C 	C 	0.1197	0.65275	0.25195	-0.113
Mof_C 	C 	0.14545	0.63355	0.2889	0.046
Mof_C 	C 	0.1797	0.59755	0.2888	-0.07
Mof_C 	C 	0.1844	0.57905	0.2507	0.068
Mof_C 	C 	0.158	0.59885	0.21395	-0.072
Mof_C 	C 	0.1251	0.63435	0.2137	0.045
Mof_C 	C 	0.22005	0.53875	0.25155	-0.033
Mof_C 	C 	0.18905	0.5	0.2516	0.092
Mof_C 	C 	0.31095	0.5	0.2484	0.092
Mof_C 	C 	0.4725	0.75	0.37385	0.027
Mof_C 	C 	0.473	0.75	0.4178	-0.064
Mof_C 	C 	0.0263	0.75	0.4483	0.046
Mof_C 	C 	0.0795	0.75	0.4315	-0.044
Mof_C 	C 	0.077	0.75	0.3877	0.049
Mof_C 	C 	0.0335	0.75	0.4922	-0.05
Mof_C 	C 	0.137	0.75	0.4585	0.023
Mof_C 	C 	0.19	0.75	0.477	-0.054
Mof_C 	C 	0.0275	0.75	0.12615	0.027
Mof_C 	C 	0.027	0.75	0.0822	-0.064
Mof_C 	C 	0.4737	0.75	0.0517	0.047
Mof_C 	C 	0.4205	0.75	0.0685	-0.045
Mof_C 	C 	0.423	0.75	0.1123	0.049
Mof_C 	C 	0.4665	0.75	0.0078	-0.05
Mof_C 	C 	0.363	0.75	0.0415	0.025
Mof_C 	C 	0.31	0.75	0.023	-0.057
Mof_Br	Br	0.10355	0.5	0.2518	-0.225
Mof_Br	Br	0.39645	0.5	0.2482	-0.225
Mof_N 	N 	0.0261	0.75	0.35605	-0.252
Mof_N 	N 	0.4739	0.75	0.14395	-0.252
Mof_O 	O 	0.07385	0.7952	0.28695	-0.476
Mof_O 	O 	0.05345	0.7949	0.21755	-0.48
Mof_O 	O 	0.42615	0.7952	0.21305	-0.476
Mof_O 	O 	0.44655	0.7949	0.28245	-0.48
Mof_O 	O 	0.42615	0.7048	0.21305	-0.476
Mof_O 	O 	0.44655	0.7051	0.28245	-0.48
Mof_O 	O 	0.07385	0.7048	0.28695	-0.476
Mof_O 	O 	0.05345	0.7051	0.21755	-0.479
Mof_Zn	Zn	0.51348	0.75	0.2963	1.222
Mof_Zn	Zn	0.98652	0.75	0.2037	1.222
Mof_H 	H 	0.63863	0.85267	0.32006	0.038
Mof_H 	H 	0.70404	0.91697	0.31981	0.055
Mof_H 	H 	0.66366	0.91475	0.18245	0.055
Mof_H 	H 	0.60196	0.85086	0.18254	0.037
Mof_H 	H 	0.86137	0.85267	0.17994	0.038
Mof_H 	H 	0.79596	0.91697	0.18019	0.055
Mof_H 	H 	0.83634	0.91475	0.31755	0.055
Mof_H 	H 	0.89826	0.85055	0.31725	0.037
Mof_H 	H 	0.86137	0.64733	0.17994	0.039
Mof_H 	H 	0.79596	0.58303	0.18019	0.056
Mof_H 	H 	0.83634	0.58525	0.31755	0.056
Mof_H 	H 	0.89826	0.64945	0.31725	0.038
Mof_H 	H 	0.63863	0.64733	0.32006	0.039
Mof_H 	H 	0.70404	0.58303	0.31981	0.056
Mof_H 	H 	0.66366	0.58525	0.18245	0.056
Mof_H 	H 	0.60196	0.64914	0.18254	0.037
Mof_H 	H 	0.92693	0.75	0.35025	0.022
Mof_H 	H 	0.92783	0.75	0.42938	0.046
Mof_H 	H 	0.62133	0.75	0.37507	0.021
Mof_H 	H 	0.58152	0.75	0.01286	0.044
Mof_H 	H 	0.57307	0.75	0.14975	0.022
Mof_H 	H 	0.57217	0.75	0.07062	0.046
Mof_H 	H 	0.87867	0.75	0.12493	0.021
Mof_H 	H 	0.91848	0.75	0.48714	0.044
Mof_C 	C 	0.5776	0.80835	0.25215	0.431
Mof_C 	C 	0.6197	0.84725	0.25195	-0.113
Mof_C 	C 	0.64545	0.86645	0.2889	0.046
Mof_C 	C 	0.6797	0.90245	0.2888	-0.071
Mof_C 	C 	0.6844	0.92095	0.2507	0.069
Mof_C 	C 	0.658	0.90115	0.21395	-0.073
Mof_C 	C 	0.6251	0.86565	0.2137	0.045
Mof_C 	C 	0.72005	0.96125	0.25155	-0.037
Mof_C 	C 	0.9224	0.80835	0.24785	0.431
Mof_C 	C 	0.8803	0.84725	0.24805	-0.113
Mof_C 	C 	0.85455	0.86645	0.2111	0.046
Mof_C 	C 	0.8203	0.90245	0.2112	-0.071
Mof_C 	C 	0.8156	0.92095	0.2493	0.068
Mof_C 	C 	0.842	0.90115	0.28605	-0.073
Mof_C 	C 	0.8749	0.86565	0.2863	0.045
Mof_C 	C 	0.77995	0.96125	0.24845	-0.037
Mof_C 	C 	0.9224	0.69165	0.24785	0.431
Mof_C 	C 	0.8803	0.65275	0.24805	-0.113
Mof_C 	C 	0.85455	0.63355	0.2111	0.046
Mof_C 	C 	0.8203	0.59755	0.2112	-0.07
Mof_C 	C 	0.8156	0.57905	0.2493	0.068
Mof_C 	C 	0.842	0.59885	0.28605	-0.072
Mof_C 	C 	0.8749	0.63435	0.2863	0.045
Mof_C 	C 	0.77995	0.53875	0.24845	-0.033
Mof_C 	C 	0.5776	0.69165	0.25215	0.431
Mof_C 	C 	0.6197	0.65275	0.25195	-0.113
Mof_C 	C 	0.64545	0.63355	0.2889	0.046
Mof_C 	C 	0.6797	0.59755	0.2888	-0.07
Mof_C 	C 	0.6844	0.57905	0.2507	0.068
Mof_C 	C 	0.658	0.59885	0.21395	-0.072
Mof_C 	C 	0.6251	0.63435	0.2137	0.045
Mof_C 	C 	0.72005	0.53875	0.25155	-0.033
Mof_C 	C 	0.68905	0.5	0.2516	0.092
Mof_C 	C 	0.81095	0.5	0.2484	0.092
Mof_C 	C 	0.9725	0.75	0.37385	0.027
Mof_C 	C 	0.973	0.75	0.4178	-0.064
Mof_C 	C 	0.5263	0.75	0.4483	0.046
Mof_C 	C 	0.5795	0.75	0.4315	-0.044
Mof_C 	C 	0.577	0.75	0.3877	0.049
Mof_C 	C 	0.5335	0.75	0.4922	-0.05
Mof_C 	C 	0.637	0.75	0.4585	0.023
Mof_C 	C 	0.69	0.75	0.477	-0.054
Mof_C 	C 	0.5275	0.75	0.12615	0.027
Mof_C 	C 	0.527	0.75	0.0822	-0.064
Mof_C 	C 	0.9737	0.75	0.0517	0.046
Mof_C 	C 	0.9205	0.75	0.0685	-0.044
Mof_C 	C 	0.923	0.75	0.1123	0.049
Mof_C 	C 	0.9665	0.75	0.0078	-0.05
Mof_C 	C 	0.863	0.75	0.0415	0.022
Mof_C 	C 	0.81	0.75	0.023	-0.051
Mof_Br	Br	0.60355	0.5	0.2518	-0.225
Mof_Br	Br	0.89645	0.5	0.2482	-0.225
Mof_N 	N 	0.5261	0.75	0.35605	-0.252
Mof_N 	N 	0.9739	0.75	0.14395	-0.252
Mof_O 	O 	0.57385	0.7952	0.28695	-0.476
Mof_O 	O 	0.55345	0.7949	0.21755	-0.48
Mof_O 	O 	0.92615	0.7952	0.21305	-0.476
Mof_O 	O 	0.94655	0.7949	0.28245	-0.48
Mof_O 	O 	0.92615	0.7048	0.21305	-0.476
Mof_O 	O 	0.94655	0.7051	0.28245	-0.479
Mof_O 	O 	0.57385	0.7048	0.28695	-0.476
Mof_O 	O 	0.55345	0.7051	0.21755	-0.479
Mof_Zn	Zn	0.01348	0.25	0.7963	1.222
Mof_Zn	Zn	0.48652	0.25	0.7037	1.222
Mof_H 	H 	0.13863	0.35267	0.82006	0.039
Mof_H 	H 	0.20404	0.41697	0.81981	0.056
Mof_H 	H 	0.16366	0.41475	0.68245	0.056
Mof_H 	H 	0.10196	0.35086	0.68254	0.037
Mof_H 	H 	0.36137	0.35267	0.67994	0.039
Mof_H 	H 	0.29596	0.41697	0.68019	0.056
Mof_H 	H 	0.33634	0.41475	0.81755	0.056
Mof_H 	H 	0.39826	0.35055	0.81725	0.038
Mof_H 	H 	0.36137	0.14733	0.67994	0.039
Mof_H 	H 	0.29596	0.08303	0.68019	0.056
Mof_H 	H 	0.33634	0.08525	0.81755	0.056
Mof_H 	H 	0.39826	0.14945	0.81725	0.038
Mof_H 	H 	0.13863	0.14733	0.82006	0.039
Mof_H 	H 	0.20404	0.08303	0.81981	0.056
Mof_H 	H 	0.16366	0.08525	0.68245	0.056
Mof_H 	H 	0.10196	0.14914	0.68254	0.038
Mof_H 	H 	0.42693	0.25	0.85025	0.022
Mof_H 	H 	0.42783	0.25	0.92938	0.046
Mof_H 	H 	0.12133	0.25	0.87507	0.021
Mof_H 	H 	0.08152	0.25	0.51286	0.044
Mof_H 	H 	0.07307	0.25	0.64975	0.022
Mof_H 	H 	0.07217	0.25	0.57062	0.046
Mof_H 	H 	0.37867	0.25	0.62493	0.021
Mof_H 	H 	0.41848	0.25	0.98714	0.044
Mof_C 	C 	0.0776	0.30835	0.75215	0.431
Mof_C 	C 	0.1197	0.34725	0.75195	-0.113
Mof_C 	C 	0.14545	0.36645	0.7889	0.046
Mof_C 	C 	0.1797	0.40245	0.7888	-0.07
Mof_C 	C 	0.1844	0.42095	0.7507	0.068
Mof_C 	C 	0.158	0.40115	0.71395	-0.072
Mof_C 	C 	0.1251	0.36565	0.7137	0.045
Mof_C 	C 	0.22005	0.46125	0.75155	-0.033
Mof_C 	C 	0.4224	0.30835	0.74785	0.431
Mof_C 	C 	0.3803	0.34725	0.74805	-0.113
Mof_C 	C 	0.35455	0.36645	0.7111	0.046
Mof_C 	C 	0.3203	0.40245	0.7112	-0.07
Mof_C 	C 	0.3156	0.42095	0.7493	0.068
Mof_C 	C 	0.342	0.40115	0.78605	-0.072
Mof_C 	C 	0.3749	0.36565	0.7863	0.045
Mof_C 	C 	0.27995	0.46125	0.74845	-0.033
Mof_C 	C 	0.4224	0.19165	0.74785	0.431
Mof_C 	C 	0.3803	0.15275	0.74805	-0.113
Mof_C 	C 	0.35455	0.13355	0.7111	0.046
Mof_C 	C 	0.3203	0.09755	0.7112	-0.07
Mof_C 	C 	0.3156	0.07905	0.7493	0.068
Mof_C 	C 	0.342	0.09885	0.78605	-0.072
Mof_C 	C 	0.3749	0.13435	0.7863	0.045
Mof_C 	C 	0.27995	0.03875	0.74845	-0.033
Mof_C 	C 	0.0776	0.19165	0.75215	0.431
Mof_C 	C 	0.1197	0.15275	0.75195	-0.113
Mof_C 	C 	0.14545	0.13355	0.7889	0.046
Mof_C 	C 	0.1797	0.09755	0.7888	-0.07
Mof_C 	C 	0.1844	0.07905	0.7507	0.069
Mof_C 	C 	0.158	0.09885	0.71395	-0.073
Mof_C 	C 	0.1251	0.13435	0.7137	0.046
Mof_C 	C 	0.22005	0.03875	0.75155	-0.033
Mof_C 	C 	0.18905	0	0.7516	0.097
Mof_C 	C 	0.31095	0	0.7484	0.097
Mof_C 	C 	0.4725	0.25	0.87385	0.027
Mof_C 	C 	0.473	0.25	0.9178	-0.064
Mof_C 	C 	0.0263	0.25	0.9483	0.046
Mof_C 	C 	0.0795	0.25	0.9315	-0.043
Mof_C 	C 	0.077	0.25	0.8877	0.049
Mof_C 	C 	0.0335	0.25	0.9922	-0.05
Mof_C 	C 	0.137	0.25	0.9585	0.022
Mof_C 	C 	0.19	0.25	0.977	-0.051
Mof_C 	C 	0.0275	0.25	0.62615	0.027
Mof_C 	C 	0.027	0.25	0.5822	-0.064
Mof_C 	C 	0.4737	0.25	0.5517	0.046
Mof_C 	C 	0.4205	0.25	0.5685	-0.044
Mof_C 	C 	0.423	0.25	0.6123	0.049
Mof_C 	C 	0.4665	0.25	0.5078	-0.05
Mof_C 	C 	0.363	0.25	0.5415	0.023
Mof_C 	C 	0.31	0.25	0.523	-0.054
Mof_Br	Br	0.10355	-8.98574e-33	0.7518	-0.222
Mof_Br	Br	0.39645	0	0.7482	-0.222
Mof_N 	N 	0.0261	0.25	0.85605	-0.252
Mof_N 	N 	0.4739	0.25	0.64395	-0.252
Mof_O 	O 	0.07385	0.2952	0.78695	-0.476
Mof_O 	O 	0.05345	0.2949	0.71755	-0.479
Mof_O 	O 	0.42615	0.2952	0.71305	-0.476
Mof_O 	O 	0.44655	0.2949	0.78245	-0.48
Mof_O 	O 	0.42615	0.2048	0.71305	-0.476
Mof_O 	O 	0.44655	0.2051	0.78245	-0.479
Mof_O 	O 	0.07385	0.2048	0.78695	-0.476
Mof_O 	O 	0.05345	0.2051	0.71755	-0.479
Mof_Zn	Zn	0.51348	0.25	0.7963	1.222
Mof_Zn	Zn	0.98652	0.25	0.7037	1.222
Mof_H 	H 	0.63863	0.35267	0.82006	0.039
Mof_H 	H 	0.70404	0.41697	0.81981	0.056
Mof_H 	H 	0.66366	0.41475	0.68245	0.056
Mof_H 	H 	0.60196	0.35086	0.68254	0.037
Mof_H 	H 	0.86137	0.35267	0.67994	0.039
Mof_H 	H 	0.79596	0.41697	0.68019	0.056
Mof_H 	H 	0.83634	0.41475	0.81755	0.056
Mof_H 	H 	0.89826	0.35055	0.81725	0.038
Mof_H 	H 	0.86137	0.14733	0.67994	0.039
Mof_H 	H 	0.79596	0.08303	0.68019	0.056
Mof_H 	H 	0.83634	0.08525	0.81755	0.056
Mof_H 	H 	0.89826	0.14945	0.81725	0.038
Mof_H 	H 	0.63863	0.14733	0.82006	0.039
Mof_H 	H 	0.70404	0.08303	0.81981	0.056
Mof_H 	H 	0.66366	0.08525	0.68245	0.056
Mof_H 	H 	0.60196	0.14914	0.68254	0.037
Mof_H 	H 	0.92693	0.25	0.85025	0.022
Mof_H 	H 	0.92783	0.25	0.92938	0.046
Mof_H 	H 	0.62133	0.25	0.87507	0.021
Mof_H 	H 	0.58152	0.25	0.51286	0.044
Mof_H 	H 	0.57307	0.25	0.64975	0.022
Mof_H 	H 	0.57217	0.25	0.57062	0.046
Mof_H 	H 	0.87867	0.25	0.62493	0.021
Mof_H 	H 	0.91848	0.25	0.98714	0.044
Mof_C 	C 	0.5776	0.30835	0.75215	0.431
Mof_C 	C 	0.6197	0.34725	0.75195	-0.113
Mof_C 	C 	0.64545	0.36645	0.7889	0.046
Mof_C 	C 	0.6797	0.40245	0.7888	-0.07
Mof_C 	C 	0.6844	0.42095	0.7507	0.068
Mof_C 	C 	0.658	0.40115	0.71395	-0.072
Mof_C 	C 	0.6251	0.36565	0.7137	0.045
Mof_C 	C 	0.72005	0.46125	0.75155	-0.033
Mof_C 	C 	0.9224	0.30835	0.74785	0.431
Mof_C 	C 	0.8803	0.34725	0.74805	-0.113
Mof_C 	C 	0.85455	0.36645	0.7111	0.046
Mof_C 	C 	0.8203	0.40245	0.7112	-0.07
Mof_C 	C 	0.8156	0.42095	0.7493	0.068
Mof_C 	C 	0.842	0.40115	0.78605	-0.072
Mof_C 	C 	0.8749	0.36565	0.7863	0.045
Mof_C 	C 	0.77995	0.46125	0.74845	-0.033
Mof_C 	C 	0.9224	0.19165	0.74785	0.431
Mof_C 	C 	0.8803	0.15275	0.74805	-0.113
Mof_C 	C 	0.85455	0.13355	0.7111	0.046
Mof_C 	C 	0.8203	0.09755	0.7112	-0.07
Mof_C 	C 	0.8156	0.07905	0.7493	0.068
Mof_C 	C 	0.842	0.09885	0.78605	-0.072
Mof_C 	C 	0.8749	0.13435	0.7863	0.045
Mof_C 	C 	0.77995	0.03875	0.74845	-0.033
Mof_C 	C 	0.5776	0.19165	0.75215	0.431
Mof_C 	C 	0.6197	0.15275	0.75195	-0.113
Mof_C 	C 	0.64545	0.13355	0.7889	0.046
Mof_C 	C 	0.6797	0.09755	0.7888	-0.07
Mof_C 	C 	0.6844	0.07905	0.7507	0.069
Mof_C 	C 	0.658	0.09885	0.71395	-0.073
Mof_C 	C 	0.6251	0.13435	0.7137	0.046
Mof_C 	C 	0.72005	0.03875	0.75155	-0.033
Mof_C 	C 	0.68905	0	0.7516	0.097
Mof_C 	C 	0.81095	0	0.7484	0.097
Mof_C 	C 	0.9725	0.25	0.87385	0.027
Mof_C 	C 	0.973	0.25	0.9178	-0.064
Mof_C 	C 	0.5263	0.25	0.9483	0.047
Mof_C 	C 	0.5795	0.25	0.9315	-0.045
Mof_C 	C 	0.577	0.25	0.8877	0.049
Mof_C 	C 	0.5335	0.25	0.9922	-0.05
Mof_C 	C 	0.637	0.25	0.9585	0.025
Mof_C 	C 	0.69	0.25	0.977	-0.057
Mof_C 	C 	0.5275	0.25	0.62615	0.027
Mof_C 	C 	0.527	0.25	0.5822	-0.064
Mof_C 	C 	0.9737	0.25	0.5517	0.047
Mof_C 	C 	0.9205	0.25	0.5685	-0.044
Mof_C 	C 	0.923	0.25	0.6123	0.049
Mof_C 	C 	0.9665	0.25	0.5078	-0.05
Mof_C 	C 	0.863	0.25	0.5415	0.023
Mof_C 	C 	0.81	0.25	0.523	-0.054
Mof_Br	Br	0.60355	-8.98574e-33	0.7518	-0.222
Mof_Br	Br	0.89645	0	0.7482	-0.222
Mof_N 	N 	0.5261	0.25	0.85605	-0.252
Mof_N 	N 	0.9739	0.25	0.64395	-0.252
Mof_O 	O 	0.57385	0.2952	0.78695	-0.476
Mof_O 	O 	0.55345	0.2949	0.71755	-0.479
Mof_O 	O 	0.92615	0.2952	0.71305	-0.476
Mof_O 	O 	0.94655	0.2949	0.78245	-0.479
Mof_O 	O 	0.92615	0.2048	0.71305	-0.476
Mof_O 	O 	0.94655	0.2051	0.78245	-0.479
Mof_O 	O 	0.57385	0.2048	0.78695	-0.476
Mof_O 	O 	0.55345	0.2051	0.71755	-0.479
Mof_Zn	Zn	0.01348	0.75	0.7963	1.222
Mof_Zn	Zn	0.48652	0.75	0.7037	1.222
Mof_H 	H 	0.13863	0.85267	0.82006	0.038
Mof_H 	H 	0.20404	0.91697	0.81981	0.055
Mof_H 	H 	0.16366	0.91475	0.68245	0.055
Mof_H 	H 	0.10196	0.85086	0.68254	0.037
Mof_H 	H 	0.36137	0.85267	0.67994	0.038
Mof_H 	H 	0.29596	0.91697	0.68019	0.055
Mof_H 	H 	0.33634	0.91475	0.81755	0.055
Mof_H 	H 	0.39826	0.85055	0.81725	0.037
Mof_H 	H 	0.36137	0.64733	0.67994	0.039
Mof_H 	H 	0.29596	0.58303	0.68019	0.056
Mof_H 	H 	0.33634	0.58525	0.81755	0.056
Mof_H 	H 	0.39826	0.64945	0.81725	0.038
Mof_H 	H 	0.13863	0.64733	0.82006	0.039
Mof_H 	H 	0.20404	0.58303	0.81981	0.056
Mof_H 	H 	0.16366	0.58525	0.68245	0.056
Mof_H 	H 	0.10196	0.64914	0.68254	0.037
Mof_H 	H 	0.42693	0.75	0.85025	0.022
Mof_H 	H 	0.42783	0.75	0.92938	0.046
Mof_H 	H 	0.12133	0.75	0.87507	0.021
Mof_H 	H 	0.08152	0.75	0.51286	0.044
Mof_H 	H 	0.07307	0.75	0.64975	0.022
Mof_H 	H 	0.07217	0.75	0.57062	0.046
Mof_H 	H 	0.37867	0.75	0.62493	0.021
Mof_H 	H 	0.41848	0.75	0.98714	0.044
Mof_C 	C 	0.0776	0.80835	0.75215	0.431
Mof_C 	C 	0.1197	0.84725	0.75195	-0.113
Mof_C 	C 	0.14545	0.86645	0.7889	0.046
Mof_C 	C 	0.1797	0.90245	0.7888	-0.071
Mof_C 	C 	0.1844	0.92095	0.7507	0.069
Mof_C 	C 	0.158	0.90115	0.71395	-0.073
Mof_C 	C 	0.1251	0.86565	0.7137	0.045
Mof_C 	C 	0.22005	0.96125	0.75155	-0.037
Mof_C 	C 	0.4224	0.80835	0.74785	0.431
Mof_C 	C 	0.3803	0.84725	0.74805	-0.113
Mof_C 	C 	0.35455	0.86645	0.7111	0.046
Mof_C 	C 	0.3203	0.90245	0.7112	-0.071
Mof_C 	C 	0.3156	0.92095	0.7493	0.068
Mof_C 	C 	0.342	0.90115	0.78605	-0.073
Mof_C 	C 	0.3749	0.86565	0.7863	0.045
Mof_C 	C 	0.27995	0.96125	0.74845	-0.037
Mof_C 	C 	0.4224	0.69165	0.74785	0.431
Mof_C 	C 	0.3803	0.65275	0.74805	-0.113
Mof_C 	C 	0.35455	0.63355	0.7111	0.046
Mof_C 	C 	0.3203	0.59755	0.7112	-0.07
Mof_C 	C 	0.3156	0.57905	0.7493	0.068
Mof_C 	C 	0.342	0.59885	0.78605	-0.072
Mof_C 	C 	0.3749	0.63435	0.7863	0.045
Mof_C 	C 	0.27995	0.53875	0.74845	-0.033
Mof_C 	C 	0.0776	0.69165	0.75215	0.431
Mof_C 	C 	0.1197	0.65275	0.75195	-0.113
Mof_C 	C 	0.14545	0.63355	0.7889	0.046
Mof_C 	C 	0.1797	0.59755	0.7888	-0.07
Mof_C 	C 	0.1844	0.57905	0.7507	0.068
Mof_C 	C 	0.158	0.59885	0.71395	-0.072
Mof_C 	C 	0.1251	0.63435	0.7137	0.045
Mof_C 	C 	0.22005	0.53875	0.75155	-0.033
Mof_C 	C 	0.18905	0.5	0.7516	0.092
Mof_C 	C 	0.31095	0.5	0.7484	0.092
Mof_C 	C 	0.4725	0.75	0.87385	0.027
Mof_C 	C 	0.473	0.75	0.9178	-0.064
Mof_C 	C 	0.0263	0.75	0.9483	0.046
Mof_C 	C 	0.0795	0.75	0.9315	-0.044
Mof_C 	C 	0.077	0.75	0.8877	0.049
Mof_C 	C 	0.0335	0.75	0.9922	-0.05
Mof_C 	C 	0.137	0.75	0.9585	0.022
Mof_C 	C 	0.19	0.75	0.977	-0.051
Mof_C 	C 	0.0275	0.75	0.62615	0.027
Mof_C 	C 	0.027	0.75	0.5822	-0.064
Mof_C 	C 	0.4737	0.75	0.5517	0.046
Mof_C 	C 	0.4205	0.75	0.5685	-0.044
Mof_C 	C 	0.423	0.75	0.6123	0.049
Mof_C 	C 	0.4665	0.75	0.5078	-0.05
Mof_C 	C 	0.363	0.75	0.5415	0.023
Mof_C 	C 	0.31	0.75	0.523	-0.054
Mof_Br	Br	0.10355	0.5	0.7518	-0.225
Mof_Br	Br	0.39645	0.5	0.7482	-0.225
Mof_N 	N 	0.0261	0.75	0.85605	-0.252
Mof_N 	N 	0.4739	0.75	0.64395	-0.252
Mof_O 	O 	0.07385	0.7952	0.78695	-0.476
Mof_O 	O 	0.05345	0.7949	0.71755	-0.48
Mof_O 	O 	0.42615	0.7952	0.71305	-0.476
Mof_O 	O 	0.44655	0.7949	0.78245	-0.48
Mof_O 	O 	0.42615	0.7048	0.71305	-0.476
Mof_O 	O 	0.44655	0.7051	0.78245	-0.48
Mof_O 	O 	0.07385	0.7048	0.78695	-0.476
Mof_O 	O 	0.05345	0.7051	0.71755	-0.479
Mof_Zn	Zn	0.51348	0.75	0.7963	1.222
Mof_Zn	Zn	0.98652	0.75	0.7037	1.222
Mof_H 	H 	0.63863	0.85267	0.82006	0.038
Mof_H 	H 	0.70404	0.91697	0.81981	0.055
Mof_H 	H 	0.66366	0.91475	0.68245	0.055
Mof_H 	H 	0.60196	0.85086	0.68254	0.037
Mof_H 	H 	0.86137	0.85267	0.67994	0.038
Mof_H 	H 	0.79596	0.91697	0.68019	0.055
Mof_H 	H 	0.83634	0.91475	0.81755	0.055
Mof_H 	H 	0.89826	0.85055	0.81725	0.037
Mof_H 	H 	0.86137	0.64733	0.67994	0.039
Mof_H 	H 	0.79596	0.58303	0.68019	0.056
Mof_H 	H 	0.83634	0.58525	0.81755	0.056
Mof_H 	H 	0.89826	0.64945	0.81725	0.038
Mof_H 	H 	0.63863	0.64733	0.82006	0.039
Mof_H 	H 	0.70404	0.58303	0.81981	0.056
Mof_H 	H 	0.66366	0.58525	0.68245	0.056
Mof_H 	H 	0.60196	0.64914	0.68254	0.037
Mof_H 	H 	0.92693	0.75	0.85025	0.022
Mof_H 	H 	0.92783	0.75	0.92938	0.046
Mof_H 	H 	0.62133	0.75	0.87507	0.021
Mof_H 	H 	0.58152	0.75	0.51286	0.044
Mof_H 	H 	0.57307	0.75	0.64975	0.022
Mof_H 	H 	0.57217	0.75	0.57062	0.046
Mof_H 	H 	0.87867	0.75	0.62493	0.021
Mof_H 	H 	0.91848	0.75	0.98714	0.044
Mof_C 	C 	0.5776	0.80835	0.75215	0.431
Mof_C 	C 	0.6197	0.84725	0.75195	-0.113
Mof_C 	C 	0.64545	0.86645	0.7889	0.046
Mof_C 	C 	0.6797	0.90245	0.7888	-0.071
Mof_C 	C 	0.6844	0.92095	0.7507	0.069
Mof_C 	C 	0.658	0.90115	0.71395	-0.073
Mof_C 	C 	0.6251	0.86565	0.7137	0.045
Mof_C 	C 	0.72005	0.96125	0.75155	-0.037
Mof_C 	C 	0.9224	0.80835	0.74785	0.431
Mof_C 	C 	0.8803	0.84725	0.74805	-0.113
Mof_C 	C 	0.85455	0.86645	0.7111	0.046
Mof_C 	C 	0.8203	0.90245	0.7112	-0.071
Mof_C 	C 	0.8156	0.92095	0.7493	0.068
Mof_C 	C 	0.842	0.90115	0.78605	-0.073
Mof_C 	C 	0.8749	0.86565	0.7863	0.045
Mof_C 	C 	0.77995	0.96125	0.74845	-0.037
Mof_C 	C 	0.9224	0.69165	0.74785	0.431
Mof_C 	C 	0.8803	0.65275	0.74805	-0.113
Mof_C 	C 	0.85455	0.63355	0.7111	0.046
Mof_C 	C 	0.8203	0.59755	0.7112	-0.07
Mof_C 	C 	0.8156	0.57905	0.7493	0.068
Mof_C 	C 	0.842	0.59885	0.78605	-0.072
Mof_C 	C 	0.8749	0.63435	0.7863	0.045
Mof_C 	C 	0.77995	0.53875	0.74845	-0.033
Mof_C 	C 	0.5776	0.69165	0.75215	0.431
Mof_C 	C 	0.6197	0.65275	0.75195	-0.113
Mof_C 	C 	0.64545	0.63355	0.7889	0.046
Mof_C 	C 	0.6797	0.59755	0.7888	-0.07
Mof_C 	C 	0.6844	0.57905	0.7507	0.068
Mof_C 	C 	0.658	0.59885	0.71395	-0.072
Mof_C 	C 	0.6251	0.63435	0.7137	0.045
Mof_C 	C 	0.72005	0.53875	0.75155	-0.033
Mof_C 	C 	0.68905	0.5	0.7516	0.092
Mof_C 	C 	0.81095	0.5	0.7484	0.092
Mof_C 	C 	0.9725	0.75	0.87385	0.027
Mof_C 	C 	0.973	0.75	0.9178	-0.064
Mof_C 	C 	0.5263	0.75	0.9483	0.047
Mof_C 	C 	0.5795	0.75	0.9315	-0.045
Mof_C 	C 	0.577	0.75	0.8877	0.049
Mof_C 	C 	0.5335	0.75	0.9922	-0.05
Mof_C 	C 	0.637	0.75	0.9585	0.025
Mof_C 	C 	0.69	0.75	0.977	-0.057
Mof_C 	C 	0.5275	0.75	0.62615	0.027
Mof_C 	C 	0.527	0.75	0.5822	-0.064
Mof_C 	C 	0.9737	0.75	0.5517	0.046
Mof_C 	C 	0.9205	0.75	0.5685	-0.044
Mof_C 	C 	0.923	0.75	0.6123	0.049
Mof_C 	C 	0.9665	0.75	0.5078	-0.05
Mof_C 	C 	0.863	0.75	0.5415	0.023
Mof_C 	C 	0.81	0.75	0.523	-0.054
Mof_Br	Br	0.60355	0.5	0.7518	-0.225
Mof_Br	Br	0.89645	0.5	0.7482	-0.225
Mof_N 	N 	0.5261	0.75	0.85605	-0.252
Mof_N 	N 	0.9739	0.75	0.64395	-0.252
Mof_O 	O 	0.57385	0.7952	0.78695	-0.476
Mof_O 	O 	0.55345	0.7949	0.71755	-0.48
Mof_O 	O 	0.92615	0.7952	0.71305	-0.476
Mof_O 	O 	0.94655	0.7949	0.78245	-0.48
Mof_O 	O 	0.92615	0.7048	0.71305	-0.476
Mof_O 	O 	0.94655	0.7051	0.78245	-0.479
Mof_O 	O 	0.57385	0.7048	0.78695	-0.476
Mof_O 	O 	0.55345	0.7051	0.71755	-0.479
Mof_H 	H 	0.23997	0.25	0.49444	0.029
Mof_H 	H 	0.26003	0.25	0.00556	0.034
Mof_H 	H 	0.73997	0.25	0.49444	0.029
Mof_H 	H 	0.76003	0.25	0.00556	0.024
Mof_H 	H 	0.23997	0.75	0.49444	0.029
Mof_H 	H 	0.26003	0.75	0.00556	0.034
Mof_H 	H 	0.73997	0.75	0.49444	0.029
Mof_H 	H 	0.76003	0.75	0.00556	0.024
Mof_H 	H 	0.23997	0.25	0.99444	0.024
Mof_H 	H 	0.26003	0.25	0.50556	0.029
Mof_H 	H 	0.73997	0.25	0.99444	0.034
Mof_H 	H 	0.76003	0.25	0.50556	0.029
Mof_H 	H 	0.23997	0.75	0.99444	0.024
Mof_H 	H 	0.26003	0.75	0.50556	0.029
Mof_H 	H 	0.73997	0.75	0.99444	0.034
Mof_H 	H 	0.76003	0.75	0.50556	0.029
_end
