data_functionalizedCrystal
_audit_creation_method	'EQeq! by Chris Wilmer'
_symmetry_space_group_name_H-M	'P1'
_symmetry_Int_Tables_number	1
_symmetry_cell_setting	triclinic
loop_
_symmetry_equiv_pos_as_xyz
  x,y,z
_cell_length_a	8.5269
_cell_length_b	26.774
_cell_length_c	12.05
_cell_angle_alpha	90
_cell_angle_beta	105.38
_cell_angle_gamma	90
loop_
_atom_site_label
_atom_site_type_symbol
_atom_site_fract_x
_atom_site_fract_y
_atom_site_fract_z
_atom_site_charge
Mof_Gd	Gd	0.21817	0.48156	0.48323	1.781
Mof_Cu	Cu	0.90559	0.30212	0.98927	0.797
Mof_O 	O 	0.0106	0.4408	0.3419	-0.485
Mof_O 	O 	0.7822	0.4484	0.3993	-0.473
Mof_O 	O 	0.0465	0.4569	0.5963	-0.54
Mof_O 	O 	0.8236	0.4487	0.6514	-0.434
Mof_O 	O 	0.4267	0.4682	0.6578	-0.478
Mof_O 	O 	0.5882	0.526	0.6186	-0.518
Mof_N 	N 	0.7837	0.3376	0.0912	-0.249
Mof_N 	N 	0.0326	0.3385	0.8902	-0.237
Mof_N 	N 	0.8201	0.5376	0.9731	-0.15
Mof_C 	C 	0.8582	0.371	0.1743	0.102
Mof_H 	H 	0.9666	0.3789	0.1815	-0.014
Mof_C 	C 	0.7803	0.3934	0.2478	-0.195
Mof_C 	C 	0.6193	0.3816	0.2377	0.1
Mof_H 	H 	0.5625	0.3969	0.2845	0.008
Mof_C 	C 	0.5444	0.3466	0.1565	-0.162
Mof_H 	H 	0.4372	0.3374	0.15	0.091
Mof_C 	C 	0.6283	0.3253	0.0848	0.077
Mof_H 	H 	0.5761	0.3018	0.0307	-0.017
Mof_C 	C 	0.8648	0.4302	0.3364	0.461
Mof_C 	C 	0.9638	0.3734	0.8118	0.076
Mof_H 	H 	0.8565	0.3825	0.8051	-0.001
Mof_C 	C 	0.0466	0.3965	0.7402	-0.166
Mof_C 	C 	0.2061	0.3823	0.7498	0.102
Mof_H 	H 	0.2648	0.3971	0.7036	-0.009
Mof_C 	C 	0.2768	0.346	0.8284	-0.165
Mof_H 	H 	0.3829	0.3354	0.8353	0.092
Mof_C 	C 	0.1857	0.3258	0.8965	0.089
Mof_H 	H 	0.2343	0.3017	0.9502	-0.021
Mof_C 	C 	0.9678	0.4362	0.6581	0.428
Mof_C 	C 	0.7421	0.5358	0.856	0.134
Mof_H 	H 	0.7666	0.5595	0.8069	-0.013
Mof_C 	C 	0.6311	0.4999	0.8126	-0.233
Mof_C 	C 	0.6001	0.4653	0.8901	0.175
Mof_H 	H 	0.5209	0.4412	0.8616	-0.019
Mof_C 	C 	0.674	0.464	0.0004	-0.25
Mof_H 	H 	0.6553	0.4386	0.0479	0.125
Mof_C 	C 	0.776	0.5004	0.0404	0.144
Mof_H 	H 	0.8227	0.5016	0.1194	-0.007
Mof_C 	C 	0.5433	0.4973	0.6887	0.485
Mof_Gd	Gd	0.78183	0.98156	0.51677	1.783
Mof_Cu	Cu	0.09441	0.80212	0.01073	0.798
Mof_O 	O 	0.9894	0.9408	0.6581	-0.485
Mof_O 	O 	0.2178	0.9484	0.6007	-0.473
Mof_O 	O 	0.9535	0.9569	0.4037	-0.54
Mof_O 	O 	0.1764	0.9487	0.3486	-0.434
Mof_O 	O 	0.5733	0.9682	0.3422	-0.477
Mof_O 	O 	0.4118	0.026	0.3814	-0.518
Mof_N 	N 	0.2163	0.8376	0.9088	-0.249
Mof_N 	N 	0.9674	0.8385	0.1098	-0.236
Mof_N 	N 	0.1799	0.0376	0.0269	-0.147
Mof_C 	C 	0.1418	0.871	0.8257	0.102
Mof_H 	H 	0.0334	0.8789	0.8185	-0.015
Mof_C 	C 	0.2197	0.8934	0.7522	-0.195
Mof_C 	C 	0.3807	0.8816	0.7623	0.1
Mof_H 	H 	0.4375	0.8969	0.7155	0.008
Mof_C 	C 	0.4556	0.8466	0.8435	-0.162
Mof_H 	H 	0.5628	0.8374	0.85	0.091
Mof_C 	C 	0.3717	0.8253	0.9152	0.077
Mof_H 	H 	0.4239	0.8018	0.9693	-0.017
Mof_C 	C 	0.1352	0.9302	0.6636	0.461
Mof_C 	C 	0.0362	0.8734	0.1882	0.075
Mof_H 	H 	0.1435	0.8825	0.1949	-0.001
Mof_C 	C 	0.9534	0.8965	0.2598	-0.164
Mof_C 	C 	0.7939	0.8823	0.2502	0.1
Mof_H 	H 	0.7352	0.8971	0.2964	-0.008
Mof_C 	C 	0.7232	0.846	0.1716	-0.164
Mof_H 	H 	0.6171	0.8354	0.1647	0.092
Mof_C 	C 	0.8143	0.8258	0.1035	0.089
Mof_H 	H 	0.7657	0.8017	0.0498	-0.021
Mof_C 	C 	0.0322	0.9362	0.3419	0.427
Mof_C 	C 	0.2579	0.0358	0.144	0.134
Mof_H 	H 	0.2334	0.0595	0.1931	-0.013
Mof_C 	C 	0.3689	0.9999	0.1874	-0.231
Mof_C 	C 	0.3999	0.9653	0.1099	0.167
Mof_H 	H 	0.4791	0.9412	0.1384	-0.016
Mof_C 	C 	0.326	0.964	0.9996	-0.239
Mof_H 	H 	0.3447	0.9386	0.9521	0.121
Mof_C 	C 	0.224	0.0004	0.9596	0.136
Mof_H 	H 	0.1773	0.0016	0.8806	-0.004
Mof_C 	C 	0.4567	0.9973	0.3113	0.484
Mof_Gd	Gd	0.78183	0.51844	0.51677	1.782
Mof_Cu	Cu	0.09441	0.69788	0.01073	0.798
Mof_O 	O 	0.9894	0.5592	0.6581	-0.485
Mof_O 	O 	0.2178	0.5516	0.6007	-0.473
Mof_O 	O 	0.9535	0.5431	0.4037	-0.54
Mof_O 	O 	0.1764	0.5513	0.3486	-0.434
Mof_O 	O 	0.5733	0.5318	0.3422	-0.478
Mof_O 	O 	0.4118	0.474	0.3814	-0.518
Mof_N 	N 	0.2163	0.6624	0.9088	-0.249
Mof_N 	N 	0.9674	0.6615	0.1098	-0.237
Mof_N 	N 	0.1799	0.4624	0.0269	-0.15
Mof_C 	C 	0.1418	0.629	0.8257	0.102
Mof_H 	H 	0.0334	0.6211	0.8185	-0.014
Mof_C 	C 	0.2197	0.6066	0.7522	-0.195
Mof_C 	C 	0.3807	0.6184	0.7623	0.1
Mof_H 	H 	0.4375	0.6031	0.7155	0.008
Mof_C 	C 	0.4556	0.6534	0.8435	-0.162
Mof_H 	H 	0.5628	0.6626	0.85	0.091
Mof_C 	C 	0.3717	0.6747	0.9152	0.077
Mof_H 	H 	0.4239	0.6982	0.9693	-0.017
Mof_C 	C 	0.1352	0.5698	0.6636	0.461
Mof_C 	C 	0.0362	0.6266	0.1882	0.076
Mof_H 	H 	0.1435	0.6175	0.1949	-0.001
Mof_C 	C 	0.9534	0.6035	0.2598	-0.166
Mof_C 	C 	0.7939	0.6177	0.2502	0.102
Mof_H 	H 	0.7352	0.6029	0.2964	-0.009
Mof_C 	C 	0.7232	0.654	0.1716	-0.165
Mof_H 	H 	0.6171	0.6646	0.1647	0.092
Mof_C 	C 	0.8143	0.6742	0.1035	0.089
Mof_H 	H 	0.7657	0.6983	0.0498	-0.021
Mof_C 	C 	0.0322	0.5638	0.3419	0.428
Mof_C 	C 	0.2579	0.4642	0.144	0.134
Mof_H 	H 	0.2334	0.4405	0.1931	-0.013
Mof_C 	C 	0.3689	0.5001	0.1874	-0.233
Mof_C 	C 	0.3999	0.5347	0.1099	0.175
Mof_H 	H 	0.4791	0.5588	0.1384	-0.019
Mof_C 	C 	0.326	0.536	0.9996	-0.25
Mof_H 	H 	0.3447	0.5614	0.9521	0.125
Mof_C 	C 	0.224	0.4996	0.9596	0.144
Mof_H 	H 	0.1773	0.4984	0.8806	-0.007
Mof_C 	C 	0.4567	0.5027	0.3113	0.485
Mof_Gd	Gd	0.21817	0.01844	0.48323	1.783
Mof_Cu	Cu	0.90559	0.19788	0.98927	0.798
Mof_O 	O 	0.0106	0.0592	0.3419	-0.485
Mof_O 	O 	0.7822	0.0516	0.3993	-0.473
Mof_O 	O 	0.0465	0.0431	0.5963	-0.54
Mof_O 	O 	0.8236	0.0513	0.6514	-0.434
Mof_O 	O 	0.4267	0.0318	0.6578	-0.477
Mof_O 	O 	0.5882	0.974	0.6186	-0.518
Mof_N 	N 	0.7837	0.1624	0.0912	-0.249
Mof_N 	N 	0.0326	0.1615	0.8902	-0.236
Mof_N 	N 	0.8201	0.9624	0.9731	-0.147
Mof_C 	C 	0.8582	0.129	0.1743	0.102
Mof_H 	H 	0.9666	0.1211	0.1815	-0.015
Mof_C 	C 	0.7803	0.1066	0.2478	-0.195
Mof_C 	C 	0.6193	0.1184	0.2377	0.1
Mof_H 	H 	0.5625	0.1031	0.2845	0.008
Mof_C 	C 	0.5444	0.1534	0.1565	-0.162
Mof_H 	H 	0.4372	0.1626	0.15	0.091
Mof_C 	C 	0.6283	0.1747	0.0848	0.077
Mof_H 	H 	0.5761	0.1982	0.0307	-0.017
Mof_C 	C 	0.8648	0.0698	0.3364	0.461
Mof_C 	C 	0.9638	0.1266	0.8118	0.075
Mof_H 	H 	0.8565	0.1175	0.8051	-0.001
Mof_C 	C 	0.0466	0.1035	0.7402	-0.164
Mof_C 	C 	0.2061	0.1177	0.7498	0.1
Mof_H 	H 	0.2648	0.1029	0.7036	-0.008
Mof_C 	C 	0.2768	0.154	0.8284	-0.164
Mof_H 	H 	0.3829	0.1646	0.8353	0.092
Mof_C 	C 	0.1857	0.1742	0.8965	0.089
Mof_H 	H 	0.2343	0.1983	0.9502	-0.021
Mof_C 	C 	0.9678	0.0638	0.6581	0.427
Mof_C 	C 	0.7421	0.9642	0.856	0.134
Mof_H 	H 	0.7666	0.9405	0.8069	-0.013
Mof_C 	C 	0.6311	0.0001	0.8126	-0.231
Mof_C 	C 	0.6001	0.0347	0.8901	0.167
Mof_H 	H 	0.5209	0.0588	0.8616	-0.016
Mof_C 	C 	0.674	0.036	0.0004	-0.239
Mof_H 	H 	0.6553	0.0614	0.0479	0.121
Mof_C 	C 	0.776	0.9996	0.0404	0.136
Mof_H 	H 	0.8227	0.9984	0.1194	-0.004
Mof_C 	C 	0.5433	0.0027	0.6887	0.484
Mof_I 	I 	0.13166	0.25	0.14925	-0.424
Mof_I 	I 	0.682	0.25	0.83175	-0.444
Mof_I 	I 	0.86834	0.75	0.85075	-0.424
Mof_I 	I 	0.318	0.75	0.16825	-0.444
_end
