data_functionalizedCrystal
_audit_creation_method	'EQeq! by Chris Wilmer'
_symmetry_space_group_name_H-M	'P1'
_symmetry_Int_Tables_number	1
_symmetry_cell_setting	triclinic
loop_
_symmetry_equiv_pos_as_xyz
  x,y,z
_cell_length_a	11.091
_cell_length_b	11.091
_cell_length_c	19.364
_cell_angle_alpha	90
_cell_angle_beta	90
_cell_angle_gamma	120
loop_
_atom_site_label
_atom_site_type_symbol
_atom_site_fract_x
_atom_site_fract_y
_atom_site_fract_z
_atom_site_charge
Mof_O 	O 	0.6518	0.5504	0.1728	-0.408
Mof_C 	C 	0.614	0.597	0.0355	0.173
Mof_O 	O 	0.723	0.716	0.0692	-0.325
Mof_H 	H 	0.717	0.7029	0.1111	0.256
Mof_O 	O 	0.4496	0.1014	0.1728	-0.407
Mof_C 	C 	0.403	0.017	0.0355	0.174
Mof_O 	O 	0.284	0.007	0.0692	-0.324
Mof_H 	H 	0.2971	0.0141	0.1111	0.257
Mof_O 	O 	0.8986	0.3482	0.1728	-0.407
Mof_C 	C 	0.983	0.386	0.0355	0.174
Mof_O 	O 	0.993	0.277	0.0692	-0.324
Mof_H 	H 	0.9859	0.283	0.1111	0.257
Mof_O 	O 	0.3482	0.4496	0.6728	-0.407
Mof_C 	C 	0.386	0.403	0.5355	0.174
Mof_O 	O 	0.277	0.284	0.5692	-0.324
Mof_H 	H 	0.283	0.2971	0.6111	0.257
Mof_O 	O 	0.5504	0.8986	0.6728	-0.407
Mof_C 	C 	0.597	0.983	0.5355	0.174
Mof_O 	O 	0.716	0.993	0.5692	-0.324
Mof_H 	H 	0.7029	0.9859	0.6111	0.257
Mof_O 	O 	0.1014	0.6518	0.6728	-0.407
Mof_C 	C 	0.017	0.614	0.5355	0.174
Mof_O 	O 	0.007	0.723	0.5692	-0.324
Mof_H 	H 	0.0141	0.717	0.6111	0.257
Mof_O 	O 	0.5504	0.6518	0.8272	-0.407
Mof_C 	C 	0.597	0.614	0.9645	0.174
Mof_O 	O 	0.716	0.723	0.9308	-0.324
Mof_H 	H 	0.7029	0.717	0.8889	0.257
Mof_O 	O 	0.1014	0.4496	0.8272	-0.407
Mof_C 	C 	0.017	0.403	0.9645	0.174
Mof_O 	O 	0.007	0.284	0.9308	-0.324
Mof_H 	H 	0.0141	0.2971	0.8889	0.257
Mof_O 	O 	0.3482	0.8986	0.8272	-0.407
Mof_C 	C 	0.386	0.983	0.9645	0.174
Mof_O 	O 	0.277	0.993	0.9308	-0.324
Mof_H 	H 	0.283	0.9859	0.8889	0.257
Mof_O 	O 	0.4496	0.3482	0.3272	-0.407
Mof_C 	C 	0.403	0.386	0.4645	0.174
Mof_O 	O 	0.284	0.277	0.4308	-0.324
Mof_H 	H 	0.2971	0.283	0.3889	0.257
Mof_O 	O 	0.8986	0.5504	0.3272	-0.407
Mof_C 	C 	0.983	0.597	0.4645	0.174
Mof_O 	O 	0.993	0.716	0.4308	-0.324
Mof_H 	H 	0.9859	0.7029	0.3889	0.257
Mof_O 	O 	0.6518	0.1014	0.3272	-0.407
Mof_C 	C 	0.614	0.017	0.4645	0.174
Mof_O 	O 	0.723	0.007	0.4308	-0.324
Mof_H 	H 	0.717	0.0141	0.3889	0.257
Mof_O 	O 	0.3482	0.4496	0.8272	-0.407
Mof_C 	C 	0.386	0.403	0.9645	0.174
Mof_O 	O 	0.277	0.284	0.9308	-0.324
Mof_H 	H 	0.283	0.2971	0.8889	0.257
Mof_O 	O 	0.5504	0.8986	0.8272	-0.407
Mof_C 	C 	0.597	0.983	0.9645	0.174
Mof_O 	O 	0.716	0.993	0.9308	-0.324
Mof_H 	H 	0.7029	0.9859	0.8889	0.257
Mof_O 	O 	0.1014	0.6518	0.8272	-0.407
Mof_C 	C 	0.017	0.614	0.9645	0.174
Mof_O 	O 	0.007	0.723	0.9308	-0.324
Mof_H 	H 	0.0141	0.717	0.8889	0.257
Mof_O 	O 	0.6518	0.5504	0.3272	-0.407
Mof_C 	C 	0.614	0.597	0.4645	0.174
Mof_O 	O 	0.723	0.716	0.4308	-0.324
Mof_H 	H 	0.717	0.7029	0.3889	0.257
Mof_O 	O 	0.4496	0.1014	0.3272	-0.407
Mof_C 	C 	0.403	0.017	0.4645	0.174
Mof_O 	O 	0.284	0.007	0.4308	-0.324
Mof_H 	H 	0.2971	0.0141	0.3889	0.257
Mof_O 	O 	0.8986	0.3482	0.3272	-0.407
Mof_C 	C 	0.983	0.386	0.4645	0.174
Mof_O 	O 	0.993	0.277	0.4308	-0.324
Mof_H 	H 	0.9859	0.283	0.3889	0.257
Mof_O 	O 	0.4496	0.3482	0.1728	-0.407
Mof_C 	C 	0.403	0.386	0.0355	0.174
Mof_O 	O 	0.284	0.277	0.0692	-0.324
Mof_H 	H 	0.2971	0.283	0.1111	0.257
Mof_O 	O 	0.8986	0.5504	0.1728	-0.407
Mof_C 	C 	0.983	0.597	0.0355	0.174
Mof_O 	O 	0.993	0.716	0.0692	-0.324
Mof_H 	H 	0.9859	0.7029	0.1111	0.257
Mof_O 	O 	0.6518	0.1014	0.1728	-0.407
Mof_C 	C 	0.614	0.017	0.0355	0.174
Mof_O 	O 	0.723	0.007	0.0692	-0.324
Mof_H 	H 	0.717	0.0141	0.1111	0.257
Mof_O 	O 	0.5504	0.6518	0.6728	-0.407
Mof_C 	C 	0.597	0.614	0.5355	0.174
Mof_O 	O 	0.716	0.723	0.5692	-0.324
Mof_H 	H 	0.7029	0.717	0.6111	0.257
Mof_O 	O 	0.1014	0.4496	0.6728	-0.407
Mof_C 	C 	0.017	0.403	0.5355	0.174
Mof_O 	O 	0.007	0.284	0.5692	-0.324
Mof_H 	H 	0.0141	0.2971	0.6111	0.257
Mof_O 	O 	0.3482	0.8986	0.6728	-0.407
Mof_C 	C 	0.386	0.983	0.5355	0.174
Mof_O 	O 	0.277	0.993	0.5692	-0.324
Mof_H 	H 	0.283	0.9859	0.6111	0.257
Mof_Fe	Fe	0.76655	0.5331	0.25	0.952
Mof_Fe	Fe	0.4669	0.23345	0.25	0.952
Mof_Fe	Fe	0.76655	0.23345	0.25	0.952
Mof_Fe	Fe	0.23345	0.4669	0.75	0.952
Mof_Fe	Fe	0.5331	0.76655	0.75	0.952
Mof_Fe	Fe	0.23345	0.76655	0.75	0.952
Mof_O 	O 	0.66667	0.33333	0.25	-0.532
Mof_O 	O 	0.33333	0.66667	0.75	-0.532
Mof_C 	C 	0.5428	0.4572	0.1437	0.439
Mof_C 	C 	0.5216	0.4784	0.0697	-0.226
Mof_C 	C 	0.5428	0.0856	0.1437	0.439
Mof_C 	C 	0.5216	0.0432	0.0697	-0.226
Mof_C 	C 	0.9144	0.4572	0.1437	0.439
Mof_C 	C 	0.9568	0.4784	0.0697	-0.226
Mof_C 	C 	0.4572	0.5428	0.6437	0.439
Mof_C 	C 	0.4784	0.5216	0.5697	-0.226
Mof_C 	C 	0.4572	0.9144	0.6437	0.439
Mof_C 	C 	0.4784	0.9568	0.5697	-0.226
Mof_C 	C 	0.0856	0.5428	0.6437	0.439
Mof_C 	C 	0.0432	0.5216	0.5697	-0.226
Mof_C 	C 	0.4572	0.5428	0.8563	0.439
Mof_C 	C 	0.4784	0.5216	0.9303	-0.226
Mof_C 	C 	0.0856	0.5428	0.8563	0.439
Mof_C 	C 	0.0432	0.5216	0.9303	-0.226
Mof_C 	C 	0.4572	0.9144	0.8563	0.439
Mof_C 	C 	0.4784	0.9568	0.9303	-0.226
Mof_C 	C 	0.5428	0.4572	0.3563	0.439
Mof_C 	C 	0.5216	0.4784	0.4303	-0.226
Mof_C 	C 	0.9144	0.4572	0.3563	0.439
Mof_C 	C 	0.9568	0.4784	0.4303	-0.226
Mof_C 	C 	0.5428	0.0856	0.3563	0.439
Mof_C 	C 	0.5216	0.0432	0.4303	-0.226
_end
