data_functionalizedCrystal
_audit_creation_method	'EQeq! by Chris Wilmer'
_symmetry_space_group_name_H-M	'P1'
_symmetry_Int_Tables_number	1
_symmetry_cell_setting	triclinic
loop_
_symmetry_equiv_pos_as_xyz
  x,y,z
_cell_length_a	54.78
_cell_length_b	16.07
_cell_length_c	12.328
_cell_angle_alpha	90
_cell_angle_beta	96.78
_cell_angle_gamma	90
loop_
_atom_site_label
_atom_site_type_symbol
_atom_site_fract_x
_atom_site_fract_y
_atom_site_fract_z
_atom_site_charge
Mof_Nd	Nd	0.77168	0.02422	0.38384	1.935
Mof_Nd	Nd	0.90423	0.05331	0.18013	2.314
Mof_Nd	Nd	0.82821	0.3388	0.21386	2.017
Mof_N 	N 	0.81638	0.0545	0.4881	-0.21
Mof_C 	C 	0.81914	0.0334	0.5945	-0.129
Mof_C 	C 	0.8423	0.0182	0.6512	0.085
Mof_H 	H 	0.8437	0.0079	0.7259	-0.002
Mof_N 	N 	0.86231	0.0182	0.6004	-0.205
Mof_C 	C 	0.85945	0.0398	0.4951	-0.109
Mof_C 	C 	0.83672	0.0622	0.4411	0.079
Mof_H 	H 	0.8358	0.083	0.3704	-0.018
Mof_C 	C 	0.7961	0.0168	0.6466	0.412
Mof_O 	O 	0.7761	0.0146	0.5835	-0.555
Mof_O 	O 	0.7987	0.002	0.746	-0.552
Mof_C 	C 	0.88239	0.0344	0.4369	0.446
Mof_O 	O 	0.90126	0.0054	0.4931	-0.517
Mof_O 	O 	0.88071	0.0551	0.3387	-0.541
Mof_N 	N 	0.75778	0.1723	0.4677	-0.199
Mof_C 	C 	0.76572	0.2424	0.4272	-0.113
Mof_C 	C 	0.75785	0.3207	0.458	0.06
Mof_H 	H 	0.7636	0.3683	0.4263	-0.006
Mof_C 	C 	0.78463	0.2323	0.3474	0.396
Mof_O 	O 	0.78919	0.1576	0.3224	-0.525
Mof_O 	O 	0.79459	0.2963	0.3147	-0.547
Mof_N 	N 	0.8332	0.4727	0.0813	-0.212
Mof_C 	C 	0.81098	0.4993	0.0337	-0.143
Mof_C 	C 	0.80884	0.5399	0.9334	0.075
Mof_H 	H 	0.7934	0.5566	0.9017	-0.014
Mof_N 	N 	0.82841	0.5554	0.8812	-0.213
Mof_C 	C 	0.85011	0.5294	0.9303	-0.131
Mof_C 	C 	0.85265	0.4888	0.0304	0.069
Mof_H 	H 	0.8682	0.4726	0.062	-0.016
Mof_C 	C 	0.78924	0.4781	0.0917	0.409
Mof_O 	O 	0.76914	0.5104	0.0562	-0.547
Mof_O 	O 	0.79322	0.4299	0.1722	-0.574
Mof_C 	C 	0.87141	0.5427	0.8658	0.473
Mof_O 	O 	0.86732	0.5857	0.7803	-0.538
Mof_O 	O 	0.89127	0.5069	0.8992	-0.669
Mof_N 	N 	0.90854	0.1749	0.0265	-0.213
Mof_C 	C 	0.89392	0.2399	0.0332	-0.133
Mof_C 	C 	0.8973	0.3148	0.9782	0.098
Mof_H 	H 	0.8861	0.358	0.9813	-0.039
Mof_N 	N 	0.91634	0.3249	0.9216	-0.229
Mof_C 	C 	0.93052	0.2583	0.9152	-0.105
Mof_C 	C 	0.92663	0.1832	0.9629	0.101
Mof_H 	H 	0.9366	0.138	0.9511	-0.001
Mof_C 	C 	0.87355	0.2311	0.1055	0.422
Mof_O 	O 	0.87101	0.1593	0.1457	-0.561
Mof_O 	O 	0.86119	0.2942	0.1195	-0.581
Mof_C 	C 	0.95266	0.2714	0.852	0.517
Mof_O 	O 	0.95576	0.3444	0.8184	-0.596
Mof_O 	O 	0.96608	0.2096	0.8422	-0.583
Mof_N 	N 	0.99945	0.9364	0.0752	-0.229
Mof_C 	C 	0.9833	0.999	0.0697	-0.131
Mof_C 	C 	0.9843	0.0629	0.9952	0.109
Mof_H 	H 	0.9731	0.1065	0.9948	-0.021
Mof_C 	C 	0.96397	0.9959	0.147	0.479
Mof_O 	O 	0.96806	0.9459	0.2252	-0.574
Mof_O 	O 	0.94543	0.0412	0.1255	-0.571
Mof_O 	O 	0.9077	0.907	0.2269	-0.44
Mof_O 	O 	0.9638	0.8145	0.098	-0.198
Mof_Nd	Nd	0.93094	0.47201	0.84031	3.775
Mof_N 	N 	0.97701	0.4906	0.9405	-0.276
Mof_C 	C 	0.97961	0.4945	0.0485	-0.159
Mof_C 	C 	0.9973	0.4955	0.8935	0.15
Mof_H 	H 	0.9961	0.4921	0.8178	-0.023
Mof_C 	C 	0.9565	0.4882	0.1014	0.551
Mof_O 	O 	0.93724	0.4682	0.0408	-0.715
Mof_O 	O 	0.95796	0.5031	0.2012	-0.687
Mof_O 	O 	0.9432	0.6204	0.8849	-0.246
Mof_O 	O 	0.9037	0.4027	0.7013	-6.443
Mof_O 	O 	0.9119	0.891	0.169	-0.078
Mof_N 	N 	0.9001	0.866	0.222	0.279
Mof_O 	O 	0.8882	0.911	0.271	-0.205
Mof_O 	O 	0.8987	0.781	0.23	-0.235
Mof_O 	O 	0.8893	0.595	0.237	1.278
Mof_N 	N 	0.898	0.615	0.168	4.39
Mof_O 	O 	0.9182	0.6095	0.155	0.941
Mof_O 	O 	0.8816	0.651	0.075	-0.875
Mof_O 	O 	0.9359	0.3872	0.4263	-0.316
Mof_O 	O 	0.9769	0.762	0.1078	-0.308
Mof_O 	O 	0.0055	0.6831	0.3039	-0.218
Mof_Nd	Nd	0.27168	0.52422	0.38384	1.94
Mof_Nd	Nd	0.40423	0.55331	0.18013	2.32
Mof_Nd	Nd	0.32821	0.8388	0.21386	2.02
Mof_N 	N 	0.31638	0.5545	0.4881	-0.211
Mof_C 	C 	0.31914	0.5334	0.5945	-0.132
Mof_C 	C 	0.3423	0.5182	0.6512	0.085
Mof_H 	H 	0.3437	0.5079	0.7259	-0.005
Mof_N 	N 	0.36231	0.5182	0.6004	-0.208
Mof_C 	C 	0.35945	0.5398	0.4951	-0.109
Mof_C 	C 	0.33672	0.5622	0.4411	0.079
Mof_H 	H 	0.3358	0.583	0.3704	-0.018
Mof_C 	C 	0.2961	0.5168	0.6466	0.413
Mof_O 	O 	0.2761	0.5146	0.5835	-0.557
Mof_O 	O 	0.2987	0.502	0.746	-0.557
Mof_C 	C 	0.38239	0.5344	0.4369	0.446
Mof_O 	O 	0.40126	0.5054	0.4931	-0.518
Mof_O 	O 	0.38071	0.5551	0.3387	-0.541
Mof_N 	N 	0.25778	0.6723	0.4677	-0.199
Mof_C 	C 	0.26572	0.7424	0.4272	-0.113
Mof_C 	C 	0.25785	0.8207	0.458	0.059
Mof_H 	H 	0.2636	0.8683	0.4263	-0.005
Mof_C 	C 	0.28463	0.7323	0.3474	0.397
Mof_O 	O 	0.28919	0.6576	0.3224	-0.525
Mof_O 	O 	0.29459	0.7963	0.3147	-0.546
Mof_N 	N 	0.3332	0.9727	0.0813	-0.212
Mof_C 	C 	0.31098	0.9993	0.0337	-0.142
Mof_C 	C 	0.30884	0.0399	0.9334	0.077
Mof_H 	H 	0.2934	0.0566	0.9017	-0.013
Mof_N 	N 	0.32841	0.0554	0.8812	-0.213
Mof_C 	C 	0.35011	0.0294	0.9303	-0.129
Mof_C 	C 	0.35265	0.9888	0.0304	0.071
Mof_H 	H 	0.3682	0.9726	0.062	-0.015
Mof_C 	C 	0.28924	0.9781	0.0917	0.418
Mof_O 	O 	0.26914	0.0104	0.0562	-0.554
Mof_O 	O 	0.29322	0.9299	0.1722	-0.575
Mof_C 	C 	0.37141	0.0427	0.8658	0.472
Mof_O 	O 	0.36732	0.0857	0.7803	-0.537
Mof_O 	O 	0.39127	0.0069	0.8992	-0.663
Mof_N 	N 	0.40854	0.6749	0.0265	-0.21
Mof_C 	C 	0.39392	0.7399	0.0332	-0.123
Mof_C 	C 	0.3973	0.8148	0.9782	0.087
Mof_H 	H 	0.3861	0.858	0.9813	-0.038
Mof_N 	N 	0.41634	0.8249	0.9216	-0.228
Mof_C 	C 	0.43052	0.7583	0.9152	-0.104
Mof_C 	C 	0.42663	0.6832	0.9629	0.092
Mof_H 	H 	0.4366	0.638	0.9511	-0
Mof_C 	C 	0.37355	0.7311	0.1055	0.42
Mof_O 	O 	0.37101	0.6593	0.1457	-0.56
Mof_O 	O 	0.36119	0.7942	0.1195	-0.579
Mof_C 	C 	0.45266	0.7714	0.852	0.516
Mof_O 	O 	0.45576	0.8444	0.8184	-0.594
Mof_O 	O 	0.46608	0.7096	0.8422	-0.584
Mof_N 	N 	0.49945	0.4364	0.0752	-0.231
Mof_C 	C 	0.4833	0.499	0.0697	-0.13
Mof_C 	C 	0.4843	0.5629	0.9952	0.104
Mof_H 	H 	0.4731	0.6065	0.9948	-0.021
Mof_C 	C 	0.46397	0.4959	0.147	0.471
Mof_O 	O 	0.46806	0.4459	0.2252	-0.574
Mof_O 	O 	0.44543	0.5412	0.1255	-0.565
Mof_O 	O 	0.4077	0.407	0.2269	-0.441
Mof_O 	O 	0.4638	0.3145	0.098	-0.199
Mof_Nd	Nd	0.43094	0.97201	0.84031	3.753
Mof_N 	N 	0.47701	0.9906	0.9405	-0.278
Mof_C 	C 	0.47961	0.9945	0.0485	-0.146
Mof_C 	C 	0.4973	0.9955	0.8935	0.135
Mof_H 	H 	0.4961	0.9921	0.8178	-0.019
Mof_C 	C 	0.4565	0.9882	0.1014	0.553
Mof_O 	O 	0.43724	0.9682	0.0408	-0.709
Mof_O 	O 	0.45796	0.0031	0.2012	-0.691
Mof_O 	O 	0.4432	0.1204	0.8849	-0.243
Mof_O 	O 	0.4037	0.9027	0.7013	-6.41
Mof_O 	O 	0.4119	0.391	0.169	-0.082
Mof_N 	N 	0.4001	0.366	0.222	0.28
Mof_O 	O 	0.3882	0.411	0.271	-0.207
Mof_O 	O 	0.3987	0.281	0.23	-0.236
Mof_O 	O 	0.3893	0.095	0.237	1.272
Mof_N 	N 	0.398	0.115	0.168	4.379
Mof_O 	O 	0.4182	0.1095	0.155	0.936
Mof_O 	O 	0.3816	0.151	0.075	-0.878
Mof_O 	O 	0.4359	0.8872	0.4263	-0.316
Mof_O 	O 	0.4769	0.262	0.1078	-0.31
Mof_O 	O 	0.5055	0.1831	0.3039	-0.217
Mof_Nd	Nd	0.22832	0.02422	0.11616	1.927
Mof_Nd	Nd	0.09577	0.05331	0.31987	2.314
Mof_Nd	Nd	0.17179	0.3388	0.28614	2.017
Mof_N 	N 	0.18362	0.0545	0.0119	-0.216
Mof_C 	C 	0.18086	0.0334	0.9055	-0.123
Mof_C 	C 	0.1577	0.0182	0.8488	0.083
Mof_H 	H 	0.1563	0.0079	0.7741	-0.003
Mof_N 	N 	0.13769	0.0182	0.8996	-0.201
Mof_C 	C 	0.14055	0.0398	0.0049	-0.118
Mof_C 	C 	0.16328	0.0622	0.0589	0.082
Mof_H 	H 	0.1642	0.083	0.1296	-0.019
Mof_C 	C 	0.2039	0.0168	0.8534	0.411
Mof_O 	O 	0.2239	0.0146	0.9165	-0.551
Mof_O 	O 	0.2013	0.002	0.754	-0.554
Mof_C 	C 	0.11761	0.0344	0.0631	0.448
Mof_O 	O 	0.09874	0.0054	0.0069	-0.522
Mof_O 	O 	0.11929	0.0551	0.1613	-0.542
Mof_N 	N 	0.24222	0.1723	0.0323	-0.203
Mof_C 	C 	0.23428	0.2424	0.0728	-0.112
Mof_C 	C 	0.24215	0.3207	0.042	0.055
Mof_H 	H 	0.2364	0.3683	0.0737	-0.005
Mof_C 	C 	0.21537	0.2323	0.1526	0.396
Mof_O 	O 	0.21081	0.1576	0.1776	-0.524
Mof_O 	O 	0.20541	0.2963	0.1853	-0.547
Mof_N 	N 	0.1668	0.4727	0.4187	-0.212
Mof_C 	C 	0.18902	0.4993	0.4663	-0.143
Mof_C 	C 	0.19116	0.5399	0.5666	0.076
Mof_H 	H 	0.2066	0.5566	0.5983	-0.014
Mof_N 	N 	0.17159	0.5554	0.6188	-0.213
Mof_C 	C 	0.14989	0.5294	0.5697	-0.13
Mof_C 	C 	0.14735	0.4888	0.4696	0.068
Mof_H 	H 	0.1318	0.4726	0.438	-0.016
Mof_C 	C 	0.21076	0.4781	0.4083	0.41
Mof_O 	O 	0.23086	0.5104	0.4438	-0.547
Mof_O 	O 	0.20678	0.4299	0.3278	-0.574
Mof_C 	C 	0.12859	0.5427	0.6342	0.473
Mof_O 	O 	0.13268	0.5857	0.7197	-0.538
Mof_O 	O 	0.10873	0.5069	0.6008	-0.669
Mof_N 	N 	0.09146	0.1749	0.4735	-0.211
Mof_C 	C 	0.10608	0.2399	0.4668	-0.129
Mof_C 	C 	0.1027	0.3148	0.5218	0.094
Mof_H 	H 	0.1139	0.358	0.5187	-0.037
Mof_N 	N 	0.08366	0.3249	0.5784	-0.228
Mof_C 	C 	0.06948	0.2583	0.5848	-0.105
Mof_C 	C 	0.07337	0.1832	0.5371	0.096
Mof_H 	H 	0.0634	0.138	0.5489	-0.001
Mof_C 	C 	0.12645	0.2311	0.3945	0.421
Mof_O 	O 	0.12899	0.1593	0.3543	-0.56
Mof_O 	O 	0.13881	0.2942	0.3805	-0.58
Mof_C 	C 	0.04734	0.2714	0.648	0.517
Mof_O 	O 	0.04424	0.3444	0.6816	-0.596
Mof_O 	O 	0.03392	0.2096	0.6578	-0.584
Mof_N 	N 	0.00055	0.9364	0.4248	-0.231
Mof_C 	C 	0.0167	0.999	0.4303	-0.13
Mof_C 	C 	0.0157	0.0629	0.5048	0.103
Mof_H 	H 	0.0269	0.1065	0.5052	-0.02
Mof_C 	C 	0.03603	0.9959	0.353	0.473
Mof_O 	O 	0.03194	0.9459	0.2748	-0.574
Mof_O 	O 	0.05457	0.0412	0.3745	-0.567
Mof_O 	O 	0.0923	0.907	0.2731	-0.439
Mof_O 	O 	0.0362	0.8145	0.402	-0.199
Mof_Nd	Nd	0.06906	0.47201	0.65969	3.775
Mof_N 	N 	0.02299	0.4906	0.5595	-0.275
Mof_C 	C 	0.02039	0.4945	0.4515	-0.163
Mof_C 	C 	0.0027	0.4955	0.6065	0.145
Mof_H 	H 	0.0039	0.4921	0.6822	-0.022
Mof_C 	C 	0.0435	0.4882	0.3986	0.552
Mof_O 	O 	0.06276	0.4682	0.4592	-0.715
Mof_O 	O 	0.04204	0.5031	0.2988	-0.688
Mof_O 	O 	0.0568	0.6204	0.6151	-0.246
Mof_O 	O 	0.0963	0.4027	0.7987	-6.444
Mof_O 	O 	0.0881	0.891	0.331	-0.081
Mof_N 	N 	0.0999	0.866	0.278	0.279
Mof_O 	O 	0.1118	0.911	0.229	-0.205
Mof_O 	O 	0.1013	0.781	0.27	-0.235
Mof_O 	O 	0.1107	0.595	0.263	1.277
Mof_N 	N 	0.102	0.615	0.332	4.389
Mof_O 	O 	0.0818	0.6095	0.345	0.94
Mof_O 	O 	0.1184	0.651	0.425	-0.876
Mof_O 	O 	0.0641	0.3872	0.0737	-0.318
Mof_O 	O 	0.0231	0.762	0.3922	-0.309
Mof_O 	O 	0.9945	0.6831	0.1961	-0.216
Mof_Nd	Nd	0.72832	0.52422	0.11616	1.939
Mof_Nd	Nd	0.59577	0.55331	0.31987	2.32
Mof_Nd	Nd	0.67179	0.8388	0.28614	2.019
Mof_N 	N 	0.68362	0.5545	0.0119	-0.211
Mof_C 	C 	0.68086	0.5334	0.9055	-0.132
Mof_C 	C 	0.6577	0.5182	0.8488	0.085
Mof_H 	H 	0.6563	0.5079	0.7741	-0.005
Mof_N 	N 	0.63769	0.5182	0.8996	-0.207
Mof_C 	C 	0.64055	0.5398	0.0049	-0.11
Mof_C 	C 	0.66328	0.5622	0.0589	0.079
Mof_H 	H 	0.6642	0.583	0.1296	-0.018
Mof_C 	C 	0.7039	0.5168	0.8534	0.413
Mof_O 	O 	0.7239	0.5146	0.9165	-0.557
Mof_O 	O 	0.7013	0.502	0.754	-0.557
Mof_C 	C 	0.61761	0.5344	0.0631	0.447
Mof_O 	O 	0.59874	0.5054	0.0069	-0.519
Mof_O 	O 	0.61929	0.5551	0.1613	-0.541
Mof_N 	N 	0.74222	0.6723	0.0323	-0.197
Mof_C 	C 	0.73428	0.7424	0.0728	-0.114
Mof_C 	C 	0.74215	0.8207	0.042	0.065
Mof_H 	H 	0.7364	0.8683	0.0737	-0.006
Mof_C 	C 	0.71537	0.7323	0.1526	0.397
Mof_O 	O 	0.71081	0.6576	0.1776	-0.525
Mof_O 	O 	0.70541	0.7963	0.1853	-0.547
Mof_N 	N 	0.6668	0.9727	0.4187	-0.211
Mof_C 	C 	0.68902	0.9993	0.4663	-0.143
Mof_C 	C 	0.69116	0.0399	0.5666	0.076
Mof_H 	H 	0.7066	0.0566	0.5983	-0.013
Mof_N 	N 	0.67159	0.0554	0.6188	-0.213
Mof_C 	C 	0.64989	0.0294	0.5697	-0.13
Mof_C 	C 	0.64735	0.9888	0.4696	0.068
Mof_H 	H 	0.6318	0.9726	0.438	-0.015
Mof_C 	C 	0.71076	0.9781	0.4083	0.411
Mof_O 	O 	0.73086	0.0104	0.4438	-0.548
Mof_O 	O 	0.70678	0.9299	0.3278	-0.574
Mof_C 	C 	0.62859	0.0427	0.6342	0.473
Mof_O 	O 	0.63268	0.0857	0.7197	-0.537
Mof_O 	O 	0.60873	0.0069	0.6008	-0.667
Mof_N 	N 	0.59146	0.6749	0.4735	-0.211
Mof_C 	C 	0.60608	0.7399	0.4668	-0.129
Mof_C 	C 	0.6027	0.8148	0.5218	0.094
Mof_H 	H 	0.6139	0.858	0.5187	-0.037
Mof_N 	N 	0.58366	0.8249	0.5784	-0.228
Mof_C 	C 	0.56948	0.7583	0.5848	-0.105
Mof_C 	C 	0.57337	0.6832	0.5371	0.096
Mof_H 	H 	0.5634	0.638	0.5489	-0.001
Mof_C 	C 	0.62645	0.7311	0.3945	0.421
Mof_O 	O 	0.62899	0.6593	0.3543	-0.561
Mof_O 	O 	0.63881	0.7942	0.3805	-0.58
Mof_C 	C 	0.54734	0.7714	0.648	0.517
Mof_O 	O 	0.54424	0.8444	0.6816	-0.595
Mof_O 	O 	0.53392	0.7096	0.6578	-0.584
Mof_N 	N 	0.50055	0.4364	0.4248	-0.23
Mof_C 	C 	0.5167	0.499	0.4303	-0.131
Mof_C 	C 	0.5157	0.5629	0.5048	0.105
Mof_H 	H 	0.5269	0.6065	0.5052	-0.021
Mof_C 	C 	0.53603	0.4959	0.353	0.471
Mof_O 	O 	0.53194	0.4459	0.2748	-0.574
Mof_O 	O 	0.55457	0.5412	0.3745	-0.565
Mof_O 	O 	0.5923	0.407	0.2731	-0.441
Mof_O 	O 	0.5362	0.3145	0.402	-0.199
Mof_Nd	Nd	0.56906	0.97201	0.65969	3.769
Mof_N 	N 	0.52299	0.9906	0.5595	-0.275
Mof_C 	C 	0.52039	0.9945	0.4515	-0.159
Mof_C 	C 	0.5027	0.9955	0.6065	0.147
Mof_H 	H 	0.5039	0.9921	0.6822	-0.023
Mof_C 	C 	0.5435	0.9882	0.3986	0.554
Mof_O 	O 	0.56276	0.9682	0.4592	-0.714
Mof_O 	O 	0.54204	0.0031	0.2988	-0.687
Mof_O 	O 	0.5568	0.1204	0.6151	-0.244
Mof_O 	O 	0.5963	0.9027	0.7987	-6.428
Mof_O 	O 	0.5881	0.391	0.331	-0.081
Mof_N 	N 	0.5999	0.366	0.278	0.28
Mof_O 	O 	0.6118	0.411	0.229	-0.208
Mof_O 	O 	0.6013	0.281	0.27	-0.236
Mof_O 	O 	0.6107	0.095	0.263	1.268
Mof_N 	N 	0.602	0.115	0.332	4.367
Mof_O 	O 	0.5818	0.1095	0.345	0.935
Mof_O 	O 	0.6184	0.151	0.425	-0.872
Mof_O 	O 	0.5641	0.8872	0.0737	-0.314
Mof_O 	O 	0.5231	0.262	0.3922	-0.308
Mof_O 	O 	0.4945	0.1831	0.1961	-0.218
Mof_Nd	Nd	0.22832	0.97578	0.61616	1.934
Mof_Nd	Nd	0.09577	0.94669	0.81987	2.312
Mof_Nd	Nd	0.17179	0.6612	0.78614	2.016
Mof_N 	N 	0.18362	0.9455	0.5119	-0.211
Mof_C 	C 	0.18086	0.9666	0.4055	-0.13
Mof_C 	C 	0.1577	0.9818	0.3488	0.084
Mof_H 	H 	0.1563	0.9921	0.2741	-0.003
Mof_N 	N 	0.13769	0.9818	0.3996	-0.206
Mof_C 	C 	0.14055	0.9602	0.5049	-0.109
Mof_C 	C 	0.16328	0.9378	0.5589	0.079
Mof_H 	H 	0.1642	0.917	0.6296	-0.018
Mof_C 	C 	0.2039	0.9832	0.3534	0.412
Mof_O 	O 	0.2239	0.9854	0.4165	-0.555
Mof_O 	O 	0.2013	0.998	0.254	-0.552
Mof_C 	C 	0.11761	0.9656	0.5631	0.446
Mof_O 	O 	0.09874	0.9946	0.5069	-0.517
Mof_O 	O 	0.11929	0.9449	0.6613	-0.541
Mof_N 	N 	0.24222	0.8277	0.5323	-0.199
Mof_C 	C 	0.23428	0.7576	0.5728	-0.113
Mof_C 	C 	0.24215	0.6793	0.542	0.06
Mof_H 	H 	0.2364	0.6317	0.5737	-0.006
Mof_C 	C 	0.21537	0.7677	0.6526	0.396
Mof_O 	O 	0.21081	0.8424	0.6776	-0.525
Mof_O 	O 	0.20541	0.7037	0.6853	-0.547
Mof_N 	N 	0.1668	0.5273	0.9187	-0.212
Mof_C 	C 	0.18902	0.5007	0.9663	-0.143
Mof_C 	C 	0.19116	0.4601	0.0666	0.075
Mof_H 	H 	0.2066	0.4434	0.0983	-0.014
Mof_N 	N 	0.17159	0.4446	0.1188	-0.213
Mof_C 	C 	0.14989	0.4706	0.0697	-0.131
Mof_C 	C 	0.14735	0.5112	0.9696	0.068
Mof_H 	H 	0.1318	0.5274	0.938	-0.016
Mof_C 	C 	0.21076	0.5219	0.9083	0.409
Mof_O 	O 	0.23086	0.4896	0.9438	-0.547
Mof_O 	O 	0.20678	0.5701	0.8278	-0.574
Mof_C 	C 	0.12859	0.4573	0.1342	0.472
Mof_O 	O 	0.13268	0.4143	0.2197	-0.538
Mof_O 	O 	0.10873	0.4931	0.1008	-0.669
Mof_N 	N 	0.09146	0.8251	0.9735	-0.213
Mof_C 	C 	0.10608	0.7601	0.9668	-0.133
Mof_C 	C 	0.1027	0.6852	0.0218	0.098
Mof_H 	H 	0.1139	0.642	0.0187	-0.038
Mof_N 	N 	0.08366	0.6751	0.0784	-0.229
Mof_C 	C 	0.06948	0.7417	0.0848	-0.106
Mof_C 	C 	0.07337	0.8168	0.0371	0.101
Mof_H 	H 	0.0634	0.862	0.0489	-0.001
Mof_C 	C 	0.12645	0.7689	0.8945	0.422
Mof_O 	O 	0.12899	0.8407	0.8543	-0.561
Mof_O 	O 	0.13881	0.7058	0.8805	-0.581
Mof_C 	C 	0.04734	0.7286	0.148	0.518
Mof_O 	O 	0.04424	0.6556	0.1816	-0.596
Mof_O 	O 	0.03392	0.7904	0.1578	-0.584
Mof_N 	N 	0.00055	0.0636	0.9248	-0.231
Mof_C 	C 	0.0167	0.001	0.9303	-0.13
Mof_C 	C 	0.0157	0.9371	0.0048	0.105
Mof_H 	H 	0.0269	0.8935	0.0052	-0.02
Mof_C 	C 	0.03603	0.0041	0.853	0.478
Mof_O 	O 	0.03194	0.0541	0.7748	-0.575
Mof_O 	O 	0.05457	0.9588	0.8745	-0.571
Mof_O 	O 	0.0923	0.093	0.7731	-0.44
Mof_O 	O 	0.0362	0.1855	0.902	-0.198
Mof_Nd	Nd	0.06906	0.52799	0.15969	3.775
Mof_N 	N 	0.02299	0.5094	0.0595	-0.275
Mof_C 	C 	0.02039	0.5055	0.9515	-0.163
Mof_C 	C 	0.0027	0.5045	0.1065	0.145
Mof_H 	H 	0.0039	0.5079	0.1822	-0.022
Mof_C 	C 	0.0435	0.5118	0.8986	0.552
Mof_O 	O 	0.06276	0.5318	0.9592	-0.715
Mof_O 	O 	0.04204	0.4969	0.7988	-0.688
Mof_O 	O 	0.0568	0.3796	0.1151	-0.246
Mof_O 	O 	0.0963	0.5973	0.2987	-6.443
Mof_O 	O 	0.0881	0.109	0.831	-0.078
Mof_N 	N 	0.0999	0.134	0.778	0.279
Mof_O 	O 	0.1118	0.089	0.729	-0.205
Mof_O 	O 	0.1013	0.219	0.77	-0.235
Mof_O 	O 	0.1107	0.405	0.763	1.277
Mof_N 	N 	0.102	0.385	0.832	4.389
Mof_O 	O 	0.0818	0.3905	0.845	0.941
Mof_O 	O 	0.1184	0.349	0.925	-0.875
Mof_O 	O 	0.0641	0.6128	0.5737	-0.316
Mof_O 	O 	0.0231	0.238	0.8922	-0.308
Mof_O 	O 	0.9945	0.3169	0.6961	-0.216
Mof_Nd	Nd	0.72832	0.47578	0.61616	1.94
Mof_Nd	Nd	0.59577	0.44669	0.81987	2.32
Mof_Nd	Nd	0.67179	0.1612	0.78614	2.02
Mof_N 	N 	0.68362	0.4455	0.5119	-0.211
Mof_C 	C 	0.68086	0.4666	0.4055	-0.132
Mof_C 	C 	0.6577	0.4818	0.3488	0.085
Mof_H 	H 	0.6563	0.4921	0.2741	-0.005
Mof_N 	N 	0.63769	0.4818	0.3996	-0.208
Mof_C 	C 	0.64055	0.4602	0.5049	-0.109
Mof_C 	C 	0.66328	0.4378	0.5589	0.079
Mof_H 	H 	0.6642	0.417	0.6296	-0.018
Mof_C 	C 	0.7039	0.4832	0.3534	0.413
Mof_O 	O 	0.7239	0.4854	0.4165	-0.557
Mof_O 	O 	0.7013	0.498	0.254	-0.557
Mof_C 	C 	0.61761	0.4656	0.5631	0.446
Mof_O 	O 	0.59874	0.4946	0.5069	-0.518
Mof_O 	O 	0.61929	0.4449	0.6613	-0.541
Mof_N 	N 	0.74222	0.3277	0.5323	-0.199
Mof_C 	C 	0.73428	0.2576	0.5728	-0.113
Mof_C 	C 	0.74215	0.1793	0.542	0.059
Mof_H 	H 	0.7364	0.1317	0.5737	-0.005
Mof_C 	C 	0.71537	0.2677	0.6526	0.397
Mof_O 	O 	0.71081	0.3424	0.6776	-0.525
Mof_O 	O 	0.70541	0.2037	0.6853	-0.546
Mof_N 	N 	0.6668	0.0273	0.9187	-0.212
Mof_C 	C 	0.68902	0.0007	0.9663	-0.142
Mof_C 	C 	0.69116	0.9601	0.0666	0.077
Mof_H 	H 	0.7066	0.9434	0.0983	-0.013
Mof_N 	N 	0.67159	0.9446	0.1188	-0.213
Mof_C 	C 	0.64989	0.9706	0.0697	-0.129
Mof_C 	C 	0.64735	0.0112	0.9696	0.071
Mof_H 	H 	0.6318	0.0274	0.938	-0.015
Mof_C 	C 	0.71076	0.0219	0.9083	0.418
Mof_O 	O 	0.73086	0.9896	0.9438	-0.554
Mof_O 	O 	0.70678	0.0701	0.8278	-0.575
Mof_C 	C 	0.62859	0.9573	0.1342	0.472
Mof_O 	O 	0.63268	0.9143	0.2197	-0.537
Mof_O 	O 	0.60873	0.9931	0.1008	-0.663
Mof_N 	N 	0.59146	0.3251	0.9735	-0.21
Mof_C 	C 	0.60608	0.2601	0.9668	-0.123
Mof_C 	C 	0.6027	0.1852	0.0218	0.087
Mof_H 	H 	0.6139	0.142	0.0187	-0.038
Mof_N 	N 	0.58366	0.1751	0.0784	-0.228
Mof_C 	C 	0.56948	0.2417	0.0848	-0.104
Mof_C 	C 	0.57337	0.3168	0.0371	0.092
Mof_H 	H 	0.5634	0.362	0.0489	-0
Mof_C 	C 	0.62645	0.2689	0.8945	0.42
Mof_O 	O 	0.62899	0.3407	0.8543	-0.56
Mof_O 	O 	0.63881	0.2058	0.8805	-0.579
Mof_C 	C 	0.54734	0.2286	0.148	0.516
Mof_O 	O 	0.54424	0.1556	0.1816	-0.594
Mof_O 	O 	0.53392	0.2904	0.1578	-0.584
Mof_N 	N 	0.50055	0.5636	0.9248	-0.231
Mof_C 	C 	0.5167	0.501	0.9303	-0.13
Mof_C 	C 	0.5157	0.4371	0.0048	0.104
Mof_H 	H 	0.5269	0.3935	0.0052	-0.021
Mof_C 	C 	0.53603	0.5041	0.853	0.471
Mof_O 	O 	0.53194	0.5541	0.7748	-0.574
Mof_O 	O 	0.55457	0.4588	0.8745	-0.565
Mof_O 	O 	0.5923	0.593	0.7731	-0.441
Mof_O 	O 	0.5362	0.6855	0.902	-0.199
Mof_Nd	Nd	0.56906	0.02799	0.15969	3.753
Mof_N 	N 	0.52299	0.0094	0.0595	-0.278
Mof_C 	C 	0.52039	0.0055	0.9515	-0.146
Mof_C 	C 	0.5027	0.0045	0.1065	0.135
Mof_H 	H 	0.5039	0.0079	0.1822	-0.019
Mof_C 	C 	0.5435	0.0118	0.8986	0.553
Mof_O 	O 	0.56276	0.0318	0.9592	-0.709
Mof_O 	O 	0.54204	0.9969	0.7988	-0.691
Mof_O 	O 	0.5568	0.8796	0.1151	-0.243
Mof_O 	O 	0.5963	0.0973	0.2987	-6.41
Mof_O 	O 	0.5881	0.609	0.831	-0.082
Mof_N 	N 	0.5999	0.634	0.778	0.28
Mof_O 	O 	0.6118	0.589	0.729	-0.207
Mof_O 	O 	0.6013	0.719	0.77	-0.236
Mof_O 	O 	0.6107	0.905	0.763	1.272
Mof_N 	N 	0.602	0.885	0.832	4.379
Mof_O 	O 	0.5818	0.8905	0.845	0.936
Mof_O 	O 	0.6184	0.849	0.925	-0.877
Mof_O 	O 	0.5641	0.1128	0.5737	-0.316
Mof_O 	O 	0.5231	0.738	0.8922	-0.31
Mof_O 	O 	0.4945	0.8169	0.6961	-0.217
Mof_Nd	Nd	0.77168	0.97578	0.88384	1.927
Mof_Nd	Nd	0.90423	0.94669	0.68013	2.314
Mof_Nd	Nd	0.82821	0.6612	0.71386	2.017
Mof_N 	N 	0.81638	0.9455	0.9881	-0.216
Mof_C 	C 	0.81914	0.9666	0.0945	-0.123
Mof_C 	C 	0.8423	0.9818	0.1512	0.083
Mof_H 	H 	0.8437	0.9921	0.2259	-0.003
Mof_N 	N 	0.86231	0.9818	0.1004	-0.201
Mof_C 	C 	0.85945	0.9602	0.9951	-0.118
Mof_C 	C 	0.83672	0.9378	0.9411	0.082
Mof_H 	H 	0.8358	0.917	0.8704	-0.019
Mof_C 	C 	0.7961	0.9832	0.1466	0.411
Mof_O 	O 	0.7761	0.9854	0.0835	-0.551
Mof_O 	O 	0.7987	0.998	0.246	-0.554
Mof_C 	C 	0.88239	0.9656	0.9369	0.448
Mof_O 	O 	0.90126	0.9946	0.9931	-0.522
Mof_O 	O 	0.88071	0.9449	0.8387	-0.542
Mof_N 	N 	0.75778	0.8277	0.9677	-0.203
Mof_C 	C 	0.76572	0.7576	0.9272	-0.112
Mof_C 	C 	0.75785	0.6793	0.958	0.055
Mof_H 	H 	0.7636	0.6317	0.9263	-0.005
Mof_C 	C 	0.78463	0.7677	0.8474	0.396
Mof_O 	O 	0.78919	0.8424	0.8224	-0.524
Mof_O 	O 	0.79459	0.7037	0.8147	-0.547
Mof_N 	N 	0.8332	0.5273	0.5813	-0.212
Mof_C 	C 	0.81098	0.5007	0.5337	-0.143
Mof_C 	C 	0.80884	0.4601	0.4334	0.076
Mof_H 	H 	0.7934	0.4434	0.4017	-0.014
Mof_N 	N 	0.82841	0.4446	0.3812	-0.213
Mof_C 	C 	0.85011	0.4706	0.4303	-0.13
Mof_C 	C 	0.85265	0.5112	0.5304	0.068
Mof_H 	H 	0.8682	0.5274	0.562	-0.016
Mof_C 	C 	0.78924	0.5219	0.5917	0.41
Mof_O 	O 	0.76914	0.4896	0.5562	-0.547
Mof_O 	O 	0.79322	0.5701	0.6722	-0.574
Mof_C 	C 	0.87141	0.4573	0.3658	0.473
Mof_O 	O 	0.86732	0.4143	0.2803	-0.538
Mof_O 	O 	0.89127	0.4931	0.3992	-0.669
Mof_N 	N 	0.90854	0.8251	0.5265	-0.211
Mof_C 	C 	0.89392	0.7601	0.5332	-0.129
Mof_C 	C 	0.8973	0.6852	0.4782	0.094
Mof_H 	H 	0.8861	0.642	0.4813	-0.037
Mof_N 	N 	0.91634	0.6751	0.4216	-0.228
Mof_C 	C 	0.93052	0.7417	0.4152	-0.104
Mof_C 	C 	0.92663	0.8168	0.4629	0.096
Mof_H 	H 	0.9366	0.862	0.4511	-0.001
Mof_C 	C 	0.87355	0.7689	0.6055	0.421
Mof_O 	O 	0.87101	0.8407	0.6457	-0.56
Mof_O 	O 	0.86119	0.7058	0.6195	-0.58
Mof_C 	C 	0.95266	0.7286	0.352	0.517
Mof_O 	O 	0.95576	0.6556	0.3184	-0.595
Mof_O 	O 	0.96608	0.7904	0.3422	-0.583
Mof_N 	N 	0.99945	0.0636	0.5752	-0.229
Mof_C 	C 	0.9833	0.001	0.5697	-0.131
Mof_C 	C 	0.9843	0.9371	0.4952	0.106
Mof_H 	H 	0.9731	0.8935	0.4948	-0.021
Mof_C 	C 	0.96397	0.0041	0.647	0.474
Mof_O 	O 	0.96806	0.0541	0.7252	-0.573
Mof_O 	O 	0.94543	0.9588	0.6255	-0.567
Mof_O 	O 	0.9077	0.093	0.7269	-0.439
Mof_O 	O 	0.9638	0.1855	0.598	-0.199
Mof_Nd	Nd	0.93094	0.52799	0.34031	3.775
Mof_N 	N 	0.97701	0.5094	0.4405	-0.276
Mof_C 	C 	0.97961	0.5055	0.5485	-0.159
Mof_C 	C 	0.9973	0.5045	0.3935	0.15
Mof_H 	H 	0.9961	0.5079	0.3178	-0.023
Mof_C 	C 	0.9565	0.5118	0.6014	0.551
Mof_O 	O 	0.93724	0.5318	0.5408	-0.714
Mof_O 	O 	0.95796	0.4969	0.7012	-0.687
Mof_O 	O 	0.9432	0.3796	0.3849	-0.246
Mof_O 	O 	0.9037	0.5973	0.2013	-6.444
Mof_O 	O 	0.9119	0.109	0.669	-0.081
Mof_N 	N 	0.9001	0.134	0.722	0.279
Mof_O 	O 	0.8882	0.089	0.771	-0.205
Mof_O 	O 	0.8987	0.219	0.73	-0.235
Mof_O 	O 	0.8893	0.405	0.737	1.277
Mof_N 	N 	0.898	0.385	0.668	4.389
Mof_O 	O 	0.9182	0.3905	0.655	0.94
Mof_O 	O 	0.8816	0.349	0.575	-0.876
Mof_O 	O 	0.9359	0.6128	0.9263	-0.318
Mof_O 	O 	0.9769	0.238	0.6078	-0.308
Mof_O 	O 	0.0055	0.3169	0.8039	-0.218
Mof_Nd	Nd	0.27168	0.47578	0.88384	1.939
Mof_Nd	Nd	0.40423	0.44669	0.68013	2.32
Mof_Nd	Nd	0.32821	0.1612	0.71386	2.019
Mof_N 	N 	0.31638	0.4455	0.9881	-0.211
Mof_C 	C 	0.31914	0.4666	0.0945	-0.132
Mof_C 	C 	0.3423	0.4818	0.1512	0.085
Mof_H 	H 	0.3437	0.4921	0.2259	-0.005
Mof_N 	N 	0.36231	0.4818	0.1004	-0.207
Mof_C 	C 	0.35945	0.4602	0.9951	-0.11
Mof_C 	C 	0.33672	0.4378	0.9411	0.079
Mof_H 	H 	0.3358	0.417	0.8704	-0.018
Mof_C 	C 	0.2961	0.4832	0.1466	0.413
Mof_O 	O 	0.2761	0.4854	0.0835	-0.557
Mof_O 	O 	0.2987	0.498	0.246	-0.557
Mof_C 	C 	0.38239	0.4656	0.9369	0.447
Mof_O 	O 	0.40126	0.4946	0.9931	-0.519
Mof_O 	O 	0.38071	0.4449	0.8387	-0.541
Mof_N 	N 	0.25778	0.3277	0.9677	-0.197
Mof_C 	C 	0.26572	0.2576	0.9272	-0.114
Mof_C 	C 	0.25785	0.1793	0.958	0.065
Mof_H 	H 	0.2636	0.1317	0.9263	-0.006
Mof_C 	C 	0.28463	0.2677	0.8474	0.397
Mof_O 	O 	0.28919	0.3424	0.8224	-0.525
Mof_O 	O 	0.29459	0.2037	0.8147	-0.547
Mof_N 	N 	0.3332	0.0273	0.5813	-0.211
Mof_C 	C 	0.31098	0.0007	0.5337	-0.143
Mof_C 	C 	0.30884	0.9601	0.4334	0.076
Mof_H 	H 	0.2934	0.9434	0.4017	-0.013
Mof_N 	N 	0.32841	0.9446	0.3812	-0.213
Mof_C 	C 	0.35011	0.9706	0.4303	-0.13
Mof_C 	C 	0.35265	0.0112	0.5304	0.068
Mof_H 	H 	0.3682	0.0274	0.562	-0.015
Mof_C 	C 	0.28924	0.0219	0.5917	0.411
Mof_O 	O 	0.26914	0.9896	0.5562	-0.548
Mof_O 	O 	0.29322	0.0701	0.6722	-0.574
Mof_C 	C 	0.37141	0.9573	0.3658	0.473
Mof_O 	O 	0.36732	0.9143	0.2803	-0.537
Mof_O 	O 	0.39127	0.9931	0.3992	-0.667
Mof_N 	N 	0.40854	0.3251	0.5265	-0.211
Mof_C 	C 	0.39392	0.2601	0.5332	-0.129
Mof_C 	C 	0.3973	0.1852	0.4782	0.094
Mof_H 	H 	0.3861	0.142	0.4813	-0.037
Mof_N 	N 	0.41634	0.1751	0.4216	-0.228
Mof_C 	C 	0.43052	0.2417	0.4152	-0.105
Mof_C 	C 	0.42663	0.3168	0.4629	0.096
Mof_H 	H 	0.4366	0.362	0.4511	-0.001
Mof_C 	C 	0.37355	0.2689	0.6055	0.421
Mof_O 	O 	0.37101	0.3407	0.6457	-0.561
Mof_O 	O 	0.36119	0.2058	0.6195	-0.58
Mof_C 	C 	0.45266	0.2286	0.352	0.517
Mof_O 	O 	0.45576	0.1556	0.3184	-0.595
Mof_O 	O 	0.46608	0.2904	0.3422	-0.584
Mof_N 	N 	0.49945	0.5636	0.5752	-0.23
Mof_C 	C 	0.4833	0.501	0.5697	-0.131
Mof_C 	C 	0.4843	0.4371	0.4952	0.105
Mof_H 	H 	0.4731	0.3935	0.4948	-0.021
Mof_C 	C 	0.46397	0.5041	0.647	0.471
Mof_O 	O 	0.46806	0.5541	0.7252	-0.574
Mof_O 	O 	0.44543	0.4588	0.6255	-0.565
Mof_O 	O 	0.4077	0.593	0.7269	-0.441
Mof_O 	O 	0.4638	0.6855	0.598	-0.199
Mof_Nd	Nd	0.43094	0.02799	0.34031	3.769
Mof_N 	N 	0.47701	0.0094	0.4405	-0.275
Mof_C 	C 	0.47961	0.0055	0.5485	-0.159
Mof_C 	C 	0.4973	0.0045	0.3935	0.147
Mof_H 	H 	0.4961	0.0079	0.3178	-0.023
Mof_C 	C 	0.4565	0.0118	0.6014	0.554
Mof_O 	O 	0.43724	0.0318	0.5408	-0.714
Mof_O 	O 	0.45796	0.9969	0.7012	-0.687
Mof_O 	O 	0.4432	0.8796	0.3849	-0.244
Mof_O 	O 	0.4037	0.0973	0.2013	-6.428
Mof_O 	O 	0.4119	0.609	0.669	-0.081
Mof_N 	N 	0.4001	0.634	0.722	0.28
Mof_O 	O 	0.3882	0.589	0.771	-0.208
Mof_O 	O 	0.3987	0.719	0.73	-0.236
Mof_O 	O 	0.3893	0.905	0.737	1.268
Mof_N 	N 	0.398	0.885	0.668	4.367
Mof_O 	O 	0.4182	0.8905	0.655	0.935
Mof_O 	O 	0.3816	0.849	0.575	-0.872
Mof_O 	O 	0.4359	0.1128	0.9263	-0.314
Mof_O 	O 	0.4769	0.738	0.6078	-0.308
Mof_O 	O 	0.5055	0.8169	0.8039	-0.218
Mof_Nd	Nd	2.3585e-34	0.83693	0.25	2.869
Mof_Nd	Nd	0.5	0.33693	0.25	2.873
Mof_Nd	Nd	2.63735e-18	0.16307	0.75	2.869
Mof_Nd	Nd	0.5	0.66307	0.75	2.873
_end
