data_functionalizedCrystal
_audit_creation_method	'EQeq! by Chris Wilmer'
_symmetry_space_group_name_H-M	'P1'
_symmetry_Int_Tables_number	1
_symmetry_cell_setting	triclinic
loop_
_symmetry_equiv_pos_as_xyz
  x,y,z
_cell_length_a	35.802
_cell_length_b	35.802
_cell_length_c	15.509
_cell_angle_alpha	90
_cell_angle_beta	90
_cell_angle_gamma	120
loop_
_atom_site_label
_atom_site_type_symbol
_atom_site_fract_x
_atom_site_fract_y
_atom_site_fract_z
_atom_site_charge
Mof_O 	O 	0.44301	0.47971	0.4197	-0.408
Mof_O 	O 	0.43566	0.48743	0.5609	-0.416
Mof_C 	C 	0.42133	0.4785	0.4872	0.38
Mof_C 	C 	0.37491	0.46382	0.4695	-0.153
Mof_C 	C 	0.34849	0.46224	0.5379	0.09
Mof_H 	H 	0.3596	0.4714	0.593	0.015
Mof_C 	C 	0.30437	0.44618	0.5199	-0.176
Mof_H 	H 	0.2862	0.4443	0.5646	0.108
Mof_C 	C 	0.28764	0.43349	0.4399	0.146
Mof_C 	C 	0.31512	0.43736	0.3744	-0.186
Mof_H 	H 	0.3045	0.4297	0.3186	0.099
Mof_C 	C 	0.35854	0.45246	0.3901	0.105
Mof_H 	H 	0.3765	0.4547	0.3446	0.012
Mof_C 	C 	0.2408	0.41434	0.4231	-0.087
Mof_C 	C 	0.22063	0.37526	0.3768	-0.038
Mof_H 	H 	0.237	0.3628	0.3609	0.043
Mof_C 	C 	0.266	0.5112	0.4345	0.062
Mof_C 	C 	0.2905	0.5448	0.5069	0.002
Mof_C 	C 	0.2378	0.5235	0.3814	-0.035
Mof_O 	O 	0.10968	0.81304	0.75303	-0.408
Mof_O 	O 	0.10233	0.82076	0.89423	-0.416
Mof_C 	C 	0.088	0.81183	0.82053	0.38
Mof_C 	C 	0.04158	0.79715	0.80283	-0.153
Mof_C 	C 	0.01516	0.79557	0.87123	0.09
Mof_H 	H 	0.02627	0.80473	0.92633	0.015
Mof_C 	C 	0.97104	0.77951	0.85323	-0.177
Mof_H 	H 	0.95287	0.77763	0.89793	0.109
Mof_C 	C 	0.95431	0.76682	0.77323	0.147
Mof_C 	C 	0.98179	0.77069	0.70773	-0.185
Mof_H 	H 	0.97117	0.76303	0.65193	0.1
Mof_C 	C 	0.02521	0.78579	0.72343	0.106
Mof_H 	H 	0.04317	0.78803	0.67793	0.012
Mof_C 	C 	0.90747	0.74767	0.75643	-0.086
Mof_C 	C 	0.8873	0.70859	0.71013	-0.037
Mof_H 	H 	0.90367	0.69613	0.69423	0.044
Mof_C 	C 	0.93267	0.84453	0.76783	0.063
Mof_C 	C 	0.95717	0.87813	0.84023	0.003
Mof_C 	C 	0.90447	0.85683	0.71473	-0.034
Mof_O 	O 	0.77634	0.14638	0.08637	-0.406
Mof_O 	O 	0.76899	0.1541	0.22757	-0.415
Mof_C 	C 	0.75466	0.14517	0.15387	0.381
Mof_C 	C 	0.70824	0.13049	0.13617	-0.152
Mof_C 	C 	0.68182	0.12891	0.20457	0.091
Mof_H 	H 	0.69293	0.13807	0.25967	0.016
Mof_C 	C 	0.6377	0.11285	0.18657	-0.175
Mof_H 	H 	0.61953	0.11097	0.23127	0.108
Mof_C 	C 	0.62097	0.10016	0.10657	0.147
Mof_C 	C 	0.64845	0.10403	0.04107	-0.185
Mof_H 	H 	0.63783	0.09637	0.98527	0.1
Mof_C 	C 	0.69187	0.11913	0.05677	0.106
Mof_H 	H 	0.70983	0.12137	0.01127	0.013
Mof_C 	C 	0.57413	0.08101	0.08977	-0.086
Mof_C 	C 	0.55396	0.04193	0.04347	-0.037
Mof_H 	H 	0.57033	0.02947	0.02757	0.045
Mof_C 	C 	0.59933	0.17787	0.10117	0.063
Mof_C 	C 	0.62383	0.21147	0.17357	0.003
Mof_C 	C 	0.57113	0.19017	0.04807	-0.034
Mof_O 	O 	0.52029	0.9633	0.4197	-0.407
Mof_O 	O 	0.51257	0.94823	0.5609	-0.415
Mof_C 	C 	0.5215	0.94283	0.4872	0.381
Mof_C 	C 	0.53618	0.91109	0.4695	-0.152
Mof_C 	C 	0.53776	0.88625	0.5379	0.091
Mof_H 	H 	0.5286	0.8882	0.593	0.016
Mof_C 	C 	0.55382	0.85819	0.5199	-0.175
Mof_H 	H 	0.5557	0.8419	0.5646	0.109
Mof_C 	C 	0.56651	0.85415	0.4399	0.147
Mof_C 	C 	0.56264	0.87776	0.3744	-0.185
Mof_H 	H 	0.5703	0.8748	0.3186	0.1
Mof_C 	C 	0.54754	0.90608	0.3901	0.106
Mof_H 	H 	0.5453	0.9218	0.3446	0.013
Mof_C 	C 	0.58566	0.82646	0.4231	-0.086
Mof_C 	C 	0.62474	0.84537	0.3768	-0.037
Mof_H 	H 	0.6372	0.8742	0.3609	0.044
Mof_C 	C 	0.4888	0.7548	0.4345	0.063
Mof_C 	C 	0.4552	0.7457	0.5069	0.003
Mof_C 	C 	0.4765	0.7143	0.3814	-0.034
Mof_O 	O 	0.18696	0.29663	0.75303	-0.407
Mof_O 	O 	0.17924	0.28156	0.89423	-0.415
Mof_C 	C 	0.18817	0.27616	0.82053	0.381
Mof_C 	C 	0.20285	0.24442	0.80283	-0.152
Mof_C 	C 	0.20443	0.21958	0.87123	0.091
Mof_H 	H 	0.19527	0.22153	0.92633	0.016
Mof_C 	C 	0.22049	0.19152	0.85323	-0.175
Mof_H 	H 	0.22237	0.17523	0.89793	0.109
Mof_C 	C 	0.23318	0.18748	0.77323	0.147
Mof_C 	C 	0.22931	0.21109	0.70773	-0.185
Mof_H 	H 	0.23697	0.20813	0.65193	0.1
Mof_C 	C 	0.21421	0.23941	0.72343	0.106
Mof_H 	H 	0.21197	0.25513	0.67793	0.013
Mof_C 	C 	0.25233	0.15979	0.75643	-0.086
Mof_C 	C 	0.29141	0.1787	0.71013	-0.037
Mof_H 	H 	0.30387	0.20753	0.69423	0.044
Mof_C 	C 	0.15547	0.08813	0.76783	0.063
Mof_C 	C 	0.12187	0.07903	0.84023	0.003
Mof_C 	C 	0.14317	0.04763	0.71473	-0.034
Mof_O 	O 	0.85362	0.62997	0.08637	-0.406
Mof_O 	O 	0.8459	0.6149	0.22757	-0.415
Mof_C 	C 	0.85483	0.6095	0.15387	0.381
Mof_C 	C 	0.86951	0.57776	0.13617	-0.152
Mof_C 	C 	0.87109	0.55292	0.20457	0.091
Mof_H 	H 	0.86193	0.55487	0.25967	0.016
Mof_C 	C 	0.88715	0.52486	0.18657	-0.175
Mof_H 	H 	0.88903	0.50857	0.23127	0.108
Mof_C 	C 	0.89984	0.52082	0.10657	0.147
Mof_C 	C 	0.89597	0.54443	0.04107	-0.185
Mof_H 	H 	0.90363	0.54147	0.98527	0.1
Mof_C 	C 	0.88087	0.57275	0.05677	0.106
Mof_H 	H 	0.87863	0.58847	0.01127	0.013
Mof_C 	C 	0.91899	0.49313	0.08977	-0.086
Mof_C 	C 	0.95807	0.51204	0.04347	-0.037
Mof_H 	H 	0.97053	0.54087	0.02757	0.045
Mof_C 	C 	0.82213	0.42147	0.10117	0.063
Mof_C 	C 	0.78853	0.41237	0.17357	0.003
Mof_C 	C 	0.80983	0.38097	0.04807	-0.034
Mof_O 	O 	0.0367	0.55699	0.4197	-0.407
Mof_O 	O 	0.05177	0.56434	0.5609	-0.415
Mof_C 	C 	0.05717	0.57867	0.4872	0.381
Mof_C 	C 	0.08891	0.62509	0.4695	-0.152
Mof_C 	C 	0.11375	0.65151	0.5379	0.091
Mof_H 	H 	0.1118	0.6404	0.593	0.016
Mof_C 	C 	0.14181	0.69563	0.5199	-0.175
Mof_H 	H 	0.1581	0.7138	0.5646	0.109
Mof_C 	C 	0.14585	0.71236	0.4399	0.147
Mof_C 	C 	0.12224	0.68488	0.3744	-0.185
Mof_H 	H 	0.1252	0.6955	0.3186	0.1
Mof_C 	C 	0.09392	0.64146	0.3901	0.106
Mof_H 	H 	0.0782	0.6235	0.3446	0.013
Mof_C 	C 	0.17354	0.7592	0.4231	-0.086
Mof_C 	C 	0.15463	0.77937	0.3768	-0.037
Mof_H 	H 	0.1258	0.763	0.3609	0.044
Mof_C 	C 	0.2452	0.734	0.4345	0.063
Mof_C 	C 	0.2543	0.7095	0.5069	0.003
Mof_C 	C 	0.2857	0.7622	0.3814	-0.034
Mof_O 	O 	0.70337	0.89032	0.75303	-0.407
Mof_O 	O 	0.71844	0.89767	0.89423	-0.415
Mof_C 	C 	0.72384	0.912	0.82053	0.381
Mof_C 	C 	0.75558	0.95842	0.80283	-0.152
Mof_C 	C 	0.78042	0.98484	0.87123	0.091
Mof_H 	H 	0.77847	0.97373	0.92633	0.016
Mof_C 	C 	0.80848	0.02896	0.85323	-0.175
Mof_H 	H 	0.82477	0.04713	0.89793	0.109
Mof_C 	C 	0.81252	0.04569	0.77323	0.147
Mof_C 	C 	0.78891	0.01821	0.70773	-0.185
Mof_H 	H 	0.79187	0.02883	0.65193	0.1
Mof_C 	C 	0.76059	0.97479	0.72343	0.106
Mof_H 	H 	0.74487	0.95683	0.67793	0.013
Mof_C 	C 	0.84021	0.09253	0.75643	-0.086
Mof_C 	C 	0.8213	0.1127	0.71013	-0.037
Mof_H 	H 	0.79247	0.09633	0.69423	0.045
Mof_C 	C 	0.91187	0.06733	0.76783	0.063
Mof_C 	C 	0.92097	0.04283	0.84023	0.003
Mof_C 	C 	0.95237	0.09553	0.71473	-0.034
Mof_O 	O 	0.37003	0.22366	0.08637	-0.406
Mof_O 	O 	0.3851	0.23101	0.22757	-0.415
Mof_C 	C 	0.3905	0.24534	0.15387	0.381
Mof_C 	C 	0.42224	0.29176	0.13617	-0.152
Mof_C 	C 	0.44708	0.31818	0.20457	0.091
Mof_H 	H 	0.44513	0.30707	0.25967	0.016
Mof_C 	C 	0.47514	0.3623	0.18657	-0.175
Mof_H 	H 	0.49143	0.38047	0.23127	0.108
Mof_C 	C 	0.47918	0.37903	0.10657	0.147
Mof_C 	C 	0.45557	0.35155	0.04107	-0.185
Mof_H 	H 	0.45853	0.36217	0.98527	0.1
Mof_C 	C 	0.42725	0.30813	0.05677	0.106
Mof_H 	H 	0.41153	0.29017	0.01127	0.013
Mof_C 	C 	0.50687	0.42587	0.08977	-0.086
Mof_C 	C 	0.48796	0.44604	0.04347	-0.037
Mof_H 	H 	0.45913	0.42967	0.02757	0.045
Mof_C 	C 	0.57853	0.40067	0.10117	0.063
Mof_C 	C 	0.58763	0.37617	0.17357	0.003
Mof_C 	C 	0.61903	0.42887	0.04807	-0.034
Mof_O 	O 	0.47971	0.44301	0.5803	-0.407
Mof_O 	O 	0.48743	0.43566	0.4391	-0.415
Mof_C 	C 	0.4785	0.42133	0.5128	0.381
Mof_C 	C 	0.46382	0.37491	0.5305	-0.152
Mof_C 	C 	0.46224	0.34849	0.4621	0.091
Mof_H 	H 	0.4714	0.3596	0.407	0.016
Mof_C 	C 	0.44618	0.30437	0.4801	-0.175
Mof_H 	H 	0.4443	0.2862	0.4354	0.109
Mof_C 	C 	0.43349	0.28764	0.5601	0.147
Mof_C 	C 	0.43736	0.31512	0.6256	-0.185
Mof_H 	H 	0.4297	0.3045	0.6814	0.1
Mof_C 	C 	0.45246	0.35854	0.6099	0.106
Mof_H 	H 	0.4547	0.3765	0.6554	0.013
Mof_C 	C 	0.41434	0.2408	0.5769	-0.086
Mof_C 	C 	0.37526	0.22063	0.6232	-0.037
Mof_H 	H 	0.3628	0.237	0.6391	0.044
Mof_C 	C 	0.5112	0.266	0.5655	0.063
Mof_C 	C 	0.5448	0.2905	0.4931	0.003
Mof_C 	C 	0.5235	0.2378	0.6186	-0.034
Mof_O 	O 	0.14638	0.77634	0.91363	-0.406
Mof_O 	O 	0.1541	0.76899	0.77243	-0.415
Mof_C 	C 	0.14517	0.75466	0.84613	0.381
Mof_C 	C 	0.13049	0.70824	0.86383	-0.152
Mof_C 	C 	0.12891	0.68182	0.79543	0.091
Mof_H 	H 	0.13807	0.69293	0.74033	0.016
Mof_C 	C 	0.11285	0.6377	0.81343	-0.175
Mof_H 	H 	0.11097	0.61953	0.76873	0.108
Mof_C 	C 	0.10016	0.62097	0.89343	0.147
Mof_C 	C 	0.10403	0.64845	0.95893	-0.185
Mof_H 	H 	0.09637	0.63783	0.01473	0.1
Mof_C 	C 	0.11913	0.69187	0.94323	0.106
Mof_H 	H 	0.12137	0.70983	0.98873	0.013
Mof_C 	C 	0.08101	0.57413	0.91023	-0.086
Mof_C 	C 	0.04193	0.55396	0.95653	-0.037
Mof_H 	H 	0.02947	0.57033	0.97243	0.045
Mof_C 	C 	0.17787	0.59933	0.89883	0.063
Mof_C 	C 	0.21147	0.62383	0.82643	0.003
Mof_C 	C 	0.19017	0.57113	0.95193	-0.034
Mof_O 	O 	0.81304	0.10968	0.24697	-0.407
Mof_O 	O 	0.82076	0.10233	0.10577	-0.415
Mof_C 	C 	0.81183	0.088	0.17947	0.381
Mof_C 	C 	0.79715	0.04158	0.19717	-0.152
Mof_C 	C 	0.79557	0.01516	0.12877	0.091
Mof_H 	H 	0.80473	0.02627	0.07367	0.016
Mof_C 	C 	0.77951	0.97104	0.14677	-0.176
Mof_H 	H 	0.77763	0.95287	0.10207	0.109
Mof_C 	C 	0.76682	0.95431	0.22677	0.147
Mof_C 	C 	0.77069	0.98179	0.29227	-0.185
Mof_H 	H 	0.76303	0.97117	0.34807	0.1
Mof_C 	C 	0.78579	0.02521	0.27657	0.106
Mof_H 	H 	0.78803	0.04317	0.32207	0.012
Mof_C 	C 	0.74767	0.90747	0.24357	-0.086
Mof_C 	C 	0.70859	0.8873	0.28987	-0.037
Mof_H 	H 	0.69613	0.90367	0.30577	0.044
Mof_C 	C 	0.84453	0.93267	0.23217	0.063
Mof_C 	C 	0.87813	0.95717	0.15977	0.003
Mof_C 	C 	0.85683	0.90447	0.28527	-0.034
Mof_O 	O 	0.9633	0.52029	0.5803	-0.407
Mof_O 	O 	0.94823	0.51257	0.4391	-0.415
Mof_C 	C 	0.94283	0.5215	0.5128	0.381
Mof_C 	C 	0.91109	0.53618	0.5305	-0.152
Mof_C 	C 	0.88625	0.53776	0.4621	0.091
Mof_H 	H 	0.8882	0.5286	0.407	0.016
Mof_C 	C 	0.85819	0.55382	0.4801	-0.175
Mof_H 	H 	0.8419	0.5557	0.4354	0.109
Mof_C 	C 	0.85415	0.56651	0.5601	0.147
Mof_C 	C 	0.87776	0.56264	0.6256	-0.185
Mof_H 	H 	0.8748	0.5703	0.6814	0.1
Mof_C 	C 	0.90608	0.54754	0.6099	0.106
Mof_H 	H 	0.9218	0.5453	0.6554	0.013
Mof_C 	C 	0.82646	0.58566	0.5769	-0.086
Mof_C 	C 	0.84537	0.62474	0.6232	-0.037
Mof_H 	H 	0.8742	0.6372	0.6391	0.044
Mof_C 	C 	0.7548	0.4888	0.5655	0.063
Mof_C 	C 	0.7457	0.4552	0.4931	0.003
Mof_C 	C 	0.7143	0.4765	0.6186	-0.034
Mof_O 	O 	0.62997	0.85362	0.91363	-0.406
Mof_O 	O 	0.6149	0.8459	0.77243	-0.415
Mof_C 	C 	0.6095	0.85483	0.84613	0.381
Mof_C 	C 	0.57776	0.86951	0.86383	-0.152
Mof_C 	C 	0.55292	0.87109	0.79543	0.091
Mof_H 	H 	0.55487	0.86193	0.74033	0.016
Mof_C 	C 	0.52486	0.88715	0.81343	-0.175
Mof_H 	H 	0.50857	0.88903	0.76873	0.108
Mof_C 	C 	0.52082	0.89984	0.89343	0.147
Mof_C 	C 	0.54443	0.89597	0.95893	-0.185
Mof_H 	H 	0.54147	0.90363	0.01473	0.1
Mof_C 	C 	0.57275	0.88087	0.94323	0.106
Mof_H 	H 	0.58847	0.87863	0.98873	0.013
Mof_C 	C 	0.49313	0.91899	0.91023	-0.086
Mof_C 	C 	0.51204	0.95807	0.95653	-0.037
Mof_H 	H 	0.54087	0.97053	0.97243	0.045
Mof_C 	C 	0.42147	0.82213	0.89883	0.063
Mof_C 	C 	0.41237	0.78853	0.82643	0.003
Mof_C 	C 	0.38097	0.80983	0.95193	-0.034
Mof_O 	O 	0.29663	0.18696	0.24697	-0.407
Mof_O 	O 	0.28156	0.17924	0.10577	-0.415
Mof_C 	C 	0.27616	0.18817	0.17947	0.381
Mof_C 	C 	0.24442	0.20285	0.19717	-0.152
Mof_C 	C 	0.21958	0.20443	0.12877	0.091
Mof_H 	H 	0.22153	0.19527	0.07367	0.016
Mof_C 	C 	0.19152	0.22049	0.14677	-0.175
Mof_H 	H 	0.17523	0.22237	0.10207	0.109
Mof_C 	C 	0.18748	0.23318	0.22677	0.147
Mof_C 	C 	0.21109	0.22931	0.29227	-0.185
Mof_H 	H 	0.20813	0.23697	0.34807	0.1
Mof_C 	C 	0.23941	0.21421	0.27657	0.106
Mof_H 	H 	0.25513	0.21197	0.32207	0.013
Mof_C 	C 	0.15979	0.25233	0.24357	-0.086
Mof_C 	C 	0.1787	0.29141	0.28987	-0.037
Mof_H 	H 	0.20753	0.30387	0.30577	0.044
Mof_C 	C 	0.08813	0.15547	0.23217	0.063
Mof_C 	C 	0.07903	0.12187	0.15977	0.003
Mof_C 	C 	0.04763	0.14317	0.28527	-0.034
Mof_O 	O 	0.55699	0.0367	0.5803	-0.407
Mof_O 	O 	0.56434	0.05177	0.4391	-0.415
Mof_C 	C 	0.57867	0.05717	0.5128	0.381
Mof_C 	C 	0.62509	0.08891	0.5305	-0.152
Mof_C 	C 	0.65151	0.11375	0.4621	0.091
Mof_H 	H 	0.6404	0.1118	0.407	0.016
Mof_C 	C 	0.69563	0.14181	0.4801	-0.175
Mof_H 	H 	0.7138	0.1581	0.4354	0.109
Mof_C 	C 	0.71236	0.14585	0.5601	0.147
Mof_C 	C 	0.68488	0.12224	0.6256	-0.185
Mof_H 	H 	0.6955	0.1252	0.6814	0.1
Mof_C 	C 	0.64146	0.09392	0.6099	0.106
Mof_H 	H 	0.6235	0.0782	0.6554	0.013
Mof_C 	C 	0.7592	0.17354	0.5769	-0.086
Mof_C 	C 	0.77937	0.15463	0.6232	-0.037
Mof_H 	H 	0.763	0.1258	0.6391	0.044
Mof_C 	C 	0.734	0.2452	0.5655	0.063
Mof_C 	C 	0.7095	0.2543	0.4931	0.003
Mof_C 	C 	0.7622	0.2857	0.6186	-0.034
Mof_O 	O 	0.22366	0.37003	0.91363	-0.406
Mof_O 	O 	0.23101	0.3851	0.77243	-0.415
Mof_C 	C 	0.24534	0.3905	0.84613	0.381
Mof_C 	C 	0.29176	0.42224	0.86383	-0.152
Mof_C 	C 	0.31818	0.44708	0.79543	0.091
Mof_H 	H 	0.30707	0.44513	0.74033	0.016
Mof_C 	C 	0.3623	0.47514	0.81343	-0.175
Mof_H 	H 	0.38047	0.49143	0.76873	0.108
Mof_C 	C 	0.37903	0.47918	0.89343	0.147
Mof_C 	C 	0.35155	0.45557	0.95893	-0.185
Mof_H 	H 	0.36217	0.45853	0.01473	0.1
Mof_C 	C 	0.30813	0.42725	0.94323	0.106
Mof_H 	H 	0.29017	0.41153	0.98873	0.013
Mof_C 	C 	0.42587	0.50687	0.91023	-0.086
Mof_C 	C 	0.44604	0.48796	0.95653	-0.037
Mof_H 	H 	0.42967	0.45913	0.97243	0.045
Mof_C 	C 	0.40067	0.57853	0.89883	0.063
Mof_C 	C 	0.37617	0.58763	0.82643	0.003
Mof_C 	C 	0.42887	0.61903	0.95193	-0.034
Mof_O 	O 	0.89032	0.70337	0.24697	-0.407
Mof_O 	O 	0.89767	0.71844	0.10577	-0.415
Mof_C 	C 	0.912	0.72384	0.17947	0.381
Mof_C 	C 	0.95842	0.75558	0.19717	-0.152
Mof_C 	C 	0.98484	0.78042	0.12877	0.091
Mof_H 	H 	0.97373	0.77847	0.07367	0.016
Mof_C 	C 	0.02896	0.80848	0.14677	-0.175
Mof_H 	H 	0.04713	0.82477	0.10207	0.109
Mof_C 	C 	0.04569	0.81252	0.22677	0.147
Mof_C 	C 	0.01821	0.78891	0.29227	-0.185
Mof_H 	H 	0.02883	0.79187	0.34807	0.1
Mof_C 	C 	0.97479	0.76059	0.27657	0.106
Mof_H 	H 	0.95683	0.74487	0.32207	0.013
Mof_C 	C 	0.09253	0.84021	0.24357	-0.086
Mof_C 	C 	0.1127	0.8213	0.28987	-0.037
Mof_H 	H 	0.09633	0.79247	0.30577	0.045
Mof_C 	C 	0.06733	0.91187	0.23217	0.063
Mof_C 	C 	0.04283	0.92097	0.15977	0.003
Mof_C 	C 	0.09553	0.95237	0.28527	-0.034
Mof_O 	O 	0.55699	0.52029	0.5803	-0.407
Mof_O 	O 	0.56434	0.51257	0.4391	-0.415
Mof_C 	C 	0.57867	0.5215	0.5128	0.381
Mof_C 	C 	0.62509	0.53618	0.5305	-0.152
Mof_C 	C 	0.65151	0.53776	0.4621	0.091
Mof_H 	H 	0.6404	0.5286	0.407	0.016
Mof_C 	C 	0.69563	0.55382	0.4801	-0.175
Mof_H 	H 	0.7138	0.5557	0.4354	0.109
Mof_C 	C 	0.71236	0.56651	0.5601	0.147
Mof_C 	C 	0.68488	0.56264	0.6256	-0.185
Mof_H 	H 	0.6955	0.5703	0.6814	0.1
Mof_C 	C 	0.64146	0.54754	0.6099	0.106
Mof_H 	H 	0.6235	0.5453	0.6554	0.013
Mof_C 	C 	0.7592	0.58566	0.5769	-0.086
Mof_C 	C 	0.77937	0.62474	0.6232	-0.037
Mof_H 	H 	0.763	0.6372	0.6391	0.044
Mof_C 	C 	0.734	0.4888	0.5655	0.063
Mof_C 	C 	0.7095	0.4552	0.4931	0.003
Mof_C 	C 	0.7622	0.4765	0.6186	-0.034
Mof_O 	O 	0.22366	0.85362	0.91363	-0.406
Mof_O 	O 	0.23101	0.8459	0.77243	-0.415
Mof_C 	C 	0.24534	0.85483	0.84613	0.381
Mof_C 	C 	0.29176	0.86951	0.86383	-0.152
Mof_C 	C 	0.31818	0.87109	0.79543	0.091
Mof_H 	H 	0.30707	0.86193	0.74033	0.016
Mof_C 	C 	0.3623	0.88715	0.81343	-0.175
Mof_H 	H 	0.38047	0.88903	0.76873	0.108
Mof_C 	C 	0.37903	0.89984	0.89343	0.147
Mof_C 	C 	0.35155	0.89597	0.95893	-0.185
Mof_H 	H 	0.36217	0.90363	0.01473	0.1
Mof_C 	C 	0.30813	0.88087	0.94323	0.106
Mof_H 	H 	0.29017	0.87863	0.98873	0.013
Mof_C 	C 	0.42587	0.91899	0.91023	-0.086
Mof_C 	C 	0.44604	0.95807	0.95653	-0.037
Mof_H 	H 	0.42967	0.97053	0.97243	0.045
Mof_C 	C 	0.40067	0.82213	0.89883	0.063
Mof_C 	C 	0.37617	0.78853	0.82643	0.003
Mof_C 	C 	0.42887	0.80983	0.95193	-0.034
Mof_O 	O 	0.89032	0.18696	0.24697	-0.407
Mof_O 	O 	0.89767	0.17924	0.10577	-0.415
Mof_C 	C 	0.912	0.18817	0.17947	0.381
Mof_C 	C 	0.95842	0.20285	0.19717	-0.152
Mof_C 	C 	0.98484	0.20443	0.12877	0.091
Mof_H 	H 	0.97373	0.19527	0.07367	0.016
Mof_C 	C 	0.02896	0.22049	0.14677	-0.176
Mof_H 	H 	0.04713	0.22237	0.10207	0.109
Mof_C 	C 	0.04569	0.23318	0.22677	0.147
Mof_C 	C 	0.01821	0.22931	0.29227	-0.185
Mof_H 	H 	0.02883	0.23697	0.34807	0.1
Mof_C 	C 	0.97479	0.21421	0.27657	0.106
Mof_H 	H 	0.95683	0.21197	0.32207	0.012
Mof_C 	C 	0.09253	0.25233	0.24357	-0.086
Mof_C 	C 	0.1127	0.29141	0.28987	-0.037
Mof_H 	H 	0.09633	0.30387	0.30577	0.044
Mof_C 	C 	0.06733	0.15547	0.23217	0.063
Mof_C 	C 	0.04283	0.12187	0.15977	0.003
Mof_C 	C 	0.09553	0.14317	0.28527	-0.034
Mof_O 	O 	0.47971	0.0367	0.5803	-0.407
Mof_O 	O 	0.48743	0.05177	0.4391	-0.415
Mof_C 	C 	0.4785	0.05717	0.5128	0.381
Mof_C 	C 	0.46382	0.08891	0.5305	-0.152
Mof_C 	C 	0.46224	0.11375	0.4621	0.091
Mof_H 	H 	0.4714	0.1118	0.407	0.016
Mof_C 	C 	0.44618	0.14181	0.4801	-0.175
Mof_H 	H 	0.4443	0.1581	0.4354	0.109
Mof_C 	C 	0.43349	0.14585	0.5601	0.147
Mof_C 	C 	0.43736	0.12224	0.6256	-0.185
Mof_H 	H 	0.4297	0.1252	0.6814	0.1
Mof_C 	C 	0.45246	0.09392	0.6099	0.106
Mof_H 	H 	0.4547	0.0782	0.6554	0.013
Mof_C 	C 	0.41434	0.17354	0.5769	-0.086
Mof_C 	C 	0.37526	0.15463	0.6232	-0.037
Mof_H 	H 	0.3628	0.1258	0.6391	0.044
Mof_C 	C 	0.5112	0.2452	0.5655	0.063
Mof_C 	C 	0.5448	0.2543	0.4931	0.003
Mof_C 	C 	0.5235	0.2857	0.6186	-0.034
Mof_O 	O 	0.14638	0.37003	0.91363	-0.406
Mof_O 	O 	0.1541	0.3851	0.77243	-0.415
Mof_C 	C 	0.14517	0.3905	0.84613	0.381
Mof_C 	C 	0.13049	0.42224	0.86383	-0.152
Mof_C 	C 	0.12891	0.44708	0.79543	0.091
Mof_H 	H 	0.13807	0.44513	0.74033	0.016
Mof_C 	C 	0.11285	0.47514	0.81343	-0.175
Mof_H 	H 	0.11097	0.49143	0.76873	0.108
Mof_C 	C 	0.10016	0.47918	0.89343	0.147
Mof_C 	C 	0.10403	0.45557	0.95893	-0.185
Mof_H 	H 	0.09637	0.45853	0.01473	0.1
Mof_C 	C 	0.11913	0.42725	0.94323	0.106
Mof_H 	H 	0.12137	0.41153	0.98873	0.013
Mof_C 	C 	0.08101	0.50687	0.91023	-0.086
Mof_C 	C 	0.04193	0.48796	0.95653	-0.037
Mof_H 	H 	0.02947	0.45913	0.97243	0.045
Mof_C 	C 	0.17787	0.57853	0.89883	0.063
Mof_C 	C 	0.21147	0.58763	0.82643	0.003
Mof_C 	C 	0.19017	0.61903	0.95193	-0.034
Mof_O 	O 	0.81304	0.70337	0.24697	-0.407
Mof_O 	O 	0.82076	0.71844	0.10577	-0.415
Mof_C 	C 	0.81183	0.72384	0.17947	0.381
Mof_C 	C 	0.79715	0.75558	0.19717	-0.152
Mof_C 	C 	0.79557	0.78042	0.12877	0.091
Mof_H 	H 	0.80473	0.77847	0.07367	0.016
Mof_C 	C 	0.77951	0.80848	0.14677	-0.175
Mof_H 	H 	0.77763	0.82477	0.10207	0.109
Mof_C 	C 	0.76682	0.81252	0.22677	0.147
Mof_C 	C 	0.77069	0.78891	0.29227	-0.185
Mof_H 	H 	0.76303	0.79187	0.34807	0.1
Mof_C 	C 	0.78579	0.76059	0.27657	0.106
Mof_H 	H 	0.78803	0.74487	0.32207	0.013
Mof_C 	C 	0.74767	0.84021	0.24357	-0.086
Mof_C 	C 	0.70859	0.8213	0.28987	-0.037
Mof_H 	H 	0.69613	0.79247	0.30577	0.044
Mof_C 	C 	0.84453	0.91187	0.23217	0.063
Mof_C 	C 	0.87813	0.92097	0.15977	0.003
Mof_C 	C 	0.85683	0.95237	0.28527	-0.034
Mof_O 	O 	0.9633	0.44301	0.5803	-0.407
Mof_O 	O 	0.94823	0.43566	0.4391	-0.415
Mof_C 	C 	0.94283	0.42133	0.5128	0.381
Mof_C 	C 	0.91109	0.37491	0.5305	-0.152
Mof_C 	C 	0.88625	0.34849	0.4621	0.091
Mof_H 	H 	0.8882	0.3596	0.407	0.016
Mof_C 	C 	0.85819	0.30437	0.4801	-0.175
Mof_H 	H 	0.8419	0.2862	0.4354	0.109
Mof_C 	C 	0.85415	0.28764	0.5601	0.147
Mof_C 	C 	0.87776	0.31512	0.6256	-0.185
Mof_H 	H 	0.8748	0.3045	0.6814	0.1
Mof_C 	C 	0.90608	0.35854	0.6099	0.106
Mof_H 	H 	0.9218	0.3765	0.6554	0.013
Mof_C 	C 	0.82646	0.2408	0.5769	-0.086
Mof_C 	C 	0.84537	0.22063	0.6232	-0.037
Mof_H 	H 	0.8742	0.237	0.6391	0.044
Mof_C 	C 	0.7548	0.266	0.5655	0.063
Mof_C 	C 	0.7457	0.2905	0.4931	0.003
Mof_C 	C 	0.7143	0.2378	0.6186	-0.034
Mof_O 	O 	0.62997	0.77634	0.91363	-0.406
Mof_O 	O 	0.6149	0.76899	0.77243	-0.415
Mof_C 	C 	0.6095	0.75466	0.84613	0.381
Mof_C 	C 	0.57776	0.70824	0.86383	-0.152
Mof_C 	C 	0.55292	0.68182	0.79543	0.091
Mof_H 	H 	0.55487	0.69293	0.74033	0.016
Mof_C 	C 	0.52486	0.6377	0.81343	-0.175
Mof_H 	H 	0.50857	0.61953	0.76873	0.108
Mof_C 	C 	0.52082	0.62097	0.89343	0.147
Mof_C 	C 	0.54443	0.64845	0.95893	-0.185
Mof_H 	H 	0.54147	0.63783	0.01473	0.1
Mof_C 	C 	0.57275	0.69187	0.94323	0.106
Mof_H 	H 	0.58847	0.70983	0.98873	0.013
Mof_C 	C 	0.49313	0.57413	0.91023	-0.086
Mof_C 	C 	0.51204	0.55396	0.95653	-0.037
Mof_H 	H 	0.54087	0.57033	0.97243	0.045
Mof_C 	C 	0.42147	0.59933	0.89883	0.063
Mof_C 	C 	0.41237	0.62383	0.82643	0.003
Mof_C 	C 	0.38097	0.57113	0.95193	-0.034
Mof_O 	O 	0.29663	0.10968	0.24697	-0.407
Mof_O 	O 	0.28156	0.10233	0.10577	-0.415
Mof_C 	C 	0.27616	0.088	0.17947	0.381
Mof_C 	C 	0.24442	0.04158	0.19717	-0.152
Mof_C 	C 	0.21958	0.01516	0.12877	0.091
Mof_H 	H 	0.22153	0.02627	0.07367	0.016
Mof_C 	C 	0.19152	0.97104	0.14677	-0.175
Mof_H 	H 	0.17523	0.95287	0.10207	0.109
Mof_C 	C 	0.18748	0.95431	0.22677	0.147
Mof_C 	C 	0.21109	0.98179	0.29227	-0.185
Mof_H 	H 	0.20813	0.97117	0.34807	0.1
Mof_C 	C 	0.23941	0.02521	0.27657	0.106
Mof_H 	H 	0.25513	0.04317	0.32207	0.013
Mof_C 	C 	0.15979	0.90747	0.24357	-0.086
Mof_C 	C 	0.1787	0.8873	0.28987	-0.037
Mof_H 	H 	0.20753	0.90367	0.30577	0.045
Mof_C 	C 	0.08813	0.93267	0.23217	0.063
Mof_C 	C 	0.07903	0.95717	0.15977	0.003
Mof_C 	C 	0.04763	0.90447	0.28527	-0.034
Mof_O 	O 	0.52029	0.55699	0.4197	-0.407
Mof_O 	O 	0.51257	0.56434	0.5609	-0.415
Mof_C 	C 	0.5215	0.57867	0.4872	0.381
Mof_C 	C 	0.53618	0.62509	0.4695	-0.152
Mof_C 	C 	0.53776	0.65151	0.5379	0.091
Mof_H 	H 	0.5286	0.6404	0.593	0.016
Mof_C 	C 	0.55382	0.69563	0.5199	-0.175
Mof_H 	H 	0.5557	0.7138	0.5646	0.109
Mof_C 	C 	0.56651	0.71236	0.4399	0.147
Mof_C 	C 	0.56264	0.68488	0.3744	-0.185
Mof_H 	H 	0.5703	0.6955	0.3186	0.1
Mof_C 	C 	0.54754	0.64146	0.3901	0.106
Mof_H 	H 	0.5453	0.6235	0.3446	0.013
Mof_C 	C 	0.58566	0.7592	0.4231	-0.086
Mof_C 	C 	0.62474	0.77937	0.3768	-0.037
Mof_H 	H 	0.6372	0.763	0.3609	0.044
Mof_C 	C 	0.4888	0.734	0.4345	0.063
Mof_C 	C 	0.4552	0.7095	0.5069	0.003
Mof_C 	C 	0.4765	0.7622	0.3814	-0.034
Mof_O 	O 	0.18696	0.89032	0.75303	-0.407
Mof_O 	O 	0.17924	0.89767	0.89423	-0.415
Mof_C 	C 	0.18817	0.912	0.82053	0.381
Mof_C 	C 	0.20285	0.95842	0.80283	-0.152
Mof_C 	C 	0.20443	0.98484	0.87123	0.091
Mof_H 	H 	0.19527	0.97373	0.92633	0.016
Mof_C 	C 	0.22049	0.02896	0.85323	-0.176
Mof_H 	H 	0.22237	0.04713	0.89793	0.109
Mof_C 	C 	0.23318	0.04569	0.77323	0.147
Mof_C 	C 	0.22931	0.01821	0.70773	-0.185
Mof_H 	H 	0.23697	0.02883	0.65193	0.1
Mof_C 	C 	0.21421	0.97479	0.72343	0.106
Mof_H 	H 	0.21197	0.95683	0.67793	0.012
Mof_C 	C 	0.25233	0.09253	0.75643	-0.086
Mof_C 	C 	0.29141	0.1127	0.71013	-0.037
Mof_H 	H 	0.30387	0.09633	0.69423	0.044
Mof_C 	C 	0.15547	0.06733	0.76783	0.063
Mof_C 	C 	0.12187	0.04283	0.84023	0.003
Mof_C 	C 	0.14317	0.09553	0.71473	-0.034
Mof_O 	O 	0.85362	0.22366	0.08637	-0.406
Mof_O 	O 	0.8459	0.23101	0.22757	-0.415
Mof_C 	C 	0.85483	0.24534	0.15387	0.381
Mof_C 	C 	0.86951	0.29176	0.13617	-0.152
Mof_C 	C 	0.87109	0.31818	0.20457	0.091
Mof_H 	H 	0.86193	0.30707	0.25967	0.016
Mof_C 	C 	0.88715	0.3623	0.18657	-0.175
Mof_H 	H 	0.88903	0.38047	0.23127	0.108
Mof_C 	C 	0.89984	0.37903	0.10657	0.147
Mof_C 	C 	0.89597	0.35155	0.04107	-0.185
Mof_H 	H 	0.90363	0.36217	0.98527	0.1
Mof_C 	C 	0.88087	0.30813	0.05677	0.106
Mof_H 	H 	0.87863	0.29017	0.01127	0.013
Mof_C 	C 	0.91899	0.42587	0.08977	-0.086
Mof_C 	C 	0.95807	0.44604	0.04347	-0.037
Mof_H 	H 	0.97053	0.42967	0.02757	0.045
Mof_C 	C 	0.82213	0.40067	0.10117	0.063
Mof_C 	C 	0.78853	0.37617	0.17357	0.003
Mof_C 	C 	0.80983	0.42887	0.04807	-0.034
Mof_O 	O 	0.0367	0.47971	0.4197	-0.407
Mof_O 	O 	0.05177	0.48743	0.5609	-0.415
Mof_C 	C 	0.05717	0.4785	0.4872	0.381
Mof_C 	C 	0.08891	0.46382	0.4695	-0.152
Mof_C 	C 	0.11375	0.46224	0.5379	0.091
Mof_H 	H 	0.1118	0.4714	0.593	0.016
Mof_C 	C 	0.14181	0.44618	0.5199	-0.175
Mof_H 	H 	0.1581	0.4443	0.5646	0.109
Mof_C 	C 	0.14585	0.43349	0.4399	0.147
Mof_C 	C 	0.12224	0.43736	0.3744	-0.185
Mof_H 	H 	0.1252	0.4297	0.3186	0.1
Mof_C 	C 	0.09392	0.45246	0.3901	0.106
Mof_H 	H 	0.0782	0.4547	0.3446	0.013
Mof_C 	C 	0.17354	0.41434	0.4231	-0.086
Mof_C 	C 	0.15463	0.37526	0.3768	-0.037
Mof_H 	H 	0.1258	0.3628	0.3609	0.044
Mof_C 	C 	0.2452	0.5112	0.4345	0.063
Mof_C 	C 	0.2543	0.5448	0.5069	0.003
Mof_C 	C 	0.2857	0.5235	0.3814	-0.034
Mof_O 	O 	0.70337	0.81304	0.75303	-0.407
Mof_O 	O 	0.71844	0.82076	0.89423	-0.415
Mof_C 	C 	0.72384	0.81183	0.82053	0.381
Mof_C 	C 	0.75558	0.79715	0.80283	-0.152
Mof_C 	C 	0.78042	0.79557	0.87123	0.091
Mof_H 	H 	0.77847	0.80473	0.92633	0.016
Mof_C 	C 	0.80848	0.77951	0.85323	-0.175
Mof_H 	H 	0.82477	0.77763	0.89793	0.109
Mof_C 	C 	0.81252	0.76682	0.77323	0.147
Mof_C 	C 	0.78891	0.77069	0.70773	-0.185
Mof_H 	H 	0.79187	0.76303	0.65193	0.1
Mof_C 	C 	0.76059	0.78579	0.72343	0.106
Mof_H 	H 	0.74487	0.78803	0.67793	0.013
Mof_C 	C 	0.84021	0.74767	0.75643	-0.086
Mof_C 	C 	0.8213	0.70859	0.71013	-0.037
Mof_H 	H 	0.79247	0.69613	0.69423	0.044
Mof_C 	C 	0.91187	0.84453	0.76783	0.063
Mof_C 	C 	0.92097	0.87813	0.84023	0.003
Mof_C 	C 	0.95237	0.85683	0.71473	-0.034
Mof_O 	O 	0.37003	0.14638	0.08637	-0.406
Mof_O 	O 	0.3851	0.1541	0.22757	-0.415
Mof_C 	C 	0.3905	0.14517	0.15387	0.381
Mof_C 	C 	0.42224	0.13049	0.13617	-0.152
Mof_C 	C 	0.44708	0.12891	0.20457	0.091
Mof_H 	H 	0.44513	0.13807	0.25967	0.016
Mof_C 	C 	0.47514	0.11285	0.18657	-0.175
Mof_H 	H 	0.49143	0.11097	0.23127	0.108
Mof_C 	C 	0.47918	0.10016	0.10657	0.147
Mof_C 	C 	0.45557	0.10403	0.04107	-0.185
Mof_H 	H 	0.45853	0.09637	0.98527	0.1
Mof_C 	C 	0.42725	0.11913	0.05677	0.106
Mof_H 	H 	0.41153	0.12137	0.01127	0.013
Mof_C 	C 	0.50687	0.08101	0.08977	-0.086
Mof_C 	C 	0.48796	0.04193	0.04347	-0.037
Mof_H 	H 	0.45913	0.02947	0.02757	0.045
Mof_C 	C 	0.57853	0.17787	0.10117	0.063
Mof_C 	C 	0.58763	0.21147	0.17357	0.003
Mof_C 	C 	0.61903	0.19017	0.04807	-0.034
Mof_O 	O 	0.44301	0.9633	0.4197	-0.407
Mof_O 	O 	0.43566	0.94823	0.5609	-0.415
Mof_C 	C 	0.42133	0.94283	0.4872	0.381
Mof_C 	C 	0.37491	0.91109	0.4695	-0.152
Mof_C 	C 	0.34849	0.88625	0.5379	0.091
Mof_H 	H 	0.3596	0.8882	0.593	0.016
Mof_C 	C 	0.30437	0.85819	0.5199	-0.175
Mof_H 	H 	0.2862	0.8419	0.5646	0.109
Mof_C 	C 	0.28764	0.85415	0.4399	0.147
Mof_C 	C 	0.31512	0.87776	0.3744	-0.185
Mof_H 	H 	0.3045	0.8748	0.3186	0.1
Mof_C 	C 	0.35854	0.90608	0.3901	0.106
Mof_H 	H 	0.3765	0.9218	0.3446	0.013
Mof_C 	C 	0.2408	0.82646	0.4231	-0.086
Mof_C 	C 	0.22063	0.84537	0.3768	-0.037
Mof_H 	H 	0.237	0.8742	0.3609	0.044
Mof_C 	C 	0.266	0.7548	0.4345	0.063
Mof_C 	C 	0.2905	0.7457	0.5069	0.003
Mof_C 	C 	0.2378	0.7143	0.3814	-0.034
Mof_O 	O 	0.10968	0.29663	0.75303	-0.407
Mof_O 	O 	0.10233	0.28156	0.89423	-0.415
Mof_C 	C 	0.088	0.27616	0.82053	0.381
Mof_C 	C 	0.04158	0.24442	0.80283	-0.152
Mof_C 	C 	0.01516	0.21958	0.87123	0.091
Mof_H 	H 	0.02627	0.22153	0.92633	0.016
Mof_C 	C 	0.97104	0.19152	0.85323	-0.175
Mof_H 	H 	0.95287	0.17523	0.89793	0.109
Mof_C 	C 	0.95431	0.18748	0.77323	0.147
Mof_C 	C 	0.98179	0.21109	0.70773	-0.185
Mof_H 	H 	0.97117	0.20813	0.65193	0.1
Mof_C 	C 	0.02521	0.23941	0.72343	0.106
Mof_H 	H 	0.04317	0.25513	0.67793	0.013
Mof_C 	C 	0.90747	0.15979	0.75643	-0.086
Mof_C 	C 	0.8873	0.1787	0.71013	-0.037
Mof_H 	H 	0.90367	0.20753	0.69423	0.045
Mof_C 	C 	0.93267	0.08813	0.76783	0.063
Mof_C 	C 	0.95717	0.07903	0.84023	0.003
Mof_C 	C 	0.90447	0.04763	0.71473	-0.034
Mof_O 	O 	0.77634	0.62997	0.08637	-0.406
Mof_O 	O 	0.76899	0.6149	0.22757	-0.415
Mof_C 	C 	0.75466	0.6095	0.15387	0.381
Mof_C 	C 	0.70824	0.57776	0.13617	-0.152
Mof_C 	C 	0.68182	0.55292	0.20457	0.091
Mof_H 	H 	0.69293	0.55487	0.25967	0.016
Mof_C 	C 	0.6377	0.52486	0.18657	-0.175
Mof_H 	H 	0.61953	0.50857	0.23127	0.108
Mof_C 	C 	0.62097	0.52082	0.10657	0.147
Mof_C 	C 	0.64845	0.54443	0.04107	-0.185
Mof_H 	H 	0.63783	0.54147	0.98527	0.1
Mof_C 	C 	0.69187	0.57275	0.05677	0.106
Mof_H 	H 	0.70983	0.58847	0.01127	0.013
Mof_C 	C 	0.57413	0.49313	0.08977	-0.086
Mof_C 	C 	0.55396	0.51204	0.04347	-0.037
Mof_H 	H 	0.57033	0.54087	0.02757	0.045
Mof_C 	C 	0.59933	0.42147	0.10117	0.063
Mof_C 	C 	0.62383	0.41237	0.17357	0.003
Mof_C 	C 	0.57113	0.38097	0.04807	-0.034
Mof_Cu	Cu	0.49575	0.50425	0.58334	0.905
Mof_Cu	Cu	0.16242	0.83758	0.91667	0.905
Mof_Cu	Cu	0.82908	0.17092	0.25001	0.905
Mof_Cu	Cu	0.49575	0.9915	0.58334	0.905
Mof_Cu	Cu	0.16242	0.32483	0.91667	0.905
Mof_Cu	Cu	0.82908	0.65817	0.25001	0.905
Mof_Cu	Cu	0.0085	0.50425	0.58334	0.905
Mof_Cu	Cu	0.67517	0.83758	0.91667	0.905
Mof_Cu	Cu	0.34183	0.17092	0.25001	0.905
Mof_Cu	Cu	0.50425	0.49575	0.41666	0.905
Mof_Cu	Cu	0.17092	0.82908	0.74999	0.905
Mof_Cu	Cu	0.83758	0.16242	0.08333	0.905
Mof_Cu	Cu	0.9915	0.49575	0.41666	0.905
Mof_Cu	Cu	0.65817	0.82908	0.74999	0.905
Mof_Cu	Cu	0.32483	0.16242	0.08333	0.905
Mof_Cu	Cu	0.50425	0.0085	0.41666	0.905
Mof_Cu	Cu	0.17092	0.34183	0.74999	0.905
Mof_Cu	Cu	0.83758	0.67517	0.08333	0.905
Mof_O 	O 	0.23664	0.47328	0.4862	-0.225
Mof_C 	C 	0.1773	0.35461	0.3539	0.004
Mof_C 	C 	0.21682	0.43365	0.4439	0.153
Mof_O 	O 	0.90331	0.80661	0.81953	-0.225
Mof_C 	C 	0.84397	0.68794	0.68723	0.004
Mof_C 	C 	0.88349	0.76698	0.77723	0.153
Mof_O 	O 	0.56997	0.13995	0.15287	-0.225
Mof_C 	C 	0.51064	0.02128	0.02057	0.004
Mof_C 	C 	0.55016	0.10032	0.11057	0.153
Mof_O 	O 	0.52672	0.76336	0.4862	-0.225
Mof_C 	C 	0.64539	0.8227	0.3539	0.004
Mof_C 	C 	0.56635	0.78318	0.4439	0.153
Mof_O 	O 	0.19339	0.09669	0.81953	-0.225
Mof_C 	C 	0.31206	0.15603	0.68723	0.004
Mof_C 	C 	0.23302	0.11651	0.77723	0.153
Mof_O 	O 	0.86005	0.43003	0.15287	-0.225
Mof_C 	C 	0.97872	0.48936	0.02057	0.004
Mof_C 	C 	0.89968	0.44984	0.11057	0.153
Mof_O 	O 	0.23664	0.76336	0.4862	-0.225
Mof_C 	C 	0.1773	0.8227	0.3539	0.004
Mof_C 	C 	0.21682	0.78318	0.4439	0.153
Mof_O 	O 	0.90331	0.09669	0.81953	-0.225
Mof_C 	C 	0.84397	0.15603	0.68723	0.004
Mof_C 	C 	0.88349	0.11651	0.77723	0.153
Mof_O 	O 	0.56997	0.43003	0.15287	-0.225
Mof_C 	C 	0.51064	0.48936	0.02057	0.004
Mof_C 	C 	0.55016	0.44984	0.11057	0.153
Mof_O 	O 	0.47328	0.23664	0.5138	-0.225
Mof_C 	C 	0.35461	0.1773	0.6461	0.004
Mof_C 	C 	0.43365	0.21682	0.5561	0.153
Mof_O 	O 	0.13995	0.56997	0.84713	-0.225
Mof_C 	C 	0.02128	0.51064	0.97943	0.004
Mof_C 	C 	0.10032	0.55016	0.88943	0.153
Mof_O 	O 	0.80661	0.90331	0.18047	-0.225
Mof_C 	C 	0.68794	0.84397	0.31277	0.004
Mof_C 	C 	0.76698	0.88349	0.22277	0.153
Mof_O 	O 	0.76336	0.52672	0.5138	-0.225
Mof_C 	C 	0.8227	0.64539	0.6461	0.004
Mof_C 	C 	0.78318	0.56635	0.5561	0.153
Mof_O 	O 	0.43003	0.86005	0.84713	-0.225
Mof_C 	C 	0.48936	0.97872	0.97943	0.004
Mof_C 	C 	0.44984	0.89968	0.88943	0.153
Mof_O 	O 	0.09669	0.19339	0.18047	-0.225
Mof_C 	C 	0.15603	0.31206	0.31277	0.004
Mof_C 	C 	0.11651	0.23302	0.22277	0.153
Mof_O 	O 	0.76336	0.23664	0.5138	-0.225
Mof_C 	C 	0.8227	0.1773	0.6461	0.004
Mof_C 	C 	0.78318	0.21682	0.5561	0.153
Mof_O 	O 	0.43003	0.56997	0.84713	-0.225
Mof_C 	C 	0.48936	0.51064	0.97943	0.004
Mof_C 	C 	0.44984	0.55016	0.88943	0.153
Mof_O 	O 	0.09669	0.90331	0.18047	-0.225
Mof_C 	C 	0.15603	0.84397	0.31277	0.004
Mof_C 	C 	0.11651	0.88349	0.22277	0.153
_end
