data_functionalizedCrystal
_audit_creation_method	'EQeq! by Chris Wilmer'
_symmetry_space_group_name_H-M	'P1'
_symmetry_Int_Tables_number	1
_symmetry_cell_setting	triclinic
loop_
_symmetry_equiv_pos_as_xyz
  x,y,z
_cell_length_a	6.654
_cell_length_b	8.939
_cell_length_c	11.505
_cell_angle_alpha	94.2
_cell_angle_beta	90.57
_cell_angle_gamma	107.12
loop_
_atom_site_label
_atom_site_type_symbol
_atom_site_fract_x
_atom_site_fract_y
_atom_site_fract_z
_atom_site_charge
Mof_Zr	Zr	0.16896	0.27749	0.90169	3.213
Mof_Zr	Zr	0.7748	0.55838	0.64844	3.22
Mof_P 	P 	0.7097	0.3832	0.91433	0.778
Mof_P 	P 	0.2341	0.4558	0.63912	0.754
Mof_P 	P 	0.8599	0.9021	0.8296	0.427
Mof_P 	P 	0.0061	0.1276	0.1643	0.371
Mof_F 	F 	0.681	0.3377	0.5793	-0.755
Mof_O 	O 	0.481	0.2801	0.9014	-0.692
Mof_O 	O 	0.7441	0.4937	0.0268	-0.748
Mof_O 	O 	0.8508	0.2738	0.919	-0.644
Mof_O 	O 	0.7662	0.4815	0.8104	-0.781
Mof_O 	O 	0.2062	0.3642	0.5187	-0.665
Mof_O 	O 	0.4625	0.5601	0.657	-0.683
Mof_O 	O 	0.089	0.5626	0.6445	-0.678
Mof_O 	O 	0.1817	0.3414	0.7337	-0.724
Mof_O 	O 	0.0572	0.0452	0.8306	-0.677
Mof_O 	O 	0.8523	0.8141	0.9363	-0.732
Mof_O 	O 	0.8701	0.7929	0.7182	-0.643
Mof_O 	O 	0.665	0.9674	0.8188	-0.163
Mof_O 	O 	0.7899	0.1684	0.1494	-0.178
Mof_Zr	Zr	0.83104	0.72251	0.09831	3.213
Mof_Zr	Zr	0.2252	0.44162	0.35156	3.22
Mof_P 	P 	0.2903	0.6168	0.08567	0.778
Mof_P 	P 	0.7659	0.5442	0.36088	0.754
Mof_P 	P 	0.1401	0.0979	0.1704	0.427
Mof_P 	P 	0.9939	0.8724	0.8357	0.371
Mof_F 	F 	0.319	0.6623	0.4207	-0.755
Mof_O 	O 	0.519	0.7199	0.0986	-0.692
Mof_O 	O 	0.2559	0.5063	0.9732	-0.748
Mof_O 	O 	0.1492	0.7262	0.081	-0.644
Mof_O 	O 	0.2338	0.5185	0.1896	-0.781
Mof_O 	O 	0.7938	0.6358	0.4813	-0.665
Mof_O 	O 	0.5375	0.4399	0.343	-0.683
Mof_O 	O 	0.911	0.4374	0.3555	-0.678
Mof_O 	O 	0.8183	0.6586	0.2663	-0.724
Mof_O 	O 	0.9428	0.9548	0.1694	-0.677
Mof_O 	O 	0.1477	0.1859	0.0637	-0.732
Mof_O 	O 	0.1299	0.2071	0.2818	-0.643
Mof_O 	O 	0.335	0.0326	0.1812	-0.163
Mof_O 	O 	0.2101	0.8316	0.8506	-0.178
_end
