data_functionalizedCrystal
_audit_creation_method	'EQeq! by Chris Wilmer'
_symmetry_space_group_name_H-M	'P1'
_symmetry_Int_Tables_number	1
_symmetry_cell_setting	triclinic
loop_
_symmetry_equiv_pos_as_xyz
  x,y,z
_cell_length_a	29.1115
_cell_length_b	14.3108
_cell_length_c	26.1788
_cell_angle_alpha	90
_cell_angle_beta	101.959
_cell_angle_gamma	90
loop_
_atom_site_label
_atom_site_type_symbol
_atom_site_fract_x
_atom_site_fract_y
_atom_site_fract_z
_atom_site_charge
Mof_Cd	Cd	0.6266	0.66132	0.44134	0.469
Mof_Cd	Cd	0.62927	0.43766	0.36983	0.484
Mof_Cd	Cd	0.75389	0.37601	0.34833	0.417
Mof_N 	N 	0.74326	0.6156	0.4535	-0.159
Mof_N 	N 	0.69925	0.5838	0.439	-0.067
Mof_N 	N 	0.69961	0.5081	0.4113	-0.068
Mof_N 	N 	0.74403	0.4899	0.4067	-0.167
Mof_N 	N 	0.7926	0.2306	0.2181	-0.081
Mof_O 	O 	0.68254	0.7907	0.44057	-0.303
Mof_O 	O 	0.60721	0.8193	0.4211	-0.263
Mof_O 	O 	0.6494	0.2942	0.3955	-0.284
Mof_O 	O 	0.7206	0.2591	0.3821	-0.28
Mof_O 	O 	0.62869	0.6843	0.52541	-0.287
Mof_O 	O 	0.70678	0.6802	0.55271	-0.29
Mof_O 	O 	0.6829	0.5658	0.8035	-0.307
Mof_O 	O 	0.6081	0.6021	0.7838	-0.268
Mof_O 	O 	0.60775	0.5985	0.35236	-0.294
Mof_O 	O 	0.55022	0.6518	0.388	-0.255
Mof_O 	O 	0.61009	0.5001	0.45209	-0.272
Mof_O 	O 	0.55774	0.4214	0.395	-0.257
Mof_O 	O 	0.7616	0.27	0.2848	-0.305
Mof_C 	C 	0.7706	0.5571	0.4332	0.321
Mof_C 	C 	0.8222	0.5677	0.4387	-0.858
Mof_H 	H 	0.8372	0.5083	0.4475	0.283
Mof_H 	H 	0.8339	0.6119	0.4659	0.297
Mof_H 	H 	0.829	0.5896	0.4064	0.279
Mof_C 	C 	0.6487	0.8474	0.4284	0.276
Mof_C 	C 	0.6817	0.2394	0.3937	0.323
Mof_C 	C 	0.6581	0.9487	0.4201	-0.057
Mof_C 	C 	0.7033	0.9811	0.4224	-0.038
Mof_H 	H 	0.7285	0.9399	0.4298	0.064
Mof_C 	C 	0.711	0.0744	0.4139	-0.016
Mof_H 	H 	0.7413	0.0951	0.4142	0.056
Mof_C 	C 	0.6745	0.1372	0.4049	-0.059
Mof_C 	C 	0.6297	0.1052	0.404	-0.022
Mof_H 	H 	0.6049	0.1474	0.3986	0.059
Mof_C 	C 	0.6209	0.0111	0.4109	-0.036
Mof_H 	H 	0.5904	0.9902	0.4093	0.058
Mof_C 	C 	0.6658	0.6745	0.5598	0.303
Mof_C 	C 	0.6474	0.593	0.7718	0.306
Mof_C 	C 	0.6602	0.6524	0.6145	-0.06
Mof_C 	C 	0.6963	0.609	0.6487	-0.024
Mof_H 	H 	0.7237	0.5929	0.6378	0.05
Mof_C 	C 	0.692	0.5893	0.6995	-0.022
Mof_H 	H 	0.7168	0.5617	0.7227	0.044
Mof_C 	C 	0.6509	0.6105	0.7156	-0.056
Mof_C 	C 	0.6141	0.6507	0.6806	-0.027
Mof_H 	H 	0.5862	0.6646	0.6911	0.06
Mof_C 	C 	0.6185	0.6703	0.6301	-0.027
Mof_H 	H 	0.5932	0.6957	0.6065	0.052
Mof_C 	C 	0.5647	0.6203	0.3495	0.287
Mof_C 	C 	0.5309	0.6113	0.2979	-0.046
Mof_C 	C 	0.5476	0.6079	0.2521	-0.023
Mof_H 	H 	0.5798	0.6041	0.2536	0.054
Mof_C 	C 	0.4833	0.6102	0.2957	-0.022
Mof_H 	H 	0.4719	0.611	0.3264	0.058
Mof_C 	C 	0.5688	0.4674	0.4365	0.288
Mof_C 	C 	0.5329	0.4841	0.4696	-0.041
Mof_C 	C 	0.5455	0.5277	0.5173	-0.027
Mof_H 	H 	0.5764	0.5467	0.5293	0.066
Mof_C 	C 	0.5124	0.5433	0.5475	-0.02
Mof_H 	H 	0.5212	0.5729	0.5797	0.057
Mof_C 	C 	0.7909	0.284	0.258	0.036
Mof_C 	C 	0.8244	0.245	0.1824	-0.211
Mof_H 	H 	0.8088	0.2804	0.1528	0.074
Mof_H 	H 	0.8336	0.1853	0.1709	0.096
Mof_H 	H 	0.8518	0.2781	0.2001	0.022
Mof_C 	C 	0.759	0.153	0.2023	0.073
Mof_H 	H 	0.7514	0.1252	0.2328	-0.011
Mof_H 	H 	0.7728	0.1073	0.1834	0.048
Mof_H 	H 	0.7309	0.1773	0.1803	-0.061
Mof_O 	O 	0.788	0.29	0.292	-0.106
Mof_C 	C 	0.768	0.242	0.255	0.315
Mof_C 	C 	0.782	0.163	0.175	-0.5
Mof_H 	H 	0.7487	0.1545	0.1649	0.176
Mof_H 	H 	0.7967	0.1044	0.186	0.156
Mof_H 	H 	0.7938	0.1863	0.1457	0.196
Mof_C 	C 	0.834	0.289	0.215	-0.2
Mof_H 	H 	0.8441	0.2749	0.183	0.159
Mof_H 	H 	0.8589	0.2759	0.2441	0.093
Mof_H 	H 	0.8255	0.3537	0.2151	0.089
Mof_Cd	Cd	0.1266	0.16132	0.44134	0.47
Mof_Cd	Cd	0.12927	0.93766	0.36983	0.485
Mof_Cd	Cd	0.25389	0.87601	0.34833	0.418
Mof_N 	N 	0.24326	0.1156	0.4535	-0.158
Mof_N 	N 	0.19925	0.0838	0.439	-0.067
Mof_N 	N 	0.19961	0.0081	0.4113	-0.068
Mof_N 	N 	0.24403	0.9899	0.4067	-0.166
Mof_N 	N 	0.2926	0.7306	0.2181	-0.081
Mof_O 	O 	0.18254	0.2907	0.44057	-0.303
Mof_O 	O 	0.10721	0.3193	0.4211	-0.263
Mof_O 	O 	0.1494	0.7942	0.3955	-0.284
Mof_O 	O 	0.2206	0.7591	0.3821	-0.28
Mof_O 	O 	0.12869	0.1843	0.52541	-0.287
Mof_O 	O 	0.20678	0.1802	0.55271	-0.29
Mof_O 	O 	0.1829	0.0658	0.8035	-0.307
Mof_O 	O 	0.1081	0.1021	0.7838	-0.268
Mof_O 	O 	0.10775	0.0985	0.35236	-0.294
Mof_O 	O 	0.05022	0.1518	0.388	-0.255
Mof_O 	O 	0.11009	0.0001	0.45209	-0.273
Mof_O 	O 	0.05774	0.9214	0.395	-0.257
Mof_O 	O 	0.2616	0.77	0.2848	-0.305
Mof_C 	C 	0.2706	0.0571	0.4332	0.32
Mof_C 	C 	0.3222	0.0677	0.4387	-0.857
Mof_H 	H 	0.3372	0.0083	0.4475	0.282
Mof_H 	H 	0.3339	0.1119	0.4659	0.296
Mof_H 	H 	0.329	0.0896	0.4064	0.279
Mof_C 	C 	0.1487	0.3474	0.4284	0.276
Mof_C 	C 	0.1817	0.7394	0.3937	0.323
Mof_C 	C 	0.1581	0.4487	0.4201	-0.058
Mof_C 	C 	0.2033	0.4811	0.4224	-0.038
Mof_H 	H 	0.2285	0.4399	0.4298	0.064
Mof_C 	C 	0.211	0.5744	0.4139	-0.016
Mof_H 	H 	0.2413	0.5951	0.4142	0.056
Mof_C 	C 	0.1745	0.6372	0.4049	-0.058
Mof_C 	C 	0.1297	0.6052	0.404	-0.023
Mof_H 	H 	0.1049	0.6474	0.3986	0.059
Mof_C 	C 	0.1209	0.5111	0.4109	-0.034
Mof_H 	H 	0.0904	0.4902	0.4093	0.057
Mof_C 	C 	0.1658	0.1745	0.5598	0.303
Mof_C 	C 	0.1474	0.093	0.7718	0.306
Mof_C 	C 	0.1602	0.1524	0.6145	-0.06
Mof_C 	C 	0.1963	0.109	0.6487	-0.025
Mof_H 	H 	0.2237	0.0929	0.6378	0.05
Mof_C 	C 	0.192	0.0893	0.6995	-0.022
Mof_H 	H 	0.2168	0.0617	0.7227	0.044
Mof_C 	C 	0.1509	0.1105	0.7156	-0.057
Mof_C 	C 	0.1141	0.1507	0.6806	-0.027
Mof_H 	H 	0.0862	0.1646	0.6911	0.06
Mof_C 	C 	0.1185	0.1703	0.6301	-0.027
Mof_H 	H 	0.0932	0.1957	0.6065	0.052
Mof_C 	C 	0.0647	0.1203	0.3495	0.287
Mof_C 	C 	0.0309	0.1113	0.2979	-0.047
Mof_C 	C 	0.0476	0.1079	0.2521	-0.022
Mof_H 	H 	0.0798	0.1041	0.2536	0.053
Mof_C 	C 	0.9833	0.1102	0.2957	-0.02
Mof_H 	H 	0.9719	0.111	0.3264	0.057
Mof_C 	C 	0.0688	0.9674	0.4365	0.289
Mof_C 	C 	0.0329	0.9841	0.4696	-0.041
Mof_C 	C 	0.0455	0.0277	0.5173	-0.027
Mof_H 	H 	0.0764	0.0467	0.5293	0.066
Mof_C 	C 	0.0124	0.0433	0.5475	-0.02
Mof_H 	H 	0.0212	0.0729	0.5797	0.057
Mof_C 	C 	0.2909	0.784	0.258	0.036
Mof_C 	C 	0.3244	0.745	0.1824	-0.212
Mof_H 	H 	0.3088	0.7804	0.1528	0.074
Mof_H 	H 	0.3336	0.6853	0.1709	0.096
Mof_H 	H 	0.3518	0.7781	0.2001	0.022
Mof_C 	C 	0.259	0.653	0.2023	0.072
Mof_H 	H 	0.2514	0.6252	0.2328	-0.011
Mof_H 	H 	0.2728	0.6073	0.1834	0.048
Mof_H 	H 	0.2309	0.6773	0.1803	-0.061
Mof_O 	O 	0.288	0.79	0.292	-0.106
Mof_C 	C 	0.268	0.742	0.255	0.315
Mof_C 	C 	0.282	0.663	0.175	-0.5
Mof_H 	H 	0.2487	0.6545	0.1649	0.176
Mof_H 	H 	0.2967	0.6044	0.186	0.156
Mof_H 	H 	0.2938	0.6863	0.1457	0.196
Mof_C 	C 	0.334	0.789	0.215	-0.2
Mof_H 	H 	0.3441	0.7749	0.183	0.159
Mof_H 	H 	0.3589	0.7759	0.2441	0.093
Mof_H 	H 	0.3255	0.8537	0.2151	0.089
Mof_Cd	Cd	0.3734	0.66132	0.05866	0.466
Mof_Cd	Cd	0.37073	0.43766	0.13017	0.485
Mof_Cd	Cd	0.24611	0.37601	0.15167	0.417
Mof_N 	N 	0.25674	0.6156	0.0465	-0.158
Mof_N 	N 	0.30075	0.5838	0.061	-0.068
Mof_N 	N 	0.30039	0.5081	0.0887	-0.068
Mof_N 	N 	0.25597	0.4899	0.0933	-0.167
Mof_N 	N 	0.2074	0.2306	0.2819	-0.082
Mof_O 	O 	0.31746	0.7907	0.05943	-0.304
Mof_O 	O 	0.39279	0.8193	0.0789	-0.265
Mof_O 	O 	0.3506	0.2942	0.1045	-0.285
Mof_O 	O 	0.2794	0.2591	0.1179	-0.281
Mof_O 	O 	0.37131	0.6843	0.97459	-0.28
Mof_O 	O 	0.29322	0.6802	0.94729	-0.285
Mof_O 	O 	0.3171	0.5658	0.6965	-0.307
Mof_O 	O 	0.3919	0.6021	0.7162	-0.268
Mof_O 	O 	0.39225	0.5985	0.14764	-0.294
Mof_O 	O 	0.44978	0.6518	0.112	-0.256
Mof_O 	O 	0.38991	0.5001	0.04791	-0.278
Mof_O 	O 	0.44226	0.4214	0.105	-0.261
Mof_O 	O 	0.2384	0.27	0.2152	-0.306
Mof_C 	C 	0.2294	0.5571	0.0668	0.317
Mof_C 	C 	0.1778	0.5677	0.0613	-0.849
Mof_H 	H 	0.1628	0.5083	0.0525	0.278
Mof_H 	H 	0.1661	0.6119	0.0341	0.292
Mof_H 	H 	0.171	0.5896	0.0936	0.276
Mof_C 	C 	0.3513	0.8474	0.0716	0.275
Mof_C 	C 	0.3183	0.2394	0.1063	0.323
Mof_C 	C 	0.3419	0.9487	0.0799	-0.059
Mof_C 	C 	0.2967	0.9811	0.0776	-0.039
Mof_H 	H 	0.2715	0.9399	0.0702	0.063
Mof_C 	C 	0.289	0.0744	0.0861	-0.017
Mof_H 	H 	0.2587	0.0951	0.0858	0.055
Mof_C 	C 	0.3255	0.1372	0.0951	-0.06
Mof_C 	C 	0.3703	0.1052	0.096	-0.023
Mof_H 	H 	0.3951	0.1474	0.1014	0.058
Mof_C 	C 	0.3791	0.0111	0.0891	-0.036
Mof_H 	H 	0.4096	0.9902	0.0907	0.057
Mof_C 	C 	0.3342	0.6745	0.9402	0.301
Mof_C 	C 	0.3526	0.593	0.7282	0.306
Mof_C 	C 	0.3398	0.6524	0.8855	-0.058
Mof_C 	C 	0.3037	0.609	0.8513	-0.025
Mof_H 	H 	0.2763	0.5929	0.8622	0.051
Mof_C 	C 	0.308	0.5893	0.8005	-0.021
Mof_H 	H 	0.2832	0.5617	0.7773	0.044
Mof_C 	C 	0.3491	0.6105	0.7844	-0.057
Mof_C 	C 	0.3859	0.6507	0.8194	-0.026
Mof_H 	H 	0.4138	0.6646	0.8089	0.06
Mof_C 	C 	0.3815	0.6703	0.8699	-0.028
Mof_H 	H 	0.4068	0.6957	0.8935	0.052
Mof_C 	C 	0.4353	0.6203	0.1505	0.288
Mof_C 	C 	0.4691	0.6113	0.2021	-0.046
Mof_C 	C 	0.4524	0.6079	0.2479	-0.022
Mof_H 	H 	0.4202	0.6041	0.2464	0.054
Mof_C 	C 	0.5167	0.6102	0.2043	-0.021
Mof_H 	H 	0.5281	0.611	0.1736	0.057
Mof_C 	C 	0.4312	0.4674	0.0635	0.3
Mof_C 	C 	0.4671	0.4841	0.0304	-0.079
Mof_C 	C 	0.4545	0.5277	0.9827	0.018
Mof_H 	H 	0.4236	0.5467	0.9707	0.053
Mof_C 	C 	0.4876	0.5433	0.9525	-0.055
Mof_H 	H 	0.4788	0.5729	0.9203	0.07
Mof_C 	C 	0.2091	0.284	0.242	0.035
Mof_C 	C 	0.1756	0.245	0.3176	-0.211
Mof_H 	H 	0.1912	0.2804	0.3472	0.073
Mof_H 	H 	0.1664	0.1853	0.3291	0.096
Mof_H 	H 	0.1482	0.2781	0.2999	0.022
Mof_C 	C 	0.241	0.153	0.2977	0.073
Mof_H 	H 	0.2486	0.1252	0.2672	-0.012
Mof_H 	H 	0.2272	0.1073	0.3166	0.048
Mof_H 	H 	0.2691	0.1773	0.3197	-0.061
Mof_O 	O 	0.212	0.29	0.208	-0.105
Mof_C 	C 	0.232	0.242	0.245	0.315
Mof_C 	C 	0.218	0.163	0.325	-0.501
Mof_H 	H 	0.2513	0.1545	0.3351	0.176
Mof_H 	H 	0.2033	0.1044	0.314	0.156
Mof_H 	H 	0.2062	0.1863	0.3543	0.196
Mof_C 	C 	0.166	0.289	0.285	-0.199
Mof_H 	H 	0.1559	0.2749	0.317	0.159
Mof_H 	H 	0.1411	0.2759	0.2559	0.092
Mof_H 	H 	0.1745	0.3537	0.2849	0.089
Mof_Cd	Cd	0.8734	0.16132	0.05866	0.466
Mof_Cd	Cd	0.87073	0.93766	0.13017	0.485
Mof_Cd	Cd	0.74611	0.87601	0.15167	0.417
Mof_N 	N 	0.75674	0.1156	0.0465	-0.158
Mof_N 	N 	0.80075	0.0838	0.061	-0.068
Mof_N 	N 	0.80039	0.0081	0.0887	-0.068
Mof_N 	N 	0.75597	0.9899	0.0933	-0.167
Mof_N 	N 	0.7074	0.7306	0.2819	-0.082
Mof_O 	O 	0.81746	0.2907	0.05943	-0.304
Mof_O 	O 	0.89279	0.3193	0.0789	-0.265
Mof_O 	O 	0.8506	0.7942	0.1045	-0.285
Mof_O 	O 	0.7794	0.7591	0.1179	-0.281
Mof_O 	O 	0.87131	0.1843	0.97459	-0.281
Mof_O 	O 	0.79322	0.1802	0.94729	-0.286
Mof_O 	O 	0.8171	0.0658	0.6965	-0.307
Mof_O 	O 	0.8919	0.1021	0.7162	-0.268
Mof_O 	O 	0.89225	0.0985	0.14764	-0.294
Mof_O 	O 	0.94978	0.1518	0.112	-0.256
Mof_O 	O 	0.88991	0.0001	0.04791	-0.278
Mof_O 	O 	0.94226	0.9214	0.105	-0.26
Mof_O 	O 	0.7384	0.77	0.2152	-0.306
Mof_C 	C 	0.7294	0.0571	0.0668	0.317
Mof_C 	C 	0.6778	0.0677	0.0613	-0.85
Mof_H 	H 	0.6628	0.0083	0.0525	0.278
Mof_H 	H 	0.6661	0.1119	0.0341	0.292
Mof_H 	H 	0.671	0.0896	0.0936	0.276
Mof_C 	C 	0.8513	0.3474	0.0716	0.275
Mof_C 	C 	0.8183	0.7394	0.1063	0.323
Mof_C 	C 	0.8419	0.4487	0.0799	-0.059
Mof_C 	C 	0.7967	0.4811	0.0776	-0.039
Mof_H 	H 	0.7715	0.4399	0.0702	0.063
Mof_C 	C 	0.789	0.5744	0.0861	-0.017
Mof_H 	H 	0.7587	0.5951	0.0858	0.055
Mof_C 	C 	0.8255	0.6372	0.0951	-0.06
Mof_C 	C 	0.8703	0.6052	0.096	-0.023
Mof_H 	H 	0.8951	0.6474	0.1014	0.058
Mof_C 	C 	0.8791	0.5111	0.0891	-0.035
Mof_H 	H 	0.9096	0.4902	0.0907	0.056
Mof_C 	C 	0.8342	0.1745	0.9402	0.301
Mof_C 	C 	0.8526	0.093	0.7282	0.306
Mof_C 	C 	0.8398	0.1524	0.8855	-0.058
Mof_C 	C 	0.8037	0.109	0.8513	-0.025
Mof_H 	H 	0.7763	0.0929	0.8622	0.051
Mof_C 	C 	0.808	0.0893	0.8005	-0.021
Mof_H 	H 	0.7832	0.0617	0.7773	0.044
Mof_C 	C 	0.8491	0.1105	0.7844	-0.057
Mof_C 	C 	0.8859	0.1507	0.8194	-0.026
Mof_H 	H 	0.9138	0.1646	0.8089	0.06
Mof_C 	C 	0.8815	0.1703	0.8699	-0.028
Mof_H 	H 	0.9068	0.1957	0.8935	0.052
Mof_C 	C 	0.9353	0.1203	0.1505	0.287
Mof_C 	C 	0.9691	0.1113	0.2021	-0.045
Mof_C 	C 	0.9524	0.1079	0.2479	-0.023
Mof_H 	H 	0.9202	0.1041	0.2464	0.054
Mof_C 	C 	0.0167	0.1102	0.2043	-0.022
Mof_H 	H 	0.0281	0.111	0.1736	0.057
Mof_C 	C 	0.9312	0.9674	0.0635	0.299
Mof_C 	C 	0.9671	0.9841	0.0304	-0.075
Mof_C 	C 	0.9545	0.0277	0.9827	0.014
Mof_H 	H 	0.9236	0.0467	0.9707	0.054
Mof_C 	C 	0.9876	0.0433	0.9525	-0.052
Mof_H 	H 	0.9788	0.0729	0.9203	0.069
Mof_C 	C 	0.7091	0.784	0.242	0.035
Mof_C 	C 	0.6756	0.745	0.3176	-0.211
Mof_H 	H 	0.6912	0.7804	0.3472	0.073
Mof_H 	H 	0.6664	0.6853	0.3291	0.096
Mof_H 	H 	0.6482	0.7781	0.2999	0.022
Mof_C 	C 	0.741	0.653	0.2977	0.073
Mof_H 	H 	0.7486	0.6252	0.2672	-0.012
Mof_H 	H 	0.7272	0.6073	0.3166	0.048
Mof_H 	H 	0.7691	0.6773	0.3197	-0.061
Mof_O 	O 	0.712	0.79	0.208	-0.105
Mof_C 	C 	0.732	0.742	0.245	0.315
Mof_C 	C 	0.718	0.663	0.325	-0.501
Mof_H 	H 	0.7513	0.6545	0.3351	0.176
Mof_H 	H 	0.7033	0.6044	0.314	0.156
Mof_H 	H 	0.7062	0.6863	0.3543	0.196
Mof_C 	C 	0.666	0.789	0.285	-0.199
Mof_H 	H 	0.6559	0.7749	0.317	0.159
Mof_H 	H 	0.6411	0.7759	0.2559	0.092
Mof_H 	H 	0.6745	0.8537	0.2849	0.089
Mof_Cd	Cd	0.3734	0.33868	0.55866	0.47
Mof_Cd	Cd	0.37073	0.56234	0.63017	0.485
Mof_Cd	Cd	0.24611	0.62399	0.65167	0.418
Mof_N 	N 	0.25674	0.3844	0.5465	-0.158
Mof_N 	N 	0.30075	0.4162	0.561	-0.067
Mof_N 	N 	0.30039	0.4919	0.5887	-0.068
Mof_N 	N 	0.25597	0.5101	0.5933	-0.167
Mof_N 	N 	0.2074	0.7694	0.7819	-0.082
Mof_O 	O 	0.31746	0.2093	0.55943	-0.304
Mof_O 	O 	0.39279	0.1807	0.5789	-0.263
Mof_O 	O 	0.3506	0.7058	0.6045	-0.284
Mof_O 	O 	0.2794	0.7409	0.6179	-0.28
Mof_O 	O 	0.37131	0.3157	0.47459	-0.287
Mof_O 	O 	0.29322	0.3198	0.44729	-0.29
Mof_O 	O 	0.3171	0.4342	0.1965	-0.306
Mof_O 	O 	0.3919	0.3979	0.2162	-0.268
Mof_O 	O 	0.39225	0.4015	0.64764	-0.294
Mof_O 	O 	0.44978	0.3482	0.612	-0.255
Mof_O 	O 	0.38991	0.4999	0.54791	-0.272
Mof_O 	O 	0.44226	0.5786	0.605	-0.257
Mof_O 	O 	0.2384	0.73	0.7152	-0.305
Mof_C 	C 	0.2294	0.4429	0.5668	0.321
Mof_C 	C 	0.1778	0.4323	0.5613	-0.858
Mof_H 	H 	0.1628	0.4917	0.5525	0.283
Mof_H 	H 	0.1661	0.3881	0.5341	0.296
Mof_H 	H 	0.171	0.4104	0.5936	0.279
Mof_C 	C 	0.3513	0.1526	0.5716	0.276
Mof_C 	C 	0.3183	0.7606	0.6063	0.323
Mof_C 	C 	0.3419	0.0513	0.5799	-0.059
Mof_C 	C 	0.2967	0.0189	0.5776	-0.038
Mof_H 	H 	0.2715	0.0601	0.5702	0.064
Mof_C 	C 	0.289	0.9256	0.5861	-0.016
Mof_H 	H 	0.2587	0.9049	0.5858	0.056
Mof_C 	C 	0.3255	0.8628	0.5951	-0.058
Mof_C 	C 	0.3703	0.8948	0.596	-0.024
Mof_H 	H 	0.3951	0.8526	0.6014	0.059
Mof_C 	C 	0.3791	0.9889	0.5891	-0.032
Mof_H 	H 	0.4096	0.0098	0.5907	0.056
Mof_C 	C 	0.3342	0.3255	0.4402	0.303
Mof_C 	C 	0.3526	0.407	0.2282	0.306
Mof_C 	C 	0.3398	0.3476	0.3855	-0.06
Mof_C 	C 	0.3037	0.391	0.3513	-0.024
Mof_H 	H 	0.2763	0.4071	0.3622	0.05
Mof_C 	C 	0.308	0.4107	0.3005	-0.022
Mof_H 	H 	0.2832	0.4383	0.2773	0.044
Mof_C 	C 	0.3491	0.3895	0.2844	-0.056
Mof_C 	C 	0.3859	0.3493	0.3194	-0.027
Mof_H 	H 	0.4138	0.3354	0.3089	0.06
Mof_C 	C 	0.3815	0.3297	0.3699	-0.027
Mof_H 	H 	0.4068	0.3043	0.3935	0.052
Mof_C 	C 	0.4353	0.3797	0.6505	0.287
Mof_C 	C 	0.4691	0.3887	0.7021	-0.046
Mof_C 	C 	0.4524	0.3921	0.7479	-0.022
Mof_H 	H 	0.4202	0.3959	0.7464	0.054
Mof_C 	C 	0.5167	0.3898	0.7043	-0.021
Mof_H 	H 	0.5281	0.389	0.6736	0.057
Mof_C 	C 	0.4312	0.5326	0.5635	0.288
Mof_C 	C 	0.4671	0.5159	0.5304	-0.041
Mof_C 	C 	0.4545	0.4723	0.4827	-0.027
Mof_H 	H 	0.4236	0.4533	0.4707	0.066
Mof_C 	C 	0.4876	0.4567	0.4525	-0.02
Mof_H 	H 	0.4788	0.4271	0.4203	0.057
Mof_C 	C 	0.2091	0.716	0.742	0.036
Mof_C 	C 	0.1756	0.755	0.8176	-0.211
Mof_H 	H 	0.1912	0.7196	0.8472	0.073
Mof_H 	H 	0.1664	0.8147	0.8291	0.096
Mof_H 	H 	0.1482	0.7219	0.7999	0.022
Mof_C 	C 	0.241	0.847	0.7977	0.073
Mof_H 	H 	0.2486	0.8748	0.7672	-0.011
Mof_H 	H 	0.2272	0.8927	0.8166	0.048
Mof_H 	H 	0.2691	0.8227	0.8197	-0.061
Mof_O 	O 	0.212	0.71	0.708	-0.106
Mof_C 	C 	0.232	0.758	0.745	0.314
Mof_C 	C 	0.218	0.837	0.825	-0.5
Mof_H 	H 	0.2513	0.8455	0.8351	0.176
Mof_H 	H 	0.2033	0.8956	0.814	0.156
Mof_H 	H 	0.2062	0.8137	0.8543	0.196
Mof_C 	C 	0.166	0.711	0.785	-0.199
Mof_H 	H 	0.1559	0.7251	0.817	0.159
Mof_H 	H 	0.1411	0.7241	0.7559	0.093
Mof_H 	H 	0.1745	0.6463	0.7849	0.089
Mof_Cd	Cd	0.8734	0.83868	0.55866	0.47
Mof_Cd	Cd	0.87073	0.06234	0.63017	0.485
Mof_Cd	Cd	0.74611	0.12399	0.65167	0.417
Mof_N 	N 	0.75674	0.8844	0.5465	-0.158
Mof_N 	N 	0.80075	0.9162	0.561	-0.067
Mof_N 	N 	0.80039	0.9919	0.5887	-0.067
Mof_N 	N 	0.75597	0.0101	0.5933	-0.167
Mof_N 	N 	0.7074	0.2694	0.7819	-0.082
Mof_O 	O 	0.81746	0.7093	0.55943	-0.303
Mof_O 	O 	0.89279	0.6807	0.5789	-0.263
Mof_O 	O 	0.8506	0.2058	0.6045	-0.284
Mof_O 	O 	0.7794	0.2409	0.6179	-0.28
Mof_O 	O 	0.87131	0.8157	0.47459	-0.286
Mof_O 	O 	0.79322	0.8198	0.44729	-0.29
Mof_O 	O 	0.8171	0.9342	0.1965	-0.306
Mof_O 	O 	0.8919	0.8979	0.2162	-0.268
Mof_O 	O 	0.89225	0.9015	0.64764	-0.294
Mof_O 	O 	0.94978	0.8482	0.612	-0.255
Mof_O 	O 	0.88991	0.9999	0.54791	-0.272
Mof_O 	O 	0.94226	0.0786	0.605	-0.257
Mof_O 	O 	0.7384	0.23	0.7152	-0.305
Mof_C 	C 	0.7294	0.9429	0.5668	0.321
Mof_C 	C 	0.6778	0.9323	0.5613	-0.858
Mof_H 	H 	0.6628	0.9917	0.5525	0.283
Mof_H 	H 	0.6661	0.8881	0.5341	0.297
Mof_H 	H 	0.671	0.9104	0.5936	0.279
Mof_C 	C 	0.8513	0.6526	0.5716	0.276
Mof_C 	C 	0.8183	0.2606	0.6063	0.323
Mof_C 	C 	0.8419	0.5513	0.5799	-0.058
Mof_C 	C 	0.7967	0.5189	0.5776	-0.038
Mof_H 	H 	0.7715	0.5601	0.5702	0.064
Mof_C 	C 	0.789	0.4256	0.5861	-0.016
Mof_H 	H 	0.7587	0.4049	0.5858	0.056
Mof_C 	C 	0.8255	0.3628	0.5951	-0.058
Mof_C 	C 	0.8703	0.3948	0.596	-0.023
Mof_H 	H 	0.8951	0.3526	0.6014	0.059
Mof_C 	C 	0.8791	0.4889	0.5891	-0.034
Mof_H 	H 	0.9096	0.5098	0.5907	0.057
Mof_C 	C 	0.8342	0.8255	0.4402	0.303
Mof_C 	C 	0.8526	0.907	0.2282	0.306
Mof_C 	C 	0.8398	0.8476	0.3855	-0.06
Mof_C 	C 	0.8037	0.891	0.3513	-0.024
Mof_H 	H 	0.7763	0.9071	0.3622	0.05
Mof_C 	C 	0.808	0.9107	0.3005	-0.022
Mof_H 	H 	0.7832	0.9383	0.2773	0.044
Mof_C 	C 	0.8491	0.8895	0.2844	-0.056
Mof_C 	C 	0.8859	0.8493	0.3194	-0.027
Mof_H 	H 	0.9138	0.8354	0.3089	0.06
Mof_C 	C 	0.8815	0.8297	0.3699	-0.027
Mof_H 	H 	0.9068	0.8043	0.3935	0.052
Mof_C 	C 	0.9353	0.8797	0.6505	0.287
Mof_C 	C 	0.9691	0.8887	0.7021	-0.045
Mof_C 	C 	0.9524	0.8921	0.7479	-0.023
Mof_H 	H 	0.9202	0.8959	0.7464	0.054
Mof_C 	C 	0.0167	0.8898	0.7043	-0.022
Mof_H 	H 	0.0281	0.889	0.6736	0.058
Mof_C 	C 	0.9312	0.0326	0.5635	0.288
Mof_C 	C 	0.9671	0.0159	0.5304	-0.042
Mof_C 	C 	0.9545	0.9723	0.4827	-0.026
Mof_H 	H 	0.9236	0.9533	0.4707	0.066
Mof_C 	C 	0.9876	0.9567	0.4525	-0.02
Mof_H 	H 	0.9788	0.9271	0.4203	0.057
Mof_C 	C 	0.7091	0.216	0.742	0.036
Mof_C 	C 	0.6756	0.255	0.8176	-0.211
Mof_H 	H 	0.6912	0.2196	0.8472	0.073
Mof_H 	H 	0.6664	0.3147	0.8291	0.096
Mof_H 	H 	0.6482	0.2219	0.7999	0.022
Mof_C 	C 	0.741	0.347	0.7977	0.073
Mof_H 	H 	0.7486	0.3748	0.7672	-0.011
Mof_H 	H 	0.7272	0.3927	0.8166	0.048
Mof_H 	H 	0.7691	0.3227	0.8197	-0.061
Mof_O 	O 	0.712	0.21	0.708	-0.106
Mof_C 	C 	0.732	0.258	0.745	0.315
Mof_C 	C 	0.718	0.337	0.825	-0.5
Mof_H 	H 	0.7513	0.3455	0.8351	0.176
Mof_H 	H 	0.7033	0.3956	0.814	0.156
Mof_H 	H 	0.7062	0.3137	0.8543	0.196
Mof_C 	C 	0.666	0.211	0.785	-0.199
Mof_H 	H 	0.6559	0.2251	0.817	0.159
Mof_H 	H 	0.6411	0.2241	0.7559	0.093
Mof_H 	H 	0.6745	0.1463	0.7849	0.089
Mof_Cd	Cd	0.6266	0.33868	0.94134	0.475
Mof_Cd	Cd	0.62927	0.56234	0.86983	0.485
Mof_Cd	Cd	0.75389	0.62399	0.84833	0.419
Mof_N 	N 	0.74326	0.3844	0.9535	-0.156
Mof_N 	N 	0.69925	0.4162	0.939	-0.066
Mof_N 	N 	0.69961	0.4919	0.9113	-0.067
Mof_N 	N 	0.74403	0.5101	0.9067	-0.167
Mof_N 	N 	0.7926	0.7694	0.7181	-0.081
Mof_O 	O 	0.68254	0.2093	0.94057	-0.3
Mof_O 	O 	0.60721	0.1807	0.9211	-0.261
Mof_O 	O 	0.6494	0.7058	0.8955	-0.283
Mof_O 	O 	0.7206	0.7409	0.8821	-0.279
Mof_O 	O 	0.62869	0.3157	0.02541	-0.292
Mof_O 	O 	0.70678	0.3198	0.05271	-0.292
Mof_O 	O 	0.6829	0.4342	0.3035	-0.306
Mof_O 	O 	0.6081	0.3979	0.2838	-0.268
Mof_O 	O 	0.60775	0.4015	0.85236	-0.294
Mof_O 	O 	0.55022	0.3482	0.888	-0.254
Mof_O 	O 	0.61009	0.4999	0.95209	-0.266
Mof_O 	O 	0.55774	0.5786	0.895	-0.254
Mof_O 	O 	0.7616	0.73	0.7848	-0.305
Mof_C 	C 	0.7706	0.4429	0.9332	0.325
Mof_C 	C 	0.8222	0.4323	0.9387	-0.866
Mof_H 	H 	0.8372	0.4917	0.9475	0.287
Mof_H 	H 	0.8339	0.3881	0.9659	0.302
Mof_H 	H 	0.829	0.4104	0.9064	0.282
Mof_C 	C 	0.6487	0.1526	0.9284	0.277
Mof_C 	C 	0.6817	0.7606	0.8937	0.323
Mof_C 	C 	0.6581	0.0513	0.9201	-0.058
Mof_C 	C 	0.7033	0.0189	0.9224	-0.038
Mof_H 	H 	0.7285	0.0601	0.9298	0.065
Mof_C 	C 	0.711	0.9256	0.9139	-0.015
Mof_H 	H 	0.7413	0.9049	0.9142	0.057
Mof_C 	C 	0.6745	0.8628	0.9049	-0.057
Mof_C 	C 	0.6297	0.8948	0.904	-0.023
Mof_H 	H 	0.6049	0.8526	0.8986	0.06
Mof_C 	C 	0.6209	0.9889	0.9109	-0.031
Mof_H 	H 	0.5904	0.0098	0.9093	0.057
Mof_C 	C 	0.6658	0.3255	0.0598	0.303
Mof_C 	C 	0.6474	0.407	0.2718	0.306
Mof_C 	C 	0.6602	0.3476	0.1145	-0.061
Mof_C 	C 	0.6963	0.391	0.1487	-0.024
Mof_H 	H 	0.7237	0.4071	0.1378	0.05
Mof_C 	C 	0.692	0.4107	0.1995	-0.022
Mof_H 	H 	0.7168	0.4383	0.2227	0.044
Mof_C 	C 	0.6509	0.3895	0.2156	-0.056
Mof_C 	C 	0.6141	0.3493	0.1806	-0.027
Mof_H 	H 	0.5862	0.3354	0.1911	0.06
Mof_C 	C 	0.6185	0.3297	0.1301	-0.026
Mof_H 	H 	0.5932	0.3043	0.1065	0.051
Mof_C 	C 	0.5647	0.3797	0.8495	0.287
Mof_C 	C 	0.5309	0.3887	0.7979	-0.045
Mof_C 	C 	0.5476	0.3921	0.7521	-0.023
Mof_H 	H 	0.5798	0.3959	0.7536	0.054
Mof_C 	C 	0.4833	0.3898	0.7957	-0.022
Mof_H 	H 	0.4719	0.389	0.8264	0.058
Mof_C 	C 	0.5688	0.5326	0.9365	0.277
Mof_C 	C 	0.5329	0.5159	0.9696	-0.004
Mof_C 	C 	0.5455	0.4723	0.0173	-0.072
Mof_H 	H 	0.5764	0.4533	0.0293	0.079
Mof_C 	C 	0.5124	0.4567	0.0475	0.016
Mof_H 	H 	0.5212	0.4271	0.0797	0.044
Mof_C 	C 	0.7909	0.716	0.758	0.037
Mof_C 	C 	0.8244	0.755	0.6824	-0.212
Mof_H 	H 	0.8088	0.7196	0.6528	0.074
Mof_H 	H 	0.8336	0.8147	0.6709	0.096
Mof_H 	H 	0.8518	0.7219	0.7001	0.022
Mof_C 	C 	0.759	0.847	0.7023	0.073
Mof_H 	H 	0.7514	0.8748	0.7328	-0.011
Mof_H 	H 	0.7728	0.8927	0.6834	0.048
Mof_H 	H 	0.7309	0.8227	0.6803	-0.061
Mof_O 	O 	0.788	0.71	0.792	-0.106
Mof_C 	C 	0.768	0.758	0.755	0.314
Mof_C 	C 	0.782	0.837	0.675	-0.5
Mof_H 	H 	0.7487	0.8455	0.6649	0.176
Mof_H 	H 	0.7967	0.8956	0.686	0.156
Mof_H 	H 	0.7938	0.8137	0.6457	0.196
Mof_C 	C 	0.834	0.711	0.715	-0.2
Mof_H 	H 	0.8441	0.7251	0.683	0.159
Mof_H 	H 	0.8589	0.7241	0.7441	0.093
Mof_H 	H 	0.8255	0.6463	0.7151	0.089
Mof_Cd	Cd	0.1266	0.83868	0.94134	0.475
Mof_Cd	Cd	0.12927	0.06234	0.86983	0.485
Mof_Cd	Cd	0.25389	0.12399	0.84833	0.418
Mof_N 	N 	0.24326	0.8844	0.9535	-0.156
Mof_N 	N 	0.19925	0.9162	0.939	-0.066
Mof_N 	N 	0.19961	0.9919	0.9113	-0.067
Mof_N 	N 	0.24403	0.0101	0.9067	-0.168
Mof_N 	N 	0.2926	0.2694	0.7181	-0.081
Mof_O 	O 	0.18254	0.7093	0.94057	-0.3
Mof_O 	O 	0.10721	0.6807	0.9211	-0.261
Mof_O 	O 	0.1494	0.2058	0.8955	-0.284
Mof_O 	O 	0.2206	0.2409	0.8821	-0.279
Mof_O 	O 	0.12869	0.8157	0.02541	-0.292
Mof_O 	O 	0.20678	0.8198	0.05271	-0.292
Mof_O 	O 	0.1829	0.9342	0.3035	-0.306
Mof_O 	O 	0.1081	0.8979	0.2838	-0.268
Mof_O 	O 	0.10775	0.9015	0.85236	-0.294
Mof_O 	O 	0.05022	0.8482	0.888	-0.254
Mof_O 	O 	0.11009	0.9999	0.95209	-0.266
Mof_O 	O 	0.05774	0.0786	0.895	-0.254
Mof_O 	O 	0.2616	0.23	0.7848	-0.305
Mof_C 	C 	0.2706	0.9429	0.9332	0.325
Mof_C 	C 	0.3222	0.9323	0.9387	-0.867
Mof_H 	H 	0.3372	0.9917	0.9475	0.288
Mof_H 	H 	0.3339	0.8881	0.9659	0.302
Mof_H 	H 	0.329	0.9104	0.9064	0.282
Mof_C 	C 	0.1487	0.6526	0.9284	0.276
Mof_C 	C 	0.1817	0.2606	0.8937	0.323
Mof_C 	C 	0.1581	0.5513	0.9201	-0.056
Mof_C 	C 	0.2033	0.5189	0.9224	-0.038
Mof_H 	H 	0.2285	0.5601	0.9298	0.065
Mof_C 	C 	0.211	0.4256	0.9139	-0.015
Mof_H 	H 	0.2413	0.4049	0.9142	0.057
Mof_C 	C 	0.1745	0.3628	0.9049	-0.058
Mof_C 	C 	0.1297	0.3948	0.904	-0.022
Mof_H 	H 	0.1049	0.3526	0.8986	0.059
Mof_C 	C 	0.1209	0.4889	0.9109	-0.034
Mof_H 	H 	0.0904	0.5098	0.9093	0.059
Mof_C 	C 	0.1658	0.8255	0.0598	0.303
Mof_C 	C 	0.1474	0.907	0.2718	0.306
Mof_C 	C 	0.1602	0.8476	0.1145	-0.061
Mof_C 	C 	0.1963	0.891	0.1487	-0.024
Mof_H 	H 	0.2237	0.9071	0.1378	0.05
Mof_C 	C 	0.192	0.9107	0.1995	-0.022
Mof_H 	H 	0.2168	0.9383	0.2227	0.044
Mof_C 	C 	0.1509	0.8895	0.2156	-0.056
Mof_C 	C 	0.1141	0.8493	0.1806	-0.027
Mof_H 	H 	0.0862	0.8354	0.1911	0.06
Mof_C 	C 	0.1185	0.8297	0.1301	-0.026
Mof_H 	H 	0.0932	0.8043	0.1065	0.051
Mof_C 	C 	0.0647	0.8797	0.8495	0.287
Mof_C 	C 	0.0309	0.8887	0.7979	-0.046
Mof_C 	C 	0.0476	0.8921	0.7521	-0.022
Mof_H 	H 	0.0798	0.8959	0.7536	0.054
Mof_C 	C 	0.9833	0.8898	0.7957	-0.021
Mof_H 	H 	0.9719	0.889	0.8264	0.058
Mof_C 	C 	0.0688	0.0326	0.9365	0.277
Mof_C 	C 	0.0329	0.0159	0.9696	-0.007
Mof_C 	C 	0.0455	0.9723	0.0173	-0.068
Mof_H 	H 	0.0764	0.9533	0.0293	0.078
Mof_C 	C 	0.0124	0.9567	0.0475	0.012
Mof_H 	H 	0.0212	0.9271	0.0797	0.046
Mof_C 	C 	0.2909	0.216	0.758	0.036
Mof_C 	C 	0.3244	0.255	0.6824	-0.211
Mof_H 	H 	0.3088	0.2196	0.6528	0.074
Mof_H 	H 	0.3336	0.3147	0.6709	0.096
Mof_H 	H 	0.3518	0.2219	0.7001	0.022
Mof_C 	C 	0.259	0.347	0.7023	0.073
Mof_H 	H 	0.2514	0.3748	0.7328	-0.011
Mof_H 	H 	0.2728	0.3927	0.6834	0.048
Mof_H 	H 	0.2309	0.3227	0.6803	-0.061
Mof_O 	O 	0.288	0.21	0.792	-0.106
Mof_C 	C 	0.268	0.258	0.755	0.314
Mof_C 	C 	0.282	0.337	0.675	-0.5
Mof_H 	H 	0.2487	0.3455	0.6649	0.176
Mof_H 	H 	0.2967	0.3956	0.686	0.156
Mof_H 	H 	0.2938	0.3137	0.6457	0.196
Mof_C 	C 	0.334	0.211	0.715	-0.2
Mof_H 	H 	0.3441	0.2251	0.683	0.159
Mof_H 	H 	0.3589	0.2241	0.7441	0.093
Mof_H 	H 	0.3255	0.1463	0.7151	0.089
Mof_Cd	Cd	0.75	0.75	0.5	0.464
Mof_Cd	Cd	0.25	0.75	-0	0.454
Mof_Cd	Cd	0.25	0.25	0.5	0.464
Mof_Cd	Cd	0.75	0.25	-0	0.455
_end
