data_functionalizedCrystal
_audit_creation_method	'EQeq! by Chris Wilmer'
_symmetry_space_group_name_H-M	'P1'
_symmetry_Int_Tables_number	1
_symmetry_cell_setting	triclinic
loop_
_symmetry_equiv_pos_as_xyz
  x,y,z
_cell_length_a	8.5106
_cell_length_b	17.1743
_cell_length_c	17.1743
_cell_angle_alpha	90
_cell_angle_beta	90
_cell_angle_gamma	90
loop_
_atom_site_label
_atom_site_type_symbol
_atom_site_fract_x
_atom_site_fract_y
_atom_site_fract_z
_atom_site_charge
Mof_Gd	Gd	0.84969	0.03687	0.88971	1.806
Mof_Gd	Gd	0.84969	0.96313	0.11029	1.806
Mof_Gd	Gd	0.15031	0.88971	0.96313	1.806
Mof_Gd	Gd	0.15031	0.11029	0.03687	1.806
Mof_Gd	Gd	0.65031	0.46313	0.38971	1.806
Mof_Gd	Gd	0.65031	0.53687	0.61029	1.806
Mof_Gd	Gd	0.34969	0.61029	0.46313	1.806
Mof_Gd	Gd	0.34969	0.38971	0.53687	1.806
Mof_H 	H 	0.5542	0.7638	0.7526	0.001
Mof_H 	H 	0.3245	0.8333	0.5608	-0.006
Mof_H 	H 	0.2595	0.9488	0.6215	0.098
Mof_H 	H 	0.3515	0.9748	0.7466	0.001
Mof_H 	H 	0.797	0.891	0.961	0.244
Mof_H 	H 	0.5542	0.2362	0.2474	0.001
Mof_H 	H 	0.3245	0.1667	0.4392	-0.006
Mof_H 	H 	0.2595	0.0512	0.3785	0.098
Mof_H 	H 	0.3515	0.0252	0.2534	0.001
Mof_H 	H 	0.797	0.109	0.039	0.244
Mof_H 	H 	0.4458	0.7526	0.2362	0.001
Mof_H 	H 	0.6755	0.5608	0.1667	-0.006
Mof_H 	H 	0.7405	0.6215	0.0512	0.098
Mof_H 	H 	0.6485	0.7466	0.0252	0.001
Mof_H 	H 	0.203	0.961	0.109	0.244
Mof_H 	H 	0.4458	0.2474	0.7638	0.001
Mof_H 	H 	0.6755	0.4392	0.8333	-0.006
Mof_H 	H 	0.7405	0.3785	0.9488	0.098
Mof_H 	H 	0.6485	0.2534	0.9748	0.001
Mof_H 	H 	0.203	0.039	0.891	0.244
Mof_H 	H 	0.9458	0.7362	0.2526	0.001
Mof_H 	H 	0.1755	0.6667	0.0608	-0.006
Mof_H 	H 	0.2405	0.5512	0.1215	0.098
Mof_H 	H 	0.1485	0.5252	0.2466	0.001
Mof_H 	H 	0.703	0.609	0.461	0.244
Mof_H 	H 	0.9458	0.2638	0.7474	0.001
Mof_H 	H 	0.1755	0.3333	0.9392	-0.006
Mof_H 	H 	0.2405	0.4488	0.8785	0.098
Mof_H 	H 	0.1485	0.4748	0.7534	0.001
Mof_H 	H 	0.703	0.391	0.539	0.244
Mof_H 	H 	0.0542	0.7474	0.7362	0.001
Mof_H 	H 	0.8245	0.9392	0.6667	-0.006
Mof_H 	H 	0.7595	0.8785	0.5512	0.098
Mof_H 	H 	0.8515	0.7534	0.5252	0.001
Mof_H 	H 	0.297	0.539	0.609	0.244
Mof_H 	H 	0.0542	0.2526	0.2638	0.001
Mof_H 	H 	0.8245	0.0608	0.3333	-0.006
Mof_H 	H 	0.7595	0.1215	0.4488	0.098
Mof_H 	H 	0.8515	0.2466	0.4748	0.001
Mof_H 	H 	0.297	0.461	0.391	0.244
Mof_C 	C 	0.4583	0.8714	0.7611	-0.211
Mof_C 	C 	0.4962	0.8011	0.7258	0.133
Mof_C 	C 	0.4465	0.7871	0.6501	-0.202
Mof_C 	C 	0.4894	0.7128	0.6101	0.457
Mof_C 	C 	0.3584	0.8427	0.6114	0.121
Mof_C 	C 	0.3205	0.9122	0.6475	-0.186
Mof_C 	C 	0.3734	0.9274	0.7227	0.121
Mof_C 	C 	0.4583	0.1286	0.2389	-0.211
Mof_C 	C 	0.4962	0.1989	0.2742	0.133
Mof_C 	C 	0.4465	0.2129	0.3499	-0.202
Mof_C 	C 	0.4894	0.2872	0.3899	0.457
Mof_C 	C 	0.3584	0.1573	0.3886	0.121
Mof_C 	C 	0.3205	0.0878	0.3525	-0.186
Mof_C 	C 	0.3734	0.0726	0.2773	0.121
Mof_C 	C 	0.5417	0.7611	0.1286	-0.211
Mof_C 	C 	0.5038	0.7258	0.1989	0.133
Mof_C 	C 	0.5535	0.6501	0.2129	-0.202
Mof_C 	C 	0.5106	0.6101	0.2872	0.457
Mof_C 	C 	0.6416	0.6114	0.1573	0.121
Mof_C 	C 	0.6795	0.6475	0.0878	-0.186
Mof_C 	C 	0.6266	0.7227	0.0726	0.121
Mof_C 	C 	0.5417	0.2389	0.8714	-0.211
Mof_C 	C 	0.5038	0.2742	0.8011	0.133
Mof_C 	C 	0.5535	0.3499	0.7871	-0.202
Mof_C 	C 	0.5106	0.3899	0.7128	0.457
Mof_C 	C 	0.6416	0.3886	0.8427	0.121
Mof_C 	C 	0.6795	0.3525	0.9122	-0.186
Mof_C 	C 	0.6266	0.2773	0.9274	0.121
Mof_C 	C 	0.0417	0.6286	0.2611	-0.211
Mof_C 	C 	0.0038	0.6989	0.2258	0.133
Mof_C 	C 	0.0535	0.7129	0.1501	-0.202
Mof_C 	C 	0.0106	0.7872	0.1101	0.457
Mof_C 	C 	0.1416	0.6573	0.1114	0.121
Mof_C 	C 	0.1795	0.5878	0.1475	-0.186
Mof_C 	C 	0.1266	0.5726	0.2227	0.121
Mof_C 	C 	0.0417	0.3714	0.7389	-0.211
Mof_C 	C 	0.0038	0.3011	0.7742	0.133
Mof_C 	C 	0.0535	0.2871	0.8499	-0.202
Mof_C 	C 	0.0106	0.2128	0.8899	0.457
Mof_C 	C 	0.1416	0.3427	0.8886	0.121
Mof_C 	C 	0.1795	0.4122	0.8525	-0.186
Mof_C 	C 	0.1266	0.4274	0.7773	0.121
Mof_C 	C 	0.9583	0.7389	0.6286	-0.211
Mof_C 	C 	0.9962	0.7742	0.6989	0.133
Mof_C 	C 	0.9465	0.8499	0.7129	-0.202
Mof_C 	C 	0.9894	0.8899	0.7872	0.457
Mof_C 	C 	0.8584	0.8886	0.6573	0.121
Mof_C 	C 	0.8205	0.8525	0.5878	-0.186
Mof_C 	C 	0.8734	0.7773	0.5726	0.121
Mof_C 	C 	0.9583	0.2611	0.3714	-0.211
Mof_C 	C 	0.9962	0.2258	0.3011	0.133
Mof_C 	C 	0.9465	0.1501	0.2871	-0.202
Mof_C 	C 	0.9894	0.1101	0.2128	0.457
Mof_C 	C 	0.8584	0.1114	0.3427	0.121
Mof_C 	C 	0.8205	0.1475	0.4122	-0.186
Mof_C 	C 	0.8734	0.2227	0.4274	0.121
Mof_S 	S 	0.52366	0.89177	0.85686	0.679
Mof_S 	S 	0.52366	0.10823	0.14314	0.679
Mof_S 	S 	0.47634	0.85686	0.10823	0.679
Mof_S 	S 	0.47634	0.14314	0.89177	0.679
Mof_S 	S 	0.97634	0.60823	0.35686	0.679
Mof_S 	S 	0.97634	0.39177	0.64314	0.679
Mof_S 	S 	0.02366	0.64314	0.60823	0.679
Mof_S 	S 	0.02366	0.35686	0.39177	0.679
Mof_O 	O 	0.647	0.94954	0.84898	-0.484
Mof_O 	O 	0.3865	0.92447	0.89637	-0.491
Mof_O 	O 	0.5817	0.82028	0.89171	-0.335
Mof_O 	O 	0.5429	0.65785	0.64919	-0.5
Mof_O 	O 	0.4692	0.71013	0.53603	-0.489
Mof_O 	O 	0.8781	0.92633	0.97401	-0.757
Mof_O 	O 	0.647	0.05046	0.15102	-0.484
Mof_O 	O 	0.3865	0.07553	0.10363	-0.491
Mof_O 	O 	0.5817	0.17972	0.10829	-0.335
Mof_O 	O 	0.5429	0.34215	0.35081	-0.5
Mof_O 	O 	0.4692	0.28987	0.46397	-0.489
Mof_O 	O 	0.8781	0.07367	0.02599	-0.757
Mof_O 	O 	0.353	0.84898	0.05046	-0.484
Mof_O 	O 	0.6135	0.89637	0.07553	-0.491
Mof_O 	O 	0.4183	0.89171	0.17972	-0.335
Mof_O 	O 	0.4571	0.64919	0.34215	-0.5
Mof_O 	O 	0.5308	0.53603	0.28987	-0.489
Mof_O 	O 	0.1219	0.97401	0.07367	-0.757
Mof_O 	O 	0.353	0.15102	0.94954	-0.484
Mof_O 	O 	0.6135	0.10363	0.92447	-0.491
Mof_O 	O 	0.4183	0.10829	0.82028	-0.335
Mof_O 	O 	0.4571	0.35081	0.65785	-0.5
Mof_O 	O 	0.5308	0.46397	0.71013	-0.489
Mof_O 	O 	0.1219	0.02599	0.92633	-0.757
Mof_O 	O 	0.853	0.55046	0.34898	-0.484
Mof_O 	O 	0.1135	0.57553	0.39637	-0.491
Mof_O 	O 	0.9183	0.67972	0.39171	-0.335
Mof_O 	O 	0.9571	0.84215	0.14919	-0.5
Mof_O 	O 	0.0308	0.78987	0.03603	-0.489
Mof_O 	O 	0.6219	0.57367	0.47401	-0.757
Mof_O 	O 	0.853	0.44954	0.65102	-0.484
Mof_O 	O 	0.1135	0.42447	0.60363	-0.491
Mof_O 	O 	0.9183	0.32028	0.60829	-0.335
Mof_O 	O 	0.9571	0.15785	0.85081	-0.5
Mof_O 	O 	0.0308	0.21013	0.96397	-0.489
Mof_O 	O 	0.6219	0.42633	0.52599	-0.757
Mof_O 	O 	0.147	0.65102	0.55046	-0.484
Mof_O 	O 	0.8865	0.60363	0.57553	-0.491
Mof_O 	O 	0.0817	0.60829	0.67972	-0.335
Mof_O 	O 	0.0429	0.85081	0.84215	-0.5
Mof_O 	O 	0.9692	0.96397	0.78987	-0.489
Mof_O 	O 	0.3781	0.52599	0.57367	-0.757
Mof_O 	O 	0.147	0.34898	0.44954	-0.484
Mof_O 	O 	0.8865	0.39637	0.42447	-0.491
Mof_O 	O 	0.0817	0.39171	0.32028	-0.335
Mof_O 	O 	0.0429	0.14919	0.15785	-0.5
Mof_O 	O 	0.9692	0.03603	0.21013	-0.489
Mof_O 	O 	0.3781	0.47401	0.42633	-0.757
_end
