data_functionalizedCrystal
_audit_creation_method	'EQeq! by Chris Wilmer'
_symmetry_space_group_name_H-M	'P1'
_symmetry_Int_Tables_number	1
_symmetry_cell_setting	triclinic
loop_
_symmetry_equiv_pos_as_xyz
  x,y,z
_cell_length_a	23.47
_cell_length_b	22.051
_cell_length_c	52.645
_cell_angle_alpha	90
_cell_angle_beta	90
_cell_angle_gamma	90
loop_
_atom_site_label
_atom_site_type_symbol
_atom_site_fract_x
_atom_site_fract_y
_atom_site_fract_z
_atom_site_charge
Mof_Cu	Cu	0.46416	0.92484	0.13644	0.865
Mof_C 	C 	0.29264	0.99331	0.97558	-0.003
Mof_Cu	Cu	0.44759	0.72608	0.10342	0.862
Mof_C 	C 	0.2475	0.94938	0.97937	-0.002
Mof_C 	C 	0.24403	0.99262	0.95925	-0.003
Mof_C 	C 	0.34357	0.01577	0.98336	-0.057
Mof_C 	C 	0.22599	0.90205	0.99231	-0.055
Mof_C 	C 	0.21457	0.01816	0.93971	-0.055
Mof_C 	C 	0.44274	0.14267	0.96544	-0.009
Mof_H 	H 	0.4677	0.1707	0.9734	0.03
Mof_C 	C 	0.37615	0.05928	0.9682	0.057
Mof_C 	C 	0.37165	0.05914	0.94153	-0.09
Mof_H 	H 	0.3483	0.0298	0.9334	0.068
Mof_C 	C 	0.4011	0.10149	0.92701	-0.011
Mof_H 	H 	0.3968	0.1021	0.9091	0.041
Mof_C 	C 	0.43675	0.14269	0.93883	-0.05
Mof_C 	C 	0.46719	0.18589	0.92367	0.095
Mof_N 	N 	0.49238	0.21941	0.9117	-0.25
Mof_C 	C 	0.41241	0.10217	0.97975	-0.097
Mof_H 	H 	0.4158	0.1029	0.9977	0.064
Mof_C 	C 	0.36506	0.99649	0.00871	0.06
Mof_C 	C 	0.42198	0.97982	0.01241	-0.097
Mof_H 	H 	0.4474	0.9797	0.9984	0.062
Mof_C 	C 	0.44173	0.96343	0.03625	-0.008
Mof_H 	H 	0.4805	0.9526	0.0386	0.033
Mof_C 	C 	0.40422	0.9631	0.05652	-0.051
Mof_C 	C 	0.42395	0.94792	0.0812	0.091
Mof_N 	N 	0.44053	0.93639	0.10127	-0.264
Mof_C 	C 	0.34628	0.97968	0.05322	-0.005
Mof_H 	H 	0.3207	0.9794	0.0672	0.028
Mof_C 	C 	0.32776	0.99623	0.02938	-0.093
Mof_H 	H 	0.2891	0.0076	0.027	0.065
Mof_C 	C 	0.25898	0.87016	0.01168	0.061
Mof_C 	C 	0.31803	0.85992	0.00778	-0.091
Mof_H 	H 	0.3359	0.874	0.9927	0.066
Mof_C 	C 	0.34987	0.8292	0.02602	-0.003
Mof_H 	H 	0.3893	0.8219	0.0234	0.035
Mof_C 	C 	0.32331	0.80924	0.04811	-0.052
Mof_C 	C 	0.35675	0.77639	0.06699	0.101
Mof_N 	N 	0.38328	0.75218	0.08169	-0.258
Mof_C 	C 	0.26491	0.8172	0.05163	-0.002
Mof_H 	H 	0.2467	0.801	0.0662	0.026
Mof_C 	C 	0.23425	0.84837	0.03402	-0.1
Mof_H 	H 	0.1949	0.8555	0.037	0.064
Mof_C 	C 	0.16725	0.88173	0.98705	0.054
Mof_C 	C 	0.1542	0.81926	0.98624	-0.086
Mof_H 	H 	0.1834	0.7903	0.9892	0.061
Mof_C 	C 	0.0989	0.79966	0.9812	-0.02
Mof_H 	H 	0.0906	0.7575	0.9804	0.037
Mof_C 	C 	0.0556	0.8425	0.97736	-0.027
Mof_C 	C 	0.99864	0.8198	0.97325	0.068
Mof_N 	N 	0.95335	0.803	0.96951	-0.133
Mof_C 	C 	0.06825	0.90354	0.97869	-0.016
Mof_H 	H 	0.0387	0.9323	0.9762	0.038
Mof_C 	C 	0.12249	0.9236	0.98349	-0.084
Mof_H 	H 	0.13	0.9659	0.9844	0.063
Mof_C 	C 	0.16367	0.98655	0.92964	0.061
Mof_C 	C 	0.16493	0.92443	0.9265	-0.09
Mof_H 	H 	0.1994	0.9031	0.9296	0.069
Mof_C 	C 	0.117	0.89251	0.91893	-0.006
Mof_H 	H 	0.1184	0.8497	0.917	0.04
Mof_C 	C 	0.06617	0.92452	0.91409	-0.047
Mof_C 	C 	0.0169	0.88997	0.90826	0.089
Mof_N 	N 	0.9799	0.8565	0.90423	-0.244
Mof_C 	C 	0.06473	0.98804	0.91662	-0.006
Mof_H 	H 	0.0305	0.0096	0.9133	0.03
Mof_C 	C 	0.11352	0.01917	0.92394	-0.096
Mof_H 	H 	0.1131	0.0622	0.9251	0.064
Mof_C 	C 	0.2328	0.07678	0.92944	0.055
Mof_C 	C 	0.23088	0.08954	0.90308	-0.087
Mof_H 	H 	0.2159	0.0602	0.8917	0.063
Mof_C 	C 	0.25039	0.14387	0.89392	-0.014
Mof_H 	H 	0.2498	0.1516	0.8762	0.039
Mof_C 	C 	0.27115	0.18774	0.91055	-0.027
Mof_C 	C 	0.29061	0.24462	0.90109	0.073
Mof_N 	N 	0.30602	0.2912	0.89356	-0.129
Mof_C 	C 	0.27221	0.17683	0.93666	-0.015
Mof_H 	H 	0.2858	0.2071	0.948	0.038
Mof_C 	C 	0.25336	0.1217	0.94587	-0.085
Mof_H 	H 	0.2543	0.1141	0.9636	0.064
Mof_C 	C 	0.6969	0.19829	0.22908	-0.003
Mof_C 	C 	0.74135	0.20172	0.21057	-0
Mof_C 	C 	0.74226	0.24051	0.23245	-0.003
Mof_C 	C 	0.64615	0.17359	0.23708	-0.058
Mof_C 	C 	0.76541	0.18213	0.18881	-0.058
Mof_C 	C 	0.76461	0.28726	0.24565	-0.053
Mof_C 	C 	0.62805	0.18304	0.26336	0.063
Mof_C 	C 	0.66903	0.18767	0.28264	-0.096
Mof_H 	H 	0.7081	0.1828	0.2785	0.067
Mof_C 	C 	0.65393	0.19924	0.30764	-0.001
Mof_H 	H 	0.6824	0.2028	0.3204	0.026
Mof_C 	C 	0.59689	0.20554	0.3139	-0.055
Mof_C 	C 	0.57954	0.21739	0.3395	0.093
Mof_N 	N 	0.56733	0.22588	0.36023	-0.267
Mof_C 	C 	0.55428	0.19889	0.29506	-0.004
Mof_H 	H 	0.5151	0.2018	0.2995	0.028
Mof_C 	C 	0.57036	0.18803	0.27014	-0.099
Mof_H 	H 	0.5419	0.1839	0.2574	0.064
Mof_C 	C 	0.61136	0.13897	0.21915	0.06
Mof_C 	C 	0.58183	0.08675	0.22663	-0.095
Mof_H 	H 	0.583	0.0743	0.2439	0.063
Mof_C 	C 	0.55102	0.05316	0.20934	-0.011
Mof_H 	H 	0.5309	0.0181	0.2148	0.039
Mof_C 	C 	0.54949	0.07079	0.18376	-0.046
Mof_C 	C 	0.51981	0.03306	0.16593	0.097
Mof_N 	N 	0.49766	0.99936	0.15248	-0.246
Mof_C 	C 	0.57677	0.12384	0.17614	-0.005
Mof_H 	H 	0.574	0.1371	0.159	0.032
Mof_C 	C 	0.60787	0.15718	0.19351	-0.092
Mof_H 	H 	0.6271	0.1928	0.1881	0.066
Mof_C 	C 	0.74295	0.12767	0.17609	0.061
Mof_C 	C 	0.7205	0.07923	0.19032	-0.089
Mof_H 	H 	0.7231	0.0801	0.2083	0.065
Mof_C 	C 	0.69494	0.0308	0.17854	-0.011
Mof_H 	H 	0.6796	0.9984	0.1883	0.036
Mof_C 	C 	0.69167	0.02957	0.1522	-0.032
Mof_C 	C 	0.66221	0.98063	0.13963	0.07
Mof_N 	N 	0.63745	0.94262	0.12952	-0.134
Mof_C 	C 	0.71616	0.07634	0.13756	-0.009
Mof_H 	H 	0.7146	0.0747	0.1195	0.036
Mof_C 	C 	0.74208	0.12389	0.1493	-0.097
Mof_H 	H 	0.7597	0.1547	0.1394	0.076
Mof_C 	C 	0.81209	0.21786	0.17731	0.068
Mof_C 	C 	0.86074	0.19108	0.16746	-0.101
Mof_H 	H 	0.864	0.1481	0.1673	0.066
Mof_C 	C 	0.90485	0.22637	0.15787	0.002
Mof_H 	H 	0.9389	0.208	0.1518	0.019
Mof_C 	C 	0.89832	0.28955	0.15726	-0.052
Mof_C 	C 	0.94403	0.32746	0.1486	0.098
Mof_N 	N 	0.97872	0.36053	0.14212	-0.256
Mof_C 	C 	0.84829	0.31668	0.16632	0.002
Mof_H 	H 	0.8434	0.3594	0.1654	0.036
Mof_C 	C 	0.80635	0.28071	0.17662	-0.097
Mof_H 	H 	0.773	0.299	0.1834	0.067
Mof_C 	C 	0.82023	0.31441	0.23878	0.055
Mof_C 	C 	0.86591	0.27664	0.23157	-0.084
Mof_H 	H 	0.8611	0.2339	0.2313	0.062
Mof_C 	C 	0.91789	0.30182	0.22483	-0.019
Mof_H 	H 	0.9488	0.2765	0.22	0.037
Mof_C 	C 	0.92429	0.36378	0.22525	-0.022
Mof_C 	C 	0.97717	0.3918	0.21844	0.059
Mof_N 	N 	0.0193	0.41701	0.2124	-0.131
Mof_C 	C 	0.87948	0.40235	0.23234	-0.022
Mof_H 	H 	0.8843	0.4451	0.2322	0.037
Mof_C 	C 	0.82776	0.37668	0.23962	-0.088
Mof_H 	H 	0.7975	0.402	0.2452	0.061
Mof_C 	C 	0.73118	0.31538	0.26645	0.06
Mof_C 	C 	0.75721	0.3335	0.28884	-0.097
Mof_H 	H 	0.7974	0.3298	0.2906	0.063
Mof_C 	C 	0.7253	0.35691	0.30874	-0.007
Mof_H 	H 	0.7434	0.3691	0.3241	0.027
Mof_C 	C 	0.66628	0.36229	0.30598	-0.048
Mof_C 	C 	0.63103	0.38414	0.32638	0.098
Mof_N 	N 	0.60146	0.40126	0.34196	-0.255
Mof_C 	C 	0.63896	0.34484	0.28324	-0.008
Mof_H 	H 	0.5989	0.349	0.2813	0.042
Mof_C 	C 	0.67205	0.32143	0.26381	-0.089
Mof_H 	H 	0.6543	0.3093	0.2484	0.066
Mof_Cu	Cu	0.03584	0.07516	0.63644	0.866
Mof_C 	C 	0.20736	0.00669	0.47558	-0.003
Mof_Cu	Cu	0.05241	0.27392	0.60342	0.863
Mof_C 	C 	0.2525	0.05062	0.47937	-0
Mof_C 	C 	0.25597	0.00738	0.45925	-0.003
Mof_C 	C 	0.15643	0.98423	0.48336	-0.055
Mof_C 	C 	0.27401	0.09795	0.49231	-0.054
Mof_C 	C 	0.28543	0.98184	0.43971	-0.052
Mof_C 	C 	0.05726	0.85733	0.46544	-0.008
Mof_H 	H 	0.0323	0.8293	0.4734	0.031
Mof_C 	C 	0.12385	0.94072	0.4682	0.058
Mof_C 	C 	0.12835	0.94086	0.44153	-0.089
Mof_H 	H 	0.1517	0.9702	0.4334	0.068
Mof_C 	C 	0.0989	0.89851	0.42701	-0.011
Mof_H 	H 	0.1032	0.8979	0.4091	0.041
Mof_C 	C 	0.06325	0.85731	0.43883	-0.05
Mof_C 	C 	0.03281	0.81411	0.42367	0.095
Mof_N 	N 	0.00762	0.78059	0.4117	-0.25
Mof_C 	C 	0.08759	0.89783	0.47975	-0.097
Mof_H 	H 	0.0842	0.8971	0.4977	0.064
Mof_C 	C 	0.13494	0.00351	0.50871	0.06
Mof_C 	C 	0.07802	0.02018	0.51241	-0.097
Mof_H 	H 	0.0526	0.0203	0.4984	0.062
Mof_C 	C 	0.05827	0.03657	0.53625	-0.008
Mof_H 	H 	0.0195	0.0474	0.5386	0.033
Mof_C 	C 	0.09578	0.0369	0.55652	-0.051
Mof_C 	C 	0.07605	0.05208	0.5812	0.091
Mof_N 	N 	0.05947	0.06361	0.60127	-0.264
Mof_C 	C 	0.15372	0.02032	0.55322	-0.005
Mof_H 	H 	0.1793	0.0206	0.5672	0.027
Mof_C 	C 	0.17224	0.00377	0.52938	-0.094
Mof_H 	H 	0.2109	0.9924	0.527	0.065
Mof_C 	C 	0.24102	0.12984	0.51168	0.062
Mof_C 	C 	0.18197	0.14008	0.50778	-0.091
Mof_H 	H 	0.1641	0.126	0.4927	0.066
Mof_C 	C 	0.15013	0.1708	0.52602	-0.003
Mof_H 	H 	0.1107	0.1781	0.5234	0.035
Mof_C 	C 	0.17669	0.19076	0.54811	-0.052
Mof_C 	C 	0.14325	0.22361	0.56699	0.101
Mof_N 	N 	0.11672	0.24782	0.58169	-0.258
Mof_C 	C 	0.23509	0.1828	0.55163	-0.002
Mof_H 	H 	0.2533	0.199	0.5662	0.026
Mof_C 	C 	0.26575	0.15163	0.53402	-0.1
Mof_H 	H 	0.3051	0.1445	0.537	0.064
Mof_C 	C 	0.33275	0.11827	0.48705	0.054
Mof_C 	C 	0.3458	0.18074	0.48624	-0.086
Mof_H 	H 	0.3166	0.2097	0.4892	0.061
Mof_C 	C 	0.4011	0.20034	0.4812	-0.02
Mof_H 	H 	0.4094	0.2425	0.4804	0.037
Mof_C 	C 	0.4444	0.1575	0.47736	-0.027
Mof_C 	C 	0.50136	0.1802	0.47325	0.068
Mof_N 	N 	0.54665	0.197	0.46951	-0.133
Mof_C 	C 	0.43175	0.09646	0.47869	-0.015
Mof_H 	H 	0.4613	0.0677	0.4762	0.038
Mof_C 	C 	0.37751	0.0764	0.48349	-0.084
Mof_H 	H 	0.37	0.0341	0.4844	0.063
Mof_C 	C 	0.33633	0.01345	0.42964	0.059
Mof_C 	C 	0.33507	0.07557	0.4265	-0.089
Mof_H 	H 	0.3006	0.0969	0.4296	0.069
Mof_C 	C 	0.383	0.10749	0.41893	-0.007
Mof_H 	H 	0.3816	0.1503	0.417	0.041
Mof_C 	C 	0.43383	0.07548	0.41409	-0.045
Mof_C 	C 	0.4831	0.11003	0.40826	0.088
Mof_N 	N 	0.5201	0.1435	0.40423	-0.244
Mof_C 	C 	0.43527	0.01196	0.41662	-0.009
Mof_H 	H 	0.4695	0.9904	0.4133	0.031
Mof_C 	C 	0.38648	0.98083	0.42394	-0.093
Mof_H 	H 	0.3869	0.9378	0.4251	0.063
Mof_C 	C 	0.2672	0.92322	0.42944	0.055
Mof_C 	C 	0.26912	0.91046	0.40308	-0.086
Mof_H 	H 	0.2841	0.9398	0.3917	0.063
Mof_C 	C 	0.24961	0.85613	0.39392	-0.014
Mof_H 	H 	0.2502	0.8484	0.3762	0.039
Mof_C 	C 	0.22885	0.81226	0.41055	-0.027
Mof_C 	C 	0.20939	0.75538	0.40109	0.072
Mof_N 	N 	0.19398	0.7088	0.39356	-0.129
Mof_C 	C 	0.22779	0.82317	0.43666	-0.015
Mof_H 	H 	0.2142	0.7929	0.448	0.038
Mof_C 	C 	0.24664	0.8783	0.44587	-0.085
Mof_H 	H 	0.2457	0.8859	0.4636	0.064
Mof_C 	C 	0.8031	0.80171	0.72908	-0.003
Mof_C 	C 	0.75865	0.79828	0.71057	-0
Mof_C 	C 	0.75774	0.75949	0.73245	-0.003
Mof_C 	C 	0.85385	0.82641	0.73708	-0.058
Mof_C 	C 	0.73459	0.81787	0.68881	-0.058
Mof_C 	C 	0.73539	0.71274	0.74565	-0.053
Mof_C 	C 	0.87195	0.81696	0.76336	0.063
Mof_C 	C 	0.83097	0.81233	0.78264	-0.096
Mof_H 	H 	0.7919	0.8172	0.7785	0.067
Mof_C 	C 	0.84607	0.80076	0.80764	-0.001
Mof_H 	H 	0.8176	0.7972	0.8204	0.026
Mof_C 	C 	0.90311	0.79446	0.8139	-0.055
Mof_C 	C 	0.92046	0.78261	0.8395	0.093
Mof_N 	N 	0.93267	0.77412	0.86023	-0.267
Mof_C 	C 	0.94572	0.80111	0.79506	-0.004
Mof_H 	H 	0.9849	0.7982	0.7995	0.028
Mof_C 	C 	0.92964	0.81197	0.77014	-0.099
Mof_H 	H 	0.9581	0.8161	0.7574	0.064
Mof_C 	C 	0.88864	0.86103	0.71915	0.06
Mof_C 	C 	0.91817	0.91325	0.72663	-0.095
Mof_H 	H 	0.917	0.9257	0.7439	0.063
Mof_C 	C 	0.94898	0.94684	0.70934	-0.011
Mof_H 	H 	0.9691	0.9819	0.7148	0.039
Mof_C 	C 	0.95051	0.92921	0.68376	-0.046
Mof_C 	C 	0.98019	0.96694	0.66593	0.097
Mof_N 	N 	0.00234	0.00064	0.65248	-0.246
Mof_C 	C 	0.92323	0.87616	0.67614	-0.005
Mof_H 	H 	0.926	0.8629	0.659	0.032
Mof_C 	C 	0.89213	0.84282	0.69351	-0.092
Mof_H 	H 	0.8729	0.8072	0.6881	0.066
Mof_C 	C 	0.75705	0.87233	0.67609	0.061
Mof_C 	C 	0.7795	0.92077	0.69032	-0.089
Mof_H 	H 	0.7769	0.9199	0.7083	0.065
Mof_C 	C 	0.80506	0.9692	0.67854	-0.012
Mof_H 	H 	0.8204	0.0016	0.6883	0.036
Mof_C 	C 	0.80833	0.97043	0.6522	-0.032
Mof_C 	C 	0.83779	0.01937	0.63963	0.071
Mof_N 	N 	0.86255	0.05738	0.62952	-0.134
Mof_C 	C 	0.78384	0.92366	0.63756	-0.009
Mof_H 	H 	0.7854	0.9253	0.6195	0.036
Mof_C 	C 	0.75792	0.87611	0.6493	-0.097
Mof_H 	H 	0.7403	0.8453	0.6394	0.076
Mof_C 	C 	0.68791	0.78214	0.67731	0.068
Mof_C 	C 	0.63926	0.80892	0.66746	-0.101
Mof_H 	H 	0.636	0.8519	0.6673	0.066
Mof_C 	C 	0.59515	0.77363	0.65787	0.002
Mof_H 	H 	0.5611	0.792	0.6518	0.019
Mof_C 	C 	0.60168	0.71045	0.65726	-0.052
Mof_C 	C 	0.55597	0.67254	0.6486	0.098
Mof_N 	N 	0.52128	0.63947	0.64212	-0.256
Mof_C 	C 	0.65171	0.68332	0.66632	0.002
Mof_H 	H 	0.6566	0.6406	0.6654	0.036
Mof_C 	C 	0.69365	0.71929	0.67662	-0.097
Mof_H 	H 	0.727	0.701	0.6834	0.067
Mof_C 	C 	0.67977	0.68559	0.73878	0.055
Mof_C 	C 	0.63409	0.72336	0.73157	-0.084
Mof_H 	H 	0.6389	0.7661	0.7313	0.062
Mof_C 	C 	0.58211	0.69818	0.72483	-0.02
Mof_H 	H 	0.5512	0.7235	0.72	0.037
Mof_C 	C 	0.57571	0.63622	0.72525	-0.022
Mof_C 	C 	0.52283	0.6082	0.71844	0.059
Mof_N 	N 	0.4807	0.58299	0.7124	-0.131
Mof_C 	C 	0.62052	0.59765	0.73234	-0.022
Mof_H 	H 	0.6157	0.5549	0.7322	0.037
Mof_C 	C 	0.67224	0.62332	0.73962	-0.088
Mof_H 	H 	0.7025	0.598	0.7452	0.061
Mof_C 	C 	0.76882	0.68462	0.76645	0.06
Mof_C 	C 	0.74279	0.6665	0.78884	-0.097
Mof_H 	H 	0.7026	0.6702	0.7906	0.063
Mof_C 	C 	0.7747	0.64309	0.80874	-0.007
Mof_H 	H 	0.7566	0.6309	0.8241	0.027
Mof_C 	C 	0.83372	0.63771	0.80598	-0.048
Mof_C 	C 	0.86897	0.61586	0.82638	0.098
Mof_N 	N 	0.89854	0.59874	0.84196	-0.255
Mof_C 	C 	0.86104	0.65516	0.78324	-0.008
Mof_H 	H 	0.9011	0.651	0.7813	0.042
Mof_C 	C 	0.82795	0.67857	0.76381	-0.089
Mof_H 	H 	0.8457	0.6907	0.7484	0.066
Mof_Cu	Cu	0.53584	0.42484	0.36356	0.866
Mof_C 	C 	0.70736	0.49331	0.52442	-0.002
Mof_Cu	Cu	0.55241	0.22608	0.39658	0.863
Mof_C 	C 	0.7525	0.44938	0.52063	-0
Mof_C 	C 	0.75597	0.49262	0.54075	-0.003
Mof_C 	C 	0.65643	0.51577	0.51664	-0.056
Mof_C 	C 	0.77401	0.40205	0.50769	-0.054
Mof_C 	C 	0.78543	0.51816	0.56029	-0.053
Mof_C 	C 	0.55726	0.64267	0.53456	-0.008
Mof_H 	H 	0.5323	0.6707	0.5266	0.031
Mof_C 	C 	0.62385	0.55928	0.5318	0.058
Mof_C 	C 	0.62835	0.55914	0.55847	-0.089
Mof_H 	H 	0.6517	0.5298	0.5666	0.068
Mof_C 	C 	0.5989	0.60149	0.57299	-0.011
Mof_H 	H 	0.6032	0.6021	0.5909	0.041
Mof_C 	C 	0.56325	0.64269	0.56117	-0.05
Mof_C 	C 	0.53281	0.68589	0.57633	0.095
Mof_N 	N 	0.50762	0.71941	0.5883	-0.25
Mof_C 	C 	0.58759	0.60217	0.52025	-0.097
Mof_H 	H 	0.5842	0.6029	0.5023	0.064
Mof_C 	C 	0.63494	0.49649	0.49129	0.06
Mof_C 	C 	0.57802	0.47982	0.48759	-0.098
Mof_H 	H 	0.5526	0.4797	0.5016	0.062
Mof_C 	C 	0.55827	0.46343	0.46375	-0.008
Mof_H 	H 	0.5195	0.4526	0.4614	0.033
Mof_C 	C 	0.59578	0.4631	0.44348	-0.051
Mof_C 	C 	0.57605	0.44792	0.4188	0.091
Mof_N 	N 	0.55947	0.43639	0.39873	-0.264
Mof_C 	C 	0.65372	0.47968	0.44678	-0.005
Mof_H 	H 	0.6793	0.4794	0.4328	0.027
Mof_C 	C 	0.67224	0.49623	0.47062	-0.094
Mof_H 	H 	0.7109	0.5076	0.473	0.065
Mof_C 	C 	0.74102	0.37016	0.48832	0.062
Mof_C 	C 	0.68197	0.35992	0.49222	-0.091
Mof_H 	H 	0.6641	0.374	0.5073	0.066
Mof_C 	C 	0.65013	0.3292	0.47398	-0.003
Mof_H 	H 	0.6107	0.3219	0.4766	0.035
Mof_C 	C 	0.67669	0.30924	0.45189	-0.052
Mof_C 	C 	0.64325	0.27639	0.43301	0.101
Mof_N 	N 	0.61672	0.25218	0.41831	-0.258
Mof_C 	C 	0.73509	0.3172	0.44837	-0.002
Mof_H 	H 	0.7533	0.301	0.4338	0.026
Mof_C 	C 	0.76575	0.34837	0.46598	-0.1
Mof_H 	H 	0.8051	0.3555	0.463	0.064
Mof_C 	C 	0.83275	0.38173	0.51295	0.054
Mof_C 	C 	0.8458	0.31926	0.51376	-0.086
Mof_H 	H 	0.8166	0.2903	0.5108	0.061
Mof_C 	C 	0.9011	0.29966	0.5188	-0.02
Mof_H 	H 	0.9094	0.2575	0.5196	0.037
Mof_C 	C 	0.9444	0.3425	0.52264	-0.027
Mof_C 	C 	0.00136	0.3198	0.52675	0.068
Mof_N 	N 	0.04665	0.303	0.53049	-0.133
Mof_C 	C 	0.93175	0.40354	0.52131	-0.015
Mof_H 	H 	0.9613	0.4323	0.5238	0.038
Mof_C 	C 	0.87751	0.4236	0.51651	-0.084
Mof_H 	H 	0.87	0.4659	0.5156	0.063
Mof_C 	C 	0.83633	0.48655	0.57036	0.06
Mof_C 	C 	0.83507	0.42443	0.5735	-0.089
Mof_H 	H 	0.8006	0.4031	0.5704	0.069
Mof_C 	C 	0.883	0.39251	0.58107	-0.007
Mof_H 	H 	0.8816	0.3497	0.583	0.041
Mof_C 	C 	0.93383	0.42452	0.58591	-0.046
Mof_C 	C 	0.9831	0.38997	0.59174	0.088
Mof_N 	N 	0.0201	0.3565	0.59577	-0.244
Mof_C 	C 	0.93527	0.48804	0.58338	-0.008
Mof_H 	H 	0.9695	0.5096	0.5867	0.031
Mof_C 	C 	0.88648	0.51917	0.57606	-0.094
Mof_H 	H 	0.8869	0.5622	0.5749	0.064
Mof_C 	C 	0.7672	0.57678	0.57056	0.055
Mof_C 	C 	0.76912	0.58954	0.59692	-0.086
Mof_H 	H 	0.7841	0.5602	0.6083	0.063
Mof_C 	C 	0.74961	0.64387	0.60608	-0.014
Mof_H 	H 	0.7502	0.6516	0.6238	0.039
Mof_C 	C 	0.72885	0.68774	0.58945	-0.027
Mof_C 	C 	0.70939	0.74462	0.59891	0.072
Mof_N 	N 	0.69398	0.7912	0.60644	-0.129
Mof_C 	C 	0.72779	0.67683	0.56334	-0.015
Mof_H 	H 	0.7142	0.7071	0.552	0.038
Mof_C 	C 	0.74664	0.6217	0.55413	-0.085
Mof_H 	H 	0.7457	0.6141	0.5364	0.064
Mof_C 	C 	0.3031	0.69829	0.27092	-0.003
Mof_C 	C 	0.25865	0.70172	0.28943	-0
Mof_C 	C 	0.25774	0.74051	0.26755	-0.003
Mof_C 	C 	0.35385	0.67359	0.26292	-0.058
Mof_C 	C 	0.23459	0.68213	0.31119	-0.058
Mof_C 	C 	0.23539	0.78726	0.25435	-0.053
Mof_C 	C 	0.37195	0.68304	0.23664	0.063
Mof_C 	C 	0.33097	0.68767	0.21736	-0.096
Mof_H 	H 	0.2919	0.6828	0.2215	0.067
Mof_C 	C 	0.34607	0.69924	0.19236	-0.001
Mof_H 	H 	0.3176	0.7028	0.1796	0.026
Mof_C 	C 	0.40311	0.70554	0.1861	-0.055
Mof_C 	C 	0.42046	0.71739	0.1605	0.093
Mof_N 	N 	0.43267	0.72588	0.13977	-0.267
Mof_C 	C 	0.44572	0.69889	0.20494	-0.004
Mof_H 	H 	0.4849	0.7018	0.2005	0.028
Mof_C 	C 	0.42964	0.68803	0.22986	-0.099
Mof_H 	H 	0.4581	0.6839	0.2426	0.064
Mof_C 	C 	0.38864	0.63897	0.28085	0.06
Mof_C 	C 	0.41817	0.58675	0.27337	-0.095
Mof_H 	H 	0.417	0.5743	0.2561	0.063
Mof_C 	C 	0.44898	0.55316	0.29066	-0.011
Mof_H 	H 	0.4691	0.5181	0.2852	0.039
Mof_C 	C 	0.45051	0.57079	0.31624	-0.046
Mof_C 	C 	0.48019	0.53306	0.33407	0.097
Mof_N 	N 	0.50234	0.49936	0.34752	-0.246
Mof_C 	C 	0.42323	0.62384	0.32386	-0.005
Mof_H 	H 	0.426	0.6371	0.341	0.032
Mof_C 	C 	0.39213	0.65718	0.30649	-0.092
Mof_H 	H 	0.3729	0.6928	0.3119	0.066
Mof_C 	C 	0.25705	0.62767	0.32391	0.061
Mof_C 	C 	0.2795	0.57923	0.30968	-0.089
Mof_H 	H 	0.2769	0.5801	0.2917	0.065
Mof_C 	C 	0.30506	0.5308	0.32146	-0.011
Mof_H 	H 	0.3204	0.4984	0.3117	0.036
Mof_C 	C 	0.30833	0.52957	0.3478	-0.032
Mof_C 	C 	0.33779	0.48063	0.36037	0.07
Mof_N 	N 	0.36255	0.44262	0.37048	-0.134
Mof_C 	C 	0.28384	0.57634	0.36244	-0.009
Mof_H 	H 	0.2854	0.5747	0.3805	0.036
Mof_C 	C 	0.25792	0.62389	0.3507	-0.097
Mof_H 	H 	0.2403	0.6547	0.3606	0.076
Mof_C 	C 	0.18791	0.71786	0.32269	0.068
Mof_C 	C 	0.13926	0.69108	0.33254	-0.101
Mof_H 	H 	0.136	0.6481	0.3327	0.066
Mof_C 	C 	0.09515	0.72637	0.34213	0.002
Mof_H 	H 	0.0611	0.708	0.3482	0.019
Mof_C 	C 	0.10168	0.78955	0.34274	-0.052
Mof_C 	C 	0.05597	0.82746	0.3514	0.098
Mof_N 	N 	0.02128	0.86053	0.35788	-0.256
Mof_C 	C 	0.15171	0.81668	0.33368	0.002
Mof_H 	H 	0.1566	0.8594	0.3346	0.036
Mof_C 	C 	0.19365	0.78071	0.32338	-0.097
Mof_H 	H 	0.227	0.799	0.3166	0.067
Mof_C 	C 	0.17977	0.81441	0.26122	0.055
Mof_C 	C 	0.13409	0.77664	0.26843	-0.084
Mof_H 	H 	0.1389	0.7339	0.2687	0.062
Mof_C 	C 	0.08211	0.80182	0.27517	-0.019
Mof_H 	H 	0.0512	0.7765	0.28	0.037
Mof_C 	C 	0.07571	0.86378	0.27475	-0.023
Mof_C 	C 	0.02283	0.8918	0.28156	0.06
Mof_N 	N 	0.9807	0.91701	0.2876	-0.131
Mof_C 	C 	0.12052	0.90235	0.26766	-0.022
Mof_H 	H 	0.1157	0.9451	0.2678	0.037
Mof_C 	C 	0.17224	0.87668	0.26038	-0.088
Mof_H 	H 	0.2025	0.902	0.2548	0.061
Mof_C 	C 	0.26882	0.81538	0.23355	0.06
Mof_C 	C 	0.24279	0.8335	0.21116	-0.097
Mof_H 	H 	0.2026	0.8298	0.2094	0.063
Mof_C 	C 	0.2747	0.85691	0.19126	-0.007
Mof_H 	H 	0.2566	0.8691	0.1759	0.027
Mof_C 	C 	0.33372	0.86229	0.19402	-0.048
Mof_C 	C 	0.36897	0.88414	0.17362	0.098
Mof_N 	N 	0.39854	0.90126	0.15804	-0.255
Mof_C 	C 	0.36104	0.84484	0.21676	-0.008
Mof_H 	H 	0.4011	0.849	0.2187	0.042
Mof_C 	C 	0.32795	0.82143	0.23619	-0.089
Mof_H 	H 	0.3457	0.8093	0.2516	0.066
Mof_Cu	Cu	0.96416	0.57516	0.86356	0.866
Mof_C 	C 	0.79264	0.50669	0.02442	-0.002
Mof_Cu	Cu	0.94759	0.77392	0.89658	0.863
Mof_C 	C 	0.7475	0.55062	0.02063	-0
Mof_C 	C 	0.74403	0.50738	0.04075	-0.003
Mof_C 	C 	0.84357	0.48423	0.01664	-0.056
Mof_C 	C 	0.72599	0.59795	0.00769	-0.054
Mof_C 	C 	0.71457	0.48184	0.06029	-0.053
Mof_C 	C 	0.94274	0.35733	0.03456	-0.008
Mof_H 	H 	0.9677	0.3293	0.0266	0.031
Mof_C 	C 	0.87615	0.44072	0.0318	0.058
Mof_C 	C 	0.87165	0.44086	0.05847	-0.089
Mof_H 	H 	0.8483	0.4702	0.0666	0.068
Mof_C 	C 	0.9011	0.39851	0.07299	-0.011
Mof_H 	H 	0.8968	0.3979	0.0909	0.041
Mof_C 	C 	0.93675	0.35731	0.06117	-0.05
Mof_C 	C 	0.96719	0.31411	0.07633	0.095
Mof_N 	N 	0.99238	0.28059	0.0883	-0.25
Mof_C 	C 	0.91241	0.39783	0.02025	-0.097
Mof_H 	H 	0.9158	0.3971	0.0023	0.064
Mof_C 	C 	0.86506	0.50351	0.99129	0.06
Mof_C 	C 	0.92198	0.52018	0.98759	-0.098
Mof_H 	H 	0.9474	0.5203	0.0016	0.062
Mof_C 	C 	0.94173	0.53657	0.96375	-0.008
Mof_H 	H 	0.9805	0.5474	0.9614	0.033
Mof_C 	C 	0.90422	0.5369	0.94348	-0.051
Mof_C 	C 	0.92395	0.55208	0.9188	0.091
Mof_N 	N 	0.94053	0.56361	0.89873	-0.264
Mof_C 	C 	0.84628	0.52032	0.94678	-0.005
Mof_H 	H 	0.8207	0.5206	0.9328	0.027
Mof_C 	C 	0.82776	0.50377	0.97062	-0.094
Mof_H 	H 	0.7891	0.4924	0.973	0.065
Mof_C 	C 	0.75898	0.62984	0.98832	0.062
Mof_C 	C 	0.81803	0.64008	0.99222	-0.091
Mof_H 	H 	0.8359	0.626	0.0073	0.066
Mof_C 	C 	0.84987	0.6708	0.97398	-0.003
Mof_H 	H 	0.8893	0.6781	0.9766	0.035
Mof_C 	C 	0.82331	0.69076	0.95189	-0.052
Mof_C 	C 	0.85675	0.72361	0.93301	0.101
Mof_N 	N 	0.88328	0.74782	0.91831	-0.258
Mof_C 	C 	0.76491	0.6828	0.94837	-0.002
Mof_H 	H 	0.7467	0.699	0.9338	0.026
Mof_C 	C 	0.73425	0.65163	0.96598	-0.1
Mof_H 	H 	0.6949	0.6445	0.963	0.064
Mof_C 	C 	0.66725	0.61827	0.01295	0.054
Mof_C 	C 	0.6542	0.68074	0.01376	-0.086
Mof_H 	H 	0.6834	0.7097	0.0108	0.061
Mof_C 	C 	0.5989	0.70034	0.0188	-0.02
Mof_H 	H 	0.5906	0.7425	0.0196	0.037
Mof_C 	C 	0.5556	0.6575	0.02264	-0.027
Mof_C 	C 	0.49864	0.6802	0.02675	0.068
Mof_N 	N 	0.45335	0.697	0.03049	-0.133
Mof_C 	C 	0.56825	0.59646	0.02131	-0.015
Mof_H 	H 	0.5387	0.5677	0.0238	0.038
Mof_C 	C 	0.62249	0.5764	0.01651	-0.084
Mof_H 	H 	0.63	0.5341	0.0156	0.063
Mof_C 	C 	0.66367	0.51345	0.07036	0.06
Mof_C 	C 	0.66493	0.57557	0.0735	-0.089
Mof_H 	H 	0.6994	0.5969	0.0704	0.069
Mof_C 	C 	0.617	0.60749	0.08107	-0.007
Mof_H 	H 	0.6184	0.6503	0.083	0.041
Mof_C 	C 	0.56617	0.57548	0.08591	-0.046
Mof_C 	C 	0.5169	0.61003	0.09174	0.088
Mof_N 	N 	0.4799	0.6435	0.09577	-0.244
Mof_C 	C 	0.56473	0.51196	0.08338	-0.008
Mof_H 	H 	0.5305	0.4904	0.0867	0.031
Mof_C 	C 	0.61352	0.48083	0.07606	-0.094
Mof_H 	H 	0.6131	0.4378	0.0749	0.064
Mof_C 	C 	0.7328	0.42322	0.07056	0.055
Mof_C 	C 	0.73088	0.41046	0.09692	-0.086
Mof_H 	H 	0.7159	0.4398	0.1083	0.063
Mof_C 	C 	0.75039	0.35613	0.10608	-0.014
Mof_H 	H 	0.7498	0.3484	0.1238	0.039
Mof_C 	C 	0.77115	0.31226	0.08945	-0.027
Mof_C 	C 	0.79061	0.25538	0.09891	0.072
Mof_N 	N 	0.80602	0.2088	0.10644	-0.129
Mof_C 	C 	0.77221	0.32317	0.06334	-0.015
Mof_H 	H 	0.7858	0.2929	0.052	0.038
Mof_C 	C 	0.75336	0.3783	0.05413	-0.085
Mof_H 	H 	0.7543	0.3859	0.0364	0.064
Mof_C 	C 	0.1969	0.30171	0.77092	-0.003
Mof_C 	C 	0.24135	0.29828	0.78943	-0
Mof_C 	C 	0.24226	0.25949	0.76755	-0.003
Mof_C 	C 	0.14615	0.32641	0.76292	-0.058
Mof_C 	C 	0.26541	0.31787	0.81119	-0.058
Mof_C 	C 	0.26461	0.21274	0.75435	-0.053
Mof_C 	C 	0.12805	0.31696	0.73664	0.063
Mof_C 	C 	0.16903	0.31233	0.71736	-0.096
Mof_H 	H 	0.2081	0.3172	0.7215	0.067
Mof_C 	C 	0.15393	0.30076	0.69236	-0.001
Mof_H 	H 	0.1824	0.2972	0.6796	0.026
Mof_C 	C 	0.09689	0.29446	0.6861	-0.055
Mof_C 	C 	0.07954	0.28261	0.6605	0.093
Mof_N 	N 	0.06733	0.27412	0.63977	-0.267
Mof_C 	C 	0.05428	0.30111	0.70494	-0.004
Mof_H 	H 	0.0151	0.2982	0.7005	0.028
Mof_C 	C 	0.07036	0.31197	0.72986	-0.099
Mof_H 	H 	0.0419	0.3161	0.7426	0.064
Mof_C 	C 	0.11136	0.36103	0.78085	0.06
Mof_C 	C 	0.08183	0.41325	0.77337	-0.095
Mof_H 	H 	0.083	0.4257	0.7561	0.063
Mof_C 	C 	0.05102	0.44684	0.79066	-0.011
Mof_H 	H 	0.0309	0.4819	0.7852	0.039
Mof_C 	C 	0.04949	0.42921	0.81624	-0.046
Mof_C 	C 	0.01981	0.46694	0.83407	0.097
Mof_N 	N 	0.99766	0.50064	0.84752	-0.246
Mof_C 	C 	0.07677	0.37616	0.82386	-0.005
Mof_H 	H 	0.074	0.3629	0.841	0.032
Mof_C 	C 	0.10787	0.34282	0.80649	-0.092
Mof_H 	H 	0.1271	0.3072	0.8119	0.066
Mof_C 	C 	0.24295	0.37233	0.82391	0.061
Mof_C 	C 	0.2205	0.42077	0.80968	-0.089
Mof_H 	H 	0.2231	0.4199	0.7917	0.065
Mof_C 	C 	0.19494	0.4692	0.82146	-0.011
Mof_H 	H 	0.1796	0.5016	0.8117	0.036
Mof_C 	C 	0.19167	0.47043	0.8478	-0.032
Mof_C 	C 	0.16221	0.51937	0.86037	0.07
Mof_N 	N 	0.13745	0.55738	0.87048	-0.134
Mof_C 	C 	0.21616	0.42366	0.86244	-0.009
Mof_H 	H 	0.2146	0.4253	0.8805	0.036
Mof_C 	C 	0.24208	0.37611	0.8507	-0.097
Mof_H 	H 	0.2597	0.3453	0.8606	0.076
Mof_C 	C 	0.31209	0.28214	0.82269	0.068
Mof_C 	C 	0.36074	0.30892	0.83254	-0.101
Mof_H 	H 	0.364	0.3519	0.8327	0.066
Mof_C 	C 	0.40485	0.27363	0.84213	0.002
Mof_H 	H 	0.4389	0.292	0.8482	0.019
Mof_C 	C 	0.39832	0.21045	0.84274	-0.052
Mof_C 	C 	0.44403	0.17254	0.8514	0.098
Mof_N 	N 	0.47872	0.13947	0.85788	-0.256
Mof_C 	C 	0.34829	0.18332	0.83368	0.002
Mof_H 	H 	0.3434	0.1406	0.8346	0.036
Mof_C 	C 	0.30635	0.21929	0.82338	-0.097
Mof_H 	H 	0.273	0.201	0.8166	0.067
Mof_C 	C 	0.32023	0.18559	0.76122	0.055
Mof_C 	C 	0.36591	0.22336	0.76843	-0.084
Mof_H 	H 	0.3611	0.2661	0.7687	0.062
Mof_C 	C 	0.41789	0.19818	0.77517	-0.02
Mof_H 	H 	0.4488	0.2235	0.78	0.037
Mof_C 	C 	0.42429	0.13622	0.77475	-0.022
Mof_C 	C 	0.47717	0.1082	0.78156	0.059
Mof_N 	N 	0.5193	0.08299	0.7876	-0.131
Mof_C 	C 	0.37948	0.09765	0.76766	-0.022
Mof_H 	H 	0.3843	0.0549	0.7678	0.037
Mof_C 	C 	0.32776	0.12332	0.76038	-0.088
Mof_H 	H 	0.2975	0.098	0.7548	0.061
Mof_C 	C 	0.23118	0.18462	0.73355	0.06
Mof_C 	C 	0.25721	0.1665	0.71116	-0.097
Mof_H 	H 	0.2974	0.1702	0.7094	0.063
Mof_C 	C 	0.2253	0.14309	0.69126	-0.007
Mof_H 	H 	0.2434	0.1309	0.6759	0.027
Mof_C 	C 	0.16628	0.13771	0.69402	-0.048
Mof_C 	C 	0.13103	0.11586	0.67362	0.098
Mof_N 	N 	0.10146	0.09874	0.65804	-0.255
Mof_C 	C 	0.13896	0.15516	0.71676	-0.008
Mof_H 	H 	0.0989	0.151	0.7187	0.042
Mof_C 	C 	0.17205	0.17857	0.73619	-0.089
Mof_H 	H 	0.1543	0.1907	0.7516	0.066
Mof_Cu	Cu	0.53584	0.07516	0.86356	0.866
Mof_C 	C 	0.70736	0.00669	0.02442	-0.002
Mof_Cu	Cu	0.55241	0.27392	0.89658	0.863
Mof_C 	C 	0.7525	0.05062	0.02063	-0.001
Mof_C 	C 	0.75597	0.00738	0.04075	-0.002
Mof_C 	C 	0.65643	0.98423	0.01664	-0.056
Mof_C 	C 	0.77401	0.09795	0.00769	-0.054
Mof_C 	C 	0.78543	0.98184	0.06029	-0.054
Mof_C 	C 	0.55726	0.85733	0.03456	-0.008
Mof_H 	H 	0.5323	0.8293	0.0266	0.031
Mof_C 	C 	0.62385	0.94072	0.0318	0.058
Mof_C 	C 	0.62835	0.94086	0.05847	-0.089
Mof_H 	H 	0.6517	0.9702	0.0666	0.068
Mof_C 	C 	0.5989	0.89851	0.07299	-0.011
Mof_H 	H 	0.6032	0.8979	0.0909	0.041
Mof_C 	C 	0.56325	0.85731	0.06117	-0.05
Mof_C 	C 	0.53281	0.81411	0.07633	0.095
Mof_N 	N 	0.50762	0.78059	0.0883	-0.25
Mof_C 	C 	0.58759	0.89783	0.02025	-0.097
Mof_H 	H 	0.5842	0.8971	0.0023	0.064
Mof_C 	C 	0.63494	0.00351	0.99129	0.06
Mof_C 	C 	0.57802	0.02018	0.98759	-0.097
Mof_H 	H 	0.5526	0.0203	0.0016	0.062
Mof_C 	C 	0.55827	0.03657	0.96375	-0.008
Mof_H 	H 	0.5195	0.0474	0.9614	0.033
Mof_C 	C 	0.59578	0.0369	0.94348	-0.051
Mof_C 	C 	0.57605	0.05208	0.9188	0.091
Mof_N 	N 	0.55947	0.06361	0.89873	-0.264
Mof_C 	C 	0.65372	0.02032	0.94678	-0.005
Mof_H 	H 	0.6793	0.0206	0.9328	0.028
Mof_C 	C 	0.67224	0.00377	0.97062	-0.093
Mof_H 	H 	0.7109	0.9924	0.973	0.065
Mof_C 	C 	0.74102	0.12984	0.98832	0.061
Mof_C 	C 	0.68197	0.14008	0.99222	-0.091
Mof_H 	H 	0.6641	0.126	0.0073	0.066
Mof_C 	C 	0.65013	0.1708	0.97398	-0.003
Mof_H 	H 	0.6107	0.1781	0.9766	0.035
Mof_C 	C 	0.67669	0.19076	0.95189	-0.052
Mof_C 	C 	0.64325	0.22361	0.93301	0.101
Mof_N 	N 	0.61672	0.24782	0.91831	-0.258
Mof_C 	C 	0.73509	0.1828	0.94837	-0.002
Mof_H 	H 	0.7533	0.199	0.9338	0.026
Mof_C 	C 	0.76575	0.15163	0.96598	-0.1
Mof_H 	H 	0.8051	0.1445	0.963	0.064
Mof_C 	C 	0.83275	0.11827	0.01295	0.054
Mof_C 	C 	0.8458	0.18074	0.01376	-0.086
Mof_H 	H 	0.8166	0.2097	0.0108	0.061
Mof_C 	C 	0.9011	0.20034	0.0188	-0.02
Mof_H 	H 	0.9094	0.2425	0.0196	0.037
Mof_C 	C 	0.9444	0.1575	0.02264	-0.027
Mof_C 	C 	0.00136	0.1802	0.02675	0.068
Mof_N 	N 	0.04665	0.197	0.03049	-0.133
Mof_C 	C 	0.93175	0.09646	0.02131	-0.016
Mof_H 	H 	0.9613	0.0677	0.0238	0.038
Mof_C 	C 	0.87751	0.0764	0.01651	-0.084
Mof_H 	H 	0.87	0.0341	0.0156	0.063
Mof_C 	C 	0.83633	0.01345	0.07036	0.061
Mof_C 	C 	0.83507	0.07557	0.0735	-0.09
Mof_H 	H 	0.8006	0.0969	0.0704	0.069
Mof_C 	C 	0.883	0.10749	0.08107	-0.006
Mof_H 	H 	0.8816	0.1503	0.083	0.04
Mof_C 	C 	0.93383	0.07548	0.08591	-0.047
Mof_C 	C 	0.9831	0.11003	0.09174	0.089
Mof_N 	N 	0.0201	0.1435	0.09577	-0.244
Mof_C 	C 	0.93527	0.01196	0.08338	-0.006
Mof_H 	H 	0.9695	0.9904	0.0867	0.03
Mof_C 	C 	0.88648	0.98083	0.07606	-0.096
Mof_H 	H 	0.8869	0.9378	0.0749	0.064
Mof_C 	C 	0.7672	0.92322	0.07056	0.055
Mof_C 	C 	0.76912	0.91046	0.09692	-0.087
Mof_H 	H 	0.7841	0.9398	0.1083	0.063
Mof_C 	C 	0.74961	0.85613	0.10608	-0.014
Mof_H 	H 	0.7502	0.8484	0.1238	0.039
Mof_C 	C 	0.72885	0.81226	0.08945	-0.027
Mof_C 	C 	0.70939	0.75538	0.09891	0.073
Mof_N 	N 	0.69398	0.7088	0.10644	-0.129
Mof_C 	C 	0.72779	0.82317	0.06334	-0.015
Mof_H 	H 	0.7142	0.7929	0.052	0.038
Mof_C 	C 	0.74664	0.8783	0.05413	-0.085
Mof_H 	H 	0.7457	0.8859	0.0364	0.064
Mof_C 	C 	0.3031	0.80171	0.77092	-0.003
Mof_C 	C 	0.25865	0.79828	0.78943	-0
Mof_C 	C 	0.25774	0.75949	0.76755	-0.003
Mof_C 	C 	0.35385	0.82641	0.76292	-0.058
Mof_C 	C 	0.23459	0.81787	0.81119	-0.058
Mof_C 	C 	0.23539	0.71274	0.75435	-0.053
Mof_C 	C 	0.37195	0.81696	0.73664	0.063
Mof_C 	C 	0.33097	0.81233	0.71736	-0.096
Mof_H 	H 	0.2919	0.8172	0.7215	0.067
Mof_C 	C 	0.34607	0.80076	0.69236	-0.001
Mof_H 	H 	0.3176	0.7972	0.6796	0.026
Mof_C 	C 	0.40311	0.79446	0.6861	-0.055
Mof_C 	C 	0.42046	0.78261	0.6605	0.093
Mof_N 	N 	0.43267	0.77412	0.63977	-0.267
Mof_C 	C 	0.44572	0.80111	0.70494	-0.004
Mof_H 	H 	0.4849	0.7982	0.7005	0.028
Mof_C 	C 	0.42964	0.81197	0.72986	-0.099
Mof_H 	H 	0.4581	0.8161	0.7426	0.064
Mof_C 	C 	0.38864	0.86103	0.78085	0.06
Mof_C 	C 	0.41817	0.91325	0.77337	-0.095
Mof_H 	H 	0.417	0.9257	0.7561	0.063
Mof_C 	C 	0.44898	0.94684	0.79066	-0.011
Mof_H 	H 	0.4691	0.9819	0.7852	0.039
Mof_C 	C 	0.45051	0.92921	0.81624	-0.046
Mof_C 	C 	0.48019	0.96694	0.83407	0.097
Mof_N 	N 	0.50234	0.00064	0.84752	-0.246
Mof_C 	C 	0.42323	0.87616	0.82386	-0.005
Mof_H 	H 	0.426	0.8629	0.841	0.032
Mof_C 	C 	0.39213	0.84282	0.80649	-0.092
Mof_H 	H 	0.3729	0.8072	0.8119	0.066
Mof_C 	C 	0.25705	0.87233	0.82391	0.061
Mof_C 	C 	0.2795	0.92077	0.80968	-0.089
Mof_H 	H 	0.2769	0.9199	0.7917	0.065
Mof_C 	C 	0.30506	0.9692	0.82146	-0.011
Mof_H 	H 	0.3204	0.0016	0.8117	0.036
Mof_C 	C 	0.30833	0.97043	0.8478	-0.032
Mof_C 	C 	0.33779	0.01937	0.86037	0.07
Mof_N 	N 	0.36255	0.05738	0.87048	-0.134
Mof_C 	C 	0.28384	0.92366	0.86244	-0.009
Mof_H 	H 	0.2854	0.9253	0.8805	0.036
Mof_C 	C 	0.25792	0.87611	0.8507	-0.097
Mof_H 	H 	0.2403	0.8453	0.8606	0.076
Mof_C 	C 	0.18791	0.78214	0.82269	0.068
Mof_C 	C 	0.13926	0.80892	0.83254	-0.101
Mof_H 	H 	0.136	0.8519	0.8327	0.066
Mof_C 	C 	0.09515	0.77363	0.84213	0.002
Mof_H 	H 	0.0611	0.792	0.8482	0.019
Mof_C 	C 	0.10168	0.71045	0.84274	-0.052
Mof_C 	C 	0.05597	0.67254	0.8514	0.098
Mof_N 	N 	0.02128	0.63947	0.85788	-0.256
Mof_C 	C 	0.15171	0.68332	0.83368	0.002
Mof_H 	H 	0.1566	0.6406	0.8346	0.036
Mof_C 	C 	0.19365	0.71929	0.82338	-0.097
Mof_H 	H 	0.227	0.701	0.8166	0.067
Mof_C 	C 	0.17977	0.68559	0.76122	0.055
Mof_C 	C 	0.13409	0.72336	0.76843	-0.084
Mof_H 	H 	0.1389	0.7661	0.7687	0.062
Mof_C 	C 	0.08211	0.69818	0.77517	-0.019
Mof_H 	H 	0.0512	0.7235	0.78	0.037
Mof_C 	C 	0.07571	0.63622	0.77475	-0.022
Mof_C 	C 	0.02283	0.6082	0.78156	0.059
Mof_N 	N 	0.9807	0.58299	0.7876	-0.131
Mof_C 	C 	0.12052	0.59765	0.76766	-0.022
Mof_H 	H 	0.1157	0.5549	0.7678	0.037
Mof_C 	C 	0.17224	0.62332	0.76038	-0.088
Mof_H 	H 	0.2025	0.598	0.7548	0.061
Mof_C 	C 	0.26882	0.68462	0.73355	0.06
Mof_C 	C 	0.24279	0.6665	0.71116	-0.097
Mof_H 	H 	0.2026	0.6702	0.7094	0.063
Mof_C 	C 	0.2747	0.64309	0.69126	-0.007
Mof_H 	H 	0.2566	0.6309	0.6759	0.027
Mof_C 	C 	0.33372	0.63771	0.69402	-0.048
Mof_C 	C 	0.36897	0.61586	0.67362	0.098
Mof_N 	N 	0.39854	0.59874	0.65804	-0.255
Mof_C 	C 	0.36104	0.65516	0.71676	-0.008
Mof_H 	H 	0.4011	0.651	0.7187	0.042
Mof_C 	C 	0.32795	0.67857	0.73619	-0.089
Mof_H 	H 	0.3457	0.6907	0.7516	0.066
Mof_Cu	Cu	0.96416	0.92484	0.36356	0.866
Mof_C 	C 	0.79264	0.99331	0.52442	-0.003
Mof_Cu	Cu	0.94759	0.72608	0.39658	0.863
Mof_C 	C 	0.7475	0.94938	0.52063	-0
Mof_C 	C 	0.74403	0.99262	0.54075	-0.003
Mof_C 	C 	0.84357	0.01577	0.51664	-0.055
Mof_C 	C 	0.72599	0.90205	0.50769	-0.054
Mof_C 	C 	0.71457	0.01816	0.56029	-0.052
Mof_C 	C 	0.94274	0.14267	0.53456	-0.008
Mof_H 	H 	0.9677	0.1707	0.5266	0.031
Mof_C 	C 	0.87615	0.05928	0.5318	0.058
Mof_C 	C 	0.87165	0.05914	0.55847	-0.089
Mof_H 	H 	0.8483	0.0298	0.5666	0.068
Mof_C 	C 	0.9011	0.10149	0.57299	-0.011
Mof_H 	H 	0.8968	0.1021	0.5909	0.041
Mof_C 	C 	0.93675	0.14269	0.56117	-0.05
Mof_C 	C 	0.96719	0.18589	0.57633	0.095
Mof_N 	N 	0.99238	0.21941	0.5883	-0.25
Mof_C 	C 	0.91241	0.10217	0.52025	-0.097
Mof_H 	H 	0.9158	0.1029	0.5023	0.064
Mof_C 	C 	0.86506	0.99649	0.49129	0.06
Mof_C 	C 	0.92198	0.97982	0.48759	-0.097
Mof_H 	H 	0.9474	0.9797	0.5016	0.062
Mof_C 	C 	0.94173	0.96343	0.46375	-0.008
Mof_H 	H 	0.9805	0.9526	0.4614	0.033
Mof_C 	C 	0.90422	0.9631	0.44348	-0.051
Mof_C 	C 	0.92395	0.94792	0.4188	0.091
Mof_N 	N 	0.94053	0.93639	0.39873	-0.264
Mof_C 	C 	0.84628	0.97968	0.44678	-0.005
Mof_H 	H 	0.8207	0.9794	0.4328	0.027
Mof_C 	C 	0.82776	0.99623	0.47062	-0.094
Mof_H 	H 	0.7891	0.0076	0.473	0.065
Mof_C 	C 	0.75898	0.87016	0.48832	0.062
Mof_C 	C 	0.81803	0.85992	0.49222	-0.091
Mof_H 	H 	0.8359	0.874	0.5073	0.066
Mof_C 	C 	0.84987	0.8292	0.47398	-0.003
Mof_H 	H 	0.8893	0.8219	0.4766	0.035
Mof_C 	C 	0.82331	0.80924	0.45189	-0.052
Mof_C 	C 	0.85675	0.77639	0.43301	0.101
Mof_N 	N 	0.88328	0.75218	0.41831	-0.258
Mof_C 	C 	0.76491	0.8172	0.44837	-0.002
Mof_H 	H 	0.7467	0.801	0.4338	0.026
Mof_C 	C 	0.73425	0.84837	0.46598	-0.1
Mof_H 	H 	0.6949	0.8555	0.463	0.064
Mof_C 	C 	0.66725	0.88173	0.51295	0.054
Mof_C 	C 	0.6542	0.81926	0.51376	-0.086
Mof_H 	H 	0.6834	0.7903	0.5108	0.061
Mof_C 	C 	0.5989	0.79966	0.5188	-0.02
Mof_H 	H 	0.5906	0.7575	0.5196	0.037
Mof_C 	C 	0.5556	0.8425	0.52264	-0.027
Mof_C 	C 	0.49864	0.8198	0.52675	0.068
Mof_N 	N 	0.45335	0.803	0.53049	-0.133
Mof_C 	C 	0.56825	0.90354	0.52131	-0.015
Mof_H 	H 	0.5387	0.9323	0.5238	0.038
Mof_C 	C 	0.62249	0.9236	0.51651	-0.084
Mof_H 	H 	0.63	0.9659	0.5156	0.063
Mof_C 	C 	0.66367	0.98655	0.57036	0.059
Mof_C 	C 	0.66493	0.92443	0.5735	-0.089
Mof_H 	H 	0.6994	0.9031	0.5704	0.069
Mof_C 	C 	0.617	0.89251	0.58107	-0.007
Mof_H 	H 	0.6184	0.8497	0.583	0.041
Mof_C 	C 	0.56617	0.92452	0.58591	-0.045
Mof_C 	C 	0.5169	0.88997	0.59174	0.088
Mof_N 	N 	0.4799	0.8565	0.59577	-0.244
Mof_C 	C 	0.56473	0.98804	0.58338	-0.009
Mof_H 	H 	0.5305	0.0096	0.5867	0.031
Mof_C 	C 	0.61352	0.01917	0.57606	-0.093
Mof_H 	H 	0.6131	0.0622	0.5749	0.063
Mof_C 	C 	0.7328	0.07678	0.57056	0.055
Mof_C 	C 	0.73088	0.08954	0.59692	-0.086
Mof_H 	H 	0.7159	0.0602	0.6083	0.063
Mof_C 	C 	0.75039	0.14387	0.60608	-0.014
Mof_H 	H 	0.7498	0.1516	0.6238	0.039
Mof_C 	C 	0.77115	0.18774	0.58945	-0.027
Mof_C 	C 	0.79061	0.24462	0.59891	0.072
Mof_N 	N 	0.80602	0.2912	0.60644	-0.129
Mof_C 	C 	0.77221	0.17683	0.56334	-0.015
Mof_H 	H 	0.7858	0.2071	0.552	0.038
Mof_C 	C 	0.75336	0.1217	0.55413	-0.085
Mof_H 	H 	0.7543	0.1141	0.5364	0.064
Mof_C 	C 	0.1969	0.19829	0.27092	-0.003
Mof_C 	C 	0.24135	0.20172	0.28943	-0
Mof_C 	C 	0.24226	0.24051	0.26755	-0.003
Mof_C 	C 	0.14615	0.17359	0.26292	-0.058
Mof_C 	C 	0.26541	0.18213	0.31119	-0.058
Mof_C 	C 	0.26461	0.28726	0.25435	-0.053
Mof_C 	C 	0.12805	0.18304	0.23664	0.063
Mof_C 	C 	0.16903	0.18767	0.21736	-0.096
Mof_H 	H 	0.2081	0.1828	0.2215	0.067
Mof_C 	C 	0.15393	0.19924	0.19236	-0.001
Mof_H 	H 	0.1824	0.2028	0.1796	0.026
Mof_C 	C 	0.09689	0.20554	0.1861	-0.055
Mof_C 	C 	0.07954	0.21739	0.1605	0.093
Mof_N 	N 	0.06733	0.22588	0.13977	-0.267
Mof_C 	C 	0.05428	0.19889	0.20494	-0.004
Mof_H 	H 	0.0151	0.2018	0.2005	0.028
Mof_C 	C 	0.07036	0.18803	0.22986	-0.099
Mof_H 	H 	0.0419	0.1839	0.2426	0.064
Mof_C 	C 	0.11136	0.13897	0.28085	0.06
Mof_C 	C 	0.08183	0.08675	0.27337	-0.095
Mof_H 	H 	0.083	0.0743	0.2561	0.063
Mof_C 	C 	0.05102	0.05316	0.29066	-0.011
Mof_H 	H 	0.0309	0.0181	0.2852	0.039
Mof_C 	C 	0.04949	0.07079	0.31624	-0.046
Mof_C 	C 	0.01981	0.03306	0.33407	0.097
Mof_N 	N 	0.99766	0.99936	0.34752	-0.246
Mof_C 	C 	0.07677	0.12384	0.32386	-0.005
Mof_H 	H 	0.074	0.1371	0.341	0.032
Mof_C 	C 	0.10787	0.15718	0.30649	-0.092
Mof_H 	H 	0.1271	0.1928	0.3119	0.066
Mof_C 	C 	0.24295	0.12767	0.32391	0.061
Mof_C 	C 	0.2205	0.07923	0.30968	-0.089
Mof_H 	H 	0.2231	0.0801	0.2917	0.065
Mof_C 	C 	0.19494	0.0308	0.32146	-0.012
Mof_H 	H 	0.1796	0.9984	0.3117	0.036
Mof_C 	C 	0.19167	0.02957	0.3478	-0.032
Mof_C 	C 	0.16221	0.98063	0.36037	0.071
Mof_N 	N 	0.13745	0.94262	0.37048	-0.134
Mof_C 	C 	0.21616	0.07634	0.36244	-0.009
Mof_H 	H 	0.2146	0.0747	0.3805	0.036
Mof_C 	C 	0.24208	0.12389	0.3507	-0.097
Mof_H 	H 	0.2597	0.1547	0.3606	0.076
Mof_C 	C 	0.31209	0.21786	0.32269	0.068
Mof_C 	C 	0.36074	0.19108	0.33254	-0.101
Mof_H 	H 	0.364	0.1481	0.3327	0.066
Mof_C 	C 	0.40485	0.22637	0.34213	0.002
Mof_H 	H 	0.4389	0.208	0.3482	0.019
Mof_C 	C 	0.39832	0.28955	0.34274	-0.052
Mof_C 	C 	0.44403	0.32746	0.3514	0.098
Mof_N 	N 	0.47872	0.36053	0.35788	-0.256
Mof_C 	C 	0.34829	0.31668	0.33368	0.002
Mof_H 	H 	0.3434	0.3594	0.3346	0.036
Mof_C 	C 	0.30635	0.28071	0.32338	-0.097
Mof_H 	H 	0.273	0.299	0.3166	0.067
Mof_C 	C 	0.32023	0.31441	0.26122	0.055
Mof_C 	C 	0.36591	0.27664	0.26843	-0.084
Mof_H 	H 	0.3611	0.2339	0.2687	0.062
Mof_C 	C 	0.41789	0.30182	0.27517	-0.02
Mof_H 	H 	0.4488	0.2765	0.28	0.037
Mof_C 	C 	0.42429	0.36378	0.27475	-0.022
Mof_C 	C 	0.47717	0.3918	0.28156	0.059
Mof_N 	N 	0.5193	0.41701	0.2876	-0.131
Mof_C 	C 	0.37948	0.40235	0.26766	-0.022
Mof_H 	H 	0.3843	0.4451	0.2678	0.037
Mof_C 	C 	0.32776	0.37668	0.26038	-0.088
Mof_H 	H 	0.2975	0.402	0.2548	0.061
Mof_C 	C 	0.23118	0.31538	0.23355	0.06
Mof_C 	C 	0.25721	0.3335	0.21116	-0.097
Mof_H 	H 	0.2974	0.3298	0.2094	0.063
Mof_C 	C 	0.2253	0.35691	0.19126	-0.007
Mof_H 	H 	0.2434	0.3691	0.1759	0.027
Mof_C 	C 	0.16628	0.36229	0.19402	-0.048
Mof_C 	C 	0.13103	0.38414	0.17362	0.098
Mof_N 	N 	0.10146	0.40126	0.15804	-0.255
Mof_C 	C 	0.13896	0.34484	0.21676	-0.008
Mof_H 	H 	0.0989	0.349	0.2187	0.042
Mof_C 	C 	0.17205	0.32143	0.23619	-0.089
Mof_H 	H 	0.1543	0.3093	0.2516	0.066
Mof_Cu	Cu	0.46416	0.57516	0.63644	0.866
Mof_C 	C 	0.29264	0.50669	0.47558	-0.002
Mof_Cu	Cu	0.44759	0.77392	0.60342	0.863
Mof_C 	C 	0.2475	0.55062	0.47937	-0
Mof_C 	C 	0.24403	0.50738	0.45925	-0.003
Mof_C 	C 	0.34357	0.48423	0.48336	-0.056
Mof_C 	C 	0.22599	0.59795	0.49231	-0.054
Mof_C 	C 	0.21457	0.48184	0.43971	-0.053
Mof_C 	C 	0.44274	0.35733	0.46544	-0.008
Mof_H 	H 	0.4677	0.3293	0.4734	0.031
Mof_C 	C 	0.37615	0.44072	0.4682	0.058
Mof_C 	C 	0.37165	0.44086	0.44153	-0.089
Mof_H 	H 	0.3483	0.4702	0.4334	0.068
Mof_C 	C 	0.4011	0.39851	0.42701	-0.011
Mof_H 	H 	0.3968	0.3979	0.4091	0.041
Mof_C 	C 	0.43675	0.35731	0.43883	-0.05
Mof_C 	C 	0.46719	0.31411	0.42367	0.095
Mof_N 	N 	0.49238	0.28059	0.4117	-0.25
Mof_C 	C 	0.41241	0.39783	0.47975	-0.097
Mof_H 	H 	0.4158	0.3971	0.4977	0.064
Mof_C 	C 	0.36506	0.50351	0.50871	0.06
Mof_C 	C 	0.42198	0.52018	0.51241	-0.098
Mof_H 	H 	0.4474	0.5203	0.4984	0.062
Mof_C 	C 	0.44173	0.53657	0.53625	-0.008
Mof_H 	H 	0.4805	0.5474	0.5386	0.033
Mof_C 	C 	0.40422	0.5369	0.55652	-0.051
Mof_C 	C 	0.42395	0.55208	0.5812	0.091
Mof_N 	N 	0.44053	0.56361	0.60127	-0.264
Mof_C 	C 	0.34628	0.52032	0.55322	-0.005
Mof_H 	H 	0.3207	0.5206	0.5672	0.027
Mof_C 	C 	0.32776	0.50377	0.52938	-0.094
Mof_H 	H 	0.2891	0.4924	0.527	0.065
Mof_C 	C 	0.25898	0.62984	0.51168	0.062
Mof_C 	C 	0.31803	0.64008	0.50778	-0.091
Mof_H 	H 	0.3359	0.626	0.4927	0.066
Mof_C 	C 	0.34987	0.6708	0.52602	-0.003
Mof_H 	H 	0.3893	0.6781	0.5234	0.035
Mof_C 	C 	0.32331	0.69076	0.54811	-0.052
Mof_C 	C 	0.35675	0.72361	0.56699	0.101
Mof_N 	N 	0.38328	0.74782	0.58169	-0.258
Mof_C 	C 	0.26491	0.6828	0.55163	-0.002
Mof_H 	H 	0.2467	0.699	0.5662	0.026
Mof_C 	C 	0.23425	0.65163	0.53402	-0.1
Mof_H 	H 	0.1949	0.6445	0.537	0.064
Mof_C 	C 	0.16725	0.61827	0.48705	0.054
Mof_C 	C 	0.1542	0.68074	0.48624	-0.086
Mof_H 	H 	0.1834	0.7097	0.4892	0.061
Mof_C 	C 	0.0989	0.70034	0.4812	-0.02
Mof_H 	H 	0.0906	0.7425	0.4804	0.037
Mof_C 	C 	0.0556	0.6575	0.47736	-0.027
Mof_C 	C 	0.99864	0.6802	0.47325	0.068
Mof_N 	N 	0.95335	0.697	0.46951	-0.133
Mof_C 	C 	0.06825	0.59646	0.47869	-0.015
Mof_H 	H 	0.0387	0.5677	0.4762	0.038
Mof_C 	C 	0.12249	0.5764	0.48349	-0.084
Mof_H 	H 	0.13	0.5341	0.4844	0.063
Mof_C 	C 	0.16367	0.51345	0.42964	0.06
Mof_C 	C 	0.16493	0.57557	0.4265	-0.089
Mof_H 	H 	0.1994	0.5969	0.4296	0.069
Mof_C 	C 	0.117	0.60749	0.41893	-0.007
Mof_H 	H 	0.1184	0.6503	0.417	0.041
Mof_C 	C 	0.06617	0.57548	0.41409	-0.046
Mof_C 	C 	0.0169	0.61003	0.40826	0.088
Mof_N 	N 	0.9799	0.6435	0.40423	-0.244
Mof_C 	C 	0.06473	0.51196	0.41662	-0.008
Mof_H 	H 	0.0305	0.4904	0.4133	0.031
Mof_C 	C 	0.11352	0.48083	0.42394	-0.094
Mof_H 	H 	0.1131	0.4378	0.4251	0.064
Mof_C 	C 	0.2328	0.42322	0.42944	0.055
Mof_C 	C 	0.23088	0.41046	0.40308	-0.086
Mof_H 	H 	0.2159	0.4398	0.3917	0.063
Mof_C 	C 	0.25039	0.35613	0.39392	-0.014
Mof_H 	H 	0.2498	0.3484	0.3762	0.039
Mof_C 	C 	0.27115	0.31226	0.41055	-0.027
Mof_C 	C 	0.29061	0.25538	0.40109	0.072
Mof_N 	N 	0.30602	0.2088	0.39356	-0.129
Mof_C 	C 	0.27221	0.32317	0.43666	-0.015
Mof_H 	H 	0.2858	0.2929	0.448	0.038
Mof_C 	C 	0.25336	0.3783	0.44587	-0.085
Mof_H 	H 	0.2543	0.3859	0.4636	0.064
Mof_C 	C 	0.6969	0.30171	0.72908	-0.003
Mof_C 	C 	0.74135	0.29828	0.71057	-0
Mof_C 	C 	0.74226	0.25949	0.73245	-0.003
Mof_C 	C 	0.64615	0.32641	0.73708	-0.058
Mof_C 	C 	0.76541	0.31787	0.68881	-0.058
Mof_C 	C 	0.76461	0.21274	0.74565	-0.053
Mof_C 	C 	0.62805	0.31696	0.76336	0.063
Mof_C 	C 	0.66903	0.31233	0.78264	-0.096
Mof_H 	H 	0.7081	0.3172	0.7785	0.067
Mof_C 	C 	0.65393	0.30076	0.80764	-0.001
Mof_H 	H 	0.6824	0.2972	0.8204	0.026
Mof_C 	C 	0.59689	0.29446	0.8139	-0.055
Mof_C 	C 	0.57954	0.28261	0.8395	0.093
Mof_N 	N 	0.56733	0.27412	0.86023	-0.267
Mof_C 	C 	0.55428	0.30111	0.79506	-0.004
Mof_H 	H 	0.5151	0.2982	0.7995	0.028
Mof_C 	C 	0.57036	0.31197	0.77014	-0.099
Mof_H 	H 	0.5419	0.3161	0.7574	0.064
Mof_C 	C 	0.61136	0.36103	0.71915	0.06
Mof_C 	C 	0.58183	0.41325	0.72663	-0.095
Mof_H 	H 	0.583	0.4257	0.7439	0.063
Mof_C 	C 	0.55102	0.44684	0.70934	-0.011
Mof_H 	H 	0.5309	0.4819	0.7148	0.039
Mof_C 	C 	0.54949	0.42921	0.68376	-0.046
Mof_C 	C 	0.51981	0.46694	0.66593	0.097
Mof_N 	N 	0.49766	0.50064	0.65248	-0.246
Mof_C 	C 	0.57677	0.37616	0.67614	-0.005
Mof_H 	H 	0.574	0.3629	0.659	0.032
Mof_C 	C 	0.60787	0.34282	0.69351	-0.092
Mof_H 	H 	0.6271	0.3072	0.6881	0.066
Mof_C 	C 	0.74295	0.37233	0.67609	0.061
Mof_C 	C 	0.7205	0.42077	0.69032	-0.089
Mof_H 	H 	0.7231	0.4199	0.7083	0.065
Mof_C 	C 	0.69494	0.4692	0.67854	-0.011
Mof_H 	H 	0.6796	0.5016	0.6883	0.036
Mof_C 	C 	0.69167	0.47043	0.6522	-0.032
Mof_C 	C 	0.66221	0.51937	0.63963	0.07
Mof_N 	N 	0.63745	0.55738	0.62952	-0.134
Mof_C 	C 	0.71616	0.42366	0.63756	-0.009
Mof_H 	H 	0.7146	0.4253	0.6195	0.036
Mof_C 	C 	0.74208	0.37611	0.6493	-0.097
Mof_H 	H 	0.7597	0.3453	0.6394	0.076
Mof_C 	C 	0.81209	0.28214	0.67731	0.068
Mof_C 	C 	0.86074	0.30892	0.66746	-0.101
Mof_H 	H 	0.864	0.3519	0.6673	0.066
Mof_C 	C 	0.90485	0.27363	0.65787	0.002
Mof_H 	H 	0.9389	0.292	0.6518	0.019
Mof_C 	C 	0.89832	0.21045	0.65726	-0.052
Mof_C 	C 	0.94403	0.17254	0.6486	0.098
Mof_N 	N 	0.97872	0.13947	0.64212	-0.256
Mof_C 	C 	0.84829	0.18332	0.66632	0.002
Mof_H 	H 	0.8434	0.1406	0.6654	0.036
Mof_C 	C 	0.80635	0.21929	0.67662	-0.097
Mof_H 	H 	0.773	0.201	0.6834	0.067
Mof_C 	C 	0.82023	0.18559	0.73878	0.055
Mof_C 	C 	0.86591	0.22336	0.73157	-0.084
Mof_H 	H 	0.8611	0.2661	0.7313	0.062
Mof_C 	C 	0.91789	0.19818	0.72483	-0.019
Mof_H 	H 	0.9488	0.2235	0.72	0.037
Mof_C 	C 	0.92429	0.13622	0.72525	-0.023
Mof_C 	C 	0.97717	0.1082	0.71844	0.06
Mof_N 	N 	0.0193	0.08299	0.7124	-0.131
Mof_C 	C 	0.87948	0.09765	0.73234	-0.022
Mof_H 	H 	0.8843	0.0549	0.7322	0.037
Mof_C 	C 	0.82776	0.12332	0.73962	-0.088
Mof_H 	H 	0.7975	0.098	0.7452	0.061
Mof_C 	C 	0.73118	0.18462	0.76645	0.06
Mof_C 	C 	0.75721	0.1665	0.78884	-0.097
Mof_H 	H 	0.7974	0.1702	0.7906	0.063
Mof_C 	C 	0.7253	0.14309	0.80874	-0.007
Mof_H 	H 	0.7434	0.1309	0.8241	0.027
Mof_C 	C 	0.66628	0.13771	0.80598	-0.048
Mof_C 	C 	0.63103	0.11586	0.82638	0.098
Mof_N 	N 	0.60146	0.09874	0.84196	-0.255
Mof_C 	C 	0.63896	0.15516	0.78324	-0.008
Mof_H 	H 	0.5989	0.151	0.7813	0.042
Mof_C 	C 	0.67205	0.17857	0.76381	-0.089
Mof_H 	H 	0.6543	0.1907	0.7484	0.066
Mof_Cu	Cu	0.03584	0.42484	0.13644	0.866
Mof_C 	C 	0.20736	0.49331	0.97558	-0.002
Mof_Cu	Cu	0.05241	0.22608	0.10342	0.863
Mof_C 	C 	0.2525	0.44938	0.97937	-0
Mof_C 	C 	0.25597	0.49262	0.95925	-0.003
Mof_C 	C 	0.15643	0.51577	0.98336	-0.056
Mof_C 	C 	0.27401	0.40205	0.99231	-0.054
Mof_C 	C 	0.28543	0.51816	0.93971	-0.053
Mof_C 	C 	0.05726	0.64267	0.96544	-0.008
Mof_H 	H 	0.0323	0.6707	0.9734	0.031
Mof_C 	C 	0.12385	0.55928	0.9682	0.058
Mof_C 	C 	0.12835	0.55914	0.94153	-0.089
Mof_H 	H 	0.1517	0.5298	0.9334	0.068
Mof_C 	C 	0.0989	0.60149	0.92701	-0.011
Mof_H 	H 	0.1032	0.6021	0.9091	0.041
Mof_C 	C 	0.06325	0.64269	0.93883	-0.05
Mof_C 	C 	0.03281	0.68589	0.92367	0.095
Mof_N 	N 	0.00762	0.71941	0.9117	-0.25
Mof_C 	C 	0.08759	0.60217	0.97975	-0.097
Mof_H 	H 	0.0842	0.6029	0.9977	0.064
Mof_C 	C 	0.13494	0.49649	0.00871	0.06
Mof_C 	C 	0.07802	0.47982	0.01241	-0.098
Mof_H 	H 	0.0526	0.4797	0.9984	0.062
Mof_C 	C 	0.05827	0.46343	0.03625	-0.008
Mof_H 	H 	0.0195	0.4526	0.0386	0.033
Mof_C 	C 	0.09578	0.4631	0.05652	-0.051
Mof_C 	C 	0.07605	0.44792	0.0812	0.091
Mof_N 	N 	0.05947	0.43639	0.10127	-0.264
Mof_C 	C 	0.15372	0.47968	0.05322	-0.005
Mof_H 	H 	0.1793	0.4794	0.0672	0.027
Mof_C 	C 	0.17224	0.49623	0.02938	-0.094
Mof_H 	H 	0.2109	0.5076	0.027	0.065
Mof_C 	C 	0.24102	0.37016	0.01168	0.062
Mof_C 	C 	0.18197	0.35992	0.00778	-0.091
Mof_H 	H 	0.1641	0.374	0.9927	0.066
Mof_C 	C 	0.15013	0.3292	0.02602	-0.003
Mof_H 	H 	0.1107	0.3219	0.0234	0.035
Mof_C 	C 	0.17669	0.30924	0.04811	-0.052
Mof_C 	C 	0.14325	0.27639	0.06699	0.101
Mof_N 	N 	0.11672	0.25218	0.08169	-0.258
Mof_C 	C 	0.23509	0.3172	0.05163	-0.002
Mof_H 	H 	0.2533	0.301	0.0662	0.026
Mof_C 	C 	0.26575	0.34837	0.03402	-0.1
Mof_H 	H 	0.3051	0.3555	0.037	0.064
Mof_C 	C 	0.33275	0.38173	0.98705	0.054
Mof_C 	C 	0.3458	0.31926	0.98624	-0.086
Mof_H 	H 	0.3166	0.2903	0.9892	0.061
Mof_C 	C 	0.4011	0.29966	0.9812	-0.02
Mof_H 	H 	0.4094	0.2575	0.9804	0.037
Mof_C 	C 	0.4444	0.3425	0.97736	-0.027
Mof_C 	C 	0.50136	0.3198	0.97325	0.068
Mof_N 	N 	0.54665	0.303	0.96951	-0.133
Mof_C 	C 	0.43175	0.40354	0.97869	-0.015
Mof_H 	H 	0.4613	0.4323	0.9762	0.038
Mof_C 	C 	0.37751	0.4236	0.98349	-0.084
Mof_H 	H 	0.37	0.4659	0.9844	0.063
Mof_C 	C 	0.33633	0.48655	0.92964	0.06
Mof_C 	C 	0.33507	0.42443	0.9265	-0.089
Mof_H 	H 	0.3006	0.4031	0.9296	0.069
Mof_C 	C 	0.383	0.39251	0.91893	-0.007
Mof_H 	H 	0.3816	0.3497	0.917	0.041
Mof_C 	C 	0.43383	0.42452	0.91409	-0.046
Mof_C 	C 	0.4831	0.38997	0.90826	0.088
Mof_N 	N 	0.5201	0.3565	0.90423	-0.244
Mof_C 	C 	0.43527	0.48804	0.91662	-0.008
Mof_H 	H 	0.4695	0.5096	0.9133	0.031
Mof_C 	C 	0.38648	0.51917	0.92394	-0.094
Mof_H 	H 	0.3869	0.5622	0.9251	0.064
Mof_C 	C 	0.2672	0.57678	0.92944	0.055
Mof_C 	C 	0.26912	0.58954	0.90308	-0.086
Mof_H 	H 	0.2841	0.5602	0.8917	0.063
Mof_C 	C 	0.24961	0.64387	0.89392	-0.014
Mof_H 	H 	0.2502	0.6516	0.8762	0.039
Mof_C 	C 	0.22885	0.68774	0.91055	-0.027
Mof_C 	C 	0.20939	0.74462	0.90109	0.072
Mof_N 	N 	0.19398	0.7912	0.89356	-0.129
Mof_C 	C 	0.22779	0.67683	0.93666	-0.015
Mof_H 	H 	0.2142	0.7071	0.948	0.038
Mof_C 	C 	0.24664	0.6217	0.94587	-0.085
Mof_H 	H 	0.2457	0.6141	0.9636	0.064
Mof_C 	C 	0.8031	0.69829	0.22908	-0.003
Mof_C 	C 	0.75865	0.70172	0.21057	-0
Mof_C 	C 	0.75774	0.74051	0.23245	-0.003
Mof_C 	C 	0.85385	0.67359	0.23708	-0.058
Mof_C 	C 	0.73459	0.68213	0.18881	-0.058
Mof_C 	C 	0.73539	0.78726	0.24565	-0.053
Mof_C 	C 	0.87195	0.68304	0.26336	0.063
Mof_C 	C 	0.83097	0.68767	0.28264	-0.096
Mof_H 	H 	0.7919	0.6828	0.2785	0.067
Mof_C 	C 	0.84607	0.69924	0.30764	-0.001
Mof_H 	H 	0.8176	0.7028	0.3204	0.026
Mof_C 	C 	0.90311	0.70554	0.3139	-0.055
Mof_C 	C 	0.92046	0.71739	0.3395	0.093
Mof_N 	N 	0.93267	0.72588	0.36023	-0.267
Mof_C 	C 	0.94572	0.69889	0.29506	-0.004
Mof_H 	H 	0.9849	0.7018	0.2995	0.028
Mof_C 	C 	0.92964	0.68803	0.27014	-0.099
Mof_H 	H 	0.9581	0.6839	0.2574	0.064
Mof_C 	C 	0.88864	0.63897	0.21915	0.06
Mof_C 	C 	0.91817	0.58675	0.22663	-0.095
Mof_H 	H 	0.917	0.5743	0.2439	0.063
Mof_C 	C 	0.94898	0.55316	0.20934	-0.011
Mof_H 	H 	0.9691	0.5181	0.2148	0.039
Mof_C 	C 	0.95051	0.57079	0.18376	-0.046
Mof_C 	C 	0.98019	0.53306	0.16593	0.097
Mof_N 	N 	0.00234	0.49936	0.15248	-0.246
Mof_C 	C 	0.92323	0.62384	0.17614	-0.005
Mof_H 	H 	0.926	0.6371	0.159	0.032
Mof_C 	C 	0.89213	0.65718	0.19351	-0.092
Mof_H 	H 	0.8729	0.6928	0.1881	0.066
Mof_C 	C 	0.75705	0.62767	0.17609	0.061
Mof_C 	C 	0.7795	0.57923	0.19032	-0.089
Mof_H 	H 	0.7769	0.5801	0.2083	0.065
Mof_C 	C 	0.80506	0.5308	0.17854	-0.011
Mof_H 	H 	0.8204	0.4984	0.1883	0.036
Mof_C 	C 	0.80833	0.52957	0.1522	-0.032
Mof_C 	C 	0.83779	0.48063	0.13963	0.07
Mof_N 	N 	0.86255	0.44262	0.12952	-0.134
Mof_C 	C 	0.78384	0.57634	0.13756	-0.009
Mof_H 	H 	0.7854	0.5747	0.1195	0.036
Mof_C 	C 	0.75792	0.62389	0.1493	-0.097
Mof_H 	H 	0.7403	0.6547	0.1394	0.076
Mof_C 	C 	0.68791	0.71786	0.17731	0.068
Mof_C 	C 	0.63926	0.69108	0.16746	-0.101
Mof_H 	H 	0.636	0.6481	0.1673	0.066
Mof_C 	C 	0.59515	0.72637	0.15787	0.002
Mof_H 	H 	0.5611	0.708	0.1518	0.019
Mof_C 	C 	0.60168	0.78955	0.15726	-0.052
Mof_C 	C 	0.55597	0.82746	0.1486	0.098
Mof_N 	N 	0.52128	0.86053	0.14212	-0.256
Mof_C 	C 	0.65171	0.81668	0.16632	0.002
Mof_H 	H 	0.6566	0.8594	0.1654	0.036
Mof_C 	C 	0.69365	0.78071	0.17662	-0.097
Mof_H 	H 	0.727	0.799	0.1834	0.067
Mof_C 	C 	0.67977	0.81441	0.23878	0.055
Mof_C 	C 	0.63409	0.77664	0.23157	-0.084
Mof_H 	H 	0.6389	0.7339	0.2313	0.062
Mof_C 	C 	0.58211	0.80182	0.22483	-0.02
Mof_H 	H 	0.5512	0.7765	0.22	0.037
Mof_C 	C 	0.57571	0.86378	0.22525	-0.022
Mof_C 	C 	0.52283	0.8918	0.21844	0.059
Mof_N 	N 	0.4807	0.91701	0.2124	-0.131
Mof_C 	C 	0.62052	0.90235	0.23234	-0.022
Mof_H 	H 	0.6157	0.9451	0.2322	0.037
Mof_C 	C 	0.67224	0.87668	0.23962	-0.088
Mof_H 	H 	0.7025	0.902	0.2452	0.061
Mof_C 	C 	0.76882	0.81538	0.26645	0.06
Mof_C 	C 	0.74279	0.8335	0.28884	-0.097
Mof_H 	H 	0.7026	0.8298	0.2906	0.063
Mof_C 	C 	0.7747	0.85691	0.30874	-0.007
Mof_H 	H 	0.7566	0.8691	0.3241	0.027
Mof_C 	C 	0.83372	0.86229	0.30598	-0.048
Mof_C 	C 	0.86897	0.88414	0.32638	0.098
Mof_N 	N 	0.89854	0.90126	0.34196	-0.255
Mof_C 	C 	0.86104	0.84484	0.28324	-0.008
Mof_H 	H 	0.9011	0.849	0.2813	0.042
Mof_C 	C 	0.82795	0.82143	0.26381	-0.089
Mof_H 	H 	0.8457	0.8093	0.2484	0.066
_end
