data_functionalizedCrystal
_audit_creation_method	'EQeq! by Chris Wilmer'
_symmetry_space_group_name_H-M	'P1'
_symmetry_Int_Tables_number	1
_symmetry_cell_setting	triclinic
loop_
_symmetry_equiv_pos_as_xyz
  x,y,z
_cell_length_a	26.4391
_cell_length_b	26.4391
_cell_length_c	26.4391
_cell_angle_alpha	90
_cell_angle_beta	90
_cell_angle_gamma	90
loop_
_atom_site_label
_atom_site_type_symbol
_atom_site_fract_x
_atom_site_fract_y
_atom_site_fract_z
_atom_site_charge
Mof_O 	O 	0.3389	0.972	0.0075	-0.345
Mof_O 	O 	0.4212	0.9826	0.0118	-0.218
Mof_C 	C 	0.3771	0.0004	0.007	0.177
Mof_C 	C 	0.3701	0.0567	0.0033	-0.229
Mof_H 	H 	0.3844	0.073	0.0329	0.091
Mof_H 	H 	0.3874	0.0695	0.9736	0.173
Mof_O 	O 	0.3389	0.472	0.5075	-0.545
Mof_O 	O 	0.4212	0.4826	0.5118	-0.385
Mof_C 	C 	0.3771	0.5004	0.507	0.436
Mof_C 	C 	0.3701	0.5567	0.5033	-0.185
Mof_H 	H 	0.3844	0.573	0.5329	0.087
Mof_H 	H 	0.3874	0.5695	0.4736	0.088
Mof_O 	O 	0.8389	0.972	0.5075	-0.345
Mof_O 	O 	0.9212	0.9826	0.5118	-0.157
Mof_C 	C 	0.8771	0.0004	0.507	0.141
Mof_C 	C 	0.8701	0.0567	0.5033	-0.043
Mof_H 	H 	0.8844	0.073	0.5329	0.045
Mof_H 	H 	0.8874	0.0695	0.4736	0.051
Mof_O 	O 	0.8389	0.472	0.0075	-0.535
Mof_O 	O 	0.9212	0.4826	0.0118	-0.356
Mof_C 	C 	0.8771	0.5004	0.007	0.451
Mof_C 	C 	0.8701	0.5567	0.0033	-0.356
Mof_H 	H 	0.8844	0.573	0.0329	0.132
Mof_H 	H 	0.8874	0.5695	0.9736	0.214
Mof_O 	O 	0.9111	0.778	0.5075	-0.479
Mof_O 	O 	0.8288	0.7674	0.5118	-0.378
Mof_C 	C 	0.8729	0.7496	0.507	0.431
Mof_C 	C 	0.8799	0.6933	0.5033	-0.213
Mof_H 	H 	0.8656	0.677	0.5329	0.097
Mof_H 	H 	0.8626	0.6805	0.4736	0.099
Mof_O 	O 	0.9111	0.278	0.0075	-0.479
Mof_O 	O 	0.8288	0.2674	0.0118	-0.4
Mof_C 	C 	0.8729	0.2496	0.007	0.462
Mof_C 	C 	0.8799	0.1933	0.0033	-0.396
Mof_H 	H 	0.8656	0.177	0.0329	0.144
Mof_H 	H 	0.8626	0.1805	0.9736	0.224
Mof_O 	O 	0.4111	0.778	0.0075	-0.542
Mof_O 	O 	0.3288	0.7674	0.0118	-0.404
Mof_C 	C 	0.3729	0.7496	0.007	0.467
Mof_C 	C 	0.3799	0.6933	0.0033	-0.368
Mof_H 	H 	0.3656	0.677	0.0329	0.133
Mof_H 	H 	0.3626	0.6805	0.9736	0.214
Mof_O 	O 	0.4111	0.278	0.5075	-0.545
Mof_O 	O 	0.3288	0.2674	0.5118	-0.384
Mof_C 	C 	0.3729	0.2496	0.507	0.437
Mof_C 	C 	0.3799	0.1933	0.5033	-0.187
Mof_H 	H 	0.3656	0.177	0.5329	0.088
Mof_H 	H 	0.3626	0.1805	0.4736	0.09
Mof_O 	O 	0.4111	0.472	0.2425	-0.544
Mof_O 	O 	0.3288	0.4826	0.2382	-0.384
Mof_C 	C 	0.3729	0.5004	0.243	0.436
Mof_C 	C 	0.3799	0.5567	0.2467	-0.186
Mof_H 	H 	0.3656	0.573	0.2171	0.087
Mof_H 	H 	0.3626	0.5695	0.2764	0.089
Mof_O 	O 	0.4111	0.972	0.7425	-0.35
Mof_O 	O 	0.3288	0.9826	0.7382	-0.2
Mof_C 	C 	0.3729	0.0004	0.743	0.152
Mof_C 	C 	0.3799	0.0567	0.7467	-0.049
Mof_H 	H 	0.3656	0.073	0.7171	0.045
Mof_H 	H 	0.3626	0.0695	0.7764	0.048
Mof_O 	O 	0.9111	0.472	0.7425	-0.48
Mof_O 	O 	0.8288	0.4826	0.7382	-0.378
Mof_C 	C 	0.8729	0.5004	0.743	0.432
Mof_C 	C 	0.8799	0.5567	0.7467	-0.213
Mof_H 	H 	0.8656	0.573	0.7171	0.097
Mof_H 	H 	0.8626	0.5695	0.7764	0.1
Mof_O 	O 	0.9111	0.972	0.2425	-0.288
Mof_O 	O 	0.8288	0.9826	0.2382	-0.197
Mof_C 	C 	0.8729	0.0004	0.243	0.148
Mof_C 	C 	0.8799	0.0567	0.2467	-0.078
Mof_H 	H 	0.8656	0.073	0.2171	0.056
Mof_H 	H 	0.8626	0.0695	0.2764	0.058
Mof_O 	O 	0.8389	0.278	0.7425	-0.535
Mof_O 	O 	0.9212	0.2674	0.7382	-0.336
Mof_C 	C 	0.8771	0.2496	0.743	0.423
Mof_C 	C 	0.8701	0.1933	0.7467	-0.18
Mof_H 	H 	0.8844	0.177	0.7171	0.088
Mof_H 	H 	0.8874	0.1805	0.7764	0.095
Mof_O 	O 	0.8389	0.778	0.2425	-0.533
Mof_O 	O 	0.9212	0.7674	0.2382	-0.334
Mof_C 	C 	0.8771	0.7496	0.243	0.421
Mof_C 	C 	0.8701	0.6933	0.2467	-0.178
Mof_H 	H 	0.8844	0.677	0.2171	0.087
Mof_H 	H 	0.8874	0.6805	0.2764	0.092
Mof_O 	O 	0.3389	0.278	0.2425	-0.544
Mof_O 	O 	0.4212	0.2674	0.2382	-0.384
Mof_C 	C 	0.3771	0.2496	0.243	0.437
Mof_C 	C 	0.3701	0.1933	0.2467	-0.187
Mof_H 	H 	0.3844	0.177	0.2171	0.089
Mof_H 	H 	0.3874	0.1805	0.2764	0.09
Mof_O 	O 	0.3389	0.778	0.7425	-0.541
Mof_O 	O 	0.4212	0.7674	0.7382	-0.382
Mof_C 	C 	0.3771	0.7496	0.743	0.437
Mof_C 	C 	0.3701	0.6933	0.7467	-0.186
Mof_H 	H 	0.3844	0.677	0.7171	0.087
Mof_H 	H 	0.3874	0.6805	0.7764	0.09
Mof_O 	O 	0.0075	0.3389	0.972	-0.346
Mof_O 	O 	0.0118	0.4212	0.9826	-0.219
Mof_C 	C 	0.007	0.3771	0.0004	0.176
Mof_C 	C 	0.0033	0.3701	0.0567	-0.23
Mof_H 	H 	0.0329	0.3844	0.073	0.091
Mof_H 	H 	0.9736	0.3874	0.0695	0.173
Mof_O 	O 	0.0075	0.8389	0.472	-0.535
Mof_O 	O 	0.0118	0.9212	0.4826	-0.356
Mof_C 	C 	0.007	0.8771	0.5004	0.451
Mof_C 	C 	0.0033	0.8701	0.5567	-0.356
Mof_H 	H 	0.0329	0.8844	0.573	0.132
Mof_H 	H 	0.9736	0.8874	0.5695	0.214
Mof_O 	O 	0.5075	0.3389	0.472	-0.545
Mof_O 	O 	0.5118	0.4212	0.4826	-0.385
Mof_C 	C 	0.507	0.3771	0.5004	0.436
Mof_C 	C 	0.5033	0.3701	0.5567	-0.185
Mof_H 	H 	0.5329	0.3844	0.573	0.087
Mof_H 	H 	0.4736	0.3874	0.5695	0.088
Mof_O 	O 	0.5075	0.8389	0.972	-0.345
Mof_O 	O 	0.5118	0.9212	0.9826	-0.157
Mof_C 	C 	0.507	0.8771	0.0004	0.141
Mof_C 	C 	0.5033	0.8701	0.0567	-0.043
Mof_H 	H 	0.5329	0.8844	0.073	0.045
Mof_H 	H 	0.4736	0.8874	0.0695	0.051
Mof_O 	O 	0.5075	0.9111	0.778	-0.479
Mof_O 	O 	0.5118	0.8288	0.7674	-0.378
Mof_C 	C 	0.507	0.8729	0.7496	0.431
Mof_C 	C 	0.5033	0.8799	0.6933	-0.213
Mof_H 	H 	0.5329	0.8656	0.677	0.097
Mof_H 	H 	0.4736	0.8626	0.6805	0.099
Mof_O 	O 	0.5075	0.4111	0.278	-0.545
Mof_O 	O 	0.5118	0.3288	0.2674	-0.384
Mof_C 	C 	0.507	0.3729	0.2496	0.437
Mof_C 	C 	0.5033	0.3799	0.1933	-0.187
Mof_H 	H 	0.5329	0.3656	0.177	0.088
Mof_H 	H 	0.4736	0.3626	0.1805	0.09
Mof_O 	O 	0.0075	0.9111	0.278	-0.479
Mof_O 	O 	0.0118	0.8288	0.2674	-0.4
Mof_C 	C 	0.007	0.8729	0.2496	0.462
Mof_C 	C 	0.0033	0.8799	0.1933	-0.396
Mof_H 	H 	0.0329	0.8656	0.177	0.144
Mof_H 	H 	0.9736	0.8626	0.1805	0.224
Mof_O 	O 	0.0075	0.4111	0.778	-0.542
Mof_O 	O 	0.0118	0.3288	0.7674	-0.404
Mof_C 	C 	0.007	0.3729	0.7496	0.467
Mof_C 	C 	0.0033	0.3799	0.6933	-0.368
Mof_H 	H 	0.0329	0.3656	0.677	0.133
Mof_H 	H 	0.9736	0.3626	0.6805	0.214
Mof_O 	O 	0.2425	0.4111	0.472	-0.544
Mof_O 	O 	0.2382	0.3288	0.4826	-0.384
Mof_C 	C 	0.243	0.3729	0.5004	0.436
Mof_C 	C 	0.2467	0.3799	0.5567	-0.186
Mof_H 	H 	0.2171	0.3656	0.573	0.087
Mof_H 	H 	0.2764	0.3626	0.5695	0.089
Mof_O 	O 	0.2425	0.9111	0.972	-0.288
Mof_O 	O 	0.2382	0.8288	0.9826	-0.197
Mof_C 	C 	0.243	0.8729	0.0004	0.148
Mof_C 	C 	0.2467	0.8799	0.0567	-0.078
Mof_H 	H 	0.2171	0.8656	0.073	0.056
Mof_H 	H 	0.2764	0.8626	0.0695	0.058
Mof_O 	O 	0.7425	0.4111	0.972	-0.35
Mof_O 	O 	0.7382	0.3288	0.9826	-0.2
Mof_C 	C 	0.743	0.3729	0.0004	0.152
Mof_C 	C 	0.7467	0.3799	0.0567	-0.049
Mof_H 	H 	0.7171	0.3656	0.073	0.045
Mof_H 	H 	0.7764	0.3626	0.0695	0.048
Mof_O 	O 	0.7425	0.9111	0.472	-0.48
Mof_O 	O 	0.7382	0.8288	0.4826	-0.378
Mof_C 	C 	0.743	0.8729	0.5004	0.432
Mof_C 	C 	0.7467	0.8799	0.5567	-0.213
Mof_H 	H 	0.7171	0.8656	0.573	0.097
Mof_H 	H 	0.7764	0.8626	0.5695	0.1
Mof_O 	O 	0.7425	0.8389	0.278	-0.535
Mof_O 	O 	0.7382	0.9212	0.2674	-0.336
Mof_C 	C 	0.743	0.8771	0.2496	0.423
Mof_C 	C 	0.7467	0.8701	0.1933	-0.18
Mof_H 	H 	0.7171	0.8844	0.177	0.088
Mof_H 	H 	0.7764	0.8874	0.1805	0.095
Mof_O 	O 	0.7425	0.3389	0.778	-0.541
Mof_O 	O 	0.7382	0.4212	0.7674	-0.382
Mof_C 	C 	0.743	0.3771	0.7496	0.437
Mof_C 	C 	0.7467	0.3701	0.6933	-0.186
Mof_H 	H 	0.7171	0.3844	0.677	0.087
Mof_H 	H 	0.7764	0.3874	0.6805	0.09
Mof_O 	O 	0.2425	0.8389	0.778	-0.533
Mof_O 	O 	0.2382	0.9212	0.7674	-0.334
Mof_C 	C 	0.243	0.8771	0.7496	0.421
Mof_C 	C 	0.2467	0.8701	0.6933	-0.178
Mof_H 	H 	0.2171	0.8844	0.677	0.087
Mof_H 	H 	0.2764	0.8874	0.6805	0.092
Mof_O 	O 	0.2425	0.3389	0.278	-0.544
Mof_O 	O 	0.2382	0.4212	0.2674	-0.384
Mof_C 	C 	0.243	0.3771	0.2496	0.437
Mof_C 	C 	0.2467	0.3701	0.1933	-0.187
Mof_H 	H 	0.2171	0.3844	0.177	0.089
Mof_H 	H 	0.2764	0.3874	0.1805	0.09
Mof_O 	O 	0.972	0.0075	0.3389	-0.346
Mof_O 	O 	0.9826	0.0118	0.4212	-0.219
Mof_C 	C 	0.0004	0.007	0.3771	0.176
Mof_C 	C 	0.0567	0.0033	0.3701	-0.23
Mof_H 	H 	0.073	0.0329	0.3844	0.091
Mof_H 	H 	0.0695	0.9736	0.3874	0.173
Mof_O 	O 	0.972	0.5075	0.8389	-0.345
Mof_O 	O 	0.9826	0.5118	0.9212	-0.157
Mof_C 	C 	0.0004	0.507	0.8771	0.141
Mof_C 	C 	0.0567	0.5033	0.8701	-0.043
Mof_H 	H 	0.073	0.5329	0.8844	0.045
Mof_H 	H 	0.0695	0.4736	0.8874	0.051
Mof_O 	O 	0.472	0.0075	0.8389	-0.535
Mof_O 	O 	0.4826	0.0118	0.9212	-0.356
Mof_C 	C 	0.5004	0.007	0.8771	0.451
Mof_C 	C 	0.5567	0.0033	0.8701	-0.356
Mof_H 	H 	0.573	0.0329	0.8844	0.132
Mof_H 	H 	0.5695	0.9736	0.8874	0.214
Mof_O 	O 	0.472	0.5075	0.3389	-0.545
Mof_O 	O 	0.4826	0.5118	0.4212	-0.385
Mof_C 	C 	0.5004	0.507	0.3771	0.436
Mof_C 	C 	0.5567	0.5033	0.3701	-0.185
Mof_H 	H 	0.573	0.5329	0.3844	0.087
Mof_H 	H 	0.5695	0.4736	0.3874	0.088
Mof_O 	O 	0.778	0.5075	0.9111	-0.479
Mof_O 	O 	0.7674	0.5118	0.8288	-0.378
Mof_C 	C 	0.7496	0.507	0.8729	0.431
Mof_C 	C 	0.6933	0.5033	0.8799	-0.213
Mof_H 	H 	0.677	0.5329	0.8656	0.097
Mof_H 	H 	0.6805	0.4736	0.8626	0.099
Mof_O 	O 	0.778	0.0075	0.4111	-0.542
Mof_O 	O 	0.7674	0.0118	0.3288	-0.404
Mof_C 	C 	0.7496	0.007	0.3729	0.467
Mof_C 	C 	0.6933	0.0033	0.3799	-0.368
Mof_H 	H 	0.677	0.0329	0.3656	0.133
Mof_H 	H 	0.6805	0.9736	0.3626	0.214
Mof_O 	O 	0.278	0.5075	0.4111	-0.545
Mof_O 	O 	0.2674	0.5118	0.3288	-0.384
Mof_C 	C 	0.2496	0.507	0.3729	0.437
Mof_C 	C 	0.1933	0.5033	0.3799	-0.187
Mof_H 	H 	0.177	0.5329	0.3656	0.088
Mof_H 	H 	0.1805	0.4736	0.3626	0.09
Mof_O 	O 	0.278	0.0075	0.9111	-0.479
Mof_O 	O 	0.2674	0.0118	0.8288	-0.4
Mof_C 	C 	0.2496	0.007	0.8729	0.462
Mof_C 	C 	0.1933	0.0033	0.8799	-0.396
Mof_H 	H 	0.177	0.0329	0.8656	0.144
Mof_H 	H 	0.1805	0.9736	0.8626	0.224
Mof_O 	O 	0.472	0.2425	0.4111	-0.544
Mof_O 	O 	0.4826	0.2382	0.3288	-0.384
Mof_C 	C 	0.5004	0.243	0.3729	0.436
Mof_C 	C 	0.5567	0.2467	0.3799	-0.186
Mof_H 	H 	0.573	0.2171	0.3656	0.087
Mof_H 	H 	0.5695	0.2764	0.3626	0.089
Mof_O 	O 	0.472	0.7425	0.9111	-0.48
Mof_O 	O 	0.4826	0.7382	0.8288	-0.378
Mof_C 	C 	0.5004	0.743	0.8729	0.432
Mof_C 	C 	0.5567	0.7467	0.8799	-0.213
Mof_H 	H 	0.573	0.7171	0.8656	0.097
Mof_H 	H 	0.5695	0.7764	0.8626	0.1
Mof_O 	O 	0.972	0.2425	0.9111	-0.288
Mof_O 	O 	0.9826	0.2382	0.8288	-0.197
Mof_C 	C 	0.0004	0.243	0.8729	0.148
Mof_C 	C 	0.0567	0.2467	0.8799	-0.078
Mof_H 	H 	0.073	0.2171	0.8656	0.056
Mof_H 	H 	0.0695	0.2764	0.8626	0.058
Mof_O 	O 	0.972	0.7425	0.4111	-0.35
Mof_O 	O 	0.9826	0.7382	0.3288	-0.2
Mof_C 	C 	0.0004	0.743	0.3729	0.152
Mof_C 	C 	0.0567	0.7467	0.3799	-0.049
Mof_H 	H 	0.073	0.7171	0.3656	0.045
Mof_H 	H 	0.0695	0.7764	0.3626	0.048
Mof_O 	O 	0.278	0.7425	0.8389	-0.535
Mof_O 	O 	0.2674	0.7382	0.9212	-0.336
Mof_C 	C 	0.2496	0.743	0.8771	0.423
Mof_C 	C 	0.1933	0.7467	0.8701	-0.18
Mof_H 	H 	0.177	0.7171	0.8844	0.088
Mof_H 	H 	0.1805	0.7764	0.8874	0.095
Mof_O 	O 	0.278	0.2425	0.3389	-0.544
Mof_O 	O 	0.2674	0.2382	0.4212	-0.384
Mof_C 	C 	0.2496	0.243	0.3771	0.437
Mof_C 	C 	0.1933	0.2467	0.3701	-0.187
Mof_H 	H 	0.177	0.2171	0.3844	0.089
Mof_H 	H 	0.1805	0.2764	0.3874	0.09
Mof_O 	O 	0.778	0.7425	0.3389	-0.541
Mof_O 	O 	0.7674	0.7382	0.4212	-0.382
Mof_C 	C 	0.7496	0.743	0.3771	0.437
Mof_C 	C 	0.6933	0.7467	0.3701	-0.186
Mof_H 	H 	0.677	0.7171	0.3844	0.087
Mof_H 	H 	0.6805	0.7764	0.3874	0.09
Mof_O 	O 	0.778	0.2425	0.8389	-0.533
Mof_O 	O 	0.7674	0.2382	0.9212	-0.334
Mof_C 	C 	0.7496	0.243	0.8771	0.421
Mof_C 	C 	0.6933	0.2467	0.8701	-0.178
Mof_H 	H 	0.677	0.2171	0.8844	0.087
Mof_H 	H 	0.6805	0.2764	0.8874	0.092
Mof_O 	O 	0.722	0.5889	0.9925	-0.434
Mof_O 	O 	0.7326	0.6712	0.9882	-0.294
Mof_C 	C 	0.7504	0.6271	0.993	0.328
Mof_C 	C 	0.8067	0.6201	0.9967	0.183
Mof_H 	H 	0.823	0.6344	0.9671	0.001
Mof_H 	H 	0.8195	0.6374	0.0264	-0.075
Mof_O 	O 	0.722	0.0889	0.4925	-0.519
Mof_O 	O 	0.7326	0.1712	0.4882	-0.383
Mof_C 	C 	0.7504	0.1271	0.493	0.429
Mof_C 	C 	0.8067	0.1201	0.4967	-0.174
Mof_H 	H 	0.823	0.1344	0.4671	0.088
Mof_H 	H 	0.8195	0.1374	0.5264	0.087
Mof_O 	O 	0.222	0.5889	0.4925	-0.546
Mof_O 	O 	0.2326	0.6712	0.4882	-0.385
Mof_C 	C 	0.2504	0.6271	0.493	0.436
Mof_C 	C 	0.3067	0.6201	0.4967	-0.186
Mof_H 	H 	0.323	0.6344	0.4671	0.087
Mof_H 	H 	0.3195	0.6374	0.5264	0.088
Mof_O 	O 	0.222	0.0889	0.9925	-0.403
Mof_O 	O 	0.2326	0.1712	0.9882	-0.288
Mof_C 	C 	0.2504	0.1271	0.993	0.315
Mof_C 	C 	0.3067	0.1201	0.9967	0.216
Mof_H 	H 	0.323	0.1344	0.9671	-0.008
Mof_H 	H 	0.3195	0.1374	0.0264	-0.087
Mof_O 	O 	0.528	0.1611	0.4925	-0.547
Mof_O 	O 	0.5174	0.0788	0.4882	-0.381
Mof_C 	C 	0.4996	0.1229	0.493	0.436
Mof_C 	C 	0.4433	0.1299	0.4967	-0.187
Mof_H 	H 	0.427	0.1156	0.4671	0.091
Mof_H 	H 	0.4305	0.1126	0.5264	0.091
Mof_O 	O 	0.528	0.6611	0.9925	-0.433
Mof_O 	O 	0.5174	0.5788	0.9882	-0.292
Mof_C 	C 	0.4996	0.6229	0.993	0.325
Mof_C 	C 	0.4433	0.6299	0.9967	0.193
Mof_H 	H 	0.427	0.6156	0.9671	-0.004
Mof_H 	H 	0.4305	0.6126	0.0264	-0.08
Mof_O 	O 	0.028	0.1611	0.9925	-0.536
Mof_O 	O 	0.0174	0.0788	0.9882	-0.413
Mof_C 	C 	0.9996	0.1229	0.993	0.584
Mof_C 	C 	0.9433	0.1299	0.9967	0.041
Mof_H 	H 	0.927	0.1156	0.9671	0.054
Mof_H 	H 	0.9305	0.1126	0.0264	-0.023
Mof_O 	O 	0.028	0.6611	0.4925	-0.652
Mof_O 	O 	0.0174	0.5788	0.4882	-0.513
Mof_C 	C 	0.9996	0.6229	0.493	0.7
Mof_C 	C 	0.9433	0.6299	0.4967	-0.333
Mof_H 	H 	0.927	0.6156	0.4671	0.141
Mof_H 	H 	0.9305	0.6126	0.5264	0.14
Mof_O 	O 	0.222	0.6611	0.7575	-0.546
Mof_O 	O 	0.2326	0.5788	0.7618	-0.385
Mof_C 	C 	0.2504	0.6229	0.757	0.436
Mof_C 	C 	0.3067	0.6299	0.7533	-0.186
Mof_H 	H 	0.323	0.6156	0.7829	0.088
Mof_H 	H 	0.3195	0.6126	0.7236	0.088
Mof_O 	O 	0.222	0.1611	0.2575	-0.548
Mof_O 	O 	0.2326	0.0788	0.2618	-0.382
Mof_C 	C 	0.2504	0.1229	0.257	0.436
Mof_C 	C 	0.3067	0.1299	0.2533	-0.187
Mof_H 	H 	0.323	0.1156	0.2829	0.091
Mof_H 	H 	0.3195	0.1126	0.2236	0.091
Mof_O 	O 	0.722	0.6611	0.2575	-0.546
Mof_O 	O 	0.7326	0.5788	0.2618	-0.385
Mof_C 	C 	0.7504	0.6229	0.257	0.436
Mof_C 	C 	0.8067	0.6299	0.2533	-0.187
Mof_H 	H 	0.823	0.6156	0.2829	0.09
Mof_H 	H 	0.8195	0.6126	0.2236	0.089
Mof_O 	O 	0.722	0.1611	0.7575	-0.547
Mof_O 	O 	0.7326	0.0788	0.7618	-0.382
Mof_C 	C 	0.7504	0.1229	0.757	0.437
Mof_C 	C 	0.8067	0.1299	0.7533	-0.189
Mof_H 	H 	0.823	0.1156	0.7829	0.094
Mof_H 	H 	0.8195	0.1126	0.7236	0.092
Mof_O 	O 	0.028	0.0889	0.2575	-0.629
Mof_O 	O 	0.0174	0.1712	0.2618	-0.515
Mof_C 	C 	0.9996	0.1271	0.257	0.699
Mof_C 	C 	0.9433	0.1201	0.2533	-0.324
Mof_H 	H 	0.927	0.1344	0.2829	0.14
Mof_H 	H 	0.9305	0.1374	0.2236	0.139
Mof_O 	O 	0.028	0.5889	0.7575	-0.651
Mof_O 	O 	0.0174	0.6712	0.7618	-0.511
Mof_C 	C 	0.9996	0.6271	0.757	0.695
Mof_C 	C 	0.9433	0.6201	0.7533	-0.331
Mof_H 	H 	0.927	0.6344	0.7829	0.14
Mof_H 	H 	0.9305	0.6374	0.7236	0.14
Mof_O 	O 	0.528	0.0889	0.7575	-0.519
Mof_O 	O 	0.5174	0.1712	0.7618	-0.383
Mof_C 	C 	0.4996	0.1271	0.757	0.429
Mof_C 	C 	0.4433	0.1201	0.7533	-0.173
Mof_H 	H 	0.427	0.1344	0.7829	0.086
Mof_H 	H 	0.4305	0.1374	0.7236	0.086
Mof_O 	O 	0.528	0.5889	0.2575	-0.546
Mof_O 	O 	0.5174	0.6712	0.2618	-0.385
Mof_C 	C 	0.4996	0.6271	0.257	0.436
Mof_C 	C 	0.4433	0.6201	0.2533	-0.186
Mof_H 	H 	0.427	0.6344	0.2829	0.087
Mof_H 	H 	0.4305	0.6374	0.2236	0.088
Mof_O 	O 	0.0889	0.2575	0.028	-0.629
Mof_O 	O 	0.1712	0.2618	0.0174	-0.515
Mof_C 	C 	0.1271	0.257	0.9996	0.699
Mof_C 	C 	0.1201	0.2533	0.9433	-0.324
Mof_H 	H 	0.1344	0.2829	0.927	0.14
Mof_H 	H 	0.1374	0.2236	0.9305	0.139
Mof_O 	O 	0.0889	0.7575	0.528	-0.519
Mof_O 	O 	0.1712	0.7618	0.5174	-0.383
Mof_C 	C 	0.1271	0.757	0.4996	0.429
Mof_C 	C 	0.1201	0.7533	0.4433	-0.173
Mof_H 	H 	0.1344	0.7829	0.427	0.086
Mof_H 	H 	0.1374	0.7236	0.4305	0.086
Mof_O 	O 	0.5889	0.2575	0.528	-0.546
Mof_O 	O 	0.6712	0.2618	0.5174	-0.385
Mof_C 	C 	0.6271	0.257	0.4996	0.436
Mof_C 	C 	0.6201	0.2533	0.4433	-0.186
Mof_H 	H 	0.6344	0.2829	0.427	0.087
Mof_H 	H 	0.6374	0.2236	0.4305	0.088
Mof_O 	O 	0.5889	0.7575	0.028	-0.651
Mof_O 	O 	0.6712	0.7618	0.0174	-0.511
Mof_C 	C 	0.6271	0.757	0.9996	0.695
Mof_C 	C 	0.6201	0.7533	0.9433	-0.331
Mof_H 	H 	0.6344	0.7829	0.927	0.14
Mof_H 	H 	0.6374	0.7236	0.9305	0.14
Mof_O 	O 	0.6611	0.7575	0.222	-0.546
Mof_O 	O 	0.5788	0.7618	0.2326	-0.385
Mof_C 	C 	0.6229	0.757	0.2504	0.436
Mof_C 	C 	0.6299	0.7533	0.3067	-0.186
Mof_H 	H 	0.6156	0.7829	0.323	0.088
Mof_H 	H 	0.6126	0.7236	0.3195	0.088
Mof_O 	O 	0.6611	0.2575	0.722	-0.546
Mof_O 	O 	0.5788	0.2618	0.7326	-0.385
Mof_C 	C 	0.6229	0.257	0.7504	0.436
Mof_C 	C 	0.6299	0.2533	0.8067	-0.187
Mof_H 	H 	0.6156	0.2829	0.823	0.09
Mof_H 	H 	0.6126	0.2236	0.8195	0.089
Mof_O 	O 	0.1611	0.7575	0.722	-0.547
Mof_O 	O 	0.0788	0.7618	0.7326	-0.382
Mof_C 	C 	0.1229	0.757	0.7504	0.437
Mof_C 	C 	0.1299	0.7533	0.8067	-0.189
Mof_H 	H 	0.1156	0.7829	0.823	0.094
Mof_H 	H 	0.1126	0.7236	0.8195	0.092
Mof_O 	O 	0.1611	0.2575	0.222	-0.548
Mof_O 	O 	0.0788	0.2618	0.2326	-0.382
Mof_C 	C 	0.1229	0.257	0.2504	0.436
Mof_C 	C 	0.1299	0.2533	0.3067	-0.187
Mof_H 	H 	0.1156	0.2829	0.323	0.091
Mof_H 	H 	0.1126	0.2236	0.3195	0.091
Mof_O 	O 	0.1611	0.4925	0.528	-0.547
Mof_O 	O 	0.0788	0.4882	0.5174	-0.381
Mof_C 	C 	0.1229	0.493	0.4996	0.436
Mof_C 	C 	0.1299	0.4967	0.4433	-0.187
Mof_H 	H 	0.1156	0.4671	0.427	0.091
Mof_H 	H 	0.1126	0.5264	0.4305	0.091
Mof_O 	O 	0.1611	0.9925	0.028	-0.536
Mof_O 	O 	0.0788	0.9882	0.0174	-0.413
Mof_C 	C 	0.1229	0.993	0.9996	0.584
Mof_C 	C 	0.1299	0.9967	0.9433	0.041
Mof_H 	H 	0.1156	0.9671	0.927	0.054
Mof_H 	H 	0.1126	0.0264	0.9305	-0.023
Mof_O 	O 	0.6611	0.4925	0.028	-0.652
Mof_O 	O 	0.5788	0.4882	0.0174	-0.513
Mof_C 	C 	0.6229	0.493	0.9996	0.7
Mof_C 	C 	0.6299	0.4967	0.9433	-0.333
Mof_H 	H 	0.6156	0.4671	0.927	0.141
Mof_H 	H 	0.6126	0.5264	0.9305	0.14
Mof_O 	O 	0.6611	0.9925	0.528	-0.433
Mof_O 	O 	0.5788	0.9882	0.5174	-0.292
Mof_C 	C 	0.6229	0.993	0.4996	0.325
Mof_C 	C 	0.6299	0.9967	0.4433	0.193
Mof_H 	H 	0.6156	0.9671	0.427	-0.004
Mof_H 	H 	0.6126	0.0264	0.4305	-0.08
Mof_O 	O 	0.5889	0.9925	0.722	-0.434
Mof_O 	O 	0.6712	0.9882	0.7326	-0.294
Mof_C 	C 	0.6271	0.993	0.7504	0.328
Mof_C 	C 	0.6201	0.9967	0.8067	0.183
Mof_H 	H 	0.6344	0.9671	0.823	0.001
Mof_H 	H 	0.6374	0.0264	0.8195	-0.075
Mof_O 	O 	0.5889	0.4925	0.222	-0.546
Mof_O 	O 	0.6712	0.4882	0.2326	-0.385
Mof_C 	C 	0.6271	0.493	0.2504	0.436
Mof_C 	C 	0.6201	0.4967	0.3067	-0.186
Mof_H 	H 	0.6344	0.4671	0.323	0.087
Mof_H 	H 	0.6374	0.5264	0.3195	0.088
Mof_O 	O 	0.0889	0.9925	0.222	-0.403
Mof_O 	O 	0.1712	0.9882	0.2326	-0.288
Mof_C 	C 	0.1271	0.993	0.2504	0.315
Mof_C 	C 	0.1201	0.9967	0.3067	0.216
Mof_H 	H 	0.1344	0.9671	0.323	-0.008
Mof_H 	H 	0.1374	0.0264	0.3195	-0.087
Mof_O 	O 	0.0889	0.4925	0.722	-0.519
Mof_O 	O 	0.1712	0.4882	0.7326	-0.383
Mof_C 	C 	0.1271	0.493	0.7504	0.429
Mof_C 	C 	0.1201	0.4967	0.8067	-0.174
Mof_H 	H 	0.1344	0.4671	0.823	0.088
Mof_H 	H 	0.1374	0.5264	0.8195	0.087
Mof_O 	O 	0.7575	0.222	0.6611	-0.546
Mof_O 	O 	0.7618	0.2326	0.5788	-0.385
Mof_C 	C 	0.757	0.2504	0.6229	0.436
Mof_C 	C 	0.7533	0.3067	0.6299	-0.186
Mof_H 	H 	0.7829	0.323	0.6156	0.088
Mof_H 	H 	0.7236	0.3195	0.6126	0.088
Mof_O 	O 	0.7575	0.722	0.1611	-0.547
Mof_O 	O 	0.7618	0.7326	0.0788	-0.382
Mof_C 	C 	0.757	0.7504	0.1229	0.437
Mof_C 	C 	0.7533	0.8067	0.1299	-0.189
Mof_H 	H 	0.7829	0.823	0.1156	0.094
Mof_H 	H 	0.7236	0.8195	0.1126	0.092
Mof_O 	O 	0.2575	0.222	0.1611	-0.548
Mof_O 	O 	0.2618	0.2326	0.0788	-0.382
Mof_C 	C 	0.257	0.2504	0.1229	0.436
Mof_C 	C 	0.2533	0.3067	0.1299	-0.187
Mof_H 	H 	0.2829	0.323	0.1156	0.091
Mof_H 	H 	0.2236	0.3195	0.1126	0.091
Mof_O 	O 	0.2575	0.722	0.6611	-0.546
Mof_O 	O 	0.2618	0.7326	0.5788	-0.385
Mof_C 	C 	0.257	0.7504	0.6229	0.436
Mof_C 	C 	0.2533	0.8067	0.6299	-0.187
Mof_H 	H 	0.2829	0.823	0.6156	0.09
Mof_H 	H 	0.2236	0.8195	0.6126	0.089
Mof_O 	O 	0.2575	0.028	0.0889	-0.629
Mof_O 	O 	0.2618	0.0174	0.1712	-0.515
Mof_C 	C 	0.257	0.9996	0.1271	0.699
Mof_C 	C 	0.2533	0.9433	0.1201	-0.324
Mof_H 	H 	0.2829	0.927	0.1344	0.14
Mof_H 	H 	0.2236	0.9305	0.1374	0.139
Mof_O 	O 	0.2575	0.528	0.5889	-0.546
Mof_O 	O 	0.2618	0.5174	0.6712	-0.385
Mof_C 	C 	0.257	0.4996	0.6271	0.436
Mof_C 	C 	0.2533	0.4433	0.6201	-0.186
Mof_H 	H 	0.2829	0.427	0.6344	0.087
Mof_H 	H 	0.2236	0.4305	0.6374	0.088
Mof_O 	O 	0.7575	0.028	0.5889	-0.651
Mof_O 	O 	0.7618	0.0174	0.6712	-0.511
Mof_C 	C 	0.757	0.9996	0.6271	0.695
Mof_C 	C 	0.7533	0.9433	0.6201	-0.331
Mof_H 	H 	0.7829	0.927	0.6344	0.14
Mof_H 	H 	0.7236	0.9305	0.6374	0.14
Mof_O 	O 	0.7575	0.528	0.0889	-0.519
Mof_O 	O 	0.7618	0.5174	0.1712	-0.383
Mof_C 	C 	0.757	0.4996	0.1271	0.429
Mof_C 	C 	0.7533	0.4433	0.1201	-0.173
Mof_H 	H 	0.7829	0.427	0.1344	0.086
Mof_H 	H 	0.7236	0.4305	0.1374	0.086
Mof_O 	O 	0.9925	0.722	0.5889	-0.434
Mof_O 	O 	0.9882	0.7326	0.6712	-0.294
Mof_C 	C 	0.993	0.7504	0.6271	0.328
Mof_C 	C 	0.9967	0.8067	0.6201	0.183
Mof_H 	H 	0.9671	0.823	0.6344	0.001
Mof_H 	H 	0.0264	0.8195	0.6374	-0.075
Mof_O 	O 	0.9925	0.222	0.0889	-0.403
Mof_O 	O 	0.9882	0.2326	0.1712	-0.288
Mof_C 	C 	0.993	0.2504	0.1271	0.315
Mof_C 	C 	0.9967	0.3067	0.1201	0.216
Mof_H 	H 	0.9671	0.323	0.1344	-0.008
Mof_H 	H 	0.0264	0.3195	0.1374	-0.087
Mof_O 	O 	0.4925	0.722	0.0889	-0.519
Mof_O 	O 	0.4882	0.7326	0.1712	-0.383
Mof_C 	C 	0.493	0.7504	0.1271	0.429
Mof_C 	C 	0.4967	0.8067	0.1201	-0.174
Mof_H 	H 	0.4671	0.823	0.1344	0.088
Mof_H 	H 	0.5264	0.8195	0.1374	0.087
Mof_O 	O 	0.4925	0.222	0.5889	-0.546
Mof_O 	O 	0.4882	0.2326	0.6712	-0.385
Mof_C 	C 	0.493	0.2504	0.6271	0.436
Mof_C 	C 	0.4967	0.3067	0.6201	-0.186
Mof_H 	H 	0.4671	0.323	0.6344	0.087
Mof_H 	H 	0.5264	0.3195	0.6374	0.088
Mof_O 	O 	0.4925	0.528	0.1611	-0.547
Mof_O 	O 	0.4882	0.5174	0.0788	-0.381
Mof_C 	C 	0.493	0.4996	0.1229	0.436
Mof_C 	C 	0.4967	0.4433	0.1299	-0.187
Mof_H 	H 	0.4671	0.427	0.1156	0.091
Mof_H 	H 	0.5264	0.4305	0.1126	0.091
Mof_O 	O 	0.4925	0.028	0.6611	-0.652
Mof_O 	O 	0.4882	0.0174	0.5788	-0.513
Mof_C 	C 	0.493	0.9996	0.6229	0.7
Mof_C 	C 	0.4967	0.9433	0.6299	-0.333
Mof_H 	H 	0.4671	0.927	0.6156	0.141
Mof_H 	H 	0.5264	0.9305	0.6126	0.14
Mof_O 	O 	0.9925	0.528	0.6611	-0.433
Mof_O 	O 	0.9882	0.5174	0.5788	-0.292
Mof_C 	C 	0.993	0.4996	0.6229	0.325
Mof_C 	C 	0.9967	0.4433	0.6299	0.193
Mof_H 	H 	0.9671	0.427	0.6156	-0.004
Mof_H 	H 	0.0264	0.4305	0.6126	-0.08
Mof_O 	O 	0.9925	0.028	0.1611	-0.536
Mof_O 	O 	0.9882	0.0174	0.0788	-0.413
Mof_C 	C 	0.993	0.9996	0.1229	0.584
Mof_C 	C 	0.9967	0.9433	0.1299	0.041
Mof_H 	H 	0.9671	0.927	0.1156	0.054
Mof_H 	H 	0.0264	0.9305	0.1126	-0.023
Mof_O 	O 	0.6611	0.028	0.9925	-0.535
Mof_O 	O 	0.5788	0.0174	0.9882	-0.415
Mof_C 	C 	0.6229	0.9996	0.993	0.581
Mof_C 	C 	0.6299	0.9433	0.9967	0.038
Mof_H 	H 	0.6156	0.927	0.9671	0.051
Mof_H 	H 	0.6126	0.9305	0.0264	-0.024
Mof_O 	O 	0.6611	0.528	0.4925	-0.545
Mof_O 	O 	0.5788	0.5174	0.4882	-0.385
Mof_C 	C 	0.6229	0.4996	0.493	0.436
Mof_C 	C 	0.6299	0.4433	0.4967	-0.186
Mof_H 	H 	0.6156	0.427	0.4671	0.087
Mof_H 	H 	0.6126	0.4305	0.5264	0.088
Mof_O 	O 	0.1611	0.028	0.4925	-0.656
Mof_O 	O 	0.0788	0.0174	0.4882	-0.512
Mof_C 	C 	0.1229	0.9996	0.493	0.705
Mof_C 	C 	0.1299	0.9433	0.4967	-0.337
Mof_H 	H 	0.1156	0.927	0.4671	0.145
Mof_H 	H 	0.1126	0.9305	0.5264	0.144
Mof_O 	O 	0.1611	0.528	0.9925	-0.432
Mof_O 	O 	0.0788	0.5174	0.9882	-0.287
Mof_C 	C 	0.1229	0.4996	0.993	0.323
Mof_C 	C 	0.1299	0.4433	0.9967	0.199
Mof_H 	H 	0.1156	0.427	0.9671	-0.002
Mof_H 	H 	0.1126	0.4305	0.0264	-0.08
Mof_O 	O 	0.0889	0.222	0.4925	-0.519
Mof_O 	O 	0.1712	0.2326	0.4882	-0.383
Mof_C 	C 	0.1271	0.2504	0.493	0.428
Mof_C 	C 	0.1201	0.3067	0.4967	-0.172
Mof_H 	H 	0.1344	0.323	0.4671	0.085
Mof_H 	H 	0.1374	0.3195	0.5264	0.086
Mof_O 	O 	0.0889	0.722	0.9925	-0.406
Mof_O 	O 	0.1712	0.7326	0.9882	-0.291
Mof_C 	C 	0.1271	0.7504	0.993	0.319
Mof_C 	C 	0.1201	0.8067	0.9967	0.203
Mof_H 	H 	0.1344	0.823	0.9671	-0.003
Mof_H 	H 	0.1374	0.8195	0.0264	-0.081
Mof_O 	O 	0.5889	0.222	0.9925	-0.432
Mof_O 	O 	0.6712	0.2326	0.9882	-0.292
Mof_C 	C 	0.6271	0.2504	0.993	0.324
Mof_C 	C 	0.6201	0.3067	0.9967	0.195
Mof_H 	H 	0.6344	0.323	0.9671	-0.004
Mof_H 	H 	0.6374	0.3195	0.0264	-0.081
Mof_O 	O 	0.5889	0.722	0.4925	-0.545
Mof_O 	O 	0.6712	0.7326	0.4882	-0.385
Mof_C 	C 	0.6271	0.7504	0.493	0.437
Mof_C 	C 	0.6201	0.8067	0.4967	-0.187
Mof_H 	H 	0.6344	0.823	0.4671	0.09
Mof_H 	H 	0.6374	0.8195	0.5264	0.089
Mof_O 	O 	0.5889	0.528	0.7575	-0.545
Mof_O 	O 	0.6712	0.5174	0.7618	-0.385
Mof_C 	C 	0.6271	0.4996	0.757	0.436
Mof_C 	C 	0.6201	0.4433	0.7533	-0.186
Mof_H 	H 	0.6344	0.427	0.7829	0.088
Mof_H 	H 	0.6374	0.4305	0.7236	0.088
Mof_O 	O 	0.5889	0.028	0.2575	-0.654
Mof_O 	O 	0.6712	0.0174	0.2618	-0.515
Mof_C 	C 	0.6271	0.9996	0.257	0.701
Mof_C 	C 	0.6201	0.9433	0.2533	-0.334
Mof_H 	H 	0.6344	0.927	0.2829	0.141
Mof_H 	H 	0.6374	0.9305	0.2236	0.141
Mof_O 	O 	0.0889	0.528	0.2575	-0.518
Mof_O 	O 	0.1712	0.5174	0.2618	-0.384
Mof_C 	C 	0.1271	0.4996	0.257	0.428
Mof_C 	C 	0.1201	0.4433	0.2533	-0.172
Mof_H 	H 	0.1344	0.427	0.2829	0.085
Mof_H 	H 	0.1374	0.4305	0.2236	0.086
Mof_O 	O 	0.0889	0.028	0.7575	-0.626
Mof_O 	O 	0.1712	0.0174	0.7618	-0.512
Mof_C 	C 	0.1271	0.9996	0.757	0.693
Mof_C 	C 	0.1201	0.9433	0.7533	-0.321
Mof_H 	H 	0.1344	0.927	0.7829	0.139
Mof_H 	H 	0.1374	0.9305	0.7236	0.138
Mof_O 	O 	0.1611	0.722	0.2575	-0.548
Mof_O 	O 	0.0788	0.7326	0.2618	-0.382
Mof_C 	C 	0.1229	0.7504	0.257	0.437
Mof_C 	C 	0.1299	0.8067	0.2533	-0.189
Mof_H 	H 	0.1156	0.823	0.2829	0.093
Mof_H 	H 	0.1126	0.8195	0.2236	0.092
Mof_O 	O 	0.1611	0.222	0.7575	-0.548
Mof_O 	O 	0.0788	0.2326	0.7618	-0.382
Mof_C 	C 	0.1229	0.2504	0.757	0.436
Mof_C 	C 	0.1299	0.3067	0.7533	-0.188
Mof_H 	H 	0.1156	0.323	0.7829	0.091
Mof_H 	H 	0.1126	0.3195	0.7236	0.091
Mof_O 	O 	0.6611	0.722	0.7575	-0.546
Mof_O 	O 	0.5788	0.7326	0.7618	-0.385
Mof_C 	C 	0.6229	0.7504	0.757	0.437
Mof_C 	C 	0.6299	0.8067	0.7533	-0.188
Mof_H 	H 	0.6156	0.823	0.7829	0.09
Mof_H 	H 	0.6126	0.8195	0.7236	0.09
Mof_O 	O 	0.6611	0.222	0.2575	-0.547
Mof_O 	O 	0.5788	0.2326	0.2618	-0.386
Mof_C 	C 	0.6229	0.2504	0.257	0.435
Mof_C 	C 	0.6299	0.3067	0.2533	-0.186
Mof_H 	H 	0.6156	0.323	0.2829	0.087
Mof_H 	H 	0.6126	0.3195	0.2236	0.088
Mof_O 	O 	0.9925	0.6611	0.028	-0.535
Mof_O 	O 	0.9882	0.5788	0.0174	-0.415
Mof_C 	C 	0.993	0.6229	0.9996	0.581
Mof_C 	C 	0.9967	0.6299	0.9433	0.038
Mof_H 	H 	0.9671	0.6156	0.927	0.051
Mof_H 	H 	0.0264	0.6126	0.9305	-0.024
Mof_O 	O 	0.9925	0.1611	0.528	-0.432
Mof_O 	O 	0.9882	0.0788	0.5174	-0.287
Mof_C 	C 	0.993	0.1229	0.4996	0.323
Mof_C 	C 	0.9967	0.1299	0.4433	0.199
Mof_H 	H 	0.9671	0.1156	0.427	-0.002
Mof_H 	H 	0.0264	0.1126	0.4305	-0.08
Mof_O 	O 	0.4925	0.6611	0.528	-0.545
Mof_O 	O 	0.4882	0.5788	0.5174	-0.385
Mof_C 	C 	0.493	0.6229	0.4996	0.436
Mof_C 	C 	0.4967	0.6299	0.4433	-0.186
Mof_H 	H 	0.4671	0.6156	0.427	0.087
Mof_H 	H 	0.5264	0.6126	0.4305	0.088
Mof_O 	O 	0.4925	0.1611	0.028	-0.656
Mof_O 	O 	0.4882	0.0788	0.0174	-0.512
Mof_C 	C 	0.493	0.1229	0.9996	0.705
Mof_C 	C 	0.4967	0.1299	0.9433	-0.337
Mof_H 	H 	0.4671	0.1156	0.927	0.145
Mof_H 	H 	0.5264	0.1126	0.9305	0.144
Mof_O 	O 	0.4925	0.0889	0.222	-0.519
Mof_O 	O 	0.4882	0.1712	0.2326	-0.383
Mof_C 	C 	0.493	0.1271	0.2504	0.428
Mof_C 	C 	0.4967	0.1201	0.3067	-0.172
Mof_H 	H 	0.4671	0.1344	0.323	0.085
Mof_H 	H 	0.5264	0.1374	0.3195	0.086
Mof_O 	O 	0.4925	0.5889	0.722	-0.545
Mof_O 	O 	0.4882	0.6712	0.7326	-0.385
Mof_C 	C 	0.493	0.6271	0.7504	0.437
Mof_C 	C 	0.4967	0.6201	0.8067	-0.187
Mof_H 	H 	0.4671	0.6344	0.823	0.09
Mof_H 	H 	0.5264	0.6374	0.8195	0.089
Mof_O 	O 	0.9925	0.0889	0.722	-0.406
Mof_O 	O 	0.9882	0.1712	0.7326	-0.291
Mof_C 	C 	0.993	0.1271	0.7504	0.319
Mof_C 	C 	0.9967	0.1201	0.8067	0.203
Mof_H 	H 	0.9671	0.1344	0.823	-0.003
Mof_H 	H 	0.0264	0.1374	0.8195	-0.081
Mof_O 	O 	0.9925	0.5889	0.222	-0.432
Mof_O 	O 	0.9882	0.6712	0.2326	-0.292
Mof_C 	C 	0.993	0.6271	0.2504	0.324
Mof_C 	C 	0.9967	0.6201	0.3067	0.195
Mof_H 	H 	0.9671	0.6344	0.323	-0.004
Mof_H 	H 	0.0264	0.6374	0.3195	-0.081
Mof_O 	O 	0.7575	0.5889	0.528	-0.545
Mof_O 	O 	0.7618	0.6712	0.5174	-0.385
Mof_C 	C 	0.757	0.6271	0.4996	0.436
Mof_C 	C 	0.7533	0.6201	0.4433	-0.186
Mof_H 	H 	0.7829	0.6344	0.427	0.088
Mof_H 	H 	0.7236	0.6374	0.4305	0.088
Mof_O 	O 	0.7575	0.0889	0.028	-0.626
Mof_O 	O 	0.7618	0.1712	0.0174	-0.512
Mof_C 	C 	0.757	0.1271	0.9996	0.693
Mof_C 	C 	0.7533	0.1201	0.9433	-0.321
Mof_H 	H 	0.7829	0.1344	0.927	0.139
Mof_H 	H 	0.7236	0.1374	0.9305	0.138
Mof_O 	O 	0.2575	0.5889	0.028	-0.654
Mof_O 	O 	0.2618	0.6712	0.0174	-0.515
Mof_C 	C 	0.257	0.6271	0.9996	0.701
Mof_C 	C 	0.2533	0.6201	0.9433	-0.334
Mof_H 	H 	0.2829	0.6344	0.927	0.141
Mof_H 	H 	0.2236	0.6374	0.9305	0.141
Mof_O 	O 	0.2575	0.0889	0.528	-0.518
Mof_O 	O 	0.2618	0.1712	0.5174	-0.384
Mof_C 	C 	0.257	0.1271	0.4996	0.428
Mof_C 	C 	0.2533	0.1201	0.4433	-0.172
Mof_H 	H 	0.2829	0.1344	0.427	0.085
Mof_H 	H 	0.2236	0.1374	0.4305	0.086
Mof_O 	O 	0.2575	0.1611	0.722	-0.548
Mof_O 	O 	0.2618	0.0788	0.7326	-0.382
Mof_C 	C 	0.257	0.1229	0.7504	0.437
Mof_C 	C 	0.2533	0.1299	0.8067	-0.189
Mof_H 	H 	0.2829	0.1156	0.823	0.093
Mof_H 	H 	0.2236	0.1126	0.8195	0.092
Mof_O 	O 	0.2575	0.6611	0.222	-0.547
Mof_O 	O 	0.2618	0.5788	0.2326	-0.386
Mof_C 	C 	0.257	0.6229	0.2504	0.435
Mof_C 	C 	0.2533	0.6299	0.3067	-0.186
Mof_H 	H 	0.2829	0.6156	0.323	0.087
Mof_H 	H 	0.2236	0.6126	0.3195	0.088
Mof_O 	O 	0.7575	0.1611	0.222	-0.548
Mof_O 	O 	0.7618	0.0788	0.2326	-0.382
Mof_C 	C 	0.757	0.1229	0.2504	0.436
Mof_C 	C 	0.7533	0.1299	0.3067	-0.188
Mof_H 	H 	0.7829	0.1156	0.323	0.091
Mof_H 	H 	0.7236	0.1126	0.3195	0.091
Mof_O 	O 	0.7575	0.6611	0.722	-0.546
Mof_O 	O 	0.7618	0.5788	0.7326	-0.385
Mof_C 	C 	0.757	0.6229	0.7504	0.437
Mof_C 	C 	0.7533	0.6299	0.8067	-0.188
Mof_H 	H 	0.7829	0.6156	0.823	0.09
Mof_H 	H 	0.7236	0.6126	0.8195	0.09
Mof_O 	O 	0.028	0.9925	0.6611	-0.535
Mof_O 	O 	0.0174	0.9882	0.5788	-0.415
Mof_C 	C 	0.9996	0.993	0.6229	0.581
Mof_C 	C 	0.9433	0.9967	0.6299	0.038
Mof_H 	H 	0.927	0.9671	0.6156	0.051
Mof_H 	H 	0.9305	0.0264	0.6126	-0.024
Mof_O 	O 	0.028	0.4925	0.1611	-0.656
Mof_O 	O 	0.0174	0.4882	0.0788	-0.512
Mof_C 	C 	0.9996	0.493	0.1229	0.705
Mof_C 	C 	0.9433	0.4967	0.1299	-0.337
Mof_H 	H 	0.927	0.4671	0.1156	0.145
Mof_H 	H 	0.9305	0.5264	0.1126	0.144
Mof_O 	O 	0.528	0.9925	0.1611	-0.432
Mof_O 	O 	0.5174	0.9882	0.0788	-0.287
Mof_C 	C 	0.4996	0.993	0.1229	0.323
Mof_C 	C 	0.4433	0.9967	0.1299	0.199
Mof_H 	H 	0.427	0.9671	0.1156	-0.002
Mof_H 	H 	0.4305	0.0264	0.1126	-0.08
Mof_O 	O 	0.528	0.4925	0.6611	-0.545
Mof_O 	O 	0.5174	0.4882	0.5788	-0.385
Mof_C 	C 	0.4996	0.493	0.6229	0.436
Mof_C 	C 	0.4433	0.4967	0.6299	-0.186
Mof_H 	H 	0.427	0.4671	0.6156	0.087
Mof_H 	H 	0.4305	0.5264	0.6126	0.088
Mof_O 	O 	0.222	0.4925	0.0889	-0.519
Mof_O 	O 	0.2326	0.4882	0.1712	-0.383
Mof_C 	C 	0.2504	0.493	0.1271	0.428
Mof_C 	C 	0.3067	0.4967	0.1201	-0.172
Mof_H 	H 	0.323	0.4671	0.1344	0.085
Mof_H 	H 	0.3195	0.5264	0.1374	0.086
Mof_O 	O 	0.222	0.9925	0.5889	-0.432
Mof_O 	O 	0.2326	0.9882	0.6712	-0.292
Mof_C 	C 	0.2504	0.993	0.6271	0.324
Mof_C 	C 	0.3067	0.9967	0.6201	0.195
Mof_H 	H 	0.323	0.9671	0.6344	-0.004
Mof_H 	H 	0.3195	0.0264	0.6374	-0.081
Mof_O 	O 	0.722	0.4925	0.5889	-0.545
Mof_O 	O 	0.7326	0.4882	0.6712	-0.385
Mof_C 	C 	0.7504	0.493	0.6271	0.437
Mof_C 	C 	0.8067	0.4967	0.6201	-0.187
Mof_H 	H 	0.823	0.4671	0.6344	0.09
Mof_H 	H 	0.8195	0.5264	0.6374	0.089
Mof_O 	O 	0.722	0.9925	0.0889	-0.406
Mof_O 	O 	0.7326	0.9882	0.1712	-0.291
Mof_C 	C 	0.7504	0.993	0.1271	0.319
Mof_C 	C 	0.8067	0.9967	0.1201	0.203
Mof_H 	H 	0.823	0.9671	0.1344	-0.003
Mof_H 	H 	0.8195	0.0264	0.1374	-0.081
Mof_O 	O 	0.528	0.7575	0.5889	-0.545
Mof_O 	O 	0.5174	0.7618	0.6712	-0.385
Mof_C 	C 	0.4996	0.757	0.6271	0.436
Mof_C 	C 	0.4433	0.7533	0.6201	-0.186
Mof_H 	H 	0.427	0.7829	0.6344	0.088
Mof_H 	H 	0.4305	0.7236	0.6374	0.088
Mof_O 	O 	0.528	0.2575	0.0889	-0.518
Mof_O 	O 	0.5174	0.2618	0.1712	-0.384
Mof_C 	C 	0.4996	0.257	0.1271	0.428
Mof_C 	C 	0.4433	0.2533	0.1201	-0.172
Mof_H 	H 	0.427	0.2829	0.1344	0.085
Mof_H 	H 	0.4305	0.2236	0.1374	0.086
Mof_O 	O 	0.028	0.7575	0.0889	-0.626
Mof_O 	O 	0.0174	0.7618	0.1712	-0.512
Mof_C 	C 	0.9996	0.757	0.1271	0.693
Mof_C 	C 	0.9433	0.7533	0.1201	-0.321
Mof_H 	H 	0.927	0.7829	0.1344	0.139
Mof_H 	H 	0.9305	0.7236	0.1374	0.138
Mof_O 	O 	0.028	0.2575	0.5889	-0.654
Mof_O 	O 	0.0174	0.2618	0.6712	-0.515
Mof_C 	C 	0.9996	0.257	0.6271	0.701
Mof_C 	C 	0.9433	0.2533	0.6201	-0.334
Mof_H 	H 	0.927	0.2829	0.6344	0.141
Mof_H 	H 	0.9305	0.2236	0.6374	0.141
Mof_O 	O 	0.722	0.2575	0.1611	-0.548
Mof_O 	O 	0.7326	0.2618	0.0788	-0.382
Mof_C 	C 	0.7504	0.257	0.1229	0.437
Mof_C 	C 	0.8067	0.2533	0.1299	-0.189
Mof_H 	H 	0.823	0.2829	0.1156	0.093
Mof_H 	H 	0.8195	0.2236	0.1126	0.092
Mof_O 	O 	0.722	0.7575	0.6611	-0.546
Mof_O 	O 	0.7326	0.7618	0.5788	-0.385
Mof_C 	C 	0.7504	0.757	0.6229	0.437
Mof_C 	C 	0.8067	0.7533	0.6299	-0.188
Mof_H 	H 	0.823	0.7829	0.6156	0.09
Mof_H 	H 	0.8195	0.7236	0.6126	0.09
Mof_O 	O 	0.222	0.2575	0.6611	-0.547
Mof_O 	O 	0.2326	0.2618	0.5788	-0.386
Mof_C 	C 	0.2504	0.257	0.6229	0.435
Mof_C 	C 	0.3067	0.2533	0.6299	-0.186
Mof_H 	H 	0.323	0.2829	0.6156	0.087
Mof_H 	H 	0.3195	0.2236	0.6126	0.088
Mof_O 	O 	0.222	0.7575	0.1611	-0.548
Mof_O 	O 	0.2326	0.7618	0.0788	-0.382
Mof_C 	C 	0.2504	0.757	0.1229	0.436
Mof_C 	C 	0.3067	0.7533	0.1299	-0.188
Mof_H 	H 	0.323	0.7829	0.1156	0.091
Mof_H 	H 	0.3195	0.7236	0.1126	0.091
Mof_O 	O 	0.278	0.4111	0.0075	-0.545
Mof_O 	O 	0.2674	0.3288	0.0118	-0.406
Mof_C 	C 	0.2496	0.3729	0.007	0.468
Mof_C 	C 	0.1933	0.3799	0.0033	-0.373
Mof_H 	H 	0.177	0.3656	0.0329	0.135
Mof_H 	H 	0.1805	0.3626	0.9736	0.218
Mof_O 	O 	0.278	0.9111	0.5075	-0.48
Mof_O 	O 	0.2674	0.8288	0.5118	-0.379
Mof_C 	C 	0.2496	0.8729	0.507	0.431
Mof_C 	C 	0.1933	0.8799	0.5033	-0.215
Mof_H 	H 	0.177	0.8656	0.5329	0.098
Mof_H 	H 	0.1805	0.8626	0.4736	0.1
Mof_O 	O 	0.778	0.4111	0.5075	-0.542
Mof_O 	O 	0.7674	0.3288	0.5118	-0.383
Mof_C 	C 	0.7496	0.3729	0.507	0.436
Mof_C 	C 	0.6933	0.3799	0.5033	-0.185
Mof_H 	H 	0.677	0.3656	0.5329	0.087
Mof_H 	H 	0.6805	0.3626	0.4736	0.089
Mof_O 	O 	0.778	0.9111	0.0075	-0.478
Mof_O 	O 	0.7674	0.8288	0.0118	-0.398
Mof_C 	C 	0.7496	0.8729	0.007	0.461
Mof_C 	C 	0.6933	0.8799	0.0033	-0.39
Mof_H 	H 	0.677	0.8656	0.0329	0.142
Mof_H 	H 	0.6805	0.8626	0.9736	0.22
Mof_O 	O 	0.472	0.8389	0.5075	-0.536
Mof_O 	O 	0.4826	0.9212	0.5118	-0.336
Mof_C 	C 	0.5004	0.8771	0.507	0.421
Mof_C 	C 	0.5567	0.8701	0.5033	-0.178
Mof_H 	H 	0.573	0.8844	0.5329	0.086
Mof_H 	H 	0.5695	0.8874	0.4736	0.092
Mof_O 	O 	0.472	0.3389	0.0075	-0.544
Mof_O 	O 	0.4826	0.4212	0.0118	-0.406
Mof_C 	C 	0.5004	0.3771	0.007	0.467
Mof_C 	C 	0.5567	0.3701	0.0033	-0.369
Mof_H 	H 	0.573	0.3844	0.0329	0.134
Mof_H 	H 	0.5695	0.3874	0.9736	0.215
Mof_O 	O 	0.972	0.8389	0.0075	-0.343
Mof_O 	O 	0.9826	0.9212	0.0118	-0.175
Mof_C 	C 	0.0004	0.8771	0.007	0.168
Mof_C 	C 	0.0567	0.8701	0.0033	-0.221
Mof_H 	H 	0.073	0.8844	0.0329	0.09
Mof_H 	H 	0.0695	0.8874	0.9736	0.174
Mof_O 	O 	0.972	0.3389	0.5075	-0.349
Mof_O 	O 	0.9826	0.4212	0.5118	-0.199
Mof_C 	C 	0.0004	0.3771	0.507	0.147
Mof_C 	C 	0.0567	0.3701	0.5033	-0.046
Mof_H 	H 	0.073	0.3844	0.5329	0.044
Mof_H 	H 	0.0695	0.3874	0.4736	0.046
Mof_O 	O 	0.778	0.3389	0.2425	-0.542
Mof_O 	O 	0.7674	0.4212	0.2382	-0.382
Mof_C 	C 	0.7496	0.3771	0.243	0.436
Mof_C 	C 	0.6933	0.3701	0.2467	-0.185
Mof_H 	H 	0.677	0.3844	0.2171	0.087
Mof_H 	H 	0.6805	0.3874	0.2764	0.089
Mof_O 	O 	0.778	0.8389	0.7425	-0.532
Mof_O 	O 	0.7674	0.9212	0.7382	-0.335
Mof_C 	C 	0.7496	0.8771	0.743	0.423
Mof_C 	C 	0.6933	0.8701	0.7467	-0.179
Mof_H 	H 	0.677	0.8844	0.7171	0.086
Mof_H 	H 	0.6805	0.8874	0.7764	0.093
Mof_O 	O 	0.278	0.3389	0.7425	-0.543
Mof_O 	O 	0.2674	0.4212	0.7382	-0.383
Mof_C 	C 	0.2496	0.3771	0.743	0.438
Mof_C 	C 	0.1933	0.3701	0.7467	-0.188
Mof_H 	H 	0.177	0.3844	0.7171	0.088
Mof_H 	H 	0.1805	0.3874	0.7764	0.092
Mof_O 	O 	0.278	0.8389	0.2425	-0.535
Mof_O 	O 	0.2674	0.9212	0.2382	-0.335
Mof_C 	C 	0.2496	0.8771	0.243	0.422
Mof_C 	C 	0.1933	0.8701	0.2467	-0.179
Mof_H 	H 	0.177	0.8844	0.2171	0.088
Mof_H 	H 	0.1805	0.8874	0.2764	0.093
Mof_O 	O 	0.972	0.9111	0.7425	-0.293
Mof_O 	O 	0.9826	0.8288	0.7382	-0.201
Mof_C 	C 	0.0004	0.8729	0.743	0.156
Mof_C 	C 	0.0567	0.8799	0.7467	-0.081
Mof_H 	H 	0.073	0.8656	0.7171	0.056
Mof_H 	H 	0.0695	0.8626	0.7764	0.06
Mof_O 	O 	0.972	0.4111	0.2425	-0.347
Mof_O 	O 	0.9826	0.3288	0.2382	-0.197
Mof_C 	C 	0.0004	0.3729	0.243	0.145
Mof_C 	C 	0.0567	0.3799	0.2467	-0.045
Mof_H 	H 	0.073	0.3656	0.2171	0.044
Mof_H 	H 	0.0695	0.3626	0.2764	0.046
Mof_O 	O 	0.472	0.9111	0.2425	-0.48
Mof_O 	O 	0.4826	0.8288	0.2382	-0.379
Mof_C 	C 	0.5004	0.8729	0.243	0.431
Mof_C 	C 	0.5567	0.8799	0.2467	-0.213
Mof_H 	H 	0.573	0.8656	0.2171	0.097
Mof_H 	H 	0.5695	0.8626	0.2764	0.099
Mof_O 	O 	0.472	0.4111	0.7425	-0.543
Mof_O 	O 	0.4826	0.3288	0.7382	-0.383
Mof_C 	C 	0.5004	0.3729	0.743	0.437
Mof_C 	C 	0.5567	0.3799	0.7467	-0.186
Mof_H 	H 	0.573	0.3656	0.7171	0.087
Mof_H 	H 	0.5695	0.3626	0.7764	0.09
Mof_O 	O 	0.9111	0.7425	0.972	-0.293
Mof_O 	O 	0.8288	0.7382	0.9826	-0.201
Mof_C 	C 	0.8729	0.743	0.0004	0.156
Mof_C 	C 	0.8799	0.7467	0.0567	-0.081
Mof_H 	H 	0.8656	0.7171	0.073	0.056
Mof_H 	H 	0.8626	0.7764	0.0695	0.06
Mof_O 	O 	0.9111	0.2425	0.472	-0.48
Mof_O 	O 	0.8288	0.2382	0.4826	-0.379
Mof_C 	C 	0.8729	0.243	0.5004	0.431
Mof_C 	C 	0.8799	0.2467	0.5567	-0.213
Mof_H 	H 	0.8656	0.2171	0.573	0.097
Mof_H 	H 	0.8626	0.2764	0.5695	0.099
Mof_O 	O 	0.4111	0.7425	0.472	-0.543
Mof_O 	O 	0.3288	0.7382	0.4826	-0.383
Mof_C 	C 	0.3729	0.743	0.5004	0.437
Mof_C 	C 	0.3799	0.7467	0.5567	-0.186
Mof_H 	H 	0.3656	0.7171	0.573	0.087
Mof_H 	H 	0.3626	0.7764	0.5695	0.09
Mof_O 	O 	0.4111	0.2425	0.972	-0.347
Mof_O 	O 	0.3288	0.2382	0.9826	-0.197
Mof_C 	C 	0.3729	0.243	0.0004	0.145
Mof_C 	C 	0.3799	0.2467	0.0567	-0.045
Mof_H 	H 	0.3656	0.2171	0.073	0.044
Mof_H 	H 	0.3626	0.2764	0.0695	0.046
Mof_O 	O 	0.3389	0.2425	0.778	-0.542
Mof_O 	O 	0.4212	0.2382	0.7674	-0.382
Mof_C 	C 	0.3771	0.243	0.7496	0.436
Mof_C 	C 	0.3701	0.2467	0.6933	-0.185
Mof_H 	H 	0.3844	0.2171	0.677	0.087
Mof_H 	H 	0.3874	0.2764	0.6805	0.089
Mof_O 	O 	0.3389	0.7425	0.278	-0.543
Mof_O 	O 	0.4212	0.7382	0.2674	-0.383
Mof_C 	C 	0.3771	0.743	0.2496	0.438
Mof_C 	C 	0.3701	0.7467	0.1933	-0.188
Mof_H 	H 	0.3844	0.7171	0.177	0.088
Mof_H 	H 	0.3874	0.7764	0.1805	0.092
Mof_O 	O 	0.8389	0.2425	0.278	-0.535
Mof_O 	O 	0.9212	0.2382	0.2674	-0.335
Mof_C 	C 	0.8771	0.243	0.2496	0.422
Mof_C 	C 	0.8701	0.2467	0.1933	-0.179
Mof_H 	H 	0.8844	0.2171	0.177	0.088
Mof_H 	H 	0.8874	0.2764	0.1805	0.093
Mof_O 	O 	0.8389	0.7425	0.778	-0.532
Mof_O 	O 	0.9212	0.7382	0.7674	-0.335
Mof_C 	C 	0.8771	0.743	0.7496	0.423
Mof_C 	C 	0.8701	0.7467	0.6933	-0.179
Mof_H 	H 	0.8844	0.7171	0.677	0.086
Mof_H 	H 	0.8874	0.7764	0.6805	0.093
Mof_O 	O 	0.8389	0.5075	0.472	-0.536
Mof_O 	O 	0.9212	0.5118	0.4826	-0.336
Mof_C 	C 	0.8771	0.507	0.5004	0.421
Mof_C 	C 	0.8701	0.5033	0.5567	-0.178
Mof_H 	H 	0.8844	0.5329	0.573	0.086
Mof_H 	H 	0.8874	0.4736	0.5695	0.092
Mof_O 	O 	0.8389	0.0075	0.972	-0.343
Mof_O 	O 	0.9212	0.0118	0.9826	-0.175
Mof_C 	C 	0.8771	0.007	0.0004	0.168
Mof_C 	C 	0.8701	0.0033	0.0567	-0.221
Mof_H 	H 	0.8844	0.0329	0.073	0.09
Mof_H 	H 	0.8874	0.9736	0.0695	0.174
Mof_O 	O 	0.3389	0.5075	0.972	-0.349
Mof_O 	O 	0.4212	0.5118	0.9826	-0.199
Mof_C 	C 	0.3771	0.507	0.0004	0.147
Mof_C 	C 	0.3701	0.5033	0.0567	-0.046
Mof_H 	H 	0.3844	0.5329	0.073	0.044
Mof_H 	H 	0.3874	0.4736	0.0695	0.046
Mof_O 	O 	0.3389	0.0075	0.472	-0.544
Mof_O 	O 	0.4212	0.0118	0.4826	-0.406
Mof_C 	C 	0.3771	0.007	0.5004	0.467
Mof_C 	C 	0.3701	0.0033	0.5567	-0.369
Mof_H 	H 	0.3844	0.0329	0.573	0.134
Mof_H 	H 	0.3874	0.9736	0.5695	0.215
Mof_O 	O 	0.4111	0.0075	0.278	-0.545
Mof_O 	O 	0.3288	0.0118	0.2674	-0.406
Mof_C 	C 	0.3729	0.007	0.2496	0.468
Mof_C 	C 	0.3799	0.0033	0.1933	-0.373
Mof_H 	H 	0.3656	0.0329	0.177	0.135
Mof_H 	H 	0.3626	0.9736	0.1805	0.218
Mof_O 	O 	0.4111	0.5075	0.778	-0.542
Mof_O 	O 	0.3288	0.5118	0.7674	-0.383
Mof_C 	C 	0.3729	0.507	0.7496	0.436
Mof_C 	C 	0.3799	0.5033	0.6933	-0.185
Mof_H 	H 	0.3656	0.5329	0.677	0.087
Mof_H 	H 	0.3626	0.4736	0.6805	0.089
Mof_O 	O 	0.9111	0.0075	0.778	-0.478
Mof_O 	O 	0.8288	0.0118	0.7674	-0.398
Mof_C 	C 	0.8729	0.007	0.7496	0.461
Mof_C 	C 	0.8799	0.0033	0.6933	-0.39
Mof_H 	H 	0.8656	0.0329	0.677	0.142
Mof_H 	H 	0.8626	0.9736	0.6805	0.22
Mof_O 	O 	0.9111	0.5075	0.278	-0.48
Mof_O 	O 	0.8288	0.5118	0.2674	-0.379
Mof_C 	C 	0.8729	0.507	0.2496	0.431
Mof_C 	C 	0.8799	0.5033	0.1933	-0.215
Mof_H 	H 	0.8656	0.5329	0.177	0.098
Mof_H 	H 	0.8626	0.4736	0.1805	0.1
Mof_O 	O 	0.2425	0.778	0.3389	-0.542
Mof_O 	O 	0.2382	0.7674	0.4212	-0.382
Mof_C 	C 	0.243	0.7496	0.3771	0.436
Mof_C 	C 	0.2467	0.6933	0.3701	-0.185
Mof_H 	H 	0.2171	0.677	0.3844	0.087
Mof_H 	H 	0.2764	0.6805	0.3874	0.089
Mof_O 	O 	0.2425	0.278	0.8389	-0.535
Mof_O 	O 	0.2382	0.2674	0.9212	-0.335
Mof_C 	C 	0.243	0.2496	0.8771	0.422
Mof_C 	C 	0.2467	0.1933	0.8701	-0.179
Mof_H 	H 	0.2171	0.177	0.8844	0.088
Mof_H 	H 	0.2764	0.1805	0.8874	0.093
Mof_O 	O 	0.7425	0.778	0.8389	-0.532
Mof_O 	O 	0.7382	0.7674	0.9212	-0.335
Mof_C 	C 	0.743	0.7496	0.8771	0.423
Mof_C 	C 	0.7467	0.6933	0.8701	-0.179
Mof_H 	H 	0.7171	0.677	0.8844	0.086
Mof_H 	H 	0.7764	0.6805	0.8874	0.093
Mof_O 	O 	0.7425	0.278	0.3389	-0.543
Mof_O 	O 	0.7382	0.2674	0.4212	-0.383
Mof_C 	C 	0.743	0.2496	0.3771	0.438
Mof_C 	C 	0.7467	0.1933	0.3701	-0.188
Mof_H 	H 	0.7171	0.177	0.3844	0.088
Mof_H 	H 	0.7764	0.1805	0.3874	0.092
Mof_O 	O 	0.7425	0.972	0.9111	-0.293
Mof_O 	O 	0.7382	0.9826	0.8288	-0.201
Mof_C 	C 	0.743	0.0004	0.8729	0.156
Mof_C 	C 	0.7467	0.0567	0.8799	-0.081
Mof_H 	H 	0.7171	0.073	0.8656	0.056
Mof_H 	H 	0.7764	0.0695	0.8626	0.06
Mof_O 	O 	0.7425	0.472	0.4111	-0.543
Mof_O 	O 	0.7382	0.4826	0.3288	-0.383
Mof_C 	C 	0.743	0.5004	0.3729	0.437
Mof_C 	C 	0.7467	0.5567	0.3799	-0.186
Mof_H 	H 	0.7171	0.573	0.3656	0.087
Mof_H 	H 	0.7764	0.5695	0.3626	0.09
Mof_O 	O 	0.2425	0.972	0.4111	-0.347
Mof_O 	O 	0.2382	0.9826	0.3288	-0.197
Mof_C 	C 	0.243	0.0004	0.3729	0.145
Mof_C 	C 	0.2467	0.0567	0.3799	-0.045
Mof_H 	H 	0.2171	0.073	0.3656	0.044
Mof_H 	H 	0.2764	0.0695	0.3626	0.046
Mof_O 	O 	0.2425	0.472	0.9111	-0.48
Mof_O 	O 	0.2382	0.4826	0.8288	-0.379
Mof_C 	C 	0.243	0.5004	0.8729	0.431
Mof_C 	C 	0.2467	0.5567	0.8799	-0.213
Mof_H 	H 	0.2171	0.573	0.8656	0.097
Mof_H 	H 	0.2764	0.5695	0.8626	0.099
Mof_O 	O 	0.0075	0.278	0.4111	-0.545
Mof_O 	O 	0.0118	0.2674	0.3288	-0.406
Mof_C 	C 	0.007	0.2496	0.3729	0.468
Mof_C 	C 	0.0033	0.1933	0.3799	-0.373
Mof_H 	H 	0.0329	0.177	0.3656	0.135
Mof_H 	H 	0.9736	0.1805	0.3626	0.218
Mof_O 	O 	0.0075	0.778	0.9111	-0.478
Mof_O 	O 	0.0118	0.7674	0.8288	-0.398
Mof_C 	C 	0.007	0.7496	0.8729	0.461
Mof_C 	C 	0.0033	0.6933	0.8799	-0.39
Mof_H 	H 	0.0329	0.677	0.8656	0.142
Mof_H 	H 	0.9736	0.6805	0.8626	0.22
Mof_O 	O 	0.5075	0.278	0.9111	-0.48
Mof_O 	O 	0.5118	0.2674	0.8288	-0.379
Mof_C 	C 	0.507	0.2496	0.8729	0.431
Mof_C 	C 	0.5033	0.1933	0.8799	-0.215
Mof_H 	H 	0.5329	0.177	0.8656	0.098
Mof_H 	H 	0.4736	0.1805	0.8626	0.1
Mof_O 	O 	0.5075	0.778	0.4111	-0.542
Mof_O 	O 	0.5118	0.7674	0.3288	-0.383
Mof_C 	C 	0.507	0.7496	0.3729	0.436
Mof_C 	C 	0.5033	0.6933	0.3799	-0.185
Mof_H 	H 	0.5329	0.677	0.3656	0.087
Mof_H 	H 	0.4736	0.6805	0.3626	0.089
Mof_O 	O 	0.5075	0.472	0.8389	-0.536
Mof_O 	O 	0.5118	0.4826	0.9212	-0.336
Mof_C 	C 	0.507	0.5004	0.8771	0.421
Mof_C 	C 	0.5033	0.5567	0.8701	-0.178
Mof_H 	H 	0.5329	0.573	0.8844	0.086
Mof_H 	H 	0.4736	0.5695	0.8874	0.092
Mof_O 	O 	0.5075	0.972	0.3389	-0.349
Mof_O 	O 	0.5118	0.9826	0.4212	-0.199
Mof_C 	C 	0.507	0.0004	0.3771	0.147
Mof_C 	C 	0.5033	0.0567	0.3701	-0.046
Mof_H 	H 	0.5329	0.073	0.3844	0.044
Mof_H 	H 	0.4736	0.0695	0.3874	0.046
Mof_O 	O 	0.0075	0.472	0.3389	-0.544
Mof_O 	O 	0.0118	0.4826	0.4212	-0.406
Mof_C 	C 	0.007	0.5004	0.3771	0.467
Mof_C 	C 	0.0033	0.5567	0.3701	-0.369
Mof_H 	H 	0.0329	0.573	0.3844	0.134
Mof_H 	H 	0.9736	0.5695	0.3874	0.215
Mof_O 	O 	0.0075	0.972	0.8389	-0.343
Mof_O 	O 	0.0118	0.9826	0.9212	-0.175
Mof_C 	C 	0.007	0.0004	0.8771	0.168
Mof_C 	C 	0.0033	0.0567	0.8701	-0.221
Mof_H 	H 	0.0329	0.073	0.8844	0.09
Mof_H 	H 	0.9736	0.0695	0.8874	0.174
Mof_Ce	Ce	0.25	0	-0	2.319
Mof_Ce	Ce	0.25	0.5	0.5	3.017
Mof_Ce	Ce	0.75	0.5	-0	2.676
Mof_Ce	Ce	1.82652e-32	0.75	0.5	2.676
Mof_Ce	Ce	0.5	0.75	-0	2.677
Mof_Ce	Ce	0.5	0.5	0.25	3.017
Mof_Ce	Ce	0.75	0.25	0.75	3.017
Mof_Ce	Ce	2.73175e-33	0.25	-0	2.319
Mof_Ce	Ce	0.5	0.25	0.5	3.017
Mof_Ce	Ce	0.5	5.46349e-33	0.75	2.676
Mof_Ce	Ce	0.75	5.46349e-33	0.5	2.677
Mof_Ce	Ce	0.75	0.75	0.25	3.017
Mof_Ce	Ce	3.6691e-33	2.73175e-33	0.25	2.319
Mof_Ce	Ce	1.3739e-32	0.5	0.75	2.677
Mof_Ce	Ce	0.25	0.75	0.75	3.017
Mof_Ce	Ce	0.25	0.25	0.25	3.016
Mof_Ce	Ce	0.75	0	-0	2.333
Mof_Ce	Ce	1.28017e-32	0.25	0.5	2.669
Mof_Ce	Ce	0.5	0.5	0.75	3.017
Mof_Ce	Ce	0.25	0.75	0.25	3.017
Mof_Ce	Ce	0.75	0.75	0.75	3.018
Mof_Ce	Ce	5.46349e-33	0.75	-0	2.333
Mof_Ce	Ce	0.5	2.73175e-33	0.25	2.669
Mof_Ce	Ce	0.75	0.5	0.5	3.017
Mof_Ce	Ce	0.25	0.25	0.75	3.017
Mof_Ce	Ce	2.81205e-33	5.46349e-33	0.75	2.333
Mof_Ce	Ce	1.18643e-32	0.5	0.25	2.669
Mof_Ce	Ce	0.25	0.5	-0	2.669
Mof_Ce	Ce	0.25	5.46349e-33	0.5	2.669
Mof_Ce	Ce	0.5	0.75	0.5	3.017
Mof_Ce	Ce	0.5	0.25	-0	2.669
Mof_Ce	Ce	0.75	0.25	0.25	3.017
Mof_Mn	Mn	0.5	0	-0	0.731
Mof_Mn	Mn	0.5	0.5	0.5	1.043
Mof_Mn	Mn	0.75	0.75	0.5	1.044
Mof_Mn	Mn	0.25	0.75	-0	0.889
Mof_Mn	Mn	0.25	0.5	0.25	1.042
Mof_Mn	Mn	0.75	2.73175e-33	0.25	0.889
Mof_Mn	Mn	8.27554e-33	0.25	0.75	0.889
Mof_Mn	Mn	5.46349e-33	0.5	-0	0.731
Mof_Mn	Mn	0.5	0.75	0.75	1.044
Mof_Mn	Mn	0.25	0.25	0.5	1.042
Mof_Mn	Mn	7.33819e-33	5.46349e-33	0.5	0.731
Mof_Mn	Mn	0.75	0.5	0.75	1.044
Mof_Mn	Mn	0.5	0.25	0.25	1.042
Mof_Mn	Mn	0.75	0.75	-0	0.893
Mof_Mn	Mn	0.5	5.46349e-33	0.5	0.888
Mof_Mn	Mn	0.25	0.5	0.75	1.043
Mof_Mn	Mn	0.25	2.73175e-33	0.25	0.885
Mof_Mn	Mn	0.75	5.46349e-33	0.75	0.893
Mof_Mn	Mn	6.40084e-33	0.25	0.25	0.885
Mof_Mn	Mn	0.25	0.25	-0	0.885
Mof_Mn	Mn	0.5	0.75	0.25	1.043
Mof_Mn	Mn	1.3739e-32	0.75	0.75	0.893
Mof_Mn	Mn	1.28017e-32	0.5	0.5	0.888
Mof_Mn	Mn	-0	0	-0	0.575
Mof_Mn	Mn	0.75	0.25	0.5	1.043
Mof_Mn	Mn	0.5	0.5	-0	0.888
Mof_Mn	Mn	6.40084e-33	0.75	0.25	0.888
Mof_Mn	Mn	0.25	5.46349e-33	0.75	0.888
Mof_Mn	Mn	0.75	0.25	-0	0.888
Mof_Mn	Mn	0.25	0.75	0.5	1.043
Mof_Mn	Mn	0.75	0.5	0.25	1.043
Mof_Mn	Mn	0.5	0.25	0.75	1.043
Mof_O 	O 	0.3178	0.0678	-0	-0.43
Mof_O 	O 	0.3178	0.5678	0.5	-0.347
Mof_O 	O 	0.8178	0.5678	-0	-0.42
Mof_O 	O 	0.9322	0.6822	0.5	-0.268
Mof_O 	O 	0.9322	0.1822	-0	-0.338
Mof_O 	O 	0.4322	0.6822	-0	-0.422
Mof_O 	O 	0.4322	0.5678	0.25	-0.347
Mof_O 	O 	0.4322	0.0678	0.75	-0.353
Mof_O 	O 	0.8178	0.1822	0.75	-0.346
Mof_O 	O 	0.8178	0.6822	0.25	-0.347
Mof_O 	O 	9.37146e-34	0.3178	0.0678	-0.43
Mof_O 	O 	2.12891e-33	0.8178	0.5678	-0.42
Mof_O 	O 	0.5	0.3178	0.5678	-0.347
Mof_O 	O 	0.5	0.9322	0.6822	-0.268
Mof_O 	O 	1.02443e-32	0.9322	0.1822	-0.338
Mof_O 	O 	2.55784e-33	0.4322	0.6822	-0.422
Mof_O 	O 	0.25	0.4322	0.5678	-0.347
Mof_O 	O 	0.75	0.4322	0.0678	-0.353
Mof_O 	O 	0.75	0.8178	0.1822	-0.346
Mof_O 	O 	0.25	0.8178	0.6822	-0.347
Mof_O 	O 	0.0678	0	0.3178	-0.43
Mof_O 	O 	0.0678	0.5	0.8178	-0.353
Mof_O 	O 	0.5678	0	0.8178	-0.42
Mof_O 	O 	0.6822	0.5	0.9322	-0.268
Mof_O 	O 	0.6822	5.46349e-33	0.4322	-0.422
Mof_O 	O 	0.5678	0.25	0.4322	-0.347
Mof_O 	O 	0.5678	0.75	0.9322	-0.268
Mof_O 	O 	0.0678	0.75	0.4322	-0.353
Mof_O 	O 	0.1822	0.75	0.8178	-0.346
Mof_O 	O 	0.1822	0.25	0.3178	-0.346
Mof_O 	O 	0.8178	0.0678	0.5	-0.353
Mof_O 	O 	0.4322	0.1822	0.5	-0.346
Mof_O 	O 	0.3178	0.6822	0.75	-0.347
Mof_O 	O 	0.3178	0.1822	0.25	-0.346
Mof_O 	O 	0.9322	0.0678	0.25	-0.27
Mof_O 	O 	0.9322	0.5678	0.75	-0.268
Mof_O 	O 	0.0678	0.25	0.9322	-0.27
Mof_O 	O 	0.6822	0.75	0.3178	-0.347
Mof_O 	O 	0.6822	0.25	0.8178	-0.347
Mof_O 	O 	0.1822	0.5	0.4322	-0.346
Mof_O 	O 	0.1822	1.0927e-32	0.9322	-0.338
Mof_O 	O 	0.5678	0.5	0.3178	-0.347
Mof_O 	O 	0.75	0.3178	0.6822	-0.347
Mof_O 	O 	0.25	0.3178	0.1822	-0.346
Mof_O 	O 	0.25	0.9322	0.0678	-0.27
Mof_O 	O 	0.75	0.9322	0.5678	-0.268
Mof_O 	O 	0.5	0.8178	0.0678	-0.353
Mof_O 	O 	0.5	0.4322	0.1822	-0.346
Mof_O 	O 	0.6822	0.9322	-0	-0.34
Mof_O 	O 	0.6822	0.4322	0.5	-0.347
Mof_O 	O 	0.1822	0.4322	-0	-0.422
Mof_O 	O 	0.0678	0.3178	0.5	-0.353
Mof_O 	O 	0.0678	0.8178	-0	-0.428
Mof_O 	O 	0.5678	0.4322	0.75	-0.347
Mof_O 	O 	0.5678	0.9322	0.25	-0.267
Mof_O 	O 	0.1822	0.8178	0.25	-0.346
Mof_O 	O 	0.1822	0.3178	0.75	-0.346
Mof_O 	O 	0.6822	0.8178	0.75	-0.347
Mof_O 	O 	3.49519e-33	0.6822	0.9322	-0.34
Mof_O 	O 	7.08398e-33	0.1822	0.4322	-0.422
Mof_O 	O 	0.5	0.6822	0.4322	-0.347
Mof_O 	O 	0.5	0.0678	0.3178	-0.353
Mof_O 	O 	3.06626e-33	0.0678	0.8178	-0.428
Mof_O 	O 	0.75	0.5678	0.4322	-0.347
Mof_O 	O 	0.25	0.5678	0.9322	-0.267
Mof_O 	O 	0.25	0.1822	0.8178	-0.346
Mof_O 	O 	0.75	0.1822	0.3178	-0.346
Mof_O 	O 	0.75	0.6822	0.8178	-0.347
Mof_O 	O 	0.9322	5.46349e-33	0.6822	-0.34
Mof_O 	O 	0.9322	0.5	0.1822	-0.265
Mof_O 	O 	0.4322	1.36587e-33	0.1822	-0.422
Mof_O 	O 	0.3178	0.5	0.0678	-0.353
Mof_O 	O 	0.3178	5.46349e-33	0.5678	-0.422
Mof_O 	O 	0.8178	0	0.0678	-0.428
Mof_O 	O 	0.4322	0.75	0.5678	-0.347
Mof_O 	O 	0.4322	0.25	0.0678	-0.353
Mof_O 	O 	0.8178	0.25	0.1822	-0.346
Mof_O 	O 	0.8178	0.75	0.6822	-0.347
Mof_O 	O 	0.1822	0.9322	0.5	-0.265
Mof_O 	O 	0.5678	0.8178	0.5	-0.348
Mof_O 	O 	0.5678	0.3178	-0	-0.422
Mof_O 	O 	0.6822	0.3178	0.25	-0.347
Mof_O 	O 	0.0678	0.9322	0.75	-0.272
Mof_O 	O 	0.0678	0.4322	0.25	-0.353
Mof_O 	O 	0.9322	0.75	0.0678	-0.272
Mof_O 	O 	0.9322	0.25	0.5678	-0.267
Mof_O 	O 	0.3178	0.25	0.6822	-0.347
Mof_O 	O 	0.3178	0.75	0.1822	-0.346
Mof_O 	O 	0.8178	0.5	0.5678	-0.348
Mof_O 	O 	0.4322	0.5	0.6822	-0.347
Mof_O 	O 	0.25	0.6822	0.3178	-0.347
Mof_O 	O 	0.75	0.0678	0.9322	-0.272
Mof_O 	O 	0.25	0.0678	0.4322	-0.353
Mof_O 	O 	0.5	0.1822	0.9322	-0.265
Mof_O 	O 	0.5	0.5678	0.8178	-0.348
Mof_O 	O 	1.21185e-32	0.5678	0.3178	-0.422
_end
