data_functionalizedCrystal
_audit_creation_method	'EQeq! by Chris Wilmer'
_symmetry_space_group_name_H-M	'P1'
_symmetry_Int_Tables_number	1
_symmetry_cell_setting	triclinic
loop_
_symmetry_equiv_pos_as_xyz
  x,y,z
_cell_length_a	29.557
_cell_length_b	29.557
_cell_length_c	29.557
_cell_angle_alpha	90
_cell_angle_beta	90
_cell_angle_gamma	90
loop_
_atom_site_label
_atom_site_type_symbol
_atom_site_fract_x
_atom_site_fract_y
_atom_site_fract_z
_atom_site_charge
Mof_Ni	Ni	0.7241	-7.82095e-33	0.71043	1.065
Mof_Ni	Ni	0.2759	-7.82095e-33	0.71043	1.065
Mof_Ni	Ni	0.2759	0	0.28957	1.065
Mof_Ni	Ni	0.7241	0	0.28957	1.065
Mof_Ni	Ni	0.71043	0.7241	-0	1.065
Mof_Ni	Ni	0.71043	0.2759	-0	1.065
Mof_Ni	Ni	0.28957	0.2759	-0	1.065
Mof_Ni	Ni	0.28957	0.7241	-0	1.065
Mof_Ni	Ni	2.71494e-33	0.71043	0.7241	1.065
Mof_Ni	Ni	2.9897e-33	0.71043	0.2759	1.065
Mof_Ni	Ni	2.9897e-33	0.28957	0.2759	1.065
Mof_Ni	Ni	-5.10601e-33	0.28957	0.7241	1.065
Mof_Ni	Ni	0.5	0.2241	0.78957	1.067
Mof_Ni	Ni	0.5	0.7759	0.78957	1.067
Mof_Ni	Ni	0.5	0.7759	0.21043	1.067
Mof_Ni	Ni	0.5	0.2241	0.21043	1.067
Mof_Ni	Ni	0.2241	0.21043	0.5	1.067
Mof_Ni	Ni	0.7759	0.21043	0.5	1.067
Mof_Ni	Ni	0.7759	0.78957	0.5	1.067
Mof_Ni	Ni	0.2241	0.78957	0.5	1.067
Mof_Ni	Ni	0.21043	0.5	0.7759	1.067
Mof_Ni	Ni	0.21043	0.5	0.2241	1.067
Mof_Ni	Ni	0.78957	0.5	0.2241	1.067
Mof_Ni	Ni	0.78957	0.5	0.7759	1.067
Mof_P 	P 	0.78924	0.78924	0.78924	0.569
Mof_P 	P 	0.21076	0.21076	0.78924	0.569
Mof_P 	P 	0.21076	0.78924	0.21076	0.569
Mof_P 	P 	0.78924	0.21076	0.21076	0.569
Mof_P 	P 	0.28924	0.28924	0.71076	0.569
Mof_P 	P 	0.71076	0.71076	0.71076	0.569
Mof_P 	P 	0.28924	0.71076	0.28924	0.569
Mof_P 	P 	0.71076	0.28924	0.28924	0.569
Mof_P 	P 	0.21076	0.21076	0.21076	0.569
Mof_P 	P 	0.78924	0.78924	0.21076	0.569
Mof_P 	P 	0.78924	0.21076	0.78924	0.569
Mof_P 	P 	0.21076	0.78924	0.78924	0.568
Mof_P 	P 	0.71076	0.71076	0.28924	0.568
Mof_P 	P 	0.28924	0.28924	0.28924	0.568
Mof_P 	P 	0.71076	0.28924	0.71076	0.568
Mof_P 	P 	0.28924	0.71076	0.71076	0.568
Mof_H 	H 	0.6576	0.9342	0.6708	-0.02
Mof_H 	H 	0.595	0.9313	0.6241	0.071
Mof_H 	H 	0.5435	0.9729	0.5699	0.087
Mof_H 	H 	0.7686	0.9328	0.6458	-0.003
Mof_H 	H 	0.8216	0.9317	0.5886	0.074
Mof_H 	H 	0.8808	0.0273	0.5434	0.091
Mof_H 	H 	0.3424	0.0658	0.6708	-0.018
Mof_H 	H 	0.405	0.0687	0.6241	0.072
Mof_H 	H 	0.4565	0.0271	0.5699	0.08
Mof_H 	H 	0.2314	0.0672	0.6458	-0.001
Mof_H 	H 	0.1784	0.0683	0.5886	0.075
Mof_H 	H 	0.1192	0.9727	0.5434	0.096
Mof_H 	H 	0.3424	0.9342	0.3292	-0.02
Mof_H 	H 	0.405	0.9313	0.3759	0.071
Mof_H 	H 	0.4565	0.9729	0.4301	0.087
Mof_H 	H 	0.2314	0.9328	0.3542	-0.003
Mof_H 	H 	0.1784	0.9317	0.4114	0.074
Mof_H 	H 	0.1192	0.0273	0.4566	0.09
Mof_H 	H 	0.6576	0.0658	0.3292	-0.018
Mof_H 	H 	0.595	0.0687	0.3759	0.072
Mof_H 	H 	0.5435	0.0271	0.4301	0.08
Mof_H 	H 	0.7686	0.0672	0.3542	-0.001
Mof_H 	H 	0.8216	0.0683	0.4114	0.075
Mof_H 	H 	0.8808	0.9727	0.4566	0.098
Mof_H 	H 	0.6708	0.6576	0.9342	-0.02
Mof_H 	H 	0.6241	0.595	0.9313	0.071
Mof_H 	H 	0.5699	0.5435	0.9729	0.087
Mof_H 	H 	0.6458	0.7686	0.9328	-0.003
Mof_H 	H 	0.5886	0.8216	0.9317	0.074
Mof_H 	H 	0.5434	0.8808	0.0273	0.091
Mof_H 	H 	0.6708	0.3424	0.0658	-0.018
Mof_H 	H 	0.6241	0.405	0.0687	0.072
Mof_H 	H 	0.5699	0.4565	0.0271	0.08
Mof_H 	H 	0.6458	0.2314	0.0672	-0.001
Mof_H 	H 	0.5886	0.1784	0.0683	0.075
Mof_H 	H 	0.5434	0.1192	0.9727	0.096
Mof_H 	H 	0.3292	0.3424	0.9342	-0.02
Mof_H 	H 	0.3759	0.405	0.9313	0.071
Mof_H 	H 	0.4301	0.4565	0.9729	0.087
Mof_H 	H 	0.3542	0.2314	0.9328	-0.003
Mof_H 	H 	0.4114	0.1784	0.9317	0.074
Mof_H 	H 	0.4566	0.1192	0.0273	0.09
Mof_H 	H 	0.3292	0.6576	0.0658	-0.018
Mof_H 	H 	0.3759	0.595	0.0687	0.072
Mof_H 	H 	0.4301	0.5435	0.0271	0.08
Mof_H 	H 	0.3542	0.7686	0.0672	-0.001
Mof_H 	H 	0.4114	0.8216	0.0683	0.075
Mof_H 	H 	0.4566	0.8808	0.9727	0.098
Mof_H 	H 	0.9342	0.6708	0.6576	-0.02
Mof_H 	H 	0.9313	0.6241	0.595	0.071
Mof_H 	H 	0.9729	0.5699	0.5435	0.087
Mof_H 	H 	0.9328	0.6458	0.7686	-0.003
Mof_H 	H 	0.9317	0.5886	0.8216	0.074
Mof_H 	H 	0.0273	0.5434	0.8808	0.091
Mof_H 	H 	0.0658	0.6708	0.3424	-0.018
Mof_H 	H 	0.0687	0.6241	0.405	0.072
Mof_H 	H 	0.0271	0.5699	0.4565	0.08
Mof_H 	H 	0.0672	0.6458	0.2314	-0.001
Mof_H 	H 	0.0683	0.5886	0.1784	0.075
Mof_H 	H 	0.9727	0.5434	0.1192	0.096
Mof_H 	H 	0.9342	0.3292	0.3424	-0.02
Mof_H 	H 	0.9313	0.3759	0.405	0.071
Mof_H 	H 	0.9729	0.4301	0.4565	0.087
Mof_H 	H 	0.9328	0.3542	0.2314	-0.003
Mof_H 	H 	0.9317	0.4114	0.1784	0.074
Mof_H 	H 	0.0273	0.4566	0.1192	0.09
Mof_H 	H 	0.0658	0.3292	0.6576	-0.018
Mof_H 	H 	0.0687	0.3759	0.595	0.072
Mof_H 	H 	0.0271	0.4301	0.5435	0.08
Mof_H 	H 	0.0672	0.3542	0.7686	-0.001
Mof_H 	H 	0.0683	0.4114	0.8216	0.075
Mof_H 	H 	0.9727	0.4566	0.8808	0.098
Mof_H 	H 	0.4342	0.1576	0.8292	-0.019
Mof_H 	H 	0.4313	0.095	0.8759	0.072
Mof_H 	H 	0.4729	0.0435	0.9301	0.077
Mof_H 	H 	0.4328	0.2686	0.8542	-0.002
Mof_H 	H 	0.4317	0.3216	0.9114	0.076
Mof_H 	H 	0.5273	0.3808	0.9566	0.087
Mof_H 	H 	0.5658	0.8424	0.8292	-0.019
Mof_H 	H 	0.5687	0.905	0.8759	0.074
Mof_H 	H 	0.5271	0.9565	0.9301	0.079
Mof_H 	H 	0.5672	0.7314	0.8542	-0.002
Mof_H 	H 	0.5683	0.6784	0.9114	0.076
Mof_H 	H 	0.4727	0.6192	0.9566	0.087
Mof_H 	H 	0.4342	0.8424	0.1708	-0.018
Mof_H 	H 	0.4313	0.905	0.1241	0.073
Mof_H 	H 	0.4729	0.9565	0.0699	0.076
Mof_H 	H 	0.4328	0.7314	0.1458	-0.002
Mof_H 	H 	0.4317	0.6784	0.0886	0.075
Mof_H 	H 	0.5273	0.6192	0.0434	0.086
Mof_H 	H 	0.5658	0.1576	0.1708	-0.019
Mof_H 	H 	0.5687	0.095	0.1241	0.071
Mof_H 	H 	0.5271	0.0435	0.0699	0.074
Mof_H 	H 	0.5672	0.2686	0.1458	-0.002
Mof_H 	H 	0.5683	0.3216	0.0886	0.075
Mof_H 	H 	0.4727	0.3808	0.0434	0.086
Mof_H 	H 	0.1576	0.1708	0.5658	-0.019
Mof_H 	H 	0.095	0.1241	0.5687	0.071
Mof_H 	H 	0.0435	0.0699	0.5271	0.074
Mof_H 	H 	0.2686	0.1458	0.5672	-0.002
Mof_H 	H 	0.3216	0.0886	0.5683	0.075
Mof_H 	H 	0.3808	0.0434	0.4727	0.086
Mof_H 	H 	0.8424	0.1708	0.4342	-0.018
Mof_H 	H 	0.905	0.1241	0.4313	0.073
Mof_H 	H 	0.9565	0.0699	0.4729	0.076
Mof_H 	H 	0.7314	0.1458	0.4328	-0.002
Mof_H 	H 	0.6784	0.0886	0.4317	0.075
Mof_H 	H 	0.6192	0.0434	0.5273	0.086
Mof_H 	H 	0.8424	0.8292	0.5658	-0.019
Mof_H 	H 	0.905	0.8759	0.5687	0.074
Mof_H 	H 	0.9565	0.9301	0.5271	0.079
Mof_H 	H 	0.7314	0.8542	0.5672	-0.002
Mof_H 	H 	0.6784	0.9114	0.5683	0.076
Mof_H 	H 	0.6192	0.9566	0.4727	0.087
Mof_H 	H 	0.1576	0.8292	0.4342	-0.019
Mof_H 	H 	0.095	0.8759	0.4313	0.072
Mof_H 	H 	0.0435	0.9301	0.4729	0.077
Mof_H 	H 	0.2686	0.8542	0.4328	-0.002
Mof_H 	H 	0.3216	0.9114	0.4317	0.076
Mof_H 	H 	0.3808	0.9566	0.5273	0.087
Mof_H 	H 	0.1708	0.4342	0.8424	-0.018
Mof_H 	H 	0.1241	0.4313	0.905	0.073
Mof_H 	H 	0.0699	0.4729	0.9565	0.076
Mof_H 	H 	0.1458	0.4328	0.7314	-0.002
Mof_H 	H 	0.0886	0.4317	0.6784	0.075
Mof_H 	H 	0.0434	0.5273	0.6192	0.086
Mof_H 	H 	0.1708	0.5658	0.1576	-0.019
Mof_H 	H 	0.1241	0.5687	0.095	0.071
Mof_H 	H 	0.0699	0.5271	0.0435	0.074
Mof_H 	H 	0.1458	0.5672	0.2686	-0.002
Mof_H 	H 	0.0886	0.5683	0.3216	0.075
Mof_H 	H 	0.0434	0.4727	0.3808	0.086
Mof_H 	H 	0.8292	0.4342	0.1576	-0.019
Mof_H 	H 	0.8759	0.4313	0.095	0.072
Mof_H 	H 	0.9301	0.4729	0.0435	0.077
Mof_H 	H 	0.8542	0.4328	0.2686	-0.002
Mof_H 	H 	0.9114	0.4317	0.3216	0.076
Mof_H 	H 	0.9566	0.5273	0.3808	0.087
Mof_H 	H 	0.8292	0.5658	0.8424	-0.019
Mof_H 	H 	0.8759	0.5687	0.905	0.074
Mof_H 	H 	0.9301	0.5271	0.9565	0.079
Mof_H 	H 	0.8542	0.5672	0.7314	-0.002
Mof_H 	H 	0.9114	0.5683	0.6784	0.076
Mof_H 	H 	0.9566	0.4727	0.6192	0.087
Mof_H 	H 	0.3424	0.0658	0.3292	-0.018
Mof_H 	H 	0.405	0.0687	0.3759	0.072
Mof_H 	H 	0.4565	0.0271	0.4301	0.08
Mof_H 	H 	0.2314	0.0672	0.3542	-0.001
Mof_H 	H 	0.1784	0.0683	0.4114	0.075
Mof_H 	H 	0.1192	0.9727	0.4566	0.096
Mof_H 	H 	0.6576	0.9342	0.3292	-0.02
Mof_H 	H 	0.595	0.9313	0.3759	0.071
Mof_H 	H 	0.5435	0.9729	0.4301	0.087
Mof_H 	H 	0.7686	0.9328	0.3542	-0.003
Mof_H 	H 	0.8216	0.9317	0.4114	0.074
Mof_H 	H 	0.8808	0.0273	0.4566	0.091
Mof_H 	H 	0.6576	0.0658	0.6708	-0.018
Mof_H 	H 	0.595	0.0687	0.6241	0.072
Mof_H 	H 	0.5435	0.0271	0.5699	0.08
Mof_H 	H 	0.7686	0.0672	0.6458	-0.001
Mof_H 	H 	0.8216	0.0683	0.5886	0.075
Mof_H 	H 	0.8808	0.9727	0.5434	0.098
Mof_H 	H 	0.3424	0.9342	0.6708	-0.02
Mof_H 	H 	0.405	0.9313	0.6241	0.071
Mof_H 	H 	0.4565	0.9729	0.5699	0.087
Mof_H 	H 	0.2314	0.9328	0.6458	-0.003
Mof_H 	H 	0.1784	0.9317	0.5886	0.074
Mof_H 	H 	0.1192	0.0273	0.5434	0.09
Mof_H 	H 	0.3292	0.3424	0.0658	-0.018
Mof_H 	H 	0.3759	0.405	0.0687	0.072
Mof_H 	H 	0.4301	0.4565	0.0271	0.08
Mof_H 	H 	0.3542	0.2314	0.0672	-0.001
Mof_H 	H 	0.4114	0.1784	0.0683	0.075
Mof_H 	H 	0.4566	0.1192	0.9727	0.096
Mof_H 	H 	0.3292	0.6576	0.9342	-0.02
Mof_H 	H 	0.3759	0.595	0.9313	0.071
Mof_H 	H 	0.4301	0.5435	0.9729	0.087
Mof_H 	H 	0.3542	0.7686	0.9328	-0.003
Mof_H 	H 	0.4114	0.8216	0.9317	0.074
Mof_H 	H 	0.4566	0.8808	0.0273	0.091
Mof_H 	H 	0.6708	0.6576	0.0658	-0.018
Mof_H 	H 	0.6241	0.595	0.0687	0.072
Mof_H 	H 	0.5699	0.5435	0.0271	0.08
Mof_H 	H 	0.6458	0.7686	0.0672	-0.001
Mof_H 	H 	0.5886	0.8216	0.0683	0.075
Mof_H 	H 	0.5434	0.8808	0.9727	0.098
Mof_H 	H 	0.6708	0.3424	0.9342	-0.02
Mof_H 	H 	0.6241	0.405	0.9313	0.071
Mof_H 	H 	0.5699	0.4565	0.9729	0.087
Mof_H 	H 	0.6458	0.2314	0.9328	-0.003
Mof_H 	H 	0.5886	0.1784	0.9317	0.074
Mof_H 	H 	0.5434	0.1192	0.0273	0.09
Mof_H 	H 	0.0658	0.3292	0.3424	-0.018
Mof_H 	H 	0.0687	0.3759	0.405	0.072
Mof_H 	H 	0.0271	0.4301	0.4565	0.08
Mof_H 	H 	0.0672	0.3542	0.2314	-0.001
Mof_H 	H 	0.0683	0.4114	0.1784	0.075
Mof_H 	H 	0.9727	0.4566	0.1192	0.096
Mof_H 	H 	0.9342	0.3292	0.6576	-0.02
Mof_H 	H 	0.9313	0.3759	0.595	0.071
Mof_H 	H 	0.9729	0.4301	0.5435	0.087
Mof_H 	H 	0.9328	0.3542	0.7686	-0.003
Mof_H 	H 	0.9317	0.4114	0.8216	0.074
Mof_H 	H 	0.0273	0.4566	0.8808	0.091
Mof_H 	H 	0.0658	0.6708	0.6576	-0.018
Mof_H 	H 	0.0687	0.6241	0.595	0.072
Mof_H 	H 	0.0271	0.5699	0.5435	0.08
Mof_H 	H 	0.0672	0.6458	0.7686	-0.001
Mof_H 	H 	0.0683	0.5886	0.8216	0.075
Mof_H 	H 	0.9727	0.5434	0.8808	0.098
Mof_H 	H 	0.9342	0.6708	0.3424	-0.02
Mof_H 	H 	0.9313	0.6241	0.405	0.071
Mof_H 	H 	0.9729	0.5699	0.4565	0.087
Mof_H 	H 	0.9328	0.6458	0.2314	-0.003
Mof_H 	H 	0.9317	0.5886	0.1784	0.074
Mof_H 	H 	0.0273	0.5434	0.1192	0.09
Mof_H 	H 	0.5658	0.8424	0.1708	-0.018
Mof_H 	H 	0.5687	0.905	0.1241	0.073
Mof_H 	H 	0.5271	0.9565	0.0699	0.076
Mof_H 	H 	0.5672	0.7314	0.1458	-0.002
Mof_H 	H 	0.5683	0.6784	0.0886	0.075
Mof_H 	H 	0.4727	0.6192	0.0434	0.086
Mof_H 	H 	0.4342	0.1576	0.1708	-0.019
Mof_H 	H 	0.4313	0.095	0.1241	0.071
Mof_H 	H 	0.4729	0.0435	0.0699	0.074
Mof_H 	H 	0.4328	0.2686	0.1458	-0.002
Mof_H 	H 	0.4317	0.3216	0.0886	0.075
Mof_H 	H 	0.5273	0.3808	0.0434	0.086
Mof_H 	H 	0.5658	0.1576	0.8292	-0.019
Mof_H 	H 	0.5687	0.095	0.8759	0.072
Mof_H 	H 	0.5271	0.0435	0.9301	0.077
Mof_H 	H 	0.5672	0.2686	0.8542	-0.002
Mof_H 	H 	0.5683	0.3216	0.9114	0.076
Mof_H 	H 	0.4727	0.3808	0.9566	0.087
Mof_H 	H 	0.4342	0.8424	0.8292	-0.019
Mof_H 	H 	0.4313	0.905	0.8759	0.074
Mof_H 	H 	0.4729	0.9565	0.9301	0.079
Mof_H 	H 	0.4328	0.7314	0.8542	-0.002
Mof_H 	H 	0.4317	0.6784	0.9114	0.076
Mof_H 	H 	0.5273	0.6192	0.9566	0.087
Mof_H 	H 	0.8424	0.8292	0.4342	-0.019
Mof_H 	H 	0.905	0.8759	0.4313	0.074
Mof_H 	H 	0.9565	0.9301	0.4729	0.079
Mof_H 	H 	0.7314	0.8542	0.4328	-0.002
Mof_H 	H 	0.6784	0.9114	0.4317	0.076
Mof_H 	H 	0.6192	0.9566	0.5273	0.087
Mof_H 	H 	0.1576	0.8292	0.5658	-0.019
Mof_H 	H 	0.095	0.8759	0.5687	0.072
Mof_H 	H 	0.0435	0.9301	0.5271	0.077
Mof_H 	H 	0.2686	0.8542	0.5672	-0.002
Mof_H 	H 	0.3216	0.9114	0.5683	0.076
Mof_H 	H 	0.3808	0.9566	0.4727	0.087
Mof_H 	H 	0.1576	0.1708	0.4342	-0.019
Mof_H 	H 	0.095	0.1241	0.4313	0.071
Mof_H 	H 	0.0435	0.0699	0.4729	0.074
Mof_H 	H 	0.2686	0.1458	0.4328	-0.002
Mof_H 	H 	0.3216	0.0886	0.4317	0.075
Mof_H 	H 	0.3808	0.0434	0.5273	0.086
Mof_H 	H 	0.8424	0.1708	0.5658	-0.018
Mof_H 	H 	0.905	0.1241	0.5687	0.073
Mof_H 	H 	0.9565	0.0699	0.5271	0.076
Mof_H 	H 	0.7314	0.1458	0.5672	-0.002
Mof_H 	H 	0.6784	0.0886	0.5683	0.075
Mof_H 	H 	0.6192	0.0434	0.4727	0.086
Mof_H 	H 	0.8292	0.5658	0.1576	-0.019
Mof_H 	H 	0.8759	0.5687	0.095	0.072
Mof_H 	H 	0.9301	0.5271	0.0435	0.077
Mof_H 	H 	0.8542	0.5672	0.2686	-0.002
Mof_H 	H 	0.9114	0.5683	0.3216	0.076
Mof_H 	H 	0.9566	0.4727	0.3808	0.087
Mof_H 	H 	0.8292	0.4342	0.8424	-0.019
Mof_H 	H 	0.8759	0.4313	0.905	0.074
Mof_H 	H 	0.9301	0.4729	0.9565	0.079
Mof_H 	H 	0.8542	0.4328	0.7314	-0.002
Mof_H 	H 	0.9114	0.4317	0.6784	0.076
Mof_H 	H 	0.9566	0.5273	0.6192	0.087
Mof_H 	H 	0.1708	0.5658	0.8424	-0.018
Mof_H 	H 	0.1241	0.5687	0.905	0.073
Mof_H 	H 	0.0699	0.5271	0.9565	0.076
Mof_H 	H 	0.1458	0.5672	0.7314	-0.002
Mof_H 	H 	0.0886	0.5683	0.6784	0.075
Mof_H 	H 	0.0434	0.4727	0.6192	0.086
Mof_H 	H 	0.1708	0.4342	0.1576	-0.019
Mof_H 	H 	0.1241	0.4313	0.095	0.071
Mof_H 	H 	0.0699	0.4729	0.0435	0.074
Mof_H 	H 	0.1458	0.4328	0.2686	-0.002
Mof_H 	H 	0.0886	0.4317	0.3216	0.075
Mof_H 	H 	0.0434	0.5273	0.3808	0.086
Mof_H 	H 	0.5	0.9729	0.6387	0.025
Mof_H 	H 	0.5	0.0271	0.6387	0.018
Mof_H 	H 	0.5	0.9729	0.3613	0.025
Mof_H 	H 	0.5	0.0271	0.3613	0.018
Mof_H 	H 	0.6387	0.5	0.9729	0.025
Mof_H 	H 	0.6387	0.5	0.0271	0.018
Mof_H 	H 	0.3613	0.5	0.9729	0.025
Mof_H 	H 	0.3613	0.5	0.0271	0.018
Mof_H 	H 	0.9729	0.6387	0.5	0.025
Mof_H 	H 	0.0271	0.6387	0.5	0.018
Mof_H 	H 	0.9729	0.3613	0.5	0.025
Mof_H 	H 	0.0271	0.3613	0.5	0.018
Mof_H 	H 	0.4729	7.82095e-33	0.8613	0.016
Mof_H 	H 	0.5271	7.82095e-33	0.8613	0.016
Mof_H 	H 	0.4729	0	0.1387	0.017
Mof_H 	H 	0.5271	0	0.1387	0.017
Mof_H 	H 	5.88678e-33	0.1387	0.5271	0.017
Mof_H 	H 	1.77309e-33	0.1387	0.4729	0.017
Mof_H 	H 	1.37077e-32	0.8613	0.5271	0.016
Mof_H 	H 	9.59404e-33	0.8613	0.4729	0.016
Mof_H 	H 	0.1387	0.4729	-0	0.017
Mof_H 	H 	0.1387	0.5271	-0	0.017
Mof_H 	H 	0.8613	0.4729	-0	0.016
Mof_H 	H 	0.8613	0.5271	-0	0.016
Mof_H 	H 	0.8128	0.0271	0.5	0.021
Mof_H 	H 	0.1872	0.9729	0.5	0.028
Mof_H 	H 	0.1872	0.0271	0.5	0.021
Mof_H 	H 	0.8128	0.9729	0.5	0.027
Mof_H 	H 	0.5	0.8128	0.0271	0.021
Mof_H 	H 	0.5	0.1872	0.9729	0.028
Mof_H 	H 	0.5	0.1872	0.0271	0.021
Mof_H 	H 	0.5	0.8128	0.9729	0.027
Mof_H 	H 	0.0271	0.5	0.8128	0.021
Mof_H 	H 	0.9729	0.5	0.1872	0.028
Mof_H 	H 	0.0271	0.5	0.1872	0.021
Mof_H 	H 	0.9729	0.5	0.8128	0.027
Mof_H 	H 	0.5271	0.3128	-0	0.021
Mof_H 	H 	0.4729	0.6872	-0	0.021
Mof_H 	H 	0.5271	0.6872	-0	0.021
Mof_H 	H 	0.4729	0.3128	-0	0.021
Mof_H 	H 	0.3128	0	0.4729	0.021
Mof_H 	H 	0.6872	3.91047e-33	0.5271	0.021
Mof_H 	H 	0.6872	0	0.4729	0.021
Mof_H 	H 	0.3128	3.91047e-33	0.5271	0.021
Mof_H 	H 	-1.30653e-32	0.5271	0.6872	0.021
Mof_H 	H 	8.99376e-33	0.4729	0.3128	0.021
Mof_H 	H 	1.29042e-32	0.5271	0.3128	0.021
Mof_H 	H 	-2.08863e-32	0.4729	0.6872	0.021
Mof_W 	W 	0.69027	0.83891	0.83419	1.059
Mof_W 	W 	0.73584	0.88081	0.74019	1.358
Mof_W 	W 	0.84501	0.89271	0.8002	1.013
Mof_W 	W 	0.30973	0.16109	0.83419	1.057
Mof_W 	W 	0.26416	0.11919	0.74019	1.357
Mof_W 	W 	0.15499	0.10729	0.8002	1.006
Mof_W 	W 	0.30973	0.83891	0.16581	1.057
Mof_W 	W 	0.26416	0.88081	0.25981	1.358
Mof_W 	W 	0.15499	0.89271	0.1998	1.01
Mof_W 	W 	0.69027	0.16109	0.16581	1.056
Mof_W 	W 	0.73584	0.11919	0.25981	1.357
Mof_W 	W 	0.84501	0.10729	0.1998	1.008
Mof_W 	W 	0.83419	0.69027	0.83891	1.059
Mof_W 	W 	0.74019	0.73584	0.88081	1.358
Mof_W 	W 	0.8002	0.84501	0.89271	1.013
Mof_W 	W 	0.83419	0.30973	0.16109	1.057
Mof_W 	W 	0.74019	0.26416	0.11919	1.357
Mof_W 	W 	0.8002	0.15499	0.10729	1.006
Mof_W 	W 	0.16581	0.30973	0.83891	1.057
Mof_W 	W 	0.25981	0.26416	0.88081	1.358
Mof_W 	W 	0.1998	0.15499	0.89271	1.01
Mof_W 	W 	0.16581	0.69027	0.16109	1.056
Mof_W 	W 	0.25981	0.73584	0.11919	1.357
Mof_W 	W 	0.1998	0.84501	0.10729	1.008
Mof_W 	W 	0.83891	0.83419	0.69027	1.059
Mof_W 	W 	0.88081	0.74019	0.73584	1.358
Mof_W 	W 	0.89271	0.8002	0.84501	1.013
Mof_W 	W 	0.16109	0.83419	0.30973	1.057
Mof_W 	W 	0.11919	0.74019	0.26416	1.357
Mof_W 	W 	0.10729	0.8002	0.15499	1.006
Mof_W 	W 	0.83891	0.16581	0.30973	1.057
Mof_W 	W 	0.88081	0.25981	0.26416	1.358
Mof_W 	W 	0.89271	0.1998	0.15499	1.01
Mof_W 	W 	0.16109	0.16581	0.69027	1.056
Mof_W 	W 	0.11919	0.25981	0.73584	1.357
Mof_W 	W 	0.10729	0.1998	0.84501	1.008
Mof_W 	W 	0.33891	0.19027	0.66581	1.057
Mof_W 	W 	0.38081	0.23584	0.75981	1.358
Mof_W 	W 	0.39271	0.34501	0.6998	1.009
Mof_W 	W 	0.66109	0.80973	0.66581	1.057
Mof_W 	W 	0.61919	0.76416	0.75981	1.358
Mof_W 	W 	0.60729	0.65499	0.6998	1.009
Mof_W 	W 	0.33891	0.80973	0.33419	1.058
Mof_W 	W 	0.38081	0.76416	0.24019	1.358
Mof_W 	W 	0.39271	0.65499	0.3002	1.009
Mof_W 	W 	0.66109	0.19027	0.33419	1.057
Mof_W 	W 	0.61919	0.23584	0.24019	1.358
Mof_W 	W 	0.60729	0.34501	0.3002	1.009
Mof_W 	W 	0.19027	0.33419	0.66109	1.057
Mof_W 	W 	0.23584	0.24019	0.61919	1.358
Mof_W 	W 	0.34501	0.3002	0.60729	1.009
Mof_W 	W 	0.80973	0.33419	0.33891	1.058
Mof_W 	W 	0.76416	0.24019	0.38081	1.358
Mof_W 	W 	0.65499	0.3002	0.39271	1.009
Mof_W 	W 	0.80973	0.66581	0.66109	1.057
Mof_W 	W 	0.76416	0.75981	0.61919	1.358
Mof_W 	W 	0.65499	0.6998	0.60729	1.009
Mof_W 	W 	0.19027	0.66581	0.33891	1.057
Mof_W 	W 	0.23584	0.75981	0.38081	1.358
Mof_W 	W 	0.34501	0.6998	0.39271	1.009
Mof_W 	W 	0.33419	0.33891	0.80973	1.058
Mof_W 	W 	0.24019	0.38081	0.76416	1.358
Mof_W 	W 	0.3002	0.39271	0.65499	1.009
Mof_W 	W 	0.33419	0.66109	0.19027	1.057
Mof_W 	W 	0.24019	0.61919	0.23584	1.358
Mof_W 	W 	0.3002	0.60729	0.34501	1.009
Mof_W 	W 	0.66581	0.33891	0.19027	1.057
Mof_W 	W 	0.75981	0.38081	0.23584	1.358
Mof_W 	W 	0.6998	0.39271	0.34501	1.009
Mof_W 	W 	0.66581	0.66109	0.80973	1.057
Mof_W 	W 	0.75981	0.61919	0.76416	1.358
Mof_W 	W 	0.6998	0.60729	0.65499	1.009
Mof_W 	W 	0.30973	0.16109	0.16581	1.056
Mof_W 	W 	0.26416	0.11919	0.25981	1.357
Mof_W 	W 	0.15499	0.10729	0.1998	1.006
Mof_W 	W 	0.69027	0.83891	0.16581	1.057
Mof_W 	W 	0.73584	0.88081	0.25981	1.358
Mof_W 	W 	0.84501	0.89271	0.1998	1.012
Mof_W 	W 	0.69027	0.16109	0.83419	1.057
Mof_W 	W 	0.73584	0.11919	0.74019	1.357
Mof_W 	W 	0.84501	0.10729	0.8002	1.009
Mof_W 	W 	0.30973	0.83891	0.83419	1.059
Mof_W 	W 	0.26416	0.88081	0.74019	1.358
Mof_W 	W 	0.15499	0.89271	0.8002	1.011
Mof_W 	W 	0.16581	0.30973	0.16109	1.056
Mof_W 	W 	0.25981	0.26416	0.11919	1.357
Mof_W 	W 	0.1998	0.15499	0.10729	1.006
Mof_W 	W 	0.16581	0.69027	0.83891	1.057
Mof_W 	W 	0.25981	0.73584	0.88081	1.358
Mof_W 	W 	0.1998	0.84501	0.89271	1.012
Mof_W 	W 	0.83419	0.69027	0.16109	1.057
Mof_W 	W 	0.74019	0.73584	0.11919	1.357
Mof_W 	W 	0.8002	0.84501	0.10729	1.009
Mof_W 	W 	0.83419	0.30973	0.83891	1.059
Mof_W 	W 	0.74019	0.26416	0.88081	1.358
Mof_W 	W 	0.8002	0.15499	0.89271	1.011
Mof_W 	W 	0.16109	0.16581	0.30973	1.056
Mof_W 	W 	0.11919	0.25981	0.26416	1.357
Mof_W 	W 	0.10729	0.1998	0.15499	1.006
Mof_W 	W 	0.83891	0.16581	0.69027	1.057
Mof_W 	W 	0.88081	0.25981	0.73584	1.358
Mof_W 	W 	0.89271	0.1998	0.84501	1.012
Mof_W 	W 	0.16109	0.83419	0.69027	1.057
Mof_W 	W 	0.11919	0.74019	0.73584	1.357
Mof_W 	W 	0.10729	0.8002	0.84501	1.009
Mof_W 	W 	0.83891	0.83419	0.30973	1.059
Mof_W 	W 	0.88081	0.74019	0.26416	1.358
Mof_W 	W 	0.89271	0.8002	0.15499	1.011
Mof_W 	W 	0.66109	0.80973	0.33419	1.057
Mof_W 	W 	0.61919	0.76416	0.24019	1.358
Mof_W 	W 	0.60729	0.65499	0.3002	1.009
Mof_W 	W 	0.33891	0.19027	0.33419	1.057
Mof_W 	W 	0.38081	0.23584	0.24019	1.358
Mof_W 	W 	0.39271	0.34501	0.3002	1.009
Mof_W 	W 	0.66109	0.19027	0.66581	1.057
Mof_W 	W 	0.61919	0.23584	0.75981	1.358
Mof_W 	W 	0.60729	0.34501	0.6998	1.009
Mof_W 	W 	0.33891	0.80973	0.66581	1.057
Mof_W 	W 	0.38081	0.76416	0.75981	1.358
Mof_W 	W 	0.39271	0.65499	0.6998	1.009
Mof_W 	W 	0.80973	0.66581	0.33891	1.057
Mof_W 	W 	0.76416	0.75981	0.38081	1.358
Mof_W 	W 	0.65499	0.6998	0.39271	1.009
Mof_W 	W 	0.19027	0.66581	0.66109	1.057
Mof_W 	W 	0.23584	0.75981	0.61919	1.358
Mof_W 	W 	0.34501	0.6998	0.60729	1.009
Mof_W 	W 	0.19027	0.33419	0.33891	1.057
Mof_W 	W 	0.23584	0.24019	0.38081	1.358
Mof_W 	W 	0.34501	0.3002	0.39271	1.009
Mof_W 	W 	0.80973	0.33419	0.66109	1.057
Mof_W 	W 	0.76416	0.24019	0.61919	1.358
Mof_W 	W 	0.65499	0.3002	0.60729	1.009
Mof_W 	W 	0.66581	0.66109	0.19027	1.057
Mof_W 	W 	0.75981	0.61919	0.23584	1.358
Mof_W 	W 	0.6998	0.60729	0.34501	1.009
Mof_W 	W 	0.66581	0.33891	0.80973	1.057
Mof_W 	W 	0.75981	0.38081	0.76416	1.358
Mof_W 	W 	0.6998	0.39271	0.65499	1.009
Mof_W 	W 	0.33419	0.66109	0.80973	1.057
Mof_W 	W 	0.24019	0.61919	0.76416	1.358
Mof_W 	W 	0.3002	0.60729	0.65499	1.009
Mof_W 	W 	0.33419	0.33891	0.19027	1.057
Mof_W 	W 	0.24019	0.38081	0.23584	1.358
Mof_W 	W 	0.3002	0.39271	0.34501	1.009
Mof_C 	C 	0.6452	0.9617	0.6596	0.105
Mof_C 	C 	0.6072	0.9597	0.633	-0.183
Mof_C 	C 	0.7802	0.9609	0.6354	0.071
Mof_C 	C 	0.8112	0.96	0.5997	-0.168
Mof_C 	C 	0.3548	0.0383	0.6596	0.096
Mof_C 	C 	0.3928	0.0403	0.633	-0.189
Mof_C 	C 	0.2198	0.0391	0.6354	0.062
Mof_C 	C 	0.1888	0.04	0.5997	-0.175
Mof_C 	C 	0.3548	0.9617	0.3404	0.105
Mof_C 	C 	0.3928	0.9597	0.367	-0.183
Mof_C 	C 	0.2198	0.9609	0.3646	0.07
Mof_C 	C 	0.1888	0.96	0.4003	-0.167
Mof_C 	C 	0.6452	0.0383	0.3404	0.096
Mof_C 	C 	0.6072	0.0403	0.367	-0.189
Mof_C 	C 	0.7802	0.0391	0.3646	0.062
Mof_C 	C 	0.8112	0.04	0.4003	-0.175
Mof_C 	C 	0.6596	0.6452	0.9617	0.105
Mof_C 	C 	0.633	0.6072	0.9597	-0.183
Mof_C 	C 	0.6354	0.7802	0.9609	0.071
Mof_C 	C 	0.5997	0.8112	0.96	-0.168
Mof_C 	C 	0.6596	0.3548	0.0383	0.096
Mof_C 	C 	0.633	0.3928	0.0403	-0.189
Mof_C 	C 	0.6354	0.2198	0.0391	0.062
Mof_C 	C 	0.5997	0.1888	0.04	-0.175
Mof_C 	C 	0.3404	0.3548	0.9617	0.105
Mof_C 	C 	0.367	0.3928	0.9597	-0.183
Mof_C 	C 	0.3646	0.2198	0.9609	0.07
Mof_C 	C 	0.4003	0.1888	0.96	-0.167
Mof_C 	C 	0.3404	0.6452	0.0383	0.096
Mof_C 	C 	0.367	0.6072	0.0403	-0.189
Mof_C 	C 	0.3646	0.7802	0.0391	0.062
Mof_C 	C 	0.4003	0.8112	0.04	-0.175
Mof_C 	C 	0.9617	0.6596	0.6452	0.105
Mof_C 	C 	0.9597	0.633	0.6072	-0.183
Mof_C 	C 	0.9609	0.6354	0.7802	0.071
Mof_C 	C 	0.96	0.5997	0.8112	-0.168
Mof_C 	C 	0.0383	0.6596	0.3548	0.096
Mof_C 	C 	0.0403	0.633	0.3928	-0.189
Mof_C 	C 	0.0391	0.6354	0.2198	0.062
Mof_C 	C 	0.04	0.5997	0.1888	-0.175
Mof_C 	C 	0.9617	0.3404	0.3548	0.105
Mof_C 	C 	0.9597	0.367	0.3928	-0.183
Mof_C 	C 	0.9609	0.3646	0.2198	0.07
Mof_C 	C 	0.96	0.4003	0.1888	-0.167
Mof_C 	C 	0.0383	0.3404	0.6452	0.096
Mof_C 	C 	0.0403	0.367	0.6072	-0.189
Mof_C 	C 	0.0391	0.3646	0.7802	0.062
Mof_C 	C 	0.04	0.4003	0.8112	-0.175
Mof_C 	C 	0.4617	0.1452	0.8404	0.098
Mof_C 	C 	0.4597	0.1072	0.867	-0.191
Mof_C 	C 	0.4609	0.2802	0.8646	0.064
Mof_C 	C 	0.46	0.3112	0.9003	-0.174
Mof_C 	C 	0.5383	0.8548	0.8404	0.099
Mof_C 	C 	0.5403	0.8928	0.867	-0.19
Mof_C 	C 	0.5391	0.7198	0.8646	0.064
Mof_C 	C 	0.54	0.6888	0.9003	-0.174
Mof_C 	C 	0.4617	0.8548	0.1596	0.098
Mof_C 	C 	0.4597	0.8928	0.133	-0.189
Mof_C 	C 	0.4609	0.7198	0.1354	0.064
Mof_C 	C 	0.46	0.6888	0.0997	-0.176
Mof_C 	C 	0.5383	0.1452	0.1596	0.097
Mof_C 	C 	0.5403	0.1072	0.133	-0.189
Mof_C 	C 	0.5391	0.2802	0.1354	0.064
Mof_C 	C 	0.54	0.3112	0.0997	-0.175
Mof_C 	C 	0.1452	0.1596	0.5383	0.097
Mof_C 	C 	0.1072	0.133	0.5403	-0.189
Mof_C 	C 	0.2802	0.1354	0.5391	0.064
Mof_C 	C 	0.3112	0.0997	0.54	-0.175
Mof_C 	C 	0.8548	0.1596	0.4617	0.098
Mof_C 	C 	0.8928	0.133	0.4597	-0.189
Mof_C 	C 	0.7198	0.1354	0.4609	0.064
Mof_C 	C 	0.6888	0.0997	0.46	-0.176
Mof_C 	C 	0.8548	0.8404	0.5383	0.099
Mof_C 	C 	0.8928	0.867	0.5403	-0.19
Mof_C 	C 	0.7198	0.8646	0.5391	0.064
Mof_C 	C 	0.6888	0.9003	0.54	-0.174
Mof_C 	C 	0.1452	0.8404	0.4617	0.098
Mof_C 	C 	0.1072	0.867	0.4597	-0.191
Mof_C 	C 	0.2802	0.8646	0.4609	0.064
Mof_C 	C 	0.3112	0.9003	0.46	-0.174
Mof_C 	C 	0.1596	0.4617	0.8548	0.098
Mof_C 	C 	0.133	0.4597	0.8928	-0.189
Mof_C 	C 	0.1354	0.4609	0.7198	0.064
Mof_C 	C 	0.0997	0.46	0.6888	-0.176
Mof_C 	C 	0.1596	0.5383	0.1452	0.097
Mof_C 	C 	0.133	0.5403	0.1072	-0.189
Mof_C 	C 	0.1354	0.5391	0.2802	0.064
Mof_C 	C 	0.0997	0.54	0.3112	-0.175
Mof_C 	C 	0.8404	0.4617	0.1452	0.098
Mof_C 	C 	0.867	0.4597	0.1072	-0.191
Mof_C 	C 	0.8646	0.4609	0.2802	0.064
Mof_C 	C 	0.9003	0.46	0.3112	-0.174
Mof_C 	C 	0.8404	0.5383	0.8548	0.099
Mof_C 	C 	0.867	0.5403	0.8928	-0.19
Mof_C 	C 	0.8646	0.5391	0.7198	0.064
Mof_C 	C 	0.9003	0.54	0.6888	-0.174
Mof_C 	C 	0.3548	0.0383	0.3404	0.096
Mof_C 	C 	0.3928	0.0403	0.367	-0.189
Mof_C 	C 	0.2198	0.0391	0.3646	0.062
Mof_C 	C 	0.1888	0.04	0.4003	-0.175
Mof_C 	C 	0.6452	0.9617	0.3404	0.105
Mof_C 	C 	0.6072	0.9597	0.367	-0.183
Mof_C 	C 	0.7802	0.9609	0.3646	0.071
Mof_C 	C 	0.8112	0.96	0.4003	-0.168
Mof_C 	C 	0.6452	0.0383	0.6596	0.096
Mof_C 	C 	0.6072	0.0403	0.633	-0.189
Mof_C 	C 	0.7802	0.0391	0.6354	0.062
Mof_C 	C 	0.8112	0.04	0.5997	-0.175
Mof_C 	C 	0.3548	0.9617	0.6596	0.105
Mof_C 	C 	0.3928	0.9597	0.633	-0.183
Mof_C 	C 	0.2198	0.9609	0.6354	0.07
Mof_C 	C 	0.1888	0.96	0.5997	-0.167
Mof_C 	C 	0.3404	0.3548	0.0383	0.096
Mof_C 	C 	0.367	0.3928	0.0403	-0.189
Mof_C 	C 	0.3646	0.2198	0.0391	0.062
Mof_C 	C 	0.4003	0.1888	0.04	-0.175
Mof_C 	C 	0.3404	0.6452	0.9617	0.105
Mof_C 	C 	0.367	0.6072	0.9597	-0.183
Mof_C 	C 	0.3646	0.7802	0.9609	0.071
Mof_C 	C 	0.4003	0.8112	0.96	-0.168
Mof_C 	C 	0.6596	0.6452	0.0383	0.096
Mof_C 	C 	0.633	0.6072	0.0403	-0.189
Mof_C 	C 	0.6354	0.7802	0.0391	0.062
Mof_C 	C 	0.5997	0.8112	0.04	-0.175
Mof_C 	C 	0.6596	0.3548	0.9617	0.105
Mof_C 	C 	0.633	0.3928	0.9597	-0.183
Mof_C 	C 	0.6354	0.2198	0.9609	0.07
Mof_C 	C 	0.5997	0.1888	0.96	-0.167
Mof_C 	C 	0.0383	0.3404	0.3548	0.096
Mof_C 	C 	0.0403	0.367	0.3928	-0.189
Mof_C 	C 	0.0391	0.3646	0.2198	0.062
Mof_C 	C 	0.04	0.4003	0.1888	-0.175
Mof_C 	C 	0.9617	0.3404	0.6452	0.105
Mof_C 	C 	0.9597	0.367	0.6072	-0.183
Mof_C 	C 	0.9609	0.3646	0.7802	0.071
Mof_C 	C 	0.96	0.4003	0.8112	-0.168
Mof_C 	C 	0.0383	0.6596	0.6452	0.096
Mof_C 	C 	0.0403	0.633	0.6072	-0.189
Mof_C 	C 	0.0391	0.6354	0.7802	0.062
Mof_C 	C 	0.04	0.5997	0.8112	-0.175
Mof_C 	C 	0.9617	0.6596	0.3548	0.105
Mof_C 	C 	0.9597	0.633	0.3928	-0.183
Mof_C 	C 	0.9609	0.6354	0.2198	0.07
Mof_C 	C 	0.96	0.5997	0.1888	-0.167
Mof_C 	C 	0.5383	0.8548	0.1596	0.098
Mof_C 	C 	0.5403	0.8928	0.133	-0.189
Mof_C 	C 	0.5391	0.7198	0.1354	0.064
Mof_C 	C 	0.54	0.6888	0.0997	-0.176
Mof_C 	C 	0.4617	0.1452	0.1596	0.097
Mof_C 	C 	0.4597	0.1072	0.133	-0.189
Mof_C 	C 	0.4609	0.2802	0.1354	0.064
Mof_C 	C 	0.46	0.3112	0.0997	-0.175
Mof_C 	C 	0.5383	0.1452	0.8404	0.098
Mof_C 	C 	0.5403	0.1072	0.867	-0.191
Mof_C 	C 	0.5391	0.2802	0.8646	0.064
Mof_C 	C 	0.54	0.3112	0.9003	-0.174
Mof_C 	C 	0.4617	0.8548	0.8404	0.099
Mof_C 	C 	0.4597	0.8928	0.867	-0.19
Mof_C 	C 	0.4609	0.7198	0.8646	0.064
Mof_C 	C 	0.46	0.6888	0.9003	-0.174
Mof_C 	C 	0.8548	0.8404	0.4617	0.099
Mof_C 	C 	0.8928	0.867	0.4597	-0.19
Mof_C 	C 	0.7198	0.8646	0.4609	0.064
Mof_C 	C 	0.6888	0.9003	0.46	-0.174
Mof_C 	C 	0.1452	0.8404	0.5383	0.098
Mof_C 	C 	0.1072	0.867	0.5403	-0.191
Mof_C 	C 	0.2802	0.8646	0.5391	0.064
Mof_C 	C 	0.3112	0.9003	0.54	-0.174
Mof_C 	C 	0.1452	0.1596	0.4617	0.097
Mof_C 	C 	0.1072	0.133	0.4597	-0.189
Mof_C 	C 	0.2802	0.1354	0.4609	0.064
Mof_C 	C 	0.3112	0.0997	0.46	-0.175
Mof_C 	C 	0.8548	0.1596	0.5383	0.098
Mof_C 	C 	0.8928	0.133	0.5403	-0.189
Mof_C 	C 	0.7198	0.1354	0.5391	0.064
Mof_C 	C 	0.6888	0.0997	0.54	-0.176
Mof_C 	C 	0.8404	0.5383	0.1452	0.098
Mof_C 	C 	0.867	0.5403	0.1072	-0.191
Mof_C 	C 	0.8646	0.5391	0.2802	0.064
Mof_C 	C 	0.9003	0.54	0.3112	-0.174
Mof_C 	C 	0.8404	0.4617	0.8548	0.099
Mof_C 	C 	0.867	0.4597	0.8928	-0.19
Mof_C 	C 	0.8646	0.4609	0.7198	0.064
Mof_C 	C 	0.9003	0.46	0.6888	-0.174
Mof_C 	C 	0.1596	0.5383	0.8548	0.098
Mof_C 	C 	0.133	0.5403	0.8928	-0.189
Mof_C 	C 	0.1354	0.5391	0.7198	0.064
Mof_C 	C 	0.0997	0.54	0.6888	-0.176
Mof_C 	C 	0.1596	0.4617	0.1452	0.097
Mof_C 	C 	0.133	0.4597	0.1072	-0.189
Mof_C 	C 	0.1354	0.4609	0.2802	0.064
Mof_C 	C 	0.0997	0.46	0.3112	-0.175
Mof_C 	C 	0.5869	0	0.6192	0.131
Mof_C 	C 	0.5435	0	0.5896	-0.24
Mof_C 	C 	0.8272	0	0.5801	0.132
Mof_C 	C 	0.8614	0	0.5422	-0.259
Mof_C 	C 	0.4131	0	0.6192	0.131
Mof_C 	C 	0.4565	0	0.5896	-0.24
Mof_C 	C 	0.1728	0	0.5801	0.131
Mof_C 	C 	0.1386	0	0.5422	-0.258
Mof_C 	C 	0.4131	0	0.3808	0.131
Mof_C 	C 	0.4565	0	0.4104	-0.24
Mof_C 	C 	0.1728	0	0.4199	0.131
Mof_C 	C 	0.1386	0	0.4578	-0.258
Mof_C 	C 	0.5869	0	0.3808	0.131
Mof_C 	C 	0.5435	0	0.4104	-0.24
Mof_C 	C 	0.8272	0	0.4199	0.132
Mof_C 	C 	0.8614	0	0.4578	-0.259
Mof_C 	C 	0.6192	0.5869	-0	0.131
Mof_C 	C 	0.5896	0.5435	-0	-0.24
Mof_C 	C 	0.5801	0.8272	-0	0.132
Mof_C 	C 	0.5422	0.8614	-0	-0.259
Mof_C 	C 	0.6192	0.4131	-0	0.131
Mof_C 	C 	0.5896	0.4565	-0	-0.24
Mof_C 	C 	0.5801	0.1728	-0	0.131
Mof_C 	C 	0.5422	0.1386	-0	-0.258
Mof_C 	C 	0.3808	0.4131	-0	0.131
Mof_C 	C 	0.4104	0.4565	-0	-0.24
Mof_C 	C 	0.4199	0.1728	-0	0.131
Mof_C 	C 	0.4578	0.1386	-0	-0.258
Mof_C 	C 	0.3808	0.5869	-0	0.131
Mof_C 	C 	0.4104	0.5435	-0	-0.24
Mof_C 	C 	0.4199	0.8272	-0	0.132
Mof_C 	C 	0.4578	0.8614	-0	-0.259
Mof_C 	C 	2.20052e-33	0.6192	0.5869	0.131
Mof_C 	C 	2.0378e-33	0.5896	0.5435	-0.24
Mof_C 	C 	1.09225e-32	0.5801	0.8272	0.132
Mof_C 	C 	-1.24122e-32	0.5422	0.8614	-0.259
Mof_C 	C 	-6.27207e-33	0.6192	0.4131	0.131
Mof_C 	C 	9.53255e-33	0.5896	0.4565	-0.24
Mof_C 	C 	1.04241e-32	0.5801	0.1728	0.131
Mof_C 	C 	-1.43557e-33	0.5422	0.1386	-0.258
Mof_C 	C 	9.36982e-33	0.3808	0.4131	0.131
Mof_C 	C 	-2.19887e-33	0.4104	0.4565	-0.24
Mof_C 	C 	6.51361e-33	0.4199	0.1728	0.131
Mof_C 	C 	2.4749e-33	0.4578	0.1386	-0.258
Mof_C 	C 	2.20052e-33	0.3808	0.5869	0.131
Mof_C 	C 	-1.36041e-32	0.4104	0.5435	-0.24
Mof_C 	C 	3.1015e-33	0.4199	0.8272	0.132
Mof_C 	C 	3.22973e-33	0.4578	0.8614	-0.259
Mof_C 	C 	0.5	0.0869	0.8808	0.138
Mof_C 	C 	0.5	0.0435	0.9104	-0.227
Mof_C 	C 	0.5	0.3272	0.9199	0.137
Mof_C 	C 	0.5	0.3614	0.9578	-0.236
Mof_C 	C 	0.5	0.9131	0.8808	0.139
Mof_C 	C 	0.5	0.9565	0.9104	-0.222
Mof_C 	C 	0.5	0.6728	0.9199	0.137
Mof_C 	C 	0.5	0.6386	0.9578	-0.236
Mof_C 	C 	0.5	0.9131	0.1192	0.136
Mof_C 	C 	0.5	0.9565	0.0896	-0.217
Mof_C 	C 	0.5	0.6728	0.0801	0.137
Mof_C 	C 	0.5	0.6386	0.0422	-0.242
Mof_C 	C 	0.5	0.0869	0.1192	0.135
Mof_C 	C 	0.5	0.0435	0.0896	-0.223
Mof_C 	C 	0.5	0.3272	0.0801	0.137
Mof_C 	C 	0.5	0.3614	0.0422	-0.242
Mof_C 	C 	0.0869	0.1192	0.5	0.135
Mof_C 	C 	0.0435	0.0896	0.5	-0.223
Mof_C 	C 	0.3272	0.0801	0.5	0.137
Mof_C 	C 	0.3614	0.0422	0.5	-0.242
Mof_C 	C 	0.9131	0.1192	0.5	0.136
Mof_C 	C 	0.9565	0.0896	0.5	-0.217
Mof_C 	C 	0.6728	0.0801	0.5	0.137
Mof_C 	C 	0.6386	0.0422	0.5	-0.242
Mof_C 	C 	0.9131	0.8808	0.5	0.139
Mof_C 	C 	0.9565	0.9104	0.5	-0.222
Mof_C 	C 	0.6728	0.9199	0.5	0.137
Mof_C 	C 	0.6386	0.9578	0.5	-0.236
Mof_C 	C 	0.0869	0.8808	0.5	0.138
Mof_C 	C 	0.0435	0.9104	0.5	-0.227
Mof_C 	C 	0.3272	0.9199	0.5	0.137
Mof_C 	C 	0.3614	0.9578	0.5	-0.236
Mof_C 	C 	0.1192	0.5	0.9131	0.136
Mof_C 	C 	0.0896	0.5	0.9565	-0.217
Mof_C 	C 	0.0801	0.5	0.6728	0.137
Mof_C 	C 	0.0422	0.5	0.6386	-0.242
Mof_C 	C 	0.1192	0.5	0.0869	0.135
Mof_C 	C 	0.0896	0.5	0.0435	-0.223
Mof_C 	C 	0.0801	0.5	0.3272	0.137
Mof_C 	C 	0.0422	0.5	0.3614	-0.242
Mof_C 	C 	0.8808	0.5	0.0869	0.138
Mof_C 	C 	0.9104	0.5	0.0435	-0.227
Mof_C 	C 	0.9199	0.5	0.3272	0.137
Mof_C 	C 	0.9578	0.5	0.3614	-0.236
Mof_C 	C 	0.8808	0.5	0.9131	0.139
Mof_C 	C 	0.9104	0.5	0.9565	-0.222
Mof_C 	C 	0.9199	0.5	0.6728	0.137
Mof_C 	C 	0.9578	0.5	0.6386	-0.236
Mof_C 	C 	0.5	0	0.619	0.012
Mof_C 	C 	0.5	0	0.381	0.012
Mof_C 	C 	0.619	0.5	-0	0.012
Mof_C 	C 	0.381	0.5	-0	0.012
Mof_C 	C 	-5.94625e-33	0.619	0.5	0.012
Mof_C 	C 	-5.94625e-33	0.381	0.5	0.012
Mof_C 	C 	0.5	0	0.881	0.011
Mof_C 	C 	0.5	0	0.119	0.007
Mof_C 	C 	-2.03577e-33	0.119	0.5	0.007
Mof_C 	C 	-5.94625e-33	0.881	0.5	0.011
Mof_C 	C 	0.119	0.5	-0	0.007
Mof_C 	C 	0.881	0.5	-0	0.011
Mof_C 	C 	0.832	0	0.5	0.037
Mof_C 	C 	0.168	0	0.5	0.036
Mof_C 	C 	0.5	0.832	-0	0.037
Mof_C 	C 	0.5	0.168	-0	0.036
Mof_C 	C 	-4.70145e-33	0.5	0.832	0.037
Mof_C 	C 	-3.28057e-33	0.5	0.168	0.036
Mof_C 	C 	0.5	0.332	-0	0.031
Mof_C 	C 	0.5	0.668	-0	0.031
Mof_C 	C 	0.332	0	0.5	0.031
Mof_C 	C 	0.668	0	0.5	0.031
Mof_C 	C 	-5.31635e-33	0.5	0.668	0.031
Mof_C 	C 	-6.57615e-33	0.5	0.332	0.031
Mof_N 	N 	0.6652	0	0.6701	-0.252
Mof_N 	N 	0.7651	7.82095e-33	0.6568	-0.254
Mof_N 	N 	0.3348	0	0.6701	-0.252
Mof_N 	N 	0.2349	7.82095e-33	0.6568	-0.254
Mof_N 	N 	0.3348	0	0.3299	-0.252
Mof_N 	N 	0.2349	3.91047e-33	0.3432	-0.254
Mof_N 	N 	0.6652	0	0.3299	-0.252
Mof_N 	N 	0.7651	3.91047e-33	0.3432	-0.254
Mof_N 	N 	0.6701	0.6652	-0	-0.252
Mof_N 	N 	0.6568	0.7651	-0	-0.254
Mof_N 	N 	0.6701	0.3348	-0	-0.252
Mof_N 	N 	0.6568	0.2349	-0	-0.254
Mof_N 	N 	0.3299	0.3348	-0	-0.252
Mof_N 	N 	0.3432	0.2349	-0	-0.254
Mof_N 	N 	0.3299	0.6652	-0	-0.252
Mof_N 	N 	0.3432	0.7651	-0	-0.254
Mof_N 	N 	1.8136e-32	0.6701	0.6652	-0.252
Mof_N 	N 	1.06896e-32	0.6568	0.7651	-0.254
Mof_N 	N 	9.07625e-33	0.6701	0.3348	-0.252
Mof_N 	N 	4.79121e-33	0.6568	0.2349	-0.254
Mof_N 	N 	-2.65517e-33	0.3299	0.3348	-0.252
Mof_N 	N 	8.80734e-34	0.3432	0.2349	-0.254
Mof_N 	N 	1.8136e-32	0.3299	0.6652	-0.252
Mof_N 	N 	-4.95228e-33	0.3432	0.7651	-0.254
Mof_N 	N 	0.5	0.1652	0.8299	-0.247
Mof_N 	N 	0.5	0.2651	0.8432	-0.25
Mof_N 	N 	0.5	0.8348	0.8299	-0.247
Mof_N 	N 	0.5	0.7349	0.8432	-0.25
Mof_N 	N 	0.5	0.8348	0.1701	-0.247
Mof_N 	N 	0.5	0.7349	0.1568	-0.25
Mof_N 	N 	0.5	0.1652	0.1701	-0.247
Mof_N 	N 	0.5	0.2651	0.1568	-0.25
Mof_N 	N 	0.1652	0.1701	0.5	-0.247
Mof_N 	N 	0.2651	0.1568	0.5	-0.25
Mof_N 	N 	0.8348	0.1701	0.5	-0.247
Mof_N 	N 	0.7349	0.1568	0.5	-0.25
Mof_N 	N 	0.8348	0.8299	0.5	-0.247
Mof_N 	N 	0.7349	0.8432	0.5	-0.25
Mof_N 	N 	0.1652	0.8299	0.5	-0.247
Mof_N 	N 	0.2651	0.8432	0.5	-0.25
Mof_N 	N 	0.1701	0.5	0.8348	-0.247
Mof_N 	N 	0.1568	0.5	0.7349	-0.25
Mof_N 	N 	0.1701	0.5	0.1652	-0.247
Mof_N 	N 	0.1568	0.5	0.2651	-0.25
Mof_N 	N 	0.8299	0.5	0.1652	-0.247
Mof_N 	N 	0.8432	0.5	0.2651	-0.25
Mof_N 	N 	0.8299	0.5	0.8348	-0.247
Mof_N 	N 	0.8432	0.5	0.7349	-0.25
Mof_O 	O 	0.7455	0.8156	0.7791	-0.367
Mof_O 	O 	0.7801	0.8583	0.7003	-0.483
Mof_O 	O 	0.6912	0.8489	0.7095	-0.461
Mof_O 	O 	0.7436	0.8572	0.8655	-0.469
Mof_O 	O 	0.7255	0.9326	0.7154	-0.576
Mof_O 	O 	0.897	0.861	0.8221	-0.456
Mof_O 	O 	0.6966	0.886	0.7918	-0.483
Mof_O 	O 	0.7858	0.9013	0.7775	-0.488
Mof_O 	O 	0.2545	0.1844	0.7791	-0.366
Mof_O 	O 	0.2199	0.1417	0.7003	-0.483
Mof_O 	O 	0.3088	0.1511	0.7095	-0.461
Mof_O 	O 	0.2564	0.1428	0.8655	-0.47
Mof_O 	O 	0.2745	0.0674	0.7154	-0.58
Mof_O 	O 	0.103	0.139	0.8221	-0.459
Mof_O 	O 	0.3034	0.114	0.7918	-0.485
Mof_O 	O 	0.2142	0.0987	0.7775	-0.489
Mof_O 	O 	0.2545	0.8156	0.2209	-0.366
Mof_O 	O 	0.2199	0.8583	0.2997	-0.482
Mof_O 	O 	0.3088	0.8489	0.2905	-0.461
Mof_O 	O 	0.2564	0.8572	0.1345	-0.469
Mof_O 	O 	0.2745	0.9326	0.2846	-0.577
Mof_O 	O 	0.103	0.861	0.1779	-0.459
Mof_O 	O 	0.3034	0.886	0.2082	-0.483
Mof_O 	O 	0.2142	0.9013	0.2225	-0.488
Mof_O 	O 	0.7455	0.1844	0.2209	-0.366
Mof_O 	O 	0.7801	0.1417	0.2997	-0.483
Mof_O 	O 	0.6912	0.1511	0.2905	-0.461
Mof_O 	O 	0.7436	0.1428	0.1345	-0.47
Mof_O 	O 	0.7255	0.0674	0.2846	-0.581
Mof_O 	O 	0.897	0.139	0.1779	-0.458
Mof_O 	O 	0.6966	0.114	0.2082	-0.485
Mof_O 	O 	0.7858	0.0987	0.2225	-0.489
Mof_O 	O 	0.7791	0.7455	0.8156	-0.367
Mof_O 	O 	0.7003	0.7801	0.8583	-0.483
Mof_O 	O 	0.7095	0.6912	0.8489	-0.461
Mof_O 	O 	0.8655	0.7436	0.8572	-0.469
Mof_O 	O 	0.7154	0.7255	0.9326	-0.576
Mof_O 	O 	0.8221	0.897	0.861	-0.456
Mof_O 	O 	0.7918	0.6966	0.886	-0.483
Mof_O 	O 	0.7775	0.7858	0.9013	-0.488
Mof_O 	O 	0.7791	0.2545	0.1844	-0.366
Mof_O 	O 	0.7003	0.2199	0.1417	-0.483
Mof_O 	O 	0.7095	0.3088	0.1511	-0.461
Mof_O 	O 	0.8655	0.2564	0.1428	-0.47
Mof_O 	O 	0.7154	0.2745	0.0674	-0.58
Mof_O 	O 	0.8221	0.103	0.139	-0.459
Mof_O 	O 	0.7918	0.3034	0.114	-0.485
Mof_O 	O 	0.7775	0.2142	0.0987	-0.489
Mof_O 	O 	0.2209	0.2545	0.8156	-0.366
Mof_O 	O 	0.2997	0.2199	0.8583	-0.482
Mof_O 	O 	0.2905	0.3088	0.8489	-0.461
Mof_O 	O 	0.1345	0.2564	0.8572	-0.469
Mof_O 	O 	0.2846	0.2745	0.9326	-0.577
Mof_O 	O 	0.1779	0.103	0.861	-0.459
Mof_O 	O 	0.2082	0.3034	0.886	-0.483
Mof_O 	O 	0.2225	0.2142	0.9013	-0.488
Mof_O 	O 	0.2209	0.7455	0.1844	-0.366
Mof_O 	O 	0.2997	0.7801	0.1417	-0.483
Mof_O 	O 	0.2905	0.6912	0.1511	-0.461
Mof_O 	O 	0.1345	0.7436	0.1428	-0.47
Mof_O 	O 	0.2846	0.7255	0.0674	-0.581
Mof_O 	O 	0.1779	0.897	0.139	-0.458
Mof_O 	O 	0.2082	0.6966	0.114	-0.485
Mof_O 	O 	0.2225	0.7858	0.0987	-0.489
Mof_O 	O 	0.8156	0.7791	0.7455	-0.367
Mof_O 	O 	0.8583	0.7003	0.7801	-0.483
Mof_O 	O 	0.8489	0.7095	0.6912	-0.461
Mof_O 	O 	0.8572	0.8655	0.7436	-0.469
Mof_O 	O 	0.9326	0.7154	0.7255	-0.576
Mof_O 	O 	0.861	0.8221	0.897	-0.456
Mof_O 	O 	0.886	0.7918	0.6966	-0.483
Mof_O 	O 	0.9013	0.7775	0.7858	-0.488
Mof_O 	O 	0.1844	0.7791	0.2545	-0.366
Mof_O 	O 	0.1417	0.7003	0.2199	-0.483
Mof_O 	O 	0.1511	0.7095	0.3088	-0.461
Mof_O 	O 	0.1428	0.8655	0.2564	-0.47
Mof_O 	O 	0.0674	0.7154	0.2745	-0.58
Mof_O 	O 	0.139	0.8221	0.103	-0.459
Mof_O 	O 	0.114	0.7918	0.3034	-0.485
Mof_O 	O 	0.0987	0.7775	0.2142	-0.489
Mof_O 	O 	0.8156	0.2209	0.2545	-0.366
Mof_O 	O 	0.8583	0.2997	0.2199	-0.482
Mof_O 	O 	0.8489	0.2905	0.3088	-0.461
Mof_O 	O 	0.8572	0.1345	0.2564	-0.469
Mof_O 	O 	0.9326	0.2846	0.2745	-0.577
Mof_O 	O 	0.861	0.1779	0.103	-0.459
Mof_O 	O 	0.886	0.2082	0.3034	-0.483
Mof_O 	O 	0.9013	0.2225	0.2142	-0.488
Mof_O 	O 	0.1844	0.2209	0.7455	-0.366
Mof_O 	O 	0.1417	0.2997	0.7801	-0.483
Mof_O 	O 	0.1511	0.2905	0.6912	-0.461
Mof_O 	O 	0.1428	0.1345	0.7436	-0.47
Mof_O 	O 	0.0674	0.2846	0.7255	-0.581
Mof_O 	O 	0.139	0.1779	0.897	-0.458
Mof_O 	O 	0.114	0.2082	0.6966	-0.485
Mof_O 	O 	0.0987	0.2225	0.7858	-0.489
Mof_O 	O 	0.3156	0.2455	0.7209	-0.366
Mof_O 	O 	0.3583	0.2801	0.7997	-0.483
Mof_O 	O 	0.3489	0.1912	0.7905	-0.461
Mof_O 	O 	0.3572	0.2436	0.6345	-0.47
Mof_O 	O 	0.4326	0.2255	0.7846	-0.58
Mof_O 	O 	0.361	0.397	0.6779	-0.458
Mof_O 	O 	0.386	0.1966	0.7082	-0.484
Mof_O 	O 	0.4013	0.2858	0.7225	-0.489
Mof_O 	O 	0.6844	0.7545	0.7209	-0.366
Mof_O 	O 	0.6417	0.7199	0.7997	-0.483
Mof_O 	O 	0.6511	0.8088	0.7905	-0.461
Mof_O 	O 	0.6428	0.7564	0.6345	-0.47
Mof_O 	O 	0.5674	0.7745	0.7846	-0.58
Mof_O 	O 	0.639	0.603	0.6779	-0.458
Mof_O 	O 	0.614	0.8034	0.7082	-0.484
Mof_O 	O 	0.5987	0.7142	0.7225	-0.489
Mof_O 	O 	0.3156	0.7545	0.2791	-0.366
Mof_O 	O 	0.3583	0.7199	0.2003	-0.483
Mof_O 	O 	0.3489	0.8088	0.2095	-0.461
Mof_O 	O 	0.3572	0.7564	0.3655	-0.47
Mof_O 	O 	0.4326	0.7745	0.2154	-0.58
Mof_O 	O 	0.361	0.603	0.3221	-0.458
Mof_O 	O 	0.386	0.8034	0.2918	-0.484
Mof_O 	O 	0.4013	0.7142	0.2775	-0.489
Mof_O 	O 	0.6844	0.2455	0.2791	-0.366
Mof_O 	O 	0.6417	0.2801	0.2003	-0.483
Mof_O 	O 	0.6511	0.1912	0.2095	-0.461
Mof_O 	O 	0.6428	0.2436	0.3655	-0.47
Mof_O 	O 	0.5674	0.2255	0.2154	-0.58
Mof_O 	O 	0.639	0.397	0.3221	-0.458
Mof_O 	O 	0.614	0.1966	0.2918	-0.484
Mof_O 	O 	0.5987	0.2858	0.2775	-0.489
Mof_O 	O 	0.2455	0.2791	0.6844	-0.366
Mof_O 	O 	0.2801	0.2003	0.6417	-0.483
Mof_O 	O 	0.1912	0.2095	0.6511	-0.461
Mof_O 	O 	0.2436	0.3655	0.6428	-0.47
Mof_O 	O 	0.2255	0.2154	0.5674	-0.58
Mof_O 	O 	0.397	0.3221	0.639	-0.458
Mof_O 	O 	0.1966	0.2918	0.614	-0.484
Mof_O 	O 	0.2858	0.2775	0.5987	-0.489
Mof_O 	O 	0.7545	0.2791	0.3156	-0.366
Mof_O 	O 	0.7199	0.2003	0.3583	-0.483
Mof_O 	O 	0.8088	0.2095	0.3489	-0.461
Mof_O 	O 	0.7564	0.3655	0.3572	-0.47
Mof_O 	O 	0.7745	0.2154	0.4326	-0.58
Mof_O 	O 	0.603	0.3221	0.361	-0.458
Mof_O 	O 	0.8034	0.2918	0.386	-0.484
Mof_O 	O 	0.7142	0.2775	0.4013	-0.489
Mof_O 	O 	0.7545	0.7209	0.6844	-0.366
Mof_O 	O 	0.7199	0.7997	0.6417	-0.483
Mof_O 	O 	0.8088	0.7905	0.6511	-0.461
Mof_O 	O 	0.7564	0.6345	0.6428	-0.47
Mof_O 	O 	0.7745	0.7846	0.5674	-0.58
Mof_O 	O 	0.603	0.6779	0.639	-0.458
Mof_O 	O 	0.8034	0.7082	0.614	-0.484
Mof_O 	O 	0.7142	0.7225	0.5987	-0.489
Mof_O 	O 	0.2455	0.7209	0.3156	-0.366
Mof_O 	O 	0.2801	0.7997	0.3583	-0.483
Mof_O 	O 	0.1912	0.7905	0.3489	-0.461
Mof_O 	O 	0.2436	0.6345	0.3572	-0.47
Mof_O 	O 	0.2255	0.7846	0.4326	-0.58
Mof_O 	O 	0.397	0.6779	0.361	-0.458
Mof_O 	O 	0.1966	0.7082	0.386	-0.484
Mof_O 	O 	0.2858	0.7225	0.4013	-0.489
Mof_O 	O 	0.2791	0.3156	0.7545	-0.366
Mof_O 	O 	0.2003	0.3583	0.7199	-0.483
Mof_O 	O 	0.2095	0.3489	0.8088	-0.461
Mof_O 	O 	0.3655	0.3572	0.7564	-0.47
Mof_O 	O 	0.2154	0.4326	0.7745	-0.58
Mof_O 	O 	0.3221	0.361	0.603	-0.458
Mof_O 	O 	0.2918	0.386	0.8034	-0.484
Mof_O 	O 	0.2775	0.4013	0.7142	-0.489
Mof_O 	O 	0.2791	0.6844	0.2455	-0.366
Mof_O 	O 	0.2003	0.6417	0.2801	-0.483
Mof_O 	O 	0.2095	0.6511	0.1912	-0.461
Mof_O 	O 	0.3655	0.6428	0.2436	-0.47
Mof_O 	O 	0.2154	0.5674	0.2255	-0.58
Mof_O 	O 	0.3221	0.639	0.397	-0.458
Mof_O 	O 	0.2918	0.614	0.1966	-0.484
Mof_O 	O 	0.2775	0.5987	0.2858	-0.489
Mof_O 	O 	0.7209	0.3156	0.2455	-0.366
Mof_O 	O 	0.7997	0.3583	0.2801	-0.483
Mof_O 	O 	0.7905	0.3489	0.1912	-0.461
Mof_O 	O 	0.6345	0.3572	0.2436	-0.47
Mof_O 	O 	0.7846	0.4326	0.2255	-0.58
Mof_O 	O 	0.6779	0.361	0.397	-0.458
Mof_O 	O 	0.7082	0.386	0.1966	-0.484
Mof_O 	O 	0.7225	0.4013	0.2858	-0.489
Mof_O 	O 	0.7209	0.6844	0.7545	-0.366
Mof_O 	O 	0.7997	0.6417	0.7199	-0.483
Mof_O 	O 	0.7905	0.6511	0.8088	-0.461
Mof_O 	O 	0.6345	0.6428	0.7564	-0.47
Mof_O 	O 	0.7846	0.5674	0.7745	-0.58
Mof_O 	O 	0.6779	0.639	0.603	-0.458
Mof_O 	O 	0.7082	0.614	0.8034	-0.484
Mof_O 	O 	0.7225	0.5987	0.7142	-0.489
Mof_O 	O 	0.2545	0.1844	0.2209	-0.366
Mof_O 	O 	0.2199	0.1417	0.2997	-0.483
Mof_O 	O 	0.3088	0.1511	0.2905	-0.461
Mof_O 	O 	0.2564	0.1428	0.1345	-0.47
Mof_O 	O 	0.2745	0.0674	0.2846	-0.581
Mof_O 	O 	0.103	0.139	0.1779	-0.46
Mof_O 	O 	0.3034	0.114	0.2082	-0.485
Mof_O 	O 	0.2142	0.0987	0.2225	-0.489
Mof_O 	O 	0.7455	0.8156	0.2209	-0.366
Mof_O 	O 	0.7801	0.8583	0.2997	-0.482
Mof_O 	O 	0.6912	0.8489	0.2905	-0.461
Mof_O 	O 	0.7436	0.8572	0.1345	-0.469
Mof_O 	O 	0.7255	0.9326	0.2846	-0.576
Mof_O 	O 	0.897	0.861	0.1779	-0.457
Mof_O 	O 	0.6966	0.886	0.2082	-0.483
Mof_O 	O 	0.7858	0.9013	0.2225	-0.488
Mof_O 	O 	0.7455	0.1844	0.7791	-0.366
Mof_O 	O 	0.7801	0.1417	0.7003	-0.483
Mof_O 	O 	0.6912	0.1511	0.7095	-0.461
Mof_O 	O 	0.7436	0.1428	0.8655	-0.47
Mof_O 	O 	0.7255	0.0674	0.7154	-0.58
Mof_O 	O 	0.897	0.139	0.8221	-0.457
Mof_O 	O 	0.6966	0.114	0.7918	-0.485
Mof_O 	O 	0.7858	0.0987	0.7775	-0.489
Mof_O 	O 	0.2545	0.8156	0.7791	-0.367
Mof_O 	O 	0.2199	0.8583	0.7003	-0.482
Mof_O 	O 	0.3088	0.8489	0.7095	-0.461
Mof_O 	O 	0.2564	0.8572	0.8655	-0.469
Mof_O 	O 	0.2745	0.9326	0.7154	-0.576
Mof_O 	O 	0.103	0.861	0.8221	-0.458
Mof_O 	O 	0.3034	0.886	0.7918	-0.483
Mof_O 	O 	0.2142	0.9013	0.7775	-0.488
Mof_O 	O 	0.2209	0.2545	0.1844	-0.366
Mof_O 	O 	0.2997	0.2199	0.1417	-0.483
Mof_O 	O 	0.2905	0.3088	0.1511	-0.461
Mof_O 	O 	0.1345	0.2564	0.1428	-0.47
Mof_O 	O 	0.2846	0.2745	0.0674	-0.581
Mof_O 	O 	0.1779	0.103	0.139	-0.46
Mof_O 	O 	0.2082	0.3034	0.114	-0.485
Mof_O 	O 	0.2225	0.2142	0.0987	-0.489
Mof_O 	O 	0.2209	0.7455	0.8156	-0.366
Mof_O 	O 	0.2997	0.7801	0.8583	-0.482
Mof_O 	O 	0.2905	0.6912	0.8489	-0.461
Mof_O 	O 	0.1345	0.7436	0.8572	-0.469
Mof_O 	O 	0.2846	0.7255	0.9326	-0.576
Mof_O 	O 	0.1779	0.897	0.861	-0.457
Mof_O 	O 	0.2082	0.6966	0.886	-0.483
Mof_O 	O 	0.2225	0.7858	0.9013	-0.488
Mof_O 	O 	0.7791	0.7455	0.1844	-0.366
Mof_O 	O 	0.7003	0.7801	0.1417	-0.483
Mof_O 	O 	0.7095	0.6912	0.1511	-0.461
Mof_O 	O 	0.8655	0.7436	0.1428	-0.47
Mof_O 	O 	0.7154	0.7255	0.0674	-0.58
Mof_O 	O 	0.8221	0.897	0.139	-0.457
Mof_O 	O 	0.7918	0.6966	0.114	-0.485
Mof_O 	O 	0.7775	0.7858	0.0987	-0.489
Mof_O 	O 	0.7791	0.2545	0.8156	-0.367
Mof_O 	O 	0.7003	0.2199	0.8583	-0.482
Mof_O 	O 	0.7095	0.3088	0.8489	-0.461
Mof_O 	O 	0.8655	0.2564	0.8572	-0.469
Mof_O 	O 	0.7154	0.2745	0.9326	-0.576
Mof_O 	O 	0.8221	0.103	0.861	-0.458
Mof_O 	O 	0.7918	0.3034	0.886	-0.483
Mof_O 	O 	0.7775	0.2142	0.9013	-0.488
Mof_O 	O 	0.1844	0.2209	0.2545	-0.366
Mof_O 	O 	0.1417	0.2997	0.2199	-0.483
Mof_O 	O 	0.1511	0.2905	0.3088	-0.461
Mof_O 	O 	0.1428	0.1345	0.2564	-0.47
Mof_O 	O 	0.0674	0.2846	0.2745	-0.581
Mof_O 	O 	0.139	0.1779	0.103	-0.46
Mof_O 	O 	0.114	0.2082	0.3034	-0.485
Mof_O 	O 	0.0987	0.2225	0.2142	-0.489
Mof_O 	O 	0.8156	0.2209	0.7455	-0.366
Mof_O 	O 	0.8583	0.2997	0.7801	-0.482
Mof_O 	O 	0.8489	0.2905	0.6912	-0.461
Mof_O 	O 	0.8572	0.1345	0.7436	-0.469
Mof_O 	O 	0.9326	0.2846	0.7255	-0.576
Mof_O 	O 	0.861	0.1779	0.897	-0.457
Mof_O 	O 	0.886	0.2082	0.6966	-0.483
Mof_O 	O 	0.9013	0.2225	0.7858	-0.488
Mof_O 	O 	0.1844	0.7791	0.7455	-0.366
Mof_O 	O 	0.1417	0.7003	0.7801	-0.483
Mof_O 	O 	0.1511	0.7095	0.6912	-0.461
Mof_O 	O 	0.1428	0.8655	0.7436	-0.47
Mof_O 	O 	0.0674	0.7154	0.7255	-0.58
Mof_O 	O 	0.139	0.8221	0.897	-0.457
Mof_O 	O 	0.114	0.7918	0.6966	-0.485
Mof_O 	O 	0.0987	0.7775	0.7858	-0.489
Mof_O 	O 	0.8156	0.7791	0.2545	-0.367
Mof_O 	O 	0.8583	0.7003	0.2199	-0.482
Mof_O 	O 	0.8489	0.7095	0.3088	-0.461
Mof_O 	O 	0.8572	0.8655	0.2564	-0.469
Mof_O 	O 	0.9326	0.7154	0.2745	-0.576
Mof_O 	O 	0.861	0.8221	0.103	-0.458
Mof_O 	O 	0.886	0.7918	0.3034	-0.483
Mof_O 	O 	0.9013	0.7775	0.2142	-0.488
Mof_O 	O 	0.6844	0.7545	0.2791	-0.366
Mof_O 	O 	0.6417	0.7199	0.2003	-0.483
Mof_O 	O 	0.6511	0.8088	0.2095	-0.461
Mof_O 	O 	0.6428	0.7564	0.3655	-0.47
Mof_O 	O 	0.5674	0.7745	0.2154	-0.58
Mof_O 	O 	0.639	0.603	0.3221	-0.458
Mof_O 	O 	0.614	0.8034	0.2918	-0.484
Mof_O 	O 	0.5987	0.7142	0.2775	-0.489
Mof_O 	O 	0.3156	0.2455	0.2791	-0.366
Mof_O 	O 	0.3583	0.2801	0.2003	-0.483
Mof_O 	O 	0.3489	0.1912	0.2095	-0.461
Mof_O 	O 	0.3572	0.2436	0.3655	-0.47
Mof_O 	O 	0.4326	0.2255	0.2154	-0.58
Mof_O 	O 	0.361	0.397	0.3221	-0.458
Mof_O 	O 	0.386	0.1966	0.2918	-0.484
Mof_O 	O 	0.4013	0.2858	0.2775	-0.489
Mof_O 	O 	0.6844	0.2455	0.7209	-0.366
Mof_O 	O 	0.6417	0.2801	0.7997	-0.483
Mof_O 	O 	0.6511	0.1912	0.7905	-0.462
Mof_O 	O 	0.6428	0.2436	0.6345	-0.47
Mof_O 	O 	0.5674	0.2255	0.7846	-0.58
Mof_O 	O 	0.639	0.397	0.6779	-0.458
Mof_O 	O 	0.614	0.1966	0.7082	-0.484
Mof_O 	O 	0.5987	0.2858	0.7225	-0.489
Mof_O 	O 	0.3156	0.7545	0.7209	-0.366
Mof_O 	O 	0.3583	0.7199	0.7997	-0.483
Mof_O 	O 	0.3489	0.8088	0.7905	-0.461
Mof_O 	O 	0.3572	0.7564	0.6345	-0.47
Mof_O 	O 	0.4326	0.7745	0.7846	-0.58
Mof_O 	O 	0.361	0.603	0.6779	-0.458
Mof_O 	O 	0.386	0.8034	0.7082	-0.484
Mof_O 	O 	0.4013	0.7142	0.7225	-0.489
Mof_O 	O 	0.7545	0.7209	0.3156	-0.366
Mof_O 	O 	0.7199	0.7997	0.3583	-0.483
Mof_O 	O 	0.8088	0.7905	0.3489	-0.461
Mof_O 	O 	0.7564	0.6345	0.3572	-0.47
Mof_O 	O 	0.7745	0.7846	0.4326	-0.58
Mof_O 	O 	0.603	0.6779	0.361	-0.458
Mof_O 	O 	0.8034	0.7082	0.386	-0.484
Mof_O 	O 	0.7142	0.7225	0.4013	-0.489
Mof_O 	O 	0.2455	0.7209	0.6844	-0.366
Mof_O 	O 	0.2801	0.7997	0.6417	-0.483
Mof_O 	O 	0.1912	0.7905	0.6511	-0.462
Mof_O 	O 	0.2436	0.6345	0.6428	-0.47
Mof_O 	O 	0.2255	0.7846	0.5674	-0.58
Mof_O 	O 	0.397	0.6779	0.639	-0.458
Mof_O 	O 	0.1966	0.7082	0.614	-0.484
Mof_O 	O 	0.2858	0.7225	0.5987	-0.489
Mof_O 	O 	0.2455	0.2791	0.3156	-0.366
Mof_O 	O 	0.2801	0.2003	0.3583	-0.483
Mof_O 	O 	0.1912	0.2095	0.3489	-0.461
Mof_O 	O 	0.2436	0.3655	0.3572	-0.47
Mof_O 	O 	0.2255	0.2154	0.4326	-0.58
Mof_O 	O 	0.397	0.3221	0.361	-0.458
Mof_O 	O 	0.1966	0.2918	0.386	-0.484
Mof_O 	O 	0.2858	0.2775	0.4013	-0.489
Mof_O 	O 	0.7545	0.2791	0.6844	-0.366
Mof_O 	O 	0.7199	0.2003	0.6417	-0.483
Mof_O 	O 	0.8088	0.2095	0.6511	-0.461
Mof_O 	O 	0.7564	0.3655	0.6428	-0.47
Mof_O 	O 	0.7745	0.2154	0.5674	-0.58
Mof_O 	O 	0.603	0.3221	0.639	-0.458
Mof_O 	O 	0.8034	0.2918	0.614	-0.484
Mof_O 	O 	0.7142	0.2775	0.5987	-0.489
Mof_O 	O 	0.7209	0.6844	0.2455	-0.366
Mof_O 	O 	0.7997	0.6417	0.2801	-0.483
Mof_O 	O 	0.7905	0.6511	0.1912	-0.462
Mof_O 	O 	0.6345	0.6428	0.2436	-0.47
Mof_O 	O 	0.7846	0.5674	0.2255	-0.58
Mof_O 	O 	0.6779	0.639	0.397	-0.458
Mof_O 	O 	0.7082	0.614	0.1966	-0.484
Mof_O 	O 	0.7225	0.5987	0.2858	-0.489
Mof_O 	O 	0.7209	0.3156	0.7545	-0.366
Mof_O 	O 	0.7997	0.3583	0.7199	-0.483
Mof_O 	O 	0.7905	0.3489	0.8088	-0.461
Mof_O 	O 	0.6345	0.3572	0.7564	-0.47
Mof_O 	O 	0.7846	0.4326	0.7745	-0.58
Mof_O 	O 	0.6779	0.361	0.603	-0.458
Mof_O 	O 	0.7082	0.386	0.8034	-0.484
Mof_O 	O 	0.7225	0.4013	0.7142	-0.489
Mof_O 	O 	0.2791	0.6844	0.7545	-0.366
Mof_O 	O 	0.2003	0.6417	0.7199	-0.483
Mof_O 	O 	0.2095	0.6511	0.8088	-0.461
Mof_O 	O 	0.3655	0.6428	0.7564	-0.47
Mof_O 	O 	0.2154	0.5674	0.7745	-0.58
Mof_O 	O 	0.3221	0.639	0.603	-0.458
Mof_O 	O 	0.2918	0.614	0.8034	-0.484
Mof_O 	O 	0.2775	0.5987	0.7142	-0.489
Mof_O 	O 	0.2791	0.3156	0.2455	-0.366
Mof_O 	O 	0.2003	0.3583	0.2801	-0.483
Mof_O 	O 	0.2095	0.3489	0.1912	-0.461
Mof_O 	O 	0.3655	0.3572	0.2436	-0.47
Mof_O 	O 	0.2154	0.4326	0.2255	-0.58
Mof_O 	O 	0.3221	0.361	0.397	-0.458
Mof_O 	O 	0.2918	0.386	0.1966	-0.484
Mof_O 	O 	0.2775	0.4013	0.2858	-0.489
Mof_O 	O 	0.82	0.82	0.82	-0.397
Mof_O 	O 	0.18	0.18	0.82	-0.396
Mof_O 	O 	0.18	0.82	0.18	-0.396
Mof_O 	O 	0.82	0.18	0.18	-0.396
Mof_O 	O 	0.32	0.32	0.68	-0.396
Mof_O 	O 	0.68	0.68	0.68	-0.396
Mof_O 	O 	0.32	0.68	0.32	-0.396
Mof_O 	O 	0.68	0.32	0.32	-0.396
Mof_O 	O 	0.18	0.18	0.18	-0.395
Mof_O 	O 	0.82	0.82	0.18	-0.397
Mof_O 	O 	0.82	0.18	0.82	-0.397
Mof_O 	O 	0.18	0.82	0.82	-0.397
Mof_O 	O 	0.68	0.68	0.32	-0.396
Mof_O 	O 	0.32	0.32	0.32	-0.396
Mof_O 	O 	0.68	0.32	0.68	-0.396
Mof_O 	O 	0.32	0.68	0.68	-0.396
_end
