data_functionalizedCrystal
_audit_creation_method	'EQeq! by Chris Wilmer'
_symmetry_space_group_name_H-M	'P1'
_symmetry_Int_Tables_number	1
_symmetry_cell_setting	triclinic
loop_
_symmetry_equiv_pos_as_xyz
  x,y,z
_cell_length_a	11.539
_cell_length_b	6.637
_cell_length_c	17.092
_cell_angle_alpha	90
_cell_angle_beta	94.95
_cell_angle_gamma	90
loop_
_atom_site_label
_atom_site_type_symbol
_atom_site_fract_x
_atom_site_fract_y
_atom_site_fract_z
_atom_site_charge
Mof_Zr	Zr	0.40222	0.06899	0.1389	3.214
Mof_Zr	Zr	0.14851	0.57049	0.27945	3.22
Mof_P 	P 	0.13999	0.0695	0.22857	0.742
Mof_P 	P 	0.41349	0.5661	0.19103	0.772
Mof_P 	P 	0.66911	0.0967	0.04922	0.443
Mof_P 	P 	0.6696	0.9562	0.065	0.331
Mof_F 	F 	0.0784	0.5696	0.16831	-0.749
Mof_O 	O 	0.1532	0.2584	0.2811	-0.687
Mof_O 	O 	0.0193	0.0705	0.1823	-0.657
Mof_O 	O 	0.2346	0.0678	0.1708	-0.717
Mof_O 	O 	0.1512	0.8822	0.2821	-0.685
Mof_O 	O 	0.4105	0.7518	0.1365	-0.655
Mof_O 	O 	0.5263	0.5624	0.2459	-0.747
Mof_O 	O 	0.31	0.5717	0.2404	-0.779
Mof_O 	O 	0.4052	0.3775	0.1379	-0.694
Mof_O 	O 	0.5644	0.0695	0.0949	-0.732
Mof_O 	O 	0.6678	0.9533	0.9789	-0.654
Mof_O 	O 	0.7824	0.0713	0.102	-0.642
Mof_O 	O 	0.6719	0.3215	0.0173	-0.161
Mof_O 	O 	0.6671	0.715	0.0706	-0.156
Mof_Zr	Zr	0.59778	0.56899	0.3611	3.213
Mof_Zr	Zr	0.85149	0.07049	0.22055	3.218
Mof_P 	P 	0.86001	0.5695	0.27143	0.743
Mof_P 	P 	0.58651	0.0661	0.30897	0.767
Mof_P 	P 	0.33089	0.5967	0.45078	0.469
Mof_P 	P 	0.3304	0.4562	0.435	0.299
Mof_F 	F 	0.9216	0.0696	0.33169	-0.754
Mof_O 	O 	0.8468	0.7584	0.2189	-0.684
Mof_O 	O 	0.9807	0.5705	0.3177	-0.658
Mof_O 	O 	0.7654	0.5678	0.3292	-0.716
Mof_O 	O 	0.8488	0.3822	0.2179	-0.688
Mof_O 	O 	0.5895	0.2518	0.3635	-0.658
Mof_O 	O 	0.4737	0.0624	0.2541	-0.749
Mof_O 	O 	0.69	0.0717	0.2596	-0.781
Mof_O 	O 	0.5948	0.8775	0.3621	-0.69
Mof_O 	O 	0.4356	0.5695	0.4051	-0.73
Mof_O 	O 	0.3322	0.4533	0.5211	-0.652
Mof_O 	O 	0.2176	0.5713	0.398	-0.637
Mof_O 	O 	0.3281	0.8215	0.4827	-0.165
Mof_O 	O 	0.3329	0.215	0.4294	-0.152
Mof_Zr	Zr	0.59778	0.93101	0.8611	3.213
Mof_Zr	Zr	0.85149	0.42951	0.72055	3.219
Mof_P 	P 	0.86001	0.9305	0.77143	0.741
Mof_P 	P 	0.58651	0.4339	0.80897	0.771
Mof_P 	P 	0.33089	0.9033	0.95078	0.443
Mof_P 	P 	0.3304	0.0438	0.935	0.331
Mof_F 	F 	0.9216	0.4304	0.83169	-0.749
Mof_O 	O 	0.8468	0.7416	0.7189	-0.687
Mof_O 	O 	0.9807	0.9295	0.8177	-0.657
Mof_O 	O 	0.7654	0.9322	0.8292	-0.717
Mof_O 	O 	0.8488	0.1178	0.7179	-0.685
Mof_O 	O 	0.5895	0.2482	0.8635	-0.655
Mof_O 	O 	0.4737	0.4376	0.7541	-0.747
Mof_O 	O 	0.69	0.4283	0.7596	-0.779
Mof_O 	O 	0.5948	0.6225	0.8621	-0.694
Mof_O 	O 	0.4356	0.9305	0.9051	-0.732
Mof_O 	O 	0.3322	0.0467	0.0211	-0.654
Mof_O 	O 	0.2176	0.9287	0.898	-0.642
Mof_O 	O 	0.3281	0.6785	0.9827	-0.161
Mof_O 	O 	0.3329	0.285	0.9294	-0.156
Mof_Zr	Zr	0.40222	0.43101	0.6389	3.213
Mof_Zr	Zr	0.14851	0.92951	0.77945	3.218
Mof_P 	P 	0.13999	0.4305	0.72857	0.743
Mof_P 	P 	0.41349	0.9339	0.69103	0.767
Mof_P 	P 	0.66911	0.4033	0.54922	0.469
Mof_P 	P 	0.6696	0.5438	0.565	0.299
Mof_F 	F 	0.0784	0.9304	0.66831	-0.754
Mof_O 	O 	0.1532	0.2416	0.7811	-0.684
Mof_O 	O 	0.0193	0.4295	0.6823	-0.658
Mof_O 	O 	0.2346	0.4322	0.6708	-0.716
Mof_O 	O 	0.1512	0.6178	0.7821	-0.688
Mof_O 	O 	0.4105	0.7482	0.6365	-0.658
Mof_O 	O 	0.5263	0.9376	0.7459	-0.749
Mof_O 	O 	0.31	0.9283	0.7404	-0.781
Mof_O 	O 	0.4052	0.1225	0.6379	-0.69
Mof_O 	O 	0.5644	0.4305	0.5949	-0.73
Mof_O 	O 	0.6678	0.5467	0.4789	-0.652
Mof_O 	O 	0.7824	0.4287	0.602	-0.637
Mof_O 	O 	0.6719	0.1785	0.5173	-0.165
Mof_O 	O 	0.6671	0.785	0.5706	-0.152
_end
