data_functionalizedCrystal
_audit_creation_method	'EQeq! by Chris Wilmer'
_symmetry_space_group_name_H-M	'P1'
_symmetry_Int_Tables_number	1
_symmetry_cell_setting	triclinic
loop_
_symmetry_equiv_pos_as_xyz
  x,y,z
_cell_length_a	6.734
_cell_length_b	12.536
_cell_length_c	9.12
_cell_angle_alpha	90
_cell_angle_beta	118.622
_cell_angle_gamma	90
loop_
_atom_site_label
_atom_site_type_symbol
_atom_site_fract_x
_atom_site_fract_y
_atom_site_fract_z
_atom_site_charge
Mof_Ag	Ag	0.6463	0.23302	0.6015	0.382
Mof_C 	C 	0.55	0.1601	0.3763	-0.115
Mof_N 	N 	0.4883	0.107	0.2586	-0.17
Mof_C 	C 	0.725	0.3265	0.8091	-0.094
Mof_N 	N 	0.7732	0.3891	0.9098	-0.148
Mof_C 	C 	0.9814	0.0914	0.0771	-0.04
Mof_H 	H 	0.0491	0.1575	0.0751	0.019
Mof_C 	C 	0.7739	0.0908	0.0784	-0.005
Mof_H 	H 	0.7009	0.1565	0.0738	0.002
Mof_Ag	Ag	0.1463	0.73302	0.6015	0.399
Mof_C 	C 	0.05	0.6601	0.3763	-0.105
Mof_N 	N 	0.9883	0.607	0.2586	-0.175
Mof_C 	C 	0.225	0.8265	0.8091	-0.091
Mof_N 	N 	0.2732	0.8891	0.9098	-0.137
Mof_C 	C 	0.4814	0.5914	0.0771	-0.016
Mof_H 	H 	0.5491	0.6575	0.0751	0.007
Mof_C 	C 	0.2739	0.5908	0.0784	-0.011
Mof_H 	H 	0.2009	0.6565	0.0738	0.006
Mof_Ag	Ag	0.6463	0.76698	0.6015	0.396
Mof_C 	C 	0.55	0.8399	0.3763	-0.109
Mof_N 	N 	0.4883	0.893	0.2586	-0.158
Mof_C 	C 	0.725	0.6735	0.8091	-0.096
Mof_N 	N 	0.7732	0.6109	0.9098	-0.148
Mof_C 	C 	0.9814	0.9086	0.0771	-0.017
Mof_H 	H 	0.0491	0.8425	0.0751	0.014
Mof_C 	C 	0.7739	0.9092	0.0784	0.02
Mof_H 	H 	0.7009	0.8435	0.0738	-0.003
Mof_Ag	Ag	0.1463	0.26698	0.6015	0.391
Mof_C 	C 	0.05	0.3399	0.3763	-0.104
Mof_N 	N 	0.9883	0.393	0.2586	-0.175
Mof_C 	C 	0.225	0.1735	0.8091	-0.095
Mof_N 	N 	0.2732	0.1109	0.9098	-0.148
Mof_C 	C 	0.4814	0.4086	0.0771	-0.016
Mof_H 	H 	0.5491	0.3425	0.0751	0.006
Mof_C 	C 	0.2739	0.4092	0.0784	-0.01
Mof_H 	H 	0.2009	0.3435	0.0738	0.006
Mof_Fe	Fe	0.3807	-1.16729e-33	0.082	0.638
Mof_N 	N 	0.085	-5.83644e-34	0.0787	-0.188
Mof_N 	N 	0.678	0	0.0859	-0.204
Mof_Fe	Fe	0.8807	0.5	0.082	0.662
Mof_N 	N 	0.585	0.5	0.0787	-0.186
Mof_N 	N 	0.178	0.5	0.0859	-0.184
_end
