data_functionalizedCrystal
_audit_creation_method	'EQeq! by Chris Wilmer'
_symmetry_space_group_name_H-M	'P1'
_symmetry_Int_Tables_number	1
_symmetry_cell_setting	triclinic
loop_
_symmetry_equiv_pos_as_xyz
  x,y,z
_cell_length_a	16.0539
_cell_length_b	33.204
_cell_length_c	17.1178
_cell_angle_alpha	90
_cell_angle_beta	90
_cell_angle_gamma	90
loop_
_atom_site_label
_atom_site_type_symbol
_atom_site_fract_x
_atom_site_fract_y
_atom_site_fract_z
_atom_site_charge
Mof_Tb	Tb	0.51695	0.05548	0.94707	1.88
Mof_Zn	Zn	0.72371	0.16036	0.43238	1.205
Mof_Zn	Zn	0.43365	0.16925	0.67667	1.162
Mof_Zn	Zn	0.23713	0.00931	0.71333	1.193
Mof_O 	O 	0.8449	0.2052	0.2341	-0.578
Mof_O 	O 	0.8026	0.1627	0.3224	-0.415
Mof_O 	O 	0.6252	0.1776	0.3526	-0.436
Mof_O 	O 	0.5006	0.2067	0.3494	-0.537
Mof_O 	O 	0.3616	0.1898	0.5816	-0.517
Mof_O 	O 	0.3693	0.2065	0.4586	-0.565
Mof_O 	O 	0.536	0.0899	0.835	-0.542
Mof_O 	O 	0.5134	0.1447	0.7651	-0.506
Mof_O 	O 	0.4402	0.0172	0.858	-0.482
Mof_O 	O 	0.3274	0.9952	0.8002	-0.47
Mof_O 	O 	0.1418	0.0204	0.6154	-0.563
Mof_O 	O 	0.0682	0.9854	0.5317	-0.617
Mof_O 	O 	0.1055	0.9116	0.4525	-0.528
Mof_O 	O 	0.185	0.8596	0.4837	-0.473
Mof_N 	N 	0.7711	0.2172	0.4284	-0.326
Mof_N 	N 	0.6241	0.1692	0.5078	-0.293
Mof_N 	N 	0.5223	0.1754	0.5945	-0.302
Mof_N 	N 	0.3749	0.1167	0.6986	-0.318
Mof_N 	N 	0.3053	0.0598	0.7109	-0.318
Mof_N 	N 	0.2488	0.9608	0.6469	-0.312
Mof_N 	N 	0.2683	0.901	0.5911	-0.277
Mof_C 	C 	0.8184	0.1975	0.3012	0.413
Mof_C 	C 	0.7981	0.2286	0.3622	-0.072
Mof_C 	C 	0.5589	0.1911	0.3849	0.395
Mof_C 	C 	0.554	0.1835	0.4701	-0.082
Mof_C 	C 	0.4919	0.1872	0.5229	-0.114
Mof_C 	C 	0.4012	0.1957	0.5186	0.437
Mof_C 	C 	0.6033	0.1658	0.5823	0.264
Mof_C 	C 	0.6635	0.1546	0.6466	-0.818
Mof_H 	H 	0.6364	0.1371	0.6831	0.262
Mof_H 	H 	0.6816	0.1786	0.6731	0.209
Mof_H 	H 	0.7109	0.1412	0.6245	0.252
Mof_C 	C 	0.4932	0.1102	0.7878	0.4
Mof_C 	C 	0.416	0.0937	0.7543	-0.088
Mof_C 	C 	0.3734	0.0585	0.7613	-0.062
Mof_C 	C 	0.3818	0.0216	0.8107	0.383
Mof_C 	C 	0.3096	0.0951	0.677	0.364
Mof_C 	C 	0.2484	0.1102	0.6217	-0.911
Mof_H 	H 	0.2025	0.1218	0.6496	0.268
Mof_H 	H 	0.2288	0.0885	0.5897	0.255
Mof_H 	H 	0.2737	0.1304	0.5891	0.279
Mof_C 	C 	0.129	0.9881	0.5766	0.378
Mof_C 	C 	0.1903	0.9566	0.5867	-0.082
Mof_C 	C 	0.2033	0.9186	0.5542	-0.073
Mof_C 	C 	0.1612	0.8949	0.494	0.383
Mof_C 	C 	0.2918	0.9268	0.6473	0.343
Mof_C 	C 	0.3641	0.9184	0.7008	-0.931
Mof_H 	H 	0.3651	0.9381	0.7419	0.297
Mof_H 	H 	0.4151	0.9198	0.6717	0.298
Mof_H 	H 	0.3582	0.892	0.7229	0.303
Mof_N 	N 	0.1461	0.0187	0.7948	-0.258
Mof_C 	C 	0.1651	0.0478	0.8504	0.045
Mof_H 	H 	0.2171	0.0601	0.8503	-0.015
Mof_C 	C 	0.1062	0.0586	0.9061	-0.126
Mof_H 	H 	0.1189	0.078	0.9433	0.061
Mof_C 	C 	0.0284	0.0402	0.9063	0.055
Mof_C 	C 	0.0094	0.0111	0.8507	-0.113
Mof_H 	H 	0.9573	0.9988	0.8508	0.049
Mof_C 	C 	0.0683	0.0003	0.795	0.063
Mof_H 	H 	0.0556	0.9809	0.7578	-0.018
Mof_N 	N 	0.8453	0.0762	0.0756	-0.132
Mof_C 	C 	0.9199	0.0971	0.0684	0.029
Mof_H 	H 	0.9304	0.1193	0.1002	0.019
Mof_C 	C 	0.9788	0.085	0.0137	-0.096
Mof_H 	H 	0.0287	0.099	0.0089	0.044
Mof_C 	C 	0.963	0.0519	0.9663	0.017
Mof_C 	C 	0.8885	0.0309	0.9735	-0.112
Mof_H 	H 	0.8779	0.0088	0.9417	0.048
Mof_C 	C 	0.8296	0.0431	0.0281	0.039
Mof_H 	H 	0.7797	0.0291	0.0329	-0.001
Mof_H 	H 	0.767	0.2385	0.5857	0.264
Mof_H 	H 	0.6749	0.2343	0.5564	0.275
Mof_H 	H 	0.7139	0.2772	0.5688	0.263
Mof_Tb	Tb	0.98305	0.94452	0.44707	1.885
Mof_Zn	Zn	0.77629	0.83964	0.93238	1.206
Mof_Zn	Zn	0.06635	0.83075	0.17667	1.162
Mof_Zn	Zn	0.26287	0.99069	0.21333	1.194
Mof_O 	O 	0.6551	0.7948	0.7341	-0.577
Mof_O 	O 	0.6974	0.8373	0.8224	-0.414
Mof_O 	O 	0.8748	0.8224	0.8526	-0.435
Mof_O 	O 	0.9994	0.7933	0.8494	-0.538
Mof_O 	O 	0.1384	0.8102	0.0816	-0.516
Mof_O 	O 	0.1307	0.7935	0.9586	-0.559
Mof_O 	O 	0.964	0.9101	0.335	-0.537
Mof_O 	O 	0.9866	0.8553	0.2651	-0.5
Mof_O 	O 	0.0598	0.9828	0.358	-0.482
Mof_O 	O 	0.1726	0.0048	0.3002	-0.47
Mof_O 	O 	0.3582	0.9796	0.1154	-0.563
Mof_O 	O 	0.4318	0.0146	0.0317	-0.616
Mof_O 	O 	0.3945	0.0884	0.9525	-0.527
Mof_O 	O 	0.315	0.1404	0.9837	-0.471
Mof_N 	N 	0.7289	0.7828	0.9284	-0.324
Mof_N 	N 	0.8759	0.8308	0.0078	-0.29
Mof_N 	N 	0.9777	0.8246	0.0945	-0.297
Mof_N 	N 	0.1251	0.8833	0.1986	-0.318
Mof_N 	N 	0.1947	0.9402	0.2109	-0.317
Mof_N 	N 	0.2512	0.0392	0.1469	-0.311
Mof_N 	N 	0.2317	0.099	0.0911	-0.276
Mof_C 	C 	0.6816	0.8025	0.8012	0.414
Mof_C 	C 	0.7019	0.7714	0.8622	-0.071
Mof_C 	C 	0.9411	0.8089	0.8849	0.396
Mof_C 	C 	0.946	0.8165	0.9701	-0.083
Mof_C 	C 	0.0081	0.8128	0.0229	-0.118
Mof_C 	C 	0.0988	0.8043	0.0186	0.432
Mof_C 	C 	0.8967	0.8342	0.0823	0.267
Mof_C 	C 	0.8365	0.8454	0.1466	-0.819
Mof_H 	H 	0.8636	0.8629	0.1831	0.263
Mof_H 	H 	0.8184	0.8214	0.1731	0.211
Mof_H 	H 	0.7891	0.8588	0.1245	0.254
Mof_C 	C 	0.0068	0.8898	0.2878	0.393
Mof_C 	C 	0.084	0.9063	0.2543	-0.085
Mof_C 	C 	0.1266	0.9415	0.2613	-0.064
Mof_C 	C 	0.1182	0.9784	0.3107	0.383
Mof_C 	C 	0.1904	0.9049	0.177	0.363
Mof_C 	C 	0.2516	0.8898	0.1217	-0.908
Mof_H 	H 	0.2975	0.8782	0.1496	0.267
Mof_H 	H 	0.2712	0.9115	0.0897	0.253
Mof_H 	H 	0.2263	0.8696	0.0891	0.278
Mof_C 	C 	0.371	0.0119	0.0766	0.378
Mof_C 	C 	0.3097	0.0434	0.0867	-0.082
Mof_C 	C 	0.2967	0.0814	0.0542	-0.074
Mof_C 	C 	0.3388	0.1051	0.994	0.385
Mof_C 	C 	0.2082	0.0732	0.1473	0.342
Mof_C 	C 	0.1359	0.0816	0.2008	-0.929
Mof_H 	H 	0.1349	0.0619	0.2419	0.296
Mof_H 	H 	0.0849	0.0802	0.1717	0.296
Mof_H 	H 	0.1418	0.108	0.2229	0.302
Mof_N 	N 	0.3539	0.9813	0.2948	-0.257
Mof_C 	C 	0.3349	0.9522	0.3504	0.041
Mof_H 	H 	0.2829	0.9399	0.3503	-0.014
Mof_C 	C 	0.3938	0.9414	0.4061	-0.12
Mof_H 	H 	0.3811	0.922	0.4433	0.057
Mof_C 	C 	0.4716	0.9598	0.4063	0.044
Mof_C 	C 	0.4906	0.9889	0.3507	-0.116
Mof_H 	H 	0.5427	0.0012	0.3508	0.052
Mof_C 	C 	0.4317	0.9997	0.295	0.063
Mof_H 	H 	0.4444	0.0191	0.2578	-0.019
Mof_N 	N 	0.6547	0.9238	0.5756	-0.134
Mof_C 	C 	0.5801	0.9029	0.5684	0.041
Mof_H 	H 	0.5696	0.8807	0.6002	0.014
Mof_C 	C 	0.5212	0.915	0.5137	-0.126
Mof_H 	H 	0.4713	0.901	0.5089	0.059
Mof_C 	C 	0.537	0.9481	0.4663	0.038
Mof_C 	C 	0.6115	0.9691	0.4735	-0.115
Mof_H 	H 	0.6221	0.9912	0.4417	0.05
Mof_C 	C 	0.6704	0.9569	0.5281	0.036
Mof_H 	H 	0.7203	0.9709	0.5329	-0.001
Mof_H 	H 	0.733	0.7615	0.0857	0.262
Mof_H 	H 	0.8251	0.7657	0.0564	0.274
Mof_H 	H 	0.7861	0.7228	0.0688	0.261
Mof_Tb	Tb	0.48305	0.55548	0.05293	1.883
Mof_Zn	Zn	0.27629	0.66036	0.56762	1.206
Mof_Zn	Zn	0.56635	0.66925	0.32333	1.163
Mof_Zn	Zn	0.76287	0.50931	0.28667	1.194
Mof_O 	O 	0.1551	0.7052	0.7659	-0.577
Mof_O 	O 	0.1974	0.6627	0.6776	-0.414
Mof_O 	O 	0.3748	0.6776	0.6474	-0.435
Mof_O 	O 	0.4994	0.7067	0.6506	-0.536
Mof_O 	O 	0.6384	0.6898	0.4184	-0.516
Mof_O 	O 	0.6307	0.7065	0.5414	-0.564
Mof_O 	O 	0.464	0.5899	0.165	-0.541
Mof_O 	O 	0.4866	0.6447	0.2349	-0.505
Mof_O 	O 	0.5598	0.5172	0.142	-0.481
Mof_O 	O 	0.6726	0.4952	0.1998	-0.47
Mof_O 	O 	0.8582	0.5204	0.3846	-0.562
Mof_O 	O 	0.9318	0.4854	0.4683	-0.616
Mof_O 	O 	0.8945	0.4116	0.5475	-0.527
Mof_O 	O 	0.815	0.3596	0.5163	-0.472
Mof_N 	N 	0.2289	0.7172	0.5716	-0.325
Mof_N 	N 	0.3759	0.6692	0.4922	-0.292
Mof_N 	N 	0.4777	0.6754	0.4055	-0.301
Mof_N 	N 	0.6251	0.6167	0.3014	-0.317
Mof_N 	N 	0.6947	0.5598	0.2891	-0.317
Mof_N 	N 	0.7512	0.4608	0.3531	-0.311
Mof_N 	N 	0.7317	0.401	0.4089	-0.276
Mof_C 	C 	0.1816	0.6975	0.6988	0.414
Mof_C 	C 	0.2019	0.7286	0.6378	-0.071
Mof_C 	C 	0.4411	0.6911	0.6151	0.396
Mof_C 	C 	0.446	0.6835	0.5299	-0.081
Mof_C 	C 	0.5081	0.6872	0.4771	-0.113
Mof_C 	C 	0.5988	0.6957	0.4814	0.438
Mof_C 	C 	0.3967	0.6658	0.4177	0.265
Mof_C 	C 	0.3365	0.6546	0.3534	-0.817
Mof_H 	H 	0.3636	0.6371	0.3169	0.263
Mof_H 	H 	0.3184	0.6786	0.3269	0.21
Mof_H 	H 	0.2891	0.6412	0.3755	0.253
Mof_C 	C 	0.5068	0.6102	0.2122	0.401
Mof_C 	C 	0.584	0.5937	0.2457	-0.087
Mof_C 	C 	0.6266	0.5585	0.2387	-0.062
Mof_C 	C 	0.6182	0.5216	0.1893	0.384
Mof_C 	C 	0.6904	0.5951	0.323	0.364
Mof_C 	C 	0.7516	0.6102	0.3783	-0.911
Mof_H 	H 	0.7975	0.6218	0.3504	0.268
Mof_H 	H 	0.7712	0.5885	0.4103	0.255
Mof_H 	H 	0.7263	0.6304	0.4109	0.279
Mof_C 	C 	0.871	0.4881	0.4234	0.378
Mof_C 	C 	0.8097	0.4566	0.4133	-0.082
Mof_C 	C 	0.7967	0.4186	0.4458	-0.073
Mof_C 	C 	0.8388	0.3949	0.506	0.383
Mof_C 	C 	0.7082	0.4268	0.3527	0.342
Mof_C 	C 	0.6359	0.4184	0.2992	-0.931
Mof_H 	H 	0.6349	0.4381	0.2581	0.297
Mof_H 	H 	0.5849	0.4198	0.3283	0.297
Mof_H 	H 	0.6418	0.392	0.2771	0.303
Mof_N 	N 	0.8539	0.5187	0.2052	-0.257
Mof_C 	C 	0.8349	0.5478	0.1496	0.045
Mof_H 	H 	0.7829	0.5601	0.1497	-0.014
Mof_C 	C 	0.8938	0.5586	0.0939	-0.125
Mof_H 	H 	0.8811	0.578	0.0567	0.061
Mof_C 	C 	0.9716	0.5402	0.0937	0.054
Mof_C 	C 	0.9906	0.5111	0.1493	-0.111
Mof_H 	H 	0.0427	0.4988	0.1492	0.048
Mof_C 	C 	0.9317	0.5003	0.205	0.063
Mof_H 	H 	0.9444	0.4809	0.2422	-0.018
Mof_N 	N 	0.1547	0.5762	0.9244	-0.132
Mof_C 	C 	0.0801	0.5971	0.9316	0.029
Mof_H 	H 	0.0696	0.6193	0.8998	0.019
Mof_C 	C 	0.0212	0.585	0.9863	-0.097
Mof_H 	H 	0.9713	0.599	0.9911	0.044
Mof_C 	C 	0.037	0.5519	0.0337	0.018
Mof_C 	C 	0.1115	0.5309	0.0265	-0.111
Mof_H 	H 	0.1221	0.5088	0.0583	0.048
Mof_C 	C 	0.1704	0.5431	0.9719	0.037
Mof_H 	H 	0.2203	0.5291	0.9671	-0.001
Mof_H 	H 	0.233	0.7385	0.4143	0.264
Mof_H 	H 	0.3251	0.7343	0.4436	0.275
Mof_H 	H 	0.2861	0.7772	0.4312	0.263
Mof_Tb	Tb	0.01695	0.44452	0.55293	1.885
Mof_Zn	Zn	0.22371	0.33964	0.06762	1.205
Mof_Zn	Zn	0.93365	0.33075	0.82333	1.162
Mof_Zn	Zn	0.73713	0.49069	0.78667	1.194
Mof_O 	O 	0.3449	0.2948	0.2659	-0.577
Mof_O 	O 	0.3026	0.3373	0.1776	-0.414
Mof_O 	O 	0.1252	0.3224	0.1474	-0.435
Mof_O 	O 	0.0006	0.2933	0.1506	-0.538
Mof_O 	O 	0.8616	0.3102	0.9184	-0.516
Mof_O 	O 	0.8693	0.2935	0.0414	-0.559
Mof_O 	O 	0.036	0.4101	0.665	-0.537
Mof_O 	O 	0.0134	0.3553	0.7349	-0.5
Mof_O 	O 	0.9402	0.4828	0.642	-0.482
Mof_O 	O 	0.8274	0.5048	0.6998	-0.47
Mof_O 	O 	0.6418	0.4796	0.8846	-0.562
Mof_O 	O 	0.5682	0.5146	0.9683	-0.616
Mof_O 	O 	0.6055	0.5884	0.0475	-0.527
Mof_O 	O 	0.685	0.6404	0.0163	-0.471
Mof_N 	N 	0.2711	0.2828	0.0716	-0.324
Mof_N 	N 	0.1241	0.3308	0.9922	-0.289
Mof_N 	N 	0.0223	0.3246	0.9055	-0.297
Mof_N 	N 	0.8749	0.3833	0.8014	-0.318
Mof_N 	N 	0.8053	0.4402	0.7891	-0.317
Mof_N 	N 	0.7488	0.5392	0.8531	-0.311
Mof_N 	N 	0.7683	0.599	0.9089	-0.276
Mof_C 	C 	0.3184	0.3025	0.1988	0.414
Mof_C 	C 	0.2981	0.2714	0.1378	-0.071
Mof_C 	C 	0.0589	0.3089	0.1151	0.396
Mof_C 	C 	0.054	0.3165	0.0299	-0.084
Mof_C 	C 	0.9919	0.3128	0.9771	-0.118
Mof_C 	C 	0.9012	0.3043	0.9814	0.432
Mof_C 	C 	0.1033	0.3342	0.9177	0.267
Mof_C 	C 	0.1635	0.3454	0.8534	-0.819
Mof_H 	H 	0.1364	0.3629	0.8169	0.263
Mof_H 	H 	0.1816	0.3214	0.8269	0.211
Mof_H 	H 	0.2109	0.3588	0.8755	0.254
Mof_C 	C 	0.9932	0.3898	0.7122	0.393
Mof_C 	C 	0.916	0.4063	0.7457	-0.085
Mof_C 	C 	0.8734	0.4415	0.7387	-0.064
Mof_C 	C 	0.8818	0.4784	0.6893	0.384
Mof_C 	C 	0.8096	0.4049	0.823	0.363
Mof_C 	C 	0.7484	0.3898	0.8783	-0.909
Mof_H 	H 	0.7025	0.3782	0.8504	0.267
Mof_H 	H 	0.7288	0.4115	0.9103	0.253
Mof_H 	H 	0.7737	0.3696	0.9109	0.278
Mof_C 	C 	0.629	0.5119	0.9234	0.377
Mof_C 	C 	0.6903	0.5434	0.9133	-0.081
Mof_C 	C 	0.7033	0.5814	0.9458	-0.075
Mof_C 	C 	0.6612	0.6051	0.006	0.385
Mof_C 	C 	0.7918	0.5732	0.8527	0.342
Mof_C 	C 	0.8641	0.5816	0.7992	-0.928
Mof_H 	H 	0.8651	0.5619	0.7581	0.296
Mof_H 	H 	0.9151	0.5802	0.8283	0.296
Mof_H 	H 	0.8582	0.608	0.7771	0.302
Mof_N 	N 	0.6461	0.4813	0.7052	-0.257
Mof_C 	C 	0.6651	0.4522	0.6496	0.042
Mof_H 	H 	0.7171	0.4399	0.6497	-0.014
Mof_C 	C 	0.6062	0.4414	0.5939	-0.12
Mof_H 	H 	0.6189	0.422	0.5567	0.057
Mof_C 	C 	0.5284	0.4598	0.5937	0.044
Mof_C 	C 	0.5094	0.4889	0.6493	-0.115
Mof_H 	H 	0.4573	0.5012	0.6492	0.051
Mof_C 	C 	0.5683	0.4997	0.705	0.064
Mof_H 	H 	0.5556	0.5191	0.7422	-0.019
Mof_N 	N 	0.3453	0.4238	0.4244	-0.134
Mof_C 	C 	0.4199	0.4029	0.4316	0.041
Mof_H 	H 	0.4304	0.3807	0.3998	0.014
Mof_C 	C 	0.4788	0.415	0.4863	-0.126
Mof_H 	H 	0.5287	0.401	0.4911	0.059
Mof_C 	C 	0.463	0.4481	0.5337	0.038
Mof_C 	C 	0.3885	0.4691	0.5265	-0.115
Mof_H 	H 	0.3779	0.4912	0.5583	0.05
Mof_C 	C 	0.3296	0.4569	0.4719	0.036
Mof_H 	H 	0.2797	0.4709	0.4671	-0.001
Mof_H 	H 	0.267	0.2615	0.9143	0.262
Mof_H 	H 	0.1749	0.2657	0.9436	0.274
Mof_H 	H 	0.2139	0.2228	0.9312	0.261
Mof_Tb	Tb	0.48305	0.94452	0.05293	1.881
Mof_Zn	Zn	0.27629	0.83964	0.56762	1.206
Mof_Zn	Zn	0.56635	0.83075	0.32333	1.163
Mof_Zn	Zn	0.76287	0.99069	0.28667	1.194
Mof_O 	O 	0.1551	0.7948	0.7659	-0.577
Mof_O 	O 	0.1974	0.8373	0.6776	-0.414
Mof_O 	O 	0.3748	0.8224	0.6474	-0.435
Mof_O 	O 	0.4994	0.7933	0.6506	-0.536
Mof_O 	O 	0.6384	0.8102	0.4184	-0.516
Mof_O 	O 	0.6307	0.7935	0.5414	-0.564
Mof_O 	O 	0.464	0.9101	0.165	-0.541
Mof_O 	O 	0.4866	0.8553	0.2349	-0.505
Mof_O 	O 	0.5598	0.9828	0.142	-0.481
Mof_O 	O 	0.6726	0.0048	0.1998	-0.469
Mof_O 	O 	0.8582	0.9796	0.3846	-0.562
Mof_O 	O 	0.9318	0.0146	0.4683	-0.616
Mof_O 	O 	0.8945	0.0884	0.5475	-0.527
Mof_O 	O 	0.815	0.1404	0.5163	-0.472
Mof_N 	N 	0.2289	0.7828	0.5716	-0.325
Mof_N 	N 	0.3759	0.8308	0.4922	-0.292
Mof_N 	N 	0.4777	0.8246	0.4055	-0.301
Mof_N 	N 	0.6251	0.8833	0.3014	-0.317
Mof_N 	N 	0.6947	0.9402	0.2891	-0.317
Mof_N 	N 	0.7512	0.0392	0.3531	-0.311
Mof_N 	N 	0.7317	0.099	0.4089	-0.276
Mof_C 	C 	0.1816	0.8025	0.6988	0.414
Mof_C 	C 	0.2019	0.7714	0.6378	-0.071
Mof_C 	C 	0.4411	0.8089	0.6151	0.396
Mof_C 	C 	0.446	0.8165	0.5299	-0.081
Mof_C 	C 	0.5081	0.8128	0.4771	-0.113
Mof_C 	C 	0.5988	0.8043	0.4814	0.438
Mof_C 	C 	0.3967	0.8342	0.4177	0.265
Mof_C 	C 	0.3365	0.8454	0.3534	-0.817
Mof_H 	H 	0.3636	0.8629	0.3169	0.263
Mof_H 	H 	0.3184	0.8214	0.3269	0.21
Mof_H 	H 	0.2891	0.8588	0.3755	0.253
Mof_C 	C 	0.5068	0.8898	0.2122	0.401
Mof_C 	C 	0.584	0.9063	0.2457	-0.087
Mof_C 	C 	0.6266	0.9415	0.2387	-0.062
Mof_C 	C 	0.6182	0.9784	0.1893	0.383
Mof_C 	C 	0.6904	0.9049	0.323	0.364
Mof_C 	C 	0.7516	0.8898	0.3783	-0.911
Mof_H 	H 	0.7975	0.8782	0.3504	0.268
Mof_H 	H 	0.7712	0.9115	0.4103	0.255
Mof_H 	H 	0.7263	0.8696	0.4109	0.279
Mof_C 	C 	0.871	0.0119	0.4234	0.378
Mof_C 	C 	0.8097	0.0434	0.4133	-0.082
Mof_C 	C 	0.7967	0.0814	0.4458	-0.073
Mof_C 	C 	0.8388	0.1051	0.506	0.383
Mof_C 	C 	0.7082	0.0732	0.3527	0.343
Mof_C 	C 	0.6359	0.0816	0.2992	-0.931
Mof_H 	H 	0.6349	0.0619	0.2581	0.297
Mof_H 	H 	0.5849	0.0802	0.3283	0.298
Mof_H 	H 	0.6418	0.108	0.2771	0.303
Mof_N 	N 	0.8539	0.9813	0.2052	-0.258
Mof_C 	C 	0.8349	0.9522	0.1496	0.045
Mof_H 	H 	0.7829	0.9399	0.1497	-0.015
Mof_C 	C 	0.8938	0.9414	0.0939	-0.126
Mof_H 	H 	0.8811	0.922	0.0567	0.061
Mof_C 	C 	0.9716	0.9598	0.0937	0.055
Mof_C 	C 	0.9906	0.9889	0.1493	-0.113
Mof_H 	H 	0.0427	0.0012	0.1492	0.049
Mof_C 	C 	0.9317	0.9997	0.205	0.063
Mof_H 	H 	0.9444	0.0191	0.2422	-0.018
Mof_N 	N 	0.1547	0.9238	0.9244	-0.132
Mof_C 	C 	0.0801	0.9029	0.9316	0.029
Mof_H 	H 	0.0696	0.8807	0.8998	0.019
Mof_C 	C 	0.0212	0.915	0.9863	-0.096
Mof_H 	H 	0.9713	0.901	0.9911	0.044
Mof_C 	C 	0.037	0.9481	0.0337	0.017
Mof_C 	C 	0.1115	0.9691	0.0265	-0.112
Mof_H 	H 	0.1221	0.9912	0.0583	0.048
Mof_C 	C 	0.1704	0.9569	0.9719	0.039
Mof_H 	H 	0.2203	0.9709	0.9671	-0.001
Mof_H 	H 	0.233	0.7615	0.4143	0.264
Mof_H 	H 	0.3251	0.7657	0.4436	0.275
Mof_H 	H 	0.2861	0.7228	0.4312	0.263
Mof_Tb	Tb	0.01695	0.05548	0.55293	1.885
Mof_Zn	Zn	0.22371	0.16036	0.06762	1.206
Mof_Zn	Zn	0.93365	0.16925	0.82333	1.162
Mof_Zn	Zn	0.73713	0.00931	0.78667	1.194
Mof_O 	O 	0.3449	0.2052	0.2659	-0.577
Mof_O 	O 	0.3026	0.1627	0.1776	-0.414
Mof_O 	O 	0.1252	0.1776	0.1474	-0.435
Mof_O 	O 	0.0006	0.2067	0.1506	-0.538
Mof_O 	O 	0.8616	0.1898	0.9184	-0.516
Mof_O 	O 	0.8693	0.2065	0.0414	-0.559
Mof_O 	O 	0.036	0.0899	0.665	-0.537
Mof_O 	O 	0.0134	0.1447	0.7349	-0.5
Mof_O 	O 	0.9402	0.0172	0.642	-0.482
Mof_O 	O 	0.8274	0.9952	0.6998	-0.47
Mof_O 	O 	0.6418	0.0204	0.8846	-0.563
Mof_O 	O 	0.5682	0.9854	0.9683	-0.616
Mof_O 	O 	0.6055	0.9116	0.0475	-0.527
Mof_O 	O 	0.685	0.8596	0.0163	-0.471
Mof_N 	N 	0.2711	0.2172	0.0716	-0.324
Mof_N 	N 	0.1241	0.1692	0.9922	-0.29
Mof_N 	N 	0.0223	0.1754	0.9055	-0.297
Mof_N 	N 	0.8749	0.1167	0.8014	-0.318
Mof_N 	N 	0.8053	0.0598	0.7891	-0.317
Mof_N 	N 	0.7488	0.9608	0.8531	-0.311
Mof_N 	N 	0.7683	0.901	0.9089	-0.276
Mof_C 	C 	0.3184	0.1975	0.1988	0.414
Mof_C 	C 	0.2981	0.2286	0.1378	-0.071
Mof_C 	C 	0.0589	0.1911	0.1151	0.396
Mof_C 	C 	0.054	0.1835	0.0299	-0.083
Mof_C 	C 	0.9919	0.1872	0.9771	-0.118
Mof_C 	C 	0.9012	0.1957	0.9814	0.432
Mof_C 	C 	0.1033	0.1658	0.9177	0.267
Mof_C 	C 	0.1635	0.1546	0.8534	-0.819
Mof_H 	H 	0.1364	0.1371	0.8169	0.263
Mof_H 	H 	0.1816	0.1786	0.8269	0.211
Mof_H 	H 	0.2109	0.1412	0.8755	0.254
Mof_C 	C 	0.9932	0.1102	0.7122	0.393
Mof_C 	C 	0.916	0.0937	0.7457	-0.085
Mof_C 	C 	0.8734	0.0585	0.7387	-0.064
Mof_C 	C 	0.8818	0.0216	0.6893	0.383
Mof_C 	C 	0.8096	0.0951	0.823	0.363
Mof_C 	C 	0.7484	0.1102	0.8783	-0.908
Mof_H 	H 	0.7025	0.1218	0.8504	0.267
Mof_H 	H 	0.7288	0.0885	0.9103	0.253
Mof_H 	H 	0.7737	0.1304	0.9109	0.278
Mof_C 	C 	0.629	0.9881	0.9234	0.378
Mof_C 	C 	0.6903	0.9566	0.9133	-0.082
Mof_C 	C 	0.7033	0.9186	0.9458	-0.074
Mof_C 	C 	0.6612	0.8949	0.006	0.385
Mof_C 	C 	0.7918	0.9268	0.8527	0.342
Mof_C 	C 	0.8641	0.9184	0.7992	-0.929
Mof_H 	H 	0.8651	0.9381	0.7581	0.296
Mof_H 	H 	0.9151	0.9198	0.8283	0.296
Mof_H 	H 	0.8582	0.892	0.7771	0.302
Mof_N 	N 	0.6461	0.0187	0.7052	-0.257
Mof_C 	C 	0.6651	0.0478	0.6496	0.041
Mof_H 	H 	0.7171	0.0601	0.6497	-0.014
Mof_C 	C 	0.6062	0.0586	0.5939	-0.12
Mof_H 	H 	0.6189	0.078	0.5567	0.057
Mof_C 	C 	0.5284	0.0402	0.5937	0.044
Mof_C 	C 	0.5094	0.0111	0.6493	-0.116
Mof_H 	H 	0.4573	0.9988	0.6492	0.052
Mof_C 	C 	0.5683	0.0003	0.705	0.063
Mof_H 	H 	0.5556	0.9809	0.7422	-0.019
Mof_N 	N 	0.3453	0.0762	0.4244	-0.134
Mof_C 	C 	0.4199	0.0971	0.4316	0.041
Mof_H 	H 	0.4304	0.1193	0.3998	0.014
Mof_C 	C 	0.4788	0.085	0.4863	-0.126
Mof_H 	H 	0.5287	0.099	0.4911	0.059
Mof_C 	C 	0.463	0.0519	0.5337	0.038
Mof_C 	C 	0.3885	0.0309	0.5265	-0.115
Mof_H 	H 	0.3779	0.0088	0.5583	0.05
Mof_C 	C 	0.3296	0.0431	0.4719	0.036
Mof_H 	H 	0.2797	0.0291	0.4671	-0.001
Mof_H 	H 	0.267	0.2385	0.9143	0.262
Mof_H 	H 	0.1749	0.2343	0.9436	0.274
Mof_H 	H 	0.2139	0.2772	0.9312	0.261
Mof_Tb	Tb	0.51695	0.44452	0.94707	1.883
Mof_Zn	Zn	0.72371	0.33964	0.43238	1.206
Mof_Zn	Zn	0.43365	0.33075	0.67667	1.163
Mof_Zn	Zn	0.23713	0.49069	0.71333	1.194
Mof_O 	O 	0.8449	0.2948	0.2341	-0.577
Mof_O 	O 	0.8026	0.3373	0.3224	-0.414
Mof_O 	O 	0.6252	0.3224	0.3526	-0.435
Mof_O 	O 	0.5006	0.2933	0.3494	-0.536
Mof_O 	O 	0.3616	0.3102	0.5816	-0.516
Mof_O 	O 	0.3693	0.2935	0.4586	-0.564
Mof_O 	O 	0.536	0.4101	0.835	-0.541
Mof_O 	O 	0.5134	0.3553	0.7651	-0.505
Mof_O 	O 	0.4402	0.4828	0.858	-0.481
Mof_O 	O 	0.3274	0.5048	0.8002	-0.47
Mof_O 	O 	0.1418	0.4796	0.6154	-0.562
Mof_O 	O 	0.0682	0.5146	0.5317	-0.616
Mof_O 	O 	0.1055	0.5884	0.4525	-0.527
Mof_O 	O 	0.185	0.6404	0.4837	-0.472
Mof_N 	N 	0.7711	0.2828	0.4284	-0.325
Mof_N 	N 	0.6241	0.3308	0.5078	-0.292
Mof_N 	N 	0.5223	0.3246	0.5945	-0.301
Mof_N 	N 	0.3749	0.3833	0.6986	-0.317
Mof_N 	N 	0.3053	0.4402	0.7109	-0.317
Mof_N 	N 	0.2488	0.5392	0.6469	-0.311
Mof_N 	N 	0.2683	0.599	0.5911	-0.276
Mof_C 	C 	0.8184	0.3025	0.3012	0.414
Mof_C 	C 	0.7981	0.2714	0.3622	-0.071
Mof_C 	C 	0.5589	0.3089	0.3849	0.396
Mof_C 	C 	0.554	0.3165	0.4701	-0.081
Mof_C 	C 	0.4919	0.3128	0.5229	-0.113
Mof_C 	C 	0.4012	0.3043	0.5186	0.438
Mof_C 	C 	0.6033	0.3342	0.5823	0.265
Mof_C 	C 	0.6635	0.3454	0.6466	-0.817
Mof_H 	H 	0.6364	0.3629	0.6831	0.263
Mof_H 	H 	0.6816	0.3214	0.6731	0.21
Mof_H 	H 	0.7109	0.3588	0.6245	0.253
Mof_C 	C 	0.4932	0.3898	0.7878	0.401
Mof_C 	C 	0.416	0.4063	0.7543	-0.087
Mof_C 	C 	0.3734	0.4415	0.7613	-0.062
Mof_C 	C 	0.3818	0.4784	0.8107	0.384
Mof_C 	C 	0.3096	0.4049	0.677	0.364
Mof_C 	C 	0.2484	0.3898	0.6217	-0.911
Mof_H 	H 	0.2025	0.3782	0.6496	0.268
Mof_H 	H 	0.2288	0.4115	0.5897	0.255
Mof_H 	H 	0.2737	0.3696	0.5891	0.279
Mof_C 	C 	0.129	0.5119	0.5766	0.378
Mof_C 	C 	0.1903	0.5434	0.5867	-0.082
Mof_C 	C 	0.2033	0.5814	0.5542	-0.073
Mof_C 	C 	0.1612	0.6051	0.494	0.383
Mof_C 	C 	0.2918	0.5732	0.6473	0.342
Mof_C 	C 	0.3641	0.5816	0.7008	-0.931
Mof_H 	H 	0.3651	0.5619	0.7419	0.297
Mof_H 	H 	0.4151	0.5802	0.6717	0.297
Mof_H 	H 	0.3582	0.608	0.7229	0.303
Mof_N 	N 	0.1461	0.4813	0.7948	-0.257
Mof_C 	C 	0.1651	0.4522	0.8504	0.045
Mof_H 	H 	0.2171	0.4399	0.8503	-0.014
Mof_C 	C 	0.1062	0.4414	0.9061	-0.125
Mof_H 	H 	0.1189	0.422	0.9433	0.061
Mof_C 	C 	0.0284	0.4598	0.9063	0.054
Mof_C 	C 	0.0094	0.4889	0.8507	-0.111
Mof_H 	H 	0.9573	0.5012	0.8508	0.048
Mof_C 	C 	0.0683	0.4997	0.795	0.063
Mof_H 	H 	0.0556	0.5191	0.7578	-0.018
Mof_N 	N 	0.8453	0.4238	0.0756	-0.132
Mof_C 	C 	0.9199	0.4029	0.0684	0.029
Mof_H 	H 	0.9304	0.3807	0.1002	0.019
Mof_C 	C 	0.9788	0.415	0.0137	-0.097
Mof_H 	H 	0.0287	0.401	0.0089	0.044
Mof_C 	C 	0.963	0.4481	0.9663	0.018
Mof_C 	C 	0.8885	0.4691	0.9735	-0.111
Mof_H 	H 	0.8779	0.4912	0.9417	0.048
Mof_C 	C 	0.8296	0.4569	0.0281	0.037
Mof_H 	H 	0.7797	0.4709	0.0329	-0.001
Mof_H 	H 	0.767	0.2615	0.5857	0.264
Mof_H 	H 	0.6749	0.2657	0.5564	0.275
Mof_H 	H 	0.7139	0.2228	0.5688	0.263
Mof_Tb	Tb	0.98305	0.55548	0.44707	1.885
Mof_Zn	Zn	0.77629	0.66036	0.93238	1.205
Mof_Zn	Zn	0.06635	0.66925	0.17667	1.162
Mof_Zn	Zn	0.26287	0.50931	0.21333	1.194
Mof_O 	O 	0.6551	0.7052	0.7341	-0.577
Mof_O 	O 	0.6974	0.6627	0.8224	-0.414
Mof_O 	O 	0.8748	0.6776	0.8526	-0.435
Mof_O 	O 	0.9994	0.7067	0.8494	-0.538
Mof_O 	O 	0.1384	0.6898	0.0816	-0.516
Mof_O 	O 	0.1307	0.7065	0.9586	-0.559
Mof_O 	O 	0.964	0.5899	0.335	-0.537
Mof_O 	O 	0.9866	0.6447	0.2651	-0.5
Mof_O 	O 	0.0598	0.5172	0.358	-0.482
Mof_O 	O 	0.1726	0.4952	0.3002	-0.47
Mof_O 	O 	0.3582	0.5204	0.1154	-0.562
Mof_O 	O 	0.4318	0.4854	0.0317	-0.616
Mof_O 	O 	0.3945	0.4116	0.9525	-0.527
Mof_O 	O 	0.315	0.3596	0.9837	-0.471
Mof_N 	N 	0.7289	0.7172	0.9284	-0.324
Mof_N 	N 	0.8759	0.6692	0.0078	-0.289
Mof_N 	N 	0.9777	0.6754	0.0945	-0.297
Mof_N 	N 	0.1251	0.6167	0.1986	-0.318
Mof_N 	N 	0.1947	0.5598	0.2109	-0.317
Mof_N 	N 	0.2512	0.4608	0.1469	-0.311
Mof_N 	N 	0.2317	0.401	0.0911	-0.276
Mof_C 	C 	0.6816	0.6975	0.8012	0.414
Mof_C 	C 	0.7019	0.7286	0.8622	-0.071
Mof_C 	C 	0.9411	0.6911	0.8849	0.396
Mof_C 	C 	0.946	0.6835	0.9701	-0.084
Mof_C 	C 	0.0081	0.6872	0.0229	-0.118
Mof_C 	C 	0.0988	0.6957	0.0186	0.432
Mof_C 	C 	0.8967	0.6658	0.0823	0.267
Mof_C 	C 	0.8365	0.6546	0.1466	-0.819
Mof_H 	H 	0.8636	0.6371	0.1831	0.263
Mof_H 	H 	0.8184	0.6786	0.1731	0.211
Mof_H 	H 	0.7891	0.6412	0.1245	0.254
Mof_C 	C 	0.0068	0.6102	0.2878	0.393
Mof_C 	C 	0.084	0.5937	0.2543	-0.085
Mof_C 	C 	0.1266	0.5585	0.2613	-0.064
Mof_C 	C 	0.1182	0.5216	0.3107	0.384
Mof_C 	C 	0.1904	0.5951	0.177	0.363
Mof_C 	C 	0.2516	0.6102	0.1217	-0.909
Mof_H 	H 	0.2975	0.6218	0.1496	0.267
Mof_H 	H 	0.2712	0.5885	0.0897	0.253
Mof_H 	H 	0.2263	0.6304	0.0891	0.278
Mof_C 	C 	0.371	0.4881	0.0766	0.377
Mof_C 	C 	0.3097	0.4566	0.0867	-0.081
Mof_C 	C 	0.2967	0.4186	0.0542	-0.075
Mof_C 	C 	0.3388	0.3949	0.994	0.385
Mof_C 	C 	0.2082	0.4268	0.1473	0.342
Mof_C 	C 	0.1359	0.4184	0.2008	-0.928
Mof_H 	H 	0.1349	0.4381	0.2419	0.296
Mof_H 	H 	0.0849	0.4198	0.1717	0.296
Mof_H 	H 	0.1418	0.392	0.2229	0.302
Mof_N 	N 	0.3539	0.5187	0.2948	-0.257
Mof_C 	C 	0.3349	0.5478	0.3504	0.042
Mof_H 	H 	0.2829	0.5601	0.3503	-0.014
Mof_C 	C 	0.3938	0.5586	0.4061	-0.12
Mof_H 	H 	0.3811	0.578	0.4433	0.057
Mof_C 	C 	0.4716	0.5402	0.4063	0.044
Mof_C 	C 	0.4906	0.5111	0.3507	-0.115
Mof_H 	H 	0.5427	0.4988	0.3508	0.051
Mof_C 	C 	0.4317	0.5003	0.295	0.064
Mof_H 	H 	0.4444	0.4809	0.2578	-0.019
Mof_N 	N 	0.6547	0.5762	0.5756	-0.134
Mof_C 	C 	0.5801	0.5971	0.5684	0.041
Mof_H 	H 	0.5696	0.6193	0.6002	0.014
Mof_C 	C 	0.5212	0.585	0.5137	-0.126
Mof_H 	H 	0.4713	0.599	0.5089	0.059
Mof_C 	C 	0.537	0.5519	0.4663	0.038
Mof_C 	C 	0.6115	0.5309	0.4735	-0.115
Mof_H 	H 	0.6221	0.5088	0.4417	0.05
Mof_C 	C 	0.6704	0.5431	0.5281	0.036
Mof_H 	H 	0.7203	0.5291	0.5329	-0.001
Mof_H 	H 	0.733	0.7385	0.0857	0.262
Mof_H 	H 	0.8251	0.7343	0.0564	0.274
Mof_H 	H 	0.7861	0.7772	0.0688	0.261
Mof_Tb	Tb	0.88974	0.25	0.14667	2.276
Mof_C 	C 	0.755	0.25	0.4693	0.497
Mof_C 	C 	0.725	0.25	0.5526	-1.657
Mof_Tb	Tb	0.61026	0.75	0.64667	2.27
Mof_C 	C 	0.745	0.75	0.9693	0.492
Mof_C 	C 	0.775	0.75	0.0526	-1.647
Mof_Tb	Tb	0.11026	0.75	0.85333	2.276
Mof_C 	C 	0.245	0.75	0.5307	0.497
Mof_C 	C 	0.275	0.75	0.4474	-1.657
Mof_Tb	Tb	0.38974	0.25	0.35333	2.27
Mof_C 	C 	0.255	0.25	0.0307	0.492
Mof_C 	C 	0.225	0.25	0.9474	-1.647
_end
