data_functionalizedCrystal
_audit_creation_method	'EQeq! by Chris Wilmer'
_symmetry_space_group_name_H-M	'P1'
_symmetry_Int_Tables_number	1
_symmetry_cell_setting	triclinic
loop_
_symmetry_equiv_pos_as_xyz
  x,y,z
_cell_length_a	19.293
_cell_length_b	19.293
_cell_length_c	20.838
_cell_angle_alpha	90
_cell_angle_beta	90
_cell_angle_gamma	120
loop_
_atom_site_label
_atom_site_type_symbol
_atom_site_fract_x
_atom_site_fract_y
_atom_site_fract_z
_atom_site_charge
Mof_Zn	Zn	0.43569	0.72284	0.87987	1.235
Mof_Zn	Zn	0.36887	0.64659	0.04281	1.193
Mof_Zn	Zn	0.28715	0.56431	0.2132	1.233
Mof_Zn	Zn	0.27772	0.63113	0.37614	1.195
Mof_Zn	Zn	0.27716	0.71285	0.54654	1.233
Mof_Zn	Zn	0.35341	0.72228	0.70948	1.195
Mof_Zn	Zn	0.56431	0.27716	0.37987	1.233
Mof_Zn	Zn	0.63113	0.35341	0.54281	1.195
Mof_Zn	Zn	0.71285	0.43569	0.7132	1.233
Mof_Zn	Zn	0.72228	0.36887	0.87614	1.195
Mof_Zn	Zn	0.72284	0.28715	0.04654	1.23
Mof_Zn	Zn	0.64659	0.27772	0.20948	1.194
Mof_H 	H 	0.9445	0.3511	0.8518	0.022
Mof_H 	H 	0.9301	0.1573	0.9938	0.089
Mof_H 	H 	0.0387	0.3098	0.8455	0.083
Mof_H 	H 	0.8372	0.2008	0.0009	0
Mof_H 	H 	0.2145	0.4898	0.9769	0.005
Mof_H 	H 	0.1277	0.3512	0.98	0.085
Mof_H 	H 	0.2535	0.3236	0.8355	0.074
Mof_H 	H 	0.3401	0.4617	0.8332	0.023
Mof_H 	H 	0.1957	0.7353	0.7855	0.005
Mof_H 	H 	0.1125	0.7899	0.7951	0.083
Mof_H 	H 	0.2572	0.9392	0.934	0.078
Mof_H 	H 	0.3396	0.8843	0.9246	0.021
Mof_H 	H 	0.823	0.6735	0.7768	0.019
Mof_H 	H 	0.9167	0.8062	0.7994	0.08
Mof_H 	H 	0.029	0.7316	0.9216	0.084
Mof_H 	H 	0.9339	0.5991	0.899	0.027
Mof_H 	H 	0.4066	0.0555	0.18513	0.026
Mof_H 	H 	0.2272	0.0699	0.32713	0.076
Mof_H 	H 	0.2711	0.9613	0.17883	0.078
Mof_H 	H 	0.3636	0.1628	0.33423	0.027
Mof_H 	H 	0.2753	0.7855	0.31023	0.001
Mof_H 	H 	0.2235	0.8723	0.31333	0.083
Mof_H 	H 	0.0701	0.7465	0.16883	0.074
Mof_H 	H 	0.1216	0.6599	0.16653	0.02
Mof_H 	H 	0.5396	0.8043	0.11883	0.003
Mof_H 	H 	0.6774	0.8875	0.12843	0.082
Mof_H 	H 	0.682	0.7428	0.26733	0.074
Mof_H 	H 	0.5447	0.6604	0.25793	0.018
Mof_H 	H 	0.8505	0.177	0.11013	0.017
Mof_H 	H 	0.8895	0.0833	0.13273	0.078
Mof_H 	H 	0.7026	0.971	0.25493	0.082
Mof_H 	H 	0.6652	0.0661	0.23233	0.024
Mof_H 	H 	0.6489	0.5934	0.51847	0.027
Mof_H 	H 	0.8427	0.7728	0.66047	0.076
Mof_H 	H 	0.6902	0.7289	0.51217	0.078
Mof_H 	H 	0.7992	0.6364	0.66757	0.027
Mof_H 	H 	0.5102	0.7247	0.64357	0.001
Mof_H 	H 	0.6488	0.7765	0.64667	0.083
Mof_H 	H 	0.6764	0.9299	0.50217	0.074
Mof_H 	H 	0.5383	0.8784	0.49987	0.022
Mof_H 	H 	0.2647	0.4604	0.45217	0.005
Mof_H 	H 	0.2101	0.3226	0.46177	0.083
Mof_H 	H 	0.0608	0.318	0.60067	0.074
Mof_H 	H 	0.1157	0.4553	0.59127	0.019
Mof_H 	H 	0.3265	0.1495	0.44347	0.019
Mof_H 	H 	0.1938	0.1105	0.46607	0.08
Mof_H 	H 	0.2684	0.2974	0.58827	0.082
Mof_H 	H 	0.4009	0.3348	0.56567	0.025
Mof_H 	H 	0.0555	0.6489	0.3518	0.027
Mof_H 	H 	0.0699	0.8427	0.4938	0.075
Mof_H 	H 	0.9613	0.6902	0.3455	0.078
Mof_H 	H 	0.1628	0.7992	0.5009	0.027
Mof_H 	H 	0.7855	0.5102	0.4769	0.001
Mof_H 	H 	0.8723	0.6488	0.48	0.083
Mof_H 	H 	0.7465	0.6764	0.3355	0.074
Mof_H 	H 	0.6599	0.5383	0.3332	0.021
Mof_H 	H 	0.8043	0.2647	0.2855	0.005
Mof_H 	H 	0.8875	0.2101	0.2951	0.083
Mof_H 	H 	0.7428	0.0608	0.434	0.074
Mof_H 	H 	0.6604	0.1157	0.4246	0.019
Mof_H 	H 	0.177	0.3265	0.2768	0.019
Mof_H 	H 	0.0833	0.1938	0.2994	0.08
Mof_H 	H 	0.971	0.2684	0.4216	0.082
Mof_H 	H 	0.0661	0.4009	0.399	0.025
Mof_H 	H 	0.5934	0.9445	0.68513	0.027
Mof_H 	H 	0.7728	0.9301	0.82713	0.076
Mof_H 	H 	0.7289	0.0387	0.67883	0.079
Mof_H 	H 	0.6364	0.8372	0.83423	0.028
Mof_H 	H 	0.7247	0.2145	0.81023	0.002
Mof_H 	H 	0.7765	0.1277	0.81333	0.083
Mof_H 	H 	0.9299	0.2535	0.66883	0.074
Mof_H 	H 	0.8784	0.3401	0.66653	0.022
Mof_H 	H 	0.4604	0.1957	0.61883	0.005
Mof_H 	H 	0.3226	0.1125	0.62843	0.083
Mof_H 	H 	0.318	0.2572	0.76733	0.075
Mof_H 	H 	0.4553	0.3396	0.75793	0.019
Mof_H 	H 	0.1495	0.823	0.61013	0.019
Mof_H 	H 	0.1105	0.9167	0.63273	0.08
Mof_H 	H 	0.2974	0.029	0.75493	0.083
Mof_H 	H 	0.3348	0.9339	0.73233	0.025
Mof_H 	H 	0.3511	0.4066	0.01847	0.023
Mof_H 	H 	0.1573	0.2272	0.16047	0.076
Mof_H 	H 	0.3098	0.2711	0.01217	0.075
Mof_H 	H 	0.2008	0.3636	0.16757	0.026
Mof_H 	H 	0.4898	0.2753	0.14357	0.005
Mof_H 	H 	0.3512	0.2235	0.14667	0.078
Mof_H 	H 	0.3236	0.0701	0.00217	0.061
Mof_H 	H 	0.4617	0.1216	0.99987	0.048
Mof_H 	H 	0.7353	0.5396	0.95217	0.004
Mof_H 	H 	0.7899	0.6774	0.96177	0.081
Mof_H 	H 	0.9392	0.682	0.10067	0.072
Mof_H 	H 	0.8843	0.5447	0.09127	0.018
Mof_H 	H 	0.6735	0.8505	0.94347	0.009
Mof_H 	H 	0.8062	0.8895	0.96607	0.083
Mof_H 	H 	0.7316	0.7026	0.08827	0.085
Mof_H 	H 	0.5991	0.6652	0.06567	0.016
Mof_C 	C 	0.0881	0.0857	0.90433	-0.002
Mof_C 	C 	0.087	0.017	0.89686	-0.002
Mof_C 	C 	0.0482	0.1964	0.91328	-0.03
Mof_C 	C 	0.1284	0.2358	0.90953	-0.023
Mof_C 	C 	0.1225	0.9042	0.8746	-0.025
Mof_C 	C 	0.0423	0.8674	0.87424	-0.028
Mof_C 	C 	0.8799	0.2775	0.92562	-0.153
Mof_C 	C 	0.9413	0.3112	0.88031	0.076
Mof_C 	C 	0.933	0.1966	0.96483	-0.152
Mof_C 	C 	0.9932	0.2289	0.91878	0.093
Mof_C 	C 	0.9973	0.287	0.87672	-0.142
Mof_C 	C 	0.87733	0.22191	0.96859	0.1
Mof_C 	C 	0.81477	0.29873	0.92801	0.393
Mof_C 	C 	0.28502	0.48866	0.9049	-0.142
Mof_C 	C 	0.22234	0.45596	0.94839	0.071
Mof_C 	C 	0.1709	0.3736	0.9503	-0.13
Mof_C 	C 	0.1827	0.3236	0.90835	0.081
Mof_C 	C 	0.2457	0.3571	0.86443	-0.13
Mof_C 	C 	0.2969	0.4391	0.86288	0.059
Mof_C 	C 	0.3411	0.5763	0.90207	0.36
Mof_C 	C 	0.2756	0.8035	0.85422	-0.147
Mof_C 	C 	0.208	0.7765	0.81602	0.073
Mof_C 	C 	0.1583	0.8088	0.82181	-0.137
Mof_C 	C 	0.175	0.869	0.86658	0.083
Mof_C 	C 	0.244	0.8971	0.90413	-0.133
Mof_C 	C 	0.2933	0.8648	0.89835	0.064
Mof_C 	C 	0.328	0.7674	0.84909	0.379
Mof_C 	C 	0.8695	0.6232	0.83543	-0.147
Mof_C 	C 	0.8651	0.6853	0.80621	0.069
Mof_C 	C 	0.9211	0.7643	0.81918	-0.14
Mof_C 	C 	0.9833	0.7817	0.86108	0.088
Mof_C 	C 	0.9875	0.72	0.89167	-0.137
Mof_C 	C 	0.9307	0.6414	0.87827	0.071
Mof_C 	C 	0.81	0.5383	0.8197	0.4
Mof_C 	C 	0.9976	0.9119	0.23766	-0.003
Mof_C 	C 	0.93	0.913	0.23019	-0.002
Mof_C 	C 	0.1482	0.9518	0.24661	-0.026
Mof_C 	C 	0.1074	0.8716	0.24286	-0.026
Mof_C 	C 	0.7817	0.8775	0.20793	-0.025
Mof_C 	C 	0.8251	0.9577	0.20757	-0.028
Mof_C 	C 	0.3976	0.1201	0.25895	-0.135
Mof_C 	C 	0.3699	0.0587	0.21364	0.06
Mof_C 	C 	0.2636	0.067	0.29816	-0.127
Mof_C 	C 	0.2357	0.0068	0.25211	0.078
Mof_C 	C 	0.2897	0.0027	0.21005	-0.128
Mof_C 	C 	0.34458	0.12267	0.30192	0.055
Mof_C 	C 	0.48396	0.18523	0.26134	0.386
Mof_C 	C 	0.20364	0.71498	0.23823	-0.146
Mof_C 	C 	0.23362	0.77766	0.28172	0.071
Mof_C 	C 	0.2027	0.8291	0.28363	-0.134
Mof_C 	C 	0.1409	0.8173	0.24168	0.081
Mof_C 	C 	0.1114	0.7543	0.19776	-0.133
Mof_C 	C 	0.1422	0.7031	0.19621	0.059
Mof_C 	C 	0.2352	0.6589	0.2354	0.36
Mof_C 	C 	0.5279	0.7244	0.18755	-0.149
Mof_C 	C 	0.5685	0.792	0.14935	0.073
Mof_C 	C 	0.6505	0.8417	0.15514	-0.137
Mof_C 	C 	0.694	0.825	0.19991	0.081
Mof_C 	C 	0.6531	0.756	0.23746	-0.134
Mof_C 	C 	0.5715	0.7067	0.23168	0.063
Mof_C 	C 	0.4394	0.672	0.18242	0.38
Mof_C 	C 	0.7537	0.1305	0.16876	-0.149
Mof_C 	C 	0.8202	0.1349	0.13954	0.068
Mof_C 	C 	0.8432	0.0789	0.15251	-0.142
Mof_C 	C 	0.7984	0.0167	0.19441	0.087
Mof_C 	C 	0.7325	0.0125	0.225	-0.139
Mof_C 	C 	0.7107	0.0693	0.2116	0.071
Mof_C 	C 	0.7283	0.19	0.15303	0.401
Mof_C 	C 	0.9143	0.0024	0.571	-0.003
Mof_C 	C 	0.983	0.07	0.56353	-0.003
Mof_C 	C 	0.8036	0.8518	0.57995	-0.026
Mof_C 	C 	0.7642	0.8926	0.5762	-0.026
Mof_C 	C 	0.0958	0.2183	0.54127	-0.025
Mof_C 	C 	0.1326	0.1749	0.54091	-0.028
Mof_C 	C 	0.7225	0.6024	0.59229	-0.135
Mof_C 	C 	0.6888	0.6301	0.54698	0.06
Mof_C 	C 	0.8034	0.7364	0.6315	-0.127
Mof_C 	C 	0.7711	0.7643	0.58545	0.078
Mof_C 	C 	0.713	0.7103	0.54339	-0.129
Mof_C 	C 	0.77809	0.65542	0.63526	0.055
Mof_C 	C 	0.70127	0.51604	0.59468	0.386
Mof_C 	C 	0.51134	0.79636	0.57157	-0.145
Mof_C 	C 	0.54404	0.76638	0.61506	0.071
Mof_C 	C 	0.6264	0.7973	0.61697	-0.133
Mof_C 	C 	0.6764	0.8591	0.57502	0.08
Mof_C 	C 	0.6429	0.8886	0.5311	-0.132
Mof_C 	C 	0.5609	0.8578	0.52955	0.059
Mof_C 	C 	0.4237	0.7648	0.56874	0.36
Mof_C 	C 	0.1965	0.4721	0.52089	-0.148
Mof_C 	C 	0.2235	0.4315	0.48269	0.073
Mof_C 	C 	0.1912	0.3495	0.48848	-0.137
Mof_C 	C 	0.131	0.306	0.53325	0.081
Mof_C 	C 	0.1029	0.3469	0.5708	-0.133
Mof_C 	C 	0.1352	0.4285	0.56502	0.063
Mof_C 	C 	0.2326	0.5606	0.51576	0.379
Mof_C 	C 	0.3768	0.2463	0.5021	-0.147
Mof_C 	C 	0.3147	0.1798	0.47288	0.069
Mof_C 	C 	0.2357	0.1568	0.48585	-0.141
Mof_C 	C 	0.2183	0.2016	0.52775	0.087
Mof_C 	C 	0.28	0.2675	0.55834	-0.139
Mof_C 	C 	0.3586	0.2893	0.54494	0.071
Mof_C 	C 	0.4617	0.2717	0.48637	0.401
Mof_C 	C 	0.9119	0.9143	0.40433	-0.003
Mof_C 	C 	0.913	0.983	0.39686	-0.003
Mof_C 	C 	0.9518	0.8036	0.41328	-0.025
Mof_C 	C 	0.8716	0.7642	0.40953	-0.026
Mof_C 	C 	0.8775	0.0958	0.3746	-0.025
Mof_C 	C 	0.9577	0.1326	0.37424	-0.028
Mof_C 	C 	0.1201	0.7225	0.42562	-0.135
Mof_C 	C 	0.0587	0.6888	0.38031	0.06
Mof_C 	C 	0.067	0.8034	0.46483	-0.127
Mof_C 	C 	0.0068	0.7711	0.41878	0.078
Mof_C 	C 	0.0027	0.713	0.37672	-0.128
Mof_C 	C 	0.12267	0.77809	0.46859	0.054
Mof_C 	C 	0.18523	0.70127	0.42801	0.386
Mof_C 	C 	0.71498	0.51134	0.4049	-0.145
Mof_C 	C 	0.77766	0.54404	0.44839	0.071
Mof_C 	C 	0.8291	0.6264	0.4503	-0.133
Mof_C 	C 	0.8173	0.6764	0.40835	0.08
Mof_C 	C 	0.7543	0.6429	0.36443	-0.132
Mof_C 	C 	0.7031	0.5609	0.36288	0.059
Mof_C 	C 	0.6589	0.4237	0.40207	0.36
Mof_C 	C 	0.7244	0.1965	0.35422	-0.148
Mof_C 	C 	0.792	0.2235	0.31602	0.073
Mof_C 	C 	0.8417	0.1912	0.32181	-0.137
Mof_C 	C 	0.825	0.131	0.36658	0.081
Mof_C 	C 	0.756	0.1029	0.40413	-0.133
Mof_C 	C 	0.7067	0.1352	0.39835	0.063
Mof_C 	C 	0.672	0.2326	0.34909	0.379
Mof_C 	C 	0.1305	0.3768	0.33543	-0.147
Mof_C 	C 	0.1349	0.3147	0.30621	0.068
Mof_C 	C 	0.0789	0.2357	0.31918	-0.141
Mof_C 	C 	0.0167	0.2183	0.36108	0.087
Mof_C 	C 	0.0125	0.28	0.39167	-0.139
Mof_C 	C 	0.0693	0.3586	0.37827	0.071
Mof_C 	C 	0.19	0.4617	0.3197	0.401
Mof_C 	C 	0.0024	0.0881	0.73766	-0.003
Mof_C 	C 	0.07	0.087	0.73019	-0.002
Mof_C 	C 	0.8518	0.0482	0.74661	-0.025
Mof_C 	C 	0.8926	0.1284	0.74286	-0.026
Mof_C 	C 	0.2183	0.1225	0.70793	-0.025
Mof_C 	C 	0.1749	0.0423	0.70757	-0.027
Mof_C 	C 	0.6024	0.8799	0.75895	-0.134
Mof_C 	C 	0.6301	0.9413	0.71364	0.06
Mof_C 	C 	0.7364	0.933	0.79816	-0.127
Mof_C 	C 	0.7643	0.9932	0.75211	0.078
Mof_C 	C 	0.7103	0.9973	0.71005	-0.129
Mof_C 	C 	0.65542	0.87733	0.80192	0.055
Mof_C 	C 	0.51604	0.81477	0.76134	0.386
Mof_C 	C 	0.79636	0.28502	0.73823	-0.144
Mof_C 	C 	0.76638	0.22234	0.78172	0.071
Mof_C 	C 	0.7973	0.1709	0.78363	-0.133
Mof_C 	C 	0.8591	0.1827	0.74168	0.08
Mof_C 	C 	0.8886	0.2457	0.69776	-0.132
Mof_C 	C 	0.8578	0.2969	0.69621	0.059
Mof_C 	C 	0.7648	0.3411	0.7354	0.359
Mof_C 	C 	0.4721	0.2756	0.68755	-0.148
Mof_C 	C 	0.4315	0.208	0.64935	0.073
Mof_C 	C 	0.3495	0.1583	0.65514	-0.137
Mof_C 	C 	0.306	0.175	0.69991	0.082
Mof_C 	C 	0.3469	0.244	0.73746	-0.133
Mof_C 	C 	0.4285	0.2933	0.73168	0.063
Mof_C 	C 	0.5606	0.328	0.68242	0.379
Mof_C 	C 	0.2463	0.8695	0.66876	-0.148
Mof_C 	C 	0.1798	0.8651	0.63954	0.069
Mof_C 	C 	0.1568	0.9211	0.65251	-0.141
Mof_C 	C 	0.2016	0.9833	0.69441	0.087
Mof_C 	C 	0.2675	0.9875	0.725	-0.14
Mof_C 	C 	0.2893	0.9307	0.7116	0.071
Mof_C 	C 	0.2717	0.81	0.65303	0.401
Mof_C 	C 	0.0857	0.9976	0.071	-0.004
Mof_C 	C 	0.017	0.93	0.06353	-0.003
Mof_C 	C 	0.1964	0.1482	0.07995	-0.029
Mof_C 	C 	0.2358	0.1074	0.0762	-0.021
Mof_C 	C 	0.9042	0.7817	0.04127	-0.023
Mof_C 	C 	0.8674	0.8251	0.04091	-0.03
Mof_C 	C 	0.2775	0.3976	0.09229	-0.138
Mof_C 	C 	0.3112	0.3699	0.04698	0.06
Mof_C 	C 	0.1966	0.2636	0.1315	-0.129
Mof_C 	C 	0.2289	0.2357	0.08545	0.078
Mof_C 	C 	0.287	0.2897	0.04339	-0.131
Mof_C 	C 	0.22191	0.34458	0.13526	0.055
Mof_C 	C 	0.29873	0.48396	0.09468	0.385
Mof_C 	C 	0.48866	0.20364	0.07157	-0.127
Mof_C 	C 	0.45596	0.23362	0.11506	0.056
Mof_C 	C 	0.3736	0.2027	0.11697	-0.12
Mof_C 	C 	0.3236	0.1409	0.07502	0.066
Mof_C 	C 	0.3571	0.1114	0.0311	-0.107
Mof_C 	C 	0.4391	0.1422	0.02955	0.015
Mof_C 	C 	0.5763	0.2352	0.06874	0.352
Mof_C 	C 	0.8035	0.5279	0.02089	-0.16
Mof_C 	C 	0.7765	0.5685	0.98269	0.085
Mof_C 	C 	0.8088	0.6505	0.98848	-0.118
Mof_C 	C 	0.869	0.694	0.03325	0.063
Mof_C 	C 	0.8971	0.6531	0.0708	-0.129
Mof_C 	C 	0.8648	0.5715	0.06502	0.06
Mof_C 	C 	0.7674	0.4394	0.01576	0.363
Mof_C 	C 	0.6232	0.7537	0.0021	-0.196
Mof_C 	C 	0.6853	0.8202	0.97288	0.104
Mof_C 	C 	0.7643	0.8432	0.98585	-0.138
Mof_C 	C 	0.7817	0.7984	0.02775	0.08
Mof_C 	C 	0.72	0.7325	0.05834	-0.151
Mof_C 	C 	0.6414	0.7107	0.04494	0.093
Mof_C 	C 	0.5383	0.7283	0.98637	0.445
Mof_S 	S 	0.00042	0.09099	0.91411	0.001
Mof_S 	S 	0.17664	0.17868	0.90634	-0
Mof_S 	S 	0.17354	0.00849	0.89073	-0.002
Mof_S 	S 	0.9975	0.92454	0.8931	0.003
Mof_S 	S 	0.09057	0.99958	0.24744	-0.003
Mof_S 	S 	0.00204	0.82336	0.23967	-0.006
Mof_S 	S 	0.83495	0.82646	0.22406	-0.008
Mof_S 	S 	0.92704	0.0025	0.22643	-0.003
Mof_S 	S 	0.90901	0.90943	0.58078	-0.004
Mof_S 	S 	0.82132	0.99796	0.57301	-0.007
Mof_S 	S 	0.99151	0.16505	0.5574	-0.008
Mof_S 	S 	0.07546	0.07296	0.55977	-0.002
Mof_S 	S 	0.99958	0.90901	0.41411	-0.004
Mof_S 	S 	0.82336	0.82132	0.40634	-0.006
Mof_S 	S 	0.82646	0.99151	0.39073	-0.008
Mof_S 	S 	0.0025	0.07546	0.3931	-0.002
Mof_S 	S 	0.90943	0.00042	0.74744	-0.004
Mof_S 	S 	0.99796	0.17664	0.73967	-0.007
Mof_S 	S 	0.16505	0.17354	0.72406	-0.008
Mof_S 	S 	0.07296	0.9975	0.72643	-0.004
Mof_S 	S 	0.09099	0.09057	0.08078	-0.008
Mof_S 	S 	0.17868	0.00204	0.07301	-0.012
Mof_S 	S 	0.00849	0.83495	0.0574	-0.014
Mof_S 	S 	0.92454	0.92704	0.05977	-0.009
Mof_O 	O 	0.81767	0.35149	0.89125	-0.443
Mof_O 	O 	0.75846	0.25851	0.96673	-0.473
Mof_O 	O 	0.39328	0.60548	0.85854	-0.437
Mof_O 	O 	0.33547	0.62294	0.94249	-0.524
Mof_O 	O 	0.38503	0.78968	0.88983	-0.465
Mof_O 	O 	0.31534	0.7161	0.80649	-0.496
Mof_O 	O 	0.80755	0.485	0.85467	-0.461
Mof_O 	O 	0.76654	0.52756	0.77018	-0.481
Mof_O 	O 	0.53382	0.18233	0.22458	-0.444
Mof_O 	O 	0.50005	0.24154	0.30006	-0.479
Mof_O 	O 	0.2122	0.60672	0.19187	-0.44
Mof_O 	O 	0.28747	0.66453	0.27582	-0.529
Mof_O 	O 	0.40465	0.61497	0.22316	-0.467
Mof_O 	O 	0.40076	0.68466	0.13982	-0.498
Mof_O 	O 	0.67745	0.19245	0.188	-0.463
Mof_O 	O 	0.76102	0.23346	0.10351	-0.484
Mof_O 	O 	0.64851	0.46618	0.55792	-0.443
Mof_O 	O 	0.74149	0.49995	0.6334	-0.479
Mof_O 	O 	0.39452	0.7878	0.52521	-0.438
Mof_O 	O 	0.37706	0.71253	0.60916	-0.529
Mof_O 	O 	0.21032	0.59535	0.5565	-0.467
Mof_O 	O 	0.2839	0.59924	0.47316	-0.497
Mof_O 	O 	0.515	0.32255	0.52134	-0.462
Mof_O 	O 	0.47244	0.23898	0.43685	-0.482
Mof_O 	O 	0.18233	0.64851	0.39125	-0.443
Mof_O 	O 	0.24154	0.74149	0.46673	-0.479
Mof_O 	O 	0.60672	0.39452	0.35854	-0.438
Mof_O 	O 	0.66453	0.37706	0.44249	-0.529
Mof_O 	O 	0.61497	0.21032	0.38983	-0.467
Mof_O 	O 	0.68466	0.2839	0.30649	-0.497
Mof_O 	O 	0.19245	0.515	0.35467	-0.462
Mof_O 	O 	0.23346	0.47244	0.27018	-0.482
Mof_O 	O 	0.46618	0.81767	0.72458	-0.443
Mof_O 	O 	0.49995	0.75846	0.80006	-0.478
Mof_O 	O 	0.7878	0.39328	0.69187	-0.438
Mof_O 	O 	0.71253	0.33547	0.77582	-0.529
Mof_O 	O 	0.59535	0.38503	0.72316	-0.467
Mof_O 	O 	0.59924	0.31534	0.63982	-0.497
Mof_O 	O 	0.32255	0.80755	0.688	-0.462
Mof_O 	O 	0.23898	0.76654	0.60351	-0.482
Mof_O 	O 	0.35149	0.53382	0.05792	-0.447
Mof_O 	O 	0.25851	0.50005	0.1334	-0.481
Mof_O 	O 	0.60548	0.2122	0.02521	-0.444
Mof_O 	O 	0.62294	0.28747	0.10916	-0.529
Mof_O 	O 	0.78968	0.40465	0.0565	-0.467
Mof_O 	O 	0.7161	0.40076	0.97316	-0.481
Mof_O 	O 	0.485	0.67745	0.02134	-0.484
Mof_O 	O 	0.52756	0.76102	0.93685	-0.489
_end
