data_functionalizedCrystal
_audit_creation_method	'EQeq! by Chris Wilmer'
_symmetry_space_group_name_H-M	'P1'
_symmetry_Int_Tables_number	1
_symmetry_cell_setting	triclinic
loop_
_symmetry_equiv_pos_as_xyz
  x,y,z
_cell_length_a	34.5793
_cell_length_b	14.9292
_cell_length_c	30.6203
_cell_angle_alpha	90
_cell_angle_beta	101.179
_cell_angle_gamma	90
loop_
_atom_site_label
_atom_site_type_symbol
_atom_site_fract_x
_atom_site_fract_y
_atom_site_fract_z
_atom_site_charge
Mof_Zn	Zn	0.62891	0.39949	0.80643	1.166
Mof_Zn	Zn	0.42061	0.12881	0.65791	1.166
Mof_Zn	Zn	0.12882	0.10479	0.30784	1.169
Mof_I 	I 	0.61281	0.25847	0.84368	-0.401
Mof_I 	I 	0.65234	0.41064	0.73422	-0.383
Mof_I 	I 	0.38329	0.24107	0.69567	-0.365
Mof_I 	I 	0.47731	0.15613	0.61849	-0.348
Mof_I 	I 	0.15276	0.09392	0.23605	-0.38
Mof_I 	I 	0.11261	0.24681	0.34417	-0.376
Mof_Zn	Zn	0.42233	0.8759	0.15758	-0.22
Mof_Zn	Zn	0.32642	0.63884	0.97708	0.84
Mof_Zn	Zn	0.32761	0.3629	0.4797	0.684
Mof_I 	I 	0.38309	0.76383	0.19407	-0.034
Mof_I 	I 	0.47938	0.84865	0.1199	-2.83
Mof_I 	I 	0.37207	0.66254	0.05211	0.346
Mof_I 	I 	0.26226	0.72342	0.94946	-1.272
Mof_I 	I 	0.37283	0.34375	0.55565	-0.741
Mof_I 	I 	0.265	0.27454	0.45391	0.271
Mof_N 	N 	0.3831	0.9427	0.109	-0.298
Mof_C 	C 	0.354	0.8997	0.0805	0.078
Mof_H 	H 	0.3506	0.8371	0.0838	0.013
Mof_C 	C 	0.3294	0.9448	0.0468	-0.127
Mof_H 	H 	0.3075	0.9161	0.0285	0.11
Mof_C 	C 	0.3386	0.0388	0.0405	0.094
Mof_C 	C 	0.3651	0.0784	0.0696	-0.175
Mof_H 	H 	0.3682	0.1416	0.0693	0.114
Mof_C 	C 	0.3879	0.0287	0.0998	0.136
Mof_H 	H 	0.4102	0.0576	0.117	-0.009
Mof_N 	N 	0.3145	0.5059	0.9727	-0.313
Mof_C 	C 	0.2834	0.4679	0.943	0.047
Mof_H 	H 	0.2652	0.5058	0.9242	-0.041
Mof_C 	C 	0.2781	0.375	0.9401	-0.106
Mof_H 	H 	0.2572	0.3511	0.9186	0.083
Mof_C 	C 	0.3023	0.3187	0.9672	0.065
Mof_C 	C 	0.3325	0.3612	0.9998	-0.13
Mof_H 	H 	0.3501	0.3247	0.02	0.091
Mof_C 	C 	0.3367	0.4506	0.0025	0.092
Mof_H 	H 	0.3557	0.4757	0.0259	-0.028
Mof_N 	N 	0.1706	0.963	0.8533	-0.286
Mof_C 	C 	0.1932	0.9201	0.8863	0.106
Mof_H 	H 	0.1888	0.8578	0.8893	-0.034
Mof_C 	C 	0.2218	0.9587	0.9157	-0.161
Mof_H 	H 	0.2372	0.9247	0.939	0.117
Mof_C 	C 	0.229	0.0528	0.9116	0.075
Mof_C 	C 	0.2049	0.0969	0.8792	-0.129
Mof_H 	H 	0.2072	0.16	0.8767	0.102
Mof_C 	C 	0.1763	0.051	0.8491	0.072
Mof_H 	H 	0.1606	0.0828	0.8252	-0.008
Mof_C 	C 	0.3121	0.0898	0.0015	0.099
Mof_N 	N 	0.3195	0.1755	-0	-0.132
Mof_C 	C 	0.2973	0.2222	0.9688	0.117
Mof_N 	N 	0.2668	0.1827	0.9388	-0.132
Mof_C 	C 	0.2634	0.1015	0.9423	0.116
Mof_N 	N 	0.2819	0.045	0.9738	-0.136
Mof_N 	N 	0.3581	0.6515	0.929	-0.308
Mof_C 	C 	0.3506	0.7221	0.8962	0.042
Mof_H 	H 	0.3273	0.7571	0.8941	-0.007
Mof_C 	C 	0.3756	0.7401	0.8682	-0.095
Mof_H 	H 	0.3709	0.7902	0.8488	0.09
Mof_C 	C 	0.4075	0.687	0.8678	0.089
Mof_C 	C 	0.4135	0.6142	0.8973	-0.132
Mof_H 	H 	0.4342	0.5727	0.8966	0.098
Mof_C 	C 	0.3894	0.6043	0.9269	0.12
Mof_H 	H 	0.3959	0.558	0.9484	-0.03
Mof_N 	N 	0.58	0.4826	0.8023	-0.285
Mof_C 	C 	0.5655	0.4973	0.8372	0.098
Mof_H 	H 	0.5783	0.4706	0.8643	-0.033
Mof_C 	C 	0.5332	0.5482	0.8381	-0.155
Mof_H 	H 	0.5214	0.5478	0.8637	0.091
Mof_C 	C 	0.5176	0.6003	0.8022	0.038
Mof_C 	C 	0.5363	0.5908	0.7666	-0.143
Mof_H 	H 	0.5273	0.6246	0.7403	0.073
Mof_C 	C 	0.568	0.5327	0.7683	0.085
Mof_H 	H 	0.5811	0.5302	0.7438	-0.014
Mof_N 	N 	0.4352	0.025	0.7033	-0.272
Mof_C 	C 	0.4109	0.9995	0.7294	0.102
Mof_H 	H 	0.3881	0.0354	0.729	-0.018
Mof_C 	C 	0.415	0.9322	0.7547	-0.139
Mof_H 	H 	0.3977	0.9226	0.7748	0.098
Mof_C 	C 	0.4465	0.8698	0.7526	0.049
Mof_C 	C 	0.4728	0.8881	0.7253	-0.121
Mof_H 	H 	0.4937	0.8485	0.7225	0.05
Mof_C 	C 	0.4668	0.9681	0.7022	0.051
Mof_H 	H 	0.4853	0.9852	0.6846	-0.003
Mof_C 	C 	0.4319	0.7013	0.8356	0.112
Mof_N 	N 	0.4623	0.6416	0.8329	-0.128
Mof_C 	C 	0.4838	0.662	0.803	0.073
Mof_N 	N 	0.4802	0.7249	0.7747	-0.184
Mof_C 	C 	0.4506	0.7832	0.7819	0.075
Mof_N 	N 	0.4272	0.7743	0.809	-0.122
Mof_N 	N 	0.3808	0.0576	0.6104	-0.262
Mof_C 	C 	0.3872	0.9705	0.6073	0.044
Mof_H 	H 	0.4047	0.939	0.6299	0.011
Mof_C 	C 	0.3656	0.9249	0.5669	-0.084
Mof_H 	H 	0.3732	0.8663	0.5599	0.082
Mof_C 	C 	0.334	0.9672	0.5388	0.041
Mof_C 	C 	0.3305	0.0532	0.5455	-0.112
Mof_H 	H 	0.3124	0.0872	0.5246	0.055
Mof_C 	C 	0.3531	0.0968	0.5832	0.07
Mof_H 	H 	0.3474	0.1576	0.5885	-0.019
Mof_N 	N 	0.3145	0.5025	0.4732	-0.318
Mof_C 	C 	0.3404	0.5563	0.497	0.083
Mof_H 	H 	0.3634	0.5316	0.5151	-0.016
Mof_C 	C 	0.3349	0.6497	0.4964	-0.14
Mof_H 	H 	0.3534	0.6877	0.5146	0.093
Mof_C 	C 	0.3032	0.6842	0.4696	0.08
Mof_C 	C 	0.2781	0.626	0.442	-0.16
Mof_H 	H 	0.2563	0.647	0.4207	0.089
Mof_C 	C 	0.2871	0.5328	0.4475	0.128
Mof_H 	H 	0.2701	0.4918	0.4294	-0.052
Mof_N 	N 	0.1702	0.036	0.3539	-0.263
Mof_C 	C 	0.1784	0.9517	0.3493	0.086
Mof_H 	H 	0.1627	0.92	0.3254	-0
Mof_C 	C 	0.2078	0.9052	0.3763	-0.124
Mof_H 	H 	0.2127	0.8441	0.3706	0.085
Mof_C 	C 	0.2305	0.9501	0.4123	0.041
Mof_C 	C 	0.2226	0.0386	0.4189	-0.106
Mof_H 	H 	0.2376	0.0705	0.4433	0.078
Mof_C 	C 	0.1929	0.0804	0.3901	0.044
Mof_H 	H 	0.1876	0.1417	0.3949	0.02
Mof_C 	C 	0.3112	0.9148	0.5046	0.11
Mof_N 	N 	0.3221	0.8292	0.5005	-0.13
Mof_C 	C 	0.2959	0.7835	0.4682	0.086
Mof_N 	N 	0.2674	0.8154	0.4379	-0.139
Mof_C 	C 	0.26	0.9074	0.4447	0.061
Mof_N 	N 	0.283	0.954	0.478	-0.147
Mof_N 	N 	0.0819	0.0201	0.3056	-0.267
Mof_C 	C 	0.0657	0.9721	0.2676	0.053
Mof_H 	H 	0.0768	0.9788	0.2417	0.005
Mof_C 	C 	0.0339	0.9145	0.2662	-0.106
Mof_H 	H 	0.0239	0.8798	0.2405	0.078
Mof_C 	C 	0.0175	0.91	0.3042	0.046
Mof_C 	C 	0.0332	0.956	0.344	-0.113
Mof_H 	H 	0.0242	0.947	0.371	0.088
Mof_C 	C 	0.0637	0.017	0.3397	0.076
Mof_H 	H 	0.0717	0.0585	0.3632	-0.012
Mof_N 	N 	0.8597	0.8404	0.4296	-0.32
Mof_C 	C 	0.8944	0.8861	0.4335	0.068
Mof_H 	H 	0.9015	0.9275	0.4573	-0.017
Mof_C 	C 	0.9197	0.8743	0.4039	-0.117
Mof_H 	H 	0.9441	0.9051	0.4081	0.084
Mof_C 	C 	0.9086	0.8166	0.3682	0.066
Mof_C 	C 	0.8722	0.773	0.3647	-0.131
Mof_H 	H 	0.8633	0.7314	0.3414	0.088
Mof_C 	C 	0.849	0.7933	0.3974	0.113
Mof_H 	H 	0.8233	0.7679	0.3936	-0.047
Mof_N 	N 	0.9375	0.4836	0.202	-0.317
Mof_C 	C 	0.9654	0.5374	0.2004	0.099
Mof_H 	H 	0.9822	0.5264	0.1798	-0.006
Mof_C 	C 	0.9722	0.6116	0.2275	-0.128
Mof_H 	H 	0.9948	0.6476	0.2272	0.08
Mof_C 	C 	0.9462	0.635	0.2558	0.05
Mof_C 	C 	0.9184	0.5785	0.2592	-0.098
Mof_H 	H 	0.9012	0.5902	0.2792	0.073
Mof_C 	C 	0.9134	0.4951	0.2319	0.016
Mof_H 	H 	0.8941	0.4517	0.2352	-0.025
Mof_C 	C 	0.9843	0.8468	0.3052	0.086
Mof_N 	N 	0.962	0.8597	0.3356	-0.139
Mof_C 	C 	0.9352	0.8023	0.3363	0.109
Mof_N 	N 	0.9267	0.7264	0.3111	-0.135
Mof_C 	C 	0.9511	0.7155	0.2814	0.086
Mof_N 	N 	0.979	0.7724	0.2765	-0.143
Mof_Zn	Zn	0.4148	0.88	0.162	1.287
Mof_Zn	Zn	0.3076	0.647	0.9636	0.847
Mof_Zn	Zn	0.3146	0.3578	0.4663	0.689
Mof_I 	I 	0.3682	0.7775	0.193	-0.416
Mof_I 	I 	0.469	0.836	0.1422	2.575
Mof_I 	I 	0.244	0.7099	0.9182	0.758
Mof_I 	I 	0.3406	0.6924	0.0328	-0.895
Mof_I 	I 	0.3569	0.3279	0.5429	0.299
Mof_I 	I 	0.2524	0.2859	0.4345	-0.716
Mof_Zn	Zn	0.12891	0.89949	0.80643	1.165
Mof_Zn	Zn	0.92061	0.62881	0.65791	1.165
Mof_Zn	Zn	0.62882	0.60479	0.30784	1.168
Mof_I 	I 	0.11281	0.75847	0.84368	-0.403
Mof_I 	I 	0.15234	0.91064	0.73422	-0.384
Mof_I 	I 	0.88329	0.74107	0.69567	-0.367
Mof_I 	I 	0.97731	0.65613	0.61849	-0.35
Mof_I 	I 	0.65276	0.59392	0.23605	-0.382
Mof_I 	I 	0.61261	0.74681	0.34417	-0.378
Mof_Zn	Zn	0.92233	0.3759	0.15758	-0.222
Mof_Zn	Zn	0.82642	0.13884	0.97708	0.839
Mof_Zn	Zn	0.82761	0.8629	0.4797	0.683
Mof_I 	I 	0.88309	0.26383	0.19407	-0.034
Mof_I 	I 	0.97938	0.34865	0.1199	-2.831
Mof_I 	I 	0.87207	0.16254	0.05211	0.346
Mof_I 	I 	0.76226	0.22342	0.94946	-1.272
Mof_I 	I 	0.87283	0.84375	0.55565	-0.741
Mof_I 	I 	0.765	0.77454	0.45391	0.271
Mof_N 	N 	0.8831	0.4427	0.109	-0.297
Mof_C 	C 	0.854	0.3997	0.0805	0.077
Mof_H 	H 	0.8506	0.3371	0.0838	0.013
Mof_C 	C 	0.8294	0.4448	0.0468	-0.124
Mof_H 	H 	0.8075	0.4161	0.0285	0.11
Mof_C 	C 	0.8386	0.5388	0.0405	0.092
Mof_C 	C 	0.8651	0.5784	0.0696	-0.173
Mof_H 	H 	0.8682	0.6416	0.0693	0.113
Mof_C 	C 	0.8879	0.5287	0.0998	0.134
Mof_H 	H 	0.9102	0.5576	0.117	-0.008
Mof_N 	N 	0.8145	0.0059	0.9727	-0.312
Mof_C 	C 	0.7834	0.9679	0.943	0.043
Mof_H 	H 	0.7652	0.0058	0.9242	-0.039
Mof_C 	C 	0.7781	0.875	0.9401	-0.103
Mof_H 	H 	0.7572	0.8511	0.9186	0.082
Mof_C 	C 	0.8023	0.8187	0.9672	0.064
Mof_C 	C 	0.8325	0.8612	0.9998	-0.129
Mof_H 	H 	0.8501	0.8247	0.02	0.09
Mof_C 	C 	0.8367	0.9506	0.0025	0.09
Mof_H 	H 	0.8557	0.9757	0.0259	-0.028
Mof_N 	N 	0.6706	0.463	0.8533	-0.285
Mof_C 	C 	0.6932	0.4201	0.8863	0.104
Mof_H 	H 	0.6888	0.3578	0.8893	-0.033
Mof_C 	C 	0.7218	0.4587	0.9157	-0.158
Mof_H 	H 	0.7372	0.4247	0.939	0.117
Mof_C 	C 	0.729	0.5528	0.9116	0.072
Mof_C 	C 	0.7049	0.5969	0.8792	-0.128
Mof_H 	H 	0.7072	0.66	0.8767	0.101
Mof_C 	C 	0.6763	0.551	0.8491	0.07
Mof_H 	H 	0.6606	0.5828	0.8252	-0.007
Mof_C 	C 	0.8121	0.5898	0.0015	0.1
Mof_N 	N 	0.8195	0.6755	-0	-0.132
Mof_C 	C 	0.7973	0.7222	0.9688	0.118
Mof_N 	N 	0.7668	0.6827	0.9388	-0.132
Mof_C 	C 	0.7634	0.6015	0.9423	0.116
Mof_N 	N 	0.7819	0.545	0.9738	-0.136
Mof_N 	N 	0.8581	0.1515	0.929	-0.308
Mof_C 	C 	0.8506	0.2221	0.8962	0.042
Mof_H 	H 	0.8273	0.2571	0.8941	-0.007
Mof_C 	C 	0.8756	0.2401	0.8682	-0.095
Mof_H 	H 	0.8709	0.2902	0.8488	0.09
Mof_C 	C 	0.9075	0.187	0.8678	0.089
Mof_C 	C 	0.9135	0.1142	0.8973	-0.132
Mof_H 	H 	0.9342	0.0727	0.8966	0.098
Mof_C 	C 	0.8894	0.1043	0.9269	0.12
Mof_H 	H 	0.8959	0.058	0.9484	-0.03
Mof_N 	N 	0.08	0.9826	0.8023	-0.285
Mof_C 	C 	0.0655	0.9973	0.8372	0.096
Mof_H 	H 	0.0783	0.9706	0.8643	-0.033
Mof_C 	C 	0.0332	0.0482	0.8381	-0.153
Mof_H 	H 	0.0214	0.0478	0.8637	0.09
Mof_C 	C 	0.0176	0.1003	0.8022	0.037
Mof_C 	C 	0.0363	0.0908	0.7666	-0.143
Mof_H 	H 	0.0273	0.1246	0.7403	0.073
Mof_C 	C 	0.068	0.0327	0.7683	0.086
Mof_H 	H 	0.0811	0.0302	0.7438	-0.014
Mof_N 	N 	0.9352	0.525	0.7033	-0.274
Mof_C 	C 	0.9109	0.4995	0.7294	0.108
Mof_H 	H 	0.8881	0.5354	0.729	-0.021
Mof_C 	C 	0.915	0.4322	0.7547	-0.142
Mof_H 	H 	0.8977	0.4226	0.7748	0.1
Mof_C 	C 	0.9465	0.3698	0.7526	0.051
Mof_C 	C 	0.9728	0.3881	0.7253	-0.123
Mof_H 	H 	0.9937	0.3485	0.7225	0.05
Mof_C 	C 	0.9668	0.4681	0.7022	0.053
Mof_H 	H 	0.9853	0.4852	0.6846	-0.004
Mof_C 	C 	0.9319	0.2013	0.8356	0.112
Mof_N 	N 	0.9623	0.1416	0.8329	-0.128
Mof_C 	C 	0.9838	0.162	0.803	0.073
Mof_N 	N 	0.9802	0.2249	0.7747	-0.184
Mof_C 	C 	0.9506	0.2832	0.7819	0.074
Mof_N 	N 	0.9272	0.2743	0.809	-0.121
Mof_N 	N 	0.8808	0.5576	0.6104	-0.264
Mof_C 	C 	0.8872	0.4705	0.6073	0.047
Mof_H 	H 	0.9047	0.439	0.6299	0.011
Mof_C 	C 	0.8656	0.4249	0.5669	-0.085
Mof_H 	H 	0.8732	0.3663	0.5599	0.083
Mof_C 	C 	0.834	0.4672	0.5388	0.044
Mof_C 	C 	0.8305	0.5532	0.5455	-0.116
Mof_H 	H 	0.8124	0.5872	0.5246	0.056
Mof_C 	C 	0.8531	0.5968	0.5832	0.072
Mof_H 	H 	0.8474	0.6576	0.5885	-0.02
Mof_N 	N 	0.8145	0.0025	0.4732	-0.318
Mof_C 	C 	0.8404	0.0563	0.497	0.084
Mof_H 	H 	0.8634	0.0316	0.5151	-0.016
Mof_C 	C 	0.8349	0.1497	0.4964	-0.141
Mof_H 	H 	0.8534	0.1877	0.5146	0.093
Mof_C 	C 	0.8032	0.1842	0.4696	0.081
Mof_C 	C 	0.7781	0.126	0.442	-0.161
Mof_H 	H 	0.7563	0.147	0.4207	0.09
Mof_C 	C 	0.7871	0.0328	0.4475	0.131
Mof_H 	H 	0.7701	0.9918	0.4294	-0.054
Mof_N 	N 	0.6702	0.536	0.3539	-0.265
Mof_C 	C 	0.6784	0.4517	0.3493	0.089
Mof_H 	H 	0.6627	0.42	0.3254	-0.001
Mof_C 	C 	0.7078	0.4052	0.3763	-0.126
Mof_H 	H 	0.7127	0.3441	0.3706	0.086
Mof_C 	C 	0.7305	0.4501	0.4123	0.044
Mof_C 	C 	0.7226	0.5386	0.4189	-0.109
Mof_H 	H 	0.7376	0.5705	0.4433	0.079
Mof_C 	C 	0.6929	0.5804	0.3901	0.045
Mof_H 	H 	0.6876	0.6417	0.3949	0.02
Mof_C 	C 	0.8112	0.4148	0.5046	0.109
Mof_N 	N 	0.8221	0.3292	0.5005	-0.13
Mof_C 	C 	0.7959	0.2835	0.4682	0.085
Mof_N 	N 	0.7674	0.3154	0.4379	-0.139
Mof_C 	C 	0.76	0.4074	0.4447	0.061
Mof_N 	N 	0.783	0.454	0.478	-0.146
Mof_N 	N 	0.5819	0.5201	0.3056	-0.268
Mof_C 	C 	0.5657	0.4721	0.2676	0.055
Mof_H 	H 	0.5768	0.4788	0.2417	0.005
Mof_C 	C 	0.5339	0.4145	0.2662	-0.106
Mof_H 	H 	0.5239	0.3798	0.2405	0.078
Mof_C 	C 	0.5175	0.41	0.3042	0.046
Mof_C 	C 	0.5332	0.456	0.344	-0.111
Mof_H 	H 	0.5242	0.447	0.371	0.087
Mof_C 	C 	0.5637	0.517	0.3397	0.074
Mof_H 	H 	0.5717	0.5585	0.3632	-0.011
Mof_N 	N 	0.3597	0.3404	0.4296	-0.32
Mof_C 	C 	0.3944	0.3861	0.4335	0.068
Mof_H 	H 	0.4015	0.4275	0.4573	-0.016
Mof_C 	C 	0.4197	0.3743	0.4039	-0.117
Mof_H 	H 	0.4441	0.4051	0.4081	0.085
Mof_C 	C 	0.4086	0.3166	0.3682	0.066
Mof_C 	C 	0.3722	0.273	0.3647	-0.131
Mof_H 	H 	0.3633	0.2314	0.3414	0.088
Mof_C 	C 	0.349	0.2933	0.3974	0.113
Mof_H 	H 	0.3233	0.2679	0.3936	-0.047
Mof_N 	N 	0.4375	0.9836	0.202	-0.318
Mof_C 	C 	0.4654	0.0374	0.2004	0.1
Mof_H 	H 	0.4822	0.0264	0.1798	-0.006
Mof_C 	C 	0.4722	0.1116	0.2275	-0.128
Mof_H 	H 	0.4948	0.1476	0.2272	0.08
Mof_C 	C 	0.4462	0.135	0.2558	0.049
Mof_C 	C 	0.4184	0.0785	0.2592	-0.096
Mof_H 	H 	0.4012	0.0902	0.2792	0.073
Mof_C 	C 	0.4134	0.9951	0.2319	0.015
Mof_H 	H 	0.3941	0.9517	0.2352	-0.024
Mof_C 	C 	0.4843	0.3468	0.3052	0.086
Mof_N 	N 	0.462	0.3597	0.3356	-0.139
Mof_C 	C 	0.4352	0.3023	0.3363	0.109
Mof_N 	N 	0.4267	0.2264	0.3111	-0.135
Mof_C 	C 	0.4511	0.2155	0.2814	0.087
Mof_N 	N 	0.479	0.2724	0.2765	-0.143
Mof_Zn	Zn	0.9148	0.38	0.162	1.288
Mof_Zn	Zn	0.8076	0.147	0.9636	0.847
Mof_Zn	Zn	0.8146	0.8578	0.4663	0.689
Mof_I 	I 	0.8682	0.2775	0.193	-0.416
Mof_I 	I 	0.969	0.336	0.1422	2.576
Mof_I 	I 	0.744	0.2099	0.9182	0.758
Mof_I 	I 	0.8406	0.1924	0.0328	-0.895
Mof_I 	I 	0.8569	0.8279	0.5429	0.299
Mof_I 	I 	0.7524	0.7859	0.4345	-0.716
Mof_Zn	Zn	0.37109	0.39949	0.19357	1.165
Mof_Zn	Zn	0.57939	0.12881	0.34209	1.165
Mof_Zn	Zn	0.87118	0.10479	0.69216	1.168
Mof_I 	I 	0.38719	0.25847	0.15632	-0.402
Mof_I 	I 	0.34766	0.41064	0.26578	-0.383
Mof_I 	I 	0.61671	0.24107	0.30433	-0.366
Mof_I 	I 	0.52269	0.15613	0.38151	-0.349
Mof_I 	I 	0.84724	0.09392	0.76395	-0.381
Mof_I 	I 	0.88739	0.24681	0.65583	-0.377
Mof_Zn	Zn	0.57767	0.8759	0.84242	-0.219
Mof_Zn	Zn	0.67358	0.63884	0.02292	0.84
Mof_Zn	Zn	0.67239	0.3629	0.5203	0.683
Mof_I 	I 	0.61691	0.76383	0.80593	-0.035
Mof_I 	I 	0.52062	0.84865	0.8801	-2.824
Mof_I 	I 	0.62793	0.66254	0.94789	0.346
Mof_I 	I 	0.73774	0.72342	0.05054	-1.26
Mof_I 	I 	0.62717	0.34375	0.44435	-0.741
Mof_I 	I 	0.735	0.27454	0.54609	0.271
Mof_N 	N 	0.6169	0.9427	0.891	-0.298
Mof_C 	C 	0.646	0.8997	0.9195	0.077
Mof_H 	H 	0.6494	0.8371	0.9162	0.013
Mof_C 	C 	0.6706	0.9448	0.9532	-0.128
Mof_H 	H 	0.6925	0.9161	0.9715	0.109
Mof_C 	C 	0.6614	0.0388	0.9595	0.095
Mof_C 	C 	0.6349	0.0784	0.9304	-0.177
Mof_H 	H 	0.6318	0.1416	0.9307	0.114
Mof_C 	C 	0.6121	0.0287	0.9002	0.136
Mof_H 	H 	0.5898	0.0576	0.883	-0.009
Mof_N 	N 	0.6855	0.5059	0.0273	-0.306
Mof_C 	C 	0.7166	0.4679	0.057	0.042
Mof_H 	H 	0.7348	0.5058	0.0758	-0.039
Mof_C 	C 	0.7219	0.375	0.0599	-0.096
Mof_H 	H 	0.7428	0.3511	0.0814	0.08
Mof_C 	C 	0.6977	0.3187	0.0328	0.053
Mof_C 	C 	0.6675	0.3612	0.0002	-0.099
Mof_H 	H 	0.6499	0.3247	0.98	0.077
Mof_C 	C 	0.6633	0.4506	0.9975	0.066
Mof_H 	H 	0.6443	0.4757	0.9741	-0.021
Mof_N 	N 	0.8294	0.963	0.1467	-0.286
Mof_C 	C 	0.8068	0.9201	0.1137	0.106
Mof_H 	H 	0.8112	0.8578	0.1107	-0.033
Mof_C 	C 	0.7782	0.9587	0.0843	-0.161
Mof_H 	H 	0.7628	0.9247	0.061	0.118
Mof_C 	C 	0.771	0.0528	0.0884	0.075
Mof_C 	C 	0.7951	0.0969	0.1208	-0.13
Mof_H 	H 	0.7928	0.16	0.1233	0.102
Mof_C 	C 	0.8237	0.051	0.1509	0.073
Mof_H 	H 	0.8394	0.0828	0.1748	-0.008
Mof_C 	C 	0.6879	0.0898	0.9985	0.092
Mof_N 	N 	0.6805	0.1755	-0	-0.131
Mof_C 	C 	0.7027	0.2222	0.0312	0.125
Mof_N 	N 	0.7332	0.1827	0.0612	-0.133
Mof_C 	C 	0.7366	0.1015	0.0577	0.117
Mof_N 	N 	0.7181	0.045	0.0262	-0.132
Mof_N 	N 	0.6419	0.6515	0.071	-0.307
Mof_C 	C 	0.6494	0.7221	0.1038	0.042
Mof_H 	H 	0.6727	0.7571	0.1059	-0.007
Mof_C 	C 	0.6244	0.7401	0.1318	-0.095
Mof_H 	H 	0.6291	0.7902	0.1512	0.09
Mof_C 	C 	0.5925	0.687	0.1322	0.089
Mof_C 	C 	0.5865	0.6142	0.1027	-0.132
Mof_H 	H 	0.5658	0.5727	0.1034	0.098
Mof_C 	C 	0.6106	0.6043	0.0731	0.12
Mof_H 	H 	0.6041	0.558	0.0516	-0.029
Mof_N 	N 	0.42	0.4826	0.1977	-0.285
Mof_C 	C 	0.4345	0.4973	0.1628	0.098
Mof_H 	H 	0.4217	0.4706	0.1357	-0.033
Mof_C 	C 	0.4668	0.5482	0.1619	-0.155
Mof_H 	H 	0.4786	0.5478	0.1363	0.091
Mof_C 	C 	0.4824	0.6003	0.1978	0.038
Mof_C 	C 	0.4637	0.5908	0.2334	-0.143
Mof_H 	H 	0.4727	0.6246	0.2597	0.073
Mof_C 	C 	0.432	0.5327	0.2317	0.085
Mof_H 	H 	0.4189	0.5302	0.2562	-0.014
Mof_N 	N 	0.5648	0.025	0.2967	-0.272
Mof_C 	C 	0.5891	0.9995	0.2706	0.102
Mof_H 	H 	0.6119	0.0354	0.271	-0.018
Mof_C 	C 	0.585	0.9322	0.2453	-0.139
Mof_H 	H 	0.6023	0.9226	0.2252	0.098
Mof_C 	C 	0.5535	0.8698	0.2474	0.049
Mof_C 	C 	0.5272	0.8881	0.2747	-0.121
Mof_H 	H 	0.5063	0.8485	0.2775	0.05
Mof_C 	C 	0.5332	0.9681	0.2978	0.051
Mof_H 	H 	0.5147	0.9852	0.3154	-0.003
Mof_C 	C 	0.5681	0.7013	0.1644	0.112
Mof_N 	N 	0.5377	0.6416	0.1671	-0.128
Mof_C 	C 	0.5162	0.662	0.197	0.073
Mof_N 	N 	0.5198	0.7249	0.2253	-0.184
Mof_C 	C 	0.5494	0.7832	0.2181	0.075
Mof_N 	N 	0.5728	0.7743	0.191	-0.121
Mof_N 	N 	0.6192	0.0576	0.3896	-0.262
Mof_C 	C 	0.6128	0.9705	0.3927	0.044
Mof_H 	H 	0.5953	0.939	0.3701	0.011
Mof_C 	C 	0.6344	0.9249	0.4331	-0.084
Mof_H 	H 	0.6268	0.8663	0.4401	0.082
Mof_C 	C 	0.666	0.9672	0.4612	0.041
Mof_C 	C 	0.6695	0.0532	0.4545	-0.112
Mof_H 	H 	0.6876	0.0872	0.4754	0.055
Mof_C 	C 	0.6469	0.0968	0.4168	0.07
Mof_H 	H 	0.6526	0.1576	0.4115	-0.019
Mof_N 	N 	0.6855	0.5025	0.5268	-0.318
Mof_C 	C 	0.6596	0.5563	0.503	0.083
Mof_H 	H 	0.6366	0.5316	0.4849	-0.016
Mof_C 	C 	0.6651	0.6497	0.5036	-0.14
Mof_H 	H 	0.6466	0.6877	0.4854	0.093
Mof_C 	C 	0.6968	0.6842	0.5304	0.08
Mof_C 	C 	0.7219	0.626	0.558	-0.16
Mof_H 	H 	0.7437	0.647	0.5793	0.089
Mof_C 	C 	0.7129	0.5328	0.5525	0.128
Mof_H 	H 	0.7299	0.4918	0.5706	-0.052
Mof_N 	N 	0.8298	0.036	0.6461	-0.263
Mof_C 	C 	0.8216	0.9517	0.6507	0.086
Mof_H 	H 	0.8373	0.92	0.6746	-0
Mof_C 	C 	0.7922	0.9052	0.6237	-0.124
Mof_H 	H 	0.7873	0.8441	0.6294	0.085
Mof_C 	C 	0.7695	0.9501	0.5877	0.041
Mof_C 	C 	0.7774	0.0386	0.5811	-0.106
Mof_H 	H 	0.7624	0.0705	0.5567	0.078
Mof_C 	C 	0.8071	0.0804	0.6099	0.044
Mof_H 	H 	0.8124	0.1417	0.6051	0.02
Mof_C 	C 	0.6888	0.9148	0.4954	0.11
Mof_N 	N 	0.6779	0.8292	0.4995	-0.13
Mof_C 	C 	0.7041	0.7835	0.5318	0.086
Mof_N 	N 	0.7326	0.8154	0.5621	-0.139
Mof_C 	C 	0.74	0.9074	0.5553	0.061
Mof_N 	N 	0.717	0.954	0.522	-0.147
Mof_N 	N 	0.9181	0.0201	0.6944	-0.267
Mof_C 	C 	0.9343	0.9721	0.7324	0.053
Mof_H 	H 	0.9232	0.9788	0.7583	0.005
Mof_C 	C 	0.9661	0.9145	0.7338	-0.106
Mof_H 	H 	0.9761	0.8798	0.7595	0.078
Mof_C 	C 	0.9825	0.91	0.6958	0.046
Mof_C 	C 	0.9668	0.956	0.656	-0.113
Mof_H 	H 	0.9758	0.947	0.629	0.088
Mof_C 	C 	0.9363	0.017	0.6603	0.076
Mof_H 	H 	0.9283	0.0585	0.6368	-0.012
Mof_N 	N 	0.1403	0.8404	0.5704	-0.32
Mof_C 	C 	0.1056	0.8861	0.5665	0.068
Mof_H 	H 	0.0985	0.9275	0.5427	-0.017
Mof_C 	C 	0.0803	0.8743	0.5961	-0.117
Mof_H 	H 	0.0559	0.9051	0.5919	0.084
Mof_C 	C 	0.0914	0.8166	0.6318	0.066
Mof_C 	C 	0.1278	0.773	0.6353	-0.131
Mof_H 	H 	0.1367	0.7314	0.6586	0.088
Mof_C 	C 	0.151	0.7933	0.6026	0.113
Mof_H 	H 	0.1767	0.7679	0.6064	-0.047
Mof_N 	N 	0.0625	0.4836	0.798	-0.317
Mof_C 	C 	0.0346	0.5374	0.7996	0.099
Mof_H 	H 	0.0178	0.5264	0.8202	-0.006
Mof_C 	C 	0.0278	0.6116	0.7725	-0.128
Mof_H 	H 	0.0052	0.6476	0.7728	0.08
Mof_C 	C 	0.0538	0.635	0.7442	0.05
Mof_C 	C 	0.0816	0.5785	0.7408	-0.098
Mof_H 	H 	0.0988	0.5902	0.7208	0.073
Mof_C 	C 	0.0866	0.4951	0.7681	0.016
Mof_H 	H 	0.1059	0.4517	0.7648	-0.025
Mof_C 	C 	0.0157	0.8468	0.6948	0.086
Mof_N 	N 	0.038	0.8597	0.6644	-0.139
Mof_C 	C 	0.0648	0.8023	0.6637	0.109
Mof_N 	N 	0.0733	0.7264	0.6889	-0.135
Mof_C 	C 	0.0489	0.7155	0.7186	0.086
Mof_N 	N 	0.021	0.7724	0.7235	-0.143
Mof_Zn	Zn	0.5852	0.88	0.838	1.285
Mof_Zn	Zn	0.6924	0.647	0.0364	0.847
Mof_Zn	Zn	0.6854	0.3578	0.5337	0.689
Mof_I 	I 	0.6318	0.7775	0.807	-0.415
Mof_I 	I 	0.531	0.836	0.8578	2.567
Mof_I 	I 	0.756	0.7099	0.0818	0.749
Mof_I 	I 	0.6594	0.6924	0.9672	-0.902
Mof_I 	I 	0.6431	0.3279	0.4571	0.299
Mof_I 	I 	0.7476	0.2859	0.5655	-0.716
Mof_Zn	Zn	0.87109	0.89949	0.19357	1.165
Mof_Zn	Zn	0.07939	0.62881	0.34209	1.165
Mof_Zn	Zn	0.37118	0.60479	0.69216	1.168
Mof_I 	I 	0.88719	0.75847	0.15632	-0.402
Mof_I 	I 	0.84766	0.91064	0.26578	-0.384
Mof_I 	I 	0.11671	0.74107	0.30433	-0.366
Mof_I 	I 	0.02269	0.65613	0.38151	-0.35
Mof_I 	I 	0.34724	0.59392	0.76395	-0.382
Mof_I 	I 	0.38739	0.74681	0.65583	-0.378
Mof_Zn	Zn	0.07767	0.3759	0.84242	-0.219
Mof_Zn	Zn	0.17358	0.13884	0.02292	0.84
Mof_Zn	Zn	0.17239	0.8629	0.5203	0.683
Mof_I 	I 	0.11691	0.26383	0.80593	-0.034
Mof_I 	I 	0.02062	0.34865	0.8801	-2.825
Mof_I 	I 	0.12793	0.16254	0.94789	0.347
Mof_I 	I 	0.23774	0.22342	0.05054	-1.26
Mof_I 	I 	0.12717	0.84375	0.44435	-0.741
Mof_I 	I 	0.235	0.77454	0.54609	0.271
Mof_N 	N 	0.1169	0.4427	0.891	-0.297
Mof_C 	C 	0.146	0.3997	0.9195	0.077
Mof_H 	H 	0.1494	0.3371	0.9162	0.013
Mof_C 	C 	0.1706	0.4448	0.9532	-0.125
Mof_H 	H 	0.1925	0.4161	0.9715	0.109
Mof_C 	C 	0.1614	0.5388	0.9595	0.093
Mof_C 	C 	0.1349	0.5784	0.9304	-0.175
Mof_H 	H 	0.1318	0.6416	0.9307	0.113
Mof_C 	C 	0.1121	0.5287	0.9002	0.134
Mof_H 	H 	0.0898	0.5576	0.883	-0.009
Mof_N 	N 	0.1855	0.0059	0.0273	-0.304
Mof_C 	C 	0.2166	0.9679	0.057	0.039
Mof_H 	H 	0.2348	0.0058	0.0758	-0.037
Mof_C 	C 	0.2219	0.875	0.0599	-0.094
Mof_H 	H 	0.2428	0.8511	0.0814	0.079
Mof_C 	C 	0.1977	0.8187	0.0328	0.052
Mof_C 	C 	0.1675	0.8612	0.0002	-0.099
Mof_H 	H 	0.1499	0.8247	0.98	0.077
Mof_C 	C 	0.1633	0.9506	0.9975	0.064
Mof_H 	H 	0.1443	0.9757	0.9741	-0.021
Mof_N 	N 	0.3294	0.463	0.1467	-0.285
Mof_C 	C 	0.3068	0.4201	0.1137	0.105
Mof_H 	H 	0.3112	0.3578	0.1107	-0.033
Mof_C 	C 	0.2782	0.4587	0.0843	-0.158
Mof_H 	H 	0.2628	0.4247	0.061	0.118
Mof_C 	C 	0.271	0.5528	0.0884	0.073
Mof_C 	C 	0.2951	0.5969	0.1208	-0.128
Mof_H 	H 	0.2928	0.66	0.1233	0.101
Mof_C 	C 	0.3237	0.551	0.1509	0.07
Mof_H 	H 	0.3394	0.5828	0.1748	-0.007
Mof_C 	C 	0.1879	0.5898	0.9985	0.093
Mof_N 	N 	0.1805	0.6755	-0	-0.131
Mof_C 	C 	0.2027	0.7222	0.0312	0.125
Mof_N 	N 	0.2332	0.6827	0.0612	-0.133
Mof_C 	C 	0.2366	0.6015	0.0577	0.117
Mof_N 	N 	0.2181	0.545	0.0262	-0.132
Mof_N 	N 	0.1419	0.1515	0.071	-0.307
Mof_C 	C 	0.1494	0.2221	0.1038	0.042
Mof_H 	H 	0.1727	0.2571	0.1059	-0.006
Mof_C 	C 	0.1244	0.2401	0.1318	-0.095
Mof_H 	H 	0.1291	0.2902	0.1512	0.09
Mof_C 	C 	0.0925	0.187	0.1322	0.09
Mof_C 	C 	0.0865	0.1142	0.1027	-0.132
Mof_H 	H 	0.0658	0.0727	0.1034	0.099
Mof_C 	C 	0.1106	0.1043	0.0731	0.12
Mof_H 	H 	0.1041	0.058	0.0516	-0.029
Mof_N 	N 	0.92	0.9826	0.1977	-0.285
Mof_C 	C 	0.9345	0.9973	0.1628	0.096
Mof_H 	H 	0.9217	0.9706	0.1357	-0.032
Mof_C 	C 	0.9668	0.0482	0.1619	-0.153
Mof_H 	H 	0.9786	0.0478	0.1363	0.091
Mof_C 	C 	0.9824	0.1003	0.1978	0.037
Mof_C 	C 	0.9637	0.0908	0.2334	-0.143
Mof_H 	H 	0.9727	0.1246	0.2597	0.073
Mof_C 	C 	0.932	0.0327	0.2317	0.086
Mof_H 	H 	0.9189	0.0302	0.2562	-0.014
Mof_N 	N 	0.0648	0.525	0.2967	-0.274
Mof_C 	C 	0.0891	0.4995	0.2706	0.108
Mof_H 	H 	0.1119	0.5354	0.271	-0.021
Mof_C 	C 	0.085	0.4322	0.2453	-0.142
Mof_H 	H 	0.1023	0.4226	0.2252	0.1
Mof_C 	C 	0.0535	0.3698	0.2474	0.051
Mof_C 	C 	0.0272	0.3881	0.2747	-0.123
Mof_H 	H 	0.0063	0.3485	0.2775	0.05
Mof_C 	C 	0.0332	0.4681	0.2978	0.053
Mof_H 	H 	0.0147	0.4852	0.3154	-0.004
Mof_C 	C 	0.0681	0.2013	0.1644	0.112
Mof_N 	N 	0.0377	0.1416	0.1671	-0.128
Mof_C 	C 	0.0162	0.162	0.197	0.073
Mof_N 	N 	0.0198	0.2249	0.2253	-0.184
Mof_C 	C 	0.0494	0.2832	0.2181	0.074
Mof_N 	N 	0.0728	0.2743	0.191	-0.121
Mof_N 	N 	0.1192	0.5576	0.3896	-0.264
Mof_C 	C 	0.1128	0.4705	0.3927	0.047
Mof_H 	H 	0.0953	0.439	0.3701	0.011
Mof_C 	C 	0.1344	0.4249	0.4331	-0.085
Mof_H 	H 	0.1268	0.3663	0.4401	0.083
Mof_C 	C 	0.166	0.4672	0.4612	0.044
Mof_C 	C 	0.1695	0.5532	0.4545	-0.116
Mof_H 	H 	0.1876	0.5872	0.4754	0.056
Mof_C 	C 	0.1469	0.5968	0.4168	0.072
Mof_H 	H 	0.1526	0.6576	0.4115	-0.02
Mof_N 	N 	0.1855	0.0025	0.5268	-0.318
Mof_C 	C 	0.1596	0.0563	0.503	0.084
Mof_H 	H 	0.1366	0.0316	0.4849	-0.016
Mof_C 	C 	0.1651	0.1497	0.5036	-0.141
Mof_H 	H 	0.1466	0.1877	0.4854	0.093
Mof_C 	C 	0.1968	0.1842	0.5304	0.081
Mof_C 	C 	0.2219	0.126	0.558	-0.161
Mof_H 	H 	0.2437	0.147	0.5793	0.09
Mof_C 	C 	0.2129	0.0328	0.5525	0.131
Mof_H 	H 	0.2299	0.9918	0.5706	-0.054
Mof_N 	N 	0.3298	0.536	0.6461	-0.265
Mof_C 	C 	0.3216	0.4517	0.6507	0.089
Mof_H 	H 	0.3373	0.42	0.6746	-0.001
Mof_C 	C 	0.2922	0.4052	0.6237	-0.126
Mof_H 	H 	0.2873	0.3441	0.6294	0.086
Mof_C 	C 	0.2695	0.4501	0.5877	0.044
Mof_C 	C 	0.2774	0.5386	0.5811	-0.109
Mof_H 	H 	0.2624	0.5705	0.5567	0.079
Mof_C 	C 	0.3071	0.5804	0.6099	0.045
Mof_H 	H 	0.3124	0.6417	0.6051	0.02
Mof_C 	C 	0.1888	0.4148	0.4954	0.109
Mof_N 	N 	0.1779	0.3292	0.4995	-0.13
Mof_C 	C 	0.2041	0.2835	0.5318	0.085
Mof_N 	N 	0.2326	0.3154	0.5621	-0.139
Mof_C 	C 	0.24	0.4074	0.5553	0.061
Mof_N 	N 	0.217	0.454	0.522	-0.146
Mof_N 	N 	0.4181	0.5201	0.6944	-0.268
Mof_C 	C 	0.4343	0.4721	0.7324	0.055
Mof_H 	H 	0.4232	0.4788	0.7583	0.005
Mof_C 	C 	0.4661	0.4145	0.7338	-0.106
Mof_H 	H 	0.4761	0.3798	0.7595	0.078
Mof_C 	C 	0.4825	0.41	0.6958	0.046
Mof_C 	C 	0.4668	0.456	0.656	-0.111
Mof_H 	H 	0.4758	0.447	0.629	0.087
Mof_C 	C 	0.4363	0.517	0.6603	0.074
Mof_H 	H 	0.4283	0.5585	0.6368	-0.011
Mof_N 	N 	0.6403	0.3404	0.5704	-0.32
Mof_C 	C 	0.6056	0.3861	0.5665	0.068
Mof_H 	H 	0.5985	0.4275	0.5427	-0.016
Mof_C 	C 	0.5803	0.3743	0.5961	-0.117
Mof_H 	H 	0.5559	0.4051	0.5919	0.085
Mof_C 	C 	0.5914	0.3166	0.6318	0.066
Mof_C 	C 	0.6278	0.273	0.6353	-0.131
Mof_H 	H 	0.6367	0.2314	0.6586	0.088
Mof_C 	C 	0.651	0.2933	0.6026	0.113
Mof_H 	H 	0.6767	0.2679	0.6064	-0.047
Mof_N 	N 	0.5625	0.9836	0.798	-0.318
Mof_C 	C 	0.5346	0.0374	0.7996	0.1
Mof_H 	H 	0.5178	0.0264	0.8202	-0.006
Mof_C 	C 	0.5278	0.1116	0.7725	-0.128
Mof_H 	H 	0.5052	0.1476	0.7728	0.08
Mof_C 	C 	0.5538	0.135	0.7442	0.049
Mof_C 	C 	0.5816	0.0785	0.7408	-0.096
Mof_H 	H 	0.5988	0.0902	0.7208	0.073
Mof_C 	C 	0.5866	0.9951	0.7681	0.015
Mof_H 	H 	0.6059	0.9517	0.7648	-0.024
Mof_C 	C 	0.5157	0.3468	0.6948	0.086
Mof_N 	N 	0.538	0.3597	0.6644	-0.139
Mof_C 	C 	0.5648	0.3023	0.6637	0.109
Mof_N 	N 	0.5733	0.2264	0.6889	-0.135
Mof_C 	C 	0.5489	0.2155	0.7186	0.087
Mof_N 	N 	0.521	0.2724	0.7235	-0.143
Mof_Zn	Zn	0.0852	0.38	0.838	1.285
Mof_Zn	Zn	0.1924	0.147	0.0364	0.847
Mof_Zn	Zn	0.1854	0.8578	0.5337	0.689
Mof_I 	I 	0.1318	0.2775	0.807	-0.415
Mof_I 	I 	0.031	0.336	0.8578	2.568
Mof_I 	I 	0.256	0.2099	0.0818	0.749
Mof_I 	I 	0.1594	0.1924	0.9672	-0.902
Mof_I 	I 	0.1431	0.8279	0.4571	0.299
Mof_I 	I 	0.2476	0.7859	0.5655	-0.716
_end
