data_functionalizedCrystal
_audit_creation_method	'EQeq! by Chris Wilmer'
_symmetry_space_group_name_H-M	'P1'
_symmetry_Int_Tables_number	1
_symmetry_cell_setting	triclinic
loop_
_symmetry_equiv_pos_as_xyz
  x,y,z
_cell_length_a	8.1156
_cell_length_b	20.3861
_cell_length_c	8.6579
_cell_angle_alpha	90
_cell_angle_beta	91.199
_cell_angle_gamma	90
loop_
_atom_site_label
_atom_site_type_symbol
_atom_site_fract_x
_atom_site_fract_y
_atom_site_fract_z
_atom_site_charge
Mof_C 	C 	0.8822	0.8702	0.6888	0.105
Mof_H 	H 	0.9935	0.8631	0.721	0.037
Mof_C 	C 	0.619	0.856	0.6421	0.104
Mof_H 	H 	0.5125	0.8367	0.6355	0.031
Mof_C 	C 	0.8322	0.6353	0.8456	0.108
Mof_H 	H 	0.9402	0.651	0.8272	0.044
Mof_C 	C 	0.5628	0.6298	0.8583	0.114
Mof_H 	H 	0.4487	0.64	0.8504	0.017
Mof_C 	C 	0.8127	0.5003	0.2105	0.106
Mof_H 	H 	0.8924	0.503	0.132	0.023
Mof_C 	C 	0.697	0.4938	0.4365	0.103
Mof_H 	H 	0.6824	0.4916	0.545	0.035
Mof_N 	N 	0.8255	0.9237	0.6265	-0.133
Mof_N 	N 	0.6558	0.9148	0.5972	-0.084
Mof_N 	N 	0.7586	0.8259	0.701	-0.094
Mof_N 	N 	0.7894	0.7632	0.7562	-0.029
Mof_N 	N 	0.6569	0.7329	0.7595	-0.034
Mof_N 	N 	0.6878	0.6692	0.8144	-0.096
Mof_N 	N 	0.7963	0.5785	0.9045	-0.078
Mof_N 	N 	0.625	0.5759	0.9128	-0.176
Mof_N 	N 	0.653	0.4981	0.1887	-0.188
Mof_N 	N 	0.5792	0.493	0.3332	-0.099
Mof_N 	N 	0.8448	0.4981	0.366	-0.087
Mof_N 	N 	0.0031	0.5007	0.4274	-0.061
Mof_C 	C 	0.1178	0.1298	0.3112	0.092
Mof_H 	H 	0.0065	0.1369	0.279	0.001
Mof_C 	C 	0.381	0.144	0.3579	0.096
Mof_H 	H 	0.4875	0.1633	0.3645	0.028
Mof_C 	C 	0.1678	0.3647	0.1544	0.091
Mof_H 	H 	0.0598	0.349	0.1728	0.014
Mof_C 	C 	0.4372	0.3702	0.1417	0.101
Mof_H 	H 	0.5513	0.36	0.1496	0.008
Mof_C 	C 	0.1873	0.4997	0.7895	0.105
Mof_H 	H 	0.1076	0.497	0.868	0.025
Mof_C 	C 	0.303	0.5062	0.5635	0.105
Mof_H 	H 	0.3176	0.5084	0.455	0.03
Mof_N 	N 	0.1745	0.0763	0.3735	-0.157
Mof_N 	N 	0.3442	0.0852	0.4028	-0.095
Mof_N 	N 	0.2414	0.1741	0.299	-0.101
Mof_N 	N 	0.2106	0.2368	0.2438	-0.046
Mof_N 	N 	0.3431	0.2671	0.2405	-0.041
Mof_N 	N 	0.3122	0.3308	0.1856	-0.101
Mof_N 	N 	0.2037	0.4215	0.0955	-0.104
Mof_N 	N 	0.375	0.4241	0.0872	-0.194
Mof_N 	N 	0.347	0.5019	0.8113	-0.175
Mof_N 	N 	0.4208	0.507	0.6668	-0.099
Mof_N 	N 	0.1552	0.5019	0.634	-0.111
Mof_N 	N 	0.9969	0.4993	0.5726	-0.011
Mof_Cu	Cu	0.5	0.5	-0	0.873
Mof_C 	C 	0.6178	0.3702	0.8112	0.105
Mof_H 	H 	0.5065	0.3631	0.779	0.02
Mof_C 	C 	0.881	0.356	0.8579	0.108
Mof_H 	H 	0.9875	0.3367	0.8645	0.047
Mof_C 	C 	0.6678	0.1353	0.6544	0.102
Mof_H 	H 	0.5598	0.151	0.6728	0.029
Mof_C 	C 	0.9372	0.1298	0.6417	0.17
Mof_H 	H 	0.0513	0.14	0.6496	-0.027
Mof_C 	C 	0.6873	0.0003	0.2895	0.043
Mof_H 	H 	0.6076	0.003	0.368	0.035
Mof_C 	C 	0.803	0.9938	0.0635	0.04
Mof_H 	H 	0.8176	0.9916	0.955	0.091
Mof_N 	N 	0.6745	0.4237	0.8735	-0.138
Mof_N 	N 	0.8442	0.4148	0.9028	-0.075
Mof_N 	N 	0.7414	0.3259	0.799	-0.095
Mof_N 	N 	0.7106	0.2632	0.7438	-0.034
Mof_N 	N 	0.8431	0.2329	0.7405	-0.027
Mof_N 	N 	0.8122	0.1692	0.6856	-0.105
Mof_N 	N 	0.7037	0.0785	0.5955	-0.096
Mof_N 	N 	0.875	0.0759	0.5872	-0.191
Mof_N 	N 	0.847	0.9981	0.3113	-0.147
Mof_N 	N 	0.9208	0.993	0.1668	-0.071
Mof_N 	N 	0.6552	0.9981	0.134	-0.061
Mof_N 	N 	0.4969	0.0007	0.0726	-0.082
Mof_C 	C 	0.3822	0.6298	0.1888	0.091
Mof_H 	H 	0.4935	0.6369	0.221	0.016
Mof_C 	C 	0.119	0.644	0.1421	0.091
Mof_H 	H 	0.0125	0.6633	0.1355	0.011
Mof_C 	C 	0.3322	0.8647	0.3456	0.098
Mof_H 	H 	0.4402	0.849	0.3272	0.029
Mof_C 	C 	0.0628	0.8702	0.3583	0.048
Mof_H 	H 	0.9487	0.86	0.3504	0.051
Mof_C 	C 	0.3127	0.9997	0.7105	0.169
Mof_H 	H 	0.3924	0.997	0.632	0.013
Mof_C 	C 	0.197	0.0062	0.9365	0.169
Mof_H 	H 	0.1824	0.0084	0.045	-0.027
Mof_N 	N 	0.3255	0.5763	0.1265	-0.153
Mof_N 	N 	0.1558	0.5852	0.0972	-0.104
Mof_N 	N 	0.2586	0.6741	0.201	-0.1
Mof_N 	N 	0.2894	0.7368	0.2562	-0.041
Mof_N 	N 	0.1569	0.7671	0.2595	-0.047
Mof_N 	N 	0.1878	0.8308	0.3144	-0.093
Mof_N 	N 	0.2963	0.9215	0.4045	-0.086
Mof_N 	N 	0.125	0.9241	0.4128	-0.175
Mof_N 	N 	0.153	0.0019	0.6887	-0.214
Mof_N 	N 	0.0792	0.007	0.8332	-0.126
Mof_N 	N 	0.3448	0.0019	0.866	-0.136
Mof_N 	N 	0.5031	0.9993	0.9274	0.01
Mof_Cu	Cu	2.04182e-33	-2.20337e-33	0.5	0.863
_end
