data_functionalizedCrystal
_audit_creation_method	'EQeq! by Chris Wilmer'
_symmetry_space_group_name_H-M	'P1'
_symmetry_Int_Tables_number	1
_symmetry_cell_setting	triclinic
loop_
_symmetry_equiv_pos_as_xyz
  x,y,z
_cell_length_a	20.4391
_cell_length_b	20.4391
_cell_length_c	20.4391
_cell_angle_alpha	90
_cell_angle_beta	90
_cell_angle_gamma	90
loop_
_atom_site_label
_atom_site_type_symbol
_atom_site_fract_x
_atom_site_fract_y
_atom_site_fract_z
_atom_site_charge
Mof_O 	O 	0.1342	0.8111	0.2424	-0.477
Mof_O 	O 	0.0586	0.88325	0.2116	-0.348
Mof_N 	N 	0.9957	0.65	0.0133	-0.256
Mof_H 	H 	0.958	0.6623	0.9965	0.161
Mof_N 	N 	0.9877	0.5741	0.9328	-0.18
Mof_C 	C 	0.0863	0.8289	0.2063	0.375
Mof_C 	C 	0.0638	0.781	0.1565	-0.195
Mof_C 	C 	0.0132	0.7957	0.1149	0.126
Mof_H 	H 	0.9929	0.8374	0.1179	-0.012
Mof_C 	C 	0.9909	0.7519	0.0691	-0.229
Mof_H 	H 	0.9554	0.7635	0.0414	0.109
Mof_C 	C 	0.0201	0.6906	0.063	0.207
Mof_C 	C 	0.0719	0.6748	0.1052	-0.225
Mof_H 	H 	0.0929	0.6335	0.1021	0.118
Mof_C 	C 	0.0921	0.7192	0.1509	0.127
Mof_H 	H 	0.1266	0.7076	0.1799	-0.002
Mof_C 	C 	0.0215	0.5945	0.9873	0.191
Mof_O 	O 	0.3658	0.1889	0.7424	-0.476
Mof_O 	O 	0.4414	0.11675	0.7116	-0.347
Mof_N 	N 	0.5043	0.35	0.5133	-0.254
Mof_H 	H 	0.542	0.3377	0.4965	0.162
Mof_N 	N 	0.5123	0.4259	0.4328	-0.179
Mof_C 	C 	0.4137	0.1711	0.7063	0.375
Mof_C 	C 	0.4362	0.219	0.6565	-0.193
Mof_C 	C 	0.4868	0.2043	0.6149	0.124
Mof_H 	H 	0.5071	0.1626	0.6179	-0.011
Mof_C 	C 	0.5091	0.2481	0.5691	-0.227
Mof_H 	H 	0.5446	0.2365	0.5414	0.108
Mof_C 	C 	0.4799	0.3094	0.563	0.206
Mof_C 	C 	0.4281	0.3252	0.6052	-0.224
Mof_H 	H 	0.4071	0.3665	0.6021	0.118
Mof_C 	C 	0.4079	0.2808	0.6509	0.126
Mof_H 	H 	0.3734	0.2924	0.6799	-0.002
Mof_C 	C 	0.4785	0.4055	0.4873	0.192
Mof_O 	O 	0.8658	0.3111	0.2576	-0.476
Mof_O 	O 	0.9414	0.38325	0.2884	-0.347
Mof_N 	N 	0.0043	0.15	0.4867	-0.254
Mof_H 	H 	0.042	0.1623	0.5035	0.162
Mof_N 	N 	0.0123	0.0741	0.5672	-0.179
Mof_C 	C 	0.9137	0.3289	0.2937	0.375
Mof_C 	C 	0.9362	0.281	0.3435	-0.192
Mof_C 	C 	0.9868	0.2957	0.3851	0.122
Mof_H 	H 	0.0071	0.3374	0.3821	-0.01
Mof_C 	C 	0.0091	0.2519	0.4309	-0.225
Mof_H 	H 	0.0446	0.2635	0.4586	0.108
Mof_C 	C 	0.9799	0.1906	0.437	0.204
Mof_C 	C 	0.9281	0.1748	0.3948	-0.223
Mof_H 	H 	0.9071	0.1335	0.3979	0.117
Mof_C 	C 	0.9079	0.2192	0.3491	0.125
Mof_H 	H 	0.8734	0.2076	0.3201	-0.001
Mof_C 	C 	0.9785	0.0945	0.5127	0.191
Mof_O 	O 	0.6342	0.6889	0.7576	-0.476
Mof_O 	O 	0.5586	0.61675	0.7884	-0.347
Mof_N 	N 	0.4957	0.85	0.9867	-0.254
Mof_H 	H 	0.458	0.8377	0.0035	0.162
Mof_N 	N 	0.4877	0.9259	0.0672	-0.179
Mof_C 	C 	0.5863	0.6711	0.7937	0.375
Mof_C 	C 	0.5638	0.719	0.8435	-0.193
Mof_C 	C 	0.5132	0.7043	0.8851	0.124
Mof_H 	H 	0.4929	0.6626	0.8821	-0.011
Mof_C 	C 	0.4909	0.7481	0.9309	-0.227
Mof_H 	H 	0.4554	0.7365	0.9586	0.108
Mof_C 	C 	0.5201	0.8094	0.937	0.205
Mof_C 	C 	0.5719	0.8252	0.8948	-0.224
Mof_H 	H 	0.5929	0.8665	0.8979	0.118
Mof_C 	C 	0.5921	0.7808	0.8491	0.126
Mof_H 	H 	0.6266	0.7924	0.8201	-0.002
Mof_C 	C 	0.5215	0.9055	0.0127	0.192
Mof_O 	O 	0.2424	0.1342	0.8111	-0.476
Mof_O 	O 	0.2116	0.0586	0.88325	-0.347
Mof_N 	N 	0.0133	0.9957	0.65	-0.255
Mof_H 	H 	0.9965	0.958	0.6623	0.162
Mof_N 	N 	0.9328	0.9877	0.5741	-0.179
Mof_C 	C 	0.2063	0.0863	0.8289	0.376
Mof_C 	C 	0.1565	0.0638	0.781	-0.194
Mof_C 	C 	0.1149	0.0132	0.7957	0.126
Mof_H 	H 	0.1179	0.9929	0.8374	-0.012
Mof_C 	C 	0.0691	0.9909	0.7519	-0.229
Mof_H 	H 	0.0414	0.9554	0.7635	0.109
Mof_C 	C 	0.063	0.0201	0.6906	0.207
Mof_C 	C 	0.1052	0.0719	0.6748	-0.225
Mof_H 	H 	0.1021	0.0929	0.6335	0.118
Mof_C 	C 	0.1509	0.0921	0.7192	0.127
Mof_H 	H 	0.1799	0.1266	0.7076	-0.002
Mof_C 	C 	0.9873	0.0215	0.5945	0.191
Mof_O 	O 	0.7424	0.3658	0.1889	-0.476
Mof_O 	O 	0.7116	0.4414	0.11675	-0.347
Mof_N 	N 	0.5133	0.5043	0.35	-0.254
Mof_H 	H 	0.4965	0.542	0.3377	0.162
Mof_N 	N 	0.4328	0.5123	0.4259	-0.179
Mof_C 	C 	0.7063	0.4137	0.1711	0.375
Mof_C 	C 	0.6565	0.4362	0.219	-0.193
Mof_C 	C 	0.6149	0.4868	0.2043	0.124
Mof_H 	H 	0.6179	0.5071	0.1626	-0.011
Mof_C 	C 	0.5691	0.5091	0.2481	-0.227
Mof_H 	H 	0.5414	0.5446	0.2365	0.108
Mof_C 	C 	0.563	0.4799	0.3094	0.206
Mof_C 	C 	0.6052	0.4281	0.3252	-0.224
Mof_H 	H 	0.6021	0.4071	0.3665	0.118
Mof_C 	C 	0.6509	0.4079	0.2808	0.126
Mof_H 	H 	0.6799	0.3734	0.2924	-0.002
Mof_C 	C 	0.4873	0.4785	0.4055	0.192
Mof_O 	O 	0.2576	0.8658	0.3111	-0.476
Mof_O 	O 	0.2884	0.9414	0.38325	-0.347
Mof_N 	N 	0.4867	0.0043	0.15	-0.254
Mof_H 	H 	0.5035	0.042	0.1623	0.162
Mof_N 	N 	0.5672	0.0123	0.0741	-0.179
Mof_C 	C 	0.2937	0.9137	0.3289	0.375
Mof_C 	C 	0.3435	0.9362	0.281	-0.192
Mof_C 	C 	0.3851	0.9868	0.2957	0.122
Mof_H 	H 	0.3821	0.0071	0.3374	-0.01
Mof_C 	C 	0.4309	0.0091	0.2519	-0.225
Mof_H 	H 	0.4586	0.0446	0.2635	0.108
Mof_C 	C 	0.437	0.9799	0.1906	0.204
Mof_C 	C 	0.3948	0.9281	0.1748	-0.223
Mof_H 	H 	0.3979	0.9071	0.1335	0.117
Mof_C 	C 	0.3491	0.9079	0.2192	0.125
Mof_H 	H 	0.3201	0.8734	0.2076	-0.001
Mof_C 	C 	0.5127	0.9785	0.0945	0.191
Mof_O 	O 	0.7576	0.6342	0.6889	-0.476
Mof_O 	O 	0.7884	0.5586	0.61675	-0.347
Mof_N 	N 	0.9867	0.4957	0.85	-0.254
Mof_H 	H 	0.0035	0.458	0.8377	0.162
Mof_N 	N 	0.0672	0.4877	0.9259	-0.179
Mof_C 	C 	0.7937	0.5863	0.6711	0.375
Mof_C 	C 	0.8435	0.5638	0.719	-0.193
Mof_C 	C 	0.8851	0.5132	0.7043	0.124
Mof_H 	H 	0.8821	0.4929	0.6626	-0.011
Mof_C 	C 	0.9309	0.4909	0.7481	-0.227
Mof_H 	H 	0.9586	0.4554	0.7365	0.108
Mof_C 	C 	0.937	0.5201	0.8094	0.205
Mof_C 	C 	0.8948	0.5719	0.8252	-0.224
Mof_H 	H 	0.8979	0.5929	0.8665	0.118
Mof_C 	C 	0.8491	0.5921	0.7808	0.126
Mof_H 	H 	0.8201	0.6266	0.7924	-0.002
Mof_C 	C 	0.0127	0.5215	0.9055	0.192
Mof_O 	O 	0.8111	0.2424	0.1342	-0.476
Mof_O 	O 	0.88325	0.2116	0.0586	-0.347
Mof_N 	N 	0.65	0.0133	0.9957	-0.255
Mof_H 	H 	0.6623	0.9965	0.958	0.162
Mof_N 	N 	0.5741	0.9328	0.9877	-0.179
Mof_C 	C 	0.8289	0.2063	0.0863	0.376
Mof_C 	C 	0.781	0.1565	0.0638	-0.194
Mof_C 	C 	0.7957	0.1149	0.0132	0.126
Mof_H 	H 	0.8374	0.1179	0.9929	-0.012
Mof_C 	C 	0.7519	0.0691	0.9909	-0.229
Mof_H 	H 	0.7635	0.0414	0.9554	0.109
Mof_C 	C 	0.6906	0.063	0.0201	0.207
Mof_C 	C 	0.6748	0.1052	0.0719	-0.225
Mof_H 	H 	0.6335	0.1021	0.0929	0.118
Mof_C 	C 	0.7192	0.1509	0.0921	0.127
Mof_H 	H 	0.7076	0.1799	0.1266	-0.002
Mof_C 	C 	0.5945	0.9873	0.0215	0.191
Mof_O 	O 	0.1889	0.7424	0.3658	-0.476
Mof_O 	O 	0.11675	0.7116	0.4414	-0.347
Mof_N 	N 	0.35	0.5133	0.5043	-0.254
Mof_H 	H 	0.3377	0.4965	0.542	0.162
Mof_N 	N 	0.4259	0.4328	0.5123	-0.179
Mof_C 	C 	0.1711	0.7063	0.4137	0.375
Mof_C 	C 	0.219	0.6565	0.4362	-0.193
Mof_C 	C 	0.2043	0.6149	0.4868	0.124
Mof_H 	H 	0.1626	0.6179	0.5071	-0.011
Mof_C 	C 	0.2481	0.5691	0.5091	-0.227
Mof_H 	H 	0.2365	0.5414	0.5446	0.108
Mof_C 	C 	0.3094	0.563	0.4799	0.206
Mof_C 	C 	0.3252	0.6052	0.4281	-0.224
Mof_H 	H 	0.3665	0.6021	0.4071	0.118
Mof_C 	C 	0.2808	0.6509	0.4079	0.126
Mof_H 	H 	0.2924	0.6799	0.3734	-0.002
Mof_C 	C 	0.4055	0.4873	0.4785	0.192
Mof_O 	O 	0.3111	0.2576	0.8658	-0.476
Mof_O 	O 	0.38325	0.2884	0.9414	-0.347
Mof_N 	N 	0.15	0.4867	0.0043	-0.254
Mof_H 	H 	0.1623	0.5035	0.042	0.162
Mof_N 	N 	0.0741	0.5672	0.0123	-0.179
Mof_C 	C 	0.3289	0.2937	0.9137	0.375
Mof_C 	C 	0.281	0.3435	0.9362	-0.192
Mof_C 	C 	0.2957	0.3851	0.9868	0.122
Mof_H 	H 	0.3374	0.3821	0.0071	-0.01
Mof_C 	C 	0.2519	0.4309	0.0091	-0.225
Mof_H 	H 	0.2635	0.4586	0.0446	0.108
Mof_C 	C 	0.1906	0.437	0.9799	0.204
Mof_C 	C 	0.1748	0.3948	0.9281	-0.223
Mof_H 	H 	0.1335	0.3979	0.9071	0.117
Mof_C 	C 	0.2192	0.3491	0.9079	0.125
Mof_H 	H 	0.2076	0.3201	0.8734	-0.001
Mof_C 	C 	0.0945	0.5127	0.9785	0.191
Mof_O 	O 	0.6889	0.7576	0.6342	-0.476
Mof_O 	O 	0.61675	0.7884	0.5586	-0.347
Mof_N 	N 	0.85	0.9867	0.4957	-0.254
Mof_H 	H 	0.8377	0.0035	0.458	0.162
Mof_N 	N 	0.9259	0.0672	0.4877	-0.179
Mof_C 	C 	0.6711	0.7937	0.5863	0.375
Mof_C 	C 	0.719	0.8435	0.5638	-0.193
Mof_C 	C 	0.7043	0.8851	0.5132	0.124
Mof_H 	H 	0.6626	0.8821	0.4929	-0.011
Mof_C 	C 	0.7481	0.9309	0.4909	-0.227
Mof_H 	H 	0.7365	0.9586	0.4554	0.108
Mof_C 	C 	0.8094	0.937	0.5201	0.205
Mof_C 	C 	0.8252	0.8948	0.5719	-0.224
Mof_H 	H 	0.8665	0.8979	0.5929	0.118
Mof_C 	C 	0.7808	0.8491	0.5921	0.126
Mof_H 	H 	0.7924	0.8201	0.6266	-0.002
Mof_C 	C 	0.9055	0.0127	0.5215	0.192
Mof_Tb	Tb	0.15466	0.84534	0.34534	1.513
Mof_Tb	Tb	0.34534	0.15466	0.84534	1.513
Mof_Tb	Tb	0.84534	0.34534	0.15466	1.513
Mof_Tb	Tb	0.65466	0.65466	0.65466	1.513
Mof_O 	O 	0.23605	0.61931	0.18038	-0.529
Mof_O 	O 	0.20984	0.535	0.11568	-0.342
Mof_N 	N 	0.0092	0.4896	0.3507	-0.253
Mof_H 	H 	0.991	0.4521	0.3398	0.155
Mof_N 	N 	0.0126	0.5709	0.4306	-0.179
Mof_C 	C 	0.2027	0.5678	0.1667	0.408
Mof_C 	C 	0.1536	0.5479	0.2166	-0.202
Mof_C 	C 	0.1486	0.5796	0.2755	0.13
Mof_H 	H 	0.1779	0.6145	0.285	-0.005
Mof_C 	C 	0.1015	0.5619	0.322	-0.224
Mof_H 	H 	0.0987	0.5846	0.3624	0.121
Mof_C 	C 	0.059	0.5107	0.3082	0.206
Mof_C 	C 	0.0644	0.4778	0.249	-0.226
Mof_H 	H 	0.0358	0.4424	0.2396	0.098
Mof_C 	C 	0.1108	0.496	0.2037	0.121
Mof_H 	H 	0.1139	0.4731	0.1633	-0.012
Mof_C 	C 	0.9848	0.5172	0.4056	0.195
Mof_O 	O 	0.26395	0.38069	0.68038	-0.529
Mof_O 	O 	0.29016	0.465	0.61568	-0.342
Mof_N 	N 	0.4908	0.5104	0.8507	-0.254
Mof_H 	H 	0.509	0.5479	0.8398	0.156
Mof_N 	N 	0.4874	0.4291	0.9306	-0.179
Mof_C 	C 	0.2973	0.4322	0.6667	0.409
Mof_C 	C 	0.3464	0.4521	0.7166	-0.202
Mof_C 	C 	0.3514	0.4204	0.7755	0.13
Mof_H 	H 	0.3221	0.3855	0.785	-0.005
Mof_C 	C 	0.3985	0.4381	0.822	-0.224
Mof_H 	H 	0.4013	0.4154	0.8624	0.121
Mof_C 	C 	0.441	0.4893	0.8082	0.206
Mof_C 	C 	0.4356	0.5222	0.749	-0.226
Mof_H 	H 	0.4642	0.5576	0.7396	0.098
Mof_C 	C 	0.3892	0.504	0.7037	0.121
Mof_H 	H 	0.3861	0.5269	0.6633	-0.012
Mof_C 	C 	0.5152	0.4828	0.9056	0.195
Mof_O 	O 	0.76395	0.11931	0.31962	-0.529
Mof_O 	O 	0.79016	0.035	0.38432	-0.342
Mof_N 	N 	0.9908	0.9896	0.1493	-0.254
Mof_H 	H 	0.009	0.9521	0.1602	0.156
Mof_N 	N 	0.9874	0.0709	0.0694	-0.18
Mof_C 	C 	0.7973	0.0678	0.3333	0.408
Mof_C 	C 	0.8464	0.0479	0.2834	-0.202
Mof_C 	C 	0.8514	0.0796	0.2245	0.13
Mof_H 	H 	0.8221	0.1145	0.215	-0.005
Mof_C 	C 	0.8985	0.0619	0.178	-0.224
Mof_H 	H 	0.9013	0.0846	0.1376	0.121
Mof_C 	C 	0.941	0.0107	0.1918	0.207
Mof_C 	C 	0.9356	0.9778	0.251	-0.227
Mof_H 	H 	0.9642	0.9424	0.2604	0.098
Mof_C 	C 	0.8892	0.996	0.2963	0.12
Mof_H 	H 	0.8861	0.9731	0.3367	-0.012
Mof_C 	C 	0.0152	0.0172	0.0944	0.197
Mof_O 	O 	0.73605	0.88069	0.81962	-0.529
Mof_O 	O 	0.70984	0.965	0.88432	-0.343
Mof_N 	N 	0.5092	0.0104	0.6493	-0.253
Mof_H 	H 	0.491	0.0479	0.6602	0.156
Mof_N 	N 	0.5126	0.9291	0.5694	-0.179
Mof_C 	C 	0.7027	0.9322	0.8333	0.408
Mof_C 	C 	0.6536	0.9521	0.7834	-0.202
Mof_C 	C 	0.6486	0.9204	0.7245	0.13
Mof_H 	H 	0.6779	0.8855	0.715	-0.005
Mof_C 	C 	0.6015	0.9381	0.678	-0.224
Mof_H 	H 	0.5987	0.9154	0.6376	0.121
Mof_C 	C 	0.559	0.9893	0.6918	0.206
Mof_C 	C 	0.5644	0.0222	0.751	-0.226
Mof_H 	H 	0.5358	0.0576	0.7604	0.098
Mof_C 	C 	0.6108	0.004	0.7963	0.12
Mof_H 	H 	0.6139	0.0269	0.8367	-0.012
Mof_C 	C 	0.4848	0.9828	0.5944	0.195
Mof_O 	O 	0.18038	0.23605	0.61931	-0.529
Mof_O 	O 	0.11568	0.20984	0.535	-0.342
Mof_N 	N 	0.3507	0.0092	0.4896	-0.253
Mof_H 	H 	0.3398	0.991	0.4521	0.155
Mof_N 	N 	0.4306	0.0126	0.5709	-0.179
Mof_C 	C 	0.1667	0.2027	0.5678	0.408
Mof_C 	C 	0.2166	0.1536	0.5479	-0.202
Mof_C 	C 	0.2755	0.1486	0.5796	0.13
Mof_H 	H 	0.285	0.1779	0.6145	-0.005
Mof_C 	C 	0.322	0.1015	0.5619	-0.224
Mof_H 	H 	0.3624	0.0987	0.5846	0.121
Mof_C 	C 	0.3082	0.059	0.5107	0.206
Mof_C 	C 	0.249	0.0644	0.4778	-0.226
Mof_H 	H 	0.2396	0.0358	0.4424	0.098
Mof_C 	C 	0.2037	0.1108	0.496	0.121
Mof_H 	H 	0.1633	0.1139	0.4731	-0.012
Mof_C 	C 	0.4056	0.9848	0.5172	0.195
Mof_O 	O 	0.68038	0.26395	0.38069	-0.529
Mof_O 	O 	0.61568	0.29016	0.465	-0.342
Mof_N 	N 	0.8507	0.4908	0.5104	-0.254
Mof_H 	H 	0.8398	0.509	0.5479	0.156
Mof_N 	N 	0.9306	0.4874	0.4291	-0.179
Mof_C 	C 	0.6667	0.2973	0.4322	0.409
Mof_C 	C 	0.7166	0.3464	0.4521	-0.202
Mof_C 	C 	0.7755	0.3514	0.4204	0.13
Mof_H 	H 	0.785	0.3221	0.3855	-0.005
Mof_C 	C 	0.822	0.3985	0.4381	-0.224
Mof_H 	H 	0.8624	0.4013	0.4154	0.121
Mof_C 	C 	0.8082	0.441	0.4893	0.206
Mof_C 	C 	0.749	0.4356	0.5222	-0.226
Mof_H 	H 	0.7396	0.4642	0.5576	0.098
Mof_C 	C 	0.7037	0.3892	0.504	0.121
Mof_H 	H 	0.6633	0.3861	0.5269	-0.012
Mof_C 	C 	0.9056	0.5152	0.4828	0.195
Mof_O 	O 	0.31962	0.76395	0.11931	-0.529
Mof_O 	O 	0.38432	0.79016	0.035	-0.342
Mof_N 	N 	0.1493	0.9908	0.9896	-0.254
Mof_H 	H 	0.1602	0.009	0.9521	0.156
Mof_N 	N 	0.0694	0.9874	0.0709	-0.18
Mof_C 	C 	0.3333	0.7973	0.0678	0.408
Mof_C 	C 	0.2834	0.8464	0.0479	-0.202
Mof_C 	C 	0.2245	0.8514	0.0796	0.13
Mof_H 	H 	0.215	0.8221	0.1145	-0.005
Mof_C 	C 	0.178	0.8985	0.0619	-0.224
Mof_H 	H 	0.1376	0.9013	0.0846	0.121
Mof_C 	C 	0.1918	0.941	0.0107	0.207
Mof_C 	C 	0.251	0.9356	0.9778	-0.227
Mof_H 	H 	0.2604	0.9642	0.9424	0.098
Mof_C 	C 	0.2963	0.8892	0.996	0.12
Mof_H 	H 	0.3367	0.8861	0.9731	-0.012
Mof_C 	C 	0.0944	0.0152	0.0172	0.197
Mof_O 	O 	0.81962	0.73605	0.88069	-0.529
Mof_O 	O 	0.88432	0.70984	0.965	-0.343
Mof_N 	N 	0.6493	0.5092	0.0104	-0.253
Mof_H 	H 	0.6602	0.491	0.0479	0.156
Mof_N 	N 	0.5694	0.5126	0.9291	-0.179
Mof_C 	C 	0.8333	0.7027	0.9322	0.408
Mof_C 	C 	0.7834	0.6536	0.9521	-0.202
Mof_C 	C 	0.7245	0.6486	0.9204	0.13
Mof_H 	H 	0.715	0.6779	0.8855	-0.005
Mof_C 	C 	0.678	0.6015	0.9381	-0.224
Mof_H 	H 	0.6376	0.5987	0.9154	0.121
Mof_C 	C 	0.6918	0.559	0.9893	0.206
Mof_C 	C 	0.751	0.5644	0.0222	-0.226
Mof_H 	H 	0.7604	0.5358	0.0576	0.098
Mof_C 	C 	0.7963	0.6108	0.004	0.12
Mof_H 	H 	0.8367	0.6139	0.0269	-0.012
Mof_C 	C 	0.5944	0.4848	0.9828	0.195
Mof_O 	O 	0.61931	0.18038	0.23605	-0.529
Mof_O 	O 	0.535	0.11568	0.20984	-0.342
Mof_N 	N 	0.4896	0.3507	0.0092	-0.253
Mof_H 	H 	0.4521	0.3398	0.991	0.155
Mof_N 	N 	0.5709	0.4306	0.0126	-0.179
Mof_C 	C 	0.5678	0.1667	0.2027	0.408
Mof_C 	C 	0.5479	0.2166	0.1536	-0.202
Mof_C 	C 	0.5796	0.2755	0.1486	0.13
Mof_H 	H 	0.6145	0.285	0.1779	-0.005
Mof_C 	C 	0.5619	0.322	0.1015	-0.224
Mof_H 	H 	0.5846	0.3624	0.0987	0.121
Mof_C 	C 	0.5107	0.3082	0.059	0.206
Mof_C 	C 	0.4778	0.249	0.0644	-0.226
Mof_H 	H 	0.4424	0.2396	0.0358	0.098
Mof_C 	C 	0.496	0.2037	0.1108	0.121
Mof_H 	H 	0.4731	0.1633	0.1139	-0.012
Mof_C 	C 	0.5172	0.4056	0.9848	0.195
Mof_O 	O 	0.38069	0.68038	0.26395	-0.529
Mof_O 	O 	0.465	0.61568	0.29016	-0.342
Mof_N 	N 	0.5104	0.8507	0.4908	-0.254
Mof_H 	H 	0.5479	0.8398	0.509	0.156
Mof_N 	N 	0.4291	0.9306	0.4874	-0.179
Mof_C 	C 	0.4322	0.6667	0.2973	0.409
Mof_C 	C 	0.4521	0.7166	0.3464	-0.202
Mof_C 	C 	0.4204	0.7755	0.3514	0.13
Mof_H 	H 	0.3855	0.785	0.3221	-0.005
Mof_C 	C 	0.4381	0.822	0.3985	-0.224
Mof_H 	H 	0.4154	0.8624	0.4013	0.121
Mof_C 	C 	0.4893	0.8082	0.441	0.206
Mof_C 	C 	0.5222	0.749	0.4356	-0.226
Mof_H 	H 	0.5576	0.7396	0.4642	0.098
Mof_C 	C 	0.504	0.7037	0.3892	0.121
Mof_H 	H 	0.5269	0.6633	0.3861	-0.012
Mof_C 	C 	0.4828	0.9056	0.5152	0.195
Mof_O 	O 	0.11931	0.31962	0.76395	-0.529
Mof_O 	O 	0.035	0.38432	0.79016	-0.342
Mof_N 	N 	0.9896	0.1493	0.9908	-0.254
Mof_H 	H 	0.9521	0.1602	0.009	0.156
Mof_N 	N 	0.0709	0.0694	0.9874	-0.18
Mof_C 	C 	0.0678	0.3333	0.7973	0.408
Mof_C 	C 	0.0479	0.2834	0.8464	-0.202
Mof_C 	C 	0.0796	0.2245	0.8514	0.13
Mof_H 	H 	0.1145	0.215	0.8221	-0.005
Mof_C 	C 	0.0619	0.178	0.8985	-0.224
Mof_H 	H 	0.0846	0.1376	0.9013	0.121
Mof_C 	C 	0.0107	0.1918	0.941	0.207
Mof_C 	C 	0.9778	0.251	0.9356	-0.227
Mof_H 	H 	0.9424	0.2604	0.9642	0.098
Mof_C 	C 	0.996	0.2963	0.8892	0.12
Mof_H 	H 	0.9731	0.3367	0.8861	-0.012
Mof_C 	C 	0.0172	0.0944	0.0152	0.197
Mof_O 	O 	0.88069	0.81962	0.73605	-0.529
Mof_O 	O 	0.965	0.88432	0.70984	-0.343
Mof_N 	N 	0.0104	0.6493	0.5092	-0.253
Mof_H 	H 	0.0479	0.6602	0.491	0.156
Mof_N 	N 	0.9291	0.5694	0.5126	-0.179
Mof_C 	C 	0.9322	0.8333	0.7027	0.408
Mof_C 	C 	0.9521	0.7834	0.6536	-0.202
Mof_C 	C 	0.9204	0.7245	0.6486	0.13
Mof_H 	H 	0.8855	0.715	0.6779	-0.005
Mof_C 	C 	0.9381	0.678	0.6015	-0.224
Mof_H 	H 	0.9154	0.6376	0.5987	0.121
Mof_C 	C 	0.9893	0.6918	0.559	0.206
Mof_C 	C 	0.0222	0.751	0.5644	-0.226
Mof_H 	H 	0.0576	0.7604	0.5358	0.098
Mof_C 	C 	0.004	0.7963	0.6108	0.12
Mof_H 	H 	0.0269	0.8367	0.6139	-0.012
Mof_C 	C 	0.9828	0.5944	0.4848	0.195
Mof_Tb	Tb	0.33322	0.66678	0.16678	1.611
Mof_Tb	Tb	0.16678	0.33322	0.66678	1.611
Mof_Tb	Tb	0.66678	0.16678	0.33322	1.611
Mof_Tb	Tb	0.83322	0.83322	0.83322	1.611
_end
