data_functionalizedCrystal
_audit_creation_method	'EQeq! by Chris Wilmer'
_symmetry_space_group_name_H-M	'P1'
_symmetry_Int_Tables_number	1
_symmetry_cell_setting	triclinic
loop_
_symmetry_equiv_pos_as_xyz
  x,y,z
_cell_length_a	18.4468
_cell_length_b	13.2575
_cell_length_c	21.8586
_cell_angle_alpha	90
_cell_angle_beta	99.491
_cell_angle_gamma	90
loop_
_atom_site_label
_atom_site_type_symbol
_atom_site_fract_x
_atom_site_fract_y
_atom_site_fract_z
_atom_site_charge
Mof_Cd	Cd	0.81597	0.4218	0.57492	0.423
Mof_Cd	Cd	0.70791	0.19303	0.47145	0.396
Mof_N 	N 	0.9109	0.3683	0.4541	-0.098
Mof_N 	N 	0.8573	0.3411	0.4858	-0.065
Mof_N 	N 	0.8162	0.2716	0.4545	-0.069
Mof_N 	N 	0.8398	0.2535	0.4009	-0.091
Mof_N 	N 	0.0023	0.3452	0.2412	-0.133
Mof_N 	N 	0.7969	0.6567	0.527	-0.088
Mof_N 	N 	0.8402	0.5762	0.5287	-0.067
Mof_N 	N 	0.9001	0.6	0.5066	-0.071
Mof_N 	N 	0.8975	0.6983	0.4904	-0.088
Mof_N 	N 	0.7529	0.0297	0.4759	-0.156
Mof_N 	N 	0.459	0.1245	0.1779	-0.089
Mof_N 	N 	0.4399	0.0948	0.1197	-0.071
Mof_N 	N 	0.4987	0.0655	0.0976	-0.07
Mof_N 	N 	0.5583	0.0767	0.1409	-0.085
Mof_N 	N 	0.6557	0.1747	0.368	-0.156
Mof_N 	N 	0.7136	0.7441	0.8272	-0.089
Mof_N 	N 	0.7175	0.7682	0.8869	-0.067
Mof_N 	N 	0.7576	0.698	0.9213	-0.071
Mof_N 	N 	0.7805	0.63	0.8845	-0.092
Mof_N 	N 	0.7916	0.5059	0.6648	-0.148
Mof_O 	O 	0.6965	0.4499	0.538	-0.29
Mof_O 	O 	0.6487	0.3396	0.4673	-0.296
Mof_C 	C 	0.6446	0.4123	0.5027	0.335
Mof_C 	C 	0.5702	0.4594	0.5007	-0.065
Mof_C 	C 	0.5089	0.4189	0.4656	-0.018
Mof_H 	H 	0.5138	0.361	0.4425	0.048
Mof_C 	C 	0.5605	0.5392	0.537	-0.02
Mof_H 	H 	0.6003	0.5661	0.5636	0.052
Mof_C 	C 	0.8978	0.3125	0.401	0.092
Mof_C 	C 	0.9308	0.3398	0.2365	0.088
Mof_H 	H 	0.9027	0.3454	0.1972	0.012
Mof_C 	C 	0.8933	0.326	0.2878	-0.129
Mof_H 	H 	0.8425	0.3187	0.2817	0.086
Mof_C 	C 	0.9346	0.3235	0.3478	0.073
Mof_C 	C 	0.0096	0.3344	0.3515	-0.142
Mof_H 	H 	0.039	0.3377	0.3903	0.096
Mof_C 	C 	0.0417	0.3404	0.2995	0.083
Mof_H 	H 	0.0927	0.3413	0.3042	0.019
Mof_C 	C 	0.8339	0.7307	0.5032	0.093
Mof_C 	C 	0.7244	0.9656	0.5131	0.049
Mof_H 	H 	0.689	0.9898	0.5352	0.017
Mof_C 	C 	0.7449	0.8648	0.5205	-0.08
Mof_H 	H 	0.7198	0.8201	0.5422	0.061
Mof_C 	C 	0.8056	0.8334	0.4935	0.042
Mof_C 	C 	0.8404	0.903	0.4617	0.003
Mof_H 	H 	0.8831	0.887	0.4463	0.042
Mof_C 	C 	0.8089	0.998	0.4537	0.023
Mof_H 	H 	0.8305	0.0437	0.4298	0.021
Mof_C 	C 	0.5322	0.1131	0.1893	0.091
Mof_C 	C 	0.5866	0.209	0.3502	0.085
Mof_H 	H 	0.5655	0.2468	0.3784	0.011
Mof_C 	C 	0.5462	0.1917	0.2936	-0.141
Mof_H 	H 	0.4988	0.2174	0.2838	0.089
Mof_C 	C 	0.5765	0.1346	0.2502	0.074
Mof_C 	C 	0.6457	0.1033	0.2672	-0.146
Mof_H 	H 	0.6687	0.0676	0.2392	0.092
Mof_C 	C 	0.684	0.1236	0.3266	0.09
Mof_H 	H 	0.7318	0.0995	0.3372	0.006
Mof_C 	C 	0.7518	0.6606	0.8267	0.095
Mof_C 	C 	0.8172	0.4702	0.7219	0.081
Mof_H 	H 	0.844	0.4104	0.7255	0.02
Mof_C 	C 	0.8057	0.5179	0.7748	-0.129
Mof_H 	H 	0.8247	0.4906	0.8134	0.085
Mof_C 	C 	0.7659	0.6069	0.7712	0.065
Mof_C 	C 	0.7398	0.6425	0.7126	-0.137
Mof_H 	H 	0.7124	0.7017	0.7074	0.086
Mof_C 	C 	0.7545	0.5901	0.6619	0.09
Mof_H 	H 	0.7369	0.6164	0.6228	0.016
Mof_C 	C 	0.7091	0.95	0.4685	0.004
Mof_H 	H 	0.6588	0.9612	0.4577	0.025
Mof_C 	C 	0.7326	0.854	0.476	-0.044
Mof_H 	H 	0.6989	0.8017	0.4683	0.051
Mof_C 	C 	0.855	0.913	0.501	-0.12
Mof_H 	H 	0.9052	0.9037	0.5141	0.078
Mof_C 	C 	0.823	0.011	0.489	0.025
Mof_H 	H 	0.8554	0.065	0.4904	0.026
Mof_Cd	Cd	0.68403	0.9218	0.92508	0.426
Mof_Cd	Cd	0.79209	0.69303	0.02855	0.394
Mof_N 	N 	0.5891	0.8683	0.0459	-0.1
Mof_N 	N 	0.6427	0.8411	0.0142	-0.067
Mof_N 	N 	0.6838	0.7716	0.0455	-0.07
Mof_N 	N 	0.6602	0.7535	0.0991	-0.093
Mof_N 	N 	0.4977	0.8452	0.2588	-0.124
Mof_N 	N 	0.7031	0.1567	0.973	-0.091
Mof_N 	N 	0.6598	0.0762	0.9713	-0.068
Mof_N 	N 	0.5999	0.1	0.9934	-0.069
Mof_N 	N 	0.6025	0.1983	0.0096	-0.098
Mof_N 	N 	0.7471	0.5297	0.0241	-0.15
Mof_N 	N 	0.041	0.6245	0.3221	-0.094
Mof_N 	N 	0.0601	0.5948	0.3803	-0.071
Mof_N 	N 	0.0013	0.5655	0.4024	-0.073
Mof_N 	N 	0.9417	0.5767	0.3591	-0.082
Mof_N 	N 	0.8443	0.6747	0.132	-0.152
Mof_N 	N 	0.7864	0.2441	0.6728	-0.089
Mof_N 	N 	0.7825	0.2682	0.6131	-0.068
Mof_N 	N 	0.7424	0.198	0.5787	-0.073
Mof_N 	N 	0.7195	0.13	0.6155	-0.093
Mof_N 	N 	0.7084	0.0059	0.8352	-0.156
Mof_O 	O 	0.8035	0.9499	0.962	-0.288
Mof_O 	O 	0.8513	0.8396	0.0327	-0.298
Mof_C 	C 	0.8554	0.9123	0.9973	0.338
Mof_C 	C 	0.9298	0.9594	0.9993	-0.054
Mof_C 	C 	0.9911	0.9189	0.0344	-0.021
Mof_H 	H 	0.9862	0.861	0.0575	0.05
Mof_C 	C 	0.9395	0.0392	0.963	-0.023
Mof_H 	H 	0.8997	0.0661	0.9364	0.054
Mof_C 	C 	0.6022	0.8125	0.099	0.096
Mof_C 	C 	0.5692	0.8398	0.2635	0.074
Mof_H 	H 	0.5973	0.8454	0.3028	0.017
Mof_C 	C 	0.6067	0.826	0.2122	-0.116
Mof_H 	H 	0.6575	0.8187	0.2183	0.083
Mof_C 	C 	0.5654	0.8235	0.1522	0.056
Mof_C 	C 	0.4904	0.8344	0.1485	-0.121
Mof_H 	H 	0.461	0.8377	0.1097	0.091
Mof_C 	C 	0.4583	0.8404	0.2005	0.076
Mof_H 	H 	0.4073	0.8413	0.1958	0.023
Mof_C 	C 	0.6661	0.2307	0.9968	0.109
Mof_C 	C 	0.7756	0.4656	0.9869	0.046
Mof_H 	H 	0.811	0.4898	0.9648	0.018
Mof_C 	C 	0.7551	0.3648	0.9795	-0.064
Mof_H 	H 	0.7802	0.3201	0.9578	0.057
Mof_C 	C 	0.6944	0.3334	0.0065	0.02
Mof_C 	C 	0.6596	0.403	0.0383	-0.045
Mof_H 	H 	0.6169	0.387	0.0537	0.052
Mof_C 	C 	0.6911	0.498	0.0463	-0.01
Mof_H 	H 	0.6695	0.5437	0.0702	0.035
Mof_C 	C 	0.9678	0.6131	0.3107	0.104
Mof_C 	C 	0.9134	0.709	0.1498	0.073
Mof_H 	H 	0.9345	0.7468	0.1216	0.017
Mof_C 	C 	0.9538	0.6917	0.2064	-0.114
Mof_H 	H 	0.0012	0.7174	0.2162	0.075
Mof_C 	C 	0.9235	0.6346	0.2498	0.063
Mof_C 	C 	0.8543	0.6033	0.2328	-0.136
Mof_H 	H 	0.8313	0.5676	0.2608	0.09
Mof_C 	C 	0.816	0.6236	0.1734	0.086
Mof_H 	H 	0.7682	0.5995	0.1628	0.009
Mof_C 	C 	0.7482	0.1606	0.6733	0.09
Mof_C 	C 	0.6828	0.9702	0.7781	0.106
Mof_H 	H 	0.656	0.9104	0.7745	0.012
Mof_C 	C 	0.6943	0.0179	0.7252	-0.16
Mof_H 	H 	0.6753	0.9906	0.6866	0.098
Mof_C 	C 	0.7341	0.1069	0.7288	0.078
Mof_C 	C 	0.7602	0.1425	0.7874	-0.148
Mof_H 	H 	0.7876	0.2017	0.7926	0.09
Mof_C 	C 	0.7455	0.0901	0.8381	0.096
Mof_H 	H 	0.7631	0.1164	0.8772	0.013
Mof_C 	C 	0.7909	0.45	0.0315	-0.003
Mof_H 	H 	0.8412	0.4612	0.0423	0.025
Mof_C 	C 	0.7674	0.354	0.024	-0.045
Mof_H 	H 	0.8011	0.3017	0.0317	0.049
Mof_C 	C 	0.645	0.413	0.999	-0.056
Mof_H 	H 	0.5948	0.4037	0.9859	0.056
Mof_C 	C 	0.677	0.511	0.011	0.045
Mof_H 	H 	0.6446	0.565	0.0096	0.018
Mof_Cd	Cd	0.18403	0.5782	0.42508	0.421
Mof_Cd	Cd	0.29209	0.80697	0.52855	0.397
Mof_N 	N 	0.0891	0.6317	0.5459	-0.103
Mof_N 	N 	0.1427	0.6589	0.5142	-0.066
Mof_N 	N 	0.1838	0.7284	0.5455	-0.07
Mof_N 	N 	0.1602	0.7465	0.5991	-0.094
Mof_N 	N 	0.9977	0.6548	0.7588	-0.116
Mof_N 	N 	0.2031	0.3433	0.473	-0.089
Mof_N 	N 	0.1598	0.4238	0.4713	-0.067
Mof_N 	N 	0.0999	0.4	0.4934	-0.074
Mof_N 	N 	0.1025	0.3017	0.5096	-0.091
Mof_N 	N 	0.2471	0.9703	0.5241	-0.146
Mof_N 	N 	0.541	0.8755	0.8221	-0.088
Mof_N 	N 	0.5601	0.9052	0.8803	-0.07
Mof_N 	N 	0.5013	0.9345	0.9024	-0.066
Mof_N 	N 	0.4417	0.9233	0.8591	-0.083
Mof_N 	N 	0.3443	0.8253	0.632	-0.156
Mof_N 	N 	0.2864	0.2559	0.1728	-0.09
Mof_N 	N 	0.2825	0.2318	0.1131	-0.068
Mof_N 	N 	0.2424	0.302	0.0787	-0.074
Mof_N 	N 	0.2195	0.37	0.1155	-0.094
Mof_N 	N 	0.2084	0.4941	0.3352	-0.148
Mof_O 	O 	0.3035	0.5501	0.462	-0.29
Mof_O 	O 	0.3513	0.6604	0.5327	-0.295
Mof_C 	C 	0.3554	0.5877	0.4973	0.335
Mof_C 	C 	0.4298	0.5406	0.4993	-0.065
Mof_C 	C 	0.4911	0.5811	0.5344	-0.018
Mof_H 	H 	0.4862	0.639	0.5575	0.048
Mof_C 	C 	0.4395	0.4608	0.463	-0.02
Mof_H 	H 	0.3997	0.4339	0.4364	0.052
Mof_C 	C 	0.1022	0.6875	0.599	0.1
Mof_C 	C 	0.0692	0.6602	0.7635	0.058
Mof_H 	H 	0.0973	0.6546	0.8028	0.021
Mof_C 	C 	0.1067	0.674	0.7122	-0.105
Mof_H 	H 	0.1575	0.6813	0.7183	0.078
Mof_C 	C 	0.0654	0.6765	0.6522	0.038
Mof_C 	C 	0.9904	0.6656	0.6485	-0.1
Mof_H 	H 	0.961	0.6623	0.6097	0.085
Mof_C 	C 	0.9583	0.6596	0.7005	0.067
Mof_H 	H 	0.9073	0.6587	0.6958	0.026
Mof_C 	C 	0.1661	0.2693	0.4968	0.093
Mof_C 	C 	0.2756	0.0344	0.4869	0.019
Mof_H 	H 	0.311	0.0102	0.4648	0.023
Mof_C 	C 	0.2551	0.1352	0.4795	-0.078
Mof_H 	H 	0.2802	0.1799	0.4578	0.059
Mof_C 	C 	0.1944	0.1666	0.5065	0.041
Mof_C 	C 	0.1596	0.097	0.5383	-0.111
Mof_H 	H 	0.1169	0.113	0.5537	0.073
Mof_C 	C 	0.1911	0.002	0.5463	0.021
Mof_H 	H 	0.1695	0.9563	0.5702	0.028
Mof_C 	C 	0.4678	0.8869	0.8107	0.093
Mof_C 	C 	0.4134	0.791	0.6498	0.086
Mof_H 	H 	0.4345	0.7532	0.6216	0.011
Mof_C 	C 	0.4538	0.8083	0.7064	-0.141
Mof_H 	H 	0.5012	0.7826	0.7162	0.09
Mof_C 	C 	0.4235	0.8654	0.7498	0.076
Mof_C 	C 	0.3543	0.8967	0.7328	-0.146
Mof_H 	H 	0.3313	0.9324	0.7608	0.095
Mof_C 	C 	0.316	0.8764	0.6734	0.092
Mof_H 	H 	0.2682	0.9005	0.6628	0.007
Mof_C 	C 	0.2482	0.3394	0.1733	0.094
Mof_C 	C 	0.1828	0.5298	0.2781	0.08
Mof_H 	H 	0.156	0.5896	0.2745	0.02
Mof_C 	C 	0.1943	0.4821	0.2252	-0.129
Mof_H 	H 	0.1753	0.5094	0.1866	0.083
Mof_C 	C 	0.2341	0.3931	0.2288	0.064
Mof_C 	C 	0.2602	0.3575	0.2874	-0.137
Mof_H 	H 	0.2876	0.2983	0.2926	0.085
Mof_C 	C 	0.2455	0.4099	0.3381	0.089
Mof_H 	H 	0.2631	0.3836	0.3772	0.015
Mof_C 	C 	0.2909	0.05	0.5315	0.021
Mof_H 	H 	0.3412	0.0388	0.5423	0.016
Mof_C 	C 	0.2674	0.146	0.524	-0.043
Mof_H 	H 	0.3011	0.1983	0.5317	0.05
Mof_C 	C 	0.145	0.087	0.499	-0.008
Mof_H 	H 	0.0948	0.0963	0.4859	0.035
Mof_C 	C 	0.177	0.989	0.511	0.02
Mof_H 	H 	0.1446	0.935	0.5096	0.027
Mof_Cd	Cd	0.31597	0.0782	0.07492	0.414
Mof_Cd	Cd	0.20791	0.30697	0.97145	0.399
Mof_N 	N 	0.4109	0.1317	0.9541	-0.1
Mof_N 	N 	0.3573	0.1589	0.9858	-0.064
Mof_N 	N 	0.3162	0.2284	0.9545	-0.069
Mof_N 	N 	0.3398	0.2465	0.9009	-0.093
Mof_N 	N 	0.5023	0.1548	0.7412	-0.125
Mof_N 	N 	0.2969	0.8433	0.027	-0.087
Mof_N 	N 	0.3402	0.9238	0.0287	-0.066
Mof_N 	N 	0.4001	0.9	0.0066	-0.073
Mof_N 	N 	0.3975	0.8017	0.9904	-0.084
Mof_N 	N 	0.2529	0.4703	0.9759	-0.151
Mof_N 	N 	0.959	0.3755	0.6779	-0.083
Mof_N 	N 	0.9399	0.4052	0.6197	-0.07
Mof_N 	N 	0.9987	0.4345	0.5976	-0.064
Mof_N 	N 	0.0583	0.4233	0.6409	-0.085
Mof_N 	N 	0.1557	0.3253	0.868	-0.16
Mof_N 	N 	0.2136	0.7559	0.3272	-0.091
Mof_N 	N 	0.2175	0.7318	0.3869	-0.068
Mof_N 	N 	0.2576	0.802	0.4213	-0.072
Mof_N 	N 	0.2805	0.87	0.3845	-0.093
Mof_N 	N 	0.2916	0.9941	0.1648	-0.136
Mof_O 	O 	0.1965	0.0501	0.038	-0.293
Mof_O 	O 	0.1487	0.1604	0.9673	-0.291
Mof_C 	C 	0.1446	0.0877	0.0027	0.331
Mof_C 	C 	0.0702	0.0406	0.0007	-0.083
Mof_C 	C 	0.0089	0.0811	0.9656	-0.011
Mof_H 	H 	0.0138	0.139	0.9425	0.044
Mof_C 	C 	0.0605	0.9608	0.037	-0.012
Mof_H 	H 	0.1003	0.9339	0.0636	0.05
Mof_C 	C 	0.3978	0.1875	0.901	0.096
Mof_C 	C 	0.4308	0.1602	0.7365	0.072
Mof_H 	H 	0.4027	0.1546	0.6972	0.016
Mof_C 	C 	0.3933	0.174	0.7878	-0.117
Mof_H 	H 	0.3425	0.1813	0.7817	0.082
Mof_C 	C 	0.4346	0.1765	0.8478	0.055
Mof_C 	C 	0.5096	0.1656	0.8515	-0.122
Mof_H 	H 	0.539	0.1623	0.8903	0.091
Mof_C 	C 	0.5417	0.1596	0.7995	0.074
Mof_H 	H 	0.5927	0.1587	0.8042	0.022
Mof_C 	C 	0.3339	0.7693	0.0032	0.081
Mof_C 	C 	0.2244	0.5344	0.0131	0.023
Mof_H 	H 	0.189	0.5102	0.0352	0.021
Mof_C 	C 	0.2449	0.6352	0.0205	-0.094
Mof_H 	H 	0.2198	0.6799	0.0422	0.064
Mof_C 	C 	0.3056	0.6666	0.9935	0.059
Mof_C 	C 	0.3404	0.597	0.9617	-0.062
Mof_H 	H 	0.3831	0.613	0.9463	0.061
Mof_C 	C 	0.3089	0.502	0.9537	0.05
Mof_H 	H 	0.3305	0.4563	0.9298	0.016
Mof_C 	C 	0.0322	0.3869	0.6893	0.08
Mof_C 	C 	0.0866	0.291	0.8502	0.099
Mof_H 	H 	0.0655	0.2532	0.8784	0.005
Mof_C 	C 	0.0462	0.3083	0.7936	-0.168
Mof_H 	H 	0.9988	0.2826	0.7838	0.105
Mof_C 	C 	0.0765	0.3654	0.7502	0.088
Mof_C 	C 	0.1457	0.3967	0.7672	-0.156
Mof_H 	H 	0.1687	0.4324	0.7392	0.097
Mof_C 	C 	0.184	0.3764	0.8266	0.097
Mof_H 	H 	0.2318	0.4005	0.8372	0.004
Mof_C 	C 	0.2518	0.8394	0.3267	0.102
Mof_C 	C 	0.3172	0.0298	0.2219	0.045
Mof_H 	H 	0.344	0.0896	0.2255	0.031
Mof_C 	C 	0.3057	0.9821	0.2748	-0.087
Mof_H 	H 	0.3247	0.0094	0.3134	0.065
Mof_C 	C 	0.2659	0.8931	0.2712	0.046
Mof_C 	C 	0.2398	0.8575	0.2126	-0.123
Mof_H 	H 	0.2124	0.7983	0.2074	0.08
Mof_C 	C 	0.2545	0.9099	0.1619	0.081
Mof_H 	H 	0.2369	0.8836	0.1228	0.019
Mof_C 	C 	0.2091	0.55	0.9685	0.025
Mof_H 	H 	0.1588	0.5388	0.9577	0.017
Mof_C 	C 	0.2326	0.646	0.976	-0.04
Mof_H 	H 	0.1989	0.6983	0.9683	0.051
Mof_C 	C 	0.355	0.587	0.001	-0.07
Mof_H 	H 	0.4052	0.5963	0.0141	0.057
Mof_C 	C 	0.323	0.489	0.989	0.002
Mof_H 	H 	0.3554	0.435	0.9904	0.035
Mof_Cd	Cd	2.58773e-33	0.5	0.5	0.39
Mof_Cd	Cd	0.5	0	-0	0.385
_end
