data_functionalizedCrystal
_audit_creation_method	'EQeq! by Chris Wilmer'
_symmetry_space_group_name_H-M	'P1'
_symmetry_Int_Tables_number	1
_symmetry_cell_setting	triclinic
loop_
_symmetry_equiv_pos_as_xyz
  x,y,z
_cell_length_a	16.3417
_cell_length_b	16.3417
_cell_length_c	16.3417
_cell_angle_alpha	90
_cell_angle_beta	90
_cell_angle_gamma	90
loop_
_atom_site_label
_atom_site_type_symbol
_atom_site_fract_x
_atom_site_fract_y
_atom_site_fract_z
_atom_site_charge
Mof_N 	N 	0.58357	0.68576	0.31171	-0.219
Mof_C 	C 	0.60638	0.70817	0.38841	0.109
Mof_H 	H 	0.57866	0.75168	0.41519	0.004
Mof_N 	N 	0.91643	0.81424	0.31171	-0.2
Mof_C 	C 	0.89362	0.79183	0.38841	0.113
Mof_H 	H 	0.92134	0.74832	0.41519	0.016
Mof_N 	N 	0.91643	0.68576	0.18829	-0.202
Mof_C 	C 	0.89362	0.70817	0.11159	0.109
Mof_H 	H 	0.92134	0.75168	0.08481	0.012
Mof_N 	N 	0.58357	0.81424	0.18829	-0.218
Mof_C 	C 	0.60638	0.79183	0.11159	0.108
Mof_H 	H 	0.57866	0.74832	0.08481	-0.003
Mof_N 	N 	0.31171	0.58357	0.68576	-0.218
Mof_C 	C 	0.38841	0.60638	0.70817	0.11
Mof_H 	H 	0.41519	0.57866	0.75168	0.005
Mof_N 	N 	0.31171	0.91643	0.81424	-0.2
Mof_C 	C 	0.38841	0.89362	0.79183	0.113
Mof_H 	H 	0.41519	0.92134	0.74832	0.016
Mof_N 	N 	0.18829	0.91643	0.68576	-0.202
Mof_C 	C 	0.11159	0.89362	0.70817	0.109
Mof_H 	H 	0.08481	0.92134	0.75168	0.012
Mof_N 	N 	0.18829	0.58357	0.81424	-0.218
Mof_C 	C 	0.11159	0.60638	0.79183	0.108
Mof_H 	H 	0.08481	0.57866	0.74832	-0.003
Mof_N 	N 	0.68576	0.31171	0.58357	-0.218
Mof_C 	C 	0.70817	0.38841	0.60638	0.11
Mof_H 	H 	0.75168	0.41519	0.57866	0.005
Mof_N 	N 	0.81424	0.31171	0.91643	-0.2
Mof_C 	C 	0.79183	0.38841	0.89362	0.113
Mof_H 	H 	0.74832	0.41519	0.92134	0.016
Mof_N 	N 	0.68576	0.18829	0.91643	-0.202
Mof_C 	C 	0.70817	0.11159	0.89362	0.109
Mof_H 	H 	0.75168	0.08481	0.92134	0.012
Mof_N 	N 	0.81424	0.18829	0.58357	-0.218
Mof_C 	C 	0.79183	0.11159	0.60638	0.108
Mof_H 	H 	0.74832	0.08481	0.57866	-0.003
Mof_N 	N 	0.18576	0.08357	0.68829	-0.219
Mof_C 	C 	0.20817	0.10638	0.61159	0.101
Mof_H 	H 	0.25168	0.07866	0.58481	-0.007
Mof_N 	N 	0.31424	0.41643	0.68829	-0.218
Mof_C 	C 	0.29183	0.39362	0.61159	0.109
Mof_H 	H 	0.24832	0.42134	0.58481	-0.001
Mof_N 	N 	0.18576	0.41643	0.81171	-0.218
Mof_C 	C 	0.20817	0.39362	0.88841	0.109
Mof_H 	H 	0.25168	0.42134	0.91519	0.007
Mof_N 	N 	0.31424	0.08357	0.81171	-0.218
Mof_C 	C 	0.29183	0.10638	0.88841	0.107
Mof_H 	H 	0.24832	0.07866	0.91519	-0.002
Mof_N 	N 	0.08357	0.81171	0.31424	-0.218
Mof_C 	C 	0.10638	0.88841	0.29183	0.107
Mof_H 	H 	0.07866	0.91519	0.24832	-0.002
Mof_N 	N 	0.41643	0.81171	0.18576	-0.218
Mof_C 	C 	0.39362	0.88841	0.20817	0.109
Mof_H 	H 	0.42134	0.91519	0.25168	0.007
Mof_N 	N 	0.41643	0.68829	0.31424	-0.218
Mof_C 	C 	0.39362	0.61159	0.29183	0.109
Mof_H 	H 	0.42134	0.58481	0.24832	-0.001
Mof_N 	N 	0.08357	0.68829	0.18576	-0.219
Mof_C 	C 	0.10638	0.61159	0.20817	0.101
Mof_H 	H 	0.07866	0.58481	0.25168	-0.007
Mof_N 	N 	0.81171	0.18576	0.41643	-0.218
Mof_C 	C 	0.88841	0.20817	0.39362	0.109
Mof_H 	H 	0.91519	0.25168	0.42134	0.007
Mof_N 	N 	0.81171	0.31424	0.08357	-0.218
Mof_C 	C 	0.88841	0.29183	0.10638	0.107
Mof_H 	H 	0.91519	0.24832	0.07866	-0.002
Mof_N 	N 	0.68829	0.18576	0.08357	-0.219
Mof_C 	C 	0.61159	0.20817	0.10638	0.101
Mof_H 	H 	0.58481	0.25168	0.07866	-0.007
Mof_N 	N 	0.68829	0.31424	0.41643	-0.218
Mof_C 	C 	0.61159	0.29183	0.39362	0.109
Mof_H 	H 	0.58481	0.24832	0.42134	-0.001
Mof_N 	N 	0.41643	0.31424	0.68829	-0.218
Mof_C 	C 	0.39362	0.29183	0.61159	0.109
Mof_H 	H 	0.42134	0.24832	0.58481	-0.001
Mof_N 	N 	0.08357	0.18576	0.68829	-0.219
Mof_C 	C 	0.10638	0.20817	0.61159	0.101
Mof_H 	H 	0.07866	0.25168	0.58481	-0.007
Mof_N 	N 	0.08357	0.31424	0.81171	-0.218
Mof_C 	C 	0.10638	0.29183	0.88841	0.107
Mof_H 	H 	0.07866	0.24832	0.91519	-0.002
Mof_N 	N 	0.41643	0.18576	0.81171	-0.218
Mof_C 	C 	0.39362	0.20817	0.88841	0.109
Mof_H 	H 	0.42134	0.25168	0.91519	0.007
Mof_N 	N 	0.68829	0.41643	0.31424	-0.218
Mof_C 	C 	0.61159	0.39362	0.29183	0.109
Mof_H 	H 	0.58481	0.42134	0.24832	-0.001
Mof_N 	N 	0.68829	0.08357	0.18576	-0.219
Mof_C 	C 	0.61159	0.10638	0.20817	0.101
Mof_H 	H 	0.58481	0.07866	0.25168	-0.007
Mof_N 	N 	0.81171	0.08357	0.31424	-0.218
Mof_C 	C 	0.88841	0.10638	0.29183	0.107
Mof_H 	H 	0.91519	0.07866	0.24832	-0.002
Mof_N 	N 	0.81171	0.41643	0.18576	-0.218
Mof_C 	C 	0.88841	0.39362	0.20817	0.109
Mof_H 	H 	0.91519	0.42134	0.25168	0.007
Mof_N 	N 	0.31424	0.68829	0.41643	-0.218
Mof_C 	C 	0.29183	0.61159	0.39362	0.109
Mof_H 	H 	0.24832	0.58481	0.42134	-0.001
Mof_N 	N 	0.18576	0.68829	0.08357	-0.219
Mof_C 	C 	0.20817	0.61159	0.10638	0.101
Mof_H 	H 	0.25168	0.58481	0.07866	-0.007
Mof_N 	N 	0.31424	0.81171	0.08357	-0.218
Mof_C 	C 	0.29183	0.88841	0.10638	0.107
Mof_H 	H 	0.24832	0.91519	0.07866	-0.002
Mof_N 	N 	0.18576	0.81171	0.41643	-0.218
Mof_C 	C 	0.20817	0.88841	0.39362	0.109
Mof_H 	H 	0.25168	0.91519	0.42134	0.007
Mof_N 	N 	0.81424	0.91643	0.31171	-0.2
Mof_C 	C 	0.79183	0.89362	0.38841	0.113
Mof_H 	H 	0.74832	0.92134	0.41519	0.016
Mof_N 	N 	0.68576	0.58357	0.31171	-0.218
Mof_C 	C 	0.70817	0.60638	0.38841	0.11
Mof_H 	H 	0.75168	0.57866	0.41519	0.005
Mof_N 	N 	0.81424	0.58357	0.18829	-0.218
Mof_C 	C 	0.79183	0.60638	0.11159	0.108
Mof_H 	H 	0.74832	0.57866	0.08481	-0.003
Mof_N 	N 	0.68576	0.91643	0.18829	-0.202
Mof_C 	C 	0.70817	0.89362	0.11159	0.109
Mof_H 	H 	0.75168	0.92134	0.08481	0.012
Mof_N 	N 	0.91643	0.18829	0.68576	-0.202
Mof_C 	C 	0.89362	0.11159	0.70817	0.109
Mof_H 	H 	0.92134	0.08481	0.75168	0.012
Mof_N 	N 	0.58357	0.18829	0.81424	-0.218
Mof_C 	C 	0.60638	0.11159	0.79183	0.108
Mof_H 	H 	0.57866	0.08481	0.74832	-0.003
Mof_N 	N 	0.58357	0.31171	0.68576	-0.218
Mof_C 	C 	0.60638	0.38841	0.70817	0.11
Mof_H 	H 	0.57866	0.41519	0.75168	0.005
Mof_N 	N 	0.91643	0.31171	0.81424	-0.2
Mof_C 	C 	0.89362	0.38841	0.79183	0.113
Mof_H 	H 	0.92134	0.41519	0.74832	0.016
Mof_N 	N 	0.18829	0.81424	0.58357	-0.218
Mof_C 	C 	0.11159	0.79183	0.60638	0.108
Mof_H 	H 	0.08481	0.74832	0.57866	-0.003
Mof_N 	N 	0.18829	0.68576	0.91643	-0.202
Mof_C 	C 	0.11159	0.70817	0.89362	0.109
Mof_H 	H 	0.08481	0.75168	0.92134	0.012
Mof_N 	N 	0.31171	0.81424	0.91643	-0.2
Mof_C 	C 	0.38841	0.79183	0.89362	0.113
Mof_H 	H 	0.41519	0.74832	0.92134	0.016
Mof_N 	N 	0.31171	0.68576	0.58357	-0.218
Mof_C 	C 	0.38841	0.70817	0.60638	0.11
Mof_H 	H 	0.41519	0.75168	0.57866	0.005
Mof_Pd	Pd	0.5	0.75	0.25	0.591
Mof_Pd	Pd	-7.73926e-33	0.75	0.25	0.532
Mof_Pd	Pd	0.25	0.5	0.75	0.591
Mof_Pd	Pd	0.25	0	0.75	0.532
Mof_Pd	Pd	0.75	0.25	0.5	0.591
Mof_Pd	Pd	0.75	0.25	-0	0.532
Mof_Pd	Pd	0.5	0.25	0.75	0.591
Mof_Pd	Pd	-8.75676e-33	0.25	0.75	0.532
Mof_Pd	Pd	0.75	0.5	0.25	0.591
Mof_Pd	Pd	0.75	-2.8922e-33	0.25	0.532
Mof_Pd	Pd	0.25	0.75	0.5	0.591
Mof_Pd	Pd	0.25	0.75	-0	0.532
Mof_C 	C 	0.62354	0.62354	0.27313	0.266
Mof_C 	C 	0.66841	0.66841	0.42699	-0.172
Mof_O 	O 	0.60291	0.60291	0.20242	-0.265
Mof_H 	H 	0.68409	0.68409	0.48073	0.092
Mof_C 	C 	0.87646	0.87646	0.27313	0.271
Mof_C 	C 	0.8316	0.8316	0.42699	-0.165
Mof_O 	O 	0.8971	0.8971	0.20242	-0.237
Mof_H 	H 	0.81592	0.81592	0.48073	0.096
Mof_C 	C 	0.87646	0.62354	0.22687	0.267
Mof_C 	C 	0.8316	0.66841	0.07301	-0.171
Mof_O 	O 	0.8971	0.60291	0.29758	-0.247
Mof_H 	H 	0.81592	0.68409	0.01927	0.083
Mof_C 	C 	0.62354	0.87646	0.22687	0.267
Mof_C 	C 	0.66841	0.8316	0.07301	-0.171
Mof_O 	O 	0.60291	0.8971	0.29758	-0.247
Mof_H 	H 	0.68409	0.81592	0.01927	0.083
Mof_C 	C 	0.27313	0.62354	0.62354	0.266
Mof_C 	C 	0.42699	0.66841	0.66841	-0.172
Mof_O 	O 	0.20242	0.60291	0.60291	-0.265
Mof_H 	H 	0.48073	0.68409	0.68409	0.092
Mof_C 	C 	0.27313	0.87646	0.87646	0.271
Mof_C 	C 	0.42699	0.8316	0.8316	-0.165
Mof_O 	O 	0.20242	0.8971	0.8971	-0.237
Mof_H 	H 	0.48073	0.81592	0.81592	0.096
Mof_C 	C 	0.22687	0.87646	0.62354	0.267
Mof_C 	C 	0.07301	0.8316	0.66841	-0.171
Mof_O 	O 	0.29758	0.8971	0.60291	-0.247
Mof_H 	H 	0.01927	0.81592	0.68409	0.083
Mof_C 	C 	0.22687	0.62354	0.87646	0.267
Mof_C 	C 	0.07301	0.66841	0.8316	-0.171
Mof_O 	O 	0.29758	0.60291	0.8971	-0.247
Mof_H 	H 	0.01927	0.68409	0.81592	0.083
Mof_C 	C 	0.62354	0.27313	0.62354	0.266
Mof_C 	C 	0.66841	0.42699	0.66841	-0.172
Mof_O 	O 	0.60291	0.20242	0.60291	-0.265
Mof_H 	H 	0.68409	0.48073	0.68409	0.092
Mof_C 	C 	0.87646	0.27313	0.87646	0.271
Mof_C 	C 	0.8316	0.42699	0.8316	-0.165
Mof_O 	O 	0.8971	0.20242	0.8971	-0.237
Mof_H 	H 	0.81592	0.48073	0.81592	0.096
Mof_C 	C 	0.62354	0.22687	0.87646	0.267
Mof_C 	C 	0.66841	0.07301	0.8316	-0.171
Mof_O 	O 	0.60291	0.29758	0.8971	-0.247
Mof_H 	H 	0.68409	0.01927	0.81592	0.083
Mof_C 	C 	0.87646	0.22687	0.62354	0.267
Mof_C 	C 	0.8316	0.07301	0.66841	-0.171
Mof_O 	O 	0.8971	0.29758	0.60291	-0.247
Mof_H 	H 	0.81592	0.01927	0.68409	0.083
Mof_C 	C 	0.12354	0.12354	0.72687	0.26
Mof_C 	C 	0.16841	0.16841	0.57301	-0.175
Mof_O 	O 	0.10291	0.10291	0.79758	-0.272
Mof_H 	H 	0.18409	0.18409	0.51927	0.078
Mof_C 	C 	0.37646	0.37646	0.72687	0.265
Mof_C 	C 	0.33159	0.33159	0.57301	-0.173
Mof_O 	O 	0.3971	0.3971	0.79758	-0.257
Mof_H 	H 	0.31592	0.31592	0.51927	0.083
Mof_C 	C 	0.12354	0.37646	0.77313	0.265
Mof_C 	C 	0.16841	0.33159	0.92699	-0.172
Mof_O 	O 	0.10291	0.3971	0.70242	-0.269
Mof_H 	H 	0.18409	0.31592	0.98073	0.092
Mof_C 	C 	0.37646	0.12354	0.77313	0.265
Mof_C 	C 	0.33159	0.16841	0.92699	-0.172
Mof_O 	O 	0.3971	0.10291	0.70242	-0.269
Mof_H 	H 	0.31592	0.18409	0.98073	0.092
Mof_C 	C 	0.12354	0.77313	0.37646	0.265
Mof_C 	C 	0.16841	0.92699	0.33159	-0.172
Mof_O 	O 	0.10291	0.70242	0.3971	-0.269
Mof_H 	H 	0.18409	0.98073	0.31592	0.092
Mof_C 	C 	0.37646	0.77313	0.12354	0.265
Mof_C 	C 	0.33159	0.92699	0.16841	-0.172
Mof_O 	O 	0.3971	0.70242	0.10291	-0.269
Mof_H 	H 	0.31592	0.98073	0.18409	0.092
Mof_C 	C 	0.37646	0.72687	0.37646	0.265
Mof_C 	C 	0.33159	0.57301	0.33159	-0.173
Mof_O 	O 	0.3971	0.79758	0.3971	-0.257
Mof_H 	H 	0.31592	0.51927	0.31592	0.083
Mof_C 	C 	0.12354	0.72687	0.12354	0.26
Mof_C 	C 	0.16841	0.57301	0.16841	-0.175
Mof_O 	O 	0.10291	0.79758	0.10291	-0.272
Mof_H 	H 	0.18409	0.51927	0.18409	0.078
Mof_C 	C 	0.77313	0.12354	0.37646	0.265
Mof_C 	C 	0.92699	0.16841	0.33159	-0.172
Mof_O 	O 	0.70242	0.10291	0.3971	-0.269
Mof_H 	H 	0.98073	0.18409	0.31592	0.092
Mof_C 	C 	0.77313	0.37646	0.12354	0.265
Mof_C 	C 	0.92699	0.33159	0.16841	-0.172
Mof_O 	O 	0.70242	0.3971	0.10291	-0.269
Mof_H 	H 	0.98073	0.31592	0.18409	0.092
Mof_C 	C 	0.72687	0.12354	0.12354	0.26
Mof_C 	C 	0.57301	0.16841	0.16841	-0.175
Mof_O 	O 	0.79758	0.10291	0.10291	-0.272
Mof_H 	H 	0.51927	0.18409	0.18409	0.078
Mof_C 	C 	0.72687	0.37646	0.37646	0.265
Mof_C 	C 	0.57301	0.33159	0.33159	-0.173
Mof_O 	O 	0.79758	0.3971	0.3971	-0.257
Mof_H 	H 	0.51927	0.31592	0.31592	0.083
_end
