data_functionalizedCrystal
_audit_creation_method	'EQeq! by Chris Wilmer'
_symmetry_space_group_name_H-M	'P1'
_symmetry_Int_Tables_number	1
_symmetry_cell_setting	triclinic
loop_
_symmetry_equiv_pos_as_xyz
  x,y,z
_cell_length_a	13.6132
_cell_length_b	18.0261
_cell_length_c	22.945
_cell_angle_alpha	69.574
_cell_angle_beta	88.899
_cell_angle_gamma	89.147
loop_
_atom_site_label
_atom_site_type_symbol
_atom_site_fract_x
_atom_site_fract_y
_atom_site_fract_z
_atom_site_charge
Mof_Mg	Mg	0.91179	0.79426	0.39759	1.449
Mof_Mg	Mg	0.12418	0.86681	0.25039	1.484
Mof_Mg	Mg	0.34246	0.94376	0.10503	1.45
Mof_Mg	Mg	0.60702	0.69053	0.6117	1.449
Mof_Mg	Mg	0.37601	0.63236	0.75093	1.485
Mof_Mg	Mg	0.1478	0.56977	0.89026	1.45
Mof_O 	O 	0.04652	0.83785	0.40443	-0.569
Mof_O 	O 	0.16576	0.824	0.34109	-0.501
Mof_O 	O 	0.47113	0.65929	0.59352	-0.57
Mof_O 	O 	0.34944	0.66705	0.65819	-0.506
Mof_O 	O 	0.34043	0.78134	0.38177	-0.47
Mof_H 	H 	0.297	0.794	0.3574	0.314
Mof_O 	O 	0.17636	0.71824	0.61661	-0.503
Mof_H 	H 	0.218	0.701	0.6403	0.336
Mof_O 	O 	0.87627	0.89513	0.32491	-0.564
Mof_O 	O 	0.00373	0.93261	0.25854	-0.503
Mof_O 	O 	0.73573	0.29041	0.25039	-0.515
Mof_O 	O 	0.86149	0.32613	0.18231	-0.583
Mof_O 	O 	0.02405	0.07798	0.18795	-0.399
Mof_H 	H 	0.04	0.03	0.2075	0.253
Mof_O 	O 	0.7129	0.1429	0.32063	-0.474
Mof_H 	H 	0.709	0.189	0.3048	0.318
Mof_O 	O 	0.04662	0.26899	0.65676	-0.588
Mof_O 	O 	0.95731	0.22905	0.74459	-0.502
Mof_O 	O 	0.28694	0.54039	0.75617	-0.512
Mof_O 	O 	0.20119	0.49857	0.84501	-0.588
Mof_O 	O 	0.98612	0.28631	0.83088	-0.367
Mof_H 	H 	0.96	0.26	0.8084	0.238
Mof_O 	O 	0.25608	0.4845	0.66927	-0.409
Mof_H 	H 	0.285	0.509	0.6899	0.261
Mof_O 	O 	0.2034	0.96385	0.24678	-0.503
Mof_O 	O 	0.29271	0.00416	0.15906	-0.591
Mof_O 	O 	0.44662	0.23482	0.34564	-0.58
Mof_O 	O 	0.53339	0.27508	0.25702	-0.504
Mof_O 	O 	0.2346	0.02026	0.33341	-0.367
Mof_H 	H 	0.202	0.992	0.3139	0.229
Mof_O 	O 	0.50393	0.2182	0.17107	-0.381
Mof_H 	H 	0.529	0.245	0.1928	0.247
Mof_O 	O 	0.08769	0.90934	0.15855	-0.5
Mof_O 	O 	0.20919	0.90326	0.0934	-0.57
Mof_O 	O 	0.91288	0.9518	0.11718	-0.504
Mof_H 	H 	0.956	0.94	0.1399	0.342
Mof_O 	O 	0.40439	0.59985	0.84375	-0.505
Mof_O 	O 	0.28449	0.59627	0.91262	-0.565
Mof_O 	O 	0.58054	0.54862	0.88105	-0.546
Mof_H 	H 	0.538	0.558	0.8597	0.376
Mof_O 	O 	0.62238	0.59361	0.69141	-0.573
Mof_O 	O 	0.48919	0.55634	0.75274	-0.509
Mof_O 	O 	0.75748	0.19871	0.7609	-0.509
Mof_O 	O 	0.6266	0.16116	0.82458	-0.561
Mof_O 	O 	0.46302	0.40883	0.82098	-0.375
Mof_H 	H 	0.443	0.457	0.7989	0.232
Mof_O 	O 	0.79035	0.34728	0.69968	-0.418
Mof_H 	H 	0.797	0.298	0.7138	0.266
Mof_C 	C 	0.1316	0.81798	0.39432	0.46
Mof_C 	C 	0.1991	0.78379	0.44765	-0.187
Mof_C 	C 	0.2978	0.76704	0.43914	0.244
Mof_C 	C 	0.3553	0.7327	0.49104	-0.082
Mof_H 	H 	0.4209	0.7211	0.4854	0.055
Mof_C 	C 	0.3181	0.71508	0.55132	-0.193
Mof_C 	C 	0.2194	0.73302	0.55966	0.258
Mof_C 	C 	0.1617	0.76738	0.50791	-0.093
Mof_H 	H 	0.0964	0.7798	0.5134	0.052
Mof_C 	C 	0.385	0.67774	0.60466	0.472
Mof_C 	C 	0.928	0.9463	0.28545	0.464
Mof_C 	C 	0.8981	0.03165	0.26846	-0.163
Mof_C 	C 	0.9468	0.092	0.22148	0.219
Mof_C 	C 	0.917	0.1698	0.20819	-0.068
Mof_H 	H 	0.9499	0.2097	0.1771	0.059
Mof_C 	C 	0.8394	0.18995	0.24004	-0.192
Mof_C 	C 	0.7901	0.1297	0.28733	0.248
Mof_C 	C 	0.8212	0.0521	0.30092	-0.093
Mof_H 	H 	0.7897	0.0123	0.3328	0.073
Mof_C 	C 	0.8106	0.2759	0.22252	0.487
Mof_C 	C 	0.0222	0.27236	0.7085	0.478
Mof_C 	C 	0.0719	0.33058	0.73064	-0.173
Mof_C 	C 	0.0527	0.3339	0.78995	0.201
Mof_C 	C 	0.104	0.3879	0.80892	-0.061
Mof_H 	H 	0.0926	0.3894	0.8486	0.043
Mof_C 	C 	0.1719	0.43938	0.76985	-0.195
Mof_C 	C 	0.1906	0.43605	0.71044	0.23
Mof_C 	C 	0.1395	0.3832	0.69163	-0.089
Mof_H 	H 	0.1502	0.3826	0.6517	0.055
Mof_C 	C 	0.2234	0.49684	0.79253	0.483
Mof_C 	C 	0.2682	0.0069	0.21092	0.487
Mof_C 	C 	0.3186	0.06501	0.23302	-0.184
Mof_C 	C 	0.3006	0.06847	0.29256	0.22
Mof_C 	C 	0.3516	0.12214	0.31084	-0.079
Mof_H 	H 	0.3401	0.1241	0.3504	0.053
Mof_C 	C 	0.4199	0.17356	0.27155	-0.18
Mof_C 	C 	0.4378	0.1706	0.21221	0.214
Mof_C 	C 	0.3862	0.1166	0.1938	-0.069
Mof_H 	H 	0.3973	0.115	0.1541	0.047
Mof_C 	C 	0.47	0.23198	0.2937	0.484
Mof_C 	C 	0.1241	0.92177	0.10482	0.467
Mof_C 	C 	0.0583	0.96159	0.05165	-0.187
Mof_C 	C 	0.9582	0.9749	0.06001	0.241
Mof_C 	C 	0.9014	0.01239	0.00875	-0.079
Mof_H 	H 	0.8348	0.0206	0.0144	0.048
Mof_C 	C 	0.3705	0.58236	0.89847	0.474
Mof_C 	C 	0.4392	0.54091	0.9501	-0.191
Mof_C 	C 	0.538	0.52572	0.93903	0.265
Mof_C 	C 	0.4031	0.51491	0.01105	-0.09
Mof_H 	H 	0.3378	0.5251	0.0185	0.063
Mof_C 	C 	0.5684	0.54255	0.72878	0.479
Mof_C 	C 	0.5982	0.45715	0.74682	-0.173
Mof_C 	C 	0.5446	0.3959	0.79027	0.217
Mof_C 	C 	0.5739	0.31811	0.80258	-0.075
Mof_H 	H 	0.5382	0.2778	0.8315	0.063
Mof_C 	C 	0.6549	0.29833	0.77308	-0.179
Mof_C 	C 	0.7093	0.3596	0.73049	0.231
Mof_C 	C 	0.6801	0.43736	0.71839	-0.083
Mof_H 	H 	0.7166	0.4777	0.6902	0.061
Mof_C 	C 	0.6816	0.21272	0.78768	0.473
Mof_Mg	Mg	0.08821	0.20574	0.60241	1.448
Mof_Mg	Mg	0.87582	0.13319	0.74961	1.483
Mof_Mg	Mg	0.65754	0.05624	0.89497	1.449
Mof_Mg	Mg	0.39298	0.30947	0.3883	1.448
Mof_Mg	Mg	0.62399	0.36764	0.24907	1.484
Mof_Mg	Mg	0.8522	0.43023	0.10974	1.449
Mof_O 	O 	0.95348	0.16215	0.59557	-0.57
Mof_O 	O 	0.83424	0.176	0.65891	-0.502
Mof_O 	O 	0.52887	0.34071	0.40648	-0.571
Mof_O 	O 	0.65056	0.33295	0.34181	-0.507
Mof_O 	O 	0.65957	0.21866	0.61823	-0.47
Mof_H 	H 	0.703	0.206	0.6426	0.314
Mof_O 	O 	0.82364	0.28176	0.38339	-0.503
Mof_H 	H 	0.782	0.299	0.3597	0.336
Mof_O 	O 	0.12373	0.10487	0.67509	-0.564
Mof_O 	O 	0.99627	0.06739	0.74146	-0.503
Mof_O 	O 	0.26427	0.70959	0.74961	-0.515
Mof_O 	O 	0.13851	0.67387	0.81769	-0.583
Mof_O 	O 	0.97595	0.92202	0.81205	-0.399
Mof_H 	H 	0.96	0.97	0.7925	0.253
Mof_O 	O 	0.2871	0.8571	0.67937	-0.474
Mof_H 	H 	0.291	0.811	0.6952	0.318
Mof_O 	O 	0.95338	0.73101	0.34324	-0.588
Mof_O 	O 	0.04269	0.77095	0.25541	-0.502
Mof_O 	O 	0.71306	0.45961	0.24383	-0.512
Mof_O 	O 	0.79881	0.50143	0.15499	-0.588
Mof_O 	O 	0.01388	0.71369	0.16912	-0.367
Mof_H 	H 	0.04	0.74	0.1916	0.238
Mof_O 	O 	0.74392	0.5155	0.33073	-0.409
Mof_H 	H 	0.715	0.491	0.3101	0.261
Mof_O 	O 	0.7966	0.03615	0.75322	-0.503
Mof_O 	O 	0.70729	0.99584	0.84094	-0.591
Mof_O 	O 	0.55338	0.76518	0.65436	-0.58
Mof_O 	O 	0.46661	0.72492	0.74298	-0.504
Mof_O 	O 	0.7654	0.97974	0.66659	-0.367
Mof_H 	H 	0.798	0.008	0.6861	0.229
Mof_O 	O 	0.49607	0.7818	0.82893	-0.381
Mof_H 	H 	0.471	0.755	0.8072	0.247
Mof_O 	O 	0.91231	0.09066	0.84145	-0.5
Mof_O 	O 	0.79081	0.09674	0.9066	-0.57
Mof_O 	O 	0.08712	0.0482	0.88282	-0.504
Mof_H 	H 	0.044	0.06	0.8601	0.342
Mof_O 	O 	0.59561	0.40015	0.15625	-0.505
Mof_O 	O 	0.71551	0.40373	0.08738	-0.565
Mof_O 	O 	0.41946	0.45138	0.11895	-0.546
Mof_H 	H 	0.462	0.442	0.1403	0.376
Mof_O 	O 	0.37762	0.40639	0.30859	-0.573
Mof_O 	O 	0.51081	0.44366	0.24726	-0.509
Mof_O 	O 	0.24252	0.80129	0.2391	-0.509
Mof_O 	O 	0.3734	0.83884	0.17542	-0.561
Mof_O 	O 	0.53698	0.59117	0.17902	-0.375
Mof_H 	H 	0.557	0.543	0.2011	0.232
Mof_O 	O 	0.20965	0.65272	0.30032	-0.418
Mof_H 	H 	0.203	0.702	0.2862	0.266
Mof_C 	C 	0.8684	0.18202	0.60568	0.46
Mof_C 	C 	0.8009	0.21621	0.55235	-0.187
Mof_C 	C 	0.7022	0.23296	0.56086	0.244
Mof_C 	C 	0.6447	0.2673	0.50896	-0.082
Mof_H 	H 	0.5791	0.2789	0.5146	0.055
Mof_C 	C 	0.6819	0.28492	0.44868	-0.193
Mof_C 	C 	0.7806	0.26698	0.44034	0.258
Mof_C 	C 	0.8383	0.23262	0.49209	-0.093
Mof_H 	H 	0.9036	0.2202	0.4866	0.052
Mof_C 	C 	0.615	0.32226	0.39534	0.472
Mof_C 	C 	0.072	0.0537	0.71455	0.464
Mof_C 	C 	0.1019	0.96835	0.73154	-0.163
Mof_C 	C 	0.0532	0.908	0.77852	0.219
Mof_C 	C 	0.083	0.8302	0.79181	-0.068
Mof_H 	H 	0.0501	0.7903	0.8229	0.059
Mof_C 	C 	0.1606	0.81005	0.75996	-0.192
Mof_C 	C 	0.2099	0.8703	0.71267	0.248
Mof_C 	C 	0.1788	0.9479	0.69908	-0.093
Mof_H 	H 	0.2103	0.9877	0.6672	0.073
Mof_C 	C 	0.1894	0.7241	0.77748	0.487
Mof_C 	C 	0.9778	0.72764	0.2915	0.478
Mof_C 	C 	0.9281	0.66942	0.26936	-0.173
Mof_C 	C 	0.9473	0.6661	0.21005	0.201
Mof_C 	C 	0.896	0.6121	0.19108	-0.061
Mof_H 	H 	0.9074	0.6106	0.1514	0.043
Mof_C 	C 	0.8281	0.56062	0.23015	-0.195
Mof_C 	C 	0.8094	0.56395	0.28956	0.23
Mof_C 	C 	0.8605	0.6168	0.30837	-0.089
Mof_H 	H 	0.8498	0.6174	0.3483	0.055
Mof_C 	C 	0.7766	0.50316	0.20747	0.483
Mof_C 	C 	0.7318	0.9931	0.78908	0.487
Mof_C 	C 	0.6814	0.93499	0.76698	-0.184
Mof_C 	C 	0.6994	0.93153	0.70744	0.22
Mof_C 	C 	0.6484	0.87786	0.68916	-0.079
Mof_H 	H 	0.6599	0.8759	0.6496	0.053
Mof_C 	C 	0.5801	0.82644	0.72845	-0.18
Mof_C 	C 	0.5622	0.8294	0.78779	0.214
Mof_C 	C 	0.6138	0.8834	0.8062	-0.069
Mof_H 	H 	0.6027	0.885	0.8459	0.047
Mof_C 	C 	0.53	0.76802	0.7063	0.484
Mof_C 	C 	0.8759	0.07823	0.89518	0.467
Mof_C 	C 	0.9417	0.03841	0.94835	-0.187
Mof_C 	C 	0.0418	0.0251	0.93999	0.241
Mof_C 	C 	0.0986	0.98761	0.99125	-0.079
Mof_H 	H 	0.1652	0.9794	0.9856	0.048
Mof_C 	C 	0.6295	0.41764	0.10153	0.474
Mof_C 	C 	0.5608	0.45909	0.0499	-0.191
Mof_C 	C 	0.462	0.47428	0.06097	0.265
Mof_C 	C 	0.5969	0.48509	0.98895	-0.09
Mof_H 	H 	0.6622	0.4749	0.9815	0.063
Mof_C 	C 	0.4316	0.45745	0.27122	0.479
Mof_C 	C 	0.4018	0.54285	0.25318	-0.173
Mof_C 	C 	0.4554	0.6041	0.20973	0.217
Mof_C 	C 	0.4261	0.68189	0.19742	-0.075
Mof_H 	H 	0.4618	0.7222	0.1685	0.063
Mof_C 	C 	0.3451	0.70167	0.22692	-0.179
Mof_C 	C 	0.2907	0.6404	0.26951	0.231
Mof_C 	C 	0.3199	0.56264	0.28161	-0.083
Mof_H 	H 	0.2834	0.5223	0.3098	0.061
Mof_C 	C 	0.3184	0.78728	0.21232	0.473
_end
