data_functionalizedCrystal
_audit_creation_method	'EQeq! by Chris Wilmer'
_symmetry_space_group_name_H-M	'P1'
_symmetry_Int_Tables_number	1
_symmetry_cell_setting	triclinic
loop_
_symmetry_equiv_pos_as_xyz
  x,y,z
_cell_length_a	8.8824
_cell_length_b	61.248
_cell_length_c	33.689
_cell_angle_alpha	90
_cell_angle_beta	90
_cell_angle_gamma	90
loop_
_atom_site_label
_atom_site_type_symbol
_atom_site_fract_x
_atom_site_fract_y
_atom_site_fract_z
_atom_site_charge
Mof_Sc	Sc	0.2541	0.5833	0.42633	1.952
Mof_Sc	Sc	0.751	0.5833	0.40467	1.967
Mof_O 	O 	0.1213	0.61027	0.4385	-0.556
Mof_O 	O 	0.8797	0.60983	0.4198	-0.551
Mof_O 	O 	0.121	0.72181	0.4078	-0.592
Mof_O 	O 	0.888	0.72296	0.4271	-0.594
Mof_O 	O 	0.6162	0.734	0.4677	-0.584
Mof_O 	O 	0.3821	0.7376	0.4478	-0.621
Mof_O 	O 	0.3733	0.67253	0.627	-0.571
Mof_O 	O 	0.1359	0.67468	0.6056	-0.542
Mof_O 	O 	0.8726	0.64621	0.6186	-0.539
Mof_O 	O 	0.6385	0.6469	0.6422	-0.571
Mof_O 	O 	0.6241	0.58808	0.4541	-0.582
Mof_O 	O 	0.3881	0.59062	0.4758	-0.565
Mof_O 	O 	0.1113	0.56473	0.463	-0.569
Mof_O 	O 	0.8832	0.56232	0.4376	-0.567
Mof_O 	O 	0.8686	0.5129	0.6325	-0.61
Mof_O 	O 	0.6367	0.5122	0.6095	-0.582
Mof_O 	O 	0.617	0.55679	0.3909	-0.56
Mof_O 	O 	0.3763	0.55614	0.4114	-0.572
Mof_C 	C 	0.002	0.6196	0.428	0.505
Mof_C 	C 	0.1375	0.65481	0.4248	-0.017
Mof_H 	H 	0.2276	0.6471	0.424	0.046
Mof_C 	C 	0.1387	0.67748	0.4229	0.039
Mof_H 	H 	0.2296	0.6849	0.4209	0.024
Mof_C 	C 	0.004	0.68902	0.424	-0.208
Mof_C 	C 	0.8681	0.67789	0.427	0.052
Mof_H 	H 	0.778	0.6856	0.4278	0.023
Mof_C 	C 	0.8669	0.65522	0.4289	0.007
Mof_H 	H 	0.776	0.6478	0.4309	0.04
Mof_C 	C 	0.0016	0.64368	0.4278	-0.15
Mof_C 	C 	0.001	0.7128	0.4178	0.595
Mof_C 	C 	0.48	0.7297	0.4699	0.599
Mof_C 	C 	0.3262	0.69173	0.5674	-0.116
Mof_C 	C 	0.226	0.69828	0.538	-0.029
Mof_H 	H 	0.1253	0.6942	0.5395	0.052
Mof_C 	C 	0.2764	0.71092	0.5064	0.042
Mof_H 	H 	0.2094	0.7153	0.4868	0.022
Mof_C 	C 	0.4269	0.717	0.5042	-0.185
Mof_C 	C 	0.5271	0.71045	0.5336	0.032
Mof_H 	H 	0.6278	0.7145	0.5321	0.036
Mof_C 	C 	0.4767	0.69782	0.5652	-0.019
Mof_H 	H 	0.5437	0.6934	0.5849	0.042
Mof_C 	C 	0.273	0.6788	0.6029	0.515
Mof_C 	C 	0.736	0.6417	0.6164	0.516
Mof_C 	C 	0.4806	0.61141	0.5441	0.003
Mof_H 	H 	0.3793	0.6079	0.5411	0.043
Mof_C 	C 	0.5844	0.60494	0.5155	-0.148
Mof_C 	C 	0.7357	0.61019	0.52	0.023
Mof_H 	H 	0.8051	0.6059	0.5009	0.032
Mof_C 	C 	0.7831	0.62191	0.5531	-0.018
Mof_H 	H 	0.8844	0.6254	0.5561	0.058
Mof_C 	C 	0.6793	0.62838	0.5816	-0.123
Mof_C 	C 	0.528	0.62313	0.5771	-0.001
Mof_H 	H 	0.4586	0.6275	0.5962	0.035
Mof_C 	C 	0.522	0.594	0.4793	0.541
Mof_C 	C 	0.978	0.55897	0.4649	0.547
Mof_C 	C 	0.0263	0.54448	0.5322	-0.132
Mof_H 	H 	0.1256	0.5492	0.5304	0.087
Mof_C 	C 	0.9771	0.53366	0.566	0.158
Mof_H 	H 	0.0434	0.5312	0.5869	-0.035
Mof_C 	C 	0.8288	0.52658	0.5687	-0.221
Mof_C 	C 	0.7297	0.53033	0.5375	0.067
Mof_H 	H 	0.6304	0.5256	0.5393	0.021
Mof_C 	C 	0.7789	0.54114	0.5036	-0.05
Mof_H 	H 	0.7126	0.5436	0.4828	0.055
Mof_C 	C 	0.9273	0.54822	0.501	-0.08
Mof_C 	C 	0.774	0.5163	0.6065	0.599
Mof_C 	C 	0.496	0.54706	0.3992	0.522
Mof_C 	C 	0.4984	0.52238	0.3978	-0.132
Mof_C 	C 	0.633	0.51144	0.3966	0.002
Mof_H 	H 	0.7227	0.5192	0.3952	0.044
Mof_C 	C 	0.636	0.48896	0.3976	-0
Mof_H 	H 	0.7272	0.4815	0.3981	0.041
Mof_Sc	Sc	0.2541	0.0833	0.92633	1.95
Mof_Sc	Sc	0.751	0.0833	0.90467	1.965
Mof_O 	O 	0.1213	0.11027	0.9385	-0.557
Mof_O 	O 	0.8797	0.10983	0.9198	-0.552
Mof_O 	O 	0.121	0.22181	0.9078	-0.593
Mof_O 	O 	0.888	0.22296	0.9271	-0.596
Mof_O 	O 	0.6162	0.234	0.9677	-0.584
Mof_O 	O 	0.3821	0.2376	0.9478	-0.62
Mof_O 	O 	0.3733	0.17253	0.127	-0.571
Mof_O 	O 	0.1359	0.17468	0.1056	-0.542
Mof_O 	O 	0.8726	0.14621	0.1186	-0.539
Mof_O 	O 	0.6385	0.1469	0.1422	-0.572
Mof_O 	O 	0.6241	0.08808	0.9541	-0.581
Mof_O 	O 	0.3881	0.09062	0.9758	-0.565
Mof_O 	O 	0.1113	0.06473	0.963	-0.569
Mof_O 	O 	0.8832	0.06232	0.9376	-0.567
Mof_O 	O 	0.8686	0.0129	0.1325	-0.609
Mof_O 	O 	0.6367	0.0122	0.1095	-0.582
Mof_O 	O 	0.617	0.05679	0.8909	-0.56
Mof_O 	O 	0.3763	0.05614	0.9114	-0.572
Mof_C 	C 	0.002	0.1196	0.928	0.505
Mof_C 	C 	0.1375	0.15481	0.9248	-0.017
Mof_H 	H 	0.2276	0.1471	0.924	0.045
Mof_C 	C 	0.1387	0.17748	0.9229	0.039
Mof_H 	H 	0.2296	0.1849	0.9209	0.024
Mof_C 	C 	0.004	0.18902	0.924	-0.209
Mof_C 	C 	0.8681	0.17789	0.927	0.052
Mof_H 	H 	0.778	0.1856	0.9278	0.022
Mof_C 	C 	0.8669	0.15522	0.9289	0.006
Mof_H 	H 	0.776	0.1478	0.9309	0.039
Mof_C 	C 	0.0016	0.14368	0.9278	-0.15
Mof_C 	C 	0.001	0.2128	0.9178	0.595
Mof_C 	C 	0.48	0.2297	0.9699	0.595
Mof_C 	C 	0.3262	0.19173	0.0674	-0.112
Mof_C 	C 	0.226	0.19828	0.038	-0.036
Mof_H 	H 	0.1253	0.1942	0.0395	0.056
Mof_C 	C 	0.2764	0.21092	0.0064	0.055
Mof_H 	H 	0.2094	0.2153	0.9868	0.014
Mof_C 	C 	0.4269	0.217	0.0042	-0.184
Mof_C 	C 	0.5271	0.21045	0.0336	0.033
Mof_H 	H 	0.6278	0.2145	0.0321	0.037
Mof_C 	C 	0.4767	0.19782	0.0652	-0.021
Mof_H 	H 	0.5437	0.1934	0.0849	0.043
Mof_C 	C 	0.273	0.1788	0.1029	0.514
Mof_C 	C 	0.736	0.1417	0.1164	0.517
Mof_C 	C 	0.4806	0.11141	0.0441	-0.002
Mof_H 	H 	0.3793	0.1079	0.0411	0.046
Mof_C 	C 	0.5844	0.10494	0.0155	-0.138
Mof_C 	C 	0.7357	0.11019	0.02	0.018
Mof_H 	H 	0.8051	0.1059	0.0009	0.036
Mof_C 	C 	0.7831	0.12191	0.0531	-0.013
Mof_H 	H 	0.8844	0.1254	0.0561	0.057
Mof_C 	C 	0.6793	0.12838	0.0816	-0.125
Mof_C 	C 	0.528	0.12313	0.0771	0.003
Mof_H 	H 	0.4586	0.1275	0.0962	0.033
Mof_C 	C 	0.522	0.094	0.9793	0.533
Mof_C 	C 	0.978	0.05897	0.9649	0.543
Mof_C 	C 	0.0263	0.04448	0.0322	-0.131
Mof_H 	H 	0.1256	0.0492	0.0304	0.087
Mof_C 	C 	0.9771	0.03366	0.066	0.156
Mof_H 	H 	0.0434	0.0312	0.0869	-0.034
Mof_C 	C 	0.8288	0.02658	0.0687	-0.218
Mof_C 	C 	0.7297	0.03033	0.0375	0.061
Mof_H 	H 	0.6304	0.0256	0.0393	0.025
Mof_C 	C 	0.7789	0.04114	0.0036	-0.037
Mof_H 	H 	0.7126	0.0436	0.9828	0.046
Mof_C 	C 	0.9273	0.04822	0.001	-0.079
Mof_C 	C 	0.774	0.0163	0.1065	0.598
Mof_C 	C 	0.496	0.04706	0.8992	0.521
Mof_C 	C 	0.4984	0.02238	0.8978	-0.132
Mof_C 	C 	0.633	0.01144	0.8966	0.001
Mof_H 	H 	0.7227	0.0192	0.8952	0.044
Mof_C 	C 	0.636	0.98896	0.8976	0.001
Mof_H 	H 	0.7272	0.9815	0.8981	0.041
Mof_Sc	Sc	0.7541	0.5833	0.92633	1.959
Mof_Sc	Sc	0.251	0.5833	0.90467	1.963
Mof_O 	O 	0.6213	0.61027	0.9385	-0.559
Mof_O 	O 	0.3797	0.60983	0.9198	-0.572
Mof_O 	O 	0.621	0.72181	0.9078	-0.596
Mof_O 	O 	0.388	0.72296	0.9271	-0.613
Mof_O 	O 	0.1162	0.734	0.9677	-0.589
Mof_O 	O 	0.8821	0.7376	0.9478	-0.618
Mof_O 	O 	0.8733	0.67253	0.127	-0.561
Mof_O 	O 	0.6359	0.67468	0.1056	-0.544
Mof_O 	O 	0.3726	0.64621	0.1186	-0.548
Mof_O 	O 	0.1385	0.6469	0.1422	-0.568
Mof_O 	O 	0.1241	0.58808	0.9541	-0.584
Mof_O 	O 	0.8881	0.59062	0.9758	-0.551
Mof_O 	O 	0.6113	0.56473	0.963	-0.557
Mof_O 	O 	0.3832	0.56232	0.9376	-0.573
Mof_O 	O 	0.3686	0.5129	0.1325	-0.616
Mof_O 	O 	0.1367	0.5122	0.1095	-0.577
Mof_O 	O 	0.117	0.55679	0.8909	-0.575
Mof_O 	O 	0.8763	0.55614	0.9114	-0.572
Mof_C 	C 	0.502	0.6196	0.928	0.527
Mof_C 	C 	0.6375	0.65481	0.9248	-0.02
Mof_H 	H 	0.7276	0.6471	0.924	0.048
Mof_C 	C 	0.6387	0.67748	0.9229	0.039
Mof_H 	H 	0.7296	0.6849	0.9209	0.025
Mof_C 	C 	0.504	0.68902	0.924	-0.193
Mof_C 	C 	0.3681	0.67789	0.927	0.035
Mof_H 	H 	0.278	0.6856	0.9278	0.024
Mof_C 	C 	0.3669	0.65522	0.9289	-0.017
Mof_H 	H 	0.276	0.6478	0.9309	0.042
Mof_C 	C 	0.5016	0.64368	0.9278	-0.13
Mof_C 	C 	0.501	0.7128	0.9178	0.613
Mof_C 	C 	0.98	0.7297	0.9699	0.589
Mof_C 	C 	0.8262	0.69173	0.0674	-0.15
Mof_C 	C 	0.726	0.69828	0.038	0.002
Mof_H 	H 	0.6253	0.6942	0.0395	0.047
Mof_C 	C 	0.7764	0.71092	0.0064	0.018
Mof_H 	H 	0.7094	0.7153	0.9868	0.028
Mof_C 	C 	0.9269	0.717	0.0042	-0.137
Mof_C 	C 	0.0271	0.71045	0.0336	-0.048
Mof_H 	H 	0.1278	0.7145	0.0321	0.062
Mof_C 	C 	0.9767	0.69782	0.0652	0.067
Mof_H 	H 	0.0437	0.6934	0.0849	0.004
Mof_C 	C 	0.773	0.6788	0.1029	0.527
Mof_C 	C 	0.236	0.6417	0.1164	0.494
Mof_C 	C 	0.9806	0.61141	0.0441	0.127
Mof_H 	H 	0.8793	0.6079	0.0411	0.007
Mof_C 	C 	0.0844	0.60494	0.0155	-0.212
Mof_C 	C 	0.2357	0.61019	0.02	0.076
Mof_H 	H 	0.3051	0.6059	0.0009	0.012
Mof_C 	C 	0.2831	0.62191	0.0531	-0.074
Mof_H 	H 	0.3844	0.6254	0.0561	0.072
Mof_C 	C 	0.1793	0.62838	0.0816	-0.064
Mof_C 	C 	0.028	0.62313	0.0771	-0.134
Mof_H 	H 	0.9586	0.6275	0.0962	0.093
Mof_C 	C 	0.022	0.594	0.9793	0.532
Mof_C 	C 	0.478	0.55897	0.9649	0.546
Mof_C 	C 	0.5263	0.54448	0.0322	0.007
Mof_H 	H 	0.6256	0.5492	0.0304	0.045
Mof_C 	C 	0.4771	0.53366	0.066	0.012
Mof_H 	H 	0.5434	0.5312	0.0869	0.029
Mof_C 	C 	0.3288	0.52658	0.0687	-0.151
Mof_C 	C 	0.2297	0.53033	0.0375	-0.006
Mof_H 	H 	0.1304	0.5256	0.0393	0.043
Mof_C 	C 	0.2789	0.54114	0.0036	0.028
Mof_H 	H 	0.2126	0.5436	0.9828	0.021
Mof_C 	C 	0.4273	0.54822	0.001	-0.16
Mof_C 	C 	0.274	0.5163	0.1065	0.573
Mof_C 	C 	0.996	0.54706	0.8992	0.53
Mof_C 	C 	0.9984	0.52238	0.8978	-0.081
Mof_C 	C 	0.133	0.51144	0.8966	-0.064
Mof_H 	H 	0.2227	0.5192	0.8952	0.062
Mof_C 	C 	0.136	0.48896	0.8976	0.048
Mof_H 	H 	0.2272	0.4815	0.8981	0.022
Mof_Sc	Sc	0.7541	0.0833	0.42633	1.96
Mof_Sc	Sc	0.251	0.0833	0.40467	1.965
Mof_O 	O 	0.6213	0.11027	0.4385	-0.558
Mof_O 	O 	0.3797	0.10983	0.4198	-0.572
Mof_O 	O 	0.621	0.22181	0.4078	-0.596
Mof_O 	O 	0.388	0.22296	0.4271	-0.612
Mof_O 	O 	0.1162	0.234	0.4677	-0.588
Mof_O 	O 	0.8821	0.2376	0.4478	-0.618
Mof_O 	O 	0.8733	0.17253	0.627	-0.562
Mof_O 	O 	0.6359	0.17468	0.6056	-0.544
Mof_O 	O 	0.3726	0.14621	0.6186	-0.548
Mof_O 	O 	0.1385	0.1469	0.6422	-0.568
Mof_O 	O 	0.1241	0.08808	0.4541	-0.585
Mof_O 	O 	0.8881	0.09062	0.4758	-0.552
Mof_O 	O 	0.6113	0.06473	0.463	-0.556
Mof_O 	O 	0.3832	0.06232	0.4376	-0.573
Mof_O 	O 	0.3686	0.0129	0.6325	-0.617
Mof_O 	O 	0.1367	0.0122	0.6095	-0.577
Mof_O 	O 	0.117	0.05679	0.3909	-0.575
Mof_O 	O 	0.8763	0.05614	0.4114	-0.572
Mof_C 	C 	0.502	0.1196	0.428	0.527
Mof_C 	C 	0.6375	0.15481	0.4248	-0.02
Mof_H 	H 	0.7276	0.1471	0.424	0.048
Mof_C 	C 	0.6387	0.17748	0.4229	0.04
Mof_H 	H 	0.7296	0.1849	0.4209	0.025
Mof_C 	C 	0.504	0.18902	0.424	-0.193
Mof_C 	C 	0.3681	0.17789	0.427	0.036
Mof_H 	H 	0.278	0.1856	0.4278	0.024
Mof_C 	C 	0.3669	0.15522	0.4289	-0.017
Mof_H 	H 	0.276	0.1478	0.4309	0.043
Mof_C 	C 	0.5016	0.14368	0.4278	-0.13
Mof_C 	C 	0.501	0.2128	0.4178	0.613
Mof_C 	C 	0.98	0.2297	0.4699	0.593
Mof_C 	C 	0.8262	0.19173	0.5674	-0.153
Mof_C 	C 	0.726	0.19828	0.538	0.009
Mof_H 	H 	0.6253	0.1942	0.5395	0.043
Mof_C 	C 	0.7764	0.21092	0.5064	0.005
Mof_H 	H 	0.7094	0.2153	0.4868	0.036
Mof_C 	C 	0.9269	0.217	0.5042	-0.138
Mof_C 	C 	0.0271	0.21045	0.5336	-0.049
Mof_H 	H 	0.1278	0.2145	0.5321	0.061
Mof_C 	C 	0.9767	0.19782	0.5652	0.068
Mof_H 	H 	0.0437	0.1934	0.5849	0.003
Mof_C 	C 	0.773	0.1788	0.6029	0.528
Mof_C 	C 	0.236	0.1417	0.6164	0.493
Mof_C 	C 	0.9806	0.11141	0.5441	0.132
Mof_H 	H 	0.8793	0.1079	0.5411	0.004
Mof_C 	C 	0.0844	0.10494	0.5155	-0.221
Mof_C 	C 	0.2357	0.11019	0.52	0.081
Mof_H 	H 	0.3051	0.1059	0.5009	0.008
Mof_C 	C 	0.2831	0.12191	0.5531	-0.079
Mof_H 	H 	0.3844	0.1254	0.5561	0.073
Mof_C 	C 	0.1793	0.12838	0.5816	-0.061
Mof_C 	C 	0.028	0.12313	0.5771	-0.137
Mof_H 	H 	0.9586	0.1275	0.5962	0.094
Mof_C 	C 	0.022	0.094	0.4793	0.539
Mof_C 	C 	0.478	0.05897	0.4649	0.55
Mof_C 	C 	0.5263	0.04448	0.5322	0.006
Mof_H 	H 	0.6256	0.0492	0.5304	0.044
Mof_C 	C 	0.4771	0.03366	0.566	0.013
Mof_H 	H 	0.5434	0.0312	0.5869	0.028
Mof_C 	C 	0.3288	0.02658	0.5687	-0.155
Mof_C 	C 	0.2297	0.03033	0.5375	0.001
Mof_H 	H 	0.1304	0.0256	0.5393	0.04
Mof_C 	C 	0.2789	0.04114	0.5036	0.016
Mof_H 	H 	0.2126	0.0436	0.4828	0.029
Mof_C 	C 	0.4273	0.04822	0.501	-0.161
Mof_C 	C 	0.274	0.0163	0.6065	0.574
Mof_C 	C 	0.996	0.04706	0.3992	0.53
Mof_C 	C 	0.9984	0.02238	0.3978	-0.079
Mof_C 	C 	0.133	0.01144	0.3966	-0.065
Mof_H 	H 	0.2227	0.0192	0.3952	0.062
Mof_C 	C 	0.136	0.98896	0.3976	0.05
Mof_H 	H 	0.2272	0.9815	0.3981	0.022
Mof_Sc	Sc	0.7459	0.4167	0.42633	1.958
Mof_Sc	Sc	0.249	0.4167	0.40467	1.966
Mof_O 	O 	0.8787	0.38973	0.4385	-0.559
Mof_O 	O 	0.1203	0.39017	0.4198	-0.576
Mof_O 	O 	0.879	0.27819	0.4078	-0.596
Mof_O 	O 	0.112	0.27704	0.4271	-0.616
Mof_O 	O 	0.3838	0.266	0.4677	-0.585
Mof_O 	O 	0.6179	0.2624	0.4478	-0.622
Mof_O 	O 	0.6267	0.32747	0.627	-0.572
Mof_O 	O 	0.8641	0.32532	0.6056	-0.542
Mof_O 	O 	0.1274	0.35379	0.6186	-0.56
Mof_O 	O 	0.3615	0.3531	0.6422	-0.576
Mof_O 	O 	0.3759	0.41192	0.4541	-0.581
Mof_O 	O 	0.6119	0.40938	0.4758	-0.563
Mof_O 	O 	0.8887	0.43527	0.463	-0.553
Mof_O 	O 	0.1168	0.43768	0.4376	-0.577
Mof_O 	O 	0.1314	0.4871	0.6325	-0.611
Mof_O 	O 	0.3633	0.4878	0.6095	-0.571
Mof_O 	O 	0.383	0.44321	0.3909	-0.561
Mof_O 	O 	0.6237	0.44386	0.4114	-0.573
Mof_C 	C 	0.998	0.3804	0.428	0.533
Mof_C 	C 	0.8625	0.34519	0.4248	-0.02
Mof_H 	H 	0.7724	0.3529	0.424	0.047
Mof_C 	C 	0.8613	0.32252	0.4229	0.04
Mof_H 	H 	0.7704	0.3151	0.4209	0.024
Mof_C 	C 	0.996	0.31098	0.424	-0.191
Mof_C 	C 	0.1319	0.32211	0.427	0.034
Mof_H 	H 	0.222	0.3144	0.4278	0.026
Mof_C 	C 	0.1331	0.34478	0.4289	-0.02
Mof_H 	H 	0.224	0.3522	0.4309	0.045
Mof_C 	C 	0.9984	0.35632	0.4278	-0.127
Mof_C 	C 	0.999	0.2872	0.4178	0.618
Mof_C 	C 	0.52	0.2703	0.4699	0.6
Mof_C 	C 	0.6738	0.30827	0.5674	-0.113
Mof_C 	C 	0.774	0.30172	0.538	-0.031
Mof_H 	H 	0.8747	0.3058	0.5395	0.058
Mof_C 	C 	0.7236	0.28908	0.5064	0.045
Mof_H 	H 	0.7906	0.2847	0.4868	0.023
Mof_C 	C 	0.5731	0.283	0.5042	-0.187
Mof_C 	C 	0.4729	0.28955	0.5336	0.034
Mof_H 	H 	0.3722	0.2855	0.5321	0.033
Mof_C 	C 	0.5233	0.30218	0.5652	-0.021
Mof_H 	H 	0.4563	0.3066	0.5849	0.042
Mof_C 	C 	0.727	0.3212	0.6029	0.517
Mof_C 	C 	0.264	0.3583	0.6164	0.522
Mof_C 	C 	0.5194	0.38859	0.5441	-0.001
Mof_H 	H 	0.6207	0.3921	0.5411	0.047
Mof_C 	C 	0.4156	0.39506	0.5155	-0.145
Mof_C 	C 	0.2643	0.38981	0.52	0.018
Mof_H 	H 	0.1949	0.3941	0.5009	0.029
Mof_C 	C 	0.2169	0.37809	0.5531	-0.014
Mof_H 	H 	0.1156	0.3746	0.5561	0.049
Mof_C 	C 	0.3207	0.37162	0.5816	-0.13
Mof_C 	C 	0.472	0.37687	0.5771	0.004
Mof_H 	H 	0.5414	0.3725	0.5962	0.033
Mof_C 	C 	0.478	0.406	0.4793	0.539
Mof_C 	C 	0.022	0.44103	0.4649	0.559
Mof_C 	C 	0.9737	0.45552	0.5322	0.099
Mof_H 	H 	0.8744	0.4508	0.5304	0.012
Mof_C 	C 	0.0229	0.46634	0.566	-0.087
Mof_H 	H 	0.9566	0.4688	0.5869	0.071
Mof_C 	C 	0.1712	0.47342	0.5687	-0.105
Mof_C 	C 	0.2703	0.46967	0.5375	-0.046
Mof_H 	H 	0.3696	0.4744	0.5393	0.06
Mof_C 	C 	0.2211	0.45886	0.5036	0.063
Mof_H 	H 	0.2874	0.4564	0.4828	0.016
Mof_C 	C 	0.0727	0.45178	0.501	-0.217
Mof_C 	C 	0.226	0.4837	0.6065	0.555
Mof_C 	C 	0.504	0.45294	0.3992	0.522
Mof_C 	C 	0.5016	0.47762	0.3978	-0.132
Mof_C 	C 	0.367	0.48856	0.3966	0.002
Mof_H 	H 	0.2773	0.4808	0.3952	0.04
Mof_C 	C 	0.364	0.51104	0.3976	-0
Mof_H 	H 	0.2728	0.5185	0.3981	0.037
Mof_Sc	Sc	0.7459	0.9167	0.92633	1.956
Mof_Sc	Sc	0.249	0.9167	0.90467	1.965
Mof_O 	O 	0.8787	0.88973	0.9385	-0.56
Mof_O 	O 	0.1203	0.89017	0.9198	-0.577
Mof_O 	O 	0.879	0.77819	0.9078	-0.596
Mof_O 	O 	0.112	0.77704	0.9271	-0.617
Mof_O 	O 	0.3838	0.766	0.9677	-0.586
Mof_O 	O 	0.6179	0.7624	0.9478	-0.622
Mof_O 	O 	0.6267	0.82747	0.127	-0.572
Mof_O 	O 	0.8641	0.82532	0.1056	-0.541
Mof_O 	O 	0.1274	0.85379	0.1186	-0.56
Mof_O 	O 	0.3615	0.8531	0.1422	-0.576
Mof_O 	O 	0.3759	0.91192	0.9541	-0.58
Mof_O 	O 	0.6119	0.90938	0.9758	-0.563
Mof_O 	O 	0.8887	0.93527	0.963	-0.553
Mof_O 	O 	0.1168	0.93768	0.9376	-0.577
Mof_O 	O 	0.1314	0.9871	0.1325	-0.61
Mof_O 	O 	0.3633	0.9878	0.1095	-0.571
Mof_O 	O 	0.383	0.94321	0.8909	-0.561
Mof_O 	O 	0.6237	0.94386	0.9114	-0.573
Mof_C 	C 	0.998	0.8804	0.928	0.533
Mof_C 	C 	0.8625	0.84519	0.9248	-0.02
Mof_H 	H 	0.7724	0.8529	0.924	0.047
Mof_C 	C 	0.8613	0.82252	0.9229	0.04
Mof_H 	H 	0.7704	0.8151	0.9209	0.023
Mof_C 	C 	0.996	0.81098	0.924	-0.192
Mof_C 	C 	0.1319	0.82211	0.927	0.033
Mof_H 	H 	0.222	0.8144	0.9278	0.026
Mof_C 	C 	0.1331	0.84478	0.9289	-0.02
Mof_H 	H 	0.224	0.8522	0.9309	0.045
Mof_C 	C 	0.9984	0.85632	0.9278	-0.128
Mof_C 	C 	0.999	0.7872	0.9178	0.618
Mof_C 	C 	0.52	0.7703	0.9699	0.596
Mof_C 	C 	0.6738	0.80827	0.0674	-0.109
Mof_C 	C 	0.774	0.80172	0.038	-0.038
Mof_H 	H 	0.8747	0.8058	0.0395	0.061
Mof_C 	C 	0.7236	0.78908	0.0064	0.058
Mof_H 	H 	0.7906	0.7847	0.9868	0.015
Mof_C 	C 	0.5731	0.783	0.0042	-0.186
Mof_C 	C 	0.4729	0.78955	0.0336	0.035
Mof_H 	H 	0.3722	0.7855	0.0321	0.034
Mof_C 	C 	0.5233	0.80218	0.0652	-0.023
Mof_H 	H 	0.4563	0.8066	0.0849	0.043
Mof_C 	C 	0.727	0.8212	0.1029	0.516
Mof_C 	C 	0.264	0.8583	0.1164	0.523
Mof_C 	C 	0.5194	0.88859	0.0441	-0.007
Mof_H 	H 	0.6207	0.8921	0.0411	0.05
Mof_C 	C 	0.4156	0.89506	0.0155	-0.135
Mof_C 	C 	0.2643	0.88981	0.02	0.012
Mof_H 	H 	0.1949	0.8941	0.0009	0.033
Mof_C 	C 	0.2169	0.87809	0.0531	-0.009
Mof_H 	H 	0.1156	0.8746	0.0561	0.048
Mof_C 	C 	0.3207	0.87162	0.0816	-0.133
Mof_C 	C 	0.472	0.87687	0.0771	0.008
Mof_H 	H 	0.5414	0.8725	0.0962	0.032
Mof_C 	C 	0.478	0.906	0.9793	0.532
Mof_C 	C 	0.022	0.94103	0.9649	0.554
Mof_C 	C 	0.9737	0.95552	0.0322	0.101
Mof_H 	H 	0.8744	0.9508	0.0304	0.013
Mof_C 	C 	0.0229	0.96634	0.066	-0.089
Mof_H 	H 	0.9566	0.9688	0.0869	0.072
Mof_C 	C 	0.1712	0.97342	0.0687	-0.101
Mof_C 	C 	0.2703	0.96967	0.0375	-0.053
Mof_H 	H 	0.3696	0.9744	0.0393	0.064
Mof_C 	C 	0.2211	0.95886	0.0036	0.076
Mof_H 	H 	0.2874	0.9564	0.9828	0.008
Mof_C 	C 	0.0727	0.95178	0.001	-0.216
Mof_C 	C 	0.226	0.9837	0.1065	0.554
Mof_C 	C 	0.504	0.95294	0.8992	0.522
Mof_C 	C 	0.5016	0.97762	0.8978	-0.133
Mof_C 	C 	0.367	0.98856	0.8966	0.003
Mof_H 	H 	0.2773	0.9808	0.8952	0.04
Mof_C 	C 	0.364	0.01104	0.8976	-0.002
Mof_H 	H 	0.2728	0.0185	0.8981	0.037
Mof_Sc	Sc	0.2459	0.4167	0.92633	1.953
Mof_Sc	Sc	0.749	0.4167	0.90467	1.966
Mof_O 	O 	0.3787	0.38973	0.9385	-0.559
Mof_O 	O 	0.6203	0.39017	0.9198	-0.572
Mof_O 	O 	0.379	0.27819	0.9078	-0.595
Mof_O 	O 	0.612	0.27704	0.9271	-0.612
Mof_O 	O 	0.8838	0.266	0.9677	-0.577
Mof_O 	O 	0.1179	0.2624	0.9478	-0.623
Mof_O 	O 	0.1267	0.32747	0.127	-0.573
Mof_O 	O 	0.3641	0.32532	0.1056	-0.539
Mof_O 	O 	0.6274	0.35379	0.1186	-0.558
Mof_O 	O 	0.8615	0.3531	0.1422	-0.577
Mof_O 	O 	0.8759	0.41192	0.9541	-0.579
Mof_O 	O 	0.1119	0.40938	0.9758	-0.571
Mof_O 	O 	0.3887	0.43527	0.963	-0.558
Mof_O 	O 	0.6168	0.43768	0.9376	-0.572
Mof_O 	O 	0.6314	0.4871	0.1325	-0.614
Mof_O 	O 	0.8633	0.4878	0.1095	-0.562
Mof_O 	O 	0.883	0.44321	0.8909	-0.551
Mof_O 	O 	0.1237	0.44386	0.9114	-0.575
Mof_C 	C 	0.498	0.3804	0.928	0.527
Mof_C 	C 	0.3625	0.34519	0.9248	-0.02
Mof_H 	H 	0.2724	0.3529	0.924	0.046
Mof_C 	C 	0.3613	0.32252	0.9229	0.039
Mof_H 	H 	0.2704	0.3151	0.9209	0.023
Mof_C 	C 	0.496	0.31098	0.924	-0.193
Mof_C 	C 	0.6319	0.32211	0.927	0.036
Mof_H 	H 	0.722	0.3144	0.9278	0.027
Mof_C 	C 	0.6331	0.34478	0.9289	-0.017
Mof_H 	H 	0.724	0.3522	0.9309	0.045
Mof_C 	C 	0.4984	0.35632	0.9278	-0.13
Mof_C 	C 	0.499	0.2872	0.9178	0.613
Mof_C 	C 	0.02	0.2703	0.9699	0.593
Mof_C 	C 	0.1738	0.30827	0.0674	-0.08
Mof_C 	C 	0.274	0.30172	0.038	-0.067
Mof_H 	H 	0.3747	0.3058	0.0395	0.07
Mof_C 	C 	0.2236	0.28908	0.0064	0.086
Mof_H 	H 	0.2906	0.2847	0.9868	0.005
Mof_C 	C 	0.0731	0.283	0.0042	-0.222
Mof_C 	C 	0.9729	0.28955	0.0336	0.097
Mof_H 	H 	0.8722	0.2855	0.0321	0.015
Mof_C 	C 	0.0233	0.30218	0.0652	-0.087
Mof_H 	H 	0.9563	0.3066	0.0849	0.07
Mof_C 	C 	0.227	0.3212	0.1029	0.505
Mof_C 	C 	0.764	0.3583	0.1164	0.533
Mof_C 	C 	0.0194	0.38859	0.0441	-0.065
Mof_H 	H 	0.1207	0.3921	0.0411	0.068
Mof_C 	C 	0.9156	0.39506	0.0155	-0.102
Mof_C 	C 	0.7643	0.38981	0.02	-0.014
Mof_H 	H 	0.6949	0.3941	0.0009	0.043
Mof_C 	C 	0.7169	0.37809	0.0531	0.018
Mof_H 	H 	0.6156	0.3746	0.0561	0.04
Mof_C 	C 	0.8207	0.37162	0.0816	-0.161
Mof_C 	C 	0.972	0.37687	0.0771	0.07
Mof_H 	H 	0.0414	0.3725	0.0962	0.006
Mof_C 	C 	0.978	0.406	0.9793	0.536
Mof_C 	C 	0.522	0.44103	0.9649	0.546
Mof_C 	C 	0.4737	0.45552	0.0322	0.01
Mof_H 	H 	0.3744	0.4508	0.0304	0.041
Mof_C 	C 	0.5229	0.46634	0.066	0.007
Mof_H 	H 	0.4566	0.4688	0.0869	0.029
Mof_C 	C 	0.6712	0.47342	0.0687	-0.145
Mof_C 	C 	0.7703	0.46967	0.0375	-0.009
Mof_H 	H 	0.8696	0.4744	0.0393	0.053
Mof_C 	C 	0.7211	0.45886	0.0036	0.033
Mof_H 	H 	0.7874	0.4564	0.9828	0.025
Mof_C 	C 	0.5727	0.45178	0.001	-0.162
Mof_C 	C 	0.726	0.4837	0.1065	0.57
Mof_C 	C 	0.004	0.45294	0.8992	0.521
Mof_C 	C 	0.0016	0.47762	0.8978	-0.184
Mof_C 	C 	0.867	0.48856	0.8966	0.066
Mof_H 	H 	0.7773	0.4808	0.8952	0.021
Mof_C 	C 	0.864	0.51104	0.8976	-0.049
Mof_H 	H 	0.7728	0.5185	0.8981	0.056
Mof_Sc	Sc	0.2459	0.9167	0.42633	1.954
Mof_Sc	Sc	0.749	0.9167	0.40467	1.968
Mof_O 	O 	0.3787	0.88973	0.4385	-0.559
Mof_O 	O 	0.6203	0.89017	0.4198	-0.572
Mof_O 	O 	0.379	0.77819	0.4078	-0.595
Mof_O 	O 	0.612	0.77704	0.4271	-0.611
Mof_O 	O 	0.8838	0.766	0.4677	-0.576
Mof_O 	O 	0.1179	0.7624	0.4478	-0.623
Mof_O 	O 	0.1267	0.82747	0.627	-0.574
Mof_O 	O 	0.3641	0.82532	0.6056	-0.54
Mof_O 	O 	0.6274	0.85379	0.6186	-0.558
Mof_O 	O 	0.8615	0.8531	0.6422	-0.577
Mof_O 	O 	0.8759	0.91192	0.4541	-0.58
Mof_O 	O 	0.1119	0.90938	0.4758	-0.572
Mof_O 	O 	0.3887	0.93527	0.463	-0.557
Mof_O 	O 	0.6168	0.93768	0.4376	-0.573
Mof_O 	O 	0.6314	0.9871	0.6325	-0.614
Mof_O 	O 	0.8633	0.9878	0.6095	-0.562
Mof_O 	O 	0.883	0.94321	0.3909	-0.551
Mof_O 	O 	0.1237	0.94386	0.4114	-0.575
Mof_C 	C 	0.498	0.8804	0.428	0.528
Mof_C 	C 	0.3625	0.84519	0.4248	-0.02
Mof_H 	H 	0.2724	0.8529	0.424	0.046
Mof_C 	C 	0.3613	0.82252	0.4229	0.039
Mof_H 	H 	0.2704	0.8151	0.4209	0.023
Mof_C 	C 	0.496	0.81098	0.424	-0.192
Mof_C 	C 	0.6319	0.82211	0.427	0.036
Mof_H 	H 	0.722	0.8144	0.4278	0.027
Mof_C 	C 	0.6331	0.84478	0.4289	-0.016
Mof_H 	H 	0.724	0.8522	0.4309	0.046
Mof_C 	C 	0.4984	0.85632	0.4278	-0.129
Mof_C 	C 	0.499	0.7872	0.4178	0.613
Mof_C 	C 	0.02	0.7703	0.4699	0.597
Mof_C 	C 	0.1738	0.80827	0.5674	-0.083
Mof_C 	C 	0.274	0.80172	0.538	-0.06
Mof_H 	H 	0.3747	0.8058	0.5395	0.067
Mof_C 	C 	0.2236	0.78908	0.5064	0.074
Mof_H 	H 	0.2906	0.7847	0.4868	0.013
Mof_C 	C 	0.0731	0.783	0.5042	-0.223
Mof_C 	C 	0.9729	0.78955	0.5336	0.096
Mof_H 	H 	0.8722	0.7855	0.5321	0.014
Mof_C 	C 	0.0233	0.80218	0.5652	-0.085
Mof_H 	H 	0.9563	0.8066	0.5849	0.069
Mof_C 	C 	0.227	0.8212	0.6029	0.506
Mof_C 	C 	0.764	0.8583	0.6164	0.532
Mof_C 	C 	0.0194	0.88859	0.5441	-0.06
Mof_H 	H 	0.1207	0.8921	0.5411	0.065
Mof_C 	C 	0.9156	0.89506	0.5155	-0.111
Mof_C 	C 	0.7643	0.88981	0.52	-0.008
Mof_H 	H 	0.6949	0.8941	0.5009	0.039
Mof_C 	C 	0.7169	0.87809	0.5531	0.014
Mof_H 	H 	0.6156	0.8746	0.5561	0.041
Mof_C 	C 	0.8207	0.87162	0.5816	-0.158
Mof_C 	C 	0.972	0.87687	0.5771	0.066
Mof_H 	H 	0.0414	0.8725	0.5962	0.007
Mof_C 	C 	0.978	0.906	0.4793	0.544
Mof_C 	C 	0.522	0.94103	0.4649	0.551
Mof_C 	C 	0.4737	0.95552	0.5322	0.009
Mof_H 	H 	0.3744	0.9508	0.5304	0.04
Mof_C 	C 	0.5229	0.96634	0.566	0.009
Mof_H 	H 	0.4566	0.9688	0.5869	0.028
Mof_C 	C 	0.6712	0.97342	0.5687	-0.148
Mof_C 	C 	0.7703	0.96967	0.5375	-0.002
Mof_H 	H 	0.8696	0.9744	0.5393	0.049
Mof_C 	C 	0.7211	0.95886	0.5036	0.02
Mof_H 	H 	0.7874	0.9564	0.4828	0.033
Mof_C 	C 	0.5727	0.95178	0.501	-0.163
Mof_C 	C 	0.726	0.9837	0.6065	0.571
Mof_C 	C 	0.004	0.95294	0.3992	0.521
Mof_C 	C 	0.0016	0.97762	0.3978	-0.185
Mof_C 	C 	0.867	0.98856	0.3966	0.067
Mof_H 	H 	0.7773	0.9808	0.3952	0.021
Mof_C 	C 	0.864	0.01104	0.3976	-0.05
Mof_H 	H 	0.7728	0.0185	0.3981	0.057
Mof_Sc	Sc	0.5041	0.6667	0.67633	1.955
Mof_Sc	Sc	0.001	0.6667	0.65467	1.923
Mof_O 	O 	0.3713	0.63973	0.6885	-0.557
Mof_O 	O 	0.1297	0.64017	0.6698	-0.57
Mof_O 	O 	0.371	0.52819	0.6578	-0.594
Mof_O 	O 	0.138	0.52704	0.6771	-0.61
Mof_O 	O 	0.8662	0.516	0.7177	-0.569
Mof_O 	O 	0.6321	0.5124	0.6978	-0.618
Mof_O 	O 	0.6233	0.57747	0.877	-0.572
Mof_O 	O 	0.3859	0.57532	0.8556	-0.543
Mof_O 	O 	0.1226	0.60379	0.8686	-0.567
Mof_O 	O 	0.8885	0.6031	0.8922	-0.571
Mof_O 	O 	0.8741	0.66192	0.7041	-0.572
Mof_O 	O 	0.6381	0.65938	0.7258	-0.568
Mof_O 	O 	0.3613	0.68527	0.713	-0.551
Mof_O 	O 	0.1332	0.68768	0.6876	-0.567
Mof_O 	O 	0.1186	0.7371	0.8825	-0.621
Mof_O 	O 	0.8867	0.7378	0.8595	-0.574
Mof_O 	O 	0.867	0.69321	0.6409	-0.547
Mof_O 	O 	0.6263	0.69386	0.6614	-0.571
Mof_C 	C 	0.252	0.6304	0.678	0.526
Mof_C 	C 	0.3875	0.59519	0.6748	-0.02
Mof_H 	H 	0.4776	0.6029	0.674	0.048
Mof_C 	C 	0.3887	0.57252	0.6729	0.039
Mof_H 	H 	0.4796	0.5651	0.6709	0.025
Mof_C 	C 	0.254	0.56098	0.674	-0.193
Mof_C 	C 	0.1181	0.57211	0.677	0.034
Mof_H 	H 	0.028	0.5644	0.6778	0.021
Mof_C 	C 	0.1169	0.59478	0.6789	-0.018
Mof_H 	H 	0.026	0.6022	0.6809	0.039
Mof_C 	C 	0.2516	0.60632	0.6778	-0.13
Mof_C 	C 	0.251	0.5372	0.6678	0.611
Mof_C 	C 	0.73	0.5203	0.7199	0.595
Mof_C 	C 	0.5762	0.55827	0.8174	-0.116
Mof_C 	C 	0.476	0.55172	0.788	-0.027
Mof_H 	H 	0.3753	0.5558	0.7895	0.054
Mof_C 	C 	0.5264	0.53908	0.7564	0.04
Mof_H 	H 	0.4594	0.5347	0.7368	0.024
Mof_C 	C 	0.6769	0.533	0.7542	-0.181
Mof_C 	C 	0.7771	0.53955	0.7836	0.03
Mof_H 	H 	0.8778	0.5355	0.7821	0.04
Mof_C 	C 	0.7267	0.55218	0.8152	-0.017
Mof_H 	H 	0.7937	0.5566	0.8349	0.042
Mof_C 	C 	0.523	0.5712	0.8529	0.517
Mof_C 	C 	0.986	0.6083	0.8664	0.521
Mof_C 	C 	0.7306	0.63859	0.7941	0.058
Mof_H 	H 	0.6293	0.6421	0.7911	0.026
Mof_C 	C 	0.8344	0.64506	0.7655	-0.205
Mof_C 	C 	0.9857	0.63981	0.77	0.149
Mof_H 	H 	0.0551	0.6441	0.7509	-0.026
Mof_C 	C 	0.0331	0.62809	0.8031	-0.137
Mof_H 	H 	0.1344	0.6246	0.8061	0.09
Mof_C 	C 	0.9293	0.62162	0.8316	-0.058
Mof_C 	C 	0.778	0.62687	0.8271	-0.054
Mof_H 	H 	0.7086	0.6225	0.8462	0.053
Mof_C 	C 	0.772	0.656	0.7293	0.56
Mof_C 	C 	0.228	0.69103	0.7149	0.53
Mof_C 	C 	0.2763	0.70552	0.7822	-0.036
Mof_H 	H 	0.3756	0.7008	0.7804	0.057
Mof_C 	C 	0.2271	0.71634	0.816	0.053
Mof_H 	H 	0.2934	0.7188	0.8369	0.013
Mof_C 	C 	0.0788	0.72342	0.8187	-0.202
Mof_C 	C 	0.9797	0.71967	0.7875	0.083
Mof_H 	H 	0.8804	0.7244	0.7893	0.017
Mof_C 	C 	0.0289	0.70886	0.7536	-0.073
Mof_H 	H 	0.9626	0.7064	0.7328	0.072
Mof_C 	C 	0.1773	0.70178	0.751	-0.116
Mof_C 	C 	0.024	0.7337	0.8565	0.583
Mof_C 	C 	0.746	0.70294	0.6492	0.517
Mof_C 	C 	0.7484	0.72762	0.6478	-0.128
Mof_C 	C 	0.883	0.73856	0.6466	-0.001
Mof_H 	H 	0.9727	0.7308	0.6452	0.047
Mof_C 	C 	0.886	0.76104	0.6476	0.003
Mof_H 	H 	0.9772	0.7685	0.6481	0.041
Mof_Sc	Sc	0.5041	0.1667	0.17633	1.955
Mof_Sc	Sc	0.001	0.1667	0.15467	1.923
Mof_O 	O 	0.3713	0.13973	0.1885	-0.557
Mof_O 	O 	0.1297	0.14017	0.1698	-0.57
Mof_O 	O 	0.371	0.02819	0.1578	-0.594
Mof_O 	O 	0.138	0.02704	0.1771	-0.61
Mof_O 	O 	0.8662	0.016	0.2177	-0.569
Mof_O 	O 	0.6321	0.0124	0.1978	-0.618
Mof_O 	O 	0.6233	0.07747	0.377	-0.573
Mof_O 	O 	0.3859	0.07532	0.3556	-0.543
Mof_O 	O 	0.1226	0.10379	0.3686	-0.567
Mof_O 	O 	0.8885	0.1031	0.3922	-0.571
Mof_O 	O 	0.8741	0.16192	0.2041	-0.572
Mof_O 	O 	0.6381	0.15938	0.2258	-0.568
Mof_O 	O 	0.3613	0.18527	0.213	-0.551
Mof_O 	O 	0.1332	0.18768	0.1876	-0.567
Mof_O 	O 	0.1186	0.2371	0.3825	-0.621
Mof_O 	O 	0.8867	0.2378	0.3595	-0.574
Mof_O 	O 	0.867	0.19321	0.1409	-0.547
Mof_O 	O 	0.6263	0.19386	0.1614	-0.571
Mof_C 	C 	0.252	0.1304	0.178	0.526
Mof_C 	C 	0.3875	0.09519	0.1748	-0.02
Mof_H 	H 	0.4776	0.1029	0.174	0.048
Mof_C 	C 	0.3887	0.07252	0.1729	0.039
Mof_H 	H 	0.4796	0.0651	0.1709	0.025
Mof_C 	C 	0.254	0.06098	0.174	-0.193
Mof_C 	C 	0.1181	0.07211	0.177	0.034
Mof_H 	H 	0.028	0.0644	0.1778	0.021
Mof_C 	C 	0.1169	0.09478	0.1789	-0.018
Mof_H 	H 	0.026	0.1022	0.1809	0.039
Mof_C 	C 	0.2516	0.10632	0.1778	-0.13
Mof_C 	C 	0.251	0.0372	0.1678	0.611
Mof_C 	C 	0.73	0.0203	0.2199	0.595
Mof_C 	C 	0.5762	0.05827	0.3174	-0.116
Mof_C 	C 	0.476	0.05172	0.288	-0.027
Mof_H 	H 	0.3753	0.0558	0.2895	0.054
Mof_C 	C 	0.5264	0.03908	0.2564	0.04
Mof_H 	H 	0.4594	0.0347	0.2368	0.024
Mof_C 	C 	0.6769	0.033	0.2542	-0.181
Mof_C 	C 	0.7771	0.03955	0.2836	0.029
Mof_H 	H 	0.8778	0.0355	0.2821	0.04
Mof_C 	C 	0.7267	0.05218	0.3152	-0.016
Mof_H 	H 	0.7937	0.0566	0.3349	0.042
Mof_C 	C 	0.523	0.0712	0.3529	0.517
Mof_C 	C 	0.986	0.1083	0.3664	0.522
Mof_C 	C 	0.7306	0.13859	0.2941	0.057
Mof_H 	H 	0.6293	0.1421	0.2911	0.026
Mof_C 	C 	0.8344	0.14506	0.2655	-0.205
Mof_C 	C 	0.9857	0.13981	0.27	0.149
Mof_H 	H 	0.0551	0.1441	0.2509	-0.026
Mof_C 	C 	0.0331	0.12809	0.3031	-0.137
Mof_H 	H 	0.1344	0.1246	0.3061	0.09
Mof_C 	C 	0.9293	0.12162	0.3316	-0.058
Mof_C 	C 	0.778	0.12687	0.3271	-0.054
Mof_H 	H 	0.7086	0.1225	0.3462	0.053
Mof_C 	C 	0.772	0.156	0.2293	0.56
Mof_C 	C 	0.228	0.19103	0.2149	0.53
Mof_C 	C 	0.2763	0.20552	0.2822	-0.036
Mof_H 	H 	0.3756	0.2008	0.2804	0.057
Mof_C 	C 	0.2271	0.21634	0.316	0.053
Mof_H 	H 	0.2934	0.2188	0.3369	0.013
Mof_C 	C 	0.0788	0.22342	0.3187	-0.201
Mof_C 	C 	0.9797	0.21967	0.2875	0.083
Mof_H 	H 	0.8804	0.2244	0.2893	0.017
Mof_C 	C 	0.0289	0.20886	0.2536	-0.073
Mof_H 	H 	0.9626	0.2064	0.2328	0.071
Mof_C 	C 	0.1773	0.20178	0.251	-0.116
Mof_C 	C 	0.024	0.2337	0.3565	0.583
Mof_C 	C 	0.746	0.20294	0.1492	0.517
Mof_C 	C 	0.7484	0.22762	0.1478	-0.128
Mof_C 	C 	0.883	0.23856	0.1466	-0.001
Mof_H 	H 	0.9727	0.2308	0.1452	0.047
Mof_C 	C 	0.886	0.26104	0.1476	0.003
Mof_H 	H 	0.9772	0.2685	0.1481	0.041
Mof_Sc	Sc	0.0041	0.6667	0.17633	1.912
Mof_Sc	Sc	0.501	0.6667	0.15467	1.964
Mof_O 	O 	0.8713	0.63973	0.1885	-0.544
Mof_O 	O 	0.6297	0.64017	0.1698	-0.57
Mof_O 	O 	0.871	0.52819	0.1578	-0.582
Mof_O 	O 	0.638	0.52704	0.1771	-0.61
Mof_O 	O 	0.3662	0.516	0.2177	-0.576
Mof_O 	O 	0.1321	0.5124	0.1978	-0.612
Mof_O 	O 	0.1233	0.57747	0.377	-0.575
Mof_O 	O 	0.8859	0.57532	0.3556	-0.528
Mof_O 	O 	0.6226	0.60379	0.3686	-0.553
Mof_O 	O 	0.3885	0.6031	0.3922	-0.574
Mof_O 	O 	0.3741	0.66192	0.2041	-0.58
Mof_O 	O 	0.1381	0.65938	0.2258	-0.564
Mof_O 	O 	0.8613	0.68527	0.213	-0.542
Mof_O 	O 	0.6332	0.68768	0.1876	-0.57
Mof_O 	O 	0.6186	0.7371	0.3825	-0.618
Mof_O 	O 	0.3867	0.7378	0.3595	-0.578
Mof_O 	O 	0.367	0.69321	0.1409	-0.559
Mof_O 	O 	0.1263	0.69386	0.1614	-0.57
Mof_C 	C 	0.752	0.6304	0.178	0.522
Mof_C 	C 	0.8875	0.59519	0.1748	-0.019
Mof_H 	H 	0.9776	0.6029	0.174	0.053
Mof_C 	C 	0.8887	0.57252	0.1729	0.04
Mof_H 	H 	0.9796	0.5651	0.1709	0.031
Mof_C 	C 	0.754	0.56098	0.174	-0.189
Mof_C 	C 	0.6181	0.57211	0.177	0.036
Mof_H 	H 	0.528	0.5644	0.1778	0.025
Mof_C 	C 	0.6169	0.59478	0.1789	-0.017
Mof_H 	H 	0.526	0.6022	0.1809	0.044
Mof_C 	C 	0.7516	0.60632	0.1778	-0.126
Mof_C 	C 	0.751	0.5372	0.1678	0.607
Mof_C 	C 	0.23	0.5203	0.2199	0.566
Mof_C 	C 	0.0762	0.55827	0.3174	-0.196
Mof_C 	C 	0.976	0.55172	0.288	0.112
Mof_H 	H 	0.8753	0.5558	0.2895	0.011
Mof_C 	C 	0.0264	0.53908	0.2564	-0.107
Mof_H 	H 	0.9594	0.5347	0.2368	0.088
Mof_C 	C 	0.1769	0.533	0.2542	-0.111
Mof_C 	C 	0.2771	0.53955	0.2836	-0.038
Mof_H 	H 	0.3778	0.5355	0.2821	0.058
Mof_C 	C 	0.2267	0.55218	0.3152	0.047
Mof_H 	H 	0.2937	0.5566	0.3349	0.019
Mof_C 	C 	0.023	0.5712	0.3529	0.515
Mof_C 	C 	0.486	0.6083	0.3664	0.52
Mof_C 	C 	0.2306	0.63859	0.2941	0.001
Mof_H 	H 	0.1293	0.6421	0.2911	0.041
Mof_C 	C 	0.3344	0.64506	0.2655	-0.148
Mof_C 	C 	0.4857	0.63981	0.27	0.021
Mof_H 	H 	0.5551	0.6441	0.2509	0.03
Mof_C 	C 	0.5331	0.62809	0.3031	-0.017
Mof_H 	H 	0.6344	0.6246	0.3061	0.054
Mof_C 	C 	0.4293	0.62162	0.3316	-0.126
Mof_C 	C 	0.278	0.62687	0.3271	0
Mof_H 	H 	0.2086	0.6225	0.3462	0.033
Mof_C 	C 	0.272	0.656	0.2293	0.538
Mof_C 	C 	0.728	0.69103	0.2149	0.545
Mof_C 	C 	0.7763	0.70552	0.2822	0.003
Mof_H 	H 	0.8756	0.7008	0.2804	0.048
Mof_C 	C 	0.7271	0.71634	0.316	0.016
Mof_H 	H 	0.7934	0.7188	0.3369	0.029
Mof_C 	C 	0.5788	0.72342	0.3187	-0.155
Mof_C 	C 	0.4797	0.71967	0.2875	0.004
Mof_H 	H 	0.3804	0.7244	0.2893	0.042
Mof_C 	C 	0.5289	0.70886	0.2536	0.013
Mof_H 	H 	0.4626	0.7064	0.2328	0.033
Mof_C 	C 	0.6773	0.70178	0.251	-0.156
Mof_C 	C 	0.524	0.7337	0.3565	0.577
Mof_C 	C 	0.246	0.70294	0.1492	0.52
Mof_C 	C 	0.2484	0.72762	0.1478	-0.132
Mof_C 	C 	0.383	0.73856	0.1466	0.002
Mof_H 	H 	0.4727	0.7308	0.1452	0.042
Mof_C 	C 	0.386	0.76104	0.1476	0
Mof_H 	H 	0.4772	0.7685	0.1481	0.04
Mof_Sc	Sc	0.0041	0.1667	0.67633	1.912
Mof_Sc	Sc	0.501	0.1667	0.65467	1.964
Mof_O 	O 	0.8713	0.13973	0.6885	-0.544
Mof_O 	O 	0.6297	0.14017	0.6698	-0.57
Mof_O 	O 	0.871	0.02819	0.6578	-0.582
Mof_O 	O 	0.638	0.02704	0.6771	-0.61
Mof_O 	O 	0.3662	0.016	0.7177	-0.576
Mof_O 	O 	0.1321	0.0124	0.6978	-0.612
Mof_O 	O 	0.1233	0.07747	0.877	-0.575
Mof_O 	O 	0.8859	0.07532	0.8556	-0.528
Mof_O 	O 	0.6226	0.10379	0.8686	-0.553
Mof_O 	O 	0.3885	0.1031	0.8922	-0.573
Mof_O 	O 	0.3741	0.16192	0.7041	-0.58
Mof_O 	O 	0.1381	0.15938	0.7258	-0.564
Mof_O 	O 	0.8613	0.18527	0.713	-0.542
Mof_O 	O 	0.6332	0.18768	0.6876	-0.57
Mof_O 	O 	0.6186	0.2371	0.8825	-0.617
Mof_O 	O 	0.3867	0.2378	0.8595	-0.578
Mof_O 	O 	0.367	0.19321	0.6409	-0.559
Mof_O 	O 	0.1263	0.19386	0.6614	-0.57
Mof_C 	C 	0.752	0.1304	0.678	0.522
Mof_C 	C 	0.8875	0.09519	0.6748	-0.019
Mof_H 	H 	0.9776	0.1029	0.674	0.053
Mof_C 	C 	0.8887	0.07252	0.6729	0.04
Mof_H 	H 	0.9796	0.0651	0.6709	0.031
Mof_C 	C 	0.754	0.06098	0.674	-0.189
Mof_C 	C 	0.6181	0.07211	0.677	0.036
Mof_H 	H 	0.528	0.0644	0.6778	0.025
Mof_C 	C 	0.6169	0.09478	0.6789	-0.017
Mof_H 	H 	0.526	0.1022	0.6809	0.044
Mof_C 	C 	0.7516	0.10632	0.6778	-0.126
Mof_C 	C 	0.751	0.0372	0.6678	0.607
Mof_C 	C 	0.23	0.0203	0.7199	0.566
Mof_C 	C 	0.0762	0.05827	0.8174	-0.195
Mof_C 	C 	0.976	0.05172	0.788	0.111
Mof_H 	H 	0.8753	0.0558	0.7895	0.011
Mof_C 	C 	0.0264	0.03908	0.7564	-0.107
Mof_H 	H 	0.9594	0.0347	0.7368	0.088
Mof_C 	C 	0.1769	0.033	0.7542	-0.112
Mof_C 	C 	0.2771	0.03955	0.7836	-0.038
Mof_H 	H 	0.3778	0.0355	0.7821	0.058
Mof_C 	C 	0.2267	0.05218	0.8152	0.047
Mof_H 	H 	0.2937	0.0566	0.8349	0.019
Mof_C 	C 	0.023	0.0712	0.8529	0.515
Mof_C 	C 	0.486	0.1083	0.8664	0.519
Mof_C 	C 	0.2306	0.13859	0.7941	0.001
Mof_H 	H 	0.1293	0.1421	0.7911	0.041
Mof_C 	C 	0.3344	0.14506	0.7655	-0.148
Mof_C 	C 	0.4857	0.13981	0.77	0.021
Mof_H 	H 	0.5551	0.1441	0.7509	0.03
Mof_C 	C 	0.5331	0.12809	0.8031	-0.017
Mof_H 	H 	0.6344	0.1246	0.8061	0.054
Mof_C 	C 	0.4293	0.12162	0.8316	-0.126
Mof_C 	C 	0.278	0.12687	0.8271	0
Mof_H 	H 	0.2086	0.1225	0.8462	0.033
Mof_C 	C 	0.272	0.156	0.7293	0.539
Mof_C 	C 	0.728	0.19103	0.7149	0.545
Mof_C 	C 	0.7763	0.20552	0.7822	0.003
Mof_H 	H 	0.8756	0.2008	0.7804	0.048
Mof_C 	C 	0.7271	0.21634	0.816	0.016
Mof_H 	H 	0.7934	0.2188	0.8369	0.029
Mof_C 	C 	0.5788	0.22342	0.8187	-0.155
Mof_C 	C 	0.4797	0.21967	0.7875	0.004
Mof_H 	H 	0.3804	0.2244	0.7893	0.042
Mof_C 	C 	0.5289	0.20886	0.7536	0.013
Mof_H 	H 	0.4626	0.2064	0.7328	0.033
Mof_C 	C 	0.6773	0.20178	0.751	-0.156
Mof_C 	C 	0.524	0.2337	0.8565	0.577
Mof_C 	C 	0.246	0.20294	0.6492	0.52
Mof_C 	C 	0.2484	0.22762	0.6478	-0.132
Mof_C 	C 	0.383	0.23856	0.6466	0.001
Mof_H 	H 	0.4727	0.2308	0.6452	0.042
Mof_C 	C 	0.386	0.26104	0.6476	0
Mof_H 	H 	0.4772	0.2685	0.6481	0.04
Mof_Sc	Sc	0.9959	0.8333	0.67633	1.97
Mof_Sc	Sc	0.499	0.8333	0.65467	1.967
Mof_O 	O 	0.1287	0.86027	0.6885	-0.563
Mof_O 	O 	0.3703	0.85983	0.6698	-0.572
Mof_O 	O 	0.129	0.97181	0.6578	-0.592
Mof_O 	O 	0.362	0.97296	0.6771	-0.61
Mof_O 	O 	0.6338	0.984	0.7177	-0.587
Mof_O 	O 	0.8679	0.9876	0.6978	-0.611
Mof_O 	O 	0.8767	0.92253	0.877	-0.569
Mof_O 	O 	0.1141	0.92468	0.8556	-0.546
Mof_O 	O 	0.3774	0.89621	0.8686	-0.555
Mof_O 	O 	0.6115	0.8969	0.8922	-0.575
Mof_O 	O 	0.6259	0.83808	0.7041	-0.581
Mof_O 	O 	0.8619	0.84062	0.7258	-0.564
Mof_O 	O 	0.1387	0.81473	0.713	-0.561
Mof_O 	O 	0.3668	0.81232	0.6876	-0.574
Mof_O 	O 	0.3814	0.7629	0.8825	-0.617
Mof_O 	O 	0.6133	0.7622	0.8595	-0.577
Mof_O 	O 	0.633	0.80679	0.6409	-0.561
Mof_O 	O 	0.8737	0.80614	0.6614	-0.574
Mof_C 	C 	0.248	0.8696	0.678	0.529
Mof_C 	C 	0.1125	0.90481	0.6748	-0.019
Mof_H 	H 	0.0224	0.8971	0.674	0.045
Mof_C 	C 	0.1113	0.92748	0.6729	0.038
Mof_H 	H 	0.0204	0.9349	0.6709	0.021
Mof_C 	C 	0.246	0.93902	0.674	-0.192
Mof_C 	C 	0.3819	0.92789	0.677	0.035
Mof_H 	H 	0.472	0.9356	0.6778	0.027
Mof_C 	C 	0.3831	0.90522	0.6789	-0.016
Mof_H 	H 	0.474	0.8978	0.6809	0.045
Mof_C 	C 	0.2484	0.89368	0.6778	-0.131
Mof_C 	C 	0.249	0.9628	0.6678	0.611
Mof_C 	C 	0.77	0.9797	0.7199	0.612
Mof_C 	C 	0.9238	0.94173	0.8174	-0.066
Mof_C 	C 	0.024	0.94828	0.788	-0.113
Mof_H 	H 	0.1247	0.9442	0.7895	0.083
Mof_C 	C 	0.9736	0.96092	0.7564	0.133
Mof_H 	H 	0.0406	0.9653	0.7368	-0.016
Mof_C 	C 	0.8231	0.967	0.7542	-0.227
Mof_C 	C 	0.7229	0.96045	0.7836	0.073
Mof_H 	H 	0.6222	0.9645	0.7821	0.02
Mof_C 	C 	0.7733	0.94782	0.8152	-0.06
Mof_H 	H 	0.7063	0.9434	0.8349	0.055
Mof_C 	C 	0.977	0.9288	0.8529	0.511
Mof_C 	C 	0.514	0.8917	0.8664	0.52
Mof_C 	C 	0.7694	0.86141	0.7941	-0
Mof_H 	H 	0.8707	0.8579	0.7911	0.047
Mof_C 	C 	0.6656	0.85494	0.7655	-0.145
Mof_C 	C 	0.5143	0.86019	0.77	0.019
Mof_H 	H 	0.4449	0.8559	0.7509	0.029
Mof_C 	C 	0.4669	0.87191	0.8031	-0.015
Mof_H 	H 	0.3656	0.8754	0.8061	0.05
Mof_C 	C 	0.5707	0.87838	0.8316	-0.129
Mof_C 	C 	0.722	0.87313	0.8271	0.003
Mof_H 	H 	0.7914	0.8775	0.8462	0.034
Mof_C 	C 	0.728	0.844	0.7293	0.54
Mof_C 	C 	0.272	0.80897	0.7149	0.552
Mof_C 	C 	0.2237	0.79448	0.7822	0.007
Mof_H 	H 	0.1244	0.7992	0.7804	0.041
Mof_C 	C 	0.2729	0.78366	0.816	0.011
Mof_H 	H 	0.2066	0.7812	0.8369	0.027
Mof_C 	C 	0.4212	0.77658	0.8187	-0.152
Mof_C 	C 	0.5203	0.78033	0.7875	-0
Mof_H 	H 	0.6196	0.7756	0.7893	0.045
Mof_C 	C 	0.4711	0.79114	0.7536	0.018
Mof_H 	H 	0.5374	0.7936	0.7328	0.031
Mof_C 	C 	0.3227	0.79822	0.751	-0.163
Mof_C 	C 	0.476	0.7663	0.8565	0.576
Mof_C 	C 	0.754	0.79706	0.6492	0.523
Mof_C 	C 	0.7516	0.77238	0.6478	-0.134
Mof_C 	C 	0.617	0.76144	0.6466	0.005
Mof_H 	H 	0.5273	0.7692	0.6452	0.04
Mof_C 	C 	0.614	0.73896	0.6476	-0.003
Mof_H 	H 	0.5228	0.7315	0.6481	0.04
Mof_Sc	Sc	0.9959	0.3333	0.17633	1.97
Mof_Sc	Sc	0.499	0.3333	0.15467	1.967
Mof_O 	O 	0.1287	0.36027	0.1885	-0.563
Mof_O 	O 	0.3703	0.35983	0.1698	-0.572
Mof_O 	O 	0.129	0.47181	0.1578	-0.592
Mof_O 	O 	0.362	0.47296	0.1771	-0.61
Mof_O 	O 	0.6338	0.484	0.2177	-0.587
Mof_O 	O 	0.8679	0.4876	0.1978	-0.612
Mof_O 	O 	0.8767	0.42253	0.377	-0.569
Mof_O 	O 	0.1141	0.42468	0.3556	-0.546
Mof_O 	O 	0.3774	0.39621	0.3686	-0.555
Mof_O 	O 	0.6115	0.3969	0.3922	-0.575
Mof_O 	O 	0.6259	0.33808	0.2041	-0.581
Mof_O 	O 	0.8619	0.34062	0.2258	-0.564
Mof_O 	O 	0.1387	0.31473	0.213	-0.561
Mof_O 	O 	0.3668	0.31232	0.1876	-0.574
Mof_O 	O 	0.3814	0.2629	0.3825	-0.617
Mof_O 	O 	0.6133	0.2622	0.3595	-0.577
Mof_O 	O 	0.633	0.30679	0.1409	-0.561
Mof_O 	O 	0.8737	0.30614	0.1614	-0.574
Mof_C 	C 	0.248	0.3696	0.178	0.529
Mof_C 	C 	0.1125	0.40481	0.1748	-0.019
Mof_H 	H 	0.0224	0.3971	0.174	0.045
Mof_C 	C 	0.1113	0.42748	0.1729	0.038
Mof_H 	H 	0.0204	0.4349	0.1709	0.021
Mof_C 	C 	0.246	0.43902	0.174	-0.192
Mof_C 	C 	0.3819	0.42789	0.177	0.035
Mof_H 	H 	0.472	0.4356	0.1778	0.027
Mof_C 	C 	0.3831	0.40522	0.1789	-0.016
Mof_H 	H 	0.474	0.3978	0.1809	0.045
Mof_C 	C 	0.2484	0.39368	0.1778	-0.131
Mof_C 	C 	0.249	0.4628	0.1678	0.611
Mof_C 	C 	0.77	0.4797	0.2199	0.613
Mof_C 	C 	0.9238	0.44173	0.3174	-0.066
Mof_C 	C 	0.024	0.44828	0.288	-0.113
Mof_H 	H 	0.1247	0.4442	0.2895	0.083
Mof_C 	C 	0.9736	0.46092	0.2564	0.133
Mof_H 	H 	0.0406	0.4653	0.2368	-0.016
Mof_C 	C 	0.8231	0.467	0.2542	-0.227
Mof_C 	C 	0.7229	0.46045	0.2836	0.073
Mof_H 	H 	0.6222	0.4645	0.2821	0.02
Mof_C 	C 	0.7733	0.44782	0.3152	-0.06
Mof_H 	H 	0.7063	0.4434	0.3349	0.055
Mof_C 	C 	0.977	0.4288	0.3529	0.511
Mof_C 	C 	0.514	0.3917	0.3664	0.52
Mof_C 	C 	0.7694	0.36141	0.2941	-0
Mof_H 	H 	0.8707	0.3579	0.2911	0.047
Mof_C 	C 	0.6656	0.35494	0.2655	-0.145
Mof_C 	C 	0.5143	0.36019	0.27	0.019
Mof_H 	H 	0.4449	0.3559	0.2509	0.029
Mof_C 	C 	0.4669	0.37191	0.3031	-0.014
Mof_H 	H 	0.3656	0.3754	0.3061	0.05
Mof_C 	C 	0.5707	0.37838	0.3316	-0.129
Mof_C 	C 	0.722	0.37313	0.3271	0.003
Mof_H 	H 	0.7914	0.3775	0.3462	0.034
Mof_C 	C 	0.728	0.344	0.2293	0.54
Mof_C 	C 	0.272	0.30897	0.2149	0.552
Mof_C 	C 	0.2237	0.29448	0.2822	0.007
Mof_H 	H 	0.1244	0.2992	0.2804	0.041
Mof_C 	C 	0.2729	0.28366	0.316	0.011
Mof_H 	H 	0.2066	0.2812	0.3369	0.027
Mof_C 	C 	0.4212	0.27658	0.3187	-0.152
Mof_C 	C 	0.5203	0.28033	0.2875	-0
Mof_H 	H 	0.6196	0.2756	0.2893	0.045
Mof_C 	C 	0.4711	0.29114	0.2536	0.018
Mof_H 	H 	0.5374	0.2936	0.2328	0.031
Mof_C 	C 	0.3227	0.29822	0.251	-0.163
Mof_C 	C 	0.476	0.2663	0.3565	0.576
Mof_C 	C 	0.754	0.29706	0.1492	0.523
Mof_C 	C 	0.7516	0.27238	0.1478	-0.134
Mof_C 	C 	0.617	0.26144	0.1466	0.005
Mof_H 	H 	0.5273	0.2692	0.1452	0.04
Mof_C 	C 	0.614	0.23896	0.1476	-0.003
Mof_H 	H 	0.5228	0.2315	0.1481	0.04
Mof_Sc	Sc	0.4959	0.8333	0.17633	1.957
Mof_Sc	Sc	0.999	0.8333	0.15467	1.981
Mof_O 	O 	0.6287	0.86027	0.1885	-0.559
Mof_O 	O 	0.8703	0.85983	0.1698	-0.573
Mof_O 	O 	0.629	0.97181	0.1578	-0.593
Mof_O 	O 	0.862	0.97296	0.1771	-0.599
Mof_O 	O 	0.1338	0.984	0.2177	-0.584
Mof_O 	O 	0.3679	0.9876	0.1978	-0.62
Mof_O 	O 	0.3767	0.92253	0.377	-0.571
Mof_O 	O 	0.6141	0.92468	0.3556	-0.541
Mof_O 	O 	0.8774	0.89621	0.3686	-0.548
Mof_O 	O 	0.1115	0.8969	0.3922	-0.576
Mof_O 	O 	0.1259	0.83808	0.2041	-0.584
Mof_O 	O 	0.3619	0.84062	0.2258	-0.561
Mof_O 	O 	0.6387	0.81473	0.213	-0.561
Mof_O 	O 	0.8668	0.81232	0.1876	-0.576
Mof_O 	O 	0.8814	0.7629	0.3825	-0.615
Mof_O 	O 	0.1133	0.7622	0.3595	-0.585
Mof_O 	O 	0.133	0.80679	0.1409	-0.565
Mof_O 	O 	0.3737	0.80614	0.1614	-0.574
Mof_C 	C 	0.748	0.8696	0.178	0.529
Mof_C 	C 	0.6125	0.90481	0.1748	-0.017
Mof_H 	H 	0.5224	0.8971	0.174	0.046
Mof_C 	C 	0.6113	0.92748	0.1729	0.036
Mof_H 	H 	0.5204	0.9349	0.1709	0.025
Mof_C 	C 	0.746	0.93902	0.174	-0.187
Mof_C 	C 	0.8819	0.92789	0.177	0.033
Mof_H 	H 	0.972	0.9356	0.1778	0.031
Mof_C 	C 	0.8831	0.90522	0.1789	-0.013
Mof_H 	H 	0.974	0.8978	0.1809	0.046
Mof_C 	C 	0.7484	0.89368	0.1778	-0.131
Mof_C 	C 	0.749	0.9628	0.1678	0.607
Mof_C 	C 	0.27	0.9797	0.2199	0.598
Mof_C 	C 	0.4238	0.94173	0.3174	-0.112
Mof_C 	C 	0.524	0.94828	0.288	-0.032
Mof_H 	H 	0.6247	0.9442	0.2895	0.059
Mof_C 	C 	0.4736	0.96092	0.2564	0.046
Mof_H 	H 	0.5406	0.9653	0.2368	0.023
Mof_C 	C 	0.3231	0.967	0.2542	-0.188
Mof_C 	C 	0.2229	0.96045	0.2836	0.034
Mof_H 	H 	0.1222	0.9645	0.2821	0.03
Mof_C 	C 	0.2733	0.94782	0.3152	-0.023
Mof_H 	H 	0.2063	0.9434	0.3349	0.041
Mof_C 	C 	0.477	0.9288	0.3529	0.516
Mof_C 	C 	0.014	0.8917	0.3664	0.518
Mof_C 	C 	0.2694	0.86141	0.2941	-0.028
Mof_H 	H 	0.3707	0.8579	0.2911	0.055
Mof_C 	C 	0.1656	0.85494	0.2655	-0.117
Mof_C 	C 	0.0143	0.86019	0.27	-0.042
Mof_H 	H 	0.9449	0.8559	0.2509	0.055
Mof_C 	C 	0.9669	0.87191	0.3031	0.044
Mof_H 	H 	0.8656	0.8754	0.3061	0.032
Mof_C 	C 	0.0707	0.87838	0.3316	-0.162
Mof_C 	C 	0.222	0.87313	0.3271	0.03
Mof_H 	H 	0.2914	0.8775	0.3462	0.024
Mof_C 	C 	0.228	0.844	0.2293	0.53
Mof_C 	C 	0.772	0.80897	0.2149	0.565
Mof_C 	C 	0.7237	0.79448	0.2822	0.04
Mof_H 	H 	0.6244	0.7992	0.2804	0.031
Mof_C 	C 	0.7729	0.78366	0.316	-0.02
Mof_H 	H 	0.7066	0.7812	0.3369	0.038
Mof_C 	C 	0.9212	0.77658	0.3187	-0.114
Mof_C 	C 	0.0203	0.78033	0.2875	-0.066
Mof_H 	H 	0.1196	0.7756	0.2893	0.065
Mof_C 	C 	0.9711	0.79114	0.2536	0.087
Mof_H 	H 	0.0374	0.7936	0.2328	0.002
Mof_C 	C 	0.8227	0.79822	0.251	-0.197
Mof_C 	C 	0.976	0.7663	0.3565	0.579
Mof_C 	C 	0.254	0.79706	0.1492	0.523
Mof_C 	C 	0.2516	0.77238	0.1478	-0.133
Mof_C 	C 	0.117	0.76144	0.1466	0.002
Mof_H 	H 	0.0273	0.7692	0.1452	0.04
Mof_C 	C 	0.114	0.73896	0.1476	-0.001
Mof_H 	H 	0.0228	0.7315	0.1481	0.037
Mof_Sc	Sc	0.4959	0.3333	0.67633	1.957
Mof_Sc	Sc	0.999	0.3333	0.65467	1.981
Mof_O 	O 	0.6287	0.36027	0.6885	-0.559
Mof_O 	O 	0.8703	0.35983	0.6698	-0.573
Mof_O 	O 	0.629	0.47181	0.6578	-0.593
Mof_O 	O 	0.862	0.47296	0.6771	-0.599
Mof_O 	O 	0.1338	0.484	0.7177	-0.584
Mof_O 	O 	0.3679	0.4876	0.6978	-0.621
Mof_O 	O 	0.3767	0.42253	0.877	-0.571
Mof_O 	O 	0.6141	0.42468	0.8556	-0.541
Mof_O 	O 	0.8774	0.39621	0.8686	-0.548
Mof_O 	O 	0.1115	0.3969	0.8922	-0.576
Mof_O 	O 	0.1259	0.33808	0.7041	-0.584
Mof_O 	O 	0.3619	0.34062	0.7258	-0.561
Mof_O 	O 	0.6387	0.31473	0.713	-0.561
Mof_O 	O 	0.8668	0.31232	0.6876	-0.576
Mof_O 	O 	0.8814	0.2629	0.8825	-0.615
Mof_O 	O 	0.1133	0.2622	0.8595	-0.585
Mof_O 	O 	0.133	0.30679	0.6409	-0.565
Mof_O 	O 	0.3737	0.30614	0.6614	-0.574
Mof_C 	C 	0.748	0.3696	0.678	0.529
Mof_C 	C 	0.6125	0.40481	0.6748	-0.017
Mof_H 	H 	0.5224	0.3971	0.674	0.046
Mof_C 	C 	0.6113	0.42748	0.6729	0.036
Mof_H 	H 	0.5204	0.4349	0.6709	0.025
Mof_C 	C 	0.746	0.43902	0.674	-0.187
Mof_C 	C 	0.8819	0.42789	0.677	0.033
Mof_H 	H 	0.972	0.4356	0.6778	0.031
Mof_C 	C 	0.8831	0.40522	0.6789	-0.013
Mof_H 	H 	0.974	0.3978	0.6809	0.046
Mof_C 	C 	0.7484	0.39368	0.6778	-0.131
Mof_C 	C 	0.749	0.4628	0.6678	0.607
Mof_C 	C 	0.27	0.4797	0.7199	0.598
Mof_C 	C 	0.4238	0.44173	0.8174	-0.112
Mof_C 	C 	0.524	0.44828	0.788	-0.032
Mof_H 	H 	0.6247	0.4442	0.7895	0.059
Mof_C 	C 	0.4736	0.46092	0.7564	0.046
Mof_H 	H 	0.5406	0.4653	0.7368	0.023
Mof_C 	C 	0.3231	0.467	0.7542	-0.188
Mof_C 	C 	0.2229	0.46045	0.7836	0.034
Mof_H 	H 	0.1222	0.4645	0.7821	0.03
Mof_C 	C 	0.2733	0.44782	0.8152	-0.023
Mof_H 	H 	0.2063	0.4434	0.8349	0.041
Mof_C 	C 	0.477	0.4288	0.8529	0.515
Mof_C 	C 	0.014	0.3917	0.8664	0.518
Mof_C 	C 	0.2694	0.36141	0.7941	-0.028
Mof_H 	H 	0.3707	0.3579	0.7911	0.055
Mof_C 	C 	0.1656	0.35494	0.7655	-0.117
Mof_C 	C 	0.0143	0.36019	0.77	-0.041
Mof_H 	H 	0.9449	0.3559	0.7509	0.055
Mof_C 	C 	0.9669	0.37191	0.8031	0.043
Mof_H 	H 	0.8656	0.3754	0.8061	0.033
Mof_C 	C 	0.0707	0.37838	0.8316	-0.161
Mof_C 	C 	0.222	0.37313	0.8271	0.03
Mof_H 	H 	0.2914	0.3775	0.8462	0.025
Mof_C 	C 	0.228	0.344	0.7293	0.53
Mof_C 	C 	0.772	0.30897	0.7149	0.565
Mof_C 	C 	0.7237	0.29448	0.7822	0.04
Mof_H 	H 	0.6244	0.2992	0.7804	0.031
Mof_C 	C 	0.7729	0.28366	0.816	-0.019
Mof_H 	H 	0.7066	0.2812	0.8369	0.038
Mof_C 	C 	0.9212	0.27658	0.8187	-0.115
Mof_C 	C 	0.0203	0.28033	0.7875	-0.065
Mof_H 	H 	0.1196	0.2756	0.7893	0.065
Mof_C 	C 	0.9711	0.29114	0.7536	0.086
Mof_H 	H 	0.0374	0.2936	0.7328	0.002
Mof_C 	C 	0.8227	0.29822	0.751	-0.196
Mof_C 	C 	0.976	0.2663	0.8565	0.579
Mof_C 	C 	0.254	0.29706	0.6492	0.523
Mof_C 	C 	0.2516	0.27238	0.6478	-0.133
Mof_C 	C 	0.117	0.26144	0.6466	0.002
Mof_H 	H 	0.0273	0.2692	0.6452	0.04
Mof_C 	C 	0.114	0.23896	0.6476	-0.001
Mof_H 	H 	0.0228	0.2315	0.6481	0.037
Mof_Sc	Sc	0.75	0.75	0.42626	2.052
Mof_Sc	Sc	0.75	0.25	0.92626	2.051
Mof_Sc	Sc	0.25	0.25	0.42626	2.052
Mof_Sc	Sc	0.25	0.75	0.92626	2.051
Mof_Sc	Sc	9.61686e-33	0.5	0.67626	2.01
Mof_Sc	Sc	2.50653e-33	0	0.17626	2.009
Mof_Sc	Sc	0.5	0.5	0.17626	2.049
Mof_Sc	Sc	0.5	0	0.67626	2.048
Mof_Sc	Sc	0.25	0.75	0.40465	2.045
Mof_Sc	Sc	0.25	0.25	0.90465	2.044
Mof_Sc	Sc	0.75	0.25	0.40465	2.05
Mof_Sc	Sc	0.75	0.75	0.90465	2.049
Mof_Sc	Sc	0.5	0.5	0.65465	2.047
Mof_Sc	Sc	0.5	0	0.15465	2.047
Mof_Sc	Sc	9.30955e-33	-5.50935e-33	0.65465	2.003
Mof_Sc	Sc	-4.18755e-32	0.5	0.15465	2.003
_end
