data_functionalizedCrystal
_audit_creation_method	'EQeq! by Chris Wilmer'
_symmetry_space_group_name_H-M	'P1'
_symmetry_Int_Tables_number	1
_symmetry_cell_setting	triclinic
loop_
_symmetry_equiv_pos_as_xyz
  x,y,z
_cell_length_a	12.463
_cell_length_b	12.463
_cell_length_c	12.463
_cell_angle_alpha	90
_cell_angle_beta	90
_cell_angle_gamma	90
loop_
_atom_site_label
_atom_site_type_symbol
_atom_site_fract_x
_atom_site_fract_y
_atom_site_fract_z
_atom_site_charge
Mof_C 	C 	0.6901	0.3192	0.9507	0.023
Mof_C 	C 	0.6023	0.2666	0.9063	0.023
Mof_N 	N 	0.5616	0.175	0.9553	-0.154
Mof_C 	C 	0.6087	0.1361	0.0486	0.021
Mof_C 	C 	0.6965	0.1887	0.0929	0.022
Mof_N 	N 	0.2803	0.044	0.7372	-0.155
Mof_C 	C 	0.8099	0.6808	0.4507	0.022
Mof_C 	C 	0.8977	0.7334	0.4063	0.022
Mof_N 	N 	0.9384	0.825	0.4553	-0.155
Mof_C 	C 	0.8913	0.8639	0.5486	0.02
Mof_C 	C 	0.8035	0.8113	0.5929	0.022
Mof_N 	N 	0.2197	0.956	0.2372	-0.155
Mof_C 	C 	0.3099	0.8192	0.5493	0.022
Mof_C 	C 	0.3977	0.7666	0.5937	0.022
Mof_N 	N 	0.4384	0.675	0.5447	-0.155
Mof_C 	C 	0.3913	0.6361	0.4514	0.02
Mof_C 	C 	0.3035	0.6887	0.4071	0.022
Mof_N 	N 	0.7197	0.544	0.7628	-0.155
Mof_C 	C 	0.1901	0.1808	0.0493	0.023
Mof_C 	C 	0.1023	0.2334	0.0937	0.022
Mof_N 	N 	0.0616	0.325	0.0447	-0.154
Mof_C 	C 	0.1087	0.3639	0.9514	0.018
Mof_C 	C 	0.1965	0.3113	0.9071	0.022
Mof_N 	N 	0.7803	0.456	0.2628	-0.154
Mof_C 	C 	0.9507	0.6901	0.3192	0.022
Mof_C 	C 	0.9063	0.6023	0.2666	0.022
Mof_N 	N 	0.9553	0.5616	0.175	-0.155
Mof_C 	C 	0.0486	0.6087	0.1361	0.02
Mof_C 	C 	0.0929	0.6965	0.1887	0.022
Mof_N 	N 	0.7372	0.2803	0.044	-0.155
Mof_C 	C 	0.4507	0.8099	0.6808	0.022
Mof_C 	C 	0.4063	0.8977	0.7334	0.022
Mof_N 	N 	0.4553	0.9384	0.825	-0.155
Mof_C 	C 	0.5486	0.8913	0.8639	0.02
Mof_C 	C 	0.5929	0.8035	0.8113	0.022
Mof_N 	N 	0.2372	0.2197	0.956	-0.155
Mof_C 	C 	0.5493	0.3099	0.8192	0.022
Mof_C 	C 	0.5937	0.3977	0.7666	0.022
Mof_N 	N 	0.5447	0.4384	0.675	-0.155
Mof_C 	C 	0.4514	0.3913	0.6361	0.02
Mof_C 	C 	0.4071	0.3035	0.6887	0.022
Mof_N 	N 	0.7628	0.7197	0.544	-0.155
Mof_C 	C 	0.0493	0.1901	0.1808	0.023
Mof_C 	C 	0.0937	0.1023	0.2334	0.022
Mof_N 	N 	0.0447	0.0616	0.325	-0.154
Mof_C 	C 	0.9514	0.1087	0.3639	0.018
Mof_C 	C 	0.9071	0.1965	0.3113	0.022
Mof_N 	N 	0.2628	0.7803	0.456	-0.154
Mof_C 	C 	0.3192	0.9507	0.6901	0.022
Mof_C 	C 	0.2666	0.9063	0.6023	0.022
Mof_N 	N 	0.175	0.9553	0.5616	-0.155
Mof_C 	C 	0.1361	0.0486	0.6087	0.02
Mof_C 	C 	0.1887	0.0929	0.6965	0.022
Mof_N 	N 	0.044	0.7372	0.2803	-0.155
Mof_C 	C 	0.6808	0.4507	0.8099	0.022
Mof_C 	C 	0.7334	0.4063	0.8977	0.022
Mof_N 	N 	0.825	0.4553	0.9384	-0.155
Mof_C 	C 	0.8639	0.5486	0.8913	0.02
Mof_C 	C 	0.8113	0.5929	0.8035	0.022
Mof_N 	N 	0.956	0.2372	0.2197	-0.155
Mof_C 	C 	0.8192	0.5493	0.3099	0.022
Mof_C 	C 	0.7666	0.5937	0.3977	0.022
Mof_N 	N 	0.675	0.5447	0.4384	-0.155
Mof_C 	C 	0.6361	0.4514	0.3913	0.02
Mof_C 	C 	0.6887	0.4071	0.3035	0.022
Mof_N 	N 	0.544	0.7628	0.7197	-0.155
Mof_C 	C 	0.1808	0.0493	0.1901	0.023
Mof_C 	C 	0.2334	0.0937	0.1023	0.022
Mof_N 	N 	0.325	0.0447	0.0616	-0.154
Mof_C 	C 	0.3639	0.9514	0.1087	0.018
Mof_C 	C 	0.3113	0.9071	0.1965	0.022
Mof_N 	N 	0.456	0.2628	0.7803	-0.154
Mof_Ag	Ag	0.3877	0.1123	0.8877	0.67
Mof_Ag	Ag	0.1123	0.8877	0.3877	0.67
Mof_Ag	Ag	0.6123	0.6123	0.6123	0.671
Mof_Ag	Ag	0.8877	0.3877	0.1123	0.67
_end
