data_functionalizedCrystal
_audit_creation_method	'EQeq! by Chris Wilmer'
_symmetry_space_group_name_H-M	'P1'
_symmetry_Int_Tables_number	1
_symmetry_cell_setting	triclinic
loop_
_symmetry_equiv_pos_as_xyz
  x,y,z
_cell_length_a	6.8282
_cell_length_b	15.2094
_cell_length_c	15.2094
_cell_angle_alpha	62.1986
_cell_angle_beta	81.3935
_cell_angle_gamma	98.6065
loop_
_atom_site_label
_atom_site_type_symbol
_atom_site_fract_x
_atom_site_fract_y
_atom_site_fract_z
_atom_site_charge
Mof_Fe	Fe	0.88619	0.68344	0.58837	0.803
Mof_Fe	Fe	0.47456	0.58837	0.72819	0.803
Mof_Fe	Fe	0.20275	0.72819	0.68344	0.803
Mof_Fe	Fe	0.11381	0.31656	0.41163	0.804
Mof_Fe	Fe	0.52544	0.41163	0.27181	0.804
Mof_Fe	Fe	0.79725	0.27181	0.31656	0.803
Mof_H 	H 	0.6703	0.032	0.5325	0.071
Mof_H 	H 	0.2028	0.5325	0.4355	0.071
Mof_H 	H 	0.6383	0.4355	0.032	0.071
Mof_H 	H 	0.3297	0.968	0.4675	0.071
Mof_H 	H 	0.7972	0.4675	0.5645	0.071
Mof_H 	H 	0.3617	0.5645	0.968	0.071
Mof_C 	C 	0.6559	0.827	0.6104	0.466
Mof_C 	C 	0.82258	0.91706	0.54812	-0.183
Mof_C 	C 	0.0284	0.8949	0.5379	0.236
Mof_C 	C 	0.8067	0.0129	0.5176	-0.055
Mof_C 	C 	0.2663	0.6104	0.5626	0.466
Mof_C 	C 	0.3707	0.54812	0.53482	-0.184
Mof_C 	C 	0.5663	0.5379	0.5672	0.236
Mof_C 	C 	0.3243	0.5176	0.4695	-0.054
Mof_C 	C 	0.8289	0.5626	0.827	0.466
Mof_C 	C 	0.90552	0.53482	0.91706	-0.182
Mof_C 	C 	0.1335	0.5672	0.8949	0.235
Mof_C 	C 	0.7938	0.4695	0.0129	-0.056
Mof_C 	C 	0.3441	0.173	0.3896	0.466
Mof_C 	C 	0.17742	0.08294	0.45188	-0.183
Mof_C 	C 	0.9716	0.1051	0.4621	0.236
Mof_C 	C 	0.1933	0.9871	0.4824	-0.055
Mof_C 	C 	0.7337	0.3896	0.4374	0.466
Mof_C 	C 	0.6293	0.45188	0.46518	-0.184
Mof_C 	C 	0.4337	0.4621	0.4328	0.236
Mof_C 	C 	0.6757	0.4824	0.5305	-0.054
Mof_C 	C 	0.1711	0.4374	0.173	0.466
Mof_C 	C 	0.09448	0.46518	0.08294	-0.182
Mof_C 	C 	0.8665	0.4328	0.1051	0.235
Mof_C 	C 	0.2062	0.5305	0.9871	-0.056
Mof_O 	O 	0.6829	0.739	0.6388	-0.498
Mof_O 	O 	0.5161	0.8631	0.6147	-0.388
Mof_O 	O 	0.0706	0.8103	0.5769	-0.452
Mof_O 	O 	0.3217	0.6388	0.6222	-0.498
Mof_O 	O 	0.1308	0.6147	0.5222	-0.388
Mof_O 	O 	0.6475	0.5769	0.6128	-0.452
Mof_O 	O 	0.9439	0.6222	0.739	-0.498
Mof_O 	O 	0.653	0.5222	0.8631	-0.388
Mof_O 	O 	0.2603	0.6128	0.8103	-0.452
Mof_O 	O 	0.3171	0.261	0.3612	-0.498
Mof_O 	O 	0.4839	0.1369	0.3853	-0.388
Mof_O 	O 	0.9294	0.1897	0.4231	-0.452
Mof_O 	O 	0.6783	0.3612	0.3778	-0.498
Mof_O 	O 	0.8692	0.3853	0.4778	-0.388
Mof_O 	O 	0.3525	0.4231	0.3872	-0.452
Mof_O 	O 	0.0561	0.3778	0.261	-0.498
Mof_O 	O 	0.347	0.4778	0.1369	-0.388
Mof_O 	O 	0.7397	0.3872	0.1897	-0.452
_end
