data_functionalizedCrystal
_audit_creation_method	'EQeq! by Chris Wilmer'
_symmetry_space_group_name_H-M	'P1'
_symmetry_Int_Tables_number	1
_symmetry_cell_setting	triclinic
loop_
_symmetry_equiv_pos_as_xyz
  x,y,z
_cell_length_a	30.727
_cell_length_b	15.769
_cell_length_c	22.11
_cell_angle_alpha	90
_cell_angle_beta	133.08
_cell_angle_gamma	90
loop_
_atom_site_label
_atom_site_type_symbol
_atom_site_fract_x
_atom_site_fract_y
_atom_site_fract_z
_atom_site_charge
Mof_Ce	Ce	0.66945	0.3718	0.01442	1.922
Mof_Ce	Ce	0.88997	0.13689	0.32709	1.906
Mof_N 	N 	0.6329	0.2326	0.0356	-0.186
Mof_N 	N 	0.6625	0.4976	0.2592	-0.183
Mof_O 	O 	0.5597	0.3536	0.9312	-0.578
Mof_O 	O 	0.4808	0.2821	0.8883	-0.594
Mof_O 	O 	0.747	0.2664	0.127	-0.569
Mof_O 	O 	0.7765	0.1503	0.2051	-0.508
Mof_O 	O 	0.6336	0.5286	0.1171	-0.591
Mof_O 	O 	0.6737	0.4034	0.1268	-0.552
Mof_O 	O 	0.6242	0.6155	0.296	-0.566
Mof_O 	O 	0.659	0.5471	0.4096	-0.595
Mof_C 	C 	0.5353	0.2919	0.9307	0.448
Mof_C 	C 	0.5759	0.2201	0.9887	-0.126
Mof_C 	C 	0.554	0.1467	0.9962	0.018
Mof_H 	H 	0.5133	0.1393	0.9631	-0.016
Mof_C 	C 	0.5941	0.085	0.0538	-0.116
Mof_H 	H 	0.5808	0.0348	0.0585	0.034
Mof_C 	C 	0.6559	0.1011	0.1051	0.011
Mof_H 	H 	0.684	0.0621	0.1453	0.006
Mof_C 	C 	0.6736	0.1762	0.0942	-0.11
Mof_C 	C 	0.7378	0.1997	0.1473	0.415
Mof_C 	C 	0.6622	0.4598	0.1534	0.415
Mof_C 	C 	0.684	0.444	0.238	-0.114
Mof_C 	C 	0.7259	0.383	0.2929	0.044
Mof_H 	H 	0.7438	0.3495	0.2804	-0.02
Mof_C 	C 	0.74	0.3741	0.3657	-0.143
Mof_H 	H 	0.7673	0.3328	0.4033	0.036
Mof_C 	C 	0.7147	0.4246	0.3844	0.048
Mof_H 	H 	0.7236	0.417	0.4335	-0.029
Mof_C 	C 	0.6755	0.4876	0.3293	-0.131
Mof_C 	C 	0.6501	0.5536	0.3454	0.434
Mof_Ce	Ce	0.16945	0.8718	0.01442	1.912
Mof_Ce	Ce	0.38997	0.63689	0.32709	1.905
Mof_N 	N 	0.1329	0.7326	0.0356	-0.186
Mof_N 	N 	0.1625	0.9976	0.2592	-0.183
Mof_O 	O 	0.0597	0.8536	0.9312	-0.577
Mof_O 	O 	0.9808	0.7821	0.8883	-0.595
Mof_O 	O 	0.247	0.7664	0.127	-0.568
Mof_O 	O 	0.2765	0.6503	0.2051	-0.509
Mof_O 	O 	0.1336	0.0286	0.1171	-0.59
Mof_O 	O 	0.1737	0.9034	0.1268	-0.551
Mof_O 	O 	0.1242	0.1155	0.296	-0.567
Mof_O 	O 	0.159	0.0471	0.4096	-0.595
Mof_C 	C 	0.0353	0.7919	0.9307	0.449
Mof_C 	C 	0.0759	0.7201	0.9887	-0.125
Mof_C 	C 	0.054	0.6467	0.9962	0.023
Mof_H 	H 	0.0133	0.6393	0.9631	-0.018
Mof_C 	C 	0.0941	0.585	0.0538	-0.122
Mof_H 	H 	0.0808	0.5348	0.0585	0.035
Mof_C 	C 	0.1559	0.6011	0.1051	0.013
Mof_H 	H 	0.184	0.5621	0.1453	0.005
Mof_C 	C 	0.1736	0.6762	0.0942	-0.111
Mof_C 	C 	0.2378	0.6997	0.1473	0.415
Mof_C 	C 	0.1622	0.9598	0.1534	0.413
Mof_C 	C 	0.184	0.944	0.238	-0.114
Mof_C 	C 	0.2259	0.883	0.2929	0.043
Mof_H 	H 	0.2438	0.8495	0.2804	-0.02
Mof_C 	C 	0.24	0.8741	0.3657	-0.144
Mof_H 	H 	0.2673	0.8328	0.4033	0.036
Mof_C 	C 	0.2147	0.9246	0.3844	0.048
Mof_H 	H 	0.2236	0.917	0.4335	-0.029
Mof_C 	C 	0.1755	0.9876	0.3293	-0.132
Mof_C 	C 	0.1501	0.0536	0.3454	0.434
Mof_Ce	Ce	0.33055	0.3718	0.48558	1.916
Mof_Ce	Ce	0.11003	0.13689	0.17291	1.906
Mof_N 	N 	0.3671	0.2326	0.4644	-0.186
Mof_N 	N 	0.3375	0.4976	0.2408	-0.183
Mof_O 	O 	0.4403	0.3536	0.5688	-0.578
Mof_O 	O 	0.5192	0.2821	0.6117	-0.594
Mof_O 	O 	0.253	0.2664	0.373	-0.569
Mof_O 	O 	0.2235	0.1503	0.2949	-0.509
Mof_O 	O 	0.3664	0.5286	0.3829	-0.591
Mof_O 	O 	0.3263	0.4034	0.3732	-0.552
Mof_O 	O 	0.3758	0.6155	0.204	-0.567
Mof_O 	O 	0.341	0.5471	0.0904	-0.595
Mof_C 	C 	0.4647	0.2919	0.5693	0.448
Mof_C 	C 	0.4241	0.2201	0.5113	-0.126
Mof_C 	C 	0.446	0.1467	0.5038	0.021
Mof_H 	H 	0.4867	0.1393	0.5369	-0.017
Mof_C 	C 	0.4059	0.085	0.4462	-0.12
Mof_H 	H 	0.4192	0.0348	0.4415	0.034
Mof_C 	C 	0.3441	0.1011	0.3949	0.012
Mof_H 	H 	0.316	0.0621	0.3547	0.006
Mof_C 	C 	0.3264	0.1762	0.4058	-0.111
Mof_C 	C 	0.2622	0.1997	0.3527	0.415
Mof_C 	C 	0.3378	0.4598	0.3466	0.415
Mof_C 	C 	0.316	0.444	0.262	-0.114
Mof_C 	C 	0.2741	0.383	0.2071	0.044
Mof_H 	H 	0.2562	0.3495	0.2196	-0.02
Mof_C 	C 	0.26	0.3741	0.1343	-0.143
Mof_H 	H 	0.2327	0.3328	0.0967	0.036
Mof_C 	C 	0.2853	0.4246	0.1156	0.048
Mof_H 	H 	0.2764	0.417	0.0665	-0.028
Mof_C 	C 	0.3245	0.4876	0.1707	-0.131
Mof_C 	C 	0.3499	0.5536	0.1546	0.434
Mof_Ce	Ce	0.83055	0.8718	0.48558	1.915
Mof_Ce	Ce	0.61003	0.63689	0.17291	1.906
Mof_N 	N 	0.8671	0.7326	0.4644	-0.186
Mof_N 	N 	0.8375	0.9976	0.2408	-0.183
Mof_O 	O 	0.9403	0.8536	0.5688	-0.578
Mof_O 	O 	0.0192	0.7821	0.6117	-0.594
Mof_O 	O 	0.753	0.7664	0.373	-0.569
Mof_O 	O 	0.7235	0.6503	0.2949	-0.509
Mof_O 	O 	0.8664	0.0286	0.3829	-0.591
Mof_O 	O 	0.8263	0.9034	0.3732	-0.552
Mof_O 	O 	0.8758	0.1155	0.204	-0.566
Mof_O 	O 	0.841	0.0471	0.0904	-0.594
Mof_C 	C 	0.9647	0.7919	0.5693	0.448
Mof_C 	C 	0.9241	0.7201	0.5113	-0.126
Mof_C 	C 	0.946	0.6467	0.5038	0.021
Mof_H 	H 	0.9867	0.6393	0.5369	-0.018
Mof_C 	C 	0.9059	0.585	0.4462	-0.12
Mof_H 	H 	0.9192	0.5348	0.4415	0.034
Mof_C 	C 	0.8441	0.6011	0.3949	0.012
Mof_H 	H 	0.816	0.5621	0.3547	0.005
Mof_C 	C 	0.8264	0.6762	0.4058	-0.111
Mof_C 	C 	0.7622	0.6997	0.3527	0.415
Mof_C 	C 	0.8378	0.9598	0.3466	0.414
Mof_C 	C 	0.816	0.944	0.262	-0.115
Mof_C 	C 	0.7741	0.883	0.2071	0.044
Mof_H 	H 	0.7562	0.8495	0.2196	-0.02
Mof_C 	C 	0.76	0.8741	0.1343	-0.145
Mof_H 	H 	0.7327	0.8328	0.0967	0.036
Mof_C 	C 	0.7853	0.9246	0.1156	0.049
Mof_H 	H 	0.7764	0.917	0.0665	-0.029
Mof_C 	C 	0.8245	0.9876	0.1707	-0.134
Mof_C 	C 	0.8499	0.0536	0.1546	0.436
Mof_Ce	Ce	0.33055	0.6282	0.98558	1.921
Mof_Ce	Ce	0.11003	0.86311	0.67291	1.905
Mof_N 	N 	0.3671	0.7674	0.9644	-0.186
Mof_N 	N 	0.3375	0.5024	0.7408	-0.183
Mof_O 	O 	0.4403	0.6464	0.0688	-0.578
Mof_O 	O 	0.5192	0.7179	0.1117	-0.594
Mof_O 	O 	0.253	0.7336	0.873	-0.569
Mof_O 	O 	0.2235	0.8497	0.7949	-0.508
Mof_O 	O 	0.3664	0.4714	0.8829	-0.591
Mof_O 	O 	0.3263	0.5966	0.8732	-0.552
Mof_O 	O 	0.3758	0.3845	0.704	-0.566
Mof_O 	O 	0.341	0.4529	0.5904	-0.595
Mof_C 	C 	0.4647	0.7081	0.0693	0.448
Mof_C 	C 	0.4241	0.7799	0.0113	-0.126
Mof_C 	C 	0.446	0.8533	0.0038	0.018
Mof_H 	H 	0.4867	0.8607	0.0369	-0.016
Mof_C 	C 	0.4059	0.915	0.9462	-0.116
Mof_H 	H 	0.4192	0.9652	0.9415	0.034
Mof_C 	C 	0.3441	0.8989	0.8949	0.011
Mof_H 	H 	0.316	0.9379	0.8547	0.006
Mof_C 	C 	0.3264	0.8238	0.9058	-0.11
Mof_C 	C 	0.2622	0.8003	0.8527	0.415
Mof_C 	C 	0.3378	0.5402	0.8466	0.415
Mof_C 	C 	0.316	0.556	0.762	-0.114
Mof_C 	C 	0.2741	0.617	0.7071	0.044
Mof_H 	H 	0.2562	0.6505	0.7196	-0.02
Mof_C 	C 	0.26	0.6259	0.6343	-0.143
Mof_H 	H 	0.2327	0.6672	0.5967	0.036
Mof_C 	C 	0.2853	0.5754	0.6156	0.048
Mof_H 	H 	0.2764	0.583	0.5665	-0.029
Mof_C 	C 	0.3245	0.5124	0.6707	-0.131
Mof_C 	C 	0.3499	0.4464	0.6546	0.434
Mof_Ce	Ce	0.83055	0.1282	0.98558	1.912
Mof_Ce	Ce	0.61003	0.36311	0.67291	1.905
Mof_N 	N 	0.8671	0.2674	0.9644	-0.186
Mof_N 	N 	0.8375	0.0024	0.7408	-0.183
Mof_O 	O 	0.9403	0.1464	0.0688	-0.577
Mof_O 	O 	0.0192	0.2179	0.1117	-0.595
Mof_O 	O 	0.753	0.2336	0.873	-0.568
Mof_O 	O 	0.7235	0.3497	0.7949	-0.509
Mof_O 	O 	0.8664	0.9714	0.8829	-0.59
Mof_O 	O 	0.8263	0.0966	0.8732	-0.551
Mof_O 	O 	0.8758	0.8845	0.704	-0.567
Mof_O 	O 	0.841	0.9529	0.5904	-0.595
Mof_C 	C 	0.9647	0.2081	0.0693	0.449
Mof_C 	C 	0.9241	0.2799	0.0113	-0.125
Mof_C 	C 	0.946	0.3533	0.0038	0.023
Mof_H 	H 	0.9867	0.3607	0.0369	-0.018
Mof_C 	C 	0.9059	0.415	0.9462	-0.122
Mof_H 	H 	0.9192	0.4652	0.9415	0.035
Mof_C 	C 	0.8441	0.3989	0.8949	0.013
Mof_H 	H 	0.816	0.4379	0.8547	0.005
Mof_C 	C 	0.8264	0.3238	0.9058	-0.111
Mof_C 	C 	0.7622	0.3003	0.8527	0.415
Mof_C 	C 	0.8378	0.0402	0.8466	0.413
Mof_C 	C 	0.816	0.056	0.762	-0.114
Mof_C 	C 	0.7741	0.117	0.7071	0.043
Mof_H 	H 	0.7562	0.1505	0.7196	-0.02
Mof_C 	C 	0.76	0.1259	0.6343	-0.144
Mof_H 	H 	0.7327	0.1672	0.5967	0.036
Mof_C 	C 	0.7853	0.0754	0.6156	0.048
Mof_H 	H 	0.7764	0.083	0.5665	-0.029
Mof_C 	C 	0.8245	0.0124	0.6707	-0.132
Mof_C 	C 	0.8499	0.9464	0.6546	0.434
Mof_Ce	Ce	0.66945	0.6282	0.51442	1.916
Mof_Ce	Ce	0.88997	0.86311	0.82709	1.906
Mof_N 	N 	0.6329	0.7674	0.5356	-0.186
Mof_N 	N 	0.6625	0.5024	0.7592	-0.183
Mof_O 	O 	0.5597	0.6464	0.4312	-0.578
Mof_O 	O 	0.4808	0.7179	0.3883	-0.594
Mof_O 	O 	0.747	0.7336	0.627	-0.569
Mof_O 	O 	0.7765	0.8497	0.7051	-0.509
Mof_O 	O 	0.6336	0.4714	0.6171	-0.591
Mof_O 	O 	0.6737	0.5966	0.6268	-0.552
Mof_O 	O 	0.6242	0.3845	0.796	-0.567
Mof_O 	O 	0.659	0.4529	0.9096	-0.595
Mof_C 	C 	0.5353	0.7081	0.4307	0.448
Mof_C 	C 	0.5759	0.7799	0.4887	-0.126
Mof_C 	C 	0.554	0.8533	0.4962	0.021
Mof_H 	H 	0.5133	0.8607	0.4631	-0.017
Mof_C 	C 	0.5941	0.915	0.5538	-0.12
Mof_H 	H 	0.5808	0.9652	0.5585	0.034
Mof_C 	C 	0.6559	0.8989	0.6051	0.012
Mof_H 	H 	0.684	0.9379	0.6453	0.006
Mof_C 	C 	0.6736	0.8238	0.5942	-0.111
Mof_C 	C 	0.7378	0.8003	0.6473	0.415
Mof_C 	C 	0.6622	0.5402	0.6534	0.415
Mof_C 	C 	0.684	0.556	0.738	-0.114
Mof_C 	C 	0.7259	0.617	0.7929	0.044
Mof_H 	H 	0.7438	0.6505	0.7804	-0.02
Mof_C 	C 	0.74	0.6259	0.8657	-0.143
Mof_H 	H 	0.7673	0.6672	0.9033	0.036
Mof_C 	C 	0.7147	0.5754	0.8844	0.048
Mof_H 	H 	0.7236	0.583	0.9335	-0.028
Mof_C 	C 	0.6755	0.5124	0.8293	-0.131
Mof_C 	C 	0.6501	0.4464	0.8454	0.434
Mof_Ce	Ce	0.16945	0.1282	0.51442	1.915
Mof_Ce	Ce	0.38997	0.36311	0.82709	1.906
Mof_N 	N 	0.1329	0.2674	0.5356	-0.186
Mof_N 	N 	0.1625	0.0024	0.7592	-0.183
Mof_O 	O 	0.0597	0.1464	0.4312	-0.578
Mof_O 	O 	0.9808	0.2179	0.3883	-0.594
Mof_O 	O 	0.247	0.2336	0.627	-0.569
Mof_O 	O 	0.2765	0.3497	0.7051	-0.509
Mof_O 	O 	0.1336	0.9714	0.6171	-0.591
Mof_O 	O 	0.1737	0.0966	0.6268	-0.552
Mof_O 	O 	0.1242	0.8845	0.796	-0.566
Mof_O 	O 	0.159	0.9529	0.9096	-0.594
Mof_C 	C 	0.0353	0.2081	0.4307	0.448
Mof_C 	C 	0.0759	0.2799	0.4887	-0.126
Mof_C 	C 	0.054	0.3533	0.4962	0.021
Mof_H 	H 	0.0133	0.3607	0.4631	-0.018
Mof_C 	C 	0.0941	0.415	0.5538	-0.12
Mof_H 	H 	0.0808	0.4652	0.5585	0.034
Mof_C 	C 	0.1559	0.3989	0.6051	0.012
Mof_H 	H 	0.184	0.4379	0.6453	0.005
Mof_C 	C 	0.1736	0.3238	0.5942	-0.111
Mof_C 	C 	0.2378	0.3003	0.6473	0.415
Mof_C 	C 	0.1622	0.0402	0.6534	0.414
Mof_C 	C 	0.184	0.056	0.738	-0.115
Mof_C 	C 	0.2259	0.117	0.7929	0.044
Mof_H 	H 	0.2438	0.1505	0.7804	-0.02
Mof_C 	C 	0.24	0.1259	0.8657	-0.145
Mof_H 	H 	0.2673	0.1672	0.9033	0.036
Mof_C 	C 	0.2147	0.0754	0.8844	0.049
Mof_H 	H 	0.2236	0.083	0.9335	-0.029
Mof_C 	C 	0.1755	0.0124	0.8293	-0.134
Mof_C 	C 	0.1501	0.9464	0.8454	0.436
_end
