data_functionalizedCrystal
_audit_creation_method	'EQeq! by Chris Wilmer'
_symmetry_space_group_name_H-M	'P1'
_symmetry_Int_Tables_number	1
_symmetry_cell_setting	triclinic
loop_
_symmetry_equiv_pos_as_xyz
  x,y,z
_cell_length_a	26.939
_cell_length_b	12.335
_cell_length_c	33.458
_cell_angle_alpha	90
_cell_angle_beta	90
_cell_angle_gamma	90
loop_
_atom_site_label
_atom_site_type_symbol
_atom_site_fract_x
_atom_site_fract_y
_atom_site_fract_z
_atom_site_charge
Mof_Ag	Ag	0.77889	0.26124	0.63987	0.56
Mof_Fe	Fe	0.43123	0.47744	0.61377	0.783
Mof_C 	C 	0.4883	0.6649	0.64419	0.04
Mof_H 	H 	0.46	0.7107	0.644	0.013
Mof_C 	C 	0.5354	0.6976	0.6582	-0.043
Mof_H 	H 	0.5441	0.7661	0.6691	0.036
Mof_C 	C 	0.5652	0.6119	0.653	-0.108
Mof_H 	H 	0.5996	0.6091	0.6592	0.063
Mof_C 	C 	0.5367	0.526	0.63676	0.122
Mof_C 	C 	0.5525	0.421	0.62579	-0.153
Mof_C 	C 	0.5239	0.343	0.60873	0.123
Mof_C 	C 	0.5391	0.2369	0.5961	-0.105
Mof_H 	H 	0.5715	0.2069	0.5979	0.061
Mof_C 	C 	0.497	0.1867	0.5808	-0.055
Mof_H 	H 	0.4948	0.1153	0.5703	0.041
Mof_C 	C 	0.4591	0.2613	0.5839	0.043
Mof_H 	H 	0.4262	0.2471	0.5751	0.012
Mof_C 	C 	0.6058	0.3948	0.6334	0.15
Mof_C 	C 	0.6192	0.3176	0.66072	-0.207
Mof_H 	H 	0.5947	0.2822	0.6764	0.094
Mof_C 	C 	0.6678	0.2919	0.66528	0.109
Mof_H 	H 	0.6762	0.2384	0.6846	-0.029
Mof_C 	C 	0.6913	0.4158	0.619	0.112
Mof_H 	H 	0.7169	0.4525	0.605	-0.035
Mof_C 	C 	0.6441	0.4469	0.6119	-0.205
Mof_H 	H 	0.6368	0.5022	0.593	0.097
Mof_C 	C 	0.9708	0.8981	0.45432	0.024
Mof_H 	H 	0.9933	0.859	0.4379	0.011
Mof_C 	C 	0.9661	0.8852	0.4959	-0.032
Mof_H 	H 	0.9842	0.8358	0.5121	0.041
Mof_C 	C 	0.9318	0.9547	0.5085	-0.106
Mof_H 	H 	0.9213	0.9655	0.5353	0.067
Mof_C 	C 	0.9139	0.0091	0.4745	0.113
Mof_C 	C 	0.8733	0.0863	0.4721	-0.158
Mof_C 	C 	0.8538	0.1255	0.4377	0.12
Mof_C 	C 	0.8115	0.1967	0.4337	-0.103
Mof_H 	H 	0.7924	0.2274	0.4548	0.063
Mof_C 	C 	0.8044	0.2111	0.3938	-0.045
Mof_H 	H 	0.7787	0.2515	0.3814	0.042
Mof_C 	C 	0.8431	0.1537	0.3743	0.034
Mof_H 	H 	0.8478	0.1518	0.3462	0.008
Mof_C 	C 	0.8515	0.1203	0.51064	0.135
Mof_C 	C 	0.8807	0.1876	0.5375	-0.174
Mof_H 	H 	0.9142	0.2054	0.5314	0.085
Mof_C 	C 	0.8588	0.225	0.5722	0.087
Mof_H 	H 	0.8783	0.2669	0.5901	-0.02
Mof_C 	C 	0.7857	0.1376	0.5575	0.098
Mof_H 	H 	0.753	0.1179	0.5651	-0.027
Mof_C 	C 	0.80412	0.096	0.5226	-0.193
Mof_H 	H 	0.784	0.05	0.5066	0.09
Mof_C 	C 	0.8683	0.1675	0.901	0.039
Mof_H 	H 	0.8754	0.1659	0.9288	0.013
Mof_C 	C 	0.837	0.2431	0.8828	-0.047
Mof_H 	H 	0.8187	0.2995	0.8953	0.04
Mof_C 	C 	0.8385	0.218	0.8426	-0.111
Mof_H 	H 	0.8208	0.2539	0.8219	0.066
Mof_C 	C 	0.8711	0.1294	0.8378	0.129
Mof_C 	C 	0.8813	0.0739	0.8023	-0.145
Mof_C 	C 	0.908	0.9801	0.7992	0.12
Mof_C 	C 	0.9161	0.9184	0.7636	-0.101
Mof_H 	H 	0.9053	0.9359	0.7373	0.066
Mof_C 	C 	0.9427	0.8284	0.7751	-0.056
Mof_H 	H 	0.9552	0.7729	0.7582	0.041
Mof_C 	C 	0.9479	0.8347	0.8167	0.055
Mof_H 	H 	0.9641	0.7813	0.8325	0.007
Mof_C 	C 	0.8585	0.1209	0.7645	0.128
Mof_C 	C 	0.8215	0.0596	0.7436	-0.179
Mof_H 	H 	0.8114	0.9902	0.7528	0.085
Mof_C 	C 	0.8011	0.1045	0.7096	0.108
Mof_H 	H 	0.7756	0.0661	0.696	-0.033
Mof_C 	C 	0.8501	0.2583	0.7148	0.083
Mof_H 	H 	0.8593	0.3269	0.7042	-0.022
Mof_C 	C 	0.8725	0.2211	0.7502	-0.174
Mof_H 	H 	0.8966	0.2636	0.7638	0.085
Mof_N 	N 	0.48802	0.563	0.63123	-0.209
Mof_N 	N 	0.47287	0.3557	0.60028	-0.211
Mof_N 	N 	0.7048	0.3372	0.64432	-0.221
Mof_N 	N 	0.93912	0.9735	0.44143	-0.255
Mof_N 	N 	0.87147	0.1037	0.40012	-0.259
Mof_N 	N 	0.81114	0.205	0.58192	-0.21
Mof_N 	N 	0.88714	0.0972	0.87432	-0.213
Mof_N 	N 	0.92802	0.9214	0.83121	-0.21
Mof_N 	N 	0.8154	0.1974	0.69556	-0.211
Mof_Co	Co	0.93123	0.02256	0.38623	1.169
Mof_Ag	Ag	0.27889	0.23876	0.36013	0.558
Mof_C 	C 	0.9883	0.8351	0.35581	0.028
Mof_H 	H 	0.96	0.7893	0.356	0.011
Mof_C 	C 	0.0354	0.8024	0.3418	-0.039
Mof_H 	H 	0.0441	0.7339	0.3309	0.034
Mof_C 	C 	0.0652	0.8881	0.347	-0.105
Mof_H 	H 	0.0996	0.8909	0.3408	0.063
Mof_C 	C 	0.0367	0.974	0.36324	0.114
Mof_C 	C 	0.0525	0.079	0.37421	-0.163
Mof_C 	C 	0.0239	0.157	0.39127	0.115
Mof_C 	C 	0.0391	0.2631	0.4039	-0.103
Mof_H 	H 	0.0715	0.2931	0.4021	0.06
Mof_C 	C 	0.997	0.3133	0.4192	-0.049
Mof_H 	H 	0.9948	0.3847	0.4297	0.039
Mof_C 	C 	0.9591	0.2387	0.4161	0.03
Mof_H 	H 	0.9262	0.2529	0.4249	0.011
Mof_C 	C 	0.1058	0.1052	0.3666	0.157
Mof_C 	C 	0.1192	0.1824	0.33928	-0.211
Mof_H 	H 	0.0947	0.2178	0.3236	0.096
Mof_C 	C 	0.1678	0.2081	0.33472	0.111
Mof_H 	H 	0.1762	0.2616	0.3154	-0.03
Mof_C 	C 	0.1913	0.0842	0.381	0.114
Mof_H 	H 	0.2169	0.0475	0.395	-0.036
Mof_C 	C 	0.1441	0.0531	0.3881	-0.211
Mof_H 	H 	0.1368	0.9978	0.407	0.1
Mof_C 	C 	0.4708	0.6019	0.54568	0.037
Mof_H 	H 	0.4933	0.641	0.5621	0.012
Mof_C 	C 	0.4661	0.6148	0.5041	-0.038
Mof_H 	H 	0.4842	0.6642	0.4879	0.043
Mof_C 	C 	0.4318	0.5453	0.4915	-0.109
Mof_H 	H 	0.4213	0.5345	0.4647	0.068
Mof_C 	C 	0.4139	0.4909	0.5255	0.122
Mof_C 	C 	0.3733	0.4137	0.5279	-0.148
Mof_C 	C 	0.3538	0.3745	0.5623	0.128
Mof_C 	C 	0.3115	0.3033	0.5663	-0.105
Mof_H 	H 	0.2924	0.2726	0.5452	0.064
Mof_C 	C 	0.3044	0.2889	0.6062	-0.051
Mof_H 	H 	0.2787	0.2485	0.6186	0.043
Mof_C 	C 	0.3431	0.3463	0.6257	0.047
Mof_H 	H 	0.3478	0.3482	0.6538	0.01
Mof_C 	C 	0.3515	0.3797	0.48936	0.129
Mof_C 	C 	0.3807	0.3124	0.4625	-0.171
Mof_H 	H 	0.4142	0.2946	0.4686	0.084
Mof_C 	C 	0.3588	0.275	0.4278	0.085
Mof_H 	H 	0.3783	0.2331	0.4099	-0.019
Mof_C 	C 	0.2857	0.3624	0.4425	0.096
Mof_H 	H 	0.253	0.3821	0.4349	-0.026
Mof_C 	C 	0.30412	0.404	0.4774	-0.189
Mof_H 	H 	0.284	0.45	0.4934	0.089
Mof_C 	C 	0.3683	0.3325	0.099	0.025
Mof_H 	H 	0.3754	0.3341	0.0712	0.012
Mof_C 	C 	0.337	0.2569	0.1172	-0.04
Mof_H 	H 	0.3187	0.2005	0.1047	0.038
Mof_C 	C 	0.3385	0.282	0.1574	-0.11
Mof_H 	H 	0.3208	0.2461	0.1781	0.065
Mof_C 	C 	0.3711	0.3706	0.1622	0.121
Mof_C 	C 	0.3813	0.4261	0.1977	-0.156
Mof_C 	C 	0.408	0.5199	0.2008	0.112
Mof_C 	C 	0.4161	0.5816	0.2364	-0.098
Mof_H 	H 	0.4053	0.5641	0.2627	0.066
Mof_C 	C 	0.4427	0.6716	0.2249	-0.052
Mof_H 	H 	0.4552	0.7271	0.2418	0.04
Mof_C 	C 	0.4479	0.6653	0.1833	0.046
Mof_H 	H 	0.4641	0.7187	0.1675	0.006
Mof_C 	C 	0.3585	0.3791	0.2355	0.135
Mof_C 	C 	0.3215	0.4404	0.2564	-0.186
Mof_H 	H 	0.3114	0.5098	0.2472	0.088
Mof_C 	C 	0.3011	0.3955	0.2904	0.111
Mof_H 	H 	0.2756	0.4339	0.304	-0.034
Mof_C 	C 	0.3501	0.2417	0.2852	0.085
Mof_H 	H 	0.3593	0.1731	0.2958	-0.023
Mof_C 	C 	0.3725	0.2789	0.2498	-0.178
Mof_H 	H 	0.3966	0.2364	0.2362	0.086
Mof_N 	N 	0.98802	0.937	0.36877	-0.255
Mof_N 	N 	0.97287	0.1443	0.39972	-0.259
Mof_N 	N 	0.2048	0.1628	0.35568	-0.222
Mof_N 	N 	0.43912	0.5265	0.55857	-0.209
Mof_N 	N 	0.37147	0.3963	0.59988	-0.213
Mof_N 	N 	0.31114	0.295	0.41808	-0.21
Mof_N 	N 	0.38714	0.4028	0.12568	-0.26
Mof_N 	N 	0.42802	0.5786	0.16879	-0.256
Mof_N 	N 	0.3154	0.3026	0.30444	-0.212
Mof_Ag	Ag	0.27889	0.76124	0.86013	0.558
Mof_Fe	Fe	0.93123	0.97744	0.88623	0.78
Mof_C 	C 	0.9883	0.1649	0.85581	0.039
Mof_H 	H 	0.96	0.2107	0.856	0.012
Mof_C 	C 	0.0354	0.1976	0.8418	-0.043
Mof_H 	H 	0.0441	0.2661	0.8309	0.035
Mof_C 	C 	0.0652	0.1119	0.847	-0.109
Mof_H 	H 	0.0996	0.1091	0.8408	0.064
Mof_C 	C 	0.0367	0.026	0.86324	0.125
Mof_C 	C 	0.0525	0.921	0.87421	-0.156
Mof_C 	C 	0.0239	0.843	0.89127	0.124
Mof_C 	C 	0.0391	0.7369	0.9039	-0.106
Mof_H 	H 	0.0715	0.7069	0.9021	0.061
Mof_C 	C 	0.997	0.6867	0.9192	-0.054
Mof_H 	H 	0.9948	0.6153	0.9297	0.04
Mof_C 	C 	0.9591	0.7613	0.9161	0.042
Mof_H 	H 	0.9262	0.7471	0.9249	0.012
Mof_C 	C 	0.1058	0.8948	0.8666	0.152
Mof_C 	C 	0.1192	0.8176	0.83928	-0.209
Mof_H 	H 	0.0947	0.7822	0.8236	0.095
Mof_C 	C 	0.1678	0.7919	0.83472	0.11
Mof_H 	H 	0.1762	0.7384	0.8154	-0.029
Mof_C 	C 	0.1913	0.9158	0.881	0.114
Mof_H 	H 	0.2169	0.9525	0.895	-0.036
Mof_C 	C 	0.1441	0.9469	0.8881	-0.209
Mof_H 	H 	0.1368	0.0022	0.907	0.1
Mof_C 	C 	0.4708	0.3981	0.04568	0.024
Mof_H 	H 	0.4933	0.359	0.0621	0.011
Mof_C 	C 	0.4661	0.3852	0.0041	-0.032
Mof_H 	H 	0.4842	0.3358	0.9879	0.041
Mof_C 	C 	0.4318	0.4547	0.9915	-0.107
Mof_H 	H 	0.4213	0.4655	0.9647	0.067
Mof_C 	C 	0.4139	0.5091	0.0255	0.114
Mof_C 	C 	0.3733	0.5863	0.0279	-0.158
Mof_C 	C 	0.3538	0.6255	0.0623	0.121
Mof_C 	C 	0.3115	0.6967	0.0663	-0.103
Mof_H 	H 	0.2924	0.7274	0.0452	0.063
Mof_C 	C 	0.3044	0.7111	0.1062	-0.045
Mof_H 	H 	0.2787	0.7515	0.1186	0.042
Mof_C 	C 	0.3431	0.6537	0.1257	0.034
Mof_H 	H 	0.3478	0.6518	0.1538	0.008
Mof_C 	C 	0.3515	0.6203	0.98936	0.135
Mof_C 	C 	0.3807	0.6876	0.9625	-0.174
Mof_H 	H 	0.4142	0.7054	0.9686	0.085
Mof_C 	C 	0.3588	0.725	0.9278	0.087
Mof_H 	H 	0.3783	0.7669	0.9099	-0.02
Mof_C 	C 	0.2857	0.6376	0.9425	0.098
Mof_H 	H 	0.253	0.6179	0.9349	-0.027
Mof_C 	C 	0.30412	0.596	0.9774	-0.193
Mof_H 	H 	0.284	0.55	0.9934	0.09
Mof_C 	C 	0.3683	0.6675	0.599	0.039
Mof_H 	H 	0.3754	0.6659	0.5712	0.013
Mof_C 	C 	0.337	0.7431	0.6172	-0.046
Mof_H 	H 	0.3187	0.7995	0.6047	0.04
Mof_C 	C 	0.3385	0.718	0.6574	-0.112
Mof_H 	H 	0.3208	0.7539	0.6781	0.066
Mof_C 	C 	0.3711	0.6294	0.6622	0.13
Mof_C 	C 	0.3813	0.5739	0.6977	-0.148
Mof_C 	C 	0.408	0.4801	0.7008	0.123
Mof_C 	C 	0.4161	0.4184	0.7364	-0.102
Mof_H 	H 	0.4053	0.4359	0.7627	0.067
Mof_C 	C 	0.4427	0.3284	0.7249	-0.055
Mof_H 	H 	0.4552	0.2729	0.7418	0.041
Mof_C 	C 	0.4479	0.3347	0.6833	0.055
Mof_H 	H 	0.4641	0.2813	0.6675	0.007
Mof_C 	C 	0.3585	0.6209	0.7355	0.129
Mof_C 	C 	0.3215	0.5596	0.7564	-0.183
Mof_H 	H 	0.3114	0.4902	0.7472	0.087
Mof_C 	C 	0.3011	0.6045	0.7904	0.109
Mof_H 	H 	0.2756	0.5661	0.804	-0.034
Mof_C 	C 	0.3501	0.7583	0.7852	0.083
Mof_H 	H 	0.3593	0.8269	0.7958	-0.023
Mof_C 	C 	0.3725	0.7211	0.7498	-0.176
Mof_H 	H 	0.3966	0.7636	0.7362	0.085
Mof_N 	N 	0.98802	0.063	0.86877	-0.209
Mof_N 	N 	0.97287	0.8557	0.89972	-0.211
Mof_N 	N 	0.2048	0.8372	0.85568	-0.222
Mof_N 	N 	0.43912	0.4735	0.05857	-0.255
Mof_N 	N 	0.37147	0.6037	0.09988	-0.259
Mof_N 	N 	0.31114	0.705	0.91808	-0.21
Mof_N 	N 	0.38714	0.5972	0.62568	-0.214
Mof_N 	N 	0.42802	0.4214	0.66879	-0.21
Mof_N 	N 	0.3154	0.6974	0.80444	-0.211
Mof_Co	Co	0.43123	0.52256	0.11377	1.17
Mof_Ag	Ag	0.77889	0.73876	0.13987	0.559
Mof_C 	C 	0.4883	0.3351	0.14419	0.028
Mof_H 	H 	0.46	0.2893	0.144	0.011
Mof_C 	C 	0.5354	0.3024	0.1582	-0.039
Mof_H 	H 	0.5441	0.2339	0.1691	0.034
Mof_C 	C 	0.5652	0.3881	0.153	-0.104
Mof_H 	H 	0.5996	0.3909	0.1592	0.062
Mof_C 	C 	0.5367	0.474	0.13676	0.113
Mof_C 	C 	0.5525	0.579	0.12579	-0.162
Mof_C 	C 	0.5239	0.657	0.10873	0.115
Mof_C 	C 	0.5391	0.7631	0.0961	-0.103
Mof_H 	H 	0.5715	0.7931	0.0979	0.061
Mof_C 	C 	0.497	0.8133	0.0808	-0.049
Mof_H 	H 	0.4948	0.8847	0.0703	0.039
Mof_C 	C 	0.4591	0.7387	0.0839	0.03
Mof_H 	H 	0.4262	0.7529	0.0751	0.011
Mof_C 	C 	0.6058	0.6052	0.1334	0.156
Mof_C 	C 	0.6192	0.6824	0.16072	-0.211
Mof_H 	H 	0.5947	0.7178	0.1764	0.096
Mof_C 	C 	0.6678	0.7081	0.16528	0.111
Mof_H 	H 	0.6762	0.7616	0.1846	-0.029
Mof_C 	C 	0.6913	0.5842	0.119	0.114
Mof_H 	H 	0.7169	0.5475	0.105	-0.036
Mof_C 	C 	0.6441	0.5531	0.1119	-0.209
Mof_H 	H 	0.6368	0.4978	0.093	0.099
Mof_C 	C 	0.9708	0.1019	0.95432	0.036
Mof_H 	H 	0.9933	0.141	0.9379	0.012
Mof_C 	C 	0.9661	0.1148	0.9959	-0.036
Mof_H 	H 	0.9842	0.1642	0.0121	0.042
Mof_C 	C 	0.9318	0.0453	0.0085	-0.11
Mof_H 	H 	0.9213	0.0345	0.0353	0.068
Mof_C 	C 	0.9139	0.9909	0.9745	0.122
Mof_C 	C 	0.8733	0.9137	0.9721	-0.149
Mof_C 	C 	0.8538	0.8745	0.9377	0.128
Mof_C 	C 	0.8115	0.8033	0.9337	-0.105
Mof_H 	H 	0.7924	0.7726	0.9548	0.063
Mof_C 	C 	0.8044	0.7889	0.8938	-0.051
Mof_H 	H 	0.7787	0.7485	0.8814	0.043
Mof_C 	C 	0.8431	0.8463	0.8743	0.047
Mof_H 	H 	0.8478	0.8482	0.8462	0.01
Mof_C 	C 	0.8515	0.8797	0.01064	0.13
Mof_C 	C 	0.8807	0.8124	0.0375	-0.171
Mof_H 	H 	0.9142	0.7946	0.0314	0.084
Mof_C 	C 	0.8588	0.775	0.0722	0.085
Mof_H 	H 	0.8783	0.7331	0.0901	-0.019
Mof_C 	C 	0.7857	0.8624	0.0575	0.097
Mof_H 	H 	0.753	0.8821	0.0651	-0.026
Mof_C 	C 	0.80412	0.904	0.0226	-0.189
Mof_H 	H 	0.784	0.95	0.0066	0.089
Mof_C 	C 	0.8683	0.8325	0.401	0.025
Mof_H 	H 	0.8754	0.8341	0.4288	0.012
Mof_C 	C 	0.837	0.7569	0.3828	-0.04
Mof_H 	H 	0.8187	0.7005	0.3953	0.039
Mof_C 	C 	0.8385	0.782	0.3426	-0.109
Mof_H 	H 	0.8208	0.7461	0.3219	0.065
Mof_C 	C 	0.8711	0.8706	0.3378	0.121
Mof_C 	C 	0.8813	0.9261	0.3023	-0.153
Mof_C 	C 	0.908	0.0199	0.2992	0.109
Mof_C 	C 	0.9161	0.0816	0.2636	-0.096
Mof_H 	H 	0.9053	0.0641	0.2373	0.065
Mof_C 	C 	0.9427	0.1716	0.2751	-0.052
Mof_H 	H 	0.9552	0.2271	0.2582	0.04
Mof_C 	C 	0.9479	0.1653	0.3167	0.046
Mof_H 	H 	0.9641	0.2187	0.3325	0.005
Mof_C 	C 	0.8585	0.8791	0.2645	0.133
Mof_C 	C 	0.8215	0.9404	0.2436	-0.181
Mof_H 	H 	0.8114	0.0098	0.2528	0.085
Mof_C 	C 	0.8011	0.8955	0.2096	0.109
Mof_H 	H 	0.7756	0.9339	0.196	-0.033
Mof_C 	C 	0.8501	0.7417	0.2148	0.084
Mof_H 	H 	0.8593	0.6731	0.2042	-0.023
Mof_C 	C 	0.8725	0.7789	0.2502	-0.177
Mof_H 	H 	0.8966	0.7364	0.2638	0.086
Mof_N 	N 	0.48802	0.437	0.13123	-0.256
Mof_N 	N 	0.47287	0.6443	0.10028	-0.259
Mof_N 	N 	0.7048	0.6628	0.14432	-0.222
Mof_N 	N 	0.93912	0.0265	0.94143	-0.208
Mof_N 	N 	0.87147	0.8963	0.90012	-0.213
Mof_N 	N 	0.81114	0.795	0.08192	-0.21
Mof_N 	N 	0.88714	0.9028	0.37432	-0.26
Mof_N 	N 	0.92802	0.0786	0.33121	-0.256
Mof_N 	N 	0.8154	0.8026	0.19556	-0.211
Mof_Ag	Ag	0.72111	0.23876	0.13987	0.558
Mof_Fe	Fe	0.06877	0.02256	0.11377	0.78
Mof_C 	C 	0.0117	0.8351	0.14419	0.039
Mof_H 	H 	0.04	0.7893	0.144	0.012
Mof_C 	C 	0.9646	0.8024	0.1582	-0.043
Mof_H 	H 	0.9559	0.7339	0.1691	0.035
Mof_C 	C 	0.9348	0.8881	0.153	-0.109
Mof_H 	H 	0.9004	0.8909	0.1592	0.064
Mof_C 	C 	0.9633	0.974	0.13676	0.125
Mof_C 	C 	0.9475	0.079	0.12579	-0.156
Mof_C 	C 	0.9761	0.157	0.10873	0.124
Mof_C 	C 	0.9609	0.2631	0.0961	-0.106
Mof_H 	H 	0.9285	0.2931	0.0979	0.061
Mof_C 	C 	0.003	0.3133	0.0808	-0.054
Mof_H 	H 	0.0052	0.3847	0.0703	0.04
Mof_C 	C 	0.0409	0.2387	0.0839	0.042
Mof_H 	H 	0.0738	0.2529	0.0751	0.012
Mof_C 	C 	0.8942	0.1052	0.1334	0.152
Mof_C 	C 	0.8808	0.1824	0.16072	-0.209
Mof_H 	H 	0.9053	0.2178	0.1764	0.095
Mof_C 	C 	0.8322	0.2081	0.16528	0.11
Mof_H 	H 	0.8238	0.2616	0.1846	-0.029
Mof_C 	C 	0.8087	0.0842	0.119	0.114
Mof_H 	H 	0.7831	0.0475	0.105	-0.036
Mof_C 	C 	0.8559	0.0531	0.1119	-0.209
Mof_H 	H 	0.8632	0.9978	0.093	0.1
Mof_C 	C 	0.5292	0.6019	0.95432	0.024
Mof_H 	H 	0.5067	0.641	0.9379	0.011
Mof_C 	C 	0.5339	0.6148	0.9959	-0.032
Mof_H 	H 	0.5158	0.6642	0.0121	0.041
Mof_C 	C 	0.5682	0.5453	0.0085	-0.107
Mof_H 	H 	0.5787	0.5345	0.0353	0.067
Mof_C 	C 	0.5861	0.4909	0.9745	0.114
Mof_C 	C 	0.6267	0.4137	0.9721	-0.158
Mof_C 	C 	0.6462	0.3745	0.9377	0.121
Mof_C 	C 	0.6885	0.3033	0.9337	-0.103
Mof_H 	H 	0.7076	0.2726	0.9548	0.063
Mof_C 	C 	0.6956	0.2889	0.8938	-0.045
Mof_H 	H 	0.7213	0.2485	0.8814	0.042
Mof_C 	C 	0.6569	0.3463	0.8743	0.034
Mof_H 	H 	0.6522	0.3482	0.8462	0.008
Mof_C 	C 	0.6485	0.3797	0.01064	0.135
Mof_C 	C 	0.6193	0.3124	0.0375	-0.174
Mof_H 	H 	0.5858	0.2946	0.0314	0.085
Mof_C 	C 	0.6412	0.275	0.0722	0.087
Mof_H 	H 	0.6217	0.2331	0.0901	-0.02
Mof_C 	C 	0.7143	0.3624	0.0575	0.098
Mof_H 	H 	0.747	0.3821	0.0651	-0.027
Mof_C 	C 	0.69588	0.404	0.0226	-0.193
Mof_H 	H 	0.716	0.45	0.0066	0.09
Mof_C 	C 	0.6317	0.3325	0.401	0.039
Mof_H 	H 	0.6246	0.3341	0.4288	0.013
Mof_C 	C 	0.663	0.2569	0.3828	-0.046
Mof_H 	H 	0.6813	0.2005	0.3953	0.04
Mof_C 	C 	0.6615	0.282	0.3426	-0.112
Mof_H 	H 	0.6792	0.2461	0.3219	0.066
Mof_C 	C 	0.6289	0.3706	0.3378	0.13
Mof_C 	C 	0.6187	0.4261	0.3023	-0.148
Mof_C 	C 	0.592	0.5199	0.2992	0.123
Mof_C 	C 	0.5839	0.5816	0.2636	-0.102
Mof_H 	H 	0.5947	0.5641	0.2373	0.067
Mof_C 	C 	0.5573	0.6716	0.2751	-0.055
Mof_H 	H 	0.5448	0.7271	0.2582	0.041
Mof_C 	C 	0.5521	0.6653	0.3167	0.055
Mof_H 	H 	0.5359	0.7187	0.3325	0.007
Mof_C 	C 	0.6415	0.3791	0.2645	0.129
Mof_C 	C 	0.6785	0.4404	0.2436	-0.183
Mof_H 	H 	0.6886	0.5098	0.2528	0.087
Mof_C 	C 	0.6989	0.3955	0.2096	0.109
Mof_H 	H 	0.7244	0.4339	0.196	-0.034
Mof_C 	C 	0.6499	0.2417	0.2148	0.083
Mof_H 	H 	0.6407	0.1731	0.2042	-0.023
Mof_C 	C 	0.6275	0.2789	0.2502	-0.176
Mof_H 	H 	0.6034	0.2364	0.2638	0.085
Mof_N 	N 	0.01198	0.937	0.13123	-0.209
Mof_N 	N 	0.02713	0.1443	0.10028	-0.211
Mof_N 	N 	0.7952	0.1628	0.14432	-0.222
Mof_N 	N 	0.56088	0.5265	0.94143	-0.255
Mof_N 	N 	0.62853	0.3963	0.90012	-0.259
Mof_N 	N 	0.68886	0.295	0.08192	-0.21
Mof_N 	N 	0.61286	0.4028	0.37432	-0.214
Mof_N 	N 	0.57198	0.5786	0.33121	-0.21
Mof_N 	N 	0.6846	0.3026	0.19556	-0.211
Mof_Co	Co	0.56877	0.47744	0.88623	1.17
Mof_Ag	Ag	0.22111	0.26124	0.86013	0.559
Mof_C 	C 	0.5117	0.6649	0.85581	0.028
Mof_H 	H 	0.54	0.7107	0.856	0.011
Mof_C 	C 	0.4646	0.6976	0.8418	-0.039
Mof_H 	H 	0.4559	0.7661	0.8309	0.034
Mof_C 	C 	0.4348	0.6119	0.847	-0.104
Mof_H 	H 	0.4004	0.6091	0.8408	0.062
Mof_C 	C 	0.4633	0.526	0.86324	0.113
Mof_C 	C 	0.4475	0.421	0.87421	-0.162
Mof_C 	C 	0.4761	0.343	0.89127	0.115
Mof_C 	C 	0.4609	0.2369	0.9039	-0.103
Mof_H 	H 	0.4285	0.2069	0.9021	0.061
Mof_C 	C 	0.503	0.1867	0.9192	-0.049
Mof_H 	H 	0.5052	0.1153	0.9297	0.039
Mof_C 	C 	0.5409	0.2613	0.9161	0.03
Mof_H 	H 	0.5738	0.2471	0.9249	0.011
Mof_C 	C 	0.3942	0.3948	0.8666	0.156
Mof_C 	C 	0.3808	0.3176	0.83928	-0.211
Mof_H 	H 	0.4053	0.2822	0.8236	0.096
Mof_C 	C 	0.3322	0.2919	0.83472	0.111
Mof_H 	H 	0.3238	0.2384	0.8154	-0.029
Mof_C 	C 	0.3087	0.4158	0.881	0.114
Mof_H 	H 	0.2831	0.4525	0.895	-0.036
Mof_C 	C 	0.3559	0.4469	0.8881	-0.209
Mof_H 	H 	0.3632	0.5022	0.907	0.099
Mof_C 	C 	0.0292	0.8981	0.04568	0.036
Mof_H 	H 	0.0067	0.859	0.0621	0.012
Mof_C 	C 	0.0339	0.8852	0.0041	-0.036
Mof_H 	H 	0.0158	0.8358	0.9879	0.042
Mof_C 	C 	0.0682	0.9547	0.9915	-0.11
Mof_H 	H 	0.0787	0.9655	0.9647	0.068
Mof_C 	C 	0.0861	0.0091	0.0255	0.122
Mof_C 	C 	0.1267	0.0863	0.0279	-0.149
Mof_C 	C 	0.1462	0.1255	0.0623	0.128
Mof_C 	C 	0.1885	0.1967	0.0663	-0.105
Mof_H 	H 	0.2076	0.2274	0.0452	0.063
Mof_C 	C 	0.1956	0.2111	0.1062	-0.051
Mof_H 	H 	0.2213	0.2515	0.1186	0.043
Mof_C 	C 	0.1569	0.1537	0.1257	0.047
Mof_H 	H 	0.1522	0.1518	0.1538	0.01
Mof_C 	C 	0.1485	0.1203	0.98936	0.13
Mof_C 	C 	0.1193	0.1876	0.9625	-0.171
Mof_H 	H 	0.0858	0.2054	0.9686	0.084
Mof_C 	C 	0.1412	0.225	0.9278	0.085
Mof_H 	H 	0.1217	0.2669	0.9099	-0.019
Mof_C 	C 	0.2143	0.1376	0.9425	0.097
Mof_H 	H 	0.247	0.1179	0.9349	-0.026
Mof_C 	C 	0.19588	0.096	0.9774	-0.189
Mof_H 	H 	0.216	0.05	0.9934	0.089
Mof_C 	C 	0.1317	0.1675	0.599	0.025
Mof_H 	H 	0.1246	0.1659	0.5712	0.012
Mof_C 	C 	0.163	0.2431	0.6172	-0.04
Mof_H 	H 	0.1813	0.2995	0.6047	0.039
Mof_C 	C 	0.1615	0.218	0.6574	-0.109
Mof_H 	H 	0.1792	0.2539	0.6781	0.065
Mof_C 	C 	0.1289	0.1294	0.6622	0.121
Mof_C 	C 	0.1187	0.0739	0.6977	-0.153
Mof_C 	C 	0.092	0.9801	0.7008	0.109
Mof_C 	C 	0.0839	0.9184	0.7364	-0.096
Mof_H 	H 	0.0947	0.9359	0.7627	0.065
Mof_C 	C 	0.0573	0.8284	0.7249	-0.052
Mof_H 	H 	0.0448	0.7729	0.7418	0.04
Mof_C 	C 	0.0521	0.8347	0.6833	0.046
Mof_H 	H 	0.0359	0.7813	0.6675	0.005
Mof_C 	C 	0.1415	0.1209	0.7355	0.133
Mof_C 	C 	0.1785	0.0596	0.7564	-0.181
Mof_H 	H 	0.1886	0.9902	0.7472	0.085
Mof_C 	C 	0.1989	0.1045	0.7904	0.109
Mof_H 	H 	0.2244	0.0661	0.804	-0.033
Mof_C 	C 	0.1499	0.2583	0.7852	0.084
Mof_H 	H 	0.1407	0.3269	0.7958	-0.023
Mof_C 	C 	0.1275	0.2211	0.7498	-0.177
Mof_H 	H 	0.1034	0.2636	0.7362	0.086
Mof_N 	N 	0.51198	0.563	0.86877	-0.256
Mof_N 	N 	0.52713	0.3557	0.89972	-0.259
Mof_N 	N 	0.2952	0.3372	0.85568	-0.222
Mof_N 	N 	0.06088	0.9735	0.05857	-0.208
Mof_N 	N 	0.12853	0.1037	0.09988	-0.213
Mof_N 	N 	0.18886	0.205	0.91808	-0.21
Mof_N 	N 	0.11286	0.0972	0.62568	-0.26
Mof_N 	N 	0.07198	0.9214	0.66879	-0.256
Mof_N 	N 	0.1846	0.1974	0.80444	-0.211
Mof_Ag	Ag	0.22111	0.73876	0.36013	0.559
Mof_Fe	Fe	0.56877	0.52256	0.38623	0.782
Mof_C 	C 	0.5117	0.3351	0.35581	0.039
Mof_H 	H 	0.54	0.2893	0.356	0.012
Mof_C 	C 	0.4646	0.3024	0.3418	-0.044
Mof_H 	H 	0.4559	0.2339	0.3309	0.035
Mof_C 	C 	0.4348	0.3881	0.347	-0.108
Mof_H 	H 	0.4004	0.3909	0.3408	0.063
Mof_C 	C 	0.4633	0.474	0.36324	0.122
Mof_C 	C 	0.4475	0.579	0.37421	-0.153
Mof_C 	C 	0.4761	0.657	0.39127	0.123
Mof_C 	C 	0.4609	0.7631	0.4039	-0.105
Mof_H 	H 	0.4285	0.7931	0.4021	0.061
Mof_C 	C 	0.503	0.8133	0.4192	-0.055
Mof_H 	H 	0.5052	0.8847	0.4297	0.041
Mof_C 	C 	0.5409	0.7387	0.4161	0.043
Mof_H 	H 	0.5738	0.7529	0.4249	0.012
Mof_C 	C 	0.3942	0.6052	0.3666	0.15
Mof_C 	C 	0.3808	0.6824	0.33928	-0.207
Mof_H 	H 	0.4053	0.7178	0.3236	0.094
Mof_C 	C 	0.3322	0.7081	0.33472	0.109
Mof_H 	H 	0.3238	0.7616	0.3154	-0.029
Mof_C 	C 	0.3087	0.5842	0.381	0.112
Mof_H 	H 	0.2831	0.5475	0.395	-0.035
Mof_C 	C 	0.3559	0.5531	0.3881	-0.205
Mof_H 	H 	0.3632	0.4978	0.407	0.097
Mof_C 	C 	0.0292	0.1019	0.54568	0.024
Mof_H 	H 	0.0067	0.141	0.5621	0.011
Mof_C 	C 	0.0339	0.1148	0.5041	-0.032
Mof_H 	H 	0.0158	0.1642	0.4879	0.041
Mof_C 	C 	0.0682	0.0453	0.4915	-0.106
Mof_H 	H 	0.0787	0.0345	0.4647	0.067
Mof_C 	C 	0.0861	0.9909	0.5255	0.113
Mof_C 	C 	0.1267	0.9137	0.5279	-0.158
Mof_C 	C 	0.1462	0.8745	0.5623	0.12
Mof_C 	C 	0.1885	0.8033	0.5663	-0.103
Mof_H 	H 	0.2076	0.7726	0.5452	0.063
Mof_C 	C 	0.1956	0.7889	0.6062	-0.045
Mof_H 	H 	0.2213	0.7485	0.6186	0.042
Mof_C 	C 	0.1569	0.8463	0.6257	0.034
Mof_H 	H 	0.1522	0.8482	0.6538	0.008
Mof_C 	C 	0.1485	0.8797	0.48936	0.135
Mof_C 	C 	0.1193	0.8124	0.4625	-0.174
Mof_H 	H 	0.0858	0.7946	0.4686	0.085
Mof_C 	C 	0.1412	0.775	0.4278	0.087
Mof_H 	H 	0.1217	0.7331	0.4099	-0.02
Mof_C 	C 	0.2143	0.8624	0.4425	0.098
Mof_H 	H 	0.247	0.8821	0.4349	-0.027
Mof_C 	C 	0.19588	0.904	0.4774	-0.193
Mof_H 	H 	0.216	0.95	0.4934	0.09
Mof_C 	C 	0.1317	0.8325	0.099	0.039
Mof_H 	H 	0.1246	0.8341	0.0712	0.013
Mof_C 	C 	0.163	0.7569	0.1172	-0.047
Mof_H 	H 	0.1813	0.7005	0.1047	0.04
Mof_C 	C 	0.1615	0.782	0.1574	-0.111
Mof_H 	H 	0.1792	0.7461	0.1781	0.066
Mof_C 	C 	0.1289	0.8706	0.1622	0.129
Mof_C 	C 	0.1187	0.9261	0.1977	-0.145
Mof_C 	C 	0.092	0.0199	0.2008	0.12
Mof_C 	C 	0.0839	0.0816	0.2364	-0.101
Mof_H 	H 	0.0947	0.0641	0.2627	0.066
Mof_C 	C 	0.0573	0.1716	0.2249	-0.056
Mof_H 	H 	0.0448	0.2271	0.2418	0.041
Mof_C 	C 	0.0521	0.1653	0.1833	0.055
Mof_H 	H 	0.0359	0.2187	0.1675	0.007
Mof_C 	C 	0.1415	0.8791	0.2355	0.128
Mof_C 	C 	0.1785	0.9404	0.2564	-0.179
Mof_H 	H 	0.1886	0.0098	0.2472	0.085
Mof_C 	C 	0.1989	0.8955	0.2904	0.108
Mof_H 	H 	0.2244	0.9339	0.304	-0.033
Mof_C 	C 	0.1499	0.7417	0.2852	0.083
Mof_H 	H 	0.1407	0.6731	0.2958	-0.022
Mof_C 	C 	0.1275	0.7789	0.2498	-0.174
Mof_H 	H 	0.1034	0.7364	0.2362	0.085
Mof_N 	N 	0.51198	0.437	0.36877	-0.209
Mof_N 	N 	0.52713	0.6443	0.39972	-0.211
Mof_N 	N 	0.2952	0.6628	0.35568	-0.221
Mof_N 	N 	0.06088	0.0265	0.55857	-0.255
Mof_N 	N 	0.12853	0.8963	0.59988	-0.259
Mof_N 	N 	0.18886	0.795	0.41808	-0.21
Mof_N 	N 	0.11286	0.9028	0.12568	-0.213
Mof_N 	N 	0.07198	0.0786	0.16879	-0.21
Mof_N 	N 	0.1846	0.8026	0.30444	-0.211
Mof_Co	Co	0.06877	0.97744	0.61377	1.169
Mof_Ag	Ag	0.72111	0.76124	0.63987	0.558
Mof_C 	C 	0.0117	0.1649	0.64419	0.028
Mof_H 	H 	0.04	0.2107	0.644	0.011
Mof_C 	C 	0.9646	0.1976	0.6582	-0.039
Mof_H 	H 	0.9559	0.2661	0.6691	0.034
Mof_C 	C 	0.9348	0.1119	0.653	-0.105
Mof_H 	H 	0.9004	0.1091	0.6592	0.063
Mof_C 	C 	0.9633	0.026	0.63676	0.114
Mof_C 	C 	0.9475	0.921	0.62579	-0.163
Mof_C 	C 	0.9761	0.843	0.60873	0.115
Mof_C 	C 	0.9609	0.7369	0.5961	-0.103
Mof_H 	H 	0.9285	0.7069	0.5979	0.06
Mof_C 	C 	0.003	0.6867	0.5808	-0.049
Mof_H 	H 	0.0052	0.6153	0.5703	0.039
Mof_C 	C 	0.0409	0.7613	0.5839	0.03
Mof_H 	H 	0.0738	0.7471	0.5751	0.011
Mof_C 	C 	0.8942	0.8948	0.6334	0.157
Mof_C 	C 	0.8808	0.8176	0.66072	-0.211
Mof_H 	H 	0.9053	0.7822	0.6764	0.096
Mof_C 	C 	0.8322	0.7919	0.66528	0.111
Mof_H 	H 	0.8238	0.7384	0.6846	-0.03
Mof_C 	C 	0.8087	0.9158	0.619	0.114
Mof_H 	H 	0.7831	0.9525	0.605	-0.036
Mof_C 	C 	0.8559	0.9469	0.6119	-0.211
Mof_H 	H 	0.8632	0.0022	0.593	0.1
Mof_C 	C 	0.5292	0.3981	0.45432	0.037
Mof_H 	H 	0.5067	0.359	0.4379	0.012
Mof_C 	C 	0.5339	0.3852	0.4959	-0.038
Mof_H 	H 	0.5158	0.3358	0.5121	0.043
Mof_C 	C 	0.5682	0.4547	0.5085	-0.109
Mof_H 	H 	0.5787	0.4655	0.5353	0.068
Mof_C 	C 	0.5861	0.5091	0.4745	0.122
Mof_C 	C 	0.6267	0.5863	0.4721	-0.148
Mof_C 	C 	0.6462	0.6255	0.4377	0.128
Mof_C 	C 	0.6885	0.6967	0.4337	-0.105
Mof_H 	H 	0.7076	0.7274	0.4548	0.064
Mof_C 	C 	0.6956	0.7111	0.3938	-0.051
Mof_H 	H 	0.7213	0.7515	0.3814	0.043
Mof_C 	C 	0.6569	0.6537	0.3743	0.047
Mof_H 	H 	0.6522	0.6518	0.3462	0.01
Mof_C 	C 	0.6485	0.6203	0.51064	0.129
Mof_C 	C 	0.6193	0.6876	0.5375	-0.171
Mof_H 	H 	0.5858	0.7054	0.5314	0.084
Mof_C 	C 	0.6412	0.725	0.5722	0.085
Mof_H 	H 	0.6217	0.7669	0.5901	-0.019
Mof_C 	C 	0.7143	0.6376	0.5575	0.096
Mof_H 	H 	0.747	0.6179	0.5651	-0.026
Mof_C 	C 	0.69588	0.596	0.5226	-0.189
Mof_H 	H 	0.716	0.55	0.5066	0.089
Mof_C 	C 	0.6317	0.6675	0.901	0.025
Mof_H 	H 	0.6246	0.6659	0.9288	0.012
Mof_C 	C 	0.663	0.7431	0.8828	-0.04
Mof_H 	H 	0.6813	0.7995	0.8953	0.038
Mof_C 	C 	0.6615	0.718	0.8426	-0.11
Mof_H 	H 	0.6792	0.7539	0.8219	0.065
Mof_C 	C 	0.6289	0.6294	0.8378	0.121
Mof_C 	C 	0.6187	0.5739	0.8023	-0.156
Mof_C 	C 	0.592	0.4801	0.7992	0.112
Mof_C 	C 	0.5839	0.4184	0.7636	-0.098
Mof_H 	H 	0.5947	0.4359	0.7373	0.066
Mof_C 	C 	0.5573	0.3284	0.7751	-0.052
Mof_H 	H 	0.5448	0.2729	0.7582	0.04
Mof_C 	C 	0.5521	0.3347	0.8167	0.046
Mof_H 	H 	0.5359	0.2813	0.8325	0.006
Mof_C 	C 	0.6415	0.6209	0.7645	0.135
Mof_C 	C 	0.6785	0.5596	0.7436	-0.186
Mof_H 	H 	0.6886	0.4902	0.7528	0.088
Mof_C 	C 	0.6989	0.6045	0.7096	0.111
Mof_H 	H 	0.7244	0.5661	0.696	-0.034
Mof_C 	C 	0.6499	0.7583	0.7148	0.085
Mof_H 	H 	0.6407	0.8269	0.7042	-0.023
Mof_C 	C 	0.6275	0.7211	0.7502	-0.178
Mof_H 	H 	0.6034	0.7636	0.7638	0.086
Mof_N 	N 	0.01198	0.063	0.63123	-0.255
Mof_N 	N 	0.02713	0.8557	0.60028	-0.259
Mof_N 	N 	0.7952	0.8372	0.64432	-0.222
Mof_N 	N 	0.56088	0.4735	0.44143	-0.209
Mof_N 	N 	0.62853	0.6037	0.40012	-0.213
Mof_N 	N 	0.68886	0.705	0.58192	-0.21
Mof_N 	N 	0.61286	0.5972	0.87432	-0.26
Mof_N 	N 	0.57198	0.4214	0.83121	-0.256
Mof_N 	N 	0.6846	0.6974	0.69556	-0.212
_end
