data_functionalizedCrystal
_audit_creation_method	'EQeq! by Chris Wilmer'
_symmetry_space_group_name_H-M	'P1'
_symmetry_Int_Tables_number	1
_symmetry_cell_setting	triclinic
loop_
_symmetry_equiv_pos_as_xyz
  x,y,z
_cell_length_a	13.822
_cell_length_b	13.822
_cell_length_c	19.808
_cell_angle_alpha	90
_cell_angle_beta	90
_cell_angle_gamma	120
loop_
_atom_site_label
_atom_site_type_symbol
_atom_site_fract_x
_atom_site_fract_y
_atom_site_fract_z
_atom_site_charge
Mof_Gd	Gd	0.67827	0.74624	0.25	0.97
Mof_Gd	Gd	0.06797	0.32173	0.25	0.969
Mof_Gd	Gd	0.25376	0.93203	0.25	0.97
Mof_Gd	Gd	0.32173	0.25376	0.75	0.971
Mof_Gd	Gd	0.93203	0.67827	0.75	0.97
Mof_Gd	Gd	0.74624	0.06797	0.75	0.97
Mof_Re	Re	0.28616	0.75258	0.56029	0.403
Mof_Re	Re	0.46642	0.71384	0.56029	0.403
Mof_Re	Re	0.24742	0.53358	0.56029	0.403
Mof_Re	Re	0.71384	0.24742	0.06029	0.403
Mof_Re	Re	0.53358	0.28616	0.06029	0.403
Mof_Re	Re	0.75258	0.46642	0.06029	0.403
Mof_Re	Re	0.71384	0.24742	0.43971	0.403
Mof_Re	Re	0.53358	0.28616	0.43971	0.403
Mof_Re	Re	0.75258	0.46642	0.43971	0.403
Mof_Re	Re	0.28616	0.75258	0.93971	0.403
Mof_Re	Re	0.46642	0.71384	0.93971	0.403
Mof_Re	Re	0.24742	0.53358	0.93971	0.403
Mof_Re	Re	0.33333	0.66666	0.44452	0.395
Mof_Re	Re	0.66667	0.33334	0.94452	0.395
Mof_Re	Re	0.66667	0.33334	0.55548	0.395
Mof_Re	Re	0.33333	0.66666	0.05548	0.395
Mof_C 	C 	0.462	0.708	0.3748	-0.035
Mof_C 	C 	0.2308	0.8482	0.5102	-0.049
Mof_C 	C 	0.1497	0.7196	0.6232	-0.032
Mof_C 	C 	0.3623	0.8995	0.6183	-0.047
Mof_C 	C 	0.246	0.538	0.3748	-0.035
Mof_C 	C 	0.6174	0.7692	0.5102	-0.049
Mof_C 	C 	0.5699	0.8503	0.6232	-0.032
Mof_C 	C 	0.5372	0.6377	0.6183	-0.047
Mof_C 	C 	0.292	0.754	0.3748	-0.035
Mof_C 	C 	0.1518	0.3826	0.5102	-0.049
Mof_C 	C 	0.2804	0.4301	0.6232	-0.032
Mof_C 	C 	0.1005	0.4628	0.6183	-0.047
Mof_C 	C 	0.538	0.292	0.8748	-0.035
Mof_C 	C 	0.7692	0.1518	0.0102	-0.048
Mof_C 	C 	0.8503	0.2804	0.1232	-0.032
Mof_C 	C 	0.6377	0.1005	0.1183	-0.047
Mof_C 	C 	0.754	0.462	0.8748	-0.035
Mof_C 	C 	0.3826	0.2308	0.0102	-0.049
Mof_C 	C 	0.4301	0.1497	0.1232	-0.032
Mof_C 	C 	0.4628	0.3623	0.1183	-0.047
Mof_C 	C 	0.708	0.246	0.8748	-0.035
Mof_C 	C 	0.8482	0.6174	0.0102	-0.049
Mof_C 	C 	0.7196	0.5699	0.1232	-0.032
Mof_C 	C 	0.8995	0.5372	0.1183	-0.047
Mof_C 	C 	0.538	0.292	0.6252	-0.035
Mof_C 	C 	0.7692	0.1518	0.4898	-0.049
Mof_C 	C 	0.8503	0.2804	0.3768	-0.032
Mof_C 	C 	0.6377	0.1005	0.3817	-0.047
Mof_C 	C 	0.754	0.462	0.6252	-0.035
Mof_C 	C 	0.3826	0.2308	0.4898	-0.049
Mof_C 	C 	0.4301	0.1497	0.3768	-0.032
Mof_C 	C 	0.4628	0.3623	0.3817	-0.047
Mof_C 	C 	0.708	0.246	0.6252	-0.035
Mof_C 	C 	0.8482	0.6174	0.4898	-0.049
Mof_C 	C 	0.7196	0.5699	0.3768	-0.032
Mof_C 	C 	0.8995	0.5372	0.3817	-0.047
Mof_C 	C 	0.462	0.708	0.1252	-0.035
Mof_C 	C 	0.2308	0.8482	0.9898	-0.048
Mof_C 	C 	0.1497	0.7196	0.8768	-0.032
Mof_C 	C 	0.3623	0.8995	0.8817	-0.047
Mof_C 	C 	0.246	0.538	0.1252	-0.035
Mof_C 	C 	0.6174	0.7692	0.9898	-0.049
Mof_C 	C 	0.5699	0.8503	0.8768	-0.032
Mof_C 	C 	0.5372	0.6377	0.8817	-0.047
Mof_C 	C 	0.292	0.754	0.1252	-0.035
Mof_C 	C 	0.1518	0.3826	0.9898	-0.049
Mof_C 	C 	0.2804	0.4301	0.8768	-0.032
Mof_C 	C 	0.1005	0.4628	0.8817	-0.047
Mof_Se	Se	0.45563	0.85476	0.49037	-0.195
Mof_Se	Se	0.39913	0.54437	0.49037	-0.195
Mof_Se	Se	0.14524	0.60087	0.49037	-0.195
Mof_Se	Se	0.54437	0.14524	0.99037	-0.196
Mof_Se	Se	0.60087	0.45563	0.99037	-0.196
Mof_Se	Se	0.85476	0.39913	0.99037	-0.197
Mof_Se	Se	0.54437	0.14524	0.50963	-0.195
Mof_Se	Se	0.60087	0.45563	0.50963	-0.195
Mof_Se	Se	0.85476	0.39913	0.50963	-0.195
Mof_Se	Se	0.45563	0.85476	0.00963	-0.196
Mof_Se	Se	0.39913	0.54437	0.00963	-0.196
Mof_Se	Se	0.14524	0.60087	0.00963	-0.197
Mof_Se	Se	0.33333	0.66666	0.65383	-0.216
Mof_Se	Se	0.66667	0.33334	0.15383	-0.216
Mof_Se	Se	0.66667	0.33334	0.34617	-0.216
Mof_Se	Se	0.33333	0.66666	0.84617	-0.216
Mof_N 	N 	0.5332	0.7269	0.3361	-0.186
Mof_N 	N 	0.0784	0.7057	0.6597	-0.188
Mof_N 	N 	0.2006	0.9038	0.4835	-0.104
Mof_N 	N 	0.3986	0.9793	0.6499	-0.111
Mof_N 	N 	0.1937	0.4668	0.3361	-0.186
Mof_N 	N 	0.6273	0.9216	0.6597	-0.188
Mof_N 	N 	0.7032	0.7994	0.4835	-0.104
Mof_N 	N 	0.5807	0.6014	0.6499	-0.111
Mof_N 	N 	0.2731	0.8063	0.3361	-0.186
Mof_N 	N 	0.2943	0.3727	0.6597	-0.188
Mof_N 	N 	0.0962	0.2968	0.4835	-0.104
Mof_N 	N 	0.0207	0.4193	0.6499	-0.111
Mof_N 	N 	0.4668	0.2731	0.8361	-0.186
Mof_N 	N 	0.9216	0.2943	0.1597	-0.188
Mof_N 	N 	0.7994	0.0962	0.9835	-0.105
Mof_N 	N 	0.6014	0.0207	0.1499	-0.111
Mof_N 	N 	0.8063	0.5332	0.8361	-0.186
Mof_N 	N 	0.3727	0.0784	0.1597	-0.188
Mof_N 	N 	0.2968	0.2006	0.9835	-0.104
Mof_N 	N 	0.4193	0.3986	0.1499	-0.111
Mof_N 	N 	0.7269	0.1937	0.8361	-0.186
Mof_N 	N 	0.7057	0.6273	0.1597	-0.188
Mof_N 	N 	0.9038	0.7032	0.9835	-0.104
Mof_N 	N 	0.9793	0.5807	0.1499	-0.111
Mof_N 	N 	0.4668	0.2731	0.6639	-0.186
Mof_N 	N 	0.9216	0.2943	0.3403	-0.188
Mof_N 	N 	0.7994	0.0962	0.5165	-0.104
Mof_N 	N 	0.6014	0.0207	0.3501	-0.111
Mof_N 	N 	0.8063	0.5332	0.6639	-0.186
Mof_N 	N 	0.3727	0.0784	0.3403	-0.188
Mof_N 	N 	0.2968	0.2006	0.5165	-0.104
Mof_N 	N 	0.4193	0.3986	0.3501	-0.111
Mof_N 	N 	0.7269	0.1937	0.6639	-0.186
Mof_N 	N 	0.7057	0.6273	0.3403	-0.188
Mof_N 	N 	0.9038	0.7032	0.5165	-0.104
Mof_N 	N 	0.9793	0.5807	0.3501	-0.111
Mof_N 	N 	0.5332	0.7269	0.1639	-0.186
Mof_N 	N 	0.0784	0.7057	0.8403	-0.188
Mof_N 	N 	0.2006	0.9038	0.0165	-0.105
Mof_N 	N 	0.3986	0.9793	0.8501	-0.111
Mof_N 	N 	0.1937	0.4668	0.1639	-0.186
Mof_N 	N 	0.6273	0.9216	0.8403	-0.188
Mof_N 	N 	0.7032	0.7994	0.0165	-0.104
Mof_N 	N 	0.5807	0.6014	0.8501	-0.111
Mof_N 	N 	0.2731	0.8063	0.1639	-0.186
Mof_N 	N 	0.2943	0.3727	0.8403	-0.188
Mof_N 	N 	0.0962	0.2968	0.0165	-0.104
Mof_N 	N 	0.0207	0.4193	0.8501	-0.111
_end
