data_functionalizedCrystal
_audit_creation_method	'EQeq! by Chris Wilmer'
_symmetry_space_group_name_H-M	'P1'
_symmetry_Int_Tables_number	1
_symmetry_cell_setting	triclinic
loop_
_symmetry_equiv_pos_as_xyz
  x,y,z
_cell_length_a	16.679
_cell_length_b	16.679
_cell_length_c	19.05
_cell_angle_alpha	90
_cell_angle_beta	90
_cell_angle_gamma	120
loop_
_atom_site_label
_atom_site_type_symbol
_atom_site_fract_x
_atom_site_fract_y
_atom_site_fract_z
_atom_site_charge
Mof_O 	O 	0.4837	0.6517	0.7214	-0.421
Mof_N 	N 	0.551	0.3653	0.3757	-0.215
Mof_C 	C 	0.5046	0.3669	0.4312	0.111
Mof_H 	H 	0.4448	0.3186	0.4443	-0.019
Mof_C 	C 	0.6626	0.7615	0.809	0.065
Mof_H 	H 	0.6291	0.6958	0.8107	0.001
Mof_C 	C 	0.7577	0.8068	0.8103	-0.111
Mof_H 	H 	0.7893	0.7726	0.8099	0.077
Mof_C 	C 	0.4392	0.4198	0.5553	-0.218
Mof_H 	H 	0.3989	0.3611	0.5349	0.107
Mof_C 	C 	0.4115	0.4518	0.6126	0.13
Mof_H 	H 	0.3521	0.4126	0.6324	0.004
Mof_O 	O 	0.3483	0.832	0.7214	-0.42
Mof_N 	N 	0.6347	0.1857	0.3757	-0.214
Mof_C 	C 	0.6331	0.1377	0.4312	0.112
Mof_H 	H 	0.6814	0.1262	0.4443	-0.018
Mof_C 	C 	0.2385	0.9011	0.809	0.066
Mof_H 	H 	0.3042	0.9333	0.8107	0.002
Mof_C 	C 	0.1932	0.9509	0.8103	-0.113
Mof_H 	H 	0.2274	0.0167	0.8099	0.078
Mof_C 	C 	0.5802	0.0194	0.5553	-0.216
Mof_H 	H 	0.6389	0.0378	0.5349	0.106
Mof_C 	C 	0.5482	0.9597	0.6126	0.129
Mof_H 	H 	0.5874	0.9395	0.6324	0.005
Mof_O 	O 	0.168	0.5163	0.7214	-0.42
Mof_N 	N 	0.8143	0.449	0.3757	-0.214
Mof_C 	C 	0.8623	0.4954	0.4312	0.112
Mof_H 	H 	0.8738	0.5552	0.4443	-0.018
Mof_C 	C 	0.0989	0.3374	0.809	0.066
Mof_H 	H 	0.0667	0.3709	0.8107	0.002
Mof_C 	C 	0.0491	0.2423	0.8103	-0.112
Mof_H 	H 	0.9833	0.2107	0.8099	0.077
Mof_C 	C 	0.9806	0.5608	0.5553	-0.216
Mof_H 	H 	0.9622	0.6011	0.5349	0.106
Mof_C 	C 	0.0403	0.5885	0.6126	0.129
Mof_H 	H 	0.0605	0.6479	0.6324	0.005
Mof_O 	O 	0.5163	0.3483	0.2214	-0.42
Mof_N 	N 	0.449	0.6347	0.8757	-0.213
Mof_C 	C 	0.4954	0.6331	0.9312	0.113
Mof_H 	H 	0.5552	0.6814	0.9443	-0.014
Mof_C 	C 	0.3374	0.2385	0.309	0.064
Mof_H 	H 	0.3709	0.3042	0.3107	0.002
Mof_C 	C 	0.2423	0.1932	0.3103	-0.111
Mof_H 	H 	0.2107	0.2274	0.3099	0.075
Mof_C 	C 	0.5608	0.5802	0.0553	-0.208
Mof_H 	H 	0.6011	0.6389	0.0349	0.099
Mof_C 	C 	0.5885	0.5482	0.1126	0.121
Mof_H 	H 	0.6479	0.5874	0.1324	0.006
Mof_O 	O 	0.6517	0.168	0.2214	-0.42
Mof_N 	N 	0.3653	0.8143	0.8757	-0.213
Mof_C 	C 	0.3669	0.8623	0.9312	0.113
Mof_H 	H 	0.3186	0.8738	0.9443	-0.015
Mof_C 	C 	0.7615	0.0989	0.309	0.064
Mof_H 	H 	0.6958	0.0667	0.3107	0.002
Mof_C 	C 	0.8068	0.0491	0.3103	-0.11
Mof_H 	H 	0.7726	0.9833	0.3099	0.075
Mof_C 	C 	0.4198	0.9806	0.0553	-0.209
Mof_H 	H 	0.3611	0.9622	0.0349	0.099
Mof_C 	C 	0.4518	0.0403	0.1126	0.123
Mof_H 	H 	0.4126	0.0605	0.1324	0.006
Mof_O 	O 	0.832	0.4837	0.2214	-0.42
Mof_N 	N 	0.1857	0.551	0.8757	-0.213
Mof_C 	C 	0.1377	0.5046	0.9312	0.113
Mof_H 	H 	0.1262	0.4448	0.9443	-0.015
Mof_C 	C 	0.9011	0.6626	0.309	0.064
Mof_H 	H 	0.9333	0.6291	0.3107	0.002
Mof_C 	C 	0.9509	0.7577	0.3103	-0.11
Mof_H 	H 	0.0167	0.7893	0.3099	0.075
Mof_C 	C 	0.0194	0.4392	0.0553	-0.209
Mof_H 	H 	0.0378	0.3989	0.0349	0.099
Mof_C 	C 	0.9597	0.4115	0.1126	0.123
Mof_H 	H 	0.9395	0.3521	0.1324	0.006
Mof_O 	O 	0.3483	0.5163	0.7214	-0.42
Mof_N 	N 	0.6347	0.449	0.3757	-0.214
Mof_C 	C 	0.6331	0.4954	0.4312	0.112
Mof_H 	H 	0.6814	0.5552	0.4443	-0.018
Mof_C 	C 	0.2385	0.3374	0.809	0.066
Mof_H 	H 	0.3042	0.3709	0.8107	0.002
Mof_C 	C 	0.1932	0.2423	0.8103	-0.111
Mof_H 	H 	0.2274	0.2107	0.8099	0.077
Mof_C 	C 	0.5802	0.5608	0.5553	-0.218
Mof_H 	H 	0.6389	0.6011	0.5349	0.107
Mof_C 	C 	0.5482	0.5885	0.6126	0.13
Mof_H 	H 	0.5874	0.6479	0.6324	0.004
Mof_O 	O 	0.168	0.6517	0.7214	-0.42
Mof_N 	N 	0.8143	0.3653	0.3757	-0.214
Mof_C 	C 	0.8623	0.3669	0.4312	0.112
Mof_H 	H 	0.8738	0.3186	0.4443	-0.018
Mof_C 	C 	0.0989	0.7615	0.809	0.066
Mof_H 	H 	0.0667	0.6958	0.8107	0.002
Mof_C 	C 	0.0491	0.8068	0.8103	-0.113
Mof_H 	H 	0.9833	0.7726	0.8099	0.078
Mof_C 	C 	0.9806	0.4198	0.5553	-0.216
Mof_H 	H 	0.9622	0.3611	0.5349	0.106
Mof_C 	C 	0.0403	0.4518	0.6126	0.129
Mof_H 	H 	0.0605	0.4126	0.6324	0.005
Mof_O 	O 	0.4837	0.832	0.7214	-0.42
Mof_N 	N 	0.551	0.1857	0.3757	-0.214
Mof_C 	C 	0.5046	0.1377	0.4312	0.112
Mof_H 	H 	0.4448	0.1262	0.4443	-0.018
Mof_C 	C 	0.6626	0.9011	0.809	0.066
Mof_H 	H 	0.6291	0.9333	0.8107	0.002
Mof_C 	C 	0.7577	0.9509	0.8103	-0.112
Mof_H 	H 	0.7893	0.0167	0.8099	0.077
Mof_C 	C 	0.4392	0.0194	0.5553	-0.216
Mof_H 	H 	0.3989	0.0378	0.5349	0.106
Mof_C 	C 	0.4115	0.9597	0.6126	0.129
Mof_H 	H 	0.3521	0.9395	0.6324	0.005
Mof_O 	O 	0.6517	0.4837	0.2214	-0.42
Mof_N 	N 	0.3653	0.551	0.8757	-0.213
Mof_C 	C 	0.3669	0.5046	0.9312	0.113
Mof_H 	H 	0.3186	0.4448	0.9443	-0.014
Mof_C 	C 	0.7615	0.6626	0.309	0.064
Mof_H 	H 	0.6958	0.6291	0.3107	0.002
Mof_C 	C 	0.8068	0.7577	0.3103	-0.111
Mof_H 	H 	0.7726	0.7893	0.3099	0.075
Mof_C 	C 	0.4198	0.4392	0.0553	-0.208
Mof_H 	H 	0.3611	0.3989	0.0349	0.099
Mof_C 	C 	0.4518	0.4115	0.1126	0.121
Mof_H 	H 	0.4126	0.3521	0.1324	0.006
Mof_O 	O 	0.832	0.3483	0.2214	-0.42
Mof_N 	N 	0.1857	0.6347	0.8757	-0.213
Mof_C 	C 	0.1377	0.6331	0.9312	0.113
Mof_H 	H 	0.1262	0.6814	0.9443	-0.015
Mof_C 	C 	0.9011	0.2385	0.309	0.064
Mof_H 	H 	0.9333	0.3042	0.3107	0.002
Mof_C 	C 	0.9509	0.1932	0.3103	-0.11
Mof_H 	H 	0.0167	0.2274	0.3099	0.075
Mof_C 	C 	0.0194	0.5802	0.0553	-0.209
Mof_H 	H 	0.0378	0.6389	0.0349	0.099
Mof_C 	C 	0.9597	0.5482	0.1126	0.123
Mof_H 	H 	0.9395	0.5874	0.1324	0.006
Mof_O 	O 	0.5163	0.168	0.2214	-0.42
Mof_N 	N 	0.449	0.8143	0.8757	-0.213
Mof_C 	C 	0.4954	0.8623	0.9312	0.113
Mof_H 	H 	0.5552	0.8738	0.9443	-0.015
Mof_C 	C 	0.3374	0.0989	0.309	0.064
Mof_H 	H 	0.3709	0.0667	0.3107	0.002
Mof_C 	C 	0.2423	0.0491	0.3103	-0.11
Mof_H 	H 	0.2107	0.9833	0.3099	0.075
Mof_C 	C 	0.5608	0.9806	0.0553	-0.209
Mof_H 	H 	0.6011	0.9622	0.0349	0.099
Mof_C 	C 	0.5885	0.0403	0.1126	0.123
Mof_H 	H 	0.6479	0.0605	0.1324	0.006
Mof_Co	Co	0.47093	0.73547	0.79685	1.161
Mof_N 	N 	0.6155	0.80775	0.8051	-0.231
Mof_C 	C 	0.8079	0.90395	0.8123	0.047
Mof_C 	C 	0.9111	0.95555	0.8131	0.103
Mof_Co	Co	0.26453	0.73547	0.79685	1.161
Mof_N 	N 	0.19225	0.80775	0.8051	-0.231
Mof_C 	C 	0.09605	0.90395	0.8123	0.048
Mof_C 	C 	0.04445	0.95555	0.8131	0.102
Mof_Co	Co	0.26453	0.52907	0.79685	1.161
Mof_N 	N 	0.19225	0.3845	0.8051	-0.231
Mof_C 	C 	0.09605	0.1921	0.8123	0.047
Mof_C 	C 	0.04445	0.0889	0.8131	0.103
Mof_Co	Co	0.52907	0.26453	0.29685	1.16
Mof_N 	N 	0.3845	0.19225	0.3051	-0.231
Mof_C 	C 	0.1921	0.09605	0.3123	0.045
Mof_C 	C 	0.0889	0.04445	0.3131	0.102
Mof_Co	Co	0.73547	0.26453	0.29685	1.16
Mof_N 	N 	0.80775	0.19225	0.3051	-0.231
Mof_C 	C 	0.90395	0.09605	0.3123	0.044
Mof_C 	C 	0.95555	0.04445	0.3131	0.103
Mof_Co	Co	0.73547	0.47093	0.29685	1.16
Mof_N 	N 	0.80775	0.6155	0.3051	-0.231
Mof_C 	C 	0.90395	0.8079	0.3123	0.045
Mof_C 	C 	0.95555	0.9111	0.3131	0.102
Mof_O 	O 	0.33333	0.66667	0.7766	-0.593
Mof_O 	O 	0.66667	0.33333	0.2766	-0.594
Mof_C 	C 	0.4293	0.5707	0.6995	0.401
Mof_N 	N 	0.5537	0.4463	0.4664	-0.171
Mof_C 	C 	0.4648	0.5352	0.6411	-0.189
Mof_C 	C 	0.5252	0.4748	0.5296	0.193
Mof_C 	C 	0.4293	0.8586	0.6995	0.4
Mof_N 	N 	0.5537	0.1074	0.4664	-0.171
Mof_C 	C 	0.4648	0.9296	0.6411	-0.188
Mof_C 	C 	0.5252	0.0504	0.5296	0.192
Mof_C 	C 	0.1414	0.5707	0.6995	0.4
Mof_N 	N 	0.8926	0.4463	0.4664	-0.171
Mof_C 	C 	0.0704	0.5352	0.6411	-0.188
Mof_C 	C 	0.9496	0.4748	0.5296	0.192
Mof_C 	C 	0.5707	0.4293	0.1995	0.398
Mof_N 	N 	0.4463	0.5537	0.9664	-0.163
Mof_C 	C 	0.5352	0.4648	0.1411	-0.183
Mof_C 	C 	0.4748	0.5252	0.0296	0.175
Mof_C 	C 	0.5707	0.1414	0.1995	0.398
Mof_N 	N 	0.4463	0.8926	0.9664	-0.163
Mof_C 	C 	0.5352	0.0704	0.1411	-0.184
Mof_C 	C 	0.4748	0.9496	0.0296	0.176
Mof_C 	C 	0.8586	0.4293	0.1995	0.398
Mof_N 	N 	0.1074	0.5537	0.9664	-0.163
Mof_C 	C 	0.9296	0.4648	0.1411	-0.184
Mof_C 	C 	0.0504	0.5252	0.0296	0.176
Mof_N 	N 	0.95215	0.9043	0.8143	-0.14
Mof_N 	N 	0.0957	0.04785	0.8143	-0.14
Mof_N 	N 	0.95215	0.04785	0.8143	-0.14
Mof_N 	N 	0.04785	0.0957	0.3143	-0.142
Mof_N 	N 	0.9043	0.95215	0.3143	-0.142
Mof_N 	N 	0.04785	0.95215	0.3143	-0.142
_end
