data_functionalizedCrystal
_audit_creation_method	'EQeq! by Chris Wilmer'
_symmetry_space_group_name_H-M	'P1'
_symmetry_Int_Tables_number	1
_symmetry_cell_setting	triclinic
loop_
_symmetry_equiv_pos_as_xyz
  x,y,z
_cell_length_a	8.6591
_cell_length_b	32.508
_cell_length_c	9.979
_cell_angle_alpha	90
_cell_angle_beta	97.77
_cell_angle_gamma	90
loop_
_atom_site_label
_atom_site_type_symbol
_atom_site_fract_x
_atom_site_fract_y
_atom_site_fract_z
_atom_site_charge
Mof_U 	U 	0.30893	0.19125	0.27111	0.016
Mof_U 	U 	0.16598	0.95945	0.76976	0.021
Mof_O 	O 	0.364	0.1133	0.296	-0.045
Mof_O 	O 	0.2283	0.1522	0.0669	-0.174
Mof_O 	O 	0.4711	0.17975	0.4925	-0.198
Mof_O 	O 	0.71	0.20277	0.6924	-0.171
Mof_O 	O 	0.6407	0.1292	0.469	-0.495
Mof_H 	H 	0.6449	0.1417	0.3982	0.328
Mof_O 	O 	0.7128	0.2049	0.9164	-0.164
Mof_O 	O 	0.9985	0.18215	0.0475	-0.144
Mof_O 	O 	0.3012	0.0184	0.8917	-0.161
Mof_O 	O 	0.2835	0.0194	0.6713	-0.159
Mof_O 	O 	0.965	0.09331	0.3855	-0.153
Mof_O 	O 	0.849	0.04344	0.4808	-0.15
Mof_O 	O 	0.9428	0.0965	0.1047	-0.148
Mof_O 	O 	0.8337	0.0456	0.9817	-0.159
Mof_C 	C 	0.5785	0.15	0.7967	0.004
Mof_C 	C 	0.5282	0.1307	0.6693	-0.064
Mof_C 	C 	0.445	0.0938	0.6708	0.006
Mof_H 	H 	0.4107	0.0807	0.5894	0.081
Mof_C 	C 	0.4132	0.0768	0.7886	-0.033
Mof_C 	C 	0.4605	0.0949	0.9138	-0.006
Mof_H 	H 	0.4377	0.0828	0.9934	0.086
Mof_C 	C 	0.5439	0.1319	0.9153	-0.038
Mof_H 	H 	0.5768	0.1447	0.9976	0.094
Mof_C 	C 	0.6744	0.189	0.802	0.265
Mof_C 	C 	0.5558	0.1471	0.535	0.404
Mof_C 	C 	0.33	0.0364	0.7856	0.262
Mof_C 	C 	0.0468	0.135	0.8774	-0.032
Mof_C 	C 	0.9567	0.0983	0.8656	-0.003
Mof_C 	C 	0.9199	0.0802	0.7412	-0.034
Mof_H 	H 	0.8609	0.0562	0.7337	0.096
Mof_C 	C 	0.9688	0.0969	0.6265	0.006
Mof_C 	C 	0.0575	0.1324	0.6378	-0.043
Mof_H 	H 	0.0912	0.1438	0.5612	0.093
Mof_C 	C 	0.0961	0.1511	0.7615	-0.005
Mof_H 	H 	0.1563	0.1749	0.7676	0.069
Mof_C 	C 	0.0951	0.1573	0.0056	0.277
Mof_C 	C 	0.9076	0.0797	0.9906	0.25
Mof_C 	C 	0.9258	0.0769	0.4901	0.268
Mof_O 	O 	0.7255	0.884	0.669	-0.03
Mof_U 	U 	0.69107	0.69125	0.72889	0.015
Mof_U 	U 	0.83402	0.45945	0.23024	0.02
Mof_O 	O 	0.636	0.6133	0.704	-0.045
Mof_O 	O 	0.7717	0.6522	0.9331	-0.174
Mof_O 	O 	0.5289	0.67975	0.5075	-0.198
Mof_O 	O 	0.29	0.70277	0.3076	-0.171
Mof_O 	O 	0.3593	0.6292	0.531	-0.495
Mof_H 	H 	0.3551	0.6417	0.6018	0.328
Mof_O 	O 	0.2872	0.7049	0.0836	-0.164
Mof_O 	O 	0.0015	0.68215	0.9525	-0.144
Mof_O 	O 	0.6988	0.5184	0.1083	-0.161
Mof_O 	O 	0.7165	0.5194	0.3287	-0.159
Mof_O 	O 	0.035	0.59331	0.6145	-0.153
Mof_O 	O 	0.151	0.54344	0.5192	-0.15
Mof_O 	O 	0.0572	0.5965	0.8953	-0.148
Mof_O 	O 	0.1663	0.5456	0.0183	-0.159
Mof_C 	C 	0.4215	0.65	0.2033	0.004
Mof_C 	C 	0.4718	0.6307	0.3307	-0.064
Mof_C 	C 	0.555	0.5938	0.3292	0.006
Mof_H 	H 	0.5893	0.5807	0.4106	0.081
Mof_C 	C 	0.5868	0.5768	0.2114	-0.033
Mof_C 	C 	0.5395	0.5949	0.0862	-0.006
Mof_H 	H 	0.5623	0.5828	0.0066	0.086
Mof_C 	C 	0.4561	0.6319	0.0847	-0.038
Mof_H 	H 	0.4232	0.6447	0.0024	0.094
Mof_C 	C 	0.3256	0.689	0.198	0.265
Mof_C 	C 	0.4442	0.6471	0.465	0.404
Mof_C 	C 	0.67	0.5364	0.2144	0.262
Mof_C 	C 	0.9532	0.635	0.1226	-0.031
Mof_C 	C 	0.0433	0.5983	0.1344	-0.003
Mof_C 	C 	0.0801	0.5802	0.2588	-0.034
Mof_H 	H 	0.1391	0.5562	0.2663	0.096
Mof_C 	C 	0.0312	0.5969	0.3735	0.006
Mof_C 	C 	0.9425	0.6324	0.3622	-0.042
Mof_H 	H 	0.9088	0.6438	0.4388	0.093
Mof_C 	C 	0.9039	0.6511	0.2385	-0.005
Mof_H 	H 	0.8437	0.6749	0.2324	0.069
Mof_C 	C 	0.9049	0.6573	0.9944	0.277
Mof_C 	C 	0.0924	0.5797	0.0094	0.25
Mof_C 	C 	0.0742	0.5769	0.5099	0.268
Mof_O 	O 	0.2745	0.384	0.331	-0.03
Mof_U 	U 	0.69107	0.80875	0.72889	0.015
Mof_U 	U 	0.83402	0.04055	0.23024	0.02
Mof_O 	O 	0.636	0.8867	0.704	-0.045
Mof_O 	O 	0.7717	0.8478	0.9331	-0.174
Mof_O 	O 	0.5289	0.82025	0.5075	-0.198
Mof_O 	O 	0.29	0.79723	0.3076	-0.171
Mof_O 	O 	0.3593	0.8708	0.531	-0.495
Mof_H 	H 	0.3551	0.8583	0.6018	0.328
Mof_O 	O 	0.2872	0.7951	0.0836	-0.164
Mof_O 	O 	0.0015	0.81785	0.9525	-0.144
Mof_O 	O 	0.6988	0.9816	0.1083	-0.161
Mof_O 	O 	0.7165	0.9806	0.3287	-0.159
Mof_O 	O 	0.035	0.90669	0.6145	-0.153
Mof_O 	O 	0.151	0.95656	0.5192	-0.15
Mof_O 	O 	0.0572	0.9035	0.8953	-0.148
Mof_O 	O 	0.1663	0.9544	0.0183	-0.159
Mof_C 	C 	0.4215	0.85	0.2033	0.004
Mof_C 	C 	0.4718	0.8693	0.3307	-0.064
Mof_C 	C 	0.555	0.9062	0.3292	0.006
Mof_H 	H 	0.5893	0.9193	0.4106	0.081
Mof_C 	C 	0.5868	0.9232	0.2114	-0.033
Mof_C 	C 	0.5395	0.9051	0.0862	-0.006
Mof_H 	H 	0.5623	0.9172	0.0066	0.086
Mof_C 	C 	0.4561	0.8681	0.0847	-0.038
Mof_H 	H 	0.4232	0.8553	0.0024	0.094
Mof_C 	C 	0.3256	0.811	0.198	0.265
Mof_C 	C 	0.4442	0.8529	0.465	0.404
Mof_C 	C 	0.67	0.9636	0.2144	0.262
Mof_C 	C 	0.9532	0.865	0.1226	-0.032
Mof_C 	C 	0.0433	0.9017	0.1344	-0.003
Mof_C 	C 	0.0801	0.9198	0.2588	-0.034
Mof_H 	H 	0.1391	0.9438	0.2663	0.096
Mof_C 	C 	0.0312	0.9031	0.3735	0.006
Mof_C 	C 	0.9425	0.8676	0.3622	-0.043
Mof_H 	H 	0.9088	0.8562	0.4388	0.093
Mof_C 	C 	0.9039	0.8489	0.2385	-0.005
Mof_H 	H 	0.8437	0.8251	0.2324	0.069
Mof_C 	C 	0.9049	0.8427	0.9944	0.277
Mof_C 	C 	0.0924	0.9203	0.0094	0.25
Mof_C 	C 	0.0742	0.9231	0.5099	0.268
Mof_O 	O 	0.2745	0.116	0.331	-0.03
Mof_U 	U 	0.30893	0.30875	0.27111	0.015
Mof_U 	U 	0.16598	0.54055	0.76976	0.02
Mof_O 	O 	0.364	0.3867	0.296	-0.045
Mof_O 	O 	0.2283	0.3478	0.0669	-0.174
Mof_O 	O 	0.4711	0.32025	0.4925	-0.198
Mof_O 	O 	0.71	0.29723	0.6924	-0.171
Mof_O 	O 	0.6407	0.3708	0.469	-0.495
Mof_H 	H 	0.6449	0.3583	0.3982	0.328
Mof_O 	O 	0.7128	0.2951	0.9164	-0.164
Mof_O 	O 	0.9985	0.31785	0.0475	-0.144
Mof_O 	O 	0.3012	0.4816	0.8917	-0.161
Mof_O 	O 	0.2835	0.4806	0.6713	-0.159
Mof_O 	O 	0.965	0.40669	0.3855	-0.153
Mof_O 	O 	0.849	0.45656	0.4808	-0.15
Mof_O 	O 	0.9428	0.4035	0.1047	-0.148
Mof_O 	O 	0.8337	0.4544	0.9817	-0.159
Mof_C 	C 	0.5785	0.35	0.7967	0.004
Mof_C 	C 	0.5282	0.3693	0.6693	-0.064
Mof_C 	C 	0.445	0.4062	0.6708	0.006
Mof_H 	H 	0.4107	0.4193	0.5894	0.081
Mof_C 	C 	0.4132	0.4232	0.7886	-0.033
Mof_C 	C 	0.4605	0.4051	0.9138	-0.006
Mof_H 	H 	0.4377	0.4172	0.9934	0.086
Mof_C 	C 	0.5439	0.3681	0.9153	-0.038
Mof_H 	H 	0.5768	0.3553	0.9976	0.094
Mof_C 	C 	0.6744	0.311	0.802	0.265
Mof_C 	C 	0.5558	0.3529	0.535	0.404
Mof_C 	C 	0.33	0.4636	0.7856	0.262
Mof_C 	C 	0.0468	0.365	0.8774	-0.031
Mof_C 	C 	0.9567	0.4017	0.8656	-0.003
Mof_C 	C 	0.9199	0.4198	0.7412	-0.034
Mof_H 	H 	0.8609	0.4438	0.7337	0.096
Mof_C 	C 	0.9688	0.4031	0.6265	0.006
Mof_C 	C 	0.0575	0.3676	0.6378	-0.042
Mof_H 	H 	0.0912	0.3562	0.5612	0.093
Mof_C 	C 	0.0961	0.3489	0.7615	-0.005
Mof_H 	H 	0.1563	0.3251	0.7676	0.069
Mof_C 	C 	0.0951	0.3427	0.0056	0.277
Mof_C 	C 	0.9076	0.4203	0.9906	0.25
Mof_C 	C 	0.9258	0.4231	0.4901	0.268
Mof_O 	O 	0.7255	0.616	0.669	-0.03
Mof_U 	U 	0.55903	0.25	0.555	0.015
Mof_U 	U 	0.92605	0.25	0.00418	0.028
Mof_O 	O 	0.3706	0.25	0.3767	-0.034
Mof_O 	O 	0.202	0.25	0.1293	-0.042
Mof_U 	U 	0.44097	0.75	0.445	0.015
Mof_U 	U 	0.07395	0.75	0.99582	0.028
Mof_O 	O 	0.6294	0.75	0.6233	-0.034
Mof_O 	O 	0.798	0.75	0.8707	-0.042
_end
