data_functionalizedCrystal
_audit_creation_method	'EQeq! by Chris Wilmer'
_symmetry_space_group_name_H-M	'P1'
_symmetry_Int_Tables_number	1
_symmetry_cell_setting	triclinic
loop_
_symmetry_equiv_pos_as_xyz
  x,y,z
_cell_length_a	10.237
_cell_length_b	11.2579
_cell_length_c	22.1898
_cell_angle_alpha	90
_cell_angle_beta	97.27
_cell_angle_gamma	90
loop_
_atom_site_label
_atom_site_type_symbol
_atom_site_fract_x
_atom_site_fract_y
_atom_site_fract_z
_atom_site_charge
Mof_Eu	Eu	0.61029	0.68452	0.72588	2.332
Mof_Eu	Eu	0.74058	0.58975	0.43592	2.022
Mof_Eu	Eu	0.88971	0.18452	0.77412	2.323
Mof_Eu	Eu	0.75942	0.08975	0.06408	2.005
Mof_Eu	Eu	0.38971	0.31548	0.27412	2.331
Mof_Eu	Eu	0.25942	0.41025	0.56408	2.021
Mof_Eu	Eu	0.11029	0.81548	0.22588	2.323
Mof_Eu	Eu	0.24058	0.91025	0.93592	2.005
Mof_H 	H 	0.1185	0.619	0.663	0.135
Mof_H 	H 	0.1564	0.9643	0.6644	0.127
Mof_H 	H 	0.0146	0.5766	0.7905	0.256
Mof_H 	H 	0.1182	0.6683	0.7725	0.247
Mof_H 	H 	0.985	0.7131	0.7922	0.251
Mof_H 	H 	0.2784	0.7712	0.5833	0.241
Mof_H 	H 	0.2715	0.9096	0.5757	0.233
Mof_H 	H 	0.4083	0.8464	0.5903	0.236
Mof_H 	H 	0.3815	0.119	0.837	0.135
Mof_H 	H 	0.3436	0.4643	0.8356	0.13
Mof_H 	H 	0.4854	0.0766	0.7095	0.252
Mof_H 	H 	0.3818	0.1683	0.7275	0.243
Mof_H 	H 	0.515	0.2131	0.7078	0.245
Mof_H 	H 	0.2216	0.2712	0.9167	0.244
Mof_H 	H 	0.2285	0.4096	0.9243	0.235
Mof_H 	H 	0.0917	0.3464	0.9097	0.239
Mof_H 	H 	0.8815	0.381	0.337	0.135
Mof_H 	H 	0.8436	0.0357	0.3356	0.127
Mof_H 	H 	0.9854	0.4234	0.2095	0.256
Mof_H 	H 	0.8818	0.3317	0.2275	0.247
Mof_H 	H 	0.015	0.2869	0.2078	0.251
Mof_H 	H 	0.7216	0.2288	0.4167	0.241
Mof_H 	H 	0.7285	0.0904	0.4243	0.233
Mof_H 	H 	0.5917	0.1536	0.4097	0.236
Mof_H 	H 	0.6185	0.881	0.163	0.135
Mof_H 	H 	0.6564	0.5357	0.1644	0.13
Mof_H 	H 	0.5146	0.9234	0.2905	0.252
Mof_H 	H 	0.6182	0.8317	0.2725	0.243
Mof_H 	H 	0.485	0.7869	0.2922	0.245
Mof_H 	H 	0.7784	0.7288	0.0833	0.244
Mof_H 	H 	0.7715	0.5904	0.0757	0.235
Mof_H 	H 	0.9083	0.6536	0.0903	0.239
Mof_C 	C 	0.8268	0.6479	0.62389	-0.091
Mof_C 	C 	0.9498	0.6288	0.6064	-0.04
Mof_C 	C 	0.964	0.6467	0.70685	0.336
Mof_C 	C 	0.6935	0.651	0.58817	0.466
Mof_C 	C 	0.0071	0.6144	0.54882	0.446
Mof_C 	C 	0.0259	0.6516	0.7712	-0.814
Mof_C 	C 	0.2408	0.9232	0.74847	-0.051
Mof_C 	C 	0.3477	0.8502	0.762	-0.1
Mof_C 	C 	0.3099	0.8584	0.66357	0.308
Mof_C 	C 	0.1577	0.0015	0.78348	0.436
Mof_C 	C 	0.4189	0.8098	0.8208	0.451
Mof_C 	C 	0.3177	0.8453	0.5974	-0.776
Mof_C 	C 	0.7642	0.4519	0.78508	0.261
Mof_C 	C 	0.7049	0.4068	0.72154	0.261
Mof_C 	C 	0.6732	0.1479	0.87611	-0.09
Mof_C 	C 	0.5502	0.1288	0.8936	-0.043
Mof_C 	C 	0.536	0.1467	0.79315	0.33
Mof_C 	C 	0.8065	0.151	0.91183	0.464
Mof_C 	C 	0.4929	0.1144	0.95118	0.453
Mof_C 	C 	0.4741	0.1516	0.7288	-0.797
Mof_C 	C 	0.2592	0.4232	0.75153	-0.044
Mof_C 	C 	0.1523	0.3502	0.738	-0.102
Mof_C 	C 	0.1901	0.3584	0.83643	0.31
Mof_C 	C 	0.3423	0.5015	0.71652	0.431
Mof_C 	C 	0.0811	0.3098	0.6792	0.457
Mof_C 	C 	0.1823	0.3453	0.9026	-0.781
Mof_C 	C 	0.7358	0.9519	0.71492	0.263
Mof_C 	C 	0.7951	0.9068	0.77846	0.26
Mof_C 	C 	0.1732	0.3521	0.37611	-0.091
Mof_C 	C 	0.0502	0.3712	0.3936	-0.04
Mof_C 	C 	0.036	0.3533	0.29315	0.336
Mof_C 	C 	0.3065	0.349	0.41183	0.466
Mof_C 	C 	0.9929	0.3856	0.45118	0.446
Mof_C 	C 	0.9741	0.3484	0.2288	-0.814
Mof_C 	C 	0.7592	0.0768	0.25153	-0.051
Mof_C 	C 	0.6523	0.1498	0.238	-0.1
Mof_C 	C 	0.6901	0.1416	0.33643	0.308
Mof_C 	C 	0.8423	0.9985	0.21652	0.436
Mof_C 	C 	0.5811	0.1902	0.1792	0.451
Mof_C 	C 	0.6823	0.1547	0.4026	-0.776
Mof_C 	C 	0.2358	0.5481	0.21492	0.261
Mof_C 	C 	0.2951	0.5932	0.27846	0.261
Mof_C 	C 	0.3268	0.8521	0.12389	-0.09
Mof_C 	C 	0.4498	0.8712	0.1064	-0.043
Mof_C 	C 	0.464	0.8533	0.20685	0.33
Mof_C 	C 	0.1935	0.849	0.08817	0.464
Mof_C 	C 	0.5071	0.8856	0.04882	0.453
Mof_C 	C 	0.5259	0.8484	0.2712	-0.797
Mof_C 	C 	0.7408	0.5768	0.24847	-0.044
Mof_C 	C 	0.8477	0.6498	0.262	-0.102
Mof_C 	C 	0.8099	0.6416	0.16357	0.31
Mof_C 	C 	0.6577	0.4985	0.28348	0.431
Mof_C 	C 	0.9189	0.6902	0.3208	0.457
Mof_C 	C 	0.8177	0.6547	0.0974	-0.781
Mof_C 	C 	0.2642	0.0481	0.28508	0.263
Mof_C 	C 	0.2049	0.0932	0.22154	0.26
Mof_N 	N 	0.837	0.6593	0.68633	-0.272
Mof_N 	N 	0.0346	0.6288	0.65991	-0.25
Mof_N 	N 	0.3914	0.8104	0.70895	-0.267
Mof_N 	N 	0.2185	0.9259	0.68577	-0.244
Mof_N 	N 	0.663	0.1593	0.81367	-0.271
Mof_N 	N 	0.4654	0.1288	0.84009	-0.247
Mof_N 	N 	0.1086	0.3104	0.79105	-0.266
Mof_N 	N 	0.2815	0.4259	0.81423	-0.246
Mof_N 	N 	0.163	0.3407	0.31367	-0.272
Mof_N 	N 	0.9654	0.3712	0.34009	-0.25
Mof_N 	N 	0.6086	0.1896	0.29105	-0.267
Mof_N 	N 	0.7815	0.0741	0.31423	-0.244
Mof_N 	N 	0.337	0.8407	0.18633	-0.271
Mof_N 	N 	0.5346	0.8712	0.15991	-0.247
Mof_N 	N 	0.8914	0.6896	0.20895	-0.266
Mof_N 	N 	0.7185	0.5741	0.18577	-0.246
Mof_O 	O 	0.5977	0.6754	0.61647	-0.556
Mof_O 	O 	0.68	0.6273	0.53256	-0.603
Mof_O 	O 	0.94	0.6379	0.4993	-0.51
Mof_O 	O 	0.1261	0.5837	0.55438	-0.527
Mof_O 	O 	0.0699	0.0572	0.75146	-0.515
Mof_O 	O 	0.185	0.0113	0.84006	-0.552
Mof_O 	O 	0.3755	0.8325	0.86921	-0.551
Mof_O 	O 	0.5244	0.7525	0.8182	-0.485
Mof_O 	O 	0.8427	0.3839	0.81563	-0.458
Mof_O 	O 	0.7289	0.5529	0.8008	-0.45
Mof_O 	O 	0.6333	0.4774	0.68848	-0.459
Mof_O 	O 	0.731	0.302	0.70822	-0.463
Mof_O 	O 	0.9023	0.1754	0.88353	-0.556
Mof_O 	O 	0.82	0.1273	0.96744	-0.6
Mof_O 	O 	0.56	0.1379	0.0007	-0.514
Mof_O 	O 	0.3739	0.0837	0.94562	-0.525
Mof_O 	O 	0.4301	0.5572	0.74854	-0.518
Mof_O 	O 	0.315	0.5113	0.65994	-0.556
Mof_O 	O 	0.1245	0.3325	0.63079	-0.553
Mof_O 	O 	0.9756	0.2525	0.6818	-0.488
Mof_O 	O 	0.6573	0.8839	0.68437	-0.459
Mof_O 	O 	0.7711	0.0529	0.6992	-0.452
Mof_O 	O 	0.8667	0.9774	0.81152	-0.457
Mof_O 	O 	0.769	0.802	0.79178	-0.464
Mof_O 	O 	0.4023	0.3246	0.38353	-0.556
Mof_O 	O 	0.32	0.3727	0.46744	-0.603
Mof_O 	O 	0.06	0.3621	0.5007	-0.51
Mof_O 	O 	0.8739	0.4163	0.44562	-0.527
Mof_O 	O 	0.9301	0.9428	0.24854	-0.515
Mof_O 	O 	0.815	0.9887	0.15994	-0.552
Mof_O 	O 	0.6245	0.1675	0.13079	-0.551
Mof_O 	O 	0.4756	0.2475	0.1818	-0.485
Mof_O 	O 	0.1573	0.6161	0.18437	-0.458
Mof_O 	O 	0.2711	0.4471	0.1992	-0.45
Mof_O 	O 	0.3667	0.5226	0.31152	-0.459
Mof_O 	O 	0.269	0.698	0.29178	-0.463
Mof_O 	O 	0.0977	0.8246	0.11647	-0.556
Mof_O 	O 	0.18	0.8727	0.03256	-0.6
Mof_O 	O 	0.44	0.8621	0.9993	-0.514
Mof_O 	O 	0.6261	0.9163	0.05438	-0.525
Mof_O 	O 	0.5699	0.4428	0.25146	-0.518
Mof_O 	O 	0.685	0.4887	0.34006	-0.556
Mof_O 	O 	0.8755	0.6675	0.36921	-0.553
Mof_O 	O 	0.0244	0.7475	0.3182	-0.488
Mof_O 	O 	0.3427	0.1161	0.31563	-0.459
Mof_O 	O 	0.2289	0.9471	0.3008	-0.452
Mof_O 	O 	0.1333	0.0226	0.18848	-0.457
Mof_O 	O 	0.231	0.198	0.20822	-0.464
_end
