data_functionalizedCrystal
_audit_creation_method	'EQeq! by Chris Wilmer'
_symmetry_space_group_name_H-M	'P1'
_symmetry_Int_Tables_number	1
_symmetry_cell_setting	triclinic
loop_
_symmetry_equiv_pos_as_xyz
  x,y,z
_cell_length_a	26.3136
_cell_length_b	26.3136
_cell_length_c	26.3136
_cell_angle_alpha	90
_cell_angle_beta	90
_cell_angle_gamma	90
loop_
_atom_site_label
_atom_site_type_symbol
_atom_site_fract_x
_atom_site_fract_y
_atom_site_fract_z
_atom_site_charge
Mof_O 	O 	0.05191	0.18253	0.25688	0.414
Mof_O 	O 	0.05191	0.68253	0.75688	0.41
Mof_O 	O 	0.55191	0.18253	0.75688	0.423
Mof_O 	O 	0.55191	0.68253	0.25688	0.424
Mof_O 	O 	0.94809	0.81747	0.25688	0.453
Mof_O 	O 	0.94809	0.31747	0.75688	0.451
Mof_O 	O 	0.44809	0.81747	0.75688	0.423
Mof_O 	O 	0.44809	0.31747	0.25688	0.426
Mof_O 	O 	0.94809	0.18253	0.74312	0.455
Mof_O 	O 	0.94809	0.68253	0.24312	0.456
Mof_O 	O 	0.44809	0.18253	0.24312	0.43
Mof_O 	O 	0.44809	0.68253	0.74312	0.427
Mof_O 	O 	0.05191	0.81747	0.74312	0.415
Mof_O 	O 	0.05191	0.31747	0.24312	0.417
Mof_O 	O 	0.55191	0.81747	0.24312	0.429
Mof_O 	O 	0.55191	0.31747	0.74312	0.427
Mof_O 	O 	0.25688	0.05191	0.18253	0.414
Mof_O 	O 	0.25688	0.55191	0.68253	0.424
Mof_O 	O 	0.75688	0.05191	0.68253	0.41
Mof_O 	O 	0.75688	0.55191	0.18253	0.423
Mof_O 	O 	0.25688	0.94809	0.81747	0.453
Mof_O 	O 	0.25688	0.44809	0.31747	0.426
Mof_O 	O 	0.75688	0.94809	0.31747	0.451
Mof_O 	O 	0.75688	0.44809	0.81747	0.423
Mof_O 	O 	0.74312	0.94809	0.18253	0.455
Mof_O 	O 	0.74312	0.44809	0.68253	0.427
Mof_O 	O 	0.24312	0.94809	0.68253	0.456
Mof_O 	O 	0.24312	0.44809	0.18253	0.43
Mof_O 	O 	0.74312	0.05191	0.81747	0.415
Mof_O 	O 	0.74312	0.55191	0.31747	0.427
Mof_O 	O 	0.24312	0.05191	0.31747	0.417
Mof_O 	O 	0.24312	0.55191	0.81747	0.429
Mof_O 	O 	0.18253	0.25688	0.05191	0.414
Mof_O 	O 	0.18253	0.75688	0.55191	0.423
Mof_O 	O 	0.68253	0.25688	0.55191	0.424
Mof_O 	O 	0.68253	0.75688	0.05191	0.41
Mof_O 	O 	0.81747	0.25688	0.94809	0.453
Mof_O 	O 	0.81747	0.75688	0.44809	0.423
Mof_O 	O 	0.31747	0.25688	0.44809	0.426
Mof_O 	O 	0.31747	0.75688	0.94809	0.451
Mof_O 	O 	0.18253	0.74312	0.94809	0.455
Mof_O 	O 	0.18253	0.24312	0.44809	0.43
Mof_O 	O 	0.68253	0.74312	0.44809	0.427
Mof_O 	O 	0.68253	0.24312	0.94809	0.456
Mof_O 	O 	0.81747	0.74312	0.05191	0.415
Mof_O 	O 	0.81747	0.24312	0.55191	0.429
Mof_O 	O 	0.31747	0.74312	0.55191	0.427
Mof_O 	O 	0.31747	0.24312	0.05191	0.417
Mof_O 	O 	0.18253	0.05191	0.74312	0.415
Mof_O 	O 	0.18253	0.55191	0.24312	0.429
Mof_O 	O 	0.68253	0.05191	0.24312	0.416
Mof_O 	O 	0.68253	0.55191	0.74312	0.426
Mof_O 	O 	0.81747	0.94809	0.74312	0.455
Mof_O 	O 	0.81747	0.44809	0.24312	0.429
Mof_O 	O 	0.31747	0.94809	0.24312	0.457
Mof_O 	O 	0.31747	0.44809	0.74312	0.428
Mof_O 	O 	0.18253	0.94809	0.25688	0.453
Mof_O 	O 	0.18253	0.44809	0.75688	0.424
Mof_O 	O 	0.68253	0.94809	0.75688	0.45
Mof_O 	O 	0.68253	0.44809	0.25688	0.425
Mof_O 	O 	0.81747	0.05191	0.25688	0.413
Mof_O 	O 	0.81747	0.55191	0.75688	0.423
Mof_O 	O 	0.31747	0.05191	0.75688	0.411
Mof_O 	O 	0.31747	0.55191	0.25688	0.425
Mof_O 	O 	0.05191	0.25688	0.81747	0.413
Mof_O 	O 	0.05191	0.75688	0.31747	0.411
Mof_O 	O 	0.55191	0.25688	0.31747	0.425
Mof_O 	O 	0.55191	0.75688	0.81747	0.423
Mof_O 	O 	0.94809	0.25688	0.18253	0.453
Mof_O 	O 	0.94809	0.75688	0.68253	0.45
Mof_O 	O 	0.44809	0.25688	0.68253	0.425
Mof_O 	O 	0.44809	0.75688	0.18253	0.424
Mof_O 	O 	0.94809	0.74312	0.81747	0.455
Mof_O 	O 	0.94809	0.24312	0.31747	0.457
Mof_O 	O 	0.44809	0.74312	0.31747	0.428
Mof_O 	O 	0.44809	0.24312	0.81747	0.429
Mof_O 	O 	0.05191	0.74312	0.18253	0.415
Mof_O 	O 	0.05191	0.24312	0.68253	0.416
Mof_O 	O 	0.55191	0.74312	0.68253	0.426
Mof_O 	O 	0.55191	0.24312	0.18253	0.429
Mof_O 	O 	0.25688	0.18253	0.94809	0.453
Mof_O 	O 	0.25688	0.68253	0.44809	0.425
Mof_O 	O 	0.75688	0.18253	0.44809	0.424
Mof_O 	O 	0.75688	0.68253	0.94809	0.45
Mof_O 	O 	0.25688	0.81747	0.05191	0.413
Mof_O 	O 	0.25688	0.31747	0.55191	0.425
Mof_O 	O 	0.75688	0.81747	0.55191	0.423
Mof_O 	O 	0.75688	0.31747	0.05191	0.411
Mof_O 	O 	0.74312	0.18253	0.05191	0.415
Mof_O 	O 	0.74312	0.68253	0.55191	0.426
Mof_O 	O 	0.24312	0.18253	0.55191	0.429
Mof_O 	O 	0.24312	0.68253	0.05191	0.416
Mof_O 	O 	0.74312	0.81747	0.94809	0.455
Mof_O 	O 	0.74312	0.31747	0.44809	0.428
Mof_O 	O 	0.24312	0.81747	0.44809	0.429
Mof_O 	O 	0.24312	0.31747	0.94809	0.457
Mof_O 	O 	0.94809	0.81747	0.74312	0.455
Mof_O 	O 	0.94809	0.31747	0.24312	0.457
Mof_O 	O 	0.44809	0.81747	0.24312	0.429
Mof_O 	O 	0.44809	0.31747	0.74312	0.428
Mof_O 	O 	0.05191	0.18253	0.74312	0.415
Mof_O 	O 	0.05191	0.68253	0.24312	0.416
Mof_O 	O 	0.55191	0.18253	0.24312	0.429
Mof_O 	O 	0.55191	0.68253	0.74312	0.426
Mof_O 	O 	0.05191	0.81747	0.25688	0.413
Mof_O 	O 	0.05191	0.31747	0.75688	0.411
Mof_O 	O 	0.55191	0.81747	0.75688	0.423
Mof_O 	O 	0.55191	0.31747	0.25688	0.425
Mof_O 	O 	0.94809	0.18253	0.25688	0.453
Mof_O 	O 	0.94809	0.68253	0.75688	0.45
Mof_O 	O 	0.44809	0.18253	0.75688	0.424
Mof_O 	O 	0.44809	0.68253	0.25688	0.425
Mof_O 	O 	0.74312	0.94809	0.81747	0.455
Mof_O 	O 	0.74312	0.44809	0.31747	0.428
Mof_O 	O 	0.24312	0.94809	0.31747	0.457
Mof_O 	O 	0.24312	0.44809	0.81747	0.429
Mof_O 	O 	0.74312	0.05191	0.18253	0.415
Mof_O 	O 	0.74312	0.55191	0.68253	0.426
Mof_O 	O 	0.24312	0.05191	0.68253	0.416
Mof_O 	O 	0.24312	0.55191	0.18253	0.429
Mof_O 	O 	0.25688	0.05191	0.81747	0.413
Mof_O 	O 	0.25688	0.55191	0.31747	0.425
Mof_O 	O 	0.75688	0.05191	0.31747	0.411
Mof_O 	O 	0.75688	0.55191	0.81747	0.423
Mof_O 	O 	0.25688	0.94809	0.18253	0.453
Mof_O 	O 	0.25688	0.44809	0.68253	0.425
Mof_O 	O 	0.75688	0.94809	0.68253	0.45
Mof_O 	O 	0.75688	0.44809	0.18253	0.424
Mof_O 	O 	0.81747	0.74312	0.94809	0.455
Mof_O 	O 	0.81747	0.24312	0.44809	0.429
Mof_O 	O 	0.31747	0.74312	0.44809	0.428
Mof_O 	O 	0.31747	0.24312	0.94809	0.457
Mof_O 	O 	0.18253	0.74312	0.05191	0.415
Mof_O 	O 	0.18253	0.24312	0.55191	0.429
Mof_O 	O 	0.68253	0.74312	0.55191	0.426
Mof_O 	O 	0.68253	0.24312	0.05191	0.416
Mof_O 	O 	0.81747	0.25688	0.05191	0.413
Mof_O 	O 	0.81747	0.75688	0.55191	0.423
Mof_O 	O 	0.31747	0.25688	0.55191	0.425
Mof_O 	O 	0.31747	0.75688	0.05191	0.411
Mof_O 	O 	0.18253	0.25688	0.94809	0.453
Mof_O 	O 	0.18253	0.75688	0.44809	0.424
Mof_O 	O 	0.68253	0.25688	0.44809	0.425
Mof_O 	O 	0.68253	0.75688	0.94809	0.45
Mof_O 	O 	0.81747	0.94809	0.25688	0.453
Mof_O 	O 	0.81747	0.44809	0.75688	0.423
Mof_O 	O 	0.31747	0.94809	0.75688	0.451
Mof_O 	O 	0.31747	0.44809	0.25688	0.426
Mof_O 	O 	0.18253	0.05191	0.25688	0.414
Mof_O 	O 	0.18253	0.55191	0.75688	0.423
Mof_O 	O 	0.68253	0.05191	0.75688	0.41
Mof_O 	O 	0.68253	0.55191	0.25688	0.424
Mof_O 	O 	0.81747	0.05191	0.74312	0.415
Mof_O 	O 	0.81747	0.55191	0.24312	0.429
Mof_O 	O 	0.31747	0.05191	0.24312	0.417
Mof_O 	O 	0.31747	0.55191	0.74312	0.427
Mof_O 	O 	0.18253	0.94809	0.74312	0.455
Mof_O 	O 	0.18253	0.44809	0.24312	0.43
Mof_O 	O 	0.68253	0.94809	0.24312	0.456
Mof_O 	O 	0.68253	0.44809	0.74312	0.427
Mof_O 	O 	0.94809	0.74312	0.18253	0.455
Mof_O 	O 	0.94809	0.24312	0.68253	0.456
Mof_O 	O 	0.44809	0.74312	0.68253	0.427
Mof_O 	O 	0.44809	0.24312	0.18253	0.43
Mof_O 	O 	0.05191	0.74312	0.81747	0.415
Mof_O 	O 	0.05191	0.24312	0.31747	0.417
Mof_O 	O 	0.55191	0.74312	0.31747	0.427
Mof_O 	O 	0.55191	0.24312	0.81747	0.429
Mof_O 	O 	0.05191	0.25688	0.18253	0.414
Mof_O 	O 	0.05191	0.75688	0.68253	0.41
Mof_O 	O 	0.55191	0.25688	0.68253	0.424
Mof_O 	O 	0.55191	0.75688	0.18253	0.423
Mof_O 	O 	0.94809	0.25688	0.81747	0.453
Mof_O 	O 	0.94809	0.75688	0.31747	0.451
Mof_O 	O 	0.44809	0.25688	0.31747	0.426
Mof_O 	O 	0.44809	0.75688	0.81747	0.423
Mof_O 	O 	0.74312	0.81747	0.05191	0.415
Mof_O 	O 	0.74312	0.31747	0.55191	0.427
Mof_O 	O 	0.24312	0.81747	0.55191	0.429
Mof_O 	O 	0.24312	0.31747	0.05191	0.417
Mof_O 	O 	0.74312	0.18253	0.94809	0.455
Mof_O 	O 	0.74312	0.68253	0.44809	0.427
Mof_O 	O 	0.24312	0.18253	0.44809	0.43
Mof_O 	O 	0.24312	0.68253	0.94809	0.456
Mof_O 	O 	0.25688	0.81747	0.94809	0.453
Mof_O 	O 	0.25688	0.31747	0.44809	0.426
Mof_O 	O 	0.75688	0.81747	0.44809	0.423
Mof_O 	O 	0.75688	0.31747	0.94809	0.451
Mof_O 	O 	0.25688	0.18253	0.05191	0.414
Mof_O 	O 	0.25688	0.68253	0.55191	0.424
Mof_O 	O 	0.75688	0.18253	0.55191	0.423
Mof_O 	O 	0.75688	0.68253	0.05191	0.41
Mof_Cu	Cu	-4.73787e-33	0.21448	0.21448	0.935
Mof_Cu	Cu	2.67887e-33	0.71448	0.71448	0.937
Mof_Cu	Cu	0.5	0.21448	0.71448	0.967
Mof_Cu	Cu	0.5	0.71448	0.21448	0.967
Mof_Cu	Cu	8.04171e-34	0.78552	0.21448	0.938
Mof_Cu	Cu	2.67887e-33	0.28552	0.71448	0.937
Mof_Cu	Cu	0.5	0.78552	0.71448	0.97
Mof_Cu	Cu	0.5	0.28552	0.21448	0.967
Mof_Cu	Cu	2.94523e-33	0.21448	0.78552	0.938
Mof_Cu	Cu	6.61257e-33	0.71448	0.28552	0.937
Mof_Cu	Cu	0.5	0.21448	0.28552	0.967
Mof_Cu	Cu	0.5	0.71448	0.78552	0.97
Mof_Cu	Cu	2.94523e-33	0.78552	0.78552	0.94
Mof_Cu	Cu	-1.70049e-33	0.28552	0.28552	0.937
Mof_Cu	Cu	0.5	0.78552	0.28552	0.97
Mof_Cu	Cu	0.5	0.28552	0.78552	0.97
Mof_Cu	Cu	0.21448	-2.77102e-33	0.21448	0.935
Mof_Cu	Cu	0.21448	0.5	0.71448	0.967
Mof_Cu	Cu	0.71448	0	0.71448	0.937
Mof_Cu	Cu	0.71448	0.5	0.21448	0.967
Mof_Cu	Cu	0.21448	0	0.78552	0.938
Mof_Cu	Cu	0.21448	0.5	0.28552	0.967
Mof_Cu	Cu	0.71448	0	0.28552	0.937
Mof_Cu	Cu	0.71448	0.5	0.78552	0.97
Mof_Cu	Cu	0.78552	-2.77102e-33	0.21448	0.938
Mof_Cu	Cu	0.78552	0.5	0.71448	0.97
Mof_Cu	Cu	0.28552	0	0.71448	0.937
Mof_Cu	Cu	0.28552	0.5	0.21448	0.967
Mof_Cu	Cu	0.78552	0	0.78552	0.94
Mof_Cu	Cu	0.78552	0.5	0.28552	0.97
Mof_Cu	Cu	0.28552	0	0.28552	0.937
Mof_Cu	Cu	0.28552	0.5	0.78552	0.97
Mof_Cu	Cu	0.21448	0.21448	-0	0.935
Mof_Cu	Cu	0.21448	0.71448	0.5	0.967
Mof_Cu	Cu	0.71448	0.21448	0.5	0.967
Mof_Cu	Cu	0.71448	0.71448	-0	0.937
Mof_Cu	Cu	0.78552	0.21448	-0	0.938
Mof_Cu	Cu	0.78552	0.71448	0.5	0.97
Mof_Cu	Cu	0.28552	0.21448	0.5	0.967
Mof_Cu	Cu	0.28552	0.71448	-0	0.937
Mof_Cu	Cu	0.21448	0.78552	-0	0.938
Mof_Cu	Cu	0.21448	0.28552	0.5	0.967
Mof_Cu	Cu	0.71448	0.78552	0.5	0.97
Mof_Cu	Cu	0.71448	0.28552	-0	0.937
Mof_Cu	Cu	0.78552	0.78552	-0	0.94
Mof_Cu	Cu	0.78552	0.28552	0.5	0.97
Mof_Cu	Cu	0.28552	0.78552	0.5	0.97
Mof_Cu	Cu	0.28552	0.28552	-0	0.937
Mof_C 	C 	0.068	0.203	0.297	-1.511
Mof_C 	C 	0.1116	0.1778	0.3222	4.951
Mof_C 	C 	0.568	0.203	0.797	-1.483
Mof_C 	C 	0.6116	0.1778	0.8222	4.887
Mof_C 	C 	0.932	0.797	0.297	-1.464
Mof_C 	C 	0.8884	0.8222	0.3222	4.834
Mof_C 	C 	0.432	0.797	0.797	-1.46
Mof_C 	C 	0.3884	0.8222	0.8222	4.832
Mof_C 	C 	0.432	0.297	0.297	-1.486
Mof_C 	C 	0.3884	0.3222	0.3222	4.898
Mof_C 	C 	0.932	0.203	0.703	-1.486
Mof_C 	C 	0.8884	0.1778	0.6778	4.886
Mof_C 	C 	0.432	0.203	0.203	-1.509
Mof_C 	C 	0.3884	0.1778	0.1778	4.95
Mof_C 	C 	0.068	0.797	0.703	-1.485
Mof_C 	C 	0.1116	0.8222	0.6778	4.886
Mof_C 	C 	0.068	0.297	0.203	-1.511
Mof_C 	C 	0.1116	0.3222	0.1778	4.951
Mof_C 	C 	0.568	0.797	0.203	-1.483
Mof_C 	C 	0.6116	0.8222	0.1778	4.887
Mof_C 	C 	0.297	0.068	0.203	-1.511
Mof_C 	C 	0.3222	0.1116	0.1778	4.951
Mof_C 	C 	0.297	0.568	0.703	-1.483
Mof_C 	C 	0.3222	0.6116	0.6778	4.887
Mof_C 	C 	0.297	0.932	0.797	-1.464
Mof_C 	C 	0.3222	0.8884	0.8222	4.834
Mof_C 	C 	0.297	0.432	0.297	-1.486
Mof_C 	C 	0.3222	0.3884	0.3222	4.898
Mof_C 	C 	0.703	0.932	0.203	-1.486
Mof_C 	C 	0.6778	0.8884	0.1778	4.886
Mof_C 	C 	0.703	0.432	0.703	-1.483
Mof_C 	C 	0.6778	0.3884	0.6778	4.885
Mof_C 	C 	0.203	0.432	0.203	-1.509
Mof_C 	C 	0.1778	0.3884	0.1778	4.95
Mof_C 	C 	0.703	0.068	0.797	-1.485
Mof_C 	C 	0.6778	0.1116	0.8222	4.886
Mof_C 	C 	0.703	0.568	0.297	-1.483
Mof_C 	C 	0.6778	0.6116	0.3222	4.887
Mof_C 	C 	0.203	0.068	0.297	-1.511
Mof_C 	C 	0.1778	0.1116	0.3222	4.951
Mof_C 	C 	0.203	0.297	0.068	-1.511
Mof_C 	C 	0.1778	0.3222	0.1116	4.951
Mof_C 	C 	0.203	0.797	0.568	-1.483
Mof_C 	C 	0.1778	0.8222	0.6116	4.887
Mof_C 	C 	0.797	0.297	0.932	-1.464
Mof_C 	C 	0.8222	0.3222	0.8884	4.834
Mof_C 	C 	0.797	0.797	0.432	-1.46
Mof_C 	C 	0.8222	0.8222	0.3884	4.832
Mof_C 	C 	0.297	0.297	0.432	-1.486
Mof_C 	C 	0.3222	0.3222	0.3884	4.898
Mof_C 	C 	0.203	0.703	0.932	-1.486
Mof_C 	C 	0.1778	0.6778	0.8884	4.886
Mof_C 	C 	0.203	0.203	0.432	-1.509
Mof_C 	C 	0.1778	0.1778	0.3884	4.95
Mof_C 	C 	0.797	0.703	0.068	-1.485
Mof_C 	C 	0.8222	0.6778	0.1116	4.886
Mof_C 	C 	0.797	0.203	0.568	-1.483
Mof_C 	C 	0.8222	0.1778	0.6116	4.887
Mof_C 	C 	0.297	0.203	0.068	-1.511
Mof_C 	C 	0.3222	0.1778	0.1116	4.951
Mof_C 	C 	0.203	0.068	0.703	-1.509
Mof_C 	C 	0.1778	0.1116	0.6778	4.945
Mof_C 	C 	0.203	0.568	0.203	-1.507
Mof_C 	C 	0.1778	0.6116	0.1778	4.945
Mof_C 	C 	0.797	0.932	0.703	-1.462
Mof_C 	C 	0.8222	0.8884	0.6778	4.828
Mof_C 	C 	0.797	0.432	0.203	-1.485
Mof_C 	C 	0.8222	0.3884	0.1778	4.891
Mof_C 	C 	0.297	0.932	0.203	-1.488
Mof_C 	C 	0.3222	0.8884	0.1778	4.893
Mof_C 	C 	0.203	0.932	0.297	-1.488
Mof_C 	C 	0.1778	0.8884	0.3222	4.893
Mof_C 	C 	0.203	0.432	0.797	-1.485
Mof_C 	C 	0.1778	0.3884	0.8222	4.891
Mof_C 	C 	0.797	0.068	0.297	-1.486
Mof_C 	C 	0.8222	0.1116	0.3222	4.892
Mof_C 	C 	0.797	0.568	0.797	-1.459
Mof_C 	C 	0.8222	0.6116	0.8222	4.828
Mof_C 	C 	0.297	0.568	0.297	-1.485
Mof_C 	C 	0.3222	0.6116	0.3222	4.893
Mof_C 	C 	0.068	0.297	0.797	-1.486
Mof_C 	C 	0.1116	0.3222	0.8222	4.892
Mof_C 	C 	0.568	0.297	0.297	-1.485
Mof_C 	C 	0.6116	0.3222	0.3222	4.893
Mof_C 	C 	0.932	0.297	0.203	-1.488
Mof_C 	C 	0.8884	0.3222	0.1778	4.893
Mof_C 	C 	0.432	0.297	0.703	-1.485
Mof_C 	C 	0.3884	0.3222	0.6778	4.891
Mof_C 	C 	0.932	0.703	0.797	-1.462
Mof_C 	C 	0.8884	0.6778	0.8222	4.828
Mof_C 	C 	0.932	0.203	0.297	-1.488
Mof_C 	C 	0.8884	0.1778	0.3222	4.893
Mof_C 	C 	0.432	0.703	0.297	-1.485
Mof_C 	C 	0.3884	0.6778	0.3222	4.891
Mof_C 	C 	0.068	0.703	0.203	-1.509
Mof_C 	C 	0.1116	0.6778	0.1778	4.945
Mof_C 	C 	0.568	0.703	0.703	-1.482
Mof_C 	C 	0.6116	0.6778	0.6778	4.88
Mof_C 	C 	0.568	0.203	0.203	-1.507
Mof_C 	C 	0.6116	0.1778	0.1778	4.945
Mof_C 	C 	0.297	0.203	0.932	-1.488
Mof_C 	C 	0.3222	0.1778	0.8884	4.893
Mof_C 	C 	0.297	0.703	0.432	-1.485
Mof_C 	C 	0.3222	0.6778	0.3884	4.891
Mof_C 	C 	0.297	0.797	0.068	-1.486
Mof_C 	C 	0.3222	0.8222	0.1116	4.892
Mof_C 	C 	0.297	0.297	0.568	-1.485
Mof_C 	C 	0.3222	0.3222	0.6116	4.893
Mof_C 	C 	0.703	0.203	0.068	-1.509
Mof_C 	C 	0.6778	0.1778	0.1116	4.945
Mof_C 	C 	0.703	0.703	0.568	-1.482
Mof_C 	C 	0.6778	0.6778	0.6116	4.88
Mof_C 	C 	0.203	0.203	0.568	-1.507
Mof_C 	C 	0.1778	0.1778	0.6116	4.945
Mof_C 	C 	0.703	0.797	0.932	-1.462
Mof_C 	C 	0.6778	0.8222	0.8884	4.828
Mof_C 	C 	0.703	0.297	0.432	-1.485
Mof_C 	C 	0.6778	0.3222	0.3884	4.891
Mof_C 	C 	0.203	0.297	0.932	-1.488
Mof_C 	C 	0.1778	0.3222	0.8884	4.893
Mof_C 	C 	0.932	0.797	0.703	-1.462
Mof_C 	C 	0.8884	0.8222	0.6778	4.828
Mof_C 	C 	0.432	0.797	0.203	-1.485
Mof_C 	C 	0.3884	0.8222	0.1778	4.891
Mof_C 	C 	0.068	0.203	0.703	-1.509
Mof_C 	C 	0.1116	0.1778	0.6778	4.945
Mof_C 	C 	0.068	0.797	0.297	-1.486
Mof_C 	C 	0.1116	0.8222	0.3222	4.892
Mof_C 	C 	0.568	0.797	0.797	-1.459
Mof_C 	C 	0.6116	0.8222	0.8222	4.828
Mof_C 	C 	0.432	0.203	0.797	-1.485
Mof_C 	C 	0.3884	0.1778	0.8222	4.891
Mof_C 	C 	0.703	0.932	0.797	-1.462
Mof_C 	C 	0.6778	0.8884	0.8222	4.828
Mof_C 	C 	0.703	0.432	0.297	-1.485
Mof_C 	C 	0.6778	0.3884	0.3222	4.891
Mof_C 	C 	0.703	0.068	0.203	-1.509
Mof_C 	C 	0.6778	0.1116	0.1778	4.945
Mof_C 	C 	0.703	0.568	0.703	-1.482
Mof_C 	C 	0.6778	0.6116	0.6778	4.88
Mof_C 	C 	0.297	0.068	0.797	-1.486
Mof_C 	C 	0.3222	0.1116	0.8222	4.892
Mof_C 	C 	0.297	0.432	0.703	-1.485
Mof_C 	C 	0.3222	0.3884	0.6778	4.891
Mof_C 	C 	0.797	0.703	0.932	-1.462
Mof_C 	C 	0.8222	0.6778	0.8884	4.828
Mof_C 	C 	0.797	0.203	0.432	-1.485
Mof_C 	C 	0.8222	0.1778	0.3884	4.891
Mof_C 	C 	0.203	0.703	0.068	-1.509
Mof_C 	C 	0.1778	0.6778	0.1116	4.945
Mof_C 	C 	0.797	0.297	0.068	-1.486
Mof_C 	C 	0.8222	0.3222	0.1116	4.892
Mof_C 	C 	0.797	0.797	0.568	-1.459
Mof_C 	C 	0.8222	0.8222	0.6116	4.828
Mof_C 	C 	0.203	0.797	0.432	-1.485
Mof_C 	C 	0.1778	0.8222	0.3884	4.891
Mof_C 	C 	0.797	0.932	0.297	-1.464
Mof_C 	C 	0.8222	0.8884	0.3222	4.834
Mof_C 	C 	0.797	0.432	0.797	-1.46
Mof_C 	C 	0.8222	0.3884	0.8222	4.832
Mof_C 	C 	0.203	0.568	0.797	-1.483
Mof_C 	C 	0.1778	0.6116	0.8222	4.887
Mof_C 	C 	0.797	0.068	0.703	-1.485
Mof_C 	C 	0.8222	0.1116	0.6778	4.886
Mof_C 	C 	0.797	0.568	0.203	-1.483
Mof_C 	C 	0.8222	0.6116	0.1778	4.887
Mof_C 	C 	0.203	0.932	0.703	-1.486
Mof_C 	C 	0.1778	0.8884	0.6778	4.886
Mof_C 	C 	0.932	0.703	0.203	-1.486
Mof_C 	C 	0.8884	0.6778	0.1778	4.886
Mof_C 	C 	0.432	0.703	0.703	-1.483
Mof_C 	C 	0.3884	0.6778	0.6778	4.885
Mof_C 	C 	0.068	0.703	0.797	-1.485
Mof_C 	C 	0.1116	0.6778	0.8222	4.886
Mof_C 	C 	0.568	0.703	0.297	-1.483
Mof_C 	C 	0.6116	0.6778	0.3222	4.887
Mof_C 	C 	0.568	0.297	0.703	-1.483
Mof_C 	C 	0.6116	0.3222	0.6778	4.887
Mof_C 	C 	0.932	0.297	0.797	-1.464
Mof_C 	C 	0.8884	0.3222	0.8222	4.834
Mof_C 	C 	0.703	0.797	0.068	-1.485
Mof_C 	C 	0.6778	0.8222	0.1116	4.886
Mof_C 	C 	0.703	0.297	0.568	-1.483
Mof_C 	C 	0.6778	0.3222	0.6116	4.887
Mof_C 	C 	0.703	0.203	0.932	-1.486
Mof_C 	C 	0.6778	0.1778	0.8884	4.886
Mof_C 	C 	0.703	0.703	0.432	-1.483
Mof_C 	C 	0.6778	0.6778	0.3884	4.885
Mof_C 	C 	0.297	0.797	0.932	-1.464
Mof_C 	C 	0.3222	0.8222	0.8884	4.834
Mof_C 	C 	0.297	0.703	0.568	-1.483
Mof_C 	C 	0.3222	0.6778	0.6116	4.887
Mof_C 	C 	0.13415	0.1995	0.36585	-6.54
Mof_H 	H 	0.1197	0.2292	0.3803	6.08
Mof_F 	F 	0.1096	0.2477	0.3904	-4.358
Mof_C 	C 	0.13415	0.6995	0.86585	-6.441
Mof_H 	H 	0.1197	0.7292	0.8803	5.996
Mof_F 	F 	0.1096	0.7477	0.8904	-4.288
Mof_C 	C 	0.86585	0.8005	0.36585	-6.36
Mof_H 	H 	0.8803	0.7708	0.3803	5.931
Mof_F 	F 	0.8904	0.7523	0.3904	-4.237
Mof_C 	C 	0.86585	0.3005	0.86585	-6.351
Mof_H 	H 	0.8803	0.2708	0.8803	5.919
Mof_F 	F 	0.8904	0.2523	0.8904	-4.222
Mof_C 	C 	0.36585	0.3005	0.36585	-6.46
Mof_H 	H 	0.3803	0.2708	0.3803	6.016
Mof_F 	F 	0.3904	0.2523	0.3904	-4.307
Mof_C 	C 	0.86585	0.1995	0.63415	-6.432
Mof_H 	H 	0.8803	0.2292	0.6197	5.985
Mof_F 	F 	0.8904	0.2477	0.6096	-4.275
Mof_C 	C 	0.86585	0.6995	0.13415	-6.441
Mof_H 	H 	0.8803	0.7292	0.1197	5.996
Mof_F 	F 	0.8904	0.7477	0.1096	-4.288
Mof_C 	C 	0.36585	0.1995	0.13415	-6.54
Mof_H 	H 	0.3803	0.2292	0.1197	6.08
Mof_F 	F 	0.3904	0.2477	0.1096	-4.358
Mof_C 	C 	0.13415	0.8005	0.63415	-6.458
Mof_H 	H 	0.1197	0.7708	0.6197	6.018
Mof_F 	F 	0.1096	0.7523	0.6096	-4.315
Mof_C 	C 	0.13415	0.3005	0.13415	-6.555
Mof_H 	H 	0.1197	0.2708	0.1197	6.099
Mof_F 	F 	0.1096	0.2523	0.1096	-4.382
Mof_C 	C 	0.36585	0.13415	0.1995	-6.54
Mof_H 	H 	0.3803	0.1197	0.2292	6.08
Mof_F 	F 	0.3904	0.1096	0.2477	-4.358
Mof_C 	C 	0.36585	0.63415	0.6995	-6.441
Mof_H 	H 	0.3803	0.6197	0.7292	5.997
Mof_F 	F 	0.3904	0.6096	0.7477	-4.29
Mof_C 	C 	0.36585	0.86585	0.8005	-6.36
Mof_H 	H 	0.3803	0.8803	0.7708	5.931
Mof_F 	F 	0.3904	0.8904	0.7523	-4.237
Mof_C 	C 	0.36585	0.36585	0.3005	-6.46
Mof_H 	H 	0.3803	0.3803	0.2708	6.016
Mof_F 	F 	0.3904	0.3904	0.2523	-4.307
Mof_C 	C 	0.63415	0.86585	0.1995	-6.432
Mof_H 	H 	0.6197	0.8803	0.2292	5.985
Mof_F 	F 	0.6096	0.8904	0.2477	-4.275
Mof_C 	C 	0.63415	0.36585	0.6995	-6.441
Mof_H 	H 	0.6197	0.3803	0.7292	5.997
Mof_F 	F 	0.6096	0.3904	0.7477	-4.29
Mof_C 	C 	0.13415	0.36585	0.1995	-6.54
Mof_H 	H 	0.1197	0.3803	0.2292	6.08
Mof_F 	F 	0.1096	0.3904	0.2477	-4.358
Mof_C 	C 	0.63415	0.13415	0.8005	-6.458
Mof_H 	H 	0.6197	0.1197	0.7708	6.018
Mof_F 	F 	0.6096	0.1096	0.7523	-4.315
Mof_C 	C 	0.63415	0.63415	0.3005	-6.449
Mof_H 	H 	0.6197	0.6197	0.2708	6.007
Mof_F 	F 	0.6096	0.6096	0.2523	-4.302
Mof_C 	C 	0.13415	0.13415	0.3005	-6.555
Mof_H 	H 	0.1197	0.1197	0.2708	6.099
Mof_F 	F 	0.1096	0.1096	0.2523	-4.382
Mof_C 	C 	0.1995	0.36585	0.13415	-6.54
Mof_H 	H 	0.2292	0.3803	0.1197	6.08
Mof_F 	F 	0.2477	0.3904	0.1096	-4.358
Mof_C 	C 	0.6995	0.36585	0.63415	-6.441
Mof_H 	H 	0.7292	0.3803	0.6197	5.997
Mof_F 	F 	0.7477	0.3904	0.6096	-4.29
Mof_C 	C 	0.8005	0.36585	0.86585	-6.36
Mof_H 	H 	0.7708	0.3803	0.8803	5.931
Mof_F 	F 	0.7523	0.3904	0.8904	-4.237
Mof_C 	C 	0.3005	0.36585	0.36585	-6.46
Mof_H 	H 	0.2708	0.3803	0.3803	6.016
Mof_F 	F 	0.2523	0.3904	0.3904	-4.307
Mof_C 	C 	0.1995	0.63415	0.86585	-6.432
Mof_H 	H 	0.2292	0.6197	0.8803	5.985
Mof_F 	F 	0.2477	0.6096	0.8904	-4.275
Mof_C 	C 	0.1995	0.13415	0.36585	-6.54
Mof_H 	H 	0.2292	0.1197	0.3803	6.08
Mof_F 	F 	0.2477	0.1096	0.3904	-4.358
Mof_C 	C 	0.6995	0.63415	0.36585	-6.441
Mof_H 	H 	0.7292	0.6197	0.3803	5.997
Mof_F 	F 	0.7477	0.6096	0.3904	-4.29
Mof_C 	C 	0.8005	0.63415	0.13415	-6.458
Mof_H 	H 	0.7708	0.6197	0.1197	6.018
Mof_F 	F 	0.7523	0.6096	0.1096	-4.315
Mof_C 	C 	0.3005	0.63415	0.63415	-6.449
Mof_H 	H 	0.2708	0.6197	0.6197	6.007
Mof_F 	F 	0.2523	0.6096	0.6096	-4.302
Mof_C 	C 	0.3005	0.13415	0.13415	-6.555
Mof_H 	H 	0.2708	0.1197	0.1197	6.099
Mof_F 	F 	0.2523	0.1096	0.1096	-4.382
Mof_C 	C 	0.1995	0.13415	0.63415	-6.534
Mof_H 	H 	0.2292	0.1197	0.6197	6.076
Mof_F 	F 	0.2477	0.1096	0.6096	-4.356
Mof_C 	C 	0.6995	0.13415	0.13415	-6.543
Mof_H 	H 	0.7292	0.1197	0.1197	6.086
Mof_F 	F 	0.7477	0.1096	0.1096	-4.368
Mof_C 	C 	0.8005	0.86585	0.63415	-6.355
Mof_H 	H 	0.7708	0.8803	0.6197	5.927
Mof_F 	F 	0.7523	0.8904	0.6096	-4.235
Mof_C 	C 	0.8005	0.36585	0.13415	-6.463
Mof_H 	H 	0.7708	0.3803	0.1197	6.021
Mof_F 	F 	0.7523	0.3904	0.1096	-4.317
Mof_C 	C 	0.3005	0.86585	0.13415	-6.453
Mof_H 	H 	0.2708	0.8803	0.1197	6.009
Mof_F 	F 	0.2523	0.8904	0.1096	-4.302
Mof_C 	C 	0.1995	0.86585	0.36585	-6.437
Mof_H 	H 	0.2292	0.8803	0.3803	5.989
Mof_F 	F 	0.2477	0.8904	0.3904	-4.278
Mof_C 	C 	0.6995	0.86585	0.86585	-6.339
Mof_H 	H 	0.7292	0.8803	0.8803	5.906
Mof_F 	F 	0.7477	0.8904	0.8904	-4.208
Mof_C 	C 	0.6995	0.36585	0.36585	-6.447
Mof_H 	H 	0.7292	0.3803	0.3803	6.001
Mof_F 	F 	0.7477	0.3904	0.3904	-4.293
Mof_C 	C 	0.8005	0.13415	0.36585	-6.463
Mof_H 	H 	0.7708	0.1197	0.3803	6.021
Mof_F 	F 	0.7523	0.1096	0.3904	-4.317
Mof_C 	C 	0.3005	0.13415	0.86585	-6.453
Mof_H 	H 	0.2708	0.1197	0.8803	6.009
Mof_F 	F 	0.2523	0.1096	0.8904	-4.302
Mof_C 	C 	0.13415	0.36585	0.8005	-6.463
Mof_H 	H 	0.1197	0.3803	0.7708	6.021
Mof_F 	F 	0.1096	0.3904	0.7523	-4.317
Mof_C 	C 	0.13415	0.86585	0.3005	-6.453
Mof_H 	H 	0.1197	0.8803	0.2708	6.009
Mof_F 	F 	0.1096	0.8904	0.2523	-4.302
Mof_C 	C 	0.86585	0.36585	0.1995	-6.437
Mof_H 	H 	0.8803	0.3803	0.2292	5.989
Mof_F 	F 	0.8904	0.3904	0.2477	-4.278
Mof_C 	C 	0.86585	0.86585	0.6995	-6.339
Mof_H 	H 	0.8803	0.8803	0.7292	5.906
Mof_F 	F 	0.8904	0.8904	0.7477	-4.208
Mof_C 	C 	0.36585	0.36585	0.6995	-6.447
Mof_H 	H 	0.3803	0.3803	0.7292	6.001
Mof_F 	F 	0.3904	0.3904	0.7477	-4.293
Mof_C 	C 	0.86585	0.63415	0.8005	-6.355
Mof_H 	H 	0.8803	0.6197	0.7708	5.927
Mof_F 	F 	0.8904	0.6096	0.7523	-4.235
Mof_C 	C 	0.86585	0.13415	0.3005	-6.453
Mof_H 	H 	0.8803	0.1197	0.2708	6.009
Mof_F 	F 	0.8904	0.1096	0.2523	-4.302
Mof_C 	C 	0.36585	0.13415	0.8005	-6.463
Mof_H 	H 	0.3803	0.1197	0.7708	6.021
Mof_F 	F 	0.3904	0.1096	0.7523	-4.317
Mof_C 	C 	0.13415	0.63415	0.1995	-6.534
Mof_H 	H 	0.1197	0.6197	0.2292	6.076
Mof_F 	F 	0.1096	0.6096	0.2477	-4.356
Mof_C 	C 	0.13415	0.13415	0.6995	-6.543
Mof_H 	H 	0.1197	0.1197	0.7292	6.086
Mof_F 	F 	0.1096	0.1096	0.7477	-4.368
Mof_C 	C 	0.36585	0.1995	0.86585	-6.437
Mof_H 	H 	0.3803	0.2292	0.8803	5.989
Mof_F 	F 	0.3904	0.2477	0.8904	-4.278
Mof_C 	C 	0.36585	0.6995	0.36585	-6.447
Mof_H 	H 	0.3803	0.7292	0.3803	6.001
Mof_F 	F 	0.3904	0.7477	0.3904	-4.293
Mof_C 	C 	0.36585	0.8005	0.13415	-6.463
Mof_H 	H 	0.3803	0.7708	0.1197	6.021
Mof_F 	F 	0.3904	0.7523	0.1096	-4.317
Mof_C 	C 	0.36585	0.3005	0.63415	-6.455
Mof_H 	H 	0.3803	0.2708	0.6197	6.011
Mof_F 	F 	0.3904	0.2523	0.6096	-4.305
Mof_C 	C 	0.63415	0.1995	0.13415	-6.534
Mof_H 	H 	0.6197	0.2292	0.1197	6.076
Mof_F 	F 	0.6096	0.2477	0.1096	-4.356
Mof_C 	C 	0.63415	0.6995	0.63415	-6.436
Mof_H 	H 	0.6197	0.7292	0.6197	5.993
Mof_F 	F 	0.6096	0.7477	0.6096	-4.288
Mof_C 	C 	0.13415	0.6995	0.13415	-6.543
Mof_H 	H 	0.1197	0.7292	0.1197	6.086
Mof_F 	F 	0.1096	0.7477	0.1096	-4.368
Mof_C 	C 	0.63415	0.8005	0.86585	-6.355
Mof_H 	H 	0.6197	0.7708	0.8803	5.927
Mof_F 	F 	0.6096	0.7523	0.8904	-4.235
Mof_C 	C 	0.63415	0.3005	0.36585	-6.455
Mof_H 	H 	0.6197	0.2708	0.3803	6.011
Mof_F 	F 	0.6096	0.2523	0.3904	-4.305
Mof_C 	C 	0.13415	0.8005	0.36585	-6.463
Mof_H 	H 	0.1197	0.7708	0.3803	6.021
Mof_F 	F 	0.1096	0.7523	0.3904	-4.317
Mof_C 	C 	0.86585	0.8005	0.63415	-6.355
Mof_H 	H 	0.8803	0.7708	0.6197	5.927
Mof_F 	F 	0.8904	0.7523	0.6096	-4.235
Mof_C 	C 	0.86585	0.3005	0.13415	-6.453
Mof_H 	H 	0.8803	0.2708	0.1197	6.009
Mof_F 	F 	0.8904	0.2523	0.1096	-4.302
Mof_C 	C 	0.13415	0.1995	0.63415	-6.534
Mof_H 	H 	0.1197	0.2292	0.6197	6.076
Mof_F 	F 	0.1096	0.2477	0.6096	-4.356
Mof_C 	C 	0.13415	0.3005	0.86585	-6.453
Mof_H 	H 	0.1197	0.2708	0.8803	6.009
Mof_F 	F 	0.1096	0.2523	0.8904	-4.302
Mof_C 	C 	0.86585	0.1995	0.36585	-6.437
Mof_H 	H 	0.8803	0.2292	0.3803	5.989
Mof_F 	F 	0.8904	0.2477	0.3904	-4.278
Mof_C 	C 	0.86585	0.6995	0.86585	-6.339
Mof_H 	H 	0.8803	0.7292	0.8803	5.906
Mof_F 	F 	0.8904	0.7477	0.8904	-4.208
Mof_C 	C 	0.63415	0.86585	0.8005	-6.355
Mof_H 	H 	0.6197	0.8803	0.7708	5.927
Mof_F 	F 	0.6096	0.8904	0.7523	-4.235
Mof_C 	C 	0.63415	0.36585	0.3005	-6.455
Mof_H 	H 	0.6197	0.3803	0.2708	6.011
Mof_F 	F 	0.6096	0.3904	0.2523	-4.305
Mof_C 	C 	0.63415	0.13415	0.1995	-6.534
Mof_H 	H 	0.6197	0.1197	0.2292	6.076
Mof_F 	F 	0.6096	0.1096	0.2477	-4.356
Mof_C 	C 	0.63415	0.63415	0.6995	-6.436
Mof_H 	H 	0.6197	0.6197	0.7292	5.993
Mof_F 	F 	0.6096	0.6096	0.7477	-4.288
Mof_C 	C 	0.36585	0.63415	0.3005	-6.455
Mof_H 	H 	0.3803	0.6197	0.2708	6.011
Mof_F 	F 	0.3904	0.6096	0.2523	-4.305
Mof_C 	C 	0.36585	0.86585	0.1995	-6.437
Mof_H 	H 	0.3803	0.8803	0.2292	5.989
Mof_F 	F 	0.3904	0.8904	0.2477	-4.278
Mof_C 	C 	0.8005	0.63415	0.86585	-6.355
Mof_H 	H 	0.7708	0.6197	0.8803	5.927
Mof_F 	F 	0.7523	0.6096	0.8904	-4.235
Mof_C 	C 	0.3005	0.63415	0.36585	-6.455
Mof_H 	H 	0.2708	0.6197	0.3803	6.011
Mof_F 	F 	0.2523	0.6096	0.3904	-4.305
Mof_C 	C 	0.1995	0.63415	0.13415	-6.534
Mof_H 	H 	0.2292	0.6197	0.1197	6.076
Mof_F 	F 	0.2477	0.6096	0.1096	-4.356
Mof_C 	C 	0.6995	0.63415	0.63415	-6.436
Mof_H 	H 	0.7292	0.6197	0.6197	5.993
Mof_F 	F 	0.7477	0.6096	0.6096	-4.288
Mof_C 	C 	0.3005	0.36585	0.63415	-6.455
Mof_H 	H 	0.2708	0.3803	0.6197	6.011
Mof_F 	F 	0.2523	0.3904	0.6096	-4.305
Mof_C 	C 	0.1995	0.36585	0.86585	-6.437
Mof_H 	H 	0.2292	0.3803	0.8803	5.989
Mof_F 	F 	0.2477	0.3904	0.8904	-4.278
Mof_C 	C 	0.8005	0.86585	0.36585	-6.36
Mof_H 	H 	0.7708	0.8803	0.3803	5.931
Mof_F 	F 	0.7523	0.8904	0.3904	-4.237
Mof_C 	C 	0.3005	0.86585	0.86585	-6.351
Mof_H 	H 	0.2708	0.8803	0.8803	5.919
Mof_F 	F 	0.2523	0.8904	0.8904	-4.222
Mof_C 	C 	0.6995	0.13415	0.86585	-6.441
Mof_H 	H 	0.7292	0.1197	0.8803	5.996
Mof_F 	F 	0.7477	0.1096	0.8904	-4.288
Mof_C 	C 	0.8005	0.13415	0.63415	-6.458
Mof_H 	H 	0.7708	0.1197	0.6197	6.018
Mof_F 	F 	0.7523	0.1096	0.6096	-4.315
Mof_C 	C 	0.1995	0.86585	0.63415	-6.432
Mof_H 	H 	0.2292	0.8803	0.6197	5.985
Mof_F 	F 	0.2477	0.8904	0.6096	-4.275
Mof_C 	C 	0.6995	0.86585	0.13415	-6.441
Mof_H 	H 	0.7292	0.8803	0.1197	5.996
Mof_F 	F 	0.7477	0.8904	0.1096	-4.288
Mof_C 	C 	0.86585	0.63415	0.1995	-6.432
Mof_H 	H 	0.8803	0.6197	0.2292	5.985
Mof_F 	F 	0.8904	0.6096	0.2477	-4.275
Mof_C 	C 	0.86585	0.13415	0.6995	-6.441
Mof_H 	H 	0.8803	0.1197	0.7292	5.996
Mof_F 	F 	0.8904	0.1096	0.7477	-4.288
Mof_C 	C 	0.13415	0.63415	0.8005	-6.458
Mof_H 	H 	0.1197	0.6197	0.7708	6.018
Mof_F 	F 	0.1096	0.6096	0.7523	-4.315
Mof_C 	C 	0.13415	0.86585	0.6995	-6.441
Mof_H 	H 	0.1197	0.8803	0.7292	5.996
Mof_F 	F 	0.1096	0.8904	0.7477	-4.288
Mof_C 	C 	0.86585	0.36585	0.8005	-6.36
Mof_H 	H 	0.8803	0.3803	0.7708	5.931
Mof_F 	F 	0.8904	0.3904	0.7523	-4.237
Mof_C 	C 	0.86585	0.86585	0.3005	-6.351
Mof_H 	H 	0.8803	0.8803	0.2708	5.919
Mof_F 	F 	0.8904	0.8904	0.2523	-4.222
Mof_C 	C 	0.63415	0.8005	0.13415	-6.458
Mof_H 	H 	0.6197	0.7708	0.1197	6.018
Mof_F 	F 	0.6096	0.7523	0.1096	-4.315
Mof_C 	C 	0.63415	0.3005	0.63415	-6.449
Mof_H 	H 	0.6197	0.2708	0.6197	6.007
Mof_F 	F 	0.6096	0.2523	0.6096	-4.302
Mof_C 	C 	0.63415	0.1995	0.86585	-6.432
Mof_H 	H 	0.6197	0.2292	0.8803	5.985
Mof_F 	F 	0.6096	0.2477	0.8904	-4.275
Mof_C 	C 	0.63415	0.6995	0.36585	-6.441
Mof_H 	H 	0.6197	0.7292	0.3803	5.997
Mof_F 	F 	0.6096	0.7477	0.3904	-4.29
Mof_C 	C 	0.36585	0.8005	0.86585	-6.36
Mof_H 	H 	0.3803	0.7708	0.8803	5.931
Mof_F 	F 	0.3904	0.7523	0.8904	-4.237
Mof_C 	C 	0.36585	0.6995	0.63415	-6.441
Mof_H 	H 	0.3803	0.7292	0.6197	5.997
Mof_F 	F 	0.3904	0.7477	0.6096	-4.29
_end
