data_functionalizedCrystal
_audit_creation_method	'EQeq! by Chris Wilmer'
_symmetry_space_group_name_H-M	'P1'
_symmetry_Int_Tables_number	1
_symmetry_cell_setting	triclinic
loop_
_symmetry_equiv_pos_as_xyz
  x,y,z
_cell_length_a	7.6497
_cell_length_b	8.7364
_cell_length_c	10.0064
_cell_angle_alpha	86.498
_cell_angle_beta	89.456
_cell_angle_gamma	85.135
loop_
_atom_site_label
_atom_site_type_symbol
_atom_site_fract_x
_atom_site_fract_y
_atom_site_fract_z
_atom_site_charge
Mof_La	La	0.43049	0.11532	0.16902	1.963
Mof_O 	O 	0.1255	0.24257	0.13691	-0.456
Mof_O 	O 	0.4257	0.36108	0.27972	-0.466
Mof_O 	O 	0.5988	0.7243	0.04595	-0.494
Mof_O 	O 	0.6982	0.03398	0.00663	-0.591
Mof_O 	O 	0.4975	0.8318	0.23194	-0.544
Mof_N 	N 	0.5687	0.543	0.3729	-0.106
Mof_N 	N 	0.971	0.3529	0.9625	-0.113
Mof_O 	O 	0.7143	0.246	0.113	-0.451
Mof_C 	C 	0.9136	0.2051	0.9311	-0.206
Mof_H 	H 	0.0136	0.1254	0.9401	0.08
Mof_H 	H 	0.8724	0.2106	0.8373	0.061
Mof_C 	C 	0.4639	0.4296	0.3799	0.264
Mof_C 	C 	0.6124	0.6243	0.4896	-0.182
Mof_H 	H 	0.5735	0.7347	0.4724	0.036
Mof_H 	H 	0.7417	0.6161	0.4985	0.057
Mof_C 	C 	0.1191	0.5116	0.1092	-0.213
Mof_H 	H 	0.0958	0.5188	0.2062	0.085
Mof_H 	H 	0.2471	0.5152	0.0953	0.106
Mof_C 	C 	0.766	0.1603	0.0246	0.406
Mof_C 	C 	0.0691	0.3595	0.0696	0.311
Mof_C 	C 	0.6585	0.5826	0.2487	-0.291
Mof_H 	H 	0.6612	0.494	0.1913	0.141
Mof_H 	H 	0.7814	0.5995	0.2695	0.105
Mof_C 	C 	0.5756	0.7255	0.1696	0.498
Mof_La	La	0.56951	0.88468	0.83098	1.963
Mof_O 	O 	0.8745	0.75743	0.86309	-0.456
Mof_O 	O 	0.5743	0.63892	0.72028	-0.466
Mof_O 	O 	0.4012	0.2757	0.95405	-0.494
Mof_O 	O 	0.3018	0.96602	0.99337	-0.591
Mof_O 	O 	0.5025	0.1682	0.76806	-0.544
Mof_N 	N 	0.4313	0.457	0.6271	-0.106
Mof_N 	N 	0.029	0.6471	0.0375	-0.113
Mof_O 	O 	0.2857	0.754	0.887	-0.451
Mof_C 	C 	0.0864	0.7949	0.0689	-0.206
Mof_H 	H 	0.9864	0.8746	0.0599	0.08
Mof_H 	H 	0.1276	0.7894	0.1627	0.061
Mof_C 	C 	0.5361	0.5704	0.6201	0.264
Mof_C 	C 	0.3876	0.3757	0.5104	-0.182
Mof_H 	H 	0.4265	0.2653	0.5276	0.036
Mof_H 	H 	0.2583	0.3839	0.5015	0.057
Mof_C 	C 	0.8809	0.4884	0.8908	-0.213
Mof_H 	H 	0.9042	0.4812	0.7938	0.085
Mof_H 	H 	0.7529	0.4848	0.9047	0.106
Mof_C 	C 	0.234	0.8397	0.9754	0.406
Mof_C 	C 	0.9309	0.6405	0.9304	0.311
Mof_C 	C 	0.3415	0.4174	0.7513	-0.291
Mof_H 	H 	0.3388	0.506	0.8087	0.141
Mof_H 	H 	0.2186	0.4005	0.7305	0.105
Mof_C 	C 	0.4244	0.2745	0.8304	0.498
_end
