data_functionalizedCrystal
_audit_creation_method	'EQeq! by Chris Wilmer'
_symmetry_space_group_name_H-M	'P1'
_symmetry_Int_Tables_number	1
_symmetry_cell_setting	triclinic
loop_
_symmetry_equiv_pos_as_xyz
  x,y,z
_cell_length_a	36.1906
_cell_length_b	36.1906
_cell_length_c	36.1906
_cell_angle_alpha	90
_cell_angle_beta	90
_cell_angle_gamma	90
loop_
_atom_site_label
_atom_site_type_symbol
_atom_site_fract_x
_atom_site_fract_y
_atom_site_fract_z
_atom_site_charge
Mof_C 	C 	0.0296	0.486	0.1132	0.067
Mof_C 	C 	0.05218	0.49005	0.14564	0.087
Mof_C 	C 	0.04404	0.46952	0.1771	-0.185
Mof_H 	H 	0.0237	0.453	0.177	0.081
Mof_C 	C 	0.0657	0.47321	0.20856	0.162
Mof_H 	H 	0.0601	0.4592	0.23	-0.045
Mof_C 	C 	0.09553	0.49742	0.20863	-0.368
Mof_C 	C 	0.10367	0.51795	0.1772	0.165
Mof_H 	H 	0.124	0.5345	0.1773	-0.041
Mof_C 	C 	0.082	0.51426	0.14571	-0.185
Mof_H 	H 	0.0876	0.5283	0.1242	0.093
Mof_N 	N 	0.9859	0.4667	0.0776	-0.168
Mof_N 	N 	0.0081	0.4893	0.0585	-0.139
Mof_N 	N 	0.0355	0.5006	0.0798	-0.091
Mof_N 	N 	0.9993	0.4653	0.1128	-0.109
Mof_C 	C 	0.5296	0.986	0.6132	0.088
Mof_C 	C 	0.55218	0.99005	0.64564	0.087
Mof_C 	C 	0.54404	0.96952	0.6771	-0.172
Mof_H 	H 	0.5237	0.953	0.677	0.081
Mof_C 	C 	0.5657	0.97321	0.70856	0.145
Mof_H 	H 	0.5601	0.9592	0.73	-0.035
Mof_C 	C 	0.59553	0.99742	0.70863	-0.329
Mof_C 	C 	0.60367	0.01795	0.6772	0.136
Mof_H 	H 	0.624	0.0345	0.6773	-0.032
Mof_C 	C 	0.582	0.01426	0.64571	-0.182
Mof_H 	H 	0.5876	0.0283	0.6242	0.09
Mof_N 	N 	0.4859	0.9667	0.5776	-0.171
Mof_N 	N 	0.5081	0.9893	0.5585	-0.126
Mof_N 	N 	0.5355	0.0006	0.5798	-0.101
Mof_N 	N 	0.4993	0.9653	0.6128	-0.117
Mof_C 	C 	0.4704	0.514	0.6132	0.078
Mof_C 	C 	0.44782	0.50995	0.64564	0.085
Mof_C 	C 	0.45596	0.53048	0.6771	-0.183
Mof_H 	H 	0.4763	0.547	0.677	0.083
Mof_C 	C 	0.4343	0.52679	0.70856	0.161
Mof_H 	H 	0.4399	0.5408	0.73	-0.043
Mof_C 	C 	0.40447	0.50258	0.70863	-0.367
Mof_C 	C 	0.39633	0.48205	0.6772	0.164
Mof_H 	H 	0.376	0.4655	0.6773	-0.04
Mof_C 	C 	0.418	0.48574	0.64571	-0.182
Mof_H 	H 	0.4124	0.4717	0.6242	0.093
Mof_N 	N 	0.5141	0.5333	0.5776	-0.172
Mof_N 	N 	0.4919	0.5107	0.5585	-0.132
Mof_N 	N 	0.4645	0.4994	0.5798	-0.09
Mof_N 	N 	0.5007	0.5347	0.6128	-0.116
Mof_C 	C 	0.9704	0.014	0.1132	0.083
Mof_C 	C 	0.94782	0.00995	0.14564	0.069
Mof_C 	C 	0.95596	0.03048	0.1771	-0.173
Mof_H 	H 	0.9763	0.047	0.177	0.083
Mof_C 	C 	0.9343	0.02679	0.20856	0.154
Mof_H 	H 	0.9399	0.0408	0.23	-0.04
Mof_C 	C 	0.90447	0.00258	0.20863	-0.362
Mof_C 	C 	0.89633	0.98205	0.1772	0.167
Mof_H 	H 	0.876	0.9655	0.1773	-0.037
Mof_C 	C 	0.918	0.98574	0.14571	-0.163
Mof_H 	H 	0.9124	0.9717	0.1242	0.09
Mof_N 	N 	0.0141	0.0333	0.0776	-0.178
Mof_N 	N 	0.9919	0.0107	0.0585	-0.131
Mof_N 	N 	0.9645	0.9994	0.0798	-0.08
Mof_N 	N 	0.0007	0.0347	0.1128	-0.124
Mof_C 	C 	0.9704	0.986	0.3868	0.099
Mof_C 	C 	0.94782	0.99005	0.35436	0.085
Mof_C 	C 	0.95596	0.96952	0.3229	-0.168
Mof_H 	H 	0.9763	0.953	0.323	0.084
Mof_C 	C 	0.9343	0.97321	0.29144	0.145
Mof_H 	H 	0.9399	0.9592	0.27	-0.032
Mof_C 	C 	0.90447	0.99742	0.29137	-0.327
Mof_C 	C 	0.89633	0.01795	0.3228	0.136
Mof_H 	H 	0.876	0.0345	0.3227	-0.03
Mof_C 	C 	0.918	0.01426	0.35429	-0.178
Mof_H 	H 	0.9124	0.0283	0.3758	0.091
Mof_N 	N 	0.0141	0.9667	0.4224	-0.175
Mof_N 	N 	0.9919	0.9893	0.4415	-0.118
Mof_N 	N 	0.9645	0.0006	0.4202	-0.1
Mof_N 	N 	0.0007	0.9653	0.3872	-0.124
Mof_C 	C 	0.4704	0.486	0.8868	0.079
Mof_C 	C 	0.44782	0.49005	0.85436	0.086
Mof_C 	C 	0.45596	0.46952	0.8229	-0.182
Mof_H 	H 	0.4763	0.453	0.823	0.085
Mof_C 	C 	0.4343	0.47321	0.79144	0.163
Mof_H 	H 	0.4399	0.4592	0.77	-0.042
Mof_C 	C 	0.40447	0.49742	0.79137	-0.366
Mof_C 	C 	0.39633	0.51795	0.8228	0.165
Mof_H 	H 	0.376	0.5345	0.8227	-0.038
Mof_C 	C 	0.418	0.51426	0.85429	-0.181
Mof_H 	H 	0.4124	0.5283	0.8758	0.095
Mof_N 	N 	0.5141	0.4667	0.9224	-0.171
Mof_N 	N 	0.4919	0.4893	0.9415	-0.129
Mof_N 	N 	0.4645	0.5006	0.9202	-0.088
Mof_N 	N 	0.5007	0.4653	0.8872	-0.115
Mof_C 	C 	0.5296	0.014	0.8868	0.073
Mof_C 	C 	0.55218	0.00995	0.85436	0.073
Mof_C 	C 	0.54404	0.03048	0.8229	-0.176
Mof_H 	H 	0.5237	0.047	0.823	0.082
Mof_C 	C 	0.5657	0.02679	0.79144	0.156
Mof_H 	H 	0.5601	0.0408	0.77	-0.041
Mof_C 	C 	0.59553	0.00258	0.79137	-0.364
Mof_C 	C 	0.60367	0.98205	0.8228	0.169
Mof_H 	H 	0.624	0.9655	0.8227	-0.037
Mof_C 	C 	0.582	0.98574	0.85429	-0.166
Mof_H 	H 	0.5876	0.9717	0.8758	0.093
Mof_N 	N 	0.4859	0.0333	0.9224	-0.172
Mof_N 	N 	0.5081	0.0107	0.9415	-0.134
Mof_N 	N 	0.5355	0.9994	0.9202	-0.078
Mof_N 	N 	0.4993	0.0347	0.8872	-0.115
Mof_C 	C 	0.0296	0.514	0.3868	0.068
Mof_C 	C 	0.05218	0.50995	0.35436	0.088
Mof_C 	C 	0.04404	0.53048	0.3229	-0.185
Mof_H 	H 	0.0237	0.547	0.323	0.082
Mof_C 	C 	0.0657	0.52679	0.29144	0.163
Mof_H 	H 	0.0601	0.5408	0.27	-0.044
Mof_C 	C 	0.09553	0.50258	0.29137	-0.367
Mof_C 	C 	0.10367	0.48205	0.3228	0.166
Mof_H 	H 	0.124	0.4655	0.3227	-0.039
Mof_C 	C 	0.082	0.48574	0.35429	-0.184
Mof_H 	H 	0.0876	0.4717	0.3758	0.095
Mof_N 	N 	0.9859	0.5333	0.4224	-0.166
Mof_N 	N 	0.0081	0.5107	0.4415	-0.137
Mof_N 	N 	0.0355	0.4994	0.4202	-0.089
Mof_N 	N 	0.9993	0.5347	0.3872	-0.107
Mof_C 	C 	0.1132	0.0296	0.486	0.068
Mof_C 	C 	0.14564	0.05218	0.49005	0.088
Mof_C 	C 	0.1771	0.04404	0.46952	-0.184
Mof_H 	H 	0.177	0.0237	0.453	0.082
Mof_C 	C 	0.20856	0.0657	0.47321	0.163
Mof_H 	H 	0.23	0.0601	0.4592	-0.044
Mof_C 	C 	0.20863	0.09553	0.49742	-0.367
Mof_C 	C 	0.1772	0.10367	0.51795	0.166
Mof_H 	H 	0.1773	0.124	0.5345	-0.04
Mof_C 	C 	0.14571	0.082	0.51426	-0.184
Mof_H 	H 	0.1242	0.0876	0.5283	0.094
Mof_N 	N 	0.0776	0.9859	0.4667	-0.167
Mof_N 	N 	0.0585	0.0081	0.4893	-0.138
Mof_N 	N 	0.0798	0.0355	0.5006	-0.09
Mof_N 	N 	0.1128	0.9993	0.4653	-0.108
Mof_C 	C 	0.6132	0.5296	0.986	0.089
Mof_C 	C 	0.64564	0.55218	0.99005	0.088
Mof_C 	C 	0.6771	0.54404	0.96952	-0.171
Mof_H 	H 	0.677	0.5237	0.953	0.082
Mof_C 	C 	0.70856	0.5657	0.97321	0.146
Mof_H 	H 	0.73	0.5601	0.9592	-0.034
Mof_C 	C 	0.70863	0.59553	0.99742	-0.328
Mof_C 	C 	0.6772	0.60367	0.01795	0.137
Mof_H 	H 	0.6773	0.624	0.0345	-0.031
Mof_C 	C 	0.64571	0.582	0.01426	-0.181
Mof_H 	H 	0.6242	0.5876	0.0283	0.091
Mof_N 	N 	0.5776	0.4859	0.9667	-0.17
Mof_N 	N 	0.5585	0.5081	0.9893	-0.125
Mof_N 	N 	0.5798	0.5355	0.0006	-0.1
Mof_N 	N 	0.6128	0.4993	0.9653	-0.116
Mof_C 	C 	0.6132	0.4704	0.514	0.079
Mof_C 	C 	0.64564	0.44782	0.50995	0.086
Mof_C 	C 	0.6771	0.45596	0.53048	-0.182
Mof_H 	H 	0.677	0.4763	0.547	0.084
Mof_C 	C 	0.70856	0.4343	0.52679	0.162
Mof_H 	H 	0.73	0.4399	0.5408	-0.042
Mof_C 	C 	0.70863	0.40447	0.50258	-0.366
Mof_C 	C 	0.6772	0.39633	0.48205	0.165
Mof_H 	H 	0.6773	0.376	0.4655	-0.039
Mof_C 	C 	0.64571	0.418	0.48574	-0.181
Mof_H 	H 	0.6242	0.4124	0.4717	0.094
Mof_N 	N 	0.5776	0.5141	0.5333	-0.171
Mof_N 	N 	0.5585	0.4919	0.5107	-0.131
Mof_N 	N 	0.5798	0.4645	0.4994	-0.089
Mof_N 	N 	0.6128	0.5007	0.5347	-0.116
Mof_C 	C 	0.1132	0.9704	0.014	0.083
Mof_C 	C 	0.14564	0.94782	0.00995	0.069
Mof_C 	C 	0.1771	0.95596	0.03048	-0.173
Mof_H 	H 	0.177	0.9763	0.047	0.083
Mof_C 	C 	0.20856	0.9343	0.02679	0.154
Mof_H 	H 	0.23	0.9399	0.0408	-0.04
Mof_C 	C 	0.20863	0.90447	0.00258	-0.362
Mof_C 	C 	0.1772	0.89633	0.98205	0.167
Mof_H 	H 	0.1773	0.876	0.9655	-0.037
Mof_C 	C 	0.14571	0.918	0.98574	-0.163
Mof_H 	H 	0.1242	0.9124	0.9717	0.09
Mof_N 	N 	0.0776	0.0141	0.0333	-0.178
Mof_N 	N 	0.0585	0.9919	0.0107	-0.131
Mof_N 	N 	0.0798	0.9645	0.9994	-0.08
Mof_N 	N 	0.1128	0.0007	0.0347	-0.124
Mof_C 	C 	0.3868	0.9704	0.986	0.099
Mof_C 	C 	0.35436	0.94782	0.99005	0.085
Mof_C 	C 	0.3229	0.95596	0.96952	-0.168
Mof_H 	H 	0.323	0.9763	0.953	0.084
Mof_C 	C 	0.29144	0.9343	0.97321	0.145
Mof_H 	H 	0.27	0.9399	0.9592	-0.032
Mof_C 	C 	0.29137	0.90447	0.99742	-0.327
Mof_C 	C 	0.3228	0.89633	0.01795	0.136
Mof_H 	H 	0.3227	0.876	0.0345	-0.03
Mof_C 	C 	0.35429	0.918	0.01426	-0.178
Mof_H 	H 	0.3758	0.9124	0.0283	0.091
Mof_N 	N 	0.4224	0.0141	0.9667	-0.175
Mof_N 	N 	0.4415	0.9919	0.9893	-0.118
Mof_N 	N 	0.4202	0.9645	0.0006	-0.1
Mof_N 	N 	0.3872	0.0007	0.9653	-0.124
Mof_C 	C 	0.8868	0.4704	0.486	0.079
Mof_C 	C 	0.85436	0.44782	0.49005	0.086
Mof_C 	C 	0.8229	0.45596	0.46952	-0.182
Mof_H 	H 	0.823	0.4763	0.453	0.085
Mof_C 	C 	0.79144	0.4343	0.47321	0.163
Mof_H 	H 	0.77	0.4399	0.4592	-0.042
Mof_C 	C 	0.79137	0.40447	0.49742	-0.366
Mof_C 	C 	0.8228	0.39633	0.51795	0.165
Mof_H 	H 	0.8227	0.376	0.5345	-0.038
Mof_C 	C 	0.85429	0.418	0.51426	-0.181
Mof_H 	H 	0.8758	0.4124	0.5283	0.095
Mof_N 	N 	0.9224	0.5141	0.4667	-0.171
Mof_N 	N 	0.9415	0.4919	0.4893	-0.129
Mof_N 	N 	0.9202	0.4645	0.5006	-0.088
Mof_N 	N 	0.8872	0.5007	0.4653	-0.115
Mof_C 	C 	0.8868	0.5296	0.014	0.073
Mof_C 	C 	0.85436	0.55218	0.00995	0.073
Mof_C 	C 	0.8229	0.54404	0.03048	-0.176
Mof_H 	H 	0.823	0.5237	0.047	0.082
Mof_C 	C 	0.79144	0.5657	0.02679	0.156
Mof_H 	H 	0.77	0.5601	0.0408	-0.041
Mof_C 	C 	0.79137	0.59553	0.00258	-0.364
Mof_C 	C 	0.8228	0.60367	0.98205	0.169
Mof_H 	H 	0.8227	0.624	0.9655	-0.037
Mof_C 	C 	0.85429	0.582	0.98574	-0.166
Mof_H 	H 	0.8758	0.5876	0.9717	0.093
Mof_N 	N 	0.9224	0.4859	0.0333	-0.172
Mof_N 	N 	0.9415	0.5081	0.0107	-0.134
Mof_N 	N 	0.9202	0.5355	0.9994	-0.078
Mof_N 	N 	0.8872	0.4993	0.0347	-0.115
Mof_C 	C 	0.3868	0.0296	0.514	0.068
Mof_C 	C 	0.35436	0.05218	0.50995	0.088
Mof_C 	C 	0.3229	0.04404	0.53048	-0.185
Mof_H 	H 	0.323	0.0237	0.547	0.082
Mof_C 	C 	0.29144	0.0657	0.52679	0.163
Mof_H 	H 	0.27	0.0601	0.5408	-0.044
Mof_C 	C 	0.29137	0.09553	0.50258	-0.367
Mof_C 	C 	0.3228	0.10367	0.48205	0.166
Mof_H 	H 	0.3227	0.124	0.4655	-0.039
Mof_C 	C 	0.35429	0.082	0.48574	-0.184
Mof_H 	H 	0.3758	0.0876	0.4717	0.095
Mof_N 	N 	0.4224	0.9859	0.5333	-0.166
Mof_N 	N 	0.4415	0.0081	0.5107	-0.137
Mof_N 	N 	0.4202	0.0355	0.4994	-0.089
Mof_N 	N 	0.3872	0.9993	0.5347	-0.107
Mof_C 	C 	0.486	0.1132	0.0296	0.068
Mof_C 	C 	0.49005	0.14564	0.05218	0.088
Mof_C 	C 	0.46952	0.1771	0.04404	-0.184
Mof_H 	H 	0.453	0.177	0.0237	0.082
Mof_C 	C 	0.47321	0.20856	0.0657	0.163
Mof_H 	H 	0.4592	0.23	0.0601	-0.044
Mof_C 	C 	0.49742	0.20863	0.09553	-0.367
Mof_C 	C 	0.51795	0.1772	0.10367	0.166
Mof_H 	H 	0.5345	0.1773	0.124	-0.04
Mof_C 	C 	0.51426	0.14571	0.082	-0.184
Mof_H 	H 	0.5283	0.1242	0.0876	0.094
Mof_N 	N 	0.4667	0.0776	0.9859	-0.167
Mof_N 	N 	0.4893	0.0585	0.0081	-0.138
Mof_N 	N 	0.5006	0.0798	0.0355	-0.09
Mof_N 	N 	0.4653	0.1128	0.9993	-0.108
Mof_C 	C 	0.986	0.6132	0.5296	0.089
Mof_C 	C 	0.99005	0.64564	0.55218	0.088
Mof_C 	C 	0.96952	0.6771	0.54404	-0.171
Mof_H 	H 	0.953	0.677	0.5237	0.082
Mof_C 	C 	0.97321	0.70856	0.5657	0.146
Mof_H 	H 	0.9592	0.73	0.5601	-0.034
Mof_C 	C 	0.99742	0.70863	0.59553	-0.328
Mof_C 	C 	0.01795	0.6772	0.60367	0.137
Mof_H 	H 	0.0345	0.6773	0.624	-0.031
Mof_C 	C 	0.01426	0.64571	0.582	-0.181
Mof_H 	H 	0.0283	0.6242	0.5876	0.091
Mof_N 	N 	0.9667	0.5776	0.4859	-0.17
Mof_N 	N 	0.9893	0.5585	0.5081	-0.125
Mof_N 	N 	0.0006	0.5798	0.5355	-0.1
Mof_N 	N 	0.9653	0.6128	0.4993	-0.116
Mof_C 	C 	0.514	0.6132	0.4704	0.079
Mof_C 	C 	0.50995	0.64564	0.44782	0.086
Mof_C 	C 	0.53048	0.6771	0.45596	-0.182
Mof_H 	H 	0.547	0.677	0.4763	0.084
Mof_C 	C 	0.52679	0.70856	0.4343	0.162
Mof_H 	H 	0.5408	0.73	0.4399	-0.042
Mof_C 	C 	0.50258	0.70863	0.40447	-0.366
Mof_C 	C 	0.48205	0.6772	0.39633	0.165
Mof_H 	H 	0.4655	0.6773	0.376	-0.039
Mof_C 	C 	0.48574	0.64571	0.418	-0.181
Mof_H 	H 	0.4717	0.6242	0.4124	0.094
Mof_N 	N 	0.5333	0.5776	0.5141	-0.171
Mof_N 	N 	0.5107	0.5585	0.4919	-0.131
Mof_N 	N 	0.4994	0.5798	0.4645	-0.089
Mof_N 	N 	0.5347	0.6128	0.5007	-0.116
Mof_C 	C 	0.014	0.1132	0.9704	0.083
Mof_C 	C 	0.00995	0.14564	0.94782	0.069
Mof_C 	C 	0.03048	0.1771	0.95596	-0.173
Mof_H 	H 	0.047	0.177	0.9763	0.083
Mof_C 	C 	0.02679	0.20856	0.9343	0.154
Mof_H 	H 	0.0408	0.23	0.9399	-0.04
Mof_C 	C 	0.00258	0.20863	0.90447	-0.362
Mof_C 	C 	0.98205	0.1772	0.89633	0.167
Mof_H 	H 	0.9655	0.1773	0.876	-0.037
Mof_C 	C 	0.98574	0.14571	0.918	-0.163
Mof_H 	H 	0.9717	0.1242	0.9124	0.09
Mof_N 	N 	0.0333	0.0776	0.0141	-0.178
Mof_N 	N 	0.0107	0.0585	0.9919	-0.131
Mof_N 	N 	0.9994	0.0798	0.9645	-0.08
Mof_N 	N 	0.0347	0.1128	0.0007	-0.124
Mof_C 	C 	0.986	0.3868	0.9704	0.099
Mof_C 	C 	0.99005	0.35436	0.94782	0.085
Mof_C 	C 	0.96952	0.3229	0.95596	-0.168
Mof_H 	H 	0.953	0.323	0.9763	0.084
Mof_C 	C 	0.97321	0.29144	0.9343	0.145
Mof_H 	H 	0.9592	0.27	0.9399	-0.032
Mof_C 	C 	0.99742	0.29137	0.90447	-0.327
Mof_C 	C 	0.01795	0.3228	0.89633	0.136
Mof_H 	H 	0.0345	0.3227	0.876	-0.03
Mof_C 	C 	0.01426	0.35429	0.918	-0.178
Mof_H 	H 	0.0283	0.3758	0.9124	0.091
Mof_N 	N 	0.9667	0.4224	0.0141	-0.175
Mof_N 	N 	0.9893	0.4415	0.9919	-0.118
Mof_N 	N 	0.0006	0.4202	0.9645	-0.1
Mof_N 	N 	0.9653	0.3872	0.0007	-0.124
Mof_C 	C 	0.486	0.8868	0.4704	0.079
Mof_C 	C 	0.49005	0.85436	0.44782	0.086
Mof_C 	C 	0.46952	0.8229	0.45596	-0.182
Mof_H 	H 	0.453	0.823	0.4763	0.085
Mof_C 	C 	0.47321	0.79144	0.4343	0.163
Mof_H 	H 	0.4592	0.77	0.4399	-0.042
Mof_C 	C 	0.49742	0.79137	0.40447	-0.366
Mof_C 	C 	0.51795	0.8228	0.39633	0.165
Mof_H 	H 	0.5345	0.8227	0.376	-0.038
Mof_C 	C 	0.51426	0.85429	0.418	-0.181
Mof_H 	H 	0.5283	0.8758	0.4124	0.095
Mof_N 	N 	0.4667	0.9224	0.5141	-0.171
Mof_N 	N 	0.4893	0.9415	0.4919	-0.129
Mof_N 	N 	0.5006	0.9202	0.4645	-0.088
Mof_N 	N 	0.4653	0.8872	0.5007	-0.115
Mof_C 	C 	0.014	0.8868	0.5296	0.073
Mof_C 	C 	0.00995	0.85436	0.55218	0.073
Mof_C 	C 	0.03048	0.8229	0.54404	-0.176
Mof_H 	H 	0.047	0.823	0.5237	0.082
Mof_C 	C 	0.02679	0.79144	0.5657	0.156
Mof_H 	H 	0.0408	0.77	0.5601	-0.041
Mof_C 	C 	0.00258	0.79137	0.59553	-0.364
Mof_C 	C 	0.98205	0.8228	0.60367	0.169
Mof_H 	H 	0.9655	0.8227	0.624	-0.037
Mof_C 	C 	0.98574	0.85429	0.582	-0.166
Mof_H 	H 	0.9717	0.8758	0.5876	0.093
Mof_N 	N 	0.0333	0.9224	0.4859	-0.172
Mof_N 	N 	0.0107	0.9415	0.5081	-0.134
Mof_N 	N 	0.9994	0.9202	0.5355	-0.078
Mof_N 	N 	0.0347	0.8872	0.4993	-0.115
Mof_C 	C 	0.514	0.3868	0.0296	0.068
Mof_C 	C 	0.50995	0.35436	0.05218	0.088
Mof_C 	C 	0.53048	0.3229	0.04404	-0.185
Mof_H 	H 	0.547	0.323	0.0237	0.082
Mof_C 	C 	0.52679	0.29144	0.0657	0.163
Mof_H 	H 	0.5408	0.27	0.0601	-0.044
Mof_C 	C 	0.50258	0.29137	0.09553	-0.367
Mof_C 	C 	0.48205	0.3228	0.10367	0.166
Mof_H 	H 	0.4655	0.3227	0.124	-0.039
Mof_C 	C 	0.48574	0.35429	0.082	-0.184
Mof_H 	H 	0.4717	0.3758	0.0876	0.095
Mof_N 	N 	0.5333	0.4224	0.9859	-0.166
Mof_N 	N 	0.5107	0.4415	0.0081	-0.137
Mof_N 	N 	0.4994	0.4202	0.0355	-0.089
Mof_N 	N 	0.5347	0.3872	0.9993	-0.107
Mof_C 	C 	0.236	0.2796	0.1368	0.08
Mof_C 	C 	0.24005	0.30218	0.10436	0.08
Mof_C 	C 	0.21952	0.29404	0.0729	-0.176
Mof_H 	H 	0.203	0.2737	0.073	0.08
Mof_C 	C 	0.22321	0.3157	0.04144	0.152
Mof_H 	H 	0.2092	0.3101	0.02	-0.042
Mof_C 	C 	0.24742	0.34553	0.04137	-0.352
Mof_C 	C 	0.26795	0.35367	0.0728	0.155
Mof_H 	H 	0.2845	0.374	0.0727	-0.035
Mof_C 	C 	0.26426	0.332	0.10429	-0.175
Mof_H 	H 	0.2783	0.3376	0.1258	0.092
Mof_N 	N 	0.2167	0.2359	0.1724	-0.172
Mof_N 	N 	0.2393	0.2581	0.1915	-0.131
Mof_N 	N 	0.2506	0.2855	0.1702	-0.089
Mof_N 	N 	0.2153	0.2493	0.1372	-0.117
Mof_C 	C 	0.736	0.7796	0.6368	0.079
Mof_C 	C 	0.74005	0.80218	0.60436	0.086
Mof_C 	C 	0.71952	0.79404	0.5729	-0.181
Mof_H 	H 	0.703	0.7737	0.573	0.084
Mof_C 	C 	0.72321	0.8157	0.54144	0.162
Mof_H 	H 	0.7092	0.8101	0.52	-0.042
Mof_C 	C 	0.74742	0.84553	0.54137	-0.365
Mof_C 	C 	0.76795	0.85367	0.5728	0.165
Mof_H 	H 	0.7845	0.874	0.5727	-0.038
Mof_C 	C 	0.76426	0.832	0.60429	-0.181
Mof_H 	H 	0.7783	0.8376	0.6258	0.095
Mof_N 	N 	0.7167	0.7359	0.6724	-0.171
Mof_N 	N 	0.7393	0.7581	0.6915	-0.131
Mof_N 	N 	0.7506	0.7855	0.6702	-0.089
Mof_N 	N 	0.7153	0.7493	0.6372	-0.116
Mof_C 	C 	0.264	0.7204	0.6368	0.079
Mof_C 	C 	0.25995	0.69782	0.60436	0.086
Mof_C 	C 	0.28048	0.70596	0.5729	-0.182
Mof_H 	H 	0.297	0.7263	0.573	0.084
Mof_C 	C 	0.27679	0.6843	0.54144	0.162
Mof_H 	H 	0.2908	0.6899	0.52	-0.042
Mof_C 	C 	0.25258	0.65447	0.54137	-0.366
Mof_C 	C 	0.23205	0.64633	0.5728	0.165
Mof_H 	H 	0.2155	0.626	0.5727	-0.039
Mof_C 	C 	0.23574	0.668	0.60429	-0.181
Mof_H 	H 	0.2217	0.6624	0.6258	0.094
Mof_N 	N 	0.2833	0.7641	0.6724	-0.171
Mof_N 	N 	0.2607	0.7419	0.6915	-0.131
Mof_N 	N 	0.2494	0.7145	0.6702	-0.089
Mof_N 	N 	0.2847	0.7507	0.6372	-0.115
Mof_C 	C 	0.764	0.2204	0.1368	0.08
Mof_C 	C 	0.75995	0.19782	0.10436	0.081
Mof_C 	C 	0.78048	0.20596	0.0729	-0.176
Mof_H 	H 	0.797	0.2263	0.073	0.081
Mof_C 	C 	0.77679	0.1843	0.04144	0.153
Mof_H 	H 	0.7908	0.1899	0.02	-0.042
Mof_C 	C 	0.75258	0.15447	0.04137	-0.352
Mof_C 	C 	0.73205	0.14633	0.0728	0.155
Mof_H 	H 	0.7155	0.126	0.0727	-0.036
Mof_C 	C 	0.73574	0.168	0.10429	-0.176
Mof_H 	H 	0.7217	0.1624	0.1258	0.092
Mof_N 	N 	0.7833	0.2641	0.1724	-0.171
Mof_N 	N 	0.7607	0.2419	0.1915	-0.131
Mof_N 	N 	0.7494	0.2145	0.1702	-0.089
Mof_N 	N 	0.7847	0.2507	0.1372	-0.116
Mof_C 	C 	0.736	0.2204	0.8632	0.082
Mof_C 	C 	0.74005	0.19782	0.89564	0.079
Mof_C 	C 	0.71952	0.20596	0.9271	-0.171
Mof_H 	H 	0.703	0.2263	0.927	0.082
Mof_C 	C 	0.72321	0.1843	0.95856	0.149
Mof_H 	H 	0.7092	0.1899	0.98	-0.034
Mof_C 	C 	0.74742	0.15447	0.95863	-0.341
Mof_C 	C 	0.76795	0.14633	0.9272	0.151
Mof_H 	H 	0.7845	0.126	0.9273	-0.033
Mof_C 	C 	0.76426	0.168	0.89571	-0.171
Mof_H 	H 	0.7783	0.1624	0.8742	0.091
Mof_N 	N 	0.7167	0.2641	0.8276	-0.171
Mof_N 	N 	0.7393	0.2419	0.8085	-0.131
Mof_N 	N 	0.7506	0.2145	0.8298	-0.089
Mof_N 	N 	0.7153	0.2507	0.8628	-0.115
Mof_C 	C 	0.236	0.7204	0.3632	0.079
Mof_C 	C 	0.24005	0.69782	0.39564	0.086
Mof_C 	C 	0.21952	0.70596	0.4271	-0.182
Mof_H 	H 	0.203	0.7263	0.427	0.084
Mof_C 	C 	0.22321	0.6843	0.45856	0.162
Mof_H 	H 	0.2092	0.6899	0.48	-0.043
Mof_C 	C 	0.24742	0.65447	0.45863	-0.366
Mof_C 	C 	0.26795	0.64633	0.4272	0.165
Mof_H 	H 	0.2845	0.626	0.4273	-0.039
Mof_C 	C 	0.26426	0.668	0.39571	-0.181
Mof_H 	H 	0.2783	0.6624	0.3742	0.094
Mof_N 	N 	0.2167	0.7641	0.3276	-0.171
Mof_N 	N 	0.2393	0.7419	0.3085	-0.131
Mof_N 	N 	0.2506	0.7145	0.3298	-0.089
Mof_N 	N 	0.2153	0.7507	0.3628	-0.116
Mof_C 	C 	0.764	0.7796	0.3632	0.079
Mof_C 	C 	0.75995	0.80218	0.39564	0.086
Mof_C 	C 	0.78048	0.79404	0.4271	-0.181
Mof_H 	H 	0.797	0.7737	0.427	0.085
Mof_C 	C 	0.77679	0.8157	0.45856	0.162
Mof_H 	H 	0.7908	0.8101	0.48	-0.042
Mof_C 	C 	0.75258	0.84553	0.45863	-0.365
Mof_C 	C 	0.73205	0.85367	0.4272	0.165
Mof_H 	H 	0.7155	0.874	0.4273	-0.038
Mof_C 	C 	0.73574	0.832	0.39571	-0.181
Mof_H 	H 	0.7217	0.8376	0.3742	0.095
Mof_N 	N 	0.7833	0.7359	0.3276	-0.171
Mof_N 	N 	0.7607	0.7581	0.3085	-0.131
Mof_N 	N 	0.7494	0.7855	0.3298	-0.089
Mof_N 	N 	0.7847	0.7493	0.3628	-0.115
Mof_C 	C 	0.264	0.2796	0.8632	0.082
Mof_C 	C 	0.25995	0.30218	0.89564	0.079
Mof_C 	C 	0.28048	0.29404	0.9271	-0.171
Mof_H 	H 	0.297	0.2737	0.927	0.082
Mof_C 	C 	0.27679	0.3157	0.95856	0.148
Mof_H 	H 	0.2908	0.3101	0.98	-0.033
Mof_C 	C 	0.25258	0.34553	0.95863	-0.34
Mof_C 	C 	0.23205	0.35367	0.9272	0.15
Mof_H 	H 	0.2155	0.374	0.9273	-0.033
Mof_C 	C 	0.23574	0.332	0.89571	-0.171
Mof_H 	H 	0.2217	0.3376	0.8742	0.091
Mof_N 	N 	0.2833	0.2359	0.8276	-0.171
Mof_N 	N 	0.2607	0.2581	0.8085	-0.131
Mof_N 	N 	0.2494	0.2855	0.8298	-0.089
Mof_N 	N 	0.2847	0.2493	0.8628	-0.116
Mof_C 	C 	0.7796	0.3632	0.764	0.079
Mof_C 	C 	0.80218	0.39564	0.75995	0.086
Mof_C 	C 	0.79404	0.4271	0.78048	-0.181
Mof_H 	H 	0.7737	0.427	0.797	0.085
Mof_C 	C 	0.8157	0.45856	0.77679	0.162
Mof_H 	H 	0.8101	0.48	0.7908	-0.042
Mof_C 	C 	0.84553	0.45863	0.75258	-0.365
Mof_C 	C 	0.85367	0.4272	0.73205	0.165
Mof_H 	H 	0.874	0.4273	0.7155	-0.038
Mof_C 	C 	0.832	0.39571	0.73574	-0.181
Mof_H 	H 	0.8376	0.3742	0.7217	0.095
Mof_N 	N 	0.7359	0.3276	0.7833	-0.171
Mof_N 	N 	0.7581	0.3085	0.7607	-0.131
Mof_N 	N 	0.7855	0.3298	0.7494	-0.089
Mof_N 	N 	0.7493	0.3628	0.7847	-0.115
Mof_C 	C 	0.2796	0.8632	0.264	0.082
Mof_C 	C 	0.30218	0.89564	0.25995	0.079
Mof_C 	C 	0.29404	0.9271	0.28048	-0.171
Mof_H 	H 	0.2737	0.927	0.297	0.082
Mof_C 	C 	0.3157	0.95856	0.27679	0.148
Mof_H 	H 	0.3101	0.98	0.2908	-0.033
Mof_C 	C 	0.34553	0.95863	0.25258	-0.34
Mof_C 	C 	0.35367	0.9272	0.23205	0.15
Mof_H 	H 	0.374	0.9273	0.2155	-0.033
Mof_C 	C 	0.332	0.89571	0.23574	-0.171
Mof_H 	H 	0.3376	0.8742	0.2217	0.091
Mof_N 	N 	0.2359	0.8276	0.2833	-0.171
Mof_N 	N 	0.2581	0.8085	0.2607	-0.131
Mof_N 	N 	0.2855	0.8298	0.2494	-0.089
Mof_N 	N 	0.2493	0.8628	0.2847	-0.116
Mof_C 	C 	0.2204	0.8632	0.736	0.082
Mof_C 	C 	0.19782	0.89564	0.74005	0.079
Mof_C 	C 	0.20596	0.9271	0.71952	-0.171
Mof_H 	H 	0.2263	0.927	0.703	0.082
Mof_C 	C 	0.1843	0.95856	0.72321	0.149
Mof_H 	H 	0.1899	0.98	0.7092	-0.034
Mof_C 	C 	0.15447	0.95863	0.74742	-0.341
Mof_C 	C 	0.14633	0.9272	0.76795	0.151
Mof_H 	H 	0.126	0.9273	0.7845	-0.033
Mof_C 	C 	0.168	0.89571	0.76426	-0.171
Mof_H 	H 	0.1624	0.8742	0.7783	0.091
Mof_N 	N 	0.2641	0.8276	0.7167	-0.171
Mof_N 	N 	0.2419	0.8085	0.7393	-0.131
Mof_N 	N 	0.2145	0.8298	0.7506	-0.089
Mof_N 	N 	0.2507	0.8628	0.7153	-0.115
Mof_C 	C 	0.7204	0.3632	0.236	0.079
Mof_C 	C 	0.69782	0.39564	0.24005	0.086
Mof_C 	C 	0.70596	0.4271	0.21952	-0.182
Mof_H 	H 	0.7263	0.427	0.203	0.084
Mof_C 	C 	0.6843	0.45856	0.22321	0.162
Mof_H 	H 	0.6899	0.48	0.2092	-0.043
Mof_C 	C 	0.65447	0.45863	0.24742	-0.366
Mof_C 	C 	0.64633	0.4272	0.26795	0.165
Mof_H 	H 	0.626	0.4273	0.2845	-0.039
Mof_C 	C 	0.668	0.39571	0.26426	-0.181
Mof_H 	H 	0.6624	0.3742	0.2783	0.094
Mof_N 	N 	0.7641	0.3276	0.2167	-0.171
Mof_N 	N 	0.7419	0.3085	0.2393	-0.131
Mof_N 	N 	0.7145	0.3298	0.2506	-0.089
Mof_N 	N 	0.7507	0.3628	0.2153	-0.116
Mof_C 	C 	0.7204	0.6368	0.264	0.079
Mof_C 	C 	0.69782	0.60436	0.25995	0.086
Mof_C 	C 	0.70596	0.5729	0.28048	-0.182
Mof_H 	H 	0.7263	0.573	0.297	0.084
Mof_C 	C 	0.6843	0.54144	0.27679	0.162
Mof_H 	H 	0.6899	0.52	0.2908	-0.042
Mof_C 	C 	0.65447	0.54137	0.25258	-0.366
Mof_C 	C 	0.64633	0.5728	0.23205	0.165
Mof_H 	H 	0.626	0.5727	0.2155	-0.039
Mof_C 	C 	0.668	0.60429	0.23574	-0.181
Mof_H 	H 	0.6624	0.6258	0.2217	0.094
Mof_N 	N 	0.7641	0.6724	0.2833	-0.171
Mof_N 	N 	0.7419	0.6915	0.2607	-0.131
Mof_N 	N 	0.7145	0.6702	0.2494	-0.089
Mof_N 	N 	0.7507	0.6372	0.2847	-0.115
Mof_C 	C 	0.2204	0.1368	0.764	0.08
Mof_C 	C 	0.19782	0.10436	0.75995	0.081
Mof_C 	C 	0.20596	0.0729	0.78048	-0.176
Mof_H 	H 	0.2263	0.073	0.797	0.081
Mof_C 	C 	0.1843	0.04144	0.77679	0.153
Mof_H 	H 	0.1899	0.02	0.7908	-0.042
Mof_C 	C 	0.15447	0.04137	0.75258	-0.352
Mof_C 	C 	0.14633	0.0728	0.73205	0.155
Mof_H 	H 	0.126	0.0727	0.7155	-0.036
Mof_C 	C 	0.168	0.10429	0.73574	-0.176
Mof_H 	H 	0.1624	0.1258	0.7217	0.092
Mof_N 	N 	0.2641	0.1724	0.7833	-0.171
Mof_N 	N 	0.2419	0.1915	0.7607	-0.131
Mof_N 	N 	0.2145	0.1702	0.7494	-0.089
Mof_N 	N 	0.2507	0.1372	0.7847	-0.116
Mof_C 	C 	0.2796	0.1368	0.236	0.08
Mof_C 	C 	0.30218	0.10436	0.24005	0.08
Mof_C 	C 	0.29404	0.0729	0.21952	-0.176
Mof_H 	H 	0.2737	0.073	0.203	0.08
Mof_C 	C 	0.3157	0.04144	0.22321	0.152
Mof_H 	H 	0.3101	0.02	0.2092	-0.042
Mof_C 	C 	0.34553	0.04137	0.24742	-0.352
Mof_C 	C 	0.35367	0.0728	0.26795	0.155
Mof_H 	H 	0.374	0.0727	0.2845	-0.035
Mof_C 	C 	0.332	0.10429	0.26426	-0.175
Mof_H 	H 	0.3376	0.1258	0.2783	0.092
Mof_N 	N 	0.2359	0.1724	0.2167	-0.172
Mof_N 	N 	0.2581	0.1915	0.2393	-0.131
Mof_N 	N 	0.2855	0.1702	0.2506	-0.089
Mof_N 	N 	0.2493	0.1372	0.2153	-0.117
Mof_C 	C 	0.7796	0.6368	0.736	0.079
Mof_C 	C 	0.80218	0.60436	0.74005	0.086
Mof_C 	C 	0.79404	0.5729	0.71952	-0.181
Mof_H 	H 	0.7737	0.573	0.703	0.084
Mof_C 	C 	0.8157	0.54144	0.72321	0.162
Mof_H 	H 	0.8101	0.52	0.7092	-0.042
Mof_C 	C 	0.84553	0.54137	0.74742	-0.365
Mof_C 	C 	0.85367	0.5728	0.76795	0.165
Mof_H 	H 	0.874	0.5727	0.7845	-0.038
Mof_C 	C 	0.832	0.60429	0.76426	-0.181
Mof_H 	H 	0.8376	0.6258	0.7783	0.095
Mof_N 	N 	0.7359	0.6724	0.7167	-0.171
Mof_N 	N 	0.7581	0.6915	0.7393	-0.131
Mof_N 	N 	0.7855	0.6702	0.7506	-0.089
Mof_N 	N 	0.7493	0.6372	0.7153	-0.116
Mof_C 	C 	0.8632	0.736	0.2204	0.082
Mof_C 	C 	0.89564	0.74005	0.19782	0.079
Mof_C 	C 	0.9271	0.71952	0.20596	-0.171
Mof_H 	H 	0.927	0.703	0.2263	0.082
Mof_C 	C 	0.95856	0.72321	0.1843	0.149
Mof_H 	H 	0.98	0.7092	0.1899	-0.034
Mof_C 	C 	0.95863	0.74742	0.15447	-0.341
Mof_C 	C 	0.9272	0.76795	0.14633	0.151
Mof_H 	H 	0.9273	0.7845	0.126	-0.033
Mof_C 	C 	0.89571	0.76426	0.168	-0.171
Mof_H 	H 	0.8742	0.7783	0.1624	0.091
Mof_N 	N 	0.8276	0.7167	0.2641	-0.171
Mof_N 	N 	0.8085	0.7393	0.2419	-0.131
Mof_N 	N 	0.8298	0.7506	0.2145	-0.089
Mof_N 	N 	0.8628	0.7153	0.2507	-0.115
Mof_C 	C 	0.3632	0.236	0.7204	0.079
Mof_C 	C 	0.39564	0.24005	0.69782	0.086
Mof_C 	C 	0.4271	0.21952	0.70596	-0.182
Mof_H 	H 	0.427	0.203	0.7263	0.084
Mof_C 	C 	0.45856	0.22321	0.6843	0.162
Mof_H 	H 	0.48	0.2092	0.6899	-0.043
Mof_C 	C 	0.45863	0.24742	0.65447	-0.366
Mof_C 	C 	0.4272	0.26795	0.64633	0.165
Mof_H 	H 	0.4273	0.2845	0.626	-0.039
Mof_C 	C 	0.39571	0.26426	0.668	-0.181
Mof_H 	H 	0.3742	0.2783	0.6624	0.094
Mof_N 	N 	0.3276	0.2167	0.7641	-0.171
Mof_N 	N 	0.3085	0.2393	0.7419	-0.131
Mof_N 	N 	0.3298	0.2506	0.7145	-0.089
Mof_N 	N 	0.3628	0.2153	0.7507	-0.116
Mof_C 	C 	0.3632	0.764	0.7796	0.079
Mof_C 	C 	0.39564	0.75995	0.80218	0.086
Mof_C 	C 	0.4271	0.78048	0.79404	-0.181
Mof_H 	H 	0.427	0.797	0.7737	0.085
Mof_C 	C 	0.45856	0.77679	0.8157	0.162
Mof_H 	H 	0.48	0.7908	0.8101	-0.042
Mof_C 	C 	0.45863	0.75258	0.84553	-0.365
Mof_C 	C 	0.4272	0.73205	0.85367	0.165
Mof_H 	H 	0.4273	0.7155	0.874	-0.038
Mof_C 	C 	0.39571	0.73574	0.832	-0.181
Mof_H 	H 	0.3742	0.7217	0.8376	0.095
Mof_N 	N 	0.3276	0.7833	0.7359	-0.171
Mof_N 	N 	0.3085	0.7607	0.7581	-0.131
Mof_N 	N 	0.3298	0.7494	0.7855	-0.089
Mof_N 	N 	0.3628	0.7847	0.7493	-0.115
Mof_C 	C 	0.8632	0.264	0.2796	0.082
Mof_C 	C 	0.89564	0.25995	0.30218	0.079
Mof_C 	C 	0.9271	0.28048	0.29404	-0.171
Mof_H 	H 	0.927	0.297	0.2737	0.082
Mof_C 	C 	0.95856	0.27679	0.3157	0.148
Mof_H 	H 	0.98	0.2908	0.3101	-0.033
Mof_C 	C 	0.95863	0.25258	0.34553	-0.34
Mof_C 	C 	0.9272	0.23205	0.35367	0.15
Mof_H 	H 	0.9273	0.2155	0.374	-0.033
Mof_C 	C 	0.89571	0.23574	0.332	-0.171
Mof_H 	H 	0.8742	0.2217	0.3376	0.091
Mof_N 	N 	0.8276	0.2833	0.2359	-0.171
Mof_N 	N 	0.8085	0.2607	0.2581	-0.131
Mof_N 	N 	0.8298	0.2494	0.2855	-0.089
Mof_N 	N 	0.8628	0.2847	0.2493	-0.116
Mof_C 	C 	0.1368	0.236	0.2796	0.08
Mof_C 	C 	0.10436	0.24005	0.30218	0.08
Mof_C 	C 	0.0729	0.21952	0.29404	-0.176
Mof_H 	H 	0.073	0.203	0.2737	0.08
Mof_C 	C 	0.04144	0.22321	0.3157	0.152
Mof_H 	H 	0.02	0.2092	0.3101	-0.042
Mof_C 	C 	0.04137	0.24742	0.34553	-0.352
Mof_C 	C 	0.0728	0.26795	0.35367	0.155
Mof_H 	H 	0.0727	0.2845	0.374	-0.035
Mof_C 	C 	0.10429	0.26426	0.332	-0.175
Mof_H 	H 	0.1258	0.2783	0.3376	0.092
Mof_N 	N 	0.1724	0.2167	0.2359	-0.172
Mof_N 	N 	0.1915	0.2393	0.2581	-0.131
Mof_N 	N 	0.1702	0.2506	0.2855	-0.089
Mof_N 	N 	0.1372	0.2153	0.2493	-0.117
Mof_C 	C 	0.6368	0.736	0.7796	0.079
Mof_C 	C 	0.60436	0.74005	0.80218	0.086
Mof_C 	C 	0.5729	0.71952	0.79404	-0.181
Mof_H 	H 	0.573	0.703	0.7737	0.084
Mof_C 	C 	0.54144	0.72321	0.8157	0.162
Mof_H 	H 	0.52	0.7092	0.8101	-0.042
Mof_C 	C 	0.54137	0.74742	0.84553	-0.365
Mof_C 	C 	0.5728	0.76795	0.85367	0.165
Mof_H 	H 	0.5727	0.7845	0.874	-0.038
Mof_C 	C 	0.60429	0.76426	0.832	-0.181
Mof_H 	H 	0.6258	0.7783	0.8376	0.095
Mof_N 	N 	0.6724	0.7167	0.7359	-0.171
Mof_N 	N 	0.6915	0.7393	0.7581	-0.131
Mof_N 	N 	0.6702	0.7506	0.7855	-0.089
Mof_N 	N 	0.6372	0.7153	0.7493	-0.116
Mof_C 	C 	0.6368	0.264	0.7204	0.079
Mof_C 	C 	0.60436	0.25995	0.69782	0.086
Mof_C 	C 	0.5729	0.28048	0.70596	-0.182
Mof_H 	H 	0.573	0.297	0.7263	0.084
Mof_C 	C 	0.54144	0.27679	0.6843	0.162
Mof_H 	H 	0.52	0.2908	0.6899	-0.042
Mof_C 	C 	0.54137	0.25258	0.65447	-0.366
Mof_C 	C 	0.5728	0.23205	0.64633	0.165
Mof_H 	H 	0.5727	0.2155	0.626	-0.039
Mof_C 	C 	0.60429	0.23574	0.668	-0.181
Mof_H 	H 	0.6258	0.2217	0.6624	0.094
Mof_N 	N 	0.6724	0.2833	0.7641	-0.171
Mof_N 	N 	0.6915	0.2607	0.7419	-0.131
Mof_N 	N 	0.6702	0.2494	0.7145	-0.089
Mof_N 	N 	0.6372	0.2847	0.7507	-0.115
Mof_C 	C 	0.1368	0.764	0.2204	0.08
Mof_C 	C 	0.10436	0.75995	0.19782	0.081
Mof_C 	C 	0.0729	0.78048	0.20596	-0.176
Mof_H 	H 	0.073	0.797	0.2263	0.081
Mof_C 	C 	0.04144	0.77679	0.1843	0.153
Mof_H 	H 	0.02	0.7908	0.1899	-0.042
Mof_C 	C 	0.04137	0.75258	0.15447	-0.352
Mof_C 	C 	0.0728	0.73205	0.14633	0.155
Mof_H 	H 	0.0727	0.7155	0.126	-0.036
Mof_C 	C 	0.10429	0.73574	0.168	-0.176
Mof_H 	H 	0.1258	0.7217	0.1624	0.092
Mof_N 	N 	0.1724	0.7833	0.2641	-0.171
Mof_N 	N 	0.1915	0.7607	0.2419	-0.131
Mof_N 	N 	0.1702	0.7494	0.2145	-0.089
Mof_N 	N 	0.1372	0.7847	0.2507	-0.116
Mof_C 	C 	0.9704	0.514	0.8868	0.089
Mof_C 	C 	0.94782	0.50995	0.85436	0.084
Mof_C 	C 	0.95596	0.53048	0.8229	-0.179
Mof_H 	H 	0.9763	0.547	0.823	0.086
Mof_C 	C 	0.9343	0.52679	0.79144	0.162
Mof_H 	H 	0.9399	0.5408	0.77	-0.041
Mof_C 	C 	0.90447	0.50258	0.79137	-0.364
Mof_C 	C 	0.89633	0.48205	0.8228	0.164
Mof_H 	H 	0.876	0.4655	0.8227	-0.038
Mof_C 	C 	0.918	0.48574	0.85429	-0.179
Mof_H 	H 	0.9124	0.4717	0.8758	0.095
Mof_N 	N 	0.0141	0.5333	0.9224	-0.175
Mof_N 	N 	0.9919	0.5107	0.9415	-0.122
Mof_N 	N 	0.9645	0.4994	0.9202	-0.088
Mof_N 	N 	0.0007	0.5347	0.8872	-0.123
Mof_C 	C 	0.4704	0.014	0.3868	0.073
Mof_C 	C 	0.44782	0.00995	0.35436	0.072
Mof_C 	C 	0.45596	0.03048	0.3229	-0.176
Mof_H 	H 	0.4763	0.047	0.323	0.081
Mof_C 	C 	0.4343	0.02679	0.29144	0.155
Mof_H 	H 	0.4399	0.0408	0.27	-0.041
Mof_C 	C 	0.40447	0.00258	0.29137	-0.364
Mof_C 	C 	0.39633	0.98205	0.3228	0.168
Mof_H 	H 	0.376	0.9655	0.3227	-0.037
Mof_C 	C 	0.418	0.98574	0.35429	-0.165
Mof_H 	H 	0.4124	0.9717	0.3758	0.092
Mof_N 	N 	0.5141	0.0333	0.4224	-0.172
Mof_N 	N 	0.4919	0.0107	0.4415	-0.137
Mof_N 	N 	0.4645	0.9994	0.4202	-0.079
Mof_N 	N 	0.5007	0.0347	0.3872	-0.116
Mof_C 	C 	0.5296	0.486	0.3868	0.079
Mof_C 	C 	0.55218	0.49005	0.35436	0.086
Mof_C 	C 	0.54404	0.46952	0.3229	-0.182
Mof_H 	H 	0.5237	0.453	0.323	0.084
Mof_C 	C 	0.5657	0.47321	0.29144	0.162
Mof_H 	H 	0.5601	0.4592	0.27	-0.042
Mof_C 	C 	0.59553	0.49742	0.29137	-0.366
Mof_C 	C 	0.60367	0.51795	0.3228	0.165
Mof_H 	H 	0.624	0.5345	0.3227	-0.039
Mof_C 	C 	0.582	0.51426	0.35429	-0.181
Mof_H 	H 	0.5876	0.5283	0.3758	0.094
Mof_N 	N 	0.4859	0.4667	0.4224	-0.171
Mof_N 	N 	0.5081	0.4893	0.4415	-0.131
Mof_N 	N 	0.5355	0.5006	0.4202	-0.089
Mof_N 	N 	0.4993	0.4653	0.3872	-0.116
Mof_C 	C 	0.0296	0.986	0.8868	0.079
Mof_C 	C 	0.05218	0.99005	0.85436	0.091
Mof_C 	C 	0.04404	0.96952	0.8229	-0.174
Mof_H 	H 	0.0237	0.953	0.823	0.08
Mof_C 	C 	0.0657	0.97321	0.79144	0.147
Mof_H 	H 	0.0601	0.9592	0.77	-0.036
Mof_C 	C 	0.09553	0.99742	0.79137	-0.33
Mof_C 	C 	0.10367	0.01795	0.8228	0.139
Mof_H 	H 	0.124	0.0345	0.8227	-0.031
Mof_C 	C 	0.082	0.01426	0.85429	-0.184
Mof_H 	H 	0.0876	0.0283	0.8758	0.093
Mof_N 	N 	0.9859	0.9667	0.9224	-0.165
Mof_N 	N 	0.0081	0.9893	0.9415	-0.128
Mof_N 	N 	0.0355	0.0006	0.9202	-0.098
Mof_N 	N 	0.9993	0.9653	0.8872	-0.108
Mof_C 	C 	0.0296	0.014	0.6132	0.063
Mof_C 	C 	0.05218	0.00995	0.64564	0.075
Mof_C 	C 	0.04404	0.03048	0.6771	-0.179
Mof_H 	H 	0.0237	0.047	0.677	0.08
Mof_C 	C 	0.0657	0.02679	0.70856	0.156
Mof_H 	H 	0.0601	0.0408	0.73	-0.043
Mof_C 	C 	0.09553	0.00258	0.70863	-0.366
Mof_C 	C 	0.10367	0.98205	0.6772	0.17
Mof_H 	H 	0.124	0.9655	0.6773	-0.038
Mof_C 	C 	0.082	0.98574	0.64571	-0.168
Mof_H 	H 	0.0876	0.9717	0.6242	0.092
Mof_N 	N 	0.9859	0.0333	0.5776	-0.167
Mof_N 	N 	0.0081	0.0107	0.5585	-0.143
Mof_N 	N 	0.0355	0.9994	0.5798	-0.078
Mof_N 	N 	0.9993	0.0347	0.6128	-0.108
Mof_C 	C 	0.5296	0.514	0.1132	0.079
Mof_C 	C 	0.55218	0.50995	0.14564	0.085
Mof_C 	C 	0.54404	0.53048	0.1771	-0.181
Mof_H 	H 	0.5237	0.547	0.177	0.084
Mof_C 	C 	0.5657	0.52679	0.20856	0.162
Mof_H 	H 	0.5601	0.5408	0.23	-0.042
Mof_C 	C 	0.59553	0.50258	0.20863	-0.365
Mof_C 	C 	0.60367	0.48205	0.1772	0.164
Mof_H 	H 	0.624	0.4655	0.1773	-0.039
Mof_C 	C 	0.582	0.48574	0.14571	-0.181
Mof_H 	H 	0.5876	0.4717	0.1242	0.093
Mof_N 	N 	0.4859	0.5333	0.0776	-0.172
Mof_N 	N 	0.5081	0.5107	0.0585	-0.132
Mof_N 	N 	0.5355	0.4994	0.0798	-0.09
Mof_N 	N 	0.4993	0.5347	0.1128	-0.116
Mof_C 	C 	0.4704	0.986	0.1132	0.088
Mof_C 	C 	0.44782	0.99005	0.14564	0.087
Mof_C 	C 	0.45596	0.96952	0.1771	-0.171
Mof_H 	H 	0.4763	0.953	0.177	0.081
Mof_C 	C 	0.4343	0.97321	0.20856	0.145
Mof_H 	H 	0.4399	0.9592	0.23	-0.034
Mof_C 	C 	0.40447	0.99742	0.20863	-0.328
Mof_C 	C 	0.39633	0.01795	0.1772	0.137
Mof_H 	H 	0.376	0.0345	0.1773	-0.031
Mof_C 	C 	0.418	0.01426	0.14571	-0.181
Mof_H 	H 	0.4124	0.0283	0.1242	0.09
Mof_N 	N 	0.5141	0.9667	0.0776	-0.171
Mof_N 	N 	0.4919	0.9893	0.0585	-0.126
Mof_N 	N 	0.4645	0.0006	0.0798	-0.101
Mof_N 	N 	0.5007	0.9653	0.1128	-0.116
Mof_C 	C 	0.9704	0.486	0.6132	0.089
Mof_C 	C 	0.94782	0.49005	0.64564	0.083
Mof_C 	C 	0.95596	0.46952	0.6771	-0.178
Mof_H 	H 	0.9763	0.453	0.677	0.086
Mof_C 	C 	0.9343	0.47321	0.70856	0.161
Mof_H 	H 	0.9399	0.4592	0.73	-0.041
Mof_C 	C 	0.90447	0.49742	0.70863	-0.364
Mof_C 	C 	0.89633	0.51795	0.6772	0.164
Mof_H 	H 	0.876	0.5345	0.6773	-0.038
Mof_C 	C 	0.918	0.51426	0.64571	-0.179
Mof_H 	H 	0.9124	0.5283	0.6242	0.094
Mof_N 	N 	0.0141	0.4667	0.5776	-0.176
Mof_N 	N 	0.9919	0.4893	0.5585	-0.124
Mof_N 	N 	0.9645	0.5006	0.5798	-0.089
Mof_N 	N 	0.0007	0.4653	0.6128	-0.124
Mof_C 	C 	0.8868	0.9704	0.514	0.089
Mof_C 	C 	0.85436	0.94782	0.50995	0.084
Mof_C 	C 	0.8229	0.95596	0.53048	-0.179
Mof_H 	H 	0.823	0.9763	0.547	0.086
Mof_C 	C 	0.79144	0.9343	0.52679	0.162
Mof_H 	H 	0.77	0.9399	0.5408	-0.041
Mof_C 	C 	0.79137	0.90447	0.50258	-0.364
Mof_C 	C 	0.8228	0.89633	0.48205	0.164
Mof_H 	H 	0.8227	0.876	0.4655	-0.038
Mof_C 	C 	0.85429	0.918	0.48574	-0.179
Mof_H 	H 	0.8758	0.9124	0.4717	0.095
Mof_N 	N 	0.9224	0.0141	0.5333	-0.175
Mof_N 	N 	0.9415	0.9919	0.5107	-0.122
Mof_N 	N 	0.9202	0.9645	0.4994	-0.088
Mof_N 	N 	0.8872	0.0007	0.5347	-0.123
Mof_C 	C 	0.3868	0.4704	0.014	0.073
Mof_C 	C 	0.35436	0.44782	0.00995	0.072
Mof_C 	C 	0.3229	0.45596	0.03048	-0.176
Mof_H 	H 	0.323	0.4763	0.047	0.081
Mof_C 	C 	0.29144	0.4343	0.02679	0.155
Mof_H 	H 	0.27	0.4399	0.0408	-0.041
Mof_C 	C 	0.29137	0.40447	0.00258	-0.364
Mof_C 	C 	0.3228	0.39633	0.98205	0.168
Mof_H 	H 	0.3227	0.376	0.9655	-0.037
Mof_C 	C 	0.35429	0.418	0.98574	-0.165
Mof_H 	H 	0.3758	0.4124	0.9717	0.092
Mof_N 	N 	0.4224	0.5141	0.0333	-0.172
Mof_N 	N 	0.4415	0.4919	0.0107	-0.137
Mof_N 	N 	0.4202	0.4645	0.9994	-0.079
Mof_N 	N 	0.3872	0.5007	0.0347	-0.116
Mof_C 	C 	0.3868	0.5296	0.486	0.079
Mof_C 	C 	0.35436	0.55218	0.49005	0.086
Mof_C 	C 	0.3229	0.54404	0.46952	-0.182
Mof_H 	H 	0.323	0.5237	0.453	0.084
Mof_C 	C 	0.29144	0.5657	0.47321	0.162
Mof_H 	H 	0.27	0.5601	0.4592	-0.042
Mof_C 	C 	0.29137	0.59553	0.49742	-0.366
Mof_C 	C 	0.3228	0.60367	0.51795	0.165
Mof_H 	H 	0.3227	0.624	0.5345	-0.039
Mof_C 	C 	0.35429	0.582	0.51426	-0.181
Mof_H 	H 	0.3758	0.5876	0.5283	0.094
Mof_N 	N 	0.4224	0.4859	0.4667	-0.171
Mof_N 	N 	0.4415	0.5081	0.4893	-0.131
Mof_N 	N 	0.4202	0.5355	0.5006	-0.089
Mof_N 	N 	0.3872	0.4993	0.4653	-0.116
Mof_C 	C 	0.8868	0.0296	0.986	0.079
Mof_C 	C 	0.85436	0.05218	0.99005	0.091
Mof_C 	C 	0.8229	0.04404	0.96952	-0.174
Mof_H 	H 	0.823	0.0237	0.953	0.08
Mof_C 	C 	0.79144	0.0657	0.97321	0.147
Mof_H 	H 	0.77	0.0601	0.9592	-0.036
Mof_C 	C 	0.79137	0.09553	0.99742	-0.33
Mof_C 	C 	0.8228	0.10367	0.01795	0.139
Mof_H 	H 	0.8227	0.124	0.0345	-0.031
Mof_C 	C 	0.85429	0.082	0.01426	-0.184
Mof_H 	H 	0.8758	0.0876	0.0283	0.093
Mof_N 	N 	0.9224	0.9859	0.9667	-0.165
Mof_N 	N 	0.9415	0.0081	0.9893	-0.128
Mof_N 	N 	0.9202	0.0355	0.0006	-0.098
Mof_N 	N 	0.8872	0.9993	0.9653	-0.108
Mof_C 	C 	0.6132	0.0296	0.014	0.063
Mof_C 	C 	0.64564	0.05218	0.00995	0.075
Mof_C 	C 	0.6771	0.04404	0.03048	-0.179
Mof_H 	H 	0.677	0.0237	0.047	0.08
Mof_C 	C 	0.70856	0.0657	0.02679	0.156
Mof_H 	H 	0.73	0.0601	0.0408	-0.043
Mof_C 	C 	0.70863	0.09553	0.00258	-0.366
Mof_C 	C 	0.6772	0.10367	0.98205	0.17
Mof_H 	H 	0.6773	0.124	0.9655	-0.038
Mof_C 	C 	0.64571	0.082	0.98574	-0.168
Mof_H 	H 	0.6242	0.0876	0.9717	0.092
Mof_N 	N 	0.5776	0.9859	0.0333	-0.167
Mof_N 	N 	0.5585	0.0081	0.0107	-0.143
Mof_N 	N 	0.5798	0.0355	0.9994	-0.078
Mof_N 	N 	0.6128	0.9993	0.0347	-0.108
Mof_C 	C 	0.1132	0.5296	0.514	0.079
Mof_C 	C 	0.14564	0.55218	0.50995	0.085
Mof_C 	C 	0.1771	0.54404	0.53048	-0.181
Mof_H 	H 	0.177	0.5237	0.547	0.084
Mof_C 	C 	0.20856	0.5657	0.52679	0.162
Mof_H 	H 	0.23	0.5601	0.5408	-0.042
Mof_C 	C 	0.20863	0.59553	0.50258	-0.365
Mof_C 	C 	0.1772	0.60367	0.48205	0.164
Mof_H 	H 	0.1773	0.624	0.4655	-0.039
Mof_C 	C 	0.14571	0.582	0.48574	-0.181
Mof_H 	H 	0.1242	0.5876	0.4717	0.093
Mof_N 	N 	0.0776	0.4859	0.5333	-0.172
Mof_N 	N 	0.0585	0.5081	0.5107	-0.132
Mof_N 	N 	0.0798	0.5355	0.4994	-0.09
Mof_N 	N 	0.1128	0.4993	0.5347	-0.116
Mof_C 	C 	0.1132	0.4704	0.986	0.088
Mof_C 	C 	0.14564	0.44782	0.99005	0.087
Mof_C 	C 	0.1771	0.45596	0.96952	-0.171
Mof_H 	H 	0.177	0.4763	0.953	0.081
Mof_C 	C 	0.20856	0.4343	0.97321	0.145
Mof_H 	H 	0.23	0.4399	0.9592	-0.034
Mof_C 	C 	0.20863	0.40447	0.99742	-0.328
Mof_C 	C 	0.1772	0.39633	0.01795	0.137
Mof_H 	H 	0.1773	0.376	0.0345	-0.031
Mof_C 	C 	0.14571	0.418	0.01426	-0.181
Mof_H 	H 	0.1242	0.4124	0.0283	0.09
Mof_N 	N 	0.0776	0.5141	0.9667	-0.171
Mof_N 	N 	0.0585	0.4919	0.9893	-0.126
Mof_N 	N 	0.0798	0.4645	0.0006	-0.101
Mof_N 	N 	0.1128	0.5007	0.9653	-0.116
Mof_C 	C 	0.6132	0.9704	0.486	0.089
Mof_C 	C 	0.64564	0.94782	0.49005	0.083
Mof_C 	C 	0.6771	0.95596	0.46952	-0.178
Mof_H 	H 	0.677	0.9763	0.453	0.086
Mof_C 	C 	0.70856	0.9343	0.47321	0.161
Mof_H 	H 	0.73	0.9399	0.4592	-0.041
Mof_C 	C 	0.70863	0.90447	0.49742	-0.364
Mof_C 	C 	0.6772	0.89633	0.51795	0.164
Mof_H 	H 	0.6773	0.876	0.5345	-0.038
Mof_C 	C 	0.64571	0.918	0.51426	-0.179
Mof_H 	H 	0.6242	0.9124	0.5283	0.094
Mof_N 	N 	0.5776	0.0141	0.4667	-0.176
Mof_N 	N 	0.5585	0.9919	0.4893	-0.124
Mof_N 	N 	0.5798	0.9645	0.5006	-0.089
Mof_N 	N 	0.6128	0.0007	0.4653	-0.124
Mof_C 	C 	0.514	0.8868	0.9704	0.089
Mof_C 	C 	0.50995	0.85436	0.94782	0.084
Mof_C 	C 	0.53048	0.8229	0.95596	-0.179
Mof_H 	H 	0.547	0.823	0.9763	0.086
Mof_C 	C 	0.52679	0.79144	0.9343	0.162
Mof_H 	H 	0.5408	0.77	0.9399	-0.041
Mof_C 	C 	0.50258	0.79137	0.90447	-0.364
Mof_C 	C 	0.48205	0.8228	0.89633	0.164
Mof_H 	H 	0.4655	0.8227	0.876	-0.038
Mof_C 	C 	0.48574	0.85429	0.918	-0.179
Mof_H 	H 	0.4717	0.8758	0.9124	0.095
Mof_N 	N 	0.5333	0.9224	0.0141	-0.175
Mof_N 	N 	0.5107	0.9415	0.9919	-0.122
Mof_N 	N 	0.4994	0.9202	0.9645	-0.088
Mof_N 	N 	0.5347	0.8872	0.0007	-0.123
Mof_C 	C 	0.014	0.3868	0.4704	0.073
Mof_C 	C 	0.00995	0.35436	0.44782	0.072
Mof_C 	C 	0.03048	0.3229	0.45596	-0.176
Mof_H 	H 	0.047	0.323	0.4763	0.081
Mof_C 	C 	0.02679	0.29144	0.4343	0.155
Mof_H 	H 	0.0408	0.27	0.4399	-0.041
Mof_C 	C 	0.00258	0.29137	0.40447	-0.364
Mof_C 	C 	0.98205	0.3228	0.39633	0.168
Mof_H 	H 	0.9655	0.3227	0.376	-0.037
Mof_C 	C 	0.98574	0.35429	0.418	-0.165
Mof_H 	H 	0.9717	0.3758	0.4124	0.092
Mof_N 	N 	0.0333	0.4224	0.5141	-0.172
Mof_N 	N 	0.0107	0.4415	0.4919	-0.137
Mof_N 	N 	0.9994	0.4202	0.4645	-0.079
Mof_N 	N 	0.0347	0.3872	0.5007	-0.116
Mof_C 	C 	0.486	0.3868	0.5296	0.079
Mof_C 	C 	0.49005	0.35436	0.55218	0.086
Mof_C 	C 	0.46952	0.3229	0.54404	-0.182
Mof_H 	H 	0.453	0.323	0.5237	0.084
Mof_C 	C 	0.47321	0.29144	0.5657	0.162
Mof_H 	H 	0.4592	0.27	0.5601	-0.042
Mof_C 	C 	0.49742	0.29137	0.59553	-0.366
Mof_C 	C 	0.51795	0.3228	0.60367	0.165
Mof_H 	H 	0.5345	0.3227	0.624	-0.039
Mof_C 	C 	0.51426	0.35429	0.582	-0.181
Mof_H 	H 	0.5283	0.3758	0.5876	0.094
Mof_N 	N 	0.4667	0.4224	0.4859	-0.171
Mof_N 	N 	0.4893	0.4415	0.5081	-0.131
Mof_N 	N 	0.5006	0.4202	0.5355	-0.089
Mof_N 	N 	0.4653	0.3872	0.4993	-0.116
Mof_C 	C 	0.986	0.8868	0.0296	0.079
Mof_C 	C 	0.99005	0.85436	0.05218	0.091
Mof_C 	C 	0.96952	0.8229	0.04404	-0.174
Mof_H 	H 	0.953	0.823	0.0237	0.08
Mof_C 	C 	0.97321	0.79144	0.0657	0.147
Mof_H 	H 	0.9592	0.77	0.0601	-0.036
Mof_C 	C 	0.99742	0.79137	0.09553	-0.33
Mof_C 	C 	0.01795	0.8228	0.10367	0.139
Mof_H 	H 	0.0345	0.8227	0.124	-0.031
Mof_C 	C 	0.01426	0.85429	0.082	-0.184
Mof_H 	H 	0.0283	0.8758	0.0876	0.093
Mof_N 	N 	0.9667	0.9224	0.9859	-0.165
Mof_N 	N 	0.9893	0.9415	0.0081	-0.128
Mof_N 	N 	0.0006	0.9202	0.0355	-0.098
Mof_N 	N 	0.9653	0.8872	0.9993	-0.108
Mof_C 	C 	0.014	0.6132	0.0296	0.063
Mof_C 	C 	0.00995	0.64564	0.05218	0.075
Mof_C 	C 	0.03048	0.6771	0.04404	-0.179
Mof_H 	H 	0.047	0.677	0.0237	0.08
Mof_C 	C 	0.02679	0.70856	0.0657	0.156
Mof_H 	H 	0.0408	0.73	0.0601	-0.043
Mof_C 	C 	0.00258	0.70863	0.09553	-0.366
Mof_C 	C 	0.98205	0.6772	0.10367	0.17
Mof_H 	H 	0.9655	0.6773	0.124	-0.038
Mof_C 	C 	0.98574	0.64571	0.082	-0.168
Mof_H 	H 	0.9717	0.6242	0.0876	0.092
Mof_N 	N 	0.0333	0.5776	0.9859	-0.167
Mof_N 	N 	0.0107	0.5585	0.0081	-0.143
Mof_N 	N 	0.9994	0.5798	0.0355	-0.078
Mof_N 	N 	0.0347	0.6128	0.9993	-0.108
Mof_C 	C 	0.514	0.1132	0.5296	0.079
Mof_C 	C 	0.50995	0.14564	0.55218	0.085
Mof_C 	C 	0.53048	0.1771	0.54404	-0.181
Mof_H 	H 	0.547	0.177	0.5237	0.084
Mof_C 	C 	0.52679	0.20856	0.5657	0.162
Mof_H 	H 	0.5408	0.23	0.5601	-0.042
Mof_C 	C 	0.50258	0.20863	0.59553	-0.365
Mof_C 	C 	0.48205	0.1772	0.60367	0.164
Mof_H 	H 	0.4655	0.1773	0.624	-0.039
Mof_C 	C 	0.48574	0.14571	0.582	-0.181
Mof_H 	H 	0.4717	0.1242	0.5876	0.093
Mof_N 	N 	0.5333	0.0776	0.4859	-0.172
Mof_N 	N 	0.5107	0.0585	0.5081	-0.132
Mof_N 	N 	0.4994	0.0798	0.5355	-0.09
Mof_N 	N 	0.5347	0.1128	0.4993	-0.116
Mof_C 	C 	0.986	0.1132	0.4704	0.088
Mof_C 	C 	0.99005	0.14564	0.44782	0.087
Mof_C 	C 	0.96952	0.1771	0.45596	-0.171
Mof_H 	H 	0.953	0.177	0.4763	0.081
Mof_C 	C 	0.97321	0.20856	0.4343	0.145
Mof_H 	H 	0.9592	0.23	0.4399	-0.034
Mof_C 	C 	0.99742	0.20863	0.40447	-0.328
Mof_C 	C 	0.01795	0.1772	0.39633	0.137
Mof_H 	H 	0.0345	0.1773	0.376	-0.031
Mof_C 	C 	0.01426	0.14571	0.418	-0.181
Mof_H 	H 	0.0283	0.1242	0.4124	0.09
Mof_N 	N 	0.9667	0.0776	0.5141	-0.171
Mof_N 	N 	0.9893	0.0585	0.4919	-0.126
Mof_N 	N 	0.0006	0.0798	0.4645	-0.101
Mof_N 	N 	0.9653	0.1128	0.5007	-0.116
Mof_C 	C 	0.486	0.6132	0.9704	0.089
Mof_C 	C 	0.49005	0.64564	0.94782	0.083
Mof_C 	C 	0.46952	0.6771	0.95596	-0.178
Mof_H 	H 	0.453	0.677	0.9763	0.086
Mof_C 	C 	0.47321	0.70856	0.9343	0.161
Mof_H 	H 	0.4592	0.73	0.9399	-0.041
Mof_C 	C 	0.49742	0.70863	0.90447	-0.364
Mof_C 	C 	0.51795	0.6772	0.89633	0.164
Mof_H 	H 	0.5345	0.6773	0.876	-0.038
Mof_C 	C 	0.51426	0.64571	0.918	-0.179
Mof_H 	H 	0.5283	0.6242	0.9124	0.094
Mof_N 	N 	0.4667	0.5776	0.0141	-0.176
Mof_N 	N 	0.4893	0.5585	0.9919	-0.124
Mof_N 	N 	0.5006	0.5798	0.9645	-0.089
Mof_N 	N 	0.4653	0.6128	0.0007	-0.124
Mof_C 	C 	0.764	0.7204	0.8632	0.082
Mof_C 	C 	0.75995	0.69782	0.89564	0.079
Mof_C 	C 	0.78048	0.70596	0.9271	-0.171
Mof_H 	H 	0.797	0.7263	0.927	0.083
Mof_C 	C 	0.77679	0.6843	0.95856	0.149
Mof_H 	H 	0.7908	0.6899	0.98	-0.033
Mof_C 	C 	0.75258	0.65447	0.95863	-0.34
Mof_C 	C 	0.73205	0.64633	0.9272	0.151
Mof_H 	H 	0.7155	0.626	0.9273	-0.032
Mof_C 	C 	0.73574	0.668	0.89571	-0.171
Mof_H 	H 	0.7217	0.6624	0.8742	0.091
Mof_N 	N 	0.7833	0.7641	0.8276	-0.171
Mof_N 	N 	0.7607	0.7419	0.8085	-0.131
Mof_N 	N 	0.7494	0.7145	0.8298	-0.089
Mof_N 	N 	0.7847	0.7507	0.8628	-0.115
Mof_C 	C 	0.264	0.2204	0.3632	0.079
Mof_C 	C 	0.25995	0.19782	0.39564	0.086
Mof_C 	C 	0.28048	0.20596	0.4271	-0.182
Mof_H 	H 	0.297	0.2263	0.427	0.084
Mof_C 	C 	0.27679	0.1843	0.45856	0.163
Mof_H 	H 	0.2908	0.1899	0.48	-0.042
Mof_C 	C 	0.25258	0.15447	0.45863	-0.366
Mof_C 	C 	0.23205	0.14633	0.4272	0.165
Mof_H 	H 	0.2155	0.126	0.4273	-0.039
Mof_C 	C 	0.23574	0.168	0.39571	-0.181
Mof_H 	H 	0.2217	0.1624	0.3742	0.094
Mof_N 	N 	0.2833	0.2641	0.3276	-0.171
Mof_N 	N 	0.2607	0.2419	0.3085	-0.131
Mof_N 	N 	0.2494	0.2145	0.3298	-0.089
Mof_N 	N 	0.2847	0.2507	0.3628	-0.116
Mof_C 	C 	0.736	0.2796	0.3632	0.079
Mof_C 	C 	0.74005	0.30218	0.39564	0.086
Mof_C 	C 	0.71952	0.29404	0.4271	-0.182
Mof_H 	H 	0.703	0.2737	0.427	0.084
Mof_C 	C 	0.72321	0.3157	0.45856	0.162
Mof_H 	H 	0.7092	0.3101	0.48	-0.042
Mof_C 	C 	0.74742	0.34553	0.45863	-0.366
Mof_C 	C 	0.76795	0.35367	0.4272	0.165
Mof_H 	H 	0.7845	0.374	0.4273	-0.038
Mof_C 	C 	0.76426	0.332	0.39571	-0.181
Mof_H 	H 	0.7783	0.3376	0.3742	0.094
Mof_N 	N 	0.7167	0.2359	0.3276	-0.171
Mof_N 	N 	0.7393	0.2581	0.3085	-0.131
Mof_N 	N 	0.7506	0.2855	0.3298	-0.089
Mof_N 	N 	0.7153	0.2493	0.3628	-0.116
Mof_C 	C 	0.236	0.7796	0.8632	0.082
Mof_C 	C 	0.24005	0.80218	0.89564	0.079
Mof_C 	C 	0.21952	0.79404	0.9271	-0.171
Mof_H 	H 	0.203	0.7737	0.927	0.082
Mof_C 	C 	0.22321	0.8157	0.95856	0.148
Mof_H 	H 	0.2092	0.8101	0.98	-0.034
Mof_C 	C 	0.24742	0.84553	0.95863	-0.34
Mof_C 	C 	0.26795	0.85367	0.9272	0.151
Mof_H 	H 	0.2845	0.874	0.9273	-0.032
Mof_C 	C 	0.26426	0.832	0.89571	-0.171
Mof_H 	H 	0.2783	0.8376	0.8742	0.092
Mof_N 	N 	0.2167	0.7359	0.8276	-0.171
Mof_N 	N 	0.2393	0.7581	0.8085	-0.131
Mof_N 	N 	0.2506	0.7855	0.8298	-0.089
Mof_N 	N 	0.2153	0.7493	0.8628	-0.116
Mof_C 	C 	0.264	0.7796	0.1368	0.08
Mof_C 	C 	0.25995	0.80218	0.10436	0.081
Mof_C 	C 	0.28048	0.79404	0.0729	-0.176
Mof_H 	H 	0.297	0.7737	0.073	0.081
Mof_C 	C 	0.27679	0.8157	0.04144	0.152
Mof_H 	H 	0.2908	0.8101	0.02	-0.042
Mof_C 	C 	0.25258	0.84553	0.04137	-0.352
Mof_C 	C 	0.23205	0.85367	0.0728	0.155
Mof_H 	H 	0.2155	0.874	0.0727	-0.035
Mof_C 	C 	0.23574	0.832	0.10429	-0.175
Mof_H 	H 	0.2217	0.8376	0.1258	0.092
Mof_N 	N 	0.2833	0.7359	0.1724	-0.172
Mof_N 	N 	0.2607	0.7581	0.1915	-0.131
Mof_N 	N 	0.2494	0.7855	0.1702	-0.089
Mof_N 	N 	0.2847	0.7493	0.1372	-0.116
Mof_C 	C 	0.764	0.2796	0.6368	0.079
Mof_C 	C 	0.75995	0.30218	0.60436	0.086
Mof_C 	C 	0.78048	0.29404	0.5729	-0.181
Mof_H 	H 	0.797	0.2737	0.573	0.084
Mof_C 	C 	0.77679	0.3157	0.54144	0.163
Mof_H 	H 	0.7908	0.3101	0.52	-0.042
Mof_C 	C 	0.75258	0.34553	0.54137	-0.366
Mof_C 	C 	0.73205	0.35367	0.5728	0.165
Mof_H 	H 	0.7155	0.374	0.5727	-0.039
Mof_C 	C 	0.73574	0.332	0.60429	-0.181
Mof_H 	H 	0.7217	0.3376	0.6258	0.094
Mof_N 	N 	0.7833	0.2359	0.6724	-0.171
Mof_N 	N 	0.7607	0.2581	0.6915	-0.131
Mof_N 	N 	0.7494	0.2855	0.6702	-0.089
Mof_N 	N 	0.7847	0.2493	0.6372	-0.115
Mof_C 	C 	0.236	0.2204	0.6368	0.079
Mof_C 	C 	0.24005	0.19782	0.60436	0.085
Mof_C 	C 	0.21952	0.20596	0.5729	-0.182
Mof_H 	H 	0.203	0.2263	0.573	0.084
Mof_C 	C 	0.22321	0.1843	0.54144	0.162
Mof_H 	H 	0.2092	0.1899	0.52	-0.043
Mof_C 	C 	0.24742	0.15447	0.54137	-0.366
Mof_C 	C 	0.26795	0.14633	0.5728	0.165
Mof_H 	H 	0.2845	0.126	0.5727	-0.039
Mof_C 	C 	0.26426	0.168	0.60429	-0.181
Mof_H 	H 	0.2783	0.1624	0.6258	0.094
Mof_N 	N 	0.2167	0.2641	0.6724	-0.172
Mof_N 	N 	0.2393	0.2419	0.6915	-0.131
Mof_N 	N 	0.2506	0.2145	0.6702	-0.089
Mof_N 	N 	0.2153	0.2507	0.6372	-0.116
Mof_C 	C 	0.736	0.7204	0.1368	0.08
Mof_C 	C 	0.74005	0.69782	0.10436	0.081
Mof_C 	C 	0.71952	0.70596	0.0729	-0.176
Mof_H 	H 	0.703	0.7263	0.073	0.081
Mof_C 	C 	0.72321	0.6843	0.04144	0.152
Mof_H 	H 	0.7092	0.6899	0.02	-0.042
Mof_C 	C 	0.74742	0.65447	0.04137	-0.352
Mof_C 	C 	0.76795	0.64633	0.0728	0.155
Mof_H 	H 	0.7845	0.626	0.0727	-0.035
Mof_C 	C 	0.76426	0.668	0.10429	-0.175
Mof_H 	H 	0.7783	0.6624	0.1258	0.092
Mof_N 	N 	0.7167	0.7641	0.1724	-0.172
Mof_N 	N 	0.7393	0.7419	0.1915	-0.131
Mof_N 	N 	0.7506	0.7145	0.1702	-0.089
Mof_N 	N 	0.7153	0.7507	0.1372	-0.116
Mof_C 	C 	0.2204	0.6368	0.236	0.079
Mof_C 	C 	0.19782	0.60436	0.24005	0.085
Mof_C 	C 	0.20596	0.5729	0.21952	-0.182
Mof_H 	H 	0.2263	0.573	0.203	0.084
Mof_C 	C 	0.1843	0.54144	0.22321	0.162
Mof_H 	H 	0.1899	0.52	0.2092	-0.043
Mof_C 	C 	0.15447	0.54137	0.24742	-0.366
Mof_C 	C 	0.14633	0.5728	0.26795	0.165
Mof_H 	H 	0.126	0.5727	0.2845	-0.039
Mof_C 	C 	0.168	0.60429	0.26426	-0.181
Mof_H 	H 	0.1624	0.6258	0.2783	0.094
Mof_N 	N 	0.2641	0.6724	0.2167	-0.172
Mof_N 	N 	0.2419	0.6915	0.2393	-0.131
Mof_N 	N 	0.2145	0.6702	0.2506	-0.089
Mof_N 	N 	0.2507	0.6372	0.2153	-0.116
Mof_C 	C 	0.7204	0.1368	0.736	0.08
Mof_C 	C 	0.69782	0.10436	0.74005	0.081
Mof_C 	C 	0.70596	0.0729	0.71952	-0.176
Mof_H 	H 	0.7263	0.073	0.703	0.081
Mof_C 	C 	0.6843	0.04144	0.72321	0.152
Mof_H 	H 	0.6899	0.02	0.7092	-0.042
Mof_C 	C 	0.65447	0.04137	0.74742	-0.352
Mof_C 	C 	0.64633	0.0728	0.76795	0.155
Mof_H 	H 	0.626	0.0727	0.7845	-0.035
Mof_C 	C 	0.668	0.10429	0.76426	-0.175
Mof_H 	H 	0.6624	0.1258	0.7783	0.092
Mof_N 	N 	0.7641	0.1724	0.7167	-0.172
Mof_N 	N 	0.7419	0.1915	0.7393	-0.131
Mof_N 	N 	0.7145	0.1702	0.7506	-0.089
Mof_N 	N 	0.7507	0.1372	0.7153	-0.116
Mof_C 	C 	0.7796	0.1368	0.264	0.08
Mof_C 	C 	0.80218	0.10436	0.25995	0.081
Mof_C 	C 	0.79404	0.0729	0.28048	-0.176
Mof_H 	H 	0.7737	0.073	0.297	0.081
Mof_C 	C 	0.8157	0.04144	0.27679	0.152
Mof_H 	H 	0.8101	0.02	0.2908	-0.042
Mof_C 	C 	0.84553	0.04137	0.25258	-0.352
Mof_C 	C 	0.85367	0.0728	0.23205	0.155
Mof_H 	H 	0.874	0.0727	0.2155	-0.035
Mof_C 	C 	0.832	0.10429	0.23574	-0.175
Mof_H 	H 	0.8376	0.1258	0.2217	0.092
Mof_N 	N 	0.7359	0.1724	0.2833	-0.172
Mof_N 	N 	0.7581	0.1915	0.2607	-0.131
Mof_N 	N 	0.7855	0.1702	0.2494	-0.089
Mof_N 	N 	0.7493	0.1372	0.2847	-0.116
Mof_C 	C 	0.2796	0.6368	0.764	0.079
Mof_C 	C 	0.30218	0.60436	0.75995	0.086
Mof_C 	C 	0.29404	0.5729	0.78048	-0.181
Mof_H 	H 	0.2737	0.573	0.797	0.084
Mof_C 	C 	0.3157	0.54144	0.77679	0.163
Mof_H 	H 	0.3101	0.52	0.7908	-0.042
Mof_C 	C 	0.34553	0.54137	0.75258	-0.366
Mof_C 	C 	0.35367	0.5728	0.73205	0.165
Mof_H 	H 	0.374	0.5727	0.7155	-0.039
Mof_C 	C 	0.332	0.60429	0.73574	-0.181
Mof_H 	H 	0.3376	0.6258	0.7217	0.094
Mof_N 	N 	0.2359	0.6724	0.7833	-0.171
Mof_N 	N 	0.2581	0.6915	0.7607	-0.131
Mof_N 	N 	0.2855	0.6702	0.7494	-0.089
Mof_N 	N 	0.2493	0.6372	0.7847	-0.115
Mof_C 	C 	0.2796	0.3632	0.736	0.079
Mof_C 	C 	0.30218	0.39564	0.74005	0.086
Mof_C 	C 	0.29404	0.4271	0.71952	-0.182
Mof_H 	H 	0.2737	0.427	0.703	0.084
Mof_C 	C 	0.3157	0.45856	0.72321	0.162
Mof_H 	H 	0.3101	0.48	0.7092	-0.042
Mof_C 	C 	0.34553	0.45863	0.74742	-0.366
Mof_C 	C 	0.35367	0.4272	0.76795	0.165
Mof_H 	H 	0.374	0.4273	0.7845	-0.038
Mof_C 	C 	0.332	0.39571	0.76426	-0.181
Mof_H 	H 	0.3376	0.3742	0.7783	0.094
Mof_N 	N 	0.2359	0.3276	0.7167	-0.171
Mof_N 	N 	0.2581	0.3085	0.7393	-0.131
Mof_N 	N 	0.2855	0.3298	0.7506	-0.089
Mof_N 	N 	0.2493	0.3628	0.7153	-0.116
Mof_C 	C 	0.7796	0.8632	0.236	0.082
Mof_C 	C 	0.80218	0.89564	0.24005	0.079
Mof_C 	C 	0.79404	0.9271	0.21952	-0.171
Mof_H 	H 	0.7737	0.927	0.203	0.082
Mof_C 	C 	0.8157	0.95856	0.22321	0.148
Mof_H 	H 	0.8101	0.98	0.2092	-0.034
Mof_C 	C 	0.84553	0.95863	0.24742	-0.34
Mof_C 	C 	0.85367	0.9272	0.26795	0.151
Mof_H 	H 	0.874	0.9273	0.2845	-0.032
Mof_C 	C 	0.832	0.89571	0.26426	-0.171
Mof_H 	H 	0.8376	0.8742	0.2783	0.092
Mof_N 	N 	0.7359	0.8276	0.2167	-0.171
Mof_N 	N 	0.7581	0.8085	0.2393	-0.131
Mof_N 	N 	0.7855	0.8298	0.2506	-0.089
Mof_N 	N 	0.7493	0.8628	0.2153	-0.116
Mof_C 	C 	0.7204	0.8632	0.764	0.082
Mof_C 	C 	0.69782	0.89564	0.75995	0.079
Mof_C 	C 	0.70596	0.9271	0.78048	-0.171
Mof_H 	H 	0.7263	0.927	0.797	0.083
Mof_C 	C 	0.6843	0.95856	0.77679	0.149
Mof_H 	H 	0.6899	0.98	0.7908	-0.033
Mof_C 	C 	0.65447	0.95863	0.75258	-0.34
Mof_C 	C 	0.64633	0.9272	0.73205	0.151
Mof_H 	H 	0.626	0.9273	0.7155	-0.032
Mof_C 	C 	0.668	0.89571	0.73574	-0.171
Mof_H 	H 	0.6624	0.8742	0.7217	0.091
Mof_N 	N 	0.7641	0.8276	0.7833	-0.171
Mof_N 	N 	0.7419	0.8085	0.7607	-0.131
Mof_N 	N 	0.7145	0.8298	0.7494	-0.089
Mof_N 	N 	0.7507	0.8628	0.7847	-0.115
Mof_C 	C 	0.2204	0.3632	0.264	0.079
Mof_C 	C 	0.19782	0.39564	0.25995	0.086
Mof_C 	C 	0.20596	0.4271	0.28048	-0.182
Mof_H 	H 	0.2263	0.427	0.297	0.084
Mof_C 	C 	0.1843	0.45856	0.27679	0.163
Mof_H 	H 	0.1899	0.48	0.2908	-0.042
Mof_C 	C 	0.15447	0.45863	0.25258	-0.366
Mof_C 	C 	0.14633	0.4272	0.23205	0.165
Mof_H 	H 	0.126	0.4273	0.2155	-0.039
Mof_C 	C 	0.168	0.39571	0.23574	-0.181
Mof_H 	H 	0.1624	0.3742	0.2217	0.094
Mof_N 	N 	0.2641	0.3276	0.2833	-0.171
Mof_N 	N 	0.2419	0.3085	0.2607	-0.131
Mof_N 	N 	0.2145	0.3298	0.2494	-0.089
Mof_N 	N 	0.2507	0.3628	0.2847	-0.116
Mof_C 	C 	0.1368	0.264	0.7796	0.08
Mof_C 	C 	0.10436	0.25995	0.80218	0.081
Mof_C 	C 	0.0729	0.28048	0.79404	-0.176
Mof_H 	H 	0.073	0.297	0.7737	0.081
Mof_C 	C 	0.04144	0.27679	0.8157	0.152
Mof_H 	H 	0.02	0.2908	0.8101	-0.042
Mof_C 	C 	0.04137	0.25258	0.84553	-0.352
Mof_C 	C 	0.0728	0.23205	0.85367	0.155
Mof_H 	H 	0.0727	0.2155	0.874	-0.035
Mof_C 	C 	0.10429	0.23574	0.832	-0.175
Mof_H 	H 	0.1258	0.2217	0.8376	0.092
Mof_N 	N 	0.1724	0.2833	0.7359	-0.172
Mof_N 	N 	0.1915	0.2607	0.7581	-0.131
Mof_N 	N 	0.1702	0.2494	0.7855	-0.089
Mof_N 	N 	0.1372	0.2847	0.7493	-0.116
Mof_C 	C 	0.6368	0.764	0.2796	0.079
Mof_C 	C 	0.60436	0.75995	0.30218	0.086
Mof_C 	C 	0.5729	0.78048	0.29404	-0.181
Mof_H 	H 	0.573	0.797	0.2737	0.084
Mof_C 	C 	0.54144	0.77679	0.3157	0.163
Mof_H 	H 	0.52	0.7908	0.3101	-0.042
Mof_C 	C 	0.54137	0.75258	0.34553	-0.366
Mof_C 	C 	0.5728	0.73205	0.35367	0.165
Mof_H 	H 	0.5727	0.7155	0.374	-0.039
Mof_C 	C 	0.60429	0.73574	0.332	-0.181
Mof_H 	H 	0.6258	0.7217	0.3376	0.094
Mof_N 	N 	0.6724	0.7833	0.2359	-0.171
Mof_N 	N 	0.6915	0.7607	0.2581	-0.131
Mof_N 	N 	0.6702	0.7494	0.2855	-0.089
Mof_N 	N 	0.6372	0.7847	0.2493	-0.115
Mof_C 	C 	0.6368	0.236	0.2204	0.079
Mof_C 	C 	0.60436	0.24005	0.19782	0.085
Mof_C 	C 	0.5729	0.21952	0.20596	-0.182
Mof_H 	H 	0.573	0.203	0.2263	0.084
Mof_C 	C 	0.54144	0.22321	0.1843	0.162
Mof_H 	H 	0.52	0.2092	0.1899	-0.043
Mof_C 	C 	0.54137	0.24742	0.15447	-0.366
Mof_C 	C 	0.5728	0.26795	0.14633	0.165
Mof_H 	H 	0.5727	0.2845	0.126	-0.039
Mof_C 	C 	0.60429	0.26426	0.168	-0.181
Mof_H 	H 	0.6258	0.2783	0.1624	0.094
Mof_N 	N 	0.6724	0.2167	0.2641	-0.172
Mof_N 	N 	0.6915	0.2393	0.2419	-0.131
Mof_N 	N 	0.6702	0.2506	0.2145	-0.089
Mof_N 	N 	0.6372	0.2153	0.2507	-0.116
Mof_C 	C 	0.1368	0.736	0.7204	0.08
Mof_C 	C 	0.10436	0.74005	0.69782	0.081
Mof_C 	C 	0.0729	0.71952	0.70596	-0.176
Mof_H 	H 	0.073	0.703	0.7263	0.081
Mof_C 	C 	0.04144	0.72321	0.6843	0.152
Mof_H 	H 	0.02	0.7092	0.6899	-0.042
Mof_C 	C 	0.04137	0.74742	0.65447	-0.352
Mof_C 	C 	0.0728	0.76795	0.64633	0.155
Mof_H 	H 	0.0727	0.7845	0.626	-0.035
Mof_C 	C 	0.10429	0.76426	0.668	-0.175
Mof_H 	H 	0.1258	0.7783	0.6624	0.092
Mof_N 	N 	0.1724	0.7167	0.7641	-0.172
Mof_N 	N 	0.1915	0.7393	0.7419	-0.131
Mof_N 	N 	0.1702	0.7506	0.7145	-0.089
Mof_N 	N 	0.1372	0.7153	0.7507	-0.116
Mof_C 	C 	0.8632	0.764	0.7204	0.082
Mof_C 	C 	0.89564	0.75995	0.69782	0.079
Mof_C 	C 	0.9271	0.78048	0.70596	-0.171
Mof_H 	H 	0.927	0.797	0.7263	0.083
Mof_C 	C 	0.95856	0.77679	0.6843	0.149
Mof_H 	H 	0.98	0.7908	0.6899	-0.033
Mof_C 	C 	0.95863	0.75258	0.65447	-0.34
Mof_C 	C 	0.9272	0.73205	0.64633	0.151
Mof_H 	H 	0.9273	0.7155	0.626	-0.032
Mof_C 	C 	0.89571	0.73574	0.668	-0.171
Mof_H 	H 	0.8742	0.7217	0.6624	0.091
Mof_N 	N 	0.8276	0.7833	0.7641	-0.171
Mof_N 	N 	0.8085	0.7607	0.7419	-0.131
Mof_N 	N 	0.8298	0.7494	0.7145	-0.089
Mof_N 	N 	0.8628	0.7847	0.7507	-0.115
Mof_C 	C 	0.3632	0.264	0.2204	0.079
Mof_C 	C 	0.39564	0.25995	0.19782	0.086
Mof_C 	C 	0.4271	0.28048	0.20596	-0.182
Mof_H 	H 	0.427	0.297	0.2263	0.084
Mof_C 	C 	0.45856	0.27679	0.1843	0.163
Mof_H 	H 	0.48	0.2908	0.1899	-0.042
Mof_C 	C 	0.45863	0.25258	0.15447	-0.366
Mof_C 	C 	0.4272	0.23205	0.14633	0.165
Mof_H 	H 	0.4273	0.2155	0.126	-0.039
Mof_C 	C 	0.39571	0.23574	0.168	-0.181
Mof_H 	H 	0.3742	0.2217	0.1624	0.094
Mof_N 	N 	0.3276	0.2833	0.2641	-0.171
Mof_N 	N 	0.3085	0.2607	0.2419	-0.131
Mof_N 	N 	0.3298	0.2494	0.2145	-0.089
Mof_N 	N 	0.3628	0.2847	0.2507	-0.116
Mof_C 	C 	0.3632	0.736	0.2796	0.079
Mof_C 	C 	0.39564	0.74005	0.30218	0.086
Mof_C 	C 	0.4271	0.71952	0.29404	-0.182
Mof_H 	H 	0.427	0.703	0.2737	0.084
Mof_C 	C 	0.45856	0.72321	0.3157	0.162
Mof_H 	H 	0.48	0.7092	0.3101	-0.042
Mof_C 	C 	0.45863	0.74742	0.34553	-0.366
Mof_C 	C 	0.4272	0.76795	0.35367	0.165
Mof_H 	H 	0.4273	0.7845	0.374	-0.038
Mof_C 	C 	0.39571	0.76426	0.332	-0.181
Mof_H 	H 	0.3742	0.7783	0.3376	0.094
Mof_N 	N 	0.3276	0.7167	0.2359	-0.171
Mof_N 	N 	0.3085	0.7393	0.2581	-0.131
Mof_N 	N 	0.3298	0.7506	0.2855	-0.089
Mof_N 	N 	0.3628	0.7153	0.2493	-0.116
Mof_C 	C 	0.8632	0.236	0.7796	0.082
Mof_C 	C 	0.89564	0.24005	0.80218	0.079
Mof_C 	C 	0.9271	0.21952	0.79404	-0.171
Mof_H 	H 	0.927	0.203	0.7737	0.082
Mof_C 	C 	0.95856	0.22321	0.8157	0.148
Mof_H 	H 	0.98	0.2092	0.8101	-0.034
Mof_C 	C 	0.95863	0.24742	0.84553	-0.34
Mof_C 	C 	0.9272	0.26795	0.85367	0.151
Mof_H 	H 	0.9273	0.2845	0.874	-0.032
Mof_C 	C 	0.89571	0.26426	0.832	-0.171
Mof_H 	H 	0.8742	0.2783	0.8376	0.092
Mof_N 	N 	0.8276	0.2167	0.7359	-0.171
Mof_N 	N 	0.8085	0.2393	0.7581	-0.131
Mof_N 	N 	0.8298	0.2506	0.7855	-0.089
Mof_N 	N 	0.8628	0.2153	0.7493	-0.116
Mof_Cu	Cu	0.94043	0.44043	0.05957	0.812
Mof_Cu	Cu	0.44043	0.94043	0.55957	0.813
Mof_Cu	Cu	0.55957	0.55957	0.55957	0.812
Mof_Cu	Cu	0.05957	0.05957	0.05957	0.809
Mof_Cu	Cu	0.05957	0.94043	0.44043	0.812
Mof_Cu	Cu	0.55957	0.44043	0.94043	0.813
Mof_Cu	Cu	0.44043	0.05957	0.94043	0.812
Mof_Cu	Cu	0.94043	0.55957	0.44043	0.813
Mof_Cu	Cu	0.19043	0.19043	0.19043	0.81
Mof_Cu	Cu	0.69043	0.69043	0.69043	0.812
Mof_Cu	Cu	0.30957	0.80957	0.69043	0.812
Mof_Cu	Cu	0.80957	0.30957	0.19043	0.812
Mof_Cu	Cu	0.69043	0.30957	0.80957	0.812
Mof_Cu	Cu	0.19043	0.80957	0.30957	0.812
Mof_Cu	Cu	0.80957	0.69043	0.30957	0.812
Mof_Cu	Cu	0.30957	0.19043	0.80957	0.812
Mof_Cu	Cu	0.05957	0.55957	0.94043	0.812
Mof_Cu	Cu	0.55957	0.05957	0.44043	0.811
Mof_Cu	Cu	0.44043	0.44043	0.44043	0.812
Mof_Cu	Cu	0.94043	0.94043	0.94043	0.815
Mof_Cu	Cu	0.94043	0.05957	0.55957	0.812
Mof_Cu	Cu	0.44043	0.55957	0.05957	0.811
Mof_Cu	Cu	0.55957	0.94043	0.05957	0.812
Mof_Cu	Cu	0.05957	0.44043	0.55957	0.811
Mof_Cu	Cu	0.80957	0.80957	0.80957	0.813
Mof_Cu	Cu	0.30957	0.30957	0.30957	0.812
Mof_Cu	Cu	0.69043	0.19043	0.30957	0.811
Mof_Cu	Cu	0.19043	0.69043	0.80957	0.812
Mof_Cu	Cu	0.30957	0.69043	0.19043	0.811
Mof_Cu	Cu	0.80957	0.19043	0.69043	0.812
Mof_Cu	Cu	0.19043	0.30957	0.69043	0.811
Mof_Cu	Cu	0.69043	0.80957	0.19043	0.812
Mof_Cu	Cu	4.26043e-33	0.5	-0	0.855
Mof_Cu	Cu	0.5	4.26043e-33	0.5	0.86
Mof_Cu	Cu	0.5	0.5	0.5	0.865
Mof_Cu	Cu	-0	0	-0	0.851
Mof_Cu	Cu	6.13513e-33	4.26043e-33	0.5	0.855
Mof_Cu	Cu	0.5	0.5	-0	0.86
Mof_Cu	Cu	0.5	0	-0	0.855
Mof_Cu	Cu	1.03956e-32	0.5	0.5	0.86
Mof_Cu	Cu	0.25	0.25	0.25	0.865
Mof_Cu	Cu	0.25	0.75	0.75	0.865
Mof_Cu	Cu	0.75	0.25	0.75	0.865
Mof_Cu	Cu	0.75	0.75	0.25	0.865
Mof_Cu	Cu	0.75	0.75	0.75	0.865
Mof_Cu	Cu	0.75	0.25	0.25	0.865
Mof_Cu	Cu	0.25	0.75	0.25	0.865
Mof_Cu	Cu	0.25	0.25	0.75	0.865
Mof_Si	Si	0.125	0.5	0.25	0.928
Mof_Si	Si	0.375	0.5	0.75	0.928
Mof_Si	Si	0.875	2.13021e-33	0.25	0.881
Mof_Si	Si	0.625	8.52085e-33	0.75	0.882
Mof_Si	Si	0.25	0.125	0.5	0.928
Mof_Si	Si	0.75	0.375	0.5	0.928
Mof_Si	Si	0.25	0.875	-0	0.881
Mof_Si	Si	0.75	0.625	-0	0.882
Mof_Si	Si	0.5	0.25	0.125	0.928
Mof_Si	Si	0.5	0.75	0.375	0.928
Mof_Si	Si	3.28072e-33	0.25	0.875	0.881
Mof_Si	Si	1.93851e-32	0.75	0.625	0.882
Mof_Si	Si	0.25	0.375	-0	0.881
Mof_Si	Si	0.25	0.625	0.5	0.927
Mof_Si	Si	0.75	0.125	-0	0.882
Mof_Si	Si	0.75	0.875	0.5	0.927
Mof_Si	Si	0.875	0.5	0.75	0.927
Mof_Si	Si	0.125	8.52085e-33	0.75	0.882
Mof_Si	Si	0.625	0.5	0.25	0.927
Mof_Si	Si	0.375	2.13021e-33	0.25	0.881
Mof_Si	Si	7.92442e-33	0.75	0.125	0.882
Mof_Si	Si	0.5	0.75	0.875	0.927
Mof_Si	Si	5.66645e-33	0.25	0.375	0.881
Mof_Si	Si	0.5	0.25	0.625	0.927
_end
