data_functionalizedCrystal
_audit_creation_method	'EQeq! by Chris Wilmer'
_symmetry_space_group_name_H-M	'P1'
_symmetry_Int_Tables_number	1
_symmetry_cell_setting	triclinic
loop_
_symmetry_equiv_pos_as_xyz
  x,y,z
_cell_length_a	8.8438
_cell_length_b	12.7821
_cell_length_c	12.2085
_cell_angle_alpha	90
_cell_angle_beta	100.063
_cell_angle_gamma	90
loop_
_atom_site_label
_atom_site_type_symbol
_atom_site_fract_x
_atom_site_fract_y
_atom_site_fract_z
_atom_site_charge
Mof_Cd	Cd	0.22015	0.91397	0.38475	0.455
Mof_Cd	Cd	0.20626	0.79095	0.03396	0.432
Mof_Cd	Cd	0.26321	0.56056	0.34974	0.47
Mof_O 	O 	0.0039	0.605	0.3615	-0.263
Mof_O 	O 	0.1735	0.7301	0.3837	-0.265
Mof_O 	O 	0.4537	0.8454	0.4175	-0.256
Mof_O 	O 	0.5381	0.0038	0.4012	-0.249
Mof_O 	O 	0.4842	0.59	0.2855	-0.249
Mof_O 	O 	0.2867	0.6551	0.1698	-0.271
Mof_O 	O 	0.9815	0.7268	0.0656	-0.365
Mof_H 	H 	0.032	0.6718	0.057	0.19
Mof_O 	O 	0.8845	0.8701	0.9786	-0.223
Mof_O 	O 	0.219	0.4195	0.2217	-0.247
Mof_O 	O 	0.2133	0.3831	0.3988	-0.267
Mof_O 	O 	0.2343	0.9888	0.0423	-0.296
Mof_O 	O 	0.2035	0.9011	0.1899	-0.279
Mof_N 	N 	0.9617	0.8766	0.401	-0.062
Mof_N 	N 	0.8391	0.9284	0.41	-0.157
Mof_H 	H 	0.8378	0.9953	0.4172	0.176
Mof_N 	N 	0.4757	0.7747	0.0673	-0.076
Mof_N 	N 	0.5944	0.8125	0.025	-0.167
Mof_H 	H 	0.5878	0.8623	0.9771	0.177
Mof_N 	N 	0.1917	0.1737	0.3531	-0.095
Mof_N 	N 	0.1904	0.0768	0.3095	-0.09
Mof_C 	C 	0.0376	0.6975	0.3759	0.208
Mof_C 	C 	0.9186	0.7753	0.3914	0.095
Mof_C 	C 	0.7643	0.7664	0.3955	-0.083
Mof_H 	H 	0.7062	0.7054	0.3914	0.105
Mof_C 	C 	0.7143	0.8687	0.4071	0.051
Mof_C 	C 	0.5566	0.9112	0.409	0.296
Mof_C 	C 	0.4268	0.6435	0.2003	0.283
Mof_C 	C 	0.5324	0.6984	0.1367	0.016
Mof_C 	C 	0.6888	0.6874	0.1373	-0.05
Mof_H 	H 	0.7559	0.6392	0.177	0.096
Mof_C 	C 	0.722	0.7634	0.066	0.034
Mof_C 	C 	0.8723	0.7905	0.0347	0.331
Mof_C 	C 	0.209	0.3552	0.2986	0.266
Mof_C 	C 	0.2022	0.2434	0.272	0.001
Mof_C 	C 	0.2115	0.1914	0.1738	-0.031
Mof_H 	H 	0.2205	0.22	0.1052	0.06
Mof_C 	C 	0.2039	0.0846	0.2026	-0.015
Mof_C 	C 	0.2151	0.9895	0.1404	0.286
Mof_Cd	Cd	0.22015	0.08603	0.88475	0.458
Mof_Cd	Cd	0.20626	0.20905	0.53396	0.44
Mof_Cd	Cd	0.26321	0.43944	0.84974	0.473
Mof_O 	O 	0.0039	0.395	0.8615	-0.261
Mof_O 	O 	0.1735	0.2699	0.8837	-0.263
Mof_O 	O 	0.4537	0.1546	0.9175	-0.254
Mof_O 	O 	0.5381	0.9962	0.9012	-0.246
Mof_O 	O 	0.4842	0.41	0.7855	-0.248
Mof_O 	O 	0.2867	0.3449	0.6698	-0.27
Mof_O 	O 	0.9815	0.2732	0.5656	-0.37
Mof_H 	H 	0.032	0.3282	0.557	0.194
Mof_O 	O 	0.8845	0.1299	0.4786	-0.238
Mof_O 	O 	0.219	0.5805	0.7217	-0.244
Mof_O 	O 	0.2133	0.6169	0.8988	-0.262
Mof_O 	O 	0.2343	0.0112	0.5423	-0.289
Mof_O 	O 	0.2035	0.0989	0.6899	-0.279
Mof_N 	N 	0.9617	0.1234	0.901	-0.062
Mof_N 	N 	0.8391	0.0716	0.91	-0.157
Mof_H 	H 	0.8378	0.0047	0.9172	0.176
Mof_N 	N 	0.4757	0.2253	0.5673	-0.075
Mof_N 	N 	0.5944	0.1875	0.525	-0.155
Mof_H 	H 	0.5878	0.1377	0.4771	0.166
Mof_N 	N 	0.1917	0.8263	0.8531	-0.092
Mof_N 	N 	0.1904	0.9232	0.8095	-0.088
Mof_C 	C 	0.0376	0.3025	0.8759	0.209
Mof_C 	C 	0.9186	0.2247	0.8914	0.095
Mof_C 	C 	0.7643	0.2336	0.8955	-0.083
Mof_H 	H 	0.7062	0.2946	0.8914	0.106
Mof_C 	C 	0.7143	0.1313	0.9071	0.052
Mof_C 	C 	0.5566	0.0888	0.909	0.294
Mof_C 	C 	0.4268	0.3565	0.7003	0.284
Mof_C 	C 	0.5324	0.3016	0.6367	0.016
Mof_C 	C 	0.6888	0.3126	0.6373	-0.046
Mof_H 	H 	0.7559	0.3608	0.677	0.095
Mof_C 	C 	0.722	0.2366	0.566	0.029
Mof_C 	C 	0.8723	0.2095	0.5347	0.35
Mof_C 	C 	0.209	0.6448	0.7986	0.266
Mof_C 	C 	0.2022	0.7566	0.772	0.004
Mof_C 	C 	0.2115	0.8086	0.6738	-0.031
Mof_H 	H 	0.2205	0.78	0.6052	0.063
Mof_C 	C 	0.2039	0.9154	0.7026	-0.015
Mof_C 	C 	0.2151	0.0105	0.6404	0.286
_end
