data_functionalizedCrystal
_audit_creation_method	'EQeq! by Chris Wilmer'
_symmetry_space_group_name_H-M	'P1'
_symmetry_Int_Tables_number	1
_symmetry_cell_setting	triclinic
loop_
_symmetry_equiv_pos_as_xyz
  x,y,z
_cell_length_a	12.327
_cell_length_b	26.914
_cell_length_c	33.375
_cell_angle_alpha	90
_cell_angle_beta	90
_cell_angle_gamma	90
loop_
_atom_site_label
_atom_site_type_symbol
_atom_site_fract_x
_atom_site_fract_y
_atom_site_fract_z
_atom_site_charge
Mof_Co	Co	0.52336	0.56858	0.61367	1.175
Mof_Co	Co	0.97664	0.06858	0.38633	1.175
Mof_Co	Co	0.02336	0.06858	0.88633	1.175
Mof_Co	Co	0.47664	0.56858	0.11367	1.175
Mof_Ag	Ag	0.7392	0.22119	0.64001	0.865
Mof_Ag	Ag	0.7608	0.72119	0.35999	0.866
Mof_Ag	Ag	0.2392	0.72119	0.85999	0.866
Mof_Ag	Ag	0.2608	0.22119	0.14001	0.865
Mof_H 	H 	0.2876	0.5391	0.6431	0.017
Mof_H 	H 	0.2361	0.4559	0.6695	0.062
Mof_H 	H 	0.3972	0.4019	0.6606	0.075
Mof_H 	H 	0.7929	0.4286	0.5976	0.135
Mof_H 	H 	0.8841	0.5042	0.5705	0.039
Mof_H 	H 	0.7545	0.5736	0.5747	0.023
Mof_H 	H 	0.7224	0.4044	0.6762	0.137
Mof_H 	H 	0.7592	0.325	0.6851	0.005
Mof_H 	H 	0.5424	0.2817	0.6068	-0.029
Mof_H 	H 	0.4986	0.3635	0.5923	0.099
Mof_H 	H 	0.2218	0.0359	0.8332	0.01
Mof_H 	H 	0.2286	0.0428	0.7597	0.06
Mof_H 	H 	0.0684	0.0908	0.7364	0.062
Mof_H 	H 	0.7506	0.1806	0.8221	0.068
Mof_H 	H 	0.7058	0.1818	0.895	0.046
Mof_H 	H 	0.8367	0.1242	0.9289	0.012
Mof_H 	H 	0.0084	0.1864	0.7531	0.089
Mof_H 	H 	0.9299	0.2215	0.6951	0.035
Mof_H 	H 	0.6693	0.1411	0.7068	0.044
Mof_H 	H 	0.7385	0.0981	0.763	0.095
Mof_H 	H 	0.8477	0.1523	0.3458	0.016
Mof_H 	H 	0.7502	0.2223	0.381	0.042
Mof_H 	H 	0.775	0.2072	0.4545	0.072
Mof_H 	H 	0.0315	0.0785	0.5347	0.073
Mof_H 	H 	0.1675	0.0141	0.511	0.045
Mof_H 	H 	0.1393	0.0066	0.4373	0.016
Mof_H 	H 	0.7982	0.0856	0.532	0.088
Mof_H 	H 	0.728	0.1233	0.5893	0.037
Mof_H 	H 	0.8846	0.2467	0.5648	-0.004
Mof_H 	H 	0.9454	0.2179	0.5048	0.091
Mof_H 	H 	0.2124	0.0391	0.3569	0.017
Mof_H 	H 	0.2639	0.9559	0.3305	0.062
Mof_H 	H 	0.1028	0.9019	0.3394	0.074
Mof_H 	H 	0.7071	0.9286	0.4024	0.135
Mof_H 	H 	0.6159	0.0042	0.4295	0.039
Mof_H 	H 	0.7455	0.0736	0.4253	0.023
Mof_H 	H 	0.7776	0.9044	0.3238	0.137
Mof_H 	H 	0.7408	0.825	0.3149	0.005
Mof_H 	H 	0.9576	0.7817	0.3932	-0.028
Mof_H 	H 	0.0014	0.8635	0.4077	0.098
Mof_H 	H 	0.2782	0.5359	0.1668	0.01
Mof_H 	H 	0.2714	0.5428	0.2403	0.06
Mof_H 	H 	0.4316	0.5908	0.2636	0.061
Mof_H 	H 	0.7494	0.6806	0.1779	0.068
Mof_H 	H 	0.7942	0.6818	0.105	0.046
Mof_H 	H 	0.6633	0.6242	0.0711	0.012
Mof_H 	H 	0.4916	0.6864	0.2469	0.088
Mof_H 	H 	0.5701	0.7215	0.3049	0.035
Mof_H 	H 	0.8307	0.6411	0.2932	0.045
Mof_H 	H 	0.7615	0.5981	0.237	0.095
Mof_H 	H 	0.6523	0.6523	0.6542	0.016
Mof_H 	H 	0.7498	0.7223	0.619	0.042
Mof_H 	H 	0.725	0.7072	0.5455	0.072
Mof_H 	H 	0.4685	0.5785	0.4653	0.073
Mof_H 	H 	0.3325	0.5141	0.489	0.045
Mof_H 	H 	0.3607	0.5066	0.5627	0.016
Mof_H 	H 	0.7018	0.5856	0.468	0.088
Mof_H 	H 	0.772	0.6233	0.4107	0.037
Mof_H 	H 	0.6154	0.7467	0.4352	-0.004
Mof_H 	H 	0.5546	0.7179	0.4952	0.091
Mof_H 	H 	0.7876	0.0391	0.8569	0.017
Mof_H 	H 	0.7361	0.9559	0.8305	0.062
Mof_H 	H 	0.8972	0.9019	0.8394	0.074
Mof_H 	H 	0.2929	0.9286	0.9024	0.135
Mof_H 	H 	0.3841	0.0042	0.9295	0.039
Mof_H 	H 	0.2545	0.0736	0.9253	0.023
Mof_H 	H 	0.2224	0.9044	0.8238	0.137
Mof_H 	H 	0.2592	0.825	0.8149	0.005
Mof_H 	H 	0.0424	0.7817	0.8932	-0.028
Mof_H 	H 	0.9986	0.8635	0.9077	0.098
Mof_H 	H 	0.7218	0.5359	0.6668	0.01
Mof_H 	H 	0.7286	0.5428	0.7403	0.06
Mof_H 	H 	0.5684	0.5908	0.7636	0.061
Mof_H 	H 	0.2506	0.6806	0.6779	0.068
Mof_H 	H 	0.2058	0.6818	0.605	0.046
Mof_H 	H 	0.3367	0.6242	0.5711	0.012
Mof_H 	H 	0.5084	0.6864	0.7469	0.088
Mof_H 	H 	0.4299	0.7215	0.8049	0.035
Mof_H 	H 	0.1693	0.6411	0.7932	0.045
Mof_H 	H 	0.2385	0.5981	0.737	0.095
Mof_H 	H 	0.3477	0.6523	0.1542	0.016
Mof_H 	H 	0.2502	0.7223	0.119	0.042
Mof_H 	H 	0.275	0.7072	0.0455	0.072
Mof_H 	H 	0.5315	0.5785	0.9653	0.073
Mof_H 	H 	0.6675	0.5141	0.989	0.045
Mof_H 	H 	0.6393	0.5066	0.0627	0.016
Mof_H 	H 	0.2982	0.5856	0.968	0.088
Mof_H 	H 	0.228	0.6233	0.9107	0.037
Mof_H 	H 	0.3846	0.7467	0.9352	-0.004
Mof_H 	H 	0.4454	0.7179	0.9952	0.091
Mof_H 	H 	0.7124	0.5391	0.1431	0.017
Mof_H 	H 	0.7639	0.4559	0.1695	0.062
Mof_H 	H 	0.6028	0.4019	0.1606	0.075
Mof_H 	H 	0.2071	0.4286	0.0976	0.135
Mof_H 	H 	0.1159	0.5042	0.0705	0.039
Mof_H 	H 	0.2455	0.5736	0.0747	0.023
Mof_H 	H 	0.2776	0.4044	0.1762	0.137
Mof_H 	H 	0.2408	0.325	0.1851	0.005
Mof_H 	H 	0.4576	0.2817	0.1068	-0.029
Mof_H 	H 	0.5014	0.3635	0.0923	0.099
Mof_H 	H 	0.7782	0.0359	0.3332	0.01
Mof_H 	H 	0.7714	0.0428	0.2597	0.06
Mof_H 	H 	0.9316	0.0908	0.2364	0.062
Mof_H 	H 	0.2494	0.1806	0.3221	0.068
Mof_H 	H 	0.2942	0.1818	0.395	0.046
Mof_H 	H 	0.1633	0.1242	0.4289	0.012
Mof_H 	H 	0.9916	0.1864	0.2531	0.089
Mof_H 	H 	0.0701	0.2215	0.1951	0.035
Mof_H 	H 	0.3307	0.1411	0.2068	0.044
Mof_H 	H 	0.2615	0.0981	0.263	0.095
Mof_H 	H 	0.1523	0.1523	0.8458	0.016
Mof_H 	H 	0.2498	0.2223	0.881	0.042
Mof_H 	H 	0.225	0.2072	0.9545	0.072
Mof_H 	H 	0.9685	0.0785	0.0347	0.073
Mof_H 	H 	0.8325	0.0141	0.011	0.045
Mof_H 	H 	0.8607	0.0066	0.9373	0.015
Mof_H 	H 	0.2018	0.0856	0.032	0.088
Mof_H 	H 	0.272	0.1233	0.0893	0.037
Mof_H 	H 	0.1154	0.2467	0.0648	-0.004
Mof_H 	H 	0.0546	0.2179	0.0048	0.091
Mof_C 	C 	0.3343	0.511	0.6438	0.03
Mof_C 	C 	0.3042	0.4651	0.6584	-0.03
Mof_C 	C 	0.3925	0.4361	0.6536	-0.117
Mof_C 	C 	0.4726	0.4632	0.6373	0.132
Mof_C 	C 	0.5781	0.4481	0.6258	-0.177
Mof_C 	C 	0.6559	0.4761	0.6083	0.145
Mof_C 	C 	0.7628	0.461	0.5958	-0.137
Mof_C 	C 	0.8124	0.5023	0.5808	-0.003
Mof_C 	C 	0.7395	0.5408	0.5836	0.007
Mof_C 	C 	0.6071	0.3944	0.6333	0.173
Mof_C 	C 	0.6854	0.3802	0.6606	-0.226
Mof_C 	C 	0.7078	0.3331	0.6649	0.206
Mof_C 	C 	0.5821	0.3077	0.6192	0.128
Mof_C 	C 	0.553	0.3559	0.6115	-0.199
Mof_C 	C 	0.1675	0.0517	0.8175	0.063
Mof_C 	C 	0.1725	0.0558	0.7762	-0.062
Mof_C 	C 	0.0844	0.0812	0.7631	-0.076
Mof_C 	C 	0.0192	0.0908	0.7989	0.097
Mof_C 	C 	0.9265	0.117	0.8018	-0.146
Mof_C 	C 	0.8746	0.1283	0.8376	0.113
Mof_C 	C 	0.7858	0.1622	0.8427	-0.096
Mof_C 	C 	0.7616	0.1632	0.8824	-0.045
Mof_C 	C 	0.8355	0.1312	0.901	0.039
Mof_C 	C 	0.8781	0.1402	0.7646	0.128
Mof_C 	C 	0.9388	0.1761	0.744	-0.162
Mof_C 	C 	0.8909	0.1963	0.709	0.081
Mof_C 	C 	0.7404	0.1488	0.7159	0.083
Mof_C 	C 	0.7783	0.124	0.7504	-0.164
Mof_C 	C 	0.8462	0.1572	0.3739	0.029
Mof_C 	C 	0.7899	0.1961	0.3932	-0.033
Mof_C 	C 	0.8049	0.1881	0.4333	-0.114
Mof_C 	C 	0.873	0.1462	0.4374	0.132
Mof_C 	C 	0.9131	0.1269	0.4719	-0.16
Mof_C 	C 	0.9936	0.0858	0.4744	0.125
Mof_C 	C 	0.044	0.0682	0.5078	-0.114
Mof_C 	C 	0.1173	0.0323	0.4951	-0.03
Mof_C 	C 	0.1009	0.0289	0.4543	0.023
Mof_C 	C 	0.8814	0.147	0.5108	0.133
Mof_C 	C 	0.8147	0.1194	0.5375	-0.17
Mof_C 	C 	0.7733	0.1422	0.5721	0.085
Mof_C 	C 	0.8634	0.2142	0.5568	0.093
Mof_C 	C 	0.9035	0.197	0.5217	-0.182
Mof_C 	C 	0.1657	0.011	0.3562	0.03
Mof_C 	C 	0.1958	0.9651	0.3416	-0.03
Mof_C 	C 	0.1075	0.9361	0.3464	-0.116
Mof_C 	C 	0.0274	0.9632	0.3627	0.131
Mof_C 	C 	0.9219	0.9481	0.3742	-0.176
Mof_C 	C 	0.8441	0.9761	0.3917	0.145
Mof_C 	C 	0.7372	0.961	0.4042	-0.137
Mof_C 	C 	0.6876	0.0023	0.4192	-0.004
Mof_C 	C 	0.7605	0.0408	0.4164	0.007
Mof_C 	C 	0.8929	0.8944	0.3667	0.173
Mof_C 	C 	0.8146	0.8802	0.3394	-0.226
Mof_C 	C 	0.7922	0.8331	0.3351	0.206
Mof_C 	C 	0.9179	0.8077	0.3808	0.128
Mof_C 	C 	0.947	0.8559	0.3885	-0.197
Mof_C 	C 	0.3325	0.5517	0.1825	0.063
Mof_C 	C 	0.3275	0.5558	0.2238	-0.062
Mof_C 	C 	0.4156	0.5812	0.2369	-0.076
Mof_C 	C 	0.4808	0.5908	0.2011	0.096
Mof_C 	C 	0.5735	0.617	0.1982	-0.144
Mof_C 	C 	0.6254	0.6283	0.1624	0.113
Mof_C 	C 	0.7142	0.6622	0.1573	-0.096
Mof_C 	C 	0.7384	0.6632	0.1176	-0.045
Mof_C 	C 	0.6645	0.6312	0.099	0.039
Mof_C 	C 	0.6219	0.6402	0.2354	0.127
Mof_C 	C 	0.5612	0.6761	0.256	-0.16
Mof_C 	C 	0.6091	0.6963	0.291	0.08
Mof_C 	C 	0.7596	0.6488	0.2841	0.082
Mof_C 	C 	0.7217	0.624	0.2496	-0.163
Mof_C 	C 	0.6538	0.6572	0.6261	0.029
Mof_C 	C 	0.7101	0.6961	0.6068	-0.033
Mof_C 	C 	0.6951	0.6881	0.5667	-0.114
Mof_C 	C 	0.627	0.6462	0.5626	0.132
Mof_C 	C 	0.5869	0.6269	0.5281	-0.16
Mof_C 	C 	0.5064	0.5858	0.5256	0.125
Mof_C 	C 	0.456	0.5682	0.4922	-0.114
Mof_C 	C 	0.3827	0.5323	0.5049	-0.03
Mof_C 	C 	0.3991	0.5289	0.5457	0.023
Mof_C 	C 	0.6186	0.647	0.4892	0.133
Mof_C 	C 	0.6853	0.6194	0.4625	-0.17
Mof_C 	C 	0.7267	0.6422	0.4279	0.085
Mof_C 	C 	0.6366	0.7142	0.4432	0.093
Mof_C 	C 	0.5965	0.697	0.4783	-0.182
Mof_C 	C 	0.8343	0.011	0.8562	0.03
Mof_C 	C 	0.8042	0.9651	0.8416	-0.03
Mof_C 	C 	0.8925	0.9361	0.8464	-0.116
Mof_C 	C 	0.9726	0.9632	0.8627	0.131
Mof_C 	C 	0.0781	0.9481	0.8742	-0.176
Mof_C 	C 	0.1559	0.9761	0.8917	0.145
Mof_C 	C 	0.2628	0.961	0.9042	-0.137
Mof_C 	C 	0.3124	0.0023	0.9192	-0.004
Mof_C 	C 	0.2395	0.0408	0.9164	0.007
Mof_C 	C 	0.1071	0.8944	0.8667	0.173
Mof_C 	C 	0.1854	0.8802	0.8394	-0.226
Mof_C 	C 	0.2078	0.8331	0.8351	0.206
Mof_C 	C 	0.0821	0.8077	0.8808	0.128
Mof_C 	C 	0.053	0.8559	0.8885	-0.197
Mof_C 	C 	0.6675	0.5517	0.6825	0.063
Mof_C 	C 	0.6725	0.5558	0.7238	-0.062
Mof_C 	C 	0.5844	0.5812	0.7369	-0.076
Mof_C 	C 	0.5192	0.5908	0.7011	0.096
Mof_C 	C 	0.4265	0.617	0.6982	-0.144
Mof_C 	C 	0.3746	0.6283	0.6624	0.113
Mof_C 	C 	0.2858	0.6622	0.6573	-0.096
Mof_C 	C 	0.2616	0.6632	0.6176	-0.045
Mof_C 	C 	0.3355	0.6312	0.599	0.039
Mof_C 	C 	0.3781	0.6402	0.7354	0.127
Mof_C 	C 	0.4388	0.6761	0.756	-0.16
Mof_C 	C 	0.3909	0.6963	0.791	0.08
Mof_C 	C 	0.2404	0.6488	0.7841	0.082
Mof_C 	C 	0.2783	0.624	0.7496	-0.163
Mof_C 	C 	0.3462	0.6572	0.1261	0.029
Mof_C 	C 	0.2899	0.6961	0.1068	-0.033
Mof_C 	C 	0.3049	0.6881	0.0667	-0.114
Mof_C 	C 	0.373	0.6462	0.0626	0.132
Mof_C 	C 	0.4131	0.6269	0.0281	-0.16
Mof_C 	C 	0.4936	0.5858	0.0256	0.125
Mof_C 	C 	0.544	0.5682	0.9922	-0.114
Mof_C 	C 	0.6173	0.5323	0.0049	-0.029
Mof_C 	C 	0.6009	0.5289	0.0457	0.023
Mof_C 	C 	0.3814	0.647	0.9892	0.133
Mof_C 	C 	0.3147	0.6194	0.9625	-0.17
Mof_C 	C 	0.2733	0.6422	0.9279	0.085
Mof_C 	C 	0.3634	0.7142	0.9432	0.093
Mof_C 	C 	0.4035	0.697	0.9783	-0.182
Mof_C 	C 	0.6657	0.511	0.1438	0.03
Mof_C 	C 	0.6958	0.4651	0.1584	-0.03
Mof_C 	C 	0.6075	0.4361	0.1536	-0.117
Mof_C 	C 	0.5274	0.4632	0.1373	0.132
Mof_C 	C 	0.4219	0.4481	0.1258	-0.177
Mof_C 	C 	0.3441	0.4761	0.1083	0.145
Mof_C 	C 	0.2372	0.461	0.0958	-0.137
Mof_C 	C 	0.1876	0.5023	0.0808	-0.003
Mof_C 	C 	0.2605	0.5408	0.0836	0.007
Mof_C 	C 	0.3929	0.3944	0.1333	0.173
Mof_C 	C 	0.3146	0.3802	0.1606	-0.226
Mof_C 	C 	0.2922	0.3331	0.1649	0.206
Mof_C 	C 	0.4179	0.3077	0.1192	0.128
Mof_C 	C 	0.447	0.3559	0.1115	-0.199
Mof_C 	C 	0.8325	0.0517	0.3175	0.063
Mof_C 	C 	0.8275	0.0558	0.2762	-0.062
Mof_C 	C 	0.9156	0.0812	0.2631	-0.076
Mof_C 	C 	0.9808	0.0908	0.2989	0.097
Mof_C 	C 	0.0735	0.117	0.3018	-0.146
Mof_C 	C 	0.1254	0.1283	0.3376	0.113
Mof_C 	C 	0.2142	0.1622	0.3427	-0.096
Mof_C 	C 	0.2384	0.1632	0.3824	-0.045
Mof_C 	C 	0.1645	0.1312	0.401	0.039
Mof_C 	C 	0.1219	0.1402	0.2646	0.128
Mof_C 	C 	0.0612	0.1761	0.244	-0.162
Mof_C 	C 	0.1091	0.1963	0.209	0.081
Mof_C 	C 	0.2596	0.1488	0.2159	0.083
Mof_C 	C 	0.2217	0.124	0.2504	-0.164
Mof_C 	C 	0.1538	0.1572	0.8739	0.029
Mof_C 	C 	0.2101	0.1961	0.8932	-0.033
Mof_C 	C 	0.1951	0.1881	0.9333	-0.114
Mof_C 	C 	0.127	0.1462	0.9374	0.132
Mof_C 	C 	0.0869	0.1269	0.9719	-0.16
Mof_C 	C 	0.0064	0.0858	0.9744	0.125
Mof_C 	C 	0.956	0.0682	0.0078	-0.113
Mof_C 	C 	0.8827	0.0323	0.9951	-0.03
Mof_C 	C 	0.8991	0.0289	0.9543	0.023
Mof_C 	C 	0.1186	0.147	0.0108	0.133
Mof_C 	C 	0.1853	0.1194	0.0375	-0.17
Mof_C 	C 	0.2267	0.1422	0.0721	0.085
Mof_C 	C 	0.1366	0.2142	0.0568	0.093
Mof_C 	C 	0.0965	0.197	0.0217	-0.182
Mof_N 	N 	0.4368	0.5115	0.6307	-0.257
Mof_N 	N 	0.6426	0.5268	0.6006	-0.262
Mof_N 	N 	0.6673	0.2956	0.6444	-0.233
Mof_N 	N 	0.0822	0.0713	0.8321	-0.257
Mof_N 	N 	0.9031	0.1121	0.8748	-0.262
Mof_N 	N 	0.7976	0.183	0.6945	-0.205
Mof_N 	N 	0.8964	0.1284	0.4002	-0.259
Mof_N 	N 	0.0242	0.0609	0.441	-0.26
Mof_N 	N 	0.7942	0.1886	0.5818	-0.21
Mof_N 	N 	0.0632	0.0115	0.3693	-0.257
Mof_N 	N 	0.8574	0.0268	0.3994	-0.262
Mof_N 	N 	0.8327	0.7956	0.3556	-0.233
Mof_N 	N 	0.4178	0.5713	0.1679	-0.257
Mof_N 	N 	0.5969	0.6121	0.1252	-0.262
Mof_N 	N 	0.7024	0.683	0.3055	-0.205
Mof_N 	N 	0.6036	0.6284	0.5998	-0.259
Mof_N 	N 	0.4758	0.5609	0.559	-0.26
Mof_N 	N 	0.7058	0.6886	0.4182	-0.21
Mof_N 	N 	0.9368	0.0115	0.8693	-0.257
Mof_N 	N 	0.1426	0.0268	0.8994	-0.261
Mof_N 	N 	0.1673	0.7956	0.8556	-0.233
Mof_N 	N 	0.5822	0.5713	0.6679	-0.257
Mof_N 	N 	0.4031	0.6121	0.6252	-0.262
Mof_N 	N 	0.2976	0.683	0.8055	-0.205
Mof_N 	N 	0.3964	0.6284	0.0998	-0.259
Mof_N 	N 	0.5242	0.5609	0.059	-0.26
Mof_N 	N 	0.2942	0.6886	0.9182	-0.21
Mof_N 	N 	0.5632	0.5115	0.1307	-0.257
Mof_N 	N 	0.3574	0.5268	0.1006	-0.262
Mof_N 	N 	0.3327	0.2956	0.1444	-0.233
Mof_N 	N 	0.9178	0.0713	0.3321	-0.257
Mof_N 	N 	0.0969	0.1121	0.3748	-0.262
Mof_N 	N 	0.2024	0.183	0.1945	-0.205
Mof_N 	N 	0.1036	0.1284	0.9002	-0.259
Mof_N 	N 	0.9758	0.0609	0.941	-0.26
Mof_N 	N 	0.2058	0.1886	0.0818	-0.21
Mof_Co	Co	0.97664	0.93142	0.11367	1.174
Mof_Co	Co	0.52336	0.43142	0.88633	1.174
Mof_Co	Co	0.47664	0.43142	0.38633	1.174
Mof_Co	Co	0.02336	0.93142	0.61367	1.174
Mof_Ag	Ag	0.7608	0.27881	0.14001	0.866
Mof_Ag	Ag	0.7392	0.77881	0.85999	0.865
Mof_Ag	Ag	0.2608	0.77881	0.35999	0.865
Mof_Ag	Ag	0.2392	0.27881	0.64001	0.866
Mof_H 	H 	0.2124	0.9609	0.1431	0.017
Mof_H 	H 	0.2639	0.0441	0.1695	0.062
Mof_H 	H 	0.1028	0.0981	0.1606	0.074
Mof_H 	H 	0.7071	0.0714	0.0976	0.135
Mof_H 	H 	0.6159	0.9958	0.0705	0.039
Mof_H 	H 	0.7455	0.9264	0.0747	0.023
Mof_H 	H 	0.7776	0.0956	0.1762	0.137
Mof_H 	H 	0.7408	0.175	0.1851	0.005
Mof_H 	H 	0.9576	0.2183	0.1068	-0.028
Mof_H 	H 	0.0014	0.1365	0.0923	0.098
Mof_H 	H 	0.2782	0.4641	0.3332	0.01
Mof_H 	H 	0.2714	0.4572	0.2597	0.06
Mof_H 	H 	0.4316	0.4092	0.2364	0.061
Mof_H 	H 	0.7494	0.3194	0.3221	0.068
Mof_H 	H 	0.7942	0.3182	0.395	0.046
Mof_H 	H 	0.6633	0.3758	0.4289	0.012
Mof_H 	H 	0.4916	0.3136	0.2531	0.088
Mof_H 	H 	0.5701	0.2785	0.1951	0.035
Mof_H 	H 	0.8307	0.3589	0.2068	0.045
Mof_H 	H 	0.7615	0.4019	0.263	0.095
Mof_H 	H 	0.6523	0.3477	0.8458	0.016
Mof_H 	H 	0.7498	0.2777	0.881	0.042
Mof_H 	H 	0.725	0.2928	0.9545	0.072
Mof_H 	H 	0.4685	0.4215	0.0347	0.073
Mof_H 	H 	0.3325	0.4859	0.011	0.045
Mof_H 	H 	0.3607	0.4934	0.9373	0.016
Mof_H 	H 	0.7018	0.4144	0.032	0.088
Mof_H 	H 	0.772	0.3767	0.0893	0.037
Mof_H 	H 	0.6154	0.2533	0.0648	-0.004
Mof_H 	H 	0.5546	0.2821	0.0048	0.091
Mof_H 	H 	0.2876	0.4609	0.8569	0.017
Mof_H 	H 	0.2361	0.5441	0.8305	0.062
Mof_H 	H 	0.3972	0.5981	0.8394	0.075
Mof_H 	H 	0.7929	0.5714	0.9024	0.135
Mof_H 	H 	0.8841	0.4958	0.9295	0.039
Mof_H 	H 	0.7545	0.4264	0.9253	0.023
Mof_H 	H 	0.7224	0.5956	0.8238	0.137
Mof_H 	H 	0.7592	0.675	0.8149	0.005
Mof_H 	H 	0.5424	0.7183	0.8932	-0.029
Mof_H 	H 	0.4986	0.6365	0.9077	0.099
Mof_H 	H 	0.2218	0.9641	0.6668	0.01
Mof_H 	H 	0.2286	0.9572	0.7403	0.06
Mof_H 	H 	0.0684	0.9092	0.7636	0.062
Mof_H 	H 	0.7506	0.8194	0.6779	0.068
Mof_H 	H 	0.7058	0.8182	0.605	0.046
Mof_H 	H 	0.8367	0.8758	0.5711	0.012
Mof_H 	H 	0.0084	0.8136	0.7469	0.089
Mof_H 	H 	0.9299	0.7785	0.8049	0.035
Mof_H 	H 	0.6693	0.8589	0.7932	0.044
Mof_H 	H 	0.7385	0.9019	0.737	0.095
Mof_H 	H 	0.8477	0.8477	0.1542	0.016
Mof_H 	H 	0.7502	0.7777	0.119	0.042
Mof_H 	H 	0.775	0.7928	0.0455	0.072
Mof_H 	H 	0.0315	0.9215	0.9653	0.073
Mof_H 	H 	0.1675	0.9859	0.989	0.045
Mof_H 	H 	0.1393	0.9934	0.0627	0.015
Mof_H 	H 	0.7982	0.9144	0.968	0.088
Mof_H 	H 	0.728	0.8767	0.9107	0.037
Mof_H 	H 	0.8846	0.7533	0.9352	-0.004
Mof_H 	H 	0.9454	0.7821	0.9952	0.091
Mof_H 	H 	0.7124	0.4609	0.3569	0.017
Mof_H 	H 	0.7639	0.5441	0.3305	0.062
Mof_H 	H 	0.6028	0.5981	0.3394	0.075
Mof_H 	H 	0.2071	0.5714	0.4024	0.135
Mof_H 	H 	0.1159	0.4958	0.4295	0.039
Mof_H 	H 	0.2455	0.4264	0.4253	0.023
Mof_H 	H 	0.2776	0.5956	0.3238	0.137
Mof_H 	H 	0.2408	0.675	0.3149	0.005
Mof_H 	H 	0.4576	0.7183	0.3932	-0.029
Mof_H 	H 	0.5014	0.6365	0.4077	0.099
Mof_H 	H 	0.7782	0.9641	0.1668	0.01
Mof_H 	H 	0.7714	0.9572	0.2403	0.06
Mof_H 	H 	0.9316	0.9092	0.2636	0.062
Mof_H 	H 	0.2494	0.8194	0.1779	0.068
Mof_H 	H 	0.2942	0.8182	0.105	0.046
Mof_H 	H 	0.1633	0.8758	0.0711	0.012
Mof_H 	H 	0.9916	0.8136	0.2469	0.089
Mof_H 	H 	0.0701	0.7785	0.3049	0.035
Mof_H 	H 	0.3307	0.8589	0.2932	0.044
Mof_H 	H 	0.2615	0.9019	0.237	0.095
Mof_H 	H 	0.1523	0.8477	0.6542	0.016
Mof_H 	H 	0.2498	0.7777	0.619	0.042
Mof_H 	H 	0.225	0.7928	0.5455	0.072
Mof_H 	H 	0.9685	0.9215	0.4653	0.073
Mof_H 	H 	0.8325	0.9859	0.489	0.045
Mof_H 	H 	0.8607	0.9934	0.5627	0.016
Mof_H 	H 	0.2018	0.9144	0.468	0.088
Mof_H 	H 	0.272	0.8767	0.4107	0.037
Mof_H 	H 	0.1154	0.7533	0.4352	-0.004
Mof_H 	H 	0.0546	0.7821	0.4952	0.091
Mof_H 	H 	0.7876	0.9609	0.6431	0.017
Mof_H 	H 	0.7361	0.0441	0.6695	0.062
Mof_H 	H 	0.8972	0.0981	0.6606	0.074
Mof_H 	H 	0.2929	0.0714	0.5976	0.135
Mof_H 	H 	0.3841	0.9958	0.5705	0.039
Mof_H 	H 	0.2545	0.9264	0.5747	0.023
Mof_H 	H 	0.2224	0.0956	0.6762	0.137
Mof_H 	H 	0.2592	0.175	0.6851	0.005
Mof_H 	H 	0.0424	0.2183	0.6068	-0.028
Mof_H 	H 	0.9986	0.1365	0.5923	0.098
Mof_H 	H 	0.7218	0.4641	0.8332	0.01
Mof_H 	H 	0.7286	0.4572	0.7597	0.06
Mof_H 	H 	0.5684	0.4092	0.7364	0.061
Mof_H 	H 	0.2506	0.3194	0.8221	0.068
Mof_H 	H 	0.2058	0.3182	0.895	0.046
Mof_H 	H 	0.3367	0.3758	0.9289	0.012
Mof_H 	H 	0.5084	0.3136	0.7531	0.088
Mof_H 	H 	0.4299	0.2785	0.6951	0.035
Mof_H 	H 	0.1693	0.3589	0.7068	0.045
Mof_H 	H 	0.2385	0.4019	0.763	0.095
Mof_H 	H 	0.3477	0.3477	0.3458	0.016
Mof_H 	H 	0.2502	0.2777	0.381	0.042
Mof_H 	H 	0.275	0.2928	0.4545	0.072
Mof_H 	H 	0.5315	0.4215	0.5347	0.073
Mof_H 	H 	0.6675	0.4859	0.511	0.045
Mof_H 	H 	0.6393	0.4934	0.4373	0.016
Mof_H 	H 	0.2982	0.4144	0.532	0.088
Mof_H 	H 	0.228	0.3767	0.5893	0.037
Mof_H 	H 	0.3846	0.2533	0.5648	-0.004
Mof_H 	H 	0.4454	0.2821	0.5048	0.091
Mof_C 	C 	0.1657	0.989	0.1438	0.03
Mof_C 	C 	0.1958	0.0349	0.1584	-0.03
Mof_C 	C 	0.1075	0.0639	0.1536	-0.116
Mof_C 	C 	0.0274	0.0368	0.1373	0.131
Mof_C 	C 	0.9219	0.0519	0.1258	-0.176
Mof_C 	C 	0.8441	0.0239	0.1083	0.145
Mof_C 	C 	0.7372	0.039	0.0958	-0.137
Mof_C 	C 	0.6876	0.9977	0.0808	-0.004
Mof_C 	C 	0.7605	0.9592	0.0836	0.007
Mof_C 	C 	0.8929	0.1056	0.1333	0.173
Mof_C 	C 	0.8146	0.1198	0.1606	-0.226
Mof_C 	C 	0.7922	0.1669	0.1649	0.206
Mof_C 	C 	0.9179	0.1923	0.1192	0.128
Mof_C 	C 	0.947	0.1441	0.1115	-0.197
Mof_C 	C 	0.3325	0.4483	0.3175	0.063
Mof_C 	C 	0.3275	0.4442	0.2762	-0.062
Mof_C 	C 	0.4156	0.4188	0.2631	-0.076
Mof_C 	C 	0.4808	0.4092	0.2989	0.096
Mof_C 	C 	0.5735	0.383	0.3018	-0.144
Mof_C 	C 	0.6254	0.3717	0.3376	0.113
Mof_C 	C 	0.7142	0.3378	0.3427	-0.096
Mof_C 	C 	0.7384	0.3368	0.3824	-0.045
Mof_C 	C 	0.6645	0.3688	0.401	0.039
Mof_C 	C 	0.6219	0.3598	0.2646	0.127
Mof_C 	C 	0.5612	0.3239	0.244	-0.16
Mof_C 	C 	0.6091	0.3037	0.209	0.08
Mof_C 	C 	0.7596	0.3512	0.2159	0.082
Mof_C 	C 	0.7217	0.376	0.2504	-0.163
Mof_C 	C 	0.6538	0.3428	0.8739	0.029
Mof_C 	C 	0.7101	0.3039	0.8932	-0.033
Mof_C 	C 	0.6951	0.3119	0.9333	-0.114
Mof_C 	C 	0.627	0.3538	0.9374	0.132
Mof_C 	C 	0.5869	0.3731	0.9719	-0.16
Mof_C 	C 	0.5064	0.4142	0.9744	0.125
Mof_C 	C 	0.456	0.4318	0.0078	-0.114
Mof_C 	C 	0.3827	0.4677	0.9951	-0.029
Mof_C 	C 	0.3991	0.4711	0.9543	0.023
Mof_C 	C 	0.6186	0.353	0.0108	0.133
Mof_C 	C 	0.6853	0.3806	0.0375	-0.17
Mof_C 	C 	0.7267	0.3578	0.0721	0.085
Mof_C 	C 	0.6366	0.2858	0.0568	0.093
Mof_C 	C 	0.5965	0.303	0.0217	-0.182
Mof_C 	C 	0.3343	0.489	0.8562	0.03
Mof_C 	C 	0.3042	0.5349	0.8416	-0.03
Mof_C 	C 	0.3925	0.5639	0.8464	-0.117
Mof_C 	C 	0.4726	0.5368	0.8627	0.132
Mof_C 	C 	0.5781	0.5519	0.8742	-0.177
Mof_C 	C 	0.6559	0.5239	0.8917	0.145
Mof_C 	C 	0.7628	0.539	0.9042	-0.137
Mof_C 	C 	0.8124	0.4977	0.9192	-0.003
Mof_C 	C 	0.7395	0.4592	0.9164	0.007
Mof_C 	C 	0.6071	0.6056	0.8667	0.173
Mof_C 	C 	0.6854	0.6198	0.8394	-0.226
Mof_C 	C 	0.7078	0.6669	0.8351	0.206
Mof_C 	C 	0.5821	0.6923	0.8808	0.128
Mof_C 	C 	0.553	0.6441	0.8885	-0.199
Mof_C 	C 	0.1675	0.9483	0.6825	0.063
Mof_C 	C 	0.1725	0.9442	0.7238	-0.062
Mof_C 	C 	0.0844	0.9188	0.7369	-0.076
Mof_C 	C 	0.0192	0.9092	0.7011	0.097
Mof_C 	C 	0.9265	0.883	0.6982	-0.146
Mof_C 	C 	0.8746	0.8717	0.6624	0.113
Mof_C 	C 	0.7858	0.8378	0.6573	-0.096
Mof_C 	C 	0.7616	0.8368	0.6176	-0.045
Mof_C 	C 	0.8355	0.8688	0.599	0.039
Mof_C 	C 	0.8781	0.8598	0.7354	0.128
Mof_C 	C 	0.9388	0.8239	0.756	-0.162
Mof_C 	C 	0.8909	0.8037	0.791	0.081
Mof_C 	C 	0.7404	0.8512	0.7841	0.083
Mof_C 	C 	0.7783	0.876	0.7496	-0.164
Mof_C 	C 	0.8462	0.8428	0.1261	0.029
Mof_C 	C 	0.7899	0.8039	0.1068	-0.033
Mof_C 	C 	0.8049	0.8119	0.0667	-0.114
Mof_C 	C 	0.873	0.8538	0.0626	0.132
Mof_C 	C 	0.9131	0.8731	0.0281	-0.16
Mof_C 	C 	0.9936	0.9142	0.0256	0.125
Mof_C 	C 	0.044	0.9318	0.9922	-0.113
Mof_C 	C 	0.1173	0.9677	0.0049	-0.03
Mof_C 	C 	0.1009	0.9711	0.0457	0.023
Mof_C 	C 	0.8814	0.853	0.9892	0.133
Mof_C 	C 	0.8147	0.8806	0.9625	-0.17
Mof_C 	C 	0.7733	0.8578	0.9279	0.085
Mof_C 	C 	0.8634	0.7858	0.9432	0.093
Mof_C 	C 	0.9035	0.803	0.9783	-0.182
Mof_C 	C 	0.6657	0.489	0.3562	0.03
Mof_C 	C 	0.6958	0.5349	0.3416	-0.03
Mof_C 	C 	0.6075	0.5639	0.3464	-0.117
Mof_C 	C 	0.5274	0.5368	0.3627	0.132
Mof_C 	C 	0.4219	0.5519	0.3742	-0.177
Mof_C 	C 	0.3441	0.5239	0.3917	0.145
Mof_C 	C 	0.2372	0.539	0.4042	-0.137
Mof_C 	C 	0.1876	0.4977	0.4192	-0.003
Mof_C 	C 	0.2605	0.4592	0.4164	0.007
Mof_C 	C 	0.3929	0.6056	0.3667	0.173
Mof_C 	C 	0.3146	0.6198	0.3394	-0.226
Mof_C 	C 	0.2922	0.6669	0.3351	0.206
Mof_C 	C 	0.4179	0.6923	0.3808	0.128
Mof_C 	C 	0.447	0.6441	0.3885	-0.199
Mof_C 	C 	0.8325	0.9483	0.1825	0.063
Mof_C 	C 	0.8275	0.9442	0.2238	-0.062
Mof_C 	C 	0.9156	0.9188	0.2369	-0.076
Mof_C 	C 	0.9808	0.9092	0.2011	0.097
Mof_C 	C 	0.0735	0.883	0.1982	-0.146
Mof_C 	C 	0.1254	0.8717	0.1624	0.113
Mof_C 	C 	0.2142	0.8378	0.1573	-0.096
Mof_C 	C 	0.2384	0.8368	0.1176	-0.045
Mof_C 	C 	0.1645	0.8688	0.099	0.039
Mof_C 	C 	0.1219	0.8598	0.2354	0.128
Mof_C 	C 	0.0612	0.8239	0.256	-0.162
Mof_C 	C 	0.1091	0.8037	0.291	0.081
Mof_C 	C 	0.2596	0.8512	0.2841	0.083
Mof_C 	C 	0.2217	0.876	0.2496	-0.164
Mof_C 	C 	0.1538	0.8428	0.6261	0.029
Mof_C 	C 	0.2101	0.8039	0.6068	-0.033
Mof_C 	C 	0.1951	0.8119	0.5667	-0.114
Mof_C 	C 	0.127	0.8538	0.5626	0.132
Mof_C 	C 	0.0869	0.8731	0.5281	-0.16
Mof_C 	C 	0.0064	0.9142	0.5256	0.125
Mof_C 	C 	0.956	0.9318	0.4922	-0.114
Mof_C 	C 	0.8827	0.9677	0.5049	-0.03
Mof_C 	C 	0.8991	0.9711	0.5457	0.023
Mof_C 	C 	0.1186	0.853	0.4892	0.133
Mof_C 	C 	0.1853	0.8806	0.4625	-0.17
Mof_C 	C 	0.2267	0.8578	0.4279	0.085
Mof_C 	C 	0.1366	0.7858	0.4432	0.093
Mof_C 	C 	0.0965	0.803	0.4783	-0.182
Mof_C 	C 	0.8343	0.989	0.6438	0.03
Mof_C 	C 	0.8042	0.0349	0.6584	-0.03
Mof_C 	C 	0.8925	0.0639	0.6536	-0.116
Mof_C 	C 	0.9726	0.0368	0.6373	0.131
Mof_C 	C 	0.0781	0.0519	0.6258	-0.176
Mof_C 	C 	0.1559	0.0239	0.6083	0.145
Mof_C 	C 	0.2628	0.039	0.5958	-0.137
Mof_C 	C 	0.3124	0.9977	0.5808	-0.004
Mof_C 	C 	0.2395	0.9592	0.5836	0.007
Mof_C 	C 	0.1071	0.1056	0.6333	0.173
Mof_C 	C 	0.1854	0.1198	0.6606	-0.226
Mof_C 	C 	0.2078	0.1669	0.6649	0.206
Mof_C 	C 	0.0821	0.1923	0.6192	0.128
Mof_C 	C 	0.053	0.1441	0.6115	-0.197
Mof_C 	C 	0.6675	0.4483	0.8175	0.063
Mof_C 	C 	0.6725	0.4442	0.7762	-0.062
Mof_C 	C 	0.5844	0.4188	0.7631	-0.076
Mof_C 	C 	0.5192	0.4092	0.7989	0.096
Mof_C 	C 	0.4265	0.383	0.8018	-0.144
Mof_C 	C 	0.3746	0.3717	0.8376	0.113
Mof_C 	C 	0.2858	0.3378	0.8427	-0.096
Mof_C 	C 	0.2616	0.3368	0.8824	-0.045
Mof_C 	C 	0.3355	0.3688	0.901	0.039
Mof_C 	C 	0.3781	0.3598	0.7646	0.127
Mof_C 	C 	0.4388	0.3239	0.744	-0.16
Mof_C 	C 	0.3909	0.3037	0.709	0.08
Mof_C 	C 	0.2404	0.3512	0.7159	0.082
Mof_C 	C 	0.2783	0.376	0.7504	-0.163
Mof_C 	C 	0.3462	0.3428	0.3739	0.029
Mof_C 	C 	0.2899	0.3039	0.3932	-0.033
Mof_C 	C 	0.3049	0.3119	0.4333	-0.114
Mof_C 	C 	0.373	0.3538	0.4374	0.132
Mof_C 	C 	0.4131	0.3731	0.4719	-0.16
Mof_C 	C 	0.4936	0.4142	0.4744	0.125
Mof_C 	C 	0.544	0.4318	0.5078	-0.114
Mof_C 	C 	0.6173	0.4677	0.4951	-0.03
Mof_C 	C 	0.6009	0.4711	0.4543	0.023
Mof_C 	C 	0.3814	0.353	0.5108	0.133
Mof_C 	C 	0.3147	0.3806	0.5375	-0.17
Mof_C 	C 	0.2733	0.3578	0.5721	0.085
Mof_C 	C 	0.3634	0.2858	0.5568	0.093
Mof_C 	C 	0.4035	0.303	0.5217	-0.182
Mof_N 	N 	0.0632	0.9885	0.1307	-0.257
Mof_N 	N 	0.8574	0.9732	0.1006	-0.261
Mof_N 	N 	0.8327	0.2044	0.1444	-0.233
Mof_N 	N 	0.4178	0.4287	0.3321	-0.257
Mof_N 	N 	0.5969	0.3879	0.3748	-0.262
Mof_N 	N 	0.7024	0.317	0.1945	-0.205
Mof_N 	N 	0.6036	0.3716	0.9002	-0.259
Mof_N 	N 	0.4758	0.4391	0.941	-0.26
Mof_N 	N 	0.7058	0.3114	0.0818	-0.21
Mof_N 	N 	0.4368	0.4885	0.8693	-0.257
Mof_N 	N 	0.6426	0.4732	0.8994	-0.262
Mof_N 	N 	0.6673	0.7044	0.8556	-0.233
Mof_N 	N 	0.0822	0.9287	0.6679	-0.257
Mof_N 	N 	0.9031	0.8879	0.6252	-0.262
Mof_N 	N 	0.7976	0.817	0.8055	-0.205
Mof_N 	N 	0.8964	0.8716	0.0998	-0.259
Mof_N 	N 	0.0242	0.9391	0.059	-0.26
Mof_N 	N 	0.7942	0.8114	0.9182	-0.21
Mof_N 	N 	0.5632	0.4885	0.3693	-0.257
Mof_N 	N 	0.3574	0.4732	0.3994	-0.262
Mof_N 	N 	0.3327	0.7044	0.3556	-0.233
Mof_N 	N 	0.9178	0.9287	0.1679	-0.257
Mof_N 	N 	0.0969	0.8879	0.1252	-0.262
Mof_N 	N 	0.2024	0.817	0.3055	-0.205
Mof_N 	N 	0.1036	0.8716	0.5998	-0.259
Mof_N 	N 	0.9758	0.9391	0.559	-0.26
Mof_N 	N 	0.2058	0.8114	0.4182	-0.21
Mof_N 	N 	0.9368	0.9885	0.6307	-0.257
Mof_N 	N 	0.1426	0.9732	0.6006	-0.262
Mof_N 	N 	0.1673	0.2044	0.6444	-0.233
Mof_N 	N 	0.5822	0.4287	0.8321	-0.257
Mof_N 	N 	0.4031	0.3879	0.8748	-0.262
Mof_N 	N 	0.2976	0.317	0.6945	-0.205
Mof_N 	N 	0.3964	0.3716	0.4002	-0.259
Mof_N 	N 	0.5242	0.4391	0.441	-0.26
Mof_N 	N 	0.2942	0.3114	0.5818	-0.21
Mof_B 	B 	0.486	0.1661	0.6302	3.063
Mof_F 	F 	0.4469	0.2102	0.6472	-1.035
Mof_F 	F 	0.5846	0.152	0.6317	-1.253
Mof_F 	F 	0.4005	0.1536	0.6064	-1.064
Mof_F 	F 	0.4498	0.1349	0.6691	-0.709
Mof_B 	B 	0.014	0.3339	0.1302	3.062
Mof_F 	F 	0.0531	0.2898	0.1472	-1.035
Mof_F 	F 	0.9154	0.348	0.1317	-1.252
Mof_F 	F 	0.0995	0.3464	0.1064	-1.064
Mof_F 	F 	0.0502	0.3651	0.1691	-0.709
Mof_B 	B 	0.486	0.8339	0.8698	3.063
Mof_F 	F 	0.4469	0.7898	0.8528	-1.035
Mof_F 	F 	0.5846	0.848	0.8683	-1.253
Mof_F 	F 	0.4005	0.8464	0.8936	-1.064
Mof_F 	F 	0.4498	0.8651	0.8309	-0.709
Mof_B 	B 	0.014	0.6661	0.3698	3.062
Mof_F 	F 	0.0531	0.7102	0.3528	-1.035
Mof_F 	F 	0.9154	0.652	0.3683	-1.252
Mof_F 	F 	0.0995	0.6536	0.3936	-1.064
Mof_F 	F 	0.0502	0.6349	0.3309	-0.709
Mof_B 	B 	0.514	0.8339	0.3698	3.063
Mof_F 	F 	0.5531	0.7898	0.3528	-1.035
Mof_F 	F 	0.4154	0.848	0.3683	-1.253
Mof_F 	F 	0.5995	0.8464	0.3936	-1.064
Mof_F 	F 	0.5502	0.8651	0.3309	-0.709
Mof_B 	B 	0.986	0.6661	0.8698	3.062
Mof_F 	F 	0.9469	0.7102	0.8528	-1.035
Mof_F 	F 	0.0846	0.652	0.8683	-1.252
Mof_F 	F 	0.9005	0.6536	0.8936	-1.064
Mof_F 	F 	0.9498	0.6349	0.8309	-0.709
Mof_B 	B 	0.514	0.1661	0.1302	3.063
Mof_F 	F 	0.5531	0.2102	0.1472	-1.035
Mof_F 	F 	0.4154	0.152	0.1317	-1.253
Mof_F 	F 	0.5995	0.1536	0.1064	-1.064
Mof_F 	F 	0.5502	0.1349	0.1691	-0.709
Mof_B 	B 	0.986	0.3339	0.6302	3.062
Mof_F 	F 	0.9469	0.2898	0.6472	-1.035
Mof_F 	F 	0.0846	0.348	0.6317	-1.252
Mof_F 	F 	0.9005	0.3464	0.6064	-1.064
Mof_F 	F 	0.9498	0.3651	0.6691	-0.709
_end
