data_functionalizedCrystal
_audit_creation_method	'EQeq! by Chris Wilmer'
_symmetry_space_group_name_H-M	'P1'
_symmetry_Int_Tables_number	1
_symmetry_cell_setting	triclinic
loop_
_symmetry_equiv_pos_as_xyz
  x,y,z
_cell_length_a	17.5311
_cell_length_b	17.5311
_cell_length_c	17.5311
_cell_angle_alpha	62.6884
_cell_angle_beta	62.6884
_cell_angle_gamma	62.6884
loop_
_atom_site_label
_atom_site_type_symbol
_atom_site_fract_x
_atom_site_fract_y
_atom_site_fract_z
_atom_site_charge
Mof_Cu	Cu	0.92272	0.50064	0.50064	0.907
Mof_Cu	Cu	0.50064	0.92272	0.50064	0.907
Mof_Cu	Cu	0.50064	0.50064	0.92272	0.907
Mof_Cu	Cu	0.49936	0.07728	0.49936	0.907
Mof_Cu	Cu	0.07728	0.49936	0.49936	0.907
Mof_Cu	Cu	0.49936	0.49936	0.07728	0.907
Mof_H 	H 	0.0009	0.475	0.7794	0.061
Mof_H 	H 	0.7794	0.0009	0.475	0.061
Mof_H 	H 	0.475	0.7794	0.0009	0.061
Mof_H 	H 	0.525	0.9991	0.2206	0.061
Mof_H 	H 	0.9991	0.2206	0.525	0.061
Mof_H 	H 	0.2206	0.525	0.9991	0.061
Mof_H 	H 	0.9991	0.525	0.2206	0.061
Mof_H 	H 	0.2206	0.9991	0.525	0.061
Mof_H 	H 	0.525	0.2206	0.9991	0.061
Mof_H 	H 	0.475	0.0009	0.7794	0.061
Mof_H 	H 	0.0009	0.7794	0.475	0.061
Mof_H 	H 	0.7794	0.475	0.0009	0.061
Mof_H 	H 	0.7759	0.4713	0.7759	0.053
Mof_H 	H 	0.7759	0.7759	0.4713	0.053
Mof_H 	H 	0.4713	0.7759	0.7759	0.053
Mof_H 	H 	0.5287	0.2241	0.2241	0.053
Mof_H 	H 	0.2241	0.2241	0.5287	0.053
Mof_H 	H 	0.2241	0.5287	0.2241	0.053
Mof_C 	C 	0.93909	0.47699	0.66609	0.356
Mof_C 	C 	0.89506	0.47246	0.76406	-0.075
Mof_C 	C 	0.94007	0.47447	0.80947	-0.026
Mof_C 	C 	0.66609	0.93909	0.47699	0.356
Mof_C 	C 	0.76406	0.89506	0.47246	-0.075
Mof_C 	C 	0.80947	0.94007	0.47447	-0.026
Mof_C 	C 	0.47699	0.66609	0.93909	0.356
Mof_C 	C 	0.47246	0.76406	0.89506	-0.075
Mof_C 	C 	0.47447	0.80947	0.94007	-0.026
Mof_C 	C 	0.52301	0.06091	0.33391	0.356
Mof_C 	C 	0.52754	0.10494	0.23594	-0.075
Mof_C 	C 	0.52553	0.05993	0.19053	-0.026
Mof_C 	C 	0.06091	0.33391	0.52301	0.356
Mof_C 	C 	0.10494	0.23594	0.52754	-0.075
Mof_C 	C 	0.05993	0.19053	0.52553	-0.026
Mof_C 	C 	0.33391	0.52301	0.06091	0.356
Mof_C 	C 	0.23594	0.52754	0.10494	-0.075
Mof_C 	C 	0.19053	0.52553	0.05993	-0.026
Mof_C 	C 	0.06091	0.52301	0.33391	0.356
Mof_C 	C 	0.10494	0.52754	0.23594	-0.075
Mof_C 	C 	0.05993	0.52553	0.19053	-0.026
Mof_C 	C 	0.33391	0.06091	0.52301	0.356
Mof_C 	C 	0.23594	0.10494	0.52754	-0.075
Mof_C 	C 	0.19053	0.05993	0.52553	-0.026
Mof_C 	C 	0.52301	0.33391	0.06091	0.356
Mof_C 	C 	0.52754	0.23594	0.10494	-0.075
Mof_C 	C 	0.52553	0.19053	0.05993	-0.026
Mof_C 	C 	0.47699	0.93909	0.66609	0.356
Mof_C 	C 	0.47246	0.89506	0.76406	-0.075
Mof_C 	C 	0.47447	0.94007	0.80947	-0.026
Mof_C 	C 	0.93909	0.66609	0.47699	0.356
Mof_C 	C 	0.89506	0.76406	0.47246	-0.075
Mof_C 	C 	0.94007	0.80947	0.47447	-0.026
Mof_C 	C 	0.66609	0.47699	0.93909	0.356
Mof_C 	C 	0.76406	0.47246	0.89506	-0.075
Mof_C 	C 	0.80947	0.47447	0.94007	-0.026
Mof_C 	C 	0.80742	0.47192	0.80742	0.024
Mof_C 	C 	0.8989	0.4758	0.8989	0.02
Mof_C 	C 	0.943	0.4833	0.943	-0.017
Mof_C 	C 	0.9789	0.4961	0.9789	0.001
Mof_C 	C 	0.80742	0.80742	0.47192	0.024
Mof_C 	C 	0.8989	0.8989	0.4758	0.02
Mof_C 	C 	0.943	0.943	0.4833	-0.017
Mof_C 	C 	0.9789	0.9789	0.4961	0.001
Mof_C 	C 	0.47192	0.80742	0.80742	0.024
Mof_C 	C 	0.4758	0.8989	0.8989	0.02
Mof_C 	C 	0.4833	0.943	0.943	-0.017
Mof_C 	C 	0.4961	0.9789	0.9789	0.001
Mof_C 	C 	0.52808	0.19258	0.19258	0.024
Mof_C 	C 	0.5242	0.1011	0.1011	0.02
Mof_C 	C 	0.5167	0.057	0.057	-0.017
Mof_C 	C 	0.5039	0.0211	0.0211	0.001
Mof_C 	C 	0.19258	0.19258	0.52808	0.024
Mof_C 	C 	0.1011	0.1011	0.5242	0.02
Mof_C 	C 	0.057	0.057	0.5167	-0.017
Mof_C 	C 	0.0211	0.0211	0.5039	0.001
Mof_C 	C 	0.19258	0.52808	0.19258	0.024
Mof_C 	C 	0.1011	0.5242	0.1011	0.02
Mof_C 	C 	0.057	0.5167	0.057	-0.017
Mof_C 	C 	0.0211	0.5039	0.0211	0.001
Mof_O 	O 	0.01879	0.48054	0.62955	-0.399
Mof_O 	O 	0.89188	0.47816	0.62915	-0.411
Mof_O 	O 	0.62955	0.01879	0.48054	-0.399
Mof_O 	O 	0.62915	0.89188	0.47816	-0.411
Mof_O 	O 	0.48054	0.62955	0.01879	-0.399
Mof_O 	O 	0.47816	0.62915	0.89188	-0.411
Mof_O 	O 	0.51946	0.98121	0.37045	-0.399
Mof_O 	O 	0.52184	0.10812	0.37085	-0.411
Mof_O 	O 	0.98121	0.37045	0.51946	-0.399
Mof_O 	O 	0.10812	0.37085	0.52184	-0.411
Mof_O 	O 	0.37045	0.51946	0.98121	-0.399
Mof_O 	O 	0.37085	0.52184	0.10812	-0.411
Mof_O 	O 	0.98121	0.51946	0.37045	-0.399
Mof_O 	O 	0.10812	0.52184	0.37085	-0.411
Mof_O 	O 	0.37045	0.98121	0.51946	-0.399
Mof_O 	O 	0.37085	0.10812	0.52184	-0.411
Mof_O 	O 	0.51946	0.37045	0.98121	-0.399
Mof_O 	O 	0.52184	0.37085	0.10812	-0.411
Mof_O 	O 	0.48054	0.01879	0.62955	-0.399
Mof_O 	O 	0.47816	0.89188	0.62915	-0.411
Mof_O 	O 	0.01879	0.62955	0.48054	-0.399
Mof_O 	O 	0.89188	0.62915	0.47816	-0.411
Mof_O 	O 	0.62955	0.48054	0.01879	-0.399
Mof_O 	O 	0.62915	0.47816	0.89188	-0.411
_end
