data_functionalizedCrystal
_audit_creation_method	'EQeq! by Chris Wilmer'
_symmetry_space_group_name_H-M	'P1'
_symmetry_Int_Tables_number	1
_symmetry_cell_setting	triclinic
loop_
_symmetry_equiv_pos_as_xyz
  x,y,z
_cell_length_a	17.268
_cell_length_b	15.465
_cell_length_c	17.929
_cell_angle_alpha	90
_cell_angle_beta	90
_cell_angle_gamma	90
loop_
_atom_site_label
_atom_site_type_symbol
_atom_site_fract_x
_atom_site_fract_y
_atom_site_fract_z
_atom_site_charge
Mof_C 	C 	0.7878	0.0307	0.895	0.114
Mof_H 	H 	0.8088	0.9764	0.9043	-0.008
Mof_C 	C 	0.8106	0.0733	0.8313	-0.218
Mof_H 	H 	0.8456	0.0477	0.7985	0.098
Mof_C 	C 	0.7804	0.1561	0.8164	0.198
Mof_C 	C 	0.7295	0.1911	0.8691	-0.22
Mof_H 	H 	0.7091	0.2462	0.8626	0.105
Mof_C 	C 	0.7101	0.1426	0.9309	0.115
Mof_H 	H 	0.6761	0.1669	0.9653	-0.015
Mof_C 	C 	0.6794	0.3719	0.6797	0.119
Mof_H 	H 	0.6304	0.3953	0.6869	-0.02
Mof_C 	C 	0.7016	0.3048	0.7251	-0.219
Mof_H 	H 	0.6683	0.2836	0.7615	0.103
Mof_C 	C 	0.7755	0.269	0.71543	0.199
Mof_C 	C 	0.823	0.306	0.6609	-0.224
Mof_H 	H 	0.8731	0.2856	0.654	0.099
Mof_C 	C 	0.7953	0.3723	0.6177	0.121
Mof_H 	H 	0.8276	0.3952	0.5811	-0.01
Mof_C 	C 	0.8188	0.9181	0.15194	0.119
Mof_H 	H 	0.791	0.9535	0.1842	-0.01
Mof_C 	C 	0.8862	0.882	0.1774	-0.221
Mof_H 	H 	0.9034	0.8937	0.2255	0.1
Mof_C 	C 	0.9294	0.8271	0.1305	0.195
Mof_C 	C 	0.8987	0.8117	0.0588	-0.22
Mof_H 	H 	0.924	0.7749	0.0258	0.103
Mof_C 	C 	0.831	0.8519	0.0384	0.117
Mof_H 	H 	0.8121	0.8415	0.9907	-0.011
Mof_C 	C 	0.1166	0.6954	0.0098	0.12
Mof_H 	H 	0.1309	0.7076	0.9609	-0.02
Mof_C 	C 	0.0701	0.7543	0.0462	-0.232
Mof_H 	H 	0.0548	0.8051	0.0226	0.109
Mof_C 	C 	0.0466	0.7365	0.1185	0.202
Mof_C 	C 	0.0756	0.6626	0.1521	-0.228
Mof_H 	H 	0.0637	0.6502	0.2015	0.104
Mof_C 	C 	0.1224	0.6073	0.1113	0.115
Mof_H 	H 	0.1408	0.5576	0.1344	-0.012
Mof_N 	N 	0.73707	0.06273	0.94482	-0.173
Mof_N 	N 	0.80443	0.197	0.7524	-0.257
Mof_H 	H 	0.8444	0.1741	0.7317	0.123
Mof_N 	N 	0.72368	0.4061	0.62552	-0.177
Mof_N 	N 	0.79029	0.90537	0.08254	-0.174
Mof_N 	N 	0.99541	0.7898	0.15786	-0.259
Mof_H 	H 	0.0065	0.8001	0.2038	0.124
Mof_N 	N 	0.14249	0.622	0.04008	-0.179
Mof_Cd	Cd	0.68298	0.98433	0.04444	0.32
Mof_C 	C 	0.2878	0.4693	0.105	0.118
Mof_H 	H 	0.3088	0.5236	0.0957	-0.013
Mof_C 	C 	0.3106	0.4267	0.1687	-0.222
Mof_H 	H 	0.3456	0.4523	0.2015	0.098
Mof_C 	C 	0.2804	0.3439	0.1836	0.199
Mof_C 	C 	0.2295	0.3089	0.1309	-0.221
Mof_H 	H 	0.2091	0.2538	0.1374	0.105
Mof_C 	C 	0.2101	0.3574	0.0691	0.115
Mof_H 	H 	0.1761	0.3331	0.0347	-0.016
Mof_C 	C 	0.1794	0.1281	0.3203	0.118
Mof_H 	H 	0.1304	0.1047	0.3131	-0.021
Mof_C 	C 	0.2016	0.1952	0.2749	-0.22
Mof_H 	H 	0.1683	0.2164	0.2385	0.102
Mof_C 	C 	0.2755	0.231	0.28457	0.198
Mof_C 	C 	0.323	0.194	0.3391	-0.225
Mof_H 	H 	0.3731	0.2144	0.346	0.098
Mof_C 	C 	0.2953	0.1277	0.3823	0.12
Mof_H 	H 	0.3276	0.1048	0.4189	-0.011
Mof_C 	C 	0.3188	0.5819	0.84806	0.118
Mof_H 	H 	0.291	0.5465	0.8158	-0.011
Mof_C 	C 	0.3862	0.618	0.8226	-0.222
Mof_H 	H 	0.4034	0.6063	0.7745	0.1
Mof_C 	C 	0.4294	0.6729	0.8695	0.196
Mof_C 	C 	0.3987	0.6883	0.9412	-0.222
Mof_H 	H 	0.424	0.7251	0.9742	0.104
Mof_C 	C 	0.331	0.6481	0.9616	0.121
Mof_H 	H 	0.3121	0.6585	0.0093	-0.013
Mof_C 	C 	0.6166	0.8046	0.9902	0.122
Mof_H 	H 	0.6309	0.7924	0.0391	-0.022
Mof_C 	C 	0.5701	0.7457	0.9538	-0.234
Mof_H 	H 	0.5548	0.6949	0.9774	0.11
Mof_C 	C 	0.5466	0.7635	0.8815	0.203
Mof_C 	C 	0.5756	0.8374	0.8479	-0.229
Mof_H 	H 	0.5637	0.8498	0.7985	0.105
Mof_C 	C 	0.6224	0.8927	0.8887	0.115
Mof_H 	H 	0.6408	0.9424	0.8656	-0.012
Mof_N 	N 	0.23707	0.43727	0.05518	-0.174
Mof_N 	N 	0.30443	0.303	0.2476	-0.257
Mof_H 	H 	0.3444	0.3259	0.2683	0.123
Mof_N 	N 	0.22368	0.0939	0.37448	-0.176
Mof_N 	N 	0.29029	0.59463	0.91746	-0.174
Mof_N 	N 	0.49541	0.7102	0.84214	-0.26
Mof_H 	H 	0.5065	0.6999	0.7962	0.125
Mof_N 	N 	0.64249	0.878	0.95992	-0.179
Mof_Cd	Cd	0.18298	0.51567	0.95557	0.32
Mof_C 	C 	0.2878	0.0307	0.605	0.119
Mof_H 	H 	0.3088	0.9764	0.5957	-0.013
Mof_C 	C 	0.3106	0.0733	0.6687	-0.222
Mof_H 	H 	0.3456	0.0477	0.7015	0.099
Mof_C 	C 	0.2804	0.1561	0.6836	0.199
Mof_C 	C 	0.2295	0.1911	0.6309	-0.222
Mof_H 	H 	0.2091	0.2462	0.6374	0.105
Mof_C 	C 	0.2101	0.1426	0.5691	0.115
Mof_H 	H 	0.1761	0.1669	0.5347	-0.016
Mof_C 	C 	0.1794	0.3719	0.8203	0.118
Mof_H 	H 	0.1304	0.3953	0.8131	-0.021
Mof_C 	C 	0.2016	0.3048	0.7749	-0.22
Mof_H 	H 	0.1683	0.2836	0.7385	0.102
Mof_C 	C 	0.2755	0.269	0.78457	0.198
Mof_C 	C 	0.323	0.306	0.8391	-0.225
Mof_H 	H 	0.3731	0.2856	0.846	0.098
Mof_C 	C 	0.2953	0.3723	0.8823	0.12
Mof_H 	H 	0.3276	0.3952	0.9189	-0.012
Mof_C 	C 	0.3188	0.9181	0.34806	0.118
Mof_H 	H 	0.291	0.9535	0.3158	-0.011
Mof_C 	C 	0.3862	0.882	0.3226	-0.222
Mof_H 	H 	0.4034	0.8937	0.2745	0.1
Mof_C 	C 	0.4294	0.8271	0.3695	0.196
Mof_C 	C 	0.3987	0.8117	0.4412	-0.221
Mof_H 	H 	0.424	0.7749	0.4742	0.104
Mof_C 	C 	0.331	0.8519	0.4616	0.12
Mof_H 	H 	0.3121	0.8415	0.5093	-0.013
Mof_C 	C 	0.6166	0.6954	0.4902	0.12
Mof_H 	H 	0.6309	0.7076	0.5391	-0.02
Mof_C 	C 	0.5701	0.7543	0.4538	-0.232
Mof_H 	H 	0.5548	0.8051	0.4774	0.109
Mof_C 	C 	0.5466	0.7365	0.3815	0.202
Mof_C 	C 	0.5756	0.6626	0.3479	-0.229
Mof_H 	H 	0.5637	0.6502	0.2985	0.104
Mof_C 	C 	0.6224	0.6073	0.3887	0.115
Mof_H 	H 	0.6408	0.5576	0.3656	-0.012
Mof_N 	N 	0.23707	0.06273	0.55518	-0.174
Mof_N 	N 	0.30443	0.197	0.7476	-0.257
Mof_H 	H 	0.3444	0.1741	0.7683	0.123
Mof_N 	N 	0.22368	0.4061	0.87448	-0.177
Mof_N 	N 	0.29029	0.90537	0.41746	-0.174
Mof_N 	N 	0.49541	0.7898	0.34214	-0.26
Mof_H 	H 	0.5065	0.8001	0.2962	0.125
Mof_N 	N 	0.64249	0.622	0.45992	-0.179
Mof_Cd	Cd	0.18298	0.98433	0.45557	0.32
Mof_C 	C 	0.7878	0.4693	0.395	0.118
Mof_H 	H 	0.8088	0.5236	0.4043	-0.013
Mof_C 	C 	0.8106	0.4267	0.3313	-0.222
Mof_H 	H 	0.8456	0.4523	0.2985	0.098
Mof_C 	C 	0.7804	0.3439	0.3164	0.199
Mof_C 	C 	0.7295	0.3089	0.3691	-0.221
Mof_H 	H 	0.7091	0.2538	0.3626	0.104
Mof_C 	C 	0.7101	0.3574	0.4309	0.115
Mof_H 	H 	0.6761	0.3331	0.4653	-0.016
Mof_C 	C 	0.6794	0.1281	0.1797	0.118
Mof_H 	H 	0.6304	0.1047	0.1869	-0.021
Mof_C 	C 	0.7016	0.1952	0.2251	-0.22
Mof_H 	H 	0.6683	0.2164	0.2615	0.102
Mof_C 	C 	0.7755	0.231	0.21543	0.198
Mof_C 	C 	0.823	0.194	0.1609	-0.225
Mof_H 	H 	0.8731	0.2144	0.154	0.098
Mof_C 	C 	0.7953	0.1277	0.1177	0.12
Mof_H 	H 	0.8276	0.1048	0.0811	-0.011
Mof_C 	C 	0.8188	0.5819	0.65194	0.118
Mof_H 	H 	0.791	0.5465	0.6842	-0.011
Mof_C 	C 	0.8862	0.618	0.6774	-0.221
Mof_H 	H 	0.9034	0.6063	0.7255	0.1
Mof_C 	C 	0.9294	0.6729	0.6305	0.196
Mof_C 	C 	0.8987	0.6883	0.5588	-0.221
Mof_H 	H 	0.924	0.7251	0.5258	0.104
Mof_C 	C 	0.831	0.6481	0.5384	0.12
Mof_H 	H 	0.8121	0.6585	0.4907	-0.013
Mof_C 	C 	0.1166	0.8046	0.5098	0.12
Mof_H 	H 	0.1309	0.7924	0.4609	-0.02
Mof_C 	C 	0.0701	0.7457	0.5462	-0.232
Mof_H 	H 	0.0548	0.6949	0.5226	0.109
Mof_C 	C 	0.0466	0.7635	0.6185	0.201
Mof_C 	C 	0.0756	0.8374	0.6521	-0.228
Mof_H 	H 	0.0637	0.8498	0.7015	0.104
Mof_C 	C 	0.1224	0.8927	0.6113	0.115
Mof_H 	H 	0.1408	0.9424	0.6344	-0.012
Mof_N 	N 	0.73707	0.43727	0.44482	-0.174
Mof_N 	N 	0.80443	0.303	0.2524	-0.257
Mof_H 	H 	0.8444	0.3259	0.2317	0.123
Mof_N 	N 	0.72368	0.0939	0.12552	-0.177
Mof_N 	N 	0.79029	0.59463	0.58254	-0.174
Mof_N 	N 	0.99541	0.7102	0.65786	-0.258
Mof_H 	H 	0.0065	0.6999	0.7038	0.124
Mof_N 	N 	0.14249	0.878	0.54008	-0.179
Mof_Cd	Cd	0.68298	0.51567	0.54444	0.321
Mof_C 	C 	0.7122	0.9693	0.395	0.119
Mof_H 	H 	0.6912	0.0236	0.4043	-0.013
Mof_C 	C 	0.6894	0.9267	0.3313	-0.222
Mof_H 	H 	0.6544	0.9523	0.2985	0.099
Mof_C 	C 	0.7196	0.8439	0.3164	0.199
Mof_C 	C 	0.7705	0.8089	0.3691	-0.222
Mof_H 	H 	0.7909	0.7538	0.3626	0.105
Mof_C 	C 	0.7899	0.8574	0.4309	0.115
Mof_H 	H 	0.8239	0.8331	0.4653	-0.016
Mof_C 	C 	0.8206	0.6281	0.1797	0.118
Mof_H 	H 	0.8696	0.6047	0.1869	-0.022
Mof_C 	C 	0.7984	0.6952	0.2251	-0.22
Mof_H 	H 	0.8317	0.7164	0.2615	0.102
Mof_C 	C 	0.7245	0.731	0.21543	0.198
Mof_C 	C 	0.677	0.694	0.1609	-0.225
Mof_H 	H 	0.6269	0.7144	0.154	0.098
Mof_C 	C 	0.7047	0.6277	0.1177	0.12
Mof_H 	H 	0.6724	0.6048	0.0811	-0.012
Mof_C 	C 	0.6812	0.0819	0.65194	0.118
Mof_H 	H 	0.709	0.0465	0.6842	-0.011
Mof_C 	C 	0.6138	0.118	0.6774	-0.222
Mof_H 	H 	0.5966	0.1063	0.7255	0.1
Mof_C 	C 	0.5706	0.1729	0.6305	0.196
Mof_C 	C 	0.6013	0.1883	0.5588	-0.221
Mof_H 	H 	0.576	0.2251	0.5258	0.104
Mof_C 	C 	0.669	0.1481	0.5384	0.12
Mof_H 	H 	0.6879	0.1585	0.4907	-0.013
Mof_C 	C 	0.3834	0.3046	0.5098	0.12
Mof_H 	H 	0.3691	0.2924	0.4609	-0.02
Mof_C 	C 	0.4299	0.2457	0.5462	-0.232
Mof_H 	H 	0.4452	0.1949	0.5226	0.109
Mof_C 	C 	0.4534	0.2635	0.6185	0.202
Mof_C 	C 	0.4244	0.3374	0.6521	-0.229
Mof_H 	H 	0.4363	0.3498	0.7015	0.104
Mof_C 	C 	0.3776	0.3927	0.6113	0.115
Mof_H 	H 	0.3592	0.4424	0.6344	-0.012
Mof_N 	N 	0.76293	0.93727	0.44482	-0.174
Mof_N 	N 	0.69557	0.803	0.2524	-0.257
Mof_H 	H 	0.6556	0.8259	0.2317	0.123
Mof_N 	N 	0.77632	0.5939	0.12552	-0.177
Mof_N 	N 	0.70971	0.09463	0.58254	-0.174
Mof_N 	N 	0.50459	0.2102	0.65786	-0.26
Mof_H 	H 	0.4935	0.1999	0.7038	0.125
Mof_N 	N 	0.35751	0.378	0.54008	-0.179
Mof_Cd	Cd	0.81702	0.01567	0.54444	0.32
Mof_C 	C 	0.2122	0.5307	0.605	0.118
Mof_H 	H 	0.1912	0.4764	0.5957	-0.013
Mof_C 	C 	0.1894	0.5733	0.6687	-0.222
Mof_H 	H 	0.1544	0.5477	0.7015	0.098
Mof_C 	C 	0.2196	0.6561	0.6836	0.199
Mof_C 	C 	0.2705	0.6911	0.6309	-0.221
Mof_H 	H 	0.2909	0.7462	0.6374	0.104
Mof_C 	C 	0.2899	0.6426	0.5691	0.115
Mof_H 	H 	0.3239	0.6669	0.5347	-0.016
Mof_C 	C 	0.3206	0.8719	0.8203	0.118
Mof_H 	H 	0.3696	0.8953	0.8131	-0.021
Mof_C 	C 	0.2984	0.8048	0.7749	-0.22
Mof_H 	H 	0.3317	0.7836	0.7385	0.102
Mof_C 	C 	0.2245	0.769	0.78457	0.198
Mof_C 	C 	0.177	0.806	0.8391	-0.225
Mof_H 	H 	0.1269	0.7856	0.846	0.098
Mof_C 	C 	0.2047	0.8723	0.8823	0.12
Mof_H 	H 	0.1724	0.8952	0.9189	-0.011
Mof_C 	C 	0.1812	0.4181	0.34806	0.118
Mof_H 	H 	0.209	0.4535	0.3158	-0.011
Mof_C 	C 	0.1138	0.382	0.3226	-0.221
Mof_H 	H 	0.0966	0.3937	0.2745	0.1
Mof_C 	C 	0.0706	0.3271	0.3695	0.196
Mof_C 	C 	0.1013	0.3117	0.4412	-0.221
Mof_H 	H 	0.076	0.2749	0.4742	0.104
Mof_C 	C 	0.169	0.3519	0.4616	0.12
Mof_H 	H 	0.1879	0.3415	0.5093	-0.013
Mof_C 	C 	0.8834	0.1954	0.4902	0.12
Mof_H 	H 	0.8691	0.2076	0.5391	-0.02
Mof_C 	C 	0.9299	0.2543	0.4538	-0.232
Mof_H 	H 	0.9452	0.3051	0.4774	0.109
Mof_C 	C 	0.9534	0.2365	0.3815	0.201
Mof_C 	C 	0.9244	0.1626	0.3479	-0.228
Mof_H 	H 	0.9363	0.1502	0.2985	0.104
Mof_C 	C 	0.8776	0.1073	0.3887	0.115
Mof_H 	H 	0.8592	0.0576	0.3656	-0.012
Mof_N 	N 	0.26293	0.56273	0.55518	-0.174
Mof_N 	N 	0.19557	0.697	0.7476	-0.257
Mof_H 	H 	0.1556	0.6741	0.7683	0.123
Mof_N 	N 	0.27632	0.9061	0.87448	-0.177
Mof_N 	N 	0.20971	0.40537	0.41746	-0.174
Mof_N 	N 	0.00459	0.2898	0.34214	-0.258
Mof_H 	H 	0.9935	0.3001	0.2962	0.124
Mof_N 	N 	0.85751	0.122	0.45992	-0.179
Mof_Cd	Cd	0.31702	0.48433	0.45557	0.321
Mof_C 	C 	0.2122	0.9693	0.105	0.113
Mof_H 	H 	0.1912	0.0236	0.0957	-0.009
Mof_C 	C 	0.1894	0.9267	0.1687	-0.219
Mof_H 	H 	0.1544	0.9523	0.2015	0.097
Mof_C 	C 	0.2196	0.8439	0.1836	0.197
Mof_C 	C 	0.2705	0.8089	0.1309	-0.221
Mof_H 	H 	0.2909	0.7538	0.1374	0.104
Mof_C 	C 	0.2899	0.8574	0.0691	0.114
Mof_H 	H 	0.3239	0.8331	0.0347	-0.016
Mof_C 	C 	0.3206	0.6281	0.3203	0.118
Mof_H 	H 	0.3696	0.6047	0.3131	-0.021
Mof_C 	C 	0.2984	0.6952	0.2749	-0.22
Mof_H 	H 	0.3317	0.7164	0.2385	0.102
Mof_C 	C 	0.2245	0.731	0.28457	0.198
Mof_C 	C 	0.177	0.694	0.3391	-0.225
Mof_H 	H 	0.1269	0.7144	0.346	0.098
Mof_C 	C 	0.2047	0.6277	0.3823	0.12
Mof_H 	H 	0.1724	0.6048	0.4189	-0.011
Mof_C 	C 	0.1812	0.0819	0.84806	0.118
Mof_H 	H 	0.209	0.0465	0.8158	-0.01
Mof_C 	C 	0.1138	0.118	0.8226	-0.221
Mof_H 	H 	0.0966	0.1063	0.7745	0.1
Mof_C 	C 	0.0706	0.1729	0.8695	0.195
Mof_C 	C 	0.1013	0.1883	0.9412	-0.22
Mof_H 	H 	0.076	0.2251	0.9742	0.103
Mof_C 	C 	0.169	0.1481	0.9616	0.117
Mof_H 	H 	0.1879	0.1585	0.0093	-0.011
Mof_C 	C 	0.8834	0.3046	0.9902	0.12
Mof_H 	H 	0.8691	0.2924	0.0391	-0.02
Mof_C 	C 	0.9299	0.2457	0.9538	-0.232
Mof_H 	H 	0.9452	0.1949	0.9774	0.109
Mof_C 	C 	0.9534	0.2635	0.8815	0.202
Mof_C 	C 	0.9244	0.3374	0.8479	-0.228
Mof_H 	H 	0.9363	0.3498	0.7985	0.104
Mof_C 	C 	0.8776	0.3927	0.8887	0.115
Mof_H 	H 	0.8592	0.4424	0.8656	-0.012
Mof_N 	N 	0.26293	0.93727	0.05518	-0.173
Mof_N 	N 	0.19557	0.803	0.2476	-0.257
Mof_H 	H 	0.1556	0.8259	0.2683	0.123
Mof_N 	N 	0.27632	0.5939	0.37448	-0.177
Mof_N 	N 	0.20971	0.09463	0.91746	-0.174
Mof_N 	N 	0.00459	0.2102	0.84214	-0.259
Mof_H 	H 	0.9935	0.1999	0.7962	0.124
Mof_N 	N 	0.85751	0.378	0.95992	-0.179
Mof_Cd	Cd	0.31702	0.01567	0.95557	0.32
Mof_C 	C 	0.7122	0.5307	0.895	0.118
Mof_H 	H 	0.6912	0.4764	0.9043	-0.013
Mof_C 	C 	0.6894	0.5733	0.8313	-0.222
Mof_H 	H 	0.6544	0.5477	0.7985	0.098
Mof_C 	C 	0.7196	0.6561	0.8164	0.199
Mof_C 	C 	0.7705	0.6911	0.8691	-0.221
Mof_H 	H 	0.7909	0.7462	0.8626	0.105
Mof_C 	C 	0.7899	0.6426	0.9309	0.115
Mof_H 	H 	0.8239	0.6669	0.9653	-0.016
Mof_C 	C 	0.8206	0.8719	0.6797	0.118
Mof_H 	H 	0.8696	0.8953	0.6869	-0.021
Mof_C 	C 	0.7984	0.8048	0.7251	-0.22
Mof_H 	H 	0.8317	0.7836	0.7615	0.102
Mof_C 	C 	0.7245	0.769	0.71543	0.198
Mof_C 	C 	0.677	0.806	0.6609	-0.225
Mof_H 	H 	0.6269	0.7856	0.654	0.098
Mof_C 	C 	0.7047	0.8723	0.6177	0.12
Mof_H 	H 	0.6724	0.8952	0.5811	-0.011
Mof_C 	C 	0.6812	0.4181	0.15194	0.118
Mof_H 	H 	0.709	0.4535	0.1842	-0.011
Mof_C 	C 	0.6138	0.382	0.1774	-0.222
Mof_H 	H 	0.5966	0.3937	0.2255	0.1
Mof_C 	C 	0.5706	0.3271	0.1305	0.196
Mof_C 	C 	0.6013	0.3117	0.0588	-0.222
Mof_H 	H 	0.576	0.2749	0.0258	0.104
Mof_C 	C 	0.669	0.3519	0.0384	0.121
Mof_H 	H 	0.6879	0.3415	0.9907	-0.013
Mof_C 	C 	0.3834	0.1954	0.0098	0.122
Mof_H 	H 	0.3691	0.2076	0.9609	-0.022
Mof_C 	C 	0.4299	0.2543	0.0462	-0.234
Mof_H 	H 	0.4452	0.3051	0.0226	0.11
Mof_C 	C 	0.4534	0.2365	0.1185	0.203
Mof_C 	C 	0.4244	0.1626	0.1521	-0.229
Mof_H 	H 	0.4363	0.1502	0.2015	0.105
Mof_C 	C 	0.3776	0.1073	0.1113	0.115
Mof_H 	H 	0.3592	0.0576	0.1344	-0.012
Mof_N 	N 	0.76293	0.56273	0.94482	-0.174
Mof_N 	N 	0.69557	0.697	0.7524	-0.257
Mof_H 	H 	0.6556	0.6741	0.7317	0.123
Mof_N 	N 	0.77632	0.9061	0.62552	-0.176
Mof_N 	N 	0.70971	0.40537	0.08254	-0.174
Mof_N 	N 	0.50459	0.2898	0.15786	-0.26
Mof_H 	H 	0.4935	0.3001	0.2038	0.125
Mof_N 	N 	0.35751	0.122	0.04008	-0.179
Mof_Cd	Cd	0.81702	0.48433	0.04444	0.32
_end
