data_functionalizedCrystal
_audit_creation_method	'EQeq! by Chris Wilmer'
_symmetry_space_group_name_H-M	'P1'
_symmetry_Int_Tables_number	1
_symmetry_cell_setting	triclinic
loop_
_symmetry_equiv_pos_as_xyz
  x,y,z
_cell_length_a	15.142
_cell_length_b	22.235
_cell_length_c	34.53
_cell_angle_alpha	90
_cell_angle_beta	90
_cell_angle_gamma	90
loop_
_atom_site_label
_atom_site_type_symbol
_atom_site_fract_x
_atom_site_fract_y
_atom_site_fract_z
_atom_site_charge
Mof_O 	O 	0.7425	0.1652	0.79573	-0.495
Mof_O 	O 	0.6094	0.1955	0.7835	-0.555
Mof_O 	O 	0.8967	0.3045	0.6267	-0.485
Mof_O 	O 	0.7629	0.3326	0.6127	-0.506
Mof_C 	C 	0.8159	0.305	0.6343	0.305
Mof_C 	C 	0.7832	0.2678	0.6687	0.009
Mof_C 	C 	0.8391	0.2416	0.6935	-0.063
Mof_C 	C 	0.6959	0.2742	0.6783	-0.003
Mof_H 	H 	0.8992	0.2403	0.688	0.032
Mof_C 	C 	0.8076	0.2165	0.7273	0.026
Mof_C 	C 	0.6619	0.2468	0.7114	0.203
Mof_H 	H 	0.659	0.2971	0.6625	0.035
Mof_C 	C 	0.7178	0.2154	0.736	-0.009
Mof_H 	H 	0.8475	0.1999	0.7448	0.014
Mof_N 	N 	0.5725	0.2553	0.7164	-0.238
Mof_C 	C 	0.6897	0.1944	0.7742	0.347
Mof_H 	H 	0.5428	0.2755	0.6996	0.12
Mof_H 	H 	0.5463	0.2405	0.7363	0.121
Mof_C 	C 	0.775	0.4809	0.4908	-0.112
Mof_C 	C 	0.7177	0.5346	0.4228	-0.02
Mof_H 	H 	0.6053	0.4816	0.4341	0.038
Mof_C 	C 	0.8308	0.5193	0.4694	-0.049
Mof_C 	C 	0.8002	0.546	0.4363	-0.096
Mof_H 	H 	0.8366	0.5723	0.4227	0.068
Mof_H 	H 	0.6573	0.4397	0.4911	0.027
Mof_N 	N 	0.9101	0.5395	0.4815	-0.178
Mof_H 	H 	0.9371	0.567	0.4685	0.107
Mof_H 	H 	0.9338	0.525	0.5021	0.105
Mof_O 	O 	0.7425	0.6652	0.29573	-0.496
Mof_O 	O 	0.6094	0.6955	0.2835	-0.556
Mof_O 	O 	0.8967	0.8045	0.1267	-0.486
Mof_O 	O 	0.7629	0.8326	0.1127	-0.507
Mof_C 	C 	0.8159	0.805	0.1343	0.304
Mof_C 	C 	0.7832	0.7678	0.1687	0.008
Mof_C 	C 	0.8391	0.7416	0.1935	-0.064
Mof_C 	C 	0.6959	0.7742	0.1783	-0.004
Mof_H 	H 	0.8992	0.7403	0.188	0.031
Mof_C 	C 	0.8076	0.7165	0.2273	0.025
Mof_C 	C 	0.6619	0.7468	0.2114	0.202
Mof_H 	H 	0.659	0.7971	0.1625	0.033
Mof_C 	C 	0.7178	0.7154	0.236	-0.009
Mof_H 	H 	0.8475	0.6999	0.2448	0.014
Mof_N 	N 	0.5725	0.7553	0.2164	-0.238
Mof_C 	C 	0.6897	0.6944	0.2742	0.347
Mof_H 	H 	0.5428	0.7755	0.1996	0.12
Mof_H 	H 	0.5463	0.7405	0.2363	0.121
Mof_C 	C 	0.775	0.9809	0.9908	-0.115
Mof_C 	C 	0.7177	0.0346	0.9228	-0.021
Mof_H 	H 	0.6053	0.9816	0.9341	0.038
Mof_C 	C 	0.8308	0.0193	0.9694	-0.059
Mof_C 	C 	0.8002	0.046	0.9363	-0.1
Mof_H 	H 	0.8366	0.0723	0.9227	0.07
Mof_H 	H 	0.6573	0.9397	0.9911	0.027
Mof_N 	N 	0.9101	0.0395	0.9815	-0.175
Mof_H 	H 	0.9371	0.067	0.9685	0.107
Mof_H 	H 	0.9338	0.025	0.0021	0.104
Mof_O 	O 	0.2425	0.1652	0.29573	-0.496
Mof_O 	O 	0.1094	0.1955	0.2835	-0.556
Mof_O 	O 	0.3967	0.3045	0.1267	-0.486
Mof_O 	O 	0.2629	0.3326	0.1127	-0.507
Mof_C 	C 	0.3159	0.305	0.1343	0.304
Mof_C 	C 	0.2832	0.2678	0.1687	0.008
Mof_C 	C 	0.3391	0.2416	0.1935	-0.064
Mof_C 	C 	0.1959	0.2742	0.1783	-0.003
Mof_H 	H 	0.3992	0.2403	0.188	0.031
Mof_C 	C 	0.3076	0.2165	0.2273	0.025
Mof_C 	C 	0.1619	0.2468	0.2114	0.203
Mof_H 	H 	0.159	0.2971	0.1625	0.033
Mof_C 	C 	0.2178	0.2154	0.236	-0.008
Mof_H 	H 	0.3475	0.1999	0.2448	0.014
Mof_N 	N 	0.0725	0.2553	0.2164	-0.238
Mof_C 	C 	0.1897	0.1944	0.2742	0.347
Mof_H 	H 	0.0428	0.2755	0.1996	0.12
Mof_H 	H 	0.0463	0.2405	0.2363	0.121
Mof_C 	C 	0.275	0.4809	0.9908	-0.112
Mof_C 	C 	0.2177	0.5346	0.9228	-0.02
Mof_H 	H 	0.1053	0.4816	0.9341	0.038
Mof_C 	C 	0.3308	0.5193	0.9694	-0.049
Mof_C 	C 	0.3002	0.546	0.9363	-0.096
Mof_H 	H 	0.3366	0.5723	0.9227	0.068
Mof_H 	H 	0.1573	0.4397	0.9911	0.027
Mof_N 	N 	0.4101	0.5395	0.9815	-0.178
Mof_H 	H 	0.4371	0.567	0.9685	0.107
Mof_H 	H 	0.4338	0.525	0.0021	0.105
Mof_O 	O 	0.2425	0.6652	0.79573	-0.496
Mof_O 	O 	0.1094	0.6955	0.7835	-0.556
Mof_O 	O 	0.3967	0.8045	0.6267	-0.486
Mof_O 	O 	0.2629	0.8326	0.6127	-0.507
Mof_C 	C 	0.3159	0.805	0.6343	0.304
Mof_C 	C 	0.2832	0.7678	0.6687	0.008
Mof_C 	C 	0.3391	0.7416	0.6935	-0.064
Mof_C 	C 	0.1959	0.7742	0.6783	-0.004
Mof_H 	H 	0.3992	0.7403	0.688	0.031
Mof_C 	C 	0.3076	0.7165	0.7273	0.025
Mof_C 	C 	0.1619	0.7468	0.7114	0.202
Mof_H 	H 	0.159	0.7971	0.6625	0.034
Mof_C 	C 	0.2178	0.7154	0.736	-0.009
Mof_H 	H 	0.3475	0.6999	0.7448	0.014
Mof_N 	N 	0.0725	0.7553	0.7164	-0.238
Mof_C 	C 	0.1897	0.6944	0.7742	0.347
Mof_H 	H 	0.0428	0.7755	0.6996	0.12
Mof_H 	H 	0.0463	0.7405	0.7363	0.121
Mof_C 	C 	0.275	0.9809	0.4908	-0.112
Mof_C 	C 	0.2177	0.0346	0.4228	-0.02
Mof_H 	H 	0.1053	0.9816	0.4341	0.038
Mof_C 	C 	0.3308	0.0193	0.4694	-0.047
Mof_C 	C 	0.3002	0.046	0.4363	-0.096
Mof_H 	H 	0.3366	0.0723	0.4227	0.067
Mof_H 	H 	0.1573	0.9397	0.4911	0.027
Mof_N 	N 	0.4101	0.0395	0.4815	-0.178
Mof_H 	H 	0.4371	0.067	0.4685	0.108
Mof_H 	H 	0.4338	0.025	0.5021	0.105
Mof_O 	O 	0.0075	0.5848	0.79573	-0.496
Mof_O 	O 	0.1406	0.5545	0.7835	-0.556
Mof_O 	O 	0.8533	0.4455	0.6267	-0.486
Mof_O 	O 	0.9871	0.4174	0.6127	-0.507
Mof_C 	C 	0.9341	0.445	0.6343	0.304
Mof_C 	C 	0.9668	0.4822	0.6687	0.008
Mof_C 	C 	0.9109	0.5084	0.6935	-0.064
Mof_C 	C 	0.0541	0.4758	0.6783	-0.004
Mof_H 	H 	0.8508	0.5097	0.688	0.031
Mof_C 	C 	0.9424	0.5335	0.7273	0.025
Mof_C 	C 	0.0881	0.5032	0.7114	0.202
Mof_H 	H 	0.091	0.4529	0.6625	0.034
Mof_C 	C 	0.0322	0.5346	0.736	-0.009
Mof_H 	H 	0.9025	0.5501	0.7448	0.014
Mof_N 	N 	0.1775	0.4947	0.7164	-0.238
Mof_C 	C 	0.0603	0.5556	0.7742	0.347
Mof_H 	H 	0.2072	0.4745	0.6996	0.12
Mof_H 	H 	0.2037	0.5095	0.7363	0.121
Mof_C 	C 	0.975	0.2691	0.4908	-0.112
Mof_C 	C 	0.0323	0.2154	0.4228	-0.02
Mof_H 	H 	0.1447	0.2684	0.4341	0.038
Mof_C 	C 	0.9192	0.2307	0.4694	-0.049
Mof_C 	C 	0.9498	0.204	0.4363	-0.096
Mof_H 	H 	0.9134	0.1777	0.4227	0.068
Mof_H 	H 	0.0927	0.3103	0.4911	0.027
Mof_N 	N 	0.8399	0.2105	0.4815	-0.178
Mof_H 	H 	0.8129	0.183	0.4685	0.107
Mof_H 	H 	0.8162	0.225	0.5021	0.105
Mof_O 	O 	0.0075	0.0848	0.29573	-0.496
Mof_O 	O 	0.1406	0.0545	0.2835	-0.556
Mof_O 	O 	0.8533	0.9455	0.1267	-0.486
Mof_O 	O 	0.9871	0.9174	0.1127	-0.507
Mof_C 	C 	0.9341	0.945	0.1343	0.305
Mof_C 	C 	0.9668	0.9822	0.1687	0.008
Mof_C 	C 	0.9109	0.0084	0.1935	-0.065
Mof_C 	C 	0.0541	0.9758	0.1783	-0
Mof_H 	H 	0.8508	0.0097	0.188	0.031
Mof_C 	C 	0.9424	0.0335	0.2273	0.025
Mof_C 	C 	0.0881	0.0032	0.2114	0.209
Mof_H 	H 	0.091	0.9529	0.1625	0.032
Mof_C 	C 	0.0322	0.0346	0.236	-0.007
Mof_H 	H 	0.9025	0.0501	0.2448	0.013
Mof_N 	N 	0.1775	0.9947	0.2164	-0.239
Mof_C 	C 	0.0603	0.0556	0.2742	0.347
Mof_H 	H 	0.2072	0.9745	0.1996	0.12
Mof_H 	H 	0.2037	0.0095	0.2363	0.121
Mof_C 	C 	0.975	0.7691	0.9908	-0.113
Mof_C 	C 	0.0323	0.7154	0.9228	-0.02
Mof_H 	H 	0.1447	0.7684	0.9341	0.038
Mof_C 	C 	0.9192	0.7307	0.9694	-0.05
Mof_C 	C 	0.9498	0.704	0.9363	-0.097
Mof_H 	H 	0.9134	0.6777	0.9227	0.068
Mof_H 	H 	0.0927	0.8103	0.9911	0.027
Mof_N 	N 	0.8399	0.7105	0.9815	-0.178
Mof_H 	H 	0.8129	0.683	0.9685	0.107
Mof_H 	H 	0.8162	0.725	0.0021	0.105
Mof_O 	O 	0.5075	0.5848	0.29573	-0.496
Mof_O 	O 	0.6406	0.5545	0.2835	-0.556
Mof_O 	O 	0.3533	0.4455	0.1267	-0.486
Mof_O 	O 	0.4871	0.4174	0.1127	-0.507
Mof_C 	C 	0.4341	0.445	0.1343	0.304
Mof_C 	C 	0.4668	0.4822	0.1687	0.008
Mof_C 	C 	0.4109	0.5084	0.1935	-0.064
Mof_C 	C 	0.5541	0.4758	0.1783	-0.004
Mof_H 	H 	0.3508	0.5097	0.188	0.031
Mof_C 	C 	0.4424	0.5335	0.2273	0.025
Mof_C 	C 	0.5881	0.5032	0.2114	0.202
Mof_H 	H 	0.591	0.4529	0.1625	0.033
Mof_C 	C 	0.5322	0.5346	0.236	-0.009
Mof_H 	H 	0.4025	0.5501	0.2448	0.014
Mof_N 	N 	0.6775	0.4947	0.2164	-0.238
Mof_C 	C 	0.5603	0.5556	0.2742	0.347
Mof_H 	H 	0.7072	0.4745	0.1996	0.12
Mof_H 	H 	0.7037	0.5095	0.2363	0.121
Mof_C 	C 	0.475	0.2691	0.9908	-0.112
Mof_C 	C 	0.5323	0.2154	0.9228	-0.02
Mof_H 	H 	0.6447	0.2684	0.9341	0.038
Mof_C 	C 	0.4192	0.2307	0.9694	-0.049
Mof_C 	C 	0.4498	0.204	0.9363	-0.096
Mof_H 	H 	0.4134	0.1777	0.9227	0.068
Mof_H 	H 	0.5927	0.3103	0.9911	0.027
Mof_N 	N 	0.3399	0.2105	0.9815	-0.178
Mof_H 	H 	0.3129	0.183	0.9685	0.107
Mof_H 	H 	0.3162	0.225	0.0021	0.105
Mof_O 	O 	0.5075	0.0848	0.79573	-0.496
Mof_O 	O 	0.6406	0.0545	0.7835	-0.556
Mof_O 	O 	0.3533	0.9455	0.6267	-0.486
Mof_O 	O 	0.4871	0.9174	0.6127	-0.507
Mof_C 	C 	0.4341	0.945	0.6343	0.304
Mof_C 	C 	0.4668	0.9822	0.6687	0.007
Mof_C 	C 	0.4109	0.0084	0.6935	-0.064
Mof_C 	C 	0.5541	0.9758	0.6783	-0.005
Mof_H 	H 	0.3508	0.0097	0.688	0.031
Mof_C 	C 	0.4424	0.0335	0.7273	0.025
Mof_C 	C 	0.5881	0.0032	0.7114	0.199
Mof_H 	H 	0.591	0.9529	0.6625	0.034
Mof_C 	C 	0.5322	0.0346	0.736	-0.009
Mof_H 	H 	0.4025	0.0501	0.7448	0.014
Mof_N 	N 	0.6775	0.9947	0.7164	-0.237
Mof_C 	C 	0.5603	0.0556	0.7742	0.347
Mof_H 	H 	0.7072	0.9745	0.6996	0.12
Mof_H 	H 	0.7037	0.0095	0.7363	0.121
Mof_C 	C 	0.475	0.7691	0.4908	-0.112
Mof_C 	C 	0.5323	0.7154	0.4228	-0.02
Mof_H 	H 	0.6447	0.7684	0.4341	0.038
Mof_C 	C 	0.4192	0.7307	0.4694	-0.049
Mof_C 	C 	0.4498	0.704	0.4363	-0.096
Mof_H 	H 	0.4134	0.6777	0.4227	0.068
Mof_H 	H 	0.5927	0.8103	0.4911	0.027
Mof_N 	N 	0.3399	0.7105	0.4815	-0.178
Mof_H 	H 	0.3129	0.683	0.4685	0.107
Mof_H 	H 	0.3162	0.725	0.5021	0.105
Mof_O 	O 	0.9925	0.8348	0.04573	-0.496
Mof_O 	O 	0.8594	0.8045	0.0335	-0.556
Mof_O 	O 	0.1467	0.6955	0.8767	-0.486
Mof_O 	O 	0.0129	0.6674	0.8627	-0.507
Mof_C 	C 	0.0659	0.695	0.8843	0.304
Mof_C 	C 	0.0332	0.7322	0.9187	0.008
Mof_C 	C 	0.0891	0.7584	0.9435	-0.064
Mof_C 	C 	0.9459	0.7258	0.9283	-0.003
Mof_H 	H 	0.1492	0.7597	0.938	0.031
Mof_C 	C 	0.0576	0.7835	0.9773	0.025
Mof_C 	C 	0.9119	0.7532	0.9614	0.203
Mof_H 	H 	0.909	0.7029	0.9125	0.033
Mof_C 	C 	0.9678	0.7846	0.986	-0.009
Mof_H 	H 	0.0975	0.8001	0.9948	0.014
Mof_N 	N 	0.8225	0.7447	0.9664	-0.238
Mof_C 	C 	0.9397	0.8056	0.0242	0.348
Mof_H 	H 	0.7928	0.7245	0.9496	0.12
Mof_H 	H 	0.7963	0.7595	0.9863	0.12
Mof_C 	C 	0.025	0.5191	0.7408	-0.112
Mof_C 	C 	0.9677	0.4654	0.6728	-0.02
Mof_H 	H 	0.8553	0.5184	0.6841	0.038
Mof_C 	C 	0.0808	0.4807	0.7194	-0.049
Mof_C 	C 	0.0502	0.454	0.6863	-0.096
Mof_H 	H 	0.0866	0.4277	0.6727	0.068
Mof_H 	H 	0.9073	0.5603	0.7411	0.027
Mof_N 	N 	0.1601	0.4605	0.7315	-0.178
Mof_H 	H 	0.1871	0.433	0.7185	0.107
Mof_H 	H 	0.1838	0.475	0.7521	0.105
Mof_O 	O 	0.9925	0.3348	0.54573	-0.496
Mof_O 	O 	0.8594	0.3045	0.5335	-0.556
Mof_O 	O 	0.1467	0.1955	0.3767	-0.486
Mof_O 	O 	0.0129	0.1674	0.3627	-0.507
Mof_C 	C 	0.0659	0.195	0.3843	0.304
Mof_C 	C 	0.0332	0.2322	0.4187	0.008
Mof_C 	C 	0.0891	0.2584	0.4435	-0.064
Mof_C 	C 	0.9459	0.2258	0.4283	-0.004
Mof_H 	H 	0.1492	0.2597	0.438	0.031
Mof_C 	C 	0.0576	0.2835	0.4773	0.025
Mof_C 	C 	0.9119	0.2532	0.4614	0.202
Mof_H 	H 	0.909	0.2029	0.4125	0.034
Mof_C 	C 	0.9678	0.2846	0.486	-0.009
Mof_H 	H 	0.0975	0.3001	0.4948	0.014
Mof_N 	N 	0.8225	0.2447	0.4664	-0.238
Mof_C 	C 	0.9397	0.3056	0.5242	0.347
Mof_H 	H 	0.7928	0.2245	0.4496	0.12
Mof_H 	H 	0.7963	0.2595	0.4863	0.121
Mof_C 	C 	0.025	0.0191	0.2408	-0.114
Mof_C 	C 	0.9677	0.9654	0.1728	-0.021
Mof_H 	H 	0.8553	0.0184	0.1841	0.038
Mof_C 	C 	0.0808	0.9807	0.2194	-0.056
Mof_C 	C 	0.0502	0.954	0.1863	-0.099
Mof_H 	H 	0.0866	0.9277	0.1727	0.069
Mof_H 	H 	0.9073	0.0603	0.2411	0.027
Mof_N 	N 	0.1601	0.9605	0.2315	-0.176
Mof_H 	H 	0.1871	0.933	0.2185	0.107
Mof_H 	H 	0.1838	0.975	0.2521	0.105
Mof_O 	O 	0.4925	0.8348	0.54573	-0.496
Mof_O 	O 	0.3594	0.8045	0.5335	-0.556
Mof_O 	O 	0.6467	0.6955	0.3767	-0.486
Mof_O 	O 	0.5129	0.6674	0.3627	-0.507
Mof_C 	C 	0.5659	0.695	0.3843	0.304
Mof_C 	C 	0.5332	0.7322	0.4187	0.008
Mof_C 	C 	0.5891	0.7584	0.4435	-0.064
Mof_C 	C 	0.4459	0.7258	0.4283	-0.004
Mof_H 	H 	0.6492	0.7597	0.438	0.031
Mof_C 	C 	0.5576	0.7835	0.4773	0.025
Mof_C 	C 	0.4119	0.7532	0.4614	0.202
Mof_H 	H 	0.409	0.7029	0.4125	0.034
Mof_C 	C 	0.4678	0.7846	0.486	-0.009
Mof_H 	H 	0.5975	0.8001	0.4948	0.014
Mof_N 	N 	0.3225	0.7447	0.4664	-0.238
Mof_C 	C 	0.4397	0.8056	0.5242	0.347
Mof_H 	H 	0.2928	0.7245	0.4496	0.12
Mof_H 	H 	0.2963	0.7595	0.4863	0.121
Mof_C 	C 	0.525	0.5191	0.2408	-0.112
Mof_C 	C 	0.4677	0.4654	0.1728	-0.02
Mof_H 	H 	0.3553	0.5184	0.1841	0.038
Mof_C 	C 	0.5808	0.4807	0.2194	-0.049
Mof_C 	C 	0.5502	0.454	0.1863	-0.096
Mof_H 	H 	0.5866	0.4277	0.1727	0.068
Mof_H 	H 	0.4073	0.5603	0.2411	0.027
Mof_N 	N 	0.6601	0.4605	0.2315	-0.178
Mof_H 	H 	0.6871	0.433	0.2185	0.107
Mof_H 	H 	0.6838	0.475	0.2521	0.105
Mof_O 	O 	0.4925	0.3348	0.04573	-0.496
Mof_O 	O 	0.3594	0.3045	0.0335	-0.556
Mof_O 	O 	0.6467	0.1955	0.8767	-0.486
Mof_O 	O 	0.5129	0.1674	0.8627	-0.507
Mof_C 	C 	0.5659	0.195	0.8843	0.304
Mof_C 	C 	0.5332	0.2322	0.9187	0.008
Mof_C 	C 	0.5891	0.2584	0.9435	-0.064
Mof_C 	C 	0.4459	0.2258	0.9283	-0.003
Mof_H 	H 	0.6492	0.2597	0.938	0.031
Mof_C 	C 	0.5576	0.2835	0.9773	0.025
Mof_C 	C 	0.4119	0.2532	0.9614	0.202
Mof_H 	H 	0.409	0.2029	0.9125	0.033
Mof_C 	C 	0.4678	0.2846	0.986	-0.008
Mof_H 	H 	0.5975	0.3001	0.9948	0.014
Mof_N 	N 	0.3225	0.2447	0.9664	-0.238
Mof_C 	C 	0.4397	0.3056	0.0242	0.347
Mof_H 	H 	0.2928	0.2245	0.9496	0.12
Mof_H 	H 	0.2963	0.2595	0.9863	0.121
Mof_C 	C 	0.525	0.0191	0.7408	-0.111
Mof_C 	C 	0.4677	0.9654	0.6728	-0.019
Mof_H 	H 	0.3553	0.0184	0.6841	0.038
Mof_C 	C 	0.5808	0.9807	0.7194	-0.046
Mof_C 	C 	0.5502	0.954	0.6863	-0.095
Mof_H 	H 	0.5866	0.9277	0.6727	0.067
Mof_H 	H 	0.4073	0.0603	0.7411	0.027
Mof_N 	N 	0.6601	0.9605	0.7315	-0.179
Mof_H 	H 	0.6871	0.933	0.7185	0.108
Mof_H 	H 	0.6838	0.975	0.7521	0.105
Mof_O 	O 	0.2575	0.4152	0.04573	-0.496
Mof_O 	O 	0.3906	0.4455	0.0335	-0.556
Mof_O 	O 	0.1033	0.5545	0.8767	-0.486
Mof_O 	O 	0.2371	0.5826	0.8627	-0.507
Mof_C 	C 	0.1841	0.555	0.8843	0.304
Mof_C 	C 	0.2168	0.5178	0.9187	0.008
Mof_C 	C 	0.1609	0.4916	0.9435	-0.064
Mof_C 	C 	0.3041	0.5242	0.9283	-0.004
Mof_H 	H 	0.1008	0.4903	0.938	0.031
Mof_C 	C 	0.1924	0.4665	0.9773	0.025
Mof_C 	C 	0.3381	0.4968	0.9614	0.202
Mof_H 	H 	0.341	0.5471	0.9125	0.034
Mof_C 	C 	0.2822	0.4654	0.986	-0.009
Mof_H 	H 	0.1525	0.4499	0.9948	0.014
Mof_N 	N 	0.4275	0.5053	0.9664	-0.238
Mof_C 	C 	0.3103	0.4444	0.0242	0.347
Mof_H 	H 	0.4572	0.5255	0.9496	0.12
Mof_H 	H 	0.4537	0.4905	0.9863	0.121
Mof_C 	C 	0.225	0.7309	0.7408	-0.112
Mof_C 	C 	0.2823	0.7846	0.6728	-0.02
Mof_H 	H 	0.3947	0.7316	0.6841	0.038
Mof_C 	C 	0.1692	0.7693	0.7194	-0.049
Mof_C 	C 	0.1998	0.796	0.6863	-0.096
Mof_H 	H 	0.1634	0.8223	0.6727	0.068
Mof_H 	H 	0.3427	0.6897	0.7411	0.027
Mof_N 	N 	0.0899	0.7895	0.7315	-0.178
Mof_H 	H 	0.0629	0.817	0.7185	0.107
Mof_H 	H 	0.0662	0.775	0.7521	0.105
Mof_O 	O 	0.2575	0.9152	0.54573	-0.496
Mof_O 	O 	0.3906	0.9455	0.5335	-0.556
Mof_O 	O 	0.1033	0.0545	0.3767	-0.486
Mof_O 	O 	0.2371	0.0826	0.3627	-0.507
Mof_C 	C 	0.1841	0.055	0.3843	0.304
Mof_C 	C 	0.2168	0.0178	0.4187	0.008
Mof_C 	C 	0.1609	0.9916	0.4435	-0.064
Mof_C 	C 	0.3041	0.0242	0.4283	-0.004
Mof_H 	H 	0.1008	0.9903	0.438	0.031
Mof_C 	C 	0.1924	0.9665	0.4773	0.025
Mof_C 	C 	0.3381	0.9968	0.4614	0.2
Mof_H 	H 	0.341	0.0471	0.4125	0.034
Mof_C 	C 	0.2822	0.9654	0.486	-0.009
Mof_H 	H 	0.1525	0.9499	0.4948	0.014
Mof_N 	N 	0.4275	0.0053	0.4664	-0.237
Mof_C 	C 	0.3103	0.9444	0.5242	0.347
Mof_H 	H 	0.4572	0.0255	0.4496	0.12
Mof_H 	H 	0.4537	0.9905	0.4863	0.121
Mof_C 	C 	0.225	0.2309	0.2408	-0.113
Mof_C 	C 	0.2823	0.2846	0.1728	-0.02
Mof_H 	H 	0.3947	0.2316	0.1841	0.038
Mof_C 	C 	0.1692	0.2693	0.2194	-0.05
Mof_C 	C 	0.1998	0.296	0.1863	-0.097
Mof_H 	H 	0.1634	0.3223	0.1727	0.068
Mof_H 	H 	0.3427	0.1897	0.2411	0.027
Mof_N 	N 	0.0899	0.2895	0.2315	-0.178
Mof_H 	H 	0.0629	0.317	0.2185	0.107
Mof_H 	H 	0.0662	0.275	0.2521	0.105
Mof_O 	O 	0.7575	0.4152	0.54573	-0.496
Mof_O 	O 	0.8906	0.4455	0.5335	-0.556
Mof_O 	O 	0.6033	0.5545	0.3767	-0.486
Mof_O 	O 	0.7371	0.5826	0.3627	-0.507
Mof_C 	C 	0.6841	0.555	0.3843	0.304
Mof_C 	C 	0.7168	0.5178	0.4187	0.008
Mof_C 	C 	0.6609	0.4916	0.4435	-0.064
Mof_C 	C 	0.8041	0.5242	0.4283	-0.004
Mof_H 	H 	0.6008	0.4903	0.438	0.031
Mof_C 	C 	0.6924	0.4665	0.4773	0.025
Mof_C 	C 	0.8381	0.4968	0.4614	0.202
Mof_H 	H 	0.841	0.5471	0.4125	0.033
Mof_C 	C 	0.7822	0.4654	0.486	-0.009
Mof_H 	H 	0.6525	0.4499	0.4948	0.014
Mof_N 	N 	0.9275	0.5053	0.4664	-0.238
Mof_C 	C 	0.8103	0.4444	0.5242	0.347
Mof_H 	H 	0.9572	0.5255	0.4496	0.12
Mof_H 	H 	0.9537	0.4905	0.4863	0.121
Mof_C 	C 	0.725	0.7309	0.2408	-0.112
Mof_C 	C 	0.7823	0.7846	0.1728	-0.02
Mof_H 	H 	0.8947	0.7316	0.1841	0.038
Mof_C 	C 	0.6692	0.7693	0.2194	-0.049
Mof_C 	C 	0.6998	0.796	0.1863	-0.096
Mof_H 	H 	0.6634	0.8223	0.1727	0.068
Mof_H 	H 	0.8427	0.6897	0.2411	0.027
Mof_N 	N 	0.5899	0.7895	0.2315	-0.178
Mof_H 	H 	0.5629	0.817	0.2185	0.107
Mof_H 	H 	0.5662	0.775	0.2521	0.105
Mof_O 	O 	0.7575	0.9152	0.04573	-0.496
Mof_O 	O 	0.8906	0.9455	0.0335	-0.556
Mof_O 	O 	0.6033	0.0545	0.8767	-0.486
Mof_O 	O 	0.7371	0.0826	0.8627	-0.507
Mof_C 	C 	0.6841	0.055	0.8843	0.304
Mof_C 	C 	0.7168	0.0178	0.9187	0.009
Mof_C 	C 	0.6609	0.9916	0.9435	-0.065
Mof_C 	C 	0.8041	0.0242	0.9283	0.001
Mof_H 	H 	0.6008	0.9903	0.938	0.031
Mof_C 	C 	0.6924	0.9665	0.9773	0.025
Mof_C 	C 	0.8381	0.9968	0.9614	0.211
Mof_H 	H 	0.841	0.0471	0.9125	0.031
Mof_C 	C 	0.7822	0.9654	0.986	-0.007
Mof_H 	H 	0.6525	0.9499	0.9948	0.013
Mof_N 	N 	0.9275	0.0053	0.9664	-0.239
Mof_C 	C 	0.8103	0.9444	0.0242	0.348
Mof_H 	H 	0.9572	0.0255	0.9496	0.12
Mof_H 	H 	0.9537	0.9905	0.9863	0.121
Mof_C 	C 	0.725	0.2309	0.7408	-0.112
Mof_C 	C 	0.7823	0.2846	0.6728	-0.02
Mof_H 	H 	0.8947	0.2316	0.6841	0.038
Mof_C 	C 	0.6692	0.2693	0.7194	-0.049
Mof_C 	C 	0.6998	0.296	0.6863	-0.096
Mof_H 	H 	0.6634	0.3223	0.6727	0.068
Mof_H 	H 	0.8427	0.1897	0.7411	0.027
Mof_N 	N 	0.5899	0.2895	0.7315	-0.178
Mof_H 	H 	0.5629	0.317	0.7185	0.107
Mof_H 	H 	0.5662	0.275	0.7521	0.105
Mof_In	In	0.875	0.375	0.57906	2.528
Mof_In	In	0.875	0.875	0.07906	2.528
Mof_In	In	0.375	0.375	0.07906	2.528
Mof_In	In	0.375	0.875	0.57906	2.528
Mof_In	In	0.125	0.625	0.82906	2.528
Mof_In	In	0.125	0.125	0.32906	2.528
Mof_In	In	0.625	0.625	0.32906	2.528
Mof_In	In	0.625	0.125	0.82906	2.528
Mof_O 	O 	0.0075	0.1652	0.95427	-0.496
Mof_O 	O 	0.1406	0.1955	0.9665	-0.556
Mof_O 	O 	0.8533	0.3045	0.1233	-0.486
Mof_O 	O 	0.9871	0.3326	0.1373	-0.507
Mof_C 	C 	0.9341	0.305	0.1157	0.304
Mof_C 	C 	0.9668	0.2678	0.0813	0.008
Mof_C 	C 	0.9109	0.2416	0.0565	-0.064
Mof_C 	C 	0.0541	0.2742	0.0717	-0.003
Mof_H 	H 	0.8508	0.2403	0.062	0.031
Mof_C 	C 	0.9424	0.2165	0.0227	0.025
Mof_C 	C 	0.0881	0.2468	0.0386	0.203
Mof_H 	H 	0.091	0.2971	0.0875	0.033
Mof_C 	C 	0.0322	0.2154	0.014	-0.009
Mof_H 	H 	0.9025	0.1999	0.0052	0.014
Mof_N 	N 	0.1775	0.2553	0.0336	-0.238
Mof_C 	C 	0.0603	0.1944	0.9758	0.348
Mof_H 	H 	0.2072	0.2755	0.0504	0.12
Mof_H 	H 	0.2037	0.2405	0.0137	0.12
Mof_C 	C 	0.975	0.4809	0.2592	-0.112
Mof_C 	C 	0.0323	0.5346	0.3272	-0.02
Mof_H 	H 	0.1447	0.4816	0.3159	0.038
Mof_C 	C 	0.9192	0.5193	0.2806	-0.049
Mof_C 	C 	0.9498	0.546	0.3137	-0.096
Mof_H 	H 	0.9134	0.5723	0.3273	0.068
Mof_H 	H 	0.0927	0.4397	0.2589	0.027
Mof_N 	N 	0.8399	0.5395	0.2685	-0.178
Mof_H 	H 	0.8129	0.567	0.2815	0.107
Mof_H 	H 	0.8162	0.525	0.2479	0.105
Mof_O 	O 	0.0075	0.6652	0.45427	-0.496
Mof_O 	O 	0.1406	0.6955	0.4665	-0.556
Mof_O 	O 	0.8533	0.8045	0.6233	-0.486
Mof_O 	O 	0.9871	0.8326	0.6373	-0.507
Mof_C 	C 	0.9341	0.805	0.6157	0.304
Mof_C 	C 	0.9668	0.7678	0.5813	0.008
Mof_C 	C 	0.9109	0.7416	0.5565	-0.064
Mof_C 	C 	0.0541	0.7742	0.5717	-0.004
Mof_H 	H 	0.8508	0.7403	0.562	0.031
Mof_C 	C 	0.9424	0.7165	0.5227	0.025
Mof_C 	C 	0.0881	0.7468	0.5386	0.202
Mof_H 	H 	0.091	0.7971	0.5875	0.034
Mof_C 	C 	0.0322	0.7154	0.514	-0.009
Mof_H 	H 	0.9025	0.6999	0.5052	0.014
Mof_N 	N 	0.1775	0.7553	0.5336	-0.238
Mof_C 	C 	0.0603	0.6944	0.4758	0.347
Mof_H 	H 	0.2072	0.7755	0.5504	0.12
Mof_H 	H 	0.2037	0.7405	0.5137	0.121
Mof_C 	C 	0.975	0.9809	0.7592	-0.114
Mof_C 	C 	0.0323	0.0346	0.8272	-0.021
Mof_H 	H 	0.1447	0.9816	0.8159	0.038
Mof_C 	C 	0.9192	0.0193	0.7806	-0.056
Mof_C 	C 	0.9498	0.046	0.8137	-0.099
Mof_H 	H 	0.9134	0.0723	0.8273	0.069
Mof_H 	H 	0.0927	0.9397	0.7589	0.027
Mof_N 	N 	0.8399	0.0395	0.7685	-0.176
Mof_H 	H 	0.8129	0.067	0.7815	0.107
Mof_H 	H 	0.8162	0.025	0.7479	0.105
Mof_O 	O 	0.5075	0.1652	0.45427	-0.496
Mof_O 	O 	0.6406	0.1955	0.4665	-0.556
Mof_O 	O 	0.3533	0.3045	0.6233	-0.486
Mof_O 	O 	0.4871	0.3326	0.6373	-0.507
Mof_C 	C 	0.4341	0.305	0.6157	0.304
Mof_C 	C 	0.4668	0.2678	0.5813	0.008
Mof_C 	C 	0.4109	0.2416	0.5565	-0.064
Mof_C 	C 	0.5541	0.2742	0.5717	-0.004
Mof_H 	H 	0.3508	0.2403	0.562	0.031
Mof_C 	C 	0.4424	0.2165	0.5227	0.025
Mof_C 	C 	0.5881	0.2468	0.5386	0.202
Mof_H 	H 	0.591	0.2971	0.5875	0.034
Mof_C 	C 	0.5322	0.2154	0.514	-0.009
Mof_H 	H 	0.4025	0.1999	0.5052	0.014
Mof_N 	N 	0.6775	0.2553	0.5336	-0.238
Mof_C 	C 	0.5603	0.1944	0.4758	0.347
Mof_H 	H 	0.7072	0.2755	0.5504	0.12
Mof_H 	H 	0.7037	0.2405	0.5137	0.121
Mof_C 	C 	0.475	0.4809	0.7592	-0.112
Mof_C 	C 	0.5323	0.5346	0.8272	-0.02
Mof_H 	H 	0.6447	0.4816	0.8159	0.038
Mof_C 	C 	0.4192	0.5193	0.7806	-0.049
Mof_C 	C 	0.4498	0.546	0.8137	-0.096
Mof_H 	H 	0.4134	0.5723	0.8273	0.068
Mof_H 	H 	0.5927	0.4397	0.7589	0.027
Mof_N 	N 	0.3399	0.5395	0.7685	-0.178
Mof_H 	H 	0.3129	0.567	0.7815	0.107
Mof_H 	H 	0.3162	0.525	0.7479	0.105
Mof_O 	O 	0.5075	0.6652	0.95427	-0.496
Mof_O 	O 	0.6406	0.6955	0.9665	-0.556
Mof_O 	O 	0.3533	0.8045	0.1233	-0.486
Mof_O 	O 	0.4871	0.8326	0.1373	-0.507
Mof_C 	C 	0.4341	0.805	0.1157	0.304
Mof_C 	C 	0.4668	0.7678	0.0813	0.008
Mof_C 	C 	0.4109	0.7416	0.0565	-0.064
Mof_C 	C 	0.5541	0.7742	0.0717	-0.003
Mof_H 	H 	0.3508	0.7403	0.062	0.031
Mof_C 	C 	0.4424	0.7165	0.0227	0.025
Mof_C 	C 	0.5881	0.7468	0.0386	0.202
Mof_H 	H 	0.591	0.7971	0.0875	0.033
Mof_C 	C 	0.5322	0.7154	0.014	-0.008
Mof_H 	H 	0.4025	0.6999	0.0052	0.014
Mof_N 	N 	0.6775	0.7553	0.0336	-0.238
Mof_C 	C 	0.5603	0.6944	0.9758	0.347
Mof_H 	H 	0.7072	0.7755	0.0504	0.12
Mof_H 	H 	0.7037	0.7405	0.0137	0.121
Mof_C 	C 	0.475	0.9809	0.2592	-0.111
Mof_C 	C 	0.5323	0.0346	0.3272	-0.019
Mof_H 	H 	0.6447	0.9816	0.3159	0.038
Mof_C 	C 	0.4192	0.0193	0.2806	-0.046
Mof_C 	C 	0.4498	0.046	0.3137	-0.095
Mof_H 	H 	0.4134	0.0723	0.3273	0.067
Mof_H 	H 	0.5927	0.9397	0.2589	0.027
Mof_N 	N 	0.3399	0.0395	0.2685	-0.179
Mof_H 	H 	0.3129	0.067	0.2815	0.108
Mof_H 	H 	0.3162	0.025	0.2479	0.105
Mof_O 	O 	0.7425	0.5848	0.95427	-0.496
Mof_O 	O 	0.6094	0.5545	0.9665	-0.556
Mof_O 	O 	0.8967	0.4455	0.1233	-0.486
Mof_O 	O 	0.7629	0.4174	0.1373	-0.507
Mof_C 	C 	0.8159	0.445	0.1157	0.304
Mof_C 	C 	0.7832	0.4822	0.0813	0.008
Mof_C 	C 	0.8391	0.5084	0.0565	-0.064
Mof_C 	C 	0.6959	0.4758	0.0717	-0.004
Mof_H 	H 	0.8992	0.5097	0.062	0.031
Mof_C 	C 	0.8076	0.5335	0.0227	0.025
Mof_C 	C 	0.6619	0.5032	0.0386	0.202
Mof_H 	H 	0.659	0.4529	0.0875	0.034
Mof_C 	C 	0.7178	0.5346	0.014	-0.009
Mof_H 	H 	0.8475	0.5501	0.0052	0.014
Mof_N 	N 	0.5725	0.4947	0.0336	-0.238
Mof_C 	C 	0.6897	0.5556	0.9758	0.347
Mof_H 	H 	0.5428	0.4745	0.0504	0.12
Mof_H 	H 	0.5463	0.5095	0.0137	0.121
Mof_C 	C 	0.775	0.2691	0.2592	-0.112
Mof_C 	C 	0.7177	0.2154	0.3272	-0.02
Mof_H 	H 	0.6053	0.2684	0.3159	0.038
Mof_C 	C 	0.8308	0.2307	0.2806	-0.049
Mof_C 	C 	0.8002	0.204	0.3137	-0.096
Mof_H 	H 	0.8366	0.1777	0.3273	0.068
Mof_H 	H 	0.6573	0.3103	0.2589	0.027
Mof_N 	N 	0.9101	0.2105	0.2685	-0.178
Mof_H 	H 	0.9371	0.183	0.2815	0.107
Mof_H 	H 	0.9338	0.225	0.2479	0.105
Mof_O 	O 	0.7425	0.0848	0.45427	-0.496
Mof_O 	O 	0.6094	0.0545	0.4665	-0.556
Mof_O 	O 	0.8967	0.9455	0.6233	-0.486
Mof_O 	O 	0.7629	0.9174	0.6373	-0.507
Mof_C 	C 	0.8159	0.945	0.6157	0.304
Mof_C 	C 	0.7832	0.9822	0.5813	0.008
Mof_C 	C 	0.8391	0.0084	0.5565	-0.064
Mof_C 	C 	0.6959	0.9758	0.5717	-0.004
Mof_H 	H 	0.8992	0.0097	0.562	0.031
Mof_C 	C 	0.8076	0.0335	0.5227	0.025
Mof_C 	C 	0.6619	0.0032	0.5386	0.2
Mof_H 	H 	0.659	0.9529	0.5875	0.034
Mof_C 	C 	0.7178	0.0346	0.514	-0.009
Mof_H 	H 	0.8475	0.0501	0.5052	0.014
Mof_N 	N 	0.5725	0.9947	0.5336	-0.237
Mof_C 	C 	0.6897	0.0556	0.4758	0.347
Mof_H 	H 	0.5428	0.9745	0.5504	0.12
Mof_H 	H 	0.5463	0.0095	0.5137	0.121
Mof_C 	C 	0.775	0.7691	0.7592	-0.113
Mof_C 	C 	0.7177	0.7154	0.8272	-0.02
Mof_H 	H 	0.6053	0.7684	0.8159	0.038
Mof_C 	C 	0.8308	0.7307	0.7806	-0.05
Mof_C 	C 	0.8002	0.704	0.8137	-0.097
Mof_H 	H 	0.8366	0.6777	0.8273	0.068
Mof_H 	H 	0.6573	0.8103	0.7589	0.027
Mof_N 	N 	0.9101	0.7105	0.7685	-0.178
Mof_H 	H 	0.9371	0.683	0.7815	0.107
Mof_H 	H 	0.9338	0.725	0.7479	0.105
Mof_O 	O 	0.2425	0.5848	0.45427	-0.496
Mof_O 	O 	0.1094	0.5545	0.4665	-0.556
Mof_O 	O 	0.3967	0.4455	0.6233	-0.486
Mof_O 	O 	0.2629	0.4174	0.6373	-0.507
Mof_C 	C 	0.3159	0.445	0.6157	0.304
Mof_C 	C 	0.2832	0.4822	0.5813	0.008
Mof_C 	C 	0.3391	0.5084	0.5565	-0.064
Mof_C 	C 	0.1959	0.4758	0.5717	-0.004
Mof_H 	H 	0.3992	0.5097	0.562	0.031
Mof_C 	C 	0.3076	0.5335	0.5227	0.025
Mof_C 	C 	0.1619	0.5032	0.5386	0.202
Mof_H 	H 	0.159	0.4529	0.5875	0.033
Mof_C 	C 	0.2178	0.5346	0.514	-0.009
Mof_H 	H 	0.3475	0.5501	0.5052	0.014
Mof_N 	N 	0.0725	0.4947	0.5336	-0.238
Mof_C 	C 	0.1897	0.5556	0.4758	0.347
Mof_H 	H 	0.0428	0.4745	0.5504	0.12
Mof_H 	H 	0.0463	0.5095	0.5137	0.121
Mof_C 	C 	0.275	0.2691	0.7592	-0.112
Mof_C 	C 	0.2177	0.2154	0.8272	-0.02
Mof_H 	H 	0.1053	0.2684	0.8159	0.038
Mof_C 	C 	0.3308	0.2307	0.7806	-0.049
Mof_C 	C 	0.3002	0.204	0.8137	-0.096
Mof_H 	H 	0.3366	0.1777	0.8273	0.068
Mof_H 	H 	0.1573	0.3103	0.7589	0.027
Mof_N 	N 	0.4101	0.2105	0.7685	-0.178
Mof_H 	H 	0.4371	0.183	0.7815	0.107
Mof_H 	H 	0.4338	0.225	0.7479	0.105
Mof_O 	O 	0.2425	0.0848	0.95427	-0.496
Mof_O 	O 	0.1094	0.0545	0.9665	-0.556
Mof_O 	O 	0.3967	0.9455	0.1233	-0.486
Mof_O 	O 	0.2629	0.9174	0.1373	-0.507
Mof_C 	C 	0.3159	0.945	0.1157	0.304
Mof_C 	C 	0.2832	0.9822	0.0813	0.009
Mof_C 	C 	0.3391	0.0084	0.0565	-0.065
Mof_C 	C 	0.1959	0.9758	0.0717	0.001
Mof_H 	H 	0.3992	0.0097	0.062	0.031
Mof_C 	C 	0.3076	0.0335	0.0227	0.025
Mof_C 	C 	0.1619	0.0032	0.0386	0.211
Mof_H 	H 	0.159	0.9529	0.0875	0.031
Mof_C 	C 	0.2178	0.0346	0.014	-0.007
Mof_H 	H 	0.3475	0.0501	0.0052	0.013
Mof_N 	N 	0.0725	0.9947	0.0336	-0.239
Mof_C 	C 	0.1897	0.0556	0.9758	0.348
Mof_H 	H 	0.0428	0.9745	0.0504	0.12
Mof_H 	H 	0.0463	0.0095	0.0137	0.121
Mof_C 	C 	0.275	0.7691	0.2592	-0.112
Mof_C 	C 	0.2177	0.7154	0.3272	-0.02
Mof_H 	H 	0.1053	0.7684	0.3159	0.038
Mof_C 	C 	0.3308	0.7307	0.2806	-0.049
Mof_C 	C 	0.3002	0.704	0.3137	-0.096
Mof_H 	H 	0.3366	0.6777	0.3273	0.068
Mof_H 	H 	0.1573	0.8103	0.2589	0.027
Mof_N 	N 	0.4101	0.7105	0.2685	-0.178
Mof_H 	H 	0.4371	0.683	0.2815	0.107
Mof_H 	H 	0.4338	0.725	0.2479	0.105
Mof_O 	O 	0.2575	0.8348	0.20427	-0.496
Mof_O 	O 	0.3906	0.8045	0.2165	-0.556
Mof_O 	O 	0.1033	0.6955	0.3733	-0.486
Mof_O 	O 	0.2371	0.6674	0.3873	-0.507
Mof_C 	C 	0.1841	0.695	0.3657	0.304
Mof_C 	C 	0.2168	0.7322	0.3313	0.008
Mof_C 	C 	0.1609	0.7584	0.3065	-0.064
Mof_C 	C 	0.3041	0.7258	0.3217	-0.004
Mof_H 	H 	0.1008	0.7597	0.312	0.031
Mof_C 	C 	0.1924	0.7835	0.2727	0.025
Mof_C 	C 	0.3381	0.7532	0.2886	0.202
Mof_H 	H 	0.341	0.7029	0.3375	0.034
Mof_C 	C 	0.2822	0.7846	0.264	-0.009
Mof_H 	H 	0.1525	0.8001	0.2552	0.014
Mof_N 	N 	0.4275	0.7447	0.2836	-0.238
Mof_C 	C 	0.3103	0.8056	0.2258	0.347
Mof_H 	H 	0.4572	0.7245	0.3004	0.12
Mof_H 	H 	0.4537	0.7595	0.2637	0.121
Mof_C 	C 	0.225	0.5191	0.5092	-0.112
Mof_C 	C 	0.2823	0.4654	0.5772	-0.02
Mof_H 	H 	0.3947	0.5184	0.5659	0.038
Mof_C 	C 	0.1692	0.4807	0.5306	-0.049
Mof_C 	C 	0.1998	0.454	0.5637	-0.096
Mof_H 	H 	0.1634	0.4277	0.5773	0.068
Mof_H 	H 	0.3427	0.5603	0.5089	0.027
Mof_N 	N 	0.0899	0.4605	0.5185	-0.178
Mof_H 	H 	0.0629	0.433	0.5315	0.107
Mof_H 	H 	0.0662	0.475	0.4979	0.105
Mof_O 	O 	0.2575	0.3348	0.70427	-0.496
Mof_O 	O 	0.3906	0.3045	0.7165	-0.556
Mof_O 	O 	0.1033	0.1955	0.8733	-0.486
Mof_O 	O 	0.2371	0.1674	0.8873	-0.507
Mof_C 	C 	0.1841	0.195	0.8657	0.304
Mof_C 	C 	0.2168	0.2322	0.8313	0.008
Mof_C 	C 	0.1609	0.2584	0.8065	-0.064
Mof_C 	C 	0.3041	0.2258	0.8217	-0.004
Mof_H 	H 	0.1008	0.2597	0.812	0.031
Mof_C 	C 	0.1924	0.2835	0.7727	0.025
Mof_C 	C 	0.3381	0.2532	0.7886	0.202
Mof_H 	H 	0.341	0.2029	0.8375	0.033
Mof_C 	C 	0.2822	0.2846	0.764	-0.009
Mof_H 	H 	0.1525	0.3001	0.7552	0.014
Mof_N 	N 	0.4275	0.2447	0.7836	-0.238
Mof_C 	C 	0.3103	0.3056	0.7258	0.347
Mof_H 	H 	0.4572	0.2245	0.8004	0.12
Mof_H 	H 	0.4537	0.2595	0.7637	0.121
Mof_C 	C 	0.225	0.0191	0.0092	-0.115
Mof_C 	C 	0.2823	0.9654	0.0772	-0.021
Mof_H 	H 	0.3947	0.0184	0.0659	0.038
Mof_C 	C 	0.1692	0.9807	0.0306	-0.059
Mof_C 	C 	0.1998	0.954	0.0637	-0.1
Mof_H 	H 	0.1634	0.9277	0.0773	0.07
Mof_H 	H 	0.3427	0.0603	0.0089	0.027
Mof_N 	N 	0.0899	0.9605	0.0185	-0.175
Mof_H 	H 	0.0629	0.933	0.0315	0.107
Mof_H 	H 	0.0662	0.975	0.9979	0.104
Mof_O 	O 	0.7575	0.8348	0.70427	-0.496
Mof_O 	O 	0.8906	0.8045	0.7165	-0.556
Mof_O 	O 	0.6033	0.6955	0.8733	-0.486
Mof_O 	O 	0.7371	0.6674	0.8873	-0.507
Mof_C 	C 	0.6841	0.695	0.8657	0.304
Mof_C 	C 	0.7168	0.7322	0.8313	0.008
Mof_C 	C 	0.6609	0.7584	0.8065	-0.064
Mof_C 	C 	0.8041	0.7258	0.8217	-0.003
Mof_H 	H 	0.6008	0.7597	0.812	0.031
Mof_C 	C 	0.6924	0.7835	0.7727	0.025
Mof_C 	C 	0.8381	0.7532	0.7886	0.203
Mof_H 	H 	0.841	0.7029	0.8375	0.033
Mof_C 	C 	0.7822	0.7846	0.764	-0.008
Mof_H 	H 	0.6525	0.8001	0.7552	0.014
Mof_N 	N 	0.9275	0.7447	0.7836	-0.238
Mof_C 	C 	0.8103	0.8056	0.7258	0.347
Mof_H 	H 	0.9572	0.7245	0.8004	0.12
Mof_H 	H 	0.9537	0.7595	0.7637	0.121
Mof_C 	C 	0.725	0.5191	0.0092	-0.112
Mof_C 	C 	0.7823	0.4654	0.0772	-0.02
Mof_H 	H 	0.8947	0.5184	0.0659	0.038
Mof_C 	C 	0.6692	0.4807	0.0306	-0.049
Mof_C 	C 	0.6998	0.454	0.0637	-0.096
Mof_H 	H 	0.6634	0.4277	0.0773	0.068
Mof_H 	H 	0.8427	0.5603	0.0089	0.027
Mof_N 	N 	0.5899	0.4605	0.0185	-0.178
Mof_H 	H 	0.5629	0.433	0.0315	0.107
Mof_H 	H 	0.5662	0.475	0.9979	0.105
Mof_O 	O 	0.7575	0.3348	0.20427	-0.496
Mof_O 	O 	0.8906	0.3045	0.2165	-0.556
Mof_O 	O 	0.6033	0.1955	0.3733	-0.486
Mof_O 	O 	0.7371	0.1674	0.3873	-0.507
Mof_C 	C 	0.6841	0.195	0.3657	0.304
Mof_C 	C 	0.7168	0.2322	0.3313	0.008
Mof_C 	C 	0.6609	0.2584	0.3065	-0.064
Mof_C 	C 	0.8041	0.2258	0.3217	-0.004
Mof_H 	H 	0.6008	0.2597	0.312	0.031
Mof_C 	C 	0.6924	0.2835	0.2727	0.025
Mof_C 	C 	0.8381	0.2532	0.2886	0.202
Mof_H 	H 	0.841	0.2029	0.3375	0.034
Mof_C 	C 	0.7822	0.2846	0.264	-0.009
Mof_H 	H 	0.6525	0.3001	0.2552	0.014
Mof_N 	N 	0.9275	0.2447	0.2836	-0.238
Mof_C 	C 	0.8103	0.3056	0.2258	0.347
Mof_H 	H 	0.9572	0.2245	0.3004	0.12
Mof_H 	H 	0.9537	0.2595	0.2637	0.121
Mof_C 	C 	0.725	0.0191	0.5092	-0.112
Mof_C 	C 	0.7823	0.9654	0.5772	-0.02
Mof_H 	H 	0.8947	0.0184	0.5659	0.038
Mof_C 	C 	0.6692	0.9807	0.5306	-0.047
Mof_C 	C 	0.6998	0.954	0.5637	-0.096
Mof_H 	H 	0.6634	0.9277	0.5773	0.067
Mof_H 	H 	0.8427	0.0603	0.5089	0.027
Mof_N 	N 	0.5899	0.9605	0.5185	-0.178
Mof_H 	H 	0.5629	0.933	0.5315	0.108
Mof_H 	H 	0.5662	0.975	0.4979	0.105
Mof_O 	O 	0.9925	0.4152	0.20427	-0.496
Mof_O 	O 	0.8594	0.4455	0.2165	-0.556
Mof_O 	O 	0.1467	0.5545	0.3733	-0.486
Mof_O 	O 	0.0129	0.5826	0.3873	-0.507
Mof_C 	C 	0.0659	0.555	0.3657	0.304
Mof_C 	C 	0.0332	0.5178	0.3313	0.008
Mof_C 	C 	0.0891	0.4916	0.3065	-0.064
Mof_C 	C 	0.9459	0.5242	0.3217	-0.004
Mof_H 	H 	0.1492	0.4903	0.312	0.031
Mof_C 	C 	0.0576	0.4665	0.2727	0.025
Mof_C 	C 	0.9119	0.4968	0.2886	0.202
Mof_H 	H 	0.909	0.5471	0.3375	0.034
Mof_C 	C 	0.9678	0.4654	0.264	-0.009
Mof_H 	H 	0.0975	0.4499	0.2552	0.014
Mof_N 	N 	0.8225	0.5053	0.2836	-0.238
Mof_C 	C 	0.9397	0.4444	0.2258	0.347
Mof_H 	H 	0.7928	0.5255	0.3004	0.12
Mof_H 	H 	0.7963	0.4905	0.2637	0.121
Mof_C 	C 	0.025	0.7309	0.5092	-0.112
Mof_C 	C 	0.9677	0.7846	0.5772	-0.02
Mof_H 	H 	0.8553	0.7316	0.5659	0.038
Mof_C 	C 	0.0808	0.7693	0.5306	-0.049
Mof_C 	C 	0.0502	0.796	0.5637	-0.096
Mof_H 	H 	0.0866	0.8223	0.5773	0.068
Mof_H 	H 	0.9073	0.6897	0.5089	0.027
Mof_N 	N 	0.1601	0.7895	0.5185	-0.178
Mof_H 	H 	0.1871	0.817	0.5315	0.107
Mof_H 	H 	0.1838	0.775	0.4979	0.105
Mof_O 	O 	0.9925	0.9152	0.70427	-0.496
Mof_O 	O 	0.8594	0.9455	0.7165	-0.556
Mof_O 	O 	0.1467	0.0545	0.8733	-0.486
Mof_O 	O 	0.0129	0.0826	0.8873	-0.507
Mof_C 	C 	0.0659	0.055	0.8657	0.305
Mof_C 	C 	0.0332	0.0178	0.8313	0.008
Mof_C 	C 	0.0891	0.9916	0.8065	-0.065
Mof_C 	C 	0.9459	0.0242	0.8217	-0
Mof_H 	H 	0.1492	0.9903	0.812	0.031
Mof_C 	C 	0.0576	0.9665	0.7727	0.025
Mof_C 	C 	0.9119	0.9968	0.7886	0.209
Mof_H 	H 	0.909	0.0471	0.8375	0.032
Mof_C 	C 	0.9678	0.9654	0.764	-0.007
Mof_H 	H 	0.0975	0.9499	0.7552	0.013
Mof_N 	N 	0.8225	0.0053	0.7836	-0.239
Mof_C 	C 	0.9397	0.9444	0.7258	0.347
Mof_H 	H 	0.7928	0.0255	0.8004	0.12
Mof_H 	H 	0.7963	0.9905	0.7637	0.121
Mof_C 	C 	0.025	0.2309	0.0092	-0.113
Mof_C 	C 	0.9677	0.2846	0.0772	-0.02
Mof_H 	H 	0.8553	0.2316	0.0659	0.038
Mof_C 	C 	0.0808	0.2693	0.0306	-0.05
Mof_C 	C 	0.0502	0.296	0.0637	-0.097
Mof_H 	H 	0.0866	0.3223	0.0773	0.068
Mof_H 	H 	0.9073	0.1897	0.0089	0.027
Mof_N 	N 	0.1601	0.2895	0.0185	-0.178
Mof_H 	H 	0.1871	0.317	0.0315	0.107
Mof_H 	H 	0.1838	0.275	0.9979	0.105
Mof_O 	O 	0.4925	0.4152	0.70427	-0.496
Mof_O 	O 	0.3594	0.4455	0.7165	-0.556
Mof_O 	O 	0.6467	0.5545	0.8733	-0.486
Mof_O 	O 	0.5129	0.5826	0.8873	-0.507
Mof_C 	C 	0.5659	0.555	0.8657	0.304
Mof_C 	C 	0.5332	0.5178	0.8313	0.008
Mof_C 	C 	0.5891	0.4916	0.8065	-0.064
Mof_C 	C 	0.4459	0.5242	0.8217	-0.004
Mof_H 	H 	0.6492	0.4903	0.812	0.031
Mof_C 	C 	0.5576	0.4665	0.7727	0.025
Mof_C 	C 	0.4119	0.4968	0.7886	0.202
Mof_H 	H 	0.409	0.5471	0.8375	0.033
Mof_C 	C 	0.4678	0.4654	0.764	-0.009
Mof_H 	H 	0.5975	0.4499	0.7552	0.014
Mof_N 	N 	0.3225	0.5053	0.7836	-0.238
Mof_C 	C 	0.4397	0.4444	0.7258	0.347
Mof_H 	H 	0.2928	0.5255	0.8004	0.12
Mof_H 	H 	0.2963	0.4905	0.7637	0.121
Mof_C 	C 	0.525	0.7309	0.0092	-0.112
Mof_C 	C 	0.4677	0.7846	0.0772	-0.02
Mof_H 	H 	0.3553	0.7316	0.0659	0.038
Mof_C 	C 	0.5808	0.7693	0.0306	-0.049
Mof_C 	C 	0.5502	0.796	0.0637	-0.096
Mof_H 	H 	0.5866	0.8223	0.0773	0.068
Mof_H 	H 	0.4073	0.6897	0.0089	0.027
Mof_N 	N 	0.6601	0.7895	0.0185	-0.178
Mof_H 	H 	0.6871	0.817	0.0315	0.107
Mof_H 	H 	0.6838	0.775	0.9979	0.105
Mof_O 	O 	0.4925	0.9152	0.20427	-0.496
Mof_O 	O 	0.3594	0.9455	0.2165	-0.556
Mof_O 	O 	0.6467	0.0545	0.3733	-0.486
Mof_O 	O 	0.5129	0.0826	0.3873	-0.507
Mof_C 	C 	0.5659	0.055	0.3657	0.304
Mof_C 	C 	0.5332	0.0178	0.3313	0.007
Mof_C 	C 	0.5891	0.9916	0.3065	-0.064
Mof_C 	C 	0.4459	0.0242	0.3217	-0.005
Mof_H 	H 	0.6492	0.9903	0.312	0.031
Mof_C 	C 	0.5576	0.9665	0.2727	0.025
Mof_C 	C 	0.4119	0.9968	0.2886	0.199
Mof_H 	H 	0.409	0.0471	0.3375	0.034
Mof_C 	C 	0.4678	0.9654	0.264	-0.009
Mof_H 	H 	0.5975	0.9499	0.2552	0.014
Mof_N 	N 	0.3225	0.0053	0.2836	-0.237
Mof_C 	C 	0.4397	0.9444	0.2258	0.347
Mof_H 	H 	0.2928	0.0255	0.3004	0.12
Mof_H 	H 	0.2963	0.9905	0.2637	0.121
Mof_C 	C 	0.525	0.2309	0.5092	-0.112
Mof_C 	C 	0.4677	0.2846	0.5772	-0.02
Mof_H 	H 	0.3553	0.2316	0.5659	0.038
Mof_C 	C 	0.5808	0.2693	0.5306	-0.049
Mof_C 	C 	0.5502	0.296	0.5637	-0.096
Mof_H 	H 	0.5866	0.3223	0.5773	0.068
Mof_H 	H 	0.4073	0.1897	0.5089	0.027
Mof_N 	N 	0.6601	0.2895	0.5185	-0.178
Mof_H 	H 	0.6871	0.317	0.5315	0.107
Mof_H 	H 	0.6838	0.275	0.4979	0.105
Mof_In	In	0.875	0.375	0.17094	2.528
Mof_In	In	0.875	0.875	0.67094	2.528
Mof_In	In	0.375	0.375	0.67094	2.528
Mof_In	In	0.375	0.875	0.17094	2.528
Mof_In	In	0.125	0.625	0.42094	2.528
Mof_In	In	0.125	0.125	0.92094	2.528
Mof_In	In	0.625	0.625	0.92094	2.528
Mof_In	In	0.625	0.125	0.42094	2.528
_end
