data_functionalizedCrystal
_audit_creation_method	'EQeq! by Chris Wilmer'
_symmetry_space_group_name_H-M	'P1'
_symmetry_Int_Tables_number	1
_symmetry_cell_setting	triclinic
loop_
_symmetry_equiv_pos_as_xyz
  x,y,z
_cell_length_a	25.9202
_cell_length_b	25.9202
_cell_length_c	6.9505
_cell_angle_alpha	90
_cell_angle_beta	90
_cell_angle_gamma	120
loop_
_atom_site_label
_atom_site_type_symbol
_atom_site_fract_x
_atom_site_fract_y
_atom_site_fract_z
_atom_site_charge
Mof_Fe	Fe	0.38617	0.35147	0.1485	0.779
Mof_O 	O 	0.31842	0.29222	0.3475	-0.421
Mof_O 	O 	0.30258	0.22647	0.5915	-0.373
Mof_O 	O 	0.35286	0.27109	0.0094	-0.412
Mof_C 	C 	0.31409	0.2458	0.4233	0.377
Mof_C 	C 	0.32761	0.20593	0.2822	-0.145
Mof_C 	C 	0.3435	0.22139	0.0912	0.205
Mof_C 	C 	0.31563	0.15232	0.3605	-0.076
Mof_H 	H 	0.3063	0.142	0.5084	0.072
Mof_Fe	Fe	0.05284	0.6848	0.48183	0.778
Mof_O 	O 	0.98509	0.62555	0.68083	-0.422
Mof_O 	O 	0.96925	0.5598	0.92483	-0.374
Mof_O 	O 	0.01953	0.60442	0.34273	-0.413
Mof_C 	C 	0.98076	0.57913	0.75663	0.376
Mof_C 	C 	0.99428	0.53926	0.61553	-0.146
Mof_C 	C 	0.01017	0.55472	0.42453	0.205
Mof_C 	C 	0.9823	0.48565	0.69383	-0.076
Mof_H 	H 	0.97297	0.47533	0.84173	0.072
Mof_Fe	Fe	0.7195	0.01814	0.81517	0.779
Mof_O 	O 	0.65175	0.95889	0.01417	-0.422
Mof_O 	O 	0.63591	0.89314	0.25817	-0.375
Mof_O 	O 	0.68619	0.93776	0.67607	-0.413
Mof_C 	C 	0.64742	0.91247	0.08997	0.376
Mof_C 	C 	0.66094	0.8726	0.94887	-0.147
Mof_C 	C 	0.67683	0.88806	0.75787	0.205
Mof_C 	C 	0.64896	0.81899	0.02717	-0.075
Mof_H 	H 	0.63963	0.80867	0.17507	0.072
Mof_Fe	Fe	0.64853	0.0347	0.1485	0.778
Mof_O 	O 	0.70778	0.0262	0.3475	-0.422
Mof_O 	O 	0.77353	0.07611	0.5915	-0.374
Mof_O 	O 	0.72891	0.08177	0.0094	-0.413
Mof_C 	C 	0.7542	0.06829	0.4233	0.376
Mof_C 	C 	0.79407	0.12168	0.2822	-0.146
Mof_C 	C 	0.77861	0.12211	0.0912	0.204
Mof_C 	C 	0.84768	0.16331	0.3605	-0.076
Mof_H 	H 	0.858	0.1643	0.5084	0.072
Mof_Fe	Fe	0.3152	0.36803	0.48183	0.778
Mof_O 	O 	0.37445	0.35953	0.68083	-0.422
Mof_O 	O 	0.4402	0.40944	0.92483	-0.375
Mof_O 	O 	0.39558	0.4151	0.34273	-0.413
Mof_C 	C 	0.42087	0.40162	0.75663	0.376
Mof_C 	C 	0.46074	0.45501	0.61553	-0.146
Mof_C 	C 	0.44528	0.45544	0.42453	0.205
Mof_C 	C 	0.51435	0.49664	0.69383	-0.076
Mof_H 	H 	0.52467	0.49763	0.84173	0.072
Mof_Fe	Fe	0.98186	0.70137	0.81517	0.779
Mof_O 	O 	0.04111	0.69287	0.01417	-0.422
Mof_O 	O 	0.10686	0.74278	0.25817	-0.375
Mof_O 	O 	0.06224	0.74844	0.67607	-0.413
Mof_C 	C 	0.08753	0.73496	0.08997	0.376
Mof_C 	C 	0.1274	0.78835	0.94887	-0.148
Mof_C 	C 	0.11194	0.78878	0.75787	0.206
Mof_C 	C 	0.18101	0.82998	0.02717	-0.075
Mof_H 	H 	0.19133	0.83097	0.17507	0.072
Mof_Fe	Fe	0.9653	0.61383	0.1485	0.778
Mof_O 	O 	0.9738	0.68158	0.3475	-0.422
Mof_O 	O 	0.92389	0.69742	0.5915	-0.374
Mof_O 	O 	0.91823	0.64714	0.0094	-0.413
Mof_C 	C 	0.93171	0.68591	0.4233	0.376
Mof_C 	C 	0.87832	0.67239	0.2822	-0.146
Mof_C 	C 	0.87789	0.6565	0.0912	0.205
Mof_C 	C 	0.83669	0.68437	0.3605	-0.076
Mof_H 	H 	0.8357	0.6937	0.5084	0.072
Mof_Fe	Fe	0.63197	0.94716	0.48183	0.778
Mof_O 	O 	0.64047	0.01491	0.68083	-0.422
Mof_O 	O 	0.59056	0.03075	0.92483	-0.374
Mof_O 	O 	0.5849	0.98047	0.34273	-0.413
Mof_C 	C 	0.59838	0.01924	0.75663	0.376
Mof_C 	C 	0.54499	0.00572	0.61553	-0.146
Mof_C 	C 	0.54456	0.98983	0.42453	0.205
Mof_C 	C 	0.50336	0.0177	0.69383	-0.076
Mof_H 	H 	0.50237	0.02703	0.84173	0.072
Mof_Fe	Fe	0.29863	0.2805	0.81517	0.778
Mof_O 	O 	0.30713	0.34825	0.01417	-0.422
Mof_O 	O 	0.25722	0.36409	0.25817	-0.375
Mof_O 	O 	0.25156	0.31381	0.67607	-0.413
Mof_C 	C 	0.26504	0.35258	0.08997	0.376
Mof_C 	C 	0.21165	0.33906	0.94887	-0.147
Mof_C 	C 	0.21122	0.32317	0.75787	0.205
Mof_C 	C 	0.17002	0.35104	0.02717	-0.075
Mof_H 	H 	0.16903	0.36037	0.17507	0.072
Mof_Fe	Fe	0.61383	0.64853	0.8515	0.778
Mof_O 	O 	0.68158	0.70778	0.6525	-0.422
Mof_O 	O 	0.69742	0.77353	0.4085	-0.374
Mof_O 	O 	0.64714	0.72891	0.9906	-0.413
Mof_C 	C 	0.68591	0.7542	0.5767	0.376
Mof_C 	C 	0.67239	0.79407	0.7178	-0.146
Mof_C 	C 	0.6565	0.77861	0.9088	0.205
Mof_C 	C 	0.68437	0.84768	0.6395	-0.076
Mof_H 	H 	0.6937	0.858	0.4916	0.072
Mof_Fe	Fe	0.2805	0.98186	0.18483	0.779
Mof_O 	O 	0.34825	0.04111	0.98583	-0.422
Mof_O 	O 	0.36409	0.10686	0.74183	-0.375
Mof_O 	O 	0.31381	0.06224	0.32393	-0.413
Mof_C 	C 	0.35258	0.08753	0.91003	0.376
Mof_C 	C 	0.33906	0.1274	0.05113	-0.147
Mof_C 	C 	0.32317	0.11194	0.24213	0.205
Mof_C 	C 	0.35104	0.18101	0.97283	-0.075
Mof_H 	H 	0.36037	0.19133	0.82493	0.072
Mof_Fe	Fe	0.94716	0.3152	0.51817	0.778
Mof_O 	O 	0.01491	0.37445	0.31917	-0.422
Mof_O 	O 	0.03075	0.4402	0.07517	-0.374
Mof_O 	O 	0.98047	0.39558	0.65727	-0.413
Mof_C 	C 	0.01924	0.42087	0.24337	0.376
Mof_C 	C 	0.00572	0.46074	0.38447	-0.146
Mof_C 	C 	0.98983	0.44528	0.57547	0.205
Mof_C 	C 	0.0177	0.51435	0.30617	-0.076
Mof_H 	H 	0.02703	0.52467	0.15827	0.072
Mof_Fe	Fe	0.35147	0.9653	0.8515	0.778
Mof_O 	O 	0.29222	0.9738	0.6525	-0.422
Mof_O 	O 	0.22647	0.92389	0.4085	-0.374
Mof_O 	O 	0.27109	0.91823	0.9906	-0.413
Mof_C 	C 	0.2458	0.93171	0.5767	0.376
Mof_C 	C 	0.20593	0.87832	0.7178	-0.146
Mof_C 	C 	0.22139	0.87789	0.9088	0.204
Mof_C 	C 	0.15232	0.83669	0.6395	-0.076
Mof_H 	H 	0.142	0.8357	0.4916	0.072
Mof_Fe	Fe	0.01814	0.29863	0.18483	0.779
Mof_O 	O 	0.95889	0.30713	0.98583	-0.422
Mof_O 	O 	0.89314	0.25722	0.74183	-0.375
Mof_O 	O 	0.93776	0.25156	0.32393	-0.413
Mof_C 	C 	0.91247	0.26504	0.91003	0.376
Mof_C 	C 	0.8726	0.21165	0.05113	-0.148
Mof_C 	C 	0.88806	0.21122	0.24213	0.206
Mof_C 	C 	0.81899	0.17002	0.97283	-0.075
Mof_H 	H 	0.80867	0.16903	0.82493	0.072
Mof_Fe	Fe	0.6848	0.63197	0.51817	0.778
Mof_O 	O 	0.62555	0.64047	0.31917	-0.422
Mof_O 	O 	0.5598	0.59056	0.07517	-0.375
Mof_O 	O 	0.60442	0.5849	0.65727	-0.413
Mof_C 	C 	0.57913	0.59838	0.24337	0.376
Mof_C 	C 	0.53926	0.54499	0.38447	-0.146
Mof_C 	C 	0.55472	0.54456	0.57547	0.205
Mof_C 	C 	0.48565	0.50336	0.30617	-0.076
Mof_H 	H 	0.47533	0.50237	0.15827	0.072
Mof_Fe	Fe	0.0347	0.38617	0.8515	0.778
Mof_O 	O 	0.0262	0.31842	0.6525	-0.422
Mof_O 	O 	0.07611	0.30258	0.4085	-0.374
Mof_O 	O 	0.08177	0.35286	0.9906	-0.413
Mof_C 	C 	0.06829	0.31409	0.5767	0.376
Mof_C 	C 	0.12168	0.32761	0.7178	-0.146
Mof_C 	C 	0.12211	0.3435	0.9088	0.205
Mof_C 	C 	0.16331	0.31563	0.6395	-0.076
Mof_H 	H 	0.1643	0.3063	0.4916	0.072
Mof_Fe	Fe	0.70137	0.7195	0.18483	0.778
Mof_O 	O 	0.69287	0.65175	0.98583	-0.422
Mof_O 	O 	0.74278	0.63591	0.74183	-0.375
Mof_O 	O 	0.74844	0.68619	0.32393	-0.413
Mof_C 	C 	0.73496	0.64742	0.91003	0.376
Mof_C 	C 	0.78835	0.66094	0.05113	-0.147
Mof_C 	C 	0.78878	0.67683	0.24213	0.205
Mof_C 	C 	0.82998	0.64896	0.97283	-0.075
Mof_H 	H 	0.83097	0.63963	0.82493	0.072
Mof_Fe	Fe	0.36803	0.05284	0.51817	0.778
Mof_O 	O 	0.35953	0.98509	0.31917	-0.422
Mof_O 	O 	0.40944	0.96925	0.07517	-0.374
Mof_O 	O 	0.4151	0.01953	0.65727	-0.413
Mof_C 	C 	0.40162	0.98076	0.24337	0.376
Mof_C 	C 	0.45501	0.99428	0.38447	-0.146
Mof_C 	C 	0.45544	0.01017	0.57547	0.205
Mof_C 	C 	0.49664	0.9823	0.30617	-0.076
Mof_H 	H 	0.49763	0.97297	0.15827	0.072
_end
