data_functionalizedCrystal
_audit_creation_method	'EQeq! by Chris Wilmer'
_symmetry_space_group_name_H-M	'P1'
_symmetry_Int_Tables_number	1
_symmetry_cell_setting	triclinic
loop_
_symmetry_equiv_pos_as_xyz
  x,y,z
_cell_length_a	11.237
_cell_length_b	20.8524
_cell_length_c	14.6189
_cell_angle_alpha	90
_cell_angle_beta	104.997
_cell_angle_gamma	90
loop_
_atom_site_label
_atom_site_type_symbol
_atom_site_fract_x
_atom_site_fract_y
_atom_site_fract_z
_atom_site_charge
Mof_U 	U 	0.77642	0.22493	0.5604	0.054
Mof_U 	U 	0.92326	0.41885	0.53737	0.049
Mof_U 	U 	0.37319	0.48573	0.87337	0.015
Mof_P 	P 	0.20307	0.44779	0.6291	0.377
Mof_P 	P 	0.60175	0.116	0.38697	0.379
Mof_P 	P 	0.61692	0.36436	0.42618	0.387
Mof_P 	P 	0.12499	0.94642	0.37525	0.377
Mof_F 	F 	0.8643	0.32712	0.5954	-0.295
Mof_O 	O 	0.1077	0.48825	0.5575	-0.142
Mof_O 	O 	0.1262	0.38971	0.6448	-0.127
Mof_O 	O 	0.2638	0.48397	0.7178	-0.155
Mof_O 	O 	0.7197	0.41252	0.4543	-0.15
Mof_O 	O 	0.6546	0.29614	0.4509	-0.128
Mof_O 	O 	0.5593	0.36619	0.3157	-0.139
Mof_O 	O 	0.7045	0.06901	0.3907	-0.165
Mof_O 	O 	0.619	0.16091	0.4701	-0.164
Mof_O 	O 	0.5825	0.15806	0.2944	-0.114
Mof_O 	O 	0.0135	0.96115	0.2908	-0.159
Mof_O 	O 	0.077	0.96925	0.4604	-0.139
Mof_O 	O 	0.165	0.87749	0.3786	-0.157
Mof_C 	C 	0.3189	0.4235	0.572	-0.003
Mof_C 	C 	0.4419	0.4361	0.6135	-0.031
Mof_H 	H 	0.4653	0.4572	0.6731	0.086
Mof_C 	C 	0.5308	0.4181	0.5686	-0.017
Mof_H 	H 	0.6151	0.4263	0.5983	0.079
Mof_C 	C 	0.4987	0.3882	0.4807	-0.018
Mof_C 	C 	0.3735	0.3763	0.4388	-0.019
Mof_H 	H 	0.3494	0.356	0.3786	0.075
Mof_C 	C 	0.2853	0.3938	0.4839	-0.026
Mof_H 	H 	0.2009	0.3855	0.4547	0.082
Mof_C 	C 	0.4645	0.0699	0.3772	-0.013
Mof_C 	C 	0.353	0.0985	0.3782	-0.017
Mof_H 	H 	0.3483	0.1439	0.3814	0.077
Mof_C 	C 	0.2486	0.062	0.3746	-0.023
Mof_H 	H 	0.1729	0.0824	0.3743	0.077
Mof_C 	C 	0.2551	0.9954	0.3714	-0.018
Mof_C 	C 	0.3657	0.9668	0.3712	-0.026
Mof_H 	H 	0.3709	0.9214	0.3692	0.078
Mof_C 	C 	0.4697	0.0037	0.3741	-0.024
Mof_H 	H 	0.5451	0.9831	0.3739	0.079
Mof_U 	U 	0.72358	0.72493	0.9396	0.054
Mof_U 	U 	0.57674	0.91885	0.96263	0.049
Mof_U 	U 	0.12681	0.98573	0.62663	0.015
Mof_P 	P 	0.29693	0.94779	0.8709	0.377
Mof_P 	P 	0.89825	0.616	0.11303	0.379
Mof_P 	P 	0.88308	0.86436	0.07382	0.387
Mof_P 	P 	0.37501	0.44642	0.12475	0.377
Mof_F 	F 	0.6357	0.82712	0.9046	-0.295
Mof_O 	O 	0.3923	0.98825	0.9425	-0.142
Mof_O 	O 	0.3738	0.88971	0.8552	-0.127
Mof_O 	O 	0.2362	0.98397	0.7822	-0.155
Mof_O 	O 	0.7803	0.91252	0.0457	-0.15
Mof_O 	O 	0.8454	0.79614	0.0491	-0.128
Mof_O 	O 	0.9407	0.86619	0.1843	-0.14
Mof_O 	O 	0.7955	0.56901	0.1093	-0.165
Mof_O 	O 	0.881	0.66091	0.0299	-0.165
Mof_O 	O 	0.9175	0.65806	0.2056	-0.114
Mof_O 	O 	0.4865	0.46115	0.2092	-0.159
Mof_O 	O 	0.423	0.46925	0.0396	-0.139
Mof_O 	O 	0.335	0.37749	0.1214	-0.157
Mof_C 	C 	0.1811	0.9235	0.928	-0.003
Mof_C 	C 	0.0581	0.9361	0.8865	-0.031
Mof_H 	H 	0.0347	0.9572	0.8269	0.086
Mof_C 	C 	0.9692	0.9181	0.9314	-0.018
Mof_H 	H 	0.8849	0.9263	0.9017	0.079
Mof_C 	C 	0.0013	0.8882	0.0193	-0.017
Mof_C 	C 	0.1265	0.8763	0.0612	-0.019
Mof_H 	H 	0.1506	0.856	0.1214	0.075
Mof_C 	C 	0.2147	0.8938	0.0161	-0.026
Mof_H 	H 	0.2991	0.8855	0.0453	0.082
Mof_C 	C 	0.0355	0.5699	0.1228	-0.013
Mof_C 	C 	0.147	0.5985	0.1218	-0.018
Mof_H 	H 	0.1517	0.6439	0.1186	0.078
Mof_C 	C 	0.2514	0.562	0.1254	-0.023
Mof_H 	H 	0.3271	0.5824	0.1257	0.076
Mof_C 	C 	0.2449	0.4954	0.1286	-0.018
Mof_C 	C 	0.1343	0.4668	0.1288	-0.026
Mof_H 	H 	0.1291	0.4214	0.1308	0.078
Mof_C 	C 	0.0303	0.5037	0.1259	-0.025
Mof_H 	H 	0.9549	0.4831	0.1261	0.079
Mof_U 	U 	0.22358	0.77507	0.4396	0.054
Mof_U 	U 	0.07674	0.58115	0.46263	0.049
Mof_U 	U 	0.62681	0.51427	0.12663	0.015
Mof_P 	P 	0.79693	0.55221	0.3709	0.377
Mof_P 	P 	0.39825	0.884	0.61303	0.379
Mof_P 	P 	0.38308	0.63564	0.57382	0.387
Mof_P 	P 	0.87501	0.05358	0.62475	0.377
Mof_F 	F 	0.1357	0.67288	0.4046	-0.295
Mof_O 	O 	0.8923	0.51175	0.4425	-0.142
Mof_O 	O 	0.8738	0.61029	0.3552	-0.127
Mof_O 	O 	0.7362	0.51603	0.2822	-0.155
Mof_O 	O 	0.2803	0.58748	0.5457	-0.15
Mof_O 	O 	0.3454	0.70386	0.5491	-0.128
Mof_O 	O 	0.4407	0.63381	0.6843	-0.139
Mof_O 	O 	0.2955	0.93099	0.6093	-0.165
Mof_O 	O 	0.381	0.83909	0.5299	-0.164
Mof_O 	O 	0.4175	0.84194	0.7056	-0.114
Mof_O 	O 	0.9865	0.03885	0.7092	-0.159
Mof_O 	O 	0.923	0.03075	0.5396	-0.139
Mof_O 	O 	0.835	0.12251	0.6214	-0.157
Mof_C 	C 	0.6811	0.5765	0.428	-0.003
Mof_C 	C 	0.5581	0.5639	0.3865	-0.031
Mof_H 	H 	0.5347	0.5428	0.3269	0.086
Mof_C 	C 	0.4692	0.5819	0.4314	-0.017
Mof_H 	H 	0.3849	0.5737	0.4017	0.079
Mof_C 	C 	0.5013	0.6118	0.5193	-0.018
Mof_C 	C 	0.6265	0.6237	0.5612	-0.019
Mof_H 	H 	0.6506	0.644	0.6214	0.075
Mof_C 	C 	0.7147	0.6062	0.5161	-0.026
Mof_H 	H 	0.7991	0.6145	0.5453	0.082
Mof_C 	C 	0.5355	0.9301	0.6228	-0.013
Mof_C 	C 	0.647	0.9015	0.6218	-0.017
Mof_H 	H 	0.6517	0.8561	0.6186	0.077
Mof_C 	C 	0.7514	0.938	0.6254	-0.023
Mof_H 	H 	0.8271	0.9176	0.6257	0.077
Mof_C 	C 	0.7449	0.0046	0.6286	-0.018
Mof_C 	C 	0.6343	0.0332	0.6288	-0.026
Mof_H 	H 	0.6291	0.0786	0.6308	0.078
Mof_C 	C 	0.5303	0.9963	0.6259	-0.024
Mof_H 	H 	0.4549	0.0169	0.6261	0.079
Mof_U 	U 	0.27642	0.27507	0.0604	0.054
Mof_U 	U 	0.42326	0.08115	0.03737	0.049
Mof_U 	U 	0.87319	0.01427	0.37337	0.015
Mof_P 	P 	0.70307	0.05221	0.1291	0.377
Mof_P 	P 	0.10175	0.384	0.88697	0.379
Mof_P 	P 	0.11692	0.13564	0.92618	0.387
Mof_P 	P 	0.62499	0.55358	0.87525	0.377
Mof_F 	F 	0.3643	0.17288	0.0954	-0.295
Mof_O 	O 	0.6077	0.01175	0.0575	-0.142
Mof_O 	O 	0.6262	0.11029	0.1448	-0.127
Mof_O 	O 	0.7638	0.01603	0.2178	-0.155
Mof_O 	O 	0.2197	0.08748	0.9543	-0.15
Mof_O 	O 	0.1546	0.20386	0.9509	-0.128
Mof_O 	O 	0.0593	0.13381	0.8157	-0.14
Mof_O 	O 	0.2045	0.43099	0.8907	-0.165
Mof_O 	O 	0.119	0.33909	0.9701	-0.165
Mof_O 	O 	0.0825	0.34194	0.7944	-0.114
Mof_O 	O 	0.5135	0.53885	0.7908	-0.159
Mof_O 	O 	0.577	0.53075	0.9604	-0.139
Mof_O 	O 	0.665	0.62251	0.8786	-0.157
Mof_C 	C 	0.8189	0.0765	0.072	-0.003
Mof_C 	C 	0.9419	0.0639	0.1135	-0.031
Mof_H 	H 	0.9653	0.0428	0.1731	0.086
Mof_C 	C 	0.0308	0.0819	0.0686	-0.018
Mof_H 	H 	0.1151	0.0737	0.0983	0.079
Mof_C 	C 	0.9987	0.1118	0.9807	-0.017
Mof_C 	C 	0.8735	0.1237	0.9388	-0.019
Mof_H 	H 	0.8494	0.144	0.8786	0.075
Mof_C 	C 	0.7853	0.1062	0.9839	-0.026
Mof_H 	H 	0.7009	0.1145	0.9547	0.082
Mof_C 	C 	0.9645	0.4301	0.8772	-0.013
Mof_C 	C 	0.853	0.4015	0.8782	-0.018
Mof_H 	H 	0.8483	0.3561	0.8814	0.078
Mof_C 	C 	0.7486	0.438	0.8746	-0.023
Mof_H 	H 	0.6729	0.4176	0.8743	0.076
Mof_C 	C 	0.7551	0.5046	0.8714	-0.018
Mof_C 	C 	0.8657	0.5332	0.8712	-0.026
Mof_H 	H 	0.8709	0.5786	0.8692	0.078
Mof_C 	C 	0.9697	0.4963	0.8741	-0.025
Mof_H 	H 	0.0451	0.5169	0.8739	0.079
_end
