data_functionalizedCrystal
_audit_creation_method	'EQeq! by Chris Wilmer'
_symmetry_space_group_name_H-M	'P1'
_symmetry_Int_Tables_number	1
_symmetry_cell_setting	triclinic
loop_
_symmetry_equiv_pos_as_xyz
  x,y,z
_cell_length_a	12.6011
_cell_length_b	13.7364
_cell_length_c	17.2874
_cell_angle_alpha	90
_cell_angle_beta	90
_cell_angle_gamma	90
loop_
_atom_site_label
_atom_site_type_symbol
_atom_site_fract_x
_atom_site_fract_y
_atom_site_fract_z
_atom_site_charge
Mof_V 	V 	0.75024	0.12483	0.75061	1.813
Mof_V 	V 	0.24976	0.12483	0.25061	1.812
Mof_V 	V 	0.75024	0.37517	0.75061	1.811
Mof_V 	V 	0.75024	0.87517	0.74939	1.806
Mof_V 	V 	0.75024	0.62483	0.74939	1.811
Mof_V 	V 	0.24976	0.62483	0.24939	1.811
Mof_V 	V 	0.24976	0.87517	0.24939	1.806
Mof_V 	V 	0.24976	0.37517	0.25061	1.811
Mof_H 	H 	0.0685	0.1037	0.4545	0.055
Mof_H 	H 	0.5531	0.8536	0.9469	0.022
Mof_H 	H 	0.5476	0.6448	0.5584	0.046
Mof_H 	H 	0.5531	0.1464	0.5531	0.074
Mof_H 	H 	0.4469	0.3536	0.0531	0.043
Mof_H 	H 	0.9681	0.1043	0.5667	0.053
Mof_H 	H 	0.4469	0.8536	0.4469	0.019
Mof_H 	H 	0.0319	0.6043	0.4333	0.049
Mof_H 	H 	0.1116	0.5	0.25	0.355
Mof_H 	H 	0.4469	0.1464	0.0531	0.071
Mof_H 	H 	0.0685	0.8963	0.0455	0.037
Mof_H 	H 	0.0685	0.6037	0.0455	0.045
Mof_H 	H 	0.386	0.75	0.268	0.327
Mof_H 	H 	0.5531	0.3536	0.5531	0.046
Mof_H 	H 	0.9681	0.6043	0.9333	0.05
Mof_H 	H 	0.0685	0.3963	0.4545	0.048
Mof_H 	H 	0.8884	0.5	0.75	0.355
Mof_H 	H 	0.5476	0.8552	0.5584	0.081
Mof_H 	H 	0.9681	0.8957	0.9333	0.043
Mof_H 	H 	0.9315	0.8963	0.5455	0.038
Mof_H 	H 	0.0319	0.3957	0.0667	0.046
Mof_H 	H 	0.4524	0.6448	0.0584	0.043
Mof_H 	H 	0.386	0.25	0.232	0.329
Mof_H 	H 	0.614	0.25	0.732	0.328
Mof_H 	H 	0.9315	0.3963	0.9545	0.049
Mof_H 	H 	0.4524	0.1448	0.4416	0.016
Mof_H 	H 	0.5476	0.3552	0.9416	0.053
Mof_H 	H 	0.4469	0.6464	0.4469	0.047
Mof_H 	H 	0.0319	0.8957	0.4333	0.042
Mof_H 	H 	0.9315	0.6037	0.5455	0.046
Mof_H 	H 	0.8884	0	0.75	0.359
Mof_H 	H 	0.9681	0.3957	0.5667	0.047
Mof_H 	H 	0.1116	0	0.25	0.359
Mof_H 	H 	0.614	0.75	0.768	0.326
Mof_H 	H 	0.5476	0.1448	0.9416	0.019
Mof_H 	H 	0.4524	0.8552	0.0584	0.077
Mof_H 	H 	0.4524	0.3552	0.4416	0.05
Mof_H 	H 	0.9315	0.1037	0.9545	0.055
Mof_H 	H 	0.0319	0.1043	0.0667	0.052
Mof_H 	H 	0.5531	0.6464	0.9469	0.05
Mof_C 	C 	0.924	0.75	0.5578	-0.105
Mof_C 	C 	0.076	0.75	0.0578	-0.107
Mof_C 	C 	0.4685	0.9125	0.46816	0.067
Mof_C 	C 	0.5595	0.99931	0.93275	-0.174
Mof_C 	C 	0.4717	0.5865	0.035	0.004
Mof_C 	C 	0.9525	0.8376	0.52343	-0.005
Mof_C 	C 	0.4717	0.0865	0.465	0.096
Mof_C 	C 	0.4405	0.50069	0.43275	-0.096
Mof_C 	C 	0.8635	0.75	0.6321	0.44
Mof_C 	C 	0.8863	0.75	0.8533	0.433
Mof_C 	C 	0.5315	0.9125	0.96816	0.055
Mof_C 	C 	0.5595	0.49931	0.56725	-0.099
Mof_C 	C 	0.5315	0.4125	0.53184	-0.007
Mof_C 	C 	0.6253	0.50205	0.86073	0.431
Mof_C 	C 	0.1365	0.25	0.3679	0.437
Mof_C 	C 	0.4685	0.4125	0.03184	0.004
Mof_C 	C 	0.5595	0.50069	0.93275	-0.089
Mof_C 	C 	0.5315	0.0875	0.53184	-0.086
Mof_C 	C 	0.5595	0.00069	0.56725	-0.014
Mof_C 	C 	0.0475	0.8376	0.02343	-0.001
Mof_C 	C 	0.9878	0.6628	0.9562	-0.019
Mof_C 	C 	0.1137	0.75	0.3533	0.434
Mof_C 	C 	0.3747	0.99795	0.36073	0.423
Mof_C 	C 	0.1365	0.75	0.1321	0.441
Mof_C 	C 	0.4717	0.4135	0.465	-0.011
Mof_C 	C 	0.0122	0.6628	0.4562	-0.015
Mof_C 	C 	0.9574	0.25	0.5769	-0.096
Mof_C 	C 	0.6253	0.99795	0.86073	0.42
Mof_C 	C 	0.9525	0.6624	0.52343	-0.004
Mof_C 	C 	0.5283	0.5865	0.535	-0.007
Mof_C 	C 	0.0475	0.1624	0.47657	-0.011
Mof_C 	C 	0.9525	0.3376	0.97657	-0.014
Mof_C 	C 	0.4685	0.5875	0.46816	-0.012
Mof_C 	C 	0.3747	0.49795	0.13927	0.438
Mof_C 	C 	0.8863	0.25	0.6467	0.434
Mof_C 	C 	0.0122	0.3372	0.0438	-0.005
Mof_C 	C 	0.9878	0.3372	0.5438	-0.007
Mof_C 	C 	0.5283	0.0865	0.965	0.085
Mof_C 	C 	0.9878	0.8372	0.9562	-0.02
Mof_C 	C 	0.1137	0.25	0.1467	0.435
Mof_C 	C 	0.4685	0.0875	0.03184	-0.075
Mof_C 	C 	0.076	0.25	0.4422	-0.095
Mof_C 	C 	0.0122	0.8372	0.4562	-0.016
Mof_C 	C 	0.4405	0.00069	0.06725	-0.022
Mof_C 	C 	0.9574	0.75	0.9231	-0.093
Mof_C 	C 	0.6253	0.49795	0.63927	0.435
Mof_C 	C 	0.0426	0.25	0.0769	-0.097
Mof_C 	C 	0.6253	0.00205	0.63927	0.446
Mof_C 	C 	0.924	0.25	0.9422	-0.094
Mof_C 	C 	0.4405	0.49931	0.06725	-0.106
Mof_C 	C 	0.5315	0.5875	0.96816	-0.023
Mof_C 	C 	0.3747	0.50205	0.36073	0.434
Mof_C 	C 	0.0426	0.75	0.4231	-0.095
Mof_C 	C 	0.4717	0.9135	0.035	-0.101
Mof_C 	C 	0.5283	0.4135	0.965	-0.022
Mof_C 	C 	0.4405	0.99931	0.43275	-0.181
Mof_C 	C 	0.9878	0.1628	0.5438	-0.006
Mof_C 	C 	0.0122	0.1628	0.0438	-0.004
Mof_C 	C 	0.8635	0.25	0.8679	0.437
Mof_C 	C 	0.5283	0.9135	0.535	-0.115
Mof_C 	C 	0.3747	0.00205	0.13927	0.448
Mof_C 	C 	0.9525	0.1624	0.97657	-0.013
Mof_C 	C 	0.0475	0.6624	0.02343	-0
Mof_C 	C 	0.0475	0.3376	0.47657	-0.012
Mof_O 	O 	0.15957	0.33121	0.33933	-0.526
Mof_O 	O 	0.1781	0.5	0.25	-0.898
Mof_O 	O 	0.65661	0.58341	0.83734	-0.524
Mof_O 	O 	0.85921	0.83124	0.82689	-0.531
Mof_O 	O 	0.14079	0.66876	0.32689	-0.525
Mof_O 	O 	0.84043	0.83121	0.66067	-0.534
Mof_O 	O 	0.35626	0.07822	0.32863	-0.499
Mof_O 	O 	0.65661	0.41659	0.66266	-0.525
Mof_O 	O 	0.34339	0.91659	0.33734	-0.528
Mof_O 	O 	0.34339	0.41659	0.16266	-0.525
Mof_O 	O 	0.14079	0.16876	0.17311	-0.522
Mof_O 	O 	0.14079	0.33124	0.17311	-0.524
Mof_O 	O 	0.34339	0.08341	0.16266	-0.524
Mof_O 	O 	0.65661	0.08341	0.66266	-0.524
Mof_O 	O 	0.65661	0.91659	0.83734	-0.528
Mof_O 	O 	0.15957	0.66879	0.16067	-0.528
Mof_O 	O 	0.35626	0.42178	0.32863	-0.521
Mof_O 	O 	0.8219	0.5	0.75	-0.898
Mof_O 	O 	0.64374	0.57822	0.67137	-0.522
Mof_O 	O 	0.34339	0.58341	0.33734	-0.525
Mof_O 	O 	0.14079	0.83124	0.32689	-0.531
Mof_O 	O 	0.85921	0.66876	0.82689	-0.525
Mof_O 	O 	0.64374	0.92178	0.67137	-0.546
Mof_O 	O 	0.15957	0.16879	0.33933	-0.523
Mof_O 	O 	0.64374	0.07822	0.82863	-0.499
Mof_O 	O 	0.84043	0.33121	0.83933	-0.526
Mof_O 	O 	0.85921	0.16876	0.67311	-0.522
Mof_O 	O 	0.84043	0.66879	0.66067	-0.528
Mof_O 	O 	0.35626	0.92178	0.17137	-0.545
Mof_O 	O 	0.15957	0.83121	0.16067	-0.534
Mof_O 	O 	0.35626	0.57822	0.17137	-0.523
Mof_O 	O 	0.8219	0	0.75	-0.882
Mof_O 	O 	0.6791	0.75	0.75342	-0.868
Mof_O 	O 	0.3209	0.25	0.24658	-0.867
Mof_O 	O 	0.1781	0	0.25	-0.883
Mof_O 	O 	0.6791	0.25	0.74658	-0.867
Mof_O 	O 	0.3209	0.75	0.25342	-0.867
Mof_O 	O 	0.85921	0.33124	0.67311	-0.524
Mof_O 	O 	0.64374	0.42178	0.82863	-0.52
Mof_O 	O 	0.84043	0.16879	0.83933	-0.523
_end
