data_functionalizedCrystal
_audit_creation_method	'EQeq! by Chris Wilmer'
_symmetry_space_group_name_H-M	'P1'
_symmetry_Int_Tables_number	1
_symmetry_cell_setting	triclinic
loop_
_symmetry_equiv_pos_as_xyz
  x,y,z
_cell_length_a	8.4557
_cell_length_b	9.2844
_cell_length_c	13.8599
_cell_angle_alpha	81.114
_cell_angle_beta	83.642
_cell_angle_gamma	72.626
loop_
_atom_site_label
_atom_site_type_symbol
_atom_site_fract_x
_atom_site_fract_y
_atom_site_fract_z
_atom_site_charge
Mof_Zn	Zn	0.29367	0.9183	0.51946	1.241
Mof_Zn	Zn	0.74556	0.4937	0.97301	1.233
Mof_Zn	Zn	0.63779	0.88788	0.12587	1.24
Mof_P 	P 	0.58114	0.2171	0.01996	0.555
Mof_P 	P 	0.5847	0.86461	0.36397	0.57
Mof_P 	P 	0.9046	0.56629	0.14874	0.579
Mof_P 	P 	0.0169	0.20793	0.42267	0.555
Mof_O 	O 	0.1668	0.0703	0.4238	-0.433
Mof_O 	O 	0.4718	0.7992	0.4396	-0.433
Mof_O 	O 	0.5967	0.018	0.3837	-0.44
Mof_O 	O 	0.8597	0.179	0.3968	-0.41
Mof_O 	O 	0.8141	0.4767	0.1035	-0.468
Mof_O 	O 	0.0911	0.498	0.1349	-0.428
Mof_O 	O 	0.7098	0.2965	0.97	-0.42
Mof_O 	O 	0.4352	0.3286	0.0697	-0.462
Mof_O 	O 	0.6642	0.0918	0.1018	-0.406
Mof_O 	O 	0.85	0.7362	0.1126	-0.463
Mof_O 	O 	0.5311	0.1443	0.9419	-0.479
Mof_O 	O 	0.5306	0.8757	0.2614	-0.403
Mof_O 	O 	0.7678	0.7538	0.3695	-0.502
Mof_H 	H 	0.769	0.6694	0.358	0.33
Mof_O 	O 	0.8576	0.5443	0.2622	-0.486
Mof_H 	H 	0.8847	0.4533	0.2829	0.328
Mof_O 	O 	0.0579	0.3336	0.3493	-0.235
Mof_O 	O 	0.9765	0.2597	0.5276	-0.478
Mof_H 	H 	0.0562	0.2812	0.5438	0.314
Mof_Zn	Zn	0.70633	0.0817	0.48054	1.242
Mof_Zn	Zn	0.25444	0.5063	0.02699	1.234
Mof_Zn	Zn	0.36221	0.11212	0.87413	1.24
Mof_P 	P 	0.41886	0.7829	0.98004	0.555
Mof_P 	P 	0.4153	0.13539	0.63603	0.57
Mof_P 	P 	0.0954	0.43371	0.85126	0.579
Mof_P 	P 	0.9831	0.79207	0.57733	0.555
Mof_O 	O 	0.8332	0.9297	0.5762	-0.433
Mof_O 	O 	0.5282	0.2008	0.5604	-0.433
Mof_O 	O 	0.4033	0.982	0.6163	-0.44
Mof_O 	O 	0.1403	0.821	0.6032	-0.41
Mof_O 	O 	0.1859	0.5233	0.8965	-0.468
Mof_O 	O 	0.9089	0.502	0.8651	-0.428
Mof_O 	O 	0.2902	0.7035	0.03	-0.42
Mof_O 	O 	0.5648	0.6714	0.9303	-0.462
Mof_O 	O 	0.3358	0.9082	0.8982	-0.406
Mof_O 	O 	0.15	0.2638	0.8874	-0.463
Mof_O 	O 	0.4689	0.8557	0.0581	-0.479
Mof_O 	O 	0.4694	0.1243	0.7386	-0.403
Mof_O 	O 	0.2322	0.2462	0.6305	-0.502
Mof_H 	H 	0.231	0.3306	0.642	0.33
Mof_O 	O 	0.1424	0.4557	0.7378	-0.486
Mof_H 	H 	0.1153	0.5467	0.7171	0.328
Mof_O 	O 	0.9421	0.6664	0.6507	-0.235
Mof_O 	O 	0.0235	0.7403	0.4724	-0.478
Mof_H 	H 	0.9438	0.7188	0.4562	0.314
_end
