data_functionalizedCrystal
_audit_creation_method	'EQeq! by Chris Wilmer'
_symmetry_space_group_name_H-M	'P1'
_symmetry_Int_Tables_number	1
_symmetry_cell_setting	triclinic
loop_
_symmetry_equiv_pos_as_xyz
  x,y,z
_cell_length_a	26.733
_cell_length_b	26.733
_cell_length_c	65.261
_cell_angle_alpha	90
_cell_angle_beta	90
_cell_angle_gamma	120
loop_
_atom_site_label
_atom_site_type_symbol
_atom_site_fract_x
_atom_site_fract_y
_atom_site_fract_z
_atom_site_charge
Mof_I 	I 	0.44286	0.69839	0.98008	-0.604
Mof_Cu	Cu	0.35326	0.62147	0.00154	0.719
Mof_N 	N 	0.3763	0.5682	0.01606	-0.249
Mof_C 	C 	0.4306	0.5875	0.0226	0.107
Mof_C 	C 	0.336	0.5174	0.02251	0.086
Mof_C 	C 	0.2837	0.6681	0.92878	-0.039
Mof_H 	H 	0.4606	0.6238	0.0178	-0.016
Mof_C 	C 	0.444	0.5571	0.03578	-0.2
Mof_C 	C 	0.3462	0.4843	0.03594	-0.163
Mof_H 	H 	0.2978	0.5028	0.0176	-0.02
Mof_H 	H 	0.2854	0.7029	0.9335	0.025
Mof_C 	C 	0.4019	0.5044	0.04298	0.096
Mof_C 	C 	0.5055	0.5812	0.04311	0.458
Mof_H 	H 	0.3155	0.4479	0.0404	0.069
Mof_H 	H 	0.4106	0.4827	0.0524	-0.004
Mof_O 	O 	0.5435	0.6239	0.03275	-0.508
Mof_O 	O 	0.51509	0.5584	0.05798	-0.496
Mof_Ti	Ti	0.63288	0.66784	0.03633	1.483
Mof_Ti	Ti	0.59647	0.57953	0.07273	1.618
Mof_O 	O 	0.6248	0.5928	0.04322	-0.612
Mof_O 	O 	0.6292	0.738	0.04296	-0.616
Mof_O 	O 	0.61285	0.66011	0.0659	-0.793
Mof_O 	O 	0.716	0.7068	0.04003	-0.512
Mof_O 	O 	0.56274	0.58623	0.09843	-0.518
Mof_C 	C 	0.637	0.5542	0.03106	0.161
Mof_Ti	Ti	0.60293	0.72219	0.0728	1.503
Mof_C 	C 	0.6412	0.7869	0.03063	0.185
Mof_P 	P 	0.56756	0.63507	0.1117	0.577
Mof_C 	C 	0.6937	0.5709	0.0297	-0.09
Mof_C 	C 	0.5831	0.509	0.0215	-0.094
Mof_O 	O 	0.57	0.68418	0.09906	-0.518
Mof_C 	C 	0.6947	0.8326	0.0312	-0.105
Mof_C 	C 	0.5914	0.7729	0.0173	-0.098
Mof_C 	C 	0.5034	0.6042	0.12641	-0.147
Mof_C 	C 	0.5033	0.6136	0.1458	0.085
Mof_C 	C 	0.4529	0.5615	0.1182	0.05
Mof_H 	H 	0.5393	0.6365	0.1525	0.001
Mof_C 	C 	0.4523	0.5914	0.1574	-0.155
Mof_C 	C 	0.4001	0.5386	0.1286	-0.117
Mof_H 	H 	0.4537	0.547	0.105	0.014
Mof_H 	H 	0.4536	0.6062	0.1708	0.078
Mof_C 	C 	0.4075	0.5543	0.1508	0.062
Mof_H 	H 	0.3813	0.4972	0.1277	0.058
Mof_H 	H 	0.3757	0.5342	0.1599	0.005
Mof_I 	I 	0.10952	0.03172	0.31341	-0.593
Mof_Cu	Cu	0.01993	0.9548	0.33487	0.719
Mof_N 	N 	0.04297	0.90153	0.34939	-0.25
Mof_C 	C 	0.09727	0.92083	0.35593	0.107
Mof_C 	C 	0.00267	0.85073	0.35584	0.096
Mof_C 	C 	0.95037	0.00143	0.26211	-0.029
Mof_H 	H 	0.12727	0.95713	0.35113	-0.017
Mof_C 	C 	0.11067	0.89043	0.36911	-0.197
Mof_C 	C 	0.01287	0.81763	0.36927	-0.146
Mof_H 	H 	0.96447	0.83613	0.35093	-0.028
Mof_H 	H 	0.95207	0.03623	0.26683	0.023
Mof_C 	C 	0.06857	0.83773	0.37631	0.09
Mof_C 	C 	0.17217	0.91453	0.37644	0.46
Mof_H 	H 	0.98217	0.78123	0.37373	0.057
Mof_H 	H 	0.07727	0.81603	0.38573	-0
Mof_O 	O 	0.21017	0.95723	0.36608	-0.515
Mof_O 	O 	0.18176	0.89173	0.39131	-0.497
Mof_Ti	Ti	0.29955	0.00117	0.36967	1.506
Mof_Ti	Ti	0.26314	0.91286	0.40606	1.617
Mof_O 	O 	0.29147	0.92613	0.37655	-0.618
Mof_O 	O 	0.29587	0.07133	0.37629	-0.617
Mof_O 	O 	0.27952	0.99344	0.39923	-0.805
Mof_O 	O 	0.38267	0.04013	0.37336	-0.512
Mof_O 	O 	0.22941	0.91956	0.43176	-0.518
Mof_C 	C 	0.30367	0.88753	0.36439	0.162
Mof_Ti	Ti	0.2696	0.05552	0.40614	1.515
Mof_C 	C 	0.30787	0.12023	0.36396	0.186
Mof_P 	P 	0.23423	0.9684	0.44503	0.571
Mof_C 	C 	0.36037	0.90423	0.36303	-0.094
Mof_C 	C 	0.24977	0.84233	0.35483	-0.095
Mof_O 	O 	0.23667	0.01751	0.43239	-0.512
Mof_C 	C 	0.36137	0.16593	0.36453	-0.103
Mof_C 	C 	0.25807	0.10623	0.35063	-0.096
Mof_C 	C 	0.17007	0.93753	0.45974	-0.147
Mof_C 	C 	0.16997	0.94693	0.47913	0.083
Mof_C 	C 	0.11957	0.89483	0.45153	0.049
Mof_H 	H 	0.20597	0.96983	0.48583	-0.001
Mof_C 	C 	0.11897	0.92473	0.49073	-0.154
Mof_C 	C 	0.06677	0.87193	0.46193	-0.115
Mof_H 	H 	0.12037	0.88033	0.43833	0.015
Mof_H 	H 	0.12027	0.93953	0.50413	0.076
Mof_C 	C 	0.07417	0.88763	0.48413	0.06
Mof_H 	H 	0.04797	0.83053	0.46103	0.06
Mof_H 	H 	0.04237	0.86753	0.49323	0.008
Mof_I 	I 	0.77619	0.36506	0.64674	-0.604
Mof_Cu	Cu	0.68659	0.28814	0.6682	0.72
Mof_N 	N 	0.70963	0.23487	0.68273	-0.248
Mof_C 	C 	0.76393	0.25417	0.68927	0.108
Mof_C 	C 	0.66933	0.18407	0.68918	0.087
Mof_C 	C 	0.61703	0.33477	0.59545	-0.038
Mof_H 	H 	0.79393	0.29047	0.68447	-0.015
Mof_C 	C 	0.77733	0.22377	0.70245	-0.198
Mof_C 	C 	0.67953	0.15097	0.70261	-0.161
Mof_H 	H 	0.63113	0.16947	0.68427	-0.018
Mof_H 	H 	0.61873	0.36957	0.60017	0.027
Mof_C 	C 	0.73523	0.17107	0.70965	0.097
Mof_C 	C 	0.83883	0.24787	0.70978	0.459
Mof_H 	H 	0.64883	0.11457	0.70707	0.071
Mof_H 	H 	0.74393	0.14937	0.71907	-0.003
Mof_O 	O 	0.87683	0.29057	0.69942	-0.506
Mof_O 	O 	0.84842	0.22507	0.72465	-0.494
Mof_Ti	Ti	0.96621	0.33451	0.703	1.471
Mof_Ti	Ti	0.9298	0.2462	0.7394	1.607
Mof_O 	O 	0.95813	0.25947	0.70989	-0.61
Mof_O 	O 	0.96253	0.40467	0.70963	-0.613
Mof_O 	O 	0.94618	0.32678	0.73257	-0.792
Mof_O 	O 	0.04933	0.37347	0.7067	-0.505
Mof_O 	O 	0.89607	0.2529	0.7651	-0.518
Mof_C 	C 	0.97033	0.22087	0.69773	0.148
Mof_Ti	Ti	0.93626	0.38886	0.73947	1.492
Mof_C 	C 	0.97453	0.45357	0.6973	0.171
Mof_P 	P 	0.90089	0.30174	0.77837	0.577
Mof_C 	C 	0.02703	0.23757	0.69637	-0.077
Mof_C 	C 	0.91643	0.17567	0.68817	-0.092
Mof_O 	O 	0.90333	0.35085	0.76573	-0.518
Mof_C 	C 	0.02803	0.49927	0.69787	-0.09
Mof_C 	C 	0.92473	0.43957	0.68397	-0.097
Mof_C 	C 	0.83673	0.27087	0.79308	-0.148
Mof_C 	C 	0.83663	0.28027	0.81247	0.086
Mof_C 	C 	0.78623	0.22817	0.78487	0.051
Mof_H 	H 	0.87263	0.30317	0.81917	-0
Mof_C 	C 	0.78563	0.25807	0.82407	-0.156
Mof_C 	C 	0.73343	0.20527	0.79527	-0.118
Mof_H 	H 	0.78703	0.21367	0.77167	0.014
Mof_H 	H 	0.78693	0.27287	0.83747	0.079
Mof_C 	C 	0.74083	0.22097	0.81747	0.063
Mof_H 	H 	0.71463	0.16387	0.79437	0.059
Mof_H 	H 	0.70903	0.20087	0.82657	0.004
Mof_I 	I 	0.30161	0.74447	0.98008	-0.604
Mof_Cu	Cu	0.37853	0.73179	0.00154	0.72
Mof_N 	N 	0.4318	0.8081	0.01606	-0.248
Mof_C 	C 	0.4125	0.8431	0.0226	0.109
Mof_C 	C 	0.4826	0.8186	0.02251	0.087
Mof_C 	C 	0.3319	0.6156	0.92878	-0.039
Mof_H 	H 	0.3762	0.8368	0.0178	-0.015
Mof_C 	C 	0.4429	0.8869	0.03578	-0.2
Mof_C 	C 	0.5157	0.8619	0.03594	-0.163
Mof_H 	H 	0.4972	0.795	0.0176	-0.019
Mof_H 	H 	0.2971	0.5825	0.9335	0.027
Mof_C 	C 	0.4956	0.8975	0.04298	0.097
Mof_C 	C 	0.4188	0.9243	0.04311	0.46
Mof_H 	H 	0.5521	0.8676	0.0404	0.069
Mof_H 	H 	0.5173	0.9279	0.0524	-0.006
Mof_O 	O 	0.3761	0.9196	0.03275	-0.508
Mof_O 	O 	0.4416	0.95669	0.05798	-0.502
Mof_Ti	Ti	0.33216	0.96504	0.03633	1.467
Mof_Ti	Ti	0.42047	0.01694	0.07273	1.638
Mof_O 	O 	0.4072	0.032	0.04322	-0.607
Mof_O 	O 	0.262	0.8912	0.04296	-0.614
Mof_O 	O 	0.33989	0.95274	0.0659	-0.798
Mof_O 	O 	0.2932	0.0092	0.04003	-0.505
Mof_O 	O 	0.41377	0.97651	0.09843	-0.525
Mof_C 	C 	0.4458	0.0828	0.03106	0.16
Mof_Ti	Ti	0.27781	0.88074	0.0728	1.504
Mof_C 	C 	0.2131	0.8543	0.03063	0.184
Mof_P 	P 	0.36493	0.93249	0.1117	0.576
Mof_C 	C 	0.4291	0.1228	0.0297	-0.089
Mof_C 	C 	0.491	0.0741	0.0215	-0.09
Mof_O 	O 	0.31582	0.88582	0.09906	-0.519
Mof_C 	C 	0.1674	0.8621	0.0312	-0.103
Mof_C 	C 	0.2271	0.8185	0.0173	-0.097
Mof_C 	C 	0.3958	0.8992	0.12641	-0.147
Mof_C 	C 	0.3864	0.8897	0.1458	0.084
Mof_C 	C 	0.4385	0.8914	0.1182	0.049
Mof_H 	H 	0.3635	0.9028	0.1525	0.001
Mof_C 	C 	0.4086	0.8609	0.1574	-0.155
Mof_C 	C 	0.4614	0.8615	0.1286	-0.116
Mof_H 	H 	0.453	0.9067	0.105	0.013
Mof_H 	H 	0.3938	0.8474	0.1708	0.078
Mof_C 	C 	0.4457	0.8532	0.1508	0.061
Mof_H 	H 	0.5028	0.8841	0.1277	0.057
Mof_H 	H 	0.4658	0.8415	0.1599	0.005
Mof_I 	I 	0.96828	0.0778	0.31341	-0.609
Mof_Cu	Cu	0.0452	0.06512	0.33487	0.723
Mof_N 	N 	0.09847	0.14143	0.34939	-0.247
Mof_C 	C 	0.07917	0.17643	0.35593	0.108
Mof_C 	C 	0.14927	0.15193	0.35584	0.086
Mof_C 	C 	0.99857	0.94893	0.26211	-0.067
Mof_H 	H 	0.04287	0.17013	0.35113	-0.012
Mof_C 	C 	0.10957	0.22023	0.36911	-0.197
Mof_C 	C 	0.18237	0.19523	0.36927	-0.161
Mof_H 	H 	0.16387	0.12833	0.35093	-0.018
Mof_H 	H 	0.96377	0.91583	0.26683	0.032
Mof_C 	C 	0.16227	0.23083	0.37631	0.096
Mof_C 	C 	0.08547	0.25763	0.37644	0.458
Mof_H 	H 	0.21877	0.20093	0.37373	0.069
Mof_H 	H 	0.18397	0.26123	0.38573	-0.004
Mof_O 	O 	0.04277	0.25293	0.36608	-0.5
Mof_O 	O 	0.10827	0.29002	0.39131	-0.495
Mof_Ti	Ti	0.99883	0.29837	0.36967	1.462
Mof_Ti	Ti	0.08714	0.35027	0.40606	1.618
Mof_O 	O 	0.07387	0.36533	0.37655	-0.606
Mof_O 	O 	0.92867	0.22453	0.37629	-0.613
Mof_O 	O 	0.00656	0.28607	0.39923	-0.782
Mof_O 	O 	0.95987	0.34253	0.37336	-0.511
Mof_O 	O 	0.08044	0.30984	0.43176	-0.518
Mof_C 	C 	0.11247	0.41613	0.36439	0.16
Mof_Ti	Ti	0.94448	0.21407	0.40614	1.494
Mof_C 	C 	0.87977	0.18763	0.36396	0.185
Mof_P 	P 	0.0316	0.26582	0.44503	0.582
Mof_C 	C 	0.09577	0.45613	0.36303	-0.086
Mof_C 	C 	0.15767	0.40743	0.35483	-0.093
Mof_O 	O 	0.98249	0.21915	0.43239	-0.525
Mof_C 	C 	0.83407	0.19543	0.36453	-0.102
Mof_C 	C 	0.89377	0.15183	0.35063	-0.098
Mof_C 	C 	0.06247	0.23253	0.45974	-0.145
Mof_C 	C 	0.05307	0.22303	0.47913	0.085
Mof_C 	C 	0.10517	0.22473	0.45153	0.049
Mof_H 	H 	0.03017	0.23613	0.48583	0.004
Mof_C 	C 	0.07527	0.19423	0.49073	-0.153
Mof_C 	C 	0.12807	0.19483	0.46193	-0.114
Mof_H 	H 	0.11967	0.24003	0.43833	0.015
Mof_H 	H 	0.06047	0.18073	0.50413	0.081
Mof_C 	C 	0.11237	0.18653	0.48413	0.061
Mof_H 	H 	0.16947	0.21743	0.46103	0.058
Mof_H 	H 	0.13247	0.17483	0.49323	0.006
Mof_I 	I 	0.63494	0.41113	0.64674	-0.603
Mof_Cu	Cu	0.71186	0.39846	0.6682	0.72
Mof_N 	N 	0.76513	0.47477	0.68273	-0.248
Mof_C 	C 	0.74583	0.50977	0.68927	0.108
Mof_C 	C 	0.81593	0.48527	0.68918	0.086
Mof_C 	C 	0.66523	0.28227	0.59545	-0.039
Mof_H 	H 	0.70953	0.50347	0.68447	-0.015
Mof_C 	C 	0.77623	0.55357	0.70245	-0.199
Mof_C 	C 	0.84903	0.52857	0.70261	-0.162
Mof_H 	H 	0.83053	0.46167	0.68427	-0.019
Mof_H 	H 	0.63043	0.24917	0.60017	0.027
Mof_C 	C 	0.82893	0.56417	0.70965	0.097
Mof_C 	C 	0.75213	0.59097	0.70978	0.459
Mof_H 	H 	0.88543	0.53427	0.70707	0.068
Mof_H 	H 	0.85063	0.59457	0.71907	-0.005
Mof_O 	O 	0.70943	0.58627	0.69942	-0.508
Mof_O 	O 	0.77493	0.62336	0.72465	-0.497
Mof_Ti	Ti	0.66549	0.63171	0.703	1.483
Mof_Ti	Ti	0.7538	0.68361	0.7394	1.617
Mof_O 	O 	0.74053	0.69867	0.70989	-0.612
Mof_O 	O 	0.59533	0.55787	0.70963	-0.615
Mof_O 	O 	0.67322	0.61941	0.73257	-0.793
Mof_O 	O 	0.62653	0.67587	0.7067	-0.512
Mof_O 	O 	0.7471	0.64318	0.7651	-0.518
Mof_C 	C 	0.77913	0.74947	0.69773	0.161
Mof_Ti	Ti	0.61114	0.54741	0.73947	1.504
Mof_C 	C 	0.54643	0.52097	0.6973	0.185
Mof_P 	P 	0.69826	0.59916	0.77837	0.577
Mof_C 	C 	0.76243	0.78947	0.69637	-0.09
Mof_C 	C 	0.82433	0.74077	0.68817	-0.096
Mof_O 	O 	0.64915	0.55249	0.76573	-0.518
Mof_C 	C 	0.50073	0.52877	0.69787	-0.103
Mof_C 	C 	0.56043	0.48517	0.68397	-0.098
Mof_C 	C 	0.72913	0.56587	0.79308	-0.147
Mof_C 	C 	0.71973	0.55637	0.81247	0.085
Mof_C 	C 	0.77183	0.55807	0.78487	0.05
Mof_H 	H 	0.69683	0.56947	0.81917	0.001
Mof_C 	C 	0.74193	0.52757	0.82407	-0.155
Mof_C 	C 	0.79473	0.52817	0.79527	-0.117
Mof_H 	H 	0.78633	0.57337	0.77167	0.014
Mof_H 	H 	0.72713	0.51407	0.83747	0.078
Mof_C 	C 	0.77903	0.51987	0.81747	0.061
Mof_H 	H 	0.83613	0.55077	0.79437	0.058
Mof_H 	H 	0.79913	0.50817	0.82657	0.005
Mof_I 	I 	0.25553	0.55714	0.98008	-0.603
Mof_Cu	Cu	0.26821	0.64674	0.00154	0.721
Mof_N 	N 	0.1919	0.6237	0.01606	-0.248
Mof_C 	C 	0.1569	0.5694	0.0226	0.108
Mof_C 	C 	0.1814	0.664	0.02251	0.087
Mof_C 	C 	0.3844	0.7163	0.92878	-0.039
Mof_H 	H 	0.1632	0.5394	0.0178	-0.015
Mof_C 	C 	0.1131	0.556	0.03578	-0.198
Mof_C 	C 	0.1381	0.6538	0.03594	-0.161
Mof_H 	H 	0.205	0.7022	0.0176	-0.019
Mof_H 	H 	0.4175	0.7146	0.9335	0.027
Mof_C 	C 	0.1025	0.5981	0.04298	0.097
Mof_C 	C 	0.0757	0.4945	0.04311	0.459
Mof_H 	H 	0.1324	0.6845	0.0404	0.07
Mof_H 	H 	0.0721	0.5894	0.0524	-0.002
Mof_O 	O 	0.0804	0.4565	0.03275	-0.507
Mof_O 	O 	0.04331	0.48491	0.05798	-0.49
Mof_Ti	Ti	0.03496	0.36712	0.03633	1.5
Mof_Ti	Ti	0.98306	0.40353	0.07273	1.598
Mof_O 	O 	0.968	0.3752	0.04322	-0.616
Mof_O 	O 	0.1088	0.3708	0.04296	-0.617
Mof_O 	O 	0.04726	0.38715	0.0659	-0.789
Mof_O 	O 	0.9908	0.284	0.04003	-0.518
Mof_O 	O 	0.02349	0.43726	0.09843	-0.511
Mof_C 	C 	0.9172	0.363	0.03106	0.161
Mof_Ti	Ti	0.11926	0.39707	0.0728	1.504
Mof_C 	C 	0.1457	0.3588	0.03063	0.185
Mof_P 	P 	0.06751	0.43244	0.1117	0.577
Mof_C 	C 	0.8772	0.3063	0.0297	-0.09
Mof_C 	C 	0.9259	0.4169	0.0215	-0.098
Mof_O 	O 	0.11418	0.43	0.09906	-0.518
Mof_C 	C 	0.1379	0.3053	0.0312	-0.101
Mof_C 	C 	0.1815	0.4086	0.0173	-0.097
Mof_C 	C 	0.1008	0.4966	0.12641	-0.147
Mof_C 	C 	0.1103	0.4967	0.1458	0.086
Mof_C 	C 	0.1086	0.5471	0.1182	0.051
Mof_H 	H 	0.0972	0.4607	0.1525	0.002
Mof_C 	C 	0.1391	0.5477	0.1574	-0.155
Mof_C 	C 	0.1385	0.5999	0.1286	-0.117
Mof_H 	H 	0.0933	0.5463	0.105	0.015
Mof_H 	H 	0.1526	0.5464	0.1708	0.079
Mof_C 	C 	0.1468	0.5925	0.1508	0.063
Mof_H 	H 	0.1159	0.6187	0.1277	0.06
Mof_H 	H 	0.1585	0.6243	0.1599	0.005
Mof_I 	I 	0.9222	0.89048	0.31341	-0.615
Mof_Cu	Cu	0.93488	0.98007	0.33487	0.713
Mof_N 	N 	0.85857	0.95703	0.34939	-0.249
Mof_C 	C 	0.82357	0.90273	0.35593	0.109
Mof_C 	C 	0.84807	0.99733	0.35584	0.076
Mof_C 	C 	0.05107	0.04963	0.26211	-0.035
Mof_H 	H 	0.82987	0.87273	0.35113	-0.016
Mof_C 	C 	0.77977	0.88933	0.36911	-0.203
Mof_C 	C 	0.80477	0.98713	0.36927	-0.179
Mof_H 	H 	0.87167	0.03553	0.35093	-0.01
Mof_H 	H 	0.08417	0.04793	0.26683	0.029
Mof_C 	C 	0.76917	0.93143	0.37631	0.105
Mof_C 	C 	0.74237	0.82783	0.37644	0.46
Mof_H 	H 	0.79907	0.01783	0.37373	0.081
Mof_H 	H 	0.73877	0.92273	0.38573	-0.009
Mof_O 	O 	0.74707	0.78983	0.36608	-0.508
Mof_O 	O 	0.70998	0.81824	0.39131	-0.497
Mof_Ti	Ti	0.70163	0.70045	0.36967	1.484
Mof_Ti	Ti	0.64973	0.73686	0.40606	1.617
Mof_O 	O 	0.63467	0.70853	0.37655	-0.612
Mof_O 	O 	0.77547	0.70413	0.37629	-0.615
Mof_O 	O 	0.71393	0.72048	0.39923	-0.793
Mof_O 	O 	0.65747	0.61733	0.37336	-0.512
Mof_O 	O 	0.69016	0.77059	0.43176	-0.518
Mof_C 	C 	0.58387	0.69633	0.36439	0.161
Mof_Ti	Ti	0.78593	0.7304	0.40614	1.501
Mof_C 	C 	0.81237	0.69213	0.36396	0.185
Mof_P 	P 	0.73418	0.76577	0.44503	0.577
Mof_C 	C 	0.54387	0.63963	0.36303	-0.09
Mof_C 	C 	0.59257	0.75023	0.35483	-0.095
Mof_O 	O 	0.78085	0.76333	0.43239	-0.519
Mof_C 	C 	0.80457	0.63863	0.36453	-0.104
Mof_C 	C 	0.84817	0.74193	0.35063	-0.099
Mof_C 	C 	0.76747	0.82993	0.45974	-0.15
Mof_C 	C 	0.77697	0.83003	0.47913	0.087
Mof_C 	C 	0.77527	0.88043	0.45153	0.052
Mof_H 	H 	0.76387	0.79403	0.48583	0
Mof_C 	C 	0.80577	0.88103	0.49073	-0.159
Mof_C 	C 	0.80517	0.93323	0.46193	-0.122
Mof_H 	H 	0.75997	0.87963	0.43833	0.012
Mof_H 	H 	0.81927	0.87973	0.50413	0.078
Mof_C 	C 	0.81347	0.92583	0.48413	0.065
Mof_H 	H 	0.78257	0.95203	0.46103	0.058
Mof_H 	H 	0.82517	0.95763	0.49323	0
Mof_I 	I 	0.58887	0.22381	0.64674	-0.602
Mof_Cu	Cu	0.60154	0.31341	0.6682	0.72
Mof_N 	N 	0.52523	0.29037	0.68273	-0.248
Mof_C 	C 	0.49023	0.23607	0.68927	0.109
Mof_C 	C 	0.51473	0.33067	0.68918	0.087
Mof_C 	C 	0.71773	0.38297	0.59545	-0.038
Mof_H 	H 	0.49653	0.20607	0.68447	-0.015
Mof_C 	C 	0.44643	0.22267	0.70245	-0.199
Mof_C 	C 	0.47143	0.32047	0.70261	-0.162
Mof_H 	H 	0.53833	0.36887	0.68427	-0.019
Mof_H 	H 	0.75083	0.38127	0.60017	0.026
Mof_C 	C 	0.43583	0.26477	0.70965	0.097
Mof_C 	C 	0.40903	0.16117	0.70978	0.46
Mof_H 	H 	0.46573	0.35117	0.70707	0.069
Mof_H 	H 	0.40543	0.25607	0.71907	-0.004
Mof_O 	O 	0.41373	0.12317	0.69942	-0.509
Mof_O 	O 	0.37664	0.15158	0.72465	-0.497
Mof_Ti	Ti	0.36829	0.03379	0.703	1.495
Mof_Ti	Ti	0.31639	0.0702	0.7394	1.619
Mof_O 	O 	0.30133	0.04187	0.70989	-0.613
Mof_O 	O 	0.44213	0.03747	0.70963	-0.617
Mof_O 	O 	0.38059	0.05382	0.73257	-0.793
Mof_O 	O 	0.32413	0.95067	0.7067	-0.518
Mof_O 	O 	0.35682	0.10393	0.7651	-0.517
Mof_C 	C 	0.25053	0.02967	0.69773	0.173
Mof_Ti	Ti	0.45259	0.06374	0.73947	1.506
Mof_C 	C 	0.47903	0.02547	0.6973	0.198
Mof_P 	P 	0.40084	0.09911	0.77837	0.576
Mof_C 	C 	0.21053	0.97297	0.69637	-0.102
Mof_C 	C 	0.25923	0.08357	0.68817	-0.095
Mof_O 	O 	0.44751	0.09667	0.76573	-0.518
Mof_C 	C 	0.47123	0.97197	0.69787	-0.116
Mof_C 	C 	0.51483	0.07527	0.68397	-0.098
Mof_C 	C 	0.43413	0.16327	0.79308	-0.146
Mof_C 	C 	0.44363	0.16337	0.81247	0.084
Mof_C 	C 	0.44193	0.21377	0.78487	0.049
Mof_H 	H 	0.43053	0.12737	0.81917	0.002
Mof_C 	C 	0.47243	0.21437	0.82407	-0.154
Mof_C 	C 	0.47183	0.26657	0.79527	-0.116
Mof_H 	H 	0.42663	0.21297	0.77167	0.014
Mof_H 	H 	0.48593	0.21307	0.83747	0.078
Mof_C 	C 	0.48013	0.25917	0.81747	0.061
Mof_H 	H 	0.44923	0.28537	0.79437	0.058
Mof_H 	H 	0.49183	0.29097	0.82657	0.005
Mof_I 	I 	0.69839	0.44286	0.51992	-0.603
Mof_Cu	Cu	0.62147	0.35326	0.49846	0.72
Mof_N 	N 	0.5682	0.3763	0.48394	-0.248
Mof_C 	C 	0.5875	0.4306	0.4774	0.108
Mof_C 	C 	0.5174	0.336	0.47749	0.087
Mof_C 	C 	0.6681	0.2837	0.57122	-0.038
Mof_H 	H 	0.6238	0.4606	0.4822	-0.015
Mof_C 	C 	0.5571	0.444	0.46422	-0.199
Mof_C 	C 	0.4843	0.3462	0.46406	-0.162
Mof_H 	H 	0.5028	0.2978	0.4824	-0.019
Mof_H 	H 	0.7029	0.2854	0.5665	0.026
Mof_C 	C 	0.5044	0.4019	0.45702	0.097
Mof_C 	C 	0.5812	0.5055	0.45689	0.459
Mof_H 	H 	0.4479	0.3155	0.4596	0.069
Mof_H 	H 	0.4827	0.4106	0.4476	-0.004
Mof_O 	O 	0.6239	0.5435	0.46725	-0.508
Mof_O 	O 	0.5584	0.51509	0.44202	-0.496
Mof_Ti	Ti	0.66784	0.63288	0.46367	1.483
Mof_Ti	Ti	0.57953	0.59647	0.42727	1.618
Mof_O 	O 	0.5928	0.6248	0.45678	-0.612
Mof_O 	O 	0.738	0.6292	0.45704	-0.616
Mof_O 	O 	0.66011	0.61285	0.4341	-0.793
Mof_O 	O 	0.7068	0.716	0.45997	-0.512
Mof_O 	O 	0.58623	0.56274	0.40157	-0.518
Mof_C 	C 	0.5542	0.637	0.46894	0.161
Mof_Ti	Ti	0.72219	0.60293	0.4272	1.503
Mof_C 	C 	0.7869	0.6412	0.46937	0.185
Mof_P 	P 	0.63507	0.56756	0.3883	0.577
Mof_C 	C 	0.5709	0.6937	0.4703	-0.09
Mof_C 	C 	0.509	0.5831	0.4785	-0.094
Mof_O 	O 	0.68418	0.57	0.40094	-0.518
Mof_C 	C 	0.8326	0.6947	0.4688	-0.105
Mof_C 	C 	0.7729	0.5914	0.4827	-0.098
Mof_C 	C 	0.6042	0.5034	0.37359	-0.147
Mof_C 	C 	0.6136	0.5033	0.3542	0.085
Mof_C 	C 	0.5615	0.4529	0.3818	0.05
Mof_H 	H 	0.6365	0.5393	0.3475	0.001
Mof_C 	C 	0.5914	0.4523	0.3426	-0.155
Mof_C 	C 	0.5386	0.4001	0.3714	-0.117
Mof_H 	H 	0.547	0.4537	0.395	0.014
Mof_H 	H 	0.6062	0.4536	0.3292	0.078
Mof_C 	C 	0.5543	0.4075	0.3492	0.062
Mof_H 	H 	0.4972	0.3813	0.3723	0.058
Mof_H 	H 	0.5342	0.3757	0.3401	0.005
Mof_I 	I 	0.36506	0.77619	0.85326	-0.604
Mof_Cu	Cu	0.28814	0.68659	0.8318	0.72
Mof_N 	N 	0.23487	0.70963	0.81727	-0.248
Mof_C 	C 	0.25417	0.76393	0.81073	0.108
Mof_C 	C 	0.18407	0.66933	0.81082	0.087
Mof_C 	C 	0.33477	0.61703	0.90455	-0.038
Mof_H 	H 	0.29047	0.79393	0.81553	-0.015
Mof_C 	C 	0.22377	0.77733	0.79755	-0.198
Mof_C 	C 	0.15097	0.67953	0.79739	-0.161
Mof_H 	H 	0.16947	0.63113	0.81573	-0.018
Mof_H 	H 	0.36957	0.61873	0.89983	0.027
Mof_C 	C 	0.17107	0.73523	0.79035	0.097
Mof_C 	C 	0.24787	0.83883	0.79022	0.459
Mof_H 	H 	0.11457	0.64883	0.79293	0.071
Mof_H 	H 	0.14937	0.74393	0.78093	-0.003
Mof_O 	O 	0.29057	0.87683	0.80058	-0.506
Mof_O 	O 	0.22507	0.84842	0.77535	-0.494
Mof_Ti	Ti	0.33451	0.96621	0.797	1.471
Mof_Ti	Ti	0.2462	0.9298	0.7606	1.607
Mof_O 	O 	0.25947	0.95813	0.79011	-0.61
Mof_O 	O 	0.40467	0.96253	0.79037	-0.613
Mof_O 	O 	0.32678	0.94618	0.76743	-0.792
Mof_O 	O 	0.37347	0.04933	0.7933	-0.505
Mof_O 	O 	0.2529	0.89607	0.7349	-0.518
Mof_C 	C 	0.22087	0.97033	0.80227	0.148
Mof_Ti	Ti	0.38886	0.93626	0.76053	1.492
Mof_C 	C 	0.45357	0.97453	0.8027	0.171
Mof_P 	P 	0.30174	0.90089	0.72163	0.577
Mof_C 	C 	0.23757	0.02703	0.80363	-0.077
Mof_C 	C 	0.17567	0.91643	0.81183	-0.092
Mof_O 	O 	0.35085	0.90333	0.73427	-0.518
Mof_C 	C 	0.49927	0.02803	0.80213	-0.09
Mof_C 	C 	0.43957	0.92473	0.81603	-0.097
Mof_C 	C 	0.27087	0.83673	0.70692	-0.148
Mof_C 	C 	0.28027	0.83663	0.68753	0.086
Mof_C 	C 	0.22817	0.78623	0.71513	0.051
Mof_H 	H 	0.30317	0.87263	0.68083	-0
Mof_C 	C 	0.25807	0.78563	0.67593	-0.156
Mof_C 	C 	0.20527	0.73343	0.70473	-0.118
Mof_H 	H 	0.21367	0.78703	0.72833	0.014
Mof_H 	H 	0.27287	0.78693	0.66253	0.079
Mof_C 	C 	0.22097	0.74083	0.68253	0.063
Mof_H 	H 	0.16387	0.71463	0.70563	0.059
Mof_H 	H 	0.20087	0.70903	0.67343	0.004
Mof_I 	I 	0.03172	0.10952	0.18659	-0.593
Mof_Cu	Cu	0.9548	0.01993	0.16513	0.719
Mof_N 	N 	0.90153	0.04297	0.15061	-0.25
Mof_C 	C 	0.92083	0.09727	0.14407	0.107
Mof_C 	C 	0.85073	0.00267	0.14416	0.096
Mof_C 	C 	0.00143	0.95037	0.23789	-0.029
Mof_H 	H 	0.95713	0.12727	0.14887	-0.017
Mof_C 	C 	0.89043	0.11067	0.13089	-0.197
Mof_C 	C 	0.81763	0.01287	0.13073	-0.146
Mof_H 	H 	0.83613	0.96447	0.14907	-0.028
Mof_H 	H 	0.03623	0.95207	0.23317	0.023
Mof_C 	C 	0.83773	0.06857	0.12369	0.09
Mof_C 	C 	0.91453	0.17217	0.12356	0.46
Mof_H 	H 	0.78123	0.98217	0.12627	0.057
Mof_H 	H 	0.81603	0.07727	0.11427	-0
Mof_O 	O 	0.95723	0.21017	0.13392	-0.515
Mof_O 	O 	0.89173	0.18176	0.10869	-0.497
Mof_Ti	Ti	0.00117	0.29955	0.13033	1.506
Mof_Ti	Ti	0.91286	0.26314	0.09394	1.617
Mof_O 	O 	0.92613	0.29147	0.12345	-0.618
Mof_O 	O 	0.07133	0.29587	0.12371	-0.617
Mof_O 	O 	0.99344	0.27952	0.10077	-0.805
Mof_O 	O 	0.04013	0.38267	0.12664	-0.512
Mof_O 	O 	0.91956	0.22941	0.06824	-0.518
Mof_C 	C 	0.88753	0.30367	0.13561	0.162
Mof_Ti	Ti	0.05552	0.2696	0.09386	1.515
Mof_C 	C 	0.12023	0.30787	0.13604	0.186
Mof_P 	P 	0.9684	0.23423	0.05497	0.571
Mof_C 	C 	0.90423	0.36037	0.13697	-0.094
Mof_C 	C 	0.84233	0.24977	0.14517	-0.095
Mof_O 	O 	0.01751	0.23667	0.06761	-0.512
Mof_C 	C 	0.16593	0.36137	0.13547	-0.103
Mof_C 	C 	0.10623	0.25807	0.14937	-0.096
Mof_C 	C 	0.93753	0.17007	0.04026	-0.147
Mof_C 	C 	0.94693	0.16997	0.02087	0.083
Mof_C 	C 	0.89483	0.11957	0.04847	0.049
Mof_H 	H 	0.96983	0.20597	0.01417	-0.001
Mof_C 	C 	0.92473	0.11897	0.00927	-0.154
Mof_C 	C 	0.87193	0.06677	0.03807	-0.115
Mof_H 	H 	0.88033	0.12037	0.06167	0.015
Mof_H 	H 	0.93953	0.12027	0.99587	0.076
Mof_C 	C 	0.88763	0.07417	0.01587	0.06
Mof_H 	H 	0.83053	0.04797	0.03897	0.06
Mof_H 	H 	0.86753	0.04237	0.00677	0.008
Mof_I 	I 	0.74447	0.30161	0.51992	-0.604
Mof_Cu	Cu	0.73179	0.37853	0.49846	0.72
Mof_N 	N 	0.8081	0.4318	0.48394	-0.248
Mof_C 	C 	0.8431	0.4125	0.4774	0.109
Mof_C 	C 	0.8186	0.4826	0.47749	0.087
Mof_C 	C 	0.6156	0.3319	0.57122	-0.039
Mof_H 	H 	0.8368	0.3762	0.4822	-0.015
Mof_C 	C 	0.8869	0.4429	0.46422	-0.2
Mof_C 	C 	0.8619	0.5157	0.46406	-0.163
Mof_H 	H 	0.795	0.4972	0.4824	-0.019
Mof_H 	H 	0.5825	0.2971	0.5665	0.027
Mof_C 	C 	0.8975	0.4956	0.45702	0.097
Mof_C 	C 	0.9243	0.4188	0.45689	0.46
Mof_H 	H 	0.8676	0.5521	0.4596	0.069
Mof_H 	H 	0.9279	0.5173	0.4476	-0.006
Mof_O 	O 	0.9196	0.3761	0.46725	-0.508
Mof_O 	O 	0.95669	0.4416	0.44202	-0.502
Mof_Ti	Ti	0.96504	0.33216	0.46367	1.467
Mof_Ti	Ti	0.01694	0.42047	0.42727	1.638
Mof_O 	O 	0.032	0.4072	0.45678	-0.607
Mof_O 	O 	0.8912	0.262	0.45704	-0.614
Mof_O 	O 	0.95274	0.33989	0.4341	-0.798
Mof_O 	O 	0.0092	0.2932	0.45997	-0.505
Mof_O 	O 	0.97651	0.41377	0.40157	-0.525
Mof_C 	C 	0.0828	0.4458	0.46894	0.16
Mof_Ti	Ti	0.88074	0.27781	0.4272	1.504
Mof_C 	C 	0.8543	0.2131	0.46937	0.184
Mof_P 	P 	0.93249	0.36493	0.3883	0.576
Mof_C 	C 	0.1228	0.4291	0.4703	-0.089
Mof_C 	C 	0.0741	0.491	0.4785	-0.09
Mof_O 	O 	0.88582	0.31582	0.40094	-0.519
Mof_C 	C 	0.8621	0.1674	0.4688	-0.103
Mof_C 	C 	0.8185	0.2271	0.4827	-0.097
Mof_C 	C 	0.8992	0.3958	0.37359	-0.147
Mof_C 	C 	0.8897	0.3864	0.3542	0.084
Mof_C 	C 	0.8914	0.4385	0.3818	0.049
Mof_H 	H 	0.9028	0.3635	0.3475	0.001
Mof_C 	C 	0.8609	0.4086	0.3426	-0.155
Mof_C 	C 	0.8615	0.4614	0.3714	-0.116
Mof_H 	H 	0.9067	0.453	0.395	0.013
Mof_H 	H 	0.8474	0.3938	0.3292	0.078
Mof_C 	C 	0.8532	0.4457	0.3492	0.061
Mof_H 	H 	0.8841	0.5028	0.3723	0.057
Mof_H 	H 	0.8415	0.4658	0.3401	0.005
Mof_I 	I 	0.41113	0.63494	0.85326	-0.603
Mof_Cu	Cu	0.39846	0.71186	0.8318	0.72
Mof_N 	N 	0.47477	0.76513	0.81727	-0.248
Mof_C 	C 	0.50977	0.74583	0.81073	0.108
Mof_C 	C 	0.48527	0.81593	0.81082	0.086
Mof_C 	C 	0.28227	0.66523	0.90455	-0.039
Mof_H 	H 	0.50347	0.70953	0.81553	-0.015
Mof_C 	C 	0.55357	0.77623	0.79755	-0.199
Mof_C 	C 	0.52857	0.84903	0.79739	-0.162
Mof_H 	H 	0.46167	0.83053	0.81573	-0.019
Mof_H 	H 	0.24917	0.63043	0.89983	0.027
Mof_C 	C 	0.56417	0.82893	0.79035	0.097
Mof_C 	C 	0.59097	0.75213	0.79022	0.459
Mof_H 	H 	0.53427	0.88543	0.79293	0.068
Mof_H 	H 	0.59457	0.85063	0.78093	-0.005
Mof_O 	O 	0.58627	0.70943	0.80058	-0.508
Mof_O 	O 	0.62336	0.77493	0.77535	-0.497
Mof_Ti	Ti	0.63171	0.66549	0.797	1.483
Mof_Ti	Ti	0.68361	0.7538	0.7606	1.617
Mof_O 	O 	0.69867	0.74053	0.79011	-0.612
Mof_O 	O 	0.55787	0.59533	0.79037	-0.615
Mof_O 	O 	0.61941	0.67322	0.76743	-0.793
Mof_O 	O 	0.67587	0.62653	0.7933	-0.512
Mof_O 	O 	0.64318	0.7471	0.7349	-0.518
Mof_C 	C 	0.74947	0.77913	0.80227	0.161
Mof_Ti	Ti	0.54741	0.61114	0.76053	1.504
Mof_C 	C 	0.52097	0.54643	0.8027	0.185
Mof_P 	P 	0.59916	0.69826	0.72163	0.577
Mof_C 	C 	0.78947	0.76243	0.80363	-0.09
Mof_C 	C 	0.74077	0.82433	0.81183	-0.096
Mof_O 	O 	0.55249	0.64915	0.73427	-0.518
Mof_C 	C 	0.52877	0.50073	0.80213	-0.103
Mof_C 	C 	0.48517	0.56043	0.81603	-0.098
Mof_C 	C 	0.56587	0.72913	0.70692	-0.147
Mof_C 	C 	0.55637	0.71973	0.68753	0.085
Mof_C 	C 	0.55807	0.77183	0.71513	0.05
Mof_H 	H 	0.56947	0.69683	0.68083	0.001
Mof_C 	C 	0.52757	0.74193	0.67593	-0.155
Mof_C 	C 	0.52817	0.79473	0.70473	-0.117
Mof_H 	H 	0.57337	0.78633	0.72833	0.014
Mof_H 	H 	0.51407	0.72713	0.66253	0.078
Mof_C 	C 	0.51987	0.77903	0.68253	0.061
Mof_H 	H 	0.55077	0.83613	0.70563	0.058
Mof_H 	H 	0.50817	0.79913	0.67343	0.005
Mof_I 	I 	0.0778	0.96828	0.18659	-0.609
Mof_Cu	Cu	0.06512	0.0452	0.16513	0.723
Mof_N 	N 	0.14143	0.09847	0.15061	-0.247
Mof_C 	C 	0.17643	0.07917	0.14407	0.108
Mof_C 	C 	0.15193	0.14927	0.14416	0.086
Mof_C 	C 	0.94893	0.99857	0.23789	-0.067
Mof_H 	H 	0.17013	0.04287	0.14887	-0.012
Mof_C 	C 	0.22023	0.10957	0.13089	-0.197
Mof_C 	C 	0.19523	0.18237	0.13073	-0.161
Mof_H 	H 	0.12833	0.16387	0.14907	-0.018
Mof_H 	H 	0.91583	0.96377	0.23317	0.032
Mof_C 	C 	0.23083	0.16227	0.12369	0.096
Mof_C 	C 	0.25763	0.08547	0.12356	0.458
Mof_H 	H 	0.20093	0.21877	0.12627	0.069
Mof_H 	H 	0.26123	0.18397	0.11427	-0.004
Mof_O 	O 	0.25293	0.04277	0.13392	-0.5
Mof_O 	O 	0.29002	0.10827	0.10869	-0.495
Mof_Ti	Ti	0.29837	0.99883	0.13033	1.462
Mof_Ti	Ti	0.35027	0.08714	0.09394	1.618
Mof_O 	O 	0.36533	0.07387	0.12345	-0.606
Mof_O 	O 	0.22453	0.92867	0.12371	-0.613
Mof_O 	O 	0.28607	0.00656	0.10077	-0.782
Mof_O 	O 	0.34253	0.95987	0.12664	-0.511
Mof_O 	O 	0.30984	0.08044	0.06824	-0.518
Mof_C 	C 	0.41613	0.11247	0.13561	0.16
Mof_Ti	Ti	0.21407	0.94448	0.09386	1.494
Mof_C 	C 	0.18763	0.87977	0.13604	0.185
Mof_P 	P 	0.26582	0.0316	0.05497	0.582
Mof_C 	C 	0.45613	0.09577	0.13697	-0.086
Mof_C 	C 	0.40743	0.15767	0.14517	-0.093
Mof_O 	O 	0.21915	0.98249	0.06761	-0.525
Mof_C 	C 	0.19543	0.83407	0.13547	-0.102
Mof_C 	C 	0.15183	0.89377	0.14937	-0.098
Mof_C 	C 	0.23253	0.06247	0.04026	-0.145
Mof_C 	C 	0.22303	0.05307	0.02087	0.085
Mof_C 	C 	0.22473	0.10517	0.04847	0.049
Mof_H 	H 	0.23613	0.03017	0.01417	0.004
Mof_C 	C 	0.19423	0.07527	0.00927	-0.153
Mof_C 	C 	0.19483	0.12807	0.03807	-0.114
Mof_H 	H 	0.24003	0.11967	0.06167	0.015
Mof_H 	H 	0.18073	0.06047	0.99587	0.081
Mof_C 	C 	0.18653	0.11237	0.01587	0.061
Mof_H 	H 	0.21743	0.16947	0.03897	0.058
Mof_H 	H 	0.17483	0.13247	0.00677	0.006
Mof_I 	I 	0.55714	0.25553	0.51992	-0.603
Mof_Cu	Cu	0.64674	0.26821	0.49846	0.721
Mof_N 	N 	0.6237	0.1919	0.48394	-0.248
Mof_C 	C 	0.5694	0.1569	0.4774	0.108
Mof_C 	C 	0.664	0.1814	0.47749	0.087
Mof_C 	C 	0.7163	0.3844	0.57122	-0.039
Mof_H 	H 	0.5394	0.1632	0.4822	-0.015
Mof_C 	C 	0.556	0.1131	0.46422	-0.198
Mof_C 	C 	0.6538	0.1381	0.46406	-0.161
Mof_H 	H 	0.7022	0.205	0.4824	-0.019
Mof_H 	H 	0.7146	0.4175	0.5665	0.027
Mof_C 	C 	0.5981	0.1025	0.45702	0.097
Mof_C 	C 	0.4945	0.0757	0.45689	0.459
Mof_H 	H 	0.6845	0.1324	0.4596	0.07
Mof_H 	H 	0.5894	0.0721	0.4476	-0.002
Mof_O 	O 	0.4565	0.0804	0.46725	-0.507
Mof_O 	O 	0.48491	0.04331	0.44202	-0.49
Mof_Ti	Ti	0.36712	0.03496	0.46367	1.5
Mof_Ti	Ti	0.40353	0.98306	0.42727	1.598
Mof_O 	O 	0.3752	0.968	0.45678	-0.616
Mof_O 	O 	0.3708	0.1088	0.45704	-0.617
Mof_O 	O 	0.38715	0.04726	0.4341	-0.789
Mof_O 	O 	0.284	0.9908	0.45997	-0.518
Mof_O 	O 	0.43726	0.02349	0.40157	-0.511
Mof_C 	C 	0.363	0.9172	0.46894	0.161
Mof_Ti	Ti	0.39707	0.11926	0.4272	1.504
Mof_C 	C 	0.3588	0.1457	0.46937	0.185
Mof_P 	P 	0.43244	0.06751	0.3883	0.577
Mof_C 	C 	0.3063	0.8772	0.4703	-0.09
Mof_C 	C 	0.4169	0.9259	0.4785	-0.098
Mof_O 	O 	0.43	0.11418	0.40094	-0.518
Mof_C 	C 	0.3053	0.1379	0.4688	-0.101
Mof_C 	C 	0.4086	0.1815	0.4827	-0.097
Mof_C 	C 	0.4966	0.1008	0.37359	-0.147
Mof_C 	C 	0.4967	0.1103	0.3542	0.086
Mof_C 	C 	0.5471	0.1086	0.3818	0.051
Mof_H 	H 	0.4607	0.0972	0.3475	0.002
Mof_C 	C 	0.5477	0.1391	0.3426	-0.155
Mof_C 	C 	0.5999	0.1385	0.3714	-0.117
Mof_H 	H 	0.5463	0.0933	0.395	0.015
Mof_H 	H 	0.5464	0.1526	0.3292	0.079
Mof_C 	C 	0.5925	0.1468	0.3492	0.063
Mof_H 	H 	0.6187	0.1159	0.3723	0.06
Mof_H 	H 	0.6243	0.1585	0.3401	0.005
Mof_I 	I 	0.22381	0.58887	0.85326	-0.602
Mof_Cu	Cu	0.31341	0.60154	0.8318	0.72
Mof_N 	N 	0.29037	0.52523	0.81727	-0.248
Mof_C 	C 	0.23607	0.49023	0.81073	0.109
Mof_C 	C 	0.33067	0.51473	0.81082	0.087
Mof_C 	C 	0.38297	0.71773	0.90455	-0.038
Mof_H 	H 	0.20607	0.49653	0.81553	-0.015
Mof_C 	C 	0.22267	0.44643	0.79755	-0.199
Mof_C 	C 	0.32047	0.47143	0.79739	-0.162
Mof_H 	H 	0.36887	0.53833	0.81573	-0.019
Mof_H 	H 	0.38127	0.75083	0.89983	0.026
Mof_C 	C 	0.26477	0.43583	0.79035	0.097
Mof_C 	C 	0.16117	0.40903	0.79022	0.46
Mof_H 	H 	0.35117	0.46573	0.79293	0.069
Mof_H 	H 	0.25607	0.40543	0.78093	-0.004
Mof_O 	O 	0.12317	0.41373	0.80058	-0.509
Mof_O 	O 	0.15158	0.37664	0.77535	-0.497
Mof_Ti	Ti	0.03379	0.36829	0.797	1.495
Mof_Ti	Ti	0.0702	0.31639	0.7606	1.619
Mof_O 	O 	0.04187	0.30133	0.79011	-0.613
Mof_O 	O 	0.03747	0.44213	0.79037	-0.617
Mof_O 	O 	0.05382	0.38059	0.76743	-0.793
Mof_O 	O 	0.95067	0.32413	0.7933	-0.518
Mof_O 	O 	0.10393	0.35682	0.7349	-0.517
Mof_C 	C 	0.02967	0.25053	0.80227	0.173
Mof_Ti	Ti	0.06374	0.45259	0.76053	1.506
Mof_C 	C 	0.02547	0.47903	0.8027	0.198
Mof_P 	P 	0.09911	0.40084	0.72163	0.576
Mof_C 	C 	0.97297	0.21053	0.80363	-0.102
Mof_C 	C 	0.08357	0.25923	0.81183	-0.095
Mof_O 	O 	0.09667	0.44751	0.73427	-0.518
Mof_C 	C 	0.97197	0.47123	0.80213	-0.116
Mof_C 	C 	0.07527	0.51483	0.81603	-0.098
Mof_C 	C 	0.16327	0.43413	0.70692	-0.146
Mof_C 	C 	0.16337	0.44363	0.68753	0.084
Mof_C 	C 	0.21377	0.44193	0.71513	0.049
Mof_H 	H 	0.12737	0.43053	0.68083	0.002
Mof_C 	C 	0.21437	0.47243	0.67593	-0.154
Mof_C 	C 	0.26657	0.47183	0.70473	-0.116
Mof_H 	H 	0.21297	0.42663	0.72833	0.014
Mof_H 	H 	0.21307	0.48593	0.66253	0.078
Mof_C 	C 	0.25917	0.48013	0.68253	0.061
Mof_H 	H 	0.28537	0.44923	0.70563	0.058
Mof_H 	H 	0.29097	0.49183	0.67343	0.005
Mof_I 	I 	0.89048	0.9222	0.18659	-0.615
Mof_Cu	Cu	0.98007	0.93488	0.16513	0.713
Mof_N 	N 	0.95703	0.85857	0.15061	-0.249
Mof_C 	C 	0.90273	0.82357	0.14407	0.109
Mof_C 	C 	0.99733	0.84807	0.14416	0.076
Mof_C 	C 	0.04963	0.05107	0.23789	-0.035
Mof_H 	H 	0.87273	0.82987	0.14887	-0.016
Mof_C 	C 	0.88933	0.77977	0.13089	-0.203
Mof_C 	C 	0.98713	0.80477	0.13073	-0.179
Mof_H 	H 	0.03553	0.87167	0.14907	-0.01
Mof_H 	H 	0.04793	0.08417	0.23317	0.029
Mof_C 	C 	0.93143	0.76917	0.12369	0.105
Mof_C 	C 	0.82783	0.74237	0.12356	0.46
Mof_H 	H 	0.01783	0.79907	0.12627	0.081
Mof_H 	H 	0.92273	0.73877	0.11427	-0.009
Mof_O 	O 	0.78983	0.74707	0.13392	-0.508
Mof_O 	O 	0.81824	0.70998	0.10869	-0.497
Mof_Ti	Ti	0.70045	0.70163	0.13033	1.484
Mof_Ti	Ti	0.73686	0.64973	0.09394	1.617
Mof_O 	O 	0.70853	0.63467	0.12345	-0.612
Mof_O 	O 	0.70413	0.77547	0.12371	-0.615
Mof_O 	O 	0.72048	0.71393	0.10077	-0.793
Mof_O 	O 	0.61733	0.65747	0.12664	-0.512
Mof_O 	O 	0.77059	0.69016	0.06824	-0.518
Mof_C 	C 	0.69633	0.58387	0.13561	0.161
Mof_Ti	Ti	0.7304	0.78593	0.09386	1.501
Mof_C 	C 	0.69213	0.81237	0.13604	0.185
Mof_P 	P 	0.76577	0.73418	0.05497	0.577
Mof_C 	C 	0.63963	0.54387	0.13697	-0.09
Mof_C 	C 	0.75023	0.59257	0.14517	-0.095
Mof_O 	O 	0.76333	0.78085	0.06761	-0.519
Mof_C 	C 	0.63863	0.80457	0.13547	-0.104
Mof_C 	C 	0.74193	0.84817	0.14937	-0.099
Mof_C 	C 	0.82993	0.76747	0.04026	-0.15
Mof_C 	C 	0.83003	0.77697	0.02087	0.087
Mof_C 	C 	0.88043	0.77527	0.04847	0.052
Mof_H 	H 	0.79403	0.76387	0.01417	0
Mof_C 	C 	0.88103	0.80577	0.00927	-0.159
Mof_C 	C 	0.93323	0.80517	0.03807	-0.122
Mof_H 	H 	0.87963	0.75997	0.06167	0.012
Mof_H 	H 	0.87973	0.81927	0.99587	0.078
Mof_C 	C 	0.92583	0.81347	0.01587	0.065
Mof_H 	H 	0.95203	0.78257	0.03897	0.058
Mof_H 	H 	0.95763	0.82517	0.00677	0
Mof_Cu	Cu	0.33333	0.66667	0.96856	0.712
Mof_I 	I 	0.33333	0.66667	0.03584	-0.586
Mof_N 	N 	0.33333	0.66667	0.93647	-0.184
Mof_Cu	Cu	-0	-1.99996e-32	0.30189	0.719
Mof_I 	I 	-9.99978e-33	0	0.36917	-0.566
Mof_N 	N 	4.99989e-33	0	0.2698	-0.172
Mof_Cu	Cu	0.66667	0.33333	0.63523	0.711
Mof_I 	I 	0.66667	0.33333	0.7025	-0.586
Mof_N 	N 	0.66667	0.33333	0.60314	-0.184
Mof_Cu	Cu	0.66667	0.33333	0.53144	0.712
Mof_I 	I 	0.66667	0.33333	0.46416	-0.586
Mof_N 	N 	0.66667	0.33333	0.56353	-0.184
Mof_Cu	Cu	0.33333	0.66667	0.86477	0.711
Mof_I 	I 	0.33333	0.66667	0.7975	-0.586
Mof_N 	N 	0.33333	0.66667	0.89686	-0.184
Mof_Cu	Cu	4.99989e-33	0	0.19811	0.719
Mof_I 	I 	-7.49984e-33	0	0.13083	-0.566
Mof_N 	N 	9.99978e-33	9.99978e-33	0.2302	-0.172
Mof_O 	O 	0.66667	0.60238	0.08333	-0.785
Mof_O 	O 	0.66667	0.78358	0.08333	-0.746
Mof_O 	O 	0.39762	0.06428	0.08333	-0.787
Mof_O 	O 	0.21642	0.88308	0.08333	-0.744
Mof_O 	O 	0.93572	0.33333	0.08333	-0.784
Mof_O 	O 	0.11692	0.33333	0.08333	-0.747
Mof_O 	O 	0.60238	0.66667	0.41667	-0.785
Mof_O 	O 	0.78358	0.66667	0.41667	-0.746
Mof_O 	O 	0.26905	0	0.75	-0.777
Mof_O 	O 	0.45025	0	0.75	-0.738
Mof_O 	O 	0.06428	0.39762	0.41667	-0.787
Mof_O 	O 	0.88308	0.21642	0.41667	-0.744
Mof_O 	O 	0.73095	0.73095	0.75	-0.785
Mof_O 	O 	0.54975	0.54975	0.75	-0.746
Mof_O 	O 	0.33333	0.93572	0.41667	-0.784
Mof_O 	O 	0.33333	0.11692	0.41667	-0.747
Mof_O 	O 	9.53171e-19	0.26905	0.75	-0.777
Mof_O 	O 	9.53171e-19	0.45025	0.75	-0.738
Mof_I 	I 	0.55714	0.30161	0.01992	-0.603
Mof_Cu	Cu	0.64674	0.37853	0.99847	0.72
Mof_N 	N 	0.6237	0.4318	0.98394	-0.248
Mof_C 	C 	0.5694	0.4125	0.9774	0.109
Mof_C 	C 	0.664	0.4826	0.97749	0.087
Mof_C 	C 	0.7163	0.3319	0.07122	-0.039
Mof_H 	H 	0.5394	0.3762	0.9822	-0.015
Mof_C 	C 	0.556	0.4429	0.96422	-0.199
Mof_C 	C 	0.6538	0.5157	0.96406	-0.162
Mof_H 	H 	0.7022	0.4972	0.9824	-0.019
Mof_H 	H 	0.7146	0.2971	0.0665	0.027
Mof_C 	C 	0.5981	0.4956	0.95702	0.097
Mof_C 	C 	0.4945	0.4188	0.95689	0.459
Mof_H 	H 	0.6845	0.5521	0.9596	0.069
Mof_H 	H 	0.5894	0.5173	0.9476	-0.004
Mof_O 	O 	0.4565	0.3761	0.96725	-0.508
Mof_O 	O 	0.48491	0.4416	0.94202	-0.496
Mof_Ti	Ti	0.36712	0.33216	0.96367	1.483
Mof_Ti	Ti	0.40353	0.42047	0.92727	1.618
Mof_O 	O 	0.3752	0.4072	0.95678	-0.612
Mof_O 	O 	0.3708	0.262	0.95704	-0.615
Mof_O 	O 	0.38715	0.33989	0.9341	-0.793
Mof_O 	O 	0.284	0.2932	0.95997	-0.512
Mof_O 	O 	0.43726	0.41377	0.90157	-0.518
Mof_C 	C 	0.363	0.4458	0.96894	0.161
Mof_Ti	Ti	0.39707	0.27781	0.9272	1.504
Mof_C 	C 	0.3588	0.2131	0.96937	0.185
Mof_P 	P 	0.43244	0.36493	0.8883	0.577
Mof_C 	C 	0.3063	0.4291	0.9703	-0.089
Mof_C 	C 	0.4169	0.491	0.9785	-0.094
Mof_O 	O 	0.43	0.31582	0.90094	-0.518
Mof_C 	C 	0.3053	0.1674	0.9688	-0.101
Mof_C 	C 	0.4086	0.2271	0.9827	-0.097
Mof_C 	C 	0.4966	0.3958	0.87359	-0.147
Mof_C 	C 	0.4967	0.3864	0.8542	0.085
Mof_C 	C 	0.5471	0.4385	0.8818	0.05
Mof_H 	H 	0.4607	0.3635	0.8475	0.001
Mof_C 	C 	0.5477	0.4086	0.8426	-0.155
Mof_C 	C 	0.5999	0.4614	0.8714	-0.117
Mof_H 	H 	0.5463	0.453	0.895	0.014
Mof_H 	H 	0.5464	0.3938	0.8292	0.078
Mof_C 	C 	0.5925	0.4457	0.8492	0.062
Mof_H 	H 	0.6187	0.5028	0.8723	0.058
Mof_H 	H 	0.6243	0.4658	0.8401	0.005
Mof_I 	I 	0.22381	0.63494	0.35326	-0.602
Mof_Cu	Cu	0.31341	0.71186	0.3318	0.72
Mof_N 	N 	0.29037	0.76513	0.31727	-0.248
Mof_C 	C 	0.23607	0.74583	0.31073	0.109
Mof_C 	C 	0.33067	0.81593	0.31082	0.086
Mof_C 	C 	0.38297	0.66523	0.40455	-0.039
Mof_H 	H 	0.20607	0.70953	0.31553	-0.015
Mof_C 	C 	0.22267	0.77623	0.29755	-0.199
Mof_C 	C 	0.32047	0.84903	0.29739	-0.162
Mof_H 	H 	0.36887	0.83053	0.31573	-0.019
Mof_H 	H 	0.38127	0.63043	0.39983	0.027
Mof_C 	C 	0.26477	0.82893	0.29035	0.097
Mof_C 	C 	0.16117	0.75213	0.29022	0.46
Mof_H 	H 	0.35117	0.88543	0.29293	0.068
Mof_H 	H 	0.25607	0.85063	0.28093	-0.005
Mof_O 	O 	0.12317	0.70943	0.30058	-0.509
Mof_O 	O 	0.15158	0.77493	0.27535	-0.497
Mof_Ti	Ti	0.03379	0.66549	0.297	1.495
Mof_Ti	Ti	0.0702	0.7538	0.2606	1.618
Mof_O 	O 	0.04187	0.74053	0.29011	-0.613
Mof_O 	O 	0.03747	0.59533	0.29037	-0.617
Mof_O 	O 	0.05382	0.67322	0.26743	-0.793
Mof_O 	O 	0.95067	0.62653	0.2933	-0.518
Mof_O 	O 	0.10393	0.7471	0.2349	-0.518
Mof_C 	C 	0.02967	0.77913	0.30227	0.174
Mof_Ti	Ti	0.06374	0.61114	0.26053	1.506
Mof_C 	C 	0.02547	0.54643	0.3027	0.199
Mof_P 	P 	0.09911	0.69826	0.22163	0.576
Mof_C 	C 	0.97297	0.76243	0.30363	-0.103
Mof_C 	C 	0.08357	0.82433	0.31183	-0.097
Mof_O 	O 	0.09667	0.64915	0.23427	-0.518
Mof_C 	C 	0.97197	0.50073	0.30213	-0.116
Mof_C 	C 	0.07527	0.56043	0.31603	-0.098
Mof_C 	C 	0.16327	0.72913	0.20692	-0.146
Mof_C 	C 	0.16337	0.71973	0.18753	0.083
Mof_C 	C 	0.21377	0.77183	0.21513	0.049
Mof_H 	H 	0.12737	0.69683	0.18083	0.003
Mof_C 	C 	0.21437	0.74193	0.17593	-0.153
Mof_C 	C 	0.26657	0.79473	0.20473	-0.116
Mof_H 	H 	0.21297	0.78633	0.22833	0.014
Mof_H 	H 	0.21307	0.72713	0.16253	0.078
Mof_C 	C 	0.25917	0.77903	0.18253	0.06
Mof_H 	H 	0.28537	0.83613	0.20563	0.058
Mof_H 	H 	0.29097	0.79913	0.17343	0.005
Mof_I 	I 	0.89048	0.96828	0.68659	-0.619
Mof_Cu	Cu	0.98007	0.0452	0.66513	0.718
Mof_N 	N 	0.95703	0.09847	0.65061	-0.248
Mof_C 	C 	0.90273	0.07917	0.64407	0.109
Mof_C 	C 	0.99733	0.14927	0.64416	0.077
Mof_C 	C 	0.04963	0.99857	0.73789	-0.058
Mof_H 	H 	0.87273	0.04287	0.64887	-0.013
Mof_C 	C 	0.88933	0.10957	0.63089	-0.201
Mof_C 	C 	0.98713	0.18237	0.63073	-0.177
Mof_H 	H 	0.03553	0.16387	0.64907	-0.01
Mof_H 	H 	0.04793	0.96377	0.73317	0.032
Mof_C 	C 	0.93143	0.16227	0.62369	0.104
Mof_C 	C 	0.82783	0.08547	0.62356	0.459
Mof_H 	H 	0.01783	0.21877	0.62627	0.081
Mof_H 	H 	0.92273	0.18397	0.61427	-0.008
Mof_O 	O 	0.78983	0.04277	0.63392	-0.5
Mof_O 	O 	0.81824	0.10827	0.60869	-0.496
Mof_Ti	Ti	0.70045	0.99883	0.63033	1.462
Mof_Ti	Ti	0.73686	0.08714	0.59394	1.618
Mof_O 	O 	0.70853	0.07387	0.62345	-0.606
Mof_O 	O 	0.70413	0.92867	0.62371	-0.613
Mof_O 	O 	0.72048	0.00656	0.60077	-0.782
Mof_O 	O 	0.61733	0.95987	0.62664	-0.511
Mof_O 	O 	0.77059	0.08044	0.56824	-0.518
Mof_C 	C 	0.69633	0.11247	0.63561	0.16
Mof_Ti	Ti	0.7304	0.94448	0.59386	1.492
Mof_C 	C 	0.69213	0.87977	0.63604	0.185
Mof_P 	P 	0.76577	0.0316	0.55497	0.583
Mof_C 	C 	0.63963	0.09577	0.63697	-0.086
Mof_C 	C 	0.75023	0.15767	0.64517	-0.093
Mof_O 	O 	0.76333	0.98249	0.56761	-0.525
Mof_C 	C 	0.63863	0.83407	0.63547	-0.103
Mof_C 	C 	0.74193	0.89377	0.64937	-0.1
Mof_C 	C 	0.82993	0.06247	0.54026	-0.147
Mof_C 	C 	0.83003	0.05307	0.52087	0.087
Mof_C 	C 	0.88043	0.10517	0.54847	0.051
Mof_H 	H 	0.79403	0.03017	0.51417	0.003
Mof_C 	C 	0.88103	0.07527	0.50927	-0.157
Mof_C 	C 	0.93323	0.12807	0.53807	-0.119
Mof_H 	H 	0.87963	0.11967	0.56167	0.013
Mof_H 	H 	0.87973	0.06047	0.49587	0.081
Mof_C 	C 	0.92583	0.11237	0.51587	0.064
Mof_H 	H 	0.95203	0.16947	0.53897	0.057
Mof_H 	H 	0.95763	0.13247	0.50677	0.002
Mof_I 	I 	0.69839	0.25553	0.01992	-0.603
Mof_Cu	Cu	0.62147	0.26821	0.99847	0.72
Mof_N 	N 	0.5682	0.1919	0.98394	-0.248
Mof_C 	C 	0.5875	0.1569	0.9774	0.108
Mof_C 	C 	0.5174	0.1814	0.97749	0.087
Mof_C 	C 	0.6681	0.3844	0.07122	-0.039
Mof_H 	H 	0.6238	0.1632	0.9822	-0.015
Mof_C 	C 	0.5571	0.1131	0.96422	-0.198
Mof_C 	C 	0.4843	0.1381	0.96406	-0.161
Mof_H 	H 	0.5028	0.205	0.9824	-0.019
Mof_H 	H 	0.7029	0.4175	0.0665	0.026
Mof_C 	C 	0.5044	0.1025	0.95702	0.097
Mof_C 	C 	0.5812	0.0757	0.95689	0.459
Mof_H 	H 	0.4479	0.1324	0.9596	0.07
Mof_H 	H 	0.4827	0.0721	0.9476	-0.002
Mof_O 	O 	0.6239	0.0804	0.96725	-0.507
Mof_O 	O 	0.5584	0.04331	0.94202	-0.49
Mof_Ti	Ti	0.66784	0.03496	0.96367	1.5
Mof_Ti	Ti	0.57953	0.98306	0.92727	1.598
Mof_O 	O 	0.5928	0.968	0.95678	-0.616
Mof_O 	O 	0.738	0.1088	0.95704	-0.617
Mof_O 	O 	0.66011	0.04726	0.9341	-0.789
Mof_O 	O 	0.7068	0.9908	0.95997	-0.518
Mof_O 	O 	0.58623	0.02349	0.90157	-0.51
Mof_C 	C 	0.5542	0.9172	0.96894	0.162
Mof_Ti	Ti	0.72219	0.11926	0.9272	1.504
Mof_C 	C 	0.7869	0.1457	0.96937	0.186
Mof_P 	P 	0.63507	0.06751	0.8883	0.577
Mof_C 	C 	0.5709	0.8772	0.9703	-0.091
Mof_C 	C 	0.509	0.9259	0.9785	-0.098
Mof_O 	O 	0.68418	0.11418	0.90094	-0.518
Mof_C 	C 	0.8326	0.1379	0.9688	-0.103
Mof_C 	C 	0.7729	0.1815	0.9827	-0.098
Mof_C 	C 	0.6042	0.1008	0.87359	-0.147
Mof_C 	C 	0.6136	0.1103	0.8542	0.086
Mof_C 	C 	0.5615	0.1086	0.8818	0.051
Mof_H 	H 	0.6365	0.0972	0.8475	0.002
Mof_C 	C 	0.5914	0.1391	0.8426	-0.155
Mof_C 	C 	0.5386	0.1385	0.8714	-0.117
Mof_H 	H 	0.547	0.0933	0.895	0.015
Mof_H 	H 	0.6062	0.1526	0.8292	0.079
Mof_C 	C 	0.5543	0.1468	0.8492	0.063
Mof_H 	H 	0.4972	0.1159	0.8723	0.06
Mof_H 	H 	0.5342	0.1585	0.8401	0.005
Mof_I 	I 	0.36506	0.58887	0.35326	-0.603
Mof_Cu	Cu	0.28814	0.60154	0.3318	0.72
Mof_N 	N 	0.23487	0.52523	0.31727	-0.248
Mof_C 	C 	0.25417	0.49023	0.31073	0.109
Mof_C 	C 	0.18407	0.51473	0.31082	0.087
Mof_C 	C 	0.33477	0.71773	0.40455	-0.038
Mof_H 	H 	0.29047	0.49653	0.31553	-0.015
Mof_C 	C 	0.22377	0.44643	0.29755	-0.199
Mof_C 	C 	0.15097	0.47143	0.29739	-0.161
Mof_H 	H 	0.16947	0.53833	0.31573	-0.018
Mof_H 	H 	0.36957	0.75083	0.39983	0.026
Mof_C 	C 	0.17107	0.43583	0.29035	0.097
Mof_C 	C 	0.24787	0.40903	0.29022	0.46
Mof_H 	H 	0.11457	0.46573	0.29293	0.071
Mof_H 	H 	0.14937	0.40543	0.28093	-0.003
Mof_O 	O 	0.29057	0.41373	0.30058	-0.508
Mof_O 	O 	0.22507	0.37664	0.27535	-0.496
Mof_Ti	Ti	0.33451	0.36829	0.297	1.483
Mof_Ti	Ti	0.2462	0.31639	0.2606	1.619
Mof_O 	O 	0.25947	0.30133	0.29011	-0.612
Mof_O 	O 	0.40467	0.44213	0.29037	-0.615
Mof_O 	O 	0.32678	0.38059	0.26743	-0.793
Mof_O 	O 	0.37347	0.32413	0.2933	-0.512
Mof_O 	O 	0.2529	0.35682	0.2349	-0.518
Mof_C 	C 	0.22087	0.25053	0.30227	0.161
Mof_Ti	Ti	0.38886	0.45259	0.26053	1.504
Mof_C 	C 	0.45357	0.47903	0.3027	0.185
Mof_P 	P 	0.30174	0.40084	0.22163	0.577
Mof_C 	C 	0.23757	0.21053	0.30363	-0.089
Mof_C 	C 	0.17567	0.25923	0.31183	-0.093
Mof_O 	O 	0.35085	0.44751	0.23427	-0.518
Mof_C 	C 	0.49927	0.47123	0.30213	-0.103
Mof_C 	C 	0.43957	0.51483	0.31603	-0.098
Mof_C 	C 	0.27087	0.43413	0.20692	-0.147
Mof_C 	C 	0.28027	0.44363	0.18753	0.085
Mof_C 	C 	0.22817	0.44193	0.21513	0.051
Mof_H 	H 	0.30317	0.43053	0.18083	0.001
Mof_C 	C 	0.25807	0.47243	0.17593	-0.156
Mof_C 	C 	0.20527	0.47183	0.20473	-0.117
Mof_H 	H 	0.21367	0.42663	0.22833	0.014
Mof_H 	H 	0.27287	0.48593	0.16253	0.079
Mof_C 	C 	0.22097	0.48013	0.18253	0.063
Mof_H 	H 	0.16387	0.44923	0.20563	0.059
Mof_H 	H 	0.20087	0.49183	0.17343	0.004
Mof_I 	I 	0.03172	0.9222	0.68659	-0.602
Mof_Cu	Cu	0.9548	0.93488	0.66513	0.714
Mof_N 	N 	0.90153	0.85857	0.65061	-0.25
Mof_C 	C 	0.92083	0.82357	0.64407	0.108
Mof_C 	C 	0.85073	0.84807	0.64416	0.086
Mof_C 	C 	0.00143	0.05107	0.73789	-0.021
Mof_H 	H 	0.95713	0.82987	0.64887	-0.018
Mof_C 	C 	0.89043	0.77977	0.63089	-0.201
Mof_C 	C 	0.81763	0.80477	0.63073	-0.163
Mof_H 	H 	0.83613	0.87167	0.64907	-0.02
Mof_H 	H 	0.03623	0.08417	0.73317	0.024
Mof_C 	C 	0.83773	0.76917	0.62369	0.097
Mof_C 	C 	0.91453	0.74237	0.62356	0.461
Mof_H 	H 	0.78123	0.79907	0.62627	0.069
Mof_H 	H 	0.81603	0.73877	0.61427	-0.005
Mof_O 	O 	0.95723	0.74707	0.63392	-0.515
Mof_O 	O 	0.89173	0.70998	0.60869	-0.498
Mof_Ti	Ti	0.00117	0.70163	0.63033	1.506
Mof_Ti	Ti	0.91286	0.64973	0.59394	1.616
Mof_O 	O 	0.92613	0.63467	0.62345	-0.618
Mof_O 	O 	0.07133	0.77547	0.62371	-0.617
Mof_O 	O 	0.99344	0.71393	0.60077	-0.804
Mof_O 	O 	0.04013	0.65747	0.62664	-0.512
Mof_O 	O 	0.91956	0.69016	0.56824	-0.518
Mof_C 	C 	0.88753	0.58387	0.63561	0.162
Mof_Ti	Ti	0.05552	0.78593	0.59386	1.513
Mof_C 	C 	0.12023	0.81237	0.63604	0.185
Mof_P 	P 	0.9684	0.73418	0.55497	0.571
Mof_C 	C 	0.90423	0.54387	0.63697	-0.094
Mof_C 	C 	0.84233	0.59257	0.64517	-0.096
Mof_O 	O 	0.01751	0.78085	0.56761	-0.512
Mof_C 	C 	0.16593	0.80457	0.63547	-0.104
Mof_C 	C 	0.10623	0.84817	0.64937	-0.097
Mof_C 	C 	0.93753	0.76747	0.54026	-0.15
Mof_C 	C 	0.94693	0.77697	0.52087	0.085
Mof_C 	C 	0.89483	0.77527	0.54847	0.051
Mof_H 	H 	0.96983	0.76387	0.51417	-0.001
Mof_C 	C 	0.92473	0.80577	0.50927	-0.158
Mof_C 	C 	0.87193	0.80517	0.53807	-0.121
Mof_H 	H 	0.88033	0.75997	0.56167	0.013
Mof_H 	H 	0.93953	0.81927	0.49587	0.076
Mof_C 	C 	0.88763	0.81347	0.51587	0.063
Mof_H 	H 	0.83053	0.78257	0.53897	0.059
Mof_H 	H 	0.86753	0.82517	0.50677	0.003
Mof_I 	I 	0.74447	0.44286	0.01992	-0.604
Mof_Cu	Cu	0.73179	0.35326	0.99847	0.72
Mof_N 	N 	0.8081	0.3763	0.98394	-0.248
Mof_C 	C 	0.8431	0.4306	0.9774	0.109
Mof_C 	C 	0.8186	0.336	0.97749	0.087
Mof_C 	C 	0.6156	0.2837	0.07122	-0.038
Mof_H 	H 	0.8368	0.4606	0.9822	-0.015
Mof_C 	C 	0.8869	0.444	0.96422	-0.2
Mof_C 	C 	0.8619	0.3462	0.96406	-0.163
Mof_H 	H 	0.795	0.2978	0.9824	-0.019
Mof_H 	H 	0.5825	0.2854	0.0665	0.027
Mof_C 	C 	0.8975	0.4019	0.95702	0.097
Mof_C 	C 	0.9243	0.5055	0.95689	0.46
Mof_H 	H 	0.8676	0.3155	0.9596	0.069
Mof_H 	H 	0.9279	0.4106	0.9476	-0.006
Mof_O 	O 	0.9196	0.5435	0.96725	-0.508
Mof_O 	O 	0.95669	0.51509	0.94202	-0.502
Mof_Ti	Ti	0.96504	0.63288	0.96367	1.466
Mof_Ti	Ti	0.01694	0.59647	0.92727	1.638
Mof_O 	O 	0.032	0.6248	0.95678	-0.607
Mof_O 	O 	0.8912	0.6292	0.95704	-0.614
Mof_O 	O 	0.95274	0.61285	0.9341	-0.798
Mof_O 	O 	0.0092	0.716	0.95997	-0.505
Mof_O 	O 	0.97651	0.56274	0.90157	-0.525
Mof_C 	C 	0.0828	0.637	0.96894	0.16
Mof_Ti	Ti	0.88074	0.60293	0.9272	1.503
Mof_C 	C 	0.8543	0.6412	0.96937	0.185
Mof_P 	P 	0.93249	0.56756	0.8883	0.576
Mof_C 	C 	0.1228	0.6937	0.9703	-0.089
Mof_C 	C 	0.0741	0.5831	0.9785	-0.09
Mof_O 	O 	0.88582	0.57	0.90094	-0.519
Mof_C 	C 	0.8621	0.6947	0.9688	-0.105
Mof_C 	C 	0.8185	0.5914	0.9827	-0.098
Mof_C 	C 	0.8992	0.5034	0.87359	-0.147
Mof_C 	C 	0.8897	0.5033	0.8542	0.084
Mof_C 	C 	0.8914	0.4529	0.8818	0.049
Mof_H 	H 	0.9028	0.5393	0.8475	0.001
Mof_C 	C 	0.8609	0.4523	0.8426	-0.155
Mof_C 	C 	0.8615	0.4001	0.8714	-0.116
Mof_H 	H 	0.9067	0.4537	0.895	0.013
Mof_H 	H 	0.8474	0.4536	0.8292	0.078
Mof_C 	C 	0.8532	0.4075	0.8492	0.061
Mof_H 	H 	0.8841	0.3813	0.8723	0.057
Mof_H 	H 	0.8415	0.3757	0.8401	0.005
Mof_I 	I 	0.41113	0.77619	0.35326	-0.604
Mof_Cu	Cu	0.39846	0.68659	0.3318	0.72
Mof_N 	N 	0.47477	0.70963	0.31727	-0.248
Mof_C 	C 	0.50977	0.76393	0.31073	0.108
Mof_C 	C 	0.48527	0.66933	0.31082	0.087
Mof_C 	C 	0.28227	0.61703	0.40455	-0.039
Mof_H 	H 	0.50347	0.79393	0.31553	-0.015
Mof_C 	C 	0.55357	0.77733	0.29755	-0.199
Mof_C 	C 	0.52857	0.67953	0.29739	-0.162
Mof_H 	H 	0.46167	0.63113	0.31573	-0.019
Mof_H 	H 	0.24917	0.61873	0.39983	0.027
Mof_C 	C 	0.56417	0.73523	0.29035	0.097
Mof_C 	C 	0.59097	0.83883	0.29022	0.459
Mof_H 	H 	0.53427	0.64883	0.29293	0.069
Mof_H 	H 	0.59457	0.74393	0.28093	-0.004
Mof_O 	O 	0.58627	0.87683	0.30058	-0.506
Mof_O 	O 	0.62336	0.84842	0.27535	-0.495
Mof_Ti	Ti	0.63171	0.96621	0.297	1.471
Mof_Ti	Ti	0.68361	0.9298	0.2606	1.606
Mof_O 	O 	0.69867	0.95813	0.29011	-0.61
Mof_O 	O 	0.55787	0.96253	0.29037	-0.613
Mof_O 	O 	0.61941	0.94618	0.26743	-0.792
Mof_O 	O 	0.67587	0.04933	0.2933	-0.505
Mof_O 	O 	0.64318	0.89607	0.2349	-0.518
Mof_C 	C 	0.74947	0.97033	0.30227	0.148
Mof_Ti	Ti	0.54741	0.93626	0.26053	1.492
Mof_C 	C 	0.52097	0.97453	0.3027	0.171
Mof_P 	P 	0.59916	0.90089	0.22163	0.577
Mof_C 	C 	0.78947	0.02703	0.30363	-0.077
Mof_C 	C 	0.74077	0.91643	0.31183	-0.093
Mof_O 	O 	0.55249	0.90333	0.23427	-0.518
Mof_C 	C 	0.52877	0.02803	0.30213	-0.09
Mof_C 	C 	0.48517	0.92473	0.31603	-0.097
Mof_C 	C 	0.56587	0.83673	0.20692	-0.148
Mof_C 	C 	0.55637	0.83663	0.18753	0.086
Mof_C 	C 	0.55807	0.78623	0.21513	0.05
Mof_H 	H 	0.56947	0.87263	0.18083	0
Mof_C 	C 	0.52757	0.78563	0.17593	-0.156
Mof_C 	C 	0.52817	0.73343	0.20473	-0.117
Mof_H 	H 	0.57337	0.78703	0.22833	0.014
Mof_H 	H 	0.51407	0.78693	0.16253	0.079
Mof_C 	C 	0.51987	0.74083	0.18253	0.063
Mof_H 	H 	0.55077	0.71463	0.20563	0.059
Mof_H 	H 	0.50817	0.70903	0.17343	0.004
Mof_I 	I 	0.0778	0.10952	0.68659	-0.597
Mof_Cu	Cu	0.06512	0.01993	0.66513	0.724
Mof_N 	N 	0.14143	0.04297	0.65061	-0.248
Mof_C 	C 	0.17643	0.09727	0.64407	0.107
Mof_C 	C 	0.15193	0.00267	0.64416	0.096
Mof_C 	C 	0.94893	0.95037	0.73789	-0.053
Mof_H 	H 	0.17013	0.12727	0.64887	-0.014
Mof_C 	C 	0.22023	0.11067	0.63089	-0.195
Mof_C 	C 	0.19523	0.01287	0.63073	-0.145
Mof_H 	H 	0.12833	0.96447	0.64907	-0.027
Mof_H 	H 	0.91583	0.95207	0.73317	0.027
Mof_C 	C 	0.23083	0.06857	0.62369	0.089
Mof_C 	C 	0.25763	0.17217	0.62356	0.458
Mof_H 	H 	0.20093	0.98217	0.62627	0.057
Mof_H 	H 	0.26123	0.07727	0.61427	0
Mof_O 	O 	0.25293	0.21017	0.63392	-0.507
Mof_O 	O 	0.29002	0.18176	0.60869	-0.496
Mof_Ti	Ti	0.29837	0.29955	0.63033	1.484
Mof_Ti	Ti	0.35027	0.26314	0.59394	1.618
Mof_O 	O 	0.36533	0.29147	0.62345	-0.612
Mof_O 	O 	0.22453	0.29587	0.62371	-0.615
Mof_O 	O 	0.28607	0.27952	0.60077	-0.794
Mof_O 	O 	0.34253	0.38267	0.62664	-0.512
Mof_O 	O 	0.30984	0.22941	0.56824	-0.518
Mof_C 	C 	0.41613	0.30367	0.63561	0.161
Mof_Ti	Ti	0.21407	0.2696	0.59386	1.506
Mof_C 	C 	0.18763	0.30787	0.63604	0.185
Mof_P 	P 	0.26582	0.23423	0.55497	0.576
Mof_C 	C 	0.45613	0.36037	0.63697	-0.09
Mof_C 	C 	0.40743	0.24977	0.64517	-0.094
Mof_O 	O 	0.21915	0.23667	0.56761	-0.518
Mof_C 	C 	0.19543	0.36137	0.63547	-0.102
Mof_C 	C 	0.15183	0.25807	0.64937	-0.097
Mof_C 	C 	0.23253	0.17007	0.54026	-0.145
Mof_C 	C 	0.22303	0.16997	0.52087	0.083
Mof_C 	C 	0.22473	0.11957	0.54847	0.048
Mof_H 	H 	0.23613	0.20597	0.51417	0.002
Mof_C 	C 	0.19423	0.11897	0.50927	-0.151
Mof_C 	C 	0.19483	0.06677	0.53807	-0.112
Mof_H 	H 	0.24003	0.12037	0.56167	0.016
Mof_H 	H 	0.18073	0.12027	0.49587	0.079
Mof_C 	C 	0.18653	0.07417	0.51587	0.059
Mof_H 	H 	0.21743	0.04797	0.53897	0.059
Mof_H 	H 	0.17483	0.04237	0.50677	0.009
Mof_I 	I 	0.30161	0.55714	0.48008	-0.603
Mof_Cu	Cu	0.37853	0.64674	0.50154	0.72
Mof_N 	N 	0.4318	0.6237	0.51606	-0.248
Mof_C 	C 	0.4125	0.5694	0.5226	0.109
Mof_C 	C 	0.4826	0.664	0.52251	0.087
Mof_C 	C 	0.3319	0.7163	0.42878	-0.039
Mof_H 	H 	0.3762	0.5394	0.5178	-0.015
Mof_C 	C 	0.4429	0.556	0.53578	-0.199
Mof_C 	C 	0.5157	0.6538	0.53594	-0.162
Mof_H 	H 	0.4972	0.7022	0.5176	-0.019
Mof_H 	H 	0.2971	0.7146	0.4335	0.027
Mof_C 	C 	0.4956	0.5981	0.54298	0.097
Mof_C 	C 	0.4188	0.4945	0.54311	0.459
Mof_H 	H 	0.5521	0.6845	0.5404	0.069
Mof_H 	H 	0.5173	0.5894	0.5524	-0.004
Mof_O 	O 	0.3761	0.4565	0.53275	-0.508
Mof_O 	O 	0.4416	0.48491	0.55798	-0.496
Mof_Ti	Ti	0.33216	0.36712	0.53633	1.483
Mof_Ti	Ti	0.42047	0.40353	0.57273	1.618
Mof_O 	O 	0.4072	0.3752	0.54322	-0.612
Mof_O 	O 	0.262	0.3708	0.54296	-0.615
Mof_O 	O 	0.33989	0.38715	0.5659	-0.793
Mof_O 	O 	0.2932	0.284	0.54003	-0.512
Mof_O 	O 	0.41377	0.43726	0.59843	-0.518
Mof_C 	C 	0.4458	0.363	0.53106	0.161
Mof_Ti	Ti	0.27781	0.39707	0.5728	1.504
Mof_C 	C 	0.2131	0.3588	0.53063	0.185
Mof_P 	P 	0.36493	0.43244	0.6117	0.577
Mof_C 	C 	0.4291	0.3063	0.5297	-0.089
Mof_C 	C 	0.491	0.4169	0.5215	-0.094
Mof_O 	O 	0.31582	0.43	0.59906	-0.518
Mof_C 	C 	0.1674	0.3053	0.5312	-0.101
Mof_C 	C 	0.2271	0.4086	0.5173	-0.097
Mof_C 	C 	0.3958	0.4966	0.62641	-0.147
Mof_C 	C 	0.3864	0.4967	0.6458	0.085
Mof_C 	C 	0.4385	0.5471	0.6182	0.05
Mof_H 	H 	0.3635	0.4607	0.6525	0.001
Mof_C 	C 	0.4086	0.5477	0.6574	-0.155
Mof_C 	C 	0.4614	0.5999	0.6286	-0.117
Mof_H 	H 	0.453	0.5463	0.605	0.014
Mof_H 	H 	0.3938	0.5464	0.6708	0.078
Mof_C 	C 	0.4457	0.5925	0.6508	0.062
Mof_H 	H 	0.5028	0.6187	0.6277	0.058
Mof_H 	H 	0.4658	0.6243	0.6599	0.005
Mof_I 	I 	0.96828	0.89048	0.81341	-0.619
Mof_Cu	Cu	0.0452	0.98007	0.83487	0.718
Mof_N 	N 	0.09847	0.95703	0.84939	-0.248
Mof_C 	C 	0.07917	0.90273	0.85593	0.109
Mof_C 	C 	0.14927	0.99733	0.85584	0.077
Mof_C 	C 	0.99857	0.04963	0.76211	-0.058
Mof_H 	H 	0.04287	0.87273	0.85113	-0.013
Mof_C 	C 	0.10957	0.88933	0.86911	-0.201
Mof_C 	C 	0.18237	0.98713	0.86927	-0.177
Mof_H 	H 	0.16387	0.03553	0.85093	-0.01
Mof_H 	H 	0.96377	0.04793	0.76683	0.032
Mof_C 	C 	0.16227	0.93143	0.87631	0.104
Mof_C 	C 	0.08547	0.82783	0.87644	0.459
Mof_H 	H 	0.21877	0.01783	0.87373	0.081
Mof_H 	H 	0.18397	0.92273	0.88573	-0.008
Mof_O 	O 	0.04277	0.78983	0.86608	-0.5
Mof_O 	O 	0.10827	0.81824	0.89131	-0.496
Mof_Ti	Ti	0.99883	0.70045	0.86967	1.462
Mof_Ti	Ti	0.08714	0.73686	0.90606	1.618
Mof_O 	O 	0.07387	0.70853	0.87655	-0.606
Mof_O 	O 	0.92867	0.70413	0.87629	-0.613
Mof_O 	O 	0.00656	0.72048	0.89923	-0.782
Mof_O 	O 	0.95987	0.61733	0.87336	-0.511
Mof_O 	O 	0.08044	0.77059	0.93176	-0.518
Mof_C 	C 	0.11247	0.69633	0.86439	0.16
Mof_Ti	Ti	0.94448	0.7304	0.90614	1.492
Mof_C 	C 	0.87977	0.69213	0.86396	0.185
Mof_P 	P 	0.0316	0.76577	0.94503	0.583
Mof_C 	C 	0.09577	0.63963	0.86303	-0.086
Mof_C 	C 	0.15767	0.75023	0.85483	-0.093
Mof_O 	O 	0.98249	0.76333	0.93239	-0.525
Mof_C 	C 	0.83407	0.63863	0.86453	-0.103
Mof_C 	C 	0.89377	0.74193	0.85063	-0.1
Mof_C 	C 	0.06247	0.82993	0.95974	-0.147
Mof_C 	C 	0.05307	0.83003	0.97913	0.087
Mof_C 	C 	0.10517	0.88043	0.95153	0.051
Mof_H 	H 	0.03017	0.79403	0.98583	0.003
Mof_C 	C 	0.07527	0.88103	0.99073	-0.157
Mof_C 	C 	0.12807	0.93323	0.96193	-0.119
Mof_H 	H 	0.11967	0.87963	0.93833	0.013
Mof_H 	H 	0.06047	0.87973	0.00413	0.081
Mof_C 	C 	0.11237	0.92583	0.98413	0.064
Mof_H 	H 	0.16947	0.95203	0.96103	0.057
Mof_H 	H 	0.13247	0.95763	0.99323	0.002
Mof_I 	I 	0.63494	0.22381	0.14674	-0.602
Mof_Cu	Cu	0.71186	0.31341	0.1682	0.72
Mof_N 	N 	0.76513	0.29037	0.18273	-0.248
Mof_C 	C 	0.74583	0.23607	0.18927	0.109
Mof_C 	C 	0.81593	0.33067	0.18918	0.086
Mof_C 	C 	0.66523	0.38297	0.09545	-0.039
Mof_H 	H 	0.70953	0.20607	0.18447	-0.015
Mof_C 	C 	0.77623	0.22267	0.20245	-0.199
Mof_C 	C 	0.84903	0.32047	0.20261	-0.162
Mof_H 	H 	0.83053	0.36887	0.18427	-0.019
Mof_H 	H 	0.63043	0.38127	0.10017	0.027
Mof_C 	C 	0.82893	0.26477	0.20965	0.097
Mof_C 	C 	0.75213	0.16117	0.20978	0.46
Mof_H 	H 	0.88543	0.35117	0.20707	0.068
Mof_H 	H 	0.85063	0.25607	0.21907	-0.005
Mof_O 	O 	0.70943	0.12317	0.19942	-0.509
Mof_O 	O 	0.77493	0.15158	0.22465	-0.497
Mof_Ti	Ti	0.66549	0.03379	0.203	1.495
Mof_Ti	Ti	0.7538	0.0702	0.2394	1.618
Mof_O 	O 	0.74053	0.04187	0.20989	-0.613
Mof_O 	O 	0.59533	0.03747	0.20963	-0.617
Mof_O 	O 	0.67322	0.05382	0.23257	-0.793
Mof_O 	O 	0.62653	0.95067	0.2067	-0.518
Mof_O 	O 	0.7471	0.10393	0.2651	-0.518
Mof_C 	C 	0.77913	0.02967	0.19773	0.174
Mof_Ti	Ti	0.61114	0.06374	0.23947	1.506
Mof_C 	C 	0.54643	0.02547	0.1973	0.199
Mof_P 	P 	0.69826	0.09911	0.27837	0.576
Mof_C 	C 	0.76243	0.97297	0.19637	-0.103
Mof_C 	C 	0.82433	0.08357	0.18817	-0.097
Mof_O 	O 	0.64915	0.09667	0.26573	-0.518
Mof_C 	C 	0.50073	0.97197	0.19787	-0.116
Mof_C 	C 	0.56043	0.07527	0.18397	-0.098
Mof_C 	C 	0.72913	0.16327	0.29308	-0.146
Mof_C 	C 	0.71973	0.16337	0.31247	0.083
Mof_C 	C 	0.77183	0.21377	0.28487	0.049
Mof_H 	H 	0.69683	0.12737	0.31917	0.003
Mof_C 	C 	0.74193	0.21437	0.32407	-0.153
Mof_C 	C 	0.79473	0.26657	0.29527	-0.116
Mof_H 	H 	0.78633	0.21297	0.27167	0.014
Mof_H 	H 	0.72713	0.21307	0.33747	0.078
Mof_C 	C 	0.77903	0.25917	0.31747	0.06
Mof_H 	H 	0.83613	0.28537	0.29437	0.058
Mof_H 	H 	0.79913	0.29097	0.32657	0.005
Mof_I 	I 	0.25553	0.69839	0.48008	-0.603
Mof_Cu	Cu	0.26821	0.62147	0.50154	0.72
Mof_N 	N 	0.1919	0.5682	0.51606	-0.248
Mof_C 	C 	0.1569	0.5875	0.5226	0.108
Mof_C 	C 	0.1814	0.5174	0.52251	0.087
Mof_C 	C 	0.3844	0.6681	0.42878	-0.039
Mof_H 	H 	0.1632	0.6238	0.5178	-0.015
Mof_C 	C 	0.1131	0.5571	0.53578	-0.198
Mof_C 	C 	0.1381	0.4843	0.53594	-0.161
Mof_H 	H 	0.205	0.5028	0.5176	-0.019
Mof_H 	H 	0.4175	0.7029	0.4335	0.026
Mof_C 	C 	0.1025	0.5044	0.54298	0.097
Mof_C 	C 	0.0757	0.5812	0.54311	0.459
Mof_H 	H 	0.1324	0.4479	0.5404	0.07
Mof_H 	H 	0.0721	0.4827	0.5524	-0.002
Mof_O 	O 	0.0804	0.6239	0.53275	-0.507
Mof_O 	O 	0.04331	0.5584	0.55798	-0.49
Mof_Ti	Ti	0.03496	0.66784	0.53633	1.5
Mof_Ti	Ti	0.98306	0.57953	0.57273	1.598
Mof_O 	O 	0.968	0.5928	0.54322	-0.616
Mof_O 	O 	0.1088	0.738	0.54296	-0.617
Mof_O 	O 	0.04726	0.66011	0.5659	-0.789
Mof_O 	O 	0.9908	0.7068	0.54003	-0.518
Mof_O 	O 	0.02349	0.58623	0.59843	-0.51
Mof_C 	C 	0.9172	0.5542	0.53106	0.162
Mof_Ti	Ti	0.11926	0.72219	0.5728	1.504
Mof_C 	C 	0.1457	0.7869	0.53063	0.186
Mof_P 	P 	0.06751	0.63507	0.6117	0.577
Mof_C 	C 	0.8772	0.5709	0.5297	-0.091
Mof_C 	C 	0.9259	0.509	0.5215	-0.098
Mof_O 	O 	0.11418	0.68418	0.59906	-0.518
Mof_C 	C 	0.1379	0.8326	0.5312	-0.103
Mof_C 	C 	0.1815	0.7729	0.5173	-0.098
Mof_C 	C 	0.1008	0.6042	0.62641	-0.147
Mof_C 	C 	0.1103	0.6136	0.6458	0.086
Mof_C 	C 	0.1086	0.5615	0.6182	0.051
Mof_H 	H 	0.0972	0.6365	0.6525	0.002
Mof_C 	C 	0.1391	0.5914	0.6574	-0.155
Mof_C 	C 	0.1385	0.5386	0.6286	-0.117
Mof_H 	H 	0.0933	0.547	0.605	0.015
Mof_H 	H 	0.1526	0.6062	0.6708	0.079
Mof_C 	C 	0.1468	0.5543	0.6508	0.063
Mof_H 	H 	0.1159	0.4972	0.6277	0.06
Mof_H 	H 	0.1585	0.5342	0.6599	0.005
Mof_I 	I 	0.9222	0.03172	0.81341	-0.602
Mof_Cu	Cu	0.93488	0.9548	0.83487	0.714
Mof_N 	N 	0.85857	0.90153	0.84939	-0.25
Mof_C 	C 	0.82357	0.92083	0.85593	0.108
Mof_C 	C 	0.84807	0.85073	0.85584	0.086
Mof_C 	C 	0.05107	0.00143	0.76211	-0.021
Mof_H 	H 	0.82987	0.95713	0.85113	-0.018
Mof_C 	C 	0.77977	0.89043	0.86911	-0.201
Mof_C 	C 	0.80477	0.81763	0.86927	-0.163
Mof_H 	H 	0.87167	0.83613	0.85093	-0.02
Mof_H 	H 	0.08417	0.03623	0.76683	0.024
Mof_C 	C 	0.76917	0.83773	0.87631	0.097
Mof_C 	C 	0.74237	0.91453	0.87644	0.461
Mof_H 	H 	0.79907	0.78123	0.87373	0.069
Mof_H 	H 	0.73877	0.81603	0.88573	-0.005
Mof_O 	O 	0.74707	0.95723	0.86608	-0.515
Mof_O 	O 	0.70998	0.89173	0.89131	-0.498
Mof_Ti	Ti	0.70163	0.00117	0.86967	1.506
Mof_Ti	Ti	0.64973	0.91286	0.90606	1.616
Mof_O 	O 	0.63467	0.92613	0.87655	-0.618
Mof_O 	O 	0.77547	0.07133	0.87629	-0.617
Mof_O 	O 	0.71393	0.99344	0.89923	-0.804
Mof_O 	O 	0.65747	0.04013	0.87336	-0.512
Mof_O 	O 	0.69016	0.91956	0.93176	-0.518
Mof_C 	C 	0.58387	0.88753	0.86439	0.162
Mof_Ti	Ti	0.78593	0.05552	0.90614	1.513
Mof_C 	C 	0.81237	0.12023	0.86396	0.185
Mof_P 	P 	0.73418	0.9684	0.94503	0.571
Mof_C 	C 	0.54387	0.90423	0.86303	-0.094
Mof_C 	C 	0.59257	0.84233	0.85483	-0.096
Mof_O 	O 	0.78085	0.01751	0.93239	-0.512
Mof_C 	C 	0.80457	0.16593	0.86453	-0.104
Mof_C 	C 	0.84817	0.10623	0.85063	-0.097
Mof_C 	C 	0.76747	0.93753	0.95974	-0.15
Mof_C 	C 	0.77697	0.94693	0.97913	0.085
Mof_C 	C 	0.77527	0.89483	0.95153	0.051
Mof_H 	H 	0.76387	0.96983	0.98583	-0.001
Mof_C 	C 	0.80577	0.92473	0.99073	-0.158
Mof_C 	C 	0.80517	0.87193	0.96193	-0.121
Mof_H 	H 	0.75997	0.88033	0.93833	0.013
Mof_H 	H 	0.81927	0.93953	0.00413	0.076
Mof_C 	C 	0.81347	0.88763	0.98413	0.063
Mof_H 	H 	0.78257	0.83053	0.96103	0.059
Mof_H 	H 	0.82517	0.86753	0.99323	0.003
Mof_I 	I 	0.58887	0.36506	0.14674	-0.603
Mof_Cu	Cu	0.60154	0.28814	0.1682	0.72
Mof_N 	N 	0.52523	0.23487	0.18273	-0.248
Mof_C 	C 	0.49023	0.25417	0.18927	0.109
Mof_C 	C 	0.51473	0.18407	0.18918	0.087
Mof_C 	C 	0.71773	0.33477	0.09545	-0.038
Mof_H 	H 	0.49653	0.29047	0.18447	-0.015
Mof_C 	C 	0.44643	0.22377	0.20245	-0.199
Mof_C 	C 	0.47143	0.15097	0.20261	-0.161
Mof_H 	H 	0.53833	0.16947	0.18427	-0.018
Mof_H 	H 	0.75083	0.36957	0.10017	0.026
Mof_C 	C 	0.43583	0.17107	0.20965	0.097
Mof_C 	C 	0.40903	0.24787	0.20978	0.46
Mof_H 	H 	0.46573	0.11457	0.20707	0.071
Mof_H 	H 	0.40543	0.14937	0.21907	-0.003
Mof_O 	O 	0.41373	0.29057	0.19942	-0.508
Mof_O 	O 	0.37664	0.22507	0.22465	-0.496
Mof_Ti	Ti	0.36829	0.33451	0.203	1.483
Mof_Ti	Ti	0.31639	0.2462	0.2394	1.619
Mof_O 	O 	0.30133	0.25947	0.20989	-0.612
Mof_O 	O 	0.44213	0.40467	0.20963	-0.615
Mof_O 	O 	0.38059	0.32678	0.23257	-0.793
Mof_O 	O 	0.32413	0.37347	0.2067	-0.512
Mof_O 	O 	0.35682	0.2529	0.2651	-0.518
Mof_C 	C 	0.25053	0.22087	0.19773	0.161
Mof_Ti	Ti	0.45259	0.38886	0.23947	1.504
Mof_C 	C 	0.47903	0.45357	0.1973	0.185
Mof_P 	P 	0.40084	0.30174	0.27837	0.577
Mof_C 	C 	0.21053	0.23757	0.19637	-0.089
Mof_C 	C 	0.25923	0.17567	0.18817	-0.093
Mof_O 	O 	0.44751	0.35085	0.26573	-0.518
Mof_C 	C 	0.47123	0.49927	0.19787	-0.103
Mof_C 	C 	0.51483	0.43957	0.18397	-0.098
Mof_C 	C 	0.43413	0.27087	0.29308	-0.147
Mof_C 	C 	0.44363	0.28027	0.31247	0.085
Mof_C 	C 	0.44193	0.22817	0.28487	0.051
Mof_H 	H 	0.43053	0.30317	0.31917	0.001
Mof_C 	C 	0.47243	0.25807	0.32407	-0.156
Mof_C 	C 	0.47183	0.20527	0.29527	-0.117
Mof_H 	H 	0.42663	0.21367	0.27167	0.014
Mof_H 	H 	0.48593	0.27287	0.33747	0.079
Mof_C 	C 	0.48013	0.22097	0.31747	0.063
Mof_H 	H 	0.44923	0.16387	0.29437	0.059
Mof_H 	H 	0.49183	0.20087	0.32657	0.004
Mof_I 	I 	0.44286	0.74447	0.48008	-0.604
Mof_Cu	Cu	0.35326	0.73179	0.50154	0.72
Mof_N 	N 	0.3763	0.8081	0.51606	-0.248
Mof_C 	C 	0.4306	0.8431	0.5226	0.109
Mof_C 	C 	0.336	0.8186	0.52251	0.087
Mof_C 	C 	0.2837	0.6156	0.42878	-0.038
Mof_H 	H 	0.4606	0.8368	0.5178	-0.015
Mof_C 	C 	0.444	0.8869	0.53578	-0.2
Mof_C 	C 	0.3462	0.8619	0.53594	-0.163
Mof_H 	H 	0.2978	0.795	0.5176	-0.019
Mof_H 	H 	0.2854	0.5825	0.4335	0.027
Mof_C 	C 	0.4019	0.8975	0.54298	0.097
Mof_C 	C 	0.5055	0.9243	0.54311	0.46
Mof_H 	H 	0.3155	0.8676	0.5404	0.069
Mof_H 	H 	0.4106	0.9279	0.5524	-0.006
Mof_O 	O 	0.5435	0.9196	0.53275	-0.508
Mof_O 	O 	0.51509	0.95669	0.55798	-0.502
Mof_Ti	Ti	0.63288	0.96504	0.53633	1.466
Mof_Ti	Ti	0.59647	0.01694	0.57273	1.638
Mof_O 	O 	0.6248	0.032	0.54322	-0.607
Mof_O 	O 	0.6292	0.8912	0.54296	-0.614
Mof_O 	O 	0.61285	0.95274	0.5659	-0.798
Mof_O 	O 	0.716	0.0092	0.54003	-0.505
Mof_O 	O 	0.56274	0.97651	0.59843	-0.525
Mof_C 	C 	0.637	0.0828	0.53106	0.16
Mof_Ti	Ti	0.60293	0.88074	0.5728	1.503
Mof_C 	C 	0.6412	0.8543	0.53063	0.185
Mof_P 	P 	0.56756	0.93249	0.6117	0.576
Mof_C 	C 	0.6937	0.1228	0.5297	-0.089
Mof_C 	C 	0.5831	0.0741	0.5215	-0.09
Mof_O 	O 	0.57	0.88582	0.59906	-0.519
Mof_C 	C 	0.6947	0.8621	0.5312	-0.105
Mof_C 	C 	0.5914	0.8185	0.5173	-0.098
Mof_C 	C 	0.5034	0.8992	0.62641	-0.147
Mof_C 	C 	0.5033	0.8897	0.6458	0.084
Mof_C 	C 	0.4529	0.8914	0.6182	0.049
Mof_H 	H 	0.5393	0.9028	0.6525	0.001
Mof_C 	C 	0.4523	0.8609	0.6574	-0.155
Mof_C 	C 	0.4001	0.8615	0.6286	-0.116
Mof_H 	H 	0.4537	0.9067	0.605	0.013
Mof_H 	H 	0.4536	0.8474	0.6708	0.078
Mof_C 	C 	0.4075	0.8532	0.6508	0.061
Mof_H 	H 	0.3813	0.8841	0.6277	0.057
Mof_H 	H 	0.3757	0.8415	0.6599	0.005
Mof_I 	I 	0.10952	0.0778	0.81341	-0.597
Mof_Cu	Cu	0.01993	0.06512	0.83487	0.724
Mof_N 	N 	0.04297	0.14143	0.84939	-0.248
Mof_C 	C 	0.09727	0.17643	0.85593	0.107
Mof_C 	C 	0.00267	0.15193	0.85584	0.096
Mof_C 	C 	0.95037	0.94893	0.76211	-0.053
Mof_H 	H 	0.12727	0.17013	0.85113	-0.014
Mof_C 	C 	0.11067	0.22023	0.86911	-0.195
Mof_C 	C 	0.01287	0.19523	0.86927	-0.145
Mof_H 	H 	0.96447	0.12833	0.85093	-0.027
Mof_H 	H 	0.95207	0.91583	0.76683	0.027
Mof_C 	C 	0.06857	0.23083	0.87631	0.089
Mof_C 	C 	0.17217	0.25763	0.87644	0.458
Mof_H 	H 	0.98217	0.20093	0.87373	0.057
Mof_H 	H 	0.07727	0.26123	0.88573	0
Mof_O 	O 	0.21017	0.25293	0.86608	-0.507
Mof_O 	O 	0.18176	0.29002	0.89131	-0.496
Mof_Ti	Ti	0.29955	0.29837	0.86967	1.484
Mof_Ti	Ti	0.26314	0.35027	0.90606	1.618
Mof_O 	O 	0.29147	0.36533	0.87655	-0.612
Mof_O 	O 	0.29587	0.22453	0.87629	-0.615
Mof_O 	O 	0.27952	0.28607	0.89923	-0.794
Mof_O 	O 	0.38267	0.34253	0.87336	-0.512
Mof_O 	O 	0.22941	0.30984	0.93176	-0.518
Mof_C 	C 	0.30367	0.41613	0.86439	0.161
Mof_Ti	Ti	0.2696	0.21407	0.90614	1.506
Mof_C 	C 	0.30787	0.18763	0.86396	0.185
Mof_P 	P 	0.23423	0.26582	0.94503	0.576
Mof_C 	C 	0.36037	0.45613	0.86303	-0.09
Mof_C 	C 	0.24977	0.40743	0.85483	-0.094
Mof_O 	O 	0.23667	0.21915	0.93239	-0.518
Mof_C 	C 	0.36137	0.19543	0.86453	-0.102
Mof_C 	C 	0.25807	0.15183	0.85063	-0.097
Mof_C 	C 	0.17007	0.23253	0.95974	-0.145
Mof_C 	C 	0.16997	0.22303	0.97913	0.083
Mof_C 	C 	0.11957	0.22473	0.95153	0.048
Mof_H 	H 	0.20597	0.23613	0.98583	0.002
Mof_C 	C 	0.11897	0.19423	0.99073	-0.151
Mof_C 	C 	0.06677	0.19483	0.96193	-0.112
Mof_H 	H 	0.12037	0.24003	0.93833	0.016
Mof_H 	H 	0.12027	0.18073	0.00413	0.079
Mof_C 	C 	0.07417	0.18653	0.98413	0.059
Mof_H 	H 	0.04797	0.21743	0.96103	0.059
Mof_H 	H 	0.04237	0.17483	0.99323	0.009
Mof_I 	I 	0.77619	0.41113	0.14674	-0.604
Mof_Cu	Cu	0.68659	0.39846	0.1682	0.72
Mof_N 	N 	0.70963	0.47477	0.18273	-0.248
Mof_C 	C 	0.76393	0.50977	0.18927	0.108
Mof_C 	C 	0.66933	0.48527	0.18918	0.087
Mof_C 	C 	0.61703	0.28227	0.09545	-0.039
Mof_H 	H 	0.79393	0.50347	0.18447	-0.015
Mof_C 	C 	0.77733	0.55357	0.20245	-0.199
Mof_C 	C 	0.67953	0.52857	0.20261	-0.162
Mof_H 	H 	0.63113	0.46167	0.18427	-0.019
Mof_H 	H 	0.61873	0.24917	0.10017	0.027
Mof_C 	C 	0.73523	0.56417	0.20965	0.097
Mof_C 	C 	0.83883	0.59097	0.20978	0.459
Mof_H 	H 	0.64883	0.53427	0.20707	0.069
Mof_H 	H 	0.74393	0.59457	0.21907	-0.004
Mof_O 	O 	0.87683	0.58627	0.19942	-0.506
Mof_O 	O 	0.84842	0.62336	0.22465	-0.495
Mof_Ti	Ti	0.96621	0.63171	0.203	1.471
Mof_Ti	Ti	0.9298	0.68361	0.2394	1.606
Mof_O 	O 	0.95813	0.69867	0.20989	-0.61
Mof_O 	O 	0.96253	0.55787	0.20963	-0.613
Mof_O 	O 	0.94618	0.61941	0.23257	-0.792
Mof_O 	O 	0.04933	0.67587	0.2067	-0.505
Mof_O 	O 	0.89607	0.64318	0.2651	-0.518
Mof_C 	C 	0.97033	0.74947	0.19773	0.148
Mof_Ti	Ti	0.93626	0.54741	0.23947	1.492
Mof_C 	C 	0.97453	0.52097	0.1973	0.171
Mof_P 	P 	0.90089	0.59916	0.27837	0.577
Mof_C 	C 	0.02703	0.78947	0.19637	-0.077
Mof_C 	C 	0.91643	0.74077	0.18817	-0.093
Mof_O 	O 	0.90333	0.55249	0.26573	-0.518
Mof_C 	C 	0.02803	0.52877	0.19787	-0.09
Mof_C 	C 	0.92473	0.48517	0.18397	-0.097
Mof_C 	C 	0.83673	0.56587	0.29308	-0.148
Mof_C 	C 	0.83663	0.55637	0.31247	0.086
Mof_C 	C 	0.78623	0.55807	0.28487	0.05
Mof_H 	H 	0.87263	0.56947	0.31917	0
Mof_C 	C 	0.78563	0.52757	0.32407	-0.156
Mof_C 	C 	0.73343	0.52817	0.29527	-0.117
Mof_H 	H 	0.78703	0.57337	0.27167	0.014
Mof_H 	H 	0.78693	0.51407	0.33747	0.079
Mof_C 	C 	0.74083	0.51987	0.31747	0.063
Mof_H 	H 	0.71463	0.55077	0.29437	0.059
Mof_H 	H 	0.70903	0.50817	0.32657	0.004
Mof_Cu	Cu	0.66667	0.33333	0.03144	0.711
Mof_I 	I 	0.66667	0.33333	0.96416	-0.586
Mof_N 	N 	0.66667	0.33333	0.06353	-0.184
Mof_Cu	Cu	0.33333	0.66667	0.36477	0.711
Mof_I 	I 	0.33333	0.66667	0.2975	-0.586
Mof_N 	N 	0.33333	0.66667	0.39686	-0.184
Mof_Cu	Cu	3.99991e-32	3.99991e-32	0.69811	0.719
Mof_I 	I 	-3.99991e-32	0	0.63083	-0.565
Mof_N 	N 	-1.99996e-32	0	0.7302	-0.172
Mof_Cu	Cu	0.33333	0.66667	0.46856	0.712
Mof_I 	I 	0.33333	0.66667	0.53584	-0.586
Mof_N 	N 	0.33333	0.66667	0.43647	-0.184
Mof_Cu	Cu	-1.99996e-32	-3.99991e-32	0.80189	0.719
Mof_I 	I 	-5.99987e-32	0	0.86917	-0.565
Mof_N 	N 	1.99996e-32	3.99991e-32	0.7698	-0.172
Mof_Cu	Cu	0.66667	0.33333	0.13523	0.711
Mof_I 	I 	0.66667	0.33333	0.2025	-0.586
Mof_N 	N 	0.66667	0.33333	0.10314	-0.184
Mof_O 	O 	0.33333	0.39762	0.91667	-0.785
Mof_O 	O 	0.33333	0.21642	0.91667	-0.746
Mof_O 	O 	1.53294e-17	0.73095	0.25	-0.777
Mof_O 	O 	1.53294e-17	0.54975	0.25	-0.738
Mof_O 	O 	0.60238	0.93572	0.91667	-0.784
Mof_O 	O 	0.78358	0.11692	0.91667	-0.747
Mof_O 	O 	0.26905	0.26905	0.25	-0.785
Mof_O 	O 	0.45025	0.45025	0.25	-0.746
Mof_O 	O 	0.06428	0.66667	0.91667	-0.787
Mof_O 	O 	0.88308	0.66667	0.91667	-0.744
Mof_O 	O 	0.73095	0	0.25	-0.777
Mof_O 	O 	0.54975	0	0.25	-0.738
Mof_O 	O 	0.39762	0.33333	0.58333	-0.785
Mof_O 	O 	0.21642	0.33333	0.58333	-0.746
Mof_O 	O 	0.93572	0.60238	0.58333	-0.784
Mof_O 	O 	0.11692	0.78358	0.58333	-0.747
Mof_O 	O 	0.66667	0.06428	0.58333	-0.787
Mof_O 	O 	0.66667	0.88308	0.58333	-0.744
_end
