data_functionalizedCrystal
_audit_creation_method	'EQeq! by Chris Wilmer'
_symmetry_space_group_name_H-M	'P1'
_symmetry_Int_Tables_number	1
_symmetry_cell_setting	triclinic
loop_
_symmetry_equiv_pos_as_xyz
  x,y,z
_cell_length_a	9.263
_cell_length_b	10.3537
_cell_length_c	13.0201
_cell_angle_alpha	80.8441
_cell_angle_beta	69.1627
_cell_angle_gamma	63.4276
loop_
_atom_site_label
_atom_site_type_symbol
_atom_site_fract_x
_atom_site_fract_y
_atom_site_fract_z
_atom_site_charge
Mof_Co	Co	0.89665	0.08794	0.36996	1.112
Mof_Co	Co	0.35455	0.91206	0.63004	1.104
Mof_Co	Co	0.01661	0.58794	0.13004	1.077
Mof_Co	Co	0.73459	0.41206	0.86996	1.106
Mof_H 	H 	0.7389	0.1258	0.6454	-0.013
Mof_H 	H 	0.6051	0.9996	0.439	-0.057
Mof_H 	H 	0.0669	0.7762	0.2686	-0.105
Mof_H 	H 	0.7366	0.9146	0.1074	-0.002
Mof_H 	H 	0.7002	0.1234	0.1988	0.012
Mof_H 	H 	0.5101	0.8742	0.3546	-0.018
Mof_H 	H 	0.0437	0.0004	0.561	-0.089
Mof_H 	H 	0.1117	0.2238	0.7314	-0.043
Mof_H 	H 	0.7586	0.0854	0.8926	-0.018
Mof_H 	H 	0.0224	0.8766	0.8012	0.012
Mof_H 	H 	0.1343	0.6258	0.8546	0
Mof_H 	H 	0.7941	0.4996	0.061	-0.068
Mof_H 	H 	0.0855	0.2762	0.2314	-0.101
Mof_H 	H 	0.594	0.4146	0.3926	-0.001
Mof_H 	H 	0.649	0.6234	0.3012	0.003
Mof_H 	H 	0.6147	0.3742	0.1454	-0.019
Mof_H 	H 	0.3547	0.5004	0.939	-0.07
Mof_H 	H 	0.5931	0.7238	0.7686	-0.042
Mof_H 	H 	0.4012	0.5854	0.6074	-0.002
Mof_H 	H 	0.5736	0.3766	0.6988	0.002
Mof_C 	C 	0.6802	0.093	0.6154	0.072
Mof_C 	C 	0.6121	0.0222	0.5052	0.116
Mof_C 	C 	0.513	0.0058	0.602	-0.29
Mof_C 	C 	0.9788	0.8388	0.238	0.169
Mof_C 	C 	0.8009	0.9112	0.1524	0.026
Mof_C 	C 	0.7815	0.0256	0.2022	-0.044
Mof_C 	C 	0.3886	0.907	0.3846	0.069
Mof_C 	C 	0.1395	0.9778	0.4948	0.148
Mof_C 	C 	0.1208	0.9942	0.398	-0.319
Mof_C 	C 	0.0556	0.1612	0.762	0.034
Mof_C 	C 	0.8645	0.0888	0.8476	0.061
Mof_C 	C 	0.0093	0.9744	0.7978	-0.073
Mof_C 	C 	0.0456	0.593	0.8846	-0.014
Mof_C 	C 	0.8673	0.5222	0.9948	0.138
Mof_C 	C 	0.865	0.5058	0.898	-0.281
Mof_C 	C 	0.9668	0.3388	0.262	0.158
Mof_C 	C 	0.7033	0.4112	0.3476	-0.003
Mof_C 	C 	0.7337	0.5256	0.2978	-0.009
Mof_C 	C 	0.5232	0.407	0.1154	0.069
Mof_C 	C 	0.3843	0.4778	0.0052	0.13
Mof_C 	C 	0.2688	0.4942	0.102	-0.302
Mof_C 	C 	0.5676	0.6612	0.738	0.08
Mof_C 	C 	0.4621	0.5888	0.6524	-0.004
Mof_C 	C 	0.5571	0.4744	0.7022	-0.007
Mof_N 	N 	0.7174	0.0692	0.507	-0.288
Mof_N 	N 	0.5506	0.0562	0.6766	-0.105
Mof_N 	N 	0.8921	0.9806	0.2596	-0.27
Mof_N 	N 	0.9284	0.7914	0.1736	-0.281
Mof_N 	N 	0.2936	0.9308	0.493	-0.298
Mof_N 	N 	0.2834	0.9438	0.3234	-0.103
Mof_N 	N 	0.1323	0.0194	0.7404	-0.265
Mof_N 	N 	0.8934	0.2086	0.8264	-0.262
Mof_N 	N 	0.9744	0.5692	0.993	-0.255
Mof_N 	N 	0.9772	0.5562	0.8234	-0.067
Mof_N 	N 	0.9017	0.4806	0.2404	-0.275
Mof_N 	N 	0.852	0.2914	0.3264	-0.285
Mof_N 	N 	0.5366	0.4308	0.007	-0.294
Mof_N 	N 	0.3568	0.4438	0.1766	-0.107
Mof_N 	N 	0.6227	0.5194	0.7596	-0.273
Mof_N 	N 	0.4698	0.7086	0.6736	-0.276
_end
