data_functionalizedCrystal
_audit_creation_method	'EQeq! by Chris Wilmer'
_symmetry_space_group_name_H-M	'P1'
_symmetry_Int_Tables_number	1
_symmetry_cell_setting	triclinic
loop_
_symmetry_equiv_pos_as_xyz
  x,y,z
_cell_length_a	13.7393
_cell_length_b	13.7393
_cell_length_c	37.2281
_cell_angle_alpha	90
_cell_angle_beta	90
_cell_angle_gamma	90
loop_
_atom_site_label
_atom_site_type_symbol
_atom_site_fract_x
_atom_site_fract_y
_atom_site_fract_z
_atom_site_charge
Mof_In	In	0.5608	0.21039	0.41707	2.504
Mof_O 	O 	0.6133	0.2504	0.36128	-0.527
Mof_O 	O 	0.718	0.2322	0.4036	-0.552
Mof_O 	O 	0.6188	0.0785	0.4472	-0.566
Mof_O 	O 	0.553	0.0567	0.3954	-0.573
Mof_O 	O 	0.4198	0.1794	0.4486	-0.505
Mof_O 	O 	0.4127	0.2248	0.3929	-0.548
Mof_O 	O 	0.0363	0.0078	0.3682	-0.303
Mof_O 	O 	0.0739	0.927	0.4167	-0.309
Mof_O 	O 	0.596	0.2945	0.46938	-0.502
Mof_O 	O 	0.5409	0.3744	0.4245	-0.503
Mof_C 	C 	0.779	0.2852	0.3464	-0.129
Mof_C 	C 	0.7758	0.3951	0.3368	0.687
Mof_C 	C 	0.8786	0.4148	0.324	-0.468
Mof_H 	H 	0.8806	0.3985	0.2984	0.165
Mof_C 	C 	0.9515	0.3468	0.3431	0.129
Mof_H 	H 	0.9965	0.3175	0.3262	-0.03
Mof_H 	H 	0.9879	0.381	0.3615	-0.018
Mof_C 	C 	0.8831	0.2705	0.3596	-0.181
Mof_H 	H 	0.9052	0.2058	0.353	0.084
Mof_H 	H 	0.8849	0.2755	0.3855	0.084
Mof_C 	C 	0.759	0.266	0.3066	-0.37
Mof_H 	H 	0.7552	0.1976	0.3024	0.137
Mof_H 	H 	0.8117	0.293	0.2925	0.109
Mof_H 	H 	0.6993	0.2968	0.2998	0.124
Mof_C 	C 	0.699	0.4187	0.309	-1.187
Mof_H 	H 	0.6988	0.4875	0.3045	0.387
Mof_H 	H 	0.6363	0.3992	0.3179	0.394
Mof_H 	H 	0.713	0.3844	0.2872	0.362
Mof_C 	C 	0.7439	0.4547	0.3686	-1.165
Mof_H 	H 	0.7892	0.4458	0.388	0.377
Mof_H 	H 	0.6803	0.4341	0.3761	0.384
Mof_H 	H 	0.7419	0.5223	0.3621	0.374
Mof_C 	C 	0.6997	0.2547	0.3717	0.34
Mof_C 	C 	0.5952	0.023	0.4228	0.454
Mof_C 	C 	0.2593	0.1897	0.4238	-0.171
Mof_C 	C 	0.2215	0.1065	0.401	0.75
Mof_C 	C 	0.1163	0.0946	0.413	-0.493
Mof_H 	H 	0.0801	0.1477	0.4016	0.173
Mof_C 	C 	0.1191	0.1179	0.4515	0.118
Mof_H 	H 	0.1275	0.0598	0.466	-0.007
Mof_H 	H 	0.0609	0.152	0.4591	-0.017
Mof_C 	C 	0.2101	0.1845	0.4531	-0.125
Mof_H 	H 	0.1894	0.2496	0.4597	0.069
Mof_H 	H 	0.2527	0.1609	0.472	0.073
Mof_C 	C 	0.212	0.279	0.4061	-0.282
Mof_H 	H 	0.1427	0.2746	0.4082	0.089
Mof_H 	H 	0.2299	0.2813	0.3812	0.09
Mof_H 	H 	0.2344	0.3371	0.4179	0.106
Mof_C 	C 	0.217	0.13	0.361	-1.251
Mof_H 	H 	0.2811	0.141	0.352	0.415
Mof_H 	H 	0.1783	0.1881	0.3575	0.387
Mof_H 	H 	0.1871	0.0771	0.3484	0.416
Mof_C 	C 	0.2865	0.0216	0.4033	-1.288
Mof_H 	H 	0.2876	0.9979	0.4276	0.411
Mof_H 	H 	0.3511	0.0402	0.3962	0.41
Mof_H 	H 	0.2632	0.9712	0.3876	0.409
Mof_C 	C 	0.3725	0.2006	0.4206	0.346
Mof_C 	C 	0.0724	0.001	0.3985	0.432
Mof_C 	C 	0.5568	0.4634	0.4791	-0.095
Mof_C 	C 	0.633	0.47	0.5079	-0.002
Mof_C 	C 	0.559	0.5583	0.4592	0.01
Mof_C 	C 	0.4853	0.4423	0.5096	0.037
Mof_C 	C 	0.479	0.3667	0.5385	-0.026
Mof_C 	C 	0.5679	0.3729	0.4566	0.357
Mof_In	In	0.4392	0.78961	0.91707	2.505
Mof_O 	O 	0.3867	0.7496	0.86128	-0.526
Mof_O 	O 	0.282	0.7678	0.9036	-0.551
Mof_O 	O 	0.3812	0.9215	0.9472	-0.565
Mof_O 	O 	0.447	0.9433	0.8954	-0.572
Mof_O 	O 	0.5802	0.8206	0.9486	-0.505
Mof_O 	O 	0.5873	0.7752	0.8929	-0.547
Mof_O 	O 	0.9637	0.9922	0.8682	-0.302
Mof_O 	O 	0.9261	0.073	0.9167	-0.308
Mof_O 	O 	0.404	0.7055	0.96938	-0.501
Mof_O 	O 	0.4591	0.6256	0.9245	-0.502
Mof_C 	C 	0.221	0.7148	0.8464	-0.128
Mof_C 	C 	0.2242	0.6049	0.8368	0.688
Mof_C 	C 	0.1214	0.5852	0.824	-0.468
Mof_H 	H 	0.1194	0.6015	0.7984	0.165
Mof_C 	C 	0.0485	0.6532	0.8431	0.129
Mof_H 	H 	0.0035	0.6825	0.8262	-0.03
Mof_H 	H 	0.0121	0.619	0.8615	-0.018
Mof_C 	C 	0.1169	0.7295	0.8596	-0.181
Mof_H 	H 	0.0948	0.7942	0.853	0.084
Mof_H 	H 	0.1151	0.7245	0.8855	0.084
Mof_C 	C 	0.241	0.734	0.8066	-0.37
Mof_H 	H 	0.2448	0.8024	0.8024	0.137
Mof_H 	H 	0.1883	0.707	0.7925	0.109
Mof_H 	H 	0.3007	0.7032	0.7998	0.124
Mof_C 	C 	0.301	0.5813	0.809	-1.187
Mof_H 	H 	0.3012	0.5125	0.8045	0.387
Mof_H 	H 	0.3637	0.6008	0.8179	0.394
Mof_H 	H 	0.287	0.6156	0.7872	0.362
Mof_C 	C 	0.2561	0.5453	0.8686	-1.165
Mof_H 	H 	0.2108	0.5542	0.888	0.377
Mof_H 	H 	0.3197	0.5659	0.8761	0.384
Mof_H 	H 	0.2581	0.4777	0.8621	0.374
Mof_C 	C 	0.3003	0.7453	0.8717	0.34
Mof_C 	C 	0.4048	0.977	0.9228	0.454
Mof_C 	C 	0.7407	0.8103	0.9238	-0.171
Mof_C 	C 	0.7785	0.8935	0.901	0.751
Mof_C 	C 	0.8837	0.9054	0.913	-0.493
Mof_H 	H 	0.9199	0.8523	0.9016	0.173
Mof_C 	C 	0.8809	0.8821	0.9515	0.118
Mof_H 	H 	0.8725	0.9402	0.966	-0.007
Mof_H 	H 	0.9391	0.848	0.9591	-0.017
Mof_C 	C 	0.7899	0.8155	0.9531	-0.124
Mof_H 	H 	0.8106	0.7504	0.9597	0.069
Mof_H 	H 	0.7473	0.8391	0.972	0.073
Mof_C 	C 	0.788	0.721	0.9061	-0.282
Mof_H 	H 	0.8573	0.7254	0.9082	0.089
Mof_H 	H 	0.7701	0.7187	0.8812	0.09
Mof_H 	H 	0.7656	0.6629	0.9179	0.106
Mof_C 	C 	0.783	0.87	0.861	-1.252
Mof_H 	H 	0.7189	0.859	0.852	0.415
Mof_H 	H 	0.8217	0.8119	0.8575	0.387
Mof_H 	H 	0.8129	0.9229	0.8484	0.416
Mof_C 	C 	0.7135	0.9784	0.9033	-1.289
Mof_H 	H 	0.7124	0.0021	0.9276	0.411
Mof_H 	H 	0.6489	0.9598	0.8962	0.411
Mof_H 	H 	0.7368	0.0288	0.8876	0.409
Mof_C 	C 	0.6275	0.7994	0.9206	0.346
Mof_C 	C 	0.9276	0.999	0.8985	0.432
Mof_C 	C 	0.4432	0.5366	0.9791	-0.095
Mof_C 	C 	0.367	0.53	0.0079	-0.002
Mof_C 	C 	0.441	0.4417	0.9592	0.01
Mof_C 	C 	0.5147	0.5577	0.0096	0.037
Mof_C 	C 	0.521	0.6333	0.0385	-0.026
Mof_C 	C 	0.4321	0.6271	0.9566	0.357
Mof_In	In	0.28961	0.0608	0.16707	2.501
Mof_O 	O 	0.2496	0.1133	0.11128	-0.526
Mof_O 	O 	0.2678	0.218	0.1536	-0.55
Mof_O 	O 	0.4215	0.1188	0.1972	-0.565
Mof_O 	O 	0.4433	0.053	0.1454	-0.573
Mof_O 	O 	0.3206	0.9198	0.1986	-0.504
Mof_O 	O 	0.2752	0.9127	0.1429	-0.546
Mof_O 	O 	0.4922	0.5363	0.1182	-0.304
Mof_O 	O 	0.573	0.5739	0.1667	-0.307
Mof_O 	O 	0.2055	0.096	0.21938	-0.501
Mof_O 	O 	0.1256	0.0409	0.1745	-0.502
Mof_C 	C 	0.2148	0.279	0.0964	-0.128
Mof_C 	C 	0.1049	0.2758	0.0868	0.687
Mof_C 	C 	0.0852	0.3786	0.074	-0.468
Mof_H 	H 	0.1015	0.3806	0.0484	0.165
Mof_C 	C 	0.1532	0.4515	0.0931	0.129
Mof_H 	H 	0.1825	0.4965	0.0762	-0.029
Mof_H 	H 	0.119	0.4879	0.1115	-0.017
Mof_C 	C 	0.2295	0.3831	0.1096	-0.181
Mof_H 	H 	0.2942	0.4052	0.103	0.085
Mof_H 	H 	0.2245	0.3849	0.1355	0.085
Mof_C 	C 	0.234	0.259	0.0566	-0.37
Mof_H 	H 	0.3024	0.2552	0.0524	0.137
Mof_H 	H 	0.207	0.3117	0.0425	0.109
Mof_H 	H 	0.2032	0.1993	0.0498	0.124
Mof_C 	C 	0.0813	0.199	0.059	-1.185
Mof_H 	H 	0.0125	0.1988	0.0545	0.385
Mof_H 	H 	0.1008	0.1363	0.0679	0.393
Mof_H 	H 	0.1156	0.213	0.0372	0.361
Mof_C 	C 	0.0453	0.2439	0.1186	-1.165
Mof_H 	H 	0.0542	0.2892	0.138	0.377
Mof_H 	H 	0.0659	0.1803	0.1261	0.383
Mof_H 	H 	0.9777	0.2419	0.1121	0.374
Mof_C 	C 	0.2453	0.1997	0.1217	0.34
Mof_C 	C 	0.477	0.0952	0.1728	0.453
Mof_C 	C 	0.3103	0.7593	0.1738	-0.176
Mof_C 	C 	0.3935	0.7215	0.151	0.759
Mof_C 	C 	0.4054	0.6163	0.163	-0.497
Mof_H 	H 	0.3523	0.5801	0.1516	0.173
Mof_C 	C 	0.3821	0.6191	0.2015	0.119
Mof_H 	H 	0.4402	0.6275	0.216	-0.009
Mof_H 	H 	0.348	0.5609	0.2091	-0.018
Mof_C 	C 	0.3155	0.7101	0.2031	-0.122
Mof_H 	H 	0.2504	0.6894	0.2097	0.068
Mof_H 	H 	0.3391	0.7527	0.222	0.072
Mof_C 	C 	0.221	0.712	0.1561	-0.277
Mof_H 	H 	0.2254	0.6427	0.1582	0.087
Mof_H 	H 	0.2187	0.7299	0.1312	0.089
Mof_H 	H 	0.1629	0.7344	0.1679	0.105
Mof_C 	C 	0.37	0.717	0.111	-1.26
Mof_H 	H 	0.359	0.7811	0.102	0.418
Mof_H 	H 	0.3119	0.6783	0.1075	0.389
Mof_H 	H 	0.4229	0.6871	0.0984	0.419
Mof_C 	C 	0.4784	0.7865	0.1533	-1.309
Mof_H 	H 	0.5021	0.7876	0.1776	0.419
Mof_H 	H 	0.4598	0.8511	0.1462	0.417
Mof_H 	H 	0.5288	0.7632	0.1376	0.416
Mof_C 	C 	0.2994	0.8725	0.1706	0.347
Mof_C 	C 	0.499	0.5724	0.1485	0.431
Mof_C 	C 	0.0366	0.0568	0.2291	-0.095
Mof_C 	C 	0.03	0.133	0.2579	-0.001
Mof_C 	C 	0.9417	0.059	0.2092	0.006
Mof_C 	C 	0.0577	0.9853	0.2596	0.038
Mof_C 	C 	0.1333	0.979	0.2885	-0.025
Mof_C 	C 	0.1271	0.0679	0.2066	0.356
Mof_In	In	0.71039	0.9392	0.66707	2.501
Mof_O 	O 	0.7504	0.8867	0.61128	-0.526
Mof_O 	O 	0.7322	0.782	0.6536	-0.55
Mof_O 	O 	0.5785	0.8812	0.6972	-0.565
Mof_O 	O 	0.5567	0.947	0.6454	-0.573
Mof_O 	O 	0.6794	0.0802	0.6986	-0.504
Mof_O 	O 	0.7248	0.0873	0.6429	-0.546
Mof_O 	O 	0.5078	0.4637	0.6182	-0.304
Mof_O 	O 	0.427	0.4261	0.6667	-0.307
Mof_O 	O 	0.7945	0.904	0.71938	-0.501
Mof_O 	O 	0.8744	0.9591	0.6745	-0.502
Mof_C 	C 	0.7852	0.721	0.5964	-0.128
Mof_C 	C 	0.8951	0.7242	0.5868	0.687
Mof_C 	C 	0.9148	0.6214	0.574	-0.468
Mof_H 	H 	0.8985	0.6194	0.5484	0.165
Mof_C 	C 	0.8468	0.5485	0.5931	0.129
Mof_H 	H 	0.8175	0.5035	0.5762	-0.029
Mof_H 	H 	0.881	0.5121	0.6115	-0.017
Mof_C 	C 	0.7705	0.6169	0.6096	-0.181
Mof_H 	H 	0.7058	0.5948	0.603	0.085
Mof_H 	H 	0.7755	0.6151	0.6355	0.085
Mof_C 	C 	0.766	0.741	0.5566	-0.37
Mof_H 	H 	0.6976	0.7448	0.5524	0.137
Mof_H 	H 	0.793	0.6883	0.5425	0.109
Mof_H 	H 	0.7968	0.8007	0.5498	0.124
Mof_C 	C 	0.9187	0.801	0.559	-1.185
Mof_H 	H 	0.9875	0.8012	0.5545	0.385
Mof_H 	H 	0.8992	0.8637	0.5679	0.393
Mof_H 	H 	0.8844	0.787	0.5372	0.361
Mof_C 	C 	0.9547	0.7561	0.6186	-1.165
Mof_H 	H 	0.9458	0.7108	0.638	0.377
Mof_H 	H 	0.9341	0.8197	0.6261	0.383
Mof_H 	H 	0.0223	0.7581	0.6121	0.374
Mof_C 	C 	0.7547	0.8003	0.6217	0.34
Mof_C 	C 	0.523	0.9048	0.6728	0.453
Mof_C 	C 	0.6897	0.2407	0.6738	-0.176
Mof_C 	C 	0.6065	0.2785	0.651	0.759
Mof_C 	C 	0.5946	0.3837	0.663	-0.496
Mof_H 	H 	0.6477	0.4199	0.6516	0.173
Mof_C 	C 	0.6179	0.3809	0.7015	0.119
Mof_H 	H 	0.5598	0.3725	0.716	-0.009
Mof_H 	H 	0.652	0.4391	0.7091	-0.018
Mof_C 	C 	0.6845	0.2899	0.7031	-0.122
Mof_H 	H 	0.7496	0.3106	0.7097	0.068
Mof_H 	H 	0.6609	0.2473	0.722	0.072
Mof_C 	C 	0.779	0.288	0.6561	-0.277
Mof_H 	H 	0.7746	0.3573	0.6582	0.087
Mof_H 	H 	0.7813	0.2701	0.6312	0.089
Mof_H 	H 	0.8371	0.2656	0.6679	0.105
Mof_C 	C 	0.63	0.283	0.611	-1.26
Mof_H 	H 	0.641	0.2189	0.602	0.418
Mof_H 	H 	0.6881	0.3217	0.6075	0.389
Mof_H 	H 	0.5771	0.3129	0.5984	0.419
Mof_C 	C 	0.5216	0.2135	0.6533	-1.309
Mof_H 	H 	0.4979	0.2124	0.6776	0.418
Mof_H 	H 	0.5402	0.1489	0.6462	0.417
Mof_H 	H 	0.4712	0.2368	0.6376	0.416
Mof_C 	C 	0.7006	0.1275	0.6706	0.347
Mof_C 	C 	0.501	0.4276	0.6485	0.431
Mof_C 	C 	0.9634	0.9432	0.7291	-0.095
Mof_C 	C 	0.97	0.867	0.7579	-0.001
Mof_C 	C 	0.0583	0.941	0.7092	0.006
Mof_C 	C 	0.9423	0.0147	0.7596	0.038
Mof_C 	C 	0.8667	0.021	0.7885	-0.025
Mof_C 	C 	0.8729	0.9321	0.7066	0.356
Mof_In	In	0.9392	0.71039	0.33293	2.501
Mof_O 	O 	0.8867	0.7504	0.38872	-0.526
Mof_O 	O 	0.782	0.7322	0.3464	-0.55
Mof_O 	O 	0.8812	0.5785	0.3028	-0.565
Mof_O 	O 	0.947	0.5567	0.3546	-0.573
Mof_O 	O 	0.0802	0.6794	0.3014	-0.504
Mof_O 	O 	0.0873	0.7248	0.3571	-0.546
Mof_O 	O 	0.4637	0.5078	0.3818	-0.304
Mof_O 	O 	0.4261	0.427	0.3333	-0.307
Mof_O 	O 	0.904	0.7945	0.28062	-0.501
Mof_O 	O 	0.9591	0.8744	0.3255	-0.502
Mof_C 	C 	0.721	0.7852	0.4036	-0.128
Mof_C 	C 	0.7242	0.8951	0.4132	0.687
Mof_C 	C 	0.6214	0.9148	0.426	-0.468
Mof_H 	H 	0.6194	0.8985	0.4516	0.165
Mof_C 	C 	0.5485	0.8468	0.4069	0.129
Mof_H 	H 	0.5035	0.8175	0.4238	-0.029
Mof_H 	H 	0.5121	0.881	0.3885	-0.017
Mof_C 	C 	0.6169	0.7705	0.3904	-0.181
Mof_H 	H 	0.5948	0.7058	0.397	0.085
Mof_H 	H 	0.6151	0.7755	0.3645	0.085
Mof_C 	C 	0.741	0.766	0.4434	-0.37
Mof_H 	H 	0.7448	0.6976	0.4476	0.137
Mof_H 	H 	0.6883	0.793	0.4575	0.109
Mof_H 	H 	0.8007	0.7968	0.4502	0.124
Mof_C 	C 	0.801	0.9187	0.441	-1.185
Mof_H 	H 	0.8012	0.9875	0.4455	0.385
Mof_H 	H 	0.8637	0.8992	0.4321	0.393
Mof_H 	H 	0.787	0.8844	0.4628	0.361
Mof_C 	C 	0.7561	0.9547	0.3814	-1.165
Mof_H 	H 	0.7108	0.9458	0.362	0.377
Mof_H 	H 	0.8197	0.9341	0.3739	0.383
Mof_H 	H 	0.7581	0.0223	0.3879	0.374
Mof_C 	C 	0.8003	0.7547	0.3783	0.34
Mof_C 	C 	0.9048	0.523	0.3272	0.453
Mof_C 	C 	0.2407	0.6897	0.3262	-0.176
Mof_C 	C 	0.2785	0.6065	0.349	0.759
Mof_C 	C 	0.3837	0.5946	0.337	-0.496
Mof_H 	H 	0.4199	0.6477	0.3484	0.173
Mof_C 	C 	0.3809	0.6179	0.2985	0.119
Mof_H 	H 	0.3725	0.5598	0.284	-0.009
Mof_H 	H 	0.4391	0.652	0.2909	-0.018
Mof_C 	C 	0.2899	0.6845	0.2969	-0.122
Mof_H 	H 	0.3106	0.7496	0.2903	0.068
Mof_H 	H 	0.2473	0.6609	0.278	0.072
Mof_C 	C 	0.288	0.779	0.3439	-0.277
Mof_H 	H 	0.3573	0.7746	0.3418	0.087
Mof_H 	H 	0.2701	0.7813	0.3688	0.089
Mof_H 	H 	0.2656	0.8371	0.3321	0.105
Mof_C 	C 	0.283	0.63	0.389	-1.26
Mof_H 	H 	0.2189	0.641	0.398	0.418
Mof_H 	H 	0.3217	0.6881	0.3925	0.389
Mof_H 	H 	0.3129	0.5771	0.4016	0.419
Mof_C 	C 	0.2135	0.5216	0.3467	-1.309
Mof_H 	H 	0.2124	0.4979	0.3224	0.418
Mof_H 	H 	0.1489	0.5402	0.3538	0.417
Mof_H 	H 	0.2368	0.4712	0.3624	0.416
Mof_C 	C 	0.1275	0.7006	0.3294	0.347
Mof_C 	C 	0.4276	0.501	0.3515	0.431
Mof_C 	C 	0.9432	0.9634	0.2709	-0.095
Mof_C 	C 	0.867	0.97	0.2421	-0.001
Mof_C 	C 	0.941	0.0583	0.2908	0.006
Mof_C 	C 	0.0147	0.9423	0.2404	0.038
Mof_C 	C 	0.021	0.8667	0.2115	-0.025
Mof_C 	C 	0.9321	0.8729	0.2934	0.356
Mof_In	In	0.0608	0.28961	0.83293	2.501
Mof_O 	O 	0.1133	0.2496	0.88872	-0.526
Mof_O 	O 	0.218	0.2678	0.8464	-0.55
Mof_O 	O 	0.1188	0.4215	0.8028	-0.565
Mof_O 	O 	0.053	0.4433	0.8546	-0.573
Mof_O 	O 	0.9198	0.3206	0.8014	-0.504
Mof_O 	O 	0.9127	0.2752	0.8571	-0.546
Mof_O 	O 	0.5363	0.4922	0.8818	-0.304
Mof_O 	O 	0.5739	0.573	0.8333	-0.307
Mof_O 	O 	0.096	0.2055	0.78062	-0.501
Mof_O 	O 	0.0409	0.1256	0.8255	-0.502
Mof_C 	C 	0.279	0.2148	0.9036	-0.128
Mof_C 	C 	0.2758	0.1049	0.9132	0.687
Mof_C 	C 	0.3786	0.0852	0.926	-0.468
Mof_H 	H 	0.3806	0.1015	0.9516	0.165
Mof_C 	C 	0.4515	0.1532	0.9069	0.129
Mof_H 	H 	0.4965	0.1825	0.9238	-0.029
Mof_H 	H 	0.4879	0.119	0.8885	-0.017
Mof_C 	C 	0.3831	0.2295	0.8904	-0.181
Mof_H 	H 	0.4052	0.2942	0.897	0.085
Mof_H 	H 	0.3849	0.2245	0.8645	0.085
Mof_C 	C 	0.259	0.234	0.9434	-0.37
Mof_H 	H 	0.2552	0.3024	0.9476	0.137
Mof_H 	H 	0.3117	0.207	0.9575	0.109
Mof_H 	H 	0.1993	0.2032	0.9502	0.124
Mof_C 	C 	0.199	0.0813	0.941	-1.185
Mof_H 	H 	0.1988	0.0125	0.9455	0.385
Mof_H 	H 	0.1363	0.1008	0.9321	0.393
Mof_H 	H 	0.213	0.1156	0.9628	0.361
Mof_C 	C 	0.2439	0.0453	0.8814	-1.165
Mof_H 	H 	0.2892	0.0542	0.862	0.377
Mof_H 	H 	0.1803	0.0659	0.8739	0.383
Mof_H 	H 	0.2419	0.9777	0.8879	0.374
Mof_C 	C 	0.1997	0.2453	0.8783	0.34
Mof_C 	C 	0.0952	0.477	0.8272	0.453
Mof_C 	C 	0.7593	0.3103	0.8262	-0.176
Mof_C 	C 	0.7215	0.3935	0.849	0.759
Mof_C 	C 	0.6163	0.4054	0.837	-0.496
Mof_H 	H 	0.5801	0.3523	0.8484	0.173
Mof_C 	C 	0.6191	0.3821	0.7985	0.119
Mof_H 	H 	0.6275	0.4402	0.784	-0.009
Mof_H 	H 	0.5609	0.348	0.7909	-0.018
Mof_C 	C 	0.7101	0.3155	0.7969	-0.122
Mof_H 	H 	0.6894	0.2504	0.7903	0.068
Mof_H 	H 	0.7527	0.3391	0.778	0.072
Mof_C 	C 	0.712	0.221	0.8439	-0.277
Mof_H 	H 	0.6427	0.2254	0.8418	0.087
Mof_H 	H 	0.7299	0.2187	0.8688	0.089
Mof_H 	H 	0.7344	0.1629	0.8321	0.105
Mof_C 	C 	0.717	0.37	0.889	-1.26
Mof_H 	H 	0.7811	0.359	0.898	0.418
Mof_H 	H 	0.6783	0.3119	0.8925	0.389
Mof_H 	H 	0.6871	0.4229	0.9016	0.419
Mof_C 	C 	0.7865	0.4784	0.8467	-1.309
Mof_H 	H 	0.7876	0.5021	0.8224	0.419
Mof_H 	H 	0.8511	0.4598	0.8538	0.417
Mof_H 	H 	0.7632	0.5288	0.8624	0.416
Mof_C 	C 	0.8725	0.2994	0.8294	0.347
Mof_C 	C 	0.5724	0.499	0.8515	0.431
Mof_C 	C 	0.0568	0.0366	0.7709	-0.095
Mof_C 	C 	0.133	0.03	0.7421	-0.001
Mof_C 	C 	0.059	0.9417	0.7908	0.006
Mof_C 	C 	0.9853	0.0577	0.7404	0.038
Mof_C 	C 	0.979	0.1333	0.7115	-0.025
Mof_C 	C 	0.0679	0.1271	0.7934	0.356
Mof_In	In	0.21039	0.5608	0.58293	2.505
Mof_O 	O 	0.2504	0.6133	0.63872	-0.526
Mof_O 	O 	0.2322	0.718	0.5964	-0.551
Mof_O 	O 	0.0785	0.6188	0.5528	-0.565
Mof_O 	O 	0.0567	0.553	0.6046	-0.572
Mof_O 	O 	0.1794	0.4198	0.5514	-0.504
Mof_O 	O 	0.2248	0.4127	0.6071	-0.547
Mof_O 	O 	0.0078	0.0363	0.6318	-0.302
Mof_O 	O 	0.927	0.0739	0.5833	-0.308
Mof_O 	O 	0.2945	0.596	0.53062	-0.501
Mof_O 	O 	0.3744	0.5409	0.5755	-0.502
Mof_C 	C 	0.2852	0.779	0.6536	-0.128
Mof_C 	C 	0.3951	0.7758	0.6632	0.688
Mof_C 	C 	0.4148	0.8786	0.676	-0.468
Mof_H 	H 	0.3985	0.8806	0.7016	0.165
Mof_C 	C 	0.3468	0.9515	0.6569	0.129
Mof_H 	H 	0.3175	0.9965	0.6738	-0.03
Mof_H 	H 	0.381	0.9879	0.6385	-0.018
Mof_C 	C 	0.2705	0.8831	0.6404	-0.181
Mof_H 	H 	0.2058	0.9052	0.647	0.084
Mof_H 	H 	0.2755	0.8849	0.6145	0.084
Mof_C 	C 	0.266	0.759	0.6934	-0.37
Mof_H 	H 	0.1976	0.7552	0.6976	0.137
Mof_H 	H 	0.293	0.8117	0.7075	0.109
Mof_H 	H 	0.2968	0.6993	0.7002	0.124
Mof_C 	C 	0.4187	0.699	0.691	-1.187
Mof_H 	H 	0.4875	0.6988	0.6955	0.387
Mof_H 	H 	0.3992	0.6363	0.6821	0.394
Mof_H 	H 	0.3844	0.713	0.7128	0.362
Mof_C 	C 	0.4547	0.7439	0.6314	-1.165
Mof_H 	H 	0.4458	0.7892	0.612	0.377
Mof_H 	H 	0.4341	0.6803	0.6239	0.384
Mof_H 	H 	0.5223	0.7419	0.6379	0.374
Mof_C 	C 	0.2547	0.6997	0.6283	0.34
Mof_C 	C 	0.023	0.5952	0.5772	0.454
Mof_C 	C 	0.1897	0.2593	0.5762	-0.171
Mof_C 	C 	0.1065	0.2215	0.599	0.75
Mof_C 	C 	0.0946	0.1163	0.587	-0.493
Mof_H 	H 	0.1477	0.0801	0.5984	0.173
Mof_C 	C 	0.1179	0.1191	0.5485	0.118
Mof_H 	H 	0.0598	0.1275	0.534	-0.007
Mof_H 	H 	0.152	0.0609	0.5409	-0.017
Mof_C 	C 	0.1845	0.2101	0.5469	-0.125
Mof_H 	H 	0.2496	0.1894	0.5403	0.069
Mof_H 	H 	0.1609	0.2527	0.528	0.073
Mof_C 	C 	0.279	0.212	0.5939	-0.282
Mof_H 	H 	0.2746	0.1427	0.5918	0.089
Mof_H 	H 	0.2813	0.2299	0.6188	0.09
Mof_H 	H 	0.3371	0.2344	0.5821	0.106
Mof_C 	C 	0.13	0.217	0.639	-1.251
Mof_H 	H 	0.141	0.2811	0.648	0.415
Mof_H 	H 	0.1881	0.1783	0.6425	0.387
Mof_H 	H 	0.0771	0.1871	0.6516	0.416
Mof_C 	C 	0.0216	0.2865	0.5967	-1.288
Mof_H 	H 	0.9979	0.2876	0.5724	0.411
Mof_H 	H 	0.0402	0.3511	0.6038	0.41
Mof_H 	H 	0.9712	0.2632	0.6124	0.409
Mof_C 	C 	0.2006	0.3725	0.5794	0.346
Mof_C 	C 	0.001	0.0724	0.6015	0.432
Mof_C 	C 	0.4634	0.5568	0.5209	-0.095
Mof_C 	C 	0.47	0.633	0.4921	-0.002
Mof_C 	C 	0.5583	0.559	0.5408	0.01
Mof_C 	C 	0.4423	0.4853	0.4904	0.037
Mof_C 	C 	0.3667	0.479	0.4615	-0.026
Mof_C 	C 	0.3729	0.5679	0.5434	0.357
Mof_In	In	0.78961	0.4392	0.08293	2.505
Mof_O 	O 	0.7496	0.3867	0.13872	-0.526
Mof_O 	O 	0.7678	0.282	0.0964	-0.551
Mof_O 	O 	0.9215	0.3812	0.0528	-0.565
Mof_O 	O 	0.9433	0.447	0.1046	-0.572
Mof_O 	O 	0.8206	0.5802	0.0514	-0.504
Mof_O 	O 	0.7752	0.5873	0.1071	-0.547
Mof_O 	O 	0.9922	0.9637	0.1318	-0.302
Mof_O 	O 	0.073	0.9261	0.0833	-0.308
Mof_O 	O 	0.7055	0.404	0.03062	-0.501
Mof_O 	O 	0.6256	0.4591	0.0755	-0.502
Mof_C 	C 	0.7148	0.221	0.1536	-0.128
Mof_C 	C 	0.6049	0.2242	0.1632	0.688
Mof_C 	C 	0.5852	0.1214	0.176	-0.468
Mof_H 	H 	0.6015	0.1194	0.2016	0.165
Mof_C 	C 	0.6532	0.0485	0.1569	0.129
Mof_H 	H 	0.6825	0.0035	0.1738	-0.03
Mof_H 	H 	0.619	0.0121	0.1385	-0.018
Mof_C 	C 	0.7295	0.1169	0.1404	-0.181
Mof_H 	H 	0.7942	0.0948	0.147	0.084
Mof_H 	H 	0.7245	0.1151	0.1145	0.084
Mof_C 	C 	0.734	0.241	0.1934	-0.37
Mof_H 	H 	0.8024	0.2448	0.1976	0.137
Mof_H 	H 	0.707	0.1883	0.2075	0.109
Mof_H 	H 	0.7032	0.3007	0.2002	0.124
Mof_C 	C 	0.5813	0.301	0.191	-1.187
Mof_H 	H 	0.5125	0.3012	0.1955	0.387
Mof_H 	H 	0.6008	0.3637	0.1821	0.394
Mof_H 	H 	0.6156	0.287	0.2128	0.362
Mof_C 	C 	0.5453	0.2561	0.1314	-1.165
Mof_H 	H 	0.5542	0.2108	0.112	0.377
Mof_H 	H 	0.5659	0.3197	0.1239	0.384
Mof_H 	H 	0.4777	0.2581	0.1379	0.374
Mof_C 	C 	0.7453	0.3003	0.1283	0.34
Mof_C 	C 	0.977	0.4048	0.0772	0.454
Mof_C 	C 	0.8103	0.7407	0.0762	-0.171
Mof_C 	C 	0.8935	0.7785	0.099	0.751
Mof_C 	C 	0.9054	0.8837	0.087	-0.493
Mof_H 	H 	0.8523	0.9199	0.0984	0.173
Mof_C 	C 	0.8821	0.8809	0.0485	0.118
Mof_H 	H 	0.9402	0.8725	0.034	-0.007
Mof_H 	H 	0.848	0.9391	0.0409	-0.017
Mof_C 	C 	0.8155	0.7899	0.0469	-0.124
Mof_H 	H 	0.7504	0.8106	0.0403	0.069
Mof_H 	H 	0.8391	0.7473	0.028	0.073
Mof_C 	C 	0.721	0.788	0.0939	-0.282
Mof_H 	H 	0.7254	0.8573	0.0918	0.089
Mof_H 	H 	0.7187	0.7701	0.1188	0.09
Mof_H 	H 	0.6629	0.7656	0.0821	0.106
Mof_C 	C 	0.87	0.783	0.139	-1.252
Mof_H 	H 	0.859	0.7189	0.148	0.415
Mof_H 	H 	0.8119	0.8217	0.1425	0.387
Mof_H 	H 	0.9229	0.8129	0.1516	0.416
Mof_C 	C 	0.9784	0.7135	0.0967	-1.289
Mof_H 	H 	0.0021	0.7124	0.0724	0.411
Mof_H 	H 	0.9598	0.6489	0.1038	0.411
Mof_H 	H 	0.0288	0.7368	0.1124	0.409
Mof_C 	C 	0.7994	0.6275	0.0794	0.346
Mof_C 	C 	0.999	0.9276	0.1015	0.432
Mof_C 	C 	0.5366	0.4432	0.0209	-0.095
Mof_C 	C 	0.53	0.367	0.9921	-0.003
Mof_C 	C 	0.4417	0.441	0.0408	0.01
Mof_C 	C 	0.5577	0.5147	0.9904	0.037
Mof_C 	C 	0.6333	0.521	0.9615	-0.026
Mof_C 	C 	0.6271	0.4321	0.0434	0.357
Mof_C 	C 	0.3945	0.3945	0.5	-0.016
Mof_C 	C 	0.6055	0.6055	-0	-0.016
Mof_C 	C 	0.1055	0.8945	0.25	-0.016
Mof_C 	C 	0.8945	0.1055	0.75	-0.016
_end
