data_functionalizedCrystal
_audit_creation_method	'EQeq! by Chris Wilmer'
_symmetry_space_group_name_H-M	'P1'
_symmetry_Int_Tables_number	1
_symmetry_cell_setting	triclinic
loop_
_symmetry_equiv_pos_as_xyz
  x,y,z
_cell_length_a	26.211
_cell_length_b	13.5295
_cell_length_c	6.7481
_cell_angle_alpha	90
_cell_angle_beta	92.294
_cell_angle_gamma	90
loop_
_atom_site_label
_atom_site_type_symbol
_atom_site_fract_x
_atom_site_fract_y
_atom_site_fract_z
_atom_site_charge
Mof_Ce	Ce	0.10348	0.19284	0.50963	2.472
Mof_N 	N 	0.29573	0.869	0.4088	-0.177
Mof_O 	O 	0.31348	0.22089	0.4251	-0.502
Mof_O 	O 	0.37924	0.1265	0.5087	-0.523
Mof_O 	O 	0.13721	0.04084	0.4018	-0.681
Mof_O 	O 	0.14023	0.88475	0.3045	-0.654
Mof_O 	O 	0.01627	0.261	0.4228	-0.591
Mof_O 	O 	0.04463	0.1392	0.207	-0.572
Mof_C 	C 	0.16117	0.9642	0.3624	0.604
Mof_C 	C 	0.21857	0.9649	0.3871	-0.285
Mof_C 	C 	0.24475	0.8754	0.3846	0.158
Mof_H 	H 	0.2261	0.8174	0.3654	-0.017
Mof_C 	C 	0.32221	0.9532	0.4332	0.11
Mof_H 	H 	0.3575	0.9493	0.4506	-0.01
Mof_C 	C 	0.29941	0.0464	0.4338	-0.17
Mof_C 	C 	0.24661	0.0524	0.4109	0.166
Mof_H 	H 	0.2302	0.1133	0.4114	-0.038
Mof_C 	C 	0.33233	0.1372	0.4572	0.347
Mof_Ce	Ce	0.60348	0.69284	0.50963	2.494
Mof_N 	N 	0.79573	0.369	0.4088	-0.175
Mof_O 	O 	0.81348	0.72089	0.4251	-0.502
Mof_O 	O 	0.87924	0.6265	0.5087	-0.519
Mof_O 	O 	0.63721	0.54084	0.4018	-0.683
Mof_O 	O 	0.64023	0.38475	0.3045	-0.656
Mof_O 	O 	0.51627	0.761	0.4228	-0.596
Mof_O 	O 	0.54463	0.6392	0.207	-0.583
Mof_C 	C 	0.66117	0.4642	0.3624	0.607
Mof_C 	C 	0.71857	0.4649	0.3871	-0.286
Mof_C 	C 	0.74475	0.3754	0.3846	0.159
Mof_H 	H 	0.7261	0.3174	0.3654	-0.017
Mof_C 	C 	0.82221	0.4532	0.4332	0.111
Mof_H 	H 	0.8575	0.4493	0.4506	-0.007
Mof_C 	C 	0.79941	0.5464	0.4338	-0.169
Mof_C 	C 	0.74661	0.5524	0.4109	0.166
Mof_H 	H 	0.7302	0.6133	0.4114	-0.038
Mof_C 	C 	0.83233	0.6372	0.4572	0.346
Mof_Ce	Ce	0.89652	0.19284	0.99037	2.49
Mof_N 	N 	0.70427	0.869	0.0912	-0.176
Mof_O 	O 	0.68652	0.22089	0.0749	-0.501
Mof_O 	O 	0.62076	0.1265	0.9913	-0.523
Mof_O 	O 	0.86279	0.04084	0.0982	-0.678
Mof_O 	O 	0.85977	0.88475	0.1955	-0.654
Mof_O 	O 	0.98373	0.261	0.0772	-0.549
Mof_O 	O 	0.95537	0.1392	0.293	-0.543
Mof_C 	C 	0.83883	0.9642	0.1376	0.604
Mof_C 	C 	0.78143	0.9649	0.1129	-0.287
Mof_C 	C 	0.75525	0.8754	0.1154	0.159
Mof_H 	H 	0.7739	0.8174	0.1346	-0.018
Mof_C 	C 	0.67779	0.9532	0.0668	0.108
Mof_H 	H 	0.6425	0.9493	0.0494	-0.01
Mof_C 	C 	0.70059	0.0464	0.0662	-0.169
Mof_C 	C 	0.75339	0.0524	0.0891	0.168
Mof_H 	H 	0.7698	0.1133	0.0886	-0.038
Mof_C 	C 	0.66767	0.1372	0.0428	0.347
Mof_Ce	Ce	0.39652	0.69284	0.99037	2.493
Mof_N 	N 	0.20427	0.369	0.0912	-0.176
Mof_O 	O 	0.18652	0.72089	0.0749	-0.498
Mof_O 	O 	0.12076	0.6265	0.9913	-0.519
Mof_O 	O 	0.36279	0.54084	0.0982	-0.682
Mof_O 	O 	0.35977	0.38475	0.1955	-0.655
Mof_O 	O 	0.48373	0.761	0.0772	-0.595
Mof_O 	O 	0.45537	0.6392	0.293	-0.582
Mof_C 	C 	0.33883	0.4642	0.1376	0.607
Mof_C 	C 	0.28143	0.4649	0.1129	-0.286
Mof_C 	C 	0.25525	0.3754	0.1154	0.159
Mof_H 	H 	0.2739	0.3174	0.1346	-0.017
Mof_C 	C 	0.17779	0.4532	0.0668	0.112
Mof_H 	H 	0.1425	0.4493	0.0494	-0.013
Mof_C 	C 	0.20059	0.5464	0.0662	-0.171
Mof_C 	C 	0.25339	0.5524	0.0891	0.167
Mof_H 	H 	0.2698	0.6133	0.0886	-0.039
Mof_C 	C 	0.16767	0.6372	0.0428	0.344
Mof_Ce	Ce	0.89652	0.80716	0.49037	2.506
Mof_N 	N 	0.70427	0.131	0.5912	-0.176
Mof_O 	O 	0.68652	0.77911	0.5749	-0.501
Mof_O 	O 	0.62076	0.8735	0.4913	-0.522
Mof_O 	O 	0.86279	0.95916	0.5982	-0.683
Mof_O 	O 	0.85977	0.11525	0.6955	-0.654
Mof_O 	O 	0.98373	0.739	0.5772	-0.554
Mof_O 	O 	0.95537	0.8608	0.793	-0.546
Mof_C 	C 	0.83883	0.0358	0.6376	0.606
Mof_C 	C 	0.78143	0.0351	0.6129	-0.287
Mof_C 	C 	0.75525	0.1246	0.6154	0.159
Mof_H 	H 	0.7739	0.1826	0.6346	-0.018
Mof_C 	C 	0.67779	0.0468	0.5668	0.111
Mof_H 	H 	0.6425	0.0507	0.5494	-0.01
Mof_C 	C 	0.70059	0.9536	0.5662	-0.171
Mof_C 	C 	0.75339	0.9476	0.5891	0.167
Mof_H 	H 	0.7698	0.8867	0.5886	-0.039
Mof_C 	C 	0.66767	0.8628	0.5428	0.347
Mof_Ce	Ce	0.39652	0.30716	0.49037	2.494
Mof_N 	N 	0.20427	0.631	0.5912	-0.176
Mof_O 	O 	0.18652	0.27911	0.5749	-0.5
Mof_O 	O 	0.12076	0.3735	0.4913	-0.524
Mof_O 	O 	0.36279	0.45916	0.5982	-0.683
Mof_O 	O 	0.35977	0.61525	0.6955	-0.656
Mof_O 	O 	0.48373	0.239	0.5772	-0.596
Mof_O 	O 	0.45537	0.3608	0.793	-0.583
Mof_C 	C 	0.33883	0.5358	0.6376	0.607
Mof_C 	C 	0.28143	0.5351	0.6129	-0.286
Mof_C 	C 	0.25525	0.6246	0.6154	0.159
Mof_H 	H 	0.2739	0.6826	0.6346	-0.018
Mof_C 	C 	0.17779	0.5468	0.5668	0.113
Mof_H 	H 	0.1425	0.5507	0.5494	-0.012
Mof_C 	C 	0.20059	0.4536	0.5662	-0.172
Mof_C 	C 	0.25339	0.4476	0.5891	0.167
Mof_H 	H 	0.2698	0.3867	0.5886	-0.039
Mof_C 	C 	0.16767	0.3628	0.5428	0.347
Mof_Ce	Ce	0.10348	0.80716	0.00963	2.46
Mof_N 	N 	0.29573	0.131	0.9088	-0.176
Mof_O 	O 	0.31348	0.77911	0.9251	-0.501
Mof_O 	O 	0.37924	0.8735	0.0087	-0.522
Mof_O 	O 	0.13721	0.95916	0.9018	-0.677
Mof_O 	O 	0.14023	0.11525	0.8045	-0.654
Mof_O 	O 	0.01627	0.739	0.9228	-0.588
Mof_O 	O 	0.04463	0.8608	0.707	-0.571
Mof_C 	C 	0.16117	0.0358	0.8624	0.602
Mof_C 	C 	0.21857	0.0351	0.8871	-0.286
Mof_C 	C 	0.24475	0.1246	0.8846	0.158
Mof_H 	H 	0.2261	0.1826	0.8654	-0.017
Mof_C 	C 	0.32221	0.0468	0.9332	0.108
Mof_H 	H 	0.3575	0.0507	0.9506	-0.01
Mof_C 	C 	0.29941	0.9536	0.9338	-0.168
Mof_C 	C 	0.24661	0.9476	0.9109	0.167
Mof_H 	H 	0.2302	0.8867	0.9114	-0.037
Mof_C 	C 	0.33233	0.8628	0.9572	0.347
Mof_Ce	Ce	0.60348	0.30716	0.00963	2.495
Mof_N 	N 	0.79573	0.631	0.9088	-0.176
Mof_O 	O 	0.81348	0.27911	0.9251	-0.5
Mof_O 	O 	0.87924	0.3735	0.0087	-0.513
Mof_O 	O 	0.63721	0.45916	0.9018	-0.682
Mof_O 	O 	0.64023	0.61525	0.8045	-0.655
Mof_O 	O 	0.51627	0.239	0.9228	-0.596
Mof_O 	O 	0.54463	0.3608	0.707	-0.583
Mof_C 	C 	0.66117	0.5358	0.8624	0.607
Mof_C 	C 	0.71857	0.5351	0.8871	-0.285
Mof_C 	C 	0.74475	0.6246	0.8846	0.158
Mof_H 	H 	0.7261	0.6826	0.8654	-0.017
Mof_C 	C 	0.82221	0.5468	0.9332	0.11
Mof_H 	H 	0.8575	0.5507	0.9506	-0.008
Mof_C 	C 	0.79941	0.4536	0.9338	-0.168
Mof_C 	C 	0.74661	0.4476	0.9109	0.165
Mof_H 	H 	0.7302	0.3867	0.9114	-0.038
Mof_C 	C 	0.83233	0.3628	0.9572	0.342
Mof_S 	S 	3.71451e-19	0.20065	0.25	0.62
Mof_S 	S 	0.5	0.70065	0.25	0.71
Mof_S 	S 	1.4858e-18	0.79935	0.75	0.624
Mof_S 	S 	0.5	0.29935	0.75	0.71
_end
