data_functionalizedCrystal
_audit_creation_method	'EQeq! by Chris Wilmer'
_symmetry_space_group_name_H-M	'P1'
_symmetry_Int_Tables_number	1
_symmetry_cell_setting	triclinic
loop_
_symmetry_equiv_pos_as_xyz
  x,y,z
_cell_length_a	23.458
_cell_length_b	7.5546
_cell_length_c	16.518
_cell_angle_alpha	90
_cell_angle_beta	90
_cell_angle_gamma	90
loop_
_atom_site_label
_atom_site_type_symbol
_atom_site_fract_x
_atom_site_fract_y
_atom_site_fract_z
_atom_site_charge
Mof_Ag	Ag	0.14263	0.11973	0.56512	0.494
Mof_S 	S 	0.22232	0.6623	0.04066	-0.034
Mof_S 	S 	0.15399	0.7911	0.65794	-0.069
Mof_C 	C 	0.2399	0.7478	0.1358	0.121
Mof_C 	C 	0.3101	0.8172	0.2204	0.137
Mof_H 	H 	0.3486	0.8327	0.2318	-0.032
Mof_C 	C 	0.2718	0.8654	0.2778	-0.215
Mof_H 	H 	0.2836	0.9064	0.3282	0.111
Mof_C 	C 	0.2155	0.8516	0.259	0.155
Mof_C 	C 	0.1674	0.8965	0.3159	-0.093
Mof_C 	C 	0.1106	0.8517	0.2949	0.053
Mof_H 	H 	0.1025	0.7991	0.2453	0.008
Mof_C 	C 	0.0684	0.886	0.3478	-0.17
Mof_H 	H 	0.0311	0.8556	0.3349	0.059
Mof_C 	C 	0.0796	0.9637	0.4183	0.101
Mof_H 	H 	0.0495	0.9898	0.4529	-0.054
Mof_C 	C 	0.1746	0.9692	0.3887	0.08
Mof_H 	H 	0.2116	0.9968	0.4043	-0
Mof_C 	C 	0.1473	0.6897	0.0419	-0.286
Mof_H 	H 	0.1301	0.607	0.0796	0.111
Mof_H 	H 	0.1375	0.809	0.0586	0.113
Mof_C 	C 	0.1254	0.654	0.9543	0.245
Mof_C 	C 	0.1352	0.7632	0.8928	-0.332
Mof_H 	H 	0.1567	0.865	0.9017	0.148
Mof_C 	C 	0.1142	0.729	0.8152	0.268
Mof_C 	C 	0.0824	0.5916	0.8004	-0.315
Mof_H 	H 	0.0651	0.5796	0.75	0.119
Mof_C 	C 	0.0738	0.4603	0.8602	0.194
Mof_H 	H 	0.0544	0.3562	0.8482	-0.054
Mof_C 	C 	0.0945	0.49	0.9356	-0.276
Mof_H 	H 	0.089	0.4057	0.9759	0.121
Mof_C 	C 	0.124	0.8707	0.7514	-0.276
Mof_H 	H 	0.1492	0.9599	0.7737	0.11
Mof_H 	H 	0.0878	0.9275	0.7397	0.083
Mof_C 	C 	0.2286	0.7844	0.6767	0.117
Mof_C 	C 	0.313	0.716	0.6267	0.132
Mof_H 	H 	0.3356	0.6745	0.5845	-0.017
Mof_C 	C 	0.3395	0.7763	0.6912	-0.207
Mof_H 	H 	0.3791	0.7766	0.6945	0.096
Mof_C 	C 	0.3053	0.841	0.7555	0.147
Mof_C 	C 	0.329	0.9121	0.8319	-0.096
Mof_C 	C 	0.2936	0.9619	0.8908	0.06
Mof_H 	H 	0.2544	0.9607	0.8832	0.016
Mof_C 	C 	0.3172	0.0156	0.9636	-0.16
Mof_H 	H 	0.2933	0.0409	0.0071	0.07
Mof_C 	C 	0.3738	0.0316	0.9724	0.102
Mof_H 	H 	0.3879	0.078	0.0206	-0.057
Mof_C 	C 	0.3871	0.9276	0.8478	0.072
Mof_H 	H 	0.4118	0.8946	0.8064	-0.013
Mof_N 	N 	0.2963	0.7498	0.1494	-0.213
Mof_N 	N 	0.1989	0.7862	0.187	-0.156
Mof_N 	N 	0.1325	0.0054	0.4412	-0.212
Mof_N 	N 	0.2574	0.7089	0.6161	-0.159
Mof_N 	N 	0.2495	0.8507	0.7471	-0.153
Mof_N 	N 	0.4106	0.9843	0.9154	-0.213
Mof_Ag	Ag	0.85737	0.88027	0.56512	0.522
Mof_S 	S 	0.77768	0.3377	0.04066	-0.037
Mof_S 	S 	0.84601	0.2089	0.65794	-0.077
Mof_C 	C 	0.7601	0.2522	0.1358	0.117
Mof_C 	C 	0.6899	0.1828	0.2204	0.13
Mof_H 	H 	0.6514	0.1673	0.2318	-0.036
Mof_C 	C 	0.7282	0.1346	0.2778	-0.211
Mof_H 	H 	0.7164	0.0936	0.3282	0.105
Mof_C 	C 	0.7845	0.1484	0.259	0.145
Mof_C 	C 	0.8326	0.1035	0.3159	-0.078
Mof_C 	C 	0.8894	0.1483	0.2949	0.031
Mof_H 	H 	0.8975	0.2009	0.2453	0.017
Mof_C 	C 	0.9316	0.114	0.3478	-0.143
Mof_H 	H 	0.9689	0.1444	0.3349	0.056
Mof_C 	C 	0.9204	0.0363	0.4183	0.068
Mof_H 	H 	0.9505	0.0102	0.4529	-0.042
Mof_C 	C 	0.8254	0.0308	0.3887	0.052
Mof_H 	H 	0.7884	0.0032	0.4043	0.002
Mof_C 	C 	0.8527	0.3103	0.0419	-0.284
Mof_H 	H 	0.8699	0.393	0.0796	0.113
Mof_H 	H 	0.8625	0.191	0.0586	0.112
Mof_C 	C 	0.8746	0.346	0.9543	0.244
Mof_C 	C 	0.8648	0.2368	0.8928	-0.328
Mof_H 	H 	0.8433	0.135	0.9017	0.143
Mof_C 	C 	0.8858	0.271	0.8152	0.265
Mof_C 	C 	0.9176	0.4084	0.8004	-0.309
Mof_H 	H 	0.9349	0.4204	0.75	0.123
Mof_C 	C 	0.9262	0.5397	0.8602	0.194
Mof_H 	H 	0.9456	0.6438	0.8482	-0.044
Mof_C 	C 	0.9055	0.51	0.9356	-0.271
Mof_H 	H 	0.911	0.5943	0.9759	0.126
Mof_C 	C 	0.876	0.1293	0.7514	-0.27
Mof_H 	H 	0.8508	0.0401	0.7737	0.104
Mof_H 	H 	0.9122	0.0725	0.7397	0.081
Mof_C 	C 	0.7714	0.2156	0.6767	0.114
Mof_C 	C 	0.687	0.284	0.6267	0.126
Mof_H 	H 	0.6644	0.3255	0.5845	-0.017
Mof_C 	C 	0.6605	0.2237	0.6912	-0.203
Mof_H 	H 	0.6209	0.2234	0.6945	0.092
Mof_C 	C 	0.6947	0.159	0.7555	0.136
Mof_C 	C 	0.671	0.0879	0.8319	-0.079
Mof_C 	C 	0.7064	0.0381	0.8908	0.013
Mof_H 	H 	0.7456	0.0393	0.8832	0.028
Mof_C 	C 	0.6828	0.9844	0.9636	-0.117
Mof_H 	H 	0.7067	0.9591	0.0071	0.061
Mof_C 	C 	0.6262	0.9684	0.9724	0.107
Mof_H 	H 	0.6121	0.922	0.0206	-0.055
Mof_C 	C 	0.6129	0.0724	0.8478	0.058
Mof_H 	H 	0.5882	0.1054	0.8064	-0.013
Mof_N 	N 	0.7037	0.2502	0.1494	-0.214
Mof_N 	N 	0.8011	0.2138	0.187	-0.155
Mof_N 	N 	0.8675	0.9946	0.4412	-0.188
Mof_N 	N 	0.7426	0.2911	0.6161	-0.159
Mof_N 	N 	0.7505	0.1493	0.7471	-0.153
Mof_N 	N 	0.5894	0.0157	0.9154	-0.223
Mof_Ag	Ag	0.64263	0.38027	0.06512	0.483
Mof_S 	S 	0.72232	0.8377	0.54066	-0.025
Mof_S 	S 	0.65399	0.7089	0.15794	-0.075
Mof_C 	C 	0.7399	0.7522	0.6358	0.118
Mof_C 	C 	0.8101	0.6828	0.7204	0.136
Mof_H 	H 	0.8486	0.6673	0.7318	-0.034
Mof_C 	C 	0.7718	0.6346	0.7778	-0.213
Mof_H 	H 	0.7836	0.5936	0.8282	0.11
Mof_C 	C 	0.7155	0.6484	0.759	0.151
Mof_C 	C 	0.6674	0.6035	0.8159	-0.083
Mof_C 	C 	0.6106	0.6483	0.7949	0.041
Mof_H 	H 	0.6025	0.7009	0.7453	0.016
Mof_C 	C 	0.5684	0.614	0.8478	-0.153
Mof_H 	H 	0.5311	0.6444	0.8349	0.057
Mof_C 	C 	0.5796	0.5363	0.9183	0.084
Mof_H 	H 	0.5495	0.5102	0.9529	-0.044
Mof_C 	C 	0.6746	0.5308	0.8887	0.065
Mof_H 	H 	0.7116	0.5032	0.9043	0.005
Mof_C 	C 	0.6473	0.8103	0.5419	-0.265
Mof_H 	H 	0.6301	0.893	0.5796	0.112
Mof_H 	H 	0.6375	0.691	0.5586	0.11
Mof_C 	C 	0.6254	0.846	0.4543	0.224
Mof_C 	C 	0.6352	0.7368	0.3928	-0.309
Mof_H 	H 	0.6567	0.635	0.4017	0.135
Mof_C 	C 	0.6142	0.771	0.3152	0.246
Mof_C 	C 	0.5824	0.9084	0.3004	-0.278
Mof_H 	H 	0.5651	0.9204	0.25	0.111
Mof_C 	C 	0.5738	0.0397	0.3602	0.161
Mof_H 	H 	0.5544	0.1438	0.3482	-0.04
Mof_C 	C 	0.5945	0.01	0.4356	-0.263
Mof_H 	H 	0.589	0.0943	0.4759	0.112
Mof_C 	C 	0.624	0.6293	0.2514	-0.261
Mof_H 	H 	0.6492	0.5401	0.2737	0.103
Mof_H 	H 	0.5878	0.5725	0.2397	0.078
Mof_C 	C 	0.7286	0.7156	0.1767	0.118
Mof_C 	C 	0.813	0.784	0.1267	0.132
Mof_H 	H 	0.8356	0.8255	0.0845	-0.019
Mof_C 	C 	0.8395	0.7237	0.1912	-0.207
Mof_H 	H 	0.8791	0.7234	0.1945	0.097
Mof_C 	C 	0.8053	0.659	0.2555	0.146
Mof_C 	C 	0.829	0.5879	0.3319	-0.093
Mof_C 	C 	0.7936	0.5381	0.3908	0.051
Mof_H 	H 	0.7544	0.5393	0.3832	0.014
Mof_C 	C 	0.8172	0.4844	0.4636	-0.168
Mof_H 	H 	0.7933	0.4591	0.5071	0.085
Mof_C 	C 	0.8738	0.4684	0.4724	0.087
Mof_H 	H 	0.8879	0.422	0.5206	-0.038
Mof_C 	C 	0.8871	0.5724	0.3478	0.068
Mof_H 	H 	0.9118	0.6054	0.3064	-0.011
Mof_N 	N 	0.7963	0.7502	0.6494	-0.215
Mof_N 	N 	0.6989	0.7138	0.687	-0.154
Mof_N 	N 	0.6325	0.4946	0.9412	-0.193
Mof_N 	N 	0.7574	0.7911	0.1161	-0.159
Mof_N 	N 	0.7495	0.6493	0.2471	-0.153
Mof_N 	N 	0.9106	0.5157	0.4154	-0.212
Mof_Ag	Ag	0.35737	0.61973	0.06512	0.491
Mof_S 	S 	0.27768	0.1623	0.54066	-0.035
Mof_S 	S 	0.34601	0.2911	0.15794	-0.079
Mof_C 	C 	0.2601	0.2478	0.6358	0.118
Mof_C 	C 	0.1899	0.3172	0.7204	0.132
Mof_H 	H 	0.1514	0.3327	0.7318	-0.036
Mof_C 	C 	0.2282	0.3654	0.7778	-0.214
Mof_H 	H 	0.2164	0.4064	0.8282	0.109
Mof_C 	C 	0.2845	0.3516	0.759	0.149
Mof_C 	C 	0.3326	0.3965	0.8159	-0.085
Mof_C 	C 	0.3894	0.3517	0.7949	0.039
Mof_H 	H 	0.3975	0.2991	0.7453	0.013
Mof_C 	C 	0.4316	0.386	0.8478	-0.154
Mof_H 	H 	0.4689	0.3556	0.8349	0.056
Mof_C 	C 	0.4204	0.4637	0.9183	0.083
Mof_H 	H 	0.4505	0.4898	0.9529	-0.044
Mof_C 	C 	0.3254	0.4692	0.8887	0.064
Mof_H 	H 	0.2884	0.4968	0.9043	0.005
Mof_C 	C 	0.3527	0.1897	0.5419	-0.255
Mof_H 	H 	0.3699	0.107	0.5796	0.103
Mof_H 	H 	0.3625	0.309	0.5586	0.107
Mof_C 	C 	0.3746	0.154	0.4543	0.205
Mof_C 	C 	0.3648	0.2632	0.3928	-0.31
Mof_H 	H 	0.3433	0.365	0.4017	0.135
Mof_C 	C 	0.3858	0.229	0.3152	0.256
Mof_C 	C 	0.4176	0.0916	0.3004	-0.314
Mof_H 	H 	0.4349	0.0796	0.25	0.118
Mof_C 	C 	0.4262	0.9603	0.3602	0.191
Mof_H 	H 	0.4456	0.8562	0.3482	-0.047
Mof_C 	C 	0.4055	0.99	0.4356	-0.249
Mof_H 	H 	0.411	0.9057	0.4759	0.112
Mof_C 	C 	0.376	0.3707	0.2514	-0.267
Mof_H 	H 	0.3508	0.4599	0.2737	0.105
Mof_H 	H 	0.4122	0.4275	0.2397	0.08
Mof_C 	C 	0.2714	0.2844	0.1767	0.115
Mof_C 	C 	0.187	0.216	0.1267	0.129
Mof_H 	H 	0.1644	0.1745	0.0845	-0.024
Mof_C 	C 	0.1605	0.2763	0.1912	-0.208
Mof_H 	H 	0.1209	0.2766	0.1945	0.091
Mof_C 	C 	0.1947	0.341	0.2555	0.142
Mof_C 	C 	0.171	0.4121	0.3319	-0.096
Mof_C 	C 	0.2064	0.4619	0.3908	0.052
Mof_H 	H 	0.2456	0.4607	0.3832	0.014
Mof_C 	C 	0.1828	0.5156	0.4636	-0.169
Mof_H 	H 	0.2067	0.5409	0.5071	0.087
Mof_C 	C 	0.1262	0.5316	0.4724	0.088
Mof_H 	H 	0.1121	0.578	0.5206	-0.04
Mof_C 	C 	0.1129	0.4276	0.3478	0.068
Mof_H 	H 	0.0882	0.3946	0.3064	-0.017
Mof_N 	N 	0.2037	0.2498	0.6494	-0.214
Mof_N 	N 	0.3011	0.2862	0.687	-0.156
Mof_N 	N 	0.3675	0.5054	0.9412	-0.194
Mof_N 	N 	0.2426	0.2089	0.1161	-0.162
Mof_N 	N 	0.2505	0.3507	0.2471	-0.154
Mof_N 	N 	0.0894	0.4843	0.4154	-0.218
Mof_Ag	Ag	0.5	-1.72473e-32	0.93341	0.478
Mof_Ag	Ag	1.14427e-33	0.5	0.43341	0.455
_end
