data_functionalizedCrystal
_audit_creation_method	'EQeq! by Chris Wilmer'
_symmetry_space_group_name_H-M	'P1'
_symmetry_Int_Tables_number	1
_symmetry_cell_setting	triclinic
loop_
_symmetry_equiv_pos_as_xyz
  x,y,z
_cell_length_a	24.0921
_cell_length_b	24.1914
_cell_length_c	24.3992
_cell_angle_alpha	85.807
_cell_angle_beta	61.404
_cell_angle_gamma	61.029
loop_
_atom_site_label
_atom_site_type_symbol
_atom_site_fract_x
_atom_site_fract_y
_atom_site_fract_z
_atom_site_charge
Mof_Tb	Tb	0.36467	0.84485	0.1974	2.152
Mof_O 	O 	0.2555	0.8721	0.2005	-0.337
Mof_O 	O 	0.2969	0.9608	0.2208	-0.315
Mof_O 	O 	0.3855	0.8688	0.0954	-0.323
Mof_O 	O 	0.4544	0.8741	0.1613	-0.336
Mof_O 	O 	0.4053	0.7497	0.1304	-0.319
Mof_O 	O 	0.3426	0.88	0.2979	-0.328
Mof_O 	O 	0.4665	0.7606	0.2034	-0.325
Mof_O 	O 	0.3114	0.7906	0.271	-0.322
Mof_N 	N 	0.2157	0.8443	0.225	-0.056
Mof_N 	N 	0.2316	0.999	0.2243	-0.066
Mof_N 	N 	0.3704	0.8479	0.0581	-0.062
Mof_N 	N 	0.4668	0.9089	0.1173	-0.06
Mof_N 	N 	0.4491	0.6907	0.1343	-0.066
Mof_C 	C 	0.2349	0.7904	0.1909	0.049
Mof_C 	C 	0.1559	0.8705	0.2848	0.055
Mof_C 	C 	0.2297	0.0186	0.1723	0.056
Mof_C 	C 	0.1693	0.0154	0.2805	0.057
Mof_C 	C 	0.299	0.8801	0.0706	0.051
Mof_C 	C 	0.423	0.7959	0.011	0.061
Mof_C 	C 	0.4275	0.9736	0.1343	0.051
Mof_C 	C 	0.5185	0.8782	0.0569	0.061
Mof_C 	C 	0.4192	0.6599	0.1764	0.054
Mof_C 	C 	0.5226	0.6641	0.0984	0.061
Mof_H 	H 	0.2772	0.7724	0.1493	0.032
Mof_C 	C 	0.1935	0.761	0.216	-0.099
Mof_C 	C 	0.1134	0.8425	0.3116	-0.103
Mof_H 	H 	0.1433	0.9084	0.3084	0.017
Mof_H 	H 	0.2742	0.0082	0.134	0.026
Mof_C 	C 	0.1632	0.0541	0.174	-0.11
Mof_C 	C 	0.1011	0.0525	0.2849	-0.109
Mof_H 	H 	0.1721	0.0016	0.3171	0.013
Mof_H 	H 	0.2621	0.9166	0.1047	0.031
Mof_C 	C 	0.2812	0.8593	0.0337	-0.104
Mof_C 	C 	0.4053	0.7744	0.9738	-0.108
Mof_H 	H 	0.472	0.7738	0.003	0.02
Mof_H 	H 	0.3912	0.9941	0.1777	0.033
Mof_C 	C 	0.4396	0.011	0.0884	-0.103
Mof_C 	C 	0.5322	0.9139	0.0098	-0.105
Mof_H 	H 	0.5458	0.8324	0.046	0.015
Mof_H 	H 	0.3675	0.6774	0.1988	0.028
Mof_C 	C 	0.4642	0.6033	0.1864	-0.107
Mof_C 	C 	0.57	0.6064	0.1061	-0.106
Mof_H 	H 	0.5422	0.6853	0.0671	0.014
Mof_H 	H 	0.2073	0.7232	0.1913	0.064
Mof_C 	C 	0.1314	0.7864	0.2774	0.039
Mof_H 	H 	0.0717	0.8612	0.3534	0.061
Mof_H 	H 	0.1623	0.0673	0.1367	0.067
Mof_C 	C 	0.0974	0.0705	0.2305	0.044
Mof_H 	H 	0.0572	0.0656	0.3249	0.064
Mof_H 	H 	0.2323	0.8827	0.0415	0.064
Mof_C 	C 	0.3345	0.8041	0.9848	0.045
Mof_H 	H 	0.4433	0.7381	0.9397	0.066
Mof_H 	H 	0.4118	0.0567	0.1006	0.064
Mof_C 	C 	0.4925	0.981	0.0247	0.044
Mof_H 	H 	0.5693	0.892	0.9669	0.064
Mof_H 	H 	0.443	0.582	0.2164	0.067
Mof_C 	C 	0.5405	0.5761	0.1535	0.042
Mof_H 	H 	0.6218	0.5874	0.0796	0.066
Mof_C 	C 	0.0842	0.7574	0.3059	0.048
Mof_C 	C 	0.0261	0.1043	0.2332	0.043
Mof_C 	C 	0.3128	0.7805	0.9487	0.041
Mof_C 	C 	0.5879	0.5215	0.171	0.047
Mof_C 	C 	0.1054	0.6974	0.2779	-0.109
Mof_C 	C 	0.0163	0.79	0.361	-0.108
Mof_C 	C 	0.0171	0.0891	0.1856	-0.114
Mof_C 	C 	0.9624	0.1506	0.2881	-0.105
Mof_C 	C 	0.2445	0.8199	0.9532	-0.104
Mof_C 	C 	0.3578	0.7191	0.9101	-0.101
Mof_C 	C 	0.6585	0.4748	0.1263	-0.11
Mof_C 	C 	0.566	0.519	0.2348	-0.111
Mof_C 	C 	0.0586	0.6734	0.3032	0.064
Mof_H 	H 	0.1526	0.6726	0.2409	0.067
Mof_H 	H 	0.0012	0.8305	0.3818	0.064
Mof_C 	C 	0.9701	0.7662	0.3868	0.052
Mof_C 	C 	0.9486	0.1164	0.1932	0.064
Mof_H 	H 	0.059	0.0594	0.1473	0.068
Mof_H 	H 	0.9666	0.1636	0.321	0.066
Mof_C 	C 	0.8935	0.1772	0.2942	0.05
Mof_C 	C 	0.2218	0.797	0.9222	0.057
Mof_H 	H 	0.2133	0.8628	0.9777	0.063
Mof_H 	H 	0.4056	0.692	0.9043	0.064
Mof_C 	C 	0.3336	0.6969	0.8799	0.048
Mof_C 	C 	0.7048	0.4281	0.1451	0.054
Mof_H 	H 	0.6756	0.4745	0.0822	0.067
Mof_H 	H 	0.5178	0.5504	0.267	0.068
Mof_C 	C 	0.6127	0.4718	0.2522	0.063
Mof_N 	N 	0.992	0.7075	0.3566	-0.062
Mof_H 	H 	0.0733	0.6327	0.2831	0.018
Mof_H 	H 	0.9237	0.7898	0.4248	0.027
Mof_N 	N 	0.8881	0.1583	0.2473	-0.061
Mof_H 	H 	0.9436	0.1057	0.1598	0.014
Mof_H 	H 	0.8506	0.2084	0.3312	0.033
Mof_N 	N 	0.2661	0.7361	0.8872	-0.057
Mof_H 	H 	0.1752	0.824	0.9256	0.014
Mof_H 	H 	0.3643	0.6546	0.8544	0.033
Mof_N 	N 	0.6811	0.4274	0.2078	-0.059
Mof_H 	H 	0.7533	0.3963	0.1138	0.031
Mof_H 	H 	0.5963	0.4707	0.296	0.014
Mof_O 	O 	0.946	0.6852	0.3798	-0.324
Mof_O 	O 	0.8213	0.1811	0.2554	-0.329
Mof_O 	O 	0.2417	0.7146	0.8605	-0.336
Mof_O 	O 	0.7268	0.3844	0.2246	-0.329
Mof_Tb	Tb	0.85268	0.71394	0.35427	2.159
Mof_Tb	Tb	0.74307	0.28141	0.24174	2.161
Mof_O 	O 	0.8838	0.6107	0.3781	-0.336
Mof_O 	O 	0.7822	0.7334	0.4693	-0.314
Mof_O 	O 	0.7941	0.7911	0.3044	-0.321
Mof_O 	O 	0.8247	0.8164	0.3934	-0.33
Mof_O 	O 	0.7485	0.7088	0.3796	-0.338
Mof_O 	O 	0.9493	0.7197	0.2679	-0.34
Mof_O 	O 	0.8901	0.6475	0.2613	-0.32
Mof_O 	O 	0.7175	0.204	0.2204	-0.322
Mof_O 	O 	0.7717	0.3118	0.3107	-0.327
Mof_O 	O 	0.6651	0.2765	0.345	-0.335
Mof_O 	O 	0.6194	0.3473	0.2619	-0.318
Mof_O 	O 	0.8653	0.2602	0.1754	-0.324
Mof_N 	N 	0.9155	0.582	0.412	-0.059
Mof_N 	N 	0.7642	0.7825	0.5079	-0.063
Mof_N 	N 	0.7494	0.7917	0.2871	-0.059
Mof_N 	N 	0.809	0.8692	0.3693	-0.058
Mof_N 	N 	0.7044	0.6976	0.4315	-0.053
Mof_N 	N 	0.9682	0.7178	0.2065	-0.057
Mof_N 	N 	0.7303	0.1498	0.242	-0.061
Mof_N 	N 	0.7917	0.3557	0.3034	-0.063
Mof_N 	N 	0.6742	0.2693	0.3955	-0.06
Mof_N 	N 	0.5619	0.3448	0.3082	-0.064
Mof_N 	N 	0.1051	0.7342	0.8848	-0.062
Mof_C 	C 	0.9888	0.5421	0.3819	0.064
Mof_C 	C 	0.8739	0.593	0.476	0.049
Mof_C 	C 	0.8128	0.7785	0.5234	0.051
Mof_C 	C 	0.6958	0.8364	0.5323	0.056
Mof_C 	C 	0.6758	0.8257	0.3278	0.057
Mof_C 	C 	0.7785	0.7576	0.2286	0.047
Mof_C 	C 	0.8642	0.876	0.3216	0.049
Mof_C 	C 	0.7388	0.9149	0.3901	0.059
Mof_C 	C 	0.6382	0.7495	0.4751	0.051
Mof_C 	C 	0.7238	0.6364	0.4399	0.044
Mof_C 	C 	0.9329	0.7723	0.1891	0.05
Mof_C 	C 	0.0239	0.6617	0.1627	0.057
Mof_C 	C 	0.6802	0.1507	0.3007	0.05
Mof_C 	C 	0.7937	0.0939	0.2055	0.059
Mof_C 	C 	0.8638	0.3373	0.2652	0.051
Mof_C 	C 	0.7395	0.4172	0.3335	0.063
Mof_C 	C 	0.7157	0.2087	0.4008	0.049
Mof_C 	C 	0.6428	0.3207	0.439	0.061
Mof_C 	C 	0.5466	0.3017	0.2972	0.054
Mof_C 	C 	0.5194	0.3861	0.366	0.059
Mof_C 	C 	0.1089	0.6781	0.8987	0.053
Mof_C 	C 	0.0725	0.7851	0.9307	0.059
Mof_H 	H 	0.0175	0.5367	0.3371	0.014
Mof_C 	C 	0.0225	0.5093	0.4151	-0.111
Mof_C 	C 	0.908	0.5611	0.5107	-0.103
Mof_H 	H 	0.8222	0.6221	0.4971	0.033
Mof_H 	H 	0.8583	0.7391	0.5095	0.028
Mof_C 	C 	0.7964	0.8316	0.5595	-0.105
Mof_C 	C 	0.6787	0.8891	0.5689	-0.109
Mof_H 	H 	0.6605	0.8376	0.5241	0.015
Mof_H 	H 	0.6563	0.8508	0.3675	0.016
Mof_C 	C 	0.6289	0.8239	0.3117	-0.105
Mof_C 	C 	0.732	0.7555	0.2116	-0.102
Mof_H 	H 	0.8301	0.7355	0.1996	0.032
Mof_H 	H 	0.914	0.843	0.3064	0.03
Mof_C 	C 	0.8494	0.9295	0.2954	-0.105
Mof_C 	C 	0.7209	0.9703	0.3659	-0.106
Mof_H 	H 	0.7005	0.9091	0.4223	0.016
Mof_H 	H 	0.6258	0.7921	0.4683	0.017
Mof_C 	C 	0.5898	0.7395	0.5291	-0.101
Mof_C 	C 	0.6751	0.6246	0.4919	-0.099
Mof_H 	H 	0.7708	0.6014	0.41	0.035
Mof_H 	H 	0.8922	0.81	0.2208	0.032
Mof_C 	C 	0.956	0.7734	0.1253	-0.106
Mof_C 	C 	0.0478	0.6623	0.0994	-0.108
Mof_H 	H 	0.0457	0.6229	0.1759	0.02
Mof_H 	H 	0.6351	0.1899	0.3256	0.03
Mof_C 	C 	0.6945	0.0948	0.3242	-0.105
Mof_C 	C 	0.809	0.0371	0.2285	-0.107
Mof_H 	H 	0.828	0.0934	0.1639	0.016
Mof_H 	H 	0.8999	0.2933	0.2447	0.034
Mof_C 	C 	0.8844	0.3834	0.2563	-0.105
Mof_C 	C 	0.7588	0.4636	0.3252	-0.11
Mof_H 	H 	0.6895	0.4287	0.3604	0.013
Mof_H 	H 	0.7401	0.1727	0.3679	0.033
Mof_C 	C 	0.7225	0.1995	0.4546	-0.106
Mof_C 	C 	0.6473	0.3142	0.4944	-0.11
Mof_H 	H 	0.6168	0.3626	0.4325	0.015
Mof_H 	H 	0.5737	0.2762	0.2556	0.029
Mof_C 	C 	0.4905	0.2945	0.3474	-0.111
Mof_C 	C 	0.4628	0.3808	0.416	-0.11
Mof_H 	H 	0.5288	0.4184	0.372	0.013
Mof_H 	H 	0.1322	0.6429	0.8653	0.03
Mof_C 	C 	0.0788	0.6716	0.9615	-0.106
Mof_C 	C 	0.0423	0.7798	0.9939	-0.107
Mof_H 	H 	0.0702	0.8243	0.9198	0.011
Mof_H 	H 	0.0743	0.4805	0.3928	0.066
Mof_C 	C 	0.982	0.5173	0.4813	0.045
Mof_H 	H 	0.8792	0.57	0.556	0.064
Mof_H 	H 	0.8315	0.8291	0.5688	0.066
Mof_C 	C 	0.7288	0.8884	0.582	0.044
Mof_H 	H 	0.6313	0.9268	0.5855	0.065
Mof_H 	H 	0.5773	0.8479	0.3408	0.064
Mof_C 	C 	0.6557	0.7875	0.2536	0.041
Mof_H 	H 	0.7523	0.732	0.1708	0.064
Mof_H 	H 	0.8891	0.9334	0.2627	0.065
Mof_C 	C 	0.7777	0.9782	0.3155	0.041
Mof_H 	H 	0.6707	0.0031	0.3827	0.063
Mof_H 	H 	0.5448	0.7755	0.5601	0.063
Mof_C 	C 	0.6063	0.6764	0.5386	0.035
Mof_H 	H 	0.688	0.5814	0.4964	0.064
Mof_H 	H 	0.9309	0.8118	0.1132	0.065
Mof_C 	C 	0.0157	0.7186	0.079	0.043
Mof_H 	H 	0.0872	0.6235	0.0686	0.066
Mof_H 	H 	0.6587	0.096	0.3653	0.064
Mof_C 	C 	0.7601	0.0366	0.2891	0.044
Mof_H 	H 	0.8536	0.9981	0.2023	0.065
Mof_H 	H 	0.9347	0.3709	0.2299	0.066
Mof_C 	C 	0.8314	0.4481	0.2859	0.045
Mof_H 	H 	0.7217	0.5071	0.3468	0.067
Mof_H 	H 	0.7508	0.1572	0.4589	0.066
Mof_C 	C 	0.6879	0.2522	0.5023	0.043
Mof_H 	H 	0.6233	0.3511	0.526	0.065
Mof_H 	H 	0.4813	0.2625	0.3402	0.068
Mof_C 	C 	0.4491	0.333	0.4064	0.05
Mof_H 	H 	0.4334	0.4091	0.4563	0.067
Mof_H 	H 	0.0805	0.6322	0.9713	0.065
Mof_C 	C 	0.0456	0.7229	0.0108	0.042
Mof_H 	H 	0.0188	0.8159	0.0263	0.064
Mof_C 	C 	0.7104	0.949	0.6167	0.047
Mof_C 	C 	0.6067	0.7812	0.2388	0.041
Mof_C 	C 	0.8512	0.4983	0.2751	0.042
Mof_C 	C 	0.6902	0.2423	0.5618	0.045
Mof_C 	C 	0.6422	0.9871	0.6693	-0.108
Mof_C 	C 	0.7619	0.9678	0.5953	-0.113
Mof_C 	C 	0.6261	0.7619	0.1763	-0.107
Mof_C 	C 	0.5381	0.7946	0.2882	-0.098
Mof_C 	C 	0.9182	0.4877	0.2629	-0.106
Mof_C 	C 	0.7984	0.5609	0.2791	-0.104
Mof_C 	C 	0.6303	0.2845	0.6192	-0.106
Mof_C 	C 	0.7499	0.1901	0.5631	-0.113
Mof_C 	C 	0.6247	0.0453	0.6986	0.049
Mof_H 	H 	0.6069	0.974	0.6858	0.067
Mof_H 	H 	0.8101	0.9411	0.5602	0.068
Mof_C 	C 	0.743	0.0259	0.6251	0.058
Mof_C 	C 	0.5769	0.7563	0.166	0.061
Mof_H 	H 	0.6726	0.7526	0.1414	0.066
Mof_H 	H 	0.5228	0.81	0.3306	0.064
Mof_C 	C 	0.4905	0.7858	0.2765	0.043
Mof_C 	C 	0.9315	0.5383	0.2576	0.057
Mof_H 	H 	0.9557	0.4453	0.2582	0.066
Mof_H 	H 	0.7525	0.5694	0.2857	0.068
Mof_C 	C 	0.813	0.6103	0.2735	0.051
Mof_C 	C 	0.6308	0.272	0.6755	0.05
Mof_H 	H 	0.5894	0.3215	0.6199	0.064
Mof_H 	H 	0.7919	0.1612	0.5243	0.066
Mof_C 	C 	0.7487	0.1801	0.6194	0.064
Mof_N 	N 	0.6755	0.0634	0.6754	-0.059
Mof_H 	H 	0.5773	0.072	0.7346	0.031
Mof_H 	H 	0.7781	0.0392	0.6098	0.016
Mof_N 	N 	0.5119	0.7676	0.2146	-0.059
Mof_H 	H 	0.5897	0.7444	0.1236	0.019
Mof_H 	H 	0.4448	0.7924	0.3107	0.036
Mof_N 	N 	0.8791	0.5988	0.263	-0.061
Mof_H 	H 	0.9774	0.5303	0.2501	0.019
Mof_H 	H 	0.7766	0.6529	0.277	0.034
Mof_N 	N 	0.6896	0.2202	0.6745	-0.061
Mof_H 	H 	0.5896	0.3001	0.715	0.031
Mof_H 	H 	0.79	0.1445	0.6195	0.014
Mof_Tb	Tb	0.63533	0.15515	0.8026	2.151
Mof_O 	O 	0.7445	0.1279	0.7995	-0.338
Mof_O 	O 	0.7031	0.0392	0.7792	-0.316
Mof_O 	O 	0.6145	0.1312	0.9046	-0.324
Mof_O 	O 	0.5456	0.1259	0.8387	-0.336
Mof_O 	O 	0.5947	0.2503	0.8696	-0.319
Mof_O 	O 	0.6574	0.12	0.7021	-0.328
Mof_O 	O 	0.5335	0.2394	0.7966	-0.325
Mof_O 	O 	0.6886	0.2094	0.729	-0.322
Mof_N 	N 	0.7843	0.1557	0.775	-0.056
Mof_N 	N 	0.7684	0.001	0.7757	-0.066
Mof_N 	N 	0.6296	0.1521	0.9419	-0.062
Mof_N 	N 	0.5332	0.0911	0.8827	-0.06
Mof_N 	N 	0.5509	0.3093	0.8657	-0.066
Mof_C 	C 	0.7651	0.2096	0.8091	0.049
Mof_C 	C 	0.8441	0.1295	0.7152	0.055
Mof_C 	C 	0.7703	0.9814	0.8277	0.056
Mof_C 	C 	0.8307	0.9846	0.7195	0.057
Mof_C 	C 	0.701	0.1199	0.9294	0.051
Mof_C 	C 	0.577	0.2041	0.989	0.061
Mof_C 	C 	0.5725	0.0264	0.8657	0.051
Mof_C 	C 	0.4815	0.1218	0.9431	0.061
Mof_C 	C 	0.5808	0.3401	0.8236	0.054
Mof_C 	C 	0.4774	0.3359	0.9016	0.061
Mof_H 	H 	0.7228	0.2276	0.8507	0.032
Mof_C 	C 	0.8065	0.239	0.784	-0.099
Mof_C 	C 	0.8866	0.1575	0.6884	-0.103
Mof_H 	H 	0.8567	0.0916	0.6916	0.017
Mof_H 	H 	0.7258	0.9918	0.866	0.026
Mof_C 	C 	0.8368	0.9459	0.826	-0.11
Mof_C 	C 	0.8989	0.9475	0.7151	-0.109
Mof_H 	H 	0.8279	0.9984	0.6829	0.013
Mof_H 	H 	0.7379	0.0834	0.8953	0.031
Mof_C 	C 	0.7188	0.1407	0.9663	-0.104
Mof_C 	C 	0.5947	0.2256	0.0262	-0.108
Mof_H 	H 	0.528	0.2262	0.997	0.02
Mof_H 	H 	0.6088	0.0059	0.8223	0.033
Mof_C 	C 	0.5604	0.989	0.9116	-0.103
Mof_C 	C 	0.4678	0.0861	0.9902	-0.105
Mof_H 	H 	0.4542	0.1676	0.954	0.015
Mof_H 	H 	0.6325	0.3226	0.8012	0.028
Mof_C 	C 	0.5358	0.3967	0.8136	-0.107
Mof_C 	C 	0.43	0.3936	0.8939	-0.106
Mof_H 	H 	0.4578	0.3147	0.9329	0.014
Mof_H 	H 	0.7927	0.2768	0.8087	0.064
Mof_C 	C 	0.8686	0.2136	0.7226	0.039
Mof_H 	H 	0.9283	0.1388	0.6466	0.061
Mof_H 	H 	0.8377	0.9327	0.8633	0.067
Mof_C 	C 	0.9026	0.9295	0.7695	0.044
Mof_H 	H 	0.9428	0.9344	0.6751	0.064
Mof_H 	H 	0.7677	0.1173	0.9585	0.064
Mof_C 	C 	0.6655	0.1959	0.0152	0.045
Mof_H 	H 	0.5567	0.2619	0.0603	0.066
Mof_H 	H 	0.5882	0.9433	0.8994	0.064
Mof_C 	C 	0.5075	0.019	0.9753	0.044
Mof_H 	H 	0.4307	0.108	0.0331	0.064
Mof_H 	H 	0.557	0.418	0.7836	0.067
Mof_C 	C 	0.4595	0.4239	0.8465	0.042
Mof_H 	H 	0.3782	0.4126	0.9204	0.066
Mof_C 	C 	0.9158	0.2426	0.6941	0.048
Mof_C 	C 	0.9739	0.8957	0.7668	0.043
Mof_C 	C 	0.6872	0.2195	0.0513	0.041
Mof_C 	C 	0.4121	0.4785	0.829	0.047
Mof_C 	C 	0.8946	0.3026	0.7221	-0.109
Mof_C 	C 	0.9837	0.21	0.639	-0.108
Mof_C 	C 	0.9829	0.9109	0.8144	-0.114
Mof_C 	C 	0.0376	0.8494	0.7119	-0.105
Mof_C 	C 	0.7555	0.1801	0.0468	-0.104
Mof_C 	C 	0.6422	0.2809	0.0899	-0.101
Mof_C 	C 	0.3415	0.5252	0.8737	-0.11
Mof_C 	C 	0.434	0.481	0.7652	-0.111
Mof_C 	C 	0.9414	0.3266	0.6968	0.064
Mof_H 	H 	0.8474	0.3274	0.7591	0.067
Mof_H 	H 	0.9988	0.1695	0.6182	0.064
Mof_C 	C 	0.0299	0.2338	0.6132	0.052
Mof_C 	C 	0.0514	0.8836	0.8068	0.064
Mof_H 	H 	0.941	0.9406	0.8527	0.068
Mof_H 	H 	0.0334	0.8364	0.679	0.066
Mof_C 	C 	0.1065	0.8228	0.7058	0.05
Mof_C 	C 	0.7782	0.203	0.0778	0.057
Mof_H 	H 	0.7867	0.1372	0.0223	0.063
Mof_H 	H 	0.5944	0.308	0.0957	0.064
Mof_C 	C 	0.6664	0.3031	0.1201	0.048
Mof_C 	C 	0.2952	0.5719	0.8549	0.054
Mof_H 	H 	0.3244	0.5255	0.9178	0.067
Mof_H 	H 	0.4822	0.4496	0.733	0.068
Mof_C 	C 	0.3873	0.5282	0.7478	0.063
Mof_N 	N 	0.008	0.2925	0.6434	-0.062
Mof_H 	H 	0.9267	0.3673	0.7169	0.018
Mof_H 	H 	0.0763	0.2102	0.5752	0.027
Mof_N 	N 	0.1119	0.8417	0.7527	-0.061
Mof_H 	H 	0.0564	0.8943	0.8402	0.014
Mof_H 	H 	0.1494	0.7916	0.6688	0.033
Mof_N 	N 	0.7339	0.2639	0.1128	-0.057
Mof_H 	H 	0.8248	0.176	0.0744	0.014
Mof_H 	H 	0.6357	0.3454	0.1456	0.033
Mof_N 	N 	0.3189	0.5726	0.7922	-0.059
Mof_H 	H 	0.2467	0.6037	0.8862	0.031
Mof_H 	H 	0.4037	0.5293	0.704	0.014
Mof_O 	O 	0.054	0.3148	0.6202	-0.324
Mof_O 	O 	0.1787	0.8189	0.7446	-0.329
Mof_O 	O 	0.7583	0.2854	0.1395	-0.336
Mof_O 	O 	0.2732	0.6156	0.7754	-0.329
Mof_Tb	Tb	0.14732	0.28605	0.64573	2.159
Mof_Tb	Tb	0.25693	0.71859	0.75826	2.161
Mof_O 	O 	0.1162	0.3893	0.6219	-0.336
Mof_O 	O 	0.2178	0.2666	0.5307	-0.314
Mof_O 	O 	0.2059	0.2089	0.6956	-0.321
Mof_O 	O 	0.1753	0.1836	0.6066	-0.33
Mof_O 	O 	0.2515	0.2912	0.6204	-0.338
Mof_O 	O 	0.0507	0.2803	0.7321	-0.34
Mof_O 	O 	0.1099	0.3525	0.7387	-0.32
Mof_O 	O 	0.2825	0.796	0.7796	-0.322
Mof_O 	O 	0.2283	0.6882	0.6893	-0.327
Mof_O 	O 	0.3349	0.7235	0.655	-0.335
Mof_O 	O 	0.3806	0.6527	0.7381	-0.318
Mof_O 	O 	0.1347	0.7398	0.8246	-0.324
Mof_N 	N 	0.0845	0.418	0.588	-0.059
Mof_N 	N 	0.2358	0.2175	0.4921	-0.063
Mof_N 	N 	0.2506	0.2083	0.7129	-0.059
Mof_N 	N 	0.191	0.1308	0.6307	-0.058
Mof_N 	N 	0.2956	0.3024	0.5685	-0.053
Mof_N 	N 	0.0318	0.2822	0.7935	-0.057
Mof_N 	N 	0.2697	0.8502	0.758	-0.061
Mof_N 	N 	0.2083	0.6443	0.6966	-0.063
Mof_N 	N 	0.3258	0.7307	0.6045	-0.06
Mof_N 	N 	0.4381	0.6552	0.6918	-0.064
Mof_N 	N 	0.8949	0.2658	0.1152	-0.062
Mof_C 	C 	0.0112	0.4579	0.6181	0.064
Mof_C 	C 	0.1261	0.407	0.524	0.049
Mof_C 	C 	0.1872	0.2215	0.4766	0.051
Mof_C 	C 	0.3042	0.1636	0.4677	0.056
Mof_C 	C 	0.3242	0.1743	0.6722	0.057
Mof_C 	C 	0.2215	0.2424	0.7714	0.047
Mof_C 	C 	0.1358	0.124	0.6784	0.049
Mof_C 	C 	0.2612	0.0851	0.6099	0.059
Mof_C 	C 	0.3618	0.2505	0.5249	0.051
Mof_C 	C 	0.2762	0.3636	0.5601	0.044
Mof_C 	C 	0.0671	0.2277	0.8109	0.05
Mof_C 	C 	0.9761	0.3383	0.8373	0.057
Mof_C 	C 	0.3198	0.8493	0.6993	0.05
Mof_C 	C 	0.2063	0.9061	0.7945	0.059
Mof_C 	C 	0.1362	0.6627	0.7348	0.051
Mof_C 	C 	0.2605	0.5828	0.6665	0.063
Mof_C 	C 	0.2843	0.7913	0.5992	0.049
Mof_C 	C 	0.3572	0.6793	0.561	0.061
Mof_C 	C 	0.4534	0.6983	0.7028	0.054
Mof_C 	C 	0.4806	0.6139	0.634	0.059
Mof_C 	C 	0.8911	0.3219	0.1013	0.053
Mof_C 	C 	0.9275	0.2149	0.0693	0.059
Mof_H 	H 	0.9825	0.4633	0.6629	0.014
Mof_C 	C 	0.9775	0.4907	0.5849	-0.111
Mof_C 	C 	0.092	0.4389	0.4893	-0.103
Mof_H 	H 	0.1778	0.3779	0.5029	0.033
Mof_H 	H 	0.1417	0.2609	0.4905	0.028
Mof_C 	C 	0.2036	0.1684	0.4405	-0.105
Mof_C 	C 	0.3213	0.1109	0.4311	-0.109
Mof_H 	H 	0.3395	0.1624	0.4759	0.015
Mof_H 	H 	0.3437	0.1492	0.6325	0.016
Mof_C 	C 	0.3711	0.1761	0.6883	-0.105
Mof_C 	C 	0.268	0.2445	0.7884	-0.102
Mof_H 	H 	0.1699	0.2645	0.8004	0.032
Mof_H 	H 	0.086	0.157	0.6936	0.03
Mof_C 	C 	0.1506	0.0705	0.7046	-0.105
Mof_C 	C 	0.2791	0.0297	0.6341	-0.106
Mof_H 	H 	0.2995	0.0909	0.5777	0.016
Mof_H 	H 	0.3742	0.2079	0.5317	0.017
Mof_C 	C 	0.4102	0.2605	0.4709	-0.101
Mof_C 	C 	0.3249	0.3754	0.5081	-0.099
Mof_H 	H 	0.2292	0.3986	0.59	0.035
Mof_H 	H 	0.1078	0.19	0.7792	0.032
Mof_C 	C 	0.044	0.2266	0.8747	-0.106
Mof_C 	C 	0.9522	0.3377	0.9006	-0.108
Mof_H 	H 	0.9543	0.3771	0.8241	0.02
Mof_H 	H 	0.3649	0.8101	0.6744	0.03
Mof_C 	C 	0.3055	0.9052	0.6758	-0.105
Mof_C 	C 	0.191	0.9629	0.7715	-0.107
Mof_H 	H 	0.172	0.9066	0.8361	0.016
Mof_H 	H 	0.1001	0.7067	0.7553	0.034
Mof_C 	C 	0.1156	0.6166	0.7437	-0.105
Mof_C 	C 	0.2412	0.5364	0.6748	-0.11
Mof_H 	H 	0.3105	0.5713	0.6396	0.013
Mof_H 	H 	0.2599	0.8273	0.6321	0.033
Mof_C 	C 	0.2775	0.8005	0.5454	-0.106
Mof_C 	C 	0.3527	0.6858	0.5056	-0.11
Mof_H 	H 	0.3832	0.6374	0.5675	0.015
Mof_H 	H 	0.4263	0.7238	0.7444	0.029
Mof_C 	C 	0.5095	0.7055	0.6526	-0.111
Mof_C 	C 	0.5372	0.6192	0.584	-0.11
Mof_H 	H 	0.4712	0.5816	0.628	0.013
Mof_H 	H 	0.8678	0.3571	0.1347	0.03
Mof_C 	C 	0.9212	0.3284	0.0385	-0.106
Mof_C 	C 	0.9577	0.2202	0.0061	-0.107
Mof_H 	H 	0.9298	0.1757	0.0802	0.011
Mof_H 	H 	0.9257	0.5195	0.6072	0.066
Mof_C 	C 	0.018	0.4827	0.5187	0.045
Mof_H 	H 	0.1208	0.43	0.444	0.064
Mof_H 	H 	0.1685	0.1709	0.4312	0.066
Mof_C 	C 	0.2712	0.1116	0.418	0.044
Mof_H 	H 	0.3687	0.0732	0.4145	0.065
Mof_H 	H 	0.4227	0.1521	0.6592	0.064
Mof_C 	C 	0.3443	0.2125	0.7464	0.041
Mof_H 	H 	0.2477	0.268	0.8292	0.064
Mof_H 	H 	0.1109	0.0666	0.7373	0.065
Mof_C 	C 	0.2223	0.0218	0.6845	0.041
Mof_H 	H 	0.3293	0.9969	0.6173	0.063
Mof_H 	H 	0.4552	0.2245	0.4399	0.063
Mof_C 	C 	0.3937	0.3236	0.4614	0.035
Mof_H 	H 	0.312	0.4186	0.5036	0.064
Mof_H 	H 	0.0691	0.1882	0.8868	0.065
Mof_C 	C 	0.9843	0.2814	0.921	0.043
Mof_H 	H 	0.9128	0.3765	0.9314	0.066
Mof_H 	H 	0.3413	0.904	0.6347	0.064
Mof_C 	C 	0.2399	0.9634	0.7109	0.044
Mof_H 	H 	0.1464	0.0019	0.7977	0.065
Mof_H 	H 	0.0653	0.6291	0.7701	0.066
Mof_C 	C 	0.1686	0.5519	0.7141	0.045
Mof_H 	H 	0.2783	0.4929	0.6532	0.067
Mof_H 	H 	0.2492	0.8428	0.5411	0.066
Mof_C 	C 	0.3121	0.7478	0.4977	0.043
Mof_H 	H 	0.3767	0.6489	0.474	0.065
Mof_H 	H 	0.5187	0.7375	0.6598	0.068
Mof_C 	C 	0.5509	0.667	0.5936	0.05
Mof_H 	H 	0.5666	0.5909	0.5437	0.067
Mof_H 	H 	0.9195	0.3678	0.0287	0.065
Mof_C 	C 	0.9544	0.2771	0.9892	0.042
Mof_H 	H 	0.9812	0.1841	0.9737	0.064
Mof_C 	C 	0.2896	0.051	0.3833	0.047
Mof_C 	C 	0.3933	0.2188	0.7612	0.041
Mof_C 	C 	0.1488	0.5017	0.7249	0.042
Mof_C 	C 	0.3098	0.7577	0.4382	0.045
Mof_C 	C 	0.3578	0.0129	0.3307	-0.108
Mof_C 	C 	0.2381	0.0322	0.4047	-0.113
Mof_C 	C 	0.3739	0.2381	0.8237	-0.107
Mof_C 	C 	0.4619	0.2054	0.7118	-0.098
Mof_C 	C 	0.0818	0.5123	0.7371	-0.106
Mof_C 	C 	0.2016	0.4391	0.7209	-0.104
Mof_C 	C 	0.3697	0.7155	0.3808	-0.106
Mof_C 	C 	0.2501	0.8099	0.4369	-0.113
Mof_C 	C 	0.3753	0.9547	0.3014	0.049
Mof_H 	H 	0.3931	0.026	0.3142	0.067
Mof_H 	H 	0.1899	0.0589	0.4398	0.068
Mof_C 	C 	0.257	0.9741	0.3749	0.058
Mof_C 	C 	0.4231	0.2437	0.834	0.061
Mof_H 	H 	0.3274	0.2474	0.8586	0.066
Mof_H 	H 	0.4772	0.19	0.6694	0.064
Mof_C 	C 	0.5095	0.2142	0.7235	0.043
Mof_C 	C 	0.0685	0.4617	0.7424	0.057
Mof_H 	H 	0.0443	0.5547	0.7418	0.066
Mof_H 	H 	0.2475	0.4306	0.7143	0.068
Mof_C 	C 	0.187	0.3897	0.7265	0.051
Mof_C 	C 	0.3692	0.728	0.3245	0.05
Mof_H 	H 	0.4106	0.6785	0.3801	0.064
Mof_H 	H 	0.2081	0.8388	0.4757	0.066
Mof_C 	C 	0.2513	0.8199	0.3806	0.064
Mof_N 	N 	0.3245	0.9366	0.3246	-0.059
Mof_H 	H 	0.4227	0.928	0.2654	0.031
Mof_H 	H 	0.2219	0.9608	0.3902	0.016
Mof_N 	N 	0.4881	0.2324	0.7854	-0.059
Mof_H 	H 	0.4103	0.2556	0.8764	0.019
Mof_H 	H 	0.5552	0.2076	0.6893	0.036
Mof_N 	N 	0.1209	0.4012	0.737	-0.061
Mof_H 	H 	0.0226	0.4697	0.7499	0.019
Mof_H 	H 	0.2234	0.3471	0.723	0.034
Mof_N 	N 	0.3104	0.7798	0.3255	-0.061
Mof_H 	H 	0.4104	0.6999	0.285	0.031
Mof_H 	H 	0.21	0.8555	0.3805	0.014
_end
