data_functionalizedCrystal
_audit_creation_method	'EQeq! by Chris Wilmer'
_symmetry_space_group_name_H-M	'P1'
_symmetry_Int_Tables_number	1
_symmetry_cell_setting	triclinic
loop_
_symmetry_equiv_pos_as_xyz
  x,y,z
_cell_length_a	7.072
_cell_length_b	10.385
_cell_length_c	12.842
_cell_angle_alpha	100.695
_cell_angle_beta	91.181
_cell_angle_gamma	94.614
loop_
_atom_site_label
_atom_site_type_symbol
_atom_site_fract_x
_atom_site_fract_y
_atom_site_fract_z
_atom_site_charge
Mof_Sr	Sr	0.2419	0.4669	0.39521	1.447
Mof_Sr	Sr	0.7581	0.5331	0.60479	1.447
Mof_H 	H 	0.8197	0.2858	0.0267	0.034
Mof_H 	H 	0.8042	0.4244	0.1888	0.009
Mof_H 	H 	0.6517	0.1127	0.3219	0.022
Mof_H 	H 	0.5615	0.8932	0.2817	0.063
Mof_H 	H 	0.5897	0.5648	0.0669	0.07
Mof_H 	H 	0.6971	0.6885	0.9451	0.015
Mof_H 	H 	0.1803	0.7142	0.9733	0.034
Mof_H 	H 	0.1958	0.5756	0.8112	0.009
Mof_H 	H 	0.3483	0.8873	0.6781	0.022
Mof_H 	H 	0.4385	0.1068	0.7183	0.063
Mof_H 	H 	0.4103	0.4352	0.9331	0.07
Mof_H 	H 	0.3029	0.3115	0.0549	0.015
Mof_Pt	Pt	0.78321	0.98519	0.93954	0.228
Mof_Pt	Pt	0.21679	0.01481	0.06046	0.228
Mof_C 	C 	0.786	0.25	0.0876	-0.004
Mof_C 	C 	0.778	0.3327	0.1844	-0.009
Mof_C 	C 	0.727	0.2791	0.2719	-0.13
Mof_C 	C 	0.685	0.1472	0.2609	-0.013
Mof_C 	C 	0.693	0.0623	0.1622	0.017
Mof_C 	C 	0.663	0.9228	0.1402	0.067
Mof_C 	C 	0.59	0.8507	0.2126	-0.088
Mof_C 	C 	0.556	0.7145	0.1846	-0.009
Mof_C 	C 	0.603	0.6567	0.0851	-0.09
Mof_C 	C 	0.671	0.7306	0.0142	0.059
Mof_C 	C 	0.733	0.3692	0.3823	0.444
Mof_C 	C 	0.459	0.633	0.2631	0.284
Mof_C 	C 	0.858	0.1146	0.8504	0.008
Mof_C 	C 	0.795	0.8436	0.8155	0.02
Mof_C 	C 	0.214	0.75	0.9124	-0.004
Mof_C 	C 	0.222	0.6673	0.8156	-0.009
Mof_C 	C 	0.273	0.7209	0.7281	-0.13
Mof_C 	C 	0.315	0.8528	0.7391	-0.013
Mof_C 	C 	0.307	0.9377	0.8378	0.017
Mof_C 	C 	0.337	0.0772	0.8598	0.067
Mof_C 	C 	0.41	0.1493	0.7874	-0.088
Mof_C 	C 	0.444	0.2855	0.8154	-0.009
Mof_C 	C 	0.397	0.3433	0.9149	-0.09
Mof_C 	C 	0.329	0.2694	0.9858	0.059
Mof_C 	C 	0.267	0.6308	0.6177	0.444
Mof_C 	C 	0.541	0.367	0.7369	0.284
Mof_C 	C 	0.142	0.8854	0.1496	0.008
Mof_C 	C 	0.205	0.1564	0.1845	0.02
Mof_N 	N 	0.748	0.1123	0.0749	-0.132
Mof_N 	N 	0.6966	0.8616	0.039	-0.149
Mof_N 	N 	0.906	0.1863	0.8001	-0.12
Mof_N 	N 	0.8	0.7604	0.7441	-0.205
Mof_N 	N 	0.252	0.8877	0.9251	-0.132
Mof_N 	N 	0.3034	0.1384	0.961	-0.149
Mof_N 	N 	0.094	0.8137	0.1999	-0.12
Mof_N 	N 	0.2	0.2396	0.2559	-0.205
Mof_O 	O 	0.5829	0.4074	0.4144	-0.536
Mof_O 	O 	0.8898	0.3907	0.4269	-0.559
Mof_O 	O 	0.4496	0.6856	0.3566	-0.374
Mof_O 	O 	0.3926	0.5198	0.2189	-0.369
Mof_O 	O 	0.4171	0.5926	0.5856	-0.536
Mof_O 	O 	0.1102	0.6093	0.5731	-0.559
Mof_O 	O 	0.5504	0.3144	0.6434	-0.374
Mof_O 	O 	0.6074	0.4802	0.7811	-0.369
_end
