data_functionalizedCrystal
_audit_creation_method	'EQeq! by Chris Wilmer'
_symmetry_space_group_name_H-M	'P1'
_symmetry_Int_Tables_number	1
_symmetry_cell_setting	triclinic
loop_
_symmetry_equiv_pos_as_xyz
  x,y,z
_cell_length_a	12.3251
_cell_length_b	12.3251
_cell_length_c	6.981
_cell_angle_alpha	90
_cell_angle_beta	90
_cell_angle_gamma	90
loop_
_atom_site_label
_atom_site_type_symbol
_atom_site_fract_x
_atom_site_fract_y
_atom_site_fract_z
_atom_site_charge
Mof_N 	N 	0.6527	0.3424	0.1695	-0.252
Mof_C 	C 	0.5944	0.3007	0.302	0.045
Mof_C 	C 	0.53	0.3579	0.43	-0.098
Mof_C 	C 	0.5335	0.4691	0.432	0.029
Mof_C 	C 	0.5944	0.5138	0.294	-0.096
Mof_C 	C 	0.655	0.4512	0.171	0.028
Mof_H 	H 	0.596	0.214	0.326	-0.017
Mof_H 	H 	0.475	0.319	0.529	0.044
Mof_H 	H 	0.593	0.601	0.279	0.035
Mof_H 	H 	0.706	0.493	0.069	-0.033
Mof_N 	N 	0.8473	0.1576	0.1695	-0.252
Mof_C 	C 	0.9056	0.1993	0.302	0.041
Mof_C 	C 	0.97	0.1421	0.43	-0.092
Mof_C 	C 	0.9665	0.0309	0.432	0.021
Mof_C 	C 	0.9056	0.9862	0.294	-0.087
Mof_C 	C 	0.845	0.0488	0.171	0.023
Mof_H 	H 	0.904	0.286	0.326	-0.016
Mof_H 	H 	0.025	0.181	0.529	0.041
Mof_H 	H 	0.907	0.899	0.279	0.033
Mof_H 	H 	0.794	0.007	0.069	-0.032
Mof_N 	N 	0.1576	0.6527	0.1695	-0.252
Mof_C 	C 	0.1993	0.5944	0.302	0.042
Mof_C 	C 	0.1421	0.53	0.43	-0.094
Mof_C 	C 	0.0309	0.5335	0.432	0.02
Mof_C 	C 	0.9862	0.5944	0.294	-0.088
Mof_C 	C 	0.0488	0.655	0.171	0.023
Mof_H 	H 	0.286	0.596	0.326	-0.016
Mof_H 	H 	0.181	0.475	0.529	0.043
Mof_H 	H 	0.899	0.593	0.279	0.033
Mof_H 	H 	0.007	0.706	0.069	-0.032
Mof_N 	N 	0.3424	0.8473	0.1695	-0.253
Mof_C 	C 	0.3007	0.9056	0.302	0.043
Mof_C 	C 	0.3579	0.97	0.43	-0.096
Mof_C 	C 	0.4691	0.9665	0.432	0.03
Mof_C 	C 	0.5138	0.9056	0.294	-0.096
Mof_C 	C 	0.4512	0.845	0.171	0.028
Mof_H 	H 	0.214	0.904	0.326	-0.017
Mof_H 	H 	0.319	0.025	0.529	0.043
Mof_H 	H 	0.601	0.907	0.279	0.035
Mof_H 	H 	0.493	0.794	0.069	-0.033
Mof_N 	N 	0.3473	0.6576	0.8305	-0.206
Mof_C 	C 	0.4056	0.6993	0.698	0.068
Mof_C 	C 	0.47	0.6421	0.57	-0.086
Mof_C 	C 	0.4665	0.5309	0.568	0.029
Mof_C 	C 	0.4056	0.4862	0.706	-0.079
Mof_C 	C 	0.345	0.5488	0.829	0.056
Mof_H 	H 	0.404	0.786	0.674	0.007
Mof_H 	H 	0.525	0.681	0.471	0.048
Mof_H 	H 	0.407	0.399	0.721	0.05
Mof_H 	H 	0.294	0.507	0.931	0.03
Mof_N 	N 	0.1527	0.8424	0.8305	-0.207
Mof_C 	C 	0.0944	0.8007	0.698	0.071
Mof_C 	C 	0.03	0.8579	0.57	-0.093
Mof_C 	C 	0.0335	0.9691	0.568	0.037
Mof_C 	C 	0.0944	0.0138	0.706	-0.088
Mof_C 	C 	0.155	0.9512	0.829	0.06
Mof_H 	H 	0.096	0.714	0.674	0.006
Mof_H 	H 	0.975	0.819	0.471	0.05
Mof_H 	H 	0.093	0.101	0.721	0.051
Mof_H 	H 	0.206	0.993	0.931	0.029
Mof_N 	N 	0.8424	0.3473	0.8305	-0.207
Mof_C 	C 	0.8007	0.4056	0.698	0.07
Mof_C 	C 	0.8579	0.47	0.57	-0.09
Mof_C 	C 	0.9691	0.4665	0.568	0.038
Mof_C 	C 	0.0138	0.4056	0.706	-0.088
Mof_C 	C 	0.9512	0.345	0.829	0.06
Mof_H 	H 	0.714	0.404	0.674	0.007
Mof_H 	H 	0.819	0.525	0.471	0.049
Mof_H 	H 	0.101	0.407	0.721	0.052
Mof_H 	H 	0.993	0.294	0.931	0.029
Mof_N 	N 	0.6576	0.1527	0.8305	-0.206
Mof_C 	C 	0.6993	0.0944	0.698	0.069
Mof_C 	C 	0.6421	0.03	0.57	-0.089
Mof_C 	C 	0.5309	0.0335	0.568	0.028
Mof_C 	C 	0.4862	0.0944	0.706	-0.079
Mof_C 	C 	0.5488	0.155	0.829	0.055
Mof_H 	H 	0.786	0.096	0.674	0.007
Mof_H 	H 	0.681	0.975	0.471	0.049
Mof_H 	H 	0.399	0.093	0.721	0.049
Mof_H 	H 	0.507	0.206	0.931	0.03
Mof_Cu	Cu	0.75	0.25	-0	0.803
Mof_Cu	Cu	0.25	0.75	-0	0.803
_end
