data_functionalizedCrystal
_audit_creation_method	'EQeq! by Chris Wilmer'
_symmetry_space_group_name_H-M	'P1'
_symmetry_Int_Tables_number	1
_symmetry_cell_setting	triclinic
loop_
_symmetry_equiv_pos_as_xyz
  x,y,z
_cell_length_a	14.7269
_cell_length_b	14.7269
_cell_length_c	14.7269
_cell_angle_alpha	109.471
_cell_angle_beta	109.471
_cell_angle_gamma	109.471
loop_
_atom_site_label
_atom_site_type_symbol
_atom_site_fract_x
_atom_site_fract_y
_atom_site_fract_z
_atom_site_charge
Mof_Zn	Zn	0.75	0.5	0.25	1.174
Mof_Zn	Zn	0.25	0.5	0.75	1.174
Mof_Zn	Zn	0.25	0.75	0.5	1.175
Mof_Zn	Zn	0.75	0.25	0.5	1.175
Mof_Zn	Zn	0.5	0.75	0.25	1.175
Mof_Zn	Zn	0.5	0.25	0.75	1.175
Mof_C 	C 	0.67799	0.46715	0.41062	-0.007
Mof_C 	C 	0.05653	0.26737	0.58938	-0.003
Mof_C 	C 	0.94347	0.53285	0.21084	-0.012
Mof_C 	C 	0.32201	0.73263	0.78916	-0.009
Mof_C 	C 	0.21084	0.94347	0.53285	-0.013
Mof_C 	C 	0.78916	0.32201	0.73263	-0.008
Mof_C 	C 	0.41062	0.67799	0.46715	-0.007
Mof_C 	C 	0.58938	0.05653	0.26737	-0.003
Mof_C 	C 	0.26737	0.58938	0.05653	0.003
Mof_C 	C 	0.46715	0.41062	0.67799	-0.008
Mof_C 	C 	0.73263	0.78916	0.32201	-0.008
Mof_C 	C 	0.53285	0.21084	0.94347	-0.018
Mof_C 	C 	0.26737	0.05653	0.58938	-0.003
Mof_C 	C 	0.46715	0.67799	0.41062	-0.008
Mof_C 	C 	0.73263	0.32201	0.78916	-0.008
Mof_C 	C 	0.53285	0.94347	0.21084	-0.012
Mof_C 	C 	0.67799	0.41062	0.46715	-0.008
Mof_C 	C 	0.05653	0.58938	0.26737	-0.003
Mof_C 	C 	0.94347	0.21084	0.53285	-0.012
Mof_C 	C 	0.32201	0.78916	0.73263	-0.008
Mof_C 	C 	0.21084	0.53285	0.94347	-0.018
Mof_C 	C 	0.78916	0.73263	0.32201	-0.008
Mof_C 	C 	0.41062	0.46715	0.67799	-0.008
Mof_C 	C 	0.58938	0.26737	0.05653	0.003
Mof_C 	C 	0.8158	0.3238	0.3238	-0.233
Mof_C 	C 	0.75766	0.37236	0.37236	0.127
Mof_C 	C 	-2.31188e-17	0.492	0.6762	-0.23
Mof_C 	C 	-2.31188e-17	0.3853	0.62764	0.128
Mof_C 	C 	1.15594e-17	0.6762	0.492	-0.231
Mof_C 	C 	-1.15594e-17	0.62764	0.3853	0.129
Mof_C 	C 	0.1842	0.508	0.508	-0.233
Mof_C 	C 	0.24234	0.6147	0.6147	0.125
Mof_C 	C 	0.492	9.2475e-17	0.6762	-0.23
Mof_C 	C 	0.3853	0	0.62764	0.128
Mof_C 	C 	0.508	0.1842	0.508	-0.234
Mof_C 	C 	0.6147	0.24234	0.6147	0.126
Mof_C 	C 	0.3238	0.8158	0.3238	-0.236
Mof_C 	C 	0.37236	0.75766	0.37236	0.127
Mof_C 	C 	0.6762	0	0.492	-0.229
Mof_C 	C 	0.62764	0	0.3853	0.129
Mof_C 	C 	0.492	0.6762	-0	-0.216
Mof_C 	C 	0.3853	0.62764	-0	0.129
Mof_C 	C 	0.3238	0.3238	0.8158	-0.232
Mof_C 	C 	0.37236	0.37236	0.75766	0.126
Mof_C 	C 	0.508	0.508	0.1842	-0.234
Mof_C 	C 	0.6147	0.6147	0.24234	0.126
Mof_C 	C 	0.6762	0.492	-0	-0.229
Mof_C 	C 	0.62764	0.3853	-0	0.133
Mof_N 	N 	0.72854	0.44296	0.35038	-0.291
Mof_N 	N 	0.09258	0.37816	0.64962	-0.292
Mof_N 	N 	0.90742	0.55704	0.28558	-0.292
Mof_N 	N 	0.27146	0.62184	0.71442	-0.291
Mof_N 	N 	0.28558	0.90742	0.55704	-0.292
Mof_N 	N 	0.71442	0.27146	0.62184	-0.291
Mof_N 	N 	0.35038	0.72854	0.44296	-0.291
Mof_N 	N 	0.64962	0.09258	0.37816	-0.292
Mof_N 	N 	0.37816	0.64962	0.09258	-0.292
Mof_N 	N 	0.44296	0.35038	0.72854	-0.291
Mof_N 	N 	0.62184	0.71442	0.27146	-0.291
Mof_N 	N 	0.55704	0.28558	0.90742	-0.293
Mof_N 	N 	0.37816	0.09258	0.64962	-0.292
Mof_N 	N 	0.44296	0.72854	0.35038	-0.291
Mof_N 	N 	0.62184	0.27146	0.71442	-0.291
Mof_N 	N 	0.55704	0.90742	0.28558	-0.292
Mof_N 	N 	0.72854	0.35038	0.44296	-0.291
Mof_N 	N 	0.09258	0.64962	0.37816	-0.292
Mof_N 	N 	0.90742	0.28558	0.55704	-0.292
Mof_N 	N 	0.27146	0.71442	0.62184	-0.291
Mof_N 	N 	0.28558	0.55704	0.90742	-0.293
Mof_N 	N 	0.71442	0.62184	0.27146	-0.291
Mof_N 	N 	0.35038	0.44296	0.72854	-0.291
Mof_N 	N 	0.64962	0.37816	0.09258	-0.293
Mof_H 	H 	0.63956	0.52294	0.41901	0
Mof_H 	H 	0.10393	0.22055	0.58099	0
Mof_H 	H 	0.89607	0.47706	0.11662	0.001
Mof_H 	H 	0.36044	0.77945	0.88338	-0.002
Mof_H 	H 	0.11662	0.89607	0.47706	0
Mof_H 	H 	0.88338	0.36044	0.77945	-0.001
Mof_H 	H 	0.41901	0.63956	0.52294	0
Mof_H 	H 	0.58099	0.10393	0.22055	0.001
Mof_H 	H 	0.22055	0.58099	0.10393	-0
Mof_H 	H 	0.52294	0.41901	0.63956	0
Mof_H 	H 	0.77945	0.88338	0.36044	-0.001
Mof_H 	H 	0.47706	0.11662	0.89607	0.001
Mof_H 	H 	0.22055	0.10393	0.58099	0
Mof_H 	H 	0.52294	0.63956	0.41901	-0
Mof_H 	H 	0.77945	0.36044	0.88338	-0.002
Mof_H 	H 	0.47706	0.89607	0.11662	0.003
Mof_H 	H 	0.63956	0.41901	0.52294	0
Mof_H 	H 	0.10393	0.58099	0.22055	-0.001
Mof_H 	H 	0.89607	0.11662	0.47706	0.002
Mof_H 	H 	0.36044	0.88338	0.77945	-0.001
Mof_H 	H 	0.11662	0.47706	0.89607	0.001
Mof_H 	H 	0.88338	0.77945	0.36044	-0.001
Mof_H 	H 	0.41901	0.52294	0.63956	0
Mof_H 	H 	0.7967	0.32218	0.24144	0.032
Mof_H 	H 	0.78575	0.23544	0.30902	0.035
Mof_H 	H 	0.90933	0.37672	0.38388	0.049
Mof_H 	H 	0.91357	0.4734	0.66294	0.026
Mof_H 	H 	0.02349	0.54046	0.63365	0.048
Mof_H 	H 	0.06294	0.54357	0.76907	0.038
Mof_H 	H 	0.91106	0.65095	0.47369	0.026
Mof_H 	H 	0.05217	0.77073	0.53717	0.042
Mof_H 	H 	0.03677	0.64398	0.54657	0.047
Mof_H 	H 	0.21425	0.44969	0.52328	0.036
Mof_H 	H 	0.2033	0.52548	0.44474	0.032
Mof_H 	H 	0.09067	0.4674	0.47455	0.05
Mof_H 	H 	0.53888	0.02015	0.63133	0.048
Mof_H 	H 	0.4735	0.91451	0.66597	0.026
Mof_H 	H 	0.54504	0.06534	0.76836	0.037
Mof_H 	H 	0.47624	0.09096	0.46578	0.051
Mof_H 	H 	0.52261	0.21664	0.45096	0.037
Mof_H 	H 	0.44372	0.20063	0.52583	0.032
Mof_H 	H 	0.22928	0.76222	0.27404	0.045
Mof_H 	H 	0.35607	0.83051	0.26669	0.029
Mof_H 	H 	0.34899	0.89904	0.39361	0.046
Mof_H 	H 	0.76202	0.07714	0.5527	0.033
Mof_H 	H 	0.68389	0.92232	0.4754	0.03
Mof_H 	H 	0.61975	0.00054	0.52933	0.05
Mof_H 	H 	0.47739	0.69403	0.92835	0.028
Mof_H 	H 	0.52376	0.61472	0.98955	0.041
Mof_H 	H 	0.55627	0.75691	0.0821	0.029
Mof_H 	H 	0.31611	0.23843	0.79151	0.033
Mof_H 	H 	0.23798	0.31512	0.79069	0.033
Mof_H 	H 	0.38025	0.38079	0.90958	0.047
Mof_H 	H 	0.5265	0.441	0.19247	0.031
Mof_H 	H 	0.46112	0.48127	0.09245	0.051
Mof_H 	H 	0.45495	0.52029	0.22331	0.039
Mof_H 	H 	0.64393	0.47444	0.91062	0.023
Mof_H 	H 	0.77072	0.53294	0.04477	0.044
Mof_H 	H 	0.65101	0.55004	0.04462	0.047
_end
