data_functionalizedCrystal
_audit_creation_method	'EQeq! by Chris Wilmer'
_symmetry_space_group_name_H-M	'P1'
_symmetry_Int_Tables_number	1
_symmetry_cell_setting	triclinic
loop_
_symmetry_equiv_pos_as_xyz
  x,y,z
_cell_length_a	35.063
_cell_length_b	35.063
_cell_length_c	22.593
_cell_angle_alpha	90
_cell_angle_beta	90
_cell_angle_gamma	120
loop_
_atom_site_label
_atom_site_type_symbol
_atom_site_fract_x
_atom_site_fract_y
_atom_site_fract_z
_atom_site_charge
Mof_O 	O 	0.55336	0.02788	0.0672	-0.428
Mof_O 	O 	0.56734	0.05638	0.9773	-0.438
Mof_C 	C 	0.57827	0.0537	0.0281	0.423
Mof_C 	C 	0.625	0.08464	0.0457	-0.214
Mof_C 	C 	0.65571	0.11309	0.0051	0.148
Mof_H 	H 	0.648	0.1129	0.9657	-0.014
Mof_C 	C 	0.69862	0.14211	0.0246	-0.259
Mof_H 	H 	0.7183	0.1626	0.9977	0.133
Mof_C 	C 	0.71283	0.14227	0.0779	0.204
Mof_C 	C 	0.68153	0.11378	0.12	-0.237
Mof_H 	H 	0.6892	0.114	0.1595	0.107
Mof_C 	C 	0.63843	0.08515	0.1	0.149
Mof_H 	H 	0.6182	0.0653	0.127	-0.008
Mof_C 	C 	0.75972	0.17055	0.0963	-0.171
Mof_C 	C 	0.77947	0.15251	0.131	0.005
Mof_H 	H 	0.7631	0.123	0.1417	0.026
Mof_H 	H 	0.7417	0.303	0.0291	0.386
Mof_H 	H 	0.7098	0.2455	0.1288	0.404
Mof_O 	O 	0.22003	0.36121	0.40053	-0.429
Mof_O 	O 	0.23401	0.38971	0.31063	-0.438
Mof_C 	C 	0.24494	0.38703	0.36143	0.421
Mof_C 	C 	0.29167	0.41797	0.37903	-0.214
Mof_C 	C 	0.32238	0.44642	0.33843	0.146
Mof_H 	H 	0.31467	0.44623	0.29903	-0.014
Mof_C 	C 	0.36529	0.47544	0.35793	-0.261
Mof_H 	H 	0.38497	0.49593	0.33103	0.133
Mof_C 	C 	0.3795	0.4756	0.41123	0.204
Mof_C 	C 	0.3482	0.44711	0.45333	-0.238
Mof_H 	H 	0.35587	0.44733	0.49283	0.106
Mof_C 	C 	0.3051	0.41848	0.43333	0.148
Mof_H 	H 	0.28487	0.39863	0.46033	-0.009
Mof_C 	C 	0.42639	0.50388	0.42963	-0.173
Mof_C 	C 	0.44614	0.48584	0.46433	0.005
Mof_H 	H 	0.42977	0.45633	0.47503	0.026
Mof_H 	H 	0.40837	0.63633	0.36243	0.387
Mof_H 	H 	0.37647	0.57883	0.46213	0.404
Mof_O 	O 	0.88669	0.69455	0.73387	-0.429
Mof_O 	O 	0.90067	0.72305	0.64397	-0.438
Mof_C 	C 	0.9116	0.72037	0.69477	0.42
Mof_C 	C 	0.95833	0.75131	0.71237	-0.213
Mof_C 	C 	0.98904	0.77976	0.67177	0.145
Mof_H 	H 	0.98133	0.77957	0.63237	-0.014
Mof_C 	C 	0.03195	0.80878	0.69127	-0.259
Mof_H 	H 	0.05163	0.82927	0.66437	0.133
Mof_C 	C 	0.04616	0.80894	0.74457	0.203
Mof_C 	C 	0.01486	0.78045	0.78667	-0.237
Mof_H 	H 	0.02253	0.78067	0.82617	0.105
Mof_C 	C 	0.97176	0.75182	0.76667	0.146
Mof_H 	H 	0.95153	0.73197	0.79367	-0.008
Mof_C 	C 	0.09305	0.83722	0.76297	-0.172
Mof_C 	C 	0.1128	0.81918	0.79767	0.005
Mof_H 	H 	0.09643	0.78967	0.80837	0.026
Mof_H 	H 	0.07503	0.96967	0.69577	0.387
Mof_H 	H 	0.04313	0.91217	0.79547	0.405
Mof_O 	O 	0.97212	0.52548	0.0672	-0.429
Mof_O 	O 	0.94362	0.51096	0.9773	-0.439
Mof_C 	C 	0.9463	0.52457	0.0281	0.422
Mof_C 	C 	0.91536	0.54036	0.0457	-0.215
Mof_C 	C 	0.88691	0.54262	0.0051	0.147
Mof_H 	H 	0.8871	0.5351	0.9657	-0.015
Mof_C 	C 	0.85789	0.55651	0.0246	-0.26
Mof_H 	H 	0.8374	0.5557	0.9977	0.133
Mof_C 	C 	0.85773	0.57056	0.0779	0.204
Mof_C 	C 	0.88622	0.56775	0.12	-0.238
Mof_H 	H 	0.886	0.5752	0.1595	0.106
Mof_C 	C 	0.91485	0.55328	0.1	0.148
Mof_H 	H 	0.9347	0.5529	0.127	-0.009
Mof_C 	C 	0.82945	0.58917	0.0963	-0.172
Mof_C 	C 	0.84749	0.62696	0.131	0.005
Mof_H 	H 	0.877	0.6401	0.1417	0.026
Mof_H 	H 	0.697	0.4387	0.0291	0.387
Mof_H 	H 	0.7545	0.4643	0.1288	0.404
Mof_O 	O 	0.63879	0.85881	0.40053	-0.429
Mof_O 	O 	0.61029	0.84429	0.31063	-0.438
Mof_C 	C 	0.61297	0.8579	0.36143	0.421
Mof_C 	C 	0.58203	0.87369	0.37903	-0.214
Mof_C 	C 	0.55358	0.87595	0.33843	0.146
Mof_H 	H 	0.55377	0.86843	0.29903	-0.014
Mof_C 	C 	0.52456	0.88984	0.35793	-0.261
Mof_H 	H 	0.50407	0.88903	0.33103	0.133
Mof_C 	C 	0.5244	0.90389	0.41123	0.204
Mof_C 	C 	0.55289	0.90108	0.45333	-0.238
Mof_H 	H 	0.55267	0.90853	0.49283	0.106
Mof_C 	C 	0.58152	0.88661	0.43333	0.148
Mof_H 	H 	0.60137	0.88623	0.46033	-0.009
Mof_C 	C 	0.49612	0.9225	0.42963	-0.173
Mof_C 	C 	0.51416	0.96029	0.46433	0.005
Mof_H 	H 	0.54367	0.97343	0.47503	0.026
Mof_H 	H 	0.36367	0.77203	0.36243	0.387
Mof_H 	H 	0.42117	0.79763	0.46213	0.404
Mof_O 	O 	0.30545	0.19215	0.73387	-0.429
Mof_O 	O 	0.27695	0.17763	0.64397	-0.438
Mof_C 	C 	0.27963	0.19124	0.69477	0.421
Mof_C 	C 	0.24869	0.20703	0.71237	-0.214
Mof_C 	C 	0.22024	0.20929	0.67177	0.146
Mof_H 	H 	0.22043	0.20177	0.63237	-0.014
Mof_C 	C 	0.19122	0.22318	0.69127	-0.261
Mof_H 	H 	0.17073	0.22237	0.66437	0.133
Mof_C 	C 	0.19106	0.23723	0.74457	0.204
Mof_C 	C 	0.21955	0.23442	0.78667	-0.238
Mof_H 	H 	0.21933	0.24187	0.82617	0.106
Mof_C 	C 	0.24818	0.21995	0.76667	0.148
Mof_H 	H 	0.26803	0.21957	0.79367	-0.009
Mof_C 	C 	0.16278	0.25584	0.76297	-0.172
Mof_C 	C 	0.18082	0.29363	0.79767	0.005
Mof_H 	H 	0.21033	0.30677	0.80837	0.026
Mof_H 	H 	0.03033	0.10537	0.69577	0.387
Mof_H 	H 	0.08783	0.13097	0.79547	0.404
Mof_O 	O 	0.47452	0.44664	0.0672	-0.429
Mof_O 	O 	0.48904	0.43266	0.9773	-0.438
Mof_C 	C 	0.47543	0.42173	0.0281	0.421
Mof_C 	C 	0.45964	0.375	0.0457	-0.214
Mof_C 	C 	0.45738	0.34429	0.0051	0.146
Mof_H 	H 	0.4649	0.352	0.9657	-0.014
Mof_C 	C 	0.44349	0.30138	0.0246	-0.26
Mof_H 	H 	0.4443	0.2817	0.9977	0.133
Mof_C 	C 	0.42944	0.28717	0.0779	0.203
Mof_C 	C 	0.43225	0.31847	0.12	-0.238
Mof_H 	H 	0.4248	0.3108	0.1595	0.106
Mof_C 	C 	0.44672	0.36157	0.1	0.148
Mof_H 	H 	0.4471	0.3818	0.127	-0.009
Mof_C 	C 	0.41083	0.24028	0.0963	-0.172
Mof_C 	C 	0.37304	0.22053	0.131	0.005
Mof_H 	H 	0.3599	0.2369	0.1417	0.026
Mof_H 	H 	0.5613	0.2583	0.0291	0.387
Mof_H 	H 	0.5357	0.2902	0.1288	0.404
Mof_O 	O 	0.14119	0.77997	0.40053	-0.429
Mof_O 	O 	0.15571	0.76599	0.31063	-0.438
Mof_C 	C 	0.1421	0.75506	0.36143	0.421
Mof_C 	C 	0.12631	0.70833	0.37903	-0.214
Mof_C 	C 	0.12405	0.67762	0.33843	0.146
Mof_H 	H 	0.13157	0.68533	0.29903	-0.014
Mof_C 	C 	0.11016	0.63471	0.35793	-0.261
Mof_H 	H 	0.11097	0.61503	0.33103	0.133
Mof_C 	C 	0.09611	0.6205	0.41123	0.204
Mof_C 	C 	0.09892	0.6518	0.45333	-0.238
Mof_H 	H 	0.09147	0.64413	0.49283	0.106
Mof_C 	C 	0.11339	0.6949	0.43333	0.148
Mof_H 	H 	0.11377	0.71513	0.46033	-0.009
Mof_C 	C 	0.0775	0.57361	0.42963	-0.172
Mof_C 	C 	0.03971	0.55386	0.46433	0.005
Mof_H 	H 	0.02657	0.57023	0.47503	0.026
Mof_H 	H 	0.22797	0.59163	0.36243	0.387
Mof_H 	H 	0.20237	0.62353	0.46213	0.404
Mof_O 	O 	0.80785	0.11331	0.73387	-0.429
Mof_O 	O 	0.82237	0.09933	0.64397	-0.438
Mof_C 	C 	0.80876	0.0884	0.69477	0.421
Mof_C 	C 	0.79297	0.04167	0.71237	-0.213
Mof_C 	C 	0.79071	0.01096	0.67177	0.145
Mof_H 	H 	0.79823	0.01867	0.63237	-0.014
Mof_C 	C 	0.77682	0.96805	0.69127	-0.26
Mof_H 	H 	0.77763	0.94837	0.66437	0.133
Mof_C 	C 	0.76277	0.95384	0.74457	0.203
Mof_C 	C 	0.76558	0.98514	0.78667	-0.237
Mof_H 	H 	0.75813	0.97747	0.82617	0.105
Mof_C 	C 	0.78005	0.02824	0.76667	0.147
Mof_H 	H 	0.78043	0.04847	0.79367	-0.008
Mof_C 	C 	0.74416	0.90695	0.76297	-0.172
Mof_C 	C 	0.70637	0.8872	0.79767	0.005
Mof_H 	H 	0.69323	0.90357	0.80837	0.026
Mof_H 	H 	0.89463	0.92497	0.69577	0.387
Mof_H 	H 	0.86903	0.95687	0.79547	0.404
Mof_O 	O 	0.02788	0.55336	0.9328	-0.429
Mof_O 	O 	0.05638	0.56734	0.0227	-0.439
Mof_C 	C 	0.0537	0.57827	0.9719	0.422
Mof_C 	C 	0.08464	0.625	0.9543	-0.215
Mof_C 	C 	0.11309	0.65571	0.9949	0.147
Mof_H 	H 	0.1129	0.648	0.0343	-0.015
Mof_C 	C 	0.14211	0.69862	0.9754	-0.26
Mof_H 	H 	0.1626	0.7183	0.0023	0.132
Mof_C 	C 	0.14227	0.71283	0.9221	0.203
Mof_C 	C 	0.11378	0.68153	0.88	-0.238
Mof_H 	H 	0.114	0.6892	0.8405	0.106
Mof_C 	C 	0.08515	0.63843	0.9	0.148
Mof_H 	H 	0.0653	0.6182	0.873	-0.009
Mof_C 	C 	0.17055	0.75972	0.9037	-0.172
Mof_C 	C 	0.15251	0.77947	0.869	0.005
Mof_H 	H 	0.123	0.7631	0.8583	0.026
Mof_H 	H 	0.303	0.7417	0.9709	0.386
Mof_H 	H 	0.2455	0.7098	0.8712	0.404
Mof_O 	O 	0.69455	0.88669	0.26613	-0.429
Mof_O 	O 	0.72305	0.90067	0.35603	-0.438
Mof_C 	C 	0.72037	0.9116	0.30523	0.42
Mof_C 	C 	0.75131	0.95833	0.28763	-0.213
Mof_C 	C 	0.77976	0.98904	0.32823	0.145
Mof_H 	H 	0.77957	0.98133	0.36763	-0.014
Mof_C 	C 	0.80878	0.03195	0.30873	-0.259
Mof_H 	H 	0.82927	0.05163	0.33563	0.133
Mof_C 	C 	0.80894	0.04616	0.25543	0.203
Mof_C 	C 	0.78045	0.01486	0.21333	-0.237
Mof_H 	H 	0.78067	0.02253	0.17383	0.105
Mof_C 	C 	0.75182	0.97176	0.23333	0.146
Mof_H 	H 	0.73197	0.95153	0.20633	-0.008
Mof_C 	C 	0.83722	0.09305	0.23703	-0.172
Mof_C 	C 	0.81918	0.1128	0.20233	0.005
Mof_H 	H 	0.78967	0.09643	0.19163	0.026
Mof_H 	H 	0.96967	0.07503	0.30423	0.387
Mof_H 	H 	0.91217	0.04313	0.20453	0.405
Mof_O 	O 	0.36121	0.22003	0.59947	-0.429
Mof_O 	O 	0.38971	0.23401	0.68937	-0.438
Mof_C 	C 	0.38703	0.24494	0.63857	0.421
Mof_C 	C 	0.41797	0.29167	0.62097	-0.214
Mof_C 	C 	0.44642	0.32238	0.66157	0.146
Mof_H 	H 	0.44623	0.31467	0.70097	-0.014
Mof_C 	C 	0.47544	0.36529	0.64207	-0.261
Mof_H 	H 	0.49593	0.38497	0.66897	0.133
Mof_C 	C 	0.4756	0.3795	0.58877	0.204
Mof_C 	C 	0.44711	0.3482	0.54667	-0.238
Mof_H 	H 	0.44733	0.35587	0.50717	0.106
Mof_C 	C 	0.41848	0.3051	0.56667	0.148
Mof_H 	H 	0.39863	0.28487	0.53967	-0.009
Mof_C 	C 	0.50388	0.42639	0.57037	-0.173
Mof_C 	C 	0.48584	0.44614	0.53567	0.005
Mof_H 	H 	0.45633	0.42977	0.52497	0.026
Mof_H 	H 	0.63633	0.40837	0.63757	0.387
Mof_H 	H 	0.57883	0.37647	0.53787	0.404
Mof_O 	O 	0.52548	0.97212	0.9328	-0.429
Mof_O 	O 	0.51096	0.94362	0.0227	-0.439
Mof_C 	C 	0.52457	0.9463	0.9719	0.422
Mof_C 	C 	0.54036	0.91536	0.9543	-0.215
Mof_C 	C 	0.54262	0.88691	0.9949	0.147
Mof_H 	H 	0.5351	0.8871	0.0343	-0.015
Mof_C 	C 	0.55651	0.85789	0.9754	-0.26
Mof_H 	H 	0.5557	0.8374	0.0023	0.133
Mof_C 	C 	0.57056	0.85773	0.9221	0.204
Mof_C 	C 	0.56775	0.88622	0.88	-0.238
Mof_H 	H 	0.5752	0.886	0.8405	0.106
Mof_C 	C 	0.55328	0.91485	0.9	0.148
Mof_H 	H 	0.5529	0.9347	0.873	-0.009
Mof_C 	C 	0.58917	0.82945	0.9037	-0.172
Mof_C 	C 	0.62696	0.84749	0.869	0.005
Mof_H 	H 	0.6401	0.877	0.8583	0.026
Mof_H 	H 	0.4387	0.697	0.9709	0.387
Mof_H 	H 	0.4643	0.7545	0.8712	0.404
Mof_O 	O 	0.19215	0.30545	0.26613	-0.429
Mof_O 	O 	0.17763	0.27695	0.35603	-0.438
Mof_C 	C 	0.19124	0.27963	0.30523	0.421
Mof_C 	C 	0.20703	0.24869	0.28763	-0.214
Mof_C 	C 	0.20929	0.22024	0.32823	0.146
Mof_H 	H 	0.20177	0.22043	0.36763	-0.014
Mof_C 	C 	0.22318	0.19122	0.30873	-0.261
Mof_H 	H 	0.22237	0.17073	0.33563	0.133
Mof_C 	C 	0.23723	0.19106	0.25543	0.204
Mof_C 	C 	0.23442	0.21955	0.21333	-0.238
Mof_H 	H 	0.24187	0.21933	0.17383	0.106
Mof_C 	C 	0.21995	0.24818	0.23333	0.148
Mof_H 	H 	0.21957	0.26803	0.20633	-0.009
Mof_C 	C 	0.25584	0.16278	0.23703	-0.172
Mof_C 	C 	0.29363	0.18082	0.20233	0.005
Mof_H 	H 	0.30677	0.21033	0.19163	0.026
Mof_H 	H 	0.10537	0.03033	0.30423	0.387
Mof_H 	H 	0.13097	0.08783	0.20453	0.404
Mof_O 	O 	0.85881	0.63879	0.59947	-0.429
Mof_O 	O 	0.84429	0.61029	0.68937	-0.438
Mof_C 	C 	0.8579	0.61297	0.63857	0.421
Mof_C 	C 	0.87369	0.58203	0.62097	-0.214
Mof_C 	C 	0.87595	0.55358	0.66157	0.146
Mof_H 	H 	0.86843	0.55377	0.70097	-0.014
Mof_C 	C 	0.88984	0.52456	0.64207	-0.261
Mof_H 	H 	0.88903	0.50407	0.66897	0.133
Mof_C 	C 	0.90389	0.5244	0.58877	0.204
Mof_C 	C 	0.90108	0.55289	0.54667	-0.238
Mof_H 	H 	0.90853	0.55267	0.50717	0.106
Mof_C 	C 	0.88661	0.58152	0.56667	0.148
Mof_H 	H 	0.88623	0.60137	0.53967	-0.009
Mof_C 	C 	0.9225	0.49612	0.57037	-0.173
Mof_C 	C 	0.96029	0.51416	0.53567	0.005
Mof_H 	H 	0.97343	0.54367	0.52497	0.026
Mof_H 	H 	0.77203	0.36367	0.63757	0.387
Mof_H 	H 	0.79763	0.42117	0.53787	0.404
Mof_O 	O 	0.44664	0.47452	0.9328	-0.429
Mof_O 	O 	0.43266	0.48904	0.0227	-0.438
Mof_C 	C 	0.42173	0.47543	0.9719	0.421
Mof_C 	C 	0.375	0.45964	0.9543	-0.214
Mof_C 	C 	0.34429	0.45738	0.9949	0.146
Mof_H 	H 	0.352	0.4649	0.0343	-0.014
Mof_C 	C 	0.30138	0.44349	0.9754	-0.26
Mof_H 	H 	0.2817	0.4443	0.0023	0.133
Mof_C 	C 	0.28717	0.42944	0.9221	0.203
Mof_C 	C 	0.31847	0.43225	0.88	-0.238
Mof_H 	H 	0.3108	0.4248	0.8405	0.106
Mof_C 	C 	0.36157	0.44672	0.9	0.148
Mof_H 	H 	0.3818	0.4471	0.873	-0.009
Mof_C 	C 	0.24028	0.41083	0.9037	-0.172
Mof_C 	C 	0.22053	0.37304	0.869	0.005
Mof_H 	H 	0.2369	0.3599	0.8583	0.026
Mof_H 	H 	0.2583	0.5613	0.9709	0.387
Mof_H 	H 	0.2902	0.5357	0.8712	0.404
Mof_O 	O 	0.11331	0.80785	0.26613	-0.429
Mof_O 	O 	0.09933	0.82237	0.35603	-0.438
Mof_C 	C 	0.0884	0.80876	0.30523	0.421
Mof_C 	C 	0.04167	0.79297	0.28763	-0.213
Mof_C 	C 	0.01096	0.79071	0.32823	0.145
Mof_H 	H 	0.01867	0.79823	0.36763	-0.014
Mof_C 	C 	0.96805	0.77682	0.30873	-0.26
Mof_H 	H 	0.94837	0.77763	0.33563	0.133
Mof_C 	C 	0.95384	0.76277	0.25543	0.203
Mof_C 	C 	0.98514	0.76558	0.21333	-0.237
Mof_H 	H 	0.97747	0.75813	0.17383	0.105
Mof_C 	C 	0.02824	0.78005	0.23333	0.147
Mof_H 	H 	0.04847	0.78043	0.20633	-0.008
Mof_C 	C 	0.90695	0.74416	0.23703	-0.172
Mof_C 	C 	0.8872	0.70637	0.20233	0.005
Mof_H 	H 	0.90357	0.69323	0.19163	0.026
Mof_H 	H 	0.92497	0.89463	0.30423	0.387
Mof_H 	H 	0.95687	0.86903	0.20453	0.404
Mof_O 	O 	0.77997	0.14119	0.59947	-0.429
Mof_O 	O 	0.76599	0.15571	0.68937	-0.438
Mof_C 	C 	0.75506	0.1421	0.63857	0.421
Mof_C 	C 	0.70833	0.12631	0.62097	-0.214
Mof_C 	C 	0.67762	0.12405	0.66157	0.146
Mof_H 	H 	0.68533	0.13157	0.70097	-0.014
Mof_C 	C 	0.63471	0.11016	0.64207	-0.261
Mof_H 	H 	0.61503	0.11097	0.66897	0.133
Mof_C 	C 	0.6205	0.09611	0.58877	0.204
Mof_C 	C 	0.6518	0.09892	0.54667	-0.238
Mof_H 	H 	0.64413	0.09147	0.50717	0.106
Mof_C 	C 	0.6949	0.11339	0.56667	0.148
Mof_H 	H 	0.71513	0.11377	0.53967	-0.009
Mof_C 	C 	0.57361	0.0775	0.57037	-0.172
Mof_C 	C 	0.55386	0.03971	0.53567	0.005
Mof_H 	H 	0.57023	0.02657	0.52497	0.026
Mof_H 	H 	0.59163	0.22797	0.63757	0.387
Mof_H 	H 	0.62353	0.20237	0.53787	0.404
Mof_O 	O 	0.44664	0.97212	0.9328	-0.429
Mof_O 	O 	0.43266	0.94362	0.0227	-0.439
Mof_C 	C 	0.42173	0.9463	0.9719	0.422
Mof_C 	C 	0.375	0.91536	0.9543	-0.215
Mof_C 	C 	0.34429	0.88691	0.9949	0.147
Mof_H 	H 	0.352	0.8871	0.0343	-0.015
Mof_C 	C 	0.30138	0.85789	0.9754	-0.26
Mof_H 	H 	0.2817	0.8374	0.0023	0.132
Mof_C 	C 	0.28717	0.85773	0.9221	0.203
Mof_C 	C 	0.31847	0.88622	0.88	-0.238
Mof_H 	H 	0.3108	0.886	0.8405	0.106
Mof_C 	C 	0.36157	0.91485	0.9	0.148
Mof_H 	H 	0.3818	0.9347	0.873	-0.009
Mof_C 	C 	0.24028	0.82945	0.9037	-0.172
Mof_C 	C 	0.22053	0.84749	0.869	0.005
Mof_H 	H 	0.2369	0.877	0.8583	0.026
Mof_H 	H 	0.2583	0.697	0.9709	0.386
Mof_H 	H 	0.2902	0.7545	0.8712	0.404
Mof_O 	O 	0.11331	0.30545	0.26613	-0.429
Mof_O 	O 	0.09933	0.27695	0.35603	-0.438
Mof_C 	C 	0.0884	0.27963	0.30523	0.42
Mof_C 	C 	0.04167	0.24869	0.28763	-0.213
Mof_C 	C 	0.01096	0.22024	0.32823	0.145
Mof_H 	H 	0.01867	0.22043	0.36763	-0.014
Mof_C 	C 	0.96805	0.19122	0.30873	-0.259
Mof_H 	H 	0.94837	0.17073	0.33563	0.133
Mof_C 	C 	0.95384	0.19106	0.25543	0.203
Mof_C 	C 	0.98514	0.21955	0.21333	-0.237
Mof_H 	H 	0.97747	0.21933	0.17383	0.105
Mof_C 	C 	0.02824	0.24818	0.23333	0.146
Mof_H 	H 	0.04847	0.26803	0.20633	-0.008
Mof_C 	C 	0.90695	0.16278	0.23703	-0.172
Mof_C 	C 	0.8872	0.18082	0.20233	0.005
Mof_H 	H 	0.90357	0.21033	0.19163	0.026
Mof_H 	H 	0.92497	0.03033	0.30423	0.387
Mof_H 	H 	0.95687	0.08783	0.20453	0.405
Mof_O 	O 	0.77997	0.63879	0.59947	-0.429
Mof_O 	O 	0.76599	0.61029	0.68937	-0.438
Mof_C 	C 	0.75506	0.61297	0.63857	0.421
Mof_C 	C 	0.70833	0.58203	0.62097	-0.214
Mof_C 	C 	0.67762	0.55358	0.66157	0.146
Mof_H 	H 	0.68533	0.55377	0.70097	-0.014
Mof_C 	C 	0.63471	0.52456	0.64207	-0.261
Mof_H 	H 	0.61503	0.50407	0.66897	0.133
Mof_C 	C 	0.6205	0.5244	0.58877	0.204
Mof_C 	C 	0.6518	0.55289	0.54667	-0.238
Mof_H 	H 	0.64413	0.55267	0.50717	0.106
Mof_C 	C 	0.6949	0.58152	0.56667	0.148
Mof_H 	H 	0.71513	0.60137	0.53967	-0.009
Mof_C 	C 	0.57361	0.49612	0.57037	-0.173
Mof_C 	C 	0.55386	0.51416	0.53567	0.005
Mof_H 	H 	0.57023	0.54367	0.52497	0.026
Mof_H 	H 	0.59163	0.36367	0.63757	0.387
Mof_H 	H 	0.62353	0.42117	0.53787	0.404
Mof_O 	O 	0.02788	0.47452	0.9328	-0.429
Mof_O 	O 	0.05638	0.48904	0.0227	-0.439
Mof_C 	C 	0.0537	0.47543	0.9719	0.422
Mof_C 	C 	0.08464	0.45964	0.9543	-0.215
Mof_C 	C 	0.11309	0.45738	0.9949	0.147
Mof_H 	H 	0.1129	0.4649	0.0343	-0.015
Mof_C 	C 	0.14211	0.44349	0.9754	-0.26
Mof_H 	H 	0.1626	0.4443	0.0023	0.133
Mof_C 	C 	0.14227	0.42944	0.9221	0.204
Mof_C 	C 	0.11378	0.43225	0.88	-0.238
Mof_H 	H 	0.114	0.4248	0.8405	0.106
Mof_C 	C 	0.08515	0.44672	0.9	0.148
Mof_H 	H 	0.0653	0.4471	0.873	-0.009
Mof_C 	C 	0.17055	0.41083	0.9037	-0.172
Mof_C 	C 	0.15251	0.37304	0.869	0.005
Mof_H 	H 	0.123	0.3599	0.8583	0.026
Mof_H 	H 	0.303	0.5613	0.9709	0.387
Mof_H 	H 	0.2455	0.5357	0.8712	0.404
Mof_O 	O 	0.69455	0.80785	0.26613	-0.429
Mof_O 	O 	0.72305	0.82237	0.35603	-0.438
Mof_C 	C 	0.72037	0.80876	0.30523	0.421
Mof_C 	C 	0.75131	0.79297	0.28763	-0.214
Mof_C 	C 	0.77976	0.79071	0.32823	0.146
Mof_H 	H 	0.77957	0.79823	0.36763	-0.014
Mof_C 	C 	0.80878	0.77682	0.30873	-0.261
Mof_H 	H 	0.82927	0.77763	0.33563	0.133
Mof_C 	C 	0.80894	0.76277	0.25543	0.204
Mof_C 	C 	0.78045	0.76558	0.21333	-0.238
Mof_H 	H 	0.78067	0.75813	0.17383	0.106
Mof_C 	C 	0.75182	0.78005	0.23333	0.148
Mof_H 	H 	0.73197	0.78043	0.20633	-0.009
Mof_C 	C 	0.83722	0.74416	0.23703	-0.172
Mof_C 	C 	0.81918	0.70637	0.20233	0.005
Mof_H 	H 	0.78967	0.69323	0.19163	0.026
Mof_H 	H 	0.96967	0.89463	0.30423	0.387
Mof_H 	H 	0.91217	0.86903	0.20453	0.404
Mof_O 	O 	0.36121	0.14119	0.59947	-0.429
Mof_O 	O 	0.38971	0.15571	0.68937	-0.438
Mof_C 	C 	0.38703	0.1421	0.63857	0.421
Mof_C 	C 	0.41797	0.12631	0.62097	-0.214
Mof_C 	C 	0.44642	0.12405	0.66157	0.146
Mof_H 	H 	0.44623	0.13157	0.70097	-0.014
Mof_C 	C 	0.47544	0.11016	0.64207	-0.261
Mof_H 	H 	0.49593	0.11097	0.66897	0.133
Mof_C 	C 	0.4756	0.09611	0.58877	0.204
Mof_C 	C 	0.44711	0.09892	0.54667	-0.238
Mof_H 	H 	0.44733	0.09147	0.50717	0.106
Mof_C 	C 	0.41848	0.11339	0.56667	0.148
Mof_H 	H 	0.39863	0.11377	0.53967	-0.009
Mof_C 	C 	0.50388	0.0775	0.57037	-0.173
Mof_C 	C 	0.48584	0.03971	0.53567	0.005
Mof_H 	H 	0.45633	0.02657	0.52497	0.026
Mof_H 	H 	0.63633	0.22797	0.63757	0.387
Mof_H 	H 	0.57883	0.20237	0.53787	0.404
Mof_O 	O 	0.52548	0.55336	0.9328	-0.429
Mof_O 	O 	0.51096	0.56734	0.0227	-0.438
Mof_C 	C 	0.52457	0.57827	0.9719	0.421
Mof_C 	C 	0.54036	0.625	0.9543	-0.214
Mof_C 	C 	0.54262	0.65571	0.9949	0.146
Mof_H 	H 	0.5351	0.648	0.0343	-0.014
Mof_C 	C 	0.55651	0.69862	0.9754	-0.26
Mof_H 	H 	0.5557	0.7183	0.0023	0.133
Mof_C 	C 	0.57056	0.71283	0.9221	0.203
Mof_C 	C 	0.56775	0.68153	0.88	-0.238
Mof_H 	H 	0.5752	0.6892	0.8405	0.106
Mof_C 	C 	0.55328	0.63843	0.9	0.148
Mof_H 	H 	0.5529	0.6182	0.873	-0.009
Mof_C 	C 	0.58917	0.75972	0.9037	-0.172
Mof_C 	C 	0.62696	0.77947	0.869	0.005
Mof_H 	H 	0.6401	0.7631	0.8583	0.026
Mof_H 	H 	0.4387	0.7417	0.9709	0.387
Mof_H 	H 	0.4643	0.7098	0.8712	0.404
Mof_O 	O 	0.19215	0.88669	0.26613	-0.429
Mof_O 	O 	0.17763	0.90067	0.35603	-0.438
Mof_C 	C 	0.19124	0.9116	0.30523	0.421
Mof_C 	C 	0.20703	0.95833	0.28763	-0.213
Mof_C 	C 	0.20929	0.98904	0.32823	0.145
Mof_H 	H 	0.20177	0.98133	0.36763	-0.014
Mof_C 	C 	0.22318	0.03195	0.30873	-0.26
Mof_H 	H 	0.22237	0.05163	0.33563	0.133
Mof_C 	C 	0.23723	0.04616	0.25543	0.203
Mof_C 	C 	0.23442	0.01486	0.21333	-0.237
Mof_H 	H 	0.24187	0.02253	0.17383	0.105
Mof_C 	C 	0.21995	0.97176	0.23333	0.147
Mof_H 	H 	0.21957	0.95153	0.20633	-0.008
Mof_C 	C 	0.25584	0.09305	0.23703	-0.172
Mof_C 	C 	0.29363	0.1128	0.20233	0.005
Mof_H 	H 	0.30677	0.09643	0.19163	0.026
Mof_H 	H 	0.10537	0.07503	0.30423	0.387
Mof_H 	H 	0.13097	0.04313	0.20453	0.404
Mof_O 	O 	0.85881	0.22003	0.59947	-0.429
Mof_O 	O 	0.84429	0.23401	0.68937	-0.438
Mof_C 	C 	0.8579	0.24494	0.63857	0.421
Mof_C 	C 	0.87369	0.29167	0.62097	-0.214
Mof_C 	C 	0.87595	0.32238	0.66157	0.146
Mof_H 	H 	0.86843	0.31467	0.70097	-0.014
Mof_C 	C 	0.88984	0.36529	0.64207	-0.261
Mof_H 	H 	0.88903	0.38497	0.66897	0.133
Mof_C 	C 	0.90389	0.3795	0.58877	0.204
Mof_C 	C 	0.90108	0.3482	0.54667	-0.238
Mof_H 	H 	0.90853	0.35587	0.50717	0.106
Mof_C 	C 	0.88661	0.3051	0.56667	0.148
Mof_H 	H 	0.88623	0.28487	0.53967	-0.009
Mof_C 	C 	0.9225	0.42639	0.57037	-0.172
Mof_C 	C 	0.96029	0.44614	0.53567	0.005
Mof_H 	H 	0.97343	0.42977	0.52497	0.026
Mof_H 	H 	0.77203	0.40837	0.63757	0.387
Mof_H 	H 	0.79763	0.37647	0.53787	0.404
Mof_O 	O 	0.97212	0.44664	0.0672	-0.429
Mof_O 	O 	0.94362	0.43266	0.9773	-0.439
Mof_C 	C 	0.9463	0.42173	0.0281	0.422
Mof_C 	C 	0.91536	0.375	0.0457	-0.215
Mof_C 	C 	0.88691	0.34429	0.0051	0.147
Mof_H 	H 	0.8871	0.352	0.9657	-0.015
Mof_C 	C 	0.85789	0.30138	0.0246	-0.26
Mof_H 	H 	0.8374	0.2817	0.9977	0.132
Mof_C 	C 	0.85773	0.28717	0.0779	0.203
Mof_C 	C 	0.88622	0.31847	0.12	-0.238
Mof_H 	H 	0.886	0.3108	0.1595	0.106
Mof_C 	C 	0.91485	0.36157	0.1	0.148
Mof_H 	H 	0.9347	0.3818	0.127	-0.009
Mof_C 	C 	0.82945	0.24028	0.0963	-0.172
Mof_C 	C 	0.84749	0.22053	0.131	0.005
Mof_H 	H 	0.877	0.2369	0.1417	0.026
Mof_H 	H 	0.697	0.2583	0.0291	0.386
Mof_H 	H 	0.7545	0.2902	0.1288	0.404
Mof_O 	O 	0.63879	0.77997	0.40053	-0.429
Mof_O 	O 	0.61029	0.76599	0.31063	-0.438
Mof_C 	C 	0.61297	0.75506	0.36143	0.421
Mof_C 	C 	0.58203	0.70833	0.37903	-0.214
Mof_C 	C 	0.55358	0.67762	0.33843	0.146
Mof_H 	H 	0.55377	0.68533	0.29903	-0.014
Mof_C 	C 	0.52456	0.63471	0.35793	-0.261
Mof_H 	H 	0.50407	0.61503	0.33103	0.133
Mof_C 	C 	0.5244	0.6205	0.41123	0.204
Mof_C 	C 	0.55289	0.6518	0.45333	-0.238
Mof_H 	H 	0.55267	0.64413	0.49283	0.106
Mof_C 	C 	0.58152	0.6949	0.43333	0.148
Mof_H 	H 	0.60137	0.71513	0.46033	-0.009
Mof_C 	C 	0.49612	0.57361	0.42963	-0.173
Mof_C 	C 	0.51416	0.55386	0.46433	0.005
Mof_H 	H 	0.54367	0.57023	0.47503	0.026
Mof_H 	H 	0.36367	0.59163	0.36243	0.387
Mof_H 	H 	0.42117	0.62353	0.46213	0.404
Mof_O 	O 	0.30545	0.11331	0.73387	-0.429
Mof_O 	O 	0.27695	0.09933	0.64397	-0.438
Mof_C 	C 	0.27963	0.0884	0.69477	0.42
Mof_C 	C 	0.24869	0.04167	0.71237	-0.213
Mof_C 	C 	0.22024	0.01096	0.67177	0.145
Mof_H 	H 	0.22043	0.01867	0.63237	-0.014
Mof_C 	C 	0.19122	0.96805	0.69127	-0.259
Mof_H 	H 	0.17073	0.94837	0.66437	0.133
Mof_C 	C 	0.19106	0.95384	0.74457	0.203
Mof_C 	C 	0.21955	0.98514	0.78667	-0.237
Mof_H 	H 	0.21933	0.97747	0.82617	0.105
Mof_C 	C 	0.24818	0.02824	0.76667	0.146
Mof_H 	H 	0.26803	0.04847	0.79367	-0.008
Mof_C 	C 	0.16278	0.90695	0.76297	-0.172
Mof_C 	C 	0.18082	0.8872	0.79767	0.005
Mof_H 	H 	0.21033	0.90357	0.80837	0.026
Mof_H 	H 	0.03033	0.92497	0.69577	0.387
Mof_H 	H 	0.08783	0.95687	0.79547	0.405
Mof_O 	O 	0.47452	0.02788	0.0672	-0.429
Mof_O 	O 	0.48904	0.05638	0.9773	-0.439
Mof_C 	C 	0.47543	0.0537	0.0281	0.422
Mof_C 	C 	0.45964	0.08464	0.0457	-0.215
Mof_C 	C 	0.45738	0.11309	0.0051	0.147
Mof_H 	H 	0.4649	0.1129	0.9657	-0.015
Mof_C 	C 	0.44349	0.14211	0.0246	-0.26
Mof_H 	H 	0.4443	0.1626	0.9977	0.133
Mof_C 	C 	0.42944	0.14227	0.0779	0.204
Mof_C 	C 	0.43225	0.11378	0.12	-0.238
Mof_H 	H 	0.4248	0.114	0.1595	0.106
Mof_C 	C 	0.44672	0.08515	0.1	0.148
Mof_H 	H 	0.4471	0.0653	0.127	-0.009
Mof_C 	C 	0.41083	0.17055	0.0963	-0.172
Mof_C 	C 	0.37304	0.15251	0.131	0.005
Mof_H 	H 	0.3599	0.123	0.1417	0.026
Mof_H 	H 	0.5613	0.303	0.0291	0.387
Mof_H 	H 	0.5357	0.2455	0.1288	0.404
Mof_O 	O 	0.14119	0.36121	0.40053	-0.429
Mof_O 	O 	0.15571	0.38971	0.31063	-0.438
Mof_C 	C 	0.1421	0.38703	0.36143	0.421
Mof_C 	C 	0.12631	0.41797	0.37903	-0.214
Mof_C 	C 	0.12405	0.44642	0.33843	0.146
Mof_H 	H 	0.13157	0.44623	0.29903	-0.014
Mof_C 	C 	0.11016	0.47544	0.35793	-0.261
Mof_H 	H 	0.11097	0.49593	0.33103	0.133
Mof_C 	C 	0.09611	0.4756	0.41123	0.204
Mof_C 	C 	0.09892	0.44711	0.45333	-0.238
Mof_H 	H 	0.09147	0.44733	0.49283	0.106
Mof_C 	C 	0.11339	0.41848	0.43333	0.148
Mof_H 	H 	0.11377	0.39863	0.46033	-0.009
Mof_C 	C 	0.0775	0.50388	0.42963	-0.173
Mof_C 	C 	0.03971	0.48584	0.46433	0.005
Mof_H 	H 	0.02657	0.45633	0.47503	0.026
Mof_H 	H 	0.22797	0.63633	0.36243	0.387
Mof_H 	H 	0.20237	0.57883	0.46213	0.404
Mof_O 	O 	0.80785	0.69455	0.73387	-0.429
Mof_O 	O 	0.82237	0.72305	0.64397	-0.438
Mof_C 	C 	0.80876	0.72037	0.69477	0.421
Mof_C 	C 	0.79297	0.75131	0.71237	-0.214
Mof_C 	C 	0.79071	0.77976	0.67177	0.146
Mof_H 	H 	0.79823	0.77957	0.63237	-0.014
Mof_C 	C 	0.77682	0.80878	0.69127	-0.261
Mof_H 	H 	0.77763	0.82927	0.66437	0.133
Mof_C 	C 	0.76277	0.80894	0.74457	0.204
Mof_C 	C 	0.76558	0.78045	0.78667	-0.238
Mof_H 	H 	0.75813	0.78067	0.82617	0.106
Mof_C 	C 	0.78005	0.75182	0.76667	0.148
Mof_H 	H 	0.78043	0.73197	0.79367	-0.009
Mof_C 	C 	0.74416	0.83722	0.76297	-0.172
Mof_C 	C 	0.70637	0.81918	0.79767	0.005
Mof_H 	H 	0.69323	0.78967	0.80837	0.026
Mof_H 	H 	0.89463	0.96967	0.69577	0.387
Mof_H 	H 	0.86903	0.91217	0.79547	0.404
Mof_O 	O 	0.55336	0.52548	0.0672	-0.429
Mof_O 	O 	0.56734	0.51096	0.9773	-0.438
Mof_C 	C 	0.57827	0.52457	0.0281	0.421
Mof_C 	C 	0.625	0.54036	0.0457	-0.214
Mof_C 	C 	0.65571	0.54262	0.0051	0.146
Mof_H 	H 	0.648	0.5351	0.9657	-0.014
Mof_C 	C 	0.69862	0.55651	0.0246	-0.26
Mof_H 	H 	0.7183	0.5557	0.9977	0.133
Mof_C 	C 	0.71283	0.57056	0.0779	0.203
Mof_C 	C 	0.68153	0.56775	0.12	-0.238
Mof_H 	H 	0.6892	0.5752	0.1595	0.106
Mof_C 	C 	0.63843	0.55328	0.1	0.148
Mof_H 	H 	0.6182	0.5529	0.127	-0.009
Mof_C 	C 	0.75972	0.58917	0.0963	-0.172
Mof_C 	C 	0.77947	0.62696	0.131	0.005
Mof_H 	H 	0.7631	0.6401	0.1417	0.026
Mof_H 	H 	0.7417	0.4387	0.0291	0.387
Mof_H 	H 	0.7098	0.4643	0.1288	0.404
Mof_O 	O 	0.22003	0.85881	0.40053	-0.429
Mof_O 	O 	0.23401	0.84429	0.31063	-0.438
Mof_C 	C 	0.24494	0.8579	0.36143	0.421
Mof_C 	C 	0.29167	0.87369	0.37903	-0.214
Mof_C 	C 	0.32238	0.87595	0.33843	0.146
Mof_H 	H 	0.31467	0.86843	0.29903	-0.014
Mof_C 	C 	0.36529	0.88984	0.35793	-0.261
Mof_H 	H 	0.38497	0.88903	0.33103	0.133
Mof_C 	C 	0.3795	0.90389	0.41123	0.204
Mof_C 	C 	0.3482	0.90108	0.45333	-0.238
Mof_H 	H 	0.35587	0.90853	0.49283	0.106
Mof_C 	C 	0.3051	0.88661	0.43333	0.148
Mof_H 	H 	0.28487	0.88623	0.46033	-0.009
Mof_C 	C 	0.42639	0.9225	0.42963	-0.172
Mof_C 	C 	0.44614	0.96029	0.46433	0.005
Mof_H 	H 	0.42977	0.97343	0.47503	0.026
Mof_H 	H 	0.40837	0.77203	0.36243	0.387
Mof_H 	H 	0.37647	0.79763	0.46213	0.404
Mof_O 	O 	0.88669	0.19215	0.73387	-0.429
Mof_O 	O 	0.90067	0.17763	0.64397	-0.438
Mof_C 	C 	0.9116	0.19124	0.69477	0.421
Mof_C 	C 	0.95833	0.20703	0.71237	-0.213
Mof_C 	C 	0.98904	0.20929	0.67177	0.145
Mof_H 	H 	0.98133	0.20177	0.63237	-0.014
Mof_C 	C 	0.03195	0.22318	0.69127	-0.26
Mof_H 	H 	0.05163	0.22237	0.66437	0.133
Mof_C 	C 	0.04616	0.23723	0.74457	0.203
Mof_C 	C 	0.01486	0.23442	0.78667	-0.237
Mof_H 	H 	0.02253	0.24187	0.82617	0.105
Mof_C 	C 	0.97176	0.21995	0.76667	0.147
Mof_H 	H 	0.95153	0.21957	0.79367	-0.008
Mof_C 	C 	0.09305	0.25584	0.76297	-0.172
Mof_C 	C 	0.1128	0.29363	0.79767	0.005
Mof_H 	H 	0.09643	0.30677	0.80837	0.026
Mof_H 	H 	0.07503	0.10537	0.69577	0.387
Mof_H 	H 	0.04313	0.13097	0.79547	0.404
Mof_Cu	Cu	0.50844	0.01689	0.94732	0.905
Mof_Cu	Cu	0.17511	0.35022	0.28065	0.905
Mof_Cu	Cu	0.84178	0.68356	0.61399	0.905
Mof_Cu	Cu	0.98311	0.49156	0.94732	0.905
Mof_Cu	Cu	0.64978	0.82489	0.28065	0.905
Mof_Cu	Cu	0.31644	0.15822	0.61399	0.905
Mof_Cu	Cu	0.50844	0.49156	0.94732	0.905
Mof_Cu	Cu	0.17511	0.82489	0.28065	0.905
Mof_Cu	Cu	0.84178	0.15822	0.61399	0.905
Mof_Cu	Cu	0.01689	0.50844	0.05268	0.905
Mof_Cu	Cu	0.68356	0.84178	0.38601	0.905
Mof_Cu	Cu	0.35022	0.17511	0.71935	0.905
Mof_Cu	Cu	0.49156	0.98311	0.05268	0.905
Mof_Cu	Cu	0.15822	0.31644	0.38601	0.905
Mof_Cu	Cu	0.82489	0.64978	0.71935	0.905
Mof_Cu	Cu	0.49156	0.50845	0.05268	0.905
Mof_Cu	Cu	0.15822	0.84178	0.38601	0.905
Mof_Cu	Cu	0.82489	0.17511	0.71935	0.905
Mof_O 	O 	0.76672	0.23328	0.0432	-0.629
Mof_C 	C 	0.82285	0.17715	0.1504	-0.027
Mof_C 	C 	0.78515	0.21485	0.0802	0.285
Mof_C 	C 	0.7278	0.2722	0.0201	-1.309
Mof_H 	H 	0.7316	0.2684	0.9788	0.402
Mof_C 	C 	0.7409	0.2591	0.1221	-1.358
Mof_H 	H 	0.7532	0.2468	0.1487	0.421
Mof_C 	C 	0.7493	0.2507	0.0577	0.901
Mof_O 	O 	0.43339	0.56661	0.37653	-0.63
Mof_C 	C 	0.48952	0.51048	0.48373	-0.027
Mof_C 	C 	0.45182	0.54818	0.41353	0.285
Mof_C 	C 	0.39447	0.60553	0.35343	-1.311
Mof_H 	H 	0.39827	0.60173	0.31213	0.403
Mof_C 	C 	0.40757	0.59243	0.45543	-1.359
Mof_H 	H 	0.41987	0.58013	0.48203	0.422
Mof_C 	C 	0.41597	0.58403	0.39103	0.902
Mof_O 	O 	0.10005	0.89995	0.70987	-0.63
Mof_C 	C 	0.15618	0.84382	0.81707	-0.026
Mof_C 	C 	0.11848	0.88152	0.74687	0.285
Mof_C 	C 	0.06113	0.93887	0.68677	-1.312
Mof_H 	H 	0.06493	0.93507	0.64547	0.404
Mof_C 	C 	0.07423	0.92577	0.78877	-1.36
Mof_H 	H 	0.08653	0.91347	0.81537	0.422
Mof_C 	C 	0.08263	0.91737	0.72437	0.902
Mof_O 	O 	0.76672	0.53344	0.0432	-0.629
Mof_C 	C 	0.82285	0.6457	0.1504	-0.027
Mof_C 	C 	0.78515	0.5703	0.0802	0.285
Mof_C 	C 	0.7278	0.4556	0.0201	-1.31
Mof_H 	H 	0.7316	0.4632	0.9788	0.403
Mof_C 	C 	0.7409	0.4818	0.1221	-1.358
Mof_H 	H 	0.7532	0.5064	0.1487	0.421
Mof_C 	C 	0.7493	0.4986	0.0577	0.901
Mof_O 	O 	0.43339	0.86677	0.37653	-0.63
Mof_C 	C 	0.48952	0.97903	0.48373	-0.027
Mof_C 	C 	0.45182	0.90363	0.41353	0.285
Mof_C 	C 	0.39447	0.78893	0.35343	-1.311
Mof_H 	H 	0.39827	0.79653	0.31213	0.403
Mof_C 	C 	0.40757	0.81513	0.45543	-1.359
Mof_H 	H 	0.41987	0.83973	0.48203	0.422
Mof_C 	C 	0.41597	0.83193	0.39103	0.902
Mof_O 	O 	0.10005	0.20011	0.70987	-0.63
Mof_C 	C 	0.15618	0.31237	0.81707	-0.027
Mof_C 	C 	0.11848	0.23697	0.74687	0.285
Mof_C 	C 	0.06113	0.12227	0.68677	-1.311
Mof_H 	H 	0.06493	0.12987	0.64547	0.403
Mof_C 	C 	0.07423	0.14847	0.78877	-1.359
Mof_H 	H 	0.08653	0.17307	0.81537	0.422
Mof_C 	C 	0.08263	0.16527	0.72437	0.902
Mof_O 	O 	0.46656	0.23328	0.0432	-0.629
Mof_C 	C 	0.3543	0.17715	0.1504	-0.027
Mof_C 	C 	0.4297	0.21485	0.0802	0.285
Mof_C 	C 	0.5444	0.2722	0.0201	-1.31
Mof_H 	H 	0.5368	0.2684	0.9788	0.403
Mof_C 	C 	0.5182	0.2591	0.1221	-1.358
Mof_H 	H 	0.4936	0.2468	0.1487	0.421
Mof_C 	C 	0.5014	0.2507	0.0577	0.901
Mof_O 	O 	0.13323	0.56661	0.37653	-0.63
Mof_C 	C 	0.02097	0.51048	0.48373	-0.027
Mof_C 	C 	0.09637	0.54818	0.41353	0.285
Mof_C 	C 	0.21107	0.60553	0.35343	-1.311
Mof_H 	H 	0.20347	0.60173	0.31213	0.403
Mof_C 	C 	0.18487	0.59243	0.45543	-1.359
Mof_H 	H 	0.16027	0.58013	0.48203	0.422
Mof_C 	C 	0.16807	0.58403	0.39103	0.902
Mof_O 	O 	0.79989	0.89995	0.70987	-0.63
Mof_C 	C 	0.68763	0.84382	0.81707	-0.027
Mof_C 	C 	0.76303	0.88152	0.74687	0.285
Mof_C 	C 	0.87773	0.93887	0.68677	-1.311
Mof_H 	H 	0.87013	0.93507	0.64547	0.403
Mof_C 	C 	0.85153	0.92577	0.78877	-1.359
Mof_H 	H 	0.82693	0.91347	0.81537	0.422
Mof_C 	C 	0.83473	0.91737	0.72437	0.902
Mof_O 	O 	0.23328	0.76672	0.9568	-0.629
Mof_C 	C 	0.17715	0.82285	0.8496	-0.027
Mof_C 	C 	0.21485	0.78515	0.9198	0.285
Mof_C 	C 	0.2722	0.7278	0.9799	-1.309
Mof_H 	H 	0.2684	0.7316	0.0212	0.402
Mof_C 	C 	0.2591	0.7409	0.8779	-1.358
Mof_H 	H 	0.2468	0.7532	0.8513	0.421
Mof_C 	C 	0.2507	0.7493	0.9423	0.901
Mof_O 	O 	0.89995	0.10005	0.29013	-0.63
Mof_C 	C 	0.84382	0.15618	0.18293	-0.026
Mof_C 	C 	0.88152	0.11848	0.25313	0.285
Mof_C 	C 	0.93887	0.06113	0.31323	-1.312
Mof_H 	H 	0.93507	0.06493	0.35453	0.404
Mof_C 	C 	0.92577	0.07423	0.21123	-1.36
Mof_H 	H 	0.91347	0.08653	0.18463	0.422
Mof_C 	C 	0.91737	0.08263	0.27563	0.902
Mof_O 	O 	0.56661	0.43339	0.62347	-0.63
Mof_C 	C 	0.51048	0.48952	0.51627	-0.027
Mof_C 	C 	0.54818	0.45182	0.58647	0.285
Mof_C 	C 	0.60553	0.39447	0.64657	-1.311
Mof_H 	H 	0.60173	0.39827	0.68787	0.403
Mof_C 	C 	0.59243	0.40757	0.54457	-1.359
Mof_H 	H 	0.58013	0.41987	0.51797	0.422
Mof_C 	C 	0.58403	0.41597	0.60897	0.902
Mof_O 	O 	0.53344	0.76672	0.9568	-0.629
Mof_C 	C 	0.6457	0.82285	0.8496	-0.027
Mof_C 	C 	0.5703	0.78515	0.9198	0.285
Mof_C 	C 	0.4556	0.7278	0.9799	-1.31
Mof_H 	H 	0.4632	0.7316	0.0212	0.403
Mof_C 	C 	0.4818	0.7409	0.8779	-1.358
Mof_H 	H 	0.5064	0.7532	0.8513	0.421
Mof_C 	C 	0.4986	0.7493	0.9423	0.901
Mof_O 	O 	0.20011	0.10005	0.29013	-0.63
Mof_C 	C 	0.31237	0.15618	0.18293	-0.027
Mof_C 	C 	0.23697	0.11848	0.25313	0.285
Mof_C 	C 	0.12227	0.06113	0.31323	-1.311
Mof_H 	H 	0.12987	0.06493	0.35453	0.403
Mof_C 	C 	0.14847	0.07423	0.21123	-1.359
Mof_H 	H 	0.17307	0.08653	0.18463	0.422
Mof_C 	C 	0.16527	0.08263	0.27563	0.902
Mof_O 	O 	0.86677	0.43339	0.62347	-0.63
Mof_C 	C 	0.97903	0.48952	0.51627	-0.027
Mof_C 	C 	0.90363	0.45182	0.58647	0.285
Mof_C 	C 	0.78893	0.39447	0.64657	-1.311
Mof_H 	H 	0.79653	0.39827	0.68787	0.403
Mof_C 	C 	0.81513	0.40757	0.54457	-1.359
Mof_H 	H 	0.83973	0.41987	0.51797	0.422
Mof_C 	C 	0.83193	0.41597	0.60897	0.902
Mof_O 	O 	0.23328	0.46656	0.9568	-0.629
Mof_C 	C 	0.17715	0.3543	0.8496	-0.027
Mof_C 	C 	0.21485	0.4297	0.9198	0.285
Mof_C 	C 	0.2722	0.5444	0.9799	-1.31
Mof_H 	H 	0.2684	0.5368	0.0212	0.403
Mof_C 	C 	0.2591	0.5182	0.8779	-1.358
Mof_H 	H 	0.2468	0.4936	0.8513	0.421
Mof_C 	C 	0.2507	0.5014	0.9423	0.901
Mof_O 	O 	0.89995	0.79989	0.29013	-0.63
Mof_C 	C 	0.84382	0.68763	0.18293	-0.027
Mof_C 	C 	0.88152	0.76303	0.25313	0.285
Mof_C 	C 	0.93887	0.87773	0.31323	-1.311
Mof_H 	H 	0.93507	0.87013	0.35453	0.403
Mof_C 	C 	0.92577	0.85153	0.21123	-1.359
Mof_H 	H 	0.91347	0.82693	0.18463	0.422
Mof_C 	C 	0.91737	0.83473	0.27563	0.902
Mof_O 	O 	0.56661	0.13323	0.62347	-0.63
Mof_C 	C 	0.51048	0.02097	0.51627	-0.027
Mof_C 	C 	0.54818	0.09637	0.58647	0.285
Mof_C 	C 	0.60553	0.21107	0.64657	-1.311
Mof_H 	H 	0.60173	0.20347	0.68787	0.403
Mof_C 	C 	0.59243	0.18487	0.54457	-1.359
Mof_H 	H 	0.58013	0.16027	0.51797	0.422
Mof_C 	C 	0.58403	0.16807	0.60897	0.902
_end
