data_functionalizedCrystal
_audit_creation_method	'EQeq! by Chris Wilmer'
_symmetry_space_group_name_H-M	'P1'
_symmetry_Int_Tables_number	1
_symmetry_cell_setting	triclinic
loop_
_symmetry_equiv_pos_as_xyz
  x,y,z
_cell_length_a	22.5597
_cell_length_b	22.5597
_cell_length_c	22.5597
_cell_angle_alpha	90
_cell_angle_beta	90
_cell_angle_gamma	90
loop_
_atom_site_label
_atom_site_type_symbol
_atom_site_fract_x
_atom_site_fract_y
_atom_site_fract_z
_atom_site_charge
Mof_C 	C 	0.45275	0.44923	0.14182	0.498
Mof_C 	C 	0.43213	0.42853	0.20167	-0.235
Mof_C 	C 	0.37228	0.42174	0.21465	0.149
Mof_H 	H 	0.344	0.4276	0.1852	-0.014
Mof_C 	C 	0.35468	0.4062	0.27161	-0.226
Mof_H 	H 	0.3146	0.4017	0.2803	0.11
Mof_C 	C 	0.39692	0.39745	0.3156	0.17
Mof_C 	C 	0.45677	0.40425	0.30263	-0.231
Mof_H 	H 	0.485	0.3984	0.3321	0.112
Mof_C 	C 	0.47437	0.41978	0.24566	0.15
Mof_H 	H 	0.5144	0.4243	0.237	-0.02
Mof_Zn	Zn	0.42775	0.45372	0.01253	1.112
Mof_O 	O 	0.41571	0.45311	0.10193	-0.606
Mof_O 	O 	0.50295	0.46587	0.13501	-0.683
Mof_C 	C 	0.04725	0.55077	0.64182	0.587
Mof_C 	C 	0.06787	0.57147	0.70167	-0.32
Mof_C 	C 	0.12772	0.57826	0.71465	0.214
Mof_H 	H 	0.156	0.5724	0.6852	-0.039
Mof_C 	C 	0.14532	0.5938	0.77161	-0.28
Mof_H 	H 	0.1854	0.5983	0.7803	0.126
Mof_C 	C 	0.10308	0.60255	0.8156	0.217
Mof_C 	C 	0.04323	0.59575	0.80263	-0.32
Mof_H 	H 	0.015	0.6016	0.8321	0.157
Mof_C 	C 	0.02563	0.58022	0.74566	0.303
Mof_H 	H 	0.9856	0.5757	0.737	-0.1
Mof_Zn	Zn	0.07225	0.54628	0.51253	1.105
Mof_O 	O 	0.08429	0.54689	0.60193	-0.628
Mof_O 	O 	0.99705	0.53413	0.63501	-0.74
Mof_C 	C 	0.54725	0.94923	0.35818	0.504
Mof_C 	C 	0.56787	0.92853	0.29833	-0.249
Mof_C 	C 	0.62772	0.92174	0.28535	0.15
Mof_H 	H 	0.656	0.9276	0.3148	-0.025
Mof_C 	C 	0.64532	0.9062	0.22839	-0.235
Mof_H 	H 	0.6854	0.9017	0.2197	0.106
Mof_C 	C 	0.60308	0.89745	0.1844	0.168
Mof_C 	C 	0.54323	0.90425	0.19737	-0.242
Mof_H 	H 	0.515	0.8984	0.1679	0.112
Mof_C 	C 	0.52563	0.91978	0.25434	0.153
Mof_H 	H 	0.4856	0.9243	0.263	-0.028
Mof_Zn	Zn	0.57225	0.95372	0.48747	1.097
Mof_O 	O 	0.58429	0.95311	0.39807	-0.627
Mof_O 	O 	0.49705	0.96587	0.36499	-0.704
Mof_C 	C 	0.95275	0.05077	0.85818	0.41
Mof_C 	C 	0.93213	0.07147	0.79833	-0.144
Mof_C 	C 	0.87228	0.07826	0.78535	0.083
Mof_H 	H 	0.844	0.0724	0.8148	0.012
Mof_C 	C 	0.85468	0.0938	0.72839	-0.168
Mof_H 	H 	0.8146	0.0983	0.7197	0.091
Mof_C 	C 	0.89692	0.10255	0.6844	0.122
Mof_C 	C 	0.95677	0.09575	0.69737	-0.135
Mof_H 	H 	0.985	0.1016	0.6679	0.065
Mof_C 	C 	0.97437	0.08022	0.75434	-0.006
Mof_H 	H 	0.0144	0.0757	0.763	0.066
Mof_Zn	Zn	0.92775	0.04628	0.98747	1.083
Mof_O 	O 	0.91571	0.04689	0.89807	-0.588
Mof_O 	O 	0.00295	0.03413	0.86499	-0.615
Mof_C 	C 	0.14182	0.45275	0.44923	0.497
Mof_C 	C 	0.20167	0.43213	0.42853	-0.236
Mof_C 	C 	0.21465	0.37228	0.42174	0.148
Mof_H 	H 	0.1852	0.344	0.4276	-0.015
Mof_C 	C 	0.27161	0.35468	0.4062	-0.227
Mof_H 	H 	0.2803	0.3146	0.4017	0.109
Mof_C 	C 	0.3156	0.39692	0.39745	0.169
Mof_C 	C 	0.30263	0.45677	0.40425	-0.232
Mof_H 	H 	0.3321	0.485	0.3984	0.112
Mof_C 	C 	0.24566	0.47437	0.41978	0.15
Mof_H 	H 	0.237	0.5144	0.4243	-0.02
Mof_Zn	Zn	0.01253	0.42775	0.45372	1.112
Mof_O 	O 	0.10193	0.41571	0.45311	-0.606
Mof_O 	O 	0.13501	0.50295	0.46587	-0.683
Mof_C 	C 	0.64182	0.04725	0.55077	0.587
Mof_C 	C 	0.70167	0.06787	0.57147	-0.32
Mof_C 	C 	0.71465	0.12772	0.57826	0.214
Mof_H 	H 	0.6852	0.156	0.5724	-0.039
Mof_C 	C 	0.77161	0.14532	0.5938	-0.28
Mof_H 	H 	0.7803	0.1854	0.5983	0.126
Mof_C 	C 	0.8156	0.10308	0.60255	0.217
Mof_C 	C 	0.80263	0.04323	0.59575	-0.32
Mof_H 	H 	0.8321	0.015	0.6016	0.157
Mof_C 	C 	0.74566	0.02563	0.58022	0.303
Mof_H 	H 	0.737	0.9856	0.5757	-0.1
Mof_Zn	Zn	0.51253	0.07225	0.54628	1.105
Mof_O 	O 	0.60193	0.08429	0.54689	-0.628
Mof_O 	O 	0.63501	0.99705	0.53413	-0.74
Mof_C 	C 	0.35818	0.54725	0.94923	0.504
Mof_C 	C 	0.29833	0.56787	0.92853	-0.249
Mof_C 	C 	0.28535	0.62772	0.92174	0.15
Mof_H 	H 	0.3148	0.656	0.9276	-0.025
Mof_C 	C 	0.22839	0.64532	0.9062	-0.235
Mof_H 	H 	0.2197	0.6854	0.9017	0.106
Mof_C 	C 	0.1844	0.60308	0.89745	0.168
Mof_C 	C 	0.19737	0.54323	0.90425	-0.242
Mof_H 	H 	0.1679	0.515	0.8984	0.112
Mof_C 	C 	0.25434	0.52563	0.91978	0.153
Mof_H 	H 	0.263	0.4856	0.9243	-0.028
Mof_Zn	Zn	0.48747	0.57225	0.95372	1.097
Mof_O 	O 	0.39807	0.58429	0.95311	-0.627
Mof_O 	O 	0.36499	0.49705	0.96587	-0.704
Mof_C 	C 	0.85818	0.95275	0.05077	0.41
Mof_C 	C 	0.79833	0.93213	0.07147	-0.144
Mof_C 	C 	0.78535	0.87228	0.07826	0.083
Mof_H 	H 	0.8148	0.844	0.0724	0.012
Mof_C 	C 	0.72839	0.85468	0.0938	-0.168
Mof_H 	H 	0.7197	0.8146	0.0983	0.091
Mof_C 	C 	0.6844	0.89692	0.10255	0.122
Mof_C 	C 	0.69737	0.95677	0.09575	-0.135
Mof_H 	H 	0.6679	0.985	0.1016	0.065
Mof_C 	C 	0.75434	0.97437	0.08022	-0.006
Mof_H 	H 	0.763	0.0144	0.0757	0.066
Mof_Zn	Zn	0.98747	0.92775	0.04628	1.083
Mof_O 	O 	0.89807	0.91571	0.04689	-0.588
Mof_O 	O 	0.86499	0.00295	0.03413	-0.615
Mof_C 	C 	0.44923	0.14182	0.45275	0.497
Mof_C 	C 	0.42853	0.20167	0.43213	-0.236
Mof_C 	C 	0.42174	0.21465	0.37228	0.148
Mof_H 	H 	0.4276	0.1852	0.344	-0.015
Mof_C 	C 	0.4062	0.27161	0.35468	-0.227
Mof_H 	H 	0.4017	0.2803	0.3146	0.109
Mof_C 	C 	0.39745	0.3156	0.39692	0.169
Mof_C 	C 	0.40425	0.30263	0.45677	-0.232
Mof_H 	H 	0.3984	0.3321	0.485	0.112
Mof_C 	C 	0.41978	0.24566	0.47437	0.15
Mof_H 	H 	0.4243	0.237	0.5144	-0.02
Mof_Zn	Zn	0.45372	0.01253	0.42775	1.112
Mof_O 	O 	0.45311	0.10193	0.41571	-0.606
Mof_O 	O 	0.46587	0.13501	0.50295	-0.683
Mof_C 	C 	0.55077	0.64182	0.04725	0.587
Mof_C 	C 	0.57147	0.70167	0.06787	-0.32
Mof_C 	C 	0.57826	0.71465	0.12772	0.214
Mof_H 	H 	0.5724	0.6852	0.156	-0.039
Mof_C 	C 	0.5938	0.77161	0.14532	-0.28
Mof_H 	H 	0.5983	0.7803	0.1854	0.126
Mof_C 	C 	0.60255	0.8156	0.10308	0.217
Mof_C 	C 	0.59575	0.80263	0.04323	-0.32
Mof_H 	H 	0.6016	0.8321	0.015	0.157
Mof_C 	C 	0.58022	0.74566	0.02563	0.303
Mof_H 	H 	0.5757	0.737	0.9856	-0.1
Mof_Zn	Zn	0.54628	0.51253	0.07225	1.105
Mof_O 	O 	0.54689	0.60193	0.08429	-0.628
Mof_O 	O 	0.53413	0.63501	0.99705	-0.74
Mof_C 	C 	0.94923	0.35818	0.54725	0.504
Mof_C 	C 	0.92853	0.29833	0.56787	-0.249
Mof_C 	C 	0.92174	0.28535	0.62772	0.15
Mof_H 	H 	0.9276	0.3148	0.656	-0.025
Mof_C 	C 	0.9062	0.22839	0.64532	-0.235
Mof_H 	H 	0.9017	0.2197	0.6854	0.106
Mof_C 	C 	0.89745	0.1844	0.60308	0.168
Mof_C 	C 	0.90425	0.19737	0.54323	-0.242
Mof_H 	H 	0.8984	0.1679	0.515	0.112
Mof_C 	C 	0.91978	0.25434	0.52563	0.153
Mof_H 	H 	0.9243	0.263	0.4856	-0.028
Mof_Zn	Zn	0.95372	0.48747	0.57225	1.097
Mof_O 	O 	0.95311	0.39807	0.58429	-0.627
Mof_O 	O 	0.96587	0.36499	0.49705	-0.704
Mof_C 	C 	0.05077	0.85818	0.95275	0.41
Mof_C 	C 	0.07147	0.79833	0.93213	-0.144
Mof_C 	C 	0.07826	0.78535	0.87228	0.083
Mof_H 	H 	0.0724	0.8148	0.844	0.012
Mof_C 	C 	0.0938	0.72839	0.85468	-0.168
Mof_H 	H 	0.0983	0.7197	0.8146	0.091
Mof_C 	C 	0.10255	0.6844	0.89692	0.122
Mof_C 	C 	0.09575	0.69737	0.95677	-0.135
Mof_H 	H 	0.1016	0.6679	0.985	0.065
Mof_C 	C 	0.08022	0.75434	0.97437	-0.006
Mof_H 	H 	0.0757	0.763	0.0144	0.066
Mof_Zn	Zn	0.04628	0.98747	0.92775	1.083
Mof_O 	O 	0.04689	0.89807	0.91571	-0.588
Mof_O 	O 	0.03413	0.86499	0.00295	-0.615
Mof_C 	C 	0.54725	0.55077	0.85818	0.502
Mof_C 	C 	0.56787	0.57147	0.79833	-0.24
Mof_C 	C 	0.62772	0.57826	0.78535	0.151
Mof_H 	H 	0.656	0.5724	0.8148	-0.019
Mof_C 	C 	0.64532	0.5938	0.72839	-0.229
Mof_H 	H 	0.6854	0.5983	0.7197	0.108
Mof_C 	C 	0.60308	0.60255	0.6844	0.171
Mof_C 	C 	0.54323	0.59575	0.69737	-0.234
Mof_H 	H 	0.515	0.6016	0.6679	0.112
Mof_C 	C 	0.52563	0.58022	0.75434	0.152
Mof_H 	H 	0.4856	0.5757	0.763	-0.022
Mof_Zn	Zn	0.57225	0.54628	0.98747	1.089
Mof_O 	O 	0.58429	0.54689	0.89807	-0.617
Mof_O 	O 	0.49705	0.53413	0.86499	-0.687
Mof_C 	C 	0.95275	0.44923	0.35818	0.409
Mof_C 	C 	0.93213	0.42853	0.29833	-0.151
Mof_C 	C 	0.87228	0.42174	0.28535	0.081
Mof_H 	H 	0.844	0.4276	0.3148	0.006
Mof_C 	C 	0.85468	0.4062	0.22839	-0.172
Mof_H 	H 	0.8146	0.4017	0.2197	0.089
Mof_C 	C 	0.89692	0.39745	0.1844	0.119
Mof_C 	C 	0.95677	0.40425	0.19737	-0.14
Mof_H 	H 	0.985	0.3984	0.1679	0.064
Mof_C 	C 	0.97437	0.41978	0.25434	-0.009
Mof_H 	H 	0.0144	0.4243	0.263	0.062
Mof_Zn	Zn	0.92775	0.45372	0.48747	1.095
Mof_O 	O 	0.91571	0.45311	0.39807	-0.594
Mof_O 	O 	0.00295	0.46587	0.36499	-0.627
Mof_C 	C 	0.45275	0.05077	0.64182	0.495
Mof_C 	C 	0.43213	0.07147	0.70167	-0.226
Mof_C 	C 	0.37228	0.07826	0.71465	0.148
Mof_H 	H 	0.344	0.0724	0.6852	-0.009
Mof_C 	C 	0.35468	0.0938	0.77161	-0.22
Mof_H 	H 	0.3146	0.0983	0.7803	0.11
Mof_C 	C 	0.39692	0.10255	0.8156	0.17
Mof_C 	C 	0.45677	0.09575	0.80263	-0.223
Mof_H 	H 	0.485	0.1016	0.8321	0.111
Mof_C 	C 	0.47437	0.08022	0.74566	0.148
Mof_H 	H 	0.5144	0.0757	0.737	-0.015
Mof_Zn	Zn	0.42775	0.04628	0.51253	1.103
Mof_O 	O 	0.41571	0.04689	0.60193	-0.595
Mof_O 	O 	0.50295	0.03413	0.63501	-0.666
Mof_C 	C 	0.04725	0.94923	0.14182	0.588
Mof_C 	C 	0.06787	0.92853	0.20167	-0.329
Mof_C 	C 	0.12772	0.92174	0.21465	0.214
Mof_H 	H 	0.156	0.9276	0.1852	-0.046
Mof_C 	C 	0.14532	0.9062	0.27161	-0.286
Mof_H 	H 	0.1854	0.9017	0.2803	0.124
Mof_C 	C 	0.10308	0.89745	0.3156	0.215
Mof_C 	C 	0.04323	0.90425	0.30263	-0.328
Mof_H 	H 	0.015	0.8984	0.3321	0.157
Mof_C 	C 	0.02563	0.91978	0.24566	0.304
Mof_H 	H 	0.9856	0.9243	0.237	-0.105
Mof_Zn	Zn	0.07225	0.95372	0.01253	1.108
Mof_O 	O 	0.08429	0.95311	0.10193	-0.641
Mof_O 	O 	0.99705	0.96587	0.13501	-0.758
Mof_C 	C 	0.85818	0.54725	0.55077	0.502
Mof_C 	C 	0.79833	0.56787	0.57147	-0.24
Mof_C 	C 	0.78535	0.62772	0.57826	0.151
Mof_H 	H 	0.8148	0.656	0.5724	-0.019
Mof_C 	C 	0.72839	0.64532	0.5938	-0.229
Mof_H 	H 	0.7197	0.6854	0.5983	0.108
Mof_C 	C 	0.6844	0.60308	0.60255	0.171
Mof_C 	C 	0.69737	0.54323	0.59575	-0.234
Mof_H 	H 	0.6679	0.515	0.6016	0.112
Mof_C 	C 	0.75434	0.52563	0.58022	0.152
Mof_H 	H 	0.763	0.4856	0.5757	-0.022
Mof_Zn	Zn	0.98747	0.57225	0.54628	1.089
Mof_O 	O 	0.89807	0.58429	0.54689	-0.617
Mof_O 	O 	0.86499	0.49705	0.53413	-0.687
Mof_C 	C 	0.35818	0.95275	0.44923	0.409
Mof_C 	C 	0.29833	0.93213	0.42853	-0.151
Mof_C 	C 	0.28535	0.87228	0.42174	0.081
Mof_H 	H 	0.3148	0.844	0.4276	0.006
Mof_C 	C 	0.22839	0.85468	0.4062	-0.172
Mof_H 	H 	0.2197	0.8146	0.4017	0.089
Mof_C 	C 	0.1844	0.89692	0.39745	0.119
Mof_C 	C 	0.19737	0.95677	0.40425	-0.14
Mof_H 	H 	0.1679	0.985	0.3984	0.064
Mof_C 	C 	0.25434	0.97437	0.41978	-0.009
Mof_H 	H 	0.263	0.0144	0.4243	0.062
Mof_Zn	Zn	0.48747	0.92775	0.45372	1.095
Mof_O 	O 	0.39807	0.91571	0.45311	-0.594
Mof_O 	O 	0.36499	0.00295	0.46587	-0.627
Mof_C 	C 	0.64182	0.45275	0.05077	0.495
Mof_C 	C 	0.70167	0.43213	0.07147	-0.226
Mof_C 	C 	0.71465	0.37228	0.07826	0.148
Mof_H 	H 	0.6852	0.344	0.0724	-0.009
Mof_C 	C 	0.77161	0.35468	0.0938	-0.22
Mof_H 	H 	0.7803	0.3146	0.0983	0.11
Mof_C 	C 	0.8156	0.39692	0.10255	0.17
Mof_C 	C 	0.80263	0.45677	0.09575	-0.223
Mof_H 	H 	0.8321	0.485	0.1016	0.111
Mof_C 	C 	0.74566	0.47437	0.08022	0.148
Mof_H 	H 	0.737	0.5144	0.0757	-0.015
Mof_Zn	Zn	0.51253	0.42775	0.04628	1.103
Mof_O 	O 	0.60193	0.41571	0.04689	-0.595
Mof_O 	O 	0.63501	0.50295	0.03413	-0.666
Mof_C 	C 	0.14182	0.04725	0.94923	0.588
Mof_C 	C 	0.20167	0.06787	0.92853	-0.329
Mof_C 	C 	0.21465	0.12772	0.92174	0.214
Mof_H 	H 	0.1852	0.156	0.9276	-0.046
Mof_C 	C 	0.27161	0.14532	0.9062	-0.286
Mof_H 	H 	0.2803	0.1854	0.9017	0.124
Mof_C 	C 	0.3156	0.10308	0.89745	0.215
Mof_C 	C 	0.30263	0.04323	0.90425	-0.328
Mof_H 	H 	0.3321	0.015	0.8984	0.157
Mof_C 	C 	0.24566	0.02563	0.91978	0.304
Mof_H 	H 	0.237	0.9856	0.9243	-0.105
Mof_Zn	Zn	0.01253	0.07225	0.95372	1.108
Mof_O 	O 	0.10193	0.08429	0.95311	-0.641
Mof_O 	O 	0.13501	0.99705	0.96587	-0.758
Mof_C 	C 	0.55077	0.85818	0.54725	0.502
Mof_C 	C 	0.57147	0.79833	0.56787	-0.24
Mof_C 	C 	0.57826	0.78535	0.62772	0.151
Mof_H 	H 	0.5724	0.8148	0.656	-0.019
Mof_C 	C 	0.5938	0.72839	0.64532	-0.229
Mof_H 	H 	0.5983	0.7197	0.6854	0.108
Mof_C 	C 	0.60255	0.6844	0.60308	0.171
Mof_C 	C 	0.59575	0.69737	0.54323	-0.234
Mof_H 	H 	0.6016	0.6679	0.515	0.112
Mof_C 	C 	0.58022	0.75434	0.52563	0.152
Mof_H 	H 	0.5757	0.763	0.4856	-0.022
Mof_Zn	Zn	0.54628	0.98747	0.57225	1.089
Mof_O 	O 	0.54689	0.89807	0.58429	-0.617
Mof_O 	O 	0.53413	0.86499	0.49705	-0.687
Mof_C 	C 	0.44923	0.35818	0.95275	0.409
Mof_C 	C 	0.42853	0.29833	0.93213	-0.151
Mof_C 	C 	0.42174	0.28535	0.87228	0.081
Mof_H 	H 	0.4276	0.3148	0.844	0.006
Mof_C 	C 	0.4062	0.22839	0.85468	-0.172
Mof_H 	H 	0.4017	0.2197	0.8146	0.089
Mof_C 	C 	0.39745	0.1844	0.89692	0.119
Mof_C 	C 	0.40425	0.19737	0.95677	-0.14
Mof_H 	H 	0.3984	0.1679	0.985	0.064
Mof_C 	C 	0.41978	0.25434	0.97437	-0.009
Mof_H 	H 	0.4243	0.263	0.0144	0.062
Mof_Zn	Zn	0.45372	0.48747	0.92775	1.095
Mof_O 	O 	0.45311	0.39807	0.91571	-0.594
Mof_O 	O 	0.46587	0.36499	0.00295	-0.627
Mof_C 	C 	0.05077	0.64182	0.45275	0.495
Mof_C 	C 	0.07147	0.70167	0.43213	-0.226
Mof_C 	C 	0.07826	0.71465	0.37228	0.148
Mof_H 	H 	0.0724	0.6852	0.344	-0.009
Mof_C 	C 	0.0938	0.77161	0.35468	-0.22
Mof_H 	H 	0.0983	0.7803	0.3146	0.11
Mof_C 	C 	0.10255	0.8156	0.39692	0.17
Mof_C 	C 	0.09575	0.80263	0.45677	-0.223
Mof_H 	H 	0.1016	0.8321	0.485	0.111
Mof_C 	C 	0.08022	0.74566	0.47437	0.148
Mof_H 	H 	0.0757	0.737	0.5144	-0.015
Mof_Zn	Zn	0.04628	0.51253	0.42775	1.103
Mof_O 	O 	0.04689	0.60193	0.41571	-0.595
Mof_O 	O 	0.03413	0.63501	0.50295	-0.666
Mof_C 	C 	0.94923	0.14182	0.04725	0.588
Mof_C 	C 	0.92853	0.20167	0.06787	-0.329
Mof_C 	C 	0.92174	0.21465	0.12772	0.214
Mof_H 	H 	0.9276	0.1852	0.156	-0.046
Mof_C 	C 	0.9062	0.27161	0.14532	-0.286
Mof_H 	H 	0.9017	0.2803	0.1854	0.124
Mof_C 	C 	0.89745	0.3156	0.10308	0.215
Mof_C 	C 	0.90425	0.30263	0.04323	-0.328
Mof_H 	H 	0.8984	0.3321	0.015	0.157
Mof_C 	C 	0.91978	0.24566	0.02563	0.304
Mof_H 	H 	0.9243	0.237	0.9856	-0.105
Mof_Zn	Zn	0.95372	0.01253	0.07225	1.108
Mof_O 	O 	0.95311	0.10193	0.08429	-0.641
Mof_O 	O 	0.96587	0.13501	0.99705	-0.758
Mof_C 	C 	0.3837	0.3837	0.3837	-0.213
Mof_H 	H 	0.4088	0.4088	0.4088	0.061
Mof_C 	C 	0.1163	0.6163	0.8837	-0.213
Mof_H 	H 	0.0912	0.5912	0.9088	0.06
Mof_C 	C 	0.6163	0.8837	0.1163	-0.213
Mof_H 	H 	0.5912	0.9088	0.0912	0.06
Mof_C 	C 	0.8837	0.1163	0.6163	-0.213
Mof_H 	H 	0.9088	0.0912	0.5912	0.06
Mof_C 	C 	0.6163	0.6163	0.6163	-0.215
Mof_H 	H 	0.5912	0.5912	0.5912	0.062
Mof_C 	C 	0.8837	0.3837	0.1163	-0.212
Mof_H 	H 	0.9088	0.4088	0.0912	0.059
Mof_C 	C 	0.3837	0.1163	0.8837	-0.212
Mof_H 	H 	0.4088	0.0912	0.9088	0.059
Mof_C 	C 	0.1163	0.8837	0.3837	-0.212
Mof_H 	H 	0.0912	0.9088	0.4088	0.059
Mof_O 	O 	0.5	0.5	-0	-1.242
Mof_O 	O 	1.8747e-33	0.5	0.5	-1.242
Mof_O 	O 	0.5	0	0.5	-1.242
Mof_O 	O 	-0	0	-0	-1.187
Mof_C 	C 	0.95275	0.94923	0.64182	0.418
Mof_C 	C 	0.93213	0.92853	0.70167	-0.161
Mof_C 	C 	0.87228	0.92174	0.71465	0.076
Mof_H 	H 	0.844	0.9276	0.6852	0.001
Mof_C 	C 	0.85468	0.9062	0.77161	-0.166
Mof_H 	H 	0.8146	0.9017	0.7803	0.084
Mof_C 	C 	0.89692	0.89745	0.8156	0.101
Mof_C 	C 	0.95677	0.90425	0.80263	-0.139
Mof_H 	H 	0.985	0.8984	0.8321	0.058
Mof_C 	C 	0.97437	0.91978	0.74566	-0.005
Mof_H 	H 	0.0144	0.9243	0.737	0.051
Mof_Zn	Zn	0.92775	0.95372	0.51253	1.09
Mof_O 	O 	0.91571	0.95311	0.60193	-0.611
Mof_O 	O 	0.00295	0.96587	0.63501	-0.65
Mof_C 	C 	0.54725	0.05077	0.14182	0.495
Mof_C 	C 	0.56787	0.07147	0.20167	-0.227
Mof_C 	C 	0.62772	0.07826	0.21465	0.151
Mof_H 	H 	0.656	0.0724	0.1852	-0.009
Mof_C 	C 	0.64532	0.0938	0.27161	-0.226
Mof_H 	H 	0.6854	0.0983	0.2803	0.112
Mof_C 	C 	0.60308	0.10255	0.3156	0.178
Mof_C 	C 	0.54323	0.09575	0.30263	-0.229
Mof_H 	H 	0.515	0.1016	0.3321	0.115
Mof_C 	C 	0.52563	0.08022	0.24566	0.152
Mof_H 	H 	0.4856	0.0757	0.237	-0.015
Mof_Zn	Zn	0.57225	0.04628	0.01253	1.113
Mof_O 	O 	0.58429	0.04689	0.10193	-0.591
Mof_O 	O 	0.49705	0.03413	0.13501	-0.665
Mof_C 	C 	0.04725	0.44923	0.85818	0.59
Mof_C 	C 	0.06787	0.42853	0.79833	-0.326
Mof_C 	C 	0.12772	0.42174	0.78535	0.22
Mof_H 	H 	0.156	0.4276	0.8148	-0.043
Mof_C 	C 	0.14532	0.4062	0.72839	-0.288
Mof_H 	H 	0.1854	0.4017	0.7197	0.129
Mof_C 	C 	0.10308	0.39745	0.6844	0.227
Mof_C 	C 	0.04323	0.40425	0.69737	-0.329
Mof_H 	H 	0.015	0.3984	0.6679	0.162
Mof_C 	C 	0.02563	0.41978	0.75434	0.31
Mof_H 	H 	0.9856	0.4243	0.763	-0.102
Mof_Zn	Zn	0.07225	0.45372	0.98747	1.091
Mof_O 	O 	0.08429	0.45311	0.89807	-0.635
Mof_O 	O 	0.99705	0.46587	0.86499	-0.743
Mof_C 	C 	0.45275	0.55077	0.35818	0.501
Mof_C 	C 	0.43213	0.57147	0.29833	-0.241
Mof_C 	C 	0.37228	0.57826	0.28535	0.154
Mof_H 	H 	0.344	0.5724	0.3148	-0.018
Mof_C 	C 	0.35468	0.5938	0.22839	-0.234
Mof_H 	H 	0.3146	0.5983	0.2197	0.11
Mof_C 	C 	0.39692	0.60255	0.1844	0.178
Mof_C 	C 	0.45677	0.59575	0.19737	-0.239
Mof_H 	H 	0.485	0.6016	0.1679	0.116
Mof_C 	C 	0.47437	0.58022	0.25434	0.156
Mof_H 	H 	0.5144	0.5757	0.263	-0.022
Mof_Zn	Zn	0.42775	0.54628	0.48747	1.102
Mof_O 	O 	0.41571	0.54689	0.39807	-0.611
Mof_O 	O 	0.50295	0.53413	0.36499	-0.684
Mof_C 	C 	0.64182	0.95275	0.94923	0.418
Mof_C 	C 	0.70167	0.93213	0.92853	-0.161
Mof_C 	C 	0.71465	0.87228	0.92174	0.076
Mof_H 	H 	0.6852	0.844	0.9276	0.001
Mof_C 	C 	0.77161	0.85468	0.9062	-0.166
Mof_H 	H 	0.7803	0.8146	0.9017	0.084
Mof_C 	C 	0.8156	0.89692	0.89745	0.101
Mof_C 	C 	0.80263	0.95677	0.90425	-0.139
Mof_H 	H 	0.8321	0.985	0.8984	0.058
Mof_C 	C 	0.74566	0.97437	0.91978	-0.005
Mof_H 	H 	0.737	0.0144	0.9243	0.051
Mof_Zn	Zn	0.51253	0.92775	0.95372	1.09
Mof_O 	O 	0.60193	0.91571	0.95311	-0.611
Mof_O 	O 	0.63501	0.00295	0.96587	-0.65
Mof_C 	C 	0.14182	0.54725	0.05077	0.495
Mof_C 	C 	0.20167	0.56787	0.07147	-0.227
Mof_C 	C 	0.21465	0.62772	0.07826	0.151
Mof_H 	H 	0.1852	0.656	0.0724	-0.009
Mof_C 	C 	0.27161	0.64532	0.0938	-0.226
Mof_H 	H 	0.2803	0.6854	0.0983	0.112
Mof_C 	C 	0.3156	0.60308	0.10255	0.178
Mof_C 	C 	0.30263	0.54323	0.09575	-0.229
Mof_H 	H 	0.3321	0.515	0.1016	0.115
Mof_C 	C 	0.24566	0.52563	0.08022	0.152
Mof_H 	H 	0.237	0.4856	0.0757	-0.015
Mof_Zn	Zn	0.01253	0.57225	0.04628	1.113
Mof_O 	O 	0.10193	0.58429	0.04689	-0.591
Mof_O 	O 	0.13501	0.49705	0.03413	-0.665
Mof_C 	C 	0.85818	0.04725	0.44923	0.59
Mof_C 	C 	0.79833	0.06787	0.42853	-0.326
Mof_C 	C 	0.78535	0.12772	0.42174	0.22
Mof_H 	H 	0.8148	0.156	0.4276	-0.043
Mof_C 	C 	0.72839	0.14532	0.4062	-0.288
Mof_H 	H 	0.7197	0.1854	0.4017	0.129
Mof_C 	C 	0.6844	0.10308	0.39745	0.227
Mof_C 	C 	0.69737	0.04323	0.40425	-0.329
Mof_H 	H 	0.6679	0.015	0.3984	0.162
Mof_C 	C 	0.75434	0.02563	0.41978	0.31
Mof_H 	H 	0.763	0.9856	0.4243	-0.102
Mof_Zn	Zn	0.98747	0.07225	0.45372	1.091
Mof_O 	O 	0.89807	0.08429	0.45311	-0.635
Mof_O 	O 	0.86499	0.99705	0.46587	-0.743
Mof_C 	C 	0.35818	0.45275	0.55077	0.501
Mof_C 	C 	0.29833	0.43213	0.57147	-0.241
Mof_C 	C 	0.28535	0.37228	0.57826	0.154
Mof_H 	H 	0.3148	0.344	0.5724	-0.018
Mof_C 	C 	0.22839	0.35468	0.5938	-0.234
Mof_H 	H 	0.2197	0.3146	0.5983	0.11
Mof_C 	C 	0.1844	0.39692	0.60255	0.178
Mof_C 	C 	0.19737	0.45677	0.59575	-0.239
Mof_H 	H 	0.1679	0.485	0.6016	0.116
Mof_C 	C 	0.25434	0.47437	0.58022	0.156
Mof_H 	H 	0.263	0.5144	0.5757	-0.022
Mof_Zn	Zn	0.48747	0.42775	0.54628	1.102
Mof_O 	O 	0.39807	0.41571	0.54689	-0.611
Mof_O 	O 	0.36499	0.50295	0.53413	-0.684
Mof_C 	C 	0.94923	0.64182	0.95275	0.418
Mof_C 	C 	0.92853	0.70167	0.93213	-0.161
Mof_C 	C 	0.92174	0.71465	0.87228	0.076
Mof_H 	H 	0.9276	0.6852	0.844	0.001
Mof_C 	C 	0.9062	0.77161	0.85468	-0.166
Mof_H 	H 	0.9017	0.7803	0.8146	0.084
Mof_C 	C 	0.89745	0.8156	0.89692	0.101
Mof_C 	C 	0.90425	0.80263	0.95677	-0.139
Mof_H 	H 	0.8984	0.8321	0.985	0.058
Mof_C 	C 	0.91978	0.74566	0.97437	-0.005
Mof_H 	H 	0.9243	0.737	0.0144	0.051
Mof_Zn	Zn	0.95372	0.51253	0.92775	1.09
Mof_O 	O 	0.95311	0.60193	0.91571	-0.611
Mof_O 	O 	0.96587	0.63501	0.00295	-0.65
Mof_C 	C 	0.05077	0.14182	0.54725	0.495
Mof_C 	C 	0.07147	0.20167	0.56787	-0.227
Mof_C 	C 	0.07826	0.21465	0.62772	0.151
Mof_H 	H 	0.0724	0.1852	0.656	-0.009
Mof_C 	C 	0.0938	0.27161	0.64532	-0.226
Mof_H 	H 	0.0983	0.2803	0.6854	0.112
Mof_C 	C 	0.10255	0.3156	0.60308	0.178
Mof_C 	C 	0.09575	0.30263	0.54323	-0.229
Mof_H 	H 	0.1016	0.3321	0.515	0.115
Mof_C 	C 	0.08022	0.24566	0.52563	0.152
Mof_H 	H 	0.0757	0.237	0.4856	-0.015
Mof_Zn	Zn	0.04628	0.01253	0.57225	1.113
Mof_O 	O 	0.04689	0.10193	0.58429	-0.591
Mof_O 	O 	0.03413	0.13501	0.49705	-0.665
Mof_C 	C 	0.44923	0.85818	0.04725	0.59
Mof_C 	C 	0.42853	0.79833	0.06787	-0.326
Mof_C 	C 	0.42174	0.78535	0.12772	0.22
Mof_H 	H 	0.4276	0.8148	0.156	-0.043
Mof_C 	C 	0.4062	0.72839	0.14532	-0.288
Mof_H 	H 	0.4017	0.7197	0.1854	0.129
Mof_C 	C 	0.39745	0.6844	0.10308	0.227
Mof_C 	C 	0.40425	0.69737	0.04323	-0.329
Mof_H 	H 	0.3984	0.6679	0.015	0.162
Mof_C 	C 	0.41978	0.75434	0.02563	0.31
Mof_H 	H 	0.4243	0.763	0.9856	-0.102
Mof_Zn	Zn	0.45372	0.98747	0.07225	1.091
Mof_O 	O 	0.45311	0.89807	0.08429	-0.635
Mof_O 	O 	0.46587	0.86499	0.99705	-0.743
Mof_C 	C 	0.55077	0.35818	0.45275	0.501
Mof_C 	C 	0.57147	0.29833	0.43213	-0.241
Mof_C 	C 	0.57826	0.28535	0.37228	0.154
Mof_H 	H 	0.5724	0.3148	0.344	-0.018
Mof_C 	C 	0.5938	0.22839	0.35468	-0.234
Mof_H 	H 	0.5983	0.2197	0.3146	0.11
Mof_C 	C 	0.60255	0.1844	0.39692	0.178
Mof_C 	C 	0.59575	0.19737	0.45677	-0.239
Mof_H 	H 	0.6016	0.1679	0.485	0.116
Mof_C 	C 	0.58022	0.25434	0.47437	0.156
Mof_H 	H 	0.5757	0.263	0.5144	-0.022
Mof_Zn	Zn	0.54628	0.48747	0.42775	1.102
Mof_O 	O 	0.54689	0.39807	0.41571	-0.611
Mof_O 	O 	0.53413	0.36499	0.50295	-0.684
Mof_C 	C 	0.04725	0.05077	0.35818	0.592
Mof_C 	C 	0.06787	0.07147	0.29833	-0.324
Mof_C 	C 	0.12772	0.07826	0.28535	0.231
Mof_H 	H 	0.156	0.0724	0.3148	-0.037
Mof_C 	C 	0.14532	0.0938	0.22839	-0.297
Mof_H 	H 	0.1854	0.0983	0.2197	0.136
Mof_C 	C 	0.10308	0.10255	0.1844	0.246
Mof_C 	C 	0.04323	0.09575	0.19737	-0.338
Mof_H 	H 	0.015	0.1016	0.1679	0.172
Mof_C 	C 	0.02563	0.08022	0.25434	0.326
Mof_H 	H 	0.9856	0.0757	0.263	-0.103
Mof_Zn	Zn	0.07225	0.04628	0.48747	1.106
Mof_O 	O 	0.08429	0.04689	0.39807	-0.615
Mof_O 	O 	0.99705	0.03413	0.36499	-0.727
Mof_C 	C 	0.45275	0.94923	0.85818	0.505
Mof_C 	C 	0.43213	0.92853	0.79833	-0.248
Mof_C 	C 	0.37228	0.92174	0.78535	0.148
Mof_H 	H 	0.344	0.9276	0.8148	-0.025
Mof_C 	C 	0.35468	0.9062	0.72839	-0.229
Mof_H 	H 	0.3146	0.9017	0.7197	0.105
Mof_C 	C 	0.39692	0.89745	0.6844	0.161
Mof_C 	C 	0.45677	0.90425	0.69737	-0.236
Mof_H 	H 	0.485	0.8984	0.6679	0.109
Mof_C 	C 	0.47437	0.91978	0.75434	0.15
Mof_H 	H 	0.5144	0.9243	0.763	-0.027
Mof_Zn	Zn	0.42775	0.95372	0.98747	1.084
Mof_O 	O 	0.41571	0.95311	0.89807	-0.633
Mof_O 	O 	0.50295	0.96587	0.86499	-0.706
Mof_C 	C 	0.95275	0.55077	0.14182	0.406
Mof_C 	C 	0.93213	0.57147	0.20167	-0.147
Mof_C 	C 	0.87228	0.57826	0.21465	0.076
Mof_H 	H 	0.844	0.5724	0.1852	0.009
Mof_C 	C 	0.85468	0.5938	0.27161	-0.166
Mof_H 	H 	0.8146	0.5983	0.2803	0.087
Mof_C 	C 	0.89692	0.60255	0.3156	0.111
Mof_C 	C 	0.95677	0.59575	0.30263	-0.134
Mof_H 	H 	0.985	0.6016	0.3321	0.06
Mof_C 	C 	0.97437	0.58022	0.24566	-0.013
Mof_H 	H 	0.0144	0.5757	0.237	0.063
Mof_Zn	Zn	0.92775	0.54628	0.01253	1.104
Mof_O 	O 	0.91571	0.54689	0.10193	-0.59
Mof_O 	O 	0.00295	0.53413	0.13501	-0.625
Mof_C 	C 	0.54725	0.44923	0.64182	0.498
Mof_C 	C 	0.56787	0.42853	0.70167	-0.234
Mof_C 	C 	0.62772	0.42174	0.71465	0.145
Mof_H 	H 	0.656	0.4276	0.6852	-0.016
Mof_C 	C 	0.64532	0.4062	0.77161	-0.221
Mof_H 	H 	0.6854	0.4017	0.7803	0.106
Mof_C 	C 	0.60308	0.39745	0.8156	0.162
Mof_C 	C 	0.54323	0.40425	0.80263	-0.226
Mof_H 	H 	0.515	0.3984	0.8321	0.108
Mof_C 	C 	0.52563	0.41978	0.74566	0.146
Mof_H 	H 	0.4856	0.4243	0.737	-0.02
Mof_Zn	Zn	0.57225	0.45372	0.51253	1.102
Mof_O 	O 	0.58429	0.45311	0.60193	-0.61
Mof_O 	O 	0.49705	0.46587	0.63501	-0.684
Mof_C 	C 	0.35818	0.04725	0.05077	0.592
Mof_C 	C 	0.29833	0.06787	0.07147	-0.324
Mof_C 	C 	0.28535	0.12772	0.07826	0.231
Mof_H 	H 	0.3148	0.156	0.0724	-0.037
Mof_C 	C 	0.22839	0.14532	0.0938	-0.297
Mof_H 	H 	0.2197	0.1854	0.0983	0.136
Mof_C 	C 	0.1844	0.10308	0.10255	0.246
Mof_C 	C 	0.19737	0.04323	0.09575	-0.338
Mof_H 	H 	0.1679	0.015	0.1016	0.172
Mof_C 	C 	0.25434	0.02563	0.08022	0.326
Mof_H 	H 	0.263	0.9856	0.0757	-0.103
Mof_Zn	Zn	0.48747	0.07225	0.04628	1.106
Mof_O 	O 	0.39807	0.08429	0.04689	-0.615
Mof_O 	O 	0.36499	0.99705	0.03413	-0.727
Mof_C 	C 	0.85818	0.45275	0.94923	0.505
Mof_C 	C 	0.79833	0.43213	0.92853	-0.248
Mof_C 	C 	0.78535	0.37228	0.92174	0.148
Mof_H 	H 	0.8148	0.344	0.9276	-0.025
Mof_C 	C 	0.72839	0.35468	0.9062	-0.229
Mof_H 	H 	0.7197	0.3146	0.9017	0.105
Mof_C 	C 	0.6844	0.39692	0.89745	0.161
Mof_C 	C 	0.69737	0.45677	0.90425	-0.236
Mof_H 	H 	0.6679	0.485	0.8984	0.109
Mof_C 	C 	0.75434	0.47437	0.91978	0.15
Mof_H 	H 	0.763	0.5144	0.9243	-0.027
Mof_Zn	Zn	0.98747	0.42775	0.95372	1.084
Mof_O 	O 	0.89807	0.41571	0.95311	-0.633
Mof_O 	O 	0.86499	0.50295	0.96587	-0.706
Mof_C 	C 	0.14182	0.95275	0.55077	0.406
Mof_C 	C 	0.20167	0.93213	0.57147	-0.147
Mof_C 	C 	0.21465	0.87228	0.57826	0.076
Mof_H 	H 	0.1852	0.844	0.5724	0.009
Mof_C 	C 	0.27161	0.85468	0.5938	-0.166
Mof_H 	H 	0.2803	0.8146	0.5983	0.087
Mof_C 	C 	0.3156	0.89692	0.60255	0.111
Mof_C 	C 	0.30263	0.95677	0.59575	-0.134
Mof_H 	H 	0.3321	0.985	0.6016	0.06
Mof_C 	C 	0.24566	0.97437	0.58022	-0.013
Mof_H 	H 	0.237	0.0144	0.5757	0.063
Mof_Zn	Zn	0.01253	0.92775	0.54628	1.104
Mof_O 	O 	0.10193	0.91571	0.54689	-0.59
Mof_O 	O 	0.13501	0.00295	0.53413	-0.625
Mof_C 	C 	0.64182	0.54725	0.44923	0.498
Mof_C 	C 	0.70167	0.56787	0.42853	-0.234
Mof_C 	C 	0.71465	0.62772	0.42174	0.145
Mof_H 	H 	0.6852	0.656	0.4276	-0.016
Mof_C 	C 	0.77161	0.64532	0.4062	-0.221
Mof_H 	H 	0.7803	0.6854	0.4017	0.106
Mof_C 	C 	0.8156	0.60308	0.39745	0.162
Mof_C 	C 	0.80263	0.54323	0.40425	-0.226
Mof_H 	H 	0.8321	0.515	0.3984	0.108
Mof_C 	C 	0.74566	0.52563	0.41978	0.146
Mof_H 	H 	0.737	0.4856	0.4243	-0.02
Mof_Zn	Zn	0.51253	0.57225	0.45372	1.102
Mof_O 	O 	0.60193	0.58429	0.45311	-0.61
Mof_O 	O 	0.63501	0.49705	0.46587	-0.684
Mof_C 	C 	0.05077	0.35818	0.04725	0.592
Mof_C 	C 	0.07147	0.29833	0.06787	-0.324
Mof_C 	C 	0.07826	0.28535	0.12772	0.231
Mof_H 	H 	0.0724	0.3148	0.156	-0.037
Mof_C 	C 	0.0938	0.22839	0.14532	-0.297
Mof_H 	H 	0.0983	0.2197	0.1854	0.136
Mof_C 	C 	0.10255	0.1844	0.10308	0.246
Mof_C 	C 	0.09575	0.19737	0.04323	-0.338
Mof_H 	H 	0.1016	0.1679	0.015	0.172
Mof_C 	C 	0.08022	0.25434	0.02563	0.326
Mof_H 	H 	0.0757	0.263	0.9856	-0.103
Mof_Zn	Zn	0.04628	0.48747	0.07225	1.106
Mof_O 	O 	0.04689	0.39807	0.08429	-0.615
Mof_O 	O 	0.03413	0.36499	0.99705	-0.727
Mof_C 	C 	0.94923	0.85818	0.45275	0.505
Mof_C 	C 	0.92853	0.79833	0.43213	-0.248
Mof_C 	C 	0.92174	0.78535	0.37228	0.148
Mof_H 	H 	0.9276	0.8148	0.344	-0.025
Mof_C 	C 	0.9062	0.72839	0.35468	-0.229
Mof_H 	H 	0.9017	0.7197	0.3146	0.105
Mof_C 	C 	0.89745	0.6844	0.39692	0.161
Mof_C 	C 	0.90425	0.69737	0.45677	-0.236
Mof_H 	H 	0.8984	0.6679	0.485	0.109
Mof_C 	C 	0.91978	0.75434	0.47437	0.15
Mof_H 	H 	0.9243	0.763	0.5144	-0.027
Mof_Zn	Zn	0.95372	0.98747	0.42775	1.084
Mof_O 	O 	0.95311	0.89807	0.41571	-0.633
Mof_O 	O 	0.96587	0.86499	0.50295	-0.706
Mof_C 	C 	0.55077	0.14182	0.95275	0.406
Mof_C 	C 	0.57147	0.20167	0.93213	-0.147
Mof_C 	C 	0.57826	0.21465	0.87228	0.076
Mof_H 	H 	0.5724	0.1852	0.844	0.009
Mof_C 	C 	0.5938	0.27161	0.85468	-0.166
Mof_H 	H 	0.5983	0.2803	0.8146	0.087
Mof_C 	C 	0.60255	0.3156	0.89692	0.111
Mof_C 	C 	0.59575	0.30263	0.95677	-0.134
Mof_H 	H 	0.6016	0.3321	0.985	0.06
Mof_C 	C 	0.58022	0.24566	0.97437	-0.013
Mof_H 	H 	0.5757	0.237	0.0144	0.063
Mof_Zn	Zn	0.54628	0.01253	0.92775	1.104
Mof_O 	O 	0.54689	0.10193	0.91571	-0.59
Mof_O 	O 	0.53413	0.13501	0.00295	-0.625
Mof_C 	C 	0.44923	0.64182	0.54725	0.498
Mof_C 	C 	0.42853	0.70167	0.56787	-0.234
Mof_C 	C 	0.42174	0.71465	0.62772	0.145
Mof_H 	H 	0.4276	0.6852	0.656	-0.016
Mof_C 	C 	0.4062	0.77161	0.64532	-0.221
Mof_H 	H 	0.4017	0.7803	0.6854	0.106
Mof_C 	C 	0.39745	0.8156	0.60308	0.162
Mof_C 	C 	0.40425	0.80263	0.54323	-0.226
Mof_H 	H 	0.3984	0.8321	0.515	0.108
Mof_C 	C 	0.41978	0.74566	0.52563	0.146
Mof_H 	H 	0.4243	0.737	0.4856	-0.02
Mof_Zn	Zn	0.45372	0.51253	0.57225	1.102
Mof_O 	O 	0.45311	0.60193	0.58429	-0.61
Mof_O 	O 	0.46587	0.63501	0.49705	-0.684
Mof_C 	C 	0.8837	0.8837	0.8837	-0.151
Mof_H 	H 	0.9088	0.9088	0.9088	0.026
Mof_C 	C 	0.6163	0.1163	0.3837	-0.235
Mof_H 	H 	0.5912	0.0912	0.4088	0.073
Mof_C 	C 	0.1163	0.3837	0.6163	-0.235
Mof_H 	H 	0.0912	0.4088	0.5912	0.073
Mof_C 	C 	0.3837	0.6163	0.1163	-0.235
Mof_H 	H 	0.4088	0.5912	0.0912	0.073
Mof_C 	C 	0.1163	0.1163	0.1163	-0.282
Mof_H 	H 	0.0912	0.0912	0.0912	0.097
Mof_C 	C 	0.3837	0.8837	0.6163	-0.191
Mof_H 	H 	0.4088	0.9088	0.5912	0.049
Mof_C 	C 	0.8837	0.6163	0.3837	-0.191
Mof_H 	H 	0.9088	0.5912	0.4088	0.049
Mof_C 	C 	0.6163	0.3837	0.8837	-0.191
Mof_H 	H 	0.5912	0.4088	0.9088	0.049
Mof_O 	O 	1.8747e-33	0	0.5	-1.215
Mof_O 	O 	0.5	0	-0	-1.215
Mof_O 	O 	-0	0.5	-0	-1.215
Mof_O 	O 	0.5	0.5	0.5	-1.269
_end
