data_functionalizedCrystal
_audit_creation_method	'EQeq! by Chris Wilmer'
_symmetry_space_group_name_H-M	'P1'
_symmetry_Int_Tables_number	1
_symmetry_cell_setting	triclinic
loop_
_symmetry_equiv_pos_as_xyz
  x,y,z
_cell_length_a	12.13
_cell_length_b	12.7016
_cell_length_c	21.819
_cell_angle_alpha	82.7499
_cell_angle_beta	74.675
_cell_angle_gamma	61.4777
loop_
_atom_site_label
_atom_site_type_symbol
_atom_site_fract_x
_atom_site_fract_y
_atom_site_fract_z
_atom_site_charge
Mof_Tb	Tb	0.76826	0.7391	0.47444	1.973
Mof_Tb	Tb	0.49264	0.7391	0.02556	1.973
Mof_Tb	Tb	0.23174	0.2609	0.52556	1.973
Mof_Tb	Tb	0.50736	0.2609	0.97444	1.973
Mof_Tb	Tb	0.7875	0.425	0.25	1.612
Mof_Tb	Tb	0.2125	0.575	0.75	1.612
Mof_Tb	Tb	0.24702	0.50596	0.25	2.149
Mof_Tb	Tb	0.75298	0.49404	0.75	2.149
Mof_H 	H 	0.0277	0.8704	0.4145	0.042
Mof_H 	H 	0.4175	0.702	0.3838	0.052
Mof_H 	H 	0.0636	0.04	0.4071	0.055
Mof_H 	H 	0.3713	0.8072	0.4759	0.06
Mof_H 	H 	0.5332	0.876	0.1627	0.049
Mof_H 	H 	0.4171	0.0582	0.3455	0.06
Mof_H 	H 	0.1019	0.8704	0.0855	0.042
Mof_H 	H 	0.8805	0.702	0.1162	0.052
Mof_H 	H 	0.8964	0.04	0.0929	0.055
Mof_H 	H 	0.8215	0.8072	0.0241	0.06
Mof_H 	H 	0.5908	0.876	0.3373	0.049
Mof_H 	H 	0.5247	0.0582	0.1545	0.06
Mof_H 	H 	0.9723	0.1296	0.5855	0.042
Mof_H 	H 	0.5825	0.298	0.6162	0.052
Mof_H 	H 	0.9364	0.96	0.5929	0.055
Mof_H 	H 	0.6287	0.1928	0.5241	0.06
Mof_H 	H 	0.4668	0.124	0.8373	0.049
Mof_H 	H 	0.5829	0.9418	0.6545	0.06
Mof_H 	H 	0.8981	0.1296	0.9145	0.042
Mof_H 	H 	0.1195	0.298	0.8838	0.052
Mof_H 	H 	0.1036	0.96	0.9071	0.055
Mof_H 	H 	0.1785	0.1928	0.9759	0.06
Mof_H 	H 	0.4092	0.124	0.6627	0.049
Mof_H 	H 	0.4753	0.9418	0.8455	0.06
Mof_C 	C 	0.6465	0.633	0.1494	0.436
Mof_C 	C 	0.2814	0.3002	0.3609	0.412
Mof_C 	C 	0.0034	0.7184	0.347	0.403
Mof_C 	C 	0.1205	0.7206	0.3608	-0.049
Mof_C 	C 	0.1101	0.8084	0.3954	-0.033
Mof_C 	C 	0.223	0.806	0.4024	0
Mof_C 	C 	0.3393	0.71	0.3773	-0.042
Mof_C 	C 	0.3406	0.6248	0.3423	-0.033
Mof_C 	C 	0.4648	0.5178	0.3065	0.411
Mof_C 	C 	0.0337	0.2446	0.4556	0.34
Mof_C 	C 	0.1278	0.1104	0.4592	-0.005
Mof_C 	C 	0.1264	0.0212	0.4308	-0.071
Mof_C 	C 	0.2177	0.9014	0.437	0.037
Mof_C 	C 	0.3045	0.8854	0.4718	-0.088
Mof_C 	C 	0.2968	0.9804	0.501	0.048
Mof_C 	C 	0.3724	0.9894	0.5472	0.232
Mof_C 	C 	0.6259	0.7146	0.2008	-0.047
Mof_C 	C 	0.5651	0.8358	0.1988	-0.027
Mof_C 	C 	0.3589	0.2186	0.3028	-0.034
Mof_C 	C 	0.4193	0.0976	0.3055	-0.05
Mof_C 	C 	0.7205	0.633	0.3506	0.436
Mof_C 	C 	0.4184	0.3002	0.1391	0.412
Mof_C 	C 	0.2782	0.7184	0.153	0.403
Mof_C 	C 	0.1589	0.7206	0.1392	-0.049
Mof_C 	C 	0.0815	0.8084	0.1046	-0.033
Mof_C 	C 	0.971	0.806	0.0976	0.001
Mof_C 	C 	0.9507	0.71	0.1227	-0.041
Mof_C 	C 	0.0346	0.6248	0.1577	-0.033
Mof_C 	C 	0.0174	0.5178	0.1935	0.411
Mof_C 	C 	0.7217	0.2446	0.0444	0.339
Mof_C 	C 	0.7618	0.1104	0.0408	-0.005
Mof_C 	C 	0.8524	0.0212	0.0692	-0.071
Mof_C 	C 	0.8809	0.9014	0.063	0.038
Mof_C 	C 	0.8101	0.8854	0.0282	-0.091
Mof_C 	C 	0.7228	0.9804	0.999	0.051
Mof_C 	C 	0.6382	0.9894	0.9528	0.233
Mof_C 	C 	0.6595	0.7146	0.2992	-0.047
Mof_C 	C 	0.5991	0.8358	0.3012	-0.027
Mof_C 	C 	0.4225	0.2186	0.1972	-0.034
Mof_C 	C 	0.4831	0.0976	0.1945	-0.05
Mof_C 	C 	0.3535	0.367	0.8506	0.436
Mof_C 	C 	0.7186	0.6998	0.6391	0.412
Mof_C 	C 	0.9966	0.2816	0.653	0.403
Mof_C 	C 	0.8795	0.2794	0.6392	-0.049
Mof_C 	C 	0.8899	0.1916	0.6046	-0.033
Mof_C 	C 	0.777	0.194	0.5976	0
Mof_C 	C 	0.6607	0.29	0.6227	-0.042
Mof_C 	C 	0.6594	0.3752	0.6577	-0.033
Mof_C 	C 	0.5352	0.4822	0.6935	0.411
Mof_C 	C 	0.9663	0.7554	0.5444	0.34
Mof_C 	C 	0.8722	0.8896	0.5408	-0.005
Mof_C 	C 	0.8736	0.9788	0.5692	-0.071
Mof_C 	C 	0.7823	0.0986	0.563	0.037
Mof_C 	C 	0.6955	0.1146	0.5282	-0.088
Mof_C 	C 	0.7032	0.0196	0.499	0.048
Mof_C 	C 	0.6276	0.0106	0.4528	0.232
Mof_C 	C 	0.3741	0.2854	0.7992	-0.047
Mof_C 	C 	0.4349	0.1642	0.8012	-0.027
Mof_C 	C 	0.6411	0.7814	0.6972	-0.034
Mof_C 	C 	0.5807	0.9024	0.6945	-0.05
Mof_C 	C 	0.2795	0.367	0.6494	0.436
Mof_C 	C 	0.5816	0.6998	0.8609	0.412
Mof_C 	C 	0.7218	0.2816	0.847	0.403
Mof_C 	C 	0.8411	0.2794	0.8608	-0.049
Mof_C 	C 	0.9185	0.1916	0.8954	-0.033
Mof_C 	C 	0.029	0.194	0.9024	0.001
Mof_C 	C 	0.0493	0.29	0.8773	-0.041
Mof_C 	C 	0.9654	0.3752	0.8423	-0.033
Mof_C 	C 	0.9826	0.4822	0.8065	0.411
Mof_C 	C 	0.2783	0.7554	0.9556	0.339
Mof_C 	C 	0.2382	0.8896	0.9592	-0.005
Mof_C 	C 	0.1476	0.9788	0.9308	-0.071
Mof_C 	C 	0.1191	0.0986	0.937	0.038
Mof_C 	C 	0.1899	0.1146	0.9718	-0.091
Mof_C 	C 	0.2772	0.0196	0.001	0.051
Mof_C 	C 	0.3618	0.0106	0.0472	0.233
Mof_C 	C 	0.3405	0.2854	0.7008	-0.047
Mof_C 	C 	0.4009	0.1642	0.6988	-0.027
Mof_C 	C 	0.5775	0.7814	0.8028	-0.034
Mof_C 	C 	0.5169	0.9024	0.8055	-0.05
Mof_C 	C 	0.5491	0.9018	0.25	0
Mof_C 	C 	0.4846	0.0308	0.25	0.021
Mof_C 	C 	0.4509	0.0982	0.75	0
Mof_C 	C 	0.5154	0.9692	0.75	0.021
Mof_N 	N 	0.2343	0.6326	0.3314	-0.21
Mof_N 	N 	0.2105	0.0898	0.4939	-0.211
Mof_N 	N 	0.1331	0.6326	0.1686	-0.21
Mof_N 	N 	0.6997	0.0898	0.0061	-0.211
Mof_N 	N 	0.7657	0.3674	0.6686	-0.21
Mof_N 	N 	0.7895	0.9102	0.5061	-0.211
Mof_N 	N 	0.8669	0.3674	0.8314	-0.21
Mof_N 	N 	0.3003	0.9102	0.9939	-0.211
Mof_N 	N 	0.6735	0.653	0.25	-0.161
Mof_N 	N 	0.3586	0.2828	0.25	-0.214
Mof_N 	N 	0.3265	0.347	0.75	-0.161
Mof_N 	N 	0.6414	0.7172	0.75	-0.214
Mof_O 	O 	0.032	0.6492	0.3016	-0.485
Mof_O 	O 	0.896	0.7782	0.3816	-0.499
Mof_O 	O 	0.4478	0.452	0.2761	-0.509
Mof_O 	O 	0.5683	0.5066	0.3126	-0.47
Mof_O 	O 	0.0382	0.3138	0.4898	-0.47
Mof_O 	O 	0.9535	0.275	0.4229	-0.292
Mof_O 	O 	0.3992	0.0824	0.5354	-0.445
Mof_O 	O 	0.3841	0.8918	0.585	-0.242
Mof_O 	O 	0.6937	0.526	0.1582	-0.469
Mof_O 	O 	0.6192	0.6898	0.0978	-0.524
Mof_O 	O 	0.2191	0.4104	0.3524	-0.507
Mof_O 	O 	0.2886	0.246	0.4134	-0.503
Mof_O 	O 	0.3188	0.6492	0.1984	-0.485
Mof_O 	O 	0.3258	0.7782	0.1184	-0.5
Mof_O 	O 	0.1002	0.452	0.2239	-0.509
Mof_O 	O 	0.9251	0.5066	0.1874	-0.469
Mof_O 	O 	0.648	0.3138	0.0102	-0.469
Mof_O 	O 	0.7715	0.275	0.0771	-0.291
Mof_O 	O 	0.5184	0.0824	0.9646	-0.446
Mof_O 	O 	0.7241	0.8918	0.915	-0.242
Mof_O 	O 	0.7803	0.526	0.3418	-0.469
Mof_O 	O 	0.691	0.6898	0.4022	-0.525
Mof_O 	O 	0.3705	0.4104	0.1476	-0.507
Mof_O 	O 	0.4654	0.246	0.0866	-0.503
Mof_O 	O 	0.968	0.3508	0.6984	-0.485
Mof_O 	O 	0.104	0.2218	0.6184	-0.499
Mof_O 	O 	0.5522	0.548	0.7239	-0.509
Mof_O 	O 	0.4317	0.4934	0.6874	-0.47
Mof_O 	O 	0.9618	0.6862	0.5102	-0.47
Mof_O 	O 	0.0465	0.725	0.5771	-0.292
Mof_O 	O 	0.6008	0.9176	0.4646	-0.445
Mof_O 	O 	0.6159	0.1082	0.415	-0.242
Mof_O 	O 	0.3063	0.474	0.8418	-0.469
Mof_O 	O 	0.3808	0.3102	0.9022	-0.524
Mof_O 	O 	0.7809	0.5896	0.6476	-0.507
Mof_O 	O 	0.7114	0.754	0.5866	-0.503
Mof_O 	O 	0.6812	0.3508	0.8016	-0.485
Mof_O 	O 	0.6742	0.2218	0.8816	-0.5
Mof_O 	O 	0.8998	0.548	0.7761	-0.509
Mof_O 	O 	0.0749	0.4934	0.8126	-0.469
Mof_O 	O 	0.352	0.6862	0.9898	-0.469
Mof_O 	O 	0.2285	0.725	0.9229	-0.291
Mof_O 	O 	0.4816	0.9176	0.0354	-0.446
Mof_O 	O 	0.2759	0.1082	0.085	-0.242
Mof_O 	O 	0.2197	0.474	0.6582	-0.469
Mof_O 	O 	0.309	0.3102	0.5978	-0.525
Mof_O 	O 	0.6295	0.5896	0.8524	-0.507
Mof_O 	O 	0.5346	0.754	0.9134	-0.503
_end
