data_functionalizedCrystal
_audit_creation_method	'EQeq! by Chris Wilmer'
_symmetry_space_group_name_H-M	'P1'
_symmetry_Int_Tables_number	1
_symmetry_cell_setting	triclinic
loop_
_symmetry_equiv_pos_as_xyz
  x,y,z
_cell_length_a	13.798
_cell_length_b	27.249
_cell_length_c	44.834
_cell_angle_alpha	90
_cell_angle_beta	90
_cell_angle_gamma	90
loop_
_atom_site_label
_atom_site_type_symbol
_atom_site_fract_x
_atom_site_fract_y
_atom_site_fract_z
_atom_site_charge
Mof_Zn	Zn	0.62021	0.0277	0.91302	1.165
Mof_Zn	Zn	0.64754	0.54374	0.91443	1.164
Mof_Zn	Zn	0.32052	0.75603	0.68039	1.166
Mof_Zn	Zn	0.37979	0.4723	0.41302	1.165
Mof_Zn	Zn	0.35246	0.95626	0.41443	1.164
Mof_Zn	Zn	0.67948	0.74397	0.18039	1.166
Mof_Zn	Zn	0.12021	0.9723	0.58698	1.165
Mof_Zn	Zn	0.14754	0.45626	0.58557	1.164
Mof_Zn	Zn	0.82052	0.24397	0.81961	1.166
Mof_Zn	Zn	0.87979	0.5277	0.08698	1.165
Mof_Zn	Zn	0.85246	0.04374	0.08557	1.164
Mof_Zn	Zn	0.17948	0.25603	0.31961	1.166
Mof_H 	H 	0.5937	0.9204	0.9282	-0.003
Mof_H 	H 	0.5875	0.8454	0.9033	0.079
Mof_H 	H 	0.531	0.9174	0.8272	0.084
Mof_H 	H 	0.5589	0.9895	0.8519	-0.008
Mof_H 	H 	0.5688	0.5779	0.8578	-0.021
Mof_H 	H 	0.5324	0.6486	0.8316	0.085
Mof_H 	H 	0.6033	0.7266	0.9065	0.08
Mof_H 	H 	0.6228	0.6497	0.9296	-0.019
Mof_H 	H 	0.3892	0.8387	0.7197	-0.001
Mof_H 	H 	0.4527	0.8505	0.7677	0.076
Mof_H 	H 	0.4906	0.703	0.7712	0.084
Mof_H 	H 	0.4348	0.6966	0.7243	-0.006
Mof_H 	H 	0.7974	0.0722	0.0233	-0.008
Mof_H 	H 	0.8697	0.1013	0.9791	0.082
Mof_H 	H 	0.1275	0.0539	0.012	0.089
Mof_H 	H 	0.0445	0.0288	0.057	-0.007
Mof_H 	H 	0.0264	0.2259	0.8357	-0.016
Mof_H 	H 	0.1188	0.1874	0.8733	0.076
Mof_H 	H 	0.8725	0.1542	0.9146	0.078
Mof_H 	H 	0.7869	0.1838	0.8746	-0.005
Mof_H 	H 	0.4818	0.0323	0.9649	0.002
Mof_H 	H 	0.3306	0.0645	0.9759	0.081
Mof_H 	H 	0.3137	0.1149	0.8906	0.089
Mof_H 	H 	0.4688	0.0881	0.8825	-0.002
Mof_H 	H 	0.4063	0.5796	0.4282	-0.004
Mof_H 	H 	0.4125	0.6546	0.4033	0.078
Mof_H 	H 	0.469	0.5826	0.3272	0.083
Mof_H 	H 	0.4411	0.5105	0.3519	-0.009
Mof_H 	H 	0.4312	0.9221	0.3578	-0.022
Mof_H 	H 	0.4676	0.8514	0.3316	0.084
Mof_H 	H 	0.3967	0.7734	0.4065	0.08
Mof_H 	H 	0.3772	0.8503	0.4296	-0.019
Mof_H 	H 	0.6108	0.6613	0.2197	-0.001
Mof_H 	H 	0.5473	0.6495	0.2677	0.076
Mof_H 	H 	0.5094	0.797	0.2712	0.084
Mof_H 	H 	0.5652	0.8034	0.2243	-0.006
Mof_H 	H 	0.2026	0.4278	0.5233	-0.008
Mof_H 	H 	0.1303	0.3987	0.4791	0.081
Mof_H 	H 	0.8725	0.4461	0.512	0.089
Mof_H 	H 	0.9555	0.4712	0.557	-0.007
Mof_H 	H 	0.9736	0.2741	0.3357	-0.018
Mof_H 	H 	0.8812	0.3126	0.3733	0.077
Mof_H 	H 	0.1275	0.3458	0.4146	0.077
Mof_H 	H 	0.2131	0.3162	0.3746	-0.005
Mof_H 	H 	0.5182	0.4677	0.4649	0.002
Mof_H 	H 	0.6694	0.4355	0.4759	0.081
Mof_H 	H 	0.6863	0.3851	0.3906	0.089
Mof_H 	H 	0.5312	0.4119	0.3825	-0.003
Mof_H 	H 	0.0937	0.0796	0.5718	-0.003
Mof_H 	H 	0.0875	0.1546	0.5967	0.078
Mof_H 	H 	0.031	0.0826	0.6728	0.083
Mof_H 	H 	0.0589	0.0105	0.6481	-0.008
Mof_H 	H 	0.0688	0.4221	0.6422	-0.022
Mof_H 	H 	0.0324	0.3514	0.6684	0.084
Mof_H 	H 	0.1033	0.2734	0.5935	0.08
Mof_H 	H 	0.1228	0.3503	0.5704	-0.019
Mof_H 	H 	0.8892	0.1613	0.7803	-0.001
Mof_H 	H 	0.9527	0.1495	0.7323	0.075
Mof_H 	H 	0.9906	0.297	0.7288	0.084
Mof_H 	H 	0.9348	0.3034	0.7757	-0.006
Mof_H 	H 	0.2974	0.9278	0.4767	-0.008
Mof_H 	H 	0.3697	0.8987	0.5209	0.081
Mof_H 	H 	0.6275	0.9461	0.488	0.089
Mof_H 	H 	0.5445	0.9712	0.443	-0.007
Mof_H 	H 	0.5264	0.7741	0.6643	-0.017
Mof_H 	H 	0.6188	0.8126	0.6267	0.077
Mof_H 	H 	0.3725	0.8458	0.5854	0.077
Mof_H 	H 	0.2869	0.8162	0.6254	-0.005
Mof_H 	H 	0.9818	0.9677	0.5351	0.002
Mof_H 	H 	0.8306	0.9355	0.5241	0.081
Mof_H 	H 	0.8137	0.8851	0.6094	0.089
Mof_H 	H 	0.9688	0.9119	0.6175	-0.002
Mof_H 	H 	0.9063	0.4204	0.0718	-0.004
Mof_H 	H 	0.9125	0.3454	0.0967	0.078
Mof_H 	H 	0.969	0.4174	0.1728	0.083
Mof_H 	H 	0.9411	0.4895	0.1481	-0.009
Mof_H 	H 	0.9312	0.0779	0.1422	-0.022
Mof_H 	H 	0.9676	0.1486	0.1684	0.084
Mof_H 	H 	0.8967	0.2266	0.0935	0.08
Mof_H 	H 	0.8772	0.1497	0.0704	-0.019
Mof_H 	H 	0.1108	0.3387	0.2803	-0.001
Mof_H 	H 	0.0473	0.3505	0.2323	0.076
Mof_H 	H 	0.0094	0.203	0.2288	0.084
Mof_H 	H 	0.0652	0.1966	0.2757	-0.006
Mof_H 	H 	0.7026	0.5722	0.9767	-0.008
Mof_H 	H 	0.6303	0.6013	0.0209	0.081
Mof_H 	H 	0.3725	0.5539	0.988	0.089
Mof_H 	H 	0.4555	0.5288	0.943	-0.007
Mof_H 	H 	0.4736	0.7259	0.1643	-0.017
Mof_H 	H 	0.3812	0.6874	0.1267	0.077
Mof_H 	H 	0.6275	0.6542	0.0854	0.077
Mof_H 	H 	0.7131	0.6838	0.1254	-0.005
Mof_H 	H 	0.0182	0.5323	0.0351	0.002
Mof_H 	H 	0.1694	0.5645	0.0241	0.081
Mof_H 	H 	0.1863	0.6149	0.1094	0.089
Mof_H 	H 	0.0312	0.5881	0.1175	-0.003
Mof_C 	C 	0.5868	0.9198	0.9071	0.062
Mof_C 	C 	0.5778	0.8751	0.8925	-0.109
Mof_C 	C 	0.5551	0.8732	0.8628	0.057
Mof_C 	C 	0.5474	0.9169	0.8478	-0.122
Mof_C 	C 	0.5637	0.9597	0.8628	0.078
Mof_C 	C 	0.5744	0.6086	0.8676	0.088
Mof_C 	C 	0.5529	0.6507	0.8518	-0.128
Mof_C 	C 	0.5616	0.6962	0.8657	0.054
Mof_C 	C 	0.5929	0.6968	0.8959	-0.122
Mof_C 	C 	0.6075	0.6506	0.909	0.081
Mof_C 	C 	0.4106	0.8109	0.7307	0.047
Mof_C 	C 	0.4483	0.8185	0.7594	-0.102
Mof_C 	C 	0.4792	0.7772	0.7754	0.045
Mof_C 	C 	0.4709	0.7319	0.761	-0.121
Mof_C 	C 	0.4359	0.7282	0.7333	0.083
Mof_C 	C 	0.5439	0.826	0.8479	0.097
Mof_C 	C 	0.5446	0.7439	0.8498	0.106
Mof_C 	C 	0.5067	0.781	0.8066	0.107
Mof_C 	C 	0.8658	0.07	0.0215	0.081
Mof_C 	C 	0.9072	0.0866	0.9944	-0.122
Mof_C 	C 	0.0063	0.0797	0.9918	0.056
Mof_C 	C 	0.0597	0.0587	0.0142	-0.113
Mof_C 	C 	0.0096	0.0441	0.0412	0.052
Mof_C 	C 	0.994	0.2098	0.8516	0.077
Mof_C 	C 	0.05	0.1868	0.8745	-0.115
Mof_C 	C 	0.0064	0.1641	0.8981	0.061
Mof_C 	C 	0.907	0.1666	0.8979	-0.11
Mof_C 	C 	0.8556	0.1863	0.8746	0.065
Mof_C 	C 	0.4478	0.0509	0.9503	0.049
Mof_C 	C 	0.3563	0.068	0.9563	-0.102
Mof_C 	C 	0.2991	0.0911	0.9338	0.03
Mof_C 	C 	0.3471	0.0985	0.9062	-0.111
Mof_C 	C 	0.4396	0.083	0.9014	0.058
Mof_C 	C 	0.0599	0.0978	0.9658	0.089
Mof_C 	C 	0.0598	0.1398	0.9214	0.098
Mof_C 	C 	0.1961	0.1048	0.9383	0.099
Mof_C 	C 	0.4132	0.5802	0.4071	0.062
Mof_C 	C 	0.4222	0.6249	0.3925	-0.109
Mof_C 	C 	0.4449	0.6268	0.3628	0.057
Mof_C 	C 	0.4526	0.5831	0.3478	-0.122
Mof_C 	C 	0.4363	0.5403	0.3628	0.078
Mof_C 	C 	0.4256	0.8914	0.3676	0.088
Mof_C 	C 	0.4471	0.8493	0.3518	-0.128
Mof_C 	C 	0.4384	0.8038	0.3657	0.054
Mof_C 	C 	0.4071	0.8032	0.3959	-0.122
Mof_C 	C 	0.3925	0.8494	0.409	0.081
Mof_C 	C 	0.5894	0.6891	0.2307	0.047
Mof_C 	C 	0.5517	0.6815	0.2594	-0.102
Mof_C 	C 	0.5208	0.7228	0.2754	0.045
Mof_C 	C 	0.5291	0.7681	0.261	-0.121
Mof_C 	C 	0.5641	0.7718	0.2333	0.083
Mof_C 	C 	0.4561	0.674	0.3479	0.097
Mof_C 	C 	0.4554	0.7561	0.3498	0.106
Mof_C 	C 	0.4933	0.719	0.3066	0.107
Mof_C 	C 	0.1342	0.43	0.5215	0.08
Mof_C 	C 	0.0928	0.4134	0.4944	-0.12
Mof_C 	C 	0.9937	0.4203	0.4918	0.054
Mof_C 	C 	0.9403	0.4413	0.5142	-0.112
Mof_C 	C 	0.9904	0.4559	0.5412	0.051
Mof_C 	C 	0.006	0.2902	0.3516	0.08
Mof_C 	C 	0.95	0.3132	0.3745	-0.117
Mof_C 	C 	0.9936	0.3359	0.3981	0.06
Mof_C 	C 	0.093	0.3334	0.3979	-0.109
Mof_C 	C 	0.1444	0.3137	0.3746	0.065
Mof_C 	C 	0.5522	0.4491	0.4503	0.049
Mof_C 	C 	0.6437	0.432	0.4563	-0.102
Mof_C 	C 	0.7009	0.4089	0.4338	0.03
Mof_C 	C 	0.6529	0.4015	0.4062	-0.111
Mof_C 	C 	0.5604	0.417	0.4014	0.058
Mof_C 	C 	0.9401	0.4022	0.4658	0.089
Mof_C 	C 	0.9402	0.3602	0.4214	0.098
Mof_C 	C 	0.8039	0.3952	0.4383	0.099
Mof_C 	C 	0.0868	0.0802	0.5929	0.062
Mof_C 	C 	0.0778	0.1249	0.6075	-0.109
Mof_C 	C 	0.0551	0.1268	0.6372	0.057
Mof_C 	C 	0.0474	0.0831	0.6522	-0.122
Mof_C 	C 	0.0637	0.0403	0.6372	0.078
Mof_C 	C 	0.0744	0.3914	0.6324	0.088
Mof_C 	C 	0.0529	0.3493	0.6482	-0.128
Mof_C 	C 	0.0616	0.3038	0.6343	0.054
Mof_C 	C 	0.0929	0.3032	0.6041	-0.122
Mof_C 	C 	0.1075	0.3494	0.591	0.081
Mof_C 	C 	0.9106	0.1891	0.7693	0.047
Mof_C 	C 	0.9483	0.1815	0.7406	-0.101
Mof_C 	C 	0.9792	0.2228	0.7246	0.044
Mof_C 	C 	0.9709	0.2681	0.739	-0.121
Mof_C 	C 	0.9359	0.2718	0.7667	0.082
Mof_C 	C 	0.0439	0.174	0.6521	0.097
Mof_C 	C 	0.0446	0.2561	0.6502	0.106
Mof_C 	C 	0.0067	0.219	0.6934	0.107
Mof_C 	C 	0.3658	0.93	0.4785	0.081
Mof_C 	C 	0.4072	0.9134	0.5056	-0.12
Mof_C 	C 	0.5063	0.9203	0.5082	0.055
Mof_C 	C 	0.5597	0.9413	0.4858	-0.112
Mof_C 	C 	0.5096	0.9559	0.4588	0.051
Mof_C 	C 	0.494	0.7902	0.6484	0.079
Mof_C 	C 	0.55	0.8132	0.6255	-0.116
Mof_C 	C 	0.5064	0.8359	0.6019	0.061
Mof_C 	C 	0.407	0.8334	0.6021	-0.109
Mof_C 	C 	0.3556	0.8137	0.6254	0.065
Mof_C 	C 	0.9478	0.9491	0.5497	0.049
Mof_C 	C 	0.8563	0.932	0.5437	-0.102
Mof_C 	C 	0.7991	0.9089	0.5662	0.03
Mof_C 	C 	0.8471	0.9015	0.5938	-0.111
Mof_C 	C 	0.9396	0.917	0.5986	0.058
Mof_C 	C 	0.5599	0.9022	0.5342	0.089
Mof_C 	C 	0.5598	0.8602	0.5786	0.098
Mof_C 	C 	0.6961	0.8952	0.5617	0.099
Mof_C 	C 	0.9132	0.4198	0.0929	0.062
Mof_C 	C 	0.9222	0.3751	0.1075	-0.109
Mof_C 	C 	0.9449	0.3732	0.1372	0.057
Mof_C 	C 	0.9526	0.4169	0.1522	-0.122
Mof_C 	C 	0.9363	0.4597	0.1372	0.078
Mof_C 	C 	0.9256	0.1086	0.1324	0.088
Mof_C 	C 	0.9471	0.1507	0.1482	-0.128
Mof_C 	C 	0.9384	0.1962	0.1343	0.054
Mof_C 	C 	0.9071	0.1968	0.1041	-0.122
Mof_C 	C 	0.8925	0.1506	0.091	0.08
Mof_C 	C 	0.0894	0.3109	0.2693	0.048
Mof_C 	C 	0.0517	0.3185	0.2406	-0.102
Mof_C 	C 	0.0208	0.2772	0.2246	0.045
Mof_C 	C 	0.0291	0.2319	0.239	-0.121
Mof_C 	C 	0.0641	0.2282	0.2667	0.083
Mof_C 	C 	0.9561	0.326	0.1521	0.097
Mof_C 	C 	0.9554	0.2439	0.1502	0.106
Mof_C 	C 	0.9933	0.281	0.1934	0.106
Mof_C 	C 	0.6342	0.57	0.9785	0.081
Mof_C 	C 	0.5928	0.5866	0.0056	-0.12
Mof_C 	C 	0.4937	0.5797	0.0082	0.055
Mof_C 	C 	0.4403	0.5587	0.9858	-0.112
Mof_C 	C 	0.4904	0.5441	0.9588	0.051
Mof_C 	C 	0.506	0.7098	0.1484	0.079
Mof_C 	C 	0.45	0.6868	0.1255	-0.116
Mof_C 	C 	0.4936	0.6641	0.1019	0.061
Mof_C 	C 	0.593	0.6666	0.1021	-0.109
Mof_C 	C 	0.6444	0.6863	0.1254	0.065
Mof_C 	C 	0.0522	0.5509	0.0497	0.049
Mof_C 	C 	0.1437	0.568	0.0437	-0.102
Mof_C 	C 	0.2009	0.5911	0.0662	0.03
Mof_C 	C 	0.1529	0.5985	0.0938	-0.111
Mof_C 	C 	0.0604	0.583	0.0986	0.058
Mof_C 	C 	0.4401	0.5978	0.0342	0.089
Mof_C 	C 	0.4402	0.6398	0.0786	0.098
Mof_C 	C 	0.3039	0.6048	0.0617	0.099
Mof_I 	I 	0.70068	0.00646	0.96301	-0.389
Mof_I 	I 	0.70262	0.0778	0.8732	-0.373
Mof_I 	I 	0.55929	0.4765	0.88603	-0.36
Mof_I 	I 	0.82976	0.55726	0.91983	-0.384
Mof_I 	I 	0.16471	0.80375	0.68945	-0.371
Mof_I 	I 	0.30922	0.66422	0.66952	-0.373
Mof_I 	I 	0.29932	0.49354	0.46301	-0.388
Mof_I 	I 	0.29738	0.4222	0.3732	-0.373
Mof_I 	I 	0.44071	0.0235	0.38603	-0.359
Mof_I 	I 	0.17024	0.94274	0.41983	-0.385
Mof_I 	I 	0.83529	0.69625	0.18945	-0.37
Mof_I 	I 	0.69078	0.83578	0.16952	-0.373
Mof_I 	I 	0.20068	0.99354	0.53699	-0.389
Mof_I 	I 	0.20262	0.9222	0.6268	-0.373
Mof_I 	I 	0.05929	0.5235	0.61397	-0.36
Mof_I 	I 	0.32976	0.44274	0.58017	-0.384
Mof_I 	I 	0.66471	0.19625	0.81055	-0.371
Mof_I 	I 	0.80922	0.33578	0.83048	-0.373
Mof_I 	I 	0.79932	0.50646	0.03699	-0.388
Mof_I 	I 	0.79738	0.5778	0.1268	-0.373
Mof_I 	I 	0.94071	0.9765	0.11397	-0.359
Mof_I 	I 	0.67024	0.05726	0.08017	-0.384
Mof_I 	I 	0.33529	0.30375	0.31055	-0.37
Mof_I 	I 	0.19078	0.16422	0.33048	-0.372
Mof_N 	N 	0.5861	0.9627	0.8918	-0.269
Mof_N 	N 	0.6014	0.6088	0.8948	-0.28
Mof_N 	N 	0.403	0.7651	0.7177	-0.274
Mof_N 	N 	0.5575	0.785	0.8639	-0.141
Mof_N 	N 	0.5216	0.7391	0.82063	-0.141
Mof_N 	N 	0.516	0.8256	0.8186	-0.137
Mof_N 	N 	0.9128	0.0522	0.044	-0.275
Mof_N 	N 	0.9006	0.2091	0.8519	-0.276
Mof_N 	N 	0.4903	0.0605	0.9232	-0.266
Mof_N 	N 	0.0061	0.1225	0.9451	-0.133
Mof_N 	N 	0.1547	0.1323	0.9176	-0.135
Mof_N 	N 	0.1547	0.0866	0.9625	-0.144
Mof_N 	N 	0.4139	0.5373	0.3918	-0.269
Mof_N 	N 	0.3986	0.8912	0.3948	-0.28
Mof_N 	N 	0.597	0.7349	0.2177	-0.274
Mof_N 	N 	0.4425	0.715	0.3639	-0.141
Mof_N 	N 	0.4784	0.7609	0.32063	-0.141
Mof_N 	N 	0.484	0.6744	0.3186	-0.137
Mof_N 	N 	0.0872	0.4478	0.544	-0.274
Mof_N 	N 	0.0994	0.2909	0.3519	-0.276
Mof_N 	N 	0.5097	0.4395	0.4232	-0.266
Mof_N 	N 	0.9939	0.3775	0.4451	-0.133
Mof_N 	N 	0.8453	0.3677	0.4176	-0.135
Mof_N 	N 	0.8453	0.4134	0.4625	-0.145
Mof_N 	N 	0.0861	0.0373	0.6082	-0.269
Mof_N 	N 	0.1014	0.3912	0.6052	-0.28
Mof_N 	N 	0.903	0.2349	0.7823	-0.274
Mof_N 	N 	0.0575	0.215	0.6361	-0.141
Mof_N 	N 	0.0216	0.2609	0.67937	-0.141
Mof_N 	N 	0.016	0.1744	0.6814	-0.137
Mof_N 	N 	0.4128	0.9478	0.456	-0.274
Mof_N 	N 	0.4006	0.7909	0.6481	-0.276
Mof_N 	N 	0.9903	0.9395	0.5768	-0.265
Mof_N 	N 	0.5061	0.8775	0.5549	-0.133
Mof_N 	N 	0.6547	0.8677	0.5824	-0.135
Mof_N 	N 	0.6547	0.9134	0.5375	-0.145
Mof_N 	N 	0.9139	0.4627	0.1082	-0.269
Mof_N 	N 	0.8986	0.1088	0.1052	-0.28
Mof_N 	N 	0.097	0.2651	0.2823	-0.274
Mof_N 	N 	0.9425	0.285	0.1361	-0.141
Mof_N 	N 	0.9784	0.2391	0.17937	-0.141
Mof_N 	N 	0.984	0.3256	0.1814	-0.137
Mof_N 	N 	0.5872	0.5522	0.956	-0.274
Mof_N 	N 	0.5994	0.7091	0.1481	-0.276
Mof_N 	N 	0.0097	0.5605	0.0768	-0.266
Mof_N 	N 	0.4939	0.6225	0.0549	-0.133
Mof_N 	N 	0.3453	0.6323	0.0824	-0.135
Mof_N 	N 	0.3453	0.5866	0.0375	-0.145
Mof_Zn	Zn	0.37979	0.9723	0.08698	1.164
Mof_Zn	Zn	0.35246	0.45626	0.08557	1.163
Mof_Zn	Zn	0.67948	0.24397	0.31961	1.165
Mof_Zn	Zn	0.62021	0.5277	0.58698	1.164
Mof_Zn	Zn	0.64754	0.04374	0.58557	1.163
Mof_Zn	Zn	0.32052	0.25603	0.81961	1.165
Mof_Zn	Zn	0.87979	0.0277	0.41302	1.164
Mof_Zn	Zn	0.85246	0.54374	0.41443	1.163
Mof_Zn	Zn	0.17948	0.75603	0.18039	1.165
Mof_Zn	Zn	0.12021	0.4723	0.91302	1.164
Mof_Zn	Zn	0.14754	0.95626	0.91443	1.163
Mof_Zn	Zn	0.82052	0.74397	0.68039	1.165
Mof_H 	H 	0.4063	0.0796	0.0718	-0.004
Mof_H 	H 	0.4125	0.1546	0.0967	0.078
Mof_H 	H 	0.469	0.0826	0.1728	0.083
Mof_H 	H 	0.4411	0.0105	0.1481	-0.009
Mof_H 	H 	0.4312	0.4221	0.1422	-0.022
Mof_H 	H 	0.4676	0.3514	0.1684	0.084
Mof_H 	H 	0.3967	0.2734	0.0935	0.08
Mof_H 	H 	0.3772	0.3503	0.0704	-0.019
Mof_H 	H 	0.6108	0.1613	0.2803	-0.001
Mof_H 	H 	0.5473	0.1495	0.2323	0.076
Mof_H 	H 	0.5094	0.297	0.2288	0.084
Mof_H 	H 	0.5652	0.3034	0.2757	-0.006
Mof_H 	H 	0.2026	0.9278	0.9767	-0.008
Mof_H 	H 	0.1303	0.8987	0.0209	0.082
Mof_H 	H 	0.8725	0.9461	0.988	0.089
Mof_H 	H 	0.9555	0.9712	0.943	-0.007
Mof_H 	H 	0.9736	0.7741	0.1643	-0.016
Mof_H 	H 	0.8812	0.8126	0.1267	0.076
Mof_H 	H 	0.1275	0.8458	0.0854	0.078
Mof_H 	H 	0.2131	0.8162	0.1254	-0.005
Mof_H 	H 	0.5182	0.9677	0.0351	0.002
Mof_H 	H 	0.6694	0.9355	0.0241	0.081
Mof_H 	H 	0.6863	0.8851	0.1094	0.089
Mof_H 	H 	0.5312	0.9119	0.1175	-0.002
Mof_H 	H 	0.5937	0.4204	0.5718	-0.004
Mof_H 	H 	0.5875	0.3454	0.5967	0.078
Mof_H 	H 	0.531	0.4174	0.6728	0.083
Mof_H 	H 	0.5589	0.4895	0.6481	-0.009
Mof_H 	H 	0.5688	0.0779	0.6422	-0.022
Mof_H 	H 	0.5324	0.1486	0.6684	0.084
Mof_H 	H 	0.6033	0.2266	0.5935	0.08
Mof_H 	H 	0.6228	0.1497	0.5704	-0.019
Mof_H 	H 	0.3892	0.3387	0.7803	-0.001
Mof_H 	H 	0.4527	0.3505	0.7323	0.076
Mof_H 	H 	0.4906	0.203	0.7288	0.084
Mof_H 	H 	0.4348	0.1966	0.7757	-0.006
Mof_H 	H 	0.7974	0.5722	0.4767	-0.008
Mof_H 	H 	0.8697	0.6013	0.5209	0.081
Mof_H 	H 	0.1275	0.5539	0.488	0.089
Mof_H 	H 	0.0445	0.5288	0.443	-0.007
Mof_H 	H 	0.0264	0.7259	0.6643	-0.018
Mof_H 	H 	0.1188	0.6874	0.6267	0.077
Mof_H 	H 	0.8725	0.6542	0.5854	0.077
Mof_H 	H 	0.7869	0.6838	0.6254	-0.005
Mof_H 	H 	0.4818	0.5323	0.5351	0.002
Mof_H 	H 	0.3306	0.5645	0.5241	0.081
Mof_H 	H 	0.3137	0.6149	0.6094	0.089
Mof_H 	H 	0.4688	0.5881	0.6175	-0.003
Mof_H 	H 	0.9063	0.9204	0.4282	-0.003
Mof_H 	H 	0.9125	0.8454	0.4033	0.078
Mof_H 	H 	0.969	0.9174	0.3272	0.083
Mof_H 	H 	0.9411	0.9895	0.3519	-0.008
Mof_H 	H 	0.9312	0.5779	0.3578	-0.022
Mof_H 	H 	0.9676	0.6486	0.3316	0.084
Mof_H 	H 	0.8967	0.7266	0.4065	0.08
Mof_H 	H 	0.8772	0.6497	0.4296	-0.019
Mof_H 	H 	0.1108	0.8387	0.2197	-0.001
Mof_H 	H 	0.0473	0.8505	0.2677	0.075
Mof_H 	H 	0.0094	0.703	0.2712	0.084
Mof_H 	H 	0.0652	0.6966	0.2243	-0.006
Mof_H 	H 	0.7026	0.0722	0.5233	-0.008
Mof_H 	H 	0.6303	0.1013	0.4791	0.081
Mof_H 	H 	0.3725	0.0539	0.512	0.089
Mof_H 	H 	0.4555	0.0288	0.557	-0.007
Mof_H 	H 	0.4736	0.2259	0.3357	-0.017
Mof_H 	H 	0.3812	0.1874	0.3733	0.077
Mof_H 	H 	0.6275	0.1542	0.4146	0.077
Mof_H 	H 	0.7131	0.1838	0.3746	-0.005
Mof_H 	H 	0.0182	0.0323	0.4649	0.002
Mof_H 	H 	0.1694	0.0645	0.4759	0.081
Mof_H 	H 	0.1863	0.1149	0.3906	0.089
Mof_H 	H 	0.0312	0.0881	0.3825	-0.002
Mof_H 	H 	0.0937	0.5796	0.9282	-0.004
Mof_H 	H 	0.0875	0.6546	0.9033	0.078
Mof_H 	H 	0.031	0.5826	0.8272	0.083
Mof_H 	H 	0.0589	0.5105	0.8519	-0.009
Mof_H 	H 	0.0688	0.9221	0.8578	-0.022
Mof_H 	H 	0.0324	0.8514	0.8316	0.084
Mof_H 	H 	0.1033	0.7734	0.9065	0.08
Mof_H 	H 	0.1228	0.8503	0.9296	-0.019
Mof_H 	H 	0.8892	0.6613	0.7197	-0.001
Mof_H 	H 	0.9527	0.6495	0.7677	0.076
Mof_H 	H 	0.9906	0.797	0.7712	0.084
Mof_H 	H 	0.9348	0.8034	0.7243	-0.006
Mof_H 	H 	0.2974	0.4278	0.0233	-0.008
Mof_H 	H 	0.3697	0.3987	0.9791	0.081
Mof_H 	H 	0.6275	0.4461	0.012	0.089
Mof_H 	H 	0.5445	0.4712	0.057	-0.007
Mof_H 	H 	0.5264	0.2741	0.8357	-0.017
Mof_H 	H 	0.6188	0.3126	0.8733	0.077
Mof_H 	H 	0.3725	0.3458	0.9146	0.077
Mof_H 	H 	0.2869	0.3162	0.8746	-0.005
Mof_H 	H 	0.9818	0.4677	0.9649	0.002
Mof_H 	H 	0.8306	0.4355	0.9759	0.081
Mof_H 	H 	0.8137	0.3851	0.8906	0.089
Mof_H 	H 	0.9688	0.4119	0.8825	-0.003
Mof_C 	C 	0.4132	0.0802	0.0929	0.062
Mof_C 	C 	0.4222	0.1249	0.1075	-0.109
Mof_C 	C 	0.4449	0.1268	0.1372	0.057
Mof_C 	C 	0.4526	0.0831	0.1522	-0.122
Mof_C 	C 	0.4363	0.0403	0.1372	0.078
Mof_C 	C 	0.4256	0.3914	0.1324	0.088
Mof_C 	C 	0.4471	0.3493	0.1482	-0.128
Mof_C 	C 	0.4384	0.3038	0.1343	0.054
Mof_C 	C 	0.4071	0.3032	0.1041	-0.122
Mof_C 	C 	0.3925	0.3494	0.091	0.081
Mof_C 	C 	0.5894	0.1891	0.2693	0.047
Mof_C 	C 	0.5517	0.1815	0.2406	-0.102
Mof_C 	C 	0.5208	0.2228	0.2246	0.045
Mof_C 	C 	0.5291	0.2681	0.239	-0.121
Mof_C 	C 	0.5641	0.2718	0.2667	0.083
Mof_C 	C 	0.4561	0.174	0.1521	0.097
Mof_C 	C 	0.4554	0.2561	0.1502	0.106
Mof_C 	C 	0.4933	0.219	0.1934	0.107
Mof_C 	C 	0.1342	0.93	0.9785	0.081
Mof_C 	C 	0.0928	0.9134	0.0056	-0.122
Mof_C 	C 	0.9937	0.9203	0.0082	0.056
Mof_C 	C 	0.9403	0.9413	0.9858	-0.113
Mof_C 	C 	0.9904	0.9559	0.9588	0.052
Mof_C 	C 	0.006	0.7902	0.1484	0.077
Mof_C 	C 	0.95	0.8132	0.1255	-0.115
Mof_C 	C 	0.9936	0.8359	0.1019	0.061
Mof_C 	C 	0.093	0.8334	0.1021	-0.11
Mof_C 	C 	0.1444	0.8137	0.1254	0.065
Mof_C 	C 	0.5522	0.9491	0.0497	0.049
Mof_C 	C 	0.6437	0.932	0.0437	-0.102
Mof_C 	C 	0.7009	0.9089	0.0662	0.03
Mof_C 	C 	0.6529	0.9015	0.0938	-0.111
Mof_C 	C 	0.5604	0.917	0.0986	0.058
Mof_C 	C 	0.9401	0.9022	0.0342	0.089
Mof_C 	C 	0.9402	0.8602	0.0786	0.098
Mof_C 	C 	0.8039	0.8952	0.0617	0.099
Mof_C 	C 	0.5868	0.4198	0.5929	0.062
Mof_C 	C 	0.5778	0.3751	0.6075	-0.109
Mof_C 	C 	0.5551	0.3732	0.6372	0.057
Mof_C 	C 	0.5474	0.4169	0.6522	-0.122
Mof_C 	C 	0.5637	0.4597	0.6372	0.078
Mof_C 	C 	0.5744	0.1086	0.6324	0.088
Mof_C 	C 	0.5529	0.1507	0.6482	-0.128
Mof_C 	C 	0.5616	0.1962	0.6343	0.054
Mof_C 	C 	0.5929	0.1968	0.6041	-0.122
Mof_C 	C 	0.6075	0.1506	0.591	0.081
Mof_C 	C 	0.4106	0.3109	0.7693	0.047
Mof_C 	C 	0.4483	0.3185	0.7406	-0.102
Mof_C 	C 	0.4792	0.2772	0.7246	0.045
Mof_C 	C 	0.4709	0.2319	0.739	-0.121
Mof_C 	C 	0.4359	0.2282	0.7667	0.083
Mof_C 	C 	0.5439	0.326	0.6521	0.097
Mof_C 	C 	0.5446	0.2439	0.6502	0.106
Mof_C 	C 	0.5067	0.281	0.6934	0.107
Mof_C 	C 	0.8658	0.57	0.4785	0.08
Mof_C 	C 	0.9072	0.5866	0.5056	-0.12
Mof_C 	C 	0.0063	0.5797	0.5082	0.054
Mof_C 	C 	0.0597	0.5587	0.4858	-0.112
Mof_C 	C 	0.0096	0.5441	0.4588	0.051
Mof_C 	C 	0.994	0.7098	0.6484	0.08
Mof_C 	C 	0.05	0.6868	0.6255	-0.117
Mof_C 	C 	0.0064	0.6641	0.6019	0.06
Mof_C 	C 	0.907	0.6666	0.6021	-0.109
Mof_C 	C 	0.8556	0.6863	0.6254	0.065
Mof_C 	C 	0.4478	0.5509	0.5497	0.049
Mof_C 	C 	0.3563	0.568	0.5437	-0.102
Mof_C 	C 	0.2991	0.5911	0.5662	0.03
Mof_C 	C 	0.3471	0.5985	0.5938	-0.111
Mof_C 	C 	0.4396	0.583	0.5986	0.058
Mof_C 	C 	0.0599	0.5978	0.5342	0.089
Mof_C 	C 	0.0598	0.6398	0.5786	0.098
Mof_C 	C 	0.1961	0.6048	0.5617	0.099
Mof_C 	C 	0.9132	0.9198	0.4071	0.062
Mof_C 	C 	0.9222	0.8751	0.3925	-0.109
Mof_C 	C 	0.9449	0.8732	0.3628	0.057
Mof_C 	C 	0.9526	0.9169	0.3478	-0.122
Mof_C 	C 	0.9363	0.9597	0.3628	0.078
Mof_C 	C 	0.9256	0.6086	0.3676	0.088
Mof_C 	C 	0.9471	0.6507	0.3518	-0.128
Mof_C 	C 	0.9384	0.6962	0.3657	0.054
Mof_C 	C 	0.9071	0.6968	0.3959	-0.122
Mof_C 	C 	0.8925	0.6506	0.409	0.081
Mof_C 	C 	0.0894	0.8109	0.2307	0.047
Mof_C 	C 	0.0517	0.8185	0.2594	-0.101
Mof_C 	C 	0.0208	0.7772	0.2754	0.044
Mof_C 	C 	0.0291	0.7319	0.261	-0.121
Mof_C 	C 	0.0641	0.7282	0.2333	0.082
Mof_C 	C 	0.9561	0.826	0.3479	0.097
Mof_C 	C 	0.9554	0.7439	0.3498	0.106
Mof_C 	C 	0.9933	0.781	0.3066	0.107
Mof_C 	C 	0.6342	0.07	0.5215	0.081
Mof_C 	C 	0.5928	0.0866	0.4944	-0.12
Mof_C 	C 	0.4937	0.0797	0.4918	0.055
Mof_C 	C 	0.4403	0.0587	0.5142	-0.112
Mof_C 	C 	0.4904	0.0441	0.5412	0.051
Mof_C 	C 	0.506	0.2098	0.3516	0.079
Mof_C 	C 	0.45	0.1868	0.3745	-0.116
Mof_C 	C 	0.4936	0.1641	0.3981	0.061
Mof_C 	C 	0.593	0.1666	0.3979	-0.109
Mof_C 	C 	0.6444	0.1863	0.3746	0.065
Mof_C 	C 	0.0522	0.0509	0.4503	0.049
Mof_C 	C 	0.1437	0.068	0.4563	-0.102
Mof_C 	C 	0.2009	0.0911	0.4338	0.03
Mof_C 	C 	0.1529	0.0985	0.4062	-0.111
Mof_C 	C 	0.0604	0.083	0.4014	0.058
Mof_C 	C 	0.4401	0.0978	0.4658	0.089
Mof_C 	C 	0.4402	0.1398	0.4214	0.098
Mof_C 	C 	0.3039	0.1048	0.4383	0.099
Mof_C 	C 	0.0868	0.5802	0.9071	0.062
Mof_C 	C 	0.0778	0.6249	0.8925	-0.109
Mof_C 	C 	0.0551	0.6268	0.8628	0.057
Mof_C 	C 	0.0474	0.5831	0.8478	-0.122
Mof_C 	C 	0.0637	0.5403	0.8628	0.078
Mof_C 	C 	0.0744	0.8914	0.8676	0.088
Mof_C 	C 	0.0529	0.8493	0.8518	-0.128
Mof_C 	C 	0.0616	0.8038	0.8657	0.054
Mof_C 	C 	0.0929	0.8032	0.8959	-0.122
Mof_C 	C 	0.1075	0.8494	0.909	0.08
Mof_C 	C 	0.9106	0.6891	0.7307	0.048
Mof_C 	C 	0.9483	0.6815	0.7594	-0.102
Mof_C 	C 	0.9792	0.7228	0.7754	0.045
Mof_C 	C 	0.9709	0.7681	0.761	-0.121
Mof_C 	C 	0.9359	0.7718	0.7333	0.083
Mof_C 	C 	0.0439	0.674	0.8479	0.097
Mof_C 	C 	0.0446	0.7561	0.8498	0.106
Mof_C 	C 	0.0067	0.719	0.8066	0.106
Mof_C 	C 	0.3658	0.43	0.0215	0.081
Mof_C 	C 	0.4072	0.4134	0.9944	-0.12
Mof_C 	C 	0.5063	0.4203	0.9918	0.055
Mof_C 	C 	0.5597	0.4413	0.0142	-0.112
Mof_C 	C 	0.5096	0.4559	0.0412	0.051
Mof_C 	C 	0.494	0.2902	0.8516	0.079
Mof_C 	C 	0.55	0.3132	0.8745	-0.116
Mof_C 	C 	0.5064	0.3359	0.8981	0.061
Mof_C 	C 	0.407	0.3334	0.8979	-0.109
Mof_C 	C 	0.3556	0.3137	0.8746	0.065
Mof_C 	C 	0.9478	0.4491	0.9503	0.049
Mof_C 	C 	0.8563	0.432	0.9563	-0.102
Mof_C 	C 	0.7991	0.4089	0.9338	0.03
Mof_C 	C 	0.8471	0.4015	0.9062	-0.111
Mof_C 	C 	0.9396	0.417	0.9014	0.058
Mof_C 	C 	0.5599	0.4022	0.9658	0.089
Mof_C 	C 	0.5598	0.3602	0.9214	0.098
Mof_C 	C 	0.6961	0.3952	0.9383	0.099
Mof_I 	I 	0.29932	0.99354	0.03699	-0.389
Mof_I 	I 	0.29738	0.9222	0.1268	-0.373
Mof_I 	I 	0.44071	0.5235	0.11397	-0.36
Mof_I 	I 	0.17024	0.44274	0.08017	-0.384
Mof_I 	I 	0.83529	0.19625	0.31055	-0.371
Mof_I 	I 	0.69078	0.33578	0.33048	-0.373
Mof_I 	I 	0.70068	0.50646	0.53699	-0.388
Mof_I 	I 	0.70262	0.5778	0.6268	-0.373
Mof_I 	I 	0.55929	0.9765	0.61397	-0.359
Mof_I 	I 	0.82976	0.05726	0.58017	-0.385
Mof_I 	I 	0.16471	0.30375	0.81055	-0.37
Mof_I 	I 	0.30922	0.16422	0.83048	-0.373
Mof_I 	I 	0.79932	0.00646	0.46301	-0.389
Mof_I 	I 	0.79738	0.0778	0.3732	-0.373
Mof_I 	I 	0.94071	0.4765	0.38603	-0.36
Mof_I 	I 	0.67024	0.55726	0.41983	-0.384
Mof_I 	I 	0.33529	0.80375	0.18945	-0.371
Mof_I 	I 	0.19078	0.66422	0.16952	-0.373
Mof_I 	I 	0.20068	0.49354	0.96301	-0.388
Mof_I 	I 	0.20262	0.4222	0.8732	-0.373
Mof_I 	I 	0.05929	0.0235	0.88603	-0.359
Mof_I 	I 	0.32976	0.94274	0.91983	-0.384
Mof_I 	I 	0.66471	0.69625	0.68945	-0.37
Mof_I 	I 	0.80922	0.83578	0.66952	-0.372
Mof_N 	N 	0.4139	0.0373	0.1082	-0.269
Mof_N 	N 	0.3986	0.3912	0.1052	-0.28
Mof_N 	N 	0.597	0.2349	0.2823	-0.274
Mof_N 	N 	0.4425	0.215	0.1361	-0.141
Mof_N 	N 	0.4784	0.2609	0.17937	-0.141
Mof_N 	N 	0.484	0.1744	0.1814	-0.137
Mof_N 	N 	0.0872	0.9478	0.956	-0.275
Mof_N 	N 	0.0994	0.7909	0.1481	-0.276
Mof_N 	N 	0.5097	0.9395	0.0768	-0.266
Mof_N 	N 	0.9939	0.8775	0.0549	-0.133
Mof_N 	N 	0.8453	0.8677	0.0824	-0.135
Mof_N 	N 	0.8453	0.9134	0.0375	-0.144
Mof_N 	N 	0.5861	0.4627	0.6082	-0.269
Mof_N 	N 	0.6014	0.1088	0.6052	-0.28
Mof_N 	N 	0.403	0.2651	0.7823	-0.274
Mof_N 	N 	0.5575	0.285	0.6361	-0.141
Mof_N 	N 	0.5216	0.2391	0.67937	-0.141
Mof_N 	N 	0.516	0.3256	0.6814	-0.137
Mof_N 	N 	0.9128	0.5522	0.456	-0.274
Mof_N 	N 	0.9006	0.7091	0.6481	-0.276
Mof_N 	N 	0.4903	0.5605	0.5768	-0.266
Mof_N 	N 	0.0061	0.6225	0.5549	-0.133
Mof_N 	N 	0.1547	0.6323	0.5824	-0.135
Mof_N 	N 	0.1547	0.5866	0.5375	-0.145
Mof_N 	N 	0.9139	0.9627	0.3918	-0.269
Mof_N 	N 	0.8986	0.6088	0.3948	-0.28
Mof_N 	N 	0.097	0.7651	0.2177	-0.274
Mof_N 	N 	0.9425	0.785	0.3639	-0.141
Mof_N 	N 	0.9784	0.7391	0.32063	-0.141
Mof_N 	N 	0.984	0.8256	0.3186	-0.137
Mof_N 	N 	0.5872	0.0522	0.544	-0.274
Mof_N 	N 	0.5994	0.2091	0.3519	-0.276
Mof_N 	N 	0.0097	0.0605	0.4232	-0.265
Mof_N 	N 	0.4939	0.1225	0.4451	-0.133
Mof_N 	N 	0.3453	0.1323	0.4176	-0.135
Mof_N 	N 	0.3453	0.0866	0.4625	-0.145
Mof_N 	N 	0.0861	0.5373	0.8918	-0.269
Mof_N 	N 	0.1014	0.8912	0.8948	-0.28
Mof_N 	N 	0.903	0.7349	0.7177	-0.274
Mof_N 	N 	0.0575	0.715	0.8639	-0.141
Mof_N 	N 	0.0216	0.7609	0.82063	-0.141
Mof_N 	N 	0.016	0.6744	0.8186	-0.137
Mof_N 	N 	0.4128	0.4478	0.044	-0.274
Mof_N 	N 	0.4006	0.2909	0.8519	-0.276
Mof_N 	N 	0.9903	0.4395	0.9232	-0.266
Mof_N 	N 	0.5061	0.3775	0.9451	-0.133
Mof_N 	N 	0.6547	0.3677	0.9176	-0.135
Mof_N 	N 	0.6547	0.4134	0.9625	-0.145
_end
