data_functionalizedCrystal
_audit_creation_method	'EQeq! by Chris Wilmer'
_symmetry_space_group_name_H-M	'P1'
_symmetry_Int_Tables_number	1
_symmetry_cell_setting	triclinic
loop_
_symmetry_equiv_pos_as_xyz
  x,y,z
_cell_length_a	9.025
_cell_length_b	9.025
_cell_length_c	11.343
_cell_angle_alpha	90
_cell_angle_beta	90
_cell_angle_gamma	120
loop_
_atom_site_label
_atom_site_type_symbol
_atom_site_fract_x
_atom_site_fract_y
_atom_site_fract_z
_atom_site_charge
Mof_In	In	0.5	0	0.66667	2.482
Mof_In	In	0.5	0.5	-0	2.198
Mof_In	In	1.97382e-17	0.5	0.33333	2.468
Mof_C 	C 	0.78905	0.21095	0.5	0.314
Mof_C 	C 	0.69025	0.30975	0.5	0.263
Mof_C 	C 	0.4219	0.21095	0.83333	0.319
Mof_C 	C 	0.6195	0.30975	0.83333	0.265
Mof_C 	C 	0.78905	0.5781	0.16667	0.299
Mof_C 	C 	0.69025	0.3805	0.16667	0.259
Mof_C 	C 	0.21095	0.78905	0.5	0.314
Mof_C 	C 	0.30975	0.69025	0.5	0.263
Mof_C 	C 	0.5781	0.78905	0.83333	0.313
Mof_C 	C 	0.3805	0.69025	0.83333	0.276
Mof_C 	C 	0.21095	0.4219	0.16667	0.305
Mof_C 	C 	0.30975	0.6195	0.16667	0.249
Mof_O 	O 	0.7319	0.0787	0.5614	-0.554
Mof_O 	O 	0.5531	0.2414	0.5554	-0.461
Mof_O 	O 	0.3468	0.2681	0.89473	-0.45
Mof_O 	O 	0.6883	0.4469	0.88873	-0.358
Mof_O 	O 	0.9213	0.6532	0.22807	-0.492
Mof_O 	O 	0.7586	0.3117	0.22207	-0.457
Mof_O 	O 	0.2681	0.9213	0.5614	-0.498
Mof_O 	O 	0.4469	0.7586	0.5554	-0.433
Mof_O 	O 	0.6532	0.7319	0.89473	-0.423
Mof_O 	O 	0.3117	0.5531	0.88873	-0.379
Mof_O 	O 	0.0787	0.3468	0.22807	-0.571
Mof_O 	O 	0.2414	0.6883	0.22207	-0.464
Mof_O 	O 	0.6532	0.9213	0.77193	-0.47
Mof_O 	O 	0.3117	0.7586	0.77793	-0.429
Mof_O 	O 	0.0787	0.7319	0.4386	-0.551
Mof_O 	O 	0.2414	0.5531	0.4446	-0.457
Mof_O 	O 	0.2681	0.3468	0.10527	-0.547
Mof_O 	O 	0.4469	0.6883	0.11127	-0.456
Mof_O 	O 	0.3468	0.0787	0.77193	-0.553
Mof_O 	O 	0.6883	0.2414	0.77793	-0.436
Mof_O 	O 	0.9213	0.2681	0.4386	-0.498
Mof_O 	O 	0.7586	0.4469	0.4446	-0.43
Mof_O 	O 	0.7319	0.6532	0.10527	-0.523
Mof_O 	O 	0.5531	0.3117	0.11127	-0.476
Mof_H 	H 	0.8958	0.9721	0.0526	0.204
Mof_H 	H 	0.1042	0.0279	0.0526	0.093
Mof_H 	H 	0.9721	0.8958	0.9474	0.332
Mof_H 	H 	0.0279	0.1042	0.9474	0.216
Mof_N 	N 	-0	0	-0	-0.566
Mof_H 	H 	0.0763	0.1042	0.38593	0.115
Mof_H 	H 	0.9237	0.8958	0.38593	0.22
Mof_H 	H 	0.9237	0.0279	0.28073	0.155
Mof_H 	H 	0.0763	0.9721	0.28073	0.162
Mof_N 	N 	-7.88746e-33	-7.88746e-33	0.33333	-0.409
Mof_H 	H 	0.0279	0.9237	0.71927	0.164
Mof_H 	H 	0.9721	0.0763	0.71927	0.169
Mof_H 	H 	0.1042	0.0763	0.61407	0.116
Mof_H 	H 	0.8958	0.9237	0.61407	0.222
Mof_N 	N 	-0	0	0.66667	-0.414
_end
