data_functionalizedCrystal
_audit_creation_method	'EQeq! by Chris Wilmer'
_symmetry_space_group_name_H-M	'P1'
_symmetry_Int_Tables_number	1
_symmetry_cell_setting	triclinic
loop_
_symmetry_equiv_pos_as_xyz
  x,y,z
_cell_length_a	20.812
_cell_length_b	6.6495
_cell_length_c	20.865
_cell_angle_alpha	90
_cell_angle_beta	90
_cell_angle_gamma	90
loop_
_atom_site_label
_atom_site_type_symbol
_atom_site_fract_x
_atom_site_fract_y
_atom_site_fract_z
_atom_site_charge
Mof_Ba	Ba	0.13996	0.39394	0.11495	1.812
Mof_O 	O 	0.09872	0.2435	0.33854	-0.417
Mof_O 	O 	0.13074	0.2627	0.23789	-0.531
Mof_O 	O 	0.3661	0.2566	0.48943	-0.408
Mof_O 	O 	0.2665	0.168	0.51095	-0.382
Mof_O 	O 	0.35963	0.2518	0.1823	-0.435
Mof_O 	O 	0.4329	0.2879	0.259	-0.42
Mof_O 	O 	0.0553	0.0492	0.1258	-0.407
Mof_O 	O 	0.22157	0.0343	0.12414	-0.349
Mof_O 	O 	0.0166	0.4948	0.1675	-0.412
Mof_C 	C 	0.1431	0.2522	0.2971	0.405
Mof_C 	C 	0.2115	0.25	0.3182	-0.201
Mof_C 	C 	0.2282	0.2393	0.3831	0.113
Mof_H 	H 	0.196	0.2336	0.414	0.001
Mof_C 	C 	0.2924	0.237	0.4022	-0.165
Mof_C 	C 	0.3401	0.248	0.3563	0.113
Mof_H 	H 	0.383	0.251	0.3687	0.003
Mof_C 	C 	0.3243	0.2546	0.2909	-0.206
Mof_C 	C 	0.2606	0.254	0.2727	0.141
Mof_H 	H 	0.2502	0.2562	0.2294	-0.046
Mof_C 	C 	0.3087	0.2204	0.472	0.348
Mof_C 	C 	0.3759	0.2654	0.2405	0.391
Mof_Ba	Ba	0.36004	0.10606	0.61495	1.834
Mof_O 	O 	0.40128	0.2565	0.83854	-0.404
Mof_O 	O 	0.36926	0.2373	0.73789	-0.545
Mof_O 	O 	0.1339	0.2434	0.98943	-0.425
Mof_O 	O 	0.2335	0.332	0.01095	-0.38
Mof_O 	O 	0.14037	0.2482	0.6823	-0.437
Mof_O 	O 	0.0671	0.2121	0.759	-0.433
Mof_O 	O 	0.4447	0.4508	0.6258	-0.395
Mof_O 	O 	0.27843	0.4657	0.62414	-0.351
Mof_O 	O 	0.4834	0.0052	0.6675	-0.377
Mof_C 	C 	0.3569	0.2478	0.7971	0.403
Mof_C 	C 	0.2885	0.25	0.8182	-0.202
Mof_C 	C 	0.2718	0.2607	0.8831	0.116
Mof_H 	H 	0.304	0.2664	0.914	0.004
Mof_C 	C 	0.2076	0.263	0.9022	-0.172
Mof_C 	C 	0.1599	0.252	0.8563	0.12
Mof_H 	H 	0.117	0.249	0.8687	-0.013
Mof_C 	C 	0.1757	0.2454	0.7909	-0.213
Mof_C 	C 	0.2394	0.246	0.7727	0.145
Mof_H 	H 	0.2498	0.2438	0.7294	-0.048
Mof_C 	C 	0.1913	0.2796	0.972	0.35
Mof_C 	C 	0.1241	0.2346	0.7405	0.396
Mof_Ba	Ba	0.86004	0.39394	0.38505	1.879
Mof_O 	O 	0.90128	0.2435	0.16146	-0.342
Mof_O 	O 	0.86926	0.2627	0.26211	-0.512
Mof_O 	O 	0.6339	0.2566	0.01057	-0.408
Mof_O 	O 	0.7335	0.168	0.98905	-0.382
Mof_O 	O 	0.64037	0.2518	0.3177	-0.435
Mof_O 	O 	0.5671	0.2879	0.241	-0.42
Mof_O 	O 	0.9447	0.0492	0.3742	-0.336
Mof_O 	O 	0.77843	0.0343	0.37586	-0.353
Mof_O 	O 	0.9834	0.4948	0.3325	-0.294
Mof_C 	C 	0.8569	0.2522	0.2029	0.391
Mof_C 	C 	0.7885	0.25	0.1818	-0.189
Mof_C 	C 	0.7718	0.2393	0.1169	0.105
Mof_H 	H 	0.804	0.2336	0.086	0.013
Mof_C 	C 	0.7076	0.237	0.0978	-0.16
Mof_C 	C 	0.6599	0.248	0.1437	0.109
Mof_H 	H 	0.617	0.251	0.1313	0.004
Mof_C 	C 	0.6757	0.2546	0.2091	-0.202
Mof_C 	C 	0.7394	0.254	0.2273	0.135
Mof_H 	H 	0.7498	0.2562	0.2706	-0.045
Mof_C 	C 	0.6913	0.2204	0.028	0.348
Mof_C 	C 	0.6241	0.2654	0.2595	0.39
Mof_Ba	Ba	0.63996	0.10606	0.88505	1.832
Mof_O 	O 	0.59872	0.2565	0.66146	-0.403
Mof_O 	O 	0.63074	0.2373	0.76211	-0.544
Mof_O 	O 	0.8661	0.2434	0.51057	-0.389
Mof_O 	O 	0.7665	0.332	0.48905	-0.379
Mof_O 	O 	0.85963	0.2482	0.8177	-0.425
Mof_O 	O 	0.9329	0.2121	0.741	-0.345
Mof_O 	O 	0.5553	0.4508	0.8742	-0.395
Mof_O 	O 	0.72157	0.4657	0.87586	-0.355
Mof_O 	O 	0.5166	0.0052	0.8325	-0.378
Mof_C 	C 	0.6431	0.2478	0.7029	0.398
Mof_C 	C 	0.7115	0.25	0.6818	-0.188
Mof_C 	C 	0.7282	0.2607	0.6169	0.099
Mof_H 	H 	0.696	0.2664	0.586	0.01
Mof_C 	C 	0.7924	0.263	0.5978	-0.147
Mof_C 	C 	0.8401	0.252	0.6437	0.092
Mof_H 	H 	0.883	0.249	0.6313	0.031
Mof_C 	C 	0.8243	0.2454	0.7091	-0.182
Mof_C 	C 	0.7606	0.246	0.7273	0.124
Mof_H 	H 	0.7502	0.2438	0.7706	-0.042
Mof_C 	C 	0.8087	0.2796	0.528	0.34
Mof_C 	C 	0.8759	0.2346	0.7595	0.371
Mof_Ba	Ba	0.86004	0.60606	0.88505	1.878
Mof_O 	O 	0.90128	0.7565	0.66146	-0.343
Mof_O 	O 	0.86926	0.7373	0.76211	-0.512
Mof_O 	O 	0.6339	0.7434	0.51057	-0.408
Mof_O 	O 	0.7335	0.832	0.48905	-0.379
Mof_O 	O 	0.64037	0.7482	0.8177	-0.435
Mof_O 	O 	0.5671	0.7121	0.741	-0.42
Mof_O 	O 	0.9447	0.9508	0.8742	-0.336
Mof_O 	O 	0.77843	0.9657	0.87586	-0.352
Mof_O 	O 	0.9834	0.5052	0.8325	-0.295
Mof_C 	C 	0.8569	0.7478	0.7029	0.391
Mof_C 	C 	0.7885	0.75	0.6818	-0.189
Mof_C 	C 	0.7718	0.7607	0.6169	0.104
Mof_H 	H 	0.804	0.7664	0.586	0.013
Mof_C 	C 	0.7076	0.763	0.5978	-0.159
Mof_C 	C 	0.6599	0.752	0.6437	0.108
Mof_H 	H 	0.617	0.749	0.6313	0.005
Mof_C 	C 	0.6757	0.7454	0.7091	-0.202
Mof_C 	C 	0.7394	0.746	0.7273	0.134
Mof_H 	H 	0.7498	0.7438	0.7706	-0.045
Mof_C 	C 	0.6913	0.7796	0.528	0.346
Mof_C 	C 	0.6241	0.7346	0.7595	0.389
Mof_Ba	Ba	0.63996	0.89394	0.38505	1.834
Mof_O 	O 	0.59872	0.7435	0.16146	-0.403
Mof_O 	O 	0.63074	0.7627	0.26211	-0.544
Mof_O 	O 	0.8661	0.7566	0.01057	-0.39
Mof_O 	O 	0.7665	0.668	0.98905	-0.381
Mof_O 	O 	0.85963	0.7518	0.3177	-0.425
Mof_O 	O 	0.9329	0.7879	0.241	-0.345
Mof_O 	O 	0.5553	0.5492	0.3742	-0.395
Mof_O 	O 	0.72157	0.5343	0.37586	-0.355
Mof_O 	O 	0.5166	0.9948	0.3325	-0.377
Mof_C 	C 	0.6431	0.7522	0.2029	0.398
Mof_C 	C 	0.7115	0.75	0.1818	-0.188
Mof_C 	C 	0.7282	0.7393	0.1169	0.099
Mof_H 	H 	0.696	0.7336	0.086	0.01
Mof_C 	C 	0.7924	0.737	0.0978	-0.147
Mof_C 	C 	0.8401	0.748	0.1437	0.092
Mof_H 	H 	0.883	0.751	0.1313	0.031
Mof_C 	C 	0.8243	0.7546	0.2091	-0.182
Mof_C 	C 	0.7606	0.754	0.2273	0.125
Mof_H 	H 	0.7502	0.7562	0.2706	-0.042
Mof_C 	C 	0.8087	0.7204	0.028	0.342
Mof_C 	C 	0.8759	0.7654	0.2595	0.371
Mof_Ba	Ba	0.13996	0.60606	0.61495	1.812
Mof_O 	O 	0.09872	0.7565	0.83854	-0.415
Mof_O 	O 	0.13074	0.7373	0.73789	-0.531
Mof_O 	O 	0.3661	0.7434	0.98943	-0.409
Mof_O 	O 	0.2665	0.832	0.01095	-0.382
Mof_O 	O 	0.35963	0.7482	0.6823	-0.435
Mof_O 	O 	0.4329	0.7121	0.759	-0.42
Mof_O 	O 	0.0553	0.9508	0.6258	-0.407
Mof_O 	O 	0.22157	0.9657	0.62414	-0.35
Mof_O 	O 	0.0166	0.5052	0.6675	-0.412
Mof_C 	C 	0.1431	0.7478	0.7971	0.405
Mof_C 	C 	0.2115	0.75	0.8182	-0.201
Mof_C 	C 	0.2282	0.7607	0.8831	0.113
Mof_H 	H 	0.196	0.7664	0.914	0.001
Mof_C 	C 	0.2924	0.763	0.9022	-0.165
Mof_C 	C 	0.3401	0.752	0.8563	0.113
Mof_H 	H 	0.383	0.749	0.8687	0.003
Mof_C 	C 	0.3243	0.7454	0.7909	-0.206
Mof_C 	C 	0.2606	0.746	0.7727	0.141
Mof_H 	H 	0.2502	0.7438	0.7294	-0.046
Mof_C 	C 	0.3087	0.7796	0.972	0.348
Mof_C 	C 	0.3759	0.7346	0.7405	0.391
Mof_Ba	Ba	0.36004	0.89394	0.11495	1.834
Mof_O 	O 	0.40128	0.7435	0.33854	-0.404
Mof_O 	O 	0.36926	0.7627	0.23789	-0.545
Mof_O 	O 	0.1339	0.7566	0.48943	-0.425
Mof_O 	O 	0.2335	0.668	0.51095	-0.381
Mof_O 	O 	0.14037	0.7518	0.1823	-0.437
Mof_O 	O 	0.0671	0.7879	0.259	-0.434
Mof_O 	O 	0.4447	0.5492	0.1258	-0.394
Mof_O 	O 	0.27843	0.5343	0.12414	-0.351
Mof_O 	O 	0.4834	0.9948	0.1675	-0.378
Mof_C 	C 	0.3569	0.7522	0.2971	0.403
Mof_C 	C 	0.2885	0.75	0.3182	-0.202
Mof_C 	C 	0.2718	0.7393	0.3831	0.116
Mof_H 	H 	0.304	0.7336	0.414	0.004
Mof_C 	C 	0.2076	0.737	0.4022	-0.173
Mof_C 	C 	0.1599	0.748	0.3563	0.121
Mof_H 	H 	0.117	0.751	0.3687	-0.013
Mof_C 	C 	0.1757	0.7546	0.2909	-0.213
Mof_C 	C 	0.2394	0.754	0.2727	0.145
Mof_H 	H 	0.2498	0.7562	0.2294	-0.048
Mof_C 	C 	0.1913	0.7204	0.472	0.352
Mof_C 	C 	0.1241	0.7654	0.2405	0.396
Mof_Ba	Ba	9.39737e-34	0.13785	0.25	1.687
Mof_Ba	Ba	0.5	0.36215	0.75	1.97
Mof_Ba	Ba	-5.92316e-33	0.86215	0.75	1.689
Mof_Ba	Ba	0.5	0.63785	0.25	1.97
_end
