data_functionalizedCrystal
_audit_creation_method	'EQeq! by Chris Wilmer'
_symmetry_space_group_name_H-M	'P1'
_symmetry_Int_Tables_number	1
_symmetry_cell_setting	triclinic
loop_
_symmetry_equiv_pos_as_xyz
  x,y,z
_cell_length_a	10.187
_cell_length_b	10.241
_cell_length_c	8.2137
_cell_angle_alpha	90.398
_cell_angle_beta	95.93
_cell_angle_gamma	117.325
loop_
_atom_site_label
_atom_site_type_symbol
_atom_site_fract_x
_atom_site_fract_y
_atom_site_fract_z
_atom_site_charge
Mof_V 	V 	0.98656	0.2153	0.35432	1.8
Mof_V 	V 	0.51973	0.78346	0.15204	1.702
Mof_V 	V 	0.78684	0.14798	0.6935	1.705
Mof_P 	P 	0.7831	0.8843	0.4557	0.592
Mof_P 	P 	0.1859	0.5368	0.2053	0.552
Mof_P 	P 	0.2867	0.8793	0.941	0.582
Mof_O 	O 	0.1198	0.4305	0.3383	-0.453
Mof_O 	O 	0.3662	0.7848	0.9809	-0.545
Mof_O 	O 	0.888	0.9975	0.3472	-0.552
Mof_O 	O 	0.6272	0.7942	0.3682	-0.557
Mof_O 	O 	0.1363	0.774	0.8412	-0.489
Mof_O 	O 	0.7728	0.9586	0.6148	-0.566
Mof_O 	O 	0.2606	0.9416	0.0971	-0.602
Mof_O 	O 	0.126	0.4445	0.0346	-0.241
Mof_O 	O 	0.8952	0.236	0.497	-0.779
Mof_O 	O 	0.353	0.6018	0.2248	-0.553
Mof_O 	O 	0.1276	0.6504	0.2022	-0.499
Mof_O 	O 	0.8443	0.7769	0.505	-0.503
Mof_O 	O 	0.3782	0.0028	0.8362	-0.594
Mof_V 	V 	0.01344	0.7847	0.64568	1.8
Mof_V 	V 	0.48027	0.21654	0.84796	1.702
Mof_V 	V 	0.21316	0.85202	0.3065	1.705
Mof_P 	P 	0.2169	0.1157	0.5443	0.592
Mof_P 	P 	0.8141	0.4632	0.7947	0.552
Mof_P 	P 	0.7133	0.1207	0.059	0.582
Mof_O 	O 	0.8802	0.5695	0.6617	-0.453
Mof_O 	O 	0.6338	0.2152	0.0191	-0.545
Mof_O 	O 	0.112	0.0025	0.6528	-0.552
Mof_O 	O 	0.3728	0.2058	0.6318	-0.557
Mof_O 	O 	0.8637	0.226	0.1588	-0.489
Mof_O 	O 	0.2272	0.0414	0.3852	-0.566
Mof_O 	O 	0.7394	0.0584	0.9029	-0.602
Mof_O 	O 	0.874	0.5555	0.9654	-0.241
Mof_O 	O 	0.1048	0.764	0.503	-0.779
Mof_O 	O 	0.647	0.3982	0.7752	-0.553
Mof_O 	O 	0.8724	0.3496	0.7978	-0.499
Mof_O 	O 	0.1557	0.2231	0.495	-0.503
Mof_O 	O 	0.6218	0.9972	0.1638	-0.594
_end
