data_functionalizedCrystal
_audit_creation_method	'EQeq! by Chris Wilmer'
_symmetry_space_group_name_H-M	'P1'
_symmetry_Int_Tables_number	1
_symmetry_cell_setting	triclinic
loop_
_symmetry_equiv_pos_as_xyz
  x,y,z
_cell_length_a	16.8395
_cell_length_b	16.8395
_cell_length_c	16.8395
_cell_angle_alpha	90
_cell_angle_beta	90
_cell_angle_gamma	90
loop_
_atom_site_label
_atom_site_type_symbol
_atom_site_fract_x
_atom_site_fract_y
_atom_site_fract_z
_atom_site_charge
Mof_O 	O 	0.90749	0.48362	0.194	-0.936
Mof_O 	O 	0.40749	0.98362	0.694	-0.948
Mof_O 	O 	0.09251	0.51638	0.194	-1.277
Mof_O 	O 	0.59251	0.01638	0.694	-1.441
Mof_O 	O 	0.09251	0.48362	0.806	-1.314
Mof_O 	O 	0.59251	0.98362	0.306	-0.869
Mof_O 	O 	0.90749	0.51638	0.806	-0.976
Mof_O 	O 	0.40749	0.01638	0.306	-1.403
Mof_O 	O 	0.194	0.90749	0.48362	-0.936
Mof_O 	O 	0.694	0.40749	0.98362	-0.949
Mof_O 	O 	0.194	0.09251	0.51638	-1.278
Mof_O 	O 	0.694	0.59251	0.01638	-1.442
Mof_O 	O 	0.806	0.09251	0.48362	-1.315
Mof_O 	O 	0.306	0.59251	0.98362	-0.87
Mof_O 	O 	0.806	0.90749	0.51638	-0.977
Mof_O 	O 	0.306	0.40749	0.01638	-1.404
Mof_O 	O 	0.48362	0.194	0.90749	-0.937
Mof_O 	O 	0.98362	0.694	0.40749	-0.949
Mof_O 	O 	0.51638	0.194	0.09251	-1.278
Mof_O 	O 	0.01638	0.694	0.59251	-1.442
Mof_O 	O 	0.48362	0.806	0.09251	-1.315
Mof_O 	O 	0.98362	0.306	0.59251	-0.87
Mof_O 	O 	0.51638	0.806	0.90749	-0.977
Mof_O 	O 	0.01638	0.306	0.40749	-1.404
Mof_O 	O 	0.48362	0.90749	0.194	-0.937
Mof_O 	O 	0.98362	0.40749	0.694	-0.949
Mof_O 	O 	0.51638	0.09251	0.194	-1.278
Mof_O 	O 	0.01638	0.59251	0.694	-1.442
Mof_O 	O 	0.48362	0.09251	0.806	-1.315
Mof_O 	O 	0.98362	0.59251	0.306	-0.87
Mof_O 	O 	0.51638	0.90749	0.806	-0.977
Mof_O 	O 	0.01638	0.40749	0.306	-1.404
Mof_O 	O 	0.90749	0.194	0.48362	-0.937
Mof_O 	O 	0.40749	0.694	0.98362	-0.949
Mof_O 	O 	0.09251	0.194	0.51638	-1.278
Mof_O 	O 	0.59251	0.694	0.01638	-1.442
Mof_O 	O 	0.09251	0.806	0.48362	-1.315
Mof_O 	O 	0.59251	0.306	0.98362	-0.87
Mof_O 	O 	0.90749	0.806	0.51638	-0.977
Mof_O 	O 	0.40749	0.306	0.01638	-1.404
Mof_O 	O 	0.194	0.48362	0.90749	-0.937
Mof_O 	O 	0.694	0.98362	0.40749	-0.949
Mof_O 	O 	0.194	0.51638	0.09251	-1.278
Mof_O 	O 	0.694	0.01638	0.59251	-1.442
Mof_O 	O 	0.806	0.48362	0.09251	-1.315
Mof_O 	O 	0.306	0.98362	0.59251	-0.87
Mof_O 	O 	0.806	0.51638	0.90749	-0.977
Mof_O 	O 	0.306	0.01638	0.40749	-1.404
Mof_Ga	Ga	-0	0.5	-0	-1.204
Mof_Ga	Ga	0.5	0	0.5	1.142
Mof_Ga	Ga	1.8747e-33	0	0.5	-1.204
Mof_Ga	Ga	0.5	0.5	-0	1.142
Mof_Ga	Ga	0.5	0	-0	-1.204
Mof_Ga	Ga	1.8747e-33	0.5	0.5	1.142
Mof_Li	Li	9.3735e-34	0.5	0.25	4.132
Mof_Li	Li	-2.47438e-33	0.5	0.75	4.563
Mof_Li	Li	0.5	0	0.25	4.132
Mof_Li	Li	0.25	0	0.5	4.132
Mof_Li	Li	0.75	0	0.5	4.563
Mof_Li	Li	0.25	0.5	-0	4.132
Mof_Li	Li	0.5	0.25	-0	4.132
Mof_Li	Li	0.5	0.75	-0	4.563
Mof_Li	Li	1.8747e-33	0.25	0.5	4.132
Mof_Li	Li	0.5	0	0.75	4.563
Mof_Li	Li	-3.41173e-33	0.75	0.5	4.563
Mof_Li	Li	0.75	0.5	-0	4.563
Mof_P 	P 	0.87669	0.43504	0.12331	0.757
Mof_O 	O 	0.85338	0.3525	0.14662	-0.351
Mof_O 	O 	0.94176	0.4302	0.05824	-0.106
Mof_P 	P 	0.37669	0.93504	0.62331	0.837
Mof_O 	O 	0.35338	0.8525	0.64662	-0.273
Mof_O 	O 	0.44176	0.9302	0.55824	-0.431
Mof_P 	P 	0.12331	0.56496	0.12331	0.736
Mof_O 	O 	0.14662	0.6475	0.14662	-0.49
Mof_O 	O 	0.05824	0.5698	0.05824	-0.522
Mof_P 	P 	0.62331	0.06496	0.62331	0.87
Mof_O 	O 	0.64662	0.1475	0.64662	-0.343
Mof_O 	O 	0.55824	0.0698	0.55824	-0.811
Mof_P 	P 	0.12331	0.43504	0.87669	0.757
Mof_O 	O 	0.14662	0.3525	0.85338	-0.351
Mof_O 	O 	0.05824	0.4302	0.94176	-0.106
Mof_P 	P 	0.62331	0.93504	0.37669	0.837
Mof_O 	O 	0.64662	0.8525	0.35338	-0.273
Mof_O 	O 	0.55824	0.9302	0.44176	-0.431
Mof_P 	P 	0.87669	0.56496	0.87669	0.775
Mof_O 	O 	0.85338	0.6475	0.85338	-0.067
Mof_O 	O 	0.94176	0.5698	0.94176	0.378
Mof_P 	P 	0.37669	0.06496	0.37669	0.834
Mof_O 	O 	0.35338	0.1475	0.35338	-0.416
Mof_O 	O 	0.44176	0.0698	0.44176	-0.797
Mof_P 	P 	0.12331	0.87669	0.43504	0.757
Mof_O 	O 	0.14662	0.85338	0.3525	-0.351
Mof_O 	O 	0.05824	0.94176	0.4302	-0.106
Mof_P 	P 	0.62331	0.37669	0.93504	0.837
Mof_O 	O 	0.64662	0.35338	0.8525	-0.273
Mof_O 	O 	0.55824	0.44176	0.9302	-0.431
Mof_P 	P 	0.12331	0.12331	0.56496	0.736
Mof_O 	O 	0.14662	0.14662	0.6475	-0.49
Mof_O 	O 	0.05824	0.05824	0.5698	-0.522
Mof_P 	P 	0.62331	0.62331	0.06496	0.87
Mof_O 	O 	0.64662	0.64662	0.1475	-0.343
Mof_O 	O 	0.55824	0.55824	0.0698	-0.811
Mof_P 	P 	0.87669	0.12331	0.43504	0.757
Mof_O 	O 	0.85338	0.14662	0.3525	-0.351
Mof_O 	O 	0.94176	0.05824	0.4302	-0.106
Mof_P 	P 	0.37669	0.62331	0.93504	0.837
Mof_O 	O 	0.35338	0.64662	0.8525	-0.273
Mof_O 	O 	0.44176	0.55824	0.9302	-0.431
Mof_P 	P 	0.87669	0.87669	0.56496	0.775
Mof_O 	O 	0.85338	0.85338	0.6475	-0.067
Mof_O 	O 	0.94176	0.94176	0.5698	0.378
Mof_P 	P 	0.37669	0.37669	0.06496	0.834
Mof_O 	O 	0.35338	0.35338	0.1475	-0.416
Mof_O 	O 	0.44176	0.44176	0.0698	-0.797
Mof_P 	P 	0.43504	0.12331	0.87669	0.757
Mof_O 	O 	0.3525	0.14662	0.85338	-0.351
Mof_O 	O 	0.4302	0.05824	0.94176	-0.106
Mof_P 	P 	0.93504	0.62331	0.37669	0.837
Mof_O 	O 	0.8525	0.64662	0.35338	-0.273
Mof_O 	O 	0.9302	0.55824	0.44176	-0.431
Mof_P 	P 	0.56496	0.12331	0.12331	0.736
Mof_O 	O 	0.6475	0.14662	0.14662	-0.49
Mof_O 	O 	0.5698	0.05824	0.05824	-0.522
Mof_P 	P 	0.06496	0.62331	0.62331	0.87
Mof_O 	O 	0.1475	0.64662	0.64662	-0.343
Mof_O 	O 	0.0698	0.55824	0.55824	-0.811
Mof_P 	P 	0.43504	0.87669	0.12331	0.757
Mof_O 	O 	0.3525	0.85338	0.14662	-0.351
Mof_O 	O 	0.4302	0.94176	0.05824	-0.106
Mof_P 	P 	0.93504	0.37669	0.62331	0.837
Mof_O 	O 	0.8525	0.35338	0.64662	-0.273
Mof_O 	O 	0.9302	0.44176	0.55824	-0.431
Mof_P 	P 	0.56496	0.87669	0.87669	0.775
Mof_O 	O 	0.6475	0.85338	0.85338	-0.067
Mof_O 	O 	0.5698	0.94176	0.94176	0.378
Mof_P 	P 	0.06496	0.37669	0.37669	0.834
Mof_O 	O 	0.1475	0.35338	0.35338	-0.416
Mof_O 	O 	0.0698	0.44176	0.44176	-0.797
_end
