data_functionalizedCrystal
_audit_creation_method	'EQeq! by Chris Wilmer'
_symmetry_space_group_name_H-M	'P1'
_symmetry_Int_Tables_number	1
_symmetry_cell_setting	triclinic
loop_
_symmetry_equiv_pos_as_xyz
  x,y,z
_cell_length_a	26.242
_cell_length_b	26.242
_cell_length_c	9.5644
_cell_angle_alpha	90
_cell_angle_beta	90
_cell_angle_gamma	120
loop_
_atom_site_label
_atom_site_type_symbol
_atom_site_fract_x
_atom_site_fract_y
_atom_site_fract_z
_atom_site_charge
Mof_N 	N 	0.3317	0.2188	0.3076	-0.177
Mof_C 	C 	0.4512	0.27	0.1735	0.084
Mof_H 	H 	0.4304	0.2901	0.1751	-0.022
Mof_C 	C 	0.5127	0.3022	0.1713	-0.149
Mof_H 	H 	0.5326	0.3431	0.1705	0.081
Mof_C 	C 	0.3269	0.2516	0.3815	-0.109
Mof_N 	N 	0.99837	0.55213	0.64093	-0.166
Mof_C 	C 	0.11787	0.60333	0.50683	0.082
Mof_H 	H 	0.09707	0.62343	0.50843	-0.023
Mof_C 	C 	0.17937	0.63553	0.50463	-0.149
Mof_H 	H 	0.19927	0.67643	0.50383	0.081
Mof_C 	C 	0.99357	0.58493	0.71483	-0.103
Mof_N 	N 	0.66503	0.88547	0.97427	-0.176
Mof_C 	C 	0.78453	0.93667	0.84017	0.056
Mof_H 	H 	0.76373	0.95677	0.84177	-0.005
Mof_C 	C 	0.84603	0.96887	0.83797	-0.083
Mof_H 	H 	0.86593	0.00977	0.83717	0.046
Mof_C 	C 	0.66023	0.91827	0.04817	-0.107
Mof_N 	N 	0.7812	0.1129	0.3076	-0.178
Mof_C 	C 	0.73	0.1812	0.1735	0.085
Mof_H 	H 	0.7099	0.1403	0.1751	-0.024
Mof_C 	C 	0.6978	0.2105	0.1713	-0.149
Mof_H 	H 	0.6569	0.1895	0.1705	0.081
Mof_C 	C 	0.7484	0.0753	0.3815	-0.105
Mof_N 	N 	0.44787	0.44623	0.64093	-0.176
Mof_C 	C 	0.39667	0.51453	0.50683	0.084
Mof_H 	H 	0.37657	0.47363	0.50843	-0.021
Mof_C 	C 	0.36447	0.54383	0.50463	-0.148
Mof_H 	H 	0.32357	0.52283	0.50383	0.082
Mof_C 	C 	0.41507	0.40863	0.71483	-0.108
Mof_N 	N 	0.11453	0.77957	0.97427	-0.176
Mof_C 	C 	0.06333	0.84787	0.84017	0.102
Mof_H 	H 	0.04323	0.80697	0.84177	-0.033
Mof_C 	C 	0.03113	0.87717	0.83797	-0.19
Mof_H 	H 	0.99023	0.85617	0.83717	0.111
Mof_C 	C 	0.08173	0.74197	0.04817	-0.112
Mof_N 	N 	0.8871	0.6683	0.3076	-0.18
Mof_C 	C 	0.8188	0.5488	0.1735	0.084
Mof_H 	H 	0.8597	0.5696	0.1751	-0.019
Mof_C 	C 	0.7895	0.4873	0.1713	-0.148
Mof_H 	H 	0.8105	0.4674	0.1705	0.083
Mof_C 	C 	0.9247	0.6731	0.3815	-0.086
Mof_N 	N 	0.55377	0.00163	0.64093	-0.178
Mof_C 	C 	0.48547	0.88213	0.50683	0.084
Mof_H 	H 	0.52637	0.90293	0.50843	-0.016
Mof_C 	C 	0.45617	0.82063	0.50463	-0.146
Mof_H 	H 	0.47717	0.80073	0.50383	0.082
Mof_C 	C 	0.59137	0.00643	0.71483	-0.114
Mof_N 	N 	0.22043	0.33497	0.97427	-0.176
Mof_C 	C 	0.15213	0.21547	0.84017	0.095
Mof_H 	H 	0.19303	0.23627	0.84177	-0.025
Mof_C 	C 	0.12283	0.15397	0.83797	-0.167
Mof_H 	H 	0.14383	0.13407	0.83717	0.088
Mof_C 	C 	0.25803	0.33977	0.04817	-0.109
Mof_N 	N 	0.2188	0.3317	0.6924	-0.176
Mof_C 	C 	0.27	0.4512	0.8265	0.085
Mof_H 	H 	0.2901	0.4304	0.8249	-0.021
Mof_C 	C 	0.3022	0.5127	0.8287	-0.148
Mof_H 	H 	0.3431	0.5326	0.8295	0.082
Mof_C 	C 	0.2516	0.3269	0.6185	-0.108
Mof_N 	N 	0.88547	0.66503	0.02573	-0.175
Mof_C 	C 	0.93667	0.78453	0.15983	0.056
Mof_H 	H 	0.95677	0.76373	0.15823	-0.005
Mof_C 	C 	0.96887	0.84603	0.16203	-0.083
Mof_H 	H 	0.00977	0.86593	0.16283	0.046
Mof_C 	C 	0.91827	0.66023	0.95183	-0.107
Mof_N 	N 	0.55213	0.99837	0.35907	-0.165
Mof_C 	C 	0.60333	0.11787	0.49317	0.083
Mof_H 	H 	0.62343	0.09707	0.49157	-0.022
Mof_C 	C 	0.63553	0.17937	0.49537	-0.148
Mof_H 	H 	0.67643	0.19927	0.49617	0.082
Mof_C 	C 	0.58493	0.99357	0.28517	-0.102
Mof_N 	N 	0.1129	0.7812	0.6924	-0.178
Mof_C 	C 	0.1812	0.73	0.8265	0.085
Mof_H 	H 	0.1403	0.7099	0.8249	-0.024
Mof_C 	C 	0.2105	0.6978	0.8287	-0.149
Mof_H 	H 	0.1895	0.6569	0.8295	0.081
Mof_C 	C 	0.0753	0.7484	0.6185	-0.105
Mof_N 	N 	0.77957	0.11453	0.02573	-0.176
Mof_C 	C 	0.84787	0.06333	0.15983	0.102
Mof_H 	H 	0.80697	0.04323	0.15823	-0.033
Mof_C 	C 	0.87717	0.03113	0.16203	-0.19
Mof_H 	H 	0.85617	0.99023	0.16283	0.111
Mof_C 	C 	0.74197	0.08173	0.95183	-0.112
Mof_N 	N 	0.44623	0.44787	0.35907	-0.176
Mof_C 	C 	0.51453	0.39667	0.49317	0.084
Mof_H 	H 	0.47363	0.37657	0.49157	-0.021
Mof_C 	C 	0.54383	0.36447	0.49537	-0.148
Mof_H 	H 	0.52283	0.32357	0.49617	0.082
Mof_C 	C 	0.40863	0.41507	0.28517	-0.108
Mof_N 	N 	0.6683	0.8871	0.6924	-0.18
Mof_C 	C 	0.5488	0.8188	0.8265	0.084
Mof_H 	H 	0.5696	0.8597	0.8249	-0.019
Mof_C 	C 	0.4873	0.7895	0.8287	-0.148
Mof_H 	H 	0.4674	0.8105	0.8295	0.083
Mof_C 	C 	0.6731	0.9247	0.6185	-0.086
Mof_N 	N 	0.33497	0.22043	0.02573	-0.176
Mof_C 	C 	0.21547	0.15213	0.15983	0.095
Mof_H 	H 	0.23627	0.19303	0.15823	-0.025
Mof_C 	C 	0.15397	0.12283	0.16203	-0.167
Mof_H 	H 	0.13407	0.14383	0.16283	0.088
Mof_C 	C 	0.33977	0.25803	0.95183	-0.109
Mof_N 	N 	0.00163	0.55377	0.35907	-0.178
Mof_C 	C 	0.88213	0.48547	0.49317	0.084
Mof_H 	H 	0.90293	0.52637	0.49157	-0.016
Mof_C 	C 	0.82063	0.45617	0.49537	-0.146
Mof_H 	H 	0.80073	0.47717	0.49617	0.082
Mof_C 	C 	0.00643	0.59137	0.28517	-0.114
Mof_N 	N 	0.6683	0.7812	0.6924	-0.176
Mof_C 	C 	0.5488	0.73	0.8265	0.085
Mof_H 	H 	0.5696	0.7099	0.8249	-0.021
Mof_C 	C 	0.4873	0.6978	0.8287	-0.148
Mof_H 	H 	0.4674	0.6569	0.8295	0.082
Mof_C 	C 	0.6731	0.7484	0.6185	-0.108
Mof_N 	N 	0.33497	0.11453	0.02573	-0.177
Mof_C 	C 	0.21547	0.06333	0.15983	0.113
Mof_H 	H 	0.23627	0.04323	0.15823	-0.037
Mof_C 	C 	0.15397	0.03113	0.16203	-0.211
Mof_H 	H 	0.13407	0.99023	0.16283	0.117
Mof_C 	C 	0.33977	0.08173	0.95183	-0.111
Mof_N 	N 	0.00163	0.44787	0.35907	-0.178
Mof_C 	C 	0.88213	0.39667	0.49317	0.084
Mof_H 	H 	0.90293	0.37657	0.49157	-0.016
Mof_C 	C 	0.82063	0.36447	0.49537	-0.146
Mof_H 	H 	0.80073	0.32357	0.49617	0.082
Mof_C 	C 	0.00643	0.41507	0.28517	-0.114
Mof_N 	N 	0.2188	0.8871	0.6924	-0.18
Mof_C 	C 	0.27	0.8188	0.8265	0.084
Mof_H 	H 	0.2901	0.8597	0.8249	-0.019
Mof_C 	C 	0.3022	0.7895	0.8287	-0.148
Mof_H 	H 	0.3431	0.8105	0.8295	0.083
Mof_C 	C 	0.2516	0.9247	0.6185	-0.086
Mof_N 	N 	0.88547	0.22043	0.02573	-0.174
Mof_C 	C 	0.93667	0.15213	0.15983	0.065
Mof_H 	H 	0.95677	0.19303	0.15823	-0.008
Mof_C 	C 	0.96887	0.12283	0.16203	-0.1
Mof_H 	H 	0.00977	0.14383	0.16283	0.051
Mof_C 	C 	0.91827	0.25803	0.95183	-0.107
Mof_N 	N 	0.55213	0.55377	0.35907	-0.176
Mof_C 	C 	0.60333	0.48547	0.49317	0.085
Mof_H 	H 	0.62343	0.52637	0.49157	-0.021
Mof_C 	C 	0.63553	0.45617	0.49537	-0.148
Mof_H 	H 	0.67643	0.47717	0.49617	0.082
Mof_C 	C 	0.58493	0.59137	0.28517	-0.108
Mof_N 	N 	0.1129	0.3317	0.6924	-0.178
Mof_C 	C 	0.1812	0.4512	0.8265	0.085
Mof_H 	H 	0.1403	0.4304	0.8249	-0.024
Mof_C 	C 	0.2105	0.5127	0.8287	-0.149
Mof_H 	H 	0.1895	0.5326	0.8295	0.081
Mof_C 	C 	0.0753	0.3269	0.6185	-0.105
Mof_N 	N 	0.77957	0.66503	0.02573	-0.176
Mof_C 	C 	0.84787	0.78453	0.15983	0.074
Mof_H 	H 	0.80697	0.76373	0.15823	-0.018
Mof_C 	C 	0.87717	0.84603	0.16203	-0.128
Mof_H 	H 	0.85617	0.86593	0.16283	0.076
Mof_C 	C 	0.74197	0.66023	0.95183	-0.108
Mof_N 	N 	0.44623	0.99837	0.35907	-0.165
Mof_C 	C 	0.51453	0.11787	0.49317	0.083
Mof_H 	H 	0.47363	0.09707	0.49157	-0.022
Mof_C 	C 	0.54383	0.17937	0.49537	-0.148
Mof_H 	H 	0.52283	0.19927	0.49617	0.082
Mof_C 	C 	0.40863	0.99357	0.28517	-0.102
Mof_N 	N 	0.7812	0.6683	0.3076	-0.176
Mof_C 	C 	0.73	0.5488	0.1735	0.085
Mof_H 	H 	0.7099	0.5696	0.1751	-0.021
Mof_C 	C 	0.6978	0.4873	0.1713	-0.148
Mof_H 	H 	0.6569	0.4674	0.1705	0.082
Mof_C 	C 	0.7484	0.6731	0.3815	-0.108
Mof_N 	N 	0.44787	0.00163	0.64093	-0.178
Mof_C 	C 	0.39667	0.88213	0.50683	0.084
Mof_H 	H 	0.37657	0.90293	0.50843	-0.016
Mof_C 	C 	0.36447	0.82063	0.50463	-0.146
Mof_H 	H 	0.32357	0.80073	0.50383	0.082
Mof_C 	C 	0.41507	0.00643	0.71483	-0.114
Mof_N 	N 	0.11453	0.33497	0.97427	-0.177
Mof_C 	C 	0.06333	0.21547	0.84017	0.113
Mof_H 	H 	0.04323	0.23627	0.84177	-0.037
Mof_C 	C 	0.03113	0.15397	0.83797	-0.211
Mof_H 	H 	0.99023	0.13407	0.83717	0.117
Mof_C 	C 	0.08173	0.33977	0.04817	-0.111
Mof_N 	N 	0.8871	0.2188	0.3076	-0.18
Mof_C 	C 	0.8188	0.27	0.1735	0.084
Mof_H 	H 	0.8597	0.2901	0.1751	-0.019
Mof_C 	C 	0.7895	0.3022	0.1713	-0.148
Mof_H 	H 	0.8105	0.3431	0.1705	0.083
Mof_C 	C 	0.9247	0.2516	0.3815	-0.086
Mof_N 	N 	0.55377	0.55213	0.64093	-0.176
Mof_C 	C 	0.48547	0.60333	0.50683	0.085
Mof_H 	H 	0.52637	0.62343	0.50843	-0.021
Mof_C 	C 	0.45617	0.63553	0.50463	-0.148
Mof_H 	H 	0.47717	0.67643	0.50383	0.082
Mof_C 	C 	0.59137	0.58493	0.71483	-0.108
Mof_N 	N 	0.22043	0.88547	0.97427	-0.174
Mof_C 	C 	0.15213	0.93667	0.84017	0.065
Mof_H 	H 	0.19303	0.95677	0.84177	-0.008
Mof_C 	C 	0.12283	0.96887	0.83797	-0.1
Mof_H 	H 	0.14383	0.00977	0.83717	0.051
Mof_C 	C 	0.25803	0.91827	0.04817	-0.107
Mof_N 	N 	0.3317	0.1129	0.3076	-0.178
Mof_C 	C 	0.4512	0.1812	0.1735	0.085
Mof_H 	H 	0.4304	0.1403	0.1751	-0.024
Mof_C 	C 	0.5127	0.2105	0.1713	-0.149
Mof_H 	H 	0.5326	0.1895	0.1705	0.081
Mof_C 	C 	0.3269	0.0753	0.3815	-0.105
Mof_N 	N 	0.99837	0.44623	0.64093	-0.165
Mof_C 	C 	0.11787	0.51453	0.50683	0.083
Mof_H 	H 	0.09707	0.47363	0.50843	-0.022
Mof_C 	C 	0.17937	0.54383	0.50463	-0.148
Mof_H 	H 	0.19927	0.52283	0.50383	0.082
Mof_C 	C 	0.99357	0.40863	0.71483	-0.102
Mof_N 	N 	0.66503	0.77957	0.97427	-0.176
Mof_C 	C 	0.78453	0.84787	0.84017	0.074
Mof_H 	H 	0.76373	0.80697	0.84177	-0.018
Mof_C 	C 	0.84603	0.87717	0.83797	-0.128
Mof_H 	H 	0.86593	0.85617	0.83717	0.076
Mof_C 	C 	0.66023	0.74197	0.04817	-0.108
Mof_Ag	Ag	0.2986	0.2986	0.5	0.394
Mof_Ag	Ag	0.96527	0.63193	0.83333	0.422
Mof_Ag	Ag	0.63193	0.96527	0.16667	0.422
Mof_Ag	Ag	0.7014	4.42556e-33	0.5	0.356
Mof_Ag	Ag	0.36807	0.33333	0.83333	0.395
Mof_Ag	Ag	0.03473	0.66667	0.16667	0.377
Mof_Ag	Ag	1.75446e-17	0.7014	0.5	0.356
Mof_Ag	Ag	0.66667	0.03473	0.83333	0.377
Mof_Ag	Ag	0.33333	0.36807	0.16667	0.395
Mof_Ag	Ag	0.7014	0.7014	0.5	0.397
Mof_Ag	Ag	0.36807	0.03473	0.83333	0.377
Mof_Ag	Ag	0.03473	0.36807	0.16667	0.377
Mof_Ag	Ag	0.2986	4.42556e-33	0.5	0.355
Mof_Ag	Ag	0.96527	0.33333	0.83333	0.423
Mof_Ag	Ag	0.63193	0.66667	0.16667	0.395
Mof_Ag	Ag	1.75446e-17	0.2986	0.5	0.355
Mof_Ag	Ag	0.66667	0.63193	0.83333	0.395
Mof_Ag	Ag	0.33333	0.96527	0.16667	0.423
Mof_Fe	Fe	0.33333	0.16667	0.16667	0.734
Mof_Fe	Fe	-2.23173e-17	0.5	0.5	0.703
Mof_Fe	Fe	0.83333	0.16667	0.16667	0.735
Mof_Fe	Fe	0.5	0.5	0.5	0.734
Mof_Fe	Fe	0.83333	0.66667	0.16667	0.735
Mof_Fe	Fe	0.5	4.42556e-33	0.5	0.703
Mof_Fe	Fe	0.16667	0.33333	0.83333	0.734
Mof_Fe	Fe	0.16667	0.83333	0.83333	0.735
Mof_Fe	Fe	0.66667	0.83333	0.83333	0.735
Mof_N 	N 	0.421	0.2105	0.1733	-0.209
Mof_C 	C 	0.5438	0.2719	0.1702	0.066
Mof_C 	C 	0.6089	0.30445	0.1645	0.092
Mof_N 	N 	0.08767	0.54383	0.50663	-0.208
Mof_C 	C 	0.21047	0.60523	0.50353	0.065
Mof_C 	C 	0.27557	0.63778	0.49783	0.093
Mof_N 	N 	0.75433	0.87717	0.83997	-0.201
Mof_C 	C 	0.87713	0.93857	0.83687	0.037
Mof_C 	C 	0.94223	0.97112	0.83117	0.124
Mof_N 	N 	0.7895	0.2105	0.1733	-0.208
Mof_C 	C 	0.7281	0.2719	0.1702	0.066
Mof_C 	C 	0.69555	0.30445	0.1645	0.093
Mof_N 	N 	0.45617	0.54383	0.50663	-0.208
Mof_C 	C 	0.39477	0.60523	0.50353	0.066
Mof_C 	C 	0.36222	0.63778	0.49783	0.092
Mof_N 	N 	0.12283	0.87717	0.83997	-0.208
Mof_C 	C 	0.06143	0.93857	0.83687	0.064
Mof_C 	C 	0.02888	0.97112	0.83117	0.095
Mof_N 	N 	0.7895	0.579	0.1733	-0.208
Mof_C 	C 	0.7281	0.4562	0.1702	0.066
Mof_C 	C 	0.69555	0.3911	0.1645	0.093
Mof_N 	N 	0.45617	0.91233	0.50663	-0.2
Mof_C 	C 	0.39477	0.78953	0.50353	0.065
Mof_C 	C 	0.36222	0.72443	0.49783	0.093
Mof_N 	N 	0.12283	0.24567	0.83997	-0.216
Mof_C 	C 	0.06143	0.12287	0.83687	0.094
Mof_C 	C 	0.02888	0.05777	0.83117	0.062
Mof_N 	N 	0.2105	0.421	0.8267	-0.209
Mof_C 	C 	0.2719	0.5438	0.8298	0.066
Mof_C 	C 	0.30445	0.6089	0.8355	0.092
Mof_N 	N 	0.87717	0.75433	0.16003	-0.201
Mof_C 	C 	0.93857	0.87713	0.16313	0.037
Mof_C 	C 	0.97112	0.94223	0.16883	0.124
Mof_N 	N 	0.54383	0.08767	0.49337	-0.208
Mof_C 	C 	0.60523	0.21047	0.49647	0.065
Mof_C 	C 	0.63778	0.27557	0.50217	0.093
Mof_N 	N 	0.2105	0.7895	0.8267	-0.208
Mof_C 	C 	0.2719	0.7281	0.8298	0.066
Mof_C 	C 	0.30445	0.69555	0.8355	0.093
Mof_N 	N 	0.87717	0.12283	0.16003	-0.208
Mof_C 	C 	0.93857	0.06143	0.16313	0.064
Mof_C 	C 	0.97112	0.02888	0.16883	0.095
Mof_N 	N 	0.54383	0.45617	0.49337	-0.208
Mof_C 	C 	0.60523	0.39477	0.49647	0.066
Mof_C 	C 	0.63778	0.36222	0.50217	0.092
Mof_N 	N 	0.579	0.7895	0.8267	-0.208
Mof_C 	C 	0.4562	0.7281	0.8298	0.066
Mof_C 	C 	0.3911	0.69555	0.8355	0.093
Mof_N 	N 	0.24567	0.12283	0.16003	-0.216
Mof_C 	C 	0.12287	0.06143	0.16313	0.094
Mof_C 	C 	0.05777	0.02888	0.16883	0.062
Mof_N 	N 	0.91233	0.45617	0.49337	-0.2
Mof_C 	C 	0.78953	0.39477	0.49647	0.065
Mof_C 	C 	0.72443	0.36222	0.50217	0.093
Mof_N 	N 	0.63614	0.36386	0.1654	-0.136
Mof_N 	N 	0.30281	0.69719	0.49873	-0.136
Mof_N 	N 	0.96947	0.03053	0.83207	-0.137
Mof_N 	N 	0.63614	0.27228	0.1654	-0.136
Mof_N 	N 	0.30281	0.60561	0.49873	-0.136
Mof_N 	N 	0.96947	0.93895	0.83207	-0.13
Mof_N 	N 	0.72772	0.36386	0.1654	-0.136
Mof_N 	N 	0.39439	0.69719	0.49873	-0.136
Mof_N 	N 	0.06105	0.03053	0.83207	-0.144
Mof_N 	N 	0.36386	0.63614	0.8346	-0.136
Mof_N 	N 	0.03053	0.96947	0.16793	-0.137
Mof_N 	N 	0.69719	0.30281	0.50127	-0.136
Mof_N 	N 	0.27228	0.63614	0.8346	-0.136
Mof_N 	N 	0.93895	0.96947	0.16793	-0.13
Mof_N 	N 	0.60561	0.30281	0.50127	-0.136
Mof_N 	N 	0.36386	0.72772	0.8346	-0.136
Mof_N 	N 	0.03053	0.06105	0.16793	-0.144
Mof_N 	N 	0.69719	0.39439	0.50127	-0.136
_end
