data_functionalizedCrystal
_audit_creation_method	'EQeq! by Chris Wilmer'
_symmetry_space_group_name_H-M	'P1'
_symmetry_Int_Tables_number	1
_symmetry_cell_setting	triclinic
loop_
_symmetry_equiv_pos_as_xyz
  x,y,z
_cell_length_a	16.0324
_cell_length_b	6.3798
_cell_length_c	15.1705
_cell_angle_alpha	90
_cell_angle_beta	90
_cell_angle_gamma	90
loop_
_atom_site_label
_atom_site_type_symbol
_atom_site_fract_x
_atom_site_fract_y
_atom_site_fract_z
_atom_site_charge
Mof_N 	N 	0.3727	0.9229	0.1452	-0.235
Mof_N 	N 	0.4261	0.8519	0.0852	-0.156
Mof_H 	H 	0.2234	0.8153	0.2281	0.318
Mof_H 	H 	0.2937	0.8293	0.3027	0.316
Mof_H 	H 	0.262	0.6054	0.269	0.294
Mof_N 	N 	0.1273	0.0771	0.6452	-0.274
Mof_N 	N 	0.0739	0.1481	0.5852	-0.188
Mof_H 	H 	0.2766	0.1847	0.7281	0.29
Mof_H 	H 	0.2063	0.1707	0.8027	0.293
Mof_H 	H 	0.238	0.3946	0.769	0.286
Mof_N 	N 	0.6273	0.4229	0.8548	-0.248
Mof_N 	N 	0.5739	0.3519	0.9148	-0.149
Mof_H 	H 	0.7766	0.3153	0.7719	0.308
Mof_H 	H 	0.7063	0.3293	0.6973	0.301
Mof_H 	H 	0.738	0.1054	0.731	0.277
Mof_N 	N 	0.8727	0.5771	0.3548	-0.255
Mof_N 	N 	0.9261	0.6481	0.4148	-0.146
Mof_H 	H 	0.7234	0.6847	0.2719	0.316
Mof_H 	H 	0.7937	0.6707	0.1973	0.313
Mof_H 	H 	0.762	0.8946	0.231	0.316
Mof_N 	N 	0.6273	0.0771	0.8548	-0.27
Mof_N 	N 	0.5739	0.1481	0.9148	-0.159
Mof_H 	H 	0.7766	0.1847	0.7719	0.299
Mof_H 	H 	0.7063	0.1707	0.6973	0.296
Mof_H 	H 	0.738	0.3946	0.731	0.292
Mof_N 	N 	0.8727	0.9229	0.3548	-0.231
Mof_N 	N 	0.9261	0.8519	0.4148	-0.128
Mof_H 	H 	0.7234	0.8153	0.2719	0.326
Mof_H 	H 	0.7937	0.8293	0.1973	0.319
Mof_H 	H 	0.762	0.6054	0.231	0.301
Mof_N 	N 	0.3727	0.5771	0.1452	-0.258
Mof_N 	N 	0.4261	0.6481	0.0852	-0.174
Mof_H 	H 	0.2234	0.6847	0.2281	0.308
Mof_H 	H 	0.2937	0.6707	0.3027	0.31
Mof_H 	H 	0.262	0.8946	0.269	0.31
Mof_N 	N 	0.1273	0.4229	0.6452	-0.251
Mof_N 	N 	0.0739	0.3519	0.5852	-0.177
Mof_H 	H 	0.2766	0.3153	0.7281	0.299
Mof_H 	H 	0.2063	0.3293	0.8027	0.299
Mof_H 	H 	0.238	0.1054	0.769	0.271
Mof_Cu	Cu	0.36766	0.25	0.15893	0.899
Mof_O 	O 	0.4723	0.25	0.2323	-0.401
Mof_O 	O 	0.3614	0.25	0.3172	-0.38
Mof_O 	O 	0.4378	0.25	0.0268	-0.696
Mof_C 	C 	0.4389	0.25	0.3091	0.315
Mof_O 	O 	0.7515	0.25	0.3675	-0.441
Mof_H 	H 	0.3922	0.25	0.982	0.203
Mof_C 	C 	0.4944	0.25	0.3876	-0.081
Mof_C 	C 	0.5793	0.25	0.3794	0.035
Mof_C 	C 	0.4584	0.25	0.4715	-0.044
Mof_H 	H 	0.6035	0.25	0.3223	0.026
Mof_C 	C 	0.6324	0.25	0.4555	-0.101
Mof_C 	C 	0.5093	0.25	0.5445	0.052
Mof_H 	H 	0.3995	0.25	0.4781	0.061
Mof_C 	C 	0.5954	0.25	0.5376	-0.025
Mof_C 	C 	0.7253	0.25	0.447	0.355
Mof_N 	N 	0.4705	0.25	0.6307	-0.004
Mof_H 	H 	0.629	0.25	0.5893	0.028
Mof_O 	O 	0.769	0.25	0.5124	-0.35
Mof_O 	O 	0.5174	0.25	0.6967	-0.164
Mof_O 	O 	0.3948	0.25	0.6366	-0.187
Mof_Cu	Cu	0.13234	0.75	0.65893	0.926
Mof_O 	O 	0.0277	0.75	0.7323	-0.39
Mof_O 	O 	0.1386	0.75	0.8172	-0.336
Mof_O 	O 	0.0622	0.75	0.5268	-0.608
Mof_C 	C 	0.0611	0.75	0.8091	0.337
Mof_O 	O 	0.7485	0.75	0.8675	-0.419
Mof_H 	H 	0.1078	0.75	0.482	0.144
Mof_C 	C 	0.0056	0.75	0.8876	-0.121
Mof_C 	C 	0.9207	0.75	0.8794	0.125
Mof_C 	C 	0.0416	0.75	0.9715	-0.057
Mof_H 	H 	0.8965	0.75	0.8223	0.039
Mof_C 	C 	0.8676	0.75	0.9555	-0.014
Mof_C 	C 	0.9907	0.75	0.0445	0.167
Mof_H 	H 	0.1005	0.75	0.9781	0.109
Mof_C 	C 	0.9046	0.75	0.0376	-0.136
Mof_C 	C 	0.7747	0.75	0.947	0.438
Mof_N 	N 	0.0295	0.75	0.1307	-0.076
Mof_H 	H 	0.871	0.75	0.0893	0.07
Mof_O 	O 	0.731	0.75	0.0124	-0.409
Mof_O 	O 	0.9826	0.75	0.1967	-0.085
Mof_O 	O 	0.1052	0.75	0.1366	-0.177
Mof_Cu	Cu	0.63234	0.75	0.84107	0.932
Mof_O 	O 	0.5277	0.75	0.7677	-0.36
Mof_O 	O 	0.6386	0.75	0.6828	-0.333
Mof_O 	O 	0.5622	0.75	0.9732	-0.504
Mof_C 	C 	0.5611	0.75	0.6909	0.314
Mof_O 	O 	0.2485	0.75	0.6325	-0.407
Mof_H 	H 	0.6078	0.75	0.018	0.091
Mof_C 	C 	0.5056	0.75	0.6124	-0.04
Mof_C 	C 	0.4207	0.75	0.6206	0.033
Mof_C 	C 	0.5416	0.75	0.5285	-0.048
Mof_H 	H 	0.3965	0.75	0.6777	0.053
Mof_C 	C 	0.3676	0.75	0.5445	-0.071
Mof_C 	C 	0.4907	0.75	0.4555	0.089
Mof_H 	H 	0.6005	0.75	0.5219	0.087
Mof_C 	C 	0.4046	0.75	0.4624	-0.026
Mof_C 	C 	0.2747	0.75	0.553	0.358
Mof_N 	N 	0.5295	0.75	0.3693	-0.001
Mof_H 	H 	0.371	0.75	0.4107	0.04
Mof_O 	O 	0.231	0.75	0.4876	-0.34
Mof_O 	O 	0.4826	0.75	0.3033	-0.137
Mof_O 	O 	0.6052	0.75	0.3634	-0.157
Mof_Cu	Cu	0.86766	0.25	0.34107	0.905
Mof_O 	O 	0.9723	0.25	0.2677	-0.369
Mof_O 	O 	0.8614	0.25	0.1828	-0.376
Mof_O 	O 	0.9378	0.25	0.4732	-0.588
Mof_C 	C 	0.9389	0.25	0.1909	0.29
Mof_O 	O 	0.2515	0.25	0.1325	-0.429
Mof_H 	H 	0.8922	0.25	0.518	0.148
Mof_C 	C 	0.9944	0.25	0.1124	0.005
Mof_C 	C 	0.0793	0.25	0.1206	-0.061
Mof_C 	C 	0.9584	0.25	0.0285	-0.038
Mof_H 	H 	0.1035	0.25	0.1777	0.041
Mof_C 	C 	0.1324	0.25	0.0445	-0.16
Mof_C 	C 	0.0093	0.25	0.9555	-0.025
Mof_H 	H 	0.8995	0.25	0.0219	0.04
Mof_C 	C 	0.0954	0.25	0.9624	0.089
Mof_C 	C 	0.2253	0.25	0.053	0.271
Mof_N 	N 	0.9705	0.25	0.8693	0.071
Mof_H 	H 	0.129	0.25	0.9107	-0.003
Mof_O 	O 	0.269	0.25	0.9876	-0.278
Mof_O 	O 	0.0174	0.25	0.8033	-0.216
Mof_O 	O 	0.8948	0.25	0.8634	-0.167
Mof_Cu	Cu	0.5	0	-0	0.803
Mof_Cu	Cu	1.77392e-33	8.1342e-33	0.5	0.802
Mof_Cu	Cu	0.5	0.5	-0	0.835
Mof_Cu	Cu	1.77392e-33	0.5	0.5	0.834
Mof_C 	C 	0.3384	0.75	0.1838	0.586
Mof_C 	C 	0.2741	0.75	0.2514	-1.751
Mof_C 	C 	0.1616	0.25	0.6838	0.55
Mof_C 	C 	0.2259	0.25	0.7514	-1.662
Mof_C 	C 	0.6616	0.25	0.8162	0.563
Mof_C 	C 	0.7259	0.25	0.7486	-1.69
Mof_C 	C 	0.8384	0.75	0.3162	0.598
Mof_C 	C 	0.7741	0.75	0.2486	-1.777
_end
