data_functionalizedCrystal
_audit_creation_method	'EQeq! by Chris Wilmer'
_symmetry_space_group_name_H-M	'P1'
_symmetry_Int_Tables_number	1
_symmetry_cell_setting	triclinic
loop_
_symmetry_equiv_pos_as_xyz
  x,y,z
_cell_length_a	8.7652
_cell_length_b	22.1004
_cell_length_c	10.4417
_cell_angle_alpha	90
_cell_angle_beta	91.874
_cell_angle_gamma	90
loop_
_atom_site_label
_atom_site_type_symbol
_atom_site_fract_x
_atom_site_fract_y
_atom_site_fract_z
_atom_site_charge
Mof_Ag	Ag	0.34332	0.80347	0.51196	0.514
Mof_Ag	Ag	0.25102	0.70781	0.75673	0.522
Mof_Ag	Ag	0.1773	0.79584	0.01653	0.504
Mof_N 	N 	0.3731	0.70413	0.4793	-0.166
Mof_N 	N 	0.3732	0.66854	0.5847	-0.147
Mof_N 	N 	0.5545	0.39579	0.4629	-0.152
Mof_N 	N 	0.6042	0.43221	0.3694	-0.084
Mof_N 	N 	0.1141	0.82542	0.6224	-0.148
Mof_N 	N 	0.0631	0.77886	0.6922	-0.147
Mof_N 	N 	0.4506	0.77395	0.826	-0.147
Mof_N 	N 	0.3992	0.81906	0.9018	-0.151
Mof_N 	N 	0.1249	0.66478	0.9221	-0.147
Mof_N 	N 	0.1226	0.69635	0.0331	-0.164
Mof_N 	N 	0.9357	0.38783	0.0062	-0.148
Mof_N 	N 	0.8894	0.421	0.1059	-0.085
Mof_C 	C 	0.4029	0.6102	0.5751	0
Mof_H 	H 	0.4044	0.5868	0.6503	0.01
Mof_C 	C 	0.4325	0.58104	0.4587	0.008
Mof_C 	C 	0.4271	0.61687	0.3513	-0.106
Mof_H 	H 	0.4416	0.6002	0.2697	0.06
Mof_C 	C 	0.3995	0.67893	0.3664	0.055
Mof_H 	H 	0.3995	0.7039	0.2934	-0.023
Mof_C 	C 	0.5617	0.48944	0.3682	-0.006
Mof_H 	H 	0.5965	0.5143	0.3022	0.034
Mof_C 	C 	0.4679	0.51562	0.4593	0.015
Mof_C 	C 	0.4151	0.47784	0.552	-0.107
Mof_H 	H 	0.3489	0.4918	0.6145	0.055
Mof_C 	C 	0.4638	0.41756	0.5498	0.053
Mof_H 	H 	0.4299	0.3912	0.6136	-0.017
Mof_C 	C 	0.0285	0.87444	0.6085	0.059
Mof_H 	H 	0.0668	0.907	0.5613	0.001
Mof_C 	C 	0.8848	0.8804	0.6597	-0.103
Mof_H 	H 	0.8278	0.9162	0.6486	0.068
Mof_C 	C 	0.8286	0.83226	0.7272	0.009
Mof_C 	C 	0.9263	0.78222	0.7418	-0.006
Mof_H 	H 	0.8925	0.7491	0.7897	0.012
Mof_C 	C 	0.5833	0.77984	0.771	-0.01
Mof_H 	H 	0.6167	0.7481	0.719	0.011
Mof_C 	C 	0.6776	0.83111	0.7861	0.01
Mof_C 	C 	0.6214	0.8778	0.8569	-0.103
Mof_H 	H 	0.6758	0.9142	0.8671	0.069
Mof_C 	C 	0.4806	0.86948	0.9134	0.058
Mof_H 	H 	0.4416	0.9013	0.9622	0.002
Mof_C 	C 	0.0902	0.60634	0.9215	0.001
Mof_H 	H 	0.0895	0.5856	0.8429	0.01
Mof_C 	C 	0.0547	0.57376	0.032	0.009
Mof_C 	C 	0.0554	0.60556	0.1448	-0.107
Mof_H 	H 	0.0353	0.5864	0.2228	0.06
Mof_C 	C 	0.0871	0.66761	0.1399	0.054
Mof_H 	H 	0.0831	0.6901	0.2162	-0.017
Mof_C 	C 	0.0207	0.4128	0.9187	0.051
Mof_H 	H 	0.0519	0.3886	0.8503	-0.014
Mof_C 	C 	0.0669	0.47331	0.9223	-0.1
Mof_H 	H 	0.1293	0.4895	0.8593	0.053
Mof_C 	C 	0.0174	0.5083	0.0219	0.007
Mof_C 	C 	0.93	0.47845	0.1124	0.001
Mof_H 	H 	0.8979	0.501	0.183	0.033
Mof_Ag	Ag	0.65668	0.30347	0.48804	0.515
Mof_Ag	Ag	0.74898	0.20781	0.24327	0.522
Mof_Ag	Ag	0.8227	0.29584	0.98347	0.506
Mof_N 	N 	0.6269	0.20413	0.5207	-0.167
Mof_N 	N 	0.6268	0.16854	0.4153	-0.146
Mof_N 	N 	0.4455	0.89579	0.5371	-0.15
Mof_N 	N 	0.3958	0.93221	0.6306	-0.088
Mof_N 	N 	0.8859	0.32542	0.3776	-0.149
Mof_N 	N 	0.9369	0.27886	0.3078	-0.146
Mof_N 	N 	0.5494	0.27395	0.174	-0.147
Mof_N 	N 	0.6008	0.31906	0.0982	-0.151
Mof_N 	N 	0.8751	0.16478	0.0779	-0.146
Mof_N 	N 	0.8774	0.19635	0.9669	-0.165
Mof_N 	N 	0.0643	0.88783	0.9938	-0.147
Mof_N 	N 	0.1106	0.921	0.8941	-0.089
Mof_C 	C 	0.5971	0.1102	0.4249	-0.004
Mof_H 	H 	0.5956	0.0868	0.3497	0.011
Mof_C 	C 	0.5675	0.08104	0.5413	0.016
Mof_C 	C 	0.5729	0.11687	0.6487	-0.112
Mof_H 	H 	0.5584	0.1002	0.7303	0.061
Mof_C 	C 	0.6005	0.17893	0.6336	0.057
Mof_H 	H 	0.6005	0.2039	0.7066	-0.024
Mof_C 	C 	0.4383	0.98944	0.6318	0.018
Mof_H 	H 	0.4035	0.0143	0.6978	0.022
Mof_C 	C 	0.5321	0.01562	0.5407	-0.008
Mof_C 	C 	0.5849	0.97784	0.448	-0.089
Mof_H 	H 	0.6511	0.9918	0.3855	0.051
Mof_C 	C 	0.5362	0.91756	0.4502	0.045
Mof_H 	H 	0.5701	0.8912	0.3864	-0.014
Mof_C 	C 	0.9715	0.37444	0.3915	0.062
Mof_H 	H 	0.9332	0.407	0.4387	-0
Mof_C 	C 	0.1152	0.3804	0.3403	-0.107
Mof_H 	H 	0.1722	0.4162	0.3514	0.068
Mof_C 	C 	0.1714	0.33226	0.2728	0.011
Mof_C 	C 	0.0737	0.28222	0.2582	-0.009
Mof_H 	H 	0.1075	0.2491	0.2103	0.012
Mof_C 	C 	0.4167	0.27984	0.229	-0.009
Mof_H 	H 	0.3833	0.2481	0.281	0.011
Mof_C 	C 	0.3224	0.33111	0.2139	0.009
Mof_C 	C 	0.3786	0.3778	0.1431	-0.102
Mof_H 	H 	0.3242	0.4142	0.1329	0.067
Mof_C 	C 	0.5194	0.36948	0.0866	0.057
Mof_H 	H 	0.5584	0.4013	0.0378	0.001
Mof_C 	C 	0.9098	0.10634	0.0785	-0.003
Mof_H 	H 	0.9105	0.0856	0.1571	0.011
Mof_C 	C 	0.9453	0.07376	0.968	0.016
Mof_C 	C 	0.9446	0.10556	0.8552	-0.112
Mof_H 	H 	0.9647	0.0864	0.7772	0.062
Mof_C 	C 	0.9129	0.16761	0.8601	0.057
Mof_H 	H 	0.9169	0.1901	0.7838	-0.017
Mof_C 	C 	0.9793	0.9128	0.0813	0.044
Mof_H 	H 	0.9481	0.8886	0.1497	-0.011
Mof_C 	C 	0.9331	0.97331	0.0777	-0.085
Mof_H 	H 	0.8707	0.9895	0.1407	0.05
Mof_C 	C 	0.9826	0.0083	0.9781	-0.013
Mof_C 	C 	0.07	0.97845	0.8876	0.024
Mof_H 	H 	0.1021	0.001	0.817	0.021
_end
