data_functionalizedCrystal
_audit_creation_method	'EQeq! by Chris Wilmer'
_symmetry_space_group_name_H-M	'P1'
_symmetry_Int_Tables_number	1
_symmetry_cell_setting	triclinic
loop_
_symmetry_equiv_pos_as_xyz
  x,y,z
_cell_length_a	8.9174
_cell_length_b	12.1121
_cell_length_c	16.6262
_cell_angle_alpha	90
_cell_angle_beta	90
_cell_angle_gamma	109.361
loop_
_atom_site_label
_atom_site_type_symbol
_atom_site_fract_x
_atom_site_fract_y
_atom_site_fract_z
_atom_site_charge
Mof_Sm	Sm	0.43358	0.45228	0.11725	2.388
Mof_Sm	Sm	0.06642	0.54772	0.61725	2.387
Mof_Sm	Sm	0.56642	0.54772	0.88275	2.387
Mof_Sm	Sm	0.93358	0.45228	0.38275	2.386
Mof_H 	H 	0.5294	0.2185	0.5673	0.127
Mof_H 	H 	0.9057	0.9743	0.2749	0.06
Mof_H 	H 	0.5968	0.1531	0.1936	0.102
Mof_H 	H 	0.9905	0.8354	0.4266	0.048
Mof_H 	H 	0.9706	0.7815	0.0673	0.126
Mof_H 	H 	0.4127	0.2246	0.3222	0.118
Mof_H 	H 	0.3708	0.0348	0.567	0.053
Mof_H 	H 	0.7046	0.005	0.0864	0.077
Mof_H 	H 	0.6228	0.6386	0.4896	0.096
Mof_H 	H 	0.4905	0.8354	0.0734	0.049
Mof_H 	H 	0.9032	0.8469	0.6936	0.101
Mof_H 	H 	0.671	0.6806	0.6669	0.109
Mof_H 	H 	0.6292	0.9652	0.433	0.053
Mof_H 	H 	0.5095	0.1646	0.9266	0.049
Mof_H 	H 	0.829	0.3194	0.1669	0.11
Mof_H 	H 	0.6203	0.1374	0.5339	0.129
Mof_H 	H 	0.8797	0.8626	0.0339	0.127
Mof_H 	H 	0.3222	0.1421	0.0998	0.087
Mof_H 	H 	0.0095	0.1646	0.5734	0.048
Mof_H 	H 	0.3797	0.8626	0.4661	0.129
Mof_H 	H 	0.2443	0.2951	0.5716	0.08
Mof_H 	H 	0.1228	0.6386	0.0104	0.096
Mof_H 	H 	0.7954	0.995	0.5864	0.077
Mof_H 	H 	0.2954	0.995	0.9136	0.077
Mof_H 	H 	0.1203	0.1374	0.9661	0.127
Mof_H 	H 	0.1292	0.9652	0.067	0.051
Mof_H 	H 	0.0294	0.2185	0.9327	0.126
Mof_H 	H 	0.0968	0.1531	0.3064	0.101
Mof_H 	H 	0.8708	0.0348	0.933	0.051
Mof_H 	H 	0.329	0.3194	0.3331	0.109
Mof_H 	H 	0.2557	0.7049	0.0716	0.079
Mof_H 	H 	0.171	0.6806	0.8331	0.11
Mof_H 	H 	0.0873	0.7754	0.8222	0.118
Mof_H 	H 	0.4032	0.8469	0.8064	0.102
Mof_H 	H 	0.1778	0.8579	0.5998	0.085
Mof_H 	H 	0.5873	0.7754	0.6778	0.118
Mof_H 	H 	0.6778	0.8579	0.9002	0.087
Mof_H 	H 	0.7557	0.7049	0.4284	0.08
Mof_H 	H 	0.2046	0.005	0.4136	0.077
Mof_H 	H 	0.7443	0.2951	0.9284	0.079
Mof_H 	H 	0.8772	0.3614	0.9896	0.096
Mof_H 	H 	0.0943	0.0257	0.7251	0.06
Mof_H 	H 	0.4706	0.7815	0.4327	0.127
Mof_H 	H 	0.8222	0.1421	0.4002	0.085
Mof_H 	H 	0.4057	0.9743	0.2251	0.057
Mof_H 	H 	0.3772	0.3614	0.5104	0.096
Mof_H 	H 	0.9127	0.2246	0.1778	0.118
Mof_H 	H 	0.5943	0.0257	0.7749	0.057
Mof_C 	C 	0.6573	0.3585	0.02454	0.476
Mof_C 	C 	0.231	0.6963	0.44275	0.551
Mof_C 	C 	0.1245	0.1971	0.92652	-0.289
Mof_C 	C 	0.5609	0.3905	0.29692	0.496
Mof_C 	C 	0.769	0.3037	0.55725	0.551
Mof_C 	C 	0.4938	0.9014	0.04385	-0.078
Mof_C 	C 	0.8777	0.9968	0.55148	-0.101
Mof_C 	C 	0.0982	0.7046	0.7996	-0.242
Mof_C 	C 	0.3777	0.9968	0.94852	-0.101
Mof_C 	C 	0.731	0.6963	0.05725	0.548
Mof_C 	C 	0.4018	0.2954	0.2996	-0.238
Mof_C 	C 	0.8696	0.8973	0.50784	0.132
Mof_C 	C 	0.488	0.0089	0.2609	-0.047
Mof_C 	C 	0.8755	0.8029	0.07348	-0.289
Mof_C 	C 	0.3755	0.8029	0.42652	-0.291
Mof_C 	C 	0.7744	0.8351	0.79495	0.199
Mof_C 	C 	0.3696	0.8973	0.99216	0.132
Mof_C 	C 	0.27	0.3063	0.5148	-0.234
Mof_C 	C 	0.6223	0.0032	0.05148	-0.101
Mof_C 	C 	0.73	0.6937	0.4852	-0.234
Mof_C 	C 	0.9018	0.2954	0.2004	-0.242
Mof_C 	C 	0.0609	0.3905	0.20308	0.499
Mof_C 	C 	0.622	0.0031	0.3852	-0.056
Mof_C 	C 	0.996	0.9542	0.16716	0.091
Mof_C 	C 	0.7256	0.1649	0.29495	0.199
Mof_C 	C 	0.6029	0.1156	0.24167	-0.153
Mof_C 	C 	0.3971	0.8844	0.75833	-0.153
Mof_C 	C 	0.5062	0.0986	0.95615	-0.078
Mof_C 	C 	0.5982	0.7046	0.7004	-0.238
Mof_C 	C 	0.7628	0.891	0.86555	-0.146
Mof_C 	C 	0.2744	0.8351	0.70505	0.199
Mof_C 	C 	0.504	0.0458	0.66716	0.093
Mof_C 	C 	0.988	0.0089	0.2391	-0.053
Mof_C 	C 	0.0062	0.0986	0.54385	-0.077
Mof_C 	C 	0.2628	0.891	0.63445	-0.144
Mof_C 	C 	0.8971	0.8844	0.74167	-0.147
Mof_C 	C 	0.8427	0.6415	0.52454	0.48
Mof_C 	C 	0.77	0.3063	0.9852	-0.23
Mof_C 	C 	0.1304	0.1027	0.49216	0.132
Mof_C 	C 	0.878	0.9969	0.8852	-0.048
Mof_C 	C 	0.1573	0.3585	0.47546	0.48
Mof_C 	C 	0.3427	0.6415	0.97546	0.476
Mof_C 	C 	0.378	0.9969	0.6148	-0.056
Mof_C 	C 	0.6245	0.1971	0.57348	-0.291
Mof_C 	C 	0.4391	0.6095	0.70308	0.496
Mof_C 	C 	0.9938	0.9014	0.45615	-0.077
Mof_C 	C 	0.7372	0.109	0.36555	-0.144
Mof_C 	C 	0.2372	0.109	0.13445	-0.146
Mof_C 	C 	0.012	0.9911	0.7609	-0.053
Mof_C 	C 	0.6304	0.1027	0.00784	0.132
Mof_C 	C 	0.1029	0.1156	0.25833	-0.147
Mof_C 	C 	0.1223	0.0032	0.44852	-0.101
Mof_C 	C 	0.23	0.6937	0.0148	-0.23
Mof_C 	C 	0.2256	0.1649	0.20505	0.199
Mof_C 	C 	0.512	0.9911	0.7391	-0.047
Mof_C 	C 	0.269	0.3037	0.94275	0.548
Mof_C 	C 	0.004	0.0458	0.83284	0.091
Mof_C 	C 	0.122	0.0031	0.1148	-0.048
Mof_C 	C 	0.496	0.9542	0.33284	0.093
Mof_C 	C 	0.9391	0.6095	0.79692	0.499
Mof_O 	O 	0.3513	0.60002	0.64304	-0.547
Mof_O 	O 	0.3396	0.36717	0.88552	-0.565
Mof_O 	O 	0.3746	0.84973	0.34858	-0.149
Mof_O 	O 	0.3015	0.3184	0.01605	-0.581
Mof_O 	O 	0.6604	0.63283	0.11448	-0.565
Mof_O 	O 	0.5945	0.45494	0.23584	-0.563
Mof_O 	O 	0.7664	0.19746	0.0189	-0.176
Mof_O 	O 	0.2664	0.19746	0.4811	-0.174
Mof_O 	O 	0.3702	0.55767	0.01044	-0.67
Mof_O 	O 	0.1985	0.6816	0.51605	-0.583
Mof_O 	O 	0.6254	0.15027	0.65142	-0.149
Mof_O 	O 	0.3414	0.27388	0.21865	-0.334
Mof_O 	O 	0.0986	0.32355	0.40841	-0.493
Mof_O 	O 	0.1298	0.44233	0.51044	-0.671
Mof_O 	O 	0.8414	0.27388	0.28135	-0.334
Mof_O 	O 	0.0945	0.45494	0.26416	-0.563
Mof_O 	O 	0.6586	0.72612	0.78135	-0.334
Mof_O 	O 	0.7336	0.80254	0.5189	-0.174
Mof_O 	O 	0.5986	0.32355	0.09159	-0.493
Mof_O 	O 	0.8396	0.36717	0.61448	-0.564
Mof_O 	O 	0.2336	0.80254	0.9811	-0.176
Mof_O 	O 	0.6298	0.44233	0.98956	-0.67
Mof_O 	O 	0.6487	0.39998	0.35696	-0.547
Mof_O 	O 	0.1586	0.72612	0.71865	-0.334
Mof_O 	O 	0.8015	0.3184	0.48395	-0.583
Mof_O 	O 	0.8746	0.84973	0.15142	-0.15
Mof_O 	O 	0.4014	0.67645	0.90841	-0.493
Mof_O 	O 	0.1487	0.39998	0.14304	-0.547
Mof_O 	O 	0.6985	0.6816	0.98395	-0.581
Mof_O 	O 	0.8513	0.60002	0.85696	-0.547
Mof_O 	O 	0.1254	0.15027	0.84858	-0.15
Mof_O 	O 	0.4055	0.54506	0.76416	-0.563
Mof_O 	O 	0.9014	0.67645	0.59159	-0.493
Mof_O 	O 	0.1604	0.63283	0.38552	-0.564
Mof_O 	O 	0.8702	0.55767	0.48956	-0.671
Mof_O 	O 	0.9055	0.54506	0.73584	-0.563
_end
