data_functionalizedCrystal
_audit_creation_method	'EQeq! by Chris Wilmer'
_symmetry_space_group_name_H-M	'P1'
_symmetry_Int_Tables_number	1
_symmetry_cell_setting	triclinic
loop_
_symmetry_equiv_pos_as_xyz
  x,y,z
_cell_length_a	15.1046
_cell_length_b	24.5318
_cell_length_c	33.1539
_cell_angle_alpha	90
_cell_angle_beta	90
_cell_angle_gamma	90
loop_
_atom_site_label
_atom_site_type_symbol
_atom_site_fract_x
_atom_site_fract_y
_atom_site_fract_z
_atom_site_charge
Mof_O 	O 	0.3558	0.3098	0.02182	-0.546
Mof_O 	O 	0.4909	0.3375	0.03377	-0.525
Mof_O 	O 	0.6466	0.1886	0.86766	-0.5
Mof_O 	O 	0.5115	0.1642	0.85314	-0.507
Mof_N 	N 	0.3365	0.2149	0.9765	-0.194
Mof_H 	H 	0.3056	0.1901	0.9635	0.101
Mof_H 	H 	0.3155	0.2294	0.9988	0.095
Mof_C 	C 	0.4386	0.3091	0.013	0.367
Mof_C 	C 	0.4708	0.2772	0.9782	-0.176
Mof_C 	C 	0.5327	0.222	0.9108	-0.002
Mof_C 	C 	0.5654	0.1904	0.8748	0.297
Mof_C 	C 	0.4191	0.2314	0.9616	0.111
Mof_C 	C 	0.4498	0.207	0.9258	-0.039
Mof_H 	H 	0.4147	0.1807	0.9121	0.046
Mof_C 	C 	0.5881	0.2621	0.9293	-0.048
Mof_H 	H 	0.6448	0.2708	0.9186	0.037
Mof_C 	C 	0.5553	0.2882	0.9639	0.059
Mof_C 	C 	0.4119	0.2507	0.9537	0.054
Mof_C 	C 	0.444	0.2245	0.9191	-0.073
Mof_H 	H 	0.4033	0.2081	0.9009	0.059
Mof_C 	C 	0.5921	0.2479	0.9355	-0.053
Mof_H 	H 	0.6537	0.2471	0.9296	0.05
Mof_C 	C 	0.56	0.2754	0.9696	0.089
Mof_N 	N 	0.627	0.301	0.9924	-0.121
Mof_H 	H 	0.6128	0.3205	0.0139	0.07
Mof_H 	H 	0.6829	0.2985	0.9851	0.054
Mof_N 	N 	0.61	0.323	0.9828	-0.197
Mof_H 	H 	0.5924	0.3392	0.005	0.116
Mof_H 	H 	0.6631	0.3288	0.973	0.106
Mof_N 	N 	0.3229	0.2448	0.961	-0.195
Mof_H 	H 	0.2994	0.2587	0.9829	0.119
Mof_H 	H 	0.2895	0.227	0.9436	0.108
Mof_O 	O 	0.3558	0.8098	0.52182	-0.547
Mof_O 	O 	0.4909	0.8375	0.53377	-0.526
Mof_O 	O 	0.6466	0.6886	0.36766	-0.501
Mof_O 	O 	0.5115	0.6642	0.35314	-0.508
Mof_N 	N 	0.3365	0.7149	0.4765	-0.195
Mof_H 	H 	0.3056	0.6901	0.4635	0.1
Mof_H 	H 	0.3155	0.7294	0.4988	0.094
Mof_C 	C 	0.4386	0.8091	0.513	0.366
Mof_C 	C 	0.4708	0.7772	0.4782	-0.177
Mof_C 	C 	0.5327	0.722	0.4108	-0.003
Mof_C 	C 	0.5654	0.6904	0.3748	0.296
Mof_C 	C 	0.4191	0.7314	0.4616	0.11
Mof_C 	C 	0.4498	0.707	0.4258	-0.04
Mof_H 	H 	0.4147	0.6807	0.4121	0.045
Mof_C 	C 	0.5881	0.7621	0.4293	-0.049
Mof_H 	H 	0.6448	0.7708	0.4186	0.036
Mof_C 	C 	0.5553	0.7882	0.4639	0.058
Mof_C 	C 	0.4119	0.7507	0.4537	0.053
Mof_C 	C 	0.444	0.7245	0.4191	-0.074
Mof_H 	H 	0.4033	0.7081	0.4009	0.058
Mof_C 	C 	0.5921	0.7479	0.4355	-0.054
Mof_H 	H 	0.6537	0.7471	0.4296	0.049
Mof_C 	C 	0.56	0.7754	0.4696	0.088
Mof_N 	N 	0.627	0.801	0.4924	-0.121
Mof_H 	H 	0.6128	0.8205	0.5139	0.069
Mof_H 	H 	0.6829	0.7985	0.4851	0.053
Mof_N 	N 	0.61	0.823	0.4828	-0.197
Mof_H 	H 	0.5924	0.8392	0.505	0.116
Mof_H 	H 	0.6631	0.8288	0.473	0.106
Mof_N 	N 	0.3229	0.7448	0.461	-0.195
Mof_H 	H 	0.2994	0.7587	0.4829	0.119
Mof_H 	H 	0.2895	0.727	0.4436	0.108
Mof_O 	O 	0.8558	0.3098	0.52182	-0.547
Mof_O 	O 	0.9909	0.3375	0.53377	-0.526
Mof_O 	O 	0.1466	0.1886	0.36766	-0.501
Mof_O 	O 	0.0115	0.1642	0.35314	-0.508
Mof_N 	N 	0.8365	0.2149	0.4765	-0.195
Mof_H 	H 	0.8056	0.1901	0.4635	0.1
Mof_H 	H 	0.8155	0.2294	0.4988	0.094
Mof_C 	C 	0.9386	0.3091	0.513	0.366
Mof_C 	C 	0.9708	0.2772	0.4782	-0.177
Mof_C 	C 	0.0327	0.222	0.4108	-0.002
Mof_C 	C 	0.0654	0.1904	0.3748	0.296
Mof_C 	C 	0.9191	0.2314	0.4616	0.111
Mof_C 	C 	0.9498	0.207	0.4258	-0.04
Mof_H 	H 	0.9147	0.1807	0.4121	0.045
Mof_C 	C 	0.0881	0.2621	0.4293	-0.049
Mof_H 	H 	0.1448	0.2708	0.4186	0.036
Mof_C 	C 	0.0553	0.2882	0.4639	0.058
Mof_C 	C 	0.9119	0.2507	0.4537	0.052
Mof_C 	C 	0.944	0.2245	0.4191	-0.074
Mof_H 	H 	0.9033	0.2081	0.4009	0.058
Mof_C 	C 	0.0921	0.2479	0.4355	-0.054
Mof_H 	H 	0.1537	0.2471	0.4296	0.049
Mof_C 	C 	0.06	0.2754	0.4696	0.088
Mof_N 	N 	0.127	0.301	0.4924	-0.121
Mof_H 	H 	0.1128	0.3205	0.5139	0.069
Mof_H 	H 	0.1829	0.2985	0.4851	0.053
Mof_N 	N 	0.11	0.323	0.4828	-0.197
Mof_H 	H 	0.0924	0.3392	0.505	0.116
Mof_H 	H 	0.1631	0.3288	0.473	0.106
Mof_N 	N 	0.8229	0.2448	0.461	-0.195
Mof_H 	H 	0.7994	0.2587	0.4829	0.119
Mof_H 	H 	0.7895	0.227	0.4436	0.108
Mof_O 	O 	0.8558	0.8098	0.02182	-0.547
Mof_O 	O 	0.9909	0.8375	0.03377	-0.526
Mof_O 	O 	0.1466	0.6886	0.86766	-0.501
Mof_O 	O 	0.0115	0.6642	0.85314	-0.508
Mof_N 	N 	0.8365	0.7149	0.9765	-0.195
Mof_H 	H 	0.8056	0.6901	0.9635	0.1
Mof_H 	H 	0.8155	0.7294	0.9988	0.094
Mof_C 	C 	0.9386	0.8091	0.013	0.366
Mof_C 	C 	0.9708	0.7772	0.9782	-0.177
Mof_C 	C 	0.0327	0.722	0.9108	-0.003
Mof_C 	C 	0.0654	0.6904	0.8748	0.296
Mof_C 	C 	0.9191	0.7314	0.9616	0.111
Mof_C 	C 	0.9498	0.707	0.9258	-0.04
Mof_H 	H 	0.9147	0.6807	0.9121	0.045
Mof_C 	C 	0.0881	0.7621	0.9293	-0.049
Mof_H 	H 	0.1448	0.7708	0.9186	0.035
Mof_C 	C 	0.0553	0.7882	0.9639	0.058
Mof_C 	C 	0.9119	0.7507	0.9537	0.052
Mof_C 	C 	0.944	0.7245	0.9191	-0.074
Mof_H 	H 	0.9033	0.7081	0.9009	0.058
Mof_C 	C 	0.0921	0.7479	0.9355	-0.054
Mof_H 	H 	0.1537	0.7471	0.9296	0.049
Mof_C 	C 	0.06	0.7754	0.9696	0.087
Mof_N 	N 	0.127	0.801	0.9924	-0.122
Mof_H 	H 	0.1128	0.8205	0.0139	0.069
Mof_H 	H 	0.1829	0.7985	0.9851	0.053
Mof_N 	N 	0.11	0.823	0.9828	-0.197
Mof_H 	H 	0.0924	0.8392	0.005	0.115
Mof_H 	H 	0.1631	0.8288	0.973	0.106
Mof_N 	N 	0.8229	0.7448	0.961	-0.195
Mof_H 	H 	0.7994	0.7587	0.9829	0.119
Mof_H 	H 	0.7895	0.727	0.9436	0.108
Mof_O 	O 	0.3942	0.4402	0.02182	-0.547
Mof_O 	O 	0.2591	0.4125	0.03377	-0.526
Mof_O 	O 	0.1034	0.5614	0.86766	-0.501
Mof_O 	O 	0.2385	0.5858	0.85314	-0.508
Mof_N 	N 	0.4135	0.5351	0.9765	-0.195
Mof_H 	H 	0.4444	0.5599	0.9635	0.1
Mof_H 	H 	0.4345	0.5206	0.9988	0.094
Mof_C 	C 	0.3114	0.4409	0.013	0.366
Mof_C 	C 	0.2792	0.4728	0.9782	-0.177
Mof_C 	C 	0.2173	0.528	0.9108	-0.003
Mof_C 	C 	0.1846	0.5596	0.8748	0.296
Mof_C 	C 	0.3309	0.5186	0.9616	0.11
Mof_C 	C 	0.3002	0.543	0.9258	-0.04
Mof_H 	H 	0.3353	0.5693	0.9121	0.045
Mof_C 	C 	0.1619	0.4879	0.9293	-0.049
Mof_H 	H 	0.1052	0.4792	0.9186	0.036
Mof_C 	C 	0.1947	0.4618	0.9639	0.058
Mof_C 	C 	0.3381	0.4993	0.9537	0.053
Mof_C 	C 	0.306	0.5255	0.9191	-0.074
Mof_H 	H 	0.3467	0.5419	0.9009	0.058
Mof_C 	C 	0.1579	0.5021	0.9355	-0.054
Mof_H 	H 	0.0963	0.5029	0.9296	0.049
Mof_C 	C 	0.19	0.4746	0.9696	0.088
Mof_N 	N 	0.123	0.449	0.9924	-0.121
Mof_H 	H 	0.1372	0.4295	0.0139	0.069
Mof_H 	H 	0.0671	0.4515	0.9851	0.053
Mof_N 	N 	0.14	0.427	0.9828	-0.197
Mof_H 	H 	0.1576	0.4108	0.005	0.116
Mof_H 	H 	0.0869	0.4212	0.973	0.106
Mof_N 	N 	0.4271	0.5052	0.961	-0.195
Mof_H 	H 	0.4506	0.4913	0.9829	0.119
Mof_H 	H 	0.4605	0.523	0.9436	0.108
Mof_O 	O 	0.3942	0.9402	0.52182	-0.547
Mof_O 	O 	0.2591	0.9125	0.53377	-0.526
Mof_O 	O 	0.1034	0.0614	0.36766	-0.501
Mof_O 	O 	0.2385	0.0858	0.35314	-0.508
Mof_N 	N 	0.4135	0.0351	0.4765	-0.195
Mof_H 	H 	0.4444	0.0599	0.4635	0.1
Mof_H 	H 	0.4345	0.0206	0.4988	0.094
Mof_C 	C 	0.3114	0.9409	0.513	0.366
Mof_C 	C 	0.2792	0.9728	0.4782	-0.177
Mof_C 	C 	0.2173	0.028	0.4108	-0.003
Mof_C 	C 	0.1846	0.0596	0.3748	0.296
Mof_C 	C 	0.3309	0.0186	0.4616	0.109
Mof_C 	C 	0.3002	0.043	0.4258	-0.041
Mof_H 	H 	0.3353	0.0693	0.4121	0.045
Mof_C 	C 	0.1619	0.9879	0.4293	-0.048
Mof_H 	H 	0.1052	0.9792	0.4186	0.035
Mof_C 	C 	0.1947	0.9618	0.4639	0.058
Mof_C 	C 	0.3381	0.9993	0.4537	0.054
Mof_C 	C 	0.306	0.0255	0.4191	-0.073
Mof_H 	H 	0.3467	0.0419	0.4009	0.057
Mof_C 	C 	0.1579	0.0021	0.4355	-0.055
Mof_H 	H 	0.0963	0.0029	0.4296	0.049
Mof_C 	C 	0.19	0.9746	0.4696	0.088
Mof_N 	N 	0.123	0.949	0.4924	-0.121
Mof_H 	H 	0.1372	0.9295	0.5139	0.069
Mof_H 	H 	0.0671	0.9515	0.4851	0.053
Mof_N 	N 	0.14	0.927	0.4828	-0.197
Mof_H 	H 	0.1576	0.9108	0.505	0.116
Mof_H 	H 	0.0869	0.9212	0.473	0.106
Mof_N 	N 	0.4271	0.0052	0.461	-0.195
Mof_H 	H 	0.4506	0.9913	0.4829	0.119
Mof_H 	H 	0.4605	0.023	0.4436	0.108
Mof_O 	O 	0.8942	0.4402	0.52182	-0.547
Mof_O 	O 	0.7591	0.4125	0.53377	-0.526
Mof_O 	O 	0.6034	0.5614	0.36766	-0.501
Mof_O 	O 	0.7385	0.5858	0.35314	-0.508
Mof_N 	N 	0.9135	0.5351	0.4765	-0.195
Mof_H 	H 	0.9444	0.5599	0.4635	0.1
Mof_H 	H 	0.9345	0.5206	0.4988	0.094
Mof_C 	C 	0.8114	0.4409	0.513	0.366
Mof_C 	C 	0.7792	0.4728	0.4782	-0.177
Mof_C 	C 	0.7173	0.528	0.4108	-0.003
Mof_C 	C 	0.6846	0.5596	0.3748	0.296
Mof_C 	C 	0.8309	0.5186	0.4616	0.11
Mof_C 	C 	0.8002	0.543	0.4258	-0.04
Mof_H 	H 	0.8353	0.5693	0.4121	0.045
Mof_C 	C 	0.6619	0.4879	0.4293	-0.049
Mof_H 	H 	0.6052	0.4792	0.4186	0.036
Mof_C 	C 	0.6947	0.4618	0.4639	0.058
Mof_C 	C 	0.8381	0.4993	0.4537	0.053
Mof_C 	C 	0.806	0.5255	0.4191	-0.074
Mof_H 	H 	0.8467	0.5419	0.4009	0.058
Mof_C 	C 	0.6579	0.5021	0.4355	-0.054
Mof_H 	H 	0.5963	0.5029	0.4296	0.049
Mof_C 	C 	0.69	0.4746	0.4696	0.088
Mof_N 	N 	0.623	0.449	0.4924	-0.121
Mof_H 	H 	0.6372	0.4295	0.5139	0.069
Mof_H 	H 	0.5671	0.4515	0.4851	0.053
Mof_N 	N 	0.64	0.427	0.4828	-0.197
Mof_H 	H 	0.6576	0.4108	0.505	0.116
Mof_H 	H 	0.5869	0.4212	0.473	0.106
Mof_N 	N 	0.9271	0.5052	0.461	-0.195
Mof_H 	H 	0.9506	0.4913	0.4829	0.119
Mof_H 	H 	0.9605	0.523	0.4436	0.108
Mof_O 	O 	0.8942	0.9402	0.02182	-0.547
Mof_O 	O 	0.7591	0.9125	0.03377	-0.526
Mof_O 	O 	0.6034	0.0614	0.86766	-0.501
Mof_O 	O 	0.7385	0.0858	0.85314	-0.508
Mof_N 	N 	0.9135	0.0351	0.9765	-0.195
Mof_H 	H 	0.9444	0.0599	0.9635	0.1
Mof_H 	H 	0.9345	0.0206	0.9988	0.094
Mof_C 	C 	0.8114	0.9409	0.013	0.366
Mof_C 	C 	0.7792	0.9728	0.9782	-0.177
Mof_C 	C 	0.7173	0.028	0.9108	-0.003
Mof_C 	C 	0.6846	0.0596	0.8748	0.296
Mof_C 	C 	0.8309	0.0186	0.9616	0.113
Mof_C 	C 	0.8002	0.043	0.9258	-0.039
Mof_H 	H 	0.8353	0.0693	0.9121	0.044
Mof_C 	C 	0.6619	0.9879	0.9293	-0.049
Mof_H 	H 	0.6052	0.9792	0.9186	0.036
Mof_C 	C 	0.6947	0.9618	0.9639	0.058
Mof_C 	C 	0.8381	0.9993	0.9537	0.05
Mof_C 	C 	0.806	0.0255	0.9191	-0.075
Mof_H 	H 	0.8467	0.0419	0.9009	0.058
Mof_C 	C 	0.6579	0.0021	0.9355	-0.053
Mof_H 	H 	0.5963	0.0029	0.9296	0.048
Mof_C 	C 	0.69	0.9746	0.9696	0.088
Mof_N 	N 	0.623	0.949	0.9924	-0.122
Mof_H 	H 	0.6372	0.9295	0.0139	0.069
Mof_H 	H 	0.5671	0.9515	0.9851	0.053
Mof_N 	N 	0.64	0.927	0.9828	-0.197
Mof_H 	H 	0.6576	0.9108	0.005	0.116
Mof_H 	H 	0.5869	0.9212	0.973	0.106
Mof_N 	N 	0.9271	0.0052	0.961	-0.195
Mof_H 	H 	0.9506	0.9913	0.9829	0.119
Mof_H 	H 	0.9605	0.023	0.9436	0.107
Mof_O 	O 	0.6058	0.6902	0.27182	-0.547
Mof_O 	O 	0.7409	0.6625	0.28377	-0.526
Mof_O 	O 	0.8966	0.8114	0.11766	-0.501
Mof_O 	O 	0.7615	0.8358	0.10314	-0.508
Mof_N 	N 	0.5865	0.7851	0.2265	-0.195
Mof_H 	H 	0.5556	0.8099	0.2135	0.1
Mof_H 	H 	0.5655	0.7706	0.2488	0.094
Mof_C 	C 	0.6886	0.6909	0.263	0.366
Mof_C 	C 	0.7208	0.7228	0.2282	-0.177
Mof_C 	C 	0.7827	0.778	0.1608	-0.003
Mof_C 	C 	0.8154	0.8096	0.1248	0.296
Mof_C 	C 	0.6691	0.7686	0.2116	0.11
Mof_C 	C 	0.6998	0.793	0.1758	-0.04
Mof_H 	H 	0.6647	0.8193	0.1621	0.045
Mof_C 	C 	0.8381	0.7379	0.1793	-0.049
Mof_H 	H 	0.8948	0.7292	0.1686	0.036
Mof_C 	C 	0.8053	0.7118	0.2139	0.058
Mof_C 	C 	0.6619	0.7493	0.2037	0.053
Mof_C 	C 	0.694	0.7755	0.1691	-0.074
Mof_H 	H 	0.6533	0.7919	0.1509	0.058
Mof_C 	C 	0.8421	0.7521	0.1855	-0.054
Mof_H 	H 	0.9037	0.7529	0.1796	0.049
Mof_C 	C 	0.81	0.7246	0.2196	0.088
Mof_N 	N 	0.877	0.699	0.2424	-0.121
Mof_H 	H 	0.8628	0.6795	0.2639	0.069
Mof_H 	H 	0.9329	0.7015	0.2351	0.053
Mof_N 	N 	0.86	0.677	0.2328	-0.197
Mof_H 	H 	0.8424	0.6608	0.255	0.116
Mof_H 	H 	0.9131	0.6712	0.223	0.106
Mof_N 	N 	0.5729	0.7552	0.211	-0.195
Mof_H 	H 	0.5494	0.7413	0.2329	0.119
Mof_H 	H 	0.5395	0.773	0.1936	0.108
Mof_O 	O 	0.6058	0.1902	0.77182	-0.547
Mof_O 	O 	0.7409	0.1625	0.78377	-0.526
Mof_O 	O 	0.8966	0.3114	0.61766	-0.501
Mof_O 	O 	0.7615	0.3358	0.60314	-0.508
Mof_N 	N 	0.5865	0.2851	0.7265	-0.195
Mof_H 	H 	0.5556	0.3099	0.7135	0.1
Mof_H 	H 	0.5655	0.2706	0.7488	0.094
Mof_C 	C 	0.6886	0.1909	0.763	0.366
Mof_C 	C 	0.7208	0.2228	0.7282	-0.177
Mof_C 	C 	0.7827	0.278	0.6608	-0.003
Mof_C 	C 	0.8154	0.3096	0.6248	0.296
Mof_C 	C 	0.6691	0.2686	0.7116	0.11
Mof_C 	C 	0.6998	0.293	0.6758	-0.04
Mof_H 	H 	0.6647	0.3193	0.6621	0.045
Mof_C 	C 	0.8381	0.2379	0.6793	-0.049
Mof_H 	H 	0.8948	0.2292	0.6686	0.035
Mof_C 	C 	0.8053	0.2118	0.7139	0.058
Mof_C 	C 	0.6619	0.2493	0.7037	0.053
Mof_C 	C 	0.694	0.2755	0.6691	-0.074
Mof_H 	H 	0.6533	0.2919	0.6509	0.058
Mof_C 	C 	0.8421	0.2521	0.6855	-0.054
Mof_H 	H 	0.9037	0.2529	0.6796	0.049
Mof_C 	C 	0.81	0.2246	0.7196	0.088
Mof_N 	N 	0.877	0.199	0.7424	-0.121
Mof_H 	H 	0.8628	0.1795	0.7639	0.069
Mof_H 	H 	0.9329	0.2015	0.7351	0.053
Mof_N 	N 	0.86	0.177	0.7328	-0.197
Mof_H 	H 	0.8424	0.1608	0.755	0.116
Mof_H 	H 	0.9131	0.1712	0.723	0.106
Mof_N 	N 	0.5729	0.2552	0.711	-0.195
Mof_H 	H 	0.5494	0.2413	0.7329	0.119
Mof_H 	H 	0.5395	0.273	0.6936	0.108
Mof_O 	O 	0.1058	0.6902	0.77182	-0.547
Mof_O 	O 	0.2409	0.6625	0.78377	-0.526
Mof_O 	O 	0.3966	0.8114	0.61766	-0.501
Mof_O 	O 	0.2615	0.8358	0.60314	-0.508
Mof_N 	N 	0.0865	0.7851	0.7265	-0.195
Mof_H 	H 	0.0556	0.8099	0.7135	0.1
Mof_H 	H 	0.0655	0.7706	0.7488	0.094
Mof_C 	C 	0.1886	0.6909	0.763	0.366
Mof_C 	C 	0.2208	0.7228	0.7282	-0.177
Mof_C 	C 	0.2827	0.778	0.6608	-0.003
Mof_C 	C 	0.3154	0.8096	0.6248	0.296
Mof_C 	C 	0.1691	0.7686	0.7116	0.11
Mof_C 	C 	0.1998	0.793	0.6758	-0.04
Mof_H 	H 	0.1647	0.8193	0.6621	0.045
Mof_C 	C 	0.3381	0.7379	0.6793	-0.049
Mof_H 	H 	0.3948	0.7292	0.6686	0.036
Mof_C 	C 	0.3053	0.7118	0.7139	0.058
Mof_C 	C 	0.1619	0.7493	0.7037	0.053
Mof_C 	C 	0.194	0.7755	0.6691	-0.074
Mof_H 	H 	0.1533	0.7919	0.6509	0.058
Mof_C 	C 	0.3421	0.7521	0.6855	-0.054
Mof_H 	H 	0.4037	0.7529	0.6796	0.049
Mof_C 	C 	0.31	0.7246	0.7196	0.088
Mof_N 	N 	0.377	0.699	0.7424	-0.121
Mof_H 	H 	0.3628	0.6795	0.7639	0.069
Mof_H 	H 	0.4329	0.7015	0.7351	0.053
Mof_N 	N 	0.36	0.677	0.7328	-0.197
Mof_H 	H 	0.3424	0.6608	0.755	0.116
Mof_H 	H 	0.4131	0.6712	0.723	0.106
Mof_N 	N 	0.0729	0.7552	0.711	-0.195
Mof_H 	H 	0.0494	0.7413	0.7329	0.119
Mof_H 	H 	0.0395	0.773	0.6936	0.108
Mof_O 	O 	0.1058	0.1902	0.27182	-0.547
Mof_O 	O 	0.2409	0.1625	0.28377	-0.526
Mof_O 	O 	0.3966	0.3114	0.11766	-0.501
Mof_O 	O 	0.2615	0.3358	0.10314	-0.508
Mof_N 	N 	0.0865	0.2851	0.2265	-0.195
Mof_H 	H 	0.0556	0.3099	0.2135	0.1
Mof_H 	H 	0.0655	0.2706	0.2488	0.094
Mof_C 	C 	0.1886	0.1909	0.263	0.366
Mof_C 	C 	0.2208	0.2228	0.2282	-0.177
Mof_C 	C 	0.2827	0.278	0.1608	-0.003
Mof_C 	C 	0.3154	0.3096	0.1248	0.296
Mof_C 	C 	0.1691	0.2686	0.2116	0.11
Mof_C 	C 	0.1998	0.293	0.1758	-0.04
Mof_H 	H 	0.1647	0.3193	0.1621	0.045
Mof_C 	C 	0.3381	0.2379	0.1793	-0.049
Mof_H 	H 	0.3948	0.2292	0.1686	0.036
Mof_C 	C 	0.3053	0.2118	0.2139	0.058
Mof_C 	C 	0.1619	0.2493	0.2037	0.053
Mof_C 	C 	0.194	0.2755	0.1691	-0.074
Mof_H 	H 	0.1533	0.2919	0.1509	0.058
Mof_C 	C 	0.3421	0.2521	0.1855	-0.054
Mof_H 	H 	0.4037	0.2529	0.1796	0.049
Mof_C 	C 	0.31	0.2246	0.2196	0.088
Mof_N 	N 	0.377	0.199	0.2424	-0.121
Mof_H 	H 	0.3628	0.1795	0.2639	0.069
Mof_H 	H 	0.4329	0.2015	0.2351	0.053
Mof_N 	N 	0.36	0.177	0.2328	-0.197
Mof_H 	H 	0.3424	0.1608	0.255	0.116
Mof_H 	H 	0.4131	0.1712	0.223	0.106
Mof_N 	N 	0.0729	0.2552	0.211	-0.195
Mof_H 	H 	0.0494	0.2413	0.2329	0.119
Mof_H 	H 	0.0395	0.273	0.1936	0.108
Mof_O 	O 	0.6442	0.5598	0.27182	-0.547
Mof_O 	O 	0.5091	0.5875	0.28377	-0.526
Mof_O 	O 	0.3534	0.4386	0.11766	-0.501
Mof_O 	O 	0.4885	0.4142	0.10314	-0.508
Mof_N 	N 	0.6635	0.4649	0.2265	-0.195
Mof_H 	H 	0.6944	0.4401	0.2135	0.1
Mof_H 	H 	0.6845	0.4794	0.2488	0.094
Mof_C 	C 	0.5614	0.5591	0.263	0.366
Mof_C 	C 	0.5292	0.5272	0.2282	-0.177
Mof_C 	C 	0.4673	0.472	0.1608	-0.003
Mof_C 	C 	0.4346	0.4404	0.1248	0.296
Mof_C 	C 	0.5809	0.4814	0.2116	0.11
Mof_C 	C 	0.5502	0.457	0.1758	-0.04
Mof_H 	H 	0.5853	0.4307	0.1621	0.045
Mof_C 	C 	0.4119	0.5121	0.1793	-0.049
Mof_H 	H 	0.3552	0.5208	0.1686	0.036
Mof_C 	C 	0.4447	0.5382	0.2139	0.058
Mof_C 	C 	0.5881	0.5007	0.2037	0.053
Mof_C 	C 	0.556	0.4745	0.1691	-0.074
Mof_H 	H 	0.5967	0.4581	0.1509	0.058
Mof_C 	C 	0.4079	0.4979	0.1855	-0.054
Mof_H 	H 	0.3463	0.4971	0.1796	0.049
Mof_C 	C 	0.44	0.5254	0.2196	0.088
Mof_N 	N 	0.373	0.551	0.2424	-0.121
Mof_H 	H 	0.3872	0.5705	0.2639	0.069
Mof_H 	H 	0.3171	0.5485	0.2351	0.053
Mof_N 	N 	0.39	0.573	0.2328	-0.197
Mof_H 	H 	0.4076	0.5892	0.255	0.116
Mof_H 	H 	0.3369	0.5788	0.223	0.106
Mof_N 	N 	0.6771	0.4948	0.211	-0.195
Mof_H 	H 	0.7006	0.5087	0.2329	0.119
Mof_H 	H 	0.7105	0.477	0.1936	0.108
Mof_O 	O 	0.6442	0.0598	0.77182	-0.547
Mof_O 	O 	0.5091	0.0875	0.78377	-0.526
Mof_O 	O 	0.3534	0.9386	0.61766	-0.501
Mof_O 	O 	0.4885	0.9142	0.60314	-0.508
Mof_N 	N 	0.6635	0.9649	0.7265	-0.195
Mof_H 	H 	0.6944	0.9401	0.7135	0.1
Mof_H 	H 	0.6845	0.9794	0.7488	0.094
Mof_C 	C 	0.5614	0.0591	0.763	0.366
Mof_C 	C 	0.5292	0.0272	0.7282	-0.177
Mof_C 	C 	0.4673	0.972	0.6608	-0.003
Mof_C 	C 	0.4346	0.9404	0.6248	0.296
Mof_C 	C 	0.5809	0.9814	0.7116	0.109
Mof_C 	C 	0.5502	0.957	0.6758	-0.04
Mof_H 	H 	0.5853	0.9307	0.6621	0.045
Mof_C 	C 	0.4119	0.0121	0.6793	-0.049
Mof_H 	H 	0.3552	0.0208	0.6686	0.036
Mof_C 	C 	0.4447	0.0382	0.7139	0.058
Mof_C 	C 	0.5881	0.0007	0.7037	0.054
Mof_C 	C 	0.556	0.9745	0.6691	-0.073
Mof_H 	H 	0.5967	0.9581	0.6509	0.058
Mof_C 	C 	0.4079	0.9979	0.6855	-0.054
Mof_H 	H 	0.3463	0.9971	0.6796	0.049
Mof_C 	C 	0.44	0.0254	0.7196	0.088
Mof_N 	N 	0.373	0.051	0.7424	-0.121
Mof_H 	H 	0.3872	0.0705	0.7639	0.069
Mof_H 	H 	0.3171	0.0485	0.7351	0.053
Mof_N 	N 	0.39	0.073	0.7328	-0.197
Mof_H 	H 	0.4076	0.0892	0.755	0.116
Mof_H 	H 	0.3369	0.0788	0.723	0.106
Mof_N 	N 	0.6771	0.9948	0.711	-0.195
Mof_H 	H 	0.7006	0.0087	0.7329	0.119
Mof_H 	H 	0.7105	0.977	0.6936	0.108
Mof_O 	O 	0.1442	0.5598	0.77182	-0.547
Mof_O 	O 	0.0091	0.5875	0.78377	-0.526
Mof_O 	O 	0.8534	0.4386	0.61766	-0.501
Mof_O 	O 	0.9885	0.4142	0.60314	-0.508
Mof_N 	N 	0.1635	0.4649	0.7265	-0.195
Mof_H 	H 	0.1944	0.4401	0.7135	0.1
Mof_H 	H 	0.1845	0.4794	0.7488	0.094
Mof_C 	C 	0.0614	0.5591	0.763	0.366
Mof_C 	C 	0.0292	0.5272	0.7282	-0.177
Mof_C 	C 	0.9673	0.472	0.6608	-0.003
Mof_C 	C 	0.9346	0.4404	0.6248	0.296
Mof_C 	C 	0.0809	0.4814	0.7116	0.11
Mof_C 	C 	0.0502	0.457	0.6758	-0.04
Mof_H 	H 	0.0853	0.4307	0.6621	0.045
Mof_C 	C 	0.9119	0.5121	0.6793	-0.049
Mof_H 	H 	0.8552	0.5208	0.6686	0.036
Mof_C 	C 	0.9447	0.5382	0.7139	0.058
Mof_C 	C 	0.0881	0.5007	0.7037	0.053
Mof_C 	C 	0.056	0.4745	0.6691	-0.074
Mof_H 	H 	0.0967	0.4581	0.6509	0.058
Mof_C 	C 	0.9079	0.4979	0.6855	-0.054
Mof_H 	H 	0.8463	0.4971	0.6796	0.049
Mof_C 	C 	0.94	0.5254	0.7196	0.088
Mof_N 	N 	0.873	0.551	0.7424	-0.121
Mof_H 	H 	0.8872	0.5705	0.7639	0.069
Mof_H 	H 	0.8171	0.5485	0.7351	0.053
Mof_N 	N 	0.89	0.573	0.7328	-0.197
Mof_H 	H 	0.9076	0.5892	0.755	0.116
Mof_H 	H 	0.8369	0.5788	0.723	0.106
Mof_N 	N 	0.1771	0.4948	0.711	-0.195
Mof_H 	H 	0.2006	0.5087	0.7329	0.119
Mof_H 	H 	0.2105	0.477	0.6936	0.108
Mof_O 	O 	0.1442	0.0598	0.27182	-0.547
Mof_O 	O 	0.0091	0.0875	0.28377	-0.526
Mof_O 	O 	0.8534	0.9386	0.11766	-0.501
Mof_O 	O 	0.9885	0.9142	0.10314	-0.508
Mof_N 	N 	0.1635	0.9649	0.2265	-0.196
Mof_H 	H 	0.1944	0.9401	0.2135	0.1
Mof_H 	H 	0.1845	0.9794	0.2488	0.094
Mof_C 	C 	0.0614	0.0591	0.263	0.366
Mof_C 	C 	0.0292	0.0272	0.2282	-0.176
Mof_C 	C 	0.9673	0.972	0.1608	-0.002
Mof_C 	C 	0.9346	0.9404	0.1248	0.296
Mof_C 	C 	0.0809	0.9814	0.2116	0.114
Mof_C 	C 	0.0502	0.957	0.1758	-0.04
Mof_H 	H 	0.0853	0.9307	0.1621	0.044
Mof_C 	C 	0.9119	0.0121	0.1793	-0.048
Mof_H 	H 	0.8552	0.0208	0.1686	0.035
Mof_C 	C 	0.9447	0.0382	0.2139	0.058
Mof_C 	C 	0.0881	0.0007	0.2037	0.049
Mof_C 	C 	0.056	0.9745	0.1691	-0.075
Mof_H 	H 	0.0967	0.9581	0.1509	0.058
Mof_C 	C 	0.9079	0.9979	0.1855	-0.055
Mof_H 	H 	0.8463	0.9971	0.1796	0.049
Mof_C 	C 	0.94	0.0254	0.2196	0.087
Mof_N 	N 	0.873	0.051	0.2424	-0.122
Mof_H 	H 	0.8872	0.0705	0.2639	0.069
Mof_H 	H 	0.8171	0.0485	0.2351	0.053
Mof_N 	N 	0.89	0.073	0.2328	-0.197
Mof_H 	H 	0.9076	0.0892	0.255	0.115
Mof_H 	H 	0.8369	0.0788	0.223	0.106
Mof_N 	N 	0.1771	0.9948	0.211	-0.194
Mof_H 	H 	0.2006	0.0087	0.2329	0.119
Mof_H 	H 	0.2105	0.977	0.1936	0.108
Mof_In	In	0.375	0.375	0.0686	2.526
Mof_In	In	0.375	0.875	0.5686	2.526
Mof_In	In	0.875	0.375	0.5686	2.526
Mof_In	In	0.875	0.875	0.0686	2.526
Mof_In	In	0.625	0.625	0.3186	2.526
Mof_In	In	0.625	0.125	0.8186	2.526
Mof_In	In	0.125	0.625	0.8186	2.526
Mof_In	In	0.125	0.125	0.3186	2.526
Mof_O 	O 	0.3942	0.3098	0.72818	-0.547
Mof_O 	O 	0.2591	0.3375	0.71623	-0.526
Mof_O 	O 	0.1034	0.1886	0.88234	-0.501
Mof_O 	O 	0.2385	0.1642	0.89686	-0.508
Mof_N 	N 	0.4135	0.2149	0.7735	-0.195
Mof_H 	H 	0.4444	0.1901	0.7865	0.1
Mof_H 	H 	0.4345	0.2294	0.7512	0.094
Mof_C 	C 	0.3114	0.3091	0.737	0.366
Mof_C 	C 	0.2792	0.2772	0.7718	-0.177
Mof_C 	C 	0.2173	0.222	0.8392	-0.003
Mof_C 	C 	0.1846	0.1904	0.8752	0.296
Mof_C 	C 	0.3309	0.2314	0.7884	0.11
Mof_C 	C 	0.3002	0.207	0.8242	-0.04
Mof_H 	H 	0.3353	0.1807	0.8379	0.045
Mof_C 	C 	0.1619	0.2621	0.8207	-0.049
Mof_H 	H 	0.1052	0.2708	0.8314	0.036
Mof_C 	C 	0.1947	0.2882	0.7861	0.058
Mof_C 	C 	0.3381	0.2507	0.7963	0.053
Mof_C 	C 	0.306	0.2245	0.8309	-0.074
Mof_H 	H 	0.3467	0.2081	0.8491	0.058
Mof_C 	C 	0.1579	0.2479	0.8145	-0.054
Mof_H 	H 	0.0963	0.2471	0.8204	0.049
Mof_C 	C 	0.19	0.2754	0.7804	0.088
Mof_N 	N 	0.123	0.301	0.7576	-0.121
Mof_H 	H 	0.1372	0.3205	0.7361	0.069
Mof_H 	H 	0.0671	0.2985	0.7649	0.053
Mof_N 	N 	0.14	0.323	0.7672	-0.197
Mof_H 	H 	0.1576	0.3392	0.745	0.116
Mof_H 	H 	0.0869	0.3288	0.777	0.106
Mof_N 	N 	0.4271	0.2448	0.789	-0.195
Mof_H 	H 	0.4506	0.2587	0.7671	0.119
Mof_H 	H 	0.4605	0.227	0.8064	0.108
Mof_O 	O 	0.3942	0.8098	0.22818	-0.547
Mof_O 	O 	0.2591	0.8375	0.21623	-0.526
Mof_O 	O 	0.1034	0.6886	0.38234	-0.501
Mof_O 	O 	0.2385	0.6642	0.39686	-0.508
Mof_N 	N 	0.4135	0.7149	0.2735	-0.195
Mof_H 	H 	0.4444	0.6901	0.2865	0.1
Mof_H 	H 	0.4345	0.7294	0.2512	0.094
Mof_C 	C 	0.3114	0.8091	0.237	0.366
Mof_C 	C 	0.2792	0.7772	0.2718	-0.177
Mof_C 	C 	0.2173	0.722	0.3392	-0.003
Mof_C 	C 	0.1846	0.6904	0.3752	0.296
Mof_C 	C 	0.3309	0.7314	0.2884	0.11
Mof_C 	C 	0.3002	0.707	0.3242	-0.04
Mof_H 	H 	0.3353	0.6807	0.3379	0.045
Mof_C 	C 	0.1619	0.7621	0.3207	-0.049
Mof_H 	H 	0.1052	0.7708	0.3314	0.035
Mof_C 	C 	0.1947	0.7882	0.2861	0.058
Mof_C 	C 	0.3381	0.7507	0.2963	0.053
Mof_C 	C 	0.306	0.7245	0.3309	-0.074
Mof_H 	H 	0.3467	0.7081	0.3491	0.058
Mof_C 	C 	0.1579	0.7479	0.3145	-0.054
Mof_H 	H 	0.0963	0.7471	0.3204	0.049
Mof_C 	C 	0.19	0.7754	0.2804	0.088
Mof_N 	N 	0.123	0.801	0.2576	-0.121
Mof_H 	H 	0.1372	0.8205	0.2361	0.069
Mof_H 	H 	0.0671	0.7985	0.2649	0.053
Mof_N 	N 	0.14	0.823	0.2672	-0.197
Mof_H 	H 	0.1576	0.8392	0.245	0.116
Mof_H 	H 	0.0869	0.8288	0.277	0.106
Mof_N 	N 	0.4271	0.7448	0.289	-0.195
Mof_H 	H 	0.4506	0.7587	0.2671	0.119
Mof_H 	H 	0.4605	0.727	0.3064	0.108
Mof_O 	O 	0.8942	0.3098	0.22818	-0.547
Mof_O 	O 	0.7591	0.3375	0.21623	-0.526
Mof_O 	O 	0.6034	0.1886	0.38234	-0.501
Mof_O 	O 	0.7385	0.1642	0.39686	-0.508
Mof_N 	N 	0.9135	0.2149	0.2735	-0.195
Mof_H 	H 	0.9444	0.1901	0.2865	0.1
Mof_H 	H 	0.9345	0.2294	0.2512	0.094
Mof_C 	C 	0.8114	0.3091	0.237	0.366
Mof_C 	C 	0.7792	0.2772	0.2718	-0.177
Mof_C 	C 	0.7173	0.222	0.3392	-0.003
Mof_C 	C 	0.6846	0.1904	0.3752	0.296
Mof_C 	C 	0.8309	0.2314	0.2884	0.11
Mof_C 	C 	0.8002	0.207	0.3242	-0.04
Mof_H 	H 	0.8353	0.1807	0.3379	0.045
Mof_C 	C 	0.6619	0.2621	0.3207	-0.049
Mof_H 	H 	0.6052	0.2708	0.3314	0.036
Mof_C 	C 	0.6947	0.2882	0.2861	0.058
Mof_C 	C 	0.8381	0.2507	0.2963	0.053
Mof_C 	C 	0.806	0.2245	0.3309	-0.074
Mof_H 	H 	0.8467	0.2081	0.3491	0.058
Mof_C 	C 	0.6579	0.2479	0.3145	-0.054
Mof_H 	H 	0.5963	0.2471	0.3204	0.049
Mof_C 	C 	0.69	0.2754	0.2804	0.088
Mof_N 	N 	0.623	0.301	0.2576	-0.121
Mof_H 	H 	0.6372	0.3205	0.2361	0.069
Mof_H 	H 	0.5671	0.2985	0.2649	0.053
Mof_N 	N 	0.64	0.323	0.2672	-0.197
Mof_H 	H 	0.6576	0.3392	0.245	0.116
Mof_H 	H 	0.5869	0.3288	0.277	0.106
Mof_N 	N 	0.9271	0.2448	0.289	-0.195
Mof_H 	H 	0.9506	0.2587	0.2671	0.119
Mof_H 	H 	0.9605	0.227	0.3064	0.108
Mof_O 	O 	0.8942	0.8098	0.72818	-0.547
Mof_O 	O 	0.7591	0.8375	0.71623	-0.526
Mof_O 	O 	0.6034	0.6886	0.88234	-0.501
Mof_O 	O 	0.7385	0.6642	0.89686	-0.508
Mof_N 	N 	0.9135	0.7149	0.7735	-0.195
Mof_H 	H 	0.9444	0.6901	0.7865	0.1
Mof_H 	H 	0.9345	0.7294	0.7512	0.094
Mof_C 	C 	0.8114	0.8091	0.737	0.366
Mof_C 	C 	0.7792	0.7772	0.7718	-0.177
Mof_C 	C 	0.7173	0.722	0.8392	-0.003
Mof_C 	C 	0.6846	0.6904	0.8752	0.296
Mof_C 	C 	0.8309	0.7314	0.7884	0.11
Mof_C 	C 	0.8002	0.707	0.8242	-0.04
Mof_H 	H 	0.8353	0.6807	0.8379	0.045
Mof_C 	C 	0.6619	0.7621	0.8207	-0.049
Mof_H 	H 	0.6052	0.7708	0.8314	0.036
Mof_C 	C 	0.6947	0.7882	0.7861	0.058
Mof_C 	C 	0.8381	0.7507	0.7963	0.053
Mof_C 	C 	0.806	0.7245	0.8309	-0.074
Mof_H 	H 	0.8467	0.7081	0.8491	0.058
Mof_C 	C 	0.6579	0.7479	0.8145	-0.054
Mof_H 	H 	0.5963	0.7471	0.8204	0.049
Mof_C 	C 	0.69	0.7754	0.7804	0.088
Mof_N 	N 	0.623	0.801	0.7576	-0.121
Mof_H 	H 	0.6372	0.8205	0.7361	0.069
Mof_H 	H 	0.5671	0.7985	0.7649	0.053
Mof_N 	N 	0.64	0.823	0.7672	-0.197
Mof_H 	H 	0.6576	0.8392	0.745	0.116
Mof_H 	H 	0.5869	0.8288	0.777	0.106
Mof_N 	N 	0.9271	0.7448	0.789	-0.195
Mof_H 	H 	0.9506	0.7587	0.7671	0.119
Mof_H 	H 	0.9605	0.727	0.8064	0.108
Mof_O 	O 	0.3558	0.4402	0.72818	-0.547
Mof_O 	O 	0.4909	0.4125	0.71623	-0.526
Mof_O 	O 	0.6466	0.5614	0.88234	-0.501
Mof_O 	O 	0.5115	0.5858	0.89686	-0.508
Mof_N 	N 	0.3365	0.5351	0.7735	-0.195
Mof_H 	H 	0.3056	0.5599	0.7865	0.1
Mof_H 	H 	0.3155	0.5206	0.7512	0.094
Mof_C 	C 	0.4386	0.4409	0.737	0.366
Mof_C 	C 	0.4708	0.4728	0.7718	-0.177
Mof_C 	C 	0.5327	0.528	0.8392	-0.003
Mof_C 	C 	0.5654	0.5596	0.8752	0.296
Mof_C 	C 	0.4191	0.5186	0.7884	0.11
Mof_C 	C 	0.4498	0.543	0.8242	-0.04
Mof_H 	H 	0.4147	0.5693	0.8379	0.045
Mof_C 	C 	0.5881	0.4879	0.8207	-0.049
Mof_H 	H 	0.6448	0.4792	0.8314	0.036
Mof_C 	C 	0.5553	0.4618	0.7861	0.058
Mof_C 	C 	0.4119	0.4993	0.7963	0.053
Mof_C 	C 	0.444	0.5255	0.8309	-0.074
Mof_H 	H 	0.4033	0.5419	0.8491	0.058
Mof_C 	C 	0.5921	0.5021	0.8145	-0.054
Mof_H 	H 	0.6537	0.5029	0.8204	0.049
Mof_C 	C 	0.56	0.4746	0.7804	0.088
Mof_N 	N 	0.627	0.449	0.7576	-0.121
Mof_H 	H 	0.6128	0.4295	0.7361	0.069
Mof_H 	H 	0.6829	0.4515	0.7649	0.053
Mof_N 	N 	0.61	0.427	0.7672	-0.197
Mof_H 	H 	0.5924	0.4108	0.745	0.116
Mof_H 	H 	0.6631	0.4212	0.777	0.106
Mof_N 	N 	0.3229	0.5052	0.789	-0.195
Mof_H 	H 	0.2994	0.4913	0.7671	0.119
Mof_H 	H 	0.2895	0.523	0.8064	0.108
Mof_O 	O 	0.3558	0.9402	0.22818	-0.547
Mof_O 	O 	0.4909	0.9125	0.21623	-0.526
Mof_O 	O 	0.6466	0.0614	0.38234	-0.501
Mof_O 	O 	0.5115	0.0858	0.39686	-0.508
Mof_N 	N 	0.3365	0.0351	0.2735	-0.195
Mof_H 	H 	0.3056	0.0599	0.2865	0.1
Mof_H 	H 	0.3155	0.0206	0.2512	0.094
Mof_C 	C 	0.4386	0.9409	0.237	0.366
Mof_C 	C 	0.4708	0.9728	0.2718	-0.177
Mof_C 	C 	0.5327	0.028	0.3392	-0.003
Mof_C 	C 	0.5654	0.0596	0.3752	0.296
Mof_C 	C 	0.4191	0.0186	0.2884	0.109
Mof_C 	C 	0.4498	0.043	0.3242	-0.04
Mof_H 	H 	0.4147	0.0693	0.3379	0.045
Mof_C 	C 	0.5881	0.9879	0.3207	-0.049
Mof_H 	H 	0.6448	0.9792	0.3314	0.036
Mof_C 	C 	0.5553	0.9618	0.2861	0.058
Mof_C 	C 	0.4119	0.9993	0.2963	0.054
Mof_C 	C 	0.444	0.0255	0.3309	-0.073
Mof_H 	H 	0.4033	0.0419	0.3491	0.058
Mof_C 	C 	0.5921	0.0021	0.3145	-0.054
Mof_H 	H 	0.6537	0.0029	0.3204	0.049
Mof_C 	C 	0.56	0.9746	0.2804	0.088
Mof_N 	N 	0.627	0.949	0.2576	-0.121
Mof_H 	H 	0.6128	0.9295	0.2361	0.069
Mof_H 	H 	0.6829	0.9515	0.2649	0.053
Mof_N 	N 	0.61	0.927	0.2672	-0.197
Mof_H 	H 	0.5924	0.9108	0.245	0.116
Mof_H 	H 	0.6631	0.9212	0.277	0.106
Mof_N 	N 	0.3229	0.0052	0.289	-0.195
Mof_H 	H 	0.2994	0.9913	0.2671	0.119
Mof_H 	H 	0.2895	0.023	0.3064	0.108
Mof_O 	O 	0.8558	0.4402	0.22818	-0.547
Mof_O 	O 	0.9909	0.4125	0.21623	-0.526
Mof_O 	O 	0.1466	0.5614	0.38234	-0.501
Mof_O 	O 	0.0115	0.5858	0.39686	-0.508
Mof_N 	N 	0.8365	0.5351	0.2735	-0.195
Mof_H 	H 	0.8056	0.5599	0.2865	0.1
Mof_H 	H 	0.8155	0.5206	0.2512	0.094
Mof_C 	C 	0.9386	0.4409	0.237	0.366
Mof_C 	C 	0.9708	0.4728	0.2718	-0.177
Mof_C 	C 	0.0327	0.528	0.3392	-0.003
Mof_C 	C 	0.0654	0.5596	0.3752	0.296
Mof_C 	C 	0.9191	0.5186	0.2884	0.11
Mof_C 	C 	0.9498	0.543	0.3242	-0.04
Mof_H 	H 	0.9147	0.5693	0.3379	0.045
Mof_C 	C 	0.0881	0.4879	0.3207	-0.049
Mof_H 	H 	0.1448	0.4792	0.3314	0.036
Mof_C 	C 	0.0553	0.4618	0.2861	0.058
Mof_C 	C 	0.9119	0.4993	0.2963	0.053
Mof_C 	C 	0.944	0.5255	0.3309	-0.074
Mof_H 	H 	0.9033	0.5419	0.3491	0.058
Mof_C 	C 	0.0921	0.5021	0.3145	-0.054
Mof_H 	H 	0.1537	0.5029	0.3204	0.049
Mof_C 	C 	0.06	0.4746	0.2804	0.088
Mof_N 	N 	0.127	0.449	0.2576	-0.121
Mof_H 	H 	0.1128	0.4295	0.2361	0.069
Mof_H 	H 	0.1829	0.4515	0.2649	0.053
Mof_N 	N 	0.11	0.427	0.2672	-0.197
Mof_H 	H 	0.0924	0.4108	0.245	0.116
Mof_H 	H 	0.1631	0.4212	0.277	0.106
Mof_N 	N 	0.8229	0.5052	0.289	-0.195
Mof_H 	H 	0.7994	0.4913	0.2671	0.119
Mof_H 	H 	0.7895	0.523	0.3064	0.108
Mof_O 	O 	0.8558	0.9402	0.72818	-0.547
Mof_O 	O 	0.9909	0.9125	0.71623	-0.526
Mof_O 	O 	0.1466	0.0614	0.88234	-0.501
Mof_O 	O 	0.0115	0.0858	0.89686	-0.508
Mof_N 	N 	0.8365	0.0351	0.7735	-0.196
Mof_H 	H 	0.8056	0.0599	0.7865	0.1
Mof_H 	H 	0.8155	0.0206	0.7512	0.094
Mof_C 	C 	0.9386	0.9409	0.737	0.366
Mof_C 	C 	0.9708	0.9728	0.7718	-0.176
Mof_C 	C 	0.0327	0.028	0.8392	-0.002
Mof_C 	C 	0.0654	0.0596	0.8752	0.296
Mof_C 	C 	0.9191	0.0186	0.7884	0.114
Mof_C 	C 	0.9498	0.043	0.8242	-0.04
Mof_H 	H 	0.9147	0.0693	0.8379	0.044
Mof_C 	C 	0.0881	0.9879	0.8207	-0.048
Mof_H 	H 	0.1448	0.9792	0.8314	0.035
Mof_C 	C 	0.0553	0.9618	0.7861	0.058
Mof_C 	C 	0.9119	0.9993	0.7963	0.049
Mof_C 	C 	0.944	0.0255	0.8309	-0.075
Mof_H 	H 	0.9033	0.0419	0.8491	0.058
Mof_C 	C 	0.0921	0.0021	0.8145	-0.055
Mof_H 	H 	0.1537	0.0029	0.8204	0.049
Mof_C 	C 	0.06	0.9746	0.7804	0.087
Mof_N 	N 	0.127	0.949	0.7576	-0.122
Mof_H 	H 	0.1128	0.9295	0.7361	0.069
Mof_H 	H 	0.1829	0.9515	0.7649	0.053
Mof_N 	N 	0.11	0.927	0.7672	-0.197
Mof_H 	H 	0.0924	0.9108	0.745	0.115
Mof_H 	H 	0.1631	0.9212	0.777	0.106
Mof_N 	N 	0.8229	0.0052	0.789	-0.194
Mof_H 	H 	0.7994	0.9913	0.7671	0.119
Mof_H 	H 	0.7895	0.023	0.8064	0.108
Mof_O 	O 	0.6442	0.6902	0.97818	-0.547
Mof_O 	O 	0.5091	0.6625	0.96623	-0.526
Mof_O 	O 	0.3534	0.8114	0.13234	-0.501
Mof_O 	O 	0.4885	0.8358	0.14686	-0.508
Mof_N 	N 	0.6635	0.7851	0.0235	-0.195
Mof_H 	H 	0.6944	0.8099	0.0365	0.1
Mof_H 	H 	0.6845	0.7706	0.0012	0.094
Mof_C 	C 	0.5614	0.6909	0.987	0.366
Mof_C 	C 	0.5292	0.7228	0.0218	-0.177
Mof_C 	C 	0.4673	0.778	0.0892	-0.003
Mof_C 	C 	0.4346	0.8096	0.1252	0.296
Mof_C 	C 	0.5809	0.7686	0.0384	0.11
Mof_C 	C 	0.5502	0.793	0.0742	-0.04
Mof_H 	H 	0.5853	0.8193	0.0879	0.045
Mof_C 	C 	0.4119	0.7379	0.0707	-0.049
Mof_H 	H 	0.3552	0.7292	0.0814	0.036
Mof_C 	C 	0.4447	0.7118	0.0361	0.058
Mof_C 	C 	0.5881	0.7493	0.0463	0.053
Mof_C 	C 	0.556	0.7755	0.0809	-0.074
Mof_H 	H 	0.5967	0.7919	0.0991	0.058
Mof_C 	C 	0.4079	0.7521	0.0645	-0.054
Mof_H 	H 	0.3463	0.7529	0.0704	0.049
Mof_C 	C 	0.44	0.7246	0.0304	0.088
Mof_N 	N 	0.373	0.699	0.0076	-0.122
Mof_H 	H 	0.3872	0.6795	0.9861	0.069
Mof_H 	H 	0.3171	0.7015	0.0149	0.053
Mof_N 	N 	0.39	0.677	0.0172	-0.197
Mof_H 	H 	0.4076	0.6608	0.995	0.116
Mof_H 	H 	0.3369	0.6712	0.027	0.106
Mof_N 	N 	0.6771	0.7552	0.039	-0.195
Mof_H 	H 	0.7006	0.7413	0.0171	0.119
Mof_H 	H 	0.7105	0.773	0.0564	0.108
Mof_O 	O 	0.6442	0.1902	0.47818	-0.547
Mof_O 	O 	0.5091	0.1625	0.46623	-0.526
Mof_O 	O 	0.3534	0.3114	0.63234	-0.501
Mof_O 	O 	0.4885	0.3358	0.64686	-0.508
Mof_N 	N 	0.6635	0.2851	0.5235	-0.195
Mof_H 	H 	0.6944	0.3099	0.5365	0.1
Mof_H 	H 	0.6845	0.2706	0.5012	0.094
Mof_C 	C 	0.5614	0.1909	0.487	0.366
Mof_C 	C 	0.5292	0.2228	0.5218	-0.177
Mof_C 	C 	0.4673	0.278	0.5892	-0.003
Mof_C 	C 	0.4346	0.3096	0.6252	0.296
Mof_C 	C 	0.5809	0.2686	0.5384	0.11
Mof_C 	C 	0.5502	0.293	0.5742	-0.04
Mof_H 	H 	0.5853	0.3193	0.5879	0.045
Mof_C 	C 	0.4119	0.2379	0.5707	-0.049
Mof_H 	H 	0.3552	0.2292	0.5814	0.036
Mof_C 	C 	0.4447	0.2118	0.5361	0.058
Mof_C 	C 	0.5881	0.2493	0.5463	0.053
Mof_C 	C 	0.556	0.2755	0.5809	-0.074
Mof_H 	H 	0.5967	0.2919	0.5991	0.058
Mof_C 	C 	0.4079	0.2521	0.5645	-0.054
Mof_H 	H 	0.3463	0.2529	0.5704	0.049
Mof_C 	C 	0.44	0.2246	0.5304	0.088
Mof_N 	N 	0.373	0.199	0.5076	-0.121
Mof_H 	H 	0.3872	0.1795	0.4861	0.069
Mof_H 	H 	0.3171	0.2015	0.5149	0.053
Mof_N 	N 	0.39	0.177	0.5172	-0.197
Mof_H 	H 	0.4076	0.1608	0.495	0.116
Mof_H 	H 	0.3369	0.1712	0.527	0.106
Mof_N 	N 	0.6771	0.2552	0.539	-0.195
Mof_H 	H 	0.7006	0.2413	0.5171	0.119
Mof_H 	H 	0.7105	0.273	0.5564	0.108
Mof_O 	O 	0.1442	0.6902	0.47818	-0.547
Mof_O 	O 	0.0091	0.6625	0.46623	-0.526
Mof_O 	O 	0.8534	0.8114	0.63234	-0.501
Mof_O 	O 	0.9885	0.8358	0.64686	-0.508
Mof_N 	N 	0.1635	0.7851	0.5235	-0.195
Mof_H 	H 	0.1944	0.8099	0.5365	0.1
Mof_H 	H 	0.1845	0.7706	0.5012	0.094
Mof_C 	C 	0.0614	0.6909	0.487	0.366
Mof_C 	C 	0.0292	0.7228	0.5218	-0.177
Mof_C 	C 	0.9673	0.778	0.5892	-0.002
Mof_C 	C 	0.9346	0.8096	0.6252	0.296
Mof_C 	C 	0.0809	0.7686	0.5384	0.111
Mof_C 	C 	0.0502	0.793	0.5742	-0.04
Mof_H 	H 	0.0853	0.8193	0.5879	0.045
Mof_C 	C 	0.9119	0.7379	0.5707	-0.049
Mof_H 	H 	0.8552	0.7292	0.5814	0.036
Mof_C 	C 	0.9447	0.7118	0.5361	0.058
Mof_C 	C 	0.0881	0.7493	0.5463	0.052
Mof_C 	C 	0.056	0.7755	0.5809	-0.074
Mof_H 	H 	0.0967	0.7919	0.5991	0.058
Mof_C 	C 	0.9079	0.7521	0.5645	-0.054
Mof_H 	H 	0.8463	0.7529	0.5704	0.049
Mof_C 	C 	0.94	0.7246	0.5304	0.088
Mof_N 	N 	0.873	0.699	0.5076	-0.121
Mof_H 	H 	0.8872	0.6795	0.4861	0.069
Mof_H 	H 	0.8171	0.7015	0.5149	0.053
Mof_N 	N 	0.89	0.677	0.5172	-0.197
Mof_H 	H 	0.9076	0.6608	0.495	0.116
Mof_H 	H 	0.8369	0.6712	0.527	0.106
Mof_N 	N 	0.1771	0.7552	0.539	-0.195
Mof_H 	H 	0.2006	0.7413	0.5171	0.119
Mof_H 	H 	0.2105	0.773	0.5564	0.108
Mof_O 	O 	0.1442	0.1902	0.97818	-0.547
Mof_O 	O 	0.0091	0.1625	0.96623	-0.526
Mof_O 	O 	0.8534	0.3114	0.13234	-0.501
Mof_O 	O 	0.9885	0.3358	0.14686	-0.508
Mof_N 	N 	0.1635	0.2851	0.0235	-0.195
Mof_H 	H 	0.1944	0.3099	0.0365	0.1
Mof_H 	H 	0.1845	0.2706	0.0012	0.094
Mof_C 	C 	0.0614	0.1909	0.987	0.366
Mof_C 	C 	0.0292	0.2228	0.0218	-0.177
Mof_C 	C 	0.9673	0.278	0.0892	-0.003
Mof_C 	C 	0.9346	0.3096	0.1252	0.296
Mof_C 	C 	0.0809	0.2686	0.0384	0.111
Mof_C 	C 	0.0502	0.293	0.0742	-0.04
Mof_H 	H 	0.0853	0.3193	0.0879	0.045
Mof_C 	C 	0.9119	0.2379	0.0707	-0.049
Mof_H 	H 	0.8552	0.2292	0.0814	0.035
Mof_C 	C 	0.9447	0.2118	0.0361	0.058
Mof_C 	C 	0.0881	0.2493	0.0463	0.052
Mof_C 	C 	0.056	0.2755	0.0809	-0.074
Mof_H 	H 	0.0967	0.2919	0.0991	0.058
Mof_C 	C 	0.9079	0.2521	0.0645	-0.054
Mof_H 	H 	0.8463	0.2529	0.0704	0.049
Mof_C 	C 	0.94	0.2246	0.0304	0.087
Mof_N 	N 	0.873	0.199	0.0076	-0.122
Mof_H 	H 	0.8872	0.1795	0.9861	0.069
Mof_H 	H 	0.8171	0.2015	0.0149	0.053
Mof_N 	N 	0.89	0.177	0.0172	-0.197
Mof_H 	H 	0.9076	0.1608	0.995	0.115
Mof_H 	H 	0.8369	0.1712	0.027	0.106
Mof_N 	N 	0.1771	0.2552	0.039	-0.195
Mof_H 	H 	0.2006	0.2413	0.0171	0.119
Mof_H 	H 	0.2105	0.273	0.0564	0.108
Mof_O 	O 	0.6058	0.5598	0.97818	-0.547
Mof_O 	O 	0.7409	0.5875	0.96623	-0.526
Mof_O 	O 	0.8966	0.4386	0.13234	-0.501
Mof_O 	O 	0.7615	0.4142	0.14686	-0.508
Mof_N 	N 	0.5865	0.4649	0.0235	-0.195
Mof_H 	H 	0.5556	0.4401	0.0365	0.1
Mof_H 	H 	0.5655	0.4794	0.0012	0.094
Mof_C 	C 	0.6886	0.5591	0.987	0.366
Mof_C 	C 	0.7208	0.5272	0.0218	-0.177
Mof_C 	C 	0.7827	0.472	0.0892	-0.003
Mof_C 	C 	0.8154	0.4404	0.1252	0.296
Mof_C 	C 	0.6691	0.4814	0.0384	0.11
Mof_C 	C 	0.6998	0.457	0.0742	-0.04
Mof_H 	H 	0.6647	0.4307	0.0879	0.045
Mof_C 	C 	0.8381	0.5121	0.0707	-0.049
Mof_H 	H 	0.8948	0.5208	0.0814	0.036
Mof_C 	C 	0.8053	0.5382	0.0361	0.058
Mof_C 	C 	0.6619	0.5007	0.0463	0.053
Mof_C 	C 	0.694	0.4745	0.0809	-0.074
Mof_H 	H 	0.6533	0.4581	0.0991	0.058
Mof_C 	C 	0.8421	0.4979	0.0645	-0.054
Mof_H 	H 	0.9037	0.4971	0.0704	0.049
Mof_C 	C 	0.81	0.5254	0.0304	0.088
Mof_N 	N 	0.877	0.551	0.0076	-0.121
Mof_H 	H 	0.8628	0.5705	0.9861	0.069
Mof_H 	H 	0.9329	0.5485	0.0149	0.053
Mof_N 	N 	0.86	0.573	0.0172	-0.197
Mof_H 	H 	0.8424	0.5892	0.995	0.116
Mof_H 	H 	0.9131	0.5788	0.027	0.106
Mof_N 	N 	0.5729	0.4948	0.039	-0.195
Mof_H 	H 	0.5494	0.5087	0.0171	0.119
Mof_H 	H 	0.5395	0.477	0.0564	0.108
Mof_O 	O 	0.6058	0.0598	0.47818	-0.547
Mof_O 	O 	0.7409	0.0875	0.46623	-0.526
Mof_O 	O 	0.8966	0.9386	0.63234	-0.501
Mof_O 	O 	0.7615	0.9142	0.64686	-0.508
Mof_N 	N 	0.5865	0.9649	0.5235	-0.195
Mof_H 	H 	0.5556	0.9401	0.5365	0.1
Mof_H 	H 	0.5655	0.9794	0.5012	0.094
Mof_C 	C 	0.6886	0.0591	0.487	0.366
Mof_C 	C 	0.7208	0.0272	0.5218	-0.177
Mof_C 	C 	0.7827	0.972	0.5892	-0.003
Mof_C 	C 	0.8154	0.9404	0.6252	0.296
Mof_C 	C 	0.6691	0.9814	0.5384	0.109
Mof_C 	C 	0.6998	0.957	0.5742	-0.041
Mof_H 	H 	0.6647	0.9307	0.5879	0.045
Mof_C 	C 	0.8381	0.0121	0.5707	-0.048
Mof_H 	H 	0.8948	0.0208	0.5814	0.035
Mof_C 	C 	0.8053	0.0382	0.5361	0.058
Mof_C 	C 	0.6619	0.0007	0.5463	0.054
Mof_C 	C 	0.694	0.9745	0.5809	-0.073
Mof_H 	H 	0.6533	0.9581	0.5991	0.057
Mof_C 	C 	0.8421	0.9979	0.5645	-0.055
Mof_H 	H 	0.9037	0.9971	0.5704	0.049
Mof_C 	C 	0.81	0.0254	0.5304	0.088
Mof_N 	N 	0.877	0.051	0.5076	-0.121
Mof_H 	H 	0.8628	0.0705	0.4861	0.069
Mof_H 	H 	0.9329	0.0485	0.5149	0.053
Mof_N 	N 	0.86	0.073	0.5172	-0.197
Mof_H 	H 	0.8424	0.0892	0.495	0.116
Mof_H 	H 	0.9131	0.0788	0.527	0.106
Mof_N 	N 	0.5729	0.9948	0.539	-0.195
Mof_H 	H 	0.5494	0.0087	0.5171	0.119
Mof_H 	H 	0.5395	0.977	0.5564	0.108
Mof_O 	O 	0.1058	0.5598	0.47818	-0.547
Mof_O 	O 	0.2409	0.5875	0.46623	-0.526
Mof_O 	O 	0.3966	0.4386	0.63234	-0.501
Mof_O 	O 	0.2615	0.4142	0.64686	-0.508
Mof_N 	N 	0.0865	0.4649	0.5235	-0.195
Mof_H 	H 	0.0556	0.4401	0.5365	0.1
Mof_H 	H 	0.0655	0.4794	0.5012	0.094
Mof_C 	C 	0.1886	0.5591	0.487	0.366
Mof_C 	C 	0.2208	0.5272	0.5218	-0.177
Mof_C 	C 	0.2827	0.472	0.5892	-0.003
Mof_C 	C 	0.3154	0.4404	0.6252	0.296
Mof_C 	C 	0.1691	0.4814	0.5384	0.11
Mof_C 	C 	0.1998	0.457	0.5742	-0.04
Mof_H 	H 	0.1647	0.4307	0.5879	0.045
Mof_C 	C 	0.3381	0.5121	0.5707	-0.049
Mof_H 	H 	0.3948	0.5208	0.5814	0.036
Mof_C 	C 	0.3053	0.5382	0.5361	0.058
Mof_C 	C 	0.1619	0.5007	0.5463	0.053
Mof_C 	C 	0.194	0.4745	0.5809	-0.074
Mof_H 	H 	0.1533	0.4581	0.5991	0.058
Mof_C 	C 	0.3421	0.4979	0.5645	-0.054
Mof_H 	H 	0.4037	0.4971	0.5704	0.049
Mof_C 	C 	0.31	0.5254	0.5304	0.088
Mof_N 	N 	0.377	0.551	0.5076	-0.121
Mof_H 	H 	0.3628	0.5705	0.4861	0.069
Mof_H 	H 	0.4329	0.5485	0.5149	0.053
Mof_N 	N 	0.36	0.573	0.5172	-0.197
Mof_H 	H 	0.3424	0.5892	0.495	0.116
Mof_H 	H 	0.4131	0.5788	0.527	0.106
Mof_N 	N 	0.0729	0.4948	0.539	-0.195
Mof_H 	H 	0.0494	0.5087	0.5171	0.119
Mof_H 	H 	0.0395	0.477	0.5564	0.108
Mof_O 	O 	0.1058	0.0598	0.97818	-0.547
Mof_O 	O 	0.2409	0.0875	0.96623	-0.526
Mof_O 	O 	0.3966	0.9386	0.13234	-0.501
Mof_O 	O 	0.2615	0.9142	0.14686	-0.508
Mof_N 	N 	0.0865	0.9649	0.0235	-0.195
Mof_H 	H 	0.0556	0.9401	0.0365	0.1
Mof_H 	H 	0.0655	0.9794	0.0012	0.094
Mof_C 	C 	0.1886	0.0591	0.987	0.366
Mof_C 	C 	0.2208	0.0272	0.0218	-0.177
Mof_C 	C 	0.2827	0.972	0.0892	-0.003
Mof_C 	C 	0.3154	0.9404	0.1252	0.296
Mof_C 	C 	0.1691	0.9814	0.0384	0.113
Mof_C 	C 	0.1998	0.957	0.0742	-0.039
Mof_H 	H 	0.1647	0.9307	0.0879	0.044
Mof_C 	C 	0.3381	0.0121	0.0707	-0.049
Mof_H 	H 	0.3948	0.0208	0.0814	0.036
Mof_C 	C 	0.3053	0.0382	0.0361	0.058
Mof_C 	C 	0.1619	0.0007	0.0463	0.05
Mof_C 	C 	0.194	0.9745	0.0809	-0.075
Mof_H 	H 	0.1533	0.9581	0.0991	0.058
Mof_C 	C 	0.3421	0.9979	0.0645	-0.053
Mof_H 	H 	0.4037	0.9971	0.0704	0.048
Mof_C 	C 	0.31	0.0254	0.0304	0.088
Mof_N 	N 	0.377	0.051	0.0076	-0.122
Mof_H 	H 	0.3628	0.0705	0.9861	0.069
Mof_H 	H 	0.4329	0.0485	0.0149	0.053
Mof_N 	N 	0.36	0.073	0.0172	-0.197
Mof_H 	H 	0.3424	0.0892	0.995	0.116
Mof_H 	H 	0.4131	0.0788	0.027	0.106
Mof_N 	N 	0.0729	0.9948	0.039	-0.195
Mof_H 	H 	0.0494	0.0087	0.0171	0.119
Mof_H 	H 	0.0395	0.977	0.0564	0.107
Mof_In	In	0.375	0.375	0.6814	2.526
Mof_In	In	0.375	0.875	0.1814	2.526
Mof_In	In	0.875	0.375	0.1814	2.526
Mof_In	In	0.875	0.875	0.6814	2.526
Mof_In	In	0.625	0.625	0.9314	2.526
Mof_In	In	0.625	0.125	0.4314	2.526
Mof_In	In	0.125	0.625	0.4314	2.526
Mof_In	In	0.125	0.125	0.9314	2.526
_end
