data_functionalizedCrystal
_audit_creation_method	'EQeq! by Chris Wilmer'
_symmetry_space_group_name_H-M	'P1'
_symmetry_Int_Tables_number	1
_symmetry_cell_setting	triclinic
loop_
_symmetry_equiv_pos_as_xyz
  x,y,z
_cell_length_a	31.951
_cell_length_b	10.636
_cell_length_c	12.368
_cell_angle_alpha	90
_cell_angle_beta	96.03
_cell_angle_gamma	90
loop_
_atom_site_label
_atom_site_type_symbol
_atom_site_fract_x
_atom_site_fract_y
_atom_site_fract_z
_atom_site_charge
Mof_Mn	Mn	0.24958	0.24825	0.49941	0.763
Mof_Cu	Cu	0.99577	0.25709	0.28561	0.798
Mof_C 	C 	0.0745	0.2547	0.4349	0.144
Mof_C 	C 	0.1449	0.2439	0.4852	0.143
Mof_C 	C 	0.3532	0.2509	0.5381	0.166
Mof_C 	C 	0.4205	0.2384	0.6261	0.151
Mof_C 	C 	0.2546	0.9521	0.4125	0.161
Mof_C 	C 	0.2498	0.5431	0.5902	0.158
Mof_C 	C 	0.2532	0.6695	0.7376	0.157
Mof_C 	C 	0.2514	0.8236	0.2662	0.155
Mof_N 	N 	0.04354	0.2541	0.3809	-0.344
Mof_N 	N 	0.1064	0.258	0.5052	-0.203
Mof_N 	N 	0.18078	0.2328	0.4802	-0.221
Mof_N 	N 	0.3183	0.2607	0.5209	-0.231
Mof_N 	N 	0.3929	0.2371	0.5422	-0.208
Mof_N 	N 	0.4484	0.2403	0.6898	-0.345
Mof_N 	N 	0.2506	0.8377	0.3697	-0.182
Mof_N 	N 	0.2566	0.0441	0.4556	-0.22
Mof_N 	N 	0.2458	0.4511	0.5425	-0.219
Mof_N 	N 	0.257	0.6528	0.6345	-0.182
Mof_N 	N 	0.25084	0.6986	0.8254	-0.218
Mof_N 	N 	0.251	0.797	0.1762	-0.219
Mof_Mn	Mn	0.25042	0.74825	0.00059	0.757
Mof_Cu	Cu	0.50423	0.75709	0.21439	0.796
Mof_C 	C 	0.4255	0.7547	0.0651	0.141
Mof_C 	C 	0.3551	0.7439	0.0148	0.14
Mof_C 	C 	0.1468	0.7509	0.9619	0.167
Mof_C 	C 	0.0795	0.7384	0.8739	0.151
Mof_C 	C 	0.2454	0.4521	0.0875	0.161
Mof_C 	C 	0.2502	0.0431	0.9098	0.156
Mof_C 	C 	0.2468	0.1695	0.7624	0.156
Mof_C 	C 	0.2486	0.3236	0.2338	0.156
Mof_N 	N 	0.45646	0.7541	0.1191	-0.344
Mof_N 	N 	0.3936	0.758	0.9948	-0.2
Mof_N 	N 	0.31922	0.7328	0.0198	-0.221
Mof_N 	N 	0.1817	0.7607	0.9791	-0.229
Mof_N 	N 	0.1071	0.7371	0.9578	-0.208
Mof_N 	N 	0.0516	0.7403	0.8102	-0.344
Mof_N 	N 	0.2494	0.3377	0.1303	-0.182
Mof_N 	N 	0.2434	0.5441	0.0444	-0.221
Mof_N 	N 	0.2542	0.9511	0.9575	-0.215
Mof_N 	N 	0.243	0.1528	0.8655	-0.182
Mof_N 	N 	0.24916	0.1986	0.6746	-0.219
Mof_N 	N 	0.249	0.297	0.3238	-0.219
Mof_Mn	Mn	0.75042	0.75175	0.50059	0.762
Mof_Cu	Cu	0.00423	0.74291	0.71439	0.797
Mof_C 	C 	0.9255	0.7453	0.5651	0.144
Mof_C 	C 	0.8551	0.7561	0.5148	0.143
Mof_C 	C 	0.6468	0.7491	0.4619	0.166
Mof_C 	C 	0.5795	0.7616	0.3739	0.151
Mof_C 	C 	0.7454	0.0479	0.5875	0.161
Mof_C 	C 	0.7502	0.4569	0.4098	0.158
Mof_C 	C 	0.7468	0.3305	0.2624	0.157
Mof_C 	C 	0.7486	0.1764	0.7338	0.155
Mof_N 	N 	0.95646	0.7459	0.6191	-0.344
Mof_N 	N 	0.8936	0.742	0.4948	-0.203
Mof_N 	N 	0.81922	0.7672	0.5198	-0.221
Mof_N 	N 	0.6817	0.7393	0.4791	-0.231
Mof_N 	N 	0.6071	0.7629	0.4578	-0.208
Mof_N 	N 	0.5516	0.7597	0.3102	-0.345
Mof_N 	N 	0.7494	0.1623	0.6303	-0.182
Mof_N 	N 	0.7434	0.9559	0.5444	-0.22
Mof_N 	N 	0.7542	0.5489	0.4575	-0.219
Mof_N 	N 	0.743	0.3472	0.3655	-0.182
Mof_N 	N 	0.74916	0.3014	0.1746	-0.218
Mof_N 	N 	0.749	0.203	0.8238	-0.219
Mof_Mn	Mn	0.74958	0.25175	0.99941	0.757
Mof_Cu	Cu	0.49577	0.24291	0.78561	0.796
Mof_C 	C 	0.5745	0.2453	0.9349	0.141
Mof_C 	C 	0.6449	0.2561	0.9852	0.14
Mof_C 	C 	0.8532	0.2491	0.0381	0.167
Mof_C 	C 	0.9205	0.2616	0.1261	0.151
Mof_C 	C 	0.7546	0.5479	0.9125	0.161
Mof_C 	C 	0.7498	0.9569	0.0902	0.156
Mof_C 	C 	0.7532	0.8305	0.2376	0.156
Mof_C 	C 	0.7514	0.6764	0.7662	0.156
Mof_N 	N 	0.54354	0.2459	0.8809	-0.344
Mof_N 	N 	0.6064	0.242	0.0052	-0.2
Mof_N 	N 	0.68078	0.2672	0.9802	-0.221
Mof_N 	N 	0.8183	0.2393	0.0209	-0.229
Mof_N 	N 	0.8929	0.2629	0.0422	-0.208
Mof_N 	N 	0.9484	0.2597	0.1898	-0.344
Mof_N 	N 	0.7506	0.6623	0.8697	-0.182
Mof_N 	N 	0.7566	0.4559	0.9556	-0.221
Mof_N 	N 	0.7458	0.0489	0.0425	-0.215
Mof_N 	N 	0.757	0.8472	0.1345	-0.182
Mof_N 	N 	0.75084	0.8014	0.3254	-0.219
Mof_N 	N 	0.751	0.703	0.6762	-0.219
_end
