data_functionalizedCrystal
_audit_creation_method	'EQeq! by Chris Wilmer'
_symmetry_space_group_name_H-M	'P1'
_symmetry_Int_Tables_number	1
_symmetry_cell_setting	triclinic
loop_
_symmetry_equiv_pos_as_xyz
  x,y,z
_cell_length_a	11.919
_cell_length_b	14.01
_cell_length_c	14.792
_cell_angle_alpha	118.055
_cell_angle_beta	105.125
_cell_angle_gamma	96.417
loop_
_atom_site_label
_atom_site_type_symbol
_atom_site_fract_x
_atom_site_fract_y
_atom_site_fract_z
_atom_site_charge
Mof_Si	Si	0.2125	0.4632	0.9114	0.67
Mof_O 	O 	0.6186	0.1779	0.6072	-0.922
Mof_O 	O 	0.4675	0.2164	0.1859	-0.483
Mof_O 	O 	0.6591	0.2617	0.5193	-0.681
Mof_O 	O 	0.3847	0.1958	0.4645	-0.508
Mof_O 	O 	0.4665	0.3699	0.519	-0.487
Mof_O 	O 	0.3479	0.284	0.2775	-0.457
Mof_C 	C 	0.0457	0.4195	0.837	-0.187
Mof_C 	C 	0.3707	0.4863	0.7997	0.067
Mof_H 	H 	0.405	0.5597	0.859	-0.007
Mof_C 	C 	0.2523	0.3914	0.9898	-0.249
Mof_C 	C 	0.2785	0.4172	0.8013	-0.245
Mof_C 	C 	0.2188	0.4166	0.0798	0.081
Mof_H 	H 	0.1691	0.4642	0.0965	-0.008
Mof_C 	C 	0.2776	0.6188	0.0115	-0.079
Mof_C 	C 	0.3256	0.318	0.9658	0.073
Mof_H 	H 	0.3482	0.2982	0.9051	-0.004
Mof_C 	C 	0.9987	0.4453	0.7554	-0.026
Mof_H 	H 	0.0476	0.499	0.7518	0.016
Mof_C 	C 	0.2743	0.2675	0.6259	-0.079
Mof_H 	H 	0.243	0.193	0.5684	0.119
Mof_C 	C 	0.9655	0.346	0.8444	-0.021
Mof_H 	H 	0.9922	0.3306	0.8998	0.031
Mof_C 	C 	0.3636	0.3382	0.6253	-0.028
Mof_C 	C 	0.2305	0.3058	0.7111	0.064
Mof_H 	H 	0.1683	0.2572	0.7087	0.012
Mof_C 	C 	0.8071	0.315	0.6878	-0.222
Mof_C 	C 	0.2575	0.3728	0.1459	-0.105
Mof_H 	H 	0.2334	0.3907	0.2055	0.074
Mof_C 	C 	0.3651	0.2741	0.0316	-0.101
Mof_H 	H 	0.4138	0.2257	0.0147	0.07
Mof_C 	C 	0.8471	0.2947	0.7718	0.068
Mof_H 	H 	0.795	0.2468	0.7795	0.012
Mof_C 	C 	0.3851	0.6571	0.0991	-0.195
Mof_H 	H 	0.4239	0.6057	0.1063	0.085
Mof_C 	C 	0.8832	0.3927	0.6821	0.05
Mof_H 	H 	0.8553	0.4091	0.6275	-0.003
Mof_C 	C 	0.413	0.451	0.7149	-0.101
Mof_H 	H 	0.4732	0.5002	0.716	0.058
Mof_C 	C 	0.4088	0.3	0.5309	0.361
Mof_C 	C 	0.2228	0.6983	0.0029	-0.203
Mof_H 	H 	0.1506	0.6755	0.9456	0.082
Mof_C 	C 	0.3792	0.849	0.1681	-0.577
Mof_C 	C 	0.4353	0.7714	0.1759	0.301
Mof_H 	H 	0.5079	0.7956	0.2334	-0.075
Mof_C 	C 	0.2756	0.8097	0.0789	0.297
Mof_H 	H 	0.2396	0.8618	0.0699	-0.085
Mof_C 	C 	0.3318	0.3026	0.1227	-0.007
Mof_C 	C 	0.3844	0.2647	0.1996	0.281
Mof_C 	C 	0.6848	0.2465	0.5984	0.69
Mof_O 	O 	0.3721	0.0479	0.5145	-1.735
Mof_O 	O 	0.2375	0.9618	0.3303	-0.265
Mof_O 	O 	0.2409	0.9846	0.4856	0.022
Mof_N 	N 	0.175	0.962	0.3913	0.041
Mof_O 	O 	0.071	0.9388	0.362	-0.125
Mof_Eu	Eu	0.50797	0.22523	0.36162	2.211
Mof_Eu	Eu	0.44517	0.018	0.47781	3.367
Mof_O 	O 	0.4848	0.0146	0.3279	-0.607
Mof_O 	O 	0.3683	0.0401	0.2034	0.043
Mof_C 	C 	0.414	0.9739	0.232	0.634
Mof_C 	C 	0.447	0.965	0.276	0.702
Mof_O 	O 	0.4115	0.0372	0.2618	-0.987
Mof_O 	O 	0.5261	0.9859	0.363	-0.716
Mof_Si	Si	0.7875	0.5368	0.0886	0.669
Mof_O 	O 	0.3814	0.8221	0.3928	-0.923
Mof_O 	O 	0.5325	0.7836	0.8141	-0.484
Mof_O 	O 	0.3409	0.7383	0.4807	-0.682
Mof_O 	O 	0.6153	0.8042	0.5355	-0.508
Mof_O 	O 	0.5335	0.6301	0.481	-0.487
Mof_O 	O 	0.6521	0.716	0.7225	-0.457
Mof_C 	C 	0.9543	0.5805	0.163	-0.187
Mof_C 	C 	0.6293	0.5137	0.2003	0.067
Mof_H 	H 	0.595	0.4403	0.141	-0.007
Mof_C 	C 	0.7477	0.6086	0.0102	-0.249
Mof_C 	C 	0.7215	0.5828	0.1987	-0.245
Mof_C 	C 	0.7812	0.5834	0.9202	0.081
Mof_H 	H 	0.8309	0.5358	0.9035	-0.008
Mof_C 	C 	0.7224	0.3812	0.9885	-0.079
Mof_C 	C 	0.6744	0.682	0.0342	0.073
Mof_H 	H 	0.6518	0.7018	0.0949	-0.004
Mof_C 	C 	0.0013	0.5547	0.2446	-0.026
Mof_H 	H 	0.9524	0.501	0.2482	0.016
Mof_C 	C 	0.7257	0.7325	0.3741	-0.079
Mof_H 	H 	0.757	0.807	0.4316	0.119
Mof_C 	C 	0.0345	0.654	0.1556	-0.021
Mof_H 	H 	0.0078	0.6694	0.1002	0.031
Mof_C 	C 	0.6364	0.6618	0.3747	-0.028
Mof_C 	C 	0.7695	0.6942	0.2889	0.064
Mof_H 	H 	0.8317	0.7428	0.2913	0.012
Mof_C 	C 	0.1929	0.685	0.3122	-0.222
Mof_C 	C 	0.7425	0.6272	0.8541	-0.105
Mof_H 	H 	0.7666	0.6093	0.7945	0.074
Mof_C 	C 	0.6349	0.7259	0.9684	-0.101
Mof_H 	H 	0.5862	0.7743	0.9853	0.07
Mof_C 	C 	0.1529	0.7053	0.2282	0.068
Mof_H 	H 	0.205	0.7532	0.2205	0.012
Mof_C 	C 	0.6149	0.3429	0.9009	-0.195
Mof_H 	H 	0.5761	0.3943	0.8937	0.085
Mof_C 	C 	0.1168	0.6073	0.3179	0.05
Mof_H 	H 	0.1447	0.5909	0.3725	-0.003
Mof_C 	C 	0.587	0.549	0.2851	-0.101
Mof_H 	H 	0.5268	0.4998	0.284	0.058
Mof_C 	C 	0.5912	0.7	0.4691	0.361
Mof_C 	C 	0.7772	0.3017	0.9971	-0.203
Mof_H 	H 	0.8494	0.3245	0.0544	0.082
Mof_C 	C 	0.6208	0.151	0.8319	-0.577
Mof_C 	C 	0.5647	0.2286	0.8241	0.301
Mof_H 	H 	0.4921	0.2044	0.7666	-0.075
Mof_C 	C 	0.7244	0.1903	0.9211	0.297
Mof_H 	H 	0.7604	0.1382	0.9301	-0.085
Mof_C 	C 	0.6682	0.6974	0.8773	-0.007
Mof_C 	C 	0.6156	0.7353	0.8004	0.281
Mof_C 	C 	0.3152	0.7535	0.4016	0.69
Mof_O 	O 	0.6279	0.9521	0.4855	-1.735
Mof_O 	O 	0.7625	0.0382	0.6697	-0.265
Mof_O 	O 	0.7591	0.0154	0.5144	0.022
Mof_N 	N 	0.825	0.038	0.6087	0.041
Mof_O 	O 	0.929	0.0612	0.638	-0.125
Mof_Eu	Eu	0.49203	0.77477	0.63838	2.211
Mof_Eu	Eu	0.55483	0.982	0.52219	3.367
Mof_O 	O 	0.5152	0.9854	0.6721	-0.607
Mof_O 	O 	0.6317	0.9599	0.7966	0.043
Mof_C 	C 	0.586	0.0261	0.768	0.634
Mof_C 	C 	0.553	0.035	0.724	0.702
Mof_O 	O 	0.5885	0.9628	0.7382	-0.987
Mof_O 	O 	0.4739	0.0141	0.637	-0.716
_end
