data_functionalizedCrystal
_audit_creation_method	'EQeq! by Chris Wilmer'
_symmetry_space_group_name_H-M	'P1'
_symmetry_Int_Tables_number	1
_symmetry_cell_setting	triclinic
loop_
_symmetry_equiv_pos_as_xyz
  x,y,z
_cell_length_a	7.73
_cell_length_b	13.627
_cell_length_c	14.064
_cell_angle_alpha	90
_cell_angle_beta	90
_cell_angle_gamma	90
loop_
_atom_site_label
_atom_site_type_symbol
_atom_site_fract_x
_atom_site_fract_y
_atom_site_fract_z
_atom_site_charge
Mof_C 	C 	0.4416	0.1865	0.2672	-0.237
Mof_N 	N 	0.5474	0.2325	0.3017	-0.109
Mof_C 	C 	0.4385	0.0026	0.1587	-0.245
Mof_N 	N 	0.547	0.4497	0.3617	-0.108
Mof_C 	C 	0.5584	0.3135	0.7672	-0.238
Mof_N 	N 	0.4526	0.2675	0.8017	-0.109
Mof_C 	C 	0.5615	0.4974	0.6587	-0.246
Mof_N 	N 	0.453	0.0503	0.8617	-0.109
Mof_C 	C 	0.9416	0.8135	0.7328	-0.237
Mof_N 	N 	0.0474	0.7675	0.6983	-0.11
Mof_C 	C 	0.9385	0.9974	0.8413	-0.244
Mof_N 	N 	0.047	0.5503	0.6383	-0.108
Mof_C 	C 	0.0584	0.6865	0.2328	-0.237
Mof_N 	N 	0.9526	0.7325	0.1983	-0.11
Mof_C 	C 	0.0615	0.5026	0.3413	-0.246
Mof_N 	N 	0.953	0.9497	0.1383	-0.11
Mof_C 	C 	0.5584	0.8135	0.7328	-0.237
Mof_N 	N 	0.4526	0.7675	0.6983	-0.109
Mof_C 	C 	0.5615	0.9974	0.8413	-0.245
Mof_N 	N 	0.453	0.5503	0.6383	-0.108
Mof_C 	C 	0.4416	0.6865	0.2328	-0.238
Mof_N 	N 	0.5474	0.7325	0.1983	-0.109
Mof_C 	C 	0.4385	0.5026	0.3413	-0.246
Mof_N 	N 	0.547	0.9497	0.1383	-0.109
Mof_C 	C 	0.0584	0.1865	0.2672	-0.237
Mof_N 	N 	0.9526	0.2325	0.3017	-0.11
Mof_C 	C 	0.0615	0.0026	0.1587	-0.244
Mof_N 	N 	0.953	0.4497	0.3617	-0.108
Mof_C 	C 	0.9416	0.3135	0.7672	-0.237
Mof_N 	N 	0.0474	0.2675	0.8017	-0.11
Mof_C 	C 	0.9385	0.4974	0.6587	-0.246
Mof_N 	N 	0.047	0.0503	0.8617	-0.11
Mof_Cr	Cr	0.25	0.09631	0.20928	1.401
Mof_C 	C 	0.25	0.167	0.0778	-0.248
Mof_C 	C 	0.25	0.0175	0.3294	-0.285
Mof_N 	N 	0.25	0.9704	0.3986	-0.032
Mof_Cr	Cr	0.75	0.40369	0.70928	1.402
Mof_C 	C 	0.75	0.333	0.5778	-0.248
Mof_C 	C 	0.75	0.4825	0.8294	-0.285
Mof_N 	N 	0.75	0.5296	0.8986	-0.031
Mof_Cr	Cr	0.75	0.90369	0.79072	1.401
Mof_C 	C 	0.75	0.833	0.9222	-0.248
Mof_C 	C 	0.75	0.9825	0.6706	-0.285
Mof_N 	N 	0.75	0.0296	0.6014	-0.032
Mof_Cr	Cr	0.25	0.59631	0.29072	1.402
Mof_C 	C 	0.25	0.667	0.4222	-0.248
Mof_C 	C 	0.25	0.5175	0.1706	-0.285
Mof_N 	N 	0.25	0.4704	0.1014	-0.031
Mof_Mn	Mn	0.75	0.33876	0.34484	0.664
Mof_N 	N 	0.75	0.3039	0.5018	-0.099
Mof_Mn	Mn	0.25	0.16124	0.84484	0.663
Mof_N 	N 	0.25	0.1961	0.0018	-0.099
Mof_Mn	Mn	0.25	0.66124	0.65516	0.664
Mof_N 	N 	0.25	0.6961	0.4982	-0.099
Mof_Mn	Mn	0.75	0.83876	0.15516	0.663
Mof_N 	N 	0.75	0.8039	0.9982	-0.099
_end
