data_functionalizedCrystal
_audit_creation_method	'EQeq! by Chris Wilmer'
_symmetry_space_group_name_H-M	'P1'
_symmetry_Int_Tables_number	1
_symmetry_cell_setting	triclinic
loop_
_symmetry_equiv_pos_as_xyz
  x,y,z
_cell_length_a	13.7073
_cell_length_b	27.873
_cell_length_c	45.852
_cell_angle_alpha	90
_cell_angle_beta	90
_cell_angle_gamma	90
loop_
_atom_site_label
_atom_site_type_symbol
_atom_site_fract_x
_atom_site_fract_y
_atom_site_fract_z
_atom_site_charge
Mof_Zn	Zn	0.16187	0.94235	0.42983	1.161
Mof_Zn	Zn	0.14267	0.75552	0.68908	1.163
Mof_Zn	Zn	0.35074	0.97214	0.58674	1.162
Mof_Zn	Zn	0.83813	0.55765	0.92983	1.161
Mof_Zn	Zn	0.85733	0.74448	0.18908	1.163
Mof_Zn	Zn	0.64926	0.52786	0.08674	1.162
Mof_Zn	Zn	0.66187	0.05765	0.07017	1.162
Mof_Zn	Zn	0.64267	0.24448	0.81092	1.164
Mof_Zn	Zn	0.85074	0.02786	0.91326	1.163
Mof_Zn	Zn	0.33813	0.44235	0.57017	1.162
Mof_Zn	Zn	0.35733	0.25552	0.31092	1.164
Mof_Zn	Zn	0.14926	0.47214	0.41326	1.163
Mof_H 	H 	0.9618	0.9607	0.455	-0.009
Mof_H 	H 	0.8681	0.941	0.4954	0.088
Mof_H 	H 	0.1032	0.8733	0.5293	0.077
Mof_H 	H 	0.1914	0.8962	0.4887	-0.007
Mof_H 	H 	0.6574	0.9351	0.5307	0.082
Mof_H 	H 	0.5004	0.964	0.5383	-0
Mof_H 	H 	0.5	0.9136	0.619	-0.003
Mof_H 	H 	0.6563	0.8842	0.6134	0.091
Mof_H 	H 	0.8449	0.8185	0.6375	0.081
Mof_H 	H 	0.9321	0.782	0.6744	-0.015
Mof_H 	H 	0.1808	0.8099	0.6358	-0.01
Mof_H 	H 	0.1013	0.846	0.5968	0.083
Mof_H 	H 	0.9192	0.665	0.2282	-0.011
Mof_H 	H 	0.9812	0.6537	0.275	0.08
Mof_H 	H 	0.0313	0.7962	0.2796	0.081
Mof_H 	H 	0.9728	0.8032	0.2319	-0
Mof_H 	H 	0.0792	0.5852	0.33	0.08
Mof_H 	H 	0.1076	0.5124	0.3532	-0.006
Mof_H 	H 	0.1172	0.5753	0.4299	-0.005
Mof_H 	H 	0.0948	0.65	0.4087	0.081
Mof_H 	H 	0.1252	0.7651	0.4126	0.078
Mof_H 	H 	0.1566	0.8351	0.4382	-0.015
Mof_H 	H 	0.0871	0.9142	0.3702	-0.008
Mof_H 	H 	0.0599	0.8463	0.3418	0.079
Mof_H 	H 	0.0382	0.5393	0.955	-0.008
Mof_H 	H 	0.1319	0.559	0.9954	0.088
Mof_H 	H 	0.8968	0.6267	0.0293	0.077
Mof_H 	H 	0.8086	0.6038	0.9887	-0.007
Mof_H 	H 	0.3426	0.5649	0.0307	0.082
Mof_H 	H 	0.4996	0.536	0.0383	-0
Mof_H 	H 	0.5	0.5864	0.119	-0.003
Mof_H 	H 	0.3437	0.6158	0.1134	0.091
Mof_H 	H 	0.1551	0.6815	0.1375	0.08
Mof_H 	H 	0.0679	0.718	0.1744	-0.015
Mof_H 	H 	0.8192	0.6901	0.1358	-0.01
Mof_H 	H 	0.8987	0.654	0.0968	0.083
Mof_H 	H 	0.0808	0.835	0.7282	-0.011
Mof_H 	H 	0.0188	0.8463	0.775	0.08
Mof_H 	H 	0.9687	0.7038	0.7796	0.081
Mof_H 	H 	0.0272	0.6968	0.7319	-0
Mof_H 	H 	0.9208	0.9148	0.83	0.08
Mof_H 	H 	0.8924	0.9876	0.8532	-0.006
Mof_H 	H 	0.8828	0.9247	0.9299	-0.005
Mof_H 	H 	0.9052	0.85	0.9087	0.081
Mof_H 	H 	0.8748	0.7349	0.9126	0.078
Mof_H 	H 	0.8434	0.6649	0.9382	-0.015
Mof_H 	H 	0.9129	0.5858	0.8702	-0.008
Mof_H 	H 	0.9401	0.6537	0.8418	0.079
Mof_H 	H 	0.4618	0.0393	0.045	-0.008
Mof_H 	H 	0.3681	0.059	0.0046	0.088
Mof_H 	H 	0.6032	0.1267	0.9707	0.077
Mof_H 	H 	0.6914	0.1038	0.0113	-0.007
Mof_H 	H 	0.1574	0.0649	0.9693	0.082
Mof_H 	H 	0.0004	0.036	0.9617	-0
Mof_H 	H 	-1.20061e-32	0.0864	0.881	-0.003
Mof_H 	H 	0.1563	0.1158	0.8866	0.091
Mof_H 	H 	0.3449	0.1815	0.8625	0.08
Mof_H 	H 	0.4321	0.218	0.8256	-0.015
Mof_H 	H 	0.6808	0.1901	0.8642	-0.01
Mof_H 	H 	0.6013	0.154	0.9032	0.083
Mof_H 	H 	0.4192	0.335	0.2718	-0.011
Mof_H 	H 	0.4812	0.3463	0.225	0.08
Mof_H 	H 	0.5313	0.2038	0.2204	0.081
Mof_H 	H 	0.4728	0.1968	0.2681	-0
Mof_H 	H 	0.5792	0.4148	0.17	0.08
Mof_H 	H 	0.6076	0.4876	0.1468	-0.006
Mof_H 	H 	0.6172	0.4247	0.0701	-0.005
Mof_H 	H 	0.5948	0.35	0.0913	0.081
Mof_H 	H 	0.6252	0.2349	0.0874	0.078
Mof_H 	H 	0.6566	0.1649	0.0618	-0.015
Mof_H 	H 	0.5871	0.0858	0.1298	-0.008
Mof_H 	H 	0.5599	0.1537	0.1582	0.079
Mof_H 	H 	0.5382	0.4607	0.545	-0.008
Mof_H 	H 	0.6319	0.441	0.5046	0.088
Mof_H 	H 	0.3968	0.3733	0.4707	0.077
Mof_H 	H 	0.3086	0.3962	0.5113	-0.007
Mof_H 	H 	0.8426	0.4351	0.4693	0.082
Mof_H 	H 	0.9996	0.464	0.4617	-0
Mof_H 	H 	4.77852e-33	0.4136	0.381	-0.002
Mof_H 	H 	0.8437	0.3842	0.3866	0.09
Mof_H 	H 	0.6551	0.3185	0.3625	0.08
Mof_H 	H 	0.5679	0.282	0.3256	-0.015
Mof_H 	H 	0.3192	0.3099	0.3642	-0.01
Mof_H 	H 	0.3987	0.346	0.4032	0.083
Mof_H 	H 	0.5808	0.165	0.7718	-0.011
Mof_H 	H 	0.5188	0.1537	0.725	0.08
Mof_H 	H 	0.4687	0.2962	0.7204	0.081
Mof_H 	H 	0.5272	0.3032	0.7681	-0
Mof_H 	H 	0.4208	0.0852	0.67	0.08
Mof_H 	H 	0.3924	0.0124	0.6468	-0.006
Mof_H 	H 	0.3828	0.0753	0.5701	-0.005
Mof_H 	H 	0.4052	0.15	0.5913	0.081
Mof_H 	H 	0.3748	0.2651	0.5874	0.078
Mof_H 	H 	0.3434	0.3351	0.5618	-0.015
Mof_H 	H 	0.4129	0.4142	0.6298	-0.008
Mof_H 	H 	0.4401	0.3463	0.6582	0.079
Mof_C 	C 	0.9906	0.9426	0.47034	0.068
Mof_C 	C 	0.934	0.9305	0.49418	-0.122
Mof_C 	C 	0.9742	0.9033	0.51609	0.053
Mof_C 	C 	0.0726	0.8909	0.51413	-0.116
Mof_C 	C 	0.1244	0.9047	0.4899	0.068
Mof_C 	C 	0.917	0.8896	0.54252	0.101
Mof_C 	C 	0.7765	0.8905	0.5681	0.101
Mof_C 	C 	0.9119	0.8576	0.58773	0.107
Mof_C 	C 	0.6746	0.9066	0.57121	0.045
Mof_C 	C 	0.6265	0.9305	0.54908	-0.115
Mof_C 	C 	0.5329	0.9479	0.55374	0.062
Mof_C 	C 	0.5328	0.9184	0.60096	0.06
Mof_C 	C 	0.6255	0.9006	0.59771	-0.114
Mof_C 	C 	0.964	0.835	0.61243	0.059
Mof_C 	C 	0.914	0.8165	0.63639	-0.123
Mof_C 	C 	0.9667	0.7952	0.65834	0.078
Mof_C 	C 	0.1116	0.8112	0.63581	0.069
Mof_C 	C 	0.0648	0.8329	0.61248	-0.112
Mof_C 	C 	0.942	0.692	0.23887	0.066
Mof_C 	C 	0.9785	0.685	0.26682	-0.117
Mof_C 	C 	0.0108	0.7238	0.28259	0.052
Mof_C 	C 	0.0086	0.7687	0.26944	-0.113
Mof_C 	C 	0.9726	0.7726	0.24115	0.064
Mof_C 	C 	0.0413	0.7191	0.31343	0.1
Mof_C 	C 	0.0746	0.6734	0.35308	0.101
Mof_C 	C 	0.0774	0.7542	0.35656	0.103
Mof_C 	C 	0.0867	0.6257	0.36705	0.052
Mof_C 	C 	0.0885	0.5841	0.35048	-0.115
Mof_C 	C 	0.1043	0.5408	0.36462	0.064
Mof_C 	C 	0.1108	0.5774	0.40936	0.066
Mof_C 	C 	0.0971	0.6221	0.39681	-0.113
Mof_C 	C 	0.092	0.798	0.37428	0.05
Mof_C 	C 	0.1187	0.7954	0.40325	-0.116
Mof_C 	C 	0.1358	0.8372	0.41843	0.067
Mof_C 	C 	0.0961	0.8835	0.37864	0.061
Mof_C 	C 	0.0794	0.8433	0.36155	-0.113
Mof_C 	C 	0.0094	0.5574	0.97034	0.067
Mof_C 	C 	0.066	0.5695	0.99418	-0.122
Mof_C 	C 	0.0258	0.5967	0.01609	0.053
Mof_C 	C 	0.9274	0.6091	0.01413	-0.115
Mof_C 	C 	0.8756	0.5953	0.9899	0.067
Mof_C 	C 	0.083	0.6104	0.04252	0.101
Mof_C 	C 	0.2235	0.6095	0.0681	0.101
Mof_C 	C 	0.0881	0.6424	0.08773	0.107
Mof_C 	C 	0.3254	0.5934	0.07121	0.045
Mof_C 	C 	0.3735	0.5695	0.04908	-0.115
Mof_C 	C 	0.4671	0.5521	0.05374	0.062
Mof_C 	C 	0.4672	0.5816	0.10096	0.06
Mof_C 	C 	0.3745	0.5994	0.09771	-0.114
Mof_C 	C 	0.036	0.665	0.11243	0.058
Mof_C 	C 	0.086	0.6835	0.13639	-0.123
Mof_C 	C 	0.0333	0.7048	0.15834	0.077
Mof_C 	C 	0.8884	0.6888	0.13581	0.068
Mof_C 	C 	0.9352	0.6671	0.11248	-0.112
Mof_C 	C 	0.058	0.808	0.73887	0.066
Mof_C 	C 	0.0215	0.815	0.76682	-0.117
Mof_C 	C 	0.9892	0.7762	0.78259	0.052
Mof_C 	C 	0.9914	0.7313	0.76944	-0.112
Mof_C 	C 	0.0274	0.7274	0.74115	0.063
Mof_C 	C 	0.9587	0.7809	0.81343	0.1
Mof_C 	C 	0.9254	0.8266	0.85308	0.101
Mof_C 	C 	0.9226	0.7458	0.85656	0.103
Mof_C 	C 	0.9133	0.8743	0.86705	0.052
Mof_C 	C 	0.9115	0.9159	0.85048	-0.115
Mof_C 	C 	0.8957	0.9592	0.86462	0.064
Mof_C 	C 	0.8892	0.9226	0.90936	0.066
Mof_C 	C 	0.9029	0.8779	0.89681	-0.113
Mof_C 	C 	0.908	0.702	0.87428	0.05
Mof_C 	C 	0.8813	0.7046	0.90325	-0.116
Mof_C 	C 	0.8642	0.6628	0.91843	0.067
Mof_C 	C 	0.9039	0.6165	0.87864	0.061
Mof_C 	C 	0.9206	0.6567	0.86155	-0.113
Mof_C 	C 	0.4906	0.0574	0.02966	0.067
Mof_C 	C 	0.434	0.0695	0.00582	-0.122
Mof_C 	C 	0.4742	0.0967	0.98391	0.053
Mof_C 	C 	0.5726	0.1091	0.98587	-0.115
Mof_C 	C 	0.6244	0.0953	0.0101	0.067
Mof_C 	C 	0.417	0.1104	0.95748	0.101
Mof_C 	C 	0.2765	0.1095	0.9319	0.101
Mof_C 	C 	0.4119	0.1424	0.91227	0.107
Mof_C 	C 	0.1746	0.0934	0.92879	0.046
Mof_C 	C 	0.1265	0.0695	0.95092	-0.116
Mof_C 	C 	0.0329	0.0521	0.94626	0.062
Mof_C 	C 	0.0328	0.0816	0.89904	0.061
Mof_C 	C 	0.1255	0.0994	0.90229	-0.115
Mof_C 	C 	0.464	0.165	0.88757	0.058
Mof_C 	C 	0.414	0.1835	0.86361	-0.122
Mof_C 	C 	0.4667	0.2048	0.84166	0.077
Mof_C 	C 	0.6116	0.1888	0.86419	0.068
Mof_C 	C 	0.5648	0.1671	0.88752	-0.111
Mof_C 	C 	0.442	0.308	0.26113	0.066
Mof_C 	C 	0.4785	0.315	0.23318	-0.116
Mof_C 	C 	0.5108	0.2762	0.21741	0.051
Mof_C 	C 	0.5086	0.2313	0.23056	-0.113
Mof_C 	C 	0.4726	0.2274	0.25885	0.064
Mof_C 	C 	0.5413	0.2809	0.18657	0.1
Mof_C 	C 	0.5746	0.3266	0.14692	0.101
Mof_C 	C 	0.5774	0.2458	0.14344	0.103
Mof_C 	C 	0.5867	0.3743	0.13295	0.052
Mof_C 	C 	0.5885	0.4159	0.14952	-0.115
Mof_C 	C 	0.6043	0.4592	0.13538	0.064
Mof_C 	C 	0.6108	0.4226	0.09064	0.066
Mof_C 	C 	0.5971	0.3779	0.10319	-0.113
Mof_C 	C 	0.592	0.202	0.12572	0.05
Mof_C 	C 	0.6187	0.2046	0.09675	-0.116
Mof_C 	C 	0.6358	0.1628	0.08157	0.067
Mof_C 	C 	0.5961	0.1165	0.12136	0.061
Mof_C 	C 	0.5794	0.1567	0.13845	-0.113
Mof_C 	C 	0.5094	0.4426	0.52966	0.067
Mof_C 	C 	0.566	0.4305	0.50582	-0.122
Mof_C 	C 	0.5258	0.4033	0.48391	0.053
Mof_C 	C 	0.4274	0.3909	0.48587	-0.115
Mof_C 	C 	0.3756	0.4047	0.5101	0.067
Mof_C 	C 	0.583	0.3896	0.45748	0.101
Mof_C 	C 	0.7235	0.3905	0.4319	0.102
Mof_C 	C 	0.5881	0.3576	0.41227	0.107
Mof_C 	C 	0.8254	0.4066	0.42879	0.045
Mof_C 	C 	0.8735	0.4305	0.45092	-0.115
Mof_C 	C 	0.9671	0.4479	0.44626	0.061
Mof_C 	C 	0.9672	0.4184	0.39904	0.059
Mof_C 	C 	0.8745	0.4006	0.40229	-0.114
Mof_C 	C 	0.536	0.335	0.38757	0.058
Mof_C 	C 	0.586	0.3165	0.36361	-0.122
Mof_C 	C 	0.5333	0.2952	0.34166	0.077
Mof_C 	C 	0.3884	0.3112	0.36419	0.068
Mof_C 	C 	0.4352	0.3329	0.38752	-0.111
Mof_C 	C 	0.558	0.192	0.76113	0.066
Mof_C 	C 	0.5215	0.185	0.73318	-0.116
Mof_C 	C 	0.4892	0.2238	0.71741	0.051
Mof_C 	C 	0.4914	0.2687	0.73056	-0.113
Mof_C 	C 	0.5274	0.2726	0.75885	0.064
Mof_C 	C 	0.4587	0.2191	0.68657	0.1
Mof_C 	C 	0.4254	0.1734	0.64692	0.101
Mof_C 	C 	0.4226	0.2542	0.64344	0.103
Mof_C 	C 	0.4133	0.1257	0.63295	0.052
Mof_C 	C 	0.4115	0.0841	0.64952	-0.115
Mof_C 	C 	0.3957	0.0408	0.63538	0.064
Mof_C 	C 	0.3892	0.0774	0.59064	0.066
Mof_C 	C 	0.4029	0.1221	0.60319	-0.113
Mof_C 	C 	0.408	0.298	0.62572	0.05
Mof_C 	C 	0.3813	0.2954	0.59675	-0.116
Mof_C 	C 	0.3642	0.3372	0.58157	0.067
Mof_C 	C 	0.4039	0.3835	0.62136	0.061
Mof_C 	C 	0.4206	0.3433	0.63845	-0.113
Mof_I 	I 	0.08052	0.01077	0.40261	-0.365
Mof_I 	I 	0.34261	0.93239	0.44132	-0.381
Mof_I 	I 	0.30086	0.80272	0.69638	-0.371
Mof_I 	I 	0.15082	0.66659	0.67661	-0.375
Mof_I 	I 	0.2665	0.92267	0.62599	-0.367
Mof_I 	I 	0.27502	0.99004	0.53711	-0.391
Mof_I 	I 	0.91948	0.48923	0.90261	-0.366
Mof_I 	I 	0.65739	0.56761	0.94132	-0.38
Mof_I 	I 	0.69914	0.69728	0.19638	-0.371
Mof_I 	I 	0.84918	0.83341	0.17661	-0.375
Mof_I 	I 	0.7335	0.57733	0.12599	-0.367
Mof_I 	I 	0.72498	0.50996	0.03711	-0.391
Mof_I 	I 	0.58052	0.98923	0.09739	-0.366
Mof_I 	I 	0.84261	0.06761	0.05868	-0.381
Mof_I 	I 	0.80086	0.19728	0.80362	-0.371
Mof_I 	I 	0.65082	0.33341	0.82339	-0.375
Mof_I 	I 	0.7665	0.07733	0.87401	-0.367
Mof_I 	I 	0.77502	0.00996	0.96289	-0.391
Mof_I 	I 	0.41948	0.51077	0.59739	-0.366
Mof_I 	I 	0.15739	0.43239	0.55868	-0.381
Mof_I 	I 	0.19914	0.30272	0.30362	-0.371
Mof_I 	I 	0.34918	0.16659	0.32339	-0.375
Mof_I 	I 	0.2335	0.42267	0.37401	-0.366
Mof_I 	I 	0.22498	0.49004	0.46289	-0.391
Mof_N 	N 	0.0849	0.9297	0.46788	-0.271
Mof_N 	N 	0.8222	0.9017	0.54331	-0.142
Mof_N 	N 	0.8171	0.86784	0.59081	-0.134
Mof_N 	N 	0.9653	0.8676	0.56402	-0.137
Mof_N 	N 	0.4866	0.9426	0.57952	-0.27
Mof_N 	N 	0.0639	0.7922	0.65832	-0.276
Mof_N 	N 	0.938	0.7352	0.22666	-0.272
Mof_N 	N 	0.051	0.67464	0.32452	-0.137
Mof_N 	N 	0.0881	0.71191	0.36992	-0.139
Mof_N 	N 	0.0538	0.75994	0.3285	-0.139
Mof_N 	N 	0.1152	0.53704	0.39363	-0.269
Mof_N 	N 	0.1244	0.8809	0.4065	-0.269
Mof_N 	N 	0.9151	0.5703	0.96788	-0.271
Mof_N 	N 	0.1778	0.5983	0.04331	-0.142
Mof_N 	N 	0.1829	0.63216	0.09081	-0.134
Mof_N 	N 	0.0347	0.6324	0.06402	-0.137
Mof_N 	N 	0.5134	0.5574	0.07952	-0.27
Mof_N 	N 	0.9361	0.7078	0.15832	-0.276
Mof_N 	N 	0.062	0.7648	0.72666	-0.272
Mof_N 	N 	0.949	0.82536	0.82452	-0.137
Mof_N 	N 	0.9119	0.78809	0.86992	-0.139
Mof_N 	N 	0.9462	0.74006	0.8285	-0.139
Mof_N 	N 	0.8848	0.96296	0.89363	-0.269
Mof_N 	N 	0.8756	0.6191	0.9065	-0.269
Mof_N 	N 	0.5849	0.0703	0.03212	-0.271
Mof_N 	N 	0.3222	0.0983	0.95669	-0.142
Mof_N 	N 	0.3171	0.13216	0.90919	-0.134
Mof_N 	N 	0.4653	0.1324	0.93598	-0.137
Mof_N 	N 	0.9866	0.0574	0.92048	-0.27
Mof_N 	N 	0.5639	0.2078	0.84168	-0.276
Mof_N 	N 	0.438	0.2648	0.27334	-0.272
Mof_N 	N 	0.551	0.32536	0.17548	-0.138
Mof_N 	N 	0.5881	0.28809	0.13008	-0.139
Mof_N 	N 	0.5538	0.24006	0.1715	-0.139
Mof_N 	N 	0.6152	0.46296	0.10637	-0.269
Mof_N 	N 	0.6244	0.1191	0.0935	-0.269
Mof_N 	N 	0.4151	0.4297	0.53212	-0.271
Mof_N 	N 	0.6778	0.4017	0.45669	-0.142
Mof_N 	N 	0.6829	0.36784	0.40919	-0.134
Mof_N 	N 	0.5347	0.3676	0.43598	-0.137
Mof_N 	N 	0.0134	0.4426	0.42048	-0.269
Mof_N 	N 	0.4361	0.2922	0.34168	-0.276
Mof_N 	N 	0.562	0.2352	0.77334	-0.272
Mof_N 	N 	0.449	0.17464	0.67548	-0.138
Mof_N 	N 	0.4119	0.21191	0.63008	-0.139
Mof_N 	N 	0.4462	0.25994	0.6715	-0.139
Mof_N 	N 	0.3848	0.03704	0.60637	-0.269
Mof_N 	N 	0.3756	0.3809	0.5935	-0.269
Mof_Zn	Zn	0.83813	0.05765	0.57017	1.162
Mof_Zn	Zn	0.85733	0.24448	0.31092	1.164
Mof_Zn	Zn	0.64926	0.02786	0.41326	1.163
Mof_Zn	Zn	0.16187	0.44235	0.07017	1.162
Mof_Zn	Zn	0.14267	0.25552	0.81092	1.164
Mof_Zn	Zn	0.35074	0.47214	0.91326	1.163
Mof_Zn	Zn	0.33813	0.94235	0.92983	1.162
Mof_Zn	Zn	0.35733	0.75552	0.18908	1.164
Mof_Zn	Zn	0.14926	0.97214	0.08674	1.163
Mof_Zn	Zn	0.66187	0.55765	0.42983	1.162
Mof_Zn	Zn	0.64267	0.74448	0.68908	1.164
Mof_Zn	Zn	0.85074	0.52786	0.58674	1.163
Mof_H 	H 	0.0382	0.0393	0.545	-0.009
Mof_H 	H 	0.1319	0.059	0.5046	0.088
Mof_H 	H 	0.8968	0.1267	0.4707	0.077
Mof_H 	H 	0.8086	0.1038	0.5113	-0.007
Mof_H 	H 	0.3426	0.0649	0.4693	0.082
Mof_H 	H 	0.4996	0.036	0.4617	-0
Mof_H 	H 	0.5	0.0864	0.381	-0.003
Mof_H 	H 	0.3437	0.1158	0.3866	0.091
Mof_H 	H 	0.1551	0.1815	0.3625	0.081
Mof_H 	H 	0.0679	0.218	0.3256	-0.015
Mof_H 	H 	0.8192	0.1901	0.3642	-0.01
Mof_H 	H 	0.8987	0.154	0.4032	0.083
Mof_H 	H 	0.0808	0.335	0.7718	-0.011
Mof_H 	H 	0.0188	0.3463	0.725	0.08
Mof_H 	H 	0.9687	0.2038	0.7204	0.081
Mof_H 	H 	0.0272	0.1968	0.7681	-0
Mof_H 	H 	0.9208	0.4148	0.67	0.08
Mof_H 	H 	0.8924	0.4876	0.6468	-0.006
Mof_H 	H 	0.8828	0.4247	0.5701	-0.005
Mof_H 	H 	0.9052	0.35	0.5913	0.081
Mof_H 	H 	0.8748	0.2349	0.5874	0.078
Mof_H 	H 	0.8434	0.1649	0.5618	-0.015
Mof_H 	H 	0.9129	0.0858	0.6298	-0.008
Mof_H 	H 	0.9401	0.1537	0.6582	0.079
Mof_H 	H 	0.9618	0.4607	0.045	-0.008
Mof_H 	H 	0.8681	0.441	0.0046	0.088
Mof_H 	H 	0.1032	0.3733	0.9707	0.077
Mof_H 	H 	0.1914	0.3962	0.0113	-0.007
Mof_H 	H 	0.6574	0.4351	0.9693	0.082
Mof_H 	H 	0.5004	0.464	0.9617	-0
Mof_H 	H 	0.5	0.4136	0.881	-0.003
Mof_H 	H 	0.6563	0.3842	0.8866	0.091
Mof_H 	H 	0.8449	0.3185	0.8625	0.08
Mof_H 	H 	0.9321	0.282	0.8256	-0.015
Mof_H 	H 	0.1808	0.3099	0.8642	-0.01
Mof_H 	H 	0.1013	0.346	0.9032	0.083
Mof_H 	H 	0.9192	0.165	0.2718	-0.012
Mof_H 	H 	0.9812	0.1537	0.225	0.08
Mof_H 	H 	0.0313	0.2962	0.2204	0.081
Mof_H 	H 	0.9728	0.3032	0.2681	-0
Mof_H 	H 	0.0792	0.0852	0.17	0.08
Mof_H 	H 	0.1076	0.0124	0.1468	-0.006
Mof_H 	H 	0.1172	0.0753	0.0701	-0.005
Mof_H 	H 	0.0948	0.15	0.0913	0.081
Mof_H 	H 	0.1252	0.2651	0.0874	0.078
Mof_H 	H 	0.1566	0.3351	0.0618	-0.015
Mof_H 	H 	0.0871	0.4142	0.1298	-0.008
Mof_H 	H 	0.0599	0.3463	0.1582	0.079
Mof_H 	H 	0.5382	0.9607	0.955	-0.008
Mof_H 	H 	0.6319	0.941	0.9954	0.088
Mof_H 	H 	0.3968	0.8733	0.0293	0.077
Mof_H 	H 	0.3086	0.8962	0.9887	-0.007
Mof_H 	H 	0.8426	0.9351	0.0307	0.082
Mof_H 	H 	0.9996	0.964	0.0383	-0
Mof_H 	H 	2.16662e-32	0.9136	0.119	-0.003
Mof_H 	H 	0.8437	0.8842	0.1134	0.091
Mof_H 	H 	0.6551	0.8185	0.1375	0.08
Mof_H 	H 	0.5679	0.782	0.1744	-0.015
Mof_H 	H 	0.3192	0.8099	0.1358	-0.01
Mof_H 	H 	0.3987	0.846	0.0968	0.083
Mof_H 	H 	0.5808	0.665	0.7282	-0.011
Mof_H 	H 	0.5188	0.6537	0.775	0.08
Mof_H 	H 	0.4687	0.7962	0.7796	0.081
Mof_H 	H 	0.5272	0.8032	0.7319	-0
Mof_H 	H 	0.4208	0.5852	0.83	0.08
Mof_H 	H 	0.3924	0.5124	0.8532	-0.006
Mof_H 	H 	0.3828	0.5753	0.9299	-0.005
Mof_H 	H 	0.4052	0.65	0.9087	0.081
Mof_H 	H 	0.3748	0.7651	0.9126	0.078
Mof_H 	H 	0.3434	0.8351	0.9382	-0.015
Mof_H 	H 	0.4129	0.9142	0.8702	-0.008
Mof_H 	H 	0.4401	0.8463	0.8418	0.079
Mof_H 	H 	0.4618	0.5393	0.455	-0.008
Mof_H 	H 	0.3681	0.559	0.4954	0.088
Mof_H 	H 	0.6032	0.6267	0.5293	0.077
Mof_H 	H 	0.6914	0.6038	0.4887	-0.007
Mof_H 	H 	0.1574	0.5649	0.5307	0.082
Mof_H 	H 	0.0004	0.536	0.5383	-0
Mof_H 	H 	7.76352e-33	0.5864	0.619	-0.003
Mof_H 	H 	0.1563	0.6158	0.6134	0.09
Mof_H 	H 	0.3449	0.6815	0.6375	0.08
Mof_H 	H 	0.4321	0.718	0.6744	-0.015
Mof_H 	H 	0.6808	0.6901	0.6358	-0.01
Mof_H 	H 	0.6013	0.654	0.5968	0.083
Mof_H 	H 	0.4192	0.835	0.2282	-0.011
Mof_H 	H 	0.4812	0.8463	0.275	0.08
Mof_H 	H 	0.5313	0.7038	0.2796	0.081
Mof_H 	H 	0.4728	0.6968	0.2319	-0
Mof_H 	H 	0.5792	0.9148	0.33	0.08
Mof_H 	H 	0.6076	0.9876	0.3532	-0.006
Mof_H 	H 	0.6172	0.9247	0.4299	-0.005
Mof_H 	H 	0.5948	0.85	0.4087	0.081
Mof_H 	H 	0.6252	0.7349	0.4126	0.078
Mof_H 	H 	0.6566	0.6649	0.4382	-0.015
Mof_H 	H 	0.5871	0.5858	0.3702	-0.008
Mof_H 	H 	0.5599	0.6537	0.3418	0.079
Mof_C 	C 	0.0094	0.0574	0.52966	0.068
Mof_C 	C 	0.066	0.0695	0.50582	-0.122
Mof_C 	C 	0.0258	0.0967	0.48391	0.054
Mof_C 	C 	0.9274	0.1091	0.48587	-0.116
Mof_C 	C 	0.8756	0.0953	0.5101	0.068
Mof_C 	C 	0.083	0.1104	0.45748	0.101
Mof_C 	C 	0.2235	0.1095	0.4319	0.101
Mof_C 	C 	0.0881	0.1424	0.41227	0.107
Mof_C 	C 	0.3254	0.0934	0.42879	0.045
Mof_C 	C 	0.3735	0.0695	0.45092	-0.115
Mof_C 	C 	0.4671	0.0521	0.44626	0.062
Mof_C 	C 	0.4672	0.0816	0.39904	0.06
Mof_C 	C 	0.3745	0.0994	0.40229	-0.114
Mof_C 	C 	0.036	0.165	0.38757	0.06
Mof_C 	C 	0.086	0.1835	0.36361	-0.123
Mof_C 	C 	0.0333	0.2048	0.34166	0.078
Mof_C 	C 	0.8884	0.1888	0.36419	0.069
Mof_C 	C 	0.9352	0.1671	0.38752	-0.113
Mof_C 	C 	0.058	0.308	0.76113	0.066
Mof_C 	C 	0.0215	0.315	0.73318	-0.117
Mof_C 	C 	0.9892	0.2762	0.71741	0.051
Mof_C 	C 	0.9914	0.2313	0.73056	-0.113
Mof_C 	C 	0.0274	0.2274	0.75885	0.064
Mof_C 	C 	0.9587	0.2809	0.68657	0.1
Mof_C 	C 	0.9254	0.3266	0.64692	0.101
Mof_C 	C 	0.9226	0.2458	0.64344	0.103
Mof_C 	C 	0.9133	0.3743	0.63295	0.052
Mof_C 	C 	0.9115	0.4159	0.64952	-0.115
Mof_C 	C 	0.8957	0.4592	0.63538	0.064
Mof_C 	C 	0.8892	0.4226	0.59064	0.066
Mof_C 	C 	0.9029	0.3779	0.60319	-0.113
Mof_C 	C 	0.908	0.202	0.62572	0.05
Mof_C 	C 	0.8813	0.2046	0.59675	-0.116
Mof_C 	C 	0.8642	0.1628	0.58157	0.067
Mof_C 	C 	0.9039	0.1165	0.62136	0.061
Mof_C 	C 	0.9206	0.1567	0.63845	-0.113
Mof_C 	C 	0.9906	0.4426	0.02966	0.067
Mof_C 	C 	0.934	0.4305	0.00582	-0.121
Mof_C 	C 	0.9742	0.4033	0.98391	0.052
Mof_C 	C 	0.0726	0.3909	0.98587	-0.114
Mof_C 	C 	0.1244	0.4047	0.0101	0.067
Mof_C 	C 	0.917	0.3896	0.95748	0.101
Mof_C 	C 	0.7765	0.3905	0.9319	0.101
Mof_C 	C 	0.9119	0.3576	0.91227	0.107
Mof_C 	C 	0.6746	0.4066	0.92879	0.045
Mof_C 	C 	0.6265	0.4305	0.95092	-0.115
Mof_C 	C 	0.5329	0.4479	0.94626	0.062
Mof_C 	C 	0.5328	0.4184	0.89904	0.06
Mof_C 	C 	0.6255	0.4006	0.90229	-0.114
Mof_C 	C 	0.964	0.335	0.88757	0.058
Mof_C 	C 	0.914	0.3165	0.86361	-0.122
Mof_C 	C 	0.9667	0.2952	0.84166	0.077
Mof_C 	C 	0.1116	0.3112	0.86419	0.068
Mof_C 	C 	0.0648	0.3329	0.88752	-0.111
Mof_C 	C 	0.942	0.192	0.26113	0.066
Mof_C 	C 	0.9785	0.185	0.23318	-0.118
Mof_C 	C 	0.0108	0.2238	0.21741	0.052
Mof_C 	C 	0.0086	0.2687	0.23056	-0.112
Mof_C 	C 	0.9726	0.2726	0.25885	0.063
Mof_C 	C 	0.0413	0.2191	0.18657	0.1
Mof_C 	C 	0.0746	0.1734	0.14692	0.101
Mof_C 	C 	0.0774	0.2542	0.14344	0.103
Mof_C 	C 	0.0867	0.1257	0.13295	0.052
Mof_C 	C 	0.0885	0.0841	0.14952	-0.115
Mof_C 	C 	0.1043	0.0408	0.13538	0.064
Mof_C 	C 	0.1108	0.0774	0.09064	0.066
Mof_C 	C 	0.0971	0.1221	0.10319	-0.113
Mof_C 	C 	0.092	0.298	0.12572	0.05
Mof_C 	C 	0.1187	0.2954	0.09675	-0.116
Mof_C 	C 	0.1358	0.3372	0.08157	0.067
Mof_C 	C 	0.0961	0.3835	0.12136	0.061
Mof_C 	C 	0.0794	0.3433	0.13845	-0.113
Mof_C 	C 	0.5094	0.9426	0.97034	0.067
Mof_C 	C 	0.566	0.9305	0.99418	-0.122
Mof_C 	C 	0.5258	0.9033	0.01609	0.053
Mof_C 	C 	0.4274	0.8909	0.01413	-0.115
Mof_C 	C 	0.3756	0.9047	0.9899	0.067
Mof_C 	C 	0.583	0.8896	0.04252	0.101
Mof_C 	C 	0.7235	0.8905	0.0681	0.101
Mof_C 	C 	0.5881	0.8576	0.08773	0.107
Mof_C 	C 	0.8254	0.9066	0.07121	0.045
Mof_C 	C 	0.8735	0.9305	0.04908	-0.116
Mof_C 	C 	0.9671	0.9479	0.05374	0.062
Mof_C 	C 	0.9672	0.9184	0.10096	0.061
Mof_C 	C 	0.8745	0.9006	0.09771	-0.115
Mof_C 	C 	0.536	0.835	0.11243	0.058
Mof_C 	C 	0.586	0.8165	0.13639	-0.122
Mof_C 	C 	0.5333	0.7952	0.15834	0.077
Mof_C 	C 	0.3884	0.8112	0.13581	0.068
Mof_C 	C 	0.4352	0.8329	0.11248	-0.111
Mof_C 	C 	0.558	0.692	0.73887	0.066
Mof_C 	C 	0.5215	0.685	0.76682	-0.116
Mof_C 	C 	0.4892	0.7238	0.78259	0.051
Mof_C 	C 	0.4914	0.7687	0.76944	-0.113
Mof_C 	C 	0.5274	0.7726	0.74115	0.064
Mof_C 	C 	0.4587	0.7191	0.81343	0.1
Mof_C 	C 	0.4254	0.6734	0.85308	0.101
Mof_C 	C 	0.4226	0.7542	0.85656	0.103
Mof_C 	C 	0.4133	0.6257	0.86705	0.052
Mof_C 	C 	0.4115	0.5841	0.85048	-0.115
Mof_C 	C 	0.3957	0.5408	0.86462	0.064
Mof_C 	C 	0.3892	0.5774	0.90936	0.066
Mof_C 	C 	0.4029	0.6221	0.89681	-0.113
Mof_C 	C 	0.408	0.798	0.87428	0.05
Mof_C 	C 	0.3813	0.7954	0.90325	-0.116
Mof_C 	C 	0.3642	0.8372	0.91843	0.067
Mof_C 	C 	0.4039	0.8835	0.87864	0.061
Mof_C 	C 	0.4206	0.8433	0.86155	-0.113
Mof_C 	C 	0.4906	0.5574	0.47034	0.067
Mof_C 	C 	0.434	0.5695	0.49418	-0.122
Mof_C 	C 	0.4742	0.5967	0.51609	0.053
Mof_C 	C 	0.5726	0.6091	0.51413	-0.115
Mof_C 	C 	0.6244	0.5953	0.4899	0.067
Mof_C 	C 	0.417	0.6104	0.54252	0.101
Mof_C 	C 	0.2765	0.6095	0.5681	0.101
Mof_C 	C 	0.4119	0.6424	0.58773	0.107
Mof_C 	C 	0.1746	0.5934	0.57121	0.045
Mof_C 	C 	0.1265	0.5695	0.54908	-0.115
Mof_C 	C 	0.0329	0.5521	0.55374	0.061
Mof_C 	C 	0.0328	0.5816	0.60096	0.06
Mof_C 	C 	0.1255	0.5994	0.59771	-0.114
Mof_C 	C 	0.464	0.665	0.61243	0.058
Mof_C 	C 	0.414	0.6835	0.63639	-0.122
Mof_C 	C 	0.4667	0.7048	0.65834	0.077
Mof_C 	C 	0.6116	0.6888	0.63581	0.068
Mof_C 	C 	0.5648	0.6671	0.61248	-0.111
Mof_C 	C 	0.442	0.808	0.23887	0.066
Mof_C 	C 	0.4785	0.815	0.26682	-0.116
Mof_C 	C 	0.5108	0.7762	0.28259	0.051
Mof_C 	C 	0.5086	0.7313	0.26944	-0.113
Mof_C 	C 	0.4726	0.7274	0.24115	0.064
Mof_C 	C 	0.5413	0.7809	0.31343	0.1
Mof_C 	C 	0.5746	0.8266	0.35308	0.101
Mof_C 	C 	0.5774	0.7458	0.35656	0.103
Mof_C 	C 	0.5867	0.8743	0.36705	0.052
Mof_C 	C 	0.5885	0.9159	0.35048	-0.115
Mof_C 	C 	0.6043	0.9592	0.36462	0.064
Mof_C 	C 	0.6108	0.9226	0.40936	0.066
Mof_C 	C 	0.5971	0.8779	0.39681	-0.113
Mof_C 	C 	0.592	0.702	0.37428	0.05
Mof_C 	C 	0.6187	0.7046	0.40325	-0.116
Mof_C 	C 	0.6358	0.6628	0.41843	0.067
Mof_C 	C 	0.5961	0.6165	0.37864	0.061
Mof_C 	C 	0.5794	0.6567	0.36155	-0.113
Mof_I 	I 	0.91948	0.98923	0.59739	-0.366
Mof_I 	I 	0.65739	0.06761	0.55868	-0.381
Mof_I 	I 	0.69914	0.19728	0.30362	-0.371
Mof_I 	I 	0.84918	0.33341	0.32339	-0.375
Mof_I 	I 	0.7335	0.07733	0.37401	-0.367
Mof_I 	I 	0.72498	0.00996	0.46289	-0.391
Mof_I 	I 	0.08052	0.51077	0.09739	-0.366
Mof_I 	I 	0.34261	0.43239	0.05868	-0.38
Mof_I 	I 	0.30086	0.30272	0.80362	-0.371
Mof_I 	I 	0.15082	0.16659	0.82339	-0.375
Mof_I 	I 	0.2665	0.42267	0.87401	-0.367
Mof_I 	I 	0.27502	0.49004	0.96289	-0.391
Mof_I 	I 	0.41948	0.01077	0.90261	-0.366
Mof_I 	I 	0.15739	0.93239	0.94132	-0.381
Mof_I 	I 	0.19914	0.80272	0.19638	-0.371
Mof_I 	I 	0.34918	0.66659	0.17661	-0.375
Mof_I 	I 	0.2335	0.92267	0.12599	-0.367
Mof_I 	I 	0.22498	0.99004	0.03711	-0.391
Mof_I 	I 	0.58052	0.48923	0.40261	-0.366
Mof_I 	I 	0.84261	0.56761	0.44132	-0.381
Mof_I 	I 	0.80086	0.69728	0.69638	-0.371
Mof_I 	I 	0.65082	0.83341	0.67661	-0.375
Mof_I 	I 	0.7665	0.57733	0.62599	-0.366
Mof_I 	I 	0.77502	0.50996	0.53711	-0.391
Mof_N 	N 	0.9151	0.0703	0.53212	-0.271
Mof_N 	N 	0.1778	0.0983	0.45669	-0.142
Mof_N 	N 	0.1829	0.13216	0.40919	-0.134
Mof_N 	N 	0.0347	0.1324	0.43598	-0.137
Mof_N 	N 	0.5134	0.0574	0.42048	-0.27
Mof_N 	N 	0.9361	0.2078	0.34168	-0.277
Mof_N 	N 	0.062	0.2648	0.77334	-0.272
Mof_N 	N 	0.949	0.32536	0.67548	-0.137
Mof_N 	N 	0.9119	0.28809	0.63008	-0.139
Mof_N 	N 	0.9462	0.24006	0.6715	-0.139
Mof_N 	N 	0.8848	0.46296	0.60637	-0.269
Mof_N 	N 	0.8756	0.1191	0.5935	-0.269
Mof_N 	N 	0.0849	0.4297	0.03212	-0.271
Mof_N 	N 	0.8222	0.4017	0.95669	-0.142
Mof_N 	N 	0.8171	0.36784	0.90919	-0.134
Mof_N 	N 	0.9653	0.3676	0.93598	-0.137
Mof_N 	N 	0.4866	0.4426	0.92048	-0.27
Mof_N 	N 	0.0639	0.2922	0.84168	-0.276
Mof_N 	N 	0.938	0.2352	0.27334	-0.272
Mof_N 	N 	0.051	0.17464	0.17548	-0.137
Mof_N 	N 	0.0881	0.21191	0.13008	-0.139
Mof_N 	N 	0.0538	0.25994	0.1715	-0.139
Mof_N 	N 	0.1152	0.03704	0.10637	-0.269
Mof_N 	N 	0.1244	0.3809	0.0935	-0.269
Mof_N 	N 	0.4151	0.9297	0.96788	-0.271
Mof_N 	N 	0.6778	0.9017	0.04331	-0.142
Mof_N 	N 	0.6829	0.86784	0.09081	-0.134
Mof_N 	N 	0.5347	0.8676	0.06402	-0.137
Mof_N 	N 	0.0134	0.9426	0.07952	-0.27
Mof_N 	N 	0.4361	0.7922	0.15832	-0.276
Mof_N 	N 	0.562	0.7352	0.72666	-0.272
Mof_N 	N 	0.449	0.67464	0.82452	-0.138
Mof_N 	N 	0.4119	0.71191	0.86992	-0.139
Mof_N 	N 	0.4462	0.75994	0.8285	-0.139
Mof_N 	N 	0.3848	0.53704	0.89363	-0.269
Mof_N 	N 	0.3756	0.8809	0.9065	-0.269
Mof_N 	N 	0.5849	0.5703	0.46788	-0.271
Mof_N 	N 	0.3222	0.5983	0.54331	-0.142
Mof_N 	N 	0.3171	0.63216	0.59081	-0.134
Mof_N 	N 	0.4653	0.6324	0.56402	-0.137
Mof_N 	N 	0.9866	0.5574	0.57952	-0.27
Mof_N 	N 	0.5639	0.7078	0.65832	-0.276
Mof_N 	N 	0.438	0.7648	0.22666	-0.272
Mof_N 	N 	0.551	0.82536	0.32452	-0.138
Mof_N 	N 	0.5881	0.78809	0.36992	-0.139
Mof_N 	N 	0.5538	0.74006	0.3285	-0.139
Mof_N 	N 	0.6152	0.96296	0.39363	-0.269
Mof_N 	N 	0.6244	0.6191	0.4065	-0.269
_end
