data_functionalizedCrystal
_audit_creation_method	'EQeq! by Chris Wilmer'
_symmetry_space_group_name_H-M	'P1'
_symmetry_Int_Tables_number	1
_symmetry_cell_setting	triclinic
loop_
_symmetry_equiv_pos_as_xyz
  x,y,z
_cell_length_a	20.452
_cell_length_b	27.849
_cell_length_c	27.849
_cell_angle_alpha	90
_cell_angle_beta	90
_cell_angle_gamma	90
loop_
_atom_site_label
_atom_site_type_symbol
_atom_site_fract_x
_atom_site_fract_y
_atom_site_fract_z
_atom_site_charge
Mof_Cd	Cd	0.12471	0.31509	0.45391	0.331
Mof_Cd	Cd	0.5	0.17969	0.67969	0.262
Mof_Cd	Cd	0.12471	0.81509	0.04609	0.331
Mof_Cd	Cd	0.87529	0.95391	0.81509	0.327
Mof_Cd	Cd	0.87529	0.04609	0.18491	0.327
Mof_Cd	Cd	0.87529	0.81509	0.04609	0.327
Mof_Cd	Cd	4.9278e-34	0.0254	0.09652	0.395
Mof_Cd	Cd	0.87529	0.68491	0.54609	0.327
Mof_Cd	Cd	0.12471	0.18491	0.95391	0.331
Mof_Cd	Cd	0.12471	0.54609	0.31509	0.331
Mof_Cd	Cd	0.87529	0.54609	0.31509	0.327
Mof_Cd	Cd	-4.30588e-33	0.5254	0.40348	0.395
Mof_Cd	Cd	-6.23616e-33	0.90348	0.0254	0.395
Mof_Cd	Cd	9.04825e-33	0.59652	0.5254	0.395
Mof_Cd	Cd	0.87529	0.31509	0.45391	0.327
Mof_Cd	Cd	0.5	0.82031	0.32031	0.262
Mof_Cd	Cd	0.5	0.32031	0.17969	0.262
Mof_Cd	Cd	0.87529	0.18491	0.95391	0.327
Mof_Cd	Cd	4.97579e-33	0.09652	0.9746	0.395
Mof_Cd	Cd	0.87529	0.45391	0.68491	0.327
Mof_Cd	Cd	0.5	0.7215	0.7785	0.229
Mof_Cd	Cd	0.5	0.2785	0.2215	0.229
Mof_Cd	Cd	0.12471	0.68491	0.54609	0.331
Mof_Cd	Cd	0.5	0.67969	0.82031	0.262
Mof_Cd	Cd	-8.11898e-33	0.9746	0.90348	0.395
Mof_Cd	Cd	0.5	0.7785	0.2785	0.229
Mof_Cd	Cd	0.5	0.2215	0.7215	0.229
Mof_Cd	Cd	-3.94278e-33	0.40348	0.4746	0.395
Mof_Cd	Cd	0.12471	0.04609	0.18491	0.331
Mof_Cd	Cd	0.12471	0.95391	0.81509	0.331
Mof_Cd	Cd	3.04551e-33	0.4746	0.59652	0.395
Mof_Cd	Cd	0.12471	0.45391	0.68491	0.331
Mof_H 	H 	0.676	0.8221	0.1563	0.067
Mof_H 	H 	0.6841	0.5593	0.7404	0.069
Mof_H 	H 	0.5601	0.5884	0.6618	0.059
Mof_H 	H 	0.2243	0.1978	0.0324	0.012
Mof_H 	H 	0.6841	0.9407	0.2404	0.069
Mof_H 	H 	0.3159	0.4407	0.2596	0.069
Mof_H 	H 	0.7432	0.1714	0.7373	0.063
Mof_H 	H 	0.7676	0.8489	0.1137	0.013
Mof_H 	H 	0.324	0.3437	0.6779	0.068
Mof_H 	H 	0.2243	0.9676	0.1978	0.012
Mof_H 	H 	0.2568	0.8286	0.2627	0.064
Mof_H 	H 	0.324	0.8437	0.8221	0.068
Mof_H 	H 	0.5601	0.0884	0.8382	0.059
Mof_H 	H 	0.324	0.1563	0.1779	0.068
Mof_H 	H 	0.6841	0.2404	0.0593	0.069
Mof_H 	H 	0.3159	0.7404	0.4407	0.069
Mof_H 	H 	0.5601	0.4116	0.3382	0.059
Mof_H 	H 	0.324	0.6779	0.6563	0.068
Mof_H 	H 	0.7432	0.8286	0.2627	0.063
Mof_H 	H 	0.7757	0.1978	0.0324	0.012
Mof_H 	H 	0.7757	0.8022	0.9676	0.012
Mof_H 	H 	0.676	0.8437	0.8221	0.067
Mof_H 	H 	0.4399	0.8382	0.9116	0.059
Mof_H 	H 	0.7432	0.7627	0.3286	0.063
Mof_H 	H 	0.3159	0.2404	0.0593	0.069
Mof_H 	H 	0.7432	0.3286	0.2373	0.063
Mof_H 	H 	0.2243	0.5324	0.6978	0.012
Mof_H 	H 	0.7676	0.8863	0.8489	0.013
Mof_H 	H 	0.5601	0.3382	0.5884	0.059
Mof_H 	H 	0.2324	0.3863	0.6511	0.013
Mof_H 	H 	0.2568	0.6714	0.7627	0.064
Mof_H 	H 	0.676	0.3221	0.3437	0.067
Mof_H 	H 	0.2324	0.8489	0.1137	0.013
Mof_H 	H 	0.7757	0.5324	0.6978	0.012
Mof_H 	H 	0.2568	0.3286	0.2373	0.064
Mof_H 	H 	0.2243	0.0324	0.8022	0.012
Mof_H 	H 	0.676	0.1779	0.8437	0.067
Mof_H 	H 	0.2324	0.1511	0.8863	0.013
Mof_H 	H 	0.3159	0.7596	0.9407	0.069
Mof_H 	H 	0.2324	0.8863	0.8489	0.013
Mof_H 	H 	0.6841	0.2596	0.5593	0.069
Mof_H 	H 	0.5601	0.8382	0.9116	0.059
Mof_H 	H 	0.2243	0.6978	0.4676	0.012
Mof_H 	H 	0.7676	0.1137	0.1511	0.013
Mof_H 	H 	0.676	0.1563	0.1779	0.067
Mof_H 	H 	0.4399	0.6618	0.4116	0.059
Mof_H 	H 	0.676	0.3437	0.6779	0.067
Mof_H 	H 	0.7676	0.6511	0.6137	0.013
Mof_H 	H 	0.2324	0.6511	0.6137	0.013
Mof_H 	H 	0.2324	0.3489	0.3863	0.013
Mof_H 	H 	0.6841	0.4407	0.2596	0.069
Mof_H 	H 	0.3159	0.0593	0.7596	0.069
Mof_H 	H 	0.324	0.6563	0.3221	0.068
Mof_H 	H 	0.4399	0.9116	0.1618	0.059
Mof_H 	H 	0.676	0.6563	0.3221	0.067
Mof_H 	H 	0.7757	0.0324	0.8022	0.012
Mof_H 	H 	0.7757	0.4676	0.3022	0.012
Mof_H 	H 	0.4399	0.3382	0.5884	0.059
Mof_H 	H 	0.7676	0.3489	0.3863	0.013
Mof_H 	H 	0.2568	0.2373	0.6714	0.064
Mof_H 	H 	0.5601	0.1618	0.0884	0.059
Mof_H 	H 	0.2324	0.1137	0.1511	0.013
Mof_H 	H 	0.2568	0.7627	0.3286	0.064
Mof_H 	H 	0.3159	0.9407	0.2404	0.069
Mof_H 	H 	0.324	0.8221	0.1563	0.068
Mof_H 	H 	0.324	0.1779	0.8437	0.068
Mof_H 	H 	0.324	0.3221	0.3437	0.068
Mof_H 	H 	0.2243	0.8022	0.9676	0.012
Mof_H 	H 	0.7432	0.2373	0.6714	0.063
Mof_H 	H 	0.4399	0.5884	0.6618	0.059
Mof_H 	H 	0.2324	0.6137	0.3489	0.013
Mof_H 	H 	0.7432	0.7373	0.8286	0.063
Mof_H 	H 	0.5601	0.6618	0.4116	0.059
Mof_H 	H 	0.3159	0.5593	0.7404	0.069
Mof_H 	H 	0.7757	0.6978	0.4676	0.012
Mof_H 	H 	0.7757	0.3022	0.5324	0.012
Mof_H 	H 	0.6841	0.0593	0.7596	0.069
Mof_H 	H 	0.2243	0.3022	0.5324	0.012
Mof_H 	H 	0.7757	0.9676	0.1978	0.012
Mof_H 	H 	0.4399	0.0884	0.8382	0.059
Mof_H 	H 	0.2243	0.4676	0.3022	0.012
Mof_H 	H 	0.6841	0.7404	0.4407	0.069
Mof_H 	H 	0.7432	0.2627	0.1714	0.063
Mof_H 	H 	0.5601	0.9116	0.1618	0.059
Mof_H 	H 	0.2568	0.7373	0.8286	0.064
Mof_H 	H 	0.3159	0.2596	0.5593	0.069
Mof_H 	H 	0.2568	0.1714	0.7373	0.064
Mof_H 	H 	0.4399	0.4116	0.3382	0.059
Mof_H 	H 	0.7676	0.1511	0.8863	0.013
Mof_H 	H 	0.676	0.6779	0.6563	0.067
Mof_H 	H 	0.7676	0.3863	0.6511	0.013
Mof_H 	H 	0.6841	0.7596	0.9407	0.069
Mof_H 	H 	0.4399	0.1618	0.0884	0.059
Mof_H 	H 	0.7676	0.6137	0.3489	0.013
Mof_H 	H 	0.7432	0.6714	0.7627	0.063
Mof_H 	H 	0.2568	0.2627	0.1714	0.064
Mof_C 	C 	0.3038	0.3516	0.3353	-0.125
Mof_C 	C 	0.701	0.9221	0.2147	-0.125
Mof_C 	C 	0.7506	0.1324	0.8606	0.017
Mof_C 	C 	0.381	0.7654	0.8585	-0.115
Mof_C 	C 	0.7506	0.3606	0.6324	0.017
Mof_C 	C 	0.3574	0.8259	0.2693	0.099
Mof_C 	C 	0.299	0.7147	0.4221	-0.125
Mof_C 	C 	0.2198	0.9108	0.1517	-0.061
Mof_C 	C 	0.299	0.7853	0.9221	-0.125
Mof_C 	C 	0.2446	0.438	0.3106	0.018
Mof_C 	C 	0.1589	0.1257	0.07336	0.139
Mof_C 	C 	0.706	0.7221	0.8149	-0.088
Mof_C 	C 	0.1589	0.6257	0.42664	0.139
Mof_C 	C 	0.2494	0.6394	0.3676	0.017
Mof_C 	C 	0.294	0.1851	0.7221	-0.088
Mof_C 	C 	0.2198	0.4108	0.3483	-0.061
Mof_C 	C 	0.294	0.6851	0.7779	-0.088
Mof_C 	C 	0.46701	0.3151	0.6036	-0.085
Mof_C 	C 	0.701	0.2853	0.5779	-0.125
Mof_C 	C 	0.619	0.7346	0.3585	-0.115
Mof_C 	C 	0.619	0.1415	0.7654	-0.115
Mof_C 	C 	0.6962	0.1484	0.8353	-0.125
Mof_C 	C 	0.4459	0.8712	0.2234	0.097
Mof_C 	C 	0.2198	0.6517	0.4108	-0.061
Mof_C 	C 	0.5541	0.1288	0.7766	0.097
Mof_C 	C 	0.619	0.2654	0.6415	-0.115
Mof_C 	C 	0.7506	0.3676	0.3606	0.017
Mof_C 	C 	0.7506	0.6324	0.6394	0.017
Mof_C 	C 	0.4459	0.7234	0.3712	0.097
Mof_C 	C 	0.5541	0.7234	0.3712	0.097
Mof_C 	C 	0.2446	0.6894	0.438	0.018
Mof_C 	C 	0.6426	0.2307	0.6741	0.098
Mof_C 	C 	0.3038	0.8516	0.1647	-0.125
Mof_C 	C 	0.4459	0.1288	0.7766	0.097
Mof_C 	C 	0.6962	0.3353	0.6484	-0.125
Mof_C 	C 	0.7802	0.8483	0.9108	-0.061
Mof_C 	C 	0.6962	0.1647	0.1484	-0.125
Mof_C 	C 	0.6714	0.7976	0.8789	0.089
Mof_C 	C 	0.7506	0.1394	0.1324	0.017
Mof_C 	C 	0.2446	0.1894	0.062	0.018
Mof_C 	C 	0.619	0.6415	0.7346	-0.115
Mof_C 	C 	0.46701	0.1036	0.8151	-0.085
Mof_C 	C 	0.3038	0.6484	0.6647	-0.125
Mof_C 	C 	0.2198	0.0892	0.8483	-0.061
Mof_C 	C 	0.3286	0.7976	0.8789	0.089
Mof_C 	C 	0.7554	0.1894	0.062	0.018
Mof_C 	C 	0.3286	0.7024	0.3789	0.089
Mof_C 	C 	0.53299	0.8964	0.1849	-0.085
Mof_C 	C 	0.619	0.3585	0.2654	-0.115
Mof_C 	C 	0.3286	0.3789	0.2976	0.089
Mof_C 	C 	0.2198	0.1517	0.0892	-0.061
Mof_C 	C 	0.2494	0.3676	0.3606	0.017
Mof_C 	C 	0.6714	0.3789	0.2976	0.089
Mof_C 	C 	0.7554	0.6894	0.438	0.017
Mof_C 	C 	0.3286	0.2976	0.6211	0.089
Mof_C 	C 	0.2494	0.3606	0.6324	0.017
Mof_C 	C 	0.6714	0.7024	0.3789	0.089
Mof_C 	C 	0.8411	0.42664	0.3743	0.138
Mof_C 	C 	0.4459	0.2234	0.1288	0.097
Mof_C 	C 	0.46701	0.3964	0.3151	-0.085
Mof_C 	C 	0.4459	0.7766	0.8712	0.097
Mof_C 	C 	0.706	0.6851	0.7779	-0.088
Mof_C 	C 	0.381	0.8585	0.2346	-0.115
Mof_C 	C 	0.7802	0.3483	0.5892	-0.061
Mof_C 	C 	0.294	0.2221	0.6851	-0.088
Mof_C 	C 	0.4459	0.3712	0.2766	0.097
Mof_C 	C 	0.6714	0.1211	0.7976	0.089
Mof_C 	C 	0.6962	0.8353	0.8516	-0.125
Mof_C 	C 	0.1589	0.92664	0.1257	0.139
Mof_C 	C 	0.2198	0.3483	0.5892	-0.061
Mof_C 	C 	0.46701	0.6849	0.3964	-0.085
Mof_C 	C 	0.6962	0.6484	0.6647	-0.125
Mof_C 	C 	0.3286	0.1211	0.7976	0.089
Mof_C 	C 	0.5541	0.8712	0.2234	0.097
Mof_C 	C 	0.6426	0.8259	0.2693	0.098
Mof_C 	C 	0.5541	0.3712	0.2766	0.097
Mof_C 	C 	0.706	0.1851	0.7221	-0.088
Mof_C 	C 	0.8411	0.07336	0.8743	0.138
Mof_C 	C 	0.701	0.2147	0.0779	-0.125
Mof_C 	C 	0.53299	0.3151	0.6036	-0.085
Mof_C 	C 	0.381	0.2346	0.1415	-0.115
Mof_C 	C 	0.381	0.3585	0.2654	-0.115
Mof_C 	C 	0.706	0.3149	0.2221	-0.088
Mof_C 	C 	0.6714	0.2024	0.1211	0.089
Mof_C 	C 	0.4459	0.2766	0.6288	0.097
Mof_C 	C 	0.3038	0.8353	0.8516	-0.125
Mof_C 	C 	0.701	0.5779	0.7147	-0.125
Mof_C 	C 	0.8411	0.8743	0.92664	0.138
Mof_C 	C 	0.8411	0.92664	0.1257	0.138
Mof_C 	C 	0.381	0.6415	0.7346	-0.115
Mof_C 	C 	0.3286	0.2024	0.1211	0.089
Mof_C 	C 	0.3574	0.6741	0.7693	0.099
Mof_C 	C 	0.53299	0.1036	0.8151	-0.085
Mof_C 	C 	0.3574	0.2693	0.1741	0.099
Mof_C 	C 	0.5541	0.7766	0.8712	0.097
Mof_C 	C 	0.46701	0.8151	0.8964	-0.085
Mof_C 	C 	0.6426	0.3259	0.2307	0.098
Mof_C 	C 	0.3038	0.1484	0.8353	-0.125
Mof_C 	C 	0.5541	0.2234	0.1288	0.097
Mof_C 	C 	0.701	0.4221	0.2853	-0.125
Mof_C 	C 	0.1589	0.07336	0.8743	0.139
Mof_C 	C 	0.2446	0.938	0.1894	0.018
Mof_C 	C 	0.4459	0.6288	0.7234	0.097
Mof_C 	C 	0.6426	0.6741	0.7693	0.098
Mof_C 	C 	0.701	0.0779	0.7853	-0.125
Mof_C 	C 	0.7554	0.8106	0.938	0.018
Mof_C 	C 	0.53299	0.6849	0.3964	-0.085
Mof_C 	C 	0.6426	0.1741	0.7307	0.098
Mof_C 	C 	0.53299	0.1849	0.1036	-0.085
Mof_C 	C 	0.381	0.1415	0.7654	-0.115
Mof_C 	C 	0.2446	0.562	0.6894	0.018
Mof_C 	C 	0.3574	0.7307	0.8259	0.099
Mof_C 	C 	0.3574	0.2307	0.6741	0.099
Mof_C 	C 	0.2494	0.6324	0.6394	0.017
Mof_C 	C 	0.1589	0.8743	0.92664	0.139
Mof_C 	C 	0.7802	0.6517	0.4108	-0.061
Mof_C 	C 	0.706	0.8149	0.2779	-0.088
Mof_C 	C 	0.3574	0.7693	0.3259	0.099
Mof_C 	C 	0.6962	0.3516	0.3353	-0.125
Mof_C 	C 	0.294	0.2779	0.1851	-0.088
Mof_C 	C 	0.7554	0.3106	0.562	0.017
Mof_C 	C 	0.3038	0.3353	0.6484	-0.125
Mof_C 	C 	0.53299	0.6036	0.6849	-0.085
Mof_C 	C 	0.7802	0.4108	0.3483	-0.061
Mof_C 	C 	0.5541	0.2766	0.6288	0.097
Mof_C 	C 	0.7506	0.8676	0.1394	0.017
Mof_C 	C 	0.46701	0.6036	0.6849	-0.085
Mof_C 	C 	0.299	0.9221	0.2147	-0.125
Mof_C 	C 	0.6962	0.8516	0.1647	-0.125
Mof_C 	C 	0.619	0.2346	0.1415	-0.115
Mof_C 	C 	0.701	0.7147	0.4221	-0.125
Mof_C 	C 	0.8411	0.57336	0.6257	0.138
Mof_C 	C 	0.701	0.7853	0.9221	-0.125
Mof_C 	C 	0.706	0.2779	0.1851	-0.088
Mof_C 	C 	0.381	0.2654	0.6415	-0.115
Mof_C 	C 	0.8411	0.6257	0.42664	0.138
Mof_C 	C 	0.46701	0.8964	0.1849	-0.085
Mof_C 	C 	0.2494	0.1394	0.1324	0.017
Mof_C 	C 	0.53299	0.8151	0.8964	-0.085
Mof_C 	C 	0.7506	0.6394	0.3676	0.017
Mof_C 	C 	0.6962	0.6647	0.3516	-0.125
Mof_C 	C 	0.6426	0.7307	0.8259	0.098
Mof_C 	C 	0.299	0.4221	0.2853	-0.125
Mof_C 	C 	0.2446	0.062	0.8106	0.018
Mof_C 	C 	0.299	0.0779	0.7853	-0.125
Mof_C 	C 	0.2494	0.8676	0.1394	0.017
Mof_C 	C 	0.2494	0.8606	0.8676	0.017
Mof_C 	C 	0.6714	0.2976	0.6211	0.089
Mof_C 	C 	0.3574	0.3259	0.2307	0.099
Mof_C 	C 	0.294	0.7221	0.8149	-0.088
Mof_C 	C 	0.5541	0.6288	0.7234	0.097
Mof_C 	C 	0.6426	0.2693	0.1741	0.098
Mof_C 	C 	0.706	0.2221	0.6851	-0.088
Mof_C 	C 	0.2446	0.3106	0.562	0.018
Mof_C 	C 	0.381	0.7346	0.3585	-0.115
Mof_C 	C 	0.6426	0.7693	0.3259	0.098
Mof_C 	C 	0.1589	0.57336	0.6257	0.139
Mof_C 	C 	0.2198	0.5892	0.6517	-0.061
Mof_C 	C 	0.7802	0.9108	0.1517	-0.061
Mof_C 	C 	0.619	0.7654	0.8585	-0.115
Mof_C 	C 	0.2198	0.8483	0.9108	-0.061
Mof_C 	C 	0.7554	0.062	0.8106	0.018
Mof_C 	C 	0.3574	0.1741	0.7307	0.099
Mof_C 	C 	0.619	0.8585	0.2346	-0.115
Mof_C 	C 	0.8411	0.3743	0.57336	0.138
Mof_C 	C 	0.299	0.2147	0.0779	-0.125
Mof_C 	C 	0.3038	0.1647	0.1484	-0.125
Mof_C 	C 	0.1589	0.3743	0.57336	0.139
Mof_C 	C 	0.299	0.5779	0.7147	-0.125
Mof_C 	C 	0.53299	0.3964	0.3151	-0.085
Mof_C 	C 	0.7802	0.5892	0.6517	-0.061
Mof_C 	C 	0.3286	0.8789	0.2024	0.089
Mof_C 	C 	0.1589	0.42664	0.3743	0.139
Mof_C 	C 	0.7554	0.562	0.6894	0.017
Mof_C 	C 	0.299	0.2853	0.5779	-0.125
Mof_C 	C 	0.7506	0.8606	0.8676	0.017
Mof_C 	C 	0.294	0.7779	0.3149	-0.088
Mof_C 	C 	0.706	0.7779	0.3149	-0.088
Mof_C 	C 	0.6714	0.8789	0.2024	0.089
Mof_C 	C 	0.2494	0.1324	0.8606	0.017
Mof_C 	C 	0.294	0.3149	0.2221	-0.088
Mof_C 	C 	0.7554	0.938	0.1894	0.018
Mof_C 	C 	0.7554	0.438	0.3106	0.017
Mof_C 	C 	0.2446	0.8106	0.938	0.018
Mof_C 	C 	0.8411	0.1257	0.07336	0.138
Mof_C 	C 	0.7802	0.0892	0.8483	-0.061
Mof_C 	C 	0.3286	0.6211	0.7024	0.089
Mof_C 	C 	0.46701	0.1849	0.1036	-0.085
Mof_C 	C 	0.7802	0.1517	0.0892	-0.061
Mof_C 	C 	0.294	0.8149	0.2779	-0.088
Mof_C 	C 	0.6714	0.6211	0.7024	0.089
Mof_C 	C 	0.3038	0.6647	0.3516	-0.125
Mof_N 	N 	0.1307	0.8998	0.0937	-0.116
Mof_N 	N 	0.0792	0.3956	0.5325	-0.079
Mof_N 	N 	0.3965	0.6952	0.8048	-0.174
Mof_N 	N 	0.9208	0.4675	0.3956	-0.081
Mof_N 	N 	0.5	0.3544	0.2505	-0.177
Mof_N 	N 	0.8687	0.0323	0.8658	-0.12
Mof_N 	N 	0.1313	0.1342	0.0323	-0.12
Mof_N 	N 	0.8693	0.0937	0.1002	-0.116
Mof_N 	N 	0.1313	0.6342	0.4677	-0.12
Mof_N 	N 	0.0792	0.6044	0.4675	-0.079
Mof_N 	N 	0.1307	0.4063	0.6002	-0.116
Mof_N 	N 	0.5	0.7495	0.3544	-0.177
Mof_N 	N 	0.8687	0.6342	0.4677	-0.12
Mof_N 	N 	0.08	0.5748	0.579	-0.077
Mof_N 	N 	0.5	0.8544	0.2495	-0.177
Mof_N 	N 	0.0792	0.1044	0.0325	-0.079
Mof_N 	N 	0.5	0.1456	0.7505	-0.177
Mof_N 	N 	0.8687	0.3658	0.5323	-0.12
Mof_N 	N 	0.3965	0.1952	0.6952	-0.174
Mof_N 	N 	0.0792	0.4675	0.3956	-0.079
Mof_N 	N 	0.6035	0.1952	0.6952	-0.174
Mof_N 	N 	0.92	0.079	0.0748	-0.079
Mof_N 	N 	0.92	0.4252	0.421	-0.079
Mof_N 	N 	0.3965	0.8048	0.3048	-0.174
Mof_N 	N 	0.5	0.6456	0.7495	-0.177
Mof_N 	N 	0.8693	0.3998	0.4063	-0.116
Mof_N 	N 	0.08	0.421	0.5748	-0.077
Mof_N 	N 	0.92	0.9252	0.079	-0.079
Mof_N 	N 	0.3965	0.3048	0.1952	-0.174
Mof_N 	N 	0.8693	0.5937	0.3998	-0.116
Mof_N 	N 	0.9208	0.1044	0.0325	-0.081
Mof_N 	N 	0.5	0.2495	0.1456	-0.177
Mof_N 	N 	0.08	0.0748	0.921	-0.077
Mof_N 	N 	0.1313	0.3658	0.5323	-0.12
Mof_N 	N 	0.9208	0.9675	0.1044	-0.081
Mof_N 	N 	0.92	0.5748	0.579	-0.079
Mof_N 	N 	0.1313	0.9677	0.1342	-0.12
Mof_N 	N 	0.9208	0.8956	0.9675	-0.081
Mof_N 	N 	0.1313	0.8658	0.9677	-0.12
Mof_N 	N 	0.08	0.4252	0.421	-0.077
Mof_N 	N 	0.8687	0.8658	0.9677	-0.12
Mof_N 	N 	0.1307	0.3998	0.4063	-0.116
Mof_N 	N 	0.8693	0.6002	0.5937	-0.116
Mof_N 	N 	0.8693	0.9063	0.8998	-0.116
Mof_N 	N 	0.9208	0.5325	0.6044	-0.081
Mof_N 	N 	0.1313	0.0323	0.8658	-0.12
Mof_N 	N 	0.08	0.9252	0.079	-0.077
Mof_N 	N 	0.0792	0.5325	0.6044	-0.079
Mof_N 	N 	0.0792	0.8956	0.9675	-0.079
Mof_N 	N 	0.92	0.421	0.5748	-0.079
Mof_N 	N 	0.0792	0.9675	0.1044	-0.079
Mof_N 	N 	0.1307	0.6002	0.5937	-0.116
Mof_N 	N 	0.92	0.0748	0.921	-0.079
Mof_N 	N 	0.92	0.579	0.4252	-0.079
Mof_N 	N 	0.8693	0.8998	0.0937	-0.116
Mof_N 	N 	0.9208	0.0325	0.8956	-0.081
Mof_N 	N 	0.9208	0.6044	0.4675	-0.081
Mof_N 	N 	0.92	0.921	0.9252	-0.079
Mof_N 	N 	0.5	0.7505	0.8544	-0.177
Mof_N 	N 	0.1307	0.5937	0.3998	-0.116
Mof_N 	N 	0.1307	0.1002	0.9063	-0.116
Mof_N 	N 	0.1307	0.9063	0.8998	-0.116
Mof_N 	N 	0.6035	0.3048	0.1952	-0.174
Mof_N 	N 	0.1307	0.0937	0.1002	-0.116
Mof_N 	N 	0.1313	0.4677	0.3658	-0.12
Mof_N 	N 	0.8687	0.1342	0.0323	-0.12
Mof_N 	N 	0.8687	0.5323	0.6342	-0.12
Mof_N 	N 	0.0792	0.0325	0.8956	-0.079
Mof_N 	N 	0.8687	0.4677	0.3658	-0.12
Mof_N 	N 	0.9208	0.3956	0.5325	-0.081
Mof_N 	N 	0.1313	0.5323	0.6342	-0.12
Mof_N 	N 	0.5	0.2505	0.6456	-0.177
Mof_N 	N 	0.8693	0.4063	0.6002	-0.116
Mof_N 	N 	0.08	0.579	0.4252	-0.077
Mof_N 	N 	0.6035	0.8048	0.3048	-0.174
Mof_N 	N 	0.8693	0.1002	0.9063	-0.116
Mof_N 	N 	0.6035	0.6952	0.8048	-0.174
Mof_N 	N 	0.8687	0.9677	0.1342	-0.12
Mof_N 	N 	0.08	0.921	0.9252	-0.077
Mof_N 	N 	0.08	0.079	0.0748	-0.077
Mof_Cl	Cl	1.6907e-32	0.9512	0.81781	-0.445
Mof_Cl	Cl	9.30165e-34	0.0488	0.18219	-0.445
Mof_Cl	Cl	-1.56035e-33	0.5488	0.31781	-0.445
Mof_Cl	Cl	3.43206e-33	0.81781	0.0488	-0.445
Mof_Cl	Cl	-2.88294e-33	0.4512	0.68219	-0.445
Mof_Cl	Cl	2.30359e-33	0.31781	0.4512	-0.445
Mof_Cl	Cl	4.85632e-33	0.18219	0.9512	-0.445
Mof_Cl	Cl	9.16772e-33	0.68219	0.5488	-0.445
_end
