data_functionalizedCrystal
_audit_creation_method	'EQeq! by Chris Wilmer'
_symmetry_space_group_name_H-M	'P1'
_symmetry_Int_Tables_number	1
_symmetry_cell_setting	triclinic
loop_
_symmetry_equiv_pos_as_xyz
  x,y,z
_cell_length_a	10.3912
_cell_length_b	11.3371
_cell_length_c	12.8168
_cell_angle_alpha	106.322
_cell_angle_beta	98.73
_cell_angle_gamma	103.042
loop_
_atom_site_label
_atom_site_type_symbol
_atom_site_fract_x
_atom_site_fract_y
_atom_site_fract_z
_atom_site_charge
Mof_Eu	Eu	0.47839	0.445	0.33609	2.408
Mof_C 	C 	0.4889	0.2279	0.1663	0.306
Mof_C 	C 	0.4944	0.1092	0.0799	-0.105
Mof_C 	C 	0.3813	0.0369	0.996	-0.093
Mof_H 	H 	0.3011	0.0606	0.9937	0.08
Mof_C 	C 	0.6128	0.0719	0.0855	0.113
Mof_C 	C 	0.2387	0.4536	0.4281	0.463
Mof_C 	C 	0.1141	0.4773	0.4639	-0.135
Mof_C 	C 	0.9871	0.4251	0.3887	0.119
Mof_C 	C 	0.126	0.5543	0.5738	-0.034
Mof_H 	H 	0.2113	0.592	0.622	0.053
Mof_C 	C 	0.4961	0.2544	0.4979	0.516
Mof_C 	C 	0.4962	0.1223	0.4983	-0.139
Mof_C 	C 	0.5453	0.1019	0.5986	-0.045
Mof_H 	H 	0.5758	0.1709	0.6648	0.066
Mof_C 	C 	0.4512	0.0169	0.3996	0.116
Mof_C 	C 	0.6353	0.6622	0.2264	0.156
Mof_H 	H 	0.7023	0.6705	0.1817	-0.01
Mof_H 	H 	0.6428	0.7471	0.2755	-0.008
Mof_C 	C 	0.4965	0.6069	0.1508	-0.109
Mof_C 	C 	0.4584	0.6545	0.0631	0.308
Mof_C 	C 	0.3332	0.6035	0.9971	-0.257
Mof_H 	H 	0.3094	0.6345	0.9392	0.136
Mof_C 	C 	0.2392	0.507	0.012	0.051
Mof_H 	H 	0.1517	0.4723	0.9671	0.021
Mof_C 	C 	0.2855	0.4632	0.1026	-0.005
Mof_H 	H 	0.2254	0.397	0.1151	0.033
Mof_C 	C 	0.54	0.758	0.0287	-0.852
Mof_H 	H 	0.6262	0.7974	0.0806	0.291
Mof_H 	H 	0.4919	0.8212	0.0282	0.303
Mof_H 	H 	0.5528	0.7216	0.9553	0.289
Mof_N 	N 	0.712	0.108	0.171	-0.106
Mof_N 	N 	0.9678	0.3535	0.2785	-0.094
Mof_N 	N 	0.382	0.024	0.2963	-0.097
Mof_N 	N 	0.4083	0.5118	0.1683	-0.212
Mof_O 	O 	0.3746	0.2464	0.1744	-0.443
Mof_O 	O 	0.5965	0.3066	0.2287	-0.446
Mof_O 	O 	0.2376	0.411	0.3261	-0.494
Mof_O 	O 	0.3465	0.4788	0.5023	-0.664
Mof_O 	O 	0.4601	0.271	0.407	-0.543
Mof_O 	O 	0.5327	0.3407	0.5917	-0.555
Mof_O 	O 	0.6623	0.5887	0.2885	-0.384
Mof_Eu	Eu	0.52161	0.555	0.66391	2.409
Mof_C 	C 	0.5111	0.7721	0.8337	0.307
Mof_C 	C 	0.5056	0.8908	0.9201	-0.104
Mof_C 	C 	0.6187	0.9631	0.004	-0.092
Mof_H 	H 	0.6989	0.9394	0.0063	0.08
Mof_C 	C 	0.3872	0.9281	0.9145	0.113
Mof_C 	C 	0.7613	0.5464	0.5719	0.463
Mof_C 	C 	0.8859	0.5227	0.5361	-0.135
Mof_C 	C 	0.0129	0.5749	0.6113	0.119
Mof_C 	C 	0.874	0.4457	0.4262	-0.034
Mof_H 	H 	0.7887	0.408	0.378	0.053
Mof_C 	C 	0.5039	0.7456	0.5021	0.516
Mof_C 	C 	0.5038	0.8777	0.5017	-0.139
Mof_C 	C 	0.4547	0.8981	0.4014	-0.045
Mof_H 	H 	0.4242	0.8291	0.3352	0.066
Mof_C 	C 	0.5488	0.9831	0.6004	0.116
Mof_C 	C 	0.3647	0.3378	0.7736	0.156
Mof_H 	H 	0.2977	0.3295	0.8183	-0.01
Mof_H 	H 	0.3572	0.2529	0.7245	-0.008
Mof_C 	C 	0.5035	0.3931	0.8492	-0.109
Mof_C 	C 	0.5416	0.3455	0.9369	0.308
Mof_C 	C 	0.6668	0.3965	0.0029	-0.257
Mof_H 	H 	0.6906	0.3655	0.0608	0.136
Mof_C 	C 	0.7608	0.493	0.988	0.051
Mof_H 	H 	0.8483	0.5277	0.0329	0.021
Mof_C 	C 	0.7145	0.5368	0.8974	-0.005
Mof_H 	H 	0.7746	0.603	0.8849	0.033
Mof_C 	C 	0.46	0.242	0.9713	-0.852
Mof_H 	H 	0.3738	0.2026	0.9194	0.291
Mof_H 	H 	0.5081	0.1788	0.9718	0.303
Mof_H 	H 	0.4472	0.2784	0.0447	0.289
Mof_N 	N 	0.288	0.892	0.829	-0.106
Mof_N 	N 	0.0322	0.6465	0.7215	-0.094
Mof_N 	N 	0.618	0.976	0.7037	-0.097
Mof_N 	N 	0.5917	0.4882	0.8317	-0.212
Mof_O 	O 	0.6254	0.7536	0.8256	-0.443
Mof_O 	O 	0.4035	0.6934	0.7713	-0.446
Mof_O 	O 	0.7624	0.589	0.6739	-0.494
Mof_O 	O 	0.6535	0.5212	0.4977	-0.664
Mof_O 	O 	0.5399	0.729	0.593	-0.543
Mof_O 	O 	0.4673	0.6593	0.4083	-0.555
Mof_O 	O 	0.3377	0.4113	0.7115	-0.384
_end
