data_functionalizedCrystal
_audit_creation_method	'EQeq! by Chris Wilmer'
_symmetry_space_group_name_H-M	'P1'
_symmetry_Int_Tables_number	1
_symmetry_cell_setting	triclinic
loop_
_symmetry_equiv_pos_as_xyz
  x,y,z
_cell_length_a	21.4551
_cell_length_b	21.4551
_cell_length_c	34.1708
_cell_angle_alpha	90
_cell_angle_beta	90
_cell_angle_gamma	120
loop_
_atom_site_label
_atom_site_type_symbol
_atom_site_fract_x
_atom_site_fract_y
_atom_site_fract_z
_atom_site_charge
Mof_W 	W 	0.29337	0.73113	0.06796	0.976
Mof_W 	W 	0.15774	0.5182	0.97825	1.012
Mof_W 	W 	0.29122	0.72878	0.77959	0.999
Mof_W 	W 	0.15721	0.51871	0.86833	1.026
Mof_W 	W 	0.17853	0.68362	0.97969	1.046
Mof_W 	W 	0.17939	0.68447	0.86934	1.285
Mof_N 	N 	0.2777	0.9078	0.7135	-0.268
Mof_N 	N 	0.2018	0.8512	0.7824	-0.23
Mof_O 	O 	0.1468	0.5227	0.9239	-0.451
Mof_O 	O 	0.1204	0.5813	0.9869	-0.45
Mof_O 	O 	0.1215	0.5834	0.8613	-0.465
Mof_O 	O 	0.2261	0.4895	0.8787	-0.489
Mof_O 	O 	0.2542	0.6357	0.8787	-0.35
Mof_O 	O 	0.1652	0.6719	0.924	-0.459
Mof_O 	O 	0.2549	0.6353	0.969	-0.33
Mof_O 	O 	0.2144	0.6932	0.0316	-0.463
Mof_O 	O 	0.2504	0.6326	0.7582	-0.453
Mof_O 	O 	0.227	0.4888	0.9693	-0.456
Mof_O 	O 	0.2154	0.6938	0.8158	-0.473
Mof_O 	O 	0.3429	0.8054	0.0312	-0.466
Mof_O 	O 	0.2517	0.6349	0.0905	-0.432
Mof_O 	O 	0.1171	0.7115	0.8585	-0.492
Mof_O 	O 	0.1937	0.5373	0.8155	-0.452
Mof_C 	C 	0.3082	0.9256	0.7486	-0.018
Mof_H 	H 	0.3575	0.9574	0.75	-0.024
Mof_C 	C 	0.2089	0.8629	0.7129	-0.002
Mof_H 	H 	0.1847	0.85	0.6891	-0.038
Mof_C 	C 	0.2715	0.8998	0.7822	-0.009
Mof_H 	H 	0.2955	0.9165	0.8059	-0.025
Mof_C 	C 	0.1716	0.8343	0.747	-0.004
Mof_H 	H 	0.1226	0.8012	0.7453	0.005
Mof_W 	W 	0.96004	0.06446	0.40129	0.995
Mof_W 	W 	0.82441	0.85153	0.31158	1.008
Mof_W 	W 	0.95789	0.06211	0.11292	1.014
Mof_W 	W 	0.82388	0.85204	0.20166	1.031
Mof_W 	W 	0.8452	0.01695	0.31302	1.017
Mof_W 	W 	0.84606	0.0178	0.20267	1.265
Mof_N 	N 	0.94437	0.24113	0.04683	-0.273
Mof_N 	N 	0.86847	0.18453	0.11573	-0.225
Mof_O 	O 	0.81347	0.85603	0.25723	-0.446
Mof_O 	O 	0.78707	0.91463	0.32023	-0.438
Mof_O 	O 	0.78817	0.91673	0.19463	-0.451
Mof_O 	O 	0.89277	0.82283	0.21203	-0.491
Mof_O 	O 	0.92087	0.96903	0.21203	-0.32
Mof_O 	O 	0.83187	0.00523	0.25733	-0.46
Mof_O 	O 	0.92157	0.96863	0.30233	-0.301
Mof_O 	O 	0.88107	0.02653	0.36493	-0.458
Mof_O 	O 	0.91707	0.96593	0.09153	-0.441
Mof_O 	O 	0.89367	0.82213	0.30263	-0.457
Mof_O 	O 	0.88207	0.02713	0.14913	-0.476
Mof_O 	O 	0.00957	0.13873	0.36453	-0.47
Mof_O 	O 	0.91837	0.96823	0.42383	-0.418
Mof_O 	O 	0.78377	0.04483	0.19183	-0.491
Mof_O 	O 	0.86037	0.87063	0.14883	-0.451
Mof_C 	C 	0.97487	0.25893	0.08193	0.027
Mof_H 	H 	0.02417	0.29073	0.08333	-0.058
Mof_C 	C 	0.87557	0.19623	0.04623	0.001
Mof_H 	H 	0.85137	0.18333	0.02243	-0.042
Mof_C 	C 	0.93817	0.23313	0.11553	-0.033
Mof_H 	H 	0.96217	0.24983	0.13923	-0.013
Mof_C 	C 	0.83827	0.16763	0.08033	-0.01
Mof_H 	H 	0.78927	0.13453	0.07863	0.005
Mof_W 	W 	0.6267	0.3978	0.73463	0.977
Mof_W 	W 	0.49107	0.18487	0.64492	1
Mof_W 	W 	0.62455	0.39545	0.44626	1
Mof_W 	W 	0.49054	0.18538	0.535	1.024
Mof_W 	W 	0.51186	0.35029	0.64636	1.038
Mof_W 	W 	0.51272	0.35114	0.53601	1.286
Mof_N 	N 	0.61103	0.57447	0.38017	-0.268
Mof_N 	N 	0.53513	0.51787	0.44907	-0.229
Mof_O 	O 	0.48013	0.18937	0.59057	-0.449
Mof_O 	O 	0.45373	0.24797	0.65357	-0.45
Mof_O 	O 	0.45483	0.25007	0.52797	-0.463
Mof_O 	O 	0.55943	0.15617	0.54537	-0.491
Mof_O 	O 	0.58753	0.30237	0.54537	-0.349
Mof_O 	O 	0.49853	0.33857	0.59067	-0.457
Mof_O 	O 	0.58823	0.30197	0.63567	-0.33
Mof_O 	O 	0.54773	0.35987	0.69827	-0.454
Mof_O 	O 	0.58373	0.29927	0.42487	-0.452
Mof_O 	O 	0.56033	0.15547	0.63597	-0.458
Mof_O 	O 	0.54873	0.36047	0.48247	-0.473
Mof_O 	O 	0.67623	0.47207	0.69787	-0.459
Mof_O 	O 	0.58503	0.30157	0.75717	-0.43
Mof_O 	O 	0.45043	0.37817	0.52517	-0.49
Mof_O 	O 	0.52703	0.20397	0.48217	-0.452
Mof_C 	C 	0.64153	0.59227	0.41527	-0.02
Mof_H 	H 	0.69083	0.62407	0.41667	-0.027
Mof_C 	C 	0.54223	0.52957	0.37957	-0.003
Mof_H 	H 	0.51803	0.51667	0.35577	-0.038
Mof_C 	C 	0.60483	0.56647	0.44887	-0.01
Mof_H 	H 	0.62883	0.58317	0.47257	-0.026
Mof_C 	C 	0.50493	0.50097	0.41367	-0.005
Mof_H 	H 	0.45593	0.46787	0.41197	0.006
Mof_W 	W 	0.26887	0.56224	0.06796	0.975
Mof_W 	W 	0.4818	0.63954	0.97825	1.018
Mof_W 	W 	0.27122	0.56244	0.77959	1
Mof_W 	W 	0.48129	0.6385	0.86833	1.03
Mof_W 	W 	0.31638	0.49491	0.97969	1.05
Mof_W 	W 	0.31553	0.49492	0.86934	1.287
Mof_N 	N 	0.0922	0.3699	0.7135	-0.27
Mof_N 	N 	0.1488	0.3506	0.7824	-0.23
Mof_O 	O 	0.4773	0.6241	0.9239	-0.449
Mof_O 	O 	0.4187	0.5391	0.9869	-0.447
Mof_O 	O 	0.4166	0.5381	0.8613	-0.462
Mof_O 	O 	0.5105	0.7366	0.8787	-0.49
Mof_O 	O 	0.3643	0.6185	0.8787	-0.35
Mof_O 	O 	0.3281	0.4933	0.924	-0.458
Mof_O 	O 	0.3647	0.6196	0.969	-0.331
Mof_O 	O 	0.3068	0.5212	0.0316	-0.462
Mof_O 	O 	0.3674	0.6178	0.7582	-0.452
Mof_O 	O 	0.5112	0.7382	0.9693	-0.456
Mof_O 	O 	0.3062	0.5216	0.8158	-0.473
Mof_O 	O 	0.1946	0.5375	0.0312	-0.468
Mof_O 	O 	0.3651	0.6168	0.0905	-0.431
Mof_O 	O 	0.2885	0.4056	0.8585	-0.49
Mof_O 	O 	0.4627	0.6564	0.8155	-0.452
Mof_C 	C 	0.0744	0.3826	0.7486	-0.021
Mof_H 	H 	0.0426	0.4001	0.75	-0.032
Mof_C 	C 	0.1371	0.346	0.7129	-0.004
Mof_H 	H 	0.15	0.3347	0.6891	-0.039
Mof_C 	C 	0.1002	0.3717	0.7822	-0.012
Mof_H 	H 	0.0835	0.379	0.8059	-0.028
Mof_C 	C 	0.1657	0.3373	0.747	-0.006
Mof_H 	H 	0.1988	0.3214	0.7453	0.006
Mof_W 	W 	0.93554	0.89557	0.40129	1.002
Mof_W 	W 	0.14847	0.97287	0.31158	1.025
Mof_W 	W 	0.93789	0.89577	0.11292	1.022
Mof_W 	W 	0.14796	0.97183	0.20166	1.049
Mof_W 	W 	0.98305	0.82824	0.31302	1.06
Mof_W 	W 	0.9822	0.82825	0.20267	1.307
Mof_N 	N 	0.75887	0.70323	0.04683	-0.269
Mof_N 	N 	0.81547	0.68393	0.11573	-0.229
Mof_O 	O 	0.14397	0.95743	0.25723	-0.448
Mof_O 	O 	0.08537	0.87243	0.32023	-0.462
Mof_O 	O 	0.08327	0.87143	0.19463	-0.476
Mof_O 	O 	0.17717	0.06993	0.21203	-0.501
Mof_O 	O 	0.03097	0.95183	0.21203	-0.343
Mof_O 	O 	0.99477	0.82663	0.25733	-0.454
Mof_O 	O 	0.03137	0.95293	0.30233	-0.324
Mof_O 	O 	0.97347	0.85453	0.36493	-0.45
Mof_O 	O 	0.03407	0.95113	0.09153	-0.451
Mof_O 	O 	0.17787	0.07153	0.30263	-0.467
Mof_O 	O 	0.97287	0.85493	0.14913	-0.469
Mof_O 	O 	0.86127	0.87083	0.36453	-0.459
Mof_O 	O 	0.03177	0.95013	0.42383	-0.43
Mof_O 	O 	0.95517	0.73893	0.19183	-0.489
Mof_O 	O 	0.12937	0.98973	0.14883	-0.439
Mof_C 	C 	0.74107	0.71593	0.08193	-0.02
Mof_H 	H 	0.70927	0.73343	0.08333	-0.028
Mof_C 	C 	0.80377	0.67933	0.04623	-0.002
Mof_H 	H 	0.81667	0.66803	0.02243	-0.039
Mof_C 	C 	0.76687	0.70503	0.11553	-0.011
Mof_H 	H 	0.75017	0.71233	0.13923	-0.026
Mof_C 	C 	0.83237	0.67063	0.08033	-0.006
Mof_H 	H 	0.86547	0.65473	0.07863	0.007
Mof_W 	W 	0.6022	0.22891	0.73463	0.973
Mof_W 	W 	0.81513	0.30621	0.64492	1.011
Mof_W 	W 	0.60455	0.22911	0.44626	0.999
Mof_W 	W 	0.81462	0.30517	0.535	1.033
Mof_W 	W 	0.64971	0.16158	0.64636	1.033
Mof_W 	W 	0.64886	0.16159	0.53601	1.286
Mof_N 	N 	0.42553	0.03657	0.38017	-0.275
Mof_N 	N 	0.48213	0.01727	0.44907	-0.225
Mof_O 	O 	0.81063	0.29077	0.59057	-0.447
Mof_O 	O 	0.75203	0.20577	0.65357	-0.45
Mof_O 	O 	0.74993	0.20477	0.52797	-0.463
Mof_O 	O 	0.84383	0.40327	0.54537	-0.487
Mof_O 	O 	0.69763	0.28517	0.54537	-0.35
Mof_O 	O 	0.66143	0.15997	0.59067	-0.457
Mof_O 	O 	0.69803	0.28627	0.63567	-0.33
Mof_O 	O 	0.64013	0.18787	0.69827	-0.455
Mof_O 	O 	0.70073	0.28447	0.42487	-0.452
Mof_O 	O 	0.84453	0.40487	0.63597	-0.454
Mof_O 	O 	0.63953	0.18827	0.48247	-0.473
Mof_O 	O 	0.52793	0.20417	0.69787	-0.46
Mof_O 	O 	0.69843	0.28347	0.75717	-0.43
Mof_O 	O 	0.62183	0.07227	0.52517	-0.495
Mof_O 	O 	0.79603	0.32307	0.48217	-0.452
Mof_C 	C 	0.40773	0.04927	0.41527	-0.018
Mof_H 	H 	0.37593	0.06677	0.41667	-0.031
Mof_C 	C 	0.47043	0.01267	0.37957	0.018
Mof_H 	H 	0.48333	0.00137	0.35577	-0.052
Mof_C 	C 	0.43353	0.03837	0.44887	-0.015
Mof_H 	H 	0.41683	0.04567	0.47257	-0.029
Mof_C 	C 	0.49903	0.00397	0.41367	-0.053
Mof_H 	H 	0.53213	0.98807	0.41197	0.036
Mof_W 	W 	0.43776	0.70663	0.06796	0.978
Mof_W 	W 	0.36046	0.84226	0.97825	1.021
Mof_W 	W 	0.43756	0.70878	0.77959	1
Mof_W 	W 	0.3615	0.84279	0.86833	1.032
Mof_W 	W 	0.50509	0.82147	0.97969	1.053
Mof_W 	W 	0.50508	0.82061	0.86934	1.287
Mof_N 	N 	0.6301	0.7223	0.7135	-0.268
Mof_N 	N 	0.6494	0.7982	0.7824	-0.229
Mof_O 	O 	0.3759	0.8532	0.9239	-0.448
Mof_O 	O 	0.4609	0.8796	0.9869	-0.444
Mof_O 	O 	0.4619	0.8785	0.8613	-0.46
Mof_O 	O 	0.2634	0.7739	0.8787	-0.49
Mof_O 	O 	0.3815	0.7458	0.8787	-0.35
Mof_O 	O 	0.5067	0.8348	0.924	-0.457
Mof_O 	O 	0.3804	0.7451	0.969	-0.331
Mof_O 	O 	0.4788	0.7856	0.0316	-0.461
Mof_O 	O 	0.3822	0.7496	0.7582	-0.451
Mof_O 	O 	0.2618	0.773	0.9693	-0.456
Mof_O 	O 	0.4784	0.7846	0.8158	-0.472
Mof_O 	O 	0.4625	0.6571	0.0312	-0.467
Mof_O 	O 	0.3832	0.7483	0.0905	-0.429
Mof_O 	O 	0.5944	0.8829	0.8585	-0.487
Mof_O 	O 	0.3436	0.8063	0.8155	-0.452
Mof_C 	C 	0.6174	0.6918	0.7486	-0.019
Mof_H 	H 	0.5999	0.6425	0.75	-0.028
Mof_C 	C 	0.654	0.7911	0.7129	-0.002
Mof_H 	H 	0.6653	0.8153	0.6891	-0.038
Mof_C 	C 	0.6283	0.7285	0.7822	-0.01
Mof_H 	H 	0.621	0.7045	0.8059	-0.026
Mof_C 	C 	0.6627	0.8284	0.747	-0.005
Mof_H 	H 	0.6786	0.8774	0.7453	0.007
Mof_W 	W 	0.10443	0.03996	0.40129	0.947
Mof_W 	W 	0.02713	0.17559	0.31158	0.985
Mof_W 	W 	0.10423	0.04211	0.11292	0.969
Mof_W 	W 	0.02817	0.17612	0.20166	1.008
Mof_W 	W 	0.17176	0.1548	0.31302	1.036
Mof_W 	W 	0.17175	0.15394	0.20267	1.285
Mof_N 	N 	0.29677	0.05563	0.04683	-0.263
Mof_N 	N 	0.31607	0.13153	0.11573	-0.235
Mof_O 	O 	0.04257	0.18653	0.25723	-0.449
Mof_O 	O 	0.12757	0.21293	0.32023	-0.447
Mof_O 	O 	0.12857	0.21183	0.19463	-0.461
Mof_O 	O 	0.93007	0.10723	0.21203	-0.475
Mof_O 	O 	0.04817	0.07913	0.21203	-0.349
Mof_O 	O 	0.17337	0.16813	0.25733	-0.457
Mof_O 	O 	0.04707	0.07843	0.30233	-0.329
Mof_O 	O 	0.14547	0.11893	0.36493	-0.453
Mof_O 	O 	0.04887	0.08293	0.09153	-0.464
Mof_O 	O 	0.92847	0.10633	0.30263	-0.442
Mof_O 	O 	0.14507	0.11793	0.14913	-0.471
Mof_O 	O 	0.12917	0.99043	0.36453	-0.447
Mof_O 	O 	0.04987	0.08163	0.42383	-0.442
Mof_O 	O 	0.26107	0.21623	0.19183	-0.49
Mof_O 	O 	0.01027	0.13963	0.14883	-0.462
Mof_C 	C 	0.28407	0.02513	0.08193	-0.071
Mof_H 	H 	0.26657	0.97583	0.08333	0.003
Mof_C 	C 	0.32067	0.12443	0.04623	-0.007
Mof_H 	H 	0.33197	0.14863	0.02243	-0.041
Mof_C 	C 	0.29497	0.06183	0.11553	0.014
Mof_H 	H 	0.28767	0.03783	0.13923	-0.042
Mof_C 	C 	0.32937	0.16173	0.08033	-0.002
Mof_H 	H 	0.34527	0.21073	0.07863	0.004
Mof_W 	W 	0.77109	0.3733	0.73463	0.981
Mof_W 	W 	0.69379	0.50893	0.64492	1.006
Mof_W 	W 	0.77089	0.37545	0.44626	1.001
Mof_W 	W 	0.69483	0.50946	0.535	1.03
Mof_W 	W 	0.83842	0.48814	0.64636	1.044
Mof_W 	W 	0.83841	0.48728	0.53601	1.287
Mof_N 	N 	0.96343	0.38897	0.38017	-0.262
Mof_N 	N 	0.98273	0.46487	0.44907	-0.232
Mof_O 	O 	0.70923	0.51987	0.59057	-0.447
Mof_O 	O 	0.79423	0.54627	0.65357	-0.448
Mof_O 	O 	0.79523	0.54517	0.52797	-0.461
Mof_O 	O 	0.59673	0.44057	0.54537	-0.489
Mof_O 	O 	0.71483	0.41247	0.54537	-0.35
Mof_O 	O 	0.84003	0.50147	0.59067	-0.456
Mof_O 	O 	0.71373	0.41177	0.63567	-0.331
Mof_O 	O 	0.81213	0.45227	0.69827	-0.453
Mof_O 	O 	0.71553	0.41627	0.42487	-0.451
Mof_O 	O 	0.59513	0.43967	0.63597	-0.456
Mof_O 	O 	0.81173	0.45127	0.48247	-0.472
Mof_O 	O 	0.79583	0.32377	0.69787	-0.459
Mof_O 	O 	0.71653	0.41497	0.75717	-0.429
Mof_O 	O 	0.92773	0.54957	0.52517	-0.482
Mof_O 	O 	0.67693	0.47297	0.48217	-0.452
Mof_C 	C 	0.95073	0.35847	0.41527	-0.021
Mof_H 	H 	0.93323	0.30917	0.41667	-0.025
Mof_C 	C 	0.98733	0.45777	0.37957	-0.022
Mof_H 	H 	0.99863	0.48197	0.35577	-0.025
Mof_C 	C 	0.96163	0.39517	0.44887	-0.006
Mof_H 	H 	0.95433	0.37117	0.47257	-0.023
Mof_C 	C 	0.99603	0.49507	0.41367	0.041
Mof_H 	H 	0.01193	0.54407	0.41197	-0.023
Mof_W 	W 	0.73113	0.29337	0.93204	0.978
Mof_W 	W 	0.5182	0.15774	0.02175	0.989
Mof_W 	W 	0.72878	0.29122	0.22041	1
Mof_W 	W 	0.51871	0.15721	0.13167	1.025
Mof_W 	W 	0.68362	0.17853	0.02031	1.022
Mof_W 	W 	0.68447	0.17939	0.13066	1.285
Mof_N 	N 	0.9078	0.2777	0.2865	-0.267
Mof_N 	N 	0.8512	0.2018	0.2176	-0.229
Mof_O 	O 	0.5227	0.1468	0.0761	-0.447
Mof_O 	O 	0.5813	0.1204	0.0131	-0.454
Mof_O 	O 	0.5834	0.1215	0.1387	-0.465
Mof_O 	O 	0.4895	0.2261	0.1213	-0.489
Mof_O 	O 	0.6357	0.2542	0.1213	-0.349
Mof_O 	O 	0.6719	0.1652	0.076	-0.456
Mof_O 	O 	0.6353	0.2549	0.031	-0.33
Mof_O 	O 	0.6932	0.2144	0.9684	-0.446
Mof_O 	O 	0.6326	0.2504	0.2418	-0.453
Mof_O 	O 	0.4888	0.227	0.0307	-0.456
Mof_O 	O 	0.6938	0.2154	0.1842	-0.473
Mof_O 	O 	0.8054	0.3429	0.9688	-0.449
Mof_O 	O 	0.6349	0.2517	0.9095	-0.431
Mof_O 	O 	0.7115	0.1171	0.1415	-0.493
Mof_O 	O 	0.5373	0.1937	0.1845	-0.452
Mof_C 	C 	0.9256	0.3082	0.2514	-0.018
Mof_H 	H 	0.9574	0.3575	0.25	-0.024
Mof_C 	C 	0.8629	0.2089	0.2871	-0.002
Mof_H 	H 	0.85	0.1847	0.3109	-0.038
Mof_C 	C 	0.8998	0.2715	0.2178	-0.009
Mof_H 	H 	0.9165	0.2955	0.1941	-0.025
Mof_C 	C 	0.8343	0.1716	0.253	-0.004
Mof_H 	H 	0.8012	0.1226	0.2547	0.005
Mof_W 	W 	0.3978	0.6267	0.26537	0.977
Mof_W 	W 	0.18487	0.49107	0.35508	0.999
Mof_W 	W 	0.39545	0.62455	0.55374	1
Mof_W 	W 	0.18538	0.49054	0.465	1.024
Mof_W 	W 	0.35029	0.51186	0.35364	1.038
Mof_W 	W 	0.35114	0.51272	0.46399	1.286
Mof_N 	N 	0.57447	0.61103	0.61983	-0.268
Mof_N 	N 	0.51787	0.53513	0.55093	-0.229
Mof_O 	O 	0.18937	0.48013	0.40943	-0.449
Mof_O 	O 	0.24797	0.45373	0.34643	-0.45
Mof_O 	O 	0.25007	0.45483	0.47203	-0.463
Mof_O 	O 	0.15617	0.55943	0.45463	-0.491
Mof_O 	O 	0.30237	0.58753	0.45463	-0.349
Mof_O 	O 	0.33857	0.49853	0.40933	-0.457
Mof_O 	O 	0.30197	0.58823	0.36433	-0.33
Mof_O 	O 	0.35987	0.54773	0.30173	-0.454
Mof_O 	O 	0.29927	0.58373	0.57513	-0.452
Mof_O 	O 	0.15547	0.56033	0.36403	-0.458
Mof_O 	O 	0.36047	0.54873	0.51753	-0.473
Mof_O 	O 	0.47207	0.67623	0.30213	-0.459
Mof_O 	O 	0.30157	0.58503	0.24283	-0.43
Mof_O 	O 	0.37817	0.45043	0.47483	-0.49
Mof_O 	O 	0.20397	0.52703	0.51783	-0.452
Mof_C 	C 	0.59227	0.64153	0.58473	-0.02
Mof_H 	H 	0.62407	0.69083	0.58333	-0.027
Mof_C 	C 	0.52957	0.54223	0.62043	-0.003
Mof_H 	H 	0.51667	0.51803	0.64423	-0.038
Mof_C 	C 	0.56647	0.60483	0.55113	-0.01
Mof_H 	H 	0.58317	0.62883	0.52743	-0.026
Mof_C 	C 	0.50097	0.50493	0.58633	-0.005
Mof_H 	H 	0.46787	0.45593	0.58803	0.006
Mof_W 	W 	0.06446	0.96004	0.59871	0.994
Mof_W 	W 	0.85153	0.82441	0.68842	1.008
Mof_W 	W 	0.06211	0.95789	0.88708	1.016
Mof_W 	W 	0.85204	0.82388	0.79834	1.031
Mof_W 	W 	0.01695	0.8452	0.68698	1.016
Mof_W 	W 	0.0178	0.84606	0.79733	1.264
Mof_N 	N 	0.24113	0.94437	0.95317	-0.269
Mof_N 	N 	0.18453	0.86847	0.88427	-0.225
Mof_O 	O 	0.85603	0.81347	0.74277	-0.446
Mof_O 	O 	0.91463	0.78707	0.67977	-0.438
Mof_O 	O 	0.91673	0.78817	0.80537	-0.45
Mof_O 	O 	0.82283	0.89277	0.78797	-0.491
Mof_O 	O 	0.96903	0.92087	0.78797	-0.32
Mof_O 	O 	0.00523	0.83187	0.74267	-0.46
Mof_O 	O 	0.96863	0.92157	0.69767	-0.301
Mof_O 	O 	0.02653	0.88107	0.63507	-0.458
Mof_O 	O 	0.96593	0.91707	0.90847	-0.438
Mof_O 	O 	0.82213	0.89367	0.69737	-0.457
Mof_O 	O 	0.02713	0.88207	0.85087	-0.476
Mof_O 	O 	0.13873	0.00957	0.63547	-0.469
Mof_O 	O 	0.96823	0.91837	0.57617	-0.418
Mof_O 	O 	0.04483	0.78377	0.80817	-0.49
Mof_O 	O 	0.87063	0.86037	0.85117	-0.451
Mof_C 	C 	0.25893	0.97487	0.91807	0.025
Mof_H 	H 	0.29073	0.02417	0.91667	-0.053
Mof_C 	C 	0.19623	0.87557	0.95377	0
Mof_H 	H 	0.18333	0.85137	0.97757	-0.036
Mof_C 	C 	0.23313	0.93817	0.88447	-0.031
Mof_H 	H 	0.24983	0.96217	0.86077	-0.013
Mof_C 	C 	0.16763	0.83827	0.91967	-0.008
Mof_H 	H 	0.13453	0.78927	0.92137	0.006
Mof_W 	W 	0.56224	0.26887	0.93204	0.975
Mof_W 	W 	0.63954	0.4818	0.02175	0.994
Mof_W 	W 	0.56244	0.27122	0.22041	1
Mof_W 	W 	0.6385	0.48129	0.13167	1.028
Mof_W 	W 	0.49491	0.31638	0.02031	1.025
Mof_W 	W 	0.49492	0.31553	0.13066	1.286
Mof_N 	N 	0.3699	0.0922	0.2865	-0.27
Mof_N 	N 	0.3506	0.1488	0.2176	-0.23
Mof_O 	O 	0.6241	0.4773	0.0761	-0.446
Mof_O 	O 	0.5391	0.4187	0.0131	-0.451
Mof_O 	O 	0.5381	0.4166	0.1387	-0.463
Mof_O 	O 	0.7366	0.5105	0.1213	-0.489
Mof_O 	O 	0.6185	0.3643	0.1213	-0.349
Mof_O 	O 	0.4933	0.3281	0.076	-0.455
Mof_O 	O 	0.6196	0.3647	0.031	-0.33
Mof_O 	O 	0.5212	0.3068	0.9684	-0.445
Mof_O 	O 	0.6178	0.3674	0.2418	-0.452
Mof_O 	O 	0.7382	0.5112	0.0307	-0.456
Mof_O 	O 	0.5216	0.3062	0.1842	-0.473
Mof_O 	O 	0.5375	0.1946	0.9688	-0.451
Mof_O 	O 	0.6168	0.3651	0.9095	-0.43
Mof_O 	O 	0.4056	0.2885	0.1415	-0.49
Mof_O 	O 	0.6564	0.4627	0.1845	-0.452
Mof_C 	C 	0.3826	0.0744	0.2514	-0.021
Mof_H 	H 	0.4001	0.0426	0.25	-0.032
Mof_C 	C 	0.346	0.1371	0.2871	-0.004
Mof_H 	H 	0.3347	0.15	0.3109	-0.039
Mof_C 	C 	0.3717	0.1002	0.2178	-0.012
Mof_H 	H 	0.379	0.0835	0.1941	-0.028
Mof_C 	C 	0.3373	0.1657	0.253	-0.006
Mof_H 	H 	0.3214	0.1988	0.2547	0.006
Mof_W 	W 	0.22891	0.6022	0.26537	0.972
Mof_W 	W 	0.30621	0.81513	0.35508	1.011
Mof_W 	W 	0.22911	0.60455	0.55374	0.999
Mof_W 	W 	0.30517	0.81462	0.465	1.033
Mof_W 	W 	0.16158	0.64971	0.35364	1.033
Mof_W 	W 	0.16159	0.64886	0.46399	1.286
Mof_N 	N 	0.03657	0.42553	0.61983	-0.275
Mof_N 	N 	0.01727	0.48213	0.55093	-0.225
Mof_O 	O 	0.29077	0.81063	0.40943	-0.447
Mof_O 	O 	0.20577	0.75203	0.34643	-0.45
Mof_O 	O 	0.20477	0.74993	0.47203	-0.463
Mof_O 	O 	0.40327	0.84383	0.45463	-0.487
Mof_O 	O 	0.28517	0.69763	0.45463	-0.35
Mof_O 	O 	0.15997	0.66143	0.40933	-0.457
Mof_O 	O 	0.28627	0.69803	0.36433	-0.33
Mof_O 	O 	0.18787	0.64013	0.30173	-0.455
Mof_O 	O 	0.28447	0.70073	0.57513	-0.452
Mof_O 	O 	0.40487	0.84453	0.36403	-0.454
Mof_O 	O 	0.18827	0.63953	0.51753	-0.473
Mof_O 	O 	0.20417	0.52793	0.30213	-0.46
Mof_O 	O 	0.28347	0.69843	0.24283	-0.43
Mof_O 	O 	0.07227	0.62183	0.47483	-0.495
Mof_O 	O 	0.32307	0.79603	0.51783	-0.452
Mof_C 	C 	0.04927	0.40773	0.58473	-0.018
Mof_H 	H 	0.06677	0.37593	0.58333	-0.031
Mof_C 	C 	0.01267	0.47043	0.62043	0.018
Mof_H 	H 	0.00137	0.48333	0.64423	-0.052
Mof_C 	C 	0.03837	0.43353	0.55113	-0.015
Mof_H 	H 	0.04567	0.41683	0.52743	-0.029
Mof_C 	C 	0.00397	0.49903	0.58633	-0.054
Mof_H 	H 	0.98807	0.53213	0.58803	0.037
Mof_W 	W 	0.89557	0.93554	0.59871	1.001
Mof_W 	W 	0.97287	0.14847	0.68842	1.025
Mof_W 	W 	0.89577	0.93789	0.88708	1.025
Mof_W 	W 	0.97183	0.14796	0.79834	1.05
Mof_W 	W 	0.82824	0.98305	0.68698	1.059
Mof_W 	W 	0.82825	0.9822	0.79733	1.306
Mof_N 	N 	0.70323	0.75887	0.95317	-0.265
Mof_N 	N 	0.68393	0.81547	0.88427	-0.229
Mof_O 	O 	0.95743	0.14397	0.74277	-0.448
Mof_O 	O 	0.87243	0.08537	0.67977	-0.462
Mof_O 	O 	0.87143	0.08327	0.80537	-0.475
Mof_O 	O 	0.06993	0.17717	0.78797	-0.501
Mof_O 	O 	0.95183	0.03097	0.78797	-0.343
Mof_O 	O 	0.82663	0.99477	0.74267	-0.454
Mof_O 	O 	0.95293	0.03137	0.69767	-0.324
Mof_O 	O 	0.85453	0.97347	0.63507	-0.45
Mof_O 	O 	0.95113	0.03407	0.90847	-0.448
Mof_O 	O 	0.07153	0.17787	0.69737	-0.468
Mof_O 	O 	0.85493	0.97287	0.85087	-0.469
Mof_O 	O 	0.87083	0.86127	0.63547	-0.459
Mof_O 	O 	0.95013	0.03177	0.57617	-0.429
Mof_O 	O 	0.73893	0.95517	0.80817	-0.489
Mof_O 	O 	0.98973	0.12937	0.85117	-0.439
Mof_C 	C 	0.71593	0.74107	0.91807	-0.019
Mof_H 	H 	0.73343	0.70927	0.91667	-0.025
Mof_C 	C 	0.67933	0.80377	0.95377	-0.002
Mof_H 	H 	0.66803	0.81667	0.97757	-0.033
Mof_C 	C 	0.70503	0.76687	0.88447	-0.01
Mof_H 	H 	0.71233	0.75017	0.86077	-0.026
Mof_C 	C 	0.67063	0.83237	0.91967	-0.004
Mof_H 	H 	0.65473	0.86547	0.92137	0.008
Mof_W 	W 	0.70663	0.43776	0.93204	0.979
Mof_W 	W 	0.84226	0.36046	0.02175	0.997
Mof_W 	W 	0.70878	0.43756	0.22041	1.001
Mof_W 	W 	0.84279	0.3615	0.13167	1.031
Mof_W 	W 	0.82147	0.50509	0.02031	1.029
Mof_W 	W 	0.82061	0.50508	0.13066	1.286
Mof_N 	N 	0.7223	0.6301	0.2865	-0.268
Mof_N 	N 	0.7982	0.6494	0.2176	-0.229
Mof_O 	O 	0.8532	0.3759	0.0761	-0.445
Mof_O 	O 	0.8796	0.4609	0.0131	-0.448
Mof_O 	O 	0.8785	0.4619	0.1387	-0.46
Mof_O 	O 	0.7739	0.2634	0.1213	-0.489
Mof_O 	O 	0.7458	0.3815	0.1213	-0.35
Mof_O 	O 	0.8348	0.5067	0.076	-0.454
Mof_O 	O 	0.7451	0.3804	0.031	-0.331
Mof_O 	O 	0.7856	0.4788	0.9684	-0.444
Mof_O 	O 	0.7496	0.3822	0.2418	-0.451
Mof_O 	O 	0.773	0.2618	0.0307	-0.456
Mof_O 	O 	0.7846	0.4784	0.1842	-0.472
Mof_O 	O 	0.6571	0.4625	0.9688	-0.451
Mof_O 	O 	0.7483	0.3832	0.9095	-0.428
Mof_O 	O 	0.8829	0.5944	0.1415	-0.487
Mof_O 	O 	0.8063	0.3436	0.1845	-0.452
Mof_C 	C 	0.6918	0.6174	0.2514	-0.019
Mof_H 	H 	0.6425	0.5999	0.25	-0.028
Mof_C 	C 	0.7911	0.654	0.2871	-0.002
Mof_H 	H 	0.8153	0.6653	0.3109	-0.038
Mof_C 	C 	0.7285	0.6283	0.2178	-0.01
Mof_H 	H 	0.7045	0.621	0.1941	-0.026
Mof_C 	C 	0.8284	0.6627	0.253	-0.005
Mof_H 	H 	0.8774	0.6786	0.2547	0.007
Mof_W 	W 	0.3733	0.77109	0.26537	0.981
Mof_W 	W 	0.50893	0.69379	0.35508	1.006
Mof_W 	W 	0.37545	0.77089	0.55374	1.001
Mof_W 	W 	0.50946	0.69483	0.465	1.03
Mof_W 	W 	0.48814	0.83842	0.35364	1.044
Mof_W 	W 	0.48728	0.83841	0.46399	1.287
Mof_N 	N 	0.38897	0.96343	0.61983	-0.262
Mof_N 	N 	0.46487	0.98273	0.55093	-0.232
Mof_O 	O 	0.51987	0.70923	0.40943	-0.447
Mof_O 	O 	0.54627	0.79423	0.34643	-0.448
Mof_O 	O 	0.54517	0.79523	0.47203	-0.461
Mof_O 	O 	0.44057	0.59673	0.45463	-0.489
Mof_O 	O 	0.41247	0.71483	0.45463	-0.35
Mof_O 	O 	0.50147	0.84003	0.40933	-0.456
Mof_O 	O 	0.41177	0.71373	0.36433	-0.331
Mof_O 	O 	0.45227	0.81213	0.30173	-0.453
Mof_O 	O 	0.41627	0.71553	0.57513	-0.451
Mof_O 	O 	0.43967	0.59513	0.36403	-0.456
Mof_O 	O 	0.45127	0.81173	0.51753	-0.472
Mof_O 	O 	0.32377	0.79583	0.30213	-0.459
Mof_O 	O 	0.41497	0.71653	0.24283	-0.429
Mof_O 	O 	0.54957	0.92773	0.47483	-0.482
Mof_O 	O 	0.47297	0.67693	0.51783	-0.452
Mof_C 	C 	0.35847	0.95073	0.58473	-0.021
Mof_H 	H 	0.30917	0.93323	0.58333	-0.025
Mof_C 	C 	0.45777	0.98733	0.62043	-0.022
Mof_H 	H 	0.48197	0.99863	0.64423	-0.025
Mof_C 	C 	0.39517	0.96163	0.55113	-0.006
Mof_H 	H 	0.37117	0.95433	0.52743	-0.023
Mof_C 	C 	0.49507	0.99603	0.58633	0.04
Mof_H 	H 	0.54407	0.01193	0.58803	-0.022
Mof_W 	W 	0.03996	0.10443	0.59871	0.946
Mof_W 	W 	0.17559	0.02713	0.68842	0.985
Mof_W 	W 	0.04211	0.10423	0.88708	0.973
Mof_W 	W 	0.17612	0.02817	0.79834	1.009
Mof_W 	W 	0.1548	0.17176	0.68698	1.036
Mof_W 	W 	0.15394	0.17175	0.79733	1.285
Mof_N 	N 	0.05563	0.29677	0.95317	-0.259
Mof_N 	N 	0.13153	0.31607	0.88427	-0.235
Mof_O 	O 	0.18653	0.04257	0.74277	-0.449
Mof_O 	O 	0.21293	0.12757	0.67977	-0.447
Mof_O 	O 	0.21183	0.12857	0.80537	-0.46
Mof_O 	O 	0.10723	0.93007	0.78797	-0.476
Mof_O 	O 	0.07913	0.04817	0.78797	-0.349
Mof_O 	O 	0.16813	0.17337	0.74267	-0.457
Mof_O 	O 	0.07843	0.04707	0.69767	-0.329
Mof_O 	O 	0.11893	0.14547	0.63507	-0.453
Mof_O 	O 	0.08293	0.04887	0.90847	-0.461
Mof_O 	O 	0.10633	0.92847	0.69737	-0.443
Mof_O 	O 	0.11793	0.14507	0.85087	-0.47
Mof_O 	O 	0.99043	0.12917	0.63547	-0.447
Mof_O 	O 	0.08163	0.04987	0.57617	-0.441
Mof_O 	O 	0.21623	0.26107	0.80817	-0.49
Mof_O 	O 	0.13963	0.01027	0.85117	-0.461
Mof_C 	C 	0.02513	0.28407	0.91807	-0.071
Mof_H 	H 	0.97583	0.26657	0.91667	0.006
Mof_C 	C 	0.12443	0.32067	0.95377	-0.007
Mof_H 	H 	0.14863	0.33197	0.97757	-0.035
Mof_C 	C 	0.06183	0.29497	0.88447	0.015
Mof_H 	H 	0.03783	0.28767	0.86077	-0.042
Mof_C 	C 	0.16173	0.32937	0.91967	-0.001
Mof_H 	H 	0.21073	0.34527	0.92137	0.005
Mof_Cu	Cu	0.33333	0.94162	0.66667	0.782
Mof_Cu	Cu	-1.66914e-17	0.27495	-0	0.767
Mof_Cu	Cu	0.05838	0.39172	0.66667	0.777
Mof_Cu	Cu	0.72505	0.72505	-0	0.776
Mof_Cu	Cu	0.60828	0.66667	0.66667	0.78
Mof_Cu	Cu	0.27495	0	-0	0.766
Mof_Cu	Cu	0.94162	0.33333	0.33333	0.783
Mof_Cu	Cu	0.39172	0.05838	0.33333	0.777
Mof_Cu	Cu	0.66667	0.60828	0.33333	0.78
Mof_Cu	Cu	0.15019	0.81686	0.83333	0.862
Mof_Cu	Cu	0.18314	0.33333	0.83333	0.862
Mof_Cu	Cu	0.66667	0.84981	0.83333	0.863
Mof_Cu	Cu	0.81686	0.15019	0.16667	0.862
Mof_Cu	Cu	0.48353	0.48353	0.5	0.862
Mof_Cu	Cu	0.33333	0.18314	0.16667	0.862
Mof_Cu	Cu	2.62589e-18	0.51647	0.5	0.854
Mof_Cu	Cu	0.84981	0.66667	0.16667	0.863
Mof_Cu	Cu	0.51647	-1.4825e-32	0.5	0.854
Mof_P 	P 	0.33333	0.66667	0.98228	0.563
Mof_P 	P 	0.33333	0.66667	0.86552	0.552
Mof_O 	O 	0.33333	0.66667	0.0282	-0.381
Mof_O 	O 	0.33333	0.66667	0.8197	-0.382
Mof_P 	P 	3.70624e-33	-7.41248e-33	0.31561	0.515
Mof_P 	P 	-3.70624e-33	-7.41248e-33	0.19885	0.514
Mof_O 	O 	7.41248e-33	-1.4825e-32	0.36153	-0.389
Mof_O 	O 	-0	3.70624e-33	0.15303	-0.397
Mof_P 	P 	0.66667	0.33333	0.64895	0.554
Mof_P 	P 	0.66667	0.33333	0.53219	0.552
Mof_O 	O 	0.66667	0.33333	0.69487	-0.374
Mof_O 	O 	0.66667	0.33333	0.48637	-0.382
Mof_P 	P 	0.66667	0.33333	0.01772	0.544
Mof_P 	P 	0.66667	0.33333	0.13448	0.552
Mof_O 	O 	0.66667	0.33333	0.9718	-0.366
Mof_O 	O 	0.66667	0.33333	0.1803	-0.382
Mof_P 	P 	0.33333	0.66667	0.35105	0.554
Mof_P 	P 	0.33333	0.66667	0.46781	0.552
Mof_O 	O 	0.33333	0.66667	0.30513	-0.374
Mof_O 	O 	0.33333	0.66667	0.51363	-0.382
Mof_P 	P 	-1.4825e-32	-2.96499e-32	0.68439	0.515
Mof_P 	P 	-1.4825e-32	0	0.80115	0.514
Mof_O 	O 	7.41248e-33	0	0.63847	-0.389
Mof_O 	O 	-0	0	0.84697	-0.398
_end
