data_functionalizedCrystal
_audit_creation_method	'EQeq! by Chris Wilmer'
_symmetry_space_group_name_H-M	'P1'
_symmetry_Int_Tables_number	1
_symmetry_cell_setting	triclinic
loop_
_symmetry_equiv_pos_as_xyz
  x,y,z
_cell_length_a	12.0216
_cell_length_b	13.9379
_cell_length_c	22.7658
_cell_angle_alpha	95.825
_cell_angle_beta	104.722
_cell_angle_gamma	104.036
loop_
_atom_site_label
_atom_site_type_symbol
_atom_site_fract_x
_atom_site_fract_y
_atom_site_fract_z
_atom_site_charge
Mof_Ag	Ag	0.2914	0.2013	0.84736	0.279
Mof_Ag	Ag	0.18624	0.42535	0.55908	0.49
Mof_Ag	Ag	0.02276	0.84439	0.69686	0.509
Mof_Ag	Ag	0.48499	0.05671	0.91452	0.413
Mof_Ag	Ag	0.13613	0.99746	0.85705	0.399
Mof_Ag	Ag	0.14848	0.66093	0.99892	0.408
Mof_Ag	Ag	0.59678	0.88059	0.82367	0.511
Mof_Ag	Ag	0.6856	0.17265	0.06493	0.382
Mof_Ag	Ag	0.7086	0.7987	0.15264	0.278
Mof_Ag	Ag	0.81376	0.57465	0.44092	0.489
Mof_Ag	Ag	0.97724	0.15561	0.30314	0.509
Mof_Ag	Ag	0.51501	0.94329	0.08548	0.413
Mof_Ag	Ag	0.86387	0.00254	0.14295	0.399
Mof_Ag	Ag	0.85152	0.33907	0.00108	0.408
Mof_Ag	Ag	0.40322	0.11941	0.17633	0.511
Mof_Ag	Ag	0.3144	0.82735	0.93507	0.382
Mof_H 	H 	0.4465	0.4634	0.0861	0.066
Mof_H 	H 	0.2707	0.3803	0.9043	0.039
Mof_H 	H 	0.7667	0.7522	0.9144	0.061
Mof_H 	H 	0.1501	0.6371	0.569	-0.021
Mof_H 	H 	0.9985	0.9545	0.0574	0.058
Mof_H 	H 	0.406	0.675	0.761	0.042
Mof_H 	H 	0.188	0.781	0.6383	0.052
Mof_H 	H 	0.4309	0.7761	0.598	0.01
Mof_H 	H 	0.7904	0.7029	0.6572	0.039
Mof_H 	H 	0.6478	0.6244	0.5637	-0.003
Mof_H 	H 	0.1312	0.8619	0.0589	-0.03
Mof_H 	H 	0.5608	0.851	0.6918	0.036
Mof_H 	H 	0.0616	0.0304	0.6228	0.038
Mof_H 	H 	0.1822	0.5036	0.9124	-0.039
Mof_H 	H 	0.1642	0.9059	0.4832	0.061
Mof_H 	H 	0.3466	0.5896	0.0857	-0.036
Mof_H 	H 	0.3506	0.526	0.6898	-0.028
Mof_H 	H 	0.1984	0.179	0.627	-0.018
Mof_H 	H 	0.3031	0.059	0.4952	0.008
Mof_H 	H 	0.9017	0.6642	0.921	-0.032
Mof_H 	H 	0.5535	0.5366	0.9139	0.066
Mof_H 	H 	0.7293	0.6197	0.0957	0.039
Mof_H 	H 	0.2333	0.2478	0.0856	0.061
Mof_H 	H 	0.8499	0.3629	0.431	-0.021
Mof_H 	H 	0.0015	0.0455	0.9426	0.058
Mof_H 	H 	0.594	0.325	0.239	0.042
Mof_H 	H 	0.812	0.219	0.3617	0.052
Mof_H 	H 	0.5691	0.2239	0.402	0.01
Mof_H 	H 	0.2096	0.2971	0.3428	0.039
Mof_H 	H 	0.3522	0.3756	0.4363	-0.003
Mof_H 	H 	0.8688	0.1381	0.9411	-0.03
Mof_H 	H 	0.4392	0.149	0.3082	0.036
Mof_H 	H 	0.9384	0.9696	0.3772	0.038
Mof_H 	H 	0.8178	0.4964	0.0876	-0.039
Mof_H 	H 	0.8358	0.0941	0.5168	0.061
Mof_H 	H 	0.6534	0.4104	0.9143	-0.036
Mof_H 	H 	0.6494	0.474	0.3102	-0.028
Mof_H 	H 	0.8016	0.821	0.373	-0.018
Mof_H 	H 	0.6969	0.941	0.5048	0.008
Mof_H 	H 	0.0983	0.3358	0.079	-0.032
Mof_C 	C 	0.419	0.3238	0.9934	0.081
Mof_C 	C 	0.392	0.4699	0.0506	-0.136
Mof_C 	C 	0.287	0.4207	0.9422	-0.137
Mof_C 	C 	0.6913	0.785	0.6833	0.007
Mof_C 	C 	0.7773	0.9193	0.9883	0.09
Mof_C 	C 	0.84	0.7755	0.945	-0.13
Mof_C 	C 	0.1991	0.6436	0.6088	0.058
Mof_C 	C 	0.9768	0.8952	0.0293	-0.13
Mof_C 	C 	0.3502	0.6669	0.7229	-0.128
Mof_C 	C 	0.8628	0.8633	0.9865	0.025
Mof_C 	C 	0.2956	0.7421	0.7073	0.013
Mof_C 	C 	0.3097	0.8285	0.755	0.08
Mof_C 	C 	0.223	0.7305	0.6501	-0.125
Mof_C 	C 	0.362	0.4048	0.9942	0.042
Mof_C 	C 	0.5033	0.7606	0.6108	0.052
Mof_C 	C 	0.7174	0.7179	0.646	-0.107
Mof_C 	C 	0.632	0.6714	0.59	0.056
Mof_C 	C 	0.017	0.8529	0.5485	0.094
Mof_C 	C 	0.1	0.9492	0.5552	0.016
Mof_C 	C 	0.0562	0.8396	0.03	0.055
Mof_C 	C 	0.58	0.8062	0.6657	-0.106
Mof_C 	C 	0.11	0.0342	0.5968	-0.11
Mof_C 	C 	0.7773	0.8392	0.742	0.08
Mof_C 	C 	0.237	0.496	0.9475	0.07
Mof_C 	C 	0.172	0.9591	0.5136	-0.112
Mof_C 	C 	0.333	0.5468	0.0489	0.079
Mof_C 	C 	0.318	0.5783	0.6792	0.069
Mof_C 	C 	0.192	0.1228	0.5993	0.061
Mof_C 	C 	0.253	0.0511	0.5207	0.059
Mof_C 	C 	0.922	0.7237	0.9488	0.079
Mof_C 	C 	0.581	0.6762	0.0066	0.081
Mof_C 	C 	0.608	0.5301	0.9494	-0.136
Mof_C 	C 	0.713	0.5793	0.0578	-0.137
Mof_C 	C 	0.3087	0.215	0.3167	0.007
Mof_C 	C 	0.2227	0.0807	0.0117	0.09
Mof_C 	C 	0.16	0.2245	0.055	-0.13
Mof_C 	C 	0.8009	0.3564	0.3912	0.058
Mof_C 	C 	0.0232	0.1048	0.9707	-0.13
Mof_C 	C 	0.6498	0.3331	0.2771	-0.128
Mof_C 	C 	0.1372	0.1367	0.0135	0.025
Mof_C 	C 	0.7044	0.2579	0.2927	0.013
Mof_C 	C 	0.6903	0.1715	0.245	0.08
Mof_C 	C 	0.777	0.2695	0.3499	-0.125
Mof_C 	C 	0.638	0.5952	0.0058	0.042
Mof_C 	C 	0.4967	0.2394	0.3892	0.052
Mof_C 	C 	0.2826	0.2821	0.354	-0.107
Mof_C 	C 	0.368	0.3286	0.41	0.056
Mof_C 	C 	0.983	0.1471	0.4515	0.094
Mof_C 	C 	0.9	0.0508	0.4448	0.016
Mof_C 	C 	0.9438	0.1604	0.97	0.055
Mof_C 	C 	0.42	0.1938	0.3343	-0.106
Mof_C 	C 	0.89	0.9658	0.4032	-0.11
Mof_C 	C 	0.2227	0.1608	0.258	0.08
Mof_C 	C 	0.763	0.504	0.0525	0.07
Mof_C 	C 	0.828	0.0409	0.4864	-0.112
Mof_C 	C 	0.667	0.4532	0.9511	0.079
Mof_C 	C 	0.682	0.4217	0.3208	0.069
Mof_C 	C 	0.808	0.8772	0.4007	0.061
Mof_C 	C 	0.747	0.9489	0.4793	0.059
Mof_C 	C 	0.078	0.2763	0.0512	0.079
Mof_N 	N 	0.9739	0.7866	0.4963	-0.107
Mof_N 	N 	0.7541	0.8781	0.793	-0.164
Mof_N 	N 	0.2176	0.8688	0.7555	-0.169
Mof_N 	N 	0.0283	0.7521	0.9893	-0.218
Mof_N 	N 	0.9446	0.914	0.8109	-0.124
Mof_N 	N 	0.3718	0.9416	0.833	-0.146
Mof_N 	N 	0.9761	0.8143	0.593	-0.154
Mof_N 	N 	0.2622	0.9407	0.8072	-0.142
Mof_N 	N 	0.8986	0.8605	0.7534	-0.165
Mof_N 	N 	0.784	0.9817	0.0389	-0.158
Mof_N 	N 	0.2454	0.5675	0.6247	-0.205
Mof_N 	N 	0.6836	0.9208	0.94	-0.14
Mof_N 	N 	0.4718	0.1956	0.9639	-0.132
Mof_N 	N 	0.4043	0.8719	0.8015	-0.179
Mof_N 	N 	0.634	0.9851	0.9621	-0.132
Mof_N 	N 	0.5291	0.6926	0.5737	-0.139
Mof_N 	N 	0.693	0.0244	0.0229	-0.15
Mof_N 	N 	0.8592	0.9244	0.8364	-0.082
Mof_N 	N 	0.5366	0.2336	0.022	-0.123
Mof_N 	N 	0.3986	0.2499	0.9454	-0.148
Mof_N 	N 	0.8994	0.7214	0.5665	-0.081
Mof_N 	N 	0.5045	0.312	0.0423	-0.107
Mof_N 	N 	0.263	0.1303	0.563	-0.137
Mof_N 	N 	0.9017	0.7083	0.5079	-0.124
Mof_N 	N 	0.2596	0.5619	0.9995	-0.212
Mof_N 	N 	0.0261	0.2134	0.5037	-0.107
Mof_N 	N 	0.2459	0.1219	0.207	-0.164
Mof_N 	N 	0.7824	0.1312	0.2445	-0.169
Mof_N 	N 	0.9717	0.2479	0.0107	-0.218
Mof_N 	N 	0.0554	0.086	0.1891	-0.124
Mof_N 	N 	0.6282	0.0584	0.167	-0.146
Mof_N 	N 	0.0239	0.1857	0.407	-0.154
Mof_N 	N 	0.7378	0.0593	0.1928	-0.142
Mof_N 	N 	0.1014	0.1395	0.2466	-0.165
Mof_N 	N 	0.216	0.0183	0.9611	-0.158
Mof_N 	N 	0.7546	0.4325	0.3753	-0.205
Mof_N 	N 	0.3164	0.0792	0.06	-0.14
Mof_N 	N 	0.5282	0.8044	0.0361	-0.132
Mof_N 	N 	0.5957	0.1281	0.1985	-0.179
Mof_N 	N 	0.366	0.0149	0.0379	-0.132
Mof_N 	N 	0.4709	0.3074	0.4263	-0.139
Mof_N 	N 	0.307	0.9756	0.9771	-0.15
Mof_N 	N 	0.1408	0.0756	0.1636	-0.082
Mof_N 	N 	0.4634	0.7664	0.978	-0.123
Mof_N 	N 	0.6014	0.7501	0.0546	-0.148
Mof_N 	N 	0.1006	0.2786	0.4335	-0.081
Mof_N 	N 	0.4955	0.688	0.9577	-0.107
Mof_N 	N 	0.737	0.8697	0.437	-0.137
Mof_N 	N 	0.0983	0.2917	0.4921	-0.124
Mof_N 	N 	0.7404	0.4381	0.0005	-0.212
_end
