data_functionalizedCrystal
_audit_creation_method	'EQeq! by Chris Wilmer'
_symmetry_space_group_name_H-M	'P1'
_symmetry_Int_Tables_number	1
_symmetry_cell_setting	triclinic
loop_
_symmetry_equiv_pos_as_xyz
  x,y,z
_cell_length_a	49.576
_cell_length_b	49.576
_cell_length_c	9.938
_cell_angle_alpha	90
_cell_angle_beta	90
_cell_angle_gamma	120
loop_
_atom_site_label
_atom_site_type_symbol
_atom_site_fract_x
_atom_site_fract_y
_atom_site_fract_z
_atom_site_charge
Mof_In	In	0.20761	0.79238	0.5002	2.531
Mof_In	In	3.07223e-17	0.63994	0.49996	2.512
Mof_In	In	0.15966	0.57983	0.49988	2.287
Mof_Co	Co	0.06569	0.82024	0.1654	1.193
Mof_Co	Co	0.06584	0.82042	0.8346	1.179
Mof_Co	Co	0.17961	0.93434	0.1657	1.195
Mof_Co	Co	0.17973	0.93429	0.8341	1.201
Mof_O 	O 	0.9996	0.6344	0.2664	-0.476
Mof_O 	O 	0.1871	0.8127	0.6435	-0.475
Mof_O 	O 	0.29014	0.6446	0.8857	-0.481
Mof_O 	O 	0.28886	0.6453	0.1315	-0.48
Mof_O 	O 	0.0005	0.6751	0.3558	-0.496
Mof_O 	O 	0.2114	0.7887	0.7377	-0.437
Mof_O 	O 	0.2118	0.7884	0.2637	-0.437
Mof_O 	O 	0.0002	0.6346	0.7335	-0.472
Mof_O 	O 	0.1533	0.5765	0.739	-0.406
Mof_O 	O 	0.187	0.8126	0.3537	-0.464
Mof_O 	O 	0.1198	0.5919	0.4995	-0.457
Mof_O 	O 	0.4081	0.8797	0.4991	-0.463
Mof_O 	O 	0.1533	0.5765	0.2644	-0.428
Mof_O 	O 	0.1966	0.7423	0.5001	-0.5
Mof_O 	O 	0.2474	0.8403	0.4995	-0.538
Mof_O 	O 	0.1597	0.7531	0.4999	-0.534
Mof_O 	O 	0.0356	0.6225	0.4992	-0.499
Mof_O 	O 	0.2579	0.803	0.4996	-0.505
Mof_O 	O 	0.3774	0.9646	0.5004	-0.496
Mof_O 	O 	0.1687	0.6297	0.4988	-0.483
Mof_O 	O 	0.3704	0.8311	0.4992	-0.486
Mof_O 	O 	0.0513	0.6709	0.4967	-0.562
Mof_O 	O 	0.0001	0.6757	0.6449	-0.471
Mof_O 	O 	0.3289	0.9489	0.5013	-0.556
Mof_O 	O 	0.2035	0.6022	0.3522	-0.398
Mof_O 	O 	0.2032	0.6019	0.6444	-0.415
Mof_O 	O 	0.0599	0.8361	0.9966	-0.394
Mof_O 	O 	0.1639	0.9402	0.9942	-0.387
Mof_O 	O 	0.0393	0.7714	0.108	-0.492
Mof_O 	O 	0.0387	0.7713	0.893	-0.421
Mof_O 	O 	0.9593	0.7319	0.892	-0.467
Mof_O 	O 	0.96	0.7318	0.104	-0.421
Mof_O 	O 	0.0283	0.8199	0.271	-0.17
Mof_O 	O 	0.0184	0.8076	0.12	-0.11
Mof_O 	O 	0.0287	0.8208	0.734	-0.188
Mof_O 	O 	0.0181	0.807	0.881	-0.109
Mof_O 	O 	0.1801	0.9712	0.73	-0.171
Mof_O 	O 	0.9817	0.7885	0.121	-0.105
Mof_O 	O 	0.1801	0.9714	0.27	-0.171
Mof_O 	O 	0.982	0.7894	0.879	-0.104
Mof_O 	O 	0.1103	0.8271	0.899	-0.444
Mof_O 	O 	0.101	0.8675	0.879	-0.157
Mof_O 	O 	0.1758	0.8923	0.895	-0.395
Mof_O 	O 	0.1372	0.9124	0.268	-0.176
Mof_O 	O 	0.1324	0.8988	0.122	-0.107
Mof_O 	O 	0.1117	0.8286	0.101	-0.424
Mof_O 	O 	0.0884	0.862	0.271	-0.183
Mof_O 	O 	0.1013	0.8674	0.121	-0.102
Mof_O 	O 	0.1737	0.8897	0.098	-0.384
Mof_O 	O 	0.1376	0.9116	0.728	-0.193
Mof_O 	O 	0.1325	0.8994	0.881	-0.11
Mof_C 	C 	0.1818	0.591	0.2575	0.244
Mof_C 	C 	0.1986	0.5994	0.1253	-0.07
Mof_C 	C 	0.2322	0.6163	0.1114	0.076
Mof_C 	C 	0.253	0.6267	0.9964	-0.07
Mof_C 	C 	0.2316	0.6158	0.8836	0.074
Mof_C 	C 	0.1979	0.5989	0.8726	-0.067
Mof_C 	C 	0.1813	0.5906	0.9998	0.076
Mof_C 	C 	0.2867	0.6436	0.0083	0.34
Mof_C 	C 	0.1832	0.5913	0.739	0.231
Mof_C 	C 	0.1308	0.644	0.4999	-0.119
Mof_C 	C 	0.3417	0.9086	0.5011	-0.125
Mof_C 	C 	0.1423	0.6967	0.5027	-0.128
Mof_C 	C 	0.1968	0.8032	0.2553	0.276
Mof_C 	C 	0.1964	0.8037	0.747	0.293
Mof_C 	C 	0.9997	0.659	0.2521	0.35
Mof_C 	C 	0.3025	0.8567	0.5038	-0.129
Mof_C 	C 	0.0912	0.6584	0.5022	-0.133
Mof_C 	C 	0.3658	0.901	0.5008	0.12
Mof_C 	C 	0.3556	0.8692	0.4995	-0.131
Mof_C 	C 	0.0983	0.6341	0.5001	0.117
Mof_C 	C 	0.3501	0.9441	0.4954	0.401
Mof_C 	C 	0.056	0.6498	0.4956	0.414
Mof_C 	C 	0.3234	0.8453	0.4997	0.116
Mof_C 	C 	0.1554	0.6767	0.4983	0.11
Mof_C 	C 	0.1403	0.62	0.5012	0.34
Mof_C 	C 	0.1675	0.7325	0.4979	0.353
Mof_C 	C 	0.3796	0.8596	0.5008	0.347
Mof_C 	C 	0.2665	0.831	0.4994	0.362
Mof_C 	C 	0.3096	0.8862	0.5025	0.126
Mof_C 	C 	0.1126	0.6901	0.502	0.127
Mof_C 	C 	0.0002	0.6594	0.7454	0.31
Mof_C 	C 	0.9997	0.657	0.0002	0.105
Mof_C 	C 	0.1971	0.8029	0.0002	0.095
Mof_C 	C 	0.1889	0.8112	0.87	-0.118
Mof_C 	C 	0.1897	0.8121	0.127	-0.109
Mof_C 	C 	0.9873	0.6653	0.121	-0.03
Mof_C 	C 	0.0087	0.6778	0.121	-0.102
Mof_C 	C 	0.9851	0.6921	0.129	0.081
Mof_C 	C 	0.018	0.7098	0.132	0.09
Mof_C 	C 	0.9896	0.6682	0.877	-0.046
Mof_C 	C 	0.0121	0.6773	0.879	-0.07
Mof_C 	C 	0.0186	0.7083	0.874	0.082
Mof_C 	C 	0.9826	0.6921	0.867	0.076
Mof_C 	C 	0.1588	0.8115	0.12	0.086
Mof_C 	C 	0.1873	0.8415	0.126	0.07
Mof_C 	C 	0.1579	0.8133	0.877	0.077
Mof_C 	C 	0.1878	0.8415	0.876	0.067
Mof_C 	C 	0.9625	0.7227	0.992	0.512
Mof_C 	C 	0.0367	0.7604	0.011	0.529
Mof_C 	C 	0.9726	0.6998	0.001	-0.144
Mof_C 	C 	0.0269	0.7265	0.005	-0.153
Mof_C 	C 	0.1679	0.8745	0.996	0.392
Mof_C 	C 	0.1244	0.83	0.999	0.48
Mof_C 	C 	0.1457	0.8154	0.003	-0.151
Mof_C 	C 	0.1838	0.8544	-0	-0.103
Mof_In	In	0.20762	0.41523	0.5002	2.532
Mof_In	In	0.36006	0.36006	0.49996	2.524
Mof_In	In	0.42017	0.57983	0.49988	2.289
Mof_Co	Co	0.17976	0.24545	0.1654	1.195
Mof_Co	Co	0.17958	0.24542	0.8346	1.18
Mof_Co	Co	0.06566	0.24527	0.1657	1.196
Mof_Co	Co	0.06571	0.24544	0.8341	1.202
Mof_O 	O 	0.3656	0.3652	0.2664	-0.476
Mof_O 	O 	0.1873	0.3744	0.6435	-0.474
Mof_O 	O 	0.3554	0.64554	0.8857	-0.48
Mof_O 	O 	0.3547	0.64356	0.1315	-0.479
Mof_O 	O 	0.3249	0.3254	0.3558	-0.49
Mof_O 	O 	0.2113	0.4227	0.7377	-0.436
Mof_O 	O 	0.2116	0.4234	0.2637	-0.436
Mof_O 	O 	0.3654	0.3656	0.7335	-0.47
Mof_O 	O 	0.4235	0.5768	0.739	-0.405
Mof_O 	O 	0.1874	0.3744	0.3537	-0.463
Mof_O 	O 	0.4081	0.5279	0.4995	-0.456
Mof_O 	O 	0.1203	0.5284	0.4991	-0.464
Mof_O 	O 	0.4235	0.5768	0.2644	-0.428
Mof_O 	O 	0.2577	0.4543	0.5001	-0.499
Mof_O 	O 	0.1597	0.4071	0.4995	-0.538
Mof_O 	O 	0.2469	0.4066	0.4999	-0.534
Mof_O 	O 	0.3775	0.4131	0.4992	-0.499
Mof_O 	O 	0.197	0.4549	0.4996	-0.505
Mof_O 	O 	0.0354	0.4128	0.5004	-0.499
Mof_O 	O 	0.3703	0.539	0.4988	-0.483
Mof_O 	O 	0.1689	0.5393	0.4992	-0.486
Mof_O 	O 	0.3291	0.3804	0.4967	-0.563
Mof_O 	O 	0.3243	0.3244	0.6449	-0.471
Mof_O 	O 	0.0511	0.38	0.5013	-0.557
Mof_O 	O 	0.3978	0.6013	0.3522	-0.398
Mof_O 	O 	0.3981	0.6013	0.6444	-0.415
Mof_O 	O 	0.1639	0.2238	0.9966	-0.394
Mof_O 	O 	0.0598	0.2237	0.9942	-0.387
Mof_O 	O 	0.2286	0.2679	0.108	-0.491
Mof_O 	O 	0.2287	0.2674	0.893	-0.42
Mof_O 	O 	0.2681	0.2274	0.892	-0.468
Mof_O 	O 	0.2682	0.2282	0.104	-0.421
Mof_O 	O 	0.1801	0.2084	0.271	-0.169
Mof_O 	O 	0.1924	0.2108	0.12	-0.108
Mof_O 	O 	0.1792	0.2079	0.734	-0.187
Mof_O 	O 	0.193	0.2111	0.881	-0.107
Mof_O 	O 	0.0288	0.2089	0.73	-0.174
Mof_O 	O 	0.2115	0.1932	0.121	-0.108
Mof_O 	O 	0.0286	0.2087	0.27	-0.174
Mof_O 	O 	0.2106	0.1926	0.879	-0.106
Mof_O 	O 	0.1729	0.2832	0.899	-0.444
Mof_O 	O 	0.1325	0.2335	0.879	-0.157
Mof_O 	O 	0.1077	0.2835	0.895	-0.395
Mof_O 	O 	0.0876	0.2248	0.268	-0.176
Mof_O 	O 	0.1012	0.2336	0.122	-0.107
Mof_O 	O 	0.1714	0.2831	0.101	-0.424
Mof_O 	O 	0.138	0.2264	0.271	-0.183
Mof_O 	O 	0.1326	0.2339	0.121	-0.102
Mof_O 	O 	0.1103	0.284	0.098	-0.384
Mof_O 	O 	0.0884	0.226	0.728	-0.194
Mof_O 	O 	0.1006	0.2331	0.881	-0.11
Mof_C 	C 	0.409	0.5908	0.2575	0.244
Mof_C 	C 	0.4006	0.5992	0.1253	-0.069
Mof_C 	C 	0.3837	0.6159	0.1114	0.076
Mof_C 	C 	0.3733	0.6263	0.9964	-0.07
Mof_C 	C 	0.3842	0.6158	0.8836	0.074
Mof_C 	C 	0.4011	0.599	0.8726	-0.067
Mof_C 	C 	0.4094	0.5907	0.9998	0.077
Mof_C 	C 	0.3564	0.6431	0.0083	0.34
Mof_C 	C 	0.4087	0.5919	0.739	0.231
Mof_C 	C 	0.356	0.4868	0.4999	-0.119
Mof_C 	C 	0.0914	0.4331	0.5011	-0.125
Mof_C 	C 	0.3033	0.4456	0.5027	-0.128
Mof_C 	C 	0.1968	0.3936	0.2553	0.276
Mof_C 	C 	0.1963	0.3927	0.747	0.293
Mof_C 	C 	0.341	0.3407	0.2521	0.341
Mof_C 	C 	0.1433	0.4458	0.5038	-0.129
Mof_C 	C 	0.3416	0.4328	0.5022	-0.133
Mof_C 	C 	0.099	0.4648	0.5008	0.12
Mof_C 	C 	0.1308	0.4864	0.4995	-0.131
Mof_C 	C 	0.3659	0.4642	0.5001	0.118
Mof_C 	C 	0.0559	0.406	0.4954	0.402
Mof_C 	C 	0.3502	0.4062	0.4956	0.414
Mof_C 	C 	0.1547	0.4781	0.4997	0.116
Mof_C 	C 	0.3233	0.4787	0.4983	0.11
Mof_C 	C 	0.38	0.5203	0.5012	0.34
Mof_C 	C 	0.2675	0.435	0.4979	0.353
Mof_C 	C 	0.1404	0.52	0.5008	0.347
Mof_C 	C 	0.169	0.4355	0.4994	0.362
Mof_C 	C 	0.1138	0.4234	0.5025	0.126
Mof_C 	C 	0.3099	0.4225	0.502	0.127
Mof_C 	C 	0.3406	0.3408	0.7454	0.312
Mof_C 	C 	0.343	0.3427	0.0002	0.098
Mof_C 	C 	0.1971	0.3942	0.0002	0.095
Mof_C 	C 	0.1888	0.3777	0.87	-0.118
Mof_C 	C 	0.1879	0.3776	0.127	-0.109
Mof_C 	C 	0.3347	0.322	0.121	-0.041
Mof_C 	C 	0.3222	0.3309	0.121	-0.083
Mof_C 	C 	0.3079	0.293	0.129	0.08
Mof_C 	C 	0.2902	0.3082	0.132	0.087
Mof_C 	C 	0.3318	0.3214	0.877	-0.058
Mof_C 	C 	0.3227	0.3348	0.879	-0.057
Mof_C 	C 	0.2917	0.3103	0.874	0.081
Mof_C 	C 	0.3079	0.2905	0.867	0.077
Mof_C 	C 	0.1885	0.3473	0.12	0.086
Mof_C 	C 	0.1585	0.3458	0.126	0.07
Mof_C 	C 	0.1867	0.3446	0.877	0.077
Mof_C 	C 	0.1585	0.3463	0.876	0.067
Mof_C 	C 	0.2773	0.2398	0.992	0.512
Mof_C 	C 	0.2396	0.2763	0.011	0.528
Mof_C 	C 	0.3002	0.2728	0.001	-0.145
Mof_C 	C 	0.2735	0.3004	0.005	-0.15
Mof_C 	C 	0.1255	0.2934	0.996	0.392
Mof_C 	C 	0.17	0.2944	0.999	0.48
Mof_C 	C 	0.1846	0.3303	0.003	-0.151
Mof_C 	C 	0.1456	0.3294	-0	-0.103
Mof_In	In	0.58477	0.79239	0.5002	2.532
Mof_In	In	0.63994	0	0.49996	2.506
Mof_In	In	0.42017	0.84034	0.49988	2.289
Mof_Co	Co	0.75455	0.93431	0.1654	1.194
Mof_Co	Co	0.75458	0.93416	0.8346	1.18
Mof_Co	Co	0.75473	0.82039	0.1657	1.196
Mof_Co	Co	0.75456	0.82027	0.8341	1.202
Mof_O 	O 	0.6348	0.0004	0.2664	-0.473
Mof_O 	O 	0.6256	0.8129	0.6435	-0.474
Mof_O 	O 	0.35446	0.70986	0.8857	-0.48
Mof_O 	O 	0.35644	0.71114	0.1315	-0.479
Mof_O 	O 	0.6746	0.9995	0.3558	-0.482
Mof_O 	O 	0.5773	0.7886	0.7377	-0.437
Mof_O 	O 	0.5766	0.7882	0.2637	-0.436
Mof_O 	O 	0.6344	0.9998	0.7335	-0.466
Mof_O 	O 	0.4232	0.8467	0.739	-0.405
Mof_O 	O 	0.6256	0.813	0.3537	-0.463
Mof_O 	O 	0.4721	0.8802	0.4995	-0.455
Mof_O 	O 	0.4716	0.5919	0.4991	-0.464
Mof_O 	O 	0.4232	0.8467	0.2644	-0.428
Mof_O 	O 	0.5457	0.8034	0.5001	-0.5
Mof_O 	O 	0.5929	0.7526	0.4995	-0.538
Mof_O 	O 	0.5934	0.8403	0.4999	-0.534
Mof_O 	O 	0.5869	0.9644	0.4992	-0.495
Mof_O 	O 	0.5451	0.7421	0.4996	-0.505
Mof_O 	O 	0.5872	0.6226	0.5004	-0.499
Mof_O 	O 	0.461	0.8313	0.4988	-0.483
Mof_O 	O 	0.4607	0.6296	0.4992	-0.486
Mof_O 	O 	0.6196	0.9487	0.4967	-0.56
Mof_O 	O 	0.6756	0.9999	0.6449	-0.467
Mof_O 	O 	0.62	0.6711	0.5013	-0.559
Mof_O 	O 	0.3987	0.7965	0.3522	-0.398
Mof_O 	O 	0.3987	0.7968	0.6444	-0.415
Mof_O 	O 	0.7762	0.9401	0.9966	-0.394
Mof_O 	O 	0.7763	0.8361	0.9942	-0.387
Mof_O 	O 	0.7321	0.9607	0.108	-0.49
Mof_O 	O 	0.7326	0.9613	0.893	-0.419
Mof_O 	O 	0.7726	0.0407	0.892	-0.469
Mof_O 	O 	0.7718	0.04	0.104	-0.422
Mof_O 	O 	0.7916	0.9717	0.271	-0.167
Mof_O 	O 	0.7892	0.9816	0.12	-0.106
Mof_O 	O 	0.7921	0.9713	0.734	-0.185
Mof_O 	O 	0.7889	0.9819	0.881	-0.104
Mof_O 	O 	0.7911	0.8199	0.73	-0.172
Mof_O 	O 	0.8068	0.0183	0.121	-0.11
Mof_O 	O 	0.7913	0.8199	0.27	-0.172
Mof_O 	O 	0.8074	0.018	0.879	-0.109
Mof_O 	O 	0.7168	0.8897	0.899	-0.444
Mof_O 	O 	0.7665	0.899	0.879	-0.157
Mof_O 	O 	0.7165	0.8242	0.895	-0.395
Mof_O 	O 	0.7752	0.8628	0.268	-0.176
Mof_O 	O 	0.7664	0.8676	0.122	-0.107
Mof_O 	O 	0.7169	0.8883	0.101	-0.424
Mof_O 	O 	0.7736	0.9116	0.271	-0.182
Mof_O 	O 	0.7661	0.8987	0.121	-0.101
Mof_O 	O 	0.716	0.8263	0.098	-0.384
Mof_O 	O 	0.774	0.8624	0.728	-0.193
Mof_O 	O 	0.7669	0.8675	0.881	-0.11
Mof_C 	C 	0.4092	0.8182	0.2575	0.244
Mof_C 	C 	0.4008	0.8014	0.1253	-0.069
Mof_C 	C 	0.3841	0.7678	0.1114	0.076
Mof_C 	C 	0.3737	0.747	0.9964	-0.07
Mof_C 	C 	0.3842	0.7684	0.8836	0.074
Mof_C 	C 	0.401	0.8021	0.8726	-0.066
Mof_C 	C 	0.4093	0.8187	0.9998	0.077
Mof_C 	C 	0.3569	0.7133	0.0083	0.34
Mof_C 	C 	0.4081	0.8168	0.739	0.231
Mof_C 	C 	0.5132	0.8692	0.4999	-0.119
Mof_C 	C 	0.5669	0.6583	0.5011	-0.125
Mof_C 	C 	0.5544	0.8577	0.5027	-0.128
Mof_C 	C 	0.6064	0.8032	0.2553	0.276
Mof_C 	C 	0.6073	0.8036	0.747	0.293
Mof_C 	C 	0.6593	0.0003	0.2521	0.332
Mof_C 	C 	0.5542	0.6975	0.5038	-0.129
Mof_C 	C 	0.5672	0.9088	0.5022	-0.132
Mof_C 	C 	0.5352	0.6342	0.5008	0.12
Mof_C 	C 	0.5136	0.6444	0.4995	-0.131
Mof_C 	C 	0.5358	0.9017	0.5001	0.118
Mof_C 	C 	0.594	0.6499	0.4954	0.402
Mof_C 	C 	0.5938	0.944	0.4956	0.414
Mof_C 	C 	0.5219	0.6766	0.4997	0.116
Mof_C 	C 	0.5213	0.8446	0.4983	0.11
Mof_C 	C 	0.4797	0.8597	0.5012	0.34
Mof_C 	C 	0.565	0.8325	0.4979	0.353
Mof_C 	C 	0.48	0.6204	0.5008	0.347
Mof_C 	C 	0.5645	0.7335	0.4994	0.362
Mof_C 	C 	0.5766	0.6904	0.5025	0.126
Mof_C 	C 	0.5775	0.8874	0.502	0.126
Mof_C 	C 	0.6592	0.9998	0.7454	0.313
Mof_C 	C 	0.6573	0.0003	0.0002	0.092
Mof_C 	C 	0.6058	0.8029	0.0002	0.095
Mof_C 	C 	0.6223	0.8111	0.87	-0.118
Mof_C 	C 	0.6224	0.8103	0.127	-0.109
Mof_C 	C 	0.678	0.0127	0.121	-0.052
Mof_C 	C 	0.6691	0.9913	0.121	-0.064
Mof_C 	C 	0.707	0.0149	0.129	0.078
Mof_C 	C 	0.6918	0.982	0.132	0.083
Mof_C 	C 	0.6786	0.0104	0.877	-0.07
Mof_C 	C 	0.6652	0.9879	0.879	-0.044
Mof_C 	C 	0.6897	0.9814	0.874	0.079
Mof_C 	C 	0.7095	0.0174	0.867	0.078
Mof_C 	C 	0.6527	0.8412	0.12	0.086
Mof_C 	C 	0.6542	0.8127	0.126	0.07
Mof_C 	C 	0.6554	0.8421	0.877	0.077
Mof_C 	C 	0.6537	0.8122	0.876	0.067
Mof_C 	C 	0.7602	0.0375	0.992	0.512
Mof_C 	C 	0.7237	0.9633	0.011	0.528
Mof_C 	C 	0.7272	0.0274	0.001	-0.145
Mof_C 	C 	0.6996	0.9731	0.005	-0.147
Mof_C 	C 	0.7066	0.8321	0.996	0.392
Mof_C 	C 	0.7056	0.8756	0.999	0.48
Mof_C 	C 	0.6697	0.8543	0.003	-0.151
Mof_C 	C 	0.6706	0.8162	-0	-0.103
Mof_In	In	0.79239	0.20762	0.4998	2.532
Mof_In	In	-1.22756e-17	0.36006	0.50004	2.506
Mof_In	In	0.84034	0.42017	0.50012	2.289
Mof_Co	Co	0.93431	0.17976	0.8346	1.194
Mof_Co	Co	0.93416	0.17958	0.1654	1.18
Mof_Co	Co	0.82039	0.06566	0.8343	1.195
Mof_Co	Co	0.82027	0.06571	0.1659	1.202
Mof_O 	O 	0.0004	0.3656	0.7336	-0.473
Mof_O 	O 	0.8129	0.1873	0.3565	-0.474
Mof_O 	O 	0.70986	0.3554	0.1143	-0.476
Mof_O 	O 	0.71114	0.3547	0.8685	-0.477
Mof_O 	O 	0.9995	0.3249	0.6442	-0.482
Mof_O 	O 	0.7886	0.2113	0.2623	-0.435
Mof_O 	O 	0.7882	0.2116	0.7363	-0.436
Mof_O 	O 	0.9998	0.3654	0.2665	-0.465
Mof_O 	O 	0.8467	0.4235	0.261	-0.405
Mof_O 	O 	0.813	0.1874	0.6463	-0.463
Mof_O 	O 	0.8802	0.4081	0.5005	-0.455
Mof_O 	O 	0.5919	0.1203	0.5009	-0.464
Mof_O 	O 	0.8467	0.4235	0.7356	-0.429
Mof_O 	O 	0.8034	0.2577	0.4999	-0.499
Mof_O 	O 	0.7526	0.1597	0.5005	-0.538
Mof_O 	O 	0.8403	0.2469	0.5001	-0.534
Mof_O 	O 	0.9644	0.3775	0.5008	-0.495
Mof_O 	O 	0.7421	0.197	0.5004	-0.505
Mof_O 	O 	0.6226	0.0354	0.4996	-0.499
Mof_O 	O 	0.8313	0.3703	0.5012	-0.483
Mof_O 	O 	0.6296	0.1689	0.5008	-0.486
Mof_O 	O 	0.9487	0.3291	0.5033	-0.56
Mof_O 	O 	0.9999	0.3243	0.3551	-0.467
Mof_O 	O 	0.6711	0.0511	0.4987	-0.557
Mof_O 	O 	0.7965	0.3978	0.6478	-0.398
Mof_O 	O 	0.7968	0.3981	0.3556	-0.415
Mof_O 	O 	0.9401	0.1639	0.0034	-0.391
Mof_O 	O 	0.8361	0.0598	0.0058	-0.384
Mof_O 	O 	0.9607	0.2286	0.892	-0.489
Mof_O 	O 	0.9613	0.2287	0.107	-0.415
Mof_O 	O 	0.0407	0.2681	0.108	-0.472
Mof_O 	O 	0.04	0.2682	0.896	-0.428
Mof_O 	O 	0.9717	0.1801	0.729	-0.168
Mof_O 	O 	0.9816	0.1924	0.88	-0.108
Mof_O 	O 	0.9713	0.1792	0.266	-0.185
Mof_O 	O 	0.9819	0.193	0.119	-0.103
Mof_O 	O 	0.8199	0.0288	0.27	-0.174
Mof_O 	O 	0.0183	0.2115	0.879	-0.111
Mof_O 	O 	0.8199	0.0286	0.73	-0.174
Mof_O 	O 	0.018	0.2106	0.121	-0.107
Mof_O 	O 	0.8897	0.1729	0.101	-0.446
Mof_O 	O 	0.899	0.1325	0.121	-0.156
Mof_O 	O 	0.8242	0.1077	0.105	-0.396
Mof_O 	O 	0.8628	0.0876	0.732	-0.176
Mof_O 	O 	0.8676	0.1012	0.878	-0.108
Mof_O 	O 	0.8883	0.1714	0.899	-0.43
Mof_O 	O 	0.9116	0.138	0.729	-0.182
Mof_O 	O 	0.8987	0.1326	0.879	-0.103
Mof_O 	O 	0.8263	0.1103	0.902	-0.388
Mof_O 	O 	0.8624	0.0884	0.272	-0.193
Mof_O 	O 	0.8675	0.1006	0.119	-0.109
Mof_C 	C 	0.8182	0.409	0.7425	0.244
Mof_C 	C 	0.8014	0.4006	0.8747	-0.072
Mof_C 	C 	0.7678	0.3837	0.8886	0.071
Mof_C 	C 	0.747	0.3733	0.0036	-0.061
Mof_C 	C 	0.7684	0.3842	0.1164	0.073
Mof_C 	C 	0.8021	0.4011	0.1274	-0.066
Mof_C 	C 	0.8187	0.4094	0.0002	0.081
Mof_C 	C 	0.7133	0.3564	0.9917	0.33
Mof_C 	C 	0.8168	0.4087	0.261	0.231
Mof_C 	C 	0.8692	0.356	0.5001	-0.119
Mof_C 	C 	0.6583	0.0914	0.4989	-0.125
Mof_C 	C 	0.8577	0.3033	0.4973	-0.128
Mof_C 	C 	0.8032	0.1968	0.7447	0.275
Mof_C 	C 	0.8036	0.1963	0.253	0.291
Mof_C 	C 	0.0003	0.341	0.7479	0.332
Mof_C 	C 	0.6975	0.1433	0.4962	-0.129
Mof_C 	C 	0.9088	0.3416	0.4978	-0.132
Mof_C 	C 	0.6342	0.099	0.4992	0.119
Mof_C 	C 	0.6444	0.1308	0.5005	-0.131
Mof_C 	C 	0.9017	0.3659	0.4999	0.118
Mof_C 	C 	0.6499	0.0559	0.5046	0.402
Mof_C 	C 	0.944	0.3502	0.5044	0.413
Mof_C 	C 	0.6766	0.1547	0.5003	0.116
Mof_C 	C 	0.8446	0.3233	0.5017	0.11
Mof_C 	C 	0.8597	0.38	0.4988	0.34
Mof_C 	C 	0.8325	0.2675	0.5021	0.353
Mof_C 	C 	0.6204	0.1404	0.4992	0.347
Mof_C 	C 	0.7335	0.169	0.5006	0.362
Mof_C 	C 	0.6904	0.1138	0.4975	0.126
Mof_C 	C 	0.8874	0.3099	0.498	0.127
Mof_C 	C 	0.9998	0.3406	0.2546	0.312
Mof_C 	C 	0.0003	0.343	0.9998	0.087
Mof_C 	C 	0.8029	0.1971	0.9998	0.09
Mof_C 	C 	0.8111	0.1888	0.13	-0.114
Mof_C 	C 	0.8103	0.1879	0.873	-0.109
Mof_C 	C 	0.0127	0.3347	0.879	-0.053
Mof_C 	C 	0.9913	0.3222	0.879	-0.064
Mof_C 	C 	0.0149	0.3079	0.871	0.081
Mof_C 	C 	0.982	0.2902	0.868	0.082
Mof_C 	C 	0.0104	0.3318	0.123	-0.069
Mof_C 	C 	0.9879	0.3227	0.121	-0.04
Mof_C 	C 	0.9814	0.2917	0.126	0.08
Mof_C 	C 	0.0174	0.3079	0.133	0.082
Mof_C 	C 	0.8412	0.1885	0.88	0.089
Mof_C 	C 	0.8127	0.1585	0.874	0.066
Mof_C 	C 	0.8421	0.1867	0.123	0.083
Mof_C 	C 	0.8122	0.1585	0.124	0.065
Mof_C 	C 	0.0375	0.2773	0.008	0.525
Mof_C 	C 	0.9633	0.2396	0.989	0.522
Mof_C 	C 	0.0274	0.3002	0.999	-0.155
Mof_C 	C 	0.9731	0.2735	0.995	-0.149
Mof_C 	C 	0.8321	0.1255	0.004	0.396
Mof_C 	C 	0.8756	0.17	0.001	0.492
Mof_C 	C 	0.8543	0.1846	0.997	-0.162
Mof_C 	C 	0.8162	0.1456	-0	-0.099
Mof_In	In	0.79238	0.58477	0.4998	2.532
Mof_In	In	0.63994	0.63994	0.50004	2.524
Mof_In	In	0.57983	0.42017	0.50012	2.289
Mof_Co	Co	0.82024	0.75455	0.8346	1.194
Mof_Co	Co	0.82042	0.75458	0.1654	1.18
Mof_Co	Co	0.93434	0.75473	0.8343	1.195
Mof_Co	Co	0.93429	0.75456	0.1659	1.202
Mof_O 	O 	0.6344	0.6348	0.7336	-0.476
Mof_O 	O 	0.8127	0.6256	0.3565	-0.474
Mof_O 	O 	0.6446	0.35446	0.1143	-0.476
Mof_O 	O 	0.6453	0.35644	0.8685	-0.477
Mof_O 	O 	0.6751	0.6746	0.6442	-0.49
Mof_O 	O 	0.7887	0.5773	0.2623	-0.435
Mof_O 	O 	0.7884	0.5766	0.7363	-0.436
Mof_O 	O 	0.6346	0.6344	0.2665	-0.469
Mof_O 	O 	0.5765	0.4232	0.261	-0.405
Mof_O 	O 	0.8126	0.6256	0.6463	-0.463
Mof_O 	O 	0.5919	0.4721	0.5005	-0.456
Mof_O 	O 	0.8797	0.4716	0.5009	-0.463
Mof_O 	O 	0.5765	0.4232	0.7356	-0.429
Mof_O 	O 	0.7423	0.5457	0.4999	-0.5
Mof_O 	O 	0.8403	0.5929	0.5005	-0.538
Mof_O 	O 	0.7531	0.5934	0.5001	-0.534
Mof_O 	O 	0.6225	0.5869	0.5008	-0.499
Mof_O 	O 	0.803	0.5451	0.5004	-0.505
Mof_O 	O 	0.9646	0.5872	0.4996	-0.496
Mof_O 	O 	0.6297	0.461	0.5012	-0.483
Mof_O 	O 	0.8311	0.4607	0.5008	-0.486
Mof_O 	O 	0.6709	0.6196	0.5033	-0.563
Mof_O 	O 	0.6757	0.6756	0.3551	-0.471
Mof_O 	O 	0.9489	0.62	0.4987	-0.556
Mof_O 	O 	0.6022	0.3987	0.6478	-0.398
Mof_O 	O 	0.6019	0.3987	0.3556	-0.415
Mof_O 	O 	0.8361	0.7762	0.0034	-0.391
Mof_O 	O 	0.9402	0.7763	0.0058	-0.384
Mof_O 	O 	0.7714	0.7321	0.892	-0.49
Mof_O 	O 	0.7713	0.7326	0.107	-0.416
Mof_O 	O 	0.7319	0.7726	0.108	-0.471
Mof_O 	O 	0.7318	0.7718	0.896	-0.427
Mof_O 	O 	0.8199	0.7916	0.729	-0.169
Mof_O 	O 	0.8076	0.7892	0.88	-0.11
Mof_O 	O 	0.8208	0.7921	0.266	-0.186
Mof_O 	O 	0.807	0.7889	0.119	-0.106
Mof_O 	O 	0.9712	0.7911	0.27	-0.171
Mof_O 	O 	0.7885	0.8068	0.879	-0.108
Mof_O 	O 	0.9714	0.7913	0.73	-0.171
Mof_O 	O 	0.7894	0.8074	0.121	-0.104
Mof_O 	O 	0.8271	0.7168	0.101	-0.446
Mof_O 	O 	0.8675	0.7665	0.121	-0.156
Mof_O 	O 	0.8923	0.7165	0.105	-0.396
Mof_O 	O 	0.9124	0.7752	0.732	-0.176
Mof_O 	O 	0.8988	0.7664	0.878	-0.108
Mof_O 	O 	0.8286	0.7169	0.899	-0.43
Mof_O 	O 	0.862	0.7736	0.729	-0.182
Mof_O 	O 	0.8674	0.7661	0.879	-0.103
Mof_O 	O 	0.8897	0.716	0.902	-0.388
Mof_O 	O 	0.9116	0.774	0.272	-0.193
Mof_O 	O 	0.8994	0.7669	0.119	-0.109
Mof_C 	C 	0.591	0.4092	0.7425	0.244
Mof_C 	C 	0.5994	0.4008	0.8747	-0.072
Mof_C 	C 	0.6163	0.3841	0.8886	0.071
Mof_C 	C 	0.6267	0.3737	0.0036	-0.061
Mof_C 	C 	0.6158	0.3842	0.1164	0.073
Mof_C 	C 	0.5989	0.401	0.1274	-0.066
Mof_C 	C 	0.5906	0.4093	0.0002	0.081
Mof_C 	C 	0.6436	0.3569	0.9917	0.33
Mof_C 	C 	0.5913	0.4081	0.261	0.231
Mof_C 	C 	0.644	0.5132	0.5001	-0.119
Mof_C 	C 	0.9086	0.5669	0.4989	-0.125
Mof_C 	C 	0.6967	0.5544	0.4973	-0.128
Mof_C 	C 	0.8032	0.6064	0.7447	0.275
Mof_C 	C 	0.8037	0.6073	0.253	0.291
Mof_C 	C 	0.659	0.6593	0.7479	0.341
Mof_C 	C 	0.8567	0.5542	0.4962	-0.129
Mof_C 	C 	0.6584	0.5672	0.4978	-0.133
Mof_C 	C 	0.901	0.5352	0.4992	0.12
Mof_C 	C 	0.8692	0.5136	0.5005	-0.131
Mof_C 	C 	0.6341	0.5358	0.4999	0.118
Mof_C 	C 	0.9441	0.594	0.5046	0.401
Mof_C 	C 	0.6498	0.5938	0.5044	0.414
Mof_C 	C 	0.8453	0.5219	0.5003	0.116
Mof_C 	C 	0.6767	0.5213	0.5017	0.11
Mof_C 	C 	0.62	0.4797	0.4988	0.34
Mof_C 	C 	0.7325	0.565	0.5021	0.353
Mof_C 	C 	0.8596	0.48	0.4992	0.347
Mof_C 	C 	0.831	0.5645	0.5006	0.362
Mof_C 	C 	0.8862	0.5766	0.4975	0.126
Mof_C 	C 	0.6901	0.5775	0.498	0.127
Mof_C 	C 	0.6594	0.6592	0.2546	0.311
Mof_C 	C 	0.657	0.6573	0.9998	0.094
Mof_C 	C 	0.8029	0.6058	0.9998	0.09
Mof_C 	C 	0.8112	0.6223	0.13	-0.114
Mof_C 	C 	0.8121	0.6224	0.873	-0.109
Mof_C 	C 	0.6653	0.678	0.879	-0.042
Mof_C 	C 	0.6778	0.6691	0.879	-0.082
Mof_C 	C 	0.6921	0.707	0.871	0.082
Mof_C 	C 	0.7098	0.6918	0.868	0.086
Mof_C 	C 	0.6682	0.6786	0.123	-0.057
Mof_C 	C 	0.6773	0.6652	0.121	-0.054
Mof_C 	C 	0.7083	0.6897	0.126	0.082
Mof_C 	C 	0.6921	0.7095	0.133	0.081
Mof_C 	C 	0.8115	0.6527	0.88	0.089
Mof_C 	C 	0.8415	0.6542	0.874	0.066
Mof_C 	C 	0.8133	0.6554	0.123	0.083
Mof_C 	C 	0.8415	0.6537	0.124	0.065
Mof_C 	C 	0.7227	0.7602	0.008	0.525
Mof_C 	C 	0.7604	0.7237	0.989	0.522
Mof_C 	C 	0.6998	0.7272	0.999	-0.154
Mof_C 	C 	0.7265	0.6996	0.995	-0.152
Mof_C 	C 	0.8745	0.7066	0.004	0.396
Mof_C 	C 	0.83	0.7056	0.001	0.492
Mof_C 	C 	0.8154	0.6697	0.997	-0.162
Mof_C 	C 	0.8544	0.6706	-0	-0.099
Mof_In	In	0.41523	0.20761	0.4998	2.532
Mof_In	In	0.36006	-2.38675e-33	0.50004	2.513
Mof_In	In	0.57983	0.15966	0.50012	2.288
Mof_Co	Co	0.24545	0.06569	0.8346	1.194
Mof_Co	Co	0.24542	0.06584	0.1654	1.18
Mof_Co	Co	0.24527	0.17961	0.8343	1.195
Mof_Co	Co	0.24544	0.17973	0.1659	1.202
Mof_O 	O 	0.3652	0.9996	0.7336	-0.475
Mof_O 	O 	0.3744	0.1871	0.3565	-0.474
Mof_O 	O 	0.64554	0.29014	0.1143	-0.476
Mof_O 	O 	0.64356	0.28886	0.8685	-0.477
Mof_O 	O 	0.3254	0.0005	0.6442	-0.495
Mof_O 	O 	0.4227	0.2114	0.2623	-0.435
Mof_O 	O 	0.4234	0.2118	0.7363	-0.436
Mof_O 	O 	0.3656	0.0002	0.2665	-0.469
Mof_O 	O 	0.5768	0.1533	0.261	-0.405
Mof_O 	O 	0.3744	0.187	0.6463	-0.463
Mof_O 	O 	0.5279	0.1198	0.5005	-0.456
Mof_O 	O 	0.5284	0.4081	0.5009	-0.464
Mof_O 	O 	0.5768	0.1533	0.7356	-0.429
Mof_O 	O 	0.4543	0.1966	0.4999	-0.499
Mof_O 	O 	0.4071	0.2474	0.5005	-0.538
Mof_O 	O 	0.4066	0.1597	0.5001	-0.534
Mof_O 	O 	0.4131	0.0356	0.5008	-0.499
Mof_O 	O 	0.4549	0.2579	0.5004	-0.505
Mof_O 	O 	0.4128	0.3774	0.4996	-0.499
Mof_O 	O 	0.539	0.1687	0.5012	-0.483
Mof_O 	O 	0.5393	0.3704	0.5008	-0.486
Mof_O 	O 	0.3804	0.0513	0.5033	-0.562
Mof_O 	O 	0.3244	0.0001	0.3551	-0.471
Mof_O 	O 	0.38	0.3289	0.4987	-0.559
Mof_O 	O 	0.6013	0.2035	0.6478	-0.398
Mof_O 	O 	0.6013	0.2032	0.3556	-0.414
Mof_O 	O 	0.2238	0.0599	0.0034	-0.392
Mof_O 	O 	0.2237	0.1639	0.0058	-0.384
Mof_O 	O 	0.2679	0.0393	0.892	-0.491
Mof_O 	O 	0.2674	0.0387	0.107	-0.417
Mof_O 	O 	0.2274	0.9593	0.108	-0.47
Mof_O 	O 	0.2282	0.96	0.896	-0.426
Mof_O 	O 	0.2084	0.0283	0.729	-0.171
Mof_O 	O 	0.2108	0.0184	0.88	-0.112
Mof_O 	O 	0.2079	0.0287	0.266	-0.188
Mof_O 	O 	0.2111	0.0181	0.119	-0.108
Mof_O 	O 	0.2089	0.1801	0.27	-0.172
Mof_O 	O 	0.1932	0.9817	0.879	-0.106
Mof_O 	O 	0.2087	0.1801	0.73	-0.173
Mof_O 	O 	0.1926	0.982	0.121	-0.102
Mof_O 	O 	0.2832	0.1103	0.101	-0.446
Mof_O 	O 	0.2335	0.101	0.121	-0.156
Mof_O 	O 	0.2835	0.1758	0.105	-0.396
Mof_O 	O 	0.2248	0.1372	0.732	-0.176
Mof_O 	O 	0.2336	0.1324	0.878	-0.108
Mof_O 	O 	0.2831	0.1117	0.899	-0.43
Mof_O 	O 	0.2264	0.0884	0.729	-0.183
Mof_O 	O 	0.2339	0.1013	0.879	-0.103
Mof_O 	O 	0.284	0.1737	0.902	-0.388
Mof_O 	O 	0.226	0.1376	0.272	-0.194
Mof_O 	O 	0.2331	0.1325	0.119	-0.11
Mof_C 	C 	0.5908	0.1818	0.7425	0.244
Mof_C 	C 	0.5992	0.1986	0.8747	-0.072
Mof_C 	C 	0.6159	0.2322	0.8886	0.071
Mof_C 	C 	0.6263	0.253	0.0036	-0.061
Mof_C 	C 	0.6158	0.2316	0.1164	0.073
Mof_C 	C 	0.599	0.1979	0.1274	-0.066
Mof_C 	C 	0.5907	0.1813	0.0002	0.081
Mof_C 	C 	0.6431	0.2867	0.9917	0.33
Mof_C 	C 	0.5919	0.1832	0.261	0.231
Mof_C 	C 	0.4868	0.1308	0.5001	-0.119
Mof_C 	C 	0.4331	0.3417	0.4989	-0.125
Mof_C 	C 	0.4456	0.1423	0.4973	-0.128
Mof_C 	C 	0.3936	0.1968	0.7447	0.275
Mof_C 	C 	0.3927	0.1964	0.253	0.292
Mof_C 	C 	0.3407	0.9997	0.7479	0.35
Mof_C 	C 	0.4458	0.3025	0.4962	-0.129
Mof_C 	C 	0.4328	0.0912	0.4978	-0.133
Mof_C 	C 	0.4648	0.3658	0.4992	0.12
Mof_C 	C 	0.4864	0.3556	0.5005	-0.131
Mof_C 	C 	0.4642	0.0983	0.4999	0.117
Mof_C 	C 	0.406	0.3501	0.5046	0.402
Mof_C 	C 	0.4062	0.056	0.5044	0.414
Mof_C 	C 	0.4781	0.3234	0.5003	0.116
Mof_C 	C 	0.4787	0.1554	0.5017	0.11
Mof_C 	C 	0.5203	0.1403	0.4988	0.34
Mof_C 	C 	0.435	0.1675	0.5021	0.353
Mof_C 	C 	0.52	0.3796	0.4992	0.347
Mof_C 	C 	0.4355	0.2665	0.5006	0.362
Mof_C 	C 	0.4234	0.3096	0.4975	0.126
Mof_C 	C 	0.4225	0.1126	0.498	0.127
Mof_C 	C 	0.3408	0.0002	0.2546	0.31
Mof_C 	C 	0.3427	0.9997	0.9998	0.1
Mof_C 	C 	0.3942	0.1971	0.9998	0.09
Mof_C 	C 	0.3777	0.1889	0.13	-0.114
Mof_C 	C 	0.3776	0.1897	0.873	-0.109
Mof_C 	C 	0.322	0.9873	0.879	-0.031
Mof_C 	C 	0.3309	0.0087	0.879	-0.102
Mof_C 	C 	0.293	0.9851	0.871	0.083
Mof_C 	C 	0.3082	0.018	0.868	0.089
Mof_C 	C 	0.3214	0.9896	0.123	-0.046
Mof_C 	C 	0.3348	0.0121	0.121	-0.067
Mof_C 	C 	0.3103	0.0186	0.126	0.084
Mof_C 	C 	0.2905	0.9826	0.133	0.081
Mof_C 	C 	0.3473	0.1588	0.88	0.089
Mof_C 	C 	0.3458	0.1873	0.874	0.066
Mof_C 	C 	0.3446	0.1579	0.123	0.083
Mof_C 	C 	0.3463	0.1878	0.124	0.065
Mof_C 	C 	0.2398	0.9625	0.008	0.526
Mof_C 	C 	0.2763	0.0367	0.989	0.523
Mof_C 	C 	0.2728	0.9726	0.999	-0.154
Mof_C 	C 	0.3004	0.0269	0.995	-0.154
Mof_C 	C 	0.2934	0.1679	0.004	0.396
Mof_C 	C 	0.2944	0.1244	0.001	0.492
Mof_C 	C 	0.3303	0.1457	0.997	-0.162
Mof_C 	C 	0.3294	0.1838	-0	-0.099
Mof_Co	Co	0.33333	0.66667	0.1902	1.102
Mof_Co	Co	0.33333	0.66667	0.8112	1.103
Mof_Co	Co	0.66667	0.33333	0.8098	1.102
Mof_Co	Co	0.66667	0.33333	0.1888	1.104
_end
