data_functionalizedCrystal
_audit_creation_method	'EQeq! by Chris Wilmer'
_symmetry_space_group_name_H-M	'P1'
_symmetry_Int_Tables_number	1
_symmetry_cell_setting	triclinic
loop_
_symmetry_equiv_pos_as_xyz
  x,y,z
_cell_length_a	10.923
_cell_length_b	15.424
_cell_length_c	15.037
_cell_angle_alpha	90
_cell_angle_beta	105.67
_cell_angle_gamma	90
loop_
_atom_site_label
_atom_site_type_symbol
_atom_site_fract_x
_atom_site_fract_y
_atom_site_fract_z
_atom_site_charge
Mof_Bi	Bi	0.52917	0.3496	0.03254	0.948
Mof_Bi	Bi	0.04259	0.53525	0.15542	0.734
Mof_K 	K 	0.781	0.1907	0.7254	2.725
Mof_O 	O 	0.026	0.376	0.159	-0.671
Mof_O 	O 	0.921	0.438	0.029	-0.401
Mof_O 	O 	0.52	0.213	0.947	-0.333
Mof_O 	O 	0.573	0.08	0.921	-0.309
Mof_O 	O 	0.627	0.384	0.917	-0.375
Mof_O 	O 	0.764	0.321	0.852	-0.589
Mof_O 	O 	0.718	0.303	0.079	-0.28
Mof_O 	O 	0.618	0.498	0.079	-0.377
Mof_O 	O 	0.604	0.407	0.188	-0.415
Mof_O 	O 	0.036	0.746	0.366	-0.613
Mof_O 	O 	0.067	0.658	0.261	-0.611
Mof_O 	O 	0.873	0.62	0.084	-0.379
Mof_O 	O 	0.722	0.695	0.123	-0.304
Mof_O 	O 	0.9	0.5073	0.2224	-0.251
Mof_C 	C 	0.958	0.372	0.08	0.456
Mof_C 	C 	0.916	0.282	0.042	-0.245
Mof_C 	C 	0.771	0.276	0.008	0.103
Mof_C 	C 	0.741	0.178	0.985	-0.241
Mof_C 	C 	0.604	0.156	0.95	0.323
Mof_C 	C 	0.722	0.33	0.923	0.281
Mof_C 	C 	0.636	0.481	0.162	0.338
Mof_C 	C 	0.693	0.549	0.235	-0.125
Mof_C 	C 	0.822	0.581	0.227	0.086
Mof_C 	C 	0.879	0.636	0.312	-0.08
Mof_C 	C 	2.04537e-33	0.684	0.312	0.368
Mof_C 	C 	0.803	0.636	0.138	0.266
Mof_Bi	Bi	0.97083	0.8496	0.46746	0.98
Mof_Bi	Bi	0.45741	0.03525	0.34458	0.777
Mof_K 	K 	0.719	0.6907	0.7746	2.711
Mof_O 	O 	0.474	0.876	0.341	-0.641
Mof_O 	O 	0.579	0.938	0.471	-0.403
Mof_O 	O 	0.98	0.713	0.553	-0.325
Mof_O 	O 	0.927	0.58	0.579	-0.301
Mof_O 	O 	0.873	0.884	0.583	-0.371
Mof_O 	O 	0.736	0.821	0.648	-0.586
Mof_O 	O 	0.782	0.803	0.421	-0.283
Mof_O 	O 	0.882	0.998	0.421	-0.372
Mof_O 	O 	0.896	0.907	0.312	-0.409
Mof_O 	O 	0.464	0.246	0.134	-0.607
Mof_O 	O 	0.433	0.158	0.239	-0.616
Mof_O 	O 	0.627	0.12	0.416	-0.393
Mof_O 	O 	0.778	0.195	0.377	-0.299
Mof_O 	O 	0.6	0.0073	0.2776	-0.271
Mof_C 	C 	0.542	0.872	0.42	0.421
Mof_C 	C 	0.584	0.782	0.458	-0.249
Mof_C 	C 	0.729	0.776	0.492	0.099
Mof_C 	C 	0.759	0.678	0.515	-0.238
Mof_C 	C 	0.896	0.656	0.55	0.322
Mof_C 	C 	0.778	0.83	0.577	0.284
Mof_C 	C 	0.864	0.981	0.338	0.338
Mof_C 	C 	0.807	0.049	0.265	-0.12
Mof_C 	C 	0.678	0.081	0.273	0.09
Mof_C 	C 	0.621	0.136	0.188	-0.103
Mof_C 	C 	0.5	0.184	0.188	0.395
Mof_C 	C 	0.697	0.136	0.362	0.262
Mof_Bi	Bi	0.47083	0.6504	0.96746	0.946
Mof_Bi	Bi	0.95741	0.46475	0.84458	0.801
Mof_K 	K 	0.219	0.8093	0.2746	2.674
Mof_O 	O 	0.974	0.624	0.841	-0.626
Mof_O 	O 	0.079	0.562	0.971	-0.403
Mof_O 	O 	0.48	0.787	0.053	-0.331
Mof_O 	O 	0.427	0.92	0.079	-0.31
Mof_O 	O 	0.373	0.616	0.083	-0.372
Mof_O 	O 	0.236	0.679	0.148	-0.584
Mof_O 	O 	0.282	0.697	0.921	-0.283
Mof_O 	O 	0.382	0.502	0.921	-0.379
Mof_O 	O 	0.396	0.593	0.812	-0.418
Mof_O 	O 	0.964	0.254	0.634	-0.575
Mof_O 	O 	0.933	0.342	0.739	-0.594
Mof_O 	O 	0.127	0.38	0.916	-0.405
Mof_O 	O 	0.278	0.305	0.877	-0.309
Mof_O 	O 	0.1	0.4927	0.7776	-0.282
Mof_C 	C 	0.042	0.628	0.92	0.398
Mof_C 	C 	0.084	0.718	0.958	-0.253
Mof_C 	C 	0.229	0.724	0.992	0.103
Mof_C 	C 	0.259	0.822	0.015	-0.246
Mof_C 	C 	0.396	0.844	0.05	0.324
Mof_C 	C 	0.278	0.67	0.077	0.281
Mof_C 	C 	0.364	0.519	0.838	0.338
Mof_C 	C 	0.307	0.451	0.765	-0.129
Mof_C 	C 	0.178	0.419	0.773	0.088
Mof_C 	C 	0.121	0.364	0.688	-0.099
Mof_C 	C 	4.51031e-33	0.316	0.688	0.346
Mof_C 	C 	0.197	0.364	0.862	0.264
Mof_Bi	Bi	0.02917	0.1504	0.53254	0.92
Mof_Bi	Bi	0.54259	0.96475	0.65542	0.777
Mof_K 	K 	0.281	0.3093	0.2254	2.691
Mof_O 	O 	0.526	0.124	0.659	-0.645
Mof_O 	O 	0.421	0.062	0.529	-0.403
Mof_O 	O 	0.02	0.287	0.447	-0.34
Mof_O 	O 	0.073	0.42	0.421	-0.317
Mof_O 	O 	0.127	0.116	0.417	-0.377
Mof_O 	O 	0.264	0.179	0.352	-0.588
Mof_O 	O 	0.218	0.197	0.579	-0.279
Mof_O 	O 	0.118	0.002	0.579	-0.385
Mof_O 	O 	0.104	0.093	0.688	-0.422
Mof_O 	O 	0.536	0.754	0.866	-0.608
Mof_O 	O 	0.567	0.842	0.761	-0.616
Mof_O 	O 	0.373	0.88	0.584	-0.396
Mof_O 	O 	0.222	0.805	0.623	-0.315
Mof_O 	O 	0.4	0.9927	0.7224	-0.272
Mof_C 	C 	0.458	0.128	0.58	0.422
Mof_C 	C 	0.416	0.218	0.542	-0.25
Mof_C 	C 	0.271	0.224	0.508	0.099
Mof_C 	C 	0.241	0.322	0.485	-0.24
Mof_C 	C 	0.104	0.344	0.45	0.324
Mof_C 	C 	0.222	0.17	0.423	0.285
Mof_C 	C 	0.136	0.019	0.662	0.342
Mof_C 	C 	0.193	0.951	0.735	-0.136
Mof_C 	C 	0.322	0.919	0.727	0.092
Mof_C 	C 	0.379	0.864	0.812	-0.107
Mof_C 	C 	0.5	0.816	0.812	0.395
Mof_C 	C 	0.303	0.864	0.638	0.263
_end
