data_functionalizedCrystal
_audit_creation_method	'EQeq! by Chris Wilmer'
_symmetry_space_group_name_H-M	'P1'
_symmetry_Int_Tables_number	1
_symmetry_cell_setting	triclinic
loop_
_symmetry_equiv_pos_as_xyz
  x,y,z
_cell_length_a	6.5175
_cell_length_b	9.5054
_cell_length_c	17.0878
_cell_angle_alpha	90
_cell_angle_beta	90
_cell_angle_gamma	90
loop_
_atom_site_label
_atom_site_type_symbol
_atom_site_fract_x
_atom_site_fract_y
_atom_site_fract_z
_atom_site_charge
Mof_Yb	Yb	0.75	0.7808	0.62088	1.694
Mof_Yb	Yb	0.25	0.7192	0.12088	1.693
Mof_Yb	Yb	0.25	0.2192	0.37912	1.693
Mof_Yb	Yb	0.75	0.2808	0.87912	1.692
Mof_H 	H 	0.75	0.2274	0.6521	0.028
Mof_H 	H 	0.25	0.2726	0.1521	0.028
Mof_H 	H 	0.25	0.7726	0.3479	0.028
Mof_H 	H 	0.75	0.7274	0.8479	0.028
Mof_C 	C 	0.75	0.6303	0.4519	0.337
Mof_C 	C 	0.75	0.5019	0.5048	-0.008
Mof_C 	C 	0.75	0.3593	0.4838	-0.066
Mof_C 	C 	0.75	0.3077	0.4	0.447
Mof_C 	C 	0.75	0.2962	0.6134	0.069
Mof_C 	C 	0.75	0.4359	0.6347	-0.067
Mof_C 	C 	0.75	0.4896	0.7171	0.475
Mof_C 	C 	0.25	0.8697	0.9519	0.339
Mof_C 	C 	0.25	0.9981	0.0048	-0.01
Mof_C 	C 	0.25	0.1407	0.9838	-0.063
Mof_C 	C 	0.25	0.1923	0.9	0.446
Mof_C 	C 	0.25	0.2038	0.1134	0.069
Mof_C 	C 	0.25	0.0641	0.1347	-0.068
Mof_C 	C 	0.25	0.0104	0.2171	0.474
Mof_C 	C 	0.25	0.3697	0.5481	0.337
Mof_C 	C 	0.25	0.4981	0.4952	-0.008
Mof_C 	C 	0.25	0.6407	0.5162	-0.066
Mof_C 	C 	0.25	0.6923	0.6	0.447
Mof_C 	C 	0.25	0.7038	0.3866	0.069
Mof_C 	C 	0.25	0.5641	0.3653	-0.067
Mof_C 	C 	0.25	0.5104	0.2829	0.475
Mof_C 	C 	0.75	0.1303	0.0481	0.339
Mof_C 	C 	0.75	0.0019	0.9952	-0.01
Mof_C 	C 	0.75	0.8593	0.0162	-0.063
Mof_C 	C 	0.75	0.8077	0.1	0.446
Mof_C 	C 	0.75	0.7962	0.8866	0.069
Mof_C 	C 	0.75	0.9359	0.8653	-0.068
Mof_C 	C 	0.75	0.9896	0.7829	0.474
Mof_N 	N 	0.75	0.5354	0.5808	-0.171
Mof_N 	N 	0.75	0.2569	0.5376	-0.134
Mof_N 	N 	0.25	0.9646	0.0808	-0.17
Mof_N 	N 	0.25	0.2431	0.0376	-0.135
Mof_N 	N 	0.25	0.4646	0.4192	-0.171
Mof_N 	N 	0.25	0.7431	0.4624	-0.134
Mof_N 	N 	0.75	0.0354	0.9192	-0.17
Mof_N 	N 	0.75	0.7569	0.9624	-0.135
Mof_O 	O 	0.9195	0.2892	0.36752	-0.473
Mof_O 	O 	0.0805	0.2108	0.86752	-0.473
Mof_O 	O 	0.4195	0.7108	0.63248	-0.474
Mof_O 	O 	0.5805	0.7892	0.13248	-0.474
Mof_O 	O 	0.0805	0.7108	0.63248	-0.473
Mof_O 	O 	0.9195	0.7892	0.13248	-0.473
Mof_O 	O 	0.5805	0.2892	0.36752	-0.474
Mof_O 	O 	0.4195	0.2108	0.86752	-0.474
Mof_O 	O 	0.75	0.7478	0.4883	-0.465
Mof_O 	O 	0.75	0.6132	0.38071	-0.25
Mof_O 	O 	0.75	0.4024	0.7707	-0.514
Mof_O 	O 	0.75	0.6195	0.7254	-0.428
Mof_O 	O 	0.25	0.7522	0.9883	-0.464
Mof_O 	O 	0.25	0.8868	0.88071	-0.25
Mof_O 	O 	0.25	0.0976	0.2707	-0.514
Mof_O 	O 	0.25	0.8805	0.2254	-0.427
Mof_O 	O 	0.25	0.2522	0.5117	-0.465
Mof_O 	O 	0.25	0.3868	0.61929	-0.25
Mof_O 	O 	0.25	0.5976	0.2293	-0.514
Mof_O 	O 	0.25	0.3805	0.2746	-0.428
Mof_O 	O 	0.75	0.2478	0.0117	-0.464
Mof_O 	O 	0.75	0.1132	0.11929	-0.25
Mof_O 	O 	0.75	0.9024	0.7293	-0.514
Mof_O 	O 	0.75	0.1195	0.7746	-0.427
_end
