data_functionalizedCrystal
_audit_creation_method	'EQeq! by Chris Wilmer'
_symmetry_space_group_name_H-M	'P1'
_symmetry_Int_Tables_number	1
_symmetry_cell_setting	triclinic
loop_
_symmetry_equiv_pos_as_xyz
  x,y,z
_cell_length_a	13.0196
_cell_length_b	13.1488
_cell_length_c	14.0444
_cell_angle_alpha	90
_cell_angle_beta	103.955
_cell_angle_gamma	90
loop_
_atom_site_label
_atom_site_type_symbol
_atom_site_fract_x
_atom_site_fract_y
_atom_site_fract_z
_atom_site_charge
Mof_Sm	Sm	0.40887	0.44675	0.08817	2.505
Mof_O 	O 	0.8495	0.1127	0.4233	-0.56
Mof_O 	O 	0.4727	0.3877	0.2564	-0.458
Mof_O 	O 	0.3585	0.512	0.2399	-0.408
Mof_O 	O 	0.57	0.4146	0.0404	-0.673
Mof_O 	O 	0.4412	0.2512	0.0862	-0.475
Mof_C 	C 	0.8826	0.1142	0.3464	0.514
Mof_C 	C 	0.4652	0.4795	0.4003	-0.04
Mof_C 	C 	0.3925	0.177	0.0478	0.466
Mof_C 	C 	0.7138	0.3073	0.1157	-0.112
Mof_C 	C 	0.7932	0.2433	0.0997	-0.01
Mof_H 	H 	0.811	0.2442	0.0394	0.062
Mof_C 	C 	0.4291	0.4579	0.2919	0.318
Mof_O 	O 	0.2901	0.1701	0.0235	-0.527
Mof_H 	H 	0.2642	0.223	0.038	0.315
Mof_C 	C 	0.8455	0.1783	0.1729	0.007
Mof_H 	H 	0.897	0.1342	0.1612	0.047
Mof_C 	C 	0.545	0.4217	0.4588	-0.021
Mof_H 	H 	0.5753	0.3685	0.4315	0.076
Mof_C 	C 	0.4202	0.5569	0.4421	-0.025
Mof_H 	H 	0.3658	0.5952	0.4035	0.082
Mof_O 	O 	0.962	0.0695	0.3323	-0.555
Mof_O 	O 	0.7041	0.4064	0.9731	-0.485
Mof_C 	C 	0.7425	0.2423	0.2797	-0.006
Mof_H 	H 	0.7254	0.2419	0.3403	0.061
Mof_C 	C 	0.8211	0.1789	0.2641	-0.122
Mof_C 	C 	0.6592	0.3793	0.038	0.454
Mof_C 	C 	0.6882	0.3071	0.2058	0.014
Mof_H 	H 	0.6353	0.3497	0.217	0.026
Mof_C 	C 	0.4479	0.084	0.0236	-0.097
Mof_C 	C 	0.5562	0.0744	0.0597	-0.003
Mof_H 	H 	0.5938	0.125	0.0997	0.05
Mof_C 	C 	0.3916	0.0096	0.9632	-0.006
Mof_H 	H 	0.3189	0.0163	0.9384	0.06
Mof_Cl	Cl	0.19673	0.36139	0.07667	-0.478
Mof_Sm	Sm	0.09113	0.94675	0.41183	2.484
Mof_O 	O 	0.6505	0.6127	0.0767	-0.56
Mof_O 	O 	0.0273	0.8877	0.2436	-0.458
Mof_O 	O 	0.1415	0.012	0.2601	-0.396
Mof_O 	O 	0.93	0.9146	0.4596	-0.663
Mof_O 	O 	0.0588	0.7512	0.4138	-0.476
Mof_C 	C 	0.6174	0.6142	0.1536	0.516
Mof_C 	C 	0.0348	0.9795	0.0997	-0.058
Mof_C 	C 	0.1075	0.677	0.4522	0.467
Mof_C 	C 	0.7862	0.8073	0.3843	-0.107
Mof_C 	C 	0.7068	0.7433	0.4003	-0.012
Mof_H 	H 	0.689	0.7442	0.4606	0.064
Mof_C 	C 	0.0709	0.9579	0.2081	0.313
Mof_O 	O 	0.2099	0.6701	0.4765	-0.529
Mof_H 	H 	0.2358	0.723	0.462	0.315
Mof_C 	C 	0.6545	0.6783	0.3271	0.009
Mof_H 	H 	0.603	0.6342	0.3388	0.047
Mof_C 	C 	0.955	0.9217	0.0412	-0.013
Mof_H 	H 	0.9247	0.8685	0.0685	0.074
Mof_C 	C 	0.0798	0.0569	0.0579	-0.009
Mof_H 	H 	0.1342	0.0952	0.0965	0.079
Mof_O 	O 	0.538	0.5695	0.1677	-0.555
Mof_O 	O 	0.7959	0.9064	0.5269	-0.479
Mof_C 	C 	0.7575	0.7423	0.2203	-0.003
Mof_H 	H 	0.7746	0.7419	0.1597	0.061
Mof_C 	C 	0.6789	0.6789	0.2359	-0.124
Mof_C 	C 	0.8408	0.8793	0.462	0.45
Mof_C 	C 	0.8118	0.8071	0.2942	0.011
Mof_H 	H 	0.8647	0.8497	0.283	0.03
Mof_C 	C 	0.0521	0.584	0.4764	-0.101
Mof_C 	C 	0.9438	0.5744	0.4403	-0.002
Mof_H 	H 	0.9062	0.625	0.4003	0.051
Mof_C 	C 	0.1084	0.5096	0.5368	-0.003
Mof_H 	H 	0.1811	0.5163	0.5616	0.058
Mof_Cl	Cl	0.30327	0.86139	0.42333	-0.479
Mof_Sm	Sm	0.59113	0.55325	0.91183	2.506
Mof_O 	O 	0.1505	0.8873	0.5767	-0.559
Mof_O 	O 	0.5273	0.6123	0.7436	-0.457
Mof_O 	O 	0.6415	0.488	0.7601	-0.407
Mof_O 	O 	0.43	0.5854	0.9596	-0.673
Mof_O 	O 	0.5588	0.7488	0.9138	-0.475
Mof_C 	C 	0.1174	0.8858	0.6536	0.514
Mof_C 	C 	0.5348	0.5205	0.5997	-0.04
Mof_C 	C 	0.6075	0.823	0.9522	0.466
Mof_C 	C 	0.2862	0.6927	0.8843	-0.112
Mof_C 	C 	0.2068	0.7567	0.9003	-0.01
Mof_H 	H 	0.189	0.7558	0.9606	0.062
Mof_C 	C 	0.5709	0.5421	0.7081	0.318
Mof_O 	O 	0.7099	0.8299	0.9765	-0.527
Mof_H 	H 	0.7358	0.777	0.962	0.315
Mof_C 	C 	0.1545	0.8217	0.8271	0.007
Mof_H 	H 	0.103	0.8658	0.8388	0.047
Mof_C 	C 	0.455	0.5783	0.5412	-0.021
Mof_H 	H 	0.4247	0.6315	0.5685	0.076
Mof_C 	C 	0.5798	0.4431	0.5579	-0.025
Mof_H 	H 	0.6342	0.4048	0.5965	0.082
Mof_O 	O 	0.038	0.9305	0.6677	-0.555
Mof_O 	O 	0.2959	0.5936	0.0269	-0.485
Mof_C 	C 	0.2575	0.7577	0.7203	-0.006
Mof_H 	H 	0.2746	0.7581	0.6597	0.061
Mof_C 	C 	0.1789	0.8211	0.7359	-0.122
Mof_C 	C 	0.3408	0.6207	0.962	0.454
Mof_C 	C 	0.3118	0.6929	0.7942	0.014
Mof_H 	H 	0.3647	0.6503	0.783	0.026
Mof_C 	C 	0.5521	0.916	0.9764	-0.097
Mof_C 	C 	0.4438	0.9256	0.9403	-0.003
Mof_H 	H 	0.4062	0.875	0.9003	0.05
Mof_C 	C 	0.6084	0.9904	0.0368	-0.006
Mof_H 	H 	0.6811	0.9837	0.0616	0.06
Mof_Cl	Cl	0.80327	0.63861	0.92333	-0.478
Mof_Sm	Sm	0.90887	0.05325	0.58817	2.484
Mof_O 	O 	0.3495	0.3873	0.9233	-0.56
Mof_O 	O 	0.9727	0.1123	0.7564	-0.458
Mof_O 	O 	0.8585	0.988	0.7399	-0.396
Mof_O 	O 	0.07	0.0854	0.5404	-0.663
Mof_O 	O 	0.9412	0.2488	0.5862	-0.476
Mof_C 	C 	0.3826	0.3858	0.8464	0.516
Mof_C 	C 	0.9652	0.0205	0.9003	-0.058
Mof_C 	C 	0.8925	0.323	0.5478	0.467
Mof_C 	C 	0.2138	0.1927	0.6157	-0.107
Mof_C 	C 	0.2932	0.2567	0.5997	-0.012
Mof_H 	H 	0.311	0.2558	0.5394	0.064
Mof_C 	C 	0.9291	0.0421	0.7919	0.313
Mof_O 	O 	0.7901	0.3299	0.5235	-0.529
Mof_H 	H 	0.7642	0.277	0.538	0.315
Mof_C 	C 	0.3455	0.3217	0.6729	0.009
Mof_H 	H 	0.397	0.3658	0.6612	0.047
Mof_C 	C 	0.045	0.0783	0.9588	-0.013
Mof_H 	H 	0.0753	0.1315	0.9315	0.074
Mof_C 	C 	0.9202	0.9431	0.9421	-0.009
Mof_H 	H 	0.8658	0.9048	0.9035	0.079
Mof_O 	O 	0.462	0.4305	0.8323	-0.555
Mof_O 	O 	0.2041	0.0936	0.4731	-0.479
Mof_C 	C 	0.2425	0.2577	0.7797	-0.003
Mof_H 	H 	0.2254	0.2581	0.8403	0.061
Mof_C 	C 	0.3211	0.3211	0.7641	-0.124
Mof_C 	C 	0.1592	0.1207	0.538	0.45
Mof_C 	C 	0.1882	0.1929	0.7058	0.011
Mof_H 	H 	0.1353	0.1503	0.717	0.03
Mof_C 	C 	0.9479	0.416	0.5236	-0.101
Mof_C 	C 	0.0562	0.4256	0.5597	-0.002
Mof_H 	H 	0.0938	0.375	0.5997	0.051
Mof_C 	C 	0.8916	0.4904	0.4632	-0.003
Mof_H 	H 	0.8189	0.4837	0.4384	0.058
Mof_Cl	Cl	0.69673	0.13861	0.57667	-0.479
_end
