data_functionalizedCrystal
_audit_creation_method	'EQeq! by Chris Wilmer'
_symmetry_space_group_name_H-M	'P1'
_symmetry_Int_Tables_number	1
_symmetry_cell_setting	triclinic
loop_
_symmetry_equiv_pos_as_xyz
  x,y,z
_cell_length_a	8.619
_cell_length_b	17.959
_cell_length_c	8.135
_cell_angle_alpha	90
_cell_angle_beta	110.828
_cell_angle_gamma	90
loop_
_atom_site_label
_atom_site_type_symbol
_atom_site_fract_x
_atom_site_fract_y
_atom_site_fract_z
_atom_site_charge
Mof_Pr	Pr	0.21346	0.52231	0.74888	2.677
Mof_S 	S 	0.80418	0.76485	0.6251	0.077
Mof_O 	O 	0.8855	0.5613	0.5049	-0.697
Mof_O 	O 	0.0237	0.6288	0.7386	-0.541
Mof_O 	O 	0.3989	0.8818	0.4062	-0.652
Mof_O 	O 	0.6475	0.9171	0.5891	-0.657
Mof_O 	O 	0.2007	0.5352	0.054	-0.487
Mof_O 	O 	0.0277	0.5401	0.2037	-0.508
Mof_O 	O 	0.4896	0.507	0.6864	-0.799
Mof_H 	H 	0.5823	0.4994	0.7684	0.34
Mof_H 	H 	0.4732	0.5537	0.6778	0.223
Mof_C 	C 	0.7671	0.6751	0.5448	-0.156
Mof_C 	C 	0.608	0.6678	0.4266	-0.01
Mof_H 	H 	0.5653	0.6234	0.3695	0.026
Mof_C 	C 	0.5161	0.7341	0.4009	0.027
Mof_H 	H 	0.4059	0.7382	0.3267	0.011
Mof_C 	C 	0.6064	0.7918	0.4966	-0.197
Mof_C 	C 	0.8981	0.6185	0.5986	0.454
Mof_C 	C 	0.5471	0.8693	0.4967	0.582
Mof_C 	C 	0.066	0.5215	0.0748	0.281
Mof_Pr	Pr	0.78654	0.02231	0.75112	2.67
Mof_S 	S 	0.19582	0.26485	0.8749	0.082
Mof_O 	O 	0.1145	0.0613	0.9951	-0.692
Mof_O 	O 	0.9763	0.1288	0.7614	-0.545
Mof_O 	O 	0.6011	0.3818	0.0938	-0.652
Mof_O 	O 	0.3525	0.4171	0.9109	-0.657
Mof_O 	O 	0.7993	0.0352	0.446	-0.485
Mof_O 	O 	0.9723	0.0401	0.2963	-0.506
Mof_O 	O 	0.5104	0.007	0.8136	-0.798
Mof_H 	H 	0.4177	0.9994	0.7316	0.341
Mof_H 	H 	0.5268	0.0537	0.8222	0.223
Mof_C 	C 	0.2329	0.1751	0.9552	-0.155
Mof_C 	C 	0.392	0.1678	0.0734	-0.014
Mof_H 	H 	0.4347	0.1234	0.1305	0.027
Mof_C 	C 	0.4839	0.2341	0.0991	0.03
Mof_H 	H 	0.5941	0.2382	0.1733	0.011
Mof_C 	C 	0.3936	0.2918	0.0034	-0.2
Mof_C 	C 	0.1019	0.1185	0.9014	0.459
Mof_C 	C 	0.4529	0.3693	0.0033	0.582
Mof_C 	C 	0.934	0.0215	0.4252	0.282
Mof_Pr	Pr	0.78654	0.47769	0.25112	2.678
Mof_S 	S 	0.19582	0.23515	0.3749	0.078
Mof_O 	O 	0.1145	0.4387	0.4951	-0.696
Mof_O 	O 	0.9763	0.3712	0.2614	-0.54
Mof_O 	O 	0.6011	0.1182	0.5938	-0.651
Mof_O 	O 	0.3525	0.0829	0.4109	-0.656
Mof_O 	O 	0.7993	0.4648	0.946	-0.487
Mof_O 	O 	0.9723	0.4599	0.7963	-0.508
Mof_O 	O 	0.5104	0.493	0.3136	-0.799
Mof_H 	H 	0.4177	0.5006	0.2316	0.34
Mof_H 	H 	0.5268	0.4463	0.3222	0.223
Mof_C 	C 	0.2329	0.3249	0.4552	-0.156
Mof_C 	C 	0.392	0.3322	0.5734	-0.01
Mof_H 	H 	0.4347	0.3766	0.6305	0.026
Mof_C 	C 	0.4839	0.2659	0.5991	0.027
Mof_H 	H 	0.5941	0.2618	0.6733	0.011
Mof_C 	C 	0.3936	0.2082	0.5034	-0.197
Mof_C 	C 	0.1019	0.3815	0.4014	0.454
Mof_C 	C 	0.4529	0.1307	0.5033	0.582
Mof_C 	C 	0.934	0.4785	0.9252	0.281
Mof_Pr	Pr	0.21346	0.97769	0.24888	2.67
Mof_S 	S 	0.80418	0.73515	0.1251	0.082
Mof_O 	O 	0.8855	0.9387	0.0049	-0.692
Mof_O 	O 	0.0237	0.8712	0.2386	-0.545
Mof_O 	O 	0.3989	0.6182	0.9062	-0.652
Mof_O 	O 	0.6475	0.5829	0.0891	-0.657
Mof_O 	O 	0.2007	0.9648	0.554	-0.485
Mof_O 	O 	0.0277	0.9599	0.7037	-0.506
Mof_O 	O 	0.4896	0.993	0.1864	-0.798
Mof_H 	H 	0.5823	0.0006	0.2684	0.341
Mof_H 	H 	0.4732	0.9463	0.1778	0.223
Mof_C 	C 	0.7671	0.8249	0.0448	-0.155
Mof_C 	C 	0.608	0.8322	0.9266	-0.014
Mof_H 	H 	0.5653	0.8766	0.8695	0.027
Mof_C 	C 	0.5161	0.7659	0.9009	0.03
Mof_H 	H 	0.4059	0.7618	0.8267	0.011
Mof_C 	C 	0.6064	0.7082	0.9966	-0.2
Mof_C 	C 	0.8981	0.8815	0.0986	0.459
Mof_C 	C 	0.5471	0.6307	0.9967	0.582
Mof_C 	C 	0.066	0.9785	0.5748	0.282
_end
