data_functionalizedCrystal
_audit_creation_method	'EQeq! by Chris Wilmer'
_symmetry_space_group_name_H-M	'P1'
_symmetry_Int_Tables_number	1
_symmetry_cell_setting	triclinic
loop_
_symmetry_equiv_pos_as_xyz
  x,y,z
_cell_length_a	35.4351
_cell_length_b	14.9537
_cell_length_c	31.192
_cell_angle_alpha	90
_cell_angle_beta	102.416
_cell_angle_gamma	90
loop_
_atom_site_label
_atom_site_type_symbol
_atom_site_fract_x
_atom_site_fract_y
_atom_site_fract_z
_atom_site_charge
Mof_I 	I 	0.86423	0.7251	0.9464	-0.622
Mof_Zn	Zn	0.3257	0.3541	0.7262	0.652
Mof_Zn	Zn	0.62284	0.58931	0.56344	1.161
Mof_N 	N 	0.8182	0.3182	0.75	-0.101
Mof_N 	N 	0.4602	0.3486	0.59	-0.13
Mof_C 	C 	0.7581	0.3945	0.6954	0.109
Mof_C 	C 	0.794	0.2726	0.7188	0.213
Mof_N 	N 	0.4737	0.2697	0.5292	-0.15
Mof_N 	N 	0.7787	0.4454	0.7271	-0.14
Mof_N 	N 	0.4228	0.2212	0.5623	-0.133
Mof_N 	N 	0.7642	0.3059	0.6897	-0.131
Mof_N 	N 	0.6658	0.5278	0.6074	-0.272
Mof_C 	C 	0.53	0.4033	0.5234	-0.143
Mof_H 	H 	0.5192	0.3722	0.497	0.079
Mof_C 	C 	0.4392	0.1349	0.504	0.047
Mof_C 	C 	0.8327	0.4555	0.7889	0.06
Mof_C 	C 	0.8235	0.5433	0.7969	-0.117
Mof_H 	H 	0.8021	0.572	0.7786	0.07
Mof_C 	C 	0.4809	0.3349	0.5598	0.088
Mof_N 	N 	0.5774	0.5039	0.5608	-0.288
Mof_C 	C 	0.8088	0.4023	0.7523	0.156
Mof_N 	N 	0.3588	0.3347	0.6786	-0.323
Mof_C 	C 	0.4457	0.2138	0.5341	0.099
Mof_N 	N 	0.8774	0.5501	0.8578	-0.27
Mof_C 	C 	0.8011	0.1744	0.7171	0.07
Mof_C 	C 	0.7261	0.4392	0.6643	0.037
Mof_C 	C 	0.3698	0.2668	0.6155	-0.165
Mof_H 	H 	0.3607	0.2289	0.591	0.092
Mof_C 	C 	0.5143	0.3927	0.5595	0.055
Mof_C 	C 	0.704	0.3963	0.6288	-0.106
Mof_H 	H 	0.7086	0.3351	0.6237	0.088
Mof_C 	C 	0.4063	0.3065	0.6211	0.09
Mof_C 	C 	0.4603	0.0337	0.4548	0.059
Mof_H 	H 	0.4794	0.0162	0.4393	-0.004
Mof_C 	C 	0.6879	0.5691	0.6431	0.047
Mof_H 	H 	0.6827	0.6299	0.6486	0.019
Mof_C 	C 	0.4056	0.0827	0.5	-0.118
Mof_H 	H 	0.3861	0.0974	0.5154	0.077
Mof_C 	C 	0.4307	0.2918	0.5892	0.101
Mof_C 	C 	0.8463	0.589	0.8325	0.057
Mof_H 	H 	0.8397	0.6483	0.8388	-0.009
Mof_C 	C 	0.5604	0.4573	0.5249	0.078
Mof_H 	H 	0.5705	0.463	0.4992	-0.008
Mof_C 	C 	0.4662	0.1093	0.4812	-0.107
Mof_H 	H 	0.4892	0.1433	0.4835	0.064
Mof_C 	C 	0.4168	0.3639	0.6568	-0.155
Mof_H 	H 	0.4408	0.3945	0.6617	0.097
Mof_C 	C 	0.7171	0.5269	0.6711	-0.119
Mof_H 	H 	0.7315	0.5584	0.6957	0.088
Mof_C 	C 	0.675	0.4418	0.6003	0.055
Mof_H 	H 	0.6611	0.4118	0.5749	0.005
Mof_C 	C 	0.4022	0.0099	0.473	0.075
Mof_H 	H 	0.3796	0.9745	0.4702	-0.013
Mof_C 	C 	0.5642	0.4907	0.5949	0.097
Mof_H 	H 	0.5766	0.5214	0.6208	-0.024
Mof_C 	C 	0.3479	0.2821	0.6446	0.116
Mof_H 	H 	0.3234	0.2537	0.6405	-0.116
Mof_C 	C 	0.8641	0.4171	0.8159	-0.113
Mof_H 	H 	0.8702	0.3562	0.8122	0.108
Mof_C 	C 	0.3934	0.3755	0.6835	0.105
Mof_H 	H 	0.4012	0.4147	0.7078	-0.028
Mof_C 	C 	0.5328	0.4346	0.5979	-0.141
Mof_H 	H 	0.5249	0.4259	0.6248	0.092
Mof_C 	C 	0.8867	0.4672	0.8485	0.076
Mof_H 	H 	0.9098	0.4417	0.865	-0.003
Mof_I 	I 	0.26266	0.26728	0.69827	2.066
Mof_I 	I 	0.36871	0.32812	0.80127	-0.455
Mof_I 	I 	0.64198	0.58304	0.48997	-0.388
Mof_C 	C 	0.7757	0.1167	0.6918	-0.109
Mof_H 	H 	0.7534	0.1397	0.6725	0.085
Mof_C 	C 	0.7822	0.0264	0.6937	0.067
Mof_H 	H 	0.764	0.9879	0.6758	-0.036
Mof_C 	C 	0.8335	0.1384	0.7457	-0.097
Mof_H 	H 	0.8513	0.1761	0.7645	0.096
Mof_C 	C 	0.8389	0.0454	0.7461	0.066
Mof_H 	H 	0.861	0.0206	0.7651	-0.011
Mof_N 	N 	0.8138	0.9905	0.7204	-0.296
Mof_N 	N 	0.4279	0.9851	0.4506	-0.276
Mof_I 	I 	0.97475	0.64791	0.87133	-0.733
Mof_Zn	Zn	0.91561	0.6196	0.90604	1.14
Mof_I 	I 	0.88213	0.73662	0.93986	0.277
Mof_I 	I 	0.60416	0.73329	0.60187	-0.472
Mof_I 	I 	0.9639	0.6642	0.8838	0.342
Mof_I 	I 	0.355	0.3157	0.7924	0.032
Mof_I 	I 	0.2443	0.2721	0.7124	-2.465
Mof_Zn	Zn	0.3153	0.3556	0.718	0.525
Mof_I 	I 	0.61653	0.7323	0.5888	0.105
Mof_I 	I 	0.36423	0.2251	0.9464	-0.621
Mof_Zn	Zn	0.8257	0.8541	0.7262	0.653
Mof_Zn	Zn	0.12284	0.08931	0.56344	1.162
Mof_N 	N 	0.3182	0.8182	0.75	-0.1
Mof_N 	N 	0.9602	0.8486	0.59	-0.129
Mof_C 	C 	0.2581	0.8945	0.6954	0.11
Mof_C 	C 	0.294	0.7726	0.7188	0.213
Mof_N 	N 	0.9737	0.7697	0.5292	-0.15
Mof_N 	N 	0.2787	0.9454	0.7271	-0.14
Mof_N 	N 	0.9228	0.7212	0.5623	-0.133
Mof_N 	N 	0.2642	0.8059	0.6897	-0.131
Mof_N 	N 	0.1658	0.0278	0.6074	-0.272
Mof_C 	C 	0.03	0.9033	0.5234	-0.143
Mof_H 	H 	0.0192	0.8722	0.497	0.079
Mof_C 	C 	0.9392	0.6349	0.504	0.047
Mof_C 	C 	0.3327	0.9555	0.7889	0.06
Mof_C 	C 	0.3235	0.0433	0.7969	-0.117
Mof_H 	H 	0.3021	0.072	0.7786	0.07
Mof_C 	C 	0.9809	0.8349	0.5598	0.088
Mof_N 	N 	0.0774	0.0039	0.5608	-0.288
Mof_C 	C 	0.3088	0.9023	0.7523	0.156
Mof_N 	N 	0.8588	0.8347	0.6786	-0.323
Mof_C 	C 	0.9457	0.7138	0.5341	0.099
Mof_N 	N 	0.3774	0.0501	0.8578	-0.27
Mof_C 	C 	0.3011	0.6744	0.7171	0.07
Mof_C 	C 	0.2261	0.9392	0.6643	0.037
Mof_C 	C 	0.8698	0.7668	0.6155	-0.165
Mof_H 	H 	0.8607	0.7289	0.591	0.092
Mof_C 	C 	0.0143	0.8927	0.5595	0.055
Mof_C 	C 	0.204	0.8963	0.6288	-0.106
Mof_H 	H 	0.2086	0.8351	0.6237	0.088
Mof_C 	C 	0.9063	0.8065	0.6211	0.09
Mof_C 	C 	0.9603	0.5337	0.4548	0.059
Mof_H 	H 	0.9794	0.5162	0.4393	-0.004
Mof_C 	C 	0.1879	0.0691	0.6431	0.047
Mof_H 	H 	0.1827	0.1299	0.6486	0.019
Mof_C 	C 	0.9056	0.5827	0.5	-0.118
Mof_H 	H 	0.8861	0.5974	0.5154	0.077
Mof_C 	C 	0.9307	0.7918	0.5892	0.101
Mof_C 	C 	0.3463	0.089	0.8325	0.057
Mof_H 	H 	0.3397	0.1483	0.8388	-0.009
Mof_C 	C 	0.0604	0.9573	0.5249	0.078
Mof_H 	H 	0.0705	0.963	0.4992	-0.008
Mof_C 	C 	0.9662	0.6093	0.4812	-0.107
Mof_H 	H 	0.9892	0.6433	0.4835	0.064
Mof_C 	C 	0.9168	0.8639	0.6568	-0.155
Mof_H 	H 	0.9408	0.8945	0.6617	0.097
Mof_C 	C 	0.2171	0.0269	0.6711	-0.119
Mof_H 	H 	0.2315	0.0584	0.6957	0.088
Mof_C 	C 	0.175	0.9418	0.6003	0.055
Mof_H 	H 	0.1611	0.9118	0.5749	0.005
Mof_C 	C 	0.9022	0.5099	0.473	0.075
Mof_H 	H 	0.8796	0.4745	0.4702	-0.013
Mof_C 	C 	0.0642	0.9907	0.5949	0.097
Mof_H 	H 	0.0766	0.0214	0.6208	-0.024
Mof_C 	C 	0.8479	0.7821	0.6446	0.116
Mof_H 	H 	0.8234	0.7537	0.6405	-0.116
Mof_C 	C 	0.3641	0.9171	0.8159	-0.113
Mof_H 	H 	0.3702	0.8562	0.8122	0.108
Mof_C 	C 	0.8934	0.8755	0.6835	0.105
Mof_H 	H 	0.9012	0.9147	0.7078	-0.028
Mof_C 	C 	0.0328	0.9346	0.5979	-0.141
Mof_H 	H 	0.0249	0.9259	0.6248	0.092
Mof_C 	C 	0.3867	0.9672	0.8485	0.076
Mof_H 	H 	0.4098	0.9417	0.865	-0.003
Mof_I 	I 	0.76266	0.76728	0.69827	2.066
Mof_I 	I 	0.86871	0.82812	0.80127	-0.455
Mof_I 	I 	0.14198	0.08304	0.48997	-0.388
Mof_C 	C 	0.2757	0.6167	0.6918	-0.109
Mof_H 	H 	0.2534	0.6397	0.6725	0.085
Mof_C 	C 	0.2822	0.5264	0.6937	0.067
Mof_H 	H 	0.264	0.4879	0.6758	-0.036
Mof_C 	C 	0.3335	0.6384	0.7457	-0.097
Mof_H 	H 	0.3513	0.6761	0.7645	0.096
Mof_C 	C 	0.3389	0.5454	0.7461	0.066
Mof_H 	H 	0.361	0.5206	0.7651	-0.011
Mof_N 	N 	0.3138	0.4905	0.7204	-0.296
Mof_N 	N 	0.9279	0.4851	0.4506	-0.276
Mof_I 	I 	0.47475	0.14791	0.87133	-0.733
Mof_Zn	Zn	0.41561	0.1196	0.90604	1.14
Mof_I 	I 	0.38213	0.23662	0.93986	0.277
Mof_I 	I 	0.10416	0.23329	0.60187	-0.472
Mof_I 	I 	0.4639	0.1642	0.8838	0.342
Mof_I 	I 	0.855	0.8157	0.7924	0.032
Mof_I 	I 	0.7443	0.7721	0.7124	-2.465
Mof_Zn	Zn	0.8153	0.8556	0.718	0.525
Mof_I 	I 	0.11653	0.2323	0.5888	0.105
Mof_I 	I 	0.86423	0.2749	0.4464	-0.621
Mof_Zn	Zn	0.3257	0.6459	0.2262	0.653
Mof_Zn	Zn	0.62284	0.41069	0.06344	1.162
Mof_N 	N 	0.8182	0.6818	0.25	-0.1
Mof_N 	N 	0.4602	0.6514	0.09	-0.13
Mof_C 	C 	0.7581	0.6055	0.1954	0.11
Mof_C 	C 	0.794	0.7274	0.2188	0.213
Mof_N 	N 	0.4737	0.7303	0.0292	-0.15
Mof_N 	N 	0.7787	0.5546	0.2271	-0.14
Mof_N 	N 	0.4228	0.7788	0.0623	-0.133
Mof_N 	N 	0.7642	0.6941	0.1897	-0.131
Mof_N 	N 	0.6658	0.4722	0.1074	-0.272
Mof_C 	C 	0.53	0.5967	0.0234	-0.139
Mof_H 	H 	0.5192	0.6278	0.997	0.076
Mof_C 	C 	0.4392	0.8651	0.004	0.05
Mof_C 	C 	0.8327	0.5445	0.2889	0.06
Mof_C 	C 	0.8235	0.4567	0.2969	-0.117
Mof_H 	H 	0.8021	0.428	0.2786	0.07
Mof_C 	C 	0.4809	0.6651	0.0598	0.088
Mof_N 	N 	0.5774	0.4961	0.0608	-0.288
Mof_C 	C 	0.8088	0.5977	0.2523	0.156
Mof_N 	N 	0.3588	0.6653	0.1786	-0.323
Mof_C 	C 	0.4457	0.7862	0.0341	0.099
Mof_N 	N 	0.8774	0.4499	0.3578	-0.27
Mof_C 	C 	0.8011	0.8256	0.2171	0.07
Mof_C 	C 	0.7261	0.5608	0.1643	0.037
Mof_C 	C 	0.3698	0.7332	0.1155	-0.165
Mof_H 	H 	0.3607	0.7711	0.091	0.092
Mof_C 	C 	0.5143	0.6073	0.0595	0.054
Mof_C 	C 	0.704	0.6037	0.1288	-0.106
Mof_H 	H 	0.7086	0.6649	0.1237	0.088
Mof_C 	C 	0.4063	0.6935	0.1211	0.09
Mof_C 	C 	0.4603	0.9663	0.9548	0.06
Mof_H 	H 	0.4794	0.9838	0.9393	-0.005
Mof_C 	C 	0.6879	0.4309	0.1431	0.047
Mof_H 	H 	0.6827	0.3701	0.1486	0.019
Mof_C 	C 	0.4056	0.9173	-0	-0.115
Mof_H 	H 	0.3861	0.9026	0.0154	0.076
Mof_C 	C 	0.4307	0.7082	0.0892	0.101
Mof_C 	C 	0.8463	0.411	0.3325	0.057
Mof_H 	H 	0.8397	0.3517	0.3388	-0.009
Mof_C 	C 	0.5604	0.5427	0.0249	0.08
Mof_H 	H 	0.5705	0.537	0.9992	-0.011
Mof_C 	C 	0.4662	0.8907	0.9812	-0.11
Mof_H 	H 	0.4892	0.8567	0.9835	0.065
Mof_C 	C 	0.4168	0.6361	0.1568	-0.155
Mof_H 	H 	0.4408	0.6055	0.1617	0.097
Mof_C 	C 	0.7171	0.4731	0.1711	-0.119
Mof_H 	H 	0.7315	0.4416	0.1957	0.088
Mof_C 	C 	0.675	0.5582	0.1003	0.055
Mof_H 	H 	0.6611	0.5882	0.0749	0.005
Mof_C 	C 	0.4022	0.9901	0.973	0.072
Mof_H 	H 	0.3796	0.0255	0.9702	-0.013
Mof_C 	C 	0.5642	0.5093	0.0949	0.097
Mof_H 	H 	0.5766	0.4786	0.1208	-0.024
Mof_C 	C 	0.3479	0.7179	0.1446	0.116
Mof_H 	H 	0.3234	0.7463	0.1405	-0.116
Mof_C 	C 	0.8641	0.5829	0.3159	-0.113
Mof_H 	H 	0.8702	0.6438	0.3122	0.108
Mof_C 	C 	0.3934	0.6245	0.1835	0.105
Mof_H 	H 	0.4012	0.5853	0.2078	-0.028
Mof_C 	C 	0.5328	0.5654	0.0979	-0.14
Mof_H 	H 	0.5249	0.5741	0.1248	0.092
Mof_C 	C 	0.8867	0.5328	0.3485	0.076
Mof_H 	H 	0.9098	0.5583	0.365	-0.003
Mof_I 	I 	0.26266	0.73272	0.19827	2.065
Mof_I 	I 	0.36871	0.67188	0.30127	-0.455
Mof_I 	I 	0.64198	0.41696	0.98997	-0.39
Mof_C 	C 	0.7757	0.8833	0.1918	-0.109
Mof_H 	H 	0.7534	0.8603	0.1725	0.085
Mof_C 	C 	0.7822	0.9736	0.1937	0.066
Mof_H 	H 	0.764	0.0121	0.1758	-0.036
Mof_C 	C 	0.8335	0.8616	0.2457	-0.097
Mof_H 	H 	0.8513	0.8239	0.2645	0.096
Mof_C 	C 	0.8389	0.9546	0.2461	0.065
Mof_H 	H 	0.861	0.9794	0.2651	-0.011
Mof_N 	N 	0.8138	0.0095	0.2204	-0.296
Mof_N 	N 	0.4279	0.0149	0.9506	-0.276
Mof_I 	I 	0.97475	0.35209	0.37133	-0.733
Mof_Zn	Zn	0.91561	0.3804	0.40604	1.14
Mof_I 	I 	0.88213	0.26338	0.43986	0.279
Mof_I 	I 	0.60416	0.26671	0.10187	-0.471
Mof_I 	I 	0.9639	0.3358	0.3838	0.342
Mof_I 	I 	0.355	0.6843	0.2924	0.032
Mof_I 	I 	0.2443	0.7279	0.2124	-2.464
Mof_Zn	Zn	0.3153	0.6444	0.218	0.525
Mof_I 	I 	0.61653	0.2677	0.0888	0.104
Mof_I 	I 	0.36423	0.7749	0.4464	-0.621
Mof_Zn	Zn	0.8257	0.1459	0.2262	0.653
Mof_Zn	Zn	0.12284	0.91069	0.06344	1.162
Mof_N 	N 	0.3182	0.1818	0.25	-0.1
Mof_N 	N 	0.9602	0.1514	0.09	-0.13
Mof_C 	C 	0.2581	0.1055	0.1954	0.11
Mof_C 	C 	0.294	0.2274	0.2188	0.213
Mof_N 	N 	0.9737	0.2303	0.0292	-0.15
Mof_N 	N 	0.2787	0.0546	0.2271	-0.14
Mof_N 	N 	0.9228	0.2788	0.0623	-0.133
Mof_N 	N 	0.2642	0.1941	0.1897	-0.131
Mof_N 	N 	0.1658	0.9722	0.1074	-0.272
Mof_C 	C 	0.03	0.0967	0.0234	-0.139
Mof_H 	H 	0.0192	0.1278	0.997	0.076
Mof_C 	C 	0.9392	0.3651	0.004	0.05
Mof_C 	C 	0.3327	0.0445	0.2889	0.06
Mof_C 	C 	0.3235	0.9567	0.2969	-0.117
Mof_H 	H 	0.3021	0.928	0.2786	0.07
Mof_C 	C 	0.9809	0.1651	0.0598	0.088
Mof_N 	N 	0.0774	0.9961	0.0608	-0.288
Mof_C 	C 	0.3088	0.0977	0.2523	0.156
Mof_N 	N 	0.8588	0.1653	0.1786	-0.323
Mof_C 	C 	0.9457	0.2862	0.0341	0.099
Mof_N 	N 	0.3774	0.9499	0.3578	-0.27
Mof_C 	C 	0.3011	0.3256	0.2171	0.07
Mof_C 	C 	0.2261	0.0608	0.1643	0.037
Mof_C 	C 	0.8698	0.2332	0.1155	-0.165
Mof_H 	H 	0.8607	0.2711	0.091	0.092
Mof_C 	C 	0.0143	0.1073	0.0595	0.054
Mof_C 	C 	0.204	0.1037	0.1288	-0.106
Mof_H 	H 	0.2086	0.1649	0.1237	0.088
Mof_C 	C 	0.9063	0.1935	0.1211	0.09
Mof_C 	C 	0.9603	0.4663	0.9548	0.059
Mof_H 	H 	0.9794	0.4838	0.9393	-0.005
Mof_C 	C 	0.1879	0.9309	0.1431	0.047
Mof_H 	H 	0.1827	0.8701	0.1486	0.019
Mof_C 	C 	0.9056	0.4173	-0	-0.115
Mof_H 	H 	0.8861	0.4026	0.0154	0.076
Mof_C 	C 	0.9307	0.2082	0.0892	0.101
Mof_C 	C 	0.3463	0.911	0.3325	0.057
Mof_H 	H 	0.3397	0.8517	0.3388	-0.009
Mof_C 	C 	0.0604	0.0427	0.0249	0.08
Mof_H 	H 	0.0705	0.037	0.9992	-0.011
Mof_C 	C 	0.9662	0.3907	0.9812	-0.11
Mof_H 	H 	0.9892	0.3567	0.9835	0.065
Mof_C 	C 	0.9168	0.1361	0.1568	-0.155
Mof_H 	H 	0.9408	0.1055	0.1617	0.097
Mof_C 	C 	0.2171	0.9731	0.1711	-0.119
Mof_H 	H 	0.2315	0.9416	0.1957	0.088
Mof_C 	C 	0.175	0.0582	0.1003	0.055
Mof_H 	H 	0.1611	0.0882	0.0749	0.005
Mof_C 	C 	0.9022	0.4901	0.973	0.072
Mof_H 	H 	0.8796	0.5255	0.9702	-0.012
Mof_C 	C 	0.0642	0.0093	0.0949	0.097
Mof_H 	H 	0.0766	0.9786	0.1208	-0.024
Mof_C 	C 	0.8479	0.2179	0.1446	0.116
Mof_H 	H 	0.8234	0.2463	0.1405	-0.116
Mof_C 	C 	0.3641	0.0829	0.3159	-0.113
Mof_H 	H 	0.3702	0.1438	0.3122	0.108
Mof_C 	C 	0.8934	0.1245	0.1835	0.105
Mof_H 	H 	0.9012	0.0853	0.2078	-0.028
Mof_C 	C 	0.0328	0.0654	0.0979	-0.14
Mof_H 	H 	0.0249	0.0741	0.1248	0.092
Mof_C 	C 	0.3867	0.0328	0.3485	0.076
Mof_H 	H 	0.4098	0.0583	0.365	-0.003
Mof_I 	I 	0.76266	0.23272	0.19827	2.064
Mof_I 	I 	0.86871	0.17188	0.30127	-0.455
Mof_I 	I 	0.14198	0.91696	0.98997	-0.39
Mof_C 	C 	0.2757	0.3833	0.1918	-0.109
Mof_H 	H 	0.2534	0.3603	0.1725	0.085
Mof_C 	C 	0.2822	0.4736	0.1937	0.067
Mof_H 	H 	0.264	0.5121	0.1758	-0.036
Mof_C 	C 	0.3335	0.3616	0.2457	-0.097
Mof_H 	H 	0.3513	0.3239	0.2645	0.096
Mof_C 	C 	0.3389	0.4546	0.2461	0.066
Mof_H 	H 	0.361	0.4794	0.2651	-0.011
Mof_N 	N 	0.3138	0.5095	0.2204	-0.296
Mof_N 	N 	0.9279	0.5149	0.9506	-0.276
Mof_I 	I 	0.47475	0.85209	0.37133	-0.733
Mof_Zn	Zn	0.41561	0.8804	0.40604	1.14
Mof_I 	I 	0.38213	0.76338	0.43986	0.279
Mof_I 	I 	0.10416	0.76671	0.10187	-0.471
Mof_I 	I 	0.4639	0.8358	0.3838	0.342
Mof_I 	I 	0.855	0.1843	0.2924	0.032
Mof_I 	I 	0.7443	0.2279	0.2124	-2.464
Mof_Zn	Zn	0.8153	0.1444	0.218	0.525
Mof_I 	I 	0.11653	0.7677	0.0888	0.104
Mof_I 	I 	0.13577	0.7251	0.5536	-0.621
Mof_Zn	Zn	0.6743	0.3541	0.7738	0.653
Mof_Zn	Zn	0.37716	0.58931	0.93656	1.161
Mof_N 	N 	0.1818	0.3182	0.75	-0.1
Mof_N 	N 	0.5398	0.3486	0.91	-0.129
Mof_C 	C 	0.2419	0.3945	0.8046	0.11
Mof_C 	C 	0.206	0.2726	0.7812	0.213
Mof_N 	N 	0.5263	0.2697	0.9708	-0.151
Mof_N 	N 	0.2213	0.4454	0.7729	-0.14
Mof_N 	N 	0.5772	0.2212	0.9377	-0.134
Mof_N 	N 	0.2358	0.3059	0.8103	-0.131
Mof_N 	N 	0.3342	0.5278	0.8926	-0.272
Mof_C 	C 	0.47	0.4033	0.9766	-0.147
Mof_H 	H 	0.4808	0.3722	0.003	0.082
Mof_C 	C 	0.5608	0.1349	0.996	0.035
Mof_C 	C 	0.1673	0.4555	0.7111	0.06
Mof_C 	C 	0.1765	0.5433	0.7031	-0.117
Mof_H 	H 	0.1979	0.572	0.7214	0.07
Mof_C 	C 	0.5191	0.3349	0.9402	0.087
Mof_N 	N 	0.4226	0.5039	0.9392	-0.288
Mof_C 	C 	0.1912	0.4023	0.7477	0.156
Mof_N 	N 	0.6412	0.3347	0.8214	-0.323
Mof_C 	C 	0.5543	0.2138	0.9659	0.102
Mof_N 	N 	0.1226	0.5501	0.6422	-0.27
Mof_C 	C 	0.1989	0.1744	0.7829	0.07
Mof_C 	C 	0.2739	0.4392	0.8357	0.037
Mof_C 	C 	0.6302	0.2668	0.8845	-0.165
Mof_H 	H 	0.6393	0.2289	0.909	0.092
Mof_C 	C 	0.4857	0.3927	0.9405	0.056
Mof_C 	C 	0.296	0.3963	0.8712	-0.106
Mof_H 	H 	0.2914	0.3351	0.8763	0.088
Mof_C 	C 	0.5937	0.3065	0.8789	0.09
Mof_C 	C 	0.5397	0.0337	0.0452	0.055
Mof_H 	H 	0.5206	0.0162	0.0607	-0.002
Mof_C 	C 	0.3121	0.5691	0.8569	0.047
Mof_H 	H 	0.3173	0.6299	0.8514	0.019
Mof_C 	C 	0.5944	0.0827	-0	-0.104
Mof_H 	H 	0.6139	0.0974	0.9846	0.07
Mof_C 	C 	0.5693	0.2918	0.9108	0.101
Mof_C 	C 	0.1537	0.589	0.6675	0.057
Mof_H 	H 	0.1603	0.6483	0.6612	-0.009
Mof_C 	C 	0.4396	0.4573	0.9751	0.075
Mof_H 	H 	0.4295	0.463	0.0008	-0.006
Mof_C 	C 	0.5338	0.1093	0.0188	-0.097
Mof_H 	H 	0.5108	0.1433	0.0165	0.062
Mof_C 	C 	0.5832	0.3639	0.8432	-0.155
Mof_H 	H 	0.5592	0.3945	0.8383	0.097
Mof_C 	C 	0.2829	0.5269	0.8289	-0.119
Mof_H 	H 	0.2685	0.5584	0.8043	0.088
Mof_C 	C 	0.325	0.4418	0.8997	0.054
Mof_H 	H 	0.3389	0.4118	0.9251	0.004
Mof_C 	C 	0.5978	0.0099	0.027	0.069
Mof_H 	H 	0.6204	0.9745	0.0298	-0.011
Mof_C 	C 	0.4358	0.4907	0.9051	0.097
Mof_H 	H 	0.4234	0.5214	0.8792	-0.024
Mof_C 	C 	0.6521	0.2821	0.8554	0.116
Mof_H 	H 	0.6766	0.2537	0.8595	-0.116
Mof_C 	C 	0.1359	0.4171	0.6841	-0.113
Mof_H 	H 	0.1298	0.3562	0.6878	0.108
Mof_C 	C 	0.6066	0.3755	0.8165	0.105
Mof_H 	H 	0.5988	0.4147	0.7922	-0.028
Mof_C 	C 	0.4672	0.4346	0.9021	-0.142
Mof_H 	H 	0.4751	0.4259	0.8752	0.092
Mof_C 	C 	0.1133	0.4672	0.6515	0.076
Mof_H 	H 	0.0902	0.4417	0.635	-0.003
Mof_I 	I 	0.73734	0.26728	0.80173	2.067
Mof_I 	I 	0.63129	0.32812	0.69873	-0.455
Mof_I 	I 	0.35802	0.58304	0.01003	-0.386
Mof_C 	C 	0.2243	0.1167	0.8082	-0.109
Mof_H 	H 	0.2466	0.1397	0.8275	0.085
Mof_C 	C 	0.2178	0.0264	0.8063	0.066
Mof_H 	H 	0.236	0.9879	0.8242	-0.036
Mof_C 	C 	0.1665	0.1384	0.7543	-0.097
Mof_H 	H 	0.1487	0.1761	0.7355	0.096
Mof_C 	C 	0.1611	0.0454	0.7539	0.065
Mof_H 	H 	0.139	0.0206	0.7349	-0.011
Mof_N 	N 	0.1862	0.9905	0.7796	-0.296
Mof_N 	N 	0.5721	0.9851	0.0494	-0.274
Mof_I 	I 	0.02525	0.64791	0.62867	-0.733
Mof_Zn	Zn	0.08439	0.6196	0.59396	1.14
Mof_I 	I 	0.11787	0.73662	0.56014	0.279
Mof_I 	I 	0.39584	0.73329	0.89813	-0.474
Mof_I 	I 	0.0361	0.6642	0.6162	0.342
Mof_I 	I 	0.645	0.3157	0.7076	0.032
Mof_I 	I 	0.7557	0.2721	0.7876	-2.467
Mof_Zn	Zn	0.6847	0.3556	0.782	0.525
Mof_I 	I 	0.38347	0.7323	0.9112	0.105
Mof_I 	I 	0.63577	0.2251	0.5536	-0.621
Mof_Zn	Zn	0.1743	0.8541	0.7738	0.653
Mof_Zn	Zn	0.87716	0.08931	0.93656	1.161
Mof_N 	N 	0.6818	0.8182	0.75	-0.1
Mof_N 	N 	0.0398	0.8486	0.91	-0.129
Mof_C 	C 	0.7419	0.8945	0.8046	0.11
Mof_C 	C 	0.706	0.7726	0.7812	0.213
Mof_N 	N 	0.0263	0.7697	0.9708	-0.151
Mof_N 	N 	0.7213	0.9454	0.7729	-0.14
Mof_N 	N 	0.0772	0.7212	0.9377	-0.134
Mof_N 	N 	0.7358	0.8059	0.8103	-0.131
Mof_N 	N 	0.8342	0.0278	0.8926	-0.272
Mof_C 	C 	0.97	0.9033	0.9766	-0.147
Mof_H 	H 	0.9808	0.8722	0.003	0.082
Mof_C 	C 	0.0608	0.6349	0.996	0.036
Mof_C 	C 	0.6673	0.9555	0.7111	0.06
Mof_C 	C 	0.6765	0.0433	0.7031	-0.117
Mof_H 	H 	0.6979	0.072	0.7214	0.07
Mof_C 	C 	0.0191	0.8349	0.9402	0.087
Mof_N 	N 	0.9226	0.0039	0.9392	-0.288
Mof_C 	C 	0.6912	0.9023	0.7477	0.156
Mof_N 	N 	0.1412	0.8347	0.8214	-0.323
Mof_C 	C 	0.0543	0.7138	0.9659	0.102
Mof_N 	N 	0.6226	0.0501	0.6422	-0.27
Mof_C 	C 	0.6989	0.6744	0.7829	0.07
Mof_C 	C 	0.7739	0.9392	0.8357	0.037
Mof_C 	C 	0.1302	0.7668	0.8845	-0.165
Mof_H 	H 	0.1393	0.7289	0.909	0.092
Mof_C 	C 	0.9857	0.8927	0.9405	0.056
Mof_C 	C 	0.796	0.8963	0.8712	-0.106
Mof_H 	H 	0.7914	0.8351	0.8763	0.088
Mof_C 	C 	0.0937	0.8065	0.8789	0.09
Mof_C 	C 	0.0397	0.5337	0.0452	0.055
Mof_H 	H 	0.0206	0.5162	0.0607	-0.002
Mof_C 	C 	0.8121	0.0691	0.8569	0.047
Mof_H 	H 	0.8173	0.1299	0.8514	0.019
Mof_C 	C 	0.0944	0.5827	-0	-0.104
Mof_H 	H 	0.1139	0.5974	0.9846	0.071
Mof_C 	C 	0.0693	0.7918	0.9108	0.101
Mof_C 	C 	0.6537	0.089	0.6675	0.057
Mof_H 	H 	0.6603	0.1483	0.6612	-0.009
Mof_C 	C 	0.9396	0.9573	0.9751	0.076
Mof_H 	H 	0.9295	0.963	0.0008	-0.006
Mof_C 	C 	0.0338	0.6093	0.0188	-0.098
Mof_H 	H 	0.0108	0.6433	0.0165	0.062
Mof_C 	C 	0.0832	0.8639	0.8432	-0.155
Mof_H 	H 	0.0592	0.8945	0.8383	0.097
Mof_C 	C 	0.7829	0.0269	0.8289	-0.119
Mof_H 	H 	0.7685	0.0584	0.8043	0.088
Mof_C 	C 	0.825	0.9418	0.8997	0.055
Mof_H 	H 	0.8389	0.9118	0.9251	0.004
Mof_C 	C 	0.0978	0.5099	0.027	0.069
Mof_H 	H 	0.1204	0.4745	0.0298	-0.01
Mof_C 	C 	0.9358	0.9907	0.9051	0.098
Mof_H 	H 	0.9234	0.0214	0.8792	-0.024
Mof_C 	C 	0.1521	0.7821	0.8554	0.116
Mof_H 	H 	0.1766	0.7537	0.8595	-0.116
Mof_C 	C 	0.6359	0.9171	0.6841	-0.113
Mof_H 	H 	0.6298	0.8562	0.6878	0.108
Mof_C 	C 	0.1066	0.8755	0.8165	0.105
Mof_H 	H 	0.0988	0.9147	0.7922	-0.028
Mof_C 	C 	0.9672	0.9346	0.9021	-0.142
Mof_H 	H 	0.9751	0.9259	0.8752	0.092
Mof_C 	C 	0.6133	0.9672	0.6515	0.076
Mof_H 	H 	0.5902	0.9417	0.635	-0.003
Mof_I 	I 	0.23734	0.76728	0.80173	2.067
Mof_I 	I 	0.13129	0.82812	0.69873	-0.455
Mof_I 	I 	0.85802	0.08304	0.01003	-0.386
Mof_C 	C 	0.7243	0.6167	0.8082	-0.109
Mof_H 	H 	0.7466	0.6397	0.8275	0.085
Mof_C 	C 	0.7178	0.5264	0.8063	0.067
Mof_H 	H 	0.736	0.4879	0.8242	-0.036
Mof_C 	C 	0.6665	0.6384	0.7543	-0.097
Mof_H 	H 	0.6487	0.6761	0.7355	0.096
Mof_C 	C 	0.6611	0.5454	0.7539	0.066
Mof_H 	H 	0.639	0.5206	0.7349	-0.011
Mof_N 	N 	0.6862	0.4905	0.7796	-0.296
Mof_N 	N 	0.0721	0.4851	0.0494	-0.274
Mof_I 	I 	0.52525	0.14791	0.62867	-0.733
Mof_Zn	Zn	0.58439	0.1196	0.59396	1.14
Mof_I 	I 	0.61787	0.23662	0.56014	0.279
Mof_I 	I 	0.89584	0.23329	0.89813	-0.474
Mof_I 	I 	0.5361	0.1642	0.6162	0.342
Mof_I 	I 	0.145	0.8157	0.7076	0.032
Mof_I 	I 	0.2557	0.7721	0.7876	-2.467
Mof_Zn	Zn	0.1847	0.8556	0.782	0.525
Mof_I 	I 	0.88347	0.2323	0.9112	0.105
Mof_I 	I 	0.13577	0.2749	0.0536	-0.622
Mof_Zn	Zn	0.6743	0.6459	0.2738	0.653
Mof_Zn	Zn	0.37716	0.41069	0.43656	1.162
Mof_N 	N 	0.1818	0.6818	0.25	-0.1
Mof_N 	N 	0.5398	0.6514	0.41	-0.129
Mof_C 	C 	0.2419	0.6055	0.3046	0.11
Mof_C 	C 	0.206	0.7274	0.2812	0.213
Mof_N 	N 	0.5263	0.7303	0.4708	-0.15
Mof_N 	N 	0.2213	0.5546	0.2729	-0.14
Mof_N 	N 	0.5772	0.7788	0.4377	-0.133
Mof_N 	N 	0.2358	0.6941	0.3103	-0.131
Mof_N 	N 	0.3342	0.4722	0.3926	-0.272
Mof_C 	C 	0.47	0.5967	0.4766	-0.143
Mof_H 	H 	0.4808	0.6278	0.503	0.079
Mof_C 	C 	0.5608	0.8651	0.496	0.047
Mof_C 	C 	0.1673	0.5445	0.2111	0.06
Mof_C 	C 	0.1765	0.4567	0.2031	-0.117
Mof_H 	H 	0.1979	0.428	0.2214	0.07
Mof_C 	C 	0.5191	0.6651	0.4402	0.088
Mof_N 	N 	0.4226	0.4961	0.4392	-0.288
Mof_C 	C 	0.1912	0.5977	0.2477	0.156
Mof_N 	N 	0.6412	0.6653	0.3214	-0.323
Mof_C 	C 	0.5543	0.7862	0.4659	0.099
Mof_N 	N 	0.1226	0.4499	0.1422	-0.27
Mof_C 	C 	0.1989	0.8256	0.2829	0.07
Mof_C 	C 	0.2739	0.5608	0.3357	0.037
Mof_C 	C 	0.6302	0.7332	0.3845	-0.165
Mof_H 	H 	0.6393	0.7711	0.409	0.092
Mof_C 	C 	0.4857	0.6073	0.4405	0.055
Mof_C 	C 	0.296	0.6037	0.3712	-0.106
Mof_H 	H 	0.2914	0.6649	0.3763	0.088
Mof_C 	C 	0.5937	0.6935	0.3789	0.09
Mof_C 	C 	0.5397	0.9663	0.5452	0.059
Mof_H 	H 	0.5206	0.9838	0.5607	-0.004
Mof_C 	C 	0.3121	0.4309	0.3569	0.047
Mof_H 	H 	0.3173	0.3701	0.3514	0.019
Mof_C 	C 	0.5944	0.9173	0.5	-0.118
Mof_H 	H 	0.6139	0.9026	0.4846	0.077
Mof_C 	C 	0.5693	0.7082	0.4108	0.101
Mof_C 	C 	0.1537	0.411	0.1675	0.057
Mof_H 	H 	0.1603	0.3517	0.1612	-0.009
Mof_C 	C 	0.4396	0.5427	0.4751	0.078
Mof_H 	H 	0.4295	0.537	0.5008	-0.008
Mof_C 	C 	0.5338	0.8907	0.5188	-0.107
Mof_H 	H 	0.5108	0.8567	0.5165	0.064
Mof_C 	C 	0.5832	0.6361	0.3432	-0.155
Mof_H 	H 	0.5592	0.6055	0.3383	0.097
Mof_C 	C 	0.2829	0.4731	0.3289	-0.119
Mof_H 	H 	0.2685	0.4416	0.3043	0.088
Mof_C 	C 	0.325	0.5582	0.3997	0.055
Mof_H 	H 	0.3389	0.5882	0.4251	0.005
Mof_C 	C 	0.5978	0.9901	0.527	0.075
Mof_H 	H 	0.6204	0.0255	0.5298	-0.013
Mof_C 	C 	0.4358	0.5093	0.4051	0.097
Mof_H 	H 	0.4234	0.4786	0.3792	-0.024
Mof_C 	C 	0.6521	0.7179	0.3554	0.116
Mof_H 	H 	0.6766	0.7463	0.3595	-0.116
Mof_C 	C 	0.1359	0.5829	0.1841	-0.113
Mof_H 	H 	0.1298	0.6438	0.1878	0.108
Mof_C 	C 	0.6066	0.6245	0.3165	0.105
Mof_H 	H 	0.5988	0.5853	0.2922	-0.028
Mof_C 	C 	0.4672	0.5654	0.4021	-0.141
Mof_H 	H 	0.4751	0.5741	0.3752	0.092
Mof_C 	C 	0.1133	0.5328	0.1515	0.076
Mof_H 	H 	0.0902	0.5583	0.135	-0.003
Mof_I 	I 	0.73734	0.73272	0.30173	2.065
Mof_I 	I 	0.63129	0.67188	0.19873	-0.455
Mof_I 	I 	0.35802	0.41696	0.51003	-0.388
Mof_C 	C 	0.2243	0.8833	0.3082	-0.109
Mof_H 	H 	0.2466	0.8603	0.3275	0.085
Mof_C 	C 	0.2178	0.9736	0.3063	0.066
Mof_H 	H 	0.236	0.0121	0.3242	-0.036
Mof_C 	C 	0.1665	0.8616	0.2543	-0.097
Mof_H 	H 	0.1487	0.8239	0.2355	0.096
Mof_C 	C 	0.1611	0.9546	0.2539	0.065
Mof_H 	H 	0.139	0.9794	0.2349	-0.011
Mof_N 	N 	0.1862	0.0095	0.2796	-0.296
Mof_N 	N 	0.5721	0.0149	0.5494	-0.276
Mof_I 	I 	0.02525	0.35209	0.12867	-0.732
Mof_Zn	Zn	0.08439	0.3804	0.09396	1.14
Mof_I 	I 	0.11787	0.26338	0.06014	0.28
Mof_I 	I 	0.39584	0.26671	0.39813	-0.472
Mof_I 	I 	0.0361	0.3358	0.1162	0.342
Mof_I 	I 	0.645	0.6843	0.2076	0.032
Mof_I 	I 	0.7557	0.7279	0.2876	-2.465
Mof_Zn	Zn	0.6847	0.6444	0.282	0.525
Mof_I 	I 	0.38347	0.2677	0.4112	0.105
Mof_I 	I 	0.63577	0.7749	0.0536	-0.622
Mof_Zn	Zn	0.1743	0.1459	0.2738	0.653
Mof_Zn	Zn	0.87716	0.91069	0.43656	1.162
Mof_N 	N 	0.6818	0.1818	0.25	-0.1
Mof_N 	N 	0.0398	0.1514	0.41	-0.129
Mof_C 	C 	0.7419	0.1055	0.3046	0.11
Mof_C 	C 	0.706	0.2274	0.2812	0.213
Mof_N 	N 	0.0263	0.2303	0.4708	-0.15
Mof_N 	N 	0.7213	0.0546	0.2729	-0.14
Mof_N 	N 	0.0772	0.2788	0.4377	-0.133
Mof_N 	N 	0.7358	0.1941	0.3103	-0.131
Mof_N 	N 	0.8342	0.9722	0.3926	-0.272
Mof_C 	C 	0.97	0.0967	0.4766	-0.143
Mof_H 	H 	0.9808	0.1278	0.503	0.079
Mof_C 	C 	0.0608	0.3651	0.496	0.047
Mof_C 	C 	0.6673	0.0445	0.2111	0.06
Mof_C 	C 	0.6765	0.9567	0.2031	-0.117
Mof_H 	H 	0.6979	0.928	0.2214	0.07
Mof_C 	C 	0.0191	0.1651	0.4402	0.088
Mof_N 	N 	0.9226	0.9961	0.4392	-0.288
Mof_C 	C 	0.6912	0.0977	0.2477	0.156
Mof_N 	N 	0.1412	0.1653	0.3214	-0.323
Mof_C 	C 	0.0543	0.2862	0.4659	0.099
Mof_N 	N 	0.6226	0.9499	0.1422	-0.27
Mof_C 	C 	0.6989	0.3256	0.2829	0.07
Mof_C 	C 	0.7739	0.0608	0.3357	0.037
Mof_C 	C 	0.1302	0.2332	0.3845	-0.165
Mof_H 	H 	0.1393	0.2711	0.409	0.092
Mof_C 	C 	0.9857	0.1073	0.4405	0.055
Mof_C 	C 	0.796	0.1037	0.3712	-0.106
Mof_H 	H 	0.7914	0.1649	0.3763	0.088
Mof_C 	C 	0.0937	0.1935	0.3789	0.09
Mof_C 	C 	0.0397	0.4663	0.5452	0.059
Mof_H 	H 	0.0206	0.4838	0.5607	-0.004
Mof_C 	C 	0.8121	0.9309	0.3569	0.047
Mof_H 	H 	0.8173	0.8701	0.3514	0.019
Mof_C 	C 	0.0944	0.4173	0.5	-0.118
Mof_H 	H 	0.1139	0.4026	0.4846	0.077
Mof_C 	C 	0.0693	0.2082	0.4108	0.101
Mof_C 	C 	0.6537	0.911	0.1675	0.057
Mof_H 	H 	0.6603	0.8517	0.1612	-0.009
Mof_C 	C 	0.9396	0.0427	0.4751	0.078
Mof_H 	H 	0.9295	0.037	0.5008	-0.008
Mof_C 	C 	0.0338	0.3907	0.5188	-0.107
Mof_H 	H 	0.0108	0.3567	0.5165	0.064
Mof_C 	C 	0.0832	0.1361	0.3432	-0.155
Mof_H 	H 	0.0592	0.1055	0.3383	0.097
Mof_C 	C 	0.7829	0.9731	0.3289	-0.119
Mof_H 	H 	0.7685	0.9416	0.3043	0.088
Mof_C 	C 	0.825	0.0582	0.3997	0.055
Mof_H 	H 	0.8389	0.0882	0.4251	0.005
Mof_C 	C 	0.0978	0.4901	0.527	0.075
Mof_H 	H 	0.1204	0.5255	0.5298	-0.013
Mof_C 	C 	0.9358	0.0093	0.4051	0.097
Mof_H 	H 	0.9234	0.9786	0.3792	-0.024
Mof_C 	C 	0.1521	0.2179	0.3554	0.116
Mof_H 	H 	0.1766	0.2463	0.3595	-0.116
Mof_C 	C 	0.6359	0.0829	0.1841	-0.113
Mof_H 	H 	0.6298	0.1438	0.1878	0.108
Mof_C 	C 	0.1066	0.1245	0.3165	0.105
Mof_H 	H 	0.0988	0.0853	0.2922	-0.028
Mof_C 	C 	0.9672	0.0654	0.4021	-0.141
Mof_H 	H 	0.9751	0.0741	0.3752	0.092
Mof_C 	C 	0.6133	0.0328	0.1515	0.076
Mof_H 	H 	0.5902	0.0583	0.135	-0.003
Mof_I 	I 	0.23734	0.23272	0.30173	2.065
Mof_I 	I 	0.13129	0.17188	0.19873	-0.455
Mof_I 	I 	0.85802	0.91696	0.51003	-0.388
Mof_C 	C 	0.7243	0.3833	0.3082	-0.109
Mof_H 	H 	0.7466	0.3603	0.3275	0.085
Mof_C 	C 	0.7178	0.4736	0.3063	0.067
Mof_H 	H 	0.736	0.5121	0.3242	-0.036
Mof_C 	C 	0.6665	0.3616	0.2543	-0.097
Mof_H 	H 	0.6487	0.3239	0.2355	0.096
Mof_C 	C 	0.6611	0.4546	0.2539	0.066
Mof_H 	H 	0.639	0.4794	0.2349	-0.011
Mof_N 	N 	0.6862	0.5095	0.2796	-0.296
Mof_N 	N 	0.0721	0.5149	0.5494	-0.276
Mof_I 	I 	0.52525	0.85209	0.12867	-0.732
Mof_Zn	Zn	0.58439	0.8804	0.09396	1.14
Mof_I 	I 	0.61787	0.76338	0.06014	0.28
Mof_I 	I 	0.89584	0.76671	0.39813	-0.472
Mof_I 	I 	0.5361	0.8358	0.1162	0.342
Mof_I 	I 	0.145	0.1843	0.2076	0.032
Mof_I 	I 	0.2557	0.2279	0.2876	-2.465
Mof_Zn	Zn	0.1847	0.1444	0.282	0.525
Mof_I 	I 	0.88347	0.7677	0.4112	0.105
_end
