data_functionalizedCrystal
_audit_creation_method	'EQeq! by Chris Wilmer'
_symmetry_space_group_name_H-M	'P1'
_symmetry_Int_Tables_number	1
_symmetry_cell_setting	triclinic
loop_
_symmetry_equiv_pos_as_xyz
  x,y,z
_cell_length_a	11.1577
_cell_length_b	17.4945
_cell_length_c	13.0419
_cell_angle_alpha	90
_cell_angle_beta	102.316
_cell_angle_gamma	90
loop_
_atom_site_label
_atom_site_type_symbol
_atom_site_fract_x
_atom_site_fract_y
_atom_site_fract_z
_atom_site_charge
Mof_Zn	Zn	0.36802	0.94008	0.64536	1.228
Mof_Ca	Ca	0.44625	0.13179	0.57441	1.219
Mof_C 	C 	0.745	0.90037	0.1523	-0.057
Mof_C 	C 	0.7841	0.82497	0.1559	-0.007
Mof_H 	H 	0.7888	0.7966	0.2169	0.047
Mof_C 	C 	0.8162	0.79154	0.0691	-0.064
Mof_C 	C 	0.8086	0.8336	0.9772	-0.119
Mof_H 	H 	0.8312	0.8119	0.919	0.068
Mof_C 	C 	0.7669	0.9083	0.9741	0.183
Mof_C 	C 	0.7363	0.94215	0.0607	-0.119
Mof_H 	H 	0.7101	0.9927	0.0576	0.096
Mof_C 	C 	0.705	0.93558	0.2452	0.374
Mof_C 	C 	0.8542	0.7085	0.0731	0.375
Mof_C 	C 	0.8149	0.95295	0.8111	0.249
Mof_C 	C 	0.7544	0.97197	0.71	-0.193
Mof_C 	C 	0.8237	0.9837	0.6338	0.013
Mof_C 	C 	0.9508	0.9761	0.66	-0.121
Mof_H 	H 	0.997	0.9846	0.6096	0.094
Mof_C 	C 	0.008	0.956	0.7608	0.079
Mof_H 	H 	0.0927	0.95	0.7775	0.005
Mof_C 	C 	0.9409	0.9447	0.8374	-0.233
Mof_H 	H 	0.9801	0.9317	0.9054	0.111
Mof_C 	C 	0.618	0.98601	0.6875	0.456
Mof_C 	C 	0.7621	0.0089	0.5252	0.299
Mof_O 	O 	0.6813	0.00662	0.2386	-0.468
Mof_O 	O 	0.6967	0.89351	0.32034	-0.457
Mof_O 	O 	0.8354	0.67082	0.15081	-0.452
Mof_O 	O 	0.8987	0.68169	0.0008	-0.472
Mof_O 	O 	0.7409	0.95217	0.8834	-0.274
Mof_O 	O 	0.8186	0.04745	0.4724	-0.366
Mof_O 	O 	0.6499	0.99084	0.49132	-0.522
Mof_O 	O 	0.5821	0.05302	0.68406	-0.472
Mof_O 	O 	0.5495	0.92822	0.6751	-0.501
Mof_Zn	Zn	0.13198	0.44008	0.85464	1.228
Mof_Ca	Ca	0.05375	0.63179	0.92559	1.213
Mof_C 	C 	0.755	0.40037	0.3477	-0.056
Mof_C 	C 	0.7159	0.32497	0.3441	-0.008
Mof_H 	H 	0.7112	0.2966	0.2831	0.047
Mof_C 	C 	0.6838	0.29154	0.4309	-0.061
Mof_C 	C 	0.6914	0.3336	0.5228	-0.122
Mof_H 	H 	0.6688	0.3119	0.581	0.068
Mof_C 	C 	0.7331	0.4083	0.5259	0.184
Mof_C 	C 	0.7637	0.44215	0.4393	-0.12
Mof_H 	H 	0.7899	0.4927	0.4424	0.097
Mof_C 	C 	0.795	0.43558	0.2548	0.372
Mof_C 	C 	0.6458	0.2085	0.4269	0.375
Mof_C 	C 	0.6851	0.45295	0.6889	0.255
Mof_C 	C 	0.7456	0.47197	0.79	-0.196
Mof_C 	C 	0.6763	0.4837	0.8662	0.017
Mof_C 	C 	0.5492	0.4761	0.84	-0.135
Mof_H 	H 	0.503	0.4846	0.8904	0.098
Mof_C 	C 	0.492	0.456	0.7392	0.1
Mof_H 	H 	0.4073	0.45	0.7225	-0.001
Mof_C 	C 	0.5591	0.4447	0.6626	-0.248
Mof_H 	H 	0.5199	0.4317	0.5946	0.115
Mof_C 	C 	0.882	0.48601	0.8125	0.457
Mof_C 	C 	0.7379	0.5089	0.9748	0.304
Mof_O 	O 	0.8187	0.50662	0.2614	-0.466
Mof_O 	O 	0.8033	0.39351	0.17966	-0.456
Mof_O 	O 	0.6646	0.17082	0.34919	-0.452
Mof_O 	O 	0.6013	0.18169	0.4992	-0.471
Mof_O 	O 	0.7591	0.45217	0.6166	-0.275
Mof_O 	O 	0.6814	0.54745	0.0276	-0.368
Mof_O 	O 	0.8501	0.49084	0.00868	-0.525
Mof_O 	O 	0.9179	0.55302	0.81594	-0.47
Mof_O 	O 	0.9505	0.42822	0.8249	-0.499
Mof_Zn	Zn	0.63198	0.05992	0.35464	1.228
Mof_Ca	Ca	0.55375	0.86821	0.42559	1.219
Mof_C 	C 	0.255	0.09963	0.8477	-0.057
Mof_C 	C 	0.2159	0.17503	0.8441	-0.007
Mof_H 	H 	0.2112	0.2034	0.7831	0.047
Mof_C 	C 	0.1838	0.20846	0.9309	-0.064
Mof_C 	C 	0.1914	0.1664	0.0228	-0.119
Mof_H 	H 	0.1688	0.1881	0.081	0.068
Mof_C 	C 	0.2331	0.0917	0.0259	0.183
Mof_C 	C 	0.2637	0.05785	0.9393	-0.119
Mof_H 	H 	0.2899	0.0073	0.9424	0.096
Mof_C 	C 	0.295	0.06442	0.7548	0.374
Mof_C 	C 	0.1458	0.2915	0.9269	0.375
Mof_C 	C 	0.1851	0.04705	0.1889	0.249
Mof_C 	C 	0.2456	0.02803	0.29	-0.193
Mof_C 	C 	0.1763	0.0163	0.3662	0.013
Mof_C 	C 	0.0492	0.0239	0.34	-0.121
Mof_H 	H 	0.003	0.0154	0.3904	0.094
Mof_C 	C 	0.992	0.044	0.2392	0.079
Mof_H 	H 	0.9073	0.05	0.2225	0.005
Mof_C 	C 	0.0591	0.0553	0.1626	-0.233
Mof_H 	H 	0.0199	0.0683	0.0946	0.111
Mof_C 	C 	0.382	0.01399	0.3125	0.456
Mof_C 	C 	0.2379	0.9911	0.4748	0.299
Mof_O 	O 	0.3187	0.99338	0.7614	-0.468
Mof_O 	O 	0.3033	0.10649	0.67966	-0.457
Mof_O 	O 	0.1646	0.32918	0.84919	-0.452
Mof_O 	O 	0.1013	0.31831	0.9992	-0.472
Mof_O 	O 	0.2591	0.04783	0.1166	-0.274
Mof_O 	O 	0.1814	0.95255	0.5276	-0.366
Mof_O 	O 	0.3501	0.00916	0.50868	-0.522
Mof_O 	O 	0.4179	0.94698	0.31594	-0.472
Mof_O 	O 	0.4505	0.07178	0.3249	-0.501
Mof_Zn	Zn	0.86802	0.55992	0.14536	1.228
Mof_Ca	Ca	0.94625	0.36821	0.07441	1.213
Mof_C 	C 	0.245	0.59963	0.6523	-0.056
Mof_C 	C 	0.2841	0.67503	0.6559	-0.008
Mof_H 	H 	0.2888	0.7034	0.7169	0.047
Mof_C 	C 	0.3162	0.70846	0.5691	-0.061
Mof_C 	C 	0.3086	0.6664	0.4772	-0.122
Mof_H 	H 	0.3312	0.6881	0.419	0.068
Mof_C 	C 	0.2669	0.5917	0.4741	0.184
Mof_C 	C 	0.2363	0.55785	0.5607	-0.12
Mof_H 	H 	0.2101	0.5073	0.5576	0.097
Mof_C 	C 	0.205	0.56442	0.7452	0.372
Mof_C 	C 	0.3542	0.7915	0.5731	0.375
Mof_C 	C 	0.3149	0.54705	0.3111	0.255
Mof_C 	C 	0.2544	0.52803	0.21	-0.196
Mof_C 	C 	0.3237	0.5163	0.1338	0.017
Mof_C 	C 	0.4508	0.5239	0.16	-0.135
Mof_H 	H 	0.497	0.5154	0.1096	0.098
Mof_C 	C 	0.508	0.544	0.2608	0.1
Mof_H 	H 	0.5927	0.55	0.2775	-0.001
Mof_C 	C 	0.4409	0.5553	0.3374	-0.248
Mof_H 	H 	0.4801	0.5683	0.4054	0.115
Mof_C 	C 	0.118	0.51399	0.1875	0.457
Mof_C 	C 	0.2621	0.4911	0.0252	0.304
Mof_O 	O 	0.1813	0.49338	0.7386	-0.466
Mof_O 	O 	0.1967	0.60649	0.82034	-0.456
Mof_O 	O 	0.3354	0.82918	0.65081	-0.452
Mof_O 	O 	0.3987	0.81831	0.5008	-0.471
Mof_O 	O 	0.2409	0.54783	0.3834	-0.275
Mof_O 	O 	0.3186	0.45255	0.9724	-0.368
Mof_O 	O 	0.1499	0.50916	0.99132	-0.525
Mof_O 	O 	0.0821	0.44698	0.18406	-0.47
Mof_O 	O 	0.0495	0.57178	0.1751	-0.499
_end
