data_functionalizedCrystal
_audit_creation_method	'EQeq! by Chris Wilmer'
_symmetry_space_group_name_H-M	'P1'
_symmetry_Int_Tables_number	1
_symmetry_cell_setting	triclinic
loop_
_symmetry_equiv_pos_as_xyz
  x,y,z
_cell_length_a	11.1075
_cell_length_b	11.1075
_cell_length_c	19.0925
_cell_angle_alpha	90
_cell_angle_beta	90
_cell_angle_gamma	120
loop_
_atom_site_label
_atom_site_type_symbol
_atom_site_fract_x
_atom_site_fract_y
_atom_site_fract_z
_atom_site_charge
Mof_O 	O 	0.6525	0.5526	0.8255	-0.355
Mof_C 	C 	0.3942	0.3792	0.9661	0.076
Mof_N 	N 	0.2606	0.2829	0.9276	-0.055
Mof_O 	O 	0.4474	0.0999	0.8255	-0.355
Mof_C 	C 	0.6208	0.015	0.9661	0.075
Mof_N 	N 	0.7171	0.9777	0.9276	-0.054
Mof_O 	O 	0.9001	0.3475	0.8255	-0.355
Mof_C 	C 	0.985	0.6058	0.9661	0.076
Mof_N 	N 	0.0223	0.7394	0.9276	-0.055
Mof_O 	O 	0.3475	0.4474	0.3255	-0.356
Mof_C 	C 	0.6058	0.6208	0.4661	0.075
Mof_N 	N 	0.7394	0.7171	0.4276	-0.056
Mof_O 	O 	0.5526	0.9001	0.3255	-0.356
Mof_C 	C 	0.3792	0.985	0.4661	0.075
Mof_N 	N 	0.2829	0.0223	0.4276	-0.056
Mof_O 	O 	0.0999	0.6525	0.3255	-0.356
Mof_C 	C 	0.015	0.3942	0.4661	0.075
Mof_N 	N 	0.9777	0.2606	0.4276	-0.056
Mof_O 	O 	0.5526	0.6525	0.1745	-0.356
Mof_C 	C 	0.3792	0.3942	0.0339	0.075
Mof_N 	N 	0.2829	0.2606	0.0724	-0.056
Mof_O 	O 	0.0999	0.4474	0.1745	-0.356
Mof_C 	C 	0.015	0.6208	0.0339	0.074
Mof_N 	N 	0.9777	0.7171	0.0724	-0.055
Mof_O 	O 	0.3475	0.9001	0.1745	-0.356
Mof_C 	C 	0.6058	0.985	0.0339	0.075
Mof_N 	N 	0.7394	0.0223	0.0724	-0.055
Mof_O 	O 	0.4474	0.3475	0.6745	-0.356
Mof_C 	C 	0.6208	0.6058	0.5339	0.075
Mof_N 	N 	0.7171	0.7394	0.5724	-0.056
Mof_O 	O 	0.9001	0.5526	0.6745	-0.356
Mof_C 	C 	0.985	0.3792	0.5339	0.075
Mof_N 	N 	0.0223	0.2829	0.5724	-0.056
Mof_O 	O 	0.6525	0.0999	0.6745	-0.356
Mof_C 	C 	0.3942	0.015	0.5339	0.075
Mof_N 	N 	0.2606	0.9777	0.5724	-0.056
Mof_O 	O 	0.3475	0.4474	0.1745	-0.356
Mof_C 	C 	0.6058	0.6208	0.0339	0.075
Mof_N 	N 	0.7394	0.7171	0.0724	-0.056
Mof_O 	O 	0.5526	0.9001	0.1745	-0.356
Mof_C 	C 	0.3792	0.985	0.0339	0.074
Mof_N 	N 	0.2829	0.0223	0.0724	-0.055
Mof_O 	O 	0.0999	0.6525	0.1745	-0.356
Mof_C 	C 	0.015	0.3942	0.0339	0.075
Mof_N 	N 	0.9777	0.2606	0.0724	-0.055
Mof_O 	O 	0.6525	0.5526	0.6745	-0.356
Mof_C 	C 	0.3942	0.3792	0.5339	0.075
Mof_N 	N 	0.2606	0.2829	0.5724	-0.056
Mof_O 	O 	0.4474	0.0999	0.6745	-0.356
Mof_C 	C 	0.6208	0.015	0.5339	0.075
Mof_N 	N 	0.7171	0.9777	0.5724	-0.056
Mof_O 	O 	0.9001	0.3475	0.6745	-0.356
Mof_C 	C 	0.985	0.6058	0.5339	0.075
Mof_N 	N 	0.0223	0.7394	0.5724	-0.056
Mof_O 	O 	0.4474	0.3475	0.8255	-0.356
Mof_C 	C 	0.6208	0.6058	0.9661	0.075
Mof_N 	N 	0.7171	0.7394	0.9276	-0.056
Mof_O 	O 	0.9001	0.5526	0.8255	-0.356
Mof_C 	C 	0.985	0.3792	0.9661	0.074
Mof_N 	N 	0.0223	0.2829	0.9276	-0.055
Mof_O 	O 	0.6525	0.0999	0.8255	-0.356
Mof_C 	C 	0.3942	0.015	0.9661	0.075
Mof_N 	N 	0.2606	0.9777	0.9276	-0.055
Mof_O 	O 	0.5526	0.6525	0.3255	-0.356
Mof_C 	C 	0.3792	0.3942	0.4661	0.075
Mof_N 	N 	0.2829	0.2606	0.4276	-0.056
Mof_O 	O 	0.0999	0.4474	0.3255	-0.356
Mof_C 	C 	0.015	0.6208	0.4661	0.075
Mof_N 	N 	0.9777	0.7171	0.4276	-0.056
Mof_O 	O 	0.3475	0.9001	0.3255	-0.356
Mof_C 	C 	0.6058	0.985	0.4661	0.075
Mof_N 	N 	0.7394	0.0223	0.4276	-0.056
Mof_Fe	Fe	0.7672	0.5344	0.75	0.982
Mof_Fe	Fe	0.4656	0.2328	0.75	0.982
Mof_Fe	Fe	0.7672	0.2328	0.75	0.982
Mof_Fe	Fe	0.2328	0.4656	0.25	0.982
Mof_Fe	Fe	0.5344	0.7672	0.25	0.982
Mof_Fe	Fe	0.2328	0.7672	0.25	0.982
Mof_O 	O 	0.66667	0.33333	0.75	-0.534
Mof_O 	O 	0.33333	0.66667	0.25	-0.534
Mof_C 	C 	0.5399	0.4601	0.8555	0.377
Mof_C 	C 	0.51215	0.48785	0.9278	-0.106
Mof_C 	C 	0.5399	0.0798	0.8555	0.377
Mof_C 	C 	0.51215	0.0243	0.9278	-0.106
Mof_C 	C 	0.9202	0.4601	0.8555	0.377
Mof_C 	C 	0.9757	0.48785	0.9278	-0.106
Mof_C 	C 	0.4601	0.5399	0.3555	0.377
Mof_C 	C 	0.48785	0.51215	0.4278	-0.106
Mof_C 	C 	0.4601	0.9202	0.3555	0.377
Mof_C 	C 	0.48785	0.9757	0.4278	-0.106
Mof_C 	C 	0.0798	0.5399	0.3555	0.377
Mof_C 	C 	0.0243	0.51215	0.4278	-0.106
Mof_C 	C 	0.4601	0.5399	0.1445	0.377
Mof_C 	C 	0.48785	0.51215	0.0722	-0.106
Mof_C 	C 	0.0798	0.5399	0.1445	0.377
Mof_C 	C 	0.0243	0.51215	0.0722	-0.106
Mof_C 	C 	0.4601	0.9202	0.1445	0.377
Mof_C 	C 	0.48785	0.9757	0.0722	-0.106
Mof_C 	C 	0.5399	0.4601	0.6445	0.377
Mof_C 	C 	0.51215	0.48785	0.5722	-0.106
Mof_C 	C 	0.9202	0.4601	0.6445	0.377
Mof_C 	C 	0.9757	0.48785	0.5722	-0.106
Mof_C 	C 	0.5399	0.0798	0.6445	0.377
Mof_C 	C 	0.51215	0.0243	0.5722	-0.106
_end
