data_functionalizedCrystal
_audit_creation_method	'EQeq! by Chris Wilmer'
_symmetry_space_group_name_H-M	'P1'
_symmetry_Int_Tables_number	1
_symmetry_cell_setting	triclinic
loop_
_symmetry_equiv_pos_as_xyz
  x,y,z
_cell_length_a	11.8767
_cell_length_b	5.5769
_cell_length_c	22.486
_cell_angle_alpha	90
_cell_angle_beta	99.893
_cell_angle_gamma	90
loop_
_atom_site_label
_atom_site_type_symbol
_atom_site_fract_x
_atom_site_fract_y
_atom_site_fract_z
_atom_site_charge
Mof_Ca	Ca	0.5963	0.74417	0.04161	1.56
Mof_S 	S 	0.88397	0.53388	0.10242	0.32
Mof_O 	O 	0.40465	0.5814	0.02671	-0.58
Mof_O 	O 	0.37065	0.9718	0.03024	-0.515
Mof_O 	O 	0.80386	0.6954	0.06651	-0.357
Mof_O 	O 	0.86886	0.2793	0.09538	-0.252
Mof_O 	O 	0.88713	0.9723	0.38011	-0.472
Mof_O 	O 	0.89872	0.5794	0.40022	-0.503
Mof_C 	C 	0.34236	0.7577	0.03549	0.452
Mof_C 	C 	0.2304	0.7048	0.05528	-0.163
Mof_C 	C 	0.14507	0.8775	0.04795	0.059
Mof_H 	H 	0.1593	0.0302	0.0321	0.02
Mof_C 	C 	0.03923	0.8299	0.06353	-0.098
Mof_H 	H 	0.9809	0.9484	0.0586	0.085
Mof_C 	C 	0.02066	0.6056	0.08647	0.006
Mof_C 	C 	0.10623	0.4332	0.09629	-0.092
Mof_H 	H 	0.0928	0.283	0.1137	0.068
Mof_C 	C 	0.2115	0.4832	0.08029	0.058
Mof_H 	H 	0.2706	0.3663	0.0864	0.009
Mof_C 	C 	0.88968	0.6058	0.1791	-0.01
Mof_C 	C 	0.8493	0.826	0.19511	-0.084
Mof_H 	H 	0.8194	0.9404	0.1652	0.071
Mof_C 	C 	0.85395	0.8742	0.25632	0.051
Mof_H 	H 	0.8278	0.0244	0.2685	0.023
Mof_C 	C 	0.89645	0.705	0.2998	-0.162
Mof_C 	C 	0.89453	0.7564	0.36581	0.476
Mof_C 	C 	0.93669	0.4855	0.28267	0.053
Mof_H 	H 	0.9657	0.3701	0.3125	0.008
Mof_C 	C 	0.93438	0.4355	0.22195	-0.088
Mof_H 	H 	0.9629	0.2874	0.2099	0.065
Mof_Ca	Ca	0.9037	0.24417	0.45839	1.555
Mof_S 	S 	0.61603	0.03388	0.39758	0.317
Mof_O 	O 	0.09535	0.0814	0.47329	-0.579
Mof_O 	O 	0.12935	0.4718	0.46976	-0.515
Mof_O 	O 	0.69614	0.1954	0.43349	-0.358
Mof_O 	O 	0.63114	0.7793	0.40462	-0.251
Mof_O 	O 	0.61287	0.4723	0.11989	-0.475
Mof_O 	O 	0.60128	0.0794	0.09978	-0.504
Mof_C 	C 	0.15764	0.2577	0.46451	0.452
Mof_C 	C 	0.2696	0.2048	0.44472	-0.161
Mof_C 	C 	0.35493	0.3775	0.45205	0.06
Mof_H 	H 	0.3407	0.5302	0.4679	0.018
Mof_C 	C 	0.46077	0.3299	0.43647	-0.095
Mof_H 	H 	0.5191	0.4484	0.4414	0.083
Mof_C 	C 	0.47934	0.1056	0.41353	0.003
Mof_C 	C 	0.39377	0.9332	0.40371	-0.089
Mof_H 	H 	0.4072	0.783	0.3863	0.067
Mof_C 	C 	0.2885	0.9832	0.41971	0.055
Mof_H 	H 	0.2294	0.8663	0.4136	0.009
Mof_C 	C 	0.61032	0.1058	0.3209	-0.014
Mof_C 	C 	0.6507	0.326	0.30489	-0.08
Mof_H 	H 	0.6806	0.4404	0.3348	0.069
Mof_C 	C 	0.64605	0.3742	0.24368	0.043
Mof_H 	H 	0.6722	0.5244	0.2315	0.028
Mof_C 	C 	0.60355	0.205	0.2002	-0.16
Mof_C 	C 	0.60547	0.2564	0.13419	0.475
Mof_C 	C 	0.56331	0.9855	0.21733	0.052
Mof_H 	H 	0.5343	0.8701	0.1875	0.009
Mof_C 	C 	0.56562	0.9355	0.27805	-0.084
Mof_H 	H 	0.5371	0.7874	0.2901	0.065
Mof_Ca	Ca	0.4037	0.25583	0.95839	1.559
Mof_S 	S 	0.11603	0.46612	0.89758	0.319
Mof_O 	O 	0.59535	0.4186	0.97329	-0.581
Mof_O 	O 	0.62935	0.0282	0.96976	-0.516
Mof_O 	O 	0.19614	0.3046	0.93349	-0.358
Mof_O 	O 	0.13114	0.7207	0.90462	-0.253
Mof_O 	O 	0.11287	0.0277	0.61989	-0.472
Mof_O 	O 	0.10128	0.4206	0.59978	-0.503
Mof_C 	C 	0.65764	0.2423	0.96451	0.452
Mof_C 	C 	0.7696	0.2952	0.94472	-0.163
Mof_C 	C 	0.85493	0.1225	0.95205	0.059
Mof_H 	H 	0.8407	0.9698	0.9679	0.02
Mof_C 	C 	0.96077	0.1701	0.93647	-0.098
Mof_H 	H 	0.0191	0.0516	0.9414	0.085
Mof_C 	C 	0.97934	0.3944	0.91353	0.006
Mof_C 	C 	0.89377	0.5668	0.90371	-0.092
Mof_H 	H 	0.9072	0.717	0.8863	0.068
Mof_C 	C 	0.7885	0.5168	0.91971	0.058
Mof_H 	H 	0.7294	0.6337	0.9136	0.009
Mof_C 	C 	0.11032	0.3942	0.8209	-0.01
Mof_C 	C 	0.1507	0.174	0.80489	-0.084
Mof_H 	H 	0.1806	0.0596	0.8348	0.071
Mof_C 	C 	0.14605	0.1258	0.74368	0.051
Mof_H 	H 	0.1722	0.9756	0.7315	0.023
Mof_C 	C 	0.10355	0.295	0.7002	-0.162
Mof_C 	C 	0.10547	0.2436	0.63419	0.476
Mof_C 	C 	0.06331	0.5145	0.71733	0.053
Mof_H 	H 	0.0343	0.6299	0.6875	0.008
Mof_C 	C 	0.06562	0.5645	0.77805	-0.088
Mof_H 	H 	0.0371	0.7126	0.7901	0.065
Mof_Ca	Ca	0.0963	0.75583	0.54161	1.555
Mof_S 	S 	0.38397	0.96612	0.60242	0.317
Mof_O 	O 	0.90465	0.9186	0.52671	-0.579
Mof_O 	O 	0.87065	0.5282	0.53024	-0.515
Mof_O 	O 	0.30386	0.8046	0.56651	-0.358
Mof_O 	O 	0.36886	0.2207	0.59538	-0.251
Mof_O 	O 	0.38713	0.5277	0.88011	-0.475
Mof_O 	O 	0.39872	0.9206	0.90022	-0.504
Mof_C 	C 	0.84236	0.7423	0.53549	0.452
Mof_C 	C 	0.7304	0.7952	0.55528	-0.161
Mof_C 	C 	0.64507	0.6225	0.54795	0.06
Mof_H 	H 	0.6593	0.4698	0.5321	0.018
Mof_C 	C 	0.53923	0.6701	0.56353	-0.095
Mof_H 	H 	0.4809	0.5516	0.5586	0.083
Mof_C 	C 	0.52066	0.8944	0.58647	0.003
Mof_C 	C 	0.60623	0.0668	0.59629	-0.089
Mof_H 	H 	0.5928	0.217	0.6137	0.067
Mof_C 	C 	0.7115	0.0168	0.58029	0.055
Mof_H 	H 	0.7706	0.1337	0.5864	0.009
Mof_C 	C 	0.38968	0.8942	0.6791	-0.014
Mof_C 	C 	0.3493	0.674	0.69511	-0.08
Mof_H 	H 	0.3194	0.5596	0.6652	0.069
Mof_C 	C 	0.35395	0.6258	0.75632	0.043
Mof_H 	H 	0.3278	0.4756	0.7685	0.028
Mof_C 	C 	0.39645	0.795	0.7998	-0.16
Mof_C 	C 	0.39453	0.7436	0.86581	0.475
Mof_C 	C 	0.43669	0.0145	0.78267	0.052
Mof_H 	H 	0.4657	0.1299	0.8125	0.009
Mof_C 	C 	0.43438	0.0645	0.72195	-0.084
Mof_H 	H 	0.4629	0.2126	0.7099	0.065
_end
