data_functionalizedCrystal
_audit_creation_method	'EQeq! by Chris Wilmer'
_symmetry_space_group_name_H-M	'P1'
_symmetry_Int_Tables_number	1
_symmetry_cell_setting	triclinic
loop_
_symmetry_equiv_pos_as_xyz
  x,y,z
_cell_length_a	18.554
_cell_length_b	18.554
_cell_length_c	38.822
_cell_angle_alpha	90
_cell_angle_beta	90
_cell_angle_gamma	120
loop_
_atom_site_label
_atom_site_type_symbol
_atom_site_fract_x
_atom_site_fract_y
_atom_site_fract_z
_atom_site_charge
Mof_C 	C 	0.9747	0.2152	0.1935	0.365
Mof_O 	O 	0.9632	0.1858	0.16354	-0.405
Mof_O 	O 	0.9208	0.2243	0.21047	-0.405
Mof_C 	C 	0.0521	0.2347	0.2101	-0.106
Mof_C 	C 	0.0651	0.2625	0.2439	0.008
Mof_H 	H 	0.0301	0.279	0.2538	0.048
Mof_C 	C 	0.1029	0.285	0.3205	-0.051
Mof_H 	H 	0.0519	0.2379	0.3127	0.152
Mof_C 	C 	0.1137	0.308	0.3548	-0.031
Mof_H 	H 	0.0698	0.2761	0.371	0.185
Mof_C 	C 	0.2494	0.422	0.3422	-0.022
Mof_C 	C 	0.2378	0.4	0.3076	-0.052
Mof_Se	Se	0.3862	0.5086	0.3108	0.139
Mof_N 	N 	0.2967	0.434	0.2849	-0.193
Mof_N 	N 	0.3237	0.482	0.3508	-0.169
Mof_C 	C 	0.64137	0.54853	0.52683	0.366
Mof_O 	O 	0.62987	0.51913	0.49687	-0.405
Mof_O 	O 	0.58747	0.55763	0.5438	-0.404
Mof_C 	C 	0.71877	0.56803	0.54343	-0.107
Mof_C 	C 	0.73177	0.59583	0.57723	0.008
Mof_H 	H 	0.69677	0.61233	0.58713	0.048
Mof_C 	C 	0.76957	0.61833	0.65383	-0.051
Mof_H 	H 	0.71857	0.57123	0.64603	0.152
Mof_C 	C 	0.78037	0.64133	0.68813	-0.031
Mof_H 	H 	0.73647	0.60943	0.70433	0.186
Mof_C 	C 	0.91607	0.75533	0.67553	-0.021
Mof_C 	C 	0.90447	0.73333	0.64093	-0.052
Mof_Se	Se	0.05287	0.84193	0.64413	0.139
Mof_N 	N 	0.96337	0.76733	0.61823	-0.192
Mof_N 	N 	0.99037	0.81533	0.68413	-0.168
Mof_C 	C 	0.30803	0.88187	0.86017	0.367
Mof_O 	O 	0.29653	0.85247	0.83021	-0.404
Mof_O 	O 	0.25413	0.89097	0.87714	-0.404
Mof_C 	C 	0.38543	0.90137	0.87677	-0.106
Mof_C 	C 	0.39843	0.92917	0.91057	0.009
Mof_H 	H 	0.36343	0.94567	0.92047	0.049
Mof_C 	C 	0.43623	0.95167	0.98717	-0.05
Mof_H 	H 	0.38523	0.90457	0.97937	0.153
Mof_C 	C 	0.44703	0.97467	0.02147	-0.029
Mof_H 	H 	0.40313	0.94277	0.03767	0.186
Mof_C 	C 	0.58273	0.08867	0.00887	-0.02
Mof_C 	C 	0.57113	0.06667	0.97427	-0.052
Mof_Se	Se	0.71953	0.17527	0.97747	0.14
Mof_N 	N 	0.63003	0.10067	0.95157	-0.192
Mof_N 	N 	0.65703	0.14867	0.01747	-0.168
Mof_C 	C 	0.7848	0.7595	0.1935	0.367
Mof_O 	O 	0.8142	0.7774	0.16354	-0.404
Mof_O 	O 	0.7757	0.6965	0.21047	-0.403
Mof_C 	C 	0.7653	0.8174	0.2101	-0.106
Mof_C 	C 	0.7375	0.8026	0.2439	0.009
Mof_H 	H 	0.721	0.7511	0.2538	0.049
Mof_C 	C 	0.715	0.8179	0.3205	-0.05
Mof_H 	H 	0.7621	0.814	0.3127	0.153
Mof_C 	C 	0.692	0.8057	0.3548	-0.029
Mof_H 	H 	0.7239	0.7937	0.371	0.186
Mof_C 	C 	0.578	0.8274	0.3422	-0.021
Mof_C 	C 	0.6	0.8378	0.3076	-0.051
Mof_Se	Se	0.4914	0.8776	0.3108	0.14
Mof_N 	N 	0.566	0.8627	0.2849	-0.192
Mof_N 	N 	0.518	0.8417	0.3508	-0.168
Mof_C 	C 	0.45147	0.09283	0.52683	0.367
Mof_O 	O 	0.48087	0.11073	0.49687	-0.404
Mof_O 	O 	0.44237	0.02983	0.5438	-0.404
Mof_C 	C 	0.43197	0.15073	0.54343	-0.106
Mof_C 	C 	0.40417	0.13593	0.57723	0.009
Mof_H 	H 	0.38767	0.08443	0.58713	0.049
Mof_C 	C 	0.38167	0.15123	0.65383	-0.05
Mof_H 	H 	0.42877	0.14733	0.64603	0.153
Mof_C 	C 	0.35867	0.13903	0.68813	-0.03
Mof_H 	H 	0.39057	0.12703	0.70433	0.186
Mof_C 	C 	0.24467	0.16073	0.67553	-0.021
Mof_C 	C 	0.26667	0.17113	0.64093	-0.052
Mof_Se	Se	0.15807	0.21093	0.64413	0.14
Mof_N 	N 	0.23267	0.19603	0.61823	-0.192
Mof_N 	N 	0.18467	0.17503	0.68413	-0.168
Mof_C 	C 	0.11813	0.42617	0.86017	0.367
Mof_O 	O 	0.14753	0.44407	0.83021	-0.404
Mof_O 	O 	0.10903	0.36317	0.87714	-0.403
Mof_C 	C 	0.09863	0.48407	0.87677	-0.106
Mof_C 	C 	0.07083	0.46927	0.91057	0.009
Mof_H 	H 	0.05433	0.41777	0.92047	0.049
Mof_C 	C 	0.04833	0.48457	0.98717	-0.05
Mof_H 	H 	0.09543	0.48067	0.97937	0.153
Mof_C 	C 	0.02533	0.47237	0.02147	-0.03
Mof_H 	H 	0.05723	0.46037	0.03767	0.186
Mof_C 	C 	0.91133	0.49407	0.00887	-0.02
Mof_C 	C 	0.93333	0.50447	0.97427	-0.051
Mof_Se	Se	0.82473	0.54427	0.97747	0.14
Mof_N 	N 	0.89933	0.52937	0.95157	-0.192
Mof_N 	N 	0.85133	0.50837	0.01747	-0.168
Mof_C 	C 	0.2405	0.0253	0.1935	0.366
Mof_O 	O 	0.2226	0.0368	0.16354	-0.404
Mof_O 	O 	0.3035	0.0792	0.21047	-0.403
Mof_C 	C 	0.1826	0.9479	0.2101	-0.105
Mof_C 	C 	0.1974	0.9349	0.2439	0.009
Mof_H 	H 	0.2489	0.9699	0.2538	0.049
Mof_C 	C 	0.1821	0.8971	0.3205	-0.05
Mof_H 	H 	0.186	0.9481	0.3127	0.153
Mof_C 	C 	0.1943	0.8863	0.3548	-0.029
Mof_H 	H 	0.2063	0.9302	0.371	0.186
Mof_C 	C 	0.1726	0.7506	0.3422	-0.02
Mof_C 	C 	0.1622	0.7622	0.3076	-0.051
Mof_Se	Se	0.1224	0.6138	0.3108	0.14
Mof_N 	N 	0.1373	0.7033	0.2849	-0.192
Mof_N 	N 	0.1583	0.6763	0.3508	-0.168
Mof_C 	C 	0.90717	0.35863	0.52683	0.367
Mof_O 	O 	0.88927	0.37013	0.49687	-0.404
Mof_O 	O 	0.97017	0.41253	0.5438	-0.403
Mof_C 	C 	0.84927	0.28123	0.54343	-0.106
Mof_C 	C 	0.86407	0.26823	0.57723	0.009
Mof_H 	H 	0.91557	0.30323	0.58713	0.049
Mof_C 	C 	0.84877	0.23043	0.65383	-0.051
Mof_H 	H 	0.85267	0.28143	0.64603	0.153
Mof_C 	C 	0.86097	0.21963	0.68813	-0.03
Mof_H 	H 	0.87297	0.26353	0.70433	0.186
Mof_C 	C 	0.83927	0.08393	0.67553	-0.021
Mof_C 	C 	0.82887	0.09553	0.64093	-0.052
Mof_Se	Se	0.78907	0.94713	0.64413	0.139
Mof_N 	N 	0.80397	0.03663	0.61823	-0.192
Mof_N 	N 	0.82497	0.00963	0.68413	-0.167
Mof_C 	C 	0.57383	0.69197	0.86017	0.367
Mof_O 	O 	0.55593	0.70347	0.83021	-0.404
Mof_O 	O 	0.63683	0.74587	0.87714	-0.403
Mof_C 	C 	0.51593	0.61457	0.87677	-0.106
Mof_C 	C 	0.53073	0.60157	0.91057	0.009
Mof_H 	H 	0.58223	0.63657	0.92047	0.049
Mof_C 	C 	0.51543	0.56377	0.98717	-0.05
Mof_H 	H 	0.51933	0.61477	0.97937	0.153
Mof_C 	C 	0.52763	0.55297	0.02147	-0.029
Mof_H 	H 	0.53963	0.59687	0.03767	0.186
Mof_C 	C 	0.50593	0.41727	0.00887	-0.021
Mof_C 	C 	0.49553	0.42887	0.97427	-0.052
Mof_Se	Se	0.45573	0.28047	0.97747	0.14
Mof_N 	N 	0.47063	0.36997	0.95157	-0.192
Mof_N 	N 	0.49163	0.34297	0.01747	-0.168
Mof_C 	C 	0.2152	0.9747	0.8065	0.366
Mof_O 	O 	0.1858	0.9632	0.83646	-0.404
Mof_O 	O 	0.2243	0.9208	0.78953	-0.404
Mof_C 	C 	0.2347	0.0521	0.7899	-0.105
Mof_C 	C 	0.2625	0.0651	0.7561	0.009
Mof_H 	H 	0.279	0.0301	0.7462	0.049
Mof_C 	C 	0.285	0.1029	0.6795	-0.05
Mof_H 	H 	0.2379	0.0519	0.6873	0.153
Mof_C 	C 	0.308	0.1137	0.6452	-0.03
Mof_H 	H 	0.2761	0.0698	0.629	0.186
Mof_C 	C 	0.422	0.2494	0.6578	-0.021
Mof_C 	C 	0.4	0.2378	0.6924	-0.051
Mof_Se	Se	0.5086	0.3862	0.6892	0.14
Mof_N 	N 	0.434	0.2967	0.7151	-0.192
Mof_N 	N 	0.482	0.3237	0.6492	-0.168
Mof_C 	C 	0.88187	0.30803	0.13983	0.367
Mof_O 	O 	0.85247	0.29653	0.16979	-0.404
Mof_O 	O 	0.89097	0.25413	0.12286	-0.404
Mof_C 	C 	0.90137	0.38543	0.12323	-0.106
Mof_C 	C 	0.92917	0.39843	0.08943	0.009
Mof_H 	H 	0.94567	0.36343	0.07953	0.049
Mof_C 	C 	0.95167	0.43623	0.01283	-0.05
Mof_H 	H 	0.90457	0.38523	0.02063	0.153
Mof_C 	C 	0.97467	0.44703	0.97853	-0.029
Mof_H 	H 	0.94277	0.40313	0.96233	0.186
Mof_C 	C 	0.08867	0.58273	0.99113	-0.02
Mof_C 	C 	0.06667	0.57113	0.02573	-0.052
Mof_Se	Se	0.17527	0.71953	0.02253	0.14
Mof_N 	N 	0.10067	0.63003	0.04843	-0.192
Mof_N 	N 	0.14867	0.65703	0.98253	-0.168
Mof_C 	C 	0.54853	0.64137	0.47317	0.367
Mof_O 	O 	0.51913	0.62987	0.50313	-0.404
Mof_O 	O 	0.55763	0.58747	0.4562	-0.403
Mof_C 	C 	0.56803	0.71877	0.45657	-0.106
Mof_C 	C 	0.59583	0.73177	0.42277	0.009
Mof_H 	H 	0.61233	0.69677	0.41287	0.049
Mof_C 	C 	0.61833	0.76957	0.34617	-0.05
Mof_H 	H 	0.57123	0.71857	0.35397	0.153
Mof_C 	C 	0.64133	0.78037	0.31187	-0.03
Mof_H 	H 	0.60943	0.73647	0.29567	0.186
Mof_C 	C 	0.75533	0.91607	0.32447	-0.021
Mof_C 	C 	0.73333	0.90447	0.35907	-0.052
Mof_Se	Se	0.84193	0.05287	0.35587	0.139
Mof_N 	N 	0.76733	0.96337	0.38177	-0.192
Mof_N 	N 	0.81533	0.99037	0.31587	-0.168
Mof_C 	C 	0.7595	0.7848	0.8065	0.367
Mof_O 	O 	0.7774	0.8142	0.83646	-0.404
Mof_O 	O 	0.6965	0.7757	0.78953	-0.403
Mof_C 	C 	0.8174	0.7653	0.7899	-0.106
Mof_C 	C 	0.8026	0.7375	0.7561	0.009
Mof_H 	H 	0.7511	0.721	0.7462	0.049
Mof_C 	C 	0.8179	0.715	0.6795	-0.05
Mof_H 	H 	0.814	0.7621	0.6873	0.153
Mof_C 	C 	0.8057	0.692	0.6452	-0.029
Mof_H 	H 	0.7937	0.7239	0.629	0.186
Mof_C 	C 	0.8274	0.578	0.6578	-0.021
Mof_C 	C 	0.8378	0.6	0.6924	-0.051
Mof_Se	Se	0.8776	0.4914	0.6892	0.14
Mof_N 	N 	0.8627	0.566	0.7151	-0.192
Mof_N 	N 	0.8417	0.518	0.6492	-0.168
Mof_C 	C 	0.42617	0.11813	0.13983	0.367
Mof_O 	O 	0.44407	0.14753	0.16979	-0.404
Mof_O 	O 	0.36317	0.10903	0.12286	-0.403
Mof_C 	C 	0.48407	0.09863	0.12323	-0.106
Mof_C 	C 	0.46927	0.07083	0.08943	0.009
Mof_H 	H 	0.41777	0.05433	0.07953	0.049
Mof_C 	C 	0.48457	0.04833	0.01283	-0.05
Mof_H 	H 	0.48067	0.09543	0.02063	0.153
Mof_C 	C 	0.47237	0.02533	0.97853	-0.03
Mof_H 	H 	0.46037	0.05723	0.96233	0.186
Mof_C 	C 	0.49407	0.91133	0.99113	-0.02
Mof_C 	C 	0.50447	0.93333	0.02573	-0.051
Mof_Se	Se	0.54427	0.82473	0.02253	0.14
Mof_N 	N 	0.52937	0.89933	0.04843	-0.192
Mof_N 	N 	0.50837	0.85133	0.98253	-0.168
Mof_C 	C 	0.09283	0.45147	0.47317	0.367
Mof_O 	O 	0.11073	0.48087	0.50313	-0.404
Mof_O 	O 	0.02983	0.44237	0.4562	-0.404
Mof_C 	C 	0.15073	0.43197	0.45657	-0.106
Mof_C 	C 	0.13593	0.40417	0.42277	0.009
Mof_H 	H 	0.08443	0.38767	0.41287	0.049
Mof_C 	C 	0.15123	0.38167	0.34617	-0.05
Mof_H 	H 	0.14733	0.42877	0.35397	0.153
Mof_C 	C 	0.13903	0.35867	0.31187	-0.03
Mof_H 	H 	0.12703	0.39057	0.29567	0.186
Mof_C 	C 	0.16073	0.24467	0.32447	-0.021
Mof_C 	C 	0.17113	0.26667	0.35907	-0.052
Mof_Se	Se	0.21093	0.15807	0.35587	0.14
Mof_N 	N 	0.19603	0.23267	0.38177	-0.192
Mof_N 	N 	0.17503	0.18467	0.31587	-0.168
Mof_C 	C 	0.0253	0.2405	0.8065	0.366
Mof_O 	O 	0.0368	0.2226	0.83646	-0.404
Mof_O 	O 	0.0792	0.3035	0.78953	-0.403
Mof_C 	C 	0.9479	0.1826	0.7899	-0.105
Mof_C 	C 	0.9349	0.1974	0.7561	0.009
Mof_H 	H 	0.9699	0.2489	0.7462	0.049
Mof_C 	C 	0.8971	0.1821	0.6795	-0.05
Mof_H 	H 	0.9481	0.186	0.6873	0.153
Mof_C 	C 	0.8863	0.1943	0.6452	-0.029
Mof_H 	H 	0.9302	0.2063	0.629	0.186
Mof_C 	C 	0.7506	0.1726	0.6578	-0.02
Mof_C 	C 	0.7622	0.1622	0.6924	-0.051
Mof_Se	Se	0.6138	0.1224	0.6892	0.14
Mof_N 	N 	0.7033	0.1373	0.7151	-0.192
Mof_N 	N 	0.6763	0.1583	0.6492	-0.168
Mof_C 	C 	0.69197	0.57383	0.13983	0.367
Mof_O 	O 	0.70347	0.55593	0.16979	-0.404
Mof_O 	O 	0.74587	0.63683	0.12286	-0.403
Mof_C 	C 	0.61457	0.51593	0.12323	-0.106
Mof_C 	C 	0.60157	0.53073	0.08943	0.009
Mof_H 	H 	0.63657	0.58223	0.07953	0.049
Mof_C 	C 	0.56377	0.51543	0.01283	-0.05
Mof_H 	H 	0.61477	0.51933	0.02063	0.153
Mof_C 	C 	0.55297	0.52763	0.97853	-0.029
Mof_H 	H 	0.59687	0.53963	0.96233	0.186
Mof_C 	C 	0.41727	0.50593	0.99113	-0.021
Mof_C 	C 	0.42887	0.49553	0.02573	-0.052
Mof_Se	Se	0.28047	0.45573	0.02253	0.14
Mof_N 	N 	0.36997	0.47063	0.04843	-0.192
Mof_N 	N 	0.34297	0.49163	0.98253	-0.168
Mof_C 	C 	0.35863	0.90717	0.47317	0.367
Mof_O 	O 	0.37013	0.88927	0.50313	-0.404
Mof_O 	O 	0.41253	0.97017	0.4562	-0.403
Mof_C 	C 	0.28123	0.84927	0.45657	-0.106
Mof_C 	C 	0.26823	0.86407	0.42277	0.009
Mof_H 	H 	0.30323	0.91557	0.41287	0.049
Mof_C 	C 	0.23043	0.84877	0.34617	-0.051
Mof_H 	H 	0.28143	0.85267	0.35397	0.153
Mof_C 	C 	0.21963	0.86097	0.31187	-0.03
Mof_H 	H 	0.26353	0.87297	0.29567	0.186
Mof_C 	C 	0.08393	0.83927	0.32447	-0.021
Mof_C 	C 	0.09553	0.82887	0.35907	-0.052
Mof_Se	Se	0.94713	0.78907	0.35587	0.139
Mof_N 	N 	0.03663	0.80397	0.38177	-0.192
Mof_N 	N 	0.00963	0.82497	0.31587	-0.167
Mof_C 	C 	0.0253	0.7848	0.8065	0.366
Mof_O 	O 	0.0368	0.8142	0.83646	-0.404
Mof_O 	O 	0.0792	0.7757	0.78953	-0.404
Mof_C 	C 	0.9479	0.7653	0.7899	-0.105
Mof_C 	C 	0.9349	0.7375	0.7561	0.009
Mof_H 	H 	0.9699	0.721	0.7462	0.049
Mof_C 	C 	0.8971	0.715	0.6795	-0.05
Mof_H 	H 	0.9481	0.7621	0.6873	0.153
Mof_C 	C 	0.8863	0.692	0.6452	-0.03
Mof_H 	H 	0.9302	0.7239	0.629	0.186
Mof_C 	C 	0.7506	0.578	0.6578	-0.021
Mof_C 	C 	0.7622	0.6	0.6924	-0.051
Mof_Se	Se	0.6138	0.4914	0.6892	0.14
Mof_N 	N 	0.7033	0.566	0.7151	-0.192
Mof_N 	N 	0.6763	0.518	0.6492	-0.168
Mof_C 	C 	0.69197	0.11813	0.13983	0.367
Mof_O 	O 	0.70347	0.14753	0.16979	-0.404
Mof_O 	O 	0.74587	0.10903	0.12286	-0.404
Mof_C 	C 	0.61457	0.09863	0.12323	-0.106
Mof_C 	C 	0.60157	0.07083	0.08943	0.009
Mof_H 	H 	0.63657	0.05433	0.07953	0.049
Mof_C 	C 	0.56377	0.04833	0.01283	-0.05
Mof_H 	H 	0.61477	0.09543	0.02063	0.153
Mof_C 	C 	0.55297	0.02533	0.97853	-0.029
Mof_H 	H 	0.59687	0.05723	0.96233	0.186
Mof_C 	C 	0.41727	0.91133	0.99113	-0.02
Mof_C 	C 	0.42887	0.93333	0.02573	-0.052
Mof_Se	Se	0.28047	0.82473	0.02253	0.14
Mof_N 	N 	0.36997	0.89933	0.04843	-0.192
Mof_N 	N 	0.34297	0.85133	0.98253	-0.168
Mof_C 	C 	0.35863	0.45147	0.47317	0.367
Mof_O 	O 	0.37013	0.48087	0.50313	-0.404
Mof_O 	O 	0.41253	0.44237	0.4562	-0.403
Mof_C 	C 	0.28123	0.43197	0.45657	-0.106
Mof_C 	C 	0.26823	0.40417	0.42277	0.009
Mof_H 	H 	0.30323	0.38767	0.41287	0.049
Mof_C 	C 	0.23043	0.38167	0.34617	-0.05
Mof_H 	H 	0.28143	0.42877	0.35397	0.153
Mof_C 	C 	0.21963	0.35867	0.31187	-0.03
Mof_H 	H 	0.26353	0.39057	0.29567	0.186
Mof_C 	C 	0.08393	0.24467	0.32447	-0.021
Mof_C 	C 	0.09553	0.26667	0.35907	-0.052
Mof_Se	Se	0.94713	0.15807	0.35587	0.139
Mof_N 	N 	0.03663	0.23267	0.38177	-0.192
Mof_N 	N 	0.00963	0.18467	0.31587	-0.168
Mof_C 	C 	0.2152	0.2405	0.8065	0.367
Mof_O 	O 	0.1858	0.2226	0.83646	-0.404
Mof_O 	O 	0.2243	0.3035	0.78953	-0.403
Mof_C 	C 	0.2347	0.1826	0.7899	-0.106
Mof_C 	C 	0.2625	0.1974	0.7561	0.009
Mof_H 	H 	0.279	0.2489	0.7462	0.049
Mof_C 	C 	0.285	0.1821	0.6795	-0.05
Mof_H 	H 	0.2379	0.186	0.6873	0.153
Mof_C 	C 	0.308	0.1943	0.6452	-0.029
Mof_H 	H 	0.2761	0.2063	0.629	0.186
Mof_C 	C 	0.422	0.1726	0.6578	-0.021
Mof_C 	C 	0.4	0.1622	0.6924	-0.051
Mof_Se	Se	0.5086	0.1224	0.6892	0.14
Mof_N 	N 	0.434	0.1373	0.7151	-0.192
Mof_N 	N 	0.482	0.1583	0.6492	-0.168
Mof_C 	C 	0.88187	0.57383	0.13983	0.367
Mof_O 	O 	0.85247	0.55593	0.16979	-0.404
Mof_O 	O 	0.89097	0.63683	0.12286	-0.403
Mof_C 	C 	0.90137	0.51593	0.12323	-0.106
Mof_C 	C 	0.92917	0.53073	0.08943	0.009
Mof_H 	H 	0.94567	0.58223	0.07953	0.049
Mof_C 	C 	0.95167	0.51543	0.01283	-0.05
Mof_H 	H 	0.90457	0.51933	0.02063	0.153
Mof_C 	C 	0.97467	0.52763	0.97853	-0.03
Mof_H 	H 	0.94277	0.53963	0.96233	0.186
Mof_C 	C 	0.08867	0.50593	0.99113	-0.02
Mof_C 	C 	0.06667	0.49553	0.02573	-0.051
Mof_Se	Se	0.17527	0.45573	0.02253	0.14
Mof_N 	N 	0.10067	0.47063	0.04843	-0.192
Mof_N 	N 	0.14867	0.49163	0.98253	-0.168
Mof_C 	C 	0.54853	0.90717	0.47317	0.367
Mof_O 	O 	0.51913	0.88927	0.50313	-0.404
Mof_O 	O 	0.55763	0.97017	0.4562	-0.404
Mof_C 	C 	0.56803	0.84927	0.45657	-0.106
Mof_C 	C 	0.59583	0.86407	0.42277	0.009
Mof_H 	H 	0.61233	0.91557	0.41287	0.049
Mof_C 	C 	0.61833	0.84877	0.34617	-0.05
Mof_H 	H 	0.57123	0.85267	0.35397	0.153
Mof_C 	C 	0.64133	0.86097	0.31187	-0.03
Mof_H 	H 	0.60943	0.87297	0.29567	0.186
Mof_C 	C 	0.75533	0.83927	0.32447	-0.021
Mof_C 	C 	0.73333	0.82887	0.35907	-0.052
Mof_Se	Se	0.84193	0.78907	0.35587	0.14
Mof_N 	N 	0.76733	0.80397	0.38177	-0.192
Mof_N 	N 	0.81533	0.82497	0.31587	-0.168
Mof_C 	C 	0.7595	0.9747	0.8065	0.366
Mof_O 	O 	0.7774	0.9632	0.83646	-0.404
Mof_O 	O 	0.6965	0.9208	0.78953	-0.403
Mof_C 	C 	0.8174	0.0521	0.7899	-0.105
Mof_C 	C 	0.8026	0.0651	0.7561	0.009
Mof_H 	H 	0.7511	0.0301	0.7462	0.049
Mof_C 	C 	0.8179	0.1029	0.6795	-0.05
Mof_H 	H 	0.814	0.0519	0.6873	0.153
Mof_C 	C 	0.8057	0.1137	0.6452	-0.029
Mof_H 	H 	0.7937	0.0698	0.629	0.186
Mof_C 	C 	0.8274	0.2494	0.6578	-0.02
Mof_C 	C 	0.8378	0.2378	0.6924	-0.051
Mof_Se	Se	0.8776	0.3862	0.6892	0.14
Mof_N 	N 	0.8627	0.2967	0.7151	-0.192
Mof_N 	N 	0.8417	0.3237	0.6492	-0.168
Mof_C 	C 	0.42617	0.30803	0.13983	0.367
Mof_O 	O 	0.44407	0.29653	0.16979	-0.404
Mof_O 	O 	0.36317	0.25413	0.12286	-0.403
Mof_C 	C 	0.48407	0.38543	0.12323	-0.106
Mof_C 	C 	0.46927	0.39843	0.08943	0.009
Mof_H 	H 	0.41777	0.36343	0.07953	0.049
Mof_C 	C 	0.48457	0.43623	0.01283	-0.05
Mof_H 	H 	0.48067	0.38523	0.02063	0.153
Mof_C 	C 	0.47237	0.44703	0.97853	-0.029
Mof_H 	H 	0.46037	0.40313	0.96233	0.186
Mof_C 	C 	0.49407	0.58273	0.99113	-0.021
Mof_C 	C 	0.50447	0.57113	0.02573	-0.052
Mof_Se	Se	0.54427	0.71953	0.02253	0.14
Mof_N 	N 	0.52937	0.63003	0.04843	-0.192
Mof_N 	N 	0.50837	0.65703	0.98253	-0.168
Mof_C 	C 	0.09283	0.64137	0.47317	0.367
Mof_O 	O 	0.11073	0.62987	0.50313	-0.404
Mof_O 	O 	0.02983	0.58747	0.4562	-0.403
Mof_C 	C 	0.15073	0.71877	0.45657	-0.106
Mof_C 	C 	0.13593	0.73177	0.42277	0.009
Mof_H 	H 	0.08443	0.69677	0.41287	0.049
Mof_C 	C 	0.15123	0.76957	0.34617	-0.051
Mof_H 	H 	0.14733	0.71857	0.35397	0.153
Mof_C 	C 	0.13903	0.78037	0.31187	-0.03
Mof_H 	H 	0.12703	0.73647	0.29567	0.186
Mof_C 	C 	0.16073	0.91607	0.32447	-0.021
Mof_C 	C 	0.17113	0.90447	0.35907	-0.052
Mof_Se	Se	0.21093	0.05287	0.35587	0.139
Mof_N 	N 	0.19603	0.96337	0.38177	-0.192
Mof_N 	N 	0.17503	0.99037	0.31587	-0.167
Mof_C 	C 	0.7848	0.0253	0.1935	0.366
Mof_O 	O 	0.8142	0.0368	0.16354	-0.404
Mof_O 	O 	0.7757	0.0792	0.21047	-0.404
Mof_C 	C 	0.7653	0.9479	0.2101	-0.105
Mof_C 	C 	0.7375	0.9349	0.2439	0.009
Mof_H 	H 	0.721	0.9699	0.2538	0.049
Mof_C 	C 	0.715	0.8971	0.3205	-0.05
Mof_H 	H 	0.7621	0.9481	0.3127	0.153
Mof_C 	C 	0.692	0.8863	0.3548	-0.03
Mof_H 	H 	0.7239	0.9302	0.371	0.186
Mof_C 	C 	0.578	0.7506	0.3422	-0.021
Mof_C 	C 	0.6	0.7622	0.3076	-0.051
Mof_Se	Se	0.4914	0.6138	0.3108	0.14
Mof_N 	N 	0.566	0.7033	0.2849	-0.192
Mof_N 	N 	0.518	0.6763	0.3508	-0.168
Mof_C 	C 	0.45147	0.35863	0.52683	0.367
Mof_O 	O 	0.48087	0.37013	0.49687	-0.404
Mof_O 	O 	0.44237	0.41253	0.5438	-0.403
Mof_C 	C 	0.43197	0.28123	0.54343	-0.106
Mof_C 	C 	0.40417	0.26823	0.57723	0.009
Mof_H 	H 	0.38767	0.30323	0.58713	0.049
Mof_C 	C 	0.38167	0.23043	0.65383	-0.05
Mof_H 	H 	0.42877	0.28143	0.64603	0.153
Mof_C 	C 	0.35867	0.21963	0.68813	-0.03
Mof_H 	H 	0.39057	0.26353	0.70433	0.186
Mof_C 	C 	0.24467	0.08393	0.67553	-0.021
Mof_C 	C 	0.26667	0.09553	0.64093	-0.052
Mof_Se	Se	0.15807	0.94713	0.64413	0.139
Mof_N 	N 	0.23267	0.03663	0.61823	-0.192
Mof_N 	N 	0.18467	0.00963	0.68413	-0.168
Mof_C 	C 	0.11813	0.69197	0.86017	0.367
Mof_O 	O 	0.14753	0.70347	0.83021	-0.404
Mof_O 	O 	0.10903	0.74587	0.87714	-0.404
Mof_C 	C 	0.09863	0.61457	0.87677	-0.106
Mof_C 	C 	0.07083	0.60157	0.91057	0.009
Mof_H 	H 	0.05433	0.63657	0.92047	0.049
Mof_C 	C 	0.04833	0.56377	0.98717	-0.05
Mof_H 	H 	0.09543	0.61477	0.97937	0.153
Mof_C 	C 	0.02533	0.55297	0.02147	-0.029
Mof_H 	H 	0.05723	0.59687	0.03767	0.186
Mof_C 	C 	0.91133	0.41727	0.00887	-0.02
Mof_C 	C 	0.93333	0.42887	0.97427	-0.052
Mof_Se	Se	0.82473	0.28047	0.97747	0.14
Mof_N 	N 	0.89933	0.36997	0.95157	-0.192
Mof_N 	N 	0.85133	0.34297	0.01747	-0.168
Mof_C 	C 	0.2405	0.2152	0.1935	0.367
Mof_O 	O 	0.2226	0.1858	0.16354	-0.404
Mof_O 	O 	0.3035	0.2243	0.21047	-0.403
Mof_C 	C 	0.1826	0.2347	0.2101	-0.106
Mof_C 	C 	0.1974	0.2625	0.2439	0.009
Mof_H 	H 	0.2489	0.279	0.2538	0.049
Mof_C 	C 	0.1821	0.285	0.3205	-0.05
Mof_H 	H 	0.186	0.2379	0.3127	0.153
Mof_C 	C 	0.1943	0.308	0.3548	-0.029
Mof_H 	H 	0.2063	0.2761	0.371	0.186
Mof_C 	C 	0.1726	0.422	0.3422	-0.021
Mof_C 	C 	0.1622	0.4	0.3076	-0.051
Mof_Se	Se	0.1224	0.5086	0.3108	0.14
Mof_N 	N 	0.1373	0.434	0.2849	-0.192
Mof_N 	N 	0.1583	0.482	0.3508	-0.168
Mof_C 	C 	0.90717	0.54853	0.52683	0.367
Mof_O 	O 	0.88927	0.51913	0.49687	-0.404
Mof_O 	O 	0.97017	0.55763	0.5438	-0.404
Mof_C 	C 	0.84927	0.56803	0.54343	-0.106
Mof_C 	C 	0.86407	0.59583	0.57723	0.009
Mof_H 	H 	0.91557	0.61233	0.58713	0.049
Mof_C 	C 	0.84877	0.61833	0.65383	-0.05
Mof_H 	H 	0.85267	0.57123	0.64603	0.153
Mof_C 	C 	0.86097	0.64133	0.68813	-0.03
Mof_H 	H 	0.87297	0.60943	0.70433	0.186
Mof_C 	C 	0.83927	0.75533	0.67553	-0.021
Mof_C 	C 	0.82887	0.73333	0.64093	-0.052
Mof_Se	Se	0.78907	0.84193	0.64413	0.14
Mof_N 	N 	0.80397	0.76733	0.61823	-0.192
Mof_N 	N 	0.82497	0.81533	0.68413	-0.168
Mof_C 	C 	0.57383	0.88187	0.86017	0.367
Mof_O 	O 	0.55593	0.85247	0.83021	-0.404
Mof_O 	O 	0.63683	0.89097	0.87714	-0.403
Mof_C 	C 	0.51593	0.90137	0.87677	-0.106
Mof_C 	C 	0.53073	0.92917	0.91057	0.009
Mof_H 	H 	0.58223	0.94567	0.92047	0.049
Mof_C 	C 	0.51543	0.95167	0.98717	-0.05
Mof_H 	H 	0.51933	0.90457	0.97937	0.153
Mof_C 	C 	0.52763	0.97467	0.02147	-0.03
Mof_H 	H 	0.53963	0.94277	0.03767	0.186
Mof_C 	C 	0.50593	0.08867	0.00887	-0.02
Mof_C 	C 	0.49553	0.06667	0.97427	-0.051
Mof_Se	Se	0.45573	0.17527	0.97747	0.14
Mof_N 	N 	0.47063	0.10067	0.95157	-0.192
Mof_N 	N 	0.49163	0.14867	0.01747	-0.168
Mof_C 	C 	0.9747	0.7595	0.1935	0.366
Mof_O 	O 	0.9632	0.7774	0.16354	-0.404
Mof_O 	O 	0.9208	0.6965	0.21047	-0.403
Mof_C 	C 	0.0521	0.8174	0.2101	-0.105
Mof_C 	C 	0.0651	0.8026	0.2439	0.009
Mof_H 	H 	0.0301	0.7511	0.2538	0.049
Mof_C 	C 	0.1029	0.8179	0.3205	-0.05
Mof_H 	H 	0.0519	0.814	0.3127	0.153
Mof_C 	C 	0.1137	0.8057	0.3548	-0.029
Mof_H 	H 	0.0698	0.7937	0.371	0.186
Mof_C 	C 	0.2494	0.8274	0.3422	-0.02
Mof_C 	C 	0.2378	0.8378	0.3076	-0.051
Mof_Se	Se	0.3862	0.8776	0.3108	0.14
Mof_N 	N 	0.2967	0.8627	0.2849	-0.192
Mof_N 	N 	0.3237	0.8417	0.3508	-0.168
Mof_C 	C 	0.64137	0.09283	0.52683	0.367
Mof_O 	O 	0.62987	0.11073	0.49687	-0.404
Mof_O 	O 	0.58747	0.02983	0.5438	-0.403
Mof_C 	C 	0.71877	0.15073	0.54343	-0.106
Mof_C 	C 	0.73177	0.13593	0.57723	0.009
Mof_H 	H 	0.69677	0.08443	0.58713	0.049
Mof_C 	C 	0.76957	0.15123	0.65383	-0.051
Mof_H 	H 	0.71857	0.14733	0.64603	0.153
Mof_C 	C 	0.78037	0.13903	0.68813	-0.03
Mof_H 	H 	0.73647	0.12703	0.70433	0.186
Mof_C 	C 	0.91607	0.16073	0.67553	-0.021
Mof_C 	C 	0.90447	0.17113	0.64093	-0.052
Mof_Se	Se	0.05287	0.21093	0.64413	0.139
Mof_N 	N 	0.96337	0.19603	0.61823	-0.192
Mof_N 	N 	0.99037	0.17503	0.68413	-0.167
Mof_C 	C 	0.30803	0.42617	0.86017	0.367
Mof_O 	O 	0.29653	0.44407	0.83021	-0.404
Mof_O 	O 	0.25413	0.36317	0.87714	-0.403
Mof_C 	C 	0.38543	0.48407	0.87677	-0.106
Mof_C 	C 	0.39843	0.46927	0.91057	0.009
Mof_H 	H 	0.36343	0.41777	0.92047	0.049
Mof_C 	C 	0.43623	0.48457	0.98717	-0.05
Mof_H 	H 	0.38523	0.48067	0.97937	0.153
Mof_C 	C 	0.44703	0.47237	0.02147	-0.029
Mof_H 	H 	0.40313	0.46037	0.03767	0.186
Mof_C 	C 	0.58273	0.49407	0.00887	-0.021
Mof_C 	C 	0.57113	0.50447	0.97427	-0.052
Mof_Se	Se	0.71953	0.54427	0.97747	0.14
Mof_N 	N 	0.63003	0.52937	0.95157	-0.192
Mof_N 	N 	0.65703	0.50837	0.01747	-0.168
Mof_Cu	Cu	0.85731	0.14269	0.13892	0.908
Mof_Cu	Cu	0.52398	0.47602	0.47225	0.908
Mof_Cu	Cu	0.19064	0.80936	0.80559	0.908
Mof_Cu	Cu	0.85731	0.71462	0.13892	0.908
Mof_Cu	Cu	0.52398	0.04795	0.47225	0.908
Mof_Cu	Cu	0.19064	0.38129	0.80559	0.908
Mof_Cu	Cu	0.28538	0.14269	0.13892	0.908
Mof_Cu	Cu	0.95205	0.47602	0.47225	0.908
Mof_Cu	Cu	0.61871	0.80936	0.80559	0.908
Mof_Cu	Cu	0.14269	0.85731	0.86108	0.908
Mof_Cu	Cu	0.80936	0.19064	0.19441	0.908
Mof_Cu	Cu	0.47602	0.52398	0.52775	0.908
Mof_Cu	Cu	0.71462	0.85731	0.86108	0.908
Mof_Cu	Cu	0.38129	0.19064	0.19441	0.908
Mof_Cu	Cu	0.04795	0.52398	0.52775	0.908
Mof_Cu	Cu	0.14269	0.28538	0.86108	0.908
Mof_Cu	Cu	0.80936	0.61871	0.19441	0.908
Mof_Cu	Cu	0.47602	0.95205	0.52775	0.908
Mof_C 	C 	0.1101	0.2202	0.1941	0.056
Mof_H 	H 	0.09995	0.1999	0.1717	0.046
Mof_C 	C 	0.133	0.266	0.2641	-0.021
Mof_C 	C 	0.1655	0.331	0.297	0.02
Mof_C 	C 	0.1875	0.375	0.3657	0.034
Mof_C 	C 	0.77677	0.55353	0.52743	0.057
Mof_H 	H 	0.76662	0.53323	0.50503	0.046
Mof_C 	C 	0.79967	0.59933	0.59743	-0.021
Mof_C 	C 	0.83217	0.66433	0.63033	0.021
Mof_C 	C 	0.85417	0.70833	0.69903	0.034
Mof_C 	C 	0.44343	0.88687	0.86077	0.057
Mof_H 	H 	0.43328	0.86657	0.83837	0.046
Mof_C 	C 	0.46633	0.93267	0.93077	-0.021
Mof_C 	C 	0.49883	0.99767	0.96367	0.021
Mof_C 	C 	0.52083	0.04167	0.03237	0.033
Mof_C 	C 	0.7798	0.8899	0.1941	0.056
Mof_H 	H 	0.8001	0.90005	0.1717	0.046
Mof_C 	C 	0.734	0.867	0.2641	-0.021
Mof_C 	C 	0.669	0.8345	0.297	0.02
Mof_C 	C 	0.625	0.8125	0.3657	0.034
Mof_C 	C 	0.44647	0.22323	0.52743	0.057
Mof_H 	H 	0.46677	0.23338	0.50503	0.046
Mof_C 	C 	0.40067	0.20033	0.59743	-0.021
Mof_C 	C 	0.33567	0.16783	0.63033	0.021
Mof_C 	C 	0.29167	0.14583	0.69903	0.034
Mof_C 	C 	0.11313	0.55657	0.86077	0.057
Mof_H 	H 	0.13343	0.56672	0.83837	0.046
Mof_C 	C 	0.06733	0.53367	0.93077	-0.021
Mof_C 	C 	0.00233	0.50117	0.96367	0.021
Mof_C 	C 	0.95833	0.47917	0.03237	0.033
Mof_C 	C 	0.1101	0.8899	0.1941	0.056
Mof_H 	H 	0.09995	0.90005	0.1717	0.046
Mof_C 	C 	0.133	0.867	0.2641	-0.021
Mof_C 	C 	0.1655	0.8345	0.297	0.02
Mof_C 	C 	0.1875	0.8125	0.3657	0.033
Mof_C 	C 	0.77677	0.22323	0.52743	0.057
Mof_H 	H 	0.76662	0.23338	0.50503	0.046
Mof_C 	C 	0.79967	0.20033	0.59743	-0.021
Mof_C 	C 	0.83217	0.16783	0.63033	0.021
Mof_C 	C 	0.85417	0.14583	0.69903	0.034
Mof_C 	C 	0.44343	0.55657	0.86077	0.057
Mof_H 	H 	0.43328	0.56672	0.83837	0.046
Mof_C 	C 	0.46633	0.53367	0.93077	-0.021
Mof_C 	C 	0.49883	0.50117	0.96367	0.021
Mof_C 	C 	0.52083	0.47917	0.03237	0.034
Mof_C 	C 	0.2202	0.1101	0.8059	0.056
Mof_H 	H 	0.1999	0.09995	0.8283	0.046
Mof_C 	C 	0.266	0.133	0.7359	-0.021
Mof_C 	C 	0.331	0.1655	0.703	0.02
Mof_C 	C 	0.375	0.1875	0.6343	0.034
Mof_C 	C 	0.88687	0.44343	0.13923	0.057
Mof_H 	H 	0.86657	0.43328	0.16163	0.046
Mof_C 	C 	0.93267	0.46633	0.06923	-0.021
Mof_C 	C 	0.99767	0.49883	0.03633	0.021
Mof_C 	C 	0.04167	0.52083	0.96763	0.033
Mof_C 	C 	0.55353	0.77677	0.47257	0.057
Mof_H 	H 	0.53323	0.76662	0.49497	0.046
Mof_C 	C 	0.59933	0.79967	0.40257	-0.021
Mof_C 	C 	0.66433	0.83217	0.36967	0.021
Mof_C 	C 	0.70833	0.85417	0.30097	0.034
Mof_C 	C 	0.8899	0.7798	0.8059	0.056
Mof_H 	H 	0.90005	0.8001	0.8283	0.046
Mof_C 	C 	0.867	0.734	0.7359	-0.021
Mof_C 	C 	0.8345	0.669	0.703	0.02
Mof_C 	C 	0.8125	0.625	0.6343	0.034
Mof_C 	C 	0.55657	0.11313	0.13923	0.057
Mof_H 	H 	0.56672	0.13343	0.16163	0.046
Mof_C 	C 	0.53367	0.06733	0.06923	-0.021
Mof_C 	C 	0.50117	0.00233	0.03633	0.021
Mof_C 	C 	0.47917	0.95833	0.96763	0.033
Mof_C 	C 	0.22323	0.44647	0.47257	0.057
Mof_H 	H 	0.23338	0.46677	0.49497	0.046
Mof_C 	C 	0.20033	0.40067	0.40257	-0.021
Mof_C 	C 	0.16783	0.33567	0.36967	0.021
Mof_C 	C 	0.14583	0.29167	0.30097	0.034
Mof_C 	C 	0.8899	0.1101	0.8059	0.056
Mof_H 	H 	0.90005	0.09995	0.8283	0.046
Mof_C 	C 	0.867	0.133	0.7359	-0.021
Mof_C 	C 	0.8345	0.1655	0.703	0.02
Mof_C 	C 	0.8125	0.1875	0.6343	0.033
Mof_C 	C 	0.55657	0.44343	0.13923	0.057
Mof_H 	H 	0.56672	0.43328	0.16163	0.046
Mof_C 	C 	0.53367	0.46633	0.06923	-0.021
Mof_C 	C 	0.50117	0.49883	0.03633	0.021
Mof_C 	C 	0.47917	0.52083	0.96763	0.034
Mof_C 	C 	0.22323	0.77677	0.47257	0.057
Mof_H 	H 	0.23338	0.76662	0.49497	0.046
Mof_C 	C 	0.20033	0.79967	0.40257	-0.021
Mof_C 	C 	0.16783	0.83217	0.36967	0.021
Mof_C 	C 	0.14583	0.85417	0.30097	0.034
_end
