data_functionalizedCrystal
_audit_creation_method	'EQeq! by Chris Wilmer'
_symmetry_space_group_name_H-M	'P1'
_symmetry_Int_Tables_number	1
_symmetry_cell_setting	triclinic
loop_
_symmetry_equiv_pos_as_xyz
  x,y,z
_cell_length_a	9.178
_cell_length_b	11.148
_cell_length_c	14.337
_cell_angle_alpha	88.191
_cell_angle_beta	78.882
_cell_angle_gamma	77.968
loop_
_atom_site_label
_atom_site_type_symbol
_atom_site_fract_x
_atom_site_fract_y
_atom_site_fract_z
_atom_site_charge
Mof_Ag	Ag	0.0467	0.9881	0.38924	0.511
Mof_Ag	Ag	0.10812	0.16679	0.25114	0.596
Mof_Ag	Ag	0.10886	0.97357	0.06015	0.595
Mof_Ag	Ag	0.30238	0.00273	0.49535	0.47
Mof_C 	C 	0.3185	0.9064	0.2315	0.372
Mof_C 	C 	0.4622	0.8245	0.1816	-0.167
Mof_C 	C 	0.5439	0.7351	0.2325	0.069
Mof_H 	H 	0.5092	0.7261	0.2972	0.006
Mof_C 	C 	0.6763	0.6599	0.1873	-0.156
Mof_H 	H 	0.7305	0.6012	0.2221	0.084
Mof_C 	C 	0.5135	0.8351	0.0861	0.077
Mof_H 	H 	0.459	0.8939	0.0516	-0.015
Mof_C 	C 	0.6463	0.7588	0.0402	-0.156
Mof_H 	H 	0.6795	0.7668	0.9753	0.078
Mof_C 	C 	0.7298	0.6706	0.0908	0.078
Mof_C 	C 	0.8702	0.586	0.0431	-0.002
Mof_C 	C 	0.8775	0.4601	0.0507	-0.024
Mof_H 	H 	0.7943	0.4327	0.0855	0.041
Mof_C 	C 	0.9971	0.6258	0.991	-0.092
Mof_C 	C 	0.0064	0.7597	0.9862	0.382
Mof_C 	C 	0.7941	0.2309	0.3778	0.383
Mof_C 	C 	0.6334	0.2996	0.4107	-0.173
Mof_C 	C 	0.5473	0.2717	0.4953	0.073
Mof_H 	H 	0.5926	0.2179	0.5373	-0.027
Mof_C 	C 	0.3942	0.323	0.518	-0.159
Mof_H 	H 	0.3373	0.3025	0.575	0.074
Mof_C 	C 	0.5671	0.3868	0.3525	0.078
Mof_H 	H 	0.6253	0.4098	0.297	0.008
Mof_C 	C 	0.4138	0.4401	0.3767	-0.156
Mof_H 	H 	0.3708	0.5007	0.3382	0.084
Mof_C 	C 	0.3244	0.4043	0.4573	0.087
Mof_C 	C 	0.1577	0.4525	0.4779	-0.002
Mof_C 	C 	0.0558	0.3738	0.5017	-0.084
Mof_C 	C 	0.9007	0.4223	0.5235	-0.026
Mof_H 	H 	0.8341	0.3692	0.5396	0.046
Mof_C 	C 	0.108	0.2364	0.5014	0.34
Mof_O 	O 	0.2733	0.8864	0.3171	-0.398
Mof_O 	O 	0.2554	0.9905	0.1829	-0.438
Mof_O 	O 	0.0963	0.7888	0.0307	-0.405
Mof_O 	O 	0.9293	0.8284	0.9382	-0.437
Mof_O 	O 	0.8394	0.1374	0.4251	-0.449
Mof_O 	O 	0.87	0.2668	0.3058	-0.386
Mof_O 	O 	0.0706	0.1833	0.5776	-0.376
Mof_O 	O 	0.1862	0.1849	0.4273	-0.405
Mof_Ag	Ag	0.9533	0.0119	0.61076	0.512
Mof_Ag	Ag	0.89188	0.83321	0.74886	0.597
Mof_Ag	Ag	0.89114	0.02643	0.93985	0.595
Mof_Ag	Ag	0.69762	0.99727	0.50465	0.47
Mof_C 	C 	0.6815	0.0936	0.7685	0.372
Mof_C 	C 	0.5378	0.1755	0.8184	-0.167
Mof_C 	C 	0.4561	0.2649	0.7675	0.069
Mof_H 	H 	0.4908	0.2739	0.7028	0.006
Mof_C 	C 	0.3237	0.3401	0.8127	-0.156
Mof_H 	H 	0.2695	0.3988	0.7779	0.084
Mof_C 	C 	0.4865	0.1649	0.9139	0.077
Mof_H 	H 	0.541	0.1061	0.9484	-0.015
Mof_C 	C 	0.3537	0.2412	0.9598	-0.156
Mof_H 	H 	0.3205	0.2332	0.0247	0.078
Mof_C 	C 	0.2702	0.3294	0.9092	0.078
Mof_C 	C 	0.1298	0.414	0.9569	-0.002
Mof_C 	C 	0.1225	0.5399	0.9493	-0.024
Mof_H 	H 	0.2057	0.5673	0.9145	0.041
Mof_C 	C 	0.0029	0.3742	0.009	-0.092
Mof_C 	C 	0.9936	0.2403	0.0138	0.382
Mof_C 	C 	0.2059	0.7691	0.6222	0.383
Mof_C 	C 	0.3666	0.7004	0.5893	-0.173
Mof_C 	C 	0.4527	0.7283	0.5047	0.073
Mof_H 	H 	0.4074	0.7821	0.4627	-0.027
Mof_C 	C 	0.6058	0.677	0.482	-0.159
Mof_H 	H 	0.6627	0.6975	0.425	0.074
Mof_C 	C 	0.4329	0.6132	0.6475	0.078
Mof_H 	H 	0.3747	0.5902	0.703	0.008
Mof_C 	C 	0.5862	0.5599	0.6233	-0.156
Mof_H 	H 	0.6292	0.4993	0.6618	0.084
Mof_C 	C 	0.6756	0.5957	0.5427	0.087
Mof_C 	C 	0.8423	0.5475	0.5221	-0.002
Mof_C 	C 	0.9442	0.6262	0.4983	-0.084
Mof_C 	C 	0.0993	0.5777	0.4765	-0.026
Mof_H 	H 	0.1659	0.6308	0.4604	0.046
Mof_C 	C 	0.892	0.7636	0.4986	0.34
Mof_O 	O 	0.7267	0.1136	0.6829	-0.398
Mof_O 	O 	0.7446	0.0095	0.8171	-0.438
Mof_O 	O 	0.9037	0.2112	0.9693	-0.405
Mof_O 	O 	0.0707	0.1716	0.0618	-0.437
Mof_O 	O 	0.1606	0.8626	0.5749	-0.449
Mof_O 	O 	0.13	0.7332	0.6942	-0.386
Mof_O 	O 	0.9294	0.8167	0.4224	-0.376
Mof_O 	O 	0.8138	0.8151	0.5727	-0.405
_end
