data_functionalizedCrystal
_audit_creation_method	'EQeq! by Chris Wilmer'
_symmetry_space_group_name_H-M	'P1'
_symmetry_Int_Tables_number	1
_symmetry_cell_setting	triclinic
loop_
_symmetry_equiv_pos_as_xyz
  x,y,z
_cell_length_a	17.9257
_cell_length_b	17.9257
_cell_length_c	28.0627
_cell_angle_alpha	90
_cell_angle_beta	90
_cell_angle_gamma	90
loop_
_atom_site_label
_atom_site_type_symbol
_atom_site_fract_x
_atom_site_fract_y
_atom_site_fract_z
_atom_site_charge
Mof_O 	O 	0.68368	0.68158	0.30319	-0.41
Mof_O 	O 	0.80701	0.66571	0.29451	-0.404
Mof_O 	O 	0.55194	0.55585	0.43463	-0.401
Mof_O 	O 	0.62051	0.48795	0.48556	-0.412
Mof_C 	C 	0.74515	0.65254	0.31353	0.357
Mof_C 	C 	0.74428	0.59646	0.35339	-0.074
Mof_C 	C 	0.80946	0.55882	0.36568	-0.029
Mof_H 	H 	0.8533	0.5661	0.3473	0.065
Mof_C 	C 	0.81114	0.51129	0.40416	0.025
Mof_C 	C 	0.74671	0.50125	0.43051	-0.033
Mof_H 	H 	0.7477	0.469	0.4574	0.058
Mof_C 	C 	0.67994	0.53741	0.41861	-0.075
Mof_C 	C 	0.67964	0.58489	0.37951	0.02
Mof_H 	H 	0.6349	0.6096	0.3706	0.055
Mof_C 	C 	0.61205	0.52596	0.44866	0.354
Mof_C 	C 	0.8823	0.47643	0.42127	-0.018
Mof_C 	C 	0.91578	0.50977	0.45953	-0.069
Mof_H 	H 	0.8938	0.5532	0.473	0.058
Mof_H 	H 	0.8478	0.285	0.3898	0.085
Mof_O 	O 	0.81632	0.81842	0.30319	-0.409
Mof_O 	O 	0.69299	0.83429	0.29451	-0.403
Mof_O 	O 	0.94806	0.94415	0.43463	-0.4
Mof_O 	O 	0.87949	0.01205	0.48556	-0.412
Mof_C 	C 	0.75485	0.84746	0.31353	0.358
Mof_C 	C 	0.75572	0.90354	0.35339	-0.073
Mof_C 	C 	0.69054	0.94118	0.36568	-0.029
Mof_H 	H 	0.6467	0.9339	0.3473	0.065
Mof_C 	C 	0.68886	0.98871	0.40416	0.024
Mof_C 	C 	0.75329	0.99875	0.43051	-0.032
Mof_H 	H 	0.7523	0.031	0.4574	0.058
Mof_C 	C 	0.82006	0.96259	0.41861	-0.076
Mof_C 	C 	0.82036	0.91511	0.37951	0.021
Mof_H 	H 	0.8651	0.8904	0.3706	0.055
Mof_C 	C 	0.88795	0.97404	0.44866	0.355
Mof_C 	C 	0.6177	0.02357	0.42127	-0.018
Mof_C 	C 	0.58422	0.99023	0.45953	-0.07
Mof_H 	H 	0.6062	0.9468	0.473	0.059
Mof_H 	H 	0.6522	0.215	0.3898	0.085
Mof_O 	O 	0.81842	0.68368	0.80319	-0.409
Mof_O 	O 	0.83429	0.80701	0.79451	-0.403
Mof_O 	O 	0.94415	0.55194	0.93463	-0.4
Mof_O 	O 	0.01205	0.62051	0.98556	-0.409
Mof_C 	C 	0.84746	0.74515	0.81353	0.358
Mof_C 	C 	0.90354	0.74428	0.85339	-0.073
Mof_C 	C 	0.94118	0.80946	0.86568	-0.029
Mof_H 	H 	0.9339	0.8533	0.8473	0.065
Mof_C 	C 	0.98871	0.81114	0.90416	0.024
Mof_C 	C 	0.99875	0.74671	0.93051	-0.036
Mof_H 	H 	0.031	0.7477	0.9574	0.06
Mof_C 	C 	0.96259	0.67994	0.91861	-0.074
Mof_C 	C 	0.91511	0.67964	0.87951	0.02
Mof_H 	H 	0.8904	0.6349	0.8706	0.055
Mof_C 	C 	0.97404	0.61205	0.94866	0.351
Mof_C 	C 	0.02357	0.8823	0.92127	-0.014
Mof_C 	C 	0.99023	0.91578	0.95953	-0.074
Mof_H 	H 	0.9468	0.8938	0.973	0.06
Mof_H 	H 	0.215	0.8478	0.8898	0.085
Mof_O 	O 	0.68158	0.81632	0.80319	-0.409
Mof_O 	O 	0.66571	0.69299	0.79451	-0.403
Mof_O 	O 	0.55585	0.94806	0.93463	-0.399
Mof_O 	O 	0.48795	0.87949	0.98556	-0.41
Mof_C 	C 	0.65254	0.75485	0.81353	0.358
Mof_C 	C 	0.59646	0.75572	0.85339	-0.073
Mof_C 	C 	0.55882	0.69054	0.86568	-0.029
Mof_H 	H 	0.5661	0.6467	0.8473	0.065
Mof_C 	C 	0.51129	0.68886	0.90416	0.025
Mof_C 	C 	0.50125	0.75329	0.93051	-0.034
Mof_H 	H 	0.469	0.7523	0.9574	0.058
Mof_C 	C 	0.53741	0.82006	0.91861	-0.075
Mof_C 	C 	0.58489	0.82036	0.87951	0.02
Mof_H 	H 	0.6096	0.8651	0.8706	0.055
Mof_C 	C 	0.52596	0.88795	0.94866	0.354
Mof_C 	C 	0.47643	0.6177	0.92127	-0.018
Mof_C 	C 	0.50977	0.58422	0.95953	-0.069
Mof_H 	H 	0.5532	0.6062	0.973	0.058
Mof_H 	H 	0.285	0.6522	0.8898	0.085
Mof_O 	O 	0.81632	0.68158	0.19681	-0.409
Mof_O 	O 	0.69299	0.66571	0.20549	-0.403
Mof_O 	O 	0.94806	0.55585	0.06537	-0.399
Mof_O 	O 	0.87949	0.48795	0.01444	-0.41
Mof_C 	C 	0.75485	0.65254	0.18647	0.358
Mof_C 	C 	0.75572	0.59646	0.14661	-0.073
Mof_C 	C 	0.69054	0.55882	0.13432	-0.029
Mof_H 	H 	0.6467	0.5661	0.1527	0.065
Mof_C 	C 	0.68886	0.51129	0.09584	0.025
Mof_C 	C 	0.75329	0.50125	0.06949	-0.034
Mof_H 	H 	0.7523	0.469	0.0426	0.058
Mof_C 	C 	0.82006	0.53741	0.08139	-0.075
Mof_C 	C 	0.82036	0.58489	0.12049	0.02
Mof_H 	H 	0.8651	0.6096	0.1294	0.055
Mof_C 	C 	0.88795	0.52596	0.05134	0.354
Mof_C 	C 	0.6177	0.47643	0.07873	-0.018
Mof_C 	C 	0.58422	0.50977	0.04047	-0.069
Mof_H 	H 	0.6062	0.5532	0.027	0.058
Mof_H 	H 	0.6522	0.285	0.1102	0.085
Mof_O 	O 	0.68368	0.81842	0.19681	-0.409
Mof_O 	O 	0.80701	0.83429	0.20549	-0.403
Mof_O 	O 	0.55194	0.94415	0.06537	-0.4
Mof_O 	O 	0.62051	0.01205	0.01444	-0.409
Mof_C 	C 	0.74515	0.84746	0.18647	0.358
Mof_C 	C 	0.74428	0.90354	0.14661	-0.073
Mof_C 	C 	0.80946	0.94118	0.13432	-0.029
Mof_H 	H 	0.8533	0.9339	0.1527	0.065
Mof_C 	C 	0.81114	0.98871	0.09584	0.024
Mof_C 	C 	0.74671	0.99875	0.06949	-0.036
Mof_H 	H 	0.7477	0.031	0.0426	0.06
Mof_C 	C 	0.67994	0.96259	0.08139	-0.074
Mof_C 	C 	0.67964	0.91511	0.12049	0.02
Mof_H 	H 	0.6349	0.8904	0.1294	0.055
Mof_C 	C 	0.61205	0.97404	0.05134	0.351
Mof_C 	C 	0.8823	0.02357	0.07873	-0.014
Mof_C 	C 	0.91578	0.99023	0.04047	-0.074
Mof_H 	H 	0.8938	0.9468	0.027	0.06
Mof_H 	H 	0.8478	0.215	0.1102	0.085
Mof_O 	O 	0.68158	0.68368	0.69681	-0.409
Mof_O 	O 	0.66571	0.80701	0.70549	-0.403
Mof_O 	O 	0.55585	0.55194	0.56537	-0.4
Mof_O 	O 	0.48795	0.62051	0.51444	-0.411
Mof_C 	C 	0.65254	0.74515	0.68647	0.358
Mof_C 	C 	0.59646	0.74428	0.64661	-0.073
Mof_C 	C 	0.55882	0.80946	0.63432	-0.029
Mof_H 	H 	0.5661	0.8533	0.6527	0.065
Mof_C 	C 	0.51129	0.81114	0.59584	0.025
Mof_C 	C 	0.50125	0.74671	0.56949	-0.033
Mof_H 	H 	0.469	0.7477	0.5426	0.058
Mof_C 	C 	0.53741	0.67994	0.58139	-0.075
Mof_C 	C 	0.58489	0.67964	0.62049	0.02
Mof_H 	H 	0.6096	0.6349	0.6294	0.055
Mof_C 	C 	0.52596	0.61205	0.55134	0.354
Mof_C 	C 	0.47643	0.8823	0.57873	-0.018
Mof_C 	C 	0.50977	0.91578	0.54047	-0.069
Mof_H 	H 	0.5532	0.8938	0.527	0.058
Mof_H 	H 	0.285	0.8478	0.6102	0.085
Mof_O 	O 	0.81842	0.81632	0.69681	-0.409
Mof_O 	O 	0.83429	0.69299	0.70549	-0.403
Mof_O 	O 	0.94415	0.94806	0.56537	-0.4
Mof_O 	O 	0.01205	0.87949	0.51444	-0.412
Mof_C 	C 	0.84746	0.75485	0.68647	0.358
Mof_C 	C 	0.90354	0.75572	0.64661	-0.073
Mof_C 	C 	0.94118	0.69054	0.63432	-0.029
Mof_H 	H 	0.9339	0.6467	0.6527	0.065
Mof_C 	C 	0.98871	0.68886	0.59584	0.024
Mof_C 	C 	0.99875	0.75329	0.56949	-0.032
Mof_H 	H 	0.031	0.7523	0.5426	0.058
Mof_C 	C 	0.96259	0.82006	0.58139	-0.076
Mof_C 	C 	0.91511	0.82036	0.62049	0.021
Mof_H 	H 	0.8904	0.8651	0.6294	0.055
Mof_C 	C 	0.97404	0.88795	0.55134	0.355
Mof_C 	C 	0.02357	0.6177	0.57873	-0.018
Mof_C 	C 	0.99023	0.58422	0.54047	-0.07
Mof_H 	H 	0.9468	0.6062	0.527	0.059
Mof_H 	H 	0.215	0.6522	0.6102	0.085
Mof_O 	O 	0.31632	0.31842	0.69681	-0.409
Mof_O 	O 	0.19299	0.33429	0.70549	-0.403
Mof_O 	O 	0.44806	0.44415	0.56537	-0.4
Mof_O 	O 	0.37949	0.51205	0.51444	-0.411
Mof_C 	C 	0.25485	0.34746	0.68647	0.358
Mof_C 	C 	0.25572	0.40354	0.64661	-0.073
Mof_C 	C 	0.19054	0.44118	0.63432	-0.029
Mof_H 	H 	0.1467	0.4339	0.6527	0.065
Mof_C 	C 	0.18886	0.48871	0.59584	0.025
Mof_C 	C 	0.25329	0.49875	0.56949	-0.033
Mof_H 	H 	0.2523	0.531	0.5426	0.058
Mof_C 	C 	0.32006	0.46259	0.58139	-0.075
Mof_C 	C 	0.32036	0.41511	0.62049	0.02
Mof_H 	H 	0.3651	0.3904	0.6294	0.055
Mof_C 	C 	0.38795	0.47404	0.55134	0.354
Mof_C 	C 	0.1177	0.52357	0.57873	-0.018
Mof_C 	C 	0.08422	0.49023	0.54047	-0.069
Mof_H 	H 	0.1062	0.4468	0.527	0.058
Mof_H 	H 	0.1522	0.715	0.6102	0.085
Mof_O 	O 	0.18368	0.18158	0.69681	-0.409
Mof_O 	O 	0.30701	0.16571	0.70549	-0.403
Mof_O 	O 	0.05194	0.05585	0.56537	-0.4
Mof_O 	O 	0.12051	0.98795	0.51444	-0.412
Mof_C 	C 	0.24515	0.15254	0.68647	0.358
Mof_C 	C 	0.24428	0.09646	0.64661	-0.073
Mof_C 	C 	0.30946	0.05882	0.63432	-0.029
Mof_H 	H 	0.3533	0.0661	0.6527	0.065
Mof_C 	C 	0.31114	0.01129	0.59584	0.024
Mof_C 	C 	0.24671	0.00125	0.56949	-0.032
Mof_H 	H 	0.2477	0.969	0.5426	0.058
Mof_C 	C 	0.17994	0.03741	0.58139	-0.076
Mof_C 	C 	0.17964	0.08489	0.62049	0.021
Mof_H 	H 	0.1349	0.1096	0.6294	0.055
Mof_C 	C 	0.11205	0.02596	0.55134	0.355
Mof_C 	C 	0.3823	0.97643	0.57873	-0.018
Mof_C 	C 	0.41578	0.00977	0.54047	-0.07
Mof_H 	H 	0.3938	0.0532	0.527	0.059
Mof_H 	H 	0.3478	0.785	0.6102	0.085
Mof_O 	O 	0.18158	0.31632	0.19681	-0.409
Mof_O 	O 	0.16571	0.19299	0.20549	-0.403
Mof_O 	O 	0.05585	0.44806	0.06537	-0.4
Mof_O 	O 	0.98795	0.37949	0.01444	-0.409
Mof_C 	C 	0.15254	0.25485	0.18647	0.358
Mof_C 	C 	0.09646	0.25572	0.14661	-0.073
Mof_C 	C 	0.05882	0.19054	0.13432	-0.029
Mof_H 	H 	0.0661	0.1467	0.1527	0.065
Mof_C 	C 	0.01129	0.18886	0.09584	0.024
Mof_C 	C 	0.00125	0.25329	0.06949	-0.036
Mof_H 	H 	0.969	0.2523	0.0426	0.06
Mof_C 	C 	0.03741	0.32006	0.08139	-0.074
Mof_C 	C 	0.08489	0.32036	0.12049	0.02
Mof_H 	H 	0.1096	0.3651	0.1294	0.055
Mof_C 	C 	0.02596	0.38795	0.05134	0.351
Mof_C 	C 	0.97643	0.1177	0.07873	-0.014
Mof_C 	C 	0.00977	0.08422	0.04047	-0.074
Mof_H 	H 	0.0532	0.1062	0.027	0.06
Mof_H 	H 	0.785	0.1522	0.1102	0.085
Mof_O 	O 	0.31842	0.18368	0.19681	-0.409
Mof_O 	O 	0.33429	0.30701	0.20549	-0.403
Mof_O 	O 	0.44415	0.05194	0.06537	-0.399
Mof_O 	O 	0.51205	0.12051	0.01444	-0.41
Mof_C 	C 	0.34746	0.24515	0.18647	0.358
Mof_C 	C 	0.40354	0.24428	0.14661	-0.073
Mof_C 	C 	0.44118	0.30946	0.13432	-0.029
Mof_H 	H 	0.4339	0.3533	0.1527	0.065
Mof_C 	C 	0.48871	0.31114	0.09584	0.025
Mof_C 	C 	0.49875	0.24671	0.06949	-0.034
Mof_H 	H 	0.531	0.2477	0.0426	0.058
Mof_C 	C 	0.46259	0.17994	0.08139	-0.075
Mof_C 	C 	0.41511	0.17964	0.12049	0.02
Mof_H 	H 	0.3904	0.1349	0.1294	0.055
Mof_C 	C 	0.47404	0.11205	0.05134	0.354
Mof_C 	C 	0.52357	0.3823	0.07873	-0.018
Mof_C 	C 	0.49023	0.41578	0.04047	-0.069
Mof_H 	H 	0.4468	0.3938	0.027	0.058
Mof_H 	H 	0.715	0.3478	0.1102	0.085
Mof_O 	O 	0.18368	0.31842	0.80319	-0.409
Mof_O 	O 	0.30701	0.33429	0.79451	-0.403
Mof_O 	O 	0.05194	0.44415	0.93463	-0.399
Mof_O 	O 	0.12051	0.51205	0.98556	-0.41
Mof_C 	C 	0.24515	0.34746	0.81353	0.358
Mof_C 	C 	0.24428	0.40354	0.85339	-0.073
Mof_C 	C 	0.30946	0.44118	0.86568	-0.029
Mof_H 	H 	0.3533	0.4339	0.8473	0.065
Mof_C 	C 	0.31114	0.48871	0.90416	0.025
Mof_C 	C 	0.24671	0.49875	0.93051	-0.034
Mof_H 	H 	0.2477	0.531	0.9574	0.058
Mof_C 	C 	0.17994	0.46259	0.91861	-0.075
Mof_C 	C 	0.17964	0.41511	0.87951	0.02
Mof_H 	H 	0.1349	0.3904	0.8706	0.055
Mof_C 	C 	0.11205	0.47404	0.94866	0.354
Mof_C 	C 	0.3823	0.52357	0.92127	-0.018
Mof_C 	C 	0.41578	0.49023	0.95953	-0.069
Mof_H 	H 	0.3938	0.4468	0.973	0.058
Mof_H 	H 	0.3478	0.715	0.8898	0.085
Mof_O 	O 	0.31632	0.18158	0.80319	-0.409
Mof_O 	O 	0.19299	0.16571	0.79451	-0.403
Mof_O 	O 	0.44806	0.05585	0.93463	-0.4
Mof_O 	O 	0.37949	0.98795	0.98556	-0.409
Mof_C 	C 	0.25485	0.15254	0.81353	0.358
Mof_C 	C 	0.25572	0.09646	0.85339	-0.073
Mof_C 	C 	0.19054	0.05882	0.86568	-0.029
Mof_H 	H 	0.1467	0.0661	0.8473	0.065
Mof_C 	C 	0.18886	0.01129	0.90416	0.024
Mof_C 	C 	0.25329	0.00125	0.93051	-0.036
Mof_H 	H 	0.2523	0.969	0.9574	0.06
Mof_C 	C 	0.32006	0.03741	0.91861	-0.074
Mof_C 	C 	0.32036	0.08489	0.87951	0.02
Mof_H 	H 	0.3651	0.1096	0.8706	0.055
Mof_C 	C 	0.38795	0.02596	0.94866	0.351
Mof_C 	C 	0.1177	0.97643	0.92127	-0.014
Mof_C 	C 	0.08422	0.00977	0.95953	-0.074
Mof_H 	H 	0.1062	0.0532	0.973	0.06
Mof_H 	H 	0.1522	0.785	0.8898	0.085
Mof_O 	O 	0.31842	0.31632	0.30319	-0.409
Mof_O 	O 	0.33429	0.19299	0.29451	-0.403
Mof_O 	O 	0.44415	0.44806	0.43463	-0.4
Mof_O 	O 	0.51205	0.37949	0.48556	-0.411
Mof_C 	C 	0.34746	0.25485	0.31353	0.358
Mof_C 	C 	0.40354	0.25572	0.35339	-0.073
Mof_C 	C 	0.44118	0.19054	0.36568	-0.029
Mof_H 	H 	0.4339	0.1467	0.3473	0.065
Mof_C 	C 	0.48871	0.18886	0.40416	0.025
Mof_C 	C 	0.49875	0.25329	0.43051	-0.033
Mof_H 	H 	0.531	0.2523	0.4574	0.058
Mof_C 	C 	0.46259	0.32006	0.41861	-0.075
Mof_C 	C 	0.41511	0.32036	0.37951	0.02
Mof_H 	H 	0.3904	0.3651	0.3706	0.055
Mof_C 	C 	0.47404	0.38795	0.44866	0.354
Mof_C 	C 	0.52357	0.1177	0.42127	-0.018
Mof_C 	C 	0.49023	0.08422	0.45953	-0.069
Mof_H 	H 	0.4468	0.1062	0.473	0.058
Mof_H 	H 	0.715	0.1522	0.3898	0.085
Mof_O 	O 	0.18158	0.18368	0.30319	-0.409
Mof_O 	O 	0.16571	0.30701	0.29451	-0.403
Mof_O 	O 	0.05585	0.05194	0.43463	-0.4
Mof_O 	O 	0.98795	0.12051	0.48556	-0.412
Mof_C 	C 	0.15254	0.24515	0.31353	0.358
Mof_C 	C 	0.09646	0.24428	0.35339	-0.073
Mof_C 	C 	0.05882	0.30946	0.36568	-0.029
Mof_H 	H 	0.0661	0.3533	0.3473	0.065
Mof_C 	C 	0.01129	0.31114	0.40416	0.024
Mof_C 	C 	0.00125	0.24671	0.43051	-0.032
Mof_H 	H 	0.969	0.2477	0.4574	0.058
Mof_C 	C 	0.03741	0.17994	0.41861	-0.076
Mof_C 	C 	0.08489	0.17964	0.37951	0.021
Mof_H 	H 	0.1096	0.1349	0.3706	0.055
Mof_C 	C 	0.02596	0.11205	0.44866	0.355
Mof_C 	C 	0.97643	0.3823	0.42127	-0.018
Mof_C 	C 	0.00977	0.41578	0.45953	-0.07
Mof_H 	H 	0.0532	0.3938	0.473	0.059
Mof_H 	H 	0.785	0.3478	0.3898	0.085
Mof_Cu	Cu	0.45944	0.54056	0.47032	0.904
Mof_Cu	Cu	0.04056	0.95944	0.47032	0.904
Mof_Cu	Cu	0.95944	0.45944	0.97032	0.903
Mof_Cu	Cu	0.54056	0.04056	0.97032	0.903
Mof_Cu	Cu	0.04056	0.54056	0.02968	0.903
Mof_Cu	Cu	0.45944	0.95944	0.02968	0.903
Mof_Cu	Cu	0.54056	0.45944	0.52968	0.904
Mof_Cu	Cu	0.95944	0.04056	0.52968	0.904
Mof_Cu	Cu	0.67568	0.75	0.25	0.905
Mof_Cu	Cu	0.82432	0.75	0.25	0.905
Mof_Cu	Cu	0.75	0.67568	0.75	0.905
Mof_Cu	Cu	0.75	0.82432	0.75	0.905
Mof_Cu	Cu	0.32432	0.25	0.75	0.905
Mof_Cu	Cu	0.17568	0.25	0.75	0.905
Mof_Cu	Cu	0.25	0.32432	0.25	0.905
Mof_Cu	Cu	0.25	0.17568	0.25	0.905
Mof_O 	O 	0.8804	0.3804	0.36115	-0.158
Mof_C 	C 	0.98166	0.48166	0.47946	0.021
Mof_C 	C 	0.91305	0.41305	0.40143	0.088
Mof_C 	C 	0.8254	0.3254	0.3711	-0.165
Mof_H 	H 	0.8056	0.3056	0.3411	0.09
Mof_O 	O 	0.6196	0.1196	0.36115	-0.158
Mof_C 	C 	0.51834	0.01834	0.47946	0.021
Mof_C 	C 	0.58695	0.08695	0.40143	0.088
Mof_C 	C 	0.6746	0.1746	0.3711	-0.165
Mof_H 	H 	0.6944	0.1944	0.3411	0.09
Mof_O 	O 	0.1196	0.8804	0.86115	-0.157
Mof_C 	C 	0.01834	0.98166	0.97946	0.025
Mof_C 	C 	0.08695	0.91305	0.90143	0.085
Mof_C 	C 	0.1746	0.8254	0.8711	-0.166
Mof_H 	H 	0.1944	0.8056	0.8411	0.09
Mof_O 	O 	0.3804	0.6196	0.86115	-0.158
Mof_C 	C 	0.48166	0.51834	0.97946	0.021
Mof_C 	C 	0.41305	0.58695	0.90143	0.088
Mof_C 	C 	0.3254	0.6746	0.8711	-0.165
Mof_H 	H 	0.3056	0.6944	0.8411	0.09
Mof_O 	O 	0.6196	0.3804	0.13885	-0.158
Mof_C 	C 	0.51834	0.48166	0.02054	0.021
Mof_C 	C 	0.58695	0.41305	0.09857	0.088
Mof_C 	C 	0.6746	0.3254	0.1289	-0.165
Mof_H 	H 	0.6944	0.3056	0.1589	0.09
Mof_O 	O 	0.8804	0.1196	0.13885	-0.157
Mof_C 	C 	0.98166	0.01834	0.02054	0.025
Mof_C 	C 	0.91305	0.08695	0.09857	0.085
Mof_C 	C 	0.8254	0.1746	0.1289	-0.166
Mof_H 	H 	0.8056	0.1944	0.1589	0.09
Mof_O 	O 	0.3804	0.8804	0.63885	-0.158
Mof_C 	C 	0.48166	0.98166	0.52054	0.021
Mof_C 	C 	0.41305	0.91305	0.59857	0.088
Mof_C 	C 	0.3254	0.8254	0.6289	-0.165
Mof_H 	H 	0.3056	0.8056	0.6589	0.09
Mof_O 	O 	0.1196	0.6196	0.63885	-0.158
Mof_C 	C 	0.01834	0.51834	0.52054	0.021
Mof_C 	C 	0.08695	0.58695	0.59857	0.088
Mof_C 	C 	0.1746	0.6746	0.6289	-0.165
Mof_H 	H 	0.1944	0.6944	0.6589	0.09
_end
