data_functionalizedCrystal
_audit_creation_method	'EQeq! by Chris Wilmer'
_symmetry_space_group_name_H-M	'P1'
_symmetry_Int_Tables_number	1
_symmetry_cell_setting	triclinic
loop_
_symmetry_equiv_pos_as_xyz
  x,y,z
_cell_length_a	15.9125
_cell_length_b	20.9486
_cell_length_c	13.9023
_cell_angle_alpha	90
_cell_angle_beta	90
_cell_angle_gamma	90
loop_
_atom_site_label
_atom_site_type_symbol
_atom_site_fract_x
_atom_site_fract_y
_atom_site_fract_z
_atom_site_charge
Mof_Cd	Cd	0.74862	0.40932	0.40039	0.464
Mof_N 	N 	0.7612	0.4125	0.5684	-0.181
Mof_O 	O 	0.7211	0.51812	0.3797	-0.263
Mof_O 	O 	0.8546	0.50178	0.4097	-0.296
Mof_N 	N 	0.7361	0.4003	0.2339	-0.157
Mof_O 	O 	0.5027	0.88896	0.566	-0.289
Mof_C 	C 	0.772	0.3634	0.6189	0.152
Mof_H 	H 	0.7833	0.3252	0.5875	-0.011
Mof_O 	O 	0.3928	0.60862	0.4167	-0.26
Mof_C 	C 	0.5609	0.8504	0.5794	0.322
Mof_C 	C 	0.7949	0.5382	0.391	0.315
Mof_O 	O 	0.62622	0.86011	0.6277	-0.287
Mof_C 	C 	0.6256	0.7458	0.5314	-0.006
Mof_H 	H 	0.6765	0.7607	0.5555	0.062
Mof_C 	C 	0.7612	0.4658	0.6151	0.147
Mof_H 	H 	0.7592	0.5031	0.5789	0.012
Mof_N 	N 	0.7366	0.6469	0.3947	-0.118
Mof_C 	C 	0.7018	0.6491	0.4813	0.211
Mof_C 	C 	0.7638	0.4725	0.7132	-0.229
Mof_H 	H 	0.7621	0.5127	0.7416	0.119
Mof_C 	C 	0.8114	0.608	0.3755	-0.079
Mof_H 	H 	0.8563	0.6214	0.4194	0.087
Mof_C 	C 	0.6213	0.6873	0.4916	-0.041
Mof_O 	O 	0.7313	0.6207	0.5496	-0.216
Mof_C 	C 	0.7582	0.3444	0.0872	-0.203
Mof_H 	H 	0.7825	0.3097	0.056	0.1
Mof_C 	C 	0.7647	0.3506	0.1853	0.119
Mof_H 	H 	0.7907	0.3179	0.2195	0.009
Mof_C 	C 	0.7679	0.3627	0.7193	-0.232
Mof_H 	H 	0.7646	0.3241	0.7522	0.108
Mof_O 	O 	0.3263	0.69991	0.4297	-0.262
Mof_C 	C 	0.4771	0.7601	0.5016	0.009
Mof_H 	H 	0.4291	0.7854	0.5024	0.051
Mof_C 	C 	0.4731	0.6978	0.4656	-0.067
Mof_C 	C 	0.5537	0.7845	0.5366	-0.077
Mof_C 	C 	0.5482	0.6636	0.4575	-0.007
Mof_H 	H 	0.5477	0.6237	0.4281	0.061
Mof_C 	C 	0.3917	0.6679	0.4351	0.294
Mof_C 	C 	0.7689	0.4184	0.7682	0.184
Mof_C 	C 	0.7148	0.3907	0.0349	0.16
Mof_C 	C 	0.8373	0.6236	0.2752	-0.061
Mof_H 	H 	0.8298	0.5864	0.2345	0.056
Mof_H 	H 	0.8963	0.6352	0.2742	0.058
Mof_C 	C 	0.6877	0.4404	0.0811	-0.207
Mof_H 	H 	0.661	0.4729	0.0473	0.101
Mof_C 	C 	0.7762	0.4183	0.8769	-0.193
Mof_H 	H 	0.8265	0.3949	0.8947	0.089
Mof_H 	H 	0.7834	0.462	0.8985	0.087
Mof_C 	C 	0.698	0.4463	0.182	0.105
Mof_H 	H 	0.678	0.4827	0.213	0.014
Mof_C 	C 	0.7064	0.3912	0.9269	-0.157
Mof_H 	H 	0.6988	0.3476	0.9049	0.072
Mof_H 	H 	0.6562	0.4149	0.9099	0.076
Mof_C 	C 	0.7063	0.678	0.3015	-0.036
Mof_H 	H 	0.6859	0.7209	0.3133	0.043
Mof_H 	H 	0.6616	0.653	0.2724	0.052
Mof_C 	C 	0.7843	0.679	0.2369	-0.109
Mof_H 	H 	0.7693	0.6724	0.1701	0.057
Mof_H 	H 	0.8141	0.7192	0.2428	0.062
Mof_C 	C 	0.0506	0.5388	0.2052	0.011
Mof_H 	H 	0.0846	0.5673	0.2387	0.049
Mof_C 	C 	0.9655	0.5479	0.636	0.012
Mof_H 	H 	0.9408	0.5819	0.6035	0.051
Mof_C 	C 	0.0534	0.5376	0.11	-0.02
Mof_C 	C 	0.965	0.5489	0.7374	0.004
Mof_C 	C 	0.9797	0.5204	0.0598	0.011
Mof_C 	C 	0.9897	0.5149	0.7809	-0.032
Mof_Cd	Cd	0.25138	0.59068	0.40039	0.465
Mof_N 	N 	0.2388	0.5875	0.5684	-0.18
Mof_O 	O 	0.2789	0.48188	0.3797	-0.262
Mof_O 	O 	0.1454	0.49822	0.4097	-0.297
Mof_N 	N 	0.2639	0.5997	0.2339	-0.156
Mof_O 	O 	0.4973	0.11104	0.566	-0.291
Mof_C 	C 	0.228	0.6366	0.6189	0.151
Mof_H 	H 	0.2167	0.6748	0.5875	-0.011
Mof_O 	O 	0.6072	0.39138	0.4167	-0.26
Mof_C 	C 	0.4391	0.1496	0.5794	0.322
Mof_C 	C 	0.2051	0.4618	0.391	0.315
Mof_O 	O 	0.37378	0.13989	0.6277	-0.288
Mof_C 	C 	0.3744	0.2542	0.5314	-0.006
Mof_H 	H 	0.3235	0.2393	0.5555	0.062
Mof_C 	C 	0.2388	0.5342	0.6151	0.146
Mof_H 	H 	0.2408	0.4969	0.5789	0.012
Mof_N 	N 	0.2634	0.3531	0.3947	-0.118
Mof_C 	C 	0.2982	0.3509	0.4813	0.211
Mof_C 	C 	0.2362	0.5275	0.7132	-0.228
Mof_H 	H 	0.2379	0.4873	0.7416	0.118
Mof_C 	C 	0.1886	0.392	0.3755	-0.079
Mof_H 	H 	0.1437	0.3786	0.4194	0.085
Mof_C 	C 	0.3787	0.3127	0.4916	-0.041
Mof_O 	O 	0.2687	0.3793	0.5496	-0.217
Mof_C 	C 	0.2418	0.6556	0.0872	-0.204
Mof_H 	H 	0.2175	0.6903	0.056	0.1
Mof_C 	C 	0.2353	0.6494	0.1853	0.119
Mof_H 	H 	0.2093	0.6821	0.2195	0.008
Mof_C 	C 	0.2321	0.6373	0.7193	-0.232
Mof_H 	H 	0.2354	0.6759	0.7522	0.107
Mof_O 	O 	0.6737	0.30009	0.4297	-0.262
Mof_C 	C 	0.5229	0.2399	0.5016	0.009
Mof_H 	H 	0.5709	0.2146	0.5024	0.051
Mof_C 	C 	0.5269	0.3022	0.4656	-0.067
Mof_C 	C 	0.4463	0.2155	0.5366	-0.077
Mof_C 	C 	0.4518	0.3364	0.4575	-0.007
Mof_H 	H 	0.4523	0.3763	0.4281	0.061
Mof_C 	C 	0.6083	0.3321	0.4351	0.294
Mof_C 	C 	0.2311	0.5816	0.7682	0.181
Mof_C 	C 	0.2852	0.6093	0.0349	0.161
Mof_C 	C 	0.1627	0.3764	0.2752	-0.06
Mof_H 	H 	0.1702	0.4136	0.2345	0.055
Mof_H 	H 	0.1037	0.3648	0.2742	0.055
Mof_C 	C 	0.3123	0.5596	0.0811	-0.207
Mof_H 	H 	0.339	0.5271	0.0473	0.101
Mof_C 	C 	0.2238	0.5817	0.8769	-0.19
Mof_H 	H 	0.1735	0.6051	0.8947	0.086
Mof_H 	H 	0.2166	0.538	0.8985	0.086
Mof_C 	C 	0.302	0.5537	0.182	0.106
Mof_H 	H 	0.322	0.5173	0.213	0.014
Mof_C 	C 	0.2936	0.6088	0.9269	-0.16
Mof_H 	H 	0.3012	0.6524	0.9049	0.072
Mof_H 	H 	0.3438	0.5851	0.9099	0.076
Mof_C 	C 	0.2937	0.322	0.3015	-0.036
Mof_H 	H 	0.3141	0.2791	0.3133	0.043
Mof_H 	H 	0.3384	0.347	0.2724	0.052
Mof_C 	C 	0.2157	0.321	0.2369	-0.11
Mof_H 	H 	0.2307	0.3276	0.1701	0.057
Mof_H 	H 	0.1859	0.2808	0.2428	0.061
Mof_C 	C 	0.9494	0.4612	0.2052	0.017
Mof_H 	H 	0.9154	0.4327	0.2387	0.049
Mof_C 	C 	0.0345	0.4521	0.636	0.015
Mof_H 	H 	0.0592	0.4181	0.6035	0.047
Mof_C 	C 	0.9466	0.4624	0.11	-0.012
Mof_C 	C 	0.035	0.4511	0.7374	-0.024
Mof_C 	C 	0.0203	0.4796	0.0598	-0.019
Mof_C 	C 	0.0103	0.4851	0.7809	0.008
Mof_Cd	Cd	0.75138	0.90932	0.59961	0.468
Mof_N 	N 	0.7388	0.9125	0.4316	-0.18
Mof_O 	O 	0.7789	0.01812	0.6203	-0.265
Mof_O 	O 	0.6454	0.00178	0.5903	-0.299
Mof_N 	N 	0.7639	0.9003	0.7661	-0.156
Mof_O 	O 	0.9973	0.38896	0.434	-0.285
Mof_C 	C 	0.728	0.8634	0.3811	0.151
Mof_H 	H 	0.7167	0.8252	0.4125	-0.01
Mof_O 	O 	0.1072	0.10862	0.5833	-0.263
Mof_C 	C 	0.9391	0.3504	0.4206	0.32
Mof_C 	C 	0.7051	0.0382	0.609	0.316
Mof_O 	O 	0.87378	0.36011	0.3723	-0.287
Mof_C 	C 	0.8744	0.2458	0.4686	-0.007
Mof_H 	H 	0.8235	0.2607	0.4445	0.062
Mof_C 	C 	0.7388	0.9658	0.3849	0.152
Mof_H 	H 	0.7408	0.0031	0.4211	0.007
Mof_N 	N 	0.7634	0.1469	0.6053	-0.118
Mof_C 	C 	0.7982	0.1491	0.5187	0.212
Mof_C 	C 	0.7362	0.9725	0.2868	-0.219
Mof_H 	H 	0.7379	0.0127	0.2584	0.112
Mof_C 	C 	0.6886	0.108	0.6245	-0.08
Mof_H 	H 	0.6437	0.1214	0.5806	0.086
Mof_C 	C 	0.8787	0.1873	0.5084	-0.043
Mof_O 	O 	0.7687	0.1207	0.4504	-0.217
Mof_C 	C 	0.7418	0.8444	0.9128	-0.205
Mof_H 	H 	0.7175	0.8097	0.944	0.101
Mof_C 	C 	0.7353	0.8506	0.8147	0.12
Mof_H 	H 	0.7093	0.8179	0.7805	0.008
Mof_C 	C 	0.7321	0.8627	0.2807	-0.229
Mof_H 	H 	0.7354	0.8241	0.2478	0.107
Mof_O 	O 	0.1737	0.19991	0.5703	-0.262
Mof_C 	C 	0.0229	0.2601	0.4984	0.002
Mof_H 	H 	0.0709	0.2854	0.4976	0.052
Mof_C 	C 	0.0269	0.1978	0.5344	-0.074
Mof_C 	C 	0.9463	0.2845	0.4634	-0.07
Mof_C 	C 	0.9518	0.1636	0.5425	0.003
Mof_H 	H 	0.9523	0.1237	0.5719	0.059
Mof_C 	C 	0.1083	0.1679	0.5649	0.296
Mof_C 	C 	0.7311	0.9184	0.2318	0.178
Mof_C 	C 	0.7852	0.8907	0.9651	0.163
Mof_C 	C 	0.6627	0.1236	0.7248	-0.06
Mof_H 	H 	0.6702	0.0864	0.7655	0.054
Mof_H 	H 	0.6037	0.1352	0.7258	0.056
Mof_C 	C 	0.8123	0.9404	0.9189	-0.209
Mof_H 	H 	0.839	0.9729	0.9527	0.104
Mof_C 	C 	0.7238	0.9183	0.1231	-0.186
Mof_H 	H 	0.6735	0.8949	0.1053	0.086
Mof_H 	H 	0.7166	0.962	0.1015	0.087
Mof_C 	C 	0.802	0.9463	0.818	0.107
Mof_H 	H 	0.822	0.9827	0.787	0.015
Mof_C 	C 	0.7936	0.8912	0.0731	-0.164
Mof_H 	H 	0.8012	0.8476	0.0951	0.074
Mof_H 	H 	0.8438	0.9149	0.0901	0.079
Mof_C 	C 	0.7937	0.178	0.6985	-0.036
Mof_H 	H 	0.8141	0.2209	0.6867	0.044
Mof_H 	H 	0.8384	0.153	0.7276	0.052
Mof_C 	C 	0.7157	0.179	0.7631	-0.11
Mof_H 	H 	0.7307	0.1724	0.8299	0.057
Mof_H 	H 	0.6859	0.2192	0.7572	0.061
Mof_C 	C 	0.4494	0.0388	0.7948	0.01
Mof_H 	H 	0.4154	0.0673	0.7613	0.049
Mof_C 	C 	0.5345	0.0479	0.364	0.015
Mof_H 	H 	0.5592	0.0819	0.3965	0.048
Mof_C 	C 	0.4466	0.0376	0.89	-0.017
Mof_C 	C 	0.535	0.0489	0.2626	-0.021
Mof_C 	C 	0.5203	0.0204	0.9402	-0.016
Mof_C 	C 	0.5103	0.0149	0.2191	0.007
Mof_Cd	Cd	0.24862	0.09068	0.59961	0.462
Mof_N 	N 	0.2612	0.0875	0.4316	-0.18
Mof_O 	O 	0.2211	0.98188	0.6203	-0.26
Mof_O 	O 	0.3546	0.99822	0.5903	-0.293
Mof_N 	N 	0.2361	0.0997	0.7661	-0.156
Mof_O 	O 	0.0027	0.61104	0.434	-0.294
Mof_C 	C 	0.272	0.1366	0.3811	0.153
Mof_H 	H 	0.2833	0.1748	0.4125	-0.011
Mof_O 	O 	0.8928	0.89138	0.5833	-0.257
Mof_C 	C 	0.0609	0.6496	0.4206	0.323
Mof_C 	C 	0.2949	0.9618	0.609	0.315
Mof_O 	O 	0.12622	0.63989	0.3723	-0.289
Mof_C 	C 	0.1256	0.7542	0.4686	-0.005
Mof_H 	H 	0.1765	0.7393	0.4445	0.062
Mof_C 	C 	0.2612	0.0342	0.3849	0.141
Mof_H 	H 	0.2592	0.9969	0.4211	0.017
Mof_N 	N 	0.2366	0.8531	0.6053	-0.118
Mof_C 	C 	0.2018	0.8509	0.5187	0.211
Mof_C 	C 	0.2638	0.0275	0.2868	-0.238
Mof_H 	H 	0.2621	0.9873	0.2584	0.125
Mof_C 	C 	0.3114	0.892	0.6245	-0.078
Mof_H 	H 	0.3563	0.8786	0.5806	0.086
Mof_C 	C 	0.1213	0.8127	0.5084	-0.039
Mof_O 	O 	0.2313	0.8793	0.4504	-0.216
Mof_C 	C 	0.2582	0.1556	0.9128	-0.202
Mof_H 	H 	0.2825	0.1903	0.944	0.099
Mof_C 	C 	0.2647	0.1494	0.8147	0.118
Mof_H 	H 	0.2907	0.1821	0.7805	0.009
Mof_C 	C 	0.2679	0.1373	0.2807	-0.235
Mof_H 	H 	0.2646	0.1759	0.2478	0.108
Mof_O 	O 	0.8263	0.80009	0.5703	-0.261
Mof_C 	C 	0.9771	0.7399	0.4984	0.016
Mof_H 	H 	0.9291	0.7146	0.4976	0.049
Mof_C 	C 	0.9731	0.8022	0.5344	-0.061
Mof_C 	C 	0.0537	0.7155	0.4634	-0.084
Mof_C 	C 	0.0482	0.8364	0.5425	-0.016
Mof_H 	H 	0.0477	0.8763	0.5719	0.063
Mof_C 	C 	0.8917	0.8321	0.5649	0.293
Mof_C 	C 	0.2689	0.0816	0.2318	0.187
Mof_C 	C 	0.2148	0.1093	0.9651	0.157
Mof_C 	C 	0.3373	0.8764	0.7248	-0.062
Mof_H 	H 	0.3298	0.9136	0.7655	0.056
Mof_H 	H 	0.3963	0.8648	0.7258	0.057
Mof_C 	C 	0.1877	0.0596	0.9189	-0.206
Mof_H 	H 	0.161	0.0271	0.9527	0.098
Mof_C 	C 	0.2762	0.0817	0.1231	-0.196
Mof_H 	H 	0.3265	0.1051	0.1053	0.088
Mof_H 	H 	0.2834	0.038	0.1015	0.087
Mof_C 	C 	0.198	0.0537	0.818	0.103
Mof_H 	H 	0.178	0.0173	0.787	0.012
Mof_C 	C 	0.2064	0.1088	0.0731	-0.154
Mof_H 	H 	0.1988	0.1524	0.0951	0.07
Mof_H 	H 	0.1562	0.0851	0.0901	0.073
Mof_C 	C 	0.2063	0.822	0.6985	-0.036
Mof_H 	H 	0.1859	0.7791	0.6867	0.043
Mof_H 	H 	0.1616	0.847	0.7276	0.051
Mof_C 	C 	0.2843	0.821	0.7631	-0.109
Mof_H 	H 	0.2693	0.8276	0.8299	0.057
Mof_H 	H 	0.3141	0.7808	0.7572	0.061
Mof_C 	C 	0.5506	0.9612	0.7948	0.016
Mof_H 	H 	0.5846	0.9327	0.7613	0.049
Mof_C 	C 	0.4655	0.9521	0.364	0.012
Mof_H 	H 	0.4408	0.9181	0.3965	0.05
Mof_C 	C 	0.5534	0.9624	0.89	-0.014
Mof_C 	C 	0.465	0.9511	0.2626	0.001
Mof_C 	C 	0.4797	0.9796	0.9402	0.007
Mof_C 	C 	0.4897	0.9851	0.2191	-0.028
Mof_Cd	Cd	-4.07273e-33	0.5	0.41958	0.462
Mof_N 	N 	8.30074e-34	0.5	0.2534	-0.131
Mof_N 	N 	7.35692e-33	0.5	0.583	-0.124
Mof_C 	C 	8.03828e-33	0.5	0.791	0.014
Mof_Cd	Cd	0.5	2.72358e-33	0.58042	0.463
Mof_N 	N 	0.5	0	0.7466	-0.13
Mof_N 	N 	0.5	0	0.417	-0.123
Mof_C 	C 	0.5	0	0.209	0.013
_end
