data_functionalizedCrystal
_audit_creation_method	'EQeq! by Chris Wilmer'
_symmetry_space_group_name_H-M	'P1'
_symmetry_Int_Tables_number	1
_symmetry_cell_setting	triclinic
loop_
_symmetry_equiv_pos_as_xyz
  x,y,z
_cell_length_a	9.5741
_cell_length_b	11.4403
_cell_length_c	25.674
_cell_angle_alpha	90
_cell_angle_beta	90
_cell_angle_gamma	90
loop_
_atom_site_label
_atom_site_type_symbol
_atom_site_fract_x
_atom_site_fract_y
_atom_site_fract_z
_atom_site_charge
Mof_O 	O 	0.7974	0.9129	0.056	-0.407
Mof_C 	C 	0.9404	0.8	0.1088	-0.123
Mof_C 	C 	0.8674	0.8331	0.1526	0.121
Mof_H 	H 	0.8009	0.892	0.1496	0.038
Mof_O 	O 	0.0069	0.863	0.0243	-0.226
Mof_C 	C 	0.8885	0.7831	0.2002	-0.222
Mof_H 	H 	0.8397	0.8091	0.2293	0.139
Mof_O 	O 	0.069	0.5942	0.03781	-0.386
Mof_O 	O 	0.2532	0.6905	0.0683	-0.257
Mof_C 	C 	0.9842	0.693	0.2042	0.225
Mof_C 	C 	0.0589	0.6548	0.1614	-0.166
Mof_H 	H 	0.121	0.5927	0.1643	0.117
Mof_C 	C 	0.039	0.7122	0.1131	0.072
Mof_C 	C 	0.9147	0.8635	0.0586	0.355
Mof_C 	C 	0.1282	0.6656	0.0693	0.28
Mof_O 	O 	0.2974	0.4129	0.056	-0.462
Mof_C 	C 	0.4404	0.3	0.1088	-0.132
Mof_C 	C 	0.3674	0.3331	0.1526	0.127
Mof_H 	H 	0.3009	0.392	0.1496	0.01
Mof_O 	O 	0.5069	0.363	0.0243	-0.279
Mof_C 	C 	0.3885	0.2831	0.2002	-0.248
Mof_H 	H 	0.3397	0.3091	0.2293	0.132
Mof_O 	O 	0.569	0.0942	0.03781	-0.43
Mof_O 	O 	0.7532	0.1905	0.0683	-0.295
Mof_C 	C 	0.4842	0.193	0.2042	0.248
Mof_C 	C 	0.5589	0.1548	0.1614	-0.195
Mof_H 	H 	0.621	0.0927	0.1643	0.097
Mof_C 	C 	0.539	0.2122	0.1131	0.051
Mof_C 	C 	0.4147	0.3635	0.0586	0.376
Mof_C 	C 	0.6282	0.1656	0.0693	0.285
Mof_O 	O 	0.2026	0.0871	0.556	-0.479
Mof_C 	C 	0.0596	0.2	0.6088	-0.14
Mof_C 	C 	0.1326	0.1669	0.6526	0.143
Mof_H 	H 	0.1991	0.108	0.6496	-0.017
Mof_O 	O 	0.9931	0.137	0.5243	-0.287
Mof_C 	C 	0.1115	0.2169	0.7002	-0.265
Mof_H 	H 	0.1603	0.1909	0.7293	0.128
Mof_O 	O 	0.931	0.4058	0.53781	-0.369
Mof_O 	O 	0.7468	0.3095	0.5683	-0.264
Mof_C 	C 	0.0158	0.307	0.7042	0.276
Mof_C 	C 	0.9411	0.3452	0.6614	-0.221
Mof_H 	H 	0.879	0.4073	0.6643	0.132
Mof_C 	C 	0.961	0.2878	0.6131	0.067
Mof_C 	C 	0.0853	0.1365	0.5586	0.395
Mof_C 	C 	0.8718	0.3344	0.5693	0.274
Mof_O 	O 	0.7026	0.5871	0.556	-0.44
Mof_C 	C 	0.5596	0.7	0.6088	-0.135
Mof_C 	C 	0.6326	0.6669	0.6526	0.147
Mof_H 	H 	0.6991	0.608	0.6496	0.007
Mof_O 	O 	0.4931	0.637	0.5243	-0.242
Mof_C 	C 	0.6115	0.7169	0.7002	-0.254
Mof_H 	H 	0.6603	0.6909	0.7293	0.141
Mof_O 	O 	0.431	0.9058	0.53781	-0.313
Mof_O 	O 	0.2468	0.8095	0.5683	-0.223
Mof_C 	C 	0.5158	0.807	0.7042	0.276
Mof_C 	C 	0.4411	0.8452	0.6614	-0.205
Mof_H 	H 	0.379	0.9073	0.6643	0.158
Mof_C 	C 	0.461	0.7878	0.6131	0.093
Mof_C 	C 	0.5853	0.6365	0.5586	0.383
Mof_C 	C 	0.3718	0.8344	0.5693	0.266
Mof_O 	O 	0.2026	0.9129	0.444	-0.393
Mof_C 	C 	0.0596	0.8	0.3912	-0.104
Mof_C 	C 	0.1326	0.8331	0.3474	0.133
Mof_H 	H 	0.1991	0.892	0.3504	0.037
Mof_O 	O 	0.9931	0.863	0.4757	-0.223
Mof_C 	C 	0.1115	0.7831	0.2998	-0.239
Mof_H 	H 	0.1603	0.8091	0.2707	0.15
Mof_O 	O 	0.931	0.5942	0.46219	-0.368
Mof_O 	O 	0.7468	0.6905	0.4317	-0.24
Mof_C 	C 	0.0158	0.693	0.2958	0.275
Mof_C 	C 	0.9411	0.6548	0.3386	-0.208
Mof_H 	H 	0.879	0.5927	0.3357	0.129
Mof_C 	C 	0.961	0.7122	0.3869	0.065
Mof_C 	C 	0.0853	0.8635	0.4414	0.384
Mof_C 	C 	0.8718	0.6656	0.4307	0.277
Mof_O 	O 	0.7026	0.4129	0.444	-0.445
Mof_C 	C 	0.5596	0.3	0.3912	-0.128
Mof_C 	C 	0.6326	0.3331	0.3474	0.127
Mof_H 	H 	0.6991	0.392	0.3504	0.01
Mof_O 	O 	0.4931	0.363	0.4757	-0.247
Mof_C 	C 	0.6115	0.2831	0.2998	-0.248
Mof_H 	H 	0.6603	0.3091	0.2707	0.129
Mof_O 	O 	0.431	0.0942	0.46219	-0.404
Mof_O 	O 	0.2468	0.1905	0.4317	-0.268
Mof_C 	C 	0.5158	0.193	0.2958	0.249
Mof_C 	C 	0.4411	0.1548	0.3386	-0.196
Mof_H 	H 	0.379	0.0927	0.3357	0.1
Mof_C 	C 	0.461	0.2122	0.3869	0.057
Mof_C 	C 	0.5853	0.3635	0.4414	0.376
Mof_C 	C 	0.3718	0.1656	0.4307	0.278
Mof_O 	O 	0.7974	0.0871	0.944	-0.447
Mof_C 	C 	0.9404	0.2	0.8912	-0.146
Mof_C 	C 	0.8674	0.1669	0.8474	0.129
Mof_H 	H 	0.8009	0.108	0.8504	-0.012
Mof_O 	O 	0.0069	0.137	0.9757	-0.227
Mof_C 	C 	0.8885	0.2169	0.7998	-0.244
Mof_H 	H 	0.8397	0.1909	0.7707	0.116
Mof_O 	O 	0.069	0.4058	0.96219	-0.328
Mof_O 	O 	0.2532	0.3095	0.9317	-0.24
Mof_C 	C 	0.9842	0.307	0.7958	0.228
Mof_C 	C 	0.0589	0.3452	0.8386	-0.179
Mof_H 	H 	0.121	0.4073	0.8357	0.123
Mof_C 	C 	0.039	0.2878	0.8869	0.083
Mof_C 	C 	0.9147	0.1365	0.9414	0.362
Mof_C 	C 	0.1282	0.3344	0.9307	0.267
Mof_O 	O 	0.2974	0.5871	0.944	-0.411
Mof_C 	C 	0.4404	0.7	0.8912	-0.128
Mof_C 	C 	0.3674	0.6669	0.8474	0.146
Mof_H 	H 	0.3009	0.608	0.8504	0.012
Mof_O 	O 	0.5069	0.637	0.9757	-0.21
Mof_C 	C 	0.3885	0.7169	0.7998	-0.25
Mof_H 	H 	0.3397	0.6909	0.7707	0.142
Mof_O 	O 	0.569	0.9058	0.96219	-0.28
Mof_O 	O 	0.7532	0.8095	0.9317	-0.209
Mof_C 	C 	0.4842	0.807	0.7958	0.276
Mof_C 	C 	0.5589	0.8452	0.8386	-0.204
Mof_H 	H 	0.621	0.9073	0.8357	0.158
Mof_C 	C 	0.539	0.7878	0.8869	0.096
Mof_C 	C 	0.4147	0.6365	0.9414	0.38
Mof_C 	C 	0.6282	0.8344	0.9307	0.262
Mof_Zn	Zn	0.71314	0	-0	1.19
Mof_Zn	Zn	0.21314	0.5	-0	1.225
Mof_Zn	Zn	0.28686	-8.9768e-33	0.5	1.214
Mof_Zn	Zn	0.78686	0.5	0.5	1.247
Mof_O 	O 	1.14904e-32	0.6268	0.25	-0.264
Mof_O 	O 	0.5	0.1268	0.25	-0.299
Mof_O 	O 	2.54944e-32	0.3732	0.75	-0.264
Mof_O 	O 	0.5	0.8732	0.75	-0.256
_end
