data_functionalizedCrystal
_audit_creation_method	'EQeq! by Chris Wilmer'
_symmetry_space_group_name_H-M	'P1'
_symmetry_Int_Tables_number	1
_symmetry_cell_setting	triclinic
loop_
_symmetry_equiv_pos_as_xyz
  x,y,z
_cell_length_a	11.2499
_cell_length_b	11.7888
_cell_length_c	16.2271
_cell_angle_alpha	90
_cell_angle_beta	129.399
_cell_angle_gamma	90
loop_
_atom_site_label
_atom_site_type_symbol
_atom_site_fract_x
_atom_site_fract_y
_atom_site_fract_z
_atom_site_charge
Mof_C 	C 	0.14176	0.89649	0.76824	-0.083
Mof_C 	C 	0.08292	0.80827	0.69581	0.063
Mof_H 	H 	0.9775	0.788	0.654	0.057
Mof_C 	C 	0.17924	0.74918	0.68447	-0.104
Mof_C 	C 	0.11732	0.65186	0.60859	0.401
Mof_C 	C 	0.33305	0.78057	0.74481	0.051
Mof_H 	H 	0.3985	0.7409	0.7367	0.06
Mof_C 	C 	0.39113	0.86987	0.81698	-0.074
Mof_C 	C 	0.2959	0.92767	0.8297	0.038
Mof_H 	H 	0.3356	0.9878	0.8798	0.059
Mof_C 	C 	0.55614	0.90437	0.88058	0.309
Mof_O 	O 	0.06394	0.92905	0.88594	-0.41
Mof_O 	O 	0.86569	0.9444	0.69572	-0.222
Mof_O 	O 	0.0625	0.09001	0.79374	-0.263
Mof_O 	O 	0.21382	0.57968	0.62553	-0.444
Mof_O 	O 	0.97488	0.64863	0.53378	-0.459
Mof_O 	O 	0.64131	0.85239	0.86892	-0.343
Mof_O 	O 	0.60675	0.98594	0.94495	-0.374
Mof_S 	S 	0.02222	0.97259	0.78504	0.497
Mof_Zn	Zn	0.17668	0.02649	0.01745	1.233
Mof_C 	C 	0.85824	0.39649	0.73176	-0.076
Mof_C 	C 	0.91708	0.30827	0.80419	0.039
Mof_H 	H 	0.0225	0.288	0.846	0.069
Mof_C 	C 	0.82076	0.24918	0.81553	-0.091
Mof_C 	C 	0.88268	0.15186	0.89141	0.383
Mof_C 	C 	0.66695	0.28057	0.75519	0.042
Mof_H 	H 	0.6015	0.2409	0.7633	0.064
Mof_C 	C 	0.60887	0.36987	0.68302	-0.067
Mof_C 	C 	0.7041	0.42767	0.6703	0.032
Mof_H 	H 	0.6644	0.4878	0.6202	0.063
Mof_C 	C 	0.44386	0.40437	0.61942	0.306
Mof_O 	O 	0.93606	0.42905	0.61406	-0.41
Mof_O 	O 	0.13431	0.4444	0.80428	-0.218
Mof_O 	O 	0.9375	0.59001	0.70626	-0.272
Mof_O 	O 	0.78618	0.07968	0.87447	-0.439
Mof_O 	O 	0.02512	0.14863	0.96622	-0.443
Mof_O 	O 	0.35869	0.35239	0.63108	-0.338
Mof_O 	O 	0.39325	0.48594	0.55505	-0.37
Mof_S 	S 	0.97778	0.47259	0.71496	0.497
Mof_Zn	Zn	0.82332	0.52649	0.48255	1.238
Mof_C 	C 	0.85824	0.10351	0.23176	-0.084
Mof_C 	C 	0.91708	0.19173	0.30419	0.062
Mof_H 	H 	0.0225	0.212	0.346	0.057
Mof_C 	C 	0.82076	0.25082	0.31553	-0.104
Mof_C 	C 	0.88268	0.34814	0.39141	0.401
Mof_C 	C 	0.66695	0.21943	0.25519	0.051
Mof_H 	H 	0.6015	0.2591	0.2633	0.06
Mof_C 	C 	0.60887	0.13013	0.18302	-0.074
Mof_C 	C 	0.7041	0.07233	0.1703	0.038
Mof_H 	H 	0.6644	0.0122	0.1202	0.059
Mof_C 	C 	0.44386	0.09563	0.11942	0.309
Mof_O 	O 	0.93606	0.07095	0.11406	-0.41
Mof_O 	O 	0.13431	0.0556	0.30428	-0.222
Mof_O 	O 	0.9375	0.90999	0.20626	-0.263
Mof_O 	O 	0.78618	0.42032	0.37447	-0.444
Mof_O 	O 	0.02512	0.35137	0.46622	-0.459
Mof_O 	O 	0.35869	0.14761	0.13108	-0.343
Mof_O 	O 	0.39325	0.01406	0.05505	-0.374
Mof_S 	S 	0.97778	0.02741	0.21496	0.497
Mof_Zn	Zn	0.82332	0.97351	0.98255	1.233
Mof_C 	C 	0.14176	0.60351	0.26824	-0.076
Mof_C 	C 	0.08292	0.69173	0.19581	0.039
Mof_H 	H 	0.9775	0.712	0.154	0.069
Mof_C 	C 	0.17924	0.75082	0.18447	-0.091
Mof_C 	C 	0.11732	0.84814	0.10859	0.383
Mof_C 	C 	0.33305	0.71943	0.24481	0.042
Mof_H 	H 	0.3985	0.7591	0.2367	0.064
Mof_C 	C 	0.39113	0.63013	0.31698	-0.067
Mof_C 	C 	0.2959	0.57233	0.3297	0.032
Mof_H 	H 	0.3356	0.5122	0.3798	0.063
Mof_C 	C 	0.55614	0.59563	0.38058	0.306
Mof_O 	O 	0.06394	0.57095	0.38594	-0.41
Mof_O 	O 	0.86569	0.5556	0.19572	-0.218
Mof_O 	O 	0.0625	0.40999	0.29374	-0.272
Mof_O 	O 	0.21382	0.92032	0.12553	-0.439
Mof_O 	O 	0.97488	0.85137	0.03378	-0.443
Mof_O 	O 	0.64131	0.64761	0.36892	-0.338
Mof_O 	O 	0.60675	0.51406	0.44495	-0.37
Mof_S 	S 	0.02222	0.52741	0.28504	0.497
Mof_Zn	Zn	0.17668	0.47351	0.51745	1.238
_end
