data_functionalizedCrystal
_audit_creation_method	'EQeq! by Chris Wilmer'
_symmetry_space_group_name_H-M	'P1'
_symmetry_Int_Tables_number	1
_symmetry_cell_setting	triclinic
loop_
_symmetry_equiv_pos_as_xyz
  x,y,z
_cell_length_a	25.8978
_cell_length_b	25.8978
_cell_length_c	6.2785
_cell_angle_alpha	90
_cell_angle_beta	90
_cell_angle_gamma	120
loop_
_atom_site_label
_atom_site_type_symbol
_atom_site_fract_x
_atom_site_fract_y
_atom_site_fract_z
_atom_site_charge
Mof_Cu	Cu	0.3874	0.34916	0.1751	0.926
Mof_O 	O 	0.3544	0.3004	0.4265	-0.49
Mof_O 	O 	0.2899	0.2255	0.6333	-0.417
Mof_O 	O 	0.3624	0.2781	0.0119	-0.427
Mof_C 	C 	0.3284	0.2478	0.485	0.403
Mof_C 	C 	0.3289	0.2082	0.3041	-0.152
Mof_C 	C 	0.3479	0.2225	0.0907	0.16
Mof_C 	C 	0.3546	0.1838	0.9759	-0.003
Mof_Cu	Cu	0.05407	0.68249	0.50843	0.926
Mof_O 	O 	0.02107	0.63373	0.75983	-0.49
Mof_O 	O 	0.95657	0.55883	0.96663	-0.417
Mof_O 	O 	0.02907	0.61143	0.34523	-0.427
Mof_C 	C 	0.99507	0.58113	0.81833	0.403
Mof_C 	C 	0.99557	0.54153	0.63743	-0.152
Mof_C 	C 	0.01457	0.55583	0.42403	0.16
Mof_C 	C 	0.02127	0.51713	0.30923	-0.003
Mof_Cu	Cu	0.72073	0.01583	0.84177	0.926
Mof_O 	O 	0.68773	0.96707	0.09317	-0.49
Mof_O 	O 	0.62323	0.89217	0.29997	-0.417
Mof_O 	O 	0.69573	0.94477	0.67857	-0.427
Mof_C 	C 	0.66173	0.91447	0.15167	0.403
Mof_C 	C 	0.66223	0.87487	0.97077	-0.152
Mof_C 	C 	0.68123	0.88917	0.75737	0.16
Mof_C 	C 	0.68793	0.85047	0.64257	-0.003
Mof_Cu	Cu	0.65084	0.03824	0.1751	0.926
Mof_O 	O 	0.6996	0.054	0.4265	-0.49
Mof_O 	O 	0.7745	0.0644	0.6333	-0.417
Mof_O 	O 	0.7219	0.0843	0.0119	-0.427
Mof_C 	C 	0.7522	0.0806	0.485	0.403
Mof_C 	C 	0.7918	0.1207	0.3041	-0.152
Mof_C 	C 	0.7775	0.1254	0.0907	0.16
Mof_C 	C 	0.8162	0.1708	0.9759	-0.003
Mof_Cu	Cu	0.31751	0.37157	0.50843	0.926
Mof_O 	O 	0.36627	0.38733	0.75983	-0.49
Mof_O 	O 	0.44117	0.39773	0.96663	-0.417
Mof_O 	O 	0.38857	0.41763	0.34523	-0.427
Mof_C 	C 	0.41887	0.41393	0.81833	0.403
Mof_C 	C 	0.45847	0.45403	0.63743	-0.152
Mof_C 	C 	0.44417	0.45873	0.42403	0.16
Mof_C 	C 	0.48287	0.50413	0.30923	-0.003
Mof_Cu	Cu	0.98417	0.70491	0.84177	0.926
Mof_O 	O 	0.03293	0.72067	0.09317	-0.49
Mof_O 	O 	0.10783	0.73107	0.29997	-0.417
Mof_O 	O 	0.05523	0.75097	0.67857	-0.427
Mof_C 	C 	0.08553	0.74727	0.15167	0.403
Mof_C 	C 	0.12513	0.78737	0.97077	-0.152
Mof_C 	C 	0.11083	0.79207	0.75737	0.159
Mof_C 	C 	0.14953	0.83747	0.64257	-0.002
Mof_Cu	Cu	0.96176	0.6126	0.1751	0.926
Mof_O 	O 	0.946	0.6456	0.4265	-0.49
Mof_O 	O 	0.9356	0.7101	0.6333	-0.417
Mof_O 	O 	0.9157	0.6376	0.0119	-0.427
Mof_C 	C 	0.9194	0.6716	0.485	0.403
Mof_C 	C 	0.8793	0.6711	0.3041	-0.152
Mof_C 	C 	0.8746	0.6521	0.0907	0.16
Mof_C 	C 	0.8292	0.6454	0.9759	-0.003
Mof_Cu	Cu	0.62843	0.94593	0.50843	0.926
Mof_O 	O 	0.61267	0.97893	0.75983	-0.49
Mof_O 	O 	0.60227	0.04343	0.96663	-0.417
Mof_O 	O 	0.58237	0.97093	0.34523	-0.427
Mof_C 	C 	0.58607	0.00493	0.81833	0.403
Mof_C 	C 	0.54597	0.00443	0.63743	-0.152
Mof_C 	C 	0.54127	0.98543	0.42403	0.16
Mof_C 	C 	0.49587	0.97873	0.30923	-0.003
Mof_Cu	Cu	0.29509	0.27927	0.84177	0.926
Mof_O 	O 	0.27933	0.31227	0.09317	-0.49
Mof_O 	O 	0.26893	0.37677	0.29997	-0.417
Mof_O 	O 	0.24903	0.30427	0.67857	-0.427
Mof_C 	C 	0.25273	0.33827	0.15167	0.403
Mof_C 	C 	0.21263	0.33777	0.97077	-0.152
Mof_C 	C 	0.20793	0.31877	0.75737	0.16
Mof_C 	C 	0.16253	0.31207	0.64257	-0.003
Mof_Cu	Cu	0.6126	0.65084	0.8249	0.926
Mof_O 	O 	0.6456	0.6996	0.5735	-0.49
Mof_O 	O 	0.7101	0.7745	0.3667	-0.417
Mof_O 	O 	0.6376	0.7219	0.9881	-0.427
Mof_C 	C 	0.6716	0.7522	0.515	0.403
Mof_C 	C 	0.6711	0.7918	0.6959	-0.152
Mof_C 	C 	0.6521	0.7775	0.9093	0.16
Mof_C 	C 	0.6454	0.8162	0.0241	-0.003
Mof_Cu	Cu	0.27927	0.98417	0.15823	0.926
Mof_O 	O 	0.31227	0.03293	0.90683	-0.49
Mof_O 	O 	0.37677	0.10783	0.70003	-0.417
Mof_O 	O 	0.30427	0.05523	0.32143	-0.427
Mof_C 	C 	0.33827	0.08553	0.84833	0.403
Mof_C 	C 	0.33777	0.12513	0.02923	-0.152
Mof_C 	C 	0.31877	0.11083	0.24263	0.16
Mof_C 	C 	0.31207	0.14953	0.35743	-0.003
Mof_Cu	Cu	0.94593	0.31751	0.49157	0.926
Mof_O 	O 	0.97893	0.36627	0.24017	-0.49
Mof_O 	O 	0.04343	0.44117	0.03337	-0.417
Mof_O 	O 	0.97093	0.38857	0.65477	-0.427
Mof_C 	C 	0.00493	0.41887	0.18167	0.403
Mof_C 	C 	0.00443	0.45847	0.36257	-0.152
Mof_C 	C 	0.98543	0.44417	0.57597	0.16
Mof_C 	C 	0.97873	0.48287	0.69077	-0.003
Mof_Cu	Cu	0.34916	0.96176	0.8249	0.926
Mof_O 	O 	0.3004	0.946	0.5735	-0.49
Mof_O 	O 	0.2255	0.9356	0.3667	-0.417
Mof_O 	O 	0.2781	0.9157	0.9881	-0.427
Mof_C 	C 	0.2478	0.9194	0.515	0.403
Mof_C 	C 	0.2082	0.8793	0.6959	-0.152
Mof_C 	C 	0.2225	0.8746	0.9093	0.16
Mof_C 	C 	0.1838	0.8292	0.0241	-0.003
Mof_Cu	Cu	0.01583	0.29509	0.15823	0.926
Mof_O 	O 	0.96707	0.27933	0.90683	-0.49
Mof_O 	O 	0.89217	0.26893	0.70003	-0.417
Mof_O 	O 	0.94477	0.24903	0.32143	-0.427
Mof_C 	C 	0.91447	0.25273	0.84833	0.403
Mof_C 	C 	0.87487	0.21263	0.02923	-0.152
Mof_C 	C 	0.88917	0.20793	0.24263	0.159
Mof_C 	C 	0.85047	0.16253	0.35743	-0.002
Mof_Cu	Cu	0.68249	0.62843	0.49157	0.926
Mof_O 	O 	0.63373	0.61267	0.24017	-0.49
Mof_O 	O 	0.55883	0.60227	0.03337	-0.417
Mof_O 	O 	0.61143	0.58237	0.65477	-0.427
Mof_C 	C 	0.58113	0.58607	0.18167	0.403
Mof_C 	C 	0.54153	0.54597	0.36257	-0.152
Mof_C 	C 	0.55583	0.54127	0.57597	0.16
Mof_C 	C 	0.51713	0.49587	0.69077	-0.003
Mof_Cu	Cu	0.03824	0.3874	0.8249	0.926
Mof_O 	O 	0.054	0.3544	0.5735	-0.49
Mof_O 	O 	0.0644	0.2899	0.3667	-0.417
Mof_O 	O 	0.0843	0.3624	0.9881	-0.427
Mof_C 	C 	0.0806	0.3284	0.515	0.403
Mof_C 	C 	0.1207	0.3289	0.6959	-0.152
Mof_C 	C 	0.1254	0.3479	0.9093	0.16
Mof_C 	C 	0.1708	0.3546	0.0241	-0.003
Mof_Cu	Cu	0.70491	0.72073	0.15823	0.926
Mof_O 	O 	0.72067	0.68773	0.90683	-0.49
Mof_O 	O 	0.73107	0.62323	0.70003	-0.417
Mof_O 	O 	0.75097	0.69573	0.32143	-0.427
Mof_C 	C 	0.74727	0.66173	0.84833	0.403
Mof_C 	C 	0.78737	0.66223	0.02923	-0.152
Mof_C 	C 	0.79207	0.68123	0.24263	0.16
Mof_C 	C 	0.83747	0.68793	0.35743	-0.003
Mof_Cu	Cu	0.37157	0.05407	0.49157	0.926
Mof_O 	O 	0.38733	0.02107	0.24017	-0.49
Mof_O 	O 	0.39773	0.95657	0.03337	-0.417
Mof_O 	O 	0.41763	0.02907	0.65477	-0.427
Mof_C 	C 	0.41393	0.99507	0.18167	0.403
Mof_C 	C 	0.45403	0.99557	0.36257	-0.152
Mof_C 	C 	0.45873	0.01457	0.57597	0.16
Mof_C 	C 	0.50413	0.02127	0.69077	-0.003
_end
