data_functionalizedCrystal
_audit_creation_method	'EQeq! by Chris Wilmer'
_symmetry_space_group_name_H-M	'P1'
_symmetry_Int_Tables_number	1
_symmetry_cell_setting	triclinic
loop_
_symmetry_equiv_pos_as_xyz
  x,y,z
_cell_length_a	8.8601
_cell_length_b	12.9854
_cell_length_c	12.9854
_cell_angle_alpha	90
_cell_angle_beta	90
_cell_angle_gamma	90
loop_
_atom_site_label
_atom_site_type_symbol
_atom_site_fract_x
_atom_site_fract_y
_atom_site_fract_z
_atom_site_charge
Mof_Sr	Sr	0.71359	0.04883	0.94494	1.276
Mof_Sr	Sr	0.71359	0.45117	0.55506	1.274
Mof_Sr	Sr	0.71359	0.55506	0.04883	1.275
Mof_Sr	Sr	0.71359	0.94494	0.45117	1.275
Mof_Sr	Sr	0.28641	0.95117	0.05506	1.276
Mof_Sr	Sr	0.28641	0.54883	0.44494	1.274
Mof_Sr	Sr	0.28641	0.44494	0.95117	1.274
Mof_Sr	Sr	0.28641	0.05506	0.54883	1.274
Mof_C 	C 	0.6234	0.9915	0.1962	0.325
Mof_C 	C 	0.7921	0.99111	0.19643	-0.038
Mof_C 	C 	0.6234	0.5085	0.3038	0.325
Mof_C 	C 	0.7921	0.50889	0.30357	-0.038
Mof_C 	C 	0.6234	0.3038	0.9915	0.325
Mof_C 	C 	0.7921	0.30357	0.99111	-0.038
Mof_C 	C 	0.6234	0.1962	0.5085	0.325
Mof_C 	C 	0.7921	0.19643	0.50889	-0.038
Mof_C 	C 	0.3766	0.0085	0.8038	0.325
Mof_C 	C 	0.2079	0.00889	0.80357	-0.038
Mof_C 	C 	0.3766	0.4915	0.6962	0.325
Mof_C 	C 	0.2079	0.49111	0.69643	-0.038
Mof_C 	C 	0.3766	0.6962	0.0085	0.325
Mof_C 	C 	0.2079	0.69643	0.00889	-0.038
Mof_C 	C 	0.3766	0.8038	0.4915	0.325
Mof_C 	C 	0.2079	0.80357	0.49111	-0.038
Mof_N 	N 	0.8767	0.9978	0.11206	-0.17
Mof_N 	N 	0.8742	0.98186	0.28108	-0.167
Mof_N 	N 	0.0185	0.99241	0.14732	-0.158
Mof_N 	N 	0.0177	0.98296	0.24778	-0.109
Mof_N 	N 	0.8767	0.5022	0.38794	-0.171
Mof_N 	N 	0.8742	0.51814	0.21892	-0.167
Mof_N 	N 	0.0185	0.50759	0.35268	-0.158
Mof_N 	N 	0.0177	0.51704	0.25222	-0.109
Mof_N 	N 	0.8767	0.38794	0.9978	-0.17
Mof_N 	N 	0.8742	0.21892	0.98186	-0.167
Mof_N 	N 	0.0185	0.35268	0.99241	-0.158
Mof_N 	N 	0.0177	0.25222	0.98296	-0.109
Mof_N 	N 	0.8767	0.11206	0.5022	-0.17
Mof_N 	N 	0.8742	0.28108	0.51814	-0.167
Mof_N 	N 	0.0185	0.14732	0.50759	-0.158
Mof_N 	N 	0.0177	0.24778	0.51704	-0.109
Mof_N 	N 	0.1233	0.0022	0.88794	-0.17
Mof_N 	N 	0.1258	0.01814	0.71892	-0.167
Mof_N 	N 	0.9815	0.00759	0.85268	-0.158
Mof_N 	N 	0.9823	0.01704	0.75222	-0.109
Mof_N 	N 	0.1233	0.4978	0.61206	-0.171
Mof_N 	N 	0.1258	0.48186	0.78108	-0.167
Mof_N 	N 	0.9815	0.49241	0.64732	-0.158
Mof_N 	N 	0.9823	0.48296	0.74778	-0.109
Mof_N 	N 	0.1233	0.61206	0.0022	-0.17
Mof_N 	N 	0.1258	0.78108	0.01814	-0.167
Mof_N 	N 	0.9815	0.64732	0.00759	-0.158
Mof_N 	N 	0.9823	0.74778	0.01704	-0.109
Mof_N 	N 	0.1233	0.88794	0.4978	-0.17
Mof_N 	N 	0.1258	0.71892	0.48186	-0.167
Mof_N 	N 	0.9815	0.85268	0.49241	-0.158
Mof_N 	N 	0.9823	0.75222	0.48296	-0.109
Mof_O 	O 	0.55848	0.99872	0.11047	-0.513
Mof_O 	O 	0.56014	0.98386	0.28223	-0.444
Mof_O 	O 	0.55848	0.50128	0.38953	-0.514
Mof_O 	O 	0.56014	0.51614	0.21777	-0.444
Mof_O 	O 	0.55848	0.38953	0.99872	-0.513
Mof_O 	O 	0.56014	0.21777	0.98386	-0.444
Mof_O 	O 	0.55848	0.11047	0.50128	-0.514
Mof_O 	O 	0.56014	0.28223	0.51614	-0.444
Mof_O 	O 	0.44152	0.00128	0.88953	-0.513
Mof_O 	O 	0.43986	0.01614	0.71777	-0.444
Mof_O 	O 	0.44152	0.49872	0.61047	-0.514
Mof_O 	O 	0.43986	0.48386	0.78223	-0.444
Mof_O 	O 	0.44152	0.61047	0.00128	-0.513
Mof_O 	O 	0.43986	0.78223	0.01614	-0.444
Mof_O 	O 	0.44152	0.88953	0.49872	-0.514
Mof_O 	O 	0.43986	0.71777	0.48386	-0.444
_end
