data_functionalizedCrystal
_audit_creation_method	'EQeq! by Chris Wilmer'
_symmetry_space_group_name_H-M	'P1'
_symmetry_Int_Tables_number	1
_symmetry_cell_setting	triclinic
loop_
_symmetry_equiv_pos_as_xyz
  x,y,z
_cell_length_a	38.3207
_cell_length_b	38.3207
_cell_length_c	38.3207
_cell_angle_alpha	90
_cell_angle_beta	90
_cell_angle_gamma	90
loop_
_atom_site_label
_atom_site_type_symbol
_atom_site_fract_x
_atom_site_fract_y
_atom_site_fract_z
_atom_site_charge
Mof_O 	O 	0.3155	0.2224	0.1721	-0.432
Mof_C 	C 	0.4712	0.2468	0.0724	0.153
Mof_C 	C 	0.4814	0.2443	0.1087	-0.089
Mof_H 	H 	0.4665	0.2429	0.1284	0.066
Mof_C 	C 	0.4028	0.2791	0.1088	-0.234
Mof_H 	H 	0.4163	0.2994	0.1045	0.116
Mof_C 	C 	0.3764	0.2798	0.1339	0.142
Mof_H 	H 	0.3709	0.3009	0.1457	-0.005
Mof_O 	O 	0.8155	0.7224	0.6721	-0.432
Mof_C 	C 	0.9712	0.7468	0.5724	0.151
Mof_C 	C 	0.9814	0.7443	0.6087	-0.092
Mof_H 	H 	0.9665	0.7429	0.6284	0.066
Mof_C 	C 	0.9028	0.7791	0.6088	-0.234
Mof_H 	H 	0.9163	0.7994	0.6045	0.115
Mof_C 	C 	0.8764	0.7798	0.6339	0.142
Mof_H 	H 	0.8709	0.8009	0.6457	-0.005
Mof_O 	O 	0.6845	0.7776	0.1721	-0.432
Mof_C 	C 	0.5288	0.7532	0.0724	0.153
Mof_C 	C 	0.5186	0.7557	0.1087	-0.089
Mof_H 	H 	0.5335	0.7571	0.1284	0.066
Mof_C 	C 	0.5972	0.7209	0.1088	-0.234
Mof_H 	H 	0.5837	0.7006	0.1045	0.116
Mof_C 	C 	0.6236	0.7202	0.1339	0.142
Mof_H 	H 	0.6291	0.6991	0.1457	-0.005
Mof_O 	O 	0.1845	0.2776	0.6721	-0.432
Mof_C 	C 	0.0288	0.2532	0.5724	0.152
Mof_C 	C 	0.0186	0.2557	0.6087	-0.086
Mof_H 	H 	0.0335	0.2571	0.6284	0.065
Mof_C 	C 	0.0972	0.2209	0.6088	-0.234
Mof_H 	H 	0.0837	0.2006	0.6045	0.116
Mof_C 	C 	0.1236	0.2202	0.6339	0.142
Mof_H 	H 	0.1291	0.1991	0.6457	-0.005
Mof_O 	O 	0.6845	0.2224	0.8279	-0.432
Mof_C 	C 	0.5288	0.2468	0.9276	0.152
Mof_C 	C 	0.5186	0.2443	0.8913	-0.089
Mof_H 	H 	0.5335	0.2429	0.8716	0.066
Mof_C 	C 	0.5972	0.2791	0.8912	-0.234
Mof_H 	H 	0.5837	0.2994	0.8955	0.116
Mof_C 	C 	0.6236	0.2798	0.8661	0.142
Mof_H 	H 	0.6291	0.3009	0.8543	-0.005
Mof_O 	O 	0.1845	0.7224	0.3279	-0.432
Mof_C 	C 	0.0288	0.7468	0.4276	0.152
Mof_C 	C 	0.0186	0.7443	0.3913	-0.086
Mof_H 	H 	0.0335	0.7429	0.3716	0.065
Mof_C 	C 	0.0972	0.7791	0.3912	-0.234
Mof_H 	H 	0.0837	0.7994	0.3955	0.116
Mof_C 	C 	0.1236	0.7798	0.3661	0.142
Mof_H 	H 	0.1291	0.8009	0.3543	-0.005
Mof_O 	O 	0.3155	0.7776	0.8279	-0.432
Mof_C 	C 	0.4712	0.7532	0.9276	0.152
Mof_C 	C 	0.4814	0.7557	0.8913	-0.089
Mof_H 	H 	0.4665	0.7571	0.8716	0.066
Mof_C 	C 	0.4028	0.7209	0.8912	-0.234
Mof_H 	H 	0.4163	0.7006	0.8955	0.116
Mof_C 	C 	0.3764	0.7202	0.8661	0.142
Mof_H 	H 	0.3709	0.6991	0.8543	-0.005
Mof_O 	O 	0.8155	0.2776	0.3279	-0.432
Mof_C 	C 	0.9712	0.2532	0.4276	0.152
Mof_C 	C 	0.9814	0.2557	0.3913	-0.092
Mof_H 	H 	0.9665	0.2571	0.3716	0.066
Mof_C 	C 	0.9028	0.2209	0.3912	-0.234
Mof_H 	H 	0.9163	0.2006	0.3955	0.116
Mof_C 	C 	0.8764	0.2202	0.3661	0.143
Mof_H 	H 	0.8709	0.1991	0.3543	-0.004
Mof_O 	O 	0.1721	0.3155	0.2224	-0.431
Mof_C 	C 	0.0724	0.4712	0.2468	0.154
Mof_C 	C 	0.1087	0.4814	0.2443	-0.088
Mof_H 	H 	0.1284	0.4665	0.2429	0.067
Mof_C 	C 	0.1088	0.4028	0.2791	-0.233
Mof_H 	H 	0.1045	0.4163	0.2994	0.117
Mof_C 	C 	0.1339	0.3764	0.2798	0.143
Mof_H 	H 	0.1457	0.3709	0.3009	-0.004
Mof_O 	O 	0.6721	0.8155	0.7224	-0.431
Mof_C 	C 	0.5724	0.9712	0.7468	0.152
Mof_C 	C 	0.6087	0.9814	0.7443	-0.091
Mof_H 	H 	0.6284	0.9665	0.7429	0.067
Mof_C 	C 	0.6088	0.9028	0.7791	-0.233
Mof_H 	H 	0.6045	0.9163	0.7994	0.116
Mof_C 	C 	0.6339	0.8764	0.7798	0.143
Mof_H 	H 	0.6457	0.8709	0.8009	-0.004
Mof_O 	O 	0.1721	0.6845	0.7776	-0.431
Mof_C 	C 	0.0724	0.5288	0.7532	0.154
Mof_C 	C 	0.1087	0.5186	0.7557	-0.088
Mof_H 	H 	0.1284	0.5335	0.7571	0.067
Mof_C 	C 	0.1088	0.5972	0.7209	-0.233
Mof_H 	H 	0.1045	0.5837	0.7006	0.117
Mof_C 	C 	0.1339	0.6236	0.7202	0.143
Mof_H 	H 	0.1457	0.6291	0.6991	-0.004
Mof_O 	O 	0.6721	0.1845	0.2776	-0.431
Mof_C 	C 	0.5724	0.0288	0.2532	0.153
Mof_C 	C 	0.6087	0.0186	0.2557	-0.085
Mof_H 	H 	0.6284	0.0335	0.2571	0.066
Mof_C 	C 	0.6088	0.0972	0.2209	-0.233
Mof_H 	H 	0.6045	0.0837	0.2006	0.117
Mof_C 	C 	0.6339	0.1236	0.2202	0.143
Mof_H 	H 	0.6457	0.1291	0.1991	-0.004
Mof_O 	O 	0.8279	0.6845	0.2224	-0.431
Mof_C 	C 	0.9276	0.5288	0.2468	0.153
Mof_C 	C 	0.8913	0.5186	0.2443	-0.088
Mof_H 	H 	0.8716	0.5335	0.2429	0.067
Mof_C 	C 	0.8912	0.5972	0.2791	-0.233
Mof_H 	H 	0.8955	0.5837	0.2994	0.117
Mof_C 	C 	0.8661	0.6236	0.2798	0.143
Mof_H 	H 	0.8543	0.6291	0.3009	-0.004
Mof_O 	O 	0.3279	0.1845	0.7224	-0.431
Mof_C 	C 	0.4276	0.0288	0.7468	0.153
Mof_C 	C 	0.3913	0.0186	0.7443	-0.085
Mof_H 	H 	0.3716	0.0335	0.7429	0.066
Mof_C 	C 	0.3912	0.0972	0.7791	-0.233
Mof_H 	H 	0.3955	0.0837	0.7994	0.117
Mof_C 	C 	0.3661	0.1236	0.7798	0.143
Mof_H 	H 	0.3543	0.1291	0.8009	-0.004
Mof_O 	O 	0.8279	0.3155	0.7776	-0.431
Mof_C 	C 	0.9276	0.4712	0.7532	0.153
Mof_C 	C 	0.8913	0.4814	0.7557	-0.088
Mof_H 	H 	0.8716	0.4665	0.7571	0.067
Mof_C 	C 	0.8912	0.4028	0.7209	-0.233
Mof_H 	H 	0.8955	0.4163	0.7006	0.117
Mof_C 	C 	0.8661	0.3764	0.7202	0.143
Mof_H 	H 	0.8543	0.3709	0.6991	-0.004
Mof_O 	O 	0.3279	0.8155	0.2776	-0.431
Mof_C 	C 	0.4276	0.9712	0.2532	0.153
Mof_C 	C 	0.3913	0.9814	0.2557	-0.091
Mof_H 	H 	0.3716	0.9665	0.2571	0.067
Mof_C 	C 	0.3912	0.9028	0.2209	-0.233
Mof_H 	H 	0.3955	0.9163	0.2006	0.117
Mof_C 	C 	0.3661	0.8764	0.2202	0.143
Mof_H 	H 	0.3543	0.8709	0.1991	-0.004
Mof_O 	O 	0.2224	0.1721	0.3155	-0.431
Mof_C 	C 	0.2468	0.0724	0.4712	0.154
Mof_C 	C 	0.2443	0.1087	0.4814	-0.088
Mof_H 	H 	0.2429	0.1284	0.4665	0.067
Mof_C 	C 	0.2791	0.1088	0.4028	-0.233
Mof_H 	H 	0.2994	0.1045	0.4163	0.117
Mof_C 	C 	0.2798	0.1339	0.3764	0.143
Mof_H 	H 	0.3009	0.1457	0.3709	-0.004
Mof_O 	O 	0.7224	0.6721	0.8155	-0.431
Mof_C 	C 	0.7468	0.5724	0.9712	0.152
Mof_C 	C 	0.7443	0.6087	0.9814	-0.091
Mof_H 	H 	0.7429	0.6284	0.9665	0.067
Mof_C 	C 	0.7791	0.6088	0.9028	-0.233
Mof_H 	H 	0.7994	0.6045	0.9163	0.116
Mof_C 	C 	0.7798	0.6339	0.8764	0.143
Mof_H 	H 	0.8009	0.6457	0.8709	-0.004
Mof_O 	O 	0.7776	0.1721	0.6845	-0.431
Mof_C 	C 	0.7532	0.0724	0.5288	0.154
Mof_C 	C 	0.7557	0.1087	0.5186	-0.088
Mof_H 	H 	0.7571	0.1284	0.5335	0.067
Mof_C 	C 	0.7209	0.1088	0.5972	-0.233
Mof_H 	H 	0.7006	0.1045	0.5837	0.117
Mof_C 	C 	0.7202	0.1339	0.6236	0.143
Mof_H 	H 	0.6991	0.1457	0.6291	-0.004
Mof_O 	O 	0.2776	0.6721	0.1845	-0.431
Mof_C 	C 	0.2532	0.5724	0.0288	0.153
Mof_C 	C 	0.2557	0.6087	0.0186	-0.085
Mof_H 	H 	0.2571	0.6284	0.0335	0.066
Mof_C 	C 	0.2209	0.6088	0.0972	-0.233
Mof_H 	H 	0.2006	0.6045	0.0837	0.117
Mof_C 	C 	0.2202	0.6339	0.1236	0.143
Mof_H 	H 	0.1991	0.6457	0.1291	-0.004
Mof_O 	O 	0.2224	0.8279	0.6845	-0.431
Mof_C 	C 	0.2468	0.9276	0.5288	0.153
Mof_C 	C 	0.2443	0.8913	0.5186	-0.088
Mof_H 	H 	0.2429	0.8716	0.5335	0.067
Mof_C 	C 	0.2791	0.8912	0.5972	-0.233
Mof_H 	H 	0.2994	0.8955	0.5837	0.117
Mof_C 	C 	0.2798	0.8661	0.6236	0.143
Mof_H 	H 	0.3009	0.8543	0.6291	-0.004
Mof_O 	O 	0.7224	0.3279	0.1845	-0.431
Mof_C 	C 	0.7468	0.4276	0.0288	0.153
Mof_C 	C 	0.7443	0.3913	0.0186	-0.085
Mof_H 	H 	0.7429	0.3716	0.0335	0.066
Mof_C 	C 	0.7791	0.3912	0.0972	-0.233
Mof_H 	H 	0.7994	0.3955	0.0837	0.117
Mof_C 	C 	0.7798	0.3661	0.1236	0.143
Mof_H 	H 	0.8009	0.3543	0.1291	-0.004
Mof_O 	O 	0.7776	0.8279	0.3155	-0.431
Mof_C 	C 	0.7532	0.9276	0.4712	0.153
Mof_C 	C 	0.7557	0.8913	0.4814	-0.088
Mof_H 	H 	0.7571	0.8716	0.4665	0.067
Mof_C 	C 	0.7209	0.8912	0.4028	-0.233
Mof_H 	H 	0.7006	0.8955	0.4163	0.117
Mof_C 	C 	0.7202	0.8661	0.3764	0.143
Mof_H 	H 	0.6991	0.8543	0.3709	-0.004
Mof_O 	O 	0.2776	0.3279	0.8155	-0.431
Mof_C 	C 	0.2532	0.4276	0.9712	0.153
Mof_C 	C 	0.2557	0.3913	0.9814	-0.091
Mof_H 	H 	0.2571	0.3716	0.9665	0.067
Mof_C 	C 	0.2209	0.3912	0.9028	-0.233
Mof_H 	H 	0.2006	0.3955	0.9163	0.117
Mof_C 	C 	0.2202	0.3661	0.8764	0.143
Mof_H 	H 	0.1991	0.3543	0.8709	-0.004
Mof_O 	O 	0.2224	0.3155	0.8279	-0.431
Mof_C 	C 	0.2468	0.4712	0.9276	0.153
Mof_C 	C 	0.2443	0.4814	0.8913	-0.088
Mof_H 	H 	0.2429	0.4665	0.8716	0.067
Mof_C 	C 	0.2791	0.4028	0.8912	-0.233
Mof_H 	H 	0.2994	0.4163	0.8955	0.117
Mof_C 	C 	0.2798	0.3764	0.8661	0.143
Mof_H 	H 	0.3009	0.3709	0.8543	-0.004
Mof_O 	O 	0.7224	0.8155	0.3279	-0.431
Mof_C 	C 	0.7468	0.9712	0.4276	0.152
Mof_C 	C 	0.7443	0.9814	0.3913	-0.091
Mof_H 	H 	0.7429	0.9665	0.3716	0.067
Mof_C 	C 	0.7791	0.9028	0.3912	-0.233
Mof_H 	H 	0.7994	0.9163	0.3955	0.116
Mof_C 	C 	0.7798	0.8764	0.3661	0.143
Mof_H 	H 	0.8009	0.8709	0.3543	-0.004
Mof_O 	O 	0.7776	0.6845	0.8279	-0.431
Mof_C 	C 	0.7532	0.5288	0.9276	0.153
Mof_C 	C 	0.7557	0.5186	0.8913	-0.088
Mof_H 	H 	0.7571	0.5335	0.8716	0.067
Mof_C 	C 	0.7209	0.5972	0.8912	-0.233
Mof_H 	H 	0.7006	0.5837	0.8955	0.117
Mof_C 	C 	0.7202	0.6236	0.8661	0.143
Mof_H 	H 	0.6991	0.6291	0.8543	-0.004
Mof_O 	O 	0.2776	0.1845	0.3279	-0.431
Mof_C 	C 	0.2532	0.0288	0.4276	0.153
Mof_C 	C 	0.2557	0.0186	0.3913	-0.085
Mof_H 	H 	0.2571	0.0335	0.3716	0.066
Mof_C 	C 	0.2209	0.0972	0.3912	-0.233
Mof_H 	H 	0.2006	0.0837	0.3955	0.117
Mof_C 	C 	0.2202	0.1236	0.3661	0.143
Mof_H 	H 	0.1991	0.1291	0.3543	-0.004
Mof_O 	O 	0.2224	0.6845	0.1721	-0.431
Mof_C 	C 	0.2468	0.5288	0.0724	0.154
Mof_C 	C 	0.2443	0.5186	0.1087	-0.088
Mof_H 	H 	0.2429	0.5335	0.1284	0.067
Mof_C 	C 	0.2791	0.5972	0.1088	-0.233
Mof_H 	H 	0.2994	0.5837	0.1045	0.117
Mof_C 	C 	0.2798	0.6236	0.1339	0.143
Mof_H 	H 	0.3009	0.6291	0.1457	-0.004
Mof_O 	O 	0.7224	0.1845	0.6721	-0.431
Mof_C 	C 	0.7468	0.0288	0.5724	0.153
Mof_C 	C 	0.7443	0.0186	0.6087	-0.085
Mof_H 	H 	0.7429	0.0335	0.6284	0.066
Mof_C 	C 	0.7791	0.0972	0.6088	-0.233
Mof_H 	H 	0.7994	0.0837	0.6045	0.117
Mof_C 	C 	0.7798	0.1236	0.6339	0.143
Mof_H 	H 	0.8009	0.1291	0.6457	-0.004
Mof_O 	O 	0.7776	0.3155	0.1721	-0.431
Mof_C 	C 	0.7532	0.4712	0.0724	0.154
Mof_C 	C 	0.7557	0.4814	0.1087	-0.088
Mof_H 	H 	0.7571	0.4665	0.1284	0.067
Mof_C 	C 	0.7209	0.4028	0.1088	-0.233
Mof_H 	H 	0.7006	0.4163	0.1045	0.117
Mof_C 	C 	0.7202	0.3764	0.1339	0.143
Mof_H 	H 	0.6991	0.3709	0.1457	-0.004
Mof_O 	O 	0.2776	0.8155	0.6721	-0.431
Mof_C 	C 	0.2532	0.9712	0.5724	0.153
Mof_C 	C 	0.2557	0.9814	0.6087	-0.091
Mof_H 	H 	0.2571	0.9665	0.6284	0.067
Mof_C 	C 	0.2209	0.9028	0.6088	-0.233
Mof_H 	H 	0.2006	0.9163	0.6045	0.117
Mof_C 	C 	0.2202	0.8764	0.6339	0.143
Mof_H 	H 	0.1991	0.8709	0.6457	-0.004
Mof_O 	O 	0.3155	0.1721	0.7776	-0.431
Mof_C 	C 	0.4712	0.0724	0.7532	0.154
Mof_C 	C 	0.4814	0.1087	0.7557	-0.088
Mof_H 	H 	0.4665	0.1284	0.7571	0.067
Mof_C 	C 	0.4028	0.1088	0.7209	-0.233
Mof_H 	H 	0.4163	0.1045	0.7006	0.117
Mof_C 	C 	0.3764	0.1339	0.7202	0.143
Mof_H 	H 	0.3709	0.1457	0.6991	-0.004
Mof_O 	O 	0.8155	0.6721	0.2776	-0.431
Mof_C 	C 	0.9712	0.5724	0.2532	0.153
Mof_C 	C 	0.9814	0.6087	0.2557	-0.091
Mof_H 	H 	0.9665	0.6284	0.2571	0.067
Mof_C 	C 	0.9028	0.6088	0.2209	-0.233
Mof_H 	H 	0.9163	0.6045	0.2006	0.117
Mof_C 	C 	0.8764	0.6339	0.2202	0.143
Mof_H 	H 	0.8709	0.6457	0.1991	-0.004
Mof_O 	O 	0.6845	0.1721	0.2224	-0.431
Mof_C 	C 	0.5288	0.0724	0.2468	0.154
Mof_C 	C 	0.5186	0.1087	0.2443	-0.088
Mof_H 	H 	0.5335	0.1284	0.2429	0.067
Mof_C 	C 	0.5972	0.1088	0.2791	-0.233
Mof_H 	H 	0.5837	0.1045	0.2994	0.117
Mof_C 	C 	0.6236	0.1339	0.2798	0.143
Mof_H 	H 	0.6291	0.1457	0.3009	-0.004
Mof_O 	O 	0.1845	0.6721	0.7224	-0.431
Mof_C 	C 	0.0288	0.5724	0.7468	0.153
Mof_C 	C 	0.0186	0.6087	0.7443	-0.085
Mof_H 	H 	0.0335	0.6284	0.7429	0.066
Mof_C 	C 	0.0972	0.6088	0.7791	-0.233
Mof_H 	H 	0.0837	0.6045	0.7994	0.117
Mof_C 	C 	0.1236	0.6339	0.7798	0.143
Mof_H 	H 	0.1291	0.6457	0.8009	-0.004
Mof_O 	O 	0.6845	0.8279	0.7776	-0.431
Mof_C 	C 	0.5288	0.9276	0.7532	0.153
Mof_C 	C 	0.5186	0.8913	0.7557	-0.088
Mof_H 	H 	0.5335	0.8716	0.7571	0.067
Mof_C 	C 	0.5972	0.8912	0.7209	-0.233
Mof_H 	H 	0.5837	0.8955	0.7006	0.117
Mof_C 	C 	0.6236	0.8661	0.7202	0.143
Mof_H 	H 	0.6291	0.8543	0.6991	-0.004
Mof_O 	O 	0.1845	0.3279	0.2776	-0.431
Mof_C 	C 	0.0288	0.4276	0.2532	0.153
Mof_C 	C 	0.0186	0.3913	0.2557	-0.085
Mof_H 	H 	0.0335	0.3716	0.2571	0.066
Mof_C 	C 	0.0972	0.3912	0.2209	-0.233
Mof_H 	H 	0.0837	0.3955	0.2006	0.117
Mof_C 	C 	0.1236	0.3661	0.2202	0.143
Mof_H 	H 	0.1291	0.3543	0.1991	-0.004
Mof_O 	O 	0.3155	0.8279	0.2224	-0.431
Mof_C 	C 	0.4712	0.9276	0.2468	0.153
Mof_C 	C 	0.4814	0.8913	0.2443	-0.088
Mof_H 	H 	0.4665	0.8716	0.2429	0.067
Mof_C 	C 	0.4028	0.8912	0.2791	-0.233
Mof_H 	H 	0.4163	0.8955	0.2994	0.117
Mof_C 	C 	0.3764	0.8661	0.2798	0.143
Mof_H 	H 	0.3709	0.8543	0.3009	-0.004
Mof_O 	O 	0.8155	0.3279	0.7224	-0.431
Mof_C 	C 	0.9712	0.4276	0.7468	0.152
Mof_C 	C 	0.9814	0.3913	0.7443	-0.091
Mof_H 	H 	0.9665	0.3716	0.7429	0.067
Mof_C 	C 	0.9028	0.3912	0.7791	-0.233
Mof_H 	H 	0.9163	0.3955	0.7994	0.116
Mof_C 	C 	0.8764	0.3661	0.7798	0.143
Mof_H 	H 	0.8709	0.3543	0.8009	-0.004
Mof_O 	O 	0.1721	0.2224	0.6845	-0.431
Mof_C 	C 	0.0724	0.2468	0.5288	0.154
Mof_C 	C 	0.1087	0.2443	0.5186	-0.088
Mof_H 	H 	0.1284	0.2429	0.5335	0.067
Mof_C 	C 	0.1088	0.2791	0.5972	-0.233
Mof_H 	H 	0.1045	0.2994	0.5837	0.117
Mof_C 	C 	0.1339	0.2798	0.6236	0.143
Mof_H 	H 	0.1457	0.3009	0.6291	-0.004
Mof_O 	O 	0.6721	0.7224	0.1845	-0.431
Mof_C 	C 	0.5724	0.7468	0.0288	0.153
Mof_C 	C 	0.6087	0.7443	0.0186	-0.085
Mof_H 	H 	0.6284	0.7429	0.0335	0.066
Mof_C 	C 	0.6088	0.7791	0.0972	-0.233
Mof_H 	H 	0.6045	0.7994	0.0837	0.117
Mof_C 	C 	0.6339	0.7798	0.1236	0.143
Mof_H 	H 	0.6457	0.8009	0.1291	-0.004
Mof_O 	O 	0.1721	0.7776	0.3155	-0.431
Mof_C 	C 	0.0724	0.7532	0.4712	0.154
Mof_C 	C 	0.1087	0.7557	0.4814	-0.088
Mof_H 	H 	0.1284	0.7571	0.4665	0.067
Mof_C 	C 	0.1088	0.7209	0.4028	-0.233
Mof_H 	H 	0.1045	0.7006	0.4163	0.117
Mof_C 	C 	0.1339	0.7202	0.3764	0.143
Mof_H 	H 	0.1457	0.6991	0.3709	-0.004
Mof_O 	O 	0.6721	0.2776	0.8155	-0.431
Mof_C 	C 	0.5724	0.2532	0.9712	0.153
Mof_C 	C 	0.6087	0.2557	0.9814	-0.091
Mof_H 	H 	0.6284	0.2571	0.9665	0.067
Mof_C 	C 	0.6088	0.2209	0.9028	-0.233
Mof_H 	H 	0.6045	0.2006	0.9163	0.117
Mof_C 	C 	0.6339	0.2202	0.8764	0.143
Mof_H 	H 	0.6457	0.1991	0.8709	-0.004
Mof_O 	O 	0.8279	0.2224	0.3155	-0.431
Mof_C 	C 	0.9276	0.2468	0.4712	0.153
Mof_C 	C 	0.8913	0.2443	0.4814	-0.088
Mof_H 	H 	0.8716	0.2429	0.4665	0.067
Mof_C 	C 	0.8912	0.2791	0.4028	-0.233
Mof_H 	H 	0.8955	0.2994	0.4163	0.117
Mof_C 	C 	0.8661	0.2798	0.3764	0.143
Mof_H 	H 	0.8543	0.3009	0.3709	-0.004
Mof_O 	O 	0.3279	0.7224	0.8155	-0.431
Mof_C 	C 	0.4276	0.7468	0.9712	0.152
Mof_C 	C 	0.3913	0.7443	0.9814	-0.091
Mof_H 	H 	0.3716	0.7429	0.9665	0.067
Mof_C 	C 	0.3912	0.7791	0.9028	-0.233
Mof_H 	H 	0.3955	0.7994	0.9163	0.116
Mof_C 	C 	0.3661	0.7798	0.8764	0.143
Mof_H 	H 	0.3543	0.8009	0.8709	-0.004
Mof_O 	O 	0.8279	0.7776	0.6845	-0.431
Mof_C 	C 	0.9276	0.7532	0.5288	0.153
Mof_C 	C 	0.8913	0.7557	0.5186	-0.088
Mof_H 	H 	0.8716	0.7571	0.5335	0.067
Mof_C 	C 	0.8912	0.7209	0.5972	-0.233
Mof_H 	H 	0.8955	0.7006	0.5837	0.117
Mof_C 	C 	0.8661	0.7202	0.6236	0.143
Mof_H 	H 	0.8543	0.6991	0.6291	-0.004
Mof_O 	O 	0.3279	0.2776	0.1845	-0.431
Mof_C 	C 	0.4276	0.2532	0.0288	0.153
Mof_C 	C 	0.3913	0.2557	0.0186	-0.085
Mof_H 	H 	0.3716	0.2571	0.0335	0.066
Mof_C 	C 	0.3912	0.2209	0.0972	-0.233
Mof_H 	H 	0.3955	0.2006	0.0837	0.117
Mof_C 	C 	0.3661	0.2202	0.1236	0.143
Mof_H 	H 	0.3543	0.1991	0.1291	-0.004
Mof_O 	O 	0.6845	0.7776	0.8279	-0.431
Mof_C 	C 	0.5288	0.7532	0.9276	0.153
Mof_C 	C 	0.5186	0.7557	0.8913	-0.088
Mof_H 	H 	0.5335	0.7571	0.8716	0.067
Mof_C 	C 	0.5972	0.7209	0.8912	-0.233
Mof_H 	H 	0.5837	0.7006	0.8955	0.117
Mof_C 	C 	0.6236	0.7202	0.8661	0.143
Mof_H 	H 	0.6291	0.6991	0.8543	-0.004
Mof_O 	O 	0.1845	0.2776	0.3279	-0.431
Mof_C 	C 	0.0288	0.2532	0.4276	0.153
Mof_C 	C 	0.0186	0.2557	0.3913	-0.085
Mof_H 	H 	0.0335	0.2571	0.3716	0.066
Mof_C 	C 	0.0972	0.2209	0.3912	-0.233
Mof_H 	H 	0.0837	0.2006	0.3955	0.117
Mof_C 	C 	0.1236	0.2202	0.3661	0.143
Mof_H 	H 	0.1291	0.1991	0.3543	-0.004
Mof_O 	O 	0.3155	0.2224	0.8279	-0.431
Mof_C 	C 	0.4712	0.2468	0.9276	0.153
Mof_C 	C 	0.4814	0.2443	0.8913	-0.088
Mof_H 	H 	0.4665	0.2429	0.8716	0.067
Mof_C 	C 	0.4028	0.2791	0.8912	-0.233
Mof_H 	H 	0.4163	0.2994	0.8955	0.117
Mof_C 	C 	0.3764	0.2798	0.8661	0.143
Mof_H 	H 	0.3709	0.3009	0.8543	-0.004
Mof_O 	O 	0.8155	0.7224	0.3279	-0.431
Mof_C 	C 	0.9712	0.7468	0.4276	0.152
Mof_C 	C 	0.9814	0.7443	0.3913	-0.091
Mof_H 	H 	0.9665	0.7429	0.3716	0.067
Mof_C 	C 	0.9028	0.7791	0.3912	-0.233
Mof_H 	H 	0.9163	0.7994	0.3955	0.116
Mof_C 	C 	0.8764	0.7798	0.3661	0.143
Mof_H 	H 	0.8709	0.8009	0.3543	-0.004
Mof_O 	O 	0.3155	0.7776	0.1721	-0.431
Mof_C 	C 	0.4712	0.7532	0.0724	0.154
Mof_C 	C 	0.4814	0.7557	0.1087	-0.088
Mof_H 	H 	0.4665	0.7571	0.1284	0.067
Mof_C 	C 	0.4028	0.7209	0.1088	-0.233
Mof_H 	H 	0.4163	0.7006	0.1045	0.117
Mof_C 	C 	0.3764	0.7202	0.1339	0.143
Mof_H 	H 	0.3709	0.6991	0.1457	-0.004
Mof_O 	O 	0.8155	0.2776	0.6721	-0.431
Mof_C 	C 	0.9712	0.2532	0.5724	0.153
Mof_C 	C 	0.9814	0.2557	0.6087	-0.091
Mof_H 	H 	0.9665	0.2571	0.6284	0.067
Mof_C 	C 	0.9028	0.2209	0.6088	-0.233
Mof_H 	H 	0.9163	0.2006	0.6045	0.117
Mof_C 	C 	0.8764	0.2202	0.6339	0.143
Mof_H 	H 	0.8709	0.1991	0.6457	-0.004
Mof_O 	O 	0.6845	0.2224	0.1721	-0.431
Mof_C 	C 	0.5288	0.2468	0.0724	0.154
Mof_C 	C 	0.5186	0.2443	0.1087	-0.088
Mof_H 	H 	0.5335	0.2429	0.1284	0.067
Mof_C 	C 	0.5972	0.2791	0.1088	-0.233
Mof_H 	H 	0.5837	0.2994	0.1045	0.117
Mof_C 	C 	0.6236	0.2798	0.1339	0.143
Mof_H 	H 	0.6291	0.3009	0.1457	-0.004
Mof_O 	O 	0.1845	0.7224	0.6721	-0.431
Mof_C 	C 	0.0288	0.7468	0.5724	0.153
Mof_C 	C 	0.0186	0.7443	0.6087	-0.085
Mof_H 	H 	0.0335	0.7429	0.6284	0.066
Mof_C 	C 	0.0972	0.7791	0.6088	-0.233
Mof_H 	H 	0.0837	0.7994	0.6045	0.117
Mof_C 	C 	0.1236	0.7798	0.6339	0.143
Mof_H 	H 	0.1291	0.8009	0.6457	-0.004
Mof_O 	O 	0.8279	0.6845	0.7776	-0.431
Mof_C 	C 	0.9276	0.5288	0.7532	0.153
Mof_C 	C 	0.8913	0.5186	0.7557	-0.088
Mof_H 	H 	0.8716	0.5335	0.7571	0.067
Mof_C 	C 	0.8912	0.5972	0.7209	-0.233
Mof_H 	H 	0.8955	0.5837	0.7006	0.117
Mof_C 	C 	0.8661	0.6236	0.7202	0.143
Mof_H 	H 	0.8543	0.6291	0.6991	-0.004
Mof_O 	O 	0.3279	0.1845	0.2776	-0.431
Mof_C 	C 	0.4276	0.0288	0.2532	0.153
Mof_C 	C 	0.3913	0.0186	0.2557	-0.085
Mof_H 	H 	0.3716	0.0335	0.2571	0.066
Mof_C 	C 	0.3912	0.0972	0.2209	-0.233
Mof_H 	H 	0.3955	0.0837	0.2006	0.117
Mof_C 	C 	0.3661	0.1236	0.2202	0.143
Mof_H 	H 	0.3543	0.1291	0.1991	-0.004
Mof_O 	O 	0.8279	0.3155	0.2224	-0.431
Mof_C 	C 	0.9276	0.4712	0.2468	0.153
Mof_C 	C 	0.8913	0.4814	0.2443	-0.088
Mof_H 	H 	0.8716	0.4665	0.2429	0.067
Mof_C 	C 	0.8912	0.4028	0.2791	-0.233
Mof_H 	H 	0.8955	0.4163	0.2994	0.117
Mof_C 	C 	0.8661	0.3764	0.2798	0.143
Mof_H 	H 	0.8543	0.3709	0.3009	-0.004
Mof_O 	O 	0.3279	0.8155	0.7224	-0.431
Mof_C 	C 	0.4276	0.9712	0.7468	0.152
Mof_C 	C 	0.3913	0.9814	0.7443	-0.091
Mof_H 	H 	0.3716	0.9665	0.7429	0.067
Mof_C 	C 	0.3912	0.9028	0.7791	-0.233
Mof_H 	H 	0.3955	0.9163	0.7994	0.116
Mof_C 	C 	0.3661	0.8764	0.7798	0.143
Mof_H 	H 	0.3543	0.8709	0.8009	-0.004
Mof_O 	O 	0.1721	0.3155	0.7776	-0.431
Mof_C 	C 	0.0724	0.4712	0.7532	0.154
Mof_C 	C 	0.1087	0.4814	0.7557	-0.088
Mof_H 	H 	0.1284	0.4665	0.7571	0.067
Mof_C 	C 	0.1088	0.4028	0.7209	-0.233
Mof_H 	H 	0.1045	0.4163	0.7006	0.117
Mof_C 	C 	0.1339	0.3764	0.7202	0.143
Mof_H 	H 	0.1457	0.3709	0.6991	-0.004
Mof_O 	O 	0.6721	0.8155	0.2776	-0.431
Mof_C 	C 	0.5724	0.9712	0.2532	0.153
Mof_C 	C 	0.6087	0.9814	0.2557	-0.091
Mof_H 	H 	0.6284	0.9665	0.2571	0.067
Mof_C 	C 	0.6088	0.9028	0.2209	-0.233
Mof_H 	H 	0.6045	0.9163	0.2006	0.117
Mof_C 	C 	0.6339	0.8764	0.2202	0.143
Mof_H 	H 	0.6457	0.8709	0.1991	-0.004
Mof_O 	O 	0.1721	0.6845	0.2224	-0.431
Mof_C 	C 	0.0724	0.5288	0.2468	0.154
Mof_C 	C 	0.1087	0.5186	0.2443	-0.088
Mof_H 	H 	0.1284	0.5335	0.2429	0.067
Mof_C 	C 	0.1088	0.5972	0.2791	-0.233
Mof_H 	H 	0.1045	0.5837	0.2994	0.117
Mof_C 	C 	0.1339	0.6236	0.2798	0.143
Mof_H 	H 	0.1457	0.6291	0.3009	-0.004
Mof_O 	O 	0.6721	0.1845	0.7224	-0.431
Mof_C 	C 	0.5724	0.0288	0.7468	0.153
Mof_C 	C 	0.6087	0.0186	0.7443	-0.085
Mof_H 	H 	0.6284	0.0335	0.7429	0.066
Mof_C 	C 	0.6088	0.0972	0.7791	-0.233
Mof_H 	H 	0.6045	0.0837	0.7994	0.117
Mof_C 	C 	0.6339	0.1236	0.7798	0.143
Mof_H 	H 	0.6457	0.1291	0.8009	-0.004
Mof_O 	O 	0.7776	0.8279	0.6845	-0.431
Mof_C 	C 	0.7532	0.9276	0.5288	0.153
Mof_C 	C 	0.7557	0.8913	0.5186	-0.088
Mof_H 	H 	0.7571	0.8716	0.5335	0.067
Mof_C 	C 	0.7209	0.8912	0.5972	-0.233
Mof_H 	H 	0.7006	0.8955	0.5837	0.117
Mof_C 	C 	0.7202	0.8661	0.6236	0.143
Mof_H 	H 	0.6991	0.8543	0.6291	-0.004
Mof_O 	O 	0.2776	0.3279	0.1845	-0.431
Mof_C 	C 	0.2532	0.4276	0.0288	0.153
Mof_C 	C 	0.2557	0.3913	0.0186	-0.085
Mof_H 	H 	0.2571	0.3716	0.0335	0.066
Mof_C 	C 	0.2209	0.3912	0.0972	-0.233
Mof_H 	H 	0.2006	0.3955	0.0837	0.117
Mof_C 	C 	0.2202	0.3661	0.1236	0.143
Mof_H 	H 	0.1991	0.3543	0.1291	-0.004
Mof_O 	O 	0.2224	0.8279	0.3155	-0.431
Mof_C 	C 	0.2468	0.9276	0.4712	0.153
Mof_C 	C 	0.2443	0.8913	0.4814	-0.088
Mof_H 	H 	0.2429	0.8716	0.4665	0.067
Mof_C 	C 	0.2791	0.8912	0.4028	-0.233
Mof_H 	H 	0.2994	0.8955	0.4163	0.117
Mof_C 	C 	0.2798	0.8661	0.3764	0.143
Mof_H 	H 	0.3009	0.8543	0.3709	-0.004
Mof_O 	O 	0.7224	0.3279	0.8155	-0.431
Mof_C 	C 	0.7468	0.4276	0.9712	0.152
Mof_C 	C 	0.7443	0.3913	0.9814	-0.091
Mof_H 	H 	0.7429	0.3716	0.9665	0.067
Mof_C 	C 	0.7791	0.3912	0.9028	-0.233
Mof_H 	H 	0.7994	0.3955	0.9163	0.116
Mof_C 	C 	0.7798	0.3661	0.8764	0.143
Mof_H 	H 	0.8009	0.3543	0.8709	-0.004
Mof_O 	O 	0.7776	0.1721	0.3155	-0.431
Mof_C 	C 	0.7532	0.0724	0.4712	0.154
Mof_C 	C 	0.7557	0.1087	0.4814	-0.088
Mof_H 	H 	0.7571	0.1284	0.4665	0.067
Mof_C 	C 	0.7209	0.1088	0.4028	-0.233
Mof_H 	H 	0.7006	0.1045	0.4163	0.117
Mof_C 	C 	0.7202	0.1339	0.3764	0.143
Mof_H 	H 	0.6991	0.1457	0.3709	-0.004
Mof_O 	O 	0.2776	0.6721	0.8155	-0.431
Mof_C 	C 	0.2532	0.5724	0.9712	0.153
Mof_C 	C 	0.2557	0.6087	0.9814	-0.091
Mof_H 	H 	0.2571	0.6284	0.9665	0.067
Mof_C 	C 	0.2209	0.6088	0.9028	-0.233
Mof_H 	H 	0.2006	0.6045	0.9163	0.117
Mof_C 	C 	0.2202	0.6339	0.8764	0.143
Mof_H 	H 	0.1991	0.6457	0.8709	-0.004
Mof_O 	O 	0.2224	0.1721	0.6845	-0.431
Mof_C 	C 	0.2468	0.0724	0.5288	0.154
Mof_C 	C 	0.2443	0.1087	0.5186	-0.088
Mof_H 	H 	0.2429	0.1284	0.5335	0.067
Mof_C 	C 	0.2791	0.1088	0.5972	-0.233
Mof_H 	H 	0.2994	0.1045	0.5837	0.117
Mof_C 	C 	0.2798	0.1339	0.6236	0.143
Mof_H 	H 	0.3009	0.1457	0.6291	-0.004
Mof_O 	O 	0.7224	0.6721	0.1845	-0.431
Mof_C 	C 	0.7468	0.5724	0.0288	0.153
Mof_C 	C 	0.7443	0.6087	0.0186	-0.085
Mof_H 	H 	0.7429	0.6284	0.0335	0.066
Mof_C 	C 	0.7791	0.6088	0.0972	-0.233
Mof_H 	H 	0.7994	0.6045	0.0837	0.117
Mof_C 	C 	0.7798	0.6339	0.1236	0.143
Mof_H 	H 	0.8009	0.6457	0.1291	-0.004
Mof_O 	O 	0.7776	0.6845	0.1721	-0.431
Mof_C 	C 	0.7532	0.5288	0.0724	0.154
Mof_C 	C 	0.7557	0.5186	0.1087	-0.088
Mof_H 	H 	0.7571	0.5335	0.1284	0.067
Mof_C 	C 	0.7209	0.5972	0.1088	-0.233
Mof_H 	H 	0.7006	0.5837	0.1045	0.117
Mof_C 	C 	0.7202	0.6236	0.1339	0.143
Mof_H 	H 	0.6991	0.6291	0.1457	-0.004
Mof_O 	O 	0.2776	0.1845	0.6721	-0.431
Mof_C 	C 	0.2532	0.0288	0.5724	0.153
Mof_C 	C 	0.2557	0.0186	0.6087	-0.085
Mof_H 	H 	0.2571	0.0335	0.6284	0.066
Mof_C 	C 	0.2209	0.0972	0.6088	-0.233
Mof_H 	H 	0.2006	0.0837	0.6045	0.117
Mof_C 	C 	0.2202	0.1236	0.6339	0.143
Mof_H 	H 	0.1991	0.1291	0.6457	-0.004
Mof_O 	O 	0.2224	0.3155	0.1721	-0.431
Mof_C 	C 	0.2468	0.4712	0.0724	0.154
Mof_C 	C 	0.2443	0.4814	0.1087	-0.088
Mof_H 	H 	0.2429	0.4665	0.1284	0.067
Mof_C 	C 	0.2791	0.4028	0.1088	-0.233
Mof_H 	H 	0.2994	0.4163	0.1045	0.117
Mof_C 	C 	0.2798	0.3764	0.1339	0.143
Mof_H 	H 	0.3009	0.3709	0.1457	-0.004
Mof_O 	O 	0.7224	0.8155	0.6721	-0.431
Mof_C 	C 	0.7468	0.9712	0.5724	0.152
Mof_C 	C 	0.7443	0.9814	0.6087	-0.091
Mof_H 	H 	0.7429	0.9665	0.6284	0.067
Mof_C 	C 	0.7791	0.9028	0.6088	-0.233
Mof_H 	H 	0.7994	0.9163	0.6045	0.116
Mof_C 	C 	0.7798	0.8764	0.6339	0.143
Mof_H 	H 	0.8009	0.8709	0.6457	-0.004
Mof_O 	O 	0.7776	0.3155	0.8279	-0.431
Mof_C 	C 	0.7532	0.4712	0.9276	0.153
Mof_C 	C 	0.7557	0.4814	0.8913	-0.088
Mof_H 	H 	0.7571	0.4665	0.8716	0.067
Mof_C 	C 	0.7209	0.4028	0.8912	-0.233
Mof_H 	H 	0.7006	0.4163	0.8955	0.117
Mof_C 	C 	0.7202	0.3764	0.8661	0.143
Mof_H 	H 	0.6991	0.3709	0.8543	-0.004
Mof_O 	O 	0.2776	0.8155	0.3279	-0.431
Mof_C 	C 	0.2532	0.9712	0.4276	0.153
Mof_C 	C 	0.2557	0.9814	0.3913	-0.091
Mof_H 	H 	0.2571	0.9665	0.3716	0.067
Mof_C 	C 	0.2209	0.9028	0.3912	-0.233
Mof_H 	H 	0.2006	0.9163	0.3955	0.117
Mof_C 	C 	0.2202	0.8764	0.3661	0.143
Mof_H 	H 	0.1991	0.8709	0.3543	-0.004
Mof_O 	O 	0.2224	0.6845	0.8279	-0.431
Mof_C 	C 	0.2468	0.5288	0.9276	0.153
Mof_C 	C 	0.2443	0.5186	0.8913	-0.088
Mof_H 	H 	0.2429	0.5335	0.8716	0.067
Mof_C 	C 	0.2791	0.5972	0.8912	-0.233
Mof_H 	H 	0.2994	0.5837	0.8955	0.117
Mof_C 	C 	0.2798	0.6236	0.8661	0.143
Mof_H 	H 	0.3009	0.6291	0.8543	-0.004
Mof_O 	O 	0.7224	0.1845	0.3279	-0.431
Mof_C 	C 	0.7468	0.0288	0.4276	0.153
Mof_C 	C 	0.7443	0.0186	0.3913	-0.085
Mof_H 	H 	0.7429	0.0335	0.3716	0.066
Mof_C 	C 	0.7791	0.0972	0.3912	-0.233
Mof_H 	H 	0.7994	0.0837	0.3955	0.117
Mof_C 	C 	0.7798	0.1236	0.3661	0.143
Mof_H 	H 	0.8009	0.1291	0.3543	-0.004
Mof_O 	O 	0.6845	0.8279	0.2224	-0.431
Mof_C 	C 	0.5288	0.9276	0.2468	0.153
Mof_C 	C 	0.5186	0.8913	0.2443	-0.088
Mof_H 	H 	0.5335	0.8716	0.2429	0.067
Mof_C 	C 	0.5972	0.8912	0.2791	-0.233
Mof_H 	H 	0.5837	0.8955	0.2994	0.117
Mof_C 	C 	0.6236	0.8661	0.2798	0.143
Mof_H 	H 	0.6291	0.8543	0.3009	-0.004
Mof_O 	O 	0.1845	0.3279	0.7224	-0.431
Mof_C 	C 	0.0288	0.4276	0.7468	0.153
Mof_C 	C 	0.0186	0.3913	0.7443	-0.085
Mof_H 	H 	0.0335	0.3716	0.7429	0.066
Mof_C 	C 	0.0972	0.3912	0.7791	-0.233
Mof_H 	H 	0.0837	0.3955	0.7994	0.117
Mof_C 	C 	0.1236	0.3661	0.7798	0.143
Mof_H 	H 	0.1291	0.3543	0.8009	-0.004
Mof_O 	O 	0.3155	0.8279	0.7776	-0.431
Mof_C 	C 	0.4712	0.9276	0.7532	0.153
Mof_C 	C 	0.4814	0.8913	0.7557	-0.088
Mof_H 	H 	0.4665	0.8716	0.7571	0.067
Mof_C 	C 	0.4028	0.8912	0.7209	-0.233
Mof_H 	H 	0.4163	0.8955	0.7006	0.117
Mof_C 	C 	0.3764	0.8661	0.7202	0.143
Mof_H 	H 	0.3709	0.8543	0.6991	-0.004
Mof_O 	O 	0.8155	0.3279	0.2776	-0.431
Mof_C 	C 	0.9712	0.4276	0.2532	0.153
Mof_C 	C 	0.9814	0.3913	0.2557	-0.091
Mof_H 	H 	0.9665	0.3716	0.2571	0.067
Mof_C 	C 	0.9028	0.3912	0.2209	-0.233
Mof_H 	H 	0.9163	0.3955	0.2006	0.117
Mof_C 	C 	0.8764	0.3661	0.2202	0.143
Mof_H 	H 	0.8709	0.3543	0.1991	-0.004
Mof_O 	O 	0.3155	0.1721	0.2224	-0.431
Mof_C 	C 	0.4712	0.0724	0.2468	0.154
Mof_C 	C 	0.4814	0.1087	0.2443	-0.088
Mof_H 	H 	0.4665	0.1284	0.2429	0.067
Mof_C 	C 	0.4028	0.1088	0.2791	-0.233
Mof_H 	H 	0.4163	0.1045	0.2994	0.117
Mof_C 	C 	0.3764	0.1339	0.2798	0.143
Mof_H 	H 	0.3709	0.1457	0.3009	-0.004
Mof_O 	O 	0.8155	0.6721	0.7224	-0.431
Mof_C 	C 	0.9712	0.5724	0.7468	0.152
Mof_C 	C 	0.9814	0.6087	0.7443	-0.091
Mof_H 	H 	0.9665	0.6284	0.7429	0.067
Mof_C 	C 	0.9028	0.6088	0.7791	-0.233
Mof_H 	H 	0.9163	0.6045	0.7994	0.116
Mof_C 	C 	0.8764	0.6339	0.7798	0.143
Mof_H 	H 	0.8709	0.6457	0.8009	-0.004
Mof_O 	O 	0.6845	0.1721	0.7776	-0.431
Mof_C 	C 	0.5288	0.0724	0.7532	0.154
Mof_C 	C 	0.5186	0.1087	0.7557	-0.088
Mof_H 	H 	0.5335	0.1284	0.7571	0.067
Mof_C 	C 	0.5972	0.1088	0.7209	-0.233
Mof_H 	H 	0.5837	0.1045	0.7006	0.117
Mof_C 	C 	0.6236	0.1339	0.7202	0.143
Mof_H 	H 	0.6291	0.1457	0.6991	-0.004
Mof_O 	O 	0.1845	0.6721	0.2776	-0.431
Mof_C 	C 	0.0288	0.5724	0.2532	0.153
Mof_C 	C 	0.0186	0.6087	0.2557	-0.085
Mof_H 	H 	0.0335	0.6284	0.2571	0.066
Mof_C 	C 	0.0972	0.6088	0.2209	-0.233
Mof_H 	H 	0.0837	0.6045	0.2006	0.117
Mof_C 	C 	0.1236	0.6339	0.2202	0.143
Mof_H 	H 	0.1291	0.6457	0.1991	-0.004
Mof_O 	O 	0.8279	0.7776	0.3155	-0.431
Mof_C 	C 	0.9276	0.7532	0.4712	0.153
Mof_C 	C 	0.8913	0.7557	0.4814	-0.088
Mof_H 	H 	0.8716	0.7571	0.4665	0.067
Mof_C 	C 	0.8912	0.7209	0.4028	-0.233
Mof_H 	H 	0.8955	0.7006	0.4163	0.117
Mof_C 	C 	0.8661	0.7202	0.3764	0.143
Mof_H 	H 	0.8543	0.6991	0.3709	-0.004
Mof_O 	O 	0.3279	0.2776	0.8155	-0.431
Mof_C 	C 	0.4276	0.2532	0.9712	0.153
Mof_C 	C 	0.3913	0.2557	0.9814	-0.091
Mof_H 	H 	0.3716	0.2571	0.9665	0.067
Mof_C 	C 	0.3912	0.2209	0.9028	-0.233
Mof_H 	H 	0.3955	0.2006	0.9163	0.117
Mof_C 	C 	0.3661	0.2202	0.8764	0.143
Mof_H 	H 	0.3543	0.1991	0.8709	-0.004
Mof_O 	O 	0.8279	0.2224	0.6845	-0.431
Mof_C 	C 	0.9276	0.2468	0.5288	0.153
Mof_C 	C 	0.8913	0.2443	0.5186	-0.088
Mof_H 	H 	0.8716	0.2429	0.5335	0.067
Mof_C 	C 	0.8912	0.2791	0.5972	-0.233
Mof_H 	H 	0.8955	0.2994	0.5837	0.117
Mof_C 	C 	0.8661	0.2798	0.6236	0.143
Mof_H 	H 	0.8543	0.3009	0.6291	-0.004
Mof_O 	O 	0.3279	0.7224	0.1845	-0.431
Mof_C 	C 	0.4276	0.7468	0.0288	0.153
Mof_C 	C 	0.3913	0.7443	0.0186	-0.085
Mof_H 	H 	0.3716	0.7429	0.0335	0.066
Mof_C 	C 	0.3912	0.7791	0.0972	-0.233
Mof_H 	H 	0.3955	0.7994	0.0837	0.117
Mof_C 	C 	0.3661	0.7798	0.1236	0.143
Mof_H 	H 	0.3543	0.8009	0.1291	-0.004
Mof_O 	O 	0.1721	0.7776	0.6845	-0.431
Mof_C 	C 	0.0724	0.7532	0.5288	0.154
Mof_C 	C 	0.1087	0.7557	0.5186	-0.088
Mof_H 	H 	0.1284	0.7571	0.5335	0.067
Mof_C 	C 	0.1088	0.7209	0.5972	-0.233
Mof_H 	H 	0.1045	0.7006	0.5837	0.117
Mof_C 	C 	0.1339	0.7202	0.6236	0.143
Mof_H 	H 	0.1457	0.6991	0.6291	-0.004
Mof_O 	O 	0.6721	0.2776	0.1845	-0.431
Mof_C 	C 	0.5724	0.2532	0.0288	0.153
Mof_C 	C 	0.6087	0.2557	0.0186	-0.085
Mof_H 	H 	0.6284	0.2571	0.0335	0.066
Mof_C 	C 	0.6088	0.2209	0.0972	-0.233
Mof_H 	H 	0.6045	0.2006	0.0837	0.117
Mof_C 	C 	0.6339	0.2202	0.1236	0.143
Mof_H 	H 	0.6457	0.1991	0.1291	-0.004
Mof_O 	O 	0.1721	0.2224	0.3155	-0.431
Mof_C 	C 	0.0724	0.2468	0.4712	0.154
Mof_C 	C 	0.1087	0.2443	0.4814	-0.088
Mof_H 	H 	0.1284	0.2429	0.4665	0.067
Mof_C 	C 	0.1088	0.2791	0.4028	-0.233
Mof_H 	H 	0.1045	0.2994	0.4163	0.117
Mof_C 	C 	0.1339	0.2798	0.3764	0.143
Mof_H 	H 	0.1457	0.3009	0.3709	-0.004
Mof_O 	O 	0.6721	0.7224	0.8155	-0.431
Mof_C 	C 	0.5724	0.7468	0.9712	0.152
Mof_C 	C 	0.6087	0.7443	0.9814	-0.091
Mof_H 	H 	0.6284	0.7429	0.9665	0.067
Mof_C 	C 	0.6088	0.7791	0.9028	-0.233
Mof_H 	H 	0.6045	0.7994	0.9163	0.116
Mof_C 	C 	0.6339	0.7798	0.8764	0.143
Mof_H 	H 	0.6457	0.8009	0.8709	-0.004
Mof_Hf	Hf	0.27144	0.20721	0.20721	1.133
Mof_O 	O 	0.3056	0.2422	0.2422	-0.518
Mof_Hf	Hf	0.77144	0.70721	0.70721	1.133
Mof_O 	O 	0.8056	0.7422	0.7422	-0.518
Mof_Hf	Hf	0.72856	0.79279	0.20721	1.133
Mof_O 	O 	0.6944	0.7578	0.2422	-0.518
Mof_Hf	Hf	0.22856	0.29279	0.70721	1.133
Mof_O 	O 	0.1944	0.2578	0.7422	-0.518
Mof_Hf	Hf	0.72856	0.20721	0.79279	1.133
Mof_O 	O 	0.6944	0.2422	0.7578	-0.518
Mof_Hf	Hf	0.22856	0.70721	0.29279	1.133
Mof_O 	O 	0.1944	0.7422	0.2578	-0.518
Mof_Hf	Hf	0.27144	0.79279	0.79279	1.133
Mof_O 	O 	0.3056	0.7578	0.7578	-0.518
Mof_Hf	Hf	0.77144	0.29279	0.29279	1.133
Mof_O 	O 	0.8056	0.2578	0.2578	-0.518
Mof_Hf	Hf	0.20721	0.27144	0.20721	1.133
Mof_O 	O 	0.2422	0.3056	0.2422	-0.518
Mof_Hf	Hf	0.70721	0.77144	0.70721	1.133
Mof_O 	O 	0.7422	0.8056	0.7422	-0.518
Mof_Hf	Hf	0.20721	0.72856	0.79279	1.133
Mof_O 	O 	0.2422	0.6944	0.7578	-0.518
Mof_Hf	Hf	0.70721	0.22856	0.29279	1.133
Mof_O 	O 	0.7422	0.1944	0.2578	-0.518
Mof_Hf	Hf	0.79279	0.72856	0.20721	1.133
Mof_O 	O 	0.7578	0.6944	0.2422	-0.518
Mof_Hf	Hf	0.29279	0.22856	0.70721	1.133
Mof_O 	O 	0.2578	0.1944	0.7422	-0.518
Mof_Hf	Hf	0.79279	0.27144	0.79279	1.133
Mof_O 	O 	0.7578	0.3056	0.7578	-0.518
Mof_Hf	Hf	0.29279	0.77144	0.29279	1.133
Mof_O 	O 	0.2578	0.8056	0.2578	-0.518
Mof_Hf	Hf	0.20721	0.20721	0.27144	1.133
Mof_O 	O 	0.2422	0.2422	0.3056	-0.518
Mof_Hf	Hf	0.70721	0.70721	0.77144	1.133
Mof_O 	O 	0.7422	0.7422	0.8056	-0.518
Mof_Hf	Hf	0.79279	0.20721	0.72856	1.133
Mof_O 	O 	0.7578	0.2422	0.6944	-0.518
Mof_Hf	Hf	0.29279	0.70721	0.22856	1.133
Mof_O 	O 	0.2578	0.7422	0.1944	-0.518
Mof_Hf	Hf	0.20721	0.79279	0.72856	1.133
Mof_O 	O 	0.2422	0.7578	0.6944	-0.518
Mof_Hf	Hf	0.70721	0.29279	0.22856	1.133
Mof_O 	O 	0.7422	0.2578	0.1944	-0.518
Mof_Hf	Hf	0.79279	0.79279	0.27144	1.133
Mof_O 	O 	0.7578	0.7578	0.3056	-0.518
Mof_Hf	Hf	0.29279	0.29279	0.77144	1.133
Mof_O 	O 	0.2578	0.2578	0.8056	-0.518
Mof_Hf	Hf	0.20721	0.27144	0.79279	1.133
Mof_O 	O 	0.2422	0.3056	0.7578	-0.518
Mof_Hf	Hf	0.70721	0.77144	0.29279	1.133
Mof_O 	O 	0.7422	0.8056	0.2578	-0.518
Mof_Hf	Hf	0.79279	0.72856	0.79279	1.133
Mof_O 	O 	0.7578	0.6944	0.7578	-0.518
Mof_Hf	Hf	0.29279	0.22856	0.29279	1.133
Mof_O 	O 	0.2578	0.1944	0.2578	-0.518
Mof_Hf	Hf	0.20721	0.72856	0.20721	1.133
Mof_O 	O 	0.2422	0.6944	0.2422	-0.518
Mof_Hf	Hf	0.70721	0.22856	0.70721	1.133
Mof_O 	O 	0.7422	0.1944	0.7422	-0.518
Mof_Hf	Hf	0.79279	0.27144	0.20721	1.133
Mof_O 	O 	0.7578	0.3056	0.2422	-0.518
Mof_Hf	Hf	0.29279	0.77144	0.70721	1.133
Mof_O 	O 	0.2578	0.8056	0.7422	-0.518
Mof_Hf	Hf	0.27144	0.20721	0.79279	1.133
Mof_O 	O 	0.3056	0.2422	0.7578	-0.518
Mof_Hf	Hf	0.77144	0.70721	0.29279	1.133
Mof_O 	O 	0.8056	0.7422	0.2578	-0.518
Mof_Hf	Hf	0.72856	0.20721	0.20721	1.133
Mof_O 	O 	0.6944	0.2422	0.2422	-0.518
Mof_Hf	Hf	0.22856	0.70721	0.70721	1.133
Mof_O 	O 	0.1944	0.7422	0.7422	-0.518
Mof_Hf	Hf	0.72856	0.79279	0.79279	1.133
Mof_O 	O 	0.6944	0.7578	0.7578	-0.518
Mof_Hf	Hf	0.22856	0.29279	0.29279	1.133
Mof_O 	O 	0.1944	0.2578	0.2578	-0.518
Mof_Hf	Hf	0.27144	0.79279	0.20721	1.133
Mof_O 	O 	0.3056	0.7578	0.2422	-0.518
Mof_Hf	Hf	0.77144	0.29279	0.70721	1.133
Mof_O 	O 	0.8056	0.2578	0.7422	-0.518
Mof_Hf	Hf	0.20721	0.20721	0.72856	1.133
Mof_O 	O 	0.2422	0.2422	0.6944	-0.518
Mof_Hf	Hf	0.70721	0.70721	0.22856	1.133
Mof_O 	O 	0.7422	0.7422	0.1944	-0.518
Mof_Hf	Hf	0.20721	0.79279	0.27144	1.133
Mof_O 	O 	0.2422	0.7578	0.3056	-0.518
Mof_Hf	Hf	0.70721	0.29279	0.77144	1.133
Mof_O 	O 	0.7422	0.2578	0.8056	-0.518
Mof_Hf	Hf	0.79279	0.20721	0.27144	1.133
Mof_O 	O 	0.7578	0.2422	0.3056	-0.518
Mof_Hf	Hf	0.29279	0.70721	0.77144	1.133
Mof_O 	O 	0.2578	0.7422	0.8056	-0.518
Mof_Hf	Hf	0.79279	0.79279	0.72856	1.133
Mof_O 	O 	0.7578	0.7578	0.6944	-0.518
Mof_Hf	Hf	0.29279	0.29279	0.22856	1.133
Mof_O 	O 	0.2578	0.2578	0.1944	-0.518
Mof_Ir	Ir	0.5	0.25	-0	0.531
Mof_Ir	Ir	0.5	0.75	-0	0.531
Mof_Ir	Ir	4.52607e-33	0.5	0.25	0.531
Mof_Ir	Ir	2.81205e-33	0.5	0.75	0.531
Mof_Ir	Ir	0.25	0	0.5	0.531
Mof_Ir	Ir	0.75	0	0.5	0.531
Mof_Ir	Ir	0.25	0.5	-0	0.531
Mof_Ir	Ir	0.75	0.5	-0	0.531
Mof_Ir	Ir	0.5	0	0.75	0.531
Mof_Ir	Ir	0.5	0	0.25	0.531
Mof_Ir	Ir	1.8747e-33	0.25	0.5	0.531
Mof_Ir	Ir	1.8747e-33	0.75	0.5	0.531
Mof_Cl	Cl	0.5	0.3143	-0	-0.329
Mof_Cl	Cl	1.62296e-32	0.8143	0.5	-0.33
Mof_Cl	Cl	0.5	0.6857	-0	-0.329
Mof_Cl	Cl	1.8747e-33	0.1857	0.5	-0.329
Mof_Cl	Cl	4.76716e-33	0.5	0.3143	-0.329
Mof_Cl	Cl	0.5	7.17745e-33	0.8143	-0.33
Mof_Cl	Cl	-4.60649e-33	0.5	0.6857	-0.329
Mof_Cl	Cl	0.5	0	0.1857	-0.329
Mof_Cl	Cl	0.3143	0	0.5	-0.329
Mof_Cl	Cl	0.8143	0.5	-0	-0.33
Mof_Cl	Cl	0.6857	0	0.5	-0.329
Mof_Cl	Cl	0.1857	0.5	-0	-0.329
Mof_Cl	Cl	0.3143	0.5	-0	-0.329
Mof_Cl	Cl	0.8143	0	0.5	-0.33
Mof_Cl	Cl	0.6857	0.5	-0	-0.329
Mof_Cl	Cl	0.1857	0	0.5	-0.329
Mof_Cl	Cl	0.5	0	0.6857	-0.329
Mof_Cl	Cl	6.96263e-34	0.5	0.1857	-0.329
Mof_Cl	Cl	0.5	0	0.3143	-0.329
Mof_Cl	Cl	1.02306e-32	0.5	0.8143	-0.33
Mof_Cl	Cl	1.8747e-33	0.3143	0.5	-0.329
Mof_Cl	Cl	0.5	0.8143	-0	-0.33
Mof_Cl	Cl	-5.30275e-33	0.6857	0.5	-0.329
Mof_Cl	Cl	0.5	0.1857	-0	-0.329
Mof_O 	O 	0.2144	0.2144	0.2144	-0.523
Mof_O 	O 	0.7144	0.7144	0.7144	-0.523
Mof_O 	O 	0.7856	0.7856	0.2144	-0.523
Mof_O 	O 	0.2856	0.2856	0.7144	-0.523
Mof_O 	O 	0.7856	0.2144	0.7856	-0.523
Mof_O 	O 	0.2856	0.7144	0.2856	-0.523
Mof_O 	O 	0.2144	0.7856	0.7856	-0.523
Mof_O 	O 	0.7144	0.2856	0.2856	-0.523
Mof_O 	O 	0.2144	0.2144	0.7856	-0.523
Mof_O 	O 	0.7144	0.7144	0.2856	-0.523
Mof_O 	O 	0.7856	0.7856	0.7856	-0.523
Mof_O 	O 	0.2856	0.2856	0.2856	-0.523
Mof_O 	O 	0.2144	0.7856	0.2144	-0.523
Mof_O 	O 	0.7144	0.2856	0.7144	-0.523
Mof_O 	O 	0.7856	0.2144	0.2144	-0.523
Mof_O 	O 	0.2856	0.7144	0.7144	-0.523
Mof_N 	N 	0.5	0.2479	0.0522	-0.176
Mof_N 	N 	2.07042e-33	0.7479	0.5522	-0.174
Mof_N 	N 	0.5	0.7521	0.0522	-0.176
Mof_N 	N 	2.07042e-33	0.2521	0.5522	-0.174
Mof_N 	N 	0.5	0.2479	0.9478	-0.176
Mof_N 	N 	1.67898e-33	0.7479	0.4478	-0.174
Mof_N 	N 	0.5	0.7521	0.9478	-0.176
Mof_N 	N 	-5.49847e-33	0.2521	0.4478	-0.174
Mof_N 	N 	0.0522	0.5	0.2479	-0.176
Mof_N 	N 	0.5522	0	0.7479	-0.174
Mof_N 	N 	0.0522	0.5	0.7521	-0.176
Mof_N 	N 	0.5522	0	0.2521	-0.174
Mof_N 	N 	0.9478	0.5	0.2479	-0.176
Mof_N 	N 	0.4478	0	0.7479	-0.174
Mof_N 	N 	0.9478	0.5	0.7521	-0.176
Mof_N 	N 	0.4478	0	0.2521	-0.174
Mof_N 	N 	0.2479	0.0522	0.5	-0.176
Mof_N 	N 	0.7479	0.5522	-0	-0.174
Mof_N 	N 	0.7521	0.0522	0.5	-0.176
Mof_N 	N 	0.2521	0.5522	-0	-0.174
Mof_N 	N 	0.2479	0.9478	0.5	-0.176
Mof_N 	N 	0.7479	0.4478	-0	-0.174
Mof_N 	N 	0.7521	0.9478	0.5	-0.176
Mof_N 	N 	0.2521	0.4478	-0	-0.174
Mof_N 	N 	0.2479	0.5	0.9478	-0.176
Mof_N 	N 	0.7479	-3.58872e-33	0.4478	-0.174
Mof_N 	N 	0.7521	0.5	0.9478	-0.176
Mof_N 	N 	0.2521	-3.58872e-33	0.4478	-0.174
Mof_N 	N 	0.2479	0.5	0.0522	-0.176
Mof_N 	N 	0.7479	7.17745e-33	0.5522	-0.174
Mof_N 	N 	0.7521	0.5	0.0522	-0.176
Mof_N 	N 	0.2521	7.17745e-33	0.5522	-0.174
Mof_N 	N 	0.5	0.0522	0.7521	-0.176
Mof_N 	N 	9.45224e-34	0.5522	0.2521	-0.174
Mof_N 	N 	0.5	0.0522	0.2479	-0.176
Mof_N 	N 	2.80418e-33	0.5522	0.7479	-0.174
Mof_N 	N 	0.5	0.9478	0.7521	-0.176
Mof_N 	N 	-6.23223e-33	0.4478	0.2521	-0.174
Mof_N 	N 	0.5	0.9478	0.2479	-0.176
Mof_N 	N 	2.80418e-33	0.4478	0.7479	-0.174
Mof_N 	N 	0.0522	0.2479	0.5	-0.176
Mof_N 	N 	0.5522	0.7479	-0	-0.174
Mof_N 	N 	0.0522	0.7521	0.5	-0.176
Mof_N 	N 	0.5522	0.2521	-0	-0.174
Mof_N 	N 	0.9478	0.2479	0.5	-0.176
Mof_N 	N 	0.4478	0.7479	-0	-0.174
Mof_N 	N 	0.9478	0.7521	0.5	-0.176
Mof_N 	N 	0.4478	0.2521	-0	-0.174
Mof_C 	C 	0.4373	0.25	0.0627	-0.163
Mof_C 	C 	0.4093	0.25	0.0907	0.195
Mof_C 	C 	0.3587	0.25	0.1413	-0.21
Mof_C 	C 	0.3303	0.25	0.1697	0.498
Mof_C 	C 	0.5627	0.75	0.0627	-0.163
Mof_C 	C 	0.5907	0.75	0.0907	0.195
Mof_C 	C 	0.6413	0.75	0.1413	-0.21
Mof_C 	C 	0.6697	0.75	0.1697	0.498
Mof_C 	C 	0.5627	0.25	0.9373	-0.163
Mof_C 	C 	0.5907	0.25	0.9093	0.195
Mof_C 	C 	0.6413	0.25	0.8587	-0.21
Mof_C 	C 	0.6697	0.25	0.8303	0.498
Mof_C 	C 	0.4373	0.75	0.9373	-0.163
Mof_C 	C 	0.4093	0.75	0.9093	0.195
Mof_C 	C 	0.3587	0.75	0.8587	-0.21
Mof_C 	C 	0.3303	0.75	0.8303	0.498
Mof_C 	C 	0.0627	0.4373	0.25	-0.163
Mof_C 	C 	0.0907	0.4093	0.25	0.195
Mof_C 	C 	0.1413	0.3587	0.25	-0.21
Mof_C 	C 	0.1697	0.3303	0.25	0.498
Mof_C 	C 	0.0627	0.5627	0.75	-0.163
Mof_C 	C 	0.0907	0.5907	0.75	0.195
Mof_C 	C 	0.1413	0.6413	0.75	-0.21
Mof_C 	C 	0.1697	0.6697	0.75	0.498
Mof_C 	C 	0.9373	0.5627	0.25	-0.163
Mof_C 	C 	0.9093	0.5907	0.25	0.195
Mof_C 	C 	0.8587	0.6413	0.25	-0.21
Mof_C 	C 	0.8303	0.6697	0.25	0.498
Mof_C 	C 	0.9373	0.4373	0.75	-0.163
Mof_C 	C 	0.9093	0.4093	0.75	0.195
Mof_C 	C 	0.8587	0.3587	0.75	-0.21
Mof_C 	C 	0.8303	0.3303	0.75	0.498
Mof_C 	C 	0.25	0.0627	0.4373	-0.163
Mof_C 	C 	0.25	0.0907	0.4093	0.195
Mof_C 	C 	0.25	0.1413	0.3587	-0.21
Mof_C 	C 	0.25	0.1697	0.3303	0.498
Mof_C 	C 	0.75	0.0627	0.5627	-0.163
Mof_C 	C 	0.75	0.0907	0.5907	0.195
Mof_C 	C 	0.75	0.1413	0.6413	-0.21
Mof_C 	C 	0.75	0.1697	0.6697	0.498
Mof_C 	C 	0.25	0.9373	0.5627	-0.163
Mof_C 	C 	0.25	0.9093	0.5907	0.195
Mof_C 	C 	0.25	0.8587	0.6413	-0.21
Mof_C 	C 	0.25	0.8303	0.6697	0.498
Mof_C 	C 	0.75	0.9373	0.4373	-0.163
Mof_C 	C 	0.75	0.9093	0.4093	0.195
Mof_C 	C 	0.75	0.8587	0.3587	-0.21
Mof_C 	C 	0.75	0.8303	0.3303	0.498
Mof_C 	C 	0.25	0.4373	0.9373	-0.163
Mof_C 	C 	0.25	0.4093	0.9093	0.195
Mof_C 	C 	0.25	0.3587	0.8587	-0.21
Mof_C 	C 	0.25	0.3303	0.8303	0.498
Mof_C 	C 	0.75	0.5627	0.9373	-0.163
Mof_C 	C 	0.75	0.5907	0.9093	0.195
Mof_C 	C 	0.75	0.6413	0.8587	-0.21
Mof_C 	C 	0.75	0.6697	0.8303	0.498
Mof_C 	C 	0.25	0.5627	0.0627	-0.163
Mof_C 	C 	0.25	0.5907	0.0907	0.195
Mof_C 	C 	0.25	0.6413	0.1413	-0.21
Mof_C 	C 	0.25	0.6697	0.1697	0.498
Mof_C 	C 	0.75	0.4373	0.0627	-0.163
Mof_C 	C 	0.75	0.4093	0.0907	0.195
Mof_C 	C 	0.75	0.3587	0.1413	-0.21
Mof_C 	C 	0.75	0.3303	0.1697	0.498
Mof_C 	C 	0.4373	0.0627	0.75	-0.163
Mof_C 	C 	0.4093	0.0907	0.75	0.195
Mof_C 	C 	0.3587	0.1413	0.75	-0.21
Mof_C 	C 	0.3303	0.1697	0.75	0.498
Mof_C 	C 	0.5627	0.0627	0.25	-0.163
Mof_C 	C 	0.5907	0.0907	0.25	0.195
Mof_C 	C 	0.6413	0.1413	0.25	-0.21
Mof_C 	C 	0.6697	0.1697	0.25	0.498
Mof_C 	C 	0.5627	0.9373	0.75	-0.163
Mof_C 	C 	0.5907	0.9093	0.75	0.195
Mof_C 	C 	0.6413	0.8587	0.75	-0.21
Mof_C 	C 	0.6697	0.8303	0.75	0.498
Mof_C 	C 	0.4373	0.9373	0.25	-0.163
Mof_C 	C 	0.4093	0.9093	0.25	0.195
Mof_C 	C 	0.3587	0.8587	0.25	-0.21
Mof_C 	C 	0.3303	0.8303	0.25	0.498
Mof_C 	C 	0.0627	0.25	0.5627	-0.163
Mof_C 	C 	0.0907	0.25	0.5907	0.195
Mof_C 	C 	0.1413	0.25	0.6413	-0.21
Mof_C 	C 	0.1697	0.25	0.6697	0.498
Mof_C 	C 	0.0627	0.75	0.4373	-0.163
Mof_C 	C 	0.0907	0.75	0.4093	0.195
Mof_C 	C 	0.1413	0.75	0.3587	-0.21
Mof_C 	C 	0.1697	0.75	0.3303	0.498
Mof_C 	C 	0.9373	0.25	0.4373	-0.163
Mof_C 	C 	0.9093	0.25	0.4093	0.195
Mof_C 	C 	0.8587	0.25	0.3587	-0.21
Mof_C 	C 	0.8303	0.25	0.3303	0.498
Mof_C 	C 	0.9373	0.75	0.5627	-0.163
Mof_C 	C 	0.9093	0.75	0.5907	0.195
Mof_C 	C 	0.8587	0.75	0.6413	-0.21
Mof_C 	C 	0.8303	0.75	0.6697	0.498
Mof_C 	C 	0.5627	0.75	0.9373	-0.163
Mof_C 	C 	0.5907	0.75	0.9093	0.195
Mof_C 	C 	0.6413	0.75	0.8587	-0.21
Mof_C 	C 	0.6697	0.75	0.8303	0.498
Mof_C 	C 	0.0627	0.25	0.4373	-0.163
Mof_C 	C 	0.0907	0.25	0.4093	0.195
Mof_C 	C 	0.1413	0.25	0.3587	-0.21
Mof_C 	C 	0.1697	0.25	0.3303	0.498
Mof_C 	C 	0.4373	0.25	0.9373	-0.163
Mof_C 	C 	0.4093	0.25	0.9093	0.195
Mof_C 	C 	0.3587	0.25	0.8587	-0.21
Mof_C 	C 	0.3303	0.25	0.8303	0.498
Mof_C 	C 	0.4373	0.75	0.0627	-0.163
Mof_C 	C 	0.4093	0.75	0.0907	0.195
Mof_C 	C 	0.3587	0.75	0.1413	-0.21
Mof_C 	C 	0.3303	0.75	0.1697	0.498
Mof_C 	C 	0.5627	0.25	0.0627	-0.163
Mof_C 	C 	0.5907	0.25	0.0907	0.195
Mof_C 	C 	0.6413	0.25	0.1413	-0.21
Mof_C 	C 	0.6697	0.25	0.1697	0.498
Mof_C 	C 	0.9373	0.5627	0.75	-0.163
Mof_C 	C 	0.9093	0.5907	0.75	0.195
Mof_C 	C 	0.8587	0.6413	0.75	-0.21
Mof_C 	C 	0.8303	0.6697	0.75	0.498
Mof_C 	C 	0.4373	0.0627	0.25	-0.163
Mof_C 	C 	0.4093	0.0907	0.25	0.195
Mof_C 	C 	0.3587	0.1413	0.25	-0.21
Mof_C 	C 	0.3303	0.1697	0.25	0.498
Mof_C 	C 	0.9373	0.4373	0.25	-0.163
Mof_C 	C 	0.9093	0.4093	0.25	0.195
Mof_C 	C 	0.8587	0.3587	0.25	-0.21
Mof_C 	C 	0.8303	0.3303	0.25	0.498
Mof_C 	C 	0.0627	0.4373	0.75	-0.163
Mof_C 	C 	0.0907	0.4093	0.75	0.195
Mof_C 	C 	0.1413	0.3587	0.75	-0.21
Mof_C 	C 	0.1697	0.3303	0.75	0.498
Mof_C 	C 	0.0627	0.5627	0.25	-0.163
Mof_C 	C 	0.0907	0.5907	0.25	0.195
Mof_C 	C 	0.1413	0.6413	0.25	-0.21
Mof_C 	C 	0.1697	0.6697	0.25	0.498
Mof_C 	C 	0.75	0.9373	0.5627	-0.163
Mof_C 	C 	0.75	0.9093	0.5907	0.195
Mof_C 	C 	0.75	0.8587	0.6413	-0.21
Mof_C 	C 	0.75	0.8303	0.6697	0.498
Mof_C 	C 	0.25	0.4373	0.0627	-0.163
Mof_C 	C 	0.25	0.4093	0.0907	0.195
Mof_C 	C 	0.25	0.3587	0.1413	-0.21
Mof_C 	C 	0.25	0.3303	0.1697	0.498
Mof_C 	C 	0.25	0.9373	0.4373	-0.163
Mof_C 	C 	0.25	0.9093	0.4093	0.195
Mof_C 	C 	0.25	0.8587	0.3587	-0.21
Mof_C 	C 	0.25	0.8303	0.3303	0.498
Mof_C 	C 	0.75	0.0627	0.4373	-0.163
Mof_C 	C 	0.75	0.0907	0.4093	0.195
Mof_C 	C 	0.75	0.1413	0.3587	-0.21
Mof_C 	C 	0.75	0.1697	0.3303	0.498
Mof_C 	C 	0.25	0.0627	0.5627	-0.163
Mof_C 	C 	0.25	0.0907	0.5907	0.195
Mof_C 	C 	0.25	0.1413	0.6413	-0.21
Mof_C 	C 	0.25	0.1697	0.6697	0.498
Mof_C 	C 	0.75	0.5627	0.0627	-0.163
Mof_C 	C 	0.75	0.5907	0.0907	0.195
Mof_C 	C 	0.75	0.6413	0.1413	-0.21
Mof_C 	C 	0.75	0.6697	0.1697	0.498
Mof_C 	C 	0.75	0.4373	0.9373	-0.163
Mof_C 	C 	0.75	0.4093	0.9093	0.195
Mof_C 	C 	0.75	0.3587	0.8587	-0.21
Mof_C 	C 	0.75	0.3303	0.8303	0.498
Mof_C 	C 	0.25	0.5627	0.9373	-0.163
Mof_C 	C 	0.25	0.5907	0.9093	0.195
Mof_C 	C 	0.25	0.6413	0.8587	-0.21
Mof_C 	C 	0.25	0.6697	0.8303	0.498
Mof_C 	C 	0.5627	0.9373	0.25	-0.163
Mof_C 	C 	0.5907	0.9093	0.25	0.195
Mof_C 	C 	0.6413	0.8587	0.25	-0.21
Mof_C 	C 	0.6697	0.8303	0.25	0.498
Mof_C 	C 	0.4373	0.9373	0.75	-0.163
Mof_C 	C 	0.4093	0.9093	0.75	0.195
Mof_C 	C 	0.3587	0.8587	0.75	-0.21
Mof_C 	C 	0.3303	0.8303	0.75	0.498
Mof_C 	C 	0.5627	0.0627	0.75	-0.163
Mof_C 	C 	0.5907	0.0907	0.75	0.195
Mof_C 	C 	0.6413	0.1413	0.75	-0.21
Mof_C 	C 	0.6697	0.1697	0.75	0.498
Mof_C 	C 	0.9373	0.75	0.4373	-0.163
Mof_C 	C 	0.9093	0.75	0.4093	0.195
Mof_C 	C 	0.8587	0.75	0.3587	-0.21
Mof_C 	C 	0.8303	0.75	0.3303	0.498
Mof_C 	C 	0.9373	0.25	0.5627	-0.163
Mof_C 	C 	0.9093	0.25	0.5907	0.195
Mof_C 	C 	0.8587	0.25	0.6413	-0.21
Mof_C 	C 	0.8303	0.25	0.6697	0.498
Mof_C 	C 	0.0627	0.75	0.5627	-0.163
Mof_C 	C 	0.0907	0.75	0.5907	0.195
Mof_C 	C 	0.1413	0.75	0.6413	-0.21
Mof_C 	C 	0.1697	0.75	0.6697	0.498
_end
