data_functionalizedCrystal
_audit_creation_method	'EQeq! by Chris Wilmer'
_symmetry_space_group_name_H-M	'P1'
_symmetry_Int_Tables_number	1
_symmetry_cell_setting	triclinic
loop_
_symmetry_equiv_pos_as_xyz
  x,y,z
_cell_length_a	19.455
_cell_length_b	30.389
_cell_length_c	24.23
_cell_angle_alpha	90
_cell_angle_beta	90
_cell_angle_gamma	90
loop_
_atom_site_label
_atom_site_type_symbol
_atom_site_fract_x
_atom_site_fract_y
_atom_site_fract_z
_atom_site_charge
Mof_O 	O 	0.15812	0.24943	0.43896	-0.563
Mof_O 	O 	0.2274	0.3068	0.4415	-0.554
Mof_O 	O 	0.1425	0.5359	0.0692	-0.341
Mof_O 	O 	0.2258	0.48866	0.0712	-0.384
Mof_O 	O 	0.21972	0.08901	0.44044	-0.563
Mof_O 	O 	0.14401	0.14389	0.43598	-0.541
Mof_C 	C 	0.05694	0.34999	0.29673	-0.155
Mof_C 	C 	0.1146	0.37032	0.32025	-0.029
Mof_H 	H 	0.1264	0.3986	0.3092	0.035
Mof_C 	C 	0.0385	0.30898	0.31623	-0.087
Mof_H 	H 	0.9995	0.2953	0.3024	0.072
Mof_C 	C 	0.0783	0.28755	0.35697	0.048
Mof_H 	H 	0.0656	0.2598	0.3695	0.009
Mof_C 	C 	0.1542	0.3494	0.35934	0.03
Mof_H 	H 	0.1932	0.3632	0.3731	0.034
Mof_C 	C 	0.1364	0.30799	0.37837	-0.176
Mof_C 	C 	0.1769	0.28661	0.42273	0.53
Mof_C 	C 	0.0532	0.41904	0.20319	-0.179
Mof_C 	C 	0.0271	0.4613	0.1822	-0.026
Mof_C 	C 	0.1227	0.4104	0.1888	-0.016
Mof_C 	C 	0.0621	0.4855	0.1424	0.048
Mof_C 	C 	0.1591	0.4366	0.1512	0.069
Mof_C 	C 	0.1281	0.46974	0.1257	-0.288
Mof_C 	C 	0.1648	0.49592	0.0857	0.749
Mof_C 	C 	0.0548	0.0351	0.29658	-0.156
Mof_C 	C 	0.1172	0.02053	0.31525	-0.027
Mof_H 	H 	0.135	0.9943	0.3015	0.034
Mof_C 	C 	0.0292	0.07473	0.31763	-0.088
Mof_H 	H 	0.9875	0.0857	0.3049	0.072
Mof_C 	C 	0.0662	0.0981	0.35804	0.039
Mof_H 	H 	0.0484	0.1242	0.372	0.012
Mof_C 	C 	0.1553	0.04452	0.35506	0.003
Mof_H 	H 	0.1982	0.0346	0.3664	0.047
Mof_C 	C 	0.128	0.08294	0.37698	-0.158
Mof_C 	C 	0.1674	0.1072	0.42111	0.496
Mof_C 	C 	0.0515	0.4032	0.1438	-0.029
Mof_C 	C 	0.0886	0.4518	0.2172	0.014
Mof_C 	C 	0.0881	0.43	0.1054	0.035
Mof_C 	C 	0.1268	0.4766	0.18	0.059
Mof_O 	O 	0.1645	0.4804	0.035	-0.385
Mof_O 	O 	0.1899	0.5276	0.0959	-0.346
Mof_O 	O 	0.65812	0.74943	0.43896	-0.556
Mof_O 	O 	0.7274	0.8068	0.4415	-0.549
Mof_O 	O 	0.6425	0.0359	0.0692	-0.339
Mof_O 	O 	0.7258	0.98866	0.0712	-0.379
Mof_O 	O 	0.71972	0.58901	0.44044	-0.557
Mof_O 	O 	0.64401	0.64389	0.43598	-0.534
Mof_C 	C 	0.55694	0.84999	0.29673	-0.218
Mof_C 	C 	0.6146	0.87032	0.32025	0.025
Mof_H 	H 	0.6264	0.8986	0.3092	0.019
Mof_C 	C 	0.5385	0.80898	0.31623	0.027
Mof_H 	H 	0.4995	0.7953	0.3024	0.007
Mof_C 	C 	0.5783	0.78755	0.35697	-0.017
Mof_H 	H 	0.5656	0.7598	0.3695	0.037
Mof_C 	C 	0.6542	0.8494	0.35934	-0.014
Mof_H 	H 	0.6932	0.8632	0.3731	0.05
Mof_C 	C 	0.6364	0.80799	0.37837	-0.135
Mof_C 	C 	0.6769	0.78661	0.42273	0.516
Mof_C 	C 	0.5532	0.91904	0.20319	-0.208
Mof_C 	C 	0.5271	0.9613	0.1822	-0.008
Mof_C 	C 	0.6227	0.9104	0.1888	-0.011
Mof_C 	C 	0.5621	0.9855	0.1424	0.06
Mof_C 	C 	0.6591	0.9366	0.1512	0.071
Mof_C 	C 	0.6281	0.96974	0.1257	-0.292
Mof_C 	C 	0.6648	0.99592	0.0857	0.761
Mof_C 	C 	0.5548	0.5351	0.29658	-0.238
Mof_C 	C 	0.6172	0.52053	0.31525	0.054
Mof_H 	H 	0.635	0.4943	0.3015	0.002
Mof_C 	C 	0.5292	0.57473	0.31763	0.038
Mof_H 	H 	0.4875	0.5857	0.3049	0.004
Mof_C 	C 	0.5662	0.5981	0.35804	-0.039
Mof_H 	H 	0.5484	0.6242	0.372	0.045
Mof_C 	C 	0.6553	0.54452	0.35506	-0.054
Mof_H 	H 	0.6982	0.5346	0.3664	0.069
Mof_C 	C 	0.628	0.58294	0.37698	-0.106
Mof_C 	C 	0.6674	0.6072	0.42111	0.479
Mof_C 	C 	0.5515	0.9032	0.1438	-0.014
Mof_C 	C 	0.5886	0.9518	0.2172	0.025
Mof_C 	C 	0.5881	0.93	0.1054	0.038
Mof_C 	C 	0.6268	0.9766	0.18	0.058
Mof_O 	O 	0.6645	0.9804	0.035	-0.383
Mof_O 	O 	0.6899	0.0276	0.0959	-0.354
Mof_O 	O 	0.84188	0.75057	0.43896	-0.553
Mof_O 	O 	0.7726	0.6932	0.4415	-0.547
Mof_O 	O 	0.8575	0.4641	0.0692	-0.331
Mof_O 	O 	0.7742	0.51134	0.0712	-0.384
Mof_O 	O 	0.78028	0.91099	0.44044	-0.557
Mof_O 	O 	0.85599	0.85611	0.43598	-0.531
Mof_C 	C 	0.94306	0.65001	0.29673	-0.193
Mof_C 	C 	0.8854	0.62968	0.32025	0.02
Mof_H 	H 	0.8736	0.6014	0.3092	0.026
Mof_C 	C 	0.9615	0.69102	0.31623	0.083
Mof_H 	H 	0.0005	0.7047	0.3024	-0.033
Mof_C 	C 	0.9217	0.71245	0.35697	-0.042
Mof_H 	H 	0.9344	0.7402	0.3695	0.052
Mof_C 	C 	0.8458	0.6506	0.35934	-0.015
Mof_H 	H 	0.8068	0.6368	0.3731	0.051
Mof_C 	C 	0.8636	0.69201	0.37837	-0.123
Mof_C 	C 	0.8231	0.71339	0.42273	0.513
Mof_C 	C 	0.9468	0.58096	0.20319	-0.166
Mof_C 	C 	0.9729	0.5387	0.1822	0
Mof_C 	C 	0.8773	0.5896	0.1888	-0.018
Mof_C 	C 	0.9379	0.5145	0.1424	0.068
Mof_C 	C 	0.8409	0.5634	0.1512	0.072
Mof_C 	C 	0.8719	0.53026	0.1257	-0.295
Mof_C 	C 	0.8352	0.50408	0.0857	0.754
Mof_C 	C 	0.9452	0.9649	0.29658	-0.203
Mof_C 	C 	0.8828	0.97947	0.31525	0.055
Mof_H 	H 	0.865	0.0057	0.3015	0.002
Mof_C 	C 	0.9708	0.92527	0.31763	0.089
Mof_H 	H 	0.0125	0.9143	0.3049	-0.032
Mof_C 	C 	0.9338	0.9019	0.35804	-0.063
Mof_H 	H 	0.9516	0.8758	0.372	0.061
Mof_C 	C 	0.8447	0.95548	0.35506	-0.058
Mof_H 	H 	0.8018	0.9654	0.3664	0.073
Mof_C 	C 	0.872	0.91706	0.37698	-0.094
Mof_C 	C 	0.8326	0.8928	0.42111	0.477
Mof_C 	C 	0.9485	0.5968	0.1438	-0.009
Mof_C 	C 	0.9114	0.5482	0.2172	0.015
Mof_C 	C 	0.9119	0.57	0.1054	0.044
Mof_C 	C 	0.8732	0.5234	0.18	0.06
Mof_O 	O 	0.8355	0.5196	0.035	-0.382
Mof_O 	O 	0.8101	0.4724	0.0959	-0.348
Mof_O 	O 	0.34188	0.25057	0.43896	-0.556
Mof_O 	O 	0.2726	0.1932	0.4415	-0.548
Mof_O 	O 	0.3575	0.9641	0.0692	-0.333
Mof_O 	O 	0.2742	0.01134	0.0712	-0.386
Mof_O 	O 	0.28028	0.41099	0.44044	-0.557
Mof_O 	O 	0.35599	0.35611	0.43598	-0.533
Mof_C 	C 	0.44306	0.15001	0.29673	-0.219
Mof_C 	C 	0.3854	0.12968	0.32025	0.025
Mof_H 	H 	0.3736	0.1014	0.3092	0.018
Mof_C 	C 	0.4615	0.19102	0.31623	0.027
Mof_H 	H 	0.5005	0.2047	0.3024	0.008
Mof_C 	C 	0.4217	0.21245	0.35697	-0.018
Mof_H 	H 	0.4344	0.2402	0.3695	0.037
Mof_C 	C 	0.3458	0.1506	0.35934	-0.015
Mof_H 	H 	0.3068	0.1368	0.3731	0.05
Mof_C 	C 	0.3636	0.19201	0.37837	-0.135
Mof_C 	C 	0.3231	0.21339	0.42273	0.516
Mof_C 	C 	0.4468	0.08096	0.20319	-0.209
Mof_C 	C 	0.4729	0.0387	0.1822	-0.01
Mof_C 	C 	0.3773	0.0896	0.1888	-0.011
Mof_C 	C 	0.4379	0.0145	0.1424	0.05
Mof_C 	C 	0.3409	0.0634	0.1512	0.064
Mof_C 	C 	0.3719	0.03026	0.1257	-0.279
Mof_C 	C 	0.3352	0.00408	0.0857	0.735
Mof_C 	C 	0.4452	0.4649	0.29658	-0.238
Mof_C 	C 	0.3828	0.47947	0.31525	0.053
Mof_H 	H 	0.365	0.5057	0.3015	0.002
Mof_C 	C 	0.4708	0.42527	0.31763	0.038
Mof_H 	H 	0.5125	0.4143	0.3049	0.004
Mof_C 	C 	0.4338	0.4019	0.35804	-0.039
Mof_H 	H 	0.4516	0.3758	0.372	0.045
Mof_C 	C 	0.3447	0.45548	0.35506	-0.055
Mof_H 	H 	0.3018	0.4654	0.3664	0.069
Mof_C 	C 	0.372	0.41706	0.37698	-0.106
Mof_C 	C 	0.3326	0.3928	0.42111	0.479
Mof_C 	C 	0.4485	0.0968	0.1438	-0.014
Mof_C 	C 	0.4114	0.0482	0.2172	0.024
Mof_C 	C 	0.4119	0.07	0.1054	0.034
Mof_C 	C 	0.3732	0.0234	0.18	0.05
Mof_O 	O 	0.3355	0.0196	0.035	-0.383
Mof_O 	O 	0.3101	0.9724	0.0959	-0.338
Mof_O 	O 	0.84188	0.24943	0.06104	-0.52
Mof_O 	O 	0.7726	0.3068	0.0585	-0.512
Mof_O 	O 	0.8575	0.5359	0.4308	-0.335
Mof_O 	O 	0.7742	0.48866	0.4288	-0.392
Mof_O 	O 	0.78028	0.08901	0.05956	-0.522
Mof_O 	O 	0.85599	0.14389	0.06402	-0.502
Mof_C 	C 	0.94306	0.34999	0.20327	-0.2
Mof_C 	C 	0.8854	0.37032	0.17975	0.031
Mof_H 	H 	0.8736	0.3986	0.1908	0.023
Mof_C 	C 	0.9615	0.30898	0.18377	0.091
Mof_H 	H 	0.0005	0.2953	0.1976	-0.041
Mof_C 	C 	0.9217	0.28755	0.14303	-0.062
Mof_H 	H 	0.9344	0.2598	0.1305	0.052
Mof_C 	C 	0.8458	0.3494	0.14066	-0.035
Mof_H 	H 	0.8068	0.3632	0.1269	0.059
Mof_C 	C 	0.8636	0.30799	0.12163	-0.105
Mof_C 	C 	0.8231	0.28661	0.07727	0.465
Mof_C 	C 	0.9468	0.41904	0.29681	-0.167
Mof_C 	C 	0.9729	0.4613	0.3178	-0.001
Mof_C 	C 	0.8773	0.4104	0.3112	-0.014
Mof_C 	C 	0.9379	0.4855	0.3576	0.077
Mof_C 	C 	0.8409	0.4366	0.3488	0.082
Mof_C 	C 	0.8719	0.46974	0.3743	-0.296
Mof_C 	C 	0.8352	0.49592	0.4143	0.753
Mof_C 	C 	0.9452	0.0351	0.20342	-0.204
Mof_C 	C 	0.8828	0.02053	0.18475	0.029
Mof_H 	H 	0.865	0.9943	0.1985	0.017
Mof_C 	C 	0.9708	0.07473	0.18237	0.088
Mof_H 	H 	0.0125	0.0857	0.1951	-0.038
Mof_C 	C 	0.9338	0.0981	0.14196	-0.072
Mof_H 	H 	0.9516	0.1242	0.128	0.055
Mof_C 	C 	0.8447	0.04452	0.14494	-0.059
Mof_H 	H 	0.8018	0.0346	0.1336	0.07
Mof_C 	C 	0.872	0.08294	0.12302	-0.088
Mof_C 	C 	0.8326	0.1072	0.07889	0.435
Mof_C 	C 	0.9485	0.4032	0.3562	0.001
Mof_C 	C 	0.9114	0.4518	0.2828	0.015
Mof_C 	C 	0.9119	0.43	0.3946	0.072
Mof_C 	C 	0.8732	0.4766	0.32	0.057
Mof_O 	O 	0.8355	0.4804	0.465	-0.325
Mof_O 	O 	0.8101	0.5276	0.4041	-0.364
Mof_O 	O 	0.34188	0.74943	0.06104	-0.523
Mof_O 	O 	0.2726	0.8068	0.0585	-0.514
Mof_O 	O 	0.3575	0.0359	0.4308	-0.343
Mof_O 	O 	0.2742	0.98866	0.4288	-0.39
Mof_O 	O 	0.28028	0.58901	0.05956	-0.523
Mof_O 	O 	0.35599	0.64389	0.06402	-0.504
Mof_C 	C 	0.44306	0.84999	0.20327	-0.226
Mof_C 	C 	0.3854	0.87032	0.17975	0.036
Mof_H 	H 	0.3736	0.8986	0.1908	0.015
Mof_C 	C 	0.4615	0.80898	0.18377	0.035
Mof_H 	H 	0.5005	0.7953	0.1976	-0
Mof_C 	C 	0.4217	0.78755	0.14303	-0.036
Mof_H 	H 	0.4344	0.7598	0.1305	0.037
Mof_C 	C 	0.3458	0.8494	0.14066	-0.034
Mof_H 	H 	0.3068	0.8632	0.1269	0.058
Mof_C 	C 	0.3636	0.80799	0.12163	-0.117
Mof_C 	C 	0.3231	0.78661	0.07727	0.468
Mof_C 	C 	0.4468	0.91904	0.29681	-0.209
Mof_C 	C 	0.4729	0.9613	0.3178	-0.009
Mof_C 	C 	0.3773	0.9104	0.3112	-0.008
Mof_C 	C 	0.4379	0.9855	0.3576	0.069
Mof_C 	C 	0.3409	0.9366	0.3488	0.077
Mof_C 	C 	0.3719	0.96974	0.3743	-0.293
Mof_C 	C 	0.3352	0.99592	0.4143	0.761
Mof_C 	C 	0.4452	0.5351	0.20342	-0.247
Mof_C 	C 	0.3828	0.52053	0.18475	0.062
Mof_H 	H 	0.365	0.4943	0.1985	-0.005
Mof_C 	C 	0.4708	0.57473	0.18237	0.044
Mof_H 	H 	0.5125	0.5857	0.1951	-0.003
Mof_C 	C 	0.4338	0.5981	0.14196	-0.056
Mof_H 	H 	0.4516	0.6242	0.128	0.042
Mof_C 	C 	0.3447	0.54452	0.14494	-0.073
Mof_H 	H 	0.3018	0.5346	0.1336	0.076
Mof_C 	C 	0.372	0.58294	0.12302	-0.091
Mof_C 	C 	0.3326	0.6072	0.07889	0.435
Mof_C 	C 	0.4485	0.9032	0.3562	-0.005
Mof_C 	C 	0.4114	0.9518	0.2828	0.025
Mof_C 	C 	0.4119	0.93	0.3946	0.066
Mof_C 	C 	0.3732	0.9766	0.32	0.055
Mof_O 	O 	0.3355	0.9804	0.465	-0.327
Mof_O 	O 	0.3101	0.0276	0.4041	-0.369
Mof_O 	O 	0.15812	0.75057	0.06104	-0.528
Mof_O 	O 	0.2274	0.6932	0.0585	-0.518
Mof_O 	O 	0.1425	0.4641	0.4308	-0.344
Mof_O 	O 	0.2258	0.51134	0.4288	-0.391
Mof_O 	O 	0.21972	0.91099	0.05956	-0.528
Mof_O 	O 	0.14401	0.85611	0.06402	-0.509
Mof_C 	C 	0.05694	0.65001	0.20327	-0.162
Mof_C 	C 	0.1146	0.62968	0.17975	-0.016
Mof_H 	H 	0.1264	0.6014	0.1908	0.032
Mof_C 	C 	0.0385	0.69102	0.18377	-0.077
Mof_H 	H 	0.9995	0.7047	0.1976	0.063
Mof_C 	C 	0.0783	0.71245	0.14303	0.029
Mof_H 	H 	0.0656	0.7402	0.1305	0.009
Mof_C 	C 	0.1542	0.6506	0.14066	0.009
Mof_H 	H 	0.1932	0.6368	0.1269	0.043
Mof_C 	C 	0.1364	0.69201	0.12163	-0.157
Mof_C 	C 	0.1769	0.71339	0.07727	0.482
Mof_C 	C 	0.0532	0.58096	0.29681	-0.18
Mof_C 	C 	0.0271	0.5387	0.3178	-0.028
Mof_C 	C 	0.1227	0.5896	0.3112	-0.012
Mof_C 	C 	0.0621	0.5145	0.3576	0.057
Mof_C 	C 	0.1591	0.5634	0.3488	0.078
Mof_C 	C 	0.1281	0.53026	0.3743	-0.289
Mof_C 	C 	0.1648	0.50408	0.4143	0.748
Mof_C 	C 	0.0548	0.9649	0.20342	-0.174
Mof_C 	C 	0.1172	0.97947	0.18475	0.021
Mof_H 	H 	0.135	0.0057	0.1985	0.004
Mof_C 	C 	0.0292	0.92527	0.18237	-0.069
Mof_H 	H 	0.9875	0.9143	0.1951	0.06
Mof_C 	C 	0.0662	0.9019	0.14196	0.011
Mof_H 	H 	0.0484	0.8758	0.128	0.013
Mof_C 	C 	0.1553	0.95548	0.14494	-0.037
Mof_H 	H 	0.1982	0.9654	0.1336	0.064
Mof_C 	C 	0.128	0.91706	0.12302	-0.13
Mof_C 	C 	0.1674	0.8928	0.07889	0.449
Mof_C 	C 	0.0515	0.5968	0.3562	-0.019
Mof_C 	C 	0.0886	0.5482	0.2828	0.014
Mof_C 	C 	0.0881	0.57	0.3946	0.064
Mof_C 	C 	0.1268	0.5234	0.32	0.056
Mof_O 	O 	0.1645	0.5196	0.465	-0.329
Mof_O 	O 	0.1899	0.4724	0.4041	-0.362
Mof_O 	O 	0.65812	0.25057	0.06104	-0.523
Mof_O 	O 	0.7274	0.1932	0.0585	-0.514
Mof_O 	O 	0.6425	0.9641	0.4308	-0.337
Mof_O 	O 	0.7258	0.01134	0.4288	-0.391
Mof_O 	O 	0.71972	0.41099	0.05956	-0.523
Mof_O 	O 	0.64401	0.35611	0.06402	-0.504
Mof_C 	C 	0.55694	0.15001	0.20327	-0.226
Mof_C 	C 	0.6146	0.12968	0.17975	0.036
Mof_H 	H 	0.6264	0.1014	0.1908	0.015
Mof_C 	C 	0.5385	0.19102	0.18377	0.036
Mof_H 	H 	0.4995	0.2047	0.1976	-0.001
Mof_C 	C 	0.5783	0.21245	0.14303	-0.037
Mof_H 	H 	0.5656	0.2402	0.1305	0.036
Mof_C 	C 	0.6542	0.1506	0.14066	-0.034
Mof_H 	H 	0.6932	0.1368	0.1269	0.058
Mof_C 	C 	0.6364	0.19201	0.12163	-0.116
Mof_C 	C 	0.6769	0.21339	0.07727	0.468
Mof_C 	C 	0.5532	0.08096	0.29681	-0.21
Mof_C 	C 	0.5271	0.0387	0.3178	-0.012
Mof_C 	C 	0.6227	0.0896	0.3112	-0.005
Mof_C 	C 	0.5621	0.0145	0.3576	0.059
Mof_C 	C 	0.6591	0.0634	0.3488	0.076
Mof_C 	C 	0.6281	0.03026	0.3743	-0.281
Mof_C 	C 	0.6648	0.00408	0.4143	0.734
Mof_C 	C 	0.5548	0.4649	0.20342	-0.247
Mof_C 	C 	0.6172	0.47947	0.18475	0.062
Mof_H 	H 	0.635	0.5057	0.1985	-0.004
Mof_C 	C 	0.5292	0.42527	0.18237	0.045
Mof_H 	H 	0.4875	0.4143	0.1951	-0.004
Mof_C 	C 	0.5662	0.4019	0.14196	-0.056
Mof_H 	H 	0.5484	0.3758	0.128	0.041
Mof_C 	C 	0.6553	0.45548	0.14494	-0.073
Mof_H 	H 	0.6982	0.4654	0.1336	0.076
Mof_C 	C 	0.628	0.41706	0.12302	-0.091
Mof_C 	C 	0.6674	0.3928	0.07889	0.435
Mof_C 	C 	0.5515	0.0968	0.3562	-0.004
Mof_C 	C 	0.5886	0.0482	0.2828	0.025
Mof_C 	C 	0.5881	0.07	0.3946	0.064
Mof_C 	C 	0.6268	0.0234	0.32	0.048
Mof_O 	O 	0.6645	0.0196	0.465	-0.326
Mof_O 	O 	0.6899	0.9724	0.4041	-0.354
Mof_O 	O 	0.84188	0.75057	0.56104	-0.552
Mof_O 	O 	0.7726	0.6932	0.5585	-0.546
Mof_O 	O 	0.8575	0.4641	0.9308	-0.245
Mof_O 	O 	0.7742	0.51134	0.9288	-0.309
Mof_O 	O 	0.78028	0.91099	0.55956	-0.557
Mof_O 	O 	0.85599	0.85611	0.56402	-0.529
Mof_C 	C 	0.94306	0.65001	0.70327	-0.196
Mof_C 	C 	0.8854	0.62968	0.67975	0.026
Mof_H 	H 	0.8736	0.6014	0.6908	0.026
Mof_C 	C 	0.9615	0.69102	0.68377	0.089
Mof_H 	H 	0.0005	0.7047	0.6976	-0.033
Mof_C 	C 	0.9217	0.71245	0.64303	-0.043
Mof_H 	H 	0.9344	0.7402	0.6305	0.054
Mof_C 	C 	0.8458	0.6506	0.64066	-0.016
Mof_H 	H 	0.8068	0.6368	0.6269	0.053
Mof_C 	C 	0.8636	0.69201	0.62163	-0.12
Mof_C 	C 	0.8231	0.71339	0.57727	0.513
Mof_C 	C 	0.9468	0.58096	0.79681	-0.181
Mof_C 	C 	0.9729	0.5387	0.8178	0.003
Mof_C 	C 	0.8773	0.5896	0.8112	-0.004
Mof_C 	C 	0.9379	0.5145	0.8576	0.077
Mof_C 	C 	0.8409	0.5634	0.8488	0.081
Mof_C 	C 	0.8719	0.53026	0.8743	-0.254
Mof_C 	C 	0.8352	0.50408	0.9143	0.65
Mof_C 	C 	0.9452	0.9649	0.70342	-0.208
Mof_C 	C 	0.8828	0.97947	0.68475	0.06
Mof_H 	H 	0.865	0.0057	0.6985	0
Mof_C 	C 	0.9708	0.92527	0.68237	0.094
Mof_H 	H 	0.0125	0.9143	0.6951	-0.034
Mof_C 	C 	0.9338	0.9019	0.64196	-0.064
Mof_H 	H 	0.9516	0.8758	0.628	0.062
Mof_C 	C 	0.8447	0.95548	0.64494	-0.06
Mof_H 	H 	0.8018	0.9654	0.6336	0.074
Mof_C 	C 	0.872	0.91706	0.62302	-0.09
Mof_C 	C 	0.8326	0.8928	0.57889	0.476
Mof_C 	C 	0.9485	0.5968	0.8562	0.019
Mof_C 	C 	0.9114	0.5482	0.7828	0.023
Mof_C 	C 	0.9119	0.57	0.8946	0.095
Mof_C 	C 	0.8732	0.5234	0.82	0.042
Mof_O 	O 	0.8355	0.5196	0.965	-0.195
Mof_O 	O 	0.8101	0.4724	0.9041	-0.322
Mof_O 	O 	0.34188	0.25057	0.56104	-0.555
Mof_O 	O 	0.2726	0.1932	0.5585	-0.547
Mof_O 	O 	0.3575	0.9641	0.9308	-0.246
Mof_O 	O 	0.2742	0.01134	0.9288	-0.312
Mof_O 	O 	0.28028	0.41099	0.55956	-0.557
Mof_O 	O 	0.35599	0.35611	0.56402	-0.532
Mof_C 	C 	0.44306	0.15001	0.70327	-0.222
Mof_C 	C 	0.3854	0.12968	0.67975	0.031
Mof_H 	H 	0.3736	0.1014	0.6908	0.017
Mof_C 	C 	0.4615	0.19102	0.68377	0.034
Mof_H 	H 	0.5005	0.2047	0.6976	0.007
Mof_C 	C 	0.4217	0.21245	0.64303	-0.019
Mof_H 	H 	0.4344	0.2402	0.6305	0.04
Mof_C 	C 	0.3458	0.1506	0.64066	-0.016
Mof_H 	H 	0.3068	0.1368	0.6269	0.052
Mof_C 	C 	0.3636	0.19201	0.62163	-0.131
Mof_C 	C 	0.3231	0.21339	0.57727	0.516
Mof_C 	C 	0.4468	0.08096	0.79681	-0.224
Mof_C 	C 	0.4729	0.0387	0.8178	-0.007
Mof_C 	C 	0.3773	0.0896	0.8112	0.004
Mof_C 	C 	0.4379	0.0145	0.8576	0.06
Mof_C 	C 	0.3409	0.0634	0.8488	0.072
Mof_C 	C 	0.3719	0.03026	0.8743	-0.238
Mof_C 	C 	0.3352	0.00408	0.9143	0.632
Mof_C 	C 	0.4452	0.4649	0.70342	-0.244
Mof_C 	C 	0.3828	0.47947	0.68475	0.06
Mof_H 	H 	0.365	0.5057	0.6985	-0
Mof_C 	C 	0.4708	0.42527	0.68237	0.045
Mof_H 	H 	0.5125	0.4143	0.6951	0.002
Mof_C 	C 	0.4338	0.4019	0.64196	-0.041
Mof_H 	H 	0.4516	0.3758	0.628	0.048
Mof_C 	C 	0.3447	0.45548	0.64494	-0.057
Mof_H 	H 	0.3018	0.4654	0.6336	0.071
Mof_C 	C 	0.372	0.41706	0.62302	-0.102
Mof_C 	C 	0.3326	0.3928	0.57889	0.479
Mof_C 	C 	0.4485	0.0968	0.8562	0.014
Mof_C 	C 	0.4114	0.0482	0.7828	0.032
Mof_C 	C 	0.4119	0.07	0.8946	0.086
Mof_C 	C 	0.3732	0.0234	0.82	0.032
Mof_O 	O 	0.3355	0.0196	0.965	-0.197
Mof_O 	O 	0.3101	0.9724	0.9041	-0.312
Mof_O 	O 	0.15812	0.24943	0.56104	-0.56
Mof_O 	O 	0.2274	0.3068	0.5585	-0.552
Mof_O 	O 	0.1425	0.5359	0.9308	-0.254
Mof_O 	O 	0.2258	0.48866	0.9288	-0.308
Mof_O 	O 	0.21972	0.08901	0.55956	-0.561
Mof_O 	O 	0.14401	0.14389	0.56402	-0.539
Mof_C 	C 	0.05694	0.34999	0.70327	-0.157
Mof_C 	C 	0.1146	0.37032	0.67975	-0.022
Mof_H 	H 	0.1264	0.3986	0.6908	0.036
Mof_C 	C 	0.0385	0.30898	0.68377	-0.081
Mof_H 	H 	0.9995	0.2953	0.6976	0.071
Mof_C 	C 	0.0783	0.28755	0.64303	0.048
Mof_H 	H 	0.0656	0.2598	0.6305	0.011
Mof_C 	C 	0.1542	0.3494	0.64066	0.029
Mof_H 	H 	0.1932	0.3632	0.6269	0.036
Mof_C 	C 	0.1364	0.30799	0.62163	-0.173
Mof_C 	C 	0.1769	0.28661	0.57727	0.53
Mof_C 	C 	0.0532	0.41904	0.79681	-0.194
Mof_C 	C 	0.0271	0.4613	0.8178	-0.024
Mof_C 	C 	0.1227	0.4104	0.8112	-0.002
Mof_C 	C 	0.0621	0.4855	0.8576	0.058
Mof_C 	C 	0.1591	0.4366	0.8488	0.077
Mof_C 	C 	0.1281	0.46974	0.8743	-0.247
Mof_C 	C 	0.1648	0.49592	0.9143	0.645
Mof_C 	C 	0.0548	0.0351	0.70342	-0.161
Mof_C 	C 	0.1172	0.02053	0.68475	-0.021
Mof_H 	H 	0.135	0.9943	0.6985	0.032
Mof_C 	C 	0.0292	0.07473	0.68237	-0.083
Mof_H 	H 	0.9875	0.0857	0.6951	0.07
Mof_C 	C 	0.0662	0.0981	0.64196	0.037
Mof_H 	H 	0.0484	0.1242	0.628	0.014
Mof_C 	C 	0.1553	0.04452	0.64494	0.001
Mof_H 	H 	0.1982	0.0346	0.6336	0.048
Mof_C 	C 	0.128	0.08294	0.62302	-0.154
Mof_C 	C 	0.1674	0.1072	0.57889	0.496
Mof_C 	C 	0.0515	0.4032	0.8562	-0.002
Mof_C 	C 	0.0886	0.4518	0.7828	0.022
Mof_C 	C 	0.0881	0.43	0.8946	0.087
Mof_C 	C 	0.1268	0.4766	0.82	0.041
Mof_O 	O 	0.1645	0.4804	0.965	-0.198
Mof_O 	O 	0.1899	0.5276	0.9041	-0.32
Mof_O 	O 	0.65812	0.74943	0.56104	-0.555
Mof_O 	O 	0.7274	0.8068	0.5585	-0.548
Mof_O 	O 	0.6425	0.0359	0.9308	-0.253
Mof_O 	O 	0.7258	0.98866	0.9288	-0.305
Mof_O 	O 	0.71972	0.58901	0.55956	-0.557
Mof_O 	O 	0.64401	0.64389	0.56402	-0.532
Mof_C 	C 	0.55694	0.84999	0.70327	-0.222
Mof_C 	C 	0.6146	0.87032	0.67975	0.031
Mof_H 	H 	0.6264	0.8986	0.6908	0.019
Mof_C 	C 	0.5385	0.80898	0.68377	0.034
Mof_H 	H 	0.4995	0.7953	0.6976	0.006
Mof_C 	C 	0.5783	0.78755	0.64303	-0.018
Mof_H 	H 	0.5656	0.7598	0.6305	0.039
Mof_C 	C 	0.6542	0.8494	0.64066	-0.015
Mof_H 	H 	0.6932	0.8632	0.6269	0.052
Mof_C 	C 	0.6364	0.80799	0.62163	-0.131
Mof_C 	C 	0.6769	0.78661	0.57727	0.516
Mof_C 	C 	0.5532	0.91904	0.79681	-0.224
Mof_C 	C 	0.5271	0.9613	0.8178	-0.005
Mof_C 	C 	0.6227	0.9104	0.8112	0.004
Mof_C 	C 	0.5621	0.9855	0.8576	0.069
Mof_C 	C 	0.6591	0.9366	0.8488	0.079
Mof_C 	C 	0.6281	0.96974	0.8743	-0.252
Mof_C 	C 	0.6648	0.99592	0.9143	0.658
Mof_C 	C 	0.5548	0.5351	0.70342	-0.244
Mof_C 	C 	0.6172	0.52053	0.68475	0.06
Mof_H 	H 	0.635	0.4943	0.6985	0
Mof_C 	C 	0.5292	0.57473	0.68237	0.045
Mof_H 	H 	0.4875	0.5857	0.6951	0.002
Mof_C 	C 	0.5662	0.5981	0.64196	-0.041
Mof_H 	H 	0.5484	0.6242	0.628	0.047
Mof_C 	C 	0.6553	0.54452	0.64494	-0.057
Mof_H 	H 	0.6982	0.5346	0.6336	0.071
Mof_C 	C 	0.628	0.58294	0.62302	-0.102
Mof_C 	C 	0.6674	0.6072	0.57889	0.479
Mof_C 	C 	0.5515	0.9032	0.8562	0.014
Mof_C 	C 	0.5886	0.9518	0.7828	0.033
Mof_C 	C 	0.5881	0.93	0.8946	0.09
Mof_C 	C 	0.6268	0.9766	0.82	0.04
Mof_O 	O 	0.6645	0.9804	0.965	-0.197
Mof_O 	O 	0.6899	0.0276	0.9041	-0.328
Mof_O 	O 	0.15812	0.75057	0.93896	-0.434
Mof_O 	O 	0.2274	0.6932	0.9415	-0.425
Mof_O 	O 	0.1425	0.4641	0.5692	-0.344
Mof_O 	O 	0.2258	0.51134	0.5712	-0.391
Mof_O 	O 	0.21972	0.91099	0.94044	-0.432
Mof_O 	O 	0.14401	0.85611	0.93598	-0.419
Mof_C 	C 	0.05694	0.65001	0.79673	-0.171
Mof_C 	C 	0.1146	0.62968	0.82025	0.004
Mof_H 	H 	0.1264	0.6014	0.8092	0.028
Mof_C 	C 	0.0385	0.69102	0.81623	-0.054
Mof_H 	H 	0.9995	0.7047	0.8024	0.068
Mof_C 	C 	0.0783	0.71245	0.85697	0.019
Mof_H 	H 	0.0656	0.7402	0.8695	0.037
Mof_C 	C 	0.1542	0.6506	0.85934	-0.001
Mof_H 	H 	0.1932	0.6368	0.8731	0.056
Mof_C 	C 	0.1364	0.69201	0.87837	-0.118
Mof_C 	C 	0.1769	0.71339	0.92273	0.469
Mof_C 	C 	0.0532	0.58096	0.70319	-0.186
Mof_C 	C 	0.0271	0.5387	0.6822	-0.028
Mof_C 	C 	0.1227	0.5896	0.6888	-0.012
Mof_C 	C 	0.0621	0.5145	0.6424	0.057
Mof_C 	C 	0.1591	0.5634	0.6512	0.078
Mof_C 	C 	0.1281	0.53026	0.6257	-0.288
Mof_C 	C 	0.1648	0.50408	0.5857	0.747
Mof_C 	C 	0.0548	0.9649	0.79658	-0.18
Mof_C 	C 	0.1172	0.97947	0.81525	0.041
Mof_H 	H 	0.135	0.0057	0.8015	0.007
Mof_C 	C 	0.0292	0.92527	0.81763	-0.045
Mof_H 	H 	0.9875	0.9143	0.8049	0.065
Mof_C 	C 	0.0662	0.9019	0.85804	0.001
Mof_H 	H 	0.0484	0.8758	0.872	0.044
Mof_C 	C 	0.1553	0.95548	0.85506	-0.041
Mof_H 	H 	0.1982	0.9654	0.8664	0.077
Mof_C 	C 	0.128	0.91706	0.87698	-0.091
Mof_C 	C 	0.1674	0.8928	0.92111	0.438
Mof_C 	C 	0.0515	0.5968	0.6438	-0.019
Mof_C 	C 	0.0886	0.5482	0.7172	0.017
Mof_C 	C 	0.0881	0.57	0.6054	0.063
Mof_C 	C 	0.1268	0.5234	0.68	0.056
Mof_O 	O 	0.1645	0.5196	0.535	-0.329
Mof_O 	O 	0.1899	0.4724	0.5959	-0.361
Mof_O 	O 	0.65812	0.25057	0.93896	-0.428
Mof_O 	O 	0.7274	0.1932	0.9415	-0.421
Mof_O 	O 	0.6425	0.9641	0.5692	-0.337
Mof_O 	O 	0.7258	0.01134	0.5712	-0.391
Mof_O 	O 	0.71972	0.41099	0.94044	-0.426
Mof_O 	O 	0.64401	0.35611	0.93598	-0.412
Mof_C 	C 	0.55694	0.15001	0.79673	-0.236
Mof_C 	C 	0.6146	0.12968	0.82025	0.057
Mof_H 	H 	0.6264	0.1014	0.8092	0.01
Mof_C 	C 	0.5385	0.19102	0.81623	0.06
Mof_H 	H 	0.4995	0.2047	0.8024	0.004
Mof_C 	C 	0.5783	0.21245	0.85697	-0.046
Mof_H 	H 	0.5656	0.2402	0.8695	0.065
Mof_C 	C 	0.6542	0.1506	0.85934	-0.044
Mof_H 	H 	0.6932	0.1368	0.8731	0.071
Mof_C 	C 	0.6364	0.19201	0.87837	-0.077
Mof_C 	C 	0.6769	0.21339	0.92273	0.454
Mof_C 	C 	0.5532	0.08096	0.70319	-0.216
Mof_C 	C 	0.5271	0.0387	0.6822	-0.011
Mof_C 	C 	0.6227	0.0896	0.6888	-0.005
Mof_C 	C 	0.5621	0.0145	0.6424	0.058
Mof_C 	C 	0.6591	0.0634	0.6512	0.076
Mof_C 	C 	0.6281	0.03026	0.6257	-0.28
Mof_C 	C 	0.6648	0.00408	0.5857	0.734
Mof_C 	C 	0.5548	0.4649	0.79658	-0.253
Mof_C 	C 	0.6172	0.47947	0.81525	0.083
Mof_H 	H 	0.635	0.5057	0.8015	-0.002
Mof_C 	C 	0.5292	0.42527	0.81763	0.07
Mof_H 	H 	0.4875	0.4143	0.8049	0.001
Mof_C 	C 	0.5662	0.4019	0.85804	-0.066
Mof_H 	H 	0.5484	0.3758	0.872	0.074
Mof_C 	C 	0.6553	0.45548	0.85506	-0.078
Mof_H 	H 	0.6982	0.4654	0.8664	0.089
Mof_C 	C 	0.628	0.41706	0.87698	-0.05
Mof_C 	C 	0.6674	0.3928	0.92111	0.424
Mof_C 	C 	0.5515	0.0968	0.6438	-0.004
Mof_C 	C 	0.5886	0.0482	0.7172	0.027
Mof_C 	C 	0.5881	0.07	0.6054	0.064
Mof_C 	C 	0.6268	0.0234	0.68	0.047
Mof_O 	O 	0.6645	0.0196	0.535	-0.326
Mof_O 	O 	0.6899	0.9724	0.5959	-0.354
Mof_O 	O 	0.84188	0.24943	0.93896	-0.426
Mof_O 	O 	0.7726	0.3068	0.9415	-0.419
Mof_O 	O 	0.8575	0.5359	0.5692	-0.335
Mof_O 	O 	0.7742	0.48866	0.5712	-0.392
Mof_O 	O 	0.78028	0.08901	0.94044	-0.426
Mof_O 	O 	0.85599	0.14389	0.93598	-0.411
Mof_C 	C 	0.94306	0.34999	0.79673	-0.21
Mof_C 	C 	0.8854	0.37032	0.82025	0.051
Mof_H 	H 	0.8736	0.3986	0.8092	0.018
Mof_C 	C 	0.9615	0.30898	0.81623	0.115
Mof_H 	H 	0.0005	0.2953	0.8024	-0.036
Mof_C 	C 	0.9217	0.28755	0.85697	-0.071
Mof_H 	H 	0.9344	0.2598	0.8695	0.08
Mof_C 	C 	0.8458	0.3494	0.85934	-0.045
Mof_H 	H 	0.8068	0.3632	0.8731	0.072
Mof_C 	C 	0.8636	0.30799	0.87837	-0.065
Mof_C 	C 	0.8231	0.28661	0.92273	0.451
Mof_C 	C 	0.9468	0.41904	0.70319	-0.172
Mof_C 	C 	0.9729	0.4613	0.6822	-0.001
Mof_C 	C 	0.8773	0.4104	0.6888	-0.014
Mof_C 	C 	0.9379	0.4855	0.6424	0.076
Mof_C 	C 	0.8409	0.4366	0.6512	0.081
Mof_C 	C 	0.8719	0.46974	0.6257	-0.295
Mof_C 	C 	0.8352	0.49592	0.5857	0.752
Mof_C 	C 	0.9452	0.0351	0.79658	-0.209
Mof_C 	C 	0.8828	0.02053	0.81525	0.049
Mof_H 	H 	0.865	0.9943	0.8015	0.019
Mof_C 	C 	0.9708	0.07473	0.81763	0.112
Mof_H 	H 	0.0125	0.0857	0.8049	-0.034
Mof_C 	C 	0.9338	0.0981	0.85804	-0.082
Mof_H 	H 	0.9516	0.1242	0.872	0.086
Mof_C 	C 	0.8447	0.04452	0.85506	-0.063
Mof_H 	H 	0.8018	0.0346	0.8664	0.083
Mof_C 	C 	0.872	0.08294	0.87698	-0.048
Mof_C 	C 	0.8326	0.1072	0.92111	0.424
Mof_C 	C 	0.9485	0.4032	0.6438	0.001
Mof_C 	C 	0.9114	0.4518	0.7172	0.018
Mof_C 	C 	0.9119	0.43	0.6054	0.072
Mof_C 	C 	0.8732	0.4766	0.68	0.057
Mof_O 	O 	0.8355	0.4804	0.535	-0.325
Mof_O 	O 	0.8101	0.5276	0.5959	-0.363
Mof_O 	O 	0.34188	0.74943	0.93896	-0.428
Mof_O 	O 	0.2726	0.8068	0.9415	-0.421
Mof_O 	O 	0.3575	0.0359	0.5692	-0.343
Mof_O 	O 	0.2742	0.98866	0.5712	-0.39
Mof_O 	O 	0.28028	0.58901	0.94044	-0.426
Mof_O 	O 	0.35599	0.64389	0.93598	-0.412
Mof_C 	C 	0.44306	0.84999	0.79673	-0.236
Mof_C 	C 	0.3854	0.87032	0.82025	0.057
Mof_H 	H 	0.3736	0.8986	0.8092	0.011
Mof_C 	C 	0.4615	0.80898	0.81623	0.06
Mof_H 	H 	0.5005	0.7953	0.8024	0.005
Mof_C 	C 	0.4217	0.78755	0.85697	-0.046
Mof_H 	H 	0.4344	0.7598	0.8695	0.065
Mof_C 	C 	0.3458	0.8494	0.85934	-0.044
Mof_H 	H 	0.3068	0.8632	0.8731	0.071
Mof_C 	C 	0.3636	0.80799	0.87837	-0.077
Mof_C 	C 	0.3231	0.78661	0.92273	0.454
Mof_C 	C 	0.4468	0.91904	0.70319	-0.216
Mof_C 	C 	0.4729	0.9613	0.6822	-0.009
Mof_C 	C 	0.3773	0.9104	0.6888	-0.008
Mof_C 	C 	0.4379	0.9855	0.6424	0.068
Mof_C 	C 	0.3409	0.9366	0.6512	0.077
Mof_C 	C 	0.3719	0.96974	0.6257	-0.292
Mof_C 	C 	0.3352	0.99592	0.5857	0.761
Mof_C 	C 	0.4452	0.5351	0.79658	-0.253
Mof_C 	C 	0.3828	0.52053	0.81525	0.083
Mof_H 	H 	0.365	0.4943	0.8015	-0.002
Mof_C 	C 	0.4708	0.57473	0.81763	0.07
Mof_H 	H 	0.5125	0.5857	0.8049	0.001
Mof_C 	C 	0.4338	0.5981	0.85804	-0.066
Mof_H 	H 	0.4516	0.6242	0.872	0.074
Mof_C 	C 	0.3447	0.54452	0.85506	-0.078
Mof_H 	H 	0.3018	0.5346	0.8664	0.089
Mof_C 	C 	0.372	0.58294	0.87698	-0.05
Mof_C 	C 	0.3326	0.6072	0.92111	0.424
Mof_C 	C 	0.4485	0.9032	0.6438	-0.005
Mof_C 	C 	0.4114	0.9518	0.7172	0.028
Mof_C 	C 	0.4119	0.93	0.6054	0.065
Mof_C 	C 	0.3732	0.9766	0.68	0.055
Mof_O 	O 	0.3355	0.9804	0.535	-0.327
Mof_O 	O 	0.3101	0.0276	0.5959	-0.369
Mof_Er	Er	0.18105	0.19448	0.5	2.013
Mof_Er	Er	0.27443	0.044	0.5	2.001
Mof_Er	Er	0.68105	0.69448	0.5	2.012
Mof_Er	Er	0.77443	0.544	0.5	2.011
Mof_Er	Er	0.81895	0.80552	0.5	2.017
Mof_Er	Er	0.72557	0.956	0.5	2.017
Mof_Er	Er	0.31895	0.30552	0.5	2.015
Mof_Er	Er	0.22557	0.456	0.5	2.006
Mof_Er	Er	0.81895	0.19448	-0	1.612
Mof_Er	Er	0.72557	0.044	-0	1.605
Mof_Er	Er	0.31895	0.69448	-0	1.608
Mof_Er	Er	0.22557	0.544	-0	1.605
Mof_Er	Er	0.18105	0.80552	-0	1.608
Mof_Er	Er	0.27443	0.956	-0	1.617
Mof_Er	Er	0.68105	0.30552	-0	1.605
Mof_Er	Er	0.77443	0.456	-0	1.61
Mof_Si	Si	-2.35694e-33	0.38354	0.25	0.603
Mof_Si	Si	0.5	0.88354	0.25	0.706
Mof_Si	Si	-1.64544e-32	0.61646	0.25	0.604
Mof_Si	Si	0.5	0.11646	0.25	0.704
Mof_Si	Si	-1.76439e-32	0.61646	0.75	0.621
Mof_Si	Si	0.5	0.11646	0.75	0.723
Mof_Si	Si	3.50223e-33	0.38354	0.75	0.62
Mof_Si	Si	0.5	0.88354	0.75	0.724
Mof_Si	Si	1.16741e-33	0	0.25	0.584
Mof_Si	Si	0.5	0.5	0.25	0.722
Mof_Si	Si	3.50223e-33	0	0.75	0.6
Mof_Si	Si	0.5	0.5	0.75	0.742
_end
